
###############################################################################
#
# This file contains modified crystal structure data generated from the
# MOF subset of the Cambridge Structural Database (CSD) v543 
# hosted by the Cambridge Crystallographic Data Centre (CCDC).
#
# This work is licensed under the Creative Commons
# Attribution-NonCommercial-ShareAlike 4.0 International License.
# To view a copy of this license, visit
# http://creativecommons.org/licenses/by-nc-sa/4.0/
# or send a letter to
# Creative Commons, PO Box 1866, Mountain View, CA 94042, USA.
#
# CIF created using the CSD Python API on 29 September 2022
# The structure has been converted into the P1 space group
# The structure has a 3D framework
# The original CSD entry XALDOE is in the tetragonal crystal system
# The framework has been calculated to contain at least 10.0% void space
# The void calculation uses a probe of radius 1.32A, grid spacing 0.4
#
###############################################################################

data_XALDOE
_chemical_formula_moiety         '(C864 H1024 Mn48 N144 O160)n'
_symmetry_cell_setting           triclinic
_symmetry_space_group_name_H-M   'P 1'
_symmetry_Int_Tables_number      1
_space_group_name_Hall           'P 1'
loop_
_symmetry_equiv_pos_site_id
_symmetry_equiv_pos_as_xyz
1 x,y,z
_cell_length_a                   40.873(2)
_cell_length_b                   40.873(2)
_cell_length_c                   17.4993(13)
_cell_angle_alpha                90
_cell_angle_beta                 90
_cell_angle_gamma                90
_cell_volume                     29234.4
loop_
_atom_site_label
_atom_site_type_symbol
_atom_site_fract_x
_atom_site_fract_y
_atom_site_fract_z
Mn1 Mn 0.075986(11) 0.041325(12) 0.18867(3)
O1 O 0.09292(5) 0.01468(6) 0.26578(15)
O3 O 0.05152(5) 0.06749(5) 0.11606(13)
O4 O 0.08748(6) 0.08696(6) 0.25551(15)
N1 N 0.03246(6) 0.03722(6) 0.23232(15)
N2 N 0.00740(6) 0.05225(6) 0.18813(15)
N3 N 0.09764(9) 0.14113(8) 0.2645(2)
C1 C 0.07836(9) 0.00218(8) 0.3276(2)
C6 C 0.04501(8) 0.00684(8) 0.3470(2)
C7 C 0.02202(8) 0.02408(8) 0.29709(19)
C8 C 0.01993(8) 0.06690(8) 0.12897(19)
H6 H 0.0003 0.0732 0.0221
C10 C 0.00516(9) 0.12009(10) 0.0656(3)
H7 H 0.0284 0.1229 0.0514
H10 H 0.0124 0.1301 0.1799
C12 C 0.00465(14) 0.17548(12) 0.1320(5)
H12 H 0.0276 0.1791 0.1163
H13 H 0.0117 0.1845 0.2475
H15 H 0.0040 0.2170 0.2000
C14 C 0.08704(10) 0.11411(10) 0.2293(3)
H16 H 0.0784 0.1166 0.1792
C15 C 0.11192(14) 0.14101(13) 0.3371(4)
H17 H 0.1005 0.1567 0.3700
H18 H 0.1350 0.1472 0.3329
H19 H 0.1102 0.1191 0.3593
C16 C 0.09768(16) 0.17228(11) 0.2254(4)
H20 H 0.1184 0.1836 0.2354
H21 H 0.0795 0.1857 0.2441
H22 H 0.0952 0.1687 0.1704
O9 O 0.11787(5) 0.04792(5) 0.13472(14)
N7 N 0.10625(6) 0.00500(6) 0.05589(16)
N8 N 0.07815(6) 0.00056(6) 0.10246(16)
C39 C 0.20598(8) 0.06751(8) 0.0276(2)
H46 H 0.2196 0.0845 0.0469
C40 C 0.17682(8) 0.06025(8) 0.0622(2)
H47 H 0.1704 0.0727 0.1055
C41 C 0.15605(7) 0.03521(8) 0.03633(19)
C42 C 0.12531(7) 0.02945(8) 0.0773(2)
C36 C 0.16556(8) 0.01702(8) 0.9713(2)
C37 C 0.19533(9) 0.02491(9) 0.9363(2)
H44 H 0.2021 0.0130 0.8924
C38 C 0.21517(9) 0.04972(9) 0.9644(2)
H45 H 0.2353 0.0545 0.9397
C2 C 0.09760(10) 0.98238(9) 0.3765(3)
H1 H 0.1197 0.9778 0.3636
C3 C 0.08460(12) 0.96989(11) 0.4421(3)
H2 H 0.0980 0.9569 0.4744
C4 C 0.05236(12) 0.97566(11) 0.4629(3)
H3 H 0.0439 0.9674 0.5096
C5 C 0.03305(10) 0.99364(9) 0.4143(2)
H4 H 0.0108 0.9971 0.4272
O10 O 0.07554(5) 0.95288(5) 0.03472(13)
C43 C 0.06423(8) 0.97261(8) 0.0862(2)
C44 C 0.03526(9) 0.96147(9) 0.1319(2)
H48 H 0.0255 0.9804 0.1587
H49 H 0.0185 0.9523 0.0971
C45 C 0.04554(12) 0.93472(13) 0.1922(3)
H50 H 0.0545 0.9153 0.1655
H51 H 0.0628 0.9436 0.2261
C46 C 0.01480(16) 0.9244(2) 0.2412(5)
H52 H 0.0001 0.9111 0.2087
H53 H 0.0027 0.9444 0.2560
C47 C 0.0219(3) 0.9069(3) 0.3064(7)
H54 H 0.0326 0.8859 0.2926
H55 H 0.0371 0.9195 0.3391
N11 N 0.14550(6) 0.94230(7) 0.06531(17)
Mn1_2 Mn 0.208675(12) 0.825986(11) 0.93867(3)
O3_2 O 0.18251(5) 0.80152(5) 0.86606(13)
N1_2 N 0.21278(6) 0.78246(6) 0.98232(15)
N2_2 N 0.19775(6) 0.75740(6) 0.93813(15)
C8_2 C 0.18310(8) 0.76993(8) 0.87897(19)
C9 C 0.16634(9) 0.74782(8) 0.8228(2)
H5 H 0.1692 0.7248 0.8393
H6_2 H 0.1768 0.7503 0.7721
C10_2 C 0.12991(10) 0.75516(9) 0.8156(3)
H7_2 H 0.1271 0.7784 0.8014
H8 H 0.1207 0.7417 0.7739
C11 C 0.11097(10) 0.74845(12) 0.8887(3)
H9 H 0.1145 0.7254 0.9036
H10_2 H 0.1199 0.7624 0.9299
C12_2 C 0.07452(12) 0.75465(14) 0.8820(5)
H11 H 0.0654 0.7404 0.8416
H12_2 H 0.0709 0.7776 0.8663
C13 C 0.05606(14) 0.74829(19) 0.9567(5)
H13_2 H 0.0655 0.7617 0.9975
H14 H 0.0579 0.7251 0.9702
H15_2 H 0.0330 0.7540 0.9500
C14_2 C 0.13589(10) 0.83704(10) 0.9793(3)
H16_2 H 0.1334 0.8284 0.9292
C16_2 C 0.07772(11) 0.84768(16) 0.9754(4)
H20_2 H 0.0664 0.8684 0.9854
H21_2 H 0.0643 0.8295 0.9941
H22_2 H 0.0813 0.8452 0.9204
Mn2 Mn 0.211669(12) 0.708592(11) 0.98989(3)
O6 O 0.18328(5) 0.63443(5) 0.84100(13)
O7 O 0.25316(5) 0.71239(5) 0.93821(12)
N4 N 0.20597(6) 0.67515(6) 0.91145(14)
N5 N 0.23364(6) 0.67168(6) 0.86300(15)
C20 C 0.10228(9) 0.62778(9) 0.9810(3)
H25 H 0.0868 0.6108 0.9724
C21 C 0.12951(8) 0.63028(8) 0.9355(2)
H26 H 0.1322 0.6154 0.8944
C22 C 0.15328(8) 0.65401(8) 0.9479(2)
C23 C 0.18190(7) 0.65460(7) 0.89707(19)
C24 C 0.25656(8) 0.69181(8) 0.88223(19)
C25 C 0.28912(8) 0.69088(9) 0.8424(2)
H27 H 0.2955 0.7134 0.8275
H28 H 0.2873 0.6776 0.7953
C26 C 0.31545(9) 0.67625(12) 0.8941(3)
H29 H 0.3371 0.6795 0.8701
H30 H 0.3154 0.6880 0.9435
C27 C 0.31030(11) 0.64002(12) 0.9087(3)
H31 H 0.3098 0.6285 0.8591
H32 H 0.2887 0.6370 0.9334
C28 C 0.33672(13) 0.62422(15) 0.9594(4)
H33 H 0.3583 0.6269 0.9343
C29 C 0.33121(19) 0.58934(16) 0.9743(5)
H35 H 0.3089 0.5862 0.9936
H37 H 0.3340 0.5770 0.9268
Mn3 Mn 0.279520(11) 0.863020(12) 0.73138(3)
O8 O 0.25739(5) 0.89847(5) 0.69101(13)
O9_2 O 0.20208(5) 0.86787(5) 0.88472(14)
O10_2 O 0.29712(5) 0.82554(5) 0.78472(13)
N7_2 N 0.24500(6) 0.85625(6) 0.80589(16)
N8_2 N 0.24944(6) 0.82815(6) 0.85246(16)
C36_2 C 0.23298(8) 0.91556(8) 0.7213(2)
C37_2 C 0.22509(9) 0.94533(9) 0.6863(2)
H44_2 H 0.2370 0.9521 0.6424
C38_2 C 0.20028(9) 0.96517(9) 0.7144(2)
H45_2 H 0.1955 0.9853 0.6897
C39_2 C 0.18249(8) 0.95598(8) 0.7776(2)
H46_2 H 0.1655 0.9696 0.7969
C40_2 C 0.18975(8) 0.92682(8) 0.8122(2)
H47_2 H 0.1773 0.9204 0.8555
C41_2 C 0.21479(8) 0.90605(7) 0.78633(19)
C42_2 C 0.22055(8) 0.87531(7) 0.8273(2)
C43_2 C 0.27739(8) 0.81423(8) 0.8362(2)
C44_2 C 0.28853(9) 0.78526(9) 0.8819(2)
H48_2 H 0.2696 0.7755 0.9087
H49_2 H 0.2977 0.7685 0.8471
C45_2 C 0.31528(13) 0.79554(12) 0.9422(3)
H50_2 H 0.3347 0.8045 0.9155
H51_2 H 0.3064 0.8128 0.9761
C46_2 C 0.3256(2) 0.76480(16) 0.9912(5)
H52_2 H 0.3389 0.7501 0.9587
O11 O 0.31672(5) 0.86557(5) 0.65900(13)
N10 N 0.26636(6) 0.82832(6) 0.63700(15)
Mn4 Mn 0.220480(11) 0.636980(12) 0.76862(3)
N11_2 N 0.30770(7) 0.89550(6) 0.81531(17)
H59 H 0.1726 0.4198 0.0111
Mn5 Mn 0.113020(12) 0.470480(11) 0.01862(3)
O2 O 0.00803(5) 0.47428(6) 0.31698(12)
C9_2 C 0.00218(8) 0.41634(9) 0.0728(2)
H5_2 H 0.0252 0.4192 0.0893
H8_2 H 0.0083 0.3707 0.0239
C11_2 C 0.00155(12) 0.36097(10) 0.1387(3)
H9_2 H 0.0246 0.3645 0.1536
H11_2 H 0.0096 0.3154 0.0916
C13_2 C 0.00171(19) 0.30606(14) 0.2067(5)
H14_2 H 0.0249 0.3079 0.2202
Mn2_2 Mn 0.041408(11) 0.461669(12) 0.23989(3)
O5 O 0.05053(5) 0.42013(5) 0.27784(14)
O6_2 O 0.11557(5) 0.43328(5) 0.09100(13)
O7_2 O 0.03761(5) 0.50316(5) 0.18821(12)
N4_2 N 0.07485(6) 0.45597(6) 0.16145(14)
N5_2 N 0.07832(6) 0.48364(6) 0.11300(15)
N6 N 0.07649(7) 0.48751(8) 0.32165(17)
C17 C 0.07397(8) 0.39897(8) 0.2592(2)
C18 C 0.07637(9) 0.37062(9) 0.3034(2)
H23 H 0.0614 0.3672 0.3441
C19 C 0.10010(10) 0.34757(10) 0.2889(3)
H24 H 0.1012 0.3283 0.3191
C20_2 C 0.12222(9) 0.35228(9) 0.2310(3)
H25_2 H 0.1392 0.3368 0.2224
C21_2 C 0.11972(8) 0.37951(8) 0.1855(2)
H26_2 H 0.1346 0.3822 0.1444
C22_2 C 0.09599(8) 0.40328(8) 0.1979(2)
C23_2 C 0.09540(7) 0.43190(7) 0.14707(19)
C24_2 C 0.05819(8) 0.50656(8) 0.13223(19)
C25_2 C 0.05912(9) 0.53912(8) 0.0924(2)
H27_2 H 0.0366 0.5455 0.0775
H28_2 H 0.0724 0.5373 0.0453
C26_2 C 0.07375(12) 0.56545(9) 0.1441(3)
H29_2 H 0.0705 0.5871 0.1201
H30_2 H 0.0620 0.5654 0.1935
C27_2 C 0.10998(12) 0.56030(11) 0.1587(3)
H31_2 H 0.1215 0.5598 0.1091
H32_2 H 0.1130 0.5387 0.1834
C28_2 C 0.12578(15) 0.58672(13) 0.2094(4)
H33_2 H 0.1231 0.6083 0.1843
H34 H 0.1140 0.5875 0.2588
C29_2 C 0.16066(16) 0.58121(19) 0.2243(5)
H35_2 H 0.1638 0.5589 0.2436
H36 H 0.1684 0.5970 0.2624
H37_2 H 0.1730 0.5840 0.1768
C30 C 0.06867(11) 0.51810(11) 0.3422(2)
H38 H 0.0479 0.5265 0.3282
C31 C 0.08988(12) 0.53783(12) 0.3832(3)
H39 H 0.0836 0.5594 0.3968
C32 C 0.12004(11) 0.52618(15) 0.4041(3)
C33 C 0.12708(10) 0.49455(14) 0.3836(3)
H40 H 0.1473 0.4851 0.3985
C34 C 0.10515(9) 0.47649(11) 0.3419(2)
H41 H 0.1111 0.4549 0.3270
C35 C 0.14284(12) 0.54728(18) 0.4507(4)
H42 H 0.1655 0.5390 0.4447
H43 H 0.1422 0.5699 0.4305
N9 N 0.19230(7) 0.60450(6) 0.68469(17)
C48 C 0.0123(3) 0.6002(3) 0.3526(7)
H56 H 0.0310 0.5956 0.3190
H57 H 0.0130 0.6232 0.3685
H58 H 0.0135 0.5861 0.3978
C49 C 0.17186(9) 0.58135(9) 0.7078(2)
H59_2 H 0.1698 0.5774 0.7611
C50 C 0.15345(10) 0.56271(10) 0.6583(2)
H60 H 0.1395 0.5460 0.6772
C51 C 0.15546(12) 0.56864(11) 0.5810(2)
C52 C 0.17704(11) 0.59259(11) 0.5569(2)
H61 H 0.1797 0.5970 0.5040
C53 C 0.19448(10) 0.60988(9) 0.6099(2)
H62 H 0.2089 0.6265 0.5925
C54 C 0.13524(17) 0.54788(15) 0.5254(3)
H63 H 0.1359 0.5250 0.5440
H64 H 0.1122 0.5552 0.5295
Mn1_3 Mn 0.291325(12) 0.674014(11) 0.56133(3)
O1_2 O 0.26468(6) 0.65708(5) 0.48422(15)
O2_2 O 0.27572(6) 0.75803(5) 0.43302(12)
O3_3 O 0.31749(5) 0.69848(5) 0.63394(13)
O4_2 O 0.33696(6) 0.66252(6) 0.49449(15)
N1_3 N 0.28722(6) 0.71754(6) 0.51768(15)
N2_3 N 0.30225(6) 0.74260(6) 0.56187(15)
N3_2 N 0.39113(8) 0.65236(9) 0.4855(2)
C1_2 C 0.25218(8) 0.67164(9) 0.4224(2)
C2_2 C 0.23238(9) 0.65240(10) 0.3735(3)
H1_2 H 0.2278 0.6303 0.3864
C3_2 C 0.21989(11) 0.66540(12) 0.3079(3)
H2_2 H 0.2069 0.6520 0.2756
C4_2 C 0.22566(11) 0.69764(12) 0.2871(3)
H3_2 H 0.2174 0.7061 0.2404
C5_2 C 0.24364(9) 0.71695(10) 0.3357(2)
H4_2 H 0.2471 0.7392 0.3228
C6_2 C 0.25684(8) 0.70499(8) 0.4030(2)
C7_2 C 0.27408(8) 0.72798(8) 0.45291(19)
C8_3 C 0.31690(8) 0.73007(8) 0.62103(19)
C9_3 C 0.33366(9) 0.75218(8) 0.6772(2)
H5_3 H 0.3308 0.7752 0.6607
H6_3 H 0.3232 0.7497 0.7279
C10_3 C 0.37009(10) 0.74484(9) 0.6844(3)
H7_3 H 0.3729 0.7216 0.6986
H8_3 H 0.3793 0.7583 0.7261
C11_3 C 0.38903(10) 0.75155(12) 0.6113(3)
H9_3 H 0.3855 0.7746 0.5964
H10_3 H 0.3801 0.7376 0.5701
C12_3 C 0.42548(12) 0.74535(14) 0.6180(5)
H11_3 H 0.4346 0.7596 0.6584
H12_3 H 0.4291 0.7224 0.6337
C13_3 C 0.44394(14) 0.75171(19) 0.5433(5)
H13_3 H 0.4345 0.7383 0.5025
H14_3 H 0.4421 0.7749 0.5298
H15_3 H 0.4670 0.7460 0.5500
C14_3 C 0.36411(10) 0.66296(10) 0.5207(3)
H16_3 H 0.3666 0.6716 0.5708
C15_2 C 0.39101(13) 0.63808(14) 0.4129(4)
H17_2 H 0.4067 0.6495 0.3800
H18_2 H 0.3972 0.6150 0.4171
H19_2 H 0.3691 0.6398 0.3907
C16_3 C 0.42228(11) 0.65232(16) 0.5246(4)
H20_3 H 0.4336 0.6316 0.5146
H21_3 H 0.4357 0.6705 0.5059
H22_3 H 0.4187 0.6548 0.5796
Mn2_3 Mn 0.288331(12) 0.791408(11) 0.51011(3)
O5_2 O 0.32987(5) 0.80053(5) 0.47216(14)
O7_3 O 0.24684(5) 0.78761(5) 0.56179(12)
N4_3 N 0.29403(6) 0.82485(6) 0.58855(14)
N6_2 N 0.26249(8) 0.82649(7) 0.42835(17)
C17_2 C 0.35103(8) 0.82397(8) 0.4908(2)
C18_2 C 0.37938(9) 0.82637(9) 0.4466(2)
H23_2 H 0.3828 0.8114 0.4059
C19_2 C 0.40243(10) 0.85010(10) 0.4611(3)
H24_2 H 0.4217 0.8512 0.4309
C20_3 C 0.39772(9) 0.87222(9) 0.5190(3)
H25_3 H 0.4132 0.8892 0.5276
C21_3 C 0.37049(8) 0.86972(8) 0.5645(2)
H26_3 H 0.3678 0.8846 0.6056
C22_3 C 0.34672(8) 0.84599(8) 0.5521(2)
C23_3 C 0.31810(7) 0.84540(7) 0.60293(19)
C24_3 C 0.24344(8) 0.80819(8) 0.61777(19)
C25_3 C 0.21088(8) 0.80912(9) 0.6576(2)
H27_3 H 0.2045 0.7866 0.6725
H28_3 H 0.2127 0.8224 0.7047
C26_3 C 0.18455(9) 0.82375(12) 0.6059(3)
H29_3 H 0.1629 0.8205 0.6299
H30_3 H 0.1846 0.8120 0.5565
C27_3 C 0.18970(11) 0.85998(12) 0.5913(3)
H31_3 H 0.1902 0.8715 0.6409
H32_3 H 0.2113 0.8630 0.5666
C28_3 C 0.16328(13) 0.87578(15) 0.5406(4)
H33_3 H 0.1417 0.8731 0.5657
H34_2 H 0.1625 0.8640 0.4912
C29_3 C 0.16879(19) 0.91066(16) 0.5257(5)
H35_3 H 0.1911 0.9138 0.5064
H36_2 H 0.1530 0.9184 0.4876
H37_3 H 0.1660 0.9230 0.5732
C30_2 C 0.23190(11) 0.81867(11) 0.4078(2)
H38_2 H 0.2235 0.7979 0.4218
C31_2 C 0.21217(12) 0.83988(12) 0.3668(3)
H39_2 H 0.1906 0.8336 0.3532
C32_2 C 0.22382(15) 0.87004(11) 0.3459(3)
C33_2 C 0.25545(14) 0.87708(10) 0.3664(3)
H40_2 H 0.2649 0.8973 0.3515
C34_2 C 0.27351(11) 0.85515(9) 0.4081(2)
H41_2 H 0.2951 0.8611 0.4230
C35_2 C 0.20272(18) 0.89284(12) 0.2993(4)
H42_2 H 0.2110 0.9155 0.3053
H43_2 H 0.1801 0.8922 0.3195
O8_2 O 0.24261(5) 0.60153(5) 0.80899(13)
O9_3 O 0.29792(5) 0.63213(5) 0.61528(14)
O10_3 O 0.20288(5) 0.67446(5) 0.71528(13)
N7_3 N 0.25500(6) 0.64375(6) 0.69411(16)
N8_3 N 0.25056(6) 0.67185(6) 0.64754(16)
C36_3 C 0.26702(8) 0.58444(8) 0.7787(2)
C37_3 C 0.27491(9) 0.55467(9) 0.8137(2)
H44_3 H 0.2630 0.5479 0.8576
C38_3 C 0.29972(9) 0.53483(9) 0.7856(2)
H45_3 H 0.3045 0.5147 0.8103
C39_3 C 0.31751(8) 0.54402(8) 0.7224(2)
H46_3 H 0.3345 0.5304 0.7031
C40_3 C 0.31025(8) 0.57318(8) 0.6878(2)
H47_3 H 0.3227 0.5796 0.6445
C41_3 C 0.28521(8) 0.59395(7) 0.71367(19)
C42_3 C 0.27945(8) 0.62469(7) 0.6727(2)
C43_3 C 0.22261(8) 0.68577(8) 0.6638(2)
C44_3 C 0.21147(9) 0.71474(9) 0.6181(2)
H48_3 H 0.2304 0.7245 0.5913
H49_3 H 0.2023 0.7315 0.6529
C45_3 C 0.18472(13) 0.70446(12) 0.5578(3)
H50_3 H 0.1653 0.6955 0.5845
H51_3 H 0.1936 0.6872 0.5239
C46_3 C 0.1744(2) 0.73520(16) 0.5088(5)
H52_3 H 0.1611 0.7499 0.5413
H53_2 H 0.1944 0.7473 0.4940
C47_2 C 0.1569(3) 0.7281(3) 0.4436(7)
H54_2 H 0.1359 0.7174 0.4574
H55_2 H 0.1695 0.7129 0.4109
C48_2 C 0.1498(3) 0.7623(3) 0.3974(7)
H56_2 H 0.1544 0.7810 0.4310
H57_2 H 0.1268 0.7630 0.3815
H58_2 H 0.1639 0.7635 0.3522
C49_2 C 0.16865(9) 0.92186(9) 0.0422(2)
C50_2 C 0.18729(10) 0.90345(10) 0.0917(2)
H60_2 H 0.2040 0.8895 0.0728
C51_2 C 0.18136(11) 0.90546(12) 0.1690(2)
C52_2 C 0.15741(11) 0.92704(11) 0.1931(2)
H61_2 H 0.1530 0.9297 0.2460
C53_2 C 0.14012(9) 0.94448(10) 0.1401(2)
H62_2 H 0.1235 0.9589 0.1575
C54_2 C 0.20212(15) 0.88524(17) 0.2246(3)
H63_2 H 0.2250 0.8859 0.2060
H64_2 H 0.1948 0.8622 0.2205
H3_3 H 0.5439 0.9674 0.9904
C49_3 C 0.32814(9) 0.91865(9) 0.7922(2)
H59_3 H 0.3302 0.9226 0.7389
C50_3 C 0.34655(10) 0.93729(10) 0.8417(2)
H60_3 H 0.3605 0.9540 0.8228
C51_3 C 0.34454(12) 0.93136(11) 0.9190(2)
C52_3 C 0.32296(11) 0.90741(11) 0.9431(2)
H61_3 H 0.3203 0.9030 0.9960
C53_3 C 0.30552(10) 0.89012(9) 0.8901(2)
H62_3 H 0.2911 0.8735 0.9075
C54_3 C 0.36476(17) 0.95212(15) 0.9746(3)
H63_3 H 0.3641 0.9750 0.9560
H64_3 H 0.3878 0.9448 0.9705
O8_3 O 0.14847(5) 0.49261(5) 0.05899(13)
C36_4 C 0.16556(8) 0.51702(8) 0.0287(2)
C37_4 C 0.19533(9) 0.52491(9) 0.0637(2)
H44_4 H 0.2021 0.5130 0.1076
C38_4 C 0.21517(9) 0.54972(9) 0.0356(2)
H45_4 H 0.2353 0.5545 0.0603
Mn3_2 Mn 0.113020(12) 0.970480(11) 0.98138(3)
O8_4 O 0.14847(5) 0.99261(5) 0.94101(13)
O11_2 O 0.11557(5) 0.93328(5) 0.90900(13)
N10_2 N 0.07832(6) 0.98364(6) 0.88700(15)
O2_3 O 0.00803(5) 0.97428(6) 0.68302(12)
C9_4 C 0.00218(8) 0.91634(9) 0.9272(2)
H5_4 H 0.0252 0.9192 0.9107
H8_4 H 0.0083 0.8707 0.9761
C11_4 C 0.00155(12) 0.86097(10) 0.8613(3)
H9_4 H 0.0246 0.8645 0.8464
H11_4 H 0.0096 0.8154 0.9084
C13_4 C 0.00171(19) 0.80606(14) 0.7933(5)
H14_4 H 0.0249 0.8079 0.7798
Mn2_4 Mn 0.041408(11) 0.961669(12) 0.76011(3)
O5_3 O 0.05053(5) 0.92013(5) 0.72216(14)
N4_4 N 0.07485(6) 0.95597(6) 0.83855(14)
N6_3 N 0.07649(7) 0.98751(8) 0.67835(17)
C17_3 C 0.07397(8) 0.89897(8) 0.7408(2)
C18_3 C 0.07637(9) 0.87062(9) 0.6966(2)
H23_3 H 0.0614 0.8672 0.6559
C19_3 C 0.10010(10) 0.84757(10) 0.7111(3)
H24_3 H 0.1012 0.8283 0.6809
C20_4 C 0.12222(9) 0.85228(9) 0.7690(3)
H25_4 H 0.1392 0.8368 0.7776
C21_4 C 0.11972(8) 0.87951(8) 0.8145(2)
H26_4 H 0.1346 0.8822 0.8556
C22_4 C 0.09599(8) 0.90328(8) 0.8021(2)
C23_4 C 0.09540(7) 0.93190(7) 0.85293(19)
C33_3 C 0.12708(10) 0.99455(14) 0.6164(3)
H40_3 H 0.1473 0.9851 0.6015
C34_3 C 0.10515(9) 0.97649(11) 0.6581(2)
H41_3 H 0.1111 0.9549 0.6730
H59_4 H 0.1726 0.9198 0.9889
O2_4 O 0.99197(5) 0.02572(6) 0.31698(12)
C9_5 C 0.99782(8) 0.08366(9) 0.0728(2)
H5_5 H 0.9748 0.0808 0.0893
H8_5 H 0.9917 0.1293 0.0239
C11_5 C 0.99845(12) 0.13903(10) 0.1387(3)
H9_5 H 0.9754 0.1355 0.1536
H11_5 H 0.9904 0.1846 0.0916
C13_5 C 0.99829(19) 0.19394(14) 0.2067(5)
H14_5 H 0.9751 0.1921 0.2202
Mn2_5 Mn 0.958592(11) 0.038331(12) 0.23989(3)
O5_4 O 0.94947(5) 0.07987(5) 0.27784(14)
O6_3 O 0.88443(5) 0.06672(5) 0.09100(13)
N4_5 N 0.92515(6) 0.04403(6) 0.16145(14)
N5_3 N 0.92168(6) 0.01636(6) 0.11300(15)
N6_4 N 0.92351(7) 0.01249(8) 0.32165(17)
C17_4 C 0.92603(8) 0.10103(8) 0.2592(2)
C18_4 C 0.92363(9) 0.12938(9) 0.3034(2)
H23_4 H 0.9386 0.1328 0.3441
C19_4 C 0.89990(10) 0.15243(10) 0.2889(3)
H24_4 H 0.8988 0.1717 0.3191
C20_5 C 0.87778(9) 0.14772(9) 0.2310(3)
H25_5 H 0.8608 0.1632 0.2224
C21_5 C 0.88028(8) 0.12049(8) 0.1855(2)
H26_5 H 0.8654 0.1178 0.1444
C22_5 C 0.90401(8) 0.09672(8) 0.1979(2)
C23_5 C 0.90460(7) 0.06810(7) 0.14707(19)
C33_4 C 0.87292(10) 0.00545(14) 0.3836(3)
H40_4 H 0.8527 0.0149 0.3985
C34_4 C 0.89485(9) 0.02351(11) 0.3419(2)
H41_4 H 0.8889 0.0451 0.3270
Mn4_2 Mn 0.886980(12) 0.029520(11) 0.01862(3)
H59_5 H 0.8274 0.0802 0.0111
O8_5 O 0.85153(5) 0.00739(5) 0.05899(13)
O7_4 O 0.96239(5) 0.99684(5) 0.18821(12)
C24_4 C 0.94181(8) 0.99344(8) 0.13223(19)
C25_4 C 0.94088(9) 0.96088(8) 0.0924(2)
H27_4 H 0.9634 0.9545 0.0775
H28_4 H 0.9276 0.9627 0.0453
C26_4 C 0.92625(12) 0.93455(9) 0.1441(3)
H29_4 H 0.9295 0.9129 0.1201
H30_4 H 0.9380 0.9346 0.1935
C27_4 C 0.89002(12) 0.93970(11) 0.1587(3)
H31_4 H 0.8785 0.9402 0.1091
H32_4 H 0.8870 0.9613 0.1834
C28_4 C 0.87422(15) 0.91328(13) 0.2094(4)
H33_4 H 0.8769 0.8917 0.1843
H34_3 H 0.8860 0.9125 0.2588
C29_4 C 0.83934(16) 0.91879(19) 0.2243(5)
H35_4 H 0.8362 0.9411 0.2436
H36_3 H 0.8316 0.9030 0.2624
H37_4 H 0.8270 0.9160 0.1768
C30_3 C 0.93133(11) 0.98190(11) 0.3422(2)
H38_3 H 0.9521 0.9735 0.3282
C31_3 C 0.91012(12) 0.96217(12) 0.3832(3)
H39_3 H 0.9164 0.9406 0.3968
C32_3 C 0.87996(11) 0.97382(15) 0.4041(3)
C35_3 C 0.85716(12) 0.95272(18) 0.4507(4)
H42_3 H 0.8345 0.9610 0.4447
H43_3 H 0.8578 0.9301 0.4305
N9_2 N 0.80770(7) 0.89550(6) 0.68469(17)
C48_3 C 0.9877(3) 0.8998(3) 0.3526(7)
H56_3 H 0.9690 0.9044 0.3190
H57_3 H 0.9870 0.8768 0.3685
H58_3 H 0.9865 0.9139 0.3978
C49_4 C 0.82814(9) 0.91865(9) 0.7078(2)
H59_6 H 0.8302 0.9226 0.7611
C50_4 C 0.84655(10) 0.93729(10) 0.6583(2)
H60_4 H 0.8605 0.9540 0.6772
C51_4 C 0.84454(12) 0.93136(11) 0.5810(2)
C52_4 C 0.82296(11) 0.90741(11) 0.5569(2)
H61_4 H 0.8203 0.9030 0.5040
C53_4 C 0.80552(10) 0.89012(9) 0.6099(2)
H62_4 H 0.7911 0.8735 0.5925
C54_4 C 0.86476(17) 0.95212(15) 0.5254(3)
H63_4 H 0.8641 0.9750 0.5440
H64_4 H 0.8878 0.9448 0.5295
Mn5_2 Mn 0.779520(11) 0.863020(12) 0.76862(3)
Mn1_4 Mn 0.791325(12) 0.674014(11) 0.93867(3)
O3_4 O 0.81749(5) 0.69848(5) 0.86606(13)
N1_4 N 0.78722(6) 0.71754(6) 0.98232(15)
N2_4 N 0.80225(6) 0.74260(6) 0.93813(15)
C8_4 C 0.81690(8) 0.73007(8) 0.87897(19)
C9_6 C 0.83366(9) 0.75218(8) 0.8228(2)
H5_6 H 0.8308 0.7752 0.8393
H6_4 H 0.8232 0.7497 0.7721
C10_4 C 0.87009(10) 0.74484(9) 0.8156(3)
H7_4 H 0.8729 0.7216 0.8014
H8_6 H 0.8793 0.7583 0.7739
C11_6 C 0.88903(10) 0.75155(12) 0.8887(3)
H9_6 H 0.8855 0.7746 0.9036
H10_4 H 0.8801 0.7376 0.9299
C12_4 C 0.92548(12) 0.74535(14) 0.8820(5)
H11_6 H 0.9346 0.7596 0.8416
H12_4 H 0.9291 0.7224 0.8663
C13_6 C 0.94394(14) 0.75171(19) 0.9567(5)
H13_4 H 0.9345 0.7383 0.9975
H14_6 H 0.9421 0.7749 0.9702
H15_4 H 0.9670 0.7460 0.9500
C14_4 C 0.86411(10) 0.66296(10) 0.9793(3)
H16_4 H 0.8666 0.6716 0.9292
C16_4 C 0.92228(11) 0.65232(16) 0.9754(4)
H20_4 H 0.9336 0.6316 0.9854
H21_4 H 0.9357 0.6705 0.9941
H22_4 H 0.9187 0.6548 0.9204
Mn2_6 Mn 0.788331(12) 0.791408(11) 0.98989(3)
O6_4 O 0.81672(5) 0.86557(5) 0.84100(13)
O7_5 O 0.74684(5) 0.78761(5) 0.93821(12)
N4_6 N 0.79403(6) 0.82485(6) 0.91145(14)
N5_4 N 0.76636(6) 0.82832(6) 0.86300(15)
C20_6 C 0.89772(9) 0.87222(9) 0.9810(3)
H25_6 H 0.9132 0.8892 0.9724
C21_6 C 0.87049(8) 0.86972(8) 0.9355(2)
H26_6 H 0.8678 0.8846 0.8944
C22_6 C 0.84672(8) 0.84599(8) 0.9479(2)
C23_6 C 0.81810(7) 0.84540(7) 0.89707(19)
C24_5 C 0.74344(8) 0.80819(8) 0.88223(19)
C25_5 C 0.71088(8) 0.80912(9) 0.8424(2)
H27_5 H 0.7045 0.7866 0.8275
H28_5 H 0.7127 0.8224 0.7953
C26_5 C 0.68455(9) 0.82375(12) 0.8941(3)
H29_5 H 0.6629 0.8205 0.8701
H30_5 H 0.6846 0.8120 0.9435
C27_5 C 0.68970(11) 0.85998(12) 0.9087(3)
H31_5 H 0.6902 0.8715 0.8591
H32_5 H 0.7113 0.8630 0.9334
C28_5 C 0.66328(13) 0.87578(15) 0.9594(4)
H33_5 H 0.6417 0.8731 0.9343
C29_5 C 0.66879(19) 0.91066(16) 0.9743(5)
H35_5 H 0.6911 0.9138 0.9936
H37_5 H 0.6660 0.9230 0.9268
Mn3_3 Mn 0.720480(11) 0.636980(12) 0.73138(3)
O8_6 O 0.74261(5) 0.60153(5) 0.69101(13)
O9_4 O 0.79792(5) 0.63213(5) 0.88472(14)
O10_4 O 0.70288(5) 0.67446(5) 0.78472(13)
N7_4 N 0.75500(6) 0.64375(6) 0.80589(16)
N8_4 N 0.75056(6) 0.67185(6) 0.85246(16)
C36_5 C 0.76702(8) 0.58444(8) 0.7213(2)
C37_5 C 0.77491(9) 0.55467(9) 0.6863(2)
H44_5 H 0.7630 0.5479 0.6424
C38_5 C 0.79972(9) 0.53483(9) 0.7144(2)
H45_5 H 0.8045 0.5147 0.6897
C39_4 C 0.81751(8) 0.54402(8) 0.7776(2)
H46_4 H 0.8345 0.5304 0.7969
C40_4 C 0.81025(8) 0.57318(8) 0.8122(2)
H47_4 H 0.8227 0.5796 0.8555
C41_4 C 0.78521(8) 0.59395(7) 0.78633(19)
C42_4 C 0.77945(8) 0.62469(7) 0.8273(2)
C43_4 C 0.72261(8) 0.68577(8) 0.8362(2)
C44_4 C 0.71147(9) 0.71474(9) 0.8819(2)
H48_4 H 0.7304 0.7245 0.9087
H49_4 H 0.7023 0.7315 0.8471
C45_4 C 0.68472(13) 0.70446(12) 0.9422(3)
H50_4 H 0.6653 0.6955 0.9155
H51_4 H 0.6936 0.6872 0.9761
C46_4 C 0.6744(2) 0.73520(16) 0.9912(5)
H52_4 H 0.6611 0.7499 0.9587
O11_3 O 0.68328(5) 0.63443(5) 0.65900(13)
N10_3 N 0.73364(6) 0.67168(6) 0.63700(15)
N11_3 N 0.69230(7) 0.60450(6) 0.81531(17)
Mn1_5 Mn 0.924014(11) 0.458675(12) 0.18867(3)
O1_3 O 0.90708(5) 0.48532(6) 0.26578(15)
O3_5 O 0.94848(5) 0.43251(5) 0.11606(13)
O4_3 O 0.91252(6) 0.41304(6) 0.25551(15)
N1_5 N 0.96754(6) 0.46278(6) 0.23232(15)
N2_5 N 0.99260(6) 0.44775(6) 0.18813(15)
N3_3 N 0.90236(9) 0.35887(8) 0.2645(2)
C1_3 C 0.92164(9) 0.49782(8) 0.3276(2)
C2_3 C 0.90240(10) 0.51762(9) 0.3765(3)
H1_3 H 0.8803 0.5222 0.3636
C3_3 C 0.91540(12) 0.53011(11) 0.4421(3)
H2_3 H 0.9020 0.5431 0.4744
C4_3 C 0.94764(12) 0.52434(11) 0.4629(3)
H3_4 H 0.9561 0.5326 0.5096
C5_3 C 0.96695(10) 0.50636(9) 0.4143(2)
H4_3 H 0.9892 0.5029 0.4272
C6_3 C 0.95499(8) 0.49316(8) 0.3470(2)
C7_3 C 0.97798(8) 0.47592(8) 0.29709(19)
C8_5 C 0.98007(8) 0.43310(8) 0.12897(19)
H6_5 H 0.9997 0.4268 0.0221
C10_5 C 0.99484(9) 0.37991(10) 0.0656(3)
H7_5 H 0.9716 0.3771 0.0514
H10_5 H 0.9876 0.3699 0.1799
C12_5 C 0.99535(14) 0.32452(12) 0.1320(5)
H12_5 H 0.9724 0.3209 0.1163
H13_5 H 0.9883 0.3155 0.2475
H15_5 H 0.9960 0.2830 0.2000
C14_5 C 0.91296(10) 0.38589(10) 0.2293(3)
H16_5 H 0.9216 0.3834 0.1792
C15_3 C 0.88808(14) 0.35899(13) 0.3371(4)
H17_3 H 0.8995 0.3433 0.3700
H18_3 H 0.8650 0.3528 0.3329
H19_3 H 0.8898 0.3809 0.3593
C16_5 C 0.90232(16) 0.32772(11) 0.2254(4)
H20_5 H 0.8816 0.3164 0.2354
H21_5 H 0.9205 0.3143 0.2441
H22_5 H 0.9048 0.3313 0.1704
O9_5 O 0.88213(5) 0.45208(5) 0.13472(14)
O10_5 O 0.92446(5) 0.54712(5) 0.03472(13)
N7_5 N 0.89375(6) 0.49500(6) 0.05589(16)
N8_5 N 0.92185(6) 0.49944(6) 0.10246(16)
C39_5 C 0.79402(8) 0.43249(8) 0.0276(2)
H46_5 H 0.7804 0.4155 0.0469
C40_5 C 0.82318(8) 0.43975(8) 0.0622(2)
H47_5 H 0.8296 0.4273 0.1055
C41_5 C 0.84395(7) 0.46479(8) 0.03633(19)
C42_5 C 0.87469(7) 0.47055(8) 0.0773(2)
C43_5 C 0.93577(8) 0.52739(8) 0.0862(2)
C44_5 C 0.96474(9) 0.53853(9) 0.1319(2)
H48_5 H 0.9745 0.5196 0.1587
H49_5 H 0.9815 0.5477 0.0971
C45_5 C 0.95446(12) 0.56528(13) 0.1922(3)
H50_5 H 0.9455 0.5847 0.1655
H51_5 H 0.9372 0.5564 0.2261
C46_5 C 0.98520(16) 0.5756(2) 0.2412(5)
H52_5 H 0.9999 0.5889 0.2087
H53_3 H 0.9973 0.5556 0.2560
C47_3 C 0.9781(3) 0.5931(3) 0.3064(7)
H54_3 H 0.9674 0.6141 0.2926
H55_3 H 0.9629 0.5805 0.3391
N11_4 N 0.85450(6) 0.55770(7) 0.06531(17)
H3_5 H 0.4561 0.5326 0.9904
C49_5 C 0.67186(9) 0.58135(9) 0.7922(2)
H59_7 H 0.6698 0.5774 0.7389
C50_5 C 0.65345(10) 0.56271(10) 0.8417(2)
H60_5 H 0.6395 0.5460 0.8228
C51_5 C 0.65546(12) 0.56864(11) 0.9190(2)
C52_5 C 0.67704(11) 0.59259(11) 0.9431(2)
H61_5 H 0.6797 0.5970 0.9960
C53_5 C 0.69448(10) 0.60988(9) 0.8901(2)
H62_5 H 0.7089 0.6265 0.9075
C54_5 C 0.63524(17) 0.54788(15) 0.9746(3)
H63_5 H 0.6359 0.5250 0.9560
H64_5 H 0.6122 0.5552 0.9705
Mn1_6 Mn 0.708675(12) 0.825986(11) 0.56133(3)
O1_4 O 0.73532(6) 0.84292(5) 0.48422(15)
O2_5 O 0.72428(6) 0.74197(5) 0.43302(12)
O3_6 O 0.68251(5) 0.80152(5) 0.63394(13)
O4_4 O 0.66304(6) 0.83748(6) 0.49449(15)
N1_6 N 0.71278(6) 0.78246(6) 0.51768(15)
N2_6 N 0.69775(6) 0.75740(6) 0.56187(15)
N3_4 N 0.60887(8) 0.84764(9) 0.4855(2)
C1_4 C 0.74782(8) 0.82836(9) 0.4224(2)
C2_4 C 0.76762(9) 0.84760(10) 0.3735(3)
H1_4 H 0.7722 0.8697 0.3864
C3_4 C 0.78011(11) 0.83460(12) 0.3079(3)
H2_4 H 0.7931 0.8480 0.2756
C4_4 C 0.77434(11) 0.80236(12) 0.2871(3)
H3_6 H 0.7826 0.7939 0.2404
C5_4 C 0.75636(9) 0.78305(10) 0.3357(2)
H4_4 H 0.7529 0.7608 0.3228
C6_4 C 0.74316(8) 0.79501(8) 0.4030(2)
C7_4 C 0.72592(8) 0.77202(8) 0.45291(19)
C8_6 C 0.68310(8) 0.76993(8) 0.62103(19)
C9_7 C 0.66634(9) 0.74782(8) 0.6772(2)
H5_7 H 0.6692 0.7248 0.6607
H6_6 H 0.6768 0.7503 0.7279
C10_6 C 0.62991(10) 0.75516(9) 0.6844(3)
H7_6 H 0.6271 0.7784 0.6986
H8_7 H 0.6207 0.7417 0.7261
C11_7 C 0.61097(10) 0.74845(12) 0.6113(3)
H9_7 H 0.6145 0.7254 0.5964
H10_6 H 0.6199 0.7624 0.5701
C12_6 C 0.57452(12) 0.75465(14) 0.6180(5)
H11_7 H 0.5654 0.7404 0.6584
H12_6 H 0.5709 0.7776 0.6337
C13_7 C 0.55606(14) 0.74829(19) 0.5433(5)
H13_6 H 0.5655 0.7617 0.5025
H14_7 H 0.5579 0.7251 0.5298
H15_6 H 0.5330 0.7540 0.5500
C14_6 C 0.63589(10) 0.83704(10) 0.5207(3)
H16_6 H 0.6334 0.8284 0.5708
C15_4 C 0.60899(13) 0.86192(14) 0.4129(4)
H17_4 H 0.5933 0.8505 0.3800
H18_4 H 0.6028 0.8850 0.4171
H19_4 H 0.6309 0.8602 0.3907
C16_6 C 0.57772(11) 0.84768(16) 0.5246(4)
H20_6 H 0.5664 0.8684 0.5146
H21_6 H 0.5643 0.8295 0.5059
H22_6 H 0.5813 0.8452 0.5796
Mn2_7 Mn 0.711669(12) 0.708592(11) 0.51011(3)
O5_5 O 0.67013(5) 0.69947(5) 0.47216(14)
O7_6 O 0.75316(5) 0.71239(5) 0.56179(12)
N4_7 N 0.70597(6) 0.67515(6) 0.58855(14)
N6_5 N 0.73751(8) 0.67351(7) 0.42835(17)
C17_5 C 0.64897(8) 0.67603(8) 0.4908(2)
C18_5 C 0.62062(9) 0.67363(9) 0.4466(2)
H23_5 H 0.6172 0.6886 0.4059
C19_5 C 0.59757(10) 0.64990(10) 0.4611(3)
H24_5 H 0.5783 0.6488 0.4309
C20_7 C 0.60228(9) 0.62778(9) 0.5190(3)
H25_7 H 0.5868 0.6108 0.5276
C21_7 C 0.62951(8) 0.63028(8) 0.5645(2)
H26_7 H 0.6322 0.6154 0.6056
C22_7 C 0.65328(8) 0.65401(8) 0.5521(2)
C23_7 C 0.68190(7) 0.65460(7) 0.60293(19)
C24_6 C 0.75656(8) 0.69181(8) 0.61777(19)
C25_6 C 0.78912(8) 0.69088(9) 0.6576(2)
H27_6 H 0.7955 0.7134 0.6725
H28_6 H 0.7873 0.6776 0.7047
C26_6 C 0.81545(9) 0.67625(12) 0.6059(3)
H29_6 H 0.8371 0.6795 0.6299
H30_6 H 0.8154 0.6880 0.5565
C27_6 C 0.81030(11) 0.64002(12) 0.5913(3)
H31_6 H 0.8098 0.6285 0.6409
H32_6 H 0.7887 0.6370 0.5666
C28_6 C 0.83672(13) 0.62422(15) 0.5406(4)
H33_6 H 0.8583 0.6269 0.5657
H34_4 H 0.8375 0.6360 0.4912
C29_6 C 0.83121(19) 0.58934(16) 0.5257(5)
H35_6 H 0.8089 0.5862 0.5064
H36_4 H 0.8470 0.5816 0.4876
H37_6 H 0.8340 0.5770 0.5732
C30_4 C 0.76810(11) 0.68133(11) 0.4078(2)
H38_4 H 0.7765 0.7021 0.4218
C31_4 C 0.78783(12) 0.66012(12) 0.3668(3)
H39_4 H 0.8094 0.6664 0.3532
C32_4 C 0.77618(15) 0.62996(11) 0.3459(3)
C33_5 C 0.74455(14) 0.62292(10) 0.3664(3)
H40_5 H 0.7351 0.6027 0.3515
C34_5 C 0.72649(11) 0.64485(9) 0.4081(2)
H41_5 H 0.7049 0.6389 0.4230
C35_4 C 0.79728(18) 0.60716(12) 0.2993(4)
H42_4 H 0.7890 0.5845 0.3053
H43_4 H 0.8199 0.6078 0.3195
O8_7 O 0.75739(5) 0.89847(5) 0.80899(13)
O9_6 O 0.70208(5) 0.86787(5) 0.61528(14)
O10_6 O 0.79712(5) 0.82554(5) 0.71528(13)
N7_6 N 0.74500(6) 0.85625(6) 0.69411(16)
N8_6 N 0.74944(6) 0.82815(6) 0.64754(16)
C36_6 C 0.73298(8) 0.91556(8) 0.7787(2)
C37_6 C 0.72509(9) 0.94533(9) 0.8137(2)
H44_6 H 0.7370 0.9521 0.8576
C38_6 C 0.70028(9) 0.96517(9) 0.7856(2)
H45_6 H 0.6955 0.9853 0.8103
C39_6 C 0.68249(8) 0.95598(8) 0.7224(2)
H46_6 H 0.6655 0.9696 0.7031
C40_6 C 0.68975(8) 0.92682(8) 0.6878(2)
H47_6 H 0.6773 0.9204 0.6445
C41_6 C 0.71479(8) 0.90605(7) 0.71367(19)
C42_6 C 0.72055(8) 0.87531(7) 0.6727(2)
C43_6 C 0.77739(8) 0.81423(8) 0.6638(2)
C44_6 C 0.78853(9) 0.78526(9) 0.6181(2)
H48_6 H 0.7696 0.7755 0.5913
H49_6 H 0.7977 0.7685 0.6529
C45_6 C 0.81528(13) 0.79554(12) 0.5578(3)
H50_6 H 0.8347 0.8045 0.5845
H51_6 H 0.8064 0.8128 0.5239
C46_6 C 0.8256(2) 0.76480(16) 0.5088(5)
H52_6 H 0.8389 0.7501 0.5413
H53_4 H 0.8056 0.7527 0.4940
C47_4 C 0.8431(3) 0.7719(3) 0.4436(7)
H54_4 H 0.8641 0.7826 0.4574
H55_4 H 0.8305 0.7871 0.4109
C48_4 C 0.8502(3) 0.7377(3) 0.3974(7)
H56_4 H 0.8456 0.7190 0.4310
H57_4 H 0.8732 0.7370 0.3815
H58_4 H 0.8361 0.7365 0.3522
C49_6 C 0.83135(9) 0.57814(9) 0.0422(2)
C50_6 C 0.81271(10) 0.59655(10) 0.0917(2)
H60_6 H 0.7960 0.6105 0.0728
C51_6 C 0.81864(11) 0.59454(12) 0.1690(2)
C52_6 C 0.84259(11) 0.57296(11) 0.1931(2)
H61_6 H 0.8470 0.5703 0.2460
C53_6 C 0.85988(9) 0.55552(10) 0.1401(2)
H62_6 H 0.8765 0.5411 0.1575
C54_6 C 0.79788(15) 0.61476(17) 0.2246(3)
H63_6 H 0.7750 0.6141 0.2060
H64_6 H 0.8052 0.6378 0.2205
Mn1_7 Mn 0.708675(12) 0.325986(11) 0.43867(3)
O1_5 O 0.73532(6) 0.34292(5) 0.51578(15)
O2_6 O 0.72428(6) 0.24197(5) 0.56698(12)
O3_7 O 0.68251(5) 0.30152(5) 0.36606(13)
O4_5 O 0.66304(6) 0.33748(6) 0.50551(15)
N1_7 N 0.71278(6) 0.28246(6) 0.48232(15)
N2_7 N 0.69775(6) 0.25740(6) 0.43813(15)
N3_5 N 0.60887(8) 0.34764(9) 0.5145(2)
C1_5 C 0.74782(8) 0.32836(9) 0.5776(2)
C2_5 C 0.76762(9) 0.34760(10) 0.6265(3)
H1_5 H 0.7722 0.3697 0.6136
C3_5 C 0.78011(11) 0.33460(12) 0.6921(3)
H2_5 H 0.7931 0.3480 0.7244
C4_5 C 0.77434(11) 0.30236(12) 0.7129(3)
H3_7 H 0.7826 0.2939 0.7596
C5_5 C 0.75636(9) 0.28305(10) 0.6643(2)
H4_5 H 0.7529 0.2608 0.6772
C6_5 C 0.74316(8) 0.29501(8) 0.5970(2)
C7_5 C 0.72592(8) 0.27202(8) 0.54709(19)
C8_7 C 0.68310(8) 0.26993(8) 0.37897(19)
C9_8 C 0.66634(9) 0.24782(8) 0.3228(2)
H5_8 H 0.6692 0.2248 0.3393
H6_7 H 0.6768 0.2503 0.2721
C10_7 C 0.62991(10) 0.25516(9) 0.3156(3)
H7_7 H 0.6271 0.2784 0.3014
H8_8 H 0.6207 0.2417 0.2739
C11_8 C 0.61097(10) 0.24845(12) 0.3887(3)
H9_8 H 0.6145 0.2254 0.4036
H10_7 H 0.6199 0.2624 0.4299
C12_7 C 0.57452(12) 0.25465(14) 0.3820(5)
H11_8 H 0.5654 0.2404 0.3416
H12_7 H 0.5709 0.2776 0.3663
C13_8 C 0.55606(14) 0.24829(19) 0.4567(5)
H13_7 H 0.5655 0.2617 0.4975
H14_8 H 0.5579 0.2251 0.4702
H15_7 H 0.5330 0.2540 0.4500
C14_7 C 0.63589(10) 0.33704(10) 0.4793(3)
H16_7 H 0.6334 0.3284 0.4292
C15_5 C 0.60899(13) 0.36192(14) 0.5871(4)
H17_5 H 0.5933 0.3505 0.6200
H18_5 H 0.6028 0.3850 0.5829
H19_5 H 0.6309 0.3602 0.6093
C16_7 C 0.57772(11) 0.34768(16) 0.4754(4)
H20_7 H 0.5664 0.3684 0.4854
H21_7 H 0.5643 0.3295 0.4941
H22_7 H 0.5813 0.3452 0.4204
Mn2_8 Mn 0.711669(12) 0.208592(11) 0.48989(3)
O5_6 O 0.67013(5) 0.19947(5) 0.52784(14)
O6_5 O 0.68328(5) 0.13443(5) 0.34100(13)
O7_7 O 0.75316(5) 0.21239(5) 0.43821(12)
N4_8 N 0.70597(6) 0.17515(6) 0.41145(14)
N5_5 N 0.73364(6) 0.17168(6) 0.36300(15)
N6_6 N 0.73751(8) 0.17351(7) 0.57165(17)
C17_6 C 0.64897(8) 0.17603(8) 0.5092(2)
C18_6 C 0.62062(9) 0.17363(9) 0.5534(2)
H23_6 H 0.6172 0.1886 0.5941
C19_6 C 0.59757(10) 0.14990(10) 0.5389(3)
H24_6 H 0.5783 0.1488 0.5691
C20_8 C 0.60228(9) 0.12778(9) 0.4810(3)
H25_8 H 0.5868 0.1108 0.4724
C21_8 C 0.62951(8) 0.13028(8) 0.4355(2)
H26_8 H 0.6322 0.1154 0.3944
C22_8 C 0.65328(8) 0.15401(8) 0.4479(2)
C23_8 C 0.68190(7) 0.15460(7) 0.39707(19)
C24_7 C 0.75656(8) 0.19181(8) 0.38223(19)
C25_7 C 0.78912(8) 0.19088(9) 0.3424(2)
H27_7 H 0.7955 0.2134 0.3275
H28_7 H 0.7873 0.1776 0.2953
C26_7 C 0.81545(9) 0.17625(12) 0.3941(3)
H29_7 H 0.8371 0.1795 0.3701
H30_7 H 0.8154 0.1880 0.4435
C27_7 C 0.81030(11) 0.14002(12) 0.4087(3)
H31_7 H 0.8098 0.1285 0.3591
H32_7 H 0.7887 0.1370 0.4334
C28_7 C 0.83672(13) 0.12422(15) 0.4594(4)
H33_7 H 0.8583 0.1269 0.4343
H34_5 H 0.8375 0.1360 0.5088
C29_7 C 0.83121(19) 0.08934(16) 0.4743(5)
H35_7 H 0.8089 0.0862 0.4936
H36_5 H 0.8470 0.0816 0.5124
H37_7 H 0.8340 0.0770 0.4268
C30_5 C 0.76810(11) 0.18133(11) 0.5922(2)
H38_5 H 0.7765 0.2021 0.5782
C31_5 C 0.78783(12) 0.16012(12) 0.6332(3)
H39_5 H 0.8094 0.1664 0.6468
C32_5 C 0.77618(15) 0.12996(11) 0.6541(3)
C33_6 C 0.74455(14) 0.12292(10) 0.6336(3)
H40_6 H 0.7351 0.1027 0.6485
C34_6 C 0.72649(11) 0.14485(9) 0.5919(2)
H41_6 H 0.7049 0.1389 0.5770
C35_5 C 0.79728(18) 0.10716(12) 0.7007(4)
H42_5 H 0.7890 0.0845 0.6947
H43_5 H 0.8199 0.1078 0.6805
Mn3_4 Mn 0.779520(11) 0.363020(12) 0.23138(3)
O8_8 O 0.75739(5) 0.39847(5) 0.19101(13)
O9_7 O 0.70208(5) 0.36787(5) 0.38472(14)
O10_7 O 0.79712(5) 0.32554(5) 0.28472(13)
N7_7 N 0.74500(6) 0.35625(6) 0.30589(16)
N8_7 N 0.74944(6) 0.32815(6) 0.35246(16)
N9_3 N 0.85450(6) 0.05770(7) 0.93469(17)
C36_7 C 0.73298(8) 0.41556(8) 0.2213(2)
C37_7 C 0.72509(9) 0.44533(9) 0.1863(2)
H44_7 H 0.7370 0.4521 0.1424
C38_7 C 0.70028(9) 0.46517(9) 0.2144(2)
H45_7 H 0.6955 0.4853 0.1897
C39_7 C 0.68249(8) 0.45598(8) 0.2776(2)
H46_7 H 0.6655 0.4696 0.2969
C40_7 C 0.68975(8) 0.42682(8) 0.3122(2)
H47_7 H 0.6773 0.4204 0.3555
C41_7 C 0.71479(8) 0.40605(7) 0.28633(19)
C42_7 C 0.72055(8) 0.37531(7) 0.3273(2)
C43_7 C 0.77739(8) 0.31423(8) 0.3362(2)
C44_7 C 0.78853(9) 0.28526(9) 0.3819(2)
H48_7 H 0.7696 0.2755 0.4087
H49_7 H 0.7977 0.2685 0.3471
C45_7 C 0.81528(13) 0.29554(12) 0.4422(3)
H50_7 H 0.8347 0.3045 0.4155
H51_7 H 0.8064 0.3128 0.4761
C46_7 C 0.8256(2) 0.26480(16) 0.4912(5)
H52_7 H 0.8389 0.2501 0.4587
H53_5 H 0.8056 0.2527 0.5060
C47_5 C 0.8431(3) 0.2719(3) 0.5564(7)
H54_5 H 0.8641 0.2826 0.5426
H55_5 H 0.8305 0.2871 0.5891
C48_5 C 0.8502(3) 0.2377(3) 0.6026(7)
H56_5 H 0.8456 0.2190 0.5690
H57_5 H 0.8732 0.2370 0.6185
H58_5 H 0.8361 0.2365 0.6478
C49_7 C 0.83135(9) 0.07814(9) 0.9578(2)
C50_7 C 0.81271(10) 0.09655(10) 0.9083(2)
H60_7 H 0.7960 0.1105 0.9272
C51_7 C 0.81864(11) 0.09454(12) 0.8310(2)
C52_7 C 0.84259(11) 0.07296(11) 0.8069(2)
H61_7 H 0.8470 0.0703 0.7540
C53_7 C 0.85988(9) 0.05552(10) 0.8599(2)
H62_7 H 0.8765 0.0411 0.8425
C54_7 C 0.79788(15) 0.11476(17) 0.7754(3)
H63_7 H 0.7750 0.1141 0.7940
H64_7 H 0.8052 0.1378 0.7795
O11_4 O 0.81672(5) 0.36557(5) 0.15900(13)
N10_4 N 0.76636(6) 0.32832(6) 0.13700(15)
Mn4_3 Mn 0.720480(11) 0.136980(12) 0.26862(3)
N11_5 N 0.80770(7) 0.39550(6) 0.31531(17)
H3_8 H 0.4561 0.0326 0.0096
N9_4 N 0.69230(7) 0.10450(6) 0.18469(17)
C49_8 C 0.67186(9) 0.08135(9) 0.2078(2)
H59_8 H 0.6698 0.0774 0.2611
C50_8 C 0.65345(10) 0.06271(10) 0.1583(2)
H60_8 H 0.6395 0.0460 0.1772
C51_8 C 0.65546(12) 0.06864(11) 0.0810(2)
C52_8 C 0.67704(11) 0.09259(11) 0.0569(2)
H61_8 H 0.6797 0.0970 0.0040
C53_8 C 0.69448(10) 0.10988(9) 0.1099(2)
H62_8 H 0.7089 0.1265 0.0925
C54_8 C 0.63524(17) 0.04788(15) 0.0254(3)
H63_8 H 0.6359 0.0250 0.0440
H64_8 H 0.6122 0.0552 0.0295
Mn3_5 Mn 0.886980(12) 0.529520(11) 0.98138(3)
O8_9 O 0.85153(5) 0.50739(5) 0.94101(13)
C36_8 C 0.83444(8) 0.48298(8) 0.9713(2)
C37_8 C 0.80467(9) 0.47509(9) 0.9363(2)
H44_8 H 0.7979 0.4870 0.8924
C38_8 C 0.78483(9) 0.45028(9) 0.9644(2)
H45_8 H 0.7647 0.4455 0.9397
O11_5 O 0.88443(5) 0.56672(5) 0.90900(13)
N10_5 N 0.92168(6) 0.51636(6) 0.88700(15)
C2_6 C 0.90240(10) 0.01762(9) 0.6235(3)
H1_6 H 0.8803 0.0222 0.6364
C3_6 C 0.91540(12) 0.03011(11) 0.5579(3)
H2_6 H 0.9020 0.0431 0.5256
C4_6 C 0.94764(12) 0.02434(11) 0.5371(3)
H3_9 H 0.9561 0.0326 0.4904
C5_6 C 0.96695(10) 0.00636(9) 0.5857(2)
H4_6 H 0.9892 0.0029 0.5728
O10_8 O 0.92446(5) 0.04712(5) 0.96528(13)
C43_8 C 0.93577(8) 0.02739(8) 0.9138(2)
C44_8 C 0.96474(9) 0.03853(9) 0.8681(2)
H48_8 H 0.9745 0.0196 0.8413
H49_8 H 0.9815 0.0477 0.9029
C45_8 C 0.95446(12) 0.06528(13) 0.8078(3)
H50_8 H 0.9455 0.0847 0.8345
H51_8 H 0.9372 0.0564 0.7739
C46_8 C 0.98520(16) 0.0756(2) 0.7588(5)
H52_8 H 0.9999 0.0889 0.7913
H53_6 H 0.9973 0.0556 0.7440
C47_6 C 0.9781(3) 0.0931(3) 0.6936(7)
H54_6 H 0.9674 0.1141 0.7074
H55_6 H 0.9629 0.0805 0.6609
Mn1_8 Mn 0.791325(12) 0.174014(11) 0.06133(3)
O3_8 O 0.81749(5) 0.19848(5) 0.13394(13)
N1_8 N 0.78722(6) 0.21754(6) 0.01768(15)
N2_8 N 0.80225(6) 0.24260(6) 0.06187(15)
C8_8 C 0.81690(8) 0.23007(8) 0.12103(19)
C9_9 C 0.83366(9) 0.25218(8) 0.1772(2)
H5_9 H 0.8308 0.2752 0.1607
H6_8 H 0.8232 0.2497 0.2279
C10_8 C 0.87009(10) 0.24484(9) 0.1844(3)
H7_8 H 0.8729 0.2216 0.1986
H8_9 H 0.8793 0.2583 0.2261
C11_9 C 0.88903(10) 0.25155(12) 0.1113(3)
H9_9 H 0.8855 0.2746 0.0964
H10_8 H 0.8801 0.2376 0.0701
C12_8 C 0.92548(12) 0.24535(14) 0.1180(5)
H11_9 H 0.9346 0.2596 0.1584
H12_8 H 0.9291 0.2224 0.1337
C13_9 C 0.94394(14) 0.25171(19) 0.0433(5)
H13_8 H 0.9345 0.2383 0.0025
H14_9 H 0.9421 0.2749 0.0298
H15_8 H 0.9670 0.2460 0.0500
C14_8 C 0.86411(10) 0.16296(10) 0.0207(3)
H16_8 H 0.8666 0.1716 0.0708
C16_8 C 0.92228(11) 0.15232(16) 0.0246(4)
H20_8 H 0.9336 0.1316 0.0146
H21_8 H 0.9357 0.1705 0.0059
H22_8 H 0.9187 0.1548 0.0796
Mn2_9 Mn 0.788331(12) 0.291408(11) 0.01011(3)
O7_8 O 0.74684(5) 0.28761(5) 0.06179(12)
N4_9 N 0.79403(6) 0.32485(6) 0.08855(14)
C20_9 C 0.89772(9) 0.37222(9) 0.0190(3)
H25_9 H 0.9132 0.3892 0.0276
C21_9 C 0.87049(8) 0.36972(8) 0.0645(2)
H26_9 H 0.8678 0.3846 0.1056
C22_9 C 0.84672(8) 0.34599(8) 0.0521(2)
C23_9 C 0.81810(7) 0.34540(7) 0.10293(19)
C24_8 C 0.74344(8) 0.30819(8) 0.11777(19)
C25_8 C 0.71088(8) 0.30912(9) 0.1576(2)
H27_8 H 0.7045 0.2866 0.1725
H28_8 H 0.7127 0.3224 0.2047
C26_8 C 0.68455(9) 0.32375(12) 0.1059(3)
H29_8 H 0.6629 0.3205 0.1299
H30_8 H 0.6846 0.3120 0.0565
C27_8 C 0.68970(11) 0.35998(12) 0.0913(3)
H31_8 H 0.6902 0.3715 0.1409
H32_8 H 0.7113 0.3630 0.0666
C28_8 C 0.66328(13) 0.37578(15) 0.0406(4)
H33_8 H 0.6417 0.3731 0.0657
C29_8 C 0.66879(19) 0.41066(16) 0.0257(5)
H35_8 H 0.6911 0.4138 0.0064
H37_8 H 0.6660 0.4230 0.0732
O8_10 O 0.74261(5) 0.10153(5) 0.30899(13)
O9_8 O 0.79792(5) 0.13213(5) 0.11528(14)
O10_9 O 0.70288(5) 0.17446(5) 0.21528(13)
N7_8 N 0.75500(6) 0.14375(6) 0.19411(16)
N8_8 N 0.75056(6) 0.17185(6) 0.14754(16)
C36_9 C 0.76702(8) 0.08444(8) 0.2787(2)
C37_9 C 0.77491(9) 0.05467(9) 0.3137(2)
H44_9 H 0.7630 0.0479 0.3576
C38_9 C 0.79972(9) 0.03483(9) 0.2856(2)
H45_9 H 0.8045 0.0147 0.3103
C39_8 C 0.81751(8) 0.04402(8) 0.2224(2)
H46_8 H 0.8345 0.0304 0.2031
C40_8 C 0.81025(8) 0.07318(8) 0.1878(2)
H47_8 H 0.8227 0.0796 0.1445
C41_8 C 0.78521(8) 0.09395(7) 0.21367(19)
C42_8 C 0.77945(8) 0.12469(7) 0.1727(2)
C43_9 C 0.72261(8) 0.18577(8) 0.1638(2)
C44_9 C 0.71147(9) 0.21474(9) 0.1181(2)
H48_9 H 0.7304 0.2245 0.0913
H49_9 H 0.7023 0.2315 0.1529
C45_9 C 0.68472(13) 0.20446(12) 0.0578(3)
H50_9 H 0.6653 0.1955 0.0845
H51_9 H 0.6936 0.1872 0.0239
C46_9 C 0.6744(2) 0.23520(16) 0.0088(5)
H52_9 H 0.6611 0.2499 0.0413
H59_9 H 0.8274 0.5802 0.9889
O2_7 O 0.99197(5) 0.52572(6) 0.68302(12)
C9_10 C 0.99782(8) 0.58366(9) 0.9272(2)
H5_10 H 0.9748 0.5808 0.9107
H8_10 H 0.9917 0.6293 0.9761
C11_10 C 0.99845(12) 0.63903(10) 0.8613(3)
H9_10 H 0.9754 0.6355 0.8464
H11_10 H 0.9904 0.6846 0.9084
C13_10 C 0.99829(19) 0.69394(14) 0.7933(5)
H14_10 H 0.9751 0.6921 0.7798
Mn2_10 Mn 0.958592(11) 0.538331(12) 0.76011(3)
O5_7 O 0.94947(5) 0.57987(5) 0.72216(14)
O7_9 O 0.96239(5) 0.49684(5) 0.81179(12)
N4_10 N 0.92515(6) 0.54403(6) 0.83855(14)
N6_7 N 0.92351(7) 0.51249(8) 0.67835(17)
C17_7 C 0.92603(8) 0.60103(8) 0.7408(2)
C18_7 C 0.92363(9) 0.62938(9) 0.6966(2)
H23_7 H 0.9386 0.6328 0.6559
C19_7 C 0.89990(10) 0.65243(10) 0.7111(3)
H24_7 H 0.8988 0.6717 0.6809
C20_10 C 0.87778(9) 0.64772(9) 0.7690(3)
H25_10 H 0.8608 0.6632 0.7776
C21_10 C 0.88028(8) 0.62049(8) 0.8145(2)
H26_10 H 0.8654 0.6178 0.8556
C22_10 C 0.90401(8) 0.59672(8) 0.8021(2)
C23_10 C 0.90460(7) 0.56810(7) 0.85293(19)
C24_9 C 0.94181(8) 0.49344(8) 0.86777(19)
C25_9 C 0.94088(9) 0.46088(8) 0.9076(2)
H27_9 H 0.9634 0.4545 0.9225
H28_9 H 0.9276 0.4627 0.9547
C26_9 C 0.92625(12) 0.43455(9) 0.8559(3)
H29_9 H 0.9295 0.4129 0.8799
H30_9 H 0.9380 0.4346 0.8065
C27_9 C 0.89002(12) 0.43970(11) 0.8413(3)
H31_9 H 0.8785 0.4402 0.8909
H32_9 H 0.8870 0.4613 0.8166
C28_9 C 0.87422(15) 0.41328(13) 0.7906(4)
H33_9 H 0.8769 0.3917 0.8157
H34_6 H 0.8860 0.4125 0.7412
C29_9 C 0.83934(16) 0.41879(19) 0.7757(5)
H35_9 H 0.8362 0.4411 0.7564
H36_6 H 0.8316 0.4030 0.7376
H37_9 H 0.8270 0.4160 0.8232
C30_6 C 0.93133(11) 0.48190(11) 0.6578(2)
H38_6 H 0.9521 0.4735 0.6718
C31_6 C 0.91012(12) 0.46217(12) 0.6168(3)
H39_6 H 0.9164 0.4406 0.6032
C32_6 C 0.87996(11) 0.47382(15) 0.5959(3)
C33_7 C 0.87292(10) 0.50545(14) 0.6164(3)
H40_7 H 0.8527 0.5149 0.6015
C34_7 C 0.89485(9) 0.52351(11) 0.6581(2)
H41_7 H 0.8889 0.5451 0.6730
C35_6 C 0.85716(12) 0.45272(18) 0.5493(4)
H42_6 H 0.8345 0.4610 0.5553
H43_6 H 0.8578 0.4301 0.5695
C48_6 C 0.9877(3) 0.3998(3) 0.6474(7)
H56_6 H 0.9690 0.4044 0.6810
H57_6 H 0.9870 0.3768 0.6315
H58_6 H 0.9865 0.4139 0.6022
C49_9 C 0.82814(9) 0.41865(9) 0.2922(2)
H59_10 H 0.8302 0.4226 0.2389
C50_9 C 0.84655(10) 0.43729(10) 0.3417(2)
H60_9 H 0.8605 0.4540 0.3228
C51_9 C 0.84454(12) 0.43136(11) 0.4190(2)
C52_9 C 0.82296(11) 0.40741(11) 0.4431(2)
H61_9 H 0.8203 0.4030 0.4960
C53_9 C 0.80552(10) 0.39012(9) 0.3901(2)
H62_9 H 0.7911 0.3735 0.4075
C54_9 C 0.86476(17) 0.45212(15) 0.4746(3)
H63_9 H 0.8641 0.4750 0.4560
H64_9 H 0.8878 0.4448 0.4705
H3_10 H 0.5439 0.4674 0.0096
N9_5 N 0.30770(7) 0.39550(6) 0.18469(17)
C49_10 C 0.32814(9) 0.41865(9) 0.2078(2)
H59_11 H 0.3302 0.4226 0.2611
C50_10 C 0.34655(10) 0.43729(10) 0.1583(2)
H60_10 H 0.3605 0.4540 0.1772
C51_10 C 0.34454(12) 0.43136(11) 0.0810(2)
C52_10 C 0.32296(11) 0.40741(11) 0.0569(2)
H61_10 H 0.3203 0.4030 0.0040
C53_10 C 0.30552(10) 0.39012(9) 0.1099(2)
H62_10 H 0.2911 0.3735 0.0925
C54_10 C 0.36476(17) 0.45212(15) 0.0254(3)
H63_10 H 0.3641 0.4750 0.0440
H64_10 H 0.3878 0.4448 0.0295
Mn5_3 Mn 0.279520(11) 0.363020(12) 0.26862(3)
Mn1_9 Mn 0.291325(12) 0.174014(11) 0.43867(3)
O1_6 O 0.26468(6) 0.15708(5) 0.51578(15)
O2_8 O 0.27572(6) 0.25803(5) 0.56698(12)
O3_9 O 0.31749(5) 0.19848(5) 0.36606(13)
O4_6 O 0.33696(6) 0.16252(6) 0.50551(15)
N1_9 N 0.28722(6) 0.21754(6) 0.48232(15)
N2_9 N 0.30225(6) 0.24260(6) 0.43813(15)
N3_6 N 0.39113(8) 0.15236(9) 0.5145(2)
C1_6 C 0.25218(8) 0.17164(9) 0.5776(2)
C2_7 C 0.23238(9) 0.15240(10) 0.6265(3)
H1_7 H 0.2278 0.1303 0.6136
C3_7 C 0.21989(11) 0.16540(12) 0.6921(3)
H2_7 H 0.2069 0.1520 0.7244
C4_7 C 0.22566(11) 0.19764(12) 0.7129(3)
H3_11 H 0.2174 0.2061 0.7596
C5_7 C 0.24364(9) 0.21695(10) 0.6643(2)
H4_7 H 0.2471 0.2392 0.6772
C6_6 C 0.25684(8) 0.20499(8) 0.5970(2)
C7_6 C 0.27408(8) 0.22798(8) 0.54709(19)
C8_9 C 0.31690(8) 0.23007(8) 0.37897(19)
C9_11 C 0.33366(9) 0.25218(8) 0.3228(2)
H5_11 H 0.3308 0.2752 0.3393
H6_9 H 0.3232 0.2497 0.2721
C10_9 C 0.37009(10) 0.24484(9) 0.3156(3)
H7_9 H 0.3729 0.2216 0.3014
H8_11 H 0.3793 0.2583 0.2739
C11_11 C 0.38903(10) 0.25155(12) 0.3887(3)
H9_11 H 0.3855 0.2746 0.4036
H10_9 H 0.3801 0.2376 0.4299
C12_9 C 0.42548(12) 0.24535(14) 0.3820(5)
H11_11 H 0.4346 0.2596 0.3416
H12_9 H 0.4291 0.2224 0.3663
C13_11 C 0.44394(14) 0.25171(19) 0.4567(5)
H13_9 H 0.4345 0.2383 0.4975
H14_11 H 0.4421 0.2749 0.4702
H15_9 H 0.4670 0.2460 0.4500
C14_9 C 0.36411(10) 0.16296(10) 0.4793(3)
H16_9 H 0.3666 0.1716 0.4292
C15_6 C 0.39101(13) 0.13808(14) 0.5871(4)
H17_6 H 0.4067 0.1495 0.6200
H18_6 H 0.3972 0.1150 0.5829
H19_6 H 0.3691 0.1398 0.6093
C16_9 C 0.42228(11) 0.15232(16) 0.4754(4)
H20_9 H 0.4336 0.1316 0.4854
H21_9 H 0.4357 0.1705 0.4941
H22_9 H 0.4187 0.1548 0.4204
Mn2_11 Mn 0.288331(12) 0.291408(11) 0.48989(3)
O5_8 O 0.32987(5) 0.30053(5) 0.52784(14)
O6_6 O 0.31672(5) 0.36557(5) 0.34100(13)
O7_10 O 0.24684(5) 0.28761(5) 0.43821(12)
N4_11 N 0.29403(6) 0.32485(6) 0.41145(14)
N5_6 N 0.26636(6) 0.32832(6) 0.36300(15)
N6_8 N 0.26249(8) 0.32649(7) 0.57165(17)
C17_8 C 0.35103(8) 0.32397(8) 0.5092(2)
C18_8 C 0.37938(9) 0.32637(9) 0.5534(2)
H23_8 H 0.3828 0.3114 0.5941
C19_8 C 0.40243(10) 0.35010(10) 0.5389(3)
H24_8 H 0.4217 0.3512 0.5691
C20_11 C 0.39772(9) 0.37222(9) 0.4810(3)
H25_11 H 0.4132 0.3892 0.4724
C21_11 C 0.37049(8) 0.36972(8) 0.4355(2)
H26_11 H 0.3678 0.3846 0.3944
C22_11 C 0.34672(8) 0.34599(8) 0.4479(2)
C23_11 C 0.31810(7) 0.34540(7) 0.39707(19)
C24_10 C 0.24344(8) 0.30819(8) 0.38223(19)
C25_10 C 0.21088(8) 0.30912(9) 0.3424(2)
H27_10 H 0.2045 0.2866 0.3275
H28_10 H 0.2127 0.3224 0.2953
C26_10 C 0.18455(9) 0.32375(12) 0.3941(3)
H29_10 H 0.1629 0.3205 0.3701
H30_10 H 0.1846 0.3120 0.4435
C27_10 C 0.18970(11) 0.35998(12) 0.4087(3)
H31_10 H 0.1902 0.3715 0.3591
H32_10 H 0.2113 0.3630 0.4334
C28_10 C 0.16328(13) 0.37578(15) 0.4594(4)
H33_10 H 0.1417 0.3731 0.4343
H34_7 H 0.1625 0.3640 0.5088
C29_10 C 0.16879(19) 0.41066(16) 0.4743(5)
H35_10 H 0.1911 0.4138 0.4936
H36_7 H 0.1530 0.4184 0.5124
H37_10 H 0.1660 0.4230 0.4268
C30_7 C 0.23190(11) 0.31867(11) 0.5922(2)
H38_7 H 0.2235 0.2979 0.5782
C31_7 C 0.21217(12) 0.33988(12) 0.6332(3)
H39_7 H 0.1906 0.3336 0.6468
C32_7 C 0.22382(15) 0.37004(11) 0.6541(3)
C33_8 C 0.25545(14) 0.37708(10) 0.6336(3)
H40_8 H 0.2649 0.3973 0.6485
C34_8 C 0.27351(11) 0.35515(9) 0.5919(2)
H41_8 H 0.2951 0.3611 0.5770
C35_7 C 0.20272(18) 0.39284(12) 0.7007(4)
H42_7 H 0.2110 0.4155 0.6947
H43_7 H 0.1801 0.3922 0.6805
Mn3_6 Mn 0.220480(11) 0.136980(12) 0.23138(3)
O8_11 O 0.24261(5) 0.10153(5) 0.19101(13)
O9_9 O 0.29792(5) 0.13213(5) 0.38472(14)
O10_10 O 0.20288(5) 0.17446(5) 0.28472(13)
N7_9 N 0.25500(6) 0.14375(6) 0.30589(16)
N8_9 N 0.25056(6) 0.17185(6) 0.35246(16)
N9_6 N 0.14550(6) 0.44230(7) 0.93469(17)
C36_10 C 0.26702(8) 0.08444(8) 0.2213(2)
C37_10 C 0.27491(9) 0.05467(9) 0.1863(2)
H44_10 H 0.2630 0.0479 0.1424
C38_10 C 0.29972(9) 0.03483(9) 0.2144(2)
H45_10 H 0.3045 0.0147 0.1897
C39_9 C 0.31751(8) 0.04402(8) 0.2776(2)
H46_9 H 0.3345 0.0304 0.2969
C40_9 C 0.31025(8) 0.07318(8) 0.3122(2)
H47_9 H 0.3227 0.0796 0.3555
C41_9 C 0.28521(8) 0.09395(7) 0.28633(19)
C42_9 C 0.27945(8) 0.12469(7) 0.3273(2)
C43_10 C 0.22261(8) 0.18577(8) 0.3362(2)
C44_10 C 0.21147(9) 0.21474(9) 0.3819(2)
H48_10 H 0.2304 0.2245 0.4087
H49_10 H 0.2023 0.2315 0.3471
C45_10 C 0.18472(13) 0.20446(12) 0.4422(3)
H50_10 H 0.1653 0.1955 0.4155
H51_10 H 0.1936 0.1872 0.4761
C46_10 C 0.1744(2) 0.23520(16) 0.4912(5)
H52_10 H 0.1611 0.2499 0.4587
H53_7 H 0.1944 0.2473 0.5060
C47_7 C 0.1569(3) 0.2281(3) 0.5564(7)
H54_7 H 0.1359 0.2174 0.5426
H55_7 H 0.1695 0.2129 0.5891
C48_7 C 0.1498(3) 0.2623(3) 0.6026(7)
H56_7 H 0.1544 0.2810 0.5690
H57_7 H 0.1268 0.2630 0.6185
H58_7 H 0.1639 0.2635 0.6478
C49_11 C 0.16865(9) 0.42186(9) 0.9578(2)
C50_11 C 0.18729(10) 0.40345(10) 0.9083(2)
H60_11 H 0.2040 0.3895 0.9272
C51_11 C 0.18136(11) 0.40546(12) 0.8310(2)
C52_11 C 0.15741(11) 0.42704(11) 0.8069(2)
H61_11 H 0.1530 0.4297 0.7540
C53_11 C 0.14012(9) 0.44448(10) 0.8599(2)
H62_11 H 0.1235 0.4589 0.8425
C54_11 C 0.20212(15) 0.38524(17) 0.7754(3)
H63_11 H 0.2250 0.3859 0.7940
H64_11 H 0.1948 0.3622 0.7795
O11_6 O 0.18328(5) 0.13443(5) 0.15900(13)
N10_6 N 0.23364(6) 0.17168(6) 0.13700(15)
N11_6 N 0.19230(7) 0.10450(6) 0.31531(17)
O7_11 O 0.03761(5) 0.00316(5) 0.81179(12)
C24_11 C 0.05819(8) 0.00656(8) 0.86777(19)
C25_11 C 0.05912(9) 0.03912(8) 0.9076(2)
H27_11 H 0.0366 0.0455 0.9225
H28_11 H 0.0724 0.0373 0.9547
C26_11 C 0.07375(12) 0.06545(9) 0.8559(3)
H29_11 H 0.0705 0.0871 0.8799
H30_11 H 0.0620 0.0654 0.8065
C27_11 C 0.10998(12) 0.06030(11) 0.8413(3)
H31_11 H 0.1215 0.0598 0.8909
H32_11 H 0.1130 0.0387 0.8166
C28_11 C 0.12578(15) 0.08672(13) 0.7906(4)
H33_11 H 0.1231 0.1083 0.8157
H34_8 H 0.1140 0.0875 0.7412
C29_11 C 0.16066(16) 0.08121(19) 0.7757(5)
H35_11 H 0.1638 0.0589 0.7564
H36_8 H 0.1684 0.0970 0.7376
H37_11 H 0.1730 0.0840 0.8232
C30_8 C 0.06867(11) 0.01810(11) 0.6578(2)
H38_8 H 0.0479 0.0265 0.6718
C31_8 C 0.08988(12) 0.03783(12) 0.6168(3)
H39_8 H 0.0836 0.0594 0.6032
C32_8 C 0.12004(11) 0.02618(15) 0.5959(3)
C35_8 C 0.14284(12) 0.04728(18) 0.5493(4)
H42_8 H 0.1655 0.0390 0.5553
H43_8 H 0.1422 0.0699 0.5695
C48_8 C 0.0123(3) 0.1002(3) 0.6474(7)
H56_8 H 0.0310 0.0956 0.6810
H57_8 H 0.0130 0.1232 0.6315
H58_8 H 0.0135 0.0861 0.6022
C49_12 C 0.17186(9) 0.08135(9) 0.2922(2)
H59_12 H 0.1698 0.0774 0.2389
C50_12 C 0.15345(10) 0.06271(10) 0.3417(2)
H60_12 H 0.1395 0.0460 0.3228
C51_12 C 0.15546(12) 0.06864(11) 0.4190(2)
C52_12 C 0.17704(11) 0.09259(11) 0.4431(2)
H61_12 H 0.1797 0.0970 0.4960
C53_12 C 0.19448(10) 0.10988(9) 0.3901(2)
H62_12 H 0.2089 0.1265 0.4075
C54_12 C 0.13524(17) 0.04788(15) 0.4746(3)
H63_12 H 0.1359 0.0250 0.4560
H64_12 H 0.1122 0.0552 0.4705
Mn1_10 Mn 0.208675(12) 0.325986(11) 0.06133(3)
O3_10 O 0.18251(5) 0.30152(5) 0.13394(13)
N1_10 N 0.21278(6) 0.28246(6) 0.01768(15)
N2_10 N 0.19775(6) 0.25740(6) 0.06187(15)
C8_10 C 0.18310(8) 0.26993(8) 0.12103(19)
C9_12 C 0.16634(9) 0.24782(8) 0.1772(2)
H5_12 H 0.1692 0.2248 0.1607
H6_10 H 0.1768 0.2503 0.2279
C10_10 C 0.12991(10) 0.25516(9) 0.1844(3)
H7_10 H 0.1271 0.2784 0.1986
H8_12 H 0.1207 0.2417 0.2261
C11_12 C 0.11097(10) 0.24845(12) 0.1113(3)
H9_12 H 0.1145 0.2254 0.0964
H10_10 H 0.1199 0.2624 0.0701
C12_10 C 0.07452(12) 0.25465(14) 0.1180(5)
H11_12 H 0.0654 0.2404 0.1584
H12_10 H 0.0709 0.2776 0.1337
C13_12 C 0.05606(14) 0.24829(19) 0.0433(5)
H13_10 H 0.0655 0.2617 0.0025
H14_12 H 0.0579 0.2251 0.0298
H15_10 H 0.0330 0.2540 0.0500
C14_10 C 0.13589(10) 0.33704(10) 0.0207(3)
H16_10 H 0.1334 0.3284 0.0708
C16_10 C 0.07772(11) 0.34768(16) 0.0246(4)
H20_10 H 0.0664 0.3684 0.0146
H21_10 H 0.0643 0.3295 0.0059
H22_10 H 0.0813 0.3452 0.0796
Mn2_12 Mn 0.211669(12) 0.208592(11) 0.01011(3)
O7_12 O 0.25316(5) 0.21239(5) 0.06179(12)
N4_12 N 0.20597(6) 0.17515(6) 0.08855(14)
C20_12 C 0.10228(9) 0.12778(9) 0.0190(3)
H25_12 H 0.0868 0.1108 0.0276
C21_12 C 0.12951(8) 0.13028(8) 0.0645(2)
H26_12 H 0.1322 0.1154 0.1056
C22_12 C 0.15328(8) 0.15401(8) 0.0521(2)
C23_12 C 0.18190(7) 0.15460(7) 0.10293(19)
C24_12 C 0.25656(8) 0.19181(8) 0.11777(19)
C25_12 C 0.28912(8) 0.19088(9) 0.1576(2)
H27_12 H 0.2955 0.2134 0.1725
H28_12 H 0.2873 0.1776 0.2047
C26_12 C 0.31545(9) 0.17625(12) 0.1059(3)
H29_12 H 0.3371 0.1795 0.1299
H30_12 H 0.3154 0.1880 0.0565
C27_12 C 0.31030(11) 0.14002(12) 0.0913(3)
H31_12 H 0.3098 0.1285 0.1409
H32_12 H 0.2887 0.1370 0.0666
C28_12 C 0.33672(13) 0.12422(15) 0.0406(4)
H33_12 H 0.3583 0.1269 0.0657
C29_12 C 0.33121(19) 0.08934(16) 0.0257(5)
H35_12 H 0.3089 0.0862 0.0064
H37_12 H 0.3340 0.0770 0.0732
O8_12 O 0.25739(5) 0.39847(5) 0.30899(13)
O9_10 O 0.20208(5) 0.36787(5) 0.11528(14)
O10_11 O 0.29712(5) 0.32554(5) 0.21528(13)
N7_10 N 0.24500(6) 0.35625(6) 0.19411(16)
N8_10 N 0.24944(6) 0.32815(6) 0.14754(16)
C36_11 C 0.23298(8) 0.41556(8) 0.2787(2)
C37_11 C 0.22509(9) 0.44533(9) 0.3137(2)
H44_11 H 0.2370 0.4521 0.3576
C38_11 C 0.20028(9) 0.46517(9) 0.2856(2)
H45_11 H 0.1955 0.4853 0.3103
C39_10 C 0.18249(8) 0.45598(8) 0.2224(2)
H46_10 H 0.1655 0.4696 0.2031
C40_10 C 0.18975(8) 0.42682(8) 0.1878(2)
H47_10 H 0.1773 0.4204 0.1445
C41_10 C 0.21479(8) 0.40605(7) 0.21367(19)
C42_10 C 0.22055(8) 0.37531(7) 0.1727(2)
C43_11 C 0.27739(8) 0.31423(8) 0.1638(2)
C44_11 C 0.28853(9) 0.28526(9) 0.1181(2)
H48_11 H 0.2696 0.2755 0.0913
H49_11 H 0.2977 0.2685 0.1529
C45_11 C 0.31528(13) 0.29554(12) 0.0578(3)
H50_11 H 0.3347 0.3045 0.0845
H51_11 H 0.3064 0.3128 0.0239
C46_11 C 0.3256(2) 0.26480(16) 0.0088(5)
H52_11 H 0.3389 0.2501 0.0413
Mn1_11 Mn 0.075986(11) 0.541325(12) 0.81133(3)
O1_7 O 0.09292(5) 0.51468(6) 0.73422(15)
O3_11 O 0.05152(5) 0.56749(5) 0.88394(13)
O4_7 O 0.08748(6) 0.58696(6) 0.74449(15)
N1_11 N 0.03246(6) 0.53722(6) 0.76768(15)
N2_11 N 0.00740(6) 0.55225(6) 0.81187(15)
N3_7 N 0.09764(9) 0.64113(8) 0.7355(2)
C1_7 C 0.07836(9) 0.50218(8) 0.6724(2)
C2_8 C 0.09760(10) 0.48238(9) 0.6235(3)
H1_8 H 0.1197 0.4778 0.6364
C3_8 C 0.08460(12) 0.46989(11) 0.5579(3)
H2_8 H 0.0980 0.4569 0.5256
C4_8 C 0.05236(12) 0.47566(11) 0.5371(3)
H3_12 H 0.0439 0.4674 0.4904
C5_8 C 0.03305(10) 0.49364(9) 0.5857(2)
H4_8 H 0.0108 0.4971 0.5728
C6_7 C 0.04501(8) 0.50684(8) 0.6530(2)
C7_7 C 0.02202(8) 0.52408(8) 0.70291(19)
C8_11 C 0.01993(8) 0.56690(8) 0.87103(19)
H6_11 H 0.0003 0.5732 0.9779
C10_11 C 0.00516(9) 0.62009(10) 0.9344(3)
H7_11 H 0.0284 0.6229 0.9486
H10_11 H 0.0124 0.6301 0.8201
C12_11 C 0.00465(14) 0.67548(12) 0.8680(5)
H12_11 H 0.0276 0.6791 0.8837
H13_11 H 0.0117 0.6845 0.7525
H15_11 H 0.0040 0.7170 0.8000
C14_11 C 0.08704(10) 0.61411(10) 0.7707(3)
H16_11 H 0.0784 0.6166 0.8208
C15_7 C 0.11192(14) 0.64101(13) 0.6629(4)
H17_7 H 0.1005 0.6567 0.6300
H18_7 H 0.1350 0.6472 0.6671
H19_7 H 0.1102 0.6191 0.6407
C16_11 C 0.09768(16) 0.67228(11) 0.7746(4)
H20_11 H 0.1184 0.6836 0.7646
H21_11 H 0.0795 0.6857 0.7559
H22_11 H 0.0952 0.6687 0.8296
O9_11 O 0.11787(5) 0.54792(5) 0.86528(14)
O10_12 O 0.07554(5) 0.45288(5) 0.96528(13)
N7_11 N 0.10625(6) 0.50500(6) 0.94411(16)
N8_11 N 0.07815(6) 0.50056(6) 0.89754(16)
C39_11 C 0.20598(8) 0.56751(8) 0.9724(2)
H46_11 H 0.2196 0.5845 0.9531
C40_11 C 0.17682(8) 0.56025(8) 0.9378(2)
H47_11 H 0.1704 0.5727 0.8945
C41_11 C 0.15605(7) 0.53521(8) 0.96367(19)
C42_11 C 0.12531(7) 0.52945(8) 0.9227(2)
C43_12 C 0.06423(8) 0.47261(8) 0.9138(2)
C44_12 C 0.03526(9) 0.46147(9) 0.8681(2)
H48_12 H 0.0255 0.4804 0.8413
H49_12 H 0.0185 0.4523 0.9029
C45_12 C 0.04554(12) 0.43472(13) 0.8078(3)
H50_12 H 0.0545 0.4153 0.8345
H51_12 H 0.0628 0.4436 0.7739
C46_12 C 0.01480(16) 0.4244(2) 0.7588(5)
H52_12 H 0.0001 0.4111 0.7913
H53_8 H 0.0027 0.4444 0.7440
C47_8 C 0.0219(3) 0.4069(3) 0.6936(7)
H54_8 H 0.0326 0.3859 0.7074
H55_8 H 0.0371 0.4195 0.6609
Mn1_12 Mn 0.575986(11) 0.541325(12) 0.68867(3)
O1_8 O 0.59292(5) 0.51468(6) 0.76578(15)
O2_9 O 0.49197(5) 0.52572(6) 0.81698(12)
O3_12 O 0.55152(5) 0.56749(5) 0.61606(13)
O4_8 O 0.58748(6) 0.58696(6) 0.75551(15)
N1_12 N 0.53246(6) 0.53722(6) 0.73232(15)
N2_12 N 0.50740(6) 0.55225(6) 0.68813(15)
N3_8 N 0.59764(9) 0.64113(8) 0.7645(2)
C1_8 C 0.57836(9) 0.50218(8) 0.8276(2)
C2_9 C 0.59760(10) 0.48238(9) 0.8765(3)
H1_9 H 0.6197 0.4778 0.8636
C3_9 C 0.58460(12) 0.46989(11) 0.9421(3)
H2_9 H 0.5980 0.4569 0.9744
C4_9 C 0.55236(12) 0.47566(11) 0.9629(3)
C5_9 C 0.53305(10) 0.49364(9) 0.9143(2)
H4_9 H 0.5108 0.4971 0.9272
C6_8 C 0.54501(8) 0.50684(8) 0.8470(2)
C7_8 C 0.52202(8) 0.52408(8) 0.79709(19)
C8_12 C 0.51993(8) 0.56690(8) 0.62897(19)
C9_13 C 0.49782(8) 0.58366(9) 0.5728(2)
H5_13 H 0.4748 0.5808 0.5893
H6_12 H 0.5003 0.5732 0.5221
C10_12 C 0.50516(9) 0.62009(10) 0.5656(3)
H7_12 H 0.5284 0.6229 0.5514
H8_13 H 0.4917 0.6293 0.5239
C11_13 C 0.49845(12) 0.63903(10) 0.6387(3)
H9_13 H 0.4754 0.6355 0.6536
H10_12 H 0.5124 0.6301 0.6799
C12_12 C 0.50465(14) 0.67548(12) 0.6320(5)
H11_13 H 0.4904 0.6846 0.5916
H12_12 H 0.5276 0.6791 0.6163
C13_13 C 0.49829(19) 0.69394(14) 0.7067(5)
H13_12 H 0.5117 0.6845 0.7475
H14_13 H 0.4751 0.6921 0.7202
H15_12 H 0.5040 0.7170 0.7000
C14_12 C 0.58704(10) 0.61411(10) 0.7293(3)
H16_12 H 0.5784 0.6166 0.6792
C15_8 C 0.61192(14) 0.64101(13) 0.8371(4)
H17_8 H 0.6005 0.6567 0.8700
H18_8 H 0.6350 0.6472 0.8329
H19_8 H 0.6102 0.6191 0.8593
C16_12 C 0.59768(16) 0.67228(11) 0.7254(4)
H20_12 H 0.6184 0.6836 0.7354
H21_12 H 0.5795 0.6857 0.7441
H22_12 H 0.5952 0.6687 0.6704
Mn2_13 Mn 0.458592(11) 0.538331(12) 0.73989(3)
O5_9 O 0.44947(5) 0.57987(5) 0.77784(14)
O6_7 O 0.38443(5) 0.56672(5) 0.59100(13)
O7_13 O 0.46239(5) 0.49684(5) 0.68821(12)
N4_13 N 0.42515(6) 0.54403(6) 0.66145(14)
N5_7 N 0.42168(6) 0.51636(6) 0.61300(15)
N6_9 N 0.42351(7) 0.51249(8) 0.82165(17)
C17_9 C 0.42603(8) 0.60103(8) 0.7592(2)
C18_9 C 0.42363(9) 0.62938(9) 0.8034(2)
H23_9 H 0.4386 0.6328 0.8441
C19_9 C 0.39990(10) 0.65243(10) 0.7889(3)
H24_9 H 0.3988 0.6717 0.8191
C20_13 C 0.37778(9) 0.64772(9) 0.7310(3)
H25_13 H 0.3608 0.6632 0.7224
C21_13 C 0.38028(8) 0.62049(8) 0.6855(2)
H26_13 H 0.3654 0.6178 0.6444
C22_13 C 0.40401(8) 0.59672(8) 0.6979(2)
C23_13 C 0.40460(7) 0.56810(7) 0.64707(19)
C24_13 C 0.44181(8) 0.49344(8) 0.63223(19)
C25_13 C 0.44088(9) 0.46088(8) 0.5924(2)
H27_13 H 0.4634 0.4545 0.5775
H28_13 H 0.4276 0.4627 0.5453
C26_13 C 0.42625(12) 0.43455(9) 0.6441(3)
H29_13 H 0.4295 0.4129 0.6201
H30_13 H 0.4380 0.4346 0.6935
C27_13 C 0.39002(12) 0.43970(11) 0.6587(3)
H31_13 H 0.3785 0.4402 0.6091
H32_13 H 0.3870 0.4613 0.6834
C28_13 C 0.37422(15) 0.41328(13) 0.7094(4)
H33_13 H 0.3769 0.3917 0.6843
H34_9 H 0.3860 0.4125 0.7588
C29_13 C 0.33934(16) 0.41879(19) 0.7243(5)
H35_13 H 0.3362 0.4411 0.7436
H36_9 H 0.3316 0.4030 0.7624
H37_13 H 0.3270 0.4160 0.6768
C30_9 C 0.43133(11) 0.48190(11) 0.8422(2)
H38_9 H 0.4521 0.4735 0.8282
C31_9 C 0.41012(12) 0.46217(12) 0.8832(3)
H39_9 H 0.4164 0.4406 0.8968
C32_9 C 0.37996(11) 0.47382(15) 0.9041(3)
C33_9 C 0.37292(10) 0.50545(14) 0.8836(3)
H40_9 H 0.3527 0.5149 0.8985
C34_9 C 0.39485(9) 0.52351(11) 0.8419(2)
H41_9 H 0.3889 0.5451 0.8270
C35_9 C 0.35716(12) 0.45272(18) 0.9507(4)
H42_9 H 0.3345 0.4610 0.9447
H43_9 H 0.3578 0.4301 0.9305
Mn3_7 Mn 0.613020(12) 0.470480(11) 0.48138(3)
O8_13 O 0.64847(5) 0.49261(5) 0.44101(13)
O9_12 O 0.61787(5) 0.54792(5) 0.63472(14)
O10_13 O 0.57554(5) 0.45288(5) 0.53472(13)
N7_12 N 0.60625(6) 0.50500(6) 0.55589(16)
N8_12 N 0.57815(6) 0.50056(6) 0.60246(16)
C36_12 C 0.66556(8) 0.51702(8) 0.4713(2)
C37_12 C 0.69533(9) 0.52491(9) 0.4363(2)
H44_12 H 0.7021 0.5130 0.3924
C38_12 C 0.71517(9) 0.54972(9) 0.4644(2)
H45_12 H 0.7353 0.5545 0.4397
C39_12 C 0.70598(8) 0.56751(8) 0.5276(2)
H46_12 H 0.7196 0.5845 0.5469
C40_12 C 0.67682(8) 0.56025(8) 0.5622(2)
H47_12 H 0.6704 0.5727 0.6055
C41_12 C 0.65605(7) 0.53521(8) 0.53633(19)
C42_12 C 0.62531(7) 0.52945(8) 0.5773(2)
C43_13 C 0.56423(8) 0.47261(8) 0.5862(2)
C44_13 C 0.53526(9) 0.46147(9) 0.6319(2)
H48_13 H 0.5255 0.4804 0.6587
H49_13 H 0.5185 0.4523 0.5971
C45_13 C 0.54554(12) 0.43472(13) 0.6922(3)
H50_13 H 0.5545 0.4153 0.6655
H51_13 H 0.5628 0.4436 0.7261
C46_13 C 0.51480(16) 0.4244(2) 0.7412(5)
H52_13 H 0.5001 0.4111 0.7087
H53_9 H 0.5027 0.4444 0.7560
C47_9 C 0.5219(3) 0.4069(3) 0.8064(7)
H54_9 H 0.5326 0.3859 0.7926
H55_9 H 0.5371 0.4195 0.8391
C48_9 C 0.4877(3) 0.3998(3) 0.8526(7)
H56_9 H 0.4690 0.4044 0.8190
H57_9 H 0.4870 0.3768 0.8685
H58_9 H 0.4865 0.4139 0.8978
O11_7 O 0.61557(5) 0.43328(5) 0.40900(13)
N10_7 N 0.57832(6) 0.48364(6) 0.38700(15)
Mn4_4 Mn 0.386980(12) 0.529520(11) 0.51862(3)
N11_7 N 0.64550(6) 0.44230(7) 0.56531(17)
O1_9 O 0.23532(6) 0.84292(5) 0.01578(15)
O2_10 O 0.22428(6) 0.74197(5) 0.06698(12)
O4_9 O 0.16304(6) 0.83748(6) 0.00551(15)
N3_9 N 0.10887(8) 0.84764(9) 0.0145(2)
C1_9 C 0.24782(8) 0.82836(9) 0.0776(2)
C2_10 C 0.26762(9) 0.84760(10) 0.1265(3)
H1_10 H 0.2722 0.8697 0.1136
C3_10 C 0.28011(11) 0.83460(12) 0.1921(3)
H2_10 H 0.2931 0.8480 0.2244
C4_10 C 0.27434(11) 0.80236(12) 0.2129(3)
H3_13 H 0.2826 0.7939 0.2596
C5_10 C 0.25636(9) 0.78305(10) 0.1643(2)
H4_10 H 0.2529 0.7608 0.1772
C6_9 C 0.24316(8) 0.79501(8) 0.0970(2)
C7_9 C 0.22592(8) 0.77202(8) 0.04709(19)
C15_9 C 0.10899(13) 0.86192(14) 0.0871(4)
H17_9 H 0.0933 0.8505 0.1200
H18_9 H 0.1028 0.8850 0.0829
H19_9 H 0.1309 0.8602 0.1093
O5_10 O 0.17013(5) 0.69947(5) 0.02784(14)
N6_10 N 0.23751(8) 0.67351(7) 0.07165(17)
C17_10 C 0.14897(8) 0.67603(8) 0.0092(2)
C18_10 C 0.12062(9) 0.67363(9) 0.0534(2)
H23_10 H 0.1172 0.6886 0.0941
C19_10 C 0.09757(10) 0.64990(10) 0.0389(3)
H24_10 H 0.0783 0.6488 0.0691
H34_10 H 0.3375 0.6360 0.0088
H36_10 H 0.3470 0.5816 0.0124
C30_10 C 0.26810(11) 0.68133(11) 0.0922(2)
H38_10 H 0.2765 0.7021 0.0782
C31_10 C 0.28783(12) 0.66012(12) 0.1332(3)
H39_10 H 0.3094 0.6664 0.1468
C32_10 C 0.27618(15) 0.62996(11) 0.1541(3)
C33_10 C 0.24455(14) 0.62292(10) 0.1336(3)
H40_10 H 0.2351 0.6027 0.1485
C34_10 C 0.22649(11) 0.64485(9) 0.0919(2)
H41_10 H 0.2049 0.6389 0.0770
C35_10 C 0.29728(18) 0.60716(12) 0.2007(4)
H42_10 H 0.2890 0.5845 0.1947
H43_10 H 0.3199 0.6078 0.1805
N9_7 N 0.35450(6) 0.55770(7) 0.43469(17)
H53_10 H 0.3056 0.7527 0.0060
C47_10 C 0.3431(3) 0.7719(3) 0.0564(7)
H54_10 H 0.3641 0.7826 0.0426
H55_10 H 0.3305 0.7871 0.0891
C48_10 C 0.3502(3) 0.7377(3) 0.1026(7)
H56_10 H 0.3456 0.7190 0.0690
H57_10 H 0.3732 0.7370 0.1185
H58_10 H 0.3361 0.7365 0.1478
C49_13 C 0.33135(9) 0.57814(9) 0.4578(2)
H59_13 H 0.3274 0.5802 0.5111
C50_13 C 0.31271(10) 0.59655(10) 0.4083(2)
H60_13 H 0.2960 0.6105 0.4272
C51_13 C 0.31864(11) 0.59454(12) 0.3310(2)
C52_13 C 0.34259(11) 0.57296(11) 0.3069(2)
H61_13 H 0.3470 0.5703 0.2540
C53_13 C 0.35988(9) 0.55552(10) 0.3599(2)
H62_13 H 0.3765 0.5411 0.3425
C54_13 C 0.29788(15) 0.61476(17) 0.2754(3)
H63_13 H 0.2750 0.6141 0.2940
H64_13 H 0.3052 0.6378 0.2795
Mn1_13 Mn 0.424014(11) 0.458675(12) 0.31133(3)
O1_10 O 0.40708(5) 0.48532(6) 0.23422(15)
O2_11 O 0.50803(5) 0.47428(6) 0.18302(12)
O3_13 O 0.44848(5) 0.43251(5) 0.38394(13)
O4_10 O 0.41252(6) 0.41304(6) 0.24449(15)
N1_13 N 0.46754(6) 0.46278(6) 0.26768(15)
N2_13 N 0.49260(6) 0.44775(6) 0.31187(15)
N3_10 N 0.40236(9) 0.35887(8) 0.2355(2)
C1_10 C 0.42164(9) 0.49782(8) 0.1724(2)
C2_11 C 0.40240(10) 0.51762(9) 0.1235(3)
H1_11 H 0.3803 0.5222 0.1364
C3_11 C 0.41540(12) 0.53011(11) 0.0579(3)
H2_11 H 0.4020 0.5431 0.0256
C4_11 C 0.44764(12) 0.52434(11) 0.0371(3)
C5_11 C 0.46695(10) 0.50636(9) 0.0857(2)
H4_11 H 0.4892 0.5029 0.0728
C6_10 C 0.45499(8) 0.49316(8) 0.1530(2)
C7_10 C 0.47798(8) 0.47592(8) 0.20291(19)
C8_13 C 0.48007(8) 0.43310(8) 0.37103(19)
C9_14 C 0.50218(8) 0.41634(9) 0.4272(2)
H5_14 H 0.5252 0.4192 0.4107
H6_13 H 0.4997 0.4268 0.4779
C10_13 C 0.49484(9) 0.37991(10) 0.4344(3)
H7_13 H 0.4716 0.3771 0.4486
H8_14 H 0.5083 0.3707 0.4761
C11_14 C 0.50155(12) 0.36097(10) 0.3613(3)
H9_14 H 0.5246 0.3645 0.3464
H10_13 H 0.4876 0.3699 0.3201
C12_13 C 0.49535(14) 0.32452(12) 0.3680(5)
H11_14 H 0.5096 0.3154 0.4084
H12_13 H 0.4724 0.3209 0.3837
C13_14 C 0.50171(19) 0.30606(14) 0.2933(5)
H13_13 H 0.4883 0.3155 0.2525
H14_14 H 0.5249 0.3079 0.2798
H15_13 H 0.4960 0.2830 0.3000
C14_13 C 0.41296(10) 0.38589(10) 0.2707(3)
H16_13 H 0.4216 0.3834 0.3208
C15_10 C 0.38808(14) 0.35899(13) 0.1629(4)
H17_10 H 0.3995 0.3433 0.1300
H18_10 H 0.3650 0.3528 0.1671
H19_10 H 0.3898 0.3809 0.1407
C16_13 C 0.40232(16) 0.32772(11) 0.2746(4)
H20_13 H 0.3816 0.3164 0.2646
H21_13 H 0.4205 0.3143 0.2559
H22_13 H 0.4048 0.3313 0.3296
Mn2_14 Mn 0.541408(11) 0.461669(12) 0.26011(3)
O5_11 O 0.55053(5) 0.42013(5) 0.22216(14)
O7_14 O 0.53761(5) 0.50316(5) 0.31179(12)
N4_14 N 0.57485(6) 0.45597(6) 0.33855(14)
N6_11 N 0.57649(7) 0.48751(8) 0.17835(17)
C17_11 C 0.57397(8) 0.39897(8) 0.2408(2)
C18_11 C 0.57637(9) 0.37062(9) 0.1966(2)
H23_11 H 0.5614 0.3672 0.1559
C19_11 C 0.60010(10) 0.34757(10) 0.2111(3)
H24_11 H 0.6012 0.3283 0.1809
C20_14 C 0.62222(9) 0.35228(9) 0.2690(3)
H25_14 H 0.6392 0.3368 0.2776
C21_14 C 0.61972(8) 0.37951(8) 0.3145(2)
H26_14 H 0.6346 0.3822 0.3556
C22_14 C 0.59599(8) 0.40328(8) 0.3021(2)
C23_14 C 0.59540(7) 0.43190(7) 0.35293(19)
C24_14 C 0.55819(8) 0.50656(8) 0.36777(19)
C25_14 C 0.55912(9) 0.53912(8) 0.4076(2)
H27_14 H 0.5366 0.5455 0.4225
H28_14 H 0.5724 0.5373 0.4547
C26_14 C 0.57375(12) 0.56545(9) 0.3559(3)
H29_14 H 0.5705 0.5871 0.3799
H30_14 H 0.5620 0.5654 0.3065
C27_14 C 0.60998(12) 0.56030(11) 0.3413(3)
H31_14 H 0.6215 0.5598 0.3909
H32_14 H 0.6130 0.5387 0.3166
C28_14 C 0.62578(15) 0.58672(13) 0.2906(4)
H33_14 H 0.6231 0.6083 0.3157
H34_11 H 0.6140 0.5875 0.2412
C29_14 C 0.66066(16) 0.58121(19) 0.2757(5)
H35_14 H 0.6638 0.5589 0.2564
H36_11 H 0.6684 0.5970 0.2376
H37_14 H 0.6730 0.5840 0.3232
C30_11 C 0.56867(11) 0.51810(11) 0.1578(2)
H38_11 H 0.5479 0.5265 0.1718
C31_11 C 0.58988(12) 0.53783(12) 0.1168(3)
H39_11 H 0.5836 0.5594 0.1032
C32_11 C 0.62004(11) 0.52618(15) 0.0959(3)
C33_11 C 0.62708(10) 0.49455(14) 0.1164(3)
H40_11 H 0.6473 0.4851 0.1015
C34_11 C 0.60515(9) 0.47649(11) 0.1581(2)
H41_11 H 0.6111 0.4549 0.1730
C35_11 C 0.64284(12) 0.54728(18) 0.0493(4)
H42_11 H 0.6655 0.5390 0.0553
H43_11 H 0.6422 0.5699 0.0695
O8_14 O 0.35153(5) 0.50739(5) 0.55899(13)
O9_13 O 0.38213(5) 0.45208(5) 0.36528(14)
O10_14 O 0.42446(5) 0.54712(5) 0.46528(13)
N7_13 N 0.39375(6) 0.49500(6) 0.44411(16)
N8_13 N 0.42185(6) 0.49944(6) 0.39754(16)
C36_13 C 0.33444(8) 0.48298(8) 0.5287(2)
C37_13 C 0.30467(9) 0.47509(9) 0.5637(2)
H44_13 H 0.2979 0.4870 0.6076
C38_13 C 0.28483(9) 0.45028(9) 0.5356(2)
H45_13 H 0.2647 0.4455 0.5603
C39_13 C 0.29402(8) 0.43249(8) 0.4724(2)
H46_13 H 0.2804 0.4155 0.4531
C40_13 C 0.32318(8) 0.43975(8) 0.4378(2)
H47_13 H 0.3296 0.4273 0.3945
C41_13 C 0.34395(7) 0.46479(8) 0.46367(19)
C42_13 C 0.37469(7) 0.47055(8) 0.4227(2)
C43_14 C 0.43577(8) 0.52739(8) 0.4138(2)
C44_14 C 0.46474(9) 0.53853(9) 0.3681(2)
H48_14 H 0.4745 0.5196 0.3413
H49_14 H 0.4815 0.5477 0.4029
C45_14 C 0.45446(12) 0.56528(13) 0.3078(3)
H50_14 H 0.4455 0.5847 0.3345
H51_14 H 0.4372 0.5564 0.2739
C46_14 C 0.48520(16) 0.5756(2) 0.2588(5)
H52_14 H 0.4999 0.5889 0.2913
H53_11 H 0.4973 0.5556 0.2440
C47_11 C 0.4781(3) 0.5931(3) 0.1936(7)
H54_11 H 0.4674 0.6141 0.2074
H55_11 H 0.4629 0.5805 0.1609
C48_11 C 0.5123(3) 0.6002(3) 0.1474(7)
H56_11 H 0.5310 0.5956 0.1810
H57_11 H 0.5130 0.6232 0.1315
H58_11 H 0.5135 0.5861 0.1022
O1_11 O 0.76468(6) 0.15708(5) 0.98422(15)
O2_12 O 0.77572(6) 0.25803(5) 0.93302(12)
O4_11 O 0.83696(6) 0.16252(6) 0.99449(15)
N3_11 N 0.89113(8) 0.15236(9) 0.9855(2)
C1_11 C 0.75218(8) 0.17164(9) 0.9224(2)
C2_12 C 0.73238(9) 0.15240(10) 0.8735(3)
H1_12 H 0.7278 0.1303 0.8864
C3_12 C 0.71989(11) 0.16540(12) 0.8079(3)
H2_12 H 0.7069 0.1520 0.7756
C4_12 C 0.72566(11) 0.19764(12) 0.7871(3)
H3_14 H 0.7174 0.2061 0.7404
C5_12 C 0.74364(9) 0.21695(10) 0.8357(2)
H4_12 H 0.7471 0.2392 0.8228
C6_11 C 0.75684(8) 0.20499(8) 0.9030(2)
C7_11 C 0.77408(8) 0.22798(8) 0.95291(19)
C15_11 C 0.89101(13) 0.13808(14) 0.9129(4)
H17_11 H 0.9067 0.1495 0.8800
H18_11 H 0.8972 0.1150 0.9171
H19_11 H 0.8691 0.1398 0.8907
O5_12 O 0.82987(5) 0.30053(5) 0.97216(14)
N6_12 N 0.76249(8) 0.32649(7) 0.92835(17)
C17_12 C 0.85103(8) 0.32397(8) 0.9908(2)
C18_12 C 0.87938(9) 0.32637(9) 0.9466(2)
H23_12 H 0.8828 0.3114 0.9059
C19_12 C 0.90243(10) 0.35010(10) 0.9611(3)
H24_12 H 0.9217 0.3512 0.9309
H34_12 H 0.6625 0.3640 0.9912
H36_12 H 0.6530 0.4184 0.9876
C30_12 C 0.73190(11) 0.31867(11) 0.9078(2)
H38_12 H 0.7235 0.2979 0.9218
C31_12 C 0.71217(12) 0.33988(12) 0.8668(3)
H39_12 H 0.6906 0.3336 0.8532
C32_12 C 0.72382(15) 0.37004(11) 0.8459(3)
C33_12 C 0.75545(14) 0.37708(10) 0.8664(3)
H40_12 H 0.7649 0.3973 0.8515
C34_12 C 0.77351(11) 0.35515(9) 0.9081(2)
H41_12 H 0.7951 0.3611 0.9230
C35_12 C 0.70272(18) 0.39284(12) 0.7993(4)
H42_12 H 0.7110 0.4155 0.8053
H43_12 H 0.6801 0.3922 0.8195
H53_12 H 0.6944 0.2473 0.9940
C47_12 C 0.6569(3) 0.2281(3) 0.9436(7)
H54_12 H 0.6359 0.2174 0.9574
H55_12 H 0.6695 0.2129 0.9109
C48_12 C 0.6498(3) 0.2623(3) 0.8974(7)
H56_12 H 0.6544 0.2810 0.9310
H57_12 H 0.6268 0.2630 0.8815
H58_12 H 0.6639 0.2635 0.8522
C49_14 C 0.66865(9) 0.42186(9) 0.5422(2)
H59_14 H 0.6726 0.4198 0.4889
C50_14 C 0.68729(10) 0.40345(10) 0.5917(2)
H60_14 H 0.7040 0.3895 0.5728
C51_14 C 0.68136(11) 0.40546(12) 0.6690(2)
C52_14 C 0.65741(11) 0.42704(11) 0.6931(2)
H61_14 H 0.6530 0.4297 0.7460
C53_14 C 0.64012(9) 0.44448(10) 0.6401(2)
H62_14 H 0.6235 0.4589 0.6575
C54_14 C 0.70212(15) 0.38524(17) 0.7246(3)
H63_14 H 0.7250 0.3859 0.7060
H64_14 H 0.6948 0.3622 0.7205
C2_13 C 0.40240(10) 0.01762(9) 0.8765(3)
H1_13 H 0.3803 0.0222 0.8636
C3_13 C 0.41540(12) 0.03011(11) 0.9421(3)
H2_13 H 0.4020 0.0431 0.9744
C4_13 C 0.44764(12) 0.02434(11) 0.9629(3)
C5_13 C 0.46695(10) 0.00636(9) 0.9143(2)
H4_13 H 0.4892 0.0029 0.9272
O7_15 O 0.53761(5) 0.00316(5) 0.68821(12)
C24_15 C 0.55819(8) 0.00656(8) 0.63223(19)
C25_15 C 0.55912(9) 0.03912(8) 0.5924(2)
H27_15 H 0.5366 0.0455 0.5775
H28_15 H 0.5724 0.0373 0.5453
C26_15 C 0.57375(12) 0.06545(9) 0.6441(3)
H29_15 H 0.5705 0.0871 0.6201
H30_15 H 0.5620 0.0654 0.6935
C27_15 C 0.60998(12) 0.06030(11) 0.6587(3)
H31_15 H 0.6215 0.0598 0.6091
H32_15 H 0.6130 0.0387 0.6834
C28_15 C 0.62578(15) 0.08672(13) 0.7094(4)
H33_15 H 0.6231 0.1083 0.6843
H34_13 H 0.6140 0.0875 0.7588
C29_15 C 0.66066(16) 0.08121(19) 0.7243(5)
H35_15 H 0.6638 0.0589 0.7436
H36_13 H 0.6684 0.0970 0.7624
H37_15 H 0.6730 0.0840 0.6768
C30_13 C 0.56867(11) 0.01810(11) 0.8422(2)
H38_13 H 0.5479 0.0265 0.8282
C31_13 C 0.58988(12) 0.03783(12) 0.8832(3)
H39_13 H 0.5836 0.0594 0.8968
C32_13 C 0.62004(11) 0.02618(15) 0.9041(3)
C35_13 C 0.64284(12) 0.04728(18) 0.9507(4)
H42_13 H 0.6655 0.0390 0.9447
H43_13 H 0.6422 0.0699 0.9305
Mn3_8 Mn 0.386980(12) 0.029520(11) 0.48138(3)
O8_15 O 0.35153(5) 0.00739(5) 0.44101(13)
O10_15 O 0.42446(5) 0.04712(5) 0.53472(13)
C43_15 C 0.43577(8) 0.02739(8) 0.5862(2)
C44_15 C 0.46474(9) 0.03853(9) 0.6319(2)
H48_15 H 0.4745 0.0196 0.6587
H49_15 H 0.4815 0.0477 0.5971
C45_15 C 0.45446(12) 0.06528(13) 0.6922(3)
H50_15 H 0.4455 0.0847 0.6655
H51_15 H 0.4372 0.0564 0.7261
C46_15 C 0.48520(16) 0.0756(2) 0.7412(5)
H52_15 H 0.4999 0.0889 0.7087
H53_13 H 0.4973 0.0556 0.7560
C47_13 C 0.4781(3) 0.0931(3) 0.8064(7)
H54_13 H 0.4674 0.1141 0.7926
H55_13 H 0.4629 0.0805 0.8391
C48_13 C 0.5123(3) 0.1002(3) 0.8526(7)
H56_13 H 0.5310 0.0956 0.8190
H57_13 H 0.5130 0.1232 0.8685
H58_13 H 0.5135 0.0861 0.8978
O11_8 O 0.38443(5) 0.06672(5) 0.40900(13)
N10_8 N 0.42168(6) 0.01636(6) 0.38700(15)
N11_8 N 0.35450(6) 0.05770(7) 0.56531(17)
Mn1_14 Mn 0.575986(11) 0.041325(12) 0.31133(3)
O1_12 O 0.59292(5) 0.01468(6) 0.23422(15)
O2_13 O 0.49197(5) 0.02572(6) 0.18302(12)
O3_14 O 0.55152(5) 0.06749(5) 0.38394(13)
O4_12 O 0.58748(6) 0.08696(6) 0.24449(15)
N1_14 N 0.53246(6) 0.03722(6) 0.26768(15)
N2_14 N 0.50740(6) 0.05225(6) 0.31187(15)
N3_12 N 0.59764(9) 0.14113(8) 0.2355(2)
C1_12 C 0.57836(9) 0.00218(8) 0.1724(2)
C6_12 C 0.54501(8) 0.00684(8) 0.1530(2)
C7_12 C 0.52202(8) 0.02408(8) 0.20291(19)
C8_14 C 0.51993(8) 0.06690(8) 0.37103(19)
C9_15 C 0.49782(8) 0.08366(9) 0.4272(2)
H5_15 H 0.4748 0.0808 0.4107
H6_14 H 0.5003 0.0732 0.4779
C10_14 C 0.50516(9) 0.12009(10) 0.4344(3)
H7_14 H 0.5284 0.1229 0.4486
H8_15 H 0.4917 0.1293 0.4761
C11_15 C 0.49845(12) 0.13903(10) 0.3613(3)
H9_15 H 0.4754 0.1355 0.3464
H10_14 H 0.5124 0.1301 0.3201
C12_14 C 0.50465(14) 0.17548(12) 0.3680(5)
H11_15 H 0.4904 0.1846 0.4084
H12_14 H 0.5276 0.1791 0.3837
C13_15 C 0.49829(19) 0.19394(14) 0.2933(5)
H13_14 H 0.5117 0.1845 0.2525
H14_15 H 0.4751 0.1921 0.2798
H15_14 H 0.5040 0.2170 0.3000
C14_14 C 0.58704(10) 0.11411(10) 0.2707(3)
H16_14 H 0.5784 0.1166 0.3208
C15_12 C 0.61192(14) 0.14101(13) 0.1629(4)
H17_12 H 0.6005 0.1567 0.1300
H18_12 H 0.6350 0.1472 0.1671
H19_12 H 0.6102 0.1191 0.1407
C16_14 C 0.59768(16) 0.17228(11) 0.2746(4)
H20_14 H 0.6184 0.1836 0.2646
H21_14 H 0.5795 0.1857 0.2559
H22_14 H 0.5952 0.1687 0.3296
Mn2_15 Mn 0.458592(11) 0.038331(12) 0.26011(3)
O5_13 O 0.44947(5) 0.07987(5) 0.22216(14)
N4_15 N 0.42515(6) 0.04403(6) 0.33855(14)
N6_13 N 0.42351(7) 0.01249(8) 0.17835(17)
C17_13 C 0.42603(8) 0.10103(8) 0.2408(2)
C18_13 C 0.42363(9) 0.12938(9) 0.1966(2)
H23_13 H 0.4386 0.1328 0.1559
C19_13 C 0.39990(10) 0.15243(10) 0.2111(3)
H24_13 H 0.3988 0.1717 0.1809
C20_15 C 0.37778(9) 0.14772(9) 0.2690(3)
H25_15 H 0.3608 0.1632 0.2776
C21_15 C 0.38028(8) 0.12049(8) 0.3145(2)
H26_15 H 0.3654 0.1178 0.3556
C22_15 C 0.40401(8) 0.09672(8) 0.3021(2)
C23_15 C 0.40460(7) 0.06810(7) 0.35293(19)
C33_13 C 0.37292(10) 0.00545(14) 0.1164(3)
H40_13 H 0.3527 0.0149 0.1015
C34_13 C 0.39485(9) 0.02351(11) 0.1581(2)
H41_13 H 0.3889 0.0451 0.1730
O9_14 O 0.61787(5) 0.04792(5) 0.36528(14)
N7_14 N 0.60625(6) 0.00500(6) 0.44411(16)
N8_14 N 0.57815(6) 0.00056(6) 0.39754(16)
C36_14 C 0.66556(8) 0.01702(8) 0.5287(2)
C37_14 C 0.69533(9) 0.02491(9) 0.5637(2)
H44_14 H 0.7021 0.0130 0.6076
C38_14 C 0.71517(9) 0.04972(9) 0.5356(2)
H45_14 H 0.7353 0.0545 0.5603
C39_14 C 0.70598(8) 0.06751(8) 0.4724(2)
H46_14 H 0.7196 0.0845 0.4531
C40_14 C 0.67682(8) 0.06025(8) 0.4378(2)
H47_14 H 0.6704 0.0727 0.3945
C41_14 C 0.65605(7) 0.03521(8) 0.46367(19)
C42_14 C 0.62531(7) 0.02945(8) 0.4227(2)
O1_13 O 0.23532(6) 0.34292(5) 0.98422(15)
O2_14 O 0.22428(6) 0.24197(5) 0.93302(12)
O4_13 O 0.16304(6) 0.33748(6) 0.99449(15)
N3_13 N 0.10887(8) 0.34764(9) 0.9855(2)
C1_13 C 0.24782(8) 0.32836(9) 0.9224(2)
C2_14 C 0.26762(9) 0.34760(10) 0.8735(3)
H1_14 H 0.2722 0.3697 0.8864
C3_14 C 0.28011(11) 0.33460(12) 0.8079(3)
H2_14 H 0.2931 0.3480 0.7756
C4_14 C 0.27434(11) 0.30236(12) 0.7871(3)
H3_15 H 0.2826 0.2939 0.7404
C5_14 C 0.25636(9) 0.28305(10) 0.8357(2)
H4_14 H 0.2529 0.2608 0.8228
C6_13 C 0.24316(8) 0.29501(8) 0.9030(2)
C7_13 C 0.22592(8) 0.27202(8) 0.95291(19)
C15_13 C 0.10899(13) 0.36192(14) 0.9129(4)
H17_13 H 0.0933 0.3505 0.8800
H18_13 H 0.1028 0.3850 0.9171
H19_13 H 0.1309 0.3602 0.8907
O5_14 O 0.17013(5) 0.19947(5) 0.97216(14)
N6_14 N 0.23751(8) 0.17351(7) 0.92835(17)
C17_14 C 0.14897(8) 0.17603(8) 0.9908(2)
C18_14 C 0.12062(9) 0.17363(9) 0.9466(2)
H23_14 H 0.1172 0.1886 0.9059
C19_14 C 0.09757(10) 0.14990(10) 0.9611(3)
H24_14 H 0.0783 0.1488 0.9309
H34_14 H 0.3375 0.1360 0.9912
H36_14 H 0.3470 0.0816 0.9876
C30_14 C 0.26810(11) 0.18133(11) 0.9078(2)
H38_14 H 0.2765 0.2021 0.9218
C31_14 C 0.28783(12) 0.16012(12) 0.8668(3)
H39_14 H 0.3094 0.1664 0.8532
C32_14 C 0.27618(15) 0.12996(11) 0.8459(3)
C33_14 C 0.24455(14) 0.12292(10) 0.8664(3)
H40_14 H 0.2351 0.1027 0.8515
C34_14 C 0.22649(11) 0.14485(9) 0.9081(2)
H41_14 H 0.2049 0.1389 0.9230
C35_14 C 0.29728(18) 0.10716(12) 0.7993(4)
H42_14 H 0.2890 0.0845 0.8053
H43_14 H 0.3199 0.1078 0.8195
H53_14 H 0.3056 0.2527 0.9940
C47_14 C 0.3431(3) 0.2719(3) 0.9436(7)
H54_14 H 0.3641 0.2826 0.9574
H55_14 H 0.3305 0.2871 0.9109
C48_14 C 0.3502(3) 0.2377(3) 0.8974(7)
H56_14 H 0.3456 0.2190 0.9310
H57_14 H 0.3732 0.2370 0.8815
H58_14 H 0.3361 0.2365 0.8522
C49_15 C 0.33135(9) 0.07814(9) 0.5422(2)
H59_15 H 0.3274 0.0802 0.4889
C50_15 C 0.31271(10) 0.09655(10) 0.5917(2)
H60_15 H 0.2960 0.1105 0.5728
C51_15 C 0.31864(11) 0.09454(12) 0.6690(2)
C52_15 C 0.34259(11) 0.07296(11) 0.6931(2)
H61_15 H 0.3470 0.0703 0.7460
C53_15 C 0.35988(9) 0.05552(10) 0.6401(2)
H62_15 H 0.3765 0.0411 0.6575
C54_15 C 0.29788(15) 0.11476(17) 0.7246(3)
H63_15 H 0.2750 0.1141 0.7060
H64_15 H 0.3052 0.1378 0.7205
Mn1_15 Mn 0.424014(11) 0.958675(12) 0.68867(3)
O1_14 O 0.40708(5) 0.98532(6) 0.76578(15)
O2_15 O 0.50803(5) 0.97428(6) 0.81698(12)
O3_15 O 0.44848(5) 0.93251(5) 0.61606(13)
O4_14 O 0.41252(6) 0.91304(6) 0.75551(15)
N1_15 N 0.46754(6) 0.96278(6) 0.73232(15)
N2_15 N 0.49260(6) 0.94775(6) 0.68813(15)
N3_14 N 0.40236(9) 0.85887(8) 0.7645(2)
C1_14 C 0.42164(9) 0.99782(8) 0.8276(2)
C6_14 C 0.45499(8) 0.99316(8) 0.8470(2)
C7_14 C 0.47798(8) 0.97592(8) 0.79709(19)
C8_15 C 0.48007(8) 0.93310(8) 0.62897(19)
C9_16 C 0.50218(8) 0.91634(9) 0.5728(2)
H5_16 H 0.5252 0.9192 0.5893
H6_15 H 0.4997 0.9268 0.5221
C10_15 C 0.49484(9) 0.87991(10) 0.5656(3)
H7_15 H 0.4716 0.8771 0.5514
H8_16 H 0.5083 0.8707 0.5239
C11_16 C 0.50155(12) 0.86097(10) 0.6387(3)
H9_16 H 0.5246 0.8645 0.6536
H10_15 H 0.4876 0.8699 0.6799
C12_15 C 0.49535(14) 0.82452(12) 0.6320(5)
H11_16 H 0.5096 0.8154 0.5916
H12_15 H 0.4724 0.8209 0.6163
C13_16 C 0.50171(19) 0.80606(14) 0.7067(5)
H13_15 H 0.4883 0.8155 0.7475
H14_16 H 0.5249 0.8079 0.7202
H15_15 H 0.4960 0.7830 0.7000
C14_15 C 0.41296(10) 0.88589(10) 0.7293(3)
H16_15 H 0.4216 0.8834 0.6792
C15_14 C 0.38808(14) 0.85899(13) 0.8371(4)
H17_14 H 0.3995 0.8433 0.8700
H18_14 H 0.3650 0.8528 0.8329
H19_14 H 0.3898 0.8809 0.8593
C16_15 C 0.40232(16) 0.82772(11) 0.7254(4)
H20_15 H 0.3816 0.8164 0.7354
H21_15 H 0.4205 0.8143 0.7441
H22_15 H 0.4048 0.8313 0.6704
Mn2_16 Mn 0.541408(11) 0.961669(12) 0.73989(3)
O5_15 O 0.55053(5) 0.92013(5) 0.77784(14)
O6_8 O 0.61557(5) 0.93328(5) 0.59100(13)
N4_16 N 0.57485(6) 0.95597(6) 0.66145(14)
N5_8 N 0.57832(6) 0.98364(6) 0.61300(15)
N6_15 N 0.57649(7) 0.98751(8) 0.82165(17)
C17_15 C 0.57397(8) 0.89897(8) 0.7592(2)
C18_15 C 0.57637(9) 0.87062(9) 0.8034(2)
H23_15 H 0.5614 0.8672 0.8441
C19_15 C 0.60010(10) 0.84757(10) 0.7889(3)
H24_15 H 0.6012 0.8283 0.8191
C20_16 C 0.62222(9) 0.85228(9) 0.7310(3)
H25_16 H 0.6392 0.8368 0.7224
C21_16 C 0.61972(8) 0.87951(8) 0.6855(2)
H26_16 H 0.6346 0.8822 0.6444
C22_16 C 0.59599(8) 0.90328(8) 0.6979(2)
C23_16 C 0.59540(7) 0.93190(7) 0.64707(19)
C33_15 C 0.62708(10) 0.99455(14) 0.8836(3)
H40_15 H 0.6473 0.9851 0.8985
C34_15 C 0.60515(9) 0.97649(11) 0.8419(2)
H41_15 H 0.6111 0.9549 0.8270
O9_15 O 0.38213(5) 0.95208(5) 0.63472(14)
N7_15 N 0.39375(6) 0.99500(6) 0.55589(16)
N8_15 N 0.42185(6) 0.99944(6) 0.60246(16)
C36_15 C 0.33444(8) 0.98298(8) 0.4713(2)
C37_15 C 0.30467(9) 0.97509(9) 0.4363(2)
H44_15 H 0.2979 0.9870 0.3924
C38_15 C 0.28483(9) 0.95028(9) 0.4644(2)
H45_15 H 0.2647 0.9455 0.4397
C39_15 C 0.29402(8) 0.93249(8) 0.5276(2)
H46_15 H 0.2804 0.9155 0.5469
C40_15 C 0.32318(8) 0.93975(8) 0.5622(2)
H47_15 H 0.3296 0.9273 0.6055
C41_15 C 0.34395(7) 0.96479(8) 0.53633(19)
C42_15 C 0.37469(7) 0.97055(8) 0.5773(2)
Mn4_5 Mn 0.613020(12) 0.970480(11) 0.51862(3)
O1_15 O 0.76468(6) 0.65708(5) 0.01578(15)
O2_16 O 0.77572(6) 0.75803(5) 0.06698(12)
O4_15 O 0.83696(6) 0.66252(6) 0.00551(15)
N3_15 N 0.89113(8) 0.65236(9) 0.0145(2)
C1_15 C 0.75218(8) 0.67164(9) 0.0776(2)
C2_15 C 0.73238(9) 0.65240(10) 0.1265(3)
H1_15 H 0.7278 0.6303 0.1136
C3_15 C 0.71989(11) 0.66540(12) 0.1921(3)
H2_15 H 0.7069 0.6520 0.2244
C4_15 C 0.72566(11) 0.69764(12) 0.2129(3)
H3_16 H 0.7174 0.7061 0.2596
C5_15 C 0.74364(9) 0.71695(10) 0.1643(2)
H4_15 H 0.7471 0.7392 0.1772
C6_15 C 0.75684(8) 0.70499(8) 0.0970(2)
C7_15 C 0.77408(8) 0.72798(8) 0.04709(19)
C15_15 C 0.89101(13) 0.63808(14) 0.0871(4)
H17_15 H 0.9067 0.6495 0.1200
H18_15 H 0.8972 0.6150 0.0829
H19_15 H 0.8691 0.6398 0.1093
O5_16 O 0.82987(5) 0.80053(5) 0.02784(14)
N6_16 N 0.76249(8) 0.82649(7) 0.07165(17)
C17_16 C 0.85103(8) 0.82397(8) 0.0092(2)
C18_16 C 0.87938(9) 0.82637(9) 0.0534(2)
H23_16 H 0.8828 0.8114 0.0941
C19_16 C 0.90243(10) 0.85010(10) 0.0389(3)
H24_16 H 0.9217 0.8512 0.0691
H34_15 H 0.6625 0.8640 0.0088
H36_15 H 0.6530 0.9184 0.0124
C30_15 C 0.73190(11) 0.81867(11) 0.0922(2)
H38_15 H 0.7235 0.7979 0.0782
C31_15 C 0.71217(12) 0.83988(12) 0.1332(3)
H39_15 H 0.6906 0.8336 0.1468
C32_15 C 0.72382(15) 0.87004(11) 0.1541(3)
C33_16 C 0.75545(14) 0.87708(10) 0.1336(3)
H40_16 H 0.7649 0.8973 0.1485
C34_16 C 0.77351(11) 0.85515(9) 0.0919(2)
H41_16 H 0.7951 0.8611 0.0770
C35_15 C 0.70272(18) 0.89284(12) 0.2007(4)
H42_15 H 0.7110 0.9155 0.1947
H43_15 H 0.6801 0.8922 0.1805
N9_8 N 0.64550(6) 0.94230(7) 0.43469(17)
H53_15 H 0.6944 0.7473 0.0060
C47_15 C 0.6569(3) 0.7281(3) 0.0564(7)
H54_15 H 0.6359 0.7174 0.0426
H55_15 H 0.6695 0.7129 0.0891
C48_15 C 0.6498(3) 0.7623(3) 0.1026(7)
H56_15 H 0.6544 0.7810 0.0690
H57_15 H 0.6268 0.7630 0.1185
H58_15 H 0.6639 0.7635 0.1478
C49_16 C 0.66865(9) 0.92186(9) 0.4578(2)
H59_16 H 0.6726 0.9198 0.5111
C50_16 C 0.68729(10) 0.90345(10) 0.4083(2)
H60_16 H 0.7040 0.8895 0.4272
C51_16 C 0.68136(11) 0.90546(12) 0.3310(2)
C52_16 C 0.65741(11) 0.92704(11) 0.3069(2)
H61_16 H 0.6530 0.9297 0.2540
C53_16 C 0.64012(9) 0.94448(10) 0.3599(2)
H62_16 H 0.6235 0.9589 0.3425
C54_16 C 0.70212(15) 0.88524(17) 0.2754(3)
H63_16 H 0.7250 0.8859 0.2940
H64_16 H 0.6948 0.8622 0.2795
C2_16 C 0.59760(10) 0.98238(9) 0.1235(3)
H1_16 H 0.6197 0.9778 0.1364
C3_16 C 0.58460(12) 0.96989(11) 0.0579(3)
H2_16 H 0.5980 0.9569 0.0256
C4_16 C 0.55236(12) 0.97566(11) 0.0371(3)
C5_16 C 0.53305(10) 0.99364(9) 0.0857(2)
H4_16 H 0.5108 0.9971 0.0728
O7_16 O 0.46239(5) 0.99684(5) 0.31179(12)
C24_16 C 0.44181(8) 0.99344(8) 0.36777(19)
C25_16 C 0.44088(9) 0.96088(8) 0.4076(2)
H27_16 H 0.4634 0.9545 0.4225
H28_16 H 0.4276 0.9627 0.4547
C26_16 C 0.42625(12) 0.93455(9) 0.3559(3)
H29_16 H 0.4295 0.9129 0.3799
H30_16 H 0.4380 0.9346 0.3065
C27_16 C 0.39002(12) 0.93970(11) 0.3413(3)
H31_16 H 0.3785 0.9402 0.3909
H32_16 H 0.3870 0.9613 0.3166
C28_16 C 0.37422(15) 0.91328(13) 0.2906(4)
H33_16 H 0.3769 0.8917 0.3157
H34_16 H 0.3860 0.9125 0.2412
C29_16 C 0.33934(16) 0.91879(19) 0.2757(5)
H35_16 H 0.3362 0.9411 0.2564
H36_16 H 0.3316 0.9030 0.2376
H37_16 H 0.3270 0.9160 0.3232
C30_16 C 0.43133(11) 0.98190(11) 0.1578(2)
H38_16 H 0.4521 0.9735 0.1718
C31_16 C 0.41012(12) 0.96217(12) 0.1168(3)
H39_16 H 0.4164 0.9406 0.1032
C32_16 C 0.37996(11) 0.97382(15) 0.0959(3)
C35_16 C 0.35716(12) 0.95272(18) 0.0493(4)
H42_16 H 0.3345 0.9610 0.0553
H43_16 H 0.3578 0.9301 0.0695
O8_16 O 0.64847(5) 0.99261(5) 0.55899(13)
O10_16 O 0.57554(5) 0.95288(5) 0.46528(13)
C43_16 C 0.56423(8) 0.97261(8) 0.4138(2)
C44_16 C 0.53526(9) 0.96147(9) 0.3681(2)
H48_16 H 0.5255 0.9804 0.3413
H49_16 H 0.5185 0.9523 0.4029
C45_16 C 0.54554(12) 0.93472(13) 0.3078(3)
H50_16 H 0.5545 0.9153 0.3345
H51_16 H 0.5628 0.9436 0.2739
C46_16 C 0.51480(16) 0.9244(2) 0.2588(5)
H52_16 H 0.5001 0.9111 0.2913
H53_16 H 0.5027 0.9444 0.2440
C47_16 C 0.5219(3) 0.9069(3) 0.1936(7)
H54_16 H 0.5326 0.8859 0.2074
H55_16 H 0.5371 0.9195 0.1609
C48_16 C 0.4877(3) 0.8998(3) 0.1474(7)
H56_16 H 0.4690 0.9044 0.1810
H57_16 H 0.4870 0.8768 0.1315
H58_16 H 0.4865 0.9139 0.1022
C36_16 C 0.83444(8) 0.98298(8) 0.0287(2)
C37_16 C 0.80467(9) 0.97509(9) 0.0637(2)
H44_16 H 0.7979 0.9870 0.1076
C38_16 C 0.78483(9) 0.95028(9) 0.0356(2)
H45_16 H 0.7647 0.9455 0.0603
Mn1_16 Mn 0.924014(11) 0.958675(12) 0.81133(3)
O1_16 O 0.90708(5) 0.98532(6) 0.73422(15)
O3_16 O 0.94848(5) 0.93251(5) 0.88394(13)
O4_16 O 0.91252(6) 0.91304(6) 0.74449(15)
N1_16 N 0.96754(6) 0.96278(6) 0.76768(15)
N2_16 N 0.99260(6) 0.94775(6) 0.81187(15)
N3_16 N 0.90236(9) 0.85887(8) 0.7355(2)
C1_16 C 0.92164(9) 0.99782(8) 0.6724(2)
C6_16 C 0.95499(8) 0.99316(8) 0.6530(2)
C7_16 C 0.97798(8) 0.97592(8) 0.70291(19)
C8_16 C 0.98007(8) 0.93310(8) 0.87103(19)
H6_16 H 0.9997 0.9268 0.9779
C10_16 C 0.99484(9) 0.87991(10) 0.9344(3)
H7_16 H 0.9716 0.8771 0.9486
H10_16 H 0.9876 0.8699 0.8201
C12_16 C 0.99535(14) 0.82452(12) 0.8680(5)
H12_16 H 0.9724 0.8209 0.8837
H13_16 H 0.9883 0.8155 0.7525
H15_16 H 0.9960 0.7830 0.8000
C14_16 C 0.91296(10) 0.88589(10) 0.7707(3)
H16_16 H 0.9216 0.8834 0.8208
C15_16 C 0.88808(14) 0.85899(13) 0.6629(4)
H17_16 H 0.8995 0.8433 0.6300
H18_16 H 0.8650 0.8528 0.6671
H19_16 H 0.8898 0.8809 0.6407
C16_16 C 0.90232(16) 0.82772(11) 0.7746(4)
H20_16 H 0.8816 0.8164 0.7646
H21_16 H 0.9205 0.8143 0.7559
H22_16 H 0.9048 0.8313 0.8296
O9_16 O 0.88213(5) 0.95208(5) 0.86528(14)
N7_16 N 0.89375(6) 0.99500(6) 0.94411(16)
N8_16 N 0.92185(6) 0.99944(6) 0.89754(16)
C39_16 C 0.79402(8) 0.93249(8) 0.9724(2)
H46_16 H 0.7804 0.9155 0.9531
C40_16 C 0.82318(8) 0.93975(8) 0.9378(2)
H47_16 H 0.8296 0.9273 0.8945
C41_16 C 0.84395(7) 0.96479(8) 0.96367(19)
C42_16 C 0.87469(7) 0.97055(8) 0.9227(2)
loop_
_geom_bond_atom_site_label_1
_geom_bond_atom_site_label_2
_geom_bond_site_symmetry_1
_geom_bond_site_symmetry_2
Mn1 O1 1_555 1_555
O1 C1 1_555 1_555
O3 Mn1 1_555 1_555
O4 Mn1 1_555 1_555
N1 Mn1 1_555 1_555
N2 N1 1_555 1_555
N3 C14 1_555 1_555
C6 C1 1_555 1_555
C7 N1 1_555 1_555
C8 O3 1_555 1_555
H7 C10 1_555 1_555
H12 C12 1_555 1_555
C14 O4 1_555 1_555
H16 C14 1_555 1_555
C15 N3 1_555 1_555
H17 C15 1_555 1_555
H18 C15 1_555 1_555
H19 C15 1_555 1_555
C16 N3 1_555 1_555
H20 C16 1_555 1_555
H21 C16 1_555 1_555
H22 C16 1_555 1_555
O9 Mn1 1_555 1_555
N8 Mn1 1_555 1_555
H46 C39 1_555 1_555
C40 C39 1_555 1_555
H47 C40 1_555 1_555
C42 O9 1_555 1_555
N2 C8 1_555 1_555
C6 C7 1_555 1_555
N7 N8 1_555 1_555
N7 C42 1_555 1_555
C40 C41 1_555 1_555
C41 C42 1_555 1_555
C36 C37 1_555 1_555
C37 H44 1_555 1_555
C38 C37 1_555 1_555
H45 C38 1_555 1_555
C2 H1 1_555 1_555
C3 C2 1_555 1_555
H2 C3 1_555 1_555
C4 C3 1_555 1_555
H3 C4 1_555 1_555
C5 C4 1_555 1_555
H4 C5 1_555 1_555
C43 O10 1_555 1_555
C44 C43 1_555 1_555
H48 C44 1_555 1_555
H49 C44 1_555 1_555
C45 C44 1_555 1_555
H50 C45 1_555 1_555
H51 C45 1_555 1_555
C46 C45 1_555 1_555
H52 C46 1_555 1_555
H53 C46 1_555 1_555
C47 C46 1_555 1_555
H54 C47 1_555 1_555
H55 C47 1_555 1_555
O3_2 Mn1_2 1_555 1_555
N1_2 Mn1_2 1_555 1_555
N2_2 N1_2 1_555 1_555
C8_2 O3_2 1_555 1_555
C9 C8_2 1_555 1_555
H5 C9 1_555 1_555
H6_2 C9 1_555 1_555
C10_2 C9 1_555 1_555
H7_2 C10_2 1_555 1_555
H8 C10_2 1_555 1_555
C11 C10_2 1_555 1_555
H9 C11 1_555 1_555
H10_2 C11 1_555 1_555
C12_2 C11 1_555 1_555
H11 C12_2 1_555 1_555
H12_2 C12_2 1_555 1_555
C13 C12_2 1_555 1_555
H13_2 C13 1_555 1_555
H14 C13 1_555 1_555
H15_2 C13 1_555 1_555
H16_2 C14_2 1_555 1_555
H20_2 C16_2 1_555 1_555
H21_2 C16_2 1_555 1_555
H22_2 C16_2 1_555 1_555
O6 C23 1_555 1_555
O7 Mn2 1_555 1_555
N4 Mn2 1_555 1_555
N5 N4 1_555 1_555
H25 C20 1_555 1_555
C21 C20 1_555 1_555
H26 C21 1_555 1_555
C23 N4 1_555 1_555
C24 O7 1_555 1_555
C25 C24 1_555 1_555
H27 C25 1_555 1_555
H28 C25 1_555 1_555
C26 C25 1_555 1_555
H29 C26 1_555 1_555
H30 C26 1_555 1_555
C27 C26 1_555 1_555
H31 C27 1_555 1_555
H32 C27 1_555 1_555
C28 C27 1_555 1_555
H33 C28 1_555 1_555
C29 C28 1_555 1_555
H35 C29 1_555 1_555
H37 C29 1_555 1_555
Mn3 O8 1_555 1_555
O8 C36_2 1_555 1_555
O9_2 Mn1_2 1_555 1_555
O10_2 Mn3 1_555 1_555
N7_2 Mn3 1_555 1_555
N8_2 Mn1_2 1_555 1_555
C36_2 C37_2 1_555 1_555
C37_2 H44_2 1_555 1_555
C38_2 C37_2 1_555 1_555
H45_2 C38_2 1_555 1_555
C39_2 C38_2 1_555 1_555
H46_2 C39_2 1_555 1_555
C40_2 C39_2 1_555 1_555
H47_2 C40_2 1_555 1_555
C41_2 C36_2 1_555 1_555
C42_2 O9_2 1_555 1_555
C43_2 O10_2 1_555 1_555
C44_2 C43_2 1_555 1_555
H48_2 C44_2 1_555 1_555
H49_2 C44_2 1_555 1_555
C45_2 C44_2 1_555 1_555
H50_2 C45_2 1_555 1_555
H51_2 C45_2 1_555 1_555
C46_2 C45_2 1_555 1_555
H52_2 C46_2 1_555 1_555
O11 Mn3 1_555 1_555
N10 Mn3 1_555 1_555
Mn4 O6 1_555 1_555
N11_2 Mn3 1_555 1_555
N2_2 C8_2 1_555 1_555
N2_2 Mn2 1_555 1_555
N5 C24 1_555 1_555
N5 Mn4 1_555 1_555
C21 C22 1_555 1_555
C22 C23 1_555 1_555
N7_2 N8_2 1_555 1_555
N7_2 C42_2 1_555 1_555
N8_2 C43_2 1_555 1_555
C40_2 C41_2 1_555 1_555
C41_2 C42_2 1_555 1_555
H5_2 C9_2 1_555 1_555
H9_2 C11_2 1_555 1_555
H14_2 C13_2 1_555 1_555
Mn2_2 O2 1_555 1_555
O5 Mn2_2 1_555 1_555
O6_2 C23_2 1_555 1_555
O7_2 Mn2_2 1_555 1_555
N4_2 Mn2_2 1_555 1_555
N5_2 N4_2 1_555 1_555
N6 Mn2_2 1_555 1_555
C17 O5 1_555 1_555
C18 C17 1_555 1_555
H23 C18 1_555 1_555
C19 C18 1_555 1_555
H24 C19 1_555 1_555
C20_2 C19 1_555 1_555
H25_2 C20_2 1_555 1_555
C21_2 C20_2 1_555 1_555
H26_2 C21_2 1_555 1_555
C22_2 C17 1_555 1_555
C23_2 N4_2 1_555 1_555
C24_2 O7_2 1_555 1_555
C25_2 C24_2 1_555 1_555
H27_2 C25_2 1_555 1_555
H28_2 C25_2 1_555 1_555
C26_2 C25_2 1_555 1_555
H29_2 C26_2 1_555 1_555
H30_2 C26_2 1_555 1_555
C27_2 C26_2 1_555 1_555
H31_2 C27_2 1_555 1_555
H32_2 C27_2 1_555 1_555
C28_2 C27_2 1_555 1_555
H33_2 C28_2 1_555 1_555
H34 C28_2 1_555 1_555
C29_2 C28_2 1_555 1_555
H35_2 C29_2 1_555 1_555
H36 C29_2 1_555 1_555
H37_2 C29_2 1_555 1_555
C30 N6 1_555 1_555
H38 C30 1_555 1_555
C31 C30 1_555 1_555
H39 C31 1_555 1_555
C32 C31 1_555 1_555
C33 C32 1_555 1_555
H40 C33 1_555 1_555
C34 N6 1_555 1_555
H41 C34 1_555 1_555
C35 C32 1_555 1_555
H42 C35 1_555 1_555
H43 C35 1_555 1_555
N9 C49 1_555 1_555
H56 C48 1_555 1_555
H57 C48 1_555 1_555
H58 C48 1_555 1_555
C49 H59_2 1_555 1_555
C50 C49 1_555 1_555
H60 C50 1_555 1_555
C51 C50 1_555 1_555
C52 C51 1_555 1_555
H61 C52 1_555 1_555
C53 N9 1_555 1_555
H62 C53 1_555 1_555
C54 C35 1_555 1_555
H63 C54 1_555 1_555
H64 C54 1_555 1_555
Mn5 O6_2 1_555 1_555
Mn4 N9 1_555 1_555
N5_2 C24_2 1_555 1_555
N5_2 Mn5 1_555 1_555
C21_2 C22_2 1_555 1_555
C22_2 C23_2 1_555 1_555
C33 C34 1_555 1_555
C51 C54 1_555 1_555
C52 C53 1_555 1_555
Mn1_3 O1_2 1_555 1_555
O1_2 C1_2 1_555 1_555
O2_2 C7_2 1_555 1_555
O3_3 Mn1_3 1_555 1_555
O4_2 Mn1_3 1_555 1_555
N1_3 Mn1_3 1_555 1_555
N2_3 N1_3 1_555 1_555
N3_2 C14_3 1_555 1_555
C1_2 C2_2 1_555 1_555
C2_2 H1_2 1_555 1_555
C3_2 C2_2 1_555 1_555
H2_2 C3_2 1_555 1_555
C4_2 C3_2 1_555 1_555
H3_2 C4_2 1_555 1_555
C5_2 C4_2 1_555 1_555
H4_2 C5_2 1_555 1_555
C6_2 C1_2 1_555 1_555
C7_2 N1_3 1_555 1_555
C8_3 O3_3 1_555 1_555
C9_3 C8_3 1_555 1_555
H5_3 C9_3 1_555 1_555
H6_3 C9_3 1_555 1_555
C10_3 C9_3 1_555 1_555
H7_3 C10_3 1_555 1_555
H8_3 C10_3 1_555 1_555
C11_3 C10_3 1_555 1_555
H9_3 C11_3 1_555 1_555
H10_3 C11_3 1_555 1_555
C12_3 C11_3 1_555 1_555
H11_3 C12_3 1_555 1_555
H12_3 C12_3 1_555 1_555
C13_3 C12_3 1_555 1_555
H13_3 C13_3 1_555 1_555
H14_3 C13_3 1_555 1_555
H15_3 C13_3 1_555 1_555
C14_3 O4_2 1_555 1_555
H16_3 C14_3 1_555 1_555
C15_2 N3_2 1_555 1_555
H17_2 C15_2 1_555 1_555
H18_2 C15_2 1_555 1_555
H19_2 C15_2 1_555 1_555
C16_3 N3_2 1_555 1_555
H20_3 C16_3 1_555 1_555
H21_3 C16_3 1_555 1_555
H22_3 C16_3 1_555 1_555
Mn2_3 O2_2 1_555 1_555
O5_2 Mn2_3 1_555 1_555
O11 C23_3 1_555 1_555
O7_3 Mn2_3 1_555 1_555
N4_3 Mn2_3 1_555 1_555
N10 N4_3 1_555 1_555
N6_2 Mn2_3 1_555 1_555
C17_2 O5_2 1_555 1_555
C18_2 C17_2 1_555 1_555
H23_2 C18_2 1_555 1_555
C19_2 C18_2 1_555 1_555
H24_2 C19_2 1_555 1_555
C20_3 C19_2 1_555 1_555
H25_3 C20_3 1_555 1_555
C21_3 C20_3 1_555 1_555
H26_3 C21_3 1_555 1_555
C22_3 C17_2 1_555 1_555
C23_3 N4_3 1_555 1_555
C24_3 O7_3 1_555 1_555
C25_3 C24_3 1_555 1_555
H27_3 C25_3 1_555 1_555
H28_3 C25_3 1_555 1_555
C26_3 C25_3 1_555 1_555
H29_3 C26_3 1_555 1_555
H30_3 C26_3 1_555 1_555
C27_3 C26_3 1_555 1_555
H31_3 C27_3 1_555 1_555
H32_3 C27_3 1_555 1_555
C28_3 C27_3 1_555 1_555
H33_3 C28_3 1_555 1_555
H34_2 C28_3 1_555 1_555
C29_3 C28_3 1_555 1_555
H35_3 C29_3 1_555 1_555
H36_2 C29_3 1_555 1_555
H37_3 C29_3 1_555 1_555
C30_2 N6_2 1_555 1_555
H38_2 C30_2 1_555 1_555
C31_2 C30_2 1_555 1_555
H39_2 C31_2 1_555 1_555
C32_2 C31_2 1_555 1_555
C33_2 C32_2 1_555 1_555
H40_2 C33_2 1_555 1_555
C34_2 N6_2 1_555 1_555
H41_2 C34_2 1_555 1_555
C35_2 C32_2 1_555 1_555
H42_2 C35_2 1_555 1_555
H43_2 C35_2 1_555 1_555
Mn4 O8_2 1_555 1_555
O8_2 C36_3 1_555 1_555
O9_3 Mn1_3 1_555 1_555
O10_3 Mn4 1_555 1_555
N7_3 Mn4 1_555 1_555
N8_3 Mn1_3 1_555 1_555
N11 C49_2 1_555 1_555
C36_3 C37_3 1_555 1_555
C37_3 H44_3 1_555 1_555
C38_3 C37_3 1_555 1_555
H45_3 C38_3 1_555 1_555
C39_3 C38_3 1_555 1_555
H46_3 C39_3 1_555 1_555
C40_3 C39_3 1_555 1_555
H47_3 C40_3 1_555 1_555
C41_3 C36_3 1_555 1_555
C42_3 O9_3 1_555 1_555
C43_3 O10_3 1_555 1_555
C44_3 C43_3 1_555 1_555
H48_3 C44_3 1_555 1_555
H49_3 C44_3 1_555 1_555
C45_3 C44_3 1_555 1_555
H50_3 C45_3 1_555 1_555
H51_3 C45_3 1_555 1_555
C46_3 C45_3 1_555 1_555
H52_3 C46_3 1_555 1_555
H53_2 C46_3 1_555 1_555
C47_2 C46_3 1_555 1_555
H54_2 C47_2 1_555 1_555
H55_2 C47_2 1_555 1_555
C48_2 C47_2 1_555 1_555
H56_2 C48_2 1_555 1_555
H57_2 C48_2 1_555 1_555
H58_2 C48_2 1_555 1_555
C50_2 C49_2 1_555 1_555
H60_2 C50_2 1_555 1_555
C51_2 C50_2 1_555 1_555
C52_2 C51_2 1_555 1_555
H61_2 C52_2 1_555 1_555
C53_2 N11 1_555 1_555
H62_2 C53_2 1_555 1_555
C54_2 C35_2 1_555 1_555
H63_2 C54_2 1_555 1_555
H64_2 C54_2 1_555 1_555
N2_3 C8_3 1_555 1_555
N2_3 Mn2_3 1_555 1_555
C5_2 C6_2 1_555 1_555
C6_2 C7_2 1_555 1_555
N10 C24_3 1_555 1_555
C21_3 C22_3 1_555 1_555
C22_3 C23_3 1_555 1_555
C33_2 C34_2 1_555 1_555
N7_3 N8_3 1_555 1_555
N7_3 C42_3 1_555 1_555
N8_3 C43_3 1_555 1_555
C40_3 C41_3 1_555 1_555
C41_3 C42_3 1_555 1_555
C51_2 C54_2 1_555 1_555
C52_2 C53_2 1_555 1_555
N11_2 C49_3 1_555 1_555
C49_3 H59_3 1_555 1_555
C50_3 C49_3 1_555 1_555
H60_3 C50_3 1_555 1_555
C51_3 C50_3 1_555 1_555
C52_3 C51_3 1_555 1_555
H61_3 C52_3 1_555 1_555
C53_3 N11_2 1_555 1_555
H62_3 C53_3 1_555 1_555
H63_3 C54_3 1_555 1_555
H64_3 C54_3 1_555 1_555
C51_3 C54_3 1_555 1_555
C52_3 C53_3 1_555 1_555
Mn5 O8_3 1_555 1_555
O8_3 C36_4 1_555 1_555
C36_4 C37_4 1_555 1_555
C37_4 H44_4 1_555 1_555
C38_4 C37_4 1_555 1_555
H45_4 C38_4 1_555 1_555
Mn3_2 O8_4 1_555 1_555
O11_2 Mn3_2 1_555 1_555
N10_2 Mn3_2 1_555 1_555
H5_4 C9_4 1_555 1_555
H9_4 C11_4 1_555 1_555
H14_4 C13_4 1_555 1_555
Mn2_4 O2_3 1_555 1_555
O5_3 Mn2_4 1_555 1_555
O11_2 C23_4 1_555 1_555
N4_4 Mn2_4 1_555 1_555
N10_2 N4_4 1_555 1_555
N6_3 Mn2_4 1_555 1_555
C17_3 O5_3 1_555 1_555
C18_3 C17_3 1_555 1_555
H23_3 C18_3 1_555 1_555
C19_3 C18_3 1_555 1_555
H24_3 C19_3 1_555 1_555
C20_4 C19_3 1_555 1_555
H25_4 C20_4 1_555 1_555
C21_4 C20_4 1_555 1_555
H26_4 C21_4 1_555 1_555
C22_4 C17_3 1_555 1_555
C23_4 N4_4 1_555 1_555
H40_3 C33_3 1_555 1_555
C34_3 N6_3 1_555 1_555
H41_3 C34_3 1_555 1_555
C21_4 C22_4 1_555 1_555
C22_4 C23_4 1_555 1_555
C33_3 C34_3 1_555 1_555
H5_5 C9_5 1_555 1_555
H9_5 C11_5 1_555 1_555
H14_5 C13_5 1_555 1_555
Mn2_5 O2_4 1_555 1_555
O5_4 Mn2_5 1_555 1_555
O6_3 C23_5 1_555 1_555
N4_5 Mn2_5 1_555 1_555
N5_3 N4_5 1_555 1_555
N6_4 Mn2_5 1_555 1_555
C17_4 O5_4 1_555 1_555
C18_4 C17_4 1_555 1_555
H23_4 C18_4 1_555 1_555
C19_4 C18_4 1_555 1_555
H24_4 C19_4 1_555 1_555
C20_5 C19_4 1_555 1_555
H25_5 C20_5 1_555 1_555
C21_5 C20_5 1_555 1_555
H26_5 C21_5 1_555 1_555
C22_5 C17_4 1_555 1_555
C23_5 N4_5 1_555 1_555
H40_4 C33_4 1_555 1_555
C34_4 N6_4 1_555 1_555
H41_4 C34_4 1_555 1_555
Mn4_2 O6_3 1_555 1_555
N5_3 Mn4_2 1_555 1_555
C21_5 C22_5 1_555 1_555
C22_5 C23_5 1_555 1_555
C33_4 C34_4 1_555 1_555
Mn4_2 O8_5 1_555 1_555
C24_4 O7_4 1_555 1_555
C25_4 C24_4 1_555 1_555
H27_4 C25_4 1_555 1_555
H28_4 C25_4 1_555 1_555
C26_4 C25_4 1_555 1_555
H29_4 C26_4 1_555 1_555
H30_4 C26_4 1_555 1_555
C27_4 C26_4 1_555 1_555
H31_4 C27_4 1_555 1_555
H32_4 C27_4 1_555 1_555
C28_4 C27_4 1_555 1_555
H33_4 C28_4 1_555 1_555
H34_3 C28_4 1_555 1_555
C29_4 C28_4 1_555 1_555
H35_4 C29_4 1_555 1_555
H36_3 C29_4 1_555 1_555
H37_4 C29_4 1_555 1_555
H38_3 C30_3 1_555 1_555
C31_3 C30_3 1_555 1_555
H39_3 C31_3 1_555 1_555
C32_3 C31_3 1_555 1_555
C35_3 C32_3 1_555 1_555
H42_3 C35_3 1_555 1_555
H43_3 C35_3 1_555 1_555
N9_2 C49_4 1_555 1_555
H56_3 C48_3 1_555 1_555
H57_3 C48_3 1_555 1_555
H58_3 C48_3 1_555 1_555
C49_4 H59_6 1_555 1_555
C50_4 C49_4 1_555 1_555
H60_4 C50_4 1_555 1_555
C51_4 C50_4 1_555 1_555
C52_4 C51_4 1_555 1_555
H61_4 C52_4 1_555 1_555
C53_4 N9_2 1_555 1_555
H62_4 C53_4 1_555 1_555
C54_4 C35_3 1_555 1_555
H63_4 C54_4 1_555 1_555
H64_4 C54_4 1_555 1_555
Mn5_2 N9_2 1_555 1_555
C51_4 C54_4 1_555 1_555
C52_4 C53_4 1_555 1_555
O3_4 Mn1_4 1_555 1_555
N1_4 Mn1_4 1_555 1_555
N2_4 N1_4 1_555 1_555
C8_4 O3_4 1_555 1_555
C9_6 C8_4 1_555 1_555
H5_6 C9_6 1_555 1_555
H6_4 C9_6 1_555 1_555
C10_4 C9_6 1_555 1_555
H7_4 C10_4 1_555 1_555
H8_6 C10_4 1_555 1_555
C11_6 C10_4 1_555 1_555
H9_6 C11_6 1_555 1_555
H10_4 C11_6 1_555 1_555
C12_4 C11_6 1_555 1_555
H11_6 C12_4 1_555 1_555
H12_4 C12_4 1_555 1_555
C13_6 C12_4 1_555 1_555
H13_4 C13_6 1_555 1_555
H14_6 C13_6 1_555 1_555
H15_4 C13_6 1_555 1_555
H16_4 C14_4 1_555 1_555
H20_4 C16_4 1_555 1_555
H21_4 C16_4 1_555 1_555
H22_4 C16_4 1_555 1_555
O6_4 C23_6 1_555 1_555
O7_5 Mn2_6 1_555 1_555
N4_6 Mn2_6 1_555 1_555
N5_4 N4_6 1_555 1_555
H25_6 C20_6 1_555 1_555
C21_6 C20_6 1_555 1_555
H26_6 C21_6 1_555 1_555
C23_6 N4_6 1_555 1_555
C24_5 O7_5 1_555 1_555
C25_5 C24_5 1_555 1_555
H27_5 C25_5 1_555 1_555
H28_5 C25_5 1_555 1_555
C26_5 C25_5 1_555 1_555
H29_5 C26_5 1_555 1_555
H30_5 C26_5 1_555 1_555
C27_5 C26_5 1_555 1_555
H31_5 C27_5 1_555 1_555
H32_5 C27_5 1_555 1_555
C28_5 C27_5 1_555 1_555
H33_5 C28_5 1_555 1_555
C29_5 C28_5 1_555 1_555
H35_5 C29_5 1_555 1_555
H37_5 C29_5 1_555 1_555
Mn3_3 O8_6 1_555 1_555
O8_6 C36_5 1_555 1_555
O9_4 Mn1_4 1_555 1_555
O10_4 Mn3_3 1_555 1_555
N7_4 Mn3_3 1_555 1_555
N8_4 Mn1_4 1_555 1_555
C36_5 C37_5 1_555 1_555
C37_5 H44_5 1_555 1_555
C38_5 C37_5 1_555 1_555
H45_5 C38_5 1_555 1_555
C39_4 C38_5 1_555 1_555
H46_4 C39_4 1_555 1_555
C40_4 C39_4 1_555 1_555
H47_4 C40_4 1_555 1_555
C41_4 C36_5 1_555 1_555
C42_4 O9_4 1_555 1_555
C43_4 O10_4 1_555 1_555
C44_4 C43_4 1_555 1_555
H48_4 C44_4 1_555 1_555
H49_4 C44_4 1_555 1_555
C45_4 C44_4 1_555 1_555
H50_4 C45_4 1_555 1_555
H51_4 C45_4 1_555 1_555
C46_4 C45_4 1_555 1_555
H52_4 C46_4 1_555 1_555
O11_3 Mn3_3 1_555 1_555
N10_3 Mn3_3 1_555 1_555
Mn5_2 O6_4 1_555 1_555
N11_3 Mn3_3 1_555 1_555
N2_4 C8_4 1_555 1_555
N2_4 Mn2_6 1_555 1_555
N5_4 C24_5 1_555 1_555
N5_4 Mn5_2 1_555 1_555
C21_6 C22_6 1_555 1_555
C22_6 C23_6 1_555 1_555
N7_4 N8_4 1_555 1_555
N7_4 C42_4 1_555 1_555
N8_4 C43_4 1_555 1_555
C40_4 C41_4 1_555 1_555
C41_4 C42_4 1_555 1_555
Mn1_5 O1_3 1_555 1_555
O1_3 C1_3 1_555 1_555
O3_5 Mn1_5 1_555 1_555
O4_3 Mn1_5 1_555 1_555
N1_5 Mn1_5 1_555 1_555
N2_5 N1_5 1_555 1_555
N3_3 C14_5 1_555 1_555
C1_3 C2_3 1_555 1_555
C2_3 H1_3 1_555 1_555
C3_3 C2_3 1_555 1_555
H2_3 C3_3 1_555 1_555
C4_3 C3_3 1_555 1_555
H3_4 C4_3 1_555 1_555
C5_3 C4_3 1_555 1_555
H4_3 C5_3 1_555 1_555
C6_3 C1_3 1_555 1_555
C7_3 N1_5 1_555 1_555
C8_5 O3_5 1_555 1_555
H7_5 C10_5 1_555 1_555
H12_5 C12_5 1_555 1_555
C14_5 O4_3 1_555 1_555
H16_5 C14_5 1_555 1_555
C15_3 N3_3 1_555 1_555
H17_3 C15_3 1_555 1_555
H18_3 C15_3 1_555 1_555
H19_3 C15_3 1_555 1_555
C16_5 N3_3 1_555 1_555
H20_5 C16_5 1_555 1_555
H21_5 C16_5 1_555 1_555
H22_5 C16_5 1_555 1_555
O9_5 Mn1_5 1_555 1_555
N8_5 Mn1_5 1_555 1_555
H46_5 C39_5 1_555 1_555
C40_5 C39_5 1_555 1_555
H47_5 C40_5 1_555 1_555
C42_5 O9_5 1_555 1_555
C43_5 O10_5 1_555 1_555
C44_5 C43_5 1_555 1_555
H48_5 C44_5 1_555 1_555
H49_5 C44_5 1_555 1_555
C45_5 C44_5 1_555 1_555
H50_5 C45_5 1_555 1_555
H51_5 C45_5 1_555 1_555
C46_5 C45_5 1_555 1_555
H52_5 C46_5 1_555 1_555
H53_3 C46_5 1_555 1_555
C47_3 C46_5 1_555 1_555
H54_3 C47_3 1_555 1_555
H55_3 C47_3 1_555 1_555
N2_5 C8_5 1_555 1_555
C5_3 C6_3 1_555 1_555
C6_3 C7_3 1_555 1_555
N7_5 N8_5 1_555 1_555
N7_5 C42_5 1_555 1_555
N8_5 C43_5 1_555 1_555
C40_5 C41_5 1_555 1_555
C41_5 C42_5 1_555 1_555
N11_3 C49_5 1_555 1_555
C49_5 H59_7 1_555 1_555
C50_5 C49_5 1_555 1_555
H60_5 C50_5 1_555 1_555
C51_5 C50_5 1_555 1_555
C52_5 C51_5 1_555 1_555
H61_5 C52_5 1_555 1_555
C53_5 N11_3 1_555 1_555
H62_5 C53_5 1_555 1_555
H63_5 C54_5 1_555 1_555
H64_5 C54_5 1_555 1_555
C51_5 C54_5 1_555 1_555
C52_5 C53_5 1_555 1_555
Mn1_6 O1_4 1_555 1_555
O1_4 C1_4 1_555 1_555
O2_5 C7_4 1_555 1_555
O3_6 Mn1_6 1_555 1_555
O4_4 Mn1_6 1_555 1_555
N1_6 Mn1_6 1_555 1_555
N2_6 N1_6 1_555 1_555
N3_4 C14_6 1_555 1_555
C1_4 C2_4 1_555 1_555
C2_4 H1_4 1_555 1_555
C3_4 C2_4 1_555 1_555
H2_4 C3_4 1_555 1_555
C4_4 C3_4 1_555 1_555
H3_6 C4_4 1_555 1_555
C5_4 C4_4 1_555 1_555
H4_4 C5_4 1_555 1_555
C6_4 C1_4 1_555 1_555
C7_4 N1_6 1_555 1_555
C8_6 O3_6 1_555 1_555
C9_7 C8_6 1_555 1_555
H5_7 C9_7 1_555 1_555
H6_6 C9_7 1_555 1_555
C10_6 C9_7 1_555 1_555
H7_6 C10_6 1_555 1_555
H8_7 C10_6 1_555 1_555
C11_7 C10_6 1_555 1_555
H9_7 C11_7 1_555 1_555
H10_6 C11_7 1_555 1_555
C12_6 C11_7 1_555 1_555
H11_7 C12_6 1_555 1_555
H12_6 C12_6 1_555 1_555
C13_7 C12_6 1_555 1_555
H13_6 C13_7 1_555 1_555
H14_7 C13_7 1_555 1_555
H15_6 C13_7 1_555 1_555
C14_6 O4_4 1_555 1_555
H16_6 C14_6 1_555 1_555
C15_4 N3_4 1_555 1_555
H17_4 C15_4 1_555 1_555
H18_4 C15_4 1_555 1_555
H19_4 C15_4 1_555 1_555
C16_6 N3_4 1_555 1_555
H20_6 C16_6 1_555 1_555
H21_6 C16_6 1_555 1_555
H22_6 C16_6 1_555 1_555
Mn2_7 O2_5 1_555 1_555
O5_5 Mn2_7 1_555 1_555
O11_3 C23_7 1_555 1_555
O7_6 Mn2_7 1_555 1_555
N4_7 Mn2_7 1_555 1_555
N10_3 N4_7 1_555 1_555
N6_5 Mn2_7 1_555 1_555
C17_5 O5_5 1_555 1_555
C18_5 C17_5 1_555 1_555
H23_5 C18_5 1_555 1_555
C19_5 C18_5 1_555 1_555
H24_5 C19_5 1_555 1_555
C20_7 C19_5 1_555 1_555
H25_7 C20_7 1_555 1_555
C21_7 C20_7 1_555 1_555
H26_7 C21_7 1_555 1_555
C22_7 C17_5 1_555 1_555
C23_7 N4_7 1_555 1_555
C24_6 O7_6 1_555 1_555
C25_6 C24_6 1_555 1_555
H27_6 C25_6 1_555 1_555
H28_6 C25_6 1_555 1_555
C26_6 C25_6 1_555 1_555
H29_6 C26_6 1_555 1_555
H30_6 C26_6 1_555 1_555
C27_6 C26_6 1_555 1_555
H31_6 C27_6 1_555 1_555
H32_6 C27_6 1_555 1_555
C28_6 C27_6 1_555 1_555
H33_6 C28_6 1_555 1_555
H34_4 C28_6 1_555 1_555
C29_6 C28_6 1_555 1_555
H35_6 C29_6 1_555 1_555
H36_4 C29_6 1_555 1_555
H37_6 C29_6 1_555 1_555
C30_4 N6_5 1_555 1_555
H38_4 C30_4 1_555 1_555
C31_4 C30_4 1_555 1_555
H39_4 C31_4 1_555 1_555
C32_4 C31_4 1_555 1_555
C33_5 C32_4 1_555 1_555
H40_5 C33_5 1_555 1_555
C34_5 N6_5 1_555 1_555
H41_5 C34_5 1_555 1_555
C35_4 C32_4 1_555 1_555
H42_4 C35_4 1_555 1_555
H43_4 C35_4 1_555 1_555
Mn5_2 O8_7 1_555 1_555
O8_7 C36_6 1_555 1_555
O9_6 Mn1_6 1_555 1_555
O10_6 Mn5_2 1_555 1_555
N7_6 Mn5_2 1_555 1_555
N8_6 Mn1_6 1_555 1_555
N11_4 C49_6 1_555 1_555
C36_6 C37_6 1_555 1_555
C37_6 H44_6 1_555 1_555
C38_6 C37_6 1_555 1_555
H45_6 C38_6 1_555 1_555
C39_6 C38_6 1_555 1_555
H46_6 C39_6 1_555 1_555
C40_6 C39_6 1_555 1_555
H47_6 C40_6 1_555 1_555
C41_6 C36_6 1_555 1_555
C42_6 O9_6 1_555 1_555
C43_6 O10_6 1_555 1_555
C44_6 C43_6 1_555 1_555
H48_6 C44_6 1_555 1_555
H49_6 C44_6 1_555 1_555
C45_6 C44_6 1_555 1_555
H50_6 C45_6 1_555 1_555
H51_6 C45_6 1_555 1_555
C46_6 C45_6 1_555 1_555
H52_6 C46_6 1_555 1_555
H53_4 C46_6 1_555 1_555
C47_4 C46_6 1_555 1_555
H54_4 C47_4 1_555 1_555
H55_4 C47_4 1_555 1_555
C48_4 C47_4 1_555 1_555
H56_4 C48_4 1_555 1_555
H57_4 C48_4 1_555 1_555
H58_4 C48_4 1_555 1_555
C50_6 C49_6 1_555 1_555
H60_6 C50_6 1_555 1_555
C51_6 C50_6 1_555 1_555
C52_6 C51_6 1_555 1_555
H61_6 C52_6 1_555 1_555
C53_6 N11_4 1_555 1_555
H62_6 C53_6 1_555 1_555
C54_6 C35_4 1_555 1_555
H63_6 C54_6 1_555 1_555
H64_6 C54_6 1_555 1_555
N2_6 C8_6 1_555 1_555
N2_6 Mn2_7 1_555 1_555
C5_4 C6_4 1_555 1_555
C6_4 C7_4 1_555 1_555
N10_3 C24_6 1_555 1_555
C21_7 C22_7 1_555 1_555
C22_7 C23_7 1_555 1_555
C33_5 C34_5 1_555 1_555
N7_6 N8_6 1_555 1_555
N7_6 C42_6 1_555 1_555
N8_6 C43_6 1_555 1_555
C40_6 C41_6 1_555 1_555
C41_6 C42_6 1_555 1_555
C51_6 C54_6 1_555 1_555
C52_6 C53_6 1_555 1_555
Mn1_7 O1_5 1_555 1_555
O1_5 C1_5 1_555 1_555
O2_6 C7_5 1_555 1_555
O3_7 Mn1_7 1_555 1_555
O4_5 Mn1_7 1_555 1_555
N1_7 Mn1_7 1_555 1_555
N2_7 N1_7 1_555 1_555
N3_5 C14_7 1_555 1_555
C1_5 C2_5 1_555 1_555
C2_5 H1_5 1_555 1_555
C3_5 C2_5 1_555 1_555
H2_5 C3_5 1_555 1_555
C4_5 C3_5 1_555 1_555
H3_7 C4_5 1_555 1_555
C5_5 C4_5 1_555 1_555
H4_5 C5_5 1_555 1_555
C6_5 C1_5 1_555 1_555
C7_5 N1_7 1_555 1_555
C8_7 O3_7 1_555 1_555
C9_8 C8_7 1_555 1_555
H5_8 C9_8 1_555 1_555
H6_7 C9_8 1_555 1_555
C10_7 C9_8 1_555 1_555
H7_7 C10_7 1_555 1_555
H8_8 C10_7 1_555 1_555
C11_8 C10_7 1_555 1_555
H9_8 C11_8 1_555 1_555
H10_7 C11_8 1_555 1_555
C12_7 C11_8 1_555 1_555
H11_8 C12_7 1_555 1_555
H12_7 C12_7 1_555 1_555
C13_8 C12_7 1_555 1_555
H13_7 C13_8 1_555 1_555
H14_8 C13_8 1_555 1_555
H15_7 C13_8 1_555 1_555
C14_7 O4_5 1_555 1_555
H16_7 C14_7 1_555 1_555
C15_5 N3_5 1_555 1_555
H17_5 C15_5 1_555 1_555
H18_5 C15_5 1_555 1_555
H19_5 C15_5 1_555 1_555
C16_7 N3_5 1_555 1_555
H20_7 C16_7 1_555 1_555
H21_7 C16_7 1_555 1_555
H22_7 C16_7 1_555 1_555
Mn2_8 O2_6 1_555 1_555
O5_6 Mn2_8 1_555 1_555
O6_5 C23_8 1_555 1_555
O7_7 Mn2_8 1_555 1_555
N4_8 Mn2_8 1_555 1_555
N5_5 N4_8 1_555 1_555
N6_6 Mn2_8 1_555 1_555
C17_6 O5_6 1_555 1_555
C18_6 C17_6 1_555 1_555
H23_6 C18_6 1_555 1_555
C19_6 C18_6 1_555 1_555
H24_6 C19_6 1_555 1_555
C20_8 C19_6 1_555 1_555
H25_8 C20_8 1_555 1_555
C21_8 C20_8 1_555 1_555
H26_8 C21_8 1_555 1_555
C22_8 C17_6 1_555 1_555
C23_8 N4_8 1_555 1_555
C24_7 O7_7 1_555 1_555
C25_7 C24_7 1_555 1_555
H27_7 C25_7 1_555 1_555
H28_7 C25_7 1_555 1_555
C26_7 C25_7 1_555 1_555
H29_7 C26_7 1_555 1_555
H30_7 C26_7 1_555 1_555
C27_7 C26_7 1_555 1_555
H31_7 C27_7 1_555 1_555
H32_7 C27_7 1_555 1_555
C28_7 C27_7 1_555 1_555
H33_7 C28_7 1_555 1_555
H34_5 C28_7 1_555 1_555
C29_7 C28_7 1_555 1_555
H35_7 C29_7 1_555 1_555
H36_5 C29_7 1_555 1_555
H37_7 C29_7 1_555 1_555
C30_5 N6_6 1_555 1_555
H38_5 C30_5 1_555 1_555
C31_5 C30_5 1_555 1_555
H39_5 C31_5 1_555 1_555
C32_5 C31_5 1_555 1_555
C33_6 C32_5 1_555 1_555
H40_6 C33_6 1_555 1_555
C34_6 N6_6 1_555 1_555
H41_6 C34_6 1_555 1_555
C35_5 C32_5 1_555 1_555
H42_5 C35_5 1_555 1_555
H43_5 C35_5 1_555 1_555
Mn3_4 O8_8 1_555 1_555
O8_8 C36_7 1_555 1_555
O9_7 Mn1_7 1_555 1_555
O10_7 Mn3_4 1_555 1_555
N7_7 Mn3_4 1_555 1_555
N8_7 Mn1_7 1_555 1_555
N9_3 C49_7 1_555 1_555
C36_7 C37_7 1_555 1_555
C37_7 H44_7 1_555 1_555
C38_7 C37_7 1_555 1_555
H45_7 C38_7 1_555 1_555
C39_7 C38_7 1_555 1_555
H46_7 C39_7 1_555 1_555
C40_7 C39_7 1_555 1_555
H47_7 C40_7 1_555 1_555
C41_7 C36_7 1_555 1_555
C42_7 O9_7 1_555 1_555
C43_7 O10_7 1_555 1_555
C44_7 C43_7 1_555 1_555
H48_7 C44_7 1_555 1_555
H49_7 C44_7 1_555 1_555
C45_7 C44_7 1_555 1_555
H50_7 C45_7 1_555 1_555
H51_7 C45_7 1_555 1_555
C46_7 C45_7 1_555 1_555
H52_7 C46_7 1_555 1_555
H53_5 C46_7 1_555 1_555
C47_5 C46_7 1_555 1_555
H54_5 C47_5 1_555 1_555
H55_5 C47_5 1_555 1_555
C48_5 C47_5 1_555 1_555
H56_5 C48_5 1_555 1_555
H57_5 C48_5 1_555 1_555
H58_5 C48_5 1_555 1_555
C50_7 C49_7 1_555 1_555
H60_7 C50_7 1_555 1_555
C51_7 C50_7 1_555 1_555
C52_7 C51_7 1_555 1_555
H61_7 C52_7 1_555 1_555
C53_7 N9_3 1_555 1_555
H62_7 C53_7 1_555 1_555
C54_7 C35_5 1_555 1_555
H63_7 C54_7 1_555 1_555
H64_7 C54_7 1_555 1_555
O11_4 Mn3_4 1_555 1_555
N10_4 Mn3_4 1_555 1_555
Mn4_3 O6_5 1_555 1_555
N11_5 Mn3_4 1_555 1_555
N2_7 C8_7 1_555 1_555
N2_7 Mn2_8 1_555 1_555
C5_5 C6_5 1_555 1_555
C6_5 C7_5 1_555 1_555
N5_5 C24_7 1_555 1_555
N5_5 Mn4_3 1_555 1_555
C21_8 C22_8 1_555 1_555
C22_8 C23_8 1_555 1_555
C33_6 C34_6 1_555 1_555
N7_7 N8_7 1_555 1_555
N7_7 C42_7 1_555 1_555
N8_7 C43_7 1_555 1_555
C40_7 C41_7 1_555 1_555
C41_7 C42_7 1_555 1_555
C51_7 C54_7 1_555 1_555
C52_7 C53_7 1_555 1_555
N9_4 C49_8 1_555 1_555
C49_8 H59_8 1_555 1_555
C50_8 C49_8 1_555 1_555
H60_8 C50_8 1_555 1_555
C51_8 C50_8 1_555 1_555
C52_8 C51_8 1_555 1_555
H61_8 C52_8 1_555 1_555
C53_8 N9_4 1_555 1_555
H62_8 C53_8 1_555 1_555
H63_8 C54_8 1_555 1_555
H64_8 C54_8 1_555 1_555
Mn4_3 N9_4 1_555 1_555
C51_8 C54_8 1_555 1_555
C52_8 C53_8 1_555 1_555
Mn3_5 O8_9 1_555 1_555
O8_9 C36_8 1_555 1_555
C36_8 C37_8 1_555 1_555
C37_8 H44_8 1_555 1_555
C38_8 C37_8 1_555 1_555
H45_8 C38_8 1_555 1_555
O11_5 Mn3_5 1_555 1_555
N10_5 Mn3_5 1_555 1_555
C2_6 H1_6 1_555 1_555
C3_6 C2_6 1_555 1_555
H2_6 C3_6 1_555 1_555
C4_6 C3_6 1_555 1_555
H3_9 C4_6 1_555 1_555
C5_6 C4_6 1_555 1_555
H4_6 C5_6 1_555 1_555
C43_8 O10_8 1_555 1_555
C44_8 C43_8 1_555 1_555
H48_8 C44_8 1_555 1_555
H49_8 C44_8 1_555 1_555
C45_8 C44_8 1_555 1_555
H50_8 C45_8 1_555 1_555
H51_8 C45_8 1_555 1_555
C46_8 C45_8 1_555 1_555
H52_8 C46_8 1_555 1_555
H53_6 C46_8 1_555 1_555
C47_6 C46_8 1_555 1_555
H54_6 C47_6 1_555 1_555
H55_6 C47_6 1_555 1_555
O3_8 Mn1_8 1_555 1_555
N1_8 Mn1_8 1_555 1_555
N2_8 N1_8 1_555 1_555
C8_8 O3_8 1_555 1_555
C9_9 C8_8 1_555 1_555
H5_9 C9_9 1_555 1_555
H6_8 C9_9 1_555 1_555
C10_8 C9_9 1_555 1_555
H7_8 C10_8 1_555 1_555
H8_9 C10_8 1_555 1_555
C11_9 C10_8 1_555 1_555
H9_9 C11_9 1_555 1_555
H10_8 C11_9 1_555 1_555
C12_8 C11_9 1_555 1_555
H11_9 C12_8 1_555 1_555
H12_8 C12_8 1_555 1_555
C13_9 C12_8 1_555 1_555
H13_8 C13_9 1_555 1_555
H14_9 C13_9 1_555 1_555
H15_8 C13_9 1_555 1_555
H16_8 C14_8 1_555 1_555
H20_8 C16_8 1_555 1_555
H21_8 C16_8 1_555 1_555
H22_8 C16_8 1_555 1_555
O11_4 C23_9 1_555 1_555
O7_8 Mn2_9 1_555 1_555
N4_9 Mn2_9 1_555 1_555
N10_4 N4_9 1_555 1_555
H25_9 C20_9 1_555 1_555
C21_9 C20_9 1_555 1_555
H26_9 C21_9 1_555 1_555
C23_9 N4_9 1_555 1_555
C24_8 O7_8 1_555 1_555
C25_8 C24_8 1_555 1_555
H27_8 C25_8 1_555 1_555
H28_8 C25_8 1_555 1_555
C26_8 C25_8 1_555 1_555
H29_8 C26_8 1_555 1_555
H30_8 C26_8 1_555 1_555
C27_8 C26_8 1_555 1_555
H31_8 C27_8 1_555 1_555
H32_8 C27_8 1_555 1_555
C28_8 C27_8 1_555 1_555
H33_8 C28_8 1_555 1_555
C29_8 C28_8 1_555 1_555
H35_8 C29_8 1_555 1_555
H37_8 C29_8 1_555 1_555
Mn4_3 O8_10 1_555 1_555
O8_10 C36_9 1_555 1_555
O9_8 Mn1_8 1_555 1_555
O10_9 Mn4_3 1_555 1_555
N7_8 Mn4_3 1_555 1_555
N8_8 Mn1_8 1_555 1_555
C36_9 C37_9 1_555 1_555
C37_9 H44_9 1_555 1_555
C38_9 C37_9 1_555 1_555
H45_9 C38_9 1_555 1_555
C39_8 C38_9 1_555 1_555
H46_8 C39_8 1_555 1_555
C40_8 C39_8 1_555 1_555
H47_8 C40_8 1_555 1_555
C41_8 C36_9 1_555 1_555
C42_8 O9_8 1_555 1_555
C43_9 O10_9 1_555 1_555
C44_9 C43_9 1_555 1_555
H48_9 C44_9 1_555 1_555
H49_9 C44_9 1_555 1_555
C45_9 C44_9 1_555 1_555
H50_9 C45_9 1_555 1_555
H51_9 C45_9 1_555 1_555
C46_9 C45_9 1_555 1_555
H52_9 C46_9 1_555 1_555
N2_8 C8_8 1_555 1_555
N2_8 Mn2_9 1_555 1_555
N10_4 C24_8 1_555 1_555
C21_9 C22_9 1_555 1_555
C22_9 C23_9 1_555 1_555
N7_8 N8_8 1_555 1_555
N7_8 C42_8 1_555 1_555
N8_8 C43_9 1_555 1_555
C40_8 C41_8 1_555 1_555
C41_8 C42_8 1_555 1_555
H5_10 C9_10 1_555 1_555
H9_10 C11_10 1_555 1_555
H14_10 C13_10 1_555 1_555
Mn2_10 O2_7 1_555 1_555
O5_7 Mn2_10 1_555 1_555
O11_5 C23_10 1_555 1_555
O7_9 Mn2_10 1_555 1_555
N4_10 Mn2_10 1_555 1_555
N10_5 N4_10 1_555 1_555
N6_7 Mn2_10 1_555 1_555
C17_7 O5_7 1_555 1_555
C18_7 C17_7 1_555 1_555
H23_7 C18_7 1_555 1_555
C19_7 C18_7 1_555 1_555
H24_7 C19_7 1_555 1_555
C20_10 C19_7 1_555 1_555
H25_10 C20_10 1_555 1_555
C21_10 C20_10 1_555 1_555
H26_10 C21_10 1_555 1_555
C22_10 C17_7 1_555 1_555
C23_10 N4_10 1_555 1_555
C24_9 O7_9 1_555 1_555
C25_9 C24_9 1_555 1_555
H27_9 C25_9 1_555 1_555
H28_9 C25_9 1_555 1_555
C26_9 C25_9 1_555 1_555
H29_9 C26_9 1_555 1_555
H30_9 C26_9 1_555 1_555
C27_9 C26_9 1_555 1_555
H31_9 C27_9 1_555 1_555
H32_9 C27_9 1_555 1_555
C28_9 C27_9 1_555 1_555
H33_9 C28_9 1_555 1_555
H34_6 C28_9 1_555 1_555
C29_9 C28_9 1_555 1_555
H35_9 C29_9 1_555 1_555
H36_6 C29_9 1_555 1_555
H37_9 C29_9 1_555 1_555
C30_6 N6_7 1_555 1_555
H38_6 C30_6 1_555 1_555
C31_6 C30_6 1_555 1_555
H39_6 C31_6 1_555 1_555
C32_6 C31_6 1_555 1_555
C33_7 C32_6 1_555 1_555
H40_7 C33_7 1_555 1_555
C34_7 N6_7 1_555 1_555
H41_7 C34_7 1_555 1_555
C35_6 C32_6 1_555 1_555
H42_6 C35_6 1_555 1_555
H43_6 C35_6 1_555 1_555
N11_5 C49_9 1_555 1_555
H56_6 C48_6 1_555 1_555
H57_6 C48_6 1_555 1_555
H58_6 C48_6 1_555 1_555
C49_9 H59_10 1_555 1_555
C50_9 C49_9 1_555 1_555
H60_9 C50_9 1_555 1_555
C51_9 C50_9 1_555 1_555
C52_9 C51_9 1_555 1_555
H61_9 C52_9 1_555 1_555
C53_9 N11_5 1_555 1_555
H62_9 C53_9 1_555 1_555
C54_9 C35_6 1_555 1_555
H63_9 C54_9 1_555 1_555
H64_9 C54_9 1_555 1_555
N10_5 C24_9 1_555 1_555
C21_10 C22_10 1_555 1_555
C22_10 C23_10 1_555 1_555
C33_7 C34_7 1_555 1_555
C51_9 C54_9 1_555 1_555
C52_9 C53_9 1_555 1_555
N9_5 C49_10 1_555 1_555
C49_10 H59_11 1_555 1_555
C50_10 C49_10 1_555 1_555
H60_10 C50_10 1_555 1_555
C51_10 C50_10 1_555 1_555
C52_10 C51_10 1_555 1_555
H61_10 C52_10 1_555 1_555
C53_10 N9_5 1_555 1_555
H62_10 C53_10 1_555 1_555
H63_10 C54_10 1_555 1_555
H64_10 C54_10 1_555 1_555
Mn5_3 N9_5 1_555 1_555
C51_10 C54_10 1_555 1_555
C52_10 C53_10 1_555 1_555
Mn1_9 O1_6 1_555 1_555
O1_6 C1_6 1_555 1_555
O2_8 C7_6 1_555 1_555
O3_9 Mn1_9 1_555 1_555
O4_6 Mn1_9 1_555 1_555
N1_9 Mn1_9 1_555 1_555
N2_9 N1_9 1_555 1_555
N3_6 C14_9 1_555 1_555
C1_6 C2_7 1_555 1_555
C2_7 H1_7 1_555 1_555
C3_7 C2_7 1_555 1_555
H2_7 C3_7 1_555 1_555
C4_7 C3_7 1_555 1_555
H3_11 C4_7 1_555 1_555
C5_7 C4_7 1_555 1_555
H4_7 C5_7 1_555 1_555
C6_6 C1_6 1_555 1_555
C7_6 N1_9 1_555 1_555
C8_9 O3_9 1_555 1_555
C9_11 C8_9 1_555 1_555
H5_11 C9_11 1_555 1_555
H6_9 C9_11 1_555 1_555
C10_9 C9_11 1_555 1_555
H7_9 C10_9 1_555 1_555
H8_11 C10_9 1_555 1_555
C11_11 C10_9 1_555 1_555
H9_11 C11_11 1_555 1_555
H10_9 C11_11 1_555 1_555
C12_9 C11_11 1_555 1_555
H11_11 C12_9 1_555 1_555
H12_9 C12_9 1_555 1_555
C13_11 C12_9 1_555 1_555
H13_9 C13_11 1_555 1_555
H14_11 C13_11 1_555 1_555
H15_9 C13_11 1_555 1_555
C14_9 O4_6 1_555 1_555
H16_9 C14_9 1_555 1_555
C15_6 N3_6 1_555 1_555
H17_6 C15_6 1_555 1_555
H18_6 C15_6 1_555 1_555
H19_6 C15_6 1_555 1_555
C16_9 N3_6 1_555 1_555
H20_9 C16_9 1_555 1_555
H21_9 C16_9 1_555 1_555
H22_9 C16_9 1_555 1_555
Mn2_11 O2_8 1_555 1_555
O5_8 Mn2_11 1_555 1_555
O6_6 C23_11 1_555 1_555
O7_10 Mn2_11 1_555 1_555
N4_11 Mn2_11 1_555 1_555
N5_6 N4_11 1_555 1_555
N6_8 Mn2_11 1_555 1_555
C17_8 O5_8 1_555 1_555
C18_8 C17_8 1_555 1_555
H23_8 C18_8 1_555 1_555
C19_8 C18_8 1_555 1_555
H24_8 C19_8 1_555 1_555
C20_11 C19_8 1_555 1_555
H25_11 C20_11 1_555 1_555
C21_11 C20_11 1_555 1_555
H26_11 C21_11 1_555 1_555
C22_11 C17_8 1_555 1_555
C23_11 N4_11 1_555 1_555
C24_10 O7_10 1_555 1_555
C25_10 C24_10 1_555 1_555
H27_10 C25_10 1_555 1_555
H28_10 C25_10 1_555 1_555
C26_10 C25_10 1_555 1_555
H29_10 C26_10 1_555 1_555
H30_10 C26_10 1_555 1_555
C27_10 C26_10 1_555 1_555
H31_10 C27_10 1_555 1_555
H32_10 C27_10 1_555 1_555
C28_10 C27_10 1_555 1_555
H33_10 C28_10 1_555 1_555
H34_7 C28_10 1_555 1_555
C29_10 C28_10 1_555 1_555
H35_10 C29_10 1_555 1_555
H36_7 C29_10 1_555 1_555
H37_10 C29_10 1_555 1_555
C30_7 N6_8 1_555 1_555
H38_7 C30_7 1_555 1_555
C31_7 C30_7 1_555 1_555
H39_7 C31_7 1_555 1_555
C32_7 C31_7 1_555 1_555
C33_8 C32_7 1_555 1_555
H40_8 C33_8 1_555 1_555
C34_8 N6_8 1_555 1_555
H41_8 C34_8 1_555 1_555
C35_7 C32_7 1_555 1_555
H42_7 C35_7 1_555 1_555
H43_7 C35_7 1_555 1_555
Mn3_6 O8_11 1_555 1_555
O8_11 C36_10 1_555 1_555
O9_9 Mn1_9 1_555 1_555
O10_10 Mn3_6 1_555 1_555
N7_9 Mn3_6 1_555 1_555
N8_9 Mn1_9 1_555 1_555
N9_6 C49_11 1_555 1_555
C36_10 C37_10 1_555 1_555
C37_10 H44_10 1_555 1_555
C38_10 C37_10 1_555 1_555
H45_10 C38_10 1_555 1_555
C39_9 C38_10 1_555 1_555
H46_9 C39_9 1_555 1_555
C40_9 C39_9 1_555 1_555
H47_9 C40_9 1_555 1_555
C41_9 C36_10 1_555 1_555
C42_9 O9_9 1_555 1_555
C43_10 O10_10 1_555 1_555
C44_10 C43_10 1_555 1_555
H48_10 C44_10 1_555 1_555
H49_10 C44_10 1_555 1_555
C45_10 C44_10 1_555 1_555
H50_10 C45_10 1_555 1_555
H51_10 C45_10 1_555 1_555
C46_10 C45_10 1_555 1_555
H52_10 C46_10 1_555 1_555
H53_7 C46_10 1_555 1_555
C47_7 C46_10 1_555 1_555
H54_7 C47_7 1_555 1_555
H55_7 C47_7 1_555 1_555
C48_7 C47_7 1_555 1_555
H56_7 C48_7 1_555 1_555
H57_7 C48_7 1_555 1_555
H58_7 C48_7 1_555 1_555
C50_11 C49_11 1_555 1_555
H60_11 C50_11 1_555 1_555
C51_11 C50_11 1_555 1_555
C52_11 C51_11 1_555 1_555
H61_11 C52_11 1_555 1_555
C53_11 N9_6 1_555 1_555
H62_11 C53_11 1_555 1_555
C54_11 C35_7 1_555 1_555
H63_11 C54_11 1_555 1_555
H64_11 C54_11 1_555 1_555
O11_6 Mn3_6 1_555 1_555
N10_6 Mn3_6 1_555 1_555
Mn5_3 O6_6 1_555 1_555
N11_6 Mn3_6 1_555 1_555
N2_9 C8_9 1_555 1_555
N2_9 Mn2_11 1_555 1_555
C5_7 C6_6 1_555 1_555
C6_6 C7_6 1_555 1_555
N5_6 C24_10 1_555 1_555
N5_6 Mn5_3 1_555 1_555
C21_11 C22_11 1_555 1_555
C22_11 C23_11 1_555 1_555
C33_8 C34_8 1_555 1_555
N7_9 N8_9 1_555 1_555
N7_9 C42_9 1_555 1_555
N8_9 C43_10 1_555 1_555
C40_9 C41_9 1_555 1_555
C41_9 C42_9 1_555 1_555
C51_11 C54_11 1_555 1_555
C52_11 C53_11 1_555 1_555
C24_11 O7_11 1_555 1_555
C25_11 C24_11 1_555 1_555
H27_11 C25_11 1_555 1_555
H28_11 C25_11 1_555 1_555
C26_11 C25_11 1_555 1_555
H29_11 C26_11 1_555 1_555
H30_11 C26_11 1_555 1_555
C27_11 C26_11 1_555 1_555
H31_11 C27_11 1_555 1_555
H32_11 C27_11 1_555 1_555
C28_11 C27_11 1_555 1_555
H33_11 C28_11 1_555 1_555
H34_8 C28_11 1_555 1_555
C29_11 C28_11 1_555 1_555
H35_11 C29_11 1_555 1_555
H36_8 C29_11 1_555 1_555
H37_11 C29_11 1_555 1_555
H38_8 C30_8 1_555 1_555
C31_8 C30_8 1_555 1_555
H39_8 C31_8 1_555 1_555
C32_8 C31_8 1_555 1_555
C35_8 C32_8 1_555 1_555
H42_8 C35_8 1_555 1_555
H43_8 C35_8 1_555 1_555
N11_6 C49_12 1_555 1_555
H56_8 C48_8 1_555 1_555
H57_8 C48_8 1_555 1_555
H58_8 C48_8 1_555 1_555
C49_12 H59_12 1_555 1_555
C50_12 C49_12 1_555 1_555
H60_12 C50_12 1_555 1_555
C51_12 C50_12 1_555 1_555
C52_12 C51_12 1_555 1_555
H61_12 C52_12 1_555 1_555
C53_12 N11_6 1_555 1_555
H62_12 C53_12 1_555 1_555
C54_12 C35_8 1_555 1_555
H63_12 C54_12 1_555 1_555
H64_12 C54_12 1_555 1_555
C51_12 C54_12 1_555 1_555
C52_12 C53_12 1_555 1_555
O3_10 Mn1_10 1_555 1_555
N1_10 Mn1_10 1_555 1_555
N2_10 N1_10 1_555 1_555
C8_10 O3_10 1_555 1_555
C9_12 C8_10 1_555 1_555
H5_12 C9_12 1_555 1_555
H6_10 C9_12 1_555 1_555
C10_10 C9_12 1_555 1_555
H7_10 C10_10 1_555 1_555
H8_12 C10_10 1_555 1_555
C11_12 C10_10 1_555 1_555
H9_12 C11_12 1_555 1_555
H10_10 C11_12 1_555 1_555
C12_10 C11_12 1_555 1_555
H11_12 C12_10 1_555 1_555
H12_10 C12_10 1_555 1_555
C13_12 C12_10 1_555 1_555
H13_10 C13_12 1_555 1_555
H14_12 C13_12 1_555 1_555
H15_10 C13_12 1_555 1_555
H16_10 C14_10 1_555 1_555
H20_10 C16_10 1_555 1_555
H21_10 C16_10 1_555 1_555
H22_10 C16_10 1_555 1_555
O11_6 C23_12 1_555 1_555
O7_12 Mn2_12 1_555 1_555
N4_12 Mn2_12 1_555 1_555
N10_6 N4_12 1_555 1_555
H25_12 C20_12 1_555 1_555
C21_12 C20_12 1_555 1_555
H26_12 C21_12 1_555 1_555
C23_12 N4_12 1_555 1_555
C24_12 O7_12 1_555 1_555
C25_12 C24_12 1_555 1_555
H27_12 C25_12 1_555 1_555
H28_12 C25_12 1_555 1_555
C26_12 C25_12 1_555 1_555
H29_12 C26_12 1_555 1_555
H30_12 C26_12 1_555 1_555
C27_12 C26_12 1_555 1_555
H31_12 C27_12 1_555 1_555
H32_12 C27_12 1_555 1_555
C28_12 C27_12 1_555 1_555
H33_12 C28_12 1_555 1_555
C29_12 C28_12 1_555 1_555
H35_12 C29_12 1_555 1_555
H37_12 C29_12 1_555 1_555
Mn5_3 O8_12 1_555 1_555
O8_12 C36_11 1_555 1_555
O9_10 Mn1_10 1_555 1_555
O10_11 Mn5_3 1_555 1_555
N7_10 Mn5_3 1_555 1_555
N8_10 Mn1_10 1_555 1_555
C36_11 C37_11 1_555 1_555
C37_11 H44_11 1_555 1_555
C38_11 C37_11 1_555 1_555
H45_11 C38_11 1_555 1_555
C39_10 C38_11 1_555 1_555
H46_10 C39_10 1_555 1_555
C40_10 C39_10 1_555 1_555
H47_10 C40_10 1_555 1_555
C41_10 C36_11 1_555 1_555
C42_10 O9_10 1_555 1_555
C43_11 O10_11 1_555 1_555
C44_11 C43_11 1_555 1_555
H48_11 C44_11 1_555 1_555
H49_11 C44_11 1_555 1_555
C45_11 C44_11 1_555 1_555
H50_11 C45_11 1_555 1_555
H51_11 C45_11 1_555 1_555
C46_11 C45_11 1_555 1_555
H52_11 C46_11 1_555 1_555
N2_10 C8_10 1_555 1_555
N2_10 Mn2_12 1_555 1_555
N10_6 C24_12 1_555 1_555
C21_12 C22_12 1_555 1_555
C22_12 C23_12 1_555 1_555
N7_10 N8_10 1_555 1_555
N7_10 C42_10 1_555 1_555
N8_10 C43_11 1_555 1_555
C40_10 C41_10 1_555 1_555
C41_10 C42_10 1_555 1_555
Mn1_11 O1_7 1_555 1_555
O1_7 C1_7 1_555 1_555
O3_11 Mn1_11 1_555 1_555
O4_7 Mn1_11 1_555 1_555
N1_11 Mn1_11 1_555 1_555
N2_11 N1_11 1_555 1_555
N3_7 C14_11 1_555 1_555
C1_7 C2_8 1_555 1_555
C2_8 H1_8 1_555 1_555
C3_8 C2_8 1_555 1_555
H2_8 C3_8 1_555 1_555
C4_8 C3_8 1_555 1_555
H3_12 C4_8 1_555 1_555
C5_8 C4_8 1_555 1_555
H4_8 C5_8 1_555 1_555
C6_7 C1_7 1_555 1_555
C7_7 N1_11 1_555 1_555
C8_11 O3_11 1_555 1_555
H7_11 C10_11 1_555 1_555
H12_11 C12_11 1_555 1_555
C14_11 O4_7 1_555 1_555
H16_11 C14_11 1_555 1_555
C15_7 N3_7 1_555 1_555
H17_7 C15_7 1_555 1_555
H18_7 C15_7 1_555 1_555
H19_7 C15_7 1_555 1_555
C16_11 N3_7 1_555 1_555
H20_11 C16_11 1_555 1_555
H21_11 C16_11 1_555 1_555
H22_11 C16_11 1_555 1_555
O9_11 Mn1_11 1_555 1_555
N8_11 Mn1_11 1_555 1_555
H46_11 C39_11 1_555 1_555
C40_11 C39_11 1_555 1_555
H47_11 C40_11 1_555 1_555
C42_11 O9_11 1_555 1_555
C43_12 O10_12 1_555 1_555
C44_12 C43_12 1_555 1_555
H48_12 C44_12 1_555 1_555
H49_12 C44_12 1_555 1_555
C45_12 C44_12 1_555 1_555
H50_12 C45_12 1_555 1_555
H51_12 C45_12 1_555 1_555
C46_12 C45_12 1_555 1_555
H52_12 C46_12 1_555 1_555
H53_8 C46_12 1_555 1_555
C47_8 C46_12 1_555 1_555
H54_8 C47_8 1_555 1_555
H55_8 C47_8 1_555 1_555
N2_11 C8_11 1_555 1_555
C5_8 C6_7 1_555 1_555
C6_7 C7_7 1_555 1_555
N7_11 N8_11 1_555 1_555
N7_11 C42_11 1_555 1_555
N8_11 C43_12 1_555 1_555
C40_11 C41_11 1_555 1_555
C41_11 C42_11 1_555 1_555
Mn1_12 O1_8 1_555 1_555
O1_8 C1_8 1_555 1_555
O2_9 C7_8 1_555 1_555
O3_12 Mn1_12 1_555 1_555
O4_8 Mn1_12 1_555 1_555
N1_12 Mn1_12 1_555 1_555
N2_12 N1_12 1_555 1_555
N3_8 C14_12 1_555 1_555
C1_8 C2_9 1_555 1_555
C2_9 H1_9 1_555 1_555
C3_9 C2_9 1_555 1_555
H2_9 C3_9 1_555 1_555
C4_9 C3_9 1_555 1_555
C5_9 C4_9 1_555 1_555
H4_9 C5_9 1_555 1_555
C6_8 C1_8 1_555 1_555
C7_8 N1_12 1_555 1_555
C8_12 O3_12 1_555 1_555
C9_13 C8_12 1_555 1_555
H5_13 C9_13 1_555 1_555
H6_12 C9_13 1_555 1_555
C10_12 C9_13 1_555 1_555
H7_12 C10_12 1_555 1_555
H8_13 C10_12 1_555 1_555
C11_13 C10_12 1_555 1_555
H9_13 C11_13 1_555 1_555
H10_12 C11_13 1_555 1_555
C12_12 C11_13 1_555 1_555
H11_13 C12_12 1_555 1_555
H12_12 C12_12 1_555 1_555
C13_13 C12_12 1_555 1_555
H13_12 C13_13 1_555 1_555
H14_13 C13_13 1_555 1_555
H15_12 C13_13 1_555 1_555
C14_12 O4_8 1_555 1_555
H16_12 C14_12 1_555 1_555
C15_8 N3_8 1_555 1_555
H17_8 C15_8 1_555 1_555
H18_8 C15_8 1_555 1_555
H19_8 C15_8 1_555 1_555
C16_12 N3_8 1_555 1_555
H20_12 C16_12 1_555 1_555
H21_12 C16_12 1_555 1_555
H22_12 C16_12 1_555 1_555
Mn2_13 O2_9 1_555 1_555
O5_9 Mn2_13 1_555 1_555
O6_7 C23_13 1_555 1_555
O7_13 Mn2_13 1_555 1_555
N4_13 Mn2_13 1_555 1_555
N5_7 N4_13 1_555 1_555
N6_9 Mn2_13 1_555 1_555
C17_9 O5_9 1_555 1_555
C18_9 C17_9 1_555 1_555
H23_9 C18_9 1_555 1_555
C19_9 C18_9 1_555 1_555
H24_9 C19_9 1_555 1_555
C20_13 C19_9 1_555 1_555
H25_13 C20_13 1_555 1_555
C21_13 C20_13 1_555 1_555
H26_13 C21_13 1_555 1_555
C22_13 C17_9 1_555 1_555
C23_13 N4_13 1_555 1_555
C24_13 O7_13 1_555 1_555
C25_13 C24_13 1_555 1_555
H27_13 C25_13 1_555 1_555
H28_13 C25_13 1_555 1_555
C26_13 C25_13 1_555 1_555
H29_13 C26_13 1_555 1_555
H30_13 C26_13 1_555 1_555
C27_13 C26_13 1_555 1_555
H31_13 C27_13 1_555 1_555
H32_13 C27_13 1_555 1_555
C28_13 C27_13 1_555 1_555
H33_13 C28_13 1_555 1_555
H34_9 C28_13 1_555 1_555
C29_13 C28_13 1_555 1_555
H35_13 C29_13 1_555 1_555
H36_9 C29_13 1_555 1_555
H37_13 C29_13 1_555 1_555
C30_9 N6_9 1_555 1_555
H38_9 C30_9 1_555 1_555
C31_9 C30_9 1_555 1_555
H39_9 C31_9 1_555 1_555
C32_9 C31_9 1_555 1_555
C33_9 C32_9 1_555 1_555
H40_9 C33_9 1_555 1_555
C34_9 N6_9 1_555 1_555
H41_9 C34_9 1_555 1_555
C35_9 C32_9 1_555 1_555
H42_9 C35_9 1_555 1_555
H43_9 C35_9 1_555 1_555
Mn3_7 O8_13 1_555 1_555
O8_13 C36_12 1_555 1_555
O9_12 Mn1_12 1_555 1_555
O10_13 Mn3_7 1_555 1_555
N7_12 Mn3_7 1_555 1_555
N8_12 Mn1_12 1_555 1_555
C36_12 C37_12 1_555 1_555
C37_12 H44_12 1_555 1_555
C38_12 C37_12 1_555 1_555
H45_12 C38_12 1_555 1_555
C39_12 C38_12 1_555 1_555
H46_12 C39_12 1_555 1_555
C40_12 C39_12 1_555 1_555
H47_12 C40_12 1_555 1_555
C41_12 C36_12 1_555 1_555
C42_12 O9_12 1_555 1_555
C43_13 O10_13 1_555 1_555
C44_13 C43_13 1_555 1_555
H48_13 C44_13 1_555 1_555
H49_13 C44_13 1_555 1_555
C45_13 C44_13 1_555 1_555
H50_13 C45_13 1_555 1_555
H51_13 C45_13 1_555 1_555
C46_13 C45_13 1_555 1_555
H52_13 C46_13 1_555 1_555
H53_9 C46_13 1_555 1_555
C47_9 C46_13 1_555 1_555
H54_9 C47_9 1_555 1_555
H55_9 C47_9 1_555 1_555
C48_9 C47_9 1_555 1_555
H56_9 C48_9 1_555 1_555
H57_9 C48_9 1_555 1_555
H58_9 C48_9 1_555 1_555
O11_7 Mn3_7 1_555 1_555
N10_7 Mn3_7 1_555 1_555
Mn4_4 O6_7 1_555 1_555
N11_7 Mn3_7 1_555 1_555
N2_12 C8_12 1_555 1_555
N2_12 Mn2_13 1_555 1_555
C5_9 C6_8 1_555 1_555
C6_8 C7_8 1_555 1_555
N5_7 C24_13 1_555 1_555
N5_7 Mn4_4 1_555 1_555
C21_13 C22_13 1_555 1_555
C22_13 C23_13 1_555 1_555
C33_9 C34_9 1_555 1_555
N7_12 N8_12 1_555 1_555
N7_12 C42_12 1_555 1_555
N8_12 C43_13 1_555 1_555
C40_12 C41_12 1_555 1_555
C41_12 C42_12 1_555 1_555
O1_9 C1_9 1_555 1_555
O2_10 C7_9 1_555 1_555
C1_9 C2_10 1_555 1_555
C2_10 H1_10 1_555 1_555
C3_10 C2_10 1_555 1_555
H2_10 C3_10 1_555 1_555
C4_10 C3_10 1_555 1_555
H3_13 C4_10 1_555 1_555
C5_10 C4_10 1_555 1_555
H4_10 C5_10 1_555 1_555
C6_9 C1_9 1_555 1_555
C15_9 N3_9 1_555 1_555
H17_9 C15_9 1_555 1_555
H18_9 C15_9 1_555 1_555
H19_9 C15_9 1_555 1_555
C17_10 O5_10 1_555 1_555
C18_10 C17_10 1_555 1_555
H23_10 C18_10 1_555 1_555
C19_10 C18_10 1_555 1_555
H24_10 C19_10 1_555 1_555
C30_10 N6_10 1_555 1_555
H38_10 C30_10 1_555 1_555
C31_10 C30_10 1_555 1_555
H39_10 C31_10 1_555 1_555
C32_10 C31_10 1_555 1_555
C33_10 C32_10 1_555 1_555
H40_10 C33_10 1_555 1_555
C34_10 N6_10 1_555 1_555
H41_10 C34_10 1_555 1_555
C35_10 C32_10 1_555 1_555
H42_10 C35_10 1_555 1_555
H43_10 C35_10 1_555 1_555
N9_7 C49_13 1_555 1_555
H54_10 C47_10 1_555 1_555
H55_10 C47_10 1_555 1_555
C48_10 C47_10 1_555 1_555
H56_10 C48_10 1_555 1_555
H57_10 C48_10 1_555 1_555
H58_10 C48_10 1_555 1_555
C49_13 H59_13 1_555 1_555
C50_13 C49_13 1_555 1_555
H60_13 C50_13 1_555 1_555
C51_13 C50_13 1_555 1_555
C52_13 C51_13 1_555 1_555
H61_13 C52_13 1_555 1_555
C53_13 N9_7 1_555 1_555
H62_13 C53_13 1_555 1_555
C54_13 C35_10 1_555 1_555
H63_13 C54_13 1_555 1_555
H64_13 C54_13 1_555 1_555
Mn4_4 N9_7 1_555 1_555
C5_10 C6_9 1_555 1_555
C6_9 C7_9 1_555 1_555
C33_10 C34_10 1_555 1_555
C51_13 C54_13 1_555 1_555
C52_13 C53_13 1_555 1_555
Mn1_13 O1_10 1_555 1_555
O1_10 C1_10 1_555 1_555
O2_11 C7_10 1_555 1_555
O3_13 Mn1_13 1_555 1_555
O4_10 Mn1_13 1_555 1_555
N1_13 Mn1_13 1_555 1_555
N2_13 N1_13 1_555 1_555
N3_10 C14_13 1_555 1_555
C1_10 C2_11 1_555 1_555
C2_11 H1_11 1_555 1_555
C3_11 C2_11 1_555 1_555
H2_11 C3_11 1_555 1_555
C4_11 C3_11 1_555 1_555
C5_11 C4_11 1_555 1_555
H4_11 C5_11 1_555 1_555
C6_10 C1_10 1_555 1_555
C7_10 N1_13 1_555 1_555
C8_13 O3_13 1_555 1_555
C9_14 C8_13 1_555 1_555
H5_14 C9_14 1_555 1_555
H6_13 C9_14 1_555 1_555
C10_13 C9_14 1_555 1_555
H7_13 C10_13 1_555 1_555
H8_14 C10_13 1_555 1_555
C11_14 C10_13 1_555 1_555
H9_14 C11_14 1_555 1_555
H10_13 C11_14 1_555 1_555
C12_13 C11_14 1_555 1_555
H11_14 C12_13 1_555 1_555
H12_13 C12_13 1_555 1_555
C13_14 C12_13 1_555 1_555
H13_13 C13_14 1_555 1_555
H14_14 C13_14 1_555 1_555
H15_13 C13_14 1_555 1_555
C14_13 O4_10 1_555 1_555
H16_13 C14_13 1_555 1_555
C15_10 N3_10 1_555 1_555
H17_10 C15_10 1_555 1_555
H18_10 C15_10 1_555 1_555
H19_10 C15_10 1_555 1_555
C16_13 N3_10 1_555 1_555
H20_13 C16_13 1_555 1_555
H21_13 C16_13 1_555 1_555
H22_13 C16_13 1_555 1_555
Mn2_14 O2_11 1_555 1_555
O5_11 Mn2_14 1_555 1_555
O11_7 C23_14 1_555 1_555
O7_14 Mn2_14 1_555 1_555
N4_14 Mn2_14 1_555 1_555
N10_7 N4_14 1_555 1_555
N6_11 Mn2_14 1_555 1_555
C17_11 O5_11 1_555 1_555
C18_11 C17_11 1_555 1_555
H23_11 C18_11 1_555 1_555
C19_11 C18_11 1_555 1_555
H24_11 C19_11 1_555 1_555
C20_14 C19_11 1_555 1_555
H25_14 C20_14 1_555 1_555
C21_14 C20_14 1_555 1_555
H26_14 C21_14 1_555 1_555
C22_14 C17_11 1_555 1_555
C23_14 N4_14 1_555 1_555
C24_14 O7_14 1_555 1_555
C25_14 C24_14 1_555 1_555
H27_14 C25_14 1_555 1_555
H28_14 C25_14 1_555 1_555
C26_14 C25_14 1_555 1_555
H29_14 C26_14 1_555 1_555
H30_14 C26_14 1_555 1_555
C27_14 C26_14 1_555 1_555
H31_14 C27_14 1_555 1_555
H32_14 C27_14 1_555 1_555
C28_14 C27_14 1_555 1_555
H33_14 C28_14 1_555 1_555
H34_11 C28_14 1_555 1_555
C29_14 C28_14 1_555 1_555
H35_14 C29_14 1_555 1_555
H36_11 C29_14 1_555 1_555
H37_14 C29_14 1_555 1_555
C30_11 N6_11 1_555 1_555
H38_11 C30_11 1_555 1_555
C31_11 C30_11 1_555 1_555
H39_11 C31_11 1_555 1_555
C32_11 C31_11 1_555 1_555
C33_11 C32_11 1_555 1_555
H40_11 C33_11 1_555 1_555
C34_11 N6_11 1_555 1_555
H41_11 C34_11 1_555 1_555
C35_11 C32_11 1_555 1_555
H42_11 C35_11 1_555 1_555
H43_11 C35_11 1_555 1_555
Mn4_4 O8_14 1_555 1_555
O8_14 C36_13 1_555 1_555
O9_13 Mn1_13 1_555 1_555
O10_14 Mn4_4 1_555 1_555
N7_13 Mn4_4 1_555 1_555
N8_13 Mn1_13 1_555 1_555
C36_13 C37_13 1_555 1_555
C37_13 H44_13 1_555 1_555
C38_13 C37_13 1_555 1_555
H45_13 C38_13 1_555 1_555
C39_13 C38_13 1_555 1_555
H46_13 C39_13 1_555 1_555
C40_13 C39_13 1_555 1_555
H47_13 C40_13 1_555 1_555
C41_13 C36_13 1_555 1_555
C42_13 O9_13 1_555 1_555
C43_14 O10_14 1_555 1_555
C44_14 C43_14 1_555 1_555
H48_14 C44_14 1_555 1_555
H49_14 C44_14 1_555 1_555
C45_14 C44_14 1_555 1_555
H50_14 C45_14 1_555 1_555
H51_14 C45_14 1_555 1_555
C46_14 C45_14 1_555 1_555
H52_14 C46_14 1_555 1_555
H53_11 C46_14 1_555 1_555
C47_11 C46_14 1_555 1_555
H54_11 C47_11 1_555 1_555
H55_11 C47_11 1_555 1_555
C48_11 C47_11 1_555 1_555
H56_11 C48_11 1_555 1_555
H57_11 C48_11 1_555 1_555
H58_11 C48_11 1_555 1_555
N2_13 C8_13 1_555 1_555
N2_13 Mn2_14 1_555 1_555
C5_11 C6_10 1_555 1_555
C6_10 C7_10 1_555 1_555
N10_7 C24_14 1_555 1_555
C21_14 C22_14 1_555 1_555
C22_14 C23_14 1_555 1_555
C33_11 C34_11 1_555 1_555
N7_13 N8_13 1_555 1_555
N7_13 C42_13 1_555 1_555
N8_13 C43_14 1_555 1_555
C40_13 C41_13 1_555 1_555
C41_13 C42_13 1_555 1_555
O1_11 C1_11 1_555 1_555
O2_12 C7_11 1_555 1_555
C1_11 C2_12 1_555 1_555
C2_12 H1_12 1_555 1_555
C3_12 C2_12 1_555 1_555
H2_12 C3_12 1_555 1_555
C4_12 C3_12 1_555 1_555
H3_14 C4_12 1_555 1_555
C5_12 C4_12 1_555 1_555
H4_12 C5_12 1_555 1_555
C6_11 C1_11 1_555 1_555
C15_11 N3_11 1_555 1_555
H17_11 C15_11 1_555 1_555
H18_11 C15_11 1_555 1_555
H19_11 C15_11 1_555 1_555
C17_12 O5_12 1_555 1_555
C18_12 C17_12 1_555 1_555
H23_12 C18_12 1_555 1_555
C19_12 C18_12 1_555 1_555
H24_12 C19_12 1_555 1_555
C30_12 N6_12 1_555 1_555
H38_12 C30_12 1_555 1_555
C31_12 C30_12 1_555 1_555
H39_12 C31_12 1_555 1_555
C32_12 C31_12 1_555 1_555
C33_12 C32_12 1_555 1_555
H40_12 C33_12 1_555 1_555
C34_12 N6_12 1_555 1_555
H41_12 C34_12 1_555 1_555
C35_12 C32_12 1_555 1_555
H42_12 C35_12 1_555 1_555
H43_12 C35_12 1_555 1_555
N11_7 C49_14 1_555 1_555
H54_12 C47_12 1_555 1_555
H55_12 C47_12 1_555 1_555
C48_12 C47_12 1_555 1_555
H56_12 C48_12 1_555 1_555
H57_12 C48_12 1_555 1_555
H58_12 C48_12 1_555 1_555
C49_14 H59_14 1_555 1_555
C50_14 C49_14 1_555 1_555
H60_14 C50_14 1_555 1_555
C51_14 C50_14 1_555 1_555
C52_14 C51_14 1_555 1_555
H61_14 C52_14 1_555 1_555
C53_14 N11_7 1_555 1_555
H62_14 C53_14 1_555 1_555
C54_14 C35_12 1_555 1_555
H63_14 C54_14 1_555 1_555
H64_14 C54_14 1_555 1_555
C5_12 C6_11 1_555 1_555
C6_11 C7_11 1_555 1_555
C33_12 C34_12 1_555 1_555
C51_14 C54_14 1_555 1_555
C52_14 C53_14 1_555 1_555
C2_13 H1_13 1_555 1_555
C3_13 C2_13 1_555 1_555
H2_13 C3_13 1_555 1_555
C4_13 C3_13 1_555 1_555
C5_13 C4_13 1_555 1_555
H4_13 C5_13 1_555 1_555
C24_15 O7_15 1_555 1_555
C25_15 C24_15 1_555 1_555
H27_15 C25_15 1_555 1_555
H28_15 C25_15 1_555 1_555
C26_15 C25_15 1_555 1_555
H29_15 C26_15 1_555 1_555
H30_15 C26_15 1_555 1_555
C27_15 C26_15 1_555 1_555
H31_15 C27_15 1_555 1_555
H32_15 C27_15 1_555 1_555
C28_15 C27_15 1_555 1_555
H33_15 C28_15 1_555 1_555
H34_13 C28_15 1_555 1_555
C29_15 C28_15 1_555 1_555
H35_15 C29_15 1_555 1_555
H36_13 C29_15 1_555 1_555
H37_15 C29_15 1_555 1_555
H38_13 C30_13 1_555 1_555
C31_13 C30_13 1_555 1_555
H39_13 C31_13 1_555 1_555
C32_13 C31_13 1_555 1_555
C35_13 C32_13 1_555 1_555
H42_13 C35_13 1_555 1_555
H43_13 C35_13 1_555 1_555
Mn3_8 O8_15 1_555 1_555
O10_15 Mn3_8 1_555 1_555
C43_15 O10_15 1_555 1_555
C44_15 C43_15 1_555 1_555
H48_15 C44_15 1_555 1_555
H49_15 C44_15 1_555 1_555
C45_15 C44_15 1_555 1_555
H50_15 C45_15 1_555 1_555
H51_15 C45_15 1_555 1_555
C46_15 C45_15 1_555 1_555
H52_15 C46_15 1_555 1_555
H53_13 C46_15 1_555 1_555
C47_13 C46_15 1_555 1_555
H54_13 C47_13 1_555 1_555
H55_13 C47_13 1_555 1_555
C48_13 C47_13 1_555 1_555
H56_13 C48_13 1_555 1_555
H57_13 C48_13 1_555 1_555
H58_13 C48_13 1_555 1_555
O11_8 Mn3_8 1_555 1_555
N10_8 Mn3_8 1_555 1_555
N11_8 Mn3_8 1_555 1_555
Mn1_14 O1_12 1_555 1_555
O1_12 C1_12 1_555 1_555
O2_13 C7_12 1_555 1_555
O3_14 Mn1_14 1_555 1_555
O4_12 Mn1_14 1_555 1_555
N1_14 Mn1_14 1_555 1_555
N2_14 N1_14 1_555 1_555
N3_12 C14_14 1_555 1_555
C6_12 C1_12 1_555 1_555
C7_12 N1_14 1_555 1_555
C8_14 O3_14 1_555 1_555
C9_15 C8_14 1_555 1_555
H5_15 C9_15 1_555 1_555
H6_14 C9_15 1_555 1_555
C10_14 C9_15 1_555 1_555
H7_14 C10_14 1_555 1_555
H8_15 C10_14 1_555 1_555
C11_15 C10_14 1_555 1_555
H9_15 C11_15 1_555 1_555
H10_14 C11_15 1_555 1_555
C12_14 C11_15 1_555 1_555
H11_15 C12_14 1_555 1_555
H12_14 C12_14 1_555 1_555
C13_15 C12_14 1_555 1_555
H13_14 C13_15 1_555 1_555
H14_15 C13_15 1_555 1_555
H15_14 C13_15 1_555 1_555
C14_14 O4_12 1_555 1_555
H16_14 C14_14 1_555 1_555
C15_12 N3_12 1_555 1_555
H17_12 C15_12 1_555 1_555
H18_12 C15_12 1_555 1_555
H19_12 C15_12 1_555 1_555
C16_14 N3_12 1_555 1_555
H20_14 C16_14 1_555 1_555
H21_14 C16_14 1_555 1_555
H22_14 C16_14 1_555 1_555
Mn2_15 O2_13 1_555 1_555
O5_13 Mn2_15 1_555 1_555
O11_8 C23_15 1_555 1_555
N4_15 Mn2_15 1_555 1_555
N10_8 N4_15 1_555 1_555
N6_13 Mn2_15 1_555 1_555
C17_13 O5_13 1_555 1_555
C18_13 C17_13 1_555 1_555
H23_13 C18_13 1_555 1_555
C19_13 C18_13 1_555 1_555
H24_13 C19_13 1_555 1_555
C20_15 C19_13 1_555 1_555
H25_15 C20_15 1_555 1_555
C21_15 C20_15 1_555 1_555
H26_15 C21_15 1_555 1_555
C22_15 C17_13 1_555 1_555
C23_15 N4_15 1_555 1_555
H40_13 C33_13 1_555 1_555
C34_13 N6_13 1_555 1_555
H41_13 C34_13 1_555 1_555
O9_14 Mn1_14 1_555 1_555
N8_14 Mn1_14 1_555 1_555
C36_14 C37_14 1_555 1_555
C37_14 H44_14 1_555 1_555
C38_14 C37_14 1_555 1_555
H45_14 C38_14 1_555 1_555
C39_14 C38_14 1_555 1_555
H46_14 C39_14 1_555 1_555
C40_14 C39_14 1_555 1_555
H47_14 C40_14 1_555 1_555
C41_14 C36_14 1_555 1_555
C42_14 O9_14 1_555 1_555
N2_14 C8_14 1_555 1_555
N2_14 Mn2_15 1_555 1_555
C6_12 C7_12 1_555 1_555
C21_15 C22_15 1_555 1_555
C22_15 C23_15 1_555 1_555
C33_13 C34_13 1_555 1_555
N7_14 N8_14 1_555 1_555
N7_14 C42_14 1_555 1_555
C40_14 C41_14 1_555 1_555
C41_14 C42_14 1_555 1_555
O1_13 C1_13 1_555 1_555
O2_14 C7_13 1_555 1_555
C1_13 C2_14 1_555 1_555
C2_14 H1_14 1_555 1_555
C3_14 C2_14 1_555 1_555
H2_14 C3_14 1_555 1_555
C4_14 C3_14 1_555 1_555
H3_15 C4_14 1_555 1_555
C5_14 C4_14 1_555 1_555
H4_14 C5_14 1_555 1_555
C6_13 C1_13 1_555 1_555
C15_13 N3_13 1_555 1_555
H17_13 C15_13 1_555 1_555
H18_13 C15_13 1_555 1_555
H19_13 C15_13 1_555 1_555
C17_14 O5_14 1_555 1_555
C18_14 C17_14 1_555 1_555
H23_14 C18_14 1_555 1_555
C19_14 C18_14 1_555 1_555
H24_14 C19_14 1_555 1_555
C30_14 N6_14 1_555 1_555
H38_14 C30_14 1_555 1_555
C31_14 C30_14 1_555 1_555
H39_14 C31_14 1_555 1_555
C32_14 C31_14 1_555 1_555
C33_14 C32_14 1_555 1_555
H40_14 C33_14 1_555 1_555
C34_14 N6_14 1_555 1_555
H41_14 C34_14 1_555 1_555
C35_14 C32_14 1_555 1_555
H42_14 C35_14 1_555 1_555
H43_14 C35_14 1_555 1_555
N11_8 C49_15 1_555 1_555
H54_14 C47_14 1_555 1_555
H55_14 C47_14 1_555 1_555
C48_14 C47_14 1_555 1_555
H56_14 C48_14 1_555 1_555
H57_14 C48_14 1_555 1_555
H58_14 C48_14 1_555 1_555
C49_15 H59_15 1_555 1_555
C50_15 C49_15 1_555 1_555
H60_15 C50_15 1_555 1_555
C51_15 C50_15 1_555 1_555
C52_15 C51_15 1_555 1_555
H61_15 C52_15 1_555 1_555
C53_15 N11_8 1_555 1_555
H62_15 C53_15 1_555 1_555
C54_15 C35_14 1_555 1_555
H63_15 C54_15 1_555 1_555
H64_15 C54_15 1_555 1_555
C5_14 C6_13 1_555 1_555
C6_13 C7_13 1_555 1_555
C33_14 C34_14 1_555 1_555
C51_15 C54_15 1_555 1_555
C52_15 C53_15 1_555 1_555
Mn1_15 O1_14 1_555 1_555
O1_14 C1_14 1_555 1_555
O2_15 C7_14 1_555 1_555
O3_15 Mn1_15 1_555 1_555
O4_14 Mn1_15 1_555 1_555
N1_15 Mn1_15 1_555 1_555
N2_15 N1_15 1_555 1_555
N3_14 C14_15 1_555 1_555
C6_14 C1_14 1_555 1_555
C7_14 N1_15 1_555 1_555
C8_15 O3_15 1_555 1_555
C9_16 C8_15 1_555 1_555
H5_16 C9_16 1_555 1_555
H6_15 C9_16 1_555 1_555
C10_15 C9_16 1_555 1_555
H7_15 C10_15 1_555 1_555
H8_16 C10_15 1_555 1_555
C11_16 C10_15 1_555 1_555
H9_16 C11_16 1_555 1_555
H10_15 C11_16 1_555 1_555
C12_15 C11_16 1_555 1_555
H11_16 C12_15 1_555 1_555
H12_15 C12_15 1_555 1_555
C13_16 C12_15 1_555 1_555
H13_15 C13_16 1_555 1_555
H14_16 C13_16 1_555 1_555
H15_15 C13_16 1_555 1_555
C14_15 O4_14 1_555 1_555
H16_15 C14_15 1_555 1_555
C15_14 N3_14 1_555 1_555
H17_14 C15_14 1_555 1_555
H18_14 C15_14 1_555 1_555
H19_14 C15_14 1_555 1_555
C16_15 N3_14 1_555 1_555
H20_15 C16_15 1_555 1_555
H21_15 C16_15 1_555 1_555
H22_15 C16_15 1_555 1_555
Mn2_16 O2_15 1_555 1_555
O5_15 Mn2_16 1_555 1_555
O6_8 C23_16 1_555 1_555
N4_16 Mn2_16 1_555 1_555
N5_8 N4_16 1_555 1_555
N6_15 Mn2_16 1_555 1_555
C17_15 O5_15 1_555 1_555
C18_15 C17_15 1_555 1_555
H23_15 C18_15 1_555 1_555
C19_15 C18_15 1_555 1_555
H24_15 C19_15 1_555 1_555
C20_16 C19_15 1_555 1_555
H25_16 C20_16 1_555 1_555
C21_16 C20_16 1_555 1_555
H26_16 C21_16 1_555 1_555
C22_16 C17_15 1_555 1_555
C23_16 N4_16 1_555 1_555
H40_15 C33_15 1_555 1_555
C34_15 N6_15 1_555 1_555
H41_15 C34_15 1_555 1_555
O9_15 Mn1_15 1_555 1_555
N8_15 Mn1_15 1_555 1_555
C36_15 C37_15 1_555 1_555
C37_15 H44_15 1_555 1_555
C38_15 C37_15 1_555 1_555
H45_15 C38_15 1_555 1_555
C39_15 C38_15 1_555 1_555
H46_15 C39_15 1_555 1_555
C40_15 C39_15 1_555 1_555
H47_15 C40_15 1_555 1_555
C41_15 C36_15 1_555 1_555
C42_15 O9_15 1_555 1_555
Mn4_5 O6_8 1_555 1_555
N2_15 C8_15 1_555 1_555
N2_15 Mn2_16 1_555 1_555
C6_14 C7_14 1_555 1_555
N5_8 Mn4_5 1_555 1_555
C21_16 C22_16 1_555 1_555
C22_16 C23_16 1_555 1_555
C33_15 C34_15 1_555 1_555
N7_15 N8_15 1_555 1_555
N7_15 C42_15 1_555 1_555
C40_15 C41_15 1_555 1_555
C41_15 C42_15 1_555 1_555
O1_15 C1_15 1_555 1_555
O2_16 C7_15 1_555 1_555
C1_15 C2_15 1_555 1_555
C2_15 H1_15 1_555 1_555
C3_15 C2_15 1_555 1_555
H2_15 C3_15 1_555 1_555
C4_15 C3_15 1_555 1_555
H3_16 C4_15 1_555 1_555
C5_15 C4_15 1_555 1_555
H4_15 C5_15 1_555 1_555
C6_15 C1_15 1_555 1_555
C15_15 N3_15 1_555 1_555
H17_15 C15_15 1_555 1_555
H18_15 C15_15 1_555 1_555
H19_15 C15_15 1_555 1_555
C17_16 O5_16 1_555 1_555
C18_16 C17_16 1_555 1_555
H23_16 C18_16 1_555 1_555
C19_16 C18_16 1_555 1_555
H24_16 C19_16 1_555 1_555
C30_15 N6_16 1_555 1_555
H38_15 C30_15 1_555 1_555
C31_15 C30_15 1_555 1_555
H39_15 C31_15 1_555 1_555
C32_15 C31_15 1_555 1_555
C33_16 C32_15 1_555 1_555
H40_16 C33_16 1_555 1_555
C34_16 N6_16 1_555 1_555
H41_16 C34_16 1_555 1_555
C35_15 C32_15 1_555 1_555
H42_15 C35_15 1_555 1_555
H43_15 C35_15 1_555 1_555
N9_8 C49_16 1_555 1_555
H54_15 C47_15 1_555 1_555
H55_15 C47_15 1_555 1_555
C48_15 C47_15 1_555 1_555
H56_15 C48_15 1_555 1_555
H57_15 C48_15 1_555 1_555
H58_15 C48_15 1_555 1_555
C49_16 H59_16 1_555 1_555
C50_16 C49_16 1_555 1_555
H60_16 C50_16 1_555 1_555
C51_16 C50_16 1_555 1_555
C52_16 C51_16 1_555 1_555
H61_16 C52_16 1_555 1_555
C53_16 N9_8 1_555 1_555
H62_16 C53_16 1_555 1_555
C54_16 C35_15 1_555 1_555
H63_16 C54_16 1_555 1_555
H64_16 C54_16 1_555 1_555
Mn4_5 N9_8 1_555 1_555
C5_15 C6_15 1_555 1_555
C6_15 C7_15 1_555 1_555
C33_16 C34_16 1_555 1_555
C51_16 C54_16 1_555 1_555
C52_16 C53_16 1_555 1_555
C2_16 H1_16 1_555 1_555
C3_16 C2_16 1_555 1_555
H2_16 C3_16 1_555 1_555
C4_16 C3_16 1_555 1_555
C5_16 C4_16 1_555 1_555
H4_16 C5_16 1_555 1_555
C24_16 O7_16 1_555 1_555
C25_16 C24_16 1_555 1_555
H27_16 C25_16 1_555 1_555
H28_16 C25_16 1_555 1_555
C26_16 C25_16 1_555 1_555
H29_16 C26_16 1_555 1_555
H30_16 C26_16 1_555 1_555
C27_16 C26_16 1_555 1_555
H31_16 C27_16 1_555 1_555
H32_16 C27_16 1_555 1_555
C28_16 C27_16 1_555 1_555
H33_16 C28_16 1_555 1_555
H34_16 C28_16 1_555 1_555
C29_16 C28_16 1_555 1_555
H35_16 C29_16 1_555 1_555
H36_16 C29_16 1_555 1_555
H37_16 C29_16 1_555 1_555
H38_16 C30_16 1_555 1_555
C31_16 C30_16 1_555 1_555
H39_16 C31_16 1_555 1_555
C32_16 C31_16 1_555 1_555
C35_16 C32_16 1_555 1_555
H42_16 C35_16 1_555 1_555
H43_16 C35_16 1_555 1_555
Mn4_5 O8_16 1_555 1_555
O10_16 Mn4_5 1_555 1_555
C43_16 O10_16 1_555 1_555
C44_16 C43_16 1_555 1_555
H48_16 C44_16 1_555 1_555
H49_16 C44_16 1_555 1_555
C45_16 C44_16 1_555 1_555
H50_16 C45_16 1_555 1_555
H51_16 C45_16 1_555 1_555
C46_16 C45_16 1_555 1_555
H52_16 C46_16 1_555 1_555
H53_16 C46_16 1_555 1_555
C47_16 C46_16 1_555 1_555
H54_16 C47_16 1_555 1_555
H55_16 C47_16 1_555 1_555
C48_16 C47_16 1_555 1_555
H56_16 C48_16 1_555 1_555
H57_16 C48_16 1_555 1_555
H58_16 C48_16 1_555 1_555
C36_16 C37_16 1_555 1_555
C37_16 H44_16 1_555 1_555
C38_16 C37_16 1_555 1_555
H45_16 C38_16 1_555 1_555
Mn1_16 O1_16 1_555 1_555
O1_16 C1_16 1_555 1_555
O3_16 Mn1_16 1_555 1_555
O4_16 Mn1_16 1_555 1_555
N1_16 Mn1_16 1_555 1_555
N2_16 N1_16 1_555 1_555
N3_16 C14_16 1_555 1_555
C6_16 C1_16 1_555 1_555
C7_16 N1_16 1_555 1_555
C8_16 O3_16 1_555 1_555
H7_16 C10_16 1_555 1_555
H12_16 C12_16 1_555 1_555
C14_16 O4_16 1_555 1_555
H16_16 C14_16 1_555 1_555
C15_16 N3_16 1_555 1_555
H17_16 C15_16 1_555 1_555
H18_16 C15_16 1_555 1_555
H19_16 C15_16 1_555 1_555
C16_16 N3_16 1_555 1_555
H20_16 C16_16 1_555 1_555
H21_16 C16_16 1_555 1_555
H22_16 C16_16 1_555 1_555
O9_16 Mn1_16 1_555 1_555
N8_16 Mn1_16 1_555 1_555
H46_16 C39_16 1_555 1_555
C40_16 C39_16 1_555 1_555
H47_16 C40_16 1_555 1_555
C42_16 O9_16 1_555 1_555
N2_16 C8_16 1_555 1_555
C6_16 C7_16 1_555 1_555
N7_16 N8_16 1_555 1_555
N7_16 C42_16 1_555 1_555
C40_16 C41_16 1_555 1_555
C41_16 C42_16 1_555 1_555

#END
