
###############################################################################
#
# This file contains modified crystal structure data generated from the
# MOF subset of the Cambridge Structural Database (CSD) v543 
# hosted by the Cambridge Crystallographic Data Centre (CCDC).
#
# This work is licensed under the Creative Commons
# Attribution-NonCommercial-ShareAlike 4.0 International License.
# To view a copy of this license, visit
# http://creativecommons.org/licenses/by-nc-sa/4.0/
# or send a letter to
# Creative Commons, PO Box 1866, Mountain View, CA 94042, USA.
#
# CIF created using the CSD Python API on 29 September 2022
# The structure has been converted into the P1 space group
# The structure has a 3D framework
# The original CSD entry XALDIY is in the tetragonal crystal system
# The framework has been calculated to contain at least 10.0% void space
# The void calculation uses a probe of radius 1.32A, grid spacing 0.4
#
###############################################################################

data_XALDIY
_chemical_formula_moiety         '(C864 H1024 Mn48 N144 O160)n'
_symmetry_cell_setting           triclinic
_symmetry_space_group_name_H-M   'P 1'
_symmetry_Int_Tables_number      1
_space_group_name_Hall           'P 1'
loop_
_symmetry_equiv_pos_site_id
_symmetry_equiv_pos_as_xyz
1 x,y,z
_cell_length_a                   40.669(5)
_cell_length_b                   40.669(5)
_cell_length_c                   17.351(3)
_cell_angle_alpha                90
_cell_angle_beta                 90
_cell_angle_gamma                90
_cell_volume                     28698
loop_
_atom_site_label
_atom_site_type_symbol
_atom_site_fract_x
_atom_site_fract_y
_atom_site_fract_z
Mn3 Mn 0.077530(13) 0.041450(13) 0.18354(3)
O7 O 0.09536(6) 0.01368(6) 0.25816(15)
O9 O 0.05222(6) 0.06823(5) 0.11329(14)
O10 O 0.08974(6) 0.08610(7) 0.25315(16)
N7 N 0.03446(6) 0.03712(7) 0.23045(17)
N8 N 0.00900(7) 0.05262(7) 0.18867(17)
N9 N 0.10097(10) 0.14029(10) 0.2637(3)
C39 C 0.08167(10) 0.00050(10) 0.3202(2)
C44 C 0.04852(10) 0.00569(9) 0.3429(2)
C45 C 0.02508(9) 0.02374(9) 0.2957(2)
C46 C 0.02085(9) 0.06766(8) 0.1290(2)
C48 C 0.00585(10) 0.12150(11) 0.0669(3)
H49 H 0.0291 0.1241 0.0516
H51 H 0.0145 0.1313 0.1817
C50 C 0.00589(17) 0.17656(14) 0.1339(5)
H54 H 0.0286 0.1803 0.1156
C51 C 0.0010(2) 0.19432(16) 0.2089(6)
H55 H 0.0091 0.2169 0.2041
H57 H 0.0132 0.1830 0.2497
C52 C 0.09028(11) 0.11353(12) 0.2272(3)
H58 H 0.0824 0.1164 0.1761
C53 C 0.11314(15) 0.13855(16) 0.3399(4)
H59 H 0.1358 0.1467 0.3412
H60 H 0.0994 0.1521 0.3738
H61 H 0.1126 0.1157 0.3576
C54 C 0.10171(17) 0.17206(13) 0.2273(5)
H62 H 0.0856 0.1865 0.2519
H63 H 0.1237 0.1816 0.2326
H64 H 0.0963 0.1697 0.1725
O11 O 0.11907(5) 0.04875(6) 0.12719(14)
N10 N 0.07910(7) 0.00097(7) 0.09602(17)
N4 N 0.10725(7) 0.00509(7) 0.04922(16)
C23 C 0.20777(9) 0.06710(9) 0.0191(2)
H24 H 0.2215 0.0842 0.0378
C24 C 0.17859(8) 0.06038(9) 0.0537(2)
H25 H 0.1721 0.0733 0.0968
C25 C 0.15773(8) 0.03524(8) 0.0284(2)
C26 C 0.12661(8) 0.02988(8) 0.0708(2)
C34 C 0.0142(2) 0.1065(3) 0.6721(7)
H36 H 0.0266 0.1207 0.7071
H37 H 0.0093 0.1184 0.6244
H38 H 0.0273 0.0869 0.6600
C40 C 0.10136(10) 0.97982(11) 0.3658(3)
H43 H 0.1233 0.9753 0.3504
C41 C 0.08945(14) 0.96622(13) 0.4318(3)
H44 H 0.1033 0.9522 0.4614
C42 C 0.05750(13) 0.97231(13) 0.4571(3)
H45 H 0.0497 0.9635 0.5044
C43 C 0.03741(11) 0.99162(11) 0.4113(3)
H46 H 0.0153 0.9954 0.4270
Mn1 Mn 0.960528(13) 0.038458(13) 0.24359(3)
O1 O 0.95207(6) 0.08003(6) 0.28294(15)
O2 O 0.88446(6) 0.06722(5) 0.09843(14)
N1 N 0.92608(6) 0.04409(7) 0.16690(16)
N2 N 0.92178(7) 0.01650(7) 0.11813(16)
N3 N 0.92630(8) 0.01186(8) 0.32750(17)
C1 C 0.92787(9) 0.10105(9) 0.2662(2)
C2 C 0.92556(10) 0.12919(10) 0.3113(2)
H1 H 0.9410 0.1326 0.3515
C3 C 0.90144(11) 0.15199(11) 0.2990(3)
H2 H 0.9004 0.1710 0.3307
C4 C 0.87868(10) 0.14781(10) 0.2415(3)
H3 H 0.8618 0.1636 0.2338
C5 C 0.88070(9) 0.12055(9) 0.1951(2)
H4 H 0.8651 0.1176 0.1550
C6 C 0.90546(8) 0.09686(8) 0.2059(2)
C7 C 0.90517(8) 0.06812(8) 0.1539(2)
C14 C 0.89664(10) 0.02237(11) 0.3459(2)
H16 H 0.8901 0.0436 0.3292
C15 C 0.87502(12) 0.00408(14) 0.3880(3)
H17 H 0.8543 0.0131 0.4015
Mn2 Mn 0.886128(13) 0.029786(13) 0.02532(3)
O4 O 0.85053(6) 0.00778(6) 0.06694(14)
O8 O 0.99522(6) 0.02553(6) 0.31874(13)
C47 C 0.99812(9) 0.08515(9) 0.0742(2)
H47 H 0.9998 0.0748 0.0228
H48 H 0.9752 0.0825 0.0924
H50 H 0.9920 0.1311 0.0256
C49 C 0.99992(13) 0.14022(11) 0.1412(4)
H52 H 0.9769 0.1366 0.1579
H53 H 0.9907 0.1858 0.0949
H56 H 0.9775 0.1947 0.2217
H32 H 0.8253 0.0798 0.0164
O6 O 0.92333(6) 0.04758(5) 0.96988(14)
C27 C 0.93451(9) 0.02713(9) 0.9179(2)
C28 C 0.96346(10) 0.03824(10) 0.8728(3)
H26 H 0.9731 0.0193 0.8452
H27 H 0.9803 0.0471 0.9084
C29 C 0.95356(13) 0.06534(13) 0.8134(3)
H28 H 0.9381 0.0560 0.7753
H29 H 0.9423 0.0835 0.8405
C30 C 0.98374(19) 0.0786(2) 0.7720(5)
H30 H 0.9964 0.0919 0.8095
H31 H 0.9977 0.0596 0.7580
C32 C 0.9799(3) 0.0954(3) 0.7134(7)
H33 H 0.9673 0.1154 0.7271
H34 H 0.9666 0.0827 0.6759
N11 N 0.85285(8) 0.05710(8) 0.94063(18)
Mn1_2 Mn 0.711542(13) 0.210528(13) 0.49359(3)
O1_2 O 0.66997(6) 0.20207(6) 0.53294(15)
O2_2 O 0.68278(5) 0.13446(6) 0.34843(14)
O3 O 0.75317(5) 0.21382(6) 0.44125(13)
N1_2 N 0.70591(7) 0.17608(6) 0.41690(16)
N2_2 N 0.73350(7) 0.17178(7) 0.36813(16)
N3_2 N 0.73814(8) 0.17630(8) 0.57750(17)
C1_2 C 0.64895(9) 0.17787(9) 0.5162(2)
C2_2 C 0.62081(10) 0.17556(10) 0.5613(2)
H1_2 H 0.6174 0.1910 0.6015
C3_2 C 0.59801(11) 0.15144(11) 0.5490(3)
H2_2 H 0.5790 0.1504 0.5807
C4_2 C 0.60219(10) 0.12868(10) 0.4915(3)
H3_2 H 0.5864 0.1118 0.4838
C5_2 C 0.62945(9) 0.13070(9) 0.4451(2)
H4_2 H 0.6324 0.1151 0.4050
C6_2 C 0.65314(8) 0.15546(8) 0.4559(2)
C7_2 C 0.68188(8) 0.15517(8) 0.4039(2)
C8 C 0.75659(9) 0.19216(9) 0.3860(2)
C9 C 0.78949(9) 0.19079(10) 0.3473(2)
H5 H 0.7964 0.2133 0.3331
H6 H 0.7878 0.1777 0.2995
C10 C 0.81533(10) 0.17538(12) 0.4005(3)
H7 H 0.8373 0.1783 0.3770
H8 H 0.8153 0.1873 0.4503
C11 C 0.80990(12) 0.13982(13) 0.4155(4)
H9 H 0.8099 0.1280 0.3657
H10 H 0.7879 0.1370 0.4388
C12 C 0.83548(14) 0.12376(16) 0.4688(4)
H11 H 0.8575 0.1259 0.4449
H12 H 0.8359 0.1359 0.5183
C13 C 0.8290(2) 0.08804(18) 0.4852(6)
H13 H 0.8053 0.0845 0.4913
H14 H 0.8404 0.0816 0.5326
H15 H 0.8371 0.0747 0.4422
C14_2 C 0.72763(11) 0.14664(10) 0.5959(2)
H16_2 H 0.7064 0.1401 0.5792
C15_2 C 0.74592(14) 0.12502(12) 0.6380(3)
H17_2 H 0.7369 0.1043 0.6515
C16 C 0.77716(15) 0.13285(13) 0.6609(3)
C17 C 0.78768(13) 0.16404(14) 0.6429(3)
H18 H 0.8088 0.1713 0.6594
C18 C 0.76798(12) 0.18468(12) 0.6014(3)
H19 H 0.7760 0.2060 0.5891
C19 C 0.79967(17) 0.10966(15) 0.7063(4)
H20 H 0.7959 0.0867 0.6893
H21 H 0.8229 0.1153 0.6959
Mn2_2 Mn 0.720214(13) 0.136128(13) 0.27532(3)
O4_2 O 0.74222(6) 0.10053(6) 0.31694(14)
O5 O 0.79875(6) 0.13093(5) 0.12281(14)
O6_2 O 0.70242(5) 0.17333(6) 0.21988(14)
N4_2 N 0.75509(7) 0.14275(7) 0.20078(16)
N5 N 0.75097(7) 0.17090(7) 0.15398(17)
C20 C 0.76664(9) 0.08311(9) 0.2866(2)
C21 C 0.77390(10) 0.05292(9) 0.3218(2)
H22 H 0.7616 0.0461 0.3655
C22 C 0.79851(11) 0.03292(10) 0.2940(3)
H23 H 0.8028 0.0125 0.3185
C23_2 C 0.81710(9) 0.04223(9) 0.2309(2)
H24_2 H 0.8342 0.0285 0.2122
C24_2 C 0.81038(9) 0.07141(8) 0.1963(2)
H25_2 H 0.8233 0.0779 0.1532
C25_2 C 0.78524(8) 0.09227(8) 0.2216(2)
C26_2 C 0.77988(8) 0.12339(8) 0.1792(2)
C27_2 C 0.72287(9) 0.18451(9) 0.1679(2)
C28_2 C 0.71176(10) 0.21346(10) 0.1228(3)
H26_2 H 0.7307 0.2231 0.0952
H27_2 H 0.7029 0.2303 0.1584
C29_2 C 0.68466(13) 0.20356(13) 0.0634(3)
H28_2 H 0.6940 0.1881 0.0253
H29_2 H 0.6665 0.1923 0.0905
C30_2 C 0.6714(2) 0.23374(19) 0.0220(5)
H30_2 H 0.6581 0.2464 0.0595
H31_2 H 0.6904 0.2477 0.0080
C31 C 0.82892(9) 0.07709(9) 0.9627(2)
C33 C 0.80926(11) 0.09393(12) 0.9135(3)
H35 H 0.7919 0.1073 0.9326
C35 C 0.81474(15) 0.09146(15) 0.8362(3)
C36 C 0.83916(15) 0.07038(14) 0.8114(3)
H39 H 0.8432 0.0675 0.7579
C37 C 0.85744(12) 0.05385(12) 0.8644(3)
H40 H 0.8742 0.0394 0.8467
C38 C 0.7938(2) 0.11210(19) 0.7803(3)
H41 H 0.7705 0.1062 0.7889
H42 H 0.7964 0.1355 0.7949
Mn3_2 Mn 0.708550(13) 0.327530(13) 0.43354(3)
O7_2 O 0.73632(6) 0.34536(6) 0.50816(15)
O8_2 O 0.72447(6) 0.24522(6) 0.56874(13)
O9_2 O 0.68177(5) 0.30222(6) 0.36329(14)
O10_2 O 0.66390(7) 0.33974(6) 0.50315(16)
N7_2 N 0.71288(7) 0.28446(6) 0.48045(17)
N8_2 N 0.69738(7) 0.25900(7) 0.43867(17)
N9_2 N 0.60971(10) 0.35097(10) 0.5137(3)
C39_2 C 0.74950(10) 0.33167(10) 0.5702(2)
C40_2 C 0.77018(11) 0.35136(10) 0.6158(3)
H43_2 H 0.7747 0.3733 0.6004
C41_2 C 0.78378(13) 0.33945(14) 0.6818(3)
H44_2 H 0.7978 0.3533 0.7114
C42_2 C 0.77769(13) 0.30750(13) 0.7071(3)
H45_2 H 0.7865 0.2997 0.7544
C43_2 C 0.75838(11) 0.28741(11) 0.6613(3)
H46_2 H 0.7546 0.2653 0.6770
C44_2 C 0.74431(9) 0.29852(10) 0.5929(2)
C45_2 C 0.72626(9) 0.27508(9) 0.5457(2)
C46_2 C 0.68234(8) 0.27085(9) 0.3790(2)
C47_2 C 0.66485(9) 0.24812(9) 0.3242(2)
H47_2 H 0.6752 0.2498 0.2728
H48_2 H 0.6675 0.2252 0.3424
C48_2 C 0.62850(11) 0.25585(10) 0.3169(3)
H49_2 H 0.6259 0.2791 0.3016
H50_2 H 0.6189 0.2420 0.2756
C49_2 C 0.60978(11) 0.24992(13) 0.3912(4)
H51_2 H 0.6187 0.2645 0.4317
H52_2 H 0.6134 0.2269 0.4079
C50_2 C 0.57344(14) 0.25589(17) 0.3839(5)
H53_2 H 0.5642 0.2407 0.3449
H54_2 H 0.5697 0.2786 0.3656
C51_2 C 0.55568(16) 0.2510(2) 0.4589(6)
H55_2 H 0.5331 0.2591 0.4541
H56_2 H 0.5553 0.2275 0.4717
H57_2 H 0.5670 0.2632 0.4997
C52_2 C 0.63647(12) 0.34028(11) 0.4772(3)
H58_2 H 0.6336 0.3324 0.4261
C53_2 C 0.61145(16) 0.36314(15) 0.5899(4)
H59_2 H 0.6033 0.3858 0.5912
H60_2 H 0.5979 0.3494 0.6238
H61_2 H 0.6343 0.3626 0.6076
C54_2 C 0.57794(13) 0.35171(17) 0.4773(5)
H62_2 H 0.5635 0.3356 0.5019
H63_2 H 0.5684 0.3737 0.4826
H64_2 H 0.5803 0.3463 0.4225
O11_2 O 0.70125(6) 0.36907(5) 0.37719(14)
N10_2 N 0.74903(7) 0.32910(7) 0.34602(17)
N11_2 N 0.69290(8) 0.10285(8) 0.19063(18)
Mn5 Mn 0.791450(13) 0.172470(13) 0.06646(3)
C31_2 C 0.67291(9) 0.07892(9) 0.2127(2)
H32_2 H 0.6702 0.0753 0.2664
C33_2 C 0.65607(12) 0.05926(11) 0.1635(3)
H35_2 H 0.6427 0.0419 0.1826
C35_2 C 0.65854(15) 0.06474(15) 0.0862(3)
C36_2 C 0.67962(14) 0.08916(15) 0.0614(3)
H39_2 H 0.6825 0.0932 0.0079
C37_2 C 0.69615(12) 0.10744(12) 0.1144(3)
H40_2 H 0.7106 0.1242 0.0967
C38_2 C 0.63790(19) 0.0438(2) 0.0303(3)
H41_2 H 0.6438 0.0205 0.0389
H42_2 H 0.6145 0.0464 0.0449
H45_3 H 0.4503 0.0365 0.0044
Mn1_3 Mn 0.788458(13) 0.289472(13) 0.00641(3)
O2_3 O 0.81722(5) 0.36554(6) 0.15157(14)
O3_2 O 0.74683(5) 0.28618(6) 0.05875(13)
N1_3 N 0.79409(7) 0.32392(6) 0.08310(16)
N2_3 N 0.76650(7) 0.32822(7) 0.13187(16)
C4_3 C 0.89781(10) 0.37132(10) 0.0085(3)
H3_3 H 0.9136 0.3882 0.0162
C5_3 C 0.87055(9) 0.36930(9) 0.0549(2)
H4_3 H 0.8676 0.3849 0.0950
C6_3 C 0.84686(8) 0.34454(8) 0.0441(2)
C7_3 C 0.81812(8) 0.34483(8) 0.0961(2)
C8_2 C 0.74341(9) 0.30784(9) 0.1140(2)
C9_2 C 0.71051(9) 0.30921(10) 0.1527(2)
H5_2 H 0.7036 0.2867 0.1669
H6_2 H 0.7122 0.3223 0.2005
C10_2 C 0.68467(10) 0.32462(12) 0.0995(3)
H7_2 H 0.6627 0.3217 0.1230
H8_2 H 0.6847 0.3127 0.0497
C11_2 C 0.69010(12) 0.36018(13) 0.0845(4)
H9_2 H 0.6901 0.3720 0.1343
H10_2 H 0.7121 0.3630 0.0612
C12_2 C 0.66452(14) 0.37624(16) 0.0312(4)
H11_2 H 0.6425 0.3741 0.0551
C13_2 C 0.6710(2) 0.41196(18) 0.0148(6)
H13_2 H 0.6947 0.4155 0.0087
H15_2 H 0.6629 0.4253 0.0578
Mn2_3 Mn 0.779786(13) 0.363872(13) 0.22468(3)
O4_3 O 0.75778(6) 0.39947(6) 0.18306(14)
O6_3 O 0.79758(5) 0.32667(6) 0.28012(14)
N4_3 N 0.74491(7) 0.35725(7) 0.29922(16)
C20_2 C 0.73336(9) 0.41689(9) 0.2134(2)
C21_2 C 0.72610(10) 0.44708(9) 0.1782(2)
H22_2 H 0.7384 0.4539 0.1345
C22_2 C 0.70149(11) 0.46708(10) 0.2060(3)
H23_2 H 0.6972 0.4875 0.1815
C23_3 C 0.68290(9) 0.45777(9) 0.2691(2)
H24_3 H 0.6658 0.4715 0.2878
C24_3 C 0.68962(9) 0.42859(8) 0.3037(2)
H25_3 H 0.6767 0.4221 0.3468
C25_3 C 0.71476(8) 0.40773(8) 0.2784(2)
C26_3 C 0.72012(8) 0.37661(8) 0.3208(2)
C27_3 C 0.77713(9) 0.31549(9) 0.3321(2)
C28_3 C 0.78824(10) 0.28654(10) 0.3772(3)
H26_3 H 0.7693 0.2769 0.4048
H27_3 H 0.7971 0.2697 0.3416
C29_3 C 0.81534(13) 0.29644(13) 0.4366(3)
H28_3 H 0.8060 0.3119 0.4747
H29_3 H 0.8335 0.3077 0.4095
C30_3 C 0.8286(2) 0.26626(19) 0.4780(5)
H30_3 H 0.8419 0.2536 0.4405
H31_3 H 0.8096 0.2523 0.4920
C32_2 C 0.8454(3) 0.2701(3) 0.5366(7)
H33_2 H 0.8654 0.2827 0.5229
H34_2 H 0.8327 0.2834 0.5741
C34_2 C 0.8565(3) 0.2358(2) 0.5779(7)
H36_2 H 0.8707 0.2234 0.5429
H37_2 H 0.8684 0.2407 0.6256
H38_2 H 0.8369 0.2227 0.5900
O9_3 O 0.81823(5) 0.19778(6) 0.13671(14)
N7_3 N 0.78712(7) 0.21554(6) 0.01955(17)
N8_3 N 0.80262(7) 0.24100(7) 0.06133(17)
C46_3 C 0.81766(8) 0.22915(9) 0.1210(2)
C47_3 C 0.83515(9) 0.25188(9) 0.1758(2)
H47_3 H 0.8248 0.2502 0.2272
H48_3 H 0.8325 0.2748 0.1576
C48_3 C 0.87150(11) 0.24415(10) 0.1831(3)
H49_3 H 0.8741 0.2209 0.1984
H50_3 H 0.8811 0.2580 0.2244
C49_3 C 0.89022(11) 0.25008(13) 0.1088(4)
H51_3 H 0.8813 0.2355 0.0683
H52_3 H 0.8866 0.2731 0.0921
C50_3 C 0.92656(14) 0.24411(17) 0.1161(5)
H53_3 H 0.9358 0.2593 0.1551
H54_3 H 0.9303 0.2214 0.1344
C51_3 C 0.94432(16) 0.2490(2) 0.0411(6)
H55_3 H 0.9669 0.2409 0.0459
H56_3 H 0.9447 0.2725 0.0283
H57_3 H 0.9330 0.2368 0.0003
C52_3 C 0.86353(12) 0.15972(11) 0.0228(3)
H58_3 H 0.8664 0.1676 0.0739
C54_3 C 0.92206(13) 0.14829(17) 0.0227(5)
H63_3 H 0.9316 0.1263 0.0174
H64_3 H 0.9197 0.1537 0.0775
N11_3 N 0.80710(8) 0.39715(8) 0.30937(18)
H32_3 H 0.8253 0.5798 0.9836
Mn4 Mn 0.886128(13) 0.529786(13) 0.97468(3)
Mn1_4 Mn 0.960528(13) 0.538458(13) 0.75641(3)
O1_3 O 0.95207(6) 0.58003(6) 0.71706(15)
O2_4 O 0.88446(6) 0.56722(5) 0.90157(14)
O3_3 O 0.96382(6) 0.49683(5) 0.80875(13)
N1_4 N 0.92608(6) 0.54409(7) 0.83310(16)
N2_4 N 0.92178(7) 0.51650(7) 0.88187(16)
N3_3 N 0.92630(8) 0.51186(8) 0.67250(17)
C1_3 C 0.92787(9) 0.60105(9) 0.7338(2)
C2_3 C 0.92556(10) 0.62919(10) 0.6887(2)
H1_3 H 0.9410 0.6326 0.6485
C3_3 C 0.90144(11) 0.65199(11) 0.7010(3)
H2_3 H 0.9004 0.6710 0.6693
C4_4 C 0.87868(10) 0.64781(10) 0.7585(3)
H3_4 H 0.8618 0.6636 0.7662
C5_4 C 0.88070(9) 0.62055(9) 0.8049(2)
H4_4 H 0.8651 0.6176 0.8450
C6_4 C 0.90546(8) 0.59686(8) 0.7941(2)
C7_4 C 0.90517(8) 0.56812(8) 0.8461(2)
C8_3 C 0.94216(9) 0.49341(9) 0.8640(2)
C9_3 C 0.94079(10) 0.46051(9) 0.9027(2)
H5_3 H 0.9633 0.4536 0.9169
H6_3 H 0.9277 0.4622 0.9505
C10_3 C 0.92538(12) 0.43467(10) 0.8495(3)
H7_3 H 0.9283 0.4127 0.8730
H8_3 H 0.9373 0.4347 0.7997
C11_3 C 0.88982(13) 0.44010(12) 0.8345(4)
H9_3 H 0.8780 0.4401 0.8843
H10_3 H 0.8870 0.4621 0.8112
C12_3 C 0.87376(16) 0.41452(14) 0.7812(4)
H11_3 H 0.8759 0.3925 0.8051
H12_2 H 0.8859 0.4141 0.7317
C13_3 C 0.83804(18) 0.4210(2) 0.7648(6)
H13_3 H 0.8345 0.4447 0.7587
H14_2 H 0.8316 0.4096 0.7174
H15_3 H 0.8247 0.4129 0.8078
C14_3 C 0.89664(10) 0.52237(11) 0.6541(2)
H16_3 H 0.8901 0.5436 0.6708
C15_3 C 0.87502(12) 0.50408(14) 0.6120(3)
H17_3 H 0.8543 0.5131 0.5985
C16_2 C 0.88285(13) 0.47284(15) 0.5891(3)
C17_2 C 0.91404(14) 0.46232(13) 0.6071(3)
H18_2 H 0.9213 0.4412 0.5906
C18_2 C 0.93468(12) 0.48202(12) 0.6486(3)
H19_2 H 0.9560 0.4740 0.6609
C19_2 C 0.85966(15) 0.45033(17) 0.5437(4)
H20_2 H 0.8367 0.4541 0.5607
H21_2 H 0.8653 0.4271 0.5541
O4_4 O 0.85053(6) 0.50778(6) 0.93306(14)
C20_3 C 0.83311(9) 0.48336(9) 0.9634(2)
C21_3 C 0.80292(9) 0.47610(10) 0.9282(2)
H22_3 H 0.7961 0.4884 0.8845
C22_3 C 0.78292(10) 0.45149(11) 0.9560(3)
H23_3 H 0.7625 0.4472 0.9315
C31_3 C 0.82709(9) 0.42108(9) 0.2873(2)
H32_4 H 0.8298 0.4247 0.2336
C33_3 C 0.84393(12) 0.44074(11) 0.3365(3)
H35_3 H 0.8573 0.4581 0.3174
C35_3 C 0.84146(15) 0.43526(15) 0.4138(3)
C36_3 C 0.82038(14) 0.41084(15) 0.4386(3)
H39_3 H 0.8175 0.4068 0.4921
C37_3 C 0.80385(12) 0.39256(12) 0.3856(3)
H40_3 H 0.7894 0.3758 0.4033
C38_3 C 0.86210(19) 0.4562(2) 0.4697(3)
H41_3 H 0.8562 0.4795 0.4611
H42_3 H 0.8855 0.4536 0.4551
O8_3 O 0.99522(6) 0.52553(6) 0.68126(13)
C47_4 C 0.99812(9) 0.58515(9) 0.9258(2)
H47_4 H 0.9998 0.5748 0.9772
H48_4 H 0.9752 0.5825 0.9076
H50_4 H 0.9920 0.6311 0.9744
C49_4 C 0.99992(13) 0.64022(11) 0.8588(4)
H52_4 H 0.9769 0.6366 0.8421
H53_4 H 0.9907 0.6858 0.9051
H56_4 H 0.9775 0.6947 0.7783
O3_4 O 0.96382(6) 0.99683(5) 0.19125(13)
C8_4 C 0.94216(9) 0.99341(9) 0.1360(2)
C9_4 C 0.94079(10) 0.96051(9) 0.0973(2)
H5_4 H 0.9633 0.9536 0.0831
H6_4 H 0.9277 0.9622 0.0495
C10_4 C 0.92538(12) 0.93467(10) 0.1505(3)
H7_4 H 0.9283 0.9127 0.1270
H8_4 H 0.9373 0.9347 0.2003
C11_4 C 0.88982(13) 0.94010(12) 0.1655(4)
H9_4 H 0.8780 0.9401 0.1157
H10_4 H 0.8870 0.9621 0.1888
C12_4 C 0.87376(16) 0.91452(14) 0.2188(4)
H11_4 H 0.8759 0.8925 0.1949
H12_3 H 0.8859 0.9141 0.2683
C13_4 C 0.83804(18) 0.9210(2) 0.2352(6)
H13_4 H 0.8345 0.9447 0.2413
H14_3 H 0.8316 0.9096 0.2826
H15_4 H 0.8247 0.9129 0.1922
C16_3 C 0.88285(13) 0.97284(15) 0.4109(3)
C17_3 C 0.91404(14) 0.96232(13) 0.3929(3)
H18_3 H 0.9213 0.9412 0.4094
C18_3 C 0.93468(12) 0.98202(12) 0.3514(3)
H19_3 H 0.9560 0.9740 0.3391
C19_3 C 0.85966(15) 0.95033(17) 0.4563(4)
H20_3 H 0.8367 0.9541 0.4393
H21_3 H 0.8653 0.9271 0.4459
N6 N 0.80710(8) 0.89715(8) 0.69063(18)
C20_4 C 0.83311(9) 0.98336(9) 0.0366(2)
C21_4 C 0.80292(9) 0.97610(10) 0.0718(2)
H22_4 H 0.7961 0.9884 0.1155
C22_4 C 0.78292(10) 0.95149(11) 0.0440(3)
H23_4 H 0.7625 0.9472 0.0685
C31_4 C 0.82709(9) 0.92108(9) 0.7127(2)
H32_5 H 0.8298 0.9247 0.7664
C33_4 C 0.84393(12) 0.94074(11) 0.6635(3)
H35_4 H 0.8573 0.9581 0.6826
C35_4 C 0.84146(15) 0.93526(15) 0.5862(3)
C36_4 C 0.82038(14) 0.91084(15) 0.5614(3)
H39_4 H 0.8175 0.9068 0.5079
C37_4 C 0.80385(12) 0.89256(12) 0.6144(3)
H40_4 H 0.7894 0.8758 0.5967
C38_4 C 0.86210(19) 0.9562(2) 0.5303(3)
H41_4 H 0.8562 0.9795 0.5389
H42_4 H 0.8855 0.9536 0.5449
Mn4_2 Mn 0.779786(13) 0.863872(13) 0.77532(3)
Mn1_5 Mn 0.788458(13) 0.789472(13) 0.99359(3)
O2_5 O 0.81722(5) 0.86554(6) 0.84843(14)
O3_5 O 0.74683(5) 0.78618(6) 0.94125(13)
N1_5 N 0.79409(7) 0.82392(6) 0.91690(16)
N2_5 N 0.76650(7) 0.82822(7) 0.86813(16)
C4_5 C 0.89781(10) 0.87132(10) 0.9915(3)
H3_5 H 0.9136 0.8882 0.9838
C5_5 C 0.87055(9) 0.86930(9) 0.9451(2)
H4_5 H 0.8676 0.8849 0.9050
C6_5 C 0.84686(8) 0.84454(8) 0.9559(2)
C7_5 C 0.81812(8) 0.84483(8) 0.9039(2)
C8_5 C 0.74341(9) 0.80784(9) 0.8860(2)
C9_5 C 0.71051(9) 0.80921(10) 0.8473(2)
H5_5 H 0.7036 0.7867 0.8331
H6_5 H 0.7122 0.8223 0.7995
C10_5 C 0.68467(10) 0.82462(12) 0.9005(3)
H7_5 H 0.6627 0.8217 0.8770
H8_5 H 0.6847 0.8127 0.9503
C11_5 C 0.69010(12) 0.86018(13) 0.9155(4)
H9_5 H 0.6901 0.8720 0.8657
H10_5 H 0.7121 0.8630 0.9388
C12_5 C 0.66452(14) 0.87624(16) 0.9688(4)
H11_5 H 0.6425 0.8741 0.9449
C13_5 C 0.6710(2) 0.91196(18) 0.9852(6)
H13_5 H 0.6947 0.9155 0.9913
H15_5 H 0.6629 0.9253 0.9422
O4_5 O 0.75778(6) 0.89947(6) 0.81694(14)
O5_2 O 0.70125(6) 0.86907(5) 0.62281(14)
O6_4 O 0.79758(5) 0.82667(6) 0.71988(14)
N4_4 N 0.74491(7) 0.85725(7) 0.70078(16)
N5_2 N 0.74903(7) 0.82910(7) 0.65398(17)
C20_5 C 0.73336(9) 0.91689(9) 0.7866(2)
C21_5 C 0.72610(10) 0.94708(9) 0.8218(2)
H22_5 H 0.7384 0.9539 0.8655
C22_5 C 0.70149(11) 0.96708(10) 0.7940(3)
H23_5 H 0.6972 0.9875 0.8185
C23_4 C 0.68290(9) 0.95777(9) 0.7309(2)
H24_4 H 0.6658 0.9715 0.7122
C24_4 C 0.68962(9) 0.92859(8) 0.6963(2)
H25_4 H 0.6767 0.9221 0.6532
C25_4 C 0.71476(8) 0.90773(8) 0.7216(2)
C26_4 C 0.72012(8) 0.87661(8) 0.6792(2)
C27_4 C 0.77713(9) 0.81549(9) 0.6679(2)
C28_4 C 0.78824(10) 0.78654(10) 0.6228(3)
H26_4 H 0.7693 0.7769 0.5952
H27_4 H 0.7971 0.7697 0.6584
C29_4 C 0.81534(13) 0.79644(13) 0.5634(3)
H28_4 H 0.8060 0.8119 0.5253
H29_4 H 0.8335 0.8077 0.5905
C30_4 C 0.8286(2) 0.76626(19) 0.5220(5)
H30_4 H 0.8419 0.7536 0.5595
H31_4 H 0.8096 0.7523 0.5080
C32_3 C 0.8454(3) 0.7701(3) 0.4634(7)
H33_3 H 0.8654 0.7827 0.4771
H34_3 H 0.8327 0.7834 0.4259
C34_3 C 0.8565(3) 0.7358(2) 0.4221(7)
H36_3 H 0.8707 0.7234 0.4571
H37_3 H 0.8684 0.7407 0.3744
H38_3 H 0.8369 0.7227 0.4100
Mn3_3 Mn 0.791450(13) 0.672470(13) 0.93354(3)
O9_4 O 0.81823(5) 0.69778(6) 0.86329(14)
N7_4 N 0.78712(7) 0.71554(6) 0.98045(17)
N8_4 N 0.80262(7) 0.74100(7) 0.93867(17)
C46_4 C 0.81766(8) 0.72915(9) 0.8790(2)
C47_5 C 0.83515(9) 0.75188(9) 0.8242(2)
H47_5 H 0.8248 0.7502 0.7728
H48_5 H 0.8325 0.7748 0.8424
C48_4 C 0.87150(11) 0.74415(10) 0.8169(3)
H49_4 H 0.8741 0.7209 0.8016
H50_5 H 0.8811 0.7580 0.7756
C49_5 C 0.89022(11) 0.75008(13) 0.8912(4)
H51_4 H 0.8813 0.7355 0.9317
H52_5 H 0.8866 0.7731 0.9079
C50_4 C 0.92656(14) 0.74411(17) 0.8839(5)
H53_5 H 0.9358 0.7593 0.8449
H54_4 H 0.9303 0.7214 0.8656
C51_4 C 0.94432(16) 0.7490(2) 0.9589(6)
H55_4 H 0.9669 0.7409 0.9541
H56_5 H 0.9447 0.7725 0.9717
H57_4 H 0.9330 0.7368 0.9997
C52_4 C 0.86353(12) 0.65972(11) 0.9772(3)
H58_4 H 0.8664 0.6676 0.9261
C54_4 C 0.92206(13) 0.64829(17) 0.9773(5)
H63_4 H 0.9316 0.6263 0.9826
H64_4 H 0.9197 0.6537 0.9225
O11_3 O 0.79875(6) 0.63093(5) 0.87719(14)
N10_3 N 0.75097(7) 0.67090(7) 0.84602(17)
Mn5_2 Mn 0.708550(13) 0.827530(13) 0.56646(3)
Mn3_4 Mn 0.922470(13) 0.458550(13) 0.18354(3)
O7_3 O 0.90464(6) 0.48632(6) 0.25816(15)
O9_5 O 0.94778(6) 0.43177(5) 0.11329(14)
O10_3 O 0.91026(6) 0.41390(7) 0.25315(16)
N7_5 N 0.96554(6) 0.46288(7) 0.23045(17)
N8_5 N 0.99100(7) 0.44738(7) 0.18867(17)
N9_3 N 0.89903(10) 0.35971(10) 0.2637(3)
C39_3 C 0.91833(10) 0.49950(10) 0.3202(2)
C40_3 C 0.89864(10) 0.52018(11) 0.3658(3)
H43_3 H 0.8767 0.5247 0.3504
C41_3 C 0.91055(14) 0.53378(13) 0.4318(3)
H44_3 H 0.8967 0.5478 0.4614
C42_3 C 0.94250(13) 0.52769(13) 0.4571(3)
H45_4 H 0.9503 0.5365 0.5044
C43_3 C 0.96259(11) 0.50838(11) 0.4113(3)
H46_3 H 0.9847 0.5046 0.4270
C44_3 C 0.95148(10) 0.49431(9) 0.3429(2)
C45_3 C 0.97492(9) 0.47626(9) 0.2957(2)
C46_5 C 0.97915(9) 0.43234(8) 0.1290(2)
C48_5 C 0.99415(10) 0.37850(11) 0.0669(3)
H49_5 H 0.9709 0.3759 0.0516
H51_5 H 0.9855 0.3687 0.1817
C50_5 C 0.99411(17) 0.32344(14) 0.1339(5)
H54_5 H 0.9714 0.3197 0.1156
C51_5 C 0.9990(2) 0.30568(16) 0.2089(6)
H55_5 H 0.9909 0.2831 0.2041
H57_5 H 0.9868 0.3170 0.2497
C52_5 C 0.90972(11) 0.38647(12) 0.2272(3)
H58_5 H 0.9176 0.3836 0.1761
C53_3 C 0.88686(15) 0.36145(16) 0.3399(4)
H59_3 H 0.8642 0.3533 0.3412
H60_3 H 0.9006 0.3479 0.3738
H61_3 H 0.8874 0.3843 0.3576
C54_5 C 0.89829(17) 0.32794(13) 0.2273(5)
H62_3 H 0.9144 0.3135 0.2519
H63_5 H 0.8763 0.3184 0.2326
H64_5 H 0.9037 0.3303 0.1725
O11_4 O 0.88093(5) 0.45125(6) 0.12719(14)
N10_4 N 0.92090(7) 0.49903(7) 0.09602(17)
N6_2 N 0.69290(8) 0.60285(8) 0.80937(18)
C31_5 C 0.67291(9) 0.57892(9) 0.7873(2)
H32_6 H 0.6702 0.5753 0.7336
C33_5 C 0.65607(12) 0.55926(11) 0.8365(3)
H35_5 H 0.6427 0.5419 0.8174
C35_5 C 0.65854(15) 0.56474(15) 0.9138(3)
C36_5 C 0.67962(14) 0.58916(15) 0.9386(3)
H39_5 H 0.6825 0.5932 0.9921
C37_5 C 0.69615(12) 0.60744(12) 0.8856(3)
H40_5 H 0.7106 0.6242 0.9033
C38_5 C 0.63790(19) 0.5438(2) 0.9697(3)
H41_5 H 0.6438 0.5205 0.9611
H42_5 H 0.6145 0.5464 0.9551
H45_5 H 0.4503 0.5365 0.9956
Mn4_3 Mn 0.720214(13) 0.636128(13) 0.72468(3)
Mn1_6 Mn 0.711542(13) 0.710528(13) 0.50641(3)
O1_4 O 0.66997(6) 0.70207(6) 0.46706(15)
O2_6 O 0.68278(5) 0.63446(6) 0.65157(14)
O3_6 O 0.75317(5) 0.71382(6) 0.55875(13)
N1_6 N 0.70591(7) 0.67608(6) 0.58310(16)
N2_6 N 0.73350(7) 0.67178(7) 0.63187(16)
N3_4 N 0.73814(8) 0.67630(8) 0.42250(17)
C1_4 C 0.64895(9) 0.67787(9) 0.4838(2)
C2_4 C 0.62081(10) 0.67556(10) 0.4387(2)
H1_4 H 0.6174 0.6910 0.3985
C3_4 C 0.59801(11) 0.65144(11) 0.4510(3)
H2_4 H 0.5790 0.6504 0.4193
C4_6 C 0.60219(10) 0.62868(10) 0.5085(3)
H3_6 H 0.5864 0.6118 0.5162
C5_6 C 0.62945(9) 0.63070(9) 0.5549(2)
H4_6 H 0.6324 0.6151 0.5950
C6_6 C 0.65314(8) 0.65546(8) 0.5441(2)
C7_6 C 0.68188(8) 0.65517(8) 0.5961(2)
C8_6 C 0.75659(9) 0.69216(9) 0.6140(2)
C9_6 C 0.78949(9) 0.69079(10) 0.6527(2)
H5_6 H 0.7964 0.7133 0.6669
H6_6 H 0.7878 0.6777 0.7005
C10_6 C 0.81533(10) 0.67538(12) 0.5995(3)
H7_6 H 0.8373 0.6783 0.6230
H8_6 H 0.8153 0.6873 0.5497
C11_6 C 0.80990(12) 0.63982(13) 0.5845(4)
H9_6 H 0.8099 0.6280 0.6343
H10_6 H 0.7879 0.6370 0.5612
C12_6 C 0.83548(14) 0.62376(16) 0.5312(4)
H11_6 H 0.8575 0.6259 0.5551
H12_4 H 0.8359 0.6359 0.4817
C13_6 C 0.8290(2) 0.58804(18) 0.5148(6)
H13_6 H 0.8053 0.5845 0.5087
H14_4 H 0.8404 0.5816 0.4674
H15_6 H 0.8371 0.5747 0.5578
C14_4 C 0.72763(11) 0.64664(10) 0.4041(2)
H16_4 H 0.7064 0.6401 0.4208
C15_4 C 0.74592(14) 0.62502(12) 0.3620(3)
H17_4 H 0.7369 0.6043 0.3485
C16_4 C 0.77716(15) 0.63285(13) 0.3391(3)
C17_4 C 0.78768(13) 0.66404(14) 0.3571(3)
H18_4 H 0.8088 0.6713 0.3406
C18_4 C 0.76798(12) 0.68468(12) 0.3986(3)
H19_4 H 0.7760 0.7060 0.4109
C19_4 C 0.79967(17) 0.60966(15) 0.2937(4)
H20_4 H 0.7959 0.5867 0.3107
H21_4 H 0.8229 0.6153 0.3041
O4_6 O 0.74222(6) 0.60053(6) 0.68306(14)
O6_5 O 0.70242(5) 0.67333(6) 0.78012(14)
N4_5 N 0.75509(7) 0.64275(7) 0.79922(16)
N6_3 N 0.85285(8) 0.55710(8) 0.05937(18)
C20_6 C 0.76664(9) 0.58311(9) 0.7134(2)
C21_6 C 0.77390(10) 0.55292(9) 0.6782(2)
H22_6 H 0.7616 0.5461 0.6345
C22_6 C 0.79851(11) 0.53292(10) 0.7060(3)
H23_6 H 0.8028 0.5125 0.6815
C23_5 C 0.81710(9) 0.54223(9) 0.7691(2)
H24_5 H 0.8342 0.5285 0.7878
C24_5 C 0.81038(9) 0.57141(8) 0.8037(2)
H25_5 H 0.8233 0.5779 0.8468
C25_5 C 0.78524(8) 0.59227(8) 0.7784(2)
C26_5 C 0.77988(8) 0.62339(8) 0.8208(2)
C27_5 C 0.72287(9) 0.68451(9) 0.8321(2)
C28_5 C 0.71176(10) 0.71346(10) 0.8772(3)
H26_5 H 0.7307 0.7231 0.9048
H27_5 H 0.7029 0.7303 0.8416
C29_5 C 0.68466(13) 0.70356(13) 0.9366(3)
H28_5 H 0.6940 0.6881 0.9747
H29_5 H 0.6665 0.6923 0.9095
C30_5 C 0.6714(2) 0.73374(19) 0.9780(5)
H30_5 H 0.6581 0.7464 0.9405
H31_5 H 0.6904 0.7477 0.9920
C31_6 C 0.82892(9) 0.57709(9) 0.0373(2)
C33_6 C 0.80926(11) 0.59393(12) 0.0865(3)
H35_6 H 0.7919 0.6073 0.0674
C35_6 C 0.81474(15) 0.59146(15) 0.1638(3)
C36_6 C 0.83916(15) 0.57038(14) 0.1886(3)
H39_6 H 0.8432 0.5675 0.2421
C37_6 C 0.85744(12) 0.55385(12) 0.1356(3)
H40_6 H 0.8742 0.5394 0.1533
C38_6 C 0.7938(2) 0.61210(19) 0.2197(3)
H41_6 H 0.7705 0.6062 0.2111
H42_6 H 0.7964 0.6355 0.2051
O7_4 O 0.73632(6) 0.84536(6) 0.49184(15)
O8_4 O 0.72447(6) 0.74522(6) 0.43126(13)
O9_6 O 0.68177(5) 0.80222(6) 0.63671(14)
O10_4 O 0.66390(7) 0.83974(6) 0.49685(16)
N7_6 N 0.71288(7) 0.78446(6) 0.51955(17)
N8_6 N 0.69738(7) 0.75900(7) 0.56133(17)
N9_4 N 0.60971(10) 0.85097(10) 0.4863(3)
C39_4 C 0.74950(10) 0.83167(10) 0.4298(2)
C40_4 C 0.77018(11) 0.85136(10) 0.3842(3)
H43_4 H 0.7747 0.8733 0.3996
C41_4 C 0.78378(13) 0.83945(14) 0.3182(3)
H44_4 H 0.7978 0.8533 0.2886
C42_4 C 0.77769(13) 0.80750(13) 0.2929(3)
H45_6 H 0.7865 0.7997 0.2456
C43_4 C 0.75838(11) 0.78741(11) 0.3387(3)
H46_4 H 0.7546 0.7653 0.3230
C44_4 C 0.74431(9) 0.79852(10) 0.4071(2)
C45_4 C 0.72626(9) 0.77508(9) 0.4543(2)
C46_6 C 0.68234(8) 0.77085(9) 0.6210(2)
C47_6 C 0.66485(9) 0.74812(9) 0.6758(2)
H47_6 H 0.6752 0.7498 0.7272
H48_6 H 0.6675 0.7252 0.6576
C48_6 C 0.62850(11) 0.75585(10) 0.6831(3)
H49_6 H 0.6259 0.7791 0.6984
H50_6 H 0.6189 0.7420 0.7244
C49_6 C 0.60978(11) 0.74992(13) 0.6088(4)
H51_6 H 0.6187 0.7645 0.5683
H52_6 H 0.6134 0.7269 0.5921
C50_6 C 0.57344(14) 0.75589(17) 0.6161(5)
H53_6 H 0.5642 0.7407 0.6551
H54_6 H 0.5697 0.7786 0.6344
C51_6 C 0.55568(16) 0.7510(2) 0.5411(6)
H55_6 H 0.5331 0.7591 0.5459
H56_6 H 0.5553 0.7275 0.5283
H57_6 H 0.5670 0.7632 0.5003
C52_6 C 0.63647(12) 0.84028(11) 0.5228(3)
H58_6 H 0.6336 0.8324 0.5739
C53_4 C 0.61145(16) 0.86314(15) 0.4101(4)
H59_4 H 0.6033 0.8858 0.4088
H60_4 H 0.5979 0.8494 0.3762
H61_4 H 0.6343 0.8626 0.3924
C54_6 C 0.57794(13) 0.85171(17) 0.5227(5)
H62_4 H 0.5635 0.8356 0.4981
H63_6 H 0.5684 0.8737 0.5174
H64_6 H 0.5803 0.8463 0.5775
O6_6 O 0.92333(6) 0.54758(5) 0.03012(14)
N4_6 N 0.89275(7) 0.49491(7) 0.04922(16)
C23_6 C 0.79223(9) 0.43290(9) 0.0191(2)
H24_6 H 0.7785 0.4158 0.0378
C24_6 C 0.82141(8) 0.43962(9) 0.0537(2)
H25_6 H 0.8279 0.4267 0.0968
C25_6 C 0.84227(8) 0.46476(8) 0.0284(2)
C26_6 C 0.87339(8) 0.47012(8) 0.0708(2)
C27_6 C 0.93451(9) 0.52713(9) 0.0821(2)
C28_6 C 0.96346(10) 0.53824(10) 0.1272(3)
H26_6 H 0.9731 0.5193 0.1548
H27_6 H 0.9803 0.5471 0.0916
C29_6 C 0.95356(13) 0.56534(13) 0.1866(3)
H28_6 H 0.9381 0.5560 0.2247
H29_6 H 0.9423 0.5835 0.1595
C30_6 C 0.98374(19) 0.5786(2) 0.2280(5)
H30_6 H 0.9964 0.5919 0.1905
H31_6 H 0.9977 0.5596 0.2420
C32_4 C 0.9799(3) 0.5954(3) 0.2866(7)
H33_4 H 0.9673 0.6154 0.2729
H34_4 H 0.9666 0.5827 0.3241
O5_3 O 0.88093(5) 0.95125(6) 0.87281(14)
N4_7 N 0.89275(7) 0.99491(7) 0.95078(16)
N5_3 N 0.92090(7) 0.99903(7) 0.90398(17)
C23_7 C 0.79223(9) 0.93290(9) 0.9809(2)
H24_7 H 0.7785 0.9158 0.9622
C24_7 C 0.82141(8) 0.93962(9) 0.9463(2)
H25_7 H 0.8279 0.9267 0.9032
C25_7 C 0.84227(8) 0.96476(8) 0.9716(2)
C26_7 C 0.87339(8) 0.97012(8) 0.9292(2)
Mn5_3 Mn 0.922470(13) 0.958550(13) 0.81646(3)
O7_5 O 0.90464(6) 0.98632(6) 0.74184(15)
O9_7 O 0.94778(6) 0.93177(5) 0.88671(14)
O10_5 O 0.91026(6) 0.91390(7) 0.74685(16)
N7_7 N 0.96554(6) 0.96288(7) 0.76955(17)
N8_7 N 0.99100(7) 0.94738(7) 0.81133(17)
N9_5 N 0.89903(10) 0.85971(10) 0.7363(3)
C39_5 C 0.91833(10) 0.99950(10) 0.6798(2)
C44_5 C 0.95148(10) 0.99431(9) 0.6571(2)
C45_5 C 0.97492(9) 0.97626(9) 0.7043(2)
C46_7 C 0.97915(9) 0.93234(8) 0.8710(2)
C48_7 C 0.99415(10) 0.87850(11) 0.9331(3)
H49_7 H 0.9709 0.8759 0.9484
H51_7 H 0.9855 0.8687 0.8183
C50_7 C 0.99411(17) 0.82344(14) 0.8661(5)
H54_7 H 0.9714 0.8197 0.8844
C51_7 C 0.9990(2) 0.80568(16) 0.7911(6)
H55_7 H 0.9909 0.7831 0.7959
H57_7 H 0.9868 0.8170 0.7503
C52_7 C 0.90972(11) 0.88647(12) 0.7728(3)
H58_7 H 0.9176 0.8836 0.8239
C53_5 C 0.88686(15) 0.86145(16) 0.6601(4)
H59_5 H 0.8642 0.8533 0.6588
H60_5 H 0.9006 0.8479 0.6262
H61_5 H 0.8874 0.8843 0.6424
C54_7 C 0.89829(17) 0.82794(13) 0.7727(5)
H62_5 H 0.9144 0.8135 0.7481
H63_7 H 0.8763 0.8184 0.7674
H64_7 H 0.9037 0.8303 0.8275
C32_5 C 0.6546(3) 0.2299(3) 0.9634(7)
H33_5 H 0.6346 0.2173 0.9771
H34_5 H 0.6673 0.2166 0.9259
C34_4 C 0.6435(3) 0.2642(2) 0.9221(7)
H36_4 H 0.6293 0.2766 0.9571
H37_4 H 0.6316 0.2593 0.8744
H38_4 H 0.6631 0.2773 0.9100
N6_4 N 0.30710(8) 0.39715(8) 0.19063(18)
C31_7 C 0.32709(9) 0.42108(9) 0.2127(2)
H32_7 H 0.3298 0.4247 0.2664
C33_7 C 0.34393(12) 0.44074(11) 0.1635(3)
H35_7 H 0.3573 0.4581 0.1826
C35_7 C 0.34146(15) 0.43526(15) 0.0862(3)
C36_7 C 0.32038(14) 0.41084(15) 0.0614(3)
H39_7 H 0.3175 0.4068 0.0079
C37_7 C 0.30385(12) 0.39256(12) 0.1144(3)
H40_7 H 0.2894 0.3758 0.0967
C38_7 C 0.36210(19) 0.4562(2) 0.0303(3)
H41_7 H 0.3562 0.4795 0.0389
H42_7 H 0.3855 0.4536 0.0449
H45_7 H 0.5497 0.4635 0.0044
Mn4_4 Mn 0.279786(13) 0.363872(13) 0.27532(3)
Mn1_7 Mn 0.288458(13) 0.289472(13) 0.49359(3)
O1_5 O 0.33003(6) 0.29793(6) 0.53294(15)
O2_7 O 0.31722(5) 0.36554(6) 0.34843(14)
O3_7 O 0.24683(5) 0.28618(6) 0.44125(13)
N1_7 N 0.29409(7) 0.32392(6) 0.41690(16)
N2_7 N 0.26650(7) 0.32822(7) 0.36813(16)
N3_5 N 0.26186(8) 0.32370(8) 0.57750(17)
C1_5 C 0.35105(9) 0.32213(9) 0.5162(2)
C2_5 C 0.37919(10) 0.32444(10) 0.5613(2)
H1_5 H 0.3826 0.3090 0.6015
C3_5 C 0.40199(11) 0.34856(11) 0.5490(3)
H2_5 H 0.4210 0.3496 0.5807
C4_7 C 0.39781(10) 0.37132(10) 0.4915(3)
H3_7 H 0.4136 0.3882 0.4838
C5_7 C 0.37055(9) 0.36930(9) 0.4451(2)
H4_7 H 0.3676 0.3849 0.4050
C6_7 C 0.34686(8) 0.34454(8) 0.4559(2)
C7_7 C 0.31812(8) 0.34483(8) 0.4039(2)
C8_7 C 0.24341(9) 0.30784(9) 0.3860(2)
C9_7 C 0.21051(9) 0.30921(10) 0.3473(2)
H5_7 H 0.2036 0.2867 0.3331
H6_7 H 0.2122 0.3223 0.2995
C10_7 C 0.18467(10) 0.32462(12) 0.4005(3)
H7_7 H 0.1627 0.3217 0.3770
H8_7 H 0.1847 0.3127 0.4503
C11_7 C 0.19010(12) 0.36018(13) 0.4155(4)
H9_7 H 0.1901 0.3720 0.3657
H10_7 H 0.2121 0.3630 0.4388
C12_7 C 0.16452(14) 0.37624(16) 0.4688(4)
H11_7 H 0.1425 0.3741 0.4449
H12_5 H 0.1641 0.3641 0.5183
C13_7 C 0.1710(2) 0.41196(18) 0.4852(6)
H13_7 H 0.1947 0.4155 0.4913
H14_5 H 0.1596 0.4184 0.5326
H15_7 H 0.1629 0.4253 0.4422
C14_5 C 0.27237(11) 0.35336(10) 0.5959(2)
H16_5 H 0.2936 0.3599 0.5792
C15_5 C 0.25408(14) 0.37498(12) 0.6380(3)
H17_5 H 0.2631 0.3957 0.6515
C16_5 C 0.22284(15) 0.36715(13) 0.6609(3)
C17_5 C 0.21232(13) 0.33596(14) 0.6429(3)
H18_5 H 0.1912 0.3287 0.6594
C18_5 C 0.23202(12) 0.31532(12) 0.6014(3)
H19_5 H 0.2240 0.2940 0.5891
C19_5 C 0.20033(17) 0.39034(15) 0.7063(4)
H20_5 H 0.2041 0.4133 0.6893
H21_5 H 0.1771 0.3847 0.6959
O4_7 O 0.25778(6) 0.39947(6) 0.31694(14)
O5_4 O 0.20125(6) 0.36907(5) 0.12281(14)
O6_7 O 0.29758(5) 0.32667(6) 0.21988(14)
N4_8 N 0.24491(7) 0.35725(7) 0.20078(16)
N5_4 N 0.24903(7) 0.32910(7) 0.15398(17)
N6_5 N 0.14715(8) 0.44290(8) 0.94063(18)
C20_7 C 0.23336(9) 0.41689(9) 0.2866(2)
C21_7 C 0.22610(10) 0.44708(9) 0.3218(2)
H22_7 H 0.2384 0.4539 0.3655
C22_7 C 0.20149(11) 0.46708(10) 0.2940(3)
H23_7 H 0.1972 0.4875 0.3185
C23_8 C 0.18290(9) 0.45777(9) 0.2309(2)
H24_8 H 0.1658 0.4715 0.2122
C24_8 C 0.18962(9) 0.42859(8) 0.1963(2)
H25_8 H 0.1767 0.4221 0.1532
C25_8 C 0.21476(8) 0.40773(8) 0.2216(2)
C26_8 C 0.22012(8) 0.37661(8) 0.1792(2)
C27_7 C 0.27713(9) 0.31549(9) 0.1679(2)
C28_7 C 0.28824(10) 0.28654(10) 0.1228(3)
H26_7 H 0.2693 0.2769 0.0952
H27_7 H 0.2971 0.2697 0.1584
C29_7 C 0.31534(13) 0.29644(13) 0.0634(3)
H28_7 H 0.3060 0.3119 0.0253
H29_7 H 0.3335 0.3077 0.0905
C30_7 C 0.3286(2) 0.26626(19) 0.0220(5)
H30_7 H 0.3419 0.2536 0.0595
H31_7 H 0.3096 0.2523 0.0080
C31_8 C 0.17108(9) 0.42291(9) 0.9627(2)
C33_8 C 0.19074(11) 0.40607(12) 0.9135(3)
H35_8 H 0.2081 0.3927 0.9326
C35_8 C 0.18526(15) 0.40854(15) 0.8362(3)
C36_8 C 0.16084(15) 0.42962(14) 0.8114(3)
H39_8 H 0.1568 0.4325 0.7579
C37_8 C 0.14256(12) 0.44615(12) 0.8644(3)
H40_8 H 0.1258 0.4606 0.8467
C38_8 C 0.2062(2) 0.38790(19) 0.7803(3)
H41_8 H 0.2295 0.3938 0.7889
H42_8 H 0.2036 0.3645 0.7949
Mn3_5 Mn 0.291450(13) 0.172470(13) 0.43354(3)
O7_6 O 0.26368(6) 0.15464(6) 0.50816(15)
O8_5 O 0.27553(6) 0.25478(6) 0.56874(13)
O9_8 O 0.31823(5) 0.19778(6) 0.36329(14)
O10_6 O 0.33610(7) 0.16026(6) 0.50315(16)
N7_8 N 0.28712(7) 0.21554(6) 0.48045(17)
N8_8 N 0.30262(7) 0.24100(7) 0.43867(17)
N9_6 N 0.39029(10) 0.14903(10) 0.5137(3)
C39_6 C 0.25050(10) 0.16833(10) 0.5702(2)
C40_5 C 0.22982(11) 0.14864(10) 0.6158(3)
H43_5 H 0.2253 0.1267 0.6004
C41_5 C 0.21622(13) 0.16055(14) 0.6818(3)
H44_5 H 0.2022 0.1467 0.7114
C42_5 C 0.22231(13) 0.19250(13) 0.7071(3)
H45_8 H 0.2135 0.2003 0.7544
C43_5 C 0.24162(11) 0.21259(11) 0.6613(3)
H46_5 H 0.2454 0.2347 0.6770
C44_6 C 0.25569(9) 0.20148(10) 0.5929(2)
C45_6 C 0.27374(9) 0.22492(9) 0.5457(2)
C46_8 C 0.31766(8) 0.22915(9) 0.3790(2)
C47_7 C 0.33515(9) 0.25188(9) 0.3242(2)
H47_7 H 0.3248 0.2502 0.2728
H48_7 H 0.3325 0.2748 0.3424
C48_8 C 0.37150(11) 0.24415(10) 0.3169(3)
H49_8 H 0.3741 0.2209 0.3016
H50_7 H 0.3811 0.2580 0.2756
C49_7 C 0.39022(11) 0.25008(13) 0.3912(4)
H51_8 H 0.3813 0.2355 0.4317
H52_7 H 0.3866 0.2731 0.4079
C50_8 C 0.42656(14) 0.24411(17) 0.3839(5)
H53_7 H 0.4358 0.2593 0.3449
H54_8 H 0.4303 0.2214 0.3656
C51_8 C 0.44432(16) 0.2490(2) 0.4589(6)
H55_8 H 0.4669 0.2409 0.4541
H56_7 H 0.4447 0.2725 0.4717
H57_8 H 0.4330 0.2368 0.4997
C52_8 C 0.36353(12) 0.15972(11) 0.4772(3)
H58_8 H 0.3664 0.1676 0.4261
C53_6 C 0.38855(16) 0.13686(15) 0.5899(4)
H59_6 H 0.3967 0.1142 0.5912
H60_6 H 0.4021 0.1506 0.6238
H61_6 H 0.3657 0.1374 0.6076
C54_8 C 0.42206(13) 0.14829(17) 0.4773(5)
H62_6 H 0.4365 0.1644 0.5019
H63_8 H 0.4316 0.1263 0.4826
H64_8 H 0.4197 0.1537 0.4225
O11_5 O 0.29875(6) 0.13093(5) 0.37719(14)
N10_5 N 0.25097(7) 0.17090(7) 0.34602(17)
Mn5_4 Mn 0.208550(13) 0.327530(13) 0.06646(3)
O5_5 O 0.11907(5) 0.54875(6) 0.87281(14)
O6_8 O 0.07667(6) 0.45242(5) 0.96988(14)
N4_9 N 0.10725(7) 0.50509(7) 0.95078(16)
N5_5 N 0.07910(7) 0.50097(7) 0.90398(17)
C23_9 C 0.20777(9) 0.56710(9) 0.9809(2)
H24_9 H 0.2215 0.5842 0.9622
C24_9 C 0.17859(8) 0.56038(9) 0.9463(2)
H25_9 H 0.1721 0.5733 0.9032
C25_9 C 0.15773(8) 0.53524(8) 0.9716(2)
C26_9 C 0.12661(8) 0.52988(8) 0.9292(2)
C27_8 C 0.06549(9) 0.47287(9) 0.9179(2)
C28_8 C 0.03654(10) 0.46176(10) 0.8728(3)
H26_8 H 0.0269 0.4807 0.8452
H27_8 H 0.0197 0.4529 0.9084
C29_8 C 0.04644(13) 0.43466(13) 0.8134(3)
H28_8 H 0.0619 0.4440 0.7753
H29_8 H 0.0577 0.4165 0.8405
C30_8 C 0.01626(19) 0.4214(2) 0.7720(5)
H30_8 H 0.0036 0.4081 0.8095
H31_8 H 0.0023 0.4404 0.7580
C32_6 C 0.0201(3) 0.4046(3) 0.7134(7)
H33_6 H 0.0327 0.3846 0.7271
H34_6 H 0.0334 0.4173 0.6759
Mn5_5 Mn 0.077530(13) 0.541450(13) 0.81646(3)
O3_8 O 0.03618(6) 0.00317(5) 0.80875(13)
C8_8 C 0.05784(9) 0.00659(9) 0.8640(2)
C9_8 C 0.05921(10) 0.03949(9) 0.9027(2)
H5_8 H 0.0367 0.0464 0.9169
H6_8 H 0.0723 0.0378 0.9505
C10_8 C 0.07462(12) 0.06533(10) 0.8495(3)
H7_8 H 0.0717 0.0873 0.8730
H8_8 H 0.0627 0.0653 0.7997
C11_8 C 0.11018(13) 0.05990(12) 0.8345(4)
H9_8 H 0.1220 0.0599 0.8843
H10_8 H 0.1130 0.0379 0.8112
C12_8 C 0.12624(16) 0.08548(14) 0.7812(4)
H11_8 H 0.1241 0.1075 0.8051
H12_6 H 0.1141 0.0859 0.7317
C13_8 C 0.16196(18) 0.0790(2) 0.7648(6)
H13_8 H 0.1655 0.0553 0.7587
H14_6 H 0.1684 0.0904 0.7174
H15_8 H 0.1753 0.0871 0.8078
C16_6 C 0.11715(13) 0.02716(15) 0.5891(3)
C17_6 C 0.08596(14) 0.03768(13) 0.6071(3)
H18_6 H 0.0787 0.0588 0.5906
C18_6 C 0.06532(12) 0.01798(12) 0.6486(3)
H19_6 H 0.0440 0.0260 0.6609
C19_6 C 0.14034(15) 0.04967(17) 0.5437(4)
H20_6 H 0.1633 0.0459 0.5607
H21_6 H 0.1347 0.0729 0.5541
N6_6 N 0.19290(8) 0.10285(8) 0.30937(18)
C20_8 C 0.16689(9) 0.01664(9) 0.9634(2)
C21_8 C 0.19708(9) 0.02390(10) 0.9282(2)
H22_8 H 0.2039 0.0116 0.8845
C22_8 C 0.21708(10) 0.04851(11) 0.9560(3)
H23_8 H 0.2375 0.0528 0.9315
C31_9 C 0.17291(9) 0.07892(9) 0.2873(2)
H32_8 H 0.1702 0.0753 0.2336
C33_9 C 0.15607(12) 0.05926(11) 0.3365(3)
H35_9 H 0.1427 0.0419 0.3174
C35_9 C 0.15854(15) 0.06474(15) 0.4138(3)
C36_9 C 0.17962(14) 0.08916(15) 0.4386(3)
H39_9 H 0.1825 0.0932 0.4921
C37_9 C 0.19615(12) 0.10744(12) 0.3856(3)
H40_9 H 0.2106 0.1242 0.4033
C38_9 C 0.13790(19) 0.0438(2) 0.4697(3)
H41_9 H 0.1438 0.0205 0.4611
H42_9 H 0.1145 0.0464 0.4551
Mn4_5 Mn 0.220214(13) 0.136128(13) 0.22468(3)
Mn1_8 Mn 0.211542(13) 0.210528(13) 0.00641(3)
O2_8 O 0.18278(5) 0.13446(6) 0.15157(14)
O3_9 O 0.25317(5) 0.21382(6) 0.05875(13)
N1_8 N 0.20591(7) 0.17608(6) 0.08310(16)
N2_8 N 0.23350(7) 0.17178(7) 0.13187(16)
C4_8 C 0.10219(10) 0.12868(10) 0.0085(3)
H3_8 H 0.0864 0.1118 0.0162
C5_8 C 0.12945(9) 0.13070(9) 0.0549(2)
H4_8 H 0.1324 0.1151 0.0950
C6_8 C 0.15314(8) 0.15546(8) 0.0441(2)
C7_8 C 0.18188(8) 0.15517(8) 0.0961(2)
C8_9 C 0.25659(9) 0.19216(9) 0.1140(2)
C9_9 C 0.28949(9) 0.19079(10) 0.1527(2)
H5_9 H 0.2964 0.2133 0.1669
H6_9 H 0.2878 0.1777 0.2005
C10_9 C 0.31533(10) 0.17538(12) 0.0995(3)
H7_9 H 0.3373 0.1783 0.1230
H8_9 H 0.3153 0.1873 0.0497
C11_9 C 0.30990(12) 0.13982(13) 0.0845(4)
H9_9 H 0.3099 0.1280 0.1343
H10_9 H 0.2879 0.1370 0.0612
C12_9 C 0.33548(14) 0.12376(16) 0.0312(4)
H11_9 H 0.3575 0.1259 0.0551
C13_9 C 0.3290(2) 0.08804(18) 0.0148(6)
H13_9 H 0.3053 0.0845 0.0087
H15_9 H 0.3371 0.0747 0.0578
O4_8 O 0.24222(6) 0.10053(6) 0.18306(14)
O6_9 O 0.20242(5) 0.17333(6) 0.28012(14)
N4_10 N 0.25509(7) 0.14275(7) 0.29922(16)
C20_9 C 0.26664(9) 0.08311(9) 0.2134(2)
C21_9 C 0.27390(10) 0.05292(9) 0.1782(2)
H22_9 H 0.2616 0.0461 0.1345
C22_9 C 0.29851(11) 0.03292(10) 0.2060(3)
H23_9 H 0.3028 0.0125 0.1815
C23_10 C 0.31710(9) 0.04223(9) 0.2691(2)
H24_10 H 0.3342 0.0285 0.2878
C24_10 C 0.31038(9) 0.07141(8) 0.3037(2)
H25_10 H 0.3233 0.0779 0.3468
C25_10 C 0.28524(8) 0.09227(8) 0.2784(2)
C26_10 C 0.27988(8) 0.12339(8) 0.3208(2)
C27_9 C 0.22287(9) 0.18451(9) 0.3321(2)
C28_9 C 0.21176(10) 0.21346(10) 0.3772(3)
H26_9 H 0.2307 0.2231 0.4048
H27_9 H 0.2029 0.2303 0.3416
C29_9 C 0.18466(13) 0.20356(13) 0.4366(3)
H28_9 H 0.1940 0.1881 0.4747
H29_9 H 0.1665 0.1923 0.4095
C30_9 C 0.1714(2) 0.23374(19) 0.4780(5)
H30_9 H 0.1581 0.2464 0.4405
H31_9 H 0.1904 0.2477 0.4920
C32_7 C 0.1546(3) 0.2299(3) 0.5366(7)
H33_7 H 0.1346 0.2173 0.5229
H34_7 H 0.1673 0.2166 0.5741
C34_5 C 0.1435(3) 0.2642(2) 0.5779(7)
H36_5 H 0.1293 0.2766 0.5429
H37_5 H 0.1316 0.2593 0.6256
H38_5 H 0.1631 0.2773 0.5900
O9_9 O 0.18177(5) 0.30222(6) 0.13671(14)
N7_9 N 0.21288(7) 0.28446(6) 0.01955(17)
N8_9 N 0.19738(7) 0.25900(7) 0.06133(17)
C46_9 C 0.18234(8) 0.27085(9) 0.1210(2)
C47_8 C 0.16485(9) 0.24812(9) 0.1758(2)
H47_8 H 0.1752 0.2498 0.2272
H48_8 H 0.1675 0.2252 0.1576
C48_9 C 0.12850(11) 0.25585(10) 0.1831(3)
H49_9 H 0.1259 0.2791 0.1984
H50_8 H 0.1189 0.2420 0.2244
C49_8 C 0.10978(11) 0.24992(13) 0.1088(4)
H51_9 H 0.1187 0.2645 0.0683
H52_8 H 0.1134 0.2269 0.0921
C50_9 C 0.07344(14) 0.25589(17) 0.1161(5)
H53_8 H 0.0642 0.2407 0.1551
H54_9 H 0.0697 0.2786 0.1344
C51_9 C 0.05568(16) 0.2510(2) 0.0411(6)
H55_9 H 0.0331 0.2591 0.0459
H56_8 H 0.0553 0.2275 0.0283
H57_9 H 0.0670 0.2632 0.0003
C52_9 C 0.13647(12) 0.34028(11) 0.0228(3)
H58_9 H 0.1336 0.3324 0.0739
C54_9 C 0.07794(13) 0.35171(17) 0.0227(5)
H63_9 H 0.0684 0.3737 0.0174
H64_9 H 0.0803 0.3463 0.0775
O7_7 O 0.09536(6) 0.51368(6) 0.74184(15)
O9_10 O 0.05222(6) 0.56823(5) 0.88671(14)
O10_7 O 0.08974(6) 0.58610(7) 0.74685(16)
N7_10 N 0.03446(6) 0.53712(7) 0.76955(17)
N8_10 N 0.00900(7) 0.55262(7) 0.81133(17)
N9_7 N 0.10097(10) 0.64029(10) 0.7363(3)
C39_7 C 0.08167(10) 0.50050(10) 0.6798(2)
C40_6 C 0.10136(10) 0.47982(11) 0.6342(3)
H43_6 H 0.1233 0.4753 0.6496
C41_6 C 0.08945(14) 0.46622(13) 0.5682(3)
H44_6 H 0.1033 0.4522 0.5386
C42_6 C 0.05750(13) 0.47231(13) 0.5429(3)
H45_9 H 0.0497 0.4635 0.4956
C43_6 C 0.03741(11) 0.49162(11) 0.5887(3)
H46_6 H 0.0153 0.4954 0.5730
C44_7 C 0.04852(10) 0.50569(9) 0.6571(2)
C45_7 C 0.02508(9) 0.52374(9) 0.7043(2)
C46_10 C 0.02085(9) 0.56766(8) 0.8710(2)
C48_10 C 0.00585(10) 0.62150(11) 0.9331(3)
H49_10 H 0.0291 0.6241 0.9484
H51_10 H 0.0145 0.6313 0.8183
C50_10 C 0.00589(17) 0.67656(14) 0.8661(5)
H54_10 H 0.0286 0.6803 0.8844
C51_10 C 0.0010(2) 0.69432(16) 0.7911(6)
H55_10 H 0.0091 0.7169 0.7959
H57_10 H 0.0132 0.6830 0.7503
C52_10 C 0.09028(11) 0.61353(12) 0.7728(3)
H58_10 H 0.0824 0.6164 0.8239
C53_7 C 0.11314(15) 0.63855(16) 0.6601(4)
H59_7 H 0.1358 0.6467 0.6588
H60_7 H 0.0994 0.6521 0.6262
H61_7 H 0.1126 0.6157 0.6424
C54_10 C 0.10171(17) 0.67206(13) 0.7727(5)
H62_7 H 0.0856 0.6865 0.7481
H63_10 H 0.1237 0.6816 0.7674
H64_10 H 0.0963 0.6697 0.8275
Mn1_9 Mn 0.460528(13) 0.538458(13) 0.74359(3)
O1_6 O 0.45207(6) 0.58003(6) 0.78294(15)
O2_9 O 0.38446(6) 0.56722(5) 0.59843(14)
O3_10 O 0.46382(6) 0.49683(5) 0.69125(13)
N1_9 N 0.42608(6) 0.54409(7) 0.66690(16)
N2_9 N 0.42178(7) 0.51650(7) 0.61813(16)
N3_6 N 0.42630(8) 0.51186(8) 0.82750(17)
C1_6 C 0.42787(9) 0.60105(9) 0.7662(2)
C2_6 C 0.42556(10) 0.62919(10) 0.8113(2)
H1_6 H 0.4410 0.6326 0.8515
C3_6 C 0.40144(11) 0.65199(11) 0.7990(3)
H2_6 H 0.4004 0.6710 0.8307
C4_9 C 0.37868(10) 0.64781(10) 0.7415(3)
H3_9 H 0.3618 0.6636 0.7338
C5_9 C 0.38070(9) 0.62055(9) 0.6951(2)
H4_9 H 0.3651 0.6176 0.6550
C6_9 C 0.40546(8) 0.59686(8) 0.7059(2)
C7_9 C 0.40517(8) 0.56812(8) 0.6539(2)
C8_10 C 0.44216(9) 0.49341(9) 0.6360(2)
C9_10 C 0.44079(10) 0.46051(9) 0.5973(2)
H5_10 H 0.4633 0.4536 0.5831
H6_10 H 0.4277 0.4622 0.5495
C10_10 C 0.42538(12) 0.43467(10) 0.6505(3)
H7_10 H 0.4283 0.4127 0.6270
H8_10 H 0.4373 0.4347 0.7003
C11_10 C 0.38982(13) 0.44010(12) 0.6655(4)
H9_10 H 0.3780 0.4401 0.6157
H10_10 H 0.3870 0.4621 0.6888
C12_10 C 0.37376(16) 0.41452(14) 0.7188(4)
H11_10 H 0.3759 0.3925 0.6949
H12_7 H 0.3859 0.4141 0.7683
C13_10 C 0.33804(18) 0.4210(2) 0.7352(6)
H13_10 H 0.3345 0.4447 0.7413
H14_7 H 0.3316 0.4096 0.7826
H15_10 H 0.3247 0.4129 0.6922
C14_6 C 0.39664(10) 0.52237(11) 0.8459(2)
H16_6 H 0.3901 0.5436 0.8292
C15_6 C 0.37502(12) 0.50408(14) 0.8880(3)
H17_6 H 0.3543 0.5131 0.9015
C16_7 C 0.38285(13) 0.47284(15) 0.9109(3)
C17_7 C 0.41404(14) 0.46232(13) 0.8929(3)
H18_7 H 0.4213 0.4412 0.9094
C18_7 C 0.43468(12) 0.48202(12) 0.8514(3)
H19_7 H 0.4560 0.4740 0.8391
C19_7 C 0.35966(15) 0.45033(17) 0.9563(4)
H20_7 H 0.3367 0.4541 0.9393
H21_7 H 0.3653 0.4271 0.9459
Mn2_4 Mn 0.386128(13) 0.529786(13) 0.52532(3)
O4_9 O 0.35053(6) 0.50778(6) 0.56694(14)
O5_6 O 0.38093(5) 0.45125(6) 0.37281(14)
O6_10 O 0.42333(6) 0.54758(5) 0.46988(14)
N4_11 N 0.39275(7) 0.49491(7) 0.45078(16)
N5_6 N 0.42090(7) 0.49903(7) 0.40398(17)
C20_10 C 0.33311(9) 0.48336(9) 0.5366(2)
C21_10 C 0.30292(9) 0.47610(10) 0.5718(2)
H22_10 H 0.2961 0.4884 0.6155
C22_10 C 0.28292(10) 0.45149(11) 0.5440(3)
H23_10 H 0.2625 0.4472 0.5685
C23_11 C 0.29223(9) 0.43290(9) 0.4809(2)
H24_11 H 0.2785 0.4158 0.4622
C24_11 C 0.32141(8) 0.43962(9) 0.4463(2)
H25_11 H 0.3279 0.4267 0.4032
C25_11 C 0.34227(8) 0.46476(8) 0.4716(2)
C26_11 C 0.37339(8) 0.47012(8) 0.4292(2)
C27_10 C 0.43451(9) 0.52713(9) 0.4179(2)
C28_10 C 0.46346(10) 0.53824(10) 0.3728(3)
H26_10 H 0.4731 0.5193 0.3452
H27_10 H 0.4803 0.5471 0.4084
C29_10 C 0.45356(13) 0.56534(13) 0.3134(3)
H28_10 H 0.4381 0.5560 0.2753
H29_10 H 0.4423 0.5835 0.3405
C30_10 C 0.48374(19) 0.5786(2) 0.2720(5)
H30_10 H 0.4964 0.5919 0.3095
H31_10 H 0.4977 0.5596 0.2580
C32_8 C 0.4799(3) 0.5954(3) 0.2134(7)
H33_8 H 0.4673 0.6154 0.2271
H34_8 H 0.4666 0.5827 0.1759
C34_6 C 0.5142(2) 0.6065(3) 0.1721(7)
H36_6 H 0.5266 0.6207 0.2071
H37_6 H 0.5093 0.6184 0.1244
H38_6 H 0.5273 0.5869 0.1600
Mn3_6 Mn 0.577530(13) 0.541450(13) 0.68354(3)
O7_8 O 0.59536(6) 0.51368(6) 0.75816(15)
O8_6 O 0.49522(6) 0.52553(6) 0.81874(13)
O9_11 O 0.55222(6) 0.56823(5) 0.61329(14)
O10_8 O 0.58974(6) 0.58610(7) 0.75315(16)
N7_11 N 0.53446(6) 0.53712(7) 0.73045(17)
N8_11 N 0.50900(7) 0.55262(7) 0.68867(17)
N9_8 N 0.60097(10) 0.64029(10) 0.7637(3)
C39_8 C 0.58167(10) 0.50050(10) 0.8202(2)
C40_7 C 0.60136(10) 0.47982(11) 0.8658(3)
H43_7 H 0.6233 0.4753 0.8504
C41_7 C 0.58945(14) 0.46622(13) 0.9318(3)
H44_7 H 0.6033 0.4522 0.9614
C42_7 C 0.55750(13) 0.47231(13) 0.9571(3)
C43_7 C 0.53741(11) 0.49162(11) 0.9113(3)
H46_7 H 0.5153 0.4954 0.9270
C44_8 C 0.54852(10) 0.50569(9) 0.8429(2)
C45_8 C 0.52508(9) 0.52374(9) 0.7957(2)
C46_11 C 0.52085(9) 0.56766(8) 0.6290(2)
C47_9 C 0.49812(9) 0.58515(9) 0.5742(2)
H47_9 H 0.4998 0.5748 0.5228
H48_9 H 0.4752 0.5825 0.5924
C48_11 C 0.50585(10) 0.62150(11) 0.5669(3)
H49_11 H 0.5291 0.6241 0.5516
H50_9 H 0.4920 0.6311 0.5256
C49_9 C 0.49992(13) 0.64022(11) 0.6412(4)
H51_11 H 0.5145 0.6313 0.6817
H52_9 H 0.4769 0.6366 0.6579
C50_11 C 0.50589(17) 0.67656(14) 0.6339(5)
H53_9 H 0.4907 0.6858 0.5949
H54_11 H 0.5286 0.6803 0.6156
C51_11 C 0.5010(2) 0.69432(16) 0.7089(6)
H55_11 H 0.5091 0.7169 0.7041
H56_9 H 0.4775 0.6947 0.7217
H57_11 H 0.5132 0.6830 0.7497
C52_11 C 0.59028(11) 0.61353(12) 0.7272(3)
H58_11 H 0.5824 0.6164 0.6761
C53_8 C 0.61314(15) 0.63855(16) 0.8399(4)
H59_8 H 0.6358 0.6467 0.8412
H60_8 H 0.5994 0.6521 0.8738
H61_8 H 0.6126 0.6157 0.8576
C54_11 C 0.60171(17) 0.67206(13) 0.7273(5)
H62_8 H 0.5856 0.6865 0.7519
H63_11 H 0.6237 0.6816 0.7326
H64_11 H 0.5963 0.6697 0.6725
O11_6 O 0.61907(5) 0.54875(6) 0.62719(14)
N10_6 N 0.57910(7) 0.50097(7) 0.59602(17)
N11_4 N 0.35285(8) 0.55710(8) 0.44063(18)
Mn5_6 Mn 0.422470(13) 0.458550(13) 0.31646(3)
O1_7 O 0.16997(6) 0.70207(6) 0.03294(15)
N3_7 N 0.23814(8) 0.67630(8) 0.07750(17)
C1_7 C 0.14895(9) 0.67787(9) 0.0162(2)
C2_7 C 0.12081(10) 0.67556(10) 0.0613(2)
H1_7 H 0.1174 0.6910 0.1015
C3_7 C 0.09801(11) 0.65144(11) 0.0490(3)
H2_7 H 0.0790 0.6504 0.0807
H12_8 H 0.3359 0.6359 0.0183
H14_8 H 0.3404 0.5816 0.0326
C14_7 C 0.22763(11) 0.64664(10) 0.0959(2)
H16_7 H 0.2064 0.6401 0.0792
C15_7 C 0.24592(14) 0.62502(12) 0.1380(3)
H17_7 H 0.2369 0.6043 0.1515
C16_8 C 0.27716(15) 0.63285(13) 0.1609(3)
C17_8 C 0.28768(13) 0.66404(14) 0.1429(3)
H18_8 H 0.3088 0.6713 0.1594
C18_8 C 0.26798(12) 0.68468(12) 0.1014(3)
H19_8 H 0.2760 0.7060 0.0891
C19_8 C 0.29967(17) 0.60966(15) 0.2063(4)
H20_8 H 0.2959 0.5867 0.1893
H21_8 H 0.3229 0.6153 0.1959
C31_10 C 0.32892(9) 0.57709(9) 0.4627(2)
H32_9 H 0.3253 0.5798 0.5164
C33_10 C 0.30926(11) 0.59393(12) 0.4135(3)
H35_10 H 0.2919 0.6073 0.4326
C35_10 C 0.31474(15) 0.59146(15) 0.3362(3)
C36_10 C 0.33916(15) 0.57038(14) 0.3114(3)
H39_10 H 0.3432 0.5675 0.2579
C37_10 C 0.35744(12) 0.55385(12) 0.3644(3)
H40_10 H 0.3742 0.5394 0.3467
C38_10 C 0.2938(2) 0.61210(19) 0.2803(3)
H41_10 H 0.2705 0.6062 0.2889
H42_10 H 0.2964 0.6355 0.2949
O7_9 O 0.23632(6) 0.84536(6) 0.00816(15)
O8_7 O 0.22447(6) 0.74522(6) 0.06874(13)
O10_9 O 0.16390(7) 0.83974(6) 0.00315(16)
N9_9 N 0.10971(10) 0.85097(10) 0.0137(3)
C39_9 C 0.24950(10) 0.83167(10) 0.0702(2)
C40_8 C 0.27018(11) 0.85136(10) 0.1158(3)
H43_8 H 0.2747 0.8733 0.1004
C41_8 C 0.28378(13) 0.83945(14) 0.1818(3)
H44_8 H 0.2978 0.8533 0.2114
C42_8 C 0.27769(13) 0.80750(13) 0.2071(3)
H45_10 H 0.2865 0.7997 0.2544
C43_8 C 0.25838(11) 0.78741(11) 0.1613(3)
H46_8 H 0.2546 0.7653 0.1770
C44_9 C 0.24431(9) 0.79852(10) 0.0929(2)
C45_9 C 0.22626(9) 0.77508(9) 0.0457(2)
C53_9 C 0.11145(16) 0.86314(15) 0.0899(4)
H59_9 H 0.1033 0.8858 0.0912
H60_9 H 0.0979 0.8494 0.1238
H61_9 H 0.1343 0.8626 0.1076
H62_9 H 0.0635 0.8356 0.0019
Mn1_10 Mn 0.539472(13) 0.461542(13) 0.25641(3)
O1_8 O 0.54793(6) 0.41997(6) 0.21706(15)
O2_10 O 0.61554(6) 0.43278(5) 0.40157(14)
O3_11 O 0.53618(6) 0.50317(5) 0.30875(13)
N1_10 N 0.57392(6) 0.45591(7) 0.33310(16)
N2_10 N 0.57822(7) 0.48350(7) 0.38187(16)
N3_8 N 0.57370(8) 0.48814(8) 0.17250(17)
C1_8 C 0.57213(9) 0.39895(9) 0.2338(2)
C2_8 C 0.57444(10) 0.37081(10) 0.1887(2)
H1_8 H 0.5590 0.3674 0.1485
C3_8 C 0.59856(11) 0.34801(11) 0.2010(3)
H2_8 H 0.5996 0.3290 0.1693
C4_10 C 0.62132(10) 0.35219(10) 0.2585(3)
H3_10 H 0.6382 0.3364 0.2662
C5_10 C 0.61930(9) 0.37945(9) 0.3049(2)
H4_10 H 0.6349 0.3824 0.3450
C6_10 C 0.59454(8) 0.40314(8) 0.2941(2)
C7_10 C 0.59483(8) 0.43188(8) 0.3461(2)
C8_11 C 0.55784(9) 0.50659(9) 0.3640(2)
C9_11 C 0.55921(10) 0.53949(9) 0.4027(2)
H5_11 H 0.5367 0.5464 0.4169
H6_11 H 0.5723 0.5378 0.4505
C10_11 C 0.57462(12) 0.56533(10) 0.3495(3)
H7_11 H 0.5717 0.5873 0.3730
H8_11 H 0.5627 0.5653 0.2997
C11_11 C 0.61018(13) 0.55990(12) 0.3345(4)
H9_11 H 0.6220 0.5599 0.3843
H10_11 H 0.6130 0.5379 0.3112
C12_11 C 0.62624(16) 0.58548(14) 0.2812(4)
H11_11 H 0.6241 0.6075 0.3051
H12_9 H 0.6141 0.5859 0.2317
C13_11 C 0.66196(18) 0.5790(2) 0.2648(6)
H13_11 H 0.6655 0.5553 0.2587
H14_9 H 0.6684 0.5904 0.2174
H15_11 H 0.6753 0.5871 0.3078
C14_8 C 0.60336(10) 0.47763(11) 0.1541(2)
H16_8 H 0.6099 0.4564 0.1708
C15_8 C 0.62498(12) 0.49592(14) 0.1120(3)
H17_8 H 0.6457 0.4869 0.0985
C16_9 C 0.61715(13) 0.52716(15) 0.0891(3)
C17_9 C 0.58596(14) 0.53768(13) 0.1071(3)
H18_9 H 0.5787 0.5588 0.0906
C18_9 C 0.56532(12) 0.51798(12) 0.1486(3)
H19_9 H 0.5440 0.5260 0.1609
C19_9 C 0.64034(15) 0.54967(17) 0.0437(4)
H20_9 H 0.6633 0.5459 0.0607
H21_9 H 0.6347 0.5729 0.0541
Mn2_5 Mn 0.613872(13) 0.470214(13) 0.47468(3)
O4_10 O 0.64947(6) 0.49222(6) 0.43306(14)
O6_11 O 0.57667(6) 0.45242(5) 0.53012(14)
N4_12 N 0.60725(7) 0.50509(7) 0.54922(16)
C20_11 C 0.66689(9) 0.51664(9) 0.4634(2)
C21_11 C 0.69708(9) 0.52390(10) 0.4282(2)
H22_11 H 0.7039 0.5116 0.3845
C22_11 C 0.71708(10) 0.54851(11) 0.4560(3)
H23_11 H 0.7375 0.5528 0.4315
C23_12 C 0.70777(9) 0.56710(9) 0.5191(2)
H24_12 H 0.7215 0.5842 0.5378
C24_12 C 0.67859(8) 0.56038(9) 0.5537(2)
H25_12 H 0.6721 0.5733 0.5968
C25_12 C 0.65773(8) 0.53524(8) 0.5284(2)
C26_12 C 0.62661(8) 0.52988(8) 0.5708(2)
C27_11 C 0.56549(9) 0.47287(9) 0.5821(2)
C28_11 C 0.53654(10) 0.46176(10) 0.6272(3)
H26_11 H 0.5269 0.4807 0.6548
H27_11 H 0.5197 0.4529 0.5916
C29_11 C 0.54644(13) 0.43466(13) 0.6866(3)
H28_11 H 0.5619 0.4440 0.7247
H29_11 H 0.5577 0.4165 0.6595
C30_11 C 0.51626(19) 0.4214(2) 0.7280(5)
H30_11 H 0.5036 0.4081 0.6905
H31_11 H 0.5023 0.4404 0.7420
C32_9 C 0.5201(3) 0.4046(3) 0.7866(7)
H33_9 H 0.5327 0.3846 0.7729
H34_9 H 0.5334 0.4173 0.8241
C34_7 C 0.4858(2) 0.3935(3) 0.8279(7)
H36_7 H 0.4734 0.3793 0.7929
H37_7 H 0.4907 0.3816 0.8756
H38_7 H 0.4727 0.4131 0.8400
O7_10 O 0.40464(6) 0.48632(6) 0.24184(15)
O8_8 O 0.50478(6) 0.47447(6) 0.18126(13)
O9_12 O 0.44778(6) 0.43177(5) 0.38671(14)
O10_10 O 0.41026(6) 0.41390(7) 0.24685(16)
N7_12 N 0.46554(6) 0.46288(7) 0.26955(17)
N8_12 N 0.49100(7) 0.44738(7) 0.31133(17)
N9_10 N 0.39903(10) 0.35971(10) 0.2363(3)
C39_10 C 0.41833(10) 0.49950(10) 0.1798(2)
C40_9 C 0.39864(10) 0.52018(11) 0.1342(3)
H43_9 H 0.3767 0.5247 0.1496
C41_9 C 0.41055(14) 0.53378(13) 0.0682(3)
H44_9 H 0.3967 0.5478 0.0386
C42_9 C 0.44250(13) 0.52769(13) 0.0429(3)
C43_9 C 0.46259(11) 0.50838(11) 0.0887(3)
H46_9 H 0.4847 0.5046 0.0730
C44_10 C 0.45148(10) 0.49431(9) 0.1571(2)
C45_10 C 0.47492(9) 0.47626(9) 0.2043(2)
C46_12 C 0.47915(9) 0.43234(8) 0.3710(2)
C47_10 C 0.50188(9) 0.41485(9) 0.4258(2)
H47_10 H 0.5002 0.4252 0.4772
H48_10 H 0.5248 0.4175 0.4076
C48_12 C 0.49415(10) 0.37850(11) 0.4331(3)
H49_12 H 0.4709 0.3759 0.4484
H50_10 H 0.5080 0.3689 0.4744
C49_10 C 0.50008(13) 0.35978(11) 0.3588(4)
H51_12 H 0.4855 0.3687 0.3183
H52_10 H 0.5231 0.3634 0.3421
C50_12 C 0.49411(17) 0.32344(14) 0.3661(5)
H53_10 H 0.5093 0.3142 0.4051
H54_12 H 0.4714 0.3197 0.3844
C51_12 C 0.4990(2) 0.30568(16) 0.2911(6)
H55_12 H 0.4909 0.2831 0.2959
H56_10 H 0.5225 0.3053 0.2783
H57_12 H 0.4868 0.3170 0.2503
C52_12 C 0.40972(11) 0.38647(12) 0.2728(3)
H58_12 H 0.4176 0.3836 0.3239
C53_10 C 0.38686(15) 0.36145(16) 0.1601(4)
H59_10 H 0.3642 0.3533 0.1588
H60_10 H 0.4006 0.3479 0.1262
H61_10 H 0.3874 0.3843 0.1424
C54_12 C 0.39829(17) 0.32794(13) 0.2727(5)
H62_10 H 0.4144 0.3135 0.2481
H63_12 H 0.3763 0.3184 0.2674
H64_12 H 0.4037 0.3303 0.3275
N11_5 N 0.64715(8) 0.44290(8) 0.55937(18)
O1_9 O 0.83003(6) 0.29793(6) 0.96706(15)
N3_9 N 0.76186(8) 0.32370(8) 0.92250(17)
C1_9 C 0.85105(9) 0.32213(9) 0.9838(2)
C2_9 C 0.87919(10) 0.32444(10) 0.9387(2)
H1_9 H 0.8826 0.3090 0.8985
C3_9 C 0.90199(11) 0.34856(11) 0.9510(3)
H2_9 H 0.9210 0.3496 0.9193
H12_10 H 0.6641 0.3641 0.9817
H14_10 H 0.6596 0.4184 0.9674
C14_9 C 0.77237(11) 0.35336(10) 0.9041(2)
H16_9 H 0.7936 0.3599 0.9208
C15_9 C 0.75408(14) 0.37498(12) 0.8620(3)
H17_9 H 0.7631 0.3957 0.8485
C16_10 C 0.72284(15) 0.36715(13) 0.8391(3)
C17_10 C 0.71232(13) 0.33596(14) 0.8571(3)
H18_10 H 0.6912 0.3287 0.8406
C18_10 C 0.73202(12) 0.31532(12) 0.8986(3)
H19_10 H 0.7240 0.2940 0.9109
C19_10 C 0.70033(17) 0.39034(15) 0.7937(4)
H20_10 H 0.7041 0.4133 0.8107
H21_10 H 0.6771 0.3847 0.8041
C31_11 C 0.67108(9) 0.42291(9) 0.5373(2)
H32_10 H 0.6747 0.4202 0.4836
C33_11 C 0.69074(11) 0.40607(12) 0.5865(3)
H35_11 H 0.7081 0.3927 0.5674
C35_11 C 0.68526(15) 0.40854(15) 0.6638(3)
C36_11 C 0.66084(15) 0.42962(14) 0.6886(3)
H39_11 H 0.6568 0.4325 0.7421
C37_11 C 0.64256(12) 0.44615(12) 0.6356(3)
H40_11 H 0.6258 0.4606 0.6533
C38_11 C 0.7062(2) 0.38790(19) 0.7197(3)
H41_11 H 0.7295 0.3938 0.7111
H42_11 H 0.7036 0.3645 0.7051
O7_11 O 0.76368(6) 0.15464(6) 0.99184(15)
O8_9 O 0.77553(6) 0.25478(6) 0.93126(13)
O10_11 O 0.83610(7) 0.16026(6) 0.99685(16)
N9_11 N 0.89029(10) 0.14903(10) 0.9863(3)
C39_11 C 0.75050(10) 0.16833(10) 0.9298(2)
C40_10 C 0.72982(11) 0.14864(10) 0.8842(3)
H43_10 H 0.7253 0.1267 0.8996
C41_10 C 0.71622(13) 0.16055(14) 0.8182(3)
H44_10 H 0.7022 0.1467 0.7886
C42_10 C 0.72231(13) 0.19250(13) 0.7929(3)
H45_11 H 0.7135 0.2003 0.7456
C43_10 C 0.74162(11) 0.21259(11) 0.8387(3)
H46_10 H 0.7454 0.2347 0.8230
C44_11 C 0.75569(9) 0.20148(10) 0.9071(2)
C45_11 C 0.77374(9) 0.22492(9) 0.9543(2)
C53_11 C 0.88855(16) 0.13686(15) 0.9101(4)
H59_11 H 0.8967 0.1142 0.9088
H60_11 H 0.9021 0.1506 0.8762
H61_11 H 0.8657 0.1374 0.8924
H62_11 H 0.9365 0.1644 0.9981
Mn1_11 Mn 0.211542(13) 0.710528(13) 0.99359(3)
O2_11 O 0.18278(5) 0.63446(6) 0.84843(14)
O3_12 O 0.25317(5) 0.71382(6) 0.94125(13)
N1_11 N 0.20591(7) 0.67608(6) 0.91690(16)
N2_11 N 0.23350(7) 0.67178(7) 0.86813(16)
C4_11 C 0.10219(10) 0.62868(10) 0.9915(3)
H3_11 H 0.0864 0.6118 0.9838
C5_11 C 0.12945(9) 0.63070(9) 0.9451(2)
H4_11 H 0.1324 0.6151 0.9050
C6_11 C 0.15314(8) 0.65546(8) 0.9559(2)
C7_11 C 0.18188(8) 0.65517(8) 0.9039(2)
C8_12 C 0.25659(9) 0.69216(9) 0.8860(2)
C9_12 C 0.28949(9) 0.69079(10) 0.8473(2)
H5_12 H 0.2964 0.7133 0.8331
H6_12 H 0.2878 0.6777 0.7995
C10_12 C 0.31533(10) 0.67538(12) 0.9005(3)
H7_12 H 0.3373 0.6783 0.8770
H8_12 H 0.3153 0.6873 0.9503
C11_12 C 0.30990(12) 0.63982(13) 0.9155(4)
H9_12 H 0.3099 0.6280 0.8657
H10_12 H 0.2879 0.6370 0.9388
C12_12 C 0.33548(14) 0.62376(16) 0.9688(4)
H11_12 H 0.3575 0.6259 0.9449
C13_12 C 0.3290(2) 0.58804(18) 0.9852(6)
H13_12 H 0.3053 0.5845 0.9913
H15_12 H 0.3371 0.5747 0.9422
Mn2_6 Mn 0.220214(13) 0.636128(13) 0.77532(3)
O4_11 O 0.24222(6) 0.60053(6) 0.81694(14)
O5_7 O 0.29875(6) 0.63093(5) 0.62281(14)
O6_12 O 0.20242(5) 0.67333(6) 0.71988(14)
N4_13 N 0.25509(7) 0.64275(7) 0.70078(16)
N5_7 N 0.25097(7) 0.67090(7) 0.65398(17)
C20_12 C 0.26664(9) 0.58311(9) 0.7866(2)
C21_12 C 0.27390(10) 0.55292(9) 0.8218(2)
H22_12 H 0.2616 0.5461 0.8655
C22_12 C 0.29851(11) 0.53292(10) 0.7940(3)
H23_12 H 0.3028 0.5125 0.8185
C23_13 C 0.31710(9) 0.54223(9) 0.7309(2)
H24_13 H 0.3342 0.5285 0.7122
C24_13 C 0.31038(9) 0.57141(8) 0.6963(2)
H25_13 H 0.3233 0.5779 0.6532
C25_13 C 0.28524(8) 0.59227(8) 0.7216(2)
C26_13 C 0.27988(8) 0.62339(8) 0.6792(2)
C27_12 C 0.22287(9) 0.68451(9) 0.6679(2)
C28_12 C 0.21176(10) 0.71346(10) 0.6228(3)
H26_12 H 0.2307 0.7231 0.5952
H27_12 H 0.2029 0.7303 0.6584
C29_12 C 0.18466(13) 0.70356(13) 0.5634(3)
H28_12 H 0.1940 0.6881 0.5253
H29_12 H 0.1665 0.6923 0.5905
C30_12 C 0.1714(2) 0.73374(19) 0.5220(5)
H30_12 H 0.1581 0.7464 0.5595
H31_12 H 0.1904 0.7477 0.5080
C32_10 C 0.1546(3) 0.7299(3) 0.4634(7)
H33_10 H 0.1346 0.7173 0.4771
H34_10 H 0.1673 0.7166 0.4259
C34_8 C 0.1435(3) 0.7642(2) 0.4221(7)
H36_8 H 0.1293 0.7766 0.4571
H37_8 H 0.1316 0.7593 0.3744
H38_8 H 0.1631 0.7773 0.4100
Mn3_7 Mn 0.208550(13) 0.827530(13) 0.93354(3)
O9_13 O 0.18177(5) 0.80222(6) 0.86329(14)
N7_13 N 0.21288(7) 0.78446(6) 0.98045(17)
N8_13 N 0.19738(7) 0.75900(7) 0.93867(17)
C46_13 C 0.18234(8) 0.77085(9) 0.8790(2)
C47_11 C 0.16485(9) 0.74812(9) 0.8242(2)
H47_11 H 0.1752 0.7498 0.7728
H48_11 H 0.1675 0.7252 0.8424
C48_13 C 0.12850(11) 0.75585(10) 0.8169(3)
H49_13 H 0.1259 0.7791 0.8016
H50_11 H 0.1189 0.7420 0.7756
C49_11 C 0.10978(11) 0.74992(13) 0.8912(4)
H51_13 H 0.1187 0.7645 0.9317
H52_11 H 0.1134 0.7269 0.9079
C50_13 C 0.07344(14) 0.75589(17) 0.8839(5)
H53_11 H 0.0642 0.7407 0.8449
H54_13 H 0.0697 0.7786 0.8656
C51_13 C 0.05568(16) 0.7510(2) 0.9589(6)
H55_13 H 0.0331 0.7591 0.9541
H56_11 H 0.0553 0.7275 0.9717
H57_13 H 0.0670 0.7632 0.9997
C52_13 C 0.13647(12) 0.84028(11) 0.9772(3)
H58_13 H 0.1336 0.8324 0.9261
C54_13 C 0.07794(13) 0.85171(17) 0.9773(5)
H63_13 H 0.0684 0.8737 0.9826
H64_13 H 0.0803 0.8463 0.9225
O11_7 O 0.20125(6) 0.86907(5) 0.87719(14)
N10_7 N 0.24903(7) 0.82910(7) 0.84602(17)
N11_6 N 0.19290(8) 0.60285(8) 0.69063(18)
Mn5_7 Mn 0.291450(13) 0.672470(13) 0.56646(3)
H32_11 H 0.1747 0.4202 0.0164
Mn4_6 Mn 0.113872(13) 0.470214(13) 0.02532(3)
Mn1_12 Mn 0.039472(13) 0.461542(13) 0.24359(3)
O1_10 O 0.04793(6) 0.41997(6) 0.28294(15)
O2_12 O 0.11554(6) 0.43278(5) 0.09843(14)
O3_13 O 0.03618(6) 0.50317(5) 0.19125(13)
N1_12 N 0.07392(6) 0.45591(7) 0.16690(16)
N2_12 N 0.07822(7) 0.48350(7) 0.11813(16)
N3_10 N 0.07370(8) 0.48814(8) 0.32750(17)
C1_10 C 0.07213(9) 0.39895(9) 0.2662(2)
C2_10 C 0.07444(10) 0.37081(10) 0.3113(2)
H1_10 H 0.0590 0.3674 0.3515
C3_10 C 0.09856(11) 0.34801(11) 0.2990(3)
H2_10 H 0.0996 0.3290 0.3307
C4_12 C 0.12132(10) 0.35219(10) 0.2415(3)
H3_12 H 0.1382 0.3364 0.2338
C5_12 C 0.11930(9) 0.37945(9) 0.1951(2)
H4_12 H 0.1349 0.3824 0.1550
C6_12 C 0.09454(8) 0.40314(8) 0.2059(2)
C7_12 C 0.09483(8) 0.43188(8) 0.1539(2)
C8_13 C 0.05784(9) 0.50659(9) 0.1360(2)
C9_13 C 0.05921(10) 0.53949(9) 0.0973(2)
H5_13 H 0.0367 0.5464 0.0831
H6_13 H 0.0723 0.5378 0.0495
C10_13 C 0.07462(12) 0.56533(10) 0.1505(3)
H7_13 H 0.0717 0.5873 0.1270
H8_13 H 0.0627 0.5653 0.2003
C11_13 C 0.11018(13) 0.55990(12) 0.1655(4)
H9_13 H 0.1220 0.5599 0.1157
H10_13 H 0.1130 0.5379 0.1888
C12_13 C 0.12624(16) 0.58548(14) 0.2188(4)
H11_13 H 0.1241 0.6075 0.1949
H12_11 H 0.1141 0.5859 0.2683
C13_13 C 0.16196(18) 0.5790(2) 0.2352(6)
H13_13 H 0.1655 0.5553 0.2413
H14_11 H 0.1684 0.5904 0.2826
H15_13 H 0.1753 0.5871 0.1922
C14_10 C 0.10336(10) 0.47763(11) 0.3459(2)
H16_10 H 0.1099 0.4564 0.3292
C15_10 C 0.12498(12) 0.49592(14) 0.3880(3)
H17_10 H 0.1457 0.4869 0.4015
C16_11 C 0.11715(13) 0.52716(15) 0.4109(3)
C17_11 C 0.08596(14) 0.53768(13) 0.3929(3)
H18_11 H 0.0787 0.5588 0.4094
C18_11 C 0.06532(12) 0.51798(12) 0.3514(3)
H19_11 H 0.0440 0.5260 0.3391
C19_11 C 0.14034(15) 0.54967(17) 0.4563(4)
H20_11 H 0.1633 0.5459 0.4393
H21_11 H 0.1347 0.5729 0.4459
O4_12 O 0.14947(6) 0.49222(6) 0.06694(14)
C20_13 C 0.16689(9) 0.51664(9) 0.0366(2)
C21_13 C 0.19708(9) 0.52390(10) 0.0718(2)
H22_13 H 0.2039 0.5116 0.1155
C22_13 C 0.21708(10) 0.54851(11) 0.0440(3)
H23_13 H 0.2375 0.5528 0.0685
C31_12 C 0.17291(9) 0.57892(9) 0.7127(2)
H32_12 H 0.1702 0.5753 0.7664
C33_12 C 0.15607(12) 0.55926(11) 0.6635(3)
H35_12 H 0.1427 0.5419 0.6826
C35_12 C 0.15854(15) 0.56474(15) 0.5862(3)
C36_12 C 0.17962(14) 0.58916(15) 0.5614(3)
H39_12 H 0.1825 0.5932 0.5079
C37_12 C 0.19615(12) 0.60744(12) 0.6144(3)
H40_12 H 0.2106 0.6242 0.5967
C38_12 C 0.13790(19) 0.5438(2) 0.5303(3)
H41_12 H 0.1438 0.5205 0.5389
H42_12 H 0.1145 0.5464 0.5449
O8_10 O 0.00478(6) 0.47447(6) 0.31874(13)
C47_12 C 0.00188(9) 0.41485(9) 0.0742(2)
H47_12 H 0.0002 0.4252 0.0228
H48_12 H 0.0248 0.4175 0.0924
H50_12 H 0.0080 0.3689 0.0256
C49_12 C 0.00008(13) 0.35978(11) 0.1412(4)
H52_12 H 0.0231 0.3634 0.1579
H53_12 H 0.0093 0.3142 0.0949
H56_12 H 0.0225 0.3053 0.2217
O6_13 O 0.07667(6) 0.95242(5) 0.03012(14)
C27_13 C 0.06549(9) 0.97287(9) 0.0821(2)
C28_13 C 0.03654(10) 0.96176(10) 0.1272(3)
H26_13 H 0.0269 0.9807 0.1548
H27_13 H 0.0197 0.9529 0.0916
C29_13 C 0.04644(13) 0.93466(13) 0.1866(3)
H28_13 H 0.0619 0.9440 0.2247
H29_13 H 0.0577 0.9165 0.1595
C30_13 C 0.01626(19) 0.9214(2) 0.2280(5)
H30_13 H 0.0036 0.9081 0.1905
H31_13 H 0.0023 0.9404 0.2420
C32_11 C 0.0201(3) 0.9046(3) 0.2866(7)
H33_11 H 0.0327 0.8846 0.2729
H34_11 H 0.0334 0.9173 0.3241
N11_7 N 0.14715(8) 0.94290(8) 0.05937(18)
Mn1_13 Mn 0.288458(13) 0.789472(13) 0.50641(3)
O1_11 O 0.33003(6) 0.79793(6) 0.46706(15)
O2_13 O 0.31722(5) 0.86554(6) 0.65157(14)
O3_14 O 0.24683(5) 0.78618(6) 0.55875(13)
N1_13 N 0.29409(7) 0.82392(6) 0.58310(16)
N2_13 N 0.26650(7) 0.82822(7) 0.63187(16)
N3_11 N 0.26186(8) 0.82370(8) 0.42250(17)
C1_11 C 0.35105(9) 0.82213(9) 0.4838(2)
C2_11 C 0.37919(10) 0.82444(10) 0.4387(2)
H1_11 H 0.3826 0.8090 0.3985
C3_11 C 0.40199(11) 0.84856(11) 0.4510(3)
H2_11 H 0.4210 0.8496 0.4193
C4_13 C 0.39781(10) 0.87132(10) 0.5085(3)
H3_13 H 0.4136 0.8882 0.5162
C5_13 C 0.37055(9) 0.86930(9) 0.5549(2)
H4_13 H 0.3676 0.8849 0.5950
C6_13 C 0.34686(8) 0.84454(8) 0.5441(2)
C7_13 C 0.31812(8) 0.84483(8) 0.5961(2)
C8_14 C 0.24341(9) 0.80784(9) 0.6140(2)
C9_14 C 0.21051(9) 0.80921(10) 0.6527(2)
H5_14 H 0.2036 0.7867 0.6669
H6_14 H 0.2122 0.8223 0.7005
C10_14 C 0.18467(10) 0.82462(12) 0.5995(3)
H7_14 H 0.1627 0.8217 0.6230
H8_14 H 0.1847 0.8127 0.5497
C11_14 C 0.19010(12) 0.86018(13) 0.5845(4)
H9_14 H 0.1901 0.8720 0.6343
H10_14 H 0.2121 0.8630 0.5612
C12_14 C 0.16452(14) 0.87624(16) 0.5312(4)
H11_14 H 0.1425 0.8741 0.5551
H12_12 H 0.1641 0.8641 0.4817
C13_14 C 0.1710(2) 0.91196(18) 0.5148(6)
H13_14 H 0.1947 0.9155 0.5087
H14_12 H 0.1596 0.9184 0.4674
H15_14 H 0.1629 0.9253 0.5578
C14_11 C 0.27237(11) 0.85336(10) 0.4041(2)
H16_11 H 0.2936 0.8599 0.4208
C15_11 C 0.25408(14) 0.87498(12) 0.3620(3)
H17_11 H 0.2631 0.8957 0.3485
C16_12 C 0.22284(15) 0.86715(13) 0.3391(3)
C17_12 C 0.21232(13) 0.83596(14) 0.3571(3)
H18_12 H 0.1912 0.8287 0.3406
C18_12 C 0.23202(12) 0.81532(12) 0.3986(3)
H19_12 H 0.2240 0.7940 0.4109
C19_12 C 0.20033(17) 0.89034(15) 0.2937(4)
H20_12 H 0.2041 0.9133 0.3107
H21_12 H 0.1771 0.8847 0.3041
Mn2_7 Mn 0.279786(13) 0.863872(13) 0.72468(3)
O4_13 O 0.25778(6) 0.89947(6) 0.68306(14)
O6_14 O 0.29758(5) 0.82667(6) 0.78012(14)
N4_14 N 0.24491(7) 0.85725(7) 0.79922(16)
C20_14 C 0.23336(9) 0.91689(9) 0.7134(2)
C21_14 C 0.22610(10) 0.94708(9) 0.6782(2)
H22_14 H 0.2384 0.9539 0.6345
C22_14 C 0.20149(11) 0.96708(10) 0.7060(3)
H23_14 H 0.1972 0.9875 0.6815
C23_14 C 0.18290(9) 0.95777(9) 0.7691(2)
H24_14 H 0.1658 0.9715 0.7878
C24_14 C 0.18962(9) 0.92859(8) 0.8037(2)
H25_14 H 0.1767 0.9221 0.8468
C25_14 C 0.21476(8) 0.90773(8) 0.7784(2)
C26_14 C 0.22012(8) 0.87661(8) 0.8208(2)
C27_14 C 0.27713(9) 0.81549(9) 0.8321(2)
C28_14 C 0.28824(10) 0.78654(10) 0.8772(3)
H26_14 H 0.2693 0.7769 0.9048
H27_14 H 0.2971 0.7697 0.8416
C29_14 C 0.31534(13) 0.79644(13) 0.9366(3)
H28_14 H 0.3060 0.8119 0.9747
H29_14 H 0.3335 0.8077 0.9095
C30_14 C 0.3286(2) 0.76626(19) 0.9780(5)
H30_14 H 0.3419 0.7536 0.9405
H31_14 H 0.3096 0.7523 0.9920
C31_13 C 0.17108(9) 0.92291(9) 0.0373(2)
C33_13 C 0.19074(11) 0.90607(12) 0.0865(3)
H35_13 H 0.2081 0.8927 0.0674
C35_13 C 0.18526(15) 0.90854(15) 0.1638(3)
C36_13 C 0.16084(15) 0.92962(14) 0.1886(3)
H39_13 H 0.1568 0.9325 0.2421
C37_13 C 0.14256(12) 0.94615(12) 0.1356(3)
H40_13 H 0.1258 0.9606 0.1533
C38_13 C 0.2062(2) 0.88790(19) 0.2197(3)
H41_13 H 0.2295 0.8938 0.2111
H42_13 H 0.2036 0.8645 0.2051
O7_12 O 0.26368(6) 0.65464(6) 0.49184(15)
O8_11 O 0.27553(6) 0.75478(6) 0.43126(13)
O9_14 O 0.31823(5) 0.69778(6) 0.63671(14)
O10_12 O 0.33610(7) 0.66026(6) 0.49685(16)
N7_14 N 0.28712(7) 0.71554(6) 0.51955(17)
N8_14 N 0.30262(7) 0.74100(7) 0.56133(17)
N9_12 N 0.39029(10) 0.64903(10) 0.4863(3)
C39_12 C 0.25050(10) 0.66833(10) 0.4298(2)
C40_11 C 0.22982(11) 0.64864(10) 0.3842(3)
H43_11 H 0.2253 0.6267 0.3996
C41_11 C 0.21622(13) 0.66055(14) 0.3182(3)
H44_11 H 0.2022 0.6467 0.2886
C42_11 C 0.22231(13) 0.69250(13) 0.2929(3)
H45_12 H 0.2135 0.7003 0.2456
C43_11 C 0.24162(11) 0.71259(11) 0.3387(3)
H46_11 H 0.2454 0.7347 0.3230
C44_12 C 0.25569(9) 0.70148(10) 0.4071(2)
C45_12 C 0.27374(9) 0.72492(9) 0.4543(2)
C46_14 C 0.31766(8) 0.72915(9) 0.6210(2)
C47_13 C 0.33515(9) 0.75188(9) 0.6758(2)
H47_13 H 0.3248 0.7502 0.7272
H48_13 H 0.3325 0.7748 0.6576
C48_14 C 0.37150(11) 0.74415(10) 0.6831(3)
H49_14 H 0.3741 0.7209 0.6984
H50_13 H 0.3811 0.7580 0.7244
C49_13 C 0.39022(11) 0.75008(13) 0.6088(4)
H51_14 H 0.3813 0.7355 0.5683
H52_13 H 0.3866 0.7731 0.5921
C50_14 C 0.42656(14) 0.74411(17) 0.6161(5)
H53_13 H 0.4358 0.7593 0.6551
H54_14 H 0.4303 0.7214 0.6344
C51_14 C 0.44432(16) 0.7490(2) 0.5411(6)
H55_14 H 0.4669 0.7409 0.5459
H56_13 H 0.4447 0.7725 0.5283
H57_14 H 0.4330 0.7368 0.5003
C52_14 C 0.36353(12) 0.65972(11) 0.5228(3)
H58_14 H 0.3664 0.6676 0.5739
C53_12 C 0.38855(16) 0.63686(15) 0.4101(4)
H59_12 H 0.3967 0.6142 0.4088
H60_12 H 0.4021 0.6506 0.3762
H61_12 H 0.3657 0.6374 0.3924
C54_14 C 0.42206(13) 0.64829(17) 0.5227(5)
H62_12 H 0.4365 0.6644 0.4981
H63_14 H 0.4316 0.6263 0.5174
H64_14 H 0.4197 0.6537 0.5775
N11_8 N 0.30710(8) 0.89715(8) 0.80937(18)
C31_14 C 0.32709(9) 0.92108(9) 0.7873(2)
H32_13 H 0.3298 0.9247 0.7336
C33_14 C 0.34393(12) 0.94074(11) 0.8365(3)
H35_14 H 0.3573 0.9581 0.8174
C35_14 C 0.34146(15) 0.93526(15) 0.9138(3)
C36_14 C 0.32038(14) 0.91084(15) 0.9386(3)
H39_14 H 0.3175 0.9068 0.9921
C37_14 C 0.30385(12) 0.89256(12) 0.8856(3)
H40_14 H 0.2894 0.8758 0.9033
C38_14 C 0.36210(19) 0.9562(2) 0.9697(3)
H41_14 H 0.3562 0.9795 0.9611
H42_14 H 0.3855 0.9536 0.9551
H45_13 H 0.5497 0.9635 0.9956
C32_12 C 0.3454(3) 0.2701(3) 0.9634(7)
H33_12 H 0.3654 0.2827 0.9771
H34_12 H 0.3327 0.2834 0.9259
C34_9 C 0.3565(3) 0.2358(2) 0.9221(7)
H36_9 H 0.3707 0.2234 0.9571
H37_9 H 0.3684 0.2407 0.8744
H38_9 H 0.3369 0.2227 0.9100
O3_15 O 0.53618(6) 0.00317(5) 0.69125(13)
C8_15 C 0.55784(9) 0.00659(9) 0.6360(2)
C9_15 C 0.55921(10) 0.03949(9) 0.5973(2)
H5_15 H 0.5367 0.0464 0.5831
H6_15 H 0.5723 0.0378 0.5495
C10_15 C 0.57462(12) 0.06533(10) 0.6505(3)
H7_15 H 0.5717 0.0873 0.6270
H8_15 H 0.5627 0.0653 0.7003
C11_15 C 0.61018(13) 0.05990(12) 0.6655(4)
H9_15 H 0.6220 0.0599 0.6157
H10_15 H 0.6130 0.0379 0.6888
C12_15 C 0.62624(16) 0.08548(14) 0.7188(4)
H11_15 H 0.6241 0.1075 0.6949
H12_13 H 0.6141 0.0859 0.7683
C13_15 C 0.66196(18) 0.0790(2) 0.7352(6)
H13_15 H 0.6655 0.0553 0.7413
H14_13 H 0.6684 0.0904 0.7826
H15_15 H 0.6753 0.0871 0.6922
C16_13 C 0.61715(13) 0.02716(15) 0.9109(3)
C17_13 C 0.58596(14) 0.03768(13) 0.8929(3)
H18_13 H 0.5787 0.0588 0.9094
C18_13 C 0.56532(12) 0.01798(12) 0.8514(3)
H19_13 H 0.5440 0.0260 0.8391
C19_13 C 0.64034(15) 0.04967(17) 0.9563(4)
H20_13 H 0.6633 0.0459 0.9393
H21_13 H 0.6347 0.0729 0.9459
O5_8 O 0.61907(5) 0.04875(6) 0.37281(14)
N4_15 N 0.60725(7) 0.00509(7) 0.45078(16)
N5_8 N 0.57910(7) 0.00097(7) 0.40398(17)
C20_15 C 0.66689(9) 0.01664(9) 0.5366(2)
C21_15 C 0.69708(9) 0.02390(10) 0.5718(2)
H22_15 H 0.7039 0.0116 0.6155
C22_15 C 0.71708(10) 0.04851(11) 0.5440(3)
H23_15 H 0.7375 0.0528 0.5685
C23_15 C 0.70777(9) 0.06710(9) 0.4809(2)
H24_15 H 0.7215 0.0842 0.4622
C24_15 C 0.67859(8) 0.06038(9) 0.4463(2)
H25_15 H 0.6721 0.0733 0.4032
C25_15 C 0.65773(8) 0.03524(8) 0.4716(2)
C26_15 C 0.62661(8) 0.02988(8) 0.4292(2)
C40_12 C 0.39864(10) 0.02018(11) 0.8658(3)
H43_12 H 0.3767 0.0247 0.8504
C41_12 C 0.41055(14) 0.03378(13) 0.9318(3)
H44_12 H 0.3967 0.0478 0.9614
C42_12 C 0.44250(13) 0.02769(13) 0.9571(3)
C43_12 C 0.46259(11) 0.00838(11) 0.9113(3)
H46_12 H 0.4847 0.0046 0.9270
Mn5_8 Mn 0.577530(13) 0.041450(13) 0.31646(3)
Mn1_14 Mn 0.460528(13) 0.038458(13) 0.25641(3)
O1_12 O 0.45207(6) 0.08003(6) 0.21706(15)
O2_14 O 0.38446(6) 0.06722(5) 0.40157(14)
N1_14 N 0.42608(6) 0.04409(7) 0.33310(16)
N2_14 N 0.42178(7) 0.01650(7) 0.38187(16)
N3_12 N 0.42630(8) 0.01186(8) 0.17250(17)
C1_12 C 0.42787(9) 0.10105(9) 0.2338(2)
C2_12 C 0.42556(10) 0.12919(10) 0.1887(2)
H1_12 H 0.4410 0.1326 0.1485
C3_12 C 0.40144(11) 0.15199(11) 0.2010(3)
H2_12 H 0.4004 0.1710 0.1693
C4_14 C 0.37868(10) 0.14781(10) 0.2585(3)
H3_14 H 0.3618 0.1636 0.2662
C5_14 C 0.38070(9) 0.12055(9) 0.3049(2)
H4_14 H 0.3651 0.1176 0.3450
C6_14 C 0.40546(8) 0.09686(8) 0.2941(2)
C7_14 C 0.40517(8) 0.06812(8) 0.3461(2)
C14_12 C 0.39664(10) 0.02237(11) 0.1541(2)
H16_12 H 0.3901 0.0436 0.1708
C15_12 C 0.37502(12) 0.00408(14) 0.1120(3)
H17_12 H 0.3543 0.0131 0.0985
Mn2_8 Mn 0.386128(13) 0.029786(13) 0.47468(3)
O4_14 O 0.35053(6) 0.00778(6) 0.43306(14)
O6_15 O 0.42333(6) 0.04758(5) 0.53012(14)
C27_15 C 0.43451(9) 0.02713(9) 0.5821(2)
C28_15 C 0.46346(10) 0.03824(10) 0.6272(3)
H26_15 H 0.4731 0.0193 0.6548
H27_15 H 0.4803 0.0471 0.5916
C29_15 C 0.45356(13) 0.06534(13) 0.6866(3)
H28_15 H 0.4381 0.0560 0.7247
H29_15 H 0.4423 0.0835 0.6595
C30_15 C 0.48374(19) 0.0786(2) 0.7280(5)
H30_15 H 0.4964 0.0919 0.6905
H31_15 H 0.4977 0.0596 0.7420
C32_13 C 0.4799(3) 0.0954(3) 0.7866(7)
H33_13 H 0.4673 0.1154 0.7729
H34_13 H 0.4666 0.0827 0.8241
C34_10 C 0.5142(2) 0.1065(3) 0.8279(7)
H36_10 H 0.5266 0.1207 0.7929
H37_10 H 0.5093 0.1184 0.8756
H38_10 H 0.5273 0.0869 0.8400
O7_13 O 0.59536(6) 0.01368(6) 0.24184(15)
O8_12 O 0.49522(6) 0.02553(6) 0.18126(13)
O9_15 O 0.55222(6) 0.06823(5) 0.38671(14)
O10_13 O 0.58974(6) 0.08610(7) 0.24685(16)
N7_15 N 0.53446(6) 0.03712(7) 0.26955(17)
N8_15 N 0.50900(7) 0.05262(7) 0.31133(17)
N9_13 N 0.60097(10) 0.14029(10) 0.2363(3)
C39_13 C 0.58167(10) 0.00050(10) 0.1798(2)
C44_13 C 0.54852(10) 0.00569(9) 0.1571(2)
C45_13 C 0.52508(9) 0.02374(9) 0.2043(2)
C46_15 C 0.52085(9) 0.06766(8) 0.3710(2)
C47_14 C 0.49812(9) 0.08515(9) 0.4258(2)
H47_14 H 0.4998 0.0748 0.4772
H48_14 H 0.4752 0.0825 0.4076
C48_15 C 0.50585(10) 0.12150(11) 0.4331(3)
H49_15 H 0.5291 0.1241 0.4484
H50_14 H 0.4920 0.1311 0.4744
C49_14 C 0.49992(13) 0.14022(11) 0.3588(4)
H51_15 H 0.5145 0.1313 0.3183
H52_14 H 0.4769 0.1366 0.3421
C50_15 C 0.50589(17) 0.17656(14) 0.3661(5)
H53_14 H 0.4907 0.1858 0.4051
H54_15 H 0.5286 0.1803 0.3844
C51_15 C 0.5010(2) 0.19432(16) 0.2911(6)
H55_15 H 0.5091 0.2169 0.2959
H56_14 H 0.4775 0.1947 0.2783
H57_15 H 0.5132 0.1830 0.2503
C52_15 C 0.59028(11) 0.11353(12) 0.2728(3)
H58_15 H 0.5824 0.1164 0.3239
C53_13 C 0.61314(15) 0.13855(16) 0.1601(4)
H59_13 H 0.6358 0.1467 0.1588
H60_13 H 0.5994 0.1521 0.1262
H61_13 H 0.6126 0.1157 0.1424
C54_15 C 0.60171(17) 0.17206(13) 0.2727(5)
H62_13 H 0.5856 0.1865 0.2481
H63_15 H 0.6237 0.1816 0.2674
H64_15 H 0.5963 0.1697 0.3275
N11_9 N 0.35285(8) 0.05710(8) 0.55937(18)
O1_13 O 0.16997(6) 0.20207(6) 0.96706(15)
N3_13 N 0.23814(8) 0.17630(8) 0.92250(17)
C1_13 C 0.14895(9) 0.17787(9) 0.9838(2)
C2_13 C 0.12081(10) 0.17556(10) 0.9387(2)
H1_13 H 0.1174 0.1910 0.8985
C3_13 C 0.09801(11) 0.15144(11) 0.9510(3)
H2_13 H 0.0790 0.1504 0.9193
H12_14 H 0.3359 0.1359 0.9817
H14_14 H 0.3404 0.0816 0.9674
C14_13 C 0.22763(11) 0.14664(10) 0.9041(2)
H16_13 H 0.2064 0.1401 0.9208
C15_13 C 0.24592(14) 0.12502(12) 0.8620(3)
H17_13 H 0.2369 0.1043 0.8485
C16_14 C 0.27716(15) 0.13285(13) 0.8391(3)
C17_14 C 0.28768(13) 0.16404(14) 0.8571(3)
H18_14 H 0.3088 0.1713 0.8406
C18_14 C 0.26798(12) 0.18468(12) 0.8986(3)
H19_14 H 0.2760 0.2060 0.9109
C19_14 C 0.29967(17) 0.10966(15) 0.7937(4)
H20_14 H 0.2959 0.0867 0.8107
H21_14 H 0.3229 0.1153 0.8041
C31_15 C 0.32892(9) 0.07709(9) 0.5373(2)
H32_14 H 0.3253 0.0798 0.4836
C33_15 C 0.30926(11) 0.09393(12) 0.5865(3)
H35_15 H 0.2919 0.1073 0.5674
C35_15 C 0.31474(15) 0.09146(15) 0.6638(3)
C36_15 C 0.33916(15) 0.07038(14) 0.6886(3)
H39_15 H 0.3432 0.0675 0.7421
C37_15 C 0.35744(12) 0.05385(12) 0.6356(3)
H40_15 H 0.3742 0.0394 0.6533
C38_15 C 0.2938(2) 0.11210(19) 0.7197(3)
H41_15 H 0.2705 0.1062 0.7111
H42_15 H 0.2964 0.1355 0.7051
O7_14 O 0.23632(6) 0.34536(6) 0.99184(15)
O8_13 O 0.22447(6) 0.24522(6) 0.93126(13)
O10_14 O 0.16390(7) 0.33974(6) 0.99685(16)
N9_14 N 0.10971(10) 0.35097(10) 0.9863(3)
C39_14 C 0.24950(10) 0.33167(10) 0.9298(2)
C40_13 C 0.27018(11) 0.35136(10) 0.8842(3)
H43_13 H 0.2747 0.3733 0.8996
C41_13 C 0.28378(13) 0.33945(14) 0.8182(3)
H44_13 H 0.2978 0.3533 0.7886
C42_13 C 0.27769(13) 0.30750(13) 0.7929(3)
H45_14 H 0.2865 0.2997 0.7456
C43_13 C 0.25838(11) 0.28741(11) 0.8387(3)
H46_13 H 0.2546 0.2653 0.8230
C44_14 C 0.24431(9) 0.29852(10) 0.9071(2)
C45_14 C 0.22626(9) 0.27508(9) 0.9543(2)
C53_14 C 0.11145(16) 0.36314(15) 0.9101(4)
H59_14 H 0.1033 0.3858 0.9088
H60_14 H 0.0979 0.3494 0.8762
H61_14 H 0.1343 0.3626 0.8924
H62_14 H 0.0635 0.3356 0.9981
Mn1_15 Mn 0.539472(13) 0.961542(13) 0.74359(3)
O1_14 O 0.54793(6) 0.91997(6) 0.78294(15)
O2_15 O 0.61554(6) 0.93278(5) 0.59843(14)
N1_15 N 0.57392(6) 0.95591(7) 0.66690(16)
N2_15 N 0.57822(7) 0.98350(7) 0.61813(16)
N3_14 N 0.57370(8) 0.98814(8) 0.82750(17)
C1_14 C 0.57213(9) 0.89895(9) 0.7662(2)
C2_14 C 0.57444(10) 0.87081(10) 0.8113(2)
H1_14 H 0.5590 0.8674 0.8515
C3_14 C 0.59856(11) 0.84801(11) 0.7990(3)
H2_14 H 0.5996 0.8290 0.8307
C4_15 C 0.62132(10) 0.85219(10) 0.7415(3)
H3_15 H 0.6382 0.8364 0.7338
C5_15 C 0.61930(9) 0.87945(9) 0.6951(2)
H4_15 H 0.6349 0.8824 0.6550
C6_15 C 0.59454(8) 0.90314(8) 0.7059(2)
C7_15 C 0.59483(8) 0.93188(8) 0.6539(2)
C14_14 C 0.60336(10) 0.97763(11) 0.8459(2)
H16_14 H 0.6099 0.9564 0.8292
C15_14 C 0.62498(12) 0.99592(14) 0.8880(3)
H17_14 H 0.6457 0.9869 0.9015
Mn2_9 Mn 0.613872(13) 0.970214(13) 0.52532(3)
O4_15 O 0.64947(6) 0.99222(6) 0.56694(14)
O6_16 O 0.57667(6) 0.95242(5) 0.46988(14)
C27_16 C 0.56549(9) 0.97287(9) 0.4179(2)
C28_16 C 0.53654(10) 0.96176(10) 0.3728(3)
H26_16 H 0.5269 0.9807 0.3452
H27_16 H 0.5197 0.9529 0.4084
C29_16 C 0.54644(13) 0.93466(13) 0.3134(3)
H28_16 H 0.5619 0.9440 0.2753
H29_16 H 0.5577 0.9165 0.3405
C30_16 C 0.51626(19) 0.9214(2) 0.2720(5)
H30_16 H 0.5036 0.9081 0.3095
H31_16 H 0.5023 0.9404 0.2580
C32_14 C 0.5201(3) 0.9046(3) 0.2134(7)
H33_14 H 0.5327 0.8846 0.2271
H34_14 H 0.5334 0.9173 0.1759
C34_11 C 0.4858(2) 0.8935(3) 0.1721(7)
H36_11 H 0.4734 0.8793 0.2071
H37_11 H 0.4907 0.8816 0.1244
H38_11 H 0.4727 0.9131 0.1600
Mn3_8 Mn 0.422470(13) 0.958550(13) 0.68354(3)
O7_15 O 0.40464(6) 0.98632(6) 0.75816(15)
O8_14 O 0.50478(6) 0.97447(6) 0.81874(13)
O9_16 O 0.44778(6) 0.93177(5) 0.61329(14)
O10_15 O 0.41026(6) 0.91390(7) 0.75315(16)
N7_16 N 0.46554(6) 0.96288(7) 0.73045(17)
N8_16 N 0.49100(7) 0.94738(7) 0.68867(17)
N9_15 N 0.39903(10) 0.85971(10) 0.7637(3)
C39_15 C 0.41833(10) 0.99950(10) 0.8202(2)
C44_15 C 0.45148(10) 0.99431(9) 0.8429(2)
C45_15 C 0.47492(9) 0.97626(9) 0.7957(2)
C46_16 C 0.47915(9) 0.93234(8) 0.6290(2)
C47_15 C 0.50188(9) 0.91485(9) 0.5742(2)
H47_15 H 0.5002 0.9252 0.5228
H48_15 H 0.5248 0.9175 0.5924
C48_16 C 0.49415(10) 0.87850(11) 0.5669(3)
H49_16 H 0.4709 0.8759 0.5516
H50_15 H 0.5080 0.8689 0.5256
C49_15 C 0.50008(13) 0.85978(11) 0.6412(4)
H51_16 H 0.4855 0.8687 0.6817
H52_15 H 0.5231 0.8634 0.6579
C50_16 C 0.49411(17) 0.82344(14) 0.6339(5)
H53_15 H 0.5093 0.8142 0.5949
H54_16 H 0.4714 0.8197 0.6156
C51_16 C 0.4990(2) 0.80568(16) 0.7089(6)
H55_16 H 0.4909 0.7831 0.7041
H56_15 H 0.5225 0.8053 0.7217
H57_16 H 0.4868 0.8170 0.7497
C52_16 C 0.40972(11) 0.88647(12) 0.7272(3)
H58_16 H 0.4176 0.8836 0.6761
C53_15 C 0.38686(15) 0.86145(16) 0.8399(4)
H59_15 H 0.3642 0.8533 0.8412
H60_15 H 0.4006 0.8479 0.8738
H61_15 H 0.3874 0.8843 0.8576
C54_16 C 0.39829(17) 0.82794(13) 0.7273(5)
H62_15 H 0.4144 0.8135 0.7519
H63_16 H 0.3763 0.8184 0.7326
H64_16 H 0.4037 0.8303 0.6725
O11_8 O 0.38093(5) 0.95125(6) 0.62719(14)
N10_8 N 0.42090(7) 0.99903(7) 0.59602(17)
N11_10 N 0.64715(8) 0.94290(8) 0.44063(18)
O1_15 O 0.83003(6) 0.79793(6) 0.03294(15)
N3_15 N 0.76186(8) 0.82370(8) 0.07750(17)
C1_15 C 0.85105(9) 0.82213(9) 0.0162(2)
C2_15 C 0.87919(10) 0.82444(10) 0.0613(2)
H1_15 H 0.8826 0.8090 0.1015
C3_15 C 0.90199(11) 0.84856(11) 0.0490(3)
H2_15 H 0.9210 0.8496 0.0807
H12_15 H 0.6641 0.8641 0.0183
H14_15 H 0.6596 0.9184 0.0326
C14_15 C 0.77237(11) 0.85336(10) 0.0959(2)
H16_15 H 0.7936 0.8599 0.0792
C15_15 C 0.75408(14) 0.87498(12) 0.1380(3)
H17_15 H 0.7631 0.8957 0.1515
C16_15 C 0.72284(15) 0.86715(13) 0.1609(3)
C17_15 C 0.71232(13) 0.83596(14) 0.1429(3)
H18_15 H 0.6912 0.8287 0.1594
C18_15 C 0.73202(12) 0.81532(12) 0.1014(3)
H19_15 H 0.7240 0.7940 0.0891
C19_15 C 0.70033(17) 0.89034(15) 0.2063(4)
H20_15 H 0.7041 0.9133 0.1893
H21_15 H 0.6771 0.8847 0.1959
C31_16 C 0.67108(9) 0.92291(9) 0.4627(2)
H32_15 H 0.6747 0.9202 0.5164
C33_16 C 0.69074(11) 0.90607(12) 0.4135(3)
H35_16 H 0.7081 0.8927 0.4326
C35_16 C 0.68526(15) 0.90854(15) 0.3362(3)
C36_16 C 0.66084(15) 0.92962(14) 0.3114(3)
H39_16 H 0.6568 0.9325 0.2579
C37_16 C 0.64256(12) 0.94615(12) 0.3644(3)
H40_16 H 0.6258 0.9606 0.3467
C38_16 C 0.7062(2) 0.88790(19) 0.2803(3)
H41_16 H 0.7295 0.8938 0.2889
H42_16 H 0.7036 0.8645 0.2949
O7_16 O 0.76368(6) 0.65464(6) 0.00816(15)
O8_15 O 0.77553(6) 0.75478(6) 0.06874(13)
O10_16 O 0.83610(7) 0.66026(6) 0.00315(16)
N9_16 N 0.89029(10) 0.64903(10) 0.0137(3)
C39_16 C 0.75050(10) 0.66833(10) 0.0702(2)
C40_14 C 0.72982(11) 0.64864(10) 0.1158(3)
H43_14 H 0.7253 0.6267 0.1004
C41_14 C 0.71622(13) 0.66055(14) 0.1818(3)
H44_14 H 0.7022 0.6467 0.2114
C42_14 C 0.72231(13) 0.69250(13) 0.2071(3)
H45_15 H 0.7135 0.7003 0.2544
C43_14 C 0.74162(11) 0.71259(11) 0.1613(3)
H46_14 H 0.7454 0.7347 0.1770
C44_16 C 0.75569(9) 0.70148(10) 0.0929(2)
C45_16 C 0.77374(9) 0.72492(9) 0.0457(2)
C53_16 C 0.88855(16) 0.63686(15) 0.0899(4)
H59_16 H 0.8967 0.6142 0.0912
H60_16 H 0.9021 0.6506 0.1238
H61_16 H 0.8657 0.6374 0.1076
H62_16 H 0.9365 0.6644 0.0019
O3_16 O 0.46382(6) 0.99683(5) 0.30875(13)
C8_16 C 0.44216(9) 0.99341(9) 0.3640(2)
C9_16 C 0.44079(10) 0.96051(9) 0.4027(2)
H5_16 H 0.4633 0.9536 0.4169
H6_16 H 0.4277 0.9622 0.4505
C10_16 C 0.42538(12) 0.93467(10) 0.3495(3)
H7_16 H 0.4283 0.9127 0.3730
H8_16 H 0.4373 0.9347 0.2997
C11_16 C 0.38982(13) 0.94010(12) 0.3345(4)
H9_16 H 0.3780 0.9401 0.3843
H10_16 H 0.3870 0.9621 0.3112
C12_16 C 0.37376(16) 0.91452(14) 0.2812(4)
H11_16 H 0.3759 0.8925 0.3051
H12_16 H 0.3859 0.9141 0.2317
C13_16 C 0.33804(18) 0.9210(2) 0.2648(6)
H13_16 H 0.3345 0.9447 0.2587
H14_16 H 0.3316 0.9096 0.2174
H15_16 H 0.3247 0.9129 0.3078
C16_16 C 0.38285(13) 0.97284(15) 0.0891(3)
C17_16 C 0.41404(14) 0.96232(13) 0.1071(3)
H18_16 H 0.4213 0.9412 0.0906
C18_16 C 0.43468(12) 0.98202(12) 0.1486(3)
H19_16 H 0.4560 0.9740 0.1609
C19_16 C 0.35966(15) 0.95033(17) 0.0437(4)
H20_16 H 0.3367 0.9541 0.0607
H21_16 H 0.3653 0.9271 0.0541
N4_16 N 0.39275(7) 0.99491(7) 0.54922(16)
C20_16 C 0.33311(9) 0.98336(9) 0.4634(2)
C21_16 C 0.30292(9) 0.97610(10) 0.4282(2)
H22_16 H 0.2961 0.9884 0.3845
C22_16 C 0.28292(10) 0.95149(11) 0.4560(3)
H23_16 H 0.2625 0.9472 0.4315
C23_16 C 0.29223(9) 0.93290(9) 0.5191(2)
H24_16 H 0.2785 0.9158 0.5378
C24_16 C 0.32141(8) 0.93962(9) 0.5537(2)
H25_16 H 0.3279 0.9267 0.5968
C25_16 C 0.34227(8) 0.96476(8) 0.5284(2)
C26_16 C 0.37339(8) 0.97012(8) 0.5708(2)
C40_15 C 0.60136(10) 0.97982(11) 0.1342(3)
H43_15 H 0.6233 0.9753 0.1496
C41_15 C 0.58945(14) 0.96622(13) 0.0682(3)
H44_15 H 0.6033 0.9522 0.0386
C42_15 C 0.55750(13) 0.97231(13) 0.0429(3)
C43_15 C 0.53741(11) 0.99162(11) 0.0887(3)
H46_15 H 0.5153 0.9954 0.0730
C34_12 C 0.9858(2) 0.3935(3) 0.6721(7)
H36_12 H 0.9734 0.3793 0.7071
H37_12 H 0.9907 0.3816 0.6244
H38_12 H 0.9727 0.4131 0.6600
Mn1_16 Mn 0.039472(13) 0.961542(13) 0.75641(3)
O1_16 O 0.04793(6) 0.91997(6) 0.71706(15)
O2_16 O 0.11554(6) 0.93278(5) 0.90157(14)
N1_16 N 0.07392(6) 0.95591(7) 0.83310(16)
N2_16 N 0.07822(7) 0.98350(7) 0.88187(16)
N3_16 N 0.07370(8) 0.98814(8) 0.67250(17)
C1_16 C 0.07213(9) 0.89895(9) 0.7338(2)
C2_16 C 0.07444(10) 0.87081(10) 0.6887(2)
H1_16 H 0.0590 0.8674 0.6485
C3_16 C 0.09856(11) 0.84801(11) 0.7010(3)
H2_16 H 0.0996 0.8290 0.6693
C4_16 C 0.12132(10) 0.85219(10) 0.7585(3)
H3_16 H 0.1382 0.8364 0.7662
C5_16 C 0.11930(9) 0.87945(9) 0.8049(2)
H4_16 H 0.1349 0.8824 0.8450
C6_16 C 0.09454(8) 0.90314(8) 0.7941(2)
C7_16 C 0.09483(8) 0.93188(8) 0.8461(2)
C14_16 C 0.10336(10) 0.97763(11) 0.6541(2)
H16_16 H 0.1099 0.9564 0.6708
C15_16 C 0.12498(12) 0.99592(14) 0.6120(3)
H17_16 H 0.1457 0.9869 0.5985
Mn2_10 Mn 0.113872(13) 0.970214(13) 0.97468(3)
O4_16 O 0.14947(6) 0.99222(6) 0.93306(14)
O8_16 O 0.00478(6) 0.97447(6) 0.68126(13)
C47_16 C 0.00188(9) 0.91485(9) 0.9258(2)
H47_16 H 0.0002 0.9252 0.9772
H48_16 H 0.0248 0.9175 0.9076
H50_16 H 0.0080 0.8689 0.9744
C49_16 C 0.00008(13) 0.85978(11) 0.8588(4)
H52_16 H 0.0231 0.8634 0.8421
H53_16 H 0.0093 0.8142 0.9051
H56_16 H 0.0225 0.8053 0.7783
H32_16 H 0.1747 0.9202 0.9836
C40_16 C 0.89864(10) 0.02018(11) 0.6342(3)
H43_16 H 0.8767 0.0247 0.6496
C41_16 C 0.91055(14) 0.03378(13) 0.5682(3)
H44_16 H 0.8967 0.0478 0.5386
C42_16 C 0.94250(13) 0.02769(13) 0.5429(3)
H45_16 H 0.9503 0.0365 0.4956
C43_16 C 0.96259(11) 0.00838(11) 0.5887(3)
H46_16 H 0.9847 0.0046 0.5730
C34_13 C 0.9858(2) 0.8935(3) 0.3279(7)
H36_13 H 0.9734 0.8793 0.2929
H37_13 H 0.9907 0.8816 0.3756
H38_13 H 0.9727 0.9131 0.3400
C32_15 C 0.3454(3) 0.7701(3) 0.0366(7)
H33_15 H 0.3654 0.7827 0.0229
H34_15 H 0.3327 0.7834 0.0741
C34_14 C 0.3565(3) 0.7358(2) 0.0779(7)
H36_14 H 0.3707 0.7234 0.0429
H37_14 H 0.3684 0.7407 0.1256
H38_14 H 0.3369 0.7227 0.0900
C32_16 C 0.6546(3) 0.7299(3) 0.0366(7)
H33_16 H 0.6346 0.7173 0.0229
H34_16 H 0.6673 0.7166 0.0741
C34_15 C 0.6435(3) 0.7642(2) 0.0779(7)
H36_15 H 0.6293 0.7766 0.0429
H37_15 H 0.6316 0.7593 0.1256
H38_15 H 0.6631 0.7773 0.0900
C34_16 C 0.0142(2) 0.6065(3) 0.3279(7)
H36_16 H 0.0266 0.6207 0.2929
H37_16 H 0.0093 0.6184 0.3756
H38_16 H 0.0273 0.5869 0.3400
loop_
_geom_bond_atom_site_label_1
_geom_bond_atom_site_label_2
_geom_bond_site_symmetry_1
_geom_bond_site_symmetry_2
Mn3 O7 1_555 1_555
O7 C39 1_555 1_555
O9 Mn3 1_555 1_555
O10 Mn3 1_555 1_555
N7 Mn3 1_555 1_555
N9 C52 1_555 1_555
C44 C39 1_555 1_555
C46 O9 1_555 1_555
H49 C48 1_555 1_555
H54 C50 1_555 1_555
C51 C50 1_555 1_555
H55 C51 1_555 1_555
H57 C51 1_555 1_555
C52 O10 1_555 1_555
H58 C52 1_555 1_555
C53 N9 1_555 1_555
H59 C53 1_555 1_555
H60 C53 1_555 1_555
H61 C53 1_555 1_555
C54 N9 1_555 1_555
H62 C54 1_555 1_555
H63 C54 1_555 1_555
H64 C54 1_555 1_555
O11 Mn3 1_555 1_555
N10 Mn3 1_555 1_555
N7 N8 1_555 1_555
N7 C45 1_555 1_555
N8 C46 1_555 1_555
C44 C45 1_555 1_555
O11 C26 1_555 1_555
N10 N4 1_555 1_555
H24 C23 1_555 1_555
C24 C23 1_555 1_555
H25 C24 1_555 1_555
C26 N4 1_555 1_555
C24 C25 1_555 1_555
C25 C26 1_555 1_555
H36 C34 1_555 1_555
H37 C34 1_555 1_555
H38 C34 1_555 1_555
C40 H43 1_555 1_555
C41 C40 1_555 1_555
H44 C41 1_555 1_555
C42 C41 1_555 1_555
H45 C42 1_555 1_555
C43 C42 1_555 1_555
H46 C43 1_555 1_555
Mn1 O1 1_555 1_555
O1 C1 1_555 1_555
O2 C7 1_555 1_555
N1 Mn1 1_555 1_555
N2 N1 1_555 1_555
N3 Mn1 1_555 1_555
C1 C2 1_555 1_555
C2 H1 1_555 1_555
C3 C2 1_555 1_555
H2 C3 1_555 1_555
C4 C3 1_555 1_555
H3 C4 1_555 1_555
C5 C4 1_555 1_555
H4 C5 1_555 1_555
C6 C1 1_555 1_555
C7 N1 1_555 1_555
C14 N3 1_555 1_555
H16 C14 1_555 1_555
C15 C14 1_555 1_555
H17 C15 1_555 1_555
Mn2 O2 1_555 1_555
O4 Mn2 1_555 1_555
O8 Mn1 1_555 1_555
H47 C47 1_555 1_555
H48 C47 1_555 1_555
H52 C49 1_555 1_555
N2 Mn2 1_555 1_555
C5 C6 1_555 1_555
C6 C7 1_555 1_555
C27 O6 1_555 1_555
C28 C27 1_555 1_555
H26 C28 1_555 1_555
H27 C28 1_555 1_555
C29 C28 1_555 1_555
H28 C29 1_555 1_555
H29 C29 1_555 1_555
C30 C29 1_555 1_555
H30 C30 1_555 1_555
H31 C30 1_555 1_555
C32 C30 1_555 1_555
H33 C32 1_555 1_555
H34 C32 1_555 1_555
Mn1_2 O1_2 1_555 1_555
O1_2 C1_2 1_555 1_555
O2_2 C7_2 1_555 1_555
O3 Mn1_2 1_555 1_555
N1_2 Mn1_2 1_555 1_555
N2_2 N1_2 1_555 1_555
N3_2 Mn1_2 1_555 1_555
C1_2 C2_2 1_555 1_555
C2_2 H1_2 1_555 1_555
C3_2 C2_2 1_555 1_555
H2_2 C3_2 1_555 1_555
C4_2 C3_2 1_555 1_555
H3_2 C4_2 1_555 1_555
C5_2 C4_2 1_555 1_555
H4_2 C5_2 1_555 1_555
C6_2 C1_2 1_555 1_555
C7_2 N1_2 1_555 1_555
C8 O3 1_555 1_555
C9 C8 1_555 1_555
H5 C9 1_555 1_555
H6 C9 1_555 1_555
C10 C9 1_555 1_555
H7 C10 1_555 1_555
H8 C10 1_555 1_555
C11 C10 1_555 1_555
H9 C11 1_555 1_555
H10 C11 1_555 1_555
C12 C11 1_555 1_555
H11 C12 1_555 1_555
H12 C12 1_555 1_555
C13 C12 1_555 1_555
H13 C13 1_555 1_555
H14 C13 1_555 1_555
H15 C13 1_555 1_555
C14_2 N3_2 1_555 1_555
H16_2 C14_2 1_555 1_555
C15_2 C14_2 1_555 1_555
H17_2 C15_2 1_555 1_555
C16 C15_2 1_555 1_555
C17 C16 1_555 1_555
H18 C17 1_555 1_555
C18 N3_2 1_555 1_555
H19 C18 1_555 1_555
C19 C16 1_555 1_555
H20 C19 1_555 1_555
H21 C19 1_555 1_555
Mn2_2 O2_2 1_555 1_555
O4_2 Mn2_2 1_555 1_555
O5 C26_2 1_555 1_555
O6_2 Mn2_2 1_555 1_555
N4_2 Mn2_2 1_555 1_555
N5 N4_2 1_555 1_555
N11 C31 1_555 1_555
C20 O4_2 1_555 1_555
C21 C20 1_555 1_555
H22 C21 1_555 1_555
C22 C21 1_555 1_555
H23 C22 1_555 1_555
C23_2 C22 1_555 1_555
H24_2 C23_2 1_555 1_555
C24_2 C23_2 1_555 1_555
H25_2 C24_2 1_555 1_555
C25_2 C20 1_555 1_555
C26_2 N4_2 1_555 1_555
C27_2 O6_2 1_555 1_555
C28_2 C27_2 1_555 1_555
H26_2 C28_2 1_555 1_555
H27_2 C28_2 1_555 1_555
C29_2 C28_2 1_555 1_555
H28_2 C29_2 1_555 1_555
H29_2 C29_2 1_555 1_555
C30_2 C29_2 1_555 1_555
H30_2 C30_2 1_555 1_555
H31_2 C30_2 1_555 1_555
C33 C31 1_555 1_555
H35 C33 1_555 1_555
C35 C33 1_555 1_555
C36 C35 1_555 1_555
H39 C36 1_555 1_555
C37 N11 1_555 1_555
H40 C37 1_555 1_555
C38 C19 1_555 1_555
H41 C38 1_555 1_555
H42 C38 1_555 1_555
Mn3_2 O7_2 1_555 1_555
O7_2 C39_2 1_555 1_555
O8_2 Mn1_2 1_555 1_555
O9_2 Mn3_2 1_555 1_555
O10_2 Mn3_2 1_555 1_555
N7_2 Mn3_2 1_555 1_555
N8_2 Mn1_2 1_555 1_555
N9_2 C52_2 1_555 1_555
C39_2 C40_2 1_555 1_555
C40_2 H43_2 1_555 1_555
C41_2 C40_2 1_555 1_555
H44_2 C41_2 1_555 1_555
C42_2 C41_2 1_555 1_555
H45_2 C42_2 1_555 1_555
C43_2 C42_2 1_555 1_555
H46_2 C43_2 1_555 1_555
C44_2 C39_2 1_555 1_555
C45_2 O8_2 1_555 1_555
C46_2 O9_2 1_555 1_555
C47_2 C46_2 1_555 1_555
H47_2 C47_2 1_555 1_555
H48_2 C47_2 1_555 1_555
C48_2 C47_2 1_555 1_555
H49_2 C48_2 1_555 1_555
H50_2 C48_2 1_555 1_555
C49_2 C48_2 1_555 1_555
H51_2 C49_2 1_555 1_555
H52_2 C49_2 1_555 1_555
C50_2 C49_2 1_555 1_555
H53_2 C50_2 1_555 1_555
H54_2 C50_2 1_555 1_555
C51_2 C50_2 1_555 1_555
H55_2 C51_2 1_555 1_555
H56_2 C51_2 1_555 1_555
H57_2 C51_2 1_555 1_555
C52_2 O10_2 1_555 1_555
H58_2 C52_2 1_555 1_555
C53_2 N9_2 1_555 1_555
H59_2 C53_2 1_555 1_555
H60_2 C53_2 1_555 1_555
H61_2 C53_2 1_555 1_555
C54_2 N9_2 1_555 1_555
H62_2 C54_2 1_555 1_555
H63_2 C54_2 1_555 1_555
H64_2 C54_2 1_555 1_555
O11_2 Mn3_2 1_555 1_555
N10_2 Mn3_2 1_555 1_555
N11_2 Mn2_2 1_555 1_555
Mn5 O5 1_555 1_555
N2_2 C8 1_555 1_555
N2_2 Mn2_2 1_555 1_555
C5_2 C6_2 1_555 1_555
C6_2 C7_2 1_555 1_555
C17 C18 1_555 1_555
N5 C27_2 1_555 1_555
N5 Mn5 1_555 1_555
C24_2 C25_2 1_555 1_555
C25_2 C26_2 1_555 1_555
C35 C38 1_555 1_555
C36 C37 1_555 1_555
N7_2 N8_2 1_555 1_555
N7_2 C45_2 1_555 1_555
N8_2 C46_2 1_555 1_555
C43_2 C44_2 1_555 1_555
C44_2 C45_2 1_555 1_555
N11_2 C31_2 1_555 1_555
C31_2 H32_2 1_555 1_555
C33_2 C31_2 1_555 1_555
H35_2 C33_2 1_555 1_555
C35_2 C33_2 1_555 1_555
C36_2 C35_2 1_555 1_555
H39_2 C36_2 1_555 1_555
C37_2 N11_2 1_555 1_555
H40_2 C37_2 1_555 1_555
H41_2 C38_2 1_555 1_555
H42_2 C38_2 1_555 1_555
C35_2 C38_2 1_555 1_555
C36_2 C37_2 1_555 1_555
O2_3 C7_3 1_555 1_555
O3_2 Mn1_3 1_555 1_555
N1_3 Mn1_3 1_555 1_555
N2_3 N1_3 1_555 1_555
H3_3 C4_3 1_555 1_555
C5_3 C4_3 1_555 1_555
H4_3 C5_3 1_555 1_555
C7_3 N1_3 1_555 1_555
C8_2 O3_2 1_555 1_555
C9_2 C8_2 1_555 1_555
H5_2 C9_2 1_555 1_555
H6_2 C9_2 1_555 1_555
C10_2 C9_2 1_555 1_555
H7_2 C10_2 1_555 1_555
H8_2 C10_2 1_555 1_555
C11_2 C10_2 1_555 1_555
H9_2 C11_2 1_555 1_555
H10_2 C11_2 1_555 1_555
C12_2 C11_2 1_555 1_555
H11_2 C12_2 1_555 1_555
C13_2 C12_2 1_555 1_555
H13_2 C13_2 1_555 1_555
H15_2 C13_2 1_555 1_555
Mn2_3 O2_3 1_555 1_555
O4_3 Mn2_3 1_555 1_555
O11_2 C26_3 1_555 1_555
O6_3 Mn2_3 1_555 1_555
N4_3 Mn2_3 1_555 1_555
N10_2 N4_3 1_555 1_555
C20_2 O4_3 1_555 1_555
C21_2 C20_2 1_555 1_555
H22_2 C21_2 1_555 1_555
C22_2 C21_2 1_555 1_555
H23_2 C22_2 1_555 1_555
C23_3 C22_2 1_555 1_555
H24_3 C23_3 1_555 1_555
C24_3 C23_3 1_555 1_555
H25_3 C24_3 1_555 1_555
C25_3 C20_2 1_555 1_555
C26_3 N4_3 1_555 1_555
C27_3 O6_3 1_555 1_555
C28_3 C27_3 1_555 1_555
H26_3 C28_3 1_555 1_555
H27_3 C28_3 1_555 1_555
C29_3 C28_3 1_555 1_555
H28_3 C29_3 1_555 1_555
H29_3 C29_3 1_555 1_555
C30_3 C29_3 1_555 1_555
H30_3 C30_3 1_555 1_555
H31_3 C30_3 1_555 1_555
C32_2 C30_3 1_555 1_555
H33_2 C32_2 1_555 1_555
H34_2 C32_2 1_555 1_555
C34_2 C32_2 1_555 1_555
H36_2 C34_2 1_555 1_555
H37_2 C34_2 1_555 1_555
H38_2 C34_2 1_555 1_555
O9_3 Mn5 1_555 1_555
N7_3 Mn5 1_555 1_555
N8_3 Mn1_3 1_555 1_555
C46_3 O9_3 1_555 1_555
C47_3 C46_3 1_555 1_555
H47_3 C47_3 1_555 1_555
H48_3 C47_3 1_555 1_555
C48_3 C47_3 1_555 1_555
H49_3 C48_3 1_555 1_555
H50_3 C48_3 1_555 1_555
C49_3 C48_3 1_555 1_555
H51_3 C49_3 1_555 1_555
H52_3 C49_3 1_555 1_555
C50_3 C49_3 1_555 1_555
H53_3 C50_3 1_555 1_555
H54_3 C50_3 1_555 1_555
C51_3 C50_3 1_555 1_555
H55_3 C51_3 1_555 1_555
H56_3 C51_3 1_555 1_555
H57_3 C51_3 1_555 1_555
H58_3 C52_3 1_555 1_555
H63_3 C54_3 1_555 1_555
H64_3 C54_3 1_555 1_555
N11_3 Mn2_3 1_555 1_555
N2_3 C8_2 1_555 1_555
N2_3 Mn2_3 1_555 1_555
C5_3 C6_3 1_555 1_555
C6_3 C7_3 1_555 1_555
N10_2 C27_3 1_555 1_555
C24_3 C25_3 1_555 1_555
C25_3 C26_3 1_555 1_555
N7_3 N8_3 1_555 1_555
N8_3 C46_3 1_555 1_555
Mn1_4 O1_3 1_555 1_555
O1_3 C1_3 1_555 1_555
O2_4 C7_4 1_555 1_555
O3_3 Mn1_4 1_555 1_555
N1_4 Mn1_4 1_555 1_555
N2_4 N1_4 1_555 1_555
N3_3 Mn1_4 1_555 1_555
C1_3 C2_3 1_555 1_555
C2_3 H1_3 1_555 1_555
C3_3 C2_3 1_555 1_555
H2_3 C3_3 1_555 1_555
C4_4 C3_3 1_555 1_555
H3_4 C4_4 1_555 1_555
C5_4 C4_4 1_555 1_555
H4_4 C5_4 1_555 1_555
C6_4 C1_3 1_555 1_555
C7_4 N1_4 1_555 1_555
C8_3 O3_3 1_555 1_555
C9_3 C8_3 1_555 1_555
H5_3 C9_3 1_555 1_555
H6_3 C9_3 1_555 1_555
C10_3 C9_3 1_555 1_555
H7_3 C10_3 1_555 1_555
H8_3 C10_3 1_555 1_555
C11_3 C10_3 1_555 1_555
H9_3 C11_3 1_555 1_555
H10_3 C11_3 1_555 1_555
C12_3 C11_3 1_555 1_555
H11_3 C12_3 1_555 1_555
H12_2 C12_3 1_555 1_555
C13_3 C12_3 1_555 1_555
H13_3 C13_3 1_555 1_555
H14_2 C13_3 1_555 1_555
H15_3 C13_3 1_555 1_555
C14_3 N3_3 1_555 1_555
H16_3 C14_3 1_555 1_555
C15_3 C14_3 1_555 1_555
H17_3 C15_3 1_555 1_555
C16_2 C15_3 1_555 1_555
C17_2 C16_2 1_555 1_555
H18_2 C17_2 1_555 1_555
C18_2 N3_3 1_555 1_555
H19_2 C18_2 1_555 1_555
C19_2 C16_2 1_555 1_555
H20_2 C19_2 1_555 1_555
H21_2 C19_2 1_555 1_555
Mn4 O2_4 1_555 1_555
O4_4 Mn4 1_555 1_555
N11_3 C31_3 1_555 1_555
C20_3 O4_4 1_555 1_555
C21_3 C20_3 1_555 1_555
H22_3 C21_3 1_555 1_555
C22_3 C21_3 1_555 1_555
H23_3 C22_3 1_555 1_555
C31_3 H32_4 1_555 1_555
C33_3 C31_3 1_555 1_555
H35_3 C33_3 1_555 1_555
C35_3 C33_3 1_555 1_555
C36_3 C35_3 1_555 1_555
H39_3 C36_3 1_555 1_555
C37_3 N11_3 1_555 1_555
H40_3 C37_3 1_555 1_555
C38_3 C19_2 1_555 1_555
H41_3 C38_3 1_555 1_555
H42_3 C38_3 1_555 1_555
O8_3 Mn1_4 1_555 1_555
H47_4 C47_4 1_555 1_555
H48_4 C47_4 1_555 1_555
H52_4 C49_4 1_555 1_555
N2_4 C8_3 1_555 1_555
N2_4 Mn4 1_555 1_555
C5_4 C6_4 1_555 1_555
C6_4 C7_4 1_555 1_555
C17_2 C18_2 1_555 1_555
C35_3 C38_3 1_555 1_555
C36_3 C37_3 1_555 1_555
C8_4 O3_4 1_555 1_555
C9_4 C8_4 1_555 1_555
H5_4 C9_4 1_555 1_555
H6_4 C9_4 1_555 1_555
C10_4 C9_4 1_555 1_555
H7_4 C10_4 1_555 1_555
H8_4 C10_4 1_555 1_555
C11_4 C10_4 1_555 1_555
H9_4 C11_4 1_555 1_555
H10_4 C11_4 1_555 1_555
C12_4 C11_4 1_555 1_555
H11_4 C12_4 1_555 1_555
H12_3 C12_4 1_555 1_555
C13_4 C12_4 1_555 1_555
H13_4 C13_4 1_555 1_555
H14_3 C13_4 1_555 1_555
H15_4 C13_4 1_555 1_555
C17_3 C16_3 1_555 1_555
H18_3 C17_3 1_555 1_555
H19_3 C18_3 1_555 1_555
C19_3 C16_3 1_555 1_555
H20_3 C19_3 1_555 1_555
H21_3 C19_3 1_555 1_555
N6 C31_4 1_555 1_555
C21_4 C20_4 1_555 1_555
H22_4 C21_4 1_555 1_555
C22_4 C21_4 1_555 1_555
H23_4 C22_4 1_555 1_555
C31_4 H32_5 1_555 1_555
C33_4 C31_4 1_555 1_555
H35_4 C33_4 1_555 1_555
C35_4 C33_4 1_555 1_555
C36_4 C35_4 1_555 1_555
H39_4 C36_4 1_555 1_555
C37_4 N6 1_555 1_555
H40_4 C37_4 1_555 1_555
C38_4 C19_3 1_555 1_555
H41_4 C38_4 1_555 1_555
H42_4 C38_4 1_555 1_555
Mn4_2 N6 1_555 1_555
C17_3 C18_3 1_555 1_555
C35_4 C38_4 1_555 1_555
C36_4 C37_4 1_555 1_555
O2_5 C7_5 1_555 1_555
O3_5 Mn1_5 1_555 1_555
N1_5 Mn1_5 1_555 1_555
N2_5 N1_5 1_555 1_555
H3_5 C4_5 1_555 1_555
C5_5 C4_5 1_555 1_555
H4_5 C5_5 1_555 1_555
C7_5 N1_5 1_555 1_555
C8_5 O3_5 1_555 1_555
C9_5 C8_5 1_555 1_555
H5_5 C9_5 1_555 1_555
H6_5 C9_5 1_555 1_555
C10_5 C9_5 1_555 1_555
H7_5 C10_5 1_555 1_555
H8_5 C10_5 1_555 1_555
C11_5 C10_5 1_555 1_555
H9_5 C11_5 1_555 1_555
H10_5 C11_5 1_555 1_555
C12_5 C11_5 1_555 1_555
H11_5 C12_5 1_555 1_555
C13_5 C12_5 1_555 1_555
H13_5 C13_5 1_555 1_555
H15_5 C13_5 1_555 1_555
Mn4_2 O2_5 1_555 1_555
O4_5 Mn4_2 1_555 1_555
O5_2 C26_4 1_555 1_555
O6_4 Mn4_2 1_555 1_555
N4_4 Mn4_2 1_555 1_555
N5_2 N4_4 1_555 1_555
C20_5 O4_5 1_555 1_555
C21_5 C20_5 1_555 1_555
H22_5 C21_5 1_555 1_555
C22_5 C21_5 1_555 1_555
H23_5 C22_5 1_555 1_555
C23_4 C22_5 1_555 1_555
H24_4 C23_4 1_555 1_555
C24_4 C23_4 1_555 1_555
H25_4 C24_4 1_555 1_555
C25_4 C20_5 1_555 1_555
C26_4 N4_4 1_555 1_555
C27_4 O6_4 1_555 1_555
C28_4 C27_4 1_555 1_555
H26_4 C28_4 1_555 1_555
H27_4 C28_4 1_555 1_555
C29_4 C28_4 1_555 1_555
H28_4 C29_4 1_555 1_555
H29_4 C29_4 1_555 1_555
C30_4 C29_4 1_555 1_555
H30_4 C30_4 1_555 1_555
H31_4 C30_4 1_555 1_555
C32_3 C30_4 1_555 1_555
H33_3 C32_3 1_555 1_555
H34_3 C32_3 1_555 1_555
C34_3 C32_3 1_555 1_555
H36_3 C34_3 1_555 1_555
H37_3 C34_3 1_555 1_555
H38_3 C34_3 1_555 1_555
O9_4 Mn3_3 1_555 1_555
N7_4 Mn3_3 1_555 1_555
N8_4 Mn1_5 1_555 1_555
C46_4 O9_4 1_555 1_555
C47_5 C46_4 1_555 1_555
H47_5 C47_5 1_555 1_555
H48_5 C47_5 1_555 1_555
C48_4 C47_5 1_555 1_555
H49_4 C48_4 1_555 1_555
H50_5 C48_4 1_555 1_555
C49_5 C48_4 1_555 1_555
H51_4 C49_5 1_555 1_555
H52_5 C49_5 1_555 1_555
C50_4 C49_5 1_555 1_555
H53_5 C50_4 1_555 1_555
H54_4 C50_4 1_555 1_555
C51_4 C50_4 1_555 1_555
H55_4 C51_4 1_555 1_555
H56_5 C51_4 1_555 1_555
H57_4 C51_4 1_555 1_555
H58_4 C52_4 1_555 1_555
H63_4 C54_4 1_555 1_555
H64_4 C54_4 1_555 1_555
O11_3 Mn3_3 1_555 1_555
N10_3 Mn3_3 1_555 1_555
Mn5_2 O5_2 1_555 1_555
N2_5 C8_5 1_555 1_555
N2_5 Mn4_2 1_555 1_555
C5_5 C6_5 1_555 1_555
C6_5 C7_5 1_555 1_555
N5_2 C27_4 1_555 1_555
N5_2 Mn5_2 1_555 1_555
C24_4 C25_4 1_555 1_555
C25_4 C26_4 1_555 1_555
N7_4 N8_4 1_555 1_555
N8_4 C46_4 1_555 1_555
Mn3_4 O7_3 1_555 1_555
O7_3 C39_3 1_555 1_555
O9_5 Mn3_4 1_555 1_555
O10_3 Mn3_4 1_555 1_555
N7_5 Mn3_4 1_555 1_555
N9_3 C52_5 1_555 1_555
C39_3 C40_3 1_555 1_555
C40_3 H43_3 1_555 1_555
C41_3 C40_3 1_555 1_555
H44_3 C41_3 1_555 1_555
C42_3 C41_3 1_555 1_555
H45_4 C42_3 1_555 1_555
C43_3 C42_3 1_555 1_555
H46_3 C43_3 1_555 1_555
C44_3 C39_3 1_555 1_555
C46_5 O9_5 1_555 1_555
H49_5 C48_5 1_555 1_555
H54_5 C50_5 1_555 1_555
C51_5 C50_5 1_555 1_555
H55_5 C51_5 1_555 1_555
H57_5 C51_5 1_555 1_555
C52_5 O10_3 1_555 1_555
H58_5 C52_5 1_555 1_555
C53_3 N9_3 1_555 1_555
H59_3 C53_3 1_555 1_555
H60_3 C53_3 1_555 1_555
H61_3 C53_3 1_555 1_555
C54_5 N9_3 1_555 1_555
H62_3 C54_5 1_555 1_555
H63_5 C54_5 1_555 1_555
H64_5 C54_5 1_555 1_555
O11_4 Mn3_4 1_555 1_555
N10_4 Mn3_4 1_555 1_555
N7_5 N8_5 1_555 1_555
N7_5 C45_3 1_555 1_555
N8_5 C46_5 1_555 1_555
C43_3 C44_3 1_555 1_555
C44_3 C45_3 1_555 1_555
N6_2 C31_5 1_555 1_555
C31_5 H32_6 1_555 1_555
C33_5 C31_5 1_555 1_555
H35_5 C33_5 1_555 1_555
C35_5 C33_5 1_555 1_555
C36_5 C35_5 1_555 1_555
H39_5 C36_5 1_555 1_555
C37_5 N6_2 1_555 1_555
H40_5 C37_5 1_555 1_555
H41_5 C38_5 1_555 1_555
H42_5 C38_5 1_555 1_555
Mn4_3 N6_2 1_555 1_555
C35_5 C38_5 1_555 1_555
C36_5 C37_5 1_555 1_555
Mn1_6 O1_4 1_555 1_555
O1_4 C1_4 1_555 1_555
O2_6 C7_6 1_555 1_555
O3_6 Mn1_6 1_555 1_555
N1_6 Mn1_6 1_555 1_555
N2_6 N1_6 1_555 1_555
N3_4 Mn1_6 1_555 1_555
C1_4 C2_4 1_555 1_555
C2_4 H1_4 1_555 1_555
C3_4 C2_4 1_555 1_555
H2_4 C3_4 1_555 1_555
C4_6 C3_4 1_555 1_555
H3_6 C4_6 1_555 1_555
C5_6 C4_6 1_555 1_555
H4_6 C5_6 1_555 1_555
C6_6 C1_4 1_555 1_555
C7_6 N1_6 1_555 1_555
C8_6 O3_6 1_555 1_555
C9_6 C8_6 1_555 1_555
H5_6 C9_6 1_555 1_555
H6_6 C9_6 1_555 1_555
C10_6 C9_6 1_555 1_555
H7_6 C10_6 1_555 1_555
H8_6 C10_6 1_555 1_555
C11_6 C10_6 1_555 1_555
H9_6 C11_6 1_555 1_555
H10_6 C11_6 1_555 1_555
C12_6 C11_6 1_555 1_555
H11_6 C12_6 1_555 1_555
H12_4 C12_6 1_555 1_555
C13_6 C12_6 1_555 1_555
H13_6 C13_6 1_555 1_555
H14_4 C13_6 1_555 1_555
H15_6 C13_6 1_555 1_555
C14_4 N3_4 1_555 1_555
H16_4 C14_4 1_555 1_555
C15_4 C14_4 1_555 1_555
H17_4 C15_4 1_555 1_555
C16_4 C15_4 1_555 1_555
C17_4 C16_4 1_555 1_555
H18_4 C17_4 1_555 1_555
C18_4 N3_4 1_555 1_555
H19_4 C18_4 1_555 1_555
C19_4 C16_4 1_555 1_555
H20_4 C19_4 1_555 1_555
H21_4 C19_4 1_555 1_555
Mn4_3 O2_6 1_555 1_555
O4_6 Mn4_3 1_555 1_555
O11_3 C26_5 1_555 1_555
O6_5 Mn4_3 1_555 1_555
N4_5 Mn4_3 1_555 1_555
N10_3 N4_5 1_555 1_555
N6_3 C31_6 1_555 1_555
C20_6 O4_6 1_555 1_555
C21_6 C20_6 1_555 1_555
H22_6 C21_6 1_555 1_555
C22_6 C21_6 1_555 1_555
H23_6 C22_6 1_555 1_555
C23_5 C22_6 1_555 1_555
H24_5 C23_5 1_555 1_555
C24_5 C23_5 1_555 1_555
H25_5 C24_5 1_555 1_555
C25_5 C20_6 1_555 1_555
C26_5 N4_5 1_555 1_555
C27_5 O6_5 1_555 1_555
C28_5 C27_5 1_555 1_555
H26_5 C28_5 1_555 1_555
H27_5 C28_5 1_555 1_555
C29_5 C28_5 1_555 1_555
H28_5 C29_5 1_555 1_555
H29_5 C29_5 1_555 1_555
C30_5 C29_5 1_555 1_555
H30_5 C30_5 1_555 1_555
H31_5 C30_5 1_555 1_555
C33_6 C31_6 1_555 1_555
H35_6 C33_6 1_555 1_555
C35_6 C33_6 1_555 1_555
C36_6 C35_6 1_555 1_555
H39_6 C36_6 1_555 1_555
C37_6 N6_3 1_555 1_555
H40_6 C37_6 1_555 1_555
C38_6 C19_4 1_555 1_555
H41_6 C38_6 1_555 1_555
H42_6 C38_6 1_555 1_555
Mn5_2 O7_4 1_555 1_555
O7_4 C39_4 1_555 1_555
O8_4 Mn1_6 1_555 1_555
O9_6 Mn5_2 1_555 1_555
O10_4 Mn5_2 1_555 1_555
N7_6 Mn5_2 1_555 1_555
N8_6 Mn1_6 1_555 1_555
N9_4 C52_6 1_555 1_555
C39_4 C40_4 1_555 1_555
C40_4 H43_4 1_555 1_555
C41_4 C40_4 1_555 1_555
H44_4 C41_4 1_555 1_555
C42_4 C41_4 1_555 1_555
H45_6 C42_4 1_555 1_555
C43_4 C42_4 1_555 1_555
H46_4 C43_4 1_555 1_555
C44_4 C39_4 1_555 1_555
C45_4 O8_4 1_555 1_555
C46_6 O9_6 1_555 1_555
C47_6 C46_6 1_555 1_555
H47_6 C47_6 1_555 1_555
H48_6 C47_6 1_555 1_555
C48_6 C47_6 1_555 1_555
H49_6 C48_6 1_555 1_555
H50_6 C48_6 1_555 1_555
C49_6 C48_6 1_555 1_555
H51_6 C49_6 1_555 1_555
H52_6 C49_6 1_555 1_555
C50_6 C49_6 1_555 1_555
H53_6 C50_6 1_555 1_555
H54_6 C50_6 1_555 1_555
C51_6 C50_6 1_555 1_555
H55_6 C51_6 1_555 1_555
H56_6 C51_6 1_555 1_555
H57_6 C51_6 1_555 1_555
C52_6 O10_4 1_555 1_555
H58_6 C52_6 1_555 1_555
C53_4 N9_4 1_555 1_555
H59_4 C53_4 1_555 1_555
H60_4 C53_4 1_555 1_555
H61_4 C53_4 1_555 1_555
C54_6 N9_4 1_555 1_555
H62_4 C54_6 1_555 1_555
H63_6 C54_6 1_555 1_555
H64_6 C54_6 1_555 1_555
N2_6 C8_6 1_555 1_555
N2_6 Mn4_3 1_555 1_555
C5_6 C6_6 1_555 1_555
C6_6 C7_6 1_555 1_555
C17_4 C18_4 1_555 1_555
N10_3 C27_5 1_555 1_555
C24_5 C25_5 1_555 1_555
C25_5 C26_5 1_555 1_555
C35_6 C38_6 1_555 1_555
C36_6 C37_6 1_555 1_555
N7_6 N8_6 1_555 1_555
N7_6 C45_4 1_555 1_555
N8_6 C46_6 1_555 1_555
C43_4 C44_4 1_555 1_555
C44_4 C45_4 1_555 1_555
O11_4 C26_6 1_555 1_555
N10_4 N4_6 1_555 1_555
H24_6 C23_6 1_555 1_555
C24_6 C23_6 1_555 1_555
H25_6 C24_6 1_555 1_555
C26_6 N4_6 1_555 1_555
C27_6 O6_6 1_555 1_555
C28_6 C27_6 1_555 1_555
H26_6 C28_6 1_555 1_555
H27_6 C28_6 1_555 1_555
C29_6 C28_6 1_555 1_555
H28_6 C29_6 1_555 1_555
H29_6 C29_6 1_555 1_555
C30_6 C29_6 1_555 1_555
H30_6 C30_6 1_555 1_555
H31_6 C30_6 1_555 1_555
C32_4 C30_6 1_555 1_555
H33_4 C32_4 1_555 1_555
H34_4 C32_4 1_555 1_555
N10_4 C27_6 1_555 1_555
C24_6 C25_6 1_555 1_555
C25_6 C26_6 1_555 1_555
O5_3 C26_7 1_555 1_555
N5_3 N4_7 1_555 1_555
H24_7 C23_7 1_555 1_555
C24_7 C23_7 1_555 1_555
H25_7 C24_7 1_555 1_555
C26_7 N4_7 1_555 1_555
Mn5_3 O5_3 1_555 1_555
N5_3 Mn5_3 1_555 1_555
C24_7 C25_7 1_555 1_555
C25_7 C26_7 1_555 1_555
Mn5_3 O7_5 1_555 1_555
O7_5 C39_5 1_555 1_555
O9_7 Mn5_3 1_555 1_555
O10_5 Mn5_3 1_555 1_555
N7_7 Mn5_3 1_555 1_555
N9_5 C52_7 1_555 1_555
C44_5 C39_5 1_555 1_555
C46_7 O9_7 1_555 1_555
H49_7 C48_7 1_555 1_555
H54_7 C50_7 1_555 1_555
C51_7 C50_7 1_555 1_555
H55_7 C51_7 1_555 1_555
H57_7 C51_7 1_555 1_555
C52_7 O10_5 1_555 1_555
H58_7 C52_7 1_555 1_555
C53_5 N9_5 1_555 1_555
H59_5 C53_5 1_555 1_555
H60_5 C53_5 1_555 1_555
H61_5 C53_5 1_555 1_555
C54_7 N9_5 1_555 1_555
H62_5 C54_7 1_555 1_555
H63_7 C54_7 1_555 1_555
H64_7 C54_7 1_555 1_555
N7_7 N8_7 1_555 1_555
N7_7 C45_5 1_555 1_555
N8_7 C46_7 1_555 1_555
C44_5 C45_5 1_555 1_555
H33_5 C32_5 1_555 1_555
H34_5 C32_5 1_555 1_555
C34_4 C32_5 1_555 1_555
H36_4 C34_4 1_555 1_555
H37_4 C34_4 1_555 1_555
H38_4 C34_4 1_555 1_555
N6_4 C31_7 1_555 1_555
C31_7 H32_7 1_555 1_555
C33_7 C31_7 1_555 1_555
H35_7 C33_7 1_555 1_555
C35_7 C33_7 1_555 1_555
C36_7 C35_7 1_555 1_555
H39_7 C36_7 1_555 1_555
C37_7 N6_4 1_555 1_555
H40_7 C37_7 1_555 1_555
H41_7 C38_7 1_555 1_555
H42_7 C38_7 1_555 1_555
Mn4_4 N6_4 1_555 1_555
C35_7 C38_7 1_555 1_555
C36_7 C37_7 1_555 1_555
Mn1_7 O1_5 1_555 1_555
O1_5 C1_5 1_555 1_555
O2_7 C7_7 1_555 1_555
O3_7 Mn1_7 1_555 1_555
N1_7 Mn1_7 1_555 1_555
N2_7 N1_7 1_555 1_555
N3_5 Mn1_7 1_555 1_555
C1_5 C2_5 1_555 1_555
C2_5 H1_5 1_555 1_555
C3_5 C2_5 1_555 1_555
H2_5 C3_5 1_555 1_555
C4_7 C3_5 1_555 1_555
H3_7 C4_7 1_555 1_555
C5_7 C4_7 1_555 1_555
H4_7 C5_7 1_555 1_555
C6_7 C1_5 1_555 1_555
C7_7 N1_7 1_555 1_555
C8_7 O3_7 1_555 1_555
C9_7 C8_7 1_555 1_555
H5_7 C9_7 1_555 1_555
H6_7 C9_7 1_555 1_555
C10_7 C9_7 1_555 1_555
H7_7 C10_7 1_555 1_555
H8_7 C10_7 1_555 1_555
C11_7 C10_7 1_555 1_555
H9_7 C11_7 1_555 1_555
H10_7 C11_7 1_555 1_555
C12_7 C11_7 1_555 1_555
H11_7 C12_7 1_555 1_555
H12_5 C12_7 1_555 1_555
C13_7 C12_7 1_555 1_555
H13_7 C13_7 1_555 1_555
H14_5 C13_7 1_555 1_555
H15_7 C13_7 1_555 1_555
C14_5 N3_5 1_555 1_555
H16_5 C14_5 1_555 1_555
C15_5 C14_5 1_555 1_555
H17_5 C15_5 1_555 1_555
C16_5 C15_5 1_555 1_555
C17_5 C16_5 1_555 1_555
H18_5 C17_5 1_555 1_555
C18_5 N3_5 1_555 1_555
H19_5 C18_5 1_555 1_555
C19_5 C16_5 1_555 1_555
H20_5 C19_5 1_555 1_555
H21_5 C19_5 1_555 1_555
Mn4_4 O2_7 1_555 1_555
O4_7 Mn4_4 1_555 1_555
O5_4 C26_8 1_555 1_555
O6_7 Mn4_4 1_555 1_555
N4_8 Mn4_4 1_555 1_555
N5_4 N4_8 1_555 1_555
N6_5 C31_8 1_555 1_555
C20_7 O4_7 1_555 1_555
C21_7 C20_7 1_555 1_555
H22_7 C21_7 1_555 1_555
C22_7 C21_7 1_555 1_555
H23_7 C22_7 1_555 1_555
C23_8 C22_7 1_555 1_555
H24_8 C23_8 1_555 1_555
C24_8 C23_8 1_555 1_555
H25_8 C24_8 1_555 1_555
C25_8 C20_7 1_555 1_555
C26_8 N4_8 1_555 1_555
C27_7 O6_7 1_555 1_555
C28_7 C27_7 1_555 1_555
H26_7 C28_7 1_555 1_555
H27_7 C28_7 1_555 1_555
C29_7 C28_7 1_555 1_555
H28_7 C29_7 1_555 1_555
H29_7 C29_7 1_555 1_555
C30_7 C29_7 1_555 1_555
H30_7 C30_7 1_555 1_555
H31_7 C30_7 1_555 1_555
C33_8 C31_8 1_555 1_555
H35_8 C33_8 1_555 1_555
C35_8 C33_8 1_555 1_555
C36_8 C35_8 1_555 1_555
H39_8 C36_8 1_555 1_555
C37_8 N6_5 1_555 1_555
H40_8 C37_8 1_555 1_555
C38_8 C19_5 1_555 1_555
H41_8 C38_8 1_555 1_555
H42_8 C38_8 1_555 1_555
Mn3_5 O7_6 1_555 1_555
O7_6 C39_6 1_555 1_555
O8_5 Mn1_7 1_555 1_555
O9_8 Mn3_5 1_555 1_555
O10_6 Mn3_5 1_555 1_555
N7_8 Mn3_5 1_555 1_555
N8_8 Mn1_7 1_555 1_555
N9_6 C52_8 1_555 1_555
C39_6 C40_5 1_555 1_555
C40_5 H43_5 1_555 1_555
C41_5 C40_5 1_555 1_555
H44_5 C41_5 1_555 1_555
C42_5 C41_5 1_555 1_555
H45_8 C42_5 1_555 1_555
C43_5 C42_5 1_555 1_555
H46_5 C43_5 1_555 1_555
C44_6 C39_6 1_555 1_555
C45_6 O8_5 1_555 1_555
C46_8 O9_8 1_555 1_555
C47_7 C46_8 1_555 1_555
H47_7 C47_7 1_555 1_555
H48_7 C47_7 1_555 1_555
C48_8 C47_7 1_555 1_555
H49_8 C48_8 1_555 1_555
H50_7 C48_8 1_555 1_555
C49_7 C48_8 1_555 1_555
H51_8 C49_7 1_555 1_555
H52_7 C49_7 1_555 1_555
C50_8 C49_7 1_555 1_555
H53_7 C50_8 1_555 1_555
H54_8 C50_8 1_555 1_555
C51_8 C50_8 1_555 1_555
H55_8 C51_8 1_555 1_555
H56_7 C51_8 1_555 1_555
H57_8 C51_8 1_555 1_555
C52_8 O10_6 1_555 1_555
H58_8 C52_8 1_555 1_555
C53_6 N9_6 1_555 1_555
H59_6 C53_6 1_555 1_555
H60_6 C53_6 1_555 1_555
H61_6 C53_6 1_555 1_555
C54_8 N9_6 1_555 1_555
H62_6 C54_8 1_555 1_555
H63_8 C54_8 1_555 1_555
H64_8 C54_8 1_555 1_555
O11_5 Mn3_5 1_555 1_555
N10_5 Mn3_5 1_555 1_555
Mn5_4 O5_4 1_555 1_555
N2_7 C8_7 1_555 1_555
N2_7 Mn4_4 1_555 1_555
C5_7 C6_7 1_555 1_555
C6_7 C7_7 1_555 1_555
C17_5 C18_5 1_555 1_555
N5_4 C27_7 1_555 1_555
N5_4 Mn5_4 1_555 1_555
C24_8 C25_8 1_555 1_555
C25_8 C26_8 1_555 1_555
C35_8 C38_8 1_555 1_555
C36_8 C37_8 1_555 1_555
N7_8 N8_8 1_555 1_555
N7_8 C45_6 1_555 1_555
N8_8 C46_8 1_555 1_555
C43_5 C44_6 1_555 1_555
C44_6 C45_6 1_555 1_555
O5_5 C26_9 1_555 1_555
N5_5 N4_9 1_555 1_555
H24_9 C23_9 1_555 1_555
C24_9 C23_9 1_555 1_555
H25_9 C24_9 1_555 1_555
C26_9 N4_9 1_555 1_555
C27_8 O6_8 1_555 1_555
C28_8 C27_8 1_555 1_555
H26_8 C28_8 1_555 1_555
H27_8 C28_8 1_555 1_555
C29_8 C28_8 1_555 1_555
H28_8 C29_8 1_555 1_555
H29_8 C29_8 1_555 1_555
C30_8 C29_8 1_555 1_555
H30_8 C30_8 1_555 1_555
H31_8 C30_8 1_555 1_555
C32_6 C30_8 1_555 1_555
H33_6 C32_6 1_555 1_555
H34_6 C32_6 1_555 1_555
Mn5_5 O5_5 1_555 1_555
N5_5 C27_8 1_555 1_555
N5_5 Mn5_5 1_555 1_555
C24_9 C25_9 1_555 1_555
C25_9 C26_9 1_555 1_555
C8_8 O3_8 1_555 1_555
C9_8 C8_8 1_555 1_555
H5_8 C9_8 1_555 1_555
H6_8 C9_8 1_555 1_555
C10_8 C9_8 1_555 1_555
H7_8 C10_8 1_555 1_555
H8_8 C10_8 1_555 1_555
C11_8 C10_8 1_555 1_555
H9_8 C11_8 1_555 1_555
H10_8 C11_8 1_555 1_555
C12_8 C11_8 1_555 1_555
H11_8 C12_8 1_555 1_555
H12_6 C12_8 1_555 1_555
C13_8 C12_8 1_555 1_555
H13_8 C13_8 1_555 1_555
H14_6 C13_8 1_555 1_555
H15_8 C13_8 1_555 1_555
C17_6 C16_6 1_555 1_555
H18_6 C17_6 1_555 1_555
H19_6 C18_6 1_555 1_555
C19_6 C16_6 1_555 1_555
H20_6 C19_6 1_555 1_555
H21_6 C19_6 1_555 1_555
N6_6 C31_9 1_555 1_555
C21_8 C20_8 1_555 1_555
H22_8 C21_8 1_555 1_555
C22_8 C21_8 1_555 1_555
H23_8 C22_8 1_555 1_555
C31_9 H32_8 1_555 1_555
C33_9 C31_9 1_555 1_555
H35_9 C33_9 1_555 1_555
C35_9 C33_9 1_555 1_555
C36_9 C35_9 1_555 1_555
H39_9 C36_9 1_555 1_555
C37_9 N6_6 1_555 1_555
H40_9 C37_9 1_555 1_555
C38_9 C19_6 1_555 1_555
H41_9 C38_9 1_555 1_555
H42_9 C38_9 1_555 1_555
Mn4_5 N6_6 1_555 1_555
C17_6 C18_6 1_555 1_555
C35_9 C38_9 1_555 1_555
C36_9 C37_9 1_555 1_555
O2_8 C7_8 1_555 1_555
O3_9 Mn1_8 1_555 1_555
N1_8 Mn1_8 1_555 1_555
N2_8 N1_8 1_555 1_555
H3_8 C4_8 1_555 1_555
C5_8 C4_8 1_555 1_555
H4_8 C5_8 1_555 1_555
C7_8 N1_8 1_555 1_555
C8_9 O3_9 1_555 1_555
C9_9 C8_9 1_555 1_555
H5_9 C9_9 1_555 1_555
H6_9 C9_9 1_555 1_555
C10_9 C9_9 1_555 1_555
H7_9 C10_9 1_555 1_555
H8_9 C10_9 1_555 1_555
C11_9 C10_9 1_555 1_555
H9_9 C11_9 1_555 1_555
H10_9 C11_9 1_555 1_555
C12_9 C11_9 1_555 1_555
H11_9 C12_9 1_555 1_555
C13_9 C12_9 1_555 1_555
H13_9 C13_9 1_555 1_555
H15_9 C13_9 1_555 1_555
Mn4_5 O2_8 1_555 1_555
O4_8 Mn4_5 1_555 1_555
O11_5 C26_10 1_555 1_555
O6_9 Mn4_5 1_555 1_555
N4_10 Mn4_5 1_555 1_555
N10_5 N4_10 1_555 1_555
C20_9 O4_8 1_555 1_555
C21_9 C20_9 1_555 1_555
H22_9 C21_9 1_555 1_555
C22_9 C21_9 1_555 1_555
H23_9 C22_9 1_555 1_555
C23_10 C22_9 1_555 1_555
H24_10 C23_10 1_555 1_555
C24_10 C23_10 1_555 1_555
H25_10 C24_10 1_555 1_555
C25_10 C20_9 1_555 1_555
C26_10 N4_10 1_555 1_555
C27_9 O6_9 1_555 1_555
C28_9 C27_9 1_555 1_555
H26_9 C28_9 1_555 1_555
H27_9 C28_9 1_555 1_555
C29_9 C28_9 1_555 1_555
H28_9 C29_9 1_555 1_555
H29_9 C29_9 1_555 1_555
C30_9 C29_9 1_555 1_555
H30_9 C30_9 1_555 1_555
H31_9 C30_9 1_555 1_555
C32_7 C30_9 1_555 1_555
H33_7 C32_7 1_555 1_555
H34_7 C32_7 1_555 1_555
C34_5 C32_7 1_555 1_555
H36_5 C34_5 1_555 1_555
H37_5 C34_5 1_555 1_555
H38_5 C34_5 1_555 1_555
O9_9 Mn5_4 1_555 1_555
N7_9 Mn5_4 1_555 1_555
N8_9 Mn1_8 1_555 1_555
C46_9 O9_9 1_555 1_555
C47_8 C46_9 1_555 1_555
H47_8 C47_8 1_555 1_555
H48_8 C47_8 1_555 1_555
C48_9 C47_8 1_555 1_555
H49_9 C48_9 1_555 1_555
H50_8 C48_9 1_555 1_555
C49_8 C48_9 1_555 1_555
H51_9 C49_8 1_555 1_555
H52_8 C49_8 1_555 1_555
C50_9 C49_8 1_555 1_555
H53_8 C50_9 1_555 1_555
H54_9 C50_9 1_555 1_555
C51_9 C50_9 1_555 1_555
H55_9 C51_9 1_555 1_555
H56_8 C51_9 1_555 1_555
H57_9 C51_9 1_555 1_555
H58_9 C52_9 1_555 1_555
H63_9 C54_9 1_555 1_555
H64_9 C54_9 1_555 1_555
N2_8 C8_9 1_555 1_555
N2_8 Mn4_5 1_555 1_555
C5_8 C6_8 1_555 1_555
C6_8 C7_8 1_555 1_555
N10_5 C27_9 1_555 1_555
C24_10 C25_10 1_555 1_555
C25_10 C26_10 1_555 1_555
N7_9 N8_9 1_555 1_555
N8_9 C46_9 1_555 1_555
Mn5_5 O7_7 1_555 1_555
O7_7 C39_7 1_555 1_555
O9_10 Mn5_5 1_555 1_555
O10_7 Mn5_5 1_555 1_555
N7_10 Mn5_5 1_555 1_555
N9_7 C52_10 1_555 1_555
C39_7 C40_6 1_555 1_555
C40_6 H43_6 1_555 1_555
C41_6 C40_6 1_555 1_555
H44_6 C41_6 1_555 1_555
C42_6 C41_6 1_555 1_555
H45_9 C42_6 1_555 1_555
C43_6 C42_6 1_555 1_555
H46_6 C43_6 1_555 1_555
C44_7 C39_7 1_555 1_555
C46_10 O9_10 1_555 1_555
H49_10 C48_10 1_555 1_555
H54_10 C50_10 1_555 1_555
C51_10 C50_10 1_555 1_555
H55_10 C51_10 1_555 1_555
H57_10 C51_10 1_555 1_555
C52_10 O10_7 1_555 1_555
H58_10 C52_10 1_555 1_555
C53_7 N9_7 1_555 1_555
H59_7 C53_7 1_555 1_555
H60_7 C53_7 1_555 1_555
H61_7 C53_7 1_555 1_555
C54_10 N9_7 1_555 1_555
H62_7 C54_10 1_555 1_555
H63_10 C54_10 1_555 1_555
H64_10 C54_10 1_555 1_555
N7_10 N8_10 1_555 1_555
N7_10 C45_7 1_555 1_555
N8_10 C46_10 1_555 1_555
C43_6 C44_7 1_555 1_555
C44_7 C45_7 1_555 1_555
Mn1_9 O1_6 1_555 1_555
O1_6 C1_6 1_555 1_555
O2_9 C7_9 1_555 1_555
O3_10 Mn1_9 1_555 1_555
N1_9 Mn1_9 1_555 1_555
N2_9 N1_9 1_555 1_555
N3_6 Mn1_9 1_555 1_555
C1_6 C2_6 1_555 1_555
C2_6 H1_6 1_555 1_555
C3_6 C2_6 1_555 1_555
H2_6 C3_6 1_555 1_555
C4_9 C3_6 1_555 1_555
H3_9 C4_9 1_555 1_555
C5_9 C4_9 1_555 1_555
H4_9 C5_9 1_555 1_555
C6_9 C1_6 1_555 1_555
C7_9 N1_9 1_555 1_555
C8_10 O3_10 1_555 1_555
C9_10 C8_10 1_555 1_555
H5_10 C9_10 1_555 1_555
H6_10 C9_10 1_555 1_555
C10_10 C9_10 1_555 1_555
H7_10 C10_10 1_555 1_555
H8_10 C10_10 1_555 1_555
C11_10 C10_10 1_555 1_555
H9_10 C11_10 1_555 1_555
H10_10 C11_10 1_555 1_555
C12_10 C11_10 1_555 1_555
H11_10 C12_10 1_555 1_555
H12_7 C12_10 1_555 1_555
C13_10 C12_10 1_555 1_555
H13_10 C13_10 1_555 1_555
H14_7 C13_10 1_555 1_555
H15_10 C13_10 1_555 1_555
C14_6 N3_6 1_555 1_555
H16_6 C14_6 1_555 1_555
C15_6 C14_6 1_555 1_555
H17_6 C15_6 1_555 1_555
C16_7 C15_6 1_555 1_555
C17_7 C16_7 1_555 1_555
H18_7 C17_7 1_555 1_555
C18_7 N3_6 1_555 1_555
H19_7 C18_7 1_555 1_555
C19_7 C16_7 1_555 1_555
H20_7 C19_7 1_555 1_555
H21_7 C19_7 1_555 1_555
Mn2_4 O2_9 1_555 1_555
O4_9 Mn2_4 1_555 1_555
O5_6 C26_11 1_555 1_555
O6_10 Mn2_4 1_555 1_555
N4_11 Mn2_4 1_555 1_555
N5_6 N4_11 1_555 1_555
C20_10 O4_9 1_555 1_555
C21_10 C20_10 1_555 1_555
H22_10 C21_10 1_555 1_555
C22_10 C21_10 1_555 1_555
H23_10 C22_10 1_555 1_555
C23_11 C22_10 1_555 1_555
H24_11 C23_11 1_555 1_555
C24_11 C23_11 1_555 1_555
H25_11 C24_11 1_555 1_555
C25_11 C20_10 1_555 1_555
C26_11 N4_11 1_555 1_555
C27_10 O6_10 1_555 1_555
C28_10 C27_10 1_555 1_555
H26_10 C28_10 1_555 1_555
H27_10 C28_10 1_555 1_555
C29_10 C28_10 1_555 1_555
H28_10 C29_10 1_555 1_555
H29_10 C29_10 1_555 1_555
C30_10 C29_10 1_555 1_555
H30_10 C30_10 1_555 1_555
H31_10 C30_10 1_555 1_555
C32_8 C30_10 1_555 1_555
H33_8 C32_8 1_555 1_555
H34_8 C32_8 1_555 1_555
C34_6 C32_8 1_555 1_555
H36_6 C34_6 1_555 1_555
H37_6 C34_6 1_555 1_555
H38_6 C34_6 1_555 1_555
Mn3_6 O7_8 1_555 1_555
O7_8 C39_8 1_555 1_555
O8_6 Mn1_9 1_555 1_555
O9_11 Mn3_6 1_555 1_555
O10_8 Mn3_6 1_555 1_555
N7_11 Mn3_6 1_555 1_555
N8_11 Mn1_9 1_555 1_555
N9_8 C52_11 1_555 1_555
C39_8 C40_7 1_555 1_555
C40_7 H43_7 1_555 1_555
C41_7 C40_7 1_555 1_555
H44_7 C41_7 1_555 1_555
C42_7 C41_7 1_555 1_555
C43_7 C42_7 1_555 1_555
H46_7 C43_7 1_555 1_555
C44_8 C39_8 1_555 1_555
C45_8 O8_6 1_555 1_555
C46_11 O9_11 1_555 1_555
C47_9 C46_11 1_555 1_555
H47_9 C47_9 1_555 1_555
H48_9 C47_9 1_555 1_555
C48_11 C47_9 1_555 1_555
H49_11 C48_11 1_555 1_555
H50_9 C48_11 1_555 1_555
C49_9 C48_11 1_555 1_555
H51_11 C49_9 1_555 1_555
H52_9 C49_9 1_555 1_555
C50_11 C49_9 1_555 1_555
H53_9 C50_11 1_555 1_555
H54_11 C50_11 1_555 1_555
C51_11 C50_11 1_555 1_555
H55_11 C51_11 1_555 1_555
H56_9 C51_11 1_555 1_555
H57_11 C51_11 1_555 1_555
C52_11 O10_8 1_555 1_555
H58_11 C52_11 1_555 1_555
C53_8 N9_8 1_555 1_555
H59_8 C53_8 1_555 1_555
H60_8 C53_8 1_555 1_555
H61_8 C53_8 1_555 1_555
C54_11 N9_8 1_555 1_555
H62_8 C54_11 1_555 1_555
H63_11 C54_11 1_555 1_555
H64_11 C54_11 1_555 1_555
O11_6 Mn3_6 1_555 1_555
N10_6 Mn3_6 1_555 1_555
N11_4 Mn2_4 1_555 1_555
Mn5_6 O5_6 1_555 1_555
N2_9 C8_10 1_555 1_555
N2_9 Mn2_4 1_555 1_555
C5_9 C6_9 1_555 1_555
C6_9 C7_9 1_555 1_555
C17_7 C18_7 1_555 1_555
N5_6 C27_10 1_555 1_555
N5_6 Mn5_6 1_555 1_555
C24_11 C25_11 1_555 1_555
C25_11 C26_11 1_555 1_555
N7_11 N8_11 1_555 1_555
N7_11 C45_8 1_555 1_555
N8_11 C46_11 1_555 1_555
C43_7 C44_8 1_555 1_555
C44_8 C45_8 1_555 1_555
O1_7 C1_7 1_555 1_555
C1_7 C2_7 1_555 1_555
C2_7 H1_7 1_555 1_555
C3_7 C2_7 1_555 1_555
H2_7 C3_7 1_555 1_555
C14_7 N3_7 1_555 1_555
H16_7 C14_7 1_555 1_555
C15_7 C14_7 1_555 1_555
H17_7 C15_7 1_555 1_555
C16_8 C15_7 1_555 1_555
C17_8 C16_8 1_555 1_555
H18_8 C17_8 1_555 1_555
C18_8 N3_7 1_555 1_555
H19_8 C18_8 1_555 1_555
C19_8 C16_8 1_555 1_555
H20_8 C19_8 1_555 1_555
H21_8 C19_8 1_555 1_555
N11_4 C31_10 1_555 1_555
C31_10 H32_9 1_555 1_555
C33_10 C31_10 1_555 1_555
H35_10 C33_10 1_555 1_555
C35_10 C33_10 1_555 1_555
C36_10 C35_10 1_555 1_555
H39_10 C36_10 1_555 1_555
C37_10 N11_4 1_555 1_555
H40_10 C37_10 1_555 1_555
C38_10 C19_8 1_555 1_555
H41_10 C38_10 1_555 1_555
H42_10 C38_10 1_555 1_555
O7_9 C39_9 1_555 1_555
C39_9 C40_8 1_555 1_555
C40_8 H43_8 1_555 1_555
C41_8 C40_8 1_555 1_555
H44_8 C41_8 1_555 1_555
C42_8 C41_8 1_555 1_555
H45_10 C42_8 1_555 1_555
C43_8 C42_8 1_555 1_555
H46_8 C43_8 1_555 1_555
C44_9 C39_9 1_555 1_555
C45_9 O8_7 1_555 1_555
C53_9 N9_9 1_555 1_555
H59_9 C53_9 1_555 1_555
H60_9 C53_9 1_555 1_555
H61_9 C53_9 1_555 1_555
C17_8 C18_8 1_555 1_555
C35_10 C38_10 1_555 1_555
C36_10 C37_10 1_555 1_555
C43_8 C44_9 1_555 1_555
C44_9 C45_9 1_555 1_555
Mn1_10 O1_8 1_555 1_555
O1_8 C1_8 1_555 1_555
O2_10 C7_10 1_555 1_555
O3_11 Mn1_10 1_555 1_555
N1_10 Mn1_10 1_555 1_555
N2_10 N1_10 1_555 1_555
N3_8 Mn1_10 1_555 1_555
C1_8 C2_8 1_555 1_555
C2_8 H1_8 1_555 1_555
C3_8 C2_8 1_555 1_555
H2_8 C3_8 1_555 1_555
C4_10 C3_8 1_555 1_555
H3_10 C4_10 1_555 1_555
C5_10 C4_10 1_555 1_555
H4_10 C5_10 1_555 1_555
C6_10 C1_8 1_555 1_555
C7_10 N1_10 1_555 1_555
C8_11 O3_11 1_555 1_555
C9_11 C8_11 1_555 1_555
H5_11 C9_11 1_555 1_555
H6_11 C9_11 1_555 1_555
C10_11 C9_11 1_555 1_555
H7_11 C10_11 1_555 1_555
H8_11 C10_11 1_555 1_555
C11_11 C10_11 1_555 1_555
H9_11 C11_11 1_555 1_555
H10_11 C11_11 1_555 1_555
C12_11 C11_11 1_555 1_555
H11_11 C12_11 1_555 1_555
H12_9 C12_11 1_555 1_555
C13_11 C12_11 1_555 1_555
H13_11 C13_11 1_555 1_555
H14_9 C13_11 1_555 1_555
H15_11 C13_11 1_555 1_555
C14_8 N3_8 1_555 1_555
H16_8 C14_8 1_555 1_555
C15_8 C14_8 1_555 1_555
H17_8 C15_8 1_555 1_555
C16_9 C15_8 1_555 1_555
C17_9 C16_9 1_555 1_555
H18_9 C17_9 1_555 1_555
C18_9 N3_8 1_555 1_555
H19_9 C18_9 1_555 1_555
C19_9 C16_9 1_555 1_555
H20_9 C19_9 1_555 1_555
H21_9 C19_9 1_555 1_555
Mn2_5 O2_10 1_555 1_555
O4_10 Mn2_5 1_555 1_555
O11_6 C26_12 1_555 1_555
O6_11 Mn2_5 1_555 1_555
N4_12 Mn2_5 1_555 1_555
N10_6 N4_12 1_555 1_555
C20_11 O4_10 1_555 1_555
C21_11 C20_11 1_555 1_555
H22_11 C21_11 1_555 1_555
C22_11 C21_11 1_555 1_555
H23_11 C22_11 1_555 1_555
C23_12 C22_11 1_555 1_555
H24_12 C23_12 1_555 1_555
C24_12 C23_12 1_555 1_555
H25_12 C24_12 1_555 1_555
C25_12 C20_11 1_555 1_555
C26_12 N4_12 1_555 1_555
C27_11 O6_11 1_555 1_555
C28_11 C27_11 1_555 1_555
H26_11 C28_11 1_555 1_555
H27_11 C28_11 1_555 1_555
C29_11 C28_11 1_555 1_555
H28_11 C29_11 1_555 1_555
H29_11 C29_11 1_555 1_555
C30_11 C29_11 1_555 1_555
H30_11 C30_11 1_555 1_555
H31_11 C30_11 1_555 1_555
C32_9 C30_11 1_555 1_555
H33_9 C32_9 1_555 1_555
H34_9 C32_9 1_555 1_555
C34_7 C32_9 1_555 1_555
H36_7 C34_7 1_555 1_555
H37_7 C34_7 1_555 1_555
H38_7 C34_7 1_555 1_555
Mn5_6 O7_10 1_555 1_555
O7_10 C39_10 1_555 1_555
O8_8 Mn1_10 1_555 1_555
O9_12 Mn5_6 1_555 1_555
O10_10 Mn5_6 1_555 1_555
N7_12 Mn5_6 1_555 1_555
N8_12 Mn1_10 1_555 1_555
N9_10 C52_12 1_555 1_555
C39_10 C40_9 1_555 1_555
C40_9 H43_9 1_555 1_555
C41_9 C40_9 1_555 1_555
H44_9 C41_9 1_555 1_555
C42_9 C41_9 1_555 1_555
C43_9 C42_9 1_555 1_555
H46_9 C43_9 1_555 1_555
C44_10 C39_10 1_555 1_555
C45_10 O8_8 1_555 1_555
C46_12 O9_12 1_555 1_555
C47_10 C46_12 1_555 1_555
H47_10 C47_10 1_555 1_555
H48_10 C47_10 1_555 1_555
C48_12 C47_10 1_555 1_555
H49_12 C48_12 1_555 1_555
H50_10 C48_12 1_555 1_555
C49_10 C48_12 1_555 1_555
H51_12 C49_10 1_555 1_555
H52_10 C49_10 1_555 1_555
C50_12 C49_10 1_555 1_555
H53_10 C50_12 1_555 1_555
H54_12 C50_12 1_555 1_555
C51_12 C50_12 1_555 1_555
H55_12 C51_12 1_555 1_555
H56_10 C51_12 1_555 1_555
H57_12 C51_12 1_555 1_555
C52_12 O10_10 1_555 1_555
H58_12 C52_12 1_555 1_555
C53_10 N9_10 1_555 1_555
H59_10 C53_10 1_555 1_555
H60_10 C53_10 1_555 1_555
H61_10 C53_10 1_555 1_555
C54_12 N9_10 1_555 1_555
H62_10 C54_12 1_555 1_555
H63_12 C54_12 1_555 1_555
H64_12 C54_12 1_555 1_555
N11_5 Mn2_5 1_555 1_555
N2_10 C8_11 1_555 1_555
N2_10 Mn2_5 1_555 1_555
C5_10 C6_10 1_555 1_555
C6_10 C7_10 1_555 1_555
C17_9 C18_9 1_555 1_555
N10_6 C27_11 1_555 1_555
C24_12 C25_12 1_555 1_555
C25_12 C26_12 1_555 1_555
N7_12 N8_12 1_555 1_555
N7_12 C45_10 1_555 1_555
N8_12 C46_12 1_555 1_555
C43_9 C44_10 1_555 1_555
C44_10 C45_10 1_555 1_555
O1_9 C1_9 1_555 1_555
C1_9 C2_9 1_555 1_555
C2_9 H1_9 1_555 1_555
C3_9 C2_9 1_555 1_555
H2_9 C3_9 1_555 1_555
C14_9 N3_9 1_555 1_555
H16_9 C14_9 1_555 1_555
C15_9 C14_9 1_555 1_555
H17_9 C15_9 1_555 1_555
C16_10 C15_9 1_555 1_555
C17_10 C16_10 1_555 1_555
H18_10 C17_10 1_555 1_555
C18_10 N3_9 1_555 1_555
H19_10 C18_10 1_555 1_555
C19_10 C16_10 1_555 1_555
H20_10 C19_10 1_555 1_555
H21_10 C19_10 1_555 1_555
N11_5 C31_11 1_555 1_555
C31_11 H32_10 1_555 1_555
C33_11 C31_11 1_555 1_555
H35_11 C33_11 1_555 1_555
C35_11 C33_11 1_555 1_555
C36_11 C35_11 1_555 1_555
H39_11 C36_11 1_555 1_555
C37_11 N11_5 1_555 1_555
H40_11 C37_11 1_555 1_555
C38_11 C19_10 1_555 1_555
H41_11 C38_11 1_555 1_555
H42_11 C38_11 1_555 1_555
O7_11 C39_11 1_555 1_555
C39_11 C40_10 1_555 1_555
C40_10 H43_10 1_555 1_555
C41_10 C40_10 1_555 1_555
H44_10 C41_10 1_555 1_555
C42_10 C41_10 1_555 1_555
H45_11 C42_10 1_555 1_555
C43_10 C42_10 1_555 1_555
H46_10 C43_10 1_555 1_555
C44_11 C39_11 1_555 1_555
C45_11 O8_9 1_555 1_555
C53_11 N9_11 1_555 1_555
H59_11 C53_11 1_555 1_555
H60_11 C53_11 1_555 1_555
H61_11 C53_11 1_555 1_555
C17_10 C18_10 1_555 1_555
C35_11 C38_11 1_555 1_555
C36_11 C37_11 1_555 1_555
C43_10 C44_11 1_555 1_555
C44_11 C45_11 1_555 1_555
O2_11 C7_11 1_555 1_555
O3_12 Mn1_11 1_555 1_555
N1_11 Mn1_11 1_555 1_555
N2_11 N1_11 1_555 1_555
H3_11 C4_11 1_555 1_555
C5_11 C4_11 1_555 1_555
H4_11 C5_11 1_555 1_555
C7_11 N1_11 1_555 1_555
C8_12 O3_12 1_555 1_555
C9_12 C8_12 1_555 1_555
H5_12 C9_12 1_555 1_555
H6_12 C9_12 1_555 1_555
C10_12 C9_12 1_555 1_555
H7_12 C10_12 1_555 1_555
H8_12 C10_12 1_555 1_555
C11_12 C10_12 1_555 1_555
H9_12 C11_12 1_555 1_555
H10_12 C11_12 1_555 1_555
C12_12 C11_12 1_555 1_555
H11_12 C12_12 1_555 1_555
C13_12 C12_12 1_555 1_555
H13_12 C13_12 1_555 1_555
H15_12 C13_12 1_555 1_555
Mn2_6 O2_11 1_555 1_555
O4_11 Mn2_6 1_555 1_555
O5_7 C26_13 1_555 1_555
O6_12 Mn2_6 1_555 1_555
N4_13 Mn2_6 1_555 1_555
N5_7 N4_13 1_555 1_555
C20_12 O4_11 1_555 1_555
C21_12 C20_12 1_555 1_555
H22_12 C21_12 1_555 1_555
C22_12 C21_12 1_555 1_555
H23_12 C22_12 1_555 1_555
C23_13 C22_12 1_555 1_555
H24_13 C23_13 1_555 1_555
C24_13 C23_13 1_555 1_555
H25_13 C24_13 1_555 1_555
C25_13 C20_12 1_555 1_555
C26_13 N4_13 1_555 1_555
C27_12 O6_12 1_555 1_555
C28_12 C27_12 1_555 1_555
H26_12 C28_12 1_555 1_555
H27_12 C28_12 1_555 1_555
C29_12 C28_12 1_555 1_555
H28_12 C29_12 1_555 1_555
H29_12 C29_12 1_555 1_555
C30_12 C29_12 1_555 1_555
H30_12 C30_12 1_555 1_555
H31_12 C30_12 1_555 1_555
C32_10 C30_12 1_555 1_555
H33_10 C32_10 1_555 1_555
H34_10 C32_10 1_555 1_555
C34_8 C32_10 1_555 1_555
H36_8 C34_8 1_555 1_555
H37_8 C34_8 1_555 1_555
H38_8 C34_8 1_555 1_555
O9_13 Mn3_7 1_555 1_555
N7_13 Mn3_7 1_555 1_555
N8_13 Mn1_11 1_555 1_555
C46_13 O9_13 1_555 1_555
C47_11 C46_13 1_555 1_555
H47_11 C47_11 1_555 1_555
H48_11 C47_11 1_555 1_555
C48_13 C47_11 1_555 1_555
H49_13 C48_13 1_555 1_555
H50_11 C48_13 1_555 1_555
C49_11 C48_13 1_555 1_555
H51_13 C49_11 1_555 1_555
H52_11 C49_11 1_555 1_555
C50_13 C49_11 1_555 1_555
H53_11 C50_13 1_555 1_555
H54_13 C50_13 1_555 1_555
C51_13 C50_13 1_555 1_555
H55_13 C51_13 1_555 1_555
H56_11 C51_13 1_555 1_555
H57_13 C51_13 1_555 1_555
H58_13 C52_13 1_555 1_555
H63_13 C54_13 1_555 1_555
H64_13 C54_13 1_555 1_555
O11_7 Mn3_7 1_555 1_555
N10_7 Mn3_7 1_555 1_555
N11_6 Mn2_6 1_555 1_555
Mn5_7 O5_7 1_555 1_555
N2_11 C8_12 1_555 1_555
N2_11 Mn2_6 1_555 1_555
C5_11 C6_11 1_555 1_555
C6_11 C7_11 1_555 1_555
N5_7 C27_12 1_555 1_555
N5_7 Mn5_7 1_555 1_555
C24_13 C25_13 1_555 1_555
C25_13 C26_13 1_555 1_555
N7_13 N8_13 1_555 1_555
N8_13 C46_13 1_555 1_555
Mn1_12 O1_10 1_555 1_555
O1_10 C1_10 1_555 1_555
O2_12 C7_12 1_555 1_555
O3_13 Mn1_12 1_555 1_555
N1_12 Mn1_12 1_555 1_555
N2_12 N1_12 1_555 1_555
N3_10 Mn1_12 1_555 1_555
C1_10 C2_10 1_555 1_555
C2_10 H1_10 1_555 1_555
C3_10 C2_10 1_555 1_555
H2_10 C3_10 1_555 1_555
C4_12 C3_10 1_555 1_555
H3_12 C4_12 1_555 1_555
C5_12 C4_12 1_555 1_555
H4_12 C5_12 1_555 1_555
C6_12 C1_10 1_555 1_555
C7_12 N1_12 1_555 1_555
C8_13 O3_13 1_555 1_555
C9_13 C8_13 1_555 1_555
H5_13 C9_13 1_555 1_555
H6_13 C9_13 1_555 1_555
C10_13 C9_13 1_555 1_555
H7_13 C10_13 1_555 1_555
H8_13 C10_13 1_555 1_555
C11_13 C10_13 1_555 1_555
H9_13 C11_13 1_555 1_555
H10_13 C11_13 1_555 1_555
C12_13 C11_13 1_555 1_555
H11_13 C12_13 1_555 1_555
H12_11 C12_13 1_555 1_555
C13_13 C12_13 1_555 1_555
H13_13 C13_13 1_555 1_555
H14_11 C13_13 1_555 1_555
H15_13 C13_13 1_555 1_555
C14_10 N3_10 1_555 1_555
H16_10 C14_10 1_555 1_555
C15_10 C14_10 1_555 1_555
H17_10 C15_10 1_555 1_555
C16_11 C15_10 1_555 1_555
C17_11 C16_11 1_555 1_555
H18_11 C17_11 1_555 1_555
C18_11 N3_10 1_555 1_555
H19_11 C18_11 1_555 1_555
C19_11 C16_11 1_555 1_555
H20_11 C19_11 1_555 1_555
H21_11 C19_11 1_555 1_555
Mn4_6 O2_12 1_555 1_555
O4_12 Mn4_6 1_555 1_555
N11_6 C31_12 1_555 1_555
C20_13 O4_12 1_555 1_555
C21_13 C20_13 1_555 1_555
H22_13 C21_13 1_555 1_555
C22_13 C21_13 1_555 1_555
H23_13 C22_13 1_555 1_555
C31_12 H32_12 1_555 1_555
C33_12 C31_12 1_555 1_555
H35_12 C33_12 1_555 1_555
C35_12 C33_12 1_555 1_555
C36_12 C35_12 1_555 1_555
H39_12 C36_12 1_555 1_555
C37_12 N11_6 1_555 1_555
H40_12 C37_12 1_555 1_555
C38_12 C19_11 1_555 1_555
H41_12 C38_12 1_555 1_555
H42_12 C38_12 1_555 1_555
O8_10 Mn1_12 1_555 1_555
H47_12 C47_12 1_555 1_555
H48_12 C47_12 1_555 1_555
H52_12 C49_12 1_555 1_555
N2_12 C8_13 1_555 1_555
N2_12 Mn4_6 1_555 1_555
C5_12 C6_12 1_555 1_555
C6_12 C7_12 1_555 1_555
C17_11 C18_11 1_555 1_555
C35_12 C38_12 1_555 1_555
C36_12 C37_12 1_555 1_555
C27_13 O6_13 1_555 1_555
C28_13 C27_13 1_555 1_555
H26_13 C28_13 1_555 1_555
H27_13 C28_13 1_555 1_555
C29_13 C28_13 1_555 1_555
H28_13 C29_13 1_555 1_555
H29_13 C29_13 1_555 1_555
C30_13 C29_13 1_555 1_555
H30_13 C30_13 1_555 1_555
H31_13 C30_13 1_555 1_555
C32_11 C30_13 1_555 1_555
H33_11 C32_11 1_555 1_555
H34_11 C32_11 1_555 1_555
Mn1_13 O1_11 1_555 1_555
O1_11 C1_11 1_555 1_555
O2_13 C7_13 1_555 1_555
O3_14 Mn1_13 1_555 1_555
N1_13 Mn1_13 1_555 1_555
N2_13 N1_13 1_555 1_555
N3_11 Mn1_13 1_555 1_555
C1_11 C2_11 1_555 1_555
C2_11 H1_11 1_555 1_555
C3_11 C2_11 1_555 1_555
H2_11 C3_11 1_555 1_555
C4_13 C3_11 1_555 1_555
H3_13 C4_13 1_555 1_555
C5_13 C4_13 1_555 1_555
H4_13 C5_13 1_555 1_555
C6_13 C1_11 1_555 1_555
C7_13 N1_13 1_555 1_555
C8_14 O3_14 1_555 1_555
C9_14 C8_14 1_555 1_555
H5_14 C9_14 1_555 1_555
H6_14 C9_14 1_555 1_555
C10_14 C9_14 1_555 1_555
H7_14 C10_14 1_555 1_555
H8_14 C10_14 1_555 1_555
C11_14 C10_14 1_555 1_555
H9_14 C11_14 1_555 1_555
H10_14 C11_14 1_555 1_555
C12_14 C11_14 1_555 1_555
H11_14 C12_14 1_555 1_555
H12_12 C12_14 1_555 1_555
C13_14 C12_14 1_555 1_555
H13_14 C13_14 1_555 1_555
H14_12 C13_14 1_555 1_555
H15_14 C13_14 1_555 1_555
C14_11 N3_11 1_555 1_555
H16_11 C14_11 1_555 1_555
C15_11 C14_11 1_555 1_555
H17_11 C15_11 1_555 1_555
C16_12 C15_11 1_555 1_555
C17_12 C16_12 1_555 1_555
H18_12 C17_12 1_555 1_555
C18_12 N3_11 1_555 1_555
H19_12 C18_12 1_555 1_555
C19_12 C16_12 1_555 1_555
H20_12 C19_12 1_555 1_555
H21_12 C19_12 1_555 1_555
Mn2_7 O2_13 1_555 1_555
O4_13 Mn2_7 1_555 1_555
O11_7 C26_14 1_555 1_555
O6_14 Mn2_7 1_555 1_555
N4_14 Mn2_7 1_555 1_555
N10_7 N4_14 1_555 1_555
N11_7 C31_13 1_555 1_555
C20_14 O4_13 1_555 1_555
C21_14 C20_14 1_555 1_555
H22_14 C21_14 1_555 1_555
C22_14 C21_14 1_555 1_555
H23_14 C22_14 1_555 1_555
C23_14 C22_14 1_555 1_555
H24_14 C23_14 1_555 1_555
C24_14 C23_14 1_555 1_555
H25_14 C24_14 1_555 1_555
C25_14 C20_14 1_555 1_555
C26_14 N4_14 1_555 1_555
C27_14 O6_14 1_555 1_555
C28_14 C27_14 1_555 1_555
H26_14 C28_14 1_555 1_555
H27_14 C28_14 1_555 1_555
C29_14 C28_14 1_555 1_555
H28_14 C29_14 1_555 1_555
H29_14 C29_14 1_555 1_555
C30_14 C29_14 1_555 1_555
H30_14 C30_14 1_555 1_555
H31_14 C30_14 1_555 1_555
C33_13 C31_13 1_555 1_555
H35_13 C33_13 1_555 1_555
C35_13 C33_13 1_555 1_555
C36_13 C35_13 1_555 1_555
H39_13 C36_13 1_555 1_555
C37_13 N11_7 1_555 1_555
H40_13 C37_13 1_555 1_555
C38_13 C19_12 1_555 1_555
H41_13 C38_13 1_555 1_555
H42_13 C38_13 1_555 1_555
Mn5_7 O7_12 1_555 1_555
O7_12 C39_12 1_555 1_555
O8_11 Mn1_13 1_555 1_555
O9_14 Mn5_7 1_555 1_555
O10_12 Mn5_7 1_555 1_555
N7_14 Mn5_7 1_555 1_555
N8_14 Mn1_13 1_555 1_555
N9_12 C52_14 1_555 1_555
C39_12 C40_11 1_555 1_555
C40_11 H43_11 1_555 1_555
C41_11 C40_11 1_555 1_555
H44_11 C41_11 1_555 1_555
C42_11 C41_11 1_555 1_555
H45_12 C42_11 1_555 1_555
C43_11 C42_11 1_555 1_555
H46_11 C43_11 1_555 1_555
C44_12 C39_12 1_555 1_555
C45_12 O8_11 1_555 1_555
C46_14 O9_14 1_555 1_555
C47_13 C46_14 1_555 1_555
H47_13 C47_13 1_555 1_555
H48_13 C47_13 1_555 1_555
C48_14 C47_13 1_555 1_555
H49_14 C48_14 1_555 1_555
H50_13 C48_14 1_555 1_555
C49_13 C48_14 1_555 1_555
H51_14 C49_13 1_555 1_555
H52_13 C49_13 1_555 1_555
C50_14 C49_13 1_555 1_555
H53_13 C50_14 1_555 1_555
H54_14 C50_14 1_555 1_555
C51_14 C50_14 1_555 1_555
H55_14 C51_14 1_555 1_555
H56_13 C51_14 1_555 1_555
H57_14 C51_14 1_555 1_555
C52_14 O10_12 1_555 1_555
H58_14 C52_14 1_555 1_555
C53_12 N9_12 1_555 1_555
H59_12 C53_12 1_555 1_555
H60_12 C53_12 1_555 1_555
H61_12 C53_12 1_555 1_555
C54_14 N9_12 1_555 1_555
H62_12 C54_14 1_555 1_555
H63_14 C54_14 1_555 1_555
H64_14 C54_14 1_555 1_555
N11_8 Mn2_7 1_555 1_555
N2_13 C8_14 1_555 1_555
N2_13 Mn2_7 1_555 1_555
C5_13 C6_13 1_555 1_555
C6_13 C7_13 1_555 1_555
C17_12 C18_12 1_555 1_555
N10_7 C27_14 1_555 1_555
C24_14 C25_14 1_555 1_555
C25_14 C26_14 1_555 1_555
C35_13 C38_13 1_555 1_555
C36_13 C37_13 1_555 1_555
N7_14 N8_14 1_555 1_555
N7_14 C45_12 1_555 1_555
N8_14 C46_14 1_555 1_555
C43_11 C44_12 1_555 1_555
C44_12 C45_12 1_555 1_555
N11_8 C31_14 1_555 1_555
C31_14 H32_13 1_555 1_555
C33_14 C31_14 1_555 1_555
H35_14 C33_14 1_555 1_555
C35_14 C33_14 1_555 1_555
C36_14 C35_14 1_555 1_555
H39_14 C36_14 1_555 1_555
C37_14 N11_8 1_555 1_555
H40_14 C37_14 1_555 1_555
H41_14 C38_14 1_555 1_555
H42_14 C38_14 1_555 1_555
C35_14 C38_14 1_555 1_555
C36_14 C37_14 1_555 1_555
H33_12 C32_12 1_555 1_555
H34_12 C32_12 1_555 1_555
C34_9 C32_12 1_555 1_555
H36_9 C34_9 1_555 1_555
H37_9 C34_9 1_555 1_555
H38_9 C34_9 1_555 1_555
C8_15 O3_15 1_555 1_555
C9_15 C8_15 1_555 1_555
H5_15 C9_15 1_555 1_555
H6_15 C9_15 1_555 1_555
C10_15 C9_15 1_555 1_555
H7_15 C10_15 1_555 1_555
H8_15 C10_15 1_555 1_555
C11_15 C10_15 1_555 1_555
H9_15 C11_15 1_555 1_555
H10_15 C11_15 1_555 1_555
C12_15 C11_15 1_555 1_555
H11_15 C12_15 1_555 1_555
H12_13 C12_15 1_555 1_555
C13_15 C12_15 1_555 1_555
H13_15 C13_15 1_555 1_555
H14_13 C13_15 1_555 1_555
H15_15 C13_15 1_555 1_555
C17_13 C16_13 1_555 1_555
H18_13 C17_13 1_555 1_555
H19_13 C18_13 1_555 1_555
C19_13 C16_13 1_555 1_555
H20_13 C19_13 1_555 1_555
H21_13 C19_13 1_555 1_555
O5_8 C26_15 1_555 1_555
N5_8 N4_15 1_555 1_555
C21_15 C20_15 1_555 1_555
H22_15 C21_15 1_555 1_555
C22_15 C21_15 1_555 1_555
H23_15 C22_15 1_555 1_555
C23_15 C22_15 1_555 1_555
H24_15 C23_15 1_555 1_555
C24_15 C23_15 1_555 1_555
H25_15 C24_15 1_555 1_555
C25_15 C20_15 1_555 1_555
C26_15 N4_15 1_555 1_555
C40_12 H43_12 1_555 1_555
C41_12 C40_12 1_555 1_555
H44_12 C41_12 1_555 1_555
C42_12 C41_12 1_555 1_555
C43_12 C42_12 1_555 1_555
H46_12 C43_12 1_555 1_555
Mn5_8 O5_8 1_555 1_555
C17_13 C18_13 1_555 1_555
N5_8 Mn5_8 1_555 1_555
C24_15 C25_15 1_555 1_555
C25_15 C26_15 1_555 1_555
Mn1_14 O1_12 1_555 1_555
O1_12 C1_12 1_555 1_555
O2_14 C7_14 1_555 1_555
N1_14 Mn1_14 1_555 1_555
N2_14 N1_14 1_555 1_555
N3_12 Mn1_14 1_555 1_555
C1_12 C2_12 1_555 1_555
C2_12 H1_12 1_555 1_555
C3_12 C2_12 1_555 1_555
H2_12 C3_12 1_555 1_555
C4_14 C3_12 1_555 1_555
H3_14 C4_14 1_555 1_555
C5_14 C4_14 1_555 1_555
H4_14 C5_14 1_555 1_555
C6_14 C1_12 1_555 1_555
C7_14 N1_14 1_555 1_555
C14_12 N3_12 1_555 1_555
H16_12 C14_12 1_555 1_555
C15_12 C14_12 1_555 1_555
H17_12 C15_12 1_555 1_555
Mn2_8 O2_14 1_555 1_555
O4_14 Mn2_8 1_555 1_555
O6_15 Mn2_8 1_555 1_555
C27_15 O6_15 1_555 1_555
C28_15 C27_15 1_555 1_555
H26_15 C28_15 1_555 1_555
H27_15 C28_15 1_555 1_555
C29_15 C28_15 1_555 1_555
H28_15 C29_15 1_555 1_555
H29_15 C29_15 1_555 1_555
C30_15 C29_15 1_555 1_555
H30_15 C30_15 1_555 1_555
H31_15 C30_15 1_555 1_555
C32_13 C30_15 1_555 1_555
H33_13 C32_13 1_555 1_555
H34_13 C32_13 1_555 1_555
C34_10 C32_13 1_555 1_555
H36_10 C34_10 1_555 1_555
H37_10 C34_10 1_555 1_555
H38_10 C34_10 1_555 1_555
Mn5_8 O7_13 1_555 1_555
O7_13 C39_13 1_555 1_555
O8_12 Mn1_14 1_555 1_555
O9_15 Mn5_8 1_555 1_555
O10_13 Mn5_8 1_555 1_555
N7_15 Mn5_8 1_555 1_555
N8_15 Mn1_14 1_555 1_555
N9_13 C52_15 1_555 1_555
C44_13 C39_13 1_555 1_555
C45_13 O8_12 1_555 1_555
C46_15 O9_15 1_555 1_555
C47_14 C46_15 1_555 1_555
H47_14 C47_14 1_555 1_555
H48_14 C47_14 1_555 1_555
C48_15 C47_14 1_555 1_555
H49_15 C48_15 1_555 1_555
H50_14 C48_15 1_555 1_555
C49_14 C48_15 1_555 1_555
H51_15 C49_14 1_555 1_555
H52_14 C49_14 1_555 1_555
C50_15 C49_14 1_555 1_555
H53_14 C50_15 1_555 1_555
H54_15 C50_15 1_555 1_555
C51_15 C50_15 1_555 1_555
H55_15 C51_15 1_555 1_555
H56_14 C51_15 1_555 1_555
H57_15 C51_15 1_555 1_555
C52_15 O10_13 1_555 1_555
H58_15 C52_15 1_555 1_555
C53_13 N9_13 1_555 1_555
H59_13 C53_13 1_555 1_555
H60_13 C53_13 1_555 1_555
H61_13 C53_13 1_555 1_555
C54_15 N9_13 1_555 1_555
H62_13 C54_15 1_555 1_555
H63_15 C54_15 1_555 1_555
H64_15 C54_15 1_555 1_555
N11_9 Mn2_8 1_555 1_555
N2_14 Mn2_8 1_555 1_555
C5_14 C6_14 1_555 1_555
C6_14 C7_14 1_555 1_555
N7_15 N8_15 1_555 1_555
N7_15 C45_13 1_555 1_555
N8_15 C46_15 1_555 1_555
C44_13 C45_13 1_555 1_555
O1_13 C1_13 1_555 1_555
C1_13 C2_13 1_555 1_555
C2_13 H1_13 1_555 1_555
C3_13 C2_13 1_555 1_555
H2_13 C3_13 1_555 1_555
C14_13 N3_13 1_555 1_555
H16_13 C14_13 1_555 1_555
C15_13 C14_13 1_555 1_555
H17_13 C15_13 1_555 1_555
C16_14 C15_13 1_555 1_555
C17_14 C16_14 1_555 1_555
H18_14 C17_14 1_555 1_555
C18_14 N3_13 1_555 1_555
H19_14 C18_14 1_555 1_555
C19_14 C16_14 1_555 1_555
H20_14 C19_14 1_555 1_555
H21_14 C19_14 1_555 1_555
N11_9 C31_15 1_555 1_555
C31_15 H32_14 1_555 1_555
C33_15 C31_15 1_555 1_555
H35_15 C33_15 1_555 1_555
C35_15 C33_15 1_555 1_555
C36_15 C35_15 1_555 1_555
H39_15 C36_15 1_555 1_555
C37_15 N11_9 1_555 1_555
H40_15 C37_15 1_555 1_555
C38_15 C19_14 1_555 1_555
H41_15 C38_15 1_555 1_555
H42_15 C38_15 1_555 1_555
O7_14 C39_14 1_555 1_555
C39_14 C40_13 1_555 1_555
C40_13 H43_13 1_555 1_555
C41_13 C40_13 1_555 1_555
H44_13 C41_13 1_555 1_555
C42_13 C41_13 1_555 1_555
H45_14 C42_13 1_555 1_555
C43_13 C42_13 1_555 1_555
H46_13 C43_13 1_555 1_555
C44_14 C39_14 1_555 1_555
C45_14 O8_13 1_555 1_555
C53_14 N9_14 1_555 1_555
H59_14 C53_14 1_555 1_555
H60_14 C53_14 1_555 1_555
H61_14 C53_14 1_555 1_555
C17_14 C18_14 1_555 1_555
C35_15 C38_15 1_555 1_555
C36_15 C37_15 1_555 1_555
C43_13 C44_14 1_555 1_555
C44_14 C45_14 1_555 1_555
Mn1_15 O1_14 1_555 1_555
O1_14 C1_14 1_555 1_555
O2_15 C7_15 1_555 1_555
N1_15 Mn1_15 1_555 1_555
N2_15 N1_15 1_555 1_555
N3_14 Mn1_15 1_555 1_555
C1_14 C2_14 1_555 1_555
C2_14 H1_14 1_555 1_555
C3_14 C2_14 1_555 1_555
H2_14 C3_14 1_555 1_555
C4_15 C3_14 1_555 1_555
H3_15 C4_15 1_555 1_555
C5_15 C4_15 1_555 1_555
H4_15 C5_15 1_555 1_555
C6_15 C1_14 1_555 1_555
C7_15 N1_15 1_555 1_555
C14_14 N3_14 1_555 1_555
H16_14 C14_14 1_555 1_555
C15_14 C14_14 1_555 1_555
H17_14 C15_14 1_555 1_555
Mn2_9 O2_15 1_555 1_555
O4_15 Mn2_9 1_555 1_555
O6_16 Mn2_9 1_555 1_555
C27_16 O6_16 1_555 1_555
C28_16 C27_16 1_555 1_555
H26_16 C28_16 1_555 1_555
H27_16 C28_16 1_555 1_555
C29_16 C28_16 1_555 1_555
H28_16 C29_16 1_555 1_555
H29_16 C29_16 1_555 1_555
C30_16 C29_16 1_555 1_555
H30_16 C30_16 1_555 1_555
H31_16 C30_16 1_555 1_555
C32_14 C30_16 1_555 1_555
H33_14 C32_14 1_555 1_555
H34_14 C32_14 1_555 1_555
C34_11 C32_14 1_555 1_555
H36_11 C34_11 1_555 1_555
H37_11 C34_11 1_555 1_555
H38_11 C34_11 1_555 1_555
Mn3_8 O7_15 1_555 1_555
O7_15 C39_15 1_555 1_555
O8_14 Mn1_15 1_555 1_555
O9_16 Mn3_8 1_555 1_555
O10_15 Mn3_8 1_555 1_555
N7_16 Mn3_8 1_555 1_555
N8_16 Mn1_15 1_555 1_555
N9_15 C52_16 1_555 1_555
C44_15 C39_15 1_555 1_555
C45_15 O8_14 1_555 1_555
C46_16 O9_16 1_555 1_555
C47_15 C46_16 1_555 1_555
H47_15 C47_15 1_555 1_555
H48_15 C47_15 1_555 1_555
C48_16 C47_15 1_555 1_555
H49_16 C48_16 1_555 1_555
H50_15 C48_16 1_555 1_555
C49_15 C48_16 1_555 1_555
H51_16 C49_15 1_555 1_555
H52_15 C49_15 1_555 1_555
C50_16 C49_15 1_555 1_555
H53_15 C50_16 1_555 1_555
H54_16 C50_16 1_555 1_555
C51_16 C50_16 1_555 1_555
H55_16 C51_16 1_555 1_555
H56_15 C51_16 1_555 1_555
H57_16 C51_16 1_555 1_555
C52_16 O10_15 1_555 1_555
H58_16 C52_16 1_555 1_555
C53_15 N9_15 1_555 1_555
H59_15 C53_15 1_555 1_555
H60_15 C53_15 1_555 1_555
H61_15 C53_15 1_555 1_555
C54_16 N9_15 1_555 1_555
H62_15 C54_16 1_555 1_555
H63_16 C54_16 1_555 1_555
H64_16 C54_16 1_555 1_555
O11_8 Mn3_8 1_555 1_555
N10_8 Mn3_8 1_555 1_555
N11_10 Mn2_9 1_555 1_555
N2_15 Mn2_9 1_555 1_555
C5_15 C6_15 1_555 1_555
C6_15 C7_15 1_555 1_555
N7_16 N8_16 1_555 1_555
N7_16 C45_15 1_555 1_555
N8_16 C46_16 1_555 1_555
C44_15 C45_15 1_555 1_555
O1_15 C1_15 1_555 1_555
C1_15 C2_15 1_555 1_555
C2_15 H1_15 1_555 1_555
C3_15 C2_15 1_555 1_555
H2_15 C3_15 1_555 1_555
C14_15 N3_15 1_555 1_555
H16_15 C14_15 1_555 1_555
C15_15 C14_15 1_555 1_555
H17_15 C15_15 1_555 1_555
C16_15 C15_15 1_555 1_555
C17_15 C16_15 1_555 1_555
H18_15 C17_15 1_555 1_555
C18_15 N3_15 1_555 1_555
H19_15 C18_15 1_555 1_555
C19_15 C16_15 1_555 1_555
H20_15 C19_15 1_555 1_555
H21_15 C19_15 1_555 1_555
N11_10 C31_16 1_555 1_555
C31_16 H32_15 1_555 1_555
C33_16 C31_16 1_555 1_555
H35_16 C33_16 1_555 1_555
C35_16 C33_16 1_555 1_555
C36_16 C35_16 1_555 1_555
H39_16 C36_16 1_555 1_555
C37_16 N11_10 1_555 1_555
H40_16 C37_16 1_555 1_555
C38_16 C19_15 1_555 1_555
H41_16 C38_16 1_555 1_555
H42_16 C38_16 1_555 1_555
O7_16 C39_16 1_555 1_555
C39_16 C40_14 1_555 1_555
C40_14 H43_14 1_555 1_555
C41_14 C40_14 1_555 1_555
H44_14 C41_14 1_555 1_555
C42_14 C41_14 1_555 1_555
H45_15 C42_14 1_555 1_555
C43_14 C42_14 1_555 1_555
H46_14 C43_14 1_555 1_555
C44_16 C39_16 1_555 1_555
C45_16 O8_15 1_555 1_555
C53_16 N9_16 1_555 1_555
H59_16 C53_16 1_555 1_555
H60_16 C53_16 1_555 1_555
H61_16 C53_16 1_555 1_555
C17_15 C18_15 1_555 1_555
C35_16 C38_16 1_555 1_555
C36_16 C37_16 1_555 1_555
C43_14 C44_16 1_555 1_555
C44_16 C45_16 1_555 1_555
C8_16 O3_16 1_555 1_555
C9_16 C8_16 1_555 1_555
H5_16 C9_16 1_555 1_555
H6_16 C9_16 1_555 1_555
C10_16 C9_16 1_555 1_555
H7_16 C10_16 1_555 1_555
H8_16 C10_16 1_555 1_555
C11_16 C10_16 1_555 1_555
H9_16 C11_16 1_555 1_555
H10_16 C11_16 1_555 1_555
C12_16 C11_16 1_555 1_555
H11_16 C12_16 1_555 1_555
H12_16 C12_16 1_555 1_555
C13_16 C12_16 1_555 1_555
H13_16 C13_16 1_555 1_555
H14_16 C13_16 1_555 1_555
H15_16 C13_16 1_555 1_555
C17_16 C16_16 1_555 1_555
H18_16 C17_16 1_555 1_555
H19_16 C18_16 1_555 1_555
C19_16 C16_16 1_555 1_555
H20_16 C19_16 1_555 1_555
H21_16 C19_16 1_555 1_555
O11_8 C26_16 1_555 1_555
N10_8 N4_16 1_555 1_555
C21_16 C20_16 1_555 1_555
H22_16 C21_16 1_555 1_555
C22_16 C21_16 1_555 1_555
H23_16 C22_16 1_555 1_555
C23_16 C22_16 1_555 1_555
H24_16 C23_16 1_555 1_555
C24_16 C23_16 1_555 1_555
H25_16 C24_16 1_555 1_555
C25_16 C20_16 1_555 1_555
C26_16 N4_16 1_555 1_555
C40_15 H43_15 1_555 1_555
C41_15 C40_15 1_555 1_555
H44_15 C41_15 1_555 1_555
C42_15 C41_15 1_555 1_555
C43_15 C42_15 1_555 1_555
H46_15 C43_15 1_555 1_555
C17_16 C18_16 1_555 1_555
C24_16 C25_16 1_555 1_555
C25_16 C26_16 1_555 1_555
H36_12 C34_12 1_555 1_555
H37_12 C34_12 1_555 1_555
H38_12 C34_12 1_555 1_555
Mn1_16 O1_16 1_555 1_555
O1_16 C1_16 1_555 1_555
O2_16 C7_16 1_555 1_555
N1_16 Mn1_16 1_555 1_555
N2_16 N1_16 1_555 1_555
N3_16 Mn1_16 1_555 1_555
C1_16 C2_16 1_555 1_555
C2_16 H1_16 1_555 1_555
C3_16 C2_16 1_555 1_555
H2_16 C3_16 1_555 1_555
C4_16 C3_16 1_555 1_555
H3_16 C4_16 1_555 1_555
C5_16 C4_16 1_555 1_555
H4_16 C5_16 1_555 1_555
C6_16 C1_16 1_555 1_555
C7_16 N1_16 1_555 1_555
C14_16 N3_16 1_555 1_555
H16_16 C14_16 1_555 1_555
C15_16 C14_16 1_555 1_555
H17_16 C15_16 1_555 1_555
Mn2_10 O2_16 1_555 1_555
O4_16 Mn2_10 1_555 1_555
O8_16 Mn1_16 1_555 1_555
H47_16 C47_16 1_555 1_555
H48_16 C47_16 1_555 1_555
H52_16 C49_16 1_555 1_555
N2_16 Mn2_10 1_555 1_555
C5_16 C6_16 1_555 1_555
C6_16 C7_16 1_555 1_555
C40_16 H43_16 1_555 1_555
C41_16 C40_16 1_555 1_555
H44_16 C41_16 1_555 1_555
C42_16 C41_16 1_555 1_555
H45_16 C42_16 1_555 1_555
C43_16 C42_16 1_555 1_555
H46_16 C43_16 1_555 1_555
H36_13 C34_13 1_555 1_555
H37_13 C34_13 1_555 1_555
H38_13 C34_13 1_555 1_555
H33_15 C32_15 1_555 1_555
H34_15 C32_15 1_555 1_555
C34_14 C32_15 1_555 1_555
H36_14 C34_14 1_555 1_555
H37_14 C34_14 1_555 1_555
H38_14 C34_14 1_555 1_555
H33_16 C32_16 1_555 1_555
H34_16 C32_16 1_555 1_555
C34_15 C32_16 1_555 1_555
H36_15 C34_15 1_555 1_555
H37_15 C34_15 1_555 1_555
H38_15 C34_15 1_555 1_555
H36_16 C34_16 1_555 1_555
H37_16 C34_16 1_555 1_555
H38_16 C34_16 1_555 1_555

#END
