
###############################################################################
#
# This file contains modified crystal structure data generated from the
# MOF subset of the Cambridge Structural Database (CSD) v543 
# hosted by the Cambridge Crystallographic Data Centre (CCDC).
#
# This work is licensed under the Creative Commons
# Attribution-NonCommercial-ShareAlike 4.0 International License.
# To view a copy of this license, visit
# http://creativecommons.org/licenses/by-nc-sa/4.0/
# or send a letter to
# Creative Commons, PO Box 1866, Mountain View, CA 94042, USA.
#
# CIF created using the CSD Python API on 29 September 2022
# The structure has been converted into the P1 space group
# The structure has a 3D framework
# The original CSD entry XALDEU is in the tetragonal crystal system
# The framework has been calculated to contain at least 10.0% void space
# The void calculation uses a probe of radius 1.32A, grid spacing 0.4
#
###############################################################################

data_XALDEU
_chemical_formula_moiety         '(C864 H1024 Mn48 N144 O160)n'
_symmetry_cell_setting           triclinic
_symmetry_space_group_name_H-M   'P 1'
_symmetry_Int_Tables_number      1
_space_group_name_Hall           'P 1'
loop_
_symmetry_equiv_pos_site_id
_symmetry_equiv_pos_as_xyz
1 x,y,z
_cell_length_a                   40.688(5)
_cell_length_b                   40.688(5)
_cell_length_c                   17.204(3)
_cell_angle_alpha                90
_cell_angle_beta                 90
_cell_angle_gamma                90
_cell_volume                     28481.5
loop_
_atom_site_label
_atom_site_type_symbol
_atom_site_fract_x
_atom_site_fract_y
_atom_site_fract_z
H61 H 0.3256 0.5791 0.0186
Mn5 Mn 0.386440(18) 0.529600(17) 0.02729(4)
Mn1 Mn 0.708283(18) 0.327670(18) 0.93364(5)
O3 O 0.68122(8) 0.30186(8) 0.8631(2)
N1 N 0.71267(10) 0.28499(9) 0.9813(2)
N2 N 0.69679(10) 0.25903(9) 0.9402(2)
C8 C 0.68145(12) 0.27076(12) 0.8790(3)
C9 C 0.66392(13) 0.24795(13) 0.8253(3)
H5 H 0.6665 0.2251 0.8442
H6 H 0.6740 0.2493 0.7730
C10 C 0.62768(17) 0.25604(16) 0.8193(5)
H7 H 0.6177 0.2426 0.7776
H8 H 0.6252 0.2795 0.8048
C11 C 0.60947(19) 0.2498(2) 0.8947(6)
H9 H 0.6184 0.2644 0.9355
H10 H 0.6134 0.2268 0.9113
C12 C 0.5727(2) 0.2554(3) 0.8875(9)
H11 H 0.5687 0.2785 0.8718
H12 H 0.5638 0.2410 0.8462
C13 C 0.5548(3) 0.2487(4) 0.9617(10)
H13 H 0.5593 0.2261 0.9785
H14 H 0.5311 0.2515 0.9535
C14 C 0.63619(18) 0.34060(17) 0.9771(5)
H16 H 0.6330 0.3332 0.9253
C15 C 0.5789(2) 0.3528(3) 0.9783(8)
H17 H 0.5821 0.3490 0.9226
H18 H 0.5693 0.3747 0.9862
H19 H 0.5640 0.3361 0.9993
Mn2 Mn 0.711028(18) 0.211067(18) 0.99604(4)
O6 O 0.68264(8) 0.13446(8) 0.84986(19)
O7 O 0.75286(8) 0.21458(8) 0.94288(19)
N4 N 0.70560(9) 0.17677(9) 0.9199(2)
N5 N 0.73346(10) 0.17211(10) 0.8706(2)
C20 C 0.60153(14) 0.12896(16) 0.9930(4)
H25 H 0.5860 0.1118 0.9853
C21 C 0.62919(12) 0.13150(13) 0.9458(3)
H26 H 0.6321 0.1163 0.9044
C22 C 0.65269(12) 0.15567(12) 0.9578(3)
C23 C 0.68166(11) 0.15550(10) 0.9050(3)
C24 C 0.75640(12) 0.19282(12) 0.8891(3)
C25 C 0.78968(12) 0.19058(15) 0.8507(3)
H27 H 0.7968 0.2128 0.8344
H28 H 0.7880 0.1767 0.8035
C26 C 0.81547(15) 0.17580(18) 0.9060(5)
H29 H 0.8376 0.1782 0.8827
H30 H 0.8152 0.1881 0.9557
C27 C 0.80892(19) 0.1393(2) 0.9225(5)
H31 H 0.7871 0.1371 0.9475
H32 H 0.8081 0.1273 0.8725
C28 C 0.8348(2) 0.1235(3) 0.9745(7)
H33 H 0.8568 0.1273 0.9519
C29 C 0.8298(4) 0.0883(3) 0.9843(11)
H35 H 0.8098 0.0816 0.9570
H37 H 0.8487 0.0764 0.9627
Mn3 Mn 0.779600(17) 0.363560(18) 0.72271(4)
O8 O 0.75766(9) 0.39930(8) 0.6800(2)
O9 O 0.70104(8) 0.36910(8) 0.8770(2)
O10 O 0.79704(8) 0.32596(8) 0.7786(2)
N7 N 0.74445(9) 0.35698(9) 0.7974(2)
N8 N 0.74887(9) 0.32887(9) 0.8451(2)
C36 C 0.73333(13) 0.41659(13) 0.7104(3)
C37 C 0.72606(15) 0.44670(14) 0.6749(3)
H44 H 0.7385 0.4535 0.6309
C38 C 0.70115(17) 0.46691(15) 0.7022(4)
H45 H 0.6970 0.4873 0.6773
C39 C 0.68233(14) 0.45757(13) 0.7654(3)
H46 H 0.6651 0.4713 0.7837
C40 C 0.68900(12) 0.42818(12) 0.8014(3)
H47 H 0.6761 0.4217 0.8447
C41 C 0.71437(12) 0.40735(12) 0.7760(3)
C42 C 0.71985(12) 0.37617(12) 0.8194(3)
C43 C 0.77677(12) 0.31532(13) 0.8300(3)
C44 C 0.78748(14) 0.28597(15) 0.8764(4)
H48 H 0.7684 0.2770 0.9053
H49 H 0.7956 0.2687 0.8408
C45 C 0.8154(2) 0.2955(2) 0.9354(6)
H50 H 0.8068 0.3121 0.9722
H51 H 0.8338 0.3056 0.9065
C46 C 0.8280(4) 0.2664(3) 0.9806(8)
H52 H 0.8397 0.2516 0.9443
O11 O 0.81736(8) 0.36554(8) 0.65014(19)
N10 N 0.76654(10) 0.32789(10) 0.6294(2)
Mn4 Mn 0.720400(17) 0.136440(18) 0.77729(4)
N11 N 0.80669(12) 0.39670(11) 0.8073(2)
C2 C 0.39837(18) 0.02111(19) 0.3657(4)
H1 H 0.3765 0.0258 0.3497
C3 C 0.4106(2) 0.0351(2) 0.4326(5)
H2 H 0.3972 0.0496 0.4621
C4 C 0.4417(2) 0.0285(2) 0.4567(4)
H3 H 0.4493 0.0372 0.5047
C5 C 0.46235(16) 0.00915(18) 0.4123(4)
H4 H 0.4844 0.0056 0.4285
O7_2 O 0.53542(8) 0.00286(8) 0.19288(19)
C24_2 C 0.55718(12) 0.00640(12) 0.1391(3)
C25_2 C 0.55942(15) 0.03968(12) 0.1007(3)
H27_2 H 0.5372 0.0468 0.0844
H28_2 H 0.5733 0.0380 0.0535
C26_2 C 0.57420(18) 0.06547(15) 0.1560(5)
H29_2 H 0.5718 0.0876 0.1327
H30_2 H 0.5619 0.0652 0.2057
C27_2 C 0.6107(2) 0.05892(19) 0.1725(5)
H31_2 H 0.6129 0.0371 0.1975
H32_2 H 0.6227 0.0581 0.1225
C28_2 C 0.6265(3) 0.0848(2) 0.2245(7)
H33_2 H 0.6227 0.1068 0.2019
H34 H 0.6158 0.0842 0.2762
C29_2 C 0.6617(3) 0.0798(4) 0.2343(11)
H35_2 H 0.6684 0.0598 0.2070
H36 H 0.6669 0.0777 0.2897
H37_2 H 0.6736 0.0987 0.2127
C32 C 0.56419(18) 0.01685(18) 0.3549(4)
H40 H 0.5425 0.0243 0.3441
C33 C 0.5853(2) 0.0374(2) 0.3964(5)
H41 H 0.5780 0.0585 0.4126
C34 C 0.6165(2) 0.0272(3) 0.4136(6)
C35 C 0.6401(3) 0.0493(3) 0.4585(9)
H42 H 0.6627 0.0459 0.4388
H43 H 0.6341 0.0726 0.4494
O10_2 O 0.42404(8) 0.04704(8) 0.0286(2)
N9 N 0.69331(12) 0.10330(11) 0.6927(2)
C43_2 C 0.43468(13) 0.02677(12) 0.0800(3)
C44_2 C 0.46403(15) 0.03748(14) 0.1264(4)
H48_2 H 0.4730 0.0184 0.1553
H49_2 H 0.4813 0.0456 0.0908
C45_2 C 0.4545(2) 0.0654(2) 0.1854(6)
H50_2 H 0.4379 0.0568 0.2222
H51_2 H 0.4444 0.0838 0.1565
C46_2 C 0.4836(3) 0.0780(4) 0.2306(8)
H52_2 H 0.4984 0.0897 0.1943
H53 H 0.4959 0.0589 0.2514
C47 C 0.4763(5) 0.0986(6) 0.2912(12)
H54 H 0.4638 0.1181 0.2732
H55 H 0.4634 0.0872 0.3319
C48 C 0.5130(5) 0.1090(7) 0.3232(18)
H56 H 0.5251 0.0891 0.3381
H57 H 0.5250 0.1205 0.2820
H58 H 0.5108 0.1234 0.3684
C49 C 0.69640(19) 0.1081(2) 0.6150(4)
H59 H 0.7100 0.1256 0.5973
C50 C 0.6810(3) 0.0889(3) 0.5612(5)
H60 H 0.6847 0.0920 0.5072
C51 C 0.67359(15) 0.07918(13) 0.7143(3)
H61_2 H 0.6709 0.0756 0.7686
C52 C 0.65717(19) 0.05949(19) 0.6664(4)
H62 H 0.6439 0.0422 0.6863
C53 C 0.6596(3) 0.0644(3) 0.5881(4)
C54 C 0.6394(4) 0.0435(4) 0.5299(5)
H63 H 0.6463 0.0204 0.5369
H64 H 0.6161 0.0448 0.5464
N11_2 N 0.35330(11) 0.05669(12) 0.0573(2)
Mn1_2 Mn 0.291717(18) 0.172330(18) 0.93364(5)
O3_2 O 0.31878(8) 0.19814(8) 0.8631(2)
N1_2 N 0.28733(10) 0.21501(9) 0.9813(2)
N2_2 N 0.30321(10) 0.24097(9) 0.9402(2)
C8_2 C 0.31855(12) 0.22924(12) 0.8790(3)
C9_2 C 0.33608(13) 0.25205(13) 0.8253(3)
H5_2 H 0.3335 0.2749 0.8442
H6_2 H 0.3260 0.2507 0.7730
C10_2 C 0.37232(17) 0.24396(16) 0.8193(5)
H7_2 H 0.3823 0.2574 0.7776
H8_2 H 0.3748 0.2205 0.8048
C11_2 C 0.39053(19) 0.2502(2) 0.8947(6)
H9_2 H 0.3816 0.2356 0.9355
H10_2 H 0.3866 0.2732 0.9113
C12_2 C 0.4273(2) 0.2446(3) 0.8875(9)
H11_2 H 0.4313 0.2215 0.8718
H12_2 H 0.4362 0.2590 0.8462
C13_2 C 0.4452(3) 0.2513(4) 0.9617(10)
H13_2 H 0.4407 0.2739 0.9785
H14_2 H 0.4689 0.2485 0.9535
C14_2 C 0.36381(18) 0.15940(17) 0.9771(5)
H16_2 H 0.3670 0.1668 0.9253
C15_2 C 0.4211(2) 0.1472(3) 0.9783(8)
H17_2 H 0.4179 0.1510 0.9226
H18_2 H 0.4307 0.1253 0.9862
H19_2 H 0.4360 0.1639 0.9993
Mn2_2 Mn 0.288972(18) 0.288933(18) 0.99604(4)
O6_2 O 0.31736(8) 0.36554(8) 0.84986(19)
O7_3 O 0.24714(8) 0.28542(8) 0.94288(19)
N4_2 N 0.29440(9) 0.32323(9) 0.9199(2)
N5_2 N 0.26654(10) 0.32789(10) 0.8706(2)
C20_2 C 0.39847(14) 0.37104(16) 0.9930(4)
H25_2 H 0.4140 0.3882 0.9853
C21_2 C 0.37081(12) 0.36850(13) 0.9458(3)
H26_2 H 0.3679 0.3837 0.9044
C22_2 C 0.34731(12) 0.34433(12) 0.9578(3)
C23_2 C 0.31834(11) 0.34450(10) 0.9050(3)
C24_3 C 0.24360(12) 0.30718(12) 0.8891(3)
C25_3 C 0.21032(12) 0.30942(15) 0.8507(3)
H27_3 H 0.2032 0.2872 0.8344
H28_3 H 0.2120 0.3233 0.8035
C26_3 C 0.18453(15) 0.32420(18) 0.9060(5)
H29_3 H 0.1624 0.3218 0.8827
H30_3 H 0.1848 0.3119 0.9557
C27_3 C 0.19108(19) 0.3607(2) 0.9225(5)
H31_3 H 0.2129 0.3629 0.9475
H32_3 H 0.1919 0.3727 0.8725
C28_3 C 0.1652(2) 0.3765(3) 0.9745(7)
H33_3 H 0.1432 0.3727 0.9519
C29_3 C 0.1702(4) 0.4117(3) 0.9843(11)
H35_3 H 0.1902 0.4184 0.9570
H37_3 H 0.1513 0.4236 0.9627
Mn3_2 Mn 0.220400(17) 0.136440(18) 0.72271(4)
O8_2 O 0.24234(9) 0.10070(8) 0.6800(2)
O9_2 O 0.29896(8) 0.13090(8) 0.8770(2)
O10_3 O 0.20296(8) 0.17404(8) 0.7786(2)
N7_2 N 0.25555(9) 0.14302(9) 0.7974(2)
N8_2 N 0.25113(9) 0.17113(9) 0.8451(2)
C36_2 C 0.26667(13) 0.08341(13) 0.7104(3)
C37_2 C 0.27394(15) 0.05330(14) 0.6749(3)
H44_2 H 0.2615 0.0465 0.6309
C38_2 C 0.29885(17) 0.03309(15) 0.7022(4)
H45_2 H 0.3030 0.0127 0.6773
C39_2 C 0.31767(14) 0.04243(13) 0.7654(3)
H46_2 H 0.3349 0.0287 0.7837
C40_2 C 0.31100(12) 0.07182(12) 0.8014(3)
H47_2 H 0.3239 0.0783 0.8447
C41_2 C 0.28563(12) 0.09265(12) 0.7760(3)
C42_2 C 0.28015(12) 0.12383(12) 0.8194(3)
C43_3 C 0.22323(12) 0.18468(13) 0.8300(3)
C44_3 C 0.21252(14) 0.21403(15) 0.8764(4)
H48_3 H 0.2316 0.2230 0.9053
H49_3 H 0.2044 0.2313 0.8408
C45_3 C 0.1846(2) 0.2045(2) 0.9354(6)
H50_3 H 0.1932 0.1879 0.9722
H51_3 H 0.1662 0.1944 0.9065
C46_3 C 0.1720(4) 0.2336(3) 0.9806(8)
H52_3 H 0.1603 0.2484 0.9443
O11_2 O 0.18264(8) 0.13446(8) 0.65014(19)
N10_2 N 0.23346(10) 0.17211(10) 0.6294(2)
Mn4_2 Mn 0.279600(17) 0.363560(18) 0.77729(4)
N11_3 N 0.19331(12) 0.10330(11) 0.8073(2)
Mn1_3 Mn 0.577670(18) 0.541717(18) 0.18364(5)
O1 O 0.59564(9) 0.51368(10) 0.2581(2)
O2 O 0.49587(9) 0.52621(9) 0.32156(18)
O3_3 O 0.55186(8) 0.56878(8) 0.1131(2)
O4 O 0.59033(9) 0.58617(11) 0.2539(2)
N1_3 N 0.53499(9) 0.53733(10) 0.2313(2)
N2_3 N 0.50903(9) 0.55321(10) 0.1902(2)
N3 N 0.60097(17) 0.63993(15) 0.2678(5)
C1 C 0.58190(15) 0.50006(14) 0.3212(4)
C2_2 C 0.60163(18) 0.47889(19) 0.3657(4)
H1_2 H 0.6235 0.4742 0.3497
C3_2 C 0.5894(2) 0.4649(2) 0.4326(5)
H2_2 H 0.6028 0.4504 0.4621
C4_2 C 0.5583(2) 0.4715(2) 0.4567(4)
H3_2 H 0.5507 0.4628 0.5047
C5_2 C 0.53765(16) 0.49085(18) 0.4123(4)
H4_2 H 0.5156 0.4944 0.4285
C6 C 0.54909(14) 0.50531(13) 0.3434(3)
C7 C 0.52516(13) 0.52373(12) 0.2978(3)
C8_3 C 0.52076(12) 0.56855(12) 0.1290(3)
C9_3 C 0.49795(13) 0.58608(13) 0.0753(3)
H5_3 H 0.4751 0.5835 0.0942
H6_3 H 0.4993 0.5760 0.0230
C10_3 C 0.50604(16) 0.62232(17) 0.0693(5)
H7_3 H 0.4926 0.6323 0.0276
H8_3 H 0.5295 0.6248 0.0548
C11_3 C 0.4998(2) 0.64053(19) 0.1447(6)
H9_3 H 0.5144 0.6316 0.1855
H10_3 H 0.4768 0.6366 0.1613
C12_3 C 0.5054(3) 0.6773(2) 0.1375(9)
H11_3 H 0.5285 0.6813 0.1218
H12_3 H 0.4910 0.6862 0.0962
C13_3 C 0.4987(4) 0.6952(3) 0.2117(10)
H13_3 H 0.4761 0.6907 0.2285
H14_3 H 0.5015 0.7189 0.2035
H15 H 0.5141 0.6877 0.2518
C14_3 C 0.59060(17) 0.61381(18) 0.2271(5)
H16_3 H 0.5832 0.6170 0.1753
C15_3 C 0.6028(3) 0.6711(2) 0.2283(8)
H17_3 H 0.5990 0.6679 0.1726
H18_3 H 0.6247 0.6807 0.2362
H19_3 H 0.5861 0.6860 0.2493
C16 C 0.6147(3) 0.6383(3) 0.3428(7)
H20 H 0.6041 0.6545 0.3765
H21 H 0.6383 0.6430 0.3399
H22 H 0.6114 0.6162 0.3643
Mn2_3 Mn 0.461067(18) 0.538972(18) 0.24604(4)
O5 O 0.45214(9) 0.58063(9) 0.2864(2)
O6_3 O 0.38446(8) 0.56736(8) 0.09986(19)
O7_4 O 0.46458(8) 0.49714(8) 0.19288(19)
N4_3 N 0.42677(9) 0.54440(9) 0.1699(2)
N5_3 N 0.42211(10) 0.51654(10) 0.1206(2)
N6 N 0.42693(12) 0.51247(12) 0.3300(3)
C17 C 0.42834(12) 0.60152(12) 0.2683(3)
C18 C 0.42560(15) 0.62994(15) 0.3145(4)
H23 H 0.4406 0.6332 0.3561
C19 C 0.40197(16) 0.65278(15) 0.3012(4)
H24 H 0.4012 0.6720 0.3324
C20_3 C 0.37896(16) 0.64847(14) 0.2430(4)
H25_3 H 0.3618 0.6640 0.2353
C21_3 C 0.38150(13) 0.62081(12) 0.1958(3)
H26_3 H 0.3663 0.6179 0.1544
C22_3 C 0.40567(12) 0.59731(12) 0.2078(3)
C23_3 C 0.40550(10) 0.56834(11) 0.1550(3)
C24_4 C 0.44282(12) 0.49360(12) 0.1391(3)
C25_4 C 0.44058(15) 0.46032(12) 0.1007(3)
H27_4 H 0.4628 0.4532 0.0844
H28_4 H 0.4267 0.4620 0.0535
C26_4 C 0.42580(18) 0.43453(15) 0.1560(5)
H29_4 H 0.4282 0.4124 0.1327
H30_4 H 0.4381 0.4348 0.2057
C27_4 C 0.3893(2) 0.44108(19) 0.1725(5)
H31_4 H 0.3871 0.4629 0.1975
H32_4 H 0.3773 0.4419 0.1225
C28_4 C 0.3735(3) 0.4152(2) 0.2245(7)
H33_4 H 0.3773 0.3932 0.2019
H34_2 H 0.3842 0.4158 0.2762
C29_4 C 0.3383(3) 0.4202(4) 0.2343(11)
H35_4 H 0.3316 0.4402 0.2070
H36_2 H 0.3331 0.4223 0.2897
H37_4 H 0.3264 0.4013 0.2127
C30 C 0.39658(15) 0.52233(18) 0.3481(4)
H38 H 0.3894 0.5433 0.3310
C31 C 0.37552(18) 0.5033(2) 0.3904(5)
H39 H 0.3546 0.5118 0.4038
C32_2 C 0.43581(18) 0.48315(18) 0.3549(4)
H40_2 H 0.4575 0.4757 0.3441
C33_2 C 0.4147(2) 0.4626(2) 0.3964(5)
H41_2 H 0.4220 0.4415 0.4126
C34_2 C 0.3835(2) 0.4728(3) 0.4136(6)
C35_2 C 0.3599(3) 0.4507(3) 0.4585(9)
H42_2 H 0.3373 0.4541 0.4388
H43_2 H 0.3659 0.4274 0.4494
O9_3 O 0.61910(8) 0.54896(8) 0.1270(2)
O10_4 O 0.57596(8) 0.45296(8) 0.0286(2)
N7_3 N 0.60698(9) 0.50555(9) 0.0474(2)
N8_3 N 0.57887(9) 0.50113(9) 0.0951(2)
N9_2 N 0.30669(12) 0.39670(11) 0.6927(2)
C39_3 C 0.70757(13) 0.56767(14) 0.0154(3)
H46_3 H 0.7213 0.5849 0.0337
C40_3 C 0.67818(12) 0.56100(12) 0.0514(3)
H47_3 H 0.6717 0.5739 0.0947
C41_3 C 0.65735(12) 0.53563(12) 0.0260(3)
C42_3 C 0.62617(12) 0.53015(12) 0.0694(3)
C43_4 C 0.56532(13) 0.47323(12) 0.0800(3)
C44_4 C 0.53597(15) 0.46252(14) 0.1264(4)
H48_4 H 0.5270 0.4816 0.1553
H49_4 H 0.5187 0.4544 0.0908
C45_4 C 0.5455(2) 0.4346(2) 0.1854(6)
H50_4 H 0.5621 0.4432 0.2222
H51_4 H 0.5556 0.4162 0.1565
C46_4 C 0.5164(3) 0.4220(4) 0.2306(8)
H52_4 H 0.5016 0.4103 0.1943
H53_2 H 0.5041 0.4411 0.2514
C47_2 C 0.5237(5) 0.4014(6) 0.2912(12)
H54_2 H 0.5362 0.3819 0.2732
H55_2 H 0.5366 0.4128 0.3319
C48_2 C 0.4870(5) 0.3910(7) 0.3232(18)
H56_2 H 0.4749 0.4109 0.3381
H57_2 H 0.4750 0.3795 0.2820
H58_2 H 0.4892 0.3766 0.3684
C49_2 C 0.30360(19) 0.3919(2) 0.6150(4)
H59_2 H 0.2900 0.3744 0.5973
C50_2 C 0.3190(3) 0.4111(3) 0.5612(5)
H60_2 H 0.3153 0.4080 0.5072
C51_2 C 0.32641(15) 0.42082(13) 0.7143(3)
H61_3 H 0.3291 0.4244 0.7686
C52_2 C 0.34283(19) 0.44051(19) 0.6664(4)
H62_2 H 0.3561 0.4578 0.6863
C53_2 C 0.3404(3) 0.4356(3) 0.5881(4)
C54_2 C 0.3606(4) 0.4565(4) 0.5299(5)
H63_2 H 0.3537 0.4796 0.5369
H64_2 H 0.3839 0.4552 0.5464
N11_4 N 0.64670(11) 0.44331(12) 0.0573(2)
Mn1_4 Mn 0.791717(18) 0.172330(18) 0.56636(5)
O1_2 O 0.76368(10) 0.15436(9) 0.4919(2)
O2_2 O 0.77621(9) 0.25413(9) 0.42844(18)
O3_4 O 0.81878(8) 0.19814(8) 0.6369(2)
O4_2 O 0.83617(11) 0.15967(9) 0.4961(2)
N1_4 N 0.78733(10) 0.21501(9) 0.5187(2)
N2_4 N 0.80321(10) 0.24097(9) 0.5598(2)
N3_2 N 0.88993(15) 0.14903(17) 0.4822(5)
C1_2 C 0.75006(14) 0.16810(15) 0.4288(4)
C2_3 C 0.72889(19) 0.14837(18) 0.3843(4)
H1_3 H 0.7242 0.1265 0.4003
C3_3 C 0.7149(2) 0.1606(2) 0.3174(5)
H2_3 H 0.7004 0.1472 0.2879
C4_3 C 0.7215(2) 0.1917(2) 0.2933(4)
H3_3 H 0.7128 0.1993 0.2453
C5_3 C 0.74085(18) 0.21235(16) 0.3377(4)
H4_3 H 0.7444 0.2344 0.3215
C6_2 C 0.75531(13) 0.20091(14) 0.4066(3)
C7_2 C 0.77373(12) 0.22484(13) 0.4522(3)
C8_4 C 0.81855(12) 0.22924(12) 0.6210(3)
C9_4 C 0.83608(13) 0.25205(13) 0.6747(3)
H5_4 H 0.8335 0.2749 0.6558
H6_4 H 0.8260 0.2507 0.7270
C10_4 C 0.87232(17) 0.24396(16) 0.6807(5)
H7_4 H 0.8823 0.2574 0.7224
H8_4 H 0.8748 0.2205 0.6952
C11_4 C 0.89053(19) 0.2502(2) 0.6053(6)
H9_4 H 0.8816 0.2356 0.5645
H10_4 H 0.8866 0.2732 0.5887
C12_4 C 0.9273(2) 0.2446(3) 0.6125(9)
H11_4 H 0.9313 0.2215 0.6282
H12_4 H 0.9362 0.2590 0.6538
C13_4 C 0.9452(3) 0.2513(4) 0.5383(10)
H13_4 H 0.9407 0.2739 0.5215
H14_4 H 0.9689 0.2485 0.5465
H15_2 H 0.9377 0.2359 0.4982
C14_4 C 0.86381(18) 0.15940(17) 0.5229(5)
H16_4 H 0.8670 0.1668 0.5747
C15_4 C 0.9211(2) 0.1472(3) 0.5217(8)
H17_4 H 0.9179 0.1510 0.5774
H18_4 H 0.9307 0.1253 0.5138
H19_4 H 0.9360 0.1639 0.5007
C16_2 C 0.8883(3) 0.1353(3) 0.4072(7)
H20_2 H 0.9045 0.1459 0.3735
H21_2 H 0.8930 0.1117 0.4101
H22_2 H 0.8662 0.1386 0.3857
Mn2_4 Mn 0.788972(18) 0.288933(18) 0.50396(4)
O5_2 O 0.83063(9) 0.29786(9) 0.4636(2)
O7_5 O 0.74714(8) 0.28542(8) 0.55712(19)
N4_4 N 0.79440(9) 0.32323(9) 0.5801(2)
N6_2 N 0.76247(12) 0.32307(12) 0.4200(3)
C17_2 C 0.85152(12) 0.32166(12) 0.4817(3)
C18_2 C 0.87994(15) 0.32440(15) 0.4355(4)
H23_2 H 0.8832 0.3094 0.3939
C19_2 C 0.90278(15) 0.34803(16) 0.4488(4)
H24_2 H 0.9220 0.3488 0.4176
C20_4 C 0.89847(14) 0.37104(16) 0.5070(4)
H25_4 H 0.9140 0.3882 0.5147
C21_4 C 0.87081(12) 0.36850(13) 0.5542(3)
H26_4 H 0.8679 0.3837 0.5956
C22_4 C 0.84731(12) 0.34433(12) 0.5422(3)
C23_4 C 0.81834(11) 0.34450(10) 0.5950(3)
C24_5 C 0.74360(12) 0.30718(12) 0.6109(3)
C25_5 C 0.71032(12) 0.30942(15) 0.6493(3)
H27_5 H 0.7032 0.2872 0.6656
H28_5 H 0.7120 0.3233 0.6965
C26_5 C 0.68453(15) 0.32420(18) 0.5940(5)
H29_5 H 0.6624 0.3218 0.6173
H30_5 H 0.6848 0.3119 0.5443
C27_5 C 0.69108(19) 0.3607(2) 0.5775(5)
H31_5 H 0.7129 0.3629 0.5525
H32_5 H 0.6919 0.3727 0.6275
C28_5 C 0.6652(2) 0.3765(3) 0.5255(7)
H33_5 H 0.6432 0.3727 0.5481
H34_3 H 0.6658 0.3658 0.4738
C29_5 C 0.6702(4) 0.4117(3) 0.5157(11)
H35_5 H 0.6902 0.4184 0.5430
H36_3 H 0.6723 0.4169 0.4603
H37_5 H 0.6513 0.4236 0.5373
C30_2 C 0.77233(18) 0.35342(15) 0.4019(4)
H38_2 H 0.7933 0.3606 0.4190
C31_2 C 0.7533(2) 0.37448(18) 0.3596(5)
H39_2 H 0.7618 0.3954 0.3462
C32_3 C 0.73315(18) 0.31419(18) 0.3951(4)
H40_3 H 0.7257 0.2925 0.4059
C33_3 C 0.7126(2) 0.3353(2) 0.3536(5)
H41_3 H 0.6915 0.3280 0.3374
C34_3 C 0.7228(3) 0.3665(2) 0.3364(6)
C35_3 C 0.7007(3) 0.3901(3) 0.2915(9)
H42_3 H 0.7041 0.4127 0.3112
H43_3 H 0.6774 0.3841 0.3006
O8_3 O 0.74234(9) 0.10070(8) 0.8200(2)
O9_4 O 0.79896(8) 0.13090(8) 0.6230(2)
O10_5 O 0.70296(8) 0.17404(8) 0.7214(2)
N7_4 N 0.75555(9) 0.14302(9) 0.7026(2)
N8_4 N 0.75113(9) 0.17113(9) 0.6549(2)
C36_3 C 0.76667(13) 0.08341(13) 0.7896(3)
C37_3 C 0.77394(15) 0.05330(14) 0.8251(3)
H44_3 H 0.7615 0.0465 0.8691
C38_3 C 0.79885(17) 0.03309(15) 0.7978(4)
H45_3 H 0.8030 0.0127 0.8227
C39_4 C 0.81767(14) 0.04243(13) 0.7346(3)
H46_4 H 0.8349 0.0287 0.7163
C40_4 C 0.81100(12) 0.07182(12) 0.6986(3)
H47_4 H 0.8239 0.0783 0.6553
C41_4 C 0.78563(12) 0.09265(12) 0.7240(3)
C42_4 C 0.78015(12) 0.12383(12) 0.6806(3)
C43_5 C 0.72323(12) 0.18468(13) 0.6700(3)
C44_5 C 0.71252(14) 0.21403(15) 0.6236(4)
H48_5 H 0.7316 0.2230 0.5947
H49_5 H 0.7044 0.2313 0.6592
C45_5 C 0.6846(2) 0.2045(2) 0.5646(6)
H50_5 H 0.6932 0.1879 0.5278
H51_5 H 0.6662 0.1944 0.5935
C46_5 C 0.6720(4) 0.2336(3) 0.5194(8)
H52_5 H 0.6603 0.2484 0.5557
H53_3 H 0.6911 0.2459 0.4986
C47_3 C 0.6514(6) 0.2263(5) 0.4588(12)
H54_3 H 0.6319 0.2138 0.4768
H55_3 H 0.6628 0.2134 0.4181
C48_3 C 0.6410(7) 0.2630(5) 0.4268(18)
H56_3 H 0.6609 0.2751 0.4119
H57_3 H 0.6295 0.2750 0.4680
H58_3 H 0.6266 0.2608 0.3816
C49_3 C 0.6419(2) 0.44640(19) 0.1350(4)
H59_3 H 0.6244 0.4600 0.1527
C50_3 C 0.6611(3) 0.4310(3) 0.1888(5)
H60_3 H 0.6580 0.4347 0.2428
C51_3 C 0.67082(13) 0.42359(15) 0.0357(3)
C52_3 C 0.69051(19) 0.40717(19) 0.0836(4)
H62_3 H 0.7078 0.3939 0.0637
C53_3 C 0.6856(3) 0.4096(3) 0.1619(4)
C54_3 C 0.7065(4) 0.3894(4) 0.2201(5)
H63_3 H 0.7296 0.3963 0.2131
H64_3 H 0.7052 0.3661 0.2036
C49_4 C 0.80360(19) 0.3919(2) 0.8850(4)
H59_4 H 0.7900 0.3744 0.9027
C50_4 C 0.8190(3) 0.4111(3) 0.9388(5)
H60_4 H 0.8153 0.4080 0.9928
C51_4 C 0.82641(15) 0.42082(13) 0.7857(3)
H61_4 H 0.8291 0.4244 0.7314
C52_4 C 0.84283(19) 0.44051(19) 0.8336(4)
H62_4 H 0.8561 0.4578 0.8137
C53_4 C 0.8404(3) 0.4356(3) 0.9119(4)
C54_4 C 0.8606(4) 0.4565(4) 0.9701(5)
H63_4 H 0.8537 0.4796 0.9631
H64_4 H 0.8839 0.4552 0.9536
C49_5 C 0.19640(19) 0.1081(2) 0.8850(4)
H59_5 H 0.2100 0.1256 0.9027
C50_5 C 0.1810(3) 0.0889(3) 0.9388(5)
H60_5 H 0.1847 0.0920 0.9928
C51_5 C 0.17359(15) 0.07918(13) 0.7857(3)
H61_5 H 0.1709 0.0756 0.7314
C52_5 C 0.15717(19) 0.05949(19) 0.8336(4)
H62_5 H 0.1439 0.0422 0.8137
C53_5 C 0.1596(3) 0.0644(3) 0.9119(4)
C54_5 C 0.1394(4) 0.0435(4) 0.9701(5)
H63_5 H 0.1463 0.0204 0.9631
H64_5 H 0.1161 0.0448 0.9536
O8_4 O 0.35070(8) 0.50766(9) 0.0700(2)
C36_4 C 0.33341(13) 0.48333(13) 0.0396(3)
C37_4 C 0.30330(14) 0.47606(15) 0.0751(3)
H44_4 H 0.2965 0.4885 0.1191
C38_4 C 0.28309(15) 0.45115(17) 0.0478(4)
H45_4 H 0.2627 0.4470 0.0727
Mn1_5 Mn 0.208283(18) 0.327670(18) 0.56636(5)
O1_3 O 0.23632(10) 0.34564(9) 0.4919(2)
O2_3 O 0.22379(9) 0.24587(9) 0.42844(18)
O3_5 O 0.18122(8) 0.30186(8) 0.6369(2)
O4_3 O 0.16383(11) 0.34033(9) 0.4961(2)
N1_5 N 0.21267(10) 0.28499(9) 0.5187(2)
N2_5 N 0.19679(10) 0.25903(9) 0.5598(2)
N3_3 N 0.11007(15) 0.35097(17) 0.4822(5)
C1_3 C 0.24994(14) 0.33190(15) 0.4288(4)
C2_4 C 0.27111(19) 0.35163(18) 0.3843(4)
H1_4 H 0.2758 0.3735 0.4003
C3_4 C 0.2851(2) 0.3394(2) 0.3174(5)
H2_4 H 0.2996 0.3528 0.2879
C4_4 C 0.2785(2) 0.3083(2) 0.2933(4)
H3_4 H 0.2872 0.3007 0.2453
C5_4 C 0.25915(18) 0.28765(16) 0.3377(4)
H4_4 H 0.2556 0.2656 0.3215
C6_3 C 0.24469(13) 0.29909(14) 0.4066(3)
C7_3 C 0.22627(12) 0.27516(13) 0.4522(3)
C8_5 C 0.18145(12) 0.27076(12) 0.6210(3)
C9_5 C 0.16392(13) 0.24795(13) 0.6747(3)
H5_5 H 0.1665 0.2251 0.6558
H6_5 H 0.1740 0.2493 0.7270
C10_5 C 0.12768(17) 0.25604(16) 0.6807(5)
H7_5 H 0.1177 0.2426 0.7224
H8_5 H 0.1252 0.2795 0.6952
C11_5 C 0.10947(19) 0.2498(2) 0.6053(6)
H9_5 H 0.1184 0.2644 0.5645
H10_5 H 0.1134 0.2268 0.5887
C12_5 C 0.0727(2) 0.2554(3) 0.6125(9)
H11_5 H 0.0687 0.2785 0.6282
H12_5 H 0.0638 0.2410 0.6538
C13_5 C 0.0548(3) 0.2487(4) 0.5383(10)
H13_5 H 0.0593 0.2261 0.5215
H14_5 H 0.0311 0.2515 0.5465
H15_3 H 0.0623 0.2641 0.4982
C14_5 C 0.13619(18) 0.34060(17) 0.5229(5)
H16_5 H 0.1330 0.3332 0.5747
C15_5 C 0.0789(2) 0.3528(3) 0.5217(8)
H17_5 H 0.0821 0.3490 0.5774
H18_5 H 0.0693 0.3747 0.5138
H19_5 H 0.0640 0.3361 0.5007
C16_3 C 0.1117(3) 0.3647(3) 0.4072(7)
H20_3 H 0.0955 0.3541 0.3735
H21_3 H 0.1070 0.3883 0.4101
H22_3 H 0.1338 0.3614 0.3857
Mn2_5 Mn 0.211028(18) 0.211067(18) 0.50396(4)
O5_3 O 0.16937(9) 0.20214(9) 0.4636(2)
O7_6 O 0.25286(8) 0.21458(8) 0.55712(19)
N4_5 N 0.20560(9) 0.17677(9) 0.5801(2)
N6_3 N 0.23753(12) 0.17693(12) 0.4200(3)
C17_3 C 0.14848(12) 0.17834(12) 0.4817(3)
C18_3 C 0.12006(15) 0.17560(15) 0.4355(4)
H23_3 H 0.1168 0.1906 0.3939
C19_3 C 0.09722(15) 0.15197(16) 0.4488(4)
H24_3 H 0.0780 0.1512 0.4176
C20_5 C 0.10153(14) 0.12896(16) 0.5070(4)
H25_5 H 0.0860 0.1118 0.5147
C21_5 C 0.12919(12) 0.13150(13) 0.5542(3)
H26_5 H 0.1321 0.1163 0.5956
C22_5 C 0.15269(12) 0.15567(12) 0.5422(3)
C23_5 C 0.18166(11) 0.15550(10) 0.5950(3)
C24_6 C 0.25640(12) 0.19282(12) 0.6109(3)
C25_6 C 0.28968(12) 0.19058(15) 0.6493(3)
H27_6 H 0.2968 0.2128 0.6656
H28_6 H 0.2880 0.1767 0.6965
C26_6 C 0.31547(15) 0.17580(18) 0.5940(5)
H29_6 H 0.3376 0.1782 0.6173
H30_6 H 0.3152 0.1881 0.5443
C27_6 C 0.30892(19) 0.1393(2) 0.5775(5)
H31_6 H 0.2871 0.1371 0.5525
H32_6 H 0.3081 0.1273 0.6275
C28_6 C 0.3348(2) 0.1235(3) 0.5255(7)
H33_6 H 0.3568 0.1273 0.5481
H34_4 H 0.3342 0.1342 0.4738
C29_6 C 0.3298(4) 0.0883(3) 0.5157(11)
H35_6 H 0.3098 0.0816 0.5430
H36_4 H 0.3277 0.0831 0.4603
H37_6 H 0.3487 0.0764 0.5373
C30_3 C 0.22767(18) 0.14658(15) 0.4019(4)
H38_3 H 0.2067 0.1394 0.4190
C31_3 C 0.2467(2) 0.12552(18) 0.3596(5)
H39_3 H 0.2382 0.1046 0.3462
C32_4 C 0.26685(18) 0.18581(18) 0.3951(4)
H40_4 H 0.2743 0.2075 0.4059
C33_4 C 0.2874(2) 0.1647(2) 0.3536(5)
H41_4 H 0.3085 0.1720 0.3374
C34_4 C 0.2772(3) 0.1335(2) 0.3364(6)
C35_4 C 0.2993(3) 0.1099(3) 0.2915(9)
H42_4 H 0.2959 0.0873 0.3112
H43_4 H 0.3226 0.1159 0.3006
O8_5 O 0.25766(9) 0.39930(8) 0.8200(2)
O9_5 O 0.20104(8) 0.36910(8) 0.6230(2)
O10_6 O 0.29704(8) 0.32596(8) 0.7214(2)
N7_5 N 0.24445(9) 0.35698(9) 0.7026(2)
N8_5 N 0.24887(9) 0.32887(9) 0.6549(2)
C36_5 C 0.23333(13) 0.41659(13) 0.7896(3)
C37_5 C 0.22606(15) 0.44670(14) 0.8251(3)
H44_5 H 0.2385 0.4535 0.8691
C38_5 C 0.20115(17) 0.46691(15) 0.7978(4)
H45_5 H 0.1970 0.4873 0.8227
C39_5 C 0.18233(14) 0.45757(13) 0.7346(3)
H46_5 H 0.1651 0.4713 0.7163
C40_5 C 0.18900(12) 0.42818(12) 0.6986(3)
H47_5 H 0.1761 0.4217 0.6553
C41_5 C 0.21437(12) 0.40735(12) 0.7240(3)
C42_5 C 0.21985(12) 0.37617(12) 0.6806(3)
C43_6 C 0.27677(12) 0.31532(13) 0.6700(3)
C44_6 C 0.28748(14) 0.28597(15) 0.6236(4)
H48_6 H 0.2684 0.2770 0.5947
H49_6 H 0.2956 0.2687 0.6592
C45_6 C 0.3154(2) 0.2955(2) 0.5646(6)
H50_6 H 0.3068 0.3121 0.5278
H51_6 H 0.3338 0.3056 0.5935
C46_6 C 0.3280(4) 0.2664(3) 0.5194(8)
H52_6 H 0.3397 0.2516 0.5557
H53_4 H 0.3089 0.2541 0.4986
C47_4 C 0.3486(6) 0.2737(5) 0.4588(12)
H54_4 H 0.3681 0.2862 0.4768
H55_4 H 0.3372 0.2866 0.4181
C48_4 C 0.3590(7) 0.2370(5) 0.4268(18)
H56_4 H 0.3391 0.2249 0.4119
H57_4 H 0.3705 0.2250 0.4680
H58_4 H 0.3734 0.2392 0.3816
C49_6 C 0.3581(2) 0.05360(19) 0.1350(4)
H59_6 H 0.3756 0.0400 0.1527
C50_6 C 0.3389(3) 0.0690(3) 0.1888(5)
H60_6 H 0.3420 0.0653 0.2428
C51_6 C 0.32918(13) 0.07641(15) 0.0357(3)
C52_6 C 0.30949(19) 0.09283(19) 0.0836(4)
H62_6 H 0.2922 0.1061 0.0637
C53_6 C 0.3144(3) 0.0904(3) 0.1619(4)
C54_6 C 0.2935(4) 0.1106(4) 0.2201(5)
H63_6 H 0.2704 0.1037 0.2131
H64_6 H 0.2948 0.1339 0.2036
Mn1_6 Mn 0.208283(18) 0.827670(18) 0.43364(5)
O1_4 O 0.23632(10) 0.84564(9) 0.5081(2)
O2_4 O 0.22379(9) 0.74587(9) 0.57156(18)
O3_6 O 0.18122(8) 0.80186(8) 0.3631(2)
O4_4 O 0.16383(11) 0.84033(9) 0.5039(2)
N1_6 N 0.21267(10) 0.78499(9) 0.4813(2)
N2_6 N 0.19679(10) 0.75903(9) 0.4402(2)
N3_4 N 0.11007(15) 0.85097(17) 0.5178(5)
C1_4 C 0.24994(14) 0.83190(15) 0.5712(4)
C2_5 C 0.27111(19) 0.85163(18) 0.6157(4)
H1_5 H 0.2758 0.8735 0.5997
C3_5 C 0.2851(2) 0.8394(2) 0.6826(5)
H2_5 H 0.2996 0.8528 0.7121
C4_5 C 0.2785(2) 0.8083(2) 0.7067(4)
H3_5 H 0.2872 0.8007 0.7547
C5_5 C 0.25915(18) 0.78765(16) 0.6623(4)
H4_5 H 0.2556 0.7656 0.6785
C6_4 C 0.24469(13) 0.79909(14) 0.5934(3)
C7_4 C 0.22627(12) 0.77516(13) 0.5478(3)
C8_6 C 0.18145(12) 0.77076(12) 0.3790(3)
C9_6 C 0.16392(13) 0.74795(13) 0.3253(3)
H5_6 H 0.1665 0.7251 0.3442
H6_6 H 0.1740 0.7493 0.2730
C10_6 C 0.12768(17) 0.75604(16) 0.3193(5)
H7_6 H 0.1177 0.7426 0.2776
H8_6 H 0.1252 0.7795 0.3048
C11_6 C 0.10947(19) 0.7498(2) 0.3947(6)
H9_6 H 0.1184 0.7644 0.4355
H10_6 H 0.1134 0.7268 0.4113
C12_6 C 0.0727(2) 0.7554(3) 0.3875(9)
H11_6 H 0.0687 0.7785 0.3718
H12_6 H 0.0638 0.7410 0.3462
C13_6 C 0.0548(3) 0.7487(4) 0.4617(10)
H13_6 H 0.0593 0.7261 0.4785
H14_6 H 0.0311 0.7515 0.4535
H15_4 H 0.0623 0.7641 0.5018
C14_6 C 0.13619(18) 0.84060(17) 0.4771(5)
H16_6 H 0.1330 0.8332 0.4253
C15_6 C 0.0789(2) 0.8528(3) 0.4783(8)
H17_6 H 0.0821 0.8490 0.4226
H18_6 H 0.0693 0.8747 0.4862
H19_6 H 0.0640 0.8361 0.4993
C16_4 C 0.1117(3) 0.8647(3) 0.5928(7)
H20_4 H 0.0955 0.8541 0.6265
H21_4 H 0.1070 0.8883 0.5899
H22_4 H 0.1338 0.8614 0.6143
Mn2_6 Mn 0.211028(18) 0.711067(18) 0.49604(4)
O5_4 O 0.16937(9) 0.70214(9) 0.5364(2)
O6_4 O 0.18264(8) 0.63446(8) 0.34986(19)
O7_7 O 0.25286(8) 0.71458(8) 0.44288(19)
N4_6 N 0.20560(9) 0.67677(9) 0.4199(2)
N5_4 N 0.23346(10) 0.67211(10) 0.3706(2)
N6_4 N 0.23753(12) 0.67693(12) 0.5800(3)
C17_4 C 0.14848(12) 0.67834(12) 0.5183(3)
C18_4 C 0.12006(15) 0.67560(15) 0.5645(4)
H23_4 H 0.1168 0.6906 0.6061
C19_4 C 0.09722(15) 0.65197(16) 0.5512(4)
H24_4 H 0.0780 0.6512 0.5824
C20_6 C 0.10153(14) 0.62896(16) 0.4930(4)
H25_6 H 0.0860 0.6118 0.4853
C21_6 C 0.12919(12) 0.63150(13) 0.4458(3)
H26_6 H 0.1321 0.6163 0.4044
C22_6 C 0.15269(12) 0.65567(12) 0.4578(3)
C23_6 C 0.18166(11) 0.65550(10) 0.4050(3)
C24_7 C 0.25640(12) 0.69282(12) 0.3891(3)
C25_7 C 0.28968(12) 0.69058(15) 0.3507(3)
H27_7 H 0.2968 0.7128 0.3344
H28_7 H 0.2880 0.6767 0.3035
C26_7 C 0.31547(15) 0.67580(18) 0.4060(5)
H29_7 H 0.3376 0.6782 0.3827
H30_7 H 0.3152 0.6881 0.4557
C27_7 C 0.30892(19) 0.6393(2) 0.4225(5)
H31_7 H 0.2871 0.6371 0.4475
H32_7 H 0.3081 0.6273 0.3725
C28_7 C 0.3348(2) 0.6235(3) 0.4745(7)
H33_7 H 0.3568 0.6273 0.4519
H34_5 H 0.3342 0.6342 0.5262
C29_7 C 0.3298(4) 0.5883(3) 0.4843(11)
H35_7 H 0.3098 0.5816 0.4570
H36_5 H 0.3277 0.5831 0.5397
H37_7 H 0.3487 0.5764 0.4627
C30_4 C 0.22767(18) 0.64658(15) 0.5981(4)
H38_4 H 0.2067 0.6394 0.5810
C31_4 C 0.2467(2) 0.62552(18) 0.6404(5)
H39_4 H 0.2382 0.6046 0.6538
C32_5 C 0.26685(18) 0.68581(18) 0.6049(4)
H40_5 H 0.2743 0.7075 0.5941
C33_5 C 0.2874(2) 0.6647(2) 0.6464(5)
H41_5 H 0.3085 0.6720 0.6626
C34_5 C 0.2772(3) 0.6335(2) 0.6636(6)
C35_5 C 0.2993(3) 0.6099(3) 0.7085(9)
H42_5 H 0.2959 0.5873 0.6888
H43_5 H 0.3226 0.6159 0.6994
Mn3_3 Mn 0.279600(17) 0.863560(18) 0.22271(4)
O8_6 O 0.25766(9) 0.89930(8) 0.1800(2)
O9_6 O 0.20104(8) 0.86910(8) 0.3770(2)
O10_7 O 0.29704(8) 0.82596(8) 0.2786(2)
N7_6 N 0.24445(9) 0.85698(9) 0.2974(2)
N8_6 N 0.24887(9) 0.82887(9) 0.3451(2)
N9_3 N 0.35330(11) 0.55669(12) 0.9427(2)
C36_6 C 0.23333(13) 0.91659(13) 0.2104(3)
C37_6 C 0.22606(15) 0.94670(14) 0.1749(3)
H44_6 H 0.2385 0.9535 0.1309
C38_6 C 0.20115(17) 0.96691(15) 0.2022(4)
H45_6 H 0.1970 0.9873 0.1773
C39_6 C 0.18233(14) 0.95757(13) 0.2654(3)
H46_6 H 0.1651 0.9713 0.2837
C40_6 C 0.18900(12) 0.92818(12) 0.3014(3)
H47_6 H 0.1761 0.9217 0.3447
C41_6 C 0.21437(12) 0.90735(12) 0.2760(3)
C42_6 C 0.21985(12) 0.87617(12) 0.3194(3)
C43_7 C 0.27677(12) 0.81532(13) 0.3300(3)
C44_7 C 0.28748(14) 0.78597(15) 0.3764(4)
H48_7 H 0.2684 0.7770 0.4053
H49_7 H 0.2956 0.7687 0.3408
C45_7 C 0.3154(2) 0.7955(2) 0.4354(6)
H50_7 H 0.3068 0.8121 0.4722
H51_7 H 0.3338 0.8056 0.4065
C46_7 C 0.3280(4) 0.7664(3) 0.4806(8)
H52_7 H 0.3397 0.7516 0.4443
H53_5 H 0.3089 0.7541 0.5014
C47_5 C 0.3486(6) 0.7737(5) 0.5412(12)
H54_5 H 0.3681 0.7862 0.5232
H55_5 H 0.3372 0.7866 0.5819
C48_5 C 0.3590(7) 0.7370(5) 0.5732(18)
H56_5 H 0.3391 0.7249 0.5881
H57_5 H 0.3705 0.7250 0.5320
H58_5 H 0.3734 0.7392 0.6184
C49_7 C 0.3581(2) 0.55360(19) 0.8650(4)
H59_7 H 0.3756 0.5400 0.8473
C50_7 C 0.3389(3) 0.5690(3) 0.8112(5)
H60_7 H 0.3420 0.5653 0.7572
C51_7 C 0.32918(13) 0.57641(15) 0.9643(3)
C52_7 C 0.30949(19) 0.59283(19) 0.9164(4)
H62_7 H 0.2922 0.6061 0.9363
C53_7 C 0.3144(3) 0.5904(3) 0.8381(4)
C54_7 C 0.2935(4) 0.6106(4) 0.7799(5)
H63_7 H 0.2704 0.6037 0.7869
H64_7 H 0.2948 0.6339 0.7964
O11_3 O 0.31736(8) 0.86554(8) 0.15014(19)
N10_3 N 0.26654(10) 0.82789(10) 0.1294(2)
Mn4_3 Mn 0.220400(17) 0.636440(18) 0.27729(4)
N11_5 N 0.30669(12) 0.89670(11) 0.3073(2)
N9_4 N 0.19331(12) 0.60330(11) 0.1927(2)
C49_8 C 0.19640(19) 0.6081(2) 0.1150(4)
H59_8 H 0.2100 0.6256 0.0973
C50_8 C 0.1810(3) 0.5889(3) 0.0612(5)
H60_8 H 0.1847 0.5920 0.0072
C51_8 C 0.17359(15) 0.57918(13) 0.2143(3)
H61_6 H 0.1709 0.5756 0.2686
C52_8 C 0.15717(19) 0.55949(19) 0.1664(4)
H62_8 H 0.1439 0.5422 0.1863
C53_8 C 0.1596(3) 0.5644(3) 0.0881(4)
C54_8 C 0.1394(4) 0.5435(4) 0.0299(5)
H63_8 H 0.1463 0.5204 0.0369
H64_8 H 0.1161 0.5448 0.0464
N9_5 N 0.80669(12) 0.89670(11) 0.1927(2)
C49_9 C 0.80360(19) 0.8919(2) 0.1150(4)
H59_9 H 0.7900 0.8744 0.0973
C50_9 C 0.8190(3) 0.9111(3) 0.0612(5)
H60_9 H 0.8153 0.9080 0.0072
C51_9 C 0.82641(15) 0.92082(13) 0.2143(3)
H61_7 H 0.8291 0.9244 0.2686
C52_9 C 0.84283(19) 0.94051(19) 0.1664(4)
H62_9 H 0.8561 0.9578 0.1863
C53_9 C 0.8404(3) 0.9356(3) 0.0881(4)
C54_9 C 0.8606(4) 0.9565(4) 0.0299(5)
H63_9 H 0.8537 0.9796 0.0369
H64_9 H 0.8839 0.9552 0.0464
Mn5_2 Mn 0.779600(17) 0.863560(18) 0.27729(4)
Mn3_4 Mn 0.613560(18) 0.470400(17) 0.97271(4)
O8_7 O 0.64930(8) 0.49234(9) 0.9300(2)
C36_7 C 0.66659(13) 0.51667(13) 0.9604(3)
C37_7 C 0.69670(14) 0.52394(15) 0.9249(3)
H44_7 H 0.7035 0.5115 0.8809
C38_7 C 0.71691(15) 0.54885(17) 0.9522(4)
H45_7 H 0.7373 0.5530 0.9273
O11_4 O 0.61554(8) 0.43264(8) 0.90014(19)
N10_4 N 0.57789(10) 0.48346(10) 0.8794(2)
Mn1_7 Mn 0.791717(18) 0.672330(18) 0.43364(5)
O1_5 O 0.76368(10) 0.65436(9) 0.5081(2)
O2_5 O 0.77621(9) 0.75413(9) 0.57156(18)
O3_7 O 0.81878(8) 0.69814(8) 0.3631(2)
O4_5 O 0.83617(11) 0.65967(9) 0.5039(2)
N1_7 N 0.78733(10) 0.71501(9) 0.4813(2)
N2_7 N 0.80321(10) 0.74097(9) 0.4402(2)
N3_5 N 0.88993(15) 0.64903(17) 0.5178(5)
C1_5 C 0.75006(14) 0.66810(15) 0.5712(4)
C2_6 C 0.72889(19) 0.64837(18) 0.6157(4)
H1_6 H 0.7242 0.6265 0.5997
C3_6 C 0.7149(2) 0.6606(2) 0.6826(5)
H2_6 H 0.7004 0.6472 0.7121
C4_6 C 0.7215(2) 0.6917(2) 0.7067(4)
H3_6 H 0.7128 0.6993 0.7547
C5_6 C 0.74085(18) 0.71235(16) 0.6623(4)
H4_6 H 0.7444 0.7344 0.6785
C6_5 C 0.75531(13) 0.70091(14) 0.5934(3)
C7_5 C 0.77373(12) 0.72484(13) 0.5478(3)
C8_7 C 0.81855(12) 0.72924(12) 0.3790(3)
C9_7 C 0.83608(13) 0.75205(13) 0.3253(3)
H5_7 H 0.8335 0.7749 0.3442
H6_7 H 0.8260 0.7507 0.2730
C10_7 C 0.87232(17) 0.74396(16) 0.3193(5)
H7_7 H 0.8823 0.7574 0.2776
H8_7 H 0.8748 0.7205 0.3048
C11_7 C 0.89053(19) 0.7502(2) 0.3947(6)
H9_7 H 0.8816 0.7356 0.4355
H10_7 H 0.8866 0.7732 0.4113
C12_7 C 0.9273(2) 0.7446(3) 0.3875(9)
H11_7 H 0.9313 0.7215 0.3718
H12_7 H 0.9362 0.7590 0.3462
C13_7 C 0.9452(3) 0.7513(4) 0.4617(10)
H13_7 H 0.9407 0.7739 0.4785
H14_7 H 0.9689 0.7485 0.4535
H15_5 H 0.9377 0.7359 0.5018
C14_7 C 0.86381(18) 0.65940(17) 0.4771(5)
H16_7 H 0.8670 0.6668 0.4253
C15_7 C 0.9211(2) 0.6472(3) 0.4783(8)
H17_7 H 0.9179 0.6510 0.4226
H18_7 H 0.9307 0.6253 0.4862
H19_7 H 0.9360 0.6639 0.4993
C16_5 C 0.8883(3) 0.6353(3) 0.5928(7)
H20_5 H 0.9045 0.6459 0.6265
H21_5 H 0.8930 0.6117 0.5899
H22_5 H 0.8662 0.6386 0.6143
Mn2_7 Mn 0.788972(18) 0.788933(18) 0.49604(4)
O5_5 O 0.83063(9) 0.79786(9) 0.5364(2)
O6_5 O 0.81736(8) 0.86554(8) 0.34986(19)
O7_8 O 0.74714(8) 0.78542(8) 0.44288(19)
N4_7 N 0.79440(9) 0.82323(9) 0.4199(2)
N5_5 N 0.76654(10) 0.82789(10) 0.3706(2)
N6_5 N 0.76247(12) 0.82307(12) 0.5800(3)
C17_5 C 0.85152(12) 0.82166(12) 0.5183(3)
C18_5 C 0.87994(15) 0.82440(15) 0.5645(4)
H23_5 H 0.8832 0.8094 0.6061
C19_5 C 0.90278(15) 0.84803(16) 0.5512(4)
H24_5 H 0.9220 0.8488 0.5824
C20_7 C 0.89847(14) 0.87104(16) 0.4930(4)
H25_7 H 0.9140 0.8882 0.4853
C21_7 C 0.87081(12) 0.86850(13) 0.4458(3)
H26_7 H 0.8679 0.8837 0.4044
C22_7 C 0.84731(12) 0.84433(12) 0.4578(3)
C23_7 C 0.81834(11) 0.84450(10) 0.4050(3)
C24_8 C 0.74360(12) 0.80718(12) 0.3891(3)
C25_8 C 0.71032(12) 0.80942(15) 0.3507(3)
H27_8 H 0.7032 0.7872 0.3344
H28_8 H 0.7120 0.8233 0.3035
C26_8 C 0.68453(15) 0.82420(18) 0.4060(5)
H29_8 H 0.6624 0.8218 0.3827
H30_8 H 0.6848 0.8119 0.4557
C27_8 C 0.69108(19) 0.8607(2) 0.4225(5)
H31_8 H 0.7129 0.8629 0.4475
H32_8 H 0.6919 0.8727 0.3725
C28_8 C 0.6652(2) 0.8765(3) 0.4745(7)
H33_8 H 0.6432 0.8727 0.4519
H34_6 H 0.6658 0.8658 0.5262
C29_8 C 0.6702(4) 0.9117(3) 0.4843(11)
H35_8 H 0.6902 0.9184 0.4570
H36_6 H 0.6723 0.9169 0.5397
H37_8 H 0.6513 0.9236 0.4627
C30_5 C 0.77233(18) 0.85342(15) 0.5981(4)
H38_5 H 0.7933 0.8606 0.5810
C31_5 C 0.7533(2) 0.87448(18) 0.6404(5)
H39_5 H 0.7618 0.8954 0.6538
C32_6 C 0.73315(18) 0.81419(18) 0.6049(4)
H40_6 H 0.7257 0.7925 0.5941
C33_6 C 0.7126(2) 0.8353(2) 0.6464(5)
H41_6 H 0.6915 0.8280 0.6626
C34_6 C 0.7228(3) 0.8665(2) 0.6636(6)
C35_6 C 0.7007(3) 0.8901(3) 0.7085(9)
H42_6 H 0.7041 0.9127 0.6888
H43_6 H 0.6774 0.8841 0.6994
Mn3_5 Mn 0.720400(17) 0.636440(18) 0.22271(4)
O8_8 O 0.74234(9) 0.60070(8) 0.1800(2)
O9_7 O 0.79896(8) 0.63090(8) 0.3770(2)
O10_8 O 0.70296(8) 0.67404(8) 0.2786(2)
N7_7 N 0.75555(9) 0.64302(9) 0.2974(2)
N8_7 N 0.75113(9) 0.67113(9) 0.3451(2)
N9_6 N 0.64670(11) 0.94331(12) 0.9427(2)
C36_8 C 0.76667(13) 0.58341(13) 0.2104(3)
C37_8 C 0.77394(15) 0.55330(14) 0.1749(3)
H44_8 H 0.7615 0.5465 0.1309
C38_8 C 0.79885(17) 0.53309(15) 0.2022(4)
H45_8 H 0.8030 0.5127 0.1773
C39_7 C 0.81767(14) 0.54243(13) 0.2654(3)
H46_7 H 0.8349 0.5287 0.2837
C40_7 C 0.81100(12) 0.57182(12) 0.3014(3)
H47_7 H 0.8239 0.5783 0.3447
C41_7 C 0.78563(12) 0.59265(12) 0.2760(3)
C42_7 C 0.78015(12) 0.62383(12) 0.3194(3)
C43_8 C 0.72323(12) 0.68468(13) 0.3300(3)
C44_8 C 0.71252(14) 0.71403(15) 0.3764(4)
H48_8 H 0.7316 0.7230 0.4053
H49_8 H 0.7044 0.7313 0.3408
C45_8 C 0.6846(2) 0.7045(2) 0.4354(6)
H50_8 H 0.6932 0.6879 0.4722
H51_8 H 0.6662 0.6944 0.4065
C46_8 C 0.6720(4) 0.7336(3) 0.4806(8)
H52_8 H 0.6603 0.7484 0.4443
H53_6 H 0.6911 0.7459 0.5014
C47_6 C 0.6514(6) 0.7263(5) 0.5412(12)
H54_6 H 0.6319 0.7138 0.5232
H55_6 H 0.6628 0.7134 0.5819
C48_6 C 0.6410(7) 0.7630(5) 0.5732(18)
H56_6 H 0.6609 0.7751 0.5881
H57_6 H 0.6295 0.7750 0.5320
H58_6 H 0.6266 0.7608 0.6184
C49_10 C 0.6419(2) 0.94640(19) 0.8650(4)
H59_10 H 0.6244 0.9600 0.8473
C50_10 C 0.6611(3) 0.9310(3) 0.8112(5)
H60_10 H 0.6580 0.9347 0.7572
C51_10 C 0.67082(13) 0.92359(15) 0.9643(3)
C52_10 C 0.69051(19) 0.90717(19) 0.9164(4)
H62_10 H 0.7078 0.8939 0.9363
C53_10 C 0.6856(3) 0.9096(3) 0.8381(4)
C54_10 C 0.7065(4) 0.8894(4) 0.7799(5)
H63_10 H 0.7296 0.8963 0.7869
H64_10 H 0.7052 0.8661 0.7964
O11_5 O 0.68264(8) 0.63446(8) 0.15014(19)
N10_5 N 0.73346(10) 0.67211(10) 0.1294(2)
N11_6 N 0.69331(12) 0.60330(11) 0.3073(2)
H61_8 H 0.6744 0.4209 0.9814
Mn1_8 Mn 0.291717(18) 0.672330(18) 0.06636(5)
O3_8 O 0.31878(8) 0.69814(8) 0.1369(2)
N1_8 N 0.28733(10) 0.71501(9) 0.0187(2)
N2_8 N 0.30321(10) 0.74097(9) 0.0598(2)
C8_8 C 0.31855(12) 0.72924(12) 0.1210(3)
C9_8 C 0.33608(13) 0.75205(13) 0.1747(3)
H5_8 H 0.3335 0.7749 0.1558
H6_8 H 0.3260 0.7507 0.2270
C10_8 C 0.37232(17) 0.74396(16) 0.1807(5)
H7_8 H 0.3823 0.7574 0.2224
H8_8 H 0.3748 0.7205 0.1952
C11_8 C 0.39053(19) 0.7502(2) 0.1053(6)
H9_8 H 0.3816 0.7356 0.0645
H10_8 H 0.3866 0.7732 0.0887
C12_8 C 0.4273(2) 0.7446(3) 0.1125(9)
H11_8 H 0.4313 0.7215 0.1282
H12_8 H 0.4362 0.7590 0.1538
C13_8 C 0.4452(3) 0.7513(4) 0.0383(10)
H13_8 H 0.4407 0.7739 0.0215
H14_8 H 0.4689 0.7485 0.0465
C14_8 C 0.36381(18) 0.65940(17) 0.0229(5)
H16_8 H 0.3670 0.6668 0.0747
C15_8 C 0.4211(2) 0.6472(3) 0.0217(8)
H17_8 H 0.4179 0.6510 0.0774
H18_8 H 0.4307 0.6253 0.0138
H19_8 H 0.4360 0.6639 0.0007
Mn2_8 Mn 0.288972(18) 0.788933(18) 0.00396(4)
O7_9 O 0.24714(8) 0.78542(8) 0.05712(19)
N4_8 N 0.29440(9) 0.82323(9) 0.0801(2)
C20_8 C 0.39847(14) 0.87104(16) 0.0070(4)
H25_8 H 0.4140 0.8882 0.0147
C21_8 C 0.37081(12) 0.86850(13) 0.0542(3)
H26_8 H 0.3679 0.8837 0.0956
C22_8 C 0.34731(12) 0.84433(12) 0.0422(3)
C23_8 C 0.31834(11) 0.84450(10) 0.0950(3)
C24_9 C 0.24360(12) 0.80718(12) 0.1109(3)
C25_9 C 0.21032(12) 0.80942(15) 0.1493(3)
H27_9 H 0.2032 0.7872 0.1656
H28_9 H 0.2120 0.8233 0.1965
C26_9 C 0.18453(15) 0.82420(18) 0.0940(5)
H29_9 H 0.1624 0.8218 0.1173
H30_9 H 0.1848 0.8119 0.0443
C27_9 C 0.19108(19) 0.8607(2) 0.0775(5)
H31_9 H 0.2129 0.8629 0.0525
H32_9 H 0.1919 0.8727 0.1275
C28_9 C 0.1652(2) 0.8765(3) 0.0255(7)
H33_9 H 0.1432 0.8727 0.0481
C29_9 C 0.1702(4) 0.9117(3) 0.0157(11)
H35_9 H 0.1902 0.9184 0.0430
H37_9 H 0.1513 0.9236 0.0373
O8_9 O 0.24234(9) 0.60070(8) 0.3200(2)
O9_8 O 0.29896(8) 0.63090(8) 0.1230(2)
O10_9 O 0.20296(8) 0.67404(8) 0.2214(2)
N7_8 N 0.25555(9) 0.64302(9) 0.2026(2)
N8_8 N 0.25113(9) 0.67113(9) 0.1549(2)
C36_9 C 0.26667(13) 0.58341(13) 0.2896(3)
C37_9 C 0.27394(15) 0.55330(14) 0.3251(3)
H44_9 H 0.2615 0.5465 0.3691
C38_9 C 0.29885(17) 0.53309(15) 0.2978(4)
H45_9 H 0.3030 0.5127 0.3227
C39_8 C 0.31767(14) 0.54243(13) 0.2346(3)
H46_8 H 0.3349 0.5287 0.2163
C40_8 C 0.31100(12) 0.57182(12) 0.1986(3)
H47_8 H 0.3239 0.5783 0.1553
C41_8 C 0.28563(12) 0.59265(12) 0.2240(3)
C42_8 C 0.28015(12) 0.62383(12) 0.1806(3)
C43_9 C 0.22323(12) 0.68468(13) 0.1700(3)
C44_9 C 0.21252(14) 0.71403(15) 0.1236(4)
H48_9 H 0.2316 0.7230 0.0947
H49_9 H 0.2044 0.7313 0.1592
C45_9 C 0.1846(2) 0.7045(2) 0.0646(6)
H50_9 H 0.1932 0.6879 0.0278
H51_9 H 0.1662 0.6944 0.0935
C46_9 C 0.1720(4) 0.7336(3) 0.0194(8)
H52_9 H 0.1603 0.7484 0.0557
C2_7 C 0.60163(18) 0.97889(19) 0.6343(4)
H1_7 H 0.6235 0.9742 0.6503
C3_7 C 0.5894(2) 0.9649(2) 0.5674(5)
H2_7 H 0.6028 0.9504 0.5379
C4_7 C 0.5583(2) 0.9715(2) 0.5433(4)
H3_7 H 0.5507 0.9628 0.4953
C5_7 C 0.53765(16) 0.99085(18) 0.5877(4)
H4_7 H 0.5156 0.9944 0.5715
O7_10 O 0.46458(8) 0.99714(8) 0.80712(19)
C24_10 C 0.44282(12) 0.99360(12) 0.8609(3)
C25_10 C 0.44058(15) 0.96032(12) 0.8993(3)
H27_10 H 0.4628 0.9532 0.9156
H28_10 H 0.4267 0.9620 0.9465
C26_10 C 0.42580(18) 0.93453(15) 0.8440(5)
H29_10 H 0.4282 0.9124 0.8673
H30_10 H 0.4381 0.9348 0.7943
C27_10 C 0.3893(2) 0.94108(19) 0.8275(5)
H31_10 H 0.3871 0.9629 0.8025
H32_10 H 0.3773 0.9419 0.8775
C28_10 C 0.3735(3) 0.9152(2) 0.7755(7)
H33_10 H 0.3773 0.8932 0.7981
H34_7 H 0.3842 0.9158 0.7238
C29_10 C 0.3383(3) 0.9202(4) 0.7657(11)
H35_10 H 0.3316 0.9402 0.7930
H36_7 H 0.3331 0.9223 0.7103
H37_10 H 0.3264 0.9013 0.7873
C32_7 C 0.43581(18) 0.98315(18) 0.6451(4)
H40_7 H 0.4575 0.9757 0.6559
C33_7 C 0.4147(2) 0.9626(2) 0.6036(5)
H41_7 H 0.4220 0.9415 0.5874
C34_7 C 0.3835(2) 0.9728(3) 0.5864(6)
C35_7 C 0.3599(3) 0.9507(3) 0.5415(9)
H42_7 H 0.3373 0.9541 0.5612
H43_7 H 0.3659 0.9274 0.5506
O10_10 O 0.57596(8) 0.95296(8) 0.9714(2)
C43_10 C 0.56532(13) 0.97323(12) 0.9200(3)
C44_10 C 0.53597(15) 0.96252(14) 0.8736(4)
H48_10 H 0.5270 0.9816 0.8447
H49_10 H 0.5187 0.9544 0.9092
C45_10 C 0.5455(2) 0.9346(2) 0.8146(6)
H50_10 H 0.5621 0.9432 0.7778
H51_10 H 0.5556 0.9162 0.8435
C46_10 C 0.5164(3) 0.9220(4) 0.7694(8)
H52_10 H 0.5016 0.9103 0.8057
H53_7 H 0.5041 0.9411 0.7486
C47_7 C 0.5237(5) 0.9014(6) 0.7088(12)
H54_7 H 0.5362 0.8819 0.7268
H55_7 H 0.5366 0.9128 0.6681
C48_7 C 0.4870(5) 0.8910(7) 0.6768(18)
H56_7 H 0.4749 0.9109 0.6619
H57_7 H 0.4750 0.8795 0.7180
H58_7 H 0.4892 0.8766 0.6316
C49_11 C 0.30360(19) 0.8919(2) 0.3850(4)
H59_11 H 0.2900 0.8744 0.4027
C50_11 C 0.3190(3) 0.9111(3) 0.4388(5)
H60_11 H 0.3153 0.9080 0.4928
C51_11 C 0.32641(15) 0.92082(13) 0.2857(3)
H61_9 H 0.3291 0.9244 0.2314
C52_11 C 0.34283(19) 0.94051(19) 0.3336(4)
H62_11 H 0.3561 0.9578 0.3137
C53_11 C 0.3404(3) 0.9356(3) 0.4119(4)
C54_11 C 0.3606(4) 0.9565(4) 0.4701(5)
H63_11 H 0.3537 0.9796 0.4631
H64_11 H 0.3839 0.9552 0.4536
Mn1_9 Mn 0.708283(18) 0.827670(18) 0.06636(5)
O3_9 O 0.68122(8) 0.80186(8) 0.1369(2)
N1_9 N 0.71267(10) 0.78499(9) 0.0187(2)
N2_9 N 0.69679(10) 0.75903(9) 0.0598(2)
C8_9 C 0.68145(12) 0.77076(12) 0.1210(3)
C9_9 C 0.66392(13) 0.74795(13) 0.1747(3)
H5_9 H 0.6665 0.7251 0.1558
H6_9 H 0.6740 0.7493 0.2270
C10_9 C 0.62768(17) 0.75604(16) 0.1807(5)
H7_9 H 0.6177 0.7426 0.2224
H8_9 H 0.6252 0.7795 0.1952
C11_9 C 0.60947(19) 0.7498(2) 0.1053(6)
H9_9 H 0.6184 0.7644 0.0645
H10_9 H 0.6134 0.7268 0.0887
C12_9 C 0.5727(2) 0.7554(3) 0.1125(9)
H11_9 H 0.5687 0.7785 0.1282
H12_9 H 0.5638 0.7410 0.1538
C13_9 C 0.5548(3) 0.7487(4) 0.0383(10)
H13_9 H 0.5593 0.7261 0.0215
H14_9 H 0.5311 0.7515 0.0465
C14_9 C 0.63619(18) 0.84060(17) 0.0229(5)
H16_9 H 0.6330 0.8332 0.0747
C15_9 C 0.5789(2) 0.8528(3) 0.0217(8)
H17_9 H 0.5821 0.8490 0.0774
H18_9 H 0.5693 0.8747 0.0138
H19_9 H 0.5640 0.8361 0.0007
Mn2_9 Mn 0.711028(18) 0.711067(18) 0.00396(4)
O7_11 O 0.75286(8) 0.71458(8) 0.05712(19)
N4_9 N 0.70560(9) 0.67677(9) 0.0801(2)
C20_9 C 0.60153(14) 0.62896(16) 0.0070(4)
H25_9 H 0.5860 0.6118 0.0147
C21_9 C 0.62919(12) 0.63150(13) 0.0542(3)
H26_9 H 0.6321 0.6163 0.0956
C22_9 C 0.65269(12) 0.65567(12) 0.0422(3)
C23_9 C 0.68166(11) 0.65550(10) 0.0950(3)
C24_11 C 0.75640(12) 0.69282(12) 0.1109(3)
C25_11 C 0.78968(12) 0.69058(15) 0.1493(3)
H27_11 H 0.7968 0.7128 0.1656
H28_11 H 0.7880 0.6767 0.1965
C26_11 C 0.81547(15) 0.67580(18) 0.0940(5)
H29_11 H 0.8376 0.6782 0.1173
H30_11 H 0.8152 0.6881 0.0443
C27_11 C 0.80892(19) 0.6393(2) 0.0775(5)
H31_11 H 0.7871 0.6371 0.0525
H32_11 H 0.8081 0.6273 0.1275
C28_11 C 0.8348(2) 0.6235(3) 0.0255(7)
H33_11 H 0.8568 0.6273 0.0481
C29_11 C 0.8298(4) 0.5883(3) 0.0157(11)
H35_11 H 0.8098 0.5816 0.0430
H37_11 H 0.8487 0.5764 0.0373
O8_10 O 0.75766(9) 0.89930(8) 0.3200(2)
O9_9 O 0.70104(8) 0.86910(8) 0.1230(2)
O10_11 O 0.79704(8) 0.82596(8) 0.2214(2)
N7_9 N 0.74445(9) 0.85698(9) 0.2026(2)
N8_9 N 0.74887(9) 0.82887(9) 0.1549(2)
C36_10 C 0.73333(13) 0.91659(13) 0.2896(3)
C37_10 C 0.72606(15) 0.94670(14) 0.3251(3)
H44_10 H 0.7385 0.9535 0.3691
C38_10 C 0.70115(17) 0.96691(15) 0.2978(4)
H45_10 H 0.6970 0.9873 0.3227
C39_9 C 0.68233(14) 0.95757(13) 0.2346(3)
H46_9 H 0.6651 0.9713 0.2163
C40_9 C 0.68900(12) 0.92818(12) 0.1986(3)
H47_9 H 0.6761 0.9217 0.1553
C41_9 C 0.71437(12) 0.90735(12) 0.2240(3)
C42_9 C 0.71985(12) 0.87617(12) 0.1806(3)
C43_11 C 0.77677(12) 0.81532(13) 0.1700(3)
C44_11 C 0.78748(14) 0.78597(15) 0.1236(4)
H48_11 H 0.7684 0.7770 0.0947
H49_11 H 0.7956 0.7687 0.1592
C45_11 C 0.8154(2) 0.7955(2) 0.0646(6)
H50_11 H 0.8068 0.8121 0.0278
H51_11 H 0.8338 0.8056 0.0935
C46_11 C 0.8280(4) 0.7664(3) 0.0194(8)
H52_11 H 0.8397 0.7516 0.0557
Mn1_10 Mn 0.422330(18) 0.458283(18) 0.81636(5)
O1_6 O 0.40436(9) 0.48632(10) 0.7419(2)
O2_6 O 0.50413(9) 0.47379(9) 0.67844(18)
O3_10 O 0.44814(8) 0.43122(8) 0.8869(2)
O4_6 O 0.40967(9) 0.41383(11) 0.7461(2)
N1_10 N 0.46501(9) 0.46267(10) 0.7687(2)
N2_10 N 0.49097(9) 0.44679(10) 0.8098(2)
N3_6 N 0.39903(17) 0.36007(15) 0.7322(5)
C1_6 C 0.41810(15) 0.49994(14) 0.6788(4)
C2_8 C 0.39837(18) 0.52111(19) 0.6343(4)
H1_8 H 0.3765 0.5258 0.6503
C3_8 C 0.4106(2) 0.5351(2) 0.5674(5)
H2_8 H 0.3972 0.5496 0.5379
C4_8 C 0.4417(2) 0.5285(2) 0.5433(4)
H3_8 H 0.4493 0.5372 0.4953
C5_8 C 0.46235(16) 0.50915(18) 0.5877(4)
H4_8 H 0.4844 0.5056 0.5715
C6_6 C 0.45091(14) 0.49469(13) 0.6566(3)
C7_6 C 0.47484(13) 0.47627(12) 0.7022(3)
C8_10 C 0.47924(12) 0.43145(12) 0.8710(3)
C9_10 C 0.50205(13) 0.41392(13) 0.9247(3)
H5_10 H 0.5249 0.4165 0.9058
H6_10 H 0.5007 0.4240 0.9770
C10_10 C 0.49396(16) 0.37768(17) 0.9307(5)
H7_10 H 0.5074 0.3677 0.9724
H8_10 H 0.4705 0.3752 0.9452
C11_10 C 0.5002(2) 0.35947(19) 0.8553(6)
H9_10 H 0.4856 0.3684 0.8145
H10_10 H 0.5232 0.3634 0.8387
C12_10 C 0.4946(3) 0.3227(2) 0.8625(9)
H11_10 H 0.4715 0.3187 0.8782
H12_10 H 0.5090 0.3138 0.9038
C13_10 C 0.5013(4) 0.3048(3) 0.7883(10)
H13_10 H 0.5239 0.3093 0.7715
H14_10 H 0.4985 0.2811 0.7965
H15_6 H 0.4859 0.3123 0.7482
C14_10 C 0.40940(17) 0.38619(18) 0.7729(5)
H16_10 H 0.4168 0.3830 0.8247
C15_10 C 0.3972(3) 0.3289(2) 0.7717(8)
H17_10 H 0.4010 0.3321 0.8274
H18_10 H 0.3753 0.3193 0.7638
H19_10 H 0.4139 0.3140 0.7507
C16_6 C 0.3853(3) 0.3617(3) 0.6572(7)
H20_6 H 0.3959 0.3455 0.6235
H21_6 H 0.3617 0.3570 0.6601
H22_6 H 0.3886 0.3838 0.6357
Mn2_10 Mn 0.538933(18) 0.461028(18) 0.75396(4)
O5_6 O 0.54786(9) 0.41937(9) 0.7136(2)
O7_12 O 0.53542(8) 0.50286(8) 0.80712(19)
N4_10 N 0.57323(9) 0.45560(9) 0.8301(2)
N6_6 N 0.57307(12) 0.48753(12) 0.6700(3)
C17_6 C 0.57166(12) 0.39848(12) 0.7317(3)
C18_6 C 0.57440(15) 0.37006(15) 0.6855(4)
H23_6 H 0.5594 0.3668 0.6439
C19_6 C 0.59803(16) 0.34722(15) 0.6988(4)
H24_6 H 0.5988 0.3280 0.6676
C20_10 C 0.62104(16) 0.35153(14) 0.7570(4)
H25_10 H 0.6382 0.3360 0.7647
C21_10 C 0.61850(13) 0.37919(12) 0.8042(3)
H26_10 H 0.6337 0.3821 0.8456
C22_10 C 0.59433(12) 0.40269(12) 0.7922(3)
C23_10 C 0.59450(10) 0.43166(11) 0.8450(3)
C24_12 C 0.55718(12) 0.50640(12) 0.8609(3)
C25_12 C 0.55942(15) 0.53968(12) 0.8993(3)
H27_12 H 0.5372 0.5468 0.9156
H28_12 H 0.5733 0.5380 0.9465
C26_12 C 0.57420(18) 0.56547(15) 0.8440(5)
H29_12 H 0.5718 0.5876 0.8673
H30_12 H 0.5619 0.5652 0.7943
C27_12 C 0.6107(2) 0.55892(19) 0.8275(5)
H31_12 H 0.6129 0.5371 0.8025
H32_12 H 0.6227 0.5581 0.8775
C28_12 C 0.6265(3) 0.5848(2) 0.7755(7)
H33_12 H 0.6227 0.6068 0.7981
H34_8 H 0.6158 0.5842 0.7238
C29_12 C 0.6617(3) 0.5798(4) 0.7657(11)
H35_12 H 0.6684 0.5598 0.7930
H36_8 H 0.6669 0.5777 0.7103
H37_12 H 0.6736 0.5987 0.7873
C30_6 C 0.60342(15) 0.47767(18) 0.6519(4)
H38_6 H 0.6106 0.4567 0.6690
C31_6 C 0.62448(18) 0.4967(2) 0.6096(5)
H39_6 H 0.6454 0.4882 0.5962
C32_8 C 0.56419(18) 0.51685(18) 0.6451(4)
H40_8 H 0.5425 0.5243 0.6559
C33_8 C 0.5853(2) 0.5374(2) 0.6036(5)
H41_8 H 0.5780 0.5585 0.5874
C34_8 C 0.6165(2) 0.5272(3) 0.5864(6)
C35_8 C 0.6401(3) 0.5493(3) 0.5415(9)
H42_8 H 0.6627 0.5459 0.5612
H43_8 H 0.6341 0.5726 0.5506
O9_10 O 0.38090(8) 0.45104(8) 0.8730(2)
O10_12 O 0.42404(8) 0.54704(8) 0.9714(2)
N7_10 N 0.39302(9) 0.49445(9) 0.9526(2)
N8_10 N 0.42113(9) 0.49887(9) 0.9049(2)
C39_10 C 0.29243(13) 0.43233(14) 0.9846(3)
H46_10 H 0.2787 0.4151 0.9663
C40_10 C 0.32182(12) 0.43900(12) 0.9486(3)
H47_10 H 0.3283 0.4261 0.9053
C41_10 C 0.34265(12) 0.46437(12) 0.9740(3)
C42_10 C 0.37383(12) 0.46985(12) 0.9306(3)
C43_12 C 0.43468(13) 0.52677(12) 0.9200(3)
C44_12 C 0.46403(15) 0.53748(14) 0.8736(4)
H48_12 H 0.4730 0.5184 0.8447
H49_12 H 0.4813 0.5456 0.9092
C45_12 C 0.4545(2) 0.5654(2) 0.8146(6)
H50_12 H 0.4379 0.5568 0.7778
H51_12 H 0.4444 0.5838 0.8435
C46_12 C 0.4836(3) 0.5780(4) 0.7694(8)
H52_12 H 0.4984 0.5897 0.8057
H53_8 H 0.4959 0.5589 0.7486
C47_8 C 0.4763(5) 0.5986(6) 0.7088(12)
H54_8 H 0.4638 0.6181 0.7268
H55_8 H 0.4634 0.5872 0.6681
C48_8 C 0.5130(5) 0.6090(7) 0.6768(18)
H56_8 H 0.5251 0.5891 0.6619
H57_8 H 0.5250 0.6205 0.7180
H58_8 H 0.5108 0.6234 0.6316
C49_12 C 0.69640(19) 0.6081(2) 0.3850(4)
H59_12 H 0.7100 0.6256 0.4027
C50_12 C 0.6810(3) 0.5889(3) 0.4388(5)
H60_12 H 0.6847 0.5920 0.4928
C51_12 C 0.67359(15) 0.57918(13) 0.2857(3)
H61_10 H 0.6709 0.5756 0.2314
C52_12 C 0.65717(19) 0.55949(19) 0.3336(4)
H62_12 H 0.6439 0.5422 0.3137
C53_12 C 0.6596(3) 0.5644(3) 0.4119(4)
C54_12 C 0.6394(4) 0.5435(4) 0.4701(5)
H63_12 H 0.6463 0.5204 0.4631
H64_12 H 0.6161 0.5448 0.4536
O2_7 O 0.00413(9) 0.47379(9) 0.82156(18)
C9_11 C 0.00205(13) 0.41392(13) 0.5753(3)
H5_11 H 0.0249 0.4165 0.5942
H6_11 H 0.0007 0.4240 0.5230
H7_11 H 0.0074 0.3677 0.5276
C11_11 C 0.0002(2) 0.35947(19) 0.6447(6)
H10_11 H 0.0232 0.3634 0.6613
H12_11 H 0.0090 0.3138 0.5962
C13_11 C 0.0013(4) 0.3048(3) 0.7117(10)
H13_11 H 0.0239 0.3093 0.7285
Mn2_11 Mn 0.038933(18) 0.461028(18) 0.74604(4)
O5_7 O 0.04786(9) 0.41937(9) 0.7864(2)
O6_6 O 0.11554(8) 0.43264(8) 0.59986(19)
O7_13 O 0.03542(8) 0.50286(8) 0.69288(19)
N4_11 N 0.07323(9) 0.45560(9) 0.6699(2)
N5_6 N 0.07789(10) 0.48346(10) 0.6206(2)
N6_7 N 0.07307(12) 0.48753(12) 0.8300(3)
C17_7 C 0.07166(12) 0.39848(12) 0.7683(3)
C18_7 C 0.07440(15) 0.37006(15) 0.8145(4)
H23_7 H 0.0594 0.3668 0.8561
C19_7 C 0.09803(16) 0.34722(15) 0.8012(4)
H24_7 H 0.0988 0.3280 0.8324
C20_11 C 0.12104(16) 0.35153(14) 0.7430(4)
H25_11 H 0.1382 0.3360 0.7353
C21_11 C 0.11850(13) 0.37919(12) 0.6958(3)
H26_11 H 0.1337 0.3821 0.6544
C22_11 C 0.09433(12) 0.40269(12) 0.7078(3)
C23_11 C 0.09450(10) 0.43166(11) 0.6550(3)
C24_13 C 0.05718(12) 0.50640(12) 0.6391(3)
C25_13 C 0.05942(15) 0.53968(12) 0.6007(3)
H27_13 H 0.0372 0.5468 0.5844
H28_13 H 0.0733 0.5380 0.5535
C26_13 C 0.07420(18) 0.56547(15) 0.6560(5)
H29_13 H 0.0718 0.5876 0.6327
H30_13 H 0.0619 0.5652 0.7057
C27_13 C 0.1107(2) 0.55892(19) 0.6725(5)
H31_13 H 0.1129 0.5371 0.6975
H32_13 H 0.1227 0.5581 0.6225
C28_13 C 0.1265(3) 0.5848(2) 0.7245(7)
H33_13 H 0.1227 0.6068 0.7019
H34_9 H 0.1158 0.5842 0.7762
C29_13 C 0.1617(3) 0.5798(4) 0.7343(11)
H35_13 H 0.1684 0.5598 0.7070
H36_9 H 0.1669 0.5777 0.7897
H37_13 H 0.1736 0.5987 0.7127
C30_7 C 0.10342(15) 0.47767(18) 0.8481(4)
H38_7 H 0.1106 0.4567 0.8310
C31_7 C 0.12448(18) 0.4967(2) 0.8904(5)
H39_7 H 0.1454 0.4882 0.9038
C32_9 C 0.06419(18) 0.51685(18) 0.8549(4)
H40_9 H 0.0425 0.5243 0.8441
C33_9 C 0.0853(2) 0.5374(2) 0.8964(5)
H41_9 H 0.0780 0.5585 0.9126
C34_9 C 0.1165(2) 0.5272(3) 0.9136(6)
C35_9 C 0.1401(3) 0.5493(3) 0.9585(9)
H42_9 H 0.1627 0.5459 0.9388
H43_9 H 0.1341 0.5726 0.9494
C48_9 C 0.0130(5) 0.6090(7) 0.8232(18)
H56_9 H 0.0251 0.5891 0.8381
H57_9 H 0.0250 0.6205 0.7820
H58_9 H 0.0108 0.6234 0.8684
Mn4_4 Mn 0.113560(18) 0.470400(17) 0.52729(4)
O1_7 O 0.26368(10) 0.15436(9) 0.0081(2)
O2_8 O 0.27621(9) 0.25413(9) 0.07156(18)
O4_7 O 0.33617(11) 0.15967(9) 0.0039(2)
N3_7 N 0.38993(15) 0.14903(17) 0.0178(5)
C1_7 C 0.25006(14) 0.16810(15) 0.0712(4)
C2_9 C 0.22889(19) 0.14837(18) 0.1157(4)
H1_9 H 0.2242 0.1265 0.0997
C3_9 C 0.2149(2) 0.1606(2) 0.1826(5)
H2_9 H 0.2004 0.1472 0.2121
C4_9 C 0.2215(2) 0.1917(2) 0.2067(4)
H3_9 H 0.2128 0.1993 0.2547
C5_9 C 0.24085(18) 0.21235(16) 0.1623(4)
H4_9 H 0.2444 0.2344 0.1785
C6_7 C 0.25531(13) 0.20091(14) 0.0934(3)
C7_7 C 0.27373(12) 0.22484(13) 0.0478(3)
H15_7 H 0.4377 0.2359 0.0018
C16_7 C 0.3883(3) 0.1353(3) 0.0928(7)
H20_7 H 0.4045 0.1459 0.1265
H21_7 H 0.3930 0.1117 0.0899
H22_7 H 0.3662 0.1386 0.1143
O5_8 O 0.33063(9) 0.29786(9) 0.0364(2)
N6_8 N 0.26247(12) 0.32307(12) 0.0800(3)
C17_8 C 0.35152(12) 0.32166(12) 0.0183(3)
C18_8 C 0.37994(15) 0.32440(15) 0.0645(4)
H23_8 H 0.3832 0.3094 0.1061
C19_8 C 0.40278(15) 0.34803(16) 0.0512(4)
H24_8 H 0.4220 0.3488 0.0824
H34_10 H 0.1658 0.3658 0.0262
H36_10 H 0.1723 0.4169 0.0397
C30_8 C 0.27233(18) 0.35342(15) 0.0981(4)
H38_8 H 0.2933 0.3606 0.0810
C31_8 C 0.2533(2) 0.37448(18) 0.1404(5)
H39_8 H 0.2618 0.3954 0.1538
C32_10 C 0.23315(18) 0.31419(18) 0.1049(4)
H40_10 H 0.2257 0.2925 0.0941
C33_10 C 0.2126(2) 0.3353(2) 0.1464(5)
H41_10 H 0.1915 0.3280 0.1626
C34_10 C 0.2228(3) 0.3665(2) 0.1636(6)
C35_10 C 0.2007(3) 0.3901(3) 0.2085(9)
H42_10 H 0.2041 0.4127 0.1888
H43_10 H 0.1774 0.3841 0.1994
N9_7 N 0.14670(11) 0.44331(12) 0.4427(2)
H53_9 H 0.1911 0.2459 0.0014
C47_9 C 0.1514(6) 0.2263(5) 0.0412(12)
H54_9 H 0.1319 0.2138 0.0232
H55_9 H 0.1628 0.2134 0.0819
C48_10 C 0.1410(7) 0.2630(5) 0.0732(18)
H56_10 H 0.1609 0.2751 0.0881
H57_10 H 0.1295 0.2750 0.0320
H58_10 H 0.1266 0.2608 0.1184
C49_13 C 0.1419(2) 0.44640(19) 0.3650(4)
H59_13 H 0.1244 0.4600 0.3473
C50_13 C 0.1611(3) 0.4310(3) 0.3112(5)
H60_13 H 0.1580 0.4347 0.2572
C51_13 C 0.17082(13) 0.42359(15) 0.4643(3)
H61_11 H 0.1744 0.4209 0.5186
C52_13 C 0.19051(19) 0.40717(19) 0.4164(4)
H62_13 H 0.2078 0.3939 0.4363
C53_13 C 0.1856(3) 0.4096(3) 0.3381(4)
C54_13 C 0.2065(4) 0.3894(4) 0.2799(5)
H63_13 H 0.2296 0.3963 0.2869
H64_13 H 0.2052 0.3661 0.2964
Mn1_11 Mn 0.077670(18) 0.541717(18) 0.31636(5)
O1_8 O 0.09564(9) 0.51368(10) 0.2419(2)
O3_11 O 0.05186(8) 0.56878(8) 0.3869(2)
O4_8 O 0.09033(9) 0.58617(11) 0.2461(2)
N1_11 N 0.03499(9) 0.53733(10) 0.2687(2)
N2_11 N 0.00903(9) 0.55321(10) 0.3098(2)
N3_8 N 0.10097(17) 0.63993(15) 0.2322(5)
C1_8 C 0.08190(15) 0.50006(14) 0.1788(4)
C2_10 C 0.10163(18) 0.47889(19) 0.1343(4)
H1_10 H 0.1235 0.4742 0.1503
C3_10 C 0.0894(2) 0.4649(2) 0.0674(5)
H2_10 H 0.1028 0.4504 0.0379
C4_10 C 0.0583(2) 0.4715(2) 0.0433(4)
C5_10 C 0.03765(16) 0.49085(18) 0.0877(4)
H4_10 H 0.0156 0.4944 0.0715
C6_8 C 0.04909(14) 0.50531(13) 0.1566(3)
C7_8 C 0.02516(13) 0.52373(12) 0.2022(3)
C8_11 C 0.02076(12) 0.56855(12) 0.3710(3)
C10_11 C 0.00604(16) 0.62232(17) 0.4307(5)
H8_11 H 0.0295 0.6248 0.4452
H9_11 H 0.0144 0.6316 0.3145
C12_11 C 0.0054(3) 0.6773(2) 0.3625(9)
H11_11 H 0.0285 0.6813 0.3782
H14_11 H 0.0015 0.7189 0.2965
H15_8 H 0.0141 0.6877 0.2482
C14_11 C 0.09060(17) 0.61381(18) 0.2729(5)
H16_11 H 0.0832 0.6170 0.3247
C15_11 C 0.1028(3) 0.6711(2) 0.2717(8)
H17_11 H 0.0990 0.6679 0.3274
H18_11 H 0.1247 0.6807 0.2638
H19_11 H 0.0861 0.6860 0.2507
C16_8 C 0.1147(3) 0.6383(3) 0.1572(7)
H20_8 H 0.1041 0.6545 0.1235
H21_8 H 0.1383 0.6430 0.1601
H22_8 H 0.1114 0.6162 0.1357
O8_11 O 0.14930(8) 0.49234(9) 0.5700(2)
O9_11 O 0.11910(8) 0.54896(8) 0.3730(2)
O10_13 O 0.07596(8) 0.45296(8) 0.4714(2)
N7_11 N 0.10698(9) 0.50555(9) 0.4526(2)
N8_11 N 0.07887(9) 0.50113(9) 0.4049(2)
C36_11 C 0.16659(13) 0.51667(13) 0.5396(3)
C37_11 C 0.19670(14) 0.52394(15) 0.5751(3)
H44_11 H 0.2035 0.5115 0.6191
C38_11 C 0.21691(15) 0.54885(17) 0.5478(4)
H45_11 H 0.2373 0.5530 0.5727
C39_11 C 0.20757(13) 0.56767(14) 0.4846(3)
H46_11 H 0.2213 0.5849 0.4663
C40_11 C 0.17818(12) 0.56100(12) 0.4486(3)
H47_11 H 0.1717 0.5739 0.4053
C41_11 C 0.15735(12) 0.53563(12) 0.4740(3)
C42_11 C 0.12617(12) 0.53015(12) 0.4306(3)
C43_13 C 0.06532(13) 0.47323(12) 0.4200(3)
C44_13 C 0.03597(15) 0.46252(14) 0.3736(4)
H48_13 H 0.0270 0.4816 0.3447
H49_13 H 0.0187 0.4544 0.4092
C45_13 C 0.0455(2) 0.4346(2) 0.3146(6)
H50_13 H 0.0621 0.4432 0.2778
H51_13 H 0.0556 0.4162 0.3435
C46_13 C 0.0164(3) 0.4220(4) 0.2694(8)
H52_13 H 0.0016 0.4103 0.3057
H53_10 H 0.0041 0.4411 0.2486
C47_10 C 0.0237(5) 0.4014(6) 0.2088(12)
H54_10 H 0.0362 0.3819 0.2268
H55_10 H 0.0366 0.4128 0.1681
H3_10 H 0.9493 0.5372 0.0047
Mn1_12 Mn 0.922330(18) 0.458283(18) 0.68364(5)
O1_9 O 0.90436(9) 0.48632(10) 0.7581(2)
O3_12 O 0.94814(8) 0.43122(8) 0.6131(2)
O4_9 O 0.90967(9) 0.41383(11) 0.7539(2)
N1_12 N 0.96501(9) 0.46267(10) 0.7313(2)
N2_12 N 0.99097(9) 0.44679(10) 0.6902(2)
N3_9 N 0.89903(17) 0.36007(15) 0.7678(5)
C1_9 C 0.91810(15) 0.49994(14) 0.8212(4)
C2_11 C 0.89837(18) 0.52111(19) 0.8657(4)
H1_11 H 0.8765 0.5258 0.8497
C3_11 C 0.9106(2) 0.5351(2) 0.9326(5)
H2_11 H 0.8972 0.5496 0.9621
C4_11 C 0.9417(2) 0.5285(2) 0.9567(4)
C5_11 C 0.96235(16) 0.50915(18) 0.9123(4)
H4_11 H 0.9844 0.5056 0.9285
C6_9 C 0.95091(14) 0.49469(13) 0.8434(3)
C7_9 C 0.97484(13) 0.47627(12) 0.7978(3)
C8_12 C 0.97924(12) 0.43145(12) 0.6290(3)
C10_12 C 0.99396(16) 0.37768(17) 0.5693(5)
H8_12 H 0.9705 0.3752 0.5548
H9_12 H 0.9856 0.3684 0.6855
C12_12 C 0.9946(3) 0.3227(2) 0.6375(9)
H11_12 H 0.9715 0.3187 0.6218
H14_12 H 0.9985 0.2811 0.7035
H15_9 H 0.9859 0.3123 0.7518
C14_12 C 0.90940(17) 0.38619(18) 0.7271(5)
H16_12 H 0.9168 0.3830 0.6753
C15_12 C 0.8972(3) 0.3289(2) 0.7283(8)
H17_12 H 0.9010 0.3321 0.6726
H18_12 H 0.8753 0.3193 0.7362
H19_12 H 0.9139 0.3140 0.7493
C16_9 C 0.8853(3) 0.3617(3) 0.8428(7)
H20_9 H 0.8959 0.3455 0.8765
H21_9 H 0.8617 0.3570 0.8399
H22_9 H 0.8886 0.3838 0.8643
Mn3_6 Mn 0.886440(18) 0.529600(17) 0.47271(4)
O8_12 O 0.85070(8) 0.50766(9) 0.4300(2)
O9_12 O 0.88090(8) 0.45104(8) 0.6270(2)
O10_14 O 0.92404(8) 0.54704(8) 0.5286(2)
N7_12 N 0.89302(9) 0.49445(9) 0.5474(2)
N8_12 N 0.92113(9) 0.49887(9) 0.5951(2)
C36_12 C 0.83341(13) 0.48333(13) 0.4604(3)
C37_12 C 0.80330(14) 0.47606(15) 0.4249(3)
H44_12 H 0.7965 0.4885 0.3809
C38_12 C 0.78309(15) 0.45115(17) 0.4522(4)
H45_12 H 0.7627 0.4470 0.4273
C39_12 C 0.79243(13) 0.43233(14) 0.5154(3)
H46_12 H 0.7787 0.4151 0.5337
C40_12 C 0.82182(12) 0.43900(12) 0.5514(3)
H47_12 H 0.8283 0.4261 0.5947
C41_12 C 0.84265(12) 0.46437(12) 0.5260(3)
C42_12 C 0.87383(12) 0.46985(12) 0.5694(3)
C43_14 C 0.93468(13) 0.52677(12) 0.5800(3)
C44_14 C 0.96403(15) 0.53748(14) 0.6264(4)
H48_14 H 0.9730 0.5184 0.6553
H49_14 H 0.9813 0.5456 0.5908
C45_14 C 0.9545(2) 0.5654(2) 0.6854(6)
H50_14 H 0.9379 0.5568 0.7222
H51_14 H 0.9444 0.5838 0.6565
C46_14 C 0.9836(3) 0.5780(4) 0.7306(8)
H52_14 H 0.9984 0.5897 0.6943
H53_11 H 0.9959 0.5589 0.7514
C47_11 C 0.9763(5) 0.5986(6) 0.7912(12)
H54_11 H 0.9638 0.6181 0.7732
H55_11 H 0.9634 0.5872 0.8319
O11_6 O 0.88446(8) 0.56736(8) 0.40014(19)
N10_6 N 0.92211(10) 0.51654(10) 0.3794(2)
N11_7 N 0.85330(11) 0.55669(12) 0.5573(2)
O2_9 O 0.99587(9) 0.52621(9) 0.17844(18)
C9_12 C 0.99795(13) 0.58608(13) 0.4247(3)
H5_12 H 0.9751 0.5835 0.4058
H6_12 H 0.9993 0.5760 0.4770
H7_12 H 0.9926 0.6323 0.4724
C11_12 C 0.9998(2) 0.64053(19) 0.3553(6)
H10_12 H 0.9768 0.6366 0.3387
H12_12 H 0.9910 0.6862 0.4038
C13_12 C 0.9987(4) 0.6952(3) 0.2883(10)
H13_12 H 0.9761 0.6907 0.2715
Mn2_12 Mn 0.961067(18) 0.538972(18) 0.25396(4)
O5_9 O 0.95214(9) 0.58063(9) 0.2136(2)
O7_14 O 0.96458(8) 0.49714(8) 0.30712(19)
N4_12 N 0.92677(9) 0.54440(9) 0.3301(2)
N6_9 N 0.92693(12) 0.51247(12) 0.1700(3)
C17_9 C 0.92834(12) 0.60152(12) 0.2317(3)
C18_9 C 0.92560(15) 0.62994(15) 0.1855(4)
H23_9 H 0.9406 0.6332 0.1439
C19_9 C 0.90197(16) 0.65278(15) 0.1988(4)
H24_9 H 0.9012 0.6720 0.1676
C20_12 C 0.87896(16) 0.64847(14) 0.2570(4)
H25_12 H 0.8618 0.6640 0.2647
C21_12 C 0.88150(13) 0.62081(12) 0.3042(3)
H26_12 H 0.8663 0.6179 0.3456
C22_12 C 0.90567(12) 0.59731(12) 0.2922(3)
C23_12 C 0.90550(10) 0.56834(11) 0.3450(3)
C24_14 C 0.94282(12) 0.49360(12) 0.3609(3)
C25_14 C 0.94058(15) 0.46032(12) 0.3993(3)
H27_14 H 0.9628 0.4532 0.4156
H28_14 H 0.9267 0.4620 0.4465
C26_14 C 0.92580(18) 0.43453(15) 0.3440(5)
H29_14 H 0.9282 0.4124 0.3673
H30_14 H 0.9381 0.4348 0.2943
C27_14 C 0.8893(2) 0.44108(19) 0.3275(5)
H31_14 H 0.8871 0.4629 0.3025
H32_14 H 0.8773 0.4419 0.3775
C28_14 C 0.8735(3) 0.4152(2) 0.2755(7)
H33_14 H 0.8773 0.3932 0.2981
H34_11 H 0.8842 0.4158 0.2238
C29_14 C 0.8383(3) 0.4202(4) 0.2657(11)
H35_14 H 0.8316 0.4402 0.2930
H36_11 H 0.8331 0.4223 0.2103
H37_14 H 0.8264 0.4013 0.2873
C30_9 C 0.89658(15) 0.52233(18) 0.1519(4)
H38_9 H 0.8894 0.5433 0.1690
C31_9 C 0.87552(18) 0.5033(2) 0.1096(5)
H39_9 H 0.8546 0.5118 0.0962
C32_11 C 0.93581(18) 0.48315(18) 0.1451(4)
H40_11 H 0.9575 0.4757 0.1559
C33_11 C 0.9147(2) 0.4626(2) 0.1036(5)
H41_11 H 0.9220 0.4415 0.0874
C34_11 C 0.8835(2) 0.4728(3) 0.0864(6)
C35_11 C 0.8599(3) 0.4507(3) 0.0415(9)
H42_11 H 0.8373 0.4541 0.0612
H43_11 H 0.8659 0.4274 0.0506
C48_11 C 0.9870(5) 0.3910(7) 0.1768(18)
H56_11 H 0.9749 0.4109 0.1619
H57_11 H 0.9750 0.3795 0.2180
H58_11 H 0.9892 0.3766 0.1316
O1_10 O 0.73632(10) 0.84564(9) 0.9919(2)
O2_10 O 0.72379(9) 0.74587(9) 0.92844(18)
O4_10 O 0.66383(11) 0.84033(9) 0.9961(2)
N3_10 N 0.61007(15) 0.85097(17) 0.9822(5)
C1_10 C 0.74994(14) 0.83190(15) 0.9288(4)
C2_12 C 0.77111(19) 0.85163(18) 0.8843(4)
H1_12 H 0.7758 0.8735 0.9003
C3_12 C 0.7851(2) 0.8394(2) 0.8174(5)
H2_12 H 0.7996 0.8528 0.7879
C4_12 C 0.7785(2) 0.8083(2) 0.7933(4)
H3_11 H 0.7872 0.8007 0.7453
C5_12 C 0.75915(18) 0.78765(16) 0.8377(4)
H4_12 H 0.7556 0.7656 0.8215
C6_10 C 0.74469(13) 0.79909(14) 0.9066(3)
C7_10 C 0.72627(12) 0.77516(13) 0.9522(3)
H15_10 H 0.5623 0.7641 0.9982
C16_10 C 0.6117(3) 0.8647(3) 0.9072(7)
H20_10 H 0.5955 0.8541 0.8735
H21_10 H 0.6070 0.8883 0.9101
H22_10 H 0.6338 0.8614 0.8857
O5_10 O 0.66937(9) 0.70214(9) 0.9636(2)
N6_10 N 0.73753(12) 0.67693(12) 0.9200(3)
C17_10 C 0.64848(12) 0.67834(12) 0.9817(3)
C18_10 C 0.62006(15) 0.67560(15) 0.9355(4)
H23_10 H 0.6168 0.6906 0.8939
C19_10 C 0.59722(15) 0.65197(16) 0.9488(4)
H24_10 H 0.5780 0.6512 0.9176
H34_12 H 0.8342 0.6342 0.9738
H36_12 H 0.8277 0.5831 0.9603
C30_10 C 0.72767(18) 0.64658(15) 0.9019(4)
H38_10 H 0.7067 0.6394 0.9190
C31_10 C 0.7467(2) 0.62552(18) 0.8596(5)
H39_10 H 0.7382 0.6046 0.8462
C32_12 C 0.76685(18) 0.68581(18) 0.8951(4)
H40_12 H 0.7743 0.7075 0.9059
C33_12 C 0.7874(2) 0.6647(2) 0.8536(5)
H41_12 H 0.8085 0.6720 0.8374
C34_12 C 0.7772(3) 0.6335(2) 0.8364(6)
C35_12 C 0.7993(3) 0.6099(3) 0.7915(9)
H42_12 H 0.7959 0.5873 0.8112
H43_12 H 0.8226 0.6159 0.8006
H53_12 H 0.8089 0.7541 0.9986
C47_12 C 0.8486(6) 0.7737(5) 0.9588(12)
H54_12 H 0.8681 0.7862 0.9768
H55_12 H 0.8372 0.7866 0.9181
C48_12 C 0.8590(7) 0.7370(5) 0.9268(18)
H56_12 H 0.8391 0.7249 0.9119
H57_12 H 0.8705 0.7250 0.9680
H58_12 H 0.8734 0.7392 0.8816
C49_14 C 0.8581(2) 0.55360(19) 0.6350(4)
H59_14 H 0.8756 0.5400 0.6527
C50_14 C 0.8389(3) 0.5690(3) 0.6888(5)
H60_14 H 0.8420 0.5653 0.7428
C51_14 C 0.82918(13) 0.57641(15) 0.5357(3)
H61_12 H 0.8256 0.5791 0.4814
C52_14 C 0.80949(19) 0.59283(19) 0.5836(4)
H62_14 H 0.7922 0.6061 0.5637
C53_14 C 0.8144(3) 0.5904(3) 0.6619(4)
C54_14 C 0.7935(4) 0.6106(4) 0.7201(5)
H63_14 H 0.7704 0.6037 0.7131
H64_14 H 0.7948 0.6339 0.7036
O1_11 O 0.73632(10) 0.34564(9) 0.0081(2)
O2_11 O 0.72379(9) 0.24587(9) 0.07156(18)
O4_11 O 0.66383(11) 0.34033(9) 0.0039(2)
N3_11 N 0.61007(15) 0.35097(17) 0.0178(5)
C1_11 C 0.74994(14) 0.33190(15) 0.0712(4)
C2_13 C 0.77111(19) 0.35163(18) 0.1157(4)
H1_13 H 0.7758 0.3735 0.0997
C3_13 C 0.7851(2) 0.3394(2) 0.1826(5)
H2_13 H 0.7996 0.3528 0.2121
C4_13 C 0.7785(2) 0.3083(2) 0.2067(4)
H3_12 H 0.7872 0.3007 0.2547
C5_13 C 0.75915(18) 0.28765(16) 0.1623(4)
H4_13 H 0.7556 0.2656 0.1785
C6_11 C 0.74469(13) 0.29909(14) 0.0934(3)
C7_11 C 0.72627(12) 0.27516(13) 0.0478(3)
H15_11 H 0.5623 0.2641 0.0018
C16_11 C 0.6117(3) 0.3647(3) 0.0928(7)
H20_11 H 0.5955 0.3541 0.1265
H21_11 H 0.6070 0.3883 0.0899
H22_11 H 0.6338 0.3614 0.1143
O5_11 O 0.66937(9) 0.20214(9) 0.0364(2)
N6_11 N 0.73753(12) 0.17693(12) 0.0800(3)
C17_11 C 0.64848(12) 0.17834(12) 0.0183(3)
C18_11 C 0.62006(15) 0.17560(15) 0.0645(4)
H23_11 H 0.6168 0.1906 0.1061
C19_11 C 0.59722(15) 0.15197(16) 0.0512(4)
H24_11 H 0.5780 0.1512 0.0824
H34_13 H 0.8342 0.1342 0.0262
H36_13 H 0.8277 0.0831 0.0397
C30_11 C 0.72767(18) 0.14658(15) 0.0981(4)
H38_11 H 0.7067 0.1394 0.0810
C31_11 C 0.7467(2) 0.12552(18) 0.1404(5)
H39_11 H 0.7382 0.1046 0.1538
C32_13 C 0.76685(18) 0.18581(18) 0.1049(4)
H40_13 H 0.7743 0.2075 0.0941
C33_13 C 0.7874(2) 0.1647(2) 0.1464(5)
H41_13 H 0.8085 0.1720 0.1626
C34_13 C 0.7772(3) 0.1335(2) 0.1636(6)
C35_13 C 0.7993(3) 0.1099(3) 0.2085(9)
H42_13 H 0.7959 0.0873 0.1888
H43_13 H 0.8226 0.1159 0.1994
N9_8 N 0.85330(11) 0.05669(12) 0.4427(2)
H53_13 H 0.8089 0.2541 0.0014
C47_13 C 0.8486(6) 0.2737(5) 0.0412(12)
H54_13 H 0.8681 0.2862 0.0232
H55_13 H 0.8372 0.2866 0.0819
C48_13 C 0.8590(7) 0.2370(5) 0.0732(18)
H56_13 H 0.8391 0.2249 0.0881
H57_13 H 0.8705 0.2250 0.0320
H58_13 H 0.8734 0.2392 0.1184
C49_15 C 0.8581(2) 0.05360(19) 0.3650(4)
H59_15 H 0.8756 0.0400 0.3473
C50_15 C 0.8389(3) 0.0690(3) 0.3112(5)
H60_15 H 0.8420 0.0653 0.2572
C51_15 C 0.82918(13) 0.07641(15) 0.4643(3)
H61_13 H 0.8256 0.0791 0.5186
C52_15 C 0.80949(19) 0.09283(19) 0.4164(4)
H62_15 H 0.7922 0.1061 0.4363
C53_15 C 0.8144(3) 0.0904(3) 0.3381(4)
C54_15 C 0.7935(4) 0.1106(4) 0.2799(5)
H63_15 H 0.7704 0.1037 0.2869
H64_15 H 0.7948 0.1339 0.2964
Mn5_3 Mn 0.886440(18) 0.029600(17) 0.52729(4)
O2_12 O 0.99587(9) 0.02621(9) 0.82156(18)
C9_13 C 0.99795(13) 0.08608(13) 0.5753(3)
H5_13 H 0.9751 0.0835 0.5942
H6_13 H 0.9993 0.0760 0.5230
H7_13 H 0.9926 0.1323 0.5276
C11_13 C 0.9998(2) 0.14053(19) 0.6447(6)
H10_13 H 0.9768 0.1366 0.6613
H12_13 H 0.9910 0.1862 0.5962
C13_13 C 0.9987(4) 0.1952(3) 0.7117(10)
H13_13 H 0.9761 0.1907 0.7285
Mn2_13 Mn 0.961067(18) 0.038972(18) 0.74604(4)
O5_12 O 0.95214(9) 0.08063(9) 0.7864(2)
O6_7 O 0.88446(8) 0.06736(8) 0.59986(19)
N4_13 N 0.92677(9) 0.04440(9) 0.6699(2)
N5_7 N 0.92211(10) 0.01654(10) 0.6206(2)
N6_12 N 0.92693(12) 0.01247(12) 0.8300(3)
C17_12 C 0.92834(12) 0.10152(12) 0.7683(3)
C18_12 C 0.92560(15) 0.12994(15) 0.8145(4)
H23_12 H 0.9406 0.1332 0.8561
C19_12 C 0.90197(16) 0.15278(15) 0.8012(4)
H24_12 H 0.9012 0.1720 0.8324
C20_13 C 0.87896(16) 0.14847(14) 0.7430(4)
H25_13 H 0.8618 0.1640 0.7353
C21_13 C 0.88150(13) 0.12081(12) 0.6958(3)
H26_13 H 0.8663 0.1179 0.6544
C22_13 C 0.90567(12) 0.09731(12) 0.7078(3)
C23_13 C 0.90550(10) 0.06834(11) 0.6550(3)
C30_12 C 0.89658(15) 0.02233(18) 0.8481(4)
H38_12 H 0.8894 0.0433 0.8310
C31_12 C 0.87552(18) 0.0033(2) 0.8904(5)
H39_12 H 0.8546 0.0118 0.9038
C2_14 C 0.89837(18) 0.02111(19) 0.1343(4)
H1_14 H 0.8765 0.0258 0.1503
C3_14 C 0.9106(2) 0.0351(2) 0.0674(5)
H2_14 H 0.8972 0.0496 0.0379
C4_14 C 0.9417(2) 0.0285(2) 0.0433(4)
C5_14 C 0.96235(16) 0.00915(18) 0.0877(4)
H4_14 H 0.9844 0.0056 0.0715
O8_13 O 0.85070(8) 0.00766(9) 0.5700(2)
O10_15 O 0.92404(8) 0.04704(8) 0.4714(2)
C43_15 C 0.93468(13) 0.02677(12) 0.4200(3)
C44_15 C 0.96403(15) 0.03748(14) 0.3736(4)
H48_15 H 0.9730 0.0184 0.3447
H49_15 H 0.9813 0.0456 0.4092
C45_15 C 0.9545(2) 0.0654(2) 0.3146(6)
H50_15 H 0.9379 0.0568 0.2778
H51_15 H 0.9444 0.0838 0.3435
C46_15 C 0.9836(3) 0.0780(4) 0.2694(8)
H52_15 H 0.9984 0.0897 0.3057
H53_14 H 0.9959 0.0589 0.2486
C47_14 C 0.9763(5) 0.0986(6) 0.2088(12)
H54_14 H 0.9638 0.1181 0.2268
H55_14 H 0.9634 0.0872 0.1681
Mn3_7 Mn 0.386440(18) 0.029600(17) 0.97271(4)
O8_14 O 0.35070(8) 0.00766(9) 0.9300(2)
O11_7 O 0.38446(8) 0.06736(8) 0.90014(19)
N10_7 N 0.42211(10) 0.01654(10) 0.8794(2)
Mn1_13 Mn 0.577670(18) 0.041717(18) 0.81636(5)
O1_12 O 0.59564(9) 0.01368(10) 0.7419(2)
O2_13 O 0.49587(9) 0.02621(9) 0.67844(18)
O3_13 O 0.55186(8) 0.06878(8) 0.8869(2)
O4_12 O 0.59033(9) 0.08617(11) 0.7461(2)
N1_13 N 0.53499(9) 0.03733(10) 0.7687(2)
N2_13 N 0.50903(9) 0.05321(10) 0.8098(2)
N3_12 N 0.60097(17) 0.13993(15) 0.7322(5)
C1_12 C 0.58190(15) 0.00006(14) 0.6788(4)
C6_12 C 0.54909(14) 0.00531(13) 0.6566(3)
C7_12 C 0.52516(13) 0.02373(12) 0.7022(3)
C8_13 C 0.52076(12) 0.06855(12) 0.8710(3)
C9_14 C 0.49795(13) 0.08608(13) 0.9247(3)
H5_14 H 0.4751 0.0835 0.9058
H6_14 H 0.4993 0.0760 0.9770
C10_13 C 0.50604(16) 0.12232(17) 0.9307(5)
H7_14 H 0.4926 0.1323 0.9724
H8_13 H 0.5295 0.1248 0.9452
C11_14 C 0.4998(2) 0.14053(19) 0.8553(6)
H9_13 H 0.5144 0.1316 0.8145
H10_14 H 0.4768 0.1366 0.8387
C12_13 C 0.5054(3) 0.1773(2) 0.8625(9)
H11_13 H 0.5285 0.1813 0.8782
H12_14 H 0.4910 0.1862 0.9038
C13_14 C 0.4987(4) 0.1952(3) 0.7883(10)
H13_14 H 0.4761 0.1907 0.7715
H14_13 H 0.5015 0.2189 0.7965
H15_12 H 0.5141 0.1877 0.7482
C14_13 C 0.59060(17) 0.11381(18) 0.7729(5)
H16_13 H 0.5832 0.1170 0.8247
C15_13 C 0.6028(3) 0.1711(2) 0.7717(8)
H17_13 H 0.5990 0.1679 0.8274
H18_13 H 0.6247 0.1807 0.7638
H19_13 H 0.5861 0.1860 0.7507
C16_12 C 0.6147(3) 0.1383(3) 0.6572(7)
H20_12 H 0.6041 0.1545 0.6235
H21_12 H 0.6383 0.1430 0.6601
H22_12 H 0.6114 0.1162 0.6357
Mn2_14 Mn 0.461067(18) 0.038972(18) 0.75396(4)
O5_13 O 0.45214(9) 0.08063(9) 0.7136(2)
N4_14 N 0.42677(9) 0.04440(9) 0.8301(2)
N6_13 N 0.42693(12) 0.01247(12) 0.6700(3)
C17_13 C 0.42834(12) 0.10152(12) 0.7317(3)
C18_13 C 0.42560(15) 0.12994(15) 0.6855(4)
H23_13 H 0.4406 0.1332 0.6439
C19_13 C 0.40197(16) 0.15278(15) 0.6988(4)
H24_13 H 0.4012 0.1720 0.6676
C20_14 C 0.37896(16) 0.14847(14) 0.7570(4)
H25_14 H 0.3618 0.1640 0.7647
C21_14 C 0.38150(13) 0.12081(12) 0.8042(3)
H26_14 H 0.3663 0.1179 0.8456
C22_14 C 0.40567(12) 0.09731(12) 0.7922(3)
C23_14 C 0.40550(10) 0.06834(11) 0.8450(3)
C30_13 C 0.39658(15) 0.02233(18) 0.6519(4)
H38_13 H 0.3894 0.0433 0.6690
C31_13 C 0.37552(18) 0.0033(2) 0.6096(5)
H39_13 H 0.3546 0.0118 0.5962
O9_13 O 0.61910(8) 0.04896(8) 0.8730(2)
N7_13 N 0.60698(9) 0.00555(9) 0.9526(2)
N8_13 N 0.57887(9) 0.00113(9) 0.9049(2)
C39_13 C 0.70757(13) 0.06767(14) 0.9846(3)
H46_13 H 0.7213 0.0849 0.9663
C40_13 C 0.67818(12) 0.06100(12) 0.9486(3)
H47_13 H 0.6717 0.0739 0.9053
C41_13 C 0.65735(12) 0.03563(12) 0.9740(3)
C42_13 C 0.62617(12) 0.03015(12) 0.9306(3)
H61_14 H 0.3256 0.0791 0.9814
Mn1_14 Mn 0.422330(18) 0.958283(18) 0.18364(5)
O1_13 O 0.40436(9) 0.98632(10) 0.2581(2)
O2_14 O 0.50413(9) 0.97379(9) 0.32156(18)
O3_14 O 0.44814(8) 0.93122(8) 0.1131(2)
O4_13 O 0.40967(9) 0.91383(11) 0.2539(2)
N1_14 N 0.46501(9) 0.96267(10) 0.2313(2)
N2_14 N 0.49097(9) 0.94679(10) 0.1902(2)
N3_13 N 0.39903(17) 0.86007(15) 0.2678(5)
C1_13 C 0.41810(15) 0.99994(14) 0.3212(4)
C6_13 C 0.45091(14) 0.99469(13) 0.3434(3)
C7_13 C 0.47484(13) 0.97627(12) 0.2978(3)
C8_14 C 0.47924(12) 0.93145(12) 0.1290(3)
C9_15 C 0.50205(13) 0.91392(13) 0.0753(3)
H5_15 H 0.5249 0.9165 0.0942
H6_15 H 0.5007 0.9240 0.0230
C10_14 C 0.49396(16) 0.87768(17) 0.0693(5)
H7_15 H 0.5074 0.8677 0.0276
H8_14 H 0.4705 0.8752 0.0548
C11_15 C 0.5002(2) 0.85947(19) 0.1447(6)
H9_14 H 0.4856 0.8684 0.1855
H10_15 H 0.5232 0.8634 0.1613
C12_14 C 0.4946(3) 0.8227(2) 0.1375(9)
H11_14 H 0.4715 0.8187 0.1218
H12_15 H 0.5090 0.8138 0.0962
C13_15 C 0.5013(4) 0.8048(3) 0.2117(10)
H13_15 H 0.5239 0.8093 0.2285
H14_14 H 0.4985 0.7811 0.2035
H15_13 H 0.4859 0.8123 0.2518
C14_14 C 0.40940(17) 0.88619(18) 0.2271(5)
H16_14 H 0.4168 0.8830 0.1753
C15_14 C 0.3972(3) 0.8289(2) 0.2283(8)
H17_14 H 0.4010 0.8321 0.1726
H18_14 H 0.3753 0.8193 0.2362
H19_14 H 0.4139 0.8140 0.2493
C16_13 C 0.3853(3) 0.8617(3) 0.3428(7)
H20_13 H 0.3959 0.8455 0.3765
H21_13 H 0.3617 0.8570 0.3399
H22_13 H 0.3886 0.8838 0.3643
Mn2_15 Mn 0.538933(18) 0.961028(18) 0.24604(4)
O5_14 O 0.54786(9) 0.91937(9) 0.2864(2)
O6_8 O 0.61554(8) 0.93264(8) 0.09986(19)
N4_15 N 0.57323(9) 0.95560(9) 0.1699(2)
N5_8 N 0.57789(10) 0.98346(10) 0.1206(2)
N6_14 N 0.57307(12) 0.98753(12) 0.3300(3)
C17_14 C 0.57166(12) 0.89848(12) 0.2683(3)
C18_14 C 0.57440(15) 0.87006(15) 0.3145(4)
H23_14 H 0.5594 0.8668 0.3561
C19_14 C 0.59803(16) 0.84722(15) 0.3012(4)
H24_14 H 0.5988 0.8280 0.3324
C20_15 C 0.62104(16) 0.85153(14) 0.2430(4)
H25_15 H 0.6382 0.8360 0.2353
C21_15 C 0.61850(13) 0.87919(12) 0.1958(3)
H26_15 H 0.6337 0.8821 0.1544
C22_15 C 0.59433(12) 0.90269(12) 0.2078(3)
C23_15 C 0.59450(10) 0.93166(11) 0.1550(3)
C30_14 C 0.60342(15) 0.97767(18) 0.3481(4)
H38_14 H 0.6106 0.9567 0.3310
C31_14 C 0.62448(18) 0.9967(2) 0.3904(5)
H39_14 H 0.6454 0.9882 0.4038
O9_14 O 0.38090(8) 0.95104(8) 0.1270(2)
N7_14 N 0.39302(9) 0.99445(9) 0.0474(2)
N8_14 N 0.42113(9) 0.99887(9) 0.0951(2)
C39_14 C 0.29243(13) 0.93233(14) 0.0154(3)
H46_14 H 0.2787 0.9151 0.0337
C40_14 C 0.32182(12) 0.93900(12) 0.0514(3)
H47_14 H 0.3283 0.9261 0.0947
C41_14 C 0.34265(12) 0.96437(12) 0.0260(3)
C42_14 C 0.37383(12) 0.96985(12) 0.0694(3)
Mn4_5 Mn 0.613560(18) 0.970400(17) 0.02729(4)
H61_15 H 0.6744 0.9209 0.0186
O8_15 O 0.64930(8) 0.99234(9) 0.0700(2)
C36_13 C 0.33341(13) 0.98333(13) 0.9604(3)
C37_13 C 0.30330(14) 0.97606(15) 0.9249(3)
H44_13 H 0.2965 0.9885 0.8809
C38_13 C 0.28309(15) 0.95115(17) 0.9522(4)
H45_13 H 0.2627 0.9470 0.9273
Mn1_15 Mn 0.077670(18) 0.041717(18) 0.68364(5)
O1_14 O 0.09564(9) 0.01368(10) 0.7581(2)
O3_15 O 0.05186(8) 0.06878(8) 0.6131(2)
O4_14 O 0.09033(9) 0.08617(11) 0.7539(2)
N1_15 N 0.03499(9) 0.03733(10) 0.7313(2)
N2_15 N 0.00903(9) 0.05321(10) 0.6902(2)
N3_14 N 0.10097(17) 0.13993(15) 0.7678(5)
C1_14 C 0.08190(15) 0.00006(14) 0.8212(4)
C6_14 C 0.04909(14) 0.00531(13) 0.8434(3)
C7_14 C 0.02516(13) 0.02373(12) 0.7978(3)
C8_15 C 0.02076(12) 0.06855(12) 0.6290(3)
C10_15 C 0.00604(16) 0.12232(17) 0.5693(5)
H8_15 H 0.0295 0.1248 0.5548
H9_15 H 0.0144 0.1316 0.6855
C12_15 C 0.0054(3) 0.1773(2) 0.6375(9)
H11_15 H 0.0285 0.1813 0.6218
H14_15 H 0.0015 0.2189 0.7035
H15_14 H 0.0141 0.1877 0.7518
C14_15 C 0.09060(17) 0.11381(18) 0.7271(5)
H16_15 H 0.0832 0.1170 0.6753
C15_15 C 0.1028(3) 0.1711(2) 0.7283(8)
H17_15 H 0.0990 0.1679 0.6726
H18_15 H 0.1247 0.1807 0.7362
H19_15 H 0.0861 0.1860 0.7493
C16_14 C 0.1147(3) 0.1383(3) 0.8428(7)
H20_14 H 0.1041 0.1545 0.8765
H21_14 H 0.1383 0.1430 0.8399
H22_14 H 0.1114 0.1162 0.8643
O9_15 O 0.11910(8) 0.04896(8) 0.6270(2)
N7_15 N 0.10698(9) 0.00555(9) 0.5474(2)
N8_15 N 0.07887(9) 0.00113(9) 0.5951(2)
C36_14 C 0.16659(13) 0.01667(13) 0.4604(3)
C37_14 C 0.19670(14) 0.02394(15) 0.4249(3)
H44_14 H 0.2035 0.0115 0.3809
C38_14 C 0.21691(15) 0.04885(17) 0.4522(4)
H45_14 H 0.2373 0.0530 0.4273
C39_15 C 0.20757(13) 0.06767(14) 0.5154(3)
H46_15 H 0.2213 0.0849 0.5337
C40_15 C 0.17818(12) 0.06100(12) 0.5514(3)
H47_15 H 0.1717 0.0739 0.5947
C41_15 C 0.15735(12) 0.03563(12) 0.5260(3)
C42_15 C 0.12617(12) 0.03015(12) 0.5694(3)
H3_13 H 0.0507 0.9628 0.0047
C2_15 C 0.10163(18) 0.97889(19) 0.8657(4)
H1_15 H 0.1235 0.9742 0.8497
C3_15 C 0.0894(2) 0.9649(2) 0.9326(5)
H2_15 H 0.1028 0.9504 0.9621
C4_15 C 0.0583(2) 0.9715(2) 0.9567(4)
C5_15 C 0.03765(16) 0.99085(18) 0.9123(4)
H4_15 H 0.0156 0.9944 0.9285
Mn3_8 Mn 0.113560(18) 0.970400(17) 0.47271(4)
O8_16 O 0.14930(8) 0.99234(9) 0.4300(2)
O10_16 O 0.07596(8) 0.95296(8) 0.5286(2)
C43_16 C 0.06532(13) 0.97323(12) 0.5800(3)
C44_16 C 0.03597(15) 0.96252(14) 0.6264(4)
H48_16 H 0.0270 0.9816 0.6553
H49_16 H 0.0187 0.9544 0.5908
C45_16 C 0.0455(2) 0.9346(2) 0.6854(6)
H50_16 H 0.0621 0.9432 0.7222
H51_16 H 0.0556 0.9162 0.6565
C46_16 C 0.0164(3) 0.9220(4) 0.7306(8)
H52_16 H 0.0016 0.9103 0.6943
H53_15 H 0.0041 0.9411 0.7514
C47_15 C 0.0237(5) 0.9014(6) 0.7912(12)
H54_15 H 0.0362 0.8819 0.7732
H55_15 H 0.0366 0.9128 0.8319
O11_8 O 0.11554(8) 0.93264(8) 0.40014(19)
N10_8 N 0.07789(10) 0.98346(10) 0.3794(2)
N11_8 N 0.14670(11) 0.94331(12) 0.5573(2)
O1_15 O 0.26368(10) 0.65436(9) 0.9919(2)
O2_15 O 0.27621(9) 0.75413(9) 0.92844(18)
O4_15 O 0.33617(11) 0.65967(9) 0.9961(2)
N3_15 N 0.38993(15) 0.64903(17) 0.9822(5)
C1_15 C 0.25006(14) 0.66810(15) 0.9288(4)
C2_16 C 0.22889(19) 0.64837(18) 0.8843(4)
H1_16 H 0.2242 0.6265 0.9003
C3_16 C 0.2149(2) 0.6606(2) 0.8174(5)
H2_16 H 0.2004 0.6472 0.7879
C4_16 C 0.2215(2) 0.6917(2) 0.7933(4)
H3_14 H 0.2128 0.6993 0.7453
C5_16 C 0.24085(18) 0.71235(16) 0.8377(4)
H4_16 H 0.2444 0.7344 0.8215
C6_15 C 0.25531(13) 0.70091(14) 0.9066(3)
C7_15 C 0.27373(12) 0.72484(13) 0.9522(3)
H15_15 H 0.4377 0.7359 0.9982
C16_15 C 0.3883(3) 0.6353(3) 0.9072(7)
H20_15 H 0.4045 0.6459 0.8735
H21_15 H 0.3930 0.6117 0.9101
H22_15 H 0.3662 0.6386 0.8857
O5_15 O 0.33063(9) 0.79786(9) 0.9636(2)
N6_15 N 0.26247(12) 0.82307(12) 0.9200(3)
C17_15 C 0.35152(12) 0.82166(12) 0.9817(3)
C18_15 C 0.37994(15) 0.82440(15) 0.9355(4)
H23_15 H 0.3832 0.8094 0.8939
C19_15 C 0.40278(15) 0.84803(16) 0.9488(4)
H24_15 H 0.4220 0.8488 0.9176
H34_14 H 0.1658 0.8658 0.9738
H36_14 H 0.1723 0.9169 0.9603
C30_15 C 0.27233(18) 0.85342(15) 0.9019(4)
H38_15 H 0.2933 0.8606 0.9190
C31_15 C 0.2533(2) 0.87448(18) 0.8596(5)
H39_15 H 0.2618 0.8954 0.8462
C32_14 C 0.23315(18) 0.81419(18) 0.8951(4)
H40_14 H 0.2257 0.7925 0.9059
C33_14 C 0.2126(2) 0.8353(2) 0.8536(5)
H41_14 H 0.1915 0.8280 0.8374
C34_14 C 0.2228(3) 0.8665(2) 0.8364(6)
C35_14 C 0.2007(3) 0.8901(3) 0.7915(9)
H42_14 H 0.2041 0.9127 0.8112
H43_14 H 0.1774 0.8841 0.8006
H53_16 H 0.1911 0.7459 0.9986
C47_16 C 0.1514(6) 0.7263(5) 0.9588(12)
H54_16 H 0.1319 0.7138 0.9768
H55_16 H 0.1628 0.7134 0.9181
C48_14 C 0.1410(7) 0.7630(5) 0.9268(18)
H56_14 H 0.1609 0.7751 0.9119
H57_14 H 0.1295 0.7750 0.9680
H58_14 H 0.1266 0.7608 0.8816
C49_16 C 0.1419(2) 0.94640(19) 0.6350(4)
H59_16 H 0.1244 0.9600 0.6527
C50_16 C 0.1611(3) 0.9310(3) 0.6888(5)
H60_16 H 0.1580 0.9347 0.7428
C51_16 C 0.17082(13) 0.92359(15) 0.5357(3)
H61_16 H 0.1744 0.9209 0.4814
C52_16 C 0.19051(19) 0.90717(19) 0.5836(4)
H62_16 H 0.2078 0.8939 0.5637
C53_16 C 0.1856(3) 0.9096(3) 0.6619(4)
C54_16 C 0.2065(4) 0.8894(4) 0.7201(5)
H63_16 H 0.2296 0.8963 0.7131
H64_16 H 0.2052 0.8661 0.7036
O2_16 O 0.00413(9) 0.97379(9) 0.17844(18)
C9_16 C 0.00205(13) 0.91392(13) 0.4247(3)
H5_16 H 0.0249 0.9165 0.4058
H6_16 H 0.0007 0.9240 0.4770
H7_16 H 0.0074 0.8677 0.4724
C11_16 C 0.0002(2) 0.85947(19) 0.3553(6)
H10_16 H 0.0232 0.8634 0.3387
H12_16 H 0.0090 0.8138 0.4038
C13_16 C 0.0013(4) 0.8048(3) 0.2883(10)
H13_16 H 0.0239 0.8093 0.2715
Mn2_16 Mn 0.038933(18) 0.961028(18) 0.25396(4)
O5_16 O 0.04786(9) 0.91937(9) 0.2136(2)
N4_16 N 0.07323(9) 0.95560(9) 0.3301(2)
N6_16 N 0.07307(12) 0.98753(12) 0.1700(3)
C17_16 C 0.07166(12) 0.89848(12) 0.2317(3)
C18_16 C 0.07440(15) 0.87006(15) 0.1855(4)
H23_16 H 0.0594 0.8668 0.1439
C19_16 C 0.09803(16) 0.84722(15) 0.1988(4)
H24_16 H 0.0988 0.8280 0.1676
C20_16 C 0.12104(16) 0.85153(14) 0.2570(4)
H25_16 H 0.1382 0.8360 0.2647
C21_16 C 0.11850(13) 0.87919(12) 0.3042(3)
H26_16 H 0.1337 0.8821 0.3456
C22_16 C 0.09433(12) 0.90269(12) 0.2922(3)
C23_16 C 0.09450(10) 0.93166(11) 0.3450(3)
C30_16 C 0.10342(15) 0.97767(18) 0.1519(4)
H38_16 H 0.1106 0.9567 0.1690
C31_16 C 0.12448(18) 0.9967(2) 0.1096(5)
H39_16 H 0.1454 0.9882 0.0962
O7_15 O 0.96458(8) 0.99714(8) 0.69288(19)
C24_15 C 0.94282(12) 0.99360(12) 0.6391(3)
C25_15 C 0.94058(15) 0.96032(12) 0.6007(3)
H27_15 H 0.9628 0.9532 0.5844
H28_15 H 0.9267 0.9620 0.5535
C26_15 C 0.92580(18) 0.93453(15) 0.6560(5)
H29_15 H 0.9282 0.9124 0.6327
H30_15 H 0.9381 0.9348 0.7057
C27_15 C 0.8893(2) 0.94108(19) 0.6725(5)
H31_15 H 0.8871 0.9629 0.6975
H32_15 H 0.8773 0.9419 0.6225
C28_15 C 0.8735(3) 0.9152(2) 0.7245(7)
H33_15 H 0.8773 0.8932 0.7019
H34_15 H 0.8842 0.9158 0.7762
C29_15 C 0.8383(3) 0.9202(4) 0.7343(11)
H35_15 H 0.8316 0.9402 0.7070
H36_15 H 0.8331 0.9223 0.7897
H37_15 H 0.8264 0.9013 0.7127
C32_15 C 0.93581(18) 0.98315(18) 0.8549(4)
H40_15 H 0.9575 0.9757 0.8441
C33_15 C 0.9147(2) 0.9626(2) 0.8964(5)
H41_15 H 0.9220 0.9415 0.9126
C34_15 C 0.8835(2) 0.9728(3) 0.9136(6)
C35_15 C 0.8599(3) 0.9507(3) 0.9585(9)
H42_15 H 0.8373 0.9541 0.9388
H43_15 H 0.8659 0.9274 0.9494
C48_15 C 0.9870(5) 0.8910(7) 0.8232(18)
H56_15 H 0.9749 0.9109 0.8381
H57_15 H 0.9750 0.8795 0.7820
H58_15 H 0.9892 0.8766 0.8684
H3_15 H 0.0507 0.4628 0.9953
C36_15 C 0.66659(13) 0.01667(13) 0.0396(3)
C37_15 C 0.69670(14) 0.02394(15) 0.0751(3)
H44_15 H 0.7035 0.0115 0.1191
C38_15 C 0.71691(15) 0.04885(17) 0.0478(4)
H45_15 H 0.7373 0.0530 0.0727
O7_16 O 0.03542(8) 0.00286(8) 0.30712(19)
C24_16 C 0.05718(12) 0.00640(12) 0.3609(3)
C25_16 C 0.05942(15) 0.03968(12) 0.3993(3)
H27_16 H 0.0372 0.0468 0.4156
H28_16 H 0.0733 0.0380 0.4465
C26_16 C 0.07420(18) 0.06547(15) 0.3440(5)
H29_16 H 0.0718 0.0876 0.3673
H30_16 H 0.0619 0.0652 0.2943
C27_16 C 0.1107(2) 0.05892(19) 0.3275(5)
H31_16 H 0.1129 0.0371 0.3025
H32_16 H 0.1227 0.0581 0.3775
C28_16 C 0.1265(3) 0.0848(2) 0.2755(7)
H33_16 H 0.1227 0.1068 0.2981
H34_16 H 0.1158 0.0842 0.2238
C29_16 C 0.1617(3) 0.0798(4) 0.2657(11)
H35_16 H 0.1684 0.0598 0.2930
H36_16 H 0.1669 0.0777 0.2103
H37_16 H 0.1736 0.0987 0.2873
C32_16 C 0.06419(18) 0.01685(18) 0.1451(4)
H40_16 H 0.0425 0.0243 0.1559
C33_16 C 0.0853(2) 0.0374(2) 0.1036(5)
H41_16 H 0.0780 0.0585 0.0874
C34_16 C 0.1165(2) 0.0272(3) 0.0864(6)
C35_16 C 0.1401(3) 0.0493(3) 0.0415(9)
H42_16 H 0.1627 0.0459 0.0612
H43_16 H 0.1341 0.0726 0.0506
C48_16 C 0.0130(5) 0.1090(7) 0.1768(18)
H56_16 H 0.0251 0.0891 0.1619
H57_16 H 0.0250 0.1205 0.2180
H58_16 H 0.0108 0.1234 0.1316
H3_16 H 0.9493 0.0372 0.9953
Mn1_16 Mn 0.922330(18) 0.958283(18) 0.31636(5)
O1_16 O 0.90436(9) 0.98632(10) 0.2419(2)
O3_16 O 0.94814(8) 0.93122(8) 0.3869(2)
O4_16 O 0.90967(9) 0.91383(11) 0.2461(2)
N1_16 N 0.96501(9) 0.96267(10) 0.2687(2)
N2_16 N 0.99097(9) 0.94679(10) 0.3098(2)
N3_16 N 0.89903(17) 0.86007(15) 0.2322(5)
C1_16 C 0.91810(15) 0.99994(14) 0.1788(4)
C6_16 C 0.95091(14) 0.99469(13) 0.1566(3)
C7_16 C 0.97484(13) 0.97627(12) 0.2022(3)
C8_16 C 0.97924(12) 0.93145(12) 0.3710(3)
C10_16 C 0.99396(16) 0.87768(17) 0.4307(5)
H8_16 H 0.9705 0.8752 0.4452
H9_16 H 0.9856 0.8684 0.3145
C12_16 C 0.9946(3) 0.8227(2) 0.3625(9)
H11_16 H 0.9715 0.8187 0.3782
H14_16 H 0.9985 0.7811 0.2965
H15_16 H 0.9859 0.8123 0.2482
C14_16 C 0.90940(17) 0.88619(18) 0.2729(5)
H16_16 H 0.9168 0.8830 0.3247
C15_16 C 0.8972(3) 0.8289(2) 0.2717(8)
H17_16 H 0.9010 0.8321 0.3274
H18_16 H 0.8753 0.8193 0.2638
H19_16 H 0.9139 0.8140 0.2507
C16_16 C 0.8853(3) 0.8617(3) 0.1572(7)
H20_16 H 0.8959 0.8455 0.1235
H21_16 H 0.8617 0.8570 0.1601
H22_16 H 0.8886 0.8838 0.1357
O9_16 O 0.88090(8) 0.95104(8) 0.3730(2)
N7_16 N 0.89302(9) 0.99445(9) 0.4526(2)
N8_16 N 0.92113(9) 0.99887(9) 0.4049(2)
C36_16 C 0.83341(13) 0.98333(13) 0.5396(3)
C37_16 C 0.80330(14) 0.97606(15) 0.5751(3)
H44_16 H 0.7965 0.9885 0.6191
C38_16 C 0.78309(15) 0.95115(17) 0.5478(4)
H45_16 H 0.7627 0.9470 0.5727
C39_16 C 0.79243(13) 0.93233(14) 0.4846(3)
H46_16 H 0.7787 0.9151 0.4663
C40_16 C 0.82182(12) 0.93900(12) 0.4486(3)
H47_16 H 0.8283 0.9261 0.4053
C41_16 C 0.84265(12) 0.96437(12) 0.4740(3)
C42_16 C 0.87383(12) 0.96985(12) 0.4306(3)
loop_
_geom_bond_atom_site_label_1
_geom_bond_atom_site_label_2
_geom_bond_site_symmetry_1
_geom_bond_site_symmetry_2
O3 Mn1 1_555 1_555
N1 Mn1 1_555 1_555
N2 N1 1_555 1_555
C8 O3 1_555 1_555
C9 C8 1_555 1_555
H5 C9 1_555 1_555
H6 C9 1_555 1_555
C10 C9 1_555 1_555
H7 C10 1_555 1_555
H8 C10 1_555 1_555
C11 C10 1_555 1_555
H9 C11 1_555 1_555
H10 C11 1_555 1_555
C12 C11 1_555 1_555
H11 C12 1_555 1_555
H12 C12 1_555 1_555
C13 C12 1_555 1_555
H13 C13 1_555 1_555
H14 C13 1_555 1_555
H16 C14 1_555 1_555
H17 C15 1_555 1_555
H18 C15 1_555 1_555
H19 C15 1_555 1_555
O6 C23 1_555 1_555
O7 Mn2 1_555 1_555
N4 Mn2 1_555 1_555
N5 N4 1_555 1_555
H25 C20 1_555 1_555
C21 C20 1_555 1_555
H26 C21 1_555 1_555
C23 N4 1_555 1_555
C24 O7 1_555 1_555
C25 C24 1_555 1_555
H27 C25 1_555 1_555
H28 C25 1_555 1_555
C26 C25 1_555 1_555
H29 C26 1_555 1_555
H30 C26 1_555 1_555
C27 C26 1_555 1_555
H31 C27 1_555 1_555
H32 C27 1_555 1_555
C28 C27 1_555 1_555
H33 C28 1_555 1_555
C29 C28 1_555 1_555
H35 C29 1_555 1_555
H37 C29 1_555 1_555
Mn3 O8 1_555 1_555
O8 C36 1_555 1_555
O9 Mn1 1_555 1_555
O10 Mn3 1_555 1_555
N7 Mn3 1_555 1_555
N8 Mn1 1_555 1_555
C36 C37 1_555 1_555
C37 H44 1_555 1_555
C38 C37 1_555 1_555
H45 C38 1_555 1_555
C39 C38 1_555 1_555
H46 C39 1_555 1_555
C40 C39 1_555 1_555
H47 C40 1_555 1_555
C41 C36 1_555 1_555
C42 O9 1_555 1_555
C43 O10 1_555 1_555
C44 C43 1_555 1_555
H48 C44 1_555 1_555
H49 C44 1_555 1_555
C45 C44 1_555 1_555
H50 C45 1_555 1_555
H51 C45 1_555 1_555
C46 C45 1_555 1_555
H52 C46 1_555 1_555
O11 Mn3 1_555 1_555
N10 Mn3 1_555 1_555
Mn4 O6 1_555 1_555
N11 Mn3 1_555 1_555
N2 C8 1_555 1_555
N2 Mn2 1_555 1_555
N5 C24 1_555 1_555
N5 Mn4 1_555 1_555
C21 C22 1_555 1_555
C22 C23 1_555 1_555
N7 N8 1_555 1_555
N7 C42 1_555 1_555
N8 C43 1_555 1_555
C40 C41 1_555 1_555
C41 C42 1_555 1_555
C2 H1 1_555 1_555
C3 C2 1_555 1_555
H2 C3 1_555 1_555
C4 C3 1_555 1_555
H3 C4 1_555 1_555
C5 C4 1_555 1_555
H4 C5 1_555 1_555
C24_2 O7_2 1_555 1_555
C25_2 C24_2 1_555 1_555
H27_2 C25_2 1_555 1_555
H28_2 C25_2 1_555 1_555
C26_2 C25_2 1_555 1_555
H29_2 C26_2 1_555 1_555
H30_2 C26_2 1_555 1_555
C27_2 C26_2 1_555 1_555
H31_2 C27_2 1_555 1_555
H32_2 C27_2 1_555 1_555
C28_2 C27_2 1_555 1_555
H33_2 C28_2 1_555 1_555
H34 C28_2 1_555 1_555
C29_2 C28_2 1_555 1_555
H35_2 C29_2 1_555 1_555
H36 C29_2 1_555 1_555
H37_2 C29_2 1_555 1_555
H40 C32 1_555 1_555
C33 C32 1_555 1_555
H41 C33 1_555 1_555
C35 C34 1_555 1_555
H42 C35 1_555 1_555
H43 C35 1_555 1_555
N9 C49 1_555 1_555
C43_2 O10_2 1_555 1_555
C44_2 C43_2 1_555 1_555
H48_2 C44_2 1_555 1_555
H49_2 C44_2 1_555 1_555
C45_2 C44_2 1_555 1_555
H50_2 C45_2 1_555 1_555
H51_2 C45_2 1_555 1_555
C46_2 C45_2 1_555 1_555
H52_2 C46_2 1_555 1_555
H53 C46_2 1_555 1_555
C47 C46_2 1_555 1_555
H54 C47 1_555 1_555
H55 C47 1_555 1_555
C48 C47 1_555 1_555
H56 C48 1_555 1_555
H57 C48 1_555 1_555
H58 C48 1_555 1_555
C49 H59 1_555 1_555
C50 C49 1_555 1_555
H60 C50 1_555 1_555
C51 N9 1_555 1_555
H61_2 C51 1_555 1_555
C52 C51 1_555 1_555
H62 C52 1_555 1_555
C53 C50 1_555 1_555
C54 C35 1_555 1_555
H63 C54 1_555 1_555
H64 C54 1_555 1_555
Mn4 N9 1_555 1_555
C33 C34 1_555 1_555
C52 C53 1_555 1_555
C53 C54 1_555 1_555
O3_2 Mn1_2 1_555 1_555
N1_2 Mn1_2 1_555 1_555
N2_2 N1_2 1_555 1_555
C8_2 O3_2 1_555 1_555
C9_2 C8_2 1_555 1_555
H5_2 C9_2 1_555 1_555
H6_2 C9_2 1_555 1_555
C10_2 C9_2 1_555 1_555
H7_2 C10_2 1_555 1_555
H8_2 C10_2 1_555 1_555
C11_2 C10_2 1_555 1_555
H9_2 C11_2 1_555 1_555
H10_2 C11_2 1_555 1_555
C12_2 C11_2 1_555 1_555
H11_2 C12_2 1_555 1_555
H12_2 C12_2 1_555 1_555
C13_2 C12_2 1_555 1_555
H13_2 C13_2 1_555 1_555
H14_2 C13_2 1_555 1_555
H16_2 C14_2 1_555 1_555
H17_2 C15_2 1_555 1_555
H18_2 C15_2 1_555 1_555
H19_2 C15_2 1_555 1_555
O6_2 C23_2 1_555 1_555
O7_3 Mn2_2 1_555 1_555
N4_2 Mn2_2 1_555 1_555
N5_2 N4_2 1_555 1_555
H25_2 C20_2 1_555 1_555
C21_2 C20_2 1_555 1_555
H26_2 C21_2 1_555 1_555
C23_2 N4_2 1_555 1_555
C24_3 O7_3 1_555 1_555
C25_3 C24_3 1_555 1_555
H27_3 C25_3 1_555 1_555
H28_3 C25_3 1_555 1_555
C26_3 C25_3 1_555 1_555
H29_3 C26_3 1_555 1_555
H30_3 C26_3 1_555 1_555
C27_3 C26_3 1_555 1_555
H31_3 C27_3 1_555 1_555
H32_3 C27_3 1_555 1_555
C28_3 C27_3 1_555 1_555
H33_3 C28_3 1_555 1_555
C29_3 C28_3 1_555 1_555
H35_3 C29_3 1_555 1_555
H37_3 C29_3 1_555 1_555
Mn3_2 O8_2 1_555 1_555
O8_2 C36_2 1_555 1_555
O9_2 Mn1_2 1_555 1_555
O10_3 Mn3_2 1_555 1_555
N7_2 Mn3_2 1_555 1_555
N8_2 Mn1_2 1_555 1_555
C36_2 C37_2 1_555 1_555
C37_2 H44_2 1_555 1_555
C38_2 C37_2 1_555 1_555
H45_2 C38_2 1_555 1_555
C39_2 C38_2 1_555 1_555
H46_2 C39_2 1_555 1_555
C40_2 C39_2 1_555 1_555
H47_2 C40_2 1_555 1_555
C41_2 C36_2 1_555 1_555
C42_2 O9_2 1_555 1_555
C43_3 O10_3 1_555 1_555
C44_3 C43_3 1_555 1_555
H48_3 C44_3 1_555 1_555
H49_3 C44_3 1_555 1_555
C45_3 C44_3 1_555 1_555
H50_3 C45_3 1_555 1_555
H51_3 C45_3 1_555 1_555
C46_3 C45_3 1_555 1_555
H52_3 C46_3 1_555 1_555
O11_2 Mn3_2 1_555 1_555
N10_2 Mn3_2 1_555 1_555
Mn4_2 O6_2 1_555 1_555
N11_3 Mn3_2 1_555 1_555
N2_2 C8_2 1_555 1_555
N2_2 Mn2_2 1_555 1_555
N5_2 C24_3 1_555 1_555
N5_2 Mn4_2 1_555 1_555
C21_2 C22_2 1_555 1_555
C22_2 C23_2 1_555 1_555
N7_2 N8_2 1_555 1_555
N7_2 C42_2 1_555 1_555
N8_2 C43_3 1_555 1_555
C40_2 C41_2 1_555 1_555
C41_2 C42_2 1_555 1_555
Mn1_3 O1 1_555 1_555
O1 C1 1_555 1_555
O2 C7 1_555 1_555
O3_3 Mn1_3 1_555 1_555
O4 Mn1_3 1_555 1_555
N1_3 Mn1_3 1_555 1_555
N2_3 N1_3 1_555 1_555
N3 C14_3 1_555 1_555
C1 C2_2 1_555 1_555
C2_2 H1_2 1_555 1_555
C3_2 C2_2 1_555 1_555
H2_2 C3_2 1_555 1_555
C4_2 C3_2 1_555 1_555
H3_2 C4_2 1_555 1_555
C5_2 C4_2 1_555 1_555
H4_2 C5_2 1_555 1_555
C6 C1 1_555 1_555
C7 N1_3 1_555 1_555
C8_3 O3_3 1_555 1_555
C9_3 C8_3 1_555 1_555
H5_3 C9_3 1_555 1_555
H6_3 C9_3 1_555 1_555
C10_3 C9_3 1_555 1_555
H7_3 C10_3 1_555 1_555
H8_3 C10_3 1_555 1_555
C11_3 C10_3 1_555 1_555
H9_3 C11_3 1_555 1_555
H10_3 C11_3 1_555 1_555
C12_3 C11_3 1_555 1_555
H11_3 C12_3 1_555 1_555
H12_3 C12_3 1_555 1_555
C13_3 C12_3 1_555 1_555
H13_3 C13_3 1_555 1_555
H14_3 C13_3 1_555 1_555
H15 C13_3 1_555 1_555
C14_3 O4 1_555 1_555
H16_3 C14_3 1_555 1_555
C15_3 N3 1_555 1_555
H17_3 C15_3 1_555 1_555
H18_3 C15_3 1_555 1_555
H19_3 C15_3 1_555 1_555
C16 N3 1_555 1_555
H20 C16 1_555 1_555
H21 C16 1_555 1_555
H22 C16 1_555 1_555
Mn2_3 O2 1_555 1_555
O5 Mn2_3 1_555 1_555
O6_3 C23_3 1_555 1_555
O7_4 Mn2_3 1_555 1_555
N4_3 Mn2_3 1_555 1_555
N5_3 N4_3 1_555 1_555
N6 Mn2_3 1_555 1_555
C17 O5 1_555 1_555
C18 C17 1_555 1_555
H23 C18 1_555 1_555
C19 C18 1_555 1_555
H24 C19 1_555 1_555
C20_3 C19 1_555 1_555
H25_3 C20_3 1_555 1_555
C21_3 C20_3 1_555 1_555
H26_3 C21_3 1_555 1_555
C22_3 C17 1_555 1_555
C23_3 N4_3 1_555 1_555
C24_4 O7_4 1_555 1_555
C25_4 C24_4 1_555 1_555
H27_4 C25_4 1_555 1_555
H28_4 C25_4 1_555 1_555
C26_4 C25_4 1_555 1_555
H29_4 C26_4 1_555 1_555
H30_4 C26_4 1_555 1_555
C27_4 C26_4 1_555 1_555
H31_4 C27_4 1_555 1_555
H32_4 C27_4 1_555 1_555
C28_4 C27_4 1_555 1_555
H33_4 C28_4 1_555 1_555
H34_2 C28_4 1_555 1_555
C29_4 C28_4 1_555 1_555
H35_4 C29_4 1_555 1_555
H36_2 C29_4 1_555 1_555
H37_4 C29_4 1_555 1_555
C30 N6 1_555 1_555
H38 C30 1_555 1_555
C31 C30 1_555 1_555
H39 C31 1_555 1_555
C32_2 N6 1_555 1_555
H40_2 C32_2 1_555 1_555
C33_2 C32_2 1_555 1_555
H41_2 C33_2 1_555 1_555
C34_2 C31 1_555 1_555
C35_2 C34_2 1_555 1_555
H42_2 C35_2 1_555 1_555
H43_2 C35_2 1_555 1_555
O9_3 Mn1_3 1_555 1_555
N8_3 Mn1_3 1_555 1_555
N9_2 C49_2 1_555 1_555
H46_3 C39_3 1_555 1_555
C40_3 C39_3 1_555 1_555
H47_3 C40_3 1_555 1_555
C42_3 O9_3 1_555 1_555
C43_4 O10_4 1_555 1_555
C44_4 C43_4 1_555 1_555
H48_4 C44_4 1_555 1_555
H49_4 C44_4 1_555 1_555
C45_4 C44_4 1_555 1_555
H50_4 C45_4 1_555 1_555
H51_4 C45_4 1_555 1_555
C46_4 C45_4 1_555 1_555
H52_4 C46_4 1_555 1_555
H53_2 C46_4 1_555 1_555
C47_2 C46_4 1_555 1_555
H54_2 C47_2 1_555 1_555
H55_2 C47_2 1_555 1_555
C48_2 C47_2 1_555 1_555
H56_2 C48_2 1_555 1_555
H57_2 C48_2 1_555 1_555
H58_2 C48_2 1_555 1_555
C49_2 H59_2 1_555 1_555
C50_2 C49_2 1_555 1_555
H60_2 C50_2 1_555 1_555
C51_2 N9_2 1_555 1_555
H61_3 C51_2 1_555 1_555
C52_2 C51_2 1_555 1_555
H62_2 C52_2 1_555 1_555
C53_2 C50_2 1_555 1_555
C54_2 C35_2 1_555 1_555
H63_2 C54_2 1_555 1_555
H64_2 C54_2 1_555 1_555
Mn5 O6_3 1_555 1_555
Mn4_2 N9_2 1_555 1_555
N2_3 C8_3 1_555 1_555
N2_3 Mn2_3 1_555 1_555
C5_2 C6 1_555 1_555
C6 C7 1_555 1_555
N5_3 C24_4 1_555 1_555
N5_3 Mn5 1_555 1_555
C21_3 C22_3 1_555 1_555
C22_3 C23_3 1_555 1_555
C33_2 C34_2 1_555 1_555
N7_3 N8_3 1_555 1_555
N7_3 C42_3 1_555 1_555
N8_3 C43_4 1_555 1_555
C40_3 C41_3 1_555 1_555
C41_3 C42_3 1_555 1_555
C52_2 C53_2 1_555 1_555
C53_2 C54_2 1_555 1_555
Mn1_4 O1_2 1_555 1_555
O1_2 C1_2 1_555 1_555
O2_2 C7_2 1_555 1_555
O3_4 Mn1_4 1_555 1_555
O4_2 Mn1_4 1_555 1_555
N1_4 Mn1_4 1_555 1_555
N2_4 N1_4 1_555 1_555
N3_2 C14_4 1_555 1_555
C1_2 C2_3 1_555 1_555
C2_3 H1_3 1_555 1_555
C3_3 C2_3 1_555 1_555
H2_3 C3_3 1_555 1_555
C4_3 C3_3 1_555 1_555
H3_3 C4_3 1_555 1_555
C5_3 C4_3 1_555 1_555
H4_3 C5_3 1_555 1_555
C6_2 C1_2 1_555 1_555
C7_2 N1_4 1_555 1_555
C8_4 O3_4 1_555 1_555
C9_4 C8_4 1_555 1_555
H5_4 C9_4 1_555 1_555
H6_4 C9_4 1_555 1_555
C10_4 C9_4 1_555 1_555
H7_4 C10_4 1_555 1_555
H8_4 C10_4 1_555 1_555
C11_4 C10_4 1_555 1_555
H9_4 C11_4 1_555 1_555
H10_4 C11_4 1_555 1_555
C12_4 C11_4 1_555 1_555
H11_4 C12_4 1_555 1_555
H12_4 C12_4 1_555 1_555
C13_4 C12_4 1_555 1_555
H13_4 C13_4 1_555 1_555
H14_4 C13_4 1_555 1_555
H15_2 C13_4 1_555 1_555
C14_4 O4_2 1_555 1_555
H16_4 C14_4 1_555 1_555
C15_4 N3_2 1_555 1_555
H17_4 C15_4 1_555 1_555
H18_4 C15_4 1_555 1_555
H19_4 C15_4 1_555 1_555
C16_2 N3_2 1_555 1_555
H20_2 C16_2 1_555 1_555
H21_2 C16_2 1_555 1_555
H22_2 C16_2 1_555 1_555
Mn2_4 O2_2 1_555 1_555
O5_2 Mn2_4 1_555 1_555
O11 C23_4 1_555 1_555
O7_5 Mn2_4 1_555 1_555
N4_4 Mn2_4 1_555 1_555
N10 N4_4 1_555 1_555
N6_2 Mn2_4 1_555 1_555
C17_2 O5_2 1_555 1_555
C18_2 C17_2 1_555 1_555
H23_2 C18_2 1_555 1_555
C19_2 C18_2 1_555 1_555
H24_2 C19_2 1_555 1_555
C20_4 C19_2 1_555 1_555
H25_4 C20_4 1_555 1_555
C21_4 C20_4 1_555 1_555
H26_4 C21_4 1_555 1_555
C22_4 C17_2 1_555 1_555
C23_4 N4_4 1_555 1_555
C24_5 O7_5 1_555 1_555
C25_5 C24_5 1_555 1_555
H27_5 C25_5 1_555 1_555
H28_5 C25_5 1_555 1_555
C26_5 C25_5 1_555 1_555
H29_5 C26_5 1_555 1_555
H30_5 C26_5 1_555 1_555
C27_5 C26_5 1_555 1_555
H31_5 C27_5 1_555 1_555
H32_5 C27_5 1_555 1_555
C28_5 C27_5 1_555 1_555
H33_5 C28_5 1_555 1_555
H34_3 C28_5 1_555 1_555
C29_5 C28_5 1_555 1_555
H35_5 C29_5 1_555 1_555
H36_3 C29_5 1_555 1_555
H37_5 C29_5 1_555 1_555
C30_2 N6_2 1_555 1_555
H38_2 C30_2 1_555 1_555
C31_2 C30_2 1_555 1_555
H39_2 C31_2 1_555 1_555
C32_3 N6_2 1_555 1_555
H40_3 C32_3 1_555 1_555
C33_3 C32_3 1_555 1_555
H41_3 C33_3 1_555 1_555
C34_3 C31_2 1_555 1_555
C35_3 C34_3 1_555 1_555
H42_3 C35_3 1_555 1_555
H43_3 C35_3 1_555 1_555
Mn4 O8_3 1_555 1_555
O8_3 C36_3 1_555 1_555
O9_4 Mn1_4 1_555 1_555
O10_5 Mn4 1_555 1_555
N7_4 Mn4 1_555 1_555
N8_4 Mn1_4 1_555 1_555
N11_4 C49_3 1_555 1_555
C36_3 C37_3 1_555 1_555
C37_3 H44_3 1_555 1_555
C38_3 C37_3 1_555 1_555
H45_3 C38_3 1_555 1_555
C39_4 C38_3 1_555 1_555
H46_4 C39_4 1_555 1_555
C40_4 C39_4 1_555 1_555
H47_4 C40_4 1_555 1_555
C41_4 C36_3 1_555 1_555
C42_4 O9_4 1_555 1_555
C43_5 O10_5 1_555 1_555
C44_5 C43_5 1_555 1_555
H48_5 C44_5 1_555 1_555
H49_5 C44_5 1_555 1_555
C45_5 C44_5 1_555 1_555
H50_5 C45_5 1_555 1_555
H51_5 C45_5 1_555 1_555
C46_5 C45_5 1_555 1_555
H52_5 C46_5 1_555 1_555
H53_3 C46_5 1_555 1_555
C47_3 C46_5 1_555 1_555
H54_3 C47_3 1_555 1_555
H55_3 C47_3 1_555 1_555
C48_3 C47_3 1_555 1_555
H56_3 C48_3 1_555 1_555
H57_3 C48_3 1_555 1_555
H58_3 C48_3 1_555 1_555
C49_3 H59_3 1_555 1_555
C50_3 C49_3 1_555 1_555
H60_3 C50_3 1_555 1_555
C51_3 N11_4 1_555 1_555
C52_3 C51_3 1_555 1_555
H62_3 C52_3 1_555 1_555
C53_3 C50_3 1_555 1_555
C54_3 C35_3 1_555 1_555
H63_3 C54_3 1_555 1_555
H64_3 C54_3 1_555 1_555
N2_4 C8_4 1_555 1_555
N2_4 Mn2_4 1_555 1_555
C5_3 C6_2 1_555 1_555
C6_2 C7_2 1_555 1_555
N10 C24_5 1_555 1_555
C21_4 C22_4 1_555 1_555
C22_4 C23_4 1_555 1_555
C33_3 C34_3 1_555 1_555
N7_4 N8_4 1_555 1_555
N7_4 C42_4 1_555 1_555
N8_4 C43_5 1_555 1_555
C40_4 C41_4 1_555 1_555
C41_4 C42_4 1_555 1_555
C52_3 C53_3 1_555 1_555
C53_3 C54_3 1_555 1_555
N11 C49_4 1_555 1_555
C49_4 H59_4 1_555 1_555
C50_4 C49_4 1_555 1_555
H60_4 C50_4 1_555 1_555
C51_4 N11 1_555 1_555
H61_4 C51_4 1_555 1_555
C52_4 C51_4 1_555 1_555
H62_4 C52_4 1_555 1_555
C53_4 C50_4 1_555 1_555
H63_4 C54_4 1_555 1_555
H64_4 C54_4 1_555 1_555
C52_4 C53_4 1_555 1_555
C53_4 C54_4 1_555 1_555
N11_3 C49_5 1_555 1_555
C49_5 H59_5 1_555 1_555
C50_5 C49_5 1_555 1_555
H60_5 C50_5 1_555 1_555
C51_5 N11_3 1_555 1_555
H61_5 C51_5 1_555 1_555
C52_5 C51_5 1_555 1_555
H62_5 C52_5 1_555 1_555
C53_5 C50_5 1_555 1_555
H63_5 C54_5 1_555 1_555
H64_5 C54_5 1_555 1_555
C52_5 C53_5 1_555 1_555
C53_5 C54_5 1_555 1_555
Mn5 O8_4 1_555 1_555
O8_4 C36_4 1_555 1_555
C36_4 C37_4 1_555 1_555
C37_4 H44_4 1_555 1_555
C38_4 C37_4 1_555 1_555
H45_4 C38_4 1_555 1_555
Mn1_5 O1_3 1_555 1_555
O1_3 C1_3 1_555 1_555
O2_3 C7_3 1_555 1_555
O3_5 Mn1_5 1_555 1_555
O4_3 Mn1_5 1_555 1_555
N1_5 Mn1_5 1_555 1_555
N2_5 N1_5 1_555 1_555
N3_3 C14_5 1_555 1_555
C1_3 C2_4 1_555 1_555
C2_4 H1_4 1_555 1_555
C3_4 C2_4 1_555 1_555
H2_4 C3_4 1_555 1_555
C4_4 C3_4 1_555 1_555
H3_4 C4_4 1_555 1_555
C5_4 C4_4 1_555 1_555
H4_4 C5_4 1_555 1_555
C6_3 C1_3 1_555 1_555
C7_3 N1_5 1_555 1_555
C8_5 O3_5 1_555 1_555
C9_5 C8_5 1_555 1_555
H5_5 C9_5 1_555 1_555
H6_5 C9_5 1_555 1_555
C10_5 C9_5 1_555 1_555
H7_5 C10_5 1_555 1_555
H8_5 C10_5 1_555 1_555
C11_5 C10_5 1_555 1_555
H9_5 C11_5 1_555 1_555
H10_5 C11_5 1_555 1_555
C12_5 C11_5 1_555 1_555
H11_5 C12_5 1_555 1_555
H12_5 C12_5 1_555 1_555
C13_5 C12_5 1_555 1_555
H13_5 C13_5 1_555 1_555
H14_5 C13_5 1_555 1_555
H15_3 C13_5 1_555 1_555
C14_5 O4_3 1_555 1_555
H16_5 C14_5 1_555 1_555
C15_5 N3_3 1_555 1_555
H17_5 C15_5 1_555 1_555
H18_5 C15_5 1_555 1_555
H19_5 C15_5 1_555 1_555
C16_3 N3_3 1_555 1_555
H20_3 C16_3 1_555 1_555
H21_3 C16_3 1_555 1_555
H22_3 C16_3 1_555 1_555
Mn2_5 O2_3 1_555 1_555
O5_3 Mn2_5 1_555 1_555
O11_2 C23_5 1_555 1_555
O7_6 Mn2_5 1_555 1_555
N4_5 Mn2_5 1_555 1_555
N10_2 N4_5 1_555 1_555
N6_3 Mn2_5 1_555 1_555
C17_3 O5_3 1_555 1_555
C18_3 C17_3 1_555 1_555
H23_3 C18_3 1_555 1_555
C19_3 C18_3 1_555 1_555
H24_3 C19_3 1_555 1_555
C20_5 C19_3 1_555 1_555
H25_5 C20_5 1_555 1_555
C21_5 C20_5 1_555 1_555
H26_5 C21_5 1_555 1_555
C22_5 C17_3 1_555 1_555
C23_5 N4_5 1_555 1_555
C24_6 O7_6 1_555 1_555
C25_6 C24_6 1_555 1_555
H27_6 C25_6 1_555 1_555
H28_6 C25_6 1_555 1_555
C26_6 C25_6 1_555 1_555
H29_6 C26_6 1_555 1_555
H30_6 C26_6 1_555 1_555
C27_6 C26_6 1_555 1_555
H31_6 C27_6 1_555 1_555
H32_6 C27_6 1_555 1_555
C28_6 C27_6 1_555 1_555
H33_6 C28_6 1_555 1_555
H34_4 C28_6 1_555 1_555
C29_6 C28_6 1_555 1_555
H35_6 C29_6 1_555 1_555
H36_4 C29_6 1_555 1_555
H37_6 C29_6 1_555 1_555
C30_3 N6_3 1_555 1_555
H38_3 C30_3 1_555 1_555
C31_3 C30_3 1_555 1_555
H39_3 C31_3 1_555 1_555
C32_4 N6_3 1_555 1_555
H40_4 C32_4 1_555 1_555
C33_4 C32_4 1_555 1_555
H41_4 C33_4 1_555 1_555
C34_4 C31_3 1_555 1_555
C35_4 C34_4 1_555 1_555
H42_4 C35_4 1_555 1_555
H43_4 C35_4 1_555 1_555
Mn4_2 O8_5 1_555 1_555
O8_5 C36_5 1_555 1_555
O9_5 Mn1_5 1_555 1_555
O10_6 Mn4_2 1_555 1_555
N7_5 Mn4_2 1_555 1_555
N8_5 Mn1_5 1_555 1_555
N11_2 C49_6 1_555 1_555
C36_5 C37_5 1_555 1_555
C37_5 H44_5 1_555 1_555
C38_5 C37_5 1_555 1_555
H45_5 C38_5 1_555 1_555
C39_5 C38_5 1_555 1_555
H46_5 C39_5 1_555 1_555
C40_5 C39_5 1_555 1_555
H47_5 C40_5 1_555 1_555
C41_5 C36_5 1_555 1_555
C42_5 O9_5 1_555 1_555
C43_6 O10_6 1_555 1_555
C44_6 C43_6 1_555 1_555
H48_6 C44_6 1_555 1_555
H49_6 C44_6 1_555 1_555
C45_6 C44_6 1_555 1_555
H50_6 C45_6 1_555 1_555
H51_6 C45_6 1_555 1_555
C46_6 C45_6 1_555 1_555
H52_6 C46_6 1_555 1_555
H53_4 C46_6 1_555 1_555
C47_4 C46_6 1_555 1_555
H54_4 C47_4 1_555 1_555
H55_4 C47_4 1_555 1_555
C48_4 C47_4 1_555 1_555
H56_4 C48_4 1_555 1_555
H57_4 C48_4 1_555 1_555
H58_4 C48_4 1_555 1_555
C49_6 H59_6 1_555 1_555
C50_6 C49_6 1_555 1_555
H60_6 C50_6 1_555 1_555
C51_6 N11_2 1_555 1_555
C52_6 C51_6 1_555 1_555
H62_6 C52_6 1_555 1_555
C53_6 C50_6 1_555 1_555
C54_6 C35_4 1_555 1_555
H63_6 C54_6 1_555 1_555
H64_6 C54_6 1_555 1_555
N2_5 C8_5 1_555 1_555
N2_5 Mn2_5 1_555 1_555
C5_4 C6_3 1_555 1_555
C6_3 C7_3 1_555 1_555
N10_2 C24_6 1_555 1_555
C21_5 C22_5 1_555 1_555
C22_5 C23_5 1_555 1_555
C33_4 C34_4 1_555 1_555
N7_5 N8_5 1_555 1_555
N7_5 C42_5 1_555 1_555
N8_5 C43_6 1_555 1_555
C40_5 C41_5 1_555 1_555
C41_5 C42_5 1_555 1_555
C52_6 C53_6 1_555 1_555
C53_6 C54_6 1_555 1_555
Mn1_6 O1_4 1_555 1_555
O1_4 C1_4 1_555 1_555
O2_4 C7_4 1_555 1_555
O3_6 Mn1_6 1_555 1_555
O4_4 Mn1_6 1_555 1_555
N1_6 Mn1_6 1_555 1_555
N2_6 N1_6 1_555 1_555
N3_4 C14_6 1_555 1_555
C1_4 C2_5 1_555 1_555
C2_5 H1_5 1_555 1_555
C3_5 C2_5 1_555 1_555
H2_5 C3_5 1_555 1_555
C4_5 C3_5 1_555 1_555
H3_5 C4_5 1_555 1_555
C5_5 C4_5 1_555 1_555
H4_5 C5_5 1_555 1_555
C6_4 C1_4 1_555 1_555
C7_4 N1_6 1_555 1_555
C8_6 O3_6 1_555 1_555
C9_6 C8_6 1_555 1_555
H5_6 C9_6 1_555 1_555
H6_6 C9_6 1_555 1_555
C10_6 C9_6 1_555 1_555
H7_6 C10_6 1_555 1_555
H8_6 C10_6 1_555 1_555
C11_6 C10_6 1_555 1_555
H9_6 C11_6 1_555 1_555
H10_6 C11_6 1_555 1_555
C12_6 C11_6 1_555 1_555
H11_6 C12_6 1_555 1_555
H12_6 C12_6 1_555 1_555
C13_6 C12_6 1_555 1_555
H13_6 C13_6 1_555 1_555
H14_6 C13_6 1_555 1_555
H15_4 C13_6 1_555 1_555
C14_6 O4_4 1_555 1_555
H16_6 C14_6 1_555 1_555
C15_6 N3_4 1_555 1_555
H17_6 C15_6 1_555 1_555
H18_6 C15_6 1_555 1_555
H19_6 C15_6 1_555 1_555
C16_4 N3_4 1_555 1_555
H20_4 C16_4 1_555 1_555
H21_4 C16_4 1_555 1_555
H22_4 C16_4 1_555 1_555
Mn2_6 O2_4 1_555 1_555
O5_4 Mn2_6 1_555 1_555
O6_4 C23_6 1_555 1_555
O7_7 Mn2_6 1_555 1_555
N4_6 Mn2_6 1_555 1_555
N5_4 N4_6 1_555 1_555
N6_4 Mn2_6 1_555 1_555
C17_4 O5_4 1_555 1_555
C18_4 C17_4 1_555 1_555
H23_4 C18_4 1_555 1_555
C19_4 C18_4 1_555 1_555
H24_4 C19_4 1_555 1_555
C20_6 C19_4 1_555 1_555
H25_6 C20_6 1_555 1_555
C21_6 C20_6 1_555 1_555
H26_6 C21_6 1_555 1_555
C22_6 C17_4 1_555 1_555
C23_6 N4_6 1_555 1_555
C24_7 O7_7 1_555 1_555
C25_7 C24_7 1_555 1_555
H27_7 C25_7 1_555 1_555
H28_7 C25_7 1_555 1_555
C26_7 C25_7 1_555 1_555
H29_7 C26_7 1_555 1_555
H30_7 C26_7 1_555 1_555
C27_7 C26_7 1_555 1_555
H31_7 C27_7 1_555 1_555
H32_7 C27_7 1_555 1_555
C28_7 C27_7 1_555 1_555
H33_7 C28_7 1_555 1_555
H34_5 C28_7 1_555 1_555
C29_7 C28_7 1_555 1_555
H35_7 C29_7 1_555 1_555
H36_5 C29_7 1_555 1_555
H37_7 C29_7 1_555 1_555
C30_4 N6_4 1_555 1_555
H38_4 C30_4 1_555 1_555
C31_4 C30_4 1_555 1_555
H39_4 C31_4 1_555 1_555
C32_5 N6_4 1_555 1_555
H40_5 C32_5 1_555 1_555
C33_5 C32_5 1_555 1_555
H41_5 C33_5 1_555 1_555
C34_5 C31_4 1_555 1_555
C35_5 C34_5 1_555 1_555
H42_5 C35_5 1_555 1_555
H43_5 C35_5 1_555 1_555
Mn3_3 O8_6 1_555 1_555
O8_6 C36_6 1_555 1_555
O9_6 Mn1_6 1_555 1_555
O10_7 Mn3_3 1_555 1_555
N7_6 Mn3_3 1_555 1_555
N8_6 Mn1_6 1_555 1_555
N9_3 C49_7 1_555 1_555
C36_6 C37_6 1_555 1_555
C37_6 H44_6 1_555 1_555
C38_6 C37_6 1_555 1_555
H45_6 C38_6 1_555 1_555
C39_6 C38_6 1_555 1_555
H46_6 C39_6 1_555 1_555
C40_6 C39_6 1_555 1_555
H47_6 C40_6 1_555 1_555
C41_6 C36_6 1_555 1_555
C42_6 O9_6 1_555 1_555
C43_7 O10_7 1_555 1_555
C44_7 C43_7 1_555 1_555
H48_7 C44_7 1_555 1_555
H49_7 C44_7 1_555 1_555
C45_7 C44_7 1_555 1_555
H50_7 C45_7 1_555 1_555
H51_7 C45_7 1_555 1_555
C46_7 C45_7 1_555 1_555
H52_7 C46_7 1_555 1_555
H53_5 C46_7 1_555 1_555
C47_5 C46_7 1_555 1_555
H54_5 C47_5 1_555 1_555
H55_5 C47_5 1_555 1_555
C48_5 C47_5 1_555 1_555
H56_5 C48_5 1_555 1_555
H57_5 C48_5 1_555 1_555
H58_5 C48_5 1_555 1_555
C49_7 H59_7 1_555 1_555
C50_7 C49_7 1_555 1_555
H60_7 C50_7 1_555 1_555
C51_7 N9_3 1_555 1_555
C52_7 C51_7 1_555 1_555
H62_7 C52_7 1_555 1_555
C53_7 C50_7 1_555 1_555
C54_7 C35_5 1_555 1_555
H63_7 C54_7 1_555 1_555
H64_7 C54_7 1_555 1_555
O11_3 Mn3_3 1_555 1_555
N10_3 Mn3_3 1_555 1_555
Mn4_3 O6_4 1_555 1_555
N11_5 Mn3_3 1_555 1_555
N2_6 C8_6 1_555 1_555
N2_6 Mn2_6 1_555 1_555
C5_5 C6_4 1_555 1_555
C6_4 C7_4 1_555 1_555
N5_4 C24_7 1_555 1_555
N5_4 Mn4_3 1_555 1_555
C21_6 C22_6 1_555 1_555
C22_6 C23_6 1_555 1_555
C33_5 C34_5 1_555 1_555
N7_6 N8_6 1_555 1_555
N7_6 C42_6 1_555 1_555
N8_6 C43_7 1_555 1_555
C40_6 C41_6 1_555 1_555
C41_6 C42_6 1_555 1_555
C52_7 C53_7 1_555 1_555
C53_7 C54_7 1_555 1_555
N9_4 C49_8 1_555 1_555
C49_8 H59_8 1_555 1_555
C50_8 C49_8 1_555 1_555
H60_8 C50_8 1_555 1_555
C51_8 N9_4 1_555 1_555
H61_6 C51_8 1_555 1_555
C52_8 C51_8 1_555 1_555
H62_8 C52_8 1_555 1_555
C53_8 C50_8 1_555 1_555
H63_8 C54_8 1_555 1_555
H64_8 C54_8 1_555 1_555
Mn4_3 N9_4 1_555 1_555
C52_8 C53_8 1_555 1_555
C53_8 C54_8 1_555 1_555
N9_5 C49_9 1_555 1_555
C49_9 H59_9 1_555 1_555
C50_9 C49_9 1_555 1_555
H60_9 C50_9 1_555 1_555
C51_9 N9_5 1_555 1_555
H61_7 C51_9 1_555 1_555
C52_9 C51_9 1_555 1_555
H62_9 C52_9 1_555 1_555
C53_9 C50_9 1_555 1_555
H63_9 C54_9 1_555 1_555
H64_9 C54_9 1_555 1_555
Mn5_2 N9_5 1_555 1_555
C52_9 C53_9 1_555 1_555
C53_9 C54_9 1_555 1_555
Mn3_4 O8_7 1_555 1_555
O8_7 C36_7 1_555 1_555
C36_7 C37_7 1_555 1_555
C37_7 H44_7 1_555 1_555
C38_7 C37_7 1_555 1_555
H45_7 C38_7 1_555 1_555
O11_4 Mn3_4 1_555 1_555
N10_4 Mn3_4 1_555 1_555
Mn1_7 O1_5 1_555 1_555
O1_5 C1_5 1_555 1_555
O2_5 C7_5 1_555 1_555
O3_7 Mn1_7 1_555 1_555
O4_5 Mn1_7 1_555 1_555
N1_7 Mn1_7 1_555 1_555
N2_7 N1_7 1_555 1_555
N3_5 C14_7 1_555 1_555
C1_5 C2_6 1_555 1_555
C2_6 H1_6 1_555 1_555
C3_6 C2_6 1_555 1_555
H2_6 C3_6 1_555 1_555
C4_6 C3_6 1_555 1_555
H3_6 C4_6 1_555 1_555
C5_6 C4_6 1_555 1_555
H4_6 C5_6 1_555 1_555
C6_5 C1_5 1_555 1_555
C7_5 N1_7 1_555 1_555
C8_7 O3_7 1_555 1_555
C9_7 C8_7 1_555 1_555
H5_7 C9_7 1_555 1_555
H6_7 C9_7 1_555 1_555
C10_7 C9_7 1_555 1_555
H7_7 C10_7 1_555 1_555
H8_7 C10_7 1_555 1_555
C11_7 C10_7 1_555 1_555
H9_7 C11_7 1_555 1_555
H10_7 C11_7 1_555 1_555
C12_7 C11_7 1_555 1_555
H11_7 C12_7 1_555 1_555
H12_7 C12_7 1_555 1_555
C13_7 C12_7 1_555 1_555
H13_7 C13_7 1_555 1_555
H14_7 C13_7 1_555 1_555
H15_5 C13_7 1_555 1_555
C14_7 O4_5 1_555 1_555
H16_7 C14_7 1_555 1_555
C15_7 N3_5 1_555 1_555
H17_7 C15_7 1_555 1_555
H18_7 C15_7 1_555 1_555
H19_7 C15_7 1_555 1_555
C16_5 N3_5 1_555 1_555
H20_5 C16_5 1_555 1_555
H21_5 C16_5 1_555 1_555
H22_5 C16_5 1_555 1_555
Mn2_7 O2_5 1_555 1_555
O5_5 Mn2_7 1_555 1_555
O6_5 C23_7 1_555 1_555
O7_8 Mn2_7 1_555 1_555
N4_7 Mn2_7 1_555 1_555
N5_5 N4_7 1_555 1_555
N6_5 Mn2_7 1_555 1_555
C17_5 O5_5 1_555 1_555
C18_5 C17_5 1_555 1_555
H23_5 C18_5 1_555 1_555
C19_5 C18_5 1_555 1_555
H24_5 C19_5 1_555 1_555
C20_7 C19_5 1_555 1_555
H25_7 C20_7 1_555 1_555
C21_7 C20_7 1_555 1_555
H26_7 C21_7 1_555 1_555
C22_7 C17_5 1_555 1_555
C23_7 N4_7 1_555 1_555
C24_8 O7_8 1_555 1_555
C25_8 C24_8 1_555 1_555
H27_8 C25_8 1_555 1_555
H28_8 C25_8 1_555 1_555
C26_8 C25_8 1_555 1_555
H29_8 C26_8 1_555 1_555
H30_8 C26_8 1_555 1_555
C27_8 C26_8 1_555 1_555
H31_8 C27_8 1_555 1_555
H32_8 C27_8 1_555 1_555
C28_8 C27_8 1_555 1_555
H33_8 C28_8 1_555 1_555
H34_6 C28_8 1_555 1_555
C29_8 C28_8 1_555 1_555
H35_8 C29_8 1_555 1_555
H36_6 C29_8 1_555 1_555
H37_8 C29_8 1_555 1_555
C30_5 N6_5 1_555 1_555
H38_5 C30_5 1_555 1_555
C31_5 C30_5 1_555 1_555
H39_5 C31_5 1_555 1_555
C32_6 N6_5 1_555 1_555
H40_6 C32_6 1_555 1_555
C33_6 C32_6 1_555 1_555
H41_6 C33_6 1_555 1_555
C34_6 C31_5 1_555 1_555
C35_6 C34_6 1_555 1_555
H42_6 C35_6 1_555 1_555
H43_6 C35_6 1_555 1_555
Mn3_5 O8_8 1_555 1_555
O8_8 C36_8 1_555 1_555
O9_7 Mn1_7 1_555 1_555
O10_8 Mn3_5 1_555 1_555
N7_7 Mn3_5 1_555 1_555
N8_7 Mn1_7 1_555 1_555
N9_6 C49_10 1_555 1_555
C36_8 C37_8 1_555 1_555
C37_8 H44_8 1_555 1_555
C38_8 C37_8 1_555 1_555
H45_8 C38_8 1_555 1_555
C39_7 C38_8 1_555 1_555
H46_7 C39_7 1_555 1_555
C40_7 C39_7 1_555 1_555
H47_7 C40_7 1_555 1_555
C41_7 C36_8 1_555 1_555
C42_7 O9_7 1_555 1_555
C43_8 O10_8 1_555 1_555
C44_8 C43_8 1_555 1_555
H48_8 C44_8 1_555 1_555
H49_8 C44_8 1_555 1_555
C45_8 C44_8 1_555 1_555
H50_8 C45_8 1_555 1_555
H51_8 C45_8 1_555 1_555
C46_8 C45_8 1_555 1_555
H52_8 C46_8 1_555 1_555
H53_6 C46_8 1_555 1_555
C47_6 C46_8 1_555 1_555
H54_6 C47_6 1_555 1_555
H55_6 C47_6 1_555 1_555
C48_6 C47_6 1_555 1_555
H56_6 C48_6 1_555 1_555
H57_6 C48_6 1_555 1_555
H58_6 C48_6 1_555 1_555
C49_10 H59_10 1_555 1_555
C50_10 C49_10 1_555 1_555
H60_10 C50_10 1_555 1_555
C51_10 N9_6 1_555 1_555
C52_10 C51_10 1_555 1_555
H62_10 C52_10 1_555 1_555
C53_10 C50_10 1_555 1_555
C54_10 C35_6 1_555 1_555
H63_10 C54_10 1_555 1_555
H64_10 C54_10 1_555 1_555
O11_5 Mn3_5 1_555 1_555
N10_5 Mn3_5 1_555 1_555
Mn5_2 O6_5 1_555 1_555
N11_6 Mn3_5 1_555 1_555
N2_7 C8_7 1_555 1_555
N2_7 Mn2_7 1_555 1_555
C5_6 C6_5 1_555 1_555
C6_5 C7_5 1_555 1_555
N5_5 C24_8 1_555 1_555
N5_5 Mn5_2 1_555 1_555
C21_7 C22_7 1_555 1_555
C22_7 C23_7 1_555 1_555
C33_6 C34_6 1_555 1_555
N7_7 N8_7 1_555 1_555
N7_7 C42_7 1_555 1_555
N8_7 C43_8 1_555 1_555
C40_7 C41_7 1_555 1_555
C41_7 C42_7 1_555 1_555
C52_10 C53_10 1_555 1_555
C53_10 C54_10 1_555 1_555
O3_8 Mn1_8 1_555 1_555
N1_8 Mn1_8 1_555 1_555
N2_8 N1_8 1_555 1_555
C8_8 O3_8 1_555 1_555
C9_8 C8_8 1_555 1_555
H5_8 C9_8 1_555 1_555
H6_8 C9_8 1_555 1_555
C10_8 C9_8 1_555 1_555
H7_8 C10_8 1_555 1_555
H8_8 C10_8 1_555 1_555
C11_8 C10_8 1_555 1_555
H9_8 C11_8 1_555 1_555
H10_8 C11_8 1_555 1_555
C12_8 C11_8 1_555 1_555
H11_8 C12_8 1_555 1_555
H12_8 C12_8 1_555 1_555
C13_8 C12_8 1_555 1_555
H13_8 C13_8 1_555 1_555
H14_8 C13_8 1_555 1_555
H16_8 C14_8 1_555 1_555
H17_8 C15_8 1_555 1_555
H18_8 C15_8 1_555 1_555
H19_8 C15_8 1_555 1_555
O11_3 C23_8 1_555 1_555
O7_9 Mn2_8 1_555 1_555
N4_8 Mn2_8 1_555 1_555
N10_3 N4_8 1_555 1_555
H25_8 C20_8 1_555 1_555
C21_8 C20_8 1_555 1_555
H26_8 C21_8 1_555 1_555
C23_8 N4_8 1_555 1_555
C24_9 O7_9 1_555 1_555
C25_9 C24_9 1_555 1_555
H27_9 C25_9 1_555 1_555
H28_9 C25_9 1_555 1_555
C26_9 C25_9 1_555 1_555
H29_9 C26_9 1_555 1_555
H30_9 C26_9 1_555 1_555
C27_9 C26_9 1_555 1_555
H31_9 C27_9 1_555 1_555
H32_9 C27_9 1_555 1_555
C28_9 C27_9 1_555 1_555
H33_9 C28_9 1_555 1_555
C29_9 C28_9 1_555 1_555
H35_9 C29_9 1_555 1_555
H37_9 C29_9 1_555 1_555
Mn4_3 O8_9 1_555 1_555
O8_9 C36_9 1_555 1_555
O9_8 Mn1_8 1_555 1_555
O10_9 Mn4_3 1_555 1_555
N7_8 Mn4_3 1_555 1_555
N8_8 Mn1_8 1_555 1_555
C36_9 C37_9 1_555 1_555
C37_9 H44_9 1_555 1_555
C38_9 C37_9 1_555 1_555
H45_9 C38_9 1_555 1_555
C39_8 C38_9 1_555 1_555
H46_8 C39_8 1_555 1_555
C40_8 C39_8 1_555 1_555
H47_8 C40_8 1_555 1_555
C41_8 C36_9 1_555 1_555
C42_8 O9_8 1_555 1_555
C43_9 O10_9 1_555 1_555
C44_9 C43_9 1_555 1_555
H48_9 C44_9 1_555 1_555
H49_9 C44_9 1_555 1_555
C45_9 C44_9 1_555 1_555
H50_9 C45_9 1_555 1_555
H51_9 C45_9 1_555 1_555
C46_9 C45_9 1_555 1_555
H52_9 C46_9 1_555 1_555
N2_8 C8_8 1_555 1_555
N2_8 Mn2_8 1_555 1_555
N10_3 C24_9 1_555 1_555
C21_8 C22_8 1_555 1_555
C22_8 C23_8 1_555 1_555
N7_8 N8_8 1_555 1_555
N7_8 C42_8 1_555 1_555
N8_8 C43_9 1_555 1_555
C40_8 C41_8 1_555 1_555
C41_8 C42_8 1_555 1_555
C2_7 H1_7 1_555 1_555
C3_7 C2_7 1_555 1_555
H2_7 C3_7 1_555 1_555
C4_7 C3_7 1_555 1_555
H3_7 C4_7 1_555 1_555
C5_7 C4_7 1_555 1_555
H4_7 C5_7 1_555 1_555
C24_10 O7_10 1_555 1_555
C25_10 C24_10 1_555 1_555
H27_10 C25_10 1_555 1_555
H28_10 C25_10 1_555 1_555
C26_10 C25_10 1_555 1_555
H29_10 C26_10 1_555 1_555
H30_10 C26_10 1_555 1_555
C27_10 C26_10 1_555 1_555
H31_10 C27_10 1_555 1_555
H32_10 C27_10 1_555 1_555
C28_10 C27_10 1_555 1_555
H33_10 C28_10 1_555 1_555
H34_7 C28_10 1_555 1_555
C29_10 C28_10 1_555 1_555
H35_10 C29_10 1_555 1_555
H36_7 C29_10 1_555 1_555
H37_10 C29_10 1_555 1_555
H40_7 C32_7 1_555 1_555
C33_7 C32_7 1_555 1_555
H41_7 C33_7 1_555 1_555
C35_7 C34_7 1_555 1_555
H42_7 C35_7 1_555 1_555
H43_7 C35_7 1_555 1_555
N11_5 C49_11 1_555 1_555
C43_10 O10_10 1_555 1_555
C44_10 C43_10 1_555 1_555
H48_10 C44_10 1_555 1_555
H49_10 C44_10 1_555 1_555
C45_10 C44_10 1_555 1_555
H50_10 C45_10 1_555 1_555
H51_10 C45_10 1_555 1_555
C46_10 C45_10 1_555 1_555
H52_10 C46_10 1_555 1_555
H53_7 C46_10 1_555 1_555
C47_7 C46_10 1_555 1_555
H54_7 C47_7 1_555 1_555
H55_7 C47_7 1_555 1_555
C48_7 C47_7 1_555 1_555
H56_7 C48_7 1_555 1_555
H57_7 C48_7 1_555 1_555
H58_7 C48_7 1_555 1_555
C49_11 H59_11 1_555 1_555
C50_11 C49_11 1_555 1_555
H60_11 C50_11 1_555 1_555
C51_11 N11_5 1_555 1_555
H61_9 C51_11 1_555 1_555
C52_11 C51_11 1_555 1_555
H62_11 C52_11 1_555 1_555
C53_11 C50_11 1_555 1_555
C54_11 C35_7 1_555 1_555
H63_11 C54_11 1_555 1_555
H64_11 C54_11 1_555 1_555
C33_7 C34_7 1_555 1_555
C52_11 C53_11 1_555 1_555
C53_11 C54_11 1_555 1_555
O3_9 Mn1_9 1_555 1_555
N1_9 Mn1_9 1_555 1_555
N2_9 N1_9 1_555 1_555
C8_9 O3_9 1_555 1_555
C9_9 C8_9 1_555 1_555
H5_9 C9_9 1_555 1_555
H6_9 C9_9 1_555 1_555
C10_9 C9_9 1_555 1_555
H7_9 C10_9 1_555 1_555
H8_9 C10_9 1_555 1_555
C11_9 C10_9 1_555 1_555
H9_9 C11_9 1_555 1_555
H10_9 C11_9 1_555 1_555
C12_9 C11_9 1_555 1_555
H11_9 C12_9 1_555 1_555
H12_9 C12_9 1_555 1_555
C13_9 C12_9 1_555 1_555
H13_9 C13_9 1_555 1_555
H14_9 C13_9 1_555 1_555
H16_9 C14_9 1_555 1_555
H17_9 C15_9 1_555 1_555
H18_9 C15_9 1_555 1_555
H19_9 C15_9 1_555 1_555
O11_5 C23_9 1_555 1_555
O7_11 Mn2_9 1_555 1_555
N4_9 Mn2_9 1_555 1_555
N10_5 N4_9 1_555 1_555
H25_9 C20_9 1_555 1_555
C21_9 C20_9 1_555 1_555
H26_9 C21_9 1_555 1_555
C23_9 N4_9 1_555 1_555
C24_11 O7_11 1_555 1_555
C25_11 C24_11 1_555 1_555
H27_11 C25_11 1_555 1_555
H28_11 C25_11 1_555 1_555
C26_11 C25_11 1_555 1_555
H29_11 C26_11 1_555 1_555
H30_11 C26_11 1_555 1_555
C27_11 C26_11 1_555 1_555
H31_11 C27_11 1_555 1_555
H32_11 C27_11 1_555 1_555
C28_11 C27_11 1_555 1_555
H33_11 C28_11 1_555 1_555
C29_11 C28_11 1_555 1_555
H35_11 C29_11 1_555 1_555
H37_11 C29_11 1_555 1_555
Mn5_2 O8_10 1_555 1_555
O8_10 C36_10 1_555 1_555
O9_9 Mn1_9 1_555 1_555
O10_11 Mn5_2 1_555 1_555
N7_9 Mn5_2 1_555 1_555
N8_9 Mn1_9 1_555 1_555
C36_10 C37_10 1_555 1_555
C37_10 H44_10 1_555 1_555
C38_10 C37_10 1_555 1_555
H45_10 C38_10 1_555 1_555
C39_9 C38_10 1_555 1_555
H46_9 C39_9 1_555 1_555
C40_9 C39_9 1_555 1_555
H47_9 C40_9 1_555 1_555
C41_9 C36_10 1_555 1_555
C42_9 O9_9 1_555 1_555
C43_11 O10_11 1_555 1_555
C44_11 C43_11 1_555 1_555
H48_11 C44_11 1_555 1_555
H49_11 C44_11 1_555 1_555
C45_11 C44_11 1_555 1_555
H50_11 C45_11 1_555 1_555
H51_11 C45_11 1_555 1_555
C46_11 C45_11 1_555 1_555
H52_11 C46_11 1_555 1_555
N2_9 C8_9 1_555 1_555
N2_9 Mn2_9 1_555 1_555
N10_5 C24_11 1_555 1_555
C21_9 C22_9 1_555 1_555
C22_9 C23_9 1_555 1_555
N7_9 N8_9 1_555 1_555
N7_9 C42_9 1_555 1_555
N8_9 C43_11 1_555 1_555
C40_9 C41_9 1_555 1_555
C41_9 C42_9 1_555 1_555
Mn1_10 O1_6 1_555 1_555
O1_6 C1_6 1_555 1_555
O2_6 C7_6 1_555 1_555
O3_10 Mn1_10 1_555 1_555
O4_6 Mn1_10 1_555 1_555
N1_10 Mn1_10 1_555 1_555
N2_10 N1_10 1_555 1_555
N3_6 C14_10 1_555 1_555
C1_6 C2_8 1_555 1_555
C2_8 H1_8 1_555 1_555
C3_8 C2_8 1_555 1_555
H2_8 C3_8 1_555 1_555
C4_8 C3_8 1_555 1_555
H3_8 C4_8 1_555 1_555
C5_8 C4_8 1_555 1_555
H4_8 C5_8 1_555 1_555
C6_6 C1_6 1_555 1_555
C7_6 N1_10 1_555 1_555
C8_10 O3_10 1_555 1_555
C9_10 C8_10 1_555 1_555
H5_10 C9_10 1_555 1_555
H6_10 C9_10 1_555 1_555
C10_10 C9_10 1_555 1_555
H7_10 C10_10 1_555 1_555
H8_10 C10_10 1_555 1_555
C11_10 C10_10 1_555 1_555
H9_10 C11_10 1_555 1_555
H10_10 C11_10 1_555 1_555
C12_10 C11_10 1_555 1_555
H11_10 C12_10 1_555 1_555
H12_10 C12_10 1_555 1_555
C13_10 C12_10 1_555 1_555
H13_10 C13_10 1_555 1_555
H14_10 C13_10 1_555 1_555
H15_6 C13_10 1_555 1_555
C14_10 O4_6 1_555 1_555
H16_10 C14_10 1_555 1_555
C15_10 N3_6 1_555 1_555
H17_10 C15_10 1_555 1_555
H18_10 C15_10 1_555 1_555
H19_10 C15_10 1_555 1_555
C16_6 N3_6 1_555 1_555
H20_6 C16_6 1_555 1_555
H21_6 C16_6 1_555 1_555
H22_6 C16_6 1_555 1_555
Mn2_10 O2_6 1_555 1_555
O5_6 Mn2_10 1_555 1_555
O11_4 C23_10 1_555 1_555
O7_12 Mn2_10 1_555 1_555
N4_10 Mn2_10 1_555 1_555
N10_4 N4_10 1_555 1_555
N6_6 Mn2_10 1_555 1_555
C17_6 O5_6 1_555 1_555
C18_6 C17_6 1_555 1_555
H23_6 C18_6 1_555 1_555
C19_6 C18_6 1_555 1_555
H24_6 C19_6 1_555 1_555
C20_10 C19_6 1_555 1_555
H25_10 C20_10 1_555 1_555
C21_10 C20_10 1_555 1_555
H26_10 C21_10 1_555 1_555
C22_10 C17_6 1_555 1_555
C23_10 N4_10 1_555 1_555
C24_12 O7_12 1_555 1_555
C25_12 C24_12 1_555 1_555
H27_12 C25_12 1_555 1_555
H28_12 C25_12 1_555 1_555
C26_12 C25_12 1_555 1_555
H29_12 C26_12 1_555 1_555
H30_12 C26_12 1_555 1_555
C27_12 C26_12 1_555 1_555
H31_12 C27_12 1_555 1_555
H32_12 C27_12 1_555 1_555
C28_12 C27_12 1_555 1_555
H33_12 C28_12 1_555 1_555
H34_8 C28_12 1_555 1_555
C29_12 C28_12 1_555 1_555
H35_12 C29_12 1_555 1_555
H36_8 C29_12 1_555 1_555
H37_12 C29_12 1_555 1_555
C30_6 N6_6 1_555 1_555
H38_6 C30_6 1_555 1_555
C31_6 C30_6 1_555 1_555
H39_6 C31_6 1_555 1_555
C32_8 N6_6 1_555 1_555
H40_8 C32_8 1_555 1_555
C33_8 C32_8 1_555 1_555
H41_8 C33_8 1_555 1_555
C34_8 C31_6 1_555 1_555
C35_8 C34_8 1_555 1_555
H42_8 C35_8 1_555 1_555
H43_8 C35_8 1_555 1_555
O9_10 Mn1_10 1_555 1_555
N8_10 Mn1_10 1_555 1_555
N11_6 C49_12 1_555 1_555
H46_10 C39_10 1_555 1_555
C40_10 C39_10 1_555 1_555
H47_10 C40_10 1_555 1_555
C42_10 O9_10 1_555 1_555
C43_12 O10_12 1_555 1_555
C44_12 C43_12 1_555 1_555
H48_12 C44_12 1_555 1_555
H49_12 C44_12 1_555 1_555
C45_12 C44_12 1_555 1_555
H50_12 C45_12 1_555 1_555
H51_12 C45_12 1_555 1_555
C46_12 C45_12 1_555 1_555
H52_12 C46_12 1_555 1_555
H53_8 C46_12 1_555 1_555
C47_8 C46_12 1_555 1_555
H54_8 C47_8 1_555 1_555
H55_8 C47_8 1_555 1_555
C48_8 C47_8 1_555 1_555
H56_8 C48_8 1_555 1_555
H57_8 C48_8 1_555 1_555
H58_8 C48_8 1_555 1_555
C49_12 H59_12 1_555 1_555
C50_12 C49_12 1_555 1_555
H60_12 C50_12 1_555 1_555
C51_12 N11_6 1_555 1_555
H61_10 C51_12 1_555 1_555
C52_12 C51_12 1_555 1_555
H62_12 C52_12 1_555 1_555
C53_12 C50_12 1_555 1_555
C54_12 C35_8 1_555 1_555
H63_12 C54_12 1_555 1_555
H64_12 C54_12 1_555 1_555
N2_10 C8_10 1_555 1_555
N2_10 Mn2_10 1_555 1_555
C5_8 C6_6 1_555 1_555
C6_6 C7_6 1_555 1_555
N10_4 C24_12 1_555 1_555
C21_10 C22_10 1_555 1_555
C22_10 C23_10 1_555 1_555
C33_8 C34_8 1_555 1_555
N7_10 N8_10 1_555 1_555
N7_10 C42_10 1_555 1_555
N8_10 C43_12 1_555 1_555
C40_10 C41_10 1_555 1_555
C41_10 C42_10 1_555 1_555
C52_12 C53_12 1_555 1_555
C53_12 C54_12 1_555 1_555
H5_11 C9_11 1_555 1_555
H6_11 C9_11 1_555 1_555
H10_11 C11_11 1_555 1_555
H13_11 C13_11 1_555 1_555
Mn2_11 O2_7 1_555 1_555
O5_7 Mn2_11 1_555 1_555
O6_6 C23_11 1_555 1_555
O7_13 Mn2_11 1_555 1_555
N4_11 Mn2_11 1_555 1_555
N5_6 N4_11 1_555 1_555
N6_7 Mn2_11 1_555 1_555
C17_7 O5_7 1_555 1_555
C18_7 C17_7 1_555 1_555
H23_7 C18_7 1_555 1_555
C19_7 C18_7 1_555 1_555
H24_7 C19_7 1_555 1_555
C20_11 C19_7 1_555 1_555
H25_11 C20_11 1_555 1_555
C21_11 C20_11 1_555 1_555
H26_11 C21_11 1_555 1_555
C22_11 C17_7 1_555 1_555
C23_11 N4_11 1_555 1_555
C24_13 O7_13 1_555 1_555
C25_13 C24_13 1_555 1_555
H27_13 C25_13 1_555 1_555
H28_13 C25_13 1_555 1_555
C26_13 C25_13 1_555 1_555
H29_13 C26_13 1_555 1_555
H30_13 C26_13 1_555 1_555
C27_13 C26_13 1_555 1_555
H31_13 C27_13 1_555 1_555
H32_13 C27_13 1_555 1_555
C28_13 C27_13 1_555 1_555
H33_13 C28_13 1_555 1_555
H34_9 C28_13 1_555 1_555
C29_13 C28_13 1_555 1_555
H35_13 C29_13 1_555 1_555
H36_9 C29_13 1_555 1_555
H37_13 C29_13 1_555 1_555
C30_7 N6_7 1_555 1_555
H38_7 C30_7 1_555 1_555
C31_7 C30_7 1_555 1_555
H39_7 C31_7 1_555 1_555
C32_9 N6_7 1_555 1_555
H40_9 C32_9 1_555 1_555
C33_9 C32_9 1_555 1_555
H41_9 C33_9 1_555 1_555
C34_9 C31_7 1_555 1_555
C35_9 C34_9 1_555 1_555
H42_9 C35_9 1_555 1_555
H43_9 C35_9 1_555 1_555
H56_9 C48_9 1_555 1_555
H57_9 C48_9 1_555 1_555
H58_9 C48_9 1_555 1_555
Mn4_4 O6_6 1_555 1_555
N5_6 C24_13 1_555 1_555
N5_6 Mn4_4 1_555 1_555
C21_11 C22_11 1_555 1_555
C22_11 C23_11 1_555 1_555
C33_9 C34_9 1_555 1_555
O1_7 C1_7 1_555 1_555
O2_8 C7_7 1_555 1_555
C1_7 C2_9 1_555 1_555
C2_9 H1_9 1_555 1_555
C3_9 C2_9 1_555 1_555
H2_9 C3_9 1_555 1_555
C4_9 C3_9 1_555 1_555
H3_9 C4_9 1_555 1_555
C5_9 C4_9 1_555 1_555
H4_9 C5_9 1_555 1_555
C6_7 C1_7 1_555 1_555
C16_7 N3_7 1_555 1_555
H20_7 C16_7 1_555 1_555
H21_7 C16_7 1_555 1_555
H22_7 C16_7 1_555 1_555
C17_8 O5_8 1_555 1_555
C18_8 C17_8 1_555 1_555
H23_8 C18_8 1_555 1_555
C19_8 C18_8 1_555 1_555
H24_8 C19_8 1_555 1_555
C30_8 N6_8 1_555 1_555
H38_8 C30_8 1_555 1_555
C31_8 C30_8 1_555 1_555
H39_8 C31_8 1_555 1_555
C32_10 N6_8 1_555 1_555
H40_10 C32_10 1_555 1_555
C33_10 C32_10 1_555 1_555
H41_10 C33_10 1_555 1_555
C34_10 C31_8 1_555 1_555
C35_10 C34_10 1_555 1_555
H42_10 C35_10 1_555 1_555
H43_10 C35_10 1_555 1_555
N9_7 C49_13 1_555 1_555
H54_9 C47_9 1_555 1_555
H55_9 C47_9 1_555 1_555
C48_10 C47_9 1_555 1_555
H56_10 C48_10 1_555 1_555
H57_10 C48_10 1_555 1_555
H58_10 C48_10 1_555 1_555
C49_13 H59_13 1_555 1_555
C50_13 C49_13 1_555 1_555
H60_13 C50_13 1_555 1_555
C51_13 N9_7 1_555 1_555
H61_11 C51_13 1_555 1_555
C52_13 C51_13 1_555 1_555
H62_13 C52_13 1_555 1_555
C53_13 C50_13 1_555 1_555
C54_13 C35_10 1_555 1_555
H63_13 C54_13 1_555 1_555
H64_13 C54_13 1_555 1_555
Mn4_4 N9_7 1_555 1_555
C5_9 C6_7 1_555 1_555
C6_7 C7_7 1_555 1_555
C33_10 C34_10 1_555 1_555
C52_13 C53_13 1_555 1_555
C53_13 C54_13 1_555 1_555
Mn1_11 O1_8 1_555 1_555
O1_8 C1_8 1_555 1_555
O3_11 Mn1_11 1_555 1_555
O4_8 Mn1_11 1_555 1_555
N1_11 Mn1_11 1_555 1_555
N2_11 N1_11 1_555 1_555
N3_8 C14_11 1_555 1_555
C1_8 C2_10 1_555 1_555
C2_10 H1_10 1_555 1_555
C3_10 C2_10 1_555 1_555
H2_10 C3_10 1_555 1_555
C4_10 C3_10 1_555 1_555
C5_10 C4_10 1_555 1_555
H4_10 C5_10 1_555 1_555
C6_8 C1_8 1_555 1_555
C7_8 N1_11 1_555 1_555
C8_11 O3_11 1_555 1_555
H8_11 C10_11 1_555 1_555
H11_11 C12_11 1_555 1_555
C14_11 O4_8 1_555 1_555
H16_11 C14_11 1_555 1_555
C15_11 N3_8 1_555 1_555
H17_11 C15_11 1_555 1_555
H18_11 C15_11 1_555 1_555
H19_11 C15_11 1_555 1_555
C16_8 N3_8 1_555 1_555
H20_8 C16_8 1_555 1_555
H21_8 C16_8 1_555 1_555
H22_8 C16_8 1_555 1_555
Mn4_4 O8_11 1_555 1_555
O8_11 C36_11 1_555 1_555
O9_11 Mn1_11 1_555 1_555
O10_13 Mn4_4 1_555 1_555
N7_11 Mn4_4 1_555 1_555
N8_11 Mn1_11 1_555 1_555
C36_11 C37_11 1_555 1_555
C37_11 H44_11 1_555 1_555
C38_11 C37_11 1_555 1_555
H45_11 C38_11 1_555 1_555
C39_11 C38_11 1_555 1_555
H46_11 C39_11 1_555 1_555
C40_11 C39_11 1_555 1_555
H47_11 C40_11 1_555 1_555
C41_11 C36_11 1_555 1_555
C42_11 O9_11 1_555 1_555
C43_13 O10_13 1_555 1_555
C44_13 C43_13 1_555 1_555
H48_13 C44_13 1_555 1_555
H49_13 C44_13 1_555 1_555
C45_13 C44_13 1_555 1_555
H50_13 C45_13 1_555 1_555
H51_13 C45_13 1_555 1_555
C46_13 C45_13 1_555 1_555
H52_13 C46_13 1_555 1_555
H53_10 C46_13 1_555 1_555
C47_10 C46_13 1_555 1_555
H54_10 C47_10 1_555 1_555
H55_10 C47_10 1_555 1_555
N2_11 C8_11 1_555 1_555
C5_10 C6_8 1_555 1_555
C6_8 C7_8 1_555 1_555
N7_11 N8_11 1_555 1_555
N7_11 C42_11 1_555 1_555
N8_11 C43_13 1_555 1_555
C40_11 C41_11 1_555 1_555
C41_11 C42_11 1_555 1_555
Mn1_12 O1_9 1_555 1_555
O1_9 C1_9 1_555 1_555
O3_12 Mn1_12 1_555 1_555
O4_9 Mn1_12 1_555 1_555
N1_12 Mn1_12 1_555 1_555
N2_12 N1_12 1_555 1_555
N3_9 C14_12 1_555 1_555
C1_9 C2_11 1_555 1_555
C2_11 H1_11 1_555 1_555
C3_11 C2_11 1_555 1_555
H2_11 C3_11 1_555 1_555
C4_11 C3_11 1_555 1_555
C5_11 C4_11 1_555 1_555
H4_11 C5_11 1_555 1_555
C6_9 C1_9 1_555 1_555
C7_9 N1_12 1_555 1_555
C8_12 O3_12 1_555 1_555
H8_12 C10_12 1_555 1_555
H11_12 C12_12 1_555 1_555
C14_12 O4_9 1_555 1_555
H16_12 C14_12 1_555 1_555
C15_12 N3_9 1_555 1_555
H17_12 C15_12 1_555 1_555
H18_12 C15_12 1_555 1_555
H19_12 C15_12 1_555 1_555
C16_9 N3_9 1_555 1_555
H20_9 C16_9 1_555 1_555
H21_9 C16_9 1_555 1_555
H22_9 C16_9 1_555 1_555
Mn3_6 O8_12 1_555 1_555
O8_12 C36_12 1_555 1_555
O9_12 Mn1_12 1_555 1_555
O10_14 Mn3_6 1_555 1_555
N7_12 Mn3_6 1_555 1_555
N8_12 Mn1_12 1_555 1_555
C36_12 C37_12 1_555 1_555
C37_12 H44_12 1_555 1_555
C38_12 C37_12 1_555 1_555
H45_12 C38_12 1_555 1_555
C39_12 C38_12 1_555 1_555
H46_12 C39_12 1_555 1_555
C40_12 C39_12 1_555 1_555
H47_12 C40_12 1_555 1_555
C41_12 C36_12 1_555 1_555
C42_12 O9_12 1_555 1_555
C43_14 O10_14 1_555 1_555
C44_14 C43_14 1_555 1_555
H48_14 C44_14 1_555 1_555
H49_14 C44_14 1_555 1_555
C45_14 C44_14 1_555 1_555
H50_14 C45_14 1_555 1_555
H51_14 C45_14 1_555 1_555
C46_14 C45_14 1_555 1_555
H52_14 C46_14 1_555 1_555
H53_11 C46_14 1_555 1_555
C47_11 C46_14 1_555 1_555
H54_11 C47_11 1_555 1_555
H55_11 C47_11 1_555 1_555
O11_6 Mn3_6 1_555 1_555
N10_6 Mn3_6 1_555 1_555
N11_7 Mn3_6 1_555 1_555
N2_12 C8_12 1_555 1_555
C5_11 C6_9 1_555 1_555
C6_9 C7_9 1_555 1_555
N7_12 N8_12 1_555 1_555
N7_12 C42_12 1_555 1_555
N8_12 C43_14 1_555 1_555
C40_12 C41_12 1_555 1_555
C41_12 C42_12 1_555 1_555
H5_12 C9_12 1_555 1_555
H6_12 C9_12 1_555 1_555
H10_12 C11_12 1_555 1_555
H13_12 C13_12 1_555 1_555
Mn2_12 O2_9 1_555 1_555
O5_9 Mn2_12 1_555 1_555
O11_6 C23_12 1_555 1_555
O7_14 Mn2_12 1_555 1_555
N4_12 Mn2_12 1_555 1_555
N10_6 N4_12 1_555 1_555
N6_9 Mn2_12 1_555 1_555
C17_9 O5_9 1_555 1_555
C18_9 C17_9 1_555 1_555
H23_9 C18_9 1_555 1_555
C19_9 C18_9 1_555 1_555
H24_9 C19_9 1_555 1_555
C20_12 C19_9 1_555 1_555
H25_12 C20_12 1_555 1_555
C21_12 C20_12 1_555 1_555
H26_12 C21_12 1_555 1_555
C22_12 C17_9 1_555 1_555
C23_12 N4_12 1_555 1_555
C24_14 O7_14 1_555 1_555
C25_14 C24_14 1_555 1_555
H27_14 C25_14 1_555 1_555
H28_14 C25_14 1_555 1_555
C26_14 C25_14 1_555 1_555
H29_14 C26_14 1_555 1_555
H30_14 C26_14 1_555 1_555
C27_14 C26_14 1_555 1_555
H31_14 C27_14 1_555 1_555
H32_14 C27_14 1_555 1_555
C28_14 C27_14 1_555 1_555
H33_14 C28_14 1_555 1_555
H34_11 C28_14 1_555 1_555
C29_14 C28_14 1_555 1_555
H35_14 C29_14 1_555 1_555
H36_11 C29_14 1_555 1_555
H37_14 C29_14 1_555 1_555
C30_9 N6_9 1_555 1_555
H38_9 C30_9 1_555 1_555
C31_9 C30_9 1_555 1_555
H39_9 C31_9 1_555 1_555
C32_11 N6_9 1_555 1_555
H40_11 C32_11 1_555 1_555
C33_11 C32_11 1_555 1_555
H41_11 C33_11 1_555 1_555
C34_11 C31_9 1_555 1_555
C35_11 C34_11 1_555 1_555
H42_11 C35_11 1_555 1_555
H43_11 C35_11 1_555 1_555
H56_11 C48_11 1_555 1_555
H57_11 C48_11 1_555 1_555
H58_11 C48_11 1_555 1_555
N10_6 C24_14 1_555 1_555
C21_12 C22_12 1_555 1_555
C22_12 C23_12 1_555 1_555
C33_11 C34_11 1_555 1_555
O1_10 C1_10 1_555 1_555
O2_10 C7_10 1_555 1_555
C1_10 C2_12 1_555 1_555
C2_12 H1_12 1_555 1_555
C3_12 C2_12 1_555 1_555
H2_12 C3_12 1_555 1_555
C4_12 C3_12 1_555 1_555
H3_11 C4_12 1_555 1_555
C5_12 C4_12 1_555 1_555
H4_12 C5_12 1_555 1_555
C6_10 C1_10 1_555 1_555
C16_10 N3_10 1_555 1_555
H20_10 C16_10 1_555 1_555
H21_10 C16_10 1_555 1_555
H22_10 C16_10 1_555 1_555
C17_10 O5_10 1_555 1_555
C18_10 C17_10 1_555 1_555
H23_10 C18_10 1_555 1_555
C19_10 C18_10 1_555 1_555
H24_10 C19_10 1_555 1_555
C30_10 N6_10 1_555 1_555
H38_10 C30_10 1_555 1_555
C31_10 C30_10 1_555 1_555
H39_10 C31_10 1_555 1_555
C32_12 N6_10 1_555 1_555
H40_12 C32_12 1_555 1_555
C33_12 C32_12 1_555 1_555
H41_12 C33_12 1_555 1_555
C34_12 C31_10 1_555 1_555
C35_12 C34_12 1_555 1_555
H42_12 C35_12 1_555 1_555
H43_12 C35_12 1_555 1_555
N11_7 C49_14 1_555 1_555
H54_12 C47_12 1_555 1_555
H55_12 C47_12 1_555 1_555
C48_12 C47_12 1_555 1_555
H56_12 C48_12 1_555 1_555
H57_12 C48_12 1_555 1_555
H58_12 C48_12 1_555 1_555
C49_14 H59_14 1_555 1_555
C50_14 C49_14 1_555 1_555
H60_14 C50_14 1_555 1_555
C51_14 N11_7 1_555 1_555
H61_12 C51_14 1_555 1_555
C52_14 C51_14 1_555 1_555
H62_14 C52_14 1_555 1_555
C53_14 C50_14 1_555 1_555
C54_14 C35_12 1_555 1_555
H63_14 C54_14 1_555 1_555
H64_14 C54_14 1_555 1_555
C5_12 C6_10 1_555 1_555
C6_10 C7_10 1_555 1_555
C33_12 C34_12 1_555 1_555
C52_14 C53_14 1_555 1_555
C53_14 C54_14 1_555 1_555
O1_11 C1_11 1_555 1_555
O2_11 C7_11 1_555 1_555
C1_11 C2_13 1_555 1_555
C2_13 H1_13 1_555 1_555
C3_13 C2_13 1_555 1_555
H2_13 C3_13 1_555 1_555
C4_13 C3_13 1_555 1_555
H3_12 C4_13 1_555 1_555
C5_13 C4_13 1_555 1_555
H4_13 C5_13 1_555 1_555
C6_11 C1_11 1_555 1_555
C16_11 N3_11 1_555 1_555
H20_11 C16_11 1_555 1_555
H21_11 C16_11 1_555 1_555
H22_11 C16_11 1_555 1_555
C17_11 O5_11 1_555 1_555
C18_11 C17_11 1_555 1_555
H23_11 C18_11 1_555 1_555
C19_11 C18_11 1_555 1_555
H24_11 C19_11 1_555 1_555
C30_11 N6_11 1_555 1_555
H38_11 C30_11 1_555 1_555
C31_11 C30_11 1_555 1_555
H39_11 C31_11 1_555 1_555
C32_13 N6_11 1_555 1_555
H40_13 C32_13 1_555 1_555
C33_13 C32_13 1_555 1_555
H41_13 C33_13 1_555 1_555
C34_13 C31_11 1_555 1_555
C35_13 C34_13 1_555 1_555
H42_13 C35_13 1_555 1_555
H43_13 C35_13 1_555 1_555
N9_8 C49_15 1_555 1_555
H54_13 C47_13 1_555 1_555
H55_13 C47_13 1_555 1_555
C48_13 C47_13 1_555 1_555
H56_13 C48_13 1_555 1_555
H57_13 C48_13 1_555 1_555
H58_13 C48_13 1_555 1_555
C49_15 H59_15 1_555 1_555
C50_15 C49_15 1_555 1_555
H60_15 C50_15 1_555 1_555
C51_15 N9_8 1_555 1_555
H61_13 C51_15 1_555 1_555
C52_15 C51_15 1_555 1_555
H62_15 C52_15 1_555 1_555
C53_15 C50_15 1_555 1_555
C54_15 C35_13 1_555 1_555
H63_15 C54_15 1_555 1_555
H64_15 C54_15 1_555 1_555
Mn5_3 N9_8 1_555 1_555
C5_13 C6_11 1_555 1_555
C6_11 C7_11 1_555 1_555
C33_13 C34_13 1_555 1_555
C52_15 C53_15 1_555 1_555
C53_15 C54_15 1_555 1_555
H5_13 C9_13 1_555 1_555
H6_13 C9_13 1_555 1_555
H10_13 C11_13 1_555 1_555
H13_13 C13_13 1_555 1_555
Mn2_13 O2_12 1_555 1_555
O5_12 Mn2_13 1_555 1_555
O6_7 C23_13 1_555 1_555
N4_13 Mn2_13 1_555 1_555
N5_7 N4_13 1_555 1_555
N6_12 Mn2_13 1_555 1_555
C17_12 O5_12 1_555 1_555
C18_12 C17_12 1_555 1_555
H23_12 C18_12 1_555 1_555
C19_12 C18_12 1_555 1_555
H24_12 C19_12 1_555 1_555
C20_13 C19_12 1_555 1_555
H25_13 C20_13 1_555 1_555
C21_13 C20_13 1_555 1_555
H26_13 C21_13 1_555 1_555
C22_13 C17_12 1_555 1_555
C23_13 N4_13 1_555 1_555
C30_12 N6_12 1_555 1_555
H38_12 C30_12 1_555 1_555
C31_12 C30_12 1_555 1_555
H39_12 C31_12 1_555 1_555
Mn5_3 O6_7 1_555 1_555
N5_7 Mn5_3 1_555 1_555
C21_13 C22_13 1_555 1_555
C22_13 C23_13 1_555 1_555
C2_14 H1_14 1_555 1_555
C3_14 C2_14 1_555 1_555
H2_14 C3_14 1_555 1_555
C4_14 C3_14 1_555 1_555
C5_14 C4_14 1_555 1_555
H4_14 C5_14 1_555 1_555
Mn5_3 O8_13 1_555 1_555
O10_15 Mn5_3 1_555 1_555
C43_15 O10_15 1_555 1_555
C44_15 C43_15 1_555 1_555
H48_15 C44_15 1_555 1_555
H49_15 C44_15 1_555 1_555
C45_15 C44_15 1_555 1_555
H50_15 C45_15 1_555 1_555
H51_15 C45_15 1_555 1_555
C46_15 C45_15 1_555 1_555
H52_15 C46_15 1_555 1_555
H53_14 C46_15 1_555 1_555
C47_14 C46_15 1_555 1_555
H54_14 C47_14 1_555 1_555
H55_14 C47_14 1_555 1_555
Mn3_7 O8_14 1_555 1_555
O11_7 Mn3_7 1_555 1_555
N10_7 Mn3_7 1_555 1_555
Mn1_13 O1_12 1_555 1_555
O1_12 C1_12 1_555 1_555
O2_13 C7_12 1_555 1_555
O3_13 Mn1_13 1_555 1_555
O4_12 Mn1_13 1_555 1_555
N1_13 Mn1_13 1_555 1_555
N2_13 N1_13 1_555 1_555
N3_12 C14_13 1_555 1_555
C6_12 C1_12 1_555 1_555
C7_12 N1_13 1_555 1_555
C8_13 O3_13 1_555 1_555
C9_14 C8_13 1_555 1_555
H5_14 C9_14 1_555 1_555
H6_14 C9_14 1_555 1_555
C10_13 C9_14 1_555 1_555
H7_14 C10_13 1_555 1_555
H8_13 C10_13 1_555 1_555
C11_14 C10_13 1_555 1_555
H9_13 C11_14 1_555 1_555
H10_14 C11_14 1_555 1_555
C12_13 C11_14 1_555 1_555
H11_13 C12_13 1_555 1_555
H12_14 C12_13 1_555 1_555
C13_14 C12_13 1_555 1_555
H13_14 C13_14 1_555 1_555
H14_13 C13_14 1_555 1_555
H15_12 C13_14 1_555 1_555
C14_13 O4_12 1_555 1_555
H16_13 C14_13 1_555 1_555
C15_13 N3_12 1_555 1_555
H17_13 C15_13 1_555 1_555
H18_13 C15_13 1_555 1_555
H19_13 C15_13 1_555 1_555
C16_12 N3_12 1_555 1_555
H20_12 C16_12 1_555 1_555
H21_12 C16_12 1_555 1_555
H22_12 C16_12 1_555 1_555
Mn2_14 O2_13 1_555 1_555
O5_13 Mn2_14 1_555 1_555
O11_7 C23_14 1_555 1_555
N4_14 Mn2_14 1_555 1_555
N10_7 N4_14 1_555 1_555
N6_13 Mn2_14 1_555 1_555
C17_13 O5_13 1_555 1_555
C18_13 C17_13 1_555 1_555
H23_13 C18_13 1_555 1_555
C19_13 C18_13 1_555 1_555
H24_13 C19_13 1_555 1_555
C20_14 C19_13 1_555 1_555
H25_14 C20_14 1_555 1_555
C21_14 C20_14 1_555 1_555
H26_14 C21_14 1_555 1_555
C22_14 C17_13 1_555 1_555
C23_14 N4_14 1_555 1_555
C30_13 N6_13 1_555 1_555
H38_13 C30_13 1_555 1_555
C31_13 C30_13 1_555 1_555
H39_13 C31_13 1_555 1_555
O9_13 Mn1_13 1_555 1_555
N8_13 Mn1_13 1_555 1_555
H46_13 C39_13 1_555 1_555
C40_13 C39_13 1_555 1_555
H47_13 C40_13 1_555 1_555
C42_13 O9_13 1_555 1_555
N2_13 C8_13 1_555 1_555
N2_13 Mn2_14 1_555 1_555
C6_12 C7_12 1_555 1_555
C21_14 C22_14 1_555 1_555
C22_14 C23_14 1_555 1_555
N7_13 N8_13 1_555 1_555
N7_13 C42_13 1_555 1_555
C40_13 C41_13 1_555 1_555
C41_13 C42_13 1_555 1_555
Mn1_14 O1_13 1_555 1_555
O1_13 C1_13 1_555 1_555
O2_14 C7_13 1_555 1_555
O3_14 Mn1_14 1_555 1_555
O4_13 Mn1_14 1_555 1_555
N1_14 Mn1_14 1_555 1_555
N2_14 N1_14 1_555 1_555
N3_13 C14_14 1_555 1_555
C6_13 C1_13 1_555 1_555
C7_13 N1_14 1_555 1_555
C8_14 O3_14 1_555 1_555
C9_15 C8_14 1_555 1_555
H5_15 C9_15 1_555 1_555
H6_15 C9_15 1_555 1_555
C10_14 C9_15 1_555 1_555
H7_15 C10_14 1_555 1_555
H8_14 C10_14 1_555 1_555
C11_15 C10_14 1_555 1_555
H9_14 C11_15 1_555 1_555
H10_15 C11_15 1_555 1_555
C12_14 C11_15 1_555 1_555
H11_14 C12_14 1_555 1_555
H12_15 C12_14 1_555 1_555
C13_15 C12_14 1_555 1_555
H13_15 C13_15 1_555 1_555
H14_14 C13_15 1_555 1_555
H15_13 C13_15 1_555 1_555
C14_14 O4_13 1_555 1_555
H16_14 C14_14 1_555 1_555
C15_14 N3_13 1_555 1_555
H17_14 C15_14 1_555 1_555
H18_14 C15_14 1_555 1_555
H19_14 C15_14 1_555 1_555
C16_13 N3_13 1_555 1_555
H20_13 C16_13 1_555 1_555
H21_13 C16_13 1_555 1_555
H22_13 C16_13 1_555 1_555
Mn2_15 O2_14 1_555 1_555
O5_14 Mn2_15 1_555 1_555
O6_8 C23_15 1_555 1_555
N4_15 Mn2_15 1_555 1_555
N5_8 N4_15 1_555 1_555
N6_14 Mn2_15 1_555 1_555
C17_14 O5_14 1_555 1_555
C18_14 C17_14 1_555 1_555
H23_14 C18_14 1_555 1_555
C19_14 C18_14 1_555 1_555
H24_14 C19_14 1_555 1_555
C20_15 C19_14 1_555 1_555
H25_15 C20_15 1_555 1_555
C21_15 C20_15 1_555 1_555
H26_15 C21_15 1_555 1_555
C22_15 C17_14 1_555 1_555
C23_15 N4_15 1_555 1_555
C30_14 N6_14 1_555 1_555
H38_14 C30_14 1_555 1_555
C31_14 C30_14 1_555 1_555
H39_14 C31_14 1_555 1_555
O9_14 Mn1_14 1_555 1_555
N8_14 Mn1_14 1_555 1_555
H46_14 C39_14 1_555 1_555
C40_14 C39_14 1_555 1_555
H47_14 C40_14 1_555 1_555
C42_14 O9_14 1_555 1_555
Mn4_5 O6_8 1_555 1_555
N2_14 C8_14 1_555 1_555
N2_14 Mn2_15 1_555 1_555
C6_13 C7_13 1_555 1_555
N5_8 Mn4_5 1_555 1_555
C21_15 C22_15 1_555 1_555
C22_15 C23_15 1_555 1_555
N7_14 N8_14 1_555 1_555
N7_14 C42_14 1_555 1_555
C40_14 C41_14 1_555 1_555
C41_14 C42_14 1_555 1_555
Mn4_5 O8_15 1_555 1_555
C36_13 C37_13 1_555 1_555
C37_13 H44_13 1_555 1_555
C38_13 C37_13 1_555 1_555
H45_13 C38_13 1_555 1_555
Mn1_15 O1_14 1_555 1_555
O1_14 C1_14 1_555 1_555
O3_15 Mn1_15 1_555 1_555
O4_14 Mn1_15 1_555 1_555
N1_15 Mn1_15 1_555 1_555
N2_15 N1_15 1_555 1_555
N3_14 C14_15 1_555 1_555
C6_14 C1_14 1_555 1_555
C7_14 N1_15 1_555 1_555
C8_15 O3_15 1_555 1_555
H8_15 C10_15 1_555 1_555
H11_15 C12_15 1_555 1_555
C14_15 O4_14 1_555 1_555
H16_15 C14_15 1_555 1_555
C15_15 N3_14 1_555 1_555
H17_15 C15_15 1_555 1_555
H18_15 C15_15 1_555 1_555
H19_15 C15_15 1_555 1_555
C16_14 N3_14 1_555 1_555
H20_14 C16_14 1_555 1_555
H21_14 C16_14 1_555 1_555
H22_14 C16_14 1_555 1_555
O9_15 Mn1_15 1_555 1_555
N8_15 Mn1_15 1_555 1_555
C36_14 C37_14 1_555 1_555
C37_14 H44_14 1_555 1_555
C38_14 C37_14 1_555 1_555
H45_14 C38_14 1_555 1_555
C39_15 C38_14 1_555 1_555
H46_15 C39_15 1_555 1_555
C40_15 C39_15 1_555 1_555
H47_15 C40_15 1_555 1_555
C41_15 C36_14 1_555 1_555
C42_15 O9_15 1_555 1_555
N2_15 C8_15 1_555 1_555
C6_14 C7_14 1_555 1_555
N7_15 N8_15 1_555 1_555
N7_15 C42_15 1_555 1_555
C40_15 C41_15 1_555 1_555
C41_15 C42_15 1_555 1_555
C2_15 H1_15 1_555 1_555
C3_15 C2_15 1_555 1_555
H2_15 C3_15 1_555 1_555
C4_15 C3_15 1_555 1_555
C5_15 C4_15 1_555 1_555
H4_15 C5_15 1_555 1_555
Mn3_8 O8_16 1_555 1_555
O10_16 Mn3_8 1_555 1_555
C43_16 O10_16 1_555 1_555
C44_16 C43_16 1_555 1_555
H48_16 C44_16 1_555 1_555
H49_16 C44_16 1_555 1_555
C45_16 C44_16 1_555 1_555
H50_16 C45_16 1_555 1_555
H51_16 C45_16 1_555 1_555
C46_16 C45_16 1_555 1_555
H52_16 C46_16 1_555 1_555
H53_15 C46_16 1_555 1_555
C47_15 C46_16 1_555 1_555
H54_15 C47_15 1_555 1_555
H55_15 C47_15 1_555 1_555
O11_8 Mn3_8 1_555 1_555
N10_8 Mn3_8 1_555 1_555
N11_8 Mn3_8 1_555 1_555
O1_15 C1_15 1_555 1_555
O2_15 C7_15 1_555 1_555
C1_15 C2_16 1_555 1_555
C2_16 H1_16 1_555 1_555
C3_16 C2_16 1_555 1_555
H2_16 C3_16 1_555 1_555
C4_16 C3_16 1_555 1_555
H3_14 C4_16 1_555 1_555
C5_16 C4_16 1_555 1_555
H4_16 C5_16 1_555 1_555
C6_15 C1_15 1_555 1_555
C16_15 N3_15 1_555 1_555
H20_15 C16_15 1_555 1_555
H21_15 C16_15 1_555 1_555
H22_15 C16_15 1_555 1_555
C17_15 O5_15 1_555 1_555
C18_15 C17_15 1_555 1_555
H23_15 C18_15 1_555 1_555
C19_15 C18_15 1_555 1_555
H24_15 C19_15 1_555 1_555
C30_15 N6_15 1_555 1_555
H38_15 C30_15 1_555 1_555
C31_15 C30_15 1_555 1_555
H39_15 C31_15 1_555 1_555
C32_14 N6_15 1_555 1_555
H40_14 C32_14 1_555 1_555
C33_14 C32_14 1_555 1_555
H41_14 C33_14 1_555 1_555
C34_14 C31_15 1_555 1_555
C35_14 C34_14 1_555 1_555
H42_14 C35_14 1_555 1_555
H43_14 C35_14 1_555 1_555
N11_8 C49_16 1_555 1_555
H54_16 C47_16 1_555 1_555
H55_16 C47_16 1_555 1_555
C48_14 C47_16 1_555 1_555
H56_14 C48_14 1_555 1_555
H57_14 C48_14 1_555 1_555
H58_14 C48_14 1_555 1_555
C49_16 H59_16 1_555 1_555
C50_16 C49_16 1_555 1_555
H60_16 C50_16 1_555 1_555
C51_16 N11_8 1_555 1_555
H61_16 C51_16 1_555 1_555
C52_16 C51_16 1_555 1_555
H62_16 C52_16 1_555 1_555
C53_16 C50_16 1_555 1_555
C54_16 C35_14 1_555 1_555
H63_16 C54_16 1_555 1_555
H64_16 C54_16 1_555 1_555
C5_16 C6_15 1_555 1_555
C6_15 C7_15 1_555 1_555
C33_14 C34_14 1_555 1_555
C52_16 C53_16 1_555 1_555
C53_16 C54_16 1_555 1_555
H5_16 C9_16 1_555 1_555
H6_16 C9_16 1_555 1_555
H10_16 C11_16 1_555 1_555
H13_16 C13_16 1_555 1_555
Mn2_16 O2_16 1_555 1_555
O5_16 Mn2_16 1_555 1_555
O11_8 C23_16 1_555 1_555
N4_16 Mn2_16 1_555 1_555
N10_8 N4_16 1_555 1_555
N6_16 Mn2_16 1_555 1_555
C17_16 O5_16 1_555 1_555
C18_16 C17_16 1_555 1_555
H23_16 C18_16 1_555 1_555
C19_16 C18_16 1_555 1_555
H24_16 C19_16 1_555 1_555
C20_16 C19_16 1_555 1_555
H25_16 C20_16 1_555 1_555
C21_16 C20_16 1_555 1_555
H26_16 C21_16 1_555 1_555
C22_16 C17_16 1_555 1_555
C23_16 N4_16 1_555 1_555
C30_16 N6_16 1_555 1_555
H38_16 C30_16 1_555 1_555
C31_16 C30_16 1_555 1_555
H39_16 C31_16 1_555 1_555
C21_16 C22_16 1_555 1_555
C22_16 C23_16 1_555 1_555
C24_15 O7_15 1_555 1_555
C25_15 C24_15 1_555 1_555
H27_15 C25_15 1_555 1_555
H28_15 C25_15 1_555 1_555
C26_15 C25_15 1_555 1_555
H29_15 C26_15 1_555 1_555
H30_15 C26_15 1_555 1_555
C27_15 C26_15 1_555 1_555
H31_15 C27_15 1_555 1_555
H32_15 C27_15 1_555 1_555
C28_15 C27_15 1_555 1_555
H33_15 C28_15 1_555 1_555
H34_15 C28_15 1_555 1_555
C29_15 C28_15 1_555 1_555
H35_15 C29_15 1_555 1_555
H36_15 C29_15 1_555 1_555
H37_15 C29_15 1_555 1_555
H40_15 C32_15 1_555 1_555
C33_15 C32_15 1_555 1_555
H41_15 C33_15 1_555 1_555
C35_15 C34_15 1_555 1_555
H42_15 C35_15 1_555 1_555
H43_15 C35_15 1_555 1_555
H56_15 C48_15 1_555 1_555
H57_15 C48_15 1_555 1_555
H58_15 C48_15 1_555 1_555
C33_15 C34_15 1_555 1_555
C36_15 C37_15 1_555 1_555
C37_15 H44_15 1_555 1_555
C38_15 C37_15 1_555 1_555
H45_15 C38_15 1_555 1_555
C24_16 O7_16 1_555 1_555
C25_16 C24_16 1_555 1_555
H27_16 C25_16 1_555 1_555
H28_16 C25_16 1_555 1_555
C26_16 C25_16 1_555 1_555
H29_16 C26_16 1_555 1_555
H30_16 C26_16 1_555 1_555
C27_16 C26_16 1_555 1_555
H31_16 C27_16 1_555 1_555
H32_16 C27_16 1_555 1_555
C28_16 C27_16 1_555 1_555
H33_16 C28_16 1_555 1_555
H34_16 C28_16 1_555 1_555
C29_16 C28_16 1_555 1_555
H35_16 C29_16 1_555 1_555
H36_16 C29_16 1_555 1_555
H37_16 C29_16 1_555 1_555
H40_16 C32_16 1_555 1_555
C33_16 C32_16 1_555 1_555
H41_16 C33_16 1_555 1_555
C35_16 C34_16 1_555 1_555
H42_16 C35_16 1_555 1_555
H43_16 C35_16 1_555 1_555
H56_16 C48_16 1_555 1_555
H57_16 C48_16 1_555 1_555
H58_16 C48_16 1_555 1_555
C33_16 C34_16 1_555 1_555
Mn1_16 O1_16 1_555 1_555
O1_16 C1_16 1_555 1_555
O3_16 Mn1_16 1_555 1_555
O4_16 Mn1_16 1_555 1_555
N1_16 Mn1_16 1_555 1_555
N2_16 N1_16 1_555 1_555
N3_16 C14_16 1_555 1_555
C6_16 C1_16 1_555 1_555
C7_16 N1_16 1_555 1_555
C8_16 O3_16 1_555 1_555
H8_16 C10_16 1_555 1_555
H11_16 C12_16 1_555 1_555
C14_16 O4_16 1_555 1_555
H16_16 C14_16 1_555 1_555
C15_16 N3_16 1_555 1_555
H17_16 C15_16 1_555 1_555
H18_16 C15_16 1_555 1_555
H19_16 C15_16 1_555 1_555
C16_16 N3_16 1_555 1_555
H20_16 C16_16 1_555 1_555
H21_16 C16_16 1_555 1_555
H22_16 C16_16 1_555 1_555
O9_16 Mn1_16 1_555 1_555
N8_16 Mn1_16 1_555 1_555
C36_16 C37_16 1_555 1_555
C37_16 H44_16 1_555 1_555
C38_16 C37_16 1_555 1_555
H45_16 C38_16 1_555 1_555
C39_16 C38_16 1_555 1_555
H46_16 C39_16 1_555 1_555
C40_16 C39_16 1_555 1_555
H47_16 C40_16 1_555 1_555
C41_16 C36_16 1_555 1_555
C42_16 O9_16 1_555 1_555
N2_16 C8_16 1_555 1_555
C6_16 C7_16 1_555 1_555
N7_16 N8_16 1_555 1_555
N7_16 C42_16 1_555 1_555
C40_16 C41_16 1_555 1_555
C41_16 C42_16 1_555 1_555

#END
