
###############################################################################
#
# This file contains modified crystal structure data generated from the
# MOF subset of the Cambridge Structural Database (CSD) v543 
# hosted by the Cambridge Crystallographic Data Centre (CCDC).
#
# This work is licensed under the Creative Commons
# Attribution-NonCommercial-ShareAlike 4.0 International License.
# To view a copy of this license, visit
# http://creativecommons.org/licenses/by-nc-sa/4.0/
# or send a letter to
# Creative Commons, PO Box 1866, Mountain View, CA 94042, USA.
#
# CIF created using the CSD Python API on 29 September 2022
# The structure has been converted into the P1 space group
# The structure has a 3D framework
# The original CSD entry XALDAQ is in the tetragonal crystal system
# The framework has been calculated to contain at least 10.0% void space
# The void calculation uses a probe of radius 1.32A, grid spacing 0.4
#
###############################################################################

data_XALDAQ
_chemical_formula_moiety         '(C864 H1024 Mn48 N144 O156)n'
_symmetry_cell_setting           triclinic
_symmetry_space_group_name_H-M   'P 1'
_symmetry_Int_Tables_number      1
_space_group_name_Hall           'P 1'
loop_
_symmetry_equiv_pos_site_id
_symmetry_equiv_pos_as_xyz
1 x,y,z
_cell_length_a                   40.792(6)
_cell_length_b                   40.792(6)
_cell_length_c                   17.442(4)
_cell_angle_alpha                90
_cell_angle_beta                 90
_cell_angle_gamma                90
_cell_volume                     29023.3
loop_
_atom_site_label
_atom_site_type_symbol
_atom_site_fract_x
_atom_site_fract_y
_atom_site_fract_z
Mn1 Mn 0.219944(15) 0.636424(15) 0.27451(4)
O1 O 0.24171(7) 0.60066(7) 0.31488(17)
O2 O 0.29824(7) 0.63183(6) 0.12264(17)
O3 O 0.20261(6) 0.67397(7) 0.22115(17)
N1 N 0.25480(8) 0.64318(8) 0.19977(19)
N2 N 0.25063(8) 0.67136(8) 0.1537(2)
N3 N 0.19179(9) 0.60406(9) 0.1900(2)
C1 C 0.26610(10) 0.58332(10) 0.2844(2)
C2 C 0.27379(12) 0.55336(11) 0.3190(3)
H1 H 0.2616 0.5465 0.3626
C3 C 0.29813(12) 0.53371(12) 0.2921(3)
H2 H 0.3026 0.5134 0.3168
C4 C 0.31659(11) 0.54308(11) 0.2286(3)
H3 H 0.3336 0.5294 0.2094
C5 C 0.30956(10) 0.57243(10) 0.1947(3)
H4 H 0.3222 0.5791 0.1517
C6 C 0.28477(9) 0.59296(10) 0.2201(3)
C7 C 0.27943(10) 0.62430(10) 0.1786(3)
C8 C 0.22268(10) 0.68524(10) 0.1693(3)
C9 C 0.21167(12) 0.71462(11) 0.1241(3)
H5 H 0.2306 0.7241 0.0964
H6 H 0.2029 0.7315 0.1593
C10 C 0.18398(16) 0.70429(16) 0.0641(4)
H7 H 0.1933 0.6891 0.0255
H8 H 0.1659 0.6929 0.0910
C11 C 0.1710(4) 0.7348(3) 0.0250(7)
H9 H 0.1535 0.7443 0.0573
H10 H 0.1890 0.7511 0.0221
C14 C 0.17131(11) 0.58079(11) 0.2133(3)
H16 H 0.1689 0.5771 0.2668
C15 C 0.15344(12) 0.56177(13) 0.1632(3)
H17 H 0.1397 0.5448 0.1823
C16 C 0.15545(13) 0.56728(15) 0.0862(3)
C17 C 0.17734(14) 0.59128(14) 0.0624(3)
H18 H 0.1802 0.5954 0.0092
C18 C 0.19470(12) 0.60896(13) 0.1144(3)
H19 H 0.2094 0.6253 0.0966
C19 C 0.13430(19) 0.5470(2) 0.0314(4)
H20 H 0.1359 0.5237 0.0472
H21 H 0.1112 0.5538 0.0384
Mn2 Mn 0.291024(15) 0.673347(15) 0.06719(4)
O6 O 0.31741(6) 0.69848(6) 0.13759(16)
N4 N 0.28690(8) 0.71624(8) 0.0208(2)
N5 N 0.30219(8) 0.74192(8) 0.0625(2)
C27 C 0.31685(10) 0.73013(10) 0.1222(2)
C28 C 0.33439(11) 0.75266(10) 0.1769(3)
H26 H 0.3243 0.7508 0.2283
H27 H 0.3317 0.7756 0.1593
C29 C 0.37079(12) 0.74474(11) 0.1828(3)
H28 H 0.3734 0.7215 0.1976
H29 H 0.3806 0.7583 0.2239
C30 C 0.38943(12) 0.75078(14) 0.1084(4)
H30 H 0.3806 0.7361 0.0683
H31 H 0.3855 0.7736 0.0917
C31 C 0.42600(15) 0.74522(17) 0.1150(5)
H32 H 0.4300 0.7224 0.1319
H33 H 0.4350 0.7601 0.1546
C32 C 0.44383(17) 0.7512(2) 0.0396(6)
H34 H 0.4353 0.7363 0.0004
H35 H 0.4673 0.7473 0.0466
H36 H 0.4404 0.7739 0.0233
C33 C 0.36308(13) 0.66120(12) 0.0263(3)
H37 H 0.3653 0.6690 0.0774
C35 C 0.42133(14) 0.64947(19) 0.0297(5)
H41 H 0.4369 0.6642 0.0042
H42 H 0.4297 0.6270 0.0280
H43 H 0.4186 0.6563 0.0833
Mn3 Mn 0.211750(15) 0.709840(15) 0.49300(4)
O8 O 0.17026(7) 0.70150(7) 0.53195(17)
O9 O 0.18291(6) 0.63458(7) 0.34763(16)
O10 O 0.25349(6) 0.71295(6) 0.44134(16)
N7 N 0.20600(8) 0.67544(7) 0.41672(19)
N8 N 0.23347(8) 0.67167(8) 0.36828(19)
C36 C 0.14940(10) 0.67767(10) 0.5148(3)
C37 C 0.12114(12) 0.67522(11) 0.5603(3)
H44 H 0.1176 0.6905 0.6006
C38 C 0.09855(12) 0.65106(12) 0.5475(3)
H45 H 0.0795 0.6501 0.5787
C39 C 0.10281(11) 0.62802(12) 0.4905(3)
H46 H 0.0873 0.6109 0.4832
C40 C 0.12986(10) 0.63048(11) 0.4447(3)
H47 H 0.1328 0.6151 0.4045
C41 C 0.15344(9) 0.65500(10) 0.4554(2)
C42 C 0.18174(9) 0.65496(9) 0.4033(2)
C43 C 0.25662(10) 0.69145(10) 0.3861(3)
C44 C 0.28937(10) 0.69021(11) 0.3469(3)
H48 H 0.2876 0.6769 0.2996
H49 H 0.2961 0.7127 0.3322
C45 C 0.31533(12) 0.67521(14) 0.4001(3)
H50 H 0.3154 0.6874 0.4492
H51 H 0.3372 0.6780 0.3764
C46 C 0.30986(15) 0.63952(15) 0.4163(4)
H52 H 0.2881 0.6370 0.4406
H53 H 0.3093 0.6276 0.3669
C47 C 0.33538(16) 0.62344(19) 0.4677(4)
H54 H 0.3356 0.6350 0.5177
H55 H 0.3573 0.6263 0.4441
C48 C 0.3297(2) 0.5874(2) 0.4819(6)
H56 H 0.3324 0.5753 0.4338
H57 H 0.3456 0.5794 0.5197
H58 H 0.3074 0.5841 0.5014
O11 O 0.22418(7) 0.74437(7) 0.56767(16)
N10 N 0.19781(8) 0.75808(8) 0.4375(2)
Mn4 Mn 0.288250(15) 0.790160(15) 0.00700(4)
N11 N 0.23778(9) 0.67571(10) 0.5771(2)
O3_2 O 0.57603(7) 0.95261(6) 0.97115(17)
N3_2 N 0.64594(9) 0.94179(9) 0.9400(2)
C8_2 C 0.56476(10) 0.97268(10) 0.9193(3)
C9_2 C 0.53538(11) 0.96167(12) 0.8741(3)
H5_2 H 0.5259 0.9806 0.8464
H6_2 H 0.5185 0.9529 0.9093
C10_2 C 0.54571(16) 0.93398(16) 0.8141(4)
H7_2 H 0.5609 0.9433 0.7755
H8_2 H 0.5571 0.9159 0.8410
C11_2 C 0.5152(3) 0.9210(4) 0.7750(7)
H9_2 H 0.5057 0.9035 0.8073
H10_2 H 0.4989 0.9390 0.7721
C12 C 0.5193(4) 0.9101(5) 0.7106(9)
H11 H 0.5350 0.8916 0.7134
H12 H 0.5294 0.9274 0.6784
C13 C 0.4851(3) 0.8972(3) 0.6685(8)
H13 H 0.4730 0.8830 0.7038
H14 H 0.4907 0.8849 0.6221
H15 H 0.4715 0.9162 0.6548
C14_2 C 0.66921(11) 0.92131(11) 0.9633(3)
C15_2 C 0.68823(13) 0.90344(12) 0.9132(3)
H17_2 H 0.7052 0.8897 0.9323
C16_2 C 0.68272(15) 0.90545(13) 0.8362(3)
C17_2 C 0.65872(14) 0.92734(14) 0.8124(3)
H18_2 H 0.6546 0.9302 0.7592
C18_2 C 0.64104(13) 0.94470(12) 0.8644(3)
H19_2 H 0.6247 0.9594 0.8466
C19_2 C 0.7030(2) 0.88430(19) 0.7814(4)
H20_2 H 0.7263 0.8859 0.7972
H21_2 H 0.6962 0.8612 0.7884
C21 C 0.60069(13) 0.98109(12) 0.6340(3)
H22 H 0.6225 0.9764 0.6493
C22 C 0.58887(16) 0.96830(14) 0.5667(4)
H23 H 0.6028 0.9548 0.5366
C23 C 0.55708(16) 0.97454(14) 0.5413(3)
H24 H 0.5495 0.9665 0.4934
C24 C 0.53711(13) 0.99275(13) 0.5882(3)
H25 H 0.5150 0.9962 0.5732
N9 N 0.76222(9) 0.82429(10) 0.5771(2)
C49 C 0.73212(13) 0.81605(14) 0.6000(3)
H59 H 0.7242 0.7947 0.5883
C50 C 0.71193(16) 0.83732(15) 0.6404(3)
H60 H 0.6905 0.8306 0.6551
C51 C 0.72319(14) 0.86834(17) 0.6589(4)
C52 C 0.75453(13) 0.87564(17) 0.6368(3)
H61 H 0.7638 0.8961 0.6507
C53 C 0.77258(12) 0.85379(13) 0.5951(3)
H62 H 0.7938 0.8603 0.5783
C54 C 0.70130(16) 0.8915(2) 0.7036(4)
H63 H 0.6784 0.8893 0.6857
H64 H 0.7084 0.9144 0.6948
Mn5 Mn 0.788250(15) 0.790160(15) 0.49300(4)
O2_2 O 0.38183(6) 0.45176(7) 0.87264(17)
O3_3 O 0.42397(7) 0.54739(6) 0.97115(17)
N1_2 N 0.39318(8) 0.49520(8) 0.94977(19)
N2_2 N 0.42136(8) 0.49937(8) 0.9037(2)
N3_3 N 0.35406(9) 0.55821(9) 0.9400(2)
C4_2 C 0.29308(11) 0.43341(11) 0.9786(3)
H3_2 H 0.2794 0.4164 0.9594
C5_2 C 0.32243(10) 0.44044(10) 0.9447(3)
H4_2 H 0.3291 0.4278 0.9017
C6_2 C 0.34296(10) 0.46523(9) 0.9701(3)
C7_2 C 0.37430(10) 0.47057(10) 0.9286(3)
C8_3 C 0.43524(10) 0.52732(10) 0.9193(3)
C9_3 C 0.46462(11) 0.53833(12) 0.8741(3)
H5_3 H 0.4741 0.5194 0.8464
H6_3 H 0.4815 0.5471 0.9093
C10_3 C 0.45429(16) 0.56602(16) 0.8141(4)
H7_3 H 0.4391 0.5567 0.7755
H8_3 H 0.4429 0.5841 0.8410
C11_3 C 0.4848(3) 0.5790(4) 0.7750(7)
H9_3 H 0.4943 0.5965 0.8073
H10_3 H 0.5011 0.5610 0.7721
C12_2 C 0.4807(4) 0.5899(5) 0.7106(9)
H11_2 H 0.4650 0.6084 0.7134
H12_2 H 0.4706 0.5726 0.6784
C13_2 C 0.5149(3) 0.6028(3) 0.6685(8)
H13_2 H 0.5270 0.6170 0.7038
H14_2 H 0.5093 0.6151 0.6221
H15_2 H 0.5285 0.5838 0.6548
C14_3 C 0.33079(11) 0.57869(11) 0.9633(3)
C15_3 C 0.31177(13) 0.59656(12) 0.9132(3)
H17_3 H 0.2948 0.6103 0.9323
C16_3 C 0.31728(15) 0.59455(13) 0.8362(3)
C17_3 C 0.34128(14) 0.57266(14) 0.8124(3)
H18_3 H 0.3454 0.5698 0.7592
C18_3 C 0.35896(13) 0.55530(12) 0.8644(3)
H19_3 H 0.3753 0.5406 0.8466
C19_3 C 0.2970(2) 0.61570(19) 0.7814(4)
H20_3 H 0.2737 0.6141 0.7972
H21_3 H 0.3038 0.6388 0.7884
Mn2_2 Mn 0.423347(15) 0.458976(15) 0.81719(4)
O4 O 0.40541(7) 0.48632(7) 0.74264(18)
O5 O 0.50563(7) 0.47418(7) 0.68233(16)
O6_2 O 0.44848(6) 0.43259(6) 0.88759(16)
O7 O 0.41155(7) 0.41393(8) 0.74939(19)
N4_2 N 0.46624(8) 0.46310(8) 0.7708(2)
N5_2 N 0.49192(8) 0.44781(8) 0.8125(2)
N6 N 0.40097(11) 0.35960(11) 0.7414(3)
C20 C 0.41902(11) 0.49905(11) 0.6803(3)
C21_2 C 0.39931(13) 0.51891(12) 0.6340(3)
H22_2 H 0.3775 0.5236 0.6493
C22_2 C 0.41113(16) 0.53170(14) 0.5667(4)
H23_2 H 0.3972 0.5452 0.5366
C23_2 C 0.44292(16) 0.52546(14) 0.5413(3)
H24_2 H 0.4505 0.5335 0.4934
C24_2 C 0.46289(13) 0.50725(13) 0.5882(3)
H25_2 H 0.4850 0.5038 0.5732
C25 C 0.45204(11) 0.49359(10) 0.6570(3)
C26 C 0.47572(11) 0.47626(10) 0.7049(3)
C27_2 C 0.48013(10) 0.43315(10) 0.8722(2)
C28_2 C 0.50266(10) 0.41561(11) 0.9269(3)
H26_2 H 0.5008 0.4257 0.9783
H27_2 H 0.5256 0.4183 0.9093
C29_2 C 0.49474(11) 0.37921(12) 0.9328(3)
H28_2 H 0.4715 0.3766 0.9476
H29_2 H 0.5083 0.3694 0.9739
C30_2 C 0.50078(14) 0.36057(12) 0.8584(4)
H30_2 H 0.4861 0.3694 0.8183
H31_2 H 0.5236 0.3645 0.8417
C31_2 C 0.49522(17) 0.32400(15) 0.8650(5)
H32_2 H 0.4724 0.3200 0.8819
H33_2 H 0.5101 0.3150 0.9046
C32_2 C 0.5012(2) 0.30617(17) 0.7896(6)
H34_2 H 0.4863 0.3147 0.7504
H35_2 H 0.4973 0.2827 0.7966
H36_2 H 0.5239 0.3096 0.7733
C33_2 C 0.41120(12) 0.38692(13) 0.7763(3)
H37_2 H 0.4190 0.3847 0.8274
C34 C 0.38889(17) 0.36051(17) 0.6651(5)
H38 H 0.3901 0.3830 0.6456
H39 H 0.3661 0.3531 0.6644
H40 H 0.4022 0.3461 0.6327
C35_2 C 0.39947(19) 0.32867(14) 0.7797(5)
H41_2 H 0.4142 0.3131 0.7542
H42_2 H 0.3770 0.3203 0.7780
H43_2 H 0.4063 0.3314 0.8333
C49_2 C 0.26788(13) 0.68395(14) 0.6000(3)
H59_2 H 0.2758 0.7053 0.5883
C50_2 C 0.28807(16) 0.66268(15) 0.6404(3)
H60_2 H 0.3095 0.6694 0.6551
C51_2 C 0.27681(14) 0.63166(17) 0.6589(4)
C52_2 C 0.24547(13) 0.62436(17) 0.6368(3)
H61_2 H 0.2362 0.6039 0.6507
C53_2 C 0.22742(12) 0.64621(13) 0.5951(3)
H62_2 H 0.2062 0.6397 0.5783
C54_2 C 0.29870(16) 0.6085(2) 0.7036(4)
H63_2 H 0.3216 0.6107 0.6857
H64_2 H 0.2916 0.5856 0.6948
Mn4_2 Mn 0.540160(15) 0.461750(15) 0.75700(4)
Mn1_2 Mn 0.780056(15) 0.863576(15) 0.27451(4)
O1_2 O 0.75829(7) 0.89934(7) 0.31488(17)
O2_3 O 0.70176(7) 0.86817(6) 0.12264(17)
O3_4 O 0.79739(6) 0.82603(7) 0.22115(17)
N1_3 N 0.74520(8) 0.85682(8) 0.19977(19)
N2_3 N 0.74937(8) 0.82864(8) 0.1537(2)
N3_4 N 0.80821(9) 0.89594(9) 0.1900(2)
C1_2 C 0.73390(10) 0.91668(10) 0.2844(2)
C2_2 C 0.72621(12) 0.94664(11) 0.3190(3)
H1_2 H 0.7384 0.9535 0.3626
C3_2 C 0.70187(12) 0.96629(12) 0.2921(3)
H2_2 H 0.6974 0.9866 0.3168
C4_3 C 0.68341(11) 0.95692(11) 0.2286(3)
H3_3 H 0.6664 0.9706 0.2094
C5_3 C 0.69044(10) 0.92757(10) 0.1947(3)
H4_3 H 0.6778 0.9209 0.1517
C6_3 C 0.71523(9) 0.90704(10) 0.2201(3)
C7_3 C 0.72057(10) 0.87570(10) 0.1786(3)
C8_4 C 0.77732(10) 0.81476(10) 0.1693(3)
C9_4 C 0.78833(12) 0.78538(11) 0.1241(3)
H5_4 H 0.7694 0.7759 0.0964
H6_4 H 0.7971 0.7685 0.1593
C10_4 C 0.81602(16) 0.79571(16) 0.0641(4)
H7_4 H 0.8067 0.8109 0.0255
H8_4 H 0.8341 0.8071 0.0910
C11_4 C 0.8290(4) 0.7652(3) 0.0250(7)
H9_4 H 0.8465 0.7557 0.0573
H10_4 H 0.8110 0.7489 0.0221
C14_4 C 0.82869(11) 0.91921(11) 0.2133(3)
H16_2 H 0.8311 0.9229 0.2668
C15_4 C 0.84656(12) 0.93823(13) 0.1632(3)
H17_4 H 0.8603 0.9552 0.1823
C16_4 C 0.84455(13) 0.93272(15) 0.0862(3)
C17_4 C 0.82266(14) 0.90872(14) 0.0624(3)
H18_4 H 0.8198 0.9046 0.0092
C18_4 C 0.80530(12) 0.89104(13) 0.1144(3)
H19_4 H 0.7906 0.8747 0.0966
C19_4 C 0.86570(19) 0.9530(2) 0.0314(4)
H20_4 H 0.8641 0.9763 0.0472
H21_4 H 0.8888 0.9462 0.0384
Mn2_3 Mn 0.708976(15) 0.826653(15) 0.06719(4)
O6_3 O 0.68259(6) 0.80152(6) 0.13759(16)
N4_3 N 0.71310(8) 0.78376(8) 0.0208(2)
N5_3 N 0.69781(8) 0.75808(8) 0.0625(2)
C27_3 C 0.68315(10) 0.76987(10) 0.1222(2)
C28_3 C 0.66561(11) 0.74734(10) 0.1769(3)
H26_3 H 0.6757 0.7492 0.2283
H27_3 H 0.6683 0.7244 0.1593
C29_3 C 0.62921(12) 0.75526(11) 0.1828(3)
H28_3 H 0.6266 0.7785 0.1976
H29_3 H 0.6194 0.7417 0.2239
C30_3 C 0.61057(12) 0.74922(14) 0.1084(4)
H30_3 H 0.6194 0.7639 0.0683
H31_3 H 0.6145 0.7264 0.0917
C31_3 C 0.57400(15) 0.75478(17) 0.1150(5)
H32_3 H 0.5700 0.7776 0.1319
H33_3 H 0.5650 0.7399 0.1546
C32_3 C 0.55617(17) 0.7488(2) 0.0396(6)
H34_3 H 0.5647 0.7637 0.0004
H35_3 H 0.5327 0.7527 0.0466
H36_3 H 0.5596 0.7261 0.0233
C33_3 C 0.63692(13) 0.83880(12) 0.0263(3)
H37_3 H 0.6347 0.8310 0.0774
C35_3 C 0.57867(14) 0.85053(19) 0.0297(5)
H41_3 H 0.5631 0.8358 0.0042
H42_3 H 0.5703 0.8730 0.0280
H43_3 H 0.5814 0.8437 0.0833
O8_2 O 0.82974(7) 0.79850(7) 0.53195(17)
O9_2 O 0.81709(6) 0.86542(7) 0.34763(16)
O10_2 O 0.74651(6) 0.78705(6) 0.44134(16)
N7_2 N 0.79400(8) 0.82456(7) 0.41672(19)
N8_2 N 0.76653(8) 0.82833(8) 0.36828(19)
C36_2 C 0.85060(10) 0.82233(10) 0.5148(3)
C37_2 C 0.87886(12) 0.82478(11) 0.5603(3)
H44_2 H 0.8824 0.8095 0.6006
C38_2 C 0.90145(12) 0.84894(12) 0.5475(3)
H45_2 H 0.9205 0.8499 0.5787
C39_2 C 0.89719(11) 0.87198(12) 0.4905(3)
H46_2 H 0.9127 0.8891 0.4832
C40_2 C 0.87014(10) 0.86952(11) 0.4447(3)
H47_2 H 0.8672 0.8849 0.4045
C41_2 C 0.84656(9) 0.84500(10) 0.4554(2)
C42_2 C 0.81826(9) 0.84504(9) 0.4033(2)
C43_2 C 0.74338(10) 0.80855(10) 0.3861(3)
C44_2 C 0.71063(10) 0.80979(11) 0.3469(3)
H48_2 H 0.7124 0.8231 0.2996
H49_2 H 0.7039 0.7873 0.3322
C45_2 C 0.68467(12) 0.82479(14) 0.4001(3)
H50_2 H 0.6846 0.8126 0.4492
H51_2 H 0.6628 0.8220 0.3764
C46_2 C 0.69014(15) 0.86048(15) 0.4163(4)
H52_2 H 0.7119 0.8630 0.4406
H53_2 H 0.6907 0.8724 0.3669
C47_2 C 0.66462(16) 0.87656(19) 0.4677(4)
H54_2 H 0.6644 0.8650 0.5177
H55_2 H 0.6427 0.8737 0.4441
C48_2 C 0.6703(2) 0.9126(2) 0.4819(6)
H56_2 H 0.6676 0.9247 0.4338
H57_2 H 0.6544 0.9206 0.5197
H58_2 H 0.6926 0.9159 0.5014
O11_2 O 0.77582(7) 0.75563(7) 0.56767(16)
N10_2 N 0.80219(8) 0.74192(8) 0.4375(2)
Mn4_3 Mn 0.711750(15) 0.709840(15) 0.00700(4)
H24_3 H 0.9505 0.5335 0.0066
Mn1_3 Mn 0.280056(15) 0.863576(15) 0.22549(4)
O1_3 O 0.25829(7) 0.89934(7) 0.18512(17)
O2_4 O 0.20176(7) 0.86817(6) 0.37736(17)
O3_5 O 0.29739(6) 0.82603(7) 0.27885(17)
N1_4 N 0.24520(8) 0.85682(8) 0.30023(19)
N2_4 N 0.24937(8) 0.82864(8) 0.3463(2)
N3_5 N 0.30821(9) 0.89594(9) 0.3100(2)
C1_3 C 0.23390(10) 0.91668(10) 0.2156(2)
C2_3 C 0.22621(12) 0.94664(11) 0.1810(3)
H1_3 H 0.2384 0.9535 0.1374
C3_3 C 0.20187(12) 0.96629(12) 0.2079(3)
H2_3 H 0.1974 0.9866 0.1832
C4_4 C 0.18341(11) 0.95692(11) 0.2714(3)
H3_4 H 0.1664 0.9706 0.2906
C5_4 C 0.19044(10) 0.92757(10) 0.3053(3)
H4_4 H 0.1778 0.9209 0.3483
C6_4 C 0.21523(9) 0.90704(10) 0.2799(3)
C7_4 C 0.22057(10) 0.87570(10) 0.3214(3)
C8_5 C 0.27732(10) 0.81476(10) 0.3307(3)
C9_5 C 0.28833(12) 0.78538(11) 0.3759(3)
H5_5 H 0.2694 0.7759 0.4036
H6_5 H 0.2971 0.7685 0.3407
C10_5 C 0.31602(16) 0.79571(16) 0.4359(4)
H7_5 H 0.3067 0.8109 0.4745
H8_5 H 0.3341 0.8071 0.4090
C11_5 C 0.3290(4) 0.7652(3) 0.4750(7)
H9_5 H 0.3465 0.7557 0.4427
H10_5 H 0.3110 0.7489 0.4779
C12_3 C 0.3399(5) 0.7693(4) 0.5394(9)
H11_3 H 0.3584 0.7850 0.5366
H12_3 H 0.3226 0.7794 0.5716
C13_3 C 0.3528(3) 0.7351(3) 0.5815(8)
H13_3 H 0.3670 0.7230 0.5462
H14_3 H 0.3651 0.7407 0.6279
H15_3 H 0.3338 0.7215 0.5952
C14_5 C 0.32869(11) 0.91921(11) 0.2867(3)
H16_3 H 0.3311 0.9229 0.2332
C15_5 C 0.34656(12) 0.93823(13) 0.3368(3)
H17_5 H 0.3603 0.9552 0.3177
C16_5 C 0.34455(13) 0.93272(15) 0.4138(3)
C17_5 C 0.32266(14) 0.90872(14) 0.4376(3)
H18_5 H 0.3198 0.9046 0.4908
C18_5 C 0.30530(12) 0.89104(13) 0.3856(3)
H19_5 H 0.2906 0.8747 0.4034
C19_5 C 0.36570(19) 0.9530(2) 0.4686(4)
H20_5 H 0.3641 0.9763 0.4528
H21_5 H 0.3888 0.9462 0.4616
Mn2_4 Mn 0.208976(15) 0.826653(15) 0.43281(4)
O4_2 O 0.23632(7) 0.84459(7) 0.50736(18)
O6_4 O 0.18259(6) 0.80152(6) 0.36241(16)
O7_2 O 0.16393(8) 0.83845(7) 0.50061(19)
N4_4 N 0.21310(8) 0.78376(8) 0.4792(2)
N6_2 N 0.10960(11) 0.84903(11) 0.5086(3)
C20_2 C 0.24905(11) 0.83098(11) 0.5697(3)
C21_3 C 0.26891(12) 0.85069(13) 0.6160(3)
H22_3 H 0.2736 0.8725 0.6007
C22_3 C 0.28170(14) 0.83887(16) 0.6833(4)
H23_3 H 0.2952 0.8528 0.7134
C23_3 C 0.27546(14) 0.80708(16) 0.7087(3)
H24_4 H 0.2835 0.7995 0.7566
C24_3 C 0.25725(13) 0.78711(13) 0.6618(3)
H25_3 H 0.2538 0.7650 0.6768
C25_2 C 0.24359(10) 0.79796(11) 0.5930(3)
C26_2 C 0.22626(10) 0.77428(11) 0.5451(3)
C27_4 C 0.18315(10) 0.76987(10) 0.3778(2)
C28_4 C 0.16561(11) 0.74734(10) 0.3231(3)
H26_4 H 0.1757 0.7492 0.2717
H27_4 H 0.1683 0.7244 0.3407
C29_4 C 0.12921(12) 0.75526(11) 0.3172(3)
H28_4 H 0.1266 0.7785 0.3024
H29_4 H 0.1194 0.7417 0.2761
C30_4 C 0.11057(12) 0.74922(14) 0.3916(4)
H30_4 H 0.1194 0.7639 0.4317
H31_4 H 0.1145 0.7264 0.4083
C31_4 C 0.07400(15) 0.75478(17) 0.3850(5)
H32_4 H 0.0700 0.7776 0.3681
H33_4 H 0.0650 0.7399 0.3454
C32_4 C 0.05617(17) 0.7488(2) 0.4604(6)
H34_4 H 0.0647 0.7637 0.4996
H35_4 H 0.0327 0.7527 0.4534
H36_4 H 0.0596 0.7261 0.4767
C33_4 C 0.13692(13) 0.83880(12) 0.4737(3)
H37_4 H 0.1347 0.8310 0.4226
C34_2 C 0.11051(17) 0.86111(17) 0.5849(5)
H38_2 H 0.1330 0.8599 0.6044
H39_2 H 0.1031 0.8839 0.5856
H40_2 H 0.0961 0.8478 0.6173
C35_4 C 0.07867(14) 0.85053(19) 0.4703(5)
H41_4 H 0.0631 0.8358 0.4958
H42_4 H 0.0703 0.8730 0.4720
H43_4 H 0.0814 0.8437 0.4167
O9_3 O 0.31709(6) 0.86542(7) 0.15237(16)
O10_3 O 0.24651(6) 0.78705(6) 0.05866(16)
N7_3 N 0.29400(8) 0.82456(7) 0.08328(19)
N8_3 N 0.26653(8) 0.82833(8) 0.13172(19)
C39_3 C 0.39719(11) 0.87198(12) 0.0095(3)
H46_3 H 0.4127 0.8891 0.0168
C40_3 C 0.37014(10) 0.86952(11) 0.0553(3)
H47_3 H 0.3672 0.8849 0.0955
C41_3 C 0.34656(9) 0.84500(10) 0.0446(2)
C42_3 C 0.31826(9) 0.84504(9) 0.0967(2)
C43_3 C 0.24338(10) 0.80855(10) 0.1139(3)
C44_3 C 0.21063(10) 0.80979(11) 0.1531(3)
H48_3 H 0.2124 0.8231 0.2004
H49_3 H 0.2039 0.7873 0.1678
C45_3 C 0.18467(12) 0.82479(14) 0.0999(3)
H50_3 H 0.1846 0.8126 0.0508
H51_3 H 0.1628 0.8220 0.1236
C46_3 C 0.19014(15) 0.86048(15) 0.0837(4)
H52_3 H 0.2119 0.8630 0.0594
H53_3 H 0.1907 0.8724 0.1331
C47_3 C 0.16462(16) 0.87656(19) 0.0323(4)
H55_3 H 0.1427 0.8737 0.0559
C48_3 C 0.1703(2) 0.9126(2) 0.0181(6)
H56_3 H 0.1676 0.9247 0.0662
C49_3 C 0.43395(14) 0.98212(13) 0.6500(3)
H59_3 H 0.4553 0.9742 0.6617
C50_3 C 0.41268(15) 0.96193(16) 0.6096(3)
H60_3 H 0.4194 0.9405 0.5949
C51_3 C 0.38166(17) 0.97319(14) 0.5911(4)
C54_3 C 0.3585(2) 0.95130(16) 0.5464(4)
H63_3 H 0.3607 0.9284 0.5643
H64_3 H 0.3356 0.9584 0.5552
H24_5 H 0.0495 0.9665 0.0066
Mn1_4 Mn 0.719944(15) 0.636424(15) 0.22549(4)
O1_4 O 0.74171(7) 0.60066(7) 0.18512(17)
O2_5 O 0.79824(7) 0.63183(6) 0.37736(17)
O3_6 O 0.70261(6) 0.67397(7) 0.27885(17)
N1_5 N 0.75480(8) 0.64318(8) 0.30023(19)
N2_5 N 0.75063(8) 0.67136(8) 0.3463(2)
N3_6 N 0.69179(9) 0.60406(9) 0.3100(2)
C1_4 C 0.76610(10) 0.58332(10) 0.2156(2)
C2_4 C 0.77379(12) 0.55336(11) 0.1810(3)
H1_4 H 0.7616 0.5465 0.1374
C3_4 C 0.79813(12) 0.53371(12) 0.2079(3)
H2_4 H 0.8026 0.5134 0.1832
C4_5 C 0.81659(11) 0.54308(11) 0.2714(3)
H3_5 H 0.8336 0.5294 0.2906
C5_5 C 0.80956(10) 0.57243(10) 0.3053(3)
H4_5 H 0.8222 0.5791 0.3483
C6_5 C 0.78477(9) 0.59296(10) 0.2799(3)
C7_5 C 0.77943(10) 0.62430(10) 0.3214(3)
C8_6 C 0.72268(10) 0.68524(10) 0.3307(3)
C9_6 C 0.71167(12) 0.71462(11) 0.3759(3)
H5_6 H 0.7306 0.7241 0.4036
H6_6 H 0.7029 0.7315 0.3407
C10_6 C 0.68398(16) 0.70429(16) 0.4359(4)
H7_6 H 0.6933 0.6891 0.4745
H8_6 H 0.6659 0.6929 0.4090
C11_6 C 0.6710(4) 0.7348(3) 0.4750(7)
H9_6 H 0.6535 0.7443 0.4427
H10_6 H 0.6890 0.7511 0.4779
C12_4 C 0.6601(5) 0.7307(4) 0.5394(9)
H11_4 H 0.6416 0.7150 0.5366
H12_4 H 0.6774 0.7206 0.5716
C13_4 C 0.6472(3) 0.7649(3) 0.5815(8)
H13_4 H 0.6330 0.7770 0.5462
H14_4 H 0.6349 0.7593 0.6279
H15_4 H 0.6662 0.7785 0.5952
C14_6 C 0.67131(11) 0.58079(11) 0.2867(3)
H16_4 H 0.6689 0.5771 0.2332
C15_6 C 0.65344(12) 0.56177(13) 0.3368(3)
H17_6 H 0.6397 0.5448 0.3177
C16_6 C 0.65545(13) 0.56728(15) 0.4138(3)
C17_6 C 0.67734(14) 0.59128(14) 0.4376(3)
H18_6 H 0.6802 0.5954 0.4908
C18_6 C 0.69470(12) 0.60896(13) 0.3856(3)
H19_6 H 0.7094 0.6253 0.4034
C19_6 C 0.63430(19) 0.5470(2) 0.4686(4)
H20_6 H 0.6359 0.5237 0.4528
H21_6 H 0.6112 0.5538 0.4616
Mn2_5 Mn 0.791024(15) 0.673347(15) 0.43281(4)
O4_3 O 0.76368(7) 0.65541(7) 0.50736(18)
O6_5 O 0.81741(6) 0.69848(6) 0.36241(16)
O7_3 O 0.83607(8) 0.66155(7) 0.50061(19)
N4_5 N 0.78690(8) 0.71624(8) 0.4792(2)
N6_3 N 0.89040(11) 0.65097(11) 0.5086(3)
C20_3 C 0.75095(11) 0.66902(11) 0.5697(3)
C21_4 C 0.73109(12) 0.64931(13) 0.6160(3)
H22_4 H 0.7264 0.6275 0.6007
C22_4 C 0.71830(14) 0.66113(16) 0.6833(4)
H23_4 H 0.7048 0.6472 0.7134
C23_4 C 0.72454(14) 0.69292(16) 0.7087(3)
H24_6 H 0.7165 0.7005 0.7566
C24_4 C 0.74275(13) 0.71289(13) 0.6618(3)
H25_4 H 0.7462 0.7350 0.6768
C25_3 C 0.75641(10) 0.70204(11) 0.5930(3)
C26_3 C 0.77374(10) 0.72572(11) 0.5451(3)
C27_5 C 0.81685(10) 0.73013(10) 0.3778(2)
C28_5 C 0.83439(11) 0.75266(10) 0.3231(3)
H26_5 H 0.8243 0.7508 0.2717
H27_5 H 0.8317 0.7756 0.3407
C29_5 C 0.87079(12) 0.74474(11) 0.3172(3)
H28_5 H 0.8734 0.7215 0.3024
H29_5 H 0.8806 0.7583 0.2761
C30_5 C 0.88943(12) 0.75078(14) 0.3916(4)
H30_5 H 0.8806 0.7361 0.4317
H31_5 H 0.8855 0.7736 0.4083
C31_5 C 0.92600(15) 0.74522(17) 0.3850(5)
H32_5 H 0.9300 0.7224 0.3681
H33_5 H 0.9350 0.7601 0.3454
C32_5 C 0.94383(17) 0.7512(2) 0.4604(6)
H34_5 H 0.9353 0.7363 0.4996
H35_5 H 0.9673 0.7473 0.4534
H36_5 H 0.9404 0.7739 0.4767
C33_5 C 0.86308(13) 0.66120(12) 0.4737(3)
H37_5 H 0.8653 0.6690 0.4226
C34_3 C 0.88949(17) 0.63889(17) 0.5849(5)
H38_3 H 0.8670 0.6401 0.6044
H39_3 H 0.8969 0.6161 0.5856
H40_3 H 0.9039 0.6522 0.6173
C35_5 C 0.92133(14) 0.64947(19) 0.4703(5)
H41_5 H 0.9369 0.6642 0.4958
H42_5 H 0.9297 0.6270 0.4720
H43_5 H 0.9186 0.6563 0.4167
O9_4 O 0.68291(6) 0.63458(7) 0.15237(16)
O10_4 O 0.75349(6) 0.71295(6) 0.05866(16)
N7_4 N 0.70600(8) 0.67544(7) 0.08328(19)
N8_4 N 0.73347(8) 0.67167(8) 0.13172(19)
N9_2 N 0.57429(10) 0.48778(9) 0.6729(2)
C39_4 C 0.60281(11) 0.62802(12) 0.0095(3)
H46_4 H 0.5873 0.6109 0.0168
C40_4 C 0.62986(10) 0.63048(11) 0.0553(3)
H47_4 H 0.6328 0.6151 0.0955
C41_4 C 0.65344(9) 0.65500(10) 0.0446(2)
C42_4 C 0.68174(9) 0.65496(9) 0.0967(2)
C43_4 C 0.75662(10) 0.69145(10) 0.1139(3)
C44_4 C 0.78937(10) 0.69021(11) 0.1531(3)
H48_4 H 0.7876 0.6769 0.2004
H49_4 H 0.7961 0.7127 0.1678
C45_4 C 0.81533(12) 0.67521(14) 0.0999(3)
H50_4 H 0.8154 0.6874 0.0508
H51_4 H 0.8372 0.6780 0.1236
C46_4 C 0.80986(15) 0.63952(15) 0.0837(4)
H52_4 H 0.7881 0.6370 0.0594
H53_4 H 0.8093 0.6276 0.1331
C47_4 C 0.83538(16) 0.62344(19) 0.0323(4)
H55_4 H 0.8573 0.6263 0.0559
C48_4 C 0.8297(2) 0.5874(2) 0.0181(6)
H56_4 H 0.8324 0.5753 0.0662
C49_4 C 0.56605(14) 0.51788(13) 0.6500(3)
H59_4 H 0.5447 0.5258 0.6617
C50_4 C 0.58732(15) 0.53807(16) 0.6096(3)
H60_4 H 0.5806 0.5595 0.5949
C51_4 C 0.61834(17) 0.52681(14) 0.5911(4)
C52_3 C 0.62564(17) 0.49547(13) 0.6132(3)
H61_3 H 0.6461 0.4862 0.5993
C53_3 C 0.60379(13) 0.47742(12) 0.6549(3)
H62_3 H 0.6103 0.4562 0.6717
C54_4 C 0.6415(2) 0.54870(16) 0.5464(4)
H63_4 H 0.6393 0.5716 0.5643
H64_4 H 0.6644 0.5416 0.5552
Mn1_5 Mn 0.613576(15) 0.469944(15) 0.97549(4)
O1_5 O 0.64934(7) 0.49171(7) 0.93512(17)
C1_5 C 0.66668(10) 0.51610(10) 0.9656(2)
C2_5 C 0.69664(11) 0.52379(12) 0.9310(3)
H1_5 H 0.7035 0.5116 0.8874
C3_5 C 0.71629(12) 0.54813(12) 0.9579(3)
H2_5 H 0.7366 0.5526 0.9332
H16_5 H 0.6729 0.4189 0.9832
O8_3 O 0.54850(7) 0.42026(7) 0.71805(17)
O9_5 O 0.61542(7) 0.43291(6) 0.90237(16)
O10_5 O 0.53705(6) 0.50349(6) 0.80866(16)
N7_5 N 0.57456(7) 0.45600(8) 0.83328(19)
N8_5 N 0.57833(8) 0.48347(8) 0.88172(19)
C36_3 C 0.57233(10) 0.39940(10) 0.7352(3)
C37_3 C 0.57478(11) 0.37114(12) 0.6897(3)
H44_3 H 0.5595 0.3676 0.6494
C38_3 C 0.59894(12) 0.34855(12) 0.7025(3)
H45_3 H 0.5999 0.3295 0.6713
C39_5 C 0.62198(12) 0.35281(11) 0.7595(3)
H46_5 H 0.6391 0.3373 0.7668
C40_5 C 0.61952(11) 0.37986(10) 0.8053(3)
H47_5 H 0.6349 0.3828 0.8455
C41_5 C 0.59500(10) 0.40344(9) 0.7946(2)
C42_5 C 0.59504(9) 0.43174(9) 0.8467(2)
C43_5 C 0.55855(10) 0.50662(10) 0.8639(3)
C44_5 C 0.55979(11) 0.53937(10) 0.9031(3)
H48_5 H 0.5731 0.5376 0.9504
H49_5 H 0.5373 0.5461 0.9178
C45_5 C 0.57479(14) 0.56533(12) 0.8499(3)
H50_5 H 0.5626 0.5654 0.8008
H51_5 H 0.5720 0.5872 0.8736
C46_5 C 0.61048(15) 0.55986(15) 0.8337(4)
H52_5 H 0.6130 0.5381 0.8094
H53_5 H 0.6224 0.5593 0.8831
C47_5 C 0.62656(19) 0.58538(16) 0.7823(4)
H54_3 H 0.6150 0.5856 0.7323
H55_5 H 0.6237 0.6073 0.8059
C48_5 C 0.6626(2) 0.5797(2) 0.7681(6)
H56_5 H 0.6747 0.5824 0.8162
H57_3 H 0.6706 0.5956 0.7303
H58_3 H 0.6659 0.5574 0.7486
C12_5 C 0.1601(5) 0.7307(4) 0.9606(9)
H11_5 H 0.1416 0.7150 0.9634
H12_5 H 0.1774 0.7206 0.9284
C13_5 C 0.1472(3) 0.7649(3) 0.9185(8)
H13_5 H 0.1330 0.7770 0.9538
H14_5 H 0.1349 0.7593 0.8721
H15_5 H 0.1662 0.7785 0.9048
O4_4 O 0.26368(7) 0.65541(7) 0.99264(18)
O5_2 O 0.27582(7) 0.75563(7) 0.93233(16)
O7_4 O 0.33607(8) 0.66155(7) 0.99939(19)
N6_4 N 0.39040(11) 0.65097(11) 0.9914(3)
C20_4 C 0.25095(11) 0.66902(11) 0.9303(3)
C21_5 C 0.23109(12) 0.64931(13) 0.8840(3)
H22_5 H 0.2264 0.6275 0.8993
C22_5 C 0.21830(14) 0.66113(16) 0.8167(4)
H23_5 H 0.2048 0.6472 0.7866
C23_5 C 0.22454(14) 0.69292(16) 0.7913(3)
H24_7 H 0.2165 0.7005 0.7434
C24_5 C 0.24275(13) 0.71289(13) 0.8382(3)
H25_5 H 0.2462 0.7350 0.8232
C25_4 C 0.25641(10) 0.70204(11) 0.9070(3)
C26_4 C 0.27374(10) 0.72572(11) 0.9549(3)
C34_4 C 0.38949(17) 0.63889(17) 0.9151(5)
H38_4 H 0.3670 0.6401 0.8956
H39_4 H 0.3969 0.6161 0.9144
H40_4 H 0.4039 0.6522 0.8827
N9_3 N 0.07429(10) 0.48778(9) 0.8271(2)
C49_5 C 0.06605(14) 0.51788(13) 0.8500(3)
H59_5 H 0.0447 0.5258 0.8383
C50_5 C 0.08732(15) 0.53807(16) 0.8904(3)
H60_5 H 0.0806 0.5595 0.9051
C51_5 C 0.11834(17) 0.52681(14) 0.9089(4)
C52_4 C 0.12564(17) 0.49547(13) 0.8868(3)
H61_4 H 0.1461 0.4862 0.9007
C53_4 C 0.10379(13) 0.47742(12) 0.8451(3)
H62_4 H 0.1103 0.4562 0.8283
C54_5 C 0.1415(2) 0.54870(16) 0.9536(4)
H63_5 H 0.1393 0.5716 0.9357
H64_5 H 0.1644 0.5416 0.9448
Mn5_2 Mn 0.040160(15) 0.461750(15) 0.74300(4)
Mn1_6 Mn 0.113576(15) 0.469944(15) 0.52451(4)
O1_6 O 0.14934(7) 0.49171(7) 0.56488(17)
O2_6 O 0.11817(6) 0.54824(7) 0.37264(17)
O3_7 O 0.07603(7) 0.45261(6) 0.47115(17)
N1_6 N 0.10682(8) 0.50480(8) 0.44977(19)
N2_6 N 0.07864(8) 0.50063(8) 0.4037(2)
N3_7 N 0.14594(9) 0.44179(9) 0.4400(2)
C1_6 C 0.16668(10) 0.51610(10) 0.5344(2)
C2_6 C 0.19664(11) 0.52379(12) 0.5690(3)
H1_6 H 0.2035 0.5116 0.6126
C3_6 C 0.21629(12) 0.54813(12) 0.5421(3)
H2_6 H 0.2366 0.5526 0.5668
C4_6 C 0.20692(11) 0.56659(11) 0.4786(3)
H3_6 H 0.2206 0.5836 0.4594
C5_6 C 0.17757(10) 0.55956(10) 0.4447(3)
H4_6 H 0.1709 0.5722 0.4017
C6_6 C 0.15704(10) 0.53477(9) 0.4701(3)
C7_6 C 0.12570(10) 0.52943(10) 0.4286(3)
C8_7 C 0.06476(10) 0.47268(10) 0.4193(3)
C9_7 C 0.03538(11) 0.46167(12) 0.3741(3)
H5_7 H 0.0259 0.4806 0.3464
H6_7 H 0.0185 0.4529 0.4093
C10_7 C 0.04571(16) 0.43398(16) 0.3141(4)
H7_7 H 0.0609 0.4433 0.2755
H8_7 H 0.0571 0.4159 0.3410
C11_7 C 0.0152(3) 0.4210(4) 0.2750(7)
H9_7 H 0.0057 0.4035 0.3073
C12_6 C 0.0193(4) 0.4101(5) 0.2106(9)
H11_6 H 0.0350 0.3916 0.2134
H12_6 H 0.0294 0.4274 0.1784
C14_7 C 0.16921(11) 0.42131(11) 0.4633(3)
H16_6 H 0.1729 0.4189 0.5168
C15_7 C 0.18823(13) 0.40344(12) 0.4132(3)
H17_7 H 0.2052 0.3897 0.4323
C16_7 C 0.18272(15) 0.40545(13) 0.3362(3)
C17_7 C 0.15872(14) 0.42734(14) 0.3124(3)
H18_7 H 0.1546 0.4302 0.2592
C18_7 C 0.14104(13) 0.44470(12) 0.3644(3)
H19_7 H 0.1247 0.4594 0.3466
C19_7 C 0.2030(2) 0.38430(19) 0.2814(4)
H20_7 H 0.2263 0.3859 0.2972
H21_7 H 0.1962 0.3612 0.2884
Mn2_6 Mn 0.076653(15) 0.541024(15) 0.31719(4)
O4_5 O 0.09459(7) 0.51368(7) 0.24264(18)
O6_6 O 0.05152(6) 0.56741(6) 0.38759(16)
O7_5 O 0.08845(7) 0.58607(8) 0.24939(19)
N4_6 N 0.03376(8) 0.53690(8) 0.2708(2)
N5_4 N 0.00808(8) 0.55219(8) 0.3125(2)
N6_5 N 0.09903(11) 0.64040(11) 0.2414(3)
C20_5 C 0.08098(11) 0.50095(11) 0.1803(3)
C21_6 C 0.10069(13) 0.48109(12) 0.1340(3)
H22_6 H 0.1225 0.4764 0.1493
C22_6 C 0.08887(16) 0.46830(14) 0.0667(4)
H23_6 H 0.1028 0.4548 0.0366
C23_6 C 0.05708(16) 0.47454(14) 0.0413(3)
C24_6 C 0.03711(13) 0.49275(13) 0.0882(3)
H25_6 H 0.0150 0.4962 0.0732
C25_5 C 0.04796(11) 0.50641(10) 0.1570(3)
C26_5 C 0.02428(11) 0.52374(10) 0.2049(3)
C27_6 C 0.01987(10) 0.56685(10) 0.3722(2)
C29_6 C 0.00526(11) 0.62079(12) 0.4328(3)
H28_6 H 0.0285 0.6234 0.4476
H30_6 H 0.0139 0.6306 0.3183
C31_6 C 0.00478(17) 0.67600(15) 0.3650(5)
H32_6 H 0.0276 0.6800 0.3819
H34_6 H 0.0137 0.6853 0.2504
H35_6 H 0.0027 0.7173 0.2966
C33_6 C 0.08880(12) 0.61308(13) 0.2763(3)
H37_6 H 0.0810 0.6153 0.3274
C34_5 C 0.11111(17) 0.63949(17) 0.1651(5)
H38_5 H 0.1099 0.6170 0.1456
H39_5 H 0.1339 0.6469 0.1644
H40_5 H 0.0978 0.6539 0.1327
C35_6 C 0.10053(19) 0.67133(14) 0.2797(5)
H41_6 H 0.0858 0.6869 0.2542
H42_6 H 0.1230 0.6797 0.2780
H43_6 H 0.0937 0.6686 0.3333
O8_4 O 0.04850(7) 0.42026(7) 0.78195(17)
O9_6 O 0.11542(7) 0.43291(6) 0.59763(16)
O10_6 O 0.03705(6) 0.50349(6) 0.69134(16)
N7_6 N 0.07456(7) 0.45600(8) 0.66672(19)
N8_6 N 0.07833(8) 0.48347(8) 0.61828(19)
N9_4 N 0.26222(9) 0.32429(10) 0.0771(2)
C36_4 C 0.07233(10) 0.39940(10) 0.7648(3)
C37_4 C 0.07478(11) 0.37114(12) 0.8103(3)
H44_4 H 0.0595 0.3676 0.8506
C38_4 C 0.09894(12) 0.34855(12) 0.7975(3)
H45_4 H 0.0999 0.3295 0.8287
C39_6 C 0.12198(12) 0.35281(11) 0.7405(3)
H46_6 H 0.1391 0.3373 0.7332
C40_6 C 0.11952(11) 0.37986(10) 0.6947(3)
H47_6 H 0.1349 0.3828 0.6545
C41_6 C 0.09500(10) 0.40344(9) 0.7054(2)
C42_6 C 0.09504(9) 0.43174(9) 0.6533(2)
C43_6 C 0.05855(10) 0.50662(10) 0.6361(3)
C44_6 C 0.05979(11) 0.53937(10) 0.5969(3)
H48_6 H 0.0731 0.5376 0.5496
H49_6 H 0.0373 0.5461 0.5822
C45_6 C 0.07479(14) 0.56533(12) 0.6501(3)
H50_6 H 0.0626 0.5654 0.6992
H51_6 H 0.0720 0.5872 0.6264
C46_6 C 0.11048(15) 0.55986(15) 0.6663(4)
H52_6 H 0.1130 0.5381 0.6906
H53_6 H 0.1224 0.5593 0.6169
C47_6 C 0.12656(19) 0.58538(16) 0.7177(4)
H54_4 H 0.1150 0.5856 0.7677
H55_6 H 0.1237 0.6073 0.6941
C48_6 C 0.1626(2) 0.5797(2) 0.7319(6)
H56_6 H 0.1747 0.5824 0.6838
H57_4 H 0.1706 0.5956 0.7697
H58_4 H 0.1659 0.5574 0.7514
C49_6 C 0.23212(13) 0.31605(14) 0.1000(3)
H59_6 H 0.2242 0.2947 0.0883
C50_6 C 0.21193(16) 0.33732(15) 0.1404(3)
H60_6 H 0.1905 0.3306 0.1551
C51_6 C 0.22319(14) 0.36834(17) 0.1589(4)
C52_5 C 0.25453(13) 0.37564(17) 0.1368(3)
H61_5 H 0.2638 0.3961 0.1507
C53_5 C 0.27258(12) 0.35379(13) 0.0951(3)
H62_5 H 0.2938 0.3603 0.0783
C54_6 C 0.20130(16) 0.3915(2) 0.2036(4)
H63_6 H 0.1784 0.3893 0.1857
H64_6 H 0.2084 0.4144 0.1948
O11_3 O 0.00563(7) 0.47418(7) 0.81767(16)
O5_3 O 0.00563(7) 0.97418(7) 0.18233(16)
C28_6 C 0.00266(10) 0.91561(11) 0.4269(3)
H26_6 H 0.0008 0.9257 0.4783
H27_6 H 0.0256 0.9183 0.4093
H29_6 H 0.0083 0.8694 0.4739
C30_6 C 0.00078(14) 0.86057(12) 0.3584(4)
H31_6 H 0.0236 0.8645 0.3417
H33_6 H 0.0101 0.8150 0.4046
C32_6 C 0.0012(2) 0.80617(17) 0.2896(6)
H36_6 H 0.0239 0.8096 0.2733
Mn4_4 Mn 0.040160(15) 0.961750(15) 0.25700(4)
O8_5 O 0.32974(7) 0.29850(7) 0.03195(17)
C36_5 C 0.35060(10) 0.32233(10) 0.0148(3)
C37_5 C 0.37886(12) 0.32478(11) 0.0603(3)
H44_5 H 0.3824 0.3095 0.1006
C38_5 C 0.40145(12) 0.34894(12) 0.0475(3)
H45_5 H 0.4205 0.3499 0.0787
H54_5 H 0.1644 0.3650 0.0177
H57_5 H 0.1544 0.4206 0.0197
H58_5 H 0.1926 0.4159 0.0014
O11_4 O 0.27582(7) 0.25563(7) 0.06767(16)
H10_7 H 0.0011 0.5610 0.7279
C13_6 C 0.0149(3) 0.6028(3) 0.8315(8)
H13_6 H 0.0270 0.6170 0.7962
H14_6 H 0.0093 0.6151 0.8779
H15_6 H 0.0285 0.5838 0.8452
C28_7 C 0.00266(10) 0.41561(11) 0.5731(3)
H26_7 H 0.0008 0.4257 0.5217
H27_7 H 0.0256 0.4183 0.5907
H29_7 H 0.0083 0.3694 0.5261
C30_7 C 0.00078(14) 0.36057(12) 0.6416(4)
H31_7 H 0.0236 0.3645 0.6583
H33_7 H 0.0101 0.3150 0.5954
C32_7 C 0.0012(2) 0.30617(17) 0.7104(6)
H36_7 H 0.0239 0.3096 0.7267
O8_6 O 0.32974(7) 0.79850(7) 0.96805(17)
C36_6 C 0.35060(10) 0.82233(10) 0.9852(3)
C37_6 C 0.37886(12) 0.82478(11) 0.9397(3)
H44_6 H 0.3824 0.8095 0.8994
C38_6 C 0.40145(12) 0.84894(12) 0.9525(3)
H45_6 H 0.4205 0.8499 0.9213
H54_6 H 0.1644 0.8650 0.9823
H57_6 H 0.1544 0.9206 0.9803
H58_6 H 0.1926 0.9159 0.9986
N11_2 N 0.26222(9) 0.82429(10) 0.9229(2)
Mn1_7 Mn 0.113576(15) 0.969944(15) 0.47549(4)
O1_7 O 0.14934(7) 0.99171(7) 0.43512(17)
O3_8 O 0.07603(7) 0.95261(6) 0.52885(17)
N3_8 N 0.14594(9) 0.94179(9) 0.5600(2)
C8_8 C 0.06476(10) 0.97268(10) 0.5807(3)
C9_8 C 0.03538(11) 0.96167(12) 0.6259(3)
H5_8 H 0.0259 0.9806 0.6536
H6_8 H 0.0185 0.9529 0.5907
C10_8 C 0.04571(16) 0.93398(16) 0.6859(4)
H7_8 H 0.0609 0.9433 0.7245
H8_8 H 0.0571 0.9159 0.6590
C11_8 C 0.0152(3) 0.9210(4) 0.7250(7)
H9_8 H 0.0057 0.9035 0.6927
C12_7 C 0.0193(4) 0.9101(5) 0.7894(9)
H11_7 H 0.0350 0.8916 0.7866
H12_7 H 0.0294 0.9274 0.8216
C14_8 C 0.16921(11) 0.92131(11) 0.5367(3)
H16_7 H 0.1729 0.9189 0.4832
C15_8 C 0.18823(13) 0.90344(12) 0.5868(3)
H17_8 H 0.2052 0.8897 0.5677
C16_8 C 0.18272(15) 0.90545(13) 0.6638(3)
C17_8 C 0.15872(14) 0.92734(14) 0.6876(3)
H18_8 H 0.1546 0.9302 0.7408
C18_8 C 0.14104(13) 0.94470(12) 0.6356(3)
H19_8 H 0.1247 0.9594 0.6534
C19_8 C 0.2030(2) 0.88430(19) 0.7186(4)
H20_8 H 0.2263 0.8859 0.7028
H21_8 H 0.1962 0.8612 0.7116
C21_7 C 0.10069(13) 0.98109(12) 0.8660(3)
H22_7 H 0.1225 0.9764 0.8507
C22_7 C 0.08887(16) 0.96830(14) 0.9333(4)
H23_7 H 0.1028 0.9548 0.9634
C23_7 C 0.05708(16) 0.97454(14) 0.9587(3)
C24_7 C 0.03711(13) 0.99275(13) 0.9118(3)
H25_7 H 0.0150 0.9962 0.9268
O8_7 O 0.04850(7) 0.92026(7) 0.21805(17)
O9_7 O 0.11542(7) 0.93291(6) 0.40237(16)
N7_7 N 0.07456(7) 0.95600(8) 0.33328(19)
N8_7 N 0.07833(8) 0.98347(8) 0.38172(19)
C36_7 C 0.07233(10) 0.89940(10) 0.2352(3)
C37_7 C 0.07478(11) 0.87114(12) 0.1897(3)
H44_7 H 0.0595 0.8676 0.1494
C38_7 C 0.09894(12) 0.84855(12) 0.2025(3)
H45_7 H 0.0999 0.8295 0.1713
C39_7 C 0.12198(12) 0.85281(11) 0.2595(3)
H46_7 H 0.1391 0.8373 0.2668
C40_7 C 0.11952(11) 0.87986(10) 0.3053(3)
H47_7 H 0.1349 0.8828 0.3455
C41_7 C 0.09500(10) 0.90344(9) 0.2946(2)
C42_7 C 0.09504(9) 0.93174(9) 0.3467(2)
C49_7 C 0.23212(13) 0.81605(14) 0.9000(3)
H59_7 H 0.2242 0.7947 0.9117
C50_7 C 0.21193(16) 0.83732(15) 0.8596(3)
H60_7 H 0.1905 0.8306 0.8449
C51_7 C 0.22319(14) 0.86834(17) 0.8411(4)
C52_6 C 0.25453(13) 0.87564(17) 0.8632(3)
H61_6 H 0.2638 0.8961 0.8493
C53_6 C 0.27258(12) 0.85379(13) 0.9049(3)
H62_6 H 0.2938 0.8603 0.9217
C54_7 C 0.20130(16) 0.8915(2) 0.7964(4)
H63_7 H 0.1784 0.8893 0.8143
H64_7 H 0.2084 0.9144 0.8052
N11_3 N 0.07429(10) 0.98778(9) 0.1729(2)
C12_8 C 0.1601(5) 0.2307(4) 0.0394(9)
H11_8 H 0.1416 0.2150 0.0366
H12_8 H 0.1774 0.2206 0.0716
C13_7 C 0.1472(3) 0.2649(3) 0.0815(8)
H13_7 H 0.1330 0.2770 0.0462
H14_7 H 0.1349 0.2593 0.1279
H15_7 H 0.1662 0.2785 0.0952
O4_6 O 0.26368(7) 0.15541(7) 0.00736(18)
O7_6 O 0.33607(8) 0.16155(7) 0.00061(19)
N6_6 N 0.39040(11) 0.15097(11) 0.0086(3)
C20_6 C 0.25095(11) 0.16902(11) 0.0697(3)
C21_8 C 0.23109(12) 0.14931(13) 0.1160(3)
H22_8 H 0.2264 0.1275 0.1007
C22_8 C 0.21830(14) 0.16113(16) 0.1833(4)
H23_8 H 0.2048 0.1472 0.2134
C23_8 C 0.22454(14) 0.19292(16) 0.2087(3)
H24_8 H 0.2165 0.2005 0.2566
C24_8 C 0.24275(13) 0.21289(13) 0.1618(3)
H25_8 H 0.2462 0.2350 0.1768
C25_6 C 0.25641(10) 0.20204(11) 0.0930(3)
C26_6 C 0.27374(10) 0.22572(11) 0.0451(3)
C34_6 C 0.38949(17) 0.13889(17) 0.0849(5)
H38_6 H 0.3670 0.1401 0.1044
H39_6 H 0.3969 0.1161 0.0856
H40_6 H 0.4039 0.1522 0.1173
C49_8 C 0.06605(14) 0.01788(13) 0.1500(3)
H59_8 H 0.0447 0.0258 0.1617
C50_8 C 0.08732(15) 0.03807(16) 0.1096(3)
H60_8 H 0.0806 0.0595 0.0949
C51_8 C 0.11834(17) 0.02681(14) 0.0911(4)
C54_8 C 0.1415(2) 0.04870(16) 0.0464(4)
H63_8 H 0.1393 0.0716 0.0643
H64_8 H 0.1644 0.0416 0.0552
C52_7 C 0.12564(17) 0.99547(13) 0.1132(3)
H61_7 H 0.1461 0.9862 0.0993
C53_7 C 0.10379(13) 0.97742(12) 0.1549(3)
H62_7 H 0.1103 0.9562 0.1717
H24_9 H 0.0495 0.4665 0.9934
Mn5_3 Mn 0.288250(15) 0.290160(15) 0.99300(4)
Mn1_8 Mn 0.719944(15) 0.136424(15) 0.77451(4)
O1_8 O 0.74171(7) 0.10066(7) 0.81488(17)
O2_7 O 0.79824(7) 0.13183(6) 0.62264(17)
O3_9 O 0.70261(6) 0.17397(7) 0.72115(17)
N1_7 N 0.75480(8) 0.14318(8) 0.69977(19)
N2_7 N 0.75063(8) 0.17136(8) 0.6537(2)
N3_9 N 0.69179(9) 0.10406(9) 0.6900(2)
C1_7 C 0.76610(10) 0.08332(10) 0.7844(2)
C2_7 C 0.77379(12) 0.05336(11) 0.8190(3)
H1_7 H 0.7616 0.0465 0.8626
C3_7 C 0.79813(12) 0.03371(12) 0.7921(3)
H2_7 H 0.8026 0.0134 0.8168
C4_7 C 0.81659(11) 0.04308(11) 0.7286(3)
H3_7 H 0.8336 0.0294 0.7094
C5_7 C 0.80956(10) 0.07243(10) 0.6947(3)
H4_7 H 0.8222 0.0791 0.6517
C6_7 C 0.78477(9) 0.09296(10) 0.7201(3)
C7_7 C 0.77943(10) 0.12430(10) 0.6786(3)
C8_9 C 0.72268(10) 0.18524(10) 0.6693(3)
C9_9 C 0.71167(12) 0.21462(11) 0.6241(3)
H5_9 H 0.7306 0.2241 0.5964
H6_9 H 0.7029 0.2315 0.6593
C10_9 C 0.68398(16) 0.20429(16) 0.5641(4)
H7_9 H 0.6933 0.1891 0.5255
H8_9 H 0.6659 0.1929 0.5910
C11_9 C 0.6710(4) 0.2348(3) 0.5250(7)
H9_9 H 0.6535 0.2443 0.5573
H10_8 H 0.6890 0.2511 0.5221
C12_9 C 0.6601(5) 0.2307(4) 0.4606(9)
H11_9 H 0.6416 0.2150 0.4634
H12_9 H 0.6774 0.2206 0.4284
C13_8 C 0.6472(3) 0.2649(3) 0.4185(8)
H13_8 H 0.6330 0.2770 0.4538
H14_8 H 0.6349 0.2593 0.3721
H15_8 H 0.6662 0.2785 0.4048
C14_9 C 0.67131(11) 0.08079(11) 0.7133(3)
H16_8 H 0.6689 0.0771 0.7668
C15_9 C 0.65344(12) 0.06177(13) 0.6632(3)
H17_9 H 0.6397 0.0448 0.6823
C16_9 C 0.65545(13) 0.06728(15) 0.5862(3)
C17_9 C 0.67734(14) 0.09128(14) 0.5624(3)
H18_9 H 0.6802 0.0954 0.5092
C18_9 C 0.69470(12) 0.10896(13) 0.6144(3)
H19_9 H 0.7094 0.1253 0.5966
C19_9 C 0.63430(19) 0.0470(2) 0.5314(4)
H20_9 H 0.6359 0.0237 0.5472
H21_9 H 0.6112 0.0538 0.5384
Mn2_7 Mn 0.791024(15) 0.173347(15) 0.56719(4)
O4_7 O 0.76368(7) 0.15541(7) 0.49264(18)
O5_4 O 0.77582(7) 0.25563(7) 0.43233(16)
O6_7 O 0.81741(6) 0.19848(6) 0.63759(16)
O7_7 O 0.83607(8) 0.16155(7) 0.49939(19)
N4_7 N 0.78690(8) 0.21624(8) 0.5208(2)
N5_5 N 0.80219(8) 0.24192(8) 0.5625(2)
N6_7 N 0.89040(11) 0.15097(11) 0.4914(3)
C20_7 C 0.75095(11) 0.16902(11) 0.4303(3)
C21_9 C 0.73109(12) 0.14931(13) 0.3840(3)
H22_9 H 0.7264 0.1275 0.3993
C22_9 C 0.71830(14) 0.16113(16) 0.3167(4)
H23_9 H 0.7048 0.1472 0.2866
C23_9 C 0.72454(14) 0.19292(16) 0.2913(3)
H24_10 H 0.7165 0.2005 0.2434
C24_9 C 0.74275(13) 0.21289(13) 0.3382(3)
H25_9 H 0.7462 0.2350 0.3232
C25_7 C 0.75641(10) 0.20204(11) 0.4070(3)
C26_7 C 0.77374(10) 0.22572(11) 0.4549(3)
C27_7 C 0.81685(10) 0.23013(10) 0.6222(2)
C28_8 C 0.83439(11) 0.25266(10) 0.6769(3)
H26_8 H 0.8243 0.2508 0.7283
H27_8 H 0.8317 0.2756 0.6593
C29_7 C 0.87079(12) 0.24474(11) 0.6828(3)
H28_7 H 0.8734 0.2215 0.6976
H29_8 H 0.8806 0.2583 0.7239
C30_8 C 0.88943(12) 0.25078(14) 0.6084(4)
H30_7 H 0.8806 0.2361 0.5683
H31_8 H 0.8855 0.2736 0.5917
C31_7 C 0.92600(15) 0.24522(17) 0.6150(5)
H32_7 H 0.9300 0.2224 0.6319
H33_8 H 0.9350 0.2601 0.6546
C32_8 C 0.94383(17) 0.2512(2) 0.5396(6)
H34_7 H 0.9353 0.2363 0.5004
H35_7 H 0.9673 0.2473 0.5466
H36_8 H 0.9404 0.2739 0.5233
C33_7 C 0.86308(13) 0.16120(12) 0.5263(3)
H37_7 H 0.8653 0.1690 0.5774
C34_7 C 0.88949(17) 0.13889(17) 0.4151(5)
H38_7 H 0.8670 0.1401 0.3956
H39_7 H 0.8969 0.1161 0.4144
H40_7 H 0.9039 0.1522 0.3827
C35_7 C 0.92133(14) 0.14947(19) 0.5297(5)
H41_7 H 0.9369 0.1642 0.5042
H42_7 H 0.9297 0.1270 0.5280
H43_7 H 0.9186 0.1563 0.5833
Mn3_2 Mn 0.711750(15) 0.209840(15) 0.99300(4)
O9_8 O 0.68291(6) 0.13458(7) 0.84763(16)
O10_7 O 0.75349(6) 0.21295(6) 0.94134(16)
N7_8 N 0.70600(8) 0.17544(7) 0.91672(19)
N8_8 N 0.73347(8) 0.17167(8) 0.86828(19)
C39_8 C 0.60281(11) 0.12802(12) 0.9905(3)
H46_8 H 0.5873 0.1109 0.9832
C40_8 C 0.62986(10) 0.13048(11) 0.9447(3)
H47_8 H 0.6328 0.1151 0.9045
C41_8 C 0.65344(9) 0.15500(10) 0.9554(2)
C42_8 C 0.68174(9) 0.15496(9) 0.9033(2)
C43_7 C 0.75662(10) 0.19145(10) 0.8861(3)
C44_7 C 0.78937(10) 0.19021(11) 0.8469(3)
H48_7 H 0.7876 0.1769 0.7996
H49_7 H 0.7961 0.2127 0.8322
C45_7 C 0.81533(12) 0.17521(14) 0.9001(3)
H50_7 H 0.8154 0.1874 0.9492
H51_7 H 0.8372 0.1780 0.8764
C46_7 C 0.80986(15) 0.13952(15) 0.9163(4)
H52_7 H 0.7881 0.1370 0.9406
H53_7 H 0.8093 0.1276 0.8669
C47_7 C 0.83538(16) 0.12344(19) 0.9677(4)
H55_7 H 0.8573 0.1263 0.9441
C48_7 C 0.8297(2) 0.0874(2) 0.9819(6)
H56_7 H 0.8324 0.0753 0.9338
C49_9 C 0.56605(14) 0.01788(13) 0.3500(3)
H59_9 H 0.5447 0.0258 0.3383
C50_9 C 0.58732(15) 0.03807(16) 0.3904(3)
H60_9 H 0.5806 0.0595 0.4051
C51_9 C 0.61834(17) 0.02681(14) 0.4089(4)
C54_9 C 0.6415(2) 0.04870(16) 0.4536(4)
H63_9 H 0.6393 0.0716 0.4357
H64_9 H 0.6644 0.0416 0.4448
N10_3 N 0.69781(8) 0.25808(8) 0.9375(2)
Mn4_5 Mn 0.788250(15) 0.290160(15) 0.50700(4)
H24_11 H 0.9505 0.0335 0.9934
Mn1_9 Mn 0.280056(15) 0.363576(15) 0.77451(4)
O1_9 O 0.25829(7) 0.39934(7) 0.81488(17)
O2_8 O 0.20176(7) 0.36817(6) 0.62264(17)
O3_10 O 0.29739(6) 0.32603(7) 0.72115(17)
N1_8 N 0.24520(8) 0.35682(8) 0.69977(19)
N2_8 N 0.24937(8) 0.32864(8) 0.6537(2)
N3_10 N 0.30821(9) 0.39594(9) 0.6900(2)
C1_8 C 0.23390(10) 0.41668(10) 0.7844(2)
C2_8 C 0.22621(12) 0.44664(11) 0.8190(3)
H1_8 H 0.2384 0.4535 0.8626
C3_8 C 0.20187(12) 0.46629(12) 0.7921(3)
H2_8 H 0.1974 0.4866 0.8168
C4_8 C 0.18341(11) 0.45692(11) 0.7286(3)
H3_8 H 0.1664 0.4706 0.7094
C5_8 C 0.19044(10) 0.42757(10) 0.6947(3)
H4_8 H 0.1778 0.4209 0.6517
C6_8 C 0.21523(9) 0.40704(10) 0.7201(3)
C7_8 C 0.22057(10) 0.37570(10) 0.6786(3)
C8_10 C 0.27732(10) 0.31476(10) 0.6693(3)
C9_10 C 0.28833(12) 0.28538(11) 0.6241(3)
H5_10 H 0.2694 0.2759 0.5964
H6_10 H 0.2971 0.2685 0.6593
C10_10 C 0.31602(16) 0.29571(16) 0.5641(4)
H7_10 H 0.3067 0.3109 0.5255
H8_10 H 0.3341 0.3071 0.5910
C11_10 C 0.3290(4) 0.2652(3) 0.5250(7)
H9_10 H 0.3465 0.2557 0.5573
H10_9 H 0.3110 0.2489 0.5221
C12_10 C 0.3399(5) 0.2693(4) 0.4606(9)
H11_10 H 0.3584 0.2850 0.4634
H12_10 H 0.3226 0.2794 0.4284
C13_9 C 0.3528(3) 0.2351(3) 0.4185(8)
H13_9 H 0.3670 0.2230 0.4538
H14_9 H 0.3651 0.2407 0.3721
H15_9 H 0.3338 0.2215 0.4048
C14_10 C 0.32869(11) 0.41921(11) 0.7133(3)
H16_9 H 0.3311 0.4229 0.7668
C15_10 C 0.34656(12) 0.43823(13) 0.6632(3)
H17_10 H 0.3603 0.4552 0.6823
C16_10 C 0.34455(13) 0.43272(15) 0.5862(3)
C17_10 C 0.32266(14) 0.40872(14) 0.5624(3)
H18_10 H 0.3198 0.4046 0.5092
C18_10 C 0.30530(12) 0.39104(13) 0.6144(3)
H19_10 H 0.2906 0.3747 0.5966
C19_10 C 0.36570(19) 0.4530(2) 0.5314(4)
H20_10 H 0.3641 0.4763 0.5472
H21_10 H 0.3888 0.4462 0.5384
Mn2_8 Mn 0.208976(15) 0.326653(15) 0.56719(4)
O4_8 O 0.23632(7) 0.34459(7) 0.49264(18)
O5_5 O 0.22418(7) 0.24437(7) 0.43233(16)
O6_8 O 0.18259(6) 0.30152(6) 0.63759(16)
O7_8 O 0.16393(8) 0.33845(7) 0.49939(19)
N4_8 N 0.21310(8) 0.28376(8) 0.5208(2)
N5_6 N 0.19781(8) 0.25808(8) 0.5625(2)
N6_8 N 0.10960(11) 0.34903(11) 0.4914(3)
C20_8 C 0.24905(11) 0.33098(11) 0.4303(3)
C21_10 C 0.26891(12) 0.35069(13) 0.3840(3)
H22_10 H 0.2736 0.3725 0.3993
C22_10 C 0.28170(14) 0.33887(16) 0.3167(4)
H23_10 H 0.2952 0.3528 0.2866
C23_10 C 0.27546(14) 0.30708(16) 0.2913(3)
H24_12 H 0.2835 0.2995 0.2434
C24_10 C 0.25725(13) 0.28711(13) 0.3382(3)
H25_10 H 0.2538 0.2650 0.3232
C25_8 C 0.24359(10) 0.29796(11) 0.4070(3)
C26_8 C 0.22626(10) 0.27428(11) 0.4549(3)
C27_8 C 0.18315(10) 0.26987(10) 0.6222(2)
C28_9 C 0.16561(11) 0.24734(10) 0.6769(3)
H26_9 H 0.1757 0.2492 0.7283
H27_9 H 0.1683 0.2244 0.6593
C29_8 C 0.12921(12) 0.25526(11) 0.6828(3)
H28_8 H 0.1266 0.2785 0.6976
H29_9 H 0.1194 0.2417 0.7239
C30_9 C 0.11057(12) 0.24922(14) 0.6084(4)
H30_8 H 0.1194 0.2639 0.5683
H31_9 H 0.1145 0.2264 0.5917
C31_8 C 0.07400(15) 0.25478(17) 0.6150(5)
H32_8 H 0.0700 0.2776 0.6319
H33_9 H 0.0650 0.2399 0.6546
C32_9 C 0.05617(17) 0.2488(2) 0.5396(6)
H34_8 H 0.0647 0.2637 0.5004
H35_8 H 0.0327 0.2527 0.5466
H36_9 H 0.0596 0.2261 0.5233
C33_8 C 0.13692(13) 0.33880(12) 0.5263(3)
H37_8 H 0.1347 0.3310 0.5774
C34_8 C 0.11051(17) 0.36111(17) 0.4151(5)
H38_8 H 0.1330 0.3599 0.3956
H39_8 H 0.1031 0.3839 0.4144
H40_8 H 0.0961 0.3478 0.3827
C35_8 C 0.07867(14) 0.35053(19) 0.5297(5)
H41_8 H 0.0631 0.3358 0.5042
H42_8 H 0.0703 0.3730 0.5280
H43_8 H 0.0814 0.3437 0.5833
O9_9 O 0.31709(6) 0.36542(7) 0.84763(16)
O10_8 O 0.24651(6) 0.28705(6) 0.94134(16)
N7_9 N 0.29400(8) 0.32456(7) 0.91672(19)
N8_9 N 0.26653(8) 0.32833(8) 0.86828(19)
N9_5 N 0.42571(10) 0.51222(9) 0.3271(2)
C39_9 C 0.39719(11) 0.37198(12) 0.9905(3)
H46_9 H 0.4127 0.3891 0.9832
C40_9 C 0.37014(10) 0.36952(11) 0.9447(3)
H47_9 H 0.3672 0.3849 0.9045
C41_9 C 0.34656(9) 0.34500(10) 0.9554(2)
C42_9 C 0.31826(9) 0.34504(9) 0.9033(2)
C43_8 C 0.24338(10) 0.30855(10) 0.8861(3)
C44_8 C 0.21063(10) 0.30979(11) 0.8469(3)
H48_8 H 0.2124 0.3231 0.7996
H49_8 H 0.2039 0.2873 0.8322
C45_8 C 0.18467(12) 0.32479(14) 0.9001(3)
H50_8 H 0.1846 0.3126 0.9492
H51_8 H 0.1628 0.3220 0.8764
C46_8 C 0.19014(15) 0.36048(15) 0.9163(4)
H52_8 H 0.2119 0.3630 0.9406
H53_8 H 0.1907 0.3724 0.8669
C47_8 C 0.16462(16) 0.37656(19) 0.9677(4)
H55_8 H 0.1427 0.3737 0.9441
C48_8 C 0.1703(2) 0.4126(2) 0.9819(6)
H56_8 H 0.1676 0.4247 0.9338
C49_10 C 0.43395(14) 0.48212(13) 0.3500(3)
H59_10 H 0.4553 0.4742 0.3383
C50_10 C 0.41268(15) 0.46193(16) 0.3904(3)
H60_10 H 0.4194 0.4405 0.4051
C51_10 C 0.38166(17) 0.47319(14) 0.4089(4)
C52_8 C 0.37436(17) 0.50453(13) 0.3868(3)
H61_8 H 0.3539 0.5138 0.4007
C53_8 C 0.39621(13) 0.52258(12) 0.3451(3)
H62_8 H 0.3897 0.5438 0.3283
C54_10 C 0.3585(2) 0.45130(16) 0.4536(4)
H63_10 H 0.3607 0.4284 0.4357
H64_10 H 0.3356 0.4584 0.4448
N10_4 N 0.30219(8) 0.24192(8) 0.9375(2)
Mn4_6 Mn 0.211750(15) 0.209840(15) 0.50700(4)
Mn5_4 Mn 0.459840(15) 0.538250(15) 0.24300(4)
Mn1_10 Mn 0.386424(15) 0.530056(15) 0.02451(4)
O1_10 O 0.35066(7) 0.50829(7) 0.06488(17)
C1_9 C 0.33332(10) 0.48390(10) 0.0344(2)
C2_9 C 0.30336(11) 0.47621(12) 0.0690(3)
H1_9 H 0.2965 0.4884 0.1126
C3_9 C 0.28371(12) 0.45187(12) 0.0421(3)
H2_9 H 0.2634 0.4474 0.0668
H16_10 H 0.3271 0.5811 0.0168
O8_8 O 0.45150(7) 0.57974(7) 0.28195(17)
O9_10 O 0.38458(7) 0.56709(6) 0.09763(16)
O10_9 O 0.46295(6) 0.49651(6) 0.19134(16)
N7_10 N 0.42544(7) 0.54400(8) 0.16672(19)
N8_10 N 0.42167(8) 0.51653(8) 0.11828(19)
C36_8 C 0.42767(10) 0.60060(10) 0.2648(3)
C37_8 C 0.42522(11) 0.62886(12) 0.3103(3)
H44_8 H 0.4405 0.6324 0.3506
C38_8 C 0.40106(12) 0.65145(12) 0.2975(3)
H45_8 H 0.4001 0.6705 0.3287
C39_10 C 0.37802(12) 0.64719(11) 0.2405(3)
H46_10 H 0.3609 0.6627 0.2332
C40_10 C 0.38048(11) 0.62014(10) 0.1947(3)
H47_10 H 0.3651 0.6172 0.1545
C41_10 C 0.40500(10) 0.59656(9) 0.2054(2)
C42_10 C 0.40496(9) 0.56826(9) 0.1533(2)
C43_9 C 0.44145(10) 0.49338(10) 0.1361(3)
C44_9 C 0.44021(11) 0.46063(10) 0.0969(3)
H48_9 H 0.4269 0.4624 0.0496
H49_9 H 0.4627 0.4539 0.0822
C45_9 C 0.42521(14) 0.43467(12) 0.1501(3)
H50_9 H 0.4374 0.4346 0.1992
H51_9 H 0.4280 0.4128 0.1264
C46_9 C 0.38952(15) 0.44014(15) 0.1663(4)
H52_9 H 0.3870 0.4619 0.1906
H53_9 H 0.3776 0.4407 0.1169
C47_9 C 0.37344(19) 0.41462(16) 0.2177(4)
H54_7 H 0.3850 0.4144 0.2677
H55_9 H 0.3763 0.3927 0.1941
C48_9 C 0.3374(2) 0.4203(2) 0.2319(6)
H56_9 H 0.3253 0.4176 0.1838
H57_7 H 0.3294 0.4044 0.2697
H58_7 H 0.3341 0.4426 0.2514
O11_5 O 0.49437(7) 0.52582(7) 0.31767(16)
N10_5 N 0.50808(8) 0.55219(8) 0.1875(2)
Mn1_11 Mn 0.780056(15) 0.363576(15) 0.72549(4)
O1_11 O 0.75829(7) 0.39934(7) 0.68512(17)
O2_9 O 0.70176(7) 0.36817(6) 0.87736(17)
O3_11 O 0.79739(6) 0.32603(7) 0.77885(17)
N1_9 N 0.74520(8) 0.35682(8) 0.80023(19)
N2_9 N 0.74937(8) 0.32864(8) 0.8463(2)
N3_11 N 0.80821(9) 0.39594(9) 0.8100(2)
C1_10 C 0.73390(10) 0.41668(10) 0.7156(2)
C2_10 C 0.72621(12) 0.44664(11) 0.6810(3)
H1_10 H 0.7384 0.4535 0.6374
C3_10 C 0.70187(12) 0.46629(12) 0.7079(3)
H2_10 H 0.6974 0.4866 0.6832
C4_9 C 0.68341(11) 0.45692(11) 0.7714(3)
H3_9 H 0.6664 0.4706 0.7906
C5_9 C 0.69044(10) 0.42757(10) 0.8053(3)
H4_9 H 0.6778 0.4209 0.8483
C6_9 C 0.71523(9) 0.40704(10) 0.7799(3)
C7_9 C 0.72057(10) 0.37570(10) 0.8214(3)
C8_11 C 0.77732(10) 0.31476(10) 0.8307(3)
C9_11 C 0.78833(12) 0.28538(11) 0.8759(3)
H5_11 H 0.7694 0.2759 0.9036
H6_11 H 0.7971 0.2685 0.8407
C10_11 C 0.81602(16) 0.29571(16) 0.9359(4)
H7_11 H 0.8067 0.3109 0.9745
H8_11 H 0.8341 0.3071 0.9090
C11_11 C 0.8290(4) 0.2652(3) 0.9750(7)
H9_11 H 0.8465 0.2557 0.9427
H10_10 H 0.8110 0.2489 0.9779
C14_11 C 0.82869(11) 0.41921(11) 0.7867(3)
H16_11 H 0.8311 0.4229 0.7332
C15_11 C 0.84656(12) 0.43823(13) 0.8368(3)
H17_11 H 0.8603 0.4552 0.8177
C16_11 C 0.84455(13) 0.43272(15) 0.9138(3)
C17_11 C 0.82266(14) 0.40872(14) 0.9376(3)
H18_11 H 0.8198 0.4046 0.9908
C18_11 C 0.80530(12) 0.39104(13) 0.8856(3)
H19_11 H 0.7906 0.3747 0.9034
C19_11 C 0.86570(19) 0.4530(2) 0.9686(4)
H20_11 H 0.8641 0.4763 0.9528
H21_11 H 0.8888 0.4462 0.9616
Mn2_9 Mn 0.708976(15) 0.326653(15) 0.93281(4)
O6_9 O 0.68259(6) 0.30152(6) 0.86241(16)
N4_9 N 0.71310(8) 0.28376(8) 0.9792(2)
C27_9 C 0.68315(10) 0.26987(10) 0.8778(2)
C28_10 C 0.66561(11) 0.24734(10) 0.8231(3)
H26_10 H 0.6757 0.2492 0.7717
H27_10 H 0.6683 0.2244 0.8407
C29_9 C 0.62921(12) 0.25526(11) 0.8172(3)
H28_9 H 0.6266 0.2785 0.8024
H29_10 H 0.6194 0.2417 0.7761
C30_10 C 0.61057(12) 0.24922(14) 0.8916(4)
H30_9 H 0.6194 0.2639 0.9317
H31_10 H 0.6145 0.2264 0.9083
C31_9 C 0.57400(15) 0.25478(17) 0.8850(5)
H32_9 H 0.5700 0.2776 0.8681
H33_10 H 0.5650 0.2399 0.8454
C32_10 C 0.55617(17) 0.2488(2) 0.9604(6)
H34_9 H 0.5647 0.2637 0.9996
H35_9 H 0.5327 0.2527 0.9534
H36_10 H 0.5596 0.2261 0.9767
C33_9 C 0.63692(13) 0.33880(12) 0.9737(3)
H37_9 H 0.6347 0.3310 0.9226
C35_9 C 0.57867(14) 0.35053(19) 0.9703(5)
H41_9 H 0.5631 0.3358 0.9958
H42_9 H 0.5703 0.3730 0.9720
H43_9 H 0.5814 0.3437 0.9167
O8_9 O 0.82974(7) 0.29850(7) 0.46805(17)
O9_11 O 0.81709(6) 0.36542(7) 0.65237(16)
O10_10 O 0.74651(6) 0.28705(6) 0.55866(16)
N7_11 N 0.79400(8) 0.32456(7) 0.58328(19)
N8_11 N 0.76653(8) 0.32833(8) 0.63172(19)
C36_9 C 0.85060(10) 0.32233(10) 0.4852(3)
C37_9 C 0.87886(12) 0.32478(11) 0.4397(3)
H44_9 H 0.8824 0.3095 0.3994
C38_9 C 0.90145(12) 0.34894(12) 0.4525(3)
H45_9 H 0.9205 0.3499 0.4213
C39_11 C 0.89719(11) 0.37198(12) 0.5095(3)
H46_11 H 0.9127 0.3891 0.5168
C40_11 C 0.87014(10) 0.36952(11) 0.5553(3)
H47_11 H 0.8672 0.3849 0.5955
C41_11 C 0.84656(9) 0.34500(10) 0.5446(2)
C42_11 C 0.81826(9) 0.34504(9) 0.5967(2)
C43_10 C 0.74338(10) 0.30855(10) 0.6139(3)
C44_10 C 0.71063(10) 0.30979(11) 0.6531(3)
H48_10 H 0.7124 0.3231 0.7004
H49_10 H 0.7039 0.2873 0.6678
C45_10 C 0.68467(12) 0.32479(14) 0.5999(3)
H50_10 H 0.6846 0.3126 0.5508
H51_10 H 0.6628 0.3220 0.6236
C46_10 C 0.69014(15) 0.36048(15) 0.5837(4)
H52_10 H 0.7119 0.3630 0.5594
H53_10 H 0.6907 0.3724 0.6331
C47_10 C 0.66462(16) 0.37656(19) 0.5323(4)
H54_8 H 0.6644 0.3650 0.4823
H55_10 H 0.6427 0.3737 0.5559
C48_10 C 0.6703(2) 0.4126(2) 0.5181(6)
H56_10 H 0.6676 0.4247 0.5662
H57_8 H 0.6544 0.4206 0.4803
H58_8 H 0.6926 0.4159 0.4986
N11_4 N 0.76222(9) 0.32429(10) 0.4229(2)
O3_12 O 0.42397(7) 0.04739(6) 0.02885(17)
N3_12 N 0.35406(9) 0.05821(9) 0.0600(2)
C8_12 C 0.43524(10) 0.02732(10) 0.0807(3)
C9_12 C 0.46462(11) 0.03833(12) 0.1259(3)
H5_12 H 0.4741 0.0194 0.1536
H6_12 H 0.4815 0.0471 0.0907
C10_12 C 0.45429(16) 0.06602(16) 0.1859(4)
H7_12 H 0.4391 0.0567 0.2245
H8_12 H 0.4429 0.0841 0.1590
C11_12 C 0.4848(3) 0.0790(4) 0.2250(7)
H9_12 H 0.4943 0.0965 0.1927
H10_11 H 0.5011 0.0610 0.2279
C12_11 C 0.4807(4) 0.0899(5) 0.2894(9)
H11_11 H 0.4650 0.1084 0.2866
H12_11 H 0.4706 0.0726 0.3216
C13_10 C 0.5149(3) 0.1028(3) 0.3315(8)
H13_10 H 0.5270 0.1170 0.2962
H14_10 H 0.5093 0.1151 0.3779
H15_10 H 0.5285 0.0838 0.3452
C14_12 C 0.33079(11) 0.07869(11) 0.0367(3)
C15_12 C 0.31177(13) 0.09656(12) 0.0868(3)
H17_12 H 0.2948 0.1103 0.0677
C16_12 C 0.31728(15) 0.09455(13) 0.1638(3)
C17_12 C 0.34128(14) 0.07266(14) 0.1876(3)
H18_12 H 0.3454 0.0698 0.2408
C18_12 C 0.35896(13) 0.05530(12) 0.1356(3)
H19_12 H 0.3753 0.0406 0.1534
C19_12 C 0.2970(2) 0.11570(19) 0.2186(4)
H20_12 H 0.2737 0.1141 0.2028
H21_12 H 0.3038 0.1388 0.2116
C21_11 C 0.39931(13) 0.01891(12) 0.3660(3)
H22_11 H 0.3775 0.0236 0.3507
C22_11 C 0.41113(16) 0.03170(14) 0.4333(4)
H23_11 H 0.3972 0.0452 0.4634
C23_11 C 0.44292(16) 0.02546(14) 0.4587(3)
H24_13 H 0.4505 0.0335 0.5066
C24_11 C 0.46289(13) 0.00725(13) 0.4118(3)
H25_11 H 0.4850 0.0038 0.4268
N9_6 N 0.23778(9) 0.17571(10) 0.4229(2)
C49_11 C 0.26788(13) 0.18395(14) 0.4000(3)
H59_11 H 0.2758 0.2053 0.4117
C50_11 C 0.28807(16) 0.16268(15) 0.3596(3)
H60_11 H 0.3095 0.1694 0.3449
C51_11 C 0.27681(14) 0.13166(17) 0.3411(4)
C52_9 C 0.24547(13) 0.12436(17) 0.3632(3)
H61_9 H 0.2362 0.1039 0.3493
C53_9 C 0.22742(12) 0.14621(13) 0.4049(3)
H62_9 H 0.2062 0.1397 0.4217
C54_11 C 0.29870(16) 0.1085(2) 0.2964(4)
H63_11 H 0.3216 0.1107 0.3143
H64_11 H 0.2916 0.0856 0.3052
O2_10 O 0.61817(6) 0.54824(7) 0.12736(17)
O3_13 O 0.57603(7) 0.45261(6) 0.02885(17)
N1_10 N 0.60682(8) 0.50480(8) 0.05023(19)
N2_10 N 0.57864(8) 0.50063(8) 0.0963(2)
N3_13 N 0.64594(9) 0.44179(9) 0.0600(2)
C4_10 C 0.70692(11) 0.56659(11) 0.0214(3)
H3_10 H 0.7206 0.5836 0.0406
C5_10 C 0.67757(10) 0.55956(10) 0.0553(3)
H4_10 H 0.6709 0.5722 0.0983
C6_10 C 0.65704(10) 0.53477(9) 0.0299(3)
C7_10 C 0.62570(10) 0.52943(10) 0.0714(3)
C8_13 C 0.56476(10) 0.47268(10) 0.0807(3)
C9_13 C 0.53538(11) 0.46167(12) 0.1259(3)
H5_13 H 0.5259 0.4806 0.1536
H6_13 H 0.5185 0.4529 0.0907
C10_13 C 0.54571(16) 0.43398(16) 0.1859(4)
H7_13 H 0.5609 0.4433 0.2245
H8_13 H 0.5571 0.4159 0.1590
C11_13 C 0.5152(3) 0.4210(4) 0.2250(7)
H9_13 H 0.5057 0.4035 0.1927
H10_12 H 0.4989 0.4390 0.2279
C12_12 C 0.5193(4) 0.4101(5) 0.2894(9)
H11_12 H 0.5350 0.3916 0.2866
H12_12 H 0.5294 0.4274 0.3216
C13_11 C 0.4851(3) 0.3972(3) 0.3315(8)
H13_11 H 0.4730 0.3830 0.2962
H14_11 H 0.4907 0.3849 0.3779
H15_11 H 0.4715 0.4162 0.3452
C14_13 C 0.66921(11) 0.42131(11) 0.0367(3)
C15_13 C 0.68823(13) 0.40344(12) 0.0868(3)
H17_13 H 0.7052 0.3897 0.0677
C16_13 C 0.68272(15) 0.40545(13) 0.1638(3)
C17_13 C 0.65872(14) 0.42734(14) 0.1876(3)
H18_13 H 0.6546 0.4302 0.2408
C18_13 C 0.64104(13) 0.44470(12) 0.1356(3)
H19_13 H 0.6247 0.4594 0.1534
C19_13 C 0.7030(2) 0.38430(19) 0.2186(4)
H20_13 H 0.7263 0.3859 0.2028
H21_13 H 0.6962 0.3612 0.2116
Mn2_10 Mn 0.576653(15) 0.541024(15) 0.18281(4)
O4_9 O 0.59459(7) 0.51368(7) 0.25736(18)
O6_10 O 0.55152(6) 0.56741(6) 0.11241(16)
O7_9 O 0.58845(7) 0.58607(8) 0.25061(19)
N4_10 N 0.53376(8) 0.53690(8) 0.2292(2)
N6_9 N 0.59903(11) 0.64040(11) 0.2586(3)
C20_9 C 0.58098(11) 0.50095(11) 0.3197(3)
C21_12 C 0.60069(13) 0.48109(12) 0.3660(3)
H22_12 H 0.6225 0.4764 0.3507
C22_12 C 0.58887(16) 0.46830(14) 0.4333(4)
H23_12 H 0.6028 0.4548 0.4634
C23_12 C 0.55708(16) 0.47454(14) 0.4587(3)
H24_14 H 0.5495 0.4665 0.5066
C24_12 C 0.53711(13) 0.49275(13) 0.4118(3)
H25_12 H 0.5150 0.4962 0.4268
C25_9 C 0.54796(11) 0.50641(10) 0.3430(3)
C26_9 C 0.52428(11) 0.52374(10) 0.2951(3)
C27_10 C 0.51987(10) 0.56685(10) 0.1278(2)
C28_11 C 0.49734(10) 0.58439(11) 0.0731(3)
H26_11 H 0.4992 0.5743 0.0217
H27_11 H 0.4744 0.5817 0.0907
C29_10 C 0.50526(11) 0.62079(12) 0.0672(3)
H28_10 H 0.5285 0.6234 0.0524
H29_11 H 0.4917 0.6306 0.0261
C30_11 C 0.49922(14) 0.63943(12) 0.1416(4)
H30_10 H 0.5139 0.6306 0.1817
H31_11 H 0.4764 0.6355 0.1583
C31_10 C 0.50478(17) 0.67600(15) 0.1350(5)
H32_10 H 0.5276 0.6800 0.1181
H33_11 H 0.4899 0.6850 0.0954
C32_11 C 0.4988(2) 0.69383(17) 0.2104(6)
H34_10 H 0.5137 0.6853 0.2496
H35_10 H 0.5027 0.7173 0.2034
H36_11 H 0.4761 0.6904 0.2267
C33_10 C 0.58880(12) 0.61308(13) 0.2237(3)
H37_10 H 0.5810 0.6153 0.1726
C34_9 C 0.61111(17) 0.63949(17) 0.3349(5)
H38_9 H 0.6099 0.6170 0.3544
H39_9 H 0.6339 0.6469 0.3356
H40_9 H 0.5978 0.6539 0.3673
C35_10 C 0.60053(19) 0.67133(14) 0.2203(5)
H41_10 H 0.5858 0.6869 0.2458
H42_10 H 0.6230 0.6797 0.2220
H43_10 H 0.5937 0.6686 0.1667
C49_12 C 0.73212(13) 0.31605(14) 0.4000(3)
H59_12 H 0.7242 0.2947 0.4117
C50_12 C 0.71193(16) 0.33732(15) 0.3596(3)
H60_12 H 0.6905 0.3306 0.3449
C51_12 C 0.72319(14) 0.36834(17) 0.3411(4)
C52_10 C 0.75453(13) 0.37564(17) 0.3632(3)
H61_10 H 0.7638 0.3961 0.3493
C53_10 C 0.77258(12) 0.35379(13) 0.4049(3)
H62_10 H 0.7938 0.3603 0.4217
C54_12 C 0.70130(16) 0.3915(2) 0.2964(4)
H63_12 H 0.6784 0.3893 0.3143
H64_12 H 0.7084 0.4144 0.3052
Mn1_12 Mn 0.219944(15) 0.136424(15) 0.72549(4)
O1_12 O 0.24171(7) 0.10066(7) 0.68512(17)
O2_11 O 0.29824(7) 0.13183(6) 0.87736(17)
O3_14 O 0.20261(6) 0.17397(7) 0.77885(17)
N1_11 N 0.25480(8) 0.14318(8) 0.80023(19)
N2_11 N 0.25063(8) 0.17136(8) 0.8463(2)
N3_14 N 0.19179(9) 0.10406(9) 0.8100(2)
C1_11 C 0.26610(10) 0.08332(10) 0.7156(2)
C2_11 C 0.27379(12) 0.05336(11) 0.6810(3)
H1_11 H 0.2616 0.0465 0.6374
C3_11 C 0.29813(12) 0.03371(12) 0.7079(3)
H2_11 H 0.3026 0.0134 0.6832
C4_11 C 0.31659(11) 0.04308(11) 0.7714(3)
H3_11 H 0.3336 0.0294 0.7906
C5_11 C 0.30956(10) 0.07243(10) 0.8053(3)
H4_11 H 0.3222 0.0791 0.8483
C6_11 C 0.28477(9) 0.09296(10) 0.7799(3)
C7_11 C 0.27943(10) 0.12430(10) 0.8214(3)
C8_14 C 0.22268(10) 0.18524(10) 0.8307(3)
C9_14 C 0.21167(12) 0.21462(11) 0.8759(3)
H5_14 H 0.2306 0.2241 0.9036
H6_14 H 0.2029 0.2315 0.8407
C10_14 C 0.18398(16) 0.20429(16) 0.9359(4)
H7_14 H 0.1933 0.1891 0.9745
H8_14 H 0.1659 0.1929 0.9090
C11_14 C 0.1710(4) 0.2348(3) 0.9750(7)
H9_14 H 0.1535 0.2443 0.9427
H10_13 H 0.1890 0.2511 0.9779
C14_14 C 0.17131(11) 0.08079(11) 0.7867(3)
H16_12 H 0.1689 0.0771 0.7332
C15_14 C 0.15344(12) 0.06177(13) 0.8368(3)
H17_14 H 0.1397 0.0448 0.8177
C16_14 C 0.15545(13) 0.06728(15) 0.9138(3)
C17_14 C 0.17734(14) 0.09128(14) 0.9376(3)
H18_14 H 0.1802 0.0954 0.9908
C18_14 C 0.19470(12) 0.10896(13) 0.8856(3)
H19_14 H 0.2094 0.1253 0.9034
C19_14 C 0.13430(19) 0.0470(2) 0.9686(4)
H20_14 H 0.1359 0.0237 0.9528
H21_14 H 0.1112 0.0538 0.9616
Mn2_11 Mn 0.291024(15) 0.173347(15) 0.93281(4)
O6_11 O 0.31741(6) 0.19848(6) 0.86241(16)
N4_11 N 0.28690(8) 0.21624(8) 0.9792(2)
C27_11 C 0.31685(10) 0.23013(10) 0.8778(2)
C28_12 C 0.33439(11) 0.25266(10) 0.8231(3)
H26_12 H 0.3243 0.2508 0.7717
H27_12 H 0.3317 0.2756 0.8407
C29_11 C 0.37079(12) 0.24474(11) 0.8172(3)
H28_11 H 0.3734 0.2215 0.8024
H29_12 H 0.3806 0.2583 0.7761
C30_12 C 0.38943(12) 0.25078(14) 0.8916(4)
H30_11 H 0.3806 0.2361 0.9317
H31_12 H 0.3855 0.2736 0.9083
C31_11 C 0.42600(15) 0.24522(17) 0.8850(5)
H32_11 H 0.4300 0.2224 0.8681
H33_12 H 0.4350 0.2601 0.8454
C32_12 C 0.44383(17) 0.2512(2) 0.9604(6)
H34_11 H 0.4353 0.2363 0.9996
H35_11 H 0.4673 0.2473 0.9534
H36_12 H 0.4404 0.2739 0.9767
C33_11 C 0.36308(13) 0.16120(12) 0.9737(3)
H37_11 H 0.3653 0.1690 0.9226
C35_11 C 0.42133(14) 0.14947(19) 0.9703(5)
H41_11 H 0.4369 0.1642 0.9958
H42_11 H 0.4297 0.1270 0.9720
H43_11 H 0.4186 0.1563 0.9167
O8_10 O 0.17026(7) 0.20150(7) 0.46805(17)
O9_12 O 0.18291(6) 0.13458(7) 0.65237(16)
O10_11 O 0.25349(6) 0.21295(6) 0.55866(16)
N7_12 N 0.20600(8) 0.17544(7) 0.58328(19)
N8_12 N 0.23347(8) 0.17167(8) 0.63172(19)
C36_10 C 0.14940(10) 0.17767(10) 0.4852(3)
C37_10 C 0.12114(12) 0.17522(11) 0.4397(3)
H44_10 H 0.1176 0.1905 0.3994
C38_10 C 0.09855(12) 0.15106(12) 0.4525(3)
H45_10 H 0.0795 0.1501 0.4213
C39_12 C 0.10281(11) 0.12802(12) 0.5095(3)
H46_12 H 0.0873 0.1109 0.5168
C40_12 C 0.12986(10) 0.13048(11) 0.5553(3)
H47_12 H 0.1328 0.1151 0.5955
C41_12 C 0.15344(9) 0.15500(10) 0.5446(2)
C42_12 C 0.18174(9) 0.15496(9) 0.5967(2)
C43_11 C 0.25662(10) 0.19145(10) 0.6139(3)
C44_11 C 0.28937(10) 0.19021(11) 0.6531(3)
H48_11 H 0.2876 0.1769 0.7004
H49_11 H 0.2961 0.2127 0.6678
C45_11 C 0.31533(12) 0.17521(14) 0.5999(3)
H50_11 H 0.3154 0.1874 0.5508
H51_11 H 0.3372 0.1780 0.6236
C46_11 C 0.30986(15) 0.13952(15) 0.5837(4)
H52_11 H 0.2881 0.1370 0.5594
H53_11 H 0.3093 0.1276 0.6331
C47_11 C 0.33538(16) 0.12344(19) 0.5323(4)
H54_9 H 0.3356 0.1350 0.4823
H55_11 H 0.3573 0.1263 0.5559
C48_11 C 0.3297(2) 0.0874(2) 0.5181(6)
H56_11 H 0.3324 0.0753 0.5662
H57_9 H 0.3456 0.0794 0.4803
H58_9 H 0.3074 0.0841 0.4986
H10_14 H 0.9989 0.4390 0.2721
C13_12 C 0.9851(3) 0.3972(3) 0.1685(8)
H13_12 H 0.9730 0.3830 0.2038
H14_12 H 0.9907 0.3849 0.1221
H15_12 H 0.9715 0.4162 0.1548
O5_6 O 0.99437(7) 0.52582(7) 0.18233(16)
C28_13 C 0.99734(10) 0.58439(11) 0.4269(3)
H26_13 H 0.9992 0.5743 0.4783
H27_13 H 0.9744 0.5817 0.4093
H29_13 H 0.9917 0.6306 0.4739
C30_13 C 0.99922(14) 0.63943(12) 0.3584(4)
H31_13 H 0.9764 0.6355 0.3417
H33_13 H 0.9899 0.6850 0.4046
C32_13 C 0.9988(2) 0.69383(17) 0.2896(6)
H36_13 H 0.9761 0.6904 0.2733
N10_6 N 0.99192(8) 0.44781(8) 0.6875(2)
Mn4_7 Mn 0.959840(15) 0.538250(15) 0.25700(4)
O8_11 O 0.67026(7) 0.20150(7) 0.03195(17)
C36_11 C 0.64940(10) 0.17767(10) 0.0148(3)
C37_11 C 0.62114(12) 0.17522(11) 0.0603(3)
H44_11 H 0.6176 0.1905 0.1006
C38_11 C 0.59855(12) 0.15106(12) 0.0475(3)
H45_11 H 0.5795 0.1501 0.0787
H54_10 H 0.8356 0.1350 0.0177
H57_10 H 0.8456 0.0794 0.0197
H58_10 H 0.8074 0.0841 0.0014
O11_6 O 0.72418(7) 0.24437(7) 0.06767(16)
N11_5 N 0.73778(9) 0.17571(10) 0.0771(2)
Mn1_13 Mn 0.886424(15) 0.030056(15) 0.52451(4)
O1_13 O 0.85066(7) 0.00829(7) 0.56488(17)
O3_15 O 0.92397(7) 0.04739(6) 0.47115(17)
N3_15 N 0.85406(9) 0.05821(9) 0.4400(2)
C8_15 C 0.93524(10) 0.02732(10) 0.4193(3)
C9_15 C 0.96462(11) 0.03833(12) 0.3741(3)
H5_15 H 0.9741 0.0194 0.3464
H6_15 H 0.9815 0.0471 0.4093
C10_15 C 0.95429(16) 0.06602(16) 0.3141(4)
H7_15 H 0.9391 0.0567 0.2755
H8_15 H 0.9429 0.0841 0.3410
C11_15 C 0.9848(3) 0.0790(4) 0.2750(7)
H9_15 H 0.9943 0.0965 0.3073
C12_13 C 0.9807(4) 0.0899(5) 0.2106(9)
H11_13 H 0.9650 0.1084 0.2134
H12_13 H 0.9706 0.0726 0.1784
C14_15 C 0.83079(11) 0.07869(11) 0.4633(3)
H16_13 H 0.8271 0.0811 0.5168
C15_15 C 0.81177(13) 0.09656(12) 0.4132(3)
H17_15 H 0.7948 0.1103 0.4323
C16_15 C 0.81728(15) 0.09455(13) 0.3362(3)
C17_15 C 0.84128(14) 0.07266(14) 0.3124(3)
H18_15 H 0.8454 0.0698 0.2592
C18_15 C 0.85896(13) 0.05530(12) 0.3644(3)
H19_15 H 0.8753 0.0406 0.3466
C19_15 C 0.7970(2) 0.11570(19) 0.2814(4)
H20_15 H 0.7737 0.1141 0.2972
H21_15 H 0.8038 0.1388 0.2884
C21_13 C 0.89931(13) 0.01891(12) 0.1340(3)
H22_13 H 0.8775 0.0236 0.1493
C22_13 C 0.91113(16) 0.03170(14) 0.0667(4)
H23_13 H 0.8972 0.0452 0.0366
C23_13 C 0.94292(16) 0.02546(14) 0.0413(3)
C24_13 C 0.96289(13) 0.00725(13) 0.0882(3)
H25_13 H 0.9850 0.0038 0.0732
Mn3_3 Mn 0.959840(15) 0.038250(15) 0.74300(4)
O8_12 O 0.95150(7) 0.07974(7) 0.78195(17)
O9_13 O 0.88458(7) 0.06709(6) 0.59763(16)
N7_13 N 0.92544(7) 0.04400(8) 0.66672(19)
N8_13 N 0.92167(8) 0.01653(8) 0.61828(19)
C36_12 C 0.92767(10) 0.10060(10) 0.7648(3)
C37_12 C 0.92522(11) 0.12886(12) 0.8103(3)
H44_12 H 0.9405 0.1324 0.8506
C38_12 C 0.90106(12) 0.15145(12) 0.7975(3)
H45_12 H 0.9001 0.1705 0.8287
C39_13 C 0.87802(12) 0.14719(11) 0.7405(3)
H46_13 H 0.8609 0.1627 0.7332
C40_13 C 0.88048(11) 0.12014(10) 0.6947(3)
H47_13 H 0.8651 0.1172 0.6545
C41_13 C 0.90500(10) 0.09656(9) 0.7054(2)
C42_13 C 0.90496(9) 0.06826(9) 0.6533(2)
C49_13 C 0.76788(13) 0.18395(14) 0.1000(3)
H59_13 H 0.7758 0.2053 0.0883
C50_13 C 0.78807(16) 0.16268(15) 0.1404(3)
H60_13 H 0.8095 0.1694 0.1551
C51_13 C 0.77681(14) 0.13166(17) 0.1589(4)
C52_11 C 0.74547(13) 0.12436(17) 0.1368(3)
H61_11 H 0.7362 0.1039 0.1507
C53_11 C 0.72742(12) 0.14621(13) 0.0951(3)
H62_11 H 0.7062 0.1397 0.0783
C54_13 C 0.79870(16) 0.1085(2) 0.2036(4)
H63_13 H 0.8216 0.1107 0.1857
H64_13 H 0.7916 0.0856 0.1948
O11_7 O 0.99437(7) 0.02582(7) 0.81767(16)
N11_6 N 0.92571(10) 0.01222(9) 0.8271(2)
C52_12 C 0.87436(17) 0.00453(13) 0.8868(3)
H61_12 H 0.8539 0.0138 0.9007
C53_12 C 0.89621(13) 0.02258(12) 0.8451(3)
H62_12 H 0.8897 0.0438 0.8283
C12_14 C 0.8399(5) 0.7693(4) 0.9606(9)
H11_14 H 0.8584 0.7850 0.9634
H12_14 H 0.8226 0.7794 0.9284
C13_13 C 0.8528(3) 0.7351(3) 0.9185(8)
H13_13 H 0.8670 0.7230 0.9538
H14_13 H 0.8651 0.7407 0.8721
H15_13 H 0.8338 0.7215 0.9048
O4_10 O 0.73632(7) 0.84459(7) 0.99264(18)
O5_7 O 0.72418(7) 0.74437(7) 0.93233(16)
O7_10 O 0.66393(8) 0.83845(7) 0.99939(19)
N6_10 N 0.60960(11) 0.84903(11) 0.9914(3)
C20_10 C 0.74905(11) 0.83098(11) 0.9303(3)
C21_14 C 0.76891(12) 0.85069(13) 0.8840(3)
H22_14 H 0.7736 0.8725 0.8993
C22_14 C 0.78170(14) 0.83887(16) 0.8167(4)
H23_14 H 0.7952 0.8528 0.7866
C23_14 C 0.77546(14) 0.80708(16) 0.7913(3)
H24_15 H 0.7835 0.7995 0.7434
C24_14 C 0.75725(13) 0.78711(13) 0.8382(3)
H25_14 H 0.7538 0.7650 0.8232
C25_10 C 0.74359(10) 0.79796(11) 0.9070(3)
C26_10 C 0.72626(10) 0.77428(11) 0.9549(3)
C34_10 C 0.61051(17) 0.86111(17) 0.9151(5)
H38_10 H 0.6330 0.8599 0.8956
H39_10 H 0.6031 0.8839 0.9144
H40_10 H 0.5961 0.8478 0.8827
C49_14 C 0.93395(14) 0.98212(13) 0.8500(3)
H59_14 H 0.9553 0.9742 0.8383
C50_14 C 0.91268(15) 0.96193(16) 0.8904(3)
H60_14 H 0.9194 0.9405 0.9051
C51_14 C 0.88166(17) 0.97319(14) 0.9089(4)
C54_14 C 0.8585(2) 0.95130(16) 0.9536(4)
H63_14 H 0.8607 0.9284 0.9357
H64_14 H 0.8356 0.9584 0.9448
C12_15 C 0.8399(5) 0.2693(4) 0.0394(9)
H11_15 H 0.8584 0.2850 0.0366
H12_15 H 0.8226 0.2794 0.0716
C13_14 C 0.8528(3) 0.2351(3) 0.0815(8)
H13_14 H 0.8670 0.2230 0.0462
H14_14 H 0.8651 0.2407 0.1279
H15_14 H 0.8338 0.2215 0.0952
O4_11 O 0.73632(7) 0.34459(7) 0.00736(18)
O7_11 O 0.66393(8) 0.33845(7) 0.00061(19)
N6_11 N 0.60960(11) 0.34903(11) 0.0086(3)
C20_11 C 0.74905(11) 0.33098(11) 0.0697(3)
C21_15 C 0.76891(12) 0.35069(13) 0.1160(3)
H22_15 H 0.7736 0.3725 0.1007
C22_15 C 0.78170(14) 0.33887(16) 0.1833(4)
H23_15 H 0.7952 0.3528 0.2134
C23_15 C 0.77546(14) 0.30708(16) 0.2087(3)
H24_16 H 0.7835 0.2995 0.2566
C24_15 C 0.75725(13) 0.28711(13) 0.1618(3)
H25_15 H 0.7538 0.2650 0.1768
C25_11 C 0.74359(10) 0.29796(11) 0.0930(3)
C26_11 C 0.72626(10) 0.27428(11) 0.0451(3)
C34_11 C 0.61051(17) 0.36111(17) 0.0849(5)
H38_11 H 0.6330 0.3599 0.1044
H39_11 H 0.6031 0.3839 0.0856
H40_11 H 0.5961 0.3478 0.1173
N9_7 N 0.92571(10) 0.51222(9) 0.1729(2)
C49_15 C 0.93395(14) 0.48212(13) 0.1500(3)
H59_15 H 0.9553 0.4742 0.1617
C50_15 C 0.91268(15) 0.46193(16) 0.1096(3)
H60_15 H 0.9194 0.4405 0.0949
C51_15 C 0.88166(17) 0.47319(14) 0.0911(4)
C52_13 C 0.87436(17) 0.50453(13) 0.1132(3)
H61_13 H 0.8539 0.5138 0.0993
C53_13 C 0.89621(13) 0.52258(12) 0.1549(3)
H62_13 H 0.8897 0.5438 0.1717
C54_15 C 0.8585(2) 0.45130(16) 0.0464(4)
H63_15 H 0.8607 0.4284 0.0643
H64_15 H 0.8356 0.4584 0.0552
Mn1_14 Mn 0.886424(15) 0.530056(15) 0.47549(4)
O1_14 O 0.85066(7) 0.50829(7) 0.43512(17)
O2_12 O 0.88183(6) 0.45176(7) 0.62736(17)
O3_16 O 0.92397(7) 0.54739(6) 0.52885(17)
N1_12 N 0.89318(8) 0.49520(8) 0.55023(19)
N2_12 N 0.92136(8) 0.49937(8) 0.5963(2)
N3_16 N 0.85406(9) 0.55821(9) 0.5600(2)
C1_12 C 0.83332(10) 0.48390(10) 0.4656(2)
C2_12 C 0.80336(11) 0.47621(12) 0.4310(3)
H1_12 H 0.7965 0.4884 0.3874
C3_12 C 0.78371(12) 0.45187(12) 0.4579(3)
H2_12 H 0.7634 0.4474 0.4332
C4_12 C 0.79308(11) 0.43341(11) 0.5214(3)
H3_12 H 0.7794 0.4164 0.5406
C5_12 C 0.82243(10) 0.44044(10) 0.5553(3)
H4_12 H 0.8291 0.4278 0.5983
C6_12 C 0.84296(10) 0.46523(9) 0.5299(3)
C7_12 C 0.87430(10) 0.47057(10) 0.5714(3)
C8_16 C 0.93524(10) 0.52732(10) 0.5807(3)
C9_16 C 0.96462(11) 0.53833(12) 0.6259(3)
H5_16 H 0.9741 0.5194 0.6536
H6_16 H 0.9815 0.5471 0.5907
C10_16 C 0.95429(16) 0.56602(16) 0.6859(4)
H7_16 H 0.9391 0.5567 0.7245
H8_16 H 0.9429 0.5841 0.6590
C11_16 C 0.9848(3) 0.5790(4) 0.7250(7)
H9_16 H 0.9943 0.5965 0.6927
C12_16 C 0.9807(4) 0.5899(5) 0.7894(9)
H11_16 H 0.9650 0.6084 0.7866
H12_16 H 0.9706 0.5726 0.8216
C14_16 C 0.83079(11) 0.57869(11) 0.5367(3)
H16_14 H 0.8271 0.5811 0.4832
C15_16 C 0.81177(13) 0.59656(12) 0.5868(3)
H17_16 H 0.7948 0.6103 0.5677
C16_16 C 0.81728(15) 0.59455(13) 0.6638(3)
C17_16 C 0.84128(14) 0.57266(14) 0.6876(3)
H18_16 H 0.8454 0.5698 0.7408
C18_16 C 0.85896(13) 0.55530(12) 0.6356(3)
H19_16 H 0.8753 0.5406 0.6534
C19_16 C 0.7970(2) 0.61570(19) 0.7186(4)
H20_16 H 0.7737 0.6141 0.7028
H21_16 H 0.8038 0.6388 0.7116
Mn2_12 Mn 0.923347(15) 0.458976(15) 0.68281(4)
O4_12 O 0.90541(7) 0.48632(7) 0.75736(18)
O6_12 O 0.94848(6) 0.43259(6) 0.61241(16)
O7_12 O 0.91155(7) 0.41393(8) 0.75061(19)
N4_12 N 0.96624(8) 0.46310(8) 0.7292(2)
N6_12 N 0.90097(11) 0.35960(11) 0.7586(3)
C20_12 C 0.91902(11) 0.49905(11) 0.8197(3)
C21_16 C 0.89931(13) 0.51891(12) 0.8660(3)
H22_16 H 0.8775 0.5236 0.8507
C22_16 C 0.91113(16) 0.53170(14) 0.9333(4)
H23_16 H 0.8972 0.5452 0.9634
C23_16 C 0.94292(16) 0.52546(14) 0.9587(3)
C24_16 C 0.96289(13) 0.50725(13) 0.9118(3)
H25_16 H 0.9850 0.5038 0.9268
C25_12 C 0.95204(11) 0.49359(10) 0.8430(3)
C26_12 C 0.97572(11) 0.47626(10) 0.7951(3)
C27_12 C 0.98013(10) 0.43315(10) 0.6278(2)
C29_12 C 0.99474(11) 0.37921(12) 0.5672(3)
H28_12 H 0.9715 0.3766 0.5524
H30_12 H 0.9861 0.3694 0.6817
C31_12 C 0.99522(17) 0.32400(15) 0.6350(5)
H32_12 H 0.9724 0.3200 0.6181
H34_12 H 0.9863 0.3147 0.7496
H35_12 H 0.9973 0.2827 0.7034
C33_12 C 0.91120(12) 0.38692(13) 0.7237(3)
H37_12 H 0.9190 0.3847 0.6726
C34_12 C 0.88889(17) 0.36051(17) 0.8349(5)
H38_12 H 0.8901 0.3830 0.8544
H39_12 H 0.8661 0.3531 0.8356
H40_12 H 0.9022 0.3461 0.8673
C35_12 C 0.89947(19) 0.32867(14) 0.7203(5)
H41_12 H 0.9142 0.3131 0.7458
H42_12 H 0.8770 0.3203 0.7220
H43_12 H 0.9063 0.3314 0.6667
O8_13 O 0.95150(7) 0.57974(7) 0.21805(17)
O9_14 O 0.88458(7) 0.56709(6) 0.40237(16)
O10_12 O 0.96295(6) 0.49651(6) 0.30866(16)
N7_14 N 0.92544(7) 0.54400(8) 0.33328(19)
N8_14 N 0.92167(8) 0.51653(8) 0.38172(19)
N9_8 N 0.73778(9) 0.67571(10) 0.9229(2)
C36_13 C 0.92767(10) 0.60060(10) 0.2352(3)
C37_13 C 0.92522(11) 0.62886(12) 0.1897(3)
H44_13 H 0.9405 0.6324 0.1494
C38_13 C 0.90106(12) 0.65145(12) 0.2025(3)
H45_13 H 0.9001 0.6705 0.1713
C39_14 C 0.87802(12) 0.64719(11) 0.2595(3)
H46_14 H 0.8609 0.6627 0.2668
C40_14 C 0.88048(11) 0.62014(10) 0.3053(3)
H47_14 H 0.8651 0.6172 0.3455
C41_14 C 0.90500(10) 0.59656(9) 0.2946(2)
C42_14 C 0.90496(9) 0.56826(9) 0.3467(2)
C43_12 C 0.94145(10) 0.49338(10) 0.3639(3)
C44_12 C 0.94021(11) 0.46063(10) 0.4031(3)
H48_12 H 0.9269 0.4624 0.4504
H49_12 H 0.9627 0.4539 0.4178
C45_12 C 0.92521(14) 0.43467(12) 0.3499(3)
H50_12 H 0.9374 0.4346 0.3008
H51_12 H 0.9280 0.4128 0.3736
C46_12 C 0.88952(15) 0.44014(15) 0.3337(4)
H52_12 H 0.8870 0.4619 0.3094
H53_12 H 0.8776 0.4407 0.3831
C47_12 C 0.87344(19) 0.41462(16) 0.2823(4)
H54_11 H 0.8850 0.4144 0.2323
H55_12 H 0.8763 0.3927 0.3059
C48_12 C 0.8374(2) 0.4203(2) 0.2681(6)
H56_12 H 0.8253 0.4176 0.3162
H57_11 H 0.8294 0.4044 0.2303
H58_11 H 0.8341 0.4426 0.2486
C49_16 C 0.76788(13) 0.68395(14) 0.9000(3)
H59_16 H 0.7758 0.7053 0.9117
C50_16 C 0.78807(16) 0.66268(15) 0.8596(3)
H60_16 H 0.8095 0.6694 0.8449
C51_16 C 0.77681(14) 0.63166(17) 0.8411(4)
C52_14 C 0.74547(13) 0.62436(17) 0.8632(3)
H61_14 H 0.7362 0.6039 0.8493
C53_14 C 0.72742(12) 0.64621(13) 0.9049(3)
H62_14 H 0.7062 0.6397 0.9217
C54_16 C 0.79870(16) 0.6085(2) 0.7964(4)
H63_16 H 0.8216 0.6107 0.8143
H64_16 H 0.7916 0.5856 0.8052
C28_14 C 0.99734(10) 0.08439(11) 0.5731(3)
H26_14 H 0.9992 0.0743 0.5217
H27_14 H 0.9744 0.0817 0.5907
H29_14 H 0.9917 0.1306 0.5261
C30_14 C 0.99922(14) 0.13943(12) 0.6416(4)
H31_14 H 0.9764 0.1355 0.6583
H33_14 H 0.9899 0.1850 0.5954
C32_14 C 0.9988(2) 0.19383(17) 0.7104(6)
H36_14 H 0.9761 0.1904 0.7267
O8_14 O 0.67026(7) 0.70150(7) 0.96805(17)
C36_14 C 0.64940(10) 0.67767(10) 0.9852(3)
C37_14 C 0.62114(12) 0.67522(11) 0.9397(3)
H44_14 H 0.6176 0.6905 0.8994
C38_14 C 0.59855(12) 0.65106(12) 0.9525(3)
H45_14 H 0.5795 0.6501 0.9213
H54_12 H 0.8356 0.6350 0.9823
H57_12 H 0.8456 0.5794 0.9803
H58_12 H 0.8074 0.5841 0.9986
N9_9 N 0.57429(10) 0.98778(9) 0.3271(2)
C52_15 C 0.62564(17) 0.99547(13) 0.3868(3)
H61_15 H 0.6461 0.9862 0.4007
C53_15 C 0.60379(13) 0.97742(12) 0.3451(3)
H62_15 H 0.6103 0.9562 0.3283
Mn5_5 Mn 0.540160(15) 0.961750(15) 0.24300(4)
Mn1_15 Mn 0.613576(15) 0.969944(15) 0.02451(4)
O1_15 O 0.64934(7) 0.99171(7) 0.06488(17)
H16_15 H 0.6729 0.9189 0.0168
O8_15 O 0.54850(7) 0.92026(7) 0.28195(17)
O9_15 O 0.61542(7) 0.93291(6) 0.09763(16)
N7_15 N 0.57456(7) 0.95600(8) 0.16672(19)
N8_15 N 0.57833(8) 0.98347(8) 0.11828(19)
C36_15 C 0.57233(10) 0.89940(10) 0.2648(3)
C37_15 C 0.57478(11) 0.87114(12) 0.3103(3)
H44_15 H 0.5595 0.8676 0.3506
C38_15 C 0.59894(12) 0.84855(12) 0.2975(3)
H45_15 H 0.5999 0.8295 0.3287
C39_15 C 0.62198(12) 0.85281(11) 0.2405(3)
H46_15 H 0.6391 0.8373 0.2332
C40_15 C 0.61952(11) 0.87986(10) 0.1947(3)
H47_15 H 0.6349 0.8828 0.1545
C41_15 C 0.59500(10) 0.90344(9) 0.2054(2)
C42_15 C 0.59504(9) 0.93174(9) 0.1533(2)
O11_8 O 0.50563(7) 0.97418(7) 0.31767(16)
N10_7 N 0.49192(8) 0.94781(8) 0.1875(2)
O2_13 O 0.38183(6) 0.95176(7) 0.12736(17)
N1_13 N 0.39318(8) 0.99520(8) 0.05023(19)
N2_13 N 0.42136(8) 0.99937(8) 0.0963(2)
C4_13 C 0.29308(11) 0.93341(11) 0.0214(3)
H3_13 H 0.2794 0.9164 0.0406
C5_13 C 0.32243(10) 0.94044(10) 0.0553(3)
H4_13 H 0.3291 0.9278 0.0983
C6_13 C 0.34296(10) 0.96523(9) 0.0299(3)
C7_13 C 0.37430(10) 0.97057(10) 0.0714(3)
Mn2_13 Mn 0.423347(15) 0.958976(15) 0.18281(4)
O4_13 O 0.40541(7) 0.98632(7) 0.25736(18)
O6_13 O 0.44848(6) 0.93259(6) 0.11241(16)
O7_13 O 0.41155(7) 0.91393(8) 0.25061(19)
N4_13 N 0.46624(8) 0.96310(8) 0.2292(2)
N6_13 N 0.40097(11) 0.85960(11) 0.2586(3)
C20_13 C 0.41902(11) 0.99905(11) 0.3197(3)
C25_13 C 0.45204(11) 0.99359(10) 0.3430(3)
C26_13 C 0.47572(11) 0.97626(10) 0.2951(3)
C27_13 C 0.48013(10) 0.93315(10) 0.1278(2)
C28_15 C 0.50266(10) 0.91561(11) 0.0731(3)
H26_15 H 0.5008 0.9257 0.0217
H27_15 H 0.5256 0.9183 0.0907
C29_13 C 0.49474(11) 0.87921(12) 0.0672(3)
H28_13 H 0.4715 0.8766 0.0524
H29_15 H 0.5083 0.8694 0.0261
C30_15 C 0.50078(14) 0.86057(12) 0.1416(4)
H30_13 H 0.4861 0.8694 0.1817
H31_15 H 0.5236 0.8645 0.1583
C31_13 C 0.49522(17) 0.82400(15) 0.1350(5)
H32_13 H 0.4724 0.8200 0.1181
H33_15 H 0.5101 0.8150 0.0954
C32_15 C 0.5012(2) 0.80617(17) 0.2104(6)
H34_13 H 0.4863 0.8147 0.2496
H35_13 H 0.4973 0.7827 0.2034
H36_15 H 0.5239 0.8096 0.2267
C33_13 C 0.41120(12) 0.88692(13) 0.2237(3)
H37_13 H 0.4190 0.8847 0.1726
C34_13 C 0.38889(17) 0.86051(17) 0.3349(5)
H38_13 H 0.3901 0.8830 0.3544
H39_13 H 0.3661 0.8531 0.3356
H40_13 H 0.4022 0.8461 0.3673
C35_13 C 0.39947(19) 0.82867(14) 0.2203(5)
H41_13 H 0.4142 0.8131 0.2458
H42_13 H 0.3770 0.8203 0.2220
H43_13 H 0.4063 0.8314 0.1667
C1_13 C 0.66668(10) 0.01610(10) 0.0344(2)
C2_13 C 0.69664(11) 0.02379(12) 0.0690(3)
H1_13 H 0.7035 0.0116 0.1126
C3_13 C 0.71629(12) 0.04813(12) 0.0421(3)
H2_13 H 0.7366 0.0526 0.0668
O10_13 O 0.53705(6) 0.00349(6) 0.19134(16)
C43_13 C 0.55855(10) 0.00662(10) 0.1361(3)
C44_13 C 0.55979(11) 0.03937(10) 0.0969(3)
H48_13 H 0.5731 0.0376 0.0496
H49_13 H 0.5373 0.0461 0.0822
C45_13 C 0.57479(14) 0.06533(12) 0.1501(3)
H50_13 H 0.5626 0.0654 0.1992
H51_13 H 0.5720 0.0872 0.1264
C46_13 C 0.61048(15) 0.05986(15) 0.1663(4)
H52_13 H 0.6130 0.0381 0.1906
H53_13 H 0.6224 0.0593 0.1169
C47_13 C 0.62656(19) 0.08538(16) 0.2177(4)
H54_13 H 0.6150 0.0856 0.2677
H55_13 H 0.6237 0.1073 0.1941
C48_13 C 0.6626(2) 0.0797(2) 0.2319(6)
H56_13 H 0.6747 0.0824 0.1838
H57_13 H 0.6706 0.0956 0.2697
H58_13 H 0.6659 0.0574 0.2514
O2_14 O 0.61817(6) 0.04824(7) 0.87264(17)
N1_14 N 0.60682(8) 0.00480(8) 0.94977(19)
N2_14 N 0.57864(8) 0.00063(8) 0.9037(2)
C4_14 C 0.70692(11) 0.06659(11) 0.9786(3)
H3_14 H 0.7206 0.0836 0.9594
C5_14 C 0.67757(10) 0.05956(10) 0.9447(3)
H4_14 H 0.6709 0.0722 0.9017
C6_14 C 0.65704(10) 0.03477(9) 0.9701(3)
C7_14 C 0.62570(10) 0.02943(10) 0.9286(3)
Mn2_14 Mn 0.576653(15) 0.041024(15) 0.81719(4)
O4_14 O 0.59459(7) 0.01368(7) 0.74264(18)
O5_8 O 0.49437(7) 0.02582(7) 0.68233(16)
O6_14 O 0.55152(6) 0.06741(6) 0.88759(16)
O7_14 O 0.58845(7) 0.08607(8) 0.74939(19)
N4_14 N 0.53376(8) 0.03690(8) 0.7708(2)
N5_7 N 0.50808(8) 0.05219(8) 0.8125(2)
N6_14 N 0.59903(11) 0.14040(11) 0.7414(3)
C20_14 C 0.58098(11) 0.00095(11) 0.6803(3)
C25_14 C 0.54796(11) 0.00641(10) 0.6570(3)
C26_14 C 0.52428(11) 0.02374(10) 0.7049(3)
C27_14 C 0.51987(10) 0.06685(10) 0.8722(2)
C28_16 C 0.49734(10) 0.08439(11) 0.9269(3)
H26_16 H 0.4992 0.0743 0.9783
H27_16 H 0.4744 0.0817 0.9093
C29_14 C 0.50526(11) 0.12079(12) 0.9328(3)
H28_14 H 0.5285 0.1234 0.9476
H29_16 H 0.4917 0.1306 0.9739
C30_16 C 0.49922(14) 0.13943(12) 0.8584(4)
H30_14 H 0.5139 0.1306 0.8183
H31_16 H 0.4764 0.1355 0.8417
C31_14 C 0.50478(17) 0.17600(15) 0.8650(5)
H32_14 H 0.5276 0.1800 0.8819
H33_16 H 0.4899 0.1850 0.9046
C32_16 C 0.4988(2) 0.19383(17) 0.7896(6)
H34_14 H 0.5137 0.1853 0.7504
H35_14 H 0.5027 0.2173 0.7966
H36_16 H 0.4761 0.1904 0.7733
C33_14 C 0.58880(12) 0.11308(13) 0.7763(3)
H37_14 H 0.5810 0.1153 0.8274
C34_14 C 0.61111(17) 0.13949(17) 0.6651(5)
H38_14 H 0.6099 0.1170 0.6456
H39_14 H 0.6339 0.1469 0.6644
H40_14 H 0.5978 0.1539 0.6327
C35_14 C 0.60053(19) 0.17133(14) 0.7797(5)
H41_14 H 0.5858 0.1869 0.7542
H42_14 H 0.6230 0.1797 0.7780
H43_14 H 0.5937 0.1686 0.8333
Mn4_8 Mn 0.459840(15) 0.038250(15) 0.75700(4)
N9_10 N 0.42571(10) 0.01222(9) 0.6729(2)
C52_16 C 0.37436(17) 0.00453(13) 0.6132(3)
H61_16 H 0.3539 0.0138 0.5993
C53_16 C 0.39621(13) 0.02258(12) 0.6549(3)
H62_16 H 0.3897 0.0438 0.6717
Mn1_16 Mn 0.386424(15) 0.030056(15) 0.97549(4)
O1_16 O 0.35066(7) 0.00829(7) 0.93512(17)
H16_16 H 0.3271 0.0811 0.9832
O8_16 O 0.45150(7) 0.07974(7) 0.71805(17)
O9_16 O 0.38458(7) 0.06709(6) 0.90237(16)
N7_16 N 0.42544(7) 0.04400(8) 0.83328(19)
N8_16 N 0.42167(8) 0.01653(8) 0.88172(19)
C36_16 C 0.42767(10) 0.10060(10) 0.7352(3)
C37_16 C 0.42522(11) 0.12886(12) 0.6897(3)
H44_16 H 0.4405 0.1324 0.6494
C38_16 C 0.40106(12) 0.15145(12) 0.7025(3)
H45_16 H 0.4001 0.1705 0.6713
C39_16 C 0.37802(12) 0.14719(11) 0.7595(3)
H46_16 H 0.3609 0.1627 0.7668
C40_16 C 0.38048(11) 0.12014(10) 0.8053(3)
H47_16 H 0.3651 0.1172 0.8455
C41_16 C 0.40500(10) 0.09656(9) 0.7946(2)
C42_16 C 0.40496(9) 0.06826(9) 0.8467(2)
H10_15 H 0.0011 0.0610 0.2721
C13_15 C 0.0149(3) 0.1028(3) 0.1685(8)
H13_15 H 0.0270 0.1170 0.2038
H14_15 H 0.0093 0.1151 0.1221
H15_15 H 0.0285 0.0838 0.1548
N10_8 N 0.00808(8) 0.05219(8) 0.6875(2)
O2_15 O 0.11817(6) 0.04824(7) 0.62736(17)
N1_15 N 0.10682(8) 0.00480(8) 0.55023(19)
N2_15 N 0.07864(8) 0.00063(8) 0.5963(2)
C1_14 C 0.16668(10) 0.01610(10) 0.4656(2)
C2_14 C 0.19664(11) 0.02379(12) 0.4310(3)
H1_14 H 0.2035 0.0116 0.3874
C3_14 C 0.21629(12) 0.04813(12) 0.4579(3)
H2_14 H 0.2366 0.0526 0.4332
C4_15 C 0.20692(11) 0.06659(11) 0.5214(3)
H3_15 H 0.2206 0.0836 0.5406
C5_15 C 0.17757(10) 0.05956(10) 0.5553(3)
H4_15 H 0.1709 0.0722 0.5983
C6_15 C 0.15704(10) 0.03477(9) 0.5299(3)
C7_15 C 0.12570(10) 0.02943(10) 0.5714(3)
Mn2_15 Mn 0.076653(15) 0.041024(15) 0.68281(4)
O4_15 O 0.09459(7) 0.01368(7) 0.75736(18)
O6_15 O 0.05152(6) 0.06741(6) 0.61241(16)
O7_15 O 0.08845(7) 0.08607(8) 0.75061(19)
N4_15 N 0.03376(8) 0.03690(8) 0.7292(2)
N6_15 N 0.09903(11) 0.14040(11) 0.7586(3)
C20_15 C 0.08098(11) 0.00095(11) 0.8197(3)
C25_15 C 0.04796(11) 0.00641(10) 0.8430(3)
C26_15 C 0.02428(11) 0.02374(10) 0.7951(3)
C27_15 C 0.01987(10) 0.06685(10) 0.6278(2)
C29_15 C 0.00526(11) 0.12079(12) 0.5672(3)
H28_15 H 0.0285 0.1234 0.5524
H30_15 H 0.0139 0.1306 0.6817
C31_15 C 0.00478(17) 0.17600(15) 0.6350(5)
H32_15 H 0.0276 0.1800 0.6181
H34_15 H 0.0137 0.1853 0.7496
H35_15 H 0.0027 0.2173 0.7034
C33_15 C 0.08880(12) 0.11308(13) 0.7237(3)
H37_15 H 0.0810 0.1153 0.6726
C34_15 C 0.11111(17) 0.13949(17) 0.8349(5)
H38_15 H 0.1099 0.1170 0.8544
H39_15 H 0.1339 0.1469 0.8356
H40_15 H 0.0978 0.1539 0.8673
C35_15 C 0.10053(19) 0.17133(14) 0.7203(5)
H41_15 H 0.0858 0.1869 0.7458
H42_15 H 0.1230 0.1797 0.7220
H43_15 H 0.0937 0.1686 0.6667
O10_14 O 0.03705(6) 0.00349(6) 0.30866(16)
C43_14 C 0.05855(10) 0.00662(10) 0.3639(3)
C44_14 C 0.05979(11) 0.03937(10) 0.4031(3)
H48_14 H 0.0731 0.0376 0.4504
H49_14 H 0.0373 0.0461 0.4178
C45_14 C 0.07479(14) 0.06533(12) 0.3499(3)
H50_14 H 0.0626 0.0654 0.3008
H51_14 H 0.0720 0.0872 0.3736
C46_14 C 0.11048(15) 0.05986(15) 0.3337(4)
H52_14 H 0.1130 0.0381 0.3094
H53_14 H 0.1224 0.0593 0.3831
C47_14 C 0.12656(19) 0.08538(16) 0.2823(4)
H54_14 H 0.1150 0.0856 0.2323
H55_14 H 0.1237 0.1073 0.3059
C48_14 C 0.1626(2) 0.0797(2) 0.2681(6)
H56_14 H 0.1747 0.0824 0.3162
H57_14 H 0.1706 0.0956 0.2303
H58_14 H 0.1659 0.0574 0.2486
O2_16 O 0.88183(6) 0.95176(7) 0.37264(17)
N1_16 N 0.89318(8) 0.99520(8) 0.44977(19)
N2_16 N 0.92136(8) 0.99937(8) 0.4037(2)
C1_15 C 0.83332(10) 0.98390(10) 0.5344(2)
C2_15 C 0.80336(11) 0.97621(12) 0.5690(3)
H1_15 H 0.7965 0.9884 0.6126
C3_15 C 0.78371(12) 0.95187(12) 0.5421(3)
H2_15 H 0.7634 0.9474 0.5668
C4_16 C 0.79308(11) 0.93341(11) 0.4786(3)
H3_16 H 0.7794 0.9164 0.4594
C5_16 C 0.82243(10) 0.94044(10) 0.4447(3)
H4_16 H 0.8291 0.9278 0.4017
C6_16 C 0.84296(10) 0.96523(9) 0.4701(3)
C7_16 C 0.87430(10) 0.97057(10) 0.4286(3)
Mn2_16 Mn 0.923347(15) 0.958976(15) 0.31719(4)
O4_16 O 0.90541(7) 0.98632(7) 0.24264(18)
O6_16 O 0.94848(6) 0.93259(6) 0.38759(16)
O7_16 O 0.91155(7) 0.91393(8) 0.24939(19)
N4_16 N 0.96624(8) 0.96310(8) 0.2708(2)
N5_8 N 0.99192(8) 0.94781(8) 0.3125(2)
N6_16 N 0.90097(11) 0.85960(11) 0.2414(3)
C20_16 C 0.91902(11) 0.99905(11) 0.1803(3)
C25_16 C 0.95204(11) 0.99359(10) 0.1570(3)
C26_16 C 0.97572(11) 0.97626(10) 0.2049(3)
C27_16 C 0.98013(10) 0.93315(10) 0.3722(2)
C29_16 C 0.99474(11) 0.87921(12) 0.4328(3)
H28_16 H 0.9715 0.8766 0.4476
H30_16 H 0.9861 0.8694 0.3183
C31_16 C 0.99522(17) 0.82400(15) 0.3650(5)
H32_16 H 0.9724 0.8200 0.3819
H34_16 H 0.9863 0.8147 0.2504
H35_16 H 0.9973 0.7827 0.2966
C33_16 C 0.91120(12) 0.88692(13) 0.2763(3)
H37_16 H 0.9190 0.8847 0.3274
C34_16 C 0.88889(17) 0.86051(17) 0.1651(5)
H38_16 H 0.8901 0.8830 0.1456
H39_16 H 0.8661 0.8531 0.1644
H40_16 H 0.9022 0.8461 0.1327
C35_16 C 0.89947(19) 0.82867(14) 0.2797(5)
H41_16 H 0.9142 0.8131 0.2542
H42_16 H 0.8770 0.8203 0.2780
H43_16 H 0.9063 0.8314 0.3333
O10_15 O 0.96295(6) 0.99651(6) 0.69134(16)
C43_15 C 0.94145(10) 0.99338(10) 0.6361(3)
C44_15 C 0.94021(11) 0.96063(10) 0.5969(3)
H48_15 H 0.9269 0.9624 0.5496
H49_15 H 0.9627 0.9539 0.5822
C45_15 C 0.92521(14) 0.93467(12) 0.6501(3)
H50_15 H 0.9374 0.9346 0.6992
H51_15 H 0.9280 0.9128 0.6264
C46_15 C 0.88952(15) 0.94014(15) 0.6663(4)
H52_15 H 0.8870 0.9619 0.6906
H53_15 H 0.8776 0.9407 0.6169
C47_15 C 0.87344(19) 0.91462(16) 0.7177(4)
H54_15 H 0.8850 0.9144 0.7677
H55_15 H 0.8763 0.8927 0.6941
C48_15 C 0.8374(2) 0.9203(2) 0.7319(6)
H56_15 H 0.8253 0.9176 0.6838
H57_15 H 0.8294 0.9044 0.7697
H58_15 H 0.8341 0.9426 0.7514
H10_16 H 0.9989 0.9390 0.7279
C13_16 C 0.9851(3) 0.8972(3) 0.8315(8)
H13_16 H 0.9730 0.8830 0.7962
H14_16 H 0.9907 0.8849 0.8779
H15_16 H 0.9715 0.9162 0.8452
C1_16 C 0.33332(10) 0.98390(10) 0.9656(2)
C2_16 C 0.30336(11) 0.97621(12) 0.9310(3)
H1_16 H 0.2965 0.9884 0.8874
C3_16 C 0.28371(12) 0.95187(12) 0.9579(3)
H2_16 H 0.2634 0.9474 0.9332
O10_16 O 0.46295(6) 0.99651(6) 0.80866(16)
C43_16 C 0.44145(10) 0.99338(10) 0.8639(3)
C44_16 C 0.44021(11) 0.96063(10) 0.9031(3)
H48_16 H 0.4269 0.9624 0.9504
H49_16 H 0.4627 0.9539 0.9178
C45_16 C 0.42521(14) 0.93467(12) 0.8499(3)
H50_16 H 0.4374 0.9346 0.8008
H51_16 H 0.4280 0.9128 0.8736
C46_16 C 0.38952(15) 0.94014(15) 0.8337(4)
H52_16 H 0.3870 0.9619 0.8094
H53_16 H 0.3776 0.9407 0.8831
C47_16 C 0.37344(19) 0.91462(16) 0.7823(4)
H54_16 H 0.3850 0.9144 0.7323
H55_16 H 0.3763 0.8927 0.8059
C48_16 C 0.3374(2) 0.9203(2) 0.7681(6)
H56_16 H 0.3253 0.9176 0.8162
H57_16 H 0.3294 0.9044 0.7303
H58_16 H 0.3341 0.9426 0.7486
loop_
_geom_bond_atom_site_label_1
_geom_bond_atom_site_label_2
_geom_bond_site_symmetry_1
_geom_bond_site_symmetry_2
Mn1 O1 1_555 1_555
O1 C1 1_555 1_555
O2 C7 1_555 1_555
O3 Mn1 1_555 1_555
N1 Mn1 1_555 1_555
N2 N1 1_555 1_555
N3 Mn1 1_555 1_555
C1 C2 1_555 1_555
C2 H1 1_555 1_555
C3 C2 1_555 1_555
H2 C3 1_555 1_555
C4 C3 1_555 1_555
H3 C4 1_555 1_555
C5 C4 1_555 1_555
H4 C5 1_555 1_555
C6 C1 1_555 1_555
C7 N1 1_555 1_555
C8 O3 1_555 1_555
C9 C8 1_555 1_555
H5 C9 1_555 1_555
H6 C9 1_555 1_555
C10 C9 1_555 1_555
H7 C10 1_555 1_555
H8 C10 1_555 1_555
C11 C10 1_555 1_555
H9 C11 1_555 1_555
H10 C11 1_555 1_555
C14 N3 1_555 1_555
H16 C14 1_555 1_555
C15 C14 1_555 1_555
H17 C15 1_555 1_555
C16 C15 1_555 1_555
C17 C16 1_555 1_555
H18 C17 1_555 1_555
C18 N3 1_555 1_555
H19 C18 1_555 1_555
C19 C16 1_555 1_555
H20 C19 1_555 1_555
H21 C19 1_555 1_555
Mn2 O2 1_555 1_555
O6 Mn2 1_555 1_555
N4 Mn2 1_555 1_555
N5 N4 1_555 1_555
C27 O6 1_555 1_555
C28 C27 1_555 1_555
H26 C28 1_555 1_555
H27 C28 1_555 1_555
C29 C28 1_555 1_555
H28 C29 1_555 1_555
H29 C29 1_555 1_555
C30 C29 1_555 1_555
H30 C30 1_555 1_555
H31 C30 1_555 1_555
C31 C30 1_555 1_555
H32 C31 1_555 1_555
H33 C31 1_555 1_555
C32 C31 1_555 1_555
H34 C32 1_555 1_555
H35 C32 1_555 1_555
H36 C32 1_555 1_555
H37 C33 1_555 1_555
H41 C35 1_555 1_555
H42 C35 1_555 1_555
H43 C35 1_555 1_555
Mn3 O8 1_555 1_555
O8 C36 1_555 1_555
O9 Mn1 1_555 1_555
O10 Mn3 1_555 1_555
N7 Mn3 1_555 1_555
N8 Mn1 1_555 1_555
C36 C37 1_555 1_555
C37 H44 1_555 1_555
C38 C37 1_555 1_555
H45 C38 1_555 1_555
C39 C38 1_555 1_555
H46 C39 1_555 1_555
C40 C39 1_555 1_555
H47 C40 1_555 1_555
C41 C36 1_555 1_555
C42 O9 1_555 1_555
C43 O10 1_555 1_555
C44 C43 1_555 1_555
H48 C44 1_555 1_555
H49 C44 1_555 1_555
C45 C44 1_555 1_555
H50 C45 1_555 1_555
H51 C45 1_555 1_555
C46 C45 1_555 1_555
H52 C46 1_555 1_555
H53 C46 1_555 1_555
C47 C46 1_555 1_555
H54 C47 1_555 1_555
H55 C47 1_555 1_555
C48 C47 1_555 1_555
H56 C48 1_555 1_555
H57 C48 1_555 1_555
H58 C48 1_555 1_555
O11 Mn3 1_555 1_555
N10 Mn3 1_555 1_555
N11 Mn3 1_555 1_555
N2 C8 1_555 1_555
N2 Mn2 1_555 1_555
C5 C6 1_555 1_555
C6 C7 1_555 1_555
C17 C18 1_555 1_555
N5 C27 1_555 1_555
N5 Mn4 1_555 1_555
N7 N8 1_555 1_555
N7 C42 1_555 1_555
N8 C43 1_555 1_555
C40 C41 1_555 1_555
C41 C42 1_555 1_555
C8_2 O3_2 1_555 1_555
C9_2 C8_2 1_555 1_555
H5_2 C9_2 1_555 1_555
H6_2 C9_2 1_555 1_555
C10_2 C9_2 1_555 1_555
H7_2 C10_2 1_555 1_555
H8_2 C10_2 1_555 1_555
C11_2 C10_2 1_555 1_555
H9_2 C11_2 1_555 1_555
H10_2 C11_2 1_555 1_555
C12 C11_2 1_555 1_555
H11 C12 1_555 1_555
H12 C12 1_555 1_555
C13 C12 1_555 1_555
H13 C13 1_555 1_555
H14 C13 1_555 1_555
H15 C13 1_555 1_555
C14_2 N3_2 1_555 1_555
C15_2 C14_2 1_555 1_555
H17_2 C15_2 1_555 1_555
C16_2 C15_2 1_555 1_555
C17_2 C16_2 1_555 1_555
H18_2 C17_2 1_555 1_555
C18_2 N3_2 1_555 1_555
H19_2 C18_2 1_555 1_555
C19_2 C16_2 1_555 1_555
H20_2 C19_2 1_555 1_555
H21_2 C19_2 1_555 1_555
H22 C21 1_555 1_555
C22 C21 1_555 1_555
H23 C22 1_555 1_555
C23 C22 1_555 1_555
H24 C23 1_555 1_555
C24 C23 1_555 1_555
H25 C24 1_555 1_555
N9 C49 1_555 1_555
C49 H59 1_555 1_555
C50 C49 1_555 1_555
H60 C50 1_555 1_555
C51 C50 1_555 1_555
C52 C51 1_555 1_555
H61 C52 1_555 1_555
C53 N9 1_555 1_555
H62 C53 1_555 1_555
C54 C19_2 1_555 1_555
H63 C54 1_555 1_555
H64 C54 1_555 1_555
Mn5 N9 1_555 1_555
C17_2 C18_2 1_555 1_555
C51 C54 1_555 1_555
C52 C53 1_555 1_555
O2_2 C7_2 1_555 1_555
N2_2 N1_2 1_555 1_555
H3_2 C4_2 1_555 1_555
C5_2 C4_2 1_555 1_555
H4_2 C5_2 1_555 1_555
C7_2 N1_2 1_555 1_555
C8_3 O3_3 1_555 1_555
C9_3 C8_3 1_555 1_555
H5_3 C9_3 1_555 1_555
H6_3 C9_3 1_555 1_555
C10_3 C9_3 1_555 1_555
H7_3 C10_3 1_555 1_555
H8_3 C10_3 1_555 1_555
C11_3 C10_3 1_555 1_555
H9_3 C11_3 1_555 1_555
H10_3 C11_3 1_555 1_555
C12_2 C11_3 1_555 1_555
H11_2 C12_2 1_555 1_555
H12_2 C12_2 1_555 1_555
C13_2 C12_2 1_555 1_555
H13_2 C13_2 1_555 1_555
H14_2 C13_2 1_555 1_555
H15_2 C13_2 1_555 1_555
C14_3 N3_3 1_555 1_555
C15_3 C14_3 1_555 1_555
H17_3 C15_3 1_555 1_555
C16_3 C15_3 1_555 1_555
C17_3 C16_3 1_555 1_555
H18_3 C17_3 1_555 1_555
C18_3 N3_3 1_555 1_555
H19_3 C18_3 1_555 1_555
C19_3 C16_3 1_555 1_555
H20_3 C19_3 1_555 1_555
H21_3 C19_3 1_555 1_555
Mn2_2 O2_2 1_555 1_555
O4 Mn2_2 1_555 1_555
O5 C26 1_555 1_555
O6_2 Mn2_2 1_555 1_555
O7 Mn2_2 1_555 1_555
N4_2 Mn2_2 1_555 1_555
N5_2 N4_2 1_555 1_555
N6 C33_2 1_555 1_555
C20 O4 1_555 1_555
C21_2 C20 1_555 1_555
H22_2 C21_2 1_555 1_555
C22_2 C21_2 1_555 1_555
H23_2 C22_2 1_555 1_555
C23_2 C22_2 1_555 1_555
H24_2 C23_2 1_555 1_555
C24_2 C23_2 1_555 1_555
H25_2 C24_2 1_555 1_555
C25 C20 1_555 1_555
C26 N4_2 1_555 1_555
C27_2 O6_2 1_555 1_555
C28_2 C27_2 1_555 1_555
H26_2 C28_2 1_555 1_555
H27_2 C28_2 1_555 1_555
C29_2 C28_2 1_555 1_555
H28_2 C29_2 1_555 1_555
H29_2 C29_2 1_555 1_555
C30_2 C29_2 1_555 1_555
H30_2 C30_2 1_555 1_555
H31_2 C30_2 1_555 1_555
C31_2 C30_2 1_555 1_555
H32_2 C31_2 1_555 1_555
H33_2 C31_2 1_555 1_555
C32_2 C31_2 1_555 1_555
H34_2 C32_2 1_555 1_555
H35_2 C32_2 1_555 1_555
H36_2 C32_2 1_555 1_555
C33_2 O7 1_555 1_555
H37_2 C33_2 1_555 1_555
C34 N6 1_555 1_555
H38 C34 1_555 1_555
H39 C34 1_555 1_555
H40 C34 1_555 1_555
C35_2 N6 1_555 1_555
H41_2 C35_2 1_555 1_555
H42_2 C35_2 1_555 1_555
H43_2 C35_2 1_555 1_555
N11 C49_2 1_555 1_555
C49_2 H59_2 1_555 1_555
C50_2 C49_2 1_555 1_555
H60_2 C50_2 1_555 1_555
C51_2 C50_2 1_555 1_555
C52_2 C51_2 1_555 1_555
H61_2 C52_2 1_555 1_555
C53_2 N11 1_555 1_555
H62_2 C53_2 1_555 1_555
C54_2 C19_3 1_555 1_555
H63_2 C54_2 1_555 1_555
H64_2 C54_2 1_555 1_555
Mn4_2 O5 1_555 1_555
N2_2 C8_3 1_555 1_555
N2_2 Mn2_2 1_555 1_555
C5_2 C6_2 1_555 1_555
C6_2 C7_2 1_555 1_555
C17_3 C18_3 1_555 1_555
N5_2 C27_2 1_555 1_555
N5_2 Mn4_2 1_555 1_555
C24_2 C25 1_555 1_555
C25 C26 1_555 1_555
C51_2 C54_2 1_555 1_555
C52_2 C53_2 1_555 1_555
Mn1_2 O1_2 1_555 1_555
O1_2 C1_2 1_555 1_555
O2_3 C7_3 1_555 1_555
O3_4 Mn1_2 1_555 1_555
N1_3 Mn1_2 1_555 1_555
N2_3 N1_3 1_555 1_555
N3_4 Mn1_2 1_555 1_555
C1_2 C2_2 1_555 1_555
C2_2 H1_2 1_555 1_555
C3_2 C2_2 1_555 1_555
H2_2 C3_2 1_555 1_555
C4_3 C3_2 1_555 1_555
H3_3 C4_3 1_555 1_555
C5_3 C4_3 1_555 1_555
H4_3 C5_3 1_555 1_555
C6_3 C1_2 1_555 1_555
C7_3 N1_3 1_555 1_555
C8_4 O3_4 1_555 1_555
C9_4 C8_4 1_555 1_555
H5_4 C9_4 1_555 1_555
H6_4 C9_4 1_555 1_555
C10_4 C9_4 1_555 1_555
H7_4 C10_4 1_555 1_555
H8_4 C10_4 1_555 1_555
C11_4 C10_4 1_555 1_555
H9_4 C11_4 1_555 1_555
H10_4 C11_4 1_555 1_555
C14_4 N3_4 1_555 1_555
H16_2 C14_4 1_555 1_555
C15_4 C14_4 1_555 1_555
H17_4 C15_4 1_555 1_555
C16_4 C15_4 1_555 1_555
C17_4 C16_4 1_555 1_555
H18_4 C17_4 1_555 1_555
C18_4 N3_4 1_555 1_555
H19_4 C18_4 1_555 1_555
C19_4 C16_4 1_555 1_555
H20_4 C19_4 1_555 1_555
H21_4 C19_4 1_555 1_555
Mn2_3 O2_3 1_555 1_555
O6_3 Mn2_3 1_555 1_555
N4_3 Mn2_3 1_555 1_555
N5_3 N4_3 1_555 1_555
C27_3 O6_3 1_555 1_555
C28_3 C27_3 1_555 1_555
H26_3 C28_3 1_555 1_555
H27_3 C28_3 1_555 1_555
C29_3 C28_3 1_555 1_555
H28_3 C29_3 1_555 1_555
H29_3 C29_3 1_555 1_555
C30_3 C29_3 1_555 1_555
H30_3 C30_3 1_555 1_555
H31_3 C30_3 1_555 1_555
C31_3 C30_3 1_555 1_555
H32_3 C31_3 1_555 1_555
H33_3 C31_3 1_555 1_555
C32_3 C31_3 1_555 1_555
H34_3 C32_3 1_555 1_555
H35_3 C32_3 1_555 1_555
H36_3 C32_3 1_555 1_555
H37_3 C33_3 1_555 1_555
H41_3 C35_3 1_555 1_555
H42_3 C35_3 1_555 1_555
H43_3 C35_3 1_555 1_555
Mn5 O8_2 1_555 1_555
O8_2 C36_2 1_555 1_555
O9_2 Mn1_2 1_555 1_555
O10_2 Mn5 1_555 1_555
N7_2 Mn5 1_555 1_555
N8_2 Mn1_2 1_555 1_555
C36_2 C37_2 1_555 1_555
C37_2 H44_2 1_555 1_555
C38_2 C37_2 1_555 1_555
H45_2 C38_2 1_555 1_555
C39_2 C38_2 1_555 1_555
H46_2 C39_2 1_555 1_555
C40_2 C39_2 1_555 1_555
H47_2 C40_2 1_555 1_555
C41_2 C36_2 1_555 1_555
C42_2 O9_2 1_555 1_555
C43_2 O10_2 1_555 1_555
C44_2 C43_2 1_555 1_555
H48_2 C44_2 1_555 1_555
H49_2 C44_2 1_555 1_555
C45_2 C44_2 1_555 1_555
H50_2 C45_2 1_555 1_555
H51_2 C45_2 1_555 1_555
C46_2 C45_2 1_555 1_555
H52_2 C46_2 1_555 1_555
H53_2 C46_2 1_555 1_555
C47_2 C46_2 1_555 1_555
H54_2 C47_2 1_555 1_555
H55_2 C47_2 1_555 1_555
C48_2 C47_2 1_555 1_555
H56_2 C48_2 1_555 1_555
H57_2 C48_2 1_555 1_555
H58_2 C48_2 1_555 1_555
O11_2 Mn5 1_555 1_555
N10_2 Mn5 1_555 1_555
N2_3 C8_4 1_555 1_555
N2_3 Mn2_3 1_555 1_555
C5_3 C6_3 1_555 1_555
C6_3 C7_3 1_555 1_555
C17_4 C18_4 1_555 1_555
N5_3 C27_3 1_555 1_555
N5_3 Mn4_3 1_555 1_555
N7_2 N8_2 1_555 1_555
N7_2 C42_2 1_555 1_555
N8_2 C43_2 1_555 1_555
C40_2 C41_2 1_555 1_555
C41_2 C42_2 1_555 1_555
Mn1_3 O1_3 1_555 1_555
O1_3 C1_3 1_555 1_555
O2_4 C7_4 1_555 1_555
O3_5 Mn1_3 1_555 1_555
N1_4 Mn1_3 1_555 1_555
N2_4 N1_4 1_555 1_555
N3_5 Mn1_3 1_555 1_555
C1_3 C2_3 1_555 1_555
C2_3 H1_3 1_555 1_555
C3_3 C2_3 1_555 1_555
H2_3 C3_3 1_555 1_555
C4_4 C3_3 1_555 1_555
H3_4 C4_4 1_555 1_555
C5_4 C4_4 1_555 1_555
H4_4 C5_4 1_555 1_555
C6_4 C1_3 1_555 1_555
C7_4 N1_4 1_555 1_555
C8_5 O3_5 1_555 1_555
C9_5 C8_5 1_555 1_555
H5_5 C9_5 1_555 1_555
H6_5 C9_5 1_555 1_555
C10_5 C9_5 1_555 1_555
H7_5 C10_5 1_555 1_555
H8_5 C10_5 1_555 1_555
C11_5 C10_5 1_555 1_555
H9_5 C11_5 1_555 1_555
H10_5 C11_5 1_555 1_555
C12_3 C11_5 1_555 1_555
H11_3 C12_3 1_555 1_555
H12_3 C12_3 1_555 1_555
C13_3 C12_3 1_555 1_555
H13_3 C13_3 1_555 1_555
H14_3 C13_3 1_555 1_555
H15_3 C13_3 1_555 1_555
C14_5 N3_5 1_555 1_555
H16_3 C14_5 1_555 1_555
C15_5 C14_5 1_555 1_555
H17_5 C15_5 1_555 1_555
C16_5 C15_5 1_555 1_555
C17_5 C16_5 1_555 1_555
H18_5 C17_5 1_555 1_555
C18_5 N3_5 1_555 1_555
H19_5 C18_5 1_555 1_555
C19_5 C16_5 1_555 1_555
H20_5 C19_5 1_555 1_555
H21_5 C19_5 1_555 1_555
Mn2_4 O2_4 1_555 1_555
O4_2 Mn2_4 1_555 1_555
O11 C26_2 1_555 1_555
O6_4 Mn2_4 1_555 1_555
O7_2 Mn2_4 1_555 1_555
N4_4 Mn2_4 1_555 1_555
N10 N4_4 1_555 1_555
N6_2 C33_4 1_555 1_555
C20_2 O4_2 1_555 1_555
C21_3 C20_2 1_555 1_555
H22_3 C21_3 1_555 1_555
C22_3 C21_3 1_555 1_555
H23_3 C22_3 1_555 1_555
C23_3 C22_3 1_555 1_555
H24_4 C23_3 1_555 1_555
C24_3 C23_3 1_555 1_555
H25_3 C24_3 1_555 1_555
C25_2 C20_2 1_555 1_555
C26_2 N4_4 1_555 1_555
C27_4 O6_4 1_555 1_555
C28_4 C27_4 1_555 1_555
H26_4 C28_4 1_555 1_555
H27_4 C28_4 1_555 1_555
C29_4 C28_4 1_555 1_555
H28_4 C29_4 1_555 1_555
H29_4 C29_4 1_555 1_555
C30_4 C29_4 1_555 1_555
H30_4 C30_4 1_555 1_555
H31_4 C30_4 1_555 1_555
C31_4 C30_4 1_555 1_555
H32_4 C31_4 1_555 1_555
H33_4 C31_4 1_555 1_555
C32_4 C31_4 1_555 1_555
H34_4 C32_4 1_555 1_555
H35_4 C32_4 1_555 1_555
H36_4 C32_4 1_555 1_555
C33_4 O7_2 1_555 1_555
H37_4 C33_4 1_555 1_555
C34_2 N6_2 1_555 1_555
H38_2 C34_2 1_555 1_555
H39_2 C34_2 1_555 1_555
H40_2 C34_2 1_555 1_555
C35_4 N6_2 1_555 1_555
H41_4 C35_4 1_555 1_555
H42_4 C35_4 1_555 1_555
H43_4 C35_4 1_555 1_555
O9_3 Mn1_3 1_555 1_555
O10_3 Mn4 1_555 1_555
N7_3 Mn4 1_555 1_555
N8_3 Mn1_3 1_555 1_555
H46_3 C39_3 1_555 1_555
C40_3 C39_3 1_555 1_555
H47_3 C40_3 1_555 1_555
C42_3 O9_3 1_555 1_555
C43_3 O10_3 1_555 1_555
C44_3 C43_3 1_555 1_555
H48_3 C44_3 1_555 1_555
H49_3 C44_3 1_555 1_555
C45_3 C44_3 1_555 1_555
H50_3 C45_3 1_555 1_555
H51_3 C45_3 1_555 1_555
C46_3 C45_3 1_555 1_555
H52_3 C46_3 1_555 1_555
H53_3 C46_3 1_555 1_555
C47_3 C46_3 1_555 1_555
H55_3 C47_3 1_555 1_555
C48_3 C47_3 1_555 1_555
H56_3 C48_3 1_555 1_555
C49_3 H59_3 1_555 1_555
C50_3 C49_3 1_555 1_555
H60_3 C50_3 1_555 1_555
C51_3 C50_3 1_555 1_555
C54_3 C19_5 1_555 1_555
H63_3 C54_3 1_555 1_555
H64_3 C54_3 1_555 1_555
N2_4 C8_5 1_555 1_555
N2_4 Mn2_4 1_555 1_555
C5_4 C6_4 1_555 1_555
C6_4 C7_4 1_555 1_555
C17_5 C18_5 1_555 1_555
N10 C27_4 1_555 1_555
C24_3 C25_2 1_555 1_555
C25_2 C26_2 1_555 1_555
N7_3 N8_3 1_555 1_555
N7_3 C42_3 1_555 1_555
N8_3 C43_3 1_555 1_555
C40_3 C41_3 1_555 1_555
C41_3 C42_3 1_555 1_555
C51_3 C54_3 1_555 1_555
Mn1_4 O1_4 1_555 1_555
O1_4 C1_4 1_555 1_555
O2_5 C7_5 1_555 1_555
O3_6 Mn1_4 1_555 1_555
N1_5 Mn1_4 1_555 1_555
N2_5 N1_5 1_555 1_555
N3_6 Mn1_4 1_555 1_555
C1_4 C2_4 1_555 1_555
C2_4 H1_4 1_555 1_555
C3_4 C2_4 1_555 1_555
H2_4 C3_4 1_555 1_555
C4_5 C3_4 1_555 1_555
H3_5 C4_5 1_555 1_555
C5_5 C4_5 1_555 1_555
H4_5 C5_5 1_555 1_555
C6_5 C1_4 1_555 1_555
C7_5 N1_5 1_555 1_555
C8_6 O3_6 1_555 1_555
C9_6 C8_6 1_555 1_555
H5_6 C9_6 1_555 1_555
H6_6 C9_6 1_555 1_555
C10_6 C9_6 1_555 1_555
H7_6 C10_6 1_555 1_555
H8_6 C10_6 1_555 1_555
C11_6 C10_6 1_555 1_555
H9_6 C11_6 1_555 1_555
H10_6 C11_6 1_555 1_555
C12_4 C11_6 1_555 1_555
H11_4 C12_4 1_555 1_555
H12_4 C12_4 1_555 1_555
C13_4 C12_4 1_555 1_555
H13_4 C13_4 1_555 1_555
H14_4 C13_4 1_555 1_555
H15_4 C13_4 1_555 1_555
C14_6 N3_6 1_555 1_555
H16_4 C14_6 1_555 1_555
C15_6 C14_6 1_555 1_555
H17_6 C15_6 1_555 1_555
C16_6 C15_6 1_555 1_555
C17_6 C16_6 1_555 1_555
H18_6 C17_6 1_555 1_555
C18_6 N3_6 1_555 1_555
H19_6 C18_6 1_555 1_555
C19_6 C16_6 1_555 1_555
H20_6 C19_6 1_555 1_555
H21_6 C19_6 1_555 1_555
Mn2_5 O2_5 1_555 1_555
O4_3 Mn2_5 1_555 1_555
O11_2 C26_3 1_555 1_555
O6_5 Mn2_5 1_555 1_555
O7_3 Mn2_5 1_555 1_555
N4_5 Mn2_5 1_555 1_555
N10_2 N4_5 1_555 1_555
N6_3 C33_5 1_555 1_555
C20_3 O4_3 1_555 1_555
C21_4 C20_3 1_555 1_555
H22_4 C21_4 1_555 1_555
C22_4 C21_4 1_555 1_555
H23_4 C22_4 1_555 1_555
C23_4 C22_4 1_555 1_555
H24_6 C23_4 1_555 1_555
C24_4 C23_4 1_555 1_555
H25_4 C24_4 1_555 1_555
C25_3 C20_3 1_555 1_555
C26_3 N4_5 1_555 1_555
C27_5 O6_5 1_555 1_555
C28_5 C27_5 1_555 1_555
H26_5 C28_5 1_555 1_555
H27_5 C28_5 1_555 1_555
C29_5 C28_5 1_555 1_555
H28_5 C29_5 1_555 1_555
H29_5 C29_5 1_555 1_555
C30_5 C29_5 1_555 1_555
H30_5 C30_5 1_555 1_555
H31_5 C30_5 1_555 1_555
C31_5 C30_5 1_555 1_555
H32_5 C31_5 1_555 1_555
H33_5 C31_5 1_555 1_555
C32_5 C31_5 1_555 1_555
H34_5 C32_5 1_555 1_555
H35_5 C32_5 1_555 1_555
H36_5 C32_5 1_555 1_555
C33_5 O7_3 1_555 1_555
H37_5 C33_5 1_555 1_555
C34_3 N6_3 1_555 1_555
H38_3 C34_3 1_555 1_555
H39_3 C34_3 1_555 1_555
H40_3 C34_3 1_555 1_555
C35_5 N6_3 1_555 1_555
H41_5 C35_5 1_555 1_555
H42_5 C35_5 1_555 1_555
H43_5 C35_5 1_555 1_555
O9_4 Mn1_4 1_555 1_555
O10_4 Mn4_3 1_555 1_555
N7_4 Mn4_3 1_555 1_555
N8_4 Mn1_4 1_555 1_555
N9_2 C49_4 1_555 1_555
H46_4 C39_4 1_555 1_555
C40_4 C39_4 1_555 1_555
H47_4 C40_4 1_555 1_555
C42_4 O9_4 1_555 1_555
C43_4 O10_4 1_555 1_555
C44_4 C43_4 1_555 1_555
H48_4 C44_4 1_555 1_555
H49_4 C44_4 1_555 1_555
C45_4 C44_4 1_555 1_555
H50_4 C45_4 1_555 1_555
H51_4 C45_4 1_555 1_555
C46_4 C45_4 1_555 1_555
H52_4 C46_4 1_555 1_555
H53_4 C46_4 1_555 1_555
C47_4 C46_4 1_555 1_555
H55_4 C47_4 1_555 1_555
C48_4 C47_4 1_555 1_555
H56_4 C48_4 1_555 1_555
C49_4 H59_4 1_555 1_555
C50_4 C49_4 1_555 1_555
H60_4 C50_4 1_555 1_555
C51_4 C50_4 1_555 1_555
C52_3 C51_4 1_555 1_555
H61_3 C52_3 1_555 1_555
C53_3 N9_2 1_555 1_555
H62_3 C53_3 1_555 1_555
C54_4 C19_6 1_555 1_555
H63_4 C54_4 1_555 1_555
H64_4 C54_4 1_555 1_555
Mn4_2 N9_2 1_555 1_555
N2_5 C8_6 1_555 1_555
N2_5 Mn2_5 1_555 1_555
C5_5 C6_5 1_555 1_555
C6_5 C7_5 1_555 1_555
C17_6 C18_6 1_555 1_555
N10_2 C27_5 1_555 1_555
C24_4 C25_3 1_555 1_555
C25_3 C26_3 1_555 1_555
N7_4 N8_4 1_555 1_555
N7_4 C42_4 1_555 1_555
N8_4 C43_4 1_555 1_555
C40_4 C41_4 1_555 1_555
C41_4 C42_4 1_555 1_555
C51_4 C54_4 1_555 1_555
C52_3 C53_3 1_555 1_555
Mn1_5 O1_5 1_555 1_555
O1_5 C1_5 1_555 1_555
C1_5 C2_5 1_555 1_555
C2_5 H1_5 1_555 1_555
C3_5 C2_5 1_555 1_555
H2_5 C3_5 1_555 1_555
Mn4_2 O8_3 1_555 1_555
O8_3 C36_3 1_555 1_555
O9_5 Mn1_5 1_555 1_555
O10_5 Mn4_2 1_555 1_555
N7_5 Mn4_2 1_555 1_555
N8_5 Mn1_5 1_555 1_555
C36_3 C37_3 1_555 1_555
C37_3 H44_3 1_555 1_555
C38_3 C37_3 1_555 1_555
H45_3 C38_3 1_555 1_555
C39_5 C38_3 1_555 1_555
H46_5 C39_5 1_555 1_555
C40_5 C39_5 1_555 1_555
H47_5 C40_5 1_555 1_555
C41_5 C36_3 1_555 1_555
C42_5 O9_5 1_555 1_555
C43_5 O10_5 1_555 1_555
C44_5 C43_5 1_555 1_555
H48_5 C44_5 1_555 1_555
H49_5 C44_5 1_555 1_555
C45_5 C44_5 1_555 1_555
H50_5 C45_5 1_555 1_555
H51_5 C45_5 1_555 1_555
C46_5 C45_5 1_555 1_555
H52_5 C46_5 1_555 1_555
H53_5 C46_5 1_555 1_555
C47_5 C46_5 1_555 1_555
H54_3 C47_5 1_555 1_555
H55_5 C47_5 1_555 1_555
C48_5 C47_5 1_555 1_555
H56_5 C48_5 1_555 1_555
H57_3 C48_5 1_555 1_555
H58_3 C48_5 1_555 1_555
N7_5 N8_5 1_555 1_555
N7_5 C42_5 1_555 1_555
N8_5 C43_5 1_555 1_555
C40_5 C41_5 1_555 1_555
C41_5 C42_5 1_555 1_555
H11_5 C12_5 1_555 1_555
H12_5 C12_5 1_555 1_555
C13_5 C12_5 1_555 1_555
H13_5 C13_5 1_555 1_555
H14_5 C13_5 1_555 1_555
H15_5 C13_5 1_555 1_555
O5_2 C26_4 1_555 1_555
C20_4 O4_4 1_555 1_555
C21_5 C20_4 1_555 1_555
H22_5 C21_5 1_555 1_555
C22_5 C21_5 1_555 1_555
H23_5 C22_5 1_555 1_555
C23_5 C22_5 1_555 1_555
H24_7 C23_5 1_555 1_555
C24_5 C23_5 1_555 1_555
H25_5 C24_5 1_555 1_555
C25_4 C20_4 1_555 1_555
C34_4 N6_4 1_555 1_555
H38_4 C34_4 1_555 1_555
H39_4 C34_4 1_555 1_555
H40_4 C34_4 1_555 1_555
N9_3 C49_5 1_555 1_555
C49_5 H59_5 1_555 1_555
C50_5 C49_5 1_555 1_555
H60_5 C50_5 1_555 1_555
C51_5 C50_5 1_555 1_555
C52_4 C51_5 1_555 1_555
H61_4 C52_4 1_555 1_555
C53_4 N9_3 1_555 1_555
H62_4 C53_4 1_555 1_555
H63_5 C54_5 1_555 1_555
H64_5 C54_5 1_555 1_555
Mn5_2 N9_3 1_555 1_555
C24_5 C25_4 1_555 1_555
C25_4 C26_4 1_555 1_555
C51_5 C54_5 1_555 1_555
C52_4 C53_4 1_555 1_555
Mn1_6 O1_6 1_555 1_555
O1_6 C1_6 1_555 1_555
O2_6 C7_6 1_555 1_555
O3_7 Mn1_6 1_555 1_555
N1_6 Mn1_6 1_555 1_555
N2_6 N1_6 1_555 1_555
N3_7 Mn1_6 1_555 1_555
C1_6 C2_6 1_555 1_555
C2_6 H1_6 1_555 1_555
C3_6 C2_6 1_555 1_555
H2_6 C3_6 1_555 1_555
C4_6 C3_6 1_555 1_555
H3_6 C4_6 1_555 1_555
C5_6 C4_6 1_555 1_555
H4_6 C5_6 1_555 1_555
C6_6 C1_6 1_555 1_555
C7_6 N1_6 1_555 1_555
C8_7 O3_7 1_555 1_555
C9_7 C8_7 1_555 1_555
H5_7 C9_7 1_555 1_555
H6_7 C9_7 1_555 1_555
C10_7 C9_7 1_555 1_555
H7_7 C10_7 1_555 1_555
H8_7 C10_7 1_555 1_555
C11_7 C10_7 1_555 1_555
H9_7 C11_7 1_555 1_555
C12_6 C11_7 1_555 1_555
H11_6 C12_6 1_555 1_555
H12_6 C12_6 1_555 1_555
C14_7 N3_7 1_555 1_555
H16_6 C14_7 1_555 1_555
C15_7 C14_7 1_555 1_555
H17_7 C15_7 1_555 1_555
C16_7 C15_7 1_555 1_555
C17_7 C16_7 1_555 1_555
H18_7 C17_7 1_555 1_555
C18_7 N3_7 1_555 1_555
H19_7 C18_7 1_555 1_555
C19_7 C16_7 1_555 1_555
H20_7 C19_7 1_555 1_555
H21_7 C19_7 1_555 1_555
Mn2_6 O2_6 1_555 1_555
O4_5 Mn2_6 1_555 1_555
O6_6 Mn2_6 1_555 1_555
O7_5 Mn2_6 1_555 1_555
N4_6 Mn2_6 1_555 1_555
N5_4 N4_6 1_555 1_555
N6_5 C33_6 1_555 1_555
C20_5 O4_5 1_555 1_555
C21_6 C20_5 1_555 1_555
H22_6 C21_6 1_555 1_555
C22_6 C21_6 1_555 1_555
H23_6 C22_6 1_555 1_555
C23_6 C22_6 1_555 1_555
C24_6 C23_6 1_555 1_555
H25_6 C24_6 1_555 1_555
C25_5 C20_5 1_555 1_555
C26_5 N4_6 1_555 1_555
C27_6 O6_6 1_555 1_555
H28_6 C29_6 1_555 1_555
H32_6 C31_6 1_555 1_555
C33_6 O7_5 1_555 1_555
H37_6 C33_6 1_555 1_555
C34_5 N6_5 1_555 1_555
H38_5 C34_5 1_555 1_555
H39_5 C34_5 1_555 1_555
H40_5 C34_5 1_555 1_555
C35_6 N6_5 1_555 1_555
H41_6 C35_6 1_555 1_555
H42_6 C35_6 1_555 1_555
H43_6 C35_6 1_555 1_555
Mn5_2 O8_4 1_555 1_555
O8_4 C36_4 1_555 1_555
O9_6 Mn1_6 1_555 1_555
O10_6 Mn5_2 1_555 1_555
N7_6 Mn5_2 1_555 1_555
N8_6 Mn1_6 1_555 1_555
N9_4 C49_6 1_555 1_555
C36_4 C37_4 1_555 1_555
C37_4 H44_4 1_555 1_555
C38_4 C37_4 1_555 1_555
H45_4 C38_4 1_555 1_555
C39_6 C38_4 1_555 1_555
H46_6 C39_6 1_555 1_555
C40_6 C39_6 1_555 1_555
H47_6 C40_6 1_555 1_555
C41_6 C36_4 1_555 1_555
C42_6 O9_6 1_555 1_555
C43_6 O10_6 1_555 1_555
C44_6 C43_6 1_555 1_555
H48_6 C44_6 1_555 1_555
H49_6 C44_6 1_555 1_555
C45_6 C44_6 1_555 1_555
H50_6 C45_6 1_555 1_555
H51_6 C45_6 1_555 1_555
C46_6 C45_6 1_555 1_555
H52_6 C46_6 1_555 1_555
H53_6 C46_6 1_555 1_555
C47_6 C46_6 1_555 1_555
H54_4 C47_6 1_555 1_555
H55_6 C47_6 1_555 1_555
C48_6 C47_6 1_555 1_555
H56_6 C48_6 1_555 1_555
H57_4 C48_6 1_555 1_555
H58_4 C48_6 1_555 1_555
C49_6 H59_6 1_555 1_555
C50_6 C49_6 1_555 1_555
H60_6 C50_6 1_555 1_555
C51_6 C50_6 1_555 1_555
C52_5 C51_6 1_555 1_555
H61_5 C52_5 1_555 1_555
C53_5 N9_4 1_555 1_555
H62_5 C53_5 1_555 1_555
C54_6 C19_7 1_555 1_555
H63_6 C54_6 1_555 1_555
H64_6 C54_6 1_555 1_555
O11_3 Mn5_2 1_555 1_555
N2_6 C8_7 1_555 1_555
N2_6 Mn2_6 1_555 1_555
C5_6 C6_6 1_555 1_555
C6_6 C7_6 1_555 1_555
C17_7 C18_7 1_555 1_555
N5_4 C27_6 1_555 1_555
C24_6 C25_5 1_555 1_555
C25_5 C26_5 1_555 1_555
N7_6 N8_6 1_555 1_555
N7_6 C42_6 1_555 1_555
N8_6 C43_6 1_555 1_555
C40_6 C41_6 1_555 1_555
C41_6 C42_6 1_555 1_555
C51_6 C54_6 1_555 1_555
C52_5 C53_5 1_555 1_555
H26_6 C28_6 1_555 1_555
H27_6 C28_6 1_555 1_555
H31_6 C30_6 1_555 1_555
H36_6 C32_6 1_555 1_555
Mn4_4 O5_3 1_555 1_555
O8_5 C36_5 1_555 1_555
C36_5 C37_5 1_555 1_555
C37_5 H44_5 1_555 1_555
C38_5 C37_5 1_555 1_555
H45_5 C38_5 1_555 1_555
H13_6 C13_6 1_555 1_555
H14_6 C13_6 1_555 1_555
H15_6 C13_6 1_555 1_555
H26_7 C28_7 1_555 1_555
H27_7 C28_7 1_555 1_555
H31_7 C30_7 1_555 1_555
H36_7 C32_7 1_555 1_555
O8_6 C36_6 1_555 1_555
C36_6 C37_6 1_555 1_555
C37_6 H44_6 1_555 1_555
C38_6 C37_6 1_555 1_555
H45_6 C38_6 1_555 1_555
Mn1_7 O1_7 1_555 1_555
O3_8 Mn1_7 1_555 1_555
N3_8 Mn1_7 1_555 1_555
C8_8 O3_8 1_555 1_555
C9_8 C8_8 1_555 1_555
H5_8 C9_8 1_555 1_555
H6_8 C9_8 1_555 1_555
C10_8 C9_8 1_555 1_555
H7_8 C10_8 1_555 1_555
H8_8 C10_8 1_555 1_555
C11_8 C10_8 1_555 1_555
H9_8 C11_8 1_555 1_555
C12_7 C11_8 1_555 1_555
H11_7 C12_7 1_555 1_555
H12_7 C12_7 1_555 1_555
C14_8 N3_8 1_555 1_555
H16_7 C14_8 1_555 1_555
C15_8 C14_8 1_555 1_555
H17_8 C15_8 1_555 1_555
C16_8 C15_8 1_555 1_555
C17_8 C16_8 1_555 1_555
H18_8 C17_8 1_555 1_555
C18_8 N3_8 1_555 1_555
H19_8 C18_8 1_555 1_555
C19_8 C16_8 1_555 1_555
H20_8 C19_8 1_555 1_555
H21_8 C19_8 1_555 1_555
H22_7 C21_7 1_555 1_555
C22_7 C21_7 1_555 1_555
H23_7 C22_7 1_555 1_555
C23_7 C22_7 1_555 1_555
C24_7 C23_7 1_555 1_555
H25_7 C24_7 1_555 1_555
Mn4_4 O8_7 1_555 1_555
O8_7 C36_7 1_555 1_555
O9_7 Mn1_7 1_555 1_555
N7_7 Mn4_4 1_555 1_555
N8_7 Mn1_7 1_555 1_555
N11_2 C49_7 1_555 1_555
C36_7 C37_7 1_555 1_555
C37_7 H44_7 1_555 1_555
C38_7 C37_7 1_555 1_555
H45_7 C38_7 1_555 1_555
C39_7 C38_7 1_555 1_555
H46_7 C39_7 1_555 1_555
C40_7 C39_7 1_555 1_555
H47_7 C40_7 1_555 1_555
C41_7 C36_7 1_555 1_555
C42_7 O9_7 1_555 1_555
C49_7 H59_7 1_555 1_555
C50_7 C49_7 1_555 1_555
H60_7 C50_7 1_555 1_555
C51_7 C50_7 1_555 1_555
C52_6 C51_7 1_555 1_555
H61_6 C52_6 1_555 1_555
C53_6 N11_2 1_555 1_555
H62_6 C53_6 1_555 1_555
C54_7 C19_8 1_555 1_555
H63_7 C54_7 1_555 1_555
H64_7 C54_7 1_555 1_555
N11_3 Mn4_4 1_555 1_555
C17_8 C18_8 1_555 1_555
N7_7 N8_7 1_555 1_555
N7_7 C42_7 1_555 1_555
C40_7 C41_7 1_555 1_555
C41_7 C42_7 1_555 1_555
C51_7 C54_7 1_555 1_555
C52_6 C53_6 1_555 1_555
H11_8 C12_8 1_555 1_555
H12_8 C12_8 1_555 1_555
C13_7 C12_8 1_555 1_555
H13_7 C13_7 1_555 1_555
H14_7 C13_7 1_555 1_555
H15_7 C13_7 1_555 1_555
O11_4 C26_6 1_555 1_555
C20_6 O4_6 1_555 1_555
C21_8 C20_6 1_555 1_555
H22_8 C21_8 1_555 1_555
C22_8 C21_8 1_555 1_555
H23_8 C22_8 1_555 1_555
C23_8 C22_8 1_555 1_555
H24_8 C23_8 1_555 1_555
C24_8 C23_8 1_555 1_555
H25_8 C24_8 1_555 1_555
C25_6 C20_6 1_555 1_555
C34_6 N6_6 1_555 1_555
H38_6 C34_6 1_555 1_555
H39_6 C34_6 1_555 1_555
H40_6 C34_6 1_555 1_555
C49_8 H59_8 1_555 1_555
C50_8 C49_8 1_555 1_555
H60_8 C50_8 1_555 1_555
C51_8 C50_8 1_555 1_555
H63_8 C54_8 1_555 1_555
H64_8 C54_8 1_555 1_555
C24_8 C25_6 1_555 1_555
C25_6 C26_6 1_555 1_555
C51_8 C54_8 1_555 1_555
H61_7 C52_7 1_555 1_555
C53_7 N11_3 1_555 1_555
H62_7 C53_7 1_555 1_555
C52_7 C53_7 1_555 1_555
Mn1_8 O1_8 1_555 1_555
O1_8 C1_7 1_555 1_555
O2_7 C7_7 1_555 1_555
O3_9 Mn1_8 1_555 1_555
N1_7 Mn1_8 1_555 1_555
N2_7 N1_7 1_555 1_555
N3_9 Mn1_8 1_555 1_555
C1_7 C2_7 1_555 1_555
C2_7 H1_7 1_555 1_555
C3_7 C2_7 1_555 1_555
H2_7 C3_7 1_555 1_555
C4_7 C3_7 1_555 1_555
H3_7 C4_7 1_555 1_555
C5_7 C4_7 1_555 1_555
H4_7 C5_7 1_555 1_555
C6_7 C1_7 1_555 1_555
C7_7 N1_7 1_555 1_555
C8_9 O3_9 1_555 1_555
C9_9 C8_9 1_555 1_555
H5_9 C9_9 1_555 1_555
H6_9 C9_9 1_555 1_555
C10_9 C9_9 1_555 1_555
H7_9 C10_9 1_555 1_555
H8_9 C10_9 1_555 1_555
C11_9 C10_9 1_555 1_555
H9_9 C11_9 1_555 1_555
H10_8 C11_9 1_555 1_555
C12_9 C11_9 1_555 1_555
H11_9 C12_9 1_555 1_555
H12_9 C12_9 1_555 1_555
C13_8 C12_9 1_555 1_555
H13_8 C13_8 1_555 1_555
H14_8 C13_8 1_555 1_555
H15_8 C13_8 1_555 1_555
C14_9 N3_9 1_555 1_555
H16_8 C14_9 1_555 1_555
C15_9 C14_9 1_555 1_555
H17_9 C15_9 1_555 1_555
C16_9 C15_9 1_555 1_555
C17_9 C16_9 1_555 1_555
H18_9 C17_9 1_555 1_555
C18_9 N3_9 1_555 1_555
H19_9 C18_9 1_555 1_555
C19_9 C16_9 1_555 1_555
H20_9 C19_9 1_555 1_555
H21_9 C19_9 1_555 1_555
Mn2_7 O2_7 1_555 1_555
O4_7 Mn2_7 1_555 1_555
O5_4 C26_7 1_555 1_555
O6_7 Mn2_7 1_555 1_555
O7_7 Mn2_7 1_555 1_555
N4_7 Mn2_7 1_555 1_555
N5_5 N4_7 1_555 1_555
N6_7 C33_7 1_555 1_555
C20_7 O4_7 1_555 1_555
C21_9 C20_7 1_555 1_555
H22_9 C21_9 1_555 1_555
C22_9 C21_9 1_555 1_555
H23_9 C22_9 1_555 1_555
C23_9 C22_9 1_555 1_555
H24_10 C23_9 1_555 1_555
C24_9 C23_9 1_555 1_555
H25_9 C24_9 1_555 1_555
C25_7 C20_7 1_555 1_555
C26_7 N4_7 1_555 1_555
C27_7 O6_7 1_555 1_555
C28_8 C27_7 1_555 1_555
H26_8 C28_8 1_555 1_555
H27_8 C28_8 1_555 1_555
C29_7 C28_8 1_555 1_555
H28_7 C29_7 1_555 1_555
H29_8 C29_7 1_555 1_555
C30_8 C29_7 1_555 1_555
H30_7 C30_8 1_555 1_555
H31_8 C30_8 1_555 1_555
C31_7 C30_8 1_555 1_555
H32_7 C31_7 1_555 1_555
H33_8 C31_7 1_555 1_555
C32_8 C31_7 1_555 1_555
H34_7 C32_8 1_555 1_555
H35_7 C32_8 1_555 1_555
H36_8 C32_8 1_555 1_555
C33_7 O7_7 1_555 1_555
H37_7 C33_7 1_555 1_555
C34_7 N6_7 1_555 1_555
H38_7 C34_7 1_555 1_555
H39_7 C34_7 1_555 1_555
H40_7 C34_7 1_555 1_555
C35_7 N6_7 1_555 1_555
H41_7 C35_7 1_555 1_555
H42_7 C35_7 1_555 1_555
H43_7 C35_7 1_555 1_555
O9_8 Mn1_8 1_555 1_555
O10_7 Mn3_2 1_555 1_555
N7_8 Mn3_2 1_555 1_555
N8_8 Mn1_8 1_555 1_555
H46_8 C39_8 1_555 1_555
C40_8 C39_8 1_555 1_555
H47_8 C40_8 1_555 1_555
C42_8 O9_8 1_555 1_555
C43_7 O10_7 1_555 1_555
C44_7 C43_7 1_555 1_555
H48_7 C44_7 1_555 1_555
H49_7 C44_7 1_555 1_555
C45_7 C44_7 1_555 1_555
H50_7 C45_7 1_555 1_555
H51_7 C45_7 1_555 1_555
C46_7 C45_7 1_555 1_555
H52_7 C46_7 1_555 1_555
H53_7 C46_7 1_555 1_555
C47_7 C46_7 1_555 1_555
H55_7 C47_7 1_555 1_555
C48_7 C47_7 1_555 1_555
H56_7 C48_7 1_555 1_555
C49_9 H59_9 1_555 1_555
C50_9 C49_9 1_555 1_555
H60_9 C50_9 1_555 1_555
C51_9 C50_9 1_555 1_555
C54_9 C19_9 1_555 1_555
H63_9 C54_9 1_555 1_555
H64_9 C54_9 1_555 1_555
N10_3 Mn3_2 1_555 1_555
Mn4_5 O5_4 1_555 1_555
N2_7 C8_9 1_555 1_555
N2_7 Mn2_7 1_555 1_555
C5_7 C6_7 1_555 1_555
C6_7 C7_7 1_555 1_555
C17_9 C18_9 1_555 1_555
N5_5 C27_7 1_555 1_555
N5_5 Mn4_5 1_555 1_555
C24_9 C25_7 1_555 1_555
C25_7 C26_7 1_555 1_555
N7_8 N8_8 1_555 1_555
N7_8 C42_8 1_555 1_555
N8_8 C43_7 1_555 1_555
C40_8 C41_8 1_555 1_555
C41_8 C42_8 1_555 1_555
C51_9 C54_9 1_555 1_555
Mn1_9 O1_9 1_555 1_555
O1_9 C1_8 1_555 1_555
O2_8 C7_8 1_555 1_555
O3_10 Mn1_9 1_555 1_555
N1_8 Mn1_9 1_555 1_555
N2_8 N1_8 1_555 1_555
N3_10 Mn1_9 1_555 1_555
C1_8 C2_8 1_555 1_555
C2_8 H1_8 1_555 1_555
C3_8 C2_8 1_555 1_555
H2_8 C3_8 1_555 1_555
C4_8 C3_8 1_555 1_555
H3_8 C4_8 1_555 1_555
C5_8 C4_8 1_555 1_555
H4_8 C5_8 1_555 1_555
C6_8 C1_8 1_555 1_555
C7_8 N1_8 1_555 1_555
C8_10 O3_10 1_555 1_555
C9_10 C8_10 1_555 1_555
H5_10 C9_10 1_555 1_555
H6_10 C9_10 1_555 1_555
C10_10 C9_10 1_555 1_555
H7_10 C10_10 1_555 1_555
H8_10 C10_10 1_555 1_555
C11_10 C10_10 1_555 1_555
H9_10 C11_10 1_555 1_555
H10_9 C11_10 1_555 1_555
C12_10 C11_10 1_555 1_555
H11_10 C12_10 1_555 1_555
H12_10 C12_10 1_555 1_555
C13_9 C12_10 1_555 1_555
H13_9 C13_9 1_555 1_555
H14_9 C13_9 1_555 1_555
H15_9 C13_9 1_555 1_555
C14_10 N3_10 1_555 1_555
H16_9 C14_10 1_555 1_555
C15_10 C14_10 1_555 1_555
H17_10 C15_10 1_555 1_555
C16_10 C15_10 1_555 1_555
C17_10 C16_10 1_555 1_555
H18_10 C17_10 1_555 1_555
C18_10 N3_10 1_555 1_555
H19_10 C18_10 1_555 1_555
C19_10 C16_10 1_555 1_555
H20_10 C19_10 1_555 1_555
H21_10 C19_10 1_555 1_555
Mn2_8 O2_8 1_555 1_555
O4_8 Mn2_8 1_555 1_555
O5_5 C26_8 1_555 1_555
O6_8 Mn2_8 1_555 1_555
O7_8 Mn2_8 1_555 1_555
N4_8 Mn2_8 1_555 1_555
N5_6 N4_8 1_555 1_555
N6_8 C33_8 1_555 1_555
C20_8 O4_8 1_555 1_555
C21_10 C20_8 1_555 1_555
H22_10 C21_10 1_555 1_555
C22_10 C21_10 1_555 1_555
H23_10 C22_10 1_555 1_555
C23_10 C22_10 1_555 1_555
H24_12 C23_10 1_555 1_555
C24_10 C23_10 1_555 1_555
H25_10 C24_10 1_555 1_555
C25_8 C20_8 1_555 1_555
C26_8 N4_8 1_555 1_555
C27_8 O6_8 1_555 1_555
C28_9 C27_8 1_555 1_555
H26_9 C28_9 1_555 1_555
H27_9 C28_9 1_555 1_555
C29_8 C28_9 1_555 1_555
H28_8 C29_8 1_555 1_555
H29_9 C29_8 1_555 1_555
C30_9 C29_8 1_555 1_555
H30_8 C30_9 1_555 1_555
H31_9 C30_9 1_555 1_555
C31_8 C30_9 1_555 1_555
H32_8 C31_8 1_555 1_555
H33_9 C31_8 1_555 1_555
C32_9 C31_8 1_555 1_555
H34_8 C32_9 1_555 1_555
H35_8 C32_9 1_555 1_555
H36_9 C32_9 1_555 1_555
C33_8 O7_8 1_555 1_555
H37_8 C33_8 1_555 1_555
C34_8 N6_8 1_555 1_555
H38_8 C34_8 1_555 1_555
H39_8 C34_8 1_555 1_555
H40_8 C34_8 1_555 1_555
C35_8 N6_8 1_555 1_555
H41_8 C35_8 1_555 1_555
H42_8 C35_8 1_555 1_555
H43_8 C35_8 1_555 1_555
O9_9 Mn1_9 1_555 1_555
O10_8 Mn5_3 1_555 1_555
N7_9 Mn5_3 1_555 1_555
N8_9 Mn1_9 1_555 1_555
N9_5 C49_10 1_555 1_555
H46_9 C39_9 1_555 1_555
C40_9 C39_9 1_555 1_555
H47_9 C40_9 1_555 1_555
C42_9 O9_9 1_555 1_555
C43_8 O10_8 1_555 1_555
C44_8 C43_8 1_555 1_555
H48_8 C44_8 1_555 1_555
H49_8 C44_8 1_555 1_555
C45_8 C44_8 1_555 1_555
H50_8 C45_8 1_555 1_555
H51_8 C45_8 1_555 1_555
C46_8 C45_8 1_555 1_555
H52_8 C46_8 1_555 1_555
H53_8 C46_8 1_555 1_555
C47_8 C46_8 1_555 1_555
H55_8 C47_8 1_555 1_555
C48_8 C47_8 1_555 1_555
H56_8 C48_8 1_555 1_555
C49_10 H59_10 1_555 1_555
C50_10 C49_10 1_555 1_555
H60_10 C50_10 1_555 1_555
C51_10 C50_10 1_555 1_555
C52_8 C51_10 1_555 1_555
H61_8 C52_8 1_555 1_555
C53_8 N9_5 1_555 1_555
H62_8 C53_8 1_555 1_555
C54_10 C19_10 1_555 1_555
H63_10 C54_10 1_555 1_555
H64_10 C54_10 1_555 1_555
N10_4 Mn5_3 1_555 1_555
Mn4_6 O5_5 1_555 1_555
Mn5_4 N9_5 1_555 1_555
N2_8 C8_10 1_555 1_555
N2_8 Mn2_8 1_555 1_555
C5_8 C6_8 1_555 1_555
C6_8 C7_8 1_555 1_555
C17_10 C18_10 1_555 1_555
N5_6 C27_8 1_555 1_555
N5_6 Mn4_6 1_555 1_555
C24_10 C25_8 1_555 1_555
C25_8 C26_8 1_555 1_555
N7_9 N8_9 1_555 1_555
N7_9 C42_9 1_555 1_555
N8_9 C43_8 1_555 1_555
C40_9 C41_9 1_555 1_555
C41_9 C42_9 1_555 1_555
C51_10 C54_10 1_555 1_555
C52_8 C53_8 1_555 1_555
Mn1_10 O1_10 1_555 1_555
O1_10 C1_9 1_555 1_555
C1_9 C2_9 1_555 1_555
C2_9 H1_9 1_555 1_555
C3_9 C2_9 1_555 1_555
H2_9 C3_9 1_555 1_555
Mn5_4 O8_8 1_555 1_555
O8_8 C36_8 1_555 1_555
O9_10 Mn1_10 1_555 1_555
O10_9 Mn5_4 1_555 1_555
N7_10 Mn5_4 1_555 1_555
N8_10 Mn1_10 1_555 1_555
C36_8 C37_8 1_555 1_555
C37_8 H44_8 1_555 1_555
C38_8 C37_8 1_555 1_555
H45_8 C38_8 1_555 1_555
C39_10 C38_8 1_555 1_555
H46_10 C39_10 1_555 1_555
C40_10 C39_10 1_555 1_555
H47_10 C40_10 1_555 1_555
C41_10 C36_8 1_555 1_555
C42_10 O9_10 1_555 1_555
C43_9 O10_9 1_555 1_555
C44_9 C43_9 1_555 1_555
H48_9 C44_9 1_555 1_555
H49_9 C44_9 1_555 1_555
C45_9 C44_9 1_555 1_555
H50_9 C45_9 1_555 1_555
H51_9 C45_9 1_555 1_555
C46_9 C45_9 1_555 1_555
H52_9 C46_9 1_555 1_555
H53_9 C46_9 1_555 1_555
C47_9 C46_9 1_555 1_555
H54_7 C47_9 1_555 1_555
H55_9 C47_9 1_555 1_555
C48_9 C47_9 1_555 1_555
H56_9 C48_9 1_555 1_555
H57_7 C48_9 1_555 1_555
H58_7 C48_9 1_555 1_555
O11_5 Mn5_4 1_555 1_555
N10_5 Mn5_4 1_555 1_555
N7_10 N8_10 1_555 1_555
N7_10 C42_10 1_555 1_555
N8_10 C43_9 1_555 1_555
C40_10 C41_10 1_555 1_555
C41_10 C42_10 1_555 1_555
Mn1_11 O1_11 1_555 1_555
O1_11 C1_10 1_555 1_555
O2_9 C7_9 1_555 1_555
O3_11 Mn1_11 1_555 1_555
N1_9 Mn1_11 1_555 1_555
N2_9 N1_9 1_555 1_555
N3_11 Mn1_11 1_555 1_555
C1_10 C2_10 1_555 1_555
C2_10 H1_10 1_555 1_555
C3_10 C2_10 1_555 1_555
H2_10 C3_10 1_555 1_555
C4_9 C3_10 1_555 1_555
H3_9 C4_9 1_555 1_555
C5_9 C4_9 1_555 1_555
H4_9 C5_9 1_555 1_555
C6_9 C1_10 1_555 1_555
C7_9 N1_9 1_555 1_555
C8_11 O3_11 1_555 1_555
C9_11 C8_11 1_555 1_555
H5_11 C9_11 1_555 1_555
H6_11 C9_11 1_555 1_555
C10_11 C9_11 1_555 1_555
H7_11 C10_11 1_555 1_555
H8_11 C10_11 1_555 1_555
C11_11 C10_11 1_555 1_555
H9_11 C11_11 1_555 1_555
H10_10 C11_11 1_555 1_555
C14_11 N3_11 1_555 1_555
H16_11 C14_11 1_555 1_555
C15_11 C14_11 1_555 1_555
H17_11 C15_11 1_555 1_555
C16_11 C15_11 1_555 1_555
C17_11 C16_11 1_555 1_555
H18_11 C17_11 1_555 1_555
C18_11 N3_11 1_555 1_555
H19_11 C18_11 1_555 1_555
C19_11 C16_11 1_555 1_555
H20_11 C19_11 1_555 1_555
H21_11 C19_11 1_555 1_555
Mn2_9 O2_9 1_555 1_555
O6_9 Mn2_9 1_555 1_555
N4_9 Mn2_9 1_555 1_555
N10_3 N4_9 1_555 1_555
C27_9 O6_9 1_555 1_555
C28_10 C27_9 1_555 1_555
H26_10 C28_10 1_555 1_555
H27_10 C28_10 1_555 1_555
C29_9 C28_10 1_555 1_555
H28_9 C29_9 1_555 1_555
H29_10 C29_9 1_555 1_555
C30_10 C29_9 1_555 1_555
H30_9 C30_10 1_555 1_555
H31_10 C30_10 1_555 1_555
C31_9 C30_10 1_555 1_555
H32_9 C31_9 1_555 1_555
H33_10 C31_9 1_555 1_555
C32_10 C31_9 1_555 1_555
H34_9 C32_10 1_555 1_555
H35_9 C32_10 1_555 1_555
H36_10 C32_10 1_555 1_555
H37_9 C33_9 1_555 1_555
H41_9 C35_9 1_555 1_555
H42_9 C35_9 1_555 1_555
H43_9 C35_9 1_555 1_555
Mn4_5 O8_9 1_555 1_555
O8_9 C36_9 1_555 1_555
O9_11 Mn1_11 1_555 1_555
O10_10 Mn4_5 1_555 1_555
N7_11 Mn4_5 1_555 1_555
N8_11 Mn1_11 1_555 1_555
C36_9 C37_9 1_555 1_555
C37_9 H44_9 1_555 1_555
C38_9 C37_9 1_555 1_555
H45_9 C38_9 1_555 1_555
C39_11 C38_9 1_555 1_555
H46_11 C39_11 1_555 1_555
C40_11 C39_11 1_555 1_555
H47_11 C40_11 1_555 1_555
C41_11 C36_9 1_555 1_555
C42_11 O9_11 1_555 1_555
C43_10 O10_10 1_555 1_555
C44_10 C43_10 1_555 1_555
H48_10 C44_10 1_555 1_555
H49_10 C44_10 1_555 1_555
C45_10 C44_10 1_555 1_555
H50_10 C45_10 1_555 1_555
H51_10 C45_10 1_555 1_555
C46_10 C45_10 1_555 1_555
H52_10 C46_10 1_555 1_555
H53_10 C46_10 1_555 1_555
C47_10 C46_10 1_555 1_555
H54_8 C47_10 1_555 1_555
H55_10 C47_10 1_555 1_555
C48_10 C47_10 1_555 1_555
H56_10 C48_10 1_555 1_555
H57_8 C48_10 1_555 1_555
H58_8 C48_10 1_555 1_555
N11_4 Mn4_5 1_555 1_555
N2_9 C8_11 1_555 1_555
N2_9 Mn2_9 1_555 1_555
C5_9 C6_9 1_555 1_555
C6_9 C7_9 1_555 1_555
C17_11 C18_11 1_555 1_555
N10_3 C27_9 1_555 1_555
N7_11 N8_11 1_555 1_555
N7_11 C42_11 1_555 1_555
N8_11 C43_10 1_555 1_555
C40_11 C41_11 1_555 1_555
C41_11 C42_11 1_555 1_555
C8_12 O3_12 1_555 1_555
C9_12 C8_12 1_555 1_555
H5_12 C9_12 1_555 1_555
H6_12 C9_12 1_555 1_555
C10_12 C9_12 1_555 1_555
H7_12 C10_12 1_555 1_555
H8_12 C10_12 1_555 1_555
C11_12 C10_12 1_555 1_555
H9_12 C11_12 1_555 1_555
H10_11 C11_12 1_555 1_555
C12_11 C11_12 1_555 1_555
H11_11 C12_11 1_555 1_555
H12_11 C12_11 1_555 1_555
C13_10 C12_11 1_555 1_555
H13_10 C13_10 1_555 1_555
H14_10 C13_10 1_555 1_555
H15_10 C13_10 1_555 1_555
C14_12 N3_12 1_555 1_555
C15_12 C14_12 1_555 1_555
H17_12 C15_12 1_555 1_555
C16_12 C15_12 1_555 1_555
C17_12 C16_12 1_555 1_555
H18_12 C17_12 1_555 1_555
C18_12 N3_12 1_555 1_555
H19_12 C18_12 1_555 1_555
C19_12 C16_12 1_555 1_555
H20_12 C19_12 1_555 1_555
H21_12 C19_12 1_555 1_555
H22_11 C21_11 1_555 1_555
C22_11 C21_11 1_555 1_555
H23_11 C22_11 1_555 1_555
C23_11 C22_11 1_555 1_555
H24_13 C23_11 1_555 1_555
C24_11 C23_11 1_555 1_555
H25_11 C24_11 1_555 1_555
N9_6 C49_11 1_555 1_555
C49_11 H59_11 1_555 1_555
C50_11 C49_11 1_555 1_555
H60_11 C50_11 1_555 1_555
C51_11 C50_11 1_555 1_555
C52_9 C51_11 1_555 1_555
H61_9 C52_9 1_555 1_555
C53_9 N9_6 1_555 1_555
H62_9 C53_9 1_555 1_555
C54_11 C19_12 1_555 1_555
H63_11 C54_11 1_555 1_555
H64_11 C54_11 1_555 1_555
Mn4_6 N9_6 1_555 1_555
C17_12 C18_12 1_555 1_555
C51_11 C54_11 1_555 1_555
C52_9 C53_9 1_555 1_555
O2_10 C7_10 1_555 1_555
N2_10 N1_10 1_555 1_555
H3_10 C4_10 1_555 1_555
C5_10 C4_10 1_555 1_555
H4_10 C5_10 1_555 1_555
C7_10 N1_10 1_555 1_555
C8_13 O3_13 1_555 1_555
C9_13 C8_13 1_555 1_555
H5_13 C9_13 1_555 1_555
H6_13 C9_13 1_555 1_555
C10_13 C9_13 1_555 1_555
H7_13 C10_13 1_555 1_555
H8_13 C10_13 1_555 1_555
C11_13 C10_13 1_555 1_555
H9_13 C11_13 1_555 1_555
H10_12 C11_13 1_555 1_555
C12_12 C11_13 1_555 1_555
H11_12 C12_12 1_555 1_555
H12_12 C12_12 1_555 1_555
C13_11 C12_12 1_555 1_555
H13_11 C13_11 1_555 1_555
H14_11 C13_11 1_555 1_555
H15_11 C13_11 1_555 1_555
C14_13 N3_13 1_555 1_555
C15_13 C14_13 1_555 1_555
H17_13 C15_13 1_555 1_555
C16_13 C15_13 1_555 1_555
C17_13 C16_13 1_555 1_555
H18_13 C17_13 1_555 1_555
C18_13 N3_13 1_555 1_555
H19_13 C18_13 1_555 1_555
C19_13 C16_13 1_555 1_555
H20_13 C19_13 1_555 1_555
H21_13 C19_13 1_555 1_555
Mn2_10 O2_10 1_555 1_555
O4_9 Mn2_10 1_555 1_555
O11_5 C26_9 1_555 1_555
O6_10 Mn2_10 1_555 1_555
O7_9 Mn2_10 1_555 1_555
N4_10 Mn2_10 1_555 1_555
N10_5 N4_10 1_555 1_555
N6_9 C33_10 1_555 1_555
C20_9 O4_9 1_555 1_555
C21_12 C20_9 1_555 1_555
H22_12 C21_12 1_555 1_555
C22_12 C21_12 1_555 1_555
H23_12 C22_12 1_555 1_555
C23_12 C22_12 1_555 1_555
H24_14 C23_12 1_555 1_555
C24_12 C23_12 1_555 1_555
H25_12 C24_12 1_555 1_555
C25_9 C20_9 1_555 1_555
C26_9 N4_10 1_555 1_555
C27_10 O6_10 1_555 1_555
C28_11 C27_10 1_555 1_555
H26_11 C28_11 1_555 1_555
H27_11 C28_11 1_555 1_555
C29_10 C28_11 1_555 1_555
H28_10 C29_10 1_555 1_555
H29_11 C29_10 1_555 1_555
C30_11 C29_10 1_555 1_555
H30_10 C30_11 1_555 1_555
H31_11 C30_11 1_555 1_555
C31_10 C30_11 1_555 1_555
H32_10 C31_10 1_555 1_555
H33_11 C31_10 1_555 1_555
C32_11 C31_10 1_555 1_555
H34_10 C32_11 1_555 1_555
H35_10 C32_11 1_555 1_555
H36_11 C32_11 1_555 1_555
C33_10 O7_9 1_555 1_555
H37_10 C33_10 1_555 1_555
C34_9 N6_9 1_555 1_555
H38_9 C34_9 1_555 1_555
H39_9 C34_9 1_555 1_555
H40_9 C34_9 1_555 1_555
C35_10 N6_9 1_555 1_555
H41_10 C35_10 1_555 1_555
H42_10 C35_10 1_555 1_555
H43_10 C35_10 1_555 1_555
N11_4 C49_12 1_555 1_555
C49_12 H59_12 1_555 1_555
C50_12 C49_12 1_555 1_555
H60_12 C50_12 1_555 1_555
C51_12 C50_12 1_555 1_555
C52_10 C51_12 1_555 1_555
H61_10 C52_10 1_555 1_555
C53_10 N11_4 1_555 1_555
H62_10 C53_10 1_555 1_555
C54_12 C19_13 1_555 1_555
H63_12 C54_12 1_555 1_555
H64_12 C54_12 1_555 1_555
N2_10 C8_13 1_555 1_555
N2_10 Mn2_10 1_555 1_555
C5_10 C6_10 1_555 1_555
C6_10 C7_10 1_555 1_555
C17_13 C18_13 1_555 1_555
N10_5 C27_10 1_555 1_555
C24_12 C25_9 1_555 1_555
C25_9 C26_9 1_555 1_555
C51_12 C54_12 1_555 1_555
C52_10 C53_10 1_555 1_555
Mn1_12 O1_12 1_555 1_555
O1_12 C1_11 1_555 1_555
O2_11 C7_11 1_555 1_555
O3_14 Mn1_12 1_555 1_555
N1_11 Mn1_12 1_555 1_555
N2_11 N1_11 1_555 1_555
N3_14 Mn1_12 1_555 1_555
C1_11 C2_11 1_555 1_555
C2_11 H1_11 1_555 1_555
C3_11 C2_11 1_555 1_555
H2_11 C3_11 1_555 1_555
C4_11 C3_11 1_555 1_555
H3_11 C4_11 1_555 1_555
C5_11 C4_11 1_555 1_555
H4_11 C5_11 1_555 1_555
C6_11 C1_11 1_555 1_555
C7_11 N1_11 1_555 1_555
C8_14 O3_14 1_555 1_555
C9_14 C8_14 1_555 1_555
H5_14 C9_14 1_555 1_555
H6_14 C9_14 1_555 1_555
C10_14 C9_14 1_555 1_555
H7_14 C10_14 1_555 1_555
H8_14 C10_14 1_555 1_555
C11_14 C10_14 1_555 1_555
H9_14 C11_14 1_555 1_555
H10_13 C11_14 1_555 1_555
C14_14 N3_14 1_555 1_555
H16_12 C14_14 1_555 1_555
C15_14 C14_14 1_555 1_555
H17_14 C15_14 1_555 1_555
C16_14 C15_14 1_555 1_555
C17_14 C16_14 1_555 1_555
H18_14 C17_14 1_555 1_555
C18_14 N3_14 1_555 1_555
H19_14 C18_14 1_555 1_555
C19_14 C16_14 1_555 1_555
H20_14 C19_14 1_555 1_555
H21_14 C19_14 1_555 1_555
Mn2_11 O2_11 1_555 1_555
O6_11 Mn2_11 1_555 1_555
N4_11 Mn2_11 1_555 1_555
N10_4 N4_11 1_555 1_555
C27_11 O6_11 1_555 1_555
C28_12 C27_11 1_555 1_555
H26_12 C28_12 1_555 1_555
H27_12 C28_12 1_555 1_555
C29_11 C28_12 1_555 1_555
H28_11 C29_11 1_555 1_555
H29_12 C29_11 1_555 1_555
C30_12 C29_11 1_555 1_555
H30_11 C30_12 1_555 1_555
H31_12 C30_12 1_555 1_555
C31_11 C30_12 1_555 1_555
H32_11 C31_11 1_555 1_555
H33_12 C31_11 1_555 1_555
C32_12 C31_11 1_555 1_555
H34_11 C32_12 1_555 1_555
H35_11 C32_12 1_555 1_555
H36_12 C32_12 1_555 1_555
H37_11 C33_11 1_555 1_555
H41_11 C35_11 1_555 1_555
H42_11 C35_11 1_555 1_555
H43_11 C35_11 1_555 1_555
Mn4_6 O8_10 1_555 1_555
O8_10 C36_10 1_555 1_555
O9_12 Mn1_12 1_555 1_555
O10_11 Mn4_6 1_555 1_555
N7_12 Mn4_6 1_555 1_555
N8_12 Mn1_12 1_555 1_555
C36_10 C37_10 1_555 1_555
C37_10 H44_10 1_555 1_555
C38_10 C37_10 1_555 1_555
H45_10 C38_10 1_555 1_555
C39_12 C38_10 1_555 1_555
H46_12 C39_12 1_555 1_555
C40_12 C39_12 1_555 1_555
H47_12 C40_12 1_555 1_555
C41_12 C36_10 1_555 1_555
C42_12 O9_12 1_555 1_555
C43_11 O10_11 1_555 1_555
C44_11 C43_11 1_555 1_555
H48_11 C44_11 1_555 1_555
H49_11 C44_11 1_555 1_555
C45_11 C44_11 1_555 1_555
H50_11 C45_11 1_555 1_555
H51_11 C45_11 1_555 1_555
C46_11 C45_11 1_555 1_555
H52_11 C46_11 1_555 1_555
H53_11 C46_11 1_555 1_555
C47_11 C46_11 1_555 1_555
H54_9 C47_11 1_555 1_555
H55_11 C47_11 1_555 1_555
C48_11 C47_11 1_555 1_555
H56_11 C48_11 1_555 1_555
H57_9 C48_11 1_555 1_555
H58_9 C48_11 1_555 1_555
N2_11 C8_14 1_555 1_555
N2_11 Mn2_11 1_555 1_555
C5_11 C6_11 1_555 1_555
C6_11 C7_11 1_555 1_555
C17_14 C18_14 1_555 1_555
N10_4 C27_11 1_555 1_555
N7_12 N8_12 1_555 1_555
N7_12 C42_12 1_555 1_555
N8_12 C43_11 1_555 1_555
C40_12 C41_12 1_555 1_555
C41_12 C42_12 1_555 1_555
H13_12 C13_12 1_555 1_555
H14_12 C13_12 1_555 1_555
H15_12 C13_12 1_555 1_555
H26_13 C28_13 1_555 1_555
H27_13 C28_13 1_555 1_555
H31_13 C30_13 1_555 1_555
H36_13 C32_13 1_555 1_555
Mn4_7 O5_6 1_555 1_555
O8_11 C36_11 1_555 1_555
C36_11 C37_11 1_555 1_555
C37_11 H44_11 1_555 1_555
C38_11 C37_11 1_555 1_555
H45_11 C38_11 1_555 1_555
Mn1_13 O1_13 1_555 1_555
O3_15 Mn1_13 1_555 1_555
N3_15 Mn1_13 1_555 1_555
C8_15 O3_15 1_555 1_555
C9_15 C8_15 1_555 1_555
H5_15 C9_15 1_555 1_555
H6_15 C9_15 1_555 1_555
C10_15 C9_15 1_555 1_555
H7_15 C10_15 1_555 1_555
H8_15 C10_15 1_555 1_555
C11_15 C10_15 1_555 1_555
H9_15 C11_15 1_555 1_555
C12_13 C11_15 1_555 1_555
H11_13 C12_13 1_555 1_555
H12_13 C12_13 1_555 1_555
C14_15 N3_15 1_555 1_555
H16_13 C14_15 1_555 1_555
C15_15 C14_15 1_555 1_555
H17_15 C15_15 1_555 1_555
C16_15 C15_15 1_555 1_555
C17_15 C16_15 1_555 1_555
H18_15 C17_15 1_555 1_555
C18_15 N3_15 1_555 1_555
H19_15 C18_15 1_555 1_555
C19_15 C16_15 1_555 1_555
H20_15 C19_15 1_555 1_555
H21_15 C19_15 1_555 1_555
H22_13 C21_13 1_555 1_555
C22_13 C21_13 1_555 1_555
H23_13 C22_13 1_555 1_555
C23_13 C22_13 1_555 1_555
C24_13 C23_13 1_555 1_555
H25_13 C24_13 1_555 1_555
Mn3_3 O8_12 1_555 1_555
O8_12 C36_12 1_555 1_555
O9_13 Mn1_13 1_555 1_555
N7_13 Mn3_3 1_555 1_555
N8_13 Mn1_13 1_555 1_555
N11_5 C49_13 1_555 1_555
C36_12 C37_12 1_555 1_555
C37_12 H44_12 1_555 1_555
C38_12 C37_12 1_555 1_555
H45_12 C38_12 1_555 1_555
C39_13 C38_12 1_555 1_555
H46_13 C39_13 1_555 1_555
C40_13 C39_13 1_555 1_555
H47_13 C40_13 1_555 1_555
C41_13 C36_12 1_555 1_555
C42_13 O9_13 1_555 1_555
C49_13 H59_13 1_555 1_555
C50_13 C49_13 1_555 1_555
H60_13 C50_13 1_555 1_555
C51_13 C50_13 1_555 1_555
C52_11 C51_13 1_555 1_555
H61_11 C52_11 1_555 1_555
C53_11 N11_5 1_555 1_555
H62_11 C53_11 1_555 1_555
C54_13 C19_15 1_555 1_555
H63_13 C54_13 1_555 1_555
H64_13 C54_13 1_555 1_555
O11_7 Mn3_3 1_555 1_555
N11_6 Mn3_3 1_555 1_555
C17_15 C18_15 1_555 1_555
N7_13 N8_13 1_555 1_555
N7_13 C42_13 1_555 1_555
C40_13 C41_13 1_555 1_555
C41_13 C42_13 1_555 1_555
C51_13 C54_13 1_555 1_555
C52_11 C53_11 1_555 1_555
H61_12 C52_12 1_555 1_555
C53_12 N11_6 1_555 1_555
H62_12 C53_12 1_555 1_555
C52_12 C53_12 1_555 1_555
H11_14 C12_14 1_555 1_555
H12_14 C12_14 1_555 1_555
C13_13 C12_14 1_555 1_555
H13_13 C13_13 1_555 1_555
H14_13 C13_13 1_555 1_555
H15_13 C13_13 1_555 1_555
O5_7 C26_10 1_555 1_555
C20_10 O4_10 1_555 1_555
C21_14 C20_10 1_555 1_555
H22_14 C21_14 1_555 1_555
C22_14 C21_14 1_555 1_555
H23_14 C22_14 1_555 1_555
C23_14 C22_14 1_555 1_555
H24_15 C23_14 1_555 1_555
C24_14 C23_14 1_555 1_555
H25_14 C24_14 1_555 1_555
C25_10 C20_10 1_555 1_555
C34_10 N6_10 1_555 1_555
H38_10 C34_10 1_555 1_555
H39_10 C34_10 1_555 1_555
H40_10 C34_10 1_555 1_555
C49_14 H59_14 1_555 1_555
C50_14 C49_14 1_555 1_555
H60_14 C50_14 1_555 1_555
C51_14 C50_14 1_555 1_555
H63_14 C54_14 1_555 1_555
H64_14 C54_14 1_555 1_555
C24_14 C25_10 1_555 1_555
C25_10 C26_10 1_555 1_555
C51_14 C54_14 1_555 1_555
H11_15 C12_15 1_555 1_555
H12_15 C12_15 1_555 1_555
C13_14 C12_15 1_555 1_555
H13_14 C13_14 1_555 1_555
H14_14 C13_14 1_555 1_555
H15_14 C13_14 1_555 1_555
O11_6 C26_11 1_555 1_555
C20_11 O4_11 1_555 1_555
C21_15 C20_11 1_555 1_555
H22_15 C21_15 1_555 1_555
C22_15 C21_15 1_555 1_555
H23_15 C22_15 1_555 1_555
C23_15 C22_15 1_555 1_555
H24_16 C23_15 1_555 1_555
C24_15 C23_15 1_555 1_555
H25_15 C24_15 1_555 1_555
C25_11 C20_11 1_555 1_555
C34_11 N6_11 1_555 1_555
H38_11 C34_11 1_555 1_555
H39_11 C34_11 1_555 1_555
H40_11 C34_11 1_555 1_555
N9_7 C49_15 1_555 1_555
C49_15 H59_15 1_555 1_555
C50_15 C49_15 1_555 1_555
H60_15 C50_15 1_555 1_555
C51_15 C50_15 1_555 1_555
C52_13 C51_15 1_555 1_555
H61_13 C52_13 1_555 1_555
C53_13 N9_7 1_555 1_555
H62_13 C53_13 1_555 1_555
H63_15 C54_15 1_555 1_555
H64_15 C54_15 1_555 1_555
Mn4_7 N9_7 1_555 1_555
C24_15 C25_11 1_555 1_555
C25_11 C26_11 1_555 1_555
C51_15 C54_15 1_555 1_555
C52_13 C53_13 1_555 1_555
Mn1_14 O1_14 1_555 1_555
O1_14 C1_12 1_555 1_555
O2_12 C7_12 1_555 1_555
O3_16 Mn1_14 1_555 1_555
N1_12 Mn1_14 1_555 1_555
N2_12 N1_12 1_555 1_555
N3_16 Mn1_14 1_555 1_555
C1_12 C2_12 1_555 1_555
C2_12 H1_12 1_555 1_555
C3_12 C2_12 1_555 1_555
H2_12 C3_12 1_555 1_555
C4_12 C3_12 1_555 1_555
H3_12 C4_12 1_555 1_555
C5_12 C4_12 1_555 1_555
H4_12 C5_12 1_555 1_555
C6_12 C1_12 1_555 1_555
C7_12 N1_12 1_555 1_555
C8_16 O3_16 1_555 1_555
C9_16 C8_16 1_555 1_555
H5_16 C9_16 1_555 1_555
H6_16 C9_16 1_555 1_555
C10_16 C9_16 1_555 1_555
H7_16 C10_16 1_555 1_555
H8_16 C10_16 1_555 1_555
C11_16 C10_16 1_555 1_555
H9_16 C11_16 1_555 1_555
C12_16 C11_16 1_555 1_555
H11_16 C12_16 1_555 1_555
H12_16 C12_16 1_555 1_555
C14_16 N3_16 1_555 1_555
H16_14 C14_16 1_555 1_555
C15_16 C14_16 1_555 1_555
H17_16 C15_16 1_555 1_555
C16_16 C15_16 1_555 1_555
C17_16 C16_16 1_555 1_555
H18_16 C17_16 1_555 1_555
C18_16 N3_16 1_555 1_555
H19_16 C18_16 1_555 1_555
C19_16 C16_16 1_555 1_555
H20_16 C19_16 1_555 1_555
H21_16 C19_16 1_555 1_555
Mn2_12 O2_12 1_555 1_555
O4_12 Mn2_12 1_555 1_555
O6_12 Mn2_12 1_555 1_555
O7_12 Mn2_12 1_555 1_555
N4_12 Mn2_12 1_555 1_555
N10_6 N4_12 1_555 1_555
N6_12 C33_12 1_555 1_555
C20_12 O4_12 1_555 1_555
C21_16 C20_12 1_555 1_555
H22_16 C21_16 1_555 1_555
C22_16 C21_16 1_555 1_555
H23_16 C22_16 1_555 1_555
C23_16 C22_16 1_555 1_555
C24_16 C23_16 1_555 1_555
H25_16 C24_16 1_555 1_555
C25_12 C20_12 1_555 1_555
C26_12 N4_12 1_555 1_555
C27_12 O6_12 1_555 1_555
H28_12 C29_12 1_555 1_555
H32_12 C31_12 1_555 1_555
C33_12 O7_12 1_555 1_555
H37_12 C33_12 1_555 1_555
C34_12 N6_12 1_555 1_555
H38_12 C34_12 1_555 1_555
H39_12 C34_12 1_555 1_555
H40_12 C34_12 1_555 1_555
C35_12 N6_12 1_555 1_555
H41_12 C35_12 1_555 1_555
H42_12 C35_12 1_555 1_555
H43_12 C35_12 1_555 1_555
Mn4_7 O8_13 1_555 1_555
O8_13 C36_13 1_555 1_555
O9_14 Mn1_14 1_555 1_555
O10_12 Mn4_7 1_555 1_555
N7_14 Mn4_7 1_555 1_555
N8_14 Mn1_14 1_555 1_555
N9_8 C49_16 1_555 1_555
C36_13 C37_13 1_555 1_555
C37_13 H44_13 1_555 1_555
C38_13 C37_13 1_555 1_555
H45_13 C38_13 1_555 1_555
C39_14 C38_13 1_555 1_555
H46_14 C39_14 1_555 1_555
C40_14 C39_14 1_555 1_555
H47_14 C40_14 1_555 1_555
C41_14 C36_13 1_555 1_555
C42_14 O9_14 1_555 1_555
C43_12 O10_12 1_555 1_555
C44_12 C43_12 1_555 1_555
H48_12 C44_12 1_555 1_555
H49_12 C44_12 1_555 1_555
C45_12 C44_12 1_555 1_555
H50_12 C45_12 1_555 1_555
H51_12 C45_12 1_555 1_555
C46_12 C45_12 1_555 1_555
H52_12 C46_12 1_555 1_555
H53_12 C46_12 1_555 1_555
C47_12 C46_12 1_555 1_555
H54_11 C47_12 1_555 1_555
H55_12 C47_12 1_555 1_555
C48_12 C47_12 1_555 1_555
H56_12 C48_12 1_555 1_555
H57_11 C48_12 1_555 1_555
H58_11 C48_12 1_555 1_555
C49_16 H59_16 1_555 1_555
C50_16 C49_16 1_555 1_555
H60_16 C50_16 1_555 1_555
C51_16 C50_16 1_555 1_555
C52_14 C51_16 1_555 1_555
H61_14 C52_14 1_555 1_555
C53_14 N9_8 1_555 1_555
H62_14 C53_14 1_555 1_555
C54_16 C19_16 1_555 1_555
H63_16 C54_16 1_555 1_555
H64_16 C54_16 1_555 1_555
N2_12 C8_16 1_555 1_555
N2_12 Mn2_12 1_555 1_555
C5_12 C6_12 1_555 1_555
C6_12 C7_12 1_555 1_555
C17_16 C18_16 1_555 1_555
N10_6 C27_12 1_555 1_555
C24_16 C25_12 1_555 1_555
C25_12 C26_12 1_555 1_555
N7_14 N8_14 1_555 1_555
N7_14 C42_14 1_555 1_555
N8_14 C43_12 1_555 1_555
C40_14 C41_14 1_555 1_555
C41_14 C42_14 1_555 1_555
C51_16 C54_16 1_555 1_555
C52_14 C53_14 1_555 1_555
H26_14 C28_14 1_555 1_555
H27_14 C28_14 1_555 1_555
H31_14 C30_14 1_555 1_555
H36_14 C32_14 1_555 1_555
O8_14 C36_14 1_555 1_555
C36_14 C37_14 1_555 1_555
C37_14 H44_14 1_555 1_555
C38_14 C37_14 1_555 1_555
H45_14 C38_14 1_555 1_555
H61_15 C52_15 1_555 1_555
C53_15 N9_9 1_555 1_555
H62_15 C53_15 1_555 1_555
Mn5_5 N9_9 1_555 1_555
C52_15 C53_15 1_555 1_555
Mn1_15 O1_15 1_555 1_555
Mn5_5 O8_15 1_555 1_555
O8_15 C36_15 1_555 1_555
O9_15 Mn1_15 1_555 1_555
N7_15 Mn5_5 1_555 1_555
N8_15 Mn1_15 1_555 1_555
C36_15 C37_15 1_555 1_555
C37_15 H44_15 1_555 1_555
C38_15 C37_15 1_555 1_555
H45_15 C38_15 1_555 1_555
C39_15 C38_15 1_555 1_555
H46_15 C39_15 1_555 1_555
C40_15 C39_15 1_555 1_555
H47_15 C40_15 1_555 1_555
C41_15 C36_15 1_555 1_555
C42_15 O9_15 1_555 1_555
O11_8 Mn5_5 1_555 1_555
N10_7 Mn5_5 1_555 1_555
N7_15 N8_15 1_555 1_555
N7_15 C42_15 1_555 1_555
C40_15 C41_15 1_555 1_555
C41_15 C42_15 1_555 1_555
O2_13 C7_13 1_555 1_555
N2_13 N1_13 1_555 1_555
H3_13 C4_13 1_555 1_555
C5_13 C4_13 1_555 1_555
H4_13 C5_13 1_555 1_555
C7_13 N1_13 1_555 1_555
Mn2_13 O2_13 1_555 1_555
O4_13 Mn2_13 1_555 1_555
O11_8 C26_13 1_555 1_555
O6_13 Mn2_13 1_555 1_555
O7_13 Mn2_13 1_555 1_555
N4_13 Mn2_13 1_555 1_555
N10_7 N4_13 1_555 1_555
N6_13 C33_13 1_555 1_555
C20_13 O4_13 1_555 1_555
C25_13 C20_13 1_555 1_555
C26_13 N4_13 1_555 1_555
C27_13 O6_13 1_555 1_555
C28_15 C27_13 1_555 1_555
H26_15 C28_15 1_555 1_555
H27_15 C28_15 1_555 1_555
C29_13 C28_15 1_555 1_555
H28_13 C29_13 1_555 1_555
H29_15 C29_13 1_555 1_555
C30_15 C29_13 1_555 1_555
H30_13 C30_15 1_555 1_555
H31_15 C30_15 1_555 1_555
C31_13 C30_15 1_555 1_555
H32_13 C31_13 1_555 1_555
H33_15 C31_13 1_555 1_555
C32_15 C31_13 1_555 1_555
H34_13 C32_15 1_555 1_555
H35_13 C32_15 1_555 1_555
H36_15 C32_15 1_555 1_555
C33_13 O7_13 1_555 1_555
H37_13 C33_13 1_555 1_555
C34_13 N6_13 1_555 1_555
H38_13 C34_13 1_555 1_555
H39_13 C34_13 1_555 1_555
H40_13 C34_13 1_555 1_555
C35_13 N6_13 1_555 1_555
H41_13 C35_13 1_555 1_555
H42_13 C35_13 1_555 1_555
H43_13 C35_13 1_555 1_555
N2_13 Mn2_13 1_555 1_555
C5_13 C6_13 1_555 1_555
C6_13 C7_13 1_555 1_555
N10_7 C27_13 1_555 1_555
C25_13 C26_13 1_555 1_555
C1_13 C2_13 1_555 1_555
C2_13 H1_13 1_555 1_555
C3_13 C2_13 1_555 1_555
H2_13 C3_13 1_555 1_555
C43_13 O10_13 1_555 1_555
C44_13 C43_13 1_555 1_555
H48_13 C44_13 1_555 1_555
H49_13 C44_13 1_555 1_555
C45_13 C44_13 1_555 1_555
H50_13 C45_13 1_555 1_555
H51_13 C45_13 1_555 1_555
C46_13 C45_13 1_555 1_555
H52_13 C46_13 1_555 1_555
H53_13 C46_13 1_555 1_555
C47_13 C46_13 1_555 1_555
H54_13 C47_13 1_555 1_555
H55_13 C47_13 1_555 1_555
C48_13 C47_13 1_555 1_555
H56_13 C48_13 1_555 1_555
H57_13 C48_13 1_555 1_555
H58_13 C48_13 1_555 1_555
O2_14 C7_14 1_555 1_555
N2_14 N1_14 1_555 1_555
H3_14 C4_14 1_555 1_555
C5_14 C4_14 1_555 1_555
H4_14 C5_14 1_555 1_555
C7_14 N1_14 1_555 1_555
Mn2_14 O2_14 1_555 1_555
O4_14 Mn2_14 1_555 1_555
O5_8 C26_14 1_555 1_555
O6_14 Mn2_14 1_555 1_555
O7_14 Mn2_14 1_555 1_555
N4_14 Mn2_14 1_555 1_555
N5_7 N4_14 1_555 1_555
N6_14 C33_14 1_555 1_555
C20_14 O4_14 1_555 1_555
C25_14 C20_14 1_555 1_555
C26_14 N4_14 1_555 1_555
C27_14 O6_14 1_555 1_555
C28_16 C27_14 1_555 1_555
H26_16 C28_16 1_555 1_555
H27_16 C28_16 1_555 1_555
C29_14 C28_16 1_555 1_555
H28_14 C29_14 1_555 1_555
H29_16 C29_14 1_555 1_555
C30_16 C29_14 1_555 1_555
H30_14 C30_16 1_555 1_555
H31_16 C30_16 1_555 1_555
C31_14 C30_16 1_555 1_555
H32_14 C31_14 1_555 1_555
H33_16 C31_14 1_555 1_555
C32_16 C31_14 1_555 1_555
H34_14 C32_16 1_555 1_555
H35_14 C32_16 1_555 1_555
H36_16 C32_16 1_555 1_555
C33_14 O7_14 1_555 1_555
H37_14 C33_14 1_555 1_555
C34_14 N6_14 1_555 1_555
H38_14 C34_14 1_555 1_555
H39_14 C34_14 1_555 1_555
H40_14 C34_14 1_555 1_555
C35_14 N6_14 1_555 1_555
H41_14 C35_14 1_555 1_555
H42_14 C35_14 1_555 1_555
H43_14 C35_14 1_555 1_555
Mn4_8 O5_8 1_555 1_555
N2_14 Mn2_14 1_555 1_555
C5_14 C6_14 1_555 1_555
C6_14 C7_14 1_555 1_555
N5_7 C27_14 1_555 1_555
N5_7 Mn4_8 1_555 1_555
C25_14 C26_14 1_555 1_555
H61_16 C52_16 1_555 1_555
C53_16 N9_10 1_555 1_555
H62_16 C53_16 1_555 1_555
Mn4_8 N9_10 1_555 1_555
C52_16 C53_16 1_555 1_555
Mn1_16 O1_16 1_555 1_555
Mn4_8 O8_16 1_555 1_555
O8_16 C36_16 1_555 1_555
O9_16 Mn1_16 1_555 1_555
N7_16 Mn4_8 1_555 1_555
N8_16 Mn1_16 1_555 1_555
C36_16 C37_16 1_555 1_555
C37_16 H44_16 1_555 1_555
C38_16 C37_16 1_555 1_555
H45_16 C38_16 1_555 1_555
C39_16 C38_16 1_555 1_555
H46_16 C39_16 1_555 1_555
C40_16 C39_16 1_555 1_555
H47_16 C40_16 1_555 1_555
C41_16 C36_16 1_555 1_555
C42_16 O9_16 1_555 1_555
N7_16 N8_16 1_555 1_555
N7_16 C42_16 1_555 1_555
C40_16 C41_16 1_555 1_555
C41_16 C42_16 1_555 1_555
H13_15 C13_15 1_555 1_555
H14_15 C13_15 1_555 1_555
H15_15 C13_15 1_555 1_555
O2_15 C7_15 1_555 1_555
N2_15 N1_15 1_555 1_555
C1_14 C2_14 1_555 1_555
C2_14 H1_14 1_555 1_555
C3_14 C2_14 1_555 1_555
H2_14 C3_14 1_555 1_555
C4_15 C3_14 1_555 1_555
H3_15 C4_15 1_555 1_555
C5_15 C4_15 1_555 1_555
H4_15 C5_15 1_555 1_555
C6_15 C1_14 1_555 1_555
C7_15 N1_15 1_555 1_555
Mn2_15 O2_15 1_555 1_555
O4_15 Mn2_15 1_555 1_555
O6_15 Mn2_15 1_555 1_555
O7_15 Mn2_15 1_555 1_555
N4_15 Mn2_15 1_555 1_555
N10_8 N4_15 1_555 1_555
N6_15 C33_15 1_555 1_555
C20_15 O4_15 1_555 1_555
C25_15 C20_15 1_555 1_555
C26_15 N4_15 1_555 1_555
C27_15 O6_15 1_555 1_555
H28_15 C29_15 1_555 1_555
H32_15 C31_15 1_555 1_555
C33_15 O7_15 1_555 1_555
H37_15 C33_15 1_555 1_555
C34_15 N6_15 1_555 1_555
H38_15 C34_15 1_555 1_555
H39_15 C34_15 1_555 1_555
H40_15 C34_15 1_555 1_555
C35_15 N6_15 1_555 1_555
H41_15 C35_15 1_555 1_555
H42_15 C35_15 1_555 1_555
H43_15 C35_15 1_555 1_555
C43_14 O10_14 1_555 1_555
C44_14 C43_14 1_555 1_555
H48_14 C44_14 1_555 1_555
H49_14 C44_14 1_555 1_555
C45_14 C44_14 1_555 1_555
H50_14 C45_14 1_555 1_555
H51_14 C45_14 1_555 1_555
C46_14 C45_14 1_555 1_555
H52_14 C46_14 1_555 1_555
H53_14 C46_14 1_555 1_555
C47_14 C46_14 1_555 1_555
H54_14 C47_14 1_555 1_555
H55_14 C47_14 1_555 1_555
C48_14 C47_14 1_555 1_555
H56_14 C48_14 1_555 1_555
H57_14 C48_14 1_555 1_555
H58_14 C48_14 1_555 1_555
N2_15 Mn2_15 1_555 1_555
C5_15 C6_15 1_555 1_555
C6_15 C7_15 1_555 1_555
N10_8 C27_15 1_555 1_555
C25_15 C26_15 1_555 1_555
O2_16 C7_16 1_555 1_555
N2_16 N1_16 1_555 1_555
C1_15 C2_15 1_555 1_555
C2_15 H1_15 1_555 1_555
C3_15 C2_15 1_555 1_555
H2_15 C3_15 1_555 1_555
C4_16 C3_15 1_555 1_555
H3_16 C4_16 1_555 1_555
C5_16 C4_16 1_555 1_555
H4_16 C5_16 1_555 1_555
C6_16 C1_15 1_555 1_555
C7_16 N1_16 1_555 1_555
Mn2_16 O2_16 1_555 1_555
O4_16 Mn2_16 1_555 1_555
O6_16 Mn2_16 1_555 1_555
O7_16 Mn2_16 1_555 1_555
N4_16 Mn2_16 1_555 1_555
N5_8 N4_16 1_555 1_555
N6_16 C33_16 1_555 1_555
C20_16 O4_16 1_555 1_555
C25_16 C20_16 1_555 1_555
C26_16 N4_16 1_555 1_555
C27_16 O6_16 1_555 1_555
H28_16 C29_16 1_555 1_555
H32_16 C31_16 1_555 1_555
C33_16 O7_16 1_555 1_555
H37_16 C33_16 1_555 1_555
C34_16 N6_16 1_555 1_555
H38_16 C34_16 1_555 1_555
H39_16 C34_16 1_555 1_555
H40_16 C34_16 1_555 1_555
C35_16 N6_16 1_555 1_555
H41_16 C35_16 1_555 1_555
H42_16 C35_16 1_555 1_555
H43_16 C35_16 1_555 1_555
C43_15 O10_15 1_555 1_555
C44_15 C43_15 1_555 1_555
H48_15 C44_15 1_555 1_555
H49_15 C44_15 1_555 1_555
C45_15 C44_15 1_555 1_555
H50_15 C45_15 1_555 1_555
H51_15 C45_15 1_555 1_555
C46_15 C45_15 1_555 1_555
H52_15 C46_15 1_555 1_555
H53_15 C46_15 1_555 1_555
C47_15 C46_15 1_555 1_555
H54_15 C47_15 1_555 1_555
H55_15 C47_15 1_555 1_555
C48_15 C47_15 1_555 1_555
H56_15 C48_15 1_555 1_555
H57_15 C48_15 1_555 1_555
H58_15 C48_15 1_555 1_555
N2_16 Mn2_16 1_555 1_555
C5_16 C6_16 1_555 1_555
C6_16 C7_16 1_555 1_555
N5_8 C27_16 1_555 1_555
C25_16 C26_16 1_555 1_555
H13_16 C13_16 1_555 1_555
H14_16 C13_16 1_555 1_555
H15_16 C13_16 1_555 1_555
C1_16 C2_16 1_555 1_555
C2_16 H1_16 1_555 1_555
C3_16 C2_16 1_555 1_555
H2_16 C3_16 1_555 1_555
C43_16 O10_16 1_555 1_555
C44_16 C43_16 1_555 1_555
H48_16 C44_16 1_555 1_555
H49_16 C44_16 1_555 1_555
C45_16 C44_16 1_555 1_555
H50_16 C45_16 1_555 1_555
H51_16 C45_16 1_555 1_555
C46_16 C45_16 1_555 1_555
H52_16 C46_16 1_555 1_555
H53_16 C46_16 1_555 1_555
C47_16 C46_16 1_555 1_555
H54_16 C47_16 1_555 1_555
H55_16 C47_16 1_555 1_555
C48_16 C47_16 1_555 1_555
H56_16 C48_16 1_555 1_555
H57_16 C48_16 1_555 1_555
H58_16 C48_16 1_555 1_555

#END
