
###############################################################################
#
# This file contains modified crystal structure data generated from the
# MOF subset of the Cambridge Structural Database (CSD) v543 
# hosted by the Cambridge Crystallographic Data Centre (CCDC).
#
# This work is licensed under the Creative Commons
# Attribution-NonCommercial-ShareAlike 4.0 International License.
# To view a copy of this license, visit
# http://creativecommons.org/licenses/by-nc-sa/4.0/
# or send a letter to
# Creative Commons, PO Box 1866, Mountain View, CA 94042, USA.
#
# CIF created using the CSD Python API on 29 September 2022
# The structure has been converted into the P1 space group
# The structure has a 3D framework
# The original CSD entry XALMII is in the hexagonal crystal system
# The original CSD entry XALMII is in a Sohncke space group
# The framework has been calculated to contain at least 10.0% void space
# The void calculation uses a probe of radius 1.32A, grid spacing 0.4
#
###############################################################################

data_XALMII
_chemical_formula_moiety         '(C180 H156 Co18 N12 O71)n'
_symmetry_cell_setting           triclinic
_symmetry_space_group_name_H-M   'P 1'
_symmetry_Int_Tables_number      1
_space_group_name_Hall           'P 1'
loop_
_symmetry_equiv_pos_site_id
_symmetry_equiv_pos_as_xyz
1 x,y,z
_cell_length_a                   24.65(2)
_cell_length_b                   24.65(2)
_cell_length_c                   19.730(19)
_cell_angle_alpha                90
_cell_angle_beta                 90
_cell_angle_gamma                120
_cell_volume                     10382.3
loop_
_atom_site_label
_atom_site_type_symbol
_atom_site_fract_x
_atom_site_fract_y
_atom_site_fract_z
O5 O 0.13760(4) 0.16536(4) 0.01670(4)
O6 O 0.07167(4) 0.13825(4) 0.10415(4)
O10 O 0.25208(4) 0.15289(4) 0.01775(4)
N1 N 0.38367(6) 0.07673(8) 0.28852(7)
N2 N 0.66987(5) 0.08257(5) 0.23747(6)
C3 C 0.11060(6) 0.13266(6) 0.06917(6)
C4 C 0.12492(9) 0.08253(8) 0.09147(8)
H7 H 0.0927 0.0418 0.0739
H8 H 0.1254 0.0811 0.1411
H9 H 0.1660 0.0922 0.0738
C7 C 0.31011(6) 0.17704(6) 0.01866(6)
C8 C 0.33866(7) 0.15984(7) 0.07620(7)
C9 C 0.40239(8) 0.18689(10) 0.08228(9)
H13 H 0.4290 0.2184 0.0511
C10 C 0.42804(8) 0.16886(12) 0.13297(10)
H14 H 0.4723 0.1886 0.1370
C11 C 0.39041(7) 0.12219(10) 0.17844(9)
C12 C 0.32646(7) 0.09637(10) 0.17402(9)
H15 H 0.2998 0.0656 0.2059
C13 C 0.30116(7) 0.11536(8) 0.12304(8)
H16 H 0.2570 0.0973 0.1203
C14 C 0.41748(8) 0.10040(11) 0.23219(9)
C15 C 0.47450(8) 0.10263(10) 0.22197(9)
H17 H 0.4974 0.1195 0.1813
C16 C 0.49740(8) 0.07980(10) 0.27211(8)
C17 C 0.46365(7) 0.05677(9) 0.33095(8)
H18 H 0.4793 0.0428 0.3669
C18 C 0.40541(7) 0.05419(10) 0.33707(8)
C19 C 0.36571(7) 0.02809(9) 0.39802(8)
C20 C 0.39094(7) 0.03222(9) 0.46234(8)
H19 H 0.4351 0.0523 0.4677
C21 C 0.35306(7) 0.00779(8) 0.51788(7)
H20 H 0.3711 0.0107 0.5612
C26 C 0.55697(7) 0.08046(9) 0.26055(8)
C27 C 0.57841(8) 0.08116(11) 0.19544(8)
H23 H 0.5545 0.0807 0.1575
C28 C 0.63536(7) 0.08259(9) 0.18572(8)
H24 H 0.6498 0.0836 0.1408
C29 C 0.64897(7) 0.08136(8) 0.30014(7)
H25 H 0.6736 0.0816 0.3372
C30 C 0.59352(7) 0.07983(9) 0.31373(7)
H26 H 0.5803 0.0784 0.3593
Co4 Co 0.036292(10) 0.196352(7) 0.111959(8)
Co8 Co 0.756572(7) 0.088644(10) 0.218378(8)
Co1 Co 0.196352(7) 0.160060(7) 0.945292(8)
Co2 Co 0.213978(7) 0.109322(7) 0.788563(8)
Co3 Co 0.332072(7) 0.243428(7) 0.885045(8)
O1 O 0.25434(3) 0.15796(3) 0.87331(3)
H1 H 0.2561 0.1273 0.8908
O2 O 0.38360(4) 0.20919(4) 0.83305(5)
H2 H 0.3672 0.1818 0.8019
H3 H 0.4177 0.2110 0.8446
O3 O 0.13724(4) 0.12136(4) 0.78994(4)
O4 O 0.13493(4) 0.17355(4) 0.88108(4)
O7 O 0.19530(4) 0.29355(4) 0.94638(5)
O8 O 0.26087(4) 0.25721(4) 0.93430(4)
O9 O 0.34860(4) 0.21496(4) 0.97573(5)
C1 C 0.11323(6) 0.14592(6) 0.82482(7)
C2 C 0.05293(8) 0.14034(10) 0.80018(9)
H4 H 0.0178 0.0994 0.8133
H5 H 0.0542 0.1444 0.7507
H6 H 0.0475 0.1736 0.8205
C5 C 0.24808(6) 0.30056(6) 0.93425(6)
C6 C 0.30052(7) 0.36605(8) 0.91719(10)
H10 H 0.2844 0.3952 0.9180
H11 H 0.3169 0.3660 0.8720
H12 H 0.3342 0.3793 0.9507
Co5 Co 0.104656(10) 0.213978(7) 0.955230(8)
O13 O 0.17355(4) 0.03862(6) 0.71441(4)
O14 O 0.16536(4) 0.02776(6) 0.85003(4)
O15 O 0.13825(4) 0.06658(6) 0.93748(4)
O16 O 0.29355(4) 0.09825(6) 0.77971(5)
O17 O 0.31584(6) 0.27315(4) 0.79524(4)
O18 O 0.26272(6) 0.18849(4) 0.72901(4)
N3 N 0.41270(7) 0.33013(5) 0.90414(6)
O11 O 0.27315(4) 0.95731(4) 0.62857(4)
O12 O 0.18849(4) 0.92577(4) 0.56234(4)
C22 C 0.28779(6) 0.97845(7) 0.51115(7)
C23 C 0.26252(7) 0.97462(9) 0.44734(8)
H21 H 0.2183 0.9546 0.4422
C24 C 0.30062(7) 0.99952(10) 0.39103(8)
H22 H 0.2826 0.9972 0.3478
C25 C 0.24618(6) 0.95234(6) 0.57306(6)
Co6 Co 0.109322(7) 0.895344(10) 0.621896(8)
Co7 Co 0.243428(7) 0.911356(10) 0.718378(8)
Co3_2 Co 0.088644(10) 0.332072(7) 0.051712(8)
O1_2 O 0.09638(4) 0.25434(3) 0.03998(3)
H1_2 H 0.1288 0.2561 0.0575
H3_2 H 0.2067 0.4177 0.0113
O8_2 O 0.00366(6) 0.26087(4) 0.10097(4)
O9_2 O 0.13364(6) 0.34860(4) 0.14240(5)
O10_2 O 0.09919(6) 0.25208(4) 0.18442(4)
N1_2 N 0.30694(10) 0.38367(6) 0.45519(7)
N2_2 N 0.58730(7) 0.66987(5) 0.40414(6)
C4_2 C 0.04239(12) 0.12492(9) 0.25814(8)
H7_2 H 0.0509 0.0927 0.2406
H8_2 H 0.0443 0.1254 0.3078
H9_2 H 0.0738 0.1660 0.2405
C7_2 C 0.13307(8) 0.31011(6) 0.18533(6)
C8_2 C 0.17882(10) 0.33866(7) 0.24287(7)
C9_2 C 0.21550(13) 0.40239(8) 0.24895(9)
H13_2 H 0.2106 0.4290 0.2178
C10_2 C 0.25918(14) 0.42804(8) 0.29964(10)
H14_2 H 0.2837 0.4723 0.3037
C11_2 C 0.26822(12) 0.39041(7) 0.34511(9)
C12_2 C 0.23009(12) 0.32646(7) 0.34069(9)
H15_2 H 0.2342 0.2998 0.3726
C13_2 C 0.18580(11) 0.30116(7) 0.28971(8)
H16_2 H 0.1597 0.2570 0.2870
C14_2 C 0.31708(14) 0.41748(8) 0.39886(9)
C15_2 C 0.37187(13) 0.47450(8) 0.38864(9)
H17_2 H 0.3779 0.4974 0.3480
C16_2 C 0.41760(13) 0.49740(8) 0.43878(8)
C17_2 C 0.40688(11) 0.46365(7) 0.49762(8)
H18_2 H 0.4365 0.4793 0.5336
C18_2 C 0.35122(12) 0.40541(7) 0.50374(8)
C19_2 C 0.33762(11) 0.36571(7) 0.56469(8)
C20_2 C 0.35872(11) 0.39094(7) 0.62901(8)
H19_2 H 0.3828 0.4351 0.6344
C21_2 C 0.34527(11) 0.35306(7) 0.68455(7)
H20_2 H 0.3604 0.3711 0.7279
C22_2 C 0.30934(9) 0.28779(6) 0.67782(7)
C23_2 C 0.28790(11) 0.26252(7) 0.61401(8)
H21_2 H 0.2637 0.2183 0.6089
C24_2 C 0.30110(12) 0.30062(7) 0.55770(8)
H22_2 H 0.2854 0.2826 0.5145
C25_2 C 0.29384(8) 0.24618(6) 0.73973(6)
C26_2 C 0.47651(11) 0.55697(7) 0.42722(8)
C27_2 C 0.49725(14) 0.57841(8) 0.36211(8)
H23_2 H 0.4738 0.5545 0.3242
C28_2 C 0.55277(11) 0.63536(7) 0.35239(8)
H24_2 H 0.5662 0.6498 0.3075
C29_2 C 0.56761(11) 0.64897(7) 0.46681(7)
H25_2 H 0.5920 0.6736 0.5039
C30_2 C 0.51369(11) 0.59352(7) 0.48040(7)
H26_2 H 0.5019 0.5803 0.5260
Co8_2 Co 0.667928(12) 0.756572(7) 0.385045(8)
N3_2 N 0.08257(9) 0.41270(7) 0.07080(6)
O2_2 O 0.17441(6) 0.38360(4) 0.99972(5)
H2_2 H 0.1854 0.3672 0.9686
O3_2 O 0.01588(6) 0.13724(4) 0.95661(4)
O17_2 O 0.04269(7) 0.31584(6) 0.96190(4)
O18_2 O 0.07423(7) 0.26272(6) 0.89567(4)
O4_2 O 0.96138(6) 0.13493(4) 0.04775(4)
O5_2 O 0.97224(6) 0.13760(4) 0.18337(4)
O6_2 O 0.93342(6) 0.07167(4) 0.27082(4)
O7_2 O 0.90175(6) 0.19530(4) 0.11305(5)
C3_2 C 0.97794(8) 0.11060(6) 0.23584(6)
C5_2 C 0.94752(8) 0.24808(6) 0.10092(6)
C6_2 C 0.93447(11) 0.30052(7) 0.08386(10)
H10_2 H 0.8892 0.2844 0.0847
H11_2 H 0.9509 0.3169 0.0387
H12_2 H 0.9549 0.3342 0.1174
Co4_2 Co 0.839940(12) 0.036292(10) 0.278625(8)
Co5_2 Co 0.890678(12) 0.104656(10) 0.121896(8)
C22_3 C 0.02155(7) 0.30934(9) 0.84448(7)
C23_3 C 0.02538(9) 0.28790(11) 0.78067(8)
H21_3 H 0.0454 0.2637 0.7755
C24_3 C 0.00048(10) 0.30110(12) 0.72436(8)
H22_3 H 0.0028 0.2854 0.6811
C25_3 C 0.04766(6) 0.29384(8) 0.90639(6)
O1_3 O 0.84204(3) 0.09638(4) 0.20664(3)
H1_3 H 0.8727 0.1288 0.2241
O2_3 O 0.79081(4) 0.17441(6) 0.16638(5)
H2_3 H 0.8182 0.1854 0.1352
H3_3 H 0.7890 0.2067 0.1779
O3_3 O 0.87864(4) 0.01588(6) 0.12327(4)
O8_3 O 0.74279(4) 0.00366(6) 0.26763(4)
O9_3 O 0.78504(4) 0.13364(6) 0.30906(5)
O10_3 O 0.84711(4) 0.09919(6) 0.35108(4)
N1_3 N 0.92327(8) 0.30694(10) 0.62185(7)
N2_3 N 0.91743(5) 0.58730(7) 0.57080(6)
C4_3 C 0.91747(8) 0.04239(12) 0.42480(8)
H7_3 H 0.9582 0.0509 0.4072
H8_3 H 0.9189 0.0443 0.4744
H9_3 H 0.9078 0.0738 0.4071
C7_3 C 0.82296(6) 0.13307(8) 0.35199(6)
C8_3 C 0.84016(7) 0.17882(10) 0.40953(7)
C9_3 C 0.81311(10) 0.21550(13) 0.41561(9)
H13_3 H 0.7816 0.2106 0.3844
C10_3 C 0.83114(12) 0.25918(14) 0.46630(10)
H14_3 H 0.8114 0.2837 0.4703
C11_3 C 0.87781(10) 0.26822(12) 0.51177(9)
C12_3 C 0.90363(10) 0.23009(12) 0.50735(9)
H15_3 H 0.9344 0.2342 0.5392
C13_3 C 0.88464(8) 0.18580(11) 0.45637(8)
H16_3 H 0.9027 0.1597 0.4536
C14_3 C 0.89960(11) 0.31708(14) 0.56552(9)
C15_3 C 0.89737(10) 0.37187(13) 0.55530(9)
H17_3 H 0.8805 0.3779 0.5146
C16_3 C 0.92020(10) 0.41760(13) 0.60544(8)
C17_3 C 0.94323(9) 0.40688(11) 0.66428(8)
H18_3 H 0.9572 0.4365 0.7002
C18_3 C 0.94581(10) 0.35122(12) 0.67040(8)
C19_3 C 0.97191(9) 0.33762(11) 0.73135(8)
C20_3 C 0.96778(9) 0.35872(11) 0.79567(8)
H19_3 H 0.9477 0.3828 0.8010
C21_3 C 0.99221(8) 0.34527(11) 0.85121(7)
H20_3 H 0.9893 0.3604 0.8945
C26_3 C 0.91954(9) 0.47651(11) 0.59388(8)
C27_3 C 0.91884(11) 0.49725(14) 0.52877(8)
H23_3 H 0.9193 0.4738 0.4908
C28_3 C 0.91741(9) 0.55277(11) 0.51905(8)
H24_3 H 0.9164 0.5662 0.4741
C29_3 C 0.91864(8) 0.56761(11) 0.63347(7)
H25_3 H 0.9184 0.5920 0.6705
C30_3 C 0.92017(9) 0.51369(11) 0.64706(7)
H26_3 H 0.9216 0.5019 0.6926
Co8_3 Co 0.911356(10) 0.667928(12) 0.551712(8)
O17_3 O 0.72685(4) 0.04269(7) 0.12857(4)
O18_3 O 0.81151(4) 0.07423(7) 0.06234(4)
O4_3 O 0.82645(4) 0.96138(6) 0.21441(4)
O5_3 O 0.83464(4) 0.97224(6) 0.35003(4)
O6_3 O 0.86175(4) 0.93342(6) 0.43748(4)
O7_3 O 0.70645(4) 0.90175(6) 0.27971(5)
C1_2 C 0.85408(6) 0.96731(8) 0.15815(7)
C2_2 C 0.85966(10) 0.91259(13) 0.13351(9)
H4_2 H 0.9006 0.9184 0.1466
H5_2 H 0.8556 0.9098 0.0840
H6_2 H 0.8264 0.8739 0.1538
C3_3 C 0.86734(6) 0.97794(8) 0.40250(6)
C5_3 C 0.69944(6) 0.94752(8) 0.26758(6)
C6_3 C 0.63395(8) 0.93447(11) 0.25052(10)
H10_3 H 0.6048 0.8892 0.2513
H11_3 H 0.6340 0.9509 0.2053
H12_3 H 0.6207 0.9549 0.2840
Co4_3 Co 0.803648(7) 0.839940(12) 0.445292(8)
Co5_3 Co 0.786022(7) 0.890678(12) 0.288563(8)
C22_4 C 0.71221(6) 0.02155(7) 0.01115(7)
C25_4 C 0.75382(6) 0.04766(6) 0.07306(6)
O1_4 O 0.74566(3) 0.84204(3) 0.37331(3)
H1_4 H 0.7439 0.8727 0.3908
O2_4 O 0.61640(4) 0.79081(4) 0.33305(5)
H2_4 H 0.6328 0.8182 0.3019
H3_4 H 0.5823 0.7890 0.3446
O3_4 O 0.86276(4) 0.87864(4) 0.28994(4)
O4_4 O 0.86507(4) 0.82645(4) 0.38108(4)
O5_4 O 0.86240(4) 0.83464(4) 0.51670(4)
O6_4 O 0.92833(4) 0.86175(4) 0.60415(4)
O7_4 O 0.80470(4) 0.70645(4) 0.44638(5)
O8_4 O 0.73913(4) 0.74279(4) 0.43430(4)
O9_4 O 0.65140(4) 0.78504(4) 0.47573(5)
O10_4 O 0.74792(4) 0.84711(4) 0.51775(4)
N1_4 N 0.61633(6) 0.92327(8) 0.78852(7)
N2_4 N 0.33013(5) 0.91743(5) 0.73747(6)
C1_3 C 0.88677(6) 0.85408(6) 0.32482(7)
C2_3 C 0.94707(8) 0.85966(10) 0.30018(9)
H4_3 H 0.9822 0.9006 0.3133
H5_3 H 0.9458 0.8556 0.2507
H6_3 H 0.9525 0.8264 0.3205
C3_4 C 0.88940(6) 0.86734(6) 0.56917(6)
C4_4 C 0.87508(9) 0.91747(8) 0.59147(8)
H7_4 H 0.9073 0.9582 0.5739
H8_4 H 0.8746 0.9189 0.6411
H9_4 H 0.8340 0.9078 0.5738
C5_4 C 0.75192(6) 0.69944(6) 0.43425(6)
C6_4 C 0.69948(7) 0.63395(8) 0.41719(10)
H10_4 H 0.7156 0.6048 0.4180
H11_4 H 0.6831 0.6340 0.3720
H12_4 H 0.6658 0.6207 0.4507
C7_4 C 0.68989(6) 0.82296(6) 0.51866(6)
C8_4 C 0.66134(7) 0.84016(7) 0.57620(7)
C9_4 C 0.59761(8) 0.81311(10) 0.58228(9)
H13_4 H 0.5710 0.7816 0.5511
C10_4 C 0.57196(8) 0.83114(12) 0.63297(10)
H14_4 H 0.5277 0.8114 0.6370
C11_4 C 0.60959(7) 0.87781(10) 0.67844(9)
C12_4 C 0.67354(7) 0.90363(10) 0.67402(9)
H15_4 H 0.7002 0.9344 0.7059
C13_4 C 0.69884(7) 0.88464(8) 0.62304(8)
H16_4 H 0.7430 0.9027 0.6203
C14_4 C 0.58252(8) 0.89960(11) 0.73219(9)
C15_4 C 0.52550(8) 0.89737(10) 0.72197(9)
H17_4 H 0.5026 0.8805 0.6813
C16_4 C 0.50260(8) 0.92020(10) 0.77211(8)
C17_4 C 0.53635(7) 0.94323(9) 0.83095(8)
H18_4 H 0.5207 0.9572 0.8669
C18_4 C 0.59459(7) 0.94581(10) 0.83707(8)
C19_4 C 0.63429(7) 0.97191(9) 0.89802(8)
C20_4 C 0.60906(7) 0.96778(9) 0.96234(8)
H19_4 H 0.5649 0.9477 0.9677
C26_4 C 0.44303(7) 0.91954(9) 0.76055(8)
C27_4 C 0.42159(8) 0.91884(11) 0.69544(8)
H23_4 H 0.4455 0.9193 0.6575
C28_4 C 0.36464(7) 0.91741(9) 0.68572(8)
H24_4 H 0.3502 0.9164 0.6408
C29_4 C 0.35103(7) 0.91864(8) 0.80014(7)
H25_4 H 0.3264 0.9184 0.8372
C30_4 C 0.40648(7) 0.92017(9) 0.81373(7)
H26_4 H 0.4197 0.9216 0.8593
Co4_4 Co 0.963708(10) 0.803648(7) 0.611959(8)
Co5_4 Co 0.895344(10) 0.786022(7) 0.455230(8)
O17_4 O 0.68416(6) 0.72685(4) 0.29524(4)
O18_4 O 0.73728(6) 0.81151(4) 0.22901(4)
O4_5 O 0.03862(6) 0.86507(4) 0.54775(4)
O5_5 O 0.02776(6) 0.86240(4) 0.68337(4)
O6_5 O 0.06658(6) 0.92833(4) 0.77082(4)
O7_5 O 0.09825(6) 0.80470(4) 0.61305(5)
C1_4 C 0.03269(8) 0.88677(6) 0.49149(7)
C2_4 C 0.08741(13) 0.94707(8) 0.46685(9)
H4_4 H 0.0816 0.9822 0.4800
H5_4 H 0.0902 0.9458 0.4174
H6_4 H 0.1261 0.9525 0.4872
C3_5 C 0.02206(8) 0.88940(6) 0.73584(6)
C5_5 C 0.05248(8) 0.75192(6) 0.60092(6)
C6_5 C 0.06553(11) 0.69948(7) 0.58386(10)
H10_5 H 0.1108 0.7156 0.5847
H11_5 H 0.0491 0.6831 0.5387
H12_5 H 0.0451 0.6658 0.6174
Co4_5 Co 0.160060(12) 0.963708(10) 0.778625(8)
H18_5 H 0.5635 0.5207 0.0336
C18_5 C 0.64878(12) 0.59459(7) 0.00374(8)
C19_5 C 0.66238(11) 0.63429(7) 0.06469(8)
C20_5 C 0.64128(11) 0.60906(7) 0.12901(8)
H19_5 H 0.6172 0.5649 0.1344
C21_4 C 0.65473(11) 0.64694(7) 0.18455(7)
H20_4 H 0.6396 0.6289 0.2279
C22_5 C 0.69066(9) 0.71221(6) 0.17782(7)
C23_4 C 0.71210(11) 0.73748(7) 0.11401(8)
H21_4 H 0.7363 0.7817 0.1089
C24_4 C 0.69890(12) 0.69938(7) 0.05770(8)
H22_4 H 0.7146 0.7174 0.0145
C25_5 C 0.70616(8) 0.75382(6) 0.23973(6)
H25_5 H 0.4080 0.3264 0.0039
H26_5 H 0.4981 0.4197 0.0260
O1_5 O 0.90362(4) 0.74566(3) 0.53998(3)
H1_5 H 0.8712 0.7439 0.5575
O2_5 O 0.82559(6) 0.61640(4) 0.49972(5)
H2_5 H 0.8146 0.6328 0.4686
H3_5 H 0.7933 0.5823 0.5113
O3_5 O 0.98412(6) 0.86276(4) 0.45661(4)
O8_5 O 0.99634(6) 0.73913(4) 0.60097(4)
O9_5 O 0.86636(6) 0.65140(4) 0.64240(5)
O10_5 O 0.90081(6) 0.74792(4) 0.68442(4)
N1_5 N 0.69306(10) 0.61633(6) 0.95519(7)
C4_5 C 0.95761(12) 0.87508(9) 0.75814(8)
H7_5 H 0.9491 0.9073 0.7406
H8_5 H 0.9557 0.8746 0.8078
H9_5 H 0.9262 0.8340 0.7405
C7_5 C 0.86693(8) 0.68989(6) 0.68533(6)
C8_5 C 0.82118(10) 0.66134(7) 0.74287(7)
C9_5 C 0.78450(13) 0.59761(8) 0.74895(9)
H13_5 H 0.7894 0.5710 0.7178
C10_5 C 0.74082(14) 0.57196(8) 0.79964(10)
H14_5 H 0.7163 0.5277 0.8037
C11_5 C 0.73178(12) 0.60959(7) 0.84511(9)
C12_5 C 0.76991(12) 0.67354(7) 0.84069(9)
H15_5 H 0.7658 0.7002 0.8726
C13_5 C 0.81420(11) 0.69884(7) 0.78971(8)
H16_5 H 0.8403 0.7430 0.7870
C14_5 C 0.68292(14) 0.58252(8) 0.89886(9)
C15_5 C 0.62813(13) 0.52550(8) 0.88864(9)
H17_5 H 0.6221 0.5026 0.8480
C16_5 C 0.58240(13) 0.50260(8) 0.93878(8)
C17_5 C 0.59312(11) 0.53635(7) 0.99762(8)
C26_5 C 0.52349(11) 0.44303(7) 0.92722(8)
C27_5 C 0.50275(14) 0.42159(8) 0.86211(8)
H23_5 H 0.5262 0.4455 0.8242
C28_5 C 0.44723(11) 0.36464(7) 0.85239(8)
H24_5 H 0.4338 0.3502 0.8075
C29_5 C 0.43239(11) 0.35103(7) 0.96681(7)
C30_5 C 0.48631(11) 0.40648(7) 0.98040(7)
O17_5 O 0.95731(7) 0.68416(6) 0.46190(4)
O18_5 O 0.92577(7) 0.73728(6) 0.39567(4)
C1_5 C 0.14592(6) 0.03269(8) 0.65815(7)
C2_5 C 0.14034(10) 0.08741(13) 0.63351(9)
H4_5 H 0.0994 0.0816 0.6466
H5_5 H 0.1444 0.0902 0.5840
H6_5 H 0.1736 0.1261 0.6538
C3_6 C 0.13266(6) 0.02206(8) 0.90250(6)
C5_6 C 0.30056(6) 0.05248(8) 0.76758(6)
C6_6 C 0.36605(8) 0.06553(11) 0.75052(10)
H10_6 H 0.3952 0.1108 0.7513
H11_6 H 0.3660 0.0491 0.7053
H12_6 H 0.3793 0.0451 0.7840
N1_6 N 0.07673(8) 0.69306(10) 0.12185(7)
C11_6 C 0.12219(10) 0.73178(12) 0.01177(9)
C12_6 C 0.09637(10) 0.76991(12) 0.00735(9)
H15_6 H 0.0656 0.7658 0.0392
C14_6 C 0.10040(11) 0.68292(14) 0.06552(9)
C15_6 C 0.10263(10) 0.62813(13) 0.05530(9)
H17_6 H 0.1195 0.6221 0.0146
C16_6 C 0.07980(10) 0.58240(13) 0.10544(8)
C17_6 C 0.05677(9) 0.59312(11) 0.16428(8)
H18_6 H 0.0428 0.5635 0.2002
C18_6 C 0.05419(10) 0.64878(12) 0.17040(8)
C19_6 C 0.02809(9) 0.66238(11) 0.23135(8)
C20_6 C 0.03222(9) 0.64128(11) 0.29567(8)
H19_6 H 0.0523 0.6172 0.3010
C21_5 C 0.00779(8) 0.65473(11) 0.35121(7)
H20_5 H 0.0107 0.6396 0.3945
C26_6 C 0.08046(9) 0.52349(11) 0.09388(8)
C27_6 C 0.08116(11) 0.50275(14) 0.02877(8)
C28_6 C 0.08259(9) 0.44723(11) 0.01905(8)
C29_6 C 0.08136(8) 0.43239(11) 0.13347(7)
H25_6 H 0.0816 0.4080 0.1705
C30_6 C 0.07983(9) 0.48631(11) 0.14706(7)
H26_6 H 0.0784 0.4981 0.1926
O1_6 O 0.15796(3) 0.90362(4) 0.70664(3)
H1_6 H 0.1273 0.8712 0.7241
O2_6 O 0.20919(4) 0.82559(6) 0.66638(5)
H2_6 H 0.1818 0.8146 0.6352
H3_6 H 0.2110 0.7933 0.6779
O3_6 O 0.12136(4) 0.98412(6) 0.62327(4)
O8_6 O 0.25721(4) 0.99634(6) 0.76763(4)
O9_6 O 0.21496(4) 0.86636(6) 0.80906(5)
O10_6 O 0.15289(4) 0.90081(6) 0.85108(4)
C4_6 C 0.08253(8) 0.95761(12) 0.92480(8)
H7_6 H 0.0418 0.9491 0.9072
H8_6 H 0.0811 0.9557 0.9744
H9_6 H 0.0922 0.9262 0.9071
C7_6 C 0.17704(6) 0.86693(8) 0.85199(6)
C8_6 C 0.15984(7) 0.82118(10) 0.90953(7)
C9_6 C 0.18689(10) 0.78450(13) 0.91561(9)
H13_6 H 0.2184 0.7894 0.8844
C10_6 C 0.16886(12) 0.74082(14) 0.96630(10)
H14_6 H 0.1886 0.7163 0.9703
C13_6 C 0.11536(8) 0.81420(11) 0.95637(8)
H16_6 H 0.0973 0.8403 0.9536
H23_6 H 0.0807 0.5262 0.9908
H24_6 H 0.0836 0.4338 0.9741
C22_6 C 0.97845(7) 0.69066(9) 0.34448(7)
C23_5 C 0.97462(9) 0.71210(11) 0.28067(8)
H21_5 H 0.9546 0.7363 0.2755
C24_5 C 0.99952(10) 0.69890(12) 0.22436(8)
H22_5 H 0.9972 0.7146 0.1811
C25_6 C 0.95234(6) 0.70616(8) 0.40639(6)
C1_6 C 0.96731(8) 0.11323(6) 0.99149(7)
C2_6 C 0.91259(13) 0.05293(8) 0.96685(9)
H4_6 H 0.9184 0.0178 0.9800
H5_6 H 0.9098 0.0542 0.9174
H6_6 H 0.8739 0.0475 0.9872
C23_6 C 0.73748(7) 0.02538(9) 0.94734(8)
H21_6 H 0.7817 0.0454 0.9422
C24_6 C 0.69938(7) 0.00048(10) 0.89103(8)
H22_6 H 0.7174 0.0028 0.8478
C21_6 C 0.64694(7) 0.99221(8) 0.01788(7)
H20_6 H 0.6289 0.9893 0.0612
loop_
_geom_bond_atom_site_label_1
_geom_bond_atom_site_label_2
_geom_bond_site_symmetry_1
_geom_bond_site_symmetry_2
O6 C3 1_555 1_555
N1 C14 1_555 1_555
N2 C28 1_555 1_555
C3 O5 1_555 1_555
C4 C3 1_555 1_555
H7 C4 1_555 1_555
H8 C4 1_555 1_555
H9 C4 1_555 1_555
C8 C7 1_555 1_555
C9 C8 1_555 1_555
H13 C9 1_555 1_555
C10 C9 1_555 1_555
H14 C10 1_555 1_555
C11 C10 1_555 1_555
C12 C11 1_555 1_555
H15 C12 1_555 1_555
C13 C8 1_555 1_555
H16 C13 1_555 1_555
C14 C11 1_555 1_555
C15 C14 1_555 1_555
H17 C15 1_555 1_555
C16 C15 1_555 1_555
C17 C16 1_555 1_555
H18 C17 1_555 1_555
C18 N1 1_555 1_555
C19 C18 1_555 1_555
C20 C19 1_555 1_555
H19 C20 1_555 1_555
C21 C20 1_555 1_555
H20 C21 1_555 1_555
C26 C16 1_555 1_555
C27 C26 1_555 1_555
H23 C27 1_555 1_555
C28 C27 1_555 1_555
H24 C28 1_555 1_555
C29 N2 1_555 1_555
H25 C29 1_555 1_555
C30 C26 1_555 1_555
H26 C30 1_555 1_555
Co4 O6 1_555 1_555
Co8 N2 1_555 1_555
O10 C7 1_555 1_555
C12 C13 1_555 1_555
C17 C18 1_555 1_555
C29 C30 1_555 1_555
Co1 O1 1_555 1_555
Co2 O1 1_555 1_555
Co3 O1 1_555 1_555
O1 H1 1_555 1_555
O2 Co3 1_555 1_555
H2 O2 1_555 1_555
H3 O2 1_555 1_555
O3 Co2 1_555 1_555
O4 Co1 1_555 1_555
O7 C5 1_555 1_555
O8 Co1 1_555 1_555
O9 Co3 1_555 1_555
C1 O3 1_555 1_555
C2 C1 1_555 1_555
H4 C2 1_555 1_555
H5 C2 1_555 1_555
H6 C2 1_555 1_555
C5 O8 1_555 1_555
C6 C5 1_555 1_555
H10 C6 1_555 1_555
H11 C6 1_555 1_555
H12 C6 1_555 1_555
Co5 O4 1_555 1_555
O13 Co2 1_555 1_555
O14 Co2 1_555 1_555
O15 Co1 1_555 1_555
O16 Co2 1_555 1_555
O17 Co3 1_555 1_555
O18 Co2 1_555 1_555
N3 Co3 1_555 1_555
Co3 O8 1_555 1_555
O4 C1 1_555 1_555
O7 Co5 1_555 1_555
O11 C25 1_555 1_555
O12 C25 1_555 1_555
C23 C22 1_555 1_555
H21 C23 1_555 1_555
H22 C24 1_555 1_555
C25 C22 1_555 1_555
Co6 O12 1_555 1_555
Co7 O11 1_555 1_555
C23 C24 1_555 1_555
Co4 O1_2 1_555 1_555
Co3_2 O1_2 1_555 1_555
O1_2 H1_2 1_555 1_555
O8_2 Co4 1_555 1_555
O9_2 Co3_2 1_555 1_555
O10_2 Co4 1_555 1_555
O17 C25_2 1_555 1_555
O18 C25_2 1_555 1_555
N1_2 C14_2 1_555 1_555
N2_2 C28_2 1_555 1_555
H7_2 C4_2 1_555 1_555
H8_2 C4_2 1_555 1_555
H9_2 C4_2 1_555 1_555
C7_2 O9_2 1_555 1_555
C8_2 C7_2 1_555 1_555
C9_2 C8_2 1_555 1_555
H13_2 C9_2 1_555 1_555
C10_2 C9_2 1_555 1_555
H14_2 C10_2 1_555 1_555
C11_2 C10_2 1_555 1_555
C12_2 C11_2 1_555 1_555
H15_2 C12_2 1_555 1_555
C13_2 C8_2 1_555 1_555
H16_2 C13_2 1_555 1_555
C14_2 C11_2 1_555 1_555
C15_2 C14_2 1_555 1_555
H17_2 C15_2 1_555 1_555
C16_2 C15_2 1_555 1_555
C17_2 C16_2 1_555 1_555
H18_2 C17_2 1_555 1_555
C18_2 N1_2 1_555 1_555
C19_2 C18_2 1_555 1_555
C20_2 C19_2 1_555 1_555
H19_2 C20_2 1_555 1_555
C21_2 C20_2 1_555 1_555
H20_2 C21_2 1_555 1_555
C22_2 C21_2 1_555 1_555
C23_2 C22_2 1_555 1_555
H21_2 C23_2 1_555 1_555
C24_2 C19_2 1_555 1_555
H22_2 C24_2 1_555 1_555
C25_2 C22_2 1_555 1_555
C26_2 C16_2 1_555 1_555
C27_2 C26_2 1_555 1_555
H23_2 C27_2 1_555 1_555
C28_2 C27_2 1_555 1_555
H24_2 C28_2 1_555 1_555
C29_2 N2_2 1_555 1_555
H25_2 C29_2 1_555 1_555
C30_2 C26_2 1_555 1_555
H26_2 C30_2 1_555 1_555
Co8_2 N2_2 1_555 1_555
N3_2 Co3_2 1_555 1_555
Co3_2 O8_2 1_555 1_555
O10_2 C7_2 1_555 1_555
C12_2 C13_2 1_555 1_555
C17_2 C18_2 1_555 1_555
C23_2 C24_2 1_555 1_555
C29_2 C30_2 1_555 1_555
H2_2 O2_2 1_555 1_555
O3_2 Co5 1_555 1_555
O18_2 Co5 1_555 1_555
O6_2 C3_2 1_555 1_555
O7_2 C5_2 1_555 1_555
C3_2 O5_2 1_555 1_555
C6_2 C5_2 1_555 1_555
H10_2 C6_2 1_555 1_555
H11_2 C6_2 1_555 1_555
H12_2 C6_2 1_555 1_555
Co4_2 O6_2 1_555 1_555
Co5_2 O4_2 1_555 1_555
O5_2 Co5_2 1_555 1_555
O7_2 Co5_2 1_555 1_555
O17_2 C25_3 1_555 1_555
O18_2 C25_3 1_555 1_555
C23_3 C22_3 1_555 1_555
H21_3 C23_3 1_555 1_555
H22_3 C24_3 1_555 1_555
C25_3 C22_3 1_555 1_555
C23_3 C24_3 1_555 1_555
Co4_2 O1_3 1_555 1_555
Co5_2 O1_3 1_555 1_555
Co8 O1_3 1_555 1_555
O1_3 H1_3 1_555 1_555
O2_3 Co8 1_555 1_555
H2_3 O2_3 1_555 1_555
H3_3 O2_3 1_555 1_555
O3_3 Co5_2 1_555 1_555
O8_3 Co4_2 1_555 1_555
O9_3 Co8 1_555 1_555
O10_3 Co4_2 1_555 1_555
N1_3 C14_3 1_555 1_555
N2_3 C28_3 1_555 1_555
H7_3 C4_3 1_555 1_555
H8_3 C4_3 1_555 1_555
H9_3 C4_3 1_555 1_555
C7_3 O9_3 1_555 1_555
C8_3 C7_3 1_555 1_555
C9_3 C8_3 1_555 1_555
H13_3 C9_3 1_555 1_555
C10_3 C9_3 1_555 1_555
H14_3 C10_3 1_555 1_555
C11_3 C10_3 1_555 1_555
C12_3 C11_3 1_555 1_555
H15_3 C12_3 1_555 1_555
C13_3 C8_3 1_555 1_555
H16_3 C13_3 1_555 1_555
C14_3 C11_3 1_555 1_555
C15_3 C14_3 1_555 1_555
H17_3 C15_3 1_555 1_555
C16_3 C15_3 1_555 1_555
C17_3 C16_3 1_555 1_555
H18_3 C17_3 1_555 1_555
C18_3 N1_3 1_555 1_555
C19_3 C18_3 1_555 1_555
C20_3 C19_3 1_555 1_555
H19_3 C20_3 1_555 1_555
C21_3 C20_3 1_555 1_555
H20_3 C21_3 1_555 1_555
C26_3 C16_3 1_555 1_555
C27_3 C26_3 1_555 1_555
H23_3 C27_3 1_555 1_555
C28_3 C27_3 1_555 1_555
H24_3 C28_3 1_555 1_555
C29_3 N2_3 1_555 1_555
H25_3 C29_3 1_555 1_555
C30_3 C26_3 1_555 1_555
H26_3 C30_3 1_555 1_555
Co8_3 N2_3 1_555 1_555
O17_3 Co8 1_555 1_555
O18_3 Co5_2 1_555 1_555
Co8 O8_3 1_555 1_555
O10_3 C7_3 1_555 1_555
C12_3 C13_3 1_555 1_555
C17_3 C18_3 1_555 1_555
C29_3 C30_3 1_555 1_555
O6_3 C3_3 1_555 1_555
O7_3 C5_3 1_555 1_555
C2_2 C1_2 1_555 1_555
H4_2 C2_2 1_555 1_555
H5_2 C2_2 1_555 1_555
H6_2 C2_2 1_555 1_555
C3_3 O5_3 1_555 1_555
C6_3 C5_3 1_555 1_555
H10_3 C6_3 1_555 1_555
H11_3 C6_3 1_555 1_555
H12_3 C6_3 1_555 1_555
Co4_3 O6_3 1_555 1_555
Co5_3 O4_3 1_555 1_555
O4_3 C1_2 1_555 1_555
O5_3 Co5_3 1_555 1_555
O7_3 Co5_3 1_555 1_555
O17_3 C25_4 1_555 1_555
O18_3 C25_4 1_555 1_555
C25_4 C22_4 1_555 1_555
Co4_3 O1_4 1_555 1_555
Co5_3 O1_4 1_555 1_555
Co8_2 O1_4 1_555 1_555
O1_4 H1_4 1_555 1_555
O2_4 Co8_2 1_555 1_555
H2_4 O2_4 1_555 1_555
H3_4 O2_4 1_555 1_555
O3_4 Co5_3 1_555 1_555
O4_4 Co4_3 1_555 1_555
O5_4 Co4_3 1_555 1_555
O6_4 C3_4 1_555 1_555
O7_4 C5_4 1_555 1_555
O8_4 Co4_3 1_555 1_555
O9_4 Co8_2 1_555 1_555
O10_4 Co4_3 1_555 1_555
N1_4 C14_4 1_555 1_555
N2_4 C28_4 1_555 1_555
C1_3 O3_4 1_555 1_555
C2_3 C1_3 1_555 1_555
H4_3 C2_3 1_555 1_555
H5_3 C2_3 1_555 1_555
H6_3 C2_3 1_555 1_555
C3_4 O5_4 1_555 1_555
C4_4 C3_4 1_555 1_555
H7_4 C4_4 1_555 1_555
H8_4 C4_4 1_555 1_555
H9_4 C4_4 1_555 1_555
C5_4 O8_4 1_555 1_555
C6_4 C5_4 1_555 1_555
H10_4 C6_4 1_555 1_555
H11_4 C6_4 1_555 1_555
H12_4 C6_4 1_555 1_555
C7_4 O9_4 1_555 1_555
C8_4 C7_4 1_555 1_555
C9_4 C8_4 1_555 1_555
H13_4 C9_4 1_555 1_555
C10_4 C9_4 1_555 1_555
H14_4 C10_4 1_555 1_555
C11_4 C10_4 1_555 1_555
C12_4 C11_4 1_555 1_555
H15_4 C12_4 1_555 1_555
C13_4 C8_4 1_555 1_555
H16_4 C13_4 1_555 1_555
C14_4 C11_4 1_555 1_555
C15_4 C14_4 1_555 1_555
H17_4 C15_4 1_555 1_555
C16_4 C15_4 1_555 1_555
C17_4 C16_4 1_555 1_555
H18_4 C17_4 1_555 1_555
C18_4 N1_4 1_555 1_555
C19_4 C18_4 1_555 1_555
C20_4 C19_4 1_555 1_555
H19_4 C20_4 1_555 1_555
C26_4 C16_4 1_555 1_555
C27_4 C26_4 1_555 1_555
H23_4 C27_4 1_555 1_555
C28_4 C27_4 1_555 1_555
H24_4 C28_4 1_555 1_555
C29_4 N2_4 1_555 1_555
H25_4 C29_4 1_555 1_555
C30_4 C26_4 1_555 1_555
H26_4 C30_4 1_555 1_555
Co4_4 O6_4 1_555 1_555
Co5_4 O4_4 1_555 1_555
Co7 N2_4 1_555 1_555
O17_4 Co8_2 1_555 1_555
O18_4 Co5_3 1_555 1_555
Co8_2 O8_4 1_555 1_555
O4_4 C1_3 1_555 1_555
O5_4 Co5_4 1_555 1_555
O7_4 Co5_4 1_555 1_555
O10_4 C7_4 1_555 1_555
C12_4 C13_4 1_555 1_555
C17_4 C18_4 1_555 1_555
C29_4 C30_4 1_555 1_555
O6_5 C3_5 1_555 1_555
O7_5 C5_5 1_555 1_555
C2_4 C1_4 1_555 1_555
H4_4 C2_4 1_555 1_555
H5_4 C2_4 1_555 1_555
H6_4 C2_4 1_555 1_555
C3_5 O5_5 1_555 1_555
C6_5 C5_5 1_555 1_555
H10_5 C6_5 1_555 1_555
H11_5 C6_5 1_555 1_555
H12_5 C6_5 1_555 1_555
Co4_5 O6_5 1_555 1_555
Co6 O4_5 1_555 1_555
O4_5 C1_4 1_555 1_555
O5_5 Co6 1_555 1_555
O7_5 Co6 1_555 1_555
O17_4 C25_5 1_555 1_555
O18_4 C25_5 1_555 1_555
C19_5 C18_5 1_555 1_555
C20_5 C19_5 1_555 1_555
H19_5 C20_5 1_555 1_555
C21_4 C20_5 1_555 1_555
H20_4 C21_4 1_555 1_555
C22_5 C21_4 1_555 1_555
C23_4 C22_5 1_555 1_555
H21_4 C23_4 1_555 1_555
C24_4 C19_5 1_555 1_555
H22_4 C24_4 1_555 1_555
C25_5 C22_5 1_555 1_555
C23_4 C24_4 1_555 1_555
Co4_4 O1_5 1_555 1_555
Co5_4 O1_5 1_555 1_555
Co8_3 O1_5 1_555 1_555
O1_5 H1_5 1_555 1_555
O2_5 Co8_3 1_555 1_555
H2_5 O2_5 1_555 1_555
H3_5 O2_5 1_555 1_555
O3_5 Co5_4 1_555 1_555
O8_5 Co4_4 1_555 1_555
O9_5 Co8_3 1_555 1_555
O10_5 Co4_4 1_555 1_555
N1_5 C14_5 1_555 1_555
N3 C28_5 1_555 1_555
H7_5 C4_5 1_555 1_555
H8_5 C4_5 1_555 1_555
H9_5 C4_5 1_555 1_555
C7_5 O9_5 1_555 1_555
C8_5 C7_5 1_555 1_555
C9_5 C8_5 1_555 1_555
H13_5 C9_5 1_555 1_555
C10_5 C9_5 1_555 1_555
H14_5 C10_5 1_555 1_555
C11_5 C10_5 1_555 1_555
C12_5 C11_5 1_555 1_555
H15_5 C12_5 1_555 1_555
C13_5 C8_5 1_555 1_555
H16_5 C13_5 1_555 1_555
C14_5 C11_5 1_555 1_555
C15_5 C14_5 1_555 1_555
H17_5 C15_5 1_555 1_555
C16_5 C15_5 1_555 1_555
C17_5 C16_5 1_555 1_555
C26_5 C16_5 1_555 1_555
C27_5 C26_5 1_555 1_555
H23_5 C27_5 1_555 1_555
C28_5 C27_5 1_555 1_555
H24_5 C28_5 1_555 1_555
C29_5 N3 1_555 1_555
C30_5 C26_5 1_555 1_555
O17_5 Co8_3 1_555 1_555
O18_5 Co5_4 1_555 1_555
Co8_3 O8_5 1_555 1_555
O10_5 C7_5 1_555 1_555
C12_5 C13_5 1_555 1_555
C29_5 C30_5 1_555 1_555
O15 C3_6 1_555 1_555
O16 C5_6 1_555 1_555
C2_5 C1_5 1_555 1_555
H4_5 C2_5 1_555 1_555
H5_5 C2_5 1_555 1_555
H6_5 C2_5 1_555 1_555
C3_6 O14 1_555 1_555
C6_6 C5_6 1_555 1_555
H10_6 C6_6 1_555 1_555
H11_6 C6_6 1_555 1_555
H12_6 C6_6 1_555 1_555
O13 C1_5 1_555 1_555
N1_6 C14_6 1_555 1_555
N3_2 C28_6 1_555 1_555
C12_6 C11_6 1_555 1_555
H15_6 C12_6 1_555 1_555
C14_6 C11_6 1_555 1_555
C15_6 C14_6 1_555 1_555
H17_6 C15_6 1_555 1_555
C16_6 C15_6 1_555 1_555
C17_6 C16_6 1_555 1_555
H18_6 C17_6 1_555 1_555
C18_6 N1_6 1_555 1_555
C19_6 C18_6 1_555 1_555
C20_6 C19_6 1_555 1_555
H19_6 C20_6 1_555 1_555
C21_5 C20_6 1_555 1_555
H20_5 C21_5 1_555 1_555
C26_6 C16_6 1_555 1_555
C27_6 C26_6 1_555 1_555
C28_6 C27_6 1_555 1_555
C29_6 N3_2 1_555 1_555
H25_6 C29_6 1_555 1_555
C30_6 C26_6 1_555 1_555
H26_6 C30_6 1_555 1_555
C17_6 C18_6 1_555 1_555
C29_6 C30_6 1_555 1_555
Co4_5 O1_6 1_555 1_555
Co6 O1_6 1_555 1_555
Co7 O1_6 1_555 1_555
O1_6 H1_6 1_555 1_555
O2_6 Co7 1_555 1_555
H2_6 O2_6 1_555 1_555
H3_6 O2_6 1_555 1_555
O3_6 Co6 1_555 1_555
O8_6 Co4_5 1_555 1_555
O9_6 Co7 1_555 1_555
O10_6 Co4_5 1_555 1_555
H7_6 C4_6 1_555 1_555
H8_6 C4_6 1_555 1_555
H9_6 C4_6 1_555 1_555
C7_6 O9_6 1_555 1_555
C8_6 C7_6 1_555 1_555
C9_6 C8_6 1_555 1_555
H13_6 C9_6 1_555 1_555
C10_6 C9_6 1_555 1_555
H14_6 C10_6 1_555 1_555
C13_6 C8_6 1_555 1_555
H16_6 C13_6 1_555 1_555
Co7 O8_6 1_555 1_555
O10_6 C7_6 1_555 1_555
O17_5 C25_6 1_555 1_555
O18_5 C25_6 1_555 1_555
C23_5 C22_6 1_555 1_555
H21_5 C23_5 1_555 1_555
H22_5 C24_5 1_555 1_555
C25_6 C22_6 1_555 1_555
C23_5 C24_5 1_555 1_555
C2_6 C1_6 1_555 1_555
H4_6 C2_6 1_555 1_555
H5_6 C2_6 1_555 1_555
H6_6 C2_6 1_555 1_555
H21_6 C23_6 1_555 1_555
H22_6 C24_6 1_555 1_555
C23_6 C24_6 1_555 1_555
H20_6 C21_6 1_555 1_555

#END
