
###############################################################################
#
# This file contains modified crystal structure data generated from the
# MOF subset of the Cambridge Structural Database (CSD) v543 
# hosted by the Cambridge Crystallographic Data Centre (CCDC).
#
# This work is licensed under the Creative Commons
# Attribution-NonCommercial-ShareAlike 4.0 International License.
# To view a copy of this license, visit
# http://creativecommons.org/licenses/by-nc-sa/4.0/
# or send a letter to
# Creative Commons, PO Box 1866, Mountain View, CA 94042, USA.
#
# CIF created using the CSD Python API on 29 September 2022
# The structure has been converted into the P1 space group
# The structure has a 3D framework
# The original CSD entry XALMOO is in the tetragonal crystal system
# The framework has been calculated to contain at least 10.0% void space
# The void calculation uses a probe of radius 1.32A, grid spacing 0.4
#
###############################################################################

data_XALMOO
_chemical_formula_moiety         '(C384 H240 Co16 N32 O74)n'
_symmetry_cell_setting           triclinic
_symmetry_space_group_name_H-M   'P 1'
_symmetry_Int_Tables_number      1
_space_group_name_Hall           'P 1'
loop_
_symmetry_equiv_pos_site_id
_symmetry_equiv_pos_as_xyz
1 x,y,z
_cell_length_a                   23.394(4)
_cell_length_b                   23.394(4)
_cell_length_c                   49.524(9)
_cell_angle_alpha                90
_cell_angle_beta                 90
_cell_angle_gamma                90
_cell_volume                     27103.5
loop_
_atom_site_label
_atom_site_type_symbol
_atom_site_fract_x
_atom_site_fract_y
_atom_site_fract_z
Co8 Co 0.457157(12) 0.060430(11) 0.918162(6)
O12 O 0.42532(5) 0.00181(6) 0.89275(3)
O5 O -0.0000 0.5000 0.94395(4)
H1 H 0.0214 0.4805 0.9543
Co2 Co 0.042843(12) 0.560430(11) 0.918162(6)
Co3 Co 0.060430(11) 0.957157(12) 0.668162(6)
Co6 Co 0.542843(12) 0.939570(11) 0.918162(6)
O6 O 0.05971(6) 0.88799(6) 0.69630(3)
O8 O 0.11201(6) 0.55971(6) 0.94630(3)
O9 O 0.11961(6) 0.95970(6) 0.70180(3)
O11 O 0.04030(6) 0.61961(6) 0.95180(3)
O14 O 0.07468(5) 0.50181(6) 0.89275(3)
O15 O 0.46670(6) 0.91759(6) 0.90232(3)
O17 O 0.03330(6) 0.41759(6) 0.90232(3)
N3 N 0.08357(8) 0.62215(7) 0.89332(4)
N4 N 0.21873(8) 0.84506(8) 0.82209(4)
C25 C 0.05209(11) 0.66393(13) 0.88004(5)
H17 H 0.0115 0.6630 0.8810
C26 C 0.07678(13) 0.70423(13) 0.86628(7)
H18 H 0.0540 0.7328 0.8579
C27 C 0.13783(11) 0.70632(10) 0.86348(4)
C28 C 0.16755(11) 0.66560(11) 0.87661(6)
H19 H 0.2081 0.6643 0.8755
C29 C 0.13786(10) 0.62536(10) 0.89193(5)
H20 H 0.1596 0.5985 0.9020
C30 C 0.17172(11) 0.81876(10) 0.81158(5)
C31 C 0.14559(10) 0.77575(10) 0.82490(5)
H21 H 0.1116 0.7596 0.8177
C32 C 0.16740(10) 0.75523(10) 0.84852(5)
C33 C 0.21480(10) 0.77873(11) 0.85830(5)
H22 H 0.2321 0.7633 0.8740
C34 C 0.23869(10) 0.82462(10) 0.84596(5)
C35 C 0.15166(10) 0.84297(11) 0.78579(5)
C36 C 0.11194(11) 0.81625(10) 0.77004(5)
H23 H 0.0960 0.7809 0.7758
C37 C 0.09472(11) 0.83985(11) 0.74600(5)
H24 H 0.0664 0.8208 0.7357
C38 C 0.11670(9) 0.88910(10) 0.73663(4)
C39 C 0.15641(11) 0.91625(12) 0.75142(5)
H25 H 0.1741 0.9496 0.7443
C40 C 0.17212(12) 0.89684(12) 0.77663(6)
H26 H 0.1964 0.9192 0.7878
C41 C 0.09791(10) 0.91263(11) 0.71039(5)
C42 C 0.33962(10) 0.94498(10) 0.86358(4)
H27 H 0.3429 0.9849 0.8604
C43 C 0.29511(10) 0.91454(10) 0.85245(5)
H28 H 0.2683 0.9335 0.8412
C44 C 0.28865(9) 0.85594(10) 0.85753(5)
C45 C 0.32770(9) 0.82928(9) 0.87373(5)
H29 H 0.3234 0.7895 0.8771
C46 C 0.37115(10) 0.85665(9) 0.88485(5)
H30 H 0.3965 0.8364 0.8964
C47 C 0.38082(9) 0.91623(9) 0.87989(4)
C48 C 0.42710(8) 0.94751(10) 0.89265(4)
Co1 Co 0.957157(12) 0.439570(11) 0.918162(6)
O1 O 0.94029(6) 0.11201(6) 0.69630(3)
O2 O 0.88039(6) 0.04030(6) 0.70180(3)
O4 O 0.53330(6) 0.08241(6) 0.90232(3)
O5_2 O 1.0000 0.5000 0.94395(4)
N1 N 0.91643(8) 0.37785(7) 0.89332(4)
N2 N 0.78127(8) 0.15494(8) 0.82209(4)
C1 C 0.94791(11) 0.33607(13) 0.88004(5)
H2 H 0.9885 0.3370 0.8810
C2 C 0.92322(13) 0.29577(13) 0.86628(7)
H3 H 0.9460 0.2672 0.8579
C3 C 0.86217(11) 0.29368(10) 0.86348(4)
C4 C 0.83245(11) 0.33440(11) 0.87661(6)
H4 H 0.7919 0.3357 0.8755
C5 C 0.86214(10) 0.37464(10) 0.89193(5)
H5 H 0.8404 0.4015 0.9020
C6 C 0.82828(11) 0.18124(10) 0.81158(5)
C7 C 0.85441(10) 0.22425(10) 0.82490(5)
H6 H 0.8884 0.2404 0.8177
C8 C 0.83260(10) 0.24477(10) 0.84852(5)
C9 C 0.78520(10) 0.22127(11) 0.85830(5)
H7 H 0.7679 0.2367 0.8740
C10 C 0.76131(10) 0.17538(10) 0.84596(5)
C11 C 0.84834(10) 0.15703(11) 0.78579(5)
C12 C 0.88806(11) 0.18375(10) 0.77004(5)
H8 H 0.9040 0.2191 0.7758
C13 C 0.90528(11) 0.16015(11) 0.74600(5)
H9 H 0.9336 0.1792 0.7357
C14 C 0.88330(9) 0.11090(10) 0.73663(4)
C15 C 0.84359(11) 0.08375(12) 0.75142(5)
H10 H 0.8259 0.0504 0.7443
C16 C 0.82788(12) 0.10316(12) 0.77663(6)
H11 H 0.8036 0.0808 0.7878
C17 C 0.90209(10) 0.08737(11) 0.71039(5)
C18 C 0.66038(10) 0.05502(10) 0.86358(4)
H12 H 0.6571 0.0151 0.8604
C19 C 0.70489(10) 0.08546(10) 0.85245(5)
H13 H 0.7317 0.0665 0.8412
C20 C 0.71135(9) 0.14406(10) 0.85753(5)
C21 C 0.67230(9) 0.17072(9) 0.87373(5)
H14 H 0.6766 0.2105 0.8771
C22 C 0.62885(10) 0.14335(9) 0.88485(5)
H15 H 0.6035 0.1636 0.8964
C23 C 0.61918(9) 0.08377(9) 0.87989(4)
C24 C 0.57290(8) 0.05249(10) 0.89265(4)
Co4 Co 0.939570(11) 0.042843(12) 0.668162(6)
O7 O 0.88799(6) 0.44029(6) 0.94630(3)
O10 O 0.95970(6) 0.38039(6) 0.95180(3)
O13 O 0.92532(5) 0.49819(6) 0.89275(3)
O16 O 0.96670(6) 0.58241(6) 0.90232(3)
H16 H 0.9786 0.5195 0.9543
O3 O 0.57468(5) 0.99819(6) 0.89275(3)
O3_2 O 0.00181(6) 0.07468(5) 0.14275(3)
Co5 Co 0.060430(11) 0.042843(12) 0.168162(6)
Co1_2 Co 0.560430(11) 0.457157(12) 0.168162(6)
O4_2 O 0.91759(6) 0.03330(6) 0.15232(3)
O5_3 O 0.5000 0.5000 0.19395(4)
H1_2 H 0.5195 0.5214 0.2043
N1_2 N 0.62215(7) 0.41643(8) 0.14332(4)
N2_2 N 0.84506(8) 0.28127(8) 0.07209(4)
C1_2 C 0.66393(13) 0.44791(11) 0.13004(5)
H2_2 H 0.6630 0.4885 0.1310
C2_2 C 0.70423(13) 0.42322(13) 0.11628(7)
H3_2 H 0.7328 0.4460 0.1079
C3_2 C 0.70632(10) 0.36217(11) 0.11348(4)
C4_2 C 0.66560(11) 0.33245(11) 0.12661(6)
H4_2 H 0.6643 0.2919 0.1255
C5_2 C 0.62536(10) 0.36214(10) 0.14193(5)
H5_2 H 0.5985 0.3404 0.1520
C6_2 C 0.81876(10) 0.32828(11) 0.06158(5)
C7_2 C 0.77575(10) 0.35441(10) 0.07490(5)
H6_2 H 0.7596 0.3884 0.0677
C8_2 C 0.75523(10) 0.33260(10) 0.09852(5)
C9_2 C 0.77873(11) 0.28520(10) 0.10830(5)
H7_2 H 0.7633 0.2679 0.1240
C10_2 C 0.82462(10) 0.26131(10) 0.09596(5)
C11_2 C 0.84297(11) 0.34834(10) 0.03579(5)
C12_2 C 0.81625(10) 0.38806(11) 0.02004(5)
H8_2 H 0.7809 0.4040 0.0258
C15_2 C 0.91625(12) 0.34359(11) 0.00142(5)
C16_2 C 0.89684(12) 0.32788(12) 0.02663(6)
H11_2 H 0.9192 0.3036 0.0378
C18_2 C 0.94498(10) 0.16038(10) 0.11358(4)
H12_2 H 0.9849 0.1571 0.1104
C19_2 C 0.91454(10) 0.20489(10) 0.10245(5)
H13_2 H 0.9335 0.2317 0.0912
C20_2 C 0.85594(10) 0.21135(9) 0.10753(5)
C21_2 C 0.82928(9) 0.17230(9) 0.12373(5)
H14_2 H 0.7895 0.1766 0.1271
C22_2 C 0.85665(9) 0.12885(10) 0.13485(5)
H15_2 H 0.8364 0.1035 0.1464
C23_2 C 0.91623(9) 0.11918(9) 0.12989(4)
C24_2 C 0.94751(10) 0.07290(8) 0.14265(4)
Co2_2 Co 0.439570(11) 0.542843(12) 0.168162(6)
O7_2 O 0.55971(6) 0.38799(6) 0.19630(3)
O8_2 O 0.44029(6) 0.61201(6) 0.19630(3)
O10_2 O 0.61961(6) 0.45970(6) 0.20180(3)
O11_2 O 0.38039(6) 0.54030(6) 0.20180(3)
O13_2 O 0.50181(6) 0.42532(5) 0.14275(3)
O14_2 O 0.49819(6) 0.57468(5) 0.14275(3)
O15_2 O 0.08241(6) 0.96670(6) 0.15232(3)
O16_2 O 0.41759(6) 0.46670(6) 0.15232(3)
O17_2 O 0.58241(6) 0.53330(6) 0.15232(3)
H16_2 H 0.4805 0.4786 0.2043
N3_2 N 0.37785(7) 0.58357(8) 0.14332(4)
N4_2 N 0.15494(8) 0.71873(8) 0.07209(4)
C25_2 C 0.33607(13) 0.55209(11) 0.13004(5)
H17_2 H 0.3370 0.5115 0.1310
C26_2 C 0.29577(13) 0.57678(13) 0.11628(7)
H18_2 H 0.2672 0.5540 0.1079
C27_2 C 0.29368(10) 0.63783(11) 0.11348(4)
C28_2 C 0.33440(11) 0.66755(11) 0.12661(6)
H19_2 H 0.3357 0.7081 0.1255
C29_2 C 0.37464(10) 0.63786(10) 0.14193(5)
H20_2 H 0.4015 0.6596 0.1520
C30_2 C 0.18124(10) 0.67172(11) 0.06158(5)
C31_2 C 0.22425(10) 0.64559(10) 0.07490(5)
H21_2 H 0.2404 0.6116 0.0677
C32_2 C 0.24477(10) 0.66740(10) 0.09852(5)
C33_2 C 0.22127(11) 0.71480(10) 0.10830(5)
H22_2 H 0.2367 0.7321 0.1240
C34_2 C 0.17538(10) 0.73869(10) 0.09596(5)
C35_2 C 0.15703(11) 0.65166(10) 0.03579(5)
C36_2 C 0.18375(10) 0.61194(11) 0.02004(5)
H23_2 H 0.2191 0.5960 0.0258
C39_2 C 0.08375(12) 0.65641(11) 0.00142(5)
C40_2 C 0.10316(12) 0.67212(12) 0.02663(6)
H26_2 H 0.0808 0.6964 0.0378
C42_2 C 0.05502(10) 0.83962(10) 0.11358(4)
H27_2 H 0.0151 0.8429 0.1104
C43_2 C 0.08546(10) 0.79511(10) 0.10245(5)
H28_2 H 0.0665 0.7683 0.0912
C44_2 C 0.14406(10) 0.78865(9) 0.10753(5)
C45_2 C 0.17072(9) 0.82770(9) 0.12373(5)
H29_2 H 0.2105 0.8234 0.1271
C46_2 C 0.14335(9) 0.87115(10) 0.13485(5)
H30_2 H 0.1636 0.8965 0.1464
C47_2 C 0.08377(9) 0.88082(9) 0.12989(4)
C48_2 C 0.05249(10) 0.92710(8) 0.14265(4)
C13_2 C 0.83985(11) 0.40528(11) 0.99600(5)
H9_2 H 0.8208 0.4336 0.9857
C14_2 C 0.88910(10) 0.38330(9) 0.98663(4)
H10_2 H 0.9496 0.3259 0.9943
C17_2 C 0.91263(11) 0.40209(10) 0.96039(5)
C37_2 C 0.16015(11) 0.59472(11) 0.99600(5)
H24_2 H 0.1792 0.5664 0.9857
C38_2 C 0.11090(10) 0.61670(9) 0.98663(4)
H25_2 H 0.0504 0.6741 0.9943
C41_2 C 0.08737(11) 0.59791(10) 0.96039(5)
Co7 Co 0.939570(11) 0.957157(12) 0.168162(6)
O12_2 O 0.99819(6) 0.92532(5) 0.14275(3)
Co1_3 Co 0.042843(12) 0.439570(11) 0.418162(6)
O1_2 O 0.05971(6) 0.11201(6) 0.19630(3)
O2_2 O 0.11961(6) 0.04030(6) 0.20180(3)
O4_3 O 0.46670(6) 0.08241(6) 0.40232(3)
O5_4 O -0.0000 0.5000 0.44395(4)
N1_3 N 0.08357(8) 0.37785(7) 0.39332(4)
N2_3 N 0.21873(8) 0.15494(8) 0.32209(4)
C1_3 C 0.05209(11) 0.33607(13) 0.38004(5)
H2_3 H 0.0115 0.3370 0.3810
C2_3 C 0.07678(13) 0.29577(13) 0.36628(7)
H3_3 H 0.0540 0.2672 0.3579
C3_3 C 0.13783(11) 0.29368(10) 0.36348(4)
C4_3 C 0.16755(11) 0.33440(11) 0.37661(6)
H4_3 H 0.2081 0.3357 0.3755
C5_3 C 0.13786(10) 0.37464(10) 0.39193(5)
H5_3 H 0.1596 0.4015 0.4020
C6_3 C 0.17172(11) 0.18124(10) 0.31158(5)
C7_3 C 0.14559(10) 0.22425(10) 0.32490(5)
H6_3 H 0.1116 0.2404 0.3177
C8_3 C 0.16740(10) 0.24477(10) 0.34852(5)
C9_3 C 0.21480(10) 0.22127(11) 0.35830(5)
H7_3 H 0.2321 0.2367 0.3740
C10_3 C 0.23869(10) 0.17538(10) 0.34596(5)
C11_3 C 0.15166(10) 0.15703(11) 0.28579(5)
C12_3 C 0.11194(11) 0.18375(10) 0.27004(5)
H8_3 H 0.0960 0.2191 0.2758
C13_3 C 0.09472(11) 0.16015(11) 0.24600(5)
H9_3 H 0.0664 0.1792 0.2357
C14_3 C 0.11670(9) 0.11090(10) 0.23663(4)
C15_3 C 0.15641(11) 0.08375(12) 0.25142(5)
H10_3 H 0.1741 0.0504 0.2443
C16_3 C 0.17212(12) 0.10316(12) 0.27663(6)
H11_3 H 0.1964 0.0808 0.2878
C17_3 C 0.09791(10) 0.08737(11) 0.21039(5)
C18_3 C 0.33962(10) 0.05502(10) 0.36358(4)
H12_3 H 0.3429 0.0151 0.3604
C19_3 C 0.29511(10) 0.08546(10) 0.35245(5)
H13_3 H 0.2683 0.0665 0.3412
C20_3 C 0.28865(9) 0.14406(10) 0.35753(5)
C21_3 C 0.32770(9) 0.17072(9) 0.37373(5)
H14_3 H 0.3234 0.2105 0.3771
C22_3 C 0.37115(10) 0.14335(9) 0.38485(5)
H15_3 H 0.3965 0.1636 0.3964
C23_3 C 0.38082(9) 0.08377(9) 0.37989(4)
C24_3 C 0.42710(8) 0.05249(10) 0.39265(4)
Co7_2 Co 0.542843(12) 0.060430(11) 0.418162(6)
O7_3 O 0.11201(6) 0.44029(6) 0.44630(3)
O10_3 O 0.04030(6) 0.38039(6) 0.45180(3)
O13_3 O 0.07468(5) 0.49819(6) 0.39275(3)
O16_3 O 0.03330(6) 0.58241(6) 0.40232(3)
H16_3 H 0.0214 0.5195 0.4543
O3_3 O 0.42532(5) 0.99819(6) 0.39275(3)
Co5_2 Co 0.457157(12) 0.939570(11) 0.418162(6)
O12_3 O 0.57468(5) 0.00181(6) 0.39275(3)
O5_5 O 1.0000 0.5000 0.44395(4)
H1_3 H 0.9786 0.4805 0.4543
Co2_3 Co 0.957157(12) 0.560430(11) 0.418162(6)
O6_2 O 0.94029(6) 0.88799(6) 0.19630(3)
O8_3 O 0.88799(6) 0.55971(6) 0.44630(3)
O9_2 O 0.88039(6) 0.95970(6) 0.20180(3)
O11_3 O 0.95970(6) 0.61961(6) 0.45180(3)
O14_3 O 0.92532(5) 0.50181(6) 0.39275(3)
O15_3 O 0.53330(6) 0.91759(6) 0.40232(3)
O17_3 O 0.96670(6) 0.41759(6) 0.40232(3)
N3_3 N 0.91643(8) 0.62215(7) 0.39332(4)
N4_3 N 0.78127(8) 0.84506(8) 0.32209(4)
C25_3 C 0.94791(11) 0.66393(13) 0.38004(5)
H17_3 H 0.9885 0.6630 0.3810
C26_3 C 0.92322(13) 0.70423(13) 0.36628(7)
H18_3 H 0.9460 0.7328 0.3579
C27_3 C 0.86217(11) 0.70632(10) 0.36348(4)
C28_3 C 0.83245(11) 0.66560(11) 0.37661(6)
H19_3 H 0.7919 0.6643 0.3755
C29_3 C 0.86214(10) 0.62536(10) 0.39193(5)
H20_3 H 0.8404 0.5985 0.4020
C30_3 C 0.82828(11) 0.81876(10) 0.31158(5)
C31_3 C 0.85441(10) 0.77575(10) 0.32490(5)
H21_3 H 0.8884 0.7596 0.3177
C32_3 C 0.83260(10) 0.75523(10) 0.34852(5)
C33_3 C 0.78520(10) 0.77873(11) 0.35830(5)
H22_3 H 0.7679 0.7633 0.3740
C34_3 C 0.76131(10) 0.82462(10) 0.34596(5)
C35_3 C 0.84834(10) 0.84297(11) 0.28579(5)
C36_3 C 0.88806(11) 0.81625(10) 0.27004(5)
H23_3 H 0.9040 0.7809 0.2758
C37_3 C 0.90528(11) 0.83985(11) 0.24600(5)
H24_3 H 0.9336 0.8208 0.2357
C38_3 C 0.88330(9) 0.88910(10) 0.23663(4)
C39_3 C 0.84359(11) 0.91625(12) 0.25142(5)
H25_3 H 0.8259 0.9496 0.2443
C40_3 C 0.82788(12) 0.89684(12) 0.27663(6)
H26_3 H 0.8036 0.9192 0.2878
C41_3 C 0.90209(10) 0.91263(11) 0.21039(5)
C42_3 C 0.66038(10) 0.94498(10) 0.36358(4)
H27_3 H 0.6571 0.9849 0.3604
C43_3 C 0.70489(10) 0.91454(10) 0.35245(5)
H28_3 H 0.7317 0.9335 0.3412
C44_3 C 0.71135(9) 0.85594(10) 0.35753(5)
C45_3 C 0.67230(9) 0.82928(9) 0.37373(5)
H29_3 H 0.6766 0.7895 0.3771
C46_3 C 0.62885(10) 0.85665(9) 0.38485(5)
H30_3 H 0.6035 0.8364 0.3964
C47_3 C 0.61918(9) 0.91623(9) 0.37989(4)
C48_3 C 0.57290(8) 0.94751(10) 0.39265(4)
O5_6 O -0.0000 -0.0000 0.19395(4)
N1_4 N 0.12215(7) 0.08357(8) 0.14332(4)
N2_4 N 0.34506(8) 0.21873(8) 0.07209(4)
C1_4 C 0.16393(13) 0.05209(11) 0.13004(5)
H2_4 H 0.1630 0.0115 0.1310
C2_4 C 0.20423(13) 0.07678(13) 0.11628(7)
H3_4 H 0.2328 0.0540 0.1079
C3_4 C 0.20632(10) 0.13783(11) 0.11348(4)
C4_4 C 0.16560(11) 0.16755(11) 0.12661(6)
H4_4 H 0.1643 0.2081 0.1255
C5_4 C 0.12536(10) 0.13786(10) 0.14193(5)
H5_4 H 0.0985 0.1596 0.1520
C6_4 C 0.31876(10) 0.17172(11) 0.06158(5)
C7_4 C 0.27575(10) 0.14559(10) 0.07490(5)
H6_4 H 0.2596 0.1116 0.0677
C8_4 C 0.25523(10) 0.16740(10) 0.09852(5)
C9_4 C 0.27873(11) 0.21480(10) 0.10830(5)
H7_4 H 0.2633 0.2321 0.1240
C10_4 C 0.32462(10) 0.23869(10) 0.09596(5)
C11_4 C 0.34297(11) 0.15166(10) 0.03579(5)
C12_4 C 0.31625(10) 0.11194(11) 0.02004(5)
H8_4 H 0.2809 0.0960 0.0258
C15_4 C 0.41625(12) 0.15641(11) 0.00142(5)
C16_4 C 0.39684(12) 0.17212(12) 0.02663(6)
H11_4 H 0.4192 0.1964 0.0378
C18_4 C 0.44498(10) 0.33962(10) 0.11358(4)
H12_4 H 0.4849 0.3429 0.1104
C19_4 C 0.41454(10) 0.29511(10) 0.10245(5)
H13_4 H 0.4335 0.2683 0.0912
C20_4 C 0.35594(10) 0.28865(9) 0.10753(5)
C21_4 C 0.32928(9) 0.32770(9) 0.12373(5)
H14_4 H 0.2895 0.3234 0.1271
C22_4 C 0.35665(9) 0.37115(10) 0.13485(5)
H15_4 H 0.3364 0.3965 0.1464
C23_4 C 0.41623(9) 0.38082(9) 0.12989(4)
C24_4 C 0.44751(10) 0.42710(8) 0.14265(4)
O1_3 O 0.38799(6) 0.05971(6) 0.94630(3)
O2_3 O 0.45970(6) 0.11961(6) 0.95180(3)
C13_4 C 0.33985(11) 0.09472(11) 0.99600(5)
H9_4 H 0.3208 0.0664 0.9857
C14_4 C 0.38910(10) 0.11670(9) 0.98663(4)
H10_4 H 0.4496 0.1741 0.9943
C17_4 C 0.41263(11) 0.09791(10) 0.96039(5)
O5_7 O -0.0000 1.0000 0.19395(4)
H1_4 H 0.0195 0.9786 0.2043
O5_8 O 1.0000 -0.0000 0.19395(4)
H16_4 H 0.9805 0.0214 0.2043
O5_9 O 1.0000 1.0000 0.19395(4)
N3_4 N 0.87785(7) 0.91643(8) 0.14332(4)
N4_4 N 0.65494(8) 0.78127(8) 0.07209(4)
C25_4 C 0.83607(13) 0.94791(11) 0.13004(5)
H17_4 H 0.8370 0.9885 0.1310
C26_4 C 0.79577(13) 0.92322(13) 0.11628(7)
H18_4 H 0.7672 0.9460 0.1079
C27_4 C 0.79368(10) 0.86217(11) 0.11348(4)
C28_4 C 0.83440(11) 0.83245(11) 0.12661(6)
H19_4 H 0.8357 0.7919 0.1255
C29_4 C 0.87464(10) 0.86214(10) 0.14193(5)
H20_4 H 0.9015 0.8404 0.1520
C30_4 C 0.68124(10) 0.82828(11) 0.06158(5)
C31_4 C 0.72425(10) 0.85441(10) 0.07490(5)
H21_4 H 0.7404 0.8884 0.0677
C32_4 C 0.74477(10) 0.83260(10) 0.09852(5)
C33_4 C 0.72127(11) 0.78520(10) 0.10830(5)
H22_4 H 0.7367 0.7679 0.1240
C34_4 C 0.67538(10) 0.76131(10) 0.09596(5)
C35_4 C 0.65703(11) 0.84834(10) 0.03579(5)
C36_4 C 0.68375(10) 0.88806(11) 0.02004(5)
H23_4 H 0.7191 0.9040 0.0258
C39_4 C 0.58375(12) 0.84359(11) 0.00142(5)
C40_4 C 0.60316(12) 0.82788(12) 0.02663(6)
H26_4 H 0.5808 0.8036 0.0378
C42_4 C 0.55502(10) 0.66038(10) 0.11358(4)
H27_4 H 0.5151 0.6571 0.1104
C43_4 C 0.58546(10) 0.70489(10) 0.10245(5)
H28_4 H 0.5665 0.7317 0.0912
C44_4 C 0.64406(10) 0.71135(9) 0.10753(5)
C45_4 C 0.67072(9) 0.67230(9) 0.12373(5)
H29_4 H 0.7105 0.6766 0.1271
C46_4 C 0.64335(9) 0.62885(10) 0.13485(5)
H30_4 H 0.6636 0.6035 0.1464
C47_4 C 0.58377(9) 0.61918(9) 0.12989(4)
C48_4 C 0.55249(10) 0.57290(8) 0.14265(4)
O6_3 O 0.61201(6) 0.94029(6) 0.94630(3)
O9_3 O 0.54030(6) 0.88039(6) 0.95180(3)
C37_4 C 0.66015(11) 0.90528(11) 0.99600(5)
H24_4 H 0.6792 0.9336 0.9857
C38_4 C 0.61090(10) 0.88330(9) 0.98663(4)
H25_4 H 0.5504 0.8259 0.9943
C41_4 C 0.58737(11) 0.90209(10) 0.96039(5)
O5_10 O 0.5000 -0.0000 0.44395(4)
O8_4 O 0.61201(6) 0.05971(6) 0.44630(3)
O11_4 O 0.54030(6) 0.11961(6) 0.45180(3)
H16_5 H 0.4786 0.0195 0.4543
N3_5 N 0.58357(8) 0.12215(7) 0.39332(4)
N4_5 N 0.71873(8) 0.34506(8) 0.32209(4)
C25_5 C 0.55209(11) 0.16393(13) 0.38004(5)
H17_5 H 0.5115 0.1630 0.3810
C26_5 C 0.57678(13) 0.20423(13) 0.36628(7)
H18_5 H 0.5540 0.2328 0.3579
C27_5 C 0.63783(11) 0.20632(10) 0.36348(4)
C28_5 C 0.66755(11) 0.16560(11) 0.37661(6)
H19_5 H 0.7081 0.1643 0.3755
C29_5 C 0.63786(10) 0.12536(10) 0.39193(5)
H20_5 H 0.6596 0.0985 0.4020
C30_5 C 0.67172(11) 0.31876(10) 0.31158(5)
C31_5 C 0.64559(10) 0.27575(10) 0.32490(5)
H21_5 H 0.6116 0.2596 0.3177
C32_5 C 0.66740(10) 0.25523(10) 0.34852(5)
C33_5 C 0.71480(10) 0.27873(11) 0.35830(5)
H22_5 H 0.7321 0.2633 0.3740
C34_5 C 0.73869(10) 0.32462(10) 0.34596(5)
C35_5 C 0.65166(10) 0.34297(11) 0.28579(5)
C36_5 C 0.61194(11) 0.31625(10) 0.27004(5)
H23_5 H 0.5960 0.2809 0.2758
C37_5 C 0.59472(11) 0.33985(11) 0.24600(5)
H24_5 H 0.5664 0.3208 0.2357
C38_5 C 0.61670(9) 0.38910(10) 0.23663(4)
C39_5 C 0.65641(11) 0.41625(12) 0.25142(5)
H25_5 H 0.6741 0.4496 0.2443
C40_5 C 0.67212(12) 0.39684(12) 0.27663(6)
H26_5 H 0.6964 0.4192 0.2878
C41_5 C 0.59791(10) 0.41263(11) 0.21039(5)
C42_5 C 0.83962(10) 0.44498(10) 0.36358(4)
H27_5 H 0.8429 0.4849 0.3604
C43_5 C 0.79511(10) 0.41454(10) 0.35245(5)
H28_5 H 0.7683 0.4335 0.3412
C44_5 C 0.78865(9) 0.35594(10) 0.35753(5)
C45_5 C 0.82770(9) 0.32928(9) 0.37373(5)
H29_5 H 0.8234 0.2895 0.3771
C46_5 C 0.87115(10) 0.35665(9) 0.38485(5)
H30_5 H 0.8965 0.3364 0.3964
C47_5 C 0.88082(9) 0.41623(9) 0.37989(4)
C48_5 C 0.92710(8) 0.44751(10) 0.39265(4)
O5_11 O 0.5000 1.0000 0.44395(4)
H1_5 H 0.5214 0.9805 0.4543
N1_5 N 0.41643(8) 0.87785(7) 0.39332(4)
N2_5 N 0.28127(8) 0.65494(8) 0.32209(4)
C1_5 C 0.44791(11) 0.83607(13) 0.38004(5)
H2_5 H 0.4885 0.8370 0.3810
C2_5 C 0.42322(13) 0.79577(13) 0.36628(7)
H3_5 H 0.4460 0.7672 0.3579
C3_5 C 0.36217(11) 0.79368(10) 0.36348(4)
C4_5 C 0.33245(11) 0.83440(11) 0.37661(6)
H4_5 H 0.2919 0.8357 0.3755
C5_5 C 0.36214(10) 0.87464(10) 0.39193(5)
H5_5 H 0.3404 0.9015 0.4020
C6_5 C 0.32828(11) 0.68124(10) 0.31158(5)
C7_5 C 0.35441(10) 0.72425(10) 0.32490(5)
H6_5 H 0.3884 0.7404 0.3177
C8_5 C 0.33260(10) 0.74477(10) 0.34852(5)
C9_5 C 0.28520(10) 0.72127(11) 0.35830(5)
H7_5 H 0.2679 0.7367 0.3740
C10_5 C 0.26131(10) 0.67538(10) 0.34596(5)
C11_5 C 0.34834(10) 0.65703(11) 0.28579(5)
C12_5 C 0.38806(11) 0.68375(10) 0.27004(5)
H8_5 H 0.4040 0.7191 0.2758
C13_5 C 0.40528(11) 0.66015(11) 0.24600(5)
H9_5 H 0.4336 0.6792 0.2357
C14_5 C 0.38330(9) 0.61090(10) 0.23663(4)
C15_5 C 0.34359(11) 0.58375(12) 0.25142(5)
H10_5 H 0.3259 0.5504 0.2443
C16_5 C 0.32788(12) 0.60316(12) 0.27663(6)
H11_5 H 0.3036 0.5808 0.2878
C17_5 C 0.40209(10) 0.58737(11) 0.21039(5)
C18_5 C 0.16038(10) 0.55502(10) 0.36358(4)
H12_5 H 0.1571 0.5151 0.3604
C19_5 C 0.20489(10) 0.58546(10) 0.35245(5)
H13_5 H 0.2317 0.5665 0.3412
C20_5 C 0.21135(9) 0.64406(10) 0.35753(5)
C21_5 C 0.17230(9) 0.67072(9) 0.37373(5)
H14_5 H 0.1766 0.7105 0.3771
C22_5 C 0.12885(10) 0.64335(9) 0.38485(5)
H15_5 H 0.1035 0.6636 0.3964
C23_5 C 0.11918(9) 0.58377(9) 0.37989(4)
C24_5 C 0.07290(8) 0.55249(10) 0.39265(4)
O7_4 O 0.38799(6) 0.94029(6) 0.44630(3)
O10_4 O 0.45970(6) 0.88039(6) 0.45180(3)
O5_12 O -0.0000 -0.0000 0.69395(4)
H1_6 H 0.0195 0.0214 0.7043
O17_4 O 0.08241(6) 0.03330(6) 0.65232(3)
O3_4 O 0.50181(6) 0.57468(5) 0.64275(3)
O4_4 O 0.41759(6) 0.53330(6) 0.65232(3)
O5_13 O -0.0000 1.0000 0.69395(4)
N1_6 N 0.12215(7) 0.91643(8) 0.64332(4)
N2_6 N 0.34506(8) 0.78127(8) 0.57209(4)
C1_6 C 0.16393(13) 0.94791(11) 0.63004(5)
H2_6 H 0.1630 0.9885 0.6310
C2_6 C 0.20423(13) 0.92322(13) 0.61628(7)
H3_6 H 0.2328 0.9460 0.6079
C3_6 C 0.20632(10) 0.86217(11) 0.61348(4)
C4_6 C 0.16560(11) 0.83245(11) 0.62661(6)
H4_6 H 0.1643 0.7919 0.6255
C5_6 C 0.12536(10) 0.86214(10) 0.64193(5)
H5_6 H 0.0985 0.8404 0.6520
C6_6 C 0.31876(10) 0.82828(11) 0.56158(5)
C7_6 C 0.27575(10) 0.85441(10) 0.57490(5)
H6_6 H 0.2596 0.8884 0.5677
C8_6 C 0.25523(10) 0.83260(10) 0.59852(5)
C9_6 C 0.27873(11) 0.78520(10) 0.60830(5)
H7_6 H 0.2633 0.7679 0.6240
C10_6 C 0.32462(10) 0.76131(10) 0.59596(5)
C11_6 C 0.34297(11) 0.84834(10) 0.53579(5)
C12_6 C 0.31625(10) 0.88806(11) 0.52004(5)
H8_6 H 0.2809 0.9040 0.5258
C13_6 C 0.33985(11) 0.90528(11) 0.49600(5)
H9_6 H 0.3208 0.9336 0.4857
C14_6 C 0.38910(10) 0.88330(9) 0.48663(4)
C15_6 C 0.41625(12) 0.84359(11) 0.50142(5)
H10_6 H 0.4496 0.8259 0.4943
C16_6 C 0.39684(12) 0.82788(12) 0.52663(6)
H11_6 H 0.4192 0.8036 0.5378
C17_6 C 0.41263(11) 0.90209(10) 0.46039(5)
C18_6 C 0.44498(10) 0.66038(10) 0.61358(4)
H12_6 H 0.4849 0.6571 0.6104
C19_6 C 0.41454(10) 0.70489(10) 0.60245(5)
H13_6 H 0.4335 0.7317 0.5912
C20_6 C 0.35594(10) 0.71135(9) 0.60753(5)
C21_6 C 0.32928(9) 0.67230(9) 0.62373(5)
H14_6 H 0.2895 0.6766 0.6271
C22_6 C 0.35665(9) 0.62885(10) 0.63485(5)
H15_6 H 0.3364 0.6035 0.6464
C23_6 C 0.41623(9) 0.61918(9) 0.62989(4)
C24_6 C 0.44751(10) 0.57290(8) 0.64265(4)
Co5_3 Co 0.560430(11) 0.542843(12) 0.668162(6)
Co7_3 Co 0.439570(11) 0.457157(12) 0.668162(6)
O13_4 O 0.00181(6) 0.92532(5) 0.64275(3)
O5_14 O 1.0000 -0.0000 0.69395(4)
O12_4 O 0.49819(6) 0.42532(5) 0.64275(3)
O14_4 O 0.99819(6) 0.07468(5) 0.64275(3)
O15_4 O 0.58241(6) 0.46670(6) 0.65232(3)
N3_6 N 0.87785(7) 0.08357(8) 0.64332(4)
N4_6 N 0.65494(8) 0.21873(8) 0.57209(4)
C25_6 C 0.83607(13) 0.05209(11) 0.63004(5)
H17_6 H 0.8370 0.0115 0.6310
C26_6 C 0.79577(13) 0.07678(13) 0.61628(7)
H18_6 H 0.7672 0.0540 0.6079
C27_6 C 0.79368(10) 0.13783(11) 0.61348(4)
C28_6 C 0.83440(11) 0.16755(11) 0.62661(6)
H19_6 H 0.8357 0.2081 0.6255
C29_6 C 0.87464(10) 0.13786(10) 0.64193(5)
H20_6 H 0.9015 0.1596 0.6520
C30_6 C 0.68124(10) 0.17172(11) 0.56158(5)
C31_6 C 0.72425(10) 0.14559(10) 0.57490(5)
H21_6 H 0.7404 0.1116 0.5677
C32_6 C 0.74477(10) 0.16740(10) 0.59852(5)
C33_6 C 0.72127(11) 0.21480(10) 0.60830(5)
H22_6 H 0.7367 0.2321 0.6240
C34_6 C 0.67538(10) 0.23869(10) 0.59596(5)
C35_6 C 0.65703(11) 0.15166(10) 0.53579(5)
C36_6 C 0.68375(10) 0.11194(11) 0.52004(5)
H23_6 H 0.7191 0.0960 0.5258
C37_6 C 0.66015(11) 0.09472(11) 0.49600(5)
H24_6 H 0.6792 0.0664 0.4857
C38_6 C 0.61090(10) 0.11670(9) 0.48663(4)
C39_6 C 0.58375(12) 0.15641(11) 0.50142(5)
H25_6 H 0.5504 0.1741 0.4943
C40_6 C 0.60316(12) 0.17212(12) 0.52663(6)
H26_6 H 0.5808 0.1964 0.5378
C41_6 C 0.58737(11) 0.09791(10) 0.46039(5)
C42_6 C 0.55502(10) 0.33962(10) 0.61358(4)
H27_6 H 0.5151 0.3429 0.6104
C43_6 C 0.58546(10) 0.29511(10) 0.60245(5)
H28_6 H 0.5665 0.2683 0.5912
C44_6 C 0.64406(10) 0.28865(9) 0.60753(5)
C45_6 C 0.67072(9) 0.32770(9) 0.62373(5)
H29_6 H 0.7105 0.3234 0.6271
C46_6 C 0.64335(9) 0.37115(10) 0.63485(5)
H30_6 H 0.6636 0.3965 0.6464
C47_6 C 0.58377(9) 0.38082(9) 0.62989(4)
C48_6 C 0.55249(10) 0.42710(8) 0.64265(4)
O5_15 O 1.0000 1.0000 0.69395(4)
O16_4 O 0.91759(6) 0.96670(6) 0.65232(3)
H16_6 H 0.9805 0.9786 0.7043
O5_16 O 0.5000 -0.0000 0.94395(4)
O6_4 O 0.44029(6) 0.38799(6) 0.69630(3)
O9_4 O 0.38039(6) 0.45970(6) 0.70180(3)
H16_7 H 0.5214 0.0195 0.9543
N3_7 N 0.41643(8) 0.12215(7) 0.89332(4)
N4_7 N 0.28127(8) 0.34506(8) 0.82209(4)
C25_7 C 0.44791(11) 0.16393(13) 0.88004(5)
H17_7 H 0.4885 0.1630 0.8810
C26_7 C 0.42322(13) 0.20423(13) 0.86628(7)
H18_7 H 0.4460 0.2328 0.8579
C27_7 C 0.36217(11) 0.20632(10) 0.86348(4)
C28_7 C 0.33245(11) 0.16560(11) 0.87661(6)
H19_7 H 0.2919 0.1643 0.8755
C29_7 C 0.36214(10) 0.12536(10) 0.89193(5)
H20_7 H 0.3404 0.0985 0.9020
C30_7 C 0.32828(11) 0.31876(10) 0.81158(5)
C31_7 C 0.35441(10) 0.27575(10) 0.82490(5)
H21_7 H 0.3884 0.2596 0.8177
C32_7 C 0.33260(10) 0.25523(10) 0.84852(5)
C33_7 C 0.28520(10) 0.27873(11) 0.85830(5)
H22_7 H 0.2679 0.2633 0.8740
C34_7 C 0.26131(10) 0.32462(10) 0.84596(5)
C35_7 C 0.34834(10) 0.34297(11) 0.78579(5)
C36_7 C 0.38806(11) 0.31625(10) 0.77004(5)
H23_7 H 0.4040 0.2809 0.7758
C37_7 C 0.40528(11) 0.33985(11) 0.74600(5)
H24_7 H 0.4336 0.3208 0.7357
C38_7 C 0.38330(9) 0.38910(10) 0.73663(4)
C39_7 C 0.34359(11) 0.41625(12) 0.75142(5)
H25_7 H 0.3259 0.4496 0.7443
C40_7 C 0.32788(12) 0.39684(12) 0.77663(6)
H26_7 H 0.3036 0.4192 0.7878
C41_7 C 0.40209(10) 0.41263(11) 0.71039(5)
C42_7 C 0.16038(10) 0.44498(10) 0.86358(4)
H27_7 H 0.1571 0.4849 0.8604
C43_7 C 0.20489(10) 0.41454(10) 0.85245(5)
H28_7 H 0.2317 0.4335 0.8412
C44_7 C 0.21135(9) 0.35594(10) 0.85753(5)
C45_7 C 0.17230(9) 0.32928(9) 0.87373(5)
H29_7 H 0.1766 0.2895 0.8771
C46_7 C 0.12885(10) 0.35665(9) 0.88485(5)
H30_7 H 0.1035 0.3364 0.8964
C47_7 C 0.11918(9) 0.41623(9) 0.87989(4)
C48_7 C 0.07290(8) 0.44751(10) 0.89265(4)
O1_4 O 0.55971(6) 0.61201(6) 0.69630(3)
O2_4 O 0.61961(6) 0.54030(6) 0.70180(3)
O5_17 O 0.5000 1.0000 0.94395(4)
H1_7 H 0.4786 0.9805 0.9543
N1_7 N 0.58357(8) 0.87785(7) 0.89332(4)
N2_7 N 0.71873(8) 0.65494(8) 0.82209(4)
C1_7 C 0.55209(11) 0.83607(13) 0.88004(5)
H2_7 H 0.5115 0.8370 0.8810
C2_7 C 0.57678(13) 0.79577(13) 0.86628(7)
H3_7 H 0.5540 0.7672 0.8579
C3_7 C 0.63783(11) 0.79368(10) 0.86348(4)
C4_7 C 0.66755(11) 0.83440(11) 0.87661(6)
H4_7 H 0.7081 0.8357 0.8755
C5_7 C 0.63786(10) 0.87464(10) 0.89193(5)
H5_7 H 0.6596 0.9015 0.9020
C6_7 C 0.67172(11) 0.68124(10) 0.81158(5)
C7_7 C 0.64559(10) 0.72425(10) 0.82490(5)
H6_7 H 0.6116 0.7404 0.8177
C8_7 C 0.66740(10) 0.74477(10) 0.84852(5)
C9_7 C 0.71480(10) 0.72127(11) 0.85830(5)
H7_7 H 0.7321 0.7367 0.8740
C10_7 C 0.73869(10) 0.67538(10) 0.84596(5)
C11_7 C 0.65166(10) 0.65703(11) 0.78579(5)
C12_7 C 0.61194(11) 0.68375(10) 0.77004(5)
H8_7 H 0.5960 0.7191 0.7758
C13_7 C 0.59472(11) 0.66015(11) 0.74600(5)
H9_7 H 0.5664 0.6792 0.7357
C14_7 C 0.61670(9) 0.61090(10) 0.73663(4)
C15_7 C 0.65641(11) 0.58375(12) 0.75142(5)
H10_7 H 0.6741 0.5504 0.7443
C16_7 C 0.67212(12) 0.60316(12) 0.77663(6)
H11_7 H 0.6964 0.5808 0.7878
C17_7 C 0.59791(10) 0.58737(11) 0.71039(5)
C18_7 C 0.83962(10) 0.55502(10) 0.86358(4)
H12_7 H 0.8429 0.5151 0.8604
C19_7 C 0.79511(10) 0.58546(10) 0.85245(5)
H13_7 H 0.7683 0.5665 0.8412
C20_7 C 0.78865(9) 0.64406(10) 0.85753(5)
C21_7 C 0.82770(9) 0.67072(9) 0.87373(5)
H14_7 H 0.8234 0.7105 0.8771
C22_7 C 0.87115(10) 0.64335(9) 0.88485(5)
H15_7 H 0.8965 0.6636 0.8964
C23_7 C 0.88082(9) 0.58377(9) 0.87989(4)
C24_7 C 0.92710(8) 0.55249(10) 0.89265(4)
O5_18 O 0.5000 0.5000 0.69395(4)
H1_8 H 0.5195 0.4786 0.7043
N1_8 N 0.62215(7) 0.58357(8) 0.64332(4)
N2_8 N 0.84506(8) 0.71873(8) 0.57209(4)
C1_8 C 0.66393(13) 0.55209(11) 0.63004(5)
H2_8 H 0.6630 0.5115 0.6310
C2_8 C 0.70423(13) 0.57678(13) 0.61628(7)
H3_8 H 0.7328 0.5540 0.6079
C3_8 C 0.70632(10) 0.63783(11) 0.61348(4)
C4_8 C 0.66560(11) 0.66755(11) 0.62661(6)
H4_8 H 0.6643 0.7081 0.6255
C5_8 C 0.62536(10) 0.63786(10) 0.64193(5)
H5_8 H 0.5985 0.6596 0.6520
C6_8 C 0.81876(10) 0.67172(11) 0.56158(5)
C7_8 C 0.77575(10) 0.64559(10) 0.57490(5)
H6_8 H 0.7596 0.6116 0.5677
C8_8 C 0.75523(10) 0.66740(10) 0.59852(5)
C9_8 C 0.77873(11) 0.71480(10) 0.60830(5)
H7_8 H 0.7633 0.7321 0.6240
C10_8 C 0.82462(10) 0.73869(10) 0.59596(5)
C11_8 C 0.84297(11) 0.65166(10) 0.53579(5)
C12_8 C 0.81625(10) 0.61194(11) 0.52004(5)
H8_8 H 0.7809 0.5960 0.5258
C13_8 C 0.83985(11) 0.59472(11) 0.49600(5)
H9_8 H 0.8208 0.5664 0.4857
C14_8 C 0.88910(10) 0.61670(9) 0.48663(4)
C15_8 C 0.91625(12) 0.65641(11) 0.50142(5)
H10_8 H 0.9496 0.6741 0.4943
C16_8 C 0.89684(12) 0.67212(12) 0.52663(6)
H11_8 H 0.9192 0.6964 0.5378
C17_8 C 0.91263(11) 0.59791(10) 0.46039(5)
C18_8 C 0.94498(10) 0.83962(10) 0.61358(4)
H12_8 H 0.9849 0.8429 0.6104
C19_8 C 0.91454(10) 0.79511(10) 0.60245(5)
H13_8 H 0.9335 0.7683 0.5912
C20_8 C 0.85594(10) 0.78865(9) 0.60753(5)
C21_8 C 0.82928(9) 0.82770(9) 0.62373(5)
H14_8 H 0.7895 0.8234 0.6271
C22_8 C 0.85665(9) 0.87115(10) 0.63485(5)
H15_8 H 0.8364 0.8965 0.6464
C23_8 C 0.91623(9) 0.88082(9) 0.62989(4)
C24_8 C 0.94751(10) 0.92710(8) 0.64265(4)
H16_8 H 0.4805 0.5214 0.7043
N3_8 N 0.37785(7) 0.41643(8) 0.64332(4)
N4_8 N 0.15494(8) 0.28127(8) 0.57209(4)
C25_8 C 0.33607(13) 0.44791(11) 0.63004(5)
H17_8 H 0.3370 0.4885 0.6310
C26_8 C 0.29577(13) 0.42322(13) 0.61628(7)
H18_8 H 0.2672 0.4460 0.6079
C27_8 C 0.29368(10) 0.36217(11) 0.61348(4)
C28_8 C 0.33440(11) 0.33245(11) 0.62661(6)
H19_8 H 0.3357 0.2919 0.6255
C29_8 C 0.37464(10) 0.36214(10) 0.64193(5)
H20_8 H 0.4015 0.3404 0.6520
C30_8 C 0.18124(10) 0.32828(11) 0.56158(5)
C31_8 C 0.22425(10) 0.35441(10) 0.57490(5)
H21_8 H 0.2404 0.3884 0.5677
C32_8 C 0.24477(10) 0.33260(10) 0.59852(5)
C33_8 C 0.22127(11) 0.28520(10) 0.60830(5)
H22_8 H 0.2367 0.2679 0.6240
C34_8 C 0.17538(10) 0.26131(10) 0.59596(5)
C35_8 C 0.15703(11) 0.34834(10) 0.53579(5)
C36_8 C 0.18375(10) 0.38806(11) 0.52004(5)
H23_8 H 0.2191 0.4040 0.5258
C37_8 C 0.16015(11) 0.40528(11) 0.49600(5)
H24_8 H 0.1792 0.4336 0.4857
C38_8 C 0.11090(10) 0.38330(9) 0.48663(4)
C39_8 C 0.08375(12) 0.34359(11) 0.50142(5)
H25_8 H 0.0504 0.3259 0.4943
C40_8 C 0.10316(12) 0.32788(12) 0.52663(6)
H26_8 H 0.0808 0.3036 0.5378
C41_8 C 0.08737(11) 0.40209(10) 0.46039(5)
C42_8 C 0.05502(10) 0.16038(10) 0.61358(4)
H27_8 H 0.0151 0.1571 0.6104
C43_8 C 0.08546(10) 0.20489(10) 0.60245(5)
H28_8 H 0.0665 0.2317 0.5912
C44_8 C 0.14406(10) 0.21135(9) 0.60753(5)
C45_8 C 0.17072(9) 0.17230(9) 0.62373(5)
H29_8 H 0.2105 0.1766 0.6271
C46_8 C 0.14335(9) 0.12885(10) 0.63485(5)
H30_8 H 0.1636 0.1035 0.6464
C47_8 C 0.08377(9) 0.11918(9) 0.62989(4)
C48_8 C 0.05249(10) 0.07290(8) 0.64265(4)
loop_
_geom_bond_atom_site_label_1
_geom_bond_atom_site_label_2
_geom_bond_site_symmetry_1
_geom_bond_site_symmetry_2
Co8 O12 1_555 1_555
O5 H1 1_555 1_555
Co2 O5 1_555 1_555
Co3 O6 1_555 1_555
Co6 O15 1_555 1_555
O6 C41 1_555 1_555
O8 Co2 1_555 1_555
O9 Co3 1_555 1_555
O11 Co2 1_555 1_555
O14 Co2 1_555 1_555
O15 C48 1_555 1_555
N3 Co2 1_555 1_555
N4 C30 1_555 1_555
C25 N3 1_555 1_555
H17 C25 1_555 1_555
C26 C25 1_555 1_555
H18 C26 1_555 1_555
C27 C26 1_555 1_555
C28 C27 1_555 1_555
H19 C28 1_555 1_555
C29 N3 1_555 1_555
H20 C29 1_555 1_555
C30 C31 1_555 1_555
C31 H21 1_555 1_555
C32 C27 1_555 1_555
C33 C32 1_555 1_555
H22 C33 1_555 1_555
C34 N4 1_555 1_555
C35 C30 1_555 1_555
C36 C35 1_555 1_555
H23 C36 1_555 1_555
C37 C36 1_555 1_555
H24 C37 1_555 1_555
C38 C37 1_555 1_555
C39 C38 1_555 1_555
H25 C39 1_555 1_555
C40 C35 1_555 1_555
H26 C40 1_555 1_555
C41 O9 1_555 1_555
C42 H27 1_555 1_555
C43 C42 1_555 1_555
H28 C43 1_555 1_555
C44 C34 1_555 1_555
C45 C44 1_555 1_555
H29 C45 1_555 1_555
C46 C45 1_555 1_555
H30 C46 1_555 1_555
C47 C42 1_555 1_555
C48 C47 1_555 1_555
C28 C29 1_555 1_555
C31 C32 1_555 1_555
C33 C34 1_555 1_555
C38 C41 1_555 1_555
C39 C40 1_555 1_555
C43 C44 1_555 1_555
C46 C47 1_555 1_555
Co1 O5_2 1_555 1_555
O1 C17 1_555 1_555
O2 C17 1_555 1_555
O4 C24 1_555 1_555
N1 Co1 1_555 1_555
N2 C6 1_555 1_555
C1 N1 1_555 1_555
H2 C1 1_555 1_555
C2 C1 1_555 1_555
H3 C2 1_555 1_555
C3 C2 1_555 1_555
C4 C3 1_555 1_555
H4 C4 1_555 1_555
C5 N1 1_555 1_555
H5 C5 1_555 1_555
C6 C7 1_555 1_555
C7 H6 1_555 1_555
C8 C3 1_555 1_555
C9 C8 1_555 1_555
H7 C9 1_555 1_555
C10 N2 1_555 1_555
C11 C6 1_555 1_555
C12 C11 1_555 1_555
H8 C12 1_555 1_555
C13 C12 1_555 1_555
H9 C13 1_555 1_555
C14 C13 1_555 1_555
C15 C14 1_555 1_555
H10 C15 1_555 1_555
C16 C11 1_555 1_555
H11 C16 1_555 1_555
C17 C14 1_555 1_555
C18 H12 1_555 1_555
C19 C18 1_555 1_555
H13 C19 1_555 1_555
C20 C10 1_555 1_555
C21 C20 1_555 1_555
H14 C21 1_555 1_555
C22 C21 1_555 1_555
H15 C22 1_555 1_555
C23 C18 1_555 1_555
C24 C23 1_555 1_555
Co4 O1 1_555 1_555
Co8 O4 1_555 1_555
O7 Co1 1_555 1_555
O10 Co1 1_555 1_555
O13 Co1 1_555 1_555
H16 O5_2 1_555 1_555
O2 Co4 1_555 1_555
C4 C5 1_555 1_555
C7 C8 1_555 1_555
C9 C10 1_555 1_555
C15 C16 1_555 1_555
C19 C20 1_555 1_555
C22 C23 1_555 1_555
Co6 O3 1_555 1_555
Co5 O3_2 1_555 1_555
Co1_2 O5_3 1_555 1_555
O4_2 C24_2 1_555 1_555
O5_3 H1_2 1_555 1_555
N1_2 Co1_2 1_555 1_555
N2_2 C6_2 1_555 1_555
C1_2 N1_2 1_555 1_555
H2_2 C1_2 1_555 1_555
C2_2 C1_2 1_555 1_555
H3_2 C2_2 1_555 1_555
C3_2 C2_2 1_555 1_555
C4_2 C3_2 1_555 1_555
H4_2 C4_2 1_555 1_555
C5_2 N1_2 1_555 1_555
H5_2 C5_2 1_555 1_555
C6_2 C7_2 1_555 1_555
C7_2 H6_2 1_555 1_555
C8_2 C3_2 1_555 1_555
C9_2 C8_2 1_555 1_555
H7_2 C9_2 1_555 1_555
C10_2 N2_2 1_555 1_555
C11_2 C6_2 1_555 1_555
C12_2 C11_2 1_555 1_555
H8_2 C12_2 1_555 1_555
C16_2 C11_2 1_555 1_555
H11_2 C16_2 1_555 1_555
C18_2 H12_2 1_555 1_555
C19_2 C18_2 1_555 1_555
H13_2 C19_2 1_555 1_555
C20_2 C10_2 1_555 1_555
C21_2 C20_2 1_555 1_555
H14_2 C21_2 1_555 1_555
C22_2 C21_2 1_555 1_555
H15_2 C22_2 1_555 1_555
C23_2 C18_2 1_555 1_555
C24_2 C23_2 1_555 1_555
Co2_2 O5_3 1_555 1_555
O7_2 Co1_2 1_555 1_555
O8_2 Co2_2 1_555 1_555
O10_2 Co1_2 1_555 1_555
O11_2 Co2_2 1_555 1_555
O13_2 Co1_2 1_555 1_555
O14_2 Co2_2 1_555 1_555
O15_2 C48_2 1_555 1_555
O16_2 Co2_2 1_555 1_555
O17_2 Co1_2 1_555 1_555
H16_2 O5_3 1_555 1_555
N3_2 Co2_2 1_555 1_555
N4_2 C30_2 1_555 1_555
C25_2 N3_2 1_555 1_555
H17_2 C25_2 1_555 1_555
C26_2 C25_2 1_555 1_555
H18_2 C26_2 1_555 1_555
C27_2 C26_2 1_555 1_555
C28_2 C27_2 1_555 1_555
H19_2 C28_2 1_555 1_555
C29_2 N3_2 1_555 1_555
H20_2 C29_2 1_555 1_555
C30_2 C31_2 1_555 1_555
C31_2 H21_2 1_555 1_555
C32_2 C27_2 1_555 1_555
C33_2 C32_2 1_555 1_555
H22_2 C33_2 1_555 1_555
C34_2 N4_2 1_555 1_555
C35_2 C30_2 1_555 1_555
C36_2 C35_2 1_555 1_555
H23_2 C36_2 1_555 1_555
C40_2 C35_2 1_555 1_555
H26_2 C40_2 1_555 1_555
C42_2 H27_2 1_555 1_555
C43_2 C42_2 1_555 1_555
H28_2 C43_2 1_555 1_555
C44_2 C34_2 1_555 1_555
C45_2 C44_2 1_555 1_555
H29_2 C45_2 1_555 1_555
C46_2 C45_2 1_555 1_555
H30_2 C46_2 1_555 1_555
C47_2 C42_2 1_555 1_555
C48_2 C47_2 1_555 1_555
C4_2 C5_2 1_555 1_555
C7_2 C8_2 1_555 1_555
C9_2 C10_2 1_555 1_555
C15_2 C16_2 1_555 1_555
C19_2 C20_2 1_555 1_555
C22_2 C23_2 1_555 1_555
C28_2 C29_2 1_555 1_555
C31_2 C32_2 1_555 1_555
C33_2 C34_2 1_555 1_555
C39_2 C40_2 1_555 1_555
C43_2 C44_2 1_555 1_555
C46_2 C47_2 1_555 1_555
O7 C17_2 1_555 1_555
O10 C17_2 1_555 1_555
H9_2 C13_2 1_555 1_555
C14_2 C13_2 1_555 1_555
C17_2 C14_2 1_555 1_555
O8 C41_2 1_555 1_555
H24_2 C37_2 1_555 1_555
C38_2 C37_2 1_555 1_555
C41_2 O11 1_555 1_555
C38_2 C41_2 1_555 1_555
Co7 O12_2 1_555 1_555
Co1_3 O5_4 1_555 1_555
O1_2 C17_3 1_555 1_555
O2_2 C17_3 1_555 1_555
O4_3 C24_3 1_555 1_555
N1_3 Co1_3 1_555 1_555
N2_3 C6_3 1_555 1_555
C1_3 N1_3 1_555 1_555
H2_3 C1_3 1_555 1_555
C2_3 C1_3 1_555 1_555
H3_3 C2_3 1_555 1_555
C3_3 C2_3 1_555 1_555
C4_3 C3_3 1_555 1_555
H4_3 C4_3 1_555 1_555
C5_3 N1_3 1_555 1_555
H5_3 C5_3 1_555 1_555
C6_3 C7_3 1_555 1_555
C7_3 H6_3 1_555 1_555
C8_3 C3_3 1_555 1_555
C9_3 C8_3 1_555 1_555
H7_3 C9_3 1_555 1_555
C10_3 N2_3 1_555 1_555
C11_3 C6_3 1_555 1_555
C12_3 C11_3 1_555 1_555
H8_3 C12_3 1_555 1_555
C13_3 C12_3 1_555 1_555
H9_3 C13_3 1_555 1_555
C14_3 C13_3 1_555 1_555
C15_3 C14_3 1_555 1_555
H10_3 C15_3 1_555 1_555
C16_3 C11_3 1_555 1_555
H11_3 C16_3 1_555 1_555
C17_3 C14_3 1_555 1_555
C18_3 H12_3 1_555 1_555
C19_3 C18_3 1_555 1_555
H13_3 C19_3 1_555 1_555
C20_3 C10_3 1_555 1_555
C21_3 C20_3 1_555 1_555
H14_3 C21_3 1_555 1_555
C22_3 C21_3 1_555 1_555
H15_3 C22_3 1_555 1_555
C23_3 C18_3 1_555 1_555
C24_3 C23_3 1_555 1_555
Co5 O1_2 1_555 1_555
Co7_2 O4_3 1_555 1_555
O7_3 Co1_3 1_555 1_555
O10_3 Co1_3 1_555 1_555
O13_3 Co1_3 1_555 1_555
H16_3 O5_4 1_555 1_555
O2_2 Co5 1_555 1_555
C4_3 C5_3 1_555 1_555
C7_3 C8_3 1_555 1_555
C9_3 C10_3 1_555 1_555
C15_3 C16_3 1_555 1_555
C19_3 C20_3 1_555 1_555
C22_3 C23_3 1_555 1_555
Co5_2 O3_3 1_555 1_555
Co7_2 O12_3 1_555 1_555
O5_5 H1_3 1_555 1_555
Co2_3 O5_5 1_555 1_555
Co7 O6_2 1_555 1_555
Co5_2 O15_3 1_555 1_555
O6_2 C41_3 1_555 1_555
O8_3 Co2_3 1_555 1_555
O9_2 Co7 1_555 1_555
O11_3 Co2_3 1_555 1_555
O14_3 Co2_3 1_555 1_555
O15_3 C48_3 1_555 1_555
N3_3 Co2_3 1_555 1_555
N4_3 C30_3 1_555 1_555
C25_3 N3_3 1_555 1_555
H17_3 C25_3 1_555 1_555
C26_3 C25_3 1_555 1_555
H18_3 C26_3 1_555 1_555
C27_3 C26_3 1_555 1_555
C28_3 C27_3 1_555 1_555
H19_3 C28_3 1_555 1_555
C29_3 N3_3 1_555 1_555
H20_3 C29_3 1_555 1_555
C30_3 C31_3 1_555 1_555
C31_3 H21_3 1_555 1_555
C32_3 C27_3 1_555 1_555
C33_3 C32_3 1_555 1_555
H22_3 C33_3 1_555 1_555
C34_3 N4_3 1_555 1_555
C35_3 C30_3 1_555 1_555
C36_3 C35_3 1_555 1_555
H23_3 C36_3 1_555 1_555
C37_3 C36_3 1_555 1_555
H24_3 C37_3 1_555 1_555
C38_3 C37_3 1_555 1_555
C39_3 C38_3 1_555 1_555
H25_3 C39_3 1_555 1_555
C40_3 C35_3 1_555 1_555
H26_3 C40_3 1_555 1_555
C41_3 O9_2 1_555 1_555
C42_3 H27_3 1_555 1_555
C43_3 C42_3 1_555 1_555
H28_3 C43_3 1_555 1_555
C44_3 C34_3 1_555 1_555
C45_3 C44_3 1_555 1_555
H29_3 C45_3 1_555 1_555
C46_3 C45_3 1_555 1_555
H30_3 C46_3 1_555 1_555
C47_3 C42_3 1_555 1_555
C48_3 C47_3 1_555 1_555
C28_3 C29_3 1_555 1_555
C31_3 C32_3 1_555 1_555
C33_3 C34_3 1_555 1_555
C38_3 C41_3 1_555 1_555
C39_3 C40_3 1_555 1_555
C43_3 C44_3 1_555 1_555
C46_3 C47_3 1_555 1_555
Co5 O5_6 1_555 1_555
O13_2 C24_4 1_555 1_555
O16_2 C24_4 1_555 1_555
N1_4 Co5 1_555 1_555
N2_4 C6_4 1_555 1_555
C1_4 N1_4 1_555 1_555
H2_4 C1_4 1_555 1_555
C2_4 C1_4 1_555 1_555
H3_4 C2_4 1_555 1_555
C3_4 C2_4 1_555 1_555
C4_4 C3_4 1_555 1_555
H4_4 C4_4 1_555 1_555
C5_4 N1_4 1_555 1_555
H5_4 C5_4 1_555 1_555
C6_4 C7_4 1_555 1_555
C7_4 H6_4 1_555 1_555
C8_4 C3_4 1_555 1_555
C9_4 C8_4 1_555 1_555
H7_4 C9_4 1_555 1_555
C10_4 N2_4 1_555 1_555
C11_4 C6_4 1_555 1_555
C12_4 C11_4 1_555 1_555
H8_4 C12_4 1_555 1_555
C16_4 C11_4 1_555 1_555
H11_4 C16_4 1_555 1_555
C18_4 H12_4 1_555 1_555
C19_4 C18_4 1_555 1_555
H13_4 C19_4 1_555 1_555
C20_4 C10_4 1_555 1_555
C21_4 C20_4 1_555 1_555
H14_4 C21_4 1_555 1_555
C22_4 C21_4 1_555 1_555
H15_4 C22_4 1_555 1_555
C23_4 C18_4 1_555 1_555
C24_4 C23_4 1_555 1_555
C4_4 C5_4 1_555 1_555
C7_4 C8_4 1_555 1_555
C9_4 C10_4 1_555 1_555
C15_4 C16_4 1_555 1_555
C19_4 C20_4 1_555 1_555
C22_4 C23_4 1_555 1_555
O1_3 C17_4 1_555 1_555
O2_3 C17_4 1_555 1_555
H9_4 C13_4 1_555 1_555
C14_4 C13_4 1_555 1_555
C17_4 C14_4 1_555 1_555
Co8 O1_3 1_555 1_555
O2_3 Co8 1_555 1_555
O5_7 H1_4 1_555 1_555
H16_4 O5_8 1_555 1_555
Co7 O5_9 1_555 1_555
O14_2 C48_4 1_555 1_555
O17_2 C48_4 1_555 1_555
N3_4 Co7 1_555 1_555
N4_4 C30_4 1_555 1_555
C25_4 N3_4 1_555 1_555
H17_4 C25_4 1_555 1_555
C26_4 C25_4 1_555 1_555
H18_4 C26_4 1_555 1_555
C27_4 C26_4 1_555 1_555
C28_4 C27_4 1_555 1_555
H19_4 C28_4 1_555 1_555
C29_4 N3_4 1_555 1_555
H20_4 C29_4 1_555 1_555
C30_4 C31_4 1_555 1_555
C31_4 H21_4 1_555 1_555
C32_4 C27_4 1_555 1_555
C33_4 C32_4 1_555 1_555
H22_4 C33_4 1_555 1_555
C34_4 N4_4 1_555 1_555
C35_4 C30_4 1_555 1_555
C36_4 C35_4 1_555 1_555
H23_4 C36_4 1_555 1_555
C40_4 C35_4 1_555 1_555
H26_4 C40_4 1_555 1_555
C42_4 H27_4 1_555 1_555
C43_4 C42_4 1_555 1_555
H28_4 C43_4 1_555 1_555
C44_4 C34_4 1_555 1_555
C45_4 C44_4 1_555 1_555
H29_4 C45_4 1_555 1_555
C46_4 C45_4 1_555 1_555
H30_4 C46_4 1_555 1_555
C47_4 C42_4 1_555 1_555
C48_4 C47_4 1_555 1_555
C28_4 C29_4 1_555 1_555
C31_4 C32_4 1_555 1_555
C33_4 C34_4 1_555 1_555
C39_4 C40_4 1_555 1_555
C43_4 C44_4 1_555 1_555
C46_4 C47_4 1_555 1_555
Co6 O6_3 1_555 1_555
O6_3 C41_4 1_555 1_555
O9_3 Co6 1_555 1_555
H24_4 C37_4 1_555 1_555
C38_4 C37_4 1_555 1_555
C41_4 O9_3 1_555 1_555
C38_4 C41_4 1_555 1_555
Co7_2 O5_10 1_555 1_555
O7_2 C41_5 1_555 1_555
O8_4 Co7_2 1_555 1_555
O11_4 Co7_2 1_555 1_555
O14_3 C48_5 1_555 1_555
O17_3 C48_5 1_555 1_555
H16_5 O5_10 1_555 1_555
N3_5 Co7_2 1_555 1_555
N4_5 C30_5 1_555 1_555
C25_5 N3_5 1_555 1_555
H17_5 C25_5 1_555 1_555
C26_5 C25_5 1_555 1_555
H18_5 C26_5 1_555 1_555
C27_5 C26_5 1_555 1_555
C28_5 C27_5 1_555 1_555
H19_5 C28_5 1_555 1_555
C29_5 N3_5 1_555 1_555
H20_5 C29_5 1_555 1_555
C30_5 C31_5 1_555 1_555
C31_5 H21_5 1_555 1_555
C32_5 C27_5 1_555 1_555
C33_5 C32_5 1_555 1_555
H22_5 C33_5 1_555 1_555
C34_5 N4_5 1_555 1_555
C35_5 C30_5 1_555 1_555
C36_5 C35_5 1_555 1_555
H23_5 C36_5 1_555 1_555
C37_5 C36_5 1_555 1_555
H24_5 C37_5 1_555 1_555
C38_5 C37_5 1_555 1_555
C39_5 C38_5 1_555 1_555
H25_5 C39_5 1_555 1_555
C40_5 C35_5 1_555 1_555
H26_5 C40_5 1_555 1_555
C41_5 O10_2 1_555 1_555
C42_5 H27_5 1_555 1_555
C43_5 C42_5 1_555 1_555
H28_5 C43_5 1_555 1_555
C44_5 C34_5 1_555 1_555
C45_5 C44_5 1_555 1_555
H29_5 C45_5 1_555 1_555
C46_5 C45_5 1_555 1_555
H30_5 C46_5 1_555 1_555
C47_5 C42_5 1_555 1_555
C48_5 C47_5 1_555 1_555
C28_5 C29_5 1_555 1_555
C31_5 C32_5 1_555 1_555
C33_5 C34_5 1_555 1_555
C38_5 C41_5 1_555 1_555
C39_5 C40_5 1_555 1_555
C43_5 C44_5 1_555 1_555
C46_5 C47_5 1_555 1_555
Co5_2 O5_11 1_555 1_555
O8_2 C17_5 1_555 1_555
O11_2 C17_5 1_555 1_555
O13_3 C24_5 1_555 1_555
O16_3 C24_5 1_555 1_555
O5_11 H1_5 1_555 1_555
N1_5 Co5_2 1_555 1_555
N2_5 C6_5 1_555 1_555
C1_5 N1_5 1_555 1_555
H2_5 C1_5 1_555 1_555
C2_5 C1_5 1_555 1_555
H3_5 C2_5 1_555 1_555
C3_5 C2_5 1_555 1_555
C4_5 C3_5 1_555 1_555
H4_5 C4_5 1_555 1_555
C5_5 N1_5 1_555 1_555
H5_5 C5_5 1_555 1_555
C6_5 C7_5 1_555 1_555
C7_5 H6_5 1_555 1_555
C8_5 C3_5 1_555 1_555
C9_5 C8_5 1_555 1_555
H7_5 C9_5 1_555 1_555
C10_5 N2_5 1_555 1_555
C11_5 C6_5 1_555 1_555
C12_5 C11_5 1_555 1_555
H8_5 C12_5 1_555 1_555
C13_5 C12_5 1_555 1_555
H9_5 C13_5 1_555 1_555
C14_5 C13_5 1_555 1_555
C15_5 C14_5 1_555 1_555
H10_5 C15_5 1_555 1_555
C16_5 C11_5 1_555 1_555
H11_5 C16_5 1_555 1_555
C17_5 C14_5 1_555 1_555
C18_5 H12_5 1_555 1_555
C19_5 C18_5 1_555 1_555
H13_5 C19_5 1_555 1_555
C20_5 C10_5 1_555 1_555
C21_5 C20_5 1_555 1_555
H14_5 C21_5 1_555 1_555
C22_5 C21_5 1_555 1_555
H15_5 C22_5 1_555 1_555
C23_5 C18_5 1_555 1_555
C24_5 C23_5 1_555 1_555
O7_4 Co5_2 1_555 1_555
O10_4 Co5_2 1_555 1_555
C4_5 C5_5 1_555 1_555
C7_5 C8_5 1_555 1_555
C9_5 C10_5 1_555 1_555
C15_5 C16_5 1_555 1_555
C19_5 C20_5 1_555 1_555
C22_5 C23_5 1_555 1_555
O5_12 H1_6 1_555 1_555
Co3 O5_13 1_555 1_555
O7_4 C17_6 1_555 1_555
O10_4 C17_6 1_555 1_555
O3_4 C24_6 1_555 1_555
O4_4 C24_6 1_555 1_555
N1_6 Co3 1_555 1_555
N2_6 C6_6 1_555 1_555
C1_6 N1_6 1_555 1_555
H2_6 C1_6 1_555 1_555
C2_6 C1_6 1_555 1_555
H3_6 C2_6 1_555 1_555
C3_6 C2_6 1_555 1_555
C4_6 C3_6 1_555 1_555
H4_6 C4_6 1_555 1_555
C5_6 N1_6 1_555 1_555
H5_6 C5_6 1_555 1_555
C6_6 C7_6 1_555 1_555
C7_6 H6_6 1_555 1_555
C8_6 C3_6 1_555 1_555
C9_6 C8_6 1_555 1_555
H7_6 C9_6 1_555 1_555
C10_6 N2_6 1_555 1_555
C11_6 C6_6 1_555 1_555
C12_6 C11_6 1_555 1_555
H8_6 C12_6 1_555 1_555
C13_6 C12_6 1_555 1_555
H9_6 C13_6 1_555 1_555
C14_6 C13_6 1_555 1_555
C15_6 C14_6 1_555 1_555
H10_6 C15_6 1_555 1_555
C16_6 C11_6 1_555 1_555
H11_6 C16_6 1_555 1_555
C17_6 C14_6 1_555 1_555
C18_6 H12_6 1_555 1_555
C19_6 C18_6 1_555 1_555
H13_6 C19_6 1_555 1_555
C20_6 C10_6 1_555 1_555
C21_6 C20_6 1_555 1_555
H14_6 C21_6 1_555 1_555
C22_6 C21_6 1_555 1_555
H15_6 C22_6 1_555 1_555
C23_6 C18_6 1_555 1_555
C24_6 C23_6 1_555 1_555
Co5_3 O3_4 1_555 1_555
Co7_3 O4_4 1_555 1_555
O13_4 Co3 1_555 1_555
C4_6 C5_6 1_555 1_555
C7_6 C8_6 1_555 1_555
C9_6 C10_6 1_555 1_555
C15_6 C16_6 1_555 1_555
C19_6 C20_6 1_555 1_555
C22_6 C23_6 1_555 1_555
Co4 O5_14 1_555 1_555
Co5_3 O15_4 1_555 1_555
Co7_3 O12_4 1_555 1_555
O8_4 C41_6 1_555 1_555
O12_4 C48_6 1_555 1_555
O14_4 Co4 1_555 1_555
O15_4 C48_6 1_555 1_555
N3_6 Co4 1_555 1_555
N4_6 C30_6 1_555 1_555
C25_6 N3_6 1_555 1_555
H17_6 C25_6 1_555 1_555
C26_6 C25_6 1_555 1_555
H18_6 C26_6 1_555 1_555
C27_6 C26_6 1_555 1_555
C28_6 C27_6 1_555 1_555
H19_6 C28_6 1_555 1_555
C29_6 N3_6 1_555 1_555
H20_6 C29_6 1_555 1_555
C30_6 C31_6 1_555 1_555
C31_6 H21_6 1_555 1_555
C32_6 C27_6 1_555 1_555
C33_6 C32_6 1_555 1_555
H22_6 C33_6 1_555 1_555
C34_6 N4_6 1_555 1_555
C35_6 C30_6 1_555 1_555
C36_6 C35_6 1_555 1_555
H23_6 C36_6 1_555 1_555
C37_6 C36_6 1_555 1_555
H24_6 C37_6 1_555 1_555
C38_6 C37_6 1_555 1_555
C39_6 C38_6 1_555 1_555
H25_6 C39_6 1_555 1_555
C40_6 C35_6 1_555 1_555
H26_6 C40_6 1_555 1_555
C41_6 O11_4 1_555 1_555
C42_6 H27_6 1_555 1_555
C43_6 C42_6 1_555 1_555
H28_6 C43_6 1_555 1_555
C44_6 C34_6 1_555 1_555
C45_6 C44_6 1_555 1_555
H29_6 C45_6 1_555 1_555
C46_6 C45_6 1_555 1_555
H30_6 C46_6 1_555 1_555
C47_6 C42_6 1_555 1_555
C48_6 C47_6 1_555 1_555
C28_6 C29_6 1_555 1_555
C31_6 C32_6 1_555 1_555
C33_6 C34_6 1_555 1_555
C38_6 C41_6 1_555 1_555
C39_6 C40_6 1_555 1_555
C43_6 C44_6 1_555 1_555
C46_6 C47_6 1_555 1_555
H16_6 O5_15 1_555 1_555
Co8 O5_16 1_555 1_555
Co7_3 O6_4 1_555 1_555
O6_4 C41_7 1_555 1_555
O9_4 Co7_3 1_555 1_555
O14 C48_7 1_555 1_555
O17 C48_7 1_555 1_555
H16_7 O5_16 1_555 1_555
N3_7 Co8 1_555 1_555
N4_7 C30_7 1_555 1_555
C25_7 N3_7 1_555 1_555
H17_7 C25_7 1_555 1_555
C26_7 C25_7 1_555 1_555
H18_7 C26_7 1_555 1_555
C27_7 C26_7 1_555 1_555
C28_7 C27_7 1_555 1_555
H19_7 C28_7 1_555 1_555
C29_7 N3_7 1_555 1_555
H20_7 C29_7 1_555 1_555
C30_7 C31_7 1_555 1_555
C31_7 H21_7 1_555 1_555
C32_7 C27_7 1_555 1_555
C33_7 C32_7 1_555 1_555
H22_7 C33_7 1_555 1_555
C34_7 N4_7 1_555 1_555
C35_7 C30_7 1_555 1_555
C36_7 C35_7 1_555 1_555
H23_7 C36_7 1_555 1_555
C37_7 C36_7 1_555 1_555
H24_7 C37_7 1_555 1_555
C38_7 C37_7 1_555 1_555
C39_7 C38_7 1_555 1_555
H25_7 C39_7 1_555 1_555
C40_7 C35_7 1_555 1_555
H26_7 C40_7 1_555 1_555
C41_7 O9_4 1_555 1_555
C42_7 H27_7 1_555 1_555
C43_7 C42_7 1_555 1_555
H28_7 C43_7 1_555 1_555
C44_7 C34_7 1_555 1_555
C45_7 C44_7 1_555 1_555
H29_7 C45_7 1_555 1_555
C46_7 C45_7 1_555 1_555
H30_7 C46_7 1_555 1_555
C47_7 C42_7 1_555 1_555
C48_7 C47_7 1_555 1_555
C28_7 C29_7 1_555 1_555
C31_7 C32_7 1_555 1_555
C33_7 C34_7 1_555 1_555
C38_7 C41_7 1_555 1_555
C39_7 C40_7 1_555 1_555
C43_7 C44_7 1_555 1_555
C46_7 C47_7 1_555 1_555
Co6 O5_17 1_555 1_555
O1_4 C17_7 1_555 1_555
O2_4 C17_7 1_555 1_555
O13 C24_7 1_555 1_555
O16 C24_7 1_555 1_555
O5_17 H1_7 1_555 1_555
N1_7 Co6 1_555 1_555
N2_7 C6_7 1_555 1_555
C1_7 N1_7 1_555 1_555
H2_7 C1_7 1_555 1_555
C2_7 C1_7 1_555 1_555
H3_7 C2_7 1_555 1_555
C3_7 C2_7 1_555 1_555
C4_7 C3_7 1_555 1_555
H4_7 C4_7 1_555 1_555
C5_7 N1_7 1_555 1_555
H5_7 C5_7 1_555 1_555
C6_7 C7_7 1_555 1_555
C7_7 H6_7 1_555 1_555
C8_7 C3_7 1_555 1_555
C9_7 C8_7 1_555 1_555
H7_7 C9_7 1_555 1_555
C10_7 N2_7 1_555 1_555
C11_7 C6_7 1_555 1_555
C12_7 C11_7 1_555 1_555
H8_7 C12_7 1_555 1_555
C13_7 C12_7 1_555 1_555
H9_7 C13_7 1_555 1_555
C14_7 C13_7 1_555 1_555
C15_7 C14_7 1_555 1_555
H10_7 C15_7 1_555 1_555
C16_7 C11_7 1_555 1_555
H11_7 C16_7 1_555 1_555
C17_7 C14_7 1_555 1_555
C18_7 H12_7 1_555 1_555
C19_7 C18_7 1_555 1_555
H13_7 C19_7 1_555 1_555
C20_7 C10_7 1_555 1_555
C21_7 C20_7 1_555 1_555
H14_7 C21_7 1_555 1_555
C22_7 C21_7 1_555 1_555
H15_7 C22_7 1_555 1_555
C23_7 C18_7 1_555 1_555
C24_7 C23_7 1_555 1_555
Co5_3 O1_4 1_555 1_555
O2_4 Co5_3 1_555 1_555
C4_7 C5_7 1_555 1_555
C7_7 C8_7 1_555 1_555
C9_7 C10_7 1_555 1_555
C15_7 C16_7 1_555 1_555
C19_7 C20_7 1_555 1_555
C22_7 C23_7 1_555 1_555
Co5_3 O5_18 1_555 1_555
O8_3 C17_8 1_555 1_555
O11_3 C17_8 1_555 1_555
O16_4 C24_8 1_555 1_555
O5_18 H1_8 1_555 1_555
N1_8 Co5_3 1_555 1_555
N2_8 C6_8 1_555 1_555
C1_8 N1_8 1_555 1_555
H2_8 C1_8 1_555 1_555
C2_8 C1_8 1_555 1_555
H3_8 C2_8 1_555 1_555
C3_8 C2_8 1_555 1_555
C4_8 C3_8 1_555 1_555
H4_8 C4_8 1_555 1_555
C5_8 N1_8 1_555 1_555
H5_8 C5_8 1_555 1_555
C6_8 C7_8 1_555 1_555
C7_8 H6_8 1_555 1_555
C8_8 C3_8 1_555 1_555
C9_8 C8_8 1_555 1_555
H7_8 C9_8 1_555 1_555
C10_8 N2_8 1_555 1_555
C11_8 C6_8 1_555 1_555
C12_8 C11_8 1_555 1_555
H8_8 C12_8 1_555 1_555
C13_8 C12_8 1_555 1_555
H9_8 C13_8 1_555 1_555
C14_8 C13_8 1_555 1_555
C15_8 C14_8 1_555 1_555
H10_8 C15_8 1_555 1_555
C16_8 C11_8 1_555 1_555
H11_8 C16_8 1_555 1_555
C17_8 C14_8 1_555 1_555
C18_8 H12_8 1_555 1_555
C19_8 C18_8 1_555 1_555
H13_8 C19_8 1_555 1_555
C20_8 C10_8 1_555 1_555
C21_8 C20_8 1_555 1_555
H14_8 C21_8 1_555 1_555
C22_8 C21_8 1_555 1_555
H15_8 C22_8 1_555 1_555
C23_8 C18_8 1_555 1_555
C24_8 C23_8 1_555 1_555
Co7_3 O5_18 1_555 1_555
O7_3 C41_8 1_555 1_555
O17_4 C48_8 1_555 1_555
H16_8 O5_18 1_555 1_555
N3_8 Co7_3 1_555 1_555
N4_8 C30_8 1_555 1_555
C25_8 N3_8 1_555 1_555
H17_8 C25_8 1_555 1_555
C26_8 C25_8 1_555 1_555
H18_8 C26_8 1_555 1_555
C27_8 C26_8 1_555 1_555
C28_8 C27_8 1_555 1_555
H19_8 C28_8 1_555 1_555
C29_8 N3_8 1_555 1_555
H20_8 C29_8 1_555 1_555
C30_8 C31_8 1_555 1_555
C31_8 H21_8 1_555 1_555
C32_8 C27_8 1_555 1_555
C33_8 C32_8 1_555 1_555
H22_8 C33_8 1_555 1_555
C34_8 N4_8 1_555 1_555
C35_8 C30_8 1_555 1_555
C36_8 C35_8 1_555 1_555
H23_8 C36_8 1_555 1_555
C37_8 C36_8 1_555 1_555
H24_8 C37_8 1_555 1_555
C38_8 C37_8 1_555 1_555
C39_8 C38_8 1_555 1_555
H25_8 C39_8 1_555 1_555
C40_8 C35_8 1_555 1_555
H26_8 C40_8 1_555 1_555
C41_8 O10_3 1_555 1_555
C42_8 H27_8 1_555 1_555
C43_8 C42_8 1_555 1_555
H28_8 C43_8 1_555 1_555
C44_8 C34_8 1_555 1_555
C45_8 C44_8 1_555 1_555
H29_8 C45_8 1_555 1_555
C46_8 C45_8 1_555 1_555
H30_8 C46_8 1_555 1_555
C47_8 C42_8 1_555 1_555
C48_8 C47_8 1_555 1_555
C4_8 C5_8 1_555 1_555
C7_8 C8_8 1_555 1_555
C9_8 C10_8 1_555 1_555
C15_8 C16_8 1_555 1_555
C19_8 C20_8 1_555 1_555
C22_8 C23_8 1_555 1_555
C28_8 C29_8 1_555 1_555
C31_8 C32_8 1_555 1_555
C33_8 C34_8 1_555 1_555
C38_8 C41_8 1_555 1_555
C39_8 C40_8 1_555 1_555
C43_8 C44_8 1_555 1_555
C46_8 C47_8 1_555 1_555

#END
