
###############################################################################
#
# This file contains modified crystal structure data generated from the
# MOF subset of the Cambridge Structural Database (CSD) v543 
# hosted by the Cambridge Crystallographic Data Centre (CCDC).
#
# This work is licensed under the Creative Commons
# Attribution-NonCommercial-ShareAlike 4.0 International License.
# To view a copy of this license, visit
# http://creativecommons.org/licenses/by-nc-sa/4.0/
# or send a letter to
# Creative Commons, PO Box 1866, Mountain View, CA 94042, USA.
#
# CIF created using the CSD Python API on 29 September 2022
# The structure has been converted into the P1 space group
# The structure has a 3D framework
# The original CSD entry XALROT is in the orthorhombic crystal system
# The framework has been calculated to contain at least 10.0% void space
# The void calculation uses a probe of radius 1.32A, grid spacing 0.4
#
###############################################################################

data_XALROT
_chemical_formula_moiety         '(C256 H160 In8 N32 O128)n'
_symmetry_cell_setting           triclinic
_symmetry_space_group_name_H-M   'P 1'
_symmetry_Int_Tables_number      1
_space_group_name_Hall           'P 1'
loop_
_symmetry_equiv_pos_site_id
_symmetry_equiv_pos_as_xyz
1 x,y,z
_cell_length_a                   15.300(2)
_cell_length_b                   26.902(4)
_cell_length_c                   31.342(5)
_cell_angle_alpha                90
_cell_angle_beta                 90
_cell_angle_gamma                90
_cell_volume                     12900.4
loop_
_atom_site_label
_atom_site_type_symbol
_atom_site_fract_x
_atom_site_fract_y
_atom_site_fract_z
In1 In 0.3750 0.3750 0.565219(6)
O1 O 0.26215(10) 0.41156(6) 0.52929(5)
C1 C 0.31500(17) 0.43852(10) 0.50869(8)
C2 C 0.28300(17) 0.47183(10) 0.47465(8)
C3 C 0.33801(19) 0.50530(14) 0.45387(10)
C4 C 0.19578(18) 0.46959(12) 0.46285(9)
H1 H 0.1580 0.4471 0.4772
N1 N 0.4246(2) 0.51263(16) 0.46499(13)
H2 H 0.4586 0.5348 0.4477
H3 H 0.4526 0.4847 0.4783
O2 O 0.39632(11) 0.43589(7) 0.51741(6)
C5 C 0.1621(2) 0.49922(14) 0.43066(10)
H4 H 0.1021 0.4973 0.4231
C6 C 0.30388(18) 0.53542(12) 0.42092(10)
H5 H 0.3409 0.5583 0.4066
C7 C 0.21804(16) 0.53182(10) 0.40960(8)
C8 C 0.18539(16) 0.56390(9) 0.37403(7)
O3 O 0.10388(11) 0.56771(7) 0.36719(5)
O4 O 0.23842(10) 0.58750(6) 0.35101(5)
In2 In 0.1250 0.6250 0.315219(6)
In3 In 0.1250 0.1250 0.815219(6)
O5 O 0.23785(10) 0.16156(6) 0.77929(5)
O6 O 0.48785(10) 0.33844(6) 0.52929(5)
C9 C 0.18500(17) 0.18852(10) 0.75869(8)
C10 C 0.21700(17) 0.22183(10) 0.72465(8)
C11 C 0.16199(19) 0.25530(14) 0.70387(10)
C12 C 0.30422(18) 0.21959(12) 0.71285(9)
H6 H 0.3420 0.1971 0.7272
N2 N 0.0754(2) 0.26263(16) 0.71499(13)
H7 H 0.0414 0.2848 0.6977
H8 H 0.0474 0.2347 0.7283
O7 O 0.10368(11) 0.18589(7) 0.76741(6)
O8 O 0.35368(11) 0.31411(7) 0.51741(6)
C13 C 0.3379(2) 0.24922(14) 0.68066(10)
H9 H 0.3979 0.2473 0.6731
C14 C 0.19612(18) 0.28542(12) 0.67092(10)
H10 H 0.1591 0.3083 0.6566
C15 C 0.28196(16) 0.28182(10) 0.65960(8)
C16 C 0.31461(16) 0.31390(9) 0.62403(7)
O9 O 0.39612(11) 0.31771(7) 0.61719(5)
O10 O 0.35388(11) 0.43229(7) 0.61719(5)
O11 O 0.26158(10) 0.33750(6) 0.60101(5)
O12 O 0.48842(10) 0.41250(6) 0.60101(5)
C1_2 C 0.43500(17) 0.31148(10) 0.50869(8)
C2_2 C 0.46700(17) 0.27817(10) 0.47465(8)
C3_2 C 0.41199(19) 0.24470(14) 0.45387(10)
C4_2 C 0.55422(18) 0.28041(12) 0.46285(9)
H1_2 H 0.5920 0.3029 0.4772
N1_2 N 0.3254(2) 0.23737(16) 0.46499(13)
H2_2 H 0.2914 0.2152 0.4477
H3_2 H 0.2974 0.2653 0.4783
C5_2 C 0.5879(2) 0.25078(14) 0.43066(10)
H4_2 H 0.6479 0.2527 0.4231
C6_2 C 0.44612(18) 0.21458(12) 0.42092(10)
H5_2 H 0.4091 0.1917 0.4066
C7_2 C 0.53196(16) 0.21818(10) 0.40960(8)
C8_2 C 0.56461(16) 0.18610(9) 0.37403(7)
O3_2 O 0.64612(11) 0.18229(7) 0.36719(5)
O4_2 O 0.51158(10) 0.16250(6) 0.35101(5)
In2_2 In 0.6250 0.1250 0.315219(6)
In3_2 In 0.6250 0.6250 0.815219(6)
O5_2 O 0.51215(10) 0.58844(6) 0.77929(5)
C9_2 C 0.56500(17) 0.56148(10) 0.75869(8)
C10_2 C 0.53300(17) 0.52817(10) 0.72465(8)
C11_2 C 0.58801(19) 0.49470(14) 0.70387(10)
C12_2 C 0.44578(18) 0.53041(12) 0.71285(9)
H6_2 H 0.4080 0.5529 0.7272
N2_2 N 0.6746(2) 0.48737(16) 0.71499(13)
H7_2 H 0.7086 0.4652 0.6977
H8_2 H 0.7026 0.5153 0.7283
O7_2 O 0.64632(11) 0.56411(7) 0.76741(6)
C13_2 C 0.4121(2) 0.50078(14) 0.68066(10)
H9_2 H 0.3521 0.5027 0.6731
C14_2 C 0.55388(18) 0.46458(12) 0.67092(10)
H10_2 H 0.5909 0.4417 0.6566
C15_2 C 0.46804(16) 0.46818(10) 0.65960(8)
C16_2 C 0.43539(16) 0.43610(9) 0.62403(7)
C3_3 C 0.33801(19) 0.00530(14) 0.95387(10)
N1_3 N 0.4246(2) 0.01263(16) 0.96499(13)
H2_3 H 0.4586 0.0348 0.9477
C6_3 C 0.30388(18) 0.03542(12) 0.92092(10)
H5_3 H 0.3409 0.0583 0.9066
C7_3 C 0.21804(16) 0.03182(10) 0.90960(8)
C8_3 C 0.18539(16) 0.06390(9) 0.87403(7)
O3_3 O 0.10388(11) 0.06771(7) 0.86719(5)
O4_3 O 0.23842(10) 0.08750(6) 0.85101(5)
In1_2 In 0.3750 0.8750 0.065219(6)
O1_2 O 0.26215(10) 0.91156(6) 0.02929(5)
C1_3 C 0.31500(17) 0.93852(10) 0.00869(8)
O2_2 O 0.39632(11) 0.93589(7) 0.01741(6)
O5_3 O 0.23785(10) 0.66156(6) 0.27929(5)
O6_2 O 0.48785(10) 0.83844(6) 0.02929(5)
C9_3 C 0.18500(17) 0.68852(10) 0.25869(8)
C10_3 C 0.21700(17) 0.72183(10) 0.22465(8)
C11_3 C 0.16199(19) 0.75530(14) 0.20387(10)
C12_3 C 0.30422(18) 0.71959(12) 0.21285(9)
H6_3 H 0.3420 0.6971 0.2272
N2_3 N 0.0754(2) 0.76263(16) 0.21499(13)
H7_3 H 0.0414 0.7848 0.1977
H8_3 H 0.0474 0.7347 0.2283
O7_3 O 0.10368(11) 0.68589(7) 0.26741(6)
O8_2 O 0.35368(11) 0.81411(7) 0.01741(6)
C13_3 C 0.3379(2) 0.74922(14) 0.18066(10)
H9_3 H 0.3979 0.7473 0.1731
C14_3 C 0.19612(18) 0.78542(12) 0.17092(10)
H10_3 H 0.1591 0.8083 0.1566
C15_3 C 0.28196(16) 0.78182(10) 0.15960(8)
C16_3 C 0.31461(16) 0.81390(9) 0.12403(7)
O9_2 O 0.39612(11) 0.81771(7) 0.11719(5)
O10_2 O 0.35388(11) 0.93229(7) 0.11719(5)
O11_2 O 0.26158(10) 0.83750(6) 0.10101(5)
O12_2 O 0.48842(10) 0.91250(6) 0.10101(5)
O5_4 O 0.51215(10) 0.08844(6) 0.27929(5)
C9_4 C 0.56500(17) 0.06148(10) 0.25869(8)
C10_4 C 0.53300(17) 0.02817(10) 0.22465(8)
C12_4 C 0.44578(18) 0.03041(12) 0.21285(9)
H6_4 H 0.4080 0.0529 0.2272
H8_4 H 0.7026 0.0153 0.2283
O7_4 O 0.64632(11) 0.06411(7) 0.26741(6)
C13_4 C 0.4121(2) 0.00078(14) 0.18066(10)
H9_4 H 0.3521 0.0027 0.1731
C1_4 C 0.43500(17) 0.81148(10) 0.00869(8)
C11_4 C 0.58801(19) 0.99470(14) 0.20387(10)
N2_4 N 0.6746(2) 0.98737(16) 0.21499(13)
H7_4 H 0.7086 0.9652 0.1977
C14_4 C 0.55388(18) 0.96458(12) 0.17092(10)
H10_4 H 0.5909 0.9417 0.1566
C15_4 C 0.46804(16) 0.96818(10) 0.15960(8)
C16_4 C 0.43539(16) 0.93610(9) 0.12403(7)
C2_3 C 0.46700(17) 0.77817(10) 0.97465(8)
C3_4 C 0.41199(19) 0.74470(14) 0.95387(10)
C4_3 C 0.55422(18) 0.78041(12) 0.96285(9)
H1_3 H 0.5920 0.8029 0.9772
N1_4 N 0.3254(2) 0.73737(16) 0.96499(13)
H2_4 H 0.2914 0.7152 0.9477
H3_3 H 0.2974 0.7653 0.9783
C5_3 C 0.5879(2) 0.75078(14) 0.93066(10)
H4_3 H 0.6479 0.7527 0.9231
C6_4 C 0.44612(18) 0.71458(12) 0.92092(10)
H5_4 H 0.4091 0.6917 0.9066
C7_4 C 0.53196(16) 0.71818(10) 0.90960(8)
C8_4 C 0.56461(16) 0.68610(9) 0.87403(7)
O3_4 O 0.64612(11) 0.68229(7) 0.86719(5)
O4_4 O 0.51158(10) 0.66250(6) 0.85101(5)
In1_3 In 0.8750 0.3750 0.065219(6)
O1_3 O 0.76215(10) 0.41156(6) 0.02929(5)
C1_5 C 0.81500(17) 0.43852(10) 0.00869(8)
O2_3 O 0.89632(11) 0.43589(7) 0.01741(6)
O5_5 O 0.73785(10) 0.16156(6) 0.27929(5)
O6_3 O 0.98785(10) 0.33844(6) 0.02929(5)
C9_5 C 0.68500(17) 0.18852(10) 0.25869(8)
C10_5 C 0.71700(17) 0.22183(10) 0.22465(8)
C11_5 C 0.66199(19) 0.25530(14) 0.20387(10)
C12_5 C 0.80422(18) 0.21959(12) 0.21285(9)
H6_5 H 0.8420 0.1971 0.2272
N2_5 N 0.5754(2) 0.26263(16) 0.21499(13)
H7_5 H 0.5414 0.2848 0.1977
H8_5 H 0.5474 0.2347 0.2283
O7_5 O 0.60368(11) 0.18589(7) 0.26741(6)
O8_3 O 0.85368(11) 0.31411(7) 0.01741(6)
C13_5 C 0.8379(2) 0.24922(14) 0.18066(10)
H9_5 H 0.8979 0.2473 0.1731
C14_5 C 0.69612(18) 0.28542(12) 0.17092(10)
H10_5 H 0.6591 0.3083 0.1566
C15_5 C 0.78196(16) 0.28182(10) 0.15960(8)
C16_5 C 0.81461(16) 0.31390(9) 0.12403(7)
O9_3 O 0.89612(11) 0.31771(7) 0.11719(5)
O10_3 O 0.85388(11) 0.43229(7) 0.11719(5)
O11_3 O 0.76158(10) 0.33750(6) 0.10101(5)
O12_3 O 0.98842(10) 0.41250(6) 0.10101(5)
C2_4 C 0.78300(17) 0.47183(10) 0.97465(8)
C3_5 C 0.83801(19) 0.50530(14) 0.95387(10)
C4_4 C 0.69578(18) 0.46959(12) 0.96285(9)
H1_4 H 0.6580 0.4471 0.9772
N1_5 N 0.9246(2) 0.51263(16) 0.96499(13)
H2_5 H 0.9586 0.5348 0.9477
H3_4 H 0.9526 0.4847 0.9783
C5_4 C 0.6621(2) 0.49922(14) 0.93066(10)
H4_4 H 0.6021 0.4973 0.9231
C6_5 C 0.80388(18) 0.53542(12) 0.92092(10)
H5_5 H 0.8409 0.5583 0.9066
C7_5 C 0.71804(16) 0.53182(10) 0.90960(8)
C8_5 C 0.68539(16) 0.56390(9) 0.87403(7)
O3_5 O 0.60388(11) 0.56771(7) 0.86719(5)
O4_5 O 0.73842(10) 0.58750(6) 0.85101(5)
O5_6 O 0.01215(10) 0.58844(6) 0.27929(5)
C9_6 C 0.06500(17) 0.56148(10) 0.25869(8)
C10_6 C 0.03300(17) 0.52817(10) 0.22465(8)
C11_6 C 0.08801(19) 0.49470(14) 0.20387(10)
N2_6 N 0.1746(2) 0.48737(16) 0.21499(13)
H7_6 H 0.2086 0.4652 0.1977
H8_6 H 0.2026 0.5153 0.2283
O7_6 O 0.14632(11) 0.56411(7) 0.26741(6)
C14_6 C 0.05388(18) 0.46458(12) 0.17092(10)
H10_6 H 0.0909 0.4417 0.1566
C4_5 C 0.05422(18) 0.28041(12) 0.96285(9)
H1_5 H 0.0920 0.3029 0.9772
C5_5 C 0.0879(2) 0.25078(14) 0.93066(10)
H4_5 H 0.1479 0.2527 0.9231
C7_6 C 0.03196(16) 0.21818(10) 0.90960(8)
C8_6 C 0.06461(16) 0.18610(9) 0.87403(7)
O3_6 O 0.14612(11) 0.18229(7) 0.86719(5)
O4_6 O 0.01158(10) 0.16250(6) 0.85101(5)
C1_6 C 0.93500(17) 0.31148(10) 0.00869(8)
C12_6 C 0.94578(18) 0.53041(12) 0.21285(9)
H6_6 H 0.9080 0.5529 0.2272
C13_6 C 0.9121(2) 0.50078(14) 0.18066(10)
H9_6 H 0.8521 0.5027 0.1731
C15_6 C 0.96804(16) 0.46818(10) 0.15960(8)
C16_6 C 0.93539(16) 0.43610(9) 0.12403(7)
C3_6 C 0.83801(19) 0.00530(14) 0.45387(10)
N1_6 N 0.9246(2) 0.01263(16) 0.46499(13)
H2_6 H 0.9586 0.0348 0.4477
C6_6 C 0.80388(18) 0.03542(12) 0.42092(10)
H5_6 H 0.8409 0.0583 0.4066
C7_7 C 0.71804(16) 0.03182(10) 0.40960(8)
C8_7 C 0.68539(16) 0.06390(9) 0.37403(7)
O3_7 O 0.60388(11) 0.06771(7) 0.36719(5)
O4_7 O 0.73842(10) 0.08750(6) 0.35101(5)
In1_4 In 0.8750 0.8750 0.565219(6)
O1_4 O 0.76215(10) 0.91156(6) 0.52929(5)
C1_7 C 0.81500(17) 0.93852(10) 0.50869(8)
C2_5 C 0.78300(17) 0.97183(10) 0.47465(8)
C4_6 C 0.69578(18) 0.96959(12) 0.46285(9)
H1_6 H 0.6580 0.9471 0.4772
H3_5 H 0.9526 0.9847 0.4783
O2_4 O 0.89632(11) 0.93589(7) 0.51741(6)
C5_6 C 0.6621(2) 0.99922(14) 0.43066(10)
H4_6 H 0.6021 0.9973 0.4231
O5_7 O 0.73785(10) 0.66156(6) 0.77929(5)
O6_4 O 0.98785(10) 0.83844(6) 0.52929(5)
C9_7 C 0.68500(17) 0.68852(10) 0.75869(8)
C10_7 C 0.71700(17) 0.72183(10) 0.72465(8)
C11_7 C 0.66199(19) 0.75530(14) 0.70387(10)
C12_7 C 0.80422(18) 0.71959(12) 0.71285(9)
H6_7 H 0.8420 0.6971 0.7272
N2_7 N 0.5754(2) 0.76263(16) 0.71499(13)
H7_7 H 0.5414 0.7848 0.6977
H8_7 H 0.5474 0.7347 0.7283
O7_7 O 0.60368(11) 0.68589(7) 0.76741(6)
O8_4 O 0.85368(11) 0.81411(7) 0.51741(6)
C13_7 C 0.8379(2) 0.74922(14) 0.68066(10)
H9_7 H 0.8979 0.7473 0.6731
C14_7 C 0.69612(18) 0.78542(12) 0.67092(10)
H10_7 H 0.6591 0.8083 0.6566
C15_7 C 0.78196(16) 0.78182(10) 0.65960(8)
C16_7 C 0.81461(16) 0.81390(9) 0.62403(7)
O9_4 O 0.89612(11) 0.81771(7) 0.61719(5)
O10_4 O 0.85388(11) 0.93229(7) 0.61719(5)
O11_4 O 0.76158(10) 0.83750(6) 0.60101(5)
O12_4 O 0.98842(10) 0.91250(6) 0.60101(5)
O5_8 O 0.01215(10) 0.08844(6) 0.77929(5)
C9_8 C 0.06500(17) 0.06148(10) 0.75869(8)
C10_8 C 0.03300(17) 0.02817(10) 0.72465(8)
H8_8 H 0.2026 0.0153 0.7283
O7_8 O 0.14632(11) 0.06411(7) 0.76741(6)
C4_7 C 0.05422(18) 0.78041(12) 0.46285(9)
H1_7 H 0.0920 0.8029 0.4772
C5_7 C 0.0879(2) 0.75078(14) 0.43066(10)
H4_7 H 0.1479 0.7527 0.4231
C7_8 C 0.03196(16) 0.71818(10) 0.40960(8)
C8_8 C 0.06461(16) 0.68610(9) 0.37403(7)
O3_8 O 0.14612(11) 0.68229(7) 0.36719(5)
O4_8 O 0.01158(10) 0.66250(6) 0.35101(5)
C11_8 C 0.08801(19) 0.99470(14) 0.70387(10)
N2_8 N 0.1746(2) 0.98737(16) 0.71499(13)
H7_8 H 0.2086 0.9652 0.6977
C14_8 C 0.05388(18) 0.96458(12) 0.67092(10)
H10_8 H 0.0909 0.9417 0.6566
C1_8 C 0.93500(17) 0.81148(10) 0.50869(8)
C2_6 C 0.96700(17) 0.77817(10) 0.47465(8)
C3_7 C 0.91199(19) 0.74470(14) 0.45387(10)
N1_7 N 0.8254(2) 0.73737(16) 0.46499(13)
H2_7 H 0.7914 0.7152 0.4477
H3_6 H 0.7974 0.7653 0.4783
C6_7 C 0.94612(18) 0.71458(12) 0.42092(10)
H5_7 H 0.9091 0.6917 0.4066
C15_8 C 0.96804(16) 0.96818(10) 0.65960(8)
C16_8 C 0.93539(16) 0.93610(9) 0.62403(7)
In1_5 In 0.3750 0.3750 0.184781(6)
O1_5 O 0.48785(10) 0.41156(6) 0.22071(5)
C1_9 C 0.43500(17) 0.43852(10) 0.24131(8)
C2_7 C 0.46700(17) 0.47183(10) 0.27535(8)
C3_8 C 0.41199(19) 0.50530(14) 0.29613(10)
C4_8 C 0.55422(18) 0.46959(12) 0.28715(9)
H1_8 H 0.5920 0.4471 0.2728
N1_8 N 0.3254(2) 0.51263(16) 0.28501(13)
H2_8 H 0.2914 0.5348 0.3023
H3_7 H 0.2974 0.4847 0.2717
O2_5 O 0.35368(11) 0.43589(7) 0.23259(6)
C5_8 C 0.5879(2) 0.49922(14) 0.31934(10)
H4_8 H 0.6479 0.4973 0.3269
C6_8 C 0.44612(18) 0.53542(12) 0.32908(10)
H5_8 H 0.4091 0.5583 0.3434
C7_9 C 0.53196(16) 0.53182(10) 0.34040(8)
C8_9 C 0.56461(16) 0.56390(9) 0.37597(7)
O3_9 O 0.64612(11) 0.56771(7) 0.38281(5)
O4_9 O 0.51158(10) 0.58750(6) 0.39899(5)
In2_3 In 0.6250 0.6250 0.434781(6)
O6_5 O 0.26215(10) 0.33844(6) 0.22071(5)
C10_9 C 0.53300(17) 0.22183(10) 0.02535(8)
C11_9 C 0.58801(19) 0.25530(14) 0.04613(10)
C12_8 C 0.44578(18) 0.21959(12) 0.03715(9)
H6_8 H 0.4080 0.1971 0.0228
N2_9 N 0.6746(2) 0.26263(16) 0.03501(13)
H7_9 H 0.7086 0.2848 0.0523
H8_9 H 0.7026 0.2347 0.0217
O8_5 O 0.39632(11) 0.31411(7) 0.23259(6)
C13_8 C 0.4121(2) 0.24922(14) 0.06934(10)
H9_8 H 0.3521 0.2473 0.0769
C14_9 C 0.55388(18) 0.28542(12) 0.07908(10)
H10_9 H 0.5909 0.3083 0.0934
C15_9 C 0.46804(16) 0.28182(10) 0.09040(8)
C16_9 C 0.43539(16) 0.31390(9) 0.12597(7)
O9_5 O 0.35388(11) 0.31771(7) 0.13281(5)
O10_5 O 0.39612(11) 0.43229(7) 0.13281(5)
O11_5 O 0.48842(10) 0.33750(6) 0.14899(5)
O12_5 O 0.26158(10) 0.41250(6) 0.14899(5)
In3_3 In 0.6250 0.1250 0.934781(6)
O5_9 O 0.51215(10) 0.16156(6) 0.97071(5)
C9_9 C 0.56500(17) 0.18852(10) 0.99131(8)
O7_9 O 0.64632(11) 0.18589(7) 0.98259(6)
C1_10 C 0.31500(17) 0.31148(10) 0.24131(8)
C2_8 C 0.28300(17) 0.27817(10) 0.27535(8)
C3_9 C 0.33801(19) 0.24470(14) 0.29613(10)
C4_9 C 0.19578(18) 0.28041(12) 0.28715(9)
H1_9 H 0.1580 0.3029 0.2728
N1_9 N 0.4246(2) 0.23737(16) 0.28501(13)
H2_9 H 0.4586 0.2152 0.3023
H3_8 H 0.4526 0.2653 0.2717
C5_9 C 0.1621(2) 0.25078(14) 0.31934(10)
H4_9 H 0.1021 0.2527 0.3269
C6_9 C 0.30388(18) 0.21458(12) 0.32908(10)
H5_9 H 0.3409 0.1917 0.3434
C7_10 C 0.21804(16) 0.21818(10) 0.34040(8)
C8_10 C 0.18539(16) 0.18610(9) 0.37597(7)
O3_10 O 0.10388(11) 0.18229(7) 0.38281(5)
O4_10 O 0.23842(10) 0.16250(6) 0.39899(5)
In2_4 In 0.1250 0.1250 0.434781(6)
C10_10 C 0.21700(17) 0.52817(10) 0.02535(8)
C11_10 C 0.16199(19) 0.49470(14) 0.04613(10)
C12_9 C 0.30422(18) 0.53041(12) 0.03715(9)
H6_9 H 0.3420 0.5529 0.0228
N2_10 N 0.0754(2) 0.48737(16) 0.03501(13)
H7_10 H 0.0414 0.4652 0.0523
H8_10 H 0.0474 0.5153 0.0217
C13_9 C 0.3379(2) 0.50078(14) 0.06934(10)
H9_9 H 0.3979 0.5027 0.0769
C14_10 C 0.19612(18) 0.46458(12) 0.07908(10)
H10_10 H 0.1591 0.4417 0.0934
C15_10 C 0.28196(16) 0.46818(10) 0.09040(8)
C16_10 C 0.31461(16) 0.43610(9) 0.12597(7)
In3_4 In 0.1250 0.6250 0.934781(6)
O5_10 O 0.23785(10) 0.58844(6) 0.97071(5)
C9_10 C 0.18500(17) 0.56148(10) 0.99131(8)
O7_10 O 0.10368(11) 0.56411(7) 0.98259(6)
C3_10 C 0.41199(19) 0.00530(14) 0.79613(10)
N1_10 N 0.3254(2) 0.01263(16) 0.78501(13)
H2_10 H 0.2914 0.0348 0.8023
C6_10 C 0.44612(18) 0.03542(12) 0.82908(10)
H5_10 H 0.4091 0.0583 0.8434
C7_11 C 0.53196(16) 0.03182(10) 0.84040(8)
C8_11 C 0.56461(16) 0.06390(9) 0.87597(7)
O3_11 O 0.64612(11) 0.06771(7) 0.88281(5)
O4_11 O 0.51158(10) 0.08750(6) 0.89899(5)
In1_6 In 0.3750 0.8750 0.684781(6)
O1_6 O 0.48785(10) 0.91156(6) 0.72071(5)
C1_11 C 0.43500(17) 0.93852(10) 0.74131(8)
C2_9 C 0.46700(17) 0.97183(10) 0.77535(8)
C4_10 C 0.55422(18) 0.96959(12) 0.78715(9)
H1_10 H 0.5920 0.9471 0.7728
H3_9 H 0.2974 0.9847 0.7717
O2_6 O 0.35368(11) 0.93589(7) 0.73259(6)
C5_10 C 0.5879(2) 0.99922(14) 0.81934(10)
H4_10 H 0.6479 0.9973 0.8269
O5_11 O 0.51215(10) 0.66156(6) 0.47071(5)
O6_6 O 0.26215(10) 0.83844(6) 0.72071(5)
C9_11 C 0.56500(17) 0.68852(10) 0.49131(8)
C10_11 C 0.53300(17) 0.72183(10) 0.52535(8)
C11_11 C 0.58801(19) 0.75530(14) 0.54613(10)
C12_10 C 0.44578(18) 0.71959(12) 0.53715(9)
H6_10 H 0.4080 0.6971 0.5228
N2_11 N 0.6746(2) 0.76263(16) 0.53501(13)
H7_11 H 0.7086 0.7848 0.5523
H8_11 H 0.7026 0.7347 0.5217
O7_11 O 0.64632(11) 0.68589(7) 0.48259(6)
O8_6 O 0.39632(11) 0.81411(7) 0.73259(6)
C13_10 C 0.4121(2) 0.74922(14) 0.56934(10)
H9_10 H 0.3521 0.7473 0.5769
C14_11 C 0.55388(18) 0.78542(12) 0.57908(10)
H10_11 H 0.5909 0.8083 0.5934
C15_11 C 0.46804(16) 0.78182(10) 0.59040(8)
C16_11 C 0.43539(16) 0.81390(9) 0.62597(7)
O9_6 O 0.35388(11) 0.81771(7) 0.63281(5)
O10_6 O 0.39612(11) 0.93229(7) 0.63281(5)
O11_6 O 0.48842(10) 0.83750(6) 0.64899(5)
O12_6 O 0.26158(10) 0.91250(6) 0.64899(5)
O5_12 O 0.23785(10) 0.08844(6) 0.47071(5)
C9_12 C 0.18500(17) 0.06148(10) 0.49131(8)
C10_12 C 0.21700(17) 0.02817(10) 0.52535(8)
C12_11 C 0.30422(18) 0.03041(12) 0.53715(9)
H6_11 H 0.3420 0.0529 0.5228
H8_12 H 0.0474 0.0153 0.5217
O7_12 O 0.10368(11) 0.06411(7) 0.48259(6)
C13_11 C 0.3379(2) 0.00078(14) 0.56934(10)
H9_11 H 0.3979 0.0027 0.5769
C1_12 C 0.31500(17) 0.81148(10) 0.74131(8)
C2_10 C 0.28300(17) 0.77817(10) 0.77535(8)
C3_11 C 0.33801(19) 0.74470(14) 0.79613(10)
C4_11 C 0.19578(18) 0.78041(12) 0.78715(9)
H1_11 H 0.1580 0.8029 0.7728
N1_11 N 0.4246(2) 0.73737(16) 0.78501(13)
H2_11 H 0.4586 0.7152 0.8023
H3_10 H 0.4526 0.7653 0.7717
C5_11 C 0.1621(2) 0.75078(14) 0.81934(10)
H4_11 H 0.1021 0.7527 0.8269
C6_11 C 0.30388(18) 0.71458(12) 0.82908(10)
H5_11 H 0.3409 0.6917 0.8434
C7_12 C 0.21804(16) 0.71818(10) 0.84040(8)
C8_12 C 0.18539(16) 0.68610(9) 0.87597(7)
O3_12 O 0.10388(11) 0.68229(7) 0.88281(5)
O4_12 O 0.23842(10) 0.66250(6) 0.89899(5)
C11_12 C 0.16199(19) 0.99470(14) 0.54613(10)
N2_12 N 0.0754(2) 0.98737(16) 0.53501(13)
H7_12 H 0.0414 0.9652 0.5523
C14_12 C 0.19612(18) 0.96458(12) 0.57908(10)
H10_12 H 0.1591 0.9417 0.5934
C15_12 C 0.28196(16) 0.96818(10) 0.59040(8)
C16_12 C 0.31461(16) 0.93610(9) 0.62597(7)
C4_12 C 0.05422(18) 0.46959(12) 0.78715(9)
H1_12 H 0.0920 0.4471 0.7728
C5_12 C 0.0879(2) 0.49922(14) 0.81934(10)
H4_12 H 0.1479 0.4973 0.8269
C7_13 C 0.03196(16) 0.53182(10) 0.84040(8)
C8_13 C 0.06461(16) 0.56390(9) 0.87597(7)
O3_13 O 0.14612(11) 0.56771(7) 0.88281(5)
O4_13 O 0.01158(10) 0.58750(6) 0.89899(5)
O5_13 O 0.01215(10) 0.16156(6) 0.47071(5)
C9_13 C 0.06500(17) 0.18852(10) 0.49131(8)
C10_13 C 0.03300(17) 0.22183(10) 0.52535(8)
C11_13 C 0.08801(19) 0.25530(14) 0.54613(10)
N2_13 N 0.1746(2) 0.26263(16) 0.53501(13)
H7_13 H 0.2086 0.2848 0.5523
H8_13 H 0.2026 0.2347 0.5217
O7_13 O 0.14632(11) 0.18589(7) 0.48259(6)
C14_13 C 0.05388(18) 0.28542(12) 0.57908(10)
H10_13 H 0.0909 0.3083 0.5934
In1_7 In 0.8750 0.3750 0.684781(6)
O1_7 O 0.98785(10) 0.41156(6) 0.72071(5)
C1_13 C 0.93500(17) 0.43852(10) 0.74131(8)
C2_11 C 0.96700(17) 0.47183(10) 0.77535(8)
C3_12 C 0.91199(19) 0.50530(14) 0.79613(10)
N1_12 N 0.8254(2) 0.51263(16) 0.78501(13)
H2_12 H 0.7914 0.5348 0.8023
H3_11 H 0.7974 0.4847 0.7717
O2_7 O 0.85368(11) 0.43589(7) 0.73259(6)
C6_12 C 0.94612(18) 0.53542(12) 0.82908(10)
H5_12 H 0.9091 0.5583 0.8434
O6_7 O 0.76215(10) 0.33844(6) 0.72071(5)
C12_12 C 0.94578(18) 0.21959(12) 0.53715(9)
H6_12 H 0.9080 0.1971 0.5228
O8_7 O 0.89632(11) 0.31411(7) 0.73259(6)
C13_12 C 0.9121(2) 0.24922(14) 0.56934(10)
H9_12 H 0.8521 0.2473 0.5769
C15_13 C 0.96804(16) 0.28182(10) 0.59040(8)
C16_13 C 0.93539(16) 0.31390(9) 0.62597(7)
O9_7 O 0.85388(11) 0.31771(7) 0.63281(5)
O10_7 O 0.89612(11) 0.43229(7) 0.63281(5)
O11_7 O 0.98842(10) 0.33750(6) 0.64899(5)
O12_7 O 0.76158(10) 0.41250(6) 0.64899(5)
C1_14 C 0.81500(17) 0.31148(10) 0.74131(8)
C2_12 C 0.78300(17) 0.27817(10) 0.77535(8)
C3_13 C 0.83801(19) 0.24470(14) 0.79613(10)
C4_13 C 0.69578(18) 0.28041(12) 0.78715(9)
H1_13 H 0.6580 0.3029 0.7728
N1_13 N 0.9246(2) 0.23737(16) 0.78501(13)
H2_13 H 0.9586 0.2152 0.8023
H3_12 H 0.9526 0.2653 0.7717
C5_13 C 0.6621(2) 0.25078(14) 0.81934(10)
H4_13 H 0.6021 0.2527 0.8269
C6_13 C 0.80388(18) 0.21458(12) 0.82908(10)
H5_13 H 0.8409 0.1917 0.8434
C7_14 C 0.71804(16) 0.21818(10) 0.84040(8)
C8_14 C 0.68539(16) 0.18610(9) 0.87597(7)
O3_14 O 0.60388(11) 0.18229(7) 0.88281(5)
O4_14 O 0.73842(10) 0.16250(6) 0.89899(5)
O5_14 O 0.73785(10) 0.58844(6) 0.47071(5)
C9_14 C 0.68500(17) 0.56148(10) 0.49131(8)
C10_14 C 0.71700(17) 0.52817(10) 0.52535(8)
C11_14 C 0.66199(19) 0.49470(14) 0.54613(10)
C12_13 C 0.80422(18) 0.53041(12) 0.53715(9)
H6_13 H 0.8420 0.5529 0.5228
N2_14 N 0.5754(2) 0.48737(16) 0.53501(13)
H7_14 H 0.5414 0.4652 0.5523
H8_14 H 0.5474 0.5153 0.5217
O7_14 O 0.60368(11) 0.56411(7) 0.48259(6)
C13_13 C 0.8379(2) 0.50078(14) 0.56934(10)
H9_13 H 0.8979 0.5027 0.5769
C14_14 C 0.69612(18) 0.46458(12) 0.57908(10)
H10_14 H 0.6591 0.4417 0.5934
C15_14 C 0.78196(16) 0.46818(10) 0.59040(8)
C16_14 C 0.81461(16) 0.43610(9) 0.62597(7)
C7_15 C 0.03196(16) 0.03182(10) 0.34040(8)
C8_15 C 0.06461(16) 0.06390(9) 0.37597(7)
O3_15 O 0.14612(11) 0.06771(7) 0.38281(5)
O4_15 O 0.01158(10) 0.08750(6) 0.39899(5)
O5_15 O 0.01215(10) 0.66156(6) 0.97071(5)
C9_15 C 0.06500(17) 0.68852(10) 0.99131(8)
O7_15 O 0.14632(11) 0.68589(7) 0.98259(6)
C3_14 C 0.91199(19) 0.00530(14) 0.29613(10)
N1_14 N 0.8254(2) 0.01263(16) 0.28501(13)
H2_14 H 0.7914 0.0348 0.3023
C6_14 C 0.94612(18) 0.03542(12) 0.32908(10)
H5_14 H 0.9091 0.0583 0.3434
In1_8 In 0.8750 0.8750 0.184781(6)
O1_8 O 0.98785(10) 0.91156(6) 0.22071(5)
C1_15 C 0.93500(17) 0.93852(10) 0.24131(8)
C2_13 C 0.96700(17) 0.97183(10) 0.27535(8)
H3_13 H 0.7974 0.9847 0.2717
O2_8 O 0.85368(11) 0.93589(7) 0.23259(6)
O6_8 O 0.76215(10) 0.83844(6) 0.22071(5)
C12_14 C 0.94578(18) 0.71959(12) 0.03715(9)
H6_14 H 0.9080 0.6971 0.0228
O8_8 O 0.89632(11) 0.81411(7) 0.23259(6)
C13_14 C 0.9121(2) 0.74922(14) 0.06934(10)
H9_14 H 0.8521 0.7473 0.0769
C15_15 C 0.96804(16) 0.78182(10) 0.09040(8)
C16_15 C 0.93539(16) 0.81390(9) 0.12597(7)
O9_8 O 0.85388(11) 0.81771(7) 0.13281(5)
O10_8 O 0.89612(11) 0.93229(7) 0.13281(5)
O11_8 O 0.98842(10) 0.83750(6) 0.14899(5)
O12_8 O 0.76158(10) 0.91250(6) 0.14899(5)
O5_16 O 0.73785(10) 0.08844(6) 0.97071(5)
C9_16 C 0.68500(17) 0.06148(10) 0.99131(8)
O7_16 O 0.60368(11) 0.06411(7) 0.98259(6)
C1_16 C 0.81500(17) 0.81148(10) 0.24131(8)
C2_14 C 0.78300(17) 0.77817(10) 0.27535(8)
C3_15 C 0.83801(19) 0.74470(14) 0.29613(10)
C4_14 C 0.69578(18) 0.78041(12) 0.28715(9)
H1_14 H 0.6580 0.8029 0.2728
N1_15 N 0.9246(2) 0.73737(16) 0.28501(13)
H2_15 H 0.9586 0.7152 0.3023
H3_14 H 0.9526 0.7653 0.2717
C5_14 C 0.6621(2) 0.75078(14) 0.31934(10)
H4_14 H 0.6021 0.7527 0.3269
C6_15 C 0.80388(18) 0.71458(12) 0.32908(10)
H5_15 H 0.8409 0.6917 0.3434
C7_16 C 0.71804(16) 0.71818(10) 0.34040(8)
C8_16 C 0.68539(16) 0.68610(9) 0.37597(7)
O3_16 O 0.60388(11) 0.68229(7) 0.38281(5)
O4_16 O 0.73842(10) 0.66250(6) 0.39899(5)
C11_15 C 0.66199(19) 0.99470(14) 0.04613(10)
N2_15 N 0.5754(2) 0.98737(16) 0.03501(13)
H7_15 H 0.5414 0.9652 0.0523
C14_15 C 0.69612(18) 0.96458(12) 0.07908(10)
H10_15 H 0.6591 0.9417 0.0934
C15_16 C 0.78196(16) 0.96818(10) 0.09040(8)
C16_16 C 0.81461(16) 0.93610(9) 0.12597(7)
C2_15 C 0.28300(17) 0.97183(10) 0.97465(8)
C4_15 C 0.19578(18) 0.96959(12) 0.96285(9)
H1_15 H 0.1580 0.9471 0.9772
H3_15 H 0.4526 0.9847 0.9783
C5_15 C 0.1621(2) 0.99922(14) 0.93066(10)
H4_15 H 0.1021 0.9973 0.9231
C2_16 C 0.96700(17) 0.27817(10) 0.97465(8)
C3_16 C 0.91199(19) 0.24470(14) 0.95387(10)
N1_16 N 0.8254(2) 0.23737(16) 0.96499(13)
H2_16 H 0.7914 0.2152 0.9477
H3_16 H 0.7974 0.2653 0.9783
C6_16 C 0.94612(18) 0.21458(12) 0.92092(10)
H5_16 H 0.9091 0.1917 0.9066
C12_15 C 0.94578(18) 0.03041(12) 0.71285(9)
H6_15 H 0.9080 0.0529 0.7272
C13_15 C 0.9121(2) 0.00078(14) 0.68066(10)
H9_15 H 0.8521 0.0027 0.6731
C4_16 C 0.05422(18) 0.96959(12) 0.28715(9)
H1_16 H 0.0920 0.9471 0.2728
C5_16 C 0.0879(2) 0.99922(14) 0.31934(10)
H4_16 H 0.1479 0.9973 0.3269
C10_15 C 0.03300(17) 0.72183(10) 0.02535(8)
C11_16 C 0.08801(19) 0.75530(14) 0.04613(10)
N2_16 N 0.1746(2) 0.76263(16) 0.03501(13)
H7_16 H 0.2086 0.7848 0.0523
H8_15 H 0.2026 0.7347 0.0217
C14_16 C 0.05388(18) 0.78542(12) 0.07908(10)
H10_16 H 0.0909 0.8083 0.0934
C10_16 C 0.71700(17) 0.02817(10) 0.02535(8)
C12_16 C 0.80422(18) 0.03041(12) 0.03715(9)
H6_16 H 0.8420 0.0529 0.0228
H8_16 H 0.5474 0.0153 0.0217
C13_16 C 0.8379(2) 0.00078(14) 0.06934(10)
H9_16 H 0.8979 0.0027 0.0769
loop_
_geom_bond_atom_site_label_1
_geom_bond_atom_site_label_2
_geom_bond_site_symmetry_1
_geom_bond_site_symmetry_2
In1 O1 1_555 1_555
O1 C1 1_555 1_555
C1 C2 1_555 1_555
C2 C3 1_555 1_555
C3 N1 1_555 1_555
C4 C2 1_555 1_555
H1 C4 1_555 1_555
N1 H2 1_555 1_555
H3 N1 1_555 1_555
O2 In1 1_555 1_555
C5 C4 1_555 1_555
H4 C5 1_555 1_555
C6 C3 1_555 1_555
H5 C6 1_555 1_555
C7 C5 1_555 1_555
C8 C7 1_555 1_555
O3 C8 1_555 1_555
O4 C8 1_555 1_555
In2 O3 1_555 1_555
In3 O5 1_555 1_555
O5 C9 1_555 1_555
O6 In1 1_555 1_555
C9 C10 1_555 1_555
C10 C11 1_555 1_555
C11 N2 1_555 1_555
C12 C10 1_555 1_555
H6 C12 1_555 1_555
N2 H7 1_555 1_555
H8 N2 1_555 1_555
O7 In3 1_555 1_555
O8 In1 1_555 1_555
C13 C12 1_555 1_555
H9 C13 1_555 1_555
C14 C11 1_555 1_555
H10 C14 1_555 1_555
C15 C13 1_555 1_555
C16 C15 1_555 1_555
O9 In1 1_555 1_555
O10 In1 1_555 1_555
O11 In1 1_555 1_555
O12 In1 1_555 1_555
C1 O2 1_555 1_555
C6 C7 1_555 1_555
O4 In2 1_555 1_555
C9 O7 1_555 1_555
C14 C15 1_555 1_555
C16 O9 1_555 1_555
C16 O11 1_555 1_555
O6 C1_2 1_555 1_555
C1_2 C2_2 1_555 1_555
C2_2 C3_2 1_555 1_555
C3_2 N1_2 1_555 1_555
C4_2 C2_2 1_555 1_555
H1_2 C4_2 1_555 1_555
N1_2 H2_2 1_555 1_555
H3_2 N1_2 1_555 1_555
C5_2 C4_2 1_555 1_555
H4_2 C5_2 1_555 1_555
C6_2 C3_2 1_555 1_555
H5_2 C6_2 1_555 1_555
C7_2 C5_2 1_555 1_555
C8_2 C7_2 1_555 1_555
O3_2 C8_2 1_555 1_555
O4_2 C8_2 1_555 1_555
In2_2 O3_2 1_555 1_555
In3_2 O5_2 1_555 1_555
O5_2 C9_2 1_555 1_555
C9_2 C10_2 1_555 1_555
C10_2 C11_2 1_555 1_555
C11_2 N2_2 1_555 1_555
C12_2 C10_2 1_555 1_555
H6_2 C12_2 1_555 1_555
N2_2 H7_2 1_555 1_555
H8_2 N2_2 1_555 1_555
O7_2 In3_2 1_555 1_555
C13_2 C12_2 1_555 1_555
H9_2 C13_2 1_555 1_555
C14_2 C11_2 1_555 1_555
H10_2 C14_2 1_555 1_555
C15_2 C13_2 1_555 1_555
C16_2 C15_2 1_555 1_555
C1_2 O8 1_555 1_555
C6_2 C7_2 1_555 1_555
O4_2 In2_2 1_555 1_555
C9_2 O7_2 1_555 1_555
C14_2 C15_2 1_555 1_555
C16_2 O10 1_555 1_555
C16_2 O12 1_555 1_555
C3_3 N1_3 1_555 1_555
N1_3 H2_3 1_555 1_555
C6_3 C3_3 1_555 1_555
H5_3 C6_3 1_555 1_555
C8_3 C7_3 1_555 1_555
O3_3 C8_3 1_555 1_555
O4_3 C8_3 1_555 1_555
In3 O3_3 1_555 1_555
C6_3 C7_3 1_555 1_555
O4_3 In3 1_555 1_555
In1_2 O1_2 1_555 1_555
O1_2 C1_3 1_555 1_555
O2_2 In1_2 1_555 1_555
In2 O5_3 1_555 1_555
O5_3 C9_3 1_555 1_555
O6_2 In1_2 1_555 1_555
C9_3 C10_3 1_555 1_555
C10_3 C11_3 1_555 1_555
C11_3 N2_3 1_555 1_555
C12_3 C10_3 1_555 1_555
H6_3 C12_3 1_555 1_555
N2_3 H7_3 1_555 1_555
H8_3 N2_3 1_555 1_555
O7_3 In2 1_555 1_555
O8_2 In1_2 1_555 1_555
C13_3 C12_3 1_555 1_555
H9_3 C13_3 1_555 1_555
C14_3 C11_3 1_555 1_555
H10_3 C14_3 1_555 1_555
C15_3 C13_3 1_555 1_555
C16_3 C15_3 1_555 1_555
O9_2 In1_2 1_555 1_555
O10_2 In1_2 1_555 1_555
O11_2 In1_2 1_555 1_555
O12_2 In1_2 1_555 1_555
C1_3 O2_2 1_555 1_555
C9_3 O7_3 1_555 1_555
C14_3 C15_3 1_555 1_555
C16_3 O9_2 1_555 1_555
C16_3 O11_2 1_555 1_555
In2_2 O5_4 1_555 1_555
O5_4 C9_4 1_555 1_555
C9_4 C10_4 1_555 1_555
C12_4 C10_4 1_555 1_555
H6_4 C12_4 1_555 1_555
O7_4 In2_2 1_555 1_555
C13_4 C12_4 1_555 1_555
H9_4 C13_4 1_555 1_555
C9_4 O7_4 1_555 1_555
O6_2 C1_4 1_555 1_555
C11_4 N2_4 1_555 1_555
N2_4 H7_4 1_555 1_555
C14_4 C11_4 1_555 1_555
H10_4 C14_4 1_555 1_555
C16_4 C15_4 1_555 1_555
C1_4 O8_2 1_555 1_555
C14_4 C15_4 1_555 1_555
C16_4 O10_2 1_555 1_555
C16_4 O12_2 1_555 1_555
C2_3 C3_4 1_555 1_555
C3_4 N1_4 1_555 1_555
C4_3 C2_3 1_555 1_555
H1_3 C4_3 1_555 1_555
N1_4 H2_4 1_555 1_555
H3_3 N1_4 1_555 1_555
C5_3 C4_3 1_555 1_555
H4_3 C5_3 1_555 1_555
C6_4 C3_4 1_555 1_555
H5_4 C6_4 1_555 1_555
C7_4 C5_3 1_555 1_555
C8_4 C7_4 1_555 1_555
O3_4 C8_4 1_555 1_555
O4_4 C8_4 1_555 1_555
In3_2 O3_4 1_555 1_555
C6_4 C7_4 1_555 1_555
O4_4 In3_2 1_555 1_555
In1_3 O1_3 1_555 1_555
O1_3 C1_5 1_555 1_555
O2_3 In1_3 1_555 1_555
In2_2 O5_5 1_555 1_555
O5_5 C9_5 1_555 1_555
O6_3 In1_3 1_555 1_555
C9_5 C10_5 1_555 1_555
C10_5 C11_5 1_555 1_555
C11_5 N2_5 1_555 1_555
C12_5 C10_5 1_555 1_555
H6_5 C12_5 1_555 1_555
N2_5 H7_5 1_555 1_555
H8_5 N2_5 1_555 1_555
O7_5 In2_2 1_555 1_555
O8_3 In1_3 1_555 1_555
C13_5 C12_5 1_555 1_555
H9_5 C13_5 1_555 1_555
C14_5 C11_5 1_555 1_555
H10_5 C14_5 1_555 1_555
C15_5 C13_5 1_555 1_555
C16_5 C15_5 1_555 1_555
O9_3 In1_3 1_555 1_555
O10_3 In1_3 1_555 1_555
O11_3 In1_3 1_555 1_555
O12_3 In1_3 1_555 1_555
C1_5 O2_3 1_555 1_555
C9_5 O7_5 1_555 1_555
C14_5 C15_5 1_555 1_555
C16_5 O9_3 1_555 1_555
C16_5 O11_3 1_555 1_555
C2_4 C3_5 1_555 1_555
C3_5 N1_5 1_555 1_555
C4_4 C2_4 1_555 1_555
H1_4 C4_4 1_555 1_555
N1_5 H2_5 1_555 1_555
H3_4 N1_5 1_555 1_555
C5_4 C4_4 1_555 1_555
H4_4 C5_4 1_555 1_555
C6_5 C3_5 1_555 1_555
H5_5 C6_5 1_555 1_555
C7_5 C5_4 1_555 1_555
C8_5 C7_5 1_555 1_555
O3_5 C8_5 1_555 1_555
O4_5 C8_5 1_555 1_555
In3_2 O3_5 1_555 1_555
C6_5 C7_5 1_555 1_555
O4_5 In3_2 1_555 1_555
In2 O5_6 1_555 1_555
O5_6 C9_6 1_555 1_555
C9_6 C10_6 1_555 1_555
C10_6 C11_6 1_555 1_555
C11_6 N2_6 1_555 1_555
N2_6 H7_6 1_555 1_555
H8_6 N2_6 1_555 1_555
O7_6 In2 1_555 1_555
C14_6 C11_6 1_555 1_555
H10_6 C14_6 1_555 1_555
C9_6 O7_6 1_555 1_555
H1_5 C4_5 1_555 1_555
C5_5 C4_5 1_555 1_555
H4_5 C5_5 1_555 1_555
C7_6 C5_5 1_555 1_555
C8_6 C7_6 1_555 1_555
O3_6 C8_6 1_555 1_555
O4_6 C8_6 1_555 1_555
In3 O3_6 1_555 1_555
O4_6 In3 1_555 1_555
O6_3 C1_6 1_555 1_555
H6_6 C12_6 1_555 1_555
C13_6 C12_6 1_555 1_555
H9_6 C13_6 1_555 1_555
C15_6 C13_6 1_555 1_555
C16_6 C15_6 1_555 1_555
C1_6 O8_3 1_555 1_555
C16_6 O10_3 1_555 1_555
C16_6 O12_3 1_555 1_555
C3_6 N1_6 1_555 1_555
N1_6 H2_6 1_555 1_555
C6_6 C3_6 1_555 1_555
H5_6 C6_6 1_555 1_555
C8_7 C7_7 1_555 1_555
O3_7 C8_7 1_555 1_555
O4_7 C8_7 1_555 1_555
In2_2 O3_7 1_555 1_555
C6_6 C7_7 1_555 1_555
O4_7 In2_2 1_555 1_555
In1_4 O1_4 1_555 1_555
O1_4 C1_7 1_555 1_555
C1_7 C2_5 1_555 1_555
C4_6 C2_5 1_555 1_555
H1_6 C4_6 1_555 1_555
O2_4 In1_4 1_555 1_555
C5_6 C4_6 1_555 1_555
H4_6 C5_6 1_555 1_555
In3_2 O5_7 1_555 1_555
O5_7 C9_7 1_555 1_555
O6_4 In1_4 1_555 1_555
C9_7 C10_7 1_555 1_555
C10_7 C11_7 1_555 1_555
C11_7 N2_7 1_555 1_555
C12_7 C10_7 1_555 1_555
H6_7 C12_7 1_555 1_555
N2_7 H7_7 1_555 1_555
H8_7 N2_7 1_555 1_555
O7_7 In3_2 1_555 1_555
O8_4 In1_4 1_555 1_555
C13_7 C12_7 1_555 1_555
H9_7 C13_7 1_555 1_555
C14_7 C11_7 1_555 1_555
H10_7 C14_7 1_555 1_555
C15_7 C13_7 1_555 1_555
C16_7 C15_7 1_555 1_555
O9_4 In1_4 1_555 1_555
O10_4 In1_4 1_555 1_555
O11_4 In1_4 1_555 1_555
O12_4 In1_4 1_555 1_555
C1_7 O2_4 1_555 1_555
C9_7 O7_7 1_555 1_555
C14_7 C15_7 1_555 1_555
C16_7 O9_4 1_555 1_555
C16_7 O11_4 1_555 1_555
In3 O5_8 1_555 1_555
O5_8 C9_8 1_555 1_555
C9_8 C10_8 1_555 1_555
O7_8 In3 1_555 1_555
C9_8 O7_8 1_555 1_555
H1_7 C4_7 1_555 1_555
C5_7 C4_7 1_555 1_555
H4_7 C5_7 1_555 1_555
C7_8 C5_7 1_555 1_555
C8_8 C7_8 1_555 1_555
O3_8 C8_8 1_555 1_555
O4_8 C8_8 1_555 1_555
In2 O3_8 1_555 1_555
C11_8 N2_8 1_555 1_555
N2_8 H7_8 1_555 1_555
C14_8 C11_8 1_555 1_555
H10_8 C14_8 1_555 1_555
O4_8 In2 1_555 1_555
O6_4 C1_8 1_555 1_555
C1_8 C2_6 1_555 1_555
C2_6 C3_7 1_555 1_555
C3_7 N1_7 1_555 1_555
N1_7 H2_7 1_555 1_555
H3_6 N1_7 1_555 1_555
C6_7 C3_7 1_555 1_555
H5_7 C6_7 1_555 1_555
C16_8 C15_8 1_555 1_555
C1_8 O8_4 1_555 1_555
C16_8 O10_4 1_555 1_555
C16_8 O12_4 1_555 1_555
In1_5 O1_5 1_555 1_555
O1_5 C1_9 1_555 1_555
C1_9 C2_7 1_555 1_555
C2_7 C3_8 1_555 1_555
C3_8 N1_8 1_555 1_555
C4_8 C2_7 1_555 1_555
H1_8 C4_8 1_555 1_555
N1_8 H2_8 1_555 1_555
H3_7 N1_8 1_555 1_555
O2_5 In1_5 1_555 1_555
C5_8 C4_8 1_555 1_555
H4_8 C5_8 1_555 1_555
C6_8 C3_8 1_555 1_555
H5_8 C6_8 1_555 1_555
C7_9 C5_8 1_555 1_555
C8_9 C7_9 1_555 1_555
O3_9 C8_9 1_555 1_555
O4_9 C8_9 1_555 1_555
In2_3 O3_9 1_555 1_555
O6_5 In1_5 1_555 1_555
C10_9 C11_9 1_555 1_555
C11_9 N2_9 1_555 1_555
C12_8 C10_9 1_555 1_555
H6_8 C12_8 1_555 1_555
N2_9 H7_9 1_555 1_555
H8_9 N2_9 1_555 1_555
O8_5 In1_5 1_555 1_555
C13_8 C12_8 1_555 1_555
H9_8 C13_8 1_555 1_555
C14_9 C11_9 1_555 1_555
H10_9 C14_9 1_555 1_555
C15_9 C13_8 1_555 1_555
C16_9 C15_9 1_555 1_555
O9_5 In1_5 1_555 1_555
O10_5 In1_5 1_555 1_555
O11_5 In1_5 1_555 1_555
O12_5 In1_5 1_555 1_555
C1_9 O2_5 1_555 1_555
C6_8 C7_9 1_555 1_555
O4_9 In2_3 1_555 1_555
C14_9 C15_9 1_555 1_555
C16_9 O9_5 1_555 1_555
C16_9 O11_5 1_555 1_555
In3_3 O5_9 1_555 1_555
O5_9 C9_9 1_555 1_555
O7_9 In3_3 1_555 1_555
C9_9 O7_9 1_555 1_555
O6_5 C1_10 1_555 1_555
C1_10 C2_8 1_555 1_555
C2_8 C3_9 1_555 1_555
C3_9 N1_9 1_555 1_555
C4_9 C2_8 1_555 1_555
H1_9 C4_9 1_555 1_555
N1_9 H2_9 1_555 1_555
H3_8 N1_9 1_555 1_555
C5_9 C4_9 1_555 1_555
H4_9 C5_9 1_555 1_555
C6_9 C3_9 1_555 1_555
H5_9 C6_9 1_555 1_555
C7_10 C5_9 1_555 1_555
C8_10 C7_10 1_555 1_555
O3_10 C8_10 1_555 1_555
O4_10 C8_10 1_555 1_555
In2_4 O3_10 1_555 1_555
C10_10 C11_10 1_555 1_555
C11_10 N2_10 1_555 1_555
C12_9 C10_10 1_555 1_555
H6_9 C12_9 1_555 1_555
N2_10 H7_10 1_555 1_555
H8_10 N2_10 1_555 1_555
C13_9 C12_9 1_555 1_555
H9_9 C13_9 1_555 1_555
C14_10 C11_10 1_555 1_555
H10_10 C14_10 1_555 1_555
C15_10 C13_9 1_555 1_555
C16_10 C15_10 1_555 1_555
C1_10 O8_5 1_555 1_555
C6_9 C7_10 1_555 1_555
O4_10 In2_4 1_555 1_555
C14_10 C15_10 1_555 1_555
C16_10 O10_5 1_555 1_555
C16_10 O12_5 1_555 1_555
In3_4 O5_10 1_555 1_555
O5_10 C9_10 1_555 1_555
O7_10 In3_4 1_555 1_555
C9_10 O7_10 1_555 1_555
C3_10 N1_10 1_555 1_555
N1_10 H2_10 1_555 1_555
C6_10 C3_10 1_555 1_555
H5_10 C6_10 1_555 1_555
C8_11 C7_11 1_555 1_555
O3_11 C8_11 1_555 1_555
O4_11 C8_11 1_555 1_555
In3_3 O3_11 1_555 1_555
C6_10 C7_11 1_555 1_555
O4_11 In3_3 1_555 1_555
In1_6 O1_6 1_555 1_555
O1_6 C1_11 1_555 1_555
C1_11 C2_9 1_555 1_555
C4_10 C2_9 1_555 1_555
H1_10 C4_10 1_555 1_555
O2_6 In1_6 1_555 1_555
C5_10 C4_10 1_555 1_555
H4_10 C5_10 1_555 1_555
In2_3 O5_11 1_555 1_555
O5_11 C9_11 1_555 1_555
O6_6 In1_6 1_555 1_555
C9_11 C10_11 1_555 1_555
C10_11 C11_11 1_555 1_555
C11_11 N2_11 1_555 1_555
C12_10 C10_11 1_555 1_555
H6_10 C12_10 1_555 1_555
N2_11 H7_11 1_555 1_555
H8_11 N2_11 1_555 1_555
O7_11 In2_3 1_555 1_555
O8_6 In1_6 1_555 1_555
C13_10 C12_10 1_555 1_555
H9_10 C13_10 1_555 1_555
C14_11 C11_11 1_555 1_555
H10_11 C14_11 1_555 1_555
C15_11 C13_10 1_555 1_555
C16_11 C15_11 1_555 1_555
O9_6 In1_6 1_555 1_555
O10_6 In1_6 1_555 1_555
O11_6 In1_6 1_555 1_555
O12_6 In1_6 1_555 1_555
C1_11 O2_6 1_555 1_555
C9_11 O7_11 1_555 1_555
C14_11 C15_11 1_555 1_555
C16_11 O9_6 1_555 1_555
C16_11 O11_6 1_555 1_555
In2_4 O5_12 1_555 1_555
O5_12 C9_12 1_555 1_555
C9_12 C10_12 1_555 1_555
C12_11 C10_12 1_555 1_555
H6_11 C12_11 1_555 1_555
O7_12 In2_4 1_555 1_555
C13_11 C12_11 1_555 1_555
H9_11 C13_11 1_555 1_555
C9_12 O7_12 1_555 1_555
O6_6 C1_12 1_555 1_555
C1_12 C2_10 1_555 1_555
C2_10 C3_11 1_555 1_555
C3_11 N1_11 1_555 1_555
C4_11 C2_10 1_555 1_555
H1_11 C4_11 1_555 1_555
N1_11 H2_11 1_555 1_555
H3_10 N1_11 1_555 1_555
C5_11 C4_11 1_555 1_555
H4_11 C5_11 1_555 1_555
C6_11 C3_11 1_555 1_555
H5_11 C6_11 1_555 1_555
C7_12 C5_11 1_555 1_555
C8_12 C7_12 1_555 1_555
O3_12 C8_12 1_555 1_555
O4_12 C8_12 1_555 1_555
In3_4 O3_12 1_555 1_555
C11_12 N2_12 1_555 1_555
N2_12 H7_12 1_555 1_555
C14_12 C11_12 1_555 1_555
H10_12 C14_12 1_555 1_555
C16_12 C15_12 1_555 1_555
C1_12 O8_6 1_555 1_555
C6_11 C7_12 1_555 1_555
O4_12 In3_4 1_555 1_555
C14_12 C15_12 1_555 1_555
C16_12 O10_6 1_555 1_555
C16_12 O12_6 1_555 1_555
H1_12 C4_12 1_555 1_555
C5_12 C4_12 1_555 1_555
H4_12 C5_12 1_555 1_555
C7_13 C5_12 1_555 1_555
C8_13 C7_13 1_555 1_555
O3_13 C8_13 1_555 1_555
O4_13 C8_13 1_555 1_555
In3_4 O3_13 1_555 1_555
In2_4 O5_13 1_555 1_555
O5_13 C9_13 1_555 1_555
C9_13 C10_13 1_555 1_555
C10_13 C11_13 1_555 1_555
C11_13 N2_13 1_555 1_555
N2_13 H7_13 1_555 1_555
H8_13 N2_13 1_555 1_555
O7_13 In2_4 1_555 1_555
C14_13 C11_13 1_555 1_555
H10_13 C14_13 1_555 1_555
O4_13 In3_4 1_555 1_555
C9_13 O7_13 1_555 1_555
In1_7 O1_7 1_555 1_555
O1_7 C1_13 1_555 1_555
C1_13 C2_11 1_555 1_555
C2_11 C3_12 1_555 1_555
C3_12 N1_12 1_555 1_555
N1_12 H2_12 1_555 1_555
H3_11 N1_12 1_555 1_555
O2_7 In1_7 1_555 1_555
C6_12 C3_12 1_555 1_555
H5_12 C6_12 1_555 1_555
O6_7 In1_7 1_555 1_555
H6_12 C12_12 1_555 1_555
O8_7 In1_7 1_555 1_555
C13_12 C12_12 1_555 1_555
H9_12 C13_12 1_555 1_555
C15_13 C13_12 1_555 1_555
C16_13 C15_13 1_555 1_555
O9_7 In1_7 1_555 1_555
O10_7 In1_7 1_555 1_555
O11_7 In1_7 1_555 1_555
O12_7 In1_7 1_555 1_555
C1_13 O2_7 1_555 1_555
C16_13 O9_7 1_555 1_555
C16_13 O11_7 1_555 1_555
O6_7 C1_14 1_555 1_555
C1_14 C2_12 1_555 1_555
C2_12 C3_13 1_555 1_555
C3_13 N1_13 1_555 1_555
C4_13 C2_12 1_555 1_555
H1_13 C4_13 1_555 1_555
N1_13 H2_13 1_555 1_555
H3_12 N1_13 1_555 1_555
C5_13 C4_13 1_555 1_555
H4_13 C5_13 1_555 1_555
C6_13 C3_13 1_555 1_555
H5_13 C6_13 1_555 1_555
C7_14 C5_13 1_555 1_555
C8_14 C7_14 1_555 1_555
O3_14 C8_14 1_555 1_555
O4_14 C8_14 1_555 1_555
In3_3 O3_14 1_555 1_555
In2_3 O5_14 1_555 1_555
O5_14 C9_14 1_555 1_555
C9_14 C10_14 1_555 1_555
C10_14 C11_14 1_555 1_555
C11_14 N2_14 1_555 1_555
C12_13 C10_14 1_555 1_555
H6_13 C12_13 1_555 1_555
N2_14 H7_14 1_555 1_555
H8_14 N2_14 1_555 1_555
O7_14 In2_3 1_555 1_555
C13_13 C12_13 1_555 1_555
H9_13 C13_13 1_555 1_555
C14_14 C11_14 1_555 1_555
H10_14 C14_14 1_555 1_555
C15_14 C13_13 1_555 1_555
C16_14 C15_14 1_555 1_555
C1_14 O8_7 1_555 1_555
C6_13 C7_14 1_555 1_555
O4_14 In3_3 1_555 1_555
C9_14 O7_14 1_555 1_555
C14_14 C15_14 1_555 1_555
C16_14 O10_7 1_555 1_555
C16_14 O12_7 1_555 1_555
C8_15 C7_15 1_555 1_555
O3_15 C8_15 1_555 1_555
O4_15 C8_15 1_555 1_555
In2_4 O3_15 1_555 1_555
O4_15 In2_4 1_555 1_555
In3_4 O5_15 1_555 1_555
O5_15 C9_15 1_555 1_555
O7_15 In3_4 1_555 1_555
C9_15 O7_15 1_555 1_555
C3_14 N1_14 1_555 1_555
N1_14 H2_14 1_555 1_555
C6_14 C3_14 1_555 1_555
H5_14 C6_14 1_555 1_555
In1_8 O1_8 1_555 1_555
O1_8 C1_15 1_555 1_555
C1_15 C2_13 1_555 1_555
O2_8 In1_8 1_555 1_555
O6_8 In1_8 1_555 1_555
H6_14 C12_14 1_555 1_555
O8_8 In1_8 1_555 1_555
C13_14 C12_14 1_555 1_555
H9_14 C13_14 1_555 1_555
C15_15 C13_14 1_555 1_555
C16_15 C15_15 1_555 1_555
O9_8 In1_8 1_555 1_555
O10_8 In1_8 1_555 1_555
O11_8 In1_8 1_555 1_555
O12_8 In1_8 1_555 1_555
C1_15 O2_8 1_555 1_555
C16_15 O9_8 1_555 1_555
C16_15 O11_8 1_555 1_555
In3_3 O5_16 1_555 1_555
O5_16 C9_16 1_555 1_555
O7_16 In3_3 1_555 1_555
C9_16 O7_16 1_555 1_555
O6_8 C1_16 1_555 1_555
C1_16 C2_14 1_555 1_555
C2_14 C3_15 1_555 1_555
C3_15 N1_15 1_555 1_555
C4_14 C2_14 1_555 1_555
H1_14 C4_14 1_555 1_555
N1_15 H2_15 1_555 1_555
H3_14 N1_15 1_555 1_555
C5_14 C4_14 1_555 1_555
H4_14 C5_14 1_555 1_555
C6_15 C3_15 1_555 1_555
H5_15 C6_15 1_555 1_555
C7_16 C5_14 1_555 1_555
C8_16 C7_16 1_555 1_555
O3_16 C8_16 1_555 1_555
O4_16 C8_16 1_555 1_555
In2_3 O3_16 1_555 1_555
C11_15 N2_15 1_555 1_555
N2_15 H7_15 1_555 1_555
C14_15 C11_15 1_555 1_555
H10_15 C14_15 1_555 1_555
C16_16 C15_16 1_555 1_555
C1_16 O8_8 1_555 1_555
C6_15 C7_16 1_555 1_555
O4_16 In2_3 1_555 1_555
C14_15 C15_16 1_555 1_555
C16_16 O10_8 1_555 1_555
C16_16 O12_8 1_555 1_555
C4_15 C2_15 1_555 1_555
H1_15 C4_15 1_555 1_555
C5_15 C4_15 1_555 1_555
H4_15 C5_15 1_555 1_555
C2_16 C3_16 1_555 1_555
C3_16 N1_16 1_555 1_555
N1_16 H2_16 1_555 1_555
H3_16 N1_16 1_555 1_555
C6_16 C3_16 1_555 1_555
H5_16 C6_16 1_555 1_555
H6_15 C12_15 1_555 1_555
C13_15 C12_15 1_555 1_555
H9_15 C13_15 1_555 1_555
H1_16 C4_16 1_555 1_555
C5_16 C4_16 1_555 1_555
H4_16 C5_16 1_555 1_555
C10_15 C11_16 1_555 1_555
C11_16 N2_16 1_555 1_555
N2_16 H7_16 1_555 1_555
H8_15 N2_16 1_555 1_555
C14_16 C11_16 1_555 1_555
H10_16 C14_16 1_555 1_555
C12_16 C10_16 1_555 1_555
H6_16 C12_16 1_555 1_555
C13_16 C12_16 1_555 1_555
H9_16 C13_16 1_555 1_555

#END
