
###############################################################################
#
# This file contains modified crystal structure data generated from the
# MOF subset of the Cambridge Structural Database (CSD) v543 
# hosted by the Cambridge Crystallographic Data Centre (CCDC).
#
# This work is licensed under the Creative Commons
# Attribution-NonCommercial-ShareAlike 4.0 International License.
# To view a copy of this license, visit
# http://creativecommons.org/licenses/by-nc-sa/4.0/
# or send a letter to
# Creative Commons, PO Box 1866, Mountain View, CA 94042, USA.
#
# CIF created using the CSD Python API on 29 September 2022
# The structure has been converted into the P1 space group
# The structure has a 3D framework
# The original CSD entry XALTOV is in the cubic crystal system
# The framework has been calculated to contain at least 10.0% void space
# The void calculation uses a probe of radius 1.32A, grid spacing 0.4
#
###############################################################################

data_XALTOV
_chemical_formula_moiety         '(C168 H72 Cl32 Co36 N120)n'
_symmetry_cell_setting           triclinic
_symmetry_space_group_name_H-M   'P 1'
_symmetry_Int_Tables_number      1
_space_group_name_Hall           'P 1'
loop_
_symmetry_equiv_pos_site_id
_symmetry_equiv_pos_as_xyz
1 x,y,z
_cell_length_a                   21.7309(4)
_cell_length_b                   21.7309(4)
_cell_length_c                   21.7309(4)
_cell_angle_alpha                90
_cell_angle_beta                 90
_cell_angle_gamma                90
_cell_volume                     10262
loop_
_atom_site_label
_atom_site_type_symbol
_atom_site_fract_x
_atom_site_fract_y
_atom_site_fract_z
_atom_site_U_iso_or_equiv
_atom_site_thermal_displace_type
Co1 Co 0.7500 0.7500 0.75000 0.0140 Uiso
Co2 Co 0.6589(2) 0.6589(2) 0.6589(2) 0.0140 Uiso
Cl1 Cl 0.6054(3) 0.6054(3) 0.6054(3) 0.0440 Uiso
N1 N 0.7137(2) 0.7137(2) 0.6123(4) 0.0430 Uiso
N2 N 0.7500 0.7500 0.64464(10) 0.0430 Uiso
C1 C 0.7259(4) 0.7259(4) 0.5526(2) 0.0510 Uiso
C2 C 0.7001(6) 0.7001(6) 0.50000 0.0510 Uiso
H1 H 0.6698 0.6698 0.500 0.0380 Uiso
Co3 Co 0.7500 0.7500 0.25000 0.0140 Uiso
Co4 Co 0.2500 0.7500 0.75000 0.0140 Uiso
Co5 Co 0.7500 0.2500 0.75000 0.0140 Uiso
Co6 Co 0.8411(2) 0.8411(2) 0.6589(2) 0.0140 Uiso
Co7 Co 0.8411(2) 0.8411(2) 0.3411(2) 0.0140 Uiso
Co8 Co 0.6589(2) 0.6589(2) 0.3411(2) 0.0140 Uiso
Co9 Co 0.6589(2) 0.8411(2) 0.8411(2) 0.0140 Uiso
Co10 Co 0.3411(2) 0.8411(2) 0.8411(2) 0.0140 Uiso
Co11 Co 0.3411(2) 0.6589(2) 0.6589(2) 0.0140 Uiso
Co12 Co 0.8411(2) 0.6589(2) 0.8411(2) 0.0140 Uiso
Co13 Co 0.8411(2) 0.3411(2) 0.8411(2) 0.0140 Uiso
Co14 Co 0.6589(2) 0.3411(2) 0.6589(2) 0.0140 Uiso
Cl2 Cl 0.8946(3) 0.8946(3) 0.6054(3) 0.0440 Uiso
Cl3 Cl 0.8946(3) 0.8946(3) 0.3946(3) 0.0440 Uiso
Cl4 Cl 0.6054(3) 0.6054(3) 0.3946(3) 0.0440 Uiso
N3 N 0.7863(2) 0.7863(2) 0.6123(4) 0.0430 Uiso
N4 N 0.7863(2) 0.7863(2) 0.3877(4) 0.0430 Uiso
N5 N 0.7137(2) 0.7137(2) 0.3877(4) 0.0430 Uiso
N6 N 0.6123(4) 0.7137(2) 0.7137(2) 0.0430 Uiso
N7 N 0.6123(4) 0.7863(2) 0.7863(2) 0.0430 Uiso
N8 N 0.3877(4) 0.7863(2) 0.7863(2) 0.0430 Uiso
N9 N 0.3877(4) 0.7137(2) 0.7137(2) 0.0430 Uiso
N10 N 0.7137(2) 0.6123(4) 0.7137(2) 0.0430 Uiso
N11 N 0.7863(2) 0.6123(4) 0.7863(2) 0.0430 Uiso
N12 N 0.7863(2) 0.3877(4) 0.7863(2) 0.0430 Uiso
N13 N 0.7137(2) 0.3877(4) 0.7137(2) 0.0430 Uiso
N14 N 0.8877(4) 0.7863(2) 0.7137(2) 0.0430 Uiso
N15 N 0.7863(2) 0.8877(4) 0.7137(2) 0.0430 Uiso
N16 N 0.7863(2) 0.8877(4) 0.2863(2) 0.0430 Uiso
N17 N 0.8877(4) 0.7863(2) 0.2863(2) 0.0430 Uiso
N18 N 0.7137(2) 0.6123(4) 0.2863(2) 0.0430 Uiso
N19 N 0.6123(4) 0.7137(2) 0.2863(2) 0.0430 Uiso
N20 N 0.7500 0.7500 0.35536(10) 0.0430 Uiso
N21 N 0.64464(10) 0.7500 0.7500 0.0430 Uiso
N22 N 0.35536(10) 0.7500 0.7500 0.0430 Uiso
N23 N 0.7500 0.64464(10) 0.7500 0.0430 Uiso
N24 N 0.7500 0.35536(10) 0.7500 0.0430 Uiso
N25 N 0.7500 0.85536(10) 0.7500 0.0430 Uiso
N26 N 0.7500 0.7500 0.85536(10) 0.0430 Uiso
N27 N 0.85536(10) 0.7500 0.7500 0.0430 Uiso
C3 C 0.7741(4) 0.7741(4) 0.5526(2) 0.0510 Uiso
C4 C 0.7741(4) 0.7741(4) 0.4474(2) 0.0510 Uiso
C5 C 0.7259(4) 0.7259(4) 0.4474(2) 0.0510 Uiso
C6 C 0.5526(2) 0.7259(4) 0.7259(4) 0.0510 Uiso
C7 C 0.5526(2) 0.7741(4) 0.7741(4) 0.0510 Uiso
C8 C 0.4474(2) 0.7741(4) 0.7741(4) 0.0510 Uiso
C9 C 0.4474(2) 0.7259(4) 0.7259(4) 0.0510 Uiso
C10 C 0.7259(4) 0.5526(2) 0.7259(4) 0.0510 Uiso
C11 C 0.7741(4) 0.5526(2) 0.7741(4) 0.0510 Uiso
C12 C 0.7741(4) 0.4474(2) 0.7741(4) 0.0510 Uiso
C13 C 0.7259(4) 0.4474(2) 0.7259(4) 0.0510 Uiso
C14 C 0.7999(6) 0.7999(6) 0.50000 0.0510 Uiso
C15 C 0.50000 0.7001(6) 0.7001(6) 0.0510 Uiso
C16 C 0.50000 0.7999(6) 0.7999(6) 0.0510 Uiso
C17 C 0.7001(6) 0.50000 0.7001(6) 0.0510 Uiso
C18 C 0.7999(6) 0.50000 0.7999(6) 0.0510 Uiso
H2 H 0.8302 0.8302 0.500 0.0380 Uiso
H3 H 0.500 0.6698 0.6698 0.0380 Uiso
H4 H 0.500 0.8302 0.8302 0.0380 Uiso
H5 H 0.6698 0.500 0.6698 0.0380 Uiso
H6 H 0.8302 0.500 0.8302 0.0380 Uiso
Co1_2 Co 0.2500 0.2500 0.75000 0.0140 Uiso
Co2_2 Co 0.3411(2) 0.3411(2) 0.6589(2) 0.0140 Uiso
Cl1_2 Cl 0.3946(3) 0.3946(3) 0.6054(3) 0.0440 Uiso
N1_2 N 0.2863(2) 0.2863(2) 0.6123(4) 0.0430 Uiso
N2_2 N 0.2500 0.2500 0.64464(10) 0.0430 Uiso
C1_2 C 0.2741(4) 0.2741(4) 0.5526(2) 0.0510 Uiso
C2_2 C 0.2999(6) 0.2999(6) 0.50000 0.0510 Uiso
H1_2 H 0.3302 0.3302 0.500 0.0380 Uiso
Co3_2 Co 0.2500 0.2500 0.25000 0.0140 Uiso
Co6_2 Co 0.1589(2) 0.1589(2) 0.6589(2) 0.0140 Uiso
Co7_2 Co 0.1589(2) 0.1589(2) 0.3411(2) 0.0140 Uiso
Co8_2 Co 0.3411(2) 0.3411(2) 0.3411(2) 0.0140 Uiso
Co9_2 Co 0.3411(2) 0.1589(2) 0.8411(2) 0.0140 Uiso
Co10_2 Co 0.6589(2) 0.1589(2) 0.8411(2) 0.0140 Uiso
Co12_2 Co 0.1589(2) 0.3411(2) 0.8411(2) 0.0140 Uiso
Co13_2 Co 0.1589(2) 0.6589(2) 0.8411(2) 0.0140 Uiso
Cl2_2 Cl 0.1054(3) 0.1054(3) 0.6054(3) 0.0440 Uiso
Cl3_2 Cl 0.1054(3) 0.1054(3) 0.3946(3) 0.0440 Uiso
Cl4_2 Cl 0.3946(3) 0.3946(3) 0.3946(3) 0.0440 Uiso
N3_2 N 0.2137(2) 0.2137(2) 0.6123(4) 0.0430 Uiso
N4_2 N 0.2137(2) 0.2137(2) 0.3877(4) 0.0430 Uiso
N5_2 N 0.2863(2) 0.2863(2) 0.3877(4) 0.0430 Uiso
N6_2 N 0.3877(4) 0.2863(2) 0.7137(2) 0.0430 Uiso
N7_2 N 0.3877(4) 0.2137(2) 0.7863(2) 0.0430 Uiso
N8_2 N 0.6123(4) 0.2137(2) 0.7863(2) 0.0430 Uiso
N9_2 N 0.6123(4) 0.2863(2) 0.7137(2) 0.0430 Uiso
N10_2 N 0.2863(2) 0.3877(4) 0.7137(2) 0.0430 Uiso
N11_2 N 0.2137(2) 0.3877(4) 0.7863(2) 0.0430 Uiso
N12_2 N 0.2137(2) 0.6123(4) 0.7863(2) 0.0430 Uiso
N13_2 N 0.2863(2) 0.6123(4) 0.7137(2) 0.0430 Uiso
N14_2 N 0.1123(4) 0.2137(2) 0.7137(2) 0.0430 Uiso
N15_2 N 0.2137(2) 0.1123(4) 0.7137(2) 0.0430 Uiso
N16_2 N 0.2137(2) 0.1123(4) 0.2863(2) 0.0430 Uiso
N17_2 N 0.1123(4) 0.2137(2) 0.2863(2) 0.0430 Uiso
N18_2 N 0.2863(2) 0.3877(4) 0.2863(2) 0.0430 Uiso
N19_2 N 0.3877(4) 0.2863(2) 0.2863(2) 0.0430 Uiso
N20_2 N 0.2500 0.2500 0.35536(10) 0.0430 Uiso
N21_2 N 0.35536(10) 0.2500 0.7500 0.0430 Uiso
N22_2 N 0.64464(10) 0.2500 0.7500 0.0430 Uiso
N23_2 N 0.2500 0.35536(10) 0.7500 0.0430 Uiso
N24_2 N 0.2500 0.64464(10) 0.7500 0.0430 Uiso
N25_2 N 0.2500 0.14464(10) 0.7500 0.0430 Uiso
N26_2 N 0.2500 0.2500 0.85536(10) 0.0430 Uiso
N27_2 N 0.14464(10) 0.2500 0.7500 0.0430 Uiso
C3_2 C 0.2259(4) 0.2259(4) 0.5526(2) 0.0510 Uiso
C4_2 C 0.2259(4) 0.2259(4) 0.4474(2) 0.0510 Uiso
C5_2 C 0.2741(4) 0.2741(4) 0.4474(2) 0.0510 Uiso
C6_2 C 0.4474(2) 0.2741(4) 0.7259(4) 0.0510 Uiso
C7_2 C 0.4474(2) 0.2259(4) 0.7741(4) 0.0510 Uiso
C8_2 C 0.5526(2) 0.2259(4) 0.7741(4) 0.0510 Uiso
C9_2 C 0.5526(2) 0.2741(4) 0.7259(4) 0.0510 Uiso
C10_2 C 0.2741(4) 0.4474(2) 0.7259(4) 0.0510 Uiso
C11_2 C 0.2259(4) 0.4474(2) 0.7741(4) 0.0510 Uiso
C12_2 C 0.2259(4) 0.5526(2) 0.7741(4) 0.0510 Uiso
C13_2 C 0.2741(4) 0.5526(2) 0.7259(4) 0.0510 Uiso
C14_2 C 0.2001(6) 0.2001(6) 0.50000 0.0510 Uiso
C15_2 C 0.50000 0.2999(6) 0.7001(6) 0.0510 Uiso
C16_2 C 0.50000 0.2001(6) 0.7999(6) 0.0510 Uiso
C17_2 C 0.2999(6) 0.50000 0.7001(6) 0.0510 Uiso
C18_2 C 0.2001(6) 0.50000 0.7999(6) 0.0510 Uiso
H2_2 H 0.1698 0.1698 0.500 0.0380 Uiso
H3_2 H 0.500 0.3302 0.6698 0.0380 Uiso
H4_2 H 0.500 0.1698 0.8302 0.0380 Uiso
H5_2 H 0.3302 0.500 0.6698 0.0380 Uiso
H6_2 H 0.1698 0.500 0.8302 0.0380 Uiso
Co1_3 Co 0.2500 0.7500 0.25000 0.0140 Uiso
Co2_3 Co 0.3411(2) 0.6589(2) 0.3411(2) 0.0140 Uiso
Cl1_3 Cl 0.3946(3) 0.6054(3) 0.3946(3) 0.0440 Uiso
N1_3 N 0.2863(2) 0.7137(2) 0.3877(4) 0.0430 Uiso
N2_3 N 0.2500 0.7500 0.35536(10) 0.0430 Uiso
C1_3 C 0.2741(4) 0.7259(4) 0.4474(2) 0.0510 Uiso
C2_3 C 0.2999(6) 0.7001(6) 0.50000 0.0510 Uiso
H1_3 H 0.3302 0.6698 0.500 0.0380 Uiso
Co6_3 Co 0.1589(2) 0.8411(2) 0.3411(2) 0.0140 Uiso
Co7_3 Co 0.1589(2) 0.8411(2) 0.6589(2) 0.0140 Uiso
Co9_3 Co 0.3411(2) 0.8411(2) 0.1589(2) 0.0140 Uiso
Co10_3 Co 0.6589(2) 0.8411(2) 0.1589(2) 0.0140 Uiso
Co12_3 Co 0.1589(2) 0.6589(2) 0.1589(2) 0.0140 Uiso
Co13_3 Co 0.1589(2) 0.3411(2) 0.1589(2) 0.0140 Uiso
Cl2_3 Cl 0.1054(3) 0.8946(3) 0.3946(3) 0.0440 Uiso
Cl3_3 Cl 0.1054(3) 0.8946(3) 0.6054(3) 0.0440 Uiso
Cl4_3 Cl 0.3946(3) 0.6054(3) 0.6054(3) 0.0440 Uiso
N3_3 N 0.2137(2) 0.7863(2) 0.3877(4) 0.0430 Uiso
N4_3 N 0.2137(2) 0.7863(2) 0.6123(4) 0.0430 Uiso
N5_3 N 0.2863(2) 0.7137(2) 0.6123(4) 0.0430 Uiso
N6_3 N 0.3877(4) 0.7137(2) 0.2863(2) 0.0430 Uiso
N7_3 N 0.3877(4) 0.7863(2) 0.2137(2) 0.0430 Uiso
N8_3 N 0.6123(4) 0.7863(2) 0.2137(2) 0.0430 Uiso
N10_3 N 0.2863(2) 0.6123(4) 0.2863(2) 0.0430 Uiso
N11_3 N 0.2137(2) 0.6123(4) 0.2137(2) 0.0430 Uiso
N12_3 N 0.2137(2) 0.3877(4) 0.2137(2) 0.0430 Uiso
N14_3 N 0.1123(4) 0.7863(2) 0.2863(2) 0.0430 Uiso
N15_3 N 0.2137(2) 0.8877(4) 0.2863(2) 0.0430 Uiso
N16_3 N 0.2137(2) 0.8877(4) 0.7137(2) 0.0430 Uiso
N17_3 N 0.1123(4) 0.7863(2) 0.7137(2) 0.0430 Uiso
N20_3 N 0.2500 0.7500 0.64464(10) 0.0430 Uiso
N21_3 N 0.35536(10) 0.7500 0.2500 0.0430 Uiso
N22_3 N 0.64464(10) 0.7500 0.2500 0.0430 Uiso
N23_3 N 0.2500 0.64464(10) 0.2500 0.0430 Uiso
N24_3 N 0.2500 0.35536(10) 0.2500 0.0430 Uiso
N25_3 N 0.2500 0.85536(10) 0.2500 0.0430 Uiso
N26_3 N 0.2500 0.7500 0.14464(10) 0.0430 Uiso
N27_3 N 0.14464(10) 0.7500 0.2500 0.0430 Uiso
C3_3 C 0.2259(4) 0.7741(4) 0.4474(2) 0.0510 Uiso
C4_3 C 0.2259(4) 0.7741(4) 0.5526(2) 0.0510 Uiso
C5_3 C 0.2741(4) 0.7259(4) 0.5526(2) 0.0510 Uiso
C6_3 C 0.4474(2) 0.7259(4) 0.2741(4) 0.0510 Uiso
C7_3 C 0.4474(2) 0.7741(4) 0.2259(4) 0.0510 Uiso
C8_3 C 0.5526(2) 0.7741(4) 0.2259(4) 0.0510 Uiso
C9_3 C 0.5526(2) 0.7259(4) 0.2741(4) 0.0510 Uiso
C10_3 C 0.2741(4) 0.5526(2) 0.2741(4) 0.0510 Uiso
C11_3 C 0.2259(4) 0.5526(2) 0.2259(4) 0.0510 Uiso
C12_3 C 0.2259(4) 0.4474(2) 0.2259(4) 0.0510 Uiso
C13_3 C 0.2741(4) 0.4474(2) 0.2741(4) 0.0510 Uiso
C14_3 C 0.2001(6) 0.7999(6) 0.50000 0.0510 Uiso
C15_3 C 0.50000 0.7001(6) 0.2999(6) 0.0510 Uiso
C16_3 C 0.50000 0.7999(6) 0.2001(6) 0.0510 Uiso
C17_3 C 0.2999(6) 0.50000 0.2999(6) 0.0510 Uiso
C18_3 C 0.2001(6) 0.50000 0.2001(6) 0.0510 Uiso
H2_3 H 0.1698 0.8302 0.500 0.0380 Uiso
H3_3 H 0.500 0.6698 0.3302 0.0380 Uiso
H4_3 H 0.500 0.8302 0.1698 0.0380 Uiso
H5_3 H 0.3302 0.500 0.3302 0.0380 Uiso
H6_3 H 0.1698 0.500 0.1698 0.0380 Uiso
Co1_4 Co 0.7500 0.2500 0.25000 0.0140 Uiso
Co2_4 Co 0.6589(2) 0.3411(2) 0.3411(2) 0.0140 Uiso
Cl1_4 Cl 0.6054(3) 0.3946(3) 0.3946(3) 0.0440 Uiso
N1_4 N 0.7137(2) 0.2863(2) 0.3877(4) 0.0430 Uiso
N2_4 N 0.7500 0.2500 0.35536(10) 0.0430 Uiso
C1_4 C 0.7259(4) 0.2741(4) 0.4474(2) 0.0510 Uiso
C2_4 C 0.7001(6) 0.2999(6) 0.50000 0.0510 Uiso
H1_4 H 0.6698 0.3302 0.500 0.0380 Uiso
Co6_4 Co 0.8411(2) 0.1589(2) 0.3411(2) 0.0140 Uiso
Co7_4 Co 0.8411(2) 0.1589(2) 0.6589(2) 0.0140 Uiso
Co9_4 Co 0.6589(2) 0.1589(2) 0.1589(2) 0.0140 Uiso
Co10_4 Co 0.3411(2) 0.1589(2) 0.1589(2) 0.0140 Uiso
Co12_4 Co 0.8411(2) 0.3411(2) 0.1589(2) 0.0140 Uiso
Co13_4 Co 0.8411(2) 0.6589(2) 0.1589(2) 0.0140 Uiso
Cl2_4 Cl 0.8946(3) 0.1054(3) 0.3946(3) 0.0440 Uiso
Cl3_4 Cl 0.8946(3) 0.1054(3) 0.6054(3) 0.0440 Uiso
Cl4_4 Cl 0.6054(3) 0.3946(3) 0.6054(3) 0.0440 Uiso
N3_4 N 0.7863(2) 0.2137(2) 0.3877(4) 0.0430 Uiso
N4_4 N 0.7863(2) 0.2137(2) 0.6123(4) 0.0430 Uiso
N5_4 N 0.7137(2) 0.2863(2) 0.6123(4) 0.0430 Uiso
N6_4 N 0.6123(4) 0.2863(2) 0.2863(2) 0.0430 Uiso
N7_4 N 0.6123(4) 0.2137(2) 0.2137(2) 0.0430 Uiso
N8_4 N 0.3877(4) 0.2137(2) 0.2137(2) 0.0430 Uiso
N10_4 N 0.7137(2) 0.3877(4) 0.2863(2) 0.0430 Uiso
N11_4 N 0.7863(2) 0.3877(4) 0.2137(2) 0.0430 Uiso
N12_4 N 0.7863(2) 0.6123(4) 0.2137(2) 0.0430 Uiso
N14_4 N 0.8877(4) 0.2137(2) 0.2863(2) 0.0430 Uiso
N15_4 N 0.7863(2) 0.1123(4) 0.2863(2) 0.0430 Uiso
N16_4 N 0.7863(2) 0.1123(4) 0.7137(2) 0.0430 Uiso
N17_4 N 0.8877(4) 0.2137(2) 0.7137(2) 0.0430 Uiso
N20_4 N 0.7500 0.2500 0.64464(10) 0.0430 Uiso
N21_4 N 0.64464(10) 0.2500 0.2500 0.0430 Uiso
N22_4 N 0.35536(10) 0.2500 0.2500 0.0430 Uiso
N23_4 N 0.7500 0.35536(10) 0.2500 0.0430 Uiso
N24_4 N 0.7500 0.64464(10) 0.2500 0.0430 Uiso
N25_4 N 0.7500 0.14464(10) 0.2500 0.0430 Uiso
N26_4 N 0.7500 0.2500 0.14464(10) 0.0430 Uiso
N27_4 N 0.85536(10) 0.2500 0.2500 0.0430 Uiso
C3_4 C 0.7741(4) 0.2259(4) 0.4474(2) 0.0510 Uiso
C4_4 C 0.7741(4) 0.2259(4) 0.5526(2) 0.0510 Uiso
C5_4 C 0.7259(4) 0.2741(4) 0.5526(2) 0.0510 Uiso
C6_4 C 0.5526(2) 0.2741(4) 0.2741(4) 0.0510 Uiso
C7_4 C 0.5526(2) 0.2259(4) 0.2259(4) 0.0510 Uiso
C8_4 C 0.4474(2) 0.2259(4) 0.2259(4) 0.0510 Uiso
C9_4 C 0.4474(2) 0.2741(4) 0.2741(4) 0.0510 Uiso
C10_4 C 0.7259(4) 0.4474(2) 0.2741(4) 0.0510 Uiso
C11_4 C 0.7741(4) 0.4474(2) 0.2259(4) 0.0510 Uiso
C12_4 C 0.7741(4) 0.5526(2) 0.2259(4) 0.0510 Uiso
C13_4 C 0.7259(4) 0.5526(2) 0.2741(4) 0.0510 Uiso
C14_4 C 0.7999(6) 0.2001(6) 0.50000 0.0510 Uiso
C15_4 C 0.50000 0.2999(6) 0.2999(6) 0.0510 Uiso
C16_4 C 0.50000 0.2001(6) 0.2001(6) 0.0510 Uiso
C17_4 C 0.7001(6) 0.50000 0.2999(6) 0.0510 Uiso
C18_4 C 0.7999(6) 0.50000 0.2001(6) 0.0510 Uiso
H2_4 H 0.8302 0.1698 0.500 0.0380 Uiso
H3_4 H 0.500 0.3302 0.3302 0.0380 Uiso
H4_4 H 0.500 0.1698 0.1698 0.0380 Uiso
H5_4 H 0.6698 0.500 0.3302 0.0380 Uiso
H6_4 H 0.8302 0.500 0.1698 0.0380 Uiso
Cl2_5 Cl 0.6054(3) 0.8946(3) 0.8946(3) 0.0440 Uiso
Cl3_5 Cl 0.3946(3) 0.8946(3) 0.8946(3) 0.0440 Uiso
N14_5 N 0.7137(2) 0.8877(4) 0.7863(2) 0.0430 Uiso
N15_5 N 0.7137(2) 0.7863(2) 0.8877(4) 0.0430 Uiso
N16_5 N 0.2863(2) 0.7863(2) 0.8877(4) 0.0430 Uiso
N17_5 N 0.2863(2) 0.8877(4) 0.7863(2) 0.0430 Uiso
Cl2_6 Cl 0.6054(3) 0.1054(3) 0.1054(3) 0.0440 Uiso
Cl3_6 Cl 0.3946(3) 0.1054(3) 0.1054(3) 0.0440 Uiso
N14_6 N 0.7137(2) 0.1123(4) 0.2137(2) 0.0430 Uiso
N15_6 N 0.7137(2) 0.2137(2) 0.1123(4) 0.0430 Uiso
N16_6 N 0.2863(2) 0.2137(2) 0.1123(4) 0.0430 Uiso
N17_6 N 0.2863(2) 0.1123(4) 0.2137(2) 0.0430 Uiso
Cl2_7 Cl 0.3946(3) 0.1054(3) 0.8946(3) 0.0440 Uiso
Cl3_7 Cl 0.6054(3) 0.1054(3) 0.8946(3) 0.0440 Uiso
N14_7 N 0.2863(2) 0.1123(4) 0.7863(2) 0.0430 Uiso
N15_7 N 0.2863(2) 0.2137(2) 0.8877(4) 0.0430 Uiso
N16_7 N 0.7137(2) 0.2137(2) 0.8877(4) 0.0430 Uiso
N17_7 N 0.7137(2) 0.1123(4) 0.7863(2) 0.0430 Uiso
Cl2_8 Cl 0.3946(3) 0.8946(3) 0.1054(3) 0.0440 Uiso
Cl3_8 Cl 0.6054(3) 0.8946(3) 0.1054(3) 0.0440 Uiso
N14_8 N 0.2863(2) 0.8877(4) 0.2137(2) 0.0430 Uiso
N15_8 N 0.2863(2) 0.7863(2) 0.1123(4) 0.0430 Uiso
N16_8 N 0.7137(2) 0.7863(2) 0.1123(4) 0.0430 Uiso
N17_8 N 0.7137(2) 0.8877(4) 0.2137(2) 0.0430 Uiso
Cl2_9 Cl 0.8946(3) 0.6054(3) 0.8946(3) 0.0440 Uiso
Cl3_9 Cl 0.8946(3) 0.3946(3) 0.8946(3) 0.0440 Uiso
N14_9 N 0.7863(2) 0.7137(2) 0.8877(4) 0.0430 Uiso
N15_9 N 0.8877(4) 0.7137(2) 0.7863(2) 0.0430 Uiso
N16_9 N 0.8877(4) 0.2863(2) 0.7863(2) 0.0430 Uiso
N17_9 N 0.7863(2) 0.2863(2) 0.8877(4) 0.0430 Uiso
Cl2_10 Cl 0.1054(3) 0.6054(3) 0.1054(3) 0.0440 Uiso
Cl3_10 Cl 0.1054(3) 0.3946(3) 0.1054(3) 0.0440 Uiso
N14_10 N 0.2137(2) 0.7137(2) 0.1123(4) 0.0430 Uiso
N15_10 N 0.1123(4) 0.7137(2) 0.2137(2) 0.0430 Uiso
N16_10 N 0.1123(4) 0.2863(2) 0.2137(2) 0.0430 Uiso
N17_10 N 0.2137(2) 0.2863(2) 0.1123(4) 0.0430 Uiso
Cl2_11 Cl 0.8946(3) 0.3946(3) 0.1054(3) 0.0440 Uiso
Cl3_11 Cl 0.8946(3) 0.6054(3) 0.1054(3) 0.0440 Uiso
N14_11 N 0.7863(2) 0.2863(2) 0.1123(4) 0.0430 Uiso
N15_11 N 0.8877(4) 0.2863(2) 0.2137(2) 0.0430 Uiso
N16_11 N 0.8877(4) 0.7137(2) 0.2137(2) 0.0430 Uiso
N17_11 N 0.7863(2) 0.7137(2) 0.1123(4) 0.0430 Uiso
Cl2_12 Cl 0.1054(3) 0.3946(3) 0.8946(3) 0.0440 Uiso
Cl3_12 Cl 0.1054(3) 0.6054(3) 0.8946(3) 0.0440 Uiso
N14_12 N 0.2137(2) 0.2863(2) 0.8877(4) 0.0430 Uiso
N15_12 N 0.1123(4) 0.2863(2) 0.7863(2) 0.0430 Uiso
N16_12 N 0.1123(4) 0.7137(2) 0.7863(2) 0.0430 Uiso
N17_12 N 0.2137(2) 0.7137(2) 0.8877(4) 0.0430 Uiso
N25_5 N 0.85536(10) 0.7500 0.2500 0.0430 Uiso
N26_5 N 0.7500 0.7500 0.14464(10) 0.0430 Uiso
N27_5 N 0.7500 0.85536(10) 0.2500 0.0430 Uiso
N25_6 N 0.14464(10) 0.2500 0.2500 0.0430 Uiso
N26_6 N 0.2500 0.2500 0.14464(10) 0.0430 Uiso
N27_6 N 0.2500 0.14464(10) 0.2500 0.0430 Uiso
N25_7 N 0.85536(10) 0.2500 0.7500 0.0430 Uiso
N26_7 N 0.7500 0.2500 0.85536(10) 0.0430 Uiso
N27_7 N 0.7500 0.14464(10) 0.7500 0.0430 Uiso
N25_8 N 0.14464(10) 0.7500 0.7500 0.0430 Uiso
N26_8 N 0.2500 0.7500 0.85536(10) 0.0430 Uiso
N27_8 N 0.2500 0.85536(10) 0.7500 0.0430 Uiso
C1_5 C 0.7259(4) 0.2259(4) 0.0526(2) 0.0510 Uiso
C2_5 C 0.7001(6) 0.2001(6) 0.00000 0.0510 Uiso
H1_5 H 0.6698 0.1698 0.000 0.0380 Uiso
C3_5 C 0.7741(4) 0.2741(4) 0.0526(2) 0.0510 Uiso
C10_5 C 0.7259(4) 0.0526(2) 0.2259(4) 0.0510 Uiso
C11_5 C 0.7741(4) 0.0526(2) 0.2741(4) 0.0510 Uiso
C14_5 C 0.7999(6) 0.2999(6) 0.00000 0.0510 Uiso
C17_5 C 0.7001(6) 0.00000 0.2001(6) 0.0510 Uiso
C18_5 C 0.7999(6) 0.00000 0.2999(6) 0.0510 Uiso
H2_5 H 0.8302 0.3302 0.000 0.0380 Uiso
H5_5 H 0.6698 0.000 0.1698 0.0380 Uiso
H6_5 H 0.8302 0.000 0.3302 0.0380 Uiso
C2_6 C 0.7001(6) 0.2001(6) 1.00000 0.0510 Uiso
H1_6 H 0.6698 0.1698 1.000 0.0380 Uiso
C4_5 C 0.7741(4) 0.2741(4) 0.9474(2) 0.0510 Uiso
C5_5 C 0.7259(4) 0.2259(4) 0.9474(2) 0.0510 Uiso
C14_6 C 0.7999(6) 0.2999(6) 1.00000 0.0510 Uiso
H2_6 H 0.8302 0.3302 1.000 0.0380 Uiso
C12_5 C 0.7741(4) 0.9474(2) 0.2741(4) 0.0510 Uiso
C13_5 C 0.7259(4) 0.9474(2) 0.2259(4) 0.0510 Uiso
C17_6 C 0.7001(6) 1.00000 0.2001(6) 0.0510 Uiso
C18_6 C 0.7999(6) 1.00000 0.2999(6) 0.0510 Uiso
H5_6 H 0.6698 1.000 0.1698 0.0380 Uiso
H6_6 H 0.8302 1.000 0.3302 0.0380 Uiso
C12_6 C 0.2259(4) 0.0526(2) 0.2741(4) 0.0510 Uiso
C13_6 C 0.2741(4) 0.0526(2) 0.2259(4) 0.0510 Uiso
C17_7 C 0.2999(6) -0.00000 0.2001(6) 0.0510 Uiso
C18_7 C 0.2001(6) -0.00000 0.2999(6) 0.0510 Uiso
H5_7 H 0.3302 -0.000 0.1698 0.0380 Uiso
H6_7 H 0.1698 -0.000 0.3302 0.0380 Uiso
C1_6 C 0.2741(4) 0.7741(4) 0.0526(2) 0.0510 Uiso
C2_7 C 0.2999(6) 0.7999(6) 0.00000 0.0510 Uiso
H1_7 H 0.3302 0.8302 0.000 0.0380 Uiso
C3_6 C 0.2259(4) 0.7259(4) 0.0526(2) 0.0510 Uiso
C10_6 C 0.2741(4) 0.9474(2) 0.2259(4) 0.0510 Uiso
C11_6 C 0.2259(4) 0.9474(2) 0.2741(4) 0.0510 Uiso
C14_7 C 0.2001(6) 0.7001(6) 0.00000 0.0510 Uiso
C17_8 C 0.2999(6) 1.00000 0.2001(6) 0.0510 Uiso
C18_8 C 0.2001(6) 1.00000 0.2999(6) 0.0510 Uiso
H2_7 H 0.1698 0.6698 0.000 0.0380 Uiso
H5_8 H 0.3302 1.000 0.1698 0.0380 Uiso
H6_8 H 0.1698 1.000 0.3302 0.0380 Uiso
C2_8 C 0.2999(6) 0.7999(6) 1.00000 0.0510 Uiso
H1_8 H 0.3302 0.8302 1.000 0.0380 Uiso
C4_6 C 0.2259(4) 0.7259(4) 0.9474(2) 0.0510 Uiso
C5_6 C 0.2741(4) 0.7741(4) 0.9474(2) 0.0510 Uiso
C14_8 C 0.2001(6) 0.7001(6) 1.00000 0.0510 Uiso
H2_8 H 0.1698 0.6698 1.000 0.0380 Uiso
C2_9 C 0.2999(6) 0.2001(6) 0.00000 0.0510 Uiso
H1_9 H 0.3302 0.1698 0.000 0.0380 Uiso
C4_7 C 0.2259(4) 0.2741(4) 0.0526(2) 0.0510 Uiso
C5_7 C 0.2741(4) 0.2259(4) 0.0526(2) 0.0510 Uiso
C14_9 C 0.2001(6) 0.2999(6) 0.00000 0.0510 Uiso
H2_9 H 0.1698 0.3302 0.000 0.0380 Uiso
C1_7 C 0.2741(4) 0.2259(4) 0.9474(2) 0.0510 Uiso
C2_10 C 0.2999(6) 0.2001(6) 1.00000 0.0510 Uiso
H1_10 H 0.3302 0.1698 1.000 0.0380 Uiso
C3_7 C 0.2259(4) 0.2741(4) 0.9474(2) 0.0510 Uiso
C10_7 C 0.2741(4) 0.0526(2) 0.7741(4) 0.0510 Uiso
C11_7 C 0.2259(4) 0.0526(2) 0.7259(4) 0.0510 Uiso
C14_10 C 0.2001(6) 0.2999(6) 1.00000 0.0510 Uiso
C17_9 C 0.2999(6) 0.00000 0.7999(6) 0.0510 Uiso
C18_9 C 0.2001(6) 0.00000 0.7001(6) 0.0510 Uiso
H2_10 H 0.1698 0.3302 1.000 0.0380 Uiso
H5_9 H 0.3302 0.000 0.8302 0.0380 Uiso
H6_9 H 0.1698 0.000 0.6698 0.0380 Uiso
C12_7 C 0.2259(4) 0.9474(2) 0.7259(4) 0.0510 Uiso
C13_7 C 0.2741(4) 0.9474(2) 0.7741(4) 0.0510 Uiso
C17_10 C 0.2999(6) 1.00000 0.7999(6) 0.0510 Uiso
C18_10 C 0.2001(6) 1.00000 0.7001(6) 0.0510 Uiso
H5_10 H 0.3302 1.000 0.8302 0.0380 Uiso
H6_10 H 0.1698 1.000 0.6698 0.0380 Uiso
C12_8 C 0.7741(4) 0.0526(2) 0.7259(4) 0.0510 Uiso
C13_8 C 0.7259(4) 0.0526(2) 0.7741(4) 0.0510 Uiso
C17_11 C 0.7001(6) -0.00000 0.7999(6) 0.0510 Uiso
C18_11 C 0.7999(6) -0.00000 0.7001(6) 0.0510 Uiso
H5_11 H 0.6698 -0.000 0.8302 0.0380 Uiso
H6_11 H 0.8302 -0.000 0.6698 0.0380 Uiso
C2_11 C 0.7001(6) 0.7999(6) 0.00000 0.0510 Uiso
H1_11 H 0.6698 0.8302 0.000 0.0380 Uiso
C4_8 C 0.7741(4) 0.7259(4) 0.0526(2) 0.0510 Uiso
C5_8 C 0.7259(4) 0.7741(4) 0.0526(2) 0.0510 Uiso
C14_11 C 0.7999(6) 0.7001(6) 0.00000 0.0510 Uiso
H2_11 H 0.8302 0.6698 0.000 0.0380 Uiso
C1_8 C 0.7259(4) 0.7741(4) 0.9474(2) 0.0510 Uiso
C2_12 C 0.7001(6) 0.7999(6) 1.00000 0.0510 Uiso
H1_12 H 0.6698 0.8302 1.000 0.0380 Uiso
C3_8 C 0.7741(4) 0.7259(4) 0.9474(2) 0.0510 Uiso
C10_8 C 0.7259(4) 0.9474(2) 0.7741(4) 0.0510 Uiso
C11_8 C 0.7741(4) 0.9474(2) 0.7259(4) 0.0510 Uiso
C14_12 C 0.7999(6) 0.7001(6) 1.00000 0.0510 Uiso
C17_12 C 0.7001(6) 1.00000 0.7999(6) 0.0510 Uiso
C18_12 C 0.7999(6) 1.00000 0.7001(6) 0.0510 Uiso
H2_12 H 0.8302 0.6698 1.000 0.0380 Uiso
H5_12 H 0.6698 1.000 0.8302 0.0380 Uiso
H6_12 H 0.8302 1.000 0.6698 0.0380 Uiso
C6_5 C 0.0526(2) 0.7259(4) 0.2259(4) 0.0510 Uiso
C7_5 C 0.0526(2) 0.7741(4) 0.2741(4) 0.0510 Uiso
C15_5 C 0.00000 0.7001(6) 0.2001(6) 0.0510 Uiso
C16_5 C 0.00000 0.7999(6) 0.2999(6) 0.0510 Uiso
H3_5 H 0.000 0.6698 0.1698 0.0380 Uiso
H4_5 H 0.000 0.8302 0.3302 0.0380 Uiso
C8_5 C 0.9474(2) 0.7741(4) 0.2741(4) 0.0510 Uiso
C9_5 C 0.9474(2) 0.7259(4) 0.2259(4) 0.0510 Uiso
C15_6 C 1.00000 0.7001(6) 0.2001(6) 0.0510 Uiso
C16_6 C 1.00000 0.7999(6) 0.2999(6) 0.0510 Uiso
H3_6 H 1.000 0.6698 0.1698 0.0380 Uiso
H4_6 H 1.000 0.8302 0.3302 0.0380 Uiso
C8_6 C 0.0526(2) 0.2259(4) 0.2741(4) 0.0510 Uiso
C9_6 C 0.0526(2) 0.2741(4) 0.2259(4) 0.0510 Uiso
C15_7 C -0.00000 0.2999(6) 0.2001(6) 0.0510 Uiso
C16_7 C -0.00000 0.2001(6) 0.2999(6) 0.0510 Uiso
H3_7 H -0.000 0.3302 0.1698 0.0380 Uiso
H4_7 H -0.000 0.1698 0.3302 0.0380 Uiso
C6_6 C 0.9474(2) 0.2741(4) 0.2259(4) 0.0510 Uiso
C7_6 C 0.9474(2) 0.2259(4) 0.2741(4) 0.0510 Uiso
C15_8 C 1.00000 0.2999(6) 0.2001(6) 0.0510 Uiso
C16_8 C 1.00000 0.2001(6) 0.2999(6) 0.0510 Uiso
H3_8 H 1.000 0.3302 0.1698 0.0380 Uiso
H4_8 H 1.000 0.1698 0.3302 0.0380 Uiso
C8_7 C 0.0526(2) 0.7741(4) 0.7259(4) 0.0510 Uiso
C9_7 C 0.0526(2) 0.7259(4) 0.7741(4) 0.0510 Uiso
C15_9 C -0.00000 0.7001(6) 0.7999(6) 0.0510 Uiso
C16_9 C -0.00000 0.7999(6) 0.7001(6) 0.0510 Uiso
H3_9 H -0.000 0.6698 0.8302 0.0380 Uiso
H4_9 H -0.000 0.8302 0.6698 0.0380 Uiso
C6_7 C 0.9474(2) 0.7259(4) 0.7741(4) 0.0510 Uiso
C7_7 C 0.9474(2) 0.7741(4) 0.7259(4) 0.0510 Uiso
C15_10 C 1.00000 0.7001(6) 0.7999(6) 0.0510 Uiso
C16_10 C 1.00000 0.7999(6) 0.7001(6) 0.0510 Uiso
H3_10 H 1.000 0.6698 0.8302 0.0380 Uiso
H4_10 H 1.000 0.8302 0.6698 0.0380 Uiso
C6_8 C 0.0526(2) 0.2741(4) 0.7741(4) 0.0510 Uiso
C7_8 C 0.0526(2) 0.2259(4) 0.7259(4) 0.0510 Uiso
C15_11 C 0.00000 0.2999(6) 0.7999(6) 0.0510 Uiso
C16_11 C 0.00000 0.2001(6) 0.7001(6) 0.0510 Uiso
H3_11 H 0.000 0.3302 0.8302 0.0380 Uiso
H4_11 H 0.000 0.1698 0.6698 0.0380 Uiso
C8_8 C 0.9474(2) 0.2259(4) 0.7259(4) 0.0510 Uiso
C9_8 C 0.9474(2) 0.2741(4) 0.7741(4) 0.0510 Uiso
C15_12 C 1.00000 0.2999(6) 0.7999(6) 0.0510 Uiso
C16_12 C 1.00000 0.2001(6) 0.7001(6) 0.0510 Uiso
H3_12 H 1.000 0.3302 0.8302 0.0380 Uiso
H4_12 H 1.000 0.1698 0.6698 0.0380 Uiso
loop_
_geom_bond_atom_site_label_1
_geom_bond_atom_site_label_2
_geom_bond_site_symmetry_1
_geom_bond_site_symmetry_2
Co1 N2 1_555 1_555
Co2 Cl1 1_555 1_555
N1 Co2 1_555 1_555
N2 N1 1_555 1_555
C1 N1 1_555 1_555
C2 C1 1_555 1_555
H1 C2 1_555 1_555
Co3 N20 1_555 1_555
Co4 N22 1_555 1_555
Co5 N24 1_555 1_555
Co6 Cl2 1_555 1_555
Co7 Cl3 1_555 1_555
Co8 Cl4 1_555 1_555
Co9 N7 1_555 1_555
Co10 N8 1_555 1_555
Co11 N9 1_555 1_555
Co12 N11 1_555 1_555
Co13 N12 1_555 1_555
Co14 N13 1_555 1_555
N3 N2 1_555 1_555
N4 Co7 1_555 1_555
N5 Co8 1_555 1_555
N6 Co2 1_555 1_555
N7 N21 1_555 1_555
N8 N22 1_555 1_555
N9 N22 1_555 1_555
N10 Co2 1_555 1_555
N11 N23 1_555 1_555
N12 N24 1_555 1_555
N13 N24 1_555 1_555
N14 Co6 1_555 1_555
N15 Co6 1_555 1_555
N16 Co7 1_555 1_555
N17 Co7 1_555 1_555
N18 Co8 1_555 1_555
N19 Co8 1_555 1_555
N20 N4 1_555 1_555
N21 Co1 1_555 1_555
N23 Co1 1_555 1_555
N25 Co1 1_555 1_555
N26 Co1 1_555 1_555
N27 Co1 1_555 1_555
C3 C1 1_555 1_555
C4 N4 1_555 1_555
C5 C2 1_555 1_555
C6 N6 1_555 1_555
C7 N7 1_555 1_555
C8 N8 1_555 1_555
C9 N9 1_555 1_555
C10 N10 1_555 1_555
C11 N11 1_555 1_555
C12 N12 1_555 1_555
C13 N13 1_555 1_555
C14 C3 1_555 1_555
C15 C6 1_555 1_555
C16 C7 1_555 1_555
C17 C10 1_555 1_555
C18 C11 1_555 1_555
H2 C14 1_555 1_555
H3 C15 1_555 1_555
H4 C16 1_555 1_555
H5 C17 1_555 1_555
H6 C18 1_555 1_555
Co6 N3 1_555 1_555
N3 C3 1_555 1_555
N5 N20 1_555 1_555
N5 C5 1_555 1_555
N6 N21 1_555 1_555
N10 N23 1_555 1_555
N14 N27 1_555 1_555
N15 N25 1_555 1_555
C4 C5 1_555 1_555
C4 C14 1_555 1_555
C6 C7 1_555 1_555
C8 C9 1_555 1_555
C8 C16 1_555 1_555
C9 C15 1_555 1_555
C10 C11 1_555 1_555
C12 C13 1_555 1_555
C12 C18 1_555 1_555
C13 C17 1_555 1_555
Co1_2 N2_2 1_555 1_555
Co2_2 Cl1_2 1_555 1_555
N1_2 Co2_2 1_555 1_555
N2_2 N1_2 1_555 1_555
C1_2 N1_2 1_555 1_555
C2_2 C1_2 1_555 1_555
H1_2 C2_2 1_555 1_555
Co3_2 N20_2 1_555 1_555
Co5 N22_2 1_555 1_555
Co4 N24_2 1_555 1_555
Co6_2 Cl2_2 1_555 1_555
Co7_2 Cl3_2 1_555 1_555
Co8_2 Cl4_2 1_555 1_555
Co9_2 N7_2 1_555 1_555
Co10_2 N8_2 1_555 1_555
Co14 N9_2 1_555 1_555
Co12_2 N11_2 1_555 1_555
Co13_2 N12_2 1_555 1_555
Co11 N13_2 1_555 1_555
N3_2 N2_2 1_555 1_555
N4_2 Co7_2 1_555 1_555
N5_2 Co8_2 1_555 1_555
N6_2 Co2_2 1_555 1_555
N7_2 N21_2 1_555 1_555
N8_2 N22_2 1_555 1_555
N9_2 N22_2 1_555 1_555
N10_2 Co2_2 1_555 1_555
N11_2 N23_2 1_555 1_555
N12_2 N24_2 1_555 1_555
N13_2 N24_2 1_555 1_555
N14_2 Co6_2 1_555 1_555
N15_2 Co6_2 1_555 1_555
N16_2 Co7_2 1_555 1_555
N17_2 Co7_2 1_555 1_555
N18_2 Co8_2 1_555 1_555
N19_2 Co8_2 1_555 1_555
N20_2 N4_2 1_555 1_555
N21_2 Co1_2 1_555 1_555
N23_2 Co1_2 1_555 1_555
N25_2 Co1_2 1_555 1_555
N26_2 Co1_2 1_555 1_555
N27_2 Co1_2 1_555 1_555
C3_2 C1_2 1_555 1_555
C4_2 N4_2 1_555 1_555
C5_2 C2_2 1_555 1_555
C6_2 N6_2 1_555 1_555
C7_2 N7_2 1_555 1_555
C8_2 N8_2 1_555 1_555
C9_2 N9_2 1_555 1_555
C10_2 N10_2 1_555 1_555
C11_2 N11_2 1_555 1_555
C12_2 N12_2 1_555 1_555
C13_2 N13_2 1_555 1_555
C14_2 C3_2 1_555 1_555
C15_2 C6_2 1_555 1_555
C16_2 C7_2 1_555 1_555
C17_2 C10_2 1_555 1_555
C18_2 C11_2 1_555 1_555
H2_2 C14_2 1_555 1_555
H3_2 C15_2 1_555 1_555
H4_2 C16_2 1_555 1_555
H5_2 C17_2 1_555 1_555
H6_2 C18_2 1_555 1_555
Co6_2 N3_2 1_555 1_555
N3_2 C3_2 1_555 1_555
N5_2 N20_2 1_555 1_555
N5_2 C5_2 1_555 1_555
N6_2 N21_2 1_555 1_555
N10_2 N23_2 1_555 1_555
N14_2 N27_2 1_555 1_555
N15_2 N25_2 1_555 1_555
C4_2 C5_2 1_555 1_555
C4_2 C14_2 1_555 1_555
C6_2 C7_2 1_555 1_555
C8_2 C9_2 1_555 1_555
C8_2 C16_2 1_555 1_555
C9_2 C15_2 1_555 1_555
C10_2 C11_2 1_555 1_555
C12_2 C13_2 1_555 1_555
C12_2 C18_2 1_555 1_555
C13_2 C17_2 1_555 1_555
Co1_3 N2_3 1_555 1_555
Co2_3 Cl1_3 1_555 1_555
N1_3 Co2_3 1_555 1_555
N2_3 N1_3 1_555 1_555
C1_3 N1_3 1_555 1_555
C2_3 C1_3 1_555 1_555
H1_3 C2_3 1_555 1_555
Co4 N20_3 1_555 1_555
Co3 N22_3 1_555 1_555
Co3_2 N24_3 1_555 1_555
Co6_3 Cl2_3 1_555 1_555
Co7_3 Cl3_3 1_555 1_555
Co11 Cl4_3 1_555 1_555
Co9_3 N7_3 1_555 1_555
Co10_3 N8_3 1_555 1_555
Co12_3 N11_3 1_555 1_555
Co13_3 N12_3 1_555 1_555
N3_3 N2_3 1_555 1_555
N4_3 Co7_3 1_555 1_555
N5_3 Co11 1_555 1_555
N6_3 Co2_3 1_555 1_555
N7_3 N21_3 1_555 1_555
N8_3 N22_3 1_555 1_555
N19 N22_3 1_555 1_555
N10_3 Co2_3 1_555 1_555
N11_3 N23_3 1_555 1_555
N12_3 N24_3 1_555 1_555
N18_2 N24_3 1_555 1_555
N14_3 Co6_3 1_555 1_555
N15_3 Co6_3 1_555 1_555
N16_3 Co7_3 1_555 1_555
N17_3 Co7_3 1_555 1_555
N20_3 N4_3 1_555 1_555
N21_3 Co1_3 1_555 1_555
N23_3 Co1_3 1_555 1_555
N25_3 Co1_3 1_555 1_555
N26_3 Co1_3 1_555 1_555
N27_3 Co1_3 1_555 1_555
C3_3 C1_3 1_555 1_555
C4_3 N4_3 1_555 1_555
C5_3 C2_3 1_555 1_555
C6_3 N6_3 1_555 1_555
C7_3 N7_3 1_555 1_555
C8_3 N8_3 1_555 1_555
C9_3 N19 1_555 1_555
C10_3 N10_3 1_555 1_555
C11_3 N11_3 1_555 1_555
C12_3 N12_3 1_555 1_555
C13_3 N18_2 1_555 1_555
C14_3 C3_3 1_555 1_555
C15_3 C6_3 1_555 1_555
C16_3 C7_3 1_555 1_555
C17_3 C10_3 1_555 1_555
C18_3 C11_3 1_555 1_555
H2_3 C14_3 1_555 1_555
H3_3 C15_3 1_555 1_555
H4_3 C16_3 1_555 1_555
H5_3 C17_3 1_555 1_555
H6_3 C18_3 1_555 1_555
Co6_3 N3_3 1_555 1_555
N3_3 C3_3 1_555 1_555
N5_3 N20_3 1_555 1_555
N5_3 C5_3 1_555 1_555
N6_3 N21_3 1_555 1_555
N10_3 N23_3 1_555 1_555
N14_3 N27_3 1_555 1_555
N15_3 N25_3 1_555 1_555
C4_3 C5_3 1_555 1_555
C4_3 C14_3 1_555 1_555
C6_3 C7_3 1_555 1_555
C8_3 C9_3 1_555 1_555
C8_3 C16_3 1_555 1_555
C9_3 C15_3 1_555 1_555
C10_3 C11_3 1_555 1_555
C12_3 C13_3 1_555 1_555
C12_3 C18_3 1_555 1_555
C13_3 C17_3 1_555 1_555
Co1_4 N2_4 1_555 1_555
Co2_4 Cl1_4 1_555 1_555
N1_4 Co2_4 1_555 1_555
N2_4 N1_4 1_555 1_555
C1_4 N1_4 1_555 1_555
C2_4 C1_4 1_555 1_555
H1_4 C2_4 1_555 1_555
Co5 N20_4 1_555 1_555
Co3_2 N22_4 1_555 1_555
Co3 N24_4 1_555 1_555
Co6_4 Cl2_4 1_555 1_555
Co7_4 Cl3_4 1_555 1_555
Co14 Cl4_4 1_555 1_555
Co9_4 N7_4 1_555 1_555
Co10_4 N8_4 1_555 1_555
Co12_4 N11_4 1_555 1_555
Co13_4 N12_4 1_555 1_555
N3_4 N2_4 1_555 1_555
N4_4 Co7_4 1_555 1_555
N5_4 Co14 1_555 1_555
N6_4 Co2_4 1_555 1_555
N7_4 N21_4 1_555 1_555
N8_4 N22_4 1_555 1_555
N19_2 N22_4 1_555 1_555
N10_4 Co2_4 1_555 1_555
N11_4 N23_4 1_555 1_555
N12_4 N24_4 1_555 1_555
N18 N24_4 1_555 1_555
N14_4 Co6_4 1_555 1_555
N15_4 Co6_4 1_555 1_555
N16_4 Co7_4 1_555 1_555
N17_4 Co7_4 1_555 1_555
N20_4 N4_4 1_555 1_555
N21_4 Co1_4 1_555 1_555
N23_4 Co1_4 1_555 1_555
N25_4 Co1_4 1_555 1_555
N26_4 Co1_4 1_555 1_555
N27_4 Co1_4 1_555 1_555
C3_4 C1_4 1_555 1_555
C4_4 N4_4 1_555 1_555
C5_4 C2_4 1_555 1_555
C6_4 N6_4 1_555 1_555
C7_4 N7_4 1_555 1_555
C8_4 N8_4 1_555 1_555
C9_4 N19_2 1_555 1_555
C10_4 N10_4 1_555 1_555
C11_4 N11_4 1_555 1_555
C12_4 N12_4 1_555 1_555
C13_4 N18 1_555 1_555
C14_4 C3_4 1_555 1_555
C15_4 C6_4 1_555 1_555
C16_4 C7_4 1_555 1_555
C17_4 C10_4 1_555 1_555
C18_4 C11_4 1_555 1_555
H2_4 C14_4 1_555 1_555
H3_4 C15_4 1_555 1_555
H4_4 C16_4 1_555 1_555
H5_4 C17_4 1_555 1_555
H6_4 C18_4 1_555 1_555
Co6_4 N3_4 1_555 1_555
N3_4 C3_4 1_555 1_555
N5_4 N20_4 1_555 1_555
N5_4 C5_4 1_555 1_555
N6_4 N21_4 1_555 1_555
N10_4 N23_4 1_555 1_555
N14_4 N27_4 1_555 1_555
N15_4 N25_4 1_555 1_555
C4_4 C5_4 1_555 1_555
C4_4 C14_4 1_555 1_555
C6_4 C7_4 1_555 1_555
C8_4 C9_4 1_555 1_555
C8_4 C16_4 1_555 1_555
C9_4 C15_4 1_555 1_555
C10_4 C11_4 1_555 1_555
C12_4 C13_4 1_555 1_555
C12_4 C18_4 1_555 1_555
C13_4 C17_4 1_555 1_555
Co9 Cl2_5 1_555 1_555
Co10 Cl3_5 1_555 1_555
N14_5 Co9 1_555 1_555
N15_5 Co9 1_555 1_555
N16_5 Co10 1_555 1_555
N17_5 Co10 1_555 1_555
N14_5 N25 1_555 1_555
N15_5 N26 1_555 1_555
Co9_4 Cl2_6 1_555 1_555
Co10_4 Cl3_6 1_555 1_555
N14_6 Co9_4 1_555 1_555
N15_6 Co9_4 1_555 1_555
N16_6 Co10_4 1_555 1_555
N17_6 Co10_4 1_555 1_555
N14_6 N25_4 1_555 1_555
N15_6 N26_4 1_555 1_555
Co9_2 Cl2_7 1_555 1_555
Co10_2 Cl3_7 1_555 1_555
N14_7 Co9_2 1_555 1_555
N15_7 Co9_2 1_555 1_555
N16_7 Co10_2 1_555 1_555
N17_7 Co10_2 1_555 1_555
N14_7 N25_2 1_555 1_555
N15_7 N26_2 1_555 1_555
Co9_3 Cl2_8 1_555 1_555
Co10_3 Cl3_8 1_555 1_555
N14_8 Co9_3 1_555 1_555
N15_8 Co9_3 1_555 1_555
N16_8 Co10_3 1_555 1_555
N17_8 Co10_3 1_555 1_555
N14_8 N25_3 1_555 1_555
N15_8 N26_3 1_555 1_555
Co12 Cl2_9 1_555 1_555
Co13 Cl3_9 1_555 1_555
N14_9 Co12 1_555 1_555
N15_9 Co12 1_555 1_555
N16_9 Co13 1_555 1_555
N17_9 Co13 1_555 1_555
N14_9 N26 1_555 1_555
N15_9 N27 1_555 1_555
Co12_3 Cl2_10 1_555 1_555
Co13_3 Cl3_10 1_555 1_555
N14_10 Co12_3 1_555 1_555
N15_10 Co12_3 1_555 1_555
N16_10 Co13_3 1_555 1_555
N17_10 Co13_3 1_555 1_555
N14_10 N26_3 1_555 1_555
N15_10 N27_3 1_555 1_555
Co12_4 Cl2_11 1_555 1_555
Co13_4 Cl3_11 1_555 1_555
N14_11 Co12_4 1_555 1_555
N15_11 Co12_4 1_555 1_555
N16_11 Co13_4 1_555 1_555
N17_11 Co13_4 1_555 1_555
N14_11 N26_4 1_555 1_555
N15_11 N27_4 1_555 1_555
Co12_2 Cl2_12 1_555 1_555
Co13_2 Cl3_12 1_555 1_555
N14_12 Co12_2 1_555 1_555
N15_12 Co12_2 1_555 1_555
N16_12 Co13_2 1_555 1_555
N17_12 Co13_2 1_555 1_555
N14_12 N26_2 1_555 1_555
N15_12 N27_2 1_555 1_555
N25_5 Co3 1_555 1_555
N26_5 Co3 1_555 1_555
N27_5 Co3 1_555 1_555
N16 N27_5 1_555 1_555
N17 N25_5 1_555 1_555
N25_6 Co3_2 1_555 1_555
N26_6 Co3_2 1_555 1_555
N27_6 Co3_2 1_555 1_555
N16_2 N27_6 1_555 1_555
N17_2 N25_6 1_555 1_555
N25_7 Co5 1_555 1_555
N26_7 Co5 1_555 1_555
N27_7 Co5 1_555 1_555
N16_4 N27_7 1_555 1_555
N17_4 N25_7 1_555 1_555
N25_8 Co4 1_555 1_555
N26_8 Co4 1_555 1_555
N27_8 Co4 1_555 1_555
N16_3 N27_8 1_555 1_555
N17_3 N25_8 1_555 1_555
N16_11 N25_5 1_555 1_555
N17_11 N26_5 1_555 1_555
N16_12 N25_8 1_555 1_555
N17_12 N26_8 1_555 1_555
N16_10 N25_6 1_555 1_555
N17_10 N26_6 1_555 1_555
N16_9 N25_7 1_555 1_555
N17_9 N26_7 1_555 1_555
N16_8 N26_5 1_555 1_555
N17_8 N27_5 1_555 1_555
N16_7 N26_7 1_555 1_555
N17_7 N27_7 1_555 1_555
N16_5 N26_8 1_555 1_555
N17_5 N27_8 1_555 1_555
N16_6 N26_6 1_555 1_555
N17_6 N27_6 1_555 1_555
C1_5 N15_6 1_555 1_555
C2_5 C1_5 1_555 1_555
H1_5 C2_5 1_555 1_555
C3_5 C1_5 1_555 1_555
C10_5 N14_6 1_555 1_555
C11_5 N15_4 1_555 1_555
C14_5 C3_5 1_555 1_555
C17_5 C10_5 1_555 1_555
C18_5 C11_5 1_555 1_555
H2_5 C14_5 1_555 1_555
H5_5 C17_5 1_555 1_555
H6_5 C18_5 1_555 1_555
N14_11 C3_5 1_555 1_555
C10_5 C11_5 1_555 1_555
H1_6 C2_6 1_555 1_555
C4_5 N17_9 1_555 1_555
C5_5 C2_6 1_555 1_555
H2_6 C14_6 1_555 1_555
N16_7 C5_5 1_555 1_555
C4_5 C5_5 1_555 1_555
C4_5 C14_6 1_555 1_555
C12_5 N16 1_555 1_555
C13_5 N17_8 1_555 1_555
H5_6 C17_6 1_555 1_555
H6_6 C18_6 1_555 1_555
C12_5 C13_5 1_555 1_555
C12_5 C18_6 1_555 1_555
C13_5 C17_6 1_555 1_555
C12_6 N16_2 1_555 1_555
C13_6 N17_6 1_555 1_555
H5_7 C17_7 1_555 1_555
H6_7 C18_7 1_555 1_555
C12_6 C13_6 1_555 1_555
C12_6 C18_7 1_555 1_555
C13_6 C17_7 1_555 1_555
C1_6 N15_8 1_555 1_555
C2_7 C1_6 1_555 1_555
H1_7 C2_7 1_555 1_555
C3_6 C1_6 1_555 1_555
C10_6 N14_8 1_555 1_555
C11_6 N15_3 1_555 1_555
C14_7 C3_6 1_555 1_555
C17_8 C10_6 1_555 1_555
C18_8 C11_6 1_555 1_555
H2_7 C14_7 1_555 1_555
H5_8 C17_8 1_555 1_555
H6_8 C18_8 1_555 1_555
N14_10 C3_6 1_555 1_555
C10_6 C11_6 1_555 1_555
H1_8 C2_8 1_555 1_555
C4_6 N17_12 1_555 1_555
C5_6 C2_8 1_555 1_555
H2_8 C14_8 1_555 1_555
N16_5 C5_6 1_555 1_555
C4_6 C5_6 1_555 1_555
C4_6 C14_8 1_555 1_555
H1_9 C2_9 1_555 1_555
C4_7 N17_10 1_555 1_555
C5_7 C2_9 1_555 1_555
H2_9 C14_9 1_555 1_555
N16_6 C5_7 1_555 1_555
C4_7 C5_7 1_555 1_555
C4_7 C14_9 1_555 1_555
C1_7 N15_7 1_555 1_555
C2_10 C1_7 1_555 1_555
H1_10 C2_10 1_555 1_555
C3_7 C1_7 1_555 1_555
C10_7 N14_7 1_555 1_555
C11_7 N15_2 1_555 1_555
C14_10 C3_7 1_555 1_555
C17_9 C10_7 1_555 1_555
C18_9 C11_7 1_555 1_555
H2_10 C14_10 1_555 1_555
H5_9 C17_9 1_555 1_555
H6_9 C18_9 1_555 1_555
N14_12 C3_7 1_555 1_555
C10_7 C11_7 1_555 1_555
C12_7 N16_3 1_555 1_555
C13_7 N17_5 1_555 1_555
H5_10 C17_10 1_555 1_555
H6_10 C18_10 1_555 1_555
C12_7 C13_7 1_555 1_555
C12_7 C18_10 1_555 1_555
C13_7 C17_10 1_555 1_555
C12_8 N16_4 1_555 1_555
C13_8 N17_7 1_555 1_555
H5_11 C17_11 1_555 1_555
H6_11 C18_11 1_555 1_555
C12_8 C13_8 1_555 1_555
C12_8 C18_11 1_555 1_555
C13_8 C17_11 1_555 1_555
H1_11 C2_11 1_555 1_555
C4_8 N17_11 1_555 1_555
C5_8 C2_11 1_555 1_555
H2_11 C14_11 1_555 1_555
N16_8 C5_8 1_555 1_555
C4_8 C5_8 1_555 1_555
C4_8 C14_11 1_555 1_555
C1_8 N15_5 1_555 1_555
C2_12 C1_8 1_555 1_555
H1_12 C2_12 1_555 1_555
C3_8 C1_8 1_555 1_555
C10_8 N14_5 1_555 1_555
C11_8 N15 1_555 1_555
C14_12 C3_8 1_555 1_555
C17_12 C10_8 1_555 1_555
C18_12 C11_8 1_555 1_555
H2_12 C14_12 1_555 1_555
H5_12 C17_12 1_555 1_555
H6_12 C18_12 1_555 1_555
N14_9 C3_8 1_555 1_555
C10_8 C11_8 1_555 1_555
C6_5 N15_10 1_555 1_555
C7_5 N14_3 1_555 1_555
C15_5 C6_5 1_555 1_555
C16_5 C7_5 1_555 1_555
H3_5 C15_5 1_555 1_555
H4_5 C16_5 1_555 1_555
C6_5 C7_5 1_555 1_555
C8_5 N17 1_555 1_555
C9_5 N16_11 1_555 1_555
H3_6 C15_6 1_555 1_555
H4_6 C16_6 1_555 1_555
C8_5 C9_5 1_555 1_555
C8_5 C16_6 1_555 1_555
C9_5 C15_6 1_555 1_555
C8_6 N17_2 1_555 1_555
C9_6 N16_10 1_555 1_555
H3_7 C15_7 1_555 1_555
H4_7 C16_7 1_555 1_555
C8_6 C9_6 1_555 1_555
C8_6 C16_7 1_555 1_555
C9_6 C15_7 1_555 1_555
C6_6 N15_11 1_555 1_555
C7_6 N14_4 1_555 1_555
C15_8 C6_6 1_555 1_555
C16_8 C7_6 1_555 1_555
H3_8 C15_8 1_555 1_555
H4_8 C16_8 1_555 1_555
C6_6 C7_6 1_555 1_555
C8_7 N17_3 1_555 1_555
C9_7 N16_12 1_555 1_555
H3_9 C15_9 1_555 1_555
H4_9 C16_9 1_555 1_555
C8_7 C9_7 1_555 1_555
C8_7 C16_9 1_555 1_555
C9_7 C15_9 1_555 1_555
C6_7 N15_9 1_555 1_555
C7_7 N14 1_555 1_555
C15_10 C6_7 1_555 1_555
C16_10 C7_7 1_555 1_555
H3_10 C15_10 1_555 1_555
H4_10 C16_10 1_555 1_555
C6_7 C7_7 1_555 1_555
C6_8 N15_12 1_555 1_555
C7_8 N14_2 1_555 1_555
C15_11 C6_8 1_555 1_555
C16_11 C7_8 1_555 1_555
H3_11 C15_11 1_555 1_555
H4_11 C16_11 1_555 1_555
C6_8 C7_8 1_555 1_555
C8_8 N17_4 1_555 1_555
C9_8 N16_9 1_555 1_555
H3_12 C15_12 1_555 1_555
H4_12 C16_12 1_555 1_555
C8_8 C9_8 1_555 1_555
C8_8 C16_12 1_555 1_555
C9_8 C15_12 1_555 1_555

#END
