
###############################################################################
#
# This file contains modified crystal structure data generated from the
# MOF subset of the Cambridge Structural Database (CSD) v543 
# hosted by the Cambridge Crystallographic Data Centre (CCDC).
#
# This work is licensed under the Creative Commons
# Attribution-NonCommercial-ShareAlike 4.0 International License.
# To view a copy of this license, visit
# http://creativecommons.org/licenses/by-nc-sa/4.0/
# or send a letter to
# Creative Commons, PO Box 1866, Mountain View, CA 94042, USA.
#
# CIF created using the CSD Python API on 29 September 2022
# The structure has been converted into the P1 space group
# The structure has a 3D framework
# The original CSD entry XALTIP is in the cubic crystal system
# The framework has been calculated to contain at least 10.0% void space
# The void calculation uses a probe of radius 1.32A, grid spacing 0.4
#
###############################################################################

data_XALTIP
_chemical_formula_moiety         '(C288 H96 Cl32 Co32 N144 O72 Zn8)n'
_symmetry_cell_setting           triclinic
_symmetry_space_group_name_H-M   'P 1'
_symmetry_Int_Tables_number      1
_space_group_name_Hall           'P 1'
loop_
_symmetry_equiv_pos_site_id
_symmetry_equiv_pos_as_xyz
1 x,y,z
_cell_length_a                   30.9950(7)
_cell_length_b                   30.9950(7)
_cell_length_c                   30.9950(7)
_cell_angle_alpha                90
_cell_angle_beta                 90
_cell_angle_gamma                90
_cell_volume                     29776.6
loop_
_atom_site_label
_atom_site_type_symbol
_atom_site_fract_x
_atom_site_fract_y
_atom_site_fract_z
Co1 Co 0.3185(3) 0.3185(3) 0.181542
Cl1 Cl 0.356(2) 0.356(2) 0.144360
N1 N 0.3399(3) 0.2752(2) 0.224812
C1 C 0.38267(10) 0.2665(3) 0.233457
N2 N 0.3146(6) 0.25000 0.25000
C2 C 0.4215(2) 0.2826(2) 0.217351
C3 C 0.4612(2) 0.2669(2) 0.233142
O1 O 0.50000 0.2834(4) 0.216589
Zn1 Zn 0.25000 0.25000 0.25000
H1 H 0.421274 0.303866 0.196134
Co2 Co 0.6815(3) 0.3185(3) 0.181542
Co3 Co 0.6815(3) 0.181542 0.3185(3)
Co4 Co 0.3185(3) 0.181542 0.3185(3)
Co5 Co 0.181542 0.3185(3) 0.3185(3)
Co6 Co 0.181542 0.6815(3) 0.3185(3)
Co7 Co 0.3185(3) 0.6815(3) 0.181542
Co8 Co 0.3185(3) 0.181542 0.6815(3)
Co9 Co 0.181542 0.3185(3) 0.6815(3)
Co10 Co 0.181542 0.1815(3) 0.1815(3)
Cl2 Cl 0.644(2) 0.356(2) 0.144360
Cl3 Cl 0.644(2) 0.144360 0.356(2)
Cl4 Cl 0.356(2) 0.144360 0.356(2)
Cl5 Cl 0.144360 0.356(2) 0.356(2)
Cl6 Cl 0.144360 0.644(2) 0.356(2)
Cl7 Cl 0.356(2) 0.644(2) 0.144360
Cl8 Cl 0.356(2) 0.144360 0.644(2)
N3 N 0.6601(3) 0.2752(2) 0.224812
N4 N 0.6601(3) 0.224812 0.2752(2)
N5 N 0.3399(3) 0.224812 0.2752(2)
N6 N 0.224812 0.3399(3) 0.2752(2)
N7 N 0.224812 0.6601(3) 0.2752(2)
N8 N 0.2752(2) 0.6601(3) 0.224812
N9 N 0.2752(2) 0.3399(3) 0.224812
N10 N 0.2752(2) 0.224812 0.3399(3)
N11 N 0.2752(2) 0.224812 0.6601(3)
N12 N 0.224812 0.2752(2) 0.6601(3)
N13 N 0.224812 0.2752(2) 0.3399(3)
N14 N 0.224812 0.1601(3) 0.2248(2)
N17 N 0.2752(2) 0.1601(3) 0.275188
N18 N 0.2752(2) 0.275188 0.1601(3)
N21 N 0.224812 0.2248(2) 0.1601(3)
N22 N 0.1601(3) 0.2752(2) 0.275188
N25 N 0.1601(3) 0.224812 0.2248(2)
N26 N 0.724812 0.3399(3) 0.2248(2)
N27 N 0.724812 0.2752(2) 0.1601(3)
N28 N 0.724812 0.2248(2) 0.3399(3)
N29 N 0.724812 0.1601(3) 0.2752(2)
N30 N 0.2248(2) 0.724812 0.3399(3)
N31 N 0.1601(3) 0.724812 0.2752(2)
N32 N 0.3399(3) 0.724812 0.2248(2)
N33 N 0.2752(2) 0.724812 0.1601(3)
N34 N 0.3399(3) 0.2248(2) 0.724812
N35 N 0.2752(2) 0.1601(3) 0.724812
C4 C 0.61733(10) 0.2665(3) 0.233457
C5 C 0.61733(10) 0.233457 0.2665(3)
C6 C 0.38267(10) 0.233457 0.2665(3)
C7 C 0.233457 0.38267(10) 0.2665(3)
C8 C 0.233457 0.61733(10) 0.2665(3)
C9 C 0.2665(3) 0.61733(10) 0.233457
C10 C 0.2665(3) 0.38267(10) 0.233457
C11 C 0.2665(3) 0.233457 0.38267(10)
C12 C 0.2665(3) 0.233457 0.61733(10)
C13 C 0.233457 0.2665(3) 0.61733(10)
C14 C 0.233457 0.2665(3) 0.38267(10)
C15 C 0.233457 0.11733(10) 0.2335(3)
C18 C 0.2665(3) 0.11733(10) 0.266543
C19 C 0.2665(3) 0.266543 0.11733(10)
C22 C 0.233457 0.2335(3) 0.11733(10)
C23 C 0.11733(10) 0.2665(3) 0.266543
C26 C 0.11733(10) 0.233457 0.2335(3)
N36 N 0.6854(6) 0.25000 0.25000
N37 N 0.25000 0.3146(6) 0.25000
N38 N 0.25000 0.6854(6) 0.25000
N39 N 0.25000 0.25000 0.3146(6)
N40 N 0.25000 0.25000 0.6854(6)
N41 N 0.25000 0.1854(6) 0.25000
N43 N 0.25000 0.25000 0.1854(6)
N45 N 0.1854(6) 0.25000 0.25000
N47 N 0.75000 0.3146(6) 0.25000
N48 N 0.75000 0.25000 0.3146(6)
N49 N 0.75000 0.1854(6) 0.25000
N50 N 0.75000 0.25000 0.1854(6)
N51 N 0.8146(6) 0.25000 0.25000
C27 C 0.5785(2) 0.2826(2) 0.217351
C28 C 0.5785(2) 0.217351 0.2826(2)
C29 C 0.4215(2) 0.217351 0.2826(2)
C30 C 0.217351 0.4215(2) 0.2826(2)
C31 C 0.217351 0.5785(2) 0.2826(2)
C32 C 0.2826(2) 0.5785(2) 0.217351
C33 C 0.2826(2) 0.4215(2) 0.217351
C34 C 0.2826(2) 0.217351 0.4215(2)
C35 C 0.2826(2) 0.217351 0.5785(2)
C36 C 0.217351 0.2826(2) 0.5785(2)
C37 C 0.217351 0.2826(2) 0.4215(2)
C38 C 0.217351 0.0785(2) 0.2174(2)
C41 C 0.2826(2) 0.0785(2) 0.282649
C42 C 0.2826(2) 0.282649 0.0785(2)
C45 C 0.217351 0.2174(2) 0.0785(2)
C46 C 0.0785(2) 0.2826(2) 0.282649
C49 C 0.0785(2) 0.217351 0.2174(2)
C50 C 0.5388(2) 0.2669(2) 0.233142
C51 C 0.5388(2) 0.233142 0.2669(2)
C52 C 0.4612(2) 0.233142 0.2669(2)
C53 C 0.233142 0.4612(2) 0.2669(2)
C54 C 0.233142 0.5388(2) 0.2669(2)
C55 C 0.2669(2) 0.5388(2) 0.233142
C56 C 0.2669(2) 0.4612(2) 0.233142
C57 C 0.2669(2) 0.233142 0.4612(2)
C58 C 0.2669(2) 0.233142 0.5388(2)
C59 C 0.233142 0.2669(2) 0.5388(2)
C60 C 0.233142 0.2669(2) 0.4612(2)
C61 C 0.233142 0.0388(2) 0.2331(2)
C64 C 0.2669(2) 0.0388(2) 0.266858
C65 C 0.2669(2) 0.266858 0.0388(2)
C68 C 0.233142 0.2331(2) 0.0388(2)
C69 C 0.0388(2) 0.2669(2) 0.266858
C72 C 0.0388(2) 0.233142 0.2331(2)
O2 O 0.50000 0.216589 0.2834(4)
O3 O 0.216589 0.50000 0.2834(4)
O4 O 0.2834(4) 0.50000 0.216589
O5 O 0.2834(4) 0.216589 0.50000
O6 O 0.216589 0.2834(4) 0.50000
O7 O 0.216589 0.00000 0.2166(4)
O8 O 0.2834(4) 0.00000 0.283411
O9 O 0.2834(4) 0.283411 0.00000
O10 O 0.216589 0.2166(4) 0.00000
O11 O 0.00000 0.2834(4) 0.283411
O12 O 0.00000 0.216589 0.2166(4)
Zn2 Zn 0.75000 0.25000 0.25000
Zn3 Zn 0.25000 0.75000 0.25000
Zn4 Zn 0.25000 0.25000 0.75000
H2 H 0.421274 0.196134 0.303866
H3 H 0.578726 0.196134 0.303866
H4 H 0.578726 0.303866 0.196134
H5 H 0.196134 0.421274 0.303866
H6 H 0.303866 0.421274 0.196134
H7 H 0.303866 0.578726 0.196134
H8 H 0.196134 0.578726 0.303866
H9 H 0.303866 0.196134 0.421274
H10 H 0.196134 0.303866 0.421274
H11 H 0.196134 0.303866 0.578726
H12 H 0.303866 0.196134 0.578726
H13 H 0.196134 0.078726 0.196134
H14 H 0.303866 0.078726 0.303866
H17 H 0.303866 0.303866 0.078726
H18 H 0.196134 0.196134 0.078726
H21 H 0.078726 0.303866 0.303866
H22 H 0.078726 0.196134 0.196134
Co13 Co 0.3185(3) 0.318458 0.8185(3)
Co14 Co 0.181542 0.1815(3) 0.8185(3)
N19 N 0.2752(2) 0.275188 0.8399(3)
N20 N 0.224812 0.2248(2) 0.8399(3)
C20 C 0.2665(3) 0.266543 0.88267(10)
C21 C 0.233457 0.2335(3) 0.88267(10)
N44 N 0.25000 0.25000 0.8146(6)
C43 C 0.2826(2) 0.282649 0.9215(2)
C44 C 0.217351 0.2174(2) 0.9215(2)
C66 C 0.2669(2) 0.266858 0.9612(2)
C67 C 0.233142 0.2331(2) 0.9612(2)
O9_2 O 0.2834(4) 0.283411 1.00000
O10_2 O 0.216589 0.2166(4) 1.00000
H19 H 0.196134 0.196134 0.921274
H20 H 0.303866 0.303866 0.921274
Co11 Co 0.181542 0.8185(3) 0.1815(3)
Co12 Co 0.3185(3) 0.8185(3) 0.318458
N15 N 0.224812 0.8399(3) 0.2248(2)
N16 N 0.2752(2) 0.8399(3) 0.275188
C16 C 0.233457 0.88267(10) 0.2335(3)
C17 C 0.2665(3) 0.88267(10) 0.266543
N42 N 0.25000 0.8146(6) 0.25000
C39 C 0.217351 0.9215(2) 0.2174(2)
C40 C 0.2826(2) 0.9215(2) 0.282649
C62 C 0.233142 0.9612(2) 0.2331(2)
C63 C 0.2669(2) 0.9612(2) 0.266858
O7_2 O 0.216589 1.00000 0.2166(4)
O8_2 O 0.2834(4) 1.00000 0.283411
H15 H 0.303866 0.921274 0.303866
H16 H 0.196134 0.921274 0.196134
Co15 Co 0.8185(3) 0.3185(3) 0.318458
Co16 Co 0.8185(3) 0.181542 0.1815(3)
N23 N 0.8399(3) 0.2752(2) 0.275188
N24 N 0.8399(3) 0.224812 0.2248(2)
C24 C 0.88267(10) 0.2665(3) 0.266543
C25 C 0.88267(10) 0.233457 0.2335(3)
C47 C 0.9215(2) 0.2826(2) 0.282649
C48 C 0.9215(2) 0.217351 0.2174(2)
C70 C 0.9612(2) 0.2669(2) 0.266858
C71 C 0.9612(2) 0.233142 0.2331(2)
O11_2 O 1.00000 0.2834(4) 0.283411
O12_2 O 1.00000 0.216589 0.2166(4)
H23 H 0.921274 0.196134 0.196134
H24 H 0.921274 0.303866 0.303866
N24_2 N 0.1601(3) 0.775188 0.2248(2)
C24_2 C 0.11733(10) 0.7335(3) 0.266543
C25_2 C 0.11733(10) 0.766543 0.2335(3)
N46 N 0.1854(6) 0.75000 0.25000
C47_2 C 0.0785(2) 0.7174(2) 0.282649
C48_2 C 0.0785(2) 0.782649 0.2174(2)
C70_2 C 0.0388(2) 0.7331(2) 0.266858
C71_2 C 0.0388(2) 0.766858 0.2331(2)
O11_3 O -0.00000 0.7166(4) 0.283411
O12_3 O 0.00000 0.783411 0.2166(4)
H23_2 H 0.078726 0.803866 0.196134
H24_2 H 0.078726 0.696134 0.303866
N15_2 N 0.775188 0.1601(3) 0.2248(2)
C16_2 C 0.766543 0.11733(10) 0.2335(3)
C17_2 C 0.7335(3) 0.11733(10) 0.266543
C39_2 C 0.782649 0.0785(2) 0.2174(2)
C40_2 C 0.7174(2) 0.0785(2) 0.282649
C62_2 C 0.766858 0.0388(2) 0.2331(2)
C63_2 C 0.7331(2) 0.0388(2) 0.266858
O7_3 O 0.783411 0.00000 0.2166(4)
O8_3 O 0.7166(4) 0.00000 0.283411
H15_2 H 0.696134 0.078726 0.303866
H16_2 H 0.803866 0.078726 0.196134
Co1_2 Co 0.6815(3) 0.6815(3) 0.181542
Cl1_2 Cl 0.644(2) 0.644(2) 0.144360
N1_2 N 0.6601(3) 0.7248(2) 0.224812
C1_2 C 0.61733(10) 0.7335(3) 0.233457
N2_2 N 0.6854(6) 0.75000 0.25000
C2_2 C 0.5785(2) 0.7174(2) 0.217351
C3_2 C 0.5388(2) 0.7331(2) 0.233142
O1_2 O 0.50000 0.7166(4) 0.216589
Zn1_2 Zn 0.75000 0.75000 0.25000
H1_2 H 0.578726 0.696134 0.196134
Co4_2 Co 0.6815(3) 0.818458 0.3185(3)
Co5_2 Co 0.818458 0.6815(3) 0.3185(3)
Co8_2 Co 0.6815(3) 0.818458 0.6815(3)
Co9_2 Co 0.818458 0.6815(3) 0.6815(3)
Co10_2 Co 0.818458 0.8185(3) 0.1815(3)
Cl3_2 Cl 0.356(2) 0.855640 0.356(2)
Cl4_2 Cl 0.644(2) 0.855640 0.356(2)
Cl5_2 Cl 0.855640 0.644(2) 0.356(2)
Cl6_2 Cl 0.855640 0.356(2) 0.356(2)
Cl8_2 Cl 0.644(2) 0.855640 0.644(2)
N4_2 N 0.3399(3) 0.775188 0.2752(2)
N5_2 N 0.6601(3) 0.775188 0.2752(2)
N6_2 N 0.775188 0.6601(3) 0.2752(2)
N7_2 N 0.775188 0.3399(3) 0.2752(2)
N9_2 N 0.7248(2) 0.6601(3) 0.224812
N10_2 N 0.7248(2) 0.775188 0.3399(3)
N11_2 N 0.7248(2) 0.775188 0.6601(3)
N12_2 N 0.775188 0.7248(2) 0.6601(3)
N13_2 N 0.775188 0.7248(2) 0.3399(3)
N14_2 N 0.775188 0.8399(3) 0.2248(2)
N17_2 N 0.7248(2) 0.8399(3) 0.275188
N18_2 N 0.7248(2) 0.724812 0.1601(3)
N21_2 N 0.775188 0.7752(2) 0.1601(3)
N22_2 N 0.8399(3) 0.7248(2) 0.275188
N25_2 N 0.8399(3) 0.775188 0.2248(2)
N28_2 N 0.275188 0.7752(2) 0.3399(3)
N30_2 N 0.7752(2) 0.275188 0.3399(3)
N34_2 N 0.6601(3) 0.7752(2) 0.724812
N35_2 N 0.7248(2) 0.8399(3) 0.724812
C4_2 C 0.38267(10) 0.7335(3) 0.233457
C5_2 C 0.38267(10) 0.766543 0.2665(3)
C6_2 C 0.61733(10) 0.766543 0.2665(3)
C7_2 C 0.766543 0.61733(10) 0.2665(3)
C8_2 C 0.766543 0.38267(10) 0.2665(3)
C9_2 C 0.7335(3) 0.38267(10) 0.233457
C10_2 C 0.7335(3) 0.61733(10) 0.233457
C11_2 C 0.7335(3) 0.766543 0.38267(10)
C12_2 C 0.7335(3) 0.766543 0.61733(10)
C13_2 C 0.766543 0.7335(3) 0.61733(10)
C14_2 C 0.766543 0.7335(3) 0.38267(10)
C15_2 C 0.766543 0.88267(10) 0.2335(3)
C18_2 C 0.7335(3) 0.88267(10) 0.266543
C19_2 C 0.7335(3) 0.733457 0.11733(10)
C22_2 C 0.766543 0.7665(3) 0.11733(10)
C23_2 C 0.88267(10) 0.7335(3) 0.266543
C26_2 C 0.88267(10) 0.766543 0.2335(3)
N36_2 N 0.3146(6) 0.75000 0.25000
N37_2 N 0.75000 0.6854(6) 0.25000
N39_2 N 0.75000 0.75000 0.3146(6)
N40_2 N 0.75000 0.75000 0.6854(6)
N41_2 N 0.75000 0.8146(6) 0.25000
N43_2 N 0.75000 0.75000 0.1854(6)
N45_2 N 0.8146(6) 0.75000 0.25000
N48_2 N 0.25000 0.75000 0.3146(6)
N50_2 N 0.25000 0.75000 0.1854(6)
C27_2 C 0.4215(2) 0.7174(2) 0.217351
C28_2 C 0.4215(2) 0.782649 0.2826(2)
C29_2 C 0.5785(2) 0.782649 0.2826(2)
C30_2 C 0.782649 0.5785(2) 0.2826(2)
C31_2 C 0.782649 0.4215(2) 0.2826(2)
C32_2 C 0.7174(2) 0.4215(2) 0.217351
C33_2 C 0.7174(2) 0.5785(2) 0.217351
C34_2 C 0.7174(2) 0.782649 0.4215(2)
C35_2 C 0.7174(2) 0.782649 0.5785(2)
C36_2 C 0.782649 0.7174(2) 0.5785(2)
C37_2 C 0.782649 0.7174(2) 0.4215(2)
C38_2 C 0.782649 0.9215(2) 0.2174(2)
C41_2 C 0.7174(2) 0.9215(2) 0.282649
C42_2 C 0.7174(2) 0.717351 0.0785(2)
C45_2 C 0.782649 0.7826(2) 0.0785(2)
C46_2 C 0.9215(2) 0.7174(2) 0.282649
C49_2 C 0.9215(2) 0.782649 0.2174(2)
C50_2 C 0.4612(2) 0.7331(2) 0.233142
C51_2 C 0.4612(2) 0.766858 0.2669(2)
C52_2 C 0.5388(2) 0.766858 0.2669(2)
C53_2 C 0.766858 0.5388(2) 0.2669(2)
C54_2 C 0.766858 0.4612(2) 0.2669(2)
C55_2 C 0.7331(2) 0.4612(2) 0.233142
C56_2 C 0.7331(2) 0.5388(2) 0.233142
C57_2 C 0.7331(2) 0.766858 0.4612(2)
C58_2 C 0.7331(2) 0.766858 0.5388(2)
C59_2 C 0.766858 0.7331(2) 0.5388(2)
C60_2 C 0.766858 0.7331(2) 0.4612(2)
C61_2 C 0.766858 0.9612(2) 0.2331(2)
C64_2 C 0.7331(2) 0.9612(2) 0.266858
C65_2 C 0.7331(2) 0.733142 0.0388(2)
C68_2 C 0.766858 0.7669(2) 0.0388(2)
C69_2 C 0.9612(2) 0.7331(2) 0.266858
C72_2 C 0.9612(2) 0.766858 0.2331(2)
O2_2 O 0.50000 0.783411 0.2834(4)
O3_2 O 0.783411 0.50000 0.2834(4)
O4_2 O 0.7166(4) 0.50000 0.216589
O5_2 O 0.7166(4) 0.783411 0.50000
O6_2 O 0.783411 0.7166(4) 0.50000
O7_4 O 0.783411 1.00000 0.2166(4)
O8_4 O 0.7166(4) 1.00000 0.283411
O9_3 O 0.7166(4) 0.716589 0.00000
O10_3 O 0.783411 0.7834(4) 0.00000
O11_4 O 1.00000 0.7166(4) 0.283411
O12_4 O 1.00000 0.783411 0.2166(4)
Zn4_2 Zn 0.75000 0.75000 0.75000
H2_2 H 0.578726 0.803866 0.303866
H3_2 H 0.421274 0.803866 0.303866
H4_2 H 0.421274 0.696134 0.196134
H5_2 H 0.803866 0.578726 0.303866
H6_2 H 0.696134 0.578726 0.196134
H7_2 H 0.696134 0.421274 0.196134
H8_2 H 0.803866 0.421274 0.303866
H9_2 H 0.696134 0.803866 0.421274
H10_2 H 0.803866 0.696134 0.421274
H11_2 H 0.803866 0.696134 0.578726
H12_2 H 0.696134 0.803866 0.578726
H13_2 H 0.803866 0.921274 0.196134
H14_2 H 0.696134 0.921274 0.303866
H17_2 H 0.696134 0.696134 0.078726
H18_2 H 0.803866 0.803866 0.078726
H21_2 H 0.921274 0.696134 0.303866
H22_2 H 0.921274 0.803866 0.196134
Co13_2 Co 0.6815(3) 0.681542 0.8185(3)
Co14_2 Co 0.818458 0.8185(3) 0.8185(3)
N19_2 N 0.7248(2) 0.724812 0.8399(3)
N20_2 N 0.775188 0.7752(2) 0.8399(3)
C20_2 C 0.7335(3) 0.733457 0.88267(10)
C21_2 C 0.766543 0.7665(3) 0.88267(10)
N44_2 N 0.75000 0.75000 0.8146(6)
C43_2 C 0.7174(2) 0.717351 0.9215(2)
C44_2 C 0.782649 0.7826(2) 0.9215(2)
C66_2 C 0.7331(2) 0.733142 0.9612(2)
C67_2 C 0.766858 0.7669(2) 0.9612(2)
O9_4 O 0.7166(4) 0.716589 1.00000
O10_4 O 0.783411 0.7834(4) 1.00000
H19_2 H 0.803866 0.803866 0.921274
H20_2 H 0.696134 0.696134 0.921274
N23_2 N 0.1601(3) 0.2752(2) 0.724812
N24_3 N 0.1601(3) 0.224812 0.7752(2)
C24_3 C 0.11733(10) 0.2665(3) 0.733457
C25_3 C 0.11733(10) 0.233457 0.7665(3)
N46_2 N 0.1854(6) 0.25000 0.75000
C47_3 C 0.0785(2) 0.2826(2) 0.717351
C48_3 C 0.0785(2) 0.217351 0.7826(2)
C70_3 C 0.0388(2) 0.2669(2) 0.733142
C71_3 C 0.0388(2) 0.233142 0.7669(2)
O11_5 O -0.00000 0.2834(4) 0.716589
O12_5 O 0.00000 0.216589 0.7834(4)
H23_3 H 0.078726 0.196134 0.803866
H24_3 H 0.078726 0.303866 0.696134
N20_3 N 0.775188 0.2248(2) 0.1601(3)
C20_3 C 0.7335(3) 0.266543 0.11733(10)
C21_3 C 0.766543 0.2335(3) 0.11733(10)
C43_3 C 0.7174(2) 0.282649 0.0785(2)
C44_3 C 0.782649 0.2174(2) 0.0785(2)
C66_3 C 0.7331(2) 0.266858 0.0388(2)
C67_3 C 0.766858 0.2331(2) 0.0388(2)
O9_5 O 0.7166(4) 0.283411 0.00000
O10_5 O 0.783411 0.2166(4) 0.00000
H19_3 H 0.803866 0.196134 0.078726
H20_3 H 0.696134 0.303866 0.078726
Co1_3 Co 0.6815(3) 0.3185(3) 0.818458
Cl1_3 Cl 0.644(2) 0.356(2) 0.855640
N1_3 N 0.6601(3) 0.2752(2) 0.775188
C1_3 C 0.61733(10) 0.2665(3) 0.766543
N2_3 N 0.6854(6) 0.25000 0.75000
C2_3 C 0.5785(2) 0.2826(2) 0.782649
C3_3 C 0.5388(2) 0.2669(2) 0.766858
O1_3 O 0.50000 0.2834(4) 0.783411
Zn1_3 Zn 0.75000 0.25000 0.75000
H1_3 H 0.578726 0.303866 0.803866
Co4_3 Co 0.6815(3) 0.181542 0.6815(3)
Co5_3 Co 0.818458 0.3185(3) 0.6815(3)
Co10_3 Co 0.818458 0.1815(3) 0.8185(3)
Cl2_2 Cl 0.356(2) 0.356(2) 0.855640
Cl4_3 Cl 0.644(2) 0.144360 0.644(2)
Cl5_3 Cl 0.855640 0.356(2) 0.644(2)
Cl6_3 Cl 0.855640 0.644(2) 0.644(2)
Cl7_2 Cl 0.644(2) 0.644(2) 0.855640
N3_2 N 0.3399(3) 0.2752(2) 0.775188
N5_3 N 0.6601(3) 0.224812 0.7248(2)
N6_3 N 0.775188 0.3399(3) 0.7248(2)
N7_3 N 0.775188 0.6601(3) 0.7248(2)
N8_2 N 0.7248(2) 0.6601(3) 0.775188
N9_3 N 0.7248(2) 0.3399(3) 0.775188
N10_3 N 0.7248(2) 0.224812 0.6601(3)
N13_3 N 0.775188 0.2752(2) 0.6601(3)
N14_3 N 0.775188 0.1601(3) 0.7752(2)
N17_3 N 0.7248(2) 0.1601(3) 0.724812
N18_3 N 0.7248(2) 0.275188 0.8399(3)
N21_3 N 0.775188 0.2248(2) 0.8399(3)
N22_3 N 0.8399(3) 0.2752(2) 0.724812
N25_3 N 0.8399(3) 0.224812 0.7752(2)
N26_2 N 0.275188 0.3399(3) 0.7752(2)
N31_2 N 0.8399(3) 0.724812 0.7248(2)
N32_2 N 0.6601(3) 0.724812 0.7752(2)
C4_3 C 0.38267(10) 0.2665(3) 0.766543
C5_3 C 0.38267(10) 0.233457 0.7335(3)
C6_3 C 0.61733(10) 0.233457 0.7335(3)
C7_3 C 0.766543 0.38267(10) 0.7335(3)
C8_3 C 0.766543 0.61733(10) 0.7335(3)
C9_3 C 0.7335(3) 0.61733(10) 0.766543
C10_3 C 0.7335(3) 0.38267(10) 0.766543
C11_3 C 0.7335(3) 0.233457 0.61733(10)
C12_3 C 0.7335(3) 0.233457 0.38267(10)
C13_3 C 0.766543 0.2665(3) 0.38267(10)
C14_3 C 0.766543 0.2665(3) 0.61733(10)
C15_3 C 0.766543 0.11733(10) 0.7665(3)
C18_3 C 0.7335(3) 0.11733(10) 0.733457
C19_3 C 0.7335(3) 0.266543 0.88267(10)
C22_3 C 0.766543 0.2335(3) 0.88267(10)
C23_3 C 0.88267(10) 0.2665(3) 0.733457
C26_3 C 0.88267(10) 0.233457 0.7665(3)
N36_3 N 0.3146(6) 0.25000 0.75000
N37_3 N 0.75000 0.3146(6) 0.75000
N38_2 N 0.75000 0.6854(6) 0.75000
N39_3 N 0.75000 0.25000 0.6854(6)
N41_3 N 0.75000 0.1854(6) 0.75000
N43_3 N 0.75000 0.25000 0.8146(6)
N45_3 N 0.8146(6) 0.25000 0.75000
N47_2 N 0.25000 0.3146(6) 0.75000
N49_2 N 0.25000 0.1854(6) 0.75000
C27_3 C 0.4215(2) 0.2826(2) 0.782649
C28_3 C 0.4215(2) 0.217351 0.7174(2)
C29_3 C 0.5785(2) 0.217351 0.7174(2)
C30_3 C 0.782649 0.4215(2) 0.7174(2)
C31_3 C 0.782649 0.5785(2) 0.7174(2)
C32_3 C 0.7174(2) 0.5785(2) 0.782649
C33_3 C 0.7174(2) 0.4215(2) 0.782649
C34_3 C 0.7174(2) 0.217351 0.5785(2)
C35_3 C 0.7174(2) 0.217351 0.4215(2)
C36_3 C 0.782649 0.2826(2) 0.4215(2)
C37_3 C 0.782649 0.2826(2) 0.5785(2)
C38_3 C 0.782649 0.0785(2) 0.7826(2)
C41_3 C 0.7174(2) 0.0785(2) 0.717351
C42_3 C 0.7174(2) 0.282649 0.9215(2)
C45_3 C 0.782649 0.2174(2) 0.9215(2)
C46_3 C 0.9215(2) 0.2826(2) 0.717351
C49_3 C 0.9215(2) 0.217351 0.7826(2)
C50_3 C 0.4612(2) 0.2669(2) 0.766858
C51_3 C 0.4612(2) 0.233142 0.7331(2)
C52_3 C 0.5388(2) 0.233142 0.7331(2)
C53_3 C 0.766858 0.4612(2) 0.7331(2)
C54_3 C 0.766858 0.5388(2) 0.7331(2)
C55_3 C 0.7331(2) 0.5388(2) 0.766858
C56_3 C 0.7331(2) 0.4612(2) 0.766858
C57_3 C 0.7331(2) 0.233142 0.5388(2)
C58_3 C 0.7331(2) 0.233142 0.4612(2)
C59_3 C 0.766858 0.2669(2) 0.4612(2)
C60_3 C 0.766858 0.2669(2) 0.5388(2)
C61_3 C 0.766858 0.0388(2) 0.7669(2)
C64_3 C 0.7331(2) 0.0388(2) 0.733142
C65_3 C 0.7331(2) 0.266858 0.9612(2)
C68_3 C 0.766858 0.2331(2) 0.9612(2)
C69_3 C 0.9612(2) 0.2669(2) 0.733142
C72_3 C 0.9612(2) 0.233142 0.7669(2)
O2_3 O 0.50000 0.216589 0.7166(4)
O3_3 O 0.783411 0.50000 0.7166(4)
O4_3 O 0.7166(4) 0.50000 0.783411
O5_3 O 0.7166(4) 0.216589 0.50000
O6_3 O 0.783411 0.2834(4) 0.50000
O7_5 O 0.783411 -0.00000 0.7834(4)
O8_5 O 0.7166(4) 0.00000 0.716589
O9_6 O 0.7166(4) 0.283411 1.00000
O10_6 O 0.783411 0.2166(4) 1.00000
O11_6 O 1.00000 0.2834(4) 0.716589
O12_6 O 1.00000 0.216589 0.7834(4)
H2_3 H 0.578726 0.196134 0.696134
H3_3 H 0.421274 0.196134 0.696134
H4_3 H 0.421274 0.303866 0.803866
H5_3 H 0.803866 0.421274 0.696134
H6_3 H 0.696134 0.421274 0.803866
H7_3 H 0.696134 0.578726 0.803866
H8_3 H 0.803866 0.578726 0.696134
H9_3 H 0.696134 0.196134 0.578726
H10_3 H 0.803866 0.303866 0.578726
H11_3 H 0.803866 0.303866 0.421274
H12_3 H 0.696134 0.196134 0.421274
H13_3 H 0.803866 0.078726 0.803866
H14_3 H 0.696134 0.078726 0.696134
H17_3 H 0.696134 0.303866 0.921274
H18_3 H 0.803866 0.196134 0.921274
H21_3 H 0.921274 0.303866 0.696134
H22_3 H 0.921274 0.196134 0.803866
N15_3 N 0.775188 0.8399(3) 0.7752(2)
C16_3 C 0.766543 0.88267(10) 0.7665(3)
C17_3 C 0.7335(3) 0.88267(10) 0.733457
N42_2 N 0.75000 0.8146(6) 0.75000
C39_3 C 0.782649 0.9215(2) 0.7826(2)
C40_3 C 0.7174(2) 0.9215(2) 0.717351
C62_3 C 0.766858 0.9612(2) 0.7669(2)
C63_3 C 0.7331(2) 0.9612(2) 0.733142
O7_6 O 0.783411 1.00000 0.7834(4)
O8_6 O 0.7166(4) 1.00000 0.716589
H15_3 H 0.696134 0.921274 0.696134
H16_3 H 0.803866 0.921274 0.803866
N15_4 N 0.224812 0.1601(3) 0.7752(2)
C16_4 C 0.233457 0.11733(10) 0.7665(3)
C17_4 C 0.2665(3) 0.11733(10) 0.733457
C39_4 C 0.217351 0.0785(2) 0.7826(2)
C40_4 C 0.2826(2) 0.0785(2) 0.717351
C62_4 C 0.233142 0.0388(2) 0.7669(2)
C63_4 C 0.2669(2) 0.0388(2) 0.733142
O7_7 O 0.216589 -0.00000 0.7834(4)
O8_7 O 0.2834(4) 0.00000 0.716589
H15_4 H 0.303866 0.078726 0.696134
H16_4 H 0.196134 0.078726 0.803866
N20_4 N 0.224812 0.7752(2) 0.1601(3)
C20_4 C 0.2665(3) 0.733457 0.11733(10)
C21_4 C 0.233457 0.7665(3) 0.11733(10)
C43_4 C 0.2826(2) 0.717351 0.0785(2)
C44_4 C 0.217351 0.7826(2) 0.0785(2)
C66_4 C 0.2669(2) 0.733142 0.0388(2)
C67_4 C 0.233142 0.7669(2) 0.0388(2)
O9_7 O 0.2834(4) 0.716589 0.00000
O10_7 O 0.216589 0.7834(4) 0.00000
H19_4 H 0.196134 0.803866 0.078726
H20_4 H 0.303866 0.696134 0.078726
Co1_4 Co 0.3185(3) 0.6815(3) 0.818458
Cl1_4 Cl 0.356(2) 0.644(2) 0.855640
N1_4 N 0.3399(3) 0.7248(2) 0.775188
C1_4 C 0.38267(10) 0.7335(3) 0.766543
N2_4 N 0.3146(6) 0.75000 0.75000
C2_4 C 0.4215(2) 0.7174(2) 0.782649
C3_4 C 0.4612(2) 0.7331(2) 0.766858
O1_4 O 0.50000 0.7166(4) 0.783411
Zn1_4 Zn 0.25000 0.75000 0.75000
H1_4 H 0.421274 0.696134 0.803866
Co4_4 Co 0.3185(3) 0.818458 0.6815(3)
Co5_4 Co 0.181542 0.6815(3) 0.6815(3)
Co10_4 Co 0.181542 0.8185(3) 0.8185(3)
Cl4_4 Cl 0.356(2) 0.855640 0.644(2)
Cl5_4 Cl 0.144360 0.644(2) 0.644(2)
Cl6_4 Cl 0.144360 0.356(2) 0.644(2)
N5_4 N 0.3399(3) 0.775188 0.7248(2)
N6_4 N 0.224812 0.6601(3) 0.7248(2)
N7_4 N 0.224812 0.3399(3) 0.7248(2)
N9_4 N 0.2752(2) 0.6601(3) 0.775188
N10_4 N 0.2752(2) 0.775188 0.6601(3)
N13_4 N 0.224812 0.7248(2) 0.6601(3)
N14_4 N 0.224812 0.8399(3) 0.7752(2)
N17_4 N 0.2752(2) 0.8399(3) 0.724812
N18_4 N 0.2752(2) 0.724812 0.8399(3)
N21_4 N 0.224812 0.7752(2) 0.8399(3)
N22_4 N 0.1601(3) 0.7248(2) 0.724812
N25_4 N 0.1601(3) 0.775188 0.7752(2)
C4_4 C 0.61733(10) 0.7335(3) 0.766543
C5_4 C 0.61733(10) 0.766543 0.7335(3)
C6_4 C 0.38267(10) 0.766543 0.7335(3)
C7_4 C 0.233457 0.61733(10) 0.7335(3)
C8_4 C 0.233457 0.38267(10) 0.7335(3)
C9_4 C 0.2665(3) 0.38267(10) 0.766543
C10_4 C 0.2665(3) 0.61733(10) 0.766543
C11_4 C 0.2665(3) 0.766543 0.61733(10)
C12_4 C 0.2665(3) 0.766543 0.38267(10)
C13_4 C 0.233457 0.7335(3) 0.38267(10)
C14_4 C 0.233457 0.7335(3) 0.61733(10)
C15_4 C 0.233457 0.88267(10) 0.7665(3)
C18_4 C 0.2665(3) 0.88267(10) 0.733457
C19_4 C 0.2665(3) 0.733457 0.88267(10)
C22_4 C 0.233457 0.7665(3) 0.88267(10)
C23_4 C 0.11733(10) 0.7335(3) 0.733457
C26_4 C 0.11733(10) 0.766543 0.7665(3)
N36_4 N 0.6854(6) 0.75000 0.75000
N37_4 N 0.25000 0.6854(6) 0.75000
N39_4 N 0.25000 0.75000 0.6854(6)
N41_4 N 0.25000 0.8146(6) 0.75000
N43_4 N 0.25000 0.75000 0.8146(6)
N45_4 N 0.1854(6) 0.75000 0.75000
N51_2 N 0.8146(6) 0.75000 0.75000
C27_4 C 0.5785(2) 0.7174(2) 0.782649
C28_4 C 0.5785(2) 0.782649 0.7174(2)
C29_4 C 0.4215(2) 0.782649 0.7174(2)
C30_4 C 0.217351 0.5785(2) 0.7174(2)
C31_4 C 0.217351 0.4215(2) 0.7174(2)
C32_4 C 0.2826(2) 0.4215(2) 0.782649
C33_4 C 0.2826(2) 0.5785(2) 0.782649
C34_4 C 0.2826(2) 0.782649 0.5785(2)
C35_4 C 0.2826(2) 0.782649 0.4215(2)
C36_4 C 0.217351 0.7174(2) 0.4215(2)
C37_4 C 0.217351 0.7174(2) 0.5785(2)
C38_4 C 0.217351 0.9215(2) 0.7826(2)
C41_4 C 0.2826(2) 0.9215(2) 0.717351
C42_4 C 0.2826(2) 0.717351 0.9215(2)
C45_4 C 0.217351 0.7826(2) 0.9215(2)
C46_4 C 0.0785(2) 0.7174(2) 0.717351
C49_4 C 0.0785(2) 0.782649 0.7826(2)
C50_4 C 0.5388(2) 0.7331(2) 0.766858
C51_4 C 0.5388(2) 0.766858 0.7331(2)
C52_4 C 0.4612(2) 0.766858 0.7331(2)
C53_4 C 0.233142 0.5388(2) 0.7331(2)
C54_4 C 0.233142 0.4612(2) 0.7331(2)
C55_4 C 0.2669(2) 0.4612(2) 0.766858
C56_4 C 0.2669(2) 0.5388(2) 0.766858
C57_4 C 0.2669(2) 0.766858 0.5388(2)
C58_4 C 0.2669(2) 0.766858 0.4612(2)
C59_4 C 0.233142 0.7331(2) 0.4612(2)
C60_4 C 0.233142 0.7331(2) 0.5388(2)
C61_4 C 0.233142 0.9612(2) 0.7669(2)
C64_4 C 0.2669(2) 0.9612(2) 0.733142
C65_4 C 0.2669(2) 0.733142 0.9612(2)
C68_4 C 0.233142 0.7669(2) 0.9612(2)
C69_4 C 0.0388(2) 0.7331(2) 0.733142
C72_4 C 0.0388(2) 0.766858 0.7669(2)
O2_4 O 0.50000 0.783411 0.7166(4)
O3_4 O 0.216589 0.50000 0.7166(4)
O4_4 O 0.2834(4) 0.50000 0.783411
O5_4 O 0.2834(4) 0.783411 0.50000
O6_4 O 0.216589 0.7166(4) 0.50000
O7_8 O 0.216589 1.00000 0.7834(4)
O8_8 O 0.2834(4) 1.00000 0.716589
O9_8 O 0.2834(4) 0.716589 1.00000
O10_8 O 0.216589 0.7834(4) 1.00000
O11_7 O -0.00000 0.7166(4) 0.716589
O12_7 O -0.00000 0.783411 0.7834(4)
H2_4 H 0.421274 0.803866 0.696134
H3_4 H 0.578726 0.803866 0.696134
H4_4 H 0.578726 0.696134 0.803866
H5_4 H 0.196134 0.578726 0.696134
H6_4 H 0.303866 0.578726 0.803866
H7_4 H 0.303866 0.421274 0.803866
H8_4 H 0.196134 0.421274 0.696134
H9_4 H 0.303866 0.803866 0.578726
H10_4 H 0.196134 0.696134 0.578726
H11_4 H 0.196134 0.696134 0.421274
H12_4 H 0.303866 0.803866 0.421274
H13_4 H 0.196134 0.921274 0.803866
H14_4 H 0.303866 0.921274 0.696134
H17_4 H 0.303866 0.696134 0.921274
H18_4 H 0.196134 0.803866 0.921274
H21_4 H 0.078726 0.696134 0.696134
H22_4 H 0.078726 0.803866 0.803866
N24_4 N 0.8399(3) 0.775188 0.7752(2)
C24_4 C 0.88267(10) 0.7335(3) 0.733457
C25_4 C 0.88267(10) 0.766543 0.7665(3)
C47_4 C 0.9215(2) 0.7174(2) 0.717351
C48_4 C 0.9215(2) 0.782649 0.7826(2)
C70_4 C 0.9612(2) 0.7331(2) 0.733142
C71_4 C 0.9612(2) 0.766858 0.7669(2)
O11_8 O 1.00000 0.7166(4) 0.716589
O12_8 O 1.00000 0.783411 0.7834(4)
H23_4 H 0.921274 0.803866 0.803866
H24_4 H 0.921274 0.696134 0.696134
Cl6_5 Cl 0.144360 0.144(2) 0.856(2)
Cl5_5 Cl 0.144360 0.856(2) 0.856(2)
Cl5_6 Cl 0.855640 0.144(2) 0.856(2)
Cl6_6 Cl 0.855640 0.856(2) 0.856(2)
Cl6_7 Cl 0.855640 0.144(2) 0.144(2)
Cl5_7 Cl 0.855640 0.856(2) 0.144(2)
Cl5_8 Cl 0.144360 0.144(2) 0.144(2)
Cl6_8 Cl 0.144360 0.856(2) 0.144(2)
loop_
_geom_bond_atom_site_label_1
_geom_bond_atom_site_label_2
_geom_bond_site_symmetry_1
_geom_bond_site_symmetry_2
Co1 Cl1 1_555 1_555
N1 Co1 1_555 1_555
C1 N1 1_555 1_555
N2 N1 1_555 1_555
C2 C1 1_555 1_555
C3 C2 1_555 1_555
O1 C3 1_555 1_555
Zn1 N2 1_555 1_555
H1 C2 1_555 1_555
Co2 Cl2 1_555 1_555
Co3 Cl3 1_555 1_555
Co4 Cl4 1_555 1_555
Co5 Cl5 1_555 1_555
Co6 Cl6 1_555 1_555
Co7 Cl7 1_555 1_555
Co8 Cl8 1_555 1_555
Co9 N12 1_555 1_555
Co10 N14 1_555 1_555
N3 Co2 1_555 1_555
N4 Co3 1_555 1_555
N5 N2 1_555 1_555
N6 Co5 1_555 1_555
N7 Co6 1_555 1_555
N8 Co7 1_555 1_555
N9 Co1 1_555 1_555
N10 Co4 1_555 1_555
N11 Co8 1_555 1_555
N12 C13 1_555 1_555
N13 Co5 1_555 1_555
N14 C15 1_555 1_555
N17 Co4 1_555 1_555
N18 Co1 1_555 1_555
N21 Co10 1_555 1_555
N22 Co5 1_555 1_555
N25 Co10 1_555 1_555
N26 Co2 1_555 1_555
N27 Co2 1_555 1_555
N28 Co3 1_555 1_555
N29 Co3 1_555 1_555
N30 Co6 1_555 1_555
N31 Co6 1_555 1_555
N32 Co7 1_555 1_555
N33 Co7 1_555 1_555
N34 Co8 1_555 1_555
N35 Co8 1_555 1_555
C4 N3 1_555 1_555
C5 N4 1_555 1_555
C6 C1 1_555 1_555
C7 N6 1_555 1_555
C8 N7 1_555 1_555
C9 N8 1_555 1_555
C10 N9 1_555 1_555
C11 N10 1_555 1_555
C12 N11 1_555 1_555
C13 C12 1_555 1_555
C14 N13 1_555 1_555
C15 C18 1_555 1_555
C18 N17 1_555 1_555
C19 N18 1_555 1_555
C22 N21 1_555 1_555
C23 N22 1_555 1_555
C26 N25 1_555 1_555
N36 N3 1_555 1_555
N37 Zn1 1_555 1_555
N38 N7 1_555 1_555
N39 Zn1 1_555 1_555
N40 N11 1_555 1_555
N41 Zn1 1_555 1_555
N43 Zn1 1_555 1_555
N45 Zn1 1_555 1_555
N47 N26 1_555 1_555
N48 N28 1_555 1_555
N49 N29 1_555 1_555
N50 N27 1_555 1_555
N51 Zn2 1_555 1_555
C27 C4 1_555 1_555
C28 C5 1_555 1_555
C29 C6 1_555 1_555
C30 C7 1_555 1_555
C31 C8 1_555 1_555
C32 C9 1_555 1_555
C33 C10 1_555 1_555
C34 C11 1_555 1_555
C35 C12 1_555 1_555
C36 C13 1_555 1_555
C37 C14 1_555 1_555
C38 C15 1_555 1_555
C41 C18 1_555 1_555
C42 C19 1_555 1_555
C45 C22 1_555 1_555
C46 C23 1_555 1_555
C49 C26 1_555 1_555
C50 O1 1_555 1_555
C51 C28 1_555 1_555
C52 C3 1_555 1_555
C53 C30 1_555 1_555
C54 C31 1_555 1_555
C55 C32 1_555 1_555
C56 C33 1_555 1_555
C57 C34 1_555 1_555
C58 C35 1_555 1_555
C59 C36 1_555 1_555
C60 C37 1_555 1_555
C61 C38 1_555 1_555
C64 C41 1_555 1_555
C65 C42 1_555 1_555
C68 C45 1_555 1_555
C69 C46 1_555 1_555
C72 C49 1_555 1_555
O2 C51 1_555 1_555
O3 C53 1_555 1_555
O4 C55 1_555 1_555
O5 C57 1_555 1_555
O6 C59 1_555 1_555
O7 C61 1_555 1_555
O9 C65 1_555 1_555
O11 C69 1_555 1_555
Zn2 N36 1_555 1_555
Zn3 N38 1_555 1_555
Zn4 N40 1_555 1_555
H2 C29 1_555 1_555
H3 C28 1_555 1_555
H4 C27 1_555 1_555
H5 C30 1_555 1_555
H6 C33 1_555 1_555
H7 C32 1_555 1_555
H8 C31 1_555 1_555
H9 C34 1_555 1_555
H10 C37 1_555 1_555
H11 C36 1_555 1_555
H12 C35 1_555 1_555
H13 C38 1_555 1_555
H14 C41 1_555 1_555
H17 C42 1_555 1_555
H18 C45 1_555 1_555
H21 C46 1_555 1_555
H22 C49 1_555 1_555
Co4 N5 1_555 1_555
N4 N36 1_555 1_555
N5 C6 1_555 1_555
N6 N37 1_555 1_555
N8 N38 1_555 1_555
N9 N37 1_555 1_555
N10 N39 1_555 1_555
N12 N40 1_555 1_555
N13 N39 1_555 1_555
N14 N41 1_555 1_555
N17 N41 1_555 1_555
N18 N43 1_555 1_555
N21 N43 1_555 1_555
N22 N45 1_555 1_555
N25 N45 1_555 1_555
C4 C5 1_555 1_555
C7 C10 1_555 1_555
C8 C9 1_555 1_555
C11 C14 1_555 1_555
C19 C22 1_555 1_555
C23 C26 1_555 1_555
N47 Zn2 1_555 1_555
N48 Zn2 1_555 1_555
N49 Zn2 1_555 1_555
N50 Zn2 1_555 1_555
C27 C50 1_555 1_555
C29 C52 1_555 1_555
C50 C51 1_555 1_555
C52 O2 1_555 1_555
C53 C56 1_555 1_555
C54 C55 1_555 1_555
C54 O3 1_555 1_555
C56 O4 1_555 1_555
C57 C60 1_555 1_555
C58 C59 1_555 1_555
C58 O5 1_555 1_555
C60 O6 1_555 1_555
C61 C64 1_555 1_555
C64 O8 1_555 1_555
C65 C68 1_555 1_555
C68 O10 1_555 1_555
C69 C72 1_555 1_555
C72 O12 1_555 1_555
Co13 N19 1_555 1_555
Co14 N20 1_555 1_555
N19 C20 1_555 1_555
N20 C21 1_555 1_555
C20 C21 1_555 1_555
C21 C44 1_555 1_555
N44 N19 1_555 1_555
C43 C20 1_555 1_555
C44 C67 1_555 1_555
C66 C43 1_555 1_555
C67 C66 1_555 1_555
O10_2 C67 1_555 1_555
Zn4 N44 1_555 1_555
H19 C44 1_555 1_555
H20 C43 1_555 1_555
N20 N44 1_555 1_555
C66 O9_2 1_555 1_555
Co11 N15 1_555 1_555
Co12 N16 1_555 1_555
N15 C16 1_555 1_555
N16 C17 1_555 1_555
C16 C17 1_555 1_555
C17 C40 1_555 1_555
N42 N15 1_555 1_555
C39 C16 1_555 1_555
C40 C63 1_555 1_555
C62 C39 1_555 1_555
C63 C62 1_555 1_555
O8_2 C63 1_555 1_555
Zn3 N42 1_555 1_555
H15 C40 1_555 1_555
H16 C39 1_555 1_555
N16 N42 1_555 1_555
C62 O7_2 1_555 1_555
Co15 N23 1_555 1_555
Co16 N24 1_555 1_555
N23 C24 1_555 1_555
N24 C25 1_555 1_555
C24 C25 1_555 1_555
C25 C48 1_555 1_555
N51 N23 1_555 1_555
C47 C24 1_555 1_555
C48 C71 1_555 1_555
C70 C47 1_555 1_555
C71 C70 1_555 1_555
O12_2 C71 1_555 1_555
H23 C48 1_555 1_555
H24 C47 1_555 1_555
N24 N51 1_555 1_555
C70 O11_2 1_555 1_555
Co11 N24_2 1_555 1_555
N31 C24_2 1_555 1_555
N24_2 C25_2 1_555 1_555
C24_2 C25_2 1_555 1_555
C25_2 C48_2 1_555 1_555
N46 N31 1_555 1_555
C47_2 C24_2 1_555 1_555
C48_2 C71_2 1_555 1_555
C70_2 C47_2 1_555 1_555
C71_2 C70_2 1_555 1_555
O12_3 C71_2 1_555 1_555
Zn3 N46 1_555 1_555
H23_2 C48_2 1_555 1_555
H24_2 C47_2 1_555 1_555
N24_2 N46 1_555 1_555
C70_2 O11_3 1_555 1_555
Co16 N15_2 1_555 1_555
N15_2 C16_2 1_555 1_555
N29 C17_2 1_555 1_555
C16_2 C17_2 1_555 1_555
C17_2 C40_2 1_555 1_555
N49 N15_2 1_555 1_555
C39_2 C16_2 1_555 1_555
C40_2 C63_2 1_555 1_555
C62_2 C39_2 1_555 1_555
C63_2 C62_2 1_555 1_555
O8_3 C63_2 1_555 1_555
H15_2 C40_2 1_555 1_555
H16_2 C39_2 1_555 1_555
C62_2 O7_3 1_555 1_555
Co1_2 Cl1_2 1_555 1_555
N1_2 Co1_2 1_555 1_555
C1_2 N1_2 1_555 1_555
N2_2 N1_2 1_555 1_555
C2_2 C1_2 1_555 1_555
C3_2 C2_2 1_555 1_555
O1_2 C3_2 1_555 1_555
Zn1_2 N2_2 1_555 1_555
H1_2 C2_2 1_555 1_555
Co12 Cl3_2 1_555 1_555
Co4_2 Cl4_2 1_555 1_555
Co5_2 Cl5_2 1_555 1_555
Co15 Cl6_2 1_555 1_555
Co8_2 Cl8_2 1_555 1_555
Co9_2 N12_2 1_555 1_555
Co10_2 N14_2 1_555 1_555
N4_2 Co12 1_555 1_555
N5_2 N2_2 1_555 1_555
N6_2 Co5_2 1_555 1_555
N7_2 Co15 1_555 1_555
N9_2 Co1_2 1_555 1_555
N10_2 Co4_2 1_555 1_555
N11_2 Co8_2 1_555 1_555
N12_2 C13_2 1_555 1_555
N13_2 Co5_2 1_555 1_555
N14_2 C15_2 1_555 1_555
N17_2 Co4_2 1_555 1_555
N18_2 Co1_2 1_555 1_555
N21_2 Co10_2 1_555 1_555
N22_2 Co5_2 1_555 1_555
N25_2 Co10_2 1_555 1_555
N28_2 Co12 1_555 1_555
N30_2 Co15 1_555 1_555
N34_2 Co8_2 1_555 1_555
N35_2 Co8_2 1_555 1_555
C4_2 N32 1_555 1_555
C5_2 N4_2 1_555 1_555
C6_2 C1_2 1_555 1_555
C7_2 N6_2 1_555 1_555
C8_2 N7_2 1_555 1_555
C9_2 N26 1_555 1_555
C10_2 N9_2 1_555 1_555
C11_2 N10_2 1_555 1_555
C12_2 N11_2 1_555 1_555
C13_2 C12_2 1_555 1_555
C14_2 N13_2 1_555 1_555
C15_2 C18_2 1_555 1_555
C18_2 N17_2 1_555 1_555
C19_2 N18_2 1_555 1_555
C22_2 N21_2 1_555 1_555
C23_2 N22_2 1_555 1_555
C26_2 N25_2 1_555 1_555
N36_2 N32 1_555 1_555
N37_2 Zn1_2 1_555 1_555
N47 N7_2 1_555 1_555
N39_2 Zn1_2 1_555 1_555
N40_2 N11_2 1_555 1_555
N41_2 Zn1_2 1_555 1_555
N43_2 Zn1_2 1_555 1_555
N45_2 Zn1_2 1_555 1_555
N48_2 N28_2 1_555 1_555
N50_2 N33 1_555 1_555
C27_2 C4_2 1_555 1_555
C28_2 C5_2 1_555 1_555
C29_2 C6_2 1_555 1_555
C30_2 C7_2 1_555 1_555
C31_2 C8_2 1_555 1_555
C32_2 C9_2 1_555 1_555
C33_2 C10_2 1_555 1_555
C34_2 C11_2 1_555 1_555
C35_2 C12_2 1_555 1_555
C36_2 C13_2 1_555 1_555
C37_2 C14_2 1_555 1_555
C38_2 C15_2 1_555 1_555
C41_2 C18_2 1_555 1_555
C42_2 C19_2 1_555 1_555
C45_2 C22_2 1_555 1_555
C46_2 C23_2 1_555 1_555
C49_2 C26_2 1_555 1_555
C50_2 O1_2 1_555 1_555
C51_2 C28_2 1_555 1_555
C52_2 C3_2 1_555 1_555
C53_2 C30_2 1_555 1_555
C54_2 C31_2 1_555 1_555
C55_2 C32_2 1_555 1_555
C56_2 C33_2 1_555 1_555
C57_2 C34_2 1_555 1_555
C58_2 C35_2 1_555 1_555
C59_2 C36_2 1_555 1_555
C60_2 C37_2 1_555 1_555
C61_2 C38_2 1_555 1_555
C64_2 C41_2 1_555 1_555
C65_2 C42_2 1_555 1_555
C68_2 C45_2 1_555 1_555
C69_2 C46_2 1_555 1_555
C72_2 C49_2 1_555 1_555
O2_2 C51_2 1_555 1_555
O3_2 C53_2 1_555 1_555
O4_2 C55_2 1_555 1_555
O5_2 C57_2 1_555 1_555
O6_2 C59_2 1_555 1_555
O7_4 C61_2 1_555 1_555
O9_3 C65_2 1_555 1_555
O11_4 C69_2 1_555 1_555
Zn3 N36_2 1_555 1_555
Zn4_2 N40_2 1_555 1_555
H2_2 C29_2 1_555 1_555
H3_2 C28_2 1_555 1_555
H4_2 C27_2 1_555 1_555
H5_2 C30_2 1_555 1_555
H6_2 C33_2 1_555 1_555
H7_2 C32_2 1_555 1_555
H8_2 C31_2 1_555 1_555
H9_2 C34_2 1_555 1_555
H10_2 C37_2 1_555 1_555
H11_2 C36_2 1_555 1_555
H12_2 C35_2 1_555 1_555
H13_2 C38_2 1_555 1_555
H14_2 C41_2 1_555 1_555
H17_2 C42_2 1_555 1_555
H18_2 C45_2 1_555 1_555
H21_2 C46_2 1_555 1_555
H22_2 C49_2 1_555 1_555
Co4_2 N5_2 1_555 1_555
N4_2 N36_2 1_555 1_555
N5_2 C6_2 1_555 1_555
N6_2 N37_2 1_555 1_555
N9_2 N37_2 1_555 1_555
N10_2 N39_2 1_555 1_555
N12_2 N40_2 1_555 1_555
N13_2 N39_2 1_555 1_555
N14_2 N41_2 1_555 1_555
N17_2 N41_2 1_555 1_555
N18_2 N43_2 1_555 1_555
N21_2 N43_2 1_555 1_555
N22_2 N45_2 1_555 1_555
N25_2 N45_2 1_555 1_555
C4_2 C5_2 1_555 1_555
C7_2 C10_2 1_555 1_555
C8_2 C9_2 1_555 1_555
C11_2 C14_2 1_555 1_555
C19_2 C22_2 1_555 1_555
C23_2 C26_2 1_555 1_555
N48_2 Zn3 1_555 1_555
N50_2 Zn3 1_555 1_555
C27_2 C50_2 1_555 1_555
C29_2 C52_2 1_555 1_555
C50_2 C51_2 1_555 1_555
C52_2 O2_2 1_555 1_555
C53_2 C56_2 1_555 1_555
C54_2 C55_2 1_555 1_555
C54_2 O3_2 1_555 1_555
C56_2 O4_2 1_555 1_555
C57_2 C60_2 1_555 1_555
C58_2 C59_2 1_555 1_555
C58_2 O5_2 1_555 1_555
C60_2 O6_2 1_555 1_555
C61_2 C64_2 1_555 1_555
C64_2 O8_4 1_555 1_555
C65_2 C68_2 1_555 1_555
C68_2 O10_3 1_555 1_555
C69_2 C72_2 1_555 1_555
C72_2 O12_4 1_555 1_555
Co13_2 N19_2 1_555 1_555
Co14_2 N20_2 1_555 1_555
N19_2 C20_2 1_555 1_555
N20_2 C21_2 1_555 1_555
C20_2 C21_2 1_555 1_555
C21_2 C44_2 1_555 1_555
N44_2 N19_2 1_555 1_555
C43_2 C20_2 1_555 1_555
C44_2 C67_2 1_555 1_555
C66_2 C43_2 1_555 1_555
C67_2 C66_2 1_555 1_555
O10_4 C67_2 1_555 1_555
Zn4_2 N44_2 1_555 1_555
H19_2 C44_2 1_555 1_555
H20_2 C43_2 1_555 1_555
N20_2 N44_2 1_555 1_555
C66_2 O9_4 1_555 1_555
Co9 N23_2 1_555 1_555
Co14 N24_3 1_555 1_555
N23_2 C24_3 1_555 1_555
N24_3 C25_3 1_555 1_555
C24_3 C25_3 1_555 1_555
C25_3 C48_3 1_555 1_555
N46_2 N23_2 1_555 1_555
C47_3 C24_3 1_555 1_555
C48_3 C71_3 1_555 1_555
C70_3 C47_3 1_555 1_555
C71_3 C70_3 1_555 1_555
O12_5 C71_3 1_555 1_555
Zn4 N46_2 1_555 1_555
H23_3 C48_3 1_555 1_555
H24_3 C47_3 1_555 1_555
N24_3 N46_2 1_555 1_555
C70_3 O11_5 1_555 1_555
Co16 N20_3 1_555 1_555
N27 C20_3 1_555 1_555
N20_3 C21_3 1_555 1_555
C20_3 C21_3 1_555 1_555
C21_3 C44_3 1_555 1_555
C43_3 C20_3 1_555 1_555
C44_3 C67_3 1_555 1_555
C66_3 C43_3 1_555 1_555
C67_3 C66_3 1_555 1_555
O10_5 C67_3 1_555 1_555
H19_3 C44_3 1_555 1_555
H20_3 C43_3 1_555 1_555
N20_3 N50 1_555 1_555
C66_3 O9_5 1_555 1_555
Co1_3 Cl1_3 1_555 1_555
N1_3 Co1_3 1_555 1_555
C1_3 N1_3 1_555 1_555
N2_3 N1_3 1_555 1_555
C2_3 C1_3 1_555 1_555
C3_3 C2_3 1_555 1_555
O1_3 C3_3 1_555 1_555
Zn1_3 N2_3 1_555 1_555
H1_3 C2_3 1_555 1_555
Co13 Cl2_2 1_555 1_555
Co4_3 Cl4_3 1_555 1_555
Co5_3 Cl5_3 1_555 1_555
Co9_2 Cl6_3 1_555 1_555
Co13_2 Cl7_2 1_555 1_555
Co10_3 N14_3 1_555 1_555
N3_2 Co13 1_555 1_555
N5_3 N2_3 1_555 1_555
N6_3 Co5_3 1_555 1_555
N7_3 Co9_2 1_555 1_555
N8_2 Co13_2 1_555 1_555
N9_3 Co1_3 1_555 1_555
N10_3 Co4_3 1_555 1_555
N30_2 C13_3 1_555 1_555
N13_3 Co5_3 1_555 1_555
N14_3 C15_3 1_555 1_555
N17_3 Co4_3 1_555 1_555
N18_3 Co1_3 1_555 1_555
N21_3 Co10_3 1_555 1_555
N22_3 Co5_3 1_555 1_555
N25_3 Co10_3 1_555 1_555
N26_2 Co13 1_555 1_555
N31_2 Co9_2 1_555 1_555
N32_2 Co13_2 1_555 1_555
C4_3 N3_2 1_555 1_555
C5_3 N34 1_555 1_555
C6_3 C1_3 1_555 1_555
C7_3 N6_3 1_555 1_555
C8_3 N7_3 1_555 1_555
C9_3 N8_2 1_555 1_555
C10_3 N9_3 1_555 1_555
C11_3 N10_3 1_555 1_555
C12_3 N28 1_555 1_555
C13_3 C12_3 1_555 1_555
C14_3 N13_3 1_555 1_555
C15_3 C18_3 1_555 1_555
C18_3 N17_3 1_555 1_555
C19_3 N18_3 1_555 1_555
C22_3 N21_3 1_555 1_555
C23_3 N22_3 1_555 1_555
C26_3 N25_3 1_555 1_555
N36_3 N3_2 1_555 1_555
N37_3 Zn1_3 1_555 1_555
N38_2 N7_3 1_555 1_555
N39_3 Zn1_3 1_555 1_555
N41_3 Zn1_3 1_555 1_555
N43_3 Zn1_3 1_555 1_555
N45_3 Zn1_3 1_555 1_555
N47_2 N26_2 1_555 1_555
N49_2 N35 1_555 1_555
C27_3 C4_3 1_555 1_555
C28_3 C5_3 1_555 1_555
C29_3 C6_3 1_555 1_555
C30_3 C7_3 1_555 1_555
C31_3 C8_3 1_555 1_555
C32_3 C9_3 1_555 1_555
C33_3 C10_3 1_555 1_555
C34_3 C11_3 1_555 1_555
C35_3 C12_3 1_555 1_555
C36_3 C13_3 1_555 1_555
C37_3 C14_3 1_555 1_555
C38_3 C15_3 1_555 1_555
C41_3 C18_3 1_555 1_555
C42_3 C19_3 1_555 1_555
C45_3 C22_3 1_555 1_555
C46_3 C23_3 1_555 1_555
C49_3 C26_3 1_555 1_555
C50_3 O1_3 1_555 1_555
C51_3 C28_3 1_555 1_555
C52_3 C3_3 1_555 1_555
C53_3 C30_3 1_555 1_555
C54_3 C31_3 1_555 1_555
C55_3 C32_3 1_555 1_555
C56_3 C33_3 1_555 1_555
C57_3 C34_3 1_555 1_555
C58_3 C35_3 1_555 1_555
C59_3 C36_3 1_555 1_555
C60_3 C37_3 1_555 1_555
C61_3 C38_3 1_555 1_555
C64_3 C41_3 1_555 1_555
C65_3 C42_3 1_555 1_555
C68_3 C45_3 1_555 1_555
C69_3 C46_3 1_555 1_555
C72_3 C49_3 1_555 1_555
O2_3 C51_3 1_555 1_555
O3_3 C53_3 1_555 1_555
O4_3 C55_3 1_555 1_555
O5_3 C57_3 1_555 1_555
O6_3 C59_3 1_555 1_555
O7_5 C61_3 1_555 1_555
O9_6 C65_3 1_555 1_555
O11_6 C69_3 1_555 1_555
Zn4 N36_3 1_555 1_555
Zn4_2 N38_2 1_555 1_555
H2_3 C29_3 1_555 1_555
H3_3 C28_3 1_555 1_555
H4_3 C27_3 1_555 1_555
H5_3 C30_3 1_555 1_555
H6_3 C33_3 1_555 1_555
H7_3 C32_3 1_555 1_555
H8_3 C31_3 1_555 1_555
H9_3 C34_3 1_555 1_555
H10_3 C37_3 1_555 1_555
H11_3 C36_3 1_555 1_555
H12_3 C35_3 1_555 1_555
H13_3 C38_3 1_555 1_555
H14_3 C41_3 1_555 1_555
H17_3 C42_3 1_555 1_555
H18_3 C45_3 1_555 1_555
H21_3 C46_3 1_555 1_555
H22_3 C49_3 1_555 1_555
Co4_3 N5_3 1_555 1_555
N34 N36_3 1_555 1_555
N5_3 C6_3 1_555 1_555
N6_3 N37_3 1_555 1_555
N8_2 N38_2 1_555 1_555
N9_3 N37_3 1_555 1_555
N10_3 N39_3 1_555 1_555
N30_2 N48 1_555 1_555
N13_3 N39_3 1_555 1_555
N14_3 N41_3 1_555 1_555
N17_3 N41_3 1_555 1_555
N18_3 N43_3 1_555 1_555
N21_3 N43_3 1_555 1_555
N22_3 N45_3 1_555 1_555
N25_3 N45_3 1_555 1_555
C4_3 C5_3 1_555 1_555
C7_3 C10_3 1_555 1_555
C8_3 C9_3 1_555 1_555
C11_3 C14_3 1_555 1_555
C19_3 C22_3 1_555 1_555
C23_3 C26_3 1_555 1_555
N47_2 Zn4 1_555 1_555
N49_2 Zn4 1_555 1_555
C27_3 C50_3 1_555 1_555
C29_3 C52_3 1_555 1_555
C50_3 C51_3 1_555 1_555
C52_3 O2_3 1_555 1_555
C53_3 C56_3 1_555 1_555
C54_3 C55_3 1_555 1_555
C54_3 O3_3 1_555 1_555
C56_3 O4_3 1_555 1_555
C57_3 C60_3 1_555 1_555
C58_3 C59_3 1_555 1_555
C58_3 O5_3 1_555 1_555
C60_3 O6_3 1_555 1_555
C61_3 C64_3 1_555 1_555
C64_3 O8_5 1_555 1_555
C65_3 C68_3 1_555 1_555
C68_3 O10_6 1_555 1_555
C69_3 C72_3 1_555 1_555
C72_3 O12_6 1_555 1_555
Co14_2 N15_3 1_555 1_555
N15_3 C16_3 1_555 1_555
N35_2 C17_3 1_555 1_555
C16_3 C17_3 1_555 1_555
C17_3 C40_3 1_555 1_555
N42_2 N15_3 1_555 1_555
C39_3 C16_3 1_555 1_555
C40_3 C63_3 1_555 1_555
C62_3 C39_3 1_555 1_555
C63_3 C62_3 1_555 1_555
O8_6 C63_3 1_555 1_555
Zn4_2 N42_2 1_555 1_555
H15_3 C40_3 1_555 1_555
H16_3 C39_3 1_555 1_555
N35_2 N42_2 1_555 1_555
C62_3 O7_6 1_555 1_555
Co14 N15_4 1_555 1_555
N15_4 C16_4 1_555 1_555
N35 C17_4 1_555 1_555
C16_4 C17_4 1_555 1_555
C17_4 C40_4 1_555 1_555
N49_2 N15_4 1_555 1_555
C39_4 C16_4 1_555 1_555
C40_4 C63_4 1_555 1_555
C62_4 C39_4 1_555 1_555
C63_4 C62_4 1_555 1_555
O8_7 C63_4 1_555 1_555
H15_4 C40_4 1_555 1_555
H16_4 C39_4 1_555 1_555
C62_4 O7_7 1_555 1_555
Co11 N20_4 1_555 1_555
N33 C20_4 1_555 1_555
N20_4 C21_4 1_555 1_555
C20_4 C21_4 1_555 1_555
C21_4 C44_4 1_555 1_555
C43_4 C20_4 1_555 1_555
C44_4 C67_4 1_555 1_555
C66_4 C43_4 1_555 1_555
C67_4 C66_4 1_555 1_555
O10_7 C67_4 1_555 1_555
H19_4 C44_4 1_555 1_555
H20_4 C43_4 1_555 1_555
N20_4 N50_2 1_555 1_555
C66_4 O9_7 1_555 1_555
Co1_4 Cl1_4 1_555 1_555
N1_4 Co1_4 1_555 1_555
C1_4 N1_4 1_555 1_555
N2_4 N1_4 1_555 1_555
C2_4 C1_4 1_555 1_555
C3_4 C2_4 1_555 1_555
O1_4 C3_4 1_555 1_555
Zn1_4 N2_4 1_555 1_555
H1_4 C2_4 1_555 1_555
Co4_4 Cl4_4 1_555 1_555
Co5_4 Cl5_4 1_555 1_555
Co9 Cl6_4 1_555 1_555
Co10_4 N14_4 1_555 1_555
N5_4 N2_4 1_555 1_555
N6_4 Co5_4 1_555 1_555
N7_4 Co9 1_555 1_555
N9_4 Co1_4 1_555 1_555
N10_4 Co4_4 1_555 1_555
N30 C13_4 1_555 1_555
N13_4 Co5_4 1_555 1_555
N14_4 C15_4 1_555 1_555
N17_4 Co4_4 1_555 1_555
N18_4 Co1_4 1_555 1_555
N21_4 Co10_4 1_555 1_555
N22_4 Co5_4 1_555 1_555
N25_4 Co10_4 1_555 1_555
C4_4 N32_2 1_555 1_555
C5_4 N34_2 1_555 1_555
C6_4 C1_4 1_555 1_555
C7_4 N6_4 1_555 1_555
C8_4 N7_4 1_555 1_555
C9_4 N26_2 1_555 1_555
C10_4 N9_4 1_555 1_555
C11_4 N10_4 1_555 1_555
C12_4 N28_2 1_555 1_555
C13_4 C12_4 1_555 1_555
C14_4 N13_4 1_555 1_555
C15_4 C18_4 1_555 1_555
C18_4 N17_4 1_555 1_555
C19_4 N18_4 1_555 1_555
C22_4 N21_4 1_555 1_555
C23_4 N22_4 1_555 1_555
C26_4 N25_4 1_555 1_555
N36_4 N32_2 1_555 1_555
N37_4 Zn1_4 1_555 1_555
N47_2 N7_4 1_555 1_555
N39_4 Zn1_4 1_555 1_555
N41_4 Zn1_4 1_555 1_555
N43_4 Zn1_4 1_555 1_555
N45_4 Zn1_4 1_555 1_555
N51_2 Zn4_2 1_555 1_555
C27_4 C4_4 1_555 1_555
C28_4 C5_4 1_555 1_555
C29_4 C6_4 1_555 1_555
C30_4 C7_4 1_555 1_555
C31_4 C8_4 1_555 1_555
C32_4 C9_4 1_555 1_555
C33_4 C10_4 1_555 1_555
C34_4 C11_4 1_555 1_555
C35_4 C12_4 1_555 1_555
C36_4 C13_4 1_555 1_555
C37_4 C14_4 1_555 1_555
C38_4 C15_4 1_555 1_555
C41_4 C18_4 1_555 1_555
C42_4 C19_4 1_555 1_555
C45_4 C22_4 1_555 1_555
C46_4 C23_4 1_555 1_555
C49_4 C26_4 1_555 1_555
C50_4 O1_4 1_555 1_555
C51_4 C28_4 1_555 1_555
C52_4 C3_4 1_555 1_555
C53_4 C30_4 1_555 1_555
C54_4 C31_4 1_555 1_555
C55_4 C32_4 1_555 1_555
C56_4 C33_4 1_555 1_555
C57_4 C34_4 1_555 1_555
C58_4 C35_4 1_555 1_555
C59_4 C36_4 1_555 1_555
C60_4 C37_4 1_555 1_555
C61_4 C38_4 1_555 1_555
C64_4 C41_4 1_555 1_555
C65_4 C42_4 1_555 1_555
C68_4 C45_4 1_555 1_555
C69_4 C46_4 1_555 1_555
C72_4 C49_4 1_555 1_555
O2_4 C51_4 1_555 1_555
O3_4 C53_4 1_555 1_555
O4_4 C55_4 1_555 1_555
O5_4 C57_4 1_555 1_555
O6_4 C59_4 1_555 1_555
O7_8 C61_4 1_555 1_555
O9_8 C65_4 1_555 1_555
O11_7 C69_4 1_555 1_555
Zn4_2 N36_4 1_555 1_555
H2_4 C29_4 1_555 1_555
H3_4 C28_4 1_555 1_555
H4_4 C27_4 1_555 1_555
H5_4 C30_4 1_555 1_555
H6_4 C33_4 1_555 1_555
H7_4 C32_4 1_555 1_555
H8_4 C31_4 1_555 1_555
H9_4 C34_4 1_555 1_555
H10_4 C37_4 1_555 1_555
H11_4 C36_4 1_555 1_555
H12_4 C35_4 1_555 1_555
H13_4 C38_4 1_555 1_555
H14_4 C41_4 1_555 1_555
H17_4 C42_4 1_555 1_555
H18_4 C45_4 1_555 1_555
H21_4 C46_4 1_555 1_555
H22_4 C49_4 1_555 1_555
Co4_4 N5_4 1_555 1_555
N34_2 N36_4 1_555 1_555
N5_4 C6_4 1_555 1_555
N6_4 N37_4 1_555 1_555
N9_4 N37_4 1_555 1_555
N10_4 N39_4 1_555 1_555
N30 N48_2 1_555 1_555
N13_4 N39_4 1_555 1_555
N14_4 N41_4 1_555 1_555
N17_4 N41_4 1_555 1_555
N18_4 N43_4 1_555 1_555
N21_4 N43_4 1_555 1_555
N22_4 N45_4 1_555 1_555
N25_4 N45_4 1_555 1_555
C4_4 C5_4 1_555 1_555
C7_4 C10_4 1_555 1_555
C8_4 C9_4 1_555 1_555
C11_4 C14_4 1_555 1_555
C19_4 C22_4 1_555 1_555
C23_4 C26_4 1_555 1_555
C27_4 C50_4 1_555 1_555
C29_4 C52_4 1_555 1_555
C50_4 C51_4 1_555 1_555
C52_4 O2_4 1_555 1_555
C53_4 C56_4 1_555 1_555
C54_4 C55_4 1_555 1_555
C54_4 O3_4 1_555 1_555
C56_4 O4_4 1_555 1_555
C57_4 C60_4 1_555 1_555
C58_4 C59_4 1_555 1_555
C58_4 O5_4 1_555 1_555
C60_4 O6_4 1_555 1_555
C61_4 C64_4 1_555 1_555
C64_4 O8_8 1_555 1_555
C65_4 C68_4 1_555 1_555
C68_4 O10_8 1_555 1_555
C69_4 C72_4 1_555 1_555
C72_4 O12_7 1_555 1_555
Co14_2 N24_4 1_555 1_555
N31_2 C24_4 1_555 1_555
N24_4 C25_4 1_555 1_555
C24_4 C25_4 1_555 1_555
C25_4 C48_4 1_555 1_555
N51_2 N31_2 1_555 1_555
C47_4 C24_4 1_555 1_555
C48_4 C71_4 1_555 1_555
C70_4 C47_4 1_555 1_555
C71_4 C70_4 1_555 1_555
O12_8 C71_4 1_555 1_555
H23_4 C48_4 1_555 1_555
H24_4 C47_4 1_555 1_555
N24_4 N51_2 1_555 1_555
C70_4 O11_8 1_555 1_555
Co14 Cl6_5 1_555 1_555
Co10_4 Cl5_5 1_555 1_555
Co10_3 Cl5_6 1_555 1_555
Co14_2 Cl6_6 1_555 1_555
Co16 Cl6_7 1_555 1_555
Co10_2 Cl5_7 1_555 1_555
Co10 Cl5_8 1_555 1_555
Co11 Cl6_8 1_555 1_555

#END
