
###############################################################################
#
# This file contains modified crystal structure data generated from the
# MOF subset of the Cambridge Structural Database (CSD) v543 
# hosted by the Cambridge Crystallographic Data Centre (CCDC).
#
# This work is licensed under the Creative Commons
# Attribution-NonCommercial-ShareAlike 4.0 International License.
# To view a copy of this license, visit
# http://creativecommons.org/licenses/by-nc-sa/4.0/
# or send a letter to
# Creative Commons, PO Box 1866, Mountain View, CA 94042, USA.
#
# CIF created using the CSD Python API on 29 September 2022
# The structure has been converted into the P1 space group
# The structure has a 3D framework
# The original CSD entry XALXUF01 is in the tetragonal crystal system
# The framework has been calculated to contain at least 10.0% void space
# The void calculation uses a probe of radius 1.32A, grid spacing 0.4
# H atom positions have been added when not included in the experimental data
# Generated hydrogen atom positions removed from atoms on special positions
#
###############################################################################

data_XALXUF01
_chemical_formula_moiety         '(C432 H352 Cu56 N96 O240)n'
_symmetry_cell_setting           triclinic
_symmetry_space_group_name_H-M   'P 1'
_symmetry_Int_Tables_number      1
_space_group_name_Hall           'P 1'
loop_
_symmetry_equiv_pos_site_id
_symmetry_equiv_pos_as_xyz
1 x,y,z
_cell_length_a                   26.860(4)
_cell_length_b                   26.860(4)
_cell_length_c                   37.753(8)
_cell_angle_alpha                90
_cell_angle_beta                 90
_cell_angle_gamma                90
_cell_volume                     27237.3
loop_
_atom_site_label
_atom_site_type_symbol
_atom_site_fract_x
_atom_site_fract_y
_atom_site_fract_z
Cu1 Cu 0.04746(3) 0.70528(2) 0.5000
Cu2 Cu 0.06207(2) 0.60834(2) 0.5000
Cu3 Cu 0.172670(18) 0.877370(17) 0.354220(12)
Cu4 Cu 0.227860(17) 0.837360(17) 0.303900(12)
O1 O 0.11047(12) 0.62203(11) 0.46304(8)
O2 O 0.09801(12) 0.70448(11) 0.46334(7)
O3 O 0.17739(12) 0.81124(11) 0.37594(7)
O4 O 0.21888(12) 0.77657(11) 0.33090(7)
O5 O 0.27044(11) 0.59561(11) 0.21620(7)
O6 O 0.32403(11) 0.56455(10) 0.17643(7)
O7 O 0.35334(12) 0.38519(11) 0.17199(8)
O8 O 0.32649(12) 0.33741(11) 0.21710(7)
O9 O 0.14566(12) 0.28556(11) 0.33326(8)
O10 O 0.10519(11) 0.23780(11) 0.37266(7)
O11 O 0.00204(12) 0.30975(11) 0.46366(7)
O13 O 0.0358(3) 0.7839(3) 0.5000
O14 O 0.0695(2) 0.52944(18) 0.5000
O15 O 0.1316(2) 0.91030(17) 0.39738(11)
O16 O 0.26345(12) 0.80100(13) 0.25852(8)
N1 N 0.1675(2) 0.52887(16) 0.37044(14)
N2 N 0.2241(2) 0.52249(16) 0.32226(13)
N3 N 0.1777(2) 0.45146(19) 0.34148(13)
N4 N 0.2142(2) 0.59577(16) 0.34975(13)
H1 H 0.2389 0.6039 0.3364
N5 N 0.2305(2) 0.4455(2) 0.29523(15)
H2 H 0.2232 0.4145 0.2974
N6 N 0.1231(2) 0.46166(16) 0.38805(13)
H3 H 0.1101 0.4829 0.4023
C1 C 0.2010(3) 0.5474(2) 0.34800(16)
C2 C 0.2115(3) 0.4753(2) 0.32044(17)
C3 C 0.1576(3) 0.4811(2) 0.36556(17)
C4 C 0.1943(2) 0.63538(19) 0.36991(14)
C5 C 0.1672(2) 0.62949(19) 0.40107(13)
H4 H 0.1608 0.5978 0.4099
C6 C 0.14979(18) 0.67107(17) 0.41887(11)
C7 C 0.15976(17) 0.71875(16) 0.40619(11)
H5 H 0.1481 0.7466 0.4183
C8 C 0.18717(18) 0.72427(16) 0.37542(11)
C9 C 0.2048(2) 0.68279(18) 0.35762(13)
H6 H 0.2238 0.6868 0.3372
C10 C 0.11743(17) 0.66517(17) 0.45122(11)
C11 C 0.19544(16) 0.77430(16) 0.35994(10)
C12 C 0.2605(2) 0.4571(2) 0.26589(15)
C13 C 0.2654(2) 0.50421(18) 0.25150(14)
H7 H 0.2502 0.5313 0.2623
C14 C 0.29342(17) 0.51084(16) 0.22043(12)
C15 C 0.31607(16) 0.47022(16) 0.20500(11)
H8 H 0.3350 0.4745 0.1846
C16 C 0.31104(17) 0.42352(16) 0.21928(11)
C17 C 0.2838(2) 0.41698(18) 0.24987(14)
H9 H 0.2810 0.3854 0.2598
C18 C 0.29623(15) 0.56093(15) 0.20340(11)
C19 C 0.33239(16) 0.37863(16) 0.20160(12)
C20 C 0.1051(2) 0.41236(18) 0.39192(14)
C21 C 0.1219(2) 0.37131(17) 0.37310(13)
H10 H 0.1453 0.3754 0.3551
C22 C 0.10382(17) 0.32417(16) 0.38107(11)
C23 C 0.06762(16) 0.31779(16) 0.40768(11)
H11 H 0.0554 0.2863 0.4131
C24 C 0.05046(17) 0.35954(16) 0.42575(11)
C25 C 0.0694(2) 0.40593(17) 0.41827(12)
H12 H 0.0582 0.4334 0.4310
C26 C 0.11976(15) 0.27957(16) 0.36100(11)
C27 C 0.01147(17) 0.35277(16) 0.45323(10)
Cu7 Cu 0.172670(18) 0.877370(17) 0.645780(12)
Cu8 Cu 0.327330(18) 0.622630(17) 0.145780(12)
Cu9 Cu 0.377370(17) 0.327330(18) 0.145780(12)
Cu10 Cu 0.122630(17) 0.172670(18) 0.354220(12)
Cu11 Cu 0.327330(18) 0.622630(17) 0.854220(12)
Cu12 Cu 0.377370(17) 0.327330(18) 0.854220(12)
Cu13 Cu 0.122630(17) 0.172670(18) 0.645780(12)
Cu14 Cu 0.227860(17) 0.837360(17) 0.696100(12)
Cu15 Cu 0.272140(17) 0.662640(17) 0.196100(12)
Cu16 Cu 0.337360(17) 0.272140(17) 0.196100(12)
Cu17 Cu 0.162640(17) 0.227860(17) 0.303900(12)
Cu18 Cu 0.272140(17) 0.662640(17) 0.803900(12)
Cu19 Cu 0.337360(17) 0.272140(17) 0.803900(12)
Cu20 Cu 0.162640(17) 0.227860(17) 0.696100(12)
O17 O 0.11047(12) 0.62203(11) 0.53696(8)
O18 O 0.09801(12) 0.70448(11) 0.53666(7)
O19 O 0.17739(12) 0.81124(11) 0.62406(7)
O20 O 0.21888(12) 0.77657(11) 0.66910(7)
O21 O 0.27044(11) 0.59561(11) 0.78380(7)
O22 O 0.22956(11) 0.90439(11) 0.28380(7)
O23 O 0.22956(11) 0.90439(11) 0.71620(7)
O24 O 0.32403(11) 0.56455(10) 0.82357(7)
O25 O 0.17597(11) 0.93545(10) 0.32357(7)
O26 O 0.17597(11) 0.93545(10) 0.67643(7)
O27 O 0.35334(12) 0.38519(11) 0.82801(8)
O28 O 0.11481(11) 0.85334(12) 0.32801(8)
O29 O 0.11481(11) 0.85334(12) 0.67199(8)
O30 O 0.32649(12) 0.33741(11) 0.78290(7)
O31 O 0.16259(11) 0.82649(12) 0.28290(7)
O32 O 0.16259(11) 0.82649(12) 0.71710(7)
O33 O 0.14566(12) 0.28556(11) 0.66674(8)
O34 O 0.28556(11) 0.85434(12) 0.33326(8)
O35 O 0.28556(11) 0.85434(12) 0.66674(8)
O36 O 0.10519(11) 0.23780(11) 0.62734(7)
O37 O 0.23780(11) 0.89481(11) 0.37266(7)
O38 O 0.23780(11) 0.89481(11) 0.62734(7)
O39 O 0.00204(12) 0.30975(11) 0.53634(7)
O43 O 0.01029(12) 0.60799(11) 0.46406(8)
O44 O 0.01029(12) 0.60799(11) 0.53594(8)
O45 O 0.1316(2) 0.91030(17) 0.60262(11)
O46 O 0.26345(12) 0.80100(13) 0.74148(8)
N7 N 0.1675(2) 0.52887(16) 0.62956(14)
N8 N 0.2241(2) 0.52249(16) 0.67774(13)
N9 N 0.1777(2) 0.45146(19) 0.65852(13)
N10 N 0.2142(2) 0.59577(16) 0.65025(13)
H13 H 0.2389 0.6039 0.6636
N11 N 0.2305(2) 0.4455(2) 0.70477(15)
H14 H 0.2232 0.4145 0.7026
N12 N 0.1231(2) 0.46166(16) 0.61195(13)
H15 H 0.1101 0.4829 0.5977
C28 C 0.2010(3) 0.5474(2) 0.65200(16)
C29 C 0.2115(3) 0.4753(2) 0.67956(17)
C30 C 0.1576(3) 0.4811(2) 0.63444(17)
C31 C 0.1943(2) 0.63538(19) 0.63009(14)
C32 C 0.1672(2) 0.62949(19) 0.59893(13)
H16 H 0.1608 0.5978 0.5901
C33 C 0.14979(18) 0.67107(17) 0.58113(11)
C34 C 0.15976(17) 0.71875(16) 0.59381(11)
H17 H 0.1481 0.7466 0.5817
C35 C 0.18717(18) 0.72427(16) 0.62458(11)
C36 C 0.2048(2) 0.68279(18) 0.64238(13)
H18 H 0.2238 0.6868 0.6628
C37 C 0.11743(17) 0.66517(17) 0.54878(11)
C38 C 0.19544(16) 0.77430(16) 0.64006(10)
C39 C 0.2605(2) 0.4571(2) 0.73411(15)
C40 C 0.2654(2) 0.50421(18) 0.74850(14)
H19 H 0.2502 0.5313 0.7377
C41 C 0.29342(17) 0.51084(16) 0.77957(12)
C42 C 0.31607(16) 0.47022(16) 0.79500(11)
H20 H 0.3350 0.4745 0.8154
C43 C 0.31104(17) 0.42352(16) 0.78072(11)
C44 C 0.2838(2) 0.41698(18) 0.75013(14)
H21 H 0.2810 0.3854 0.7402
C45 C 0.29623(15) 0.56093(15) 0.79660(11)
C46 C 0.33239(16) 0.37863(16) 0.79840(12)
C47 C 0.1051(2) 0.41236(18) 0.60808(14)
C48 C 0.1219(2) 0.37131(17) 0.62690(13)
H22 H 0.1453 0.3754 0.6449
C49 C 0.10382(17) 0.32417(16) 0.61893(11)
C50 C 0.06762(16) 0.31779(16) 0.59232(11)
H23 H 0.0554 0.2863 0.5869
C51 C 0.05046(17) 0.35954(16) 0.57425(11)
C52 C 0.0694(2) 0.40593(17) 0.58173(12)
H24 H 0.0582 0.4334 0.5690
C53 C 0.11976(15) 0.27957(16) 0.63900(11)
C54 C 0.01147(17) 0.35277(16) 0.54677(10)
O12 O 0.98971(12) 0.39201(11) 0.46406(8)
Cu5 Cu 0.95254(3) 0.29472(2) 0.5000
Cu6 Cu 0.93793(2) 0.39166(2) 0.5000
O40 O 0.99796(12) 0.69025(11) 0.46366(7)
O41 O 0.99796(12) 0.69025(11) 0.53634(7)
O42 O 0.98971(12) 0.39201(11) 0.53594(8)
Cu3_2 Cu 0.827330(18) 0.122630(17) 0.354220(12)
Cu4_2 Cu 0.772140(17) 0.162640(17) 0.303900(12)
O1_2 O 0.88953(12) 0.37797(11) 0.46304(8)
O2_2 O 0.90199(12) 0.29552(11) 0.46334(7)
O3_2 O 0.82261(12) 0.18876(11) 0.37594(7)
O4_2 O 0.78112(12) 0.22343(11) 0.33090(7)
O5_2 O 0.72956(11) 0.40439(11) 0.21620(7)
O6_2 O 0.67597(11) 0.43545(10) 0.17643(7)
O7_2 O 0.64666(12) 0.61481(11) 0.17199(8)
O8_2 O 0.67351(12) 0.66259(11) 0.21710(7)
O9_2 O 0.85434(12) 0.71444(11) 0.33326(8)
O10_2 O 0.89481(11) 0.76220(11) 0.37266(7)
O13_2 O 0.9642(3) 0.2161(3) 0.5000
O14_2 O 0.9305(2) 0.47056(18) 0.5000
O15_2 O 0.8684(2) 0.08970(17) 0.39738(11)
O16_2 O 0.73655(12) 0.19900(13) 0.25852(8)
N1_2 N 0.8325(2) 0.47113(16) 0.37044(14)
N2_2 N 0.7759(2) 0.47751(16) 0.32226(13)
N3_2 N 0.8223(2) 0.54854(19) 0.34148(13)
N4_2 N 0.7858(2) 0.40423(16) 0.34975(13)
H1_2 H 0.7611 0.3961 0.3364
N5_2 N 0.7695(2) 0.5545(2) 0.29523(15)
H2_2 H 0.7768 0.5855 0.2974
N6_2 N 0.8769(2) 0.53834(16) 0.38805(13)
H3_2 H 0.8899 0.5171 0.4023
C1_2 C 0.7990(3) 0.4526(2) 0.34800(16)
C2_2 C 0.7885(3) 0.5247(2) 0.32044(17)
C3_2 C 0.8424(3) 0.5189(2) 0.36556(17)
C4_2 C 0.8057(2) 0.36462(19) 0.36991(14)
C5_2 C 0.8328(2) 0.37051(19) 0.40107(13)
H4_2 H 0.8392 0.4022 0.4099
C6_2 C 0.85021(18) 0.32893(17) 0.41887(11)
C7_2 C 0.84024(17) 0.28125(16) 0.40619(11)
H5_2 H 0.8519 0.2534 0.4183
C8_2 C 0.81283(18) 0.27573(16) 0.37542(11)
C9_2 C 0.7952(2) 0.31721(18) 0.35762(13)
H6_2 H 0.7762 0.3132 0.3372
C10_2 C 0.88257(17) 0.33483(17) 0.45122(11)
C11_2 C 0.80456(16) 0.22570(16) 0.35994(10)
C12_2 C 0.7395(2) 0.5429(2) 0.26589(15)
C13_2 C 0.7346(2) 0.49579(18) 0.25150(14)
H7_2 H 0.7498 0.4687 0.2623
C14_2 C 0.70658(17) 0.48916(16) 0.22043(12)
C15_2 C 0.68393(16) 0.52978(16) 0.20500(11)
H8_2 H 0.6650 0.5255 0.1846
C16_2 C 0.68896(17) 0.57648(16) 0.21928(11)
C17_2 C 0.7162(2) 0.58302(18) 0.24987(14)
H9_2 H 0.7190 0.6146 0.2598
C18_2 C 0.70377(15) 0.43907(15) 0.20340(11)
C19_2 C 0.66761(16) 0.62137(16) 0.20160(12)
C20_2 C 0.8949(2) 0.58764(18) 0.39192(14)
C21_2 C 0.8781(2) 0.62869(17) 0.37310(13)
H10_2 H 0.8547 0.6246 0.3551
C22_2 C 0.89618(17) 0.67583(16) 0.38107(11)
C23_2 C 0.93238(16) 0.68221(16) 0.40768(11)
H11_2 H 0.9446 0.7137 0.4131
C24_2 C 0.94954(17) 0.64046(16) 0.42575(11)
C25_2 C 0.9306(2) 0.59407(17) 0.41827(12)
H12_2 H 0.9418 0.5666 0.4310
C26_2 C 0.88024(15) 0.72043(16) 0.36100(11)
C27_2 C 0.98853(17) 0.64723(16) 0.45323(10)
Cu7_2 Cu 0.827330(18) 0.122630(17) 0.645780(12)
Cu8_2 Cu 0.672670(18) 0.377370(17) 0.145780(12)
Cu9_2 Cu 0.622630(17) 0.672670(18) 0.145780(12)
Cu10_2 Cu 0.877370(17) 0.827330(18) 0.354220(12)
Cu11_2 Cu 0.672670(18) 0.377370(17) 0.854220(12)
Cu12_2 Cu 0.622630(17) 0.672670(18) 0.854220(12)
Cu13_2 Cu 0.877370(17) 0.827330(18) 0.645780(12)
Cu14_2 Cu 0.772140(17) 0.162640(17) 0.696100(12)
Cu15_2 Cu 0.727860(17) 0.337360(17) 0.196100(12)
Cu16_2 Cu 0.662640(17) 0.727860(17) 0.196100(12)
Cu17_2 Cu 0.837360(17) 0.772140(17) 0.303900(12)
Cu18_2 Cu 0.727860(17) 0.337360(17) 0.803900(12)
Cu19_2 Cu 0.662640(17) 0.727860(17) 0.803900(12)
Cu20_2 Cu 0.837360(17) 0.772140(17) 0.696100(12)
O17_2 O 0.88953(12) 0.37797(11) 0.53696(8)
O18_2 O 0.90199(12) 0.29552(11) 0.53666(7)
O19_2 O 0.82261(12) 0.18876(11) 0.62406(7)
O20_2 O 0.78112(12) 0.22343(11) 0.66910(7)
O21_2 O 0.72956(11) 0.40439(11) 0.78380(7)
O22_2 O 0.77044(11) 0.09561(11) 0.28380(7)
O23_2 O 0.77044(11) 0.09561(11) 0.71620(7)
O24_2 O 0.67597(11) 0.43545(10) 0.82357(7)
O25_2 O 0.82403(11) 0.06455(10) 0.32357(7)
O26_2 O 0.82403(11) 0.06455(10) 0.67643(7)
O27_2 O 0.64666(12) 0.61481(11) 0.82801(8)
O28_2 O 0.88519(11) 0.14666(12) 0.32801(8)
O29_2 O 0.88519(11) 0.14666(12) 0.67199(8)
O30_2 O 0.67351(12) 0.66259(11) 0.78290(7)
O31_2 O 0.83741(11) 0.17351(12) 0.28290(7)
O32_2 O 0.83741(11) 0.17351(12) 0.71710(7)
O33_2 O 0.85434(12) 0.71444(11) 0.66674(8)
O34_2 O 0.71444(11) 0.14566(12) 0.33326(8)
O35_2 O 0.71444(11) 0.14566(12) 0.66674(8)
O36_2 O 0.89481(11) 0.76220(11) 0.62734(7)
O37_2 O 0.76220(11) 0.10519(11) 0.37266(7)
O38_2 O 0.76220(11) 0.10519(11) 0.62734(7)
O45_2 O 0.8684(2) 0.08970(17) 0.60262(11)
O46_2 O 0.73655(12) 0.19900(13) 0.74148(8)
N7_2 N 0.8325(2) 0.47113(16) 0.62956(14)
N8_2 N 0.7759(2) 0.47751(16) 0.67774(13)
N9_2 N 0.8223(2) 0.54854(19) 0.65852(13)
N10_2 N 0.7858(2) 0.40423(16) 0.65025(13)
H13_2 H 0.7611 0.3961 0.6636
N11_2 N 0.7695(2) 0.5545(2) 0.70477(15)
H14_2 H 0.7768 0.5855 0.7026
N12_2 N 0.8769(2) 0.53834(16) 0.61195(13)
H15_2 H 0.8899 0.5171 0.5977
C28_2 C 0.7990(3) 0.4526(2) 0.65200(16)
C29_2 C 0.7885(3) 0.5247(2) 0.67956(17)
C30_2 C 0.8424(3) 0.5189(2) 0.63444(17)
C31_2 C 0.8057(2) 0.36462(19) 0.63009(14)
C32_2 C 0.8328(2) 0.37051(19) 0.59893(13)
H16_2 H 0.8392 0.4022 0.5901
C33_2 C 0.85021(18) 0.32893(17) 0.58113(11)
C34_2 C 0.84024(17) 0.28125(16) 0.59381(11)
H17_2 H 0.8519 0.2534 0.5817
C35_2 C 0.81283(18) 0.27573(16) 0.62458(11)
C36_2 C 0.7952(2) 0.31721(18) 0.64238(13)
H18_2 H 0.7762 0.3132 0.6628
C37_2 C 0.88257(17) 0.33483(17) 0.54878(11)
C38_2 C 0.80456(16) 0.22570(16) 0.64006(10)
C39_2 C 0.7395(2) 0.5429(2) 0.73411(15)
C40_2 C 0.7346(2) 0.49579(18) 0.74850(14)
H19_2 H 0.7498 0.4687 0.7377
C41_2 C 0.70658(17) 0.48916(16) 0.77957(12)
C42_2 C 0.68393(16) 0.52978(16) 0.79500(11)
H20_2 H 0.6650 0.5255 0.8154
C43_2 C 0.68896(17) 0.57648(16) 0.78072(11)
C44_2 C 0.7162(2) 0.58302(18) 0.75013(14)
H21_2 H 0.7190 0.6146 0.7402
C45_2 C 0.70377(15) 0.43907(15) 0.79660(11)
C46_2 C 0.66761(16) 0.62137(16) 0.79840(12)
C47_2 C 0.8949(2) 0.58764(18) 0.60808(14)
C48_2 C 0.8781(2) 0.62869(17) 0.62690(13)
H22_2 H 0.8547 0.6246 0.6449
C49_2 C 0.89618(17) 0.67583(16) 0.61893(11)
C50_2 C 0.93238(16) 0.68221(16) 0.59232(11)
H23_2 H 0.9446 0.7137 0.5869
C51_2 C 0.94954(17) 0.64046(16) 0.57425(11)
C52_2 C 0.9306(2) 0.59407(17) 0.58173(12)
H24_2 H 0.9418 0.5666 0.5690
C53_2 C 0.88024(15) 0.72043(16) 0.63900(11)
C54_2 C 0.98853(17) 0.64723(16) 0.54677(10)
Cu1_2 Cu 0.29472(2) 0.04746(3) 0.5000
Cu2_2 Cu 0.39166(2) 0.06207(2) 0.5000
O1_3 O 0.37797(11) 0.11047(12) 0.46304(8)
O2_3 O 0.29552(11) 0.09801(12) 0.46334(7)
O3_3 O 0.18876(11) 0.17739(12) 0.37594(7)
O4_3 O 0.22343(11) 0.21888(12) 0.33090(7)
O5_3 O 0.40439(11) 0.27044(11) 0.21620(7)
O6_3 O 0.43545(10) 0.32403(11) 0.17643(7)
O7_3 O 0.61481(11) 0.35334(12) 0.17199(8)
O8_3 O 0.66259(11) 0.32649(12) 0.21710(7)
O11_2 O 0.69025(11) 0.00204(12) 0.46366(7)
O13_3 O 0.2161(3) 0.0358(3) 0.5000
O14_3 O 0.47056(18) 0.0695(2) 0.5000
O15_3 O 0.08970(17) 0.1316(2) 0.39738(11)
O16_3 O 0.19900(13) 0.26345(12) 0.25852(8)
N1_3 N 0.47113(16) 0.1675(2) 0.37044(14)
N2_3 N 0.47751(16) 0.2241(2) 0.32226(13)
N3_3 N 0.54854(19) 0.1777(2) 0.34148(13)
N4_3 N 0.40423(16) 0.2142(2) 0.34975(13)
H1_3 H 0.3961 0.2389 0.3364
N5_3 N 0.5545(2) 0.2305(2) 0.29523(15)
H2_3 H 0.5855 0.2232 0.2974
N6_3 N 0.53834(16) 0.1231(2) 0.38805(13)
H3_3 H 0.5171 0.1101 0.4023
C1_3 C 0.4526(2) 0.2010(3) 0.34800(16)
C2_3 C 0.5247(2) 0.2115(3) 0.32044(17)
C3_3 C 0.5189(2) 0.1576(3) 0.36556(17)
C4_3 C 0.36462(19) 0.1943(2) 0.36991(14)
C5_3 C 0.37051(19) 0.1672(2) 0.40107(13)
H4_3 H 0.4022 0.1608 0.4099
C6_3 C 0.32893(17) 0.14979(18) 0.41887(11)
C7_3 C 0.28125(16) 0.15976(17) 0.40619(11)
H5_3 H 0.2534 0.1481 0.4183
C8_3 C 0.27573(16) 0.18717(18) 0.37542(11)
C9_3 C 0.31721(18) 0.2048(2) 0.35762(13)
H6_3 H 0.3132 0.2238 0.3372
C10_3 C 0.33483(17) 0.11743(17) 0.45122(11)
C11_3 C 0.22570(16) 0.19544(16) 0.35994(10)
C12_3 C 0.5429(2) 0.2605(2) 0.26589(15)
C13_3 C 0.49579(18) 0.2654(2) 0.25150(14)
H7_3 H 0.4687 0.2502 0.2623
C14_3 C 0.48916(16) 0.29342(17) 0.22043(12)
C15_3 C 0.52978(16) 0.31607(16) 0.20500(11)
H8_3 H 0.5255 0.3350 0.1846
C16_3 C 0.57648(16) 0.31104(17) 0.21928(11)
C17_3 C 0.58302(18) 0.2838(2) 0.24987(14)
H9_3 H 0.6146 0.2810 0.2598
C18_3 C 0.43907(15) 0.29623(15) 0.20340(11)
C19_3 C 0.62137(16) 0.33239(16) 0.20160(12)
C20_3 C 0.58764(18) 0.1051(2) 0.39192(14)
C21_3 C 0.62869(17) 0.1219(2) 0.37310(13)
H10_3 H 0.6246 0.1453 0.3551
C22_3 C 0.67583(16) 0.10382(17) 0.38107(11)
C23_3 C 0.68221(16) 0.06762(16) 0.40768(11)
H11_3 H 0.7137 0.0554 0.4131
C24_3 C 0.64046(16) 0.05046(17) 0.42575(11)
C25_3 C 0.59407(17) 0.0694(2) 0.41827(12)
H12_3 H 0.5666 0.0582 0.4310
C26_3 C 0.72043(16) 0.11976(15) 0.36100(11)
C27_3 C 0.64723(16) 0.01147(17) 0.45323(10)
O17_3 O 0.37797(11) 0.11047(12) 0.53696(8)
O18_3 O 0.29552(11) 0.09801(12) 0.53666(7)
O19_3 O 0.18876(11) 0.17739(12) 0.62406(7)
O20_3 O 0.22343(11) 0.21888(12) 0.66910(7)
O21_3 O 0.40439(11) 0.27044(11) 0.78380(7)
O22_3 O 0.09561(11) 0.22956(11) 0.28380(7)
O23_3 O 0.09561(11) 0.22956(11) 0.71620(7)
O24_3 O 0.43545(10) 0.32403(11) 0.82357(7)
O25_3 O 0.06455(10) 0.17597(11) 0.32357(7)
O26_3 O 0.06455(10) 0.17597(11) 0.67643(7)
O27_3 O 0.61481(11) 0.35334(12) 0.82801(8)
O28_3 O 0.14666(12) 0.11481(11) 0.32801(8)
O29_3 O 0.14666(12) 0.11481(11) 0.67199(8)
O30_3 O 0.66259(11) 0.32649(12) 0.78290(7)
O31_3 O 0.17351(12) 0.16259(11) 0.28290(7)
O32_3 O 0.17351(12) 0.16259(11) 0.71710(7)
O39_2 O 0.69025(11) 0.00204(12) 0.53634(7)
O43_2 O 0.39201(11) 0.01029(12) 0.46406(8)
O44_2 O 0.39201(11) 0.01029(12) 0.53594(8)
O45_3 O 0.08970(17) 0.1316(2) 0.60262(11)
O46_3 O 0.19900(13) 0.26345(12) 0.74148(8)
N7_3 N 0.47113(16) 0.1675(2) 0.62956(14)
N8_3 N 0.47751(16) 0.2241(2) 0.67774(13)
N9_3 N 0.54854(19) 0.1777(2) 0.65852(13)
N10_3 N 0.40423(16) 0.2142(2) 0.65025(13)
H13_3 H 0.3961 0.2389 0.6636
N11_3 N 0.5545(2) 0.2305(2) 0.70477(15)
H14_3 H 0.5855 0.2232 0.7026
N12_3 N 0.53834(16) 0.1231(2) 0.61195(13)
H15_3 H 0.5171 0.1101 0.5977
C28_3 C 0.4526(2) 0.2010(3) 0.65200(16)
C29_3 C 0.5247(2) 0.2115(3) 0.67956(17)
C30_3 C 0.5189(2) 0.1576(3) 0.63444(17)
C31_3 C 0.36462(19) 0.1943(2) 0.63009(14)
C32_3 C 0.37051(19) 0.1672(2) 0.59893(13)
H16_3 H 0.4022 0.1608 0.5901
C33_3 C 0.32893(17) 0.14979(18) 0.58113(11)
C34_3 C 0.28125(16) 0.15976(17) 0.59381(11)
H17_3 H 0.2534 0.1481 0.5817
C35_3 C 0.27573(16) 0.18717(18) 0.62458(11)
C36_3 C 0.31721(18) 0.2048(2) 0.64238(13)
H18_3 H 0.3132 0.2238 0.6628
C37_3 C 0.33483(17) 0.11743(17) 0.54878(11)
C38_3 C 0.22570(16) 0.19544(16) 0.64006(10)
C39_3 C 0.5429(2) 0.2605(2) 0.73411(15)
C40_3 C 0.49579(18) 0.2654(2) 0.74850(14)
H19_3 H 0.4687 0.2502 0.7377
C41_3 C 0.48916(16) 0.29342(17) 0.77957(12)
C42_3 C 0.52978(16) 0.31607(16) 0.79500(11)
H20_3 H 0.5255 0.3350 0.8154
C43_3 C 0.57648(16) 0.31104(17) 0.78072(11)
C44_3 C 0.58302(18) 0.2838(2) 0.75013(14)
H21_3 H 0.6146 0.2810 0.7402
C45_3 C 0.43907(15) 0.29623(15) 0.79660(11)
C46_3 C 0.62137(16) 0.33239(16) 0.79840(12)
C47_3 C 0.58764(18) 0.1051(2) 0.60808(14)
C48_3 C 0.62869(17) 0.1219(2) 0.62690(13)
H22_3 H 0.6246 0.1453 0.6449
C49_3 C 0.67583(16) 0.10382(17) 0.61893(11)
C50_3 C 0.68221(16) 0.06762(16) 0.59232(11)
H23_3 H 0.7137 0.0554 0.5869
C51_3 C 0.64046(16) 0.05046(17) 0.57425(11)
C52_3 C 0.59407(17) 0.0694(2) 0.58173(12)
H24_3 H 0.5666 0.0582 0.5690
C53_3 C 0.72043(16) 0.11976(15) 0.63900(11)
C54_3 C 0.64723(16) 0.01147(17) 0.54677(10)
O12_2 O 0.60799(11) 0.98971(12) 0.46406(8)
Cu5_2 Cu 0.70528(2) 0.95254(3) 0.5000
Cu6_2 Cu 0.60834(2) 0.93793(2) 0.5000
O40_2 O 0.30975(11) 0.99796(12) 0.46366(7)
O41_2 O 0.30975(11) 0.99796(12) 0.53634(7)
O42_2 O 0.60799(11) 0.98971(12) 0.53594(8)
O1_4 O 0.62203(11) 0.88953(12) 0.46304(8)
O2_4 O 0.70448(11) 0.90199(12) 0.46334(7)
O3_4 O 0.81124(11) 0.82261(12) 0.37594(7)
O4_4 O 0.77657(11) 0.78112(12) 0.33090(7)
O5_4 O 0.59561(11) 0.72956(11) 0.21620(7)
O6_4 O 0.56455(10) 0.67597(11) 0.17643(7)
O7_4 O 0.38519(11) 0.64666(12) 0.17199(8)
O8_4 O 0.33741(11) 0.67351(12) 0.21710(7)
O13_4 O 0.7839(3) 0.9642(3) 0.5000
O14_4 O 0.52944(18) 0.9305(2) 0.5000
O15_4 O 0.91030(17) 0.8684(2) 0.39738(11)
O16_4 O 0.80100(13) 0.73655(12) 0.25852(8)
N1_4 N 0.52887(16) 0.8325(2) 0.37044(14)
N2_4 N 0.52249(16) 0.7759(2) 0.32226(13)
N3_4 N 0.45146(19) 0.8223(2) 0.34148(13)
N4_4 N 0.59577(16) 0.7858(2) 0.34975(13)
H1_4 H 0.6039 0.7611 0.3364
N5_4 N 0.4455(2) 0.7695(2) 0.29523(15)
H2_4 H 0.4145 0.7768 0.2974
N6_4 N 0.46166(16) 0.8769(2) 0.38805(13)
H3_4 H 0.4829 0.8899 0.4023
C1_4 C 0.5474(2) 0.7990(3) 0.34800(16)
C2_4 C 0.4753(2) 0.7885(3) 0.32044(17)
C3_4 C 0.4811(2) 0.8424(3) 0.36556(17)
C4_4 C 0.63538(19) 0.8057(2) 0.36991(14)
C5_4 C 0.62949(19) 0.8328(2) 0.40107(13)
H4_4 H 0.5978 0.8392 0.4099
C6_4 C 0.67107(17) 0.85021(18) 0.41887(11)
C7_4 C 0.71875(16) 0.84024(17) 0.40619(11)
H5_4 H 0.7466 0.8519 0.4183
C8_4 C 0.72427(16) 0.81283(18) 0.37542(11)
C9_4 C 0.68279(18) 0.7952(2) 0.35762(13)
H6_4 H 0.6868 0.7762 0.3372
C10_4 C 0.66517(17) 0.88257(17) 0.45122(11)
C11_4 C 0.77430(16) 0.80456(16) 0.35994(10)
C12_4 C 0.4571(2) 0.7395(2) 0.26589(15)
C13_4 C 0.50421(18) 0.7346(2) 0.25150(14)
H7_4 H 0.5313 0.7498 0.2623
C14_4 C 0.51084(16) 0.70658(17) 0.22043(12)
C15_4 C 0.47022(16) 0.68393(16) 0.20500(11)
H8_4 H 0.4745 0.6650 0.1846
C16_4 C 0.42352(16) 0.68896(17) 0.21928(11)
C17_4 C 0.41698(18) 0.7162(2) 0.24987(14)
H9_4 H 0.3854 0.7190 0.2598
C18_4 C 0.56093(15) 0.70377(15) 0.20340(11)
C19_4 C 0.37863(16) 0.66761(16) 0.20160(12)
C20_4 C 0.41236(18) 0.8949(2) 0.39192(14)
C21_4 C 0.37131(17) 0.8781(2) 0.37310(13)
H10_4 H 0.3754 0.8547 0.3551
C22_4 C 0.32417(16) 0.89618(17) 0.38107(11)
C23_4 C 0.31779(16) 0.93238(16) 0.40768(11)
H11_4 H 0.2863 0.9446 0.4131
C24_4 C 0.35954(16) 0.94954(17) 0.42575(11)
C25_4 C 0.40593(17) 0.9306(2) 0.41827(12)
H12_4 H 0.4334 0.9418 0.4310
C26_4 C 0.27957(16) 0.88024(15) 0.36100(11)
C27_4 C 0.35277(16) 0.98853(17) 0.45323(10)
O17_4 O 0.62203(11) 0.88953(12) 0.53696(8)
O18_4 O 0.70448(11) 0.90199(12) 0.53666(7)
O19_4 O 0.81124(11) 0.82261(12) 0.62406(7)
O20_4 O 0.77657(11) 0.78112(12) 0.66910(7)
O21_4 O 0.59561(11) 0.72956(11) 0.78380(7)
O22_4 O 0.90439(11) 0.77044(11) 0.28380(7)
O23_4 O 0.90439(11) 0.77044(11) 0.71620(7)
O24_4 O 0.56455(10) 0.67597(11) 0.82357(7)
O25_4 O 0.93545(10) 0.82403(11) 0.32357(7)
O26_4 O 0.93545(10) 0.82403(11) 0.67643(7)
O27_4 O 0.38519(11) 0.64666(12) 0.82801(8)
O28_4 O 0.85334(12) 0.88519(11) 0.32801(8)
O29_4 O 0.85334(12) 0.88519(11) 0.67199(8)
O30_4 O 0.33741(11) 0.67351(12) 0.78290(7)
O31_4 O 0.82649(12) 0.83741(11) 0.28290(7)
O32_4 O 0.82649(12) 0.83741(11) 0.71710(7)
O45_4 O 0.91030(17) 0.8684(2) 0.60262(11)
O46_4 O 0.80100(13) 0.73655(12) 0.74148(8)
N7_4 N 0.52887(16) 0.8325(2) 0.62956(14)
N8_4 N 0.52249(16) 0.7759(2) 0.67774(13)
N9_4 N 0.45146(19) 0.8223(2) 0.65852(13)
N10_4 N 0.59577(16) 0.7858(2) 0.65025(13)
H13_4 H 0.6039 0.7611 0.6636
N11_4 N 0.4455(2) 0.7695(2) 0.70477(15)
H14_4 H 0.4145 0.7768 0.7026
N12_4 N 0.46166(16) 0.8769(2) 0.61195(13)
H15_4 H 0.4829 0.8899 0.5977
C28_4 C 0.5474(2) 0.7990(3) 0.65200(16)
C29_4 C 0.4753(2) 0.7885(3) 0.67956(17)
C30_4 C 0.4811(2) 0.8424(3) 0.63444(17)
C31_4 C 0.63538(19) 0.8057(2) 0.63009(14)
C32_4 C 0.62949(19) 0.8328(2) 0.59893(13)
H16_4 H 0.5978 0.8392 0.5901
C33_4 C 0.67107(17) 0.85021(18) 0.58113(11)
C34_4 C 0.71875(16) 0.84024(17) 0.59381(11)
H17_4 H 0.7466 0.8519 0.5817
C35_4 C 0.72427(16) 0.81283(18) 0.62458(11)
C36_4 C 0.68279(18) 0.7952(2) 0.64238(13)
H18_4 H 0.6868 0.7762 0.6628
C37_4 C 0.66517(17) 0.88257(17) 0.54878(11)
C38_4 C 0.77430(16) 0.80456(16) 0.64006(10)
C39_4 C 0.4571(2) 0.7395(2) 0.73411(15)
C40_4 C 0.50421(18) 0.7346(2) 0.74850(14)
H19_4 H 0.5313 0.7498 0.7377
C41_4 C 0.51084(16) 0.70658(17) 0.77957(12)
C42_4 C 0.47022(16) 0.68393(16) 0.79500(11)
H20_4 H 0.4745 0.6650 0.8154
C43_4 C 0.42352(16) 0.68896(17) 0.78072(11)
C44_4 C 0.41698(18) 0.7162(2) 0.75013(14)
H21_4 H 0.3854 0.7190 0.7402
C45_4 C 0.56093(15) 0.70377(15) 0.79660(11)
C46_4 C 0.37863(16) 0.66761(16) 0.79840(12)
C47_4 C 0.41236(18) 0.8949(2) 0.60808(14)
C48_4 C 0.37131(17) 0.8781(2) 0.62690(13)
H22_4 H 0.3754 0.8547 0.6449
C49_4 C 0.32417(16) 0.89618(17) 0.61893(11)
C50_4 C 0.31779(16) 0.93238(16) 0.59232(11)
H23_4 H 0.2863 0.9446 0.5869
C51_4 C 0.35954(16) 0.94954(17) 0.57425(11)
C52_4 C 0.40593(17) 0.9306(2) 0.58173(12)
H24_4 H 0.4334 0.9418 0.5690
C53_4 C 0.27957(16) 0.88024(15) 0.63900(11)
C54_4 C 0.35277(16) 0.98853(17) 0.54677(10)
Cu1_3 Cu 0.54746(3) 0.20528(2) 0.0000
Cu2_3 Cu 0.56207(2) 0.10834(2) 0.0000
O13_5 O 0.5358(3) 0.2839(3) 0.0000
O14_5 O 0.5695(2) 0.02944(18) 0.0000
O17_5 O 0.61047(12) 0.12203(11) 0.03696(8)
O18_5 O 0.59801(12) 0.20448(11) 0.03666(7)
O19_5 O 0.67739(12) 0.31124(11) 0.12406(7)
O20_5 O 0.71888(12) 0.27657(11) 0.16910(7)
O35_3 O 0.78556(11) 0.35434(12) 0.16674(8)
O38_3 O 0.73780(11) 0.39481(11) 0.12734(7)
O41_3 O 0.49796(12) 0.19025(11) 0.03634(7)
O44_3 O 0.51029(12) 0.10799(11) 0.03594(8)
O45_5 O 0.6316(2) 0.41030(17) 0.10262(11)
O46_5 O 0.76345(12) 0.30100(13) 0.24148(8)
N7_5 N 0.6675(2) 0.02887(16) 0.12956(14)
N8_5 N 0.7241(2) 0.02249(16) 0.17774(13)
N10_5 N 0.7142(2) 0.09577(16) 0.15025(13)
H13_5 H 0.7389 0.1039 0.1636
C28_5 C 0.7010(3) 0.0474(2) 0.15200(16)
C31_5 C 0.6943(2) 0.13538(19) 0.13009(14)
C32_5 C 0.6672(2) 0.12949(19) 0.09893(13)
H16_5 H 0.6608 0.0978 0.0901
C33_5 C 0.64979(18) 0.17107(17) 0.08113(11)
C34_5 C 0.65976(17) 0.21875(16) 0.09381(11)
H17_5 H 0.6481 0.2466 0.0817
C35_5 C 0.68717(18) 0.22427(16) 0.12458(11)
C36_5 C 0.7048(2) 0.18279(18) 0.14238(13)
H18_5 H 0.7238 0.1868 0.1628
C37_5 C 0.61743(17) 0.16517(17) 0.04878(11)
C38_5 C 0.69544(16) 0.27430(16) 0.14006(10)
C40_5 C 0.7654(2) 0.00421(18) 0.24850(14)
H19_5 H 0.7502 0.0313 0.2377
C41_5 C 0.79342(17) 0.01084(16) 0.27957(12)
C45_5 C 0.79623(15) 0.06093(15) 0.29660(11)
H28 H 0.51001 0.292533 0.0178165
H31 H 0.604384 0.0203473 0.0058311
H32 H 0.546724 0.0149176 0.0179582
Cu1_4 Cu 0.54746(3) 0.20528(2) 1.0000
Cu2_4 Cu 0.56207(2) 0.10834(2) 1.0000
O1_5 O 0.61047(12) 0.12203(11) 0.96304(8)
O2_5 O 0.59801(12) 0.20448(11) 0.96334(7)
O3_5 O 0.67739(12) 0.31124(11) 0.87594(7)
O4_5 O 0.71888(12) 0.27657(11) 0.83090(7)
O13_6 O 0.5358(3) 0.2839(3) 1.0000
O14_6 O 0.5695(2) 0.02944(18) 1.0000
O15_5 O 0.6316(2) 0.41030(17) 0.89738(11)
O16_5 O 0.76345(12) 0.30100(13) 0.75852(8)
N1_5 N 0.6675(2) 0.02887(16) 0.87044(14)
N2_5 N 0.7241(2) 0.02249(16) 0.82226(13)
N4_5 N 0.7142(2) 0.09577(16) 0.84975(13)
H1_5 H 0.7389 0.1039 0.8364
C1_5 C 0.7010(3) 0.0474(2) 0.84800(16)
C4_5 C 0.6943(2) 0.13538(19) 0.86991(14)
C5_5 C 0.6672(2) 0.12949(19) 0.90107(13)
H4_5 H 0.6608 0.0978 0.9099
C6_5 C 0.64979(18) 0.17107(17) 0.91887(11)
C7_5 C 0.65976(17) 0.21875(16) 0.90619(11)
H5_5 H 0.6481 0.2466 0.9183
C8_5 C 0.68717(18) 0.22427(16) 0.87542(11)
C9_5 C 0.7048(2) 0.18279(18) 0.85762(13)
H6_5 H 0.7238 0.1868 0.8372
C10_5 C 0.61743(17) 0.16517(17) 0.95122(11)
C11_5 C 0.69544(16) 0.27430(16) 0.85994(10)
C13_5 C 0.7654(2) 0.00421(18) 0.75150(14)
H7_5 H 0.7502 0.0313 0.7623
C14_5 C 0.79342(17) 0.01084(16) 0.72043(12)
C18_5 C 0.79623(15) 0.06093(15) 0.70340(11)
O34_3 O 0.78556(11) 0.35434(12) 0.83326(8)
O37_3 O 0.73780(11) 0.39481(11) 0.87266(7)
O40_3 O 0.49796(12) 0.19025(11) 0.96366(7)
O43_3 O 0.51029(12) 0.10799(11) 0.96406(8)
H27 H 0.524531 0.294687 0.976154
Cu5_3 Cu 0.45254(3) 0.79472(2) 0.0000
Cu6_3 Cu 0.43793(2) 0.89166(2) 0.0000
O33_3 O 0.64566(12) 0.78556(11) 0.16674(8)
O36_3 O 0.60519(11) 0.73780(11) 0.12734(7)
O39_3 O 0.50204(12) 0.80975(11) 0.03634(7)
O42_3 O 0.48971(12) 0.89201(11) 0.03594(8)
N9_5 N 0.6777(2) 0.95146(19) 0.15852(13)
N11_5 N 0.7305(2) 0.9455(2) 0.20477(15)
H14_5 H 0.7232 0.9145 0.2026
N12_5 N 0.6231(2) 0.96166(16) 0.11195(13)
H15_5 H 0.6101 0.9829 0.0977
C29_5 C 0.7115(3) 0.9753(2) 0.17956(17)
C30_5 C 0.6576(3) 0.9811(2) 0.13444(17)
C39_5 C 0.7605(2) 0.9571(2) 0.23411(15)
C42_5 C 0.81607(16) 0.97022(16) 0.29500(11)
H20_5 H 0.8350 0.9745 0.3154
C43_5 C 0.81104(17) 0.92352(16) 0.28072(11)
C44_5 C 0.7838(2) 0.91698(18) 0.25013(14)
H21_5 H 0.7810 0.8854 0.2402
C46_5 C 0.83239(16) 0.87863(16) 0.29840(12)
C47_5 C 0.6051(2) 0.91236(18) 0.10808(14)
C48_5 C 0.6219(2) 0.87131(17) 0.12690(13)
H22_5 H 0.6453 0.8754 0.1449
C49_5 C 0.60382(17) 0.82417(16) 0.11893(11)
C50_5 C 0.56762(16) 0.81779(16) 0.09232(11)
H23_5 H 0.5554 0.7863 0.0869
C51_5 C 0.55046(17) 0.85954(16) 0.07425(11)
C52_5 C 0.5694(2) 0.90593(17) 0.08173(12)
H24_5 H 0.5582 0.9334 0.0690
C53_5 C 0.61976(15) 0.77957(16) 0.13900(11)
C54_5 C 0.51147(17) 0.85277(16) 0.04677(10)
O9_3 O 0.64566(12) 0.78556(11) 0.83326(8)
O10_3 O 0.60519(11) 0.73780(11) 0.87266(7)
O11_3 O 0.50204(12) 0.80975(11) 0.96366(7)
O12_3 O 0.48971(12) 0.89201(11) 0.96406(8)
N3_5 N 0.6777(2) 0.95146(19) 0.84148(13)
N5_5 N 0.7305(2) 0.9455(2) 0.79523(15)
H2_5 H 0.7232 0.9145 0.7974
N6_5 N 0.6231(2) 0.96166(16) 0.88805(13)
H3_5 H 0.6101 0.9829 0.9023
C2_5 C 0.7115(3) 0.9753(2) 0.82044(17)
C3_5 C 0.6576(3) 0.9811(2) 0.86556(17)
C12_5 C 0.7605(2) 0.9571(2) 0.76589(15)
C15_5 C 0.81607(16) 0.97022(16) 0.70500(11)
H8_5 H 0.8350 0.9745 0.6846
C16_5 C 0.81104(17) 0.92352(16) 0.71928(11)
C17_5 C 0.7838(2) 0.91698(18) 0.74987(14)
H9_5 H 0.7810 0.8854 0.7598
C19_5 C 0.83239(16) 0.87863(16) 0.70160(12)
C20_5 C 0.6051(2) 0.91236(18) 0.89192(14)
C21_5 C 0.6219(2) 0.87131(17) 0.87310(13)
H10_5 H 0.6453 0.8754 0.8551
C22_5 C 0.60382(17) 0.82417(16) 0.88107(11)
C23_5 C 0.56762(16) 0.81779(16) 0.90768(11)
H11_5 H 0.5554 0.7863 0.9131
C24_5 C 0.55046(17) 0.85954(16) 0.92575(11)
C25_5 C 0.5694(2) 0.90593(17) 0.91827(12)
H12_5 H 0.5582 0.9334 0.9310
C26_5 C 0.61976(15) 0.77957(16) 0.86100(11)
C27_5 C 0.51147(17) 0.85277(16) 0.95323(10)
Cu5_4 Cu 0.45254(3) 0.79472(2) 1.0000
Cu6_4 Cu 0.43793(2) 0.89166(2) 1.0000
O33_4 O 0.35434(12) 0.21444(11) 0.16674(8)
O36_4 O 0.39481(11) 0.26220(11) 0.12734(7)
N9_6 N 0.3223(2) 0.04854(19) 0.15852(13)
N11_6 N 0.2695(2) 0.0545(2) 0.20477(15)
H14_6 H 0.2768 0.0855 0.2026
N12_6 N 0.3769(2) 0.03834(16) 0.11195(13)
H15_6 H 0.3899 0.0171 0.0977
C29_6 C 0.2885(3) 0.0247(2) 0.17956(17)
C30_6 C 0.3424(3) 0.0189(2) 0.13444(17)
C39_6 C 0.2395(2) 0.0429(2) 0.23411(15)
C42_6 C 0.18393(16) 0.02978(16) 0.29500(11)
H20_6 H 0.1650 0.0255 0.3154
C43_6 C 0.18896(17) 0.07648(16) 0.28072(11)
C44_6 C 0.2162(2) 0.08302(18) 0.25013(14)
H21_6 H 0.2190 0.1146 0.2402
C46_6 C 0.16761(16) 0.12137(16) 0.29840(12)
C47_6 C 0.3949(2) 0.08764(18) 0.10808(14)
C48_6 C 0.3781(2) 0.12869(17) 0.12690(13)
H22_6 H 0.3547 0.1246 0.1449
C49_6 C 0.39618(17) 0.17583(16) 0.11893(11)
C50_6 C 0.43238(16) 0.18221(16) 0.09232(11)
H23_6 H 0.4446 0.2137 0.0869
C51_6 C 0.44954(17) 0.14046(16) 0.07425(11)
C52_6 C 0.4306(2) 0.09407(17) 0.08173(12)
H24_6 H 0.4418 0.0666 0.0690
C53_6 C 0.38024(15) 0.22043(16) 0.13900(11)
C54_6 C 0.48853(17) 0.14723(16) 0.04677(10)
O9_4 O 0.35434(12) 0.21444(11) 0.83326(8)
O10_4 O 0.39481(11) 0.26220(11) 0.87266(7)
N3_6 N 0.3223(2) 0.04854(19) 0.84148(13)
N5_6 N 0.2695(2) 0.0545(2) 0.79523(15)
H2_6 H 0.2768 0.0855 0.7974
N6_6 N 0.3769(2) 0.03834(16) 0.88805(13)
H3_6 H 0.3899 0.0171 0.9023
C2_6 C 0.2885(3) 0.0247(2) 0.82044(17)
C3_6 C 0.3424(3) 0.0189(2) 0.86556(17)
C12_6 C 0.2395(2) 0.0429(2) 0.76589(15)
C15_6 C 0.18393(16) 0.02978(16) 0.70500(11)
H8_6 H 0.1650 0.0255 0.6846
C16_6 C 0.18896(17) 0.07648(16) 0.71928(11)
C17_6 C 0.2162(2) 0.08302(18) 0.74987(14)
H9_6 H 0.2190 0.1146 0.7598
C19_6 C 0.16761(16) 0.12137(16) 0.70160(12)
C20_6 C 0.3949(2) 0.08764(18) 0.89192(14)
C21_6 C 0.3781(2) 0.12869(17) 0.87310(13)
H10_6 H 0.3547 0.1246 0.8551
C22_6 C 0.39618(17) 0.17583(16) 0.88107(11)
C23_6 C 0.43238(16) 0.18221(16) 0.90768(11)
H11_6 H 0.4446 0.2137 0.9131
C24_6 C 0.44954(17) 0.14046(16) 0.92575(11)
C25_6 C 0.4306(2) 0.09407(17) 0.91827(12)
H12_6 H 0.4418 0.0666 0.9310
C26_6 C 0.38024(15) 0.22043(16) 0.86100(11)
C27_6 C 0.48853(17) 0.14723(16) 0.95323(10)
O13_7 O 0.4642(3) 0.7161(3) 0.0000
O14_7 O 0.4305(2) 0.97056(18) 0.0000
O17_6 O 0.38953(12) 0.87797(11) 0.03696(8)
O18_6 O 0.40199(12) 0.79552(11) 0.03666(7)
O19_6 O 0.32261(12) 0.68876(11) 0.12406(7)
O20_6 O 0.28112(12) 0.72343(11) 0.16910(7)
O35_4 O 0.21444(11) 0.64566(12) 0.16674(8)
O38_4 O 0.26220(11) 0.60519(11) 0.12734(7)
O45_6 O 0.3684(2) 0.58970(17) 0.10262(11)
O46_6 O 0.23655(12) 0.69900(13) 0.24148(8)
N7_6 N 0.3325(2) 0.97113(16) 0.12956(14)
N8_6 N 0.2759(2) 0.97751(16) 0.17774(13)
N10_6 N 0.2858(2) 0.90423(16) 0.15025(13)
H13_6 H 0.2611 0.8961 0.1636
C28_6 C 0.2990(3) 0.9526(2) 0.15200(16)
C31_6 C 0.3057(2) 0.86462(19) 0.13009(14)
C32_6 C 0.3328(2) 0.87051(19) 0.09893(13)
H16_6 H 0.3392 0.9022 0.0901
C33_6 C 0.35021(18) 0.82893(17) 0.08113(11)
C34_6 C 0.34024(17) 0.78125(16) 0.09381(11)
H17_6 H 0.3519 0.7534 0.0817
C35_6 C 0.31283(18) 0.77573(16) 0.12458(11)
C36_6 C 0.2952(2) 0.81721(18) 0.14238(13)
H18_6 H 0.2762 0.8132 0.1628
C37_6 C 0.38257(17) 0.83483(17) 0.04878(11)
C38_6 C 0.30456(16) 0.72570(16) 0.14006(10)
C40_6 C 0.2346(2) 0.99579(18) 0.24850(14)
H19_6 H 0.2498 0.9687 0.2377
C41_6 C 0.20658(17) 0.98916(16) 0.27957(12)
C45_6 C 0.20377(15) 0.93907(15) 0.29660(11)
H28_2 H 0.48999 0.707467 0.0178165
H31_2 H 0.395616 0.979653 0.0058311
H32_2 H 0.453276 0.985082 0.0179582
O1_6 O 0.38953(12) 0.87797(11) 0.96304(8)
O2_6 O 0.40199(12) 0.79552(11) 0.96334(7)
O3_6 O 0.32261(12) 0.68876(11) 0.87594(7)
O4_6 O 0.28112(12) 0.72343(11) 0.83090(7)
O13_8 O 0.4642(3) 0.7161(3) 1.0000
O14_8 O 0.4305(2) 0.97056(18) 1.0000
O15_6 O 0.3684(2) 0.58970(17) 0.89738(11)
O16_6 O 0.23655(12) 0.69900(13) 0.75852(8)
N1_6 N 0.3325(2) 0.97113(16) 0.87044(14)
N2_6 N 0.2759(2) 0.97751(16) 0.82226(13)
N4_6 N 0.2858(2) 0.90423(16) 0.84975(13)
H1_6 H 0.2611 0.8961 0.8364
C1_6 C 0.2990(3) 0.9526(2) 0.84800(16)
C4_6 C 0.3057(2) 0.86462(19) 0.86991(14)
C5_6 C 0.3328(2) 0.87051(19) 0.90107(13)
H4_6 H 0.3392 0.9022 0.9099
C6_6 C 0.35021(18) 0.82893(17) 0.91887(11)
C7_6 C 0.34024(17) 0.78125(16) 0.90619(11)
H5_6 H 0.3519 0.7534 0.9183
C8_6 C 0.31283(18) 0.77573(16) 0.87542(11)
C9_6 C 0.2952(2) 0.81721(18) 0.85762(13)
H6_6 H 0.2762 0.8132 0.8372
C10_6 C 0.38257(17) 0.83483(17) 0.95122(11)
C11_6 C 0.30456(16) 0.72570(16) 0.85994(10)
C13_6 C 0.2346(2) 0.99579(18) 0.75150(14)
H7_6 H 0.2498 0.9687 0.7623
C14_6 C 0.20658(17) 0.98916(16) 0.72043(12)
C18_6 C 0.20377(15) 0.93907(15) 0.70340(11)
O34_4 O 0.21444(11) 0.64566(12) 0.83326(8)
O37_4 O 0.26220(11) 0.60519(11) 0.87266(7)
H27_2 H 0.475469 0.705313 0.976154
Cu5_5 Cu 0.20528(2) 0.45254(3) 0.0000
Cu6_5 Cu 0.10834(2) 0.43793(2) 0.0000
O39_4 O 0.19025(11) 0.50204(12) 0.03634(7)
O42_4 O 0.10799(11) 0.48971(12) 0.03594(8)
N9_7 N 0.04854(19) 0.6777(2) 0.15852(13)
N11_7 N 0.0545(2) 0.7305(2) 0.20477(15)
H14_7 H 0.0855 0.7232 0.2026
N12_7 N 0.03834(16) 0.6231(2) 0.11195(13)
H15_7 H 0.0171 0.6101 0.0977
C29_7 C 0.0247(2) 0.7115(3) 0.17956(17)
C30_7 C 0.0189(2) 0.6576(3) 0.13444(17)
C39_7 C 0.0429(2) 0.7605(2) 0.23411(15)
C42_7 C 0.02978(16) 0.81607(16) 0.29500(11)
H20_7 H 0.0255 0.8350 0.3154
C43_7 C 0.07648(16) 0.81104(17) 0.28072(11)
C44_7 C 0.08302(18) 0.7838(2) 0.25013(14)
H21_7 H 0.1146 0.7810 0.2402
C46_7 C 0.12137(16) 0.83239(16) 0.29840(12)
C47_7 C 0.08764(18) 0.6051(2) 0.10808(14)
C48_7 C 0.12869(17) 0.6219(2) 0.12690(13)
H22_7 H 0.1246 0.6453 0.1449
C49_7 C 0.17583(16) 0.60382(17) 0.11893(11)
C50_7 C 0.18221(16) 0.56762(16) 0.09232(11)
H23_7 H 0.2137 0.5554 0.0869
C51_7 C 0.14046(16) 0.55046(17) 0.07425(11)
C52_7 C 0.09407(17) 0.5694(2) 0.08173(12)
H24_7 H 0.0666 0.5582 0.0690
C53_7 C 0.22043(16) 0.61976(15) 0.13900(11)
C54_7 C 0.14723(16) 0.51147(17) 0.04677(10)
O11_4 O 0.19025(11) 0.50204(12) 0.96366(7)
O12_4 O 0.10799(11) 0.48971(12) 0.96406(8)
N3_7 N 0.04854(19) 0.6777(2) 0.84148(13)
N5_7 N 0.0545(2) 0.7305(2) 0.79523(15)
H2_7 H 0.0855 0.7232 0.7974
N6_7 N 0.03834(16) 0.6231(2) 0.88805(13)
H3_7 H 0.0171 0.6101 0.9023
C2_7 C 0.0247(2) 0.7115(3) 0.82044(17)
C3_7 C 0.0189(2) 0.6576(3) 0.86556(17)
C12_7 C 0.0429(2) 0.7605(2) 0.76589(15)
C15_7 C 0.02978(16) 0.81607(16) 0.70500(11)
H8_7 H 0.0255 0.8350 0.6846
C16_7 C 0.07648(16) 0.81104(17) 0.71928(11)
C17_7 C 0.08302(18) 0.7838(2) 0.74987(14)
H9_7 H 0.1146 0.7810 0.7598
C19_7 C 0.12137(16) 0.83239(16) 0.70160(12)
C20_7 C 0.08764(18) 0.6051(2) 0.89192(14)
C21_7 C 0.12869(17) 0.6219(2) 0.87310(13)
H10_7 H 0.1246 0.6453 0.8551
C22_7 C 0.17583(16) 0.60382(17) 0.88107(11)
C23_7 C 0.18221(16) 0.56762(16) 0.90768(11)
H11_7 H 0.2137 0.5554 0.9131
C24_7 C 0.14046(16) 0.55046(17) 0.92575(11)
C25_7 C 0.09407(17) 0.5694(2) 0.91827(12)
H12_7 H 0.0666 0.5582 0.9310
C26_7 C 0.22043(16) 0.61976(15) 0.86100(11)
C27_7 C 0.14723(16) 0.51147(17) 0.95323(10)
Cu5_6 Cu 0.20528(2) 0.45254(3) 1.0000
Cu6_6 Cu 0.10834(2) 0.43793(2) 1.0000
Cu1_5 Cu 0.79472(2) 0.54746(3) 0.0000
Cu2_5 Cu 0.89166(2) 0.56207(2) 0.0000
O13_9 O 0.7161(3) 0.5358(3) 0.0000
O14_9 O 0.97056(18) 0.5695(2) 0.0000
O17_7 O 0.87797(11) 0.61047(12) 0.03696(8)
O18_7 O 0.79552(11) 0.59801(12) 0.03666(7)
O19_7 O 0.68876(11) 0.67739(12) 0.12406(7)
O20_7 O 0.72343(11) 0.71888(12) 0.16910(7)
O41_4 O 0.80975(11) 0.49796(12) 0.03634(7)
O44_4 O 0.89201(11) 0.51029(12) 0.03594(8)
O45_7 O 0.58970(17) 0.6316(2) 0.10262(11)
O46_7 O 0.69900(13) 0.76345(12) 0.24148(8)
N7_7 N 0.97113(16) 0.6675(2) 0.12956(14)
N8_7 N 0.97751(16) 0.7241(2) 0.17774(13)
N10_7 N 0.90423(16) 0.7142(2) 0.15025(13)
H13_7 H 0.8961 0.7389 0.1636
C28_7 C 0.9526(2) 0.7010(3) 0.15200(16)
C31_7 C 0.86462(19) 0.6943(2) 0.13009(14)
C32_7 C 0.87051(19) 0.6672(2) 0.09893(13)
H16_7 H 0.9022 0.6608 0.0901
C33_7 C 0.82893(17) 0.64979(18) 0.08113(11)
C34_7 C 0.78125(16) 0.65976(17) 0.09381(11)
H17_7 H 0.7534 0.6481 0.0817
C35_7 C 0.77573(16) 0.68717(18) 0.12458(11)
C36_7 C 0.81721(18) 0.7048(2) 0.14238(13)
H18_7 H 0.8132 0.7238 0.1628
C37_7 C 0.83483(17) 0.61743(17) 0.04878(11)
C38_7 C 0.72570(16) 0.69544(16) 0.14006(10)
C40_7 C 0.99579(18) 0.7654(2) 0.24850(14)
H19_7 H 0.9687 0.7502 0.2377
C41_7 C 0.98916(16) 0.79342(17) 0.27957(12)
C45_7 C 0.93907(15) 0.79623(15) 0.29660(11)
H28_3 H 0.707467 0.51001 0.0178165
H31_3 H 0.979653 0.604384 0.0058311
H32_3 H 0.985082 0.546724 0.0179582
Cu1_6 Cu 0.79472(2) 0.54746(3) 1.0000
Cu2_6 Cu 0.89166(2) 0.56207(2) 1.0000
O1_7 O 0.87797(11) 0.61047(12) 0.96304(8)
O2_7 O 0.79552(11) 0.59801(12) 0.96334(7)
O3_7 O 0.68876(11) 0.67739(12) 0.87594(7)
O4_7 O 0.72343(11) 0.71888(12) 0.83090(7)
O13_10 O 0.7161(3) 0.5358(3) 1.0000
O14_10 O 0.97056(18) 0.5695(2) 1.0000
O15_7 O 0.58970(17) 0.6316(2) 0.89738(11)
O16_7 O 0.69900(13) 0.76345(12) 0.75852(8)
N1_7 N 0.97113(16) 0.6675(2) 0.87044(14)
N2_7 N 0.97751(16) 0.7241(2) 0.82226(13)
N4_7 N 0.90423(16) 0.7142(2) 0.84975(13)
H1_7 H 0.8961 0.7389 0.8364
C1_7 C 0.9526(2) 0.7010(3) 0.84800(16)
C4_7 C 0.86462(19) 0.6943(2) 0.86991(14)
C5_7 C 0.87051(19) 0.6672(2) 0.90107(13)
H4_7 H 0.9022 0.6608 0.9099
C6_7 C 0.82893(17) 0.64979(18) 0.91887(11)
C7_7 C 0.78125(16) 0.65976(17) 0.90619(11)
H5_7 H 0.7534 0.6481 0.9183
C8_7 C 0.77573(16) 0.68717(18) 0.87542(11)
C9_7 C 0.81721(18) 0.7048(2) 0.85762(13)
H6_7 H 0.8132 0.7238 0.8372
C10_7 C 0.83483(17) 0.61743(17) 0.95122(11)
C11_7 C 0.72570(16) 0.69544(16) 0.85994(10)
C13_7 C 0.99579(18) 0.7654(2) 0.75150(14)
H7_7 H 0.9687 0.7502 0.7623
C14_7 C 0.98916(16) 0.79342(17) 0.72043(12)
C18_7 C 0.93907(15) 0.79623(15) 0.70340(11)
O40_4 O 0.80975(11) 0.49796(12) 0.96366(7)
O43_4 O 0.89201(11) 0.51029(12) 0.96406(8)
H27_3 H 0.705313 0.524531 0.976154
O13_11 O 0.2839(3) 0.4642(3) 0.0000
O14_11 O 0.02944(18) 0.4305(2) 0.0000
O17_8 O 0.12203(11) 0.38953(12) 0.03696(8)
O18_8 O 0.20448(11) 0.40199(12) 0.03666(7)
O19_8 O 0.31124(11) 0.32261(12) 0.12406(7)
O20_8 O 0.27657(11) 0.28112(12) 0.16910(7)
O45_8 O 0.41030(17) 0.3684(2) 0.10262(11)
O46_8 O 0.30100(13) 0.23655(12) 0.24148(8)
N7_8 N 0.02887(16) 0.3325(2) 0.12956(14)
N8_8 N 0.02249(16) 0.2759(2) 0.17774(13)
N10_8 N 0.09577(16) 0.2858(2) 0.15025(13)
H13_8 H 0.1039 0.2611 0.1636
C28_8 C 0.0474(2) 0.2990(3) 0.15200(16)
C31_8 C 0.13538(19) 0.3057(2) 0.13009(14)
C32_8 C 0.12949(19) 0.3328(2) 0.09893(13)
H16_8 H 0.0978 0.3392 0.0901
C33_8 C 0.17107(17) 0.35021(18) 0.08113(11)
C34_8 C 0.21875(16) 0.34024(17) 0.09381(11)
H17_8 H 0.2466 0.3519 0.0817
C35_8 C 0.22427(16) 0.31283(18) 0.12458(11)
C36_8 C 0.18279(18) 0.2952(2) 0.14238(13)
H18_8 H 0.1868 0.2762 0.1628
C37_8 C 0.16517(17) 0.38257(17) 0.04878(11)
C38_8 C 0.27430(16) 0.30456(16) 0.14006(10)
C40_8 C 0.00421(18) 0.2346(2) 0.24850(14)
H19_8 H 0.0313 0.2498 0.2377
C41_8 C 0.01084(16) 0.20658(17) 0.27957(12)
C45_8 C 0.06093(15) 0.20377(15) 0.29660(11)
H28_4 H 0.292533 0.48999 0.0178165
H31_4 H 0.0203473 0.395616 0.0058311
H32_4 H 0.0149176 0.453276 0.0179582
O1_8 O 0.12203(11) 0.38953(12) 0.96304(8)
O2_8 O 0.20448(11) 0.40199(12) 0.96334(7)
O3_8 O 0.31124(11) 0.32261(12) 0.87594(7)
O4_8 O 0.27657(11) 0.28112(12) 0.83090(7)
O13_12 O 0.2839(3) 0.4642(3) 1.0000
O14_12 O 0.02944(18) 0.4305(2) 1.0000
O15_8 O 0.41030(17) 0.3684(2) 0.89738(11)
O16_8 O 0.30100(13) 0.23655(12) 0.75852(8)
N1_8 N 0.02887(16) 0.3325(2) 0.87044(14)
N2_8 N 0.02249(16) 0.2759(2) 0.82226(13)
N4_8 N 0.09577(16) 0.2858(2) 0.84975(13)
H1_8 H 0.1039 0.2611 0.8364
C1_8 C 0.0474(2) 0.2990(3) 0.84800(16)
C4_8 C 0.13538(19) 0.3057(2) 0.86991(14)
C5_8 C 0.12949(19) 0.3328(2) 0.90107(13)
H4_8 H 0.0978 0.3392 0.9099
C6_8 C 0.17107(17) 0.35021(18) 0.91887(11)
C7_8 C 0.21875(16) 0.34024(17) 0.90619(11)
H5_8 H 0.2466 0.3519 0.9183
C8_8 C 0.22427(16) 0.31283(18) 0.87542(11)
C9_8 C 0.18279(18) 0.2952(2) 0.85762(13)
H6_8 H 0.1868 0.2762 0.8372
C10_8 C 0.16517(17) 0.38257(17) 0.95122(11)
C11_8 C 0.27430(16) 0.30456(16) 0.85994(10)
C13_8 C 0.00421(18) 0.2346(2) 0.75150(14)
H7_8 H 0.0313 0.2498 0.7623
C14_8 C 0.01084(16) 0.20658(17) 0.72043(12)
C18_8 C 0.06093(15) 0.20377(15) 0.70340(11)
H27_4 H 0.294687 0.475469 0.976154
N9_8 N 0.95146(19) 0.3223(2) 0.15852(13)
N11_8 N 0.9455(2) 0.2695(2) 0.20477(15)
H14_8 H 0.9145 0.2768 0.2026
N12_8 N 0.96166(16) 0.3769(2) 0.11195(13)
H15_8 H 0.9829 0.3899 0.0977
C29_8 C 0.9753(2) 0.2885(3) 0.17956(17)
C30_8 C 0.9811(2) 0.3424(3) 0.13444(17)
C39_8 C 0.9571(2) 0.2395(2) 0.23411(15)
C42_8 C 0.97022(16) 0.18393(16) 0.29500(11)
H20_8 H 0.9745 0.1650 0.3154
C43_8 C 0.92352(16) 0.18896(17) 0.28072(11)
C44_8 C 0.91698(18) 0.2162(2) 0.25013(14)
H21_8 H 0.8854 0.2190 0.2402
C46_8 C 0.87863(16) 0.16761(16) 0.29840(12)
C47_8 C 0.91236(18) 0.3949(2) 0.10808(14)
C48_8 C 0.87131(17) 0.3781(2) 0.12690(13)
H22_8 H 0.8754 0.3547 0.1449
C49_8 C 0.82417(16) 0.39618(17) 0.11893(11)
C50_8 C 0.81779(16) 0.43238(16) 0.09232(11)
H23_8 H 0.7863 0.4446 0.0869
C51_8 C 0.85954(16) 0.44954(17) 0.07425(11)
C52_8 C 0.90593(17) 0.4306(2) 0.08173(12)
H24_8 H 0.9334 0.4418 0.0690
C53_8 C 0.77957(16) 0.38024(15) 0.13900(11)
C54_8 C 0.85277(16) 0.48853(17) 0.04677(10)
N3_8 N 0.95146(19) 0.3223(2) 0.84148(13)
N5_8 N 0.9455(2) 0.2695(2) 0.79523(15)
H2_8 H 0.9145 0.2768 0.7974
N6_8 N 0.96166(16) 0.3769(2) 0.88805(13)
H3_8 H 0.9829 0.3899 0.9023
C2_8 C 0.9753(2) 0.2885(3) 0.82044(17)
C3_8 C 0.9811(2) 0.3424(3) 0.86556(17)
C12_8 C 0.9571(2) 0.2395(2) 0.76589(15)
C15_8 C 0.97022(16) 0.18393(16) 0.70500(11)
H8_8 H 0.9745 0.1650 0.6846
C16_8 C 0.92352(16) 0.18896(17) 0.71928(11)
C17_8 C 0.91698(18) 0.2162(2) 0.74987(14)
H9_8 H 0.8854 0.2190 0.7598
C19_8 C 0.87863(16) 0.16761(16) 0.70160(12)
C20_8 C 0.91236(18) 0.3949(2) 0.89192(14)
C21_8 C 0.87131(17) 0.3781(2) 0.87310(13)
H10_8 H 0.8754 0.3547 0.8551
C22_8 C 0.82417(16) 0.39618(17) 0.88107(11)
C23_8 C 0.81779(16) 0.43238(16) 0.90768(11)
H11_8 H 0.7863 0.4446 0.9131
C24_8 C 0.85954(16) 0.44954(17) 0.92575(11)
C25_8 C 0.90593(17) 0.4306(2) 0.91827(12)
H12_8 H 0.9334 0.4418 0.9310
C26_8 C 0.77957(16) 0.38024(15) 0.86100(11)
C27_8 C 0.85277(16) 0.48853(17) 0.95323(10)
H27_5 H 0.475469 0.705313 0.0238463
H28_5 H 0.48999 0.707467 0.982183
H31_5 H 0.395616 0.979653 0.994169
H32_5 H 0.453276 0.985082 0.982042
H27_6 H 0.524531 0.294687 0.0238463
H28_6 H 0.51001 0.292533 0.982183
H31_6 H 0.604384 0.0203473 0.994169
H32_6 H 0.546724 0.0149176 0.982042
H27_7 H 0.294687 0.475469 0.0238463
H28_7 H 0.292533 0.48999 0.982183
H31_7 H 0.0203473 0.395616 0.994169
H32_7 H 0.0149176 0.453276 0.982042
H27_8 H 0.705313 0.524531 0.0238463
H28_8 H 0.707467 0.51001 0.982183
H31_8 H 0.979653 0.604384 0.994169
H32_8 H 0.985082 0.546724 0.982042
loop_
_geom_bond_atom_site_label_1
_geom_bond_atom_site_label_2
_geom_bond_site_symmetry_1
_geom_bond_site_symmetry_2
Cu1 O2 1_555 1_555
Cu2 O1 1_555 1_555
Cu3 O3 1_555 1_555
Cu4 O4 1_555 1_555
O1 C10 1_555 1_555
O2 C10 1_555 1_555
O3 C11 1_555 1_555
O4 C11 1_555 1_555
O5 C18 1_555 1_555
O6 C18 1_555 1_555
O7 C19 1_555 1_555
O8 C19 1_555 1_555
O9 C26 1_555 1_555
O10 C26 1_555 1_555
O11 C27 1_555 1_555
O13 Cu1 1_555 1_555
O14 Cu2 1_555 1_555
O15 Cu3 1_555 1_555
O16 Cu4 1_555 1_555
N1 C1 1_555 1_555
N2 C1 1_555 1_555
N3 C2 1_555 1_555
N4 H1 1_555 1_555
N5 H2 1_555 1_555
N6 H3 1_555 1_555
C1 N4 1_555 1_555
C2 N2 1_555 1_555
C3 N1 1_555 1_555
C4 N4 1_555 1_555
C5 C4 1_555 1_555
H4 C5 1_555 1_555
C6 C5 1_555 1_555
C7 C6 1_555 1_555
H5 C7 1_555 1_555
C8 C7 1_555 1_555
C9 C4 1_555 1_555
H6 C9 1_555 1_555
C10 C6 1_555 1_555
C11 C8 1_555 1_555
C12 N5 1_555 1_555
C13 C12 1_555 1_555
H7 C13 1_555 1_555
C14 C13 1_555 1_555
C15 C14 1_555 1_555
H8 C15 1_555 1_555
C16 C15 1_555 1_555
C17 C12 1_555 1_555
H9 C17 1_555 1_555
C18 C14 1_555 1_555
C19 C16 1_555 1_555
C20 N6 1_555 1_555
C21 C20 1_555 1_555
H10 C21 1_555 1_555
C22 C21 1_555 1_555
C23 C22 1_555 1_555
H11 C23 1_555 1_555
C24 C23 1_555 1_555
C25 C20 1_555 1_555
H12 C25 1_555 1_555
C26 C22 1_555 1_555
C27 C24 1_555 1_555
Cu7 O19 1_555 1_555
Cu8 O6 1_555 1_555
Cu9 O7 1_555 1_555
Cu10 O10 1_555 1_555
Cu11 O24 1_555 1_555
Cu12 O27 1_555 1_555
Cu13 O36 1_555 1_555
Cu14 O20 1_555 1_555
Cu15 O5 1_555 1_555
Cu16 O8 1_555 1_555
Cu17 O9 1_555 1_555
Cu18 O21 1_555 1_555
Cu19 O30 1_555 1_555
Cu20 O33 1_555 1_555
O17 Cu2 1_555 1_555
O18 Cu1 1_555 1_555
O19 C38 1_555 1_555
O20 C38 1_555 1_555
O21 C45 1_555 1_555
O22 Cu4 1_555 1_555
O23 Cu14 1_555 1_555
O24 C45 1_555 1_555
O25 Cu3 1_555 1_555
O26 Cu7 1_555 1_555
O27 C46 1_555 1_555
O28 Cu3 1_555 1_555
O29 Cu7 1_555 1_555
O30 C46 1_555 1_555
O31 Cu4 1_555 1_555
O32 Cu14 1_555 1_555
O33 C53 1_555 1_555
O34 Cu4 1_555 1_555
O35 Cu14 1_555 1_555
O36 C53 1_555 1_555
O37 Cu3 1_555 1_555
O38 Cu7 1_555 1_555
O43 Cu2 1_555 1_555
O44 Cu2 1_555 1_555
O45 Cu7 1_555 1_555
O46 Cu14 1_555 1_555
N7 C28 1_555 1_555
N8 C28 1_555 1_555
N9 C29 1_555 1_555
N10 H13 1_555 1_555
N11 H14 1_555 1_555
N12 H15 1_555 1_555
C28 N10 1_555 1_555
C29 N8 1_555 1_555
C30 N7 1_555 1_555
C31 N10 1_555 1_555
C32 C31 1_555 1_555
H16 C32 1_555 1_555
C33 C32 1_555 1_555
C34 C33 1_555 1_555
H17 C34 1_555 1_555
C35 C34 1_555 1_555
C36 C31 1_555 1_555
H18 C36 1_555 1_555
C37 O17 1_555 1_555
C38 C35 1_555 1_555
C39 N11 1_555 1_555
C40 C39 1_555 1_555
H19 C40 1_555 1_555
C41 C40 1_555 1_555
C42 C41 1_555 1_555
H20 C42 1_555 1_555
C43 C42 1_555 1_555
C44 C39 1_555 1_555
H21 C44 1_555 1_555
C45 C41 1_555 1_555
C46 C43 1_555 1_555
C47 N12 1_555 1_555
C48 C47 1_555 1_555
H22 C48 1_555 1_555
C49 C48 1_555 1_555
C50 C49 1_555 1_555
H23 C50 1_555 1_555
C51 C50 1_555 1_555
C52 C47 1_555 1_555
H24 C52 1_555 1_555
C53 C49 1_555 1_555
C54 O39 1_555 1_555
N3 C3 1_555 1_555
N5 C2 1_555 1_555
N6 C3 1_555 1_555
C8 C9 1_555 1_555
C16 C17 1_555 1_555
C24 C25 1_555 1_555
O18 C37 1_555 1_555
N9 C30 1_555 1_555
N11 C29 1_555 1_555
N12 C30 1_555 1_555
C33 C37 1_555 1_555
C35 C36 1_555 1_555
C43 C44 1_555 1_555
C51 C52 1_555 1_555
C51 C54 1_555 1_555
Cu6 O12 1_555 1_555
O42 Cu6 1_555 1_555
Cu5 O2_2 1_555 1_555
Cu6 O1_2 1_555 1_555
Cu3_2 O3_2 1_555 1_555
Cu4_2 O4_2 1_555 1_555
O1_2 C10_2 1_555 1_555
O2_2 C10_2 1_555 1_555
O3_2 C11_2 1_555 1_555
O4_2 C11_2 1_555 1_555
O5_2 C18_2 1_555 1_555
O6_2 C18_2 1_555 1_555
O7_2 C19_2 1_555 1_555
O8_2 C19_2 1_555 1_555
O9_2 C26_2 1_555 1_555
O10_2 C26_2 1_555 1_555
O40 C27_2 1_555 1_555
O13_2 Cu5 1_555 1_555
O14_2 Cu6 1_555 1_555
O15_2 Cu3_2 1_555 1_555
O16_2 Cu4_2 1_555 1_555
N1_2 C1_2 1_555 1_555
N2_2 C1_2 1_555 1_555
N3_2 C2_2 1_555 1_555
N4_2 H1_2 1_555 1_555
N5_2 H2_2 1_555 1_555
N6_2 H3_2 1_555 1_555
C1_2 N4_2 1_555 1_555
C2_2 N2_2 1_555 1_555
C3_2 N1_2 1_555 1_555
C4_2 N4_2 1_555 1_555
C5_2 C4_2 1_555 1_555
H4_2 C5_2 1_555 1_555
C6_2 C5_2 1_555 1_555
C7_2 C6_2 1_555 1_555
H5_2 C7_2 1_555 1_555
C8_2 C7_2 1_555 1_555
C9_2 C4_2 1_555 1_555
H6_2 C9_2 1_555 1_555
C10_2 C6_2 1_555 1_555
C11_2 C8_2 1_555 1_555
C12_2 N5_2 1_555 1_555
C13_2 C12_2 1_555 1_555
H7_2 C13_2 1_555 1_555
C14_2 C13_2 1_555 1_555
C15_2 C14_2 1_555 1_555
H8_2 C15_2 1_555 1_555
C16_2 C15_2 1_555 1_555
C17_2 C12_2 1_555 1_555
H9_2 C17_2 1_555 1_555
C18_2 C14_2 1_555 1_555
C19_2 C16_2 1_555 1_555
C20_2 N6_2 1_555 1_555
C21_2 C20_2 1_555 1_555
H10_2 C21_2 1_555 1_555
C22_2 C21_2 1_555 1_555
C23_2 C22_2 1_555 1_555
H11_2 C23_2 1_555 1_555
C24_2 C23_2 1_555 1_555
C25_2 C20_2 1_555 1_555
H12_2 C25_2 1_555 1_555
C26_2 C22_2 1_555 1_555
C27_2 C24_2 1_555 1_555
Cu7_2 O19_2 1_555 1_555
Cu8_2 O6_2 1_555 1_555
Cu9_2 O7_2 1_555 1_555
Cu10_2 O10_2 1_555 1_555
Cu11_2 O24_2 1_555 1_555
Cu12_2 O27_2 1_555 1_555
Cu13_2 O36_2 1_555 1_555
Cu14_2 O20_2 1_555 1_555
Cu15_2 O5_2 1_555 1_555
Cu16_2 O8_2 1_555 1_555
Cu17_2 O9_2 1_555 1_555
Cu18_2 O21_2 1_555 1_555
Cu19_2 O30_2 1_555 1_555
Cu20_2 O33_2 1_555 1_555
O17_2 Cu6 1_555 1_555
O18_2 Cu5 1_555 1_555
O19_2 C38_2 1_555 1_555
O20_2 C38_2 1_555 1_555
O21_2 C45_2 1_555 1_555
O22_2 Cu4_2 1_555 1_555
O23_2 Cu14_2 1_555 1_555
O24_2 C45_2 1_555 1_555
O25_2 Cu3_2 1_555 1_555
O26_2 Cu7_2 1_555 1_555
O27_2 C46_2 1_555 1_555
O28_2 Cu3_2 1_555 1_555
O29_2 Cu7_2 1_555 1_555
O30_2 C46_2 1_555 1_555
O31_2 Cu4_2 1_555 1_555
O32_2 Cu14_2 1_555 1_555
O33_2 C53_2 1_555 1_555
O34_2 Cu4_2 1_555 1_555
O35_2 Cu14_2 1_555 1_555
O36_2 C53_2 1_555 1_555
O37_2 Cu3_2 1_555 1_555
O38_2 Cu7_2 1_555 1_555
O45_2 Cu7_2 1_555 1_555
O46_2 Cu14_2 1_555 1_555
N7_2 C28_2 1_555 1_555
N8_2 C28_2 1_555 1_555
N9_2 C29_2 1_555 1_555
N10_2 H13_2 1_555 1_555
N11_2 H14_2 1_555 1_555
N12_2 H15_2 1_555 1_555
C28_2 N10_2 1_555 1_555
C29_2 N8_2 1_555 1_555
C30_2 N7_2 1_555 1_555
C31_2 N10_2 1_555 1_555
C32_2 C31_2 1_555 1_555
H16_2 C32_2 1_555 1_555
C33_2 C32_2 1_555 1_555
C34_2 C33_2 1_555 1_555
H17_2 C34_2 1_555 1_555
C35_2 C34_2 1_555 1_555
C36_2 C31_2 1_555 1_555
H18_2 C36_2 1_555 1_555
C37_2 O17_2 1_555 1_555
C38_2 C35_2 1_555 1_555
C39_2 N11_2 1_555 1_555
C40_2 C39_2 1_555 1_555
H19_2 C40_2 1_555 1_555
C41_2 C40_2 1_555 1_555
C42_2 C41_2 1_555 1_555
H20_2 C42_2 1_555 1_555
C43_2 C42_2 1_555 1_555
C44_2 C39_2 1_555 1_555
H21_2 C44_2 1_555 1_555
C45_2 C41_2 1_555 1_555
C46_2 C43_2 1_555 1_555
C47_2 N12_2 1_555 1_555
C48_2 C47_2 1_555 1_555
H22_2 C48_2 1_555 1_555
C49_2 C48_2 1_555 1_555
C50_2 C49_2 1_555 1_555
H23_2 C50_2 1_555 1_555
C51_2 C50_2 1_555 1_555
C52_2 C47_2 1_555 1_555
H24_2 C52_2 1_555 1_555
C53_2 C49_2 1_555 1_555
C54_2 O41 1_555 1_555
N3_2 C3_2 1_555 1_555
N5_2 C2_2 1_555 1_555
N6_2 C3_2 1_555 1_555
C8_2 C9_2 1_555 1_555
C16_2 C17_2 1_555 1_555
C24_2 C25_2 1_555 1_555
O18_2 C37_2 1_555 1_555
N9_2 C30_2 1_555 1_555
N11_2 C29_2 1_555 1_555
N12_2 C30_2 1_555 1_555
C33_2 C37_2 1_555 1_555
C35_2 C36_2 1_555 1_555
C43_2 C44_2 1_555 1_555
C51_2 C52_2 1_555 1_555
C51_2 C54_2 1_555 1_555
Cu1_2 O2_3 1_555 1_555
Cu2_2 O1_3 1_555 1_555
Cu10 O3_3 1_555 1_555
Cu17 O4_3 1_555 1_555
O1_3 C10_3 1_555 1_555
O2_3 C10_3 1_555 1_555
O3_3 C11_3 1_555 1_555
O4_3 C11_3 1_555 1_555
O5_3 C18_3 1_555 1_555
O6_3 C18_3 1_555 1_555
O7_3 C19_3 1_555 1_555
O8_3 C19_3 1_555 1_555
O34_2 C26_3 1_555 1_555
O37_2 C26_3 1_555 1_555
O11_2 C27_3 1_555 1_555
O13_3 Cu1_2 1_555 1_555
O14_3 Cu2_2 1_555 1_555
O15_3 Cu10 1_555 1_555
O16_3 Cu17 1_555 1_555
N1_3 C1_3 1_555 1_555
N2_3 C1_3 1_555 1_555
N3_3 C2_3 1_555 1_555
N4_3 H1_3 1_555 1_555
N5_3 H2_3 1_555 1_555
N6_3 H3_3 1_555 1_555
C1_3 N4_3 1_555 1_555
C2_3 N2_3 1_555 1_555
C3_3 N1_3 1_555 1_555
C4_3 N4_3 1_555 1_555
C5_3 C4_3 1_555 1_555
H4_3 C5_3 1_555 1_555
C6_3 C5_3 1_555 1_555
C7_3 C6_3 1_555 1_555
H5_3 C7_3 1_555 1_555
C8_3 C7_3 1_555 1_555
C9_3 C4_3 1_555 1_555
H6_3 C9_3 1_555 1_555
C10_3 C6_3 1_555 1_555
C11_3 C8_3 1_555 1_555
C12_3 N5_3 1_555 1_555
C13_3 C12_3 1_555 1_555
H7_3 C13_3 1_555 1_555
C14_3 C13_3 1_555 1_555
C15_3 C14_3 1_555 1_555
H8_3 C15_3 1_555 1_555
C16_3 C15_3 1_555 1_555
C17_3 C12_3 1_555 1_555
H9_3 C17_3 1_555 1_555
C18_3 C14_3 1_555 1_555
C19_3 C16_3 1_555 1_555
C20_3 N6_3 1_555 1_555
C21_3 C20_3 1_555 1_555
H10_3 C21_3 1_555 1_555
C22_3 C21_3 1_555 1_555
C23_3 C22_3 1_555 1_555
H11_3 C23_3 1_555 1_555
C24_3 C23_3 1_555 1_555
C25_3 C20_3 1_555 1_555
H12_3 C25_3 1_555 1_555
C26_3 C22_3 1_555 1_555
C27_3 C24_3 1_555 1_555
Cu13 O19_3 1_555 1_555
Cu9 O6_3 1_555 1_555
Cu8_2 O7_3 1_555 1_555
Cu12 O24_3 1_555 1_555
Cu11_2 O27_3 1_555 1_555
Cu20 O20_3 1_555 1_555
Cu16 O5_3 1_555 1_555
Cu15_2 O8_3 1_555 1_555
Cu19 O21_3 1_555 1_555
Cu18_2 O30_3 1_555 1_555
O17_3 Cu2_2 1_555 1_555
O18_3 Cu1_2 1_555 1_555
O19_3 C38_3 1_555 1_555
O20_3 C38_3 1_555 1_555
O21_3 C45_3 1_555 1_555
O22_3 Cu17 1_555 1_555
O23_3 Cu20 1_555 1_555
O24_3 C45_3 1_555 1_555
O25_3 Cu10 1_555 1_555
O26_3 Cu13 1_555 1_555
O27_3 C46_3 1_555 1_555
O28_3 Cu10 1_555 1_555
O29_3 Cu13 1_555 1_555
O30_3 C46_3 1_555 1_555
O31_3 Cu17 1_555 1_555
O32_3 Cu20 1_555 1_555
O35_2 C53_3 1_555 1_555
O38_2 C53_3 1_555 1_555
O43_2 Cu2_2 1_555 1_555
O44_2 Cu2_2 1_555 1_555
O45_3 Cu13 1_555 1_555
O46_3 Cu20 1_555 1_555
N7_3 C28_3 1_555 1_555
N8_3 C28_3 1_555 1_555
N9_3 C29_3 1_555 1_555
N10_3 H13_3 1_555 1_555
N11_3 H14_3 1_555 1_555
N12_3 H15_3 1_555 1_555
C28_3 N10_3 1_555 1_555
C29_3 N8_3 1_555 1_555
C30_3 N7_3 1_555 1_555
C31_3 N10_3 1_555 1_555
C32_3 C31_3 1_555 1_555
H16_3 C32_3 1_555 1_555
C33_3 C32_3 1_555 1_555
C34_3 C33_3 1_555 1_555
H17_3 C34_3 1_555 1_555
C35_3 C34_3 1_555 1_555
C36_3 C31_3 1_555 1_555
H18_3 C36_3 1_555 1_555
C37_3 O17_3 1_555 1_555
C38_3 C35_3 1_555 1_555
C39_3 N11_3 1_555 1_555
C40_3 C39_3 1_555 1_555
H19_3 C40_3 1_555 1_555
C41_3 C40_3 1_555 1_555
C42_3 C41_3 1_555 1_555
H20_3 C42_3 1_555 1_555
C43_3 C42_3 1_555 1_555
C44_3 C39_3 1_555 1_555
H21_3 C44_3 1_555 1_555
C45_3 C41_3 1_555 1_555
C46_3 C43_3 1_555 1_555
C47_3 N12_3 1_555 1_555
C48_3 C47_3 1_555 1_555
H22_3 C48_3 1_555 1_555
C49_3 C48_3 1_555 1_555
C50_3 C49_3 1_555 1_555
H23_3 C50_3 1_555 1_555
C51_3 C50_3 1_555 1_555
C52_3 C47_3 1_555 1_555
H24_3 C52_3 1_555 1_555
C53_3 C49_3 1_555 1_555
C54_3 O39_2 1_555 1_555
N3_3 C3_3 1_555 1_555
N5_3 C2_3 1_555 1_555
N6_3 C3_3 1_555 1_555
C8_3 C9_3 1_555 1_555
C16_3 C17_3 1_555 1_555
C24_3 C25_3 1_555 1_555
O18_3 C37_3 1_555 1_555
N9_3 C30_3 1_555 1_555
N11_3 C29_3 1_555 1_555
N12_3 C30_3 1_555 1_555
C33_3 C37_3 1_555 1_555
C35_3 C36_3 1_555 1_555
C43_3 C44_3 1_555 1_555
C51_3 C52_3 1_555 1_555
C51_3 C54_3 1_555 1_555
Cu6_2 O12_2 1_555 1_555
O42_2 Cu6_2 1_555 1_555
Cu5_2 O2_4 1_555 1_555
Cu6_2 O1_4 1_555 1_555
Cu10_2 O3_4 1_555 1_555
Cu17_2 O4_4 1_555 1_555
O1_4 C10_4 1_555 1_555
O2_4 C10_4 1_555 1_555
O3_4 C11_4 1_555 1_555
O4_4 C11_4 1_555 1_555
O5_4 C18_4 1_555 1_555
O6_4 C18_4 1_555 1_555
O7_4 C19_4 1_555 1_555
O8_4 C19_4 1_555 1_555
O34 C26_4 1_555 1_555
O37 C26_4 1_555 1_555
O40_2 C27_4 1_555 1_555
O13_4 Cu5_2 1_555 1_555
O14_4 Cu6_2 1_555 1_555
O15_4 Cu10_2 1_555 1_555
O16_4 Cu17_2 1_555 1_555
N1_4 C1_4 1_555 1_555
N2_4 C1_4 1_555 1_555
N3_4 C2_4 1_555 1_555
N4_4 H1_4 1_555 1_555
N5_4 H2_4 1_555 1_555
N6_4 H3_4 1_555 1_555
C1_4 N4_4 1_555 1_555
C2_4 N2_4 1_555 1_555
C3_4 N1_4 1_555 1_555
C4_4 N4_4 1_555 1_555
C5_4 C4_4 1_555 1_555
H4_4 C5_4 1_555 1_555
C6_4 C5_4 1_555 1_555
C7_4 C6_4 1_555 1_555
H5_4 C7_4 1_555 1_555
C8_4 C7_4 1_555 1_555
C9_4 C4_4 1_555 1_555
H6_4 C9_4 1_555 1_555
C10_4 C6_4 1_555 1_555
C11_4 C8_4 1_555 1_555
C12_4 N5_4 1_555 1_555
C13_4 C12_4 1_555 1_555
H7_4 C13_4 1_555 1_555
C14_4 C13_4 1_555 1_555
C15_4 C14_4 1_555 1_555
H8_4 C15_4 1_555 1_555
C16_4 C15_4 1_555 1_555
C17_4 C12_4 1_555 1_555
H9_4 C17_4 1_555 1_555
C18_4 C14_4 1_555 1_555
C19_4 C16_4 1_555 1_555
C20_4 N6_4 1_555 1_555
C21_4 C20_4 1_555 1_555
H10_4 C21_4 1_555 1_555
C22_4 C21_4 1_555 1_555
C23_4 C22_4 1_555 1_555
H11_4 C23_4 1_555 1_555
C24_4 C23_4 1_555 1_555
C25_4 C20_4 1_555 1_555
H12_4 C25_4 1_555 1_555
C26_4 C22_4 1_555 1_555
C27_4 C24_4 1_555 1_555
Cu13_2 O19_4 1_555 1_555
Cu9_2 O6_4 1_555 1_555
Cu8 O7_4 1_555 1_555
Cu12_2 O24_4 1_555 1_555
Cu11 O27_4 1_555 1_555
Cu20_2 O20_4 1_555 1_555
Cu16_2 O5_4 1_555 1_555
Cu15 O8_4 1_555 1_555
Cu19_2 O21_4 1_555 1_555
Cu18 O30_4 1_555 1_555
O17_4 Cu6_2 1_555 1_555
O18_4 Cu5_2 1_555 1_555
O19_4 C38_4 1_555 1_555
O20_4 C38_4 1_555 1_555
O21_4 C45_4 1_555 1_555
O22_4 Cu17_2 1_555 1_555
O23_4 Cu20_2 1_555 1_555
O24_4 C45_4 1_555 1_555
O25_4 Cu10_2 1_555 1_555
O26_4 Cu13_2 1_555 1_555
O27_4 C46_4 1_555 1_555
O28_4 Cu10_2 1_555 1_555
O29_4 Cu13_2 1_555 1_555
O30_4 C46_4 1_555 1_555
O31_4 Cu17_2 1_555 1_555
O32_4 Cu20_2 1_555 1_555
O35 C53_4 1_555 1_555
O38 C53_4 1_555 1_555
O45_4 Cu13_2 1_555 1_555
O46_4 Cu20_2 1_555 1_555
N7_4 C28_4 1_555 1_555
N8_4 C28_4 1_555 1_555
N9_4 C29_4 1_555 1_555
N10_4 H13_4 1_555 1_555
N11_4 H14_4 1_555 1_555
N12_4 H15_4 1_555 1_555
C28_4 N10_4 1_555 1_555
C29_4 N8_4 1_555 1_555
C30_4 N7_4 1_555 1_555
C31_4 N10_4 1_555 1_555
C32_4 C31_4 1_555 1_555
H16_4 C32_4 1_555 1_555
C33_4 C32_4 1_555 1_555
C34_4 C33_4 1_555 1_555
H17_4 C34_4 1_555 1_555
C35_4 C34_4 1_555 1_555
C36_4 C31_4 1_555 1_555
H18_4 C36_4 1_555 1_555
C37_4 O17_4 1_555 1_555
C38_4 C35_4 1_555 1_555
C39_4 N11_4 1_555 1_555
C40_4 C39_4 1_555 1_555
H19_4 C40_4 1_555 1_555
C41_4 C40_4 1_555 1_555
C42_4 C41_4 1_555 1_555
H20_4 C42_4 1_555 1_555
C43_4 C42_4 1_555 1_555
C44_4 C39_4 1_555 1_555
H21_4 C44_4 1_555 1_555
C45_4 C41_4 1_555 1_555
C46_4 C43_4 1_555 1_555
C47_4 N12_4 1_555 1_555
C48_4 C47_4 1_555 1_555
H22_4 C48_4 1_555 1_555
C49_4 C48_4 1_555 1_555
C50_4 C49_4 1_555 1_555
H23_4 C50_4 1_555 1_555
C51_4 C50_4 1_555 1_555
C52_4 C47_4 1_555 1_555
H24_4 C52_4 1_555 1_555
C53_4 C49_4 1_555 1_555
C54_4 O41_2 1_555 1_555
N3_4 C3_4 1_555 1_555
N5_4 C2_4 1_555 1_555
N6_4 C3_4 1_555 1_555
C8_4 C9_4 1_555 1_555
C16_4 C17_4 1_555 1_555
C24_4 C25_4 1_555 1_555
O18_4 C37_4 1_555 1_555
N9_4 C30_4 1_555 1_555
N11_4 C29_4 1_555 1_555
N12_4 C30_4 1_555 1_555
C33_4 C37_4 1_555 1_555
C35_4 C36_4 1_555 1_555
C43_4 C44_4 1_555 1_555
C51_4 C52_4 1_555 1_555
C51_4 C54_4 1_555 1_555
O13_5 Cu1_3 1_555 1_555
O14_5 Cu2_3 1_555 1_555
Cu8_2 O19_5 1_555 1_555
Cu15_2 O20_5 1_555 1_555
O17_5 Cu2_3 1_555 1_555
O18_5 Cu1_3 1_555 1_555
O19_5 C38_5 1_555 1_555
O20_5 C38_5 1_555 1_555
O22_2 C45_5 1_555 1_555
O25_2 C45_5 1_555 1_555
O35_3 Cu15_2 1_555 1_555
O38_3 Cu8_2 1_555 1_555
O41_3 Cu1_3 1_555 1_555
O44_3 Cu2_3 1_555 1_555
O45_5 Cu8_2 1_555 1_555
O46_5 Cu15_2 1_555 1_555
N7_5 C28_5 1_555 1_555
N8_5 C28_5 1_555 1_555
N10_5 H13_5 1_555 1_555
C28_5 N10_5 1_555 1_555
C31_5 N10_5 1_555 1_555
C32_5 C31_5 1_555 1_555
H16_5 C32_5 1_555 1_555
C33_5 C32_5 1_555 1_555
C34_5 C33_5 1_555 1_555
H17_5 C34_5 1_555 1_555
C35_5 C34_5 1_555 1_555
C36_5 C31_5 1_555 1_555
H18_5 C36_5 1_555 1_555
C37_5 O17_5 1_555 1_555
C38_5 C35_5 1_555 1_555
H19_5 C40_5 1_555 1_555
C41_5 C40_5 1_555 1_555
C45_5 C41_5 1_555 1_555
O18_5 C37_5 1_555 1_555
C33_5 C37_5 1_555 1_555
C35_5 C36_5 1_555 1_555
O13_5 H28 1_555 1_555
O14_5 H31 1_555 1_555
O14_5 H32 1_555 1_555
Cu1_4 O2_5 1_555 1_555
Cu2_4 O1_5 1_555 1_555
Cu11_2 O3_5 1_555 1_555
Cu18_2 O4_5 1_555 1_555
O1_5 C10_5 1_555 1_555
O2_5 C10_5 1_555 1_555
O3_5 C11_5 1_555 1_555
O4_5 C11_5 1_555 1_555
O23_2 C18_5 1_555 1_555
O26_2 C18_5 1_555 1_555
O13_6 Cu1_4 1_555 1_555
O14_6 Cu2_4 1_555 1_555
O15_5 Cu11_2 1_555 1_555
O16_5 Cu18_2 1_555 1_555
N1_5 C1_5 1_555 1_555
N2_5 C1_5 1_555 1_555
N4_5 H1_5 1_555 1_555
C1_5 N4_5 1_555 1_555
C4_5 N4_5 1_555 1_555
C5_5 C4_5 1_555 1_555
H4_5 C5_5 1_555 1_555
C6_5 C5_5 1_555 1_555
C7_5 C6_5 1_555 1_555
H5_5 C7_5 1_555 1_555
C8_5 C7_5 1_555 1_555
C9_5 C4_5 1_555 1_555
H6_5 C9_5 1_555 1_555
C10_5 C6_5 1_555 1_555
C11_5 C8_5 1_555 1_555
H7_5 C13_5 1_555 1_555
C14_5 C13_5 1_555 1_555
C18_5 C14_5 1_555 1_555
O34_3 Cu18_2 1_555 1_555
O37_3 Cu11_2 1_555 1_555
O40_3 Cu1_4 1_555 1_555
O43_3 Cu2_4 1_555 1_555
C8_5 C9_5 1_555 1_555
O13_6 H27 1_555 1_555
Cu9_2 O36_3 1_555 1_555
Cu16_2 O33_3 1_555 1_555
O28_4 C46_5 1_555 1_555
O31_4 C46_5 1_555 1_555
O33_3 C53_5 1_555 1_555
O36_3 C53_5 1_555 1_555
O39_3 Cu5_3 1_555 1_555
O42_3 Cu6_3 1_555 1_555
N9_5 C29_5 1_555 1_555
N11_5 H14_5 1_555 1_555
N12_5 H15_5 1_555 1_555
C39_5 N11_5 1_555 1_555
H20_5 C42_5 1_555 1_555
C43_5 C42_5 1_555 1_555
C44_5 C39_5 1_555 1_555
H21_5 C44_5 1_555 1_555
C46_5 C43_5 1_555 1_555
C47_5 N12_5 1_555 1_555
C48_5 C47_5 1_555 1_555
H22_5 C48_5 1_555 1_555
C49_5 C48_5 1_555 1_555
C50_5 C49_5 1_555 1_555
H23_5 C50_5 1_555 1_555
C51_5 C50_5 1_555 1_555
C52_5 C47_5 1_555 1_555
H24_5 C52_5 1_555 1_555
C53_5 C49_5 1_555 1_555
C54_5 O39_3 1_555 1_555
O42_3 C54_5 1_555 1_555
N9_5 C30_5 1_555 1_555
N11_5 C29_5 1_555 1_555
N12_5 C30_5 1_555 1_555
C43_5 C44_5 1_555 1_555
C51_5 C52_5 1_555 1_555
C51_5 C54_5 1_555 1_555
O29_4 C19_5 1_555 1_555
O32_4 C19_5 1_555 1_555
O9_3 C26_5 1_555 1_555
O10_3 C26_5 1_555 1_555
O11_3 C27_5 1_555 1_555
O12_3 C27_5 1_555 1_555
N3_5 C2_5 1_555 1_555
N5_5 H2_5 1_555 1_555
N6_5 H3_5 1_555 1_555
C12_5 N5_5 1_555 1_555
H8_5 C15_5 1_555 1_555
C16_5 C15_5 1_555 1_555
C17_5 C12_5 1_555 1_555
H9_5 C17_5 1_555 1_555
C19_5 C16_5 1_555 1_555
C20_5 N6_5 1_555 1_555
C21_5 C20_5 1_555 1_555
H10_5 C21_5 1_555 1_555
C22_5 C21_5 1_555 1_555
C23_5 C22_5 1_555 1_555
H11_5 C23_5 1_555 1_555
C24_5 C23_5 1_555 1_555
C25_5 C20_5 1_555 1_555
H12_5 C25_5 1_555 1_555
C26_5 C22_5 1_555 1_555
C27_5 C24_5 1_555 1_555
Cu5_4 O11_3 1_555 1_555
Cu6_4 O12_3 1_555 1_555
Cu12_2 O10_3 1_555 1_555
Cu19_2 O9_3 1_555 1_555
N3_5 C3_5 1_555 1_555
N5_5 C2_5 1_555 1_555
N6_5 C3_5 1_555 1_555
C16_5 C17_5 1_555 1_555
C24_5 C25_5 1_555 1_555
Cu9 O36_4 1_555 1_555
Cu16 O33_4 1_555 1_555
O28_3 C46_6 1_555 1_555
O31_3 C46_6 1_555 1_555
O33_4 C53_6 1_555 1_555
O36_4 C53_6 1_555 1_555
N9_6 C29_6 1_555 1_555
N11_6 H14_6 1_555 1_555
N12_6 H15_6 1_555 1_555
C39_6 N11_6 1_555 1_555
H20_6 C42_6 1_555 1_555
C43_6 C42_6 1_555 1_555
C44_6 C39_6 1_555 1_555
H21_6 C44_6 1_555 1_555
C46_6 C43_6 1_555 1_555
C47_6 N12_6 1_555 1_555
C48_6 C47_6 1_555 1_555
H22_6 C48_6 1_555 1_555
C49_6 C48_6 1_555 1_555
C50_6 C49_6 1_555 1_555
H23_6 C50_6 1_555 1_555
C51_6 C50_6 1_555 1_555
C52_6 C47_6 1_555 1_555
H24_6 C52_6 1_555 1_555
C53_6 C49_6 1_555 1_555
C54_6 O41_3 1_555 1_555
O44_3 C54_6 1_555 1_555
N9_6 C30_6 1_555 1_555
N11_6 C29_6 1_555 1_555
N12_6 C30_6 1_555 1_555
C43_6 C44_6 1_555 1_555
C51_6 C52_6 1_555 1_555
C51_6 C54_6 1_555 1_555
O29_3 C19_6 1_555 1_555
O32_3 C19_6 1_555 1_555
O9_4 C26_6 1_555 1_555
O10_4 C26_6 1_555 1_555
O40_3 C27_6 1_555 1_555
O43_3 C27_6 1_555 1_555
N3_6 C2_6 1_555 1_555
N5_6 H2_6 1_555 1_555
N6_6 H3_6 1_555 1_555
C12_6 N5_6 1_555 1_555
H8_6 C15_6 1_555 1_555
C16_6 C15_6 1_555 1_555
C17_6 C12_6 1_555 1_555
H9_6 C17_6 1_555 1_555
C19_6 C16_6 1_555 1_555
C20_6 N6_6 1_555 1_555
C21_6 C20_6 1_555 1_555
H10_6 C21_6 1_555 1_555
C22_6 C21_6 1_555 1_555
C23_6 C22_6 1_555 1_555
H11_6 C23_6 1_555 1_555
C24_6 C23_6 1_555 1_555
C25_6 C20_6 1_555 1_555
H12_6 C25_6 1_555 1_555
C26_6 C22_6 1_555 1_555
C27_6 C24_6 1_555 1_555
Cu12 O10_4 1_555 1_555
Cu19 O9_4 1_555 1_555
N3_6 C3_6 1_555 1_555
N5_6 C2_6 1_555 1_555
N6_6 C3_6 1_555 1_555
C16_6 C17_6 1_555 1_555
C24_6 C25_6 1_555 1_555
O13_7 Cu5_3 1_555 1_555
O14_7 Cu6_3 1_555 1_555
Cu8 O19_6 1_555 1_555
Cu15 O20_6 1_555 1_555
O17_6 Cu6_3 1_555 1_555
O18_6 Cu5_3 1_555 1_555
O19_6 C38_6 1_555 1_555
O20_6 C38_6 1_555 1_555
O22 C45_6 1_555 1_555
O25 C45_6 1_555 1_555
O35_4 Cu15 1_555 1_555
O38_4 Cu8 1_555 1_555
O45_6 Cu8 1_555 1_555
O46_6 Cu15 1_555 1_555
N7_6 C28_6 1_555 1_555
N8_6 C28_6 1_555 1_555
N10_6 H13_6 1_555 1_555
C28_6 N10_6 1_555 1_555
C31_6 N10_6 1_555 1_555
C32_6 C31_6 1_555 1_555
H16_6 C32_6 1_555 1_555
C33_6 C32_6 1_555 1_555
C34_6 C33_6 1_555 1_555
H17_6 C34_6 1_555 1_555
C35_6 C34_6 1_555 1_555
C36_6 C31_6 1_555 1_555
H18_6 C36_6 1_555 1_555
C37_6 O17_6 1_555 1_555
C38_6 C35_6 1_555 1_555
H19_6 C40_6 1_555 1_555
C41_6 C40_6 1_555 1_555
C45_6 C41_6 1_555 1_555
O18_6 C37_6 1_555 1_555
C33_6 C37_6 1_555 1_555
C35_6 C36_6 1_555 1_555
O13_7 H28_2 1_555 1_555
O14_7 H31_2 1_555 1_555
O14_7 H32_2 1_555 1_555
Cu5_4 O2_6 1_555 1_555
Cu6_4 O1_6 1_555 1_555
Cu11 O3_6 1_555 1_555
Cu18 O4_6 1_555 1_555
O1_6 C10_6 1_555 1_555
O2_6 C10_6 1_555 1_555
O3_6 C11_6 1_555 1_555
O4_6 C11_6 1_555 1_555
O23 C18_6 1_555 1_555
O26 C18_6 1_555 1_555
O13_8 Cu5_4 1_555 1_555
O14_8 Cu6_4 1_555 1_555
O15_6 Cu11 1_555 1_555
O16_6 Cu18 1_555 1_555
N1_6 C1_6 1_555 1_555
N2_6 C1_6 1_555 1_555
N4_6 H1_6 1_555 1_555
C1_6 N4_6 1_555 1_555
C4_6 N4_6 1_555 1_555
C5_6 C4_6 1_555 1_555
H4_6 C5_6 1_555 1_555
C6_6 C5_6 1_555 1_555
C7_6 C6_6 1_555 1_555
H5_6 C7_6 1_555 1_555
C8_6 C7_6 1_555 1_555
C9_6 C4_6 1_555 1_555
H6_6 C9_6 1_555 1_555
C10_6 C6_6 1_555 1_555
C11_6 C8_6 1_555 1_555
H7_6 C13_6 1_555 1_555
C14_6 C13_6 1_555 1_555
C18_6 C14_6 1_555 1_555
O34_4 Cu18 1_555 1_555
O37_4 Cu11 1_555 1_555
C8_6 C9_6 1_555 1_555
O13_8 H27_2 1_555 1_555
O28 C46_7 1_555 1_555
O31 C46_7 1_555 1_555
O35_4 C53_7 1_555 1_555
O38_4 C53_7 1_555 1_555
O39_4 Cu5_5 1_555 1_555
O42_4 Cu6_5 1_555 1_555
N9_7 C29_7 1_555 1_555
N11_7 H14_7 1_555 1_555
N12_7 H15_7 1_555 1_555
C39_7 N11_7 1_555 1_555
H20_7 C42_7 1_555 1_555
C43_7 C42_7 1_555 1_555
C44_7 C39_7 1_555 1_555
H21_7 C44_7 1_555 1_555
C46_7 C43_7 1_555 1_555
C47_7 N12_7 1_555 1_555
C48_7 C47_7 1_555 1_555
H22_7 C48_7 1_555 1_555
C49_7 C48_7 1_555 1_555
C50_7 C49_7 1_555 1_555
H23_7 C50_7 1_555 1_555
C51_7 C50_7 1_555 1_555
C52_7 C47_7 1_555 1_555
H24_7 C52_7 1_555 1_555
C53_7 C49_7 1_555 1_555
C54_7 O39_4 1_555 1_555
O42_4 C54_7 1_555 1_555
N9_7 C30_7 1_555 1_555
N11_7 C29_7 1_555 1_555
N12_7 C30_7 1_555 1_555
C43_7 C44_7 1_555 1_555
C51_7 C52_7 1_555 1_555
C51_7 C54_7 1_555 1_555
O29 C19_7 1_555 1_555
O32 C19_7 1_555 1_555
O34_4 C26_7 1_555 1_555
O37_4 C26_7 1_555 1_555
O11_4 C27_7 1_555 1_555
O12_4 C27_7 1_555 1_555
N3_7 C2_7 1_555 1_555
N5_7 H2_7 1_555 1_555
N6_7 H3_7 1_555 1_555
C12_7 N5_7 1_555 1_555
H8_7 C15_7 1_555 1_555
C16_7 C15_7 1_555 1_555
C17_7 C12_7 1_555 1_555
H9_7 C17_7 1_555 1_555
C19_7 C16_7 1_555 1_555
C20_7 N6_7 1_555 1_555
C21_7 C20_7 1_555 1_555
H10_7 C21_7 1_555 1_555
C22_7 C21_7 1_555 1_555
C23_7 C22_7 1_555 1_555
H11_7 C23_7 1_555 1_555
C24_7 C23_7 1_555 1_555
C25_7 C20_7 1_555 1_555
H12_7 C25_7 1_555 1_555
C26_7 C22_7 1_555 1_555
C27_7 C24_7 1_555 1_555
Cu5_6 O11_4 1_555 1_555
Cu6_6 O12_4 1_555 1_555
N3_7 C3_7 1_555 1_555
N5_7 C2_7 1_555 1_555
N6_7 C3_7 1_555 1_555
C16_7 C17_7 1_555 1_555
C24_7 C25_7 1_555 1_555
O13_9 Cu1_5 1_555 1_555
O14_9 Cu2_5 1_555 1_555
Cu9_2 O19_7 1_555 1_555
Cu16_2 O20_7 1_555 1_555
O17_7 Cu2_5 1_555 1_555
O18_7 Cu1_5 1_555 1_555
O19_7 C38_7 1_555 1_555
O20_7 C38_7 1_555 1_555
O22_4 C45_7 1_555 1_555
O25_4 C45_7 1_555 1_555
O41_4 Cu1_5 1_555 1_555
O44_4 Cu2_5 1_555 1_555
O45_7 Cu9_2 1_555 1_555
O46_7 Cu16_2 1_555 1_555
N7_7 C28_7 1_555 1_555
N8_7 C28_7 1_555 1_555
N10_7 H13_7 1_555 1_555
C28_7 N10_7 1_555 1_555
C31_7 N10_7 1_555 1_555
C32_7 C31_7 1_555 1_555
H16_7 C32_7 1_555 1_555
C33_7 C32_7 1_555 1_555
C34_7 C33_7 1_555 1_555
H17_7 C34_7 1_555 1_555
C35_7 C34_7 1_555 1_555
C36_7 C31_7 1_555 1_555
H18_7 C36_7 1_555 1_555
C37_7 O17_7 1_555 1_555
C38_7 C35_7 1_555 1_555
H19_7 C40_7 1_555 1_555
C41_7 C40_7 1_555 1_555
C45_7 C41_7 1_555 1_555
O18_7 C37_7 1_555 1_555
C33_7 C37_7 1_555 1_555
C35_7 C36_7 1_555 1_555
O13_9 H28_3 1_555 1_555
O14_9 H31_3 1_555 1_555
O14_9 H32_3 1_555 1_555
Cu1_6 O2_7 1_555 1_555
Cu2_6 O1_7 1_555 1_555
Cu12_2 O3_7 1_555 1_555
Cu19_2 O4_7 1_555 1_555
O1_7 C10_7 1_555 1_555
O2_7 C10_7 1_555 1_555
O3_7 C11_7 1_555 1_555
O4_7 C11_7 1_555 1_555
O23_4 C18_7 1_555 1_555
O26_4 C18_7 1_555 1_555
O13_10 Cu1_6 1_555 1_555
O14_10 Cu2_6 1_555 1_555
O15_7 Cu12_2 1_555 1_555
O16_7 Cu19_2 1_555 1_555
N1_7 C1_7 1_555 1_555
N2_7 C1_7 1_555 1_555
N4_7 H1_7 1_555 1_555
C1_7 N4_7 1_555 1_555
C4_7 N4_7 1_555 1_555
C5_7 C4_7 1_555 1_555
H4_7 C5_7 1_555 1_555
C6_7 C5_7 1_555 1_555
C7_7 C6_7 1_555 1_555
H5_7 C7_7 1_555 1_555
C8_7 C7_7 1_555 1_555
C9_7 C4_7 1_555 1_555
H6_7 C9_7 1_555 1_555
C10_7 C6_7 1_555 1_555
C11_7 C8_7 1_555 1_555
H7_7 C13_7 1_555 1_555
C14_7 C13_7 1_555 1_555
C18_7 C14_7 1_555 1_555
O40_4 Cu1_6 1_555 1_555
O43_4 Cu2_6 1_555 1_555
C8_7 C9_7 1_555 1_555
O13_10 H27_3 1_555 1_555
O13_11 Cu5_5 1_555 1_555
O14_11 Cu6_5 1_555 1_555
Cu9 O19_8 1_555 1_555
Cu16 O20_8 1_555 1_555
O17_8 Cu6_5 1_555 1_555
O18_8 Cu5_5 1_555 1_555
O19_8 C38_8 1_555 1_555
O20_8 C38_8 1_555 1_555
O22_3 C45_8 1_555 1_555
O25_3 C45_8 1_555 1_555
O45_8 Cu9 1_555 1_555
O46_8 Cu16 1_555 1_555
N7_8 C28_8 1_555 1_555
N8_8 C28_8 1_555 1_555
N10_8 H13_8 1_555 1_555
C28_8 N10_8 1_555 1_555
C31_8 N10_8 1_555 1_555
C32_8 C31_8 1_555 1_555
H16_8 C32_8 1_555 1_555
C33_8 C32_8 1_555 1_555
C34_8 C33_8 1_555 1_555
H17_8 C34_8 1_555 1_555
C35_8 C34_8 1_555 1_555
C36_8 C31_8 1_555 1_555
H18_8 C36_8 1_555 1_555
C37_8 O17_8 1_555 1_555
C38_8 C35_8 1_555 1_555
H19_8 C40_8 1_555 1_555
C41_8 C40_8 1_555 1_555
C45_8 C41_8 1_555 1_555
O18_8 C37_8 1_555 1_555
C33_8 C37_8 1_555 1_555
C35_8 C36_8 1_555 1_555
O13_11 H28_4 1_555 1_555
O14_11 H31_4 1_555 1_555
O14_11 H32_4 1_555 1_555
Cu5_6 O2_8 1_555 1_555
Cu6_6 O1_8 1_555 1_555
Cu12 O3_8 1_555 1_555
Cu19 O4_8 1_555 1_555
O1_8 C10_8 1_555 1_555
O2_8 C10_8 1_555 1_555
O3_8 C11_8 1_555 1_555
O4_8 C11_8 1_555 1_555
O23_3 C18_8 1_555 1_555
O26_3 C18_8 1_555 1_555
O13_12 Cu5_6 1_555 1_555
O14_12 Cu6_6 1_555 1_555
O15_8 Cu12 1_555 1_555
O16_8 Cu19 1_555 1_555
N1_8 C1_8 1_555 1_555
N2_8 C1_8 1_555 1_555
N4_8 H1_8 1_555 1_555
C1_8 N4_8 1_555 1_555
C4_8 N4_8 1_555 1_555
C5_8 C4_8 1_555 1_555
H4_8 C5_8 1_555 1_555
C6_8 C5_8 1_555 1_555
C7_8 C6_8 1_555 1_555
H5_8 C7_8 1_555 1_555
C8_8 C7_8 1_555 1_555
C9_8 C4_8 1_555 1_555
H6_8 C9_8 1_555 1_555
C10_8 C6_8 1_555 1_555
C11_8 C8_8 1_555 1_555
H7_8 C13_8 1_555 1_555
C14_8 C13_8 1_555 1_555
C18_8 C14_8 1_555 1_555
C8_8 C9_8 1_555 1_555
O13_12 H27_4 1_555 1_555
O28_2 C46_8 1_555 1_555
O31_2 C46_8 1_555 1_555
O35_3 C53_8 1_555 1_555
O38_3 C53_8 1_555 1_555
N9_8 C29_8 1_555 1_555
N11_8 H14_8 1_555 1_555
N12_8 H15_8 1_555 1_555
C39_8 N11_8 1_555 1_555
H20_8 C42_8 1_555 1_555
C43_8 C42_8 1_555 1_555
C44_8 C39_8 1_555 1_555
H21_8 C44_8 1_555 1_555
C46_8 C43_8 1_555 1_555
C47_8 N12_8 1_555 1_555
C48_8 C47_8 1_555 1_555
H22_8 C48_8 1_555 1_555
C49_8 C48_8 1_555 1_555
C50_8 C49_8 1_555 1_555
H23_8 C50_8 1_555 1_555
C51_8 C50_8 1_555 1_555
C52_8 C47_8 1_555 1_555
H24_8 C52_8 1_555 1_555
C53_8 C49_8 1_555 1_555
C54_8 O41_4 1_555 1_555
O44_4 C54_8 1_555 1_555
N9_8 C30_8 1_555 1_555
N11_8 C29_8 1_555 1_555
N12_8 C30_8 1_555 1_555
C43_8 C44_8 1_555 1_555
C51_8 C52_8 1_555 1_555
C51_8 C54_8 1_555 1_555
O29_2 C19_8 1_555 1_555
O32_2 C19_8 1_555 1_555
O34_3 C26_8 1_555 1_555
O37_3 C26_8 1_555 1_555
O40_4 C27_8 1_555 1_555
O43_4 C27_8 1_555 1_555
N3_8 C2_8 1_555 1_555
N5_8 H2_8 1_555 1_555
N6_8 H3_8 1_555 1_555
C12_8 N5_8 1_555 1_555
H8_8 C15_8 1_555 1_555
C16_8 C15_8 1_555 1_555
C17_8 C12_8 1_555 1_555
H9_8 C17_8 1_555 1_555
C19_8 C16_8 1_555 1_555
C20_8 N6_8 1_555 1_555
C21_8 C20_8 1_555 1_555
H10_8 C21_8 1_555 1_555
C22_8 C21_8 1_555 1_555
C23_8 C22_8 1_555 1_555
H11_8 C23_8 1_555 1_555
C24_8 C23_8 1_555 1_555
C25_8 C20_8 1_555 1_555
H12_8 C25_8 1_555 1_555
C26_8 C22_8 1_555 1_555
C27_8 C24_8 1_555 1_555
N3_8 C3_8 1_555 1_555
N5_8 C2_8 1_555 1_555
N6_8 C3_8 1_555 1_555
C16_8 C17_8 1_555 1_555
C24_8 C25_8 1_555 1_555
O13_7 H27_5 1_555 1_555
O13_8 H28_5 1_555 1_555
O14_8 H31_5 1_555 1_555
O14_8 H32_5 1_555 1_555
O13_5 H27_6 1_555 1_555
O13_6 H28_6 1_555 1_555
O14_6 H31_6 1_555 1_555
O14_6 H32_6 1_555 1_555
O13_11 H27_7 1_555 1_555
O13_12 H28_7 1_555 1_555
O14_12 H31_7 1_555 1_555
O14_12 H32_7 1_555 1_555
O13_9 H27_8 1_555 1_555
O13_10 H28_8 1_555 1_555
O14_10 H31_8 1_555 1_555
O14_10 H32_8 1_555 1_555

#END
