
###############################################################################
#
# This file contains modified crystal structure data generated from the
# MOF subset of the Cambridge Structural Database (CSD) v543 
# hosted by the Cambridge Crystallographic Data Centre (CCDC).
#
# This work is licensed under the Creative Commons
# Attribution-NonCommercial-ShareAlike 4.0 International License.
# To view a copy of this license, visit
# http://creativecommons.org/licenses/by-nc-sa/4.0/
# or send a letter to
# Creative Commons, PO Box 1866, Mountain View, CA 94042, USA.
#
# CIF created using the CSD Python API on 29 September 2022
# The structure has been converted into the P1 space group
# The structure has a 3D framework
# The original CSD entry XALXUF is in the tetragonal crystal system
# The framework has been calculated to contain at least 10.0% void space
# The void calculation uses a probe of radius 1.32A, grid spacing 0.4
# H atom positions have been added when not included in the experimental data
# Generated hydrogen atom positions removed from atoms on special positions
#
###############################################################################

data_XALXUF
_chemical_formula_moiety         '(C432 H352 Cu56 N96 O240)n'
_symmetry_cell_setting           triclinic
_symmetry_space_group_name_H-M   'P 1'
_symmetry_Int_Tables_number      1
_space_group_name_Hall           'P 1'
loop_
_symmetry_equiv_pos_site_id
_symmetry_equiv_pos_as_xyz
1 x,y,z
_cell_length_a                   26.6700(3)
_cell_length_b                   26.6700(3)
_cell_length_c                   38.0416(10)
_cell_angle_alpha                90
_cell_angle_beta                 90
_cell_angle_gamma                90
_cell_volume                     27058.6
loop_
_atom_site_label
_atom_site_type_symbol
_atom_site_fract_x
_atom_site_fract_y
_atom_site_fract_z
Cu1 Cu 0.15909(2) 0.23140(2) 0.197284(13)
Cu2 Cu 0.11917(2) 0.17426(2) 0.148019(13)
Cu3 Cu 0.56653(3) 0.10817(3) 0.5000
N2 N 0.31442(15) 0.04881(17) 0.34658(11)
C10 C 0.33960(19) 0.0192(2) 0.36838(12)
C11 C 0.2820(2) 0.0261(2) 0.32490(12)
C12 C 0.39971(17) 0.17378(17) 0.38163(10)
C13 C 0.45180(17) 0.13896(17) 0.42638(10)
C14 C 0.49123(19) 0.14449(17) 0.45344(10)
C15 C 0.43481(16) 0.18004(17) 0.40816(10)
H4 H 0.4470 0.2126 0.4137
C16 C 0.43132(16) 0.09250(17) 0.41912(10)
H5 H 0.4429 0.0642 0.4320
C17 C 0.38130(18) 0.1287(2) 0.37446(12)
H6 H 0.3582 0.1254 0.3556
C18 C 0.39450(18) 0.0854(2) 0.39381(11)
C19 C 0.18550(16) 0.07953(16) 0.22312(10)
C21 C 0.23390(18) 0.0460(2) 0.27085(11)
C22 C 0.21164(17) 0.08639(19) 0.25451(11)
H8 H 0.2141 0.1189 0.2646
C23 C 0.18257(16) 0.03362(16) 0.20760(10)
H9 H 0.1648 0.0291 0.1862
C24 C 0.16497(18) 0.12563(16) 0.20476(11)
C25 C 0.38307(18) 0.21875(17) 0.36071(11)
N5 N 0.37589(14) 0.03662(17) 0.38945(10)
H11 H 0.3904 0.0138 0.4027
N6 N 0.25981(14) 0.05701(18) 0.30230(11)
H12 H 0.2615 0.0890 0.3077
O2 O 0.58300(19) 0.0298(2) 0.5000
O3 O 0.51369(11) 0.10621(12) 0.46389(7)
O6 O 0.14446(11) 0.11757(11) 0.17484(7)
O7 O 0.17040(11) 0.16679(11) 0.21988(7)
O10 O 0.39886(11) 0.26143(11) 0.37128(7)
O11 O 0.35739(11) 0.21187(11) 0.33337(7)
O12 O 0.07556(17) 0.13566(15) 0.10817(8)
O13 O 0.20032(15) 0.27185(15) 0.23781(10)
O14 O 0.50009(11) 0.18913(12) 0.46378(7)
Cu5 Cu 0.15909(2) 0.23140(2) 0.802716(13)
Cu7 Cu 0.34091(2) 0.26860(2) 0.302716(13)
Cu10 Cu 0.34091(2) 0.26860(2) 0.697284(13)
Cu12 Cu 0.11917(2) 0.17426(2) 0.851981(13)
Cu14 Cu 0.38083(2) 0.32574(2) 0.351981(13)
Cu17 Cu 0.38083(2) 0.32574(2) 0.648019(13)
Cu20 Cu 0.54998(3) 0.20543(3) 0.5000
N8 N 0.31442(15) 0.04881(17) 0.65342(11)
C37 C 0.33960(19) 0.0192(2) 0.63162(12)
C38 C 0.2820(2) 0.0261(2) 0.67510(12)
C39 C 0.39971(17) 0.17378(17) 0.61837(10)
C40 C 0.45180(17) 0.13896(17) 0.57362(10)
C41 C 0.49123(19) 0.14449(17) 0.54656(10)
C42 C 0.43481(16) 0.18004(17) 0.59184(10)
H16 H 0.4470 0.2126 0.5863
C43 C 0.43132(16) 0.09250(17) 0.58088(10)
H17 H 0.4429 0.0642 0.5680
C44 C 0.38130(18) 0.1287(2) 0.62554(12)
H18 H 0.3582 0.1254 0.6444
C45 C 0.39450(18) 0.0854(2) 0.60619(11)
C46 C 0.18550(16) 0.07953(16) 0.77688(10)
C48 C 0.23390(18) 0.0460(2) 0.72915(11)
C49 C 0.21164(17) 0.08639(19) 0.74549(11)
H20 H 0.2141 0.1189 0.7354
C50 C 0.18257(16) 0.03362(16) 0.79240(10)
H21 H 0.1648 0.0291 0.8138
C51 C 0.16497(18) 0.12563(16) 0.79524(11)
C52 C 0.38307(18) 0.21875(17) 0.63929(11)
N11 N 0.37589(14) 0.03662(17) 0.61055(10)
H23 H 0.3904 0.0138 0.5973
N12 N 0.25981(14) 0.05701(18) 0.69770(11)
H24 H 0.2615 0.0890 0.6923
O17 O 0.51369(11) 0.10621(12) 0.53611(7)
O19 O 0.61415(11) 0.12482(12) 0.46285(7)
O20 O 0.61415(11) 0.12482(12) 0.53715(7)
O22 O 0.14446(11) 0.11757(11) 0.82516(7)
O23 O 0.17040(11) 0.16679(11) 0.78012(7)
O25 O 0.09148(11) 0.23279(11) 0.21828(7)
O26 O 0.09148(11) 0.23279(11) 0.78172(7)
O28 O 0.06138(11) 0.17754(10) 0.17919(7)
O29 O 0.06138(11) 0.17754(10) 0.82081(7)
O30 O 0.39886(11) 0.26143(11) 0.62872(7)
O31 O 0.10114(11) 0.23857(11) 0.12872(7)
O32 O 0.10114(11) 0.23857(11) 0.87128(7)
O33 O 0.35739(11) 0.21187(11) 0.66663(7)
O34 O 0.14261(11) 0.28813(11) 0.16663(7)
O35 O 0.14261(11) 0.28813(11) 0.83337(7)
O36 O 0.07556(17) 0.13566(15) 0.89183(8)
O37 O 0.20032(15) 0.27185(15) 0.76219(10)
O38 O 0.50009(11) 0.18913(12) 0.53622(7)
O42 O 0.21956(11) 0.22026(10) 0.16919(7)
O43 O 0.21956(11) 0.22026(10) 0.83081(7)
O45 O 0.18448(11) 0.17781(11) 0.12497(7)
O46 O 0.18448(11) 0.17781(11) 0.87503(7)
Cu4 Cu 0.45002(3) 0.79457(3) 0.5000
C1 C 0.38018(18) 0.83235(17) 0.45116(10)
C2 C 0.30368(18) 0.72156(17) 0.35927(10)
C3 C 0.33866(17) 0.77729(16) 0.40593(10)
H1 H 0.3509 0.7485 0.4179
C4 C 0.34847(16) 0.82539(17) 0.41889(10)
C5 C 0.31070(16) 0.77223(17) 0.37514(10)
C6 C 0.32923(17) 0.86660(19) 0.40186(11)
H2 H 0.3344 0.8989 0.4117
C7 C 0.30235(17) 0.86235(19) 0.37059(11)
C8 C 0.29266(17) 0.81378(18) 0.35775(11)
H3 H 0.2735 0.8096 0.3369
N1 N 0.27012(16) 0.97757(17) 0.32607(10)
C9 C 0.2962(2) 0.9511(2) 0.34933(12)
N3 N 0.33322(15) 0.96925(16) 0.37074(10)
C20 C 0.23206(17) 0.99874(18) 0.25485(12)
H7 H 0.2485 0.9710 0.2654
C26 C 0.20565(18) 0.94227(18) 0.20621(11)
C27 C 0.20686(16) 0.99259(17) 0.22428(10)
N4 N 0.28406(14) 0.90219(18) 0.35046(10)
H10 H 0.2601 0.8937 0.3358
O1 O 0.46250(18) 0.7139(2) 0.5000
O4 O 0.38585(11) 0.87518(12) 0.46285(7)
O5 O 0.39880(11) 0.79263(11) 0.46342(7)
O8 O 0.23279(11) 0.90852(11) 0.21828(7)
O9 O 0.17754(10) 0.93862(11) 0.17919(7)
O15 O 0.27974(10) 0.71956(11) 0.33081(7)
O16 O 0.32219(11) 0.68448(11) 0.37503(7)
Cu6 Cu 0.23140(2) 0.84091(2) 0.197284(13)
Cu8 Cu 0.26860(2) 0.65909(2) 0.302716(13)
Cu9 Cu 0.23140(2) 0.84091(2) 0.802716(13)
Cu11 Cu 0.26860(2) 0.65909(2) 0.697284(13)
Cu13 Cu 0.17426(2) 0.88083(2) 0.148019(13)
Cu15 Cu 0.32574(2) 0.61917(2) 0.351981(13)
Cu16 Cu 0.17426(2) 0.88083(2) 0.851981(13)
Cu18 Cu 0.32574(2) 0.61917(2) 0.648019(13)
Cu19 Cu 0.43347(3) 0.89183(3) 0.5000
C28 C 0.38018(18) 0.83235(17) 0.54884(10)
C29 C 0.30368(18) 0.72156(17) 0.64073(10)
C30 C 0.33866(17) 0.77729(16) 0.59407(10)
H13 H 0.3509 0.7485 0.5821
C31 C 0.34847(16) 0.82539(17) 0.58111(10)
C32 C 0.31070(16) 0.77223(17) 0.62486(10)
C33 C 0.32923(17) 0.86660(19) 0.59814(11)
H14 H 0.3344 0.8989 0.5883
C34 C 0.30235(17) 0.86235(19) 0.62941(11)
C35 C 0.29266(17) 0.81378(18) 0.64225(11)
H15 H 0.2735 0.8096 0.6631
N7 N 0.27012(16) 0.97757(17) 0.67393(10)
C36 C 0.2962(2) 0.9511(2) 0.65067(12)
N9 N 0.33322(15) 0.96925(16) 0.62926(10)
C47 C 0.23206(17) 0.99874(18) 0.74515(12)
H19 H 0.2485 0.9710 0.7346
C53 C 0.20565(18) 0.94227(18) 0.79379(11)
C54 C 0.20686(16) 0.99259(17) 0.77572(10)
N10 N 0.28406(14) 0.90219(18) 0.64954(10)
H22 H 0.2601 0.8937 0.6642
O18 O 0.38585(11) 0.87518(12) 0.53715(7)
O21 O 0.39880(11) 0.79263(11) 0.53658(7)
O24 O 0.23279(11) 0.90852(11) 0.78172(7)
O27 O 0.17754(10) 0.93862(11) 0.82081(7)
O39 O 0.49991(11) 0.81087(12) 0.46378(7)
O40 O 0.49991(11) 0.81087(12) 0.53622(7)
O41 O 0.27974(10) 0.71956(11) 0.66919(7)
O44 O 0.32219(11) 0.68448(11) 0.62497(7)
C1_2 C 0.61982(18) 0.16765(17) 0.45116(10)
C2_2 C 0.69632(18) 0.27844(17) 0.35927(10)
C3_2 C 0.66134(17) 0.22271(16) 0.40593(10)
H1_2 H 0.6491 0.2515 0.4179
C4_2 C 0.65153(16) 0.17461(17) 0.41889(10)
C5_2 C 0.68930(16) 0.22777(17) 0.37514(10)
C6_2 C 0.67077(17) 0.13340(19) 0.40186(11)
H2_2 H 0.6656 0.1011 0.4117
C7_2 C 0.69765(17) 0.13765(19) 0.37059(11)
C8_2 C 0.70734(17) 0.18622(18) 0.35775(11)
H3_2 H 0.7265 0.1904 0.3369
N1_2 N 0.72988(16) 0.02243(17) 0.32607(10)
C9_2 C 0.7038(2) 0.0489(2) 0.34933(12)
N3_2 N 0.66678(15) 0.03075(16) 0.37074(10)
C20_2 C 0.76794(17) 0.00126(18) 0.25485(12)
H7_2 H 0.7515 0.0290 0.2654
C26_2 C 0.79435(18) 0.05773(18) 0.20621(11)
C27_2 C 0.79314(16) 0.00741(17) 0.22428(10)
N4_2 N 0.71594(14) 0.09781(18) 0.35046(10)
H10_2 H 0.7399 0.1063 0.3358
O1_2 O 0.53750(18) 0.2861(2) 0.5000
O5_2 O 0.60120(11) 0.20737(11) 0.46342(7)
O8_2 O 0.76721(11) 0.09148(11) 0.21828(7)
O9_2 O 0.82246(10) 0.06138(11) 0.17919(7)
O15_2 O 0.72026(10) 0.28044(11) 0.33081(7)
O16_2 O 0.67781(11) 0.31552(11) 0.37503(7)
Cu6_2 Cu 0.76860(2) 0.15909(2) 0.197284(13)
Cu8_2 Cu 0.73140(2) 0.34091(2) 0.302716(13)
Cu9_2 Cu 0.76860(2) 0.15909(2) 0.802716(13)
Cu11_2 Cu 0.73140(2) 0.34091(2) 0.697284(13)
Cu13_2 Cu 0.82574(2) 0.11917(2) 0.148019(13)
Cu15_2 Cu 0.67426(2) 0.38083(2) 0.351981(13)
Cu16_2 Cu 0.82574(2) 0.11917(2) 0.851981(13)
Cu18_2 Cu 0.67426(2) 0.38083(2) 0.648019(13)
C28_2 C 0.61982(18) 0.16765(17) 0.54884(10)
C29_2 C 0.69632(18) 0.27844(17) 0.64073(10)
C30_2 C 0.66134(17) 0.22271(16) 0.59407(10)
H13_2 H 0.6491 0.2515 0.5821
C31_2 C 0.65153(16) 0.17461(17) 0.58111(10)
C32_2 C 0.68930(16) 0.22777(17) 0.62486(10)
C33_2 C 0.67077(17) 0.13340(19) 0.59814(11)
H14_2 H 0.6656 0.1011 0.5883
C34_2 C 0.69765(17) 0.13765(19) 0.62941(11)
C35_2 C 0.70734(17) 0.18622(18) 0.64225(11)
H15_2 H 0.7265 0.1904 0.6631
N7_2 N 0.72988(16) 0.02243(17) 0.67393(10)
C36_2 C 0.7038(2) 0.0489(2) 0.65067(12)
N9_2 N 0.66678(15) 0.03075(16) 0.62926(10)
C47_2 C 0.76794(17) 0.00126(18) 0.74515(12)
H19_2 H 0.7515 0.0290 0.7346
C53_2 C 0.79435(18) 0.05773(18) 0.79379(11)
C54_2 C 0.79314(16) 0.00741(17) 0.77572(10)
N10_2 N 0.71594(14) 0.09781(18) 0.64954(10)
H22_2 H 0.7399 0.1063 0.6642
O21_2 O 0.60120(11) 0.20737(11) 0.53658(7)
O24_2 O 0.76721(11) 0.09148(11) 0.78172(7)
O27_2 O 0.82246(10) 0.06138(11) 0.82081(7)
O41_2 O 0.72026(10) 0.28044(11) 0.66919(7)
O44_2 O 0.67781(11) 0.31552(11) 0.62497(7)
Cu1_2 Cu 0.84091(2) 0.76860(2) 0.197284(13)
Cu2_2 Cu 0.88083(2) 0.82574(2) 0.148019(13)
N2_2 N 0.68558(15) 0.95119(17) 0.34658(11)
C10_2 C 0.66040(19) 0.9808(2) 0.36838(12)
C11_2 C 0.7180(2) 0.9739(2) 0.32490(12)
C12_2 C 0.60029(17) 0.82622(17) 0.38163(10)
C13_2 C 0.54820(17) 0.86104(17) 0.42638(10)
C14_2 C 0.50877(19) 0.85551(17) 0.45344(10)
C15_2 C 0.56519(16) 0.81996(17) 0.40816(10)
H4_2 H 0.5530 0.7874 0.4137
C16_2 C 0.56868(16) 0.90750(17) 0.41912(10)
H5_2 H 0.5571 0.9358 0.4320
C17_2 C 0.61870(18) 0.8713(2) 0.37446(12)
H6_2 H 0.6418 0.8746 0.3556
C18_2 C 0.60550(18) 0.9146(2) 0.39381(11)
C19_2 C 0.81450(16) 0.92047(16) 0.22312(10)
C21_2 C 0.76610(18) 0.9540(2) 0.27085(11)
C22_2 C 0.78836(17) 0.91361(19) 0.25451(11)
H8_2 H 0.7859 0.8811 0.2646
C23_2 C 0.81743(16) 0.96638(16) 0.20760(10)
H9_2 H 0.8352 0.9709 0.1862
C24_2 C 0.83503(18) 0.87437(16) 0.20476(11)
C25_2 C 0.61693(18) 0.78125(17) 0.36071(11)
N5_2 N 0.62411(14) 0.96338(17) 0.38945(10)
H11_2 H 0.6096 0.9862 0.4027
N6_2 N 0.74019(14) 0.94299(18) 0.30230(11)
H12_2 H 0.7385 0.9110 0.3077
O2_2 O 0.41700(19) 0.9702(2) 0.5000
O3_2 O 0.48631(11) 0.89379(12) 0.46389(7)
O6_2 O 0.85554(11) 0.88243(11) 0.17484(7)
O7_2 O 0.82960(11) 0.83321(11) 0.21988(7)
O10_2 O 0.60114(11) 0.73857(11) 0.37128(7)
O11_2 O 0.64261(11) 0.78813(11) 0.33337(7)
O12_2 O 0.92444(17) 0.86434(15) 0.10817(8)
O13_2 O 0.79968(15) 0.72815(15) 0.23781(10)
Cu5_2 Cu 0.84091(2) 0.76860(2) 0.802716(13)
Cu7_2 Cu 0.65909(2) 0.73140(2) 0.302716(13)
Cu10_2 Cu 0.65909(2) 0.73140(2) 0.697284(13)
Cu12_2 Cu 0.88083(2) 0.82574(2) 0.851981(13)
Cu14_2 Cu 0.61917(2) 0.67426(2) 0.351981(13)
Cu17_2 Cu 0.61917(2) 0.67426(2) 0.648019(13)
N8_2 N 0.68558(15) 0.95119(17) 0.65342(11)
C37_2 C 0.66040(19) 0.9808(2) 0.63162(12)
C38_2 C 0.7180(2) 0.9739(2) 0.67510(12)
C39_2 C 0.60029(17) 0.82622(17) 0.61837(10)
C40_2 C 0.54820(17) 0.86104(17) 0.57362(10)
C41_2 C 0.50877(19) 0.85551(17) 0.54656(10)
C42_2 C 0.56519(16) 0.81996(17) 0.59184(10)
H16_2 H 0.5530 0.7874 0.5863
C43_2 C 0.56868(16) 0.90750(17) 0.58088(10)
H17_2 H 0.5571 0.9358 0.5680
C44_2 C 0.61870(18) 0.8713(2) 0.62554(12)
H18_2 H 0.6418 0.8746 0.6444
C45_2 C 0.60550(18) 0.9146(2) 0.60619(11)
C46_2 C 0.81450(16) 0.92047(16) 0.77688(10)
C48_2 C 0.76610(18) 0.9540(2) 0.72915(11)
C49_2 C 0.78836(17) 0.91361(19) 0.74549(11)
H20_2 H 0.7859 0.8811 0.7354
C50_2 C 0.81743(16) 0.96638(16) 0.79240(10)
H21_2 H 0.8352 0.9709 0.8138
C51_2 C 0.83503(18) 0.87437(16) 0.79524(11)
C52_2 C 0.61693(18) 0.78125(17) 0.63929(11)
N11_2 N 0.62411(14) 0.96338(17) 0.61055(10)
H23_2 H 0.6096 0.9862 0.5973
N12_2 N 0.74019(14) 0.94299(18) 0.69770(11)
H24_2 H 0.7385 0.9110 0.6923
O17_2 O 0.48631(11) 0.89379(12) 0.53611(7)
O22_2 O 0.85554(11) 0.88243(11) 0.82516(7)
O23_2 O 0.82960(11) 0.83321(11) 0.78012(7)
O25_2 O 0.90852(11) 0.76721(11) 0.21828(7)
O26_2 O 0.90852(11) 0.76721(11) 0.78172(7)
O28_2 O 0.93862(11) 0.82246(10) 0.17919(7)
O29_2 O 0.93862(11) 0.82246(10) 0.82081(7)
O30_2 O 0.60114(11) 0.73857(11) 0.62872(7)
O31_2 O 0.89886(11) 0.76143(11) 0.12872(7)
O32_2 O 0.89886(11) 0.76143(11) 0.87128(7)
O33_2 O 0.64261(11) 0.78813(11) 0.66663(7)
O34_2 O 0.85739(11) 0.71187(11) 0.16663(7)
O35_2 O 0.85739(11) 0.71187(11) 0.83337(7)
O36_2 O 0.92444(17) 0.86434(15) 0.89183(8)
O37_2 O 0.79968(15) 0.72815(15) 0.76219(10)
O42_2 O 0.78044(11) 0.77974(10) 0.16919(7)
O43_2 O 0.78044(11) 0.77974(10) 0.83081(7)
O45_2 O 0.81552(11) 0.82219(11) 0.12497(7)
O46_2 O 0.81552(11) 0.82219(11) 0.87503(7)
Cu4_2 Cu 0.20543(3) 0.45002(3) 0.5000
C1_3 C 0.16765(17) 0.38018(18) 0.45116(10)
C2_3 C 0.27844(17) 0.30368(18) 0.35927(10)
C3_3 C 0.22271(16) 0.33866(17) 0.40593(10)
H1_3 H 0.2515 0.3509 0.4179
C4_3 C 0.17461(17) 0.34847(16) 0.41889(10)
C5_3 C 0.22777(17) 0.31070(16) 0.37514(10)
C6_3 C 0.13340(19) 0.32923(17) 0.40186(11)
H2_3 H 0.1011 0.3344 0.4117
C7_3 C 0.13765(19) 0.30235(17) 0.37059(11)
C8_3 C 0.18622(18) 0.29266(17) 0.35775(11)
H3_3 H 0.1904 0.2735 0.3369
N1_3 N 0.02243(17) 0.27012(16) 0.32607(10)
C9_3 C 0.0489(2) 0.2962(2) 0.34933(12)
N3_3 N 0.03075(16) 0.33322(15) 0.37074(10)
C20_3 C 0.00126(18) 0.23206(17) 0.25485(12)
H7_3 H 0.0290 0.2485 0.2654
C26_3 C 0.05773(18) 0.20565(18) 0.20621(11)
C27_3 C 0.00741(17) 0.20686(16) 0.22428(10)
N4_3 N 0.09781(18) 0.28406(14) 0.35046(10)
H10_3 H 0.1063 0.2601 0.3358
O1_3 O 0.2861(2) 0.46250(18) 0.5000
O4_2 O 0.12482(12) 0.38585(11) 0.46285(7)
O5_3 O 0.20737(11) 0.39880(11) 0.46342(7)
O15_3 O 0.28044(11) 0.27974(10) 0.33081(7)
O16_3 O 0.31552(11) 0.32219(11) 0.37503(7)
Cu19_2 Cu 0.10817(3) 0.43347(3) 0.5000
C28_3 C 0.16765(17) 0.38018(18) 0.54884(10)
C29_3 C 0.27844(17) 0.30368(18) 0.64073(10)
C30_3 C 0.22271(16) 0.33866(17) 0.59407(10)
H13_3 H 0.2515 0.3509 0.5821
C31_3 C 0.17461(17) 0.34847(16) 0.58111(10)
C32_3 C 0.22777(17) 0.31070(16) 0.62486(10)
C33_3 C 0.13340(19) 0.32923(17) 0.59814(11)
H14_3 H 0.1011 0.3344 0.5883
C34_3 C 0.13765(19) 0.30235(17) 0.62941(11)
C35_3 C 0.18622(18) 0.29266(17) 0.64225(11)
H15_3 H 0.1904 0.2735 0.6631
N7_3 N 0.02243(17) 0.27012(16) 0.67393(10)
C36_3 C 0.0489(2) 0.2962(2) 0.65067(12)
N9_3 N 0.03075(16) 0.33322(15) 0.62926(10)
C47_3 C 0.00126(18) 0.23206(17) 0.74515(12)
H19_3 H 0.0290 0.2485 0.7346
C53_3 C 0.05773(18) 0.20565(18) 0.79379(11)
C54_3 C 0.00741(17) 0.20686(16) 0.77572(10)
N10_3 N 0.09781(18) 0.28406(14) 0.64954(10)
H22_3 H 0.1063 0.2601 0.6642
O18_2 O 0.12482(12) 0.38585(11) 0.53715(7)
O21_3 O 0.20737(11) 0.39880(11) 0.53658(7)
O39_2 O 0.18913(12) 0.49991(11) 0.46378(7)
O40_2 O 0.18913(12) 0.49991(11) 0.53622(7)
O41_3 O 0.28044(11) 0.27974(10) 0.66919(7)
O44_3 O 0.31552(11) 0.32219(11) 0.62497(7)
Cu3_2 Cu 0.89183(3) 0.56653(3) 0.5000
N2_3 N 0.95119(17) 0.31442(15) 0.34658(11)
C10_3 C 0.9808(2) 0.33960(19) 0.36838(12)
C11_3 C 0.9739(2) 0.2820(2) 0.32490(12)
C12_3 C 0.82622(17) 0.39971(17) 0.38163(10)
C13_3 C 0.86104(17) 0.45180(17) 0.42638(10)
C14_3 C 0.85551(17) 0.49123(19) 0.45344(10)
C15_3 C 0.81996(17) 0.43481(16) 0.40816(10)
H4_3 H 0.7874 0.4470 0.4137
C16_3 C 0.90750(17) 0.43132(16) 0.41912(10)
H5_3 H 0.9358 0.4429 0.4320
C17_3 C 0.8713(2) 0.38130(18) 0.37446(12)
H6_3 H 0.8746 0.3582 0.3556
C18_3 C 0.9146(2) 0.39450(18) 0.39381(11)
C19_3 C 0.92047(16) 0.18550(16) 0.22312(10)
C21_3 C 0.9540(2) 0.23390(18) 0.27085(11)
C22_3 C 0.91361(19) 0.21164(17) 0.25451(11)
H8_3 H 0.8811 0.2141 0.2646
C23_3 C 0.96638(16) 0.18257(16) 0.20760(10)
H9_3 H 0.9709 0.1648 0.1862
C24_3 C 0.87437(16) 0.16497(18) 0.20476(11)
C25_3 C 0.78125(17) 0.38307(18) 0.36071(11)
N5_3 N 0.96338(17) 0.37589(14) 0.38945(10)
H11_3 H 0.9862 0.3904 0.4027
N6_3 N 0.94299(18) 0.25981(14) 0.30230(11)
H12_3 H 0.9110 0.2615 0.3077
O2_3 O 0.9702(2) 0.58300(19) 0.5000
O3_3 O 0.89379(12) 0.51369(11) 0.46389(7)
O6_3 O 0.88243(11) 0.14446(11) 0.17484(7)
O7_3 O 0.83321(11) 0.17040(11) 0.21988(7)
O10_3 O 0.73857(11) 0.39886(11) 0.37128(7)
O11_3 O 0.78813(11) 0.35739(11) 0.33337(7)
O12_3 O 0.86434(15) 0.07556(17) 0.10817(8)
O13_3 O 0.72815(15) 0.20032(15) 0.23781(10)
O14_2 O 0.81087(12) 0.50009(11) 0.46378(7)
Cu20_2 Cu 0.79457(3) 0.54998(3) 0.5000
N8_3 N 0.95119(17) 0.31442(15) 0.65342(11)
C37_3 C 0.9808(2) 0.33960(19) 0.63162(12)
C38_3 C 0.9739(2) 0.2820(2) 0.67510(12)
C39_3 C 0.82622(17) 0.39971(17) 0.61837(10)
C40_3 C 0.86104(17) 0.45180(17) 0.57362(10)
C41_3 C 0.85551(17) 0.49123(19) 0.54656(10)
C42_3 C 0.81996(17) 0.43481(16) 0.59184(10)
H16_3 H 0.7874 0.4470 0.5863
C43_3 C 0.90750(17) 0.43132(16) 0.58088(10)
H17_3 H 0.9358 0.4429 0.5680
C44_3 C 0.8713(2) 0.38130(18) 0.62554(12)
H18_3 H 0.8746 0.3582 0.6444
C45_3 C 0.9146(2) 0.39450(18) 0.60619(11)
C46_3 C 0.92047(16) 0.18550(16) 0.77688(10)
C48_3 C 0.9540(2) 0.23390(18) 0.72915(11)
C49_3 C 0.91361(19) 0.21164(17) 0.74549(11)
H20_3 H 0.8811 0.2141 0.7354
C50_3 C 0.96638(16) 0.18257(16) 0.79240(10)
H21_3 H 0.9709 0.1648 0.8138
C51_3 C 0.87437(16) 0.16497(18) 0.79524(11)
C52_3 C 0.78125(17) 0.38307(18) 0.63929(11)
N11_3 N 0.96338(17) 0.37589(14) 0.61055(10)
H23_3 H 0.9862 0.3904 0.5973
N12_3 N 0.94299(18) 0.25981(14) 0.69770(11)
H24_3 H 0.9110 0.2615 0.6923
O17_3 O 0.89379(12) 0.51369(11) 0.53611(7)
O19_2 O 0.87518(12) 0.61415(11) 0.46285(7)
O20_2 O 0.87518(12) 0.61415(11) 0.53715(7)
O22_3 O 0.88243(11) 0.14446(11) 0.82516(7)
O23_3 O 0.83321(11) 0.17040(11) 0.78012(7)
O30_3 O 0.73857(11) 0.39886(11) 0.62872(7)
O31_3 O 0.76143(11) 0.10114(11) 0.12872(7)
O32_3 O 0.76143(11) 0.10114(11) 0.87128(7)
O33_3 O 0.78813(11) 0.35739(11) 0.66663(7)
O34_3 O 0.71187(11) 0.14261(11) 0.16663(7)
O35_3 O 0.71187(11) 0.14261(11) 0.83337(7)
O36_3 O 0.86434(15) 0.07556(17) 0.89183(8)
O37_3 O 0.72815(15) 0.20032(15) 0.76219(10)
O38_2 O 0.81087(12) 0.50009(11) 0.53622(7)
O42_3 O 0.77974(10) 0.21956(11) 0.16919(7)
O43_3 O 0.77974(10) 0.21956(11) 0.83081(7)
O45_3 O 0.82219(11) 0.18448(11) 0.12497(7)
O46_3 O 0.82219(11) 0.18448(11) 0.87503(7)
N2_4 N 0.04881(17) 0.68558(15) 0.34658(11)
C10_4 C 0.0192(2) 0.66040(19) 0.36838(12)
C11_4 C 0.0261(2) 0.7180(2) 0.32490(12)
C12_4 C 0.17378(17) 0.60029(17) 0.38163(10)
C13_4 C 0.13896(17) 0.54820(17) 0.42638(10)
C14_4 C 0.14449(17) 0.50877(19) 0.45344(10)
C15_4 C 0.18004(17) 0.56519(16) 0.40816(10)
H4_4 H 0.2126 0.5530 0.4137
C16_4 C 0.09250(17) 0.56868(16) 0.41912(10)
H5_4 H 0.0642 0.5571 0.4320
C17_4 C 0.1287(2) 0.61870(18) 0.37446(12)
H6_4 H 0.1254 0.6418 0.3556
C18_4 C 0.0854(2) 0.60550(18) 0.39381(11)
C19_4 C 0.07953(16) 0.81450(16) 0.22312(10)
C21_4 C 0.0460(2) 0.76610(18) 0.27085(11)
C22_4 C 0.08639(19) 0.78836(17) 0.25451(11)
H8_4 H 0.1189 0.7859 0.2646
C23_4 C 0.03362(16) 0.81743(16) 0.20760(10)
H9_4 H 0.0291 0.8352 0.1862
C24_4 C 0.12563(16) 0.83503(18) 0.20476(11)
C25_4 C 0.21875(17) 0.61693(18) 0.36071(11)
N5_4 N 0.03662(17) 0.62411(14) 0.38945(10)
H11_4 H 0.0138 0.6096 0.4027
N6_4 N 0.05701(18) 0.74019(14) 0.30230(11)
H12_4 H 0.0890 0.7385 0.3077
O2_4 O 0.0298(2) 0.41700(19) 0.5000
O3_4 O 0.10621(12) 0.48631(11) 0.46389(7)
O6_4 O 0.11757(11) 0.85554(11) 0.17484(7)
O7_4 O 0.16679(11) 0.82960(11) 0.21988(7)
O10_4 O 0.26143(11) 0.60114(11) 0.37128(7)
O11_4 O 0.21187(11) 0.64261(11) 0.33337(7)
O12_4 O 0.13566(15) 0.92444(17) 0.10817(8)
O13_4 O 0.27185(15) 0.79968(15) 0.23781(10)
N8_4 N 0.04881(17) 0.68558(15) 0.65342(11)
C37_4 C 0.0192(2) 0.66040(19) 0.63162(12)
C38_4 C 0.0261(2) 0.7180(2) 0.67510(12)
C39_4 C 0.17378(17) 0.60029(17) 0.61837(10)
C40_4 C 0.13896(17) 0.54820(17) 0.57362(10)
C41_4 C 0.14449(17) 0.50877(19) 0.54656(10)
C42_4 C 0.18004(17) 0.56519(16) 0.59184(10)
H16_4 H 0.2126 0.5530 0.5863
C43_4 C 0.09250(17) 0.56868(16) 0.58088(10)
H17_4 H 0.0642 0.5571 0.5680
C44_4 C 0.1287(2) 0.61870(18) 0.62554(12)
H18_4 H 0.1254 0.6418 0.6444
C45_4 C 0.0854(2) 0.60550(18) 0.60619(11)
C46_4 C 0.07953(16) 0.81450(16) 0.77688(10)
C48_4 C 0.0460(2) 0.76610(18) 0.72915(11)
C49_4 C 0.08639(19) 0.78836(17) 0.74549(11)
H20_4 H 0.1189 0.7859 0.7354
C50_4 C 0.03362(16) 0.81743(16) 0.79240(10)
H21_4 H 0.0291 0.8352 0.8138
C51_4 C 0.12563(16) 0.83503(18) 0.79524(11)
C52_4 C 0.21875(17) 0.61693(18) 0.63929(11)
N11_4 N 0.03662(17) 0.62411(14) 0.61055(10)
H23_4 H 0.0138 0.6096 0.5973
N12_4 N 0.05701(18) 0.74019(14) 0.69770(11)
H24_4 H 0.0890 0.7385 0.6923
O17_4 O 0.10621(12) 0.48631(11) 0.53611(7)
O22_4 O 0.11757(11) 0.85554(11) 0.82516(7)
O23_4 O 0.16679(11) 0.82960(11) 0.78012(7)
O30_4 O 0.26143(11) 0.60114(11) 0.62872(7)
O31_4 O 0.23857(11) 0.89886(11) 0.12872(7)
O32_4 O 0.23857(11) 0.89886(11) 0.87128(7)
O33_4 O 0.21187(11) 0.64261(11) 0.66663(7)
O34_4 O 0.28813(11) 0.85739(11) 0.16663(7)
O35_4 O 0.28813(11) 0.85739(11) 0.83337(7)
O36_4 O 0.13566(15) 0.92444(17) 0.89183(8)
O37_4 O 0.27185(15) 0.79968(15) 0.76219(10)
O42_4 O 0.22026(10) 0.78044(11) 0.16919(7)
O43_4 O 0.22026(10) 0.78044(11) 0.83081(7)
O45_4 O 0.17781(11) 0.81552(11) 0.12497(7)
O46_4 O 0.17781(11) 0.81552(11) 0.87503(7)
C1_4 C 0.83235(17) 0.61982(18) 0.45116(10)
C2_4 C 0.72156(17) 0.69632(18) 0.35927(10)
C3_4 C 0.77729(16) 0.66134(17) 0.40593(10)
H1_4 H 0.7485 0.6491 0.4179
C4_4 C 0.82539(17) 0.65153(16) 0.41889(10)
C5_4 C 0.77223(17) 0.68930(16) 0.37514(10)
C6_4 C 0.86660(19) 0.67077(17) 0.40186(11)
H2_4 H 0.8989 0.6656 0.4117
C7_4 C 0.86235(19) 0.69765(17) 0.37059(11)
C8_4 C 0.81378(18) 0.70734(17) 0.35775(11)
H3_4 H 0.8096 0.7265 0.3369
N1_4 N 0.97757(17) 0.72988(16) 0.32607(10)
C9_4 C 0.9511(2) 0.7038(2) 0.34933(12)
N3_4 N 0.96925(16) 0.66678(15) 0.37074(10)
C20_4 C 0.99874(18) 0.76794(17) 0.25485(12)
H7_4 H 0.9710 0.7515 0.2654
C26_4 C 0.94227(18) 0.79435(18) 0.20621(11)
C27_4 C 0.99259(17) 0.79314(16) 0.22428(10)
N4_4 N 0.90219(18) 0.71594(14) 0.35046(10)
H10_4 H 0.8937 0.7399 0.3358
O1_4 O 0.7139(2) 0.53750(18) 0.5000
O5_4 O 0.79263(11) 0.60120(11) 0.46342(7)
O15_4 O 0.71956(11) 0.72026(10) 0.33081(7)
O16_4 O 0.68448(11) 0.67781(11) 0.37503(7)
C28_4 C 0.83235(17) 0.61982(18) 0.54884(10)
C29_4 C 0.72156(17) 0.69632(18) 0.64073(10)
C30_4 C 0.77729(16) 0.66134(17) 0.59407(10)
H13_4 H 0.7485 0.6491 0.5821
C31_4 C 0.82539(17) 0.65153(16) 0.58111(10)
C32_4 C 0.77223(17) 0.68930(16) 0.62486(10)
C33_4 C 0.86660(19) 0.67077(17) 0.59814(11)
H14_4 H 0.8989 0.6656 0.5883
C34_4 C 0.86235(19) 0.69765(17) 0.62941(11)
C35_4 C 0.81378(18) 0.70734(17) 0.64225(11)
H15_4 H 0.8096 0.7265 0.6631
N7_4 N 0.97757(17) 0.72988(16) 0.67393(10)
C36_4 C 0.9511(2) 0.7038(2) 0.65067(12)
N9_4 N 0.96925(16) 0.66678(15) 0.62926(10)
C47_4 C 0.99874(18) 0.76794(17) 0.74515(12)
H19_4 H 0.9710 0.7515 0.7346
C53_4 C 0.94227(18) 0.79435(18) 0.79379(11)
C54_4 C 0.99259(17) 0.79314(16) 0.77572(10)
N10_4 N 0.90219(18) 0.71594(14) 0.64954(10)
H22_4 H 0.8937 0.7399 0.6642
O21_4 O 0.79263(11) 0.60120(11) 0.53658(7)
O41_4 O 0.71956(11) 0.72026(10) 0.66919(7)
O44_4 O 0.68448(11) 0.67781(11) 0.62497(7)
Cu3_3 Cu 0.06653(3) 0.60817(3) 0.0000
O2_5 O 0.08300(19) 0.5298(2) 0.0000
Cu20_3 Cu 0.04998(3) 0.70543(3) 0.0000
O17_5 O 0.01369(11) 0.60621(12) 0.03611(7)
O20_3 O 0.11415(11) 0.62482(12) 0.03715(7)
O38_3 O 0.00009(11) 0.68913(12) 0.03622(7)
H32 H 0.109986 0.522789 0.0172998
Cu3_4 Cu 0.06653(3) 0.60817(3) 1.0000
O2_6 O 0.08300(19) 0.5298(2) 1.0000
O3_5 O 0.01369(11) 0.60621(12) 0.96389(7)
O14_3 O 0.00009(11) 0.68913(12) 0.96378(7)
Cu20_4 Cu 0.04998(3) 0.70543(3) 1.0000
O19_3 O 0.11415(11) 0.62482(12) 0.96285(7)
H31 H 0.0942492 0.519482 0.976192
Cu4_3 Cu 0.95002(3) 0.29457(3) 0.0000
O1_5 O 0.96250(18) 0.2139(2) 0.0000
Cu19_3 Cu 0.93347(3) 0.39183(3) 0.0000
C28_5 C 0.88018(18) 0.33235(17) 0.04884(10)
C29_5 C 0.80368(18) 0.22156(17) 0.14073(10)
C30_5 C 0.83866(17) 0.27729(16) 0.09407(10)
H13_5 H 0.8509 0.2485 0.0821
C31_5 C 0.84847(16) 0.32539(17) 0.08111(10)
C32_5 C 0.81070(16) 0.27223(17) 0.12486(10)
C33_5 C 0.82923(17) 0.36660(19) 0.09814(11)
H14_5 H 0.8344 0.3989 0.0883
C34_5 C 0.80235(17) 0.36235(19) 0.12941(11)
C35_5 C 0.79266(17) 0.31378(18) 0.14225(11)
H15_5 H 0.7735 0.3096 0.1631
N7_5 N 0.77012(16) 0.47757(17) 0.17393(10)
N8_5 N 0.81442(15) 0.54881(17) 0.15342(11)
C36_5 C 0.7962(2) 0.4511(2) 0.15067(12)
C37_5 C 0.83960(19) 0.5192(2) 0.13162(12)
N9_5 N 0.83322(15) 0.46925(16) 0.12926(10)
C38_5 C 0.7820(2) 0.5261(2) 0.17510(12)
C39_5 C 0.89971(17) 0.67378(17) 0.11837(10)
C40_5 C 0.95180(17) 0.63896(17) 0.07362(10)
C41_5 C 0.99123(19) 0.64449(17) 0.04656(10)
C42_5 C 0.93481(16) 0.68004(17) 0.09184(10)
H16_5 H 0.9470 0.7126 0.0863
C43_5 C 0.93132(16) 0.59250(17) 0.08088(10)
H17_5 H 0.9429 0.5642 0.0680
C44_5 C 0.88130(18) 0.6287(2) 0.12554(12)
H18_5 H 0.8582 0.6254 0.1444
C45_5 C 0.89450(18) 0.5854(2) 0.10619(11)
C46_5 C 0.68550(16) 0.57953(16) 0.27688(10)
C47_5 C 0.73206(17) 0.49874(18) 0.24515(12)
H19_5 H 0.7485 0.4710 0.2346
C48_5 C 0.73390(18) 0.5460(2) 0.22915(11)
C49_5 C 0.71164(17) 0.58639(19) 0.24549(11)
H20_5 H 0.7141 0.6189 0.2354
C50_5 C 0.68257(16) 0.53362(16) 0.29240(10)
H21_5 H 0.6648 0.5291 0.3138
C51_5 C 0.66497(18) 0.62563(16) 0.29524(11)
C52_5 C 0.88307(18) 0.71875(17) 0.13929(11)
C53_5 C 0.70565(18) 0.44227(18) 0.29379(11)
C54_5 C 0.70686(16) 0.49259(17) 0.27572(10)
N10_5 N 0.78406(14) 0.40219(18) 0.14954(10)
H22_5 H 0.7601 0.3937 0.1642
N11_5 N 0.87589(14) 0.53662(17) 0.11055(10)
H23_5 H 0.8904 0.5138 0.0973
N12_5 N 0.75981(14) 0.55701(18) 0.19770(11)
H24_5 H 0.7615 0.5890 0.1923
O18_3 O 0.88585(11) 0.37518(12) 0.03715(7)
O21_5 O 0.89880(11) 0.29263(11) 0.03658(7)
O22_5 O 0.64446(11) 0.61757(11) 0.32516(7)
O23_5 O 0.67040(11) 0.66679(11) 0.28012(7)
O24_3 O 0.73279(11) 0.40852(11) 0.28172(7)
O26_3 O 0.59148(11) 0.73279(11) 0.28172(7)
O27_3 O 0.67754(10) 0.43862(11) 0.32081(7)
O29_3 O 0.56138(11) 0.67754(10) 0.32081(7)
O36_5 O 0.57556(17) 0.63566(15) 0.39183(8)
O37_5 O 0.70032(15) 0.77185(15) 0.26219(10)
O40_3 O 0.99991(11) 0.31087(12) 0.03622(7)
H30 H 0.988625 0.205383 0.0176138
Cu4_4 Cu 0.95002(3) 0.29457(3) 1.0000
C1_5 C 0.88018(18) 0.33235(17) 0.95116(10)
C2_5 C 0.80368(18) 0.22156(17) 0.85927(10)
C3_5 C 0.83866(17) 0.27729(16) 0.90593(10)
H1_5 H 0.8509 0.2485 0.9179
C4_5 C 0.84847(16) 0.32539(17) 0.91889(10)
C5_5 C 0.81070(16) 0.27223(17) 0.87514(10)
C6_5 C 0.82923(17) 0.36660(19) 0.90186(11)
H2_5 H 0.8344 0.3989 0.9117
C7_5 C 0.80235(17) 0.36235(19) 0.87059(11)
C8_5 C 0.79266(17) 0.31378(18) 0.85775(11)
H3_5 H 0.7735 0.3096 0.8369
N1_5 N 0.77012(16) 0.47757(17) 0.82607(10)
N2_5 N 0.81442(15) 0.54881(17) 0.84658(11)
C9_5 C 0.7962(2) 0.4511(2) 0.84933(12)
C10_5 C 0.83960(19) 0.5192(2) 0.86838(12)
N3_5 N 0.83322(15) 0.46925(16) 0.87074(10)
C11_5 C 0.7820(2) 0.5261(2) 0.82490(12)
C12_5 C 0.89971(17) 0.67378(17) 0.88163(10)
C13_5 C 0.95180(17) 0.63896(17) 0.92638(10)
C14_5 C 0.99123(19) 0.64449(17) 0.95344(10)
C15_5 C 0.93481(16) 0.68004(17) 0.90816(10)
H4_5 H 0.9470 0.7126 0.9137
C16_5 C 0.93132(16) 0.59250(17) 0.91912(10)
H5_5 H 0.9429 0.5642 0.9320
C17_5 C 0.88130(18) 0.6287(2) 0.87446(12)
H6_5 H 0.8582 0.6254 0.8556
C18_5 C 0.89450(18) 0.5854(2) 0.89381(11)
C19_5 C 0.68550(16) 0.57953(16) 0.72312(10)
C20_5 C 0.73206(17) 0.49874(18) 0.75485(12)
H7_5 H 0.7485 0.4710 0.7654
C21_5 C 0.73390(18) 0.5460(2) 0.77085(11)
C22_5 C 0.71164(17) 0.58639(19) 0.75451(11)
H8_5 H 0.7141 0.6189 0.7646
C23_5 C 0.68257(16) 0.53362(16) 0.70760(10)
H9_5 H 0.6648 0.5291 0.6862
C24_5 C 0.66497(18) 0.62563(16) 0.70476(11)
C25_5 C 0.88307(18) 0.71875(17) 0.86071(11)
C26_5 C 0.70565(18) 0.44227(18) 0.70621(11)
C27_5 C 0.70686(16) 0.49259(17) 0.72428(10)
N4_5 N 0.78406(14) 0.40219(18) 0.85046(10)
H10_5 H 0.7601 0.3937 0.8358
N5_5 N 0.87589(14) 0.53662(17) 0.88945(10)
H11_5 H 0.8904 0.5138 0.9027
N6_5 N 0.75981(14) 0.55701(18) 0.80230(11)
H12_5 H 0.7615 0.5890 0.8077
O1_6 O 0.96250(18) 0.2139(2) 1.0000
O4_3 O 0.88585(11) 0.37518(12) 0.96285(7)
O5_5 O 0.89880(11) 0.29263(11) 0.96342(7)
O6_5 O 0.64446(11) 0.61757(11) 0.67484(7)
O7_5 O 0.67040(11) 0.66679(11) 0.71988(7)
O8_3 O 0.73279(11) 0.40852(11) 0.71828(7)
O9_3 O 0.67754(10) 0.43862(11) 0.67919(7)
O12_5 O 0.57556(17) 0.63566(15) 0.60817(8)
O13_5 O 0.70032(15) 0.77185(15) 0.73781(10)
Cu19_4 Cu 0.93347(3) 0.39183(3) 1.0000
O25_3 O 0.59148(11) 0.73279(11) 0.71828(7)
O28_3 O 0.56138(11) 0.67754(10) 0.67919(7)
O39_3 O 0.99991(11) 0.31087(12) 0.96378(7)
H29 H 0.973786 0.203087 0.976308
O1_7 O 0.03750(18) 0.7861(2) 0.0000
C28_6 C 0.11982(18) 0.66765(17) 0.04884(10)
C29_6 C 0.19632(18) 0.77844(17) 0.14073(10)
C30_6 C 0.16134(17) 0.72271(16) 0.09407(10)
H13_6 H 0.1491 0.7515 0.0821
C31_6 C 0.15153(16) 0.67461(17) 0.08111(10)
C32_6 C 0.18930(16) 0.72777(17) 0.12486(10)
C33_6 C 0.17077(17) 0.63340(19) 0.09814(11)
H14_6 H 0.1656 0.6011 0.0883
C34_6 C 0.19765(17) 0.63765(19) 0.12941(11)
C35_6 C 0.20734(17) 0.68622(18) 0.14225(11)
H15_6 H 0.2265 0.6904 0.1631
N7_6 N 0.22988(16) 0.52243(17) 0.17393(10)
N8_6 N 0.18558(15) 0.45119(17) 0.15342(11)
C36_6 C 0.2038(2) 0.5489(2) 0.15067(12)
C37_6 C 0.16040(19) 0.4808(2) 0.13162(12)
N9_6 N 0.16678(15) 0.53075(16) 0.12926(10)
C38_6 C 0.2180(2) 0.4739(2) 0.17510(12)
C39_6 C 0.10029(17) 0.32622(17) 0.11837(10)
C40_6 C 0.04820(17) 0.36104(17) 0.07362(10)
C41_6 C 0.00877(19) 0.35551(17) 0.04656(10)
C42_6 C 0.06519(16) 0.31996(17) 0.09184(10)
H16_6 H 0.0530 0.2874 0.0863
C43_6 C 0.06868(16) 0.40750(17) 0.08088(10)
H17_6 H 0.0571 0.4358 0.0680
C44_6 C 0.11870(18) 0.3713(2) 0.12554(12)
H18_6 H 0.1418 0.3746 0.1444
C45_6 C 0.10550(18) 0.4146(2) 0.10619(11)
C46_6 C 0.31450(16) 0.42047(16) 0.27688(10)
C47_6 C 0.26794(17) 0.50126(18) 0.24515(12)
H19_6 H 0.2515 0.5290 0.2346
C48_6 C 0.26610(18) 0.4540(2) 0.22915(11)
C49_6 C 0.28836(17) 0.41361(19) 0.24549(11)
H20_6 H 0.2859 0.3811 0.2354
C50_6 C 0.31743(16) 0.46638(16) 0.29240(10)
H21_6 H 0.3352 0.4709 0.3138
C51_6 C 0.33503(18) 0.37437(16) 0.29524(11)
C52_6 C 0.11693(18) 0.28125(17) 0.13929(11)
C53_6 C 0.29435(18) 0.55773(18) 0.29379(11)
C54_6 C 0.29314(16) 0.50741(17) 0.27572(10)
N10_6 N 0.21594(14) 0.59781(18) 0.14954(10)
H22_6 H 0.2399 0.6063 0.1642
N11_6 N 0.12411(14) 0.46338(17) 0.11055(10)
H23_6 H 0.1096 0.4862 0.0973
N12_6 N 0.24019(14) 0.44299(18) 0.19770(11)
H24_6 H 0.2385 0.4110 0.1923
O21_6 O 0.10120(11) 0.70737(11) 0.03658(7)
O22_6 O 0.35554(11) 0.38243(11) 0.32516(7)
O23_6 O 0.32960(11) 0.33321(11) 0.28012(7)
O24_4 O 0.26721(11) 0.59148(11) 0.28172(7)
O26_4 O 0.40852(11) 0.26721(11) 0.28172(7)
O27_4 O 0.32246(10) 0.56138(11) 0.32081(7)
O29_4 O 0.43862(11) 0.32246(10) 0.32081(7)
O36_6 O 0.42444(17) 0.36434(15) 0.39183(8)
O37_6 O 0.29968(15) 0.22815(15) 0.26219(10)
H30_2 H 0.0113747 0.794617 0.0176138
C1_6 C 0.11982(18) 0.66765(17) 0.95116(10)
C2_6 C 0.19632(18) 0.77844(17) 0.85927(10)
C3_6 C 0.16134(17) 0.72271(16) 0.90593(10)
H1_6 H 0.1491 0.7515 0.9179
C4_6 C 0.15153(16) 0.67461(17) 0.91889(10)
C5_6 C 0.18930(16) 0.72777(17) 0.87514(10)
C6_6 C 0.17077(17) 0.63340(19) 0.90186(11)
H2_6 H 0.1656 0.6011 0.9117
C7_6 C 0.19765(17) 0.63765(19) 0.87059(11)
C8_6 C 0.20734(17) 0.68622(18) 0.85775(11)
H3_6 H 0.2265 0.6904 0.8369
N1_6 N 0.22988(16) 0.52243(17) 0.82607(10)
N2_6 N 0.18558(15) 0.45119(17) 0.84658(11)
C9_6 C 0.2038(2) 0.5489(2) 0.84933(12)
C10_6 C 0.16040(19) 0.4808(2) 0.86838(12)
N3_6 N 0.16678(15) 0.53075(16) 0.87074(10)
C11_6 C 0.2180(2) 0.4739(2) 0.82490(12)
C12_6 C 0.10029(17) 0.32622(17) 0.88163(10)
C13_6 C 0.04820(17) 0.36104(17) 0.92638(10)
C14_6 C 0.00877(19) 0.35551(17) 0.95344(10)
C15_6 C 0.06519(16) 0.31996(17) 0.90816(10)
H4_6 H 0.0530 0.2874 0.9137
C16_6 C 0.06868(16) 0.40750(17) 0.91912(10)
H5_6 H 0.0571 0.4358 0.9320
C17_6 C 0.11870(18) 0.3713(2) 0.87446(12)
H6_6 H 0.1418 0.3746 0.8556
C18_6 C 0.10550(18) 0.4146(2) 0.89381(11)
C19_6 C 0.31450(16) 0.42047(16) 0.72312(10)
C20_6 C 0.26794(17) 0.50126(18) 0.75485(12)
H7_6 H 0.2515 0.5290 0.7654
C21_6 C 0.26610(18) 0.4540(2) 0.77085(11)
C22_6 C 0.28836(17) 0.41361(19) 0.75451(11)
H8_6 H 0.2859 0.3811 0.7646
C23_6 C 0.31743(16) 0.46638(16) 0.70760(10)
H9_6 H 0.3352 0.4709 0.6862
C24_6 C 0.33503(18) 0.37437(16) 0.70476(11)
C25_6 C 0.11693(18) 0.28125(17) 0.86071(11)
C26_6 C 0.29435(18) 0.55773(18) 0.70621(11)
C27_6 C 0.29314(16) 0.50741(17) 0.72428(10)
N4_6 N 0.21594(14) 0.59781(18) 0.85046(10)
H10_6 H 0.2399 0.6063 0.8358
N5_6 N 0.12411(14) 0.46338(17) 0.88945(10)
H11_6 H 0.1096 0.4862 0.9027
N6_6 N 0.24019(14) 0.44299(18) 0.80230(11)
H12_6 H 0.2385 0.4110 0.8077
O1_8 O 0.03750(18) 0.7861(2) 1.0000
O5_6 O 0.10120(11) 0.70737(11) 0.96342(7)
O6_6 O 0.35554(11) 0.38243(11) 0.67484(7)
O7_6 O 0.32960(11) 0.33321(11) 0.71988(7)
O8_4 O 0.26721(11) 0.59148(11) 0.71828(7)
O9_4 O 0.32246(10) 0.56138(11) 0.67919(7)
O12_6 O 0.42444(17) 0.36434(15) 0.60817(8)
O13_6 O 0.29968(15) 0.22815(15) 0.73781(10)
O25_4 O 0.40852(11) 0.26721(11) 0.71828(7)
O28_4 O 0.43862(11) 0.32246(10) 0.67919(7)
H29_2 H 0.0262142 0.796913 0.976308
O2_7 O 0.91700(19) 0.4702(2) 0.0000
O17_6 O 0.98631(11) 0.39379(12) 0.03611(7)
H32_2 H 0.890014 0.477211 0.0172998
O2_8 O 0.91700(19) 0.4702(2) 1.0000
O3_6 O 0.98631(11) 0.39379(12) 0.96389(7)
H31_2 H 0.905751 0.480518 0.976192
Cu3_5 Cu 0.39183(3) 0.06653(3) 0.0000
O2_9 O 0.4702(2) 0.08300(19) 0.0000
Cu20_5 Cu 0.29457(3) 0.04998(3) 0.0000
O17_7 O 0.39379(12) 0.01369(11) 0.03611(7)
O20_4 O 0.37518(12) 0.11415(11) 0.03715(7)
O38_4 O 0.31087(12) 0.00009(11) 0.03622(7)
H32_3 H 0.477211 0.109986 0.0172998
Cu3_6 Cu 0.39183(3) 0.06653(3) 1.0000
O2_10 O 0.4702(2) 0.08300(19) 1.0000
O3_7 O 0.39379(12) 0.01369(11) 0.96389(7)
O14_4 O 0.31087(12) 0.00009(11) 0.96378(7)
Cu20_6 Cu 0.29457(3) 0.04998(3) 1.0000
O19_4 O 0.37518(12) 0.11415(11) 0.96285(7)
H31_3 H 0.480518 0.0942492 0.976192
Cu4_5 Cu 0.70543(3) 0.95002(3) 0.0000
O1_9 O 0.7861(2) 0.96250(18) 0.0000
Cu19_5 Cu 0.60817(3) 0.93347(3) 0.0000
C28_7 C 0.66765(17) 0.88018(18) 0.04884(10)
C29_7 C 0.77844(17) 0.80368(18) 0.14073(10)
C30_7 C 0.72271(16) 0.83866(17) 0.09407(10)
H13_7 H 0.7515 0.8509 0.0821
C31_7 C 0.67461(17) 0.84847(16) 0.08111(10)
C32_7 C 0.72777(17) 0.81070(16) 0.12486(10)
C33_7 C 0.63340(19) 0.82923(17) 0.09814(11)
H14_7 H 0.6011 0.8344 0.0883
C34_7 C 0.63765(19) 0.80235(17) 0.12941(11)
C35_7 C 0.68622(18) 0.79266(17) 0.14225(11)
H15_7 H 0.6904 0.7735 0.1631
N7_7 N 0.52243(17) 0.77012(16) 0.17393(10)
N8_7 N 0.45119(17) 0.81442(15) 0.15342(11)
C36_7 C 0.5489(2) 0.7962(2) 0.15067(12)
C37_7 C 0.4808(2) 0.83960(19) 0.13162(12)
N9_7 N 0.53075(16) 0.83322(15) 0.12926(10)
C38_7 C 0.4739(2) 0.7820(2) 0.17510(12)
C39_7 C 0.32622(17) 0.89971(17) 0.11837(10)
C40_7 C 0.36104(17) 0.95180(17) 0.07362(10)
C41_7 C 0.35551(17) 0.99123(19) 0.04656(10)
C42_7 C 0.31996(17) 0.93481(16) 0.09184(10)
H16_7 H 0.2874 0.9470 0.0863
C43_7 C 0.40750(17) 0.93132(16) 0.08088(10)
H17_7 H 0.4358 0.9429 0.0680
C44_7 C 0.3713(2) 0.88130(18) 0.12554(12)
H18_7 H 0.3746 0.8582 0.1444
C45_7 C 0.4146(2) 0.89450(18) 0.10619(11)
C46_7 C 0.42047(16) 0.68550(16) 0.27688(10)
C47_7 C 0.50126(18) 0.73206(17) 0.24515(12)
H19_7 H 0.5290 0.7485 0.2346
C48_7 C 0.4540(2) 0.73390(18) 0.22915(11)
C49_7 C 0.41361(19) 0.71164(17) 0.24549(11)
H20_7 H 0.3811 0.7141 0.2354
C50_7 C 0.46638(16) 0.68257(16) 0.29240(10)
H21_7 H 0.4709 0.6648 0.3138
C51_7 C 0.37437(16) 0.66497(18) 0.29524(11)
C52_7 C 0.28125(17) 0.88307(18) 0.13929(11)
C53_7 C 0.55773(18) 0.70565(18) 0.29379(11)
C54_7 C 0.50741(17) 0.70686(16) 0.27572(10)
N10_7 N 0.59781(18) 0.78406(14) 0.14954(10)
H22_7 H 0.6063 0.7601 0.1642
N11_7 N 0.46338(17) 0.87589(14) 0.11055(10)
H23_7 H 0.4862 0.8904 0.0973
N12_7 N 0.44299(18) 0.75981(14) 0.19770(11)
H24_7 H 0.4110 0.7615 0.1923
O18_4 O 0.62482(12) 0.88585(11) 0.03715(7)
O21_7 O 0.70737(11) 0.89880(11) 0.03658(7)
O22_7 O 0.38243(11) 0.64446(11) 0.32516(7)
O23_7 O 0.33321(11) 0.67040(11) 0.28012(7)
O36_7 O 0.36434(15) 0.57556(17) 0.39183(8)
O37_7 O 0.22815(15) 0.70032(15) 0.26219(10)
O40_4 O 0.68913(12) 0.99991(11) 0.03622(7)
H30_3 H 0.794617 0.988625 0.0176138
Cu4_6 Cu 0.70543(3) 0.95002(3) 1.0000
C1_7 C 0.66765(17) 0.88018(18) 0.95116(10)
C2_7 C 0.77844(17) 0.80368(18) 0.85927(10)
C3_7 C 0.72271(16) 0.83866(17) 0.90593(10)
H1_7 H 0.7515 0.8509 0.9179
C4_7 C 0.67461(17) 0.84847(16) 0.91889(10)
C5_7 C 0.72777(17) 0.81070(16) 0.87514(10)
C6_7 C 0.63340(19) 0.82923(17) 0.90186(11)
H2_7 H 0.6011 0.8344 0.9117
C7_7 C 0.63765(19) 0.80235(17) 0.87059(11)
C8_7 C 0.68622(18) 0.79266(17) 0.85775(11)
H3_7 H 0.6904 0.7735 0.8369
N1_7 N 0.52243(17) 0.77012(16) 0.82607(10)
N2_7 N 0.45119(17) 0.81442(15) 0.84658(11)
C9_7 C 0.5489(2) 0.7962(2) 0.84933(12)
C10_7 C 0.4808(2) 0.83960(19) 0.86838(12)
N3_7 N 0.53075(16) 0.83322(15) 0.87074(10)
C11_7 C 0.4739(2) 0.7820(2) 0.82490(12)
C12_7 C 0.32622(17) 0.89971(17) 0.88163(10)
C13_7 C 0.36104(17) 0.95180(17) 0.92638(10)
C14_7 C 0.35551(17) 0.99123(19) 0.95344(10)
C15_7 C 0.31996(17) 0.93481(16) 0.90816(10)
H4_7 H 0.2874 0.9470 0.9137
C16_7 C 0.40750(17) 0.93132(16) 0.91912(10)
H5_7 H 0.4358 0.9429 0.9320
C17_7 C 0.3713(2) 0.88130(18) 0.87446(12)
H6_7 H 0.3746 0.8582 0.8556
C18_7 C 0.4146(2) 0.89450(18) 0.89381(11)
C19_7 C 0.42047(16) 0.68550(16) 0.72312(10)
C20_7 C 0.50126(18) 0.73206(17) 0.75485(12)
H7_7 H 0.5290 0.7485 0.7654
C21_7 C 0.4540(2) 0.73390(18) 0.77085(11)
C22_7 C 0.41361(19) 0.71164(17) 0.75451(11)
H8_7 H 0.3811 0.7141 0.7646
C23_7 C 0.46638(16) 0.68257(16) 0.70760(10)
H9_7 H 0.4709 0.6648 0.6862
C24_7 C 0.37437(16) 0.66497(18) 0.70476(11)
C25_7 C 0.28125(17) 0.88307(18) 0.86071(11)
C26_7 C 0.55773(18) 0.70565(18) 0.70621(11)
C27_7 C 0.50741(17) 0.70686(16) 0.72428(10)
N4_7 N 0.59781(18) 0.78406(14) 0.85046(10)
H10_7 H 0.6063 0.7601 0.8358
N5_7 N 0.46338(17) 0.87589(14) 0.88945(10)
H11_7 H 0.4862 0.8904 0.9027
N6_7 N 0.44299(18) 0.75981(14) 0.80230(11)
H12_7 H 0.4110 0.7615 0.8077
O1_10 O 0.7861(2) 0.96250(18) 1.0000
O4_4 O 0.62482(12) 0.88585(11) 0.96285(7)
O5_7 O 0.70737(11) 0.89880(11) 0.96342(7)
O6_7 O 0.38243(11) 0.64446(11) 0.67484(7)
O7_7 O 0.33321(11) 0.67040(11) 0.71988(7)
O12_7 O 0.36434(15) 0.57556(17) 0.60817(8)
O13_7 O 0.22815(15) 0.70032(15) 0.73781(10)
Cu19_6 Cu 0.60817(3) 0.93347(3) 1.0000
O39_4 O 0.68913(12) 0.99991(11) 0.96378(7)
H29_3 H 0.796913 0.973786 0.976308
O1_11 O 0.2139(2) 0.03750(18) 0.0000
C28_8 C 0.33235(17) 0.11982(18) 0.04884(10)
C29_8 C 0.22156(17) 0.19632(18) 0.14073(10)
C30_8 C 0.27729(16) 0.16134(17) 0.09407(10)
H13_8 H 0.2485 0.1491 0.0821
C31_8 C 0.32539(17) 0.15153(16) 0.08111(10)
C32_8 C 0.27223(17) 0.18930(16) 0.12486(10)
C33_8 C 0.36660(19) 0.17077(17) 0.09814(11)
H14_8 H 0.3989 0.1656 0.0883
C34_8 C 0.36235(19) 0.19765(17) 0.12941(11)
C35_8 C 0.31378(18) 0.20734(17) 0.14225(11)
H15_8 H 0.3096 0.2265 0.1631
N7_8 N 0.47757(17) 0.22988(16) 0.17393(10)
N8_8 N 0.54881(17) 0.18558(15) 0.15342(11)
C36_8 C 0.4511(2) 0.2038(2) 0.15067(12)
C37_8 C 0.5192(2) 0.16040(19) 0.13162(12)
N9_8 N 0.46925(16) 0.16678(15) 0.12926(10)
C38_8 C 0.5261(2) 0.2180(2) 0.17510(12)
C39_8 C 0.67378(17) 0.10029(17) 0.11837(10)
C40_8 C 0.63896(17) 0.04820(17) 0.07362(10)
C41_8 C 0.64449(17) 0.00877(19) 0.04656(10)
C42_8 C 0.68004(17) 0.06519(16) 0.09184(10)
H16_8 H 0.7126 0.0530 0.0863
C43_8 C 0.59250(17) 0.06868(16) 0.08088(10)
H17_8 H 0.5642 0.0571 0.0680
C44_8 C 0.6287(2) 0.11870(18) 0.12554(12)
H18_8 H 0.6254 0.1418 0.1444
C45_8 C 0.5854(2) 0.10550(18) 0.10619(11)
C46_8 C 0.57953(16) 0.31450(16) 0.27688(10)
C47_8 C 0.49874(18) 0.26794(17) 0.24515(12)
H19_8 H 0.4710 0.2515 0.2346
C48_8 C 0.5460(2) 0.26610(18) 0.22915(11)
C49_8 C 0.58639(19) 0.28836(17) 0.24549(11)
H20_8 H 0.6189 0.2859 0.2354
C50_8 C 0.53362(16) 0.31743(16) 0.29240(10)
H21_8 H 0.5291 0.3352 0.3138
C51_8 C 0.62563(16) 0.33503(18) 0.29524(11)
C52_8 C 0.71875(17) 0.11693(18) 0.13929(11)
C53_8 C 0.44227(18) 0.29435(18) 0.29379(11)
C54_8 C 0.49259(17) 0.29314(16) 0.27572(10)
N10_8 N 0.40219(18) 0.21594(14) 0.14954(10)
H22_8 H 0.3937 0.2399 0.1642
N11_8 N 0.53662(17) 0.12411(14) 0.11055(10)
H23_8 H 0.5138 0.1096 0.0973
N12_8 N 0.55701(18) 0.24019(14) 0.19770(11)
H24_8 H 0.5890 0.2385 0.1923
O21_8 O 0.29263(11) 0.10120(11) 0.03658(7)
O22_8 O 0.61757(11) 0.35554(11) 0.32516(7)
O23_8 O 0.66679(11) 0.32960(11) 0.28012(7)
O36_8 O 0.63566(15) 0.42444(17) 0.39183(8)
O37_8 O 0.77185(15) 0.29968(15) 0.26219(10)
H30_4 H 0.205383 0.0113747 0.0176138
C1_8 C 0.33235(17) 0.11982(18) 0.95116(10)
C2_8 C 0.22156(17) 0.19632(18) 0.85927(10)
C3_8 C 0.27729(16) 0.16134(17) 0.90593(10)
H1_8 H 0.2485 0.1491 0.9179
C4_8 C 0.32539(17) 0.15153(16) 0.91889(10)
C5_8 C 0.27223(17) 0.18930(16) 0.87514(10)
C6_8 C 0.36660(19) 0.17077(17) 0.90186(11)
H2_8 H 0.3989 0.1656 0.9117
C7_8 C 0.36235(19) 0.19765(17) 0.87059(11)
C8_8 C 0.31378(18) 0.20734(17) 0.85775(11)
H3_8 H 0.3096 0.2265 0.8369
N1_8 N 0.47757(17) 0.22988(16) 0.82607(10)
N2_8 N 0.54881(17) 0.18558(15) 0.84658(11)
C9_8 C 0.4511(2) 0.2038(2) 0.84933(12)
C10_8 C 0.5192(2) 0.16040(19) 0.86838(12)
N3_8 N 0.46925(16) 0.16678(15) 0.87074(10)
C11_8 C 0.5261(2) 0.2180(2) 0.82490(12)
C12_8 C 0.67378(17) 0.10029(17) 0.88163(10)
C13_8 C 0.63896(17) 0.04820(17) 0.92638(10)
C14_8 C 0.64449(17) 0.00877(19) 0.95344(10)
C15_8 C 0.68004(17) 0.06519(16) 0.90816(10)
H4_8 H 0.7126 0.0530 0.9137
C16_8 C 0.59250(17) 0.06868(16) 0.91912(10)
H5_8 H 0.5642 0.0571 0.9320
C17_8 C 0.6287(2) 0.11870(18) 0.87446(12)
H6_8 H 0.6254 0.1418 0.8556
C18_8 C 0.5854(2) 0.10550(18) 0.89381(11)
C19_8 C 0.57953(16) 0.31450(16) 0.72312(10)
C20_8 C 0.49874(18) 0.26794(17) 0.75485(12)
H7_8 H 0.4710 0.2515 0.7654
C21_8 C 0.5460(2) 0.26610(18) 0.77085(11)
C22_8 C 0.58639(19) 0.28836(17) 0.75451(11)
H8_8 H 0.6189 0.2859 0.7646
C23_8 C 0.53362(16) 0.31743(16) 0.70760(10)
H9_8 H 0.5291 0.3352 0.6862
C24_8 C 0.62563(16) 0.33503(18) 0.70476(11)
C25_8 C 0.71875(17) 0.11693(18) 0.86071(11)
C26_8 C 0.44227(18) 0.29435(18) 0.70621(11)
C27_8 C 0.49259(17) 0.29314(16) 0.72428(10)
N4_8 N 0.40219(18) 0.21594(14) 0.85046(10)
H10_8 H 0.3937 0.2399 0.8358
N5_8 N 0.53662(17) 0.12411(14) 0.88945(10)
H11_8 H 0.5138 0.1096 0.9027
N6_8 N 0.55701(18) 0.24019(14) 0.80230(11)
H12_8 H 0.5890 0.2385 0.8077
O1_12 O 0.2139(2) 0.03750(18) 1.0000
O5_8 O 0.29263(11) 0.10120(11) 0.96342(7)
O6_8 O 0.61757(11) 0.35554(11) 0.67484(7)
O7_8 O 0.66679(11) 0.32960(11) 0.71988(7)
O12_8 O 0.63566(15) 0.42444(17) 0.60817(8)
O13_8 O 0.77185(15) 0.29968(15) 0.73781(10)
H29_4 H 0.203087 0.0262142 0.976308
O2_11 O 0.5298(2) 0.91700(19) 0.0000
O17_8 O 0.60621(12) 0.98631(11) 0.03611(7)
H32_4 H 0.522789 0.890014 0.0172998
O2_12 O 0.5298(2) 0.91700(19) 1.0000
O3_8 O 0.60621(12) 0.98631(11) 0.96389(7)
H31_4 H 0.519482 0.905751 0.976192
H29_5 H 0.0262142 0.796913 0.0236918
H30_5 H 0.0113747 0.794617 0.982386
H31_5 H 0.905751 0.480518 0.0238085
H32_5 H 0.890014 0.477211 0.9827
H31_6 H 0.0942492 0.519482 0.0238085
H32_6 H 0.109986 0.522789 0.9827
H29_6 H 0.973786 0.203087 0.0236918
H30_6 H 0.988625 0.205383 0.982386
H29_7 H 0.203087 0.0262142 0.0236918
H30_7 H 0.205383 0.0113747 0.982386
H31_7 H 0.519482 0.905751 0.0238085
H32_7 H 0.522789 0.890014 0.9827
H31_8 H 0.480518 0.0942492 0.0238085
H32_8 H 0.477211 0.109986 0.9827
H29_8 H 0.796913 0.973786 0.0236918
H30_8 H 0.794617 0.988625 0.982386
loop_
_geom_bond_atom_site_label_1
_geom_bond_atom_site_label_2
_geom_bond_site_symmetry_1
_geom_bond_site_symmetry_2
Cu1 O7 1_555 1_555
Cu2 O6 1_555 1_555
Cu3 O2 1_555 1_555
N2 C10 1_555 1_555
C12 C15 1_555 1_555
C13 C14 1_555 1_555
C14 O3 1_555 1_555
C15 C13 1_555 1_555
H4 C15 1_555 1_555
C16 C13 1_555 1_555
H5 C16 1_555 1_555
C17 C12 1_555 1_555
H6 C17 1_555 1_555
C18 C16 1_555 1_555
C19 C22 1_555 1_555
C22 C21 1_555 1_555
H8 C22 1_555 1_555
C23 C19 1_555 1_555
H9 C23 1_555 1_555
C24 C19 1_555 1_555
C25 C12 1_555 1_555
N5 C10 1_555 1_555
H11 N5 1_555 1_555
N6 C11 1_555 1_555
H12 N6 1_555 1_555
O3 Cu3 1_555 1_555
O6 C24 1_555 1_555
O7 C24 1_555 1_555
O10 C25 1_555 1_555
O11 C25 1_555 1_555
O12 Cu2 1_555 1_555
O13 Cu1 1_555 1_555
O14 C14 1_555 1_555
Cu5 O23 1_555 1_555
Cu7 O11 1_555 1_555
Cu10 O33 1_555 1_555
Cu12 O22 1_555 1_555
Cu14 O10 1_555 1_555
Cu17 O30 1_555 1_555
Cu20 O14 1_555 1_555
N8 C37 1_555 1_555
C39 C42 1_555 1_555
C40 C41 1_555 1_555
C41 O17 1_555 1_555
C42 C40 1_555 1_555
H16 C42 1_555 1_555
C43 C40 1_555 1_555
H17 C43 1_555 1_555
C44 C39 1_555 1_555
H18 C44 1_555 1_555
C45 C43 1_555 1_555
C46 C49 1_555 1_555
C49 C48 1_555 1_555
H20 C49 1_555 1_555
C50 C46 1_555 1_555
H21 C50 1_555 1_555
C51 C46 1_555 1_555
C52 C39 1_555 1_555
N11 C37 1_555 1_555
H23 N11 1_555 1_555
N12 C38 1_555 1_555
H24 N12 1_555 1_555
O17 Cu3 1_555 1_555
O19 Cu3 1_555 1_555
O20 Cu3 1_555 1_555
O22 C51 1_555 1_555
O23 C51 1_555 1_555
O25 Cu1 1_555 1_555
O26 Cu5 1_555 1_555
O28 Cu2 1_555 1_555
O29 Cu12 1_555 1_555
O30 C52 1_555 1_555
O31 Cu2 1_555 1_555
O32 Cu12 1_555 1_555
O33 C52 1_555 1_555
O34 Cu1 1_555 1_555
O35 Cu5 1_555 1_555
O36 Cu12 1_555 1_555
O37 Cu5 1_555 1_555
O38 Cu20 1_555 1_555
O42 Cu1 1_555 1_555
O43 Cu5 1_555 1_555
O45 Cu2 1_555 1_555
O46 Cu12 1_555 1_555
N2 C11 1_555 1_555
C17 C18 1_555 1_555
C18 N5 1_555 1_555
C21 N6 1_555 1_555
N8 C38 1_555 1_555
C41 O38 1_555 1_555
C44 C45 1_555 1_555
C45 N11 1_555 1_555
C48 N12 1_555 1_555
Cu4 O1 1_555 1_555
C1 C4 1_555 1_555
C2 C5 1_555 1_555
C3 H1 1_555 1_555
C4 C3 1_555 1_555
C5 C3 1_555 1_555
C6 C4 1_555 1_555
H2 C6 1_555 1_555
C7 C6 1_555 1_555
C8 C5 1_555 1_555
H3 C8 1_555 1_555
N1 C9 1_555 1_555
C9 N3 1_555 1_555
C20 H7 1_555 1_555
C26 C27 1_555 1_555
C27 C20 1_555 1_555
N4 C7 1_555 1_555
H10 N4 1_555 1_555
O4 C1 1_555 1_555
O5 Cu4 1_555 1_555
O8 C26 1_555 1_555
O9 C26 1_555 1_555
O15 C2 1_555 1_555
O16 C2 1_555 1_555
Cu6 O8 1_555 1_555
Cu8 O15 1_555 1_555
Cu9 O24 1_555 1_555
Cu11 O41 1_555 1_555
Cu13 O9 1_555 1_555
Cu15 O16 1_555 1_555
Cu16 O27 1_555 1_555
Cu18 O44 1_555 1_555
Cu19 O4 1_555 1_555
C28 C31 1_555 1_555
C29 C32 1_555 1_555
C30 H13 1_555 1_555
C31 C30 1_555 1_555
C32 C30 1_555 1_555
C33 C31 1_555 1_555
H14 C33 1_555 1_555
C34 C33 1_555 1_555
C35 C32 1_555 1_555
H15 C35 1_555 1_555
N7 C36 1_555 1_555
C36 N9 1_555 1_555
C47 H19 1_555 1_555
C53 C54 1_555 1_555
C54 C47 1_555 1_555
N10 C34 1_555 1_555
H22 N10 1_555 1_555
O18 Cu19 1_555 1_555
O21 Cu4 1_555 1_555
O24 C53 1_555 1_555
O27 C53 1_555 1_555
O39 Cu4 1_555 1_555
O40 Cu4 1_555 1_555
O41 C29 1_555 1_555
O44 C29 1_555 1_555
C1 O5 1_555 1_555
C7 C8 1_555 1_555
C9 N4 1_555 1_555
C28 O18 1_555 1_555
C28 O21 1_555 1_555
C34 C35 1_555 1_555
C36 N10 1_555 1_555
Cu20 O1_2 1_555 1_555
C1_2 C4_2 1_555 1_555
C2_2 C5_2 1_555 1_555
C3_2 H1_2 1_555 1_555
C4_2 C3_2 1_555 1_555
C5_2 C3_2 1_555 1_555
C6_2 C4_2 1_555 1_555
H2_2 C6_2 1_555 1_555
C7_2 C6_2 1_555 1_555
C8_2 C5_2 1_555 1_555
H3_2 C8_2 1_555 1_555
N1_2 C9_2 1_555 1_555
C9_2 N3_2 1_555 1_555
C20_2 H7_2 1_555 1_555
C26_2 C27_2 1_555 1_555
C27_2 C20_2 1_555 1_555
N4_2 C7_2 1_555 1_555
H10_2 N4_2 1_555 1_555
O19 C1_2 1_555 1_555
O5_2 Cu20 1_555 1_555
O8_2 C26_2 1_555 1_555
O9_2 C26_2 1_555 1_555
O15_2 C2_2 1_555 1_555
O16_2 C2_2 1_555 1_555
Cu6_2 O8_2 1_555 1_555
Cu8_2 O15_2 1_555 1_555
Cu9_2 O24_2 1_555 1_555
Cu11_2 O41_2 1_555 1_555
Cu13_2 O9_2 1_555 1_555
Cu15_2 O16_2 1_555 1_555
Cu16_2 O27_2 1_555 1_555
Cu18_2 O44_2 1_555 1_555
C28_2 C31_2 1_555 1_555
C29_2 C32_2 1_555 1_555
C30_2 H13_2 1_555 1_555
C31_2 C30_2 1_555 1_555
C32_2 C30_2 1_555 1_555
C33_2 C31_2 1_555 1_555
H14_2 C33_2 1_555 1_555
C34_2 C33_2 1_555 1_555
C35_2 C32_2 1_555 1_555
H15_2 C35_2 1_555 1_555
N7_2 C36_2 1_555 1_555
C36_2 N9_2 1_555 1_555
C47_2 H19_2 1_555 1_555
C53_2 C54_2 1_555 1_555
C54_2 C47_2 1_555 1_555
N10_2 C34_2 1_555 1_555
H22_2 N10_2 1_555 1_555
O21_2 Cu20 1_555 1_555
O24_2 C53_2 1_555 1_555
O27_2 C53_2 1_555 1_555
O41_2 C29_2 1_555 1_555
O44_2 C29_2 1_555 1_555
C1_2 O5_2 1_555 1_555
C7_2 C8_2 1_555 1_555
C9_2 N4_2 1_555 1_555
C28_2 O20 1_555 1_555
C28_2 O21_2 1_555 1_555
C34_2 C35_2 1_555 1_555
C36_2 N10_2 1_555 1_555
Cu1_2 O7_2 1_555 1_555
Cu2_2 O6_2 1_555 1_555
Cu19 O2_2 1_555 1_555
N2_2 C10_2 1_555 1_555
C12_2 C15_2 1_555 1_555
C13_2 C14_2 1_555 1_555
C14_2 O3_2 1_555 1_555
C15_2 C13_2 1_555 1_555
H4_2 C15_2 1_555 1_555
C16_2 C13_2 1_555 1_555
H5_2 C16_2 1_555 1_555
C17_2 C12_2 1_555 1_555
H6_2 C17_2 1_555 1_555
C18_2 C16_2 1_555 1_555
C19_2 C22_2 1_555 1_555
C22_2 C21_2 1_555 1_555
H8_2 C22_2 1_555 1_555
C23_2 C19_2 1_555 1_555
H9_2 C23_2 1_555 1_555
C24_2 C19_2 1_555 1_555
C25_2 C12_2 1_555 1_555
N5_2 C10_2 1_555 1_555
H11_2 N5_2 1_555 1_555
N6_2 C11_2 1_555 1_555
H12_2 N6_2 1_555 1_555
O3_2 Cu19 1_555 1_555
O6_2 C24_2 1_555 1_555
O7_2 C24_2 1_555 1_555
O10_2 C25_2 1_555 1_555
O11_2 C25_2 1_555 1_555
O12_2 Cu2_2 1_555 1_555
O13_2 Cu1_2 1_555 1_555
O39 C14_2 1_555 1_555
Cu5_2 O23_2 1_555 1_555
Cu7_2 O11_2 1_555 1_555
Cu10_2 O33_2 1_555 1_555
Cu12_2 O22_2 1_555 1_555
Cu14_2 O10_2 1_555 1_555
Cu17_2 O30_2 1_555 1_555
N8_2 C37_2 1_555 1_555
C39_2 C42_2 1_555 1_555
C40_2 C41_2 1_555 1_555
C41_2 O17_2 1_555 1_555
C42_2 C40_2 1_555 1_555
H16_2 C42_2 1_555 1_555
C43_2 C40_2 1_555 1_555
H17_2 C43_2 1_555 1_555
C44_2 C39_2 1_555 1_555
H18_2 C44_2 1_555 1_555
C45_2 C43_2 1_555 1_555
C46_2 C49_2 1_555 1_555
C49_2 C48_2 1_555 1_555
H20_2 C49_2 1_555 1_555
C50_2 C46_2 1_555 1_555
H21_2 C50_2 1_555 1_555
C51_2 C46_2 1_555 1_555
C52_2 C39_2 1_555 1_555
N11_2 C37_2 1_555 1_555
H23_2 N11_2 1_555 1_555
N12_2 C38_2 1_555 1_555
H24_2 N12_2 1_555 1_555
O17_2 Cu19 1_555 1_555
O22_2 C51_2 1_555 1_555
O23_2 C51_2 1_555 1_555
O25_2 Cu1_2 1_555 1_555
O26_2 Cu5_2 1_555 1_555
O28_2 Cu2_2 1_555 1_555
O29_2 Cu12_2 1_555 1_555
O30_2 C52_2 1_555 1_555
O31_2 Cu2_2 1_555 1_555
O32_2 Cu12_2 1_555 1_555
O33_2 C52_2 1_555 1_555
O34_2 Cu1_2 1_555 1_555
O35_2 Cu5_2 1_555 1_555
O36_2 Cu12_2 1_555 1_555
O37_2 Cu5_2 1_555 1_555
O42_2 Cu1_2 1_555 1_555
O43_2 Cu5_2 1_555 1_555
O45_2 Cu2_2 1_555 1_555
O46_2 Cu12_2 1_555 1_555
N2_2 C11_2 1_555 1_555
C17_2 C18_2 1_555 1_555
C18_2 N5_2 1_555 1_555
C21_2 N6_2 1_555 1_555
N8_2 C38_2 1_555 1_555
C41_2 O40 1_555 1_555
C44_2 C45_2 1_555 1_555
C45_2 N11_2 1_555 1_555
C48_2 N12_2 1_555 1_555
Cu4_2 O1_3 1_555 1_555
C1_3 C4_3 1_555 1_555
C2_3 C5_3 1_555 1_555
C3_3 H1_3 1_555 1_555
C4_3 C3_3 1_555 1_555
C5_3 C3_3 1_555 1_555
C6_3 C4_3 1_555 1_555
H2_3 C6_3 1_555 1_555
C7_3 C6_3 1_555 1_555
C8_3 C5_3 1_555 1_555
H3_3 C8_3 1_555 1_555
N1_3 C9_3 1_555 1_555
C9_3 N3_3 1_555 1_555
C20_3 H7_3 1_555 1_555
C26_3 C27_3 1_555 1_555
C27_3 C20_3 1_555 1_555
N4_3 C7_3 1_555 1_555
H10_3 N4_3 1_555 1_555
O4_2 C1_3 1_555 1_555
O5_3 Cu4_2 1_555 1_555
O25 C26_3 1_555 1_555
O28 C26_3 1_555 1_555
O15_3 C2_3 1_555 1_555
O16_3 C2_3 1_555 1_555
Cu7 O15_3 1_555 1_555
Cu10 O41_3 1_555 1_555
Cu14 O16_3 1_555 1_555
Cu17 O44_3 1_555 1_555
Cu19_2 O4_2 1_555 1_555
C28_3 C31_3 1_555 1_555
C29_3 C32_3 1_555 1_555
C30_3 H13_3 1_555 1_555
C31_3 C30_3 1_555 1_555
C32_3 C30_3 1_555 1_555
C33_3 C31_3 1_555 1_555
H14_3 C33_3 1_555 1_555
C34_3 C33_3 1_555 1_555
C35_3 C32_3 1_555 1_555
H15_3 C35_3 1_555 1_555
N7_3 C36_3 1_555 1_555
C36_3 N9_3 1_555 1_555
C47_3 H19_3 1_555 1_555
C53_3 C54_3 1_555 1_555
C54_3 C47_3 1_555 1_555
N10_3 C34_3 1_555 1_555
H22_3 N10_3 1_555 1_555
O18_2 Cu19_2 1_555 1_555
O21_3 Cu4_2 1_555 1_555
O26 C53_3 1_555 1_555
O29 C53_3 1_555 1_555
O39_2 Cu4_2 1_555 1_555
O40_2 Cu4_2 1_555 1_555
O41_3 C29_3 1_555 1_555
O44_3 C29_3 1_555 1_555
C1_3 O5_3 1_555 1_555
C7_3 C8_3 1_555 1_555
C9_3 N4_3 1_555 1_555
C28_3 O18_2 1_555 1_555
C28_3 O21_3 1_555 1_555
C34_3 C35_3 1_555 1_555
C36_3 N10_3 1_555 1_555
Cu6_2 O7_3 1_555 1_555
Cu13_2 O6_3 1_555 1_555
Cu3_2 O2_3 1_555 1_555
N2_3 C10_3 1_555 1_555
C12_3 C15_3 1_555 1_555
C13_3 C14_3 1_555 1_555
C14_3 O3_3 1_555 1_555
C15_3 C13_3 1_555 1_555
H4_3 C15_3 1_555 1_555
C16_3 C13_3 1_555 1_555
H5_3 C16_3 1_555 1_555
C17_3 C12_3 1_555 1_555
H6_3 C17_3 1_555 1_555
C18_3 C16_3 1_555 1_555
C19_3 C22_3 1_555 1_555
C22_3 C21_3 1_555 1_555
H8_3 C22_3 1_555 1_555
C23_3 C19_3 1_555 1_555
H9_3 C23_3 1_555 1_555
C24_3 C19_3 1_555 1_555
C25_3 C12_3 1_555 1_555
N5_3 C10_3 1_555 1_555
H11_3 N5_3 1_555 1_555
N6_3 C11_3 1_555 1_555
H12_3 N6_3 1_555 1_555
O3_3 Cu3_2 1_555 1_555
O6_3 C24_3 1_555 1_555
O7_3 C24_3 1_555 1_555
O10_3 C25_3 1_555 1_555
O11_3 C25_3 1_555 1_555
O12_3 Cu13_2 1_555 1_555
O13_3 Cu6_2 1_555 1_555
O14_2 C14_3 1_555 1_555
Cu9_2 O23_3 1_555 1_555
Cu8_2 O11_3 1_555 1_555
Cu11_2 O33_3 1_555 1_555
Cu16_2 O22_3 1_555 1_555
Cu15_2 O10_3 1_555 1_555
Cu18_2 O30_3 1_555 1_555
Cu20_2 O14_2 1_555 1_555
N8_3 C37_3 1_555 1_555
C39_3 C42_3 1_555 1_555
C40_3 C41_3 1_555 1_555
C41_3 O17_3 1_555 1_555
C42_3 C40_3 1_555 1_555
H16_3 C42_3 1_555 1_555
C43_3 C40_3 1_555 1_555
H17_3 C43_3 1_555 1_555
C44_3 C39_3 1_555 1_555
H18_3 C44_3 1_555 1_555
C45_3 C43_3 1_555 1_555
C46_3 C49_3 1_555 1_555
C49_3 C48_3 1_555 1_555
H20_3 C49_3 1_555 1_555
C50_3 C46_3 1_555 1_555
H21_3 C50_3 1_555 1_555
C51_3 C46_3 1_555 1_555
C52_3 C39_3 1_555 1_555
N11_3 C37_3 1_555 1_555
H23_3 N11_3 1_555 1_555
N12_3 C38_3 1_555 1_555
H24_3 N12_3 1_555 1_555
O17_3 Cu3_2 1_555 1_555
O19_2 Cu3_2 1_555 1_555
O20_2 Cu3_2 1_555 1_555
O22_3 C51_3 1_555 1_555
O23_3 C51_3 1_555 1_555
O30_3 C52_3 1_555 1_555
O31_3 Cu13_2 1_555 1_555
O32_3 Cu16_2 1_555 1_555
O33_3 C52_3 1_555 1_555
O34_3 Cu6_2 1_555 1_555
O35_3 Cu9_2 1_555 1_555
O36_3 Cu16_2 1_555 1_555
O37_3 Cu9_2 1_555 1_555
O38_2 Cu20_2 1_555 1_555
O42_3 Cu6_2 1_555 1_555
O43_3 Cu9_2 1_555 1_555
O45_3 Cu13_2 1_555 1_555
O46_3 Cu16_2 1_555 1_555
N2_3 C11_3 1_555 1_555
C17_3 C18_3 1_555 1_555
C18_3 N5_3 1_555 1_555
C21_3 N6_3 1_555 1_555
N8_3 C38_3 1_555 1_555
C41_3 O38_2 1_555 1_555
C44_3 C45_3 1_555 1_555
C45_3 N11_3 1_555 1_555
C48_3 N12_3 1_555 1_555
Cu6 O7_4 1_555 1_555
Cu13 O6_4 1_555 1_555
Cu19_2 O2_4 1_555 1_555
N2_4 C10_4 1_555 1_555
C12_4 C15_4 1_555 1_555
C13_4 C14_4 1_555 1_555
C14_4 O3_4 1_555 1_555
C15_4 C13_4 1_555 1_555
H4_4 C15_4 1_555 1_555
C16_4 C13_4 1_555 1_555
H5_4 C16_4 1_555 1_555
C17_4 C12_4 1_555 1_555
H6_4 C17_4 1_555 1_555
C18_4 C16_4 1_555 1_555
C19_4 C22_4 1_555 1_555
C22_4 C21_4 1_555 1_555
H8_4 C22_4 1_555 1_555
C23_4 C19_4 1_555 1_555
H9_4 C23_4 1_555 1_555
C24_4 C19_4 1_555 1_555
C25_4 C12_4 1_555 1_555
N5_4 C10_4 1_555 1_555
H11_4 N5_4 1_555 1_555
N6_4 C11_4 1_555 1_555
H12_4 N6_4 1_555 1_555
O3_4 Cu19_2 1_555 1_555
O6_4 C24_4 1_555 1_555
O7_4 C24_4 1_555 1_555
O10_4 C25_4 1_555 1_555
O11_4 C25_4 1_555 1_555
O12_4 Cu13 1_555 1_555
O13_4 Cu6 1_555 1_555
O39_2 C14_4 1_555 1_555
Cu9 O23_4 1_555 1_555
Cu8 O11_4 1_555 1_555
Cu11 O33_4 1_555 1_555
Cu16 O22_4 1_555 1_555
Cu15 O10_4 1_555 1_555
Cu18 O30_4 1_555 1_555
N8_4 C37_4 1_555 1_555
C39_4 C42_4 1_555 1_555
C40_4 C41_4 1_555 1_555
C41_4 O17_4 1_555 1_555
C42_4 C40_4 1_555 1_555
H16_4 C42_4 1_555 1_555
C43_4 C40_4 1_555 1_555
H17_4 C43_4 1_555 1_555
C44_4 C39_4 1_555 1_555
H18_4 C44_4 1_555 1_555
C45_4 C43_4 1_555 1_555
C46_4 C49_4 1_555 1_555
C49_4 C48_4 1_555 1_555
H20_4 C49_4 1_555 1_555
C50_4 C46_4 1_555 1_555
H21_4 C50_4 1_555 1_555
C51_4 C46_4 1_555 1_555
C52_4 C39_4 1_555 1_555
N11_4 C37_4 1_555 1_555
H23_4 N11_4 1_555 1_555
N12_4 C38_4 1_555 1_555
H24_4 N12_4 1_555 1_555
O17_4 Cu19_2 1_555 1_555
O22_4 C51_4 1_555 1_555
O23_4 C51_4 1_555 1_555
O30_4 C52_4 1_555 1_555
O31_4 Cu13 1_555 1_555
O32_4 Cu16 1_555 1_555
O33_4 C52_4 1_555 1_555
O34_4 Cu6 1_555 1_555
O35_4 Cu9 1_555 1_555
O36_4 Cu16 1_555 1_555
O37_4 Cu9 1_555 1_555
O42_4 Cu6 1_555 1_555
O43_4 Cu9 1_555 1_555
O45_4 Cu13 1_555 1_555
O46_4 Cu16 1_555 1_555
N2_4 C11_4 1_555 1_555
C17_4 C18_4 1_555 1_555
C18_4 N5_4 1_555 1_555
C21_4 N6_4 1_555 1_555
N8_4 C38_4 1_555 1_555
C41_4 O40_2 1_555 1_555
C44_4 C45_4 1_555 1_555
C45_4 N11_4 1_555 1_555
C48_4 N12_4 1_555 1_555
Cu20_2 O1_4 1_555 1_555
C1_4 C4_4 1_555 1_555
C2_4 C5_4 1_555 1_555
C3_4 H1_4 1_555 1_555
C4_4 C3_4 1_555 1_555
C5_4 C3_4 1_555 1_555
C6_4 C4_4 1_555 1_555
H2_4 C6_4 1_555 1_555
C7_4 C6_4 1_555 1_555
C8_4 C5_4 1_555 1_555
H3_4 C8_4 1_555 1_555
N1_4 C9_4 1_555 1_555
C9_4 N3_4 1_555 1_555
C20_4 H7_4 1_555 1_555
C26_4 C27_4 1_555 1_555
C27_4 C20_4 1_555 1_555
N4_4 C7_4 1_555 1_555
H10_4 N4_4 1_555 1_555
O19_2 C1_4 1_555 1_555
O5_4 Cu20_2 1_555 1_555
O25_2 C26_4 1_555 1_555
O28_2 C26_4 1_555 1_555
O15_4 C2_4 1_555 1_555
O16_4 C2_4 1_555 1_555
Cu7_2 O15_4 1_555 1_555
Cu10_2 O41_4 1_555 1_555
Cu14_2 O16_4 1_555 1_555
Cu17_2 O44_4 1_555 1_555
C28_4 C31_4 1_555 1_555
C29_4 C32_4 1_555 1_555
C30_4 H13_4 1_555 1_555
C31_4 C30_4 1_555 1_555
C32_4 C30_4 1_555 1_555
C33_4 C31_4 1_555 1_555
H14_4 C33_4 1_555 1_555
C34_4 C33_4 1_555 1_555
C35_4 C32_4 1_555 1_555
H15_4 C35_4 1_555 1_555
N7_4 C36_4 1_555 1_555
C36_4 N9_4 1_555 1_555
C47_4 H19_4 1_555 1_555
C53_4 C54_4 1_555 1_555
C54_4 C47_4 1_555 1_555
N10_4 C34_4 1_555 1_555
H22_4 N10_4 1_555 1_555
O21_4 Cu20_2 1_555 1_555
O26_2 C53_4 1_555 1_555
O29_2 C53_4 1_555 1_555
O41_4 C29_4 1_555 1_555
O44_4 C29_4 1_555 1_555
C1_4 O5_4 1_555 1_555
C7_4 C8_4 1_555 1_555
C9_4 N4_4 1_555 1_555
C28_4 O20_2 1_555 1_555
C28_4 O21_4 1_555 1_555
C34_4 C35_4 1_555 1_555
C36_4 N10_4 1_555 1_555
Cu3_3 O2_5 1_555 1_555
O17_5 Cu3_3 1_555 1_555
O20_3 Cu3_3 1_555 1_555
O38_3 Cu20_3 1_555 1_555
O2_5 H32 1_555 1_555
Cu3_4 O2_6 1_555 1_555
O3_5 Cu3_4 1_555 1_555
Cu20_4 O14_3 1_555 1_555
O19_3 Cu3_4 1_555 1_555
O2_6 H31 1_555 1_555
Cu4_3 O1_5 1_555 1_555
Cu7_2 O23_5 1_555 1_555
Cu8_2 O24_3 1_555 1_555
Cu14_2 O22_5 1_555 1_555
Cu15_2 O27_3 1_555 1_555
C28_5 C31_5 1_555 1_555
C29_5 C32_5 1_555 1_555
C30_5 H13_5 1_555 1_555
C31_5 C30_5 1_555 1_555
C32_5 C30_5 1_555 1_555
C33_5 C31_5 1_555 1_555
H14_5 C33_5 1_555 1_555
C34_5 C33_5 1_555 1_555
C35_5 C32_5 1_555 1_555
H15_5 C35_5 1_555 1_555
N7_5 C36_5 1_555 1_555
N8_5 C37_5 1_555 1_555
C36_5 N9_5 1_555 1_555
C37_5 N9_5 1_555 1_555
C38_5 N7_5 1_555 1_555
C39_5 C42_5 1_555 1_555
C40_5 C41_5 1_555 1_555
C42_5 C40_5 1_555 1_555
H16_5 C42_5 1_555 1_555
C43_5 C40_5 1_555 1_555
H17_5 C43_5 1_555 1_555
C44_5 C39_5 1_555 1_555
H18_5 C44_5 1_555 1_555
C45_5 C43_5 1_555 1_555
C46_5 C49_5 1_555 1_555
C47_5 H19_5 1_555 1_555
C48_5 C47_5 1_555 1_555
C49_5 C48_5 1_555 1_555
H20_5 C49_5 1_555 1_555
C50_5 C46_5 1_555 1_555
H21_5 C50_5 1_555 1_555
C51_5 C46_5 1_555 1_555
C52_5 C39_5 1_555 1_555
C53_5 C54_5 1_555 1_555
C54_5 C47_5 1_555 1_555
N10_5 C34_5 1_555 1_555
H22_5 N10_5 1_555 1_555
N11_5 C37_5 1_555 1_555
H23_5 N11_5 1_555 1_555
N12_5 C38_5 1_555 1_555
H24_5 N12_5 1_555 1_555
O18_3 Cu19_3 1_555 1_555
O21_5 Cu4_3 1_555 1_555
O22_5 C51_5 1_555 1_555
O23_5 C51_5 1_555 1_555
O24_3 C53_5 1_555 1_555
O26_3 Cu7_2 1_555 1_555
O27_3 C53_5 1_555 1_555
O29_3 Cu14_2 1_555 1_555
O31_2 C52_5 1_555 1_555
O34_2 C52_5 1_555 1_555
O36_5 Cu14_2 1_555 1_555
O37_5 Cu7_2 1_555 1_555
O40_3 Cu4_3 1_555 1_555
O42_3 C29_5 1_555 1_555
O45_3 C29_5 1_555 1_555
C28_5 O18_3 1_555 1_555
C28_5 O21_5 1_555 1_555
C34_5 C35_5 1_555 1_555
N8_5 C38_5 1_555 1_555
C36_5 N10_5 1_555 1_555
C44_5 C45_5 1_555 1_555
C45_5 N11_5 1_555 1_555
C48_5 N12_5 1_555 1_555
C50_5 C54_5 1_555 1_555
O1_5 H30 1_555 1_555
Cu10_2 O7_5 1_555 1_555
Cu17_2 O6_5 1_555 1_555
Cu4_4 O1_6 1_555 1_555
C1_5 C4_5 1_555 1_555
C2_5 C5_5 1_555 1_555
C3_5 H1_5 1_555 1_555
C4_5 C3_5 1_555 1_555
C5_5 C3_5 1_555 1_555
C6_5 C4_5 1_555 1_555
H2_5 C6_5 1_555 1_555
C7_5 C6_5 1_555 1_555
C8_5 C5_5 1_555 1_555
H3_5 C8_5 1_555 1_555
N1_5 C9_5 1_555 1_555
N2_5 C10_5 1_555 1_555
C9_5 N3_5 1_555 1_555
C10_5 N3_5 1_555 1_555
C11_5 N1_5 1_555 1_555
C12_5 C15_5 1_555 1_555
C13_5 C14_5 1_555 1_555
C15_5 C13_5 1_555 1_555
H4_5 C15_5 1_555 1_555
C16_5 C13_5 1_555 1_555
H5_5 C16_5 1_555 1_555
C17_5 C12_5 1_555 1_555
H6_5 C17_5 1_555 1_555
C18_5 C16_5 1_555 1_555
C19_5 C22_5 1_555 1_555
C20_5 H7_5 1_555 1_555
C21_5 C20_5 1_555 1_555
C22_5 C21_5 1_555 1_555
H8_5 C22_5 1_555 1_555
C23_5 C19_5 1_555 1_555
H9_5 C23_5 1_555 1_555
C24_5 C19_5 1_555 1_555
C25_5 C12_5 1_555 1_555
C26_5 C27_5 1_555 1_555
C27_5 C20_5 1_555 1_555
N4_5 C7_5 1_555 1_555
H10_5 N4_5 1_555 1_555
N5_5 C10_5 1_555 1_555
H11_5 N5_5 1_555 1_555
N6_5 C11_5 1_555 1_555
H12_5 N6_5 1_555 1_555
O4_3 C1_5 1_555 1_555
O5_5 Cu4_4 1_555 1_555
O6_5 C24_5 1_555 1_555
O7_5 C24_5 1_555 1_555
O8_3 C26_5 1_555 1_555
O9_3 C26_5 1_555 1_555
O32_2 C25_5 1_555 1_555
O35_2 C25_5 1_555 1_555
O12_5 Cu17_2 1_555 1_555
O13_5 Cu10_2 1_555 1_555
O43_3 C2_5 1_555 1_555
O46_3 C2_5 1_555 1_555
Cu11_2 O8_3 1_555 1_555
Cu18_2 O9_3 1_555 1_555
Cu19_4 O4_3 1_555 1_555
O25_3 Cu10_2 1_555 1_555
O28_3 Cu17_2 1_555 1_555
O39_3 Cu4_4 1_555 1_555
C1_5 O5_5 1_555 1_555
C7_5 C8_5 1_555 1_555
N2_5 C11_5 1_555 1_555
C9_5 N4_5 1_555 1_555
C17_5 C18_5 1_555 1_555
C18_5 N5_5 1_555 1_555
C21_5 N6_5 1_555 1_555
C23_5 C27_5 1_555 1_555
O1_6 H29 1_555 1_555
Cu20_3 O1_7 1_555 1_555
Cu7 O23_6 1_555 1_555
Cu8 O24_4 1_555 1_555
Cu14 O22_6 1_555 1_555
Cu15 O27_4 1_555 1_555
C28_6 C31_6 1_555 1_555
C29_6 C32_6 1_555 1_555
C30_6 H13_6 1_555 1_555
C31_6 C30_6 1_555 1_555
C32_6 C30_6 1_555 1_555
C33_6 C31_6 1_555 1_555
H14_6 C33_6 1_555 1_555
C34_6 C33_6 1_555 1_555
C35_6 C32_6 1_555 1_555
H15_6 C35_6 1_555 1_555
N7_6 C36_6 1_555 1_555
N8_6 C37_6 1_555 1_555
C36_6 N9_6 1_555 1_555
C37_6 N9_6 1_555 1_555
C38_6 N7_6 1_555 1_555
C39_6 C42_6 1_555 1_555
C40_6 C41_6 1_555 1_555
C42_6 C40_6 1_555 1_555
H16_6 C42_6 1_555 1_555
C43_6 C40_6 1_555 1_555
H17_6 C43_6 1_555 1_555
C44_6 C39_6 1_555 1_555
H18_6 C44_6 1_555 1_555
C45_6 C43_6 1_555 1_555
C46_6 C49_6 1_555 1_555
C47_6 H19_6 1_555 1_555
C48_6 C47_6 1_555 1_555
C49_6 C48_6 1_555 1_555
H20_6 C49_6 1_555 1_555
C50_6 C46_6 1_555 1_555
H21_6 C50_6 1_555 1_555
C51_6 C46_6 1_555 1_555
C52_6 C39_6 1_555 1_555
C53_6 C54_6 1_555 1_555
C54_6 C47_6 1_555 1_555
N10_6 C34_6 1_555 1_555
H22_6 N10_6 1_555 1_555
N11_6 C37_6 1_555 1_555
H23_6 N11_6 1_555 1_555
N12_6 C38_6 1_555 1_555
H24_6 N12_6 1_555 1_555
O21_6 Cu20_3 1_555 1_555
O22_6 C51_6 1_555 1_555
O23_6 C51_6 1_555 1_555
O24_4 C53_6 1_555 1_555
O26_4 Cu7 1_555 1_555
O27_4 C53_6 1_555 1_555
O29_4 Cu14 1_555 1_555
O31 C52_6 1_555 1_555
O34 C52_6 1_555 1_555
O36_6 Cu14 1_555 1_555
O37_6 Cu7 1_555 1_555
O42_4 C29_6 1_555 1_555
O45_4 C29_6 1_555 1_555
C28_6 O20_3 1_555 1_555
C28_6 O21_6 1_555 1_555
C34_6 C35_6 1_555 1_555
N8_6 C38_6 1_555 1_555
C36_6 N10_6 1_555 1_555
C44_6 C45_6 1_555 1_555
C45_6 N11_6 1_555 1_555
C48_6 N12_6 1_555 1_555
C50_6 C54_6 1_555 1_555
O1_7 H30_2 1_555 1_555
Cu10 O7_6 1_555 1_555
Cu17 O6_6 1_555 1_555
Cu20_4 O1_8 1_555 1_555
C1_6 C4_6 1_555 1_555
C2_6 C5_6 1_555 1_555
C3_6 H1_6 1_555 1_555
C4_6 C3_6 1_555 1_555
C5_6 C3_6 1_555 1_555
C6_6 C4_6 1_555 1_555
H2_6 C6_6 1_555 1_555
C7_6 C6_6 1_555 1_555
C8_6 C5_6 1_555 1_555
H3_6 C8_6 1_555 1_555
N1_6 C9_6 1_555 1_555
N2_6 C10_6 1_555 1_555
C9_6 N3_6 1_555 1_555
C10_6 N3_6 1_555 1_555
C11_6 N1_6 1_555 1_555
C12_6 C15_6 1_555 1_555
C13_6 C14_6 1_555 1_555
C15_6 C13_6 1_555 1_555
H4_6 C15_6 1_555 1_555
C16_6 C13_6 1_555 1_555
H5_6 C16_6 1_555 1_555
C17_6 C12_6 1_555 1_555
H6_6 C17_6 1_555 1_555
C18_6 C16_6 1_555 1_555
C19_6 C22_6 1_555 1_555
C20_6 H7_6 1_555 1_555
C21_6 C20_6 1_555 1_555
C22_6 C21_6 1_555 1_555
H8_6 C22_6 1_555 1_555
C23_6 C19_6 1_555 1_555
H9_6 C23_6 1_555 1_555
C24_6 C19_6 1_555 1_555
C25_6 C12_6 1_555 1_555
C26_6 C27_6 1_555 1_555
C27_6 C20_6 1_555 1_555
N4_6 C7_6 1_555 1_555
H10_6 N4_6 1_555 1_555
N5_6 C10_6 1_555 1_555
H11_6 N5_6 1_555 1_555
N6_6 C11_6 1_555 1_555
H12_6 N6_6 1_555 1_555
O19_3 C1_6 1_555 1_555
O5_6 Cu20_4 1_555 1_555
O6_6 C24_6 1_555 1_555
O7_6 C24_6 1_555 1_555
O8_4 C26_6 1_555 1_555
O9_4 C26_6 1_555 1_555
O32 C25_6 1_555 1_555
O35 C25_6 1_555 1_555
O12_6 Cu17 1_555 1_555
O13_6 Cu10 1_555 1_555
O43_4 C2_6 1_555 1_555
O46_4 C2_6 1_555 1_555
Cu11 O8_4 1_555 1_555
Cu18 O9_4 1_555 1_555
O25_4 Cu10 1_555 1_555
O28_4 Cu17 1_555 1_555
C1_6 O5_6 1_555 1_555
C7_6 C8_6 1_555 1_555
N2_6 C11_6 1_555 1_555
C9_6 N4_6 1_555 1_555
C17_6 C18_6 1_555 1_555
C18_6 N5_6 1_555 1_555
C21_6 N6_6 1_555 1_555
C23_6 C27_6 1_555 1_555
O1_8 H29_2 1_555 1_555
Cu19_3 O2_7 1_555 1_555
O17_6 Cu19_3 1_555 1_555
O2_7 H32_2 1_555 1_555
Cu19_4 O2_8 1_555 1_555
O3_6 Cu19_4 1_555 1_555
O2_8 H31_2 1_555 1_555
Cu3_5 O2_9 1_555 1_555
O17_7 Cu3_5 1_555 1_555
O20_4 Cu3_5 1_555 1_555
O38_4 Cu20_5 1_555 1_555
O2_9 H32_3 1_555 1_555
Cu3_6 O2_10 1_555 1_555
O3_7 Cu3_6 1_555 1_555
Cu20_6 O14_4 1_555 1_555
O19_4 Cu3_6 1_555 1_555
O2_10 H31_3 1_555 1_555
Cu4_5 O1_9 1_555 1_555
Cu8 O23_7 1_555 1_555
Cu15 O22_7 1_555 1_555
C28_7 C31_7 1_555 1_555
C29_7 C32_7 1_555 1_555
C30_7 H13_7 1_555 1_555
C31_7 C30_7 1_555 1_555
C32_7 C30_7 1_555 1_555
C33_7 C31_7 1_555 1_555
H14_7 C33_7 1_555 1_555
C34_7 C33_7 1_555 1_555
C35_7 C32_7 1_555 1_555
H15_7 C35_7 1_555 1_555
N7_7 C36_7 1_555 1_555
N8_7 C37_7 1_555 1_555
C36_7 N9_7 1_555 1_555
C37_7 N9_7 1_555 1_555
C38_7 N7_7 1_555 1_555
C39_7 C42_7 1_555 1_555
C40_7 C41_7 1_555 1_555
C42_7 C40_7 1_555 1_555
H16_7 C42_7 1_555 1_555
C43_7 C40_7 1_555 1_555
H17_7 C43_7 1_555 1_555
C44_7 C39_7 1_555 1_555
H18_7 C44_7 1_555 1_555
C45_7 C43_7 1_555 1_555
C46_7 C49_7 1_555 1_555
C47_7 H19_7 1_555 1_555
C48_7 C47_7 1_555 1_555
C49_7 C48_7 1_555 1_555
H20_7 C49_7 1_555 1_555
C50_7 C46_7 1_555 1_555
H21_7 C50_7 1_555 1_555
C51_7 C46_7 1_555 1_555
C52_7 C39_7 1_555 1_555
C53_7 C54_7 1_555 1_555
C54_7 C47_7 1_555 1_555
N10_7 C34_7 1_555 1_555
H22_7 N10_7 1_555 1_555
N11_7 C37_7 1_555 1_555
H23_7 N11_7 1_555 1_555
N12_7 C38_7 1_555 1_555
H24_7 N12_7 1_555 1_555
O18_4 Cu19_5 1_555 1_555
O21_7 Cu4_5 1_555 1_555
O22_7 C51_7 1_555 1_555
O23_7 C51_7 1_555 1_555
O26_3 C53_7 1_555 1_555
O29_3 C53_7 1_555 1_555
O31_4 C52_7 1_555 1_555
O34_4 C52_7 1_555 1_555
O36_7 Cu15 1_555 1_555
O37_7 Cu8 1_555 1_555
O40_4 Cu4_5 1_555 1_555
O42_2 C29_7 1_555 1_555
O45_2 C29_7 1_555 1_555
C28_7 O18_4 1_555 1_555
C28_7 O21_7 1_555 1_555
C34_7 C35_7 1_555 1_555
N8_7 C38_7 1_555 1_555
C36_7 N10_7 1_555 1_555
C44_7 C45_7 1_555 1_555
C45_7 N11_7 1_555 1_555
C48_7 N12_7 1_555 1_555
C50_7 C54_7 1_555 1_555
O1_9 H30_3 1_555 1_555
Cu11 O7_7 1_555 1_555
Cu18 O6_7 1_555 1_555
Cu4_6 O1_10 1_555 1_555
C1_7 C4_7 1_555 1_555
C2_7 C5_7 1_555 1_555
C3_7 H1_7 1_555 1_555
C4_7 C3_7 1_555 1_555
C5_7 C3_7 1_555 1_555
C6_7 C4_7 1_555 1_555
H2_7 C6_7 1_555 1_555
C7_7 C6_7 1_555 1_555
C8_7 C5_7 1_555 1_555
H3_7 C8_7 1_555 1_555
N1_7 C9_7 1_555 1_555
N2_7 C10_7 1_555 1_555
C9_7 N3_7 1_555 1_555
C10_7 N3_7 1_555 1_555
C11_7 N1_7 1_555 1_555
C12_7 C15_7 1_555 1_555
C13_7 C14_7 1_555 1_555
C15_7 C13_7 1_555 1_555
H4_7 C15_7 1_555 1_555
C16_7 C13_7 1_555 1_555
H5_7 C16_7 1_555 1_555
C17_7 C12_7 1_555 1_555
H6_7 C17_7 1_555 1_555
C18_7 C16_7 1_555 1_555
C19_7 C22_7 1_555 1_555
C20_7 H7_7 1_555 1_555
C21_7 C20_7 1_555 1_555
C22_7 C21_7 1_555 1_555
H8_7 C22_7 1_555 1_555
C23_7 C19_7 1_555 1_555
H9_7 C23_7 1_555 1_555
C24_7 C19_7 1_555 1_555
C25_7 C12_7 1_555 1_555
C26_7 C27_7 1_555 1_555
C27_7 C20_7 1_555 1_555
N4_7 C7_7 1_555 1_555
H10_7 N4_7 1_555 1_555
N5_7 C10_7 1_555 1_555
H11_7 N5_7 1_555 1_555
N6_7 C11_7 1_555 1_555
H12_7 N6_7 1_555 1_555
O4_4 C1_7 1_555 1_555
O5_7 Cu4_6 1_555 1_555
O6_7 C24_7 1_555 1_555
O7_7 C24_7 1_555 1_555
O25_3 C26_7 1_555 1_555
O28_3 C26_7 1_555 1_555
O32_4 C25_7 1_555 1_555
O35_4 C25_7 1_555 1_555
O12_7 Cu18 1_555 1_555
O13_7 Cu11 1_555 1_555
O43_2 C2_7 1_555 1_555
O46_2 C2_7 1_555 1_555
Cu19_6 O4_4 1_555 1_555
O39_4 Cu4_6 1_555 1_555
C1_7 O5_7 1_555 1_555
C7_7 C8_7 1_555 1_555
N2_7 C11_7 1_555 1_555
C9_7 N4_7 1_555 1_555
C17_7 C18_7 1_555 1_555
C18_7 N5_7 1_555 1_555
C21_7 N6_7 1_555 1_555
C23_7 C27_7 1_555 1_555
O1_10 H29_3 1_555 1_555
Cu20_5 O1_11 1_555 1_555
Cu8_2 O23_8 1_555 1_555
Cu15_2 O22_8 1_555 1_555
C28_8 C31_8 1_555 1_555
C29_8 C32_8 1_555 1_555
C30_8 H13_8 1_555 1_555
C31_8 C30_8 1_555 1_555
C32_8 C30_8 1_555 1_555
C33_8 C31_8 1_555 1_555
H14_8 C33_8 1_555 1_555
C34_8 C33_8 1_555 1_555
C35_8 C32_8 1_555 1_555
H15_8 C35_8 1_555 1_555
N7_8 C36_8 1_555 1_555
N8_8 C37_8 1_555 1_555
C36_8 N9_8 1_555 1_555
C37_8 N9_8 1_555 1_555
C38_8 N7_8 1_555 1_555
C39_8 C42_8 1_555 1_555
C40_8 C41_8 1_555 1_555
C42_8 C40_8 1_555 1_555
H16_8 C42_8 1_555 1_555
C43_8 C40_8 1_555 1_555
H17_8 C43_8 1_555 1_555
C44_8 C39_8 1_555 1_555
H18_8 C44_8 1_555 1_555
C45_8 C43_8 1_555 1_555
C46_8 C49_8 1_555 1_555
C47_8 H19_8 1_555 1_555
C48_8 C47_8 1_555 1_555
C49_8 C48_8 1_555 1_555
H20_8 C49_8 1_555 1_555
C50_8 C46_8 1_555 1_555
H21_8 C50_8 1_555 1_555
C51_8 C46_8 1_555 1_555
C52_8 C39_8 1_555 1_555
C53_8 C54_8 1_555 1_555
C54_8 C47_8 1_555 1_555
N10_8 C34_8 1_555 1_555
H22_8 N10_8 1_555 1_555
N11_8 C37_8 1_555 1_555
H23_8 N11_8 1_555 1_555
N12_8 C38_8 1_555 1_555
H24_8 N12_8 1_555 1_555
O21_8 Cu20_5 1_555 1_555
O22_8 C51_8 1_555 1_555
O23_8 C51_8 1_555 1_555
O26_4 C53_8 1_555 1_555
O29_4 C53_8 1_555 1_555
O31_3 C52_8 1_555 1_555
O34_3 C52_8 1_555 1_555
O36_8 Cu15_2 1_555 1_555
O37_8 Cu8_2 1_555 1_555
O42 C29_8 1_555 1_555
O45 C29_8 1_555 1_555
C28_8 O20_4 1_555 1_555
C28_8 O21_8 1_555 1_555
C34_8 C35_8 1_555 1_555
N8_8 C38_8 1_555 1_555
C36_8 N10_8 1_555 1_555
C44_8 C45_8 1_555 1_555
C45_8 N11_8 1_555 1_555
C48_8 N12_8 1_555 1_555
C50_8 C54_8 1_555 1_555
O1_11 H30_4 1_555 1_555
Cu11_2 O7_8 1_555 1_555
Cu18_2 O6_8 1_555 1_555
Cu20_6 O1_12 1_555 1_555
C1_8 C4_8 1_555 1_555
C2_8 C5_8 1_555 1_555
C3_8 H1_8 1_555 1_555
C4_8 C3_8 1_555 1_555
C5_8 C3_8 1_555 1_555
C6_8 C4_8 1_555 1_555
H2_8 C6_8 1_555 1_555
C7_8 C6_8 1_555 1_555
C8_8 C5_8 1_555 1_555
H3_8 C8_8 1_555 1_555
N1_8 C9_8 1_555 1_555
N2_8 C10_8 1_555 1_555
C9_8 N3_8 1_555 1_555
C10_8 N3_8 1_555 1_555
C11_8 N1_8 1_555 1_555
C12_8 C15_8 1_555 1_555
C13_8 C14_8 1_555 1_555
C15_8 C13_8 1_555 1_555
H4_8 C15_8 1_555 1_555
C16_8 C13_8 1_555 1_555
H5_8 C16_8 1_555 1_555
C17_8 C12_8 1_555 1_555
H6_8 C17_8 1_555 1_555
C18_8 C16_8 1_555 1_555
C19_8 C22_8 1_555 1_555
C20_8 H7_8 1_555 1_555
C21_8 C20_8 1_555 1_555
C22_8 C21_8 1_555 1_555
H8_8 C22_8 1_555 1_555
C23_8 C19_8 1_555 1_555
H9_8 C23_8 1_555 1_555
C24_8 C19_8 1_555 1_555
C25_8 C12_8 1_555 1_555
C26_8 C27_8 1_555 1_555
C27_8 C20_8 1_555 1_555
N4_8 C7_8 1_555 1_555
H10_8 N4_8 1_555 1_555
N5_8 C10_8 1_555 1_555
H11_8 N5_8 1_555 1_555
N6_8 C11_8 1_555 1_555
H12_8 N6_8 1_555 1_555
O19_4 C1_8 1_555 1_555
O5_8 Cu20_6 1_555 1_555
O6_8 C24_8 1_555 1_555
O7_8 C24_8 1_555 1_555
O25_4 C26_8 1_555 1_555
O28_4 C26_8 1_555 1_555
O32_3 C25_8 1_555 1_555
O35_3 C25_8 1_555 1_555
O12_8 Cu18_2 1_555 1_555
O13_8 Cu11_2 1_555 1_555
O43 C2_8 1_555 1_555
O46 C2_8 1_555 1_555
C1_8 O5_8 1_555 1_555
C7_8 C8_8 1_555 1_555
N2_8 C11_8 1_555 1_555
C9_8 N4_8 1_555 1_555
C17_8 C18_8 1_555 1_555
C18_8 N5_8 1_555 1_555
C21_8 N6_8 1_555 1_555
C23_8 C27_8 1_555 1_555
O1_12 H29_4 1_555 1_555
Cu19_5 O2_11 1_555 1_555
O17_8 Cu19_5 1_555 1_555
O2_11 H32_4 1_555 1_555
Cu19_6 O2_12 1_555 1_555
O3_8 Cu19_6 1_555 1_555
O2_12 H31_4 1_555 1_555
O1_7 H29_5 1_555 1_555
O1_8 H30_5 1_555 1_555
O2_7 H31_5 1_555 1_555
O2_8 H32_5 1_555 1_555
O2_5 H31_6 1_555 1_555
O2_6 H32_6 1_555 1_555
O1_5 H29_6 1_555 1_555
O1_6 H30_6 1_555 1_555
O1_11 H29_7 1_555 1_555
O1_12 H30_7 1_555 1_555
O2_11 H31_7 1_555 1_555
O2_12 H32_7 1_555 1_555
O2_9 H31_8 1_555 1_555
O2_10 H32_8 1_555 1_555
O1_9 H29_8 1_555 1_555
O1_10 H30_8 1_555 1_555

#END
