
###############################################################################
#
# This file contains modified crystal structure data generated from the
# MOF subset of the Cambridge Structural Database (CSD) v543 
# hosted by the Cambridge Crystallographic Data Centre (CCDC).
#
# This work is licensed under the Creative Commons
# Attribution-NonCommercial-ShareAlike 4.0 International License.
# To view a copy of this license, visit
# http://creativecommons.org/licenses/by-nc-sa/4.0/
# or send a letter to
# Creative Commons, PO Box 1866, Mountain View, CA 94042, USA.
#
# CIF created using the CSD Python API on 29 September 2022
# The structure has been converted into the P1 space group
# The structure has a 3D framework
# The original CSD entry XAMDUM07 is in the cubic crystal system
# The framework has been calculated to contain at least 10.0% void space
# The void calculation uses a probe of radius 1.32A, grid spacing 0.4
# H atom positions have been added when not included in the experimental data
# Generated hydrogen atom positions removed from atoms on special positions
#
###############################################################################

data_XAMDUM07
_chemical_formula_moiety         '(C288 H672 Cu72 O264)n'
_symmetry_cell_setting           triclinic
_symmetry_space_group_name_H-M   'P 1'
_symmetry_Int_Tables_number      1
_space_group_name_Hall           'P 1'
loop_
_symmetry_equiv_pos_site_id
_symmetry_equiv_pos_as_xyz
1 x,y,z
_cell_length_a                   26.3867(12)
_cell_length_b                   26.3867(12)
_cell_length_c                   26.3867(12)
_cell_angle_alpha                90
_cell_angle_beta                 90
_cell_angle_gamma                90
_cell_volume                     18371.9
loop_
_atom_site_label
_atom_site_type_symbol
_atom_site_fract_x
_atom_site_fract_y
_atom_site_fract_z
Cu9 Cu -0.0000 0.28506(3) 0.28506(3)
Cu10 Cu -0.0000 0.21494(3) 0.21494(3)
Cu17 Cu -0.0000 0.28506(3) 0.71494(3)
Cu18 Cu -0.0000 0.21494(3) 0.78506(3)
Cu1 Cu 0.71494(3) 0.21494(3) 0.5000
O1 O 0.6562(2) 0.1562(2) 0.5000
O2 O 0.68366(12) 0.25640(13) 0.55268(12)
C1 C 0.7004(3) 0.36463(18) 0.63537(18)
C2 C 0.67835(17) 0.32165(17) 0.6146(2)
C3 C 0.70421(18) 0.29579(18) 0.5696(2)
H1 H 0.7297 0.3794 0.6206
Cu2 Cu 0.78506(3) 0.28506(3) 0.5000
Cu3 Cu 0.5000 0.28506(3) 0.78506(3)
Cu4 Cu 0.5000 0.21494(3) 0.71494(3)
Cu5 Cu 0.78506(3) 0.5000 0.71494(3)
Cu6 Cu 0.71494(3) 0.5000 0.78506(3)
Cu7 Cu 0.78506(3) 0.0000 0.21494(3)
Cu8 Cu 0.71494(3) 0.0000 0.28506(3)
Cu9_2 Cu 1.0000 0.28506(3) 0.28506(3)
Cu10_2 Cu 1.0000 0.21494(3) 0.21494(3)
Cu11 Cu 0.5000 0.28506(3) 0.21494(3)
Cu12 Cu 0.5000 0.21494(3) 0.28506(3)
Cu13 Cu 0.78506(3) 0.5000 0.28506(3)
Cu14 Cu 0.71494(3) 0.5000 0.21494(3)
Cu15 Cu 0.78506(3) -0.0000 0.78506(3)
Cu16 Cu 0.71494(3) 0.0000 0.71494(3)
Cu17_2 Cu 1.0000 0.28506(3) 0.71494(3)
Cu18_2 Cu 1.0000 0.21494(3) 0.78506(3)
O3 O 0.8438(2) 0.3438(2) 0.5000
O4 O 0.5000 0.3438(2) 0.8438(2)
O5 O 0.5000 0.1562(2) 0.6562(2)
O6 O 0.8438(2) 0.5000 0.6562(2)
O7 O 0.6562(2) 0.5000 0.8438(2)
O8 O 0.74360(13) 0.31634(12) 0.55268(12)
O9 O 0.55268(12) 0.31634(12) 0.74360(13)
O10 O 0.55268(12) 0.25640(13) 0.68366(12)
O11 O 0.74360(13) 0.44732(12) 0.68366(12)
O12 O 0.68366(12) 0.44732(12) 0.74360(13)
O13 O 0.75640(13) 0.18366(12) 0.44732(12)
O14 O 0.81634(12) 0.24360(13) 0.44732(12)
O15 O 0.81634(12) 0.05268(12) 0.25640(13)
O16 O 0.75640(13) 0.05268(12) 0.31634(12)
O17 O 0.94732(12) 0.24360(13) 0.31634(12)
O18 O 0.94732(12) 0.18366(12) 0.25640(13)
O19 O 0.68366(12) 0.25640(13) 0.44732(12)
O20 O 0.74360(13) 0.31634(12) 0.44732(12)
O21 O 0.55268(12) 0.31634(12) 0.25640(13)
O22 O 0.55268(12) 0.25640(13) 0.31634(12)
O23 O 0.74360(13) 0.44732(12) 0.31634(12)
O24 O 0.68366(12) 0.44732(12) 0.25640(13)
O25 O 0.75640(13) 0.18366(12) 0.55268(12)
O26 O 0.81634(12) 0.24360(13) 0.55268(12)
O27 O 0.81634(12) 0.05268(12) 0.74360(13)
O28 O 0.75640(13) 0.05268(12) 0.68366(12)
O29 O 0.94732(12) 0.24360(13) 0.68366(12)
O30 O 0.94732(12) 0.18366(12) 0.74360(13)
O31 O 0.44732(12) 0.24360(13) 0.81634(12)
O32 O 0.44732(12) 0.31634(12) 0.74360(13)
O33 O 0.55268(12) 0.24360(13) 0.81634(12)
O34 O 0.44732(12) 0.18366(12) 0.75640(13)
O35 O 0.44732(12) 0.25640(13) 0.68366(12)
O36 O 0.55268(12) 0.18366(12) 0.75640(13)
O37 O 0.81634(12) 0.55268(12) 0.75640(13)
O38 O 0.74360(13) 0.55268(12) 0.68366(12)
O39 O 0.81634(12) 0.44732(12) 0.75640(13)
O40 O 0.75640(13) 0.55268(12) 0.81634(12)
O41 O 0.68366(12) 0.55268(12) 0.74360(13)
O42 O 0.75640(13) 0.44732(12) 0.81634(12)
C4 C 0.63537(18) 0.36463(18) 0.7004(3)
C5 C 0.63537(18) 0.2996(3) 0.63537(18)
C6 C 0.86463(18) 0.2004(3) 0.36463(18)
C7 C 0.86463(18) 0.13537(18) 0.2996(3)
C8 C 0.7996(3) 0.13537(18) 0.36463(18)
C9 C 0.7004(3) 0.36463(18) 0.36463(18)
C10 C 0.63537(18) 0.36463(18) 0.2996(3)
C11 C 0.63537(18) 0.2996(3) 0.36463(18)
C12 C 0.86463(18) 0.2004(3) 0.63537(18)
C13 C 0.86463(18) 0.13537(18) 0.7004(3)
C14 C 0.7996(3) 0.13537(18) 0.63537(18)
C15 C 0.67835(17) 0.3854(2) 0.67835(17)
C16 C 0.6146(2) 0.32165(17) 0.67835(17)
C17 C 0.82165(17) 0.17835(17) 0.3854(2)
C18 C 0.8854(2) 0.17835(17) 0.32165(17)
C19 C 0.82165(17) 0.1146(2) 0.32165(17)
C20 C 0.67835(17) 0.32165(17) 0.3854(2)
C21 C 0.67835(17) 0.3854(2) 0.32165(17)
C22 C 0.6146(2) 0.32165(17) 0.32165(17)
C23 C 0.82165(17) 0.17835(17) 0.6146(2)
C24 C 0.8854(2) 0.17835(17) 0.67835(17)
C25 C 0.82165(17) 0.1146(2) 0.67835(17)
C26 C 0.5696(2) 0.29579(18) 0.70421(18)
C27 C 0.70421(18) 0.4304(2) 0.70421(18)
C28 C 0.79579(18) 0.20421(18) 0.4304(2)
C29 C 0.79579(18) 0.0696(2) 0.29579(18)
C30 C 0.9304(2) 0.20421(18) 0.29579(18)
C31 C 0.70421(18) 0.29579(18) 0.4304(2)
C32 C 0.5696(2) 0.29579(18) 0.29579(18)
C33 C 0.70421(18) 0.4304(2) 0.29579(18)
C34 C 0.79579(18) 0.20421(18) 0.5696(2)
C35 C 0.79579(18) 0.0696(2) 0.70421(18)
C36 C 0.9304(2) 0.20421(18) 0.70421(18)
H2 H 0.6206 0.2703 0.6206
H3 H 0.6206 0.3794 0.7297
H4 H 0.8794 0.2297 0.3794
H5 H 0.7703 0.1206 0.3794
H6 H 0.8794 0.1206 0.2703
H7 H 0.7297 0.3794 0.3794
H8 H 0.6206 0.2703 0.3794
H9 H 0.6206 0.3794 0.2703
H10 H 0.8794 0.2297 0.6206
H11 H 0.7703 0.1206 0.6206
H12 H 0.8794 0.1206 0.7297
Cu7_2 Cu 0.78506(3) 1.0000 0.21494(3)
Cu8_2 Cu 0.71494(3) 1.0000 0.28506(3)
Cu15_2 Cu 0.78506(3) 1.0000 0.78506(3)
Cu16_2 Cu 0.71494(3) 1.0000 0.71494(3)
Cu17_3 Cu -0.0000 0.78506(3) 0.21494(3)
Cu18_3 Cu -0.0000 0.71494(3) 0.28506(3)
Cu9_3 Cu -0.0000 0.78506(3) 0.78506(3)
Cu10_3 Cu -0.0000 0.71494(3) 0.71494(3)
O6_2 O 0.8438(2) -0.0000 0.1562(2)
O7_2 O 0.6562(2) -0.0000 0.3438(2)
O38_2 O 0.74360(13) 0.05268(12) 0.18366(12)
O41_2 O 0.68366(12) 0.05268(12) 0.24360(13)
Cu1_2 Cu 0.71494(3) 0.71494(3) -0.0000
O1_2 O 0.6562(2) 0.6562(2) -0.0000
O2_2 O 0.68366(12) 0.75640(13) 0.05268(12)
C1_2 C 0.7004(3) 0.86463(18) 0.13537(18)
C2_2 C 0.67835(17) 0.82165(17) 0.1146(2)
C3_2 C 0.70421(18) 0.79579(18) 0.0696(2)
H1_2 H 0.7297 0.8794 0.1206
Cu2_2 Cu 0.78506(3) 0.78506(3) -0.0000
Cu3_2 Cu 0.5000 0.78506(3) 0.28506(3)
Cu4_2 Cu 0.5000 0.71494(3) 0.21494(3)
Cu17_4 Cu 1.0000 0.78506(3) 0.21494(3)
Cu18_4 Cu 1.0000 0.71494(3) 0.28506(3)
O3_2 O 0.8438(2) 0.8438(2) -0.0000
O4_2 O 0.5000 0.8438(2) 0.3438(2)
O5_2 O 0.5000 0.6562(2) 0.1562(2)
O6_3 O 0.8438(2) 1.0000 0.1562(2)
O7_3 O 0.6562(2) 1.0000 0.3438(2)
O8_2 O 0.74360(13) 0.81634(12) 0.05268(12)
O9_2 O 0.55268(12) 0.81634(12) 0.24360(13)
O10_2 O 0.55268(12) 0.75640(13) 0.18366(12)
O11_2 O 0.74360(13) 0.94732(12) 0.18366(12)
O12_2 O 0.68366(12) 0.94732(12) 0.24360(13)
O25_2 O 0.75640(13) 0.68366(12) 0.05268(12)
O26_2 O 0.81634(12) 0.74360(13) 0.05268(12)
O27_2 O 0.81634(12) 0.55268(12) 0.24360(13)
O28_2 O 0.75640(13) 0.55268(12) 0.18366(12)
O29_2 O 0.94732(12) 0.74360(13) 0.18366(12)
O30_2 O 0.94732(12) 0.68366(12) 0.24360(13)
O31_2 O 0.44732(12) 0.74360(13) 0.31634(12)
O32_2 O 0.44732(12) 0.81634(12) 0.24360(13)
O33_2 O 0.55268(12) 0.74360(13) 0.31634(12)
O34_2 O 0.44732(12) 0.68366(12) 0.25640(13)
O35_2 O 0.44732(12) 0.75640(13) 0.18366(12)
O36_2 O 0.55268(12) 0.68366(12) 0.25640(13)
O39_2 O 0.81634(12) 0.94732(12) 0.25640(13)
O42_2 O 0.75640(13) 0.94732(12) 0.31634(12)
C4_2 C 0.63537(18) 0.86463(18) 0.2004(3)
C5_2 C 0.63537(18) 0.7996(3) 0.13537(18)
C12_2 C 0.86463(18) 0.7004(3) 0.13537(18)
C13_2 C 0.86463(18) 0.63537(18) 0.2004(3)
C14_2 C 0.7996(3) 0.63537(18) 0.13537(18)
C15_2 C 0.67835(17) 0.8854(2) 0.17835(17)
C16_2 C 0.6146(2) 0.82165(17) 0.17835(17)
C23_2 C 0.82165(17) 0.67835(17) 0.1146(2)
C24_2 C 0.8854(2) 0.67835(17) 0.17835(17)
C25_2 C 0.82165(17) 0.6146(2) 0.17835(17)
C26_2 C 0.5696(2) 0.79579(18) 0.20421(18)
C27_2 C 0.70421(18) 0.9304(2) 0.20421(18)
C34_2 C 0.79579(18) 0.70421(18) 0.0696(2)
C35_2 C 0.79579(18) 0.5696(2) 0.20421(18)
C36_2 C 0.9304(2) 0.70421(18) 0.20421(18)
H2_2 H 0.6206 0.7703 0.1206
H3_2 H 0.6206 0.8794 0.2297
H10_2 H 0.8794 0.7297 0.1206
H11_2 H 0.7703 0.6206 0.1206
H12_2 H 0.8794 0.6206 0.2297
Cu1_3 Cu 0.71494(3) 0.71494(3) 1.0000
O1_3 O 0.6562(2) 0.6562(2) 1.0000
Cu2_3 Cu 0.78506(3) 0.78506(3) 1.0000
Cu9_4 Cu 1.0000 0.78506(3) 0.78506(3)
Cu10_4 Cu 1.0000 0.71494(3) 0.71494(3)
Cu11_2 Cu 0.5000 0.78506(3) 0.71494(3)
Cu12_2 Cu 0.5000 0.71494(3) 0.78506(3)
O3_3 O 0.8438(2) 0.8438(2) 1.0000
O13_2 O 0.75640(13) 0.68366(12) 0.94732(12)
O14_2 O 0.81634(12) 0.74360(13) 0.94732(12)
O17_2 O 0.94732(12) 0.74360(13) 0.81634(12)
O18_2 O 0.94732(12) 0.68366(12) 0.75640(13)
O19_2 O 0.68366(12) 0.75640(13) 0.94732(12)
O20_2 O 0.74360(13) 0.81634(12) 0.94732(12)
O21_2 O 0.55268(12) 0.81634(12) 0.75640(13)
O22_2 O 0.55268(12) 0.75640(13) 0.81634(12)
O23_2 O 0.74360(13) 0.94732(12) 0.81634(12)
O24_2 O 0.68366(12) 0.94732(12) 0.75640(13)
C6_2 C 0.86463(18) 0.7004(3) 0.86463(18)
C7_2 C 0.86463(18) 0.63537(18) 0.7996(3)
C8_2 C 0.7996(3) 0.63537(18) 0.86463(18)
C9_2 C 0.7004(3) 0.86463(18) 0.86463(18)
C10_2 C 0.63537(18) 0.86463(18) 0.7996(3)
C11_2 C 0.63537(18) 0.7996(3) 0.86463(18)
C17_2 C 0.82165(17) 0.67835(17) 0.8854(2)
C18_2 C 0.8854(2) 0.67835(17) 0.82165(17)
C19_2 C 0.82165(17) 0.6146(2) 0.82165(17)
C20_2 C 0.67835(17) 0.82165(17) 0.8854(2)
C21_2 C 0.67835(17) 0.8854(2) 0.82165(17)
C22_2 C 0.6146(2) 0.82165(17) 0.82165(17)
C28_2 C 0.79579(18) 0.70421(18) 0.9304(2)
C29_2 C 0.79579(18) 0.5696(2) 0.79579(18)
C30_2 C 0.9304(2) 0.70421(18) 0.79579(18)
C31_2 C 0.70421(18) 0.79579(18) 0.9304(2)
C32_2 C 0.5696(2) 0.79579(18) 0.79579(18)
C33_2 C 0.70421(18) 0.9304(2) 0.79579(18)
H4_2 H 0.8794 0.7297 0.8794
H5_2 H 0.7703 0.6206 0.8794
H6_2 H 0.8794 0.6206 0.7703
H7_2 H 0.7297 0.8794 0.8794
H8_2 H 0.6206 0.7703 0.8794
H9_2 H 0.6206 0.8794 0.7703
Cu1_4 Cu 0.21494(3) 0.21494(3) -0.0000
O1_4 O 0.1562(2) 0.1562(2) -0.0000
O2_3 O 0.18366(12) 0.25640(13) 0.05268(12)
C1_3 C 0.2004(3) 0.36463(18) 0.13537(18)
C2_3 C 0.17835(17) 0.32165(17) 0.1146(2)
C3_3 C 0.20421(18) 0.29579(18) 0.0696(2)
H1_3 H 0.2297 0.3794 0.1206
Cu2_4 Cu 0.28506(3) 0.28506(3) -0.0000
Cu5_2 Cu 0.28506(3) 0.5000 0.21494(3)
Cu6_2 Cu 0.21494(3) 0.5000 0.28506(3)
Cu15_3 Cu 0.28506(3) 0.0000 0.28506(3)
Cu16_3 Cu 0.21494(3) 0.0000 0.21494(3)
O3_4 O 0.3438(2) 0.3438(2) -0.0000
O4_3 O -0.0000 0.3438(2) 0.3438(2)
O5_3 O -0.0000 0.1562(2) 0.1562(2)
O6_4 O 0.3438(2) 0.5000 0.1562(2)
O7_4 O 0.1562(2) 0.5000 0.3438(2)
O8_3 O 0.24360(13) 0.31634(12) 0.05268(12)
O9_3 O 0.05268(12) 0.31634(12) 0.24360(13)
O10_3 O 0.05268(12) 0.25640(13) 0.18366(12)
O11_3 O 0.24360(13) 0.44732(12) 0.18366(12)
O12_3 O 0.18366(12) 0.44732(12) 0.24360(13)
O25_3 O 0.25640(13) 0.18366(12) 0.05268(12)
O26_3 O 0.31634(12) 0.24360(13) 0.05268(12)
O27_3 O 0.31634(12) 0.05268(12) 0.24360(13)
O28_3 O 0.25640(13) 0.05268(12) 0.18366(12)
O29_3 O 0.44732(12) 0.24360(13) 0.18366(12)
O30_3 O 0.44732(12) 0.18366(12) 0.24360(13)
O33_3 O 0.05268(12) 0.24360(13) 0.31634(12)
O36_3 O 0.05268(12) 0.18366(12) 0.25640(13)
O37_2 O 0.31634(12) 0.55268(12) 0.25640(13)
O38_3 O 0.24360(13) 0.55268(12) 0.18366(12)
O39_3 O 0.31634(12) 0.44732(12) 0.25640(13)
O40_2 O 0.25640(13) 0.55268(12) 0.31634(12)
O41_3 O 0.18366(12) 0.55268(12) 0.24360(13)
O42_3 O 0.25640(13) 0.44732(12) 0.31634(12)
C4_3 C 0.13537(18) 0.36463(18) 0.2004(3)
C5_3 C 0.13537(18) 0.2996(3) 0.13537(18)
C12_3 C 0.36463(18) 0.2004(3) 0.13537(18)
C13_3 C 0.36463(18) 0.13537(18) 0.2004(3)
C14_3 C 0.2996(3) 0.13537(18) 0.13537(18)
C15_3 C 0.17835(17) 0.3854(2) 0.17835(17)
C16_3 C 0.1146(2) 0.32165(17) 0.17835(17)
C23_3 C 0.32165(17) 0.17835(17) 0.1146(2)
C24_3 C 0.3854(2) 0.17835(17) 0.17835(17)
C25_3 C 0.32165(17) 0.1146(2) 0.17835(17)
C26_3 C 0.0696(2) 0.29579(18) 0.20421(18)
C27_3 C 0.20421(18) 0.4304(2) 0.20421(18)
C34_3 C 0.29579(18) 0.20421(18) 0.0696(2)
C35_3 C 0.29579(18) 0.0696(2) 0.20421(18)
C36_3 C 0.4304(2) 0.20421(18) 0.20421(18)
H2_3 H 0.1206 0.2703 0.1206
H3_3 H 0.1206 0.3794 0.2297
H10_3 H 0.3794 0.2297 0.1206
H11_3 H 0.2703 0.1206 0.1206
H12_3 H 0.3794 0.1206 0.2297
Cu1_5 Cu 0.21494(3) 0.21494(3) 1.0000
O1_5 O 0.1562(2) 0.1562(2) 1.0000
Cu2_5 Cu 0.28506(3) 0.28506(3) 1.0000
Cu7_3 Cu 0.28506(3) 0.0000 0.71494(3)
Cu8_3 Cu 0.21494(3) -0.0000 0.78506(3)
Cu13_2 Cu 0.28506(3) 0.5000 0.78506(3)
Cu14_2 Cu 0.21494(3) 0.5000 0.71494(3)
O3_5 O 0.3438(2) 0.3438(2) 1.0000
O13_3 O 0.25640(13) 0.18366(12) 0.94732(12)
O14_3 O 0.31634(12) 0.24360(13) 0.94732(12)
O15_2 O 0.31634(12) 0.05268(12) 0.75640(13)
O16_2 O 0.25640(13) 0.05268(12) 0.81634(12)
O19_3 O 0.18366(12) 0.25640(13) 0.94732(12)
O20_3 O 0.24360(13) 0.31634(12) 0.94732(12)
O21_3 O 0.05268(12) 0.31634(12) 0.75640(13)
O22_3 O 0.05268(12) 0.25640(13) 0.81634(12)
O23_3 O 0.24360(13) 0.44732(12) 0.81634(12)
O24_3 O 0.18366(12) 0.44732(12) 0.75640(13)
C6_3 C 0.36463(18) 0.2004(3) 0.86463(18)
C7_3 C 0.36463(18) 0.13537(18) 0.7996(3)
C8_3 C 0.2996(3) 0.13537(18) 0.86463(18)
C9_3 C 0.2004(3) 0.36463(18) 0.86463(18)
C10_3 C 0.13537(18) 0.36463(18) 0.7996(3)
C11_3 C 0.13537(18) 0.2996(3) 0.86463(18)
C17_3 C 0.32165(17) 0.17835(17) 0.8854(2)
C18_3 C 0.3854(2) 0.17835(17) 0.82165(17)
C19_3 C 0.32165(17) 0.1146(2) 0.82165(17)
C20_3 C 0.17835(17) 0.32165(17) 0.8854(2)
C21_3 C 0.17835(17) 0.3854(2) 0.82165(17)
C22_3 C 0.1146(2) 0.32165(17) 0.82165(17)
C28_3 C 0.29579(18) 0.20421(18) 0.9304(2)
C29_3 C 0.29579(18) 0.0696(2) 0.79579(18)
C30_3 C 0.4304(2) 0.20421(18) 0.79579(18)
C31_3 C 0.20421(18) 0.29579(18) 0.9304(2)
C32_3 C 0.0696(2) 0.29579(18) 0.79579(18)
C33_3 C 0.20421(18) 0.4304(2) 0.79579(18)
H4_3 H 0.3794 0.2297 0.8794
H5_3 H 0.2703 0.1206 0.8794
H6_3 H 0.3794 0.1206 0.7703
H7_3 H 0.2297 0.3794 0.8794
H8_3 H 0.1206 0.2703 0.8794
H9_3 H 0.1206 0.3794 0.7703
Cu15_4 Cu 0.28506(3) 1.0000 0.28506(3)
Cu16_4 Cu 0.21494(3) 1.0000 0.21494(3)
Cu7_4 Cu 0.28506(3) 1.0000 0.71494(3)
Cu8_4 Cu 0.21494(3) 1.0000 0.78506(3)
O4_4 O 1.0000 0.3438(2) 0.3438(2)
O5_4 O 1.0000 0.1562(2) 0.1562(2)
O32_3 O 0.94732(12) 0.31634(12) 0.24360(13)
O35_3 O 0.94732(12) 0.25640(13) 0.18366(12)
O6_5 O 0.3438(2) -0.0000 0.6562(2)
O7_5 O 0.1562(2) -0.0000 0.8438(2)
O38_4 O 0.24360(13) 0.05268(12) 0.68366(12)
O41_4 O 0.18366(12) 0.05268(12) 0.74360(13)
Cu1_6 Cu 0.21494(3) 0.71494(3) 0.5000
O1_6 O 0.1562(2) 0.6562(2) 0.5000
O2_4 O 0.18366(12) 0.75640(13) 0.55268(12)
C1_4 C 0.2004(3) 0.86463(18) 0.63537(18)
C2_4 C 0.17835(17) 0.82165(17) 0.6146(2)
C3_4 C 0.20421(18) 0.79579(18) 0.5696(2)
H1_4 H 0.2297 0.8794 0.6206
Cu2_6 Cu 0.28506(3) 0.78506(3) 0.5000
O3_6 O 0.3438(2) 0.8438(2) 0.5000
O4_5 O -0.0000 0.8438(2) 0.8438(2)
O5_5 O -0.0000 0.6562(2) 0.6562(2)
O6_6 O 0.3438(2) 1.0000 0.6562(2)
O7_6 O 0.1562(2) 1.0000 0.8438(2)
O8_4 O 0.24360(13) 0.81634(12) 0.55268(12)
O9_4 O 0.05268(12) 0.81634(12) 0.74360(13)
O10_4 O 0.05268(12) 0.75640(13) 0.68366(12)
O11_4 O 0.24360(13) 0.94732(12) 0.68366(12)
O12_4 O 0.18366(12) 0.94732(12) 0.74360(13)
O13_4 O 0.25640(13) 0.68366(12) 0.44732(12)
O14_4 O 0.31634(12) 0.74360(13) 0.44732(12)
O19_4 O 0.18366(12) 0.75640(13) 0.44732(12)
O20_4 O 0.24360(13) 0.81634(12) 0.44732(12)
O21_4 O 0.05268(12) 0.81634(12) 0.25640(13)
O22_4 O 0.05268(12) 0.75640(13) 0.31634(12)
O23_4 O 0.24360(13) 0.94732(12) 0.31634(12)
O24_4 O 0.18366(12) 0.94732(12) 0.25640(13)
O25_4 O 0.25640(13) 0.68366(12) 0.55268(12)
O26_4 O 0.31634(12) 0.74360(13) 0.55268(12)
O27_4 O 0.31634(12) 0.55268(12) 0.74360(13)
O28_4 O 0.25640(13) 0.55268(12) 0.68366(12)
O29_4 O 0.44732(12) 0.74360(13) 0.68366(12)
O30_4 O 0.44732(12) 0.68366(12) 0.74360(13)
O33_4 O 0.05268(12) 0.74360(13) 0.81634(12)
O36_4 O 0.05268(12) 0.68366(12) 0.75640(13)
O39_4 O 0.31634(12) 0.94732(12) 0.75640(13)
O42_4 O 0.25640(13) 0.94732(12) 0.81634(12)
C4_4 C 0.13537(18) 0.86463(18) 0.7004(3)
C5_4 C 0.13537(18) 0.7996(3) 0.63537(18)
C6_4 C 0.36463(18) 0.7004(3) 0.36463(18)
C7_4 C 0.36463(18) 0.63537(18) 0.2996(3)
C8_4 C 0.2996(3) 0.63537(18) 0.36463(18)
C9_4 C 0.2004(3) 0.86463(18) 0.36463(18)
C10_4 C 0.13537(18) 0.86463(18) 0.2996(3)
C11_4 C 0.13537(18) 0.7996(3) 0.36463(18)
C12_4 C 0.36463(18) 0.7004(3) 0.63537(18)
C13_4 C 0.36463(18) 0.63537(18) 0.7004(3)
C14_4 C 0.2996(3) 0.63537(18) 0.63537(18)
C15_4 C 0.17835(17) 0.8854(2) 0.67835(17)
C16_4 C 0.1146(2) 0.82165(17) 0.67835(17)
C17_4 C 0.32165(17) 0.67835(17) 0.3854(2)
C18_4 C 0.3854(2) 0.67835(17) 0.32165(17)
C19_4 C 0.32165(17) 0.6146(2) 0.32165(17)
C20_4 C 0.17835(17) 0.82165(17) 0.3854(2)
C21_4 C 0.17835(17) 0.8854(2) 0.32165(17)
C22_4 C 0.1146(2) 0.82165(17) 0.32165(17)
C23_4 C 0.32165(17) 0.67835(17) 0.6146(2)
C24_4 C 0.3854(2) 0.67835(17) 0.67835(17)
C25_4 C 0.32165(17) 0.6146(2) 0.67835(17)
C26_4 C 0.0696(2) 0.79579(18) 0.70421(18)
C27_4 C 0.20421(18) 0.9304(2) 0.70421(18)
C28_4 C 0.29579(18) 0.70421(18) 0.4304(2)
C29_4 C 0.29579(18) 0.5696(2) 0.29579(18)
C30_4 C 0.4304(2) 0.70421(18) 0.29579(18)
C31_4 C 0.20421(18) 0.79579(18) 0.4304(2)
C32_4 C 0.0696(2) 0.79579(18) 0.29579(18)
C33_4 C 0.20421(18) 0.9304(2) 0.29579(18)
C34_4 C 0.29579(18) 0.70421(18) 0.5696(2)
C35_4 C 0.29579(18) 0.5696(2) 0.70421(18)
C36_4 C 0.4304(2) 0.70421(18) 0.70421(18)
H2_4 H 0.1206 0.7703 0.6206
H3_4 H 0.1206 0.8794 0.7297
H4_4 H 0.3794 0.7297 0.3794
H5_4 H 0.2703 0.6206 0.3794
H6_4 H 0.3794 0.6206 0.2703
H7_4 H 0.2297 0.8794 0.3794
H8_4 H 0.1206 0.7703 0.3794
H9_4 H 0.1206 0.8794 0.2703
H10_4 H 0.3794 0.7297 0.6206
H11_4 H 0.2703 0.6206 0.6206
H12_4 H 0.3794 0.6206 0.7297
O4_6 O 1.0000 0.8438(2) 0.8438(2)
O5_6 O 1.0000 0.6562(2) 0.6562(2)
O32_4 O 0.94732(12) 0.81634(12) 0.74360(13)
O35_4 O 0.94732(12) 0.75640(13) 0.68366(12)
Cu17_5 Cu 0.28506(3) 0.71494(3) -0.0000
Cu18_5 Cu 0.21494(3) 0.78506(3) -0.0000
O1_7 O 0.1562(2) 0.5000 0.6562(2)
Cu11_3 Cu 0.28506(3) 0.21494(3) 0.5000
Cu12_3 Cu 0.21494(3) 0.28506(3) 0.5000
Cu17_6 Cu 0.28506(3) 0.71494(3) 1.0000
Cu18_6 Cu 0.21494(3) 0.78506(3) 1.0000
O3_7 O 0.3438(2) 0.5000 0.8438(2)
O6_7 O 0.5000 0.6562(2) 0.8438(2)
O7_7 O 0.5000 0.8438(2) 0.6562(2)
O19_5 O 0.25640(13) 0.44732(12) 0.68366(12)
O20_5 O 0.31634(12) 0.44732(12) 0.74360(13)
O21_5 O 0.31634(12) 0.25640(13) 0.55268(12)
O22_5 O 0.25640(13) 0.31634(12) 0.55268(12)
O25_5 O 0.18366(12) 0.55268(12) 0.75640(13)
O26_5 O 0.24360(13) 0.55268(12) 0.81634(12)
O29_5 O 0.24360(13) 0.68366(12) 0.94732(12)
O30_5 O 0.18366(12) 0.74360(13) 0.94732(12)
O38_5 O 0.55268(12) 0.68366(12) 0.74360(13)
O39_5 O 0.44732(12) 0.75640(13) 0.81634(12)
O41_5 O 0.55268(12) 0.74360(13) 0.68366(12)
O42_5 O 0.44732(12) 0.81634(12) 0.75640(13)
C9_5 C 0.36463(18) 0.36463(18) 0.7004(3)
C10_5 C 0.36463(18) 0.2996(3) 0.63537(18)
C11_5 C 0.2996(3) 0.36463(18) 0.63537(18)
C12_5 C 0.2004(3) 0.63537(18) 0.86463(18)
C13_5 C 0.13537(18) 0.7004(3) 0.86463(18)
C14_5 C 0.13537(18) 0.63537(18) 0.7996(3)
C20_5 C 0.32165(17) 0.3854(2) 0.67835(17)
C21_5 C 0.3854(2) 0.32165(17) 0.67835(17)
C22_5 C 0.32165(17) 0.32165(17) 0.6146(2)
C23_5 C 0.17835(17) 0.6146(2) 0.82165(17)
C24_5 C 0.17835(17) 0.67835(17) 0.8854(2)
C25_5 C 0.1146(2) 0.67835(17) 0.82165(17)
C31_5 C 0.29579(18) 0.4304(2) 0.70421(18)
C32_5 C 0.29579(18) 0.29579(18) 0.5696(2)
C33_5 C 0.4304(2) 0.29579(18) 0.70421(18)
C34_5 C 0.20421(18) 0.5696(2) 0.79579(18)
C35_5 C 0.0696(2) 0.70421(18) 0.79579(18)
C36_5 C 0.20421(18) 0.70421(18) 0.9304(2)
H7_5 H 0.3794 0.3794 0.7297
H8_5 H 0.2703 0.3794 0.6206
H9_5 H 0.3794 0.2703 0.6206
H10_5 H 0.2297 0.6206 0.8794
H11_5 H 0.1206 0.6206 0.7703
H12_5 H 0.1206 0.7297 0.8794
O1_8 O 0.1562(2) -0.0000 0.1562(2)
O3_8 O 0.3438(2) -0.0000 0.3438(2)
O6_8 O 0.5000 0.1562(2) 0.3438(2)
O7_8 O 0.5000 0.3438(2) 0.1562(2)
O25_6 O 0.18366(12) 0.05268(12) 0.25640(13)
O26_6 O 0.24360(13) 0.05268(12) 0.31634(12)
O29_6 O 0.24360(13) 0.18366(12) 0.44732(12)
O30_6 O 0.18366(12) 0.24360(13) 0.44732(12)
O38_6 O 0.55268(12) 0.18366(12) 0.24360(13)
O39_6 O 0.44732(12) 0.25640(13) 0.31634(12)
O41_6 O 0.55268(12) 0.24360(13) 0.18366(12)
O42_6 O 0.44732(12) 0.31634(12) 0.25640(13)
C12_6 C 0.2004(3) 0.13537(18) 0.36463(18)
C13_6 C 0.13537(18) 0.2004(3) 0.36463(18)
C14_6 C 0.13537(18) 0.13537(18) 0.2996(3)
C23_6 C 0.17835(17) 0.1146(2) 0.32165(17)
C24_6 C 0.17835(17) 0.17835(17) 0.3854(2)
C25_6 C 0.1146(2) 0.17835(17) 0.32165(17)
C34_6 C 0.20421(18) 0.0696(2) 0.29579(18)
C35_6 C 0.0696(2) 0.20421(18) 0.29579(18)
C36_6 C 0.20421(18) 0.20421(18) 0.4304(2)
H10_6 H 0.2297 0.1206 0.3794
H11_6 H 0.1206 0.1206 0.2703
H12_6 H 0.1206 0.2297 0.3794
O1_9 O 0.1562(2) 1.0000 0.1562(2)
O3_9 O 0.3438(2) 1.0000 0.3438(2)
O19_6 O 0.25640(13) 0.94732(12) 0.18366(12)
O20_6 O 0.31634(12) 0.94732(12) 0.24360(13)
O21_6 O 0.31634(12) 0.75640(13) 0.05268(12)
O22_6 O 0.25640(13) 0.81634(12) 0.05268(12)
C9_6 C 0.36463(18) 0.86463(18) 0.2004(3)
C10_6 C 0.36463(18) 0.7996(3) 0.13537(18)
C11_6 C 0.2996(3) 0.86463(18) 0.13537(18)
C20_6 C 0.32165(17) 0.8854(2) 0.17835(17)
C21_6 C 0.3854(2) 0.82165(17) 0.17835(17)
C22_6 C 0.32165(17) 0.82165(17) 0.1146(2)
C31_6 C 0.29579(18) 0.9304(2) 0.20421(18)
C32_6 C 0.29579(18) 0.79579(18) 0.0696(2)
C33_6 C 0.4304(2) 0.79579(18) 0.20421(18)
H7_6 H 0.3794 0.8794 0.2297
H8_6 H 0.2703 0.8794 0.1206
H9_6 H 0.3794 0.7703 0.1206
O6_9 O -0.0000 0.6562(2) 0.3438(2)
O7_9 O -0.0000 0.8438(2) 0.1562(2)
O38_7 O 0.05268(12) 0.68366(12) 0.24360(13)
O41_7 O 0.05268(12) 0.74360(13) 0.18366(12)
O1_10 O 0.6562(2) 0.5000 0.1562(2)
Cu11_4 Cu 0.78506(3) 0.21494(3) -0.0000
Cu12_4 Cu 0.71494(3) 0.28506(3) -0.0000
Cu17_7 Cu 0.78506(3) 0.71494(3) 0.5000
Cu18_7 Cu 0.71494(3) 0.78506(3) 0.5000
O3_10 O 0.8438(2) 0.5000 0.3438(2)
O6_10 O 1.0000 0.6562(2) 0.3438(2)
O7_10 O 1.0000 0.8438(2) 0.1562(2)
O19_7 O 0.75640(13) 0.44732(12) 0.18366(12)
O20_7 O 0.81634(12) 0.44732(12) 0.24360(13)
O21_7 O 0.81634(12) 0.25640(13) 0.05268(12)
O22_7 O 0.75640(13) 0.31634(12) 0.05268(12)
O25_7 O 0.68366(12) 0.55268(12) 0.25640(13)
O26_7 O 0.74360(13) 0.55268(12) 0.31634(12)
O29_7 O 0.74360(13) 0.68366(12) 0.44732(12)
O30_7 O 0.68366(12) 0.74360(13) 0.44732(12)
O39_7 O 0.94732(12) 0.75640(13) 0.31634(12)
O42_7 O 0.94732(12) 0.81634(12) 0.25640(13)
C9_7 C 0.86463(18) 0.36463(18) 0.2004(3)
C10_7 C 0.86463(18) 0.2996(3) 0.13537(18)
C11_7 C 0.7996(3) 0.36463(18) 0.13537(18)
C12_7 C 0.7004(3) 0.63537(18) 0.36463(18)
C13_7 C 0.63537(18) 0.7004(3) 0.36463(18)
C14_7 C 0.63537(18) 0.63537(18) 0.2996(3)
C20_7 C 0.82165(17) 0.3854(2) 0.17835(17)
C21_7 C 0.8854(2) 0.32165(17) 0.17835(17)
C22_7 C 0.82165(17) 0.32165(17) 0.1146(2)
C23_7 C 0.67835(17) 0.6146(2) 0.32165(17)
C24_7 C 0.67835(17) 0.67835(17) 0.3854(2)
C25_7 C 0.6146(2) 0.67835(17) 0.32165(17)
C31_7 C 0.79579(18) 0.4304(2) 0.20421(18)
C32_7 C 0.79579(18) 0.29579(18) 0.0696(2)
C33_7 C 0.9304(2) 0.29579(18) 0.20421(18)
C34_7 C 0.70421(18) 0.5696(2) 0.29579(18)
C35_7 C 0.5696(2) 0.70421(18) 0.29579(18)
C36_7 C 0.70421(18) 0.70421(18) 0.4304(2)
H7_7 H 0.8794 0.3794 0.2297
H8_7 H 0.7703 0.3794 0.1206
H9_7 H 0.8794 0.2703 0.1206
H10_7 H 0.7297 0.6206 0.3794
H11_7 H 0.6206 0.6206 0.2703
H12_7 H 0.6206 0.7297 0.3794
Cu11_5 Cu 0.78506(3) 0.21494(3) 1.0000
Cu12_5 Cu 0.71494(3) 0.28506(3) 1.0000
O6_11 O -0.0000 0.1562(2) 0.8438(2)
O7_11 O -0.0000 0.3438(2) 0.6562(2)
O38_8 O 0.05268(12) 0.18366(12) 0.74360(13)
O41_8 O 0.05268(12) 0.24360(13) 0.68366(12)
O1_11 O 0.6562(2) -0.0000 0.6562(2)
O3_11 O 0.8438(2) -0.0000 0.8438(2)
O6_12 O 1.0000 0.1562(2) 0.8438(2)
O7_12 O 1.0000 0.3438(2) 0.6562(2)
O25_8 O 0.68366(12) 0.05268(12) 0.75640(13)
O26_8 O 0.74360(13) 0.05268(12) 0.81634(12)
O29_8 O 0.74360(13) 0.18366(12) 0.94732(12)
O30_8 O 0.68366(12) 0.24360(13) 0.94732(12)
O39_8 O 0.94732(12) 0.25640(13) 0.81634(12)
O42_8 O 0.94732(12) 0.31634(12) 0.75640(13)
C12_8 C 0.7004(3) 0.13537(18) 0.86463(18)
C13_8 C 0.63537(18) 0.2004(3) 0.86463(18)
C14_8 C 0.63537(18) 0.13537(18) 0.7996(3)
C23_8 C 0.67835(17) 0.1146(2) 0.82165(17)
C24_8 C 0.67835(17) 0.17835(17) 0.8854(2)
C25_8 C 0.6146(2) 0.17835(17) 0.82165(17)
C34_8 C 0.70421(18) 0.0696(2) 0.79579(18)
C35_8 C 0.5696(2) 0.20421(18) 0.79579(18)
C36_8 C 0.70421(18) 0.20421(18) 0.9304(2)
H10_8 H 0.7297 0.1206 0.8794
H11_8 H 0.6206 0.1206 0.7703
H12_8 H 0.6206 0.2297 0.8794
O1_12 O 0.6562(2) 1.0000 0.6562(2)
O3_12 O 0.8438(2) 1.0000 0.8438(2)
O19_8 O 0.75640(13) 0.94732(12) 0.68366(12)
O20_8 O 0.81634(12) 0.94732(12) 0.74360(13)
O21_8 O 0.81634(12) 0.75640(13) 0.55268(12)
O22_8 O 0.75640(13) 0.81634(12) 0.55268(12)
C9_8 C 0.86463(18) 0.86463(18) 0.7004(3)
C10_8 C 0.86463(18) 0.7996(3) 0.63537(18)
C11_8 C 0.7996(3) 0.86463(18) 0.63537(18)
C20_8 C 0.82165(17) 0.8854(2) 0.67835(17)
C21_8 C 0.8854(2) 0.82165(17) 0.67835(17)
C22_8 C 0.82165(17) 0.82165(17) 0.6146(2)
C31_8 C 0.79579(18) 0.9304(2) 0.70421(18)
C32_8 C 0.79579(18) 0.79579(18) 0.5696(2)
C33_8 C 0.9304(2) 0.79579(18) 0.70421(18)
H7_8 H 0.8794 0.8794 0.7297
H8_8 H 0.7703 0.8794 0.6206
H9_8 H 0.8794 0.7703 0.6206
O6_13 O 0.6562(2) 0.8438(2) 0.5000
O7_13 O 0.8438(2) 0.6562(2) 0.5000
O38_9 O 0.68366(12) 0.74360(13) 0.55268(12)
O39_9 O 0.75640(13) 0.81634(12) 0.44732(12)
O41_9 O 0.74360(13) 0.68366(12) 0.55268(12)
O42_9 O 0.81634(12) 0.75640(13) 0.44732(12)
O6_14 O 0.6562(2) 0.3438(2) -0.0000
O7_14 O 0.8438(2) 0.1562(2) -0.0000
O38_10 O 0.68366(12) 0.24360(13) 0.05268(12)
O41_10 O 0.74360(13) 0.18366(12) 0.05268(12)
O6_15 O 0.6562(2) 0.3438(2) 1.0000
O7_15 O 0.8438(2) 0.1562(2) 1.0000
O39_10 O 0.75640(13) 0.31634(12) 0.94732(12)
O42_10 O 0.81634(12) 0.25640(13) 0.94732(12)
O6_16 O 0.1562(2) 0.8438(2) -0.0000
O7_16 O 0.3438(2) 0.6562(2) -0.0000
O38_11 O 0.18366(12) 0.74360(13) 0.05268(12)
O41_11 O 0.24360(13) 0.68366(12) 0.05268(12)
O6_17 O 0.1562(2) 0.8438(2) 1.0000
O7_17 O 0.3438(2) 0.6562(2) 1.0000
O39_11 O 0.25640(13) 0.81634(12) 0.94732(12)
O42_11 O 0.31634(12) 0.75640(13) 0.94732(12)
O6_18 O 0.1562(2) 0.3438(2) 0.5000
O7_18 O 0.3438(2) 0.1562(2) 0.5000
O38_12 O 0.18366(12) 0.24360(13) 0.55268(12)
O39_12 O 0.25640(13) 0.31634(12) 0.44732(12)
O41_12 O 0.24360(13) 0.18366(12) 0.55268(12)
O42_12 O 0.31634(12) 0.25640(13) 0.44732(12)
C9_9 C 0.63537(18) 0.63537(18) 0.7004(3)
C10_9 C 0.63537(18) 0.7004(3) 0.63537(18)
C11_9 C 0.7004(3) 0.63537(18) 0.63537(18)
C12_9 C 0.7996(3) 0.36463(18) 0.86463(18)
C13_9 C 0.86463(18) 0.2996(3) 0.86463(18)
C14_9 C 0.86463(18) 0.36463(18) 0.7996(3)
C20_9 C 0.67835(17) 0.6146(2) 0.67835(17)
C21_9 C 0.6146(2) 0.67835(17) 0.67835(17)
C22_9 C 0.67835(17) 0.67835(17) 0.6146(2)
C23_9 C 0.82165(17) 0.3854(2) 0.82165(17)
C24_9 C 0.82165(17) 0.32165(17) 0.8854(2)
C25_9 C 0.8854(2) 0.32165(17) 0.82165(17)
C31_9 C 0.70421(18) 0.5696(2) 0.70421(18)
C32_9 C 0.70421(18) 0.70421(18) 0.5696(2)
C33_9 C 0.5696(2) 0.70421(18) 0.70421(18)
C34_9 C 0.79579(18) 0.4304(2) 0.79579(18)
C35_9 C 0.9304(2) 0.29579(18) 0.79579(18)
C36_9 C 0.79579(18) 0.29579(18) 0.9304(2)
H7_9 H 0.6206 0.6206 0.7297
H8_9 H 0.7297 0.6206 0.6206
H9_9 H 0.6206 0.7297 0.6206
H10_9 H 0.7703 0.3794 0.8794
H11_9 H 0.8794 0.3794 0.7703
H12_9 H 0.8794 0.2703 0.8794
C9_10 C 0.63537(18) 0.13537(18) 0.2004(3)
C10_10 C 0.63537(18) 0.2004(3) 0.13537(18)
C11_10 C 0.7004(3) 0.13537(18) 0.13537(18)
C20_10 C 0.67835(17) 0.1146(2) 0.17835(17)
C21_10 C 0.6146(2) 0.17835(17) 0.17835(17)
C22_10 C 0.67835(17) 0.17835(17) 0.1146(2)
C31_10 C 0.70421(18) 0.0696(2) 0.20421(18)
C32_10 C 0.70421(18) 0.20421(18) 0.0696(2)
C33_10 C 0.5696(2) 0.20421(18) 0.20421(18)
H7_10 H 0.6206 0.1206 0.2297
H8_10 H 0.7297 0.1206 0.1206
H9_10 H 0.6206 0.2297 0.1206
C12_10 C 0.7996(3) 0.86463(18) 0.36463(18)
C13_10 C 0.86463(18) 0.7996(3) 0.36463(18)
C14_10 C 0.86463(18) 0.86463(18) 0.2996(3)
C23_10 C 0.82165(17) 0.8854(2) 0.32165(17)
C24_10 C 0.82165(17) 0.82165(17) 0.3854(2)
C25_10 C 0.8854(2) 0.82165(17) 0.32165(17)
C34_10 C 0.79579(18) 0.9304(2) 0.29579(18)
C35_10 C 0.9304(2) 0.79579(18) 0.29579(18)
C36_10 C 0.79579(18) 0.79579(18) 0.4304(2)
H10_10 H 0.7703 0.8794 0.3794
H11_10 H 0.8794 0.8794 0.2703
H12_10 H 0.8794 0.7703 0.3794
C9_11 C 0.13537(18) 0.63537(18) 0.2004(3)
C10_11 C 0.13537(18) 0.7004(3) 0.13537(18)
C11_11 C 0.2004(3) 0.63537(18) 0.13537(18)
C12_11 C 0.2996(3) 0.36463(18) 0.36463(18)
C13_11 C 0.36463(18) 0.2996(3) 0.36463(18)
C14_11 C 0.36463(18) 0.36463(18) 0.2996(3)
C20_11 C 0.17835(17) 0.6146(2) 0.17835(17)
C21_11 C 0.1146(2) 0.67835(17) 0.17835(17)
C22_11 C 0.17835(17) 0.67835(17) 0.1146(2)
C23_11 C 0.32165(17) 0.3854(2) 0.32165(17)
C24_11 C 0.32165(17) 0.32165(17) 0.3854(2)
C25_11 C 0.3854(2) 0.32165(17) 0.32165(17)
C31_11 C 0.20421(18) 0.5696(2) 0.20421(18)
C32_11 C 0.20421(18) 0.70421(18) 0.0696(2)
C33_11 C 0.0696(2) 0.70421(18) 0.20421(18)
C34_11 C 0.29579(18) 0.4304(2) 0.29579(18)
C35_11 C 0.4304(2) 0.29579(18) 0.29579(18)
C36_11 C 0.29579(18) 0.29579(18) 0.4304(2)
H7_11 H 0.1206 0.6206 0.2297
H8_11 H 0.2297 0.6206 0.1206
H9_11 H 0.1206 0.7297 0.1206
H10_11 H 0.2703 0.3794 0.3794
H11_11 H 0.3794 0.3794 0.2703
H12_11 H 0.3794 0.2703 0.3794
C9_12 C 0.13537(18) 0.13537(18) 0.7004(3)
C10_12 C 0.13537(18) 0.2004(3) 0.63537(18)
C11_12 C 0.2004(3) 0.13537(18) 0.63537(18)
C20_12 C 0.17835(17) 0.1146(2) 0.67835(17)
C21_12 C 0.1146(2) 0.17835(17) 0.67835(17)
C22_12 C 0.17835(17) 0.17835(17) 0.6146(2)
C31_12 C 0.20421(18) 0.0696(2) 0.70421(18)
C32_12 C 0.20421(18) 0.20421(18) 0.5696(2)
C33_12 C 0.0696(2) 0.20421(18) 0.70421(18)
H7_12 H 0.1206 0.1206 0.7297
H8_12 H 0.2297 0.1206 0.6206
H9_12 H 0.1206 0.2297 0.6206
C12_12 C 0.2996(3) 0.86463(18) 0.86463(18)
C13_12 C 0.36463(18) 0.7996(3) 0.86463(18)
C14_12 C 0.36463(18) 0.86463(18) 0.7996(3)
C23_12 C 0.32165(17) 0.8854(2) 0.82165(17)
C24_12 C 0.32165(17) 0.82165(17) 0.8854(2)
C25_12 C 0.3854(2) 0.82165(17) 0.82165(17)
C34_12 C 0.29579(18) 0.9304(2) 0.79579(18)
C35_12 C 0.4304(2) 0.79579(18) 0.79579(18)
C36_12 C 0.29579(18) 0.79579(18) 0.9304(2)
H10_12 H 0.2703 0.8794 0.8794
H11_12 H 0.3794 0.8794 0.7703
H12_12 H 0.3794 0.7703 0.8794
loop_
_geom_bond_atom_site_label_1
_geom_bond_atom_site_label_2
_geom_bond_site_symmetry_1
_geom_bond_site_symmetry_2
Cu1 O1 1_555 1_555
O2 Cu1 1_555 1_555
C1 C2 1_555 1_555
C2 C3 1_555 1_555
C3 O2 1_555 1_555
H1 C1 1_555 1_555
Cu2 O3 1_555 1_555
Cu3 O4 1_555 1_555
Cu4 O5 1_555 1_555
Cu5 O6 1_555 1_555
Cu6 O7 1_555 1_555
Cu7 O15 1_555 1_555
Cu8 O16 1_555 1_555
Cu9_2 O17 1_555 1_555
Cu10_2 O18 1_555 1_555
Cu11 O21 1_555 1_555
Cu12 O22 1_555 1_555
Cu13 O23 1_555 1_555
Cu14 O24 1_555 1_555
Cu15 O27 1_555 1_555
Cu16 O28 1_555 1_555
Cu17_2 O29 1_555 1_555
Cu18_2 O30 1_555 1_555
O8 C3 1_555 1_555
O9 Cu3 1_555 1_555
O10 Cu4 1_555 1_555
O11 Cu5 1_555 1_555
O12 Cu6 1_555 1_555
O13 Cu1 1_555 1_555
O14 Cu2 1_555 1_555
O15 C29 1_555 1_555
O16 C29 1_555 1_555
O17 C30 1_555 1_555
O18 C30 1_555 1_555
O19 Cu1 1_555 1_555
O20 Cu2 1_555 1_555
O21 C32 1_555 1_555
O22 C32 1_555 1_555
O23 C33 1_555 1_555
O24 C33 1_555 1_555
O25 Cu1 1_555 1_555
O26 Cu2 1_555 1_555
O27 C35 1_555 1_555
O28 C35 1_555 1_555
O29 C36 1_555 1_555
O30 C36 1_555 1_555
O31 Cu3 1_555 1_555
O32 Cu3 1_555 1_555
O33 Cu3 1_555 1_555
O34 Cu4 1_555 1_555
O35 Cu4 1_555 1_555
O36 Cu4 1_555 1_555
O37 Cu5 1_555 1_555
O38 Cu5 1_555 1_555
O39 Cu5 1_555 1_555
O40 Cu6 1_555 1_555
O41 Cu6 1_555 1_555
O42 Cu6 1_555 1_555
C4 C15 1_555 1_555
C5 C2 1_555 1_555
C6 C17 1_555 1_555
C7 C18 1_555 1_555
C8 C17 1_555 1_555
C9 C20 1_555 1_555
C10 C21 1_555 1_555
C11 C20 1_555 1_555
C12 C23 1_555 1_555
C13 C24 1_555 1_555
C14 C23 1_555 1_555
C15 C1 1_555 1_555
C16 C4 1_555 1_555
C17 C28 1_555 1_555
C18 C6 1_555 1_555
C19 C7 1_555 1_555
C20 C31 1_555 1_555
C21 C9 1_555 1_555
C22 C10 1_555 1_555
C23 C34 1_555 1_555
C24 C12 1_555 1_555
C25 C13 1_555 1_555
C26 O9 1_555 1_555
C27 O11 1_555 1_555
C28 O13 1_555 1_555
C29 C19 1_555 1_555
C30 C18 1_555 1_555
C31 O19 1_555 1_555
C32 C22 1_555 1_555
C33 C21 1_555 1_555
C34 O25 1_555 1_555
C35 C25 1_555 1_555
C36 C24 1_555 1_555
H2 C5 1_555 1_555
H3 C4 1_555 1_555
H4 C6 1_555 1_555
H5 C8 1_555 1_555
H6 C7 1_555 1_555
H7 C9 1_555 1_555
H8 C11 1_555 1_555
H9 C10 1_555 1_555
H10 C12 1_555 1_555
H11 C14 1_555 1_555
H12 C13 1_555 1_555
Cu2 O8 1_555 1_555
O10 C26 1_555 1_555
O12 C27 1_555 1_555
O14 C28 1_555 1_555
O20 C31 1_555 1_555
O26 C34 1_555 1_555
C5 C16 1_555 1_555
C8 C19 1_555 1_555
C11 C22 1_555 1_555
C14 C25 1_555 1_555
C15 C27 1_555 1_555
C16 C26 1_555 1_555
Cu7 O6_2 1_555 1_555
Cu8 O7_2 1_555 1_555
O38_2 Cu7 1_555 1_555
O41_2 Cu8 1_555 1_555
Cu1_2 O1_2 1_555 1_555
O2_2 Cu1_2 1_555 1_555
C1_2 C2_2 1_555 1_555
C2_2 C3_2 1_555 1_555
C3_2 O2_2 1_555 1_555
H1_2 C1_2 1_555 1_555
Cu2_2 O3_2 1_555 1_555
Cu3_2 O4_2 1_555 1_555
Cu4_2 O5_2 1_555 1_555
Cu7_2 O6_3 1_555 1_555
Cu8_2 O7_3 1_555 1_555
Cu13 O27_2 1_555 1_555
Cu14 O28_2 1_555 1_555
Cu17_4 O29_2 1_555 1_555
Cu18_4 O30_2 1_555 1_555
O8_2 C3_2 1_555 1_555
O9_2 Cu3_2 1_555 1_555
O10_2 Cu4_2 1_555 1_555
O11_2 Cu7_2 1_555 1_555
O12_2 Cu8_2 1_555 1_555
O25_2 Cu1_2 1_555 1_555
O26_2 Cu2_2 1_555 1_555
O27_2 C35_2 1_555 1_555
O28_2 C35_2 1_555 1_555
O29_2 C36_2 1_555 1_555
O30_2 C36_2 1_555 1_555
O31_2 Cu3_2 1_555 1_555
O32_2 Cu3_2 1_555 1_555
O33_2 Cu3_2 1_555 1_555
O34_2 Cu4_2 1_555 1_555
O35_2 Cu4_2 1_555 1_555
O36_2 Cu4_2 1_555 1_555
O39_2 Cu7_2 1_555 1_555
O42_2 Cu8_2 1_555 1_555
C4_2 C15_2 1_555 1_555
C5_2 C2_2 1_555 1_555
C12_2 C23_2 1_555 1_555
C13_2 C24_2 1_555 1_555
C14_2 C23_2 1_555 1_555
C15_2 C1_2 1_555 1_555
C16_2 C4_2 1_555 1_555
C23_2 C34_2 1_555 1_555
C24_2 C12_2 1_555 1_555
C25_2 C13_2 1_555 1_555
C26_2 O9_2 1_555 1_555
C27_2 O11_2 1_555 1_555
C34_2 O25_2 1_555 1_555
C35_2 C25_2 1_555 1_555
C36_2 C24_2 1_555 1_555
H2_2 C5_2 1_555 1_555
H3_2 C4_2 1_555 1_555
H10_2 C12_2 1_555 1_555
H11_2 C14_2 1_555 1_555
H12_2 C13_2 1_555 1_555
Cu2_2 O8_2 1_555 1_555
O10_2 C26_2 1_555 1_555
O12_2 C27_2 1_555 1_555
O26_2 C34_2 1_555 1_555
C5_2 C16_2 1_555 1_555
C14_2 C25_2 1_555 1_555
C15_2 C27_2 1_555 1_555
C16_2 C26_2 1_555 1_555
Cu1_3 O1_3 1_555 1_555
Cu2_3 O3_3 1_555 1_555
Cu9_4 O17_2 1_555 1_555
Cu10_4 O18_2 1_555 1_555
Cu11_2 O21_2 1_555 1_555
Cu12_2 O22_2 1_555 1_555
Cu15_2 O23_2 1_555 1_555
Cu16_2 O24_2 1_555 1_555
O13_2 Cu1_3 1_555 1_555
O14_2 Cu2_3 1_555 1_555
O37 C29_2 1_555 1_555
O40 C29_2 1_555 1_555
O17_2 C30_2 1_555 1_555
O18_2 C30_2 1_555 1_555
O19_2 Cu1_3 1_555 1_555
O20_2 Cu2_3 1_555 1_555
O21_2 C32_2 1_555 1_555
O22_2 C32_2 1_555 1_555
O23_2 C33_2 1_555 1_555
O24_2 C33_2 1_555 1_555
C6_2 C17_2 1_555 1_555
C7_2 C18_2 1_555 1_555
C8_2 C17_2 1_555 1_555
C9_2 C20_2 1_555 1_555
C10_2 C21_2 1_555 1_555
C11_2 C20_2 1_555 1_555
C17_2 C28_2 1_555 1_555
C18_2 C6_2 1_555 1_555
C19_2 C7_2 1_555 1_555
C20_2 C31_2 1_555 1_555
C21_2 C9_2 1_555 1_555
C22_2 C10_2 1_555 1_555
C28_2 O13_2 1_555 1_555
C29_2 C19_2 1_555 1_555
C30_2 C18_2 1_555 1_555
C31_2 O19_2 1_555 1_555
C32_2 C22_2 1_555 1_555
C33_2 C21_2 1_555 1_555
H4_2 C6_2 1_555 1_555
H5_2 C8_2 1_555 1_555
H6_2 C7_2 1_555 1_555
H7_2 C9_2 1_555 1_555
H8_2 C11_2 1_555 1_555
H9_2 C10_2 1_555 1_555
O14_2 C28_2 1_555 1_555
O20_2 C31_2 1_555 1_555
C8_2 C19_2 1_555 1_555
C11_2 C22_2 1_555 1_555
Cu1_4 O1_4 1_555 1_555
O2_3 Cu1_4 1_555 1_555
C1_3 C2_3 1_555 1_555
C2_3 C3_3 1_555 1_555
C3_3 O2_3 1_555 1_555
H1_3 C1_3 1_555 1_555
Cu2_4 O3_4 1_555 1_555
Cu9 O4_3 1_555 1_555
Cu10 O5_3 1_555 1_555
Cu5_2 O6_4 1_555 1_555
Cu6_2 O7_4 1_555 1_555
Cu15_3 O27_3 1_555 1_555
Cu16_3 O28_3 1_555 1_555
Cu11 O29_3 1_555 1_555
Cu12 O30_3 1_555 1_555
O8_3 C3_3 1_555 1_555
O9_3 Cu9 1_555 1_555
O10_3 Cu10 1_555 1_555
O11_3 Cu5_2 1_555 1_555
O12_3 Cu6_2 1_555 1_555
O25_3 Cu1_4 1_555 1_555
O26_3 Cu2_4 1_555 1_555
O27_3 C35_3 1_555 1_555
O28_3 C35_3 1_555 1_555
O29_3 C36_3 1_555 1_555
O30_3 C36_3 1_555 1_555
O33_3 Cu9 1_555 1_555
O36_3 Cu10 1_555 1_555
O37_2 Cu5_2 1_555 1_555
O38_3 Cu5_2 1_555 1_555
O39_3 Cu5_2 1_555 1_555
O40_2 Cu6_2 1_555 1_555
O41_3 Cu6_2 1_555 1_555
O42_3 Cu6_2 1_555 1_555
C4_3 C15_3 1_555 1_555
C5_3 C2_3 1_555 1_555
C12_3 C23_3 1_555 1_555
C13_3 C24_3 1_555 1_555
C14_3 C23_3 1_555 1_555
C15_3 C1_3 1_555 1_555
C16_3 C4_3 1_555 1_555
C23_3 C34_3 1_555 1_555
C24_3 C12_3 1_555 1_555
C25_3 C13_3 1_555 1_555
C26_3 O9_3 1_555 1_555
C27_3 O11_3 1_555 1_555
C34_3 O25_3 1_555 1_555
C35_3 C25_3 1_555 1_555
C36_3 C24_3 1_555 1_555
H2_3 C5_3 1_555 1_555
H3_3 C4_3 1_555 1_555
H10_3 C12_3 1_555 1_555
H11_3 C14_3 1_555 1_555
H12_3 C13_3 1_555 1_555
Cu2_4 O8_3 1_555 1_555
O10_3 C26_3 1_555 1_555
O12_3 C27_3 1_555 1_555
O26_3 C34_3 1_555 1_555
C5_3 C16_3 1_555 1_555
C14_3 C25_3 1_555 1_555
C15_3 C27_3 1_555 1_555
C16_3 C26_3 1_555 1_555
Cu1_5 O1_5 1_555 1_555
Cu2_5 O3_5 1_555 1_555
Cu7_3 O15_2 1_555 1_555
Cu8_3 O16_2 1_555 1_555
Cu17 O21_3 1_555 1_555
Cu18 O22_3 1_555 1_555
Cu13_2 O23_3 1_555 1_555
Cu14_2 O24_3 1_555 1_555
O13_3 Cu1_5 1_555 1_555
O14_3 Cu2_5 1_555 1_555
O15_2 C29_3 1_555 1_555
O16_2 C29_3 1_555 1_555
O31 C30_3 1_555 1_555
O34 C30_3 1_555 1_555
O19_3 Cu1_5 1_555 1_555
O20_3 Cu2_5 1_555 1_555
O21_3 C32_3 1_555 1_555
O22_3 C32_3 1_555 1_555
O23_3 C33_3 1_555 1_555
O24_3 C33_3 1_555 1_555
C6_3 C17_3 1_555 1_555
C7_3 C18_3 1_555 1_555
C8_3 C17_3 1_555 1_555
C9_3 C20_3 1_555 1_555
C10_3 C21_3 1_555 1_555
C11_3 C20_3 1_555 1_555
C17_3 C28_3 1_555 1_555
C18_3 C6_3 1_555 1_555
C19_3 C7_3 1_555 1_555
C20_3 C31_3 1_555 1_555
C21_3 C9_3 1_555 1_555
C22_3 C10_3 1_555 1_555
C28_3 O13_3 1_555 1_555
C29_3 C19_3 1_555 1_555
C30_3 C18_3 1_555 1_555
C31_3 O19_3 1_555 1_555
C32_3 C22_3 1_555 1_555
C33_3 C21_3 1_555 1_555
H4_3 C6_3 1_555 1_555
H5_3 C8_3 1_555 1_555
H6_3 C7_3 1_555 1_555
H7_3 C9_3 1_555 1_555
H8_3 C11_3 1_555 1_555
H9_3 C10_3 1_555 1_555
O14_3 C28_3 1_555 1_555
O20_3 C31_3 1_555 1_555
C8_3 C19_3 1_555 1_555
C11_3 C22_3 1_555 1_555
Cu9_2 O4_4 1_555 1_555
Cu10_2 O5_4 1_555 1_555
O32_3 Cu9_2 1_555 1_555
O35_3 Cu10_2 1_555 1_555
Cu7_3 O6_5 1_555 1_555
Cu8_3 O7_5 1_555 1_555
O38_4 Cu7_3 1_555 1_555
O41_4 Cu8_3 1_555 1_555
Cu1_6 O1_6 1_555 1_555
O2_4 Cu1_6 1_555 1_555
C1_4 C2_4 1_555 1_555
C2_4 C3_4 1_555 1_555
C3_4 O2_4 1_555 1_555
H1_4 C1_4 1_555 1_555
Cu2_6 O3_6 1_555 1_555
Cu9_3 O4_5 1_555 1_555
Cu10_3 O5_5 1_555 1_555
Cu7_4 O6_6 1_555 1_555
Cu8_4 O7_6 1_555 1_555
Cu17_3 O21_4 1_555 1_555
Cu18_3 O22_4 1_555 1_555
Cu15_4 O23_4 1_555 1_555
Cu16_4 O24_4 1_555 1_555
Cu13_2 O27_4 1_555 1_555
Cu14_2 O28_4 1_555 1_555
Cu11_2 O29_4 1_555 1_555
Cu12_2 O30_4 1_555 1_555
O8_4 C3_4 1_555 1_555
O9_4 Cu9_3 1_555 1_555
O10_4 Cu10_3 1_555 1_555
O11_4 Cu7_4 1_555 1_555
O12_4 Cu8_4 1_555 1_555
O13_4 Cu1_6 1_555 1_555
O14_4 Cu2_6 1_555 1_555
O37_2 C29_4 1_555 1_555
O40_2 C29_4 1_555 1_555
O31_2 C30_4 1_555 1_555
O34_2 C30_4 1_555 1_555
O19_4 Cu1_6 1_555 1_555
O20_4 Cu2_6 1_555 1_555
O21_4 C32_4 1_555 1_555
O22_4 C32_4 1_555 1_555
O23_4 C33_4 1_555 1_555
O24_4 C33_4 1_555 1_555
O25_4 Cu1_6 1_555 1_555
O26_4 Cu2_6 1_555 1_555
O27_4 C35_4 1_555 1_555
O28_4 C35_4 1_555 1_555
O29_4 C36_4 1_555 1_555
O30_4 C36_4 1_555 1_555
O33_4 Cu9_3 1_555 1_555
O36_4 Cu10_3 1_555 1_555
O39_4 Cu7_4 1_555 1_555
O42_4 Cu8_4 1_555 1_555
C4_4 C15_4 1_555 1_555
C5_4 C2_4 1_555 1_555
C6_4 C17_4 1_555 1_555
C7_4 C18_4 1_555 1_555
C8_4 C17_4 1_555 1_555
C9_4 C20_4 1_555 1_555
C10_4 C21_4 1_555 1_555
C11_4 C20_4 1_555 1_555
C12_4 C23_4 1_555 1_555
C13_4 C24_4 1_555 1_555
C14_4 C23_4 1_555 1_555
C15_4 C1_4 1_555 1_555
C16_4 C4_4 1_555 1_555
C17_4 C28_4 1_555 1_555
C18_4 C6_4 1_555 1_555
C19_4 C7_4 1_555 1_555
C20_4 C31_4 1_555 1_555
C21_4 C9_4 1_555 1_555
C22_4 C10_4 1_555 1_555
C23_4 C34_4 1_555 1_555
C24_4 C12_4 1_555 1_555
C25_4 C13_4 1_555 1_555
C26_4 O9_4 1_555 1_555
C27_4 O11_4 1_555 1_555
C28_4 O13_4 1_555 1_555
C29_4 C19_4 1_555 1_555
C30_4 C18_4 1_555 1_555
C31_4 O19_4 1_555 1_555
C32_4 C22_4 1_555 1_555
C33_4 C21_4 1_555 1_555
C34_4 O25_4 1_555 1_555
C35_4 C25_4 1_555 1_555
C36_4 C24_4 1_555 1_555
H2_4 C5_4 1_555 1_555
H3_4 C4_4 1_555 1_555
H4_4 C6_4 1_555 1_555
H5_4 C8_4 1_555 1_555
H6_4 C7_4 1_555 1_555
H7_4 C9_4 1_555 1_555
H8_4 C11_4 1_555 1_555
H9_4 C10_4 1_555 1_555
H10_4 C12_4 1_555 1_555
H11_4 C14_4 1_555 1_555
H12_4 C13_4 1_555 1_555
Cu2_6 O8_4 1_555 1_555
O10_4 C26_4 1_555 1_555
O12_4 C27_4 1_555 1_555
O14_4 C28_4 1_555 1_555
O20_4 C31_4 1_555 1_555
O26_4 C34_4 1_555 1_555
C5_4 C16_4 1_555 1_555
C8_4 C19_4 1_555 1_555
C11_4 C22_4 1_555 1_555
C14_4 C25_4 1_555 1_555
C15_4 C27_4 1_555 1_555
C16_4 C26_4 1_555 1_555
Cu9_4 O4_6 1_555 1_555
Cu10_4 O5_6 1_555 1_555
O32_4 Cu9_4 1_555 1_555
O35_4 Cu10_4 1_555 1_555
Cu14_2 O1_7 1_555 1_555
Cu13_2 O3_7 1_555 1_555
Cu12_2 O6_7 1_555 1_555
Cu11_2 O7_7 1_555 1_555
Cu11_3 O21_5 1_555 1_555
Cu12_3 O22_5 1_555 1_555
Cu17_6 O29_5 1_555 1_555
Cu18_6 O30_5 1_555 1_555
O19_5 Cu14_2 1_555 1_555
O20_5 Cu13_2 1_555 1_555
O21_5 C32_5 1_555 1_555
O22_5 C32_5 1_555 1_555
O32 C33_5 1_555 1_555
O35 C33_5 1_555 1_555
O25_5 Cu14_2 1_555 1_555
O26_5 Cu13_2 1_555 1_555
O33_4 C35_5 1_555 1_555
O36_4 C35_5 1_555 1_555
O29_5 C36_5 1_555 1_555
O30_5 C36_5 1_555 1_555
O38_5 Cu12_2 1_555 1_555
O39_5 Cu12_2 1_555 1_555
O41_5 Cu11_2 1_555 1_555
O42_5 Cu11_2 1_555 1_555
C9_5 C20_5 1_555 1_555
C10_5 C21_5 1_555 1_555
C11_5 C20_5 1_555 1_555
C12_5 C23_5 1_555 1_555
C13_5 C24_5 1_555 1_555
C14_5 C23_5 1_555 1_555
C20_5 C31_5 1_555 1_555
C21_5 C9_5 1_555 1_555
C22_5 C10_5 1_555 1_555
C23_5 C34_5 1_555 1_555
C24_5 C12_5 1_555 1_555
C25_5 C13_5 1_555 1_555
C31_5 O19_5 1_555 1_555
C32_5 C22_5 1_555 1_555
C33_5 C21_5 1_555 1_555
C34_5 O25_5 1_555 1_555
C35_5 C25_5 1_555 1_555
C36_5 C24_5 1_555 1_555
H7_5 C9_5 1_555 1_555
H8_5 C11_5 1_555 1_555
H9_5 C10_5 1_555 1_555
H10_5 C12_5 1_555 1_555
H11_5 C14_5 1_555 1_555
H12_5 C13_5 1_555 1_555
O20_5 C31_5 1_555 1_555
O26_5 C34_5 1_555 1_555
C11_5 C22_5 1_555 1_555
C14_5 C25_5 1_555 1_555
Cu16_3 O1_8 1_555 1_555
Cu15_3 O3_8 1_555 1_555
Cu12 O6_8 1_555 1_555
Cu11 O7_8 1_555 1_555
Cu11_3 O29_6 1_555 1_555
Cu12_3 O30_6 1_555 1_555
O25_6 Cu16_3 1_555 1_555
O26_6 Cu15_3 1_555 1_555
O33_3 C35_6 1_555 1_555
O36_3 C35_6 1_555 1_555
O29_6 C36_6 1_555 1_555
O30_6 C36_6 1_555 1_555
O38_6 Cu12 1_555 1_555
O39_6 Cu12 1_555 1_555
O41_6 Cu11 1_555 1_555
O42_6 Cu11 1_555 1_555
C12_6 C23_6 1_555 1_555
C13_6 C24_6 1_555 1_555
C14_6 C23_6 1_555 1_555
C23_6 C34_6 1_555 1_555
C24_6 C12_6 1_555 1_555
C25_6 C13_6 1_555 1_555
C34_6 O25_6 1_555 1_555
C35_6 C25_6 1_555 1_555
C36_6 C24_6 1_555 1_555
H10_6 C12_6 1_555 1_555
H11_6 C14_6 1_555 1_555
H12_6 C13_6 1_555 1_555
O26_6 C34_6 1_555 1_555
C14_6 C25_6 1_555 1_555
Cu16_4 O1_9 1_555 1_555
Cu15_4 O3_9 1_555 1_555
Cu17_5 O21_6 1_555 1_555
Cu18_5 O22_6 1_555 1_555
O19_6 Cu16_4 1_555 1_555
O20_6 Cu15_4 1_555 1_555
O21_6 C32_6 1_555 1_555
O22_6 C32_6 1_555 1_555
O32_2 C33_6 1_555 1_555
O35_2 C33_6 1_555 1_555
C9_6 C20_6 1_555 1_555
C10_6 C21_6 1_555 1_555
C11_6 C20_6 1_555 1_555
C20_6 C31_6 1_555 1_555
C21_6 C9_6 1_555 1_555
C22_6 C10_6 1_555 1_555
C31_6 O19_6 1_555 1_555
C32_6 C22_6 1_555 1_555
C33_6 C21_6 1_555 1_555
H7_6 C9_6 1_555 1_555
H8_6 C11_6 1_555 1_555
H9_6 C10_6 1_555 1_555
O20_6 C31_6 1_555 1_555
C11_6 C22_6 1_555 1_555
Cu18_3 O6_9 1_555 1_555
Cu17_3 O7_9 1_555 1_555
O38_7 Cu18_3 1_555 1_555
O41_7 Cu17_3 1_555 1_555
Cu14 O1_10 1_555 1_555
Cu13 O3_10 1_555 1_555
Cu18_4 O6_10 1_555 1_555
Cu17_4 O7_10 1_555 1_555
Cu11_4 O21_7 1_555 1_555
Cu12_4 O22_7 1_555 1_555
Cu17_7 O29_7 1_555 1_555
Cu18_7 O30_7 1_555 1_555
O19_7 Cu14 1_555 1_555
O20_7 Cu13 1_555 1_555
O21_7 C32_7 1_555 1_555
O22_7 C32_7 1_555 1_555
O32_3 C33_7 1_555 1_555
O35_3 C33_7 1_555 1_555
O25_7 Cu14 1_555 1_555
O26_7 Cu13 1_555 1_555
O33_2 C35_7 1_555 1_555
O36_2 C35_7 1_555 1_555
O29_7 C36_7 1_555 1_555
O30_7 C36_7 1_555 1_555
O39_7 Cu18_4 1_555 1_555
O42_7 Cu17_4 1_555 1_555
C9_7 C20_7 1_555 1_555
C10_7 C21_7 1_555 1_555
C11_7 C20_7 1_555 1_555
C12_7 C23_7 1_555 1_555
C13_7 C24_7 1_555 1_555
C14_7 C23_7 1_555 1_555
C20_7 C31_7 1_555 1_555
C21_7 C9_7 1_555 1_555
C22_7 C10_7 1_555 1_555
C23_7 C34_7 1_555 1_555
C24_7 C12_7 1_555 1_555
C25_7 C13_7 1_555 1_555
C31_7 O19_7 1_555 1_555
C32_7 C22_7 1_555 1_555
C33_7 C21_7 1_555 1_555
C34_7 O25_7 1_555 1_555
C35_7 C25_7 1_555 1_555
C36_7 C24_7 1_555 1_555
H7_7 C9_7 1_555 1_555
H8_7 C11_7 1_555 1_555
H9_7 C10_7 1_555 1_555
H10_7 C12_7 1_555 1_555
H11_7 C14_7 1_555 1_555
H12_7 C13_7 1_555 1_555
O20_7 C31_7 1_555 1_555
O26_7 C34_7 1_555 1_555
C11_7 C22_7 1_555 1_555
C14_7 C25_7 1_555 1_555
Cu18 O6_11 1_555 1_555
Cu17 O7_11 1_555 1_555
O38_8 Cu18 1_555 1_555
O41_8 Cu17 1_555 1_555
Cu16 O1_11 1_555 1_555
Cu15 O3_11 1_555 1_555
Cu18_2 O6_12 1_555 1_555
Cu17_2 O7_12 1_555 1_555
Cu11_5 O29_8 1_555 1_555
Cu12_5 O30_8 1_555 1_555
O25_8 Cu16 1_555 1_555
O26_8 Cu15 1_555 1_555
O33 C35_8 1_555 1_555
O36 C35_8 1_555 1_555
O29_8 C36_8 1_555 1_555
O30_8 C36_8 1_555 1_555
O39_8 Cu18_2 1_555 1_555
O42_8 Cu17_2 1_555 1_555
C12_8 C23_8 1_555 1_555
C13_8 C24_8 1_555 1_555
C14_8 C23_8 1_555 1_555
C23_8 C34_8 1_555 1_555
C24_8 C12_8 1_555 1_555
C25_8 C13_8 1_555 1_555
C34_8 O25_8 1_555 1_555
C35_8 C25_8 1_555 1_555
C36_8 C24_8 1_555 1_555
H10_8 C12_8 1_555 1_555
H11_8 C14_8 1_555 1_555
H12_8 C13_8 1_555 1_555
O26_8 C34_8 1_555 1_555
C14_8 C25_8 1_555 1_555
Cu16_2 O1_12 1_555 1_555
Cu15_2 O3_12 1_555 1_555
Cu17_7 O21_8 1_555 1_555
Cu18_7 O22_8 1_555 1_555
O19_8 Cu16_2 1_555 1_555
O20_8 Cu15_2 1_555 1_555
O21_8 C32_8 1_555 1_555
O22_8 C32_8 1_555 1_555
O32_4 C33_8 1_555 1_555
O35_4 C33_8 1_555 1_555
C9_8 C20_8 1_555 1_555
C10_8 C21_8 1_555 1_555
C11_8 C20_8 1_555 1_555
C20_8 C31_8 1_555 1_555
C21_8 C9_8 1_555 1_555
C22_8 C10_8 1_555 1_555
C31_8 O19_8 1_555 1_555
C32_8 C22_8 1_555 1_555
C33_8 C21_8 1_555 1_555
H7_8 C9_8 1_555 1_555
H8_8 C11_8 1_555 1_555
H9_8 C10_8 1_555 1_555
O20_8 C31_8 1_555 1_555
C11_8 C22_8 1_555 1_555
Cu18_7 O6_13 1_555 1_555
Cu17_7 O7_13 1_555 1_555
O38_9 Cu18_7 1_555 1_555
O39_9 Cu18_7 1_555 1_555
O41_9 Cu17_7 1_555 1_555
O42_9 Cu17_7 1_555 1_555
Cu12_4 O6_14 1_555 1_555
Cu11_4 O7_14 1_555 1_555
O38_10 Cu12_4 1_555 1_555
O41_10 Cu11_4 1_555 1_555
Cu12_5 O6_15 1_555 1_555
Cu11_5 O7_15 1_555 1_555
O39_10 Cu12_5 1_555 1_555
O42_10 Cu11_5 1_555 1_555
Cu18_5 O6_16 1_555 1_555
Cu17_5 O7_16 1_555 1_555
O38_11 Cu18_5 1_555 1_555
O41_11 Cu17_5 1_555 1_555
Cu18_6 O6_17 1_555 1_555
Cu17_6 O7_17 1_555 1_555
O39_11 Cu18_6 1_555 1_555
O42_11 Cu17_6 1_555 1_555
Cu12_3 O6_18 1_555 1_555
Cu11_3 O7_18 1_555 1_555
O38_12 Cu12_3 1_555 1_555
O39_12 Cu12_3 1_555 1_555
O41_12 Cu11_3 1_555 1_555
O42_12 Cu11_3 1_555 1_555
O38_9 C32_9 1_555 1_555
O41_9 C32_9 1_555 1_555
O38_5 C33_9 1_555 1_555
O41_5 C33_9 1_555 1_555
O39_8 C35_9 1_555 1_555
O42_8 C35_9 1_555 1_555
O39_10 C36_9 1_555 1_555
O42_10 C36_9 1_555 1_555
C9_9 C20_9 1_555 1_555
C10_9 C21_9 1_555 1_555
C11_9 C20_9 1_555 1_555
C12_9 C23_9 1_555 1_555
C13_9 C24_9 1_555 1_555
C14_9 C23_9 1_555 1_555
C20_9 C31_9 1_555 1_555
C21_9 C9_9 1_555 1_555
C22_9 C10_9 1_555 1_555
C23_9 C34_9 1_555 1_555
C24_9 C12_9 1_555 1_555
C25_9 C13_9 1_555 1_555
C31_9 O38 1_555 1_555
C32_9 C22_9 1_555 1_555
C33_9 C21_9 1_555 1_555
C34_9 O39 1_555 1_555
C35_9 C25_9 1_555 1_555
C36_9 C24_9 1_555 1_555
H7_9 C9_9 1_555 1_555
H8_9 C11_9 1_555 1_555
H9_9 C10_9 1_555 1_555
H10_9 C12_9 1_555 1_555
H11_9 C14_9 1_555 1_555
H12_9 C13_9 1_555 1_555
O41 C31_9 1_555 1_555
O42 C34_9 1_555 1_555
C11_9 C22_9 1_555 1_555
C14_9 C25_9 1_555 1_555
O38_10 C32_10 1_555 1_555
O41_10 C32_10 1_555 1_555
O38_6 C33_10 1_555 1_555
O41_6 C33_10 1_555 1_555
C9_10 C20_10 1_555 1_555
C10_10 C21_10 1_555 1_555
C11_10 C20_10 1_555 1_555
C20_10 C31_10 1_555 1_555
C21_10 C9_10 1_555 1_555
C22_10 C10_10 1_555 1_555
C31_10 O38_2 1_555 1_555
C32_10 C22_10 1_555 1_555
C33_10 C21_10 1_555 1_555
H7_10 C9_10 1_555 1_555
H8_10 C11_10 1_555 1_555
H9_10 C10_10 1_555 1_555
O41_2 C31_10 1_555 1_555
C11_10 C22_10 1_555 1_555
O39_7 C35_10 1_555 1_555
O42_7 C35_10 1_555 1_555
O39_9 C36_10 1_555 1_555
O42_9 C36_10 1_555 1_555
C12_10 C23_10 1_555 1_555
C13_10 C24_10 1_555 1_555
C14_10 C23_10 1_555 1_555
C23_10 C34_10 1_555 1_555
C24_10 C12_10 1_555 1_555
C25_10 C13_10 1_555 1_555
C34_10 O39_2 1_555 1_555
C35_10 C25_10 1_555 1_555
C36_10 C24_10 1_555 1_555
H10_10 C12_10 1_555 1_555
H11_10 C14_10 1_555 1_555
H12_10 C13_10 1_555 1_555
O42_2 C34_10 1_555 1_555
C14_10 C25_10 1_555 1_555
O38_11 C32_11 1_555 1_555
O41_11 C32_11 1_555 1_555
O38_7 C33_11 1_555 1_555
O41_7 C33_11 1_555 1_555
O39_6 C35_11 1_555 1_555
O42_6 C35_11 1_555 1_555
O39_12 C36_11 1_555 1_555
O42_12 C36_11 1_555 1_555
C9_11 C20_11 1_555 1_555
C10_11 C21_11 1_555 1_555
C11_11 C20_11 1_555 1_555
C12_11 C23_11 1_555 1_555
C13_11 C24_11 1_555 1_555
C14_11 C23_11 1_555 1_555
C20_11 C31_11 1_555 1_555
C21_11 C9_11 1_555 1_555
C22_11 C10_11 1_555 1_555
C23_11 C34_11 1_555 1_555
C24_11 C12_11 1_555 1_555
C25_11 C13_11 1_555 1_555
C31_11 O38_3 1_555 1_555
C32_11 C22_11 1_555 1_555
C33_11 C21_11 1_555 1_555
C34_11 O39_3 1_555 1_555
C35_11 C25_11 1_555 1_555
C36_11 C24_11 1_555 1_555
H7_11 C9_11 1_555 1_555
H8_11 C11_11 1_555 1_555
H9_11 C10_11 1_555 1_555
H10_11 C12_11 1_555 1_555
H11_11 C14_11 1_555 1_555
H12_11 C13_11 1_555 1_555
O41_3 C31_11 1_555 1_555
O42_3 C34_11 1_555 1_555
C11_11 C22_11 1_555 1_555
C14_11 C25_11 1_555 1_555
O38_12 C32_12 1_555 1_555
O41_12 C32_12 1_555 1_555
O38_8 C33_12 1_555 1_555
O41_8 C33_12 1_555 1_555
C9_12 C20_12 1_555 1_555
C10_12 C21_12 1_555 1_555
C11_12 C20_12 1_555 1_555
C20_12 C31_12 1_555 1_555
C21_12 C9_12 1_555 1_555
C22_12 C10_12 1_555 1_555
C31_12 O38_4 1_555 1_555
C32_12 C22_12 1_555 1_555
C33_12 C21_12 1_555 1_555
H7_12 C9_12 1_555 1_555
H8_12 C11_12 1_555 1_555
H9_12 C10_12 1_555 1_555
O41_4 C31_12 1_555 1_555
C11_12 C22_12 1_555 1_555
O39_5 C35_12 1_555 1_555
O42_5 C35_12 1_555 1_555
O39_11 C36_12 1_555 1_555
O42_11 C36_12 1_555 1_555
C12_12 C23_12 1_555 1_555
C13_12 C24_12 1_555 1_555
C14_12 C23_12 1_555 1_555
C23_12 C34_12 1_555 1_555
C24_12 C12_12 1_555 1_555
C25_12 C13_12 1_555 1_555
C34_12 O39_4 1_555 1_555
C35_12 C25_12 1_555 1_555
C36_12 C24_12 1_555 1_555
H10_12 C12_12 1_555 1_555
H11_12 C14_12 1_555 1_555
H12_12 C13_12 1_555 1_555
O42_4 C34_12 1_555 1_555
C14_12 C25_12 1_555 1_555

#END
