
###############################################################################
#
# This file contains modified crystal structure data generated from the
# MOF subset of the Cambridge Structural Database (CSD) v543 
# hosted by the Cambridge Crystallographic Data Centre (CCDC).
#
# This work is licensed under the Creative Commons
# Attribution-NonCommercial-ShareAlike 4.0 International License.
# To view a copy of this license, visit
# http://creativecommons.org/licenses/by-nc-sa/4.0/
# or send a letter to
# Creative Commons, PO Box 1866, Mountain View, CA 94042, USA.
#
# CIF created using the CSD Python API on 29 September 2022
# The structure has been converted into the P1 space group
# The structure has a 3D framework
# The original CSD entry XAMGUQ is in the monoclinic crystal system
# The framework has been calculated to contain at least 10.0% void space
# The void calculation uses a probe of radius 1.32A, grid spacing 0.4
# H atom positions have been added when not included in the experimental data
#
###############################################################################

data_XAMGUQ
_chemical_formula_moiety         '(C352 H256 Co28 O140)n'
_symmetry_cell_setting           triclinic
_symmetry_space_group_name_H-M   'P 1'
_symmetry_Int_Tables_number      1
_space_group_name_Hall           'P 1'
loop_
_symmetry_equiv_pos_site_id
_symmetry_equiv_pos_as_xyz
1 x,y,z
_cell_length_a                   13.658(3)
_cell_length_b                   48.516(8)
_cell_length_c                   20.497(4)
_cell_angle_alpha                90
_cell_angle_beta                 99.784(11)
_cell_angle_gamma                90
_cell_volume                     13384.4
loop_
_atom_site_label
_atom_site_type_symbol
_atom_site_fract_x
_atom_site_fract_y
_atom_site_fract_z
O1 O 0.2696(15) 0.3181(4) 0.4955(6)
Co1 Co 0.0000 0.59458(4) 0.2500
Co2 Co 0.0000 0.31674(4) 0.2500
Co3 Co 0.17840(13) 0.31037(3) 0.39299(9)
O5 O 0.4691(6) 0.78617(16) 0.3144(4)
O8 O 0.2398(9) 0.7068(2) 0.4818(4)
O10 O 0.0883(7) 0.34163(18) 0.4095(4)
O11 O 0.5836(7) 0.77960(18) 0.4043(5)
C1 C 0.0116(9) 0.6590(2) 0.3852(6)
C4 C 0.4295(10) 0.7574(2) 0.3981(6)
C5 C 0.0207(11) 0.3547(2) 0.3715(7)
C6 C 0.0926(10) 0.6652(2) 0.3542(6)
H1 H 0.0945 0.6580 0.3124
C8 C 0.1636(12) 0.6924(3) 0.4455(7)
C9 C 0.3328(10) 0.7554(2) 0.3706(6)
H2 H 0.3101 0.7655 0.3326
C10 C 0.2655(11) 0.7390(3) 0.3963(7)
H3 H 0.1987 0.7387 0.3771
C12 C 0.1680(10) 0.6813(3) 0.3831(6)
H4 H 0.2218 0.6849 0.3620
C14 C 0.0149(11) 0.6707(3) 0.4485(7)
C17 C 0.5003(11) 0.7757(2) 0.3703(7)
C19 C 0.4643(11) 0.7418(3) 0.4553(7)
H7 H 0.5298 0.7432 0.4768
C20 C 0.0879(12) 0.6869(3) 0.4767(7)
H8 H 0.0865 0.6944 0.5183
C22 C 0.3001(13) 0.7233(3) 0.4505(7)
H12 H 0.0092 0.4700 0.3836
C29 C 0.0284(12) 0.3909(3) 0.4613(7)
H15 H 0.0756 0.3804 0.4885
H20 H 0.0272 0.4216 0.5240
C37 C 0.3971(16) 0.7242(3) 0.4788(7)
H22 H 0.4196 0.7128 0.5147
O18 O 0.2860(9) 0.2780(2) 0.3769(7)
C43 C 0.2474(15) 0.2913(4) 0.5334(10)
H25 H 0.2822 0.2921 0.5782
H26 H 0.2692 0.2755 0.5117
H27 H 0.1773 0.2900 0.5334
C44 C 0.298(2) 0.2512(5) 0.3304(9)
H28 H 0.3625 0.2432 0.3437
H29 H 0.2903 0.2568 0.2850
H30 H 0.2479 0.2378 0.3354
Co6 Co 0.21514(12) 0.60968(3) 0.18070(8)
O20 O 0.0592(6) 0.62623(16) 0.1952(4)
O21 O 0.0163(7) 0.34792(17) 0.1846(4)
O22 O 0.1493(6) 0.63961(16) 0.1227(4)
O24 O 0.0388(6) 0.56258(16) 0.1928(4)
O25 O 0.2612(6) 0.6140(2) 0.2752(4)
O27 O 0.1721(7) 0.57368(18) 0.1463(5)
O30 O 0.0992(10) 0.45492(19) 0.0294(5)
O31 O 0.4031(8) 0.6314(4) 0.5768(6)
C46 C 0.2623(9) 0.6141(3) 0.3881(6)
C47 C 0.1003(10) 0.5311(2) 0.1236(6)
C51 C 0.0124(10) 0.3816(2) 0.1011(6)
C55 C 0.0973(14) 0.4795(3) 0.0638(7)
C57 C 0.0844(12) 0.3968(3) 0.1407(7)
H35 H 0.1141 0.3903 0.1821
H36 H 0.0366 0.6668 0.0285
C59 C 0.0688(13) 0.4304(3) 0.0564(8)
C60 C 0.1007(12) 0.5579(3) 0.1577(6)
C62 C 0.2701(10) 0.6570(3) 0.7350(7)
C65 C 0.3998(12) 0.6313(4) 0.4657(9)
H39 H 0.4624 0.6395 0.4730
C67 C 0.2160(10) 0.6098(3) 0.4408(7)
H40 H 0.1522 0.6023 0.4337
C68 C 0.2336(10) 0.6686(3) 0.6717(7)
H41 H 0.1816 0.6812 0.6652
C69 C 0.0348(13) 0.4836(3) 0.1075(8)
C70 C 0.2614(11) 0.6161(3) 0.5051(7)
H43 H 0.2266 0.6133 0.5398
C71 C 0.3542(12) 0.6397(4) 0.6294(9)
C72 C 0.1575(15) 0.4994(3) 0.0466(8)
H44 H 0.1957 0.4961 0.0139
C74 C 0.1108(13) 0.4216(3) 0.1173(8)
H46 H 0.1580 0.4325 0.1434
C75 C 0.2820(13) 0.6597(4) 0.6188(7)
H47 H 0.2645 0.6675 0.5770
C76 C 0.3525(11) 0.6262(5) 0.5181(8)
C77 C 0.0396(12) 0.5095(3) 0.1388(7)
H48 H 0.0006 0.5125 0.1711
C78 C 0.1618(13) 0.5257(3) 0.0794(8)
H49 H 0.2066 0.5391 0.0704
C79 C 0.0005(12) 0.4152(3) 0.0178(7)
C80 C 0.3427(13) 0.6377(4) 0.7428(8)
H51 H 0.3657 0.6310 0.7852
C82 C 0.3563(11) 0.6248(4) 0.4027(7)
H53 H 0.3918 0.6276 0.3684
C83 C 0.3848(13) 0.6274(4) 0.6903(8)
H54 H 0.4307 0.6130 0.6960
O32 O 0.3518(9) 0.6079(3) 0.1529(7)
O33 O 0.1324(6) 0.59645(17) 0.3139(4)
C84 C 0.2128(10) 0.6074(3) 0.3227(6)
C85 C 0.0659(9) 0.6410(2) 0.1476(7)
O34 O 0.1585(6) 0.68417(17) 0.7859(4)
C86 C 0.2324(9) 0.6680(3) 0.7914(7)
O35 O 0.2706(7) 0.6617(2) 0.8489(5)
Co8 Co 0.5000 0.81674(4) 0.2500
Co10 Co 0.0000 0.68326(4) 0.7500
Co11 Co 0.67840(13) 0.81037(3) 0.39299(9)
Co14 Co 0.17840(13) 0.68963(3) 0.89299(9)
O38 O 0.0309(6) 0.28617(16) 0.1856(4)
O39 O 0.0836(7) 0.27960(18) 0.4043(5)
O41 O 0.1585(6) 0.31583(17) 0.2859(4)
O43 O 0.2706(7) 0.3383(2) 0.3489(5)
H63 H 0.393786 0.623232 0.174081
H64 H 0.383861 0.590015 0.167098
Co1_2 Co 1.0000 0.59458(4) 0.2500
Co2_2 Co 1.0000 0.31674(4) 0.2500
Co4 Co 0.78486(12) 0.60968(3) 0.31930(8)
O2 O 0.9408(6) 0.62623(16) 0.3048(4)
O3 O 0.9837(7) 0.34792(17) 0.3154(4)
O4 O 0.8507(6) 0.63961(16) 0.3773(4)
O6 O 0.9612(6) 0.56258(16) 0.3072(4)
O7 O 0.7388(6) 0.6140(2) 0.2248(4)
O9 O 0.8279(7) 0.57368(18) 0.3537(5)
O12 O 0.9008(10) 0.45492(19) 0.4706(5)
C2 C 0.7377(9) 0.6141(3) 0.1119(6)
C3 C 0.8997(10) 0.5311(2) 0.3764(6)
C7 C 0.9876(10) 0.3816(2) 0.3989(6)
C11 C 0.9027(14) 0.4795(3) 0.4362(7)
C13 C 0.9156(12) 0.3968(3) 0.3593(7)
H5 H 0.8859 0.3903 0.3179
H6 H 0.9634 0.6668 0.4715
C15 C 0.9312(13) 0.4304(3) 0.4436(8)
C16 C 0.8993(12) 0.5579(3) 0.3423(6)
C21 C 0.6002(12) 0.6313(4) 0.0343(9)
H9 H 0.5376 0.6395 0.0270
C23 C 0.7840(10) 0.6098(3) 0.0592(7)
H10 H 0.8478 0.6023 0.0663
C25 C 0.9652(13) 0.4836(3) 0.3925(8)
C28 C 0.8425(15) 0.4994(3) 0.4534(8)
H14 H 0.8043 0.4961 0.4861
C30 C 0.8892(13) 0.4216(3) 0.3827(8)
H16 H 0.8420 0.4325 0.3566
C33 C 0.9604(12) 0.5095(3) 0.3612(7)
H18 H 0.9994 0.5125 0.3289
C34 C 0.8382(13) 0.5257(3) 0.4206(8)
H19 H 0.7934 0.5391 0.4296
C35 C 0.9995(12) 0.4152(3) 0.4822(7)
C38 C 0.6437(11) 0.6248(4) 0.0973(7)
H23 H 0.6082 0.6276 0.1316
O14 O 0.6482(9) 0.6079(3) 0.3471(7)
O15 O 0.8676(6) 0.59645(17) 0.1861(4)
C40 C 0.7872(10) 0.6074(3) 0.1773(6)
C41 C 0.9341(9) 0.6410(2) 0.3524(7)
O19 O 0.7304(15) 0.3181(4) 0.0045(6)
Co5 Co 0.82160(13) 0.31037(3) 0.10701(9)
O23 O 0.5309(6) 0.78617(16) 0.1856(4)
O26 O 0.7602(9) 0.7068(2) 0.0182(4)
O28 O 0.9117(7) 0.34163(18) 0.0905(4)
O29 O 0.4164(7) 0.77960(18) 0.0957(5)
C45 C 0.9884(9) 0.6590(2) 0.1148(6)
C48 C 0.5705(10) 0.7574(2) 0.1019(6)
C49 C 0.9793(11) 0.3547(2) 0.1285(7)
C50 C 0.9074(10) 0.6652(2) 0.1458(6)
H31 H 0.9055 0.6580 0.1876
C52 C 0.8364(12) 0.6924(3) 0.0545(7)
C53 C 0.6672(10) 0.7554(2) 0.1294(6)
H32 H 0.6899 0.7655 0.1674
C54 C 0.7345(11) 0.7390(3) 0.1037(7)
H33 H 0.8013 0.7387 0.1229
C56 C 0.8320(10) 0.6813(3) 0.1169(6)
H34 H 0.7782 0.6849 0.1380
C58 C 0.9851(11) 0.6707(3) 0.0515(7)
C61 C 0.4997(11) 0.7757(2) 0.1297(7)
C63 C 0.5357(11) 0.7418(3) 0.0447(7)
H37 H 0.4702 0.7432 0.0232
C64 C 0.9121(12) 0.6869(3) 0.0233(7)
C66 C 0.6999(13) 0.7233(3) 0.0495(7)
H42 H 0.9908 0.4700 0.1164
C73 C 0.9716(12) 0.3909(3) 0.0387(7)
H45 H 0.9244 0.3804 0.0115
C81 C 0.6029(16) 0.7242(3) 0.0212(7)
O36 O 0.7140(9) 0.2780(2) 0.1231(7)
C88 C 0.702(2) 0.2512(5) 0.1696(9)
H58 H 0.6375 0.2432 0.1563
H59 H 0.7097 0.2568 0.2150
H60 H 0.7521 0.2378 0.1646
Co10_2 Co 1.0000 0.68326(4) 0.7500
Co12 Co 0.32160(13) 0.81037(3) 0.10701(9)
O37 O 0.9691(6) 0.28617(16) 0.3144(4)
O40 O 0.9164(7) 0.27960(18) 0.0957(5)
O42 O 0.8415(6) 0.31583(17) 0.2141(4)
O44 O 0.7294(7) 0.3383(2) 0.1511(5)
H61 H 0.606214 0.623232 0.325919
H62 H 0.616139 0.590015 0.332902
O13 O 0.5969(8) 0.6314(4) 0.9232(6)
C18 C 0.7299(10) 0.6570(3) 0.7650(7)
C24 C 0.7664(10) 0.6686(3) 0.8283(7)
H11 H 0.8184 0.6812 0.8348
C26 C 0.7386(11) 0.6161(3) 0.9949(7)
H13 H 0.7734 0.6133 0.9602
C27 C 0.6458(12) 0.6397(4) 0.8706(9)
C31 C 0.7180(13) 0.6597(4) 0.8812(7)
H17 H 0.7355 0.6675 0.9230
C32 C 0.6475(11) 0.6262(5) 0.9819(8)
C36 C 0.6573(13) 0.6377(4) 0.7572(8)
H21 H 0.6343 0.6310 0.7148
C39 C 0.6152(13) 0.6274(4) 0.8097(8)
H24 H 0.5693 0.6130 0.8040
O16 O 0.8415(6) 0.68417(17) 0.7141(4)
C42 C 0.7676(9) 0.6680(3) 0.7086(7)
O17 O 0.7294(7) 0.6617(2) 0.6511(5)
H38 H 0.9135 0.6944 0.9817
H50 H 0.9728 0.4216 0.9760
H52 H 0.5804 0.7128 0.9853
C87 C 0.7526(15) 0.2913(4) 0.9666(10)
H55 H 0.7178 0.2921 0.9218
H56 H 0.7308 0.2755 0.9883
H57 H 0.8227 0.2900 0.9666
Co13 Co 0.82160(13) 0.68963(3) 0.60701(9)
C17_2 C 0.0003(11) 0.2757(2) 0.3703(7)
H7_2 H 0.0298 0.2432 0.4768
Co1_3 Co 0.5000 0.09458(4) 0.2500
Co4_2 Co 0.28486(12) 0.10968(3) 0.31930(8)
O2_2 O 0.4408(6) 0.12623(16) 0.3048(4)
O4_2 O 0.3507(6) 0.13961(16) 0.3773(4)
O6_2 O 0.4612(6) 0.06258(16) 0.3072(4)
O7_2 O 0.2388(6) 0.1140(2) 0.2248(4)
O8_2 O 0.7398(9) 0.2068(2) 0.4818(4)
O9_2 O 0.3279(7) 0.07368(18) 0.3537(5)
C1_2 C 0.5116(9) 0.1590(2) 0.3852(6)
C2_2 C 0.2377(9) 0.1141(3) 0.1119(6)
C3_2 C 0.3997(10) 0.0311(2) 0.3764(6)
C4_2 C 0.9295(10) 0.2574(2) 0.3981(6)
C6_2 C 0.5926(10) 0.1652(2) 0.3542(6)
H1_2 H 0.5945 0.1580 0.3124
C8_2 C 0.6636(12) 0.1924(3) 0.4455(7)
C9_2 C 0.8328(10) 0.2554(2) 0.3706(6)
H2_2 H 0.8101 0.2655 0.3326
C10_2 C 0.7655(11) 0.2390(3) 0.3963(7)
H3_2 H 0.6987 0.2387 0.3771
C12_2 C 0.6680(10) 0.1813(3) 0.3831(6)
H4_2 H 0.7218 0.1849 0.3620
C14_2 C 0.5149(11) 0.1707(3) 0.4485(7)
H6_2 H 0.4634 0.1668 0.4715
C16_2 C 0.3993(12) 0.0579(3) 0.3423(6)
C19_2 C 0.9643(11) 0.2418(3) 0.4553(7)
C20_2 C 0.5879(12) 0.1869(3) 0.4767(7)
H8_2 H 0.5865 0.1944 0.5183
C21_2 C 0.1002(12) 0.1313(4) 0.0343(9)
H9_2 H 0.0376 0.1395 0.0270
C22_2 C 0.8001(13) 0.2233(3) 0.4505(7)
C23_2 C 0.2840(10) 0.1098(3) 0.0592(7)
H10_2 H 0.3478 0.1023 0.0663
C33_2 C 0.4604(12) 0.0095(3) 0.3612(7)
H18_2 H 0.4994 0.0125 0.3289
C34_2 C 0.3382(13) 0.0257(3) 0.4206(8)
H19_2 H 0.2934 0.0391 0.4296
C37_2 C 0.8971(16) 0.2242(3) 0.4788(7)
H22_2 H 0.9196 0.2128 0.5147
C38_2 C 0.1437(11) 0.1248(4) 0.0973(7)
H23_2 H 0.1082 0.1276 0.1316
O14_2 O 0.1482(9) 0.1079(3) 0.3471(7)
O15_2 O 0.3676(6) 0.09645(17) 0.1861(4)
C40_2 C 0.2872(10) 0.1074(3) 0.1773(6)
C41_2 C 0.4341(9) 0.1410(2) 0.3524(7)
Co6_2 Co 0.71514(12) 0.10968(3) 0.18070(8)
O20_2 O 0.5592(6) 0.12623(16) 0.1952(4)
O22_2 O 0.6493(6) 0.13961(16) 0.1227(4)
O24_2 O 0.5388(6) 0.06258(16) 0.1928(4)
O25_2 O 0.7612(6) 0.1140(2) 0.2752(4)
O26_2 O 0.2602(9) 0.2068(2) 0.0182(4)
O27_2 O 0.6721(7) 0.07368(18) 0.1463(5)
C45_2 C 0.4884(9) 0.1590(2) 0.1148(6)
O31_2 O 0.9031(8) 0.1314(4) 0.5768(6)
C46_2 C 0.7623(9) 0.1141(3) 0.3881(6)
C47_2 C 0.6003(10) 0.0311(2) 0.1236(6)
C48_2 C 0.0705(10) 0.2574(2) 0.1019(6)
C50_2 C 0.4074(10) 0.1652(2) 0.1458(6)
H31_2 H 0.4055 0.1580 0.1876
C52_2 C 0.3364(12) 0.1924(3) 0.0545(7)
C53_2 C 0.1672(10) 0.2554(2) 0.1294(6)
H32_2 H 0.1899 0.2655 0.1674
C54_2 C 0.2345(11) 0.2390(3) 0.1037(7)
H33_2 H 0.3013 0.2387 0.1229
C56_2 C 0.3320(10) 0.1813(3) 0.1169(6)
H34_2 H 0.2782 0.1849 0.1380
C58_2 C 0.4851(11) 0.1707(3) 0.0515(7)
H36_2 H 0.5366 0.1668 0.0285
C60_2 C 0.6007(12) 0.0579(3) 0.1577(6)
C62_2 C 0.7701(10) 0.1570(3) 0.7350(7)
C63_2 C 0.0357(11) 0.2418(3) 0.0447(7)
C64_2 C 0.4121(12) 0.1869(3) 0.0233(7)
C65_2 C 0.8998(12) 0.1313(4) 0.4657(9)
H39_2 H 0.9624 0.1395 0.4730
C66_2 C 0.1999(13) 0.2233(3) 0.0495(7)
C67_2 C 0.7160(10) 0.1098(3) 0.4408(7)
H40_2 H 0.6522 0.1023 0.4337
C68_2 C 0.7336(10) 0.1686(3) 0.6717(7)
H41_2 H 0.6816 0.1812 0.6652
C70_2 C 0.7614(11) 0.1161(3) 0.5051(7)
H43_2 H 0.7266 0.1133 0.5398
C71_2 C 0.8542(12) 0.1397(4) 0.6294(9)
C75_2 C 0.7820(13) 0.1597(4) 0.6188(7)
H47_2 H 0.7645 0.1675 0.5770
C76_2 C 0.8525(11) 0.1262(5) 0.5181(8)
C77_2 C 0.5396(12) 0.0095(3) 0.1388(7)
H48_2 H 0.5006 0.0125 0.1711
C78_2 C 0.6618(13) 0.0257(3) 0.0794(8)
H49_2 H 0.7066 0.0391 0.0704
C80_2 C 0.8427(13) 0.1377(4) 0.7428(8)
H51_2 H 0.8657 0.1310 0.7852
C81_2 C 0.1029(16) 0.2242(3) 0.0212(7)
C82_2 C 0.8563(11) 0.1248(4) 0.4027(7)
H53_2 H 0.8918 0.1276 0.3684
C83_2 C 0.8848(13) 0.1274(4) 0.6903(8)
H54_2 H 0.9307 0.1130 0.6960
O32_2 O 0.8518(9) 0.1079(3) 0.1529(7)
O33_2 O 0.6324(6) 0.09645(17) 0.3139(4)
C84_2 C 0.7128(10) 0.1074(3) 0.3227(6)
C85_2 C 0.5659(9) 0.1410(2) 0.1476(7)
O34_2 O 0.6585(6) 0.18417(17) 0.7859(4)
C86_2 C 0.7324(9) 0.1680(3) 0.7914(7)
O35_2 O 0.7706(7) 0.1617(2) 0.8489(5)
Co10_3 Co 0.5000 0.18326(4) 0.7500
Co14_2 Co 0.67840(13) 0.18963(3) 0.89299(9)
H61_2 H 0.106214 0.123232 0.325919
H62_2 H 0.116139 0.0900149 0.332902
H63_2 H 0.893786 0.123232 0.174081
H64_2 H 0.883861 0.0900149 0.167098
O13_2 O 0.0969(8) 0.1314(4) 0.9232(6)
C18_2 C 0.2299(10) 0.1570(3) 0.7650(7)
C24_2 C 0.2664(10) 0.1686(3) 0.8283(7)
H11_2 H 0.3184 0.1812 0.8348
C26_2 C 0.2386(11) 0.1161(3) 0.9949(7)
H13_2 H 0.2734 0.1133 0.9602
C27_2 C 0.1458(12) 0.1397(4) 0.8706(9)
C31_2 C 0.2180(13) 0.1597(4) 0.8812(7)
H17_2 H 0.2355 0.1675 0.9230
C32_2 C 0.1475(11) 0.1262(5) 0.9819(8)
C36_2 C 0.1573(13) 0.1377(4) 0.7572(8)
H21_2 H 0.1343 0.1310 0.7148
C39_2 C 0.1152(13) 0.1274(4) 0.8097(8)
H24_2 H 0.0693 0.1130 0.8040
O16_2 O 0.3415(6) 0.18417(17) 0.7141(4)
C42_2 C 0.2676(9) 0.1680(3) 0.7086(7)
O17_2 O 0.2294(7) 0.1617(2) 0.6511(5)
H38_2 H 0.4135 0.1944 0.9817
H52_2 H 0.0804 0.2128 0.9853
Co13_2 Co 0.32160(13) 0.18963(3) 0.60701(9)
O1_2 O 0.7696(15) 0.8181(4) 0.4955(6)
O3_2 O 0.4837(7) 0.84792(17) 0.3154(4)
O10_2 O 0.5883(7) 0.84163(18) 0.4095(4)
O12_2 O 0.4008(10) 0.95492(19) 0.4706(5)
C5_2 C 0.5207(11) 0.8547(2) 0.3715(7)
C7_2 C 0.4876(10) 0.8816(2) 0.3989(6)
C11_2 C 0.4027(14) 0.9795(3) 0.4362(7)
C13_2 C 0.4156(12) 0.8968(3) 0.3593(7)
H5_2 H 0.3859 0.8903 0.3179
C15_2 C 0.4312(13) 0.9304(3) 0.4436(8)
C25_2 C 0.4652(13) 0.9836(3) 0.3925(8)
H12_2 H 0.5092 0.9700 0.3836
C28_2 C 0.3425(15) 0.9994(3) 0.4534(8)
H14_2 H 0.3043 0.9961 0.4861
C29_2 C 0.5284(12) 0.8909(3) 0.4613(7)
H15_2 H 0.5756 0.8804 0.4885
C30_2 C 0.3892(13) 0.9216(3) 0.3827(8)
H16_2 H 0.3420 0.9325 0.3566
C35_2 C 0.4995(12) 0.9152(3) 0.4822(7)
H20_2 H 0.5272 0.9216 0.5240
O18_2 O 0.7860(9) 0.7780(2) 0.3769(7)
C43_2 C 0.7474(15) 0.7913(4) 0.5334(10)
H25_2 H 0.7822 0.7921 0.5782
H26_2 H 0.7692 0.7755 0.5117
H27_2 H 0.6773 0.7900 0.5334
C44_2 C 0.798(2) 0.7512(5) 0.3304(9)
H28_2 H 0.8625 0.7432 0.3437
H29_2 H 0.7903 0.7568 0.2850
H30_2 H 0.7479 0.7378 0.3354
O19_2 O 0.2304(15) 0.8181(4) 0.0045(6)
O21_2 O 0.5163(7) 0.84792(17) 0.1846(4)
O28_2 O 0.4117(7) 0.84163(18) 0.0905(4)
O30_2 O 0.5992(10) 0.95492(19) 0.0294(5)
C49_2 C 0.4793(11) 0.8547(2) 0.1285(7)
C51_2 C 0.5124(10) 0.8816(2) 0.1011(6)
C55_2 C 0.5973(14) 0.9795(3) 0.0638(7)
C57_2 C 0.5844(12) 0.8968(3) 0.1407(7)
H35_2 H 0.6141 0.8903 0.1821
C59_2 C 0.5688(13) 0.9304(3) 0.0564(8)
C69_2 C 0.5348(13) 0.9836(3) 0.1075(8)
H42_2 H 0.4908 0.9700 0.1164
C72_2 C 0.6575(15) 0.9994(3) 0.0466(8)
H44_2 H 0.6957 0.9961 0.0139
C73_2 C 0.4716(12) 0.8909(3) 0.0387(7)
H45_2 H 0.4244 0.8804 0.0115
C74_2 C 0.6108(13) 0.9216(3) 0.1173(8)
H46_2 H 0.6580 0.9325 0.1434
C79_2 C 0.5005(12) 0.9152(3) 0.0178(7)
O36_2 O 0.2140(9) 0.7780(2) 0.1231(7)
C88_2 C 0.202(2) 0.7512(5) 0.1696(9)
H58_2 H 0.1375 0.7432 0.1563
H59_2 H 0.2097 0.7568 0.2150
H60_2 H 0.2521 0.7378 0.1646
O41_2 O 0.6585(6) 0.81583(17) 0.2859(4)
O42_2 O 0.3415(6) 0.81583(17) 0.2141(4)
O43_2 O 0.7706(7) 0.8383(2) 0.3489(5)
O44_2 O 0.2294(7) 0.8383(2) 0.1511(5)
C61_2 C 0.9997(11) 0.2757(2) 0.1297(7)
H37_2 H 0.9702 0.2432 0.0232
O13_3 O 0.4031(8) 0.3686(4) 0.0768(6)
C18_3 C 0.2701(10) 0.3430(3) 0.2350(7)
C24_3 C 0.2336(10) 0.3314(3) 0.1717(7)
H11_3 H 0.1816 0.3188 0.1652
C26_3 C 0.2614(11) 0.3839(3) 0.0051(7)
H13_3 H 0.2266 0.3867 0.0398
C27_3 C 0.3542(12) 0.3603(4) 0.1294(9)
C31_3 C 0.2820(13) 0.3403(4) 0.1188(7)
H17_3 H 0.2645 0.3325 0.0770
C32_3 C 0.3525(11) 0.3738(5) 0.0181(8)
C36_3 C 0.3427(13) 0.3623(4) 0.2428(8)
H21_3 H 0.3657 0.3690 0.2852
C39_3 C 0.3848(13) 0.3726(4) 0.1903(8)
H24_3 H 0.4307 0.3870 0.1960
C42_3 C 0.2324(9) 0.3320(3) 0.2914(7)
H38_3 H 0.0865 0.3056 0.0183
H50_2 H 0.0272 0.5784 0.0240
H52_3 H 0.4196 0.2872 0.0147
C87_2 C 0.2474(15) 0.7087(4) 0.0334(10)
H55_2 H 0.2822 0.7079 0.0782
H56_2 H 0.2692 0.7245 0.0117
H57_2 H 0.1773 0.7100 0.0334
Co1_4 Co 0.0000 0.40542(4) 0.7500
Co4_3 Co 0.21514(12) 0.39032(3) 0.68070(8)
O2_3 O 0.0592(6) 0.37377(16) 0.6952(4)
O3_3 O 0.0163(7) 0.65208(17) 0.6846(4)
O4_3 O 0.1493(6) 0.36039(16) 0.6227(4)
O6_3 O 0.0388(6) 0.43742(16) 0.6928(4)
O7_3 O 0.2612(6) 0.3860(2) 0.7752(4)
O9_3 O 0.1721(7) 0.42632(18) 0.6463(5)
O12_3 O 0.0992(10) 0.54508(19) 0.5294(5)
C2_3 C 0.2623(9) 0.3859(3) 0.8881(6)
C3_3 C 0.1003(10) 0.4689(2) 0.6236(6)
C7_3 C 0.0124(10) 0.6184(2) 0.6011(6)
C11_3 C 0.0973(14) 0.5205(3) 0.5638(7)
C13_3 C 0.0844(12) 0.6032(3) 0.6407(7)
H5_3 H 0.1141 0.6097 0.6821
H6_3 H 0.0366 0.3332 0.5285
C15_3 C 0.0688(13) 0.5696(3) 0.5564(8)
C16_3 C 0.1007(12) 0.4421(3) 0.6577(6)
C21_3 C 0.3998(12) 0.3687(4) 0.9657(9)
H9_3 H 0.4624 0.3605 0.9730
C23_3 C 0.2160(10) 0.3902(3) 0.9408(7)
H10_3 H 0.1522 0.3977 0.9337
C25_3 C 0.0348(13) 0.5164(3) 0.6075(8)
C28_3 C 0.1575(15) 0.5006(3) 0.5466(8)
H14_3 H 0.1957 0.5039 0.5139
C30_3 C 0.1108(13) 0.5784(3) 0.6173(8)
H16_3 H 0.1580 0.5675 0.6434
C33_3 C 0.0396(12) 0.4905(3) 0.6388(7)
H18_3 H 0.0006 0.4875 0.6711
C34_3 C 0.1618(13) 0.4743(3) 0.5794(8)
H19_3 H 0.2066 0.4609 0.5704
C35_3 C 0.0005(12) 0.5848(3) 0.5178(7)
C38_3 C 0.3563(11) 0.3752(4) 0.9027(7)
H23_3 H 0.3918 0.3724 0.8684
O14_3 O 0.3518(9) 0.3921(3) 0.6529(7)
O15_3 O 0.1324(6) 0.40355(17) 0.8139(4)
C40_3 C 0.2128(10) 0.3926(3) 0.8227(6)
C41_3 C 0.0659(9) 0.3590(2) 0.6476(7)
O19_3 O 0.2696(15) 0.6819(4) 0.9955(6)
O23_2 O 0.4691(6) 0.21383(16) 0.8144(4)
O26_3 O 0.2398(9) 0.2932(2) 0.9818(4)
O28_3 O 0.0883(7) 0.65837(18) 0.9095(4)
O29_2 O 0.5836(7) 0.22040(18) 0.9043(5)
C45_3 C 0.0116(9) 0.3410(2) 0.8852(6)
C48_3 C 0.4295(10) 0.2426(2) 0.8981(6)
C49_3 C 0.0207(11) 0.6453(2) 0.8715(7)
C50_3 C 0.0926(10) 0.3348(2) 0.8542(6)
H31_3 H 0.0945 0.3420 0.8124
C52_3 C 0.1636(12) 0.3076(3) 0.9455(7)
C53_3 C 0.3328(10) 0.2446(2) 0.8706(6)
H32_3 H 0.3101 0.2345 0.8326
C54_3 C 0.2655(11) 0.2610(3) 0.8963(7)
H33_3 H 0.1987 0.2613 0.8771
C56_3 C 0.1680(10) 0.3187(3) 0.8831(6)
H34_3 H 0.2218 0.3151 0.8620
C58_3 C 0.0149(11) 0.3293(3) 0.9485(7)
C61_3 C 0.5003(11) 0.2243(2) 0.8703(7)
C63_3 C 0.4643(11) 0.2582(3) 0.9553(7)
H37_3 H 0.5298 0.2568 0.9768
C64_3 C 0.0879(12) 0.3131(3) 0.9767(7)
C66_3 C 0.3001(13) 0.2767(3) 0.9505(7)
H42_3 H 0.0092 0.5300 0.8836
C73_3 C 0.0284(12) 0.6091(3) 0.9613(7)
H45_3 H 0.0756 0.6196 0.9885
C81_3 C 0.3971(16) 0.2758(3) 0.9788(7)
O36_3 O 0.2860(9) 0.7220(2) 0.8769(7)
C88_3 C 0.298(2) 0.7488(5) 0.8304(9)
H58_3 H 0.3625 0.7568 0.8437
H59_3 H 0.2903 0.7432 0.7850
H60_3 H 0.2479 0.7622 0.8354
O37_2 O 0.0309(6) 0.71383(16) 0.6856(4)
O40_2 O 0.0836(7) 0.72040(18) 0.9043(5)
H61_3 H 0.393786 0.376768 0.674081
H62_3 H 0.383861 0.409985 0.667098
O1_3 O 0.7304(15) 0.6819(4) 0.5045(6)
Co1_5 Co 1.0000 0.40542(4) 0.7500
O5_2 O 0.5309(6) 0.21383(16) 0.6856(4)
O8_3 O 0.7602(9) 0.2932(2) 0.5182(4)
O10_3 O 0.9117(7) 0.65837(18) 0.5905(4)
O11_2 O 0.4164(7) 0.22040(18) 0.5957(5)
C1_3 C 0.9884(9) 0.3410(2) 0.6148(6)
C4_3 C 0.5705(10) 0.2426(2) 0.6019(6)
C5_3 C 0.9793(11) 0.6453(2) 0.6285(7)
C6_3 C 0.9074(10) 0.3348(2) 0.6458(6)
H1_3 H 0.9055 0.3420 0.6876
C8_3 C 0.8364(12) 0.3076(3) 0.5545(7)
C9_3 C 0.6672(10) 0.2446(2) 0.6294(6)
H2_3 H 0.6899 0.2345 0.6674
C10_3 C 0.7345(11) 0.2610(3) 0.6037(7)
H3_3 H 0.8013 0.2613 0.6229
C12_3 C 0.8320(10) 0.3187(3) 0.6169(6)
H4_3 H 0.7782 0.3151 0.6380
C14_3 C 0.9851(11) 0.3293(3) 0.5515(7)
C17_3 C 0.4997(11) 0.2243(2) 0.6297(7)
C19_3 C 0.5357(11) 0.2582(3) 0.5447(7)
H7_3 H 0.4702 0.2568 0.5232
C20_3 C 0.9121(12) 0.3131(3) 0.5233(7)
H8_3 H 0.9135 0.3056 0.4817
C22_3 C 0.6999(13) 0.2767(3) 0.5495(7)
H12_3 H 0.9908 0.5300 0.6164
C29_3 C 0.9716(12) 0.6091(3) 0.5387(7)
H15_3 H 0.9244 0.6196 0.5115
H20_3 H 0.9728 0.5784 0.4760
C37_3 C 0.6029(16) 0.2758(3) 0.5212(7)
H22_3 H 0.5804 0.2872 0.4853
O18_3 O 0.7140(9) 0.7220(2) 0.6231(7)
C43_3 C 0.7526(15) 0.7087(4) 0.4666(10)
H25_3 H 0.7178 0.7079 0.4218
H26_3 H 0.7308 0.7245 0.4883
H27_3 H 0.8227 0.7100 0.4666
C44_3 C 0.702(2) 0.7488(5) 0.6696(9)
H28_3 H 0.6375 0.7568 0.6563
H29_3 H 0.7097 0.7432 0.7150
H30_3 H 0.7521 0.7622 0.6646
Co6_3 Co 0.78486(12) 0.39032(3) 0.81930(8)
O20_3 O 0.9408(6) 0.37377(16) 0.8048(4)
O21_3 O 0.9837(7) 0.65208(17) 0.8154(4)
O22_3 O 0.8507(6) 0.36039(16) 0.8773(4)
O24_3 O 0.9612(6) 0.43742(16) 0.8072(4)
O25_3 O 0.7388(6) 0.3860(2) 0.7248(4)
O27_3 O 0.8279(7) 0.42632(18) 0.8537(5)
O30_3 O 0.9008(10) 0.54508(19) 0.9706(5)
O31_3 O 0.5969(8) 0.3686(4) 0.4232(6)
C46_3 C 0.7377(9) 0.3859(3) 0.6119(6)
C47_3 C 0.8997(10) 0.4689(2) 0.8764(6)
C51_3 C 0.9876(10) 0.6184(2) 0.8989(6)
C55_3 C 0.9027(14) 0.5205(3) 0.9362(7)
C57_3 C 0.9156(12) 0.6032(3) 0.8593(7)
H35_3 H 0.8859 0.6097 0.8179
H36_3 H 0.9634 0.3332 0.9715
C59_3 C 0.9312(13) 0.5696(3) 0.9436(8)
C60_3 C 0.8993(12) 0.4421(3) 0.8423(6)
C62_3 C 0.7299(10) 0.3430(3) 0.2650(7)
C65_3 C 0.6002(12) 0.3687(4) 0.5343(9)
H39_3 H 0.5376 0.3605 0.5270
C67_3 C 0.7840(10) 0.3902(3) 0.5592(7)
H40_3 H 0.8478 0.3977 0.5663
C68_3 C 0.7664(10) 0.3314(3) 0.3283(7)
H41_3 H 0.8184 0.3188 0.3348
C69_3 C 0.9652(13) 0.5164(3) 0.8925(8)
C70_3 C 0.7386(11) 0.3839(3) 0.4949(7)
H43_3 H 0.7734 0.3867 0.4602
C71_3 C 0.6458(12) 0.3603(4) 0.3706(9)
C72_3 C 0.8425(15) 0.5006(3) 0.9534(8)
H44_3 H 0.8043 0.5039 0.9861
C74_3 C 0.8892(13) 0.5784(3) 0.8827(8)
H46_3 H 0.8420 0.5675 0.8566
C75_3 C 0.7180(13) 0.3403(4) 0.3812(7)
H47_3 H 0.7355 0.3325 0.4230
C76_3 C 0.6475(11) 0.3738(5) 0.4819(8)
C77_3 C 0.9604(12) 0.4905(3) 0.8612(7)
H48_3 H 0.9994 0.4875 0.8289
C78_3 C 0.8382(13) 0.4743(3) 0.9206(8)
H49_3 H 0.7934 0.4609 0.9296
C79_3 C 0.9995(12) 0.5848(3) 0.9822(7)
C80_3 C 0.6573(13) 0.3623(4) 0.2572(8)
H51_3 H 0.6343 0.3690 0.2148
C82_3 C 0.6437(11) 0.3752(4) 0.5973(7)
H53_3 H 0.6082 0.3724 0.6316
C83_3 C 0.6152(13) 0.3726(4) 0.3097(8)
H54_3 H 0.5693 0.3870 0.3040
O32_3 O 0.6482(9) 0.3921(3) 0.8471(7)
O33_3 O 0.8676(6) 0.40355(17) 0.6861(4)
C84_3 C 0.7872(10) 0.3926(3) 0.6773(6)
C85_3 C 0.9341(9) 0.3590(2) 0.8524(7)
C86_3 C 0.7676(9) 0.3320(3) 0.2086(7)
O38_2 O 0.9691(6) 0.71383(16) 0.8144(4)
O39_2 O 0.9164(7) 0.72040(18) 0.5957(5)
H63_3 H 0.606214 0.376768 0.825919
H64_3 H 0.616139 0.409985 0.832902
C61_4 C 0.0003(11) 0.7243(2) 0.8703(7)
H37_4 H 0.0298 0.7568 0.9768
O1_4 O 0.2304(15) 0.1819(4) 0.5045(6)
O3_4 O 0.5163(7) 0.15208(17) 0.6846(4)
O10_4 O 0.4117(7) 0.15837(18) 0.5905(4)
O12_4 O 0.5992(10) 0.04508(19) 0.5294(5)
C5_4 C 0.4793(11) 0.1453(2) 0.6285(7)
C7_4 C 0.5124(10) 0.1184(2) 0.6011(6)
C11_4 C 0.5973(14) 0.0205(3) 0.5638(7)
C13_4 C 0.5844(12) 0.1032(3) 0.6407(7)
H5_4 H 0.6141 0.1097 0.6821
C15_4 C 0.5688(13) 0.0696(3) 0.5564(8)
C25_4 C 0.5348(13) 0.0164(3) 0.6075(8)
H12_4 H 0.4908 0.0300 0.6164
C28_4 C 0.6575(15) 0.0006(3) 0.5466(8)
H14_4 H 0.6957 0.0039 0.5139
C29_4 C 0.4716(12) 0.1091(3) 0.5387(7)
H15_4 H 0.4244 0.1196 0.5115
C30_4 C 0.6108(13) 0.0784(3) 0.6173(8)
H16_4 H 0.6580 0.0675 0.6434
C35_4 C 0.5005(12) 0.0848(3) 0.5178(7)
H20_4 H 0.4728 0.0784 0.4760
O18_4 O 0.2140(9) 0.2220(2) 0.6231(7)
C43_4 C 0.2526(15) 0.2087(4) 0.4666(10)
H25_4 H 0.2178 0.2079 0.4218
H26_4 H 0.2308 0.2245 0.4883
H27_4 H 0.3227 0.2100 0.4666
C44_4 C 0.202(2) 0.2488(5) 0.6696(9)
H28_4 H 0.1375 0.2568 0.6563
H29_4 H 0.2097 0.2432 0.7150
H30_4 H 0.2521 0.2622 0.6646
O19_4 O 0.7696(15) 0.1819(4) 0.9955(6)
O21_4 O 0.4837(7) 0.15208(17) 0.8154(4)
O28_4 O 0.5883(7) 0.15837(18) 0.9095(4)
O30_4 O 0.4008(10) 0.04508(19) 0.9706(5)
C49_4 C 0.5207(11) 0.1453(2) 0.8715(7)
C51_4 C 0.4876(10) 0.1184(2) 0.8989(6)
C55_4 C 0.4027(14) 0.0205(3) 0.9362(7)
C57_4 C 0.4156(12) 0.1032(3) 0.8593(7)
H35_4 H 0.3859 0.1097 0.8179
C59_4 C 0.4312(13) 0.0696(3) 0.9436(8)
C69_4 C 0.4652(13) 0.0164(3) 0.8925(8)
H42_4 H 0.5092 0.0300 0.8836
C72_4 C 0.3425(15) 0.0006(3) 0.9534(8)
H44_4 H 0.3043 0.0039 0.9861
C73_4 C 0.5284(12) 0.1091(3) 0.9613(7)
H45_4 H 0.5756 0.1196 0.9885
C74_4 C 0.3892(13) 0.0784(3) 0.8827(8)
H46_4 H 0.3420 0.0675 0.8566
C79_4 C 0.4995(12) 0.0848(3) 0.9822(7)
O36_4 O 0.7860(9) 0.2220(2) 0.8769(7)
C88_4 C 0.798(2) 0.2488(5) 0.8304(9)
H58_4 H 0.8625 0.2568 0.8437
H59_4 H 0.7903 0.2432 0.7850
H60_4 H 0.7479 0.2622 0.8354
O13_4 O 0.9031(8) 0.8686(4) 0.0768(6)
C18_4 C 0.7701(10) 0.8430(3) 0.2350(7)
C24_4 C 0.7336(10) 0.8314(3) 0.1717(7)
H11_4 H 0.6816 0.8188 0.1652
C26_4 C 0.7614(11) 0.8839(3) 0.0051(7)
H13_4 H 0.7266 0.8867 0.0398
C27_4 C 0.8542(12) 0.8603(4) 0.1294(9)
C31_4 C 0.7820(13) 0.8403(4) 0.1188(7)
H17_4 H 0.7645 0.8325 0.0770
C32_4 C 0.8525(11) 0.8738(5) 0.0181(8)
C36_4 C 0.8427(13) 0.8623(4) 0.2428(8)
H21_4 H 0.8657 0.8690 0.2852
C39_4 C 0.8848(13) 0.8726(4) 0.1903(8)
H24_4 H 0.9307 0.8870 0.1960
C42_4 C 0.7324(9) 0.8320(3) 0.2914(7)
H38_4 H 0.5865 0.8056 0.0183
H52_4 H 0.9196 0.7872 0.0147
Co1_6 Co 0.5000 0.90542(4) 0.7500
Co4_4 Co 0.71514(12) 0.89032(3) 0.68070(8)
O2_4 O 0.5592(6) 0.87377(16) 0.6952(4)
O4_4 O 0.6493(6) 0.86039(16) 0.6227(4)
O6_4 O 0.5388(6) 0.93742(16) 0.6928(4)
O7_4 O 0.7612(6) 0.8860(2) 0.7752(4)
O8_4 O 0.2602(9) 0.7932(2) 0.5182(4)
O9_4 O 0.6721(7) 0.92632(18) 0.6463(5)
C1_4 C 0.4884(9) 0.8410(2) 0.6148(6)
C2_4 C 0.7623(9) 0.8859(3) 0.8881(6)
C3_4 C 0.6003(10) 0.9689(2) 0.6236(6)
C4_4 C 0.0705(10) 0.7426(2) 0.6019(6)
C6_4 C 0.4074(10) 0.8348(2) 0.6458(6)
H1_4 H 0.4055 0.8420 0.6876
C8_4 C 0.3364(12) 0.8076(3) 0.5545(7)
C9_4 C 0.1672(10) 0.7446(2) 0.6294(6)
H2_4 H 0.1899 0.7345 0.6674
C10_4 C 0.2345(11) 0.7610(3) 0.6037(7)
H3_4 H 0.3013 0.7613 0.6229
C12_4 C 0.3320(10) 0.8187(3) 0.6169(6)
H4_4 H 0.2782 0.8151 0.6380
C14_4 C 0.4851(11) 0.8293(3) 0.5515(7)
H6_4 H 0.5366 0.8332 0.5285
C16_4 C 0.6007(12) 0.9421(3) 0.6577(6)
C19_4 C 0.0357(11) 0.7582(3) 0.5447(7)
C20_4 C 0.4121(12) 0.8131(3) 0.5233(7)
H8_4 H 0.4135 0.8056 0.4817
C21_4 C 0.8998(12) 0.8687(4) 0.9657(9)
H9_4 H 0.9624 0.8605 0.9730
C22_4 C 0.1999(13) 0.7767(3) 0.5495(7)
C23_4 C 0.7160(10) 0.8902(3) 0.9408(7)
H10_4 H 0.6522 0.8977 0.9337
C33_4 C 0.5396(12) 0.9905(3) 0.6388(7)
H18_4 H 0.5006 0.9875 0.6711
C34_4 C 0.6618(13) 0.9743(3) 0.5794(8)
H19_4 H 0.7066 0.9609 0.5704
C37_4 C 0.1029(16) 0.7758(3) 0.5212(7)
H22_4 H 0.0804 0.7872 0.4853
C38_4 C 0.8563(11) 0.8752(4) 0.9027(7)
H23_4 H 0.8918 0.8724 0.8684
O14_4 O 0.8518(9) 0.8921(3) 0.6529(7)
O15_4 O 0.6324(6) 0.90355(17) 0.8139(4)
C40_4 C 0.7128(10) 0.8926(3) 0.8227(6)
C41_4 C 0.5659(9) 0.8590(2) 0.6476(7)
Co6_4 Co 0.28486(12) 0.89032(3) 0.81930(8)
O20_4 O 0.4408(6) 0.87377(16) 0.8048(4)
O22_4 O 0.3507(6) 0.86039(16) 0.8773(4)
O24_4 O 0.4612(6) 0.93742(16) 0.8072(4)
O25_4 O 0.2388(6) 0.8860(2) 0.7248(4)
O26_4 O 0.7398(9) 0.7932(2) 0.9818(4)
O27_4 O 0.3279(7) 0.92632(18) 0.8537(5)
C45_4 C 0.5116(9) 0.8410(2) 0.8852(6)
O31_4 O 0.0969(8) 0.8686(4) 0.4232(6)
C46_4 C 0.2377(9) 0.8859(3) 0.6119(6)
C47_4 C 0.3997(10) 0.9689(2) 0.8764(6)
C48_4 C 0.9295(10) 0.7426(2) 0.8981(6)
C50_4 C 0.5926(10) 0.8348(2) 0.8542(6)
H31_4 H 0.5945 0.8420 0.8124
C52_4 C 0.6636(12) 0.8076(3) 0.9455(7)
C53_4 C 0.8328(10) 0.7446(2) 0.8706(6)
H32_4 H 0.8101 0.7345 0.8326
C54_4 C 0.7655(11) 0.7610(3) 0.8963(7)
H33_4 H 0.6987 0.7613 0.8771
C56_4 C 0.6680(10) 0.8187(3) 0.8831(6)
H34_4 H 0.7218 0.8151 0.8620
C58_4 C 0.5149(11) 0.8293(3) 0.9485(7)
H36_4 H 0.4634 0.8332 0.9715
C60_4 C 0.3993(12) 0.9421(3) 0.8423(6)
C62_4 C 0.2299(10) 0.8430(3) 0.2650(7)
C63_4 C 0.9643(11) 0.7582(3) 0.9553(7)
C64_4 C 0.5879(12) 0.8131(3) 0.9767(7)
C65_4 C 0.1002(12) 0.8687(4) 0.5343(9)
H39_4 H 0.0376 0.8605 0.5270
C66_4 C 0.8001(13) 0.7767(3) 0.9505(7)
C67_4 C 0.2840(10) 0.8902(3) 0.5592(7)
H40_4 H 0.3478 0.8977 0.5663
C68_4 C 0.2664(10) 0.8314(3) 0.3283(7)
H41_4 H 0.3184 0.8188 0.3348
C70_4 C 0.2386(11) 0.8839(3) 0.4949(7)
H43_4 H 0.2734 0.8867 0.4602
C71_4 C 0.1458(12) 0.8603(4) 0.3706(9)
C75_4 C 0.2180(13) 0.8403(4) 0.3812(7)
H47_4 H 0.2355 0.8325 0.4230
C76_4 C 0.1475(11) 0.8738(5) 0.4819(8)
C77_4 C 0.4604(12) 0.9905(3) 0.8612(7)
H48_4 H 0.4994 0.9875 0.8289
C78_4 C 0.3382(13) 0.9743(3) 0.9206(8)
H49_4 H 0.2934 0.9609 0.9296
C80_4 C 0.1573(13) 0.8623(4) 0.2572(8)
H51_4 H 0.1343 0.8690 0.2148
C81_4 C 0.8971(16) 0.7758(3) 0.9788(7)
C82_4 C 0.1437(11) 0.8752(4) 0.5973(7)
H53_4 H 0.1082 0.8724 0.6316
C83_4 C 0.1152(13) 0.8726(4) 0.3097(8)
H54_4 H 0.0693 0.8870 0.3040
O32_4 O 0.1482(9) 0.8921(3) 0.8471(7)
O33_4 O 0.3676(6) 0.90355(17) 0.6861(4)
C84_4 C 0.2872(10) 0.8926(3) 0.6773(6)
C85_4 C 0.4341(9) 0.8590(2) 0.8524(7)
C86_4 C 0.2676(9) 0.8320(3) 0.2086(7)
H61_4 H 0.893786 0.876768 0.674081
H62_4 H 0.883861 0.909985 0.667098
H63_4 H 0.106214 0.876768 0.825919
H64_4 H 0.116139 0.909985 0.832902
C17_4 C 0.9997(11) 0.7243(2) 0.6297(7)
H7_4 H 0.9702 0.7568 0.5232
H50_3 H 0.4728 0.9216 0.9760
C87_3 C 0.2526(15) 0.7913(4) 0.9666(10)
H55_3 H 0.2178 0.7921 0.9218
H56_3 H 0.2308 0.7755 0.9883
H57_3 H 0.3227 0.7900 0.9666
H50_4 H 0.5272 0.0784 0.0240
C87_4 C 0.7474(15) 0.2087(4) 0.0334(10)
H55_4 H 0.7822 0.2079 0.0782
H56_4 H 0.7692 0.2245 0.0117
H57_4 H 0.6773 0.2100 0.0334
loop_
_geom_bond_atom_site_label_1
_geom_bond_atom_site_label_2
_geom_bond_site_symmetry_1
_geom_bond_site_symmetry_2
O1 Co3 1_555 1_555
Co3 O10 1_555 1_555
O5 C17 1_555 1_555
O8 C8 1_555 1_555
O10 C5 1_555 1_555
O11 C17 1_555 1_555
C1 C6 1_555 1_555
C4 C9 1_555 1_555
C6 H1 1_555 1_555
C8 C12 1_555 1_555
C9 H2 1_555 1_555
C10 C9 1_555 1_555
H3 C10 1_555 1_555
C12 C6 1_555 1_555
H4 C12 1_555 1_555
C14 C1 1_555 1_555
C17 C4 1_555 1_555
C19 C4 1_555 1_555
H7 C19 1_555 1_555
C20 C8 1_555 1_555
H8 C20 1_555 1_555
C22 O8 1_555 1_555
H15 C29 1_555 1_555
C37 C19 1_555 1_555
H22 C37 1_555 1_555
O18 Co3 1_555 1_555
C43 O1 1_555 1_555
H25 C43 1_555 1_555
H26 C43 1_555 1_555
H27 C43 1_555 1_555
C44 O18 1_555 1_555
H28 C44 1_555 1_555
H29 C44 1_555 1_555
H30 C44 1_555 1_555
Co6 O20 1_555 1_555
O20 Co1 1_555 1_555
O21 Co2 1_555 1_555
O22 Co6 1_555 1_555
O24 Co1 1_555 1_555
O25 Co6 1_555 1_555
O27 Co6 1_555 1_555
O30 C55 1_555 1_555
O31 C71 1_555 1_555
C46 C67 1_555 1_555
C47 C60 1_555 1_555
C55 C69 1_555 1_555
C57 C51 1_555 1_555
H35 C57 1_555 1_555
C59 O30 1_555 1_555
C60 O24 1_555 1_555
C62 C68 1_555 1_555
C65 H39 1_555 1_555
C67 H40 1_555 1_555
C68 H41 1_555 1_555
C70 C67 1_555 1_555
H43 C70 1_555 1_555
C71 C75 1_555 1_555
C72 C55 1_555 1_555
H44 C72 1_555 1_555
C74 C57 1_555 1_555
H46 C74 1_555 1_555
C75 C68 1_555 1_555
H47 C75 1_555 1_555
C76 O31 1_555 1_555
C77 C47 1_555 1_555
H48 C77 1_555 1_555
C78 C47 1_555 1_555
H49 C78 1_555 1_555
C79 C59 1_555 1_555
C80 C62 1_555 1_555
H51 C80 1_555 1_555
C82 C46 1_555 1_555
H53 C82 1_555 1_555
C83 C71 1_555 1_555
H54 C83 1_555 1_555
O32 Co6 1_555 1_555
O33 Co1 1_555 1_555
C84 O25 1_555 1_555
C85 O20 1_555 1_555
O34 C86 1_555 1_555
C86 C62 1_555 1_555
O35 C86 1_555 1_555
Co8 O5 1_555 1_555
Co10 O34 1_555 1_555
Co11 O11 1_555 1_555
Co14 O34 1_555 1_555
O38 Co2 1_555 1_555
O39 Co3 1_555 1_555
O41 Co2 1_555 1_555
O43 Co3 1_555 1_555
Co3 O41 1_555 1_555
C10 C22 1_555 1_555
C14 C20 1_555 1_555
C22 C37 1_555 1_555
O22 C85 1_555 1_555
O27 C60 1_555 1_555
C46 C84 1_555 1_555
C59 C74 1_555 1_555
C65 C76 1_555 1_555
C65 C82 1_555 1_555
C69 C77 1_555 1_555
C70 C76 1_555 1_555
C72 C78 1_555 1_555
C80 C83 1_555 1_555
O33 C84 1_555 1_555
O35 Co14 1_555 1_555
O32 H63 1_555 1_555
O32 H64 1_555 1_555
Co1_2 O2 1_555 1_555
Co2_2 O3 1_555 1_555
Co4 O2 1_555 1_555
O2 C41 1_555 1_555
O4 Co4 1_555 1_555
O6 Co1_2 1_555 1_555
O7 Co4 1_555 1_555
O9 Co4 1_555 1_555
O12 C11 1_555 1_555
C2 C23 1_555 1_555
C3 C16 1_555 1_555
C7 C13 1_555 1_555
C11 C25 1_555 1_555
C13 H5 1_555 1_555
C15 O12 1_555 1_555
C16 O6 1_555 1_555
C21 H9 1_555 1_555
C23 H10 1_555 1_555
C28 C11 1_555 1_555
H14 C28 1_555 1_555
C30 C13 1_555 1_555
H16 C30 1_555 1_555
C33 C3 1_555 1_555
H18 C33 1_555 1_555
C34 C3 1_555 1_555
H19 C34 1_555 1_555
C35 C15 1_555 1_555
C38 C2 1_555 1_555
H23 C38 1_555 1_555
O14 Co4 1_555 1_555
O15 Co1_2 1_555 1_555
C40 O7 1_555 1_555
C41 O4 1_555 1_555
O19 Co5 1_555 1_555
Co5 O28 1_555 1_555
O23 C61 1_555 1_555
O26 C52 1_555 1_555
O28 C49 1_555 1_555
O29 C61 1_555 1_555
C45 C50 1_555 1_555
C48 C53 1_555 1_555
C50 H31 1_555 1_555
C52 C56 1_555 1_555
C53 H32 1_555 1_555
C54 C53 1_555 1_555
H33 C54 1_555 1_555
C56 C50 1_555 1_555
H34 C56 1_555 1_555
C58 C45 1_555 1_555
C61 C48 1_555 1_555
C63 C48 1_555 1_555
H37 C63 1_555 1_555
C64 C52 1_555 1_555
C66 O26 1_555 1_555
H45 C73 1_555 1_555
C81 C63 1_555 1_555
O36 Co5 1_555 1_555
C88 O36 1_555 1_555
H58 C88 1_555 1_555
H59 C88 1_555 1_555
H60 C88 1_555 1_555
Co8 O23 1_555 1_555
Co12 O29 1_555 1_555
O37 Co2_2 1_555 1_555
O40 Co5 1_555 1_555
O42 Co2_2 1_555 1_555
O44 Co5 1_555 1_555
O9 C16 1_555 1_555
C2 C40 1_555 1_555
C15 C30 1_555 1_555
C21 C38 1_555 1_555
C25 C33 1_555 1_555
C28 C34 1_555 1_555
O15 C40 1_555 1_555
Co5 O42 1_555 1_555
C54 C66 1_555 1_555
C58 C64 1_555 1_555
C66 C81 1_555 1_555
O14 H61 1_555 1_555
O14 H62 1_555 1_555
O13 C27 1_555 1_555
C18 C24 1_555 1_555
C24 H11 1_555 1_555
H13 C26 1_555 1_555
C27 C31 1_555 1_555
C31 C24 1_555 1_555
H17 C31 1_555 1_555
C32 O13 1_555 1_555
C36 C18 1_555 1_555
H21 C36 1_555 1_555
C39 C27 1_555 1_555
H24 C39 1_555 1_555
O16 C42 1_555 1_555
C42 C18 1_555 1_555
O17 C42 1_555 1_555
H55 C87 1_555 1_555
H56 C87 1_555 1_555
H57 C87 1_555 1_555
Co10_2 O16 1_555 1_555
Co13 O16 1_555 1_555
C26 C32 1_555 1_555
C36 C39 1_555 1_555
O17 Co13 1_555 1_555
O39 C17_2 1_555 1_555
Co1_3 O2_2 1_555 1_555
Co4_2 O2_2 1_555 1_555
O2_2 C41_2 1_555 1_555
O4_2 Co4_2 1_555 1_555
O6_2 Co1_3 1_555 1_555
O7_2 Co4_2 1_555 1_555
O8_2 C8_2 1_555 1_555
O9_2 Co4_2 1_555 1_555
C1_2 C6_2 1_555 1_555
C2_2 C23_2 1_555 1_555
C3_2 C16_2 1_555 1_555
C4_2 C9_2 1_555 1_555
C6_2 H1_2 1_555 1_555
C8_2 C12_2 1_555 1_555
C9_2 H2_2 1_555 1_555
C10_2 C9_2 1_555 1_555
H3_2 C10_2 1_555 1_555
C12_2 C6_2 1_555 1_555
H4_2 C12_2 1_555 1_555
C14_2 C1_2 1_555 1_555
H6_2 C14_2 1_555 1_555
C16_2 O6_2 1_555 1_555
C19_2 C4_2 1_555 1_555
C20_2 C8_2 1_555 1_555
H8_2 C20_2 1_555 1_555
C21_2 H9_2 1_555 1_555
C22_2 O8_2 1_555 1_555
C23_2 H10_2 1_555 1_555
C33_2 C3_2 1_555 1_555
H18_2 C33_2 1_555 1_555
C34_2 C3_2 1_555 1_555
H19_2 C34_2 1_555 1_555
C37_2 C19_2 1_555 1_555
H22_2 C37_2 1_555 1_555
C38_2 C2_2 1_555 1_555
H23_2 C38_2 1_555 1_555
O14_2 Co4_2 1_555 1_555
O15_2 Co1_3 1_555 1_555
C40_2 O7_2 1_555 1_555
C41_2 O4_2 1_555 1_555
Co6_2 O20_2 1_555 1_555
O20_2 Co1_3 1_555 1_555
O22_2 Co6_2 1_555 1_555
O24_2 Co1_3 1_555 1_555
O25_2 Co6_2 1_555 1_555
O26_2 C52_2 1_555 1_555
O27_2 Co6_2 1_555 1_555
C45_2 C50_2 1_555 1_555
O31_2 C71_2 1_555 1_555
C46_2 C67_2 1_555 1_555
C47_2 C60_2 1_555 1_555
C48_2 C53_2 1_555 1_555
C50_2 H31_2 1_555 1_555
C52_2 C56_2 1_555 1_555
C53_2 H32_2 1_555 1_555
C54_2 C53_2 1_555 1_555
H33_2 C54_2 1_555 1_555
C56_2 C50_2 1_555 1_555
H34_2 C56_2 1_555 1_555
C58_2 C45_2 1_555 1_555
H36_2 C58_2 1_555 1_555
C60_2 O24_2 1_555 1_555
C62_2 C68_2 1_555 1_555
C63_2 C48_2 1_555 1_555
C64_2 C52_2 1_555 1_555
C65_2 H39_2 1_555 1_555
C66_2 O26_2 1_555 1_555
C67_2 H40_2 1_555 1_555
C68_2 H41_2 1_555 1_555
C70_2 C67_2 1_555 1_555
H43_2 C70_2 1_555 1_555
C71_2 C75_2 1_555 1_555
C75_2 C68_2 1_555 1_555
H47_2 C75_2 1_555 1_555
C76_2 O31_2 1_555 1_555
C77_2 C47_2 1_555 1_555
H48_2 C77_2 1_555 1_555
C78_2 C47_2 1_555 1_555
H49_2 C78_2 1_555 1_555
C80_2 C62_2 1_555 1_555
H51_2 C80_2 1_555 1_555
C81_2 C63_2 1_555 1_555
C82_2 C46_2 1_555 1_555
H53_2 C82_2 1_555 1_555
C83_2 C71_2 1_555 1_555
H54_2 C83_2 1_555 1_555
O32_2 Co6_2 1_555 1_555
O33_2 Co1_3 1_555 1_555
C84_2 O25_2 1_555 1_555
C85_2 O20_2 1_555 1_555
O34_2 C86_2 1_555 1_555
C86_2 C62_2 1_555 1_555
O35_2 C86_2 1_555 1_555
Co10_3 O34_2 1_555 1_555
Co14_2 O34_2 1_555 1_555
O9_2 C16_2 1_555 1_555
C1_2 C41_2 1_555 1_555
C2_2 C40_2 1_555 1_555
C10_2 C22_2 1_555 1_555
C14_2 C20_2 1_555 1_555
C21_2 C38_2 1_555 1_555
C22_2 C37_2 1_555 1_555
O15_2 C40_2 1_555 1_555
O22_2 C85_2 1_555 1_555
O27_2 C60_2 1_555 1_555
C45_2 C85_2 1_555 1_555
C46_2 C84_2 1_555 1_555
C54_2 C66_2 1_555 1_555
C58_2 C64_2 1_555 1_555
C65_2 C76_2 1_555 1_555
C65_2 C82_2 1_555 1_555
C66_2 C81_2 1_555 1_555
C70_2 C76_2 1_555 1_555
C80_2 C83_2 1_555 1_555
O33_2 C84_2 1_555 1_555
O35_2 Co14_2 1_555 1_555
O14_2 H61_2 1_555 1_555
O14_2 H62_2 1_555 1_555
O32_2 H63_2 1_555 1_555
O32_2 H64_2 1_555 1_555
O13_2 C27_2 1_555 1_555
C18_2 C24_2 1_555 1_555
C24_2 H11_2 1_555 1_555
H13_2 C26_2 1_555 1_555
C27_2 C31_2 1_555 1_555
C31_2 C24_2 1_555 1_555
H17_2 C31_2 1_555 1_555
C32_2 O13_2 1_555 1_555
C36_2 C18_2 1_555 1_555
H21_2 C36_2 1_555 1_555
C39_2 C27_2 1_555 1_555
H24_2 C39_2 1_555 1_555
O16_2 C42_2 1_555 1_555
C42_2 C18_2 1_555 1_555
O17_2 C42_2 1_555 1_555
Co10_3 O16_2 1_555 1_555
Co13_2 O16_2 1_555 1_555
C26_2 C32_2 1_555 1_555
C36_2 C39_2 1_555 1_555
O17_2 Co13_2 1_555 1_555
O1_2 Co11 1_555 1_555
Co8 O3_2 1_555 1_555
Co11 O10_2 1_555 1_555
O3_2 C5_2 1_555 1_555
O10_2 C5_2 1_555 1_555
O12_2 C11_2 1_555 1_555
C5_2 C7_2 1_555 1_555
C7_2 C13_2 1_555 1_555
C11_2 C25_2 1_555 1_555
C13_2 H5_2 1_555 1_555
C15_2 O12_2 1_555 1_555
C25_2 H12_2 1_555 1_555
C28_2 C11_2 1_555 1_555
H14_2 C28_2 1_555 1_555
C29_2 C7_2 1_555 1_555
H15_2 C29_2 1_555 1_555
C30_2 C13_2 1_555 1_555
H16_2 C30_2 1_555 1_555
C35_2 C15_2 1_555 1_555
H20_2 C35_2 1_555 1_555
O18_2 Co11 1_555 1_555
C43_2 O1_2 1_555 1_555
H25_2 C43_2 1_555 1_555
H26_2 C43_2 1_555 1_555
H27_2 C43_2 1_555 1_555
C44_2 O18_2 1_555 1_555
H28_2 C44_2 1_555 1_555
H29_2 C44_2 1_555 1_555
H30_2 C44_2 1_555 1_555
O19_2 Co12 1_555 1_555
Co12 O28_2 1_555 1_555
O21_2 Co8 1_555 1_555
O28_2 C49_2 1_555 1_555
O30_2 C55_2 1_555 1_555
C49_2 O21_2 1_555 1_555
C51_2 C49_2 1_555 1_555
C55_2 C69_2 1_555 1_555
C57_2 C51_2 1_555 1_555
H35_2 C57_2 1_555 1_555
C59_2 O30_2 1_555 1_555
C69_2 H42_2 1_555 1_555
C72_2 C55_2 1_555 1_555
H44_2 C72_2 1_555 1_555
C73_2 C51_2 1_555 1_555
H45_2 C73_2 1_555 1_555
C74_2 C57_2 1_555 1_555
H46_2 C74_2 1_555 1_555
C79_2 C59_2 1_555 1_555
O36_2 Co12 1_555 1_555
C88_2 O36_2 1_555 1_555
H58_2 C88_2 1_555 1_555
H59_2 C88_2 1_555 1_555
H60_2 C88_2 1_555 1_555
O41_2 Co8 1_555 1_555
O42_2 Co8 1_555 1_555
O43_2 Co11 1_555 1_555
O44_2 Co12 1_555 1_555
Co11 O41_2 1_555 1_555
C15_2 C30_2 1_555 1_555
C29_2 C35_2 1_555 1_555
Co12 O42_2 1_555 1_555
C59_2 C74_2 1_555 1_555
C73_2 C79_2 1_555 1_555
O40 C61_2 1_555 1_555
O13_3 C27_3 1_555 1_555
C18_3 C24_3 1_555 1_555
C24_3 H11_3 1_555 1_555
H13_3 C26_3 1_555 1_555
C27_3 C31_3 1_555 1_555
C31_3 C24_3 1_555 1_555
H17_3 C31_3 1_555 1_555
C32_3 O13_3 1_555 1_555
C36_3 C18_3 1_555 1_555
H21_3 C36_3 1_555 1_555
C39_3 C27_3 1_555 1_555
H24_3 C39_3 1_555 1_555
O41 C42_3 1_555 1_555
C42_3 C18_3 1_555 1_555
O43 C42_3 1_555 1_555
H55_2 C87_2 1_555 1_555
H56_2 C87_2 1_555 1_555
H57_2 C87_2 1_555 1_555
C26_3 C32_3 1_555 1_555
C36_3 C39_3 1_555 1_555
Co1_4 O2_3 1_555 1_555
Co10 O3_3 1_555 1_555
Co4_3 O2_3 1_555 1_555
O2_3 C41_3 1_555 1_555
O4_3 Co4_3 1_555 1_555
O6_3 Co1_4 1_555 1_555
O7_3 Co4_3 1_555 1_555
O9_3 Co4_3 1_555 1_555
O12_3 C11_3 1_555 1_555
C2_3 C23_3 1_555 1_555
C3_3 C16_3 1_555 1_555
C7_3 C13_3 1_555 1_555
C11_3 C25_3 1_555 1_555
C13_3 H5_3 1_555 1_555
C15_3 O12_3 1_555 1_555
C16_3 O6_3 1_555 1_555
C21_3 H9_3 1_555 1_555
C23_3 H10_3 1_555 1_555
C28_3 C11_3 1_555 1_555
H14_3 C28_3 1_555 1_555
C30_3 C13_3 1_555 1_555
H16_3 C30_3 1_555 1_555
C33_3 C3_3 1_555 1_555
H18_3 C33_3 1_555 1_555
C34_3 C3_3 1_555 1_555
H19_3 C34_3 1_555 1_555
C35_3 C15_3 1_555 1_555
C38_3 C2_3 1_555 1_555
H23_3 C38_3 1_555 1_555
O14_3 Co4_3 1_555 1_555
O15_3 Co1_4 1_555 1_555
C40_3 O7_3 1_555 1_555
C41_3 O4_3 1_555 1_555
O19_3 Co14 1_555 1_555
Co14 O28_3 1_555 1_555
O23_2 C61_3 1_555 1_555
O26_3 C52_3 1_555 1_555
O28_3 C49_3 1_555 1_555
O29_2 C61_3 1_555 1_555
C45_3 C50_3 1_555 1_555
C48_3 C53_3 1_555 1_555
C50_3 H31_3 1_555 1_555
C52_3 C56_3 1_555 1_555
C53_3 H32_3 1_555 1_555
C54_3 C53_3 1_555 1_555
H33_3 C54_3 1_555 1_555
C56_3 C50_3 1_555 1_555
H34_3 C56_3 1_555 1_555
C58_3 C45_3 1_555 1_555
C61_3 C48_3 1_555 1_555
C63_3 C48_3 1_555 1_555
H37_3 C63_3 1_555 1_555
C64_3 C52_3 1_555 1_555
C66_3 O26_3 1_555 1_555
H45_3 C73_3 1_555 1_555
C81_3 C63_3 1_555 1_555
O36_3 Co14 1_555 1_555
C88_3 O36_3 1_555 1_555
H58_3 C88_3 1_555 1_555
H59_3 C88_3 1_555 1_555
H60_3 C88_3 1_555 1_555
Co10_3 O23_2 1_555 1_555
Co14_2 O29_2 1_555 1_555
O37_2 Co10 1_555 1_555
O40_2 Co14 1_555 1_555
O9_3 C16_3 1_555 1_555
C2_3 C40_3 1_555 1_555
C15_3 C30_3 1_555 1_555
C21_3 C38_3 1_555 1_555
C25_3 C33_3 1_555 1_555
C28_3 C34_3 1_555 1_555
O15_3 C40_3 1_555 1_555
C54_3 C66_3 1_555 1_555
C58_3 C64_3 1_555 1_555
C66_3 C81_3 1_555 1_555
O14_3 H61_3 1_555 1_555
O14_3 H62_3 1_555 1_555
O1_3 Co13 1_555 1_555
Co13 O10_3 1_555 1_555
O5_2 C17_3 1_555 1_555
O8_3 C8_3 1_555 1_555
O10_3 C5_3 1_555 1_555
O11_2 C17_3 1_555 1_555
C1_3 C6_3 1_555 1_555
C4_3 C9_3 1_555 1_555
C6_3 H1_3 1_555 1_555
C8_3 C12_3 1_555 1_555
C9_3 H2_3 1_555 1_555
C10_3 C9_3 1_555 1_555
H3_3 C10_3 1_555 1_555
C12_3 C6_3 1_555 1_555
H4_3 C12_3 1_555 1_555
C14_3 C1_3 1_555 1_555
C17_3 C4_3 1_555 1_555
C19_3 C4_3 1_555 1_555
H7_3 C19_3 1_555 1_555
C20_3 C8_3 1_555 1_555
H8_3 C20_3 1_555 1_555
C22_3 O8_3 1_555 1_555
H15_3 C29_3 1_555 1_555
C37_3 C19_3 1_555 1_555
H22_3 C37_3 1_555 1_555
O18_3 Co13 1_555 1_555
C43_3 O1_3 1_555 1_555
H25_3 C43_3 1_555 1_555
H26_3 C43_3 1_555 1_555
H27_3 C43_3 1_555 1_555
C44_3 O18_3 1_555 1_555
H28_3 C44_3 1_555 1_555
H29_3 C44_3 1_555 1_555
H30_3 C44_3 1_555 1_555
Co6_3 O20_3 1_555 1_555
O20_3 Co1_5 1_555 1_555
O21_3 Co10_2 1_555 1_555
O22_3 Co6_3 1_555 1_555
O24_3 Co1_5 1_555 1_555
O25_3 Co6_3 1_555 1_555
O27_3 Co6_3 1_555 1_555
O30_3 C55_3 1_555 1_555
O31_3 C71_3 1_555 1_555
C46_3 C67_3 1_555 1_555
C47_3 C60_3 1_555 1_555
C55_3 C69_3 1_555 1_555
C57_3 C51_3 1_555 1_555
H35_3 C57_3 1_555 1_555
C59_3 O30_3 1_555 1_555
C60_3 O24_3 1_555 1_555
C62_3 C68_3 1_555 1_555
C65_3 H39_3 1_555 1_555
C67_3 H40_3 1_555 1_555
C68_3 H41_3 1_555 1_555
C70_3 C67_3 1_555 1_555
H43_3 C70_3 1_555 1_555
C71_3 C75_3 1_555 1_555
C72_3 C55_3 1_555 1_555
H44_3 C72_3 1_555 1_555
C74_3 C57_3 1_555 1_555
H46_3 C74_3 1_555 1_555
C75_3 C68_3 1_555 1_555
H47_3 C75_3 1_555 1_555
C76_3 O31_3 1_555 1_555
C77_3 C47_3 1_555 1_555
H48_3 C77_3 1_555 1_555
C78_3 C47_3 1_555 1_555
H49_3 C78_3 1_555 1_555
C79_3 C59_3 1_555 1_555
C80_3 C62_3 1_555 1_555
H51_3 C80_3 1_555 1_555
C82_3 C46_3 1_555 1_555
H53_3 C82_3 1_555 1_555
C83_3 C71_3 1_555 1_555
H54_3 C83_3 1_555 1_555
O32_3 Co6_3 1_555 1_555
O33_3 Co1_5 1_555 1_555
C84_3 O25_3 1_555 1_555
C85_3 O20_3 1_555 1_555
O42 C86_3 1_555 1_555
C86_3 C62_3 1_555 1_555
O44 C86_3 1_555 1_555
Co10_3 O5_2 1_555 1_555
Co13_2 O11_2 1_555 1_555
O38_2 Co10_2 1_555 1_555
O39_2 Co13 1_555 1_555
C10_3 C22_3 1_555 1_555
C14_3 C20_3 1_555 1_555
C22_3 C37_3 1_555 1_555
O22_3 C85_3 1_555 1_555
O27_3 C60_3 1_555 1_555
C46_3 C84_3 1_555 1_555
C59_3 C74_3 1_555 1_555
C65_3 C76_3 1_555 1_555
C65_3 C82_3 1_555 1_555
C69_3 C77_3 1_555 1_555
C70_3 C76_3 1_555 1_555
C72_3 C78_3 1_555 1_555
C80_3 C83_3 1_555 1_555
O33_3 C84_3 1_555 1_555
O32_3 H63_3 1_555 1_555
O32_3 H64_3 1_555 1_555
O40_2 C61_4 1_555 1_555
O1_4 Co13_2 1_555 1_555
Co10_3 O3_4 1_555 1_555
Co13_2 O10_4 1_555 1_555
O3_4 C5_4 1_555 1_555
O10_4 C5_4 1_555 1_555
O12_4 C11_4 1_555 1_555
C5_4 C7_4 1_555 1_555
C7_4 C13_4 1_555 1_555
C11_4 C25_4 1_555 1_555
C13_4 H5_4 1_555 1_555
C15_4 O12_4 1_555 1_555
C25_4 H12_4 1_555 1_555
C28_4 C11_4 1_555 1_555
H14_4 C28_4 1_555 1_555
C29_4 C7_4 1_555 1_555
H15_4 C29_4 1_555 1_555
C30_4 C13_4 1_555 1_555
H16_4 C30_4 1_555 1_555
C35_4 C15_4 1_555 1_555
H20_4 C35_4 1_555 1_555
O18_4 Co13_2 1_555 1_555
C43_4 O1_4 1_555 1_555
H25_4 C43_4 1_555 1_555
H26_4 C43_4 1_555 1_555
H27_4 C43_4 1_555 1_555
C44_4 O18_4 1_555 1_555
H28_4 C44_4 1_555 1_555
H29_4 C44_4 1_555 1_555
H30_4 C44_4 1_555 1_555
O19_4 Co14_2 1_555 1_555
Co14_2 O28_4 1_555 1_555
O21_4 Co10_3 1_555 1_555
O28_4 C49_4 1_555 1_555
O30_4 C55_4 1_555 1_555
C49_4 O21_4 1_555 1_555
C51_4 C49_4 1_555 1_555
C55_4 C69_4 1_555 1_555
C57_4 C51_4 1_555 1_555
H35_4 C57_4 1_555 1_555
C59_4 O30_4 1_555 1_555
C69_4 H42_4 1_555 1_555
C72_4 C55_4 1_555 1_555
H44_4 C72_4 1_555 1_555
C73_4 C51_4 1_555 1_555
H45_4 C73_4 1_555 1_555
C74_4 C57_4 1_555 1_555
H46_4 C74_4 1_555 1_555
C79_4 C59_4 1_555 1_555
O36_4 Co14_2 1_555 1_555
C88_4 O36_4 1_555 1_555
H58_4 C88_4 1_555 1_555
H59_4 C88_4 1_555 1_555
H60_4 C88_4 1_555 1_555
C15_4 C30_4 1_555 1_555
C29_4 C35_4 1_555 1_555
C59_4 C74_4 1_555 1_555
C73_4 C79_4 1_555 1_555
O13_4 C27_4 1_555 1_555
C18_4 C24_4 1_555 1_555
C24_4 H11_4 1_555 1_555
H13_4 C26_4 1_555 1_555
C27_4 C31_4 1_555 1_555
C31_4 C24_4 1_555 1_555
H17_4 C31_4 1_555 1_555
C32_4 O13_4 1_555 1_555
C36_4 C18_4 1_555 1_555
H21_4 C36_4 1_555 1_555
C39_4 C27_4 1_555 1_555
H24_4 C39_4 1_555 1_555
O41_2 C42_4 1_555 1_555
C42_4 C18_4 1_555 1_555
O43_2 C42_4 1_555 1_555
C26_4 C32_4 1_555 1_555
C36_4 C39_4 1_555 1_555
Co1_6 O2_4 1_555 1_555
Co4_4 O2_4 1_555 1_555
O2_4 C41_4 1_555 1_555
O4_4 Co4_4 1_555 1_555
O6_4 Co1_6 1_555 1_555
O7_4 Co4_4 1_555 1_555
O8_4 C8_4 1_555 1_555
O9_4 Co4_4 1_555 1_555
C1_4 C6_4 1_555 1_555
C2_4 C23_4 1_555 1_555
C3_4 C16_4 1_555 1_555
C4_4 C9_4 1_555 1_555
C6_4 H1_4 1_555 1_555
C8_4 C12_4 1_555 1_555
C9_4 H2_4 1_555 1_555
C10_4 C9_4 1_555 1_555
H3_4 C10_4 1_555 1_555
C12_4 C6_4 1_555 1_555
H4_4 C12_4 1_555 1_555
C14_4 C1_4 1_555 1_555
H6_4 C14_4 1_555 1_555
C16_4 O6_4 1_555 1_555
C19_4 C4_4 1_555 1_555
C20_4 C8_4 1_555 1_555
H8_4 C20_4 1_555 1_555
C21_4 H9_4 1_555 1_555
C22_4 O8_4 1_555 1_555
C23_4 H10_4 1_555 1_555
C33_4 C3_4 1_555 1_555
H18_4 C33_4 1_555 1_555
C34_4 C3_4 1_555 1_555
H19_4 C34_4 1_555 1_555
C37_4 C19_4 1_555 1_555
H22_4 C37_4 1_555 1_555
C38_4 C2_4 1_555 1_555
H23_4 C38_4 1_555 1_555
O14_4 Co4_4 1_555 1_555
O15_4 Co1_6 1_555 1_555
C40_4 O7_4 1_555 1_555
C41_4 O4_4 1_555 1_555
Co6_4 O20_4 1_555 1_555
O20_4 Co1_6 1_555 1_555
O22_4 Co6_4 1_555 1_555
O24_4 Co1_6 1_555 1_555
O25_4 Co6_4 1_555 1_555
O26_4 C52_4 1_555 1_555
O27_4 Co6_4 1_555 1_555
C45_4 C50_4 1_555 1_555
O31_4 C71_4 1_555 1_555
C46_4 C67_4 1_555 1_555
C47_4 C60_4 1_555 1_555
C48_4 C53_4 1_555 1_555
C50_4 H31_4 1_555 1_555
C52_4 C56_4 1_555 1_555
C53_4 H32_4 1_555 1_555
C54_4 C53_4 1_555 1_555
H33_4 C54_4 1_555 1_555
C56_4 C50_4 1_555 1_555
H34_4 C56_4 1_555 1_555
C58_4 C45_4 1_555 1_555
H36_4 C58_4 1_555 1_555
C60_4 O24_4 1_555 1_555
C62_4 C68_4 1_555 1_555
C63_4 C48_4 1_555 1_555
C64_4 C52_4 1_555 1_555
C65_4 H39_4 1_555 1_555
C66_4 O26_4 1_555 1_555
C67_4 H40_4 1_555 1_555
C68_4 H41_4 1_555 1_555
C70_4 C67_4 1_555 1_555
H43_4 C70_4 1_555 1_555
C71_4 C75_4 1_555 1_555
C75_4 C68_4 1_555 1_555
H47_4 C75_4 1_555 1_555
C76_4 O31_4 1_555 1_555
C77_4 C47_4 1_555 1_555
H48_4 C77_4 1_555 1_555
C78_4 C47_4 1_555 1_555
H49_4 C78_4 1_555 1_555
C80_4 C62_4 1_555 1_555
H51_4 C80_4 1_555 1_555
C81_4 C63_4 1_555 1_555
C82_4 C46_4 1_555 1_555
H53_4 C82_4 1_555 1_555
C83_4 C71_4 1_555 1_555
H54_4 C83_4 1_555 1_555
O32_4 Co6_4 1_555 1_555
O33_4 Co1_6 1_555 1_555
C84_4 O25_4 1_555 1_555
C85_4 O20_4 1_555 1_555
O42_2 C86_4 1_555 1_555
C86_4 C62_4 1_555 1_555
O44_2 C86_4 1_555 1_555
O9_4 C16_4 1_555 1_555
C1_4 C41_4 1_555 1_555
C2_4 C40_4 1_555 1_555
C10_4 C22_4 1_555 1_555
C14_4 C20_4 1_555 1_555
C21_4 C38_4 1_555 1_555
C22_4 C37_4 1_555 1_555
O15_4 C40_4 1_555 1_555
O22_4 C85_4 1_555 1_555
O27_4 C60_4 1_555 1_555
C45_4 C85_4 1_555 1_555
C46_4 C84_4 1_555 1_555
C54_4 C66_4 1_555 1_555
C58_4 C64_4 1_555 1_555
C65_4 C76_4 1_555 1_555
C65_4 C82_4 1_555 1_555
C66_4 C81_4 1_555 1_555
C70_4 C76_4 1_555 1_555
C80_4 C83_4 1_555 1_555
O33_4 C84_4 1_555 1_555
O14_4 H61_4 1_555 1_555
O14_4 H62_4 1_555 1_555
O32_4 H63_4 1_555 1_555
O32_4 H64_4 1_555 1_555
O39_2 C17_4 1_555 1_555
H55_3 C87_3 1_555 1_555
H56_3 C87_3 1_555 1_555
H57_3 C87_3 1_555 1_555
H55_4 C87_4 1_555 1_555
H56_4 C87_4 1_555 1_555
H57_4 C87_4 1_555 1_555

#END
