
###############################################################################
#
# This file contains modified crystal structure data generated from the
# MOF subset of the Cambridge Structural Database (CSD) v543 
# hosted by the Cambridge Crystallographic Data Centre (CCDC).
#
# This work is licensed under the Creative Commons
# Attribution-NonCommercial-ShareAlike 4.0 International License.
# To view a copy of this license, visit
# http://creativecommons.org/licenses/by-nc-sa/4.0/
# or send a letter to
# Creative Commons, PO Box 1866, Mountain View, CA 94042, USA.
#
# CIF created using the CSD Python API on 29 September 2022
# The structure has been converted into the P1 space group
# The structure has a 3D framework
# The original CSD entry XAMHOM is in the monoclinic crystal system
# The framework has been calculated to contain at least 10.0% void space
# The void calculation uses a probe of radius 1.32A, grid spacing 0.4
#
###############################################################################

data_XAMHOM
_chemical_formula_moiety         '(C192 H112 Ag16 Fe6 N48)n'
_symmetry_cell_setting           triclinic
_symmetry_space_group_name_H-M   'P 1'
_symmetry_Int_Tables_number      1
_space_group_name_Hall           'P 1'
loop_
_symmetry_equiv_pos_site_id
_symmetry_equiv_pos_as_xyz
1 x,y,z
_cell_length_a                   16.2345(8)
_cell_length_b                   13.1309(8)
_cell_length_c                   33.0108(19)
_cell_angle_alpha                90
_cell_angle_beta                 110.548(2)
_cell_angle_gamma                90
_cell_volume                     6589.32
loop_
_atom_site_label
_atom_site_type_symbol
_atom_site_fract_x
_atom_site_fract_y
_atom_site_fract_z
Fe1 Fe 0.22574(5) 0.00084(9) 0.44925(3)
N13 N 0.1531(3) 0.0016(5) 0.37871(17)
N15 N 0.1333(3) 0.1100(4) 0.4564(2)
N16 N 0.3123(3) 0.1209(5) 0.4454(2)
N2 N 0.1531(3) 0.4984(5) 0.87871(17)
N11 N 0.1442(3) 0.8778(5) 0.4544(2)
C1 C 0.0201(4) 0.5044(6) 0.7404(2)
C3 C 0.0753(4) 0.4133(6) 0.8116(3)
H1 H 0.052266 0.351600 0.797017
C4 C 0.0652(4) 0.5040(6) 0.7885(2)
C19 C 0.0883(4) 0.8210(6) 0.4539(3)
C24 C 0.0643(4) 0.5415(5) 0.7132(3)
C28 C 0.0768(4) 0.1620(6) 0.4556(3)
C31 C 0.1192(4) 0.4136(6) 0.8561(3)
H13 H 0.125475 0.350932 0.871281
C32 C 0.0196(4) 0.5402(5) 0.6678(3)
C34 C 0.1951(4) 0.6065(6) 0.7022(3)
H15 H 0.254324 0.629406 0.713618
C35 C 0.1523(4) 0.5765(5) 0.7292(2)
H16 H 0.182509 0.579270 0.759555
C36 C 0.1504(4) 0.6029(6) 0.6575(2)
H17 H 0.179994 0.623632 0.638594
C37 C 0.1000(4) 0.5898(6) 0.8123(2)
H18 H 0.094664 0.653575 0.797988
C40 C 0.1421(4) 0.5850(6) 0.8562(3)
H21 H 0.164448 0.646203 0.871451
C48 C 0.0660(4) 0.5704(6) 0.6404(2)
H28 H 0.037530 0.567859 0.609892
Fe7 Fe 0.22574(5) 0.49916(9) 0.94925(3)
N14 N 0.2942(3) 0.9975(5) 0.51931(17)
N17 N 0.3222(3) 0.8969(5) 0.4424(2)
Ag1 Ag 0.96644(3) 0.24536(4) 0.45195(2)
Ag2 Ag 0.98411(3) 0.72862(5) 0.45110(2)
Ag3 Ag 0.49660(3) 0.76715(5) 0.45258(2)
Ag4 Ag 0.47788(3) 0.26152(4) 0.45252(2)
Fe2 Fe 0.72570(5) 0.50058(9) 0.44926(3)
N1 N 0.6643(3) 0.4995(5) 0.38464(18)
N3 N 0.2942(3) 0.5025(5) 0.01931(17)
N5 N 0.6397(3) 0.4048(4) 0.45495(19)
N6 N 0.6493(3) 0.6117(4) 0.4531(2)
N7 N 0.7861(3) 0.5021(5) 0.51333(17)
N8 N 0.8145(3) 0.5955(5) 0.4440(2)
N9 N 0.8035(3) 0.3917(5) 0.4463(2)
C2 C 0.8601(4) 0.3378(6) 0.4476(3)
C5 C 0.9313(4) 0.5042(6) 0.6508(2)
C6 C 0.8821(4) 0.5033(6) 0.6031(2)
C7 C 0.3914(4) 0.5046(6) 0.1085(2)
C8 C 0.6508(4) 0.5867(6) 0.3616(3)
H2 H 0.670538 0.648678 0.376715
C9 C 0.5752(4) 0.5406(5) 0.2181(2)
C10 C 0.5326(4) 0.5039(6) 0.2466(2)
C11 C 0.5777(4) 0.5025(7) 0.2940(2)
C12 C 0.5309(4) 0.5400(5) 0.1722(2)
C13 C 0.5985(4) 0.6722(5) 0.4541(2)
C14 C 0.5775(4) 0.5694(5) 0.1451(2)
H3 H 0.548313 0.568168 0.114611
C15 C 0.3855(4) 0.8513(6) 0.4450(3)
C16 C 0.6102(4) 0.5908(6) 0.3177(3)
H4 H 0.604014 0.654392 0.303140
C17 C 0.8199(4) 0.5887(6) 0.5348(3)
H5 H 0.810821 0.650591 0.518942
C18 C 0.8912(4) 0.4671(5) 0.6774(2)
H6 H 0.833142 0.440623 0.665762
C20 C 0.4413(4) 0.5034(6) 0.1557(2)
C21 C 0.8737(4) 0.6438(6) 0.4450(3)
C22 C 0.9365(4) 0.4683(5) 0.7225(2)
H7 H 0.907632 0.443035 0.740981
C23 C 0.3542(4) 0.4163(6) 0.0872(3)
H8 H 0.360979 0.354352 0.102890
C25 C 0.8667(4) 0.5916(5) 0.5783(3)
H9 H 0.888832 0.654822 0.591708
C26 C 0.4475(4) 0.4674(6) 0.2288(3)
H10 H 0.418961 0.440563 0.247087
C27 C 0.4033(4) 0.4697(6) 0.1841(3)
H11 H 0.344011 0.446780 0.173018
C29 C 0.6334(4) 0.4147(6) 0.3619(2)
H12 H 0.641615 0.351837 0.377022
C30 C 0.5852(4) 0.3517(6) 0.4560(3)
C33 C 0.7998(4) 0.4167(6) 0.5367(2)
H14 H 0.777442 0.354513 0.522360
C38 C 0.8452(4) 0.4144(6) 0.5811(2)
H19 H 0.851089 0.352105 0.596502
C39 C 0.6658(4) 0.5730(5) 0.2341(3)
H20 H 0.697353 0.573872 0.264363
C41 C 0.5902(4) 0.4134(6) 0.3176(2)
H22 H 0.568972 0.350802 0.303264
C42 C 0.3721(4) 0.1714(6) 0.4484(2)
C43 C 0.3300(4) 0.5887(6) 0.0405(3)
H23 H 0.320358 0.650610 0.024627
C44 C 0.7060(4) 0.6021(6) 0.2068(3)
H24 H 0.765214 0.625113 0.218269
C45 C 0.3069(4) 0.4175(6) 0.0431(3)
H25 H 0.282716 0.355421 0.029154
C46 C 0.6632(4) 0.5994(6) 0.1615(3)
H26 H 0.693659 0.618183 0.142701
C47 C 0.3791(4) 0.5917(6) 0.0835(3)
H27 H 0.405030 0.654035 0.096425
C3_2 C 0.0753(4) 0.0867(6) 0.3116(3)
H1_2 H 0.052266 0.148400 0.297017
C31_2 C 0.1192(4) 0.0864(6) 0.3561(3)
H13_2 H 0.125475 0.149068 0.371281
N4 N 0.1333(3) 0.3900(4) 0.9564(2)
C28_2 C 0.0768(4) 0.3380(6) 0.9556(3)
C1_2 C 0.0201(4) 0.9956(6) 0.2404(2)
C4_2 C 0.0652(4) 0.9960(6) 0.2885(2)
C24_2 C 0.0643(4) 0.9585(5) 0.2132(3)
C32_2 C 0.0196(4) 0.9598(5) 0.1678(3)
C34_2 C 0.1951(4) 0.8935(6) 0.2022(3)
H15_2 H 0.254324 0.870594 0.213618
C35_2 C 0.1523(4) 0.9235(5) 0.2292(2)
H16_2 H 0.182509 0.920730 0.259555
C36_2 C 0.1504(4) 0.8971(6) 0.1575(2)
H17_2 H 0.179994 0.876368 0.138594
C37_2 C 0.1000(4) 0.9102(6) 0.3123(2)
H18_2 H 0.094664 0.846425 0.297988
C40_2 C 0.1421(4) 0.9150(6) 0.3562(3)
H21_2 H 0.164448 0.853797 0.371451
C48_2 C 0.0660(4) 0.9296(6) 0.1404(2)
H28_2 H 0.037530 0.932141 0.109892
N11_2 N 0.1442(3) 0.6222(5) 0.9544(2)
C19_2 C 0.0883(4) 0.6790(6) 0.9539(3)
N16_2 N 0.3123(3) 0.3791(5) 0.9454(2)
N17_2 N 0.3222(3) 0.6031(5) 0.9424(2)
Ag1_2 Ag 0.96644(3) 0.25464(4) 0.95195(2)
Ag4_2 Ag 0.47788(3) 0.23848(4) 0.95252(2)
N1_2 N 0.6643(3) 0.0005(5) 0.88464(18)
N5_2 N 0.6397(3) 0.0952(4) 0.95495(19)
N9_2 N 0.8035(3) 0.1083(5) 0.9463(2)
C2_2 C 0.8601(4) 0.1622(6) 0.9476(3)
C23_2 C 0.3542(4) 0.0837(6) 0.5872(3)
H8_2 H 0.360979 0.145648 0.602890
C26_2 C 0.4475(4) 0.0326(6) 0.7288(3)
H10_2 H 0.418961 0.059437 0.747087
C27_2 C 0.4033(4) 0.0303(6) 0.6841(3)
H11_2 H 0.344011 0.053220 0.673018
C29_2 C 0.6334(4) 0.0853(6) 0.8619(2)
H12_2 H 0.641615 0.148163 0.877022
C30_2 C 0.5852(4) 0.1483(6) 0.9560(3)
C41_2 C 0.5902(4) 0.0866(6) 0.8176(2)
H22_2 H 0.568972 0.149198 0.803264
C42_2 C 0.3721(4) 0.3286(6) 0.9484(2)
C45_2 C 0.3069(4) 0.0825(6) 0.5431(3)
H25_2 H 0.282716 0.144579 0.529154
Ag2_2 Ag 0.98411(3) 0.77138(5) 0.95110(2)
Ag3_2 Ag 0.49660(3) 0.73285(5) 0.95258(2)
Fe2_2 Fe 0.72570(5) 0.99942(9) 0.94926(3)
N6_2 N 0.6493(3) 0.8883(4) 0.9531(2)
N8_2 N 0.8145(3) 0.9045(5) 0.9440(2)
C7_2 C 0.3914(4) 0.9954(6) 0.6085(2)
C8_2 C 0.6508(4) 0.9133(6) 0.8616(3)
H2_2 H 0.670538 0.851322 0.876715
C9_2 C 0.5752(4) 0.9594(5) 0.7181(2)
C10_2 C 0.5326(4) 0.9961(6) 0.7466(2)
C11_2 C 0.5777(4) 0.9975(7) 0.7940(2)
C12_2 C 0.5309(4) 0.9600(5) 0.6722(2)
C13_2 C 0.5985(4) 0.8278(5) 0.9541(2)
C14_2 C 0.5775(4) 0.9306(5) 0.6451(2)
H3_2 H 0.548313 0.931832 0.614611
C15_2 C 0.3855(4) 0.6487(6) 0.9450(3)
C16_2 C 0.6102(4) 0.9092(6) 0.8177(3)
H4_2 H 0.604014 0.845608 0.803140
C20_2 C 0.4413(4) 0.9966(6) 0.6557(2)
C21_2 C 0.8737(4) 0.8562(6) 0.9450(3)
C39_2 C 0.6658(4) 0.9270(5) 0.7341(3)
H20_2 H 0.697353 0.926128 0.764363
C43_2 C 0.3300(4) 0.9113(6) 0.5405(3)
H23_2 H 0.320358 0.849390 0.524627
C44_2 C 0.7060(4) 0.8979(6) 0.7068(3)
H24_2 H 0.765214 0.874887 0.718269
C46_2 C 0.6632(4) 0.9006(6) 0.6615(3)
H26_2 H 0.693659 0.881817 0.642701
C47_2 C 0.3791(4) 0.9083(6) 0.5835(3)
H27_2 H 0.405030 0.845965 0.596425
Ag2_3 Ag 0.01589(3) 0.22862(5) 0.04890(2)
Ag3_3 Ag 0.50340(3) 0.26715(5) 0.04742(2)
Fe2_3 Fe 0.27430(5) 0.00058(9) 0.05074(3)
N3_2 N 0.7058(3) 0.0025(5) 0.48069(17)
N6_3 N 0.3507(3) 0.1117(4) 0.0469(2)
N8_3 N 0.1855(3) 0.0955(5) 0.0560(2)
N12 N 0.6778(3) 0.3969(5) 0.0576(2)
C7_3 C 0.6086(4) 0.0046(6) 0.3915(2)
C8_3 C 0.3492(4) 0.0867(6) 0.1384(3)
H2_3 H 0.329462 0.148678 0.123285
C9_3 C 0.4248(4) 0.0406(5) 0.2819(2)
C10_3 C 0.4674(4) 0.0039(6) 0.2534(2)
C11_3 C 0.4223(4) 0.0025(7) 0.2060(2)
C12_3 C 0.4691(4) 0.0400(5) 0.3278(2)
C13_3 C 0.4015(4) 0.1722(5) 0.0459(2)
C14_3 C 0.4225(4) 0.0694(5) 0.3549(2)
H3_3 H 0.451687 0.068168 0.385389
C15_3 C 0.6145(4) 0.3513(6) 0.0550(3)
C16_3 C 0.3898(4) 0.0908(6) 0.1823(3)
H4_3 H 0.395986 0.154392 0.196860
C20_3 C 0.5587(4) 0.0034(6) 0.3443(2)
C21_3 C 0.1263(4) 0.1438(6) 0.0550(3)
C39_3 C 0.3342(4) 0.0730(5) 0.2659(3)
H20_3 H 0.302647 0.073872 0.235637
C43_3 C 0.6700(4) 0.0887(6) 0.4595(3)
H23_3 H 0.679642 0.150610 0.475373
C44_3 C 0.2940(4) 0.1021(6) 0.2932(3)
H24_3 H 0.234786 0.125113 0.281731
C46_3 C 0.3368(4) 0.0994(6) 0.3385(3)
H26_3 H 0.306341 0.118183 0.357299
C47_3 C 0.6209(4) 0.0917(6) 0.4165(3)
H27_3 H 0.594970 0.154035 0.403575
Fe4 Fe 0.77426(5) 0.50084(9) 0.05075(3)
Ag1_3 Ag 0.03356(3) 0.74536(4) 0.04805(2)
Ag4_3 Ag 0.52212(3) 0.76152(4) 0.04748(2)
N1_3 N 0.3357(3) 0.9995(5) 0.11536(18)
N5_3 N 0.3603(3) 0.9048(4) 0.04505(19)
N9_3 N 0.1965(3) 0.8917(5) 0.0537(2)
N10 N 0.6877(3) 0.6209(5) 0.0546(2)
C2_3 C 0.1399(4) 0.8378(6) 0.0524(3)
C23_3 C 0.6458(4) 0.9163(6) 0.4128(3)
H8_3 H 0.639021 0.854352 0.397110
C26_3 C 0.5525(4) 0.9674(6) 0.2712(3)
H10_3 H 0.581039 0.940563 0.252913
C27_3 C 0.5967(4) 0.9697(6) 0.3159(3)
H11_3 H 0.655989 0.946780 0.326982
C29_3 C 0.3666(4) 0.9147(6) 0.1381(2)
H12_3 H 0.358385 0.851837 0.122978
C30_3 C 0.4148(4) 0.8517(6) 0.0440(3)
C41_3 C 0.4098(4) 0.9134(6) 0.1824(2)
H22_3 H 0.431028 0.850802 0.196736
C42_3 C 0.6279(4) 0.6714(6) 0.0516(2)
C45_3 C 0.6931(4) 0.9175(6) 0.4569(3)
H25_3 H 0.717284 0.855421 0.470846
Fe6 Fe 0.77426(5) 0.99916(9) 0.55075(3)
N11_3 N 0.8558(3) 0.3778(5) 0.0456(2)
C19_3 C 0.9117(4) 0.3210(6) 0.0461(3)
N13_2 N 0.8469(3) 0.5016(5) 0.12129(17)
N15_2 N 0.8667(3) 0.6100(4) 0.0436(2)
C1_3 C 0.9799(4) 0.0044(6) 0.7596(2)
C4_3 C 0.9348(4) 0.0040(6) 0.7115(2)
C24_3 C 0.9357(4) 0.0415(5) 0.7868(3)
C32_3 C 0.9804(4) 0.0402(5) 0.8322(3)
C34_3 C 0.8049(4) 0.1065(6) 0.7978(3)
H15_3 H 0.745676 0.129406 0.786382
C35_3 C 0.8477(4) 0.0765(5) 0.7708(2)
H16_3 H 0.817491 0.079270 0.740445
C36_3 C 0.8496(4) 0.1029(6) 0.8425(2)
H17_3 H 0.820006 0.123632 0.861406
C37_3 C 0.9000(4) 0.0898(6) 0.6877(2)
H18_3 H 0.905336 0.153575 0.702012
C40_3 C 0.8579(4) 0.0850(6) 0.6438(3)
H21_3 H 0.835552 0.146203 0.628549
C48_3 C 0.9340(4) 0.0704(6) 0.8596(2)
H28_3 H 0.962470 0.067859 0.890108
N14_2 N 0.7058(3) 0.4975(5) 0.98069(17)
C28_3 C 0.9232(4) 0.6620(6) 0.0444(3)
N2_2 N 0.8469(3) 0.9984(5) 0.62129(17)
C3_3 C 0.9247(4) 0.9133(6) 0.6884(3)
H1_3 H 0.947734 0.851600 0.702983
C31_3 C 0.8808(4) 0.9136(6) 0.6439(3)
H13_3 H 0.874525 0.850932 0.628719
Ag1_4 Ag 0.03356(3) 0.75464(4) 0.54805(2)
Ag2_4 Ag 0.01589(3) 0.27138(5) 0.54890(2)
Ag3_4 Ag 0.50340(3) 0.23285(5) 0.54742(2)
Ag4_4 Ag 0.52212(3) 0.73848(4) 0.54748(2)
Fe2_4 Fe 0.27430(5) 0.49942(9) 0.55074(3)
N1_4 N 0.3357(3) 0.5005(5) 0.61536(18)
N5_4 N 0.3603(3) 0.5952(4) 0.54505(19)
N6_4 N 0.3507(3) 0.3883(4) 0.5469(2)
N7_2 N 0.2139(3) 0.4979(5) 0.48667(17)
N8_4 N 0.1855(3) 0.4045(5) 0.5560(2)
N9_4 N 0.1965(3) 0.6083(5) 0.5537(2)
N10_2 N 0.6877(3) 0.8791(5) 0.5546(2)
N12_2 N 0.6778(3) 0.1031(5) 0.5576(2)
C2_4 C 0.1399(4) 0.6622(6) 0.5524(3)
C5_2 C 0.0687(4) 0.4958(6) 0.3492(2)
C6_2 C 0.1179(4) 0.4967(6) 0.3969(2)
C7_4 C 0.6086(4) 0.4954(6) 0.8915(2)
C8_4 C 0.3492(4) 0.4133(6) 0.6384(3)
H2_4 H 0.329462 0.351322 0.623285
C9_4 C 0.4248(4) 0.4594(5) 0.7819(2)
C10_4 C 0.4674(4) 0.4961(6) 0.7534(2)
C11_4 C 0.4223(4) 0.4975(7) 0.7060(2)
C12_4 C 0.4691(4) 0.4600(5) 0.8278(2)
C13_4 C 0.4015(4) 0.3278(5) 0.5459(2)
C14_4 C 0.4225(4) 0.4306(5) 0.8549(2)
H3_4 H 0.451687 0.431832 0.885389
C15_4 C 0.6145(4) 0.1487(6) 0.5550(3)
C16_4 C 0.3898(4) 0.4092(6) 0.6823(3)
H4_4 H 0.395986 0.345608 0.696860
C17_2 C 0.1801(4) 0.4113(6) 0.4652(3)
H5_2 H 0.189179 0.349409 0.481058
C18_2 C 0.1088(4) 0.5329(5) 0.3226(2)
H6_2 H 0.166858 0.559377 0.334238
C20_4 C 0.5587(4) 0.4966(6) 0.8443(2)
C21_4 C 0.1263(4) 0.3562(6) 0.5550(3)
C22_2 C 0.0635(4) 0.5317(5) 0.2775(2)
H7_2 H 0.092368 0.556965 0.259019
C23_4 C 0.6458(4) 0.5837(6) 0.9128(3)
H8_4 H 0.639021 0.645648 0.897110
C25_2 C 0.1333(4) 0.4084(5) 0.4217(3)
H9_2 H 0.111168 0.345178 0.408292
C26_4 C 0.5525(4) 0.5326(6) 0.7712(3)
H10_4 H 0.581039 0.559437 0.752913
C27_4 C 0.5967(4) 0.5303(6) 0.8159(3)
H11_4 H 0.655989 0.553220 0.826982
C29_4 C 0.3666(4) 0.5853(6) 0.6381(2)
H12_4 H 0.358385 0.648163 0.622978
C30_4 C 0.4148(4) 0.6483(6) 0.5440(3)
C33_2 C 0.2002(4) 0.5833(6) 0.4633(2)
H14_2 H 0.222558 0.645487 0.477640
C38_2 C 0.1548(4) 0.5856(6) 0.4189(2)
H19_2 H 0.148911 0.647895 0.403498
C39_4 C 0.3342(4) 0.4270(5) 0.7659(3)
H20_4 H 0.302647 0.426128 0.735637
C41_4 C 0.4098(4) 0.5866(6) 0.6824(2)
H22_4 H 0.431028 0.649198 0.696736
C42_4 C 0.6279(4) 0.8286(6) 0.5516(2)
C43_4 C 0.6700(4) 0.4113(6) 0.9595(3)
H23_4 H 0.679642 0.349390 0.975373
C44_4 C 0.2940(4) 0.3979(6) 0.7932(3)
H24_4 H 0.234786 0.374887 0.781731
C45_4 C 0.6931(4) 0.5825(6) 0.9569(3)
H25_4 H 0.717284 0.644579 0.970846
C46_4 C 0.3368(4) 0.4006(6) 0.8385(3)
H26_4 H 0.306341 0.381817 0.857299
C47_4 C 0.6209(4) 0.4083(6) 0.9165(3)
H27_4 H 0.594970 0.345965 0.903575
N4_2 N 0.8667(3) 0.8900(4) 0.5436(2)
N11_4 N 0.8558(3) 0.1222(5) 0.5456(2)
C1_4 C 0.9799(4) 0.4956(6) 0.2596(2)
C3_4 C 0.9247(4) 0.5867(6) 0.1884(3)
H1_4 H 0.947734 0.648400 0.202983
C4_4 C 0.9348(4) 0.4960(6) 0.2115(2)
C19_4 C 0.9117(4) 0.1790(6) 0.5461(3)
C24_4 C 0.9357(4) 0.4585(5) 0.2868(3)
C28_4 C 0.9232(4) 0.8380(6) 0.5444(3)
C31_4 C 0.8808(4) 0.5864(6) 0.1439(3)
H13_4 H 0.874525 0.649068 0.128719
C32_4 C 0.9804(4) 0.4598(5) 0.3322(3)
C34_4 C 0.8049(4) 0.3935(6) 0.2978(3)
H15_4 H 0.745676 0.370594 0.286382
C35_4 C 0.8477(4) 0.4235(5) 0.2708(2)
H16_4 H 0.817491 0.420730 0.240445
C36_4 C 0.8496(4) 0.3971(6) 0.3425(2)
H17_4 H 0.820006 0.376368 0.361406
C37_4 C 0.9000(4) 0.4102(6) 0.1877(2)
H18_4 H 0.905336 0.346425 0.202012
C40_4 C 0.8579(4) 0.4150(6) 0.1438(3)
H21_4 H 0.835552 0.353797 0.128549
C48_4 C 0.9340(4) 0.4296(6) 0.3596(2)
H28_4 H 0.962470 0.432141 0.390108
N7_3 N 0.2139(3) 0.0021(5) 0.98667(17)
C5_3 C 0.0687(4) 0.0042(6) 0.8492(2)
C6_3 C 0.1179(4) 0.0033(6) 0.8969(2)
C17_3 C 0.1801(4) 0.0887(6) 0.9652(3)
H5_3 H 0.189179 0.150591 0.981058
C25_3 C 0.1333(4) 0.0916(5) 0.9217(3)
H9_3 H 0.111168 0.154822 0.908292
C18_3 C 0.1088(4) 0.9671(5) 0.8226(2)
H6_3 H 0.166858 0.940623 0.834238
C22_3 C 0.0635(4) 0.9683(5) 0.7775(2)
H7_3 H 0.092368 0.943035 0.759019
C33_3 C 0.2002(4) 0.9167(6) 0.9633(2)
H14_3 H 0.222558 0.854513 0.977640
C38_3 C 0.1548(4) 0.9144(6) 0.9189(2)
H19_3 H 0.148911 0.852105 0.903498
C18_4 C 0.8912(4) 0.0329(5) 0.1774(2)
H6_4 H 0.833142 0.059377 0.165762
C22_4 C 0.9365(4) 0.0317(5) 0.2225(2)
H7_4 H 0.907632 0.056965 0.240981
C33_4 C 0.7998(4) 0.0833(6) 0.0367(2)
H14_4 H 0.777442 0.145487 0.022360
C38_4 C 0.8452(4) 0.0856(6) 0.0811(2)
H19_4 H 0.851089 0.147895 0.096502
N7_4 N 0.7861(3) 0.9979(5) 0.01333(17)
C5_4 C 0.9313(4) 0.9958(6) 0.1508(2)
C6_4 C 0.8821(4) 0.9967(6) 0.1031(2)
C17_4 C 0.8199(4) 0.9113(6) 0.0348(3)
H5_4 H 0.810821 0.849409 0.018942
C25_4 C 0.8667(4) 0.9084(5) 0.0783(3)
H9_4 H 0.888832 0.845178 0.091708
loop_
_geom_bond_atom_site_label_1
_geom_bond_atom_site_label_2
_geom_bond_site_symmetry_1
_geom_bond_site_symmetry_2
N13 Fe1 1_555 1_555
N15 Fe1 1_555 1_555
N16 Fe1 1_555 1_555
N2 C31 1_555 1_555
N15 C28 1_555 1_555
N11 C19 1_555 1_555
C1 C4 1_555 1_555
C3 H1 1_555 1_555
C4 C3 1_555 1_555
C24 C1 1_555 1_555
C31 C3 1_555 1_555
H13 C31 1_555 1_555
C34 H15 1_555 1_555
C35 C24 1_555 1_555
H16 C35 1_555 1_555
C36 C34 1_555 1_555
H17 C36 1_555 1_555
C37 C4 1_555 1_555
H18 C37 1_555 1_555
C40 N2 1_555 1_555
H21 C40 1_555 1_555
C48 C32 1_555 1_555
H28 C48 1_555 1_555
Fe7 N2 1_555 1_555
C24 C32 1_555 1_555
C34 C35 1_555 1_555
C36 C48 1_555 1_555
C37 C40 1_555 1_555
Ag1 C2 1_555 1_555
Ag3 C13 1_555 1_555
Ag4 C30 1_555 1_555
Fe2 N1 1_555 1_555
N1 C8 1_555 1_555
N3 C43 1_555 1_555
N5 Fe2 1_555 1_555
N6 Fe2 1_555 1_555
N7 Fe2 1_555 1_555
N8 Fe2 1_555 1_555
N9 Fe2 1_555 1_555
N16 C42 1_555 1_555
N17 C15 1_555 1_555
C2 N9 1_555 1_555
C5 C6 1_555 1_555
C6 C25 1_555 1_555
C7 C20 1_555 1_555
C8 H2 1_555 1_555
C9 C10 1_555 1_555
C10 C11 1_555 1_555
C11 C16 1_555 1_555
C12 C9 1_555 1_555
C13 N6 1_555 1_555
C14 C12 1_555 1_555
H3 C14 1_555 1_555
C15 Ag3 1_555 1_555
C16 C8 1_555 1_555
H4 C16 1_555 1_555
C17 N7 1_555 1_555
H5 C17 1_555 1_555
C18 C5 1_555 1_555
H6 C18 1_555 1_555
C20 C12 1_555 1_555
C21 Ag2 1_555 1_555
H7 C22 1_555 1_555
C23 C7 1_555 1_555
H8 C23 1_555 1_555
C25 C17 1_555 1_555
H9 C25 1_555 1_555
C26 C10 1_555 1_555
H10 C26 1_555 1_555
C27 C20 1_555 1_555
H11 C27 1_555 1_555
C29 N1 1_555 1_555
H12 C29 1_555 1_555
C30 N5 1_555 1_555
C33 N7 1_555 1_555
H14 C33 1_555 1_555
C38 C6 1_555 1_555
H19 C38 1_555 1_555
C39 C9 1_555 1_555
H20 C39 1_555 1_555
C41 C11 1_555 1_555
H22 C41 1_555 1_555
C42 Ag4 1_555 1_555
C43 H23 1_555 1_555
C44 C39 1_555 1_555
H24 C44 1_555 1_555
C45 N3 1_555 1_555
H25 C45 1_555 1_555
C46 C14 1_555 1_555
H26 C46 1_555 1_555
C47 C7 1_555 1_555
H27 C47 1_555 1_555
N8 C21 1_555 1_555
C18 C22 1_555 1_555
C23 C45 1_555 1_555
C26 C27 1_555 1_555
C29 C41 1_555 1_555
C33 C38 1_555 1_555
C43 C47 1_555 1_555
C44 C46 1_555 1_555
N13 C31_2 1_555 1_555
C3_2 H1_2 1_555 1_555
C31_2 C3_2 1_555 1_555
H13_2 C31_2 1_555 1_555
N4 C28_2 1_555 1_555
Fe7 N4 1_555 1_555
C1_2 C4_2 1_555 1_555
C24_2 C1_2 1_555 1_555
C34_2 H15_2 1_555 1_555
C35_2 C24_2 1_555 1_555
H16_2 C35_2 1_555 1_555
C36_2 C34_2 1_555 1_555
H17_2 C36_2 1_555 1_555
C37_2 C4_2 1_555 1_555
H18_2 C37_2 1_555 1_555
H21_2 C40_2 1_555 1_555
C48_2 C32_2 1_555 1_555
H28_2 C48_2 1_555 1_555
C24_2 C32_2 1_555 1_555
C34_2 C35_2 1_555 1_555
C36_2 C48_2 1_555 1_555
C37_2 C40_2 1_555 1_555
Fe7 N11_2 1_555 1_555
N11_2 C19_2 1_555 1_555
N16_2 Fe7 1_555 1_555
N17_2 Fe7 1_555 1_555
Ag1_2 C2_2 1_555 1_555
Ag4_2 C30_2 1_555 1_555
N16_2 C42_2 1_555 1_555
C2_2 N9_2 1_555 1_555
H8_2 C23_2 1_555 1_555
H10_2 C26_2 1_555 1_555
H11_2 C27_2 1_555 1_555
C29_2 N1_2 1_555 1_555
H12_2 C29_2 1_555 1_555
C30_2 N5_2 1_555 1_555
H22_2 C41_2 1_555 1_555
C42_2 Ag4_2 1_555 1_555
H25_2 C45_2 1_555 1_555
C23_2 C45_2 1_555 1_555
C26_2 C27_2 1_555 1_555
C29_2 C41_2 1_555 1_555
Ag3_2 C13_2 1_555 1_555
N14 C43_2 1_555 1_555
N6_2 Fe2_2 1_555 1_555
N8_2 Fe2_2 1_555 1_555
N17_2 C15_2 1_555 1_555
C7_2 C20_2 1_555 1_555
C8_2 H2_2 1_555 1_555
C9_2 C10_2 1_555 1_555
C10_2 C11_2 1_555 1_555
C11_2 C16_2 1_555 1_555
C12_2 C9_2 1_555 1_555
C13_2 N6_2 1_555 1_555
C14_2 C12_2 1_555 1_555
H3_2 C14_2 1_555 1_555
C15_2 Ag3_2 1_555 1_555
C16_2 C8_2 1_555 1_555
H4_2 C16_2 1_555 1_555
C20_2 C12_2 1_555 1_555
C21_2 Ag2_2 1_555 1_555
C39_2 C9_2 1_555 1_555
H20_2 C39_2 1_555 1_555
C43_2 H23_2 1_555 1_555
C44_2 C39_2 1_555 1_555
H24_2 C44_2 1_555 1_555
C46_2 C14_2 1_555 1_555
H26_2 C46_2 1_555 1_555
C47_2 C7_2 1_555 1_555
H27_2 C47_2 1_555 1_555
N8_2 C21_2 1_555 1_555
C43_2 C47_2 1_555 1_555
C44_2 C46_2 1_555 1_555
Ag3_3 C13_3 1_555 1_555
N3_2 C43_3 1_555 1_555
N6_3 Fe2_3 1_555 1_555
N8_3 Fe2_3 1_555 1_555
N12 C15_3 1_555 1_555
C7_3 C20_3 1_555 1_555
C8_3 H2_3 1_555 1_555
C9_3 C10_3 1_555 1_555
C10_3 C11_3 1_555 1_555
C11_3 C16_3 1_555 1_555
C12_3 C9_3 1_555 1_555
C13_3 N6_3 1_555 1_555
C14_3 C12_3 1_555 1_555
H3_3 C14_3 1_555 1_555
C15_3 Ag3_3 1_555 1_555
C16_3 C8_3 1_555 1_555
H4_3 C16_3 1_555 1_555
C20_3 C12_3 1_555 1_555
C21_3 Ag2_3 1_555 1_555
C39_3 C9_3 1_555 1_555
H20_3 C39_3 1_555 1_555
C43_3 H23_3 1_555 1_555
C44_3 C39_3 1_555 1_555
H24_3 C44_3 1_555 1_555
C46_3 C14_3 1_555 1_555
H26_3 C46_3 1_555 1_555
C47_3 C7_3 1_555 1_555
H27_3 C47_3 1_555 1_555
Fe4 N12 1_555 1_555
N8_3 C21_3 1_555 1_555
C43_3 C47_3 1_555 1_555
C44_3 C46_3 1_555 1_555
Ag1_3 C2_3 1_555 1_555
Ag4_3 C30_3 1_555 1_555
N10 C42_3 1_555 1_555
C2_3 N9_3 1_555 1_555
H8_3 C23_3 1_555 1_555
H10_3 C26_3 1_555 1_555
H11_3 C27_3 1_555 1_555
C29_3 N1_3 1_555 1_555
H12_3 C29_3 1_555 1_555
C30_3 N5_3 1_555 1_555
H22_3 C41_3 1_555 1_555
C42_3 Ag4_3 1_555 1_555
H25_3 C45_3 1_555 1_555
Fe4 N10 1_555 1_555
C23_3 C45_3 1_555 1_555
C26_3 C27_3 1_555 1_555
C29_3 C41_3 1_555 1_555
Fe4 N11_3 1_555 1_555
N11_3 C19_3 1_555 1_555
N13_2 Fe4 1_555 1_555
N15_2 Fe4 1_555 1_555
C1_3 C4_3 1_555 1_555
C24_3 C1_3 1_555 1_555
C34_3 H15_3 1_555 1_555
C35_3 C24_3 1_555 1_555
H16_3 C35_3 1_555 1_555
C36_3 C34_3 1_555 1_555
H17_3 C36_3 1_555 1_555
C37_3 C4_3 1_555 1_555
H18_3 C37_3 1_555 1_555
H21_3 C40_3 1_555 1_555
C48_3 C32_3 1_555 1_555
H28_3 C48_3 1_555 1_555
C24_3 C32_3 1_555 1_555
C34_3 C35_3 1_555 1_555
C36_3 C48_3 1_555 1_555
C37_3 C40_3 1_555 1_555
N15_2 C28_3 1_555 1_555
N2_2 C31_3 1_555 1_555
C3_3 H1_3 1_555 1_555
C31_3 C3_3 1_555 1_555
H13_3 C31_3 1_555 1_555
Fe6 N2_2 1_555 1_555
Ag1_4 C2_4 1_555 1_555
Ag3_4 C13_4 1_555 1_555
Ag4_4 C30_4 1_555 1_555
Fe2_4 N1_4 1_555 1_555
N1_4 C8_4 1_555 1_555
N14_2 C43_4 1_555 1_555
N5_4 Fe2_4 1_555 1_555
N6_4 Fe2_4 1_555 1_555
N7_2 Fe2_4 1_555 1_555
N8_4 Fe2_4 1_555 1_555
N9_4 Fe2_4 1_555 1_555
N10_2 C42_4 1_555 1_555
N12_2 C15_4 1_555 1_555
C2_4 N9_4 1_555 1_555
C5_2 C6_2 1_555 1_555
C6_2 C25_2 1_555 1_555
C7_4 C20_4 1_555 1_555
C8_4 H2_4 1_555 1_555
C9_4 C10_4 1_555 1_555
C10_4 C11_4 1_555 1_555
C11_4 C16_4 1_555 1_555
C12_4 C9_4 1_555 1_555
C13_4 N6_4 1_555 1_555
C14_4 C12_4 1_555 1_555
H3_4 C14_4 1_555 1_555
C15_4 Ag3_4 1_555 1_555
C16_4 C8_4 1_555 1_555
H4_4 C16_4 1_555 1_555
C17_2 N7_2 1_555 1_555
H5_2 C17_2 1_555 1_555
C18_2 C5_2 1_555 1_555
H6_2 C18_2 1_555 1_555
C20_4 C12_4 1_555 1_555
C21_4 Ag2_4 1_555 1_555
H7_2 C22_2 1_555 1_555
C23_4 C7_4 1_555 1_555
H8_4 C23_4 1_555 1_555
C25_2 C17_2 1_555 1_555
H9_2 C25_2 1_555 1_555
C26_4 C10_4 1_555 1_555
H10_4 C26_4 1_555 1_555
C27_4 C20_4 1_555 1_555
H11_4 C27_4 1_555 1_555
C29_4 N1_4 1_555 1_555
H12_4 C29_4 1_555 1_555
C30_4 N5_4 1_555 1_555
C33_2 N7_2 1_555 1_555
H14_2 C33_2 1_555 1_555
C38_2 C6_2 1_555 1_555
H19_2 C38_2 1_555 1_555
C39_4 C9_4 1_555 1_555
H20_4 C39_4 1_555 1_555
C41_4 C11_4 1_555 1_555
H22_4 C41_4 1_555 1_555
C42_4 Ag4_4 1_555 1_555
C43_4 H23_4 1_555 1_555
C44_4 C39_4 1_555 1_555
H24_4 C44_4 1_555 1_555
C45_4 N14_2 1_555 1_555
H25_4 C45_4 1_555 1_555
C46_4 C14_4 1_555 1_555
H26_4 C46_4 1_555 1_555
C47_4 C7_4 1_555 1_555
H27_4 C47_4 1_555 1_555
Fe6 N10_2 1_555 1_555
N8_4 C21_4 1_555 1_555
C18_2 C22_2 1_555 1_555
C23_4 C45_4 1_555 1_555
C26_4 C27_4 1_555 1_555
C29_4 C41_4 1_555 1_555
C33_2 C38_2 1_555 1_555
C43_4 C47_4 1_555 1_555
C44_4 C46_4 1_555 1_555
N13_2 C31_4 1_555 1_555
N4_2 C28_4 1_555 1_555
N11_4 C19_4 1_555 1_555
C1_4 C4_4 1_555 1_555
C3_4 H1_4 1_555 1_555
C4_4 C3_4 1_555 1_555
C24_4 C1_4 1_555 1_555
C31_4 C3_4 1_555 1_555
H13_4 C31_4 1_555 1_555
C34_4 H15_4 1_555 1_555
C35_4 C24_4 1_555 1_555
H16_4 C35_4 1_555 1_555
C36_4 C34_4 1_555 1_555
H17_4 C36_4 1_555 1_555
C37_4 C4_4 1_555 1_555
H18_4 C37_4 1_555 1_555
C40_4 N13_2 1_555 1_555
H21_4 C40_4 1_555 1_555
C48_4 C32_4 1_555 1_555
H28_4 C48_4 1_555 1_555
Fe6 N4_2 1_555 1_555
C24_4 C32_4 1_555 1_555
C34_4 C35_4 1_555 1_555
C36_4 C48_4 1_555 1_555
C37_4 C40_4 1_555 1_555
C5_3 C6_3 1_555 1_555
C6_3 C25_3 1_555 1_555
C17_3 N7_3 1_555 1_555
H5_3 C17_3 1_555 1_555
C25_3 C17_3 1_555 1_555
H9_3 C25_3 1_555 1_555
H6_3 C18_3 1_555 1_555
H7_3 C22_3 1_555 1_555
H14_3 C33_3 1_555 1_555
H19_3 C38_3 1_555 1_555
C18_3 C22_3 1_555 1_555
C33_3 C38_3 1_555 1_555
H6_4 C18_4 1_555 1_555
H7_4 C22_4 1_555 1_555
H14_4 C33_4 1_555 1_555
H19_4 C38_4 1_555 1_555
C18_4 C22_4 1_555 1_555
C33_4 C38_4 1_555 1_555
C5_4 C6_4 1_555 1_555
C6_4 C25_4 1_555 1_555
C17_4 N7_4 1_555 1_555
H5_4 C17_4 1_555 1_555
C25_4 C17_4 1_555 1_555
H9_4 C25_4 1_555 1_555

#END
