
###############################################################################
#
# This file contains modified crystal structure data generated from the
# MOF subset of the Cambridge Structural Database (CSD) v543 
# hosted by the Cambridge Crystallographic Data Centre (CCDC).
#
# This work is licensed under the Creative Commons
# Attribution-NonCommercial-ShareAlike 4.0 International License.
# To view a copy of this license, visit
# http://creativecommons.org/licenses/by-nc-sa/4.0/
# or send a letter to
# Creative Commons, PO Box 1866, Mountain View, CA 94042, USA.
#
# CIF created using the CSD Python API on 29 September 2022
# The structure has been converted into the P1 space group
# The structure has a 3D framework
# The original CSD entry XAMRIQ is in the tetragonal crystal system
# The original CSD entry XAMRIQ is in a Sohncke space group
# The framework has been calculated to contain at least 10.0% void space
# The void calculation uses a probe of radius 1.32A, grid spacing 0.4
# H atom positions have been added when not included in the experimental data
#
###############################################################################

data_XAMRIQ
_chemical_formula_moiety         '(C140 H88 N20 O88 Pr12)n'
_symmetry_cell_setting           triclinic
_symmetry_space_group_name_H-M   'P 1'
_symmetry_Int_Tables_number      1
_space_group_name_Hall           'P 1'
loop_
_symmetry_equiv_pos_site_id
_symmetry_equiv_pos_as_xyz
1 x,y,z
_cell_length_a                   9.6012(2)
_cell_length_b                   9.6012(2)
_cell_length_c                   52.2993(10)
_cell_angle_alpha                90
_cell_angle_beta                 90
_cell_angle_gamma                90
_cell_volume                     4821.11
loop_
_atom_site_label
_atom_site_type_symbol
_atom_site_fract_x
_atom_site_fract_y
_atom_site_fract_z
Pr5 Pr 0.12806(4) 0.38855(4) 0.06618(2)
Pr8 Pr 0.03429(4) 0.47358(4) 0.98096(2)
Pr10 Pr 0.11157(4) 0.36968(4) 0.89282(2)
O4 O 0.1917(13) 0.6938(18) 0.1989(2)
O6 O 0.1533(6) 0.3328(6) 0.01874(13)
O12 O 0.2994(6) 0.2874(8) 0.09555(13)
O13 O 0.5088(7) 0.2290(8) 0.10891(13)
O14 O 0.9059(7) 0.2917(8) 0.04811(12)
O15 O 0.8721(8) 0.4355(9) 0.01534(15)
N1 N 0.1449(10) 0.5617(11) 0.10729(18)
N2 N 0.1616(9) 0.1225(8) 0.05255(15)
N3 N 0.3967(7) 0.3911(9) 0.05216(16)
C1 C 0.0253(11) 0.6127(11) 0.1146(2)
C2 C 0.0036(12) 0.6624(14) 0.1393(2)
C3 C 0.1104(13) 0.6543(14) 0.1568(2)
C4 C 0.2395(14) 0.6095(15) 0.1486(2)
C5 C 0.2507(14) 0.5625(17) 0.1234(3)
C7 C 0.0932(16) 0.6953(15) 0.1843(3)
C8 C 0.1390(10) 0.0899(9) 0.02750(17)
C12 C 0.1835(13) 0.0184(11) 0.0685(2)
C13 C 0.1134(9) 0.2149(8) 0.01068(15)
C15 C 0.4901(8) 0.3375(9) 0.06876(16)
C16 C 0.6290(9) 0.3292(10) 0.06404(17)
C17 C 0.6781(9) 0.3797(9) 0.04073(16)
C18 C 0.5841(11) 0.4355(12) 0.02336(19)
C19 C 0.4455(10) 0.4398(11) 0.03003(19)
C20 C 0.4286(8) 0.2790(9) 0.09310(16)
C21 C 0.8314(9) 0.3699(10) 0.03430(18)
H2 H 0.31613 0.61035 0.15951
H3 H 0.33662 0.53047 0.11765
H6 H 0.19860 0.04006 0.08566
H7 H 0.68954 0.29103 0.07602
H8 H 0.61397 0.46916 0.00761
H9 H 0.38274 0.47861 0.01852
Pr11 Pr 0.63032(4) 0.11157(4) 0.14282(2)
O24 O 0.1349(9) 0.6679(7) 0.00566(15)
O25 O 0.1782(9) 0.6069(7) 0.04552(14)
O31 O 0.0116(7) 0.2711(8) 0.10120(14)
O7 O 0.0530(8) 0.2014(7) 0.98947(12)
O16 O 0.1684(6) 0.3627(6) 0.94131(13)
O17 O 0.3000(7) 0.4534(8) 0.97193(12)
O18 O 0.8356(7) 0.3906(9) 0.95601(14)
O19 O 0.8937(7) 0.3494(10) 0.91585(15)
O20 O 0.2437(8) 0.2033(6) 0.86621(12)
N4 N 0.3801(8) 0.3724(9) 0.90803(17)
N5 N 0.1231(9) 0.1111(8) 0.90900(16)
C22 C 0.4108(9) 0.3869(9) 0.93299(16)
C23 C 0.5465(9) 0.3893(10) 0.94203(19)
C24 C 0.6576(9) 0.3769(10) 0.92520(19)
C25 C 0.6246(10) 0.3671(12) 0.89940(17)
C26 C 0.4860(10) 0.3650(12) 0.8913(2)
C27 C 0.2862(8) 0.4016(9) 0.95023(16)
C28 C 0.8078(9) 0.3733(11) 0.93342(19)
C29 C 0.1729(9) 0.0171(8) 0.89201(18)
C33 C 0.0696(12) 0.0690(9) 0.93116(19)
C34 C 0.2340(9) 0.0737(8) 0.86813(15)
H10 H 0.56317 0.39918 0.95945
H11 H 0.69578 0.36189 0.88737
H12 H 0.46662 0.35827 0.87391
H15 H 0.03534 0.13549 0.94247
O26 O 0.2290(8) 0.4912(7) 0.85891(13)
O32 O 0.1287(12) 0.5987(8) 0.90921(17)
O33 O 0.0656(10) 0.6447(8) 0.94873(16)
C9 C 0.1358(10) 0.9543(9) 0.01883(18)
C10 C 0.1612(10) 0.8461(9) 0.03619(19)
C11 C 0.1854(13) 0.8819(11) 0.0618(2)
C14 C 0.1570(10) 0.6937(9) 0.02827(18)
H4 H 0.11705 0.93495 0.00175
H5 H 0.20257 0.81327 0.07394
O21 O 0.2711(8) 0.9884(7) 0.85120(14)
C30 C 0.1683(10) 0.8762(8) 0.89767(17)
C31 C 0.1137(11) 0.8307(10) 0.92100(19)
C32 C 0.0629(12) 0.9288(10) 0.93802(19)
C35 C 0.1060(12) 0.6792(10) 0.9268(2)
H13 H 0.20171 0.81169 0.88591
H14 H 0.02532 0.90183 0.95365
Pr6 Pr 0.38855(4) 0.87194(4) 0.81618(2)
O1 O 0.9315(8) 0.5521(8) 0.07419(14)
O2 O 0.8017(8) 0.6827(9) 0.09998(15)
O3 O 0.9695(11) 0.7240(13) 0.19088(16)
C6 C 0.9089(12) 0.6158(11) 0.0949(2)
H1 H 0.91818 0.70051 0.14394
H16 H 0.966282 0.819646 0.19808
O5 O 0.8499(10) 0.6671(9) 0.98546(16)
O10 O 0.9329(11) 0.5380(12) 0.8691(3)
O11 O 0.9590(9) 0.2300(10) 0.86247(15)
H17 H 0.836107 0.508773 0.873094
H18 H 0.947633 0.635173 0.875012
H19 H 0.972058 0.264669 0.844743
H20 H 0.985532 0.130145 0.863326
H21 H 0.888869 0.744982 0.995702
H22 H 0.823565 0.701712 0.968233
O8 O 0.3321(7) 0.1349(9) 0.25566(15)
O9 O 0.3931(7) 0.1782(9) 0.29552(14)
O22 O 0.4013(8) 0.1287(12) 0.15921(17)
O23 O 0.3553(8) 0.0656(10) 0.19873(16)
C9_2 C 0.0457(9) 0.1358(10) 0.26883(18)
C10_2 C 0.1539(9) 0.1612(10) 0.28619(19)
C11_2 C 0.1181(11) 0.1854(13) 0.3118(2)
C14_2 C 0.3063(9) 0.1570(10) 0.27827(18)
C30_2 C 0.1238(8) 0.1683(10) 0.14767(17)
C31_2 C 0.1693(10) 0.1137(11) 0.17100(19)
C32_2 C 0.0712(10) 0.0629(12) 0.18802(19)
C35_2 C 0.3208(10) 0.1060(12) 0.1768(2)
H4_2 H 0.06505 0.11705 0.25175
H5_2 H 0.18673 0.20257 0.32394
H13_2 H 0.18831 0.20171 0.13591
H14_2 H 0.09817 0.02532 0.20365
Pr4 Pr 0.61145(4) 0.12806(4) 0.31618(2)
Pr7 Pr 0.52642(4) 0.03429(4) 0.23096(2)
O4_2 O 0.3062(18) 0.1917(13) 0.4489(2)
O6_2 O 0.6672(6) 0.1533(6) 0.26874(13)
O7_2 O 0.7986(7) 0.0530(8) 0.23947(12)
O12_2 O 0.7126(8) 0.2994(6) 0.34555(13)
O13_2 O 0.7710(8) 0.5088(7) 0.35891(13)
O14_2 O 0.7083(8) 0.9059(7) 0.29811(12)
O15_2 O 0.5645(9) 0.8721(8) 0.26534(15)
O16_2 O 0.6373(6) 0.1684(6) 0.19131(13)
O17_2 O 0.5466(8) 0.3000(7) 0.22193(12)
O18_2 O 0.6094(9) 0.8356(7) 0.20601(14)
O19_2 O 0.6506(10) 0.8937(7) 0.16585(15)
O20_2 O 0.7967(6) 0.2437(8) 0.11621(12)
N1_2 N 0.4383(11) 0.1449(10) 0.35729(18)
N2_2 N 0.8775(8) 0.1616(9) 0.30255(15)
N3_2 N 0.6089(9) 0.3967(7) 0.30216(16)
N4_2 N 0.6276(9) 0.3801(8) 0.15803(17)
N5_2 N 0.8889(8) 0.1231(9) 0.15900(16)
C1_2 C 0.3873(11) 0.0253(11) 0.3646(2)
C2_2 C 0.3376(14) 0.0036(12) 0.3893(2)
C3_2 C 0.3457(14) 0.1104(13) 0.4068(2)
C4_2 C 0.3905(15) 0.2395(14) 0.3986(2)
C5_2 C 0.4375(17) 0.2507(14) 0.3734(3)
C7_2 C 0.3047(15) 0.0932(16) 0.4343(3)
C8_2 C 0.9101(9) 0.1390(10) 0.27750(17)
C12_2 C 0.9816(11) 0.1835(13) 0.3185(2)
C13_2 C 0.7851(8) 0.1134(9) 0.26068(15)
C15_2 C 0.6625(9) 0.4901(8) 0.31876(16)
C16_2 C 0.6708(10) 0.6290(9) 0.31404(17)
C17_2 C 0.6203(9) 0.6781(9) 0.29073(16)
C18_2 C 0.5645(12) 0.5841(11) 0.27336(19)
C19_2 C 0.5602(11) 0.4455(10) 0.28003(19)
C20_2 C 0.7210(9) 0.4286(8) 0.34310(16)
C21_2 C 0.6301(10) 0.8314(9) 0.28430(18)
C22_2 C 0.6131(9) 0.4108(9) 0.18299(16)
C23_2 C 0.6107(10) 0.5465(9) 0.19203(19)
C24_2 C 0.6231(10) 0.6576(9) 0.17520(19)
C25_2 C 0.6329(12) 0.6246(10) 0.14940(17)
C26_2 C 0.6350(12) 0.4860(10) 0.1413(2)
C27_2 C 0.5984(9) 0.2862(8) 0.20023(16)
C28_2 C 0.6267(11) 0.8078(9) 0.18342(19)
C29_2 C 0.9829(8) 0.1729(9) 0.14201(18)
C33_2 C 0.9310(9) 0.0696(12) 0.18116(19)
C34_2 C 0.9263(8) 0.2340(9) 0.11813(15)
H2_2 H 0.38965 0.31613 0.40951
H3_2 H 0.46953 0.33662 0.36765
H6_2 H 0.95994 0.19860 0.33566
H7_2 H 0.70897 0.68954 0.32602
H8_2 H 0.53084 0.61397 0.25761
H9_2 H 0.52139 0.38274 0.26852
H10_2 H 0.60082 0.56317 0.20945
H11_2 H 0.63811 0.69578 0.13737
H12_2 H 0.64173 0.46662 0.12391
H15_2 H 0.86451 0.03534 0.19247
Pr11_2 Pr 0.88843(4) 0.63032(4) 0.39282(2)
O31_2 O 0.7289(8) 0.0116(7) 0.35120(14)
O1_2 O 0.4479(8) 0.9315(8) 0.32419(14)
O2_2 O 0.3173(9) 0.8017(8) 0.34998(15)
O3_2 O 0.2760(13) 0.9695(11) 0.44088(16)
O5_2 O 0.3329(9) 0.8499(10) 0.23546(16)
O10_2 O 0.4620(12) 0.9329(11) 0.1191(3)
O11_2 O 0.7700(10) 0.9590(9) 0.11247(15)
C6_2 C 0.3842(11) 0.9089(12) 0.3449(2)
H1_2 H 0.29949 0.91818 0.39394
H16_2 H 0.180354 0.966282 0.44808
H17_2 H 0.491227 0.836107 0.123094
H18_2 H 0.364827 0.947633 0.125012
H19_2 H 0.735331 0.972058 0.094743
H20_2 H 0.869855 0.985532 0.113326
H21_2 H 0.255018 0.888869 0.245702
H22_2 H 0.298288 0.823565 0.218233
O1_3 O 0.0685(8) 0.4479(8) 0.57419(14)
O2_3 O 0.1983(8) 0.3173(9) 0.59998(15)
O3_3 O 0.0305(11) 0.2760(13) 0.69088(16)
O5_3 O 0.1501(10) 0.3329(9) 0.48546(16)
O10_3 O 0.0671(11) 0.4620(12) 0.3691(3)
O11_3 O 0.0410(9) 0.7700(10) 0.36247(15)
C6_3 C 0.0911(12) 0.3842(11) 0.5949(2)
H1_3 H 0.08182 0.29949 0.64394
O27 O 0.0941(7) 0.7083(8) 0.54811(12)
O28 O 0.1279(8) 0.5645(9) 0.51534(15)
O29 O 0.1644(7) 0.6094(9) 0.45601(14)
O30 O 0.1063(7) 0.6506(10) 0.41585(15)
H16_3 H 0.0337185 0.180354 0.69808
H17_3 H 0.163893 0.491227 0.373094
H18_3 H 0.0523669 0.364827 0.375012
H19_3 H 0.0279418 0.735331 0.344743
H20_3 H 0.014468 0.869855 0.363326
H21_3 H 0.111131 0.255018 0.495702
H22_3 H 0.176435 0.298288 0.468233
O8_2 O 0.8651(9) 0.3321(7) 0.50566(15)
O9_2 O 0.8218(9) 0.3931(7) 0.54552(14)
O22_2 O 0.8713(12) 0.4013(8) 0.40921(17)
O23_2 O 0.9344(10) 0.3553(8) 0.44873(16)
C9_3 C 0.8642(10) 0.0457(9) 0.51883(18)
C10_3 C 0.8388(10) 0.1539(9) 0.53619(19)
C11_3 C 0.8146(13) 0.1181(11) 0.5618(2)
C14_3 C 0.8430(10) 0.3063(9) 0.52827(18)
C30_3 C 0.8317(10) 0.1238(8) 0.39767(17)
C31_3 C 0.8863(11) 0.1693(10) 0.42100(19)
C32_3 C 0.9371(12) 0.0712(10) 0.43802(19)
C35_3 C 0.8940(12) 0.3208(10) 0.4268(2)
H4_3 H 0.88295 0.06505 0.50175
H5_3 H 0.79743 0.18673 0.57394
H13_3 H 0.79829 0.18831 0.38591
H14_3 H 0.97468 0.09817 0.45365
Pr4_2 Pr 0.87194(4) 0.61145(4) 0.56618(2)
Pr7_2 Pr 0.96571(4) 0.52642(4) 0.48096(2)
O4_3 O 0.8083(13) 0.3062(18) 0.6989(2)
O6_3 O 0.8467(6) 0.6672(6) 0.51874(13)
O7_3 O 0.9470(8) 0.7986(7) 0.48947(12)
O12_3 O 0.7006(6) 0.7126(8) 0.59555(13)
O13_3 O 0.4912(7) 0.7710(8) 0.60891(13)
O16_3 O 0.8316(6) 0.6373(6) 0.44131(13)
O17_3 O 0.7000(7) 0.5466(8) 0.47193(12)
O20_3 O 0.7563(8) 0.7967(6) 0.36621(12)
N1_3 N 0.8551(10) 0.4383(11) 0.60729(18)
N2_3 N 0.8384(9) 0.8775(8) 0.55255(15)
N3_3 N 0.6033(7) 0.6089(9) 0.55216(16)
N4_3 N 0.6199(8) 0.6276(9) 0.40803(17)
N5_3 N 0.8769(9) 0.8889(8) 0.40900(16)
C1_3 C 0.9747(11) 0.3873(11) 0.6146(2)
C2_3 C 0.9964(12) 0.3376(14) 0.6393(2)
C3_3 C 0.8896(13) 0.3457(14) 0.6568(2)
C4_3 C 0.7605(14) 0.3905(15) 0.6486(2)
C5_3 C 0.7493(14) 0.4375(17) 0.6234(3)
C7_3 C 0.9068(16) 0.3047(15) 0.6843(3)
C8_3 C 0.8610(10) 0.9101(9) 0.52750(17)
C12_3 C 0.8165(13) 0.9816(11) 0.5685(2)
C13_3 C 0.8866(9) 0.7851(8) 0.51068(15)
C15_3 C 0.5099(8) 0.6625(9) 0.56876(16)
C16_3 C 0.3710(9) 0.6708(10) 0.56404(17)
C17_3 C 0.3219(9) 0.6203(9) 0.54073(16)
C18_3 C 0.4159(11) 0.5645(12) 0.52336(19)
C19_3 C 0.5545(10) 0.5602(11) 0.53003(19)
C20_3 C 0.5714(8) 0.7210(9) 0.59310(16)
C21_3 C 0.1686(9) 0.6301(10) 0.53430(18)
C22_3 C 0.5892(9) 0.6131(9) 0.43299(16)
C23_3 C 0.4535(9) 0.6107(10) 0.44203(19)
C24_3 C 0.3424(9) 0.6231(10) 0.42520(19)
C25_3 C 0.3754(10) 0.6329(12) 0.39940(17)
C26_3 C 0.5140(10) 0.6350(12) 0.3913(2)
C27_3 C 0.7138(8) 0.5984(9) 0.45023(16)
C28_3 C 0.1922(9) 0.6267(11) 0.43342(19)
C29_3 C 0.8271(9) 0.9829(8) 0.39201(18)
C33_3 C 0.9304(12) 0.9310(9) 0.43116(19)
C34_3 C 0.7660(9) 0.9263(8) 0.36813(15)
H2_3 H 0.68387 0.38965 0.65951
H3_3 H 0.66338 0.46953 0.61765
H6_3 H 0.80140 0.95994 0.58566
H7_3 H 0.31046 0.70897 0.57602
H8_3 H 0.38603 0.53084 0.50761
H9_3 H 0.61726 0.52139 0.51852
H10_3 H 0.43683 0.60082 0.45945
H11_3 H 0.30422 0.63811 0.38737
H12_3 H 0.53338 0.64173 0.37391
H15_3 H 0.96466 0.86451 0.44247
Pr11_3 Pr 0.36968(4) 0.88843(4) 0.64282(2)
O31_3 O 0.9884(7) 0.7289(8) 0.60120(14)
O1_4 O 0.5521(8) 0.0685(8) 0.82419(14)
O2_4 O 0.6827(9) 0.1983(8) 0.84998(15)
O3_4 O 0.7240(13) 0.0305(11) 0.94088(16)
O5_4 O 0.6671(9) 0.1501(10) 0.73546(16)
O10_4 O 0.5380(12) 0.0671(11) 0.6191(3)
O11_4 O 0.2300(10) 0.0410(9) 0.61247(15)
C6_4 C 0.6158(11) 0.0911(12) 0.8449(2)
H1_4 H 0.70051 0.08182 0.89394
O27_2 O 0.2917(8) 0.0941(7) 0.79811(12)
O28_2 O 0.4355(9) 0.1279(8) 0.76534(15)
O29_2 O 0.3906(9) 0.1644(7) 0.70601(14)
O30_2 O 0.3494(10) 0.1063(7) 0.66585(15)
H16_4 H 0.819646 0.0337185 0.94808
H17_4 H 0.508773 0.163893 0.623094
H18_4 H 0.635173 0.0523669 0.625012
H19_4 H 0.264669 0.0279418 0.594743
H20_4 H 0.130145 0.014468 0.613326
H21_4 H 0.744982 0.111131 0.745702
H22_4 H 0.701712 0.176435 0.718233
Pr2 Pr 0.47358(4) 0.96571(4) 0.73096(2)
O4_4 O 0.6938(18) 0.8083(13) 0.9489(2)
O6_4 O 0.3328(6) 0.8467(6) 0.76874(13)
O7_4 O 0.2014(7) 0.9470(8) 0.73947(12)
O12_4 O 0.2874(8) 0.7006(6) 0.84555(13)
O16_4 O 0.3627(6) 0.8316(6) 0.69131(13)
O17_4 O 0.4534(8) 0.7000(7) 0.72193(12)
O20_4 O 0.2033(6) 0.7563(8) 0.61621(12)
N1_4 N 0.5617(11) 0.8551(10) 0.85729(18)
N2_4 N 0.1225(8) 0.8384(9) 0.80255(15)
N3_4 N 0.3911(9) 0.6033(7) 0.80216(16)
N4_4 N 0.3724(9) 0.6199(8) 0.65803(17)
N5_4 N 0.1111(8) 0.8769(9) 0.65900(16)
C1_4 C 0.6127(11) 0.9747(11) 0.8646(2)
C2_4 C 0.6624(14) 0.9964(12) 0.8893(2)
C3_4 C 0.6543(14) 0.8896(13) 0.9068(2)
C4_4 C 0.6095(15) 0.7605(14) 0.8986(2)
C5_4 C 0.5625(17) 0.7493(14) 0.8734(3)
C7_4 C 0.6953(15) 0.9068(16) 0.9343(3)
C8_4 C 0.0899(9) 0.8610(10) 0.77750(17)
C12_4 C 0.0184(11) 0.8165(13) 0.8185(2)
C13_4 C 0.2149(8) 0.8866(9) 0.76068(15)
C15_4 C 0.3375(9) 0.5099(8) 0.81876(16)
C16_4 C 0.3292(10) 0.3710(9) 0.81404(17)
C17_4 C 0.3797(9) 0.3219(9) 0.79073(16)
C18_4 C 0.4355(12) 0.4159(11) 0.77336(19)
C19_4 C 0.4398(11) 0.5545(10) 0.78003(19)
C20_4 C 0.2790(9) 0.5714(8) 0.84310(16)
C21_4 C 0.3699(10) 0.1686(9) 0.78430(18)
C22_4 C 0.3869(9) 0.5892(9) 0.68299(16)
C23_4 C 0.3893(10) 0.4535(9) 0.69203(19)
C24_4 C 0.3769(10) 0.3424(9) 0.67520(19)
C25_4 C 0.3671(12) 0.3754(10) 0.64940(17)
C26_4 C 0.3650(12) 0.5140(10) 0.6413(2)
C27_4 C 0.4016(9) 0.7138(8) 0.70023(16)
C28_4 C 0.3733(11) 0.1922(9) 0.68342(19)
C29_4 C 0.0171(8) 0.8271(9) 0.64201(18)
C33_4 C 0.0690(9) 0.9304(12) 0.68116(19)
C34_4 C 0.0737(8) 0.7660(9) 0.61813(15)
H2_4 H 0.61035 0.68387 0.90951
H3_4 H 0.53047 0.66338 0.86765
H6_4 H 0.04006 0.80140 0.83566
H7_4 H 0.29103 0.31046 0.82602
H8_4 H 0.46916 0.38603 0.75761
H9_4 H 0.47861 0.61726 0.76852
H10_4 H 0.39918 0.43683 0.70945
H11_4 H 0.36189 0.30422 0.63737
H12_4 H 0.35827 0.53338 0.62391
H15_4 H 0.13549 0.96466 0.69247
O24_2 O 0.6679(7) 0.8651(9) 0.75566(15)
O25_2 O 0.6069(7) 0.8218(9) 0.79552(14)
O32_2 O 0.5987(8) 0.8713(12) 0.65921(17)
O33_2 O 0.6447(8) 0.9344(10) 0.69873(16)
C9_4 C 0.9543(9) 0.8642(10) 0.76883(18)
C10_4 C 0.8461(9) 0.8388(10) 0.78619(19)
C11_4 C 0.8819(11) 0.8146(13) 0.8118(2)
C14_4 C 0.6937(9) 0.8430(10) 0.77827(18)
C30_4 C 0.8762(8) 0.8317(10) 0.64767(17)
C31_4 C 0.8307(10) 0.8863(11) 0.67100(19)
C32_4 C 0.9288(10) 0.9371(12) 0.68802(19)
C35_4 C 0.6792(10) 0.8940(12) 0.6768(2)
H4_4 H 0.93495 0.88295 0.75175
H5_4 H 0.81327 0.79743 0.82394
H13_4 H 0.81169 0.79829 0.63591
H14_4 H 0.90183 0.97468 0.70365
loop_
_geom_bond_atom_site_label_1
_geom_bond_atom_site_label_2
_geom_bond_site_symmetry_1
_geom_bond_site_symmetry_2
O4 C7 1_555 1_555
O6 Pr5 1_555 1_555
O12 Pr5 1_555 1_555
O13 C20 1_555 1_555
O14 C21 1_555 1_555
O15 C21 1_555 1_555
N1 Pr5 1_555 1_555
N2 Pr5 1_555 1_555
N3 Pr5 1_555 1_555
C1 N1 1_555 1_555
C2 C1 1_555 1_555
C3 C2 1_555 1_555
C4 C3 1_555 1_555
C5 N1 1_555 1_555
C7 C3 1_555 1_555
C8 N2 1_555 1_555
C12 N2 1_555 1_555
C13 O6 1_555 1_555
C15 N3 1_555 1_555
C16 C15 1_555 1_555
C17 C16 1_555 1_555
C18 C17 1_555 1_555
C19 N3 1_555 1_555
C20 O12 1_555 1_555
C21 C17 1_555 1_555
H2 C4 1_555 1_555
H3 C5 1_555 1_555
H6 C12 1_555 1_555
H7 C16 1_555 1_555
H8 C18 1_555 1_555
H9 C19 1_555 1_555
Pr11 O13 1_555 1_555
O25 Pr5 1_555 1_555
O31 Pr5 1_555 1_555
C4 C5 1_555 1_555
C8 C13 1_555 1_555
C15 C20 1_555 1_555
C18 C19 1_555 1_555
O7 Pr8 1_555 1_555
O16 Pr8 1_555 1_555
O17 Pr8 1_555 1_555
O18 C28 1_555 1_555
O19 C28 1_555 1_555
O20 Pr10 1_555 1_555
N4 Pr10 1_555 1_555
N5 Pr10 1_555 1_555
C22 N4 1_555 1_555
C23 C22 1_555 1_555
C24 C23 1_555 1_555
C25 C24 1_555 1_555
C26 N4 1_555 1_555
C27 O16 1_555 1_555
C28 C24 1_555 1_555
C29 N5 1_555 1_555
C33 N5 1_555 1_555
C34 O20 1_555 1_555
H10 C23 1_555 1_555
H11 C25 1_555 1_555
H12 C26 1_555 1_555
H15 C33 1_555 1_555
O26 Pr10 1_555 1_555
O32 Pr10 1_555 1_555
O33 Pr8 1_555 1_555
Pr10 O16 1_555 1_555
O17 C27 1_555 1_555
C22 C27 1_555 1_555
C25 C26 1_555 1_555
C29 C34 1_555 1_555
O24 C14 1_555 1_555
O25 C14 1_555 1_555
C10 C9 1_555 1_555
C11 C10 1_555 1_555
C14 C10 1_555 1_555
H4 C9 1_555 1_555
H5 C11 1_555 1_555
O32 C35 1_555 1_555
O33 C35 1_555 1_555
C31 C30 1_555 1_555
C32 C31 1_555 1_555
C35 C31 1_555 1_555
H13 C30 1_555 1_555
H14 C32 1_555 1_555
Pr6 O21 1_555 1_555
O1 C6 1_555 1_555
O2 C6 1_555 1_555
O3 H16 1_555 1_555
O10 H17 1_555 1_555
O10 H18 1_555 1_555
O11 H19 1_555 1_555
O11 H20 1_555 1_555
O5 H21 1_555 1_555
O5 H22 1_555 1_555
O8 C14_2 1_555 1_555
O9 C14_2 1_555 1_555
O22 C35_2 1_555 1_555
O23 C35_2 1_555 1_555
C10_2 C9_2 1_555 1_555
C11_2 C10_2 1_555 1_555
C14_2 C10_2 1_555 1_555
C31_2 C30_2 1_555 1_555
C32_2 C31_2 1_555 1_555
C35_2 C31_2 1_555 1_555
H4_2 C9_2 1_555 1_555
H5_2 C11_2 1_555 1_555
H13_2 C30_2 1_555 1_555
H14_2 C32_2 1_555 1_555
Pr4 O9 1_555 1_555
Pr7 O8 1_555 1_555
Pr11 O22 1_555 1_555
O23 Pr7 1_555 1_555
O4_2 C7_2 1_555 1_555
O6_2 Pr4 1_555 1_555
O7_2 Pr7 1_555 1_555
O12_2 Pr4 1_555 1_555
O13_2 C20_2 1_555 1_555
O14_2 C21_2 1_555 1_555
O15_2 C21_2 1_555 1_555
O16_2 Pr7 1_555 1_555
O17_2 Pr7 1_555 1_555
O18_2 C28_2 1_555 1_555
O19_2 C28_2 1_555 1_555
O20_2 Pr11 1_555 1_555
N1_2 Pr4 1_555 1_555
N2_2 Pr4 1_555 1_555
N3_2 Pr4 1_555 1_555
N4_2 Pr11 1_555 1_555
N5_2 Pr11 1_555 1_555
C1_2 N1_2 1_555 1_555
C2_2 C1_2 1_555 1_555
C3_2 C2_2 1_555 1_555
C4_2 C3_2 1_555 1_555
C5_2 N1_2 1_555 1_555
C7_2 C3_2 1_555 1_555
C8_2 N2_2 1_555 1_555
C12_2 N2_2 1_555 1_555
C13_2 O6_2 1_555 1_555
C15_2 N3_2 1_555 1_555
C16_2 C15_2 1_555 1_555
C17_2 C16_2 1_555 1_555
C18_2 C17_2 1_555 1_555
C19_2 N3_2 1_555 1_555
C20_2 O12_2 1_555 1_555
C21_2 C17_2 1_555 1_555
C22_2 N4_2 1_555 1_555
C23_2 C22_2 1_555 1_555
C24_2 C23_2 1_555 1_555
C25_2 C24_2 1_555 1_555
C26_2 N4_2 1_555 1_555
C27_2 O16_2 1_555 1_555
C28_2 C24_2 1_555 1_555
C29_2 N5_2 1_555 1_555
C33_2 N5_2 1_555 1_555
C34_2 O20_2 1_555 1_555
H2_2 C4_2 1_555 1_555
H3_2 C5_2 1_555 1_555
H6_2 C12_2 1_555 1_555
H7_2 C16_2 1_555 1_555
H8_2 C18_2 1_555 1_555
H9_2 C19_2 1_555 1_555
H10_2 C23_2 1_555 1_555
H11_2 C25_2 1_555 1_555
H12_2 C26_2 1_555 1_555
H15_2 C33_2 1_555 1_555
Pr11_2 O13_2 1_555 1_555
O31_2 Pr4 1_555 1_555
Pr7 O6_2 1_555 1_555
Pr11 O16_2 1_555 1_555
O7_2 C13_2 1_555 1_555
O17_2 C27_2 1_555 1_555
C4_2 C5_2 1_555 1_555
C8_2 C13_2 1_555 1_555
C15_2 C20_2 1_555 1_555
C18_2 C19_2 1_555 1_555
C22_2 C27_2 1_555 1_555
C25_2 C26_2 1_555 1_555
C29_2 C34_2 1_555 1_555
O1_2 C6_2 1_555 1_555
O2_2 C6_2 1_555 1_555
O3_2 H16_2 1_555 1_555
O10_2 H17_2 1_555 1_555
O10_2 H18_2 1_555 1_555
O11_2 H19_2 1_555 1_555
O11_2 H20_2 1_555 1_555
O5_2 H21_2 1_555 1_555
O5_2 H22_2 1_555 1_555
O1_3 C6_3 1_555 1_555
O2_3 C6_3 1_555 1_555
O3_3 H16_3 1_555 1_555
O10_3 H17_3 1_555 1_555
O10_3 H18_3 1_555 1_555
O11_3 H19_3 1_555 1_555
O11_3 H20_3 1_555 1_555
O5_3 H21_3 1_555 1_555
O5_3 H22_3 1_555 1_555
O8_2 C14_3 1_555 1_555
O9_2 C14_3 1_555 1_555
O22_2 C35_3 1_555 1_555
O23_2 C35_3 1_555 1_555
C10_3 C9_3 1_555 1_555
C11_3 C10_3 1_555 1_555
C14_3 C10_3 1_555 1_555
C31_3 C30_3 1_555 1_555
C32_3 C31_3 1_555 1_555
C35_3 C31_3 1_555 1_555
H4_3 C9_3 1_555 1_555
H5_3 C11_3 1_555 1_555
H13_3 C30_3 1_555 1_555
H14_3 C32_3 1_555 1_555
Pr4_2 O9_2 1_555 1_555
Pr7_2 O8_2 1_555 1_555
Pr11_2 O22_2 1_555 1_555
O23_2 Pr7_2 1_555 1_555
O4_3 C7_3 1_555 1_555
O6_3 Pr4_2 1_555 1_555
O7_3 Pr7_2 1_555 1_555
O12_3 Pr4_2 1_555 1_555
O13_3 C20_3 1_555 1_555
O27 C21_3 1_555 1_555
O28 C21_3 1_555 1_555
O16_3 Pr7_2 1_555 1_555
O17_3 Pr7_2 1_555 1_555
O29 C28_3 1_555 1_555
O30 C28_3 1_555 1_555
O20_3 Pr11_2 1_555 1_555
N1_3 Pr4_2 1_555 1_555
N2_3 Pr4_2 1_555 1_555
N3_3 Pr4_2 1_555 1_555
N4_3 Pr11_2 1_555 1_555
N5_3 Pr11_2 1_555 1_555
C1_3 N1_3 1_555 1_555
C2_3 C1_3 1_555 1_555
C3_3 C2_3 1_555 1_555
C4_3 C3_3 1_555 1_555
C5_3 N1_3 1_555 1_555
C7_3 C3_3 1_555 1_555
C8_3 N2_3 1_555 1_555
C12_3 N2_3 1_555 1_555
C13_3 O6_3 1_555 1_555
C15_3 N3_3 1_555 1_555
C16_3 C15_3 1_555 1_555
C17_3 C16_3 1_555 1_555
C18_3 C17_3 1_555 1_555
C19_3 N3_3 1_555 1_555
C20_3 O12_3 1_555 1_555
C21_3 C17_3 1_555 1_555
C22_3 N4_3 1_555 1_555
C23_3 C22_3 1_555 1_555
C24_3 C23_3 1_555 1_555
C25_3 C24_3 1_555 1_555
C26_3 N4_3 1_555 1_555
C27_3 O16_3 1_555 1_555
C28_3 C24_3 1_555 1_555
C29_3 N5_3 1_555 1_555
C33_3 N5_3 1_555 1_555
C34_3 O20_3 1_555 1_555
H2_3 C4_3 1_555 1_555
H3_3 C5_3 1_555 1_555
H6_3 C12_3 1_555 1_555
H7_3 C16_3 1_555 1_555
H8_3 C18_3 1_555 1_555
H9_3 C19_3 1_555 1_555
H10_3 C23_3 1_555 1_555
H11_3 C25_3 1_555 1_555
H12_3 C26_3 1_555 1_555
H15_3 C33_3 1_555 1_555
Pr11_3 O13_3 1_555 1_555
O31_3 Pr4_2 1_555 1_555
Pr7_2 O6_3 1_555 1_555
Pr11_2 O16_3 1_555 1_555
O7_3 C13_3 1_555 1_555
O17_3 C27_3 1_555 1_555
C4_3 C5_3 1_555 1_555
C8_3 C13_3 1_555 1_555
C15_3 C20_3 1_555 1_555
C18_3 C19_3 1_555 1_555
C22_3 C27_3 1_555 1_555
C25_3 C26_3 1_555 1_555
C29_3 C34_3 1_555 1_555
O1_4 C6_4 1_555 1_555
O2_4 C6_4 1_555 1_555
O3_4 H16_4 1_555 1_555
O10_4 H17_4 1_555 1_555
O10_4 H18_4 1_555 1_555
O11_4 H19_4 1_555 1_555
O11_4 H20_4 1_555 1_555
O5_4 H21_4 1_555 1_555
O5_4 H22_4 1_555 1_555
O4_4 C7_4 1_555 1_555
O6_4 Pr6 1_555 1_555
O7_4 Pr2 1_555 1_555
O12_4 Pr6 1_555 1_555
O26 C20_4 1_555 1_555
O27_2 C21_4 1_555 1_555
O28_2 C21_4 1_555 1_555
O16_4 Pr2 1_555 1_555
O17_4 Pr2 1_555 1_555
O29_2 C28_4 1_555 1_555
O30_2 C28_4 1_555 1_555
O20_4 Pr11_3 1_555 1_555
N1_4 Pr6 1_555 1_555
N2_4 Pr6 1_555 1_555
N3_4 Pr6 1_555 1_555
N4_4 Pr11_3 1_555 1_555
N5_4 Pr11_3 1_555 1_555
C1_4 N1_4 1_555 1_555
C2_4 C1_4 1_555 1_555
C3_4 C2_4 1_555 1_555
C4_4 C3_4 1_555 1_555
C5_4 N1_4 1_555 1_555
C7_4 C3_4 1_555 1_555
C8_4 N2_4 1_555 1_555
C12_4 N2_4 1_555 1_555
C13_4 O6_4 1_555 1_555
C15_4 N3_4 1_555 1_555
C16_4 C15_4 1_555 1_555
C17_4 C16_4 1_555 1_555
C18_4 C17_4 1_555 1_555
C19_4 N3_4 1_555 1_555
C20_4 O12_4 1_555 1_555
C21_4 C17_4 1_555 1_555
C22_4 N4_4 1_555 1_555
C23_4 C22_4 1_555 1_555
C24_4 C23_4 1_555 1_555
C25_4 C24_4 1_555 1_555
C26_4 N4_4 1_555 1_555
C27_4 O16_4 1_555 1_555
C28_4 C24_4 1_555 1_555
C29_4 N5_4 1_555 1_555
C33_4 N5_4 1_555 1_555
C34_4 O20_4 1_555 1_555
H2_4 C4_4 1_555 1_555
H3_4 C5_4 1_555 1_555
H6_4 C12_4 1_555 1_555
H7_4 C16_4 1_555 1_555
H8_4 C18_4 1_555 1_555
H9_4 C19_4 1_555 1_555
H10_4 C23_4 1_555 1_555
H11_4 C25_4 1_555 1_555
H12_4 C26_4 1_555 1_555
H15_4 C33_4 1_555 1_555
O24_2 Pr2 1_555 1_555
O25_2 Pr6 1_555 1_555
O32_2 Pr11_3 1_555 1_555
O33_2 Pr2 1_555 1_555
Pr2 O6_4 1_555 1_555
Pr11_3 O16_4 1_555 1_555
O7_4 C13_4 1_555 1_555
O17_4 C27_4 1_555 1_555
C4_4 C5_4 1_555 1_555
C8_4 C13_4 1_555 1_555
C15_4 C20_4 1_555 1_555
C18_4 C19_4 1_555 1_555
C22_4 C27_4 1_555 1_555
C25_4 C26_4 1_555 1_555
C29_4 C34_4 1_555 1_555
O24_2 C14_4 1_555 1_555
O25_2 C14_4 1_555 1_555
O32_2 C35_4 1_555 1_555
O33_2 C35_4 1_555 1_555
C10_4 C9_4 1_555 1_555
C11_4 C10_4 1_555 1_555
C14_4 C10_4 1_555 1_555
C31_4 C30_4 1_555 1_555
C32_4 C31_4 1_555 1_555
C35_4 C31_4 1_555 1_555
H4_4 C9_4 1_555 1_555
H5_4 C11_4 1_555 1_555
H13_4 C30_4 1_555 1_555
H14_4 C32_4 1_555 1_555

#END
