
###############################################################################
#
# This file contains modified crystal structure data generated from the
# MOF subset of the Cambridge Structural Database (CSD) v543 
# hosted by the Cambridge Crystallographic Data Centre (CCDC).
#
# This work is licensed under the Creative Commons
# Attribution-NonCommercial-ShareAlike 4.0 International License.
# To view a copy of this license, visit
# http://creativecommons.org/licenses/by-nc-sa/4.0/
# or send a letter to
# Creative Commons, PO Box 1866, Mountain View, CA 94042, USA.
#
# CIF created using the CSD Python API on 29 September 2022
# The structure has been converted into the P1 space group
# The structure has a 3D framework
# The original CSD entry XAMROW is in the tetragonal crystal system
# The original CSD entry XAMROW is in a Sohncke space group
# The framework has been calculated to contain at least 10.0% void space
# The void calculation uses a probe of radius 1.32A, grid spacing 0.4
# H atom positions have been added when not included in the experimental data
#
###############################################################################

data_XAMROW
_chemical_formula_moiety         '(C140 H88 N20 O88 Sm12)n'
_symmetry_cell_setting           triclinic
_symmetry_space_group_name_H-M   'P 1'
_symmetry_Int_Tables_number      1
_space_group_name_Hall           'P 1'
loop_
_symmetry_equiv_pos_site_id
_symmetry_equiv_pos_as_xyz
1 x,y,z
_cell_length_a                   9.5167(2)
_cell_length_b                   9.5167(2)
_cell_length_c                   51.9286(9)
_cell_angle_alpha                90
_cell_angle_beta                 90
_cell_angle_gamma                90
_cell_volume                     4703.05
loop_
_atom_site_label
_atom_site_type_symbol
_atom_site_fract_x
_atom_site_fract_y
_atom_site_fract_z
Sm5 Sm 0.12713(4) 0.38613(4) 0.08991(2)
Sm8 Sm 0.03628(4) 0.47285(4) 0.17504(2)
Sm10 Sm 0.11397(4) 0.37020(4) 0.26313(2)
O8 O 0.2954(6) 0.2870(8) 0.06044(12)
O9 O 0.5085(7) 0.2285(9) 0.04657(14)
O10 O 0.9081(7) 0.2911(8) 0.10833(13)
O11 O 0.8720(8) 0.4342(10) 0.14184(15)
O12 O 0.1531(6) 0.3368(7) 0.13711(13)
O13 O 0.0548(8) 0.2031(7) 0.16694(13)
O16 O 0.2438(7) 0.2063(7) 0.28988(13)
O20 O 0.1673(6) 0.3623(7) 0.21468(13)
O21 O 0.2967(7) 0.4534(9) 0.18373(13)
O22 O 0.8412(8) 0.3935(9) 0.19979(15)
O23 O 0.8992(7) 0.3546(9) 0.24103(15)
N1 N 0.1474(10) 0.5576(11) 0.04973(18)
N2 N 0.3943(8) 0.3946(9) 0.10370(16)
N3 N 0.1620(9) 0.1237(8) 0.10358(16)
N4 N 0.1202(9) 0.1141(8) 0.24729(16)
N5 N 0.3800(9) 0.3732(9) 0.24824(16)
C1 C 0.0254(11) 0.6102(12) 0.0422(2)
C2 C 0.0023(12) 0.6593(14) 0.0170(2)
C4 C 0.2389(14) 0.6025(18) 0.0076(3)
C5 C 0.2540(13) 0.5605(16) 0.0334(3)
C8 C 0.4885(9) 0.3377(9) 0.08685(17)
C9 C 0.6308(9) 0.3293(11) 0.09209(18)
C10 C 0.6781(9) 0.3800(10) 0.11564(18)
C11 C 0.5834(11) 0.4371(12) 0.1328(2)
C12 C 0.4432(10) 0.4431(13) 0.12620(19)
C13 C 0.4264(9) 0.2806(10) 0.06277(17)
C14 C 0.8313(10) 0.3662(10) 0.12231(19)
C15 C 0.1393(9) 0.0909(9) 0.12831(17)
C19 C 0.1821(11) 0.0203(10) 0.0870(2)
C20 C 0.1141(9) 0.2159(8) 0.14531(16)
C22 C 0.1704(10) 0.0177(9) 0.26384(18)
C26 C 0.0659(13) 0.0712(10) 0.22506(19)
C27 C 0.2324(10) 0.0766(9) 0.28809(17)
C29 C 0.4097(10) 0.3880(10) 0.22325(18)
C30 C 0.5476(9) 0.3928(10) 0.21388(17)
C31 C 0.6576(9) 0.3798(9) 0.23090(17)
C32 C 0.6250(10) 0.3705(11) 0.25727(19)
C33 C 0.4861(10) 0.3669(11) 0.26479(19)
C34 C 0.2856(9) 0.4013(9) 0.20605(17)
C35 C 0.8093(10) 0.3768(11) 0.22330(19)
H3 H 0.34240 0.53369 0.03923
H4 H 0.69293 0.29094 0.08020
H5 H 0.61370 0.47114 0.14866
H6 H 0.38003 0.48241 0.13782
H9 H 0.19810 0.04275 0.06979
H12 H 0.02894 0.13808 0.21390
H13 H 0.56459 0.40461 0.19637
H14 H 0.69632 0.36691 0.26950
H15 H 0.46581 0.35975 0.28226
Sm11 Sm 0.62980(4) 0.11397(4) 0.01313(2)
O24 O 0.2285(9) 0.4915(7) 0.29657(14)
O27 O 0.1323(9) 0.6638(8) 0.15042(15)
O28 O 0.1701(9) 0.6032(7) 0.11007(15)
O29 O 0.0103(7) 0.2704(9) 0.05533(14)
O30 O 0.1360(13) 0.5976(8) 0.24685(16)
O31 O 0.0694(12) 0.6435(8) 0.20660(16)
O17 O 0.2704(9) 0.9897(7) 0.30533(14)
C16 C 0.1353(11) 0.9543(10) 0.13722(18)
C17 C 0.1582(10) 0.8447(9) 0.11980(18)
C18 C 0.1805(12) 0.8809(10) 0.09406(19)
C21 C 0.1539(10) 0.6916(10) 0.12762(19)
C23 C 0.1683(12) 0.8758(9) 0.25855(18)
C24 C 0.1124(11) 0.8300(9) 0.23515(18)
C25 C 0.0621(13) 0.9318(10) 0.21782(19)
C28 C 0.1049(12) 0.6780(10) 0.22889(19)
H7 H 0.11772 0.93553 0.15450
H8 H 0.19419 0.81120 0.08176
H10 H 0.20356 0.81154 0.27039
H11 H 0.02690 0.90567 0.20181
Sm6 Sm 0.38613(4) 0.87287(4) 0.33991(2)
O1 O 0.9296(8) 0.5468(8) 0.08226(15)
O2 O 0.8015(9) 0.6831(9) 0.05707(17)
O5 O 0.8528(10) 0.6617(10) 0.17099(16)
O6 O 0.9368(11) 0.5435(12) 0.2852(3)
O7 O 0.9601(9) 0.2396(11) 0.29373(17)
C6 C 0.9101(11) 0.6119(11) 0.0618(2)
H1 H 0.91512 0.69518 0.01227
H16 H 0.951337 0.541871 0.304134
H17 H 0.952875 0.640158 0.278627
H19 H 0.860424 0.250249 0.288422
H20 H 0.985918 0.138504 0.293598
H21 H 0.76848 0.622867 0.162259
H22 H 0.826432 0.695862 0.1884
C23_2 C 0.1242(9) 0.1683(12) 0.00855(18)
H10_2 H 0.18846 0.20356 0.02039
O14 O 0.3362(8) 0.1323(9) 0.90042(15)
O15 O 0.3968(7) 0.1701(9) 0.86007(15)
O18 O 0.4024(8) 0.1360(13) 0.99685(16)
O19 O 0.3565(8) 0.0694(12) 0.95660(16)
C16_2 C 0.0457(10) 0.1353(11) 0.88722(18)
C17_2 C 0.1553(9) 0.1582(10) 0.86980(18)
C18_2 C 0.1191(10) 0.1805(12) 0.84406(19)
C21_2 C 0.3084(10) 0.1539(10) 0.87762(19)
C24_2 C 0.1700(9) 0.1124(11) 0.98515(18)
C25_2 C 0.0682(10) 0.0621(13) 0.96782(19)
C28_2 C 0.3220(10) 0.1049(12) 0.97889(19)
H7_2 H 0.06447 0.11772 0.90450
H8_2 H 0.18880 0.19419 0.83176
H11_2 H 0.09433 0.02690 0.95181
Sm4 Sm 0.61387(4) 0.12713(4) 0.83991(2)
Sm7 Sm 0.52715(4) 0.03628(4) 0.92504(2)
O16_2 O 0.7937(7) 0.2438(7) 0.03988(13)
C22_2 C 0.9823(9) 0.1704(10) 0.01384(18)
C27_2 C 0.9234(9) 0.2324(10) 0.03809(17)
C32_2 C 0.6295(11) 0.6250(10) 0.00727(19)
C33_2 C 0.6331(11) 0.4861(10) 0.01479(19)
H14_2 H 0.63309 0.69632 0.01950
H15_2 H 0.64025 0.46581 0.03226
O4 O 0.3074(18) 0.1908(15) 0.7068(2)
O8_2 O 0.7130(8) 0.2954(6) 0.81044(12)
O9_2 O 0.7715(9) 0.5085(7) 0.79657(14)
O10_2 O 0.7089(8) 0.9081(7) 0.85833(13)
O11_2 O 0.5658(10) 0.8720(8) 0.89184(15)
O12_2 O 0.6632(7) 0.1531(6) 0.88711(13)
O13_2 O 0.7969(7) 0.0548(8) 0.91694(13)
O20_2 O 0.6377(7) 0.1673(6) 0.96468(13)
O21_2 O 0.5466(9) 0.2967(7) 0.93373(13)
O22_2 O 0.6065(9) 0.8412(8) 0.94979(15)
O23_2 O 0.6454(9) 0.8992(7) 0.99103(15)
N1_2 N 0.4424(11) 0.1474(10) 0.79973(18)
N2_2 N 0.6054(9) 0.3943(8) 0.85370(16)
N3_2 N 0.8763(8) 0.1620(9) 0.85358(16)
N4_2 N 0.8859(8) 0.1202(9) 0.99729(16)
N5_2 N 0.6268(9) 0.3800(9) 0.99824(16)
C1_2 C 0.3898(12) 0.0254(11) 0.7922(2)
C2_2 C 0.3407(14) 0.0023(12) 0.7670(2)
C3 C 0.3465(15) 0.1111(13) 0.7493(2)
C4_2 C 0.3975(18) 0.2389(14) 0.7576(3)
C5_2 C 0.4395(16) 0.2540(13) 0.7834(3)
C7 C 0.3092(16) 0.0935(15) 0.7214(3)
C8_2 C 0.6623(9) 0.4885(9) 0.83685(17)
C9_2 C 0.6707(11) 0.6308(9) 0.84209(18)
C10_2 C 0.6200(10) 0.6781(9) 0.86564(18)
C11_2 C 0.5629(12) 0.5834(11) 0.8828(2)
C12_2 C 0.5569(13) 0.4432(10) 0.87620(19)
C13_2 C 0.7194(10) 0.4264(9) 0.81277(17)
C14_2 C 0.6338(10) 0.8313(10) 0.87231(19)
C15_2 C 0.9091(9) 0.1393(9) 0.87831(17)
C19_2 C 0.9797(10) 0.1821(11) 0.8370(2)
C20_2 C 0.7841(8) 0.1141(9) 0.89531(16)
C26_2 C 0.9288(10) 0.0659(13) 0.97506(19)
C29_2 C 0.6120(10) 0.4097(10) 0.97325(18)
C30_2 C 0.6072(10) 0.5476(9) 0.96388(17)
C31_2 C 0.6202(9) 0.6576(9) 0.98090(17)
C34_2 C 0.5987(9) 0.2856(9) 0.95605(17)
C35_2 C 0.6232(11) 0.8093(10) 0.97330(19)
H2 H 0.40389 0.31435 0.74631
H3_2 H 0.46631 0.34240 0.78923
H4_2 H 0.70906 0.69293 0.83020
H5_2 H 0.52886 0.61370 0.89866
H6_2 H 0.51759 0.38003 0.88782
H9_2 H 0.95725 0.19810 0.81979
H12_2 H 0.86192 0.02894 0.96390
H13_2 H 0.59539 0.56459 0.94637
Sm11_2 Sm 0.88603(4) 0.62980(4) 0.76313(2)
O29_2 O 0.7296(9) 0.0103(7) 0.80533(14)
O1_2 O 0.4532(8) 0.9296(8) 0.83226(15)
O2_2 O 0.3169(9) 0.8015(9) 0.80707(17)
O3 O 0.2775(13) 0.9655(12) 0.71521(18)
O5_2 O 0.3383(10) 0.8528(10) 0.92099(16)
C6_2 C 0.3881(11) 0.9101(11) 0.8118(2)
H1_2 H 0.30482 0.91512 0.76227
H18 H 0.34212 0.932267 0.701487
H21_2 H 0.377133 0.76848 0.912259
H22_2 H 0.304138 0.826432 0.9384
O1_3 O 0.0704(8) 0.4532(8) 0.58226(15)
O2_3 O 0.1985(9) 0.3169(9) 0.55707(17)
O3_2 O 0.0345(12) 0.2775(13) 0.46521(18)
O5_3 O 0.1472(10) 0.3383(10) 0.67099(16)
O6_2 O 0.0632(11) 0.4565(12) 0.7852(3)
O7_2 O 0.0399(9) 0.7604(11) 0.79373(17)
C6_3 C 0.0899(11) 0.3881(11) 0.5618(2)
H1_3 H 0.08488 0.30482 0.51227
O25 O 0.0919(7) 0.7089(8) 0.60833(13)
O26 O 0.1280(8) 0.5658(10) 0.64184(15)
O32 O 0.1588(8) 0.6065(9) 0.69979(15)
O33 O 0.1008(7) 0.6454(9) 0.74103(15)
H16_2 H 0.048663 0.458129 0.804134
H17_2 H 0.0471253 0.359842 0.778627
H18_2 H 0.0677327 0.34212 0.451487
H19_2 H 0.139576 0.749751 0.788422
H20_2 H 0.014082 0.861496 0.793598
H21_3 H 0.23152 0.377133 0.662259
H22_3 H 0.173568 0.304138 0.6884
O14_2 O 0.8677(9) 0.3362(8) 0.65042(15)
O15_2 O 0.8299(9) 0.3968(7) 0.61007(15)
O18_2 O 0.8640(13) 0.4024(8) 0.74685(16)
O19_2 O 0.9306(12) 0.3565(8) 0.70660(16)
C16_3 C 0.8647(11) 0.0457(10) 0.63722(18)
C17_3 C 0.8418(10) 0.1553(9) 0.61980(18)
C18_3 C 0.8195(12) 0.1191(10) 0.59406(19)
C21_3 C 0.8461(10) 0.3084(10) 0.62762(19)
C23_3 C 0.8317(12) 0.1242(9) 0.75855(18)
C24_3 C 0.8876(11) 0.1700(9) 0.73515(18)
C25_3 C 0.9379(13) 0.0682(10) 0.71782(19)
C28_3 C 0.8951(12) 0.3220(10) 0.72889(19)
H7_3 H 0.88228 0.06447 0.65450
H8_3 H 0.80581 0.18880 0.58176
H10_3 H 0.79644 0.18846 0.77039
H11_3 H 0.97310 0.09433 0.70181
Sm4_2 Sm 0.87287(4) 0.61387(4) 0.58991(2)
Sm7_2 Sm 0.96372(4) 0.52715(4) 0.67504(2)
O4_2 O 0.8092(15) 0.3074(18) 0.4568(2)
O8_3 O 0.7046(6) 0.7130(8) 0.56044(12)
O9_3 O 0.4915(7) 0.7715(9) 0.54657(14)
O12_3 O 0.8469(6) 0.6632(7) 0.63711(13)
O13_3 O 0.9452(8) 0.7969(7) 0.66694(13)
O16_3 O 0.7562(7) 0.7937(7) 0.78988(13)
O20_3 O 0.8327(6) 0.6377(7) 0.71468(13)
O21_3 O 0.7033(7) 0.5466(9) 0.68373(13)
N1_3 N 0.8526(10) 0.4424(11) 0.54973(18)
N2_3 N 0.6057(8) 0.6054(9) 0.60370(16)
N3_3 N 0.8380(9) 0.8763(8) 0.60358(16)
N4_3 N 0.8798(9) 0.8859(8) 0.74729(16)
N5_3 N 0.6200(9) 0.6268(9) 0.74824(16)
C1_3 C 0.9746(11) 0.3898(12) 0.5422(2)
C2_3 C 0.9977(12) 0.3407(14) 0.5170(2)
C3_2 C 0.8889(13) 0.3465(15) 0.4993(2)
C4_3 C 0.7611(14) 0.3975(18) 0.5076(3)
C5_3 C 0.7460(13) 0.4395(16) 0.5334(3)
C7_2 C 0.9065(15) 0.3092(16) 0.4714(3)
C8_3 C 0.5115(9) 0.6623(9) 0.58685(17)
C9_3 C 0.3692(9) 0.6707(11) 0.59209(18)
C10_3 C 0.3219(9) 0.6200(10) 0.61564(18)
C11_3 C 0.4166(11) 0.5629(12) 0.6328(2)
C12_3 C 0.5568(10) 0.5569(13) 0.62620(19)
C13_3 C 0.5736(9) 0.7194(10) 0.56277(17)
C14_3 C 0.1687(10) 0.6338(10) 0.62231(19)
C15_3 C 0.8607(9) 0.9091(9) 0.62831(17)
C19_3 C 0.8179(11) 0.9797(10) 0.5870(2)
C20_3 C 0.8859(9) 0.7841(8) 0.64531(16)
C22_3 C 0.8296(10) 0.9823(9) 0.76384(18)
C26_3 C 0.9341(13) 0.9288(10) 0.72506(19)
C27_3 C 0.7676(10) 0.9234(9) 0.78809(17)
C29_3 C 0.5903(10) 0.6120(10) 0.72325(18)
C30_3 C 0.4524(9) 0.6072(10) 0.71388(17)
C31_3 C 0.3424(9) 0.6202(9) 0.73090(17)
C32_3 C 0.3750(10) 0.6295(11) 0.75727(19)
C33_3 C 0.5139(10) 0.6331(11) 0.76479(19)
C34_3 C 0.7144(9) 0.5987(9) 0.70605(17)
C35_3 C 0.1907(10) 0.6232(11) 0.72330(19)
H2_2 H 0.68565 0.40389 0.49631
H3_3 H 0.65760 0.46631 0.53923
H4_3 H 0.30707 0.70906 0.58020
H5_3 H 0.38630 0.52886 0.64866
H6_3 H 0.61997 0.51759 0.63782
H9_3 H 0.80190 0.95725 0.56979
H12_3 H 0.97106 0.86192 0.71390
H13_3 H 0.43541 0.59539 0.69637
H14_3 H 0.30368 0.63309 0.76950
H15_3 H 0.53419 0.64025 0.78226
Sm11_3 Sm 0.37020(4) 0.88603(4) 0.51313(2)
O29_3 O 0.9897(7) 0.7296(9) 0.55533(14)
O1_4 O 0.5468(8) 0.0704(8) 0.33226(15)
O2_4 O 0.6831(9) 0.1985(9) 0.30707(17)
O3_3 O 0.7225(13) 0.0345(12) 0.21521(18)
O5_4 O 0.6617(10) 0.1472(10) 0.42099(16)
O6_3 O 0.5435(12) 0.0632(11) 0.5352(3)
O7_3 O 0.2396(11) 0.0399(9) 0.54373(17)
C6_4 C 0.6119(11) 0.0899(11) 0.3118(2)
H1_4 H 0.69518 0.08488 0.26227
O25_2 O 0.2911(8) 0.0919(7) 0.35833(13)
O26_2 O 0.4342(10) 0.1280(8) 0.39184(15)
O32_2 O 0.3935(9) 0.1588(8) 0.44979(15)
O33_2 O 0.3546(9) 0.1008(7) 0.49103(15)
H16_3 H 0.541871 0.048663 0.554134
H17_3 H 0.640158 0.0471253 0.528627
H18_3 H 0.65788 0.0677327 0.201487
H19_3 H 0.250249 0.139576 0.538422
H20_3 H 0.138504 0.014082 0.543598
H21_4 H 0.622867 0.23152 0.412259
H22_4 H 0.695862 0.173568 0.4384
Sm2 Sm 0.47285(4) 0.96372(4) 0.42504(2)
O4_3 O 0.6926(18) 0.8092(15) 0.2068(2)
O8_4 O 0.2870(8) 0.7046(6) 0.31044(12)
O12_4 O 0.3368(7) 0.8469(6) 0.38711(13)
O13_4 O 0.2031(7) 0.9452(8) 0.41694(13)
O16_4 O 0.2063(7) 0.7562(7) 0.53988(13)
O20_4 O 0.3623(7) 0.8327(6) 0.46468(13)
O21_4 O 0.4534(9) 0.7033(7) 0.43373(13)
N1_4 N 0.5576(11) 0.8526(10) 0.29973(18)
N2_4 N 0.3946(9) 0.6057(8) 0.35370(16)
N3_4 N 0.1237(8) 0.8380(9) 0.35358(16)
N4_4 N 0.1141(8) 0.8798(9) 0.49729(16)
N5_4 N 0.3732(9) 0.6200(9) 0.49824(16)
C1_4 C 0.6102(12) 0.9746(11) 0.2922(2)
C2_4 C 0.6593(14) 0.9977(12) 0.2670(2)
C3_3 C 0.6535(15) 0.8889(13) 0.2493(2)
C4_4 C 0.6025(18) 0.7611(14) 0.2576(3)
C5_4 C 0.5605(16) 0.7460(13) 0.2834(3)
C7_3 C 0.6908(16) 0.9065(15) 0.2214(3)
C8_4 C 0.3377(9) 0.5115(9) 0.33685(17)
C9_4 C 0.3293(11) 0.3692(9) 0.34209(18)
C10_4 C 0.3800(10) 0.3219(9) 0.36564(18)
C11_4 C 0.4371(12) 0.4166(11) 0.3828(2)
C12_4 C 0.4431(13) 0.5568(10) 0.37620(19)
C13_4 C 0.2806(10) 0.5736(9) 0.31277(17)
C14_4 C 0.3662(10) 0.1687(10) 0.37231(19)
C15_4 C 0.0909(9) 0.8607(9) 0.37831(17)
C19_4 C 0.0203(10) 0.8179(11) 0.3370(2)
C20_4 C 0.2159(8) 0.8859(9) 0.39531(16)
C22_4 C 0.0177(9) 0.8296(10) 0.51384(18)
C26_4 C 0.0712(10) 0.9341(13) 0.47506(19)
C27_4 C 0.0766(9) 0.7676(10) 0.53809(17)
C29_4 C 0.3880(10) 0.5903(10) 0.47325(18)
C30_4 C 0.3928(10) 0.4524(9) 0.46388(17)
C31_4 C 0.3798(9) 0.3424(9) 0.48090(17)
C32_4 C 0.3705(11) 0.3750(10) 0.50727(19)
C33_4 C 0.3669(11) 0.5139(10) 0.51479(19)
C34_4 C 0.4013(9) 0.7144(9) 0.45605(17)
C35_4 C 0.3768(11) 0.1907(10) 0.47330(19)
H2_3 H 0.59611 0.68565 0.24631
H3_4 H 0.53369 0.65760 0.28923
H4_4 H 0.29094 0.30707 0.33020
H5_4 H 0.47114 0.38630 0.39866
H6_4 H 0.48241 0.61997 0.38782
H9_4 H 0.04275 0.80190 0.31979
H12_4 H 0.13808 0.97106 0.46390
H13_4 H 0.40461 0.43541 0.44637
H14_4 H 0.36691 0.30368 0.51950
H15_4 H 0.35975 0.53419 0.53226
O27_2 O 0.6638(8) 0.8677(9) 0.40042(15)
O28_2 O 0.6032(7) 0.8299(9) 0.36007(15)
O30_2 O 0.5976(8) 0.8640(13) 0.49685(16)
O31_2 O 0.6435(8) 0.9306(12) 0.45660(16)
C16_4 C 0.9543(10) 0.8647(11) 0.38722(18)
C17_4 C 0.8447(9) 0.8418(10) 0.36980(18)
C18_4 C 0.8809(10) 0.8195(12) 0.34406(19)
C21_4 C 0.6916(10) 0.8461(10) 0.37762(19)
C23_4 C 0.8758(9) 0.8317(12) 0.50855(18)
C24_4 C 0.8300(9) 0.8876(11) 0.48515(18)
C25_4 C 0.9318(10) 0.9379(13) 0.46782(19)
C28_4 C 0.6780(10) 0.8951(12) 0.47889(19)
H7_4 H 0.93553 0.88228 0.40450
H8_4 H 0.81120 0.80581 0.33176
H10_4 H 0.81154 0.79644 0.52039
H11_4 H 0.90567 0.97310 0.45181
O4_4 O 0.1908(15) 0.6926(18) 0.9568(2)
C3_4 C 0.1111(13) 0.6535(15) 0.9993(2)
C7_4 C 0.0935(15) 0.6908(16) 0.9714(3)
H2_4 H 0.31435 0.59611 0.99631
O3_4 O 0.9655(12) 0.7225(13) 0.96521(18)
H18_4 H 0.932267 0.65788 0.951487
O6_4 O 0.4565(12) 0.9368(11) 0.0352(3)
O7_4 O 0.7604(11) 0.9601(9) 0.04373(17)
H16_4 H 0.458129 0.951337 0.0541336
H17_4 H 0.359842 0.952875 0.0286271
H19_4 H 0.749751 0.860424 0.0384222
H20_4 H 0.861496 0.985918 0.0435983
loop_
_geom_bond_atom_site_label_1
_geom_bond_atom_site_label_2
_geom_bond_site_symmetry_1
_geom_bond_site_symmetry_2
O8 Sm5 1_555 1_555
O9 C13 1_555 1_555
O10 C14 1_555 1_555
O11 C14 1_555 1_555
O12 Sm5 1_555 1_555
O13 Sm8 1_555 1_555
O16 Sm10 1_555 1_555
O20 Sm8 1_555 1_555
O21 Sm8 1_555 1_555
O22 C35 1_555 1_555
O23 C35 1_555 1_555
N1 Sm5 1_555 1_555
N2 Sm5 1_555 1_555
N3 Sm5 1_555 1_555
N4 Sm10 1_555 1_555
N5 Sm10 1_555 1_555
C1 N1 1_555 1_555
C2 C1 1_555 1_555
C5 N1 1_555 1_555
C8 N2 1_555 1_555
C9 C8 1_555 1_555
C10 C9 1_555 1_555
C11 C10 1_555 1_555
C12 N2 1_555 1_555
C13 O8 1_555 1_555
C14 C10 1_555 1_555
C15 N3 1_555 1_555
C19 N3 1_555 1_555
C20 O12 1_555 1_555
C22 N4 1_555 1_555
C26 N4 1_555 1_555
C27 O16 1_555 1_555
C29 N5 1_555 1_555
C30 C29 1_555 1_555
C31 C30 1_555 1_555
C32 C31 1_555 1_555
C33 N5 1_555 1_555
C34 O20 1_555 1_555
C35 C31 1_555 1_555
H3 C5 1_555 1_555
H4 C9 1_555 1_555
H5 C11 1_555 1_555
H6 C12 1_555 1_555
H9 C19 1_555 1_555
H12 C26 1_555 1_555
H13 C30 1_555 1_555
H14 C32 1_555 1_555
H15 C33 1_555 1_555
Sm11 O9 1_555 1_555
O24 Sm10 1_555 1_555
O27 Sm8 1_555 1_555
O28 Sm5 1_555 1_555
O29 Sm5 1_555 1_555
O30 Sm10 1_555 1_555
O31 Sm8 1_555 1_555
Sm8 O12 1_555 1_555
Sm10 O20 1_555 1_555
O13 C20 1_555 1_555
O21 C34 1_555 1_555
C4 C5 1_555 1_555
C8 C13 1_555 1_555
C11 C12 1_555 1_555
C15 C20 1_555 1_555
C22 C27 1_555 1_555
C29 C34 1_555 1_555
C32 C33 1_555 1_555
O27 C21 1_555 1_555
O28 C21 1_555 1_555
O30 C28 1_555 1_555
O31 C28 1_555 1_555
C17 C16 1_555 1_555
C18 C17 1_555 1_555
C21 C17 1_555 1_555
C24 C23 1_555 1_555
C25 C24 1_555 1_555
C28 C24 1_555 1_555
H7 C16 1_555 1_555
H8 C18 1_555 1_555
H10 C23 1_555 1_555
H11 C25 1_555 1_555
Sm6 O17 1_555 1_555
O1 C6 1_555 1_555
O2 C6 1_555 1_555
O6 H16 1_555 1_555
O6 H17 1_555 1_555
O7 H19 1_555 1_555
O7 H20 1_555 1_555
O5 H21 1_555 1_555
O5 H22 1_555 1_555
H10_2 C23_2 1_555 1_555
O14 C21_2 1_555 1_555
O15 C21_2 1_555 1_555
O18 C28_2 1_555 1_555
O19 C28_2 1_555 1_555
C17_2 C16_2 1_555 1_555
C18_2 C17_2 1_555 1_555
C21_2 C17_2 1_555 1_555
C25_2 C24_2 1_555 1_555
C28_2 C24_2 1_555 1_555
H7_2 C16_2 1_555 1_555
H8_2 C18_2 1_555 1_555
H11_2 C25_2 1_555 1_555
Sm4 O15 1_555 1_555
Sm7 O14 1_555 1_555
O19 Sm7 1_555 1_555
O16_2 Sm11 1_555 1_555
C27_2 O16_2 1_555 1_555
H14_2 C32_2 1_555 1_555
H15_2 C33_2 1_555 1_555
C22_2 C27_2 1_555 1_555
C32_2 C33_2 1_555 1_555
O4 C7 1_555 1_555
O8_2 Sm4 1_555 1_555
O9_2 C13_2 1_555 1_555
O10_2 C14_2 1_555 1_555
O11_2 C14_2 1_555 1_555
O12_2 Sm4 1_555 1_555
O13_2 Sm7 1_555 1_555
O20_2 Sm7 1_555 1_555
O21_2 Sm7 1_555 1_555
O22_2 C35_2 1_555 1_555
O23_2 C35_2 1_555 1_555
N1_2 Sm4 1_555 1_555
N2_2 Sm4 1_555 1_555
N3_2 Sm4 1_555 1_555
C1_2 N1_2 1_555 1_555
C2_2 C1_2 1_555 1_555
C3 C2_2 1_555 1_555
C4_2 C3 1_555 1_555
C5_2 N1_2 1_555 1_555
C7 C3 1_555 1_555
C8_2 N2_2 1_555 1_555
C9_2 C8_2 1_555 1_555
C10_2 C9_2 1_555 1_555
C11_2 C10_2 1_555 1_555
C12_2 N2_2 1_555 1_555
C13_2 O8_2 1_555 1_555
C14_2 C10_2 1_555 1_555
C15_2 N3_2 1_555 1_555
C19_2 N3_2 1_555 1_555
C20_2 O12_2 1_555 1_555
C26_2 N4_2 1_555 1_555
C29_2 N5_2 1_555 1_555
C30_2 C29_2 1_555 1_555
C31_2 C30_2 1_555 1_555
C34_2 O20_2 1_555 1_555
C35_2 C31_2 1_555 1_555
H2 C4_2 1_555 1_555
H3_2 C5_2 1_555 1_555
H4_2 C9_2 1_555 1_555
H5_2 C11_2 1_555 1_555
H6_2 C12_2 1_555 1_555
H9_2 C19_2 1_555 1_555
H12_2 C26_2 1_555 1_555
H13_2 C30_2 1_555 1_555
Sm11_2 O9_2 1_555 1_555
O29_2 Sm4 1_555 1_555
Sm7 O12_2 1_555 1_555
O13_2 C20_2 1_555 1_555
O21_2 C34_2 1_555 1_555
C4_2 C5_2 1_555 1_555
C8_2 C13_2 1_555 1_555
C11_2 C12_2 1_555 1_555
C15_2 C20_2 1_555 1_555
C29_2 C34_2 1_555 1_555
O1_2 C6_2 1_555 1_555
O2_2 C6_2 1_555 1_555
O3 H18 1_555 1_555
O5_2 H21_2 1_555 1_555
O5_2 H22_2 1_555 1_555
O1_3 C6_3 1_555 1_555
O2_3 C6_3 1_555 1_555
O6_2 H16_2 1_555 1_555
O6_2 H17_2 1_555 1_555
O3_2 H18_2 1_555 1_555
O7_2 H19_2 1_555 1_555
O7_2 H20_2 1_555 1_555
O5_3 H21_3 1_555 1_555
O5_3 H22_3 1_555 1_555
O14_2 C21_3 1_555 1_555
O15_2 C21_3 1_555 1_555
O18_2 C28_3 1_555 1_555
O19_2 C28_3 1_555 1_555
C17_3 C16_3 1_555 1_555
C18_3 C17_3 1_555 1_555
C21_3 C17_3 1_555 1_555
C24_3 C23_3 1_555 1_555
C25_3 C24_3 1_555 1_555
C28_3 C24_3 1_555 1_555
H7_3 C16_3 1_555 1_555
H8_3 C18_3 1_555 1_555
H10_3 C23_3 1_555 1_555
H11_3 C25_3 1_555 1_555
Sm4_2 O15_2 1_555 1_555
Sm7_2 O14_2 1_555 1_555
Sm11_2 O18_2 1_555 1_555
O19_2 Sm7_2 1_555 1_555
O4_2 C7_2 1_555 1_555
O8_3 Sm4_2 1_555 1_555
O9_3 C13_3 1_555 1_555
O25 C14_3 1_555 1_555
O26 C14_3 1_555 1_555
O12_3 Sm4_2 1_555 1_555
O13_3 Sm7_2 1_555 1_555
O16_3 Sm11_2 1_555 1_555
O20_3 Sm7_2 1_555 1_555
O21_3 Sm7_2 1_555 1_555
O32 C35_3 1_555 1_555
O33 C35_3 1_555 1_555
N1_3 Sm4_2 1_555 1_555
N2_3 Sm4_2 1_555 1_555
N3_3 Sm4_2 1_555 1_555
N4_3 Sm11_2 1_555 1_555
N5_3 Sm11_2 1_555 1_555
C1_3 N1_3 1_555 1_555
C2_3 C1_3 1_555 1_555
C3_2 C2_3 1_555 1_555
C4_3 C3_2 1_555 1_555
C5_3 N1_3 1_555 1_555
C7_2 C3_2 1_555 1_555
C8_3 N2_3 1_555 1_555
C9_3 C8_3 1_555 1_555
C10_3 C9_3 1_555 1_555
C11_3 C10_3 1_555 1_555
C12_3 N2_3 1_555 1_555
C13_3 O8_3 1_555 1_555
C14_3 C10_3 1_555 1_555
C15_3 N3_3 1_555 1_555
C19_3 N3_3 1_555 1_555
C20_3 O12_3 1_555 1_555
C22_3 N4_3 1_555 1_555
C26_3 N4_3 1_555 1_555
C27_3 O16_3 1_555 1_555
C29_3 N5_3 1_555 1_555
C30_3 C29_3 1_555 1_555
C31_3 C30_3 1_555 1_555
C32_3 C31_3 1_555 1_555
C33_3 N5_3 1_555 1_555
C34_3 O20_3 1_555 1_555
C35_3 C31_3 1_555 1_555
H2_2 C4_3 1_555 1_555
H3_3 C5_3 1_555 1_555
H4_3 C9_3 1_555 1_555
H5_3 C11_3 1_555 1_555
H6_3 C12_3 1_555 1_555
H9_3 C19_3 1_555 1_555
H12_3 C26_3 1_555 1_555
H13_3 C30_3 1_555 1_555
H14_3 C32_3 1_555 1_555
H15_3 C33_3 1_555 1_555
Sm11_3 O9_3 1_555 1_555
O29_3 Sm4_2 1_555 1_555
Sm7_2 O12_3 1_555 1_555
Sm11_2 O20_3 1_555 1_555
O13_3 C20_3 1_555 1_555
O21_3 C34_3 1_555 1_555
C4_3 C5_3 1_555 1_555
C8_3 C13_3 1_555 1_555
C11_3 C12_3 1_555 1_555
C15_3 C20_3 1_555 1_555
C22_3 C27_3 1_555 1_555
C29_3 C34_3 1_555 1_555
C32_3 C33_3 1_555 1_555
O1_4 C6_4 1_555 1_555
O2_4 C6_4 1_555 1_555
O6_3 H16_3 1_555 1_555
O6_3 H17_3 1_555 1_555
O3_3 H18_3 1_555 1_555
O7_3 H19_3 1_555 1_555
O7_3 H20_3 1_555 1_555
O5_4 H21_4 1_555 1_555
O5_4 H22_4 1_555 1_555
O4_3 C7_3 1_555 1_555
O8_4 Sm6 1_555 1_555
O24 C13_4 1_555 1_555
O25_2 C14_4 1_555 1_555
O26_2 C14_4 1_555 1_555
O12_4 Sm6 1_555 1_555
O13_4 Sm2 1_555 1_555
O16_4 Sm11_3 1_555 1_555
O20_4 Sm2 1_555 1_555
O21_4 Sm2 1_555 1_555
O32_2 C35_4 1_555 1_555
O33_2 C35_4 1_555 1_555
N1_4 Sm6 1_555 1_555
N2_4 Sm6 1_555 1_555
N3_4 Sm6 1_555 1_555
N4_4 Sm11_3 1_555 1_555
N5_4 Sm11_3 1_555 1_555
C1_4 N1_4 1_555 1_555
C2_4 C1_4 1_555 1_555
C3_3 C2_4 1_555 1_555
C4_4 C3_3 1_555 1_555
C5_4 N1_4 1_555 1_555
C7_3 C3_3 1_555 1_555
C8_4 N2_4 1_555 1_555
C9_4 C8_4 1_555 1_555
C10_4 C9_4 1_555 1_555
C11_4 C10_4 1_555 1_555
C12_4 N2_4 1_555 1_555
C13_4 O8_4 1_555 1_555
C14_4 C10_4 1_555 1_555
C15_4 N3_4 1_555 1_555
C19_4 N3_4 1_555 1_555
C20_4 O12_4 1_555 1_555
C22_4 N4_4 1_555 1_555
C26_4 N4_4 1_555 1_555
C27_4 O16_4 1_555 1_555
C29_4 N5_4 1_555 1_555
C30_4 C29_4 1_555 1_555
C31_4 C30_4 1_555 1_555
C32_4 C31_4 1_555 1_555
C33_4 N5_4 1_555 1_555
C34_4 O20_4 1_555 1_555
C35_4 C31_4 1_555 1_555
H2_3 C4_4 1_555 1_555
H3_4 C5_4 1_555 1_555
H4_4 C9_4 1_555 1_555
H5_4 C11_4 1_555 1_555
H6_4 C12_4 1_555 1_555
H9_4 C19_4 1_555 1_555
H12_4 C26_4 1_555 1_555
H13_4 C30_4 1_555 1_555
H14_4 C32_4 1_555 1_555
H15_4 C33_4 1_555 1_555
O27_2 Sm2 1_555 1_555
O28_2 Sm6 1_555 1_555
O30_2 Sm11_3 1_555 1_555
O31_2 Sm2 1_555 1_555
Sm2 O12_4 1_555 1_555
Sm11_3 O20_4 1_555 1_555
O13_4 C20_4 1_555 1_555
O21_4 C34_4 1_555 1_555
C4_4 C5_4 1_555 1_555
C8_4 C13_4 1_555 1_555
C11_4 C12_4 1_555 1_555
C15_4 C20_4 1_555 1_555
C22_4 C27_4 1_555 1_555
C29_4 C34_4 1_555 1_555
C32_4 C33_4 1_555 1_555
O27_2 C21_4 1_555 1_555
O28_2 C21_4 1_555 1_555
O30_2 C28_4 1_555 1_555
O31_2 C28_4 1_555 1_555
C17_4 C16_4 1_555 1_555
C18_4 C17_4 1_555 1_555
C21_4 C17_4 1_555 1_555
C24_4 C23_4 1_555 1_555
C25_4 C24_4 1_555 1_555
C28_4 C24_4 1_555 1_555
H7_4 C16_4 1_555 1_555
H8_4 C18_4 1_555 1_555
H10_4 C23_4 1_555 1_555
H11_4 C25_4 1_555 1_555
O4_4 C7_4 1_555 1_555
C7_4 C3_4 1_555 1_555
O3_4 H18_4 1_555 1_555
O6_4 H16_4 1_555 1_555
O6_4 H17_4 1_555 1_555
O7_4 H19_4 1_555 1_555
O7_4 H20_4 1_555 1_555

#END
