
###############################################################################
#
# This file contains modified crystal structure data generated from the
# MOF subset of the Cambridge Structural Database (CSD) v543 
# hosted by the Cambridge Crystallographic Data Centre (CCDC).
#
# This work is licensed under the Creative Commons
# Attribution-NonCommercial-ShareAlike 4.0 International License.
# To view a copy of this license, visit
# http://creativecommons.org/licenses/by-nc-sa/4.0/
# or send a letter to
# Creative Commons, PO Box 1866, Mountain View, CA 94042, USA.
#
# CIF created using the CSD Python API on 29 September 2022
# The structure has been converted into the P1 space group
# The structure has a 3D framework
# The original CSD entry XAMRAI is in the tetragonal crystal system
# The original CSD entry XAMRAI is in a Sohncke space group
# The framework has been calculated to contain at least 10.0% void space
# The void calculation uses a probe of radius 1.32A, grid spacing 0.4
# H atom positions have been added when not included in the experimental data
#
###############################################################################

data_XAMRAI
_chemical_formula_moiety         '(C140 H88 Ce12 N20 O88)n'
_symmetry_cell_setting           triclinic
_symmetry_space_group_name_H-M   'P 1'
_symmetry_Int_Tables_number      1
_space_group_name_Hall           'P 1'
loop_
_symmetry_equiv_pos_site_id
_symmetry_equiv_pos_as_xyz
1 x,y,z
_cell_length_a                   9.6225(2)
_cell_length_b                   9.6225(2)
_cell_length_c                   52.2713(9)
_cell_angle_alpha                90
_cell_angle_beta                 90
_cell_angle_gamma                90
_cell_volume                     4839.93
loop_
_atom_site_label
_atom_site_type_symbol
_atom_site_fract_x
_atom_site_fract_y
_atom_site_fract_z
O13 O 0.0060(5) 0.2728(6) 0.38413(10)
O14 O 0.4059(5) 0.2117(5) 0.44453(9)
O15 O 0.3762(5) 0.0543(6) 0.47548(10)
O18 O 0.3883(5) 0.1502(6) 0.57662(10)
O19 O 0.3302(5) 0.1059(6) 0.53635(10)
C16 C 0.1282(7) 0.1705(7) 0.42860(14)
C17 C 0.1793(8) 0.1205(8) 0.45190(14)
C18 C 0.0866(8) 0.0637(9) 0.46911(15)
C21 C 0.3310(8) 0.1302(8) 0.45771(14)
C23 C 0.0416(8) 0.1039(8) 0.55073(14)
C24 C 0.1517(8) 0.1174(7) 0.56764(14)
C25 C 0.1197(8) 0.1260(8) 0.59372(14)
C28 C 0.3033(8) 0.1248(8) 0.55963(15)
H13 H 0.18940 0.20929 0.41626
H14 H 0.11831 0.02766 0.48499
H16 H 0.05818 0.09322 0.53292
H17 H 0.19200 0.13047 0.60606
Ce5 Ce 0.62762(4) 0.10751(4) 0.42679(2)
Ce8 Ce 0.52957(4) 0.02117(4) 0.51173(2)
Ce10 Ce 0.60582(4) 0.12875(4) 0.60054(2)
Ce11 Ce 0.12875(4) 0.39418(4) 0.35054(2)
O6 O 0.6531(5) 0.1648(5) 0.47430(9)
O7 O 0.5465(6) 0.2964(5) 0.50279(9)
O8 O 0.6322(6) 0.8273(5) 0.48735(10)
O9 O 0.6805(6) 0.8896(5) 0.44742(11)
O10 O 0.4558(6) 0.2734(6) 0.63094(12)
O12 O 0.7983(5) 0.2056(5) 0.39686(9)
O16 O 0.6652(5) 0.1293(5) 0.55161(9)
O17 O 0.7952(5) 0.0385(6) 0.52122(9)
O20 O 0.7441(5) 0.2951(5) 0.62633(9)
O21 O 0.7750(6) 0.5113(5) 0.64111(10)
O22 O 0.6167(8) 0.8969(6) 0.58438(12)
O23 O 0.5534(7) 0.8510(5) 0.54477(11)
N2 N 0.6655(6) 0.3725(6) 0.44051(11)
N3 N 0.8972(6) 0.1077(6) 0.44082(11)
N4 N 0.8769(6) 0.1195(6) 0.58512(12)
N5 N 0.6238(7) 0.3848(6) 0.58387(12)
C8 C 0.6389(7) 0.4071(8) 0.46493(14)
C9 C 0.6354(7) 0.5429(7) 0.47366(14)
C10 C 0.6623(7) 0.6489(7) 0.45675(14)
C11 C 0.6896(8) 0.6151(7) 0.43147(15)
C12 C 0.6894(8) 0.4783(8) 0.42419(15)
C13 C 0.6100(7) 0.2819(7) 0.48207(14)
C14 C 0.6573(8) 0.8021(7) 0.46466(15)
C15 C 0.9896(7) 0.1627(7) 0.42394(13)
C19 C 0.9470(8) 0.0601(8) 0.46291(14)
C20 C 0.9267(7) 0.2178(7) 0.39973(13)
C22 C 0.9081(7) 0.1060(7) 0.56007(13)
C26 C 0.9821(8) 0.1279(8) 0.60142(15)
C27 C 0.7817(7) 0.0902(7) 0.54299(14)
C29 C 0.6712(8) 0.4814(8) 0.60013(14)
C30 C 0.6644(9) 0.6216(8) 0.59533(14)
C31 C 0.6057(9) 0.6641(8) 0.57235(15)
C32 C 0.5588(9) 0.5658(8) 0.55523(15)
C33 C 0.5678(9) 0.4276(8) 0.56176(15)
C34 C 0.7349(7) 0.4257(7) 0.62453(14)
C35 C 0.5909(9) 0.8156(8) 0.56640(15)
H6 H 0.61483 0.56248 0.49106
H7 H 0.70814 0.68604 0.41931
H8 H 0.70714 0.45695 0.40674
H9 H 0.374(3) 0.306(7) 0.6309(17)
H10 H 0.453(7) 0.189(3) 0.6356(17)
H15 H 0.88378 0.02190 0.47496
H18 H 0.96224 0.13561 0.61917
H19 H 0.69872 0.68735 0.60733
H20 H 0.52093 0.59298 0.53921
H21 H 0.53308 0.36000 0.55016
Ce6 Ce 0.89249(4) 0.62762(4) 0.67679(2)
O26 O 0.7272(6) 0.0060(5) 0.63413(10)
O31 O 0.5113(5) 0.2250(6) 0.39111(10)
O1 O 0.4294(6) 0.9440(6) 0.41866(10)
O2 O 0.2962(6) 0.8188(6) 0.39258(10)
O3 O 0.4632(7) 0.7789(7) 0.30128(12)
O4 O 0.6904(8) 0.8099(8) 0.29322(13)
O5 O 0.3431(7) 0.8324(6) 0.50651(10)
O11 O 0.4268(8) 0.9666(7) 0.62463(15)
N1 N 0.6443(7) 0.9346(7) 0.38612(13)
C1 C 0.5212(9) 0.8845(9) 0.37799(16)
C2 C 0.4976(9) 0.8389(9) 0.35292(16)
C3 C 0.6079(10) 0.8450(10) 0.33558(17)
C4 C 0.7370(10) 0.8898(11) 0.34418(18)
C5 C 0.7505(9) 0.9325(10) 0.36960(18)
C6 C 0.4065(9) 0.8837(8) 0.39802(16)
C7 C 0.5912(11) 0.8072(10) 0.30798(18)
H1 H 0.40909 0.80480 0.34785
H2 H 0.81472 0.89133 0.33297
H3 H 0.83939 0.96140 0.37545
H4 H 0.336(10) 0.788(7) 0.4924(7)
H5 H 0.309(9) 0.785(7) 0.5186(9)
H11 H 0.427(12) 0.887(4) 0.6316(15)
H12 H 0.438(12) 0.958(9) 0.6085(4)
H22 H 0.673677 0.880861 0.279775
O1_2 O 0.0560(6) 0.4294(6) 0.66866(10)
O2_2 O 0.1812(6) 0.2962(6) 0.64258(10)
O3_2 O 0.2211(7) 0.4632(7) 0.55128(12)
O4_2 O 0.1901(8) 0.6904(8) 0.54322(13)
O5_2 O 0.1676(6) 0.3431(7) 0.75651(10)
O11_2 O 0.0334(7) 0.4268(8) 0.87463(15)
N1_2 N 0.0654(7) 0.6443(7) 0.63612(13)
C1_2 C 0.1155(9) 0.5212(9) 0.62799(16)
C2_2 C 0.1611(9) 0.4976(9) 0.60292(16)
C3_2 C 0.1550(10) 0.6079(10) 0.58558(17)
C4_2 C 0.1102(11) 0.7370(10) 0.59418(18)
C5_2 C 0.0675(10) 0.7505(9) 0.61960(18)
C6_2 C 0.1163(8) 0.4065(9) 0.64802(16)
C7_2 C 0.1928(10) 0.5912(11) 0.55798(18)
H1_2 H 0.19520 0.40909 0.59785
H2_2 H 0.10867 0.81472 0.58297
H3_2 H 0.03860 0.83939 0.62545
H4_2 H 0.212(7) 0.336(10) 0.7424(7)
H5_2 H 0.215(7) 0.309(9) 0.7686(9)
H11_2 H 0.113(4) 0.427(12) 0.8816(15)
H12_2 H 0.042(9) 0.438(12) 0.8585(4)
O24 O 0.1727(5) 0.6322(6) 0.73735(10)
O25 O 0.1104(5) 0.6805(6) 0.69742(11)
O32 O 0.1031(6) 0.6167(8) 0.83438(12)
O33 O 0.1490(5) 0.5534(7) 0.79477(11)
H22_2 H 0.119139 0.673677 0.529775
O14_2 O 0.7883(5) 0.4059(5) 0.69453(9)
O15_2 O 0.9457(6) 0.3762(5) 0.72548(10)
O18_2 O 0.8498(6) 0.3883(5) 0.82662(10)
O19_2 O 0.8941(6) 0.3302(5) 0.78635(10)
C16_2 C 0.8295(7) 0.1282(7) 0.67860(14)
C17_2 C 0.8795(8) 0.1793(8) 0.70190(14)
C18_2 C 0.9363(9) 0.0866(8) 0.71911(15)
C21_2 C 0.8698(8) 0.3310(8) 0.70771(14)
C23_2 C 0.8961(8) 0.0416(8) 0.80073(14)
C24_2 C 0.8826(7) 0.1517(8) 0.81764(14)
C25_2 C 0.8740(8) 0.1197(8) 0.84372(14)
C28_2 C 0.8752(8) 0.3033(8) 0.80963(15)
H13_2 H 0.79071 0.18940 0.66626
H14_2 H 0.97234 0.11831 0.73499
H16_2 H 0.90678 0.05818 0.78292
H17_2 H 0.86953 0.19200 0.85606
Ce8_2 Ce 0.97883(4) 0.52957(4) 0.76173(2)
Ce10_2 Ce 0.87125(4) 0.60582(4) 0.85054(2)
O6_2 O 0.8352(5) 0.6531(5) 0.72430(9)
O7_2 O 0.7036(5) 0.5465(6) 0.75279(9)
O10_2 O 0.7266(6) 0.4558(6) 0.88094(12)
O12_2 O 0.7944(5) 0.7983(5) 0.64686(9)
O16_2 O 0.8707(5) 0.6652(5) 0.80161(9)
O17_2 O 0.9615(6) 0.7952(5) 0.77122(9)
O20_2 O 0.7049(5) 0.7441(5) 0.87633(9)
O21_2 O 0.4887(5) 0.7750(6) 0.89111(10)
N2_2 N 0.6275(6) 0.6655(6) 0.69051(11)
N3_2 N 0.8923(6) 0.8972(6) 0.69082(11)
N4_2 N 0.8805(6) 0.8769(6) 0.83512(12)
N5_2 N 0.6152(6) 0.6238(7) 0.83387(12)
C8_2 C 0.5929(8) 0.6389(7) 0.71493(14)
C9_2 C 0.4571(7) 0.6354(7) 0.72366(14)
C10_2 C 0.3511(7) 0.6623(7) 0.70675(14)
C11_2 C 0.3849(7) 0.6896(8) 0.68147(15)
C12_2 C 0.5217(8) 0.6894(8) 0.67419(15)
C13_2 C 0.7181(7) 0.6100(7) 0.73207(14)
C14_2 C 0.1979(7) 0.6573(8) 0.71466(15)
C15_2 C 0.8373(7) 0.9896(7) 0.67394(13)
C19_2 C 0.9399(8) 0.9470(8) 0.71291(14)
C20_2 C 0.7822(7) 0.9267(7) 0.64973(13)
C22_2 C 0.8940(7) 0.9081(7) 0.81007(13)
C26_2 C 0.8721(8) 0.9821(8) 0.85142(15)
C27_2 C 0.9098(7) 0.7817(7) 0.79299(14)
C29_2 C 0.5186(8) 0.6712(8) 0.85013(14)
C30_2 C 0.3784(8) 0.6644(9) 0.84533(14)
C31_2 C 0.3359(8) 0.6057(9) 0.82235(15)
C32_2 C 0.4342(8) 0.5588(9) 0.80523(15)
C33_2 C 0.5724(8) 0.5678(9) 0.81176(15)
C34_2 C 0.5743(7) 0.7349(7) 0.87453(14)
C35_2 C 0.1844(8) 0.5909(9) 0.81640(15)
H6_2 H 0.43752 0.61483 0.74106
H7_2 H 0.31396 0.70814 0.66931
H8_2 H 0.54305 0.70714 0.65674
H9_2 H 0.694(7) 0.374(3) 0.8809(17)
H10_2 H 0.811(3) 0.453(7) 0.8856(17)
H15_2 H 0.97810 0.88378 0.72496
H18_2 H 0.86439 0.96224 0.86917
H19_2 H 0.31265 0.69872 0.85733
H20_2 H 0.40702 0.52093 0.78921
H21_2 H 0.64000 0.53308 0.80016
Ce6_2 Ce 0.37238(4) 0.89249(4) 0.92679(2)
O26_2 O 0.9940(5) 0.7272(6) 0.88413(10)
O5_3 O 0.6569(7) 0.1676(6) 0.00651(10)
O11_3 O 0.5732(8) 0.0334(7) 0.12463(15)
H5_3 H 0.691(9) 0.215(7) 0.0186(9)
H11_3 H 0.573(12) 0.113(4) 0.1316(15)
H12_3 H 0.562(12) 0.042(9) 0.1085(4)
O32_2 O 0.3833(8) 0.1031(6) 0.08438(12)
O33_2 O 0.4466(7) 0.1490(5) 0.04477(11)
O1_3 O 0.5706(6) 0.0560(6) 0.91866(10)
O2_3 O 0.7038(6) 0.1812(6) 0.89258(10)
O3_3 O 0.5368(7) 0.2211(7) 0.80128(12)
O4_3 O 0.3096(8) 0.1901(8) 0.79322(13)
N1_3 N 0.3557(7) 0.0654(7) 0.88612(13)
C1_3 C 0.4788(9) 0.1155(9) 0.87799(16)
C2_3 C 0.5024(9) 0.1611(9) 0.85292(16)
C3_3 C 0.3921(10) 0.1550(10) 0.83558(17)
C4_3 C 0.2630(10) 0.1102(11) 0.84418(18)
C5_3 C 0.2495(9) 0.0675(10) 0.86960(18)
C6_3 C 0.5935(9) 0.1163(8) 0.89802(16)
C7_3 C 0.4088(11) 0.1928(10) 0.80798(18)
H1_3 H 0.59091 0.19520 0.84785
H2_3 H 0.18528 0.10867 0.83297
H3_3 H 0.16061 0.03860 0.87545
H4_3 H 0.664(10) 0.212(7) 0.9924(7)
O24_2 O 0.3678(6) 0.1727(5) 0.98735(10)
O25_2 O 0.3195(6) 0.1104(5) 0.94742(11)
H22_3 H 0.326323 0.119139 0.779775
Ce2 Ce 0.47043(4) 0.97883(4) 0.01173(2)
Ce3 Ce 0.39418(4) 0.87125(4) 0.10054(2)
O7_3 O 0.4535(6) 0.7036(5) 0.00279(9)
O10_3 O 0.5442(6) 0.7266(6) 0.13094(12)
O16_3 O 0.3348(5) 0.8707(5) 0.05161(9)
O17_3 O 0.2048(5) 0.9615(6) 0.02122(9)
O20_3 O 0.2559(5) 0.7049(5) 0.12633(9)
O21_3 O 0.2250(6) 0.4887(5) 0.14111(10)
N4_3 N 0.1231(6) 0.8805(6) 0.08512(12)
N5_3 N 0.3762(7) 0.6152(6) 0.08387(12)
C22_3 C 0.0919(7) 0.8940(7) 0.06007(13)
C26_3 C 0.0179(8) 0.8721(8) 0.10142(15)
C27_3 C 0.2183(7) 0.9098(7) 0.04299(14)
C29_3 C 0.3288(8) 0.5186(8) 0.10013(14)
C30_3 C 0.3356(9) 0.3784(8) 0.09533(14)
C31_3 C 0.3943(9) 0.3359(8) 0.07235(15)
C32_3 C 0.4412(9) 0.4342(8) 0.05523(15)
C33_3 C 0.4322(9) 0.5724(8) 0.06176(15)
C34_3 C 0.2651(7) 0.5743(7) 0.12453(14)
C35_3 C 0.4091(9) 0.1844(8) 0.06640(15)
H9_3 H 0.626(3) 0.694(7) 0.1309(17)
H10_3 H 0.547(7) 0.811(3) 0.1356(17)
H18_3 H 0.03776 0.86439 0.11917
H19_3 H 0.30128 0.31265 0.10733
H20_3 H 0.47907 0.40702 0.03921
H21_3 H 0.46692 0.64000 0.05016
Ce6_3 Ce 0.10751(4) 0.37238(4) 0.17679(2)
O26_3 O 0.2728(6) 0.9940(5) 0.13413(10)
O29 O 0.6117(5) 0.8498(6) 0.07662(10)
O30 O 0.6698(5) 0.8941(6) 0.03635(10)
O6_3 O 0.3469(5) 0.8352(5) 0.97430(9)
O12_3 O 0.2017(5) 0.7944(5) 0.89686(9)
N2_3 N 0.3345(6) 0.6275(6) 0.94051(11)
N3_3 N 0.1028(6) 0.8923(6) 0.94082(11)
C8_3 C 0.3611(7) 0.5929(8) 0.96493(14)
C9_3 C 0.3646(7) 0.4571(7) 0.97366(14)
C10_3 C 0.3377(7) 0.3511(7) 0.95675(14)
C11_3 C 0.3104(8) 0.3849(7) 0.93147(15)
C12_3 C 0.3106(8) 0.5217(8) 0.92419(15)
C13_3 C 0.3900(7) 0.7181(7) 0.98207(14)
C14_3 C 0.3427(8) 0.1979(7) 0.96466(15)
C15_3 C 0.0104(7) 0.8373(7) 0.92394(13)
C19_3 C 0.0530(8) 0.9399(8) 0.96291(14)
C20_3 C 0.0733(7) 0.7822(7) 0.89973(13)
H6_3 H 0.38517 0.43752 0.99106
H7_3 H 0.29186 0.31396 0.91931
H8_3 H 0.29286 0.54305 0.90674
H15_3 H 0.11622 0.97810 0.97496
O27 O 0.5941(5) 0.7883(5) 0.94453(9)
O28 O 0.6238(5) 0.9457(6) 0.97548(10)
C23_3 C 0.9584(8) 0.8961(8) 0.05073(14)
C24_3 C 0.8483(8) 0.8826(7) 0.06764(14)
C25_3 C 0.8803(8) 0.8740(8) 0.09372(14)
C28_3 C 0.6967(8) 0.8752(8) 0.05963(15)
H16_3 H 0.94182 0.90678 0.03292
H17_3 H 0.80800 0.86953 0.10606
C16_3 C 0.8718(7) 0.8295(7) 0.92860(14)
C17_3 C 0.8207(8) 0.8795(8) 0.95190(14)
C18_3 C 0.9134(8) 0.9363(9) 0.96911(15)
C21_3 C 0.6690(8) 0.8698(8) 0.95771(14)
H13_3 H 0.81060 0.79071 0.91626
H14_3 H 0.88169 0.97234 0.98499
Ce7 Ce 0.02117(4) 0.47043(4) 0.26173(2)
O6_4 O 0.1648(5) 0.3469(5) 0.22430(9)
O7_4 O 0.2964(5) 0.4535(6) 0.25279(9)
O8_2 O 0.8273(5) 0.3678(6) 0.23735(10)
O9_2 O 0.8896(5) 0.3195(6) 0.19742(11)
O10_4 O 0.2734(6) 0.5442(6) 0.38094(12)
O12_4 O 0.2056(5) 0.2017(5) 0.14686(9)
O16_4 O 0.1293(5) 0.3348(5) 0.30161(9)
O17_4 O 0.0385(6) 0.2048(5) 0.27122(9)
O20_4 O 0.2951(5) 0.2559(5) 0.37633(9)
O22_2 O 0.8969(6) 0.3833(8) 0.33438(12)
O23_2 O 0.8510(5) 0.4466(7) 0.29477(11)
N2_4 N 0.3725(6) 0.3345(6) 0.19051(11)
N3_4 N 0.1077(6) 0.1028(6) 0.19082(11)
N4_4 N 0.1195(6) 0.1231(6) 0.33512(12)
N5_4 N 0.3848(6) 0.3762(7) 0.33387(12)
C8_4 C 0.4071(8) 0.3611(7) 0.21493(14)
C9_4 C 0.5429(7) 0.3646(7) 0.22366(14)
C10_4 C 0.6489(7) 0.3377(7) 0.20675(14)
C11_4 C 0.6151(7) 0.3104(8) 0.18147(15)
C12_4 C 0.4783(8) 0.3106(8) 0.17419(15)
C13_4 C 0.2819(7) 0.3900(7) 0.23207(14)
C14_4 C 0.8021(7) 0.3427(8) 0.21466(15)
C15_4 C 0.1627(7) 0.0104(7) 0.17394(13)
C19_4 C 0.0601(8) 0.0530(8) 0.21291(14)
C20_4 C 0.2178(7) 0.0733(7) 0.14973(13)
C22_4 C 0.1060(7) 0.0919(7) 0.31007(13)
C26_4 C 0.1279(8) 0.0179(8) 0.35142(15)
C27_4 C 0.0902(7) 0.2183(7) 0.29299(14)
C29_4 C 0.4814(8) 0.3288(8) 0.35013(14)
C30_4 C 0.6216(8) 0.3356(9) 0.34533(14)
C31_4 C 0.6641(8) 0.3943(9) 0.32235(15)
C32_4 C 0.5658(8) 0.4412(9) 0.30523(15)
C33_4 C 0.4276(8) 0.4322(9) 0.31176(15)
C34_4 C 0.4257(7) 0.2651(7) 0.37453(14)
C35_4 C 0.8156(8) 0.4091(9) 0.31640(15)
H6_4 H 0.56248 0.38517 0.24106
H7_4 H 0.68604 0.29186 0.16931
H8_4 H 0.45695 0.29286 0.15674
H9_4 H 0.306(7) 0.626(3) 0.3809(17)
H10_4 H 0.189(3) 0.547(7) 0.3856(17)
H15_4 H 0.02190 0.11622 0.22496
H18_4 H 0.13561 0.03776 0.36917
H19_4 H 0.68735 0.30128 0.35733
H20_4 H 0.59298 0.47907 0.28921
H21_4 H 0.36000 0.46692 0.30016
O27_2 O 0.2117(5) 0.5941(5) 0.19453(9)
O28_2 O 0.0543(6) 0.6238(5) 0.22548(10)
O29_2 O 0.1502(6) 0.6117(5) 0.32662(10)
O30_2 O 0.1059(6) 0.6698(5) 0.28635(10)
C16_4 C 0.1705(7) 0.8718(7) 0.17860(14)
C17_4 C 0.1205(8) 0.8207(8) 0.20190(14)
C18_4 C 0.0637(9) 0.9134(8) 0.21911(15)
C21_4 C 0.1302(8) 0.6690(8) 0.20771(14)
C23_4 C 0.1039(8) 0.9584(8) 0.30073(14)
C24_4 C 0.1174(7) 0.8483(8) 0.31764(14)
C25_4 C 0.1260(8) 0.8803(8) 0.34372(14)
C28_4 C 0.1248(8) 0.6967(8) 0.30963(15)
H13_4 H 0.20929 0.81060 0.16626
H14_4 H 0.02766 0.88169 0.23499
H16_4 H 0.09322 0.94182 0.28292
H17_4 H 0.13047 0.80800 0.35606
O1_4 O 0.9440(6) 0.5706(6) 0.16866(10)
O2_4 O 0.8188(6) 0.7038(6) 0.14258(10)
O3_4 O 0.7789(7) 0.5368(7) 0.05128(12)
O4_4 O 0.8099(8) 0.3096(8) 0.04322(13)
O5_4 O 0.8324(6) 0.6569(7) 0.25651(10)
O11_4 O 0.9666(7) 0.5732(8) 0.37463(15)
N1_4 N 0.9346(7) 0.3557(7) 0.13612(13)
C1_4 C 0.8845(9) 0.4788(9) 0.12799(16)
C2_4 C 0.8389(9) 0.5024(9) 0.10292(16)
C3_4 C 0.8450(10) 0.3921(10) 0.08558(17)
C4_4 C 0.8898(11) 0.2630(10) 0.09418(18)
C5_4 C 0.9325(10) 0.2495(9) 0.11960(18)
C6_4 C 0.8837(8) 0.5935(9) 0.14802(16)
C7_4 C 0.8072(10) 0.4088(11) 0.05798(18)
H1_4 H 0.80480 0.59091 0.09785
H2_4 H 0.89133 0.18528 0.08297
H3_4 H 0.96140 0.16061 0.12545
H4_4 H 0.788(7) 0.664(10) 0.2424(7)
H5_4 H 0.785(7) 0.691(9) 0.2686(9)
H11_4 H 0.887(4) 0.573(12) 0.3816(15)
H12_4 H 0.958(9) 0.562(12) 0.3585(4)
H22_4 H 0.880861 0.326323 0.0297751
loop_
_geom_bond_atom_site_label_1
_geom_bond_atom_site_label_2
_geom_bond_site_symmetry_1
_geom_bond_site_symmetry_2
O14 C21 1_555 1_555
O15 C21 1_555 1_555
O18 C28 1_555 1_555
O19 C28 1_555 1_555
C17 C16 1_555 1_555
C18 C17 1_555 1_555
C21 C17 1_555 1_555
C24 C23 1_555 1_555
C25 C24 1_555 1_555
C28 C24 1_555 1_555
H13 C16 1_555 1_555
H14 C18 1_555 1_555
H16 C23 1_555 1_555
H17 C25 1_555 1_555
Ce5 O14 1_555 1_555
Ce8 O15 1_555 1_555
Ce10 O18 1_555 1_555
Ce11 O13 1_555 1_555
O19 Ce8 1_555 1_555
Ce10 O10 1_555 1_555
O6 Ce5 1_555 1_555
O7 Ce8 1_555 1_555
O8 C14 1_555 1_555
O9 C14 1_555 1_555
O10 H9 1_555 1_555
O12 Ce5 1_555 1_555
O16 Ce8 1_555 1_555
O17 Ce8 1_555 1_555
O20 Ce10 1_555 1_555
O21 C34 1_555 1_555
O22 C35 1_555 1_555
O23 C35 1_555 1_555
N2 Ce5 1_555 1_555
N3 Ce5 1_555 1_555
N4 Ce10 1_555 1_555
N5 Ce10 1_555 1_555
C8 N2 1_555 1_555
C9 C8 1_555 1_555
C10 C9 1_555 1_555
C11 C10 1_555 1_555
C12 N2 1_555 1_555
C13 O6 1_555 1_555
C14 C10 1_555 1_555
C15 N3 1_555 1_555
C19 N3 1_555 1_555
C20 O12 1_555 1_555
C22 N4 1_555 1_555
C26 N4 1_555 1_555
C27 O16 1_555 1_555
C29 N5 1_555 1_555
C30 C29 1_555 1_555
C31 C30 1_555 1_555
C32 C31 1_555 1_555
C33 N5 1_555 1_555
C34 O20 1_555 1_555
C35 C31 1_555 1_555
H6 C9 1_555 1_555
H7 C11 1_555 1_555
H8 C12 1_555 1_555
H10 O10 1_555 1_555
H15 C19 1_555 1_555
H18 C26 1_555 1_555
H19 C30 1_555 1_555
H20 C32 1_555 1_555
H21 C33 1_555 1_555
Ce6 O21 1_555 1_555
O26 Ce10 1_555 1_555
O31 Ce5 1_555 1_555
Ce8 O6 1_555 1_555
Ce10 O16 1_555 1_555
O7 C13 1_555 1_555
O17 C27 1_555 1_555
C8 C13 1_555 1_555
C11 C12 1_555 1_555
C15 C20 1_555 1_555
C22 C27 1_555 1_555
C29 C34 1_555 1_555
C32 C33 1_555 1_555
O1 C6 1_555 1_555
O2 C6 1_555 1_555
O3 C7 1_555 1_555
O4 C7 1_555 1_555
O5 H4 1_555 1_555
C1 N1 1_555 1_555
C2 C1 1_555 1_555
C3 C2 1_555 1_555
C4 C3 1_555 1_555
C5 N1 1_555 1_555
C6 C1 1_555 1_555
C7 C3 1_555 1_555
H1 C2 1_555 1_555
H2 C4 1_555 1_555
H3 C5 1_555 1_555
H5 O5 1_555 1_555
H11 O11 1_555 1_555
H12 O11 1_555 1_555
C4 C5 1_555 1_555
O4 H22 1_555 1_555
O1_2 C6_2 1_555 1_555
O2_2 C6_2 1_555 1_555
O3_2 C7_2 1_555 1_555
O4_2 C7_2 1_555 1_555
O5_2 H4_2 1_555 1_555
C1_2 N1_2 1_555 1_555
C2_2 C1_2 1_555 1_555
C3_2 C2_2 1_555 1_555
C4_2 C3_2 1_555 1_555
C5_2 N1_2 1_555 1_555
C6_2 C1_2 1_555 1_555
C7_2 C3_2 1_555 1_555
H1_2 C2_2 1_555 1_555
H2_2 C4_2 1_555 1_555
H3_2 C5_2 1_555 1_555
H5_2 O5_2 1_555 1_555
H11_2 O11_2 1_555 1_555
H12_2 O11_2 1_555 1_555
C4_2 C5_2 1_555 1_555
O4_2 H22_2 1_555 1_555
O14_2 C21_2 1_555 1_555
O15_2 C21_2 1_555 1_555
O18_2 C28_2 1_555 1_555
O19_2 C28_2 1_555 1_555
C17_2 C16_2 1_555 1_555
C18_2 C17_2 1_555 1_555
C21_2 C17_2 1_555 1_555
C24_2 C23_2 1_555 1_555
C25_2 C24_2 1_555 1_555
C28_2 C24_2 1_555 1_555
H13_2 C16_2 1_555 1_555
H14_2 C18_2 1_555 1_555
H16_2 C23_2 1_555 1_555
H17_2 C25_2 1_555 1_555
Ce6 O14_2 1_555 1_555
Ce8_2 O15_2 1_555 1_555
Ce10_2 O18_2 1_555 1_555
O19_2 Ce8_2 1_555 1_555
Ce10_2 O10_2 1_555 1_555
O6_2 Ce6 1_555 1_555
O7_2 Ce8_2 1_555 1_555
O24 C14_2 1_555 1_555
O25 C14_2 1_555 1_555
O10_2 H9_2 1_555 1_555
O12_2 Ce6 1_555 1_555
O16_2 Ce8_2 1_555 1_555
O17_2 Ce8_2 1_555 1_555
O20_2 Ce10_2 1_555 1_555
O21_2 C34_2 1_555 1_555
O32 C35_2 1_555 1_555
O33 C35_2 1_555 1_555
N2_2 Ce6 1_555 1_555
N3_2 Ce6 1_555 1_555
N4_2 Ce10_2 1_555 1_555
N5_2 Ce10_2 1_555 1_555
C8_2 N2_2 1_555 1_555
C9_2 C8_2 1_555 1_555
C10_2 C9_2 1_555 1_555
C11_2 C10_2 1_555 1_555
C12_2 N2_2 1_555 1_555
C13_2 O6_2 1_555 1_555
C14_2 C10_2 1_555 1_555
C15_2 N3_2 1_555 1_555
C19_2 N3_2 1_555 1_555
C20_2 O12_2 1_555 1_555
C22_2 N4_2 1_555 1_555
C26_2 N4_2 1_555 1_555
C27_2 O16_2 1_555 1_555
C29_2 N5_2 1_555 1_555
C30_2 C29_2 1_555 1_555
C31_2 C30_2 1_555 1_555
C32_2 C31_2 1_555 1_555
C33_2 N5_2 1_555 1_555
C34_2 O20_2 1_555 1_555
C35_2 C31_2 1_555 1_555
H6_2 C9_2 1_555 1_555
H7_2 C11_2 1_555 1_555
H8_2 C12_2 1_555 1_555
H10_2 O10_2 1_555 1_555
H15_2 C19_2 1_555 1_555
H18_2 C26_2 1_555 1_555
H19_2 C30_2 1_555 1_555
H20_2 C32_2 1_555 1_555
H21_2 C33_2 1_555 1_555
Ce6_2 O21_2 1_555 1_555
O26_2 Ce10_2 1_555 1_555
Ce8_2 O6_2 1_555 1_555
Ce10_2 O16_2 1_555 1_555
O7_2 C13_2 1_555 1_555
O17_2 C27_2 1_555 1_555
C8_2 C13_2 1_555 1_555
C11_2 C12_2 1_555 1_555
C15_2 C20_2 1_555 1_555
C22_2 C27_2 1_555 1_555
C29_2 C34_2 1_555 1_555
C32_2 C33_2 1_555 1_555
H5_3 O5_3 1_555 1_555
H11_3 O11_3 1_555 1_555
H12_3 O11_3 1_555 1_555
O1_3 C6_3 1_555 1_555
O2_3 C6_3 1_555 1_555
O3_3 C7_3 1_555 1_555
O4_3 C7_3 1_555 1_555
C1_3 N1_3 1_555 1_555
C2_3 C1_3 1_555 1_555
C3_3 C2_3 1_555 1_555
C4_3 C3_3 1_555 1_555
C5_3 N1_3 1_555 1_555
C6_3 C1_3 1_555 1_555
C7_3 C3_3 1_555 1_555
H1_3 C2_3 1_555 1_555
H2_3 C4_3 1_555 1_555
H3_3 C5_3 1_555 1_555
C4_3 C5_3 1_555 1_555
O4_3 H22_3 1_555 1_555
Ce3 O10_3 1_555 1_555
O7_3 Ce2 1_555 1_555
O10_3 H9_3 1_555 1_555
O16_3 Ce2 1_555 1_555
O17_3 Ce2 1_555 1_555
O20_3 Ce3 1_555 1_555
O21_3 C34_3 1_555 1_555
O32_2 C35_3 1_555 1_555
O33_2 C35_3 1_555 1_555
N4_3 Ce3 1_555 1_555
N5_3 Ce3 1_555 1_555
C22_3 N4_3 1_555 1_555
C26_3 N4_3 1_555 1_555
C27_3 O16_3 1_555 1_555
C29_3 N5_3 1_555 1_555
C30_3 C29_3 1_555 1_555
C31_3 C30_3 1_555 1_555
C32_3 C31_3 1_555 1_555
C33_3 N5_3 1_555 1_555
C34_3 O20_3 1_555 1_555
C35_3 C31_3 1_555 1_555
H10_3 O10_3 1_555 1_555
H18_3 C26_3 1_555 1_555
H19_3 C30_3 1_555 1_555
H20_3 C32_3 1_555 1_555
H21_3 C33_3 1_555 1_555
Ce6_3 O21_3 1_555 1_555
O26_3 Ce3 1_555 1_555
O29 Ce3 1_555 1_555
O30 Ce2 1_555 1_555
Ce3 O16_3 1_555 1_555
O17_3 C27_3 1_555 1_555
C22_3 C27_3 1_555 1_555
C29_3 C34_3 1_555 1_555
C32_3 C33_3 1_555 1_555
O6_3 Ce6_2 1_555 1_555
O24_2 C14_3 1_555 1_555
O25_2 C14_3 1_555 1_555
O12_3 Ce6_2 1_555 1_555
N2_3 Ce6_2 1_555 1_555
N3_3 Ce6_2 1_555 1_555
C8_3 N2_3 1_555 1_555
C9_3 C8_3 1_555 1_555
C10_3 C9_3 1_555 1_555
C11_3 C10_3 1_555 1_555
C12_3 N2_3 1_555 1_555
C13_3 O6_3 1_555 1_555
C14_3 C10_3 1_555 1_555
C15_3 N3_3 1_555 1_555
C19_3 N3_3 1_555 1_555
C20_3 O12_3 1_555 1_555
H6_3 C9_3 1_555 1_555
H7_3 C11_3 1_555 1_555
H8_3 C12_3 1_555 1_555
H15_3 C19_3 1_555 1_555
O27 Ce6_2 1_555 1_555
C8_3 C13_3 1_555 1_555
C11_3 C12_3 1_555 1_555
C15_3 C20_3 1_555 1_555
O29 C28_3 1_555 1_555
O30 C28_3 1_555 1_555
C24_3 C23_3 1_555 1_555
C25_3 C24_3 1_555 1_555
C28_3 C24_3 1_555 1_555
H16_3 C23_3 1_555 1_555
H17_3 C25_3 1_555 1_555
O27 C21_3 1_555 1_555
O28 C21_3 1_555 1_555
C17_3 C16_3 1_555 1_555
C18_3 C17_3 1_555 1_555
C21_3 C17_3 1_555 1_555
H13_3 C16_3 1_555 1_555
H14_3 C18_3 1_555 1_555
Ce11 O10_4 1_555 1_555
O6_4 Ce6_3 1_555 1_555
O7_4 Ce7 1_555 1_555
O8_2 C14_4 1_555 1_555
O9_2 C14_4 1_555 1_555
O10_4 H9_4 1_555 1_555
O12_4 Ce6_3 1_555 1_555
O16_4 Ce7 1_555 1_555
O17_4 Ce7 1_555 1_555
O20_4 Ce11 1_555 1_555
O31 C34_4 1_555 1_555
O22_2 C35_4 1_555 1_555
O23_2 C35_4 1_555 1_555
N2_4 Ce6_3 1_555 1_555
N3_4 Ce6_3 1_555 1_555
N4_4 Ce11 1_555 1_555
N5_4 Ce11 1_555 1_555
C8_4 N2_4 1_555 1_555
C9_4 C8_4 1_555 1_555
C10_4 C9_4 1_555 1_555
C11_4 C10_4 1_555 1_555
C12_4 N2_4 1_555 1_555
C13_4 O6_4 1_555 1_555
C14_4 C10_4 1_555 1_555
C15_4 N3_4 1_555 1_555
C19_4 N3_4 1_555 1_555
C20_4 O12_4 1_555 1_555
C22_4 N4_4 1_555 1_555
C26_4 N4_4 1_555 1_555
C27_4 O16_4 1_555 1_555
C29_4 N5_4 1_555 1_555
C30_4 C29_4 1_555 1_555
C31_4 C30_4 1_555 1_555
C32_4 C31_4 1_555 1_555
C33_4 N5_4 1_555 1_555
C34_4 O20_4 1_555 1_555
C35_4 C31_4 1_555 1_555
H6_4 C9_4 1_555 1_555
H7_4 C11_4 1_555 1_555
H8_4 C12_4 1_555 1_555
H10_4 O10_4 1_555 1_555
H15_4 C19_4 1_555 1_555
H18_4 C26_4 1_555 1_555
H19_4 C30_4 1_555 1_555
H20_4 C32_4 1_555 1_555
H21_4 C33_4 1_555 1_555
O27_2 Ce6_3 1_555 1_555
O28_2 Ce7 1_555 1_555
O29_2 Ce11 1_555 1_555
O30_2 Ce7 1_555 1_555
Ce7 O6_4 1_555 1_555
Ce11 O16_4 1_555 1_555
O7_4 C13_4 1_555 1_555
O17_4 C27_4 1_555 1_555
C8_4 C13_4 1_555 1_555
C11_4 C12_4 1_555 1_555
C15_4 C20_4 1_555 1_555
C22_4 C27_4 1_555 1_555
C29_4 C34_4 1_555 1_555
C32_4 C33_4 1_555 1_555
O27_2 C21_4 1_555 1_555
O28_2 C21_4 1_555 1_555
O29_2 C28_4 1_555 1_555
O30_2 C28_4 1_555 1_555
C17_4 C16_4 1_555 1_555
C18_4 C17_4 1_555 1_555
C21_4 C17_4 1_555 1_555
C24_4 C23_4 1_555 1_555
C25_4 C24_4 1_555 1_555
C28_4 C24_4 1_555 1_555
H13_4 C16_4 1_555 1_555
H14_4 C18_4 1_555 1_555
H16_4 C23_4 1_555 1_555
H17_4 C25_4 1_555 1_555
O1_4 C6_4 1_555 1_555
O2_4 C6_4 1_555 1_555
O3_4 C7_4 1_555 1_555
O4_4 C7_4 1_555 1_555
O5_4 H4_4 1_555 1_555
C1_4 N1_4 1_555 1_555
C2_4 C1_4 1_555 1_555
C3_4 C2_4 1_555 1_555
C4_4 C3_4 1_555 1_555
C5_4 N1_4 1_555 1_555
C6_4 C1_4 1_555 1_555
C7_4 C3_4 1_555 1_555
H1_4 C2_4 1_555 1_555
H2_4 C4_4 1_555 1_555
H3_4 C5_4 1_555 1_555
H5_4 O5_4 1_555 1_555
H11_4 O11_4 1_555 1_555
H12_4 O11_4 1_555 1_555
C4_4 C5_4 1_555 1_555
O4_4 H22_4 1_555 1_555

#END
