
###############################################################################
#
# This file contains modified crystal structure data generated from the
# MOF subset of the Cambridge Structural Database (CSD) v543 
# hosted by the Cambridge Crystallographic Data Centre (CCDC).
#
# This work is licensed under the Creative Commons
# Attribution-NonCommercial-ShareAlike 4.0 International License.
# To view a copy of this license, visit
# http://creativecommons.org/licenses/by-nc-sa/4.0/
# or send a letter to
# Creative Commons, PO Box 1866, Mountain View, CA 94042, USA.
#
# CIF created using the CSD Python API on 29 September 2022
# The structure has been converted into the P1 space group
# The structure has a 3D framework
# The original CSD entry XAMREM is in the tetragonal crystal system
# The original CSD entry XAMREM is in a Sohncke space group
# The framework has been calculated to contain at least 10.0% void space
# The void calculation uses a probe of radius 1.32A, grid spacing 0.4
# H atom positions have been added when not included in the experimental data
#
###############################################################################

data_XAMREM
_chemical_formula_moiety         '(C140 H88 Eu12 N20 O88)n'
_symmetry_cell_setting           triclinic
_symmetry_space_group_name_H-M   'P 1'
_symmetry_Int_Tables_number      1
_space_group_name_Hall           'P 1'
loop_
_symmetry_equiv_pos_site_id
_symmetry_equiv_pos_as_xyz
1 x,y,z
_cell_length_a                   9.501(3)
_cell_length_b                   9.501(3)
_cell_length_c                   51.815(15)
_cell_angle_alpha                90
_cell_angle_beta                 90
_cell_angle_gamma                90
_cell_volume                     4677.29
loop_
_atom_site_label
_atom_site_type_symbol
_atom_site_fract_x
_atom_site_fract_y
_atom_site_fract_z
Eu5 Eu 0.11178(4) 0.62507(4) 0.56670(2)
Eu8 Eu 0.02390(3) 0.53129(3) 0.48159(2)
Eu10 Eu 0.12761(4) 0.60922(4) 0.39335(2)
O13 O 0.2797(6) 0.0039(5) 0.60975(10)
O14 O 0.2089(6) 0.4066(5) 0.54853(10)
O15 O 0.0616(6) 0.3721(5) 0.51547(11)
O18 O 0.1047(6) 0.3359(5) 0.45684(10)
O19 O 0.1475(6) 0.3936(5) 0.41567(11)
C16 C 0.1705(8) 0.1286(7) 0.56468(15)
C17 C 0.1206(8) 0.1763(7) 0.54125(14)
C18 C 0.0602(9) 0.0810(8) 0.52386(16)
C21 C 0.1308(8) 0.3307(8) 0.53454(16)
C23 C 0.1041(7) 0.0431(8) 0.44253(15)
C24 C 0.1163(7) 0.1536(8) 0.42525(15)
C25 C 0.1233(7) 0.1220(7) 0.39877(15)
C28 C 0.1235(8) 0.3077(8) 0.43329(15)
H7 H 0.20886 0.19181 0.57702
H8 H 0.02406 0.11237 0.50777
H10 H 0.09402 0.06094 0.46047
H11 H 0.12574 0.19504 0.38625
Eu11 Eu 0.39078(4) 0.12761(4) 0.64335(2)
O6 O 0.1593(5) 0.6511(5) 0.51948(10)
O7 O 0.2926(5) 0.5489(5) 0.48988(9)
O8 O 0.8349(6) 0.6282(6) 0.50613(11)
O9 O 0.8934(5) 0.6717(6) 0.54690(11)
O10 O 0.2599(6) 0.4593(6) 0.36267(10)
O12 O 0.2118(5) 0.7914(5) 0.59668(9)
O16 O 0.1344(5) 0.6619(5) 0.44187(10)
O17 O 0.0406(6) 0.7915(5) 0.47268(9)
O20 O 0.2891(5) 0.7449(5) 0.36691(10)
O21 O 0.5072(5) 0.7741(6) 0.35157(10)
O22 O 0.9005(6) 0.6305(8) 0.40970(12)
O23 O 0.8533(6) 0.5571(7) 0.44948(11)
N2 N 0.3721(6) 0.6608(6) 0.55336(13)
N3 N 0.1048(7) 0.8913(6) 0.55307(12)
N4 N 0.1196(6) 0.8733(6) 0.40796(12)
N5 N 0.3807(6) 0.6171(6) 0.40910(13)
C8 C 0.4060(7) 0.6364(7) 0.52856(15)
C9 C 0.5440(8) 0.6335(7) 0.51933(15)
C10 C 0.6513(8) 0.6578(8) 0.53712(15)
C11 C 0.6173(7) 0.6792(8) 0.56278(15)
C12 C 0.4773(8) 0.6795(8) 0.57000(15)
C13 C 0.2806(7) 0.6115(7) 0.51141(14)
C14 C 0.8067(8) 0.6515(7) 0.52932(15)
C15 C 0.1627(7) 0.9851(7) 0.56964(14)
C19 C 0.0542(8) 0.9398(8) 0.53062(15)
C20 C 0.2232(7) 0.9221(7) 0.59401(15)
C22 C 0.1069(7) 0.9062(7) 0.43332(14)
C26 C 0.1265(7) 0.9823(8) 0.39140(15)
C27 C 0.0948(8) 0.7793(8) 0.45050(15)
C29 C 0.4780(7) 0.6693(7) 0.39294(15)
C30 C 0.6215(7) 0.6655(9) 0.39777(15)
C31 C 0.6653(8) 0.6077(8) 0.42142(14)
C32 C 0.5651(8) 0.5540(8) 0.43833(15)
C33 C 0.4252(8) 0.5588(8) 0.43144(14)
C34 C 0.4210(7) 0.7338(7) 0.36860(14)
C35 C 0.8184(8) 0.5965(9) 0.42766(16)
H4 H 0.56395 0.61566 0.50166
H5 H 0.68914 0.69353 0.57526
H6 H 0.45496 0.69375 0.58768
H9 H 0.01278 0.87507 0.51889
H12 H 0.13406 0.96179 0.37350
H13 H 0.68751 0.70050 0.38560
H14 H 0.59274 0.51461 0.45440
H15 H 0.35738 0.51955 0.44282
Eu6 Eu 0.62507(4) 0.88822(4) 0.31670(2)
O26 O 0.0039(5) 0.7203(6) 0.35975(10)
O31 O 0.2259(6) 0.5072(5) 0.60157(10)
H16 H 0.221102 0.471875 0.345025
H17 H 0.360726 0.486812 0.362813
O1 O 0.9513(6) 0.4273(5) 0.57393(11)
O2 O 0.8186(6) 0.2951(6) 0.59978(11)
O3 O 0.7816(7) 0.4617(6) 0.69205(12)
O4 O 0.8152(8) 0.6911(7) 0.70034(12)
O5 O 0.8354(6) 0.3464(6) 0.48619(11)
O11 O 0.9567(7) 0.4331(7) 0.37162(15)
N1 N 0.9427(7) 0.6445(7) 0.60674(13)
C1 C 0.8902(8) 0.5206(8) 0.61476(16)
C2 C 0.8434(8) 0.4968(8) 0.63995(15)
C3 C 0.8506(9) 0.6090(8) 0.65757(16)
C4 C 0.8965(9) 0.7382(8) 0.64876(17)
C5 C 0.9383(9) 0.7530(9) 0.62307(17)
C6 C 0.8872(8) 0.4048(8) 0.59473(16)
C7 C 0.8136(9) 0.5900(9) 0.68531(17)
H1 H 0.80778 0.40756 0.64500
H2 H 0.89966 0.81659 0.66012
H3 H 0.96446 0.84366 0.61699
H18 H 0.684354 0.459643 0.699062
H19 H 0.987153 0.335388 0.375503
H20 H 0.860052 0.448218 0.378368
H21 H 0.755935 0.385016 0.496428
H22 H 0.801121 0.318521 0.468822
Eu5_2 Eu 0.37493(4) 0.11178(4) 0.81670(2)
Eu8_2 Eu 0.46871(3) 0.02390(3) 0.73159(2)
O6_2 O 0.3489(5) 0.1593(5) 0.76948(10)
O7_2 O 0.4511(5) 0.2926(5) 0.73988(9)
O8_2 O 0.3718(6) 0.8349(6) 0.75613(11)
O9_2 O 0.3283(6) 0.8934(5) 0.79690(11)
O10_2 O 0.5407(6) 0.2599(6) 0.61267(10)
O12_2 O 0.2086(5) 0.2118(5) 0.84668(9)
O16_2 O 0.3381(5) 0.1344(5) 0.69187(10)
O17_2 O 0.2085(5) 0.0406(6) 0.72268(9)
O20_2 O 0.2551(5) 0.2891(5) 0.61691(10)
O22_2 O 0.3695(8) 0.9005(6) 0.65970(12)
O23_2 O 0.4429(7) 0.8533(6) 0.69948(11)
N2_2 N 0.3392(6) 0.3721(6) 0.80336(13)
N3_2 N 0.1087(6) 0.1048(7) 0.80307(12)
N4_2 N 0.1267(6) 0.1196(6) 0.65796(12)
N5_2 N 0.3829(6) 0.3807(6) 0.65910(13)
C8_2 C 0.3636(7) 0.4060(7) 0.77856(15)
C9_2 C 0.3665(7) 0.5440(8) 0.76933(15)
C10_2 C 0.3422(8) 0.6513(8) 0.78712(15)
C11_2 C 0.3208(8) 0.6173(7) 0.81278(15)
C12_2 C 0.3205(8) 0.4773(8) 0.82000(15)
C13_2 C 0.3885(7) 0.2806(7) 0.76141(14)
C14_2 C 0.3485(7) 0.8067(8) 0.77932(15)
C15_2 C 0.0149(7) 0.1627(7) 0.81964(14)
C19_2 C 0.0602(8) 0.0542(8) 0.78062(15)
C20_2 C 0.0779(7) 0.2232(7) 0.84401(15)
C22_2 C 0.0938(7) 0.1069(7) 0.68332(14)
C26_2 C 0.0177(8) 0.1265(7) 0.64140(15)
C27_2 C 0.2207(8) 0.0948(8) 0.70050(15)
C29_2 C 0.3307(7) 0.4780(7) 0.64294(15)
C30_2 C 0.3345(9) 0.6215(7) 0.64777(15)
C31_2 C 0.3923(8) 0.6653(8) 0.67142(14)
C32_2 C 0.4460(8) 0.5651(8) 0.68833(15)
C33_2 C 0.4412(8) 0.4252(8) 0.68144(14)
C34_2 C 0.2662(7) 0.4210(7) 0.61860(14)
C35_2 C 0.4035(9) 0.8184(8) 0.67766(16)
H4_2 H 0.38434 0.56395 0.75166
H5_2 H 0.30647 0.68914 0.82526
H6_2 H 0.30625 0.45496 0.83768
H9_2 H 0.12493 0.01278 0.76889
H12_2 H 0.03821 0.13406 0.62350
H13_2 H 0.29950 0.68751 0.63560
H14_2 H 0.48539 0.59274 0.70440
H15_2 H 0.48045 0.35738 0.69282
O27 O 0.5934(5) 0.2089(6) 0.79853(10)
O28 O 0.6279(5) 0.0616(6) 0.76547(11)
O29 O 0.6641(5) 0.1047(6) 0.70684(10)
O30 O 0.6064(5) 0.1475(6) 0.66567(11)
O31_2 O 0.4928(5) 0.2259(6) 0.85157(10)
H16_2 H 0.528125 0.221102 0.595025
H17_2 H 0.513188 0.360726 0.612813
O1_2 O 0.5727(5) 0.9513(6) 0.82393(11)
O2_2 O 0.7049(6) 0.8186(6) 0.84978(11)
O3_2 O 0.5383(6) 0.7816(7) 0.94205(12)
O4_2 O 0.3089(7) 0.8152(8) 0.95034(12)
O5_2 O 0.6536(6) 0.8354(6) 0.73619(11)
O11_2 O 0.5669(7) 0.9567(7) 0.62162(15)
N1_2 N 0.3555(7) 0.9427(7) 0.85674(13)
C1_2 C 0.4794(8) 0.8902(8) 0.86476(16)
C2_2 C 0.5032(8) 0.8434(8) 0.88995(15)
C3_2 C 0.3910(8) 0.8506(9) 0.90757(16)
C4_2 C 0.2618(8) 0.8965(9) 0.89876(17)
C5_2 C 0.2470(9) 0.9383(9) 0.87307(17)
C6_2 C 0.5952(8) 0.8872(8) 0.84473(16)
C7_2 C 0.4100(9) 0.8136(9) 0.93531(17)
H1_2 H 0.59244 0.80778 0.89500
H2_2 H 0.18341 0.89966 0.91012
H3_2 H 0.15634 0.96446 0.86699
H18_2 H 0.540357 0.684354 0.949062
H19_2 H 0.664612 0.987153 0.625503
H20_2 H 0.551782 0.860052 0.628368
H21_2 H 0.614984 0.755935 0.746428
H22_2 H 0.681479 0.801121 0.718822
O13_2 O 0.9961(5) 0.2797(6) 0.85975(10)
C16_2 C 0.8714(7) 0.1705(8) 0.81468(15)
C17_2 C 0.8237(7) 0.1206(8) 0.79125(14)
C18_2 C 0.9190(8) 0.0602(9) 0.77386(16)
C21_2 C 0.6693(8) 0.1308(8) 0.78454(16)
C23_2 C 0.9569(8) 0.1041(7) 0.69253(15)
C24_2 C 0.8464(8) 0.1163(7) 0.67525(15)
C25_2 C 0.8780(7) 0.1233(7) 0.64877(15)
C28_2 C 0.6923(8) 0.1235(8) 0.68329(15)
H7_2 H 0.80819 0.20886 0.82702
H8_2 H 0.88763 0.02406 0.75777
H10_2 H 0.93906 0.09402 0.71047
H11_2 H 0.80496 0.12574 0.63625
Eu11_2 Eu 0.87239(4) 0.39078(4) 0.89335(2)
O1_3 O 0.0487(6) 0.5727(5) 0.07393(11)
O2_3 O 0.1814(6) 0.7049(6) 0.09978(11)
O3_3 O 0.2184(7) 0.5383(6) 0.19205(12)
O4_3 O 0.1848(8) 0.3089(7) 0.20034(12)
N1_3 N 0.0573(7) 0.3555(7) 0.10674(13)
C1_3 C 0.1098(8) 0.4794(8) 0.11476(16)
C2_3 C 0.1566(8) 0.5032(8) 0.13995(15)
C3_3 C 0.1494(9) 0.3910(8) 0.15757(16)
C4_3 C 0.1035(9) 0.2618(8) 0.14876(17)
C5_3 C 0.0617(9) 0.2470(9) 0.12307(17)
C6_3 C 0.1128(8) 0.5952(8) 0.09473(16)
C7_3 C 0.1864(9) 0.4100(9) 0.18531(17)
H1_3 H 0.19222 0.59244 0.14500
H2_3 H 0.10034 0.18341 0.16012
H3_3 H 0.03554 0.15634 0.11699
O24 O 0.1651(6) 0.3718(6) 0.00613(11)
O25 O 0.1066(5) 0.3283(6) 0.04690(11)
H18_3 H 0.315646 0.540357 0.199062
O5_3 O 0.1646(6) 0.6536(6) 0.98619(11)
O11_3 O 0.0433(7) 0.5669(7) 0.87162(15)
O32 O 0.0995(6) 0.3695(8) 0.90970(12)
O33 O 0.1467(6) 0.4429(7) 0.94948(11)
H19_3 H 0.0128469 0.664612 0.875503
H20_3 H 0.139948 0.551782 0.878368
H21_3 H 0.244065 0.614984 0.996428
H22_3 H 0.198879 0.681479 0.968822
Eu1 Eu 0.88822(4) 0.37493(4) 0.06670(2)
O6_3 O 0.8407(5) 0.3489(5) 0.01948(10)
O12_3 O 0.7882(5) 0.2086(5) 0.09668(9)
N2_3 N 0.6279(6) 0.3392(6) 0.05336(13)
N3_3 N 0.8952(7) 0.1087(6) 0.05307(12)
C8_3 C 0.5940(7) 0.3636(7) 0.02856(15)
C9_3 C 0.4560(8) 0.3665(7) 0.01933(15)
C10_3 C 0.3487(8) 0.3422(8) 0.03712(15)
C11_3 C 0.3827(7) 0.3208(8) 0.06278(15)
C12_3 C 0.5227(8) 0.3205(8) 0.07000(15)
C13_3 C 0.7194(7) 0.3885(7) 0.01141(14)
C14_3 C 0.1933(8) 0.3485(7) 0.02932(15)
C15_3 C 0.8373(7) 0.0149(7) 0.06964(14)
C19_3 C 0.9458(8) 0.0602(8) 0.03062(15)
C20_3 C 0.7768(7) 0.0779(7) 0.09401(15)
H4_3 H 0.43605 0.38434 0.00166
H5_3 H 0.31086 0.30647 0.07526
H6_3 H 0.54504 0.30625 0.08768
H9_3 H 0.98722 0.12493 0.01889
O27_2 O 0.7911(6) 0.5934(5) 0.04853(10)
O28_2 O 0.9384(6) 0.6279(5) 0.01547(11)
O31_3 O 0.7741(6) 0.4928(5) 0.10157(10)
Eu2 Eu 0.97610(3) 0.46871(3) 0.98159(2)
O7_3 O 0.7074(5) 0.4511(5) 0.98988(9)
O10_3 O 0.7401(6) 0.5407(6) 0.86267(10)
O16_3 O 0.8656(5) 0.3381(5) 0.94187(10)
O17_3 O 0.9594(6) 0.2085(5) 0.97268(9)
O20_3 O 0.7109(5) 0.2551(5) 0.86691(10)
N4_3 N 0.8804(6) 0.1267(6) 0.90796(12)
N5_3 N 0.6193(6) 0.3829(6) 0.90910(13)
C22_3 C 0.8931(7) 0.0938(7) 0.93332(14)
C26_3 C 0.8735(7) 0.0177(8) 0.89140(15)
C27_3 C 0.9052(8) 0.2207(8) 0.95050(15)
C29_3 C 0.5220(7) 0.3307(7) 0.89294(15)
C30_3 C 0.3785(7) 0.3345(9) 0.89777(15)
C31_3 C 0.3347(8) 0.3923(8) 0.92142(14)
C32_3 C 0.4349(8) 0.4460(8) 0.93833(15)
C33_3 C 0.5748(8) 0.4412(8) 0.93144(14)
C34_3 C 0.5790(7) 0.2662(7) 0.86860(14)
C35_3 C 0.1816(8) 0.4035(9) 0.92766(16)
H12_3 H 0.86594 0.03821 0.87350
H13_3 H 0.31249 0.29950 0.88560
H14_3 H 0.40726 0.48539 0.95440
H15_3 H 0.64262 0.48045 0.94282
O29_2 O 0.8953(6) 0.6641(5) 0.95684(10)
O30_2 O 0.8525(6) 0.6064(5) 0.91567(11)
H16_3 H 0.778898 0.528125 0.845025
H17_3 H 0.639274 0.513188 0.862813
O13_3 O 0.7203(6) 0.9961(5) 0.10975(10)
C16_3 C 0.8295(8) 0.8714(7) 0.06468(15)
C17_3 C 0.8794(8) 0.8237(7) 0.04125(14)
C18_3 C 0.9398(9) 0.9190(8) 0.02386(16)
C21_3 C 0.8692(8) 0.6693(8) 0.03454(16)
H7_3 H 0.79114 0.80819 0.07702
H8_3 H 0.97594 0.88763 0.00777
Eu11_3 Eu 0.60922(4) 0.87239(4) 0.14335(2)
C23_3 C 0.8959(7) 0.9569(8) 0.94253(15)
C24_3 C 0.8837(7) 0.8464(8) 0.92525(15)
C25_3 C 0.8767(7) 0.8780(7) 0.89877(15)
C28_3 C 0.8765(8) 0.6923(8) 0.93329(15)
H10_3 H 0.90598 0.93906 0.96047
H11_3 H 0.87426 0.80496 0.88625
O14_2 O 0.4066(5) 0.7911(6) 0.29853(10)
O15_2 O 0.3721(5) 0.9384(6) 0.26547(11)
O18_2 O 0.3359(5) 0.8953(6) 0.20684(10)
O19_2 O 0.3936(5) 0.8525(6) 0.16567(11)
C16_4 C 0.1286(7) 0.8295(8) 0.31468(15)
C17_4 C 0.1763(7) 0.8794(8) 0.29125(14)
C18_4 C 0.0810(8) 0.9398(9) 0.27386(16)
C21_4 C 0.3307(8) 0.8692(8) 0.28454(16)
C23_4 C 0.0431(8) 0.8959(7) 0.19253(15)
C24_4 C 0.1536(8) 0.8837(7) 0.17525(15)
C25_4 C 0.1220(7) 0.8767(7) 0.14877(15)
C28_4 C 0.3077(8) 0.8765(8) 0.18329(15)
H7_4 H 0.19181 0.79114 0.32702
H8_4 H 0.11237 0.97594 0.25777
H10_4 H 0.06094 0.90598 0.21047
H11_4 H 0.19504 0.87426 0.13625
Eu7 Eu 0.53129(3) 0.97610(3) 0.23159(2)
O1_4 O 0.4273(5) 0.0487(6) 0.32393(11)
O2_4 O 0.2951(6) 0.1814(6) 0.34978(11)
O3_4 O 0.4617(6) 0.2184(7) 0.44205(12)
O4_4 O 0.6911(7) 0.1848(8) 0.45034(12)
O5_4 O 0.3464(6) 0.1646(6) 0.23619(11)
O11_4 O 0.4331(7) 0.0433(7) 0.12162(15)
N1_4 N 0.6445(7) 0.0573(7) 0.35674(13)
C1_4 C 0.5206(8) 0.1098(8) 0.36476(16)
C2_4 C 0.4968(8) 0.1566(8) 0.38995(15)
C3_4 C 0.6090(8) 0.1494(9) 0.40757(16)
C4_4 C 0.7382(8) 0.1035(9) 0.39876(17)
C5_4 C 0.7530(9) 0.0617(9) 0.37307(17)
C6_4 C 0.4048(8) 0.1128(8) 0.34473(16)
C7_4 C 0.5900(9) 0.1864(9) 0.43531(17)
H1_4 H 0.40756 0.19222 0.39500
H2_4 H 0.81659 0.10034 0.41012
H3_4 H 0.84366 0.03554 0.36699
O24_2 O 0.6282(6) 0.1651(6) 0.25613(11)
O25_2 O 0.6717(6) 0.1066(5) 0.29690(11)
O32_2 O 0.6305(8) 0.0995(6) 0.15970(12)
O33_2 O 0.5571(7) 0.1467(6) 0.19948(11)
H18_4 H 0.459643 0.315646 0.449062
H19_4 H 0.335388 0.0128469 0.125503
H20_4 H 0.448218 0.139948 0.128368
H21_4 H 0.385016 0.244065 0.246428
H22_4 H 0.318521 0.198879 0.218822
O6_4 O 0.6511(5) 0.8407(5) 0.26948(10)
O7_4 O 0.5489(5) 0.7074(5) 0.23988(9)
O10_4 O 0.4593(6) 0.7401(6) 0.11267(10)
O12_4 O 0.7914(5) 0.7882(5) 0.34668(9)
O16_4 O 0.6619(5) 0.8656(5) 0.19187(10)
O17_4 O 0.7915(5) 0.9594(6) 0.22268(9)
O20_4 O 0.7449(5) 0.7109(5) 0.11691(10)
N2_4 N 0.6608(6) 0.6279(6) 0.30336(13)
N3_4 N 0.8913(6) 0.8952(7) 0.30307(12)
N4_4 N 0.8733(6) 0.8804(6) 0.15796(12)
N5_4 N 0.6171(6) 0.6193(6) 0.15910(13)
C8_4 C 0.6364(7) 0.5940(7) 0.27856(15)
C9_4 C 0.6335(7) 0.4560(8) 0.26933(15)
C10_4 C 0.6578(8) 0.3487(8) 0.28712(15)
C11_4 C 0.6792(8) 0.3827(7) 0.31278(15)
C12_4 C 0.6795(8) 0.5227(8) 0.32000(15)
C13_4 C 0.6115(7) 0.7194(7) 0.26141(14)
C14_4 C 0.6515(7) 0.1933(8) 0.27932(15)
C15_4 C 0.9851(7) 0.8373(7) 0.31964(14)
C19_4 C 0.9398(8) 0.9458(8) 0.28062(15)
C20_4 C 0.9221(7) 0.7768(7) 0.34401(15)
C22_4 C 0.9062(7) 0.8931(7) 0.18332(14)
C26_4 C 0.9823(8) 0.8735(7) 0.14140(15)
C27_4 C 0.7793(8) 0.9052(8) 0.20050(15)
C29_4 C 0.6693(7) 0.5220(7) 0.14294(15)
C30_4 C 0.6655(9) 0.3785(7) 0.14777(15)
C31_4 C 0.6077(8) 0.3347(8) 0.17142(14)
C32_4 C 0.5540(8) 0.4349(8) 0.18833(15)
C33_4 C 0.5588(8) 0.5748(8) 0.18144(14)
C34_4 C 0.7338(7) 0.5790(7) 0.11860(14)
C35_4 C 0.5965(9) 0.1816(8) 0.17766(16)
H4_4 H 0.61566 0.43605 0.25166
H5_4 H 0.69353 0.31086 0.32526
H6_4 H 0.69375 0.54504 0.33768
H9_4 H 0.87507 0.98722 0.26889
H12_4 H 0.96179 0.86594 0.12350
H13_4 H 0.70050 0.31249 0.13560
H14_4 H 0.51461 0.40726 0.20440
H15_4 H 0.51955 0.64262 0.19282
H16_4 H 0.471875 0.778898 0.0950251
H17_4 H 0.486812 0.639274 0.112813
loop_
_geom_bond_atom_site_label_1
_geom_bond_atom_site_label_2
_geom_bond_site_symmetry_1
_geom_bond_site_symmetry_2
O14 C21 1_555 1_555
O15 C21 1_555 1_555
O18 C28 1_555 1_555
O19 C28 1_555 1_555
C17 C16 1_555 1_555
C18 C17 1_555 1_555
C21 C17 1_555 1_555
C24 C23 1_555 1_555
C25 C24 1_555 1_555
C28 C24 1_555 1_555
H7 C16 1_555 1_555
H8 C18 1_555 1_555
H10 C23 1_555 1_555
H11 C25 1_555 1_555
Eu5 O14 1_555 1_555
Eu8 O15 1_555 1_555
Eu10 O19 1_555 1_555
Eu11 O13 1_555 1_555
O18 Eu8 1_555 1_555
Eu10 O10 1_555 1_555
O6 Eu5 1_555 1_555
O7 Eu8 1_555 1_555
O8 C14 1_555 1_555
O9 C14 1_555 1_555
O12 Eu5 1_555 1_555
O16 Eu8 1_555 1_555
O17 Eu8 1_555 1_555
O20 Eu10 1_555 1_555
O21 C34 1_555 1_555
O22 C35 1_555 1_555
O23 C35 1_555 1_555
N2 Eu5 1_555 1_555
N3 Eu5 1_555 1_555
N4 Eu10 1_555 1_555
N5 Eu10 1_555 1_555
C8 N2 1_555 1_555
C9 C8 1_555 1_555
C10 C9 1_555 1_555
C11 C10 1_555 1_555
C12 N2 1_555 1_555
C13 O6 1_555 1_555
C14 C10 1_555 1_555
C15 N3 1_555 1_555
C19 N3 1_555 1_555
C20 O12 1_555 1_555
C22 N4 1_555 1_555
C26 N4 1_555 1_555
C27 O16 1_555 1_555
C29 N5 1_555 1_555
C30 C29 1_555 1_555
C31 C30 1_555 1_555
C32 C31 1_555 1_555
C33 N5 1_555 1_555
C34 O20 1_555 1_555
C35 C31 1_555 1_555
H4 C9 1_555 1_555
H5 C11 1_555 1_555
H6 C12 1_555 1_555
H9 C19 1_555 1_555
H12 C26 1_555 1_555
H13 C30 1_555 1_555
H14 C32 1_555 1_555
H15 C33 1_555 1_555
Eu6 O21 1_555 1_555
O26 Eu10 1_555 1_555
O31 Eu5 1_555 1_555
Eu8 O6 1_555 1_555
Eu10 O16 1_555 1_555
O7 C13 1_555 1_555
O17 C27 1_555 1_555
C8 C13 1_555 1_555
C11 C12 1_555 1_555
C15 C20 1_555 1_555
C22 C27 1_555 1_555
C29 C34 1_555 1_555
C32 C33 1_555 1_555
O10 H16 1_555 1_555
O10 H17 1_555 1_555
O1 C6 1_555 1_555
O2 C6 1_555 1_555
O3 C7 1_555 1_555
O4 C7 1_555 1_555
C1 N1 1_555 1_555
C2 C1 1_555 1_555
C3 C2 1_555 1_555
C4 C3 1_555 1_555
C5 N1 1_555 1_555
C6 C1 1_555 1_555
C7 C3 1_555 1_555
H1 C2 1_555 1_555
H2 C4 1_555 1_555
H3 C5 1_555 1_555
C4 C5 1_555 1_555
O3 H18 1_555 1_555
O11 H19 1_555 1_555
O11 H20 1_555 1_555
O5 H21 1_555 1_555
O5 H22 1_555 1_555
Eu11 O10_2 1_555 1_555
O6_2 Eu5_2 1_555 1_555
O7_2 Eu8_2 1_555 1_555
O8_2 C14_2 1_555 1_555
O9_2 C14_2 1_555 1_555
O12_2 Eu5_2 1_555 1_555
O16_2 Eu8_2 1_555 1_555
O17_2 Eu8_2 1_555 1_555
O20_2 Eu11 1_555 1_555
O31 C34_2 1_555 1_555
O22_2 C35_2 1_555 1_555
O23_2 C35_2 1_555 1_555
N2_2 Eu5_2 1_555 1_555
N3_2 Eu5_2 1_555 1_555
N4_2 Eu11 1_555 1_555
N5_2 Eu11 1_555 1_555
C8_2 N2_2 1_555 1_555
C9_2 C8_2 1_555 1_555
C10_2 C9_2 1_555 1_555
C11_2 C10_2 1_555 1_555
C12_2 N2_2 1_555 1_555
C13_2 O6_2 1_555 1_555
C14_2 C10_2 1_555 1_555
C15_2 N3_2 1_555 1_555
C19_2 N3_2 1_555 1_555
C20_2 O12_2 1_555 1_555
C22_2 N4_2 1_555 1_555
C26_2 N4_2 1_555 1_555
C27_2 O16_2 1_555 1_555
C29_2 N5_2 1_555 1_555
C30_2 C29_2 1_555 1_555
C31_2 C30_2 1_555 1_555
C32_2 C31_2 1_555 1_555
C33_2 N5_2 1_555 1_555
C34_2 O20_2 1_555 1_555
C35_2 C31_2 1_555 1_555
H4_2 C9_2 1_555 1_555
H5_2 C11_2 1_555 1_555
H6_2 C12_2 1_555 1_555
H9_2 C19_2 1_555 1_555
H12_2 C26_2 1_555 1_555
H13_2 C30_2 1_555 1_555
H14_2 C32_2 1_555 1_555
H15_2 C33_2 1_555 1_555
O27 Eu5_2 1_555 1_555
O28 Eu8_2 1_555 1_555
O29 Eu8_2 1_555 1_555
O30 Eu11 1_555 1_555
O31_2 Eu5_2 1_555 1_555
Eu8_2 O6_2 1_555 1_555
Eu11 O16_2 1_555 1_555
O7_2 C13_2 1_555 1_555
O17_2 C27_2 1_555 1_555
C8_2 C13_2 1_555 1_555
C11_2 C12_2 1_555 1_555
C15_2 C20_2 1_555 1_555
C22_2 C27_2 1_555 1_555
C29_2 C34_2 1_555 1_555
C32_2 C33_2 1_555 1_555
O10_2 H16_2 1_555 1_555
O10_2 H17_2 1_555 1_555
O1_2 C6_2 1_555 1_555
O2_2 C6_2 1_555 1_555
O3_2 C7_2 1_555 1_555
O4_2 C7_2 1_555 1_555
C1_2 N1_2 1_555 1_555
C2_2 C1_2 1_555 1_555
C3_2 C2_2 1_555 1_555
C4_2 C3_2 1_555 1_555
C5_2 N1_2 1_555 1_555
C6_2 C1_2 1_555 1_555
C7_2 C3_2 1_555 1_555
H1_2 C2_2 1_555 1_555
H2_2 C4_2 1_555 1_555
H3_2 C5_2 1_555 1_555
C4_2 C5_2 1_555 1_555
O3_2 H18_2 1_555 1_555
O11_2 H19_2 1_555 1_555
O11_2 H20_2 1_555 1_555
O5_2 H21_2 1_555 1_555
O5_2 H22_2 1_555 1_555
O27 C21_2 1_555 1_555
O28 C21_2 1_555 1_555
O29 C28_2 1_555 1_555
O30 C28_2 1_555 1_555
C17_2 C16_2 1_555 1_555
C18_2 C17_2 1_555 1_555
C21_2 C17_2 1_555 1_555
C24_2 C23_2 1_555 1_555
C25_2 C24_2 1_555 1_555
C28_2 C24_2 1_555 1_555
H7_2 C16_2 1_555 1_555
H8_2 C18_2 1_555 1_555
H10_2 C23_2 1_555 1_555
H11_2 C25_2 1_555 1_555
Eu11_2 O13_2 1_555 1_555
O1_3 C6_3 1_555 1_555
O2_3 C6_3 1_555 1_555
O3_3 C7_3 1_555 1_555
O4_3 C7_3 1_555 1_555
C1_3 N1_3 1_555 1_555
C2_3 C1_3 1_555 1_555
C3_3 C2_3 1_555 1_555
C4_3 C3_3 1_555 1_555
C5_3 N1_3 1_555 1_555
C6_3 C1_3 1_555 1_555
C7_3 C3_3 1_555 1_555
H1_3 C2_3 1_555 1_555
H2_3 C4_3 1_555 1_555
H3_3 C5_3 1_555 1_555
C4_3 C5_3 1_555 1_555
O3_3 H18_3 1_555 1_555
O11_3 H19_3 1_555 1_555
O11_3 H20_3 1_555 1_555
O5_3 H21_3 1_555 1_555
O5_3 H22_3 1_555 1_555
O6_3 Eu1 1_555 1_555
O24 C14_3 1_555 1_555
O25 C14_3 1_555 1_555
O12_3 Eu1 1_555 1_555
N2_3 Eu1 1_555 1_555
N3_3 Eu1 1_555 1_555
C8_3 N2_3 1_555 1_555
C9_3 C8_3 1_555 1_555
C10_3 C9_3 1_555 1_555
C11_3 C10_3 1_555 1_555
C12_3 N2_3 1_555 1_555
C13_3 O6_3 1_555 1_555
C14_3 C10_3 1_555 1_555
C15_3 N3_3 1_555 1_555
C19_3 N3_3 1_555 1_555
C20_3 O12_3 1_555 1_555
H4_3 C9_3 1_555 1_555
H5_3 C11_3 1_555 1_555
H6_3 C12_3 1_555 1_555
H9_3 C19_3 1_555 1_555
O27_2 Eu1 1_555 1_555
O31_3 Eu1 1_555 1_555
C8_3 C13_3 1_555 1_555
C11_3 C12_3 1_555 1_555
C15_3 C20_3 1_555 1_555
Eu11_2 O10_3 1_555 1_555
O7_3 Eu2 1_555 1_555
O16_3 Eu2 1_555 1_555
O17_3 Eu2 1_555 1_555
O20_3 Eu11_2 1_555 1_555
O31_2 C34_3 1_555 1_555
O32 C35_3 1_555 1_555
O33 C35_3 1_555 1_555
N4_3 Eu11_2 1_555 1_555
N5_3 Eu11_2 1_555 1_555
C22_3 N4_3 1_555 1_555
C26_3 N4_3 1_555 1_555
C27_3 O16_3 1_555 1_555
C29_3 N5_3 1_555 1_555
C30_3 C29_3 1_555 1_555
C31_3 C30_3 1_555 1_555
C32_3 C31_3 1_555 1_555
C33_3 N5_3 1_555 1_555
C34_3 O20_3 1_555 1_555
C35_3 C31_3 1_555 1_555
H12_3 C26_3 1_555 1_555
H13_3 C30_3 1_555 1_555
H14_3 C32_3 1_555 1_555
H15_3 C33_3 1_555 1_555
O29_2 Eu2 1_555 1_555
O30_2 Eu11_2 1_555 1_555
Eu11_2 O16_3 1_555 1_555
O17_3 C27_3 1_555 1_555
C22_3 C27_3 1_555 1_555
C29_3 C34_3 1_555 1_555
C32_3 C33_3 1_555 1_555
O10_3 H16_3 1_555 1_555
O10_3 H17_3 1_555 1_555
O27_2 C21_3 1_555 1_555
O28_2 C21_3 1_555 1_555
C17_3 C16_3 1_555 1_555
C18_3 C17_3 1_555 1_555
C21_3 C17_3 1_555 1_555
H7_3 C16_3 1_555 1_555
H8_3 C18_3 1_555 1_555
Eu11_3 O13_3 1_555 1_555
O29_2 C28_3 1_555 1_555
O30_2 C28_3 1_555 1_555
C24_3 C23_3 1_555 1_555
C25_3 C24_3 1_555 1_555
C28_3 C24_3 1_555 1_555
H10_3 C23_3 1_555 1_555
H11_3 C25_3 1_555 1_555
O14_2 C21_4 1_555 1_555
O15_2 C21_4 1_555 1_555
O18_2 C28_4 1_555 1_555
O19_2 C28_4 1_555 1_555
C17_4 C16_4 1_555 1_555
C18_4 C17_4 1_555 1_555
C21_4 C17_4 1_555 1_555
C24_4 C23_4 1_555 1_555
C25_4 C24_4 1_555 1_555
C28_4 C24_4 1_555 1_555
H7_4 C16_4 1_555 1_555
H8_4 C18_4 1_555 1_555
H10_4 C23_4 1_555 1_555
H11_4 C25_4 1_555 1_555
Eu6 O14_2 1_555 1_555
Eu7 O15_2 1_555 1_555
Eu11_3 O19_2 1_555 1_555
O18_2 Eu7 1_555 1_555
O1_4 C6_4 1_555 1_555
O2_4 C6_4 1_555 1_555
O3_4 C7_4 1_555 1_555
O4_4 C7_4 1_555 1_555
C1_4 N1_4 1_555 1_555
C2_4 C1_4 1_555 1_555
C3_4 C2_4 1_555 1_555
C4_4 C3_4 1_555 1_555
C5_4 N1_4 1_555 1_555
C6_4 C1_4 1_555 1_555
C7_4 C3_4 1_555 1_555
H1_4 C2_4 1_555 1_555
H2_4 C4_4 1_555 1_555
H3_4 C5_4 1_555 1_555
C4_4 C5_4 1_555 1_555
O3_4 H18_4 1_555 1_555
O11_4 H19_4 1_555 1_555
O11_4 H20_4 1_555 1_555
O5_4 H21_4 1_555 1_555
O5_4 H22_4 1_555 1_555
Eu11_3 O10_4 1_555 1_555
O6_4 Eu6 1_555 1_555
O7_4 Eu7 1_555 1_555
O24_2 C14_4 1_555 1_555
O25_2 C14_4 1_555 1_555
O12_4 Eu6 1_555 1_555
O16_4 Eu7 1_555 1_555
O17_4 Eu7 1_555 1_555
O20_4 Eu11_3 1_555 1_555
O31_3 C34_4 1_555 1_555
O32_2 C35_4 1_555 1_555
O33_2 C35_4 1_555 1_555
N2_4 Eu6 1_555 1_555
N3_4 Eu6 1_555 1_555
N4_4 Eu11_3 1_555 1_555
N5_4 Eu11_3 1_555 1_555
C8_4 N2_4 1_555 1_555
C9_4 C8_4 1_555 1_555
C10_4 C9_4 1_555 1_555
C11_4 C10_4 1_555 1_555
C12_4 N2_4 1_555 1_555
C13_4 O6_4 1_555 1_555
C14_4 C10_4 1_555 1_555
C15_4 N3_4 1_555 1_555
C19_4 N3_4 1_555 1_555
C20_4 O12_4 1_555 1_555
C22_4 N4_4 1_555 1_555
C26_4 N4_4 1_555 1_555
C27_4 O16_4 1_555 1_555
C29_4 N5_4 1_555 1_555
C30_4 C29_4 1_555 1_555
C31_4 C30_4 1_555 1_555
C32_4 C31_4 1_555 1_555
C33_4 N5_4 1_555 1_555
C34_4 O20_4 1_555 1_555
C35_4 C31_4 1_555 1_555
H4_4 C9_4 1_555 1_555
H5_4 C11_4 1_555 1_555
H6_4 C12_4 1_555 1_555
H9_4 C19_4 1_555 1_555
H12_4 C26_4 1_555 1_555
H13_4 C30_4 1_555 1_555
H14_4 C32_4 1_555 1_555
H15_4 C33_4 1_555 1_555
Eu7 O6_4 1_555 1_555
Eu11_3 O16_4 1_555 1_555
O7_4 C13_4 1_555 1_555
O17_4 C27_4 1_555 1_555
C8_4 C13_4 1_555 1_555
C11_4 C12_4 1_555 1_555
C15_4 C20_4 1_555 1_555
C22_4 C27_4 1_555 1_555
C29_4 C34_4 1_555 1_555
C32_4 C33_4 1_555 1_555
O10_4 H16_4 1_555 1_555
O10_4 H17_4 1_555 1_555

#END
