
###############################################################################
#
# This file contains modified crystal structure data generated from the
# MOF subset of the Cambridge Structural Database (CSD) v543 
# hosted by the Cambridge Crystallographic Data Centre (CCDC).
#
# This work is licensed under the Creative Commons
# Attribution-NonCommercial-ShareAlike 4.0 International License.
# To view a copy of this license, visit
# http://creativecommons.org/licenses/by-nc-sa/4.0/
# or send a letter to
# Creative Commons, PO Box 1866, Mountain View, CA 94042, USA.
#
# CIF created using the CSD Python API on 29 September 2022
# The structure has been converted into the P1 space group
# The structure has a 3D framework
# The original CSD entry XANLIJ is in the rhombohedral crystal system
# The original CSD entry XANLIJ is in a Sohncke space group
# The framework has been calculated to contain at least 10.0% void space
# The void calculation uses a probe of radius 1.32A, grid spacing 0.4
# H atom positions have been added when not included in the experimental data
#
###############################################################################

data_XANLIJ
_chemical_formula_moiety         '(C612 H756 Cl18 Mn18 N36 O116 Zn26)n'
_symmetry_cell_setting           triclinic
_symmetry_space_group_name_H-M   'P 1'
_symmetry_Int_Tables_number      1
_space_group_name_Hall           'P 1'
loop_
_symmetry_equiv_pos_site_id
_symmetry_equiv_pos_as_xyz
1 x,y,z
_cell_length_a                   35.8840(3)
_cell_length_b                   35.8840(3)
_cell_length_c                   87.911(2)
_cell_angle_alpha                90
_cell_angle_beta                 90
_cell_angle_gamma                120
_cell_volume                     98033.7
loop_
_atom_site_label
_atom_site_type_symbol
_atom_site_fract_x
_atom_site_fract_y
_atom_site_fract_z
C83 C 0.1366(7) 0.5604(5) 0.4509(3)
C85 C 0.1336(8) 0.5655(5) 0.4665(3)
C87 C 0.0940(8) 0.5537(5) 0.4730(2)
C89 C 0.0572(7) 0.5367(5) 0.4640(3)
C91 C 0.0601(8) 0.5316(5) 0.4485(2)
C93 C 0.0999(8) 0.5435(5) 0.4419(2)
C109 C 0.2348(8) 0.6188(6) 0.4280(3)
C135 C 0.0190(11) 0.5136(8) 0.4396(3)
C137 C 0.0377(16) 0.5299(11) 0.4235(3)
C143 C 0.0828(11) 0.5559(7) 0.4885(3)
C145 C 0.1760(11) 0.5717(8) 0.4442(4)
C147 C 0.1936(13) 0.6066(10) 0.4347(4)
C149 C 0.0200(9) 0.4370(7) 0.4903(3)
C151 C 0.0271(12) 0.3972(9) 0.4891(4)
C153 C 0.0411(13) 0.3896(9) 0.5045(4)
C155 C 0.0869(14) 0.4258(12) 0.5069(5)
C157 C 0.0865(14) 0.4682(10) 0.5087(5)
C159 C 0.0485(11) 0.4711(8) 0.5014(3)
Mn3 Mn 0.0037(5) 0.4864(4) 0.48592(13)
N7 N 0.0634(11) 0.5138(7) 0.4952(3)
O21 O 0.2791(9) 0.6402(6) 0.4305(3)
O25 O 0.3611(7) 0.7209(9) 0.4305(3)
O26 O 0.3598(6) 0.6389(7) 0.4305(3)
O29 O 0.2465(9) 0.6109(7) 0.4138(2)
O31 O 0.0189(10) 0.5292(7) 0.4695(3)
C182 C 0.0003(11) 0.7881(12) 0.6749(4)
O45 O 0.2677(6) 0.5986(7) 0.3886(2)
O49 O 0.2727(7) 0.6766(5) 0.38507(18)
Zn5 Zn 0.2752 0.6390 0.3968
Zn10 Zn 0.0277 0.9695 0.7301
Zn11 Zn 0.3638 0.7248 0.3968
Zn12 Zn 0.3610 0.6362 0.3968
Zn15 Zn 0.3334 0.6667 0.4264
O53 O 0.3332 0.6666 0.4025
H85 H 0.16234 0.578742 0.473572
H98 H 0.102171 0.53954 0.429715
H106 H 0.0399037 0.358673 0.504632
H107 H 0.0202404 0.390142 0.513389
H108 H 0.106529 0.427959 0.497126
H109 H 0.100126 0.419642 0.517119
H115 H 0.0582046 0.516843 0.420277
H116 H 0.0114642 0.5194 0.415358
H117 H 0.0565676 0.564907 0.423555
H118 H 0.0519165 0.403726 0.48069
H120 H 0.116124 0.493596 0.503688
H121 H 0.0862507 0.474099 0.520841
H129 H 0.0200751 0.453419 0.439994
H139 H 0.177098 0.624466 0.432296
H140 H 0.0300247 0.452627 0.479249
H144 H 0.00935389 0.566244 0.444974
H150 H 0.060123 0.567681 0.488858
H151 H 0.111685 0.577723 0.494834
H154 H 0.0275956 0.468128 0.510862
H170 H 0.192215 0.553466 0.446431
H191 H 0.025265 0.781572 0.671082
H192 H 0.00842539 0.820505 0.671503
H227 H 0.0540697 0.523446 0.504597
Zn22 Zn 0.9720 0.0287 0.2446
C1 C 0.5805(6) 0.4359(8) 0.52123(19)
C2 C 0.5902(5) 0.4775(7) 0.5176(2)
C3 C 0.5640(7) 0.4840(6) 0.5076(2)
C4 C 0.5280(6) 0.4489(7) 0.5013(2)
C5 C 0.5183(6) 0.4074(6) 0.5050(2)
C6 C 0.5446(7) 0.4008(6) 0.5149(2)
C7 C 0.6201(6) 0.3771(5) 0.5472(3)
C8 C 0.4396(5) 0.5762(5) 0.4509(3)
C9 C 0.4345(5) 0.5681(6) 0.4665(3)
C10 C 0.4463(5) 0.5403(6) 0.4730(2)
C11 C 0.4633(5) 0.5205(5) 0.4640(3)
C12 C 0.4684(5) 0.5285(6) 0.4485(2)
C13 C 0.4565(5) 0.5564(6) 0.4419(2)
C14 C 0.4810(7) 0.3644(7) 0.4998(3)
C15 C 0.1058(6) 0.1943(5) 0.2815(3)
C16 C 0.0966(6) 0.2003(6) 0.2964(3)
C17 C 0.1119(7) 0.2416(6) 0.3020(2)
C18 C 0.1365(6) 0.2770(5) 0.2927(3)
C19 C 0.1459(7) 0.2711(6) 0.2779(2)
C20 C 0.1305(8) 0.2297(6) 0.2723(2)
C21 C 0.3812(6) 0.6160(6) 0.4280(3)
C22 C 0.2407(5) 0.4725(7) 0.3580(2)
C23 C 0.1997(6) 0.4545(5) 0.3518(2)
C24 C 0.1882(6) 0.4257(6) 0.3397(2)
C25 C 0.2178(5) 0.4151(6) 0.3339(2)
C26 C 0.2587(6) 0.4331(5) 0.3402(2)
C27 C 0.2701(6) 0.4618(7) 0.3522(2)
C28 C 0.4382(9) 0.3554(12) 0.5068(4)
C29 C 0.4819(12) 0.3699(11) 0.4823(3)
C30 C 0.4888(12) 0.3258(10) 0.5033(4)
C31 C 0.5779(8) 0.5273(7) 0.5048(3)
C32 C 0.6040(8) 0.4239(10) 0.5312(3)
C33 C 0.5922(9) 0.3858(9) 0.5371(3)
C34 C 0.4864(8) 0.5054(8) 0.4396(3)
C35 C 0.4701(11) 0.5078(11) 0.4235(3)
C36 C 0.4687(11) 0.4605(9) 0.4459(5)
C37 C 0.5350(8) 0.5337(11) 0.4437(4)
C38 C 0.4441(7) 0.5269(9) 0.4885(3)
C39 C 0.4283(8) 0.6043(7) 0.4442(4)
C40 C 0.3934(10) 0.5870(9) 0.4347(4)
C41 C 0.5630(7) 0.5830(6) 0.4903(3)
C42 C 0.6028(9) 0.6299(8) 0.4891(4)
C43 C 0.6104(9) 0.6515(9) 0.5045(4)
C44 C 0.5742(12) 0.6611(8) 0.5069(5)
C45 C 0.5318(10) 0.6183(10) 0.5087(5)
C46 C 0.5289(8) 0.5774(7) 0.5014(3)
Cl1 Cl 0.5015(4) 0.4903(4) 0.51449(14)
Mn1 Mn 0.5136(4) 0.5173(3) 0.48592(13)
N1 N 0.5725(7) 0.5503(7) 0.4917(3)
N2 N 0.4862(7) 0.5496(8) 0.4952(3)
O1 O 0.6226(5) 0.3863(5) 0.5624(2)
O2 O 0.6437(6) 0.3590(6) 0.5404(2)
O3 O 0.5026(8) 0.4557(7) 0.4906(3)
O5 O 0.3891(7) 0.6356(6) 0.4138(2)
O6 O 0.4708(7) 0.4897(7) 0.4695(3)
C47 C 0.0360(8) 0.0932(8) 0.2585(2)
C48 C 0.1701(8) 0.3074(8) 0.2666(3)
C49 C 0.2154(10) 0.3429(12) 0.2699(4)
C50 C 0.1416(11) 0.3297(8) 0.2660(5)
C51 C 0.1669(11) 0.2872(11) 0.2506(3)
C52 C 0.1024(8) 0.2470(8) 0.3173(3)
C53 C 0.0927(9) 0.1540(7) 0.2743(4)
C54 C 0.0546(9) 0.1357(9) 0.2667(4)
C55 C 0.2820(6) 0.5754(7) 0.3806(2)
C56 C 0.2894(8) 0.4213(7) 0.3343(3)
C57 C 0.3336(11) 0.4548(12) 0.3416(4)
C58 C 0.2725(8) 0.3766(10) 0.3406(4)
C59 C 0.2901(12) 0.4231(12) 0.3172(3)
C60 C 0.1518(6) 0.4015(9) 0.3308(3)
C61 C 0.2611(7) 0.5024(10) 0.3704(3)
C62 C 0.2639(8) 0.5395(8) 0.3702(3)
C63 C 0.1402(8) 0.2963(7) 0.3412(2)
C64 C 0.1332(11) 0.2681(9) 0.3556(3)
C65 C 0.0857(9) 0.2352(11) 0.3578(4)
C66 C 0.0595(11) 0.2571(11) 0.3612(4)
C67 C 0.0812(11) 0.3052(9) 0.3560(4)
C68 C 0.1079(8) 0.3123(8) 0.3409(3)
Cl2 Cl 0.0818(4) 0.2978(4) 0.30976(15)
Mn2 Mn 0.1558(4) 0.3356(3) 0.31981(15)
N3 N 0.1386(7) 0.2779(7) 0.3275(3)
N4 N 0.1289(6) 0.3573(8) 0.3358(3)
O8 O 0.0648(7) 0.0772(7) 0.2572(2)
O9 O 0.1504(7) 0.3185(7) 0.2973(2)
O11 O 0.3234(5) 0.5961(5) 0.38507(18)
O12 O 0.2101(6) 0.3909(8) 0.3214(3)
Zn3 Zn 0.6667 0.3333 0.5497
Zn4 Zn 0.6387 0.3620 0.5779
O14 O 0.6667 0.3333 0.5714
C69 C 0.8554(10) 0.4195(6) 0.52123(19)
C70 C 0.5641(8) 0.1446(10) 0.52123(19)
C71 C 0.8873(9) 0.4098(5) 0.5176(2)
C72 C 0.5225(7) 0.1127(9) 0.5176(2)
C73 C 0.9200(9) 0.4360(7) 0.5076(2)
C74 C 0.5160(6) 0.0800(9) 0.5076(2)
C75 C 0.9209(9) 0.4720(6) 0.5013(2)
C76 C 0.5511(7) 0.0791(9) 0.5013(2)
C77 C 0.8891(8) 0.4817(6) 0.5050(2)
C78 C 0.5926(6) 0.1109(8) 0.5050(2)
C79 C 0.8562(9) 0.4554(7) 0.5149(2)
C80 C 0.5992(6) 0.1438(9) 0.5149(2)
C81 C 0.7570(8) 0.3799(6) 0.5472(3)
C82 C 0.6229(5) 0.2430(8) 0.5472(3)
C95 C 0.8834(10) 0.5190(7) 0.4998(3)
C96 C 0.6356(7) 0.1166(10) 0.4998(3)
C97 C 0.8057(5) 0.9115(8) 0.2815(3)
C98 C 0.7725(6) 0.5276(5) 0.6148(3)
C99 C 0.7997(6) 0.8963(8) 0.2964(3)
C100 C 0.7633(6) 0.5336(6) 0.6297(3)
C101 C 0.7584(6) 0.8703(9) 0.3020(2)
C102 C 0.7786(7) 0.5749(6) 0.6353(2)
C103 C 0.7230(5) 0.8595(8) 0.2927(3)
C104 C 0.8032(6) 0.6103(5) 0.6260(3)
C105 C 0.7289(6) 0.8748(9) 0.2779(2)
C106 C 0.8126(7) 0.6044(6) 0.6112(2)
C107 C 0.7703(6) 0.9008(10) 0.2723(2)
C108 C 0.7972(8) 0.5630(6) 0.6056(2)
C111 C 0.5275(7) 0.7682(9) 0.3580(2)
C112 C 0.9074(5) 0.8058(7) 0.6913(2)
C113 C 0.5455(5) 0.7452(8) 0.3518(2)
C114 C 0.8664(6) 0.7878(5) 0.6851(2)
C115 C 0.5743(6) 0.7625(8) 0.3397(2)
C116 C 0.8549(6) 0.7590(6) 0.6730(2)
C117 C 0.5849(6) 0.8027(8) 0.3339(2)
C118 C 0.8845(5) 0.7484(6) 0.6672(2)
C119 C 0.5669(5) 0.8256(8) 0.3402(2)
C120 C 0.9254(6) 0.7664(5) 0.6735(2)
C121 C 0.5382(7) 0.8083(9) 0.3522(2)
C122 C 0.9368(6) 0.7951(7) 0.6855(2)
C123 C 0.9172(15) 0.5618(9) 0.5068(4)
C124 C 0.6446(12) 0.0828(15) 0.5068(4)
C125 C 0.8880(16) 0.5181(12) 0.4823(3)
C126 C 0.6301(11) 0.1120(16) 0.4823(3)
C127 C 0.8370(16) 0.5112(12) 0.5033(4)
C128 C 0.6742(10) 0.1630(16) 0.5033(4)
C129 C 0.9494(11) 0.4221(8) 0.5048(3)
C130 C 0.4727(7) 0.0506(11) 0.5048(3)
C131 C 0.8199(13) 0.3960(8) 0.5312(3)
C132 C 0.5761(10) 0.1801(13) 0.5312(3)
C133 C 0.7936(13) 0.4078(9) 0.5371(3)
C134 C 0.6142(9) 0.2064(13) 0.5371(3)
C139 C 0.9918(14) 0.5313(11) 0.4459(5)
C140 C 0.5395(9) 0.0082(14) 0.4459(5)
C141 C 0.9987(14) 0.4650(8) 0.4437(4)
C142 C 0.4663(11) 0.0013(14) 0.4437(4)
Cl3 Cl 0.9888(6) 0.4985(4) 0.51449(14)
Cl4 Cl 0.5097(4) 0.0112(6) 0.51449(14)
N5 N 0.9778(10) 0.4275(7) 0.4917(3)
N6 N 0.4497(7) 0.0222(10) 0.4917(3)
O15 O 0.7637(7) 0.3774(5) 0.5624(2)
O16 O 0.6137(5) 0.2363(7) 0.5624(2)
O17 O 0.7153(8) 0.3563(6) 0.5404(2)
O18 O 0.6410(6) 0.2847(8) 0.5404(2)
O19 O 0.9531(11) 0.4974(8) 0.4906(3)
O20 O 0.5443(7) 0.0469(11) 0.4906(3)
C161 C 0.9068(8) 0.9428(11) 0.2585(2)
C162 C 0.7027(8) 0.4265(8) 0.5918(2)
C163 C 0.6926(8) 0.8627(11) 0.2666(3)
C164 C 0.8368(8) 0.6407(8) 0.5999(3)
C165 C 0.6571(12) 0.8725(16) 0.2699(4)
C166 C 0.8821(10) 0.6762(12) 0.6032(4)
C167 C 0.6703(8) 0.8119(14) 0.2660(5)
C168 C 0.8083(11) 0.6630(8) 0.5993(5)
C169 C 0.7128(11) 0.8797(16) 0.2506(3)
C170 C 0.8336(11) 0.6205(11) 0.5839(3)
C171 C 0.7530(8) 0.8554(11) 0.3173(3)
C172 C 0.7691(8) 0.5803(8) 0.6506(3)
C173 C 0.8460(7) 0.9387(11) 0.2743(4)
C174 C 0.7594(9) 0.4873(7) 0.6076(4)
C175 C 0.8643(9) 0.9189(13) 0.2667(4)
C176 C 0.7213(9) 0.4690(9) 0.6000(4)
C177 C 0.4246(7) 0.7066(9) 0.3806(2)
C178 C 0.9487(6) 0.9087(7) 0.7139(2)
C179 C 0.5787(7) 0.8681(11) 0.3343(3)
C180 C 0.9561(8) 0.7546(7) 0.6676(3)
C181 C 0.5452(12) 0.8788(16) 0.3416(4)
C183 C 0.6234(10) 0.8959(13) 0.3406(4)
C184 C 0.9392(8) 0.7099(10) 0.6739(4)
C185 C 0.5769(12) 0.8670(17) 0.3172(3)
C186 C 0.9568(12) 0.7564(12) 0.6505(3)
C187 C 0.5985(9) 0.7503(11) 0.3308(3)
C188 C 0.8185(6) 0.7348(9) 0.6641(3)
C189 C 0.4976(10) 0.7587(12) 0.3704(3)
C190 C 0.9278(7) 0.8357(10) 0.7037(3)
C191 C 0.4605(8) 0.7244(11) 0.3702(3)
C192 C 0.9306(8) 0.8728(8) 0.7035(3)
C193 C 0.7037(7) 0.8439(11) 0.3412(2)
C194 C 0.8069(8) 0.6296(7) 0.6745(2)
C195 C 0.7319(9) 0.8651(14) 0.3556(3)
C196 C 0.7999(11) 0.6014(9) 0.6889(3)
C197 C 0.7648(11) 0.8505(14) 0.3578(4)
C198 C 0.7524(9) 0.5685(11) 0.6911(4)
C199 C 0.7429(11) 0.8024(16) 0.3612(4)
C200 C 0.7262(11) 0.5904(11) 0.6945(4)
C201 C 0.6948(9) 0.7760(14) 0.3560(4)
C202 C 0.7479(11) 0.6385(9) 0.6893(4)
C203 C 0.6877(8) 0.7956(11) 0.3409(3)
C204 C 0.7746(8) 0.6456(8) 0.6742(3)
Cl5 Cl 0.7022(4) 0.7840(6) 0.30976(15)
Cl6 Cl 0.7485(4) 0.6311(4) 0.64309(15)
Mn5 Mn 0.6644(3) 0.8202(5) 0.31981(15)
Mn6 Mn 0.8225(4) 0.6689(3) 0.65314(15)
N9 N 0.7221(7) 0.8607(10) 0.3275(3)
N10 N 0.8053(7) 0.6112(7) 0.6608(3)
N11 N 0.6427(8) 0.7716(10) 0.3358(3)
N12 N 0.7956(6) 0.6906(8) 0.6691(3)
O33 O 0.9241(7) 0.9166(10) 0.2533(2)
O34 O 0.6592(7) 0.4092(7) 0.5866(2)
O35 O 0.7501(10) 0.3408(7) 0.5866(2)
O36 O 0.5908(7) 0.2499(10) 0.5866(2)
O37 O 0.9228(7) 0.9876(10) 0.2572(2)
O38 O 0.7315(7) 0.4105(7) 0.5905(2)
O39 O 0.5895(7) 0.3209(10) 0.5905(2)
O40 O 0.6791(10) 0.2685(7) 0.5905(2)
O41 O 0.6815(7) 0.8319(10) 0.2973(2)
O42 O 0.8171(7) 0.6518(7) 0.6306(2)
O43 O 0.4014(7) 0.6691(9) 0.3886(2)
O44 O 0.9344(6) 0.9319(7) 0.7219(2)
O47 O 0.4039(5) 0.7273(7) 0.38507(18)
O48 O 0.9901(5) 0.9294(5) 0.71840(18)
O51 O 0.6091(8) 0.8192(10) 0.3214(3)
O52 O 0.8768(6) 0.7242(8) 0.6547(3)
Zn9 Zn 0.9419 0.9723 0.7301
Zn17 Zn 0.7233 0.3613 0.5779
Zn18 Zn 0.6380 0.2767 0.5779
Zn20 Zn 0.0566 0.0280 0.2446
Zn21 Zn 0.9713 0.9434 0.2446
H1 H 0.537129 0.368219 0.517699
H2 H 0.13783 0.225037 0.260673
H3 H 0.618293 0.504958 0.522586
H4 H 0.46046 0.562631 0.429715
H5 H 0.0773962 0.17257 0.303653
H6 H 0.421258 0.583599 0.473572
H7 H 0.161571 0.402658 0.319002
H8 H 0.130652 0.415028 0.331678
H9 H 0.596274 0.64819 0.48069
H10 H 0.631202 0.628379 0.485715
H11 H 0.133227 0.268139 0.247293
H12 H 0.18408 0.312733 0.242309
H13 H 0.181159 0.266628 0.251029
H14 H 0.236239 0.329166 0.271309
H15 H 0.227018 0.365636 0.260474
H16 H 0.215625 0.359509 0.280297
H17 H 0.302221 0.476 0.357094
H18 H 0.0542744 0.25593 0.373435
H19 H 0.028635 0.239219 0.35542
H20 H 0.163714 0.272502 0.326616
H21 H 0.591597 0.551618 0.482957
H22 H 0.512809 0.375988 0.47789
H23 H 0.456197 0.340657 0.477188
H24 H 0.477326 0.396921 0.479521
H25 H 0.506404 0.622528 0.503688
H26 H 0.525901 0.612152 0.520841
H27 H 0.432319 0.492442 0.488858
H28 H 0.422277 0.533961 0.494834
H29 H 0.531872 0.559468 0.510862
H30 H 0.139943 0.341228 0.277299
H31 H 0.155968 0.356723 0.258121
H32 H 0.10929 0.306485 0.262167
H33 H 0.239903 0.355659 0.336467
H34 H 0.293135 0.36412 0.336906
H35 H 0.272259 0.377745 0.352976
H36 H 0.274187 0.493396 0.37998
H37 H 0.10392 0.350702 0.328761
H38 H 0.431414 0.380623 0.503446
H39 H 0.412492 0.324421 0.502784
H40 H 0.440263 0.354757 0.519147
H41 H 0.446534 0.63875 0.446431
H42 H 0.0878617 0.215491 0.322698
H43 H 0.0790087 0.257873 0.316837
H44 H 0.112252 0.138628 0.27486
H45 H 0.331095 0.452222 0.353944
H46 H 0.358598 0.448239 0.337749
H47 H 0.341759 0.487171 0.338169
H48 H 0.299552 0.455615 0.313509
H49 H 0.313084 0.414252 0.312898
H50 H 0.258171 0.400737 0.312814
H51 H 0.375534 0.552632 0.432296
H52 H 0.249695 0.544984 0.360108
H53 H 0.539065 0.53317 0.455959
H54 H 0.553295 0.521038 0.43801
H55 H 0.546581 0.566656 0.439994
H56 H 0.476554 0.530624 0.504597
H57 H 0.172101 0.324573 0.342192
H58 H 0.635959 0.449602 0.534373
H59 H 0.492776 0.323924 0.515506
H60 H 0.461301 0.295882 0.499376
H61 H 0.517717 0.330898 0.497439
H62 H 0.102692 0.325736 0.364931
H63 H 0.0563755 0.313602 0.353936
H64 H 0.0844906 0.293568 0.33214
H65 H 0.572041 0.67857 0.497126
H66 H 0.580358 0.680484 0.517119
H67 H 0.560231 0.359274 0.534412
H68 H 0.144876 0.28887 0.365563
H69 H 0.151173 0.251233 0.35429
H70 H 0.612691 0.542774 0.506056
H71 H 0.564548 0.536318 0.514294
H72 H 0.0824018 0.214176 0.367263
H73 H 0.0733965 0.216162 0.347462
H74 H 0.176616 0.462852 0.356374
H75 H 0.483157 0.541361 0.420277
H76 H 0.4806 0.492064 0.415358
H77 H 0.435093 0.491661 0.423555
H78 H 0.547373 0.577398 0.479249
H79 H 0.641327 0.68123 0.504632
H80 H 0.609858 0.630099 0.513389
H81 H 0.433756 0.443109 0.444974
H82 H 0.481706 0.443648 0.439463
H83 H 0.477881 0.46238 0.457804
H84 H 0.0365354 0.152669 0.266527
H86 H 0.94921 0.568586 0.503446
H87 H 0.911929 0.587508 0.502784
H88 H 0.914494 0.559737 0.519147
H90 H 0.631781 0.168911 0.517699
H91 H 0.774963 0.912793 0.260673
H92 H 0.744063 0.505903 0.636987
H93 H 0.537148 0.713764 0.356374
H94 H 0.82743 0.904827 0.303653
H95 H 0.843283 0.796186 0.689707
H96 H 0.804497 0.55837 0.594007
H97 H 0.831089 0.462871 0.517699
H100 H 0.886665 0.381707 0.522586
H101 H 0.524 0.826221 0.357094
H102 H 0.968887 0.809333 0.690427
H103 H 0.495042 0.113335 0.522586
H104 H 0.457226 0.0699176 0.506056
H105 H 0.463682 0.0282301 0.514294
H111 H 0.371621 0.00282304 0.485715
H112 H 0.930082 0.387309 0.506056
H113 H 0.97177 0.435452 0.514294
H114 H 0.550398 0.186357 0.534373
H119 H 0.997177 0.368798 0.485715
H122 H 0.640726 0.200957 0.534412
H123 H 0.831148 0.507224 0.515506
H124 H 0.834581 0.538699 0.499376
H125 H 0.81318 0.482283 0.497439
H126 H 0.813643 0.364041 0.534373
H127 H 0.994105 0.460935 0.455959
H128 H 0.967743 0.446705 0.43801
H130 H 0.619377 0.0507901 0.503446
H131 H 0.675579 0.0880714 0.502784
H132 H 0.645243 0.0855058 0.519147
H133 H 0.46683 0.00589525 0.455959
H134 H 0.478962 0.0322567 0.43801
H136 H 0.863179 0.487191 0.47789
H137 H 0.884459 0.543803 0.477188
H138 H 0.919595 0.522674 0.479521
H145 H 0.961942 0.518294 0.439463
H146 H 0.984499 0.522119 0.457804
H149 H 0.799043 0.439769 0.534412
H156 H 0.676076 0.168852 0.515506
H157 H 0.704118 0.165419 0.499376
H158 H 0.669102 0.18682 0.497439
H159 H 0.624012 0.136821 0.47789
H160 H 0.659343 0.115541 0.477188
H161 H 0.603079 0.080405 0.479521
H163 H 0.556352 0.0380582 0.439463
H164 H 0.53762 0.0155007 0.457804
H173 H 0.90657 0.688993 0.6698
H174 H 0.959801 0.697453 0.670239
H175 H 0.938926 0.711078 0.68631
H176 H 0.675427 0.847528 0.342192
H177 H 0.71113 0.856006 0.365563
H178 H 0.748767 0.89994 0.35429
H179 H 0.749068 0.547509 0.700596
H180 H 0.740063 0.549495 0.680796
H182 H 0.731861 0.865089 0.247293
H183 H 0.687267 0.871347 0.242309
H184 H 0.733372 0.914531 0.251029
H185 H 0.861372 0.973623 0.27486
H186 H 0.785824 0.868226 0.367263
H187 H 0.783838 0.857235 0.347462
H188 H 0.74407 0.798345 0.373435
H189 H 0.760781 0.789416 0.35542
H190 H 0.997762 0.785555 0.687277
H193 H 0.966219 0.788948 0.646842
H194 H 0.979751 0.747585 0.646231
H195 H 0.924838 0.73407 0.646148
H196 H 0.547778 0.878873 0.353944
H197 H 0.551761 0.910359 0.337749
H198 H 0.512829 0.854587 0.338169
H199 H 0.902905 0.662499 0.604643
H200 H 0.893684 0.698969 0.593808
H201 H 0.882291 0.692842 0.613631
H202 H 0.960022 0.408403 0.482957
H203 H 0.784509 0.872371 0.322698
H204 H 0.742127 0.821136 0.316837
H205 H 0.778919 0.471962 0.608194
H206 H 0.847331 0.883867 0.266527
H207 H 0.544385 0.843937 0.313509
H208 H 0.585748 0.898832 0.312898
H209 H 0.599263 0.857434 0.312814
H210 H 0.806609 0.674562 0.610632
H211 H 0.822634 0.690057 0.591455
H212 H 0.775956 0.639818 0.595501
H213 H 0.703202 0.486002 0.59986
H214 H 0.644341 0.884244 0.336467
H215 H 0.63588 0.929015 0.336906
H216 H 0.622255 0.894515 0.352976
H217 H 0.940854 0.826729 0.713313
H218 H 0.916362 0.878317 0.693442
H219 H 0.754528 0.548824 0.656031
H220 H 0.745675 0.591206 0.650171
H221 H 0.838767 0.657906 0.675525
H222 H 0.811543 0.622203 0.698897
H223 H 0.81784 0.584566 0.687623
H224 H 0.448382 0.0399784 0.482957
H225 H 0.597342 0.758914 0.319002
H226 H 0.584972 0.715623 0.331678
H228 H 0.828238 0.735991 0.652335
H229 H 0.797318 0.748362 0.665011
H230 H 0.455016 0.704712 0.360108
H231 H 0.506604 0.780792 0.37998
H232 H 0.658772 0.798714 0.277299
H233 H 0.643277 0.799244 0.258121
H234 H 0.693515 0.802805 0.262167
H235 H 0.670834 0.907073 0.271309
H236 H 0.634364 0.861382 0.260474
H237 H 0.640491 0.856116 0.280297
H238 H 0.799894 0.601472 0.580626
H239 H 0.850747 0.646066 0.575642
H240 H 0.847826 0.599961 0.584363
H241 H 0.770587 0.684035 0.662094
H242 H 0.83038 0.605836 0.659949
H243 H 0.769359 0.659069 0.698264
H244 H 0.723042 0.646936 0.68727
H245 H 0.706432 0.790922 0.33214
H246 H 0.727498 0.891211 0.326616
H247 H 0.720941 0.589263 0.706768
H248 H 0.695302 0.572552 0.688753
H249 H 0.751157 0.626902 0.665473
H250 H 0.649298 0.753218 0.328761
H251 H 0.674264 0.776957 0.364931
H252 H 0.686398 0.742773 0.353936
C84 C 0.4238(5) 0.8634(7) 0.4509(3)
C86 C 0.4319(6) 0.8664(8) 0.4665(3)
C88 C 0.4597(6) 0.9060(8) 0.4730(2)
C90 C 0.4795(5) 0.9428(7) 0.4640(3)
C92 C 0.4715(6) 0.9399(8) 0.4485(2)
C94 C 0.4436(6) 0.9001(8) 0.4419(2)
C110 C 0.3840(6) 0.7652(8) 0.4280(3)
C136 C 0.4946(8) 0.9810(11) 0.4396(3)
C138 C 0.4922(11) 0.9623(16) 0.4235(3)
C144 C 0.4731(9) 0.9172(11) 0.4885(3)
C146 C 0.3957(7) 0.8240(11) 0.4442(4)
C148 C 0.4130(9) 0.8064(13) 0.4347(4)
C150 C 0.4170(6) 0.9800(9) 0.4903(3)
C152 C 0.3701(8) 0.9729(12) 0.4891(4)
C154 C 0.3485(9) 0.9589(13) 0.5045(4)
C156 C 0.3389(8) 0.9131(14) 0.5069(5)
C158 C 0.3817(10) 0.9135(14) 0.5087(5)
C160 C 0.4226(7) 0.9515(11) 0.5014(3)
Mn4 Mn 0.4827(3) 0.9963(5) 0.48592(13)
N8 N 0.4504(8) 0.9366(11) 0.4952(3)
O30 O 0.3644(6) 0.7535(9) 0.4138(2)
O32 O 0.5103(7) 0.9811(10) 0.4695(3)
O46 O 0.3309(9) 0.7323(6) 0.3886(2)
H89 H 0.437369 0.897829 0.429715
H99 H 0.416401 0.83766 0.473572
H110 H 0.35181 0.948083 0.48069
H135 H 0.433344 0.979925 0.439994
H141 H 0.447368 0.822902 0.432296
H142 H 0.31877 0.960096 0.504632
H143 H 0.369901 0.97976 0.513389
H147 H 0.32143 0.893471 0.497126
H148 H 0.319516 0.899874 0.517119
H152 H 0.377472 0.883876 0.503688
H153 H 0.387848 0.913749 0.520841
H155 H 0.440532 0.972404 0.510862
H162 H 0.556891 0.990646 0.444974
H165 H 0.458639 0.941795 0.420277
H166 H 0.507936 0.988536 0.415358
H167 H 0.508339 0.943432 0.423555
H168 H 0.507558 0.939877 0.488858
H169 H 0.466039 0.888315 0.494834
H171 H 0.36125 0.807785 0.446431
H172 H 0.422602 0.969975 0.479249
H181 H 0.469376 0.94593 0.504597
O7 O 0.9925(7) 0.0759(7) 0.2533(2)
C98_2 C 0.4724(5) 0.2448(8) 0.6148(3)
C100_2 C 0.4664(6) 0.2296(8) 0.6297(3)
C102_2 C 0.4251(6) 0.2036(9) 0.6353(2)
C104_2 C 0.3897(5) 0.1928(8) 0.6260(3)
C106_2 C 0.3956(6) 0.2081(9) 0.6112(2)
C108_2 C 0.4370(6) 0.2341(10) 0.6056(2)
C112_2 C 0.1942(7) 0.1015(9) 0.6913(2)
C114_2 C 0.2122(5) 0.0785(8) 0.6851(2)
C116_2 C 0.2410(6) 0.0958(8) 0.6730(2)
C118_2 C 0.2516(6) 0.1360(8) 0.6672(2)
C120_2 C 0.2336(5) 0.1589(8) 0.6735(2)
C122_2 C 0.2049(7) 0.1416(9) 0.6855(2)
C162_2 C 0.5735(8) 0.2761(11) 0.5918(2)
C164_2 C 0.3593(8) 0.1960(11) 0.5999(3)
C166_2 C 0.3238(12) 0.2058(16) 0.6032(4)
C168_2 C 0.3370(8) 0.1452(14) 0.5993(5)
C170_2 C 0.3795(11) 0.2130(16) 0.5839(3)
C172_2 C 0.4197(8) 0.1887(11) 0.6506(3)
C174_2 C 0.5127(7) 0.2720(11) 0.6076(4)
C176_2 C 0.5310(9) 0.2522(13) 0.6000(4)
C178_2 C 0.0913(7) 0.0399(9) 0.7139(2)
C180_2 C 0.2454(7) 0.2014(11) 0.6676(3)
C182_2 C 0.2119(12) 0.2121(16) 0.6749(4)
C184_2 C 0.2901(10) 0.2292(13) 0.6739(4)
C186_2 C 0.2436(12) 0.2003(17) 0.6505(3)
C188_2 C 0.2652(9) 0.0836(11) 0.6641(3)
C190_2 C 0.1643(10) 0.0920(12) 0.7037(3)
C192_2 C 0.1272(8) 0.0577(11) 0.7035(3)
C194_2 C 0.3704(7) 0.1772(11) 0.6745(2)
C196_2 C 0.3986(9) 0.1984(14) 0.6889(3)
C198_2 C 0.4315(11) 0.1838(14) 0.6911(4)
C200_2 C 0.4096(11) 0.1357(16) 0.6945(4)
C202_2 C 0.3615(9) 0.1093(14) 0.6893(4)
C204_2 C 0.3544(8) 0.1289(11) 0.6742(3)
Cl6_2 Cl 0.3689(4) 0.1173(6) 0.64309(15)
Mn6_2 Mn 0.3311(3) 0.1535(5) 0.65314(15)
N10_2 N 0.3888(7) 0.1940(10) 0.6608(3)
N12_2 N 0.3094(8) 0.1049(10) 0.6691(3)
O33_2 O 0.0834(10) 0.0075(12) 0.2533(2)
O42_2 O 0.3482(7) 0.1652(10) 0.6306(2)
O44_2 O 0.0681(7) 0.0024(9) 0.7219(2)
O48_2 O 0.0706(5) 0.0606(7) 0.71840(18)
O52_2 O 0.2758(8) 0.1525(10) 0.6547(3)
Zn10_2 Zn 0.0305 0.0581 0.7301
H92_2 H 0.494097 0.23816 0.636987
H95_2 H 0.203814 0.047097 0.689707
H96_2 H 0.44163 0.246127 0.594007
H102_2 H 0.190667 0.159554 0.690427
H173_2 H 0.311007 0.217577 0.6698
H174_2 H 0.302547 0.262348 0.670239
H175_2 H 0.288922 0.227848 0.68631
H179_2 H 0.452491 0.201559 0.700596
H180_2 H 0.450505 0.190568 0.680796
H190_2 H 0.214445 0.212207 0.687277
H191_2 H 0.218428 0.243693 0.671082
H192_2 H 0.179495 0.187921 0.671503
H193_2 H 0.211052 0.177271 0.646842
H194_2 H 0.252415 0.232165 0.646231
H195_2 H 0.26593 0.190768 0.646148
H199_2 H 0.337501 0.240406 0.604643
H200_2 H 0.301031 0.194715 0.593808
H201_2 H 0.307158 0.189449 0.613631
H205_2 H 0.528038 0.306957 0.608194
H210_2 H 0.325438 0.132047 0.610632
H211_2 H 0.309943 0.132578 0.591455
H212_2 H 0.360182 0.136138 0.595501
H213_2 H 0.513998 0.2172 0.59986
H217_2 H 0.173271 0.114125 0.713313
H218_2 H 0.121683 0.0380449 0.693442
H219_2 H 0.451176 0.205704 0.656031
H220_2 H 0.408794 0.154469 0.650171
H221_2 H 0.342094 0.180861 0.675525
H222_2 H 0.377797 0.18934 0.698897
H223_2 H 0.415434 0.233274 0.687623
H228_2 H 0.264009 0.092247 0.652335
H229_2 H 0.251638 0.0489568 0.665011
H238_2 H 0.398528 0.198422 0.580626
H239_2 H 0.353934 0.20468 0.575642
H240_2 H 0.400039 0.247865 0.584363
H241_2 H 0.315965 0.0865514 0.662094
H242_2 H 0.394164 0.224545 0.659949
H243_2 H 0.340931 0.11029 0.698264
H244_2 H 0.353064 0.0761067 0.68727
H247_2 H 0.410737 0.131678 0.706768
H248_2 H 0.427448 0.12275 0.688753
H249_2 H 0.373098 0.124255 0.665473
C97_2 C 0.0885(8) 0.8942(9) 0.2815(3)
C99_2 C 0.1037(8) 0.9034(10) 0.2964(3)
C101_2 C 0.1297(9) 0.8881(11) 0.3020(2)
C103_2 C 0.1405(8) 0.8635(9) 0.2927(3)
C105_2 C 0.1252(9) 0.8541(11) 0.2779(2)
C107_2 C 0.0992(10) 0.8695(12) 0.2723(2)
C111_2 C 0.2318(9) 0.7593(11) 0.3580(2)
C113_2 C 0.2548(8) 0.8003(9) 0.3518(2)
C115_2 C 0.2375(8) 0.8118(10) 0.3397(2)
C117_2 C 0.1973(8) 0.7822(10) 0.3339(2)
C119_2 C 0.1744(8) 0.7413(9) 0.3402(2)
C121_2 C 0.1917(9) 0.7299(11) 0.3522(2)
C161_2 C 0.0572(11) 0.9640(14) 0.2585(2)
C163_2 C 0.1373(11) 0.8299(14) 0.2666(3)
C165_2 C 0.1275(16) 0.7846(20) 0.2699(4)
C167_2 C 0.1881(14) 0.8584(16) 0.2660(5)
C169_2 C 0.1203(16) 0.8331(19) 0.2506(3)
C171_2 C 0.1446(11) 0.8976(14) 0.3173(3)
C173_2 C 0.0613(11) 0.9073(13) 0.2743(4)
C175_2 C 0.0811(13) 0.9454(16) 0.2667(4)
C177_2 C 0.2934(9) 0.7180(11) 0.3806(2)
C179_2 C 0.1319(11) 0.7106(13) 0.3343(3)
C181_2 C 0.1212(16) 0.6664(20) 0.3416(4)
C183_2 C 0.1041(13) 0.7275(16) 0.3406(4)
C185_2 C 0.1330(17) 0.7099(21) 0.3172(3)
C187_2 C 0.2497(11) 0.8482(14) 0.3308(3)
C189_2 C 0.2413(12) 0.7389(16) 0.3704(3)
C191_2 C 0.2756(11) 0.7361(14) 0.3702(3)
C193_2 C 0.1561(11) 0.8598(13) 0.3412(2)
C195_2 C 0.1349(14) 0.8668(17) 0.3556(3)
C197_2 C 0.1495(14) 0.9143(18) 0.3578(4)
C199_2 C 0.1976(16) 0.9405(19) 0.3612(4)
C201_2 C 0.2240(14) 0.9188(17) 0.3560(4)
C203_2 C 0.2044(11) 0.8921(14) 0.3409(3)
Cl5_2 Cl 0.2160(6) 0.9182(7) 0.30976(15)
Mn5_2 Mn 0.1798(5) 0.8442(6) 0.31981(15)
N9_2 N 0.1393(10) 0.8614(12) 0.3275(3)
N11_2 N 0.2284(10) 0.8711(13) 0.3358(3)
O37_2 O 0.0124(10) 0.9352(12) 0.2572(2)
O41_2 O 0.1681(10) 0.8496(12) 0.2973(2)
O51_2 O 0.1808(10) 0.7899(13) 0.3214(3)
H91_2 H 0.0872065 0.86217 0.260673
H93_2 H 0.286236 0.823384 0.356374
H94_2 H 0.0951734 0.922604 0.303653
H101_2 H 0.173779 0.697779 0.357094
H176_2 H 0.152472 0.827899 0.342192
H177_2 H 0.143994 0.855124 0.365563
H178_2 H 0.10006 0.848827 0.35429
H182_2 H 0.134911 0.866773 0.247293
H183_2 H 0.128653 0.81592 0.242309
H184_2 H 0.0854686 0.818841 0.251029
H185_2 H 0.0263765 0.887748 0.27486
H186_2 H 0.131774 0.917598 0.367263
H187_2 H 0.142765 0.926604 0.347462
H188_2 H 0.201655 0.945726 0.373435
H189_2 H 0.210584 0.971365 0.35542
H196_2 H 0.121127 0.668905 0.353944
H197_2 H 0.0896405 0.641402 0.337749
H198_2 H 0.145413 0.658241 0.338169
H203_2 H 0.127629 0.912138 0.322698
H204_2 H 0.178864 0.920991 0.316837
H206_2 H 0.116133 0.963465 0.266527
H207_2 H 0.156063 0.700448 0.313509
H208_2 H 0.101168 0.686916 0.312898
H209_2 H 0.142566 0.741829 0.312814
H214_2 H 0.115756 0.760097 0.336467
H215_2 H 0.0709852 0.706865 0.336906
H216_2 H 0.105485 0.727741 0.352976
H225_2 H 0.241086 0.838429 0.319002
H226_2 H 0.284377 0.869348 0.331678
H230_2 H 0.295288 0.750305 0.360108
H231_2 H 0.219208 0.725813 0.37998
H232_2 H 0.201286 0.860057 0.277299
H233_2 H 0.200756 0.844032 0.258121
H234_2 H 0.197195 0.89071 0.262167
H235_2 H 0.0929274 0.763761 0.271309
H236_2 H 0.138618 0.772982 0.260474
H237_2 H 0.143884 0.784375 0.280297
H245_2 H 0.209078 0.915509 0.33214
H246_2 H 0.108789 0.836286 0.326616
H250_2 H 0.246782 0.89608 0.328761
H251_2 H 0.223043 0.897308 0.364931
H252_2 H 0.257227 0.943624 0.353936
C98_3 C 0.7552(8) 0.2275(6) 0.6148(3)
C100_3 C 0.7704(8) 0.2367(6) 0.6297(3)
C102_3 C 0.7964(9) 0.2214(7) 0.6353(2)
C104_3 C 0.8072(8) 0.1968(6) 0.6260(3)
C106_3 C 0.7919(9) 0.1874(7) 0.6112(2)
C108_3 C 0.7659(10) 0.2028(8) 0.6056(2)
C112_3 C 0.8985(9) 0.0926(5) 0.6913(2)
C114_3 C 0.9215(8) 0.1336(6) 0.6851(2)
C116_3 C 0.9042(8) 0.1451(6) 0.6730(2)
C118_3 C 0.8640(8) 0.1155(5) 0.6672(2)
C120_3 C 0.8411(8) 0.0746(6) 0.6735(2)
C122_3 C 0.8584(9) 0.0632(6) 0.6855(2)
C162_3 C 0.7239(11) 0.2973(8) 0.5918(2)
C164_3 C 0.8040(11) 0.1632(8) 0.5999(3)
C166_3 C 0.7942(16) 0.1179(10) 0.6032(4)
C168_3 C 0.8548(14) 0.1917(11) 0.5993(5)
C170_3 C 0.7870(16) 0.1664(11) 0.5839(3)
C172_3 C 0.8113(11) 0.2309(8) 0.6506(3)
C174_3 C 0.7280(11) 0.2406(9) 0.6076(4)
C176_3 C 0.7478(13) 0.2787(9) 0.6000(4)
C178_3 C 0.9601(9) 0.0513(6) 0.7139(2)
C180_3 C 0.7986(11) 0.0439(8) 0.6676(3)
C184_3 C 0.7708(13) 0.0608(8) 0.6739(4)
C186_3 C 0.7997(17) 0.0432(12) 0.6505(3)
C188_3 C 0.9164(11) 0.1815(6) 0.6641(3)
C190_3 C 0.9080(12) 0.0722(7) 0.7037(3)
C192_3 C 0.9423(11) 0.0694(8) 0.7035(3)
C194_3 C 0.8228(11) 0.1931(8) 0.6745(2)
C196_3 C 0.8016(14) 0.2001(11) 0.6889(3)
C198_3 C 0.8162(14) 0.2476(9) 0.6911(4)
C200_3 C 0.8643(16) 0.2738(11) 0.6945(4)
C202_3 C 0.8907(14) 0.2521(11) 0.6893(4)
C204_3 C 0.8711(11) 0.2254(8) 0.6742(3)
Cl6_3 Cl 0.8827(6) 0.2515(4) 0.64309(15)
Mn6_3 Mn 0.8465(5) 0.1775(4) 0.65314(15)
N10_3 N 0.8060(10) 0.1947(7) 0.6608(3)
N12_3 N 0.8951(10) 0.2044(6) 0.6691(3)
O42_3 O 0.8348(10) 0.1829(7) 0.6306(2)
O44_3 O 0.9976(9) 0.0656(6) 0.7219(2)
O48_3 O 0.9394(7) 0.0099(5) 0.71840(18)
O52_3 O 0.8475(10) 0.1232(6) 0.6547(3)
H92_3 H 0.76184 0.255937 0.636987
H95_3 H 0.952903 0.156717 0.689707
H96_3 H 0.753873 0.195503 0.594007
H102_3 H 0.840446 0.0311127 0.690427
H173_3 H 0.782423 0.0934301 0.6698
H174_3 H 0.737652 0.0401986 0.670239
H175_3 H 0.772152 0.0610741 0.68631
H179_3 H 0.798441 0.250932 0.700596
H180_3 H 0.809432 0.259937 0.680796
H190_3 H 0.787793 0.00223817 0.687277
H193_3 H 0.822729 0.0337815 0.646842
H194_3 H 0.767835 0.0202495 0.646231
H195_3 H 0.809232 0.0751623 0.646148
H199_3 H 0.759594 0.0970946 0.604643
H200_3 H 0.805285 0.106316 0.593808
H201_3 H 0.810551 0.117709 0.613631
H205_3 H 0.693043 0.221081 0.608194
H210_3 H 0.867953 0.193391 0.610632
H211_3 H 0.867422 0.177366 0.591455
H212_3 H 0.863862 0.224044 0.595501
H213_3 H 0.7828 0.296798 0.59986
H217_3 H 0.885875 0.0591461 0.713313
H218_3 H 0.961955 0.0836381 0.693442
H219_3 H 0.794296 0.245472 0.656031
H220_3 H 0.845531 0.254325 0.650171
H221_3 H 0.819139 0.161233 0.675525
H222_3 H 0.81066 0.188457 0.698897
H223_3 H 0.766726 0.18216 0.687623
H228_3 H 0.907753 0.171762 0.652335
H229_3 H 0.951043 0.202682 0.665011
H238_3 H 0.801578 0.200106 0.580626
H239_3 H 0.79532 0.149253 0.575642
H240_3 H 0.752135 0.152174 0.584363
H241_3 H 0.913449 0.229413 0.662094
H242_3 H 0.775455 0.16962 0.659949
H243_3 H 0.88971 0.230641 0.698264
H244_3 H 0.923893 0.276958 0.68727
H247_3 H 0.868322 0.279059 0.706768
H248_3 H 0.87725 0.304698 0.688753
H249_3 H 0.875745 0.248843 0.665473
C182_3 C 0.7879(16) 0.9997(11) 0.6749(4)
H191_3 H 0.756307 0.974735 0.671082
H192_3 H 0.812079 0.991575 0.671503
O25_2 O 0.0278(7) 0.0542(9) 0.7638(3)
Zn15_2 Zn 0.0001 0.0000 0.7597
O26_2 O 0.0265(6) 0.9722(7) 0.7638(3)
C112_4 C 0.5740(5) 0.1392(7) 0.0247(2)
C114_4 C 0.5330(6) 0.1212(5) 0.0185(2)
C116_4 C 0.5215(6) 0.0924(6) 0.0064(2)
C118_4 C 0.5511(5) 0.0818(6) 0.0006(2)
C120_4 C 0.5920(6) 0.0998(5) 0.0069(2)
C122_4 C 0.6034(6) 0.1285(7) 0.0189(2)
C178_4 C 0.6153(6) 0.2421(7) 0.0473(2)
C180_4 C 0.6227(8) 0.0880(7) 0.0010(3)
C182_4 C 0.6669(11) 0.1215(12) 0.0083(4)
C184_4 C 0.6058(8) 0.0433(10) 0.0073(4)
C190_4 C 0.5944(7) 0.1691(10) 0.0371(3)
C192_4 C 0.5972(8) 0.2062(8) 0.0369(3)
N12_4 N 0.4622(6) 0.0240(8) 0.0025(3)
O44_4 O 0.6010(6) 0.2653(7) 0.0553(2)
O48_4 O 0.6567(5) 0.2628(5) 0.05174(18)
Zn9_2 Zn 0.6085 0.3057 0.0635
Zn10_3 Zn 0.6943 0.3029 0.0635
H95_4 H 0.50995 0.129519 0.0230404
H102_4 H 0.635554 0.142666 0.0237602
H173_4 H 0.573237 0.022326 0.00313362
H174_4 H 0.626468 0.0307866 0.00357221
H175_4 H 0.605593 0.0444113 0.0196431
H190_4 H 0.664428 0.118888 0.0206107
H191_4 H 0.691932 0.114906 0.00441572
H192_4 H 0.675092 0.153838 0.00483609
H217_4 H 0.607521 0.160062 0.0466464
H218_4 H 0.583029 0.21165 0.0267749
C166_4 C 0.5487(10) 0.0096(12) 0.9366(4)
C186_4 C 0.6234(12) 0.0898(12) 0.9839(3)
C188_4 C 0.4851(6) 0.0682(9) 0.9975(3)
Mn6_4 Mn 0.4891(4) 0.0023(3) 0.98648(15)
O52_4 O 0.5434(6) 0.0576(8) 0.9881(3)
H65_2 H 0.238708 0.0119033 0.830459
H66_2 H 0.247025 0.0138169 0.850452
H79_2 H 0.307993 0.0145636 0.837965
H193_4 H 0.632885 0.122281 0.980176
H194_4 H 0.646417 0.0809184 0.979565
H195_4 H 0.591504 0.0674033 0.979481
H200_4 H 0.560351 0.0323027 0.927141
H201_4 H 0.548958 0.0261754 0.946964
H210_4 H 0.473276 0.00789502 0.943966
H211_4 H 0.489301 0.0233899 0.924788
H228_4 H 0.494905 0.0693243 0.985668
H229_4 H 0.463985 0.081695 0.998344
H241_4 H 0.437254 0.0173688 0.995428
C194_4 C 0.4735(8) 0.9630(7) 0.0079(2)
C196_4 C 0.4665(11) 0.9348(9) 0.0223(3)
C198_4 C 0.4190(9) 0.9019(11) 0.0245(4)
C200_4 C 0.3928(11) 0.9238(11) 0.0279(4)
C202_4 C 0.4145(11) 0.9719(9) 0.0227(4)
C204_4 C 0.4412(8) 0.9790(8) 0.0076(3)
H179_4 H 0.415735 0.880842 0.0339295
H180_4 H 0.40673 0.882828 0.0141291
H221_4 H 0.505434 0.991239 0.00885842
H222_4 H 0.478209 0.955536 0.03223
H223_4 H 0.484506 0.917899 0.0209564
H243_4 H 0.436026 0.992402 0.0315975
H244_4 H 0.389709 0.980269 0.0206031
H247_4 H 0.387608 0.922596 0.0401015
H248_4 H 0.361968 0.905885 0.0220867
C1_2 C 0.2472(6) 0.7692(8) 0.85456(19)
C2_2 C 0.2569(5) 0.8108(7) 0.8509(2)
C3_2 C 0.2307(7) 0.8173(6) 0.8409(2)
C4_2 C 0.1947(6) 0.7822(7) 0.8346(2)
C5_2 C 0.1850(6) 0.7407(6) 0.8383(2)
C6_2 C 0.2113(7) 0.7341(6) 0.8482(2)
C7_2 C 0.2868(6) 0.7104(5) 0.8805(3)
C8_2 C 0.1063(5) 0.9095(5) 0.7842(3)
C9_2 C 0.1012(5) 0.9014(6) 0.7998(3)
C10_2 C 0.1130(5) 0.8736(6) 0.8063(2)
C11_2 C 0.1300(5) 0.8538(5) 0.7973(3)
C12_2 C 0.1351(5) 0.8618(6) 0.7818(2)
C13_2 C 0.1232(5) 0.8897(6) 0.7752(2)
C14_2 C 0.1477(7) 0.6977(7) 0.8331(3)
C21_2 C 0.0479(6) 0.9493(6) 0.7613(3)
C28_2 C 0.1049(9) 0.6887(12) 0.8401(4)
C29_2 C 0.1486(12) 0.7032(11) 0.8156(3)
C30_2 C 0.1555(12) 0.6591(10) 0.8366(4)
C31_2 C 0.2446(8) 0.8606(7) 0.8381(3)
C32_2 C 0.2707(8) 0.7572(10) 0.8645(3)
C33_2 C 0.2589(9) 0.7191(9) 0.8704(3)
C34_2 C 0.1531(8) 0.8387(8) 0.7729(3)
C35_2 C 0.1368(11) 0.8411(11) 0.7568(3)
C36_2 C 0.1354(11) 0.7938(9) 0.7792(5)
C37_2 C 0.2017(8) 0.8670(11) 0.7770(4)
C38_2 C 0.1108(7) 0.8602(9) 0.8218(3)
C39_2 C 0.0950(8) 0.9376(7) 0.7775(4)
C40_2 C 0.0601(10) 0.9203(9) 0.7680(4)
C41_2 C 0.2297(7) 0.9163(6) 0.8236(3)
C42_2 C 0.2695(9) 0.9632(8) 0.8224(4)
C43_2 C 0.2771(9) 0.9848(9) 0.8378(4)
C44_2 C 0.2409(12) 0.9944(8) 0.8402(5)
C45_2 C 0.1985(10) 0.9516(10) 0.8420(5)
C46_2 C 0.1956(8) 0.9107(7) 0.8347(3)
Cl1_2 Cl 0.1682(4) 0.8236(4) 0.84782(14)
Mn1_2 Mn 0.1803(4) 0.8506(3) 0.81925(13)
N1_2 N 0.2392(7) 0.8836(7) 0.8250(3)
N2_2 N 0.1529(7) 0.8829(8) 0.8285(3)
O1_2 O 0.2893(5) 0.7196(5) 0.8957(2)
O2_2 O 0.3104(6) 0.6923(6) 0.8737(2)
O3_2 O 0.1693(8) 0.7890(7) 0.8239(3)
O5_2 O 0.0558(7) 0.9689(6) 0.7471(2)
O6_2 O 0.1375(7) 0.8230(7) 0.8028(3)
O13 O 0.0001 0.9999 0.7358
Zn3_2 Zn 0.3334 0.6666 0.8830
Zn4_2 Zn 0.3054 0.6953 0.9112
O14_2 O 0.3334 0.6666 0.9047
C69_2 C 0.5221(10) 0.7528(6) 0.85456(19)
C70_2 C 0.2308(8) 0.4779(10) 0.85456(19)
C71_2 C 0.5540(9) 0.7431(5) 0.8509(2)
C72_2 C 0.1892(7) 0.4460(9) 0.8509(2)
C73_2 C 0.5867(9) 0.7693(7) 0.8409(2)
C74_2 C 0.1827(6) 0.4133(9) 0.8409(2)
C75_2 C 0.5876(9) 0.8053(6) 0.8346(2)
C76_2 C 0.2178(7) 0.4124(9) 0.8346(2)
C77_2 C 0.5558(8) 0.8150(6) 0.8383(2)
C78_2 C 0.2593(6) 0.4442(8) 0.8383(2)
C79_2 C 0.5229(9) 0.7887(7) 0.8482(2)
C80_2 C 0.2659(6) 0.4771(9) 0.8482(2)
C81_2 C 0.4237(8) 0.7132(6) 0.8805(3)
C82_2 C 0.2896(5) 0.5763(8) 0.8805(3)
C83_2 C 0.8033(7) 0.8937(5) 0.7842(3)
C84_2 C 0.0905(5) 0.1967(7) 0.7842(3)
C85_2 C 0.8003(8) 0.8988(5) 0.7998(3)
C86_2 C 0.0986(6) 0.1997(8) 0.7998(3)
C87_2 C 0.7607(8) 0.8870(5) 0.8063(2)
C88_2 C 0.1264(6) 0.2393(8) 0.8063(2)
C89_2 C 0.7239(7) 0.8700(5) 0.7973(3)
C90_2 C 0.1462(5) 0.2761(7) 0.7973(3)
C91_2 C 0.7268(8) 0.8649(5) 0.7818(2)
C92_2 C 0.1382(6) 0.2732(8) 0.7818(2)
C93_2 C 0.7666(8) 0.8768(5) 0.7752(2)
C94_2 C 0.1103(6) 0.2334(8) 0.7752(2)
C95_2 C 0.5501(10) 0.8523(7) 0.8331(3)
C96_2 C 0.3023(7) 0.4499(10) 0.8331(3)
C98_4 C 0.4391(6) 0.8610(5) 0.9482(3)
C100_4 C 0.4299(6) 0.8670(6) 0.9631(3)
C102_4 C 0.4452(7) 0.9083(6) 0.9687(2)
C104_4 C 0.4698(6) 0.9437(5) 0.9594(3)
C106_4 C 0.4792(7) 0.9378(6) 0.9446(2)
C108_4 C 0.4638(8) 0.8964(6) 0.9390(2)
C109_2 C 0.9015(8) 0.9521(6) 0.7613(3)
C110_2 C 0.0507(6) 0.0985(8) 0.7613(3)
C123_2 C 0.5839(15) 0.8951(9) 0.8401(4)
C124_2 C 0.3113(12) 0.4161(15) 0.8401(4)
C125_2 C 0.5547(16) 0.8514(12) 0.8156(3)
C126_2 C 0.2968(11) 0.4453(16) 0.8156(3)
C127_2 C 0.5037(16) 0.8445(12) 0.8366(4)
C128_2 C 0.3409(10) 0.4963(16) 0.8366(4)
C129_2 C 0.6161(11) 0.7554(8) 0.8381(3)
C130_2 C 0.1394(7) 0.3839(11) 0.8381(3)
C131_2 C 0.4866(13) 0.7293(8) 0.8645(3)
C132_2 C 0.2428(10) 0.5134(13) 0.8645(3)
C133_2 C 0.4603(13) 0.7411(9) 0.8704(3)
C134_2 C 0.2809(9) 0.5397(13) 0.8704(3)
C135_2 C 0.6857(11) 0.8469(8) 0.7729(3)
C136_2 C 0.1613(8) 0.3143(11) 0.7729(3)
C137_2 C 0.7044(16) 0.8632(11) 0.7568(3)
C138_2 C 0.1589(11) 0.2956(16) 0.7568(3)
C139_2 C 0.6585(14) 0.8646(11) 0.7792(5)
C140_2 C 0.2062(9) 0.3415(14) 0.7792(5)
C141_2 C 0.6654(14) 0.7983(8) 0.7770(4)
C142_2 C 0.1330(11) 0.3346(14) 0.7770(4)
C143_2 C 0.7495(11) 0.8892(7) 0.8218(3)
C144_2 C 0.1398(9) 0.2505(11) 0.8218(3)
C145_2 C 0.8427(11) 0.9050(8) 0.7775(4)
C146_2 C 0.0624(7) 0.1573(11) 0.7775(4)
C147_2 C 0.8603(13) 0.9399(10) 0.7680(4)
C148_2 C 0.0797(9) 0.1397(13) 0.7680(4)
C149_2 C 0.6867(9) 0.7703(7) 0.8236(3)
C150_2 C 0.0837(6) 0.3133(9) 0.8236(3)
C151_2 C 0.6938(12) 0.7305(9) 0.8224(4)
C152_2 C 0.0368(8) 0.3062(12) 0.8224(4)
C153_2 C 0.7078(13) 0.7229(9) 0.8378(4)
C154_2 C 0.0152(9) 0.2922(13) 0.8378(4)
C155_2 C 0.7536(14) 0.7591(12) 0.8402(5)
C156_2 C 0.0056(8) 0.2464(14) 0.8402(5)
C157_2 C 0.7532(14) 0.8015(10) 0.8420(5)
C158_2 C 0.0484(10) 0.2468(14) 0.8420(5)
C159_2 C 0.7152(11) 0.8044(8) 0.8347(3)
C160_2 C 0.0893(7) 0.2848(11) 0.8347(3)
Cl3_2 Cl 0.6555(6) 0.8318(4) 0.84782(14)
Cl4_2 Cl 0.1764(4) 0.3445(6) 0.84782(14)
Mn3_2 Mn 0.6704(5) 0.8197(4) 0.81925(13)
Mn4_2 Mn 0.1494(3) 0.3296(5) 0.81925(13)
N5_2 N 0.6445(10) 0.7608(7) 0.8250(3)
N6_2 N 0.1164(7) 0.3555(10) 0.8250(3)
N7_2 N 0.7301(11) 0.8471(7) 0.8285(3)
N8_2 N 0.1171(8) 0.2699(11) 0.8285(3)
O15_2 O 0.4304(7) 0.7107(5) 0.8957(2)
O16_2 O 0.2804(5) 0.5696(7) 0.8957(2)
O17_2 O 0.3820(8) 0.6896(6) 0.8737(2)
O18_2 O 0.3077(6) 0.6180(8) 0.8737(2)
O19_2 O 0.6198(11) 0.8307(8) 0.8239(3)
O20_2 O 0.2110(7) 0.3802(11) 0.8239(3)
O21_2 O 0.9458(9) 0.9735(6) 0.7638(3)
O29_2 O 0.9132(9) 0.9442(7) 0.7471(2)
O30_2 O 0.0311(6) 0.0868(9) 0.7471(2)
O31_2 O 0.6856(10) 0.8625(7) 0.8028(3)
O32_2 O 0.1770(7) 0.3144(10) 0.8028(3)
C162_4 C 0.3693(8) 0.7599(8) 0.9252(2)
C164_4 C 0.5034(8) 0.9741(8) 0.9333(3)
C168_4 C 0.4749(11) 0.9964(8) 0.9327(5)
C170_4 C 0.5002(11) 0.9539(11) 0.9173(3)
C172_4 C 0.4357(8) 0.9137(8) 0.9840(3)
C174_4 C 0.4260(9) 0.8207(7) 0.9410(4)
C176_4 C 0.3879(9) 0.8024(9) 0.9334(4)
Cl6_4 Cl 0.4151(4) 0.9645(4) 0.97643(15)
N10_4 N 0.4719(7) 0.9446(7) 0.9942(3)
O34_2 O 0.3258(7) 0.7426(7) 0.9200(2)
O35_2 O 0.4167(10) 0.6742(7) 0.9200(2)
O36_2 O 0.2574(7) 0.5833(10) 0.9200(2)
O38_2 O 0.3981(7) 0.7439(7) 0.9239(2)
O39_2 O 0.2561(7) 0.6543(10) 0.9239(2)
O40_2 O 0.3457(10) 0.6019(7) 0.9239(2)
O42_4 O 0.4837(7) 0.9852(7) 0.9640(2)
O53_2 O 0.9999 0.9999 0.7358
O54 O 0.0001 0.0001 0.7358
Zn17_2 Zn 0.3900 0.6946 0.9112
Zn18_2 Zn 0.3047 0.6100 0.9112
H1_2 H 0.203796 0.701552 0.851033
H3_2 H 0.284959 0.838291 0.855919
H4_2 H 0.127127 0.895965 0.763048
H6_2 H 0.087925 0.916932 0.806906
H9_2 H 0.26294 0.981524 0.814023
H10_2 H 0.297869 0.961713 0.819048
H21_2 H 0.258263 0.884952 0.81629
H22_2 H 0.179476 0.709321 0.811223
H23_2 H 0.122864 0.67399 0.810522
H24_2 H 0.143993 0.730254 0.812855
H25_2 H 0.17307 0.955861 0.837021
H26_2 H 0.192568 0.945485 0.854174
H27_2 H 0.0989852 0.825775 0.822192
H28_2 H 0.0889432 0.867295 0.828167
H29_2 H 0.198539 0.892801 0.844195
H38_2 H 0.0980802 0.713957 0.836779
H39_2 H 0.0791586 0.657754 0.836118
H40_2 H 0.106929 0.68809 0.85248
H41_2 H 0.113201 0.972083 0.779764
H51_2 H 0.0422007 0.885966 0.76563
H53_2 H 0.205732 0.866503 0.789293
H54_2 H 0.219961 0.854371 0.771343
H55_2 H 0.213248 0.899989 0.773327
H56_2 H 0.143221 0.863957 0.83793
H58_2 H 0.302626 0.782935 0.867706
H59_2 H 0.159443 0.657258 0.848839
H60_2 H 0.127968 0.629215 0.832709
H61_2 H 0.184384 0.664231 0.830772
H67_2 H 0.226898 0.692607 0.867745
H70_2 H 0.279358 0.876107 0.839389
H71_2 H 0.231215 0.869651 0.847627
H75_2 H 0.149823 0.874695 0.75361
H76_2 H 0.147266 0.825397 0.748691
H77_2 H 0.10176 0.824994 0.756889
H78_2 H 0.21404 0.910731 0.812583
H80_2 H 0.276525 0.963432 0.846723
H81_2 H 0.100422 0.776443 0.778307
H82_2 H 0.148373 0.776981 0.772797
H83_2 H 0.144547 0.795713 0.791137
H85_2 H 0.829007 0.912075 0.806906
H86_2 H 0.615877 0.90192 0.836779
H87_2 H 0.578595 0.920841 0.836118
H88_2 H 0.581161 0.893071 0.85248
H89_2 H 0.104035 0.231162 0.763048
H90_2 H 0.298448 0.502244 0.851033
H92_4 H 0.41073 0.839236 0.97032
H96_4 H 0.471164 0.891703 0.92734
H97_2 H 0.497756 0.796204 0.851033
H98_2 H 0.768838 0.872873 0.763048
H99_2 H 0.0830681 0.170993 0.806906
H100_2 H 0.553332 0.715041 0.855919
H103_2 H 0.161709 0.446668 0.855919
H104_2 H 0.123893 0.403251 0.839389
H105_2 H 0.130349 0.361563 0.847627
H106_2 H 0.70657 0.692007 0.837965
H107_2 H 0.686907 0.723475 0.846723
H108_2 H 0.773196 0.761292 0.830459
H109_2 H 0.766792 0.752975 0.850452
H110_2 H 0.0184764 0.281417 0.814023
H111_2 H 0.0382873 0.336156 0.819048
H112_2 H 0.596749 0.720642 0.839389
H113_2 H 0.638437 0.768785 0.847627
H114_2 H 0.217065 0.519691 0.867706
H115_2 H 0.724871 0.850177 0.75361
H116_2 H 0.678131 0.852734 0.748691
H117_2 H 0.723234 0.89824 0.756889
H118_2 H 0.718583 0.73706 0.814023
H119_2 H 0.663844 0.702131 0.819048
H120_2 H 0.782791 0.82693 0.837021
H121_2 H 0.752917 0.807432 0.854174
H122_2 H 0.307393 0.53429 0.867745
H123_2 H 0.497815 0.840557 0.848839
H124_2 H 0.501247 0.872032 0.832709
H125_2 H 0.479847 0.815616 0.830772
H126_2 H 0.480309 0.697374 0.867706
H127_2 H 0.660771 0.794268 0.789293
H128_2 H 0.63441 0.780039 0.771343
H129_2 H 0.686742 0.786752 0.773327
H130_2 H 0.286043 0.384123 0.836779
H131_2 H 0.342246 0.421405 0.836118
H132_2 H 0.31191 0.418839 0.85248
H133_2 H 0.133497 0.339229 0.789293
H134_2 H 0.145629 0.36559 0.771343
H135_2 H 0.100011 0.313258 0.773327
H136_2 H 0.529846 0.820524 0.811223
H137_2 H 0.551126 0.877136 0.810522
H138_2 H 0.586262 0.856007 0.812855
H139_2 H 0.843765 0.957799 0.76563
H140_2 H 0.696691 0.78596 0.812583
H141_2 H 0.114034 0.156235 0.76563
H143_2 H 0.036568 0.313093 0.846723
H144_2 H 0.676021 0.899578 0.778307
H145_2 H 0.628608 0.851627 0.772797
H146_2 H 0.651166 0.855453 0.791137
H149_2 H 0.46571 0.773102 0.867745
H150_2 H 0.72679 0.901015 0.822192
H151_2 H 0.778351 0.911057 0.828167
H152_2 H 0.0441387 0.217209 0.837021
H153_2 H 0.0545151 0.247083 0.854174
H154_2 H 0.694262 0.801461 0.844195
H155_2 H 0.107199 0.305738 0.844195
H156_2 H 0.342742 0.502185 0.848839
H157_2 H 0.370785 0.498753 0.832709
H158_2 H 0.335769 0.520153 0.830772
H159_2 H 0.290679 0.470154 0.811223
H160_2 H 0.32601 0.448874 0.810522
H161_2 H 0.269746 0.413738 0.812855
H162_2 H 0.223557 0.323979 0.778307
H163_2 H 0.223019 0.371392 0.772797
H164_2 H 0.204287 0.348834 0.791137
H165_2 H 0.125305 0.275129 0.75361
H166_2 H 0.174603 0.321869 0.748691
H167_2 H 0.175006 0.276766 0.756889
H168_2 H 0.174225 0.27321 0.822192
H169_2 H 0.132705 0.221649 0.828167
H170_2 H 0.858882 0.886799 0.779764
H171_2 H 0.0279168 0.141118 0.779764
H172_2 H 0.0892688 0.303309 0.812583
H181_2 H 0.136043 0.279264 0.83793
H199_4 H 0.569572 0.995833 0.937976
H202_2 H 0.626688 0.741737 0.81629
H205_4 H 0.445585 0.805295 0.941527
H212_4 H 0.442623 0.973151 0.928834
H213_4 H 0.369869 0.819336 0.933194
H219_4 H 0.421195 0.882158 0.989365
H220_4 H 0.412342 0.92454 0.983504
H224_2 H 0.115048 0.373312 0.81629
H227_2 H 0.720736 0.856779 0.83793
H238_4 H 0.466561 0.934805 0.913959
H239_4 H 0.517413 0.9794 0.908976
H240_4 H 0.514492 0.933294 0.917696
H242_4 H 0.497047 0.939169 0.993283
H249_4 H 0.417824 0.960235 0.998806
H142_2 H 0.985436 0.29343 0.837965
H147_2 H 0.988097 0.226804 0.830459
H148_2 H 0.986183 0.233208 0.850452
Zn16 Zn 1.0000 0.9999 0.7597
C194_5 C 0.0370(7) 0.5106(11) 0.0079(2)
C196_5 C 0.0652(9) 0.5318(14) 0.0223(3)
C198_5 C 0.0981(11) 0.5172(14) 0.0245(4)
C200_5 C 0.0762(11) 0.4691(16) 0.0279(4)
C202_5 C 0.0281(9) 0.4427(14) 0.0227(4)
C204_5 C 0.0210(8) 0.4623(11) 0.0076(3)
H179_5 H 0.119158 0.534893 0.0339295
H180_5 H 0.117172 0.523902 0.0141291
H221_5 H 0.00876061 0.514195 0.00885842
H222_5 H 0.0444638 0.522673 0.03223
H223_5 H 0.0821006 0.566607 0.0209564
H243_5 H 0.00759754 0.443623 0.0315975
H244_5 H 0.0197311 0.40944 0.0206031
H247_5 H 0.0774035 0.465011 0.0401015
H248_5 H 0.0941146 0.456083 0.0220867
C98_5 C 0.1390(5) 0.5782(8) 0.9482(3)
C100_5 C 0.1330(6) 0.5630(8) 0.9631(3)
C102_5 C 0.0917(6) 0.5370(9) 0.9687(2)
C104_5 C 0.0563(5) 0.5262(8) 0.9594(3)
C106_5 C 0.0622(6) 0.5415(9) 0.9446(2)
C108_5 C 0.1036(6) 0.5675(10) 0.9390(2)
C162_5 C 0.2401(8) 0.6095(11) 0.9252(2)
C164_5 C 0.0259(8) 0.5294(11) 0.9333(3)
C168_5 C 0.0036(8) 0.4786(14) 0.9327(5)
C170_5 C 0.0461(11) 0.5464(16) 0.9173(3)
C172_5 C 0.0863(8) 0.5221(11) 0.9840(3)
C174_5 C 0.1793(7) 0.6054(11) 0.9410(4)
C176_5 C 0.1976(9) 0.5856(13) 0.9334(4)
Cl6_5 Cl 0.0355(4) 0.4507(6) 0.97643(15)
N10_5 N 0.0554(7) 0.5274(10) 0.9942(3)
O42_5 O 0.0148(7) 0.4986(10) 0.9640(2)
H92_5 H 0.160764 0.571493 0.97032
H96_5 H 0.108297 0.57946 0.92734
H199_5 H 0.00416724 0.573739 0.937976
H205_5 H 0.194705 0.64029 0.941527
H212_5 H 0.0268486 0.469472 0.928834
H213_5 H 0.180664 0.550533 0.933194
H219_5 H 0.117842 0.539037 0.989365
H220_5 H 0.0754604 0.487802 0.983504
H238_5 H 0.0651947 0.531755 0.913959
H239_5 H 0.0206003 0.538013 0.908976
H240_5 H 0.0667055 0.581198 0.917696
H242_5 H 0.0608309 0.557878 0.993283
H249_5 H 0.0397649 0.457589 0.998806
C112_5 C 0.8608(7) 0.4349(9) 0.0247(2)
C114_5 C 0.8788(5) 0.4119(8) 0.0185(2)
C116_5 C 0.9076(6) 0.4292(8) 0.0064(2)
C118_5 C 0.9182(6) 0.4694(8) 0.0006(2)
C120_5 C 0.9002(5) 0.4923(8) 0.0069(2)
C122_5 C 0.8715(7) 0.4750(9) 0.0189(2)
C178_5 C 0.7579(7) 0.3733(9) 0.0473(2)
C180_5 C 0.9120(7) 0.5348(11) 0.0010(3)
C182_5 C 0.8785(12) 0.5455(16) 0.0083(4)
C184_5 C 0.9567(10) 0.5626(13) 0.0073(4)
C190_5 C 0.8309(10) 0.4254(12) 0.0371(3)
C192_5 C 0.7938(8) 0.3911(11) 0.0369(3)
N12_5 N 0.9760(8) 0.4383(10) 0.0025(3)
O44_5 O 0.7347(7) 0.3358(9) 0.0553(2)
O48_5 O 0.7372(5) 0.3940(7) 0.05174(18)
Zn10_4 Zn 0.6971 0.3915 0.0635
H95_5 H 0.870481 0.38043 0.0230404
H102_5 H 0.857334 0.492888 0.0237602
H173_5 H 0.977674 0.55091 0.00313362
H174_5 H 0.969213 0.595681 0.00357221
H175_5 H 0.955589 0.561181 0.0196431
H190_5 H 0.881112 0.54554 0.0206107
H191_5 H 0.885094 0.577026 0.00441572
H192_5 H 0.846162 0.521254 0.00483609
H217_5 H 0.839938 0.447458 0.0466464
H218_5 H 0.78835 0.371378 0.0267749
C166_5 C 0.9904(12) 0.5392(16) 0.9366(4)
C186_5 C 0.9102(12) 0.5337(17) 0.9839(3)
C188_5 C 0.9318(9) 0.4170(11) 0.9975(3)
Mn6_5 Mn 0.9977(3) 0.4869(5) 0.98648(15)
O52_5 O 0.9424(8) 0.4859(10) 0.9881(3)
H193_5 H 0.877719 0.510604 0.980176
H194_5 H 0.919082 0.565499 0.979565
H195_5 H 0.932597 0.524101 0.979481
H200_5 H 0.967697 0.528048 0.927141
H201_5 H 0.973825 0.522782 0.946964
H210_5 H 0.992105 0.465381 0.943966
H211_5 H 0.97661 0.465911 0.924788
H228_5 H 0.930676 0.42558 0.985668
H229_5 H 0.918305 0.38229 0.998344
H241_5 H 0.982631 0.419885 0.995428
C112_6 C 0.5651(9) 0.4260(5) 0.0247(2)
C114_6 C 0.5881(8) 0.4670(6) 0.0185(2)
C116_6 C 0.5708(8) 0.4785(6) 0.0064(2)
C118_6 C 0.5306(8) 0.4489(5) 0.0006(2)
C120_6 C 0.5077(8) 0.4080(6) 0.0069(2)
C122_6 C 0.5250(9) 0.3966(6) 0.0189(2)
C178_6 C 0.6267(9) 0.3847(6) 0.0473(2)
C180_6 C 0.4652(11) 0.3773(8) 0.0010(3)
C182_6 C 0.4545(16) 0.3331(11) 0.0083(4)
C184_6 C 0.4374(13) 0.3942(8) 0.0073(4)
C190_6 C 0.5746(12) 0.4056(7) 0.0371(3)
C192_6 C 0.6089(11) 0.4028(8) 0.0369(3)
C194_6 C 0.4894(11) 0.5265(8) 0.0079(2)
C196_6 C 0.4682(14) 0.5335(11) 0.0223(3)
C198_6 C 0.4828(14) 0.5810(9) 0.0245(4)
C200_6 C 0.5309(16) 0.6072(11) 0.0279(4)
C202_6 C 0.5573(14) 0.5855(11) 0.0227(4)
C204_6 C 0.5377(11) 0.5588(8) 0.0076(3)
N12_6 N 0.5617(10) 0.5378(6) 0.0025(3)
O44_6 O 0.6642(9) 0.3990(6) 0.0553(2)
O48_6 O 0.6060(7) 0.3433(5) 0.05174(18)
H95_6 H 0.61957 0.49005 0.0230404
H102_6 H 0.507112 0.364446 0.0237602
H173_6 H 0.44909 0.426763 0.00313362
H174_6 H 0.404319 0.373532 0.00357221
H175_6 H 0.438819 0.394407 0.0196431
H179_6 H 0.465107 0.584265 0.0339295
H180_6 H 0.476098 0.59327 0.0141291
H190_6 H 0.45446 0.335572 0.0206107
H191_6 H 0.422974 0.308068 0.00441572
H192_6 H 0.478746 0.324908 0.00483609
H217_6 H 0.552542 0.392479 0.0466464
H218_6 H 0.628622 0.416971 0.0267749
H221_6 H 0.485805 0.494566 0.00885842
H222_6 H 0.477327 0.521791 0.03223
H223_6 H 0.433393 0.515494 0.0209564
H243_6 H 0.556377 0.563974 0.0315975
H244_6 H 0.59056 0.610291 0.0206031
H247_6 H 0.534989 0.612392 0.0401015
H248_6 H 0.543917 0.638032 0.0220867
C98_6 C 0.4218(8) 0.5609(6) 0.9482(3)
C100_6 C 0.4370(8) 0.5701(6) 0.9631(3)
C102_6 C 0.4630(9) 0.5548(7) 0.9687(2)
C104_6 C 0.4738(8) 0.5302(6) 0.9594(3)
C106_6 C 0.4585(9) 0.5208(7) 0.9446(2)
C108_6 C 0.4325(10) 0.5362(8) 0.9390(2)
C162_6 C 0.3905(11) 0.6307(8) 0.9252(2)
C164_6 C 0.4706(11) 0.4966(8) 0.9333(3)
C166_6 C 0.4608(16) 0.4513(10) 0.9366(4)
C168_6 C 0.5214(14) 0.5251(11) 0.9327(5)
C170_6 C 0.4536(16) 0.4998(11) 0.9173(3)
C172_6 C 0.4779(11) 0.5643(8) 0.9840(3)
C174_6 C 0.3946(11) 0.5740(9) 0.9410(4)
C176_6 C 0.4144(13) 0.6121(9) 0.9334(4)
C186_6 C 0.4663(17) 0.3766(12) 0.9839(3)
C188_6 C 0.5830(11) 0.5149(6) 0.9975(3)
Cl6_6 Cl 0.5493(6) 0.5849(4) 0.97643(15)
Mn6_6 Mn 0.5131(5) 0.5109(4) 0.98648(15)
N10_6 N 0.4726(10) 0.5281(7) 0.9942(3)
O42_6 O 0.5014(10) 0.5163(7) 0.9640(2)
O52_6 O 0.5141(10) 0.4566(6) 0.9881(3)
H92_6 H 0.428507 0.58927 0.97032
H96_6 H 0.42054 0.528836 0.92734
H193_6 H 0.489396 0.367115 0.980176
H194_6 H 0.434501 0.353583 0.979565
H195_6 H 0.475899 0.408496 0.979481
H199_6 H 0.426261 0.430428 0.937976
H200_6 H 0.471952 0.439649 0.927141
H201_6 H 0.477218 0.451042 0.946964
H205_6 H 0.35971 0.554415 0.941527
H210_6 H 0.534619 0.526724 0.943966
H211_6 H 0.534089 0.510699 0.924788
H212_6 H 0.530528 0.557377 0.928834
H213_6 H 0.449467 0.630131 0.933194
H219_6 H 0.460963 0.578805 0.989365
H220_6 H 0.512198 0.587658 0.983504
H228_6 H 0.57442 0.505095 0.985668
H229_6 H 0.61771 0.536015 0.998344
H238_6 H 0.468245 0.533439 0.913959
H239_6 H 0.461987 0.482587 0.908976
H240_6 H 0.418802 0.485508 0.917696
H241_6 H 0.580115 0.562746 0.995428
H242_6 H 0.442122 0.502953 0.993283
H249_6 H 0.542411 0.582176 0.998806
C69_3 C 0.1887(10) 0.0862(6) 0.18790(19)
C71_3 C 0.2206(9) 0.0765(5) 0.1843(2)
C73_3 C 0.2533(9) 0.1027(7) 0.1743(2)
C75_3 C 0.2542(9) 0.1387(6) 0.1680(2)
C77_3 C 0.2224(8) 0.1484(6) 0.1717(2)
C79_3 C 0.1895(9) 0.1221(7) 0.1816(2)
C81_3 C 0.0903(8) 0.0466(6) 0.2139(3)
C83_3 C 0.4699(7) 0.2271(5) 0.1176(3)
C85_3 C 0.4669(8) 0.2322(5) 0.1332(3)
C87_3 C 0.4273(8) 0.2204(5) 0.1397(2)
C89_3 C 0.3905(7) 0.2034(5) 0.1307(3)
C91_3 C 0.3934(8) 0.1983(5) 0.1152(2)
C93_3 C 0.4332(8) 0.2102(5) 0.1086(2)
C95_3 C 0.2167(10) 0.1857(7) 0.1665(3)
C109_3 C 0.5681(8) 0.2855(6) 0.0947(3)
C123_3 C 0.2505(15) 0.2285(9) 0.1735(4)
C125_3 C 0.2213(16) 0.1848(12) 0.1490(3)
C127_3 C 0.1703(16) 0.1779(12) 0.1700(4)
C129_3 C 0.2827(11) 0.0888(8) 0.1715(3)
C131_3 C 0.1532(13) 0.0627(8) 0.1979(3)
C133_3 C 0.1269(13) 0.0745(9) 0.2038(3)
C135_3 C 0.3523(11) 0.1803(8) 0.1063(3)
C137_3 C 0.3710(16) 0.1966(11) 0.0902(3)
C139_3 C 0.3251(14) 0.1980(11) 0.1126(5)
C141_3 C 0.3320(14) 0.1317(8) 0.1104(4)
C143_3 C 0.4161(11) 0.2226(7) 0.1552(3)
C145_3 C 0.5093(11) 0.2384(8) 0.1109(4)
C147_3 C 0.5269(13) 0.2733(10) 0.1014(4)
C149_3 C 0.3533(9) 0.1037(7) 0.1570(3)
C151_3 C 0.3604(12) 0.0639(9) 0.1558(4)
C153_3 C 0.3744(13) 0.0563(9) 0.1712(4)
C155_3 C 0.4202(14) 0.0925(12) 0.1736(5)
C157_3 C 0.4198(14) 0.1349(10) 0.1754(5)
C159_3 C 0.3818(11) 0.1378(8) 0.1681(3)
Cl3_3 Cl 0.3221(6) 0.1652(4) 0.18116(14)
Mn3_3 Mn 0.3370(5) 0.1531(4) 0.15259(13)
N5_3 N 0.3111(10) 0.0942(7) 0.1584(3)
N7_3 N 0.3967(11) 0.1805(7) 0.1619(3)
O15_3 O 0.0970(7) 0.0441(5) 0.2291(2)
O17_3 O 0.0486(8) 0.0230(6) 0.2071(2)
O19_3 O 0.2864(11) 0.1641(8) 0.1573(3)
O21_3 O 0.6124(9) 0.3069(6) 0.0972(3)
O25_3 O 0.6944(7) 0.3876(9) 0.0972(3)
O26_3 O 0.6931(6) 0.3056(7) 0.0972(3)
O29_3 O 0.5798(9) 0.2776(7) 0.0805(2)
O31_3 O 0.3522(10) 0.1959(7) 0.1362(3)
Zn15_3 Zn 0.6667 0.3334 0.0931
O53_3 O 0.6665 0.3333 0.0692
H85_3 H 0.495674 0.245408 0.140239
H86_3 H 0.282543 0.235253 0.170112
H87_3 H 0.245262 0.254175 0.169451
H88_3 H 0.247827 0.226404 0.185814
H97_3 H 0.164423 0.129537 0.184366
H98_3 H 0.435505 0.206206 0.0963814
H100_3 H 0.219999 0.0483739 0.189253
H106_3 H 0.373237 0.0253401 0.171299
H107_3 H 0.353574 0.0568083 0.180056
H108_3 H 0.439862 0.0946257 0.163792
H109_3 H 0.433459 0.0863088 0.183785
H112_3 H 0.263416 0.0539754 0.172723
H113_3 H 0.305103 0.102119 0.180961
H115_3 H 0.391538 0.18351 0.0869437
H116_3 H 0.344797 0.186067 0.0820245
H117_3 H 0.389901 0.231574 0.0902219
H118_3 H 0.38525 0.0703929 0.147357
H119_3 H 0.33051 0.0354643 0.152381
H120_3 H 0.449458 0.160263 0.170355
H121_3 H 0.419584 0.140766 0.187507
H123_3 H 0.164481 0.173891 0.182173
H124_3 H 0.167914 0.205366 0.166043
H125_3 H 0.146514 0.148949 0.164105
H126_3 H 0.146976 0.0307073 0.201039
H127_3 H 0.327438 0.127602 0.122626
H128_3 H 0.301077 0.113372 0.104677
H129_3 H 0.353408 0.120086 0.106661
H136_3 H 0.196512 0.153858 0.144557
H137_3 H 0.217793 0.210469 0.143855
H138_3 H 0.252928 0.189341 0.146188
H139_3 H 0.510432 0.291133 0.0989631
H140_3 H 0.363358 0.119294 0.145916
H144_3 H 0.342687 0.232911 0.111641
H145_3 H 0.295275 0.184961 0.10613
H146_3 H 0.317833 0.188786 0.12447
H149_3 H 0.132376 0.106435 0.201079
H150_3 H 0.393456 0.234348 0.155525
H151_3 H 0.445018 0.24439 0.1615
H154_3 H 0.360929 0.134794 0.177528
H170_3 H 0.525549 0.220132 0.113098
H202_3 H 0.293355 0.07507 0.149623
H227_3 H 0.387403 0.190113 0.171264
Zn3_3 Zn 0.0000 1.0000 0.2164
O14_3 O 0.0000 1.0000 0.2381
C128_3 C 0.0075(10) 0.8297(16) 0.1700(4)
H131_3 H 0.00891278 0.754738 0.169451
H156_3 H 0.00940917 0.835519 0.182173
H157_3 H 0.0374517 0.832086 0.166043
H158_3 H 0.00243563 0.853486 0.164105
C1_3 C 0.9138(6) 0.1026(8) 0.18790(19)
C2_3 C 0.9235(5) 0.1442(7) 0.1843(2)
C3_3 C 0.8973(7) 0.1507(6) 0.1743(2)
C4_3 C 0.8613(6) 0.1156(7) 0.1680(2)
C5_3 C 0.8516(6) 0.0741(6) 0.1717(2)
C6_3 C 0.8779(7) 0.0675(6) 0.1816(2)
C7_3 C 0.9534(6) 0.0438(5) 0.2139(3)
C8_3 C 0.7729(5) 0.2429(5) 0.1176(3)
C9_3 C 0.7678(5) 0.2348(6) 0.1332(3)
C10_3 C 0.7796(5) 0.2070(6) 0.1397(2)
C11_3 C 0.7966(5) 0.1872(5) 0.1307(3)
C12_3 C 0.8017(5) 0.1952(6) 0.1152(2)
C13_3 C 0.7898(5) 0.2231(6) 0.1086(2)
C14_3 C 0.8143(7) 0.0311(7) 0.1665(3)
C21_3 C 0.7145(6) 0.2827(6) 0.0947(3)
C28_3 C 0.7715(9) 0.0221(12) 0.1735(4)
C29_3 C 0.8152(12) 0.0366(11) 0.1490(3)
C31_3 C 0.9112(8) 0.1940(7) 0.1715(3)
C32_3 C 0.9373(8) 0.0906(10) 0.1979(3)
C33_3 C 0.9255(9) 0.0525(9) 0.2038(3)
C34_3 C 0.8197(8) 0.1721(8) 0.1063(3)
C35_3 C 0.8034(11) 0.1745(11) 0.0902(3)
C36_3 C 0.8020(11) 0.1272(9) 0.1126(5)
C37_3 C 0.8683(8) 0.2004(11) 0.1104(4)
C38_3 C 0.7774(7) 0.1936(9) 0.1552(3)
C39_3 C 0.7616(8) 0.2710(7) 0.1109(4)
C40_3 C 0.7267(10) 0.2537(9) 0.1014(4)
C41_3 C 0.8963(7) 0.2497(6) 0.1570(3)
C42_3 C 0.9361(9) 0.2966(8) 0.1558(4)
C43_3 C 0.9437(9) 0.3182(9) 0.1712(4)
C44_3 C 0.9075(12) 0.3278(8) 0.1736(5)
C45_3 C 0.8651(10) 0.2850(10) 0.1754(5)
C46_3 C 0.8622(8) 0.2441(7) 0.1681(3)
Cl1_3 Cl 0.8348(4) 0.1570(4) 0.18116(14)
Mn1_3 Mn 0.8469(4) 0.1840(3) 0.15259(13)
N1_3 N 0.9058(7) 0.2170(7) 0.1584(3)
N2_3 N 0.8195(7) 0.2163(8) 0.1619(3)
O1_3 O 0.9559(5) 0.0530(5) 0.2291(2)
O2_3 O 0.9770(6) 0.0257(6) 0.2071(2)
O3_3 O 0.8359(8) 0.1224(7) 0.1573(3)
O5_3 O 0.7224(7) 0.3023(6) 0.0805(2)
O6_3 O 0.8041(7) 0.1564(7) 0.1362(3)
H1_3 H 0.870463 0.0348853 0.184366
H3_3 H 0.951626 0.171625 0.189253
H4_3 H 0.793794 0.229298 0.0963814
H6_3 H 0.754592 0.250265 0.140239
H9_3 H 0.929607 0.314857 0.147357
H10_3 H 0.964536 0.295046 0.152381
H21_3 H 0.92493 0.218285 0.149623
H22_3 H 0.846142 0.0426548 0.144557
H23_3 H 0.789531 0.00732341 0.143855
H24_3 H 0.810659 0.0635877 0.146188
H25_3 H 0.839737 0.289195 0.170355
H26_3 H 0.859234 0.278818 0.187507
H27_3 H 0.765652 0.159108 0.155525
H28_3 H 0.75561 0.200628 0.1615
H29_3 H 0.865206 0.226135 0.177528
H38_3 H 0.764747 0.0472901 0.170112
H40_3 H 0.773596 0.0214234 0.185814
H41_3 H 0.779868 0.305417 0.113098
H51_3 H 0.708867 0.219299 0.0989631
H53_3 H 0.872398 0.199836 0.122626
H54_3 H 0.886628 0.187705 0.104677
H55_3 H 0.879914 0.233323 0.106661
H56_3 H 0.809887 0.19729 0.171264
H58_3 H 0.969293 0.116269 0.201039
H65_3 H 0.905374 0.345237 0.163792
H66_3 H 0.913691 0.34715 0.183785
H67_3 H 0.893565 0.0259408 0.201079
H70_3 H 0.946025 0.20944 0.172723
H71_3 H 0.897881 0.202985 0.180961
H75_3 H 0.81649 0.208028 0.0869437
H76_3 H 0.813933 0.15873 0.0820245
H77_3 H 0.768426 0.158327 0.0902219
H78_3 H 0.880706 0.244065 0.145916
H79_3 H 0.97466 0.347897 0.171299
H80_3 H 0.943192 0.296765 0.180056
H81_3 H 0.767089 0.109776 0.111641
H82_3 H 0.815039 0.110314 0.10613
H83_3 H 0.811214 0.129047 0.12447
C30_3 C 0.8221(12) 0.9925(10) 0.1700(4)
C70_3 C 0.8974(8) 0.8113(10) 0.18790(19)
C72_3 C 0.8558(7) 0.7794(9) 0.1843(2)
C74_3 C 0.8493(6) 0.7467(9) 0.1743(2)
C76_3 C 0.8844(7) 0.7458(9) 0.1680(2)
C78_3 C 0.9259(6) 0.7776(8) 0.1717(2)
C80_3 C 0.9325(6) 0.8105(9) 0.1816(2)
C82_3 C 0.9562(5) 0.9097(8) 0.2139(3)
C84_3 C 0.7571(5) 0.5301(7) 0.1176(3)
C86_3 C 0.7652(6) 0.5331(8) 0.1332(3)
C88_3 C 0.7930(6) 0.5727(8) 0.1397(2)
C90_3 C 0.8128(5) 0.6095(7) 0.1307(3)
C92_3 C 0.8048(6) 0.6066(8) 0.1152(2)
C94_3 C 0.7769(6) 0.5668(8) 0.1086(2)
C96_3 C 0.9689(7) 0.7833(10) 0.1665(3)
C110_3 C 0.7173(6) 0.4319(8) 0.0947(3)
C124_3 C 0.9779(12) 0.7495(15) 0.1735(4)
C126_3 C 0.9634(11) 0.7787(16) 0.1490(3)
C130_3 C 0.8060(7) 0.7173(11) 0.1715(3)
C132_3 C 0.9094(10) 0.8468(13) 0.1979(3)
C134_3 C 0.9475(9) 0.8731(13) 0.2038(3)
C136_3 C 0.8279(8) 0.6477(11) 0.1063(3)
C138_3 C 0.8255(11) 0.6290(16) 0.0902(3)
C140_3 C 0.8728(9) 0.6749(14) 0.1126(5)
C142_3 C 0.7996(11) 0.6680(14) 0.1104(4)
C144_3 C 0.8064(9) 0.5839(11) 0.1552(3)
C146_3 C 0.7290(7) 0.4907(11) 0.1109(4)
C148_3 C 0.7463(9) 0.4731(13) 0.1014(4)
C150_3 C 0.7503(6) 0.6467(9) 0.1570(3)
C152_3 C 0.7034(8) 0.6396(12) 0.1558(4)
C154_3 C 0.6818(9) 0.6256(13) 0.1712(4)
C156_3 C 0.6722(8) 0.5798(14) 0.1736(5)
C158_3 C 0.7150(10) 0.5802(14) 0.1754(5)
C160_3 C 0.7559(7) 0.6182(11) 0.1681(3)
Cl4_3 Cl 0.8430(4) 0.6779(6) 0.18116(14)
Mn4_3 Mn 0.8160(3) 0.6630(5) 0.15259(13)
N6_3 N 0.7830(7) 0.6889(10) 0.1584(3)
N8_3 N 0.7837(8) 0.6033(11) 0.1619(3)
O16_3 O 0.9470(5) 0.9030(7) 0.2291(2)
O18_3 O 0.9743(6) 0.9514(8) 0.2071(2)
O20_3 O 0.8776(7) 0.7136(11) 0.1573(3)
O30_3 O 0.6977(6) 0.4202(9) 0.0805(2)
O32_3 O 0.8436(7) 0.6478(10) 0.1362(3)
H39_3 H 0.745825 0.991087 0.169451
H59_3 H 0.826109 0.990591 0.182173
H60_3 H 0.794634 0.962548 0.166043
H61_3 H 0.851051 0.997564 0.164105
H89_3 H 0.770702 0.564495 0.0963814
H90_3 H 0.965115 0.835577 0.184366
H99_3 H 0.749735 0.504326 0.140239
H103_3 H 0.828375 0.780001 0.189253
H104_3 H 0.79056 0.736584 0.172723
H105_3 H 0.797015 0.694897 0.180961
H110_3 H 0.685143 0.61475 0.147357
H111_3 H 0.704954 0.66949 0.152381
H114_3 H 0.883731 0.853024 0.201039
H122_3 H 0.974059 0.867624 0.201079
H130_3 H 0.95271 0.717457 0.170112
H132_3 H 0.978577 0.752173 0.185814
H133_3 H 0.800164 0.672562 0.122626
H134_3 H 0.812295 0.698923 0.104677
H135_3 H 0.766677 0.646592 0.106661
H141_3 H 0.780701 0.489568 0.0989631
H142_3 H 0.652103 0.626763 0.171299
H143_3 H 0.703235 0.646426 0.180056
H147_3 H 0.654763 0.560138 0.163792
H148_3 H 0.65285 0.566541 0.183785
H152_3 H 0.710805 0.550542 0.170355
H153_3 H 0.721182 0.580416 0.187507
H155_3 H 0.773865 0.639071 0.177528
H159_3 H 0.957345 0.803488 0.144557
H160_3 H 0.992677 0.782207 0.143855
H161_3 H 0.936412 0.747072 0.146188
H162_3 H 0.890224 0.657313 0.111641
H163_3 H 0.889686 0.704725 0.10613
H164_3 H 0.870953 0.682167 0.12447
H165_3 H 0.791972 0.608462 0.0869437
H166_3 H 0.84127 0.655203 0.0820245
H167_3 H 0.841673 0.610099 0.0902219
H168_3 H 0.840892 0.606544 0.155525
H169_3 H 0.799372 0.554982 0.1615
H171_3 H 0.694583 0.474451 0.113098
H172_3 H 0.755935 0.636642 0.145916
H181_3 H 0.80271 0.612597 0.171264
H224_3 H 0.781715 0.706645 0.149623
Zn3_4 Zn 0.0000 0.0001 0.2164
O14_4 O 0.0000 0.0001 0.2381
Zn3_5 Zn 0.9999 1.0000 0.2164
O14_5 O 0.9999 1.0000 0.2381
Zn2 Zn 1.0000 0.0000 0.7597
loop_
_geom_bond_atom_site_label_1
_geom_bond_atom_site_label_2
_geom_bond_site_symmetry_1
_geom_bond_site_symmetry_2
C83 C85 1_555 1_555
C85 C87 1_555 1_555
C87 C89 1_555 1_555
C89 C91 1_555 1_555
C91 C93 1_555 1_555
C93 C83 1_555 1_555
C109 C147 1_555 1_555
C135 C91 1_555 1_555
C137 C135 1_555 1_555
C143 C87 1_555 1_555
C145 C83 1_555 1_555
C147 C145 1_555 1_555
C149 C151 1_555 1_555
C151 C153 1_555 1_555
C153 C155 1_555 1_555
C155 C157 1_555 1_555
C157 C159 1_555 1_555
C159 C149 1_555 1_555
N7 C143 1_555 1_555
O21 C109 1_555 1_555
O25 Zn15 1_555 1_555
O26 Zn15 1_555 1_555
O29 C109 1_555 1_555
O31 C89 1_555 1_555
O45 Zn5 1_555 1_555
O49 Zn5 1_555 1_555
Zn5 O29 1_555 1_555
Zn11 O53 1_555 1_555
Zn12 O53 1_555 1_555
Zn15 O21 1_555 1_555
O53 Zn5 1_555 1_555
C159 N7 1_555 1_555
Mn3 N7 1_555 1_555
Mn3 O31 1_555 1_555
Zn15 O53 1_555 1_555
C85 H85 1_555 1_555
C93 H98 1_555 1_555
C153 H106 1_555 1_555
C153 H107 1_555 1_555
C155 H108 1_555 1_555
C155 H109 1_555 1_555
C137 H115 1_555 1_555
C137 H116 1_555 1_555
C137 H117 1_555 1_555
C151 H118 1_555 1_555
C157 H120 1_555 1_555
C157 H121 1_555 1_555
C147 H139 1_555 1_555
C149 H140 1_555 1_555
C143 H150 1_555 1_555
C143 H151 1_555 1_555
C159 H154 1_555 1_555
C145 H170 1_555 1_555
C182 H191 1_555 1_555
C182 H192 1_555 1_555
N7 H227 1_555 1_555
C1 C2 1_555 1_555
C2 C3 1_555 1_555
C3 C4 1_555 1_555
C4 C5 1_555 1_555
C5 C6 1_555 1_555
C6 C1 1_555 1_555
C7 C33 1_555 1_555
C8 C9 1_555 1_555
C9 C10 1_555 1_555
C10 C11 1_555 1_555
C11 C12 1_555 1_555
C12 C13 1_555 1_555
C13 C8 1_555 1_555
C14 C5 1_555 1_555
C15 C16 1_555 1_555
C16 C17 1_555 1_555
C17 C18 1_555 1_555
C18 C19 1_555 1_555
C19 C20 1_555 1_555
C20 C15 1_555 1_555
C21 C40 1_555 1_555
C22 C23 1_555 1_555
C23 C24 1_555 1_555
C24 C25 1_555 1_555
C25 C26 1_555 1_555
C26 C27 1_555 1_555
C27 C22 1_555 1_555
C28 C14 1_555 1_555
C29 C14 1_555 1_555
C30 C14 1_555 1_555
C31 C3 1_555 1_555
C32 C1 1_555 1_555
C33 C32 1_555 1_555
C34 C12 1_555 1_555
C35 C34 1_555 1_555
C36 C34 1_555 1_555
C37 C34 1_555 1_555
C38 C10 1_555 1_555
C39 C8 1_555 1_555
C40 C39 1_555 1_555
C41 C42 1_555 1_555
C42 C43 1_555 1_555
C43 C44 1_555 1_555
C44 C45 1_555 1_555
C45 C46 1_555 1_555
C46 C41 1_555 1_555
Cl1 Mn1 1_555 1_555
Mn1 N1 1_555 1_555
N1 C31 1_555 1_555
N2 C38 1_555 1_555
O1 C7 1_555 1_555
O2 C7 1_555 1_555
O3 C4 1_555 1_555
O26 C21 1_555 1_555
O5 C21 1_555 1_555
O6 C11 1_555 1_555
C47 C54 1_555 1_555
C48 C19 1_555 1_555
C49 C48 1_555 1_555
C50 C48 1_555 1_555
C51 C48 1_555 1_555
C52 C17 1_555 1_555
C53 C15 1_555 1_555
C54 C53 1_555 1_555
C55 C62 1_555 1_555
C56 C26 1_555 1_555
C57 C56 1_555 1_555
C58 C56 1_555 1_555
C59 C56 1_555 1_555
C60 C24 1_555 1_555
C61 C22 1_555 1_555
C62 C61 1_555 1_555
C63 C64 1_555 1_555
C64 C65 1_555 1_555
C65 C66 1_555 1_555
C66 C67 1_555 1_555
C67 C68 1_555 1_555
C68 C63 1_555 1_555
Cl2 Mn2 1_555 1_555
Mn2 N3 1_555 1_555
N3 C52 1_555 1_555
N4 C60 1_555 1_555
O8 C47 1_555 1_555
O9 C18 1_555 1_555
O45 C55 1_555 1_555
O11 C55 1_555 1_555
O12 C25 1_555 1_555
Zn12 O5 1_555 1_555
Zn3 O2 1_555 1_555
Zn4 O1 1_555 1_555
O14 Zn3 1_555 1_555
C69 C71 1_555 1_555
C70 C72 1_555 1_555
C71 C73 1_555 1_555
C72 C74 1_555 1_555
C73 C75 1_555 1_555
C74 C76 1_555 1_555
C75 C77 1_555 1_555
C76 C78 1_555 1_555
C77 C79 1_555 1_555
C78 C80 1_555 1_555
C79 C69 1_555 1_555
C80 C70 1_555 1_555
C81 C133 1_555 1_555
C82 C134 1_555 1_555
C95 C77 1_555 1_555
C96 C78 1_555 1_555
C97 C99 1_555 1_555
C98 C100 1_555 1_555
C99 C101 1_555 1_555
C100 C102 1_555 1_555
C101 C103 1_555 1_555
C102 C104 1_555 1_555
C103 C105 1_555 1_555
C104 C106 1_555 1_555
C105 C107 1_555 1_555
C106 C108 1_555 1_555
C107 C97 1_555 1_555
C108 C98 1_555 1_555
C111 C113 1_555 1_555
C112 C114 1_555 1_555
C113 C115 1_555 1_555
C114 C116 1_555 1_555
C115 C117 1_555 1_555
C116 C118 1_555 1_555
C117 C119 1_555 1_555
C118 C120 1_555 1_555
C119 C121 1_555 1_555
C120 C122 1_555 1_555
C121 C111 1_555 1_555
C122 C112 1_555 1_555
C123 C95 1_555 1_555
C124 C96 1_555 1_555
C125 C95 1_555 1_555
C126 C96 1_555 1_555
C127 C95 1_555 1_555
C128 C96 1_555 1_555
C129 C73 1_555 1_555
C130 C74 1_555 1_555
C131 C69 1_555 1_555
C132 C70 1_555 1_555
C133 C131 1_555 1_555
C134 C132 1_555 1_555
N5 C129 1_555 1_555
N6 C130 1_555 1_555
O15 C81 1_555 1_555
O16 C82 1_555 1_555
O17 Zn3 1_555 1_555
O18 Zn3 1_555 1_555
O19 C75 1_555 1_555
O20 C76 1_555 1_555
C161 C175 1_555 1_555
C162 C176 1_555 1_555
C163 C105 1_555 1_555
C164 C106 1_555 1_555
C165 C163 1_555 1_555
C166 C164 1_555 1_555
C167 C163 1_555 1_555
C168 C164 1_555 1_555
C169 C163 1_555 1_555
C170 C164 1_555 1_555
C171 C101 1_555 1_555
C172 C102 1_555 1_555
C173 C97 1_555 1_555
C174 C98 1_555 1_555
C175 C173 1_555 1_555
C176 C174 1_555 1_555
C177 C191 1_555 1_555
C178 C192 1_555 1_555
C179 C119 1_555 1_555
C180 C120 1_555 1_555
C181 C179 1_555 1_555
C183 C179 1_555 1_555
C184 C180 1_555 1_555
C185 C179 1_555 1_555
C186 C180 1_555 1_555
C187 C115 1_555 1_555
C188 C116 1_555 1_555
C189 C111 1_555 1_555
C190 C112 1_555 1_555
C191 C189 1_555 1_555
C192 C190 1_555 1_555
C193 C195 1_555 1_555
C194 C196 1_555 1_555
C195 C197 1_555 1_555
C196 C198 1_555 1_555
C197 C199 1_555 1_555
C198 C200 1_555 1_555
C199 C201 1_555 1_555
C200 C202 1_555 1_555
C201 C203 1_555 1_555
C202 C204 1_555 1_555
C203 C193 1_555 1_555
C204 C194 1_555 1_555
Cl5 Mn5 1_555 1_555
Cl6 Mn6 1_555 1_555
Mn5 N9 1_555 1_555
Mn6 N10 1_555 1_555
N9 C171 1_555 1_555
N10 C172 1_555 1_555
N11 C187 1_555 1_555
N12 C188 1_555 1_555
O33 C161 1_555 1_555
O34 Zn4 1_555 1_555
O35 Zn17 1_555 1_555
O36 Zn18 1_555 1_555
O37 C161 1_555 1_555
O38 C162 1_555 1_555
O39 Zn4 1_555 1_555
O40 Zn18 1_555 1_555
O41 C103 1_555 1_555
O42 C104 1_555 1_555
O43 Zn12 1_555 1_555
O44 C178 1_555 1_555
O47 C177 1_555 1_555
O48 C178 1_555 1_555
O51 C117 1_555 1_555
O52 C118 1_555 1_555
Zn9 O44 1_555 1_555
Zn17 O14 1_555 1_555
Zn18 O14 1_555 1_555
Zn20 O8 1_555 1_555
Zn21 O33 1_555 1_555
C41 N1 1_555 1_555
C46 N2 1_555 1_555
Mn1 N2 1_555 1_555
Mn1 O3 1_555 1_555
Mn1 O6 1_555 1_555
C63 N3 1_555 1_555
C68 N4 1_555 1_555
Mn2 N4 1_555 1_555
Mn2 O9 1_555 1_555
Mn2 O12 1_555 1_555
O11 Zn12 1_555 1_555
Zn4 O14 1_555 1_555
C81 O17 1_555 1_555
C82 O18 1_555 1_555
O15 Zn17 1_555 1_555
O16 Zn18 1_555 1_555
C162 O34 1_555 1_555
C177 O43 1_555 1_555
C193 N9 1_555 1_555
C194 N10 1_555 1_555
C203 N11 1_555 1_555
C204 N12 1_555 1_555
Mn5 N11 1_555 1_555
Mn5 O41 1_555 1_555
Mn5 O51 1_555 1_555
Mn6 N12 1_555 1_555
Mn6 O42 1_555 1_555
Mn6 O52 1_555 1_555
O38 Zn17 1_555 1_555
O47 Zn11 1_555 1_555
C6 H1 1_555 1_555
C20 H2 1_555 1_555
C2 H3 1_555 1_555
C13 H4 1_555 1_555
C16 H5 1_555 1_555
C9 H6 1_555 1_555
C60 H7 1_555 1_555
C60 H8 1_555 1_555
C42 H9 1_555 1_555
C42 H10 1_555 1_555
C51 H11 1_555 1_555
C51 H12 1_555 1_555
C51 H13 1_555 1_555
C49 H14 1_555 1_555
C49 H15 1_555 1_555
C49 H16 1_555 1_555
C27 H17 1_555 1_555
C66 H18 1_555 1_555
C66 H19 1_555 1_555
N3 H20 1_555 1_555
N1 H21 1_555 1_555
C29 H22 1_555 1_555
C29 H23 1_555 1_555
C29 H24 1_555 1_555
C45 H25 1_555 1_555
C45 H26 1_555 1_555
C38 H27 1_555 1_555
C38 H28 1_555 1_555
C46 H29 1_555 1_555
C50 H30 1_555 1_555
C50 H31 1_555 1_555
C50 H32 1_555 1_555
C58 H33 1_555 1_555
C58 H34 1_555 1_555
C58 H35 1_555 1_555
C61 H36 1_555 1_555
N4 H37 1_555 1_555
C28 H38 1_555 1_555
C28 H39 1_555 1_555
C28 H40 1_555 1_555
C39 H41 1_555 1_555
C52 H42 1_555 1_555
C52 H43 1_555 1_555
C53 H44 1_555 1_555
C57 H45 1_555 1_555
C57 H46 1_555 1_555
C57 H47 1_555 1_555
C59 H48 1_555 1_555
C59 H49 1_555 1_555
C59 H50 1_555 1_555
C40 H51 1_555 1_555
C62 H52 1_555 1_555
C37 H53 1_555 1_555
C37 H54 1_555 1_555
C37 H55 1_555 1_555
N2 H56 1_555 1_555
C63 H57 1_555 1_555
C32 H58 1_555 1_555
C30 H59 1_555 1_555
C30 H60 1_555 1_555
C30 H61 1_555 1_555
C67 H62 1_555 1_555
C67 H63 1_555 1_555
C68 H64 1_555 1_555
C44 H65 1_555 1_555
C44 H66 1_555 1_555
C33 H67 1_555 1_555
C64 H68 1_555 1_555
C64 H69 1_555 1_555
C31 H70 1_555 1_555
C31 H71 1_555 1_555
C65 H72 1_555 1_555
C65 H73 1_555 1_555
C23 H74 1_555 1_555
C35 H75 1_555 1_555
C35 H76 1_555 1_555
C35 H77 1_555 1_555
C41 H78 1_555 1_555
C43 H79 1_555 1_555
C43 H80 1_555 1_555
C36 H81 1_555 1_555
C36 H82 1_555 1_555
C36 H83 1_555 1_555
C54 H84 1_555 1_555
C123 H86 1_555 1_555
C123 H87 1_555 1_555
C123 H88 1_555 1_555
C80 H90 1_555 1_555
C107 H91 1_555 1_555
C100 H92 1_555 1_555
C113 H93 1_555 1_555
C99 H94 1_555 1_555
C114 H95 1_555 1_555
C108 H96 1_555 1_555
C79 H97 1_555 1_555
C71 H100 1_555 1_555
C121 H101 1_555 1_555
C122 H102 1_555 1_555
C72 H103 1_555 1_555
C130 H104 1_555 1_555
C130 H105 1_555 1_555
C129 H112 1_555 1_555
C129 H113 1_555 1_555
C132 H114 1_555 1_555
C134 H122 1_555 1_555
C127 H123 1_555 1_555
C127 H124 1_555 1_555
C127 H125 1_555 1_555
C131 H126 1_555 1_555
C141 H127 1_555 1_555
C141 H128 1_555 1_555
C124 H130 1_555 1_555
C124 H131 1_555 1_555
C124 H132 1_555 1_555
C142 H133 1_555 1_555
C142 H134 1_555 1_555
C125 H136 1_555 1_555
C125 H137 1_555 1_555
C125 H138 1_555 1_555
C139 H145 1_555 1_555
C139 H146 1_555 1_555
C133 H149 1_555 1_555
C128 H156 1_555 1_555
C128 H157 1_555 1_555
C128 H158 1_555 1_555
C126 H159 1_555 1_555
C126 H160 1_555 1_555
C126 H161 1_555 1_555
C140 H163 1_555 1_555
C140 H164 1_555 1_555
C184 H173 1_555 1_555
C184 H174 1_555 1_555
C184 H175 1_555 1_555
C193 H176 1_555 1_555
C195 H177 1_555 1_555
C195 H178 1_555 1_555
C198 H179 1_555 1_555
C198 H180 1_555 1_555
C169 H182 1_555 1_555
C169 H183 1_555 1_555
C169 H184 1_555 1_555
C173 H185 1_555 1_555
C197 H186 1_555 1_555
C197 H187 1_555 1_555
C199 H188 1_555 1_555
C199 H189 1_555 1_555
C186 H193 1_555 1_555
C186 H194 1_555 1_555
C186 H195 1_555 1_555
C181 H196 1_555 1_555
C181 H197 1_555 1_555
C181 H198 1_555 1_555
C166 H199 1_555 1_555
C166 H200 1_555 1_555
C166 H201 1_555 1_555
N5 H202 1_555 1_555
C171 H203 1_555 1_555
C171 H204 1_555 1_555
C174 H205 1_555 1_555
C175 H206 1_555 1_555
C185 H207 1_555 1_555
C185 H208 1_555 1_555
C185 H209 1_555 1_555
C168 H210 1_555 1_555
C168 H211 1_555 1_555
C168 H212 1_555 1_555
C176 H213 1_555 1_555
C183 H214 1_555 1_555
C183 H215 1_555 1_555
C183 H216 1_555 1_555
C190 H217 1_555 1_555
C192 H218 1_555 1_555
C172 H219 1_555 1_555
C172 H220 1_555 1_555
C194 H221 1_555 1_555
C196 H222 1_555 1_555
C196 H223 1_555 1_555
N6 H224 1_555 1_555
C187 H225 1_555 1_555
C187 H226 1_555 1_555
C188 H228 1_555 1_555
C188 H229 1_555 1_555
C191 H230 1_555 1_555
C189 H231 1_555 1_555
C167 H232 1_555 1_555
C167 H233 1_555 1_555
C167 H234 1_555 1_555
C165 H235 1_555 1_555
C165 H236 1_555 1_555
C165 H237 1_555 1_555
C170 H238 1_555 1_555
C170 H239 1_555 1_555
C170 H240 1_555 1_555
N12 H241 1_555 1_555
N10 H242 1_555 1_555
C202 H243 1_555 1_555
C202 H244 1_555 1_555
C203 H245 1_555 1_555
N9 H246 1_555 1_555
C200 H247 1_555 1_555
C200 H248 1_555 1_555
C204 H249 1_555 1_555
N11 H250 1_555 1_555
C201 H251 1_555 1_555
C201 H252 1_555 1_555
C84 C86 1_555 1_555
C86 C88 1_555 1_555
C88 C90 1_555 1_555
C90 C92 1_555 1_555
C92 C94 1_555 1_555
C94 C84 1_555 1_555
C110 C148 1_555 1_555
C136 C92 1_555 1_555
C138 C136 1_555 1_555
C144 C88 1_555 1_555
C146 C84 1_555 1_555
C148 C146 1_555 1_555
C150 C152 1_555 1_555
C152 C154 1_555 1_555
C154 C156 1_555 1_555
C156 C158 1_555 1_555
C158 C160 1_555 1_555
C160 C150 1_555 1_555
N8 C144 1_555 1_555
O25 C110 1_555 1_555
O30 C110 1_555 1_555
O32 C90 1_555 1_555
O46 Zn11 1_555 1_555
Zn11 O30 1_555 1_555
C160 N8 1_555 1_555
Mn4 N8 1_555 1_555
Mn4 O32 1_555 1_555
C94 H89 1_555 1_555
C86 H99 1_555 1_555
C152 H110 1_555 1_555
C148 H141 1_555 1_555
C154 H142 1_555 1_555
C154 H143 1_555 1_555
C156 H147 1_555 1_555
C156 H148 1_555 1_555
C158 H152 1_555 1_555
C158 H153 1_555 1_555
C160 H155 1_555 1_555
C138 H165 1_555 1_555
C138 H166 1_555 1_555
C138 H167 1_555 1_555
C144 H168 1_555 1_555
C144 H169 1_555 1_555
C146 H171 1_555 1_555
C150 H172 1_555 1_555
N8 H181 1_555 1_555
Zn22 O7 1_555 1_555
C98_2 C100_2 1_555 1_555
C100_2 C102_2 1_555 1_555
C102_2 C104_2 1_555 1_555
C104_2 C106_2 1_555 1_555
C106_2 C108_2 1_555 1_555
C108_2 C98_2 1_555 1_555
C112_2 C114_2 1_555 1_555
C114_2 C116_2 1_555 1_555
C116_2 C118_2 1_555 1_555
C118_2 C120_2 1_555 1_555
C120_2 C122_2 1_555 1_555
C122_2 C112_2 1_555 1_555
C162_2 C176_2 1_555 1_555
C164_2 C106_2 1_555 1_555
C166_2 C164_2 1_555 1_555
C168_2 C164_2 1_555 1_555
C170_2 C164_2 1_555 1_555
C172_2 C102_2 1_555 1_555
C174_2 C98_2 1_555 1_555
C176_2 C174_2 1_555 1_555
C178_2 C192_2 1_555 1_555
C180_2 C120_2 1_555 1_555
C182_2 C180_2 1_555 1_555
C184_2 C180_2 1_555 1_555
C186_2 C180_2 1_555 1_555
C188_2 C116_2 1_555 1_555
C190_2 C112_2 1_555 1_555
C192_2 C190_2 1_555 1_555
C194_2 C196_2 1_555 1_555
C196_2 C198_2 1_555 1_555
C198_2 C200_2 1_555 1_555
C200_2 C202_2 1_555 1_555
C202_2 C204_2 1_555 1_555
C204_2 C194_2 1_555 1_555
Cl6_2 Mn6_2 1_555 1_555
Mn6_2 N10_2 1_555 1_555
N10_2 C172_2 1_555 1_555
N12_2 C188_2 1_555 1_555
O39 C162_2 1_555 1_555
O42_2 C104_2 1_555 1_555
O44_2 C178_2 1_555 1_555
O48_2 C178_2 1_555 1_555
O52_2 C118_2 1_555 1_555
Zn10_2 O48_2 1_555 1_555
Zn20 O33_2 1_555 1_555
C162_2 O36 1_555 1_555
C194_2 N10_2 1_555 1_555
C204_2 N12_2 1_555 1_555
Mn6_2 N12_2 1_555 1_555
Mn6_2 O42_2 1_555 1_555
Mn6_2 O52_2 1_555 1_555
C100_2 H92_2 1_555 1_555
C114_2 H95_2 1_555 1_555
C108_2 H96_2 1_555 1_555
C122_2 H102_2 1_555 1_555
C184_2 H173_2 1_555 1_555
C184_2 H174_2 1_555 1_555
C184_2 H175_2 1_555 1_555
C198_2 H179_2 1_555 1_555
C198_2 H180_2 1_555 1_555
C182_2 H190_2 1_555 1_555
C182_2 H191_2 1_555 1_555
C182_2 H192_2 1_555 1_555
C186_2 H193_2 1_555 1_555
C186_2 H194_2 1_555 1_555
C186_2 H195_2 1_555 1_555
C166_2 H199_2 1_555 1_555
C166_2 H200_2 1_555 1_555
C166_2 H201_2 1_555 1_555
C174_2 H205_2 1_555 1_555
C168_2 H210_2 1_555 1_555
C168_2 H211_2 1_555 1_555
C168_2 H212_2 1_555 1_555
C176_2 H213_2 1_555 1_555
C190_2 H217_2 1_555 1_555
C192_2 H218_2 1_555 1_555
C172_2 H219_2 1_555 1_555
C172_2 H220_2 1_555 1_555
C194_2 H221_2 1_555 1_555
C196_2 H222_2 1_555 1_555
C196_2 H223_2 1_555 1_555
C188_2 H228_2 1_555 1_555
C188_2 H229_2 1_555 1_555
C170_2 H238_2 1_555 1_555
C170_2 H239_2 1_555 1_555
C170_2 H240_2 1_555 1_555
N12_2 H241_2 1_555 1_555
N10_2 H242_2 1_555 1_555
C202_2 H243_2 1_555 1_555
C202_2 H244_2 1_555 1_555
C200_2 H247_2 1_555 1_555
C200_2 H248_2 1_555 1_555
C204_2 H249_2 1_555 1_555
C97_2 C99_2 1_555 1_555
C99_2 C101_2 1_555 1_555
C101_2 C103_2 1_555 1_555
C103_2 C105_2 1_555 1_555
C105_2 C107_2 1_555 1_555
C107_2 C97_2 1_555 1_555
C111_2 C113_2 1_555 1_555
C113_2 C115_2 1_555 1_555
C115_2 C117_2 1_555 1_555
C117_2 C119_2 1_555 1_555
C119_2 C121_2 1_555 1_555
C121_2 C111_2 1_555 1_555
C161_2 C175_2 1_555 1_555
C163_2 C105_2 1_555 1_555
C165_2 C163_2 1_555 1_555
C167_2 C163_2 1_555 1_555
C169_2 C163_2 1_555 1_555
C171_2 C101_2 1_555 1_555
C173_2 C97_2 1_555 1_555
C175_2 C173_2 1_555 1_555
C177_2 C191_2 1_555 1_555
C179_2 C119_2 1_555 1_555
C181_2 C179_2 1_555 1_555
C183_2 C179_2 1_555 1_555
C185_2 C179_2 1_555 1_555
C187_2 C115_2 1_555 1_555
C189_2 C111_2 1_555 1_555
C191_2 C189_2 1_555 1_555
C193_2 C195_2 1_555 1_555
C195_2 C197_2 1_555 1_555
C197_2 C199_2 1_555 1_555
C199_2 C201_2 1_555 1_555
C201_2 C203_2 1_555 1_555
C203_2 C193_2 1_555 1_555
Cl5_2 Mn5_2 1_555 1_555
Mn5_2 N9_2 1_555 1_555
N9_2 C171_2 1_555 1_555
N11_2 C187_2 1_555 1_555
O37_2 C161_2 1_555 1_555
O41_2 C103_2 1_555 1_555
O49 C177_2 1_555 1_555
O51_2 C117_2 1_555 1_555
C177_2 O46 1_555 1_555
C193_2 N9_2 1_555 1_555
C203_2 N11_2 1_555 1_555
Mn5_2 N11_2 1_555 1_555
Mn5_2 O41_2 1_555 1_555
Mn5_2 O51_2 1_555 1_555
C107_2 H91_2 1_555 1_555
C113_2 H93_2 1_555 1_555
C99_2 H94_2 1_555 1_555
C121_2 H101_2 1_555 1_555
C193_2 H176_2 1_555 1_555
C195_2 H177_2 1_555 1_555
C195_2 H178_2 1_555 1_555
C169_2 H182_2 1_555 1_555
C169_2 H183_2 1_555 1_555
C169_2 H184_2 1_555 1_555
C173_2 H185_2 1_555 1_555
C197_2 H186_2 1_555 1_555
C197_2 H187_2 1_555 1_555
C199_2 H188_2 1_555 1_555
C199_2 H189_2 1_555 1_555
C181_2 H196_2 1_555 1_555
C181_2 H197_2 1_555 1_555
C181_2 H198_2 1_555 1_555
C171_2 H203_2 1_555 1_555
C171_2 H204_2 1_555 1_555
C175_2 H206_2 1_555 1_555
C185_2 H207_2 1_555 1_555
C185_2 H208_2 1_555 1_555
C185_2 H209_2 1_555 1_555
C183_2 H214_2 1_555 1_555
C183_2 H215_2 1_555 1_555
C183_2 H216_2 1_555 1_555
C187_2 H225_2 1_555 1_555
C187_2 H226_2 1_555 1_555
C191_2 H230_2 1_555 1_555
C189_2 H231_2 1_555 1_555
C167_2 H232_2 1_555 1_555
C167_2 H233_2 1_555 1_555
C167_2 H234_2 1_555 1_555
C165_2 H235_2 1_555 1_555
C165_2 H236_2 1_555 1_555
C165_2 H237_2 1_555 1_555
C203_2 H245_2 1_555 1_555
N9_2 H246_2 1_555 1_555
N11_2 H250_2 1_555 1_555
C201_2 H251_2 1_555 1_555
C201_2 H252_2 1_555 1_555
C98_3 C100_3 1_555 1_555
C100_3 C102_3 1_555 1_555
C102_3 C104_3 1_555 1_555
C104_3 C106_3 1_555 1_555
C106_3 C108_3 1_555 1_555
C108_3 C98_3 1_555 1_555
C112_3 C114_3 1_555 1_555
C114_3 C116_3 1_555 1_555
C116_3 C118_3 1_555 1_555
C118_3 C120_3 1_555 1_555
C120_3 C122_3 1_555 1_555
C122_3 C112_3 1_555 1_555
C162_3 C176_3 1_555 1_555
C164_3 C106_3 1_555 1_555
C166_3 C164_3 1_555 1_555
C168_3 C164_3 1_555 1_555
C170_3 C164_3 1_555 1_555
C172_3 C102_3 1_555 1_555
C174_3 C98_3 1_555 1_555
C176_3 C174_3 1_555 1_555
C178_3 C192_3 1_555 1_555
C180_3 C120_3 1_555 1_555
C184_3 C180_3 1_555 1_555
C186_3 C180_3 1_555 1_555
C188_3 C116_3 1_555 1_555
C190_3 C112_3 1_555 1_555
C192_3 C190_3 1_555 1_555
C194_3 C196_3 1_555 1_555
C196_3 C198_3 1_555 1_555
C198_3 C200_3 1_555 1_555
C200_3 C202_3 1_555 1_555
C202_3 C204_3 1_555 1_555
C204_3 C194_3 1_555 1_555
Cl6_3 Mn6_3 1_555 1_555
Mn6_3 N10_3 1_555 1_555
N10_3 C172_3 1_555 1_555
N12_3 C188_3 1_555 1_555
O40 C162_3 1_555 1_555
O42_3 C104_3 1_555 1_555
O44_3 C178_3 1_555 1_555
O48_3 C178_3 1_555 1_555
O52_3 C118_3 1_555 1_555
C162_3 O35 1_555 1_555
C194_3 N10_3 1_555 1_555
C204_3 N12_3 1_555 1_555
Mn6_3 N12_3 1_555 1_555
Mn6_3 O42_3 1_555 1_555
Mn6_3 O52_3 1_555 1_555
C100_3 H92_3 1_555 1_555
C114_3 H95_3 1_555 1_555
C108_3 H96_3 1_555 1_555
C122_3 H102_3 1_555 1_555
C184_3 H173_3 1_555 1_555
C184_3 H174_3 1_555 1_555
C184_3 H175_3 1_555 1_555
C198_3 H179_3 1_555 1_555
C198_3 H180_3 1_555 1_555
C186_3 H193_3 1_555 1_555
C186_3 H194_3 1_555 1_555
C186_3 H195_3 1_555 1_555
C166_3 H199_3 1_555 1_555
C166_3 H200_3 1_555 1_555
C166_3 H201_3 1_555 1_555
C174_3 H205_3 1_555 1_555
C168_3 H210_3 1_555 1_555
C168_3 H211_3 1_555 1_555
C168_3 H212_3 1_555 1_555
C176_3 H213_3 1_555 1_555
C190_3 H217_3 1_555 1_555
C192_3 H218_3 1_555 1_555
C172_3 H219_3 1_555 1_555
C172_3 H220_3 1_555 1_555
C194_3 H221_3 1_555 1_555
C196_3 H222_3 1_555 1_555
C196_3 H223_3 1_555 1_555
C188_3 H228_3 1_555 1_555
C188_3 H229_3 1_555 1_555
C170_3 H238_3 1_555 1_555
C170_3 H239_3 1_555 1_555
C170_3 H240_3 1_555 1_555
N12_3 H241_3 1_555 1_555
N10_3 H242_3 1_555 1_555
C202_3 H243_3 1_555 1_555
C202_3 H244_3 1_555 1_555
C200_3 H247_3 1_555 1_555
C200_3 H248_3 1_555 1_555
C204_3 H249_3 1_555 1_555
C182_3 H191_3 1_555 1_555
C182_3 H192_3 1_555 1_555
O25_2 Zn15_2 1_555 1_555
C112_4 C114_4 1_555 1_555
C114_4 C116_4 1_555 1_555
C116_4 C118_4 1_555 1_555
C118_4 C120_4 1_555 1_555
C120_4 C122_4 1_555 1_555
C122_4 C112_4 1_555 1_555
C178_4 C192_4 1_555 1_555
C180_4 C120_4 1_555 1_555
C182_4 C180_4 1_555 1_555
C184_4 C180_4 1_555 1_555
C190_4 C112_4 1_555 1_555
C192_4 C190_4 1_555 1_555
O44_4 C178_4 1_555 1_555
O48_4 C178_4 1_555 1_555
Zn9_2 O44_4 1_555 1_555
Zn10_3 O48_4 1_555 1_555
C114_4 H95_4 1_555 1_555
C122_4 H102_4 1_555 1_555
C184_4 H173_4 1_555 1_555
C184_4 H174_4 1_555 1_555
C184_4 H175_4 1_555 1_555
C182_4 H190_4 1_555 1_555
C182_4 H191_4 1_555 1_555
C182_4 H192_4 1_555 1_555
C190_4 H217_4 1_555 1_555
C192_4 H218_4 1_555 1_555
Mn6_4 O52_4 1_555 1_555
C186_4 H193_4 1_555 1_555
C186_4 H194_4 1_555 1_555
C186_4 H195_4 1_555 1_555
C166_4 H200_4 1_555 1_555
C166_4 H201_4 1_555 1_555
C188_4 H228_4 1_555 1_555
C188_4 H229_4 1_555 1_555
C194_4 C196_4 1_555 1_555
C196_4 C198_4 1_555 1_555
C198_4 C200_4 1_555 1_555
C200_4 C202_4 1_555 1_555
C202_4 C204_4 1_555 1_555
C204_4 C194_4 1_555 1_555
C198_4 H179_4 1_555 1_555
C198_4 H180_4 1_555 1_555
C194_4 H221_4 1_555 1_555
C196_4 H222_4 1_555 1_555
C196_4 H223_4 1_555 1_555
C202_4 H243_4 1_555 1_555
C202_4 H244_4 1_555 1_555
C200_4 H247_4 1_555 1_555
C200_4 H248_4 1_555 1_555
C1_2 C2_2 1_555 1_555
C2_2 C3_2 1_555 1_555
C3_2 C4_2 1_555 1_555
C4_2 C5_2 1_555 1_555
C5_2 C6_2 1_555 1_555
C6_2 C1_2 1_555 1_555
C7_2 C33_2 1_555 1_555
C8_2 C9_2 1_555 1_555
C9_2 C10_2 1_555 1_555
C10_2 C11_2 1_555 1_555
C11_2 C12_2 1_555 1_555
C12_2 C13_2 1_555 1_555
C13_2 C8_2 1_555 1_555
C14_2 C5_2 1_555 1_555
C21_2 C40_2 1_555 1_555
C28_2 C14_2 1_555 1_555
C29_2 C14_2 1_555 1_555
C30_2 C14_2 1_555 1_555
C31_2 C3_2 1_555 1_555
C32_2 C1_2 1_555 1_555
C33_2 C32_2 1_555 1_555
C34_2 C12_2 1_555 1_555
C35_2 C34_2 1_555 1_555
C36_2 C34_2 1_555 1_555
C37_2 C34_2 1_555 1_555
C38_2 C10_2 1_555 1_555
C39_2 C8_2 1_555 1_555
C40_2 C39_2 1_555 1_555
C41_2 C42_2 1_555 1_555
C42_2 C43_2 1_555 1_555
C43_2 C44_2 1_555 1_555
C44_2 C45_2 1_555 1_555
C45_2 C46_2 1_555 1_555
C46_2 C41_2 1_555 1_555
Cl1_2 Mn1_2 1_555 1_555
Mn1_2 N1_2 1_555 1_555
N1_2 C31_2 1_555 1_555
N2_2 C38_2 1_555 1_555
O1_2 C7_2 1_555 1_555
O2_2 C7_2 1_555 1_555
O3_2 C4_2 1_555 1_555
O26_2 C21_2 1_555 1_555
O5_2 C21_2 1_555 1_555
O6_2 C11_2 1_555 1_555
Zn10 O5_2 1_555 1_555
O13 Zn10 1_555 1_555
Zn3_2 O2_2 1_555 1_555
Zn4_2 O1_2 1_555 1_555
O14_2 Zn3_2 1_555 1_555
C69_2 C71_2 1_555 1_555
C70_2 C72_2 1_555 1_555
C71_2 C73_2 1_555 1_555
C72_2 C74_2 1_555 1_555
C73_2 C75_2 1_555 1_555
C74_2 C76_2 1_555 1_555
C75_2 C77_2 1_555 1_555
C76_2 C78_2 1_555 1_555
C77_2 C79_2 1_555 1_555
C78_2 C80_2 1_555 1_555
C79_2 C69_2 1_555 1_555
C80_2 C70_2 1_555 1_555
C81_2 C133_2 1_555 1_555
C82_2 C134_2 1_555 1_555
C83_2 C85_2 1_555 1_555
C84_2 C86_2 1_555 1_555
C85_2 C87_2 1_555 1_555
C86_2 C88_2 1_555 1_555
C87_2 C89_2 1_555 1_555
C88_2 C90_2 1_555 1_555
C89_2 C91_2 1_555 1_555
C90_2 C92_2 1_555 1_555
C91_2 C93_2 1_555 1_555
C92_2 C94_2 1_555 1_555
C93_2 C83_2 1_555 1_555
C94_2 C84_2 1_555 1_555
C95_2 C77_2 1_555 1_555
C96_2 C78_2 1_555 1_555
C98_4 C100_4 1_555 1_555
C100_4 C102_4 1_555 1_555
C102_4 C104_4 1_555 1_555
C104_4 C106_4 1_555 1_555
C106_4 C108_4 1_555 1_555
C108_4 C98_4 1_555 1_555
C109_2 C147_2 1_555 1_555
C110_2 C148_2 1_555 1_555
C123_2 C95_2 1_555 1_555
C124_2 C96_2 1_555 1_555
C125_2 C95_2 1_555 1_555
C126_2 C96_2 1_555 1_555
C127_2 C95_2 1_555 1_555
C128_2 C96_2 1_555 1_555
C129_2 C73_2 1_555 1_555
C130_2 C74_2 1_555 1_555
C131_2 C69_2 1_555 1_555
C132_2 C70_2 1_555 1_555
C133_2 C131_2 1_555 1_555
C134_2 C132_2 1_555 1_555
C135_2 C91_2 1_555 1_555
C136_2 C92_2 1_555 1_555
C137_2 C135_2 1_555 1_555
C138_2 C136_2 1_555 1_555
C139_2 C135_2 1_555 1_555
C140_2 C136_2 1_555 1_555
C141_2 C135_2 1_555 1_555
C142_2 C136_2 1_555 1_555
C143_2 C87_2 1_555 1_555
C144_2 C88_2 1_555 1_555
C145_2 C83_2 1_555 1_555
C146_2 C84_2 1_555 1_555
C147_2 C145_2 1_555 1_555
C148_2 C146_2 1_555 1_555
C149_2 C151_2 1_555 1_555
C150_2 C152_2 1_555 1_555
C151_2 C153_2 1_555 1_555
C152_2 C154_2 1_555 1_555
C153_2 C155_2 1_555 1_555
C154_2 C156_2 1_555 1_555
C155_2 C157_2 1_555 1_555
C156_2 C158_2 1_555 1_555
C157_2 C159_2 1_555 1_555
C158_2 C160_2 1_555 1_555
C159_2 C149_2 1_555 1_555
C160_2 C150_2 1_555 1_555
Cl3_2 Mn3_2 1_555 1_555
Cl4_2 Mn4_2 1_555 1_555
Mn3_2 N5_2 1_555 1_555
Mn4_2 N6_2 1_555 1_555
N5_2 C129_2 1_555 1_555
N6_2 C130_2 1_555 1_555
N7_2 C143_2 1_555 1_555
N8_2 C144_2 1_555 1_555
O15_2 C81_2 1_555 1_555
O16_2 C82_2 1_555 1_555
O17_2 Zn3_2 1_555 1_555
O18_2 Zn3_2 1_555 1_555
O19_2 C75_2 1_555 1_555
O20_2 C76_2 1_555 1_555
O21_2 C109_2 1_555 1_555
O25_2 C110_2 1_555 1_555
O29_2 C109_2 1_555 1_555
O30_2 C110_2 1_555 1_555
O31_2 C89_2 1_555 1_555
O32_2 C90_2 1_555 1_555
C162_4 C176_4 1_555 1_555
C164_4 C106_4 1_555 1_555
C168_4 C164_4 1_555 1_555
C170_4 C164_4 1_555 1_555
C172_4 C102_4 1_555 1_555
C174_4 C98_4 1_555 1_555
C176_4 C174_4 1_555 1_555
N10_4 C172_4 1_555 1_555
O34_2 Zn4_2 1_555 1_555
O35_2 Zn17_2 1_555 1_555
O36_2 Zn18_2 1_555 1_555
O38_2 C162_4 1_555 1_555
O39_2 Zn4_2 1_555 1_555
O40_2 Zn18_2 1_555 1_555
O42_4 C104_4 1_555 1_555
Zn9 O29_2 1_555 1_555
Zn10_2 O30_2 1_555 1_555
O53_2 Zn9 1_555 1_555
O54 Zn10_2 1_555 1_555
Zn17_2 O14_2 1_555 1_555
Zn18_2 O14_2 1_555 1_555
C41_2 N1_2 1_555 1_555
C46_2 N2_2 1_555 1_555
Mn1_2 N2_2 1_555 1_555
Mn1_2 O3_2 1_555 1_555
Mn1_2 O6_2 1_555 1_555
Zn4_2 O14_2 1_555 1_555
C81_2 O17_2 1_555 1_555
C82_2 O18_2 1_555 1_555
C149_2 N5_2 1_555 1_555
C150_2 N6_2 1_555 1_555
C159_2 N7_2 1_555 1_555
C160_2 N8_2 1_555 1_555
Mn3_2 N7_2 1_555 1_555
Mn3_2 O19_2 1_555 1_555
Mn3_2 O31_2 1_555 1_555
Mn4_2 N8_2 1_555 1_555
Mn4_2 O20_2 1_555 1_555
Mn4_2 O32_2 1_555 1_555
O15_2 Zn17_2 1_555 1_555
O16_2 Zn18_2 1_555 1_555
C162_4 O34_2 1_555 1_555
O38_2 Zn17_2 1_555 1_555
C6_2 H1_2 1_555 1_555
C2_2 H3_2 1_555 1_555
C13_2 H4_2 1_555 1_555
C9_2 H6_2 1_555 1_555
C42_2 H9_2 1_555 1_555
C42_2 H10_2 1_555 1_555
N1_2 H21_2 1_555 1_555
C29_2 H22_2 1_555 1_555
C29_2 H23_2 1_555 1_555
C29_2 H24_2 1_555 1_555
C45_2 H25_2 1_555 1_555
C45_2 H26_2 1_555 1_555
C38_2 H27_2 1_555 1_555
C38_2 H28_2 1_555 1_555
C46_2 H29_2 1_555 1_555
C28_2 H38_2 1_555 1_555
C28_2 H39_2 1_555 1_555
C28_2 H40_2 1_555 1_555
C39_2 H41_2 1_555 1_555
C40_2 H51_2 1_555 1_555
C37_2 H53_2 1_555 1_555
C37_2 H54_2 1_555 1_555
C37_2 H55_2 1_555 1_555
N2_2 H56_2 1_555 1_555
C32_2 H58_2 1_555 1_555
C30_2 H59_2 1_555 1_555
C30_2 H60_2 1_555 1_555
C30_2 H61_2 1_555 1_555
C33_2 H67_2 1_555 1_555
C31_2 H70_2 1_555 1_555
C31_2 H71_2 1_555 1_555
C35_2 H75_2 1_555 1_555
C35_2 H76_2 1_555 1_555
C35_2 H77_2 1_555 1_555
C41_2 H78_2 1_555 1_555
C43_2 H80_2 1_555 1_555
C36_2 H81_2 1_555 1_555
C36_2 H82_2 1_555 1_555
C36_2 H83_2 1_555 1_555
C85_2 H85_2 1_555 1_555
C123_2 H86_2 1_555 1_555
C123_2 H87_2 1_555 1_555
C123_2 H88_2 1_555 1_555
C94_2 H89_2 1_555 1_555
C80_2 H90_2 1_555 1_555
C100_4 H92_4 1_555 1_555
C108_4 H96_4 1_555 1_555
C79_2 H97_2 1_555 1_555
C93_2 H98_2 1_555 1_555
C86_2 H99_2 1_555 1_555
C71_2 H100_2 1_555 1_555
C72_2 H103_2 1_555 1_555
C130_2 H104_2 1_555 1_555
C130_2 H105_2 1_555 1_555
C153_2 H106_2 1_555 1_555
C153_2 H107_2 1_555 1_555
C155_2 H108_2 1_555 1_555
C155_2 H109_2 1_555 1_555
C152_2 H110_2 1_555 1_555
C152_2 H111_2 1_555 1_555
C129_2 H112_2 1_555 1_555
C129_2 H113_2 1_555 1_555
C132_2 H114_2 1_555 1_555
C137_2 H115_2 1_555 1_555
C137_2 H116_2 1_555 1_555
C137_2 H117_2 1_555 1_555
C151_2 H118_2 1_555 1_555
C151_2 H119_2 1_555 1_555
C157_2 H120_2 1_555 1_555
C157_2 H121_2 1_555 1_555
C134_2 H122_2 1_555 1_555
C127_2 H123_2 1_555 1_555
C127_2 H124_2 1_555 1_555
C127_2 H125_2 1_555 1_555
C131_2 H126_2 1_555 1_555
C141_2 H127_2 1_555 1_555
C141_2 H128_2 1_555 1_555
C141_2 H129_2 1_555 1_555
C124_2 H130_2 1_555 1_555
C124_2 H131_2 1_555 1_555
C124_2 H132_2 1_555 1_555
C142_2 H133_2 1_555 1_555
C142_2 H134_2 1_555 1_555
C142_2 H135_2 1_555 1_555
C125_2 H136_2 1_555 1_555
C125_2 H137_2 1_555 1_555
C125_2 H138_2 1_555 1_555
C147_2 H139_2 1_555 1_555
C149_2 H140_2 1_555 1_555
C148_2 H141_2 1_555 1_555
C154_2 H143_2 1_555 1_555
C139_2 H144_2 1_555 1_555
C139_2 H145_2 1_555 1_555
C139_2 H146_2 1_555 1_555
C133_2 H149_2 1_555 1_555
C143_2 H150_2 1_555 1_555
C143_2 H151_2 1_555 1_555
C158_2 H152_2 1_555 1_555
C158_2 H153_2 1_555 1_555
C159_2 H154_2 1_555 1_555
C160_2 H155_2 1_555 1_555
C128_2 H156_2 1_555 1_555
C128_2 H157_2 1_555 1_555
C128_2 H158_2 1_555 1_555
C126_2 H159_2 1_555 1_555
C126_2 H160_2 1_555 1_555
C126_2 H161_2 1_555 1_555
C140_2 H162_2 1_555 1_555
C140_2 H163_2 1_555 1_555
C140_2 H164_2 1_555 1_555
C138_2 H165_2 1_555 1_555
C138_2 H166_2 1_555 1_555
C138_2 H167_2 1_555 1_555
C144_2 H168_2 1_555 1_555
C144_2 H169_2 1_555 1_555
C145_2 H170_2 1_555 1_555
C146_2 H171_2 1_555 1_555
C150_2 H172_2 1_555 1_555
N8_2 H181_2 1_555 1_555
N5_2 H202_2 1_555 1_555
C174_4 H205_4 1_555 1_555
C168_4 H212_4 1_555 1_555
C176_4 H213_4 1_555 1_555
C172_4 H219_4 1_555 1_555
C172_4 H220_4 1_555 1_555
N6_2 H224_2 1_555 1_555
N7_2 H227_2 1_555 1_555
C170_4 H238_4 1_555 1_555
C170_4 H239_4 1_555 1_555
C170_4 H240_4 1_555 1_555
N10_4 H242_4 1_555 1_555
O21_2 Zn16 1_555 1_555
C194_5 C196_5 1_555 1_555
C196_5 C198_5 1_555 1_555
C198_5 C200_5 1_555 1_555
C200_5 C202_5 1_555 1_555
C202_5 C204_5 1_555 1_555
C204_5 C194_5 1_555 1_555
C198_5 H179_5 1_555 1_555
C198_5 H180_5 1_555 1_555
C194_5 H221_5 1_555 1_555
C196_5 H222_5 1_555 1_555
C196_5 H223_5 1_555 1_555
C202_5 H243_5 1_555 1_555
C202_5 H244_5 1_555 1_555
C200_5 H247_5 1_555 1_555
C200_5 H248_5 1_555 1_555
C98_5 C100_5 1_555 1_555
C100_5 C102_5 1_555 1_555
C102_5 C104_5 1_555 1_555
C104_5 C106_5 1_555 1_555
C106_5 C108_5 1_555 1_555
C108_5 C98_5 1_555 1_555
C162_5 C176_5 1_555 1_555
C164_5 C106_5 1_555 1_555
C168_5 C164_5 1_555 1_555
C170_5 C164_5 1_555 1_555
C172_5 C102_5 1_555 1_555
C174_5 C98_5 1_555 1_555
C176_5 C174_5 1_555 1_555
N10_5 C172_5 1_555 1_555
O39_2 C162_5 1_555 1_555
O42_5 C104_5 1_555 1_555
C162_5 O36_2 1_555 1_555
C100_5 H92_5 1_555 1_555
C108_5 H96_5 1_555 1_555
C174_5 H205_5 1_555 1_555
C168_5 H212_5 1_555 1_555
C176_5 H213_5 1_555 1_555
C172_5 H219_5 1_555 1_555
C172_5 H220_5 1_555 1_555
C170_5 H238_5 1_555 1_555
C170_5 H239_5 1_555 1_555
C170_5 H240_5 1_555 1_555
N10_5 H242_5 1_555 1_555
C112_5 C114_5 1_555 1_555
C114_5 C116_5 1_555 1_555
C116_5 C118_5 1_555 1_555
C118_5 C120_5 1_555 1_555
C120_5 C122_5 1_555 1_555
C122_5 C112_5 1_555 1_555
C178_5 C192_5 1_555 1_555
C180_5 C120_5 1_555 1_555
C182_5 C180_5 1_555 1_555
C184_5 C180_5 1_555 1_555
C190_5 C112_5 1_555 1_555
C192_5 C190_5 1_555 1_555
O44_5 C178_5 1_555 1_555
O48_5 C178_5 1_555 1_555
Zn10_3 O44_5 1_555 1_555
Zn10_4 O48_5 1_555 1_555
C114_5 H95_5 1_555 1_555
C122_5 H102_5 1_555 1_555
C184_5 H173_5 1_555 1_555
C184_5 H174_5 1_555 1_555
C184_5 H175_5 1_555 1_555
C182_5 H190_5 1_555 1_555
C182_5 H191_5 1_555 1_555
C182_5 H192_5 1_555 1_555
C190_5 H217_5 1_555 1_555
C192_5 H218_5 1_555 1_555
Mn6_5 O52_5 1_555 1_555
C186_5 H193_5 1_555 1_555
C186_5 H194_5 1_555 1_555
C186_5 H195_5 1_555 1_555
C166_5 H200_5 1_555 1_555
C166_5 H201_5 1_555 1_555
C188_5 H228_5 1_555 1_555
C188_5 H229_5 1_555 1_555
C112_6 C114_6 1_555 1_555
C114_6 C116_6 1_555 1_555
C116_6 C118_6 1_555 1_555
C118_6 C120_6 1_555 1_555
C120_6 C122_6 1_555 1_555
C122_6 C112_6 1_555 1_555
C178_6 C192_6 1_555 1_555
C180_6 C120_6 1_555 1_555
C182_6 C180_6 1_555 1_555
C184_6 C180_6 1_555 1_555
C190_6 C112_6 1_555 1_555
C192_6 C190_6 1_555 1_555
C194_6 C196_6 1_555 1_555
C196_6 C198_6 1_555 1_555
C198_6 C200_6 1_555 1_555
C200_6 C202_6 1_555 1_555
C202_6 C204_6 1_555 1_555
C204_6 C194_6 1_555 1_555
O44_6 C178_6 1_555 1_555
O48_6 C178_6 1_555 1_555
Zn10_4 O44_6 1_555 1_555
Zn9_2 O48_6 1_555 1_555
C204_6 N12_6 1_555 1_555
C114_6 H95_6 1_555 1_555
C122_6 H102_6 1_555 1_555
C184_6 H173_6 1_555 1_555
C184_6 H174_6 1_555 1_555
C184_6 H175_6 1_555 1_555
C198_6 H179_6 1_555 1_555
C198_6 H180_6 1_555 1_555
C182_6 H190_6 1_555 1_555
C182_6 H191_6 1_555 1_555
C182_6 H192_6 1_555 1_555
C190_6 H217_6 1_555 1_555
C192_6 H218_6 1_555 1_555
C194_6 H221_6 1_555 1_555
C196_6 H222_6 1_555 1_555
C196_6 H223_6 1_555 1_555
C202_6 H243_6 1_555 1_555
C202_6 H244_6 1_555 1_555
C200_6 H247_6 1_555 1_555
C200_6 H248_6 1_555 1_555
C98_6 C100_6 1_555 1_555
C100_6 C102_6 1_555 1_555
C102_6 C104_6 1_555 1_555
C104_6 C106_6 1_555 1_555
C106_6 C108_6 1_555 1_555
C108_6 C98_6 1_555 1_555
C162_6 C176_6 1_555 1_555
C164_6 C106_6 1_555 1_555
C166_6 C164_6 1_555 1_555
C168_6 C164_6 1_555 1_555
C170_6 C164_6 1_555 1_555
C172_6 C102_6 1_555 1_555
C174_6 C98_6 1_555 1_555
C176_6 C174_6 1_555 1_555
Cl6_6 Mn6_6 1_555 1_555
Mn6_6 N10_6 1_555 1_555
N10_6 C172_6 1_555 1_555
O40_2 C162_6 1_555 1_555
O42_6 C104_6 1_555 1_555
C162_6 O35_2 1_555 1_555
Mn6_6 O42_6 1_555 1_555
Mn6_6 O52_6 1_555 1_555
C100_6 H92_6 1_555 1_555
C108_6 H96_6 1_555 1_555
C186_6 H193_6 1_555 1_555
C186_6 H194_6 1_555 1_555
C186_6 H195_6 1_555 1_555
C166_6 H199_6 1_555 1_555
C166_6 H200_6 1_555 1_555
C166_6 H201_6 1_555 1_555
C174_6 H205_6 1_555 1_555
C168_6 H210_6 1_555 1_555
C168_6 H211_6 1_555 1_555
C168_6 H212_6 1_555 1_555
C176_6 H213_6 1_555 1_555
C172_6 H219_6 1_555 1_555
C172_6 H220_6 1_555 1_555
C188_6 H228_6 1_555 1_555
C188_6 H229_6 1_555 1_555
C170_6 H238_6 1_555 1_555
C170_6 H239_6 1_555 1_555
C170_6 H240_6 1_555 1_555
N10_6 H242_6 1_555 1_555
C69_3 C71_3 1_555 1_555
C71_3 C73_3 1_555 1_555
C73_3 C75_3 1_555 1_555
C75_3 C77_3 1_555 1_555
C77_3 C79_3 1_555 1_555
C79_3 C69_3 1_555 1_555
C81_3 C133_3 1_555 1_555
C83_3 C85_3 1_555 1_555
C85_3 C87_3 1_555 1_555
C87_3 C89_3 1_555 1_555
C89_3 C91_3 1_555 1_555
C91_3 C93_3 1_555 1_555
C93_3 C83_3 1_555 1_555
C95_3 C77_3 1_555 1_555
C109_3 C147_3 1_555 1_555
C123_3 C95_3 1_555 1_555
C125_3 C95_3 1_555 1_555
C127_3 C95_3 1_555 1_555
C129_3 C73_3 1_555 1_555
C131_3 C69_3 1_555 1_555
C133_3 C131_3 1_555 1_555
C135_3 C91_3 1_555 1_555
C137_3 C135_3 1_555 1_555
C139_3 C135_3 1_555 1_555
C141_3 C135_3 1_555 1_555
C143_3 C87_3 1_555 1_555
C145_3 C83_3 1_555 1_555
C147_3 C145_3 1_555 1_555
C149_3 C151_3 1_555 1_555
C151_3 C153_3 1_555 1_555
C153_3 C155_3 1_555 1_555
C155_3 C157_3 1_555 1_555
C157_3 C159_3 1_555 1_555
C159_3 C149_3 1_555 1_555
Cl3_3 Mn3_3 1_555 1_555
Mn3_3 N5_3 1_555 1_555
N5_3 C129_3 1_555 1_555
N7_3 C143_3 1_555 1_555
O15_3 C81_3 1_555 1_555
O19_3 C75_3 1_555 1_555
O21_3 C109_3 1_555 1_555
O25_3 Zn15_3 1_555 1_555
O26_3 Zn15_3 1_555 1_555
O29_3 C109_3 1_555 1_555
O31_3 C89_3 1_555 1_555
Zn9_2 O29_3 1_555 1_555
Zn10_4 O53_3 1_555 1_555
Zn10_3 O53_3 1_555 1_555
Zn15_3 O21_3 1_555 1_555
O53_3 Zn9_2 1_555 1_555
C81_3 O17_3 1_555 1_555
C149_3 N5_3 1_555 1_555
C159_3 N7_3 1_555 1_555
Mn3_3 N7_3 1_555 1_555
Mn3_3 O19_3 1_555 1_555
Mn3_3 O31_3 1_555 1_555
O15_3 Zn20 1_555 1_555
Zn15_3 O53_3 1_555 1_555
C85_3 H85_3 1_555 1_555
C123_3 H86_3 1_555 1_555
C123_3 H87_3 1_555 1_555
C123_3 H88_3 1_555 1_555
C79_3 H97_3 1_555 1_555
C93_3 H98_3 1_555 1_555
C71_3 H100_3 1_555 1_555
C153_3 H106_3 1_555 1_555
C153_3 H107_3 1_555 1_555
C155_3 H108_3 1_555 1_555
C155_3 H109_3 1_555 1_555
C129_3 H112_3 1_555 1_555
C129_3 H113_3 1_555 1_555
C137_3 H115_3 1_555 1_555
C137_3 H116_3 1_555 1_555
C137_3 H117_3 1_555 1_555
C151_3 H118_3 1_555 1_555
C151_3 H119_3 1_555 1_555
C157_3 H120_3 1_555 1_555
C157_3 H121_3 1_555 1_555
C127_3 H123_3 1_555 1_555
C127_3 H124_3 1_555 1_555
C127_3 H125_3 1_555 1_555
C131_3 H126_3 1_555 1_555
C141_3 H127_3 1_555 1_555
C141_3 H128_3 1_555 1_555
C141_3 H129_3 1_555 1_555
C125_3 H136_3 1_555 1_555
C125_3 H137_3 1_555 1_555
C125_3 H138_3 1_555 1_555
C147_3 H139_3 1_555 1_555
C149_3 H140_3 1_555 1_555
C139_3 H144_3 1_555 1_555
C139_3 H145_3 1_555 1_555
C139_3 H146_3 1_555 1_555
C133_3 H149_3 1_555 1_555
C143_3 H150_3 1_555 1_555
C143_3 H151_3 1_555 1_555
C159_3 H154_3 1_555 1_555
C145_3 H170_3 1_555 1_555
N5_3 H202_3 1_555 1_555
N7_3 H227_3 1_555 1_555
O14_3 Zn3_3 1_555 1_555
C128_3 H156_3 1_555 1_555
C128_3 H157_3 1_555 1_555
C128_3 H158_3 1_555 1_555
C1_3 C2_3 1_555 1_555
C2_3 C3_3 1_555 1_555
C3_3 C4_3 1_555 1_555
C4_3 C5_3 1_555 1_555
C5_3 C6_3 1_555 1_555
C6_3 C1_3 1_555 1_555
C7_3 C33_3 1_555 1_555
C8_3 C9_3 1_555 1_555
C9_3 C10_3 1_555 1_555
C10_3 C11_3 1_555 1_555
C11_3 C12_3 1_555 1_555
C12_3 C13_3 1_555 1_555
C13_3 C8_3 1_555 1_555
C14_3 C5_3 1_555 1_555
C21_3 C40_3 1_555 1_555
C28_3 C14_3 1_555 1_555
C29_3 C14_3 1_555 1_555
C31_3 C3_3 1_555 1_555
C32_3 C1_3 1_555 1_555
C33_3 C32_3 1_555 1_555
C34_3 C12_3 1_555 1_555
C35_3 C34_3 1_555 1_555
C36_3 C34_3 1_555 1_555
C37_3 C34_3 1_555 1_555
C38_3 C10_3 1_555 1_555
C39_3 C8_3 1_555 1_555
C40_3 C39_3 1_555 1_555
C41_3 C42_3 1_555 1_555
C42_3 C43_3 1_555 1_555
C43_3 C44_3 1_555 1_555
C44_3 C45_3 1_555 1_555
C45_3 C46_3 1_555 1_555
C46_3 C41_3 1_555 1_555
Cl1_3 Mn1_3 1_555 1_555
Mn1_3 N1_3 1_555 1_555
N1_3 C31_3 1_555 1_555
N2_3 C38_3 1_555 1_555
O1_3 C7_3 1_555 1_555
O2_3 C7_3 1_555 1_555
O3_3 C4_3 1_555 1_555
O26_3 C21_3 1_555 1_555
O5_3 C21_3 1_555 1_555
O6_3 C11_3 1_555 1_555
Zn10_3 O5_3 1_555 1_555
Zn22 O1_3 1_555 1_555
C41_3 N1_3 1_555 1_555
C46_3 N2_3 1_555 1_555
Mn1_3 N2_3 1_555 1_555
Mn1_3 O3_3 1_555 1_555
Mn1_3 O6_3 1_555 1_555
C6_3 H1_3 1_555 1_555
C2_3 H3_3 1_555 1_555
C13_3 H4_3 1_555 1_555
C9_3 H6_3 1_555 1_555
C42_3 H9_3 1_555 1_555
C42_3 H10_3 1_555 1_555
N1_3 H21_3 1_555 1_555
C29_3 H22_3 1_555 1_555
C29_3 H23_3 1_555 1_555
C29_3 H24_3 1_555 1_555
C45_3 H25_3 1_555 1_555
C45_3 H26_3 1_555 1_555
C38_3 H27_3 1_555 1_555
C38_3 H28_3 1_555 1_555
C46_3 H29_3 1_555 1_555
C28_3 H38_3 1_555 1_555
C28_3 H40_3 1_555 1_555
C39_3 H41_3 1_555 1_555
C40_3 H51_3 1_555 1_555
C37_3 H53_3 1_555 1_555
C37_3 H54_3 1_555 1_555
C37_3 H55_3 1_555 1_555
N2_3 H56_3 1_555 1_555
C32_3 H58_3 1_555 1_555
C44_3 H65_3 1_555 1_555
C44_3 H66_3 1_555 1_555
C33_3 H67_3 1_555 1_555
C31_3 H70_3 1_555 1_555
C31_3 H71_3 1_555 1_555
C35_3 H75_3 1_555 1_555
C35_3 H76_3 1_555 1_555
C35_3 H77_3 1_555 1_555
C41_3 H78_3 1_555 1_555
C43_3 H79_3 1_555 1_555
C43_3 H80_3 1_555 1_555
C36_3 H81_3 1_555 1_555
C36_3 H82_3 1_555 1_555
C36_3 H83_3 1_555 1_555
C70_3 C72_3 1_555 1_555
C72_3 C74_3 1_555 1_555
C74_3 C76_3 1_555 1_555
C76_3 C78_3 1_555 1_555
C78_3 C80_3 1_555 1_555
C80_3 C70_3 1_555 1_555
C82_3 C134_3 1_555 1_555
C84_3 C86_3 1_555 1_555
C86_3 C88_3 1_555 1_555
C88_3 C90_3 1_555 1_555
C90_3 C92_3 1_555 1_555
C92_3 C94_3 1_555 1_555
C94_3 C84_3 1_555 1_555
C96_3 C78_3 1_555 1_555
C110_3 C148_3 1_555 1_555
C124_3 C96_3 1_555 1_555
C126_3 C96_3 1_555 1_555
C130_3 C74_3 1_555 1_555
C132_3 C70_3 1_555 1_555
C134_3 C132_3 1_555 1_555
C136_3 C92_3 1_555 1_555
C138_3 C136_3 1_555 1_555
C140_3 C136_3 1_555 1_555
C142_3 C136_3 1_555 1_555
C144_3 C88_3 1_555 1_555
C146_3 C84_3 1_555 1_555
C148_3 C146_3 1_555 1_555
C150_3 C152_3 1_555 1_555
C152_3 C154_3 1_555 1_555
C154_3 C156_3 1_555 1_555
C156_3 C158_3 1_555 1_555
C158_3 C160_3 1_555 1_555
C160_3 C150_3 1_555 1_555
Cl4_3 Mn4_3 1_555 1_555
Mn4_3 N6_3 1_555 1_555
N6_3 C130_3 1_555 1_555
N8_3 C144_3 1_555 1_555
O16_3 C82_3 1_555 1_555
O20_3 C76_3 1_555 1_555
O25_3 C110_3 1_555 1_555
O30_3 C110_3 1_555 1_555
O32_3 C90_3 1_555 1_555
Zn10_4 O30_3 1_555 1_555
C82_3 O18_3 1_555 1_555
C150_3 N6_3 1_555 1_555
C160_3 N8_3 1_555 1_555
Mn4_3 N8_3 1_555 1_555
Mn4_3 O20_3 1_555 1_555
Mn4_3 O32_3 1_555 1_555
O16_3 Zn21 1_555 1_555
C30_3 H59_3 1_555 1_555
C30_3 H60_3 1_555 1_555
C30_3 H61_3 1_555 1_555
C94_3 H89_3 1_555 1_555
C80_3 H90_3 1_555 1_555
C86_3 H99_3 1_555 1_555
C72_3 H103_3 1_555 1_555
C130_3 H104_3 1_555 1_555
C130_3 H105_3 1_555 1_555
C152_3 H110_3 1_555 1_555
C152_3 H111_3 1_555 1_555
C132_3 H114_3 1_555 1_555
C134_3 H122_3 1_555 1_555
C124_3 H130_3 1_555 1_555
C124_3 H132_3 1_555 1_555
C142_3 H133_3 1_555 1_555
C142_3 H134_3 1_555 1_555
C142_3 H135_3 1_555 1_555
C148_3 H141_3 1_555 1_555
C154_3 H142_3 1_555 1_555
C154_3 H143_3 1_555 1_555
C156_3 H147_3 1_555 1_555
C156_3 H148_3 1_555 1_555
C158_3 H152_3 1_555 1_555
C158_3 H153_3 1_555 1_555
C160_3 H155_3 1_555 1_555
C126_3 H159_3 1_555 1_555
C126_3 H160_3 1_555 1_555
C126_3 H161_3 1_555 1_555
C140_3 H162_3 1_555 1_555
C140_3 H163_3 1_555 1_555
C140_3 H164_3 1_555 1_555
C138_3 H165_3 1_555 1_555
C138_3 H166_3 1_555 1_555
C138_3 H167_3 1_555 1_555
C144_3 H168_3 1_555 1_555
C144_3 H169_3 1_555 1_555
C146_3 H171_3 1_555 1_555
C150_3 H172_3 1_555 1_555
N8_3 H181_3 1_555 1_555
N6_3 H224_3 1_555 1_555
O14_4 Zn3_4 1_555 1_555
O17_3 Zn3_4 1_555 1_555
Zn20 O14_4 1_555 1_555
O14_5 Zn3_5 1_555 1_555
O18_3 Zn3_5 1_555 1_555
Zn21 O14_5 1_555 1_555

#END
