
###############################################################################
#
# This file contains modified crystal structure data generated from the
# MOF subset of the Cambridge Structural Database (CSD) v543 
# hosted by the Cambridge Crystallographic Data Centre (CCDC).
#
# This work is licensed under the Creative Commons
# Attribution-NonCommercial-ShareAlike 4.0 International License.
# To view a copy of this license, visit
# http://creativecommons.org/licenses/by-nc-sa/4.0/
# or send a letter to
# Creative Commons, PO Box 1866, Mountain View, CA 94042, USA.
#
# CIF created using the CSD Python API on 29 September 2022
# The structure has been converted into the P1 space group
# The structure has a 3D framework
# The original CSD entry XANLEE is in the monoclinic crystal system
# The framework has been calculated to contain at least 10.0% void space
# The void calculation uses a probe of radius 1.32A, grid spacing 0.4
#
###############################################################################

data_XANLEE
_chemical_formula_moiety         '(C216 H160 Fe8 N64 O8 S16)n'
_symmetry_cell_setting           triclinic
_symmetry_space_group_name_H-M   'P 1'
_symmetry_Int_Tables_number      1
_space_group_name_Hall           'P 1'
loop_
_symmetry_equiv_pos_site_id
_symmetry_equiv_pos_as_xyz
1 x,y,z
_cell_length_a                   15.772(5)
_cell_length_b                   26.984(8)
_cell_length_c                   19.254(6)
_cell_angle_alpha                90
_cell_angle_beta                 90.019(5)
_cell_angle_gamma                90
_cell_volume                     8194.34
loop_
_atom_site_label
_atom_site_type_symbol
_atom_site_fract_x
_atom_site_fract_y
_atom_site_fract_z
H9 H 0.0210 0.0090 0.7222
N12 N 0.49731(16) 0.79127(9) 0.17078(13)
N13 N 0.43039(16) 0.43654(9) 0.24034(13)
N14 N 0.33930(17) 0.65257(9) 0.06052(13)
N15 N 0.40683(17) 0.61224(9) 0.15442(14)
N16 N 0.31641(17) 0.56697(9) 0.07889(13)
C28 C 0.4672(2) 0.78302(11) 0.10715(16)
H17 H 0.4688 0.8093 0.0743
C29 C 0.4338(2) 0.73801(12) 0.08676(17)
H18 H 0.4132 0.7336 0.0408
C30 C 0.4305(2) 0.69950(11) 0.13413(16)
C31 C 0.4636(2) 0.70740(12) 0.20023(17)
H19 H 0.4643 0.6815 0.2336
C32 C 0.4953(2) 0.75356(12) 0.21615(17)
H20 H 0.5169 0.7590 0.2616
C33 C 0.4594(2) 0.48040(12) 0.26201(17)
H21 H 0.4950 0.4812 0.3018
C34 C 0.4403(2) 0.52473(12) 0.22968(18)
H22 H 0.4621 0.5551 0.2472
C35 C 0.3888(2) 0.52432(11) 0.17111(16)
C36 C 0.3575(2) 0.47915(11) 0.14898(17)
H23 H 0.3211 0.4774 0.1097
C37 C 0.3795(2) 0.43671(12) 0.18420(17)
H24 H 0.3576 0.4060 0.1681
C38 C 0.3022(2) 0.60946(11) 0.04544(16)
C39 C 0.3904(2) 0.65189(11) 0.11547(16)
C40 C 0.3691(2) 0.57044(11) 0.13314(16)
Fe4 Fe 0.53448(3) 0.866680(16) 0.20634(2)
Fe5 Fe 0.46552(3) 0.366680(16) 0.29366(2)
Fe1 Fe 0.04134(3) 0.617997(16) 0.78746(2)
S3 S 0.28149(6) 0.71602(4) 0.71409(7)
C1 C 0.2002(2) 0.67970(12) 0.72695(17)
N1 N 0.14234(17) 0.65427(10) 0.73583(14)
C14 C 0.0001(2) 0.73092(12) 0.78011(17)
H8 H 0.0228 0.7267 0.7348
N11 N 0.12562(17) 0.61303(9) 0.87847(14)
C23 C 0.1684(2) 0.65363(11) 0.89778(17)
H13 H 0.1583 0.6838 0.8736
C24 C 0.2263(2) 0.65347(11) 0.95118(16)
H14 H 0.2555 0.6830 0.9635
C25 C 0.2417(2) 0.60960(11) 0.98695(16)
C26 C 0.1972(2) 0.56755(12) 0.96736(17)
H15 H 0.2060 0.5369 0.9905
C27 C 0.1399(2) 0.57120(12) 0.91361(17)
H16 H 0.1089 0.5424 0.9008
N17 N 0.07940(17) 0.54540(9) 0.74409(14)
N7 N 0.92060(17) 0.04540(9) 0.75591(14)
C15 C 0.9722(2) 0.00625(12) 0.75085(19)
C19 C 0.8525(2) 0.04069(12) 0.79712(19)
H12 H 0.8147 0.0680 0.8009
Fe3 Fe 0.95866(3) 0.117997(16) 0.71254(2)
S1 S 0.31931(6) 0.93774(4) 0.05448(5)
S2 S 0.76484(6) 0.77922(4) 0.31668(6)
C3 C 0.3943(2) 0.91670(12) 0.10440(17)
C4 C 0.6817(2) 0.80842(12) 0.28870(17)
N3 N 0.44785(18) 0.90183(10) 0.14048(15)
N4 N 0.62288(17) 0.82938(10) 0.26850(14)
N5 N 0.62983(16) 0.87181(9) 0.12338(13)
C5 C 0.6741(2) 0.83113(11) 0.10661(17)
H1 H 0.6660 0.8019 0.1333
C6 C 0.7309(2) 0.82997(12) 0.05226(17)
H2 H 0.7607 0.8003 0.0416
C7 C 0.74415(19) 0.87242(11) 0.01343(16)
C8 C 0.6987(2) 0.91487(11) 0.03105(16)
H3 H 0.7065 0.9447 0.0057
C9 C 0.6424(2) 0.91301(11) 0.08569(16)
H4 H 0.6112 0.9420 0.0971
O2 O 0.42627(15) 0.85425(9) 0.27730(12)
H33 H 0.387(2) 0.8385(15) 0.258(2)
C48 C 0.3927(3) 0.88617(16) 0.3292(2)
H34 H 0.3346 0.8754 0.3417
H35 H 0.3894 0.9204 0.3110
C49 C 0.4484(3) 0.88500(18) 0.3927(2)
C50 C 0.4951(3) 0.8442(2) 0.4094(2)
H36 H 0.4905 0.8153 0.3816
C51 C 0.5482(4) 0.8441(3) 0.4650(3)
H37 H 0.5803 0.8153 0.4760
C52 C 0.5550(4) 0.8858(4) 0.5052(3)
H38 H 0.5929 0.8857 0.5436
C53 C 0.5088(5) 0.9275(3) 0.4916(3)
H39 H 0.5137 0.9558 0.5207
C54 C 0.4538(3) 0.9281(2) 0.4339(3)
H40 H 0.4213 0.9567 0.4231
N19 N 0.56961(16) 0.93654(9) 0.25966(13)
S1_2 S 0.68069(6) 0.43774(4) 0.44552(5)
S2_2 S 0.23516(6) 0.27922(4) 0.18332(6)
S4 S 0.15471(8) 0.06265(4) 0.53818(6)
C2 C 0.0975(2) 0.07499(12) 0.60673(19)
C3_2 C 0.6057(2) 0.41670(12) 0.39560(17)
C4_2 C 0.3183(2) 0.30842(12) 0.21130(17)
N2 N 0.05626(17) 0.08447(10) 0.65467(15)
N3_2 N 0.55215(18) 0.40183(10) 0.35952(15)
N4_2 N 0.37712(17) 0.32938(10) 0.23150(14)
N5_2 N 0.37017(16) 0.37181(9) 0.37662(13)
N6 N 0.00077(16) 0.19180(9) 0.67658(13)
N8 N 0.15602(16) 0.32949(9) 0.55959(13)
N9 N 0.18424(17) 0.41449(9) 0.58039(14)
N10 N 0.08741(17) 0.37087(9) 0.65229(14)
C5_2 C 0.3259(2) 0.33113(11) 0.39339(17)
H1_2 H 0.3340 0.3019 0.3667
C6_2 C 0.2691(2) 0.32997(12) 0.44774(17)
H2_2 H 0.2393 0.3003 0.4584
C7_2 C 0.25585(19) 0.37242(11) 0.48657(16)
C8_2 C 0.3013(2) 0.41487(11) 0.46895(16)
H3_2 H 0.2935 0.4447 0.4943
C9_2 C 0.3576(2) 0.41301(11) 0.41431(16)
H4_2 H 0.3888 0.4420 0.4029
C10 C 0.0317(2) 0.19882(11) 0.61261(16)
H5 H 0.0318 0.1715 0.5814
C11 C 0.0634(2) 0.24366(11) 0.58937(16)
H6 H 0.0841 0.2471 0.5433
C12 C 0.06417(18) 0.28336(11) 0.63493(16)
C13 C 0.0306(2) 0.27695(11) 0.70126(16)
H7 H 0.0289 0.3038 0.7331
C15_2 C 0.0278(2) 0.50625(12) 0.74915(19)
C16 C 0.0417(2) 0.46190(12) 0.71496(18)
H10 H 0.0040 0.4348 0.7208
C17 C 0.1119(2) 0.45796(11) 0.67192(17)
C18 C 0.1655(2) 0.49832(12) 0.66571(19)
H11 H 0.2138 0.4968 0.6363
C19_2 C 0.1475(2) 0.54069(12) 0.70288(19)
H12_2 H 0.1853 0.5680 0.6991
C20 C 0.1950(2) 0.37226(11) 0.54533(16)
C21 C 0.10440(19) 0.33072(11) 0.61419(15)
C22 C 0.1288(2) 0.41180(11) 0.63259(16)
O1 O 0.03006(15) 0.12852(9) 0.80441(13)
H25 H 0.007(2) 0.1346(16) 0.8427(12)
C41 C 0.1188(2) 0.12115(16) 0.8149(2)
H26 H 0.1399 0.1460 0.8485
H27 H 0.1488 0.1265 0.7703
C42 C 0.1391(2) 0.07020(15) 0.84146(19)
C43 C 0.1977(3) 0.04058(19) 0.8080(2)
H28 H 0.2231 0.0519 0.7661
C46 C 0.1237(3) 0.00599(18) 0.9273(3)
C47 C 0.1023(3) 0.05239(15) 0.9016(2)
H32 H 0.0618 0.0721 0.9256
O2_2 O 0.57373(15) 0.35425(9) 0.22270(12)
H33_2 H 0.613(2) 0.3385(15) 0.242(2)
C48_2 C 0.6073(3) 0.38617(16) 0.1708(2)
H34_2 H 0.6654 0.3754 0.1583
H35_2 H 0.6106 0.4204 0.1890
C49_2 C 0.5516(3) 0.38500(18) 0.1073(2)
C50_2 C 0.5049(3) 0.3442(2) 0.0906(2)
H36_2 H 0.5095 0.3153 0.1184
C51_2 C 0.4518(4) 0.3441(3) 0.0350(3)
H37_2 H 0.4197 0.3153 0.0240
C53_2 C 0.4912(5) 0.4275(3) 0.0084(3)
C54_2 C 0.5462(3) 0.4281(2) 0.0661(3)
H40_2 H 0.5787 0.4567 0.0769
N18 N 0.50269(16) 0.29127(9) 0.32922(13)
S3_2 S 0.71851(6) 0.21602(4) 0.78591(7)
C1_2 C 0.7998(2) 0.17970(12) 0.77305(17)
N1_2 N 0.85766(17) 0.15427(10) 0.76417(14)
C14_2 C 0.9999(2) 0.23092(12) 0.71989(17)
H8_2 H 0.9772 0.2267 0.7652
H9_2 H 0.9790 0.5090 0.7778
N11_2 N 0.87438(17) 0.11303(9) 0.62153(14)
N14_2 N 0.66070(17) 0.15257(9) 0.43948(13)
N15_2 N 0.59317(17) 0.11224(9) 0.34558(14)
N16_2 N 0.68359(17) 0.06697(9) 0.42111(13)
C23_2 C 0.8316(2) 0.15363(11) 0.60222(17)
H13_2 H 0.8417 0.1838 0.6264
C24_2 C 0.7737(2) 0.15347(11) 0.54882(16)
H14_2 H 0.7445 0.1830 0.5365
C25_2 C 0.7583(2) 0.10960(11) 0.51305(16)
C26_2 C 0.8028(2) 0.06755(12) 0.53264(17)
H15_2 H 0.7940 0.0369 0.5095
C27_2 C 0.8601(2) 0.07120(12) 0.58639(17)
H16_2 H 0.8911 0.0424 0.5992
C28_2 C 0.5328(2) 0.28302(11) 0.39285(16)
H17_2 H 0.5312 0.3093 0.4257
C29_2 C 0.5662(2) 0.23801(12) 0.41324(17)
H18_2 H 0.5868 0.2336 0.4592
C30_2 C 0.5695(2) 0.19950(11) 0.36587(16)
C31_2 C 0.5364(2) 0.20740(12) 0.29977(17)
H19_2 H 0.5357 0.1815 0.2664
C32_2 C 0.5047(2) 0.25356(12) 0.28385(17)
H20_2 H 0.4831 0.2590 0.2384
C34_2 C 0.5597(2) 0.02473(12) 0.27032(18)
H22_2 H 0.5379 0.0551 0.2528
C35_2 C 0.6112(2) 0.02432(11) 0.32889(16)
C38_2 C 0.6978(2) 0.10946(11) 0.45456(16)
C39_2 C 0.6096(2) 0.15189(11) 0.38453(16)
C40_2 C 0.6309(2) 0.07044(11) 0.36686(16)
C33_2 C 0.5406(2) 0.98040(12) 0.23799(17)
H21_2 H 0.5050 0.9812 0.1982
C36_2 C 0.6425(2) 0.97915(11) 0.35102(17)
H23_2 H 0.6789 0.9774 0.3903
C37_2 C 0.6205(2) 0.93671(12) 0.31580(17)
H24_2 H 0.6424 0.9060 0.3319
S4_2 S 0.84529(8) 0.56265(4) 0.96182(6)
C2_2 C 0.9025(2) 0.57499(12) 0.89327(19)
N2_2 N 0.94374(17) 0.58447(10) 0.84533(15)
N6_2 N 0.99923(16) 0.69180(9) 0.82342(13)
N8_2 N 0.84398(16) 0.82949(9) 0.94041(13)
N9_2 N 0.81576(17) 0.91449(9) 0.91961(14)
N10_2 N 0.91259(17) 0.87087(9) 0.84771(14)
C10_2 C 0.9683(2) 0.69882(11) 0.88739(16)
H5_2 H 0.9682 0.6715 0.9186
C11_2 C 0.9366(2) 0.74366(11) 0.91063(16)
H6_2 H 0.9159 0.7471 0.9567
C12_2 C 0.93583(18) 0.78336(11) 0.86507(16)
C13_2 C 0.9694(2) 0.77695(11) 0.79874(16)
H7_2 H 0.9711 0.8038 0.7669
C16_2 C 0.9583(2) 0.96190(12) 0.78504(18)
H10_2 H 0.9960 0.9348 0.7792
C17_2 C 0.8881(2) 0.95796(11) 0.82808(17)
C18_2 C 0.8345(2) 0.99832(12) 0.83429(19)
H11_2 H 0.7862 0.9968 0.8637
C20_2 C 0.8050(2) 0.87226(11) 0.95467(16)
C21_2 C 0.89560(19) 0.83072(11) 0.88581(15)
C22_2 C 0.8712(2) 0.91180(11) 0.86741(16)
O1_2 O 0.96994(15) 0.62852(9) 0.69559(13)
H25_2 H 0.993(2) 0.6346(16) 0.6573(12)
C41_2 C 0.8812(2) 0.62115(16) 0.6851(2)
H26_2 H 0.8601 0.6460 0.6515
H27_2 H 0.8512 0.6265 0.7297
C42_2 C 0.8609(2) 0.57020(15) 0.65854(19)
C43_2 C 0.8023(3) 0.54058(19) 0.6920(2)
H28_2 H 0.7769 0.5519 0.7339
C44 C 0.7802(3) 0.4951(2) 0.6657(3)
H29 H 0.7386 0.4756 0.6887
C45 C 0.8178(4) 0.47765(19) 0.6065(4)
H30 H 0.8031 0.4459 0.5889
C46_2 C 0.8763(3) 0.50599(18) 0.5727(3)
H31 H 0.9023 0.4940 0.5315
C47_2 C 0.8977(3) 0.55239(15) 0.5984(2)
H32_2 H 0.9382 0.5721 0.5744
C52_2 C 0.4450(4) 0.3858(4) 0.9948(3)
H38_2 H 0.4071 0.3857 0.9564
H39_2 H 0.4863 0.4558 0.9793
C44_2 C 0.2198(3) 0.9951(2) 0.8343(3)
H29_2 H 0.2614 0.9756 0.8113
C45_2 C 0.1822(4) 0.97765(19) 0.8935(4)
H30_2 H 0.1969 0.9459 0.9111
H31_2 H 0.0977 0.9940 0.9685
S4_3 S 0.15471(8) 0.43735(4) 0.03818(6)
C2_3 C 0.0975(2) 0.42501(12) 0.10673(19)
N2_3 N 0.05626(17) 0.41553(10) 0.15467(15)
N6_3 N 0.00077(16) 0.30820(9) 0.17658(13)
N8_3 N 0.15602(16) 0.17051(9) 0.05959(13)
N9_3 N 0.18424(17) 0.08551(9) 0.08039(14)
N10_3 N 0.08741(17) 0.12913(9) 0.15229(14)
C10_3 C 0.0317(2) 0.30118(11) 0.11261(16)
H5_3 H 0.0318 0.3285 0.0814
C11_3 C 0.0634(2) 0.25634(11) 0.08937(16)
H6_3 H 0.0841 0.2529 0.0433
C12_3 C 0.06417(18) 0.21664(11) 0.13493(16)
C13_3 C 0.0306(2) 0.22305(11) 0.20126(16)
H7_3 H 0.0289 0.1962 0.2331
C16_3 C 0.0417(2) 0.03810(12) 0.21496(18)
H10_3 H 0.0040 0.0652 0.2208
C17_3 C 0.1119(2) 0.04204(11) 0.17192(17)
C18_3 C 0.1655(2) 0.00168(12) 0.16571(19)
H11_3 H 0.2138 0.0032 0.1363
C20_3 C 0.1950(2) 0.12774(11) 0.04533(16)
C21_3 C 0.10440(19) 0.16928(11) 0.11419(15)
C22_3 C 0.1288(2) 0.08820(11) 0.13259(16)
O1_3 O 0.03006(15) 0.37148(9) 0.30441(13)
H25_3 H 0.007(2) 0.3654(16) 0.3427(12)
C41_3 C 0.1188(2) 0.37885(16) 0.3149(2)
H26_3 H 0.1399 0.3540 0.3485
H27_3 H 0.1488 0.3735 0.2703
C42_3 C 0.1391(2) 0.42980(15) 0.34146(19)
C43_3 C 0.1977(3) 0.45942(19) 0.3080(2)
H28_3 H 0.2231 0.4481 0.2661
C44_3 C 0.2198(3) 0.5049(2) 0.3343(3)
H29_3 H 0.2614 0.5244 0.3113
C45_3 C 0.1822(4) 0.52235(19) 0.3935(4)
H30_3 H 0.1969 0.5541 0.4111
C46_3 C 0.1237(3) 0.49401(18) 0.4273(3)
H31_3 H 0.0977 0.5060 0.4685
C47_3 C 0.1023(3) 0.44761(15) 0.4016(2)
H32_3 H 0.0618 0.4279 0.4256
Fe2 Fe 0.46552(3) 0.133320(16) 0.79366(2)
S1_3 S 0.68069(6) 0.06226(4) 0.94552(5)
S2_3 S 0.23516(6) 0.22078(4) 0.68332(6)
C3_3 C 0.6057(2) 0.08330(12) 0.89560(17)
C4_3 C 0.3183(2) 0.19158(12) 0.71130(17)
N3_3 N 0.55215(18) 0.09817(10) 0.85952(15)
N4_3 N 0.37712(17) 0.17062(10) 0.73150(14)
N5_3 N 0.37017(16) 0.12819(9) 0.87662(13)
C5_3 C 0.3259(2) 0.16887(11) 0.89339(17)
H1_3 H 0.3340 0.1981 0.8667
C6_3 C 0.2691(2) 0.17003(12) 0.94774(17)
H2_3 H 0.2393 0.1997 0.9584
C7_3 C 0.25585(19) 0.12758(11) 0.98657(16)
C8_3 C 0.3013(2) 0.08513(11) 0.96895(16)
H3_3 H 0.2935 0.0553 0.9943
C9_3 C 0.3576(2) 0.08699(11) 0.91431(16)
H4_3 H 0.3888 0.0580 0.9029
O2_3 O 0.57373(15) 0.14575(9) 0.72270(12)
H33_3 H 0.613(2) 0.1615(15) 0.742(2)
C48_3 C 0.6073(3) 0.11383(16) 0.6708(2)
H34_3 H 0.6654 0.1246 0.6583
H35_3 H 0.6106 0.0796 0.6890
C49_3 C 0.5516(3) 0.11500(18) 0.6073(2)
C50_3 C 0.5049(3) 0.1558(2) 0.5906(2)
H36_3 H 0.5095 0.1847 0.6184
C51_3 C 0.4518(4) 0.1559(3) 0.5350(3)
H37_3 H 0.4197 0.1847 0.5240
C52_3 C 0.4450(4) 0.1142(4) 0.4948(3)
H38_3 H 0.4071 0.1143 0.4564
C53_3 C 0.4912(5) 0.0725(3) 0.5084(3)
H39_3 H 0.4863 0.0442 0.4793
C54_3 C 0.5462(3) 0.0719(2) 0.5661(3)
H40_3 H 0.5787 0.0433 0.5769
N18_2 N 0.50269(16) 0.20873(9) 0.82922(13)
N19_2 N 0.43039(16) 0.06346(9) 0.74034(13)
N7_2 N 0.07940(17) 0.95460(9) 0.24409(14)
C15_3 C 0.0278(2) 0.99375(12) 0.24915(19)
C19_3 C 0.1475(2) 0.95931(12) 0.20288(19)
H12_3 H 0.1853 0.9320 0.1991
Fe3_2 Fe 0.04134(3) 0.882003(16) 0.28746(2)
Fe1_2 Fe 0.95866(3) 0.382003(16) 0.21254(2)
S3_3 S 0.71851(6) 0.28398(4) 0.28591(7)
C1_3 C 0.7998(2) 0.32030(12) 0.27305(17)
N1_3 N 0.85766(17) 0.34573(10) 0.26417(14)
C14_3 C 0.9999(2) 0.26908(12) 0.21989(17)
H8_3 H 0.9772 0.2733 0.2652
N11_3 N 0.87438(17) 0.38697(9) 0.12153(14)
C23_3 C 0.8316(2) 0.34637(11) 0.10222(17)
H13_3 H 0.8417 0.3162 0.1264
C24_3 C 0.7737(2) 0.34653(11) 0.04882(16)
H14_3 H 0.7445 0.3170 0.0365
C25_3 C 0.7583(2) 0.39040(11) 0.01305(16)
C26_3 C 0.8028(2) 0.43245(12) 0.03264(17)
H15_3 H 0.7940 0.4631 0.0095
C27_3 C 0.8601(2) 0.42880(12) 0.08639(17)
H16_3 H 0.8911 0.4576 0.0992
N17_2 N 0.92060(17) 0.45460(9) 0.25591(14)
N13_2 N 0.56961(16) 0.56346(9) 0.75966(13)
N14_3 N 0.66070(17) 0.34743(9) 0.93948(13)
N15_3 N 0.59317(17) 0.38776(9) 0.84558(14)
N16_3 N 0.68359(17) 0.43303(9) 0.92111(13)
C28_3 C 0.5328(2) 0.21698(11) 0.89285(16)
H17_3 H 0.5312 0.1907 0.9257
C29_3 C 0.5662(2) 0.26199(12) 0.91324(17)
H18_3 H 0.5868 0.2664 0.9592
C30_3 C 0.5695(2) 0.30050(11) 0.86587(16)
C31_3 C 0.5364(2) 0.29260(12) 0.79977(17)
H19_3 H 0.5357 0.3185 0.7664
C32_3 C 0.5047(2) 0.24644(12) 0.78385(17)
H20_3 H 0.4831 0.2410 0.7384
C33_3 C 0.5406(2) 0.51960(12) 0.73799(17)
H21_3 H 0.5050 0.5188 0.6982
C34_3 C 0.5597(2) 0.47527(12) 0.77032(18)
H22_3 H 0.5379 0.4449 0.7528
C35_3 C 0.6112(2) 0.47568(11) 0.82889(16)
C36_3 C 0.6425(2) 0.52085(11) 0.85102(17)
H23_3 H 0.6789 0.5226 0.8903
C37_3 C 0.6205(2) 0.56329(12) 0.81580(17)
H24_3 H 0.6424 0.5940 0.8319
C38_3 C 0.6978(2) 0.39054(11) 0.95456(16)
C39_3 C 0.6096(2) 0.34811(11) 0.88453(16)
C40_3 C 0.6309(2) 0.42956(11) 0.86686(16)
Fe5_2 Fe 0.53448(3) 0.633320(16) 0.70634(2)
C33_4 C 0.4594(2) 0.01960(12) 0.76201(17)
H21_4 H 0.4950 0.0188 0.8018
C36_4 C 0.3575(2) 0.02085(11) 0.64898(17)
H23_4 H 0.3211 0.0226 0.6097
C37_4 C 0.3795(2) 0.06329(12) 0.68420(17)
H24_4 H 0.3576 0.0940 0.6681
S3_4 S 0.28149(6) 0.78398(4) 0.21409(7)
C1_4 C 0.2002(2) 0.82030(12) 0.22695(17)
N1_4 N 0.14234(17) 0.84573(10) 0.23583(14)
C14_4 C 0.0001(2) 0.76908(12) 0.28011(17)
H8_4 H 0.0228 0.7733 0.2348
H9_3 H 0.0210 0.4910 0.2222
N11_4 N 0.12562(17) 0.88697(9) 0.37847(14)
N12_2 N 0.49731(16) 0.70873(9) 0.67078(13)
N14_4 N 0.33930(17) 0.84743(9) 0.56052(13)
N15_4 N 0.40683(17) 0.88776(9) 0.65442(14)
N16_4 N 0.31641(17) 0.93303(9) 0.57889(13)
C23_4 C 0.1684(2) 0.84637(11) 0.39778(17)
H13_4 H 0.1583 0.8162 0.3736
C24_4 C 0.2263(2) 0.84653(11) 0.45118(16)
H14_4 H 0.2555 0.8170 0.4635
C25_4 C 0.2417(2) 0.89040(11) 0.48695(16)
C26_4 C 0.1972(2) 0.93245(12) 0.46736(17)
H15_4 H 0.2060 0.9631 0.4905
C27_4 C 0.1399(2) 0.92880(12) 0.41361(17)
H16_4 H 0.1089 0.9576 0.4008
C28_4 C 0.4672(2) 0.71698(11) 0.60715(16)
H17_4 H 0.4688 0.6907 0.5743
C29_4 C 0.4338(2) 0.76199(12) 0.58676(17)
H18_4 H 0.4132 0.7664 0.5408
C30_4 C 0.4305(2) 0.80050(11) 0.63413(16)
C31_4 C 0.4636(2) 0.79260(12) 0.70023(17)
H19_4 H 0.4643 0.8185 0.7336
C32_4 C 0.4953(2) 0.74644(12) 0.71615(17)
H20_4 H 0.5169 0.7410 0.7616
C34_4 C 0.4403(2) 0.97527(12) 0.72968(18)
H22_4 H 0.4621 0.9449 0.7472
C35_4 C 0.3888(2) 0.97568(11) 0.67111(16)
C38_4 C 0.3022(2) 0.89054(11) 0.54544(16)
C39_4 C 0.3904(2) 0.84811(11) 0.61547(16)
C40_4 C 0.3691(2) 0.92956(11) 0.63314(16)
S1_4 S 0.31931(6) 0.56226(4) 0.55448(5)
S2_4 S 0.76484(6) 0.72078(4) 0.81668(6)
S4_4 S 0.84529(8) 0.93735(4) 0.46182(6)
C2_4 C 0.9025(2) 0.92501(12) 0.39327(19)
C3_4 C 0.3943(2) 0.58330(12) 0.60440(17)
C4_4 C 0.6817(2) 0.69158(12) 0.78870(17)
N2_4 N 0.94374(17) 0.91553(10) 0.34533(15)
N3_4 N 0.44785(18) 0.59817(10) 0.64048(15)
N4_4 N 0.62288(17) 0.67062(10) 0.76850(14)
N5_4 N 0.62983(16) 0.62819(9) 0.62338(13)
N6_4 N 0.99923(16) 0.80820(9) 0.32342(13)
N8_4 N 0.84398(16) 0.67051(9) 0.44041(13)
N9_4 N 0.81576(17) 0.58551(9) 0.41961(14)
N10_4 N 0.91259(17) 0.62913(9) 0.34771(14)
C5_4 C 0.6741(2) 0.66887(11) 0.60661(17)
H1_4 H 0.6660 0.6981 0.6333
C6_4 C 0.7309(2) 0.67003(12) 0.55226(17)
H2_4 H 0.7607 0.6997 0.5416
C7_4 C 0.74415(19) 0.62758(11) 0.51343(16)
C8_4 C 0.6987(2) 0.58513(11) 0.53105(16)
H3_4 H 0.7065 0.5553 0.5057
C9_4 C 0.6424(2) 0.58699(11) 0.58569(16)
H4_4 H 0.6112 0.5580 0.5971
C10_4 C 0.9683(2) 0.80118(11) 0.38739(16)
H5_4 H 0.9682 0.8285 0.4186
C11_4 C 0.9366(2) 0.75634(11) 0.41063(16)
H6_4 H 0.9159 0.7529 0.4567
C12_4 C 0.93583(18) 0.71664(11) 0.36507(16)
C13_4 C 0.9694(2) 0.72305(11) 0.29874(16)
H7_4 H 0.9711 0.6962 0.2669
C15_4 C 0.9722(2) 0.49375(12) 0.25085(19)
C16_4 C 0.9583(2) 0.53810(12) 0.28504(18)
H10_4 H 0.9960 0.5652 0.2792
C17_4 C 0.8881(2) 0.54204(11) 0.32808(17)
C18_4 C 0.8345(2) 0.50168(12) 0.33429(19)
H11_4 H 0.7862 0.5032 0.3637
C19_4 C 0.8525(2) 0.45931(12) 0.29712(19)
H12_4 H 0.8147 0.4320 0.3009
C20_4 C 0.8050(2) 0.62774(11) 0.45467(16)
C21_4 C 0.89560(19) 0.66928(11) 0.38581(15)
C22_4 C 0.8712(2) 0.58820(11) 0.36741(16)
O1_4 O 0.96994(15) 0.87148(9) 0.19559(13)
H25_4 H 0.993(2) 0.8654(16) 0.1573(12)
C41_4 C 0.8812(2) 0.87885(16) 0.1851(2)
H26_4 H 0.8601 0.8540 0.1515
H27_4 H 0.8512 0.8735 0.2297
C42_4 C 0.8609(2) 0.92980(15) 0.15854(19)
C43_4 C 0.8023(3) 0.95942(19) 0.1920(2)
H28_4 H 0.7769 0.9481 0.2339
C46_4 C 0.8763(3) 0.99401(18) 0.0727(3)
C47_4 C 0.8977(3) 0.94761(15) 0.0984(2)
H32_4 H 0.9382 0.9279 0.0744
O2_4 O 0.42627(15) 0.64575(9) 0.77730(12)
H33_4 H 0.387(2) 0.6615(15) 0.758(2)
C48_4 C 0.3927(3) 0.61383(16) 0.8292(2)
H34_4 H 0.3346 0.6246 0.8417
H35_4 H 0.3894 0.5796 0.8110
C49_4 C 0.4484(3) 0.61500(18) 0.8927(2)
C50_4 C 0.4951(3) 0.6558(2) 0.9094(2)
H36_4 H 0.4905 0.6847 0.8816
C51_4 C 0.5482(4) 0.6559(3) 0.9650(3)
H37_4 H 0.5803 0.6847 0.9760
C53_4 C 0.5088(5) 0.5725(3) 0.9916(3)
C54_4 C 0.4538(3) 0.5719(2) 0.9339(3)
H40_4 H 0.4213 0.5433 0.9231
H9_4 H 0.9790 0.9910 0.2778
C44_4 C 0.7802(3) 0.0049(2) 0.1657(3)
H29_4 H 0.7386 0.0244 0.1887
C45_4 C 0.8178(4) 0.02235(19) 0.1065(4)
H30_4 H 0.8031 0.0541 0.0889
H31_4 H 0.9023 0.0060 0.0315
C52_4 C 0.5550(4) 0.6142(4) 0.0052(3)
H38_4 H 0.5929 0.6143 0.0436
H39_4 H 0.5137 0.5442 0.0207
loop_
_geom_bond_atom_site_label_1
_geom_bond_atom_site_label_2
_geom_bond_site_symmetry_1
_geom_bond_site_symmetry_2
N12 C28 1_555 1_555
N13 C33 1_555 1_555
N14 C38 1_555 1_555
N15 C39 1_555 1_555
N16 C38 1_555 1_555
C28 H17 1_555 1_555
C29 C28 1_555 1_555
H18 C29 1_555 1_555
C30 C29 1_555 1_555
C31 C30 1_555 1_555
H19 C31 1_555 1_555
C32 N12 1_555 1_555
H20 C32 1_555 1_555
C33 H21 1_555 1_555
C34 C33 1_555 1_555
H22 C34 1_555 1_555
C35 C34 1_555 1_555
C36 C35 1_555 1_555
H23 C36 1_555 1_555
C37 N13 1_555 1_555
H24 C37 1_555 1_555
C39 N14 1_555 1_555
C40 N15 1_555 1_555
Fe4 N12 1_555 1_555
Fe5 N13 1_555 1_555
N16 C40 1_555 1_555
C30 C39 1_555 1_555
C31 C32 1_555 1_555
C35 C40 1_555 1_555
C36 C37 1_555 1_555
Fe1 N1 1_555 1_555
S3 C1 1_555 1_555
C1 N1 1_555 1_555
H8 C14 1_555 1_555
N11 Fe1 1_555 1_555
C23 N11 1_555 1_555
H13 C23 1_555 1_555
C24 C23 1_555 1_555
H14 C24 1_555 1_555
C25 C24 1_555 1_555
C26 C25 1_555 1_555
H15 C26 1_555 1_555
C27 N11 1_555 1_555
H16 C27 1_555 1_555
N17 Fe1 1_555 1_555
C26 C27 1_555 1_555
N7 C15 1_555 1_555
C19 N7 1_555 1_555
H12 C19 1_555 1_555
Fe3 N7 1_555 1_555
Fe4 N3 1_555 1_555
S1 C3 1_555 1_555
S2 C4 1_555 1_555
C3 N3 1_555 1_555
C4 N4 1_555 1_555
N4 Fe4 1_555 1_555
N5 Fe4 1_555 1_555
C5 N5 1_555 1_555
H1 C5 1_555 1_555
C6 C5 1_555 1_555
H2 C6 1_555 1_555
C7 C6 1_555 1_555
C8 C7 1_555 1_555
H3 C8 1_555 1_555
C9 N5 1_555 1_555
H4 C9 1_555 1_555
O2 Fe4 1_555 1_555
H33 O2 1_555 1_555
C48 O2 1_555 1_555
H34 C48 1_555 1_555
H35 C48 1_555 1_555
C49 C48 1_555 1_555
C50 C49 1_555 1_555
H36 C50 1_555 1_555
C51 C50 1_555 1_555
H37 C51 1_555 1_555
C52 C51 1_555 1_555
H38 C52 1_555 1_555
C53 C52 1_555 1_555
H39 C53 1_555 1_555
C54 C49 1_555 1_555
H40 C54 1_555 1_555
N19 Fe4 1_555 1_555
C8 C9 1_555 1_555
C53 C54 1_555 1_555
Fe5 N3_2 1_555 1_555
S1_2 C3_2 1_555 1_555
S2_2 C4_2 1_555 1_555
S4 C2 1_555 1_555
C2 N2 1_555 1_555
C3_2 N3_2 1_555 1_555
C4_2 N4_2 1_555 1_555
N4_2 Fe5 1_555 1_555
N5_2 Fe5 1_555 1_555
N17 C15_2 1_555 1_555
N8 C20 1_555 1_555
N9 C20 1_555 1_555
N10 C21 1_555 1_555
C5_2 N5_2 1_555 1_555
H1_2 C5_2 1_555 1_555
C6_2 C5_2 1_555 1_555
H2_2 C6_2 1_555 1_555
C7_2 C6_2 1_555 1_555
C8_2 C7_2 1_555 1_555
H3_2 C8_2 1_555 1_555
C9_2 N5_2 1_555 1_555
H4_2 C9_2 1_555 1_555
C10 N6 1_555 1_555
H5 C10 1_555 1_555
C11 C10 1_555 1_555
H6 C11 1_555 1_555
C12 C11 1_555 1_555
C13 C12 1_555 1_555
H7 C13 1_555 1_555
C16 C15_2 1_555 1_555
H10 C16 1_555 1_555
C17 C16 1_555 1_555
C18 C17 1_555 1_555
H11 C18 1_555 1_555
C19_2 N17 1_555 1_555
H12_2 C19_2 1_555 1_555
C20 C7_2 1_555 1_555
C21 N8 1_555 1_555
C22 N9 1_555 1_555
H25 O1 1_555 1_555
C41 O1 1_555 1_555
H26 C41 1_555 1_555
H27 C41 1_555 1_555
C42 C41 1_555 1_555
C43 C42 1_555 1_555
H28 C43 1_555 1_555
C47 C42 1_555 1_555
H32 C47 1_555 1_555
O2_2 Fe5 1_555 1_555
H33_2 O2_2 1_555 1_555
C48_2 O2_2 1_555 1_555
H34_2 C48_2 1_555 1_555
H35_2 C48_2 1_555 1_555
C49_2 C48_2 1_555 1_555
C50_2 C49_2 1_555 1_555
H36_2 C50_2 1_555 1_555
C51_2 C50_2 1_555 1_555
H37_2 C51_2 1_555 1_555
C54_2 C49_2 1_555 1_555
H40_2 C54_2 1_555 1_555
N18 Fe5 1_555 1_555
N10 C22 1_555 1_555
C8_2 C9_2 1_555 1_555
C12 C21 1_555 1_555
C17 C22 1_555 1_555
C18 C19_2 1_555 1_555
C46 C47 1_555 1_555
C53_2 C54_2 1_555 1_555
Fe3 N1_2 1_555 1_555
S3_2 C1_2 1_555 1_555
C1_2 N1_2 1_555 1_555
H8_2 C14_2 1_555 1_555
N11_2 Fe3 1_555 1_555
N18 C28_2 1_555 1_555
N14_2 C38_2 1_555 1_555
N15_2 C39_2 1_555 1_555
N16_2 C38_2 1_555 1_555
C23_2 N11_2 1_555 1_555
H13_2 C23_2 1_555 1_555
C24_2 C23_2 1_555 1_555
H14_2 C24_2 1_555 1_555
C25_2 C24_2 1_555 1_555
C26_2 C25_2 1_555 1_555
H15_2 C26_2 1_555 1_555
C27_2 N11_2 1_555 1_555
H16_2 C27_2 1_555 1_555
C28_2 H17_2 1_555 1_555
C29_2 C28_2 1_555 1_555
H18_2 C29_2 1_555 1_555
C30_2 C29_2 1_555 1_555
C31_2 C30_2 1_555 1_555
H19_2 C31_2 1_555 1_555
C32_2 N18 1_555 1_555
H20_2 C32_2 1_555 1_555
H22_2 C34_2 1_555 1_555
C35_2 C34_2 1_555 1_555
C38_2 C25_2 1_555 1_555
C39_2 N14_2 1_555 1_555
C40_2 N15_2 1_555 1_555
N16_2 C40_2 1_555 1_555
C26_2 C27_2 1_555 1_555
C30_2 C39_2 1_555 1_555
C31_2 C32_2 1_555 1_555
C35_2 C40_2 1_555 1_555
N19 C33_2 1_555 1_555
C33_2 H21_2 1_555 1_555
H23_2 C36_2 1_555 1_555
C37_2 N19 1_555 1_555
H24_2 C37_2 1_555 1_555
C36_2 C37_2 1_555 1_555
S4_2 C2_2 1_555 1_555
C2_2 N2_2 1_555 1_555
N8_2 C20_2 1_555 1_555
N9_2 C20_2 1_555 1_555
N10_2 C21_2 1_555 1_555
C10_2 N6_2 1_555 1_555
H5_2 C10_2 1_555 1_555
C11_2 C10_2 1_555 1_555
H6_2 C11_2 1_555 1_555
C12_2 C11_2 1_555 1_555
C13_2 C12_2 1_555 1_555
H7_2 C13_2 1_555 1_555
H10_2 C16_2 1_555 1_555
C17_2 C16_2 1_555 1_555
C18_2 C17_2 1_555 1_555
H11_2 C18_2 1_555 1_555
C21_2 N8_2 1_555 1_555
C22_2 N9_2 1_555 1_555
H25_2 O1_2 1_555 1_555
C41_2 O1_2 1_555 1_555
H26_2 C41_2 1_555 1_555
H27_2 C41_2 1_555 1_555
C42_2 C41_2 1_555 1_555
C43_2 C42_2 1_555 1_555
H28_2 C43_2 1_555 1_555
C44 C43_2 1_555 1_555
H29 C44 1_555 1_555
C45 C44 1_555 1_555
H30 C45 1_555 1_555
C46_2 C45 1_555 1_555
H31 C46_2 1_555 1_555
C47_2 C42_2 1_555 1_555
H32_2 C47_2 1_555 1_555
N10_2 C22_2 1_555 1_555
C12_2 C21_2 1_555 1_555
C17_2 C22_2 1_555 1_555
C46_2 C47_2 1_555 1_555
H38_2 C52_2 1_555 1_555
H29_2 C44_2 1_555 1_555
C45_2 C44_2 1_555 1_555
H30_2 C45_2 1_555 1_555
S4_3 C2_3 1_555 1_555
C2_3 N2_3 1_555 1_555
N8_3 C20_3 1_555 1_555
N9_3 C20_3 1_555 1_555
N10_3 C21_3 1_555 1_555
C10_3 N6_3 1_555 1_555
H5_3 C10_3 1_555 1_555
C11_3 C10_3 1_555 1_555
H6_3 C11_3 1_555 1_555
C12_3 C11_3 1_555 1_555
C13_3 C12_3 1_555 1_555
H7_3 C13_3 1_555 1_555
H10_3 C16_3 1_555 1_555
C17_3 C16_3 1_555 1_555
C18_3 C17_3 1_555 1_555
H11_3 C18_3 1_555 1_555
C21_3 N8_3 1_555 1_555
C22_3 N9_3 1_555 1_555
H25_3 O1_3 1_555 1_555
C41_3 O1_3 1_555 1_555
H26_3 C41_3 1_555 1_555
H27_3 C41_3 1_555 1_555
C42_3 C41_3 1_555 1_555
C43_3 C42_3 1_555 1_555
H28_3 C43_3 1_555 1_555
C44_3 C43_3 1_555 1_555
H29_3 C44_3 1_555 1_555
C45_3 C44_3 1_555 1_555
H30_3 C45_3 1_555 1_555
C46_3 C45_3 1_555 1_555
H31_3 C46_3 1_555 1_555
C47_3 C42_3 1_555 1_555
H32_3 C47_3 1_555 1_555
N10_3 C22_3 1_555 1_555
C12_3 C21_3 1_555 1_555
C17_3 C22_3 1_555 1_555
C46_3 C47_3 1_555 1_555
Fe2 N3_3 1_555 1_555
S1_3 C3_3 1_555 1_555
S2_3 C4_3 1_555 1_555
C3_3 N3_3 1_555 1_555
C4_3 N4_3 1_555 1_555
N4_3 Fe2 1_555 1_555
N5_3 Fe2 1_555 1_555
C5_3 N5_3 1_555 1_555
H1_3 C5_3 1_555 1_555
C6_3 C5_3 1_555 1_555
H2_3 C6_3 1_555 1_555
C7_3 C6_3 1_555 1_555
C8_3 C7_3 1_555 1_555
H3_3 C8_3 1_555 1_555
C9_3 N5_3 1_555 1_555
H4_3 C9_3 1_555 1_555
O2_3 Fe2 1_555 1_555
H33_3 O2_3 1_555 1_555
C48_3 O2_3 1_555 1_555
H34_3 C48_3 1_555 1_555
H35_3 C48_3 1_555 1_555
C49_3 C48_3 1_555 1_555
C50_3 C49_3 1_555 1_555
H36_3 C50_3 1_555 1_555
C51_3 C50_3 1_555 1_555
H37_3 C51_3 1_555 1_555
C52_3 C51_3 1_555 1_555
H38_3 C52_3 1_555 1_555
C53_3 C52_3 1_555 1_555
H39_3 C53_3 1_555 1_555
C54_3 C49_3 1_555 1_555
H40_3 C54_3 1_555 1_555
N18_2 Fe2 1_555 1_555
N19_2 Fe2 1_555 1_555
C8_3 C9_3 1_555 1_555
C53_3 C54_3 1_555 1_555
N7_2 C15_3 1_555 1_555
C19_3 N7_2 1_555 1_555
H12_3 C19_3 1_555 1_555
Fe3_2 N7_2 1_555 1_555
Fe1_2 N1_3 1_555 1_555
S3_3 C1_3 1_555 1_555
C1_3 N1_3 1_555 1_555
H8_3 C14_3 1_555 1_555
N11_3 Fe1_2 1_555 1_555
C23_3 N11_3 1_555 1_555
H13_3 C23_3 1_555 1_555
C24_3 C23_3 1_555 1_555
H14_3 C24_3 1_555 1_555
C25_3 C24_3 1_555 1_555
C26_3 C25_3 1_555 1_555
H15_3 C26_3 1_555 1_555
C27_3 N11_3 1_555 1_555
H16_3 C27_3 1_555 1_555
N17_2 Fe1_2 1_555 1_555
C26_3 C27_3 1_555 1_555
N18_2 C28_3 1_555 1_555
N13_2 C33_3 1_555 1_555
N14_3 C38_3 1_555 1_555
N15_3 C39_3 1_555 1_555
N16_3 C38_3 1_555 1_555
C28_3 H17_3 1_555 1_555
C29_3 C28_3 1_555 1_555
H18_3 C29_3 1_555 1_555
C30_3 C29_3 1_555 1_555
C31_3 C30_3 1_555 1_555
H19_3 C31_3 1_555 1_555
C32_3 N18_2 1_555 1_555
H20_3 C32_3 1_555 1_555
C33_3 H21_3 1_555 1_555
C34_3 C33_3 1_555 1_555
H22_3 C34_3 1_555 1_555
C35_3 C34_3 1_555 1_555
C36_3 C35_3 1_555 1_555
H23_3 C36_3 1_555 1_555
C37_3 N13_2 1_555 1_555
H24_3 C37_3 1_555 1_555
C39_3 N14_3 1_555 1_555
C40_3 N15_3 1_555 1_555
Fe5_2 N13_2 1_555 1_555
N16_3 C40_3 1_555 1_555
C30_3 C39_3 1_555 1_555
C31_3 C32_3 1_555 1_555
C35_3 C40_3 1_555 1_555
C36_3 C37_3 1_555 1_555
N19_2 C33_4 1_555 1_555
C33_4 H21_4 1_555 1_555
H23_4 C36_4 1_555 1_555
C37_4 N19_2 1_555 1_555
H24_4 C37_4 1_555 1_555
C36_4 C37_4 1_555 1_555
Fe3_2 N1_4 1_555 1_555
S3_4 C1_4 1_555 1_555
C1_4 N1_4 1_555 1_555
H8_4 C14_4 1_555 1_555
N11_4 Fe3_2 1_555 1_555
N12_2 C28_4 1_555 1_555
N14_4 C38_4 1_555 1_555
N15_4 C39_4 1_555 1_555
N16_4 C38_4 1_555 1_555
C23_4 N11_4 1_555 1_555
H13_4 C23_4 1_555 1_555
C24_4 C23_4 1_555 1_555
H14_4 C24_4 1_555 1_555
C25_4 C24_4 1_555 1_555
C26_4 C25_4 1_555 1_555
H15_4 C26_4 1_555 1_555
C27_4 N11_4 1_555 1_555
H16_4 C27_4 1_555 1_555
C28_4 H17_4 1_555 1_555
C29_4 C28_4 1_555 1_555
H18_4 C29_4 1_555 1_555
C30_4 C29_4 1_555 1_555
C31_4 C30_4 1_555 1_555
H19_4 C31_4 1_555 1_555
C32_4 N12_2 1_555 1_555
H20_4 C32_4 1_555 1_555
H22_4 C34_4 1_555 1_555
C35_4 C34_4 1_555 1_555
C38_4 C25_4 1_555 1_555
C39_4 N14_4 1_555 1_555
C40_4 N15_4 1_555 1_555
Fe5_2 N12_2 1_555 1_555
N16_4 C40_4 1_555 1_555
C26_4 C27_4 1_555 1_555
C30_4 C39_4 1_555 1_555
C31_4 C32_4 1_555 1_555
C35_4 C40_4 1_555 1_555
Fe5_2 N3_4 1_555 1_555
S1_4 C3_4 1_555 1_555
S2_4 C4_4 1_555 1_555
S4_4 C2_4 1_555 1_555
C2_4 N2_4 1_555 1_555
C3_4 N3_4 1_555 1_555
C4_4 N4_4 1_555 1_555
N4_4 Fe5_2 1_555 1_555
N5_4 Fe5_2 1_555 1_555
N17_2 C15_4 1_555 1_555
N8_4 C20_4 1_555 1_555
N9_4 C20_4 1_555 1_555
N10_4 C21_4 1_555 1_555
C5_4 N5_4 1_555 1_555
H1_4 C5_4 1_555 1_555
C6_4 C5_4 1_555 1_555
H2_4 C6_4 1_555 1_555
C7_4 C6_4 1_555 1_555
C8_4 C7_4 1_555 1_555
H3_4 C8_4 1_555 1_555
C9_4 N5_4 1_555 1_555
H4_4 C9_4 1_555 1_555
C10_4 N6_4 1_555 1_555
H5_4 C10_4 1_555 1_555
C11_4 C10_4 1_555 1_555
H6_4 C11_4 1_555 1_555
C12_4 C11_4 1_555 1_555
C13_4 C12_4 1_555 1_555
H7_4 C13_4 1_555 1_555
C16_4 C15_4 1_555 1_555
H10_4 C16_4 1_555 1_555
C17_4 C16_4 1_555 1_555
C18_4 C17_4 1_555 1_555
H11_4 C18_4 1_555 1_555
C19_4 N17_2 1_555 1_555
H12_4 C19_4 1_555 1_555
C20_4 C7_4 1_555 1_555
C21_4 N8_4 1_555 1_555
C22_4 N9_4 1_555 1_555
H25_4 O1_4 1_555 1_555
C41_4 O1_4 1_555 1_555
H26_4 C41_4 1_555 1_555
H27_4 C41_4 1_555 1_555
C42_4 C41_4 1_555 1_555
C43_4 C42_4 1_555 1_555
H28_4 C43_4 1_555 1_555
C47_4 C42_4 1_555 1_555
H32_4 C47_4 1_555 1_555
O2_4 Fe5_2 1_555 1_555
H33_4 O2_4 1_555 1_555
C48_4 O2_4 1_555 1_555
H34_4 C48_4 1_555 1_555
H35_4 C48_4 1_555 1_555
C49_4 C48_4 1_555 1_555
C50_4 C49_4 1_555 1_555
H36_4 C50_4 1_555 1_555
C51_4 C50_4 1_555 1_555
H37_4 C51_4 1_555 1_555
C54_4 C49_4 1_555 1_555
H40_4 C54_4 1_555 1_555
N10_4 C22_4 1_555 1_555
C8_4 C9_4 1_555 1_555
C12_4 C21_4 1_555 1_555
C17_4 C22_4 1_555 1_555
C18_4 C19_4 1_555 1_555
C46_4 C47_4 1_555 1_555
C53_4 C54_4 1_555 1_555
H29_4 C44_4 1_555 1_555
C45_4 C44_4 1_555 1_555
H30_4 C45_4 1_555 1_555
H38_4 C52_4 1_555 1_555

#END
