
###############################################################################
#
# This file contains modified crystal structure data generated from the
# MOF subset of the Cambridge Structural Database (CSD) v543 
# hosted by the Cambridge Crystallographic Data Centre (CCDC).
#
# This work is licensed under the Creative Commons
# Attribution-NonCommercial-ShareAlike 4.0 International License.
# To view a copy of this license, visit
# http://creativecommons.org/licenses/by-nc-sa/4.0/
# or send a letter to
# Creative Commons, PO Box 1866, Mountain View, CA 94042, USA.
#
# CIF created using the CSD Python API on 29 September 2022
# The structure has been converted into the P1 space group
# The structure has a 3D framework
# The original CSD entry XANLUV is in the orthorhombic crystal system
# The framework has been calculated to contain at least 10.0% void space
# The void calculation uses a probe of radius 1.32A, grid spacing 0.4
#
###############################################################################

data_XANLUV
_chemical_formula_moiety         '(C264 H144 N8 O90 Zn30)n'
_symmetry_cell_setting           triclinic
_symmetry_space_group_name_H-M   'P 1'
_symmetry_Int_Tables_number      1
_space_group_name_Hall           'P 1'
loop_
_symmetry_equiv_pos_site_id
_symmetry_equiv_pos_as_xyz
1 x,y,z
_cell_length_a                   25.0572(5)
_cell_length_b                   25.4805(5)
_cell_length_c                   32.9266(6)
_cell_angle_alpha                90
_cell_angle_beta                 90
_cell_angle_gamma                90
_cell_volume                     21022.6
loop_
_atom_site_label
_atom_site_type_symbol
_atom_site_fract_x
_atom_site_fract_y
_atom_site_fract_z
O12 O 0.14972(15) 0.46380(18) 0.60024(13)
O13 O 0.16733(13) 0.53295(15) 0.64210(10)
C22 C 0.0429(3) 0.4732(2) 0.61422(16)
H12 H 0.0560 0.4482 0.5953
C23 C 0.0780(2) 0.5049(3) 0.6353(2)
C24 C 0.0586(3) 0.5417(3) 0.66464(17)
H13 H 0.0827 0.5630 0.6796
C25 C 0.0041(3) 0.5456(3) 0.67078(17)
C26 C 0.1367(2) 0.4984(3) 0.62433(19)
Zn13 Zn 0.24236(2) 0.54299(3) 0.63047(2)
Zn16 Zn 0.21506(3) 0.44924(3) 0.57244(2)
O16 O 0.26968(9) 0.49868(12) 0.58718(7)
O29 O 0.2358(2) 0.38406(19) 0.58763(15)
O31 O 0.19516(16) 0.45742(17) 0.51732(12)
Zn1 Zn 0.71235(2) 0.46009(3) 0.460923(19)
Zn2 Zn 0.66773(2) 0.53794(3) 0.393798(19)
Zn3 Zn 0.75764(2) 0.45701(3) 0.36953(2)
Zn4 Zn 0.78494(3) 0.55076(3) 0.42756(2)
O1 O 0.73032(9) 0.50132(12) 0.41282(7)
O2 O 0.85112(13) 0.48394(15) 0.83972(10)
O3 O 0.78157(13) 0.53427(14) 0.81927(9)
O4 O 0.75104(15) 0.38440(15) 0.38592(12)
O5 O 0.72168(14) 0.38579(15) 0.45079(12)
O6 O 0.63844(14) 0.47027(15) 0.47620(11)
O7 O 0.60580(13) 0.52454(16) 0.42767(12)
O8 O 0.67650(17) 0.61524(15) 0.39213(11)
O9 O 0.7642(2) 0.61594(19) 0.41237(15)
O10 O 0.80484(16) 0.54258(17) 0.48268(12)
O11 O 0.75418(14) 0.47752(17) 0.50806(11)
N1 N 0.9144(2) 0.5206(3) 0.65501(17)
C1 C 0.7362(2) 0.3626(3) 0.4180(2)
C2 C 0.7374(2) 0.3052(3) 0.41753(19)
C3 C 0.7516(3) 0.2765(2) 0.38370(19)
H1 H 0.7616 0.2946 0.3597
C4 C 0.7207(2) 0.27655(17) 0.45135(19)
H2 H 0.7091 0.2948 0.4749
C5 C 0.6018(3) 0.4982(3) 0.4590(2)
C6 C 0.5480(2) 0.4995(3) 0.4802(2)
C7 C 0.5077(3) 0.5281(2) 0.46337(16)
H3 H 0.5132 0.5468 0.4388
C8 C 0.5415(2) 0.4705(2) 0.5172(2)
H4 H 0.5702 0.4508 0.5282
C9 C 0.7182(3) 0.6436(5) 0.3997(2)
C10 C 0.7146(4) 0.6988(3) 0.3978(3)
C11 C 0.6693(3) 0.7238(2) 0.3891(2)
H5 H 0.6377 0.7047 0.3831
C12 C 0.7636(3) 0.7239(2) 0.4021(3)
H6 H 0.7957 0.7045 0.4050
C13 C 0.8255(2) 0.5107(3) 0.81338(19)
C14 C 0.8470(2) 0.5151(3) 0.77118(19)
C15 C 0.8960(2) 0.4881(2) 0.7625(2)
H7 H 0.9132 0.4683 0.7831
C16 C 0.9185(2) 0.4909(3) 0.7237(2)
H8 H 0.9514 0.4741 0.7178
C17 C 0.8907(3) 0.5197(3) 0.6933(2)
C18 C 0.8430(2) 0.5447(3) 0.7020(2)
H9 H 0.8246 0.5633 0.6812
C19 C 0.8222(2) 0.5426(2) 0.7406(2)
H10 H 0.7899 0.5607 0.7463
C20 C 0.9693(3) 0.5144(4) 0.6492(2)
C21 C 0.9873(3) 0.4780(3) 0.62083(19)
H11 H 0.9628 0.4568 0.6062
H14 H 0.9906 0.5700 0.6900
C27 C 0.8822(3) 0.5211(4) 0.6202(3)
C28 C 0.8382(3) 0.4879(3) 0.62020(17)
H15 H 0.8288 0.4680 0.6435
C29 C 0.8068(2) 0.4850(3) 0.5825(2)
H16 H 0.7771 0.4620 0.5809
C30 C 0.8208(2) 0.5159(3) 0.5493(2)
C31 C 0.8637(3) 0.5486(3) 0.55216(19)
H17 H 0.8727 0.5705 0.5299
C32 C 0.8957(2) 0.5503(3) 0.5885(2)
H18 H 0.9263 0.5722 0.5898
C33 C 0.7911(3) 0.5113(3) 0.5111(2)
Zn5 Zn 0.71235(2) 0.03991(3) 0.460923(19)
Zn6 Zn 0.28765(2) 0.53991(3) 0.539077(19)
Zn8 Zn 0.83227(2) 0.46206(3) 0.893798(19)
Zn9 Zn 0.33227(2) 0.46206(3) 0.606202(19)
Zn10 Zn 0.66773(2) 0.96206(3) 0.393798(19)
Zn12 Zn 0.74236(2) 0.54299(3) 0.86953(2)
Zn14 Zn 0.75764(2) 0.04299(3) 0.36953(2)
Zn15 Zn 0.25764(2) 0.45701(3) 0.13047(2)
Zn17 Zn 0.78494(3) 0.94924(3) 0.42756(2)
Zn19 Zn 0.28494(3) 0.55076(3) 0.07244(2)
O15 O 0.76968(9) 0.49868(12) 0.91282(7)
O17 O 0.64888(13) 0.51606(15) 0.33972(10)
O18 O 0.71843(13) 0.46573(14) 0.31927(9)
O19 O 0.75104(15) 0.11560(15) 0.38592(12)
O20 O 0.74896(15) 0.61560(15) 0.88592(12)
O21 O 0.72168(14) 0.11421(15) 0.45079(12)
O22 O 0.36156(14) 0.52973(15) 0.52380(11)
O23 O 0.63844(14) 0.02973(15) 0.47620(11)
O24 O 0.39420(13) 0.47546(16) 0.57233(12)
O25 O 0.89420(13) 0.47546(16) 0.92767(12)
O26 O 0.67650(17) 0.88476(15) 0.39213(11)
O27 O 0.82350(17) 0.38476(15) 0.89213(11)
O28 O 0.7642(2) 0.88406(19) 0.41237(15)
O32 O 0.74582(14) 0.52248(17) 0.00806(11)
O33 O 0.75418(14) 0.02248(17) 0.50806(11)
O34 O 0.35028(15) 0.53620(18) 0.10024(13)
O35 O 0.85028(15) 0.53620(18) 0.39976(13)
O36 O 0.33267(13) 0.46705(15) 0.14210(10)
O37 O 0.83267(13) 0.46705(15) 0.35790(10)
O38 O 0.66733(13) 0.53295(15) 0.85790(10)
N2 N 0.5856(2) 0.4794(3) 0.15501(17)
C34 C 0.7362(2) 0.1374(3) 0.4180(2)
C35 C 0.7374(2) 0.1948(3) 0.41753(19)
C36 C 0.7516(3) 0.2235(2) 0.38370(19)
H19 H 0.7616 0.2054 0.3597
C37 C 0.7207(2) 0.22345(17) 0.45135(19)
H20 H 0.7091 0.2052 0.4749
C38 C 0.3982(3) 0.5018(3) 0.5410(2)
C39 C 0.4520(2) 0.5005(3) 0.5198(2)
C40 C 0.4923(3) 0.4719(2) 0.53663(16)
H21 H 0.4868 0.4532 0.5612
C41 C 0.4585(2) 0.5295(2) 0.4828(2)
H22 H 0.4298 0.5492 0.4718
C42 C 0.7182(3) 0.8564(5) 0.3997(2)
C43 C 0.7146(4) 0.8012(3) 0.3978(3)
C44 C 0.6693(3) 0.7762(2) 0.3891(2)
H23 H 0.6377 0.7953 0.3831
C45 C 0.7636(3) 0.7761(2) 0.4021(3)
H24 H 0.7957 0.7955 0.4050
C46 C 0.6745(2) 0.4893(3) 0.31338(19)
C47 C 0.6530(2) 0.4849(3) 0.27118(19)
C48 C 0.6040(2) 0.5119(2) 0.2625(2)
H25 H 0.5868 0.5317 0.2831
C49 C 0.5815(2) 0.5091(3) 0.2237(2)
H26 H 0.5486 0.5259 0.2178
C50 C 0.6093(3) 0.4803(3) 0.1933(2)
C51 C 0.6570(2) 0.4553(3) 0.2020(2)
H27 H 0.6754 0.4367 0.1812
C52 C 0.6778(2) 0.4574(2) 0.2406(2)
H28 H 0.7101 0.4393 0.2463
C53 C 0.5307(3) 0.4856(4) 0.1492(2)
C54 C 0.5127(3) 0.5220(3) 0.12083(19)
H29 H 0.5372 0.5432 0.1062
C55 C 0.4571(3) 0.5268(2) 0.11422(16)
H30 H 0.4440 0.5518 0.0953
C56 C 0.4220(2) 0.4951(3) 0.1353(2)
C57 C 0.4414(3) 0.4583(3) 0.16464(17)
H31 H 0.4173 0.4370 0.1796
C58 C 0.4959(3) 0.4544(3) 0.17078(17)
H32 H 0.5094 0.4300 0.1900
C59 C 0.3633(2) 0.5016(3) 0.12433(19)
C60 C 0.6178(3) 0.4789(4) 0.1202(3)
C61 C 0.6618(3) 0.5121(3) 0.12020(17)
H33 H 0.6712 0.5320 0.1435
C62 C 0.6932(2) 0.5150(3) 0.0825(2)
H34 H 0.7229 0.5380 0.0809
C63 C 0.6792(2) 0.4841(3) 0.0493(2)
C64 C 0.6363(3) 0.4514(3) 0.05216(19)
H35 H 0.6273 0.4295 0.0299
C65 C 0.6043(2) 0.4497(3) 0.0885(2)
H36 H 0.5737 0.4278 0.0898
C66 C 0.7089(3) 0.4887(3) 0.0111(2)
Zn7 Zn 0.78765(2) 0.53991(3) 0.960923(19)
Zn18 Zn 0.71506(3) 0.44924(3) 0.92756(2)
O30 O 0.69516(16) 0.45742(17) 0.98268(12)
O14 O 0.73032(9) 0.99868(12) 0.41282(7)
Zn6_2 Zn 0.21235(2) 0.46009(3) 0.039077(19)
Zn9_2 Zn 0.16773(2) 0.53794(3) 0.106202(19)
O22_2 O 0.13844(14) 0.47027(15) 0.02380(11)
O24_2 O 0.10580(13) 0.52454(16) 0.07233(12)
C38_2 C 0.1018(3) 0.4982(3) 0.0410(2)
C39_2 C 0.0480(2) 0.4995(3) 0.0198(2)
C40_2 C 0.0077(3) 0.5281(2) 0.03663(16)
H21_2 H 0.0132 0.5468 0.0612
C41_2 C 0.0415(2) 0.4705(2) 0.9828(2)
H22_2 H 0.0702 0.4508 0.9718
Zn11 Zn 0.83227(2) 0.03794(3) 0.893798(19)
Zn20 Zn 0.71506(3) 0.05076(3) 0.92756(2)
O14_2 O 0.76968(9) 0.00132(12) 0.91282(7)
C8_2 C 0.9585(2) 0.5295(2) 0.0172(2)
H4_2 H 0.9298 0.5492 0.0282
O16_2 O 0.23032(9) 0.50132(12) 0.08718(7)
O29_2 O 0.2642(2) 0.61594(19) 0.08763(15)
O31_2 O 0.30484(16) 0.54258(17) 0.01732(12)
O33_2 O 0.74582(14) 0.97752(17) 0.00806(11)
O5_2 O 0.77832(14) 0.61421(15) 0.95079(12)
O6_2 O 0.86156(14) 0.52973(15) 0.97620(11)
O9_2 O 0.7358(2) 0.38406(19) 0.91237(15)
C1_2 C 0.7638(2) 0.6374(3) 0.9180(2)
C2_2 C 0.7626(2) 0.6948(3) 0.91753(19)
C3_2 C 0.7484(3) 0.7235(2) 0.88370(19)
H1_2 H 0.7384 0.7054 0.8597
C4_2 C 0.7793(2) 0.72345(17) 0.95135(19)
H2_2 H 0.7909 0.7052 0.9749
C5_2 C 0.8982(3) 0.5018(3) 0.9590(2)
C6_2 C 0.9520(2) 0.5005(3) 0.9802(2)
C7_2 C 0.9923(3) 0.4719(2) 0.96337(16)
H3_2 H 0.9868 0.4532 0.9388
C9_2 C 0.7818(3) 0.3564(5) 0.8997(2)
C10_2 C 0.7854(4) 0.3012(3) 0.8978(3)
C11_2 C 0.8307(3) 0.2762(2) 0.8891(2)
H5_2 H 0.8623 0.2953 0.8831
C12_2 C 0.7364(3) 0.2761(2) 0.9021(3)
H6_2 H 0.7043 0.2955 0.9050
Zn5_2 Zn 0.78765(2) 0.96009(3) 0.960923(19)
Zn14_2 Zn 0.74236(2) 0.95701(3) 0.86953(2)
O19_2 O 0.74896(15) 0.88440(15) 0.88592(12)
O21_2 O 0.77832(14) 0.88579(15) 0.95079(12)
O23_2 O 0.86156(14) 0.97027(15) 0.97620(11)
O26_2 O 0.82350(17) 0.11524(15) 0.89213(11)
O28_2 O 0.7358(2) 0.11594(19) 0.91237(15)
O35_2 O 0.64972(15) 0.46380(18) 0.89976(13)
C34_2 C 0.7638(2) 0.8626(3) 0.9180(2)
C35_2 C 0.7626(2) 0.8052(3) 0.91753(19)
C36_2 C 0.7484(3) 0.7765(2) 0.88370(19)
H19_2 H 0.7384 0.7946 0.8597
C37_2 C 0.7793(2) 0.77655(17) 0.95135(19)
H20_2 H 0.7909 0.7948 0.9749
C42_2 C 0.7818(3) 0.1436(5) 0.8997(2)
C43_2 C 0.7854(4) 0.1988(3) 0.8978(3)
C44_2 C 0.8307(3) 0.2238(2) 0.8891(2)
H23_2 H 0.8623 0.2047 0.8831
C45_2 C 0.7364(3) 0.2239(2) 0.9021(3)
H24_2 H 0.7043 0.2045 0.9050
Zn1_2 Zn 0.21235(2) 0.03991(3) 0.039077(19)
Zn3_2 Zn 0.25764(2) 0.04299(3) 0.13047(2)
O4_2 O 0.25104(15) 0.11560(15) 0.11408(12)
O5_3 O 0.22168(14) 0.11421(15) 0.04921(12)
O6_3 O 0.13844(14) 0.02973(15) 0.02380(11)
C1_3 C 0.2362(2) 0.1374(3) 0.0820(2)
C2_3 C 0.2374(2) 0.1948(3) 0.08247(19)
C3_3 C 0.2516(3) 0.2235(2) 0.11630(19)
H1_3 H 0.2616 0.2054 0.1403
C4_3 C 0.2207(2) 0.22345(17) 0.04865(19)
H2_3 H 0.2091 0.2052 0.0251
C5_3 C 0.1018(3) 0.0018(3) 0.0410(2)
C6_3 C 0.0480(2) 0.0005(3) 0.0198(2)
Zn18_2 Zn 0.21506(3) 0.05076(3) 0.57244(2)
O18_2 O 0.21843(13) 0.03427(14) 0.18073(9)
O19_3 O 0.25104(15) 0.38440(15) 0.11408(12)
O21_3 O 0.22168(14) 0.38579(15) 0.04921(12)
O30_2 O 0.19516(16) 0.04258(17) 0.51732(12)
O37_2 O 0.33267(13) 0.03295(15) 0.14210(10)
N2_2 N 0.0856(2) 0.0206(3) 0.34499(17)
C34_3 C 0.2362(2) 0.3626(3) 0.0820(2)
C35_3 C 0.2374(2) 0.3052(3) 0.08247(19)
C36_3 C 0.2516(3) 0.2765(2) 0.11630(19)
H19_3 H 0.2616 0.2946 0.1403
C37_3 C 0.2207(2) 0.27655(17) 0.04865(19)
H20_3 H 0.2091 0.2948 0.0251
C46_2 C 0.1745(2) 0.0107(3) 0.18662(19)
C47_2 C 0.1530(2) 0.0151(3) 0.22882(19)
C50_2 C 0.1093(3) 0.0197(3) 0.3067(2)
C51_2 C 0.1570(2) 0.0447(3) 0.2980(2)
H27_2 H 0.1754 0.0633 0.3188
C52_2 C 0.1778(2) 0.0426(2) 0.2594(2)
H28_2 H 0.2101 0.0607 0.2537
C53_2 C 0.0307(3) 0.0144(4) 0.3508(2)
H32_2 H 0.0094 0.0700 0.3100
C60_2 C 0.1178(3) 0.0211(4) 0.3798(3)
C63_2 C 0.1792(2) 0.0159(3) 0.4507(2)
C64_2 C 0.1363(3) 0.0486(3) 0.44784(19)
H35_2 H 0.1273 0.0705 0.4701
C65_2 C 0.1043(2) 0.0503(3) 0.4115(2)
H36_2 H 0.0737 0.0722 0.4102
C66_2 C 0.2089(3) 0.0113(3) 0.4889(2)
O2_2 O 0.35112(13) 0.01606(15) 0.66028(10)
O11_2 O 0.25418(14) 0.02248(17) 0.99194(11)
O12_2 O 0.64972(15) 0.03620(18) 0.89976(13)
C8_3 C 0.0415(2) 0.0295(2) 0.9828(2)
H4_3 H 0.0702 0.0492 0.9718
C15_2 C 0.3960(2) 0.0119(2) 0.7375(2)
H7_2 H 0.4132 0.0317 0.7169
C16_2 C 0.4185(2) 0.0091(3) 0.7763(2)
H8_2 H 0.4514 0.0259 0.7822
C21_2 C 0.4873(3) 0.0220(3) 0.87917(19)
H11_2 H 0.4628 0.0432 0.8938
C22_2 C 0.5429(3) 0.0268(2) 0.88578(16)
H12_2 H 0.5560 0.0518 0.9047
C26_2 C 0.6367(2) 0.0016(3) 0.87567(19)
C28_2 C 0.3382(3) 0.0121(3) 0.87980(17)
H15_2 H 0.3288 0.0320 0.8565
C29_2 C 0.3068(2) 0.0150(3) 0.9175(2)
H16_2 H 0.2771 0.0380 0.9191
Zn8_2 Zn 0.33227(2) 0.03794(3) 0.606202(19)
O15_2 O 0.26968(9) 0.00132(12) 0.58718(7)
O25_2 O 0.39420(13) 0.02454(16) 0.57233(12)
O27_2 O 0.32350(17) 0.11524(15) 0.60787(11)
O31_3 O 0.69516(16) 0.04258(17) 0.98268(12)
O33_3 O 0.25418(14) 0.47752(17) 0.99194(11)
Zn2_2 Zn 0.16773(2) 0.96206(3) 0.106202(19)
Zn4_2 Zn 0.28494(3) 0.94924(3) 0.07244(2)
O1_2 O 0.23032(9) 0.99868(12) 0.08718(7)
O7_2 O 0.10580(13) 0.97546(16) 0.07233(12)
O8_2 O 0.17650(17) 0.88476(15) 0.10787(11)
O9_3 O 0.2642(2) 0.88406(19) 0.08763(15)
O10_2 O 0.30484(16) 0.95742(17) 0.01732(12)
C7_3 C 0.0077(3) 0.9719(2) 0.03663(16)
H3_3 H 0.0132 0.9532 0.0612
C9_3 C 0.2182(3) 0.8564(5) 0.1003(2)
C10_3 C 0.2146(4) 0.8012(3) 0.1022(3)
C11_3 C 0.1693(3) 0.7762(2) 0.1109(2)
H5_3 H 0.1377 0.7953 0.1169
C12_3 C 0.2636(3) 0.7761(2) 0.0979(3)
H6_3 H 0.2957 0.7955 0.0950
Zn7_2 Zn 0.28765(2) 0.96009(3) 0.539077(19)
O17_2 O 0.14888(13) 0.98394(15) 0.16028(10)
O26_3 O 0.17650(17) 0.61524(15) 0.10787(11)
O32_2 O 0.24582(14) 0.97752(17) 0.49194(11)
O35_3 O 0.35028(15) 0.96380(18) 0.10024(13)
C42_3 C 0.2182(3) 0.6436(5) 0.1003(2)
C43_3 C 0.2146(4) 0.6988(3) 0.1022(3)
C44_3 C 0.1693(3) 0.7238(2) 0.1109(2)
H23_3 H 0.1377 0.7047 0.1169
C45_3 C 0.2636(3) 0.7239(2) 0.0979(3)
H24_3 H 0.2957 0.7045 0.0950
C48_2 C 0.1040(2) 0.9881(2) 0.2375(2)
H25_2 H 0.0868 0.9683 0.2169
C49_2 C 0.0815(2) 0.9909(3) 0.2763(2)
H26_2 H 0.0486 0.9741 0.2822
C54_2 C 0.0127(3) 0.9780(3) 0.37917(19)
H29_2 H 0.0372 0.9568 0.3938
C61_2 C 0.1618(3) 0.9879(3) 0.37980(17)
H33_2 H 0.1712 0.9680 0.3565
C62_2 C 0.1932(2) 0.9850(3) 0.4175(2)
H34_2 H 0.2229 0.9620 0.4191
O3_2 O 0.28157(13) 0.96573(14) 0.68073(9)
O13_2 O 0.66733(13) 0.96705(15) 0.85790(10)
N1_2 N 0.4144(2) 0.9794(3) 0.84499(17)
C13_2 C 0.3255(2) 0.9893(3) 0.68662(19)
C14_2 C 0.3470(2) 0.9849(3) 0.72882(19)
C17_2 C 0.3907(3) 0.9803(3) 0.8067(2)
C18_2 C 0.3430(2) 0.9553(3) 0.7980(2)
H9_2 H 0.3246 0.9367 0.8188
C19_2 C 0.3222(2) 0.9574(2) 0.7594(2)
H10_2 H 0.2899 0.9393 0.7537
C20_2 C 0.4693(3) 0.9856(4) 0.8508(2)
C23_2 C 0.5780(2) 0.9951(3) 0.8647(2)
C24_2 C 0.5586(3) 0.9583(3) 0.83536(17)
H13_2 H 0.5827 0.9370 0.8204
C25_2 C 0.5041(3) 0.9544(3) 0.82922(17)
H14_2 H 0.4906 0.9300 0.8100
C27_2 C 0.3822(3) 0.9789(4) 0.8798(3)
C30_2 C 0.3208(2) 0.9841(3) 0.9507(2)
C31_2 C 0.3637(3) 0.9514(3) 0.94784(19)
H17_2 H 0.3727 0.9295 0.9701
C32_2 C 0.3957(2) 0.9497(3) 0.9115(2)
H18_2 H 0.4263 0.9278 0.9102
C33_2 C 0.2911(3) 0.9887(3) 0.9889(2)
Zn12_2 Zn 0.24236(2) 0.95701(3) 0.63047(2)
O20_2 O 0.24896(15) 0.88440(15) 0.61408(12)
O38_2 O 0.16733(13) 0.96705(15) 0.64210(10)
O36_2 O 0.83267(13) 0.03295(15) 0.35790(10)
C56_2 C 0.9220(2) 0.0049(3) 0.3647(2)
C57_2 C 0.9414(3) 0.0417(3) 0.33536(17)
H31_2 H 0.9173 0.0630 0.3204
C58_2 C 0.9959(3) 0.0456(3) 0.32922(17)
O24_3 O 0.89420(13) 0.02454(16) 0.92767(12)
C40_3 C 0.9923(3) 0.0281(2) 0.96337(16)
H21_3 H 0.9868 0.0468 0.9388
O34_2 O 0.85028(15) 0.96380(18) 0.39976(13)
C41_3 C 0.9585(2) 0.9705(2) 0.0172(2)
H22_3 H 0.9298 0.9508 0.0282
C55_2 C 0.9571(3) 0.9732(2) 0.38578(16)
H30_2 H 0.9440 0.9482 0.4047
C59_2 C 0.8633(2) 0.9984(3) 0.37567(19)
C38_3 C 0.8982(3) 0.9982(3) 0.9590(2)
C39_3 C 0.9520(2) 0.9995(3) 0.9802(2)
O9_4 O 0.2358(2) 0.11594(19) 0.58763(15)
C7_4 C 0.4923(3) 0.0281(2) 0.53663(16)
H3_4 H 0.4868 0.0468 0.5612
C9_4 C 0.2818(3) 0.1436(5) 0.6003(2)
C10_4 C 0.2854(4) 0.1988(3) 0.6022(3)
C11_4 C 0.3307(3) 0.2238(2) 0.6109(2)
H5_4 H 0.3623 0.2047 0.6169
C12_4 C 0.2364(3) 0.2239(2) 0.5979(3)
H6_4 H 0.2043 0.2045 0.5950
O26_4 O 0.32350(17) 0.38476(15) 0.60787(11)
O35_4 O 0.14972(15) 0.03620(18) 0.60024(13)
C38_4 C 0.6018(3) 0.0018(3) 0.4590(2)
C39_4 C 0.5480(2) 0.0005(3) 0.4802(2)
C41_4 C 0.5415(2) 0.0295(2) 0.5172(2)
H22_4 H 0.5702 0.0492 0.5282
C42_4 C 0.2818(3) 0.3564(5) 0.6003(2)
C43_4 C 0.2854(4) 0.3012(3) 0.6022(3)
C44_4 C 0.3307(3) 0.2762(2) 0.6109(2)
H23_4 H 0.3623 0.2953 0.6169
C45_4 C 0.2364(3) 0.2761(2) 0.5979(3)
H24_4 H 0.2043 0.2955 0.5950
O5_4 O 0.27832(14) 0.88579(15) 0.54921(12)
O6_4 O 0.36156(14) 0.97027(15) 0.52380(11)
C1_4 C 0.2638(2) 0.8626(3) 0.5820(2)
C2_4 C 0.2626(2) 0.8052(3) 0.58247(19)
C3_4 C 0.2484(3) 0.7765(2) 0.61630(19)
H1_4 H 0.2384 0.7946 0.6403
C4_4 C 0.2793(2) 0.77655(17) 0.54865(19)
H2_4 H 0.2909 0.7948 0.5251
C5_4 C 0.3982(3) 0.9982(3) 0.5410(2)
C6_4 C 0.4520(2) 0.9995(3) 0.5198(2)
C8_4 C 0.4585(2) 0.9705(2) 0.4828(2)
H4_4 H 0.4298 0.9508 0.4718
O19_4 O 0.24896(15) 0.61560(15) 0.61408(12)
O21_4 O 0.27832(14) 0.61421(15) 0.54921(12)
O24_4 O 0.60580(13) 0.97546(16) 0.42767(12)
O33_4 O 0.24582(14) 0.52248(17) 0.49194(11)
C34_4 C 0.2638(2) 0.6374(3) 0.5820(2)
C35_4 C 0.2626(2) 0.6948(3) 0.58247(19)
C36_4 C 0.2484(3) 0.7235(2) 0.61630(19)
H19_4 H 0.2384 0.7054 0.6403
C37_4 C 0.2793(2) 0.72345(17) 0.54865(19)
H20_4 H 0.2909 0.7052 0.5251
C40_4 C 0.5077(3) 0.9719(2) 0.46337(16)
H21_4 H 0.5132 0.9532 0.4388
O31_4 O 0.80484(16) 0.95742(17) 0.48268(12)
O2_3 O 0.14888(13) 0.51606(15) 0.16028(10)
O3_3 O 0.21843(13) 0.46573(14) 0.18073(9)
N1_3 N 0.0856(2) 0.4794(3) 0.34499(17)
C13_3 C 0.1745(2) 0.4893(3) 0.18662(19)
C14_3 C 0.1530(2) 0.4849(3) 0.22882(19)
C15_3 C 0.1040(2) 0.5119(2) 0.2375(2)
H7_3 H 0.0868 0.5317 0.2169
C16_3 C 0.0815(2) 0.5091(3) 0.2763(2)
H8_3 H 0.0486 0.5259 0.2822
C17_3 C 0.1093(3) 0.4803(3) 0.3067(2)
C18_3 C 0.1570(2) 0.4553(3) 0.2980(2)
H9_3 H 0.1754 0.4367 0.3188
C19_3 C 0.1778(2) 0.4574(2) 0.2594(2)
H10_3 H 0.2101 0.4393 0.2537
C20_3 C 0.0307(3) 0.4856(4) 0.3508(2)
C21_3 C 0.0127(3) 0.5220(3) 0.37917(19)
H11_3 H 0.0372 0.5432 0.3938
H14_3 H 0.0094 0.4300 0.3100
C27_3 C 0.1178(3) 0.4789(4) 0.3798(3)
C28_3 C 0.1618(3) 0.5121(3) 0.37980(17)
H15_3 H 0.1712 0.5320 0.3565
C29_3 C 0.1932(2) 0.5150(3) 0.4175(2)
H16_3 H 0.2229 0.5380 0.4191
C30_3 C 0.1792(2) 0.4841(3) 0.4507(2)
C31_3 C 0.1363(3) 0.4514(3) 0.44784(19)
H17_3 H 0.1273 0.4295 0.4701
C32_3 C 0.1043(2) 0.4497(3) 0.4115(2)
H18_3 H 0.0737 0.4278 0.4102
C33_3 C 0.2089(3) 0.4887(3) 0.4889(2)
O17_3 O 0.35112(13) 0.48394(15) 0.66028(10)
O18_3 O 0.28157(13) 0.53427(14) 0.68073(9)
N2_3 N 0.4144(2) 0.5206(3) 0.84499(17)
C46_3 C 0.3255(2) 0.5107(3) 0.68662(19)
C47_3 C 0.3470(2) 0.5151(3) 0.72882(19)
C48_3 C 0.3960(2) 0.4881(2) 0.7375(2)
H25_3 H 0.4132 0.4683 0.7169
C49_3 C 0.4185(2) 0.4909(3) 0.7763(2)
H26_3 H 0.4514 0.4741 0.7822
C50_3 C 0.3907(3) 0.5197(3) 0.8067(2)
C51_3 C 0.3430(2) 0.5447(3) 0.7980(2)
H27_3 H 0.3246 0.5633 0.8188
C52_3 C 0.3222(2) 0.5426(2) 0.7594(2)
H28_3 H 0.2899 0.5607 0.7537
C53_3 C 0.4693(3) 0.5144(4) 0.8508(2)
C54_3 C 0.4873(3) 0.4780(3) 0.87917(19)
H29_3 H 0.4628 0.4568 0.8938
C55_3 C 0.5429(3) 0.4732(2) 0.88578(16)
H30_3 H 0.5560 0.4482 0.9047
C56_3 C 0.5780(2) 0.5049(3) 0.8647(2)
C57_3 C 0.5586(3) 0.5417(3) 0.83536(17)
H31_3 H 0.5827 0.5630 0.8204
C58_3 C 0.5041(3) 0.5456(3) 0.82922(17)
H32_3 H 0.4906 0.5700 0.8100
C59_3 C 0.6367(2) 0.4984(3) 0.87567(19)
C60_3 C 0.3822(3) 0.5211(4) 0.8798(3)
C61_3 C 0.3382(3) 0.4879(3) 0.87980(17)
H33_3 H 0.3288 0.4680 0.8565
C62_3 C 0.3068(2) 0.4850(3) 0.9175(2)
H34_3 H 0.2771 0.4620 0.9191
C63_3 C 0.3208(2) 0.5159(3) 0.9507(2)
C64_3 C 0.3637(3) 0.5486(3) 0.94784(19)
H35_3 H 0.3727 0.5705 0.9701
C65_3 C 0.3957(2) 0.5503(3) 0.9115(2)
H36_3 H 0.4263 0.5722 0.9102
C66_3 C 0.2911(3) 0.5113(3) 0.9889(2)
C22_3 C 0.9571(3) 0.5268(2) 0.38578(16)
H12_3 H 0.9440 0.5518 0.4047
C23_3 C 0.9220(2) 0.4951(3) 0.3647(2)
C24_3 C 0.9414(3) 0.4583(3) 0.33536(17)
H13_3 H 0.9173 0.4370 0.3204
C25_3 C 0.9959(3) 0.4544(3) 0.32922(17)
C26_3 C 0.8633(2) 0.5016(3) 0.37567(19)
C55_4 C 0.0429(3) 0.0268(2) 0.61422(16)
H30_4 H 0.0560 0.0518 0.5953
C59_4 C 0.1367(2) 0.0016(3) 0.62433(19)
C56_4 C 0.0780(2) 0.9951(3) 0.6353(2)
C57_4 C 0.0586(3) 0.9583(3) 0.66464(17)
H31_4 H 0.0827 0.9370 0.6796
C58_4 C 0.0041(3) 0.9544(3) 0.67078(17)
O3_4 O 0.71843(13) 0.03427(14) 0.31927(9)
N1_4 N 0.5856(2) 0.0206(3) 0.15501(17)
C13_4 C 0.6745(2) 0.0107(3) 0.31338(19)
C14_4 C 0.6530(2) 0.0151(3) 0.27118(19)
C17_4 C 0.6093(3) 0.0197(3) 0.1933(2)
C18_4 C 0.6570(2) 0.0447(3) 0.2020(2)
H9_4 H 0.6754 0.0633 0.1812
C19_4 C 0.6778(2) 0.0426(2) 0.2406(2)
H10_4 H 0.7101 0.0607 0.2463
C20_4 C 0.5307(3) 0.0144(4) 0.1492(2)
C23_4 C 0.4220(2) 0.0049(3) 0.1353(2)
C24_4 C 0.4414(3) 0.0417(3) 0.16464(17)
H13_4 H 0.4173 0.0630 0.1796
C25_4 C 0.4959(3) 0.0456(3) 0.17078(17)
H14_4 H 0.5094 0.0700 0.1900
C27_4 C 0.6178(3) 0.0211(4) 0.1202(3)
C30_4 C 0.6792(2) 0.0159(3) 0.0493(2)
C31_4 C 0.6363(3) 0.0486(3) 0.05216(19)
H17_4 H 0.6273 0.0705 0.0299
C32_4 C 0.6043(2) 0.0503(3) 0.0885(2)
H18_4 H 0.5737 0.0722 0.0898
C33_4 C 0.7089(3) 0.0113(3) 0.0111(2)
O17_4 O 0.85112(13) 0.01606(15) 0.83972(10)
C48_4 C 0.8960(2) 0.0119(2) 0.7625(2)
H25_4 H 0.9132 0.0317 0.7831
C49_4 C 0.9185(2) 0.0091(3) 0.7237(2)
H26_4 H 0.9514 0.0259 0.7178
C54_4 C 0.9873(3) 0.0220(3) 0.62083(19)
H29_4 H 0.9628 0.0432 0.6062
C61_4 C 0.8382(3) 0.0121(3) 0.62020(17)
H33_4 H 0.8288 0.0320 0.6435
C62_4 C 0.8068(2) 0.0150(3) 0.5825(2)
H34_4 H 0.7771 0.0380 0.5809
O2_4 O 0.64888(13) 0.98394(15) 0.33972(10)
C15_4 C 0.6040(2) 0.9881(2) 0.2625(2)
H7_4 H 0.5868 0.9683 0.2831
C16_4 C 0.5815(2) 0.9909(3) 0.2237(2)
H8_4 H 0.5486 0.9741 0.2178
C21_4 C 0.5127(3) 0.9780(3) 0.12083(19)
H11_4 H 0.5372 0.9568 0.1062
C22_4 C 0.4571(3) 0.9732(2) 0.11422(16)
H12_4 H 0.4440 0.9482 0.0953
C26_4 C 0.3633(2) 0.9984(3) 0.12433(19)
C28_4 C 0.6618(3) 0.9879(3) 0.12020(17)
H15_4 H 0.6712 0.9680 0.1435
C29_4 C 0.6932(2) 0.9850(3) 0.0825(2)
H16_4 H 0.7229 0.9620 0.0809
O18_4 O 0.78157(13) 0.96573(14) 0.81927(9)
N2_4 N 0.9144(2) 0.9794(3) 0.65501(17)
C46_4 C 0.8255(2) 0.9893(3) 0.81338(19)
C47_4 C 0.8470(2) 0.9849(3) 0.77118(19)
C50_4 C 0.8907(3) 0.9803(3) 0.6933(2)
C51_4 C 0.8430(2) 0.9553(3) 0.7020(2)
H27_4 H 0.8246 0.9367 0.6812
C52_4 C 0.8222(2) 0.9574(2) 0.7406(2)
H28_4 H 0.7899 0.9393 0.7463
C53_4 C 0.9693(3) 0.9856(4) 0.6492(2)
H32_4 H 0.9906 0.9300 0.6900
C60_4 C 0.8822(3) 0.9789(4) 0.6202(3)
C63_4 C 0.8208(2) 0.9841(3) 0.5493(2)
C64_4 C 0.8637(3) 0.9514(3) 0.55216(19)
H35_4 H 0.8727 0.9295 0.5299
C65_4 C 0.8957(2) 0.9497(3) 0.5885(2)
H36_4 H 0.9263 0.9278 0.5898
C66_4 C 0.7911(3) 0.9887(3) 0.5111(2)
loop_
_geom_bond_atom_site_label_1
_geom_bond_atom_site_label_2
_geom_bond_site_symmetry_1
_geom_bond_site_symmetry_2
O12 C26 1_555 1_555
O13 C26 1_555 1_555
H12 C22 1_555 1_555
C23 C22 1_555 1_555
C24 C23 1_555 1_555
H13 C24 1_555 1_555
C26 C23 1_555 1_555
Zn13 O13 1_555 1_555
Zn16 O12 1_555 1_555
O16 Zn13 1_555 1_555
O29 Zn16 1_555 1_555
O31 Zn16 1_555 1_555
C24 C25 1_555 1_555
Zn16 O16 1_555 1_555
Zn1 O1 1_555 1_555
Zn2 O1 1_555 1_555
Zn3 O1 1_555 1_555
Zn4 O1 1_555 1_555
O2 C13 1_555 1_555
O3 C13 1_555 1_555
O4 Zn3 1_555 1_555
O5 Zn1 1_555 1_555
O6 Zn1 1_555 1_555
O7 Zn2 1_555 1_555
O8 Zn2 1_555 1_555
O9 Zn4 1_555 1_555
O10 Zn4 1_555 1_555
O11 Zn1 1_555 1_555
N1 C17 1_555 1_555
C1 O4 1_555 1_555
C2 C1 1_555 1_555
C3 C2 1_555 1_555
H1 C3 1_555 1_555
C4 C2 1_555 1_555
H2 C4 1_555 1_555
C5 O6 1_555 1_555
C6 C5 1_555 1_555
C7 C6 1_555 1_555
H3 C7 1_555 1_555
C8 C6 1_555 1_555
H4 C8 1_555 1_555
C9 O8 1_555 1_555
C10 C9 1_555 1_555
C11 C10 1_555 1_555
H5 C11 1_555 1_555
C12 C10 1_555 1_555
H6 C12 1_555 1_555
C13 C14 1_555 1_555
C14 C15 1_555 1_555
C15 H7 1_555 1_555
C16 C15 1_555 1_555
H8 C16 1_555 1_555
C17 C16 1_555 1_555
C18 C17 1_555 1_555
H9 C18 1_555 1_555
C19 C14 1_555 1_555
H10 C19 1_555 1_555
C20 N1 1_555 1_555
C21 C20 1_555 1_555
H11 C21 1_555 1_555
C27 N1 1_555 1_555
C28 C27 1_555 1_555
H15 C28 1_555 1_555
C29 C28 1_555 1_555
H16 C29 1_555 1_555
C30 C29 1_555 1_555
C31 C30 1_555 1_555
H17 C31 1_555 1_555
C32 C27 1_555 1_555
H18 C32 1_555 1_555
C33 O10 1_555 1_555
Zn6 O22 1_555 1_555
Zn8 O2 1_555 1_555
Zn9 O24 1_555 1_555
Zn10 O26 1_555 1_555
Zn12 O3 1_555 1_555
Zn15 O36 1_555 1_555
Zn17 O28 1_555 1_555
Zn19 O34 1_555 1_555
O15 Zn8 1_555 1_555
O17 Zn2 1_555 1_555
O18 Zn3 1_555 1_555
O19 Zn14 1_555 1_555
O20 Zn12 1_555 1_555
O21 Zn5 1_555 1_555
O22 C38 1_555 1_555
O23 Zn5 1_555 1_555
O24 C38 1_555 1_555
O25 Zn8 1_555 1_555
O26 C42 1_555 1_555
O27 Zn8 1_555 1_555
O28 C42 1_555 1_555
O32 C66 1_555 1_555
O33 Zn5 1_555 1_555
O34 C59 1_555 1_555
O35 Zn4 1_555 1_555
O36 C59 1_555 1_555
O37 Zn3 1_555 1_555
O38 Zn12 1_555 1_555
N2 C50 1_555 1_555
C34 O19 1_555 1_555
C35 C34 1_555 1_555
C36 C3 1_555 1_555
H19 C36 1_555 1_555
C37 C4 1_555 1_555
H20 C37 1_555 1_555
C38 C39 1_555 1_555
C39 C40 1_555 1_555
C40 C8 1_555 1_555
H21 C40 1_555 1_555
C41 C7 1_555 1_555
H22 C41 1_555 1_555
C42 C43 1_555 1_555
C43 C44 1_555 1_555
C44 C11 1_555 1_555
H23 C44 1_555 1_555
C45 C12 1_555 1_555
H24 C45 1_555 1_555
C46 O17 1_555 1_555
C47 C46 1_555 1_555
C48 C47 1_555 1_555
H25 C48 1_555 1_555
C49 C48 1_555 1_555
H26 C49 1_555 1_555
C50 C49 1_555 1_555
C51 C50 1_555 1_555
H27 C51 1_555 1_555
C52 C47 1_555 1_555
H28 C52 1_555 1_555
C53 N2 1_555 1_555
C54 C53 1_555 1_555
H29 C54 1_555 1_555
C55 C54 1_555 1_555
H30 C55 1_555 1_555
C56 C55 1_555 1_555
C57 C56 1_555 1_555
H31 C57 1_555 1_555
C58 C53 1_555 1_555
H32 C58 1_555 1_555
C59 C56 1_555 1_555
C60 N2 1_555 1_555
C61 C60 1_555 1_555
H33 C61 1_555 1_555
C62 C61 1_555 1_555
H34 C62 1_555 1_555
C63 C62 1_555 1_555
C64 C63 1_555 1_555
H35 C64 1_555 1_555
C65 C60 1_555 1_555
H36 C65 1_555 1_555
C66 C63 1_555 1_555
O5 C1 1_555 1_555
O7 C5 1_555 1_555
O9 C9 1_555 1_555
O11 C33 1_555 1_555
C18 C19 1_555 1_555
C30 C33 1_555 1_555
C31 C32 1_555 1_555
Zn12 O15 1_555 1_555
O18 C46 1_555 1_555
O21 C34 1_555 1_555
C35 C36 1_555 1_555
C35 C37 1_555 1_555
C39 C41 1_555 1_555
C43 C45 1_555 1_555
C51 C52 1_555 1_555
C57 C58 1_555 1_555
C64 C65 1_555 1_555
Zn18 O30 1_555 1_555
Zn10 O14 1_555 1_555
Zn17 O14 1_555 1_555
Zn6_2 O22_2 1_555 1_555
Zn9_2 O24_2 1_555 1_555
O22_2 C38_2 1_555 1_555
O24_2 C38_2 1_555 1_555
C38_2 C39_2 1_555 1_555
C39_2 C40_2 1_555 1_555
H21_2 C40_2 1_555 1_555
H22_2 C41_2 1_555 1_555
Zn11 O14_2 1_555 1_555
Zn20 O14_2 1_555 1_555
H4_2 C8_2 1_555 1_555
O16_2 Zn15 1_555 1_555
O29_2 Zn19 1_555 1_555
O31_2 Zn19 1_555 1_555
Zn19 O16_2 1_555 1_555
Zn7 O15 1_555 1_555
Zn18 O15 1_555 1_555
O5_2 Zn7 1_555 1_555
O6_2 Zn7 1_555 1_555
O9_2 Zn18 1_555 1_555
C1_2 O20 1_555 1_555
C2_2 C1_2 1_555 1_555
C3_2 C2_2 1_555 1_555
H1_2 C3_2 1_555 1_555
C4_2 C2_2 1_555 1_555
H2_2 C4_2 1_555 1_555
C5_2 O6_2 1_555 1_555
C6_2 C5_2 1_555 1_555
C7_2 C6_2 1_555 1_555
H3_2 C7_2 1_555 1_555
C9_2 O27 1_555 1_555
C10_2 C9_2 1_555 1_555
C11_2 C10_2 1_555 1_555
H5_2 C11_2 1_555 1_555
C12_2 C10_2 1_555 1_555
H6_2 C12_2 1_555 1_555
Zn11 O26_2 1_555 1_555
Zn20 O28_2 1_555 1_555
O19_2 Zn14_2 1_555 1_555
O21_2 Zn5_2 1_555 1_555
O23_2 Zn5_2 1_555 1_555
O26_2 C42_2 1_555 1_555
O28_2 C42_2 1_555 1_555
O35_2 Zn18 1_555 1_555
C34_2 O19_2 1_555 1_555
C35_2 C34_2 1_555 1_555
C36_2 C3_2 1_555 1_555
H19_2 C36_2 1_555 1_555
C37_2 C4_2 1_555 1_555
H20_2 C37_2 1_555 1_555
C42_2 C43_2 1_555 1_555
C43_2 C44_2 1_555 1_555
C44_2 C11_2 1_555 1_555
H23_2 C44_2 1_555 1_555
C45_2 C12_2 1_555 1_555
H24_2 C45_2 1_555 1_555
O5_2 C1_2 1_555 1_555
O25 C5_2 1_555 1_555
O9_2 C9_2 1_555 1_555
O21_2 C34_2 1_555 1_555
C35_2 C36_2 1_555 1_555
C35_2 C37_2 1_555 1_555
C43_2 C45_2 1_555 1_555
O4_2 Zn3_2 1_555 1_555
O5_3 Zn1_2 1_555 1_555
O6_3 Zn1_2 1_555 1_555
C1_3 O4_2 1_555 1_555
C2_3 C1_3 1_555 1_555
C3_3 C2_3 1_555 1_555
H1_3 C3_3 1_555 1_555
C4_3 C2_3 1_555 1_555
H2_3 C4_3 1_555 1_555
C5_3 O6_3 1_555 1_555
C6_3 C5_3 1_555 1_555
Zn6_2 O16_2 1_555 1_555
Zn9_2 O16_2 1_555 1_555
Zn18_2 O30_2 1_555 1_555
O18_2 Zn3_2 1_555 1_555
O19_3 Zn15 1_555 1_555
O21_3 Zn6_2 1_555 1_555
O30_2 C66_2 1_555 1_555
O37_2 Zn3_2 1_555 1_555
N2_2 C50_2 1_555 1_555
C34_3 O19_3 1_555 1_555
C35_3 C34_3 1_555 1_555
C36_3 C3_3 1_555 1_555
H19_3 C36_3 1_555 1_555
C37_3 C4_3 1_555 1_555
H20_3 C37_3 1_555 1_555
C47_2 C46_2 1_555 1_555
C51_2 C50_2 1_555 1_555
H27_2 C51_2 1_555 1_555
C52_2 C47_2 1_555 1_555
H28_2 C52_2 1_555 1_555
C53_2 N2_2 1_555 1_555
C60_2 N2_2 1_555 1_555
C64_2 C63_2 1_555 1_555
H35_2 C64_2 1_555 1_555
C65_2 C60_2 1_555 1_555
H36_2 C65_2 1_555 1_555
C66_2 C63_2 1_555 1_555
O5_3 C1_3 1_555 1_555
O18_2 C46_2 1_555 1_555
O21_3 C34_3 1_555 1_555
C35_3 C36_3 1_555 1_555
C35_3 C37_3 1_555 1_555
C51_2 C52_2 1_555 1_555
C64_2 C65_2 1_555 1_555
O12_2 C26_2 1_555 1_555
H4_3 C8_3 1_555 1_555
C15_2 H7_2 1_555 1_555
C16_2 C15_2 1_555 1_555
H8_2 C16_2 1_555 1_555
H11_2 C21_2 1_555 1_555
C22_2 C21_2 1_555 1_555
H12_2 C22_2 1_555 1_555
H15_2 C28_2 1_555 1_555
C29_2 C28_2 1_555 1_555
H16_2 C29_2 1_555 1_555
Zn8_2 O2_2 1_555 1_555
Zn20 O12_2 1_555 1_555
O15_2 Zn8_2 1_555 1_555
O25_2 Zn8_2 1_555 1_555
O27_2 Zn8_2 1_555 1_555
O31_3 Zn20 1_555 1_555
Zn2_2 O1_2 1_555 1_555
Zn4_2 O1_2 1_555 1_555
O7_2 Zn2_2 1_555 1_555
O8_2 Zn2_2 1_555 1_555
O9_3 Zn4_2 1_555 1_555
O10_2 Zn4_2 1_555 1_555
H3_3 C7_3 1_555 1_555
C9_3 O8_2 1_555 1_555
C10_3 C9_3 1_555 1_555
C11_3 C10_3 1_555 1_555
H5_3 C11_3 1_555 1_555
C12_3 C10_3 1_555 1_555
H6_3 C12_3 1_555 1_555
Zn7_2 O32_2 1_555 1_555
Zn9_2 O26_3 1_555 1_555
O17_2 Zn2_2 1_555 1_555
O26_3 C42_3 1_555 1_555
O29_2 C42_3 1_555 1_555
O35_3 Zn4_2 1_555 1_555
C42_3 C43_3 1_555 1_555
C43_3 C44_3 1_555 1_555
C44_3 C11_3 1_555 1_555
H23_3 C44_3 1_555 1_555
C45_3 C12_3 1_555 1_555
H24_3 C45_3 1_555 1_555
H25_2 C48_2 1_555 1_555
C49_2 C48_2 1_555 1_555
H26_2 C49_2 1_555 1_555
H29_2 C54_2 1_555 1_555
H33_2 C61_2 1_555 1_555
C62_2 C61_2 1_555 1_555
H34_2 C62_2 1_555 1_555
O9_3 C9_3 1_555 1_555
C43_3 C45_3 1_555 1_555
O3_2 C13_2 1_555 1_555
N1_2 C17_2 1_555 1_555
C13_2 C14_2 1_555 1_555
C18_2 C17_2 1_555 1_555
H9_2 C18_2 1_555 1_555
C19_2 C14_2 1_555 1_555
H10_2 C19_2 1_555 1_555
C20_2 N1_2 1_555 1_555
C24_2 C23_2 1_555 1_555
H13_2 C24_2 1_555 1_555
C25_2 C20_2 1_555 1_555
H14_2 C25_2 1_555 1_555
C27_2 N1_2 1_555 1_555
C31_2 C30_2 1_555 1_555
H17_2 C31_2 1_555 1_555
C32_2 C27_2 1_555 1_555
H18_2 C32_2 1_555 1_555
Zn12_2 O3_2 1_555 1_555
Zn14_2 O13_2 1_555 1_555
O20_2 Zn12_2 1_555 1_555
O38_2 Zn12_2 1_555 1_555
C18_2 C19_2 1_555 1_555
C24_2 C25_2 1_555 1_555
C30_2 C33_2 1_555 1_555
C31_2 C32_2 1_555 1_555
Zn14 O36_2 1_555 1_555
C57_2 C56_2 1_555 1_555
H31_2 C57_2 1_555 1_555
C57_2 C58_2 1_555 1_555
Zn11 O24_3 1_555 1_555
H21_3 C40_3 1_555 1_555
Zn17 O34_2 1_555 1_555
O34_2 C59_2 1_555 1_555
H22_3 C41_3 1_555 1_555
H30_2 C55_2 1_555 1_555
O23_2 C38_3 1_555 1_555
C38_3 C39_3 1_555 1_555
Zn18_2 O15_2 1_555 1_555
O9_4 Zn18_2 1_555 1_555
H3_4 C7_4 1_555 1_555
C9_4 O27_2 1_555 1_555
C10_4 C9_4 1_555 1_555
C11_4 C10_4 1_555 1_555
H5_4 C11_4 1_555 1_555
C12_4 C10_4 1_555 1_555
H6_4 C12_4 1_555 1_555
Zn9 O26_4 1_555 1_555
O23 C38_4 1_555 1_555
O26_4 C42_4 1_555 1_555
O29 C42_4 1_555 1_555
O35_4 Zn18_2 1_555 1_555
C38_4 C39_4 1_555 1_555
C41_4 C7_4 1_555 1_555
H22_4 C41_4 1_555 1_555
C42_4 C43_4 1_555 1_555
C43_4 C44_4 1_555 1_555
C44_4 C11_4 1_555 1_555
H23_4 C44_4 1_555 1_555
C45_4 C12_4 1_555 1_555
H24_4 C45_4 1_555 1_555
O9_4 C9_4 1_555 1_555
C39_4 C41_4 1_555 1_555
C43_4 C45_4 1_555 1_555
O5_4 Zn7_2 1_555 1_555
O6_4 Zn7_2 1_555 1_555
C1_4 O20_2 1_555 1_555
C2_4 C1_4 1_555 1_555
C3_4 C2_4 1_555 1_555
H1_4 C3_4 1_555 1_555
C4_4 C2_4 1_555 1_555
H2_4 C4_4 1_555 1_555
C5_4 O6_4 1_555 1_555
C6_4 C5_4 1_555 1_555
C8_4 C6_4 1_555 1_555
H4_4 C8_4 1_555 1_555
Zn6 O16 1_555 1_555
Zn10 O24_4 1_555 1_555
Zn9 O16 1_555 1_555
O19_4 Zn13 1_555 1_555
O21_4 Zn6 1_555 1_555
O33_4 Zn6 1_555 1_555
C34_4 O19_4 1_555 1_555
C35_4 C34_4 1_555 1_555
C36_4 C3_4 1_555 1_555
H19_4 C36_4 1_555 1_555
C37_4 C4_4 1_555 1_555
H20_4 C37_4 1_555 1_555
C40_4 C8_4 1_555 1_555
H21_4 C40_4 1_555 1_555
O5_4 C1_4 1_555 1_555
O21_4 C34_4 1_555 1_555
C35_4 C36_4 1_555 1_555
C35_4 C37_4 1_555 1_555
O31_4 Zn17 1_555 1_555
O2_3 C13_3 1_555 1_555
O3_3 C13_3 1_555 1_555
N1_3 C17_3 1_555 1_555
C13_3 C14_3 1_555 1_555
C14_3 C15_3 1_555 1_555
C15_3 H7_3 1_555 1_555
C16_3 C15_3 1_555 1_555
H8_3 C16_3 1_555 1_555
C17_3 C16_3 1_555 1_555
C18_3 C17_3 1_555 1_555
H9_3 C18_3 1_555 1_555
C19_3 C14_3 1_555 1_555
H10_3 C19_3 1_555 1_555
C20_3 N1_3 1_555 1_555
C21_3 C20_3 1_555 1_555
H11_3 C21_3 1_555 1_555
C27_3 N1_3 1_555 1_555
C28_3 C27_3 1_555 1_555
H15_3 C28_3 1_555 1_555
C29_3 C28_3 1_555 1_555
H16_3 C29_3 1_555 1_555
C30_3 C29_3 1_555 1_555
C31_3 C30_3 1_555 1_555
H17_3 C31_3 1_555 1_555
C32_3 C27_3 1_555 1_555
H18_3 C32_3 1_555 1_555
C33_3 O31 1_555 1_555
Zn9_2 O2_3 1_555 1_555
Zn15 O3_3 1_555 1_555
O17_3 Zn9 1_555 1_555
O18_3 Zn13 1_555 1_555
O33_3 C66_3 1_555 1_555
O35_2 C59_3 1_555 1_555
O38 C59_3 1_555 1_555
N2_3 C50_3 1_555 1_555
C46_3 O17_3 1_555 1_555
C47_3 C46_3 1_555 1_555
C48_3 C47_3 1_555 1_555
H25_3 C48_3 1_555 1_555
C49_3 C48_3 1_555 1_555
H26_3 C49_3 1_555 1_555
C50_3 C49_3 1_555 1_555
C51_3 C50_3 1_555 1_555
H27_3 C51_3 1_555 1_555
C52_3 C47_3 1_555 1_555
H28_3 C52_3 1_555 1_555
C53_3 N2_3 1_555 1_555
C54_3 C53_3 1_555 1_555
H29_3 C54_3 1_555 1_555
C55_3 C54_3 1_555 1_555
H30_3 C55_3 1_555 1_555
C56_3 C55_3 1_555 1_555
C57_3 C56_3 1_555 1_555
H31_3 C57_3 1_555 1_555
C58_3 C53_3 1_555 1_555
H32_3 C58_3 1_555 1_555
C59_3 C56_3 1_555 1_555
C60_3 N2_3 1_555 1_555
C61_3 C60_3 1_555 1_555
H33_3 C61_3 1_555 1_555
C62_3 C61_3 1_555 1_555
H34_3 C62_3 1_555 1_555
C63_3 C62_3 1_555 1_555
C64_3 C63_3 1_555 1_555
H35_3 C64_3 1_555 1_555
C65_3 C60_3 1_555 1_555
H36_3 C65_3 1_555 1_555
C66_3 C63_3 1_555 1_555
O33_4 C33_3 1_555 1_555
C18_3 C19_3 1_555 1_555
C30_3 C33_3 1_555 1_555
C31_3 C32_3 1_555 1_555
O18_3 C46_3 1_555 1_555
C51_3 C52_3 1_555 1_555
C57_3 C58_3 1_555 1_555
C64_3 C65_3 1_555 1_555
O35 C26_3 1_555 1_555
O37 C26_3 1_555 1_555
H12_3 C22_3 1_555 1_555
C23_3 C22_3 1_555 1_555
C24_3 C23_3 1_555 1_555
H13_3 C24_3 1_555 1_555
C26_3 C23_3 1_555 1_555
C24_3 C25_3 1_555 1_555
O35_4 C59_4 1_555 1_555
H30_4 C55_4 1_555 1_555
C57_4 C56_4 1_555 1_555
H31_4 C57_4 1_555 1_555
C57_4 C58_4 1_555 1_555
O3_4 C13_4 1_555 1_555
N1_4 C17_4 1_555 1_555
C13_4 C14_4 1_555 1_555
C18_4 C17_4 1_555 1_555
H9_4 C18_4 1_555 1_555
C19_4 C14_4 1_555 1_555
H10_4 C19_4 1_555 1_555
C20_4 N1_4 1_555 1_555
C24_4 C23_4 1_555 1_555
H13_4 C24_4 1_555 1_555
C25_4 C20_4 1_555 1_555
H14_4 C25_4 1_555 1_555
C27_4 N1_4 1_555 1_555
C31_4 C30_4 1_555 1_555
H17_4 C31_4 1_555 1_555
C32_4 C27_4 1_555 1_555
H18_4 C32_4 1_555 1_555
Zn14 O3_4 1_555 1_555
C18_4 C19_4 1_555 1_555
C24_4 C25_4 1_555 1_555
C30_4 C33_4 1_555 1_555
C31_4 C32_4 1_555 1_555
O17_4 Zn11 1_555 1_555
H25_4 C48_4 1_555 1_555
C49_4 C48_4 1_555 1_555
H26_4 C49_4 1_555 1_555
H29_4 C54_4 1_555 1_555
H33_4 C61_4 1_555 1_555
C62_4 C61_4 1_555 1_555
H34_4 C62_4 1_555 1_555
O35_3 C26_4 1_555 1_555
C15_4 H7_4 1_555 1_555
C16_4 C15_4 1_555 1_555
H8_4 C16_4 1_555 1_555
H11_4 C21_4 1_555 1_555
C22_4 C21_4 1_555 1_555
H12_4 C22_4 1_555 1_555
H15_4 C28_4 1_555 1_555
C29_4 C28_4 1_555 1_555
H16_4 C29_4 1_555 1_555
Zn10 O2_4 1_555 1_555
O18_4 Zn14_2 1_555 1_555
O31_4 C66_4 1_555 1_555
N2_4 C50_4 1_555 1_555
C47_4 C46_4 1_555 1_555
C51_4 C50_4 1_555 1_555
H27_4 C51_4 1_555 1_555
C52_4 C47_4 1_555 1_555
H28_4 C52_4 1_555 1_555
C53_4 N2_4 1_555 1_555
C60_4 N2_4 1_555 1_555
C64_4 C63_4 1_555 1_555
H35_4 C64_4 1_555 1_555
C65_4 C60_4 1_555 1_555
H36_4 C65_4 1_555 1_555
C66_4 C63_4 1_555 1_555
O18_4 C46_4 1_555 1_555
C51_4 C52_4 1_555 1_555
C64_4 C65_4 1_555 1_555

#END
