
###############################################################################
#
# This file contains modified crystal structure data generated from the
# MOF subset of the Cambridge Structural Database (CSD) v543 
# hosted by the Cambridge Crystallographic Data Centre (CCDC).
#
# This work is licensed under the Creative Commons
# Attribution-NonCommercial-ShareAlike 4.0 International License.
# To view a copy of this license, visit
# http://creativecommons.org/licenses/by-nc-sa/4.0/
# or send a letter to
# Creative Commons, PO Box 1866, Mountain View, CA 94042, USA.
#
# CIF created using the CSD Python API on 29 September 2022
# The structure has been converted into the P1 space group
# The structure has a 3D framework
# The original CSD entry XANLEF is in the rhombohedral crystal system
# The original CSD entry XANLEF is in a Sohncke space group
# The framework has been calculated to contain at least 10.0% void space
# The void calculation uses a probe of radius 1.32A, grid spacing 0.4
# H atom positions have been added when not included in the experimental data
#
###############################################################################

data_XANLEF
_chemical_formula_moiety         '(C540 H612 Cl18 Mn18 N36 O116 Zn30)n'
_symmetry_cell_setting           triclinic
_symmetry_space_group_name_H-M   'P 1'
_symmetry_Int_Tables_number      1
_space_group_name_Hall           'P 1'
loop_
_symmetry_equiv_pos_site_id
_symmetry_equiv_pos_as_xyz
1 x,y,z
_cell_length_a                   29.5850(5)
_cell_length_b                   29.5850(5)
_cell_length_c                   72.4624(11)
_cell_angle_alpha                90
_cell_angle_beta                 90
_cell_angle_gamma                120
_cell_volume                     54927.1
loop_
_atom_site_label
_atom_site_type_symbol
_atom_site_fract_x
_atom_site_fract_y
_atom_site_fract_z
Zn4 Zn -0.0000 -0.0000 0.6764
O13 O -0.0000 -0.0000 0.7105
C61 C 0.1742(10) 0.5742(13) 0.4051(2)
C63 C 0.1444(9) 0.5970(11) 0.4096(2)
C65 C 0.0972(7) 0.5682(11) 0.4188(2)
C67 C 0.0797(9) 0.5165(13) 0.4235(2)
C69 C 0.1094(8) 0.4936(11) 0.4190(3)
C71 C 0.1566(7) 0.5224(11) 0.4098(3)
C73 C 0.2259(11) 0.6072(15) 0.3951(3)
C87 C 0.0858(10) 0.4353(13) 0.4249(4)
C90 C 0.5061(8) 0.2579(6) 0.5734(3)
C92 C 0.5032(10) 0.2656(7) 0.5922(3)
C94 C 0.4549(11) 0.2475(7) 0.6006(3)
C96 C 0.4095(10) 0.2216(7) 0.5902(3)
C98 C 0.4124(11) 0.2139(7) 0.5714(3)
C100 C 0.4606(11) 0.2320(7) 0.5630(3)
C104 C 0.1465(8) 0.0774(6) 0.6581(3)
C106 C 0.1978(11) 0.1059(8) 0.6642(3)
C108 C 0.2383(11) 0.1294(8) 0.6515(3)
C110 C 0.2276(10) 0.1245(7) 0.6327(3)
C112 C 0.1763(11) 0.0960(8) 0.6266(3)
C114 C 0.1357(9) 0.0724(7) 0.6393(3)
C115 C 0.0790(17) 0.4363(23) 0.4443(4)
C117 C 0.1177(11) 0.4151(18) 0.4192(6)
C118 C 0.2516(18) 0.0359(14) 0.7525(6)
C119 C 0.0370(15) 0.4065(21) 0.4162(5)
C121 C 0.0687(9) 0.5940(14) 0.4230(3)
C133 C 0.0125(8) 0.6158(13) 0.4398(5)
C135 C 0.0151(10) 0.6577(16) 0.4254(4)
C137 C 0.0078(13) 0.6996(17) 0.4328(6)
C146 C 0.5576(10) 0.2764(6) 0.5630(4)
C148 C 0.3605(14) 0.1848(10) 0.5602(4)
C150 C 0.3336(19) 0.2124(15) 0.5620(6)
C152 C 0.3361(19) 0.1337(11) 0.5672(6)
C154 C 0.3706(23) 0.1818(17) 0.5414(4)
C156 C 0.4547(16) 0.2576(10) 0.6197(3)
C158 C 0.1017(10) 0.0514(8) 0.6726(4)
C160 C 0.1660(14) 0.0911(10) 0.6054(3)
C162 C 0.1119(23) 0.0667(17) 0.6021(6)
C164 C 0.1840(19) 0.0573(15) 0.5993(5)
C166 C 0.1946(20) 0.1376(12) 0.5964(5)
C168 C 0.2871(16) 0.1563(12) 0.6603(3)
C170 C 0.4247(21) 0.2323(12) 0.6510(3)
C172 C 0.4713(22) 0.2777(12) 0.6612(4)
C174 C 0.4795(24) 0.2669(15) 0.6807(4)
C176 C 0.4423(20) 0.2155(14) 0.6881(4)
C178 C 0.3850(23) 0.1966(16) 0.6828(3)
C180 C 0.3843(16) 0.1886(11) 0.6602(3)
Cl3 Cl 0.0427(5) 0.5194(7) 0.47430(19)
Cl6 Cl 0.3339(7) 0.1011(5) 0.61839(19)
Mn6 Mn 0.3397(6) 0.1849(4) 0.62463(17)
N5 N 0.0377(8) 0.5882(12) 0.4377(4)
N10 N 0.4175(18) 0.2318(11) 0.6320(3)
N12 N 0.3324(17) 0.1693(12) 0.6522(3)
O15 O 0.2413(11) 0.6573(15) 0.3910(4)
O18 O 0.0827(10) 0.0920(11) 0.7243(4)
O19 O 0.2483(10) 0.5759(14) 0.3915(4)
O20 O 0.0908(14) 0.0057(10) 0.7248(4)
O23 O 0.0300(8) 0.4882(12) 0.4321(3)
O28 O 0.5815(15) 0.3413(11) 0.5141(3)
O32 O 0.5853(11) 0.2528(10) 0.5136(4)
O36 O 0.6035(13) 0.2914(9) 0.5720(4)
O41 O 0.6879(9) 0.3965(13) 0.5720(4)
O42 O 0.7086(9) 0.3121(9) 0.5720(4)
O44 O 0.5537(14) 0.2775(10) 0.5442(3)
O46 O 0.3590(11) 0.2039(8) 0.5979(3)
O48 O 0.1144(14) 0.0612(10) 0.6909(3)
O50 O 0.0532(14) 0.0210(10) 0.6647(4)
O52 O 0.2655(11) 0.1478(8) 0.6191(3)
Zn6 Zn 0.5984 0.2989 0.5263
Zn13 Zn 0.7005 0.4016 0.5263
Zn14 Zn 0.7011 0.2995 0.5263
Zn16 Zn 0.0719 0.0360 0.7103
Zn19 Zn 0.2973 0.7026 0.3770
Zn20 Zn 0.2974 0.5948 0.3770
Zn22 Zn 0.6666 0.3333 0.5617
O54 O 0.6667 0.3333 0.5365
H36 H 0.158076 0.637496 0.405908
H51 H 0.179837 0.504439 0.406264
H73 H 0.162228 0.00873151 0.739598
H76 H 0.0449674 0.645934 0.447665
H80 H 0.538797 0.285828 0.600352
H81 H 0.228939 0.0517682 0.758777
H82 H 0.292152 0.0590043 0.75685
H83 H 0.249232 0.0373239 0.737564
H84 H 0.156162 0.437727 0.425444
H85 H 0.100185 0.374514 0.423517
H86 H 0.121425 0.417435 0.404231
H87 H 0.0421743 0.410329 0.401292
H88 H 0.0194549 0.365548 0.420042
H89 H 0.0115814 0.421321 0.420529
H95 H 0.462795 0.22593 0.54828
H96 H 0.0955001 0.0500332 0.634508
H105 H 0.0532714 0.675702 0.418805
H109 H 0.052667 0.451168 0.447155
H110 H 0.0624986 0.39694 0.449822
H111 H 0.116629 0.461557 0.450774
H124 H 0.0723066 0.622815 0.412871
H133 H 0.0449344 0.730416 0.438134
H137 H 0.206287 0.109832 0.678925
H146 H 0.162202 0.0198186 0.606276
H147 H 0.17827 0.0515779 0.584454
H148 H 0.225349 0.0745502 0.602486
H153 H 0.00573581 0.621463 0.466727
H158 H 0.0965601 0.0899726 0.608169
H159 H 0.104739 0.0632926 0.587286
H160 H 0.0925804 0.0279733 0.608293
H168 H 0.446656 0.212032 0.649316
H169 H 0.477869 0.296044 0.689413
H170 H 0.518237 0.271268 0.681564
H171 H 0.393013 0.157269 0.658184
H172 H 0.329167 0.134421 0.581928
H173 H 0.299035 0.110021 0.560151
H174 H 0.361179 0.117037 0.564948
H175 H 0.391767 0.160673 0.539911
H176 H 0.333838 0.161368 0.533904
H177 H 0.394012 0.221037 0.535834
H178 H 0.357622 0.251796 0.556643
H179 H 0.297236 0.192554 0.554249
H180 H 0.325055 0.214281 0.576506
H184 H 0.489991 0.291188 0.62497
H188 H 0.465051 0.310984 0.661286
H189 H 0.506645 0.287627 0.653475
H190 H 0.445349 0.217246 0.703089
H191 H 0.452675 0.187346 0.682895
H192 H 0.37422 0.225753 0.686324
H193 H 0.358596 0.159947 0.689657
H196 H 0.236016 0.151966 0.598568
H197 H 0.185956 0.131991 0.581695
H198 H 0.184605 0.165875 0.601769
H204 H 0.287918 0.167236 0.674698
Zn4_2 Zn -0.0000 1.0000 0.6764
O13_2 O -0.0000 1.0000 0.7105
C62 C 0.0925(13) 0.9333(9) 0.7384(2)
C64 C 0.0697(11) 0.8807(7) 0.7429(2)
C66 C 0.0985(11) 0.8623(9) 0.7521(2)
C68 C 0.1502(13) 0.8965(9) 0.7568(2)
C70 C 0.1731(11) 0.9491(7) 0.7523(3)
C72 C 0.1443(11) 0.9675(9) 0.7431(3)
C74 C 0.0595(15) 0.9520(10) 0.7284(3)
C76 C 0.2669(13) 0.7529(10) 0.8269(2)
C78 C 0.2173(11) 0.7273(9) 0.8191(3)
C80 C 0.2028(11) 0.7532(7) 0.8065(3)
C82 C 0.2378(11) 0.8045(8) 0.8017(2)
C84 C 0.2874(11) 0.8301(8) 0.8094(3)
C86 C 0.3020(11) 0.8042(7) 0.8220(3)
C88 C 0.2314(13) 0.9838(9) 0.7582(4)
C102 C 0.2820(15) 0.7228(11) 0.8410(3)
C116 C 0.2304(23) 0.9760(16) 0.7776(4)
C120 C 0.2602(21) 0.9638(14) 0.7495(5)
C122 C 0.0727(14) 0.8080(11) 0.7563(3)
C124 C 0.3243(13) 0.8874(10) 0.8038(4)
C126 C 0.3720(19) 0.9076(12) 0.8134(6)
C128 C 0.2989(21) 0.9135(15) 0.8113(6)
C130 C 0.3296(23) 0.8978(17) 0.7850(4)
C132 C 0.1508(13) 0.7230(9) 0.7994(4)
C134 C 0.0509(13) 0.7300(10) 0.7731(5)
C136 C 0.0090(16) 0.6907(13) 0.7587(4)
C142 C 0.0432(14) 0.6476(11) 0.7865(6)
C144 C 0.0660(11) 0.7131(9) 0.7884(4)
Cl4 Cl 0.1473(7) 0.8566(5) 0.80763(19)
Mn4 Mn 0.1559(6) 0.8141(4) 0.78106(17)
N6 N 0.0785(12) 0.7828(9) 0.7710(4)
N8 N 0.1204(11) 0.7419(8) 0.7932(4)
O16 O 0.0094(15) 0.9173(10) 0.7243(4)
O24 O 0.1785(12) 0.8751(9) 0.7654(3)
O26 O 0.2482(15) 0.6746(11) 0.8474(3)
O30 O 0.3342(15) 0.7480(11) 0.8469(4)
O34 O 0.2250(12) 0.8312(8) 0.7881(3)
Zn9 Zn 0.2651 0.6322 0.8596
Zn10 Zn 0.3672 0.7349 0.8596
H59 H 0.189823 0.687053 0.822891
H72 H 0.0291706 0.853914 0.739241
H91 H 0.340908 0.824179 0.828053
H97 H 0.295382 0.908056 0.826233
H98 H 0.321695 0.955037 0.808206
H99 H 0.26014 0.897424 0.805284
H100 H 0.291635 0.887178 0.779163
H101 H 0.356393 0.939269 0.7828
H102 H 0.34483 0.875212 0.778388
H103 H 0.0207323 0.732366 0.780998
H106 H 0.0297738 0.681308 0.748429
H120 H 0.0651386 0.640466 0.776018
H121 H 0.0470003 0.63214 0.799705
H125 H 0.256337 0.965178 0.734625
H126 H 0.301118 0.98724 0.753375
H127 H 0.245346 0.923594 0.753863
H128 H 0.134193 0.680868 0.798995
H129 H 0.39037 0.884664 0.810119
H130 H 0.397669 0.948061 0.809371
H131 H 0.364691 0.905772 0.828222
H139 H 0.215499 0.934832 0.780489
H140 H 0.269726 0.998891 0.783155
H141 H 0.20511 0.988405 0.784108
H142 H 0.0438519 0.782825 0.746204
H195 H 0.0452032 0.717606 0.80006
C8 C 0.5804(10) 0.1806(9) 0.4936(2)
C9 C 0.6060(9) 0.1566(7) 0.4858(3)
C10 C 0.5801(7) 0.1162(8) 0.4732(3)
C11 C 0.5288(8) 0.0999(8) 0.4684(2)
C12 C 0.5032(8) 0.1239(7) 0.4761(3)
C13 C 0.5291(7) 0.1644(9) 0.4887(3)
C15 C 0.7421(6) 0.2482(6) 0.5734(3)
C16 C 0.7344(7) 0.2376(7) 0.5922(3)
C17 C 0.7525(7) 0.2074(8) 0.6006(3)
C18 C 0.7784(7) 0.1879(7) 0.5902(3)
C19 C 0.7861(7) 0.1985(8) 0.5714(3)
C20 C 0.7680(7) 0.2286(8) 0.5630(3)
C21 C 0.6105(11) 0.2258(10) 0.5077(3)
C22 C 0.9226(6) 0.0691(5) 0.6581(3)
C23 C 0.8941(8) 0.0919(7) 0.6642(3)
C24 C 0.8706(8) 0.1089(7) 0.6515(3)
C25 C 0.8755(7) 0.1031(7) 0.6327(3)
C26 C 0.9040(8) 0.0803(7) 0.6266(3)
C27 C 0.9276(7) 0.0633(6) 0.6393(3)
C32 C 0.4459(10) 0.1035(9) 0.4705(4)
C33 C 0.4257(12) 0.1310(15) 0.4801(6)
C34 C 0.4198(15) 0.0520(14) 0.4780(6)
C35 C 0.4355(17) 0.0984(15) 0.4517(4)
C36 C 0.6103(9) 0.0944(9) 0.4661(4)
C40 C 0.7116(11) 0.0308(11) 0.4477(6)
C41 C 0.6857(11) 0.0622(8) 0.4532(6)
C42 C 0.6202(9) 0.0195(7) 0.4551(4)
C43 C 0.7236(6) 0.2812(8) 0.5630(4)
C44 C 0.8152(10) 0.1757(10) 0.5602(4)
C45 C 0.7876(15) 0.1212(11) 0.5620(6)
C46 C 0.8663(11) 0.2024(16) 0.5672(6)
C47 C 0.8182(17) 0.1888(16) 0.5414(4)
C48 C 0.7424(10) 0.1971(12) 0.6197(3)
C49 C 0.9486(8) 0.0503(6) 0.6726(4)
C50 C 0.9089(10) 0.0749(10) 0.6054(3)
C51 C 0.9333(17) 0.0452(16) 0.6021(6)
C52 C 0.9427(15) 0.1267(11) 0.5993(5)
C53 C 0.8624(12) 0.0570(16) 0.5964(5)
C54 C 0.8437(12) 0.1308(10) 0.6603(3)
C55 C 0.7677(12) 0.1924(17) 0.6510(3)
C56 C 0.7223(12) 0.1936(18) 0.6612(4)
C57 C 0.7331(15) 0.2126(19) 0.6807(4)
C58 C 0.7845(14) 0.2268(14) 0.6881(4)
C59 C 0.8034(16) 0.1884(16) 0.6828(3)
C60 C 0.8114(11) 0.1957(12) 0.6602(3)
Cl2 Cl 0.8989(5) 0.2328(5) 0.61839(19)
Mn1 Mn 0.5192(4) 0.0084(4) 0.44773(17)
Mn2 Mn 0.8151(4) 0.1548(4) 0.62463(17)
N2 N 0.5914(8) 0.0451(8) 0.4599(4)
N3 N 0.7682(11) 0.1857(14) 0.6320(3)
N4 N 0.8307(12) 0.1631(12) 0.6522(3)
O4 O 0.6587(11) 0.2402(10) 0.5141(3)
O6 O 0.5021(8) 0.0604(9) 0.4548(3)
O8 O 0.7225(10) 0.2762(10) 0.5442(3)
O9 O 0.7961(8) 0.1551(8) 0.5979(3)
O10 O 0.9388(10) 0.0532(10) 0.6909(3)
O11 O 0.9790(10) 0.0322(10) 0.6647(4)
O12 O 0.8522(8) 0.1177(8) 0.6191(3)
Zn4_3 Zn 1.0000 -0.0000 0.6764
O13_3 O 1.0000 -0.0000 0.7105
C75 C 0.8194(9) 0.3998(13) 0.4936(2)
C77 C 0.8434(7) 0.4494(11) 0.4858(3)
C79 C 0.8838(8) 0.4639(11) 0.4732(3)
C81 C 0.9001(8) 0.4289(11) 0.4684(2)
C83 C 0.8761(7) 0.3793(11) 0.4761(3)
C85 C 0.8356(9) 0.3647(11) 0.4887(3)
C101 C 0.7742(10) 0.3847(15) 0.5077(3)
C123 C 0.8965(9) 0.3424(13) 0.4705(4)
C125 C 0.8690(15) 0.2947(19) 0.4801(6)
C127 C 0.9480(14) 0.3678(21) 0.4780(6)
C129 C 0.9016(15) 0.3371(23) 0.4517(4)
C131 C 0.9056(9) 0.5159(13) 0.4661(4)
C139 C 0.9692(11) 0.6808(16) 0.4477(6)
C141 C 0.9378(8) 0.6235(14) 0.4532(6)
C143 C 0.9805(7) 0.6007(11) 0.4551(4)
Mn3 Mn 0.9916(4) 0.5108(6) 0.44773(17)
N7 N 0.9549(8) 0.5463(11) 0.4599(4)
O22 O 0.9943(10) 0.0850(10) 0.7248(4)
O25 O 0.7598(10) 0.4185(15) 0.5141(3)
O29 O 0.7472(10) 0.3325(15) 0.5136(4)
O33 O 0.9396(9) 0.4417(12) 0.4548(3)
Zn15 Zn 0.9640 0.0359 0.7103
H1 H 0.77407 0.236865 0.54828
H2 H 0.448669 0.172373 0.476785
H3 H 0.385272 0.116275 0.476038
H4 H 0.427562 0.125586 0.494889
H6 H 0.714172 0.252969 0.600352
H14 H 0.425278 0.053993 0.4929
H15 H 0.378296 0.0333251 0.474872
H16 H 0.435909 0.0293824 0.471951
H17 H 0.890168 0.0964549 0.678925
H18 H 0.949967 0.0454669 0.634508
H22 H 0.652465 0.119992 0.465661
H24 H 0.652026 0.0151328 0.415095
H26 H 0.446155 0.0711231 0.44583
H27 H 0.394064 0.0837908 0.449467
H28 H 0.458122 0.136285 0.445055
H29 H 0.720589 0.00546947 0.421754
H31 H 0.751592 0.0592733 0.443969
H32 H 0.711687 0.00987662 0.460052
H33 H 0.64628 0.169437 0.489557
H34 H 0.509155 0.183396 0.49472
H37 H 0.865579 0.194746 0.581928
H38 H 0.889979 0.189014 0.560151
H39 H 0.882963 0.244142 0.564948
H40 H 0.692867 0.0913392 0.442685
H41 H 0.701194 0.0815273 0.466372
H42 H 0.848034 0.0840501 0.598568
H43 H 0.868009 0.0539643 0.581695
H44 H 0.834125 0.01873 0.601769
H45 H 0.689016 0.154067 0.661286
H46 H 0.712373 0.219018 0.653475
H47 H 0.703956 0.181826 0.689413
H48 H 0.728732 0.246969 0.681564
H49 H 0.782754 0.228104 0.703089
H50 H 0.812654 0.26533 0.682895
H52 H 0.748204 0.105826 0.556643
H53 H 0.807446 0.104682 0.554249
H54 H 0.785719 0.110774 0.576506
H55 H 0.910027 0.0065875 0.608169
H56 H 0.936707 0.0414469 0.587286
H57 H 0.972027 0.0646072 0.608293
H58 H 0.830563 0.476843 0.489557
H60 H 0.839327 0.231095 0.539911
H61 H 0.838632 0.17247 0.533904
H62 H 0.778963 0.172975 0.535834
H63 H 0.980181 0.142384 0.606276
H64 H 0.948422 0.126692 0.584454
H65 H 0.92545 0.150799 0.602486
H66 H 0.842731 0.235744 0.658184
H67 H 0.708812 0.198803 0.62497
H68 H 0.832764 0.120682 0.674698
H69 H 0.774247 0.148466 0.686324
H70 H 0.840053 0.19865 0.689657
H71 H 0.787968 0.234625 0.649316
H77 H 0.827627 0.276296 0.476785
H78 H 0.883725 0.268997 0.476038
H79 H 0.874414 0.301976 0.494889
H92 H 0.946007 0.371285 0.4929
H93 H 0.966675 0.344971 0.474872
H94 H 0.970618 0.406527 0.471951
H104 H 0.984867 0.636893 0.415095
H114 H 0.940727 0.692319 0.443969
H115 H 0.990123 0.70181 0.460052
H118 H 0.908661 0.601528 0.442685
H119 H 0.918473 0.619666 0.466372
H122 H 0.816604 0.325759 0.49472
H132 H 0.994531 0.71512 0.421754
H134 H 0.928877 0.375032 0.44583
H135 H 0.916209 0.310274 0.449467
H136 H 0.863715 0.321837 0.445055
H138 H 0.880008 0.532474 0.465661
C1 C 0.4000(9) 0.8258(10) 0.4051(2)
C2 C 0.4526(7) 0.8556(9) 0.4096(2)
C3 C 0.4710(9) 0.9028(7) 0.4188(2)
C4 C 0.4368(9) 0.9203(9) 0.4235(2)
C5 C 0.3842(7) 0.8906(8) 0.4190(3)
C6 C 0.3658(9) 0.8434(7) 0.4098(3)
C7 C 0.3813(10) 0.7741(11) 0.3951(3)
C14 C 0.3495(9) 0.9142(10) 0.4249(4)
C28 C 0.3573(16) 0.9210(17) 0.4443(4)
C29 C 0.2974(14) 0.8823(11) 0.4192(6)
C30 C 0.3695(14) 0.9630(15) 0.4162(5)
C31 C 0.5253(11) 0.9313(9) 0.4230(3)
C37 C 0.6033(10) 0.9875(8) 0.4398(5)
C38 C 0.6426(13) 0.9849(10) 0.4254(4)
C39 C 0.6918(11) 0.9922(13) 0.4328(6)
Cl1 Cl 0.4767(5) 0.9573(5) 0.47430(19)
N1 N 0.5505(9) 0.9623(8) 0.4377(4)
O1 O 0.4160(10) 0.7587(11) 0.3910(4)
O2 O 0.3276(10) 0.7517(10) 0.3915(4)
O3 O 0.4582(9) 0.9700(8) 0.4321(3)
Zn2 Zn 0.9641 0.9281 0.7103
Zn4_4 Zn 1.0000 1.0000 0.6764
O13_4 O 1.0000 1.0000 0.7105
C89 C 0.7518(6) 0.4939(8) 0.5734(3)
C91 C 0.7624(7) 0.4968(10) 0.5922(3)
C93 C 0.7926(8) 0.5451(11) 0.6006(3)
C95 C 0.8121(7) 0.5905(10) 0.5902(3)
C97 C 0.8015(8) 0.5876(11) 0.5714(3)
C99 C 0.7714(8) 0.5394(11) 0.5630(3)
C103 C 0.9309(5) 0.8535(8) 0.6581(3)
C105 C 0.9081(7) 0.8022(11) 0.6642(3)
C107 C 0.8911(7) 0.7617(11) 0.6515(3)
C109 C 0.8969(7) 0.7724(10) 0.6327(3)
C111 C 0.9197(7) 0.8237(11) 0.6266(3)
C113 C 0.9367(6) 0.8643(9) 0.6393(3)
C138 C 0.9671(17) 0.6415(11) 0.7661(6)
C140 C 0.9859(16) 0.6217(11) 0.7810(6)
C145 C 0.7188(8) 0.4424(10) 0.5630(4)
C147 C 0.8243(10) 0.6395(14) 0.5602(4)
C149 C 0.8788(11) 0.6664(19) 0.5620(6)
C151 C 0.7976(16) 0.6639(19) 0.5672(6)
C153 C 0.8112(16) 0.6294(23) 0.5414(4)
C155 C 0.8029(12) 0.5453(16) 0.6197(3)
C157 C 0.9497(6) 0.8983(10) 0.6726(4)
C159 C 0.9251(10) 0.8340(14) 0.6054(3)
C161 C 0.9548(16) 0.8881(23) 0.6021(6)
C163 C 0.8733(11) 0.8160(19) 0.5993(5)
C165 C 0.9430(16) 0.8054(20) 0.5964(5)
C167 C 0.8692(10) 0.7129(16) 0.6603(3)
C169 C 0.8076(17) 0.5753(21) 0.6510(3)
C171 C 0.8064(18) 0.5287(22) 0.6612(4)
C173 C 0.7874(19) 0.5205(24) 0.6807(4)
C175 C 0.7732(14) 0.5577(20) 0.6881(4)
C177 C 0.8116(16) 0.6150(23) 0.6828(3)
C179 C 0.8043(12) 0.6157(16) 0.6602(3)
Cl5 Cl 0.7672(5) 0.6661(7) 0.61839(19)
Mn5 Mn 0.8452(4) 0.6603(6) 0.62463(17)
N9 N 0.8143(14) 0.5825(18) 0.6320(3)
N11 N 0.8369(12) 0.6676(17) 0.6522(3)
O17 O 0.9080(11) 0.9906(15) 0.7243(4)
O21 O 0.9150(10) 0.9092(14) 0.7248(4)
O31 O 0.6675(15) 0.4147(11) 0.5136(4)
O43 O 0.7238(10) 0.4463(14) 0.5442(3)
O45 O 0.8449(8) 0.6410(11) 0.5979(3)
O47 O 0.9468(10) 0.8856(14) 0.6909(3)
O49 O 0.9678(10) 0.9468(14) 0.6647(4)
O51 O 0.8823(8) 0.7345(11) 0.6191(3)
Zn17 Zn 0.4052 0.7027 0.3770
H5 H 0.324602 0.820163 0.406264
H7 H 0.398501 0.947333 0.447155
H8 H 0.334442 0.937501 0.449822
H9 H 0.344928 0.883371 0.450774
H10 H 0.368155 0.957826 0.401292
H11 H 0.346093 0.980545 0.420042
H12 H 0.409739 0.988419 0.420529
H13 H 0.550508 0.927693 0.412871
H19 H 0.281565 0.843838 0.425444
H20 H 0.274329 0.899815 0.423517
H21 H 0.296009 0.878575 0.404231
H23 H 0.600967 0.955033 0.447665
H25 H 0.622431 0.946729 0.418805
H30 H 0.685482 0.955066 0.438134
H35 H 0.47942 0.841924 0.405908
H74 H 0.615728 0.994264 0.466727
H75 H 0.903545 0.793713 0.678925
H90 H 0.954533 0.9045 0.634508
H107 H 0.990965 0.710903 0.752138
H108 H 0.763135 0.537205 0.54828
H112 H 0.951547 0.612744 0.755087
H113 H 0.93625 0.647851 0.771467
H116 H 0.974348 0.581741 0.777302
H117 H 0.964857 0.621647 0.793385
H123 H 0.747031 0.461203 0.600352
H143 H 0.805254 0.670833 0.581928
H144 H 0.810986 0.700965 0.560151
H145 H 0.755858 0.638821 0.564948
H149 H 0.771896 0.554651 0.703089
H150 H 0.73467 0.547325 0.682895
H151 H 0.818174 0.522131 0.689413
H152 H 0.753031 0.481763 0.681564
H154 H 0.764256 0.606987 0.658184
H155 H 0.857616 0.837798 0.606276
H156 H 0.873308 0.82173 0.584454
H157 H 0.849201 0.774651 0.602486
H161 H 0.894174 0.642378 0.556643
H162 H 0.895318 0.702764 0.554249
H163 H 0.889226 0.674945 0.576506
H164 H 0.993413 0.90344 0.608169
H165 H 0.958553 0.895261 0.587286
H166 H 0.935393 0.90742 0.608293
H167 H 0.879318 0.712082 0.674698
H181 H 0.91595 0.763984 0.598568
H182 H 0.946036 0.814044 0.581695
H183 H 0.98127 0.815395 0.601769
H185 H 0.765375 0.553344 0.649316
H186 H 0.845933 0.534949 0.661286
H187 H 0.780982 0.493355 0.653475
H194 H 0.801197 0.510009 0.62497
H199 H 0.851534 0.62578 0.686324
H200 H 0.80135 0.641404 0.689657
H201 H 0.768905 0.608233 0.539911
H202 H 0.82753 0.666162 0.533904
H203 H 0.827025 0.605988 0.535834
C62_2 C 0.0667(9) 0.1591(16) 0.7384(2)
C64_2 C 0.1193(7) 0.1889(13) 0.7429(2)
C66_2 C 0.1377(9) 0.2361(14) 0.7521(2)
C68_2 C 0.1035(9) 0.2536(16) 0.7568(2)
C70_2 C 0.0509(7) 0.2239(13) 0.7523(3)
C72_2 C 0.0325(9) 0.1767(14) 0.7431(3)
C74_2 C 0.0480(10) 0.1074(18) 0.7284(3)
C76_2 C 0.2471(10) 0.5139(16) 0.8269(2)
C78_2 C 0.2727(9) 0.4899(14) 0.8191(3)
C80_2 C 0.2468(7) 0.4495(13) 0.8065(3)
C82_2 C 0.1955(8) 0.4332(14) 0.8017(2)
C84_2 C 0.1699(8) 0.4572(14) 0.8094(3)
C86_2 C 0.1958(7) 0.4977(13) 0.8220(3)
C88_2 C 0.0162(9) 0.2475(16) 0.7582(4)
C102_2 C 0.2772(11) 0.5591(19) 0.8410(3)
C116_2 C 0.0240(16) 0.2543(28) 0.7776(4)
C120_2 C 0.0362(14) 0.2963(25) 0.7495(5)
C122_2 C 0.1920(11) 0.2646(18) 0.7563(3)
C124_2 C 0.1126(10) 0.4368(16) 0.8038(4)
C126_2 C 0.0924(12) 0.4643(22) 0.8134(6)
C128_2 C 0.0865(15) 0.3853(26) 0.8113(6)
C130_2 C 0.1022(17) 0.4317(29) 0.7850(4)
C132_2 C 0.2770(9) 0.4277(16) 0.7994(4)
C134_2 C 0.2700(10) 0.3208(16) 0.7731(5)
C136_2 C 0.3093(13) 0.3182(21) 0.7587(4)
C138_2 C 0.3585(11) 0.3255(20) 0.7661(6)
C140_2 C 0.3783(11) 0.3641(19) 0.7810(6)
C142_2 C 0.3524(11) 0.3955(18) 0.7865(6)
C144_2 C 0.2869(9) 0.3528(14) 0.7884(4)
Cl4_2 Cl 0.1434(5) 0.2906(9) 0.80763(19)
Mn4_2 Mn 0.1859(4) 0.3417(7) 0.78106(17)
N6_2 N 0.2172(9) 0.2956(15) 0.7710(4)
N8_2 N 0.2581(8) 0.3784(14) 0.7932(4)
O24_2 O 0.1249(9) 0.3033(15) 0.7654(3)
O26_2 O 0.3254(11) 0.5735(19) 0.8474(3)
O30_2 O 0.2520(11) 0.5861(19) 0.8469(4)
O34_2 O 0.1688(8) 0.3937(14) 0.7881(3)
Zn9_2 Zn 0.3678 0.6328 0.8596
H59_2 H 0.312947 0.50277 0.822891
H72_2 H 0.146086 0.175257 0.739241
H91_2 H 0.175821 0.516729 0.828053
H97_2 H 0.0919443 0.387326 0.826233
H98_2 H 0.044963 0.366658 0.808206
H99_2 H 0.102576 0.362716 0.805284
H100_2 H 0.112822 0.404456 0.779163
H101_2 H 0.0607311 0.417124 0.7828
H102_2 H 0.124788 0.469618 0.778388
H103_2 H 0.267634 0.288366 0.780998
H106_2 H 0.318692 0.348466 0.748429
H107_2 H 0.289097 0.280062 0.752138
H112_2 H 0.387256 0.338803 0.755087
H113_2 H 0.352149 0.288399 0.771467
H116_2 H 0.418259 0.392607 0.777302
H117_2 H 0.378353 0.34321 0.793385
H120_2 H 0.359534 0.424673 0.776018
H121_2 H 0.36786 0.414861 0.799705
H125_2 H 0.0348215 0.291159 0.734625
H126_2 H 0.01276 0.313878 0.753375
H127_2 H 0.0764059 0.321752 0.753863
H128_2 H 0.319132 0.453325 0.798995
H129_2 H 0.115336 0.505706 0.810119
H130_2 H 0.0519387 0.449608 0.809371
H131_2 H 0.0942283 0.458919 0.828222
H139_2 H 0.0651678 0.280666 0.780489
H140_2 H 0.0011085 0.270835 0.783155
H141_2 H 0.0115951 0.216705 0.784108
H142_2 H 0.217175 0.261027 0.746204
H195_2 H 0.282394 0.327598 0.80006
C118_2 C 0.9641(14) 0.2156(23) 0.7525(6)
H73_2 H 0.991268 0.153496 0.739598
H81_2 H 0.948232 0.177171 0.758777
H82_2 H 0.940996 0.233148 0.75685
H83_2 H 0.962676 0.211908 0.737564
C61_2 C 0.4258(13) 0.6000(16) 0.4051(2)
C63_2 C 0.4030(11) 0.5474(14) 0.4096(2)
C65_2 C 0.4318(11) 0.5290(13) 0.4188(2)
C67_2 C 0.4835(13) 0.5632(16) 0.4235(2)
C69_2 C 0.5064(11) 0.6158(14) 0.4190(3)
C71_2 C 0.4776(11) 0.6342(13) 0.4098(3)
C73_2 C 0.3928(15) 0.6187(19) 0.3951(3)
C75_2 C 0.6002(13) 0.4196(16) 0.4936(2)
C77_2 C 0.5506(11) 0.3940(13) 0.4858(3)
C79_2 C 0.5361(11) 0.4199(14) 0.4732(3)
C81_2 C 0.5711(11) 0.4712(14) 0.4684(2)
C83_2 C 0.6207(11) 0.4968(13) 0.4761(3)
C85_2 C 0.6353(11) 0.4709(14) 0.4887(3)
C87_2 C 0.5647(13) 0.6505(16) 0.4249(4)
C101_2 C 0.6153(15) 0.3895(18) 0.5077(3)
C115_2 C 0.5637(23) 0.6427(29) 0.4443(4)
C117_2 C 0.5849(18) 0.7026(21) 0.4192(6)
C119_2 C 0.5935(21) 0.6305(26) 0.4162(5)
C121_2 C 0.4060(14) 0.4747(17) 0.4230(3)
C123_2 C 0.6576(13) 0.5541(16) 0.4705(4)
C125_2 C 0.7053(19) 0.5743(24) 0.4801(6)
C127_2 C 0.6322(21) 0.5802(25) 0.4780(6)
C129_2 C 0.6629(23) 0.5645(27) 0.4517(4)
C131_2 C 0.4841(13) 0.3897(16) 0.4661(4)
C133_2 C 0.3842(13) 0.3967(15) 0.4398(5)
C135_2 C 0.3423(16) 0.3574(19) 0.4254(4)
C137_2 C 0.3004(17) 0.3082(21) 0.4328(6)
C139_2 C 0.3192(16) 0.2884(19) 0.4477(6)
C141_2 C 0.3765(14) 0.3143(16) 0.4532(6)
C143_2 C 0.3993(11) 0.3798(13) 0.4551(4)
Cl3_2 Cl 0.4806(7) 0.5233(9) 0.47430(19)
Mn3_2 Mn 0.4892(6) 0.4808(7) 0.44773(17)
N5_2 N 0.4118(12) 0.4495(14) 0.4377(4)
N7_2 N 0.4537(11) 0.4086(14) 0.4599(4)
O15_2 O 0.3427(15) 0.5840(19) 0.3910(4)
O19_2 O 0.4241(14) 0.6724(17) 0.3915(4)
O23_2 O 0.5118(12) 0.5418(14) 0.4321(3)
O33_2 O 0.5583(12) 0.4979(15) 0.4548(3)
H36_2 H 0.362504 0.52058 0.405908
H51_2 H 0.495561 0.675398 0.406264
H58_2 H 0.523157 0.35372 0.489557
H76_2 H 0.354066 0.399033 0.447665
H77_2 H 0.723704 0.551331 0.476785
H78_2 H 0.731003 0.614728 0.476038
H79_2 H 0.698024 0.572438 0.494889
H84_2 H 0.562273 0.718435 0.425444
H85_2 H 0.625486 0.725671 0.423517
H86_2 H 0.582565 0.703991 0.404231
H87_2 H 0.589671 0.631845 0.401292
H88_2 H 0.634452 0.653907 0.420042
H89_2 H 0.578679 0.590261 0.420529
H92_2 H 0.628715 0.574722 0.4929
H93_2 H 0.655029 0.621704 0.474872
H94_2 H 0.593473 0.564091 0.471951
H104_2 H 0.363107 0.347974 0.415095
H105_2 H 0.324298 0.377569 0.418805
H109_2 H 0.548832 0.601499 0.447155
H110_2 H 0.60306 0.665558 0.449822
H111_2 H 0.538443 0.655072 0.450774
H114_2 H 0.307681 0.248408 0.443969
H115_2 H 0.29819 0.288313 0.460052
H118_2 H 0.398472 0.307133 0.442685
H119_2 H 0.380334 0.298806 0.466372
H122_2 H 0.674241 0.490845 0.49472
H124_2 H 0.377185 0.449492 0.412871
H132_2 H 0.28488 0.279411 0.421754
H133_2 H 0.269584 0.314518 0.438134
H134_2 H 0.624968 0.553845 0.44583
H135_2 H 0.689726 0.605936 0.449467
H136_2 H 0.678163 0.541878 0.445055
H138_2 H 0.467526 0.347535 0.465661
H153_2 H 0.378537 0.384272 0.466727
C138_3 C 0.6745(20) 0.0329(17) 0.7661(6)
C140_3 C 0.6359(19) 0.0141(16) 0.7810(6)
H107_3 H 0.719938 0.0090352 0.752138
H112_3 H 0.661197 0.0484532 0.755087
H113_3 H 0.711601 0.0637496 0.771467
H116_3 H 0.607393 0.0256522 0.777302
H117_3 H 0.65679 0.0351433 0.793385
C62_3 C 0.8409(16) 0.9075(13) 0.7384(2)
C64_3 C 0.8111(13) 0.9303(11) 0.7429(2)
C66_3 C 0.7639(14) 0.9015(11) 0.7521(2)
C68_3 C 0.7464(16) 0.8498(13) 0.7568(2)
C70_3 C 0.7761(13) 0.8269(11) 0.7523(3)
C72_3 C 0.8233(14) 0.8557(11) 0.7431(3)
C74_3 C 0.8926(18) 0.9405(15) 0.7284(3)
C76_3 C 0.4861(16) 0.7331(13) 0.8269(2)
C78_3 C 0.5101(14) 0.7827(11) 0.8191(3)
C80_3 C 0.5505(13) 0.7972(11) 0.8065(3)
C82_3 C 0.5668(14) 0.7622(11) 0.8017(2)
C84_3 C 0.5428(14) 0.7126(11) 0.8094(3)
C86_3 C 0.5023(13) 0.6980(11) 0.8220(3)
C88_3 C 0.7525(16) 0.7686(13) 0.7582(4)
C102_3 C 0.4409(19) 0.7180(15) 0.8410(3)
C116_3 C 0.7457(28) 0.7696(23) 0.7776(4)
C118_3 C 0.7844(23) 0.7484(18) 0.7525(6)
C120_3 C 0.7037(25) 0.7398(21) 0.7495(5)
C122_3 C 0.7354(18) 0.9273(14) 0.7563(3)
C124_3 C 0.5632(16) 0.6757(13) 0.8038(4)
C126_3 C 0.5357(22) 0.6280(19) 0.8134(6)
C128_3 C 0.6147(26) 0.7011(21) 0.8113(6)
C130_3 C 0.5683(29) 0.6704(23) 0.7850(4)
C132_3 C 0.5723(16) 0.8492(13) 0.7994(4)
C134_3 C 0.6792(16) 0.9491(13) 0.7731(5)
C136_3 C 0.6818(21) 0.9910(16) 0.7587(4)
C142_3 C 0.6045(18) 0.9568(14) 0.7865(6)
C144_3 C 0.6472(14) 0.9340(11) 0.7884(4)
Cl4_3 Cl 0.7094(9) 0.8527(7) 0.80763(19)
Mn4_3 Mn 0.6583(7) 0.8441(6) 0.78106(17)
N6_3 N 0.7044(15) 0.9215(12) 0.7710(4)
N8_3 N 0.6216(14) 0.8796(11) 0.7932(4)
O24_3 O 0.6967(15) 0.8215(12) 0.7654(3)
O26_3 O 0.4265(19) 0.7518(15) 0.8474(3)
O30_3 O 0.4139(19) 0.6658(15) 0.8469(4)
O34_3 O 0.6063(14) 0.7750(12) 0.7881(3)
H59_3 H 0.49723 0.810177 0.822891
H72_3 H 0.824743 0.970829 0.739241
H73_3 H 0.846504 0.837772 0.739598
H81_3 H 0.822829 0.771061 0.758777
H82_3 H 0.766852 0.707848 0.75685
H83_3 H 0.788092 0.750768 0.737564
H91_3 H 0.483271 0.659092 0.828053
H97_3 H 0.612674 0.704618 0.826233
H98_3 H 0.633342 0.678305 0.808206
H99_3 H 0.637284 0.73986 0.805284
H100_3 H 0.595544 0.708365 0.779163
H101_3 H 0.582876 0.643607 0.7828
H102_3 H 0.530382 0.65517 0.778388
H103_3 H 0.711634 0.979268 0.780998
H106_3 H 0.651534 0.970226 0.748429
H120_3 H 0.575327 0.934861 0.776018
H121_3 H 0.585139 0.953 0.799705
H125_3 H 0.708841 0.743663 0.734625
H126_3 H 0.686122 0.698882 0.753375
H127_3 H 0.678248 0.754654 0.753863
H128_3 H 0.546675 0.865807 0.798995
H129_3 H 0.494294 0.60963 0.810119
H130_3 H 0.550392 0.602331 0.809371
H131_3 H 0.541081 0.635309 0.828222
H139_3 H 0.719334 0.784501 0.780489
H140_3 H 0.729165 0.730274 0.783155
H141_3 H 0.783295 0.79489 0.784108
H142_3 H 0.738973 0.956148 0.746204
H195_3 H 0.672402 0.954797 0.80006
C126_4 C 0.0386(19) 0.2410(12) 0.1468(6)
C174_2 C 0.1462(24) 0.6002(15) 0.0140(4)
C176_2 C 0.1090(20) 0.5488(14) 0.0214(4)
C178_2 C 0.0517(23) 0.5299(16) 0.0161(3)
O30_4 O 0.0008(15) 0.0814(11) 0.1803(4)
Zn10_2 Zn 0.0338 0.0683 0.1930
H91_4 H 0.00757456 0.157512 0.161386
H101_4 H 0.0230597 0.272602 0.116133
H102_4 H 0.0114968 0.208545 0.111721
H129_4 H 0.057037 0.217997 0.143452
H130_4 H 0.0643359 0.281395 0.142705
H131_4 H 0.0313575 0.239105 0.161556
H169_2 H 0.144536 0.629377 0.0227459
H170_2 H 0.184904 0.604601 0.0148971
H190_2 H 0.112016 0.550579 0.0364228
H191_2 H 0.119342 0.520679 0.0162288
H192_2 H 0.0408864 0.559087 0.0196576
H193_2 H 0.0252629 0.49328 0.0229905
C90_2 C 0.1728(8) 0.5912(6) 0.9067(3)
C92_2 C 0.1699(10) 0.5989(7) 0.9255(3)
C94_2 C 0.1216(11) 0.5808(7) 0.9339(3)
C96_2 C 0.0762(10) 0.5549(7) 0.9235(3)
C98_2 C 0.0791(11) 0.5472(7) 0.9047(3)
C100_2 C 0.1273(11) 0.5653(7) 0.8963(3)
C146_2 C 0.2243(10) 0.6097(6) 0.8963(4)
C148_2 C 0.0272(14) 0.5181(10) 0.8935(4)
C150_2 C 0.0003(19) 0.5457(15) 0.8953(6)
C152_2 C 0.0028(19) 0.4670(11) 0.9005(6)
C154_2 C 0.0373(23) 0.5151(17) 0.8747(4)
C156_2 C 0.1214(16) 0.5909(10) 0.9530(3)
C170_2 C 0.0914(21) 0.5656(12) 0.9843(3)
C172_2 C 0.1380(22) 0.6110(12) 0.9945(4)
C180_2 C 0.0510(16) 0.5219(11) 0.9935(3)
Cl6_2 Cl 0.0006(7) 0.4344(5) 0.95172(19)
Mn6_2 Mn 0.0064(6) 0.5182(4) 0.95796(17)
N10_2 N 0.0842(18) 0.5651(11) 0.9653(3)
O36_2 O 0.2702(13) 0.6247(9) 0.9053(4)
O41_2 O 0.3546(9) 0.7298(13) 0.9053(4)
O42_2 O 0.3753(9) 0.6454(9) 0.9053(4)
O44_2 O 0.2204(14) 0.6108(10) 0.8775(3)
O46_2 O 0.0257(11) 0.5372(8) 0.9312(3)
Zn22_2 Zn 0.3333 0.6666 0.8950
O54_2 O 0.3334 0.6666 0.8698
H80_2 H 0.205464 0.619161 0.933685
H95_2 H 0.129462 0.559263 0.881613
H168_2 H 0.113323 0.545365 0.98265
H171_2 H 0.0596801 0.490603 0.991517
H174_2 H 0.0278454 0.45037 0.898282
H175_2 H 0.0584342 0.494006 0.873245
H176_2 H 0.000504688 0.494701 0.867237
H177_2 H 0.0606787 0.55437 0.869167
H178_2 H 0.024289 0.585129 0.889976
H184_2 H 0.156658 0.624522 0.958304
H188_2 H 0.131717 0.644317 0.994619
H189_2 H 0.173312 0.620961 0.986809
C49_2 C 0.6153(8) 0.3836(6) 0.0059(4)
C57_2 C 0.3998(15) 0.5459(19) 0.0140(4)
C58_2 C 0.4512(14) 0.5601(14) 0.0214(4)
C59_2 C 0.4701(16) 0.5217(16) 0.0161(3)
O10_2 O 0.6055(10) 0.3865(10) 0.0242(3)
Zn2_2 Zn 0.6308 0.2614 0.0436
Zn4_5 Zn 0.6667 0.3333 0.0097
O13_5 O 0.6667 0.3333 0.0438
C62_4 C 0.7591(13) 0.2667(9) 0.0718(2)
C64_4 C 0.7363(11) 0.2141(7) 0.0763(2)
C66_4 C 0.7651(11) 0.1957(9) 0.0855(2)
C68_4 C 0.8168(13) 0.2299(9) 0.0902(2)
C70_4 C 0.8397(11) 0.2825(7) 0.0857(3)
C72_4 C 0.8109(11) 0.3009(9) 0.0765(3)
C74_4 C 0.7261(15) 0.2854(10) 0.0618(3)
C76_4 C 0.9335(13) 0.0863(10) 0.1603(2)
C78_4 C 0.8839(11) 0.0607(9) 0.1525(3)
C80_4 C 0.8694(11) 0.0866(7) 0.1399(3)
C82_4 C 0.9044(11) 0.1379(8) 0.1351(2)
C84_4 C 0.9540(11) 0.1635(8) 0.1428(3)
C86_4 C 0.9686(11) 0.1376(7) 0.1554(3)
C88_4 C 0.8980(13) 0.3172(9) 0.0916(4)
C102_4 C 0.9486(15) 0.0562(11) 0.1744(3)
C116_4 C 0.8970(23) 0.3094(16) 0.1110(4)
C118_4 C 0.9182(18) 0.3693(14) 0.0859(6)
C120_4 C 0.9268(21) 0.2972(14) 0.0829(5)
C122_4 C 0.7393(14) 0.1414(11) 0.0897(3)
C124_4 C 0.9909(13) 0.2208(10) 0.1372(4)
C128_4 C 0.9655(21) 0.2469(15) 0.1447(6)
C130_4 C 0.9962(23) 0.2312(17) 0.1184(4)
C132_4 C 0.8174(13) 0.0564(9) 0.1328(4)
C134_4 C 0.7175(13) 0.0634(10) 0.1065(5)
C136_4 C 0.6756(16) 0.0241(13) 0.0921(4)
C144_4 C 0.7326(11) 0.0465(9) 0.1218(4)
C157_2 C 0.6164(6) 0.2316(10) 0.0059(4)
C158_2 C 0.7684(10) 0.3847(8) 0.0059(4)
Cl4_4 Cl 0.8139(7) 0.1900(5) 0.14097(19)
Mn4_4 Mn 0.8225(6) 0.1475(4) 0.11440(17)
N6_4 N 0.7451(12) 0.1162(9) 0.1044(4)
N8_4 N 0.7870(11) 0.0753(8) 0.1266(4)
O16_2 O 0.6760(15) 0.2507(10) 0.0577(4)
O17_2 O 0.5746(11) 0.3240(15) 0.0577(4)
O18_2 O 0.7493(10) 0.4254(11) 0.0577(4)
O20_2 O 0.7574(14) 0.3391(10) 0.0582(4)
O21_2 O 0.5816(10) 0.2426(14) 0.0582(4)
O22_2 O 0.6609(10) 0.4184(10) 0.0582(4)
O24_4 O 0.8451(12) 0.2085(9) 0.0988(3)
O26_4 O 0.9148(15) 0.0080(11) 0.1808(3)
O34_4 O 0.8916(12) 0.1646(8) 0.1215(3)
O47_2 O 0.6135(10) 0.2189(14) 0.0242(3)
O48_2 O 0.7811(14) 0.3945(10) 0.0242(3)
Zn15_2 Zn 0.6307 0.3692 0.0436
Zn16_2 Zn 0.7386 0.3693 0.0436
H17_2 H 0.556835 0.429788 0.0122587
H47_2 H 0.370623 0.515159 0.0227459
H48_2 H 0.395399 0.580303 0.0148971
H49_2 H 0.449421 0.561437 0.0364228
H50_2 H 0.479321 0.598663 0.0162288
H59_4 H 0.85649 0.0203862 0.156224
H68_2 H 0.49943 0.454015 0.00803117
H69_2 H 0.440913 0.4818 0.0196576
H70_2 H 0.50672 0.531983 0.0229905
H72_4 H 0.695837 0.187247 0.0725744
H73_4 H 0.828894 0.342065 0.0729311
H75_2 H 0.570212 0.127047 0.0122587
H81_4 H 0.895606 0.385102 0.0921104
H82_4 H 0.958819 0.392338 0.0901837
H83_4 H 0.915899 0.370657 0.0708973
H97_4 H 0.962049 0.241389 0.159567
H98_4 H 0.988362 0.28837 0.141539
H99_4 H 0.926807 0.230758 0.138618
H100_4 H 0.958301 0.220512 0.112496
H103_4 H 0.687399 0.0656998 0.114332
H106_4 H 0.696441 0.014641 0.081762
H107_4 H 0.657631 0.0442362 0.0854713
H125_4 H 0.923004 0.298512 0.0679586
H126_4 H 0.967785 0.320573 0.0867084
H127_4 H 0.912013 0.256927 0.087196
H128_4 H 0.80086 0.0142014 0.132328
H137_2 H 0.872953 0.443165 0.0122587
H139_4 H 0.882165 0.268166 0.113822
H140_4 H 0.936393 0.332225 0.116489
H141_4 H 0.871776 0.321738 0.117441
H142_4 H 0.710519 0.116158 0.0795372
H167_2 H 0.545985 0.0454153 0.00803117
H195_4 H 0.71187 0.050939 0.133393
H204_2 H 0.954585 0.50057 0.00803117
C15_2 C 0.4088(6) 0.5815(6) 0.9067(3)
C16_2 C 0.4011(7) 0.5709(7) 0.9255(3)
C17_2 C 0.4192(7) 0.5407(8) 0.9339(3)
C18_2 C 0.4451(7) 0.5212(7) 0.9235(3)
C19_2 C 0.4528(7) 0.5318(8) 0.9047(3)
C20_2 C 0.4347(7) 0.5619(8) 0.8963(3)
C22_2 C 0.5893(6) 0.4024(5) 0.9914(3)
C23_2 C 0.5608(8) 0.4252(7) 0.9975(3)
C24_2 C 0.5373(8) 0.4422(7) 0.9848(3)
C25_2 C 0.5422(7) 0.4364(7) 0.9660(3)
C26_2 C 0.5707(8) 0.4136(7) 0.9599(3)
C27_2 C 0.5943(7) 0.3966(6) 0.9726(3)
C43_2 C 0.3903(6) 0.6145(8) 0.8963(4)
C44_2 C 0.4819(10) 0.5090(10) 0.8935(4)
C45_2 C 0.4543(15) 0.4545(11) 0.8953(6)
C46_2 C 0.5330(11) 0.5357(16) 0.9005(6)
C47_2 C 0.4849(17) 0.5221(16) 0.8747(4)
C48_2 C 0.4091(10) 0.5304(12) 0.9530(3)
C50_2 C 0.5756(10) 0.4082(10) 0.9387(3)
C51_2 C 0.6000(17) 0.3785(16) 0.9354(6)
C52_2 C 0.6094(15) 0.4600(11) 0.9326(5)
C53_2 C 0.5291(12) 0.3903(16) 0.9297(5)
C54_2 C 0.5104(12) 0.4641(10) 0.9936(3)
C55_2 C 0.4344(12) 0.5257(17) 0.9843(3)
C56_2 C 0.3890(12) 0.5269(18) 0.9945(4)
C60_2 C 0.4781(11) 0.5290(12) 0.9935(3)
Cl2_2 Cl 0.5656(5) 0.5661(5) 0.95172(19)
Mn2_2 Mn 0.4818(4) 0.4881(4) 0.95796(17)
N3_2 N 0.4349(11) 0.5190(14) 0.9653(3)
N4_2 N 0.4974(12) 0.4964(12) 0.9855(3)
O8_2 O 0.3892(10) 0.6095(10) 0.8775(3)
O9_2 O 0.4628(8) 0.4884(8) 0.9312(3)
O11_2 O 0.6457(10) 0.3655(10) 0.9980(4)
O12_2 O 0.5189(8) 0.4510(8) 0.9524(3)
C103_2 C 0.5976(5) 0.1868(8) 0.9914(3)
C104_2 C 0.8132(8) 0.4107(6) 0.9914(3)
C105_2 C 0.5748(7) 0.1355(11) 0.9975(3)
C106_2 C 0.8645(11) 0.4392(8) 0.9975(3)
C107_2 C 0.5578(7) 0.0950(11) 0.9848(3)
C108_2 C 0.9050(11) 0.4627(8) 0.9848(3)
C109_2 C 0.5636(7) 0.1057(10) 0.9660(3)
C110_2 C 0.8943(10) 0.4578(7) 0.9660(3)
C111_2 C 0.5864(7) 0.1570(11) 0.9599(3)
C112_2 C 0.8430(11) 0.4293(8) 0.9599(3)
C113_2 C 0.6034(6) 0.1976(9) 0.9726(3)
C114_2 C 0.8024(9) 0.4057(7) 0.9726(3)
C159_2 C 0.5918(10) 0.1673(14) 0.9387(3)
C160_2 C 0.8327(14) 0.4244(10) 0.9387(3)
C161_2 C 0.6215(16) 0.2214(23) 0.9354(6)
C162_2 C 0.7786(23) 0.4000(17) 0.9354(6)
C163_2 C 0.5400(11) 0.1493(19) 0.9326(5)
C164_2 C 0.8507(19) 0.3906(15) 0.9326(5)
C165_2 C 0.6097(16) 0.1387(20) 0.9297(5)
C166_2 C 0.8613(20) 0.4709(12) 0.9297(5)
C167_2 C 0.5359(10) 0.0462(16) 0.9936(3)
C168_2 C 0.9538(16) 0.4896(12) 0.9936(3)
N11_2 N 0.5036(12) 0.0009(17) 0.9855(3)
N12_2 N 0.9991(17) 0.5026(12) 0.9855(3)
O49_2 O 0.6345(10) 0.2801(14) 0.9980(4)
O50_2 O 0.7199(14) 0.3543(10) 0.9980(4)
O51_2 O 0.5490(8) 0.0678(11) 0.9524(3)
O52_2 O 0.9322(11) 0.4811(8) 0.9524(3)
H1_2 H 0.440737 0.570199 0.881613
H6_2 H 0.380839 0.586303 0.933685
H18_2 H 0.616634 0.3788 0.967841
H37_2 H 0.532246 0.52808 0.915262
H38_2 H 0.556646 0.522348 0.893484
H39_2 H 0.54963 0.577475 0.898282
H42_2 H 0.5147 0.417383 0.931902
H43_2 H 0.534675 0.387298 0.915028
H44_2 H 0.500792 0.352063 0.935102
H45_2 H 0.355683 0.4874 0.994619
H46_2 H 0.379039 0.552351 0.986809
H52_2 H 0.414871 0.43916 0.889976
H53_2 H 0.474113 0.438015 0.887583
H54_2 H 0.452386 0.444107 0.909839
H55_2 H 0.576694 0.339921 0.941503
H56_2 H 0.603374 0.37478 0.92062
H57_2 H 0.638693 0.397941 0.941627
H60_2 H 0.505994 0.564428 0.873245
H61_2 H 0.505299 0.505803 0.867237
H62_2 H 0.44563 0.506308 0.869167
H63_2 H 0.646848 0.475717 0.939609
H64_2 H 0.615089 0.460025 0.917788
H65_2 H 0.592116 0.484132 0.935819
H66_2 H 0.509397 0.569077 0.991517
H67_2 H 0.375478 0.532136 0.958304
H71_2 H 0.454635 0.567958 0.98265
H90_2 H 0.6212 0.237833 0.967841
H96_2 H 0.762167 0.383366 0.967841
H143_2 H 0.47192 0.00416635 0.915262
H144_2 H 0.477652 0.0342981 0.893484
H146_2 H 0.828869 0.353152 0.939609
H147_2 H 0.844937 0.384911 0.917788
H148_2 H 0.892016 0.407884 0.935819
H155_2 H 0.524283 0.171131 0.939609
H156_2 H 0.539975 0.155063 0.917788
H157_2 H 0.515868 0.107984 0.935819
H158_2 H 0.763227 0.423306 0.941503
H159_2 H 0.771406 0.396626 0.92062
H160_2 H 0.759247 0.361307 0.941627
H162_2 H 0.561985 0.0360976 0.887583
H163_2 H 0.555893 0.00827876 0.909839
H164_2 H 0.660079 0.236773 0.941503
H165_2 H 0.62522 0.228594 0.92062
H166_2 H 0.602059 0.240753 0.941627
H172_2 H 0.995834 0.467754 0.915262
H173_2 H 0.965702 0.443354 0.893484
H179_2 H 0.963902 0.525887 0.887583
H180_2 H 0.991721 0.547614 0.909839
H181_2 H 0.582617 0.0973169 0.931902
H182_2 H 0.612702 0.147378 0.915028
H183_2 H 0.647937 0.148728 0.935102
H196_2 H 0.902683 0.4853 0.931902
H197_2 H 0.852622 0.465325 0.915028
H198_2 H 0.851272 0.499208 0.935102
C138_4 C 0.6337(17) 0.9749(11) 0.0995(6)
C140_4 C 0.6525(16) 0.9551(11) 0.1144(6)
C142_4 C 0.7098(14) 0.9810(11) 0.1199(6)
C173_2 C 0.4541(19) 0.8538(24) 0.0140(4)
C175_2 C 0.4399(14) 0.8910(20) 0.0214(4)
C177_2 C 0.4783(16) 0.9483(23) 0.0161(3)
Zn9_3 Zn 0.9317 0.9656 0.1930
H112_4 H 0.618213 0.946077 0.0884202
H113_4 H 0.602917 0.981185 0.1048
H116_4 H 0.641014 0.915075 0.110635
H117_4 H 0.631523 0.95498 0.126719
H120_4 H 0.731805 0.973799 0.109352
H121_4 H 0.713667 0.965473 0.133038
H149_2 H 0.438563 0.887984 0.0364228
H150_2 H 0.401337 0.880658 0.0162288
H151_2 H 0.484841 0.855464 0.0227459
H152_2 H 0.419697 0.815096 0.0148971
H199_2 H 0.5182 0.959114 0.0196576
H200_2 H 0.468017 0.974737 0.0229905
C89_2 C 0.4185(6) 0.8272(8) 0.9067(3)
C91_2 C 0.4291(7) 0.8301(10) 0.9255(3)
C93_2 C 0.4593(8) 0.8784(11) 0.9339(3)
C95_2 C 0.4788(7) 0.9238(10) 0.9235(3)
C97_2 C 0.4682(8) 0.9209(11) 0.9047(3)
C99_2 C 0.4381(8) 0.8727(11) 0.8963(3)
C145_2 C 0.3855(8) 0.7757(10) 0.8963(4)
C147_2 C 0.4910(10) 0.9728(14) 0.8935(4)
C149_2 C 0.5455(11) 0.9997(19) 0.8953(6)
C151_2 C 0.4643(16) 0.9972(19) 0.9005(6)
C153_2 C 0.4779(16) 0.9627(23) 0.8747(4)
C155_2 C 0.4696(12) 0.8786(16) 0.9530(3)
C169_2 C 0.4743(17) 0.9086(21) 0.9843(3)
C171_2 C 0.4731(18) 0.8620(22) 0.9945(4)
C179_2 C 0.4710(12) 0.9490(16) 0.9935(3)
Cl5_2 Cl 0.4339(5) 0.9994(7) 0.95172(19)
Mn5_2 Mn 0.5119(4) 0.9936(6) 0.95796(17)
N9_2 N 0.4810(14) 0.9158(18) 0.9653(3)
O43_2 O 0.3905(10) 0.7796(14) 0.8775(3)
O45_2 O 0.5116(8) 0.9743(11) 0.9312(3)
H108_2 H 0.429801 0.870538 0.881613
H123_2 H 0.413697 0.794536 0.933685
H145_2 H 0.422525 0.972155 0.898282
H154_2 H 0.430923 0.94032 0.991517
H161_2 H 0.56084 0.975711 0.889976
H185_2 H 0.432042 0.886677 0.98265
H186_2 H 0.5126 0.868283 0.994619
H187_2 H 0.447649 0.826688 0.986809
H194_2 H 0.467864 0.843342 0.958304
H201_2 H 0.435572 0.941566 0.873245
H202_2 H 0.494197 0.999495 0.867237
H203_2 H 0.493692 0.939321 0.869167
C138_5 C 0.0251(11) 0.6589(20) 0.0995(6)
C140_5 C 0.0449(11) 0.6975(19) 0.1144(6)
C142_5 C 0.0190(11) 0.7289(18) 0.1199(6)
Zn9_4 Zn 0.0344 0.9662 0.1930
H112_5 H 0.0539227 0.672136 0.0884202
H113_5 H 0.0188152 0.621732 0.1048
H116_5 H 0.0849255 0.72594 0.110635
H117_5 H 0.0450199 0.676543 0.126719
H120_5 H 0.0262006 0.758006 0.109352
H121_5 H 0.0345271 0.748194 0.133038
C62_5 C 0.7333(9) 0.4925(16) 0.0718(2)
C64_5 C 0.7859(7) 0.5223(13) 0.0763(2)
C66_5 C 0.8043(9) 0.5695(14) 0.0855(2)
C68_5 C 0.7701(9) 0.5870(16) 0.0902(2)
C70_5 C 0.7175(7) 0.5573(13) 0.0857(3)
C72_5 C 0.6991(9) 0.5101(14) 0.0765(3)
C74_5 C 0.7146(10) 0.4408(18) 0.0618(3)
C76_5 C 0.9137(10) 0.8473(16) 0.1603(2)
C78_5 C 0.9393(9) 0.8233(14) 0.1525(3)
C80_5 C 0.9134(7) 0.7829(13) 0.1399(3)
C82_5 C 0.8621(8) 0.7666(14) 0.1351(2)
C84_5 C 0.8365(8) 0.7906(14) 0.1428(3)
C86_5 C 0.8624(7) 0.8311(13) 0.1554(3)
C88_5 C 0.6828(9) 0.5809(16) 0.0916(4)
C102_5 C 0.9438(11) 0.8925(19) 0.1744(3)
C116_5 C 0.6906(16) 0.5877(28) 0.1110(4)
C118_5 C 0.6307(14) 0.5490(23) 0.0859(6)
C120_5 C 0.7028(14) 0.6297(25) 0.0829(5)
C122_5 C 0.8586(11) 0.5980(18) 0.0897(3)
C124_5 C 0.7792(10) 0.7702(16) 0.1372(4)
C126_5 C 0.7590(12) 0.7977(22) 0.1468(6)
C128_5 C 0.7531(15) 0.7187(26) 0.1447(6)
C130_5 C 0.7688(17) 0.7651(29) 0.1184(4)
C132_5 C 0.9436(9) 0.7611(16) 0.1328(4)
C134_5 C 0.9366(10) 0.6542(16) 0.1065(5)
C136_5 C 0.9759(13) 0.6516(21) 0.0921(4)
C144_5 C 0.9535(9) 0.6862(14) 0.1218(4)
Cl4_5 Cl 0.8100(5) 0.6240(9) 0.14097(19)
Mn4_5 Mn 0.8525(4) 0.6751(7) 0.11440(17)
N6_5 N 0.8838(9) 0.6290(15) 0.1044(4)
N8_5 N 0.9247(8) 0.7118(14) 0.1266(4)
O24_5 O 0.7915(9) 0.6367(15) 0.0988(3)
O26_5 O 0.9920(11) 0.9069(19) 0.1808(3)
O30_5 O 0.9186(11) 0.9195(19) 0.1803(4)
O34_5 O 0.8354(8) 0.7271(14) 0.1215(3)
H59_5 H 0.979614 0.836104 0.156224
H72_5 H 0.812753 0.50859 0.0725744
H73_5 H 0.657935 0.48683 0.0729311
H81_5 H 0.614898 0.510504 0.0921104
H82_5 H 0.607662 0.566481 0.0901837
H83_5 H 0.629343 0.545241 0.0708973
H91_5 H 0.842488 0.850063 0.161386
H97_5 H 0.758611 0.72066 0.159567
H98_5 H 0.71163 0.699992 0.141539
H99_5 H 0.769242 0.696049 0.138618
H100_5 H 0.779488 0.73779 0.112496
H101_5 H 0.727398 0.750457 0.116133
H102_5 H 0.791455 0.802952 0.111721
H103_5 H 0.9343 0.621699 0.114332
H106_5 H 0.985359 0.681799 0.081762
H107_5 H 0.955764 0.613395 0.0854713
H125_5 H 0.701488 0.624492 0.0679586
H126_5 H 0.679427 0.647212 0.0867084
H127_5 H 0.743073 0.655085 0.087196
H128_5 H 0.985799 0.786658 0.132328
H129_5 H 0.782003 0.83904 0.143452
H130_5 H 0.718605 0.782941 0.142705
H131_5 H 0.760895 0.792252 0.161556
H139_5 H 0.731834 0.614 0.113822
H140_5 H 0.667775 0.604168 0.116489
H141_5 H 0.678262 0.550038 0.117441
H142_5 H 0.883842 0.59436 0.0795372
H195_5 H 0.949061 0.660931 0.133393
C62_6 C 0.5075(16) 0.2409(13) 0.0718(2)
C64_6 C 0.4777(13) 0.2637(11) 0.0763(2)
C66_6 C 0.4305(14) 0.2349(11) 0.0855(2)
C68_6 C 0.4130(16) 0.1832(13) 0.0902(2)
C70_6 C 0.4427(13) 0.1603(11) 0.0857(3)
C72_6 C 0.4899(14) 0.1891(11) 0.0765(3)
C74_6 C 0.5592(18) 0.2739(15) 0.0618(3)
C76_6 C 0.1527(16) 0.0665(13) 0.1603(2)
C78_6 C 0.1767(14) 0.1161(11) 0.1525(3)
C80_6 C 0.2171(13) 0.1306(11) 0.1399(3)
C82_6 C 0.2334(14) 0.0956(11) 0.1351(2)
C84_6 C 0.2094(14) 0.0460(11) 0.1428(3)
C86_6 C 0.1689(13) 0.0314(11) 0.1554(3)
C88_6 C 0.4191(16) 0.1020(13) 0.0916(4)
C102_6 C 0.1075(19) 0.0514(15) 0.1744(3)
C116_6 C 0.4123(28) 0.1030(23) 0.1110(4)
C118_6 C 0.4510(23) 0.0818(18) 0.0859(6)
C120_6 C 0.3703(25) 0.0732(21) 0.0829(5)
C122_6 C 0.4020(18) 0.2607(14) 0.0897(3)
C124_6 C 0.2298(16) 0.0091(13) 0.1372(4)
C128_6 C 0.2813(26) 0.0345(21) 0.1447(6)
C130_6 C 0.2349(29) 0.0038(23) 0.1184(4)
C132_6 C 0.2389(16) 0.1826(13) 0.1328(4)
C134_6 C 0.3458(16) 0.2825(13) 0.1065(5)
C136_6 C 0.3484(21) 0.3244(16) 0.0921(4)
C138_6 C 0.3411(20) 0.3663(17) 0.0995(6)
C140_6 C 0.3025(19) 0.3475(16) 0.1144(6)
C142_6 C 0.2711(18) 0.2902(14) 0.1199(6)
C144_6 C 0.3138(14) 0.2674(11) 0.1218(4)
Cl4_6 Cl 0.3760(9) 0.1861(7) 0.14097(19)
Mn4_6 Mn 0.3249(7) 0.1775(6) 0.11440(17)
N6_6 N 0.3710(15) 0.2549(12) 0.1044(4)
N8_6 N 0.2882(14) 0.2130(11) 0.1266(4)
O24_6 O 0.3633(15) 0.1549(12) 0.0988(3)
O26_6 O 0.0931(19) 0.0852(15) 0.1808(3)
O34_6 O 0.2729(14) 0.1084(12) 0.1215(3)
H59_6 H 0.163896 0.14351 0.156224
H72_6 H 0.49141 0.304163 0.0725744
H73_6 H 0.51317 0.171106 0.0729311
H81_6 H 0.489496 0.104394 0.0921104
H82_6 H 0.433519 0.041181 0.0901837
H83_6 H 0.454759 0.0841013 0.0708973
H97_6 H 0.27934 0.0379514 0.159567
H98_6 H 0.300008 0.011638 0.141539
H99_6 H 0.303951 0.0731934 0.138618
H100_6 H 0.26221 0.0416985 0.112496
H103_6 H 0.378301 0.312601 0.114332
H106_6 H 0.318201 0.303559 0.081762
H107_6 H 0.386605 0.342369 0.0854713
H112_6 H 0.327864 0.381787 0.0884202
H113_6 H 0.378268 0.397083 0.1048
H116_6 H 0.27406 0.358986 0.110635
H117_6 H 0.323457 0.368477 0.126719
H120_6 H 0.241994 0.268195 0.109352
H121_6 H 0.251806 0.286333 0.133038
H125_6 H 0.375508 0.0769959 0.0679586
H126_6 H 0.352788 0.0322149 0.0867084
H127_6 H 0.344915 0.0879874 0.087196
H128_6 H 0.213342 0.19914 0.132328
H139_6 H 0.386 0.117835 0.113822
H140_6 H 0.395832 0.0636071 0.116489
H141_6 H 0.449962 0.128224 0.117441
H142_6 H 0.40564 0.289481 0.0795372
H195_6 H 0.339069 0.28813 0.133393
C126_6 C 0.2023(22) 0.9614(19) 0.1468(6)
O30_6 O 0.0805(19) 0.9992(15) 0.1803(4)
H91_6 H 0.149937 0.992425 0.161386
H101_6 H 0.249543 0.97694 0.116133
H102_6 H 0.197048 0.988503 0.111721
H129_6 H 0.16096 0.942963 0.143452
H130_6 H 0.217059 0.935664 0.142705
H131_6 H 0.207748 0.968642 0.161556
O41_3 O 0.0212(9) 0.0632(13) 0.2387(4)
O54_3 O 0.0000 -0.0000 0.2032
O42_3 O 0.0419(9) 0.9788(9) 0.2387(4)
O54_4 O 0.0000 1.0000 0.2032
Zn3 Zn 0.0000 -0.0000 0.2284
Zn22_3 Zn 0.9999 -0.0000 0.2284
O54_5 O 1.0000 -0.0000 0.2032
C15_3 C 0.0754(6) 0.9149(6) 0.2401(3)
C16_3 C 0.0677(7) 0.9043(7) 0.2589(3)
C17_3 C 0.0858(7) 0.8741(8) 0.2673(3)
C18_3 C 0.1117(7) 0.8546(7) 0.2569(3)
C19_3 C 0.1194(7) 0.8652(8) 0.2381(3)
C20_3 C 0.1013(7) 0.8953(8) 0.2297(3)
C22_3 C 0.2559(6) 0.7358(5) 0.3248(3)
C23_3 C 0.2274(8) 0.7586(7) 0.3309(3)
C24_3 C 0.2039(8) 0.7756(7) 0.3182(3)
C25_3 C 0.2088(7) 0.7698(7) 0.2994(3)
C26_3 C 0.2373(8) 0.7470(7) 0.2933(3)
C27_3 C 0.2609(7) 0.7300(6) 0.3060(3)
C43_3 C 0.0569(6) 0.9479(8) 0.2297(4)
C44_3 C 0.1485(10) 0.8424(10) 0.2269(4)
C45_3 C 0.1209(15) 0.7879(11) 0.2287(6)
C46_3 C 0.1996(11) 0.8691(16) 0.2339(6)
C47_3 C 0.1515(17) 0.8555(16) 0.2081(4)
C48_3 C 0.0757(10) 0.8638(12) 0.2864(3)
C49_3 C 0.2819(8) 0.7170(6) 0.3393(4)
C50_3 C 0.2422(10) 0.7416(10) 0.2721(3)
C51_3 C 0.2666(17) 0.7119(16) 0.2688(6)
C52_3 C 0.2760(15) 0.7934(11) 0.2660(5)
C53_3 C 0.1957(12) 0.7237(16) 0.2631(5)
C54_3 C 0.1770(12) 0.7975(10) 0.3270(3)
C55_3 C 0.1010(12) 0.8591(17) 0.3177(3)
C56_3 C 0.0556(12) 0.8603(18) 0.3279(4)
C57_3 C 0.0664(15) 0.8793(19) 0.3474(4)
C58_3 C 0.1178(14) 0.8935(14) 0.3548(4)
C59_3 C 0.1367(16) 0.8551(16) 0.3495(3)
C60_3 C 0.1447(11) 0.8624(12) 0.3269(3)
Cl2_3 Cl 0.2322(5) 0.8995(5) 0.28506(19)
Mn2_3 Mn 0.1484(4) 0.8215(4) 0.29130(17)
N3_3 N 0.1015(11) 0.8524(14) 0.2987(3)
N4_3 N 0.1640(12) 0.8298(12) 0.3189(3)
O8_3 O 0.0558(10) 0.9429(10) 0.2109(3)
O9_3 O 0.1294(8) 0.8218(8) 0.2646(3)
O10_3 O 0.2721(10) 0.7199(10) 0.3576(3)
O11_3 O 0.3123(10) 0.6989(10) 0.3314(4)
O12_3 O 0.1855(8) 0.7844(8) 0.2858(3)
Zn3_2 Zn 0.0000 1.0000 0.2284
Zn4_6 Zn 0.3333 0.6667 0.3431
O13_6 O 0.3333 0.6667 0.3772
C89_3 C 0.0851(6) 0.1606(8) 0.2401(3)
C90_3 C 0.8394(8) 0.9246(6) 0.2401(3)
C91_3 C 0.0957(7) 0.1635(10) 0.2589(3)
C92_3 C 0.8365(10) 0.9323(7) 0.2589(3)
C93_3 C 0.1259(8) 0.2118(11) 0.2673(3)
C94_3 C 0.7882(11) 0.9142(7) 0.2673(3)
C95_3 C 0.1454(7) 0.2572(10) 0.2569(3)
C96_3 C 0.7428(10) 0.8883(7) 0.2569(3)
C97_3 C 0.1348(8) 0.2543(11) 0.2381(3)
C98_3 C 0.7457(11) 0.8806(7) 0.2381(3)
C99_3 C 0.1047(8) 0.2061(11) 0.2297(3)
C100_3 C 0.7939(11) 0.8987(7) 0.2297(3)
C103_3 C 0.2642(5) 0.5202(8) 0.3248(3)
C104_3 C 0.4798(8) 0.7441(6) 0.3248(3)
C105_3 C 0.2414(7) 0.4689(11) 0.3309(3)
C106_3 C 0.5311(11) 0.7726(8) 0.3309(3)
C107_3 C 0.2244(7) 0.4284(11) 0.3182(3)
C108_3 C 0.5716(11) 0.7961(8) 0.3182(3)
C109_3 C 0.2302(7) 0.4391(10) 0.2994(3)
C110_3 C 0.5609(10) 0.7912(7) 0.2994(3)
C111_3 C 0.2530(7) 0.4904(11) 0.2933(3)
C112_3 C 0.5096(11) 0.7627(8) 0.2933(3)
C113_3 C 0.2700(6) 0.5310(9) 0.3060(3)
C114_3 C 0.4690(9) 0.7391(7) 0.3060(3)
C145_3 C 0.0521(8) 0.1091(10) 0.2297(4)
C146_3 C 0.8909(10) 0.9431(6) 0.2297(4)
C147_3 C 0.1576(10) 0.3062(14) 0.2269(4)
C148_3 C 0.6938(14) 0.8515(10) 0.2269(4)
C149_3 C 0.2121(11) 0.3331(19) 0.2287(6)
C150_3 C 0.6669(19) 0.8791(15) 0.2287(6)
C151_3 C 0.1309(16) 0.3306(19) 0.2339(6)
C152_3 C 0.6694(19) 0.8004(11) 0.2339(6)
C153_3 C 0.1445(16) 0.2961(23) 0.2081(4)
C154_3 C 0.7039(23) 0.8485(17) 0.2081(4)
C155_3 C 0.1362(12) 0.2120(16) 0.2864(3)
C156_3 C 0.7880(16) 0.9243(10) 0.2864(3)
C157_3 C 0.2830(6) 0.5650(10) 0.3393(4)
C158_3 C 0.4350(10) 0.7181(8) 0.3393(4)
C159_3 C 0.2584(10) 0.5007(14) 0.2721(3)
C160_3 C 0.4993(14) 0.7578(10) 0.2721(3)
C161_3 C 0.2881(16) 0.5548(23) 0.2688(6)
C162_3 C 0.4452(23) 0.7334(17) 0.2688(6)
C163_3 C 0.2066(11) 0.4827(19) 0.2660(5)
C164_3 C 0.5173(19) 0.7240(15) 0.2660(5)
C165_3 C 0.2763(16) 0.4721(20) 0.2631(5)
C166_3 C 0.5279(20) 0.8043(12) 0.2631(5)
C167_3 C 0.2025(10) 0.3796(16) 0.3270(3)
C168_3 C 0.6204(16) 0.8230(12) 0.3270(3)
C169_3 C 0.1409(17) 0.2420(21) 0.3177(3)
C170_3 C 0.7580(21) 0.8990(12) 0.3177(3)
C171_3 C 0.1397(18) 0.1954(22) 0.3279(4)
C172_3 C 0.8046(22) 0.9444(12) 0.3279(4)
C173_3 C 0.1207(19) 0.1872(24) 0.3474(4)
C174_3 C 0.8128(24) 0.9336(15) 0.3474(4)
C175_3 C 0.1065(14) 0.2244(20) 0.3548(4)
C176_3 C 0.7756(20) 0.8822(14) 0.3548(4)
C177_3 C 0.1449(16) 0.2817(23) 0.3495(3)
C178_3 C 0.7183(23) 0.8633(16) 0.3495(3)
C179_3 C 0.1376(12) 0.2824(16) 0.3269(3)
C180_3 C 0.7176(16) 0.8553(11) 0.3269(3)
Cl5_3 Cl 0.1005(5) 0.3328(7) 0.28506(19)
Cl6_3 Cl 0.6672(7) 0.7678(5) 0.28506(19)
Mn5_3 Mn 0.1785(4) 0.3270(6) 0.29130(17)
Mn6_3 Mn 0.6730(6) 0.8516(4) 0.29130(17)
N9_3 N 0.1476(14) 0.2492(18) 0.2987(3)
N10_3 N 0.7508(18) 0.8985(11) 0.2987(3)
N11_3 N 0.1702(12) 0.3343(17) 0.3189(3)
N12_3 N 0.6657(17) 0.8360(12) 0.3189(3)
O36_3 O 0.9368(13) 0.9581(9) 0.2387(4)
O43_3 O 0.0571(10) 0.1130(14) 0.2109(3)
O44_3 O 0.8870(14) 0.9442(10) 0.2109(3)
O45_3 O 0.1782(8) 0.3077(11) 0.2646(3)
O46_3 O 0.6923(11) 0.8706(8) 0.2646(3)
O47_3 O 0.2801(10) 0.5523(14) 0.3576(3)
O48_3 O 0.4477(14) 0.7279(10) 0.3576(3)
O49_3 O 0.3011(10) 0.6135(14) 0.3314(4)
O50_3 O 0.3865(14) 0.6877(10) 0.3314(4)
O51_3 O 0.2156(8) 0.4012(11) 0.2858(3)
O52_3 O 0.5988(11) 0.8145(8) 0.2858(3)
Zn22_4 Zn 0.9999 1.0000 0.2284
O54_6 O 1.0000 1.0000 0.2032
H1_3 H 0.107403 0.903532 0.214946
H6_3 H 0.0475054 0.919636 0.267018
H17_3 H 0.223502 0.763122 0.345592
H18_3 H 0.2833 0.712134 0.301175
H37_3 H 0.198913 0.861413 0.248595
H38_3 H 0.223312 0.855681 0.226818
H39_3 H 0.216297 0.910809 0.231615
H42_3 H 0.181367 0.750717 0.265235
H43_3 H 0.201342 0.720631 0.248362
H44_3 H 0.167458 0.685397 0.268436
H45_3 H 0.0223495 0.820733 0.327953
H46_3 H 0.0457059 0.885684 0.320142
H47_3 H 0.0372896 0.848492 0.356079
H48_3 H 0.0620658 0.913636 0.34823
H49_3 H 0.116088 0.89477 0.369756
H50_3 H 0.145988 0.931996 0.349562
H52_3 H 0.0815373 0.772493 0.223309
H53_3 H 0.140779 0.771349 0.220916
H54_3 H 0.119052 0.77744 0.243172
H55_3 H 0.243361 0.673254 0.274836
H56_3 H 0.270041 0.708114 0.253953
H57_3 H 0.30536 0.731274 0.27496
H60_3 H 0.17266 0.897761 0.206578
H61_3 H 0.171965 0.839137 0.20057
H62_3 H 0.112296 0.839642 0.2025
H63_3 H 0.313515 0.80905 0.272943
H64_3 H 0.281755 0.793359 0.251121
H65_3 H 0.258783 0.817465 0.269152
H66_3 H 0.176064 0.902411 0.32485
H67_3 H 0.0421451 0.86547 0.291637
H68_3 H 0.166097 0.787348 0.341365
H69_3 H 0.10758 0.815133 0.352991
H70_3 H 0.173387 0.865316 0.356324
H71_3 H 0.121302 0.901291 0.315983
H75_3 H 0.236878 0.46038 0.345592
H80_3 H 0.872131 0.952495 0.267018
H90_3 H 0.287866 0.571167 0.301175
H95_3 H 0.796129 0.892597 0.214946
H96_3 H 0.428833 0.7167 0.301175
H108_3 H 0.0964679 0.203871 0.214946
H123_3 H 0.0803641 0.127869 0.267018
H137_3 H 0.53962 0.776498 0.345592
H143_3 H 0.138587 0.3375 0.248595
H144_3 H 0.144319 0.367631 0.226818
H145_3 H 0.0891914 0.305488 0.231615
H146_3 H 0.495536 0.686485 0.272943
H147_3 H 0.511603 0.718245 0.251121
H148_3 H 0.558682 0.741217 0.269152
H149_3 H 0.10523 0.221317 0.369756
H150_3 H 0.0680037 0.213991 0.349562
H151_3 H 0.151508 0.188797 0.356079
H152_3 H 0.0863639 0.14843 0.34823
H154_3 H 0.0975893 0.273653 0.32485
H155_3 H 0.19095 0.504464 0.272943
H156_3 H 0.206641 0.488397 0.251121
H157_3 H 0.182535 0.441318 0.269152
H158_3 H 0.429893 0.756639 0.274836
H159_3 H 0.438073 0.729959 0.253953
H160_3 H 0.425914 0.69464 0.27496
H161_3 H 0.227507 0.309044 0.223309
H162_3 H 0.228651 0.369431 0.220916
H163_3 H 0.22256 0.341612 0.243172
H164_3 H 0.326746 0.570107 0.274836
H165_3 H 0.291886 0.561927 0.253953
H166_3 H 0.268726 0.574086 0.27496
H167_3 H 0.212652 0.378749 0.341365
H168_3 H 0.77999 0.878698 0.315983
H169_3 H 0.811203 0.96271 0.356079
H170_3 H 0.85157 0.937934 0.34823
H171_3 H 0.726347 0.823936 0.32485
H172_3 H 0.6625 0.801087 0.248595
H173_3 H 0.632369 0.776688 0.226818
H174_3 H 0.694512 0.783703 0.231615
H175_3 H 0.725101 0.82734 0.206578
H176_3 H 0.667171 0.828035 0.20057
H177_3 H 0.727345 0.887704 0.2025
H178_3 H 0.690956 0.918463 0.223309
H179_3 H 0.630569 0.859221 0.220916
H180_3 H 0.658388 0.880948 0.243172
H181_3 H 0.249283 0.43065 0.265235
H182_3 H 0.279369 0.480711 0.248362
H183_3 H 0.314603 0.482062 0.268436
H184_3 H 0.823325 0.957855 0.291637
H185_3 H 0.0987085 0.22001 0.315983
H186_3 H 0.179267 0.201616 0.327953
H187_3 H 0.114316 0.160021 0.320142
H188_3 H 0.798384 0.97765 0.327953
H189_3 H 0.839979 0.954294 0.320142
H190_3 H 0.778683 0.883912 0.369756
H191_3 H 0.786009 0.854012 0.349562
H192_3 H 0.707553 0.89242 0.352991
H193_3 H 0.69193 0.826613 0.356324
H194_3 H 0.13453 0.176675 0.291637
H196_3 H 0.56935 0.818633 0.265235
H197_3 H 0.519289 0.798658 0.248362
H198_3 H 0.517938 0.832542 0.268436
H199_3 H 0.184867 0.292447 0.352991
H200_3 H 0.134684 0.30807 0.356324
H201_3 H 0.102239 0.274899 0.206578
H202_3 H 0.160863 0.332829 0.20057
H203_3 H 0.160358 0.272655 0.2025
H204_3 H 0.621251 0.833903 0.341365
loop_
_geom_bond_atom_site_label_1
_geom_bond_atom_site_label_2
_geom_bond_site_symmetry_1
_geom_bond_site_symmetry_2
O13 Zn4 1_555 1_555
C61 C63 1_555 1_555
C63 C65 1_555 1_555
C65 C67 1_555 1_555
C67 C69 1_555 1_555
C69 C71 1_555 1_555
C71 C61 1_555 1_555
C73 C61 1_555 1_555
C87 C69 1_555 1_555
C90 C92 1_555 1_555
C92 C94 1_555 1_555
C94 C96 1_555 1_555
C96 C98 1_555 1_555
C98 C100 1_555 1_555
C100 C90 1_555 1_555
C104 C106 1_555 1_555
C106 C108 1_555 1_555
C108 C110 1_555 1_555
C110 C112 1_555 1_555
C112 C114 1_555 1_555
C114 C104 1_555 1_555
C115 C87 1_555 1_555
C117 C87 1_555 1_555
C119 C87 1_555 1_555
C121 C65 1_555 1_555
C133 C135 1_555 1_555
C135 C137 1_555 1_555
C146 C90 1_555 1_555
C148 C98 1_555 1_555
C150 C148 1_555 1_555
C152 C148 1_555 1_555
C154 C148 1_555 1_555
C156 C94 1_555 1_555
C158 C104 1_555 1_555
C160 C112 1_555 1_555
C162 C160 1_555 1_555
C164 C160 1_555 1_555
C166 C160 1_555 1_555
C168 C108 1_555 1_555
C170 C172 1_555 1_555
C172 C174 1_555 1_555
C174 C176 1_555 1_555
C176 C178 1_555 1_555
C178 C180 1_555 1_555
C180 C170 1_555 1_555
Cl6 Mn6 1_555 1_555
Mn6 N10 1_555 1_555
N5 C121 1_555 1_555
N10 C156 1_555 1_555
N12 C168 1_555 1_555
O15 C73 1_555 1_555
O18 Zn16 1_555 1_555
O19 C73 1_555 1_555
O23 C67 1_555 1_555
O28 Zn6 1_555 1_555
O32 Zn6 1_555 1_555
O36 C146 1_555 1_555
O41 Zn22 1_555 1_555
O42 Zn22 1_555 1_555
O44 C146 1_555 1_555
O46 C96 1_555 1_555
O48 C158 1_555 1_555
O50 Zn4 1_555 1_555
O52 C110 1_555 1_555
Zn6 O44 1_555 1_555
Zn13 O54 1_555 1_555
Zn14 O54 1_555 1_555
Zn16 O13 1_555 1_555
Zn19 O15 1_555 1_555
Zn20 O19 1_555 1_555
Zn22 O36 1_555 1_555
O54 Zn6 1_555 1_555
C133 N5 1_555 1_555
C158 O50 1_555 1_555
C170 N10 1_555 1_555
C180 N12 1_555 1_555
Mn6 N12 1_555 1_555
Mn6 O46 1_555 1_555
Mn6 O52 1_555 1_555
O20 Zn16 1_555 1_555
O48 Zn16 1_555 1_555
Zn22 O54 1_555 1_555
C63 H36 1_555 1_555
C71 H51 1_555 1_555
C133 H76 1_555 1_555
C92 H80 1_555 1_555
C118 H81 1_555 1_555
C118 H82 1_555 1_555
C118 H83 1_555 1_555
C117 H84 1_555 1_555
C117 H85 1_555 1_555
C117 H86 1_555 1_555
C119 H87 1_555 1_555
C119 H88 1_555 1_555
C119 H89 1_555 1_555
C100 H95 1_555 1_555
C114 H96 1_555 1_555
C135 H105 1_555 1_555
C115 H109 1_555 1_555
C115 H110 1_555 1_555
C115 H111 1_555 1_555
C121 H124 1_555 1_555
C137 H133 1_555 1_555
C106 H137 1_555 1_555
C164 H146 1_555 1_555
C164 H147 1_555 1_555
C164 H148 1_555 1_555
C162 H158 1_555 1_555
C162 H159 1_555 1_555
C162 H160 1_555 1_555
C170 H168 1_555 1_555
C174 H169 1_555 1_555
C174 H170 1_555 1_555
C180 H171 1_555 1_555
C152 H172 1_555 1_555
C152 H173 1_555 1_555
C152 H174 1_555 1_555
C154 H175 1_555 1_555
C154 H176 1_555 1_555
C154 H177 1_555 1_555
C150 H178 1_555 1_555
C150 H179 1_555 1_555
C150 H180 1_555 1_555
C156 H184 1_555 1_555
C172 H188 1_555 1_555
C172 H189 1_555 1_555
C176 H190 1_555 1_555
C176 H191 1_555 1_555
C178 H192 1_555 1_555
C178 H193 1_555 1_555
C166 H196 1_555 1_555
C166 H197 1_555 1_555
C166 H198 1_555 1_555
C168 H204 1_555 1_555
O13_2 Zn4_2 1_555 1_555
C62 C64 1_555 1_555
C64 C66 1_555 1_555
C66 C68 1_555 1_555
C68 C70 1_555 1_555
C70 C72 1_555 1_555
C72 C62 1_555 1_555
C74 C62 1_555 1_555
C76 C78 1_555 1_555
C78 C80 1_555 1_555
C80 C82 1_555 1_555
C82 C84 1_555 1_555
C84 C86 1_555 1_555
C86 C76 1_555 1_555
C88 C70 1_555 1_555
C102 C76 1_555 1_555
C116 C88 1_555 1_555
C120 C88 1_555 1_555
C122 C66 1_555 1_555
C124 C84 1_555 1_555
C126 C124 1_555 1_555
C128 C124 1_555 1_555
C130 C124 1_555 1_555
C132 C80 1_555 1_555
C134 C136 1_555 1_555
C142 C144 1_555 1_555
C144 C134 1_555 1_555
Cl4 Mn4 1_555 1_555
Mn4 N6 1_555 1_555
N6 C122 1_555 1_555
N8 C132 1_555 1_555
O24 C68 1_555 1_555
O26 C102 1_555 1_555
O30 C102 1_555 1_555
O34 C82 1_555 1_555
Zn9 O26 1_555 1_555
Zn10 O30 1_555 1_555
C74 O16 1_555 1_555
C134 N6 1_555 1_555
C144 N8 1_555 1_555
Mn4 N8 1_555 1_555
Mn4 O24 1_555 1_555
Mn4 O34 1_555 1_555
C78 H59 1_555 1_555
C64 H72 1_555 1_555
C86 H91 1_555 1_555
C128 H97 1_555 1_555
C128 H98 1_555 1_555
C128 H99 1_555 1_555
C130 H100 1_555 1_555
C130 H101 1_555 1_555
C130 H102 1_555 1_555
C134 H103 1_555 1_555
C136 H106 1_555 1_555
C142 H120 1_555 1_555
C142 H121 1_555 1_555
C120 H125 1_555 1_555
C120 H126 1_555 1_555
C120 H127 1_555 1_555
C132 H128 1_555 1_555
C126 H129 1_555 1_555
C126 H130 1_555 1_555
C126 H131 1_555 1_555
C116 H139 1_555 1_555
C116 H140 1_555 1_555
C116 H141 1_555 1_555
C122 H142 1_555 1_555
C144 H195 1_555 1_555
C8 C9 1_555 1_555
C9 C10 1_555 1_555
C10 C11 1_555 1_555
C11 C12 1_555 1_555
C12 C13 1_555 1_555
C13 C8 1_555 1_555
C15 C16 1_555 1_555
C16 C17 1_555 1_555
C17 C18 1_555 1_555
C18 C19 1_555 1_555
C19 C20 1_555 1_555
C20 C15 1_555 1_555
C21 C8 1_555 1_555
C22 C23 1_555 1_555
C23 C24 1_555 1_555
C24 C25 1_555 1_555
C25 C26 1_555 1_555
C26 C27 1_555 1_555
C27 C22 1_555 1_555
C32 C12 1_555 1_555
C33 C32 1_555 1_555
C34 C32 1_555 1_555
C35 C32 1_555 1_555
C36 C10 1_555 1_555
C40 C41 1_555 1_555
C41 C42 1_555 1_555
C43 C15 1_555 1_555
C44 C19 1_555 1_555
C45 C44 1_555 1_555
C46 C44 1_555 1_555
C47 C44 1_555 1_555
C48 C17 1_555 1_555
C49 C22 1_555 1_555
C50 C26 1_555 1_555
C51 C50 1_555 1_555
C52 C50 1_555 1_555
C53 C50 1_555 1_555
C54 C24 1_555 1_555
C55 C56 1_555 1_555
C56 C57 1_555 1_555
C57 C58 1_555 1_555
C58 C59 1_555 1_555
C59 C60 1_555 1_555
C60 C55 1_555 1_555
Cl2 Mn2 1_555 1_555
Mn2 N3 1_555 1_555
N2 C36 1_555 1_555
N3 C48 1_555 1_555
N4 C54 1_555 1_555
O4 C21 1_555 1_555
O32 C21 1_555 1_555
O6 C11 1_555 1_555
O42 C43 1_555 1_555
O8 C43 1_555 1_555
O9 C18 1_555 1_555
O10 C49 1_555 1_555
O11 C49 1_555 1_555
O12 C25 1_555 1_555
Zn14 O4 1_555 1_555
Zn4_3 O11 1_555 1_555
O13_3 Zn4_3 1_555 1_555
C75 C77 1_555 1_555
C77 C79 1_555 1_555
C79 C81 1_555 1_555
C81 C83 1_555 1_555
C83 C85 1_555 1_555
C85 C75 1_555 1_555
C101 C75 1_555 1_555
C123 C83 1_555 1_555
C125 C123 1_555 1_555
C127 C123 1_555 1_555
C129 C123 1_555 1_555
C131 C79 1_555 1_555
C139 C141 1_555 1_555
C141 C143 1_555 1_555
N7 C131 1_555 1_555
O22 Zn15 1_555 1_555
O25 C101 1_555 1_555
O29 Zn14 1_555 1_555
O33 C81 1_555 1_555
Zn15 O10 1_555 1_555
C42 N2 1_555 1_555
C55 N3 1_555 1_555
C60 N4 1_555 1_555
Mn1 N2 1_555 1_555
Mn1 O6 1_555 1_555
Mn2 N4 1_555 1_555
Mn2 O9 1_555 1_555
Mn2 O12 1_555 1_555
O8 Zn14 1_555 1_555
O13_3 Zn15 1_555 1_555
C101 O29 1_555 1_555
C143 N7 1_555 1_555
Mn3 N7 1_555 1_555
Mn3 O33 1_555 1_555
O25 Zn13 1_555 1_555
C20 H1 1_555 1_555
C33 H2 1_555 1_555
C33 H3 1_555 1_555
C33 H4 1_555 1_555
C16 H6 1_555 1_555
C34 H14 1_555 1_555
C34 H15 1_555 1_555
C34 H16 1_555 1_555
C23 H17 1_555 1_555
C27 H18 1_555 1_555
C36 H22 1_555 1_555
C35 H26 1_555 1_555
C35 H27 1_555 1_555
C35 H28 1_555 1_555
C40 H31 1_555 1_555
C40 H32 1_555 1_555
C9 H33 1_555 1_555
C13 H34 1_555 1_555
C46 H37 1_555 1_555
C46 H38 1_555 1_555
C46 H39 1_555 1_555
C41 H40 1_555 1_555
C41 H41 1_555 1_555
C53 H42 1_555 1_555
C53 H43 1_555 1_555
C53 H44 1_555 1_555
C56 H45 1_555 1_555
C56 H46 1_555 1_555
C57 H47 1_555 1_555
C57 H48 1_555 1_555
C58 H49 1_555 1_555
C58 H50 1_555 1_555
C45 H52 1_555 1_555
C45 H53 1_555 1_555
C45 H54 1_555 1_555
C51 H55 1_555 1_555
C51 H56 1_555 1_555
C51 H57 1_555 1_555
C77 H58 1_555 1_555
C47 H60 1_555 1_555
C47 H61 1_555 1_555
C47 H62 1_555 1_555
C52 H63 1_555 1_555
C52 H64 1_555 1_555
C52 H65 1_555 1_555
C60 H66 1_555 1_555
C48 H67 1_555 1_555
C54 H68 1_555 1_555
C59 H69 1_555 1_555
C59 H70 1_555 1_555
C55 H71 1_555 1_555
C125 H77 1_555 1_555
C125 H78 1_555 1_555
C125 H79 1_555 1_555
C127 H92 1_555 1_555
C127 H93 1_555 1_555
C127 H94 1_555 1_555
C139 H114 1_555 1_555
C139 H115 1_555 1_555
C141 H118 1_555 1_555
C141 H119 1_555 1_555
C85 H122 1_555 1_555
C129 H134 1_555 1_555
C129 H135 1_555 1_555
C129 H136 1_555 1_555
C131 H138 1_555 1_555
C1 C2 1_555 1_555
C2 C3 1_555 1_555
C3 C4 1_555 1_555
C4 C5 1_555 1_555
C5 C6 1_555 1_555
C6 C1 1_555 1_555
C7 C1 1_555 1_555
C14 C5 1_555 1_555
C28 C14 1_555 1_555
C29 C14 1_555 1_555
C30 C14 1_555 1_555
C31 C3 1_555 1_555
C37 C38 1_555 1_555
C38 C39 1_555 1_555
N1 C31 1_555 1_555
O1 C7 1_555 1_555
O2 C7 1_555 1_555
O3 C4 1_555 1_555
Zn2 O13_4 1_555 1_555
O13_4 Zn4_4 1_555 1_555
C89 C91 1_555 1_555
C91 C93 1_555 1_555
C93 C95 1_555 1_555
C95 C97 1_555 1_555
C97 C99 1_555 1_555
C99 C89 1_555 1_555
C103 C105 1_555 1_555
C105 C107 1_555 1_555
C107 C109 1_555 1_555
C109 C111 1_555 1_555
C111 C113 1_555 1_555
C113 C103 1_555 1_555
C138 C140 1_555 1_555
C145 C89 1_555 1_555
C147 C97 1_555 1_555
C149 C147 1_555 1_555
C151 C147 1_555 1_555
C153 C147 1_555 1_555
C155 C93 1_555 1_555
C157 C103 1_555 1_555
C159 C111 1_555 1_555
C161 C159 1_555 1_555
C163 C159 1_555 1_555
C165 C159 1_555 1_555
C167 C107 1_555 1_555
C169 C171 1_555 1_555
C171 C173 1_555 1_555
C173 C175 1_555 1_555
C175 C177 1_555 1_555
C177 C179 1_555 1_555
C179 C169 1_555 1_555
Cl5 Mn5 1_555 1_555
Mn5 N9 1_555 1_555
N9 C155 1_555 1_555
N11 C167 1_555 1_555
O21 Zn2 1_555 1_555
O31 Zn13 1_555 1_555
O41 C145 1_555 1_555
O43 C145 1_555 1_555
O45 C95 1_555 1_555
O47 Zn2 1_555 1_555
O49 Zn4_4 1_555 1_555
O51 C109 1_555 1_555
Zn13 O43 1_555 1_555
Zn17 O1 1_555 1_555
Zn19 O2 1_555 1_555
C37 N1 1_555 1_555
C157 O47 1_555 1_555
C157 O49 1_555 1_555
C169 N9 1_555 1_555
C179 N11 1_555 1_555
Mn5 N11 1_555 1_555
Mn5 O45 1_555 1_555
Mn5 O51 1_555 1_555
C6 H5 1_555 1_555
C28 H7 1_555 1_555
C28 H8 1_555 1_555
C28 H9 1_555 1_555
C30 H10 1_555 1_555
C30 H11 1_555 1_555
C30 H12 1_555 1_555
C31 H13 1_555 1_555
C29 H19 1_555 1_555
C29 H20 1_555 1_555
C29 H21 1_555 1_555
C37 H23 1_555 1_555
C38 H25 1_555 1_555
C39 H30 1_555 1_555
C2 H35 1_555 1_555
C105 H75 1_555 1_555
C113 H90 1_555 1_555
C99 H108 1_555 1_555
C138 H112 1_555 1_555
C138 H113 1_555 1_555
C140 H116 1_555 1_555
C140 H117 1_555 1_555
C91 H123 1_555 1_555
C151 H143 1_555 1_555
C151 H144 1_555 1_555
C151 H145 1_555 1_555
C175 H149 1_555 1_555
C175 H150 1_555 1_555
C173 H151 1_555 1_555
C173 H152 1_555 1_555
C179 H154 1_555 1_555
C163 H155 1_555 1_555
C163 H156 1_555 1_555
C163 H157 1_555 1_555
C149 H161 1_555 1_555
C149 H162 1_555 1_555
C149 H163 1_555 1_555
C161 H164 1_555 1_555
C161 H165 1_555 1_555
C161 H166 1_555 1_555
C167 H167 1_555 1_555
C165 H181 1_555 1_555
C165 H182 1_555 1_555
C165 H183 1_555 1_555
C169 H185 1_555 1_555
C171 H186 1_555 1_555
C171 H187 1_555 1_555
C155 H194 1_555 1_555
C177 H199 1_555 1_555
C177 H200 1_555 1_555
C153 H201 1_555 1_555
C153 H202 1_555 1_555
C153 H203 1_555 1_555
C62_2 C64_2 1_555 1_555
C64_2 C66_2 1_555 1_555
C66_2 C68_2 1_555 1_555
C68_2 C70_2 1_555 1_555
C70_2 C72_2 1_555 1_555
C72_2 C62_2 1_555 1_555
C74_2 C62_2 1_555 1_555
C76_2 C78_2 1_555 1_555
C78_2 C80_2 1_555 1_555
C80_2 C82_2 1_555 1_555
C82_2 C84_2 1_555 1_555
C84_2 C86_2 1_555 1_555
C86_2 C76_2 1_555 1_555
C88_2 C70_2 1_555 1_555
C102_2 C76_2 1_555 1_555
C116_2 C88_2 1_555 1_555
C120_2 C88_2 1_555 1_555
C122_2 C66_2 1_555 1_555
C124_2 C84_2 1_555 1_555
C126_2 C124_2 1_555 1_555
C128_2 C124_2 1_555 1_555
C130_2 C124_2 1_555 1_555
C132_2 C80_2 1_555 1_555
C134_2 C136_2 1_555 1_555
C136_2 C138_2 1_555 1_555
C138_2 C140_2 1_555 1_555
C140_2 C142_2 1_555 1_555
C142_2 C144_2 1_555 1_555
C144_2 C134_2 1_555 1_555
Cl4_2 Mn4_2 1_555 1_555
Mn4_2 N6_2 1_555 1_555
N6_2 C122_2 1_555 1_555
N8_2 C132_2 1_555 1_555
O24_2 C68_2 1_555 1_555
O26_2 C102_2 1_555 1_555
O30_2 C102_2 1_555 1_555
O34_2 C82_2 1_555 1_555
Zn9_2 O26_2 1_555 1_555
Zn9 O30_2 1_555 1_555
C74_2 O18 1_555 1_555
C134_2 N6_2 1_555 1_555
C144_2 N8_2 1_555 1_555
Mn4_2 N8_2 1_555 1_555
Mn4_2 O24_2 1_555 1_555
Mn4_2 O34_2 1_555 1_555
C78_2 H59_2 1_555 1_555
C64_2 H72_2 1_555 1_555
C86_2 H91_2 1_555 1_555
C128_2 H97_2 1_555 1_555
C128_2 H98_2 1_555 1_555
C128_2 H99_2 1_555 1_555
C130_2 H100_2 1_555 1_555
C130_2 H101_2 1_555 1_555
C130_2 H102_2 1_555 1_555
C134_2 H103_2 1_555 1_555
C136_2 H106_2 1_555 1_555
C136_2 H107_2 1_555 1_555
C138_2 H112_2 1_555 1_555
C138_2 H113_2 1_555 1_555
C140_2 H116_2 1_555 1_555
C140_2 H117_2 1_555 1_555
C142_2 H120_2 1_555 1_555
C142_2 H121_2 1_555 1_555
C120_2 H125_2 1_555 1_555
C120_2 H126_2 1_555 1_555
C120_2 H127_2 1_555 1_555
C132_2 H128_2 1_555 1_555
C126_2 H129_2 1_555 1_555
C126_2 H130_2 1_555 1_555
C126_2 H131_2 1_555 1_555
C116_2 H139_2 1_555 1_555
C116_2 H140_2 1_555 1_555
C116_2 H141_2 1_555 1_555
C122_2 H142_2 1_555 1_555
C144_2 H195_2 1_555 1_555
C118_2 H81_2 1_555 1_555
C118_2 H82_2 1_555 1_555
C118_2 H83_2 1_555 1_555
C61_2 C63_2 1_555 1_555
C63_2 C65_2 1_555 1_555
C65_2 C67_2 1_555 1_555
C67_2 C69_2 1_555 1_555
C69_2 C71_2 1_555 1_555
C71_2 C61_2 1_555 1_555
C73_2 C61_2 1_555 1_555
C75_2 C77_2 1_555 1_555
C77_2 C79_2 1_555 1_555
C79_2 C81_2 1_555 1_555
C81_2 C83_2 1_555 1_555
C83_2 C85_2 1_555 1_555
C85_2 C75_2 1_555 1_555
C87_2 C69_2 1_555 1_555
C101_2 C75_2 1_555 1_555
C115_2 C87_2 1_555 1_555
C117_2 C87_2 1_555 1_555
C119_2 C87_2 1_555 1_555
C121_2 C65_2 1_555 1_555
C123_2 C83_2 1_555 1_555
C125_2 C123_2 1_555 1_555
C127_2 C123_2 1_555 1_555
C129_2 C123_2 1_555 1_555
C131_2 C79_2 1_555 1_555
C133_2 C135_2 1_555 1_555
C135_2 C137_2 1_555 1_555
C137_2 C139_2 1_555 1_555
C139_2 C141_2 1_555 1_555
C141_2 C143_2 1_555 1_555
C143_2 C133_2 1_555 1_555
Cl3_2 Mn3_2 1_555 1_555
Mn3_2 N5_2 1_555 1_555
N5_2 C121_2 1_555 1_555
N7_2 C131_2 1_555 1_555
O15_2 C73_2 1_555 1_555
O19_2 C73_2 1_555 1_555
O23_2 C67_2 1_555 1_555
O28 C101_2 1_555 1_555
O33_2 C81_2 1_555 1_555
Zn20 O15_2 1_555 1_555
Zn17 O19_2 1_555 1_555
C101_2 O31 1_555 1_555
C133_2 N5_2 1_555 1_555
C143_2 N7_2 1_555 1_555
Mn3_2 N7_2 1_555 1_555
Mn3_2 O23_2 1_555 1_555
Mn3_2 O33_2 1_555 1_555
C63_2 H36_2 1_555 1_555
C71_2 H51_2 1_555 1_555
C77_2 H58_2 1_555 1_555
C133_2 H76_2 1_555 1_555
C125_2 H77_2 1_555 1_555
C125_2 H78_2 1_555 1_555
C125_2 H79_2 1_555 1_555
C117_2 H84_2 1_555 1_555
C117_2 H85_2 1_555 1_555
C117_2 H86_2 1_555 1_555
C119_2 H87_2 1_555 1_555
C119_2 H88_2 1_555 1_555
C119_2 H89_2 1_555 1_555
C127_2 H92_2 1_555 1_555
C127_2 H93_2 1_555 1_555
C127_2 H94_2 1_555 1_555
C135_2 H104_2 1_555 1_555
C135_2 H105_2 1_555 1_555
C115_2 H109_2 1_555 1_555
C115_2 H110_2 1_555 1_555
C115_2 H111_2 1_555 1_555
C139_2 H114_2 1_555 1_555
C139_2 H115_2 1_555 1_555
C141_2 H118_2 1_555 1_555
C141_2 H119_2 1_555 1_555
C85_2 H122_2 1_555 1_555
C121_2 H124_2 1_555 1_555
C137_2 H132_2 1_555 1_555
C137_2 H133_2 1_555 1_555
C129_2 H134_2 1_555 1_555
C129_2 H135_2 1_555 1_555
C129_2 H136_2 1_555 1_555
C131_2 H138_2 1_555 1_555
C143_2 H153_2 1_555 1_555
C138_3 C140_3 1_555 1_555
C138_3 H112_3 1_555 1_555
C138_3 H113_3 1_555 1_555
C140_3 H116_3 1_555 1_555
C140_3 H117_3 1_555 1_555
C62_3 C64_3 1_555 1_555
C64_3 C66_3 1_555 1_555
C66_3 C68_3 1_555 1_555
C68_3 C70_3 1_555 1_555
C70_3 C72_3 1_555 1_555
C72_3 C62_3 1_555 1_555
C74_3 C62_3 1_555 1_555
C76_3 C78_3 1_555 1_555
C78_3 C80_3 1_555 1_555
C80_3 C82_3 1_555 1_555
C82_3 C84_3 1_555 1_555
C84_3 C86_3 1_555 1_555
C86_3 C76_3 1_555 1_555
C88_3 C70_3 1_555 1_555
C102_3 C76_3 1_555 1_555
C116_3 C88_3 1_555 1_555
C118_3 C88_3 1_555 1_555
C120_3 C88_3 1_555 1_555
C122_3 C66_3 1_555 1_555
C124_3 C84_3 1_555 1_555
C126_3 C124_3 1_555 1_555
C128_3 C124_3 1_555 1_555
C130_3 C124_3 1_555 1_555
C132_3 C80_3 1_555 1_555
C134_3 C136_3 1_555 1_555
C142_3 C144_3 1_555 1_555
C144_3 C134_3 1_555 1_555
Cl4_3 Mn4_3 1_555 1_555
Mn4_3 N6_3 1_555 1_555
N6_3 C122_3 1_555 1_555
N8_3 C132_3 1_555 1_555
O21 C74_3 1_555 1_555
O24_3 C68_3 1_555 1_555
O26_3 C102_3 1_555 1_555
O30_3 C102_3 1_555 1_555
O34_3 C82_3 1_555 1_555
Zn10 O26_3 1_555 1_555
Zn9_2 O30_3 1_555 1_555
C74_3 O17 1_555 1_555
C134_3 N6_3 1_555 1_555
C144_3 N8_3 1_555 1_555
Mn4_3 N8_3 1_555 1_555
Mn4_3 O24_3 1_555 1_555
Mn4_3 O34_3 1_555 1_555
C78_3 H59_3 1_555 1_555
C64_3 H72_3 1_555 1_555
C72_3 H73_3 1_555 1_555
C118_3 H81_3 1_555 1_555
C118_3 H82_3 1_555 1_555
C118_3 H83_3 1_555 1_555
C86_3 H91_3 1_555 1_555
C128_3 H97_3 1_555 1_555
C128_3 H98_3 1_555 1_555
C128_3 H99_3 1_555 1_555
C130_3 H100_3 1_555 1_555
C130_3 H101_3 1_555 1_555
C130_3 H102_3 1_555 1_555
C134_3 H103_3 1_555 1_555
C136_3 H106_3 1_555 1_555
C142_3 H120_3 1_555 1_555
C142_3 H121_3 1_555 1_555
C120_3 H125_3 1_555 1_555
C120_3 H126_3 1_555 1_555
C120_3 H127_3 1_555 1_555
C132_3 H128_3 1_555 1_555
C126_3 H129_3 1_555 1_555
C126_3 H130_3 1_555 1_555
C126_3 H131_3 1_555 1_555
C116_3 H139_3 1_555 1_555
C116_3 H140_3 1_555 1_555
C116_3 H141_3 1_555 1_555
C122_3 H142_3 1_555 1_555
C144_3 H195_3 1_555 1_555
C174_2 C176_2 1_555 1_555
C176_2 C178_2 1_555 1_555
Zn10_2 O30_4 1_555 1_555
C126_4 H129_4 1_555 1_555
C126_4 H130_4 1_555 1_555
C126_4 H131_4 1_555 1_555
C174_2 H169_2 1_555 1_555
C174_2 H170_2 1_555 1_555
C176_2 H190_2 1_555 1_555
C176_2 H191_2 1_555 1_555
C178_2 H192_2 1_555 1_555
C178_2 H193_2 1_555 1_555
C90_2 C92_2 1_555 1_555
C92_2 C94_2 1_555 1_555
C94_2 C96_2 1_555 1_555
C96_2 C98_2 1_555 1_555
C98_2 C100_2 1_555 1_555
C100_2 C90_2 1_555 1_555
C146_2 C90_2 1_555 1_555
C148_2 C98_2 1_555 1_555
C150_2 C148_2 1_555 1_555
C152_2 C148_2 1_555 1_555
C154_2 C148_2 1_555 1_555
C156_2 C94_2 1_555 1_555
C170_2 C172_2 1_555 1_555
C180_2 C170_2 1_555 1_555
Cl6_2 Mn6_2 1_555 1_555
Mn6_2 N10_2 1_555 1_555
N10_2 C156_2 1_555 1_555
O36_2 C146_2 1_555 1_555
O41_2 Zn22_2 1_555 1_555
O42_2 Zn22_2 1_555 1_555
O44_2 C146_2 1_555 1_555
O46_2 C96_2 1_555 1_555
Zn9 O44_2 1_555 1_555
Zn10 O54_2 1_555 1_555
Zn9_2 O54_2 1_555 1_555
Zn22_2 O36_2 1_555 1_555
O54_2 Zn9 1_555 1_555
C170_2 N10_2 1_555 1_555
Mn6_2 O46_2 1_555 1_555
Zn22_2 O54_2 1_555 1_555
C92_2 H80_2 1_555 1_555
C100_2 H95_2 1_555 1_555
C170_2 H168_2 1_555 1_555
C180_2 H171_2 1_555 1_555
C152_2 H174_2 1_555 1_555
C154_2 H175_2 1_555 1_555
C154_2 H176_2 1_555 1_555
C154_2 H177_2 1_555 1_555
C150_2 H178_2 1_555 1_555
C156_2 H184_2 1_555 1_555
C172_2 H188_2 1_555 1_555
C172_2 H189_2 1_555 1_555
C57_2 C58_2 1_555 1_555
C58_2 C59_2 1_555 1_555
O10_2 C49_2 1_555 1_555
Zn2_2 O13_5 1_555 1_555
O13_5 Zn4_5 1_555 1_555
C62_4 C64_4 1_555 1_555
C64_4 C66_4 1_555 1_555
C66_4 C68_4 1_555 1_555
C68_4 C70_4 1_555 1_555
C70_4 C72_4 1_555 1_555
C72_4 C62_4 1_555 1_555
C74_4 C62_4 1_555 1_555
C76_4 C78_4 1_555 1_555
C78_4 C80_4 1_555 1_555
C80_4 C82_4 1_555 1_555
C82_4 C84_4 1_555 1_555
C84_4 C86_4 1_555 1_555
C86_4 C76_4 1_555 1_555
C88_4 C70_4 1_555 1_555
C102_4 C76_4 1_555 1_555
C116_4 C88_4 1_555 1_555
C118_4 C88_4 1_555 1_555
C120_4 C88_4 1_555 1_555
C122_4 C66_4 1_555 1_555
C124_4 C84_4 1_555 1_555
C128_4 C124_4 1_555 1_555
C130_4 C124_4 1_555 1_555
C132_4 C80_4 1_555 1_555
C134_4 C136_4 1_555 1_555
C144_4 C134_4 1_555 1_555
Cl4_4 Mn4_4 1_555 1_555
Mn4_4 N6_4 1_555 1_555
N6_4 C122_4 1_555 1_555
N8_4 C132_4 1_555 1_555
O16_2 Zn2_2 1_555 1_555
O17_2 Zn15_2 1_555 1_555
O18_2 Zn16_2 1_555 1_555
O20_2 C74_4 1_555 1_555
O21_2 Zn2_2 1_555 1_555
O22_2 Zn15_2 1_555 1_555
O24_4 C68_4 1_555 1_555
O26_4 C102_4 1_555 1_555
O34_4 C82_4 1_555 1_555
O47_2 Zn2_2 1_555 1_555
O48_2 C158_2 1_555 1_555
Zn15_2 O10_2 1_555 1_555
Zn16_2 O13_5 1_555 1_555
O13_5 Zn15_2 1_555 1_555
C74_4 O16_2 1_555 1_555
C134_4 N6_4 1_555 1_555
C144_4 N8_4 1_555 1_555
C157_2 O47_2 1_555 1_555
Mn4_4 N8_4 1_555 1_555
Mn4_4 O24_4 1_555 1_555
Mn4_4 O34_4 1_555 1_555
O20_2 Zn16_2 1_555 1_555
O48_2 Zn16_2 1_555 1_555
C57_2 H47_2 1_555 1_555
C57_2 H48_2 1_555 1_555
C58_2 H49_2 1_555 1_555
C58_2 H50_2 1_555 1_555
C78_4 H59_4 1_555 1_555
C59_2 H69_2 1_555 1_555
C59_2 H70_2 1_555 1_555
C64_4 H72_4 1_555 1_555
C72_4 H73_4 1_555 1_555
C118_4 H81_4 1_555 1_555
C118_4 H82_4 1_555 1_555
C118_4 H83_4 1_555 1_555
C128_4 H97_4 1_555 1_555
C128_4 H98_4 1_555 1_555
C128_4 H99_4 1_555 1_555
C130_4 H100_4 1_555 1_555
C134_4 H103_4 1_555 1_555
C136_4 H106_4 1_555 1_555
C136_4 H107_4 1_555 1_555
C120_4 H125_4 1_555 1_555
C120_4 H126_4 1_555 1_555
C120_4 H127_4 1_555 1_555
C132_4 H128_4 1_555 1_555
C116_4 H139_4 1_555 1_555
C116_4 H140_4 1_555 1_555
C116_4 H141_4 1_555 1_555
C122_4 H142_4 1_555 1_555
C144_4 H195_4 1_555 1_555
C15_2 C16_2 1_555 1_555
C16_2 C17_2 1_555 1_555
C17_2 C18_2 1_555 1_555
C18_2 C19_2 1_555 1_555
C19_2 C20_2 1_555 1_555
C20_2 C15_2 1_555 1_555
C22_2 C23_2 1_555 1_555
C23_2 C24_2 1_555 1_555
C24_2 C25_2 1_555 1_555
C25_2 C26_2 1_555 1_555
C26_2 C27_2 1_555 1_555
C27_2 C22_2 1_555 1_555
C43_2 C15_2 1_555 1_555
C44_2 C19_2 1_555 1_555
C45_2 C44_2 1_555 1_555
C46_2 C44_2 1_555 1_555
C47_2 C44_2 1_555 1_555
C48_2 C17_2 1_555 1_555
C50_2 C26_2 1_555 1_555
C51_2 C50_2 1_555 1_555
C52_2 C50_2 1_555 1_555
C53_2 C50_2 1_555 1_555
C54_2 C24_2 1_555 1_555
C55_2 C56_2 1_555 1_555
C60_2 C55_2 1_555 1_555
Cl2_2 Mn2_2 1_555 1_555
Mn2_2 N3_2 1_555 1_555
N3_2 C48_2 1_555 1_555
N4_2 C54_2 1_555 1_555
O42_2 C43_2 1_555 1_555
O8_2 C43_2 1_555 1_555
O9_2 C18_2 1_555 1_555
O12_2 C25_2 1_555 1_555
C103_2 C105_2 1_555 1_555
C104_2 C106_2 1_555 1_555
C105_2 C107_2 1_555 1_555
C106_2 C108_2 1_555 1_555
C107_2 C109_2 1_555 1_555
C108_2 C110_2 1_555 1_555
C109_2 C111_2 1_555 1_555
C110_2 C112_2 1_555 1_555
C111_2 C113_2 1_555 1_555
C112_2 C114_2 1_555 1_555
C113_2 C103_2 1_555 1_555
C114_2 C104_2 1_555 1_555
C159_2 C111_2 1_555 1_555
C160_2 C112_2 1_555 1_555
C161_2 C159_2 1_555 1_555
C162_2 C160_2 1_555 1_555
C163_2 C159_2 1_555 1_555
C164_2 C160_2 1_555 1_555
C165_2 C159_2 1_555 1_555
C166_2 C160_2 1_555 1_555
C167_2 C107_2 1_555 1_555
C168_2 C108_2 1_555 1_555
N11_2 C167_2 1_555 1_555
N12_2 C168_2 1_555 1_555
O51_2 C109_2 1_555 1_555
O52_2 C110_2 1_555 1_555
C55_2 N3_2 1_555 1_555
C60_2 N4_2 1_555 1_555
Mn2_2 N4_2 1_555 1_555
Mn2_2 O9_2 1_555 1_555
Mn2_2 O12_2 1_555 1_555
O8_2 Zn9_2 1_555 1_555
C20_2 H1_2 1_555 1_555
C16_2 H6_2 1_555 1_555
C27_2 H18_2 1_555 1_555
C46_2 H37_2 1_555 1_555
C46_2 H38_2 1_555 1_555
C46_2 H39_2 1_555 1_555
C53_2 H42_2 1_555 1_555
C53_2 H43_2 1_555 1_555
C53_2 H44_2 1_555 1_555
C56_2 H45_2 1_555 1_555
C56_2 H46_2 1_555 1_555
C45_2 H52_2 1_555 1_555
C45_2 H53_2 1_555 1_555
C45_2 H54_2 1_555 1_555
C51_2 H55_2 1_555 1_555
C51_2 H56_2 1_555 1_555
C51_2 H57_2 1_555 1_555
C47_2 H60_2 1_555 1_555
C47_2 H61_2 1_555 1_555
C47_2 H62_2 1_555 1_555
C52_2 H63_2 1_555 1_555
C52_2 H64_2 1_555 1_555
C52_2 H65_2 1_555 1_555
C60_2 H66_2 1_555 1_555
C48_2 H67_2 1_555 1_555
C55_2 H71_2 1_555 1_555
C113_2 H90_2 1_555 1_555
C114_2 H96_2 1_555 1_555
C164_2 H146_2 1_555 1_555
C164_2 H147_2 1_555 1_555
C164_2 H148_2 1_555 1_555
C163_2 H155_2 1_555 1_555
C163_2 H156_2 1_555 1_555
C163_2 H157_2 1_555 1_555
C162_2 H158_2 1_555 1_555
C162_2 H159_2 1_555 1_555
C162_2 H160_2 1_555 1_555
C161_2 H164_2 1_555 1_555
C161_2 H165_2 1_555 1_555
C161_2 H166_2 1_555 1_555
C165_2 H181_2 1_555 1_555
C165_2 H182_2 1_555 1_555
C165_2 H183_2 1_555 1_555
C166_2 H196_2 1_555 1_555
C166_2 H197_2 1_555 1_555
C166_2 H198_2 1_555 1_555
C138_4 C140_4 1_555 1_555
C140_4 C142_4 1_555 1_555
C173_2 C175_2 1_555 1_555
C175_2 C177_2 1_555 1_555
C138_4 H112_4 1_555 1_555
C138_4 H113_4 1_555 1_555
C140_4 H116_4 1_555 1_555
C140_4 H117_4 1_555 1_555
C142_4 H120_4 1_555 1_555
C142_4 H121_4 1_555 1_555
C175_2 H149_2 1_555 1_555
C175_2 H150_2 1_555 1_555
C173_2 H151_2 1_555 1_555
C173_2 H152_2 1_555 1_555
C177_2 H199_2 1_555 1_555
C177_2 H200_2 1_555 1_555
C89_2 C91_2 1_555 1_555
C91_2 C93_2 1_555 1_555
C93_2 C95_2 1_555 1_555
C95_2 C97_2 1_555 1_555
C97_2 C99_2 1_555 1_555
C99_2 C89_2 1_555 1_555
C145_2 C89_2 1_555 1_555
C147_2 C97_2 1_555 1_555
C149_2 C147_2 1_555 1_555
C151_2 C147_2 1_555 1_555
C153_2 C147_2 1_555 1_555
C155_2 C93_2 1_555 1_555
C169_2 C171_2 1_555 1_555
C179_2 C169_2 1_555 1_555
Cl5_2 Mn5_2 1_555 1_555
Mn5_2 N9_2 1_555 1_555
N9_2 C155_2 1_555 1_555
O41_2 C145_2 1_555 1_555
O43_2 C145_2 1_555 1_555
O45_2 C95_2 1_555 1_555
Zn10 O43_2 1_555 1_555
C169_2 N9_2 1_555 1_555
Mn5_2 O45_2 1_555 1_555
C99_2 H108_2 1_555 1_555
C91_2 H123_2 1_555 1_555
C151_2 H145_2 1_555 1_555
C179_2 H154_2 1_555 1_555
C149_2 H161_2 1_555 1_555
C169_2 H185_2 1_555 1_555
C171_2 H186_2 1_555 1_555
C171_2 H187_2 1_555 1_555
C155_2 H194_2 1_555 1_555
C153_2 H201_2 1_555 1_555
C153_2 H202_2 1_555 1_555
C153_2 H203_2 1_555 1_555
C138_5 C140_5 1_555 1_555
C140_5 C142_5 1_555 1_555
C138_5 H112_5 1_555 1_555
C138_5 H113_5 1_555 1_555
C140_5 H116_5 1_555 1_555
C140_5 H117_5 1_555 1_555
C142_5 H120_5 1_555 1_555
C142_5 H121_5 1_555 1_555
C62_5 C64_5 1_555 1_555
C64_5 C66_5 1_555 1_555
C66_5 C68_5 1_555 1_555
C68_5 C70_5 1_555 1_555
C70_5 C72_5 1_555 1_555
C72_5 C62_5 1_555 1_555
C74_5 C62_5 1_555 1_555
C76_5 C78_5 1_555 1_555
C78_5 C80_5 1_555 1_555
C80_5 C82_5 1_555 1_555
C82_5 C84_5 1_555 1_555
C84_5 C86_5 1_555 1_555
C86_5 C76_5 1_555 1_555
C88_5 C70_5 1_555 1_555
C102_5 C76_5 1_555 1_555
C116_5 C88_5 1_555 1_555
C118_5 C88_5 1_555 1_555
C120_5 C88_5 1_555 1_555
C122_5 C66_5 1_555 1_555
C124_5 C84_5 1_555 1_555
C126_5 C124_5 1_555 1_555
C128_5 C124_5 1_555 1_555
C130_5 C124_5 1_555 1_555
C132_5 C80_5 1_555 1_555
C134_5 C136_5 1_555 1_555
C144_5 C134_5 1_555 1_555
Cl4_5 Mn4_5 1_555 1_555
Mn4_5 N6_5 1_555 1_555
N6_5 C122_5 1_555 1_555
N8_5 C132_5 1_555 1_555
O22_2 C74_5 1_555 1_555
O24_5 C68_5 1_555 1_555
O26_5 C102_5 1_555 1_555
O30_5 C102_5 1_555 1_555
O34_5 C82_5 1_555 1_555
Zn9_3 O30_5 1_555 1_555
C74_5 O18_2 1_555 1_555
C134_5 N6_5 1_555 1_555
C144_5 N8_5 1_555 1_555
Mn4_5 N8_5 1_555 1_555
Mn4_5 O24_5 1_555 1_555
Mn4_5 O34_5 1_555 1_555
C78_5 H59_5 1_555 1_555
C64_5 H72_5 1_555 1_555
C72_5 H73_5 1_555 1_555
C118_5 H81_5 1_555 1_555
C118_5 H82_5 1_555 1_555
C118_5 H83_5 1_555 1_555
C86_5 H91_5 1_555 1_555
C128_5 H97_5 1_555 1_555
C128_5 H98_5 1_555 1_555
C128_5 H99_5 1_555 1_555
C130_5 H100_5 1_555 1_555
C130_5 H101_5 1_555 1_555
C130_5 H102_5 1_555 1_555
C134_5 H103_5 1_555 1_555
C136_5 H106_5 1_555 1_555
C136_5 H107_5 1_555 1_555
C120_5 H125_5 1_555 1_555
C120_5 H126_5 1_555 1_555
C120_5 H127_5 1_555 1_555
C132_5 H128_5 1_555 1_555
C126_5 H129_5 1_555 1_555
C126_5 H130_5 1_555 1_555
C126_5 H131_5 1_555 1_555
C116_5 H139_5 1_555 1_555
C116_5 H140_5 1_555 1_555
C116_5 H141_5 1_555 1_555
C122_5 H142_5 1_555 1_555
C144_5 H195_5 1_555 1_555
C62_6 C64_6 1_555 1_555
C64_6 C66_6 1_555 1_555
C66_6 C68_6 1_555 1_555
C68_6 C70_6 1_555 1_555
C70_6 C72_6 1_555 1_555
C72_6 C62_6 1_555 1_555
C74_6 C62_6 1_555 1_555
C76_6 C78_6 1_555 1_555
C78_6 C80_6 1_555 1_555
C80_6 C82_6 1_555 1_555
C82_6 C84_6 1_555 1_555
C84_6 C86_6 1_555 1_555
C86_6 C76_6 1_555 1_555
C88_6 C70_6 1_555 1_555
C102_6 C76_6 1_555 1_555
C116_6 C88_6 1_555 1_555
C118_6 C88_6 1_555 1_555
C120_6 C88_6 1_555 1_555
C122_6 C66_6 1_555 1_555
C124_6 C84_6 1_555 1_555
C128_6 C124_6 1_555 1_555
C130_6 C124_6 1_555 1_555
C132_6 C80_6 1_555 1_555
C134_6 C136_6 1_555 1_555
C136_6 C138_6 1_555 1_555
C138_6 C140_6 1_555 1_555
C140_6 C142_6 1_555 1_555
C142_6 C144_6 1_555 1_555
C144_6 C134_6 1_555 1_555
Cl4_6 Mn4_6 1_555 1_555
Mn4_6 N6_6 1_555 1_555
N6_6 C122_6 1_555 1_555
N8_6 C132_6 1_555 1_555
O21_2 C74_6 1_555 1_555
O24_6 C68_6 1_555 1_555
O26_6 C102_6 1_555 1_555
O34_6 C82_6 1_555 1_555
Zn10_2 O26_6 1_555 1_555
C74_6 O17_2 1_555 1_555
C134_6 N6_6 1_555 1_555
C144_6 N8_6 1_555 1_555
Mn4_6 N8_6 1_555 1_555
Mn4_6 O24_6 1_555 1_555
Mn4_6 O34_6 1_555 1_555
C78_6 H59_6 1_555 1_555
C64_6 H72_6 1_555 1_555
C72_6 H73_6 1_555 1_555
C118_6 H81_6 1_555 1_555
C118_6 H82_6 1_555 1_555
C118_6 H83_6 1_555 1_555
C128_6 H97_6 1_555 1_555
C128_6 H98_6 1_555 1_555
C128_6 H99_6 1_555 1_555
C130_6 H100_6 1_555 1_555
C134_6 H103_6 1_555 1_555
C136_6 H106_6 1_555 1_555
C136_6 H107_6 1_555 1_555
C138_6 H112_6 1_555 1_555
C138_6 H113_6 1_555 1_555
C140_6 H116_6 1_555 1_555
C140_6 H117_6 1_555 1_555
C142_6 H120_6 1_555 1_555
C142_6 H121_6 1_555 1_555
C120_6 H125_6 1_555 1_555
C120_6 H126_6 1_555 1_555
C120_6 H127_6 1_555 1_555
C132_6 H128_6 1_555 1_555
C116_6 H139_6 1_555 1_555
C116_6 H140_6 1_555 1_555
C116_6 H141_6 1_555 1_555
C122_6 H142_6 1_555 1_555
C144_6 H195_6 1_555 1_555
Zn9_4 O30_6 1_555 1_555
C126_6 H129_6 1_555 1_555
C126_6 H130_6 1_555 1_555
C126_6 H131_6 1_555 1_555
Zn10_2 O54_3 1_555 1_555
Zn9_4 O54_4 1_555 1_555
O41_3 Zn3 1_555 1_555
Zn3 O54_3 1_555 1_555
Zn22_3 O54_5 1_555 1_555
C15_3 C16_3 1_555 1_555
C16_3 C17_3 1_555 1_555
C17_3 C18_3 1_555 1_555
C18_3 C19_3 1_555 1_555
C19_3 C20_3 1_555 1_555
C20_3 C15_3 1_555 1_555
C22_3 C23_3 1_555 1_555
C23_3 C24_3 1_555 1_555
C24_3 C25_3 1_555 1_555
C25_3 C26_3 1_555 1_555
C26_3 C27_3 1_555 1_555
C27_3 C22_3 1_555 1_555
C43_3 C15_3 1_555 1_555
C44_3 C19_3 1_555 1_555
C45_3 C44_3 1_555 1_555
C46_3 C44_3 1_555 1_555
C47_3 C44_3 1_555 1_555
C48_3 C17_3 1_555 1_555
C49_3 C22_3 1_555 1_555
C50_3 C26_3 1_555 1_555
C51_3 C50_3 1_555 1_555
C52_3 C50_3 1_555 1_555
C53_3 C50_3 1_555 1_555
C54_3 C24_3 1_555 1_555
C55_3 C56_3 1_555 1_555
C56_3 C57_3 1_555 1_555
C57_3 C58_3 1_555 1_555
C58_3 C59_3 1_555 1_555
C59_3 C60_3 1_555 1_555
C60_3 C55_3 1_555 1_555
Cl2_3 Mn2_3 1_555 1_555
Mn2_3 N3_3 1_555 1_555
N3_3 C48_3 1_555 1_555
N4_3 C54_3 1_555 1_555
O42_3 C43_3 1_555 1_555
O8_3 C43_3 1_555 1_555
O9_3 C18_3 1_555 1_555
O10_3 C49_3 1_555 1_555
O11_3 C49_3 1_555 1_555
O12_3 C25_3 1_555 1_555
Zn20 O13_6 1_555 1_555
Zn3_2 O42_3 1_555 1_555
Zn4_6 O11_3 1_555 1_555
O13_6 Zn4_6 1_555 1_555
C89_3 C91_3 1_555 1_555
C90_3 C92_3 1_555 1_555
C91_3 C93_3 1_555 1_555
C92_3 C94_3 1_555 1_555
C93_3 C95_3 1_555 1_555
C94_3 C96_3 1_555 1_555
C95_3 C97_3 1_555 1_555
C96_3 C98_3 1_555 1_555
C97_3 C99_3 1_555 1_555
C98_3 C100_3 1_555 1_555
C99_3 C89_3 1_555 1_555
C100_3 C90_3 1_555 1_555
C103_3 C105_3 1_555 1_555
C104_3 C106_3 1_555 1_555
C105_3 C107_3 1_555 1_555
C106_3 C108_3 1_555 1_555
C107_3 C109_3 1_555 1_555
C108_3 C110_3 1_555 1_555
C109_3 C111_3 1_555 1_555
C110_3 C112_3 1_555 1_555
C111_3 C113_3 1_555 1_555
C112_3 C114_3 1_555 1_555
C113_3 C103_3 1_555 1_555
C114_3 C104_3 1_555 1_555
C145_3 C89_3 1_555 1_555
C146_3 C90_3 1_555 1_555
C147_3 C97_3 1_555 1_555
C148_3 C98_3 1_555 1_555
C149_3 C147_3 1_555 1_555
C150_3 C148_3 1_555 1_555
C151_3 C147_3 1_555 1_555
C152_3 C148_3 1_555 1_555
C153_3 C147_3 1_555 1_555
C154_3 C148_3 1_555 1_555
C155_3 C93_3 1_555 1_555
C156_3 C94_3 1_555 1_555
C157_3 C103_3 1_555 1_555
C158_3 C104_3 1_555 1_555
C159_3 C111_3 1_555 1_555
C160_3 C112_3 1_555 1_555
C161_3 C159_3 1_555 1_555
C162_3 C160_3 1_555 1_555
C163_3 C159_3 1_555 1_555
C164_3 C160_3 1_555 1_555
C165_3 C159_3 1_555 1_555
C166_3 C160_3 1_555 1_555
C167_3 C107_3 1_555 1_555
C168_3 C108_3 1_555 1_555
C169_3 C171_3 1_555 1_555
C170_3 C172_3 1_555 1_555
C171_3 C173_3 1_555 1_555
C172_3 C174_3 1_555 1_555
C173_3 C175_3 1_555 1_555
C174_3 C176_3 1_555 1_555
C175_3 C177_3 1_555 1_555
C176_3 C178_3 1_555 1_555
C177_3 C179_3 1_555 1_555
C178_3 C180_3 1_555 1_555
C179_3 C169_3 1_555 1_555
C180_3 C170_3 1_555 1_555
Cl5_3 Mn5_3 1_555 1_555
Cl6_3 Mn6_3 1_555 1_555
Mn5_3 N9_3 1_555 1_555
Mn6_3 N10_3 1_555 1_555
N9_3 C155_3 1_555 1_555
N10_3 C156_3 1_555 1_555
N11_3 C167_3 1_555 1_555
N12_3 C168_3 1_555 1_555
O41_3 C145_3 1_555 1_555
O36_3 C146_3 1_555 1_555
O43_3 C145_3 1_555 1_555
O44_3 C146_3 1_555 1_555
O45_3 C95_3 1_555 1_555
O46_3 C96_3 1_555 1_555
O47_3 Zn20 1_555 1_555
O48_3 C158_3 1_555 1_555
O49_3 Zn4_6 1_555 1_555
O50_3 Zn4_6 1_555 1_555
O51_3 C109_3 1_555 1_555
O52_3 C110_3 1_555 1_555
Zn10_2 O43_3 1_555 1_555
Zn9_3 O44_3 1_555 1_555
Zn19 O10_3 1_555 1_555
Zn17 O13_6 1_555 1_555
Zn22_4 O36_3 1_555 1_555
O54_6 Zn9_3 1_555 1_555
C55_3 N3_3 1_555 1_555
C60_3 N4_3 1_555 1_555
Mn2_3 N4_3 1_555 1_555
Mn2_3 O9_3 1_555 1_555
Mn2_3 O12_3 1_555 1_555
O8_3 Zn9_4 1_555 1_555
O13_6 Zn19 1_555 1_555
C157_3 O47_3 1_555 1_555
C157_3 O49_3 1_555 1_555
C158_3 O50_3 1_555 1_555
C169_3 N9_3 1_555 1_555
C170_3 N10_3 1_555 1_555
C179_3 N11_3 1_555 1_555
C180_3 N12_3 1_555 1_555
Mn5_3 N11_3 1_555 1_555
Mn5_3 O45_3 1_555 1_555
Mn5_3 O51_3 1_555 1_555
Mn6_3 N12_3 1_555 1_555
Mn6_3 O46_3 1_555 1_555
Mn6_3 O52_3 1_555 1_555
O48_3 Zn17 1_555 1_555
Zn22_4 O54_6 1_555 1_555
C20_3 H1_3 1_555 1_555
C16_3 H6_3 1_555 1_555
C23_3 H17_3 1_555 1_555
C27_3 H18_3 1_555 1_555
C46_3 H37_3 1_555 1_555
C46_3 H38_3 1_555 1_555
C46_3 H39_3 1_555 1_555
C53_3 H42_3 1_555 1_555
C53_3 H43_3 1_555 1_555
C53_3 H44_3 1_555 1_555
C56_3 H45_3 1_555 1_555
C56_3 H46_3 1_555 1_555
C57_3 H47_3 1_555 1_555
C57_3 H48_3 1_555 1_555
C58_3 H49_3 1_555 1_555
C58_3 H50_3 1_555 1_555
C45_3 H52_3 1_555 1_555
C45_3 H53_3 1_555 1_555
C45_3 H54_3 1_555 1_555
C51_3 H55_3 1_555 1_555
C51_3 H56_3 1_555 1_555
C51_3 H57_3 1_555 1_555
C47_3 H60_3 1_555 1_555
C47_3 H61_3 1_555 1_555
C47_3 H62_3 1_555 1_555
C52_3 H63_3 1_555 1_555
C52_3 H64_3 1_555 1_555
C52_3 H65_3 1_555 1_555
C60_3 H66_3 1_555 1_555
C48_3 H67_3 1_555 1_555
C54_3 H68_3 1_555 1_555
C59_3 H69_3 1_555 1_555
C59_3 H70_3 1_555 1_555
C55_3 H71_3 1_555 1_555
C105_3 H75_3 1_555 1_555
C92_3 H80_3 1_555 1_555
C113_3 H90_3 1_555 1_555
C100_3 H95_3 1_555 1_555
C114_3 H96_3 1_555 1_555
C99_3 H108_3 1_555 1_555
C91_3 H123_3 1_555 1_555
C106_3 H137_3 1_555 1_555
C151_3 H143_3 1_555 1_555
C151_3 H144_3 1_555 1_555
C151_3 H145_3 1_555 1_555
C164_3 H146_3 1_555 1_555
C164_3 H147_3 1_555 1_555
C164_3 H148_3 1_555 1_555
C175_3 H149_3 1_555 1_555
C175_3 H150_3 1_555 1_555
C173_3 H151_3 1_555 1_555
C173_3 H152_3 1_555 1_555
C179_3 H154_3 1_555 1_555
C163_3 H155_3 1_555 1_555
C163_3 H156_3 1_555 1_555
C163_3 H157_3 1_555 1_555
C162_3 H158_3 1_555 1_555
C162_3 H159_3 1_555 1_555
C162_3 H160_3 1_555 1_555
C149_3 H161_3 1_555 1_555
C149_3 H162_3 1_555 1_555
C149_3 H163_3 1_555 1_555
C161_3 H164_3 1_555 1_555
C161_3 H165_3 1_555 1_555
C161_3 H166_3 1_555 1_555
C167_3 H167_3 1_555 1_555
C170_3 H168_3 1_555 1_555
C174_3 H169_3 1_555 1_555
C174_3 H170_3 1_555 1_555
C180_3 H171_3 1_555 1_555
C152_3 H172_3 1_555 1_555
C152_3 H173_3 1_555 1_555
C152_3 H174_3 1_555 1_555
C154_3 H175_3 1_555 1_555
C154_3 H176_3 1_555 1_555
C154_3 H177_3 1_555 1_555
C150_3 H178_3 1_555 1_555
C150_3 H179_3 1_555 1_555
C150_3 H180_3 1_555 1_555
C165_3 H181_3 1_555 1_555
C165_3 H182_3 1_555 1_555
C165_3 H183_3 1_555 1_555
C156_3 H184_3 1_555 1_555
C169_3 H185_3 1_555 1_555
C171_3 H186_3 1_555 1_555
C171_3 H187_3 1_555 1_555
C172_3 H188_3 1_555 1_555
C172_3 H189_3 1_555 1_555
C176_3 H190_3 1_555 1_555
C176_3 H191_3 1_555 1_555
C178_3 H192_3 1_555 1_555
C178_3 H193_3 1_555 1_555
C155_3 H194_3 1_555 1_555
C166_3 H196_3 1_555 1_555
C166_3 H197_3 1_555 1_555
C166_3 H198_3 1_555 1_555
C177_3 H199_3 1_555 1_555
C177_3 H200_3 1_555 1_555
C153_3 H201_3 1_555 1_555
C153_3 H202_3 1_555 1_555
C153_3 H203_3 1_555 1_555
C168_3 H204_3 1_555 1_555

#END
