
###############################################################################
#
# This file contains modified crystal structure data generated from the
# MOF subset of the Cambridge Structural Database (CSD) v543 
# hosted by the Cambridge Crystallographic Data Centre (CCDC).
#
# This work is licensed under the Creative Commons
# Attribution-NonCommercial-ShareAlike 4.0 International License.
# To view a copy of this license, visit
# http://creativecommons.org/licenses/by-nc-sa/4.0/
# or send a letter to
# Creative Commons, PO Box 1866, Mountain View, CA 94042, USA.
#
# CIF created using the CSD Python API on 29 September 2022
# The structure has been converted into the P1 space group
# The structure has a 3D framework
# The original CSD entry XANNAB is in the orthorhombic crystal system
# The original CSD entry XANNAB is in a Sohncke space group
# The framework has been calculated to contain at least 10.0% void space
# The void calculation uses a probe of radius 1.32A, grid spacing 0.4
# The framework is charged, counterions have been retained in the structure
#
###############################################################################

data_XANNAB
_chemical_formula_moiety         '(C336 H240 Ag12 F108 P24 S48 12-)n'
_symmetry_cell_setting           triclinic
_symmetry_space_group_name_H-M   'P 1'
_symmetry_Int_Tables_number      1
_space_group_name_Hall           'P 1'
loop_
_symmetry_equiv_pos_site_id
_symmetry_equiv_pos_as_xyz
1 x,y,z
_cell_length_a                   19.086(8)
_cell_length_b                   19.060(1)
_cell_length_c                   25.9042(7)
_cell_angle_alpha                90
_cell_angle_beta                 90
_cell_angle_gamma                90
_cell_volume                     9423.41
loop_
_atom_site_label
_atom_site_type_symbol
_atom_site_fract_x
_atom_site_fract_y
_atom_site_fract_z
Ag1 Ag 0.60262(3) 0.38474(3) 0.38379(2)
Ag2 Ag 0.63477(3) 0.14741(3) 0.36625(2)
S1 S 0.70342(9) 0.41530(9) 0.44736(6)
S2 S 0.67671(8) 0.27078(9) 0.38979(6)
S3 S 0.69986(9) 0.12554(9) 0.45319(6)
S4 S 0.33469(8) 0.45356(9) 0.30260(6)
S5 S 0.47923(8) 0.42679(9) 0.36030(6)
S6 S 0.62450(8) 0.44987(9) 0.29680(6)
C1 C 0.7310(3) 0.3353(3) 0.4765(2)
C2 C 0.7157(3) 0.2710(3) 0.4524(2)
C3 C 0.7325(3) 0.2071(3) 0.4758(2)
C4 C 0.6566(4) 0.4604(4) 0.4969(3)
C5 C 0.6610(4) 0.5336(4) 0.4965(4)
C6 C 0.6213(5) 0.5698(5) 0.5311(5)
C7 C 0.5822(5) 0.5382(6) 0.5667(5)
C8 C 0.5756(5) 0.4649(7) 0.5680(4)
C9 C 0.6148(4) 0.4263(5) 0.5317(3)
C10 C 0.7481(4) 0.2956(4) 0.3484(3)
C11 C 0.8136(5) 0.3114(7) 0.3657(4)
C12 C 0.8631(7) 0.3333(10) 0.3282(6)
C13 C 0.8433(9) 0.3353(7) 0.2770(5)
C14 C 0.7797(8) 0.3174(6) 0.2613(4)
C15 C 0.7292(6) 0.2966(5) 0.2959(3)
C16 C 0.7729(4) 0.0815(4) 0.4262(3)
C17 C 0.8274(5) 0.1150(6) 0.4016(4)
C18 C 0.8802(6) 0.0752(9) 0.3781(4)
C19 C 0.8744(7) 0.0021(9) 0.3784(5)
C21 C 0.7685(5) 0.0086(5) 0.4267(4)
C22 C 0.4150(3) 0.4813(3) 0.2737(2)
C23 C 0.4786(3) 0.4655(3) 0.2972(2)
C24 C 0.2893(3) 0.5939(4) 0.2467(3)
C25 C 0.2167(4) 0.5893(5) 0.2467(4)
C26 C 0.1804(5) 0.6280(5) 0.2816(4)
C27 C 0.2111(6) 0.6677(5) 0.3159(5)
C28 C 0.2852(6) 0.6745(5) 0.3171(4)
C29 C 0.3238(5) 0.6358(4) 0.2815(3)
C30 C 0.4545(4) 0.4977(4) 0.4018(3)
C31 C 0.4530(5) 0.4793(6) 0.4540(3)
C32 C 0.4318(6) 0.5311(9) 0.4881(4)
C33 C 0.4154(8) 0.5945(9) 0.4730(5)
C34 C 0.4179(9) 0.6118(7) 0.4198(6)
C35 C 0.4393(7) 0.5639(5) 0.3845(4)
C36 C 0.5432(3) 0.4827(3) 0.2745(2)
C37 C 0.6685(4) 0.5223(4) 0.3232(3)
C38 C 0.7411(5) 0.5192(6) 0.3239(4)
C39 C 0.7807(6) 0.5706(8) 0.3474(5)
C40 C 0.7482(8) 0.6249(8) 0.3715(4)
C41 C 0.6761(8) 0.6296(6) 0.3728(5)
C42 C 0.6352(5) 0.5771(5) 0.3481(4)
H1 H 0.6913 0.5574 0.4727
H2 H 0.6216 0.6198 0.5295
H3 H 0.5577 0.5659 0.5913
H4 H 0.5461 0.4414 0.5925
H5 H 0.6109 0.3764 0.5310
H6 H 0.8262 0.3069 0.4021
H7 H 0.9090 0.3466 0.3380
H8 H 0.8765 0.3498 0.2519
H9 H 0.7680 0.3199 0.2253
H10 H 0.6835 0.2835 0.2849
H11 H 0.8289 0.1656 0.4014
H12 H 0.9199 0.0993 0.3612
H16 H 0.1928 0.5588 0.2229
H17 H 0.1308 0.6271 0.2810
H18 H 0.1831 0.6925 0.3399
H19 H 0.3084 0.7042 0.3417
H20 H 0.3738 0.6386 0.2812
H21 H 0.4664 0.4334 0.4654
H22 H 0.4277 0.5192 0.5241
H23 H 0.4022 0.6289 0.4978
H24 H 0.4057 0.6579 0.4085
H25 H 0.4445 0.5763 0.3482
H26 H 0.7648 0.4797 0.3074
H27 H 0.8306 0.5676 0.3464
H28 H 0.7753 0.6619 0.3878
H29 H 0.6530 0.6685 0.3912
H30 H 0.5849 0.5799 0.3479
C43 C 0.7690(3) 0.3353(3) 0.5235(2)
S7 S 0.79658(9) 0.41530(9) 0.55264(6)
Ag3 Ag 0.89738(3) 0.38474(3) 0.61621(2)
S8 S 0.82329(8) 0.27078(9) 0.61021(6)
Ag4 Ag 0.86523(3) 0.14741(3) 0.63375(2)
S9 S 0.80014(9) 0.12554(9) 0.54681(6)
C44 C 0.7675(3) 0.2071(3) 0.5242(2)
C45 C 0.7843(3) 0.2710(3) 0.5476(2)
C46 C 0.7519(4) 0.2956(4) 0.6516(3)
C47 C 0.6864(5) 0.3114(7) 0.6343(4)
C48 C 0.6369(7) 0.3333(10) 0.6718(6)
C49 C 0.6567(9) 0.3353(7) 0.7230(5)
C50 C 0.7203(8) 0.3174(6) 0.7387(4)
C51 C 0.7708(6) 0.2966(5) 0.7041(3)
H31 H 0.8165 0.2835 0.7151
H32 H 0.7320 0.3199 0.7747
H33 H 0.6235 0.3498 0.7481
H34 H 0.5910 0.3466 0.6620
H35 H 0.6738 0.3069 0.5979
Ag5 Ag 0.36523(3) 0.35259(3) 0.36625(2)
S10 S 0.66531(8) 0.04644(9) 0.30260(6)
C52 C 0.4150(3) 0.5187(3) 0.2263(2)
S11 S 0.33469(8) 0.54644(9) 0.19740(6)
Ag6 Ag 0.36523(3) 0.64741(3) 0.13375(2)
S12 S 0.32329(8) 0.77078(9) 0.11021(6)
S13 S 0.30014(9) 0.62554(9) 0.04681(6)
S14 S 0.47923(8) 0.57321(9) 0.13970(6)
Ag7 Ag 0.60262(3) 0.61526(3) 0.11621(2)
S15 S 0.70342(9) 0.58470(9) 0.05264(6)
S16 S 0.67671(8) 0.72922(9) 0.11021(6)
S17 S 0.62450(8) 0.55013(9) 0.20320(6)
C53 C 0.5432(3) 0.5173(3) 0.2255(2)
C54 C 0.4786(3) 0.5345(3) 0.2028(2)
C55 C 0.4545(4) 0.5023(4) 0.0982(3)
C56 C 0.4530(5) 0.5207(6) 0.0460(3)
C57 C 0.4318(6) 0.4689(9) 0.0119(4)
C58 C 0.4154(8) 0.4055(9) 0.0270(5)
C59 C 0.4179(9) 0.3882(7) 0.0802(6)
C60 C 0.4393(7) 0.4361(5) 0.1155(4)
H36 H 0.4445 0.4237 0.1518
H37 H 0.4057 0.3421 0.0915
H38 H 0.4022 0.3711 0.0022
H40 H 0.4664 0.5666 0.0346
C61 C 0.6685(4) 0.4777(4) 0.1768(3)
C62 C 0.7411(5) 0.4808(6) 0.1761(4)
C63 C 0.7807(6) 0.4294(8) 0.1526(5)
C64 C 0.7482(8) 0.3751(8) 0.1285(4)
C65 C 0.6761(8) 0.3704(6) 0.1272(5)
C66 C 0.6352(5) 0.4229(5) 0.1519(4)
H41 H 0.5849 0.4201 0.1521
H42 H 0.6530 0.3315 0.1088
H43 H 0.7753 0.3381 0.1122
H44 H 0.8306 0.4324 0.1536
H45 H 0.7648 0.5203 0.1926
C67 C 0.2893(3) 0.4061(4) 0.2533(3)
C68 C 0.2167(4) 0.4107(5) 0.2533(4)
C69 C 0.1804(5) 0.3720(5) 0.2184(4)
C70 C 0.2111(6) 0.3323(5) 0.1841(5)
C71 C 0.2852(6) 0.3255(5) 0.1829(4)
C72 C 0.3238(5) 0.3642(4) 0.2185(3)
H46 H 0.3738 0.3614 0.2188
H47 H 0.3084 0.2958 0.1583
H48 H 0.1831 0.3075 0.1601
H49 H 0.1308 0.3729 0.2190
H50 H 0.1928 0.4412 0.2771
S18 S 0.52077(8) 0.07321(9) 0.36030(6)
C73 C 0.7271(4) 0.0815(4) 0.5738(3)
C74 C 0.6726(5) 0.1150(6) 0.5984(4)
C75 C 0.6198(6) 0.0752(9) 0.6219(4)
C76 C 0.6256(7) 0.0021(9) 0.6216(5)
C78 C 0.7315(5) 0.0086(5) 0.5733(4)
H54 H 0.5801 0.0993 0.6388
H55 H 0.6711 0.1656 0.5986
C79 C 0.8434(4) 0.4604(4) 0.5031(3)
C80 C 0.8390(4) 0.5336(4) 0.5035(4)
C81 C 0.8787(5) 0.5698(5) 0.4689(5)
C82 C 0.9178(5) 0.5382(6) 0.4333(5)
C83 C 0.9244(5) 0.4649(7) 0.4320(4)
C84 C 0.8852(4) 0.4263(5) 0.4683(3)
H56 H 0.8891 0.3764 0.4690
H57 H 0.9539 0.4414 0.4075
H58 H 0.9423 0.5659 0.4087
H59 H 0.8784 0.6198 0.4705
H60 H 0.8087 0.5574 0.5273
H39 H 0.4277 0.4808 0.9759
S4_2 S 0.16531(8) 0.54644(9) 0.80260(6)
S5_2 S 0.02077(8) 0.57321(9) 0.86030(6)
C22_2 C 0.0850(3) 0.5187(3) 0.7737(2)
C23_2 C 0.0214(3) 0.5345(3) 0.7972(2)
C24_2 C 0.2107(3) 0.4061(4) 0.7467(3)
C25_2 C 0.2833(4) 0.4107(5) 0.7467(4)
C26_2 C 0.3196(5) 0.3720(5) 0.7816(4)
C27_2 C 0.2889(6) 0.3323(5) 0.8159(5)
C28_2 C 0.2148(6) 0.3255(5) 0.8171(4)
C29_2 C 0.1762(5) 0.3642(4) 0.7815(3)
C30_2 C 0.0455(4) 0.5023(4) 0.9018(3)
C31_2 C 0.0470(5) 0.5207(6) 0.9540(3)
C32_2 C 0.0682(6) 0.4689(9) 0.9881(4)
C33_2 C 0.0846(8) 0.4055(9) 0.9730(5)
C34_2 C 0.0821(9) 0.3882(7) 0.9198(6)
C35_2 C 0.0607(7) 0.4361(5) 0.8845(4)
H16_2 H 0.3072 0.4412 0.7229
H17_2 H 0.3692 0.3729 0.7810
H18_2 H 0.3169 0.3075 0.8399
H19_2 H 0.1916 0.2958 0.8417
H20_2 H 0.1262 0.3614 0.7812
H21_2 H 0.0336 0.5666 0.9654
H23_2 H 0.0978 0.3711 0.9978
H24_2 H 0.0943 0.3421 0.9085
H25_2 H 0.0555 0.4237 0.8482
Ag5_2 Ag 0.13477(3) 0.64741(3) 0.86625(2)
C52_2 C 0.0850(3) 0.4813(3) 0.7263(2)
S11_2 S 0.16531(8) 0.45356(9) 0.69740(6)
Ag6_2 Ag 0.13477(3) 0.35259(3) 0.63375(2)
S12_2 S 0.17671(8) 0.22922(9) 0.61021(6)
S13_2 S 0.19986(9) 0.37446(9) 0.54681(6)
S14_2 S 0.02077(8) 0.42679(9) 0.63970(6)
C54_2 C 0.0214(3) 0.4655(3) 0.7028(2)
C55_2 C 0.0455(4) 0.4977(4) 0.5982(3)
C56_2 C 0.0470(5) 0.4793(6) 0.5460(3)
C57_2 C 0.0682(6) 0.5311(9) 0.5119(4)
C58_2 C 0.0846(8) 0.5945(9) 0.5270(5)
C59_2 C 0.0821(9) 0.6118(7) 0.5802(6)
C60_2 C 0.0607(7) 0.5639(5) 0.6155(4)
H36_2 H 0.0555 0.5763 0.6518
H37_2 H 0.0943 0.6579 0.5915
H38_2 H 0.0978 0.6289 0.5022
H39_2 H 0.0723 0.5192 0.4759
H40_2 H 0.0336 0.4334 0.5346
C67_2 C 0.2107(3) 0.5939(4) 0.7533(3)
C68_2 C 0.2833(4) 0.5893(5) 0.7533(4)
C69_2 C 0.3196(5) 0.6280(5) 0.7184(4)
C70_2 C 0.2889(6) 0.6677(5) 0.6841(5)
C71_2 C 0.2148(6) 0.6745(5) 0.6829(4)
C72_2 C 0.1762(5) 0.6358(4) 0.7185(3)
H46_2 H 0.1262 0.6386 0.7188
H47_2 H 0.1916 0.7042 0.6583
H48_2 H 0.3169 0.6925 0.6601
H49_2 H 0.3692 0.6271 0.7190
H50_2 H 0.3072 0.5588 0.7771
C6_2 C 0.8787(5) 0.4302(5) 0.0311(5)
C7_2 C 0.9178(5) 0.4618(6) 0.0667(5)
C8_2 C 0.9244(5) 0.5351(7) 0.0680(4)
C9_2 C 0.8852(4) 0.5737(5) 0.0317(3)
H2_2 H 0.8784 0.3802 0.0295
H3_2 H 0.9423 0.4341 0.0913
H4_2 H 0.9539 0.5586 0.0925
H5_2 H 0.8891 0.6236 0.0310
C43_2 C 0.7310(3) 0.6647(3) 0.0235(2)
Ag4_2 Ag 0.63477(3) 0.85259(3) 0.13375(2)
S9_2 S 0.69986(9) 0.87446(9) 0.04681(6)
C44_2 C 0.7325(3) 0.7929(3) 0.0242(2)
C45_2 C 0.7157(3) 0.7290(3) 0.0476(2)
C46_2 C 0.7481(4) 0.7044(4) 0.1516(3)
C47_2 C 0.8136(5) 0.6886(7) 0.1343(4)
C48_2 C 0.8631(7) 0.6667(10) 0.1718(6)
C49_2 C 0.8433(9) 0.6647(7) 0.2230(5)
C50_2 C 0.7797(8) 0.6826(6) 0.2387(4)
C51_2 C 0.7292(6) 0.7034(5) 0.2041(3)
H31_2 H 0.6835 0.7165 0.2151
H32_2 H 0.7680 0.6801 0.2747
H33_2 H 0.8765 0.6502 0.2481
H34_2 H 0.9090 0.6534 0.1620
H35_2 H 0.8262 0.6931 0.0979
C73_2 C 0.7729(4) 0.9185(4) 0.0738(3)
C74_2 C 0.8274(5) 0.8850(6) 0.0984(4)
C75_2 C 0.8802(6) 0.9248(9) 0.1219(4)
C76_2 C 0.8744(7) 0.9979(9) 0.1216(5)
C78_2 C 0.7685(5) 0.9914(5) 0.0733(4)
H54_2 H 0.9199 0.9007 0.1388
H55_2 H 0.8289 0.8344 0.0986
C79_2 C 0.6566(4) 0.5396(4) 0.0031(3)
C80_2 C 0.6610(4) 0.4664(4) 0.0035(4)
H60_2 H 0.6913 0.4426 0.0273
Ag1_2 Ag 0.89738(3) 0.61526(3) 0.88379(2)
Ag2_2 Ag 0.86523(3) 0.85259(3) 0.86625(2)
S1_2 S 0.79658(9) 0.58470(9) 0.94736(6)
S2_2 S 0.82329(8) 0.72922(9) 0.88979(6)
S3_2 S 0.80014(9) 0.87446(9) 0.95319(6)
S6_2 S 0.87550(8) 0.55013(9) 0.79680(6)
C1_2 C 0.7690(3) 0.6647(3) 0.9765(2)
C2_2 C 0.7843(3) 0.7290(3) 0.9524(2)
C3_2 C 0.7675(3) 0.7929(3) 0.9758(2)
C4_2 C 0.8434(4) 0.5396(4) 0.9969(3)
C5_2 C 0.8390(4) 0.4664(4) 0.9965(4)
C10_2 C 0.7519(4) 0.7044(4) 0.8484(3)
C11_2 C 0.6864(5) 0.6886(7) 0.8657(4)
C12_2 C 0.6369(7) 0.6667(10) 0.8282(6)
C13_2 C 0.6567(9) 0.6647(7) 0.7770(5)
C14_2 C 0.7203(8) 0.6826(6) 0.7613(4)
C15_2 C 0.7708(6) 0.7034(5) 0.7959(3)
C16_2 C 0.7271(4) 0.9185(4) 0.9262(3)
C17_2 C 0.6726(5) 0.8850(6) 0.9016(4)
C18_2 C 0.6198(6) 0.9248(9) 0.8781(4)
C19_2 C 0.6256(7) 0.9979(9) 0.8784(5)
C21_2 C 0.7315(5) 0.9914(5) 0.9267(4)
C36_2 C 0.9568(3) 0.5173(3) 0.7745(2)
C37_2 C 0.8315(4) 0.4777(4) 0.8232(3)
C38_2 C 0.7589(5) 0.4808(6) 0.8239(4)
C39_2 C 0.7193(6) 0.4294(8) 0.8474(5)
C40_2 C 0.7518(8) 0.3751(8) 0.8715(4)
C41_2 C 0.8239(8) 0.3704(6) 0.8728(5)
C42_2 C 0.8648(5) 0.4229(5) 0.8481(4)
H1_2 H 0.8087 0.4426 0.9727
H6_2 H 0.6738 0.6931 0.9021
H7_2 H 0.5910 0.6534 0.8380
H8_2 H 0.6235 0.6502 0.7519
H9_2 H 0.7320 0.6801 0.7253
H10_2 H 0.8165 0.7165 0.7849
H11_2 H 0.6711 0.8344 0.9014
H12_2 H 0.5801 0.9007 0.8612
H26_2 H 0.7352 0.5203 0.8074
H27_2 H 0.6694 0.4324 0.8464
H28_2 H 0.7247 0.3381 0.8878
H29_2 H 0.8470 0.3315 0.8912
H30_2 H 0.9151 0.4201 0.8479
S10_2 S 0.83469(8) 0.95356(9) 0.80260(6)
S17_2 S 0.87550(8) 0.44987(9) 0.70320(6)
C53_2 C 0.9568(3) 0.4827(3) 0.7255(2)
C61_2 C 0.8315(4) 0.5223(4) 0.6768(3)
C62_2 C 0.7589(5) 0.5192(6) 0.6761(4)
C63_2 C 0.7193(6) 0.5706(8) 0.6526(5)
C64_2 C 0.7518(8) 0.6249(8) 0.6285(4)
C65_2 C 0.8239(8) 0.6296(6) 0.6272(5)
C66_2 C 0.8648(5) 0.5771(5) 0.6519(4)
H41_2 H 0.9151 0.5799 0.6521
H42_2 H 0.8470 0.6685 0.6088
H43_2 H 0.7247 0.6619 0.6122
H44_2 H 0.6694 0.5676 0.6536
H45_2 H 0.7352 0.4797 0.6926
S18_2 S 0.97923(8) 0.92679(9) 0.86030(6)
C81_2 C 0.6213(5) 0.4302(5) 0.9689(5)
C82_2 C 0.5822(5) 0.4618(6) 0.9333(5)
C83_2 C 0.5756(5) 0.5351(7) 0.9320(4)
C84_2 C 0.6148(4) 0.5737(5) 0.9683(3)
H56_2 H 0.6109 0.6236 0.9690
H57_2 H 0.5461 0.5586 0.9075
H58_2 H 0.5577 0.4341 0.9087
H59_2 H 0.6216 0.3802 0.9705
Ag1_3 Ag 0.10262(3) 0.11526(3) 0.61621(2)
S1_3 S 0.20342(9) 0.08470(9) 0.55264(6)
S6_3 S 0.12450(8) 0.05013(9) 0.70320(6)
C1_3 C 0.2310(3) 0.1647(3) 0.5235(2)
C2_3 C 0.2157(3) 0.2290(3) 0.5476(2)
C3_3 C 0.2325(3) 0.2929(3) 0.5242(2)
C4_3 C 0.1566(4) 0.0396(4) 0.5031(3)
C8_3 C 0.0756(5) 0.0351(7) 0.4320(4)
C9_3 C 0.1148(4) 0.0737(5) 0.4683(3)
C10_3 C 0.2481(4) 0.2044(4) 0.6516(3)
C11_3 C 0.3136(5) 0.1886(7) 0.6343(4)
C12_3 C 0.3631(7) 0.1667(10) 0.6718(6)
C13_3 C 0.3433(9) 0.1647(7) 0.7230(5)
C14_3 C 0.2797(8) 0.1826(6) 0.7387(4)
C15_3 C 0.2292(6) 0.2034(5) 0.7041(3)
C16_3 C 0.2729(4) 0.4185(4) 0.5738(3)
C17_3 C 0.3274(5) 0.3850(6) 0.5984(4)
C18_3 C 0.3802(6) 0.4248(9) 0.6219(4)
C19_3 C 0.3744(7) 0.4979(9) 0.6216(5)
C20 C 0.3205(8) 0.5297(6) 0.5970(5)
C21_3 C 0.2685(5) 0.4914(5) 0.5733(4)
C36_3 C 0.0432(3) 0.0173(3) 0.7255(2)
H4_3 H 0.0461 0.0586 0.4075
H5_3 H 0.1109 0.1236 0.4690
H6_3 H 0.3262 0.1931 0.5979
H7_3 H 0.4090 0.1534 0.6620
H8_3 H 0.3765 0.1502 0.7481
H9_3 H 0.2680 0.1801 0.7747
H10_3 H 0.1835 0.2165 0.7151
H11_3 H 0.3289 0.3344 0.5986
H12_3 H 0.4199 0.4007 0.6388
H13 H 0.4105 0.5246 0.6391
H14 H 0.3191 0.5799 0.5960
H15 H 0.2290 0.5147 0.5566
H26_3 H 0.2648 0.0203 0.6926
C43_3 C 0.2690(3) 0.1647(3) 0.4765(2)
S7_2 S 0.29658(9) 0.08470(9) 0.44736(6)
Ag3_2 Ag 0.39738(3) 0.11526(3) 0.38379(2)
S8_2 S 0.32329(8) 0.22922(9) 0.38979(6)
S9_3 S 0.30014(9) 0.37446(9) 0.45319(6)
C44_3 C 0.2675(3) 0.2929(3) 0.4758(2)
C45_3 C 0.2843(3) 0.2290(3) 0.4524(2)
C46_3 C 0.2519(4) 0.2044(4) 0.3484(3)
C47_3 C 0.1864(5) 0.1886(7) 0.3657(4)
C48_3 C 0.1369(7) 0.1667(10) 0.3282(6)
C49_3 C 0.1567(9) 0.1647(7) 0.2770(5)
C50_3 C 0.2203(8) 0.1826(6) 0.2613(4)
C51_3 C 0.2708(6) 0.2034(5) 0.2959(3)
H31_3 H 0.3165 0.2165 0.2849
H32_3 H 0.2320 0.1801 0.2253
H33_3 H 0.1235 0.1502 0.2519
H34_3 H 0.0910 0.1534 0.3380
H35_3 H 0.1738 0.1931 0.4021
C61_3 C 0.1685(4) 0.0223(4) 0.8232(3)
C62_3 C 0.2411(5) 0.0192(6) 0.8239(4)
C63_3 C 0.2807(6) 0.0706(8) 0.8474(5)
C64_3 C 0.2482(8) 0.1249(8) 0.8715(4)
C65_3 C 0.1761(8) 0.1296(6) 0.8728(5)
C66_3 C 0.1352(5) 0.0771(5) 0.8481(4)
H41_3 H 0.0849 0.0799 0.8479
H42_3 H 0.1530 0.1685 0.8912
H43_3 H 0.2753 0.1619 0.8878
H44_3 H 0.3306 0.0676 0.8464
C73_3 C 0.2271(4) 0.4185(4) 0.4262(3)
C74_3 C 0.1726(5) 0.3850(6) 0.4016(4)
C75_3 C 0.1198(6) 0.4248(9) 0.3781(4)
C76_3 C 0.1256(7) 0.4979(9) 0.3784(5)
C77 C 0.1795(8) 0.5297(6) 0.4030(5)
C78_3 C 0.2315(5) 0.4914(5) 0.4267(4)
H51 H 0.2710 0.5147 0.4434
H52 H 0.1809 0.5799 0.4040
H53 H 0.0895 0.5246 0.3609
H54_3 H 0.0801 0.4007 0.3612
H55_3 H 0.1711 0.3344 0.4014
C79_3 C 0.3434(4) 0.0396(4) 0.4969(3)
C83_3 C 0.4244(5) 0.0351(7) 0.5680(4)
C84_3 C 0.3852(4) 0.0737(5) 0.5317(3)
H56_3 H 0.3891 0.1236 0.5310
H57_3 H 0.4539 0.0586 0.5925
C5_3 C 0.1610(4) 0.9664(4) 0.5035(4)
C6_3 C 0.1213(5) 0.9302(5) 0.4689(5)
C7_3 C 0.0822(5) 0.9618(6) 0.4333(5)
C37_3 C 0.1685(4) 0.9777(4) 0.6768(3)
C38_3 C 0.2411(5) 0.9808(6) 0.6761(4)
C39_3 C 0.2807(6) 0.9294(8) 0.6526(5)
C40_3 C 0.2482(8) 0.8751(8) 0.6285(4)
C41_3 C 0.1761(8) 0.8704(6) 0.6272(5)
C42_3 C 0.1352(5) 0.9229(5) 0.6519(4)
H1_3 H 0.1913 0.9426 0.5273
H2_3 H 0.1216 0.8802 0.4705
H3_3 H 0.0577 0.9341 0.4087
H27_3 H 0.3306 0.9324 0.6536
H28_3 H 0.2753 0.8381 0.6122
H29_3 H 0.1530 0.8315 0.6088
H30_3 H 0.0849 0.9201 0.6521
Ag7_2 Ag 0.10262(3) 0.88474(3) 0.88379(2)
S15_2 S 0.20342(9) 0.91530(9) 0.94736(6)
S16_2 S 0.17671(8) 0.77078(9) 0.88979(6)
S17_3 S 0.12450(8) 0.94987(9) 0.79680(6)
C53_3 C 0.0432(3) 0.9827(3) 0.7745(2)
H45_3 H 0.2648 0.9797 0.8074
C80_3 C 0.3390(4) 0.9664(4) 0.4965(4)
C81_3 C 0.3787(5) 0.9302(5) 0.5311(5)
C82_3 C 0.4178(5) 0.9618(6) 0.5667(5)
H58_3 H 0.4423 0.9341 0.5913
H59_3 H 0.3784 0.8802 0.5295
H60_3 H 0.3087 0.9426 0.4727
S4_3 S 0.83469(8) 0.04644(9) 0.69740(6)
S5_3 S 0.97923(8) 0.07321(9) 0.63970(6)
C22_3 C 0.9150(3) 0.0187(3) 0.7263(2)
C23_3 C 0.9786(3) 0.0345(3) 0.7028(2)
C30_3 C 0.9545(4) 0.0023(4) 0.5982(3)
C31_3 C 0.9530(5) 0.0207(6) 0.5460(3)
H21_3 H 0.9664 0.0666 0.5346
C57_3 C 0.9318(6) 0.0311(9) 0.9881(4)
C58_3 C 0.9154(8) 0.0945(9) 0.9730(5)
C59_3 C 0.9179(9) 0.1118(7) 0.9198(6)
C60_3 C 0.9393(7) 0.0639(5) 0.8845(4)
H36_3 H 0.9445 0.0763 0.8482
H37_3 H 0.9057 0.1579 0.9085
H38_3 H 0.9022 0.1289 0.9978
C67_3 C 0.7893(3) 0.0939(4) 0.7467(3)
C68_3 C 0.7167(4) 0.0893(5) 0.7467(4)
C69_3 C 0.6804(5) 0.1280(5) 0.7816(4)
C70_3 C 0.7111(6) 0.1677(5) 0.8159(5)
C71_3 C 0.7852(6) 0.1745(5) 0.8171(4)
C72_3 C 0.8238(5) 0.1358(4) 0.7815(3)
H46_3 H 0.8738 0.1386 0.7812
H47_3 H 0.8084 0.2042 0.8417
H48_3 H 0.6831 0.1925 0.8399
H49_3 H 0.6308 0.1271 0.7810
H50_3 H 0.6928 0.0588 0.7229
C24_3 C 0.7893(3) 0.9061(4) 0.7533(3)
C25_3 C 0.7167(4) 0.9107(5) 0.7533(4)
C26_3 C 0.6804(5) 0.8720(5) 0.7184(4)
C27_3 C 0.7111(6) 0.8323(5) 0.6841(5)
C28_3 C 0.7852(6) 0.8255(5) 0.6829(4)
C29_3 C 0.8238(5) 0.8642(4) 0.7185(3)
C32_3 C 0.9318(6) 0.9689(9) 0.5119(4)
C33_3 C 0.9154(8) 0.9055(9) 0.5270(5)
C34_3 C 0.9179(9) 0.8882(7) 0.5802(6)
C35_3 C 0.9393(7) 0.9361(5) 0.6155(4)
H16_3 H 0.6928 0.9412 0.7771
H17_3 H 0.6308 0.8729 0.7190
H18_3 H 0.6831 0.8075 0.6601
H19_3 H 0.8084 0.7958 0.6583
H20_3 H 0.8738 0.8614 0.7188
H22_2 H 0.9277 0.9808 0.4759
H23_3 H 0.9022 0.8711 0.5022
H24_3 H 0.9057 0.8421 0.5915
H25_3 H 0.9445 0.9237 0.6518
C52_3 C 0.9150(3) 0.9813(3) 0.7737(2)
C54_3 C 0.9786(3) 0.9655(3) 0.7972(2)
C55_3 C 0.9545(4) 0.9977(4) 0.9018(3)
C56_3 C 0.9530(5) 0.9793(6) 0.9540(3)
H40_3 H 0.9664 0.9334 0.9654
C5_4 C 0.3390(4) 0.0336(4) 0.0035(4)
C24_4 C 0.7107(3) 0.0939(4) 0.2533(3)
C25_4 C 0.7833(4) 0.0893(5) 0.2533(4)
C26_4 C 0.8196(5) 0.1280(5) 0.2184(4)
C27_4 C 0.7889(6) 0.1677(5) 0.1841(5)
C28_4 C 0.7148(6) 0.1745(5) 0.1829(4)
C29_4 C 0.6762(5) 0.1358(4) 0.2185(3)
C32_4 C 0.5682(6) 0.0311(9) 0.0119(4)
C33_4 C 0.5846(8) 0.0945(9) 0.0270(5)
C34_4 C 0.5821(9) 0.1118(7) 0.0802(6)
C35_4 C 0.5607(7) 0.0639(5) 0.1155(4)
C37_4 C 0.3315(4) 0.0223(4) 0.1768(3)
C38_4 C 0.2589(5) 0.0192(6) 0.1761(4)
C39_4 C 0.2193(6) 0.0706(8) 0.1526(5)
C40_4 C 0.2518(8) 0.1249(8) 0.1285(4)
C41_4 C 0.3239(8) 0.1296(6) 0.1272(5)
C42_4 C 0.3648(5) 0.0771(5) 0.1519(4)
H1_4 H 0.3087 0.0574 0.0273
H16_4 H 0.8072 0.0588 0.2771
H17_4 H 0.8692 0.1271 0.2190
H18_4 H 0.8169 0.1925 0.1601
H19_4 H 0.6916 0.2042 0.1583
H20_4 H 0.6262 0.1386 0.2188
H23_4 H 0.5978 0.1289 0.0022
H24_4 H 0.5943 0.1579 0.0915
H25_4 H 0.5555 0.0763 0.1518
H27_4 H 0.1694 0.0676 0.1536
H28_4 H 0.2247 0.1619 0.1122
H29_4 H 0.3470 0.1685 0.1088
H30_4 H 0.4151 0.0799 0.1521
C52_4 C 0.5850(3) 0.0187(3) 0.2737(2)
S17_4 S 0.37550(8) 0.05013(9) 0.29680(6)
C53_4 C 0.4568(3) 0.0173(3) 0.2745(2)
C54_4 C 0.5214(3) 0.0345(3) 0.2972(2)
C55_4 C 0.5455(4) 0.0023(4) 0.4018(3)
C56_4 C 0.5470(5) 0.0207(6) 0.4540(3)
H40_4 H 0.5336 0.0666 0.4654
H45_4 H 0.2352 0.0203 0.3074
C81_4 C 0.1213(5) 0.0698(5) 0.0311(5)
C82_4 C 0.0822(5) 0.0382(6) 0.0667(5)
H58_4 H 0.0577 0.0659 0.0913
H59_4 H 0.1216 0.1198 0.0295
C6_4 C 0.3787(5) 0.0698(5) 0.9689(5)
C7_4 C 0.4178(5) 0.0382(6) 0.9333(5)
H2_4 H 0.3784 0.1198 0.9705
H3_4 H 0.4423 0.0659 0.9087
H22_3 H 0.5723 0.0192 0.9759
C80_4 C 0.1610(4) 0.0336(4) 0.9965(4)
H60_4 H 0.1913 0.0574 0.9727
Ag1_4 Ag 0.39738(3) 0.88474(3) 0.11621(2)
S1_4 S 0.29658(9) 0.91530(9) 0.05264(6)
S4_4 S 0.66531(8) 0.95356(9) 0.19740(6)
S5_4 S 0.52077(8) 0.92679(9) 0.13970(6)
S6_4 S 0.37550(8) 0.94987(9) 0.20320(6)
C1_4 C 0.2690(3) 0.8353(3) 0.0235(2)
C2_4 C 0.2843(3) 0.7710(3) 0.0476(2)
C3_4 C 0.2675(3) 0.7071(3) 0.0242(2)
C4_4 C 0.3434(4) 0.9604(4) 0.0031(3)
C10_4 C 0.2519(4) 0.7956(4) 0.1516(3)
C11_4 C 0.1864(5) 0.8114(7) 0.1343(4)
C12_4 C 0.1369(7) 0.8333(10) 0.1718(6)
C13_4 C 0.1567(9) 0.8353(7) 0.2230(5)
C14_4 C 0.2203(8) 0.8174(6) 0.2387(4)
C15_4 C 0.2708(6) 0.7966(5) 0.2041(3)
C16_4 C 0.2271(4) 0.5815(4) 0.0738(3)
C17_4 C 0.1726(5) 0.6150(6) 0.0984(4)
C18_4 C 0.1198(6) 0.5752(9) 0.1219(4)
C19_4 C 0.1256(7) 0.5021(9) 0.1216(5)
C20_2 C 0.1795(8) 0.4703(6) 0.0970(5)
C21_4 C 0.2315(5) 0.5086(5) 0.0733(4)
C22_4 C 0.5850(3) 0.9813(3) 0.2263(2)
C23_4 C 0.5214(3) 0.9655(3) 0.2028(2)
C30_4 C 0.5455(4) 0.9977(4) 0.0982(3)
C31_4 C 0.5470(5) 0.9793(6) 0.0460(3)
C36_4 C 0.4568(3) 0.9827(3) 0.2255(2)
H6_4 H 0.1738 0.8069 0.0979
H7_4 H 0.0910 0.8466 0.1620
H8_4 H 0.1235 0.8498 0.2481
H9_4 H 0.2320 0.8199 0.2747
H10_4 H 0.3165 0.7835 0.2151
H11_4 H 0.1711 0.6656 0.0986
H12_4 H 0.0801 0.5993 0.1388
H13_2 H 0.0895 0.4754 0.1391
H14_2 H 0.1809 0.4201 0.0960
H15_2 H 0.2710 0.4853 0.0566
H21_4 H 0.5336 0.9334 0.0346
H26_4 H 0.2352 0.9797 0.1926
C57_4 C 0.5682(6) 0.9689(9) 0.4881(4)
C58_4 C 0.5846(8) 0.9055(9) 0.4730(5)
C59_4 C 0.5821(9) 0.8882(7) 0.4198(6)
C60_4 C 0.5607(7) 0.9361(5) 0.3845(4)
H36_4 H 0.5555 0.9237 0.3482
H37_4 H 0.5943 0.8421 0.4085
H38_4 H 0.5978 0.8711 0.4978
H39_3 H 0.5723 0.9808 0.5241
C61_4 C 0.3315(4) 0.9777(4) 0.3232(3)
C62_4 C 0.2589(5) 0.9808(6) 0.3239(4)
C63_4 C 0.2193(6) 0.9294(8) 0.3474(5)
C64_4 C 0.2518(8) 0.8751(8) 0.3715(4)
C65_4 C 0.3239(8) 0.8704(6) 0.3728(5)
C66_4 C 0.3648(5) 0.9229(5) 0.3481(4)
H41_4 H 0.4151 0.9201 0.3479
H42_4 H 0.3470 0.8315 0.3912
H43_4 H 0.2247 0.8381 0.3878
H44_4 H 0.1694 0.9324 0.3464
C67_4 C 0.7107(3) 0.9061(4) 0.2467(3)
C68_4 C 0.7833(4) 0.9107(5) 0.2467(4)
C69_4 C 0.8196(5) 0.8720(5) 0.2816(4)
C70_4 C 0.7889(6) 0.8323(5) 0.3159(5)
C71_4 C 0.7148(6) 0.8255(5) 0.3171(4)
C72_4 C 0.6762(5) 0.8642(4) 0.2815(3)
H46_4 H 0.6262 0.8614 0.2812
H47_4 H 0.6916 0.7958 0.3417
H48_4 H 0.8169 0.8075 0.3399
H49_4 H 0.8692 0.8729 0.2810
H50_4 H 0.8072 0.9412 0.2229
C83_4 C 0.0756(5) 0.9649(7) 0.0680(4)
C84_4 C 0.1148(4) 0.9263(5) 0.0317(3)
H56_4 H 0.1109 0.8764 0.0310
H57_4 H 0.0461 0.9414 0.0925
C8_4 C 0.4244(5) 0.9649(7) 0.9320(4)
C9_4 C 0.3852(4) 0.9263(5) 0.9683(3)
H4_4 H 0.4539 0.9414 0.9075
H5_4 H 0.3891 0.8764 0.9690
C43_4 C 0.2310(3) 0.8353(3) 0.9765(2)
S9_4 S 0.19986(9) 0.62554(9) 0.95319(6)
C44_4 C 0.2325(3) 0.7071(3) 0.9758(2)
C45_4 C 0.2157(3) 0.7710(3) 0.9524(2)
C46_4 C 0.2481(4) 0.7956(4) 0.8484(3)
C47_4 C 0.3136(5) 0.8114(7) 0.8657(4)
C48_4 C 0.3631(7) 0.8333(10) 0.8282(6)
C49_4 C 0.3433(9) 0.8353(7) 0.7770(5)
C50_4 C 0.2797(8) 0.8174(6) 0.7613(4)
C51_4 C 0.2292(6) 0.7966(5) 0.7959(3)
H31_4 H 0.1835 0.7835 0.7849
H32_4 H 0.2680 0.8199 0.7253
H33_4 H 0.3765 0.8498 0.7519
H34_4 H 0.4090 0.8466 0.8380
H35_4 H 0.3262 0.8069 0.9021
C73_4 C 0.2729(4) 0.5815(4) 0.9262(3)
C74_4 C 0.3274(5) 0.6150(6) 0.9016(4)
C75_4 C 0.3802(6) 0.5752(9) 0.8781(4)
C76_4 C 0.3744(7) 0.5021(9) 0.8784(5)
C77_2 C 0.3205(8) 0.4703(6) 0.9030(5)
C78_4 C 0.2685(5) 0.5086(5) 0.9267(4)
H51_2 H 0.2290 0.4853 0.9434
H52_2 H 0.3191 0.4201 0.9040
H53_2 H 0.4105 0.4754 0.8609
H54_4 H 0.4199 0.5993 0.8612
H55_4 H 0.3289 0.6656 0.9014
C79_4 C 0.1566(4) 0.9604(4) 0.9969(3)
C20_3 C 0.8205(8) 0.9703(6) 0.4030(5)
H13_3 H 0.9105 0.9754 0.3609
H14_3 H 0.8191 0.9201 0.4040
H15_3 H 0.7290 0.9853 0.4434
C77_3 C 0.6795(8) 0.9703(6) 0.5970(5)
H51_3 H 0.7710 0.9853 0.5566
H52_3 H 0.6809 0.9201 0.5960
H53_3 H 0.5895 0.9754 0.6391
H22_4 H 0.0723 0.4808 0.0241
C77_4 C 0.8205(8) 0.0297(6) 0.0970(5)
H51_4 H 0.7290 0.0147 0.0566
H52_4 H 0.8191 0.0799 0.0960
H53_4 H 0.9105 0.0246 0.1391
C20_4 C 0.6795(8) 0.0297(6) 0.9030(5)
H13_4 H 0.5895 0.0246 0.8609
H14_4 H 0.6809 0.0799 0.9040
H15_4 H 0.7710 0.0147 0.9434
H39_4 H 0.9277 0.0192 0.0241
P1 P 0.0160(2) 0.0000 0.2500
F2 F 0.0153(5) 0.0581(5) 0.2937(4)
F3 F 0.0146(6) 0.0625(7) 0.2085(5)
F4 F 0.0997(5) 0.0000 0.2500
P1_2 P 0.0160(2) 1.0000 0.2500
F4_2 F 0.0997(5) 1.0000 0.2500
F5 F 0.0153(5) 0.9419(5) 0.2063(4)
F6 F 0.0146(6) 0.9375(7) 0.2915(5)
F1 F 0.9326(4) 0.0000 0.2500
F1_2 F 0.9326(4) 1.0000 0.2500
P1_3 P 0.4840(2) -0.0000 0.7500
F1_3 F 0.5674(4) -0.0000 0.7500
F4_3 F 0.4003(5) -0.0000 0.7500
F5_2 F 0.4847(5) 0.0581(5) 0.7063(4)
F6_2 F 0.4854(6) 0.0625(7) 0.7915(5)
P1_4 P 0.4840(2) 1.0000 0.7500
F1_4 F 0.5674(4) 1.0000 0.7500
F2_2 F 0.4847(5) 0.9419(5) 0.7937(4)
F3_2 F 0.4854(6) 0.9375(7) 0.7085(5)
F4_4 F 0.4003(5) 1.0000 0.7500
P1_5 P 0.5160(2) 0.5000 0.7500
F1_5 F 0.4326(4) 0.5000 0.7500
F2_3 F 0.5153(5) 0.4419(5) 0.7063(4)
F3_3 F 0.5146(6) 0.4375(7) 0.7915(5)
F4_5 F 0.5997(5) 0.5000 0.7500
F5_3 F 0.5153(5) 0.5581(5) 0.7937(4)
F6_3 F 0.5146(6) 0.5625(7) 0.7085(5)
F1_6 F 0.0674(4) 0.5000 0.2500
P1_6 P 0.9840(2) 0.5000 0.2500
F2_4 F 0.9847(5) 0.5581(5) 0.2063(4)
F3_4 F 0.9854(6) 0.5625(7) 0.2915(5)
F4_6 F 0.9003(5) 0.5000 0.2500
F5_4 F 0.9847(5) 0.4419(5) 0.2937(4)
F6_4 F 0.9854(6) 0.4375(7) 0.2085(5)
P2 P 0.5000 0.2500 0.4887(3)
F7 F 0.493(1) 0.3030(10) 0.5348(7)
F8 F 0.517(2) 0.3050(10) 0.4534(7)
F9 F 0.5752(8) 0.249(1) 0.497(1)
F10 F 0.507(1) 0.1970(10) 0.5348(7)
F11 F 0.483(2) 0.1950(10) 0.4534(7)
F12 F 0.4248(8) 0.251(1) 0.497(1)
F7_2 F 0.007(1) 0.6970(10) 0.0348(7)
P2_2 P -0.0000 0.7500 0.9887(3)
F11_2 F 0.017(2) 0.8050(10) 0.9534(7)
F12_2 F 0.0752(8) 0.749(1) 0.997(1)
F10_2 F 0.993(1) 0.8030(10) 0.0348(7)
P2_3 P 1.0000 0.7500 0.9887(3)
F8_2 F 0.983(2) 0.6950(10) 0.9534(7)
F9_2 F 0.9248(8) 0.751(1) 0.997(1)
P2_4 P -0.0000 0.2500 0.5113(3)
F8_3 F 0.017(2) 0.1950(10) 0.5466(7)
F9_3 F 0.0752(8) 0.251(1) 0.503(1)
F10_3 F 0.007(1) 0.3030(10) 0.4652(7)
P2_5 P 1.0000 0.2500 0.5113(3)
F7_3 F 0.993(1) 0.1970(10) 0.4652(7)
F11_3 F 0.983(2) 0.3050(10) 0.5466(7)
F12_3 F 0.9248(8) 0.249(1) 0.503(1)
P2_6 P 0.5000 0.7500 0.0113(3)
F8_4 F 0.483(2) 0.8050(10) 0.0466(7)
F9_4 F 0.4248(8) 0.749(1) 0.003(1)
F11_4 F 0.517(2) 0.6950(10) 0.0466(7)
F12_4 F 0.5752(8) 0.751(1) 0.003(1)
F7_4 F 0.507(1) 0.8030(10) 0.9652(7)
F10_4 F 0.493(1) 0.6970(10) 0.9652(7)
P3 P 0.7500 0.2340(2) 0.0000
F13 F 0.7500 0.1503(5) 0.0000
F14 F 0.6928(5) 0.2353(5) 0.0439(4)
F15 F 0.8109(6) 0.2348(6) 0.0419(5)
F16 F 0.7500 0.3175(5) 0.0000
P3_2 P 0.7500 0.2340(2) 1.0000
F13_2 F 0.7500 0.1503(5) 1.0000
F16_2 F 0.7500 0.3175(5) 1.0000
F17 F 0.8072(5) 0.2353(5) 0.9561(4)
F18 F 0.6891(6) 0.2348(6) 0.9581(5)
P3_3 P 0.7500 0.7660(2) 0.5000
F13_3 F 0.7500 0.8497(5) 0.5000
F14_2 F 0.8072(5) 0.7647(5) 0.5439(4)
F15_2 F 0.6891(6) 0.7652(6) 0.5419(5)
F16_3 F 0.7500 0.6825(5) 0.5000
F17_2 F 0.6928(5) 0.7647(5) 0.4561(4)
F18_2 F 0.8109(6) 0.7652(6) 0.4581(5)
P3_4 P 0.2500 0.2660(2) 0.0000
F13_4 F 0.2500 0.3497(5) 0.0000
F16_4 F 0.2500 0.1825(5) 0.0000
F17_3 F 0.3072(5) 0.2647(5) 0.0439(4)
F18_3 F 0.1891(6) 0.2652(6) 0.0419(5)
P3_5 P 0.2500 0.2660(2) 1.0000
F13_5 F 0.2500 0.3497(5) 1.0000
F14_3 F 0.1928(5) 0.2647(5) 0.9561(4)
F15_3 F 0.3109(6) 0.2652(6) 0.9581(5)
F16_5 F 0.2500 0.1825(5) 1.0000
P3_6 P 0.2500 0.7340(2) 0.5000
F13_6 F 0.2500 0.6503(5) 0.5000
F14_4 F 0.3072(5) 0.7353(5) 0.4561(4)
F15_4 F 0.1891(6) 0.7348(6) 0.4581(5)
F16_6 F 0.2500 0.8175(5) 0.5000
F17_4 F 0.1928(5) 0.7353(5) 0.5439(4)
F18_4 F 0.3109(6) 0.7348(6) 0.5419(5)
P4 P 0.5000 0.2500 0.2614(3)
F19 F 0.500(1) 0.1748(7) 0.255(1)
F20 F 0.5571(9) 0.235(2) 0.2947(7)
F21 F 0.5533(10) 0.257(1) 0.2150(7)
F22 F 0.500(1) 0.3252(7) 0.255(1)
F23 F 0.4429(9) 0.265(2) 0.2947(7)
F24 F 0.4467(10) 0.243(1) 0.2150(7)
P4_2 P 0.0000 0.7500 0.7614(3)
F19_2 F 0.000(1) 0.8252(7) 0.755(1)
F22_2 F 0.000(1) 0.6748(7) 0.755(1)
F23_2 F 0.0571(9) 0.735(2) 0.7947(7)
F24_2 F 0.0533(10) 0.757(1) 0.7150(7)
P4_3 P 1.0000 0.7500 0.7614(3)
F19_3 F 1.000(1) 0.8252(7) 0.755(1)
F20_2 F 0.9429(9) 0.765(2) 0.7947(7)
F21_2 F 0.9467(10) 0.743(1) 0.7150(7)
F22_3 F 1.000(1) 0.6748(7) 0.755(1)
P4_4 P 0.0000 0.2500 0.7386(3)
F19_4 F 0.000(1) 0.3252(7) 0.745(1)
F20_3 F 0.0571(9) 0.265(2) 0.7053(7)
F21_3 F 0.0533(10) 0.243(1) 0.7850(7)
F22_4 F 0.000(1) 0.1748(7) 0.745(1)
P4_5 P 1.0000 0.2500 0.7386(3)
F19_5 F 1.000(1) 0.3252(7) 0.745(1)
F22_5 F 1.000(1) 0.1748(7) 0.745(1)
F23_3 F 0.9429(9) 0.235(2) 0.7053(7)
F24_3 F 0.9467(10) 0.257(1) 0.7850(7)
P4_6 P 0.5000 0.7500 0.2386(3)
F19_6 F 0.500(1) 0.6748(7) 0.245(1)
F20_4 F 0.4429(9) 0.735(2) 0.2053(7)
F21_4 F 0.4467(10) 0.757(1) 0.2850(7)
F22_6 F 0.500(1) 0.8252(7) 0.245(1)
F23_4 F 0.5571(9) 0.765(2) 0.2053(7)
F24_4 F 0.5533(10) 0.743(1) 0.2850(7)
loop_
_geom_bond_atom_site_label_1
_geom_bond_atom_site_label_2
_geom_bond_site_symmetry_1
_geom_bond_site_symmetry_2
Ag1 S1 1_555 1_555
Ag2 S2 1_555 1_555
S1 C1 1_555 1_555
S2 Ag1 1_555 1_555
S3 Ag2 1_555 1_555
S4 C22 1_555 1_555
S5 Ag1 1_555 1_555
S6 Ag1 1_555 1_555
C1 C2 1_555 1_555
C2 S2 1_555 1_555
C3 S3 1_555 1_555
C4 S1 1_555 1_555
C5 C4 1_555 1_555
C6 C5 1_555 1_555
C7 C6 1_555 1_555
C8 C7 1_555 1_555
C9 C4 1_555 1_555
C10 S2 1_555 1_555
C11 C10 1_555 1_555
C12 C11 1_555 1_555
C13 C12 1_555 1_555
C14 C13 1_555 1_555
C15 C10 1_555 1_555
C16 S3 1_555 1_555
C17 C16 1_555 1_555
C18 C17 1_555 1_555
C19 C18 1_555 1_555
C21 C16 1_555 1_555
C22 C23 1_555 1_555
C23 S5 1_555 1_555
C24 C25 1_555 1_555
C25 C26 1_555 1_555
C26 C27 1_555 1_555
C27 C28 1_555 1_555
C28 C29 1_555 1_555
C29 C24 1_555 1_555
C30 S5 1_555 1_555
C31 C30 1_555 1_555
C32 C31 1_555 1_555
C33 C32 1_555 1_555
C34 C33 1_555 1_555
C35 C30 1_555 1_555
C36 S6 1_555 1_555
C37 S6 1_555 1_555
C38 C37 1_555 1_555
C39 C38 1_555 1_555
C40 C39 1_555 1_555
C41 C40 1_555 1_555
C42 C37 1_555 1_555
H1 C5 1_555 1_555
H2 C6 1_555 1_555
H3 C7 1_555 1_555
H4 C8 1_555 1_555
H5 C9 1_555 1_555
H6 C11 1_555 1_555
H7 C12 1_555 1_555
H8 C13 1_555 1_555
H9 C14 1_555 1_555
H10 C15 1_555 1_555
H11 C17 1_555 1_555
H12 C18 1_555 1_555
H16 C25 1_555 1_555
H17 C26 1_555 1_555
H18 C27 1_555 1_555
H19 C28 1_555 1_555
H20 C29 1_555 1_555
H21 C31 1_555 1_555
H22 C32 1_555 1_555
H23 C33 1_555 1_555
H24 C34 1_555 1_555
H25 C35 1_555 1_555
H26 C38 1_555 1_555
H27 C39 1_555 1_555
H28 C40 1_555 1_555
H29 C41 1_555 1_555
H30 C42 1_555 1_555
C43 C1 1_555 1_555
S7 C43 1_555 1_555
Ag3 S7 1_555 1_555
S8 Ag3 1_555 1_555
Ag4 S8 1_555 1_555
S9 Ag4 1_555 1_555
C44 C3 1_555 1_555
C45 C43 1_555 1_555
C46 S8 1_555 1_555
C47 C46 1_555 1_555
C48 C47 1_555 1_555
C49 C48 1_555 1_555
C50 C49 1_555 1_555
C51 C46 1_555 1_555
H31 C51 1_555 1_555
H32 C50 1_555 1_555
H33 C49 1_555 1_555
H34 C48 1_555 1_555
H35 C47 1_555 1_555
Ag5 S4 1_555 1_555
S10 Ag2 1_555 1_555
C52 C22 1_555 1_555
S11 C24 1_555 1_555
Ag6 S11 1_555 1_555
S12 Ag6 1_555 1_555
S13 Ag6 1_555 1_555
S14 Ag6 1_555 1_555
Ag7 S14 1_555 1_555
S15 Ag7 1_555 1_555
S16 Ag7 1_555 1_555
S17 Ag7 1_555 1_555
C53 C36 1_555 1_555
C54 C52 1_555 1_555
C55 S14 1_555 1_555
C56 C55 1_555 1_555
C57 C56 1_555 1_555
C58 C57 1_555 1_555
C59 C58 1_555 1_555
C60 C55 1_555 1_555
H36 C60 1_555 1_555
H37 C59 1_555 1_555
H38 C58 1_555 1_555
H40 C56 1_555 1_555
C61 S17 1_555 1_555
C62 C61 1_555 1_555
C63 C62 1_555 1_555
C64 C63 1_555 1_555
C65 C64 1_555 1_555
C66 C61 1_555 1_555
H41 C66 1_555 1_555
H42 C65 1_555 1_555
H43 C64 1_555 1_555
H44 C63 1_555 1_555
H45 C62 1_555 1_555
C67 S4 1_555 1_555
C68 C67 1_555 1_555
C69 C68 1_555 1_555
C70 C69 1_555 1_555
C71 C70 1_555 1_555
C72 C67 1_555 1_555
H46 C72 1_555 1_555
H47 C71 1_555 1_555
H48 C70 1_555 1_555
H49 C69 1_555 1_555
H50 C68 1_555 1_555
S18 Ag2 1_555 1_555
C73 S9 1_555 1_555
C74 C73 1_555 1_555
C75 C74 1_555 1_555
C76 C75 1_555 1_555
C78 C73 1_555 1_555
H54 C75 1_555 1_555
H55 C74 1_555 1_555
C79 S7 1_555 1_555
C80 C79 1_555 1_555
C81 C80 1_555 1_555
C82 C81 1_555 1_555
C83 C82 1_555 1_555
C84 C79 1_555 1_555
H56 C84 1_555 1_555
H57 C83 1_555 1_555
H58 C82 1_555 1_555
H59 C81 1_555 1_555
H60 C80 1_555 1_555
S5 Ag5 1_555 1_555
C2 C3 1_555 1_555
C8 C9 1_555 1_555
C14 C15 1_555 1_555
C23 C36 1_555 1_555
C34 C35 1_555 1_555
C41 C42 1_555 1_555
S8 C45 1_555 1_555
S9 C44 1_555 1_555
C44 C45 1_555 1_555
C50 C51 1_555 1_555
C52 S11 1_555 1_555
S14 C54 1_555 1_555
S17 C53 1_555 1_555
C53 C54 1_555 1_555
C59 C60 1_555 1_555
C65 C66 1_555 1_555
C71 C72 1_555 1_555
C83 C84 1_555 1_555
S4_2 C22_2 1_555 1_555
C22_2 C23_2 1_555 1_555
C23_2 S5_2 1_555 1_555
C24_2 C25_2 1_555 1_555
C25_2 C26_2 1_555 1_555
C26_2 C27_2 1_555 1_555
C27_2 C28_2 1_555 1_555
C28_2 C29_2 1_555 1_555
C29_2 C24_2 1_555 1_555
C30_2 S5_2 1_555 1_555
C31_2 C30_2 1_555 1_555
C32_2 C31_2 1_555 1_555
C33_2 C32_2 1_555 1_555
C34_2 C33_2 1_555 1_555
C35_2 C30_2 1_555 1_555
H16_2 C25_2 1_555 1_555
H17_2 C26_2 1_555 1_555
H18_2 C27_2 1_555 1_555
H19_2 C28_2 1_555 1_555
H20_2 C29_2 1_555 1_555
H21_2 C31_2 1_555 1_555
H23_2 C33_2 1_555 1_555
H24_2 C34_2 1_555 1_555
H25_2 C35_2 1_555 1_555
Ag5_2 S4_2 1_555 1_555
C52_2 C22_2 1_555 1_555
S11_2 C24_2 1_555 1_555
Ag6_2 S11_2 1_555 1_555
S12_2 Ag6_2 1_555 1_555
S13_2 Ag6_2 1_555 1_555
S14_2 Ag6_2 1_555 1_555
C54_2 C52_2 1_555 1_555
C55_2 S14_2 1_555 1_555
C56_2 C55_2 1_555 1_555
C57_2 C56_2 1_555 1_555
C58_2 C57_2 1_555 1_555
C59_2 C58_2 1_555 1_555
C60_2 C55_2 1_555 1_555
H36_2 C60_2 1_555 1_555
H37_2 C59_2 1_555 1_555
H38_2 C58_2 1_555 1_555
H39_2 C57_2 1_555 1_555
H40_2 C56_2 1_555 1_555
C67_2 S4_2 1_555 1_555
C68_2 C67_2 1_555 1_555
C69_2 C68_2 1_555 1_555
C70_2 C69_2 1_555 1_555
C71_2 C70_2 1_555 1_555
C72_2 C67_2 1_555 1_555
H46_2 C72_2 1_555 1_555
H47_2 C71_2 1_555 1_555
H48_2 C70_2 1_555 1_555
H49_2 C69_2 1_555 1_555
H50_2 C68_2 1_555 1_555
S5_2 Ag5_2 1_555 1_555
C34_2 C35_2 1_555 1_555
C52_2 S11_2 1_555 1_555
S14_2 C54_2 1_555 1_555
C59_2 C60_2 1_555 1_555
C71_2 C72_2 1_555 1_555
C7_2 C6_2 1_555 1_555
C8_2 C7_2 1_555 1_555
H2_2 C6_2 1_555 1_555
H3_2 C7_2 1_555 1_555
H4_2 C8_2 1_555 1_555
H5_2 C9_2 1_555 1_555
S15 C43_2 1_555 1_555
Ag4_2 S16 1_555 1_555
S9_2 Ag4_2 1_555 1_555
C45_2 C43_2 1_555 1_555
C46_2 S16 1_555 1_555
C47_2 C46_2 1_555 1_555
C48_2 C47_2 1_555 1_555
C49_2 C48_2 1_555 1_555
C50_2 C49_2 1_555 1_555
C51_2 C46_2 1_555 1_555
H31_2 C51_2 1_555 1_555
H32_2 C50_2 1_555 1_555
H33_2 C49_2 1_555 1_555
H34_2 C48_2 1_555 1_555
H35_2 C47_2 1_555 1_555
C73_2 S9_2 1_555 1_555
C74_2 C73_2 1_555 1_555
C75_2 C74_2 1_555 1_555
C76_2 C75_2 1_555 1_555
C78_2 C73_2 1_555 1_555
H54_2 C75_2 1_555 1_555
H55_2 C74_2 1_555 1_555
C79_2 S15 1_555 1_555
C80_2 C79_2 1_555 1_555
H60_2 C80_2 1_555 1_555
C8_2 C9_2 1_555 1_555
S16 C45_2 1_555 1_555
S9_2 C44_2 1_555 1_555
C44_2 C45_2 1_555 1_555
C50_2 C51_2 1_555 1_555
Ag1_2 S1_2 1_555 1_555
Ag2_2 S2_2 1_555 1_555
S1_2 C1_2 1_555 1_555
S2_2 Ag1_2 1_555 1_555
S3_2 Ag2_2 1_555 1_555
S6_2 Ag1_2 1_555 1_555
C1_2 C2_2 1_555 1_555
C2_2 S2_2 1_555 1_555
C3_2 S3_2 1_555 1_555
C4_2 S1_2 1_555 1_555
C5_2 C4_2 1_555 1_555
C10_2 S2_2 1_555 1_555
C11_2 C10_2 1_555 1_555
C12_2 C11_2 1_555 1_555
C13_2 C12_2 1_555 1_555
C14_2 C13_2 1_555 1_555
C15_2 C10_2 1_555 1_555
C16_2 S3_2 1_555 1_555
C17_2 C16_2 1_555 1_555
C18_2 C17_2 1_555 1_555
C19_2 C18_2 1_555 1_555
C21_2 C16_2 1_555 1_555
C36_2 S6_2 1_555 1_555
C37_2 S6_2 1_555 1_555
C38_2 C37_2 1_555 1_555
C39_2 C38_2 1_555 1_555
C40_2 C39_2 1_555 1_555
C41_2 C40_2 1_555 1_555
C42_2 C37_2 1_555 1_555
H1_2 C5_2 1_555 1_555
H6_2 C11_2 1_555 1_555
H7_2 C12_2 1_555 1_555
H8_2 C13_2 1_555 1_555
H9_2 C14_2 1_555 1_555
H10_2 C15_2 1_555 1_555
H11_2 C17_2 1_555 1_555
H12_2 C18_2 1_555 1_555
H26_2 C38_2 1_555 1_555
H27_2 C39_2 1_555 1_555
H28_2 C40_2 1_555 1_555
H29_2 C41_2 1_555 1_555
H30_2 C42_2 1_555 1_555
S10_2 Ag2_2 1_555 1_555
S17_2 Ag3 1_555 1_555
C53_2 C36_2 1_555 1_555
C61_2 S17_2 1_555 1_555
C62_2 C61_2 1_555 1_555
C63_2 C62_2 1_555 1_555
C64_2 C63_2 1_555 1_555
C65_2 C64_2 1_555 1_555
C66_2 C61_2 1_555 1_555
H41_2 C66_2 1_555 1_555
H42_2 C65_2 1_555 1_555
H43_2 C64_2 1_555 1_555
H44_2 C63_2 1_555 1_555
H45_2 C62_2 1_555 1_555
S18_2 Ag2_2 1_555 1_555
C82_2 C81_2 1_555 1_555
C83_2 C82_2 1_555 1_555
H56_2 C84_2 1_555 1_555
H57_2 C83_2 1_555 1_555
H58_2 C82_2 1_555 1_555
H59_2 C81_2 1_555 1_555
C2_2 C3_2 1_555 1_555
C14_2 C15_2 1_555 1_555
C41_2 C42_2 1_555 1_555
S17_2 C53_2 1_555 1_555
C65_2 C66_2 1_555 1_555
C83_2 C84_2 1_555 1_555
Ag1_3 S1_3 1_555 1_555
S1_3 C1_3 1_555 1_555
S12_2 Ag1_3 1_555 1_555
S6_3 Ag1_3 1_555 1_555
C1_3 C2_3 1_555 1_555
C2_3 S12_2 1_555 1_555
C3_3 S13_2 1_555 1_555
C4_3 S1_3 1_555 1_555
C9_3 C4_3 1_555 1_555
C10_3 S12_2 1_555 1_555
C11_3 C10_3 1_555 1_555
C12_3 C11_3 1_555 1_555
C13_3 C12_3 1_555 1_555
C14_3 C13_3 1_555 1_555
C15_3 C10_3 1_555 1_555
C16_3 S13_2 1_555 1_555
C17_3 C16_3 1_555 1_555
C18_3 C17_3 1_555 1_555
C19_3 C18_3 1_555 1_555
C20 C19_3 1_555 1_555
C21_3 C16_3 1_555 1_555
C36_3 S6_3 1_555 1_555
H4_3 C8_3 1_555 1_555
H5_3 C9_3 1_555 1_555
H6_3 C11_3 1_555 1_555
H7_3 C12_3 1_555 1_555
H8_3 C13_3 1_555 1_555
H9_3 C14_3 1_555 1_555
H10_3 C15_3 1_555 1_555
H11_3 C17_3 1_555 1_555
H12_3 C18_3 1_555 1_555
H13 C19_3 1_555 1_555
H14 C20 1_555 1_555
H15 C21_3 1_555 1_555
C43_3 C1_3 1_555 1_555
S7_2 C43_3 1_555 1_555
Ag3_2 S7_2 1_555 1_555
S8_2 Ag3_2 1_555 1_555
Ag5 S8_2 1_555 1_555
S9_3 Ag5 1_555 1_555
C44_3 C3_3 1_555 1_555
C45_3 C43_3 1_555 1_555
C46_3 S8_2 1_555 1_555
C47_3 C46_3 1_555 1_555
C48_3 C47_3 1_555 1_555
C49_3 C48_3 1_555 1_555
C50_3 C49_3 1_555 1_555
C51_3 C46_3 1_555 1_555
H31_3 C51_3 1_555 1_555
H32_3 C50_3 1_555 1_555
H33_3 C49_3 1_555 1_555
H34_3 C48_3 1_555 1_555
H35_3 C47_3 1_555 1_555
C62_3 C61_3 1_555 1_555
C63_3 C62_3 1_555 1_555
C64_3 C63_3 1_555 1_555
C65_3 C64_3 1_555 1_555
C66_3 C61_3 1_555 1_555
H41_3 C66_3 1_555 1_555
H42_3 C65_3 1_555 1_555
H43_3 C64_3 1_555 1_555
H44_3 C63_3 1_555 1_555
C73_3 S9_3 1_555 1_555
C74_3 C73_3 1_555 1_555
C75_3 C74_3 1_555 1_555
C76_3 C75_3 1_555 1_555
C77 C76_3 1_555 1_555
C78_3 C73_3 1_555 1_555
H51 C78_3 1_555 1_555
H52 C77 1_555 1_555
H53 C76_3 1_555 1_555
H54_3 C75_3 1_555 1_555
H55_3 C74_3 1_555 1_555
C79_3 S7_2 1_555 1_555
C84_3 C79_3 1_555 1_555
H56_3 C84_3 1_555 1_555
H57_3 C83_3 1_555 1_555
C2_3 C3_3 1_555 1_555
C8_3 C9_3 1_555 1_555
C14_3 C15_3 1_555 1_555
C20 C21_3 1_555 1_555
S8_2 C45_3 1_555 1_555
S9_3 C44_3 1_555 1_555
C44_3 C45_3 1_555 1_555
C50_3 C51_3 1_555 1_555
C65_3 C66_3 1_555 1_555
C77 C78_3 1_555 1_555
C83_3 C84_3 1_555 1_555
C6_3 C5_3 1_555 1_555
C7_3 C6_3 1_555 1_555
C38_3 C37_3 1_555 1_555
C39_3 C38_3 1_555 1_555
C40_3 C39_3 1_555 1_555
C41_3 C40_3 1_555 1_555
C42_3 C37_3 1_555 1_555
H1_3 C5_3 1_555 1_555
H2_3 C6_3 1_555 1_555
H3_3 C7_3 1_555 1_555
H27_3 C39_3 1_555 1_555
H28_3 C40_3 1_555 1_555
H29_3 C41_3 1_555 1_555
H30_3 C42_3 1_555 1_555
S15_2 Ag7_2 1_555 1_555
S16_2 Ag7_2 1_555 1_555
S17_3 Ag7_2 1_555 1_555
C81_3 C80_3 1_555 1_555
C82_3 C81_3 1_555 1_555
H58_3 C82_3 1_555 1_555
H59_3 C81_3 1_555 1_555
H60_3 C80_3 1_555 1_555
C41_3 C42_3 1_555 1_555
S17_3 C53_3 1_555 1_555
S4_3 C22_3 1_555 1_555
C22_3 C23_3 1_555 1_555
C23_3 S5_3 1_555 1_555
C30_3 S5_3 1_555 1_555
C31_3 C30_3 1_555 1_555
H21_3 C31_3 1_555 1_555
Ag4 S4_3 1_555 1_555
C58_3 C57_3 1_555 1_555
C59_3 C58_3 1_555 1_555
H36_3 C60_3 1_555 1_555
H37_3 C59_3 1_555 1_555
H38_3 C58_3 1_555 1_555
C67_3 S4_3 1_555 1_555
C68_3 C67_3 1_555 1_555
C69_3 C68_3 1_555 1_555
C70_3 C69_3 1_555 1_555
C71_3 C70_3 1_555 1_555
C72_3 C67_3 1_555 1_555
H46_3 C72_3 1_555 1_555
H47_3 C71_3 1_555 1_555
H48_3 C70_3 1_555 1_555
H49_3 C69_3 1_555 1_555
H50_3 C68_3 1_555 1_555
S5_3 Ag4 1_555 1_555
C59_3 C60_3 1_555 1_555
C71_3 C72_3 1_555 1_555
C24_3 C25_3 1_555 1_555
C25_3 C26_3 1_555 1_555
C26_3 C27_3 1_555 1_555
C27_3 C28_3 1_555 1_555
C28_3 C29_3 1_555 1_555
C29_3 C24_3 1_555 1_555
C33_3 C32_3 1_555 1_555
C34_3 C33_3 1_555 1_555
H16_3 C25_3 1_555 1_555
H17_3 C26_3 1_555 1_555
H18_3 C27_3 1_555 1_555
H19_3 C28_3 1_555 1_555
H20_3 C29_3 1_555 1_555
H22_2 C32_3 1_555 1_555
H23_3 C33_3 1_555 1_555
H24_3 C34_3 1_555 1_555
H25_3 C35_3 1_555 1_555
S10_2 C24_3 1_555 1_555
C54_3 C52_3 1_555 1_555
C55_3 S18_2 1_555 1_555
C56_3 C55_3 1_555 1_555
H40_3 C56_3 1_555 1_555
C34_3 C35_3 1_555 1_555
C52_3 S10_2 1_555 1_555
S18_2 C54_3 1_555 1_555
C24_4 C25_4 1_555 1_555
C25_4 C26_4 1_555 1_555
C26_4 C27_4 1_555 1_555
C27_4 C28_4 1_555 1_555
C28_4 C29_4 1_555 1_555
C29_4 C24_4 1_555 1_555
C33_4 C32_4 1_555 1_555
C34_4 C33_4 1_555 1_555
C38_4 C37_4 1_555 1_555
C39_4 C38_4 1_555 1_555
C40_4 C39_4 1_555 1_555
C41_4 C40_4 1_555 1_555
C42_4 C37_4 1_555 1_555
H1_4 C5_4 1_555 1_555
H16_4 C25_4 1_555 1_555
H17_4 C26_4 1_555 1_555
H18_4 C27_4 1_555 1_555
H19_4 C28_4 1_555 1_555
H20_4 C29_4 1_555 1_555
H23_4 C33_4 1_555 1_555
H24_4 C34_4 1_555 1_555
H25_4 C35_4 1_555 1_555
H27_4 C39_4 1_555 1_555
H28_4 C40_4 1_555 1_555
H29_4 C41_4 1_555 1_555
H30_4 C42_4 1_555 1_555
S10 C24_4 1_555 1_555
Ag3_2 S18 1_555 1_555
S17_4 Ag3_2 1_555 1_555
C54_4 C52_4 1_555 1_555
C55_4 S18 1_555 1_555
C56_4 C55_4 1_555 1_555
H40_4 C56_4 1_555 1_555
C82_4 C81_4 1_555 1_555
H58_4 C82_4 1_555 1_555
H59_4 C81_4 1_555 1_555
C34_4 C35_4 1_555 1_555
C41_4 C42_4 1_555 1_555
C52_4 S10 1_555 1_555
S18 C54_4 1_555 1_555
S17_4 C53_4 1_555 1_555
C53_4 C54_4 1_555 1_555
C7_4 C6_4 1_555 1_555
H2_4 C6_4 1_555 1_555
H3_4 C7_4 1_555 1_555
H60_4 C80_4 1_555 1_555
Ag1_4 S1_4 1_555 1_555
S1_4 C1_4 1_555 1_555
S12 Ag1_4 1_555 1_555
S4_4 C22_4 1_555 1_555
S5_4 Ag1_4 1_555 1_555
S6_4 Ag1_4 1_555 1_555
C1_4 C2_4 1_555 1_555
C2_4 S12 1_555 1_555
C3_4 S13 1_555 1_555
C4_4 S1_4 1_555 1_555
C10_4 S12 1_555 1_555
C11_4 C10_4 1_555 1_555
C12_4 C11_4 1_555 1_555
C13_4 C12_4 1_555 1_555
C14_4 C13_4 1_555 1_555
C15_4 C10_4 1_555 1_555
C16_4 S13 1_555 1_555
C17_4 C16_4 1_555 1_555
C18_4 C17_4 1_555 1_555
C19_4 C18_4 1_555 1_555
C20_2 C19_4 1_555 1_555
C21_4 C16_4 1_555 1_555
C22_4 C23_4 1_555 1_555
C23_4 S5_4 1_555 1_555
C30_4 S5_4 1_555 1_555
C31_4 C30_4 1_555 1_555
C36_4 S6_4 1_555 1_555
H6_4 C11_4 1_555 1_555
H7_4 C12_4 1_555 1_555
H8_4 C13_4 1_555 1_555
H9_4 C14_4 1_555 1_555
H10_4 C15_4 1_555 1_555
H11_4 C17_4 1_555 1_555
H12_4 C18_4 1_555 1_555
H13_2 C19_4 1_555 1_555
H14_2 C20_2 1_555 1_555
H15_2 C21_4 1_555 1_555
H21_4 C31_4 1_555 1_555
Ag4_2 S4_4 1_555 1_555
C58_4 C57_4 1_555 1_555
C59_4 C58_4 1_555 1_555
H36_4 C60_4 1_555 1_555
H37_4 C59_4 1_555 1_555
H38_4 C58_4 1_555 1_555
H39_3 C57_4 1_555 1_555
C62_4 C61_4 1_555 1_555
C63_4 C62_4 1_555 1_555
C64_4 C63_4 1_555 1_555
C65_4 C64_4 1_555 1_555
C66_4 C61_4 1_555 1_555
H41_4 C66_4 1_555 1_555
H42_4 C65_4 1_555 1_555
H43_4 C64_4 1_555 1_555
H44_4 C63_4 1_555 1_555
C67_4 S4_4 1_555 1_555
C68_4 C67_4 1_555 1_555
C69_4 C68_4 1_555 1_555
C70_4 C69_4 1_555 1_555
C71_4 C70_4 1_555 1_555
C72_4 C67_4 1_555 1_555
H46_4 C72_4 1_555 1_555
H47_4 C71_4 1_555 1_555
H48_4 C70_4 1_555 1_555
H49_4 C69_4 1_555 1_555
H50_4 C68_4 1_555 1_555
H56_4 C84_4 1_555 1_555
H57_4 C83_4 1_555 1_555
S5_4 Ag4_2 1_555 1_555
C2_4 C3_4 1_555 1_555
C14_4 C15_4 1_555 1_555
C20_2 C21_4 1_555 1_555
C23_4 C36_4 1_555 1_555
C59_4 C60_4 1_555 1_555
C65_4 C66_4 1_555 1_555
C71_4 C72_4 1_555 1_555
C83_4 C84_4 1_555 1_555
H4_4 C8_4 1_555 1_555
H5_4 C9_4 1_555 1_555
S15_2 C43_4 1_555 1_555
Ag5_2 S16_2 1_555 1_555
S9_4 Ag5_2 1_555 1_555
C45_4 C43_4 1_555 1_555
C46_4 S16_2 1_555 1_555
C47_4 C46_4 1_555 1_555
C48_4 C47_4 1_555 1_555
C49_4 C48_4 1_555 1_555
C50_4 C49_4 1_555 1_555
C51_4 C46_4 1_555 1_555
H31_4 C51_4 1_555 1_555
H32_4 C50_4 1_555 1_555
H33_4 C49_4 1_555 1_555
H34_4 C48_4 1_555 1_555
H35_4 C47_4 1_555 1_555
C73_4 S9_4 1_555 1_555
C74_4 C73_4 1_555 1_555
C75_4 C74_4 1_555 1_555
C76_4 C75_4 1_555 1_555
C77_2 C76_4 1_555 1_555
C78_4 C73_4 1_555 1_555
H51_2 C78_4 1_555 1_555
H52_2 C77_2 1_555 1_555
H53_2 C76_4 1_555 1_555
H54_4 C75_4 1_555 1_555
H55_4 C74_4 1_555 1_555
C79_4 S15_2 1_555 1_555
C8_4 C9_4 1_555 1_555
S16_2 C45_4 1_555 1_555
S9_4 C44_4 1_555 1_555
C44_4 C45_4 1_555 1_555
C50_4 C51_4 1_555 1_555
C77_2 C78_4 1_555 1_555
H14_3 C20_3 1_555 1_555
H52_3 C77_3 1_555 1_555
H52_4 C77_4 1_555 1_555
H14_4 C20_4 1_555 1_555
F2 P1 1_555 1_555
F3 P1 1_555 1_555
F4 P1 1_555 1_555
F4_2 P1_2 1_555 1_555
F5 P1_2 1_555 1_555
F6 P1_2 1_555 1_555
P1_3 F1_3 1_555 1_555
F4_3 P1_3 1_555 1_555
F5_2 P1_3 1_555 1_555
F6_2 P1_3 1_555 1_555
P1_4 F1_4 1_555 1_555
F2_2 P1_4 1_555 1_555
F3_2 P1_4 1_555 1_555
F4_4 P1_4 1_555 1_555
P1_5 F1_5 1_555 1_555
F2_3 P1_5 1_555 1_555
F3_3 P1_5 1_555 1_555
F4_5 P1_5 1_555 1_555
F5_3 P1_5 1_555 1_555
F6_3 P1_5 1_555 1_555
F2_4 P1_6 1_555 1_555
F3_4 P1_6 1_555 1_555
F4_6 P1_6 1_555 1_555
F5_4 P1_6 1_555 1_555
F6_4 P1_6 1_555 1_555
P2 F7 1_555 1_555
F8 P2 1_555 1_555
F9 P2 1_555 1_555
F10 P2 1_555 1_555
F11 P2 1_555 1_555
F12 P2 1_555 1_555
F11_2 P2_2 1_555 1_555
F12_2 P2_2 1_555 1_555
F8_2 P2_3 1_555 1_555
F9_2 P2_3 1_555 1_555
F8_3 P2_4 1_555 1_555
F9_3 P2_4 1_555 1_555
F10_3 P2_4 1_555 1_555
P2_5 F7_3 1_555 1_555
F11_3 P2_5 1_555 1_555
F12_3 P2_5 1_555 1_555
F8_4 P2_6 1_555 1_555
F9_4 P2_6 1_555 1_555
F11_4 P2_6 1_555 1_555
F12_4 P2_6 1_555 1_555
P3 F13 1_555 1_555
F14 P3 1_555 1_555
F15 P3 1_555 1_555
F16 P3 1_555 1_555
P3_2 F13_2 1_555 1_555
F16_2 P3_2 1_555 1_555
F17 P3_2 1_555 1_555
F18 P3_2 1_555 1_555
P3_3 F13_3 1_555 1_555
F14_2 P3_3 1_555 1_555
F15_2 P3_3 1_555 1_555
F16_3 P3_3 1_555 1_555
F17_2 P3_3 1_555 1_555
F18_2 P3_3 1_555 1_555
P3_4 F13_4 1_555 1_555
F16_4 P3_4 1_555 1_555
F17_3 P3_4 1_555 1_555
F18_3 P3_4 1_555 1_555
P3_5 F13_5 1_555 1_555
F14_3 P3_5 1_555 1_555
F15_3 P3_5 1_555 1_555
F16_5 P3_5 1_555 1_555
P3_6 F13_6 1_555 1_555
F14_4 P3_6 1_555 1_555
F15_4 P3_6 1_555 1_555
F16_6 P3_6 1_555 1_555
F17_4 P3_6 1_555 1_555
F18_4 P3_6 1_555 1_555
P4 F19 1_555 1_555
F20 P4 1_555 1_555
F21 P4 1_555 1_555
F22 P4 1_555 1_555
F23 P4 1_555 1_555
F24 P4 1_555 1_555
P4_2 F19_2 1_555 1_555
F22_2 P4_2 1_555 1_555
F23_2 P4_2 1_555 1_555
F24_2 P4_2 1_555 1_555
P4_3 F19_3 1_555 1_555
F20_2 P4_3 1_555 1_555
F21_2 P4_3 1_555 1_555
F22_3 P4_3 1_555 1_555
P4_4 F19_4 1_555 1_555
F20_3 P4_4 1_555 1_555
F21_3 P4_4 1_555 1_555
F22_4 P4_4 1_555 1_555
P4_5 F19_5 1_555 1_555
F22_5 P4_5 1_555 1_555
F23_3 P4_5 1_555 1_555
F24_3 P4_5 1_555 1_555
P4_6 F19_6 1_555 1_555
F20_4 P4_6 1_555 1_555
F21_4 P4_6 1_555 1_555
F22_6 P4_6 1_555 1_555
F23_4 P4_6 1_555 1_555
F24_4 P4_6 1_555 1_555

#END
