
###############################################################################
#
# This file contains modified crystal structure data generated from the
# MOF subset of the Cambridge Structural Database (CSD) v543 
# hosted by the Cambridge Crystallographic Data Centre (CCDC).
#
# This work is licensed under the Creative Commons
# Attribution-NonCommercial-ShareAlike 4.0 International License.
# To view a copy of this license, visit
# http://creativecommons.org/licenses/by-nc-sa/4.0/
# or send a letter to
# Creative Commons, PO Box 1866, Mountain View, CA 94042, USA.
#
# CIF created using the CSD Python API on 29 September 2022
# The structure has been converted into the P1 space group
# The structure has a 3D framework
# The original CSD entry XANXUF is in the tetragonal crystal system
# The framework has been calculated to contain at least 10.0% void space
# The void calculation uses a probe of radius 1.32A, grid spacing 0.4
# The framework is charged, counterions have been retained in the structure
#
###############################################################################

data_XANXUF
_chemical_formula_moiety         '(C112 H64 B6 Cu4 F16 N16 2-)n'
_symmetry_cell_setting           triclinic
_symmetry_space_group_name_H-M   'P 1'
_symmetry_Int_Tables_number      1
_space_group_name_Hall           'P 1'
loop_
_symmetry_equiv_pos_site_id
_symmetry_equiv_pos_as_xyz
1 x,y,z
_cell_length_a                   10.626(3)
_cell_length_b                   10.626(3)
_cell_length_c                   25.718(3)
_cell_angle_alpha                90
_cell_angle_beta                 90
_cell_angle_gamma                90
_cell_volume                     2903.87
loop_
_atom_site_label
_atom_site_type_symbol
_atom_site_fract_x
_atom_site_fract_y
_atom_site_fract_z
N1 N 0.0395(6) 0.0883(6) 0.1668(2)
C1 C 0.1330(8) 0.0113(8) 0.1541(3)
H1 H 0.1755 0.0287 0.1225
Cu2 Cu 0.0000 0.2500 0.1250
Cu1 Cu 0.5000 0.2500 0.3750
C5 C 0.9828(7) 0.0618(7) 0.2135(3)
C6 C 0.8822(8) 0.1437(8) 0.2290(3)
C7 C 0.7976(8) 0.2104(8) 0.2424(3)
C8 C 0.7024(8) 0.2896(8) 0.2576(3)
C9 C 0.6178(8) 0.3563(8) 0.2710(3)
C10 C 0.5172(7) 0.4382(7) 0.2865(3)
N2 N 0.4605(6) 0.4117(6) 0.3332(2)
Cu2_2 Cu 1.0000 0.2500 0.1250
N3 N 0.6617(6) 0.2895(6) 0.4168(2)
C11 C 0.7387(8) 0.3830(8) 0.4041(3)
C12 C 0.8383(9) 0.4237(9) 0.4311(4)
C13 C 0.8629(10) 0.368(1) 0.4780(5)
C14 C 0.7838(9) 0.2720(10) 0.4954(4)
C15 C 0.6882(7) 0.2328(7) 0.4635(3)
C16 C 0.6063(8) 0.1322(8) 0.4790(3)
C17 C 0.5396(8) 0.0476(8) 0.4924(3)
H9 H 0.7959 0.2346 0.5286
H10 H 0.9325 0.3946 0.4984
H11 H 0.8904 0.4892 0.4181
H12 H 0.7213 0.4255 0.3725
N5 N 0.3383(6) 0.2105(6) 0.4168(2)
N6 N 0.5395(6) 0.0883(6) 0.3332(2)
C25 C 0.3670(8) 0.4887(8) 0.3459(3)
C26 C 0.3263(9) 0.5883(9) 0.3189(4)
C27 C 0.382(1) 0.6129(10) 0.2720(5)
C28 C 0.4780(10) 0.5338(9) 0.2546(4)
H13 H 0.5154 0.5459 0.2214
H14 H 0.3554 0.6825 0.2516
H15 H 0.2608 0.6404 0.3319
H16 H 0.3245 0.4713 0.3775
H4 H 0.9846 0.9541 0.2786
C18 C 0.4604(8) 0.9524(8) 0.5076(3)
C19 C 0.3937(8) 0.8678(8) 0.5210(3)
C20 C 0.3118(7) 0.7672(7) 0.5365(3)
N4 N 0.3383(6) 0.7105(6) 0.5832(2)
Cu3 Cu 0.5000 0.7500 0.6250
C21 C 0.2613(8) 0.6170(8) 0.5959(3)
C22 C 0.1617(9) 0.5763(9) 0.5689(4)
C23 C 0.1371(10) 0.632(1) 0.5220(5)
C24 C 0.2162(9) 0.7280(10) 0.5046(4)
H5 H 0.2041 0.7654 0.4714
H6 H 0.0675 0.6054 0.5016
H7 H 0.1096 0.5108 0.5819
H8 H 0.2787 0.5745 0.6275
N4_2 N 0.0395(6) 0.5883(6) 0.8332(2)
Cu3_2 Cu 0.0000 0.7500 0.8750
C21_2 C 0.1330(8) 0.5113(8) 0.8459(3)
C22_2 C 0.1737(9) 0.4117(9) 0.8189(4)
C23_2 C 0.118(1) 0.3871(10) 0.7720(5)
C24_2 C 0.0220(10) 0.4662(9) 0.7546(4)
H6_2 H 0.1446 0.3175 0.7516
H7_2 H 0.2392 0.3596 0.8319
H8_2 H 0.1755 0.5287 0.8775
C12_2 C 0.3263(9) 0.0883(9) 0.6811(4)
C13_2 C 0.382(1) 0.1129(10) 0.7280(5)
C14_2 C 0.4780(10) 0.0338(9) 0.7454(4)
H9_2 H 0.5154 0.0459 0.7786
H10_2 H 0.3554 0.1825 0.7484
H11_2 H 0.2608 0.1404 0.6681
N3_2 N 0.4605(6) 0.9117(6) 0.6668(2)
C11_2 C 0.3670(8) 0.9887(8) 0.6541(3)
C15_2 C 0.5172(7) 0.9382(7) 0.7135(3)
C16_2 C 0.6178(8) 0.8563(8) 0.7290(3)
C17_2 C 0.7024(8) 0.7896(8) 0.7424(3)
C18_2 C 0.7976(8) 0.7104(8) 0.7576(3)
C19_2 C 0.8822(8) 0.6437(8) 0.7710(3)
C20_2 C 0.9828(7) 0.5618(7) 0.7865(3)
Cu3_3 Cu 1.0000 0.7500 0.8750
H5_2 H 0.9846 0.4541 0.7214
H12_2 H 0.3245 0.9713 0.6225
N5_2 N 0.5395(6) 0.5883(6) 0.6668(2)
N6_2 N 0.6617(6) 0.7895(6) 0.5832(2)
H5_3 H 0.0154 0.0459 0.7214
C1_2 C 0.2613(8) 0.1170(8) 0.4041(3)
C2 C 0.1617(9) 0.0763(9) 0.4311(4)
C3 C 0.1371(10) 0.132(1) 0.4780(5)
C4 C 0.2162(9) 0.2280(10) 0.4954(4)
C5_2 C 0.3118(7) 0.2672(7) 0.4635(3)
C6_2 C 0.3937(8) 0.3678(8) 0.4790(3)
C7_2 C 0.4604(8) 0.4524(8) 0.4924(3)
H1_2 H 0.2787 0.0745 0.3725
H2 H 0.1096 0.0108 0.4181
H3 H 0.0675 0.1054 0.4984
H4_2 H 0.2041 0.2654 0.5286
C8_2 C 0.5396(8) 0.5476(8) 0.5076(3)
C9_2 C 0.6063(8) 0.6322(8) 0.5210(3)
C10_2 C 0.6882(7) 0.7328(7) 0.5365(3)
C11_3 C 0.6330(8) 0.5113(8) 0.6541(3)
C12_3 C 0.6737(9) 0.4117(9) 0.6811(4)
C13_3 C 0.618(1) 0.3871(10) 0.7280(5)
C14_3 C 0.5220(10) 0.4662(9) 0.7454(4)
C15_3 C 0.4828(7) 0.5618(7) 0.7135(3)
C16_3 C 0.3822(8) 0.6437(8) 0.7290(3)
C17_3 C 0.2976(8) 0.7104(8) 0.7424(3)
C18_3 C 0.2024(8) 0.7896(8) 0.7576(3)
C19_3 C 0.1178(8) 0.8563(8) 0.7710(3)
C20_3 C 0.0172(7) 0.9382(7) 0.7865(3)
H9_3 H 0.4846 0.4541 0.7786
H10_3 H 0.6446 0.3175 0.7484
H11_3 H 0.7392 0.3596 0.6681
H12_3 H 0.6755 0.5287 0.6225
C25_2 C 0.7387(8) 0.8830(8) 0.5959(3)
C26_2 C 0.8383(9) 0.9237(9) 0.5689(4)
C27_2 C 0.8629(10) 0.868(1) 0.5220(5)
C28_2 C 0.7838(9) 0.7720(10) 0.5046(4)
H13_2 H 0.7959 0.7346 0.4714
H14_2 H 0.9325 0.8946 0.5016
H15_2 H 0.8904 0.9892 0.5819
H16_2 H 0.7213 0.9255 0.6275
N4_3 N 0.9605(6) 0.9117(6) 0.8332(2)
C21_3 C 0.8670(8) 0.9887(8) 0.8459(3)
H8_3 H 0.8245 0.9713 0.8775
H13_3 H 0.2959 0.7346 0.0286
C8_3 C 0.0396(8) 0.5476(8) 0.9924(3)
C9_3 C 0.1063(8) 0.6322(8) 0.9790(3)
C10_3 C 0.1882(7) 0.7328(7) 0.9635(3)
N2_2 N 0.1617(6) 0.7895(6) 0.9168(2)
C25_3 C 0.2387(8) 0.8830(8) 0.9041(3)
C26_3 C 0.3383(9) 0.9237(9) 0.9311(4)
C27_3 C 0.3629(10) 0.868(1) 0.9780(5)
C28_3 C 0.2838(9) 0.7720(10) 0.9954(4)
H14_3 H 0.4325 0.8946 0.9984
H15_3 H 0.3904 0.9892 0.9181
H16_3 H 0.2213 0.9255 0.8725
N1_2 N 0.8383(6) 0.2105(6) 0.0832(2)
C1_3 C 0.7613(8) 0.1170(8) 0.0959(3)
C2_2 C 0.6617(9) 0.0763(9) 0.0689(4)
C3_2 C 0.6371(10) 0.132(1) 0.0220(5)
C4_2 C 0.7162(9) 0.2280(10) 0.0046(4)
C5_3 C 0.8118(7) 0.2672(7) 0.0365(3)
C6_3 C 0.8937(8) 0.3678(8) 0.0210(3)
C7_3 C 0.9604(8) 0.4524(8) 0.0076(3)
H1_3 H 0.7787 0.0745 0.1275
H2_2 H 0.6096 0.0108 0.0819
H3_2 H 0.5675 0.1054 0.0016
H4_3 H 0.7041 0.2654 0.9714
N6_3 N 0.8383(6) 0.7105(6) 0.9168(2)
N1_3 N 0.1617(6) 0.2895(6) 0.0832(2)
C1_4 C 0.2387(8) 0.3830(8) 0.0959(3)
C2_3 C 0.3383(9) 0.4237(9) 0.0689(4)
C3_3 C 0.3629(10) 0.368(1) 0.0220(5)
C4_3 C 0.2838(9) 0.2720(10) 0.0046(4)
C5_4 C 0.1882(7) 0.2328(7) 0.0365(3)
C6_4 C 0.1063(8) 0.1322(8) 0.0210(3)
C7_4 C 0.0396(8) 0.0476(8) 0.0076(3)
H1_4 H 0.2213 0.4255 0.1275
H2_3 H 0.3904 0.4892 0.0819
H3_3 H 0.4325 0.3946 0.0016
H4_4 H 0.2959 0.2346 0.9714
H13_4 H 0.7041 0.7654 0.0286
C8_4 C 0.9604(8) 0.9524(8) 0.9924(3)
C9_4 C 0.8937(8) 0.8678(8) 0.9790(3)
C10_4 C 0.8118(7) 0.7672(7) 0.9635(3)
C25_4 C 0.7613(8) 0.6170(8) 0.9041(3)
C26_4 C 0.6617(9) 0.5763(9) 0.9311(4)
C27_4 C 0.6371(10) 0.632(1) 0.9780(5)
C28_4 C 0.7162(9) 0.7280(10) 0.9954(4)
H14_4 H 0.5675 0.6054 0.9984
H15_4 H 0.6096 0.5108 0.9181
H16_4 H 0.7787 0.5745 0.8725
C1_5 C 0.6330(8) 0.0113(8) 0.3459(3)
C5_5 C 0.4828(7) 0.0618(7) 0.2865(3)
C6_5 C 0.3822(8) 0.1437(8) 0.2710(3)
C7_5 C 0.2976(8) 0.2104(8) 0.2576(3)
H1_5 H 0.6755 0.0287 0.3775
C8_5 C 0.2024(8) 0.2896(8) 0.2424(3)
C9_5 C 0.1178(8) 0.3563(8) 0.2290(3)
C10_5 C 0.0172(7) 0.4382(7) 0.2135(3)
H13_5 H 0.0154 0.5459 0.2786
C2_4 C 0.6737(9) 0.9117(9) 0.3189(4)
C3_4 C 0.618(1) 0.8871(10) 0.2720(5)
C4_4 C 0.5220(10) 0.9662(9) 0.2546(4)
H2_4 H 0.7392 0.8596 0.3319
H3_4 H 0.6446 0.8175 0.2516
H4_5 H 0.4846 0.9541 0.2214
N2_3 N 0.9605(6) 0.4117(6) 0.1668(2)
C25_5 C 0.8670(8) 0.4887(8) 0.1541(3)
C26_5 C 0.8263(9) 0.5883(9) 0.1811(4)
C27_5 C 0.882(1) 0.6129(10) 0.2280(5)
C28_5 C 0.9780(10) 0.5338(9) 0.2454(4)
H14_5 H 0.8554 0.6825 0.2484
H15_5 H 0.7608 0.6404 0.1681
H16_5 H 0.8245 0.4713 0.1225
C2_5 C 0.1737(9) 0.9117(9) 0.1811(4)
C3_5 C 0.118(1) 0.8871(10) 0.2280(5)
C4_5 C 0.0220(10) 0.9662(9) 0.2454(4)
H2_5 H 0.2392 0.8596 0.1681
H3_5 H 0.1446 0.8175 0.2484
C22_3 C 0.8263(9) 0.0883(9) 0.8189(4)
C23_3 C 0.882(1) 0.1129(10) 0.7720(5)
C24_3 C 0.9780(10) 0.0338(9) 0.7546(4)
H6_3 H 0.8554 0.1825 0.7516
H7_3 H 0.7608 0.1404 0.8319
F1 F 0.041(1) 0.156(1) 0.6006(5)
B1 B 0.0000 0.2500 0.6250
F2 F 0.094(1) 0.291(1) 0.6494(5)
B1_2 B 1.0000 0.2500 0.6250
F3 F 0.906(1) 0.209(1) 0.6494(5)
F4 F 0.959(1) 0.344(1) 0.6006(5)
F1_2 F 0.594(1) 0.291(1) 0.8506(5)
B1_3 B 0.5000 0.2500 0.8750
F2_2 F 0.459(1) 0.344(1) 0.8994(5)
F3_2 F 0.541(1) 0.156(1) 0.8994(5)
F4_2 F 0.406(1) 0.209(1) 0.8506(5)
F1_3 F 0.041(1) 0.656(1) 0.3994(5)
B1_4 B 0.0000 0.7500 0.3750
F2_3 F 0.094(1) 0.791(1) 0.3506(5)
B1_5 B 1.0000 0.7500 0.3750
F3_3 F 0.906(1) 0.709(1) 0.3506(5)
F4_3 F 0.959(1) 0.844(1) 0.3994(5)
F1_4 F 0.541(1) 0.656(1) 0.1006(5)
B1_6 B 0.5000 0.7500 0.1250
F2_4 F 0.594(1) 0.791(1) 0.1494(5)
F3_4 F 0.406(1) 0.709(1) 0.1494(5)
F4_4 F 0.459(1) 0.844(1) 0.1006(5)
loop_
_geom_bond_atom_site_label_1
_geom_bond_atom_site_label_2
_geom_bond_site_symmetry_1
_geom_bond_site_symmetry_2
N1 C1 1_555 1_555
H1 C1 1_555 1_555
Cu2 N1 1_555 1_555
Cu1 N2 1_555 1_555
C6 C5 1_555 1_555
C7 C6 1_555 1_555
C8 C7 1_555 1_555
C9 C8 1_555 1_555
C10 C9 1_555 1_555
N2 C10 1_555 1_555
N3 Cu1 1_555 1_555
C11 N3 1_555 1_555
C12 C11 1_555 1_555
C13 C12 1_555 1_555
C14 C13 1_555 1_555
C15 N3 1_555 1_555
C16 C15 1_555 1_555
C17 C16 1_555 1_555
H9 C14 1_555 1_555
H10 C13 1_555 1_555
H11 C12 1_555 1_555
H12 C11 1_555 1_555
N5 Cu1 1_555 1_555
N6 Cu1 1_555 1_555
C25 N2 1_555 1_555
C26 C25 1_555 1_555
C27 C26 1_555 1_555
C28 C10 1_555 1_555
H13 C28 1_555 1_555
H14 C27 1_555 1_555
H15 C26 1_555 1_555
H16 C25 1_555 1_555
C14 C15 1_555 1_555
C27 C28 1_555 1_555
C19 C18 1_555 1_555
C20 C19 1_555 1_555
N4 C20 1_555 1_555
Cu3 N4 1_555 1_555
C21 N4 1_555 1_555
C22 C21 1_555 1_555
C23 C22 1_555 1_555
C24 C20 1_555 1_555
H5 C24 1_555 1_555
H6 C23 1_555 1_555
H7 C22 1_555 1_555
H8 C21 1_555 1_555
C23 C24 1_555 1_555
Cu3_2 N4_2 1_555 1_555
C21_2 N4_2 1_555 1_555
C22_2 C21_2 1_555 1_555
C23_2 C22_2 1_555 1_555
H6_2 C23_2 1_555 1_555
H7_2 C22_2 1_555 1_555
H8_2 C21_2 1_555 1_555
C23_2 C24_2 1_555 1_555
C13_2 C12_2 1_555 1_555
C14_2 C13_2 1_555 1_555
H9_2 C14_2 1_555 1_555
H10_2 C13_2 1_555 1_555
H11_2 C12_2 1_555 1_555
N3_2 Cu3 1_555 1_555
C11_2 N3_2 1_555 1_555
C15_2 N3_2 1_555 1_555
C16_2 C15_2 1_555 1_555
C17_2 C16_2 1_555 1_555
C18_2 C17_2 1_555 1_555
C19_2 C18_2 1_555 1_555
C20_2 C19_2 1_555 1_555
H12_2 C11_2 1_555 1_555
N5_2 Cu3 1_555 1_555
N6_2 Cu3 1_555 1_555
N5 C1_2 1_555 1_555
C1_2 C2 1_555 1_555
C2 C3 1_555 1_555
C3 C4 1_555 1_555
C4 C5_2 1_555 1_555
C5_2 N5 1_555 1_555
C6_2 C5_2 1_555 1_555
C7_2 C6_2 1_555 1_555
H1_2 C1_2 1_555 1_555
H2 C2 1_555 1_555
H3 C3 1_555 1_555
H4_2 C4 1_555 1_555
C8_2 C7_2 1_555 1_555
C9_2 C8_2 1_555 1_555
C10_2 C9_2 1_555 1_555
N6_2 C10_2 1_555 1_555
C11_3 N5_2 1_555 1_555
C12_3 C11_3 1_555 1_555
C13_3 C12_3 1_555 1_555
C14_3 C13_3 1_555 1_555
C15_3 N5_2 1_555 1_555
C16_3 C15_3 1_555 1_555
C17_3 C16_3 1_555 1_555
C18_3 C17_3 1_555 1_555
C19_3 C18_3 1_555 1_555
C20_3 C19_3 1_555 1_555
H9_3 C14_3 1_555 1_555
H10_3 C13_3 1_555 1_555
H11_3 C12_3 1_555 1_555
H12_3 C11_3 1_555 1_555
C25_2 N6_2 1_555 1_555
C26_2 C25_2 1_555 1_555
C27_2 C26_2 1_555 1_555
C28_2 C10_2 1_555 1_555
H13_2 C28_2 1_555 1_555
H14_2 C27_2 1_555 1_555
H15_2 C26_2 1_555 1_555
H16_2 C25_2 1_555 1_555
C14_3 C15_3 1_555 1_555
C27_2 C28_2 1_555 1_555
Cu3_3 N4_3 1_555 1_555
C21_3 N4_3 1_555 1_555
H8_3 C21_3 1_555 1_555
Cu3_2 N2_2 1_555 1_555
C9_3 C8_3 1_555 1_555
C10_3 C9_3 1_555 1_555
N2_2 C10_3 1_555 1_555
C25_3 N2_2 1_555 1_555
C26_3 C25_3 1_555 1_555
C27_3 C26_3 1_555 1_555
C28_3 C10_3 1_555 1_555
H14_3 C27_3 1_555 1_555
H15_3 C26_3 1_555 1_555
H16_3 C25_3 1_555 1_555
C27_3 C28_3 1_555 1_555
N1_2 C1_3 1_555 1_555
C1_3 C2_2 1_555 1_555
C2_2 C3_2 1_555 1_555
C3_2 C4_2 1_555 1_555
C4_2 C5_3 1_555 1_555
C5_3 N1_2 1_555 1_555
C6_3 C5_3 1_555 1_555
C7_3 C6_3 1_555 1_555
H1_3 C1_3 1_555 1_555
H2_2 C2_2 1_555 1_555
H3_2 C3_2 1_555 1_555
Cu2_2 N1_2 1_555 1_555
N6_3 Cu3_3 1_555 1_555
N1_3 C1_4 1_555 1_555
C1_4 C2_3 1_555 1_555
C2_3 C3_3 1_555 1_555
C3_3 C4_3 1_555 1_555
C4_3 C5_4 1_555 1_555
C5_4 N1_3 1_555 1_555
C6_4 C5_4 1_555 1_555
C7_4 C6_4 1_555 1_555
H1_4 C1_4 1_555 1_555
H2_3 C2_3 1_555 1_555
H3_3 C3_3 1_555 1_555
Cu2 N1_3 1_555 1_555
C9_4 C8_4 1_555 1_555
C10_4 C9_4 1_555 1_555
N6_3 C10_4 1_555 1_555
C25_4 N6_3 1_555 1_555
C26_4 C25_4 1_555 1_555
C27_4 C26_4 1_555 1_555
C28_4 C10_4 1_555 1_555
H14_4 C27_4 1_555 1_555
H15_4 C26_4 1_555 1_555
H16_4 C25_4 1_555 1_555
C27_4 C28_4 1_555 1_555
N6 C1_5 1_555 1_555
C5_5 N6 1_555 1_555
C6_5 C5_5 1_555 1_555
C7_5 C6_5 1_555 1_555
H1_5 C1_5 1_555 1_555
C8_5 C7_5 1_555 1_555
C9_5 C8_5 1_555 1_555
C10_5 C9_5 1_555 1_555
C2_4 C3_4 1_555 1_555
C3_4 C4_4 1_555 1_555
H2_4 C2_4 1_555 1_555
H3_4 C3_4 1_555 1_555
H4_5 C4_4 1_555 1_555
Cu2_2 N2_3 1_555 1_555
C25_5 N2_3 1_555 1_555
C26_5 C25_5 1_555 1_555
C27_5 C26_5 1_555 1_555
H14_5 C27_5 1_555 1_555
H15_5 C26_5 1_555 1_555
H16_5 C25_5 1_555 1_555
C27_5 C28_5 1_555 1_555
C2_5 C3_5 1_555 1_555
C3_5 C4_5 1_555 1_555
H2_5 C2_5 1_555 1_555
H3_5 C3_5 1_555 1_555
C23_3 C22_3 1_555 1_555
H6_3 C23_3 1_555 1_555
H7_3 C22_3 1_555 1_555
C23_3 C24_3 1_555 1_555
F1 B1 1_555 1_555
B1 F2 1_555 1_555
F3 B1_2 1_555 1_555
F4 B1_2 1_555 1_555
F1_2 B1_3 1_555 1_555
B1_3 F2_2 1_555 1_555
F3_2 B1_3 1_555 1_555
F4_2 B1_3 1_555 1_555
F1_3 B1_4 1_555 1_555
B1_4 F2_3 1_555 1_555
F3_3 B1_5 1_555 1_555
F4_3 B1_5 1_555 1_555
F1_4 B1_6 1_555 1_555
B1_6 F2_4 1_555 1_555
F3_4 B1_6 1_555 1_555
F4_4 B1_6 1_555 1_555

#END
