
###############################################################################
#
# This file contains modified crystal structure data generated from the
# MOF subset of the Cambridge Structural Database (CSD) v543 
# hosted by the Cambridge Crystallographic Data Centre (CCDC).
#
# This work is licensed under the Creative Commons
# Attribution-NonCommercial-ShareAlike 4.0 International License.
# To view a copy of this license, visit
# http://creativecommons.org/licenses/by-nc-sa/4.0/
# or send a letter to
# Creative Commons, PO Box 1866, Mountain View, CA 94042, USA.
#
# CIF created using the CSD Python API on 29 September 2022
# The structure has been converted into the P1 space group
# The structure has a 3D framework
# The original CSD entry XANYOE is in the monoclinic crystal system
# The framework has been calculated to contain at least 10.0% void space
# The void calculation uses a probe of radius 1.32A, grid spacing 0.4
# H atom positions have been added when not included in the experimental data
#
###############################################################################

data_XANYOE
_chemical_formula_moiety         '(C320 H266 Co16 N88 O62)n'
_symmetry_cell_setting           triclinic
_symmetry_space_group_name_H-M   'P 1'
_symmetry_Int_Tables_number      1
_space_group_name_Hall           'P 1'
loop_
_symmetry_equiv_pos_site_id
_symmetry_equiv_pos_as_xyz
1 x,y,z
_cell_length_a                   29.8325(5)
_cell_length_b                   16.5233(2)
_cell_length_c                   31.8028(5)
_cell_angle_alpha                90
_cell_angle_beta                 115.819(2)
_cell_angle_gamma                90
_cell_volume                     14111.7
loop_
_atom_site_label
_atom_site_type_symbol
_atom_site_fract_x
_atom_site_fract_y
_atom_site_fract_z
Co1 Co 0.44399(2) 0.50593(3) 0.62557(2)
Co2 Co 0.38094(2) 0.50769(3) 0.69479(2)
Co4 Co 0.05704(2) 0.52187(3) 0.38272(2)
C1 C 0.08224(15) 0.0810(3) 0.70866(13)
H1 H 0.116314 0.096388 0.722545
N1 N 0.06698(12) 0.0297(2) 0.73227(11)
C2 C 0.01915(15) 0.0066(3) 0.71163(15)
C4 C 0.00222(16) 0.0881(3) 0.64423(17)
C5 C 0.05148(15) 0.1134(3) 0.66501(14)
C6 C 0.07297(15) 0.1751(3) 0.64505(14)
N2 N 0.12114(13) 0.1898(3) 0.67136(13)
C7 C 0.14221(15) 0.2452(3) 0.65485(15)
N3 N 0.19085(13) 0.2644(3) 0.67969(13)
C8 C 0.20836(15) 0.3227(3) 0.66168(15)
C9 C 0.26139(16) 0.3440(3) 0.69251(15)
C10 C 0.28711(18) 0.2979(4) 0.73250(19)
H5 H 0.271907 0.251727 0.738643
C11 C 0.33528(18) 0.3200(4) 0.76334(18)
H6 H 0.353497 0.289767 0.791011
C12 C 0.35601(16) 0.3874(3) 0.75257(15)
H7 H 0.388285 0.404115 0.774361
N4 N 0.33309(12) 0.4301(2) 0.71323(11)
C13 C 0.28589(14) 0.4088(3) 0.68365(14)
H8 H 0.268882 0.439306 0.655834
N5 N 0.18444(13) 0.3645(2) 0.62163(12)
C14 C 0.13564(15) 0.3442(3) 0.59587(14)
N6 N 0.10779(12) 0.3822(2) 0.55503(12)
C15 C 0.05985(15) 0.3592(3) 0.53399(13)
C16 C 0.02851(15) 0.3993(3) 0.48876(14)
C17 C 0.04983(14) 0.4346(2) 0.46242(13)
H9 H 0.085077 0.434263 0.474329
N7 N 0.02298(12) 0.4692(2) 0.42086(11)
N8 N 0.03510(12) 0.3044(2) 0.54749(12)
C21 C 0.06298(15) 0.2659(3) 0.58794(13)
N9 N 0.04195(12) 0.2090(2) 0.60459(12)
C22 C 0.11371(14) 0.2848(3) 0.61277(14)
C23 C 0.41584(14) 0.1227(3) 0.28064(13)
H13 H 0.381223 0.134192 0.268115
N10 N 0.43174(11) 0.0727(2) 0.25641(11)
C24 C 0.48076(14) 0.0576(3) 0.27486(14)
H14 H 0.492839 0.022643 0.258392
C25 C 0.51461(15) 0.0905(3) 0.31666(15)
H15 H 0.549055 0.078056 0.328536
C26 C 0.49744(15) 0.1419(3) 0.34099(15)
H16 H 0.519907 0.165368 0.369743
C27 C 0.44692(14) 0.1582(3) 0.32251(13)
C28 C 0.42501(15) 0.2163(3) 0.34432(14)
N11 N 0.37681(12) 0.2330(2) 0.31805(11)
C29 C 0.35650(15) 0.2863(3) 0.33700(13)
N12 N 0.30805(12) 0.3078(2) 0.31261(12)
C30 C 0.29100(14) 0.3619(3) 0.33366(14)
C31 C 0.23790(14) 0.3853(3) 0.30375(13)
C32 C 0.21197(17) 0.3481(3) 0.26072(15)
H17 H 0.227377 0.306952 0.250715
C33 C 0.16306(16) 0.3717(3) 0.23223(15)
H18 H 0.144685 0.347306 0.202578
C34 C 0.14226(15) 0.4312(3) 0.24825(13)
H19 H 0.109117 0.447635 0.228740
N13 N 0.16630(12) 0.4674(2) 0.29011(11)
C35 C 0.21340(14) 0.4434(2) 0.31715(13)
H20 H 0.230656 0.467845 0.346992
N14 N 0.31464(12) 0.3964(2) 0.37578(11)
C36 C 0.36303(15) 0.3741(3) 0.40063(13)
N15 N 0.39107(12) 0.4047(2) 0.44391(11)
C37 C 0.43867(15) 0.3800(3) 0.46406(14)
C38 C 0.47060(14) 0.4103(2) 0.51206(13)
C39 C 0.44959(14) 0.4426(2) 0.53982(13)
H21 H 0.414490 0.449353 0.526781
N16 N 0.47720(12) 0.4645(2) 0.58428(11)
C40 C 0.52686(15) 0.4570(3) 0.60237(14)
H22 H 0.546249 0.471336 0.634144
C41 C 0.55078(15) 0.4294(3) 0.57674(15)
H23 H 0.586105 0.427491 0.589946
C42 C 0.52219(15) 0.4046(3) 0.53120(14)
H24 H 0.537807 0.383627 0.513080
N17 N 0.46305(12) 0.3299(2) 0.44769(11)
C43 C 0.43514(15) 0.2981(3) 0.40532(13)
N18 N 0.45592(12) 0.2442(2) 0.38663(11)
C44 C 0.38464(14) 0.3191(3) 0.38103(13)
O1 O 0.12231(9) 0.46220(16) 0.41360(9)
O2 O 0.16987(9) 0.51338(17) 0.38096(9)
C45 C 0.16301(14) 0.4838(2) 0.41434(13)
C46 C 0.20854(14) 0.4745(2) 0.45999(13)
C47 C 0.20367(15) 0.4761(3) 0.50156(14)
H25 H 0.171505 0.478645 0.500797
C48 C 0.24530(15) 0.4740(3) 0.54377(14)
H26 H 0.241781 0.476934 0.572016
C49 C 0.29257(13) 0.4676(2) 0.54536(12)
C50 C 0.29728(14) 0.4634(3) 0.50380(13)
H27 H 0.329270 0.456803 0.504596
C51 C 0.25576(14) 0.4689(3) 0.46137(13)
H28 H 0.259397 0.468763 0.433142
C52 C 0.33818(13) 0.4697(2) 0.59113(12)
O3 O 0.33247(9) 0.49547(16) 0.62582(8)
O4 O 0.37854(9) 0.44709(16) 0.59121(9)
O5 O 0.42952(9) 0.57741(16) 0.67448(9)
C53 C 0.47280(14) 0.6090(2) 0.68890(13)
O6 O 0.50119(9) 0.58828(16) 0.67108(9)
C54 C 0.48814(14) 0.6725(2) 0.72577(14)
C55 C 0.45294(15) 0.7090(3) 0.73709(15)
H29 H 0.419113 0.692356 0.722090
C56 C 0.46731(15) 0.7699(3) 0.77031(15)
H30 H 0.443222 0.794843 0.778083
C57 C 0.51684(15) 0.7948(2) 0.79243(14)
C58 C 0.55241(14) 0.7569(3) 0.78159(14)
H31 H 0.586356 0.772734 0.797094
C59 C 0.53806(14) 0.6960(2) 0.74812(14)
H32 H 0.562087 0.670544 0.740456
C60 C 0.53149(14) 0.8631(2) 0.82625(13)
O7 O 0.50222(10) 0.88878(16) 0.84193(9)
O8 O 0.57455(9) 0.89585(15) 0.83936(9)
O9 O 0.47749(10) 0.41157(16) 0.67281(9)
O10 O 0.41815(10) 0.40426(16) 0.69790(9)
C61 C 0.45660(14) 0.3790(2) 0.69535(13)
C62 C 0.47881(15) 0.3033(2) 0.72256(13)
C63 C 0.52000(17) 0.2670(3) 0.72179(16)
H33 H 0.534074 0.288582 0.702545
C64 C 0.54114(17) 0.1989(3) 0.74895(16)
H34 H 0.569764 0.174857 0.748327
C65 C 0.52085(14) 0.1657(2) 0.77704(13)
C66 C 0.47905(19) 0.2013(3) 0.77717(19)
H35 H 0.464325 0.178880 0.795693
C67 C 0.45848(19) 0.2696(3) 0.75031(19)
H36 H 0.429883 0.293791 0.750933
C68 C 0.54402(14) 0.0926(2) 0.80646(13)
O11 O 0.52349(10) 0.06362(17) 0.83031(9)
O12 O 0.58216(10) 0.06604(17) 0.80404(9)
O13 O 0.34379(10) 0.61277(17) 0.69558(10)
C69 C 0.30016(15) 0.6340(3) 0.67110(14)
H37 H 0.278837 0.597989 0.647633
N19 N 0.28200(13) 0.7042(2) 0.67609(12)
C70 C 0.31214(18) 0.7617(3) 0.71190(18)
H38 H 0.297548 0.769903 0.733863
H39 H 0.313137 0.813420 0.697247
H40 H 0.346037 0.740508 0.728725
C71 C 0.23008(17) 0.7265(3) 0.64776(18)
H41 H 0.213008 0.682356 0.626094
H42 H 0.228625 0.775704 0.630014
H43 H 0.213739 0.736355 0.668161
O14 O 0.40979(10) 0.59768(17) 0.57422(10)
C72 C 0.42670(15) 0.6579(2) 0.56275(13)
H44 H 0.457877 0.678733 0.584566
N20 N 0.40414(14) 0.6946(2) 0.52235(13)
C73 C 0.3575(2) 0.6640(4) 0.48632(18)
H45 H 0.363619 0.638050 0.461626
H46 H 0.334077 0.708972 0.473054
H47 H 0.343214 0.624363 0.500030
C74 C 0.4254(2) 0.7667(3) 0.5109(2)
H48 H 0.403257 0.813011 0.506323
H49 H 0.429105 0.756910 0.482153
H50 H 0.458125 0.778315 0.536529
O15 O 0.08907(10) 0.60560(17) 0.43848(10)
C75 C 0.07473(14) 0.6725(2) 0.44499(13)
H51 H 0.045583 0.694473 0.420595
N21 N 0.09720(13) 0.7155(2) 0.48359(12)
C76 C 0.14123(19) 0.6841(3) 0.52310(17)
H52 H 0.134050 0.678122 0.550218
H53 H 0.169037 0.721848 0.530700
H54 H 0.150140 0.631325 0.514882
C77 C 0.07831(19) 0.7942(3) 0.48938(18)
H55 H 0.103137 0.836065 0.493411
H56 H 0.071698 0.792967 0.516981
H57 H 0.047408 0.806449 0.461644
Co5 Co 0.11906(2) 0.00769(3) 0.80521(2)
Co6 Co 0.62027(2) 0.96132(3) 0.81389(2)
Co7 Co 0.37973(2) 0.03868(3) 0.18611(2)
Co8 Co 0.12027(2) 0.53868(3) 0.31389(2)
Co10 Co 0.55704(2) 0.97813(3) 0.88272(2)
N23 N 0.43302(12) 0.5297(2) 0.76773(11)
N25 N 0.66630(12) 0.0326(2) 0.79011(11)
O18 O 0.00222(10) 0.61122(16) 0.34193(9)
O20 O 0.07455(9) 0.60415(15) 0.33936(9)
O21 O 0.02349(10) 0.43638(17) 0.33031(9)
H65 H 0.201523 0.408054 0.611334
H66 H 0.492035 0.226526 0.403452
H2 H 0.007373 0.970685 0.727926
O16 O 0.66025(10) 0.85615(17) 0.81761(10)
C78 C 0.70572(15) 0.8436(3) 0.83842(14)
H58 H 0.726031 0.884107 0.859176
N22 N 0.72726(15) 0.7778(3) 0.83344(13)
C79 C 0.6982(2) 0.7126(3) 0.80330(19)
H59 H 0.662772 0.721870 0.794448
H60 H 0.708413 0.661013 0.819961
H61 H 0.703794 0.710990 0.775148
C80 C 0.7810(2) 0.7668(6) 0.8578(2)
H62 H 0.794180 0.756014 0.834963
H63 H 0.788587 0.721051 0.879367
H64 H 0.796397 0.816050 0.875311
N24 N 0.56826(11) 0.9273(2) 0.74359(11)
O17 O 0.66987(9) 0.98662(17) 0.88096(9)
Co4_2 Co 0.44296(2) 0.02187(3) 0.11728(2)
O2_2 O 0.33013(9) 0.01338(17) 0.11904(9)
C73_2 C 0.1425(2) 0.1640(4) 0.01368(18)
H45_2 H 0.136381 0.138050 0.038374
H46_2 H 0.165923 0.208972 0.026946
H47_2 H 0.156786 0.124363 -0.000030
H49_2 H 0.070895 0.256910 0.017847
O15_2 O 0.41093(10) 0.10560(17) 0.06152(10)
C75_2 C 0.42527(14) 0.1725(2) 0.05501(13)
H51_2 H 0.454417 0.194473 0.079405
N21_2 N 0.40280(13) 0.2155(2) 0.01641(12)
C77_2 C 0.42169(19) 0.2942(3) 0.01062(18)
H55_2 H 0.396863 0.336065 0.006589
H57_2 H 0.452592 0.306449 0.038356
O18_2 O 0.49778(10) 0.11122(16) 0.15807(9)
O20_2 O 0.42545(9) 0.10415(15) 0.16064(9)
Co1_2 Co 0.05601(2) 0.00593(3) 0.87443(2)
O5_2 O 0.07048(9) 0.07741(16) 0.82552(9)
C53_2 C 0.02720(14) 0.1090(2) 0.81110(13)
C54_2 C 0.01186(14) 0.1725(2) 0.77423(14)
C55_2 C 0.04706(15) 0.2090(3) 0.76291(15)
H29_2 H 0.080887 0.192356 0.777910
C56_2 C 0.03269(15) 0.2699(3) 0.72969(15)
H30_2 H 0.056778 0.294843 0.721917
O13_2 O 0.15621(10) 0.11277(17) 0.80442(10)
C69_2 C 0.19984(15) 0.1340(3) 0.82890(14)
H37_2 H 0.221163 0.097989 0.852367
N19_2 N 0.21800(13) 0.2042(2) 0.82391(12)
C70_2 C 0.18786(18) 0.2617(3) 0.78810(18)
H38_2 H 0.202452 0.269903 0.766137
H39_2 H 0.186863 0.313420 0.802753
H40_2 H 0.153963 0.240508 0.771275
C71_2 C 0.26992(17) 0.2265(3) 0.85224(18)
H41_2 H 0.286992 0.182356 0.873906
H42_2 H 0.271375 0.275704 0.869986
H43_2 H 0.286261 0.236355 0.831839
O14_2 O 0.09021(10) 0.09768(17) 0.92578(10)
C72_2 C 0.07330(15) 0.1579(2) 0.93725(13)
H44_2 H 0.042123 0.178733 0.915434
N20_2 N 0.09586(14) 0.1946(2) 0.97765(13)
H47_3 H 0.156786 0.124363 0.999970
C74_2 C 0.0746(2) 0.2667(3) 0.9891(2)
H48_2 H 0.096743 0.313011 0.993677
H50_2 H 0.041875 0.278315 0.963471
C76_2 C 0.35877(19) 0.1841(3) 0.97690(17)
H52_2 H 0.365950 0.178122 0.949782
H53_2 H 0.330963 0.221848 0.969300
H54_2 H 0.349860 0.131325 0.985118
H56_2 H 0.428302 0.292967 0.983019
C16_2 C 0.47149(15) 0.8993(3) 0.01124(14)
C17_2 C 0.45017(14) 0.9346(2) 0.03758(13)
H9_2 H 0.414923 0.934263 0.025671
N7_2 N 0.47702(12) 0.9692(2) 0.07914(11)
C18 C 0.52677(15) 0.9712(3) 0.09525(15)
H10 H 0.546024 0.995765 0.124674
C19 C 0.55097(16) 0.9390(3) 0.07087(16)
H11 H 0.586175 0.942352 0.082897
C20 C 0.52309(16) 0.9017(3) 0.02859(16)
H12 H 0.539008 0.877875 0.011468
C23_2 C 0.08416(14) 0.6227(3) 0.21936(13)
H13_2 H 0.118777 0.634192 0.231885
N10_2 N 0.06826(11) 0.5727(2) 0.24359(11)
C24_2 C 0.01924(14) 0.5576(3) 0.22514(14)
H14_2 H 0.007161 0.522643 0.241608
C26_2 C 0.00256(15) 0.6419(3) 0.15901(15)
C27_2 C 0.05308(14) 0.6582(3) 0.17749(13)
C28_2 C 0.07499(15) 0.7163(3) 0.15568(14)
N11_2 N 0.12319(12) 0.7330(2) 0.18195(11)
C29_2 C 0.14350(15) 0.7863(3) 0.16300(13)
N12_2 N 0.19195(12) 0.8078(2) 0.18739(12)
C30_2 C 0.20900(14) 0.8619(3) 0.16634(14)
C31_2 C 0.26210(14) 0.8853(3) 0.19625(13)
C32_2 C 0.28803(17) 0.8481(3) 0.23928(15)
H17_2 H 0.272623 0.806952 0.249285
C33_2 C 0.33694(16) 0.8717(3) 0.26777(15)
H18_2 H 0.355315 0.847306 0.297422
C34_2 C 0.35774(15) 0.9312(3) 0.25175(13)
H19_2 H 0.390883 0.947635 0.271260
N13_2 N 0.33370(12) 0.9674(2) 0.20989(11)
C35_2 C 0.28660(14) 0.9434(2) 0.18285(13)
H20_2 H 0.269344 0.967845 0.153008
N14_2 N 0.18536(12) 0.8964(2) 0.12422(11)
C36_2 C 0.13697(15) 0.8741(3) 0.09937(13)
N15_2 N 0.10893(12) 0.9047(2) 0.05609(11)
C37_2 C 0.06133(15) 0.8800(3) 0.03594(14)
N17_2 N 0.03695(12) 0.8299(2) 0.05231(11)
C43_2 C 0.06486(15) 0.7981(3) 0.09468(13)
N18_2 N 0.04408(12) 0.7442(2) 0.11337(11)
C44_2 C 0.11536(14) 0.8191(3) 0.11897(13)
O1_2 O 0.37769(9) 0.96220(16) 0.08640(9)
C45_2 C 0.33699(14) 0.9838(2) 0.08566(13)
C46_2 C 0.29146(14) 0.9745(2) 0.04001(13)
C51_2 C 0.24424(14) 0.9689(3) 0.03863(13)
H28_2 H 0.240603 0.968763 0.066858
O21_2 O 0.47651(10) 0.93638(17) 0.16969(9)
H66_2 H 0.00796476 0.726526 0.0965479
C1_2 C 0.41776(15) 0.5810(3) 0.79134(13)
H1_2 H 0.383686 0.596388 0.777455
C2_2 C 0.48085(15) 0.5066(3) 0.78837(15)
H2_2 H 0.492627 0.470685 0.772074
C3 C 0.51372(17) 0.5327(4) 0.83223(18)
H3 H 0.546952 0.512991 0.846241
C4_2 C 0.49778(16) 0.5881(3) 0.85577(17)
H4 H 0.520211 0.608218 0.885529
C5_2 C 0.44852(15) 0.6134(3) 0.83499(14)
C6_2 C 0.42703(15) 0.6751(3) 0.85495(14)
N2_2 N 0.37886(13) 0.6898(3) 0.82864(13)
C7_2 C 0.35779(15) 0.7452(3) 0.84515(15)
N3_2 N 0.30915(13) 0.7644(3) 0.82031(13)
C8_2 C 0.29164(15) 0.8227(3) 0.83832(15)
C9_2 C 0.23861(16) 0.8440(3) 0.80749(15)
C10_2 C 0.21289(18) 0.7979(4) 0.76750(19)
H5_2 H 0.228093 0.751727 0.761357
C11_2 C 0.16472(18) 0.8200(4) 0.73666(18)
H6_2 H 0.146503 0.789767 0.708989
C12_2 C 0.14399(16) 0.8874(3) 0.74743(15)
H7_2 H 0.111715 0.904115 0.725639
N4_2 N 0.16691(12) 0.9301(2) 0.78677(11)
C13_2 C 0.21411(14) 0.9088(3) 0.81635(14)
H8_2 H 0.231118 0.939306 0.844166
N5_2 N 0.31556(13) 0.8645(2) 0.87837(12)
C14_2 C 0.36436(15) 0.8442(3) 0.90413(14)
N6_2 N 0.39221(12) 0.8822(2) 0.94497(12)
C15_2 C 0.44015(15) 0.8592(3) 0.96601(13)
N8_2 N 0.46490(12) 0.8044(2) 0.95251(12)
C21_2 C 0.43702(15) 0.7659(3) 0.91206(13)
N9_2 N 0.45805(12) 0.7090(2) 0.89541(12)
C22_2 C 0.38629(14) 0.7848(3) 0.88723(14)
C38_2 C 0.02940(14) 0.9103(2) 0.98794(13)
C39_2 C 0.05041(14) 0.9426(2) 0.96018(13)
H21_2 H 0.085510 0.949353 0.973219
N16_2 N 0.02280(12) 0.9645(2) 0.91572(11)
C47_2 C 0.29633(15) 0.9761(3) 0.99844(14)
H25_2 H 0.328495 0.978645 0.999203
C48_2 C 0.25470(15) 0.9740(3) 0.95623(14)
H26_2 H 0.258219 0.976934 0.927984
C49_2 C 0.20743(13) 0.9676(2) 0.95464(12)
C50_2 C 0.20272(14) 0.9634(3) 0.99620(13)
H27_2 H 0.170730 0.956803 0.995404
C52_2 C 0.16182(13) 0.9697(2) 0.90887(12)
O3_2 O 0.16753(9) 0.99547(16) 0.87418(8)
O4_2 O 0.12146(9) 0.94709(16) 0.90879(9)
O9_2 O 0.02251(10) 0.91157(16) 0.82719(9)
O10_2 O 0.08185(10) 0.90426(16) 0.80210(9)
C61_2 C 0.04340(14) 0.8790(2) 0.80465(13)
C62_2 C 0.02119(15) 0.8033(2) 0.77744(13)
C66_2 C 0.02095(19) 0.7013(3) 0.72283(19)
H35_2 H 0.035675 0.678880 0.704307
C67_2 C 0.04152(19) 0.7696(3) 0.74969(19)
H36_2 H 0.070117 0.793791 0.749067
H65_2 H 0.298477 0.908054 0.888666
O6_2 O 0.99881(9) 0.08828(16) 0.82892(9)
C57_2 C 0.98316(15) 0.2948(2) 0.70757(14)
C58_2 C 0.94759(14) 0.2569(3) 0.71841(14)
H31_2 H 0.913644 0.272734 0.702906
C59_2 C 0.96194(14) 0.1960(2) 0.75188(14)
H32_2 H 0.937913 0.170544 0.759544
C60_2 C 0.96851(14) 0.3631(2) 0.67375(13)
O7_2 O 0.99778(10) 0.38878(16) 0.65807(9)
O8_2 O 0.92545(9) 0.39585(15) 0.66064(9)
Co6_2 Co 0.87973(2) 0.46132(3) 0.68611(2)
Co10_2 Co 0.94296(2) 0.47813(3) 0.61728(2)
C40_2 C 0.97314(15) 0.9570(3) 0.89763(14)
H22_2 H 0.953751 0.971336 0.865856
C41_2 C 0.94922(15) 0.9294(3) 0.92326(15)
H23_2 H 0.913895 0.927491 0.910054
C42_2 C 0.97781(15) 0.9046(3) 0.96880(14)
H24_2 H 0.962193 0.883627 0.986920
C63_2 C 0.98000(17) 0.7670(3) 0.77821(16)
H33_2 H 0.965926 0.788582 0.797455
C64_2 C 0.95886(17) 0.6989(3) 0.75105(16)
H34_2 H 0.930236 0.674857 0.751673
C65_2 C 0.97915(14) 0.6657(2) 0.72296(13)
C68_2 C 0.95598(14) 0.5926(2) 0.69354(13)
O11_2 O 0.97651(10) 0.56362(17) 0.66969(9)
O12_2 O 0.91784(10) 0.56604(17) 0.69596(9)
O16_2 O 0.83975(10) 0.35615(17) 0.68239(10)
C78_2 C 0.79428(15) 0.3436(3) 0.66158(14)
H58_2 H 0.773969 0.384107 0.640824
N22_2 N 0.77274(15) 0.2778(3) 0.66656(13)
C79_2 C 0.8018(2) 0.2126(3) 0.69670(19)
H59_2 H 0.837228 0.221870 0.705552
H60_2 H 0.791587 0.161013 0.680039
H61_2 H 0.796206 0.210990 0.724852
C80_2 C 0.7190(2) 0.2668(6) 0.6422(2)
H62_2 H 0.705820 0.256014 0.665037
H63_2 H 0.711413 0.221051 0.620633
H64_2 H 0.703603 0.316050 0.624689
N24_2 N 0.93174(11) 0.4273(2) 0.75641(11)
N25_2 N 0.83370(12) 0.5326(2) 0.70989(11)
O17_2 O 0.83013(9) 0.48662(17) 0.61904(9)
H2_3 H 0.992627 0.029315 0.272074
O16_3 O 0.33975(10) 0.14385(17) 0.18239(10)
C78_3 C 0.29428(15) 0.1564(3) 0.16158(14)
H58_3 H 0.273969 0.115893 0.140824
N22_3 N 0.27274(15) 0.2222(3) 0.16656(13)
C79_3 C 0.3018(2) 0.2874(3) 0.19670(19)
H59_3 H 0.337228 0.278130 0.205552
H60_3 H 0.291587 0.338987 0.180039
H61_3 H 0.296206 0.289010 0.224852
C80_3 C 0.2190(2) 0.2332(6) 0.1422(2)
H62_3 H 0.205820 0.243986 0.165037
H63_3 H 0.211413 0.278949 0.120633
H64_3 H 0.203603 0.183950 0.124689
Co1_3 Co 0.55601(2) 0.49407(3) 0.37443(2)
Co2_2 Co 0.61906(2) 0.49231(3) 0.30521(2)
C1_3 C 0.91776(15) 0.9190(3) 0.29134(13)
H1_3 H 0.883686 0.903612 0.277455
N1_2 N 0.93302(12) 0.9703(2) 0.26773(11)
C2_3 C 0.98085(15) 0.9934(3) 0.28837(15)
C4_3 C 0.99778(16) 0.9119(3) 0.35577(17)
C5_3 C 0.94852(15) 0.8866(3) 0.33499(14)
C6_3 C 0.92703(15) 0.8249(3) 0.35495(14)
N2_3 N 0.87886(13) 0.8102(3) 0.32864(13)
C7_3 C 0.85779(15) 0.7548(3) 0.34515(15)
N3_3 N 0.80915(13) 0.7356(3) 0.32031(13)
C8_3 C 0.79164(15) 0.6773(3) 0.33832(15)
C9_3 C 0.73861(16) 0.6560(3) 0.30749(15)
C10_3 C 0.71289(18) 0.7021(4) 0.26750(19)
H5_3 H 0.728093 0.748273 0.261357
C11_3 C 0.66472(18) 0.6800(4) 0.23666(18)
H6_3 H 0.646503 0.710233 0.208989
C12_3 C 0.64399(16) 0.6126(3) 0.24743(15)
H7_3 H 0.611715 0.595885 0.225639
N4_3 N 0.66691(12) 0.5699(2) 0.28677(11)
C13_3 C 0.71411(14) 0.5912(3) 0.31635(14)
H8_3 H 0.731118 0.560694 0.344166
N5_3 N 0.81556(13) 0.6355(2) 0.37837(12)
C14_3 C 0.86436(15) 0.6558(3) 0.40413(14)
N6_3 N 0.89221(12) 0.6178(2) 0.44497(12)
C15_3 C 0.94015(15) 0.6408(3) 0.46601(13)
C16_3 C 0.97149(15) 0.6007(3) 0.51124(14)
C17_3 C 0.95017(14) 0.5654(2) 0.53758(13)
H9_3 H 0.914923 0.565737 0.525671
N7_3 N 0.97702(12) 0.5308(2) 0.57914(11)
N8_3 N 0.96490(12) 0.6956(2) 0.45251(12)
C21_3 C 0.93702(15) 0.7341(3) 0.41206(13)
N9_3 N 0.95805(12) 0.7910(2) 0.39541(12)
C22_3 C 0.88629(14) 0.7152(3) 0.38723(14)
C23_3 C 0.58416(14) 0.8773(3) 0.71936(13)
H13_3 H 0.618777 0.865808 0.731885
C24_3 C 0.51924(14) 0.9424(3) 0.72514(14)
H14_3 H 0.507161 0.977357 0.741608
C25_2 C 0.48539(15) 0.9095(3) 0.68334(15)
H15_2 H 0.450945 0.921944 0.671464
C26_3 C 0.50256(15) 0.8581(3) 0.65901(15)
H16_2 H 0.480093 0.834632 0.630257
C27_3 C 0.55308(14) 0.8418(3) 0.67749(13)
C28_3 C 0.57499(15) 0.7837(3) 0.65568(14)
N11_3 N 0.62319(12) 0.7670(2) 0.68195(11)
C29_3 C 0.64350(15) 0.7137(3) 0.66300(13)
N12_3 N 0.69195(12) 0.6922(2) 0.68739(12)
C30_3 C 0.70900(14) 0.6381(3) 0.66634(14)
C31_3 C 0.76210(14) 0.6147(3) 0.69625(13)
C32_3 C 0.78803(17) 0.6519(3) 0.73928(15)
H17_3 H 0.772623 0.693048 0.749285
C33_3 C 0.83694(16) 0.6283(3) 0.76777(15)
H18_3 H 0.855315 0.652694 0.797422
C34_3 C 0.85774(15) 0.5688(3) 0.75175(13)
H19_3 H 0.890883 0.552365 0.771260
C35_3 C 0.78660(14) 0.5566(2) 0.68285(13)
H20_3 H 0.769344 0.532155 0.653008
N14_3 N 0.68536(12) 0.6036(2) 0.62422(11)
C36_3 C 0.63697(15) 0.6259(3) 0.59937(13)
N15_3 N 0.60893(12) 0.5953(2) 0.55609(11)
C37_3 C 0.56133(15) 0.6200(3) 0.53594(14)
C38_3 C 0.52940(14) 0.5897(2) 0.48794(13)
C39_3 C 0.55041(14) 0.5574(2) 0.46018(13)
H21_3 H 0.585510 0.550647 0.473219
N16_3 N 0.52280(12) 0.5355(2) 0.41572(11)
C40_3 C 0.47314(15) 0.5430(3) 0.39763(14)
H22_3 H 0.453751 0.528664 0.365856
C41_3 C 0.44922(15) 0.5706(3) 0.42326(15)
H23_3 H 0.413895 0.572509 0.410054
C42_3 C 0.47781(15) 0.5954(3) 0.46880(14)
H24_3 H 0.462193 0.616373 0.486920
N17_3 N 0.53695(12) 0.6701(2) 0.55231(11)
C43_3 C 0.56486(15) 0.7019(3) 0.59468(13)
N18_3 N 0.54408(12) 0.7558(2) 0.61337(11)
C44_3 C 0.61536(14) 0.6809(3) 0.61897(13)
O1_3 O 0.87769(9) 0.53780(16) 0.58640(9)
C45_3 C 0.83699(14) 0.5162(2) 0.58566(13)
C46_3 C 0.79146(14) 0.5255(2) 0.54001(13)
C47_3 C 0.79633(15) 0.5239(3) 0.49844(14)
H25_3 H 0.828495 0.521355 0.499203
C48_3 C 0.75470(15) 0.5260(3) 0.45623(14)
H26_3 H 0.758219 0.523066 0.427984
C49_3 C 0.70743(13) 0.5324(2) 0.45464(12)
C50_3 C 0.70272(14) 0.5366(3) 0.49620(13)
H27_3 H 0.670730 0.543197 0.495404
C51_3 C 0.74424(14) 0.5311(3) 0.53863(13)
H28_3 H 0.740603 0.531237 0.566858
C52_3 C 0.66182(13) 0.5303(2) 0.40887(12)
O3_3 O 0.66753(9) 0.50453(16) 0.37418(8)
O4_3 O 0.62146(9) 0.55291(16) 0.40879(9)
O5_3 O 0.57048(9) 0.42259(16) 0.32552(9)
C53_3 C 0.52720(14) 0.3910(2) 0.31110(13)
O6_3 O 0.49881(9) 0.41172(16) 0.32892(9)
C54_3 C 0.51186(14) 0.3275(2) 0.27423(14)
C55_3 C 0.54706(15) 0.2910(3) 0.26291(15)
H29_3 H 0.580887 0.307644 0.277910
C56_3 C 0.53269(15) 0.2301(3) 0.22969(15)
H30_3 H 0.556778 0.205157 0.221917
C57_3 C 0.48316(15) 0.2052(2) 0.20757(14)
C58_3 C 0.44759(14) 0.2431(3) 0.21841(14)
H31_3 H 0.413644 0.227266 0.202906
C59_3 C 0.46194(14) 0.3040(2) 0.25188(14)
H32_3 H 0.437913 0.329456 0.259544
C60_3 C 0.46851(14) 0.1369(2) 0.17375(13)
O9_3 O 0.52251(10) 0.58843(16) 0.32719(9)
O10_3 O 0.58185(10) 0.59574(16) 0.30210(9)
C61_3 C 0.54340(14) 0.6210(2) 0.30465(13)
C62_3 C 0.52119(15) 0.6967(2) 0.27744(13)
C63_3 C 0.48000(17) 0.7330(3) 0.27821(16)
H33_3 H 0.465926 0.711418 0.297455
C64_3 C 0.45886(17) 0.8011(3) 0.25105(16)
H34_3 H 0.430236 0.825143 0.251673
C65_3 C 0.47915(14) 0.8343(2) 0.22296(13)
C66_3 C 0.52095(19) 0.7987(3) 0.22283(19)
H35_3 H 0.535675 0.821120 0.204307
C67_3 C 0.54152(19) 0.7304(3) 0.24969(19)
H36_3 H 0.570117 0.706209 0.249067
C68_3 C 0.45598(14) 0.9074(2) 0.19354(13)
O12_3 O 0.41784(10) 0.93396(17) 0.19596(9)
O13_3 O 0.65621(10) 0.38723(17) 0.30442(10)
C69_3 C 0.69984(15) 0.3660(3) 0.32890(14)
H37_3 H 0.721163 0.402011 0.352367
N19_3 N 0.71800(13) 0.2958(2) 0.32391(12)
C70_3 C 0.68786(18) 0.2383(3) 0.28810(18)
H38_3 H 0.702452 0.230097 0.266137
H39_3 H 0.686863 0.186580 0.302753
H40_3 H 0.653963 0.259492 0.271275
C71_3 C 0.76992(17) 0.2735(3) 0.35224(18)
H41_3 H 0.786992 0.317644 0.373906
H42_3 H 0.771375 0.224296 0.369986
H43_3 H 0.786261 0.263645 0.331839
O14_3 O 0.59021(10) 0.40232(17) 0.42578(10)
C72_3 C 0.57330(15) 0.3421(2) 0.43725(13)
H44_3 H 0.542123 0.321267 0.415434
N20_3 N 0.59586(14) 0.3054(2) 0.47765(13)
C73_3 C 0.6425(2) 0.3360(4) 0.51368(18)
H45_3 H 0.636381 0.361950 0.538374
H46_3 H 0.665923 0.291028 0.526946
H47_4 H 0.656786 0.375637 0.499970
C74_3 C 0.5746(2) 0.2333(3) 0.4891(2)
H48_3 H 0.596743 0.186989 0.493677
H49_3 H 0.570895 0.243090 0.517847
H50_3 H 0.541875 0.221685 0.463471
O15_3 O 0.91093(10) 0.39440(17) 0.56152(10)
C75_3 C 0.92527(14) 0.3275(2) 0.55501(13)
H51_3 H 0.954417 0.305527 0.579405
N21_3 N 0.90280(13) 0.2845(2) 0.51641(12)
C76_3 C 0.85877(19) 0.3159(3) 0.47690(17)
H52_3 H 0.865950 0.321878 0.449782
H53_3 H 0.830963 0.278152 0.469300
H54_3 H 0.849860 0.368675 0.485118
C77_3 C 0.92169(19) 0.2058(3) 0.51062(18)
H55_3 H 0.896863 0.163935 0.506589
H56_3 H 0.928302 0.207033 0.483019
H57_3 H 0.952592 0.193551 0.538356
Co5_2 Co 0.88094(2) 0.99231(3) 0.19479(2)
N23_2 N 0.56698(12) 0.4703(2) 0.23227(11)
H65_3 H 0.798477 0.591946 0.388666
H66_3 H 0.507965 0.773474 0.596548
C40_4 C 0.02686(15) 0.0430(3) 0.10237(14)
H22_4 H 0.046249 0.028664 0.134144
C41_4 C 0.05078(15) 0.0706(3) 0.07674(15)
H23_4 H 0.086105 0.072509 0.089946
C42_4 C 0.02219(15) 0.0954(3) 0.03120(14)
H24_4 H 0.037807 0.116373 0.013080
C63_4 C 0.02000(17) 0.2330(3) 0.22179(16)
H33_4 H 0.034074 0.211418 0.202545
C64_4 C 0.04114(17) 0.3011(3) 0.24895(16)
H34_4 H 0.069764 0.325143 0.248327
C65_4 C 0.02085(14) 0.3343(2) 0.27704(13)
C68_4 C 0.04402(14) 0.4074(2) 0.30646(13)
O12_4 O 0.08216(10) 0.43396(17) 0.30404(9)
O16_4 O 0.16025(10) 0.64385(17) 0.31761(10)
C78_4 C 0.20572(15) 0.6564(3) 0.33842(14)
H58_4 H 0.226031 0.615893 0.359176
N22_4 N 0.22726(15) 0.7222(3) 0.33344(13)
C79_4 C 0.1982(2) 0.7874(3) 0.30330(19)
H59_4 H 0.162772 0.778130 0.294448
H60_4 H 0.208413 0.838987 0.319961
H61_4 H 0.203794 0.789010 0.275148
C80_4 C 0.2810(2) 0.7332(6) 0.3578(2)
H62_4 H 0.294180 0.743986 0.334963
H63_4 H 0.288587 0.778949 0.379367
H64_4 H 0.296397 0.683950 0.375311
O6_4 O 0.00119(9) 0.91172(16) 0.17108(9)
C57_4 C 0.01684(15) 0.7052(2) 0.29243(14)
C58_4 C 0.05241(14) 0.7431(3) 0.28159(14)
H31_4 H 0.086356 0.727266 0.297094
C59_4 C 0.03806(14) 0.8040(2) 0.24812(14)
H32_4 H 0.062087 0.829456 0.240456
C60_4 C 0.03149(14) 0.6369(2) 0.32625(13)
C1_4 C 0.58224(15) 0.4190(3) 0.20866(13)
H1_4 H 0.616314 0.403612 0.222545
C2_4 C 0.51915(15) 0.4934(3) 0.21163(15)
H2_4 H 0.507373 0.529315 0.227926
C3_2 C 0.48628(17) 0.4673(4) 0.16777(18)
H3_2 H 0.453048 0.487009 0.153759
C4_4 C 0.50222(16) 0.4119(3) 0.14423(17)
H4_2 H 0.479789 0.391782 0.114471
C5_4 C 0.55148(15) 0.3866(3) 0.16501(14)
C6_4 C 0.57297(15) 0.3249(3) 0.14505(14)
N2_4 N 0.62114(13) 0.3102(3) 0.17136(13)
C7_4 C 0.64221(15) 0.2548(3) 0.15485(15)
N3_4 N 0.69085(13) 0.2356(3) 0.17969(13)
C8_4 C 0.70836(15) 0.1773(3) 0.16168(15)
C9_4 C 0.76139(16) 0.1560(3) 0.19251(15)
C10_4 C 0.78711(18) 0.2021(4) 0.23250(19)
H5_4 H 0.771907 0.248273 0.238643
C11_4 C 0.83528(18) 0.1800(4) 0.26334(18)
H6_4 H 0.853497 0.210233 0.291011
C12_4 C 0.85601(16) 0.1126(3) 0.25257(15)
H7_4 H 0.888285 0.095885 0.274361
N4_4 N 0.83309(12) 0.0699(2) 0.21323(11)
C13_4 C 0.78589(14) 0.0912(3) 0.18365(14)
H8_4 H 0.768882 0.060694 0.155834
N5_4 N 0.68444(13) 0.1355(2) 0.12163(12)
C14_4 C 0.63564(15) 0.1558(3) 0.09587(14)
N6_4 N 0.60779(12) 0.1178(2) 0.05503(12)
C15_4 C 0.55985(15) 0.1408(3) 0.03399(13)
N8_4 N 0.53510(12) 0.1956(2) 0.04749(12)
C21_4 C 0.56298(15) 0.2341(3) 0.08794(13)
N9_4 N 0.54195(12) 0.2910(2) 0.10459(12)
C22_4 C 0.61371(14) 0.2152(3) 0.11277(14)
C38_4 C 0.97060(14) 0.0897(2) 0.01206(13)
C39_4 C 0.94959(14) 0.0574(2) 0.03982(13)
H21_4 H 0.914490 0.050647 0.026781
N16_4 N 0.97720(12) 0.0355(2) 0.08428(11)
C47_4 C 0.70367(15) 0.0239(3) 0.00156(14)
H25_4 H 0.671505 0.021355 0.000797
C48_4 C 0.74530(15) 0.0260(3) 0.04377(14)
H26_4 H 0.741781 0.023066 0.072016
C49_4 C 0.79257(13) 0.0324(2) 0.04536(12)
C50_4 C 0.79728(14) 0.0366(3) 0.00380(13)
H27_4 H 0.829270 0.043197 0.004596
C52_4 C 0.83818(13) 0.0303(2) 0.09113(12)
O3_4 O 0.83247(9) 0.00453(16) 0.12582(8)
O4_4 O 0.87854(9) 0.05291(16) 0.09121(9)
O9_4 O 0.97749(10) 0.08843(16) 0.17281(9)
O10_4 O 0.91815(10) 0.09574(16) 0.19790(9)
C61_4 C 0.95660(14) 0.1210(2) 0.19535(13)
C62_4 C 0.97881(15) 0.1967(2) 0.22256(13)
C66_4 C 0.97905(19) 0.2987(3) 0.27717(19)
H35_4 H 0.964325 0.321120 0.295693
C67_4 C 0.95848(19) 0.2304(3) 0.25031(19)
H36_4 H 0.929883 0.206209 0.250933
H65_4 H 0.701523 0.0919462 0.111334
C16_4 C 0.52851(15) 0.1007(3) 0.98876(14)
C17_4 C 0.54983(14) 0.0654(2) 0.96242(13)
H9_4 H 0.585077 0.065737 0.974329
N7_4 N 0.52298(12) 0.0308(2) 0.92086(11)
C18_2 C 0.47323(15) 0.0288(3) 0.90475(15)
H10_2 H 0.453976 0.004235 0.875326
C19_2 C 0.44903(16) 0.0610(3) 0.92913(16)
H11_2 H 0.413825 0.057648 0.917103
C20_2 C 0.47691(16) 0.0983(3) 0.97141(16)
H12_2 H 0.460992 0.122125 0.988532
C23_4 C 0.91584(14) 0.3773(3) 0.78064(13)
H13_4 H 0.881223 0.365808 0.768115
C24_4 C 0.98076(14) 0.4424(3) 0.77486(14)
H14_4 H 0.992839 0.477357 0.758392
C26_4 C 0.99744(15) 0.3581(3) 0.84099(15)
C27_4 C 0.94692(14) 0.3418(3) 0.82251(13)
C28_4 C 0.92501(15) 0.2837(3) 0.84432(14)
N11_4 N 0.87681(12) 0.2670(2) 0.81805(11)
C29_4 C 0.85650(15) 0.2137(3) 0.83700(13)
N12_4 N 0.80805(12) 0.1922(2) 0.81261(12)
C30_4 C 0.79100(14) 0.1381(3) 0.83366(14)
C31_4 C 0.73790(14) 0.1147(3) 0.80375(13)
C32_4 C 0.71197(17) 0.1519(3) 0.76072(15)
H17_4 H 0.727377 0.193048 0.750715
C33_4 C 0.66306(16) 0.1283(3) 0.73223(15)
H18_4 H 0.644685 0.152694 0.702578
C34_4 C 0.64226(15) 0.0688(3) 0.74825(13)
H19_4 H 0.609117 0.052365 0.728740
C35_4 C 0.71340(14) 0.0566(2) 0.81715(13)
H20_4 H 0.730656 0.032155 0.846992
N14_4 N 0.81464(12) 0.1036(2) 0.87578(11)
C36_4 C 0.86303(15) 0.1259(3) 0.90063(13)
N15_4 N 0.89107(12) 0.0953(2) 0.94391(11)
C37_4 C 0.93867(15) 0.1200(3) 0.96406(14)
N17_4 N 0.96305(12) 0.1701(2) 0.94769(11)
C43_4 C 0.93514(15) 0.2019(3) 0.90532(13)
N18_4 N 0.95592(12) 0.2558(2) 0.88663(11)
C44_4 C 0.88464(14) 0.1809(3) 0.88103(13)
O1_4 O 0.62231(9) 0.03780(16) 0.91360(9)
C45_4 C 0.66301(14) 0.0162(2) 0.91434(13)
C46_4 C 0.70854(14) 0.0255(2) 0.95999(13)
C51_4 C 0.75576(14) 0.0311(3) 0.96137(13)
H28_4 H 0.759397 0.031237 0.933142
H66_4 H 0.992035 0.273474 0.903452
Co1_4 Co 0.94399(2) 0.99407(3) 0.12557(2)
O5_4 O 0.92952(9) 0.92259(16) 0.17448(9)
C53_4 C 0.97280(14) 0.8910(2) 0.18890(13)
C54_4 C 0.98814(14) 0.8275(2) 0.22577(14)
C55_4 C 0.95294(15) 0.7910(3) 0.23709(15)
H29_4 H 0.919113 0.807644 0.222090
C56_4 C 0.96731(15) 0.7301(3) 0.27031(15)
H30_4 H 0.943222 0.705157 0.278083
O13_4 O 0.84379(10) 0.88723(17) 0.19558(10)
C69_4 C 0.80016(15) 0.8660(3) 0.17110(14)
H37_4 H 0.778837 0.902011 0.147633
N19_4 N 0.78200(13) 0.7958(2) 0.17609(12)
C70_4 C 0.81214(18) 0.7383(3) 0.21190(18)
H38_4 H 0.797548 0.730097 0.233863
H39_4 H 0.813137 0.686580 0.197247
H40_4 H 0.846037 0.759492 0.228725
C71_4 C 0.73008(17) 0.7735(3) 0.14776(18)
H41_4 H 0.713008 0.817644 0.126094
H42_4 H 0.728625 0.724296 0.130014
H43_4 H 0.713739 0.763645 0.168161
O14_4 O 0.90979(10) 0.90232(17) 0.07422(10)
C72_4 C 0.92670(15) 0.8421(2) 0.06275(13)
H44_4 H 0.957877 0.821267 0.084566
N20_4 N 0.90414(14) 0.8054(2) 0.02235(13)
H47_5 H 0.843214 0.875637 0.000030
C74_4 C 0.9254(2) 0.7333(3) 0.0109(2)
H48_4 H 0.903257 0.686989 0.006323
H50_4 H 0.958125 0.721685 0.036529
C76_4 C 0.64123(19) 0.8159(3) 0.02310(17)
H52_4 H 0.634050 0.821878 0.050218
H53_4 H 0.669037 0.778152 0.030700
H54_4 H 0.650140 0.868675 0.014882
H56_4 H 0.571698 0.707033 0.016981
C73_4 C 0.8575(2) 0.8360(4) 0.98632(18)
H45_4 H 0.863619 0.861950 0.961626
H46_4 H 0.834077 0.791028 0.973054
H47_6 H 0.843214 0.875637 1.000030
H49_4 H 0.929105 0.743090 0.982153
O15_4 O 0.58907(10) 0.89440(17) 0.93848(10)
C75_4 C 0.57473(14) 0.8275(2) 0.94499(13)
H51_4 H 0.545583 0.805527 0.920595
N21_4 N 0.59720(13) 0.7845(2) 0.98359(12)
C77_4 C 0.57831(19) 0.7058(3) 0.98938(18)
H55_4 H 0.603137 0.663935 0.993411
H57_4 H 0.547408 0.693551 0.961644
C3_3 C 0.98628(17) 0.0327(4) 0.66777(18)
H3_3 H 0.953048 0.012991 0.653759
H4_3 H 0.979789 0.108218 0.614471
C18_3 C 0.97323(15) 0.4712(3) 0.40475(15)
H10_3 H 0.953976 0.495765 0.375326
C19_3 C 0.94903(16) 0.4390(3) 0.42913(16)
H11_3 H 0.913825 0.442352 0.417103
C20_3 C 0.97691(16) 0.4017(3) 0.47141(16)
H12_3 H 0.960992 0.377875 0.488532
C25_3 C 0.98539(15) 0.5905(3) 0.18334(15)
H15_3 H 0.950945 0.578056 0.171464
H16_3 H 0.980093 0.665368 0.130257
C3_4 C 0.01372(17) 0.9673(4) 0.33223(18)
H3_4 H 0.046952 0.987009 0.346241
H4_4 H 0.020211 0.891782 0.385529
C18_4 C 0.02677(15) 0.5288(3) 0.59525(15)
H10_4 H 0.046024 0.504235 0.624674
C19_4 C 0.05097(16) 0.5610(3) 0.57087(16)
H11_4 H 0.086175 0.557648 0.582897
C20_4 C 0.02309(16) 0.5983(3) 0.52859(16)
H12_4 H 0.039008 0.622125 0.511468
C25_4 C 0.01461(15) 0.4095(3) 0.81666(15)
H15_4 H 0.049055 0.421944 0.828536
H16_4 H 0.019907 0.334632 0.869743
loop_
_geom_bond_atom_site_label_1
_geom_bond_atom_site_label_2
_geom_bond_site_symmetry_1
_geom_bond_site_symmetry_2
Co1 N16 1_555 1_555
Co2 N4 1_555 1_555
Co4 N7 1_555 1_555
C1 H1 1_555 1_555
N1 C1 1_555 1_555
C2 N1 1_555 1_555
C5 C1 1_555 1_555
C6 C5 1_555 1_555
N2 C6 1_555 1_555
C7 N2 1_555 1_555
N3 C7 1_555 1_555
C8 N3 1_555 1_555
C9 C8 1_555 1_555
C10 C9 1_555 1_555
H5 C10 1_555 1_555
C11 C10 1_555 1_555
H6 C11 1_555 1_555
C12 C11 1_555 1_555
H7 C12 1_555 1_555
N4 C12 1_555 1_555
C13 C9 1_555 1_555
H8 C13 1_555 1_555
N5 C8 1_555 1_555
C14 N5 1_555 1_555
N6 C14 1_555 1_555
C15 N6 1_555 1_555
C16 C15 1_555 1_555
C17 C16 1_555 1_555
H9 C17 1_555 1_555
N7 C17 1_555 1_555
N8 C15 1_555 1_555
C21 N8 1_555 1_555
N9 C6 1_555 1_555
C22 C7 1_555 1_555
C23 H13 1_555 1_555
N10 C23 1_555 1_555
C24 N10 1_555 1_555
H14 C24 1_555 1_555
C25 C24 1_555 1_555
H15 C25 1_555 1_555
C26 C25 1_555 1_555
H16 C26 1_555 1_555
C27 C23 1_555 1_555
C28 C27 1_555 1_555
N11 C28 1_555 1_555
C29 N11 1_555 1_555
N12 C29 1_555 1_555
C30 N12 1_555 1_555
C31 C30 1_555 1_555
C32 C31 1_555 1_555
H17 C32 1_555 1_555
C33 C32 1_555 1_555
H18 C33 1_555 1_555
C34 C33 1_555 1_555
H19 C34 1_555 1_555
N13 C34 1_555 1_555
C35 C31 1_555 1_555
H20 C35 1_555 1_555
N14 C30 1_555 1_555
C36 N14 1_555 1_555
N15 C36 1_555 1_555
C37 N15 1_555 1_555
C38 C37 1_555 1_555
C39 C38 1_555 1_555
H21 C39 1_555 1_555
N16 C39 1_555 1_555
C40 N16 1_555 1_555
H22 C40 1_555 1_555
C41 C40 1_555 1_555
H23 C41 1_555 1_555
C42 C38 1_555 1_555
H24 C42 1_555 1_555
N17 C37 1_555 1_555
C43 N17 1_555 1_555
N18 C28 1_555 1_555
C44 C29 1_555 1_555
O1 Co4 1_555 1_555
O2 C45 1_555 1_555
C45 O1 1_555 1_555
C46 C45 1_555 1_555
C47 C46 1_555 1_555
H25 C47 1_555 1_555
C48 C47 1_555 1_555
H26 C48 1_555 1_555
C49 C48 1_555 1_555
C50 C49 1_555 1_555
H27 C50 1_555 1_555
C51 C46 1_555 1_555
H28 C51 1_555 1_555
C52 C49 1_555 1_555
O3 Co2 1_555 1_555
O4 Co1 1_555 1_555
O5 Co1 1_555 1_555
C53 O5 1_555 1_555
O6 Co1 1_555 1_555
C54 C53 1_555 1_555
C55 C54 1_555 1_555
H29 C55 1_555 1_555
C56 C55 1_555 1_555
H30 C56 1_555 1_555
C57 C56 1_555 1_555
C58 C57 1_555 1_555
H31 C58 1_555 1_555
C59 C54 1_555 1_555
H32 C59 1_555 1_555
C60 C57 1_555 1_555
O7 C60 1_555 1_555
O8 C60 1_555 1_555
O9 Co1 1_555 1_555
O10 Co2 1_555 1_555
C61 O9 1_555 1_555
C62 C61 1_555 1_555
C63 C62 1_555 1_555
H33 C63 1_555 1_555
C64 C63 1_555 1_555
H34 C64 1_555 1_555
C65 C64 1_555 1_555
C66 C65 1_555 1_555
H35 C66 1_555 1_555
C67 C62 1_555 1_555
H36 C67 1_555 1_555
C68 C65 1_555 1_555
O11 C68 1_555 1_555
O12 C68 1_555 1_555
O13 Co2 1_555 1_555
C69 O13 1_555 1_555
H37 C69 1_555 1_555
N19 C69 1_555 1_555
C70 N19 1_555 1_555
H38 C70 1_555 1_555
H39 C70 1_555 1_555
H40 C70 1_555 1_555
C71 N19 1_555 1_555
H41 C71 1_555 1_555
H42 C71 1_555 1_555
H43 C71 1_555 1_555
O14 Co1 1_555 1_555
C72 O14 1_555 1_555
H44 C72 1_555 1_555
N20 C72 1_555 1_555
C73 N20 1_555 1_555
H45 C73 1_555 1_555
H46 C73 1_555 1_555
H47 C73 1_555 1_555
C74 N20 1_555 1_555
H48 C74 1_555 1_555
H49 C74 1_555 1_555
H50 C74 1_555 1_555
O15 Co4 1_555 1_555
C75 O15 1_555 1_555
H51 C75 1_555 1_555
N21 C75 1_555 1_555
C76 N21 1_555 1_555
H52 C76 1_555 1_555
H53 C76 1_555 1_555
H54 C76 1_555 1_555
C77 N21 1_555 1_555
H55 C77 1_555 1_555
H56 C77 1_555 1_555
H57 C77 1_555 1_555
Co5 N1 1_555 1_555
Co6 O8 1_555 1_555
Co7 N10 1_555 1_555
Co8 N13 1_555 1_555
Co10 O7 1_555 1_555
N23 Co2 1_555 1_555
O18 Co4 1_555 1_555
O20 Co4 1_555 1_555
O21 Co4 1_555 1_555
Co2 O5 1_555 1_555
C4 C5 1_555 1_555
N4 C13 1_555 1_555
C14 C22 1_555 1_555
C21 N9 1_555 1_555
C21 C22 1_555 1_555
C26 C27 1_555 1_555
N13 C35 1_555 1_555
C36 C44 1_555 1_555
C41 C42 1_555 1_555
C43 N18 1_555 1_555
C43 C44 1_555 1_555
O2 Co8 1_555 1_555
C50 C51 1_555 1_555
C52 O3 1_555 1_555
C52 O4 1_555 1_555
C53 O6 1_555 1_555
C58 C59 1_555 1_555
O8 Co10 1_555 1_555
O10 C61 1_555 1_555
C66 C67 1_555 1_555
Co8 O20 1_555 1_555
N5 H65 1_555 1_555
N18 H66 1_555 1_555
O16 Co6 1_555 1_555
C78 O16 1_555 1_555
H58 C78 1_555 1_555
N22 C78 1_555 1_555
C79 N22 1_555 1_555
H59 C79 1_555 1_555
H60 C79 1_555 1_555
H61 C79 1_555 1_555
C80 N22 1_555 1_555
H62 C80 1_555 1_555
H63 C80 1_555 1_555
H64 C80 1_555 1_555
N24 Co6 1_555 1_555
O17 Co6 1_555 1_555
H45_2 C73_2 1_555 1_555
H46_2 C73_2 1_555 1_555
H47_2 C73_2 1_555 1_555
O15_2 Co4_2 1_555 1_555
C75_2 O15_2 1_555 1_555
H51_2 C75_2 1_555 1_555
N21_2 C75_2 1_555 1_555
C77_2 N21_2 1_555 1_555
H55_2 C77_2 1_555 1_555
H57_2 C77_2 1_555 1_555
O18_2 Co4_2 1_555 1_555
O20_2 Co4_2 1_555 1_555
O2_2 Co7 1_555 1_555
Co7 O20_2 1_555 1_555
O5_2 Co1_2 1_555 1_555
C53_2 O5_2 1_555 1_555
C54_2 C53_2 1_555 1_555
C55_2 C54_2 1_555 1_555
H29_2 C55_2 1_555 1_555
C56_2 C55_2 1_555 1_555
H30_2 C56_2 1_555 1_555
O13_2 Co5 1_555 1_555
C69_2 O13_2 1_555 1_555
H37_2 C69_2 1_555 1_555
N19_2 C69_2 1_555 1_555
C70_2 N19_2 1_555 1_555
H38_2 C70_2 1_555 1_555
H39_2 C70_2 1_555 1_555
H40_2 C70_2 1_555 1_555
C71_2 N19_2 1_555 1_555
H41_2 C71_2 1_555 1_555
H42_2 C71_2 1_555 1_555
H43_2 C71_2 1_555 1_555
O14_2 Co1_2 1_555 1_555
C72_2 O14_2 1_555 1_555
H44_2 C72_2 1_555 1_555
N20_2 C72_2 1_555 1_555
C74_2 N20_2 1_555 1_555
H48_2 C74_2 1_555 1_555
H50_2 C74_2 1_555 1_555
H52_2 C76_2 1_555 1_555
H53_2 C76_2 1_555 1_555
H54_2 C76_2 1_555 1_555
Co5 O5_2 1_555 1_555
C17_2 C16_2 1_555 1_555
H9_2 C17_2 1_555 1_555
N7_2 C17_2 1_555 1_555
C18 N7_2 1_555 1_555
H10 C18 1_555 1_555
C19 C18 1_555 1_555
H11 C19 1_555 1_555
C20 C16_2 1_555 1_555
H12 C20 1_555 1_555
C23_2 H13_2 1_555 1_555
N10_2 C23_2 1_555 1_555
C24_2 N10_2 1_555 1_555
H14_2 C24_2 1_555 1_555
C27_2 C23_2 1_555 1_555
C28_2 C27_2 1_555 1_555
N11_2 C28_2 1_555 1_555
C29_2 N11_2 1_555 1_555
N12_2 C29_2 1_555 1_555
C30_2 N12_2 1_555 1_555
C31_2 C30_2 1_555 1_555
C32_2 C31_2 1_555 1_555
H17_2 C32_2 1_555 1_555
C33_2 C32_2 1_555 1_555
H18_2 C33_2 1_555 1_555
C34_2 C33_2 1_555 1_555
H19_2 C34_2 1_555 1_555
N13_2 C34_2 1_555 1_555
C35_2 C31_2 1_555 1_555
H20_2 C35_2 1_555 1_555
N14_2 C30_2 1_555 1_555
C36_2 N14_2 1_555 1_555
N15_2 C36_2 1_555 1_555
C37_2 N15_2 1_555 1_555
N17_2 C37_2 1_555 1_555
C43_2 N17_2 1_555 1_555
N18_2 C28_2 1_555 1_555
C44_2 C29_2 1_555 1_555
C45_2 O1_2 1_555 1_555
C46_2 C45_2 1_555 1_555
C51_2 C46_2 1_555 1_555
H28_2 C51_2 1_555 1_555
Co8 N10_2 1_555 1_555
C19 C20 1_555 1_555
C26_2 C27_2 1_555 1_555
N13_2 C35_2 1_555 1_555
C36_2 C44_2 1_555 1_555
C43_2 N18_2 1_555 1_555
C43_2 C44_2 1_555 1_555
N18_2 H66_2 1_555 1_555
C1_2 H1_2 1_555 1_555
N23 C1_2 1_555 1_555
C2_2 N23 1_555 1_555
H2_2 C2_2 1_555 1_555
C3 C2_2 1_555 1_555
H3 C3 1_555 1_555
C4_2 C3 1_555 1_555
H4 C4_2 1_555 1_555
C5_2 C1_2 1_555 1_555
C6_2 C5_2 1_555 1_555
N2_2 C6_2 1_555 1_555
C7_2 N2_2 1_555 1_555
N3_2 C7_2 1_555 1_555
C8_2 N3_2 1_555 1_555
C9_2 C8_2 1_555 1_555
C10_2 C9_2 1_555 1_555
H5_2 C10_2 1_555 1_555
C11_2 C10_2 1_555 1_555
H6_2 C11_2 1_555 1_555
C12_2 C11_2 1_555 1_555
H7_2 C12_2 1_555 1_555
N4_2 C12_2 1_555 1_555
C13_2 C9_2 1_555 1_555
H8_2 C13_2 1_555 1_555
N5_2 C8_2 1_555 1_555
C14_2 N5_2 1_555 1_555
N6_2 C14_2 1_555 1_555
C15_2 N6_2 1_555 1_555
N8_2 C15_2 1_555 1_555
C21_2 N8_2 1_555 1_555
N9_2 C6_2 1_555 1_555
C22_2 C7_2 1_555 1_555
C39_2 C38_2 1_555 1_555
H21_2 C39_2 1_555 1_555
N16_2 C39_2 1_555 1_555
H25_2 C47_2 1_555 1_555
C48_2 C47_2 1_555 1_555
H26_2 C48_2 1_555 1_555
C49_2 C48_2 1_555 1_555
C50_2 C49_2 1_555 1_555
H27_2 C50_2 1_555 1_555
C52_2 C49_2 1_555 1_555
C61_2 O9_2 1_555 1_555
C62_2 C61_2 1_555 1_555
H35_2 C66_2 1_555 1_555
C67_2 C62_2 1_555 1_555
H36_2 C67_2 1_555 1_555
C4_2 C5_2 1_555 1_555
N4_2 C13_2 1_555 1_555
C14_2 C22_2 1_555 1_555
C21_2 N9_2 1_555 1_555
C21_2 C22_2 1_555 1_555
C52_2 O3_2 1_555 1_555
C52_2 O4_2 1_555 1_555
O10_2 C61_2 1_555 1_555
C66_2 C67_2 1_555 1_555
N5_2 H65_2 1_555 1_555
C58_2 C57_2 1_555 1_555
H31_2 C58_2 1_555 1_555
H32_2 C59_2 1_555 1_555
C60_2 C57_2 1_555 1_555
O7_2 C60_2 1_555 1_555
O8_2 C60_2 1_555 1_555
Co6_2 O8_2 1_555 1_555
Co10_2 O7_2 1_555 1_555
C58_2 C59_2 1_555 1_555
O8_2 Co10_2 1_555 1_555
Co6_2 O12_2 1_555 1_555
H22_2 C40_2 1_555 1_555
C41_2 C40_2 1_555 1_555
H23_2 C41_2 1_555 1_555
H24_2 C42_2 1_555 1_555
H33_2 C63_2 1_555 1_555
C64_2 C63_2 1_555 1_555
H34_2 C64_2 1_555 1_555
C65_2 C64_2 1_555 1_555
C68_2 C65_2 1_555 1_555
O11_2 C68_2 1_555 1_555
O12_2 C68_2 1_555 1_555
O16_2 Co6_2 1_555 1_555
C78_2 O16_2 1_555 1_555
H58_2 C78_2 1_555 1_555
N22_2 C78_2 1_555 1_555
C79_2 N22_2 1_555 1_555
H59_2 C79_2 1_555 1_555
H60_2 C79_2 1_555 1_555
H61_2 C79_2 1_555 1_555
C80_2 N22_2 1_555 1_555
H62_2 C80_2 1_555 1_555
H63_2 C80_2 1_555 1_555
H64_2 C80_2 1_555 1_555
Co10_2 O11_2 1_555 1_555
N24_2 Co6_2 1_555 1_555
N25_2 Co6_2 1_555 1_555
O17_2 Co6_2 1_555 1_555
C41_2 C42_2 1_555 1_555
O16_3 Co7 1_555 1_555
C78_3 O16_3 1_555 1_555
H58_3 C78_3 1_555 1_555
N22_3 C78_3 1_555 1_555
C79_3 N22_3 1_555 1_555
H59_3 C79_3 1_555 1_555
H60_3 C79_3 1_555 1_555
H61_3 C79_3 1_555 1_555
C80_3 N22_3 1_555 1_555
H62_3 C80_3 1_555 1_555
H63_3 C80_3 1_555 1_555
H64_3 C80_3 1_555 1_555
Co1_3 N16_3 1_555 1_555
Co2_2 N4_3 1_555 1_555
Co10_2 N7_3 1_555 1_555
C1_3 H1_3 1_555 1_555
N1_2 C1_3 1_555 1_555
C2_3 N1_2 1_555 1_555
C5_3 C1_3 1_555 1_555
C6_3 C5_3 1_555 1_555
N2_3 C6_3 1_555 1_555
C7_3 N2_3 1_555 1_555
N3_3 C7_3 1_555 1_555
C8_3 N3_3 1_555 1_555
C9_3 C8_3 1_555 1_555
C10_3 C9_3 1_555 1_555
H5_3 C10_3 1_555 1_555
C11_3 C10_3 1_555 1_555
H6_3 C11_3 1_555 1_555
C12_3 C11_3 1_555 1_555
H7_3 C12_3 1_555 1_555
N4_3 C12_3 1_555 1_555
C13_3 C9_3 1_555 1_555
H8_3 C13_3 1_555 1_555
N5_3 C8_3 1_555 1_555
C14_3 N5_3 1_555 1_555
N6_3 C14_3 1_555 1_555
C15_3 N6_3 1_555 1_555
C16_3 C15_3 1_555 1_555
C17_3 C16_3 1_555 1_555
H9_3 C17_3 1_555 1_555
N7_3 C17_3 1_555 1_555
N8_3 C15_3 1_555 1_555
C21_3 N8_3 1_555 1_555
N9_3 C6_3 1_555 1_555
C22_3 C7_3 1_555 1_555
C23_3 H13_3 1_555 1_555
N24 C23_3 1_555 1_555
C24_3 N24 1_555 1_555
H14_3 C24_3 1_555 1_555
C25_2 C24_3 1_555 1_555
H15_2 C25_2 1_555 1_555
C26_3 C25_2 1_555 1_555
H16_2 C26_3 1_555 1_555
C27_3 C23_3 1_555 1_555
C28_3 C27_3 1_555 1_555
N11_3 C28_3 1_555 1_555
C29_3 N11_3 1_555 1_555
N12_3 C29_3 1_555 1_555
C30_3 N12_3 1_555 1_555
C31_3 C30_3 1_555 1_555
C32_3 C31_3 1_555 1_555
H17_3 C32_3 1_555 1_555
C33_3 C32_3 1_555 1_555
H18_3 C33_3 1_555 1_555
C34_3 C33_3 1_555 1_555
H19_3 C34_3 1_555 1_555
N25_2 C34_3 1_555 1_555
C35_3 C31_3 1_555 1_555
H20_3 C35_3 1_555 1_555
N14_3 C30_3 1_555 1_555
C36_3 N14_3 1_555 1_555
N15_3 C36_3 1_555 1_555
C37_3 N15_3 1_555 1_555
C38_3 C37_3 1_555 1_555
C39_3 C38_3 1_555 1_555
H21_3 C39_3 1_555 1_555
N16_3 C39_3 1_555 1_555
C40_3 N16_3 1_555 1_555
H22_3 C40_3 1_555 1_555
C41_3 C40_3 1_555 1_555
H23_3 C41_3 1_555 1_555
C42_3 C38_3 1_555 1_555
H24_3 C42_3 1_555 1_555
N17_3 C37_3 1_555 1_555
C43_3 N17_3 1_555 1_555
N18_3 C28_3 1_555 1_555
C44_3 C29_3 1_555 1_555
O1_3 Co10_2 1_555 1_555
O17_2 C45_3 1_555 1_555
C45_3 O1_3 1_555 1_555
C46_3 C45_3 1_555 1_555
C47_3 C46_3 1_555 1_555
H25_3 C47_3 1_555 1_555
C48_3 C47_3 1_555 1_555
H26_3 C48_3 1_555 1_555
C49_3 C48_3 1_555 1_555
C50_3 C49_3 1_555 1_555
H27_3 C50_3 1_555 1_555
C51_3 C46_3 1_555 1_555
H28_3 C51_3 1_555 1_555
C52_3 C49_3 1_555 1_555
O3_3 Co2_2 1_555 1_555
O4_3 Co1_3 1_555 1_555
O5_3 Co1_3 1_555 1_555
C53_3 O5_3 1_555 1_555
O6_3 Co1_3 1_555 1_555
C54_3 C53_3 1_555 1_555
C55_3 C54_3 1_555 1_555
H29_3 C55_3 1_555 1_555
C56_3 C55_3 1_555 1_555
H30_3 C56_3 1_555 1_555
C57_3 C56_3 1_555 1_555
C58_3 C57_3 1_555 1_555
H31_3 C58_3 1_555 1_555
C59_3 C54_3 1_555 1_555
H32_3 C59_3 1_555 1_555
C60_3 C57_3 1_555 1_555
O18_2 C60_3 1_555 1_555
O20_2 C60_3 1_555 1_555
O9_3 Co1_3 1_555 1_555
O10_3 Co2_2 1_555 1_555
C61_3 O9_3 1_555 1_555
C62_3 C61_3 1_555 1_555
C63_3 C62_3 1_555 1_555
H33_3 C63_3 1_555 1_555
C64_3 C63_3 1_555 1_555
H34_3 C64_3 1_555 1_555
C65_3 C64_3 1_555 1_555
C66_3 C65_3 1_555 1_555
H35_3 C66_3 1_555 1_555
C67_3 C62_3 1_555 1_555
H36_3 C67_3 1_555 1_555
C68_3 C65_3 1_555 1_555
O21_2 C68_3 1_555 1_555
O12_3 C68_3 1_555 1_555
O13_3 Co2_2 1_555 1_555
C69_3 O13_3 1_555 1_555
H37_3 C69_3 1_555 1_555
N19_3 C69_3 1_555 1_555
C70_3 N19_3 1_555 1_555
H38_3 C70_3 1_555 1_555
H39_3 C70_3 1_555 1_555
H40_3 C70_3 1_555 1_555
C71_3 N19_3 1_555 1_555
H41_3 C71_3 1_555 1_555
H42_3 C71_3 1_555 1_555
H43_3 C71_3 1_555 1_555
O14_3 Co1_3 1_555 1_555
C72_3 O14_3 1_555 1_555
H44_3 C72_3 1_555 1_555
N20_3 C72_3 1_555 1_555
C73_3 N20_3 1_555 1_555
H45_3 C73_3 1_555 1_555
H46_3 C73_3 1_555 1_555
H47_4 C73_3 1_555 1_555
C74_3 N20_3 1_555 1_555
H48_3 C74_3 1_555 1_555
H49_3 C74_3 1_555 1_555
H50_3 C74_3 1_555 1_555
O15_3 Co10_2 1_555 1_555
C75_3 O15_3 1_555 1_555
H51_3 C75_3 1_555 1_555
N21_3 C75_3 1_555 1_555
C76_3 N21_3 1_555 1_555
H52_3 C76_3 1_555 1_555
H53_3 C76_3 1_555 1_555
H54_3 C76_3 1_555 1_555
C77_3 N21_3 1_555 1_555
H55_3 C77_3 1_555 1_555
H56_3 C77_3 1_555 1_555
H57_3 C77_3 1_555 1_555
Co5_2 N1_2 1_555 1_555
N23_2 Co2_2 1_555 1_555
Co2_2 O5_3 1_555 1_555
C4_3 C5_3 1_555 1_555
N4_3 C13_3 1_555 1_555
C14_3 C22_3 1_555 1_555
C21_3 N9_3 1_555 1_555
C21_3 C22_3 1_555 1_555
C26_3 C27_3 1_555 1_555
N25_2 C35_3 1_555 1_555
C36_3 C44_3 1_555 1_555
C41_3 C42_3 1_555 1_555
C43_3 N18_3 1_555 1_555
C43_3 C44_3 1_555 1_555
C50_3 C51_3 1_555 1_555
C52_3 O3_3 1_555 1_555
C52_3 O4_3 1_555 1_555
C53_3 O6_3 1_555 1_555
C58_3 C59_3 1_555 1_555
O10_3 C61_3 1_555 1_555
C66_3 C67_3 1_555 1_555
N5_3 H65_3 1_555 1_555
N18_3 H66_3 1_555 1_555
Co8 O12_4 1_555 1_555
H22_4 C40_4 1_555 1_555
C41_4 C40_4 1_555 1_555
H23_4 C41_4 1_555 1_555
H24_4 C42_4 1_555 1_555
H33_4 C63_4 1_555 1_555
C64_4 C63_4 1_555 1_555
H34_4 C64_4 1_555 1_555
C65_4 C64_4 1_555 1_555
C68_4 C65_4 1_555 1_555
O21 C68_4 1_555 1_555
O12_4 C68_4 1_555 1_555
O16_4 Co8 1_555 1_555
C78_4 O16_4 1_555 1_555
H58_4 C78_4 1_555 1_555
N22_4 C78_4 1_555 1_555
C79_4 N22_4 1_555 1_555
H59_4 C79_4 1_555 1_555
H60_4 C79_4 1_555 1_555
H61_4 C79_4 1_555 1_555
C80_4 N22_4 1_555 1_555
H62_4 C80_4 1_555 1_555
H63_4 C80_4 1_555 1_555
H64_4 C80_4 1_555 1_555
C41_4 C42_4 1_555 1_555
C58_4 C57_4 1_555 1_555
H31_4 C58_4 1_555 1_555
H32_4 C59_4 1_555 1_555
C60_4 C57_4 1_555 1_555
O18 C60_4 1_555 1_555
O20 C60_4 1_555 1_555
C58_4 C59_4 1_555 1_555
C1_4 H1_4 1_555 1_555
N23_2 C1_4 1_555 1_555
C2_4 N23_2 1_555 1_555
H2_4 C2_4 1_555 1_555
C3_2 C2_4 1_555 1_555
H3_2 C3_2 1_555 1_555
C4_4 C3_2 1_555 1_555
H4_2 C4_4 1_555 1_555
C5_4 C1_4 1_555 1_555
C6_4 C5_4 1_555 1_555
N2_4 C6_4 1_555 1_555
C7_4 N2_4 1_555 1_555
N3_4 C7_4 1_555 1_555
C8_4 N3_4 1_555 1_555
C9_4 C8_4 1_555 1_555
C10_4 C9_4 1_555 1_555
H5_4 C10_4 1_555 1_555
C11_4 C10_4 1_555 1_555
H6_4 C11_4 1_555 1_555
C12_4 C11_4 1_555 1_555
H7_4 C12_4 1_555 1_555
N4_4 C12_4 1_555 1_555
C13_4 C9_4 1_555 1_555
H8_4 C13_4 1_555 1_555
N5_4 C8_4 1_555 1_555
C14_4 N5_4 1_555 1_555
N6_4 C14_4 1_555 1_555
C15_4 N6_4 1_555 1_555
N8_4 C15_4 1_555 1_555
C21_4 N8_4 1_555 1_555
N9_4 C6_4 1_555 1_555
C22_4 C7_4 1_555 1_555
C39_4 C38_4 1_555 1_555
H21_4 C39_4 1_555 1_555
N16_4 C39_4 1_555 1_555
H25_4 C47_4 1_555 1_555
C48_4 C47_4 1_555 1_555
H26_4 C48_4 1_555 1_555
C49_4 C48_4 1_555 1_555
C50_4 C49_4 1_555 1_555
H27_4 C50_4 1_555 1_555
C52_4 C49_4 1_555 1_555
C61_4 O9_4 1_555 1_555
C62_4 C61_4 1_555 1_555
H35_4 C66_4 1_555 1_555
C67_4 C62_4 1_555 1_555
H36_4 C67_4 1_555 1_555
C4_4 C5_4 1_555 1_555
N4_4 C13_4 1_555 1_555
C14_4 C22_4 1_555 1_555
C21_4 N9_4 1_555 1_555
C21_4 C22_4 1_555 1_555
C52_4 O3_4 1_555 1_555
C52_4 O4_4 1_555 1_555
O10_4 C61_4 1_555 1_555
C66_4 C67_4 1_555 1_555
N5_4 H65_4 1_555 1_555
C17_4 C16_4 1_555 1_555
H9_4 C17_4 1_555 1_555
N7_4 C17_4 1_555 1_555
C18_2 N7_4 1_555 1_555
H10_2 C18_2 1_555 1_555
C19_2 C18_2 1_555 1_555
H11_2 C19_2 1_555 1_555
C20_2 C16_4 1_555 1_555
H12_2 C20_2 1_555 1_555
C23_4 H13_4 1_555 1_555
N24_2 C23_4 1_555 1_555
C24_4 N24_2 1_555 1_555
H14_4 C24_4 1_555 1_555
C27_4 C23_4 1_555 1_555
C28_4 C27_4 1_555 1_555
N11_4 C28_4 1_555 1_555
C29_4 N11_4 1_555 1_555
N12_4 C29_4 1_555 1_555
C30_4 N12_4 1_555 1_555
C31_4 C30_4 1_555 1_555
C32_4 C31_4 1_555 1_555
H17_4 C32_4 1_555 1_555
C33_4 C32_4 1_555 1_555
H18_4 C33_4 1_555 1_555
C34_4 C33_4 1_555 1_555
H19_4 C34_4 1_555 1_555
N25 C34_4 1_555 1_555
C35_4 C31_4 1_555 1_555
H20_4 C35_4 1_555 1_555
N14_4 C30_4 1_555 1_555
C36_4 N14_4 1_555 1_555
N15_4 C36_4 1_555 1_555
C37_4 N15_4 1_555 1_555
N17_4 C37_4 1_555 1_555
C43_4 N17_4 1_555 1_555
N18_4 C28_4 1_555 1_555
C44_4 C29_4 1_555 1_555
C45_4 O1_4 1_555 1_555
C46_4 C45_4 1_555 1_555
C51_4 C46_4 1_555 1_555
H28_4 C51_4 1_555 1_555
C19_2 C20_2 1_555 1_555
C26_4 C27_4 1_555 1_555
N25 C35_4 1_555 1_555
C36_4 C44_4 1_555 1_555
C43_4 N18_4 1_555 1_555
C43_4 C44_4 1_555 1_555
N18_4 H66_4 1_555 1_555
O5_4 Co1_4 1_555 1_555
C53_4 O5_4 1_555 1_555
C54_4 C53_4 1_555 1_555
C55_4 C54_4 1_555 1_555
H29_4 C55_4 1_555 1_555
C56_4 C55_4 1_555 1_555
H30_4 C56_4 1_555 1_555
O13_4 Co5_2 1_555 1_555
C69_4 O13_4 1_555 1_555
H37_4 C69_4 1_555 1_555
N19_4 C69_4 1_555 1_555
C70_4 N19_4 1_555 1_555
H38_4 C70_4 1_555 1_555
H39_4 C70_4 1_555 1_555
H40_4 C70_4 1_555 1_555
C71_4 N19_4 1_555 1_555
H41_4 C71_4 1_555 1_555
H42_4 C71_4 1_555 1_555
H43_4 C71_4 1_555 1_555
O14_4 Co1_4 1_555 1_555
C72_4 O14_4 1_555 1_555
H44_4 C72_4 1_555 1_555
N20_4 C72_4 1_555 1_555
C74_4 N20_4 1_555 1_555
H48_4 C74_4 1_555 1_555
H50_4 C74_4 1_555 1_555
H52_4 C76_4 1_555 1_555
H53_4 C76_4 1_555 1_555
H54_4 C76_4 1_555 1_555
Co5_2 O5_4 1_555 1_555
H45_4 C73_4 1_555 1_555
H46_4 C73_4 1_555 1_555
H47_6 C73_4 1_555 1_555
O15_4 Co10 1_555 1_555
C75_4 O15_4 1_555 1_555
H51_4 C75_4 1_555 1_555
N21_4 C75_4 1_555 1_555
C77_4 N21_4 1_555 1_555
H55_4 C77_4 1_555 1_555
H57_4 C77_4 1_555 1_555
H3_3 C3_3 1_555 1_555
H10_3 C18_3 1_555 1_555
C19_3 C18_3 1_555 1_555
H11_3 C19_3 1_555 1_555
H12_3 C20_3 1_555 1_555
C19_3 C20_3 1_555 1_555
H15_3 C25_3 1_555 1_555
H3_4 C3_4 1_555 1_555
H10_4 C18_4 1_555 1_555
C19_4 C18_4 1_555 1_555
H11_4 C19_4 1_555 1_555
H12_4 C20_4 1_555 1_555
C19_4 C20_4 1_555 1_555
H15_4 C25_4 1_555 1_555

#END
