
###############################################################################
#
# This file contains modified crystal structure data generated from the
# MOF subset of the Cambridge Structural Database (CSD) v543 
# hosted by the Cambridge Crystallographic Data Centre (CCDC).
#
# This work is licensed under the Creative Commons
# Attribution-NonCommercial-ShareAlike 4.0 International License.
# To view a copy of this license, visit
# http://creativecommons.org/licenses/by-nc-sa/4.0/
# or send a letter to
# Creative Commons, PO Box 1866, Mountain View, CA 94042, USA.
#
# CIF created using the CSD Python API on 29 September 2022
# The structure has been converted into the P1 space group
# The structure has a 3D framework
# The original CSD entry XAPDEY is in the orthorhombic crystal system
# The framework has been calculated to contain at least 10.0% void space
# The void calculation uses a probe of radius 1.32A, grid spacing 0.4
#
###############################################################################

data_XAPDEY
_chemical_formula_moiety         '(C288 H196 I48 N96 Zn24)n'
_symmetry_cell_setting           triclinic
_symmetry_space_group_name_H-M   'P 1'
_symmetry_Int_Tables_number      1
_space_group_name_Hall           'P 1'
loop_
_symmetry_equiv_pos_site_id
_symmetry_equiv_pos_as_xyz
1 x,y,z
_cell_length_a                   27.873(2)
_cell_length_b                   13.7073(10)
_cell_length_c                   45.852(3)
_cell_angle_alpha                90
_cell_angle_beta                 90
_cell_angle_gamma                90
_cell_volume                     17518.4
loop_
_atom_site_label
_atom_site_type_symbol
_atom_site_fract_x
_atom_site_fract_y
_atom_site_fract_z
C1 C 0.0574(3) 0.0094(6) 0.52966(17)
H1 H 0.0393 0.0382 0.5450
C2 C 0.0695(3) 0.0660(6) 0.50582(16)
H2 H 0.0590 0.1319 0.5046
C3 C 0.0967(2) 0.0258(5) 0.48391(13)
C6 C 0.1104(2) 0.0830(5) 0.45748(13)
C7 C 0.1095(2) 0.2235(5) 0.43190(14)
C8 C 0.1424(2) 0.0881(5) 0.41227(13)
C9 C 0.0934(2) 0.3254(5) 0.42879(14)
C10 C 0.0695(3) 0.3735(5) 0.45092(16)
H5 H 0.0649 0.3426 0.4693
C11 C 0.0521(2) 0.4671(5) 0.44626(15)
H6 H 0.0360 0.4996 0.4617
C12 C 0.0816(3) 0.4672(6) 0.39904(17)
H7 H 0.0864 0.5000 0.3810
C13 C 0.0994(3) 0.3745(5) 0.40229(16)
H8 H 0.1158 0.3437 0.3866
C14 C 0.1650(2) 0.0360(5) 0.38757(14)
C15 C 0.1835(3) 0.0860(5) 0.36361(15)
H9 H 0.1815 0.1551 0.3625
C16 C 0.2048(3) 0.0333(5) 0.34166(16)
H10 H 0.2180 0.0679 0.3256
C19 C 0.3080(3) 0.0580(5) 0.76113(15)
H13 H 0.3350 0.0808 0.7718
C20 C 0.3150(2) 0.0215(5) 0.73318(14)
H14 H 0.3463 0.0188 0.7250
C23 C 0.2274(2) 0.0274(4) 0.75885(14)
H16 H 0.1968 0.0272 0.7681
I5 I 0.07733(2) 0.73350(4) 0.374010(16)
I6 I 0.00996(2) 0.72498(4) 0.462890(13)
N2 N 0.0983(2) 0.1778(4) 0.45669(12)
N3 N 0.13216(19) 0.1829(4) 0.40919(11)
N4 N 0.1324(2) 0.0347(4) 0.43598(11)
N5 N 0.0574(2) 0.5134(4) 0.42048(12)
N7 N 0.2648(2) 0.0620(4) 0.77334(11)
Zn3 Zn 0.02786(3) 0.64926(6) 0.413260(19)
Zn4 Zn 0.25552(3) 0.14267(6) 0.810923(16)
C4 C 0.3909(3) 0.0726(5) 0.98587(15)
H3 H 0.3733 0.1032 0.9707
C17 C 0.3112(3) 0.1116(5) 0.86419(15)
H11 H 0.3099 0.1808 0.8642
C18 C 0.3329(3) 0.0648(5) 0.88752(14)
H12 H 0.3460 0.1013 0.9032
I3 I 0.30272(2) 0.30086(4) 0.803622(12)
I4 I 0.16659(2) 0.15082(5) 0.823386(12)
N6 N 0.2922(2) 0.0639(4) 0.84168(12)
C4_2 C 0.1091(3) 0.9274(5) 0.48587(15)
H3_2 H 0.1267 0.8968 0.4707
C5 C 0.0953(3) 0.8756(5) 0.51010(14)
H4 H 0.1038 0.8086 0.5113
C17_2 C 0.1888(3) 0.8884(5) 0.36419(15)
H11_2 H 0.1901 0.8192 0.3642
C18_2 C 0.1671(3) 0.9352(5) 0.38752(14)
H12_2 H 0.1540 0.8987 0.4032
C21 C 0.2762(2) 0.9892(4) 0.71741(13)
C22 C 0.2313(2) 0.9914(4) 0.73056(13)
H15 H 0.2038 0.9687 0.7204
C24 C 0.2809(2) 0.9587(4) 0.68657(13)
C25 C 0.3266(2) 0.9254(4) 0.64692(13)
C26 C 0.2458(2) 0.9226(4) 0.64344(13)
C27 C 0.3743(2) 0.9133(4) 0.63295(14)
C28 C 0.4159(3) 0.9115(7) 0.64952(16)
H17 H 0.4148 0.9208 0.6700
C29 C 0.4592(3) 0.8957(7) 0.63538(17)
H18 H 0.4876 0.8924 0.6468
C30 C 0.4226(2) 0.8892(5) 0.59064(14)
H19 H 0.4247 0.8828 0.5701
C31 C 0.3779(2) 0.9029(5) 0.60319(14)
H20 H 0.3500 0.9052 0.5913
C32 C 0.2020(2) 0.9080(4) 0.62572(13)
C33 C 0.2046(2) 0.8813(4) 0.59675(13)
H21 H 0.2349 0.8748 0.5874
C34 C 0.1628(2) 0.8642(5) 0.58157(13)
H22 H 0.1649 0.8434 0.5618
C35 C 0.1165(2) 0.9039(5) 0.62136(14)
H23 H 0.0858 0.9129 0.6298
C36 C 0.1567(2) 0.9206(4) 0.63845(13)
H24 H 0.1537 0.9401 0.6582
I2 I 0.06761(2) 0.65739(4) 0.558681(13)
I3_2 I 0.19728(2) 0.69914(4) 0.303622(12)
I4_2 I 0.33341(2) 0.84918(5) 0.323386(12)
N1 N 0.0703(2) 0.9151(4) 0.53212(11)
N6_2 N 0.2078(2) 0.9361(4) 0.34168(12)
N8 N 0.32536(19) 0.9490(4) 0.67548(11)
N9 N 0.28809(18) 0.9119(4) 0.63008(11)
N10 N 0.24006(18) 0.9462(4) 0.67150(11)
N11 N 0.46296(19) 0.8848(4) 0.60637(12)
N12 N 0.1191(2) 0.8756(4) 0.59350(11)
Zn1 Zn 0.05765(3) 0.83813(6) 0.570167(17)
Zn2 Zn 0.24448(3) 0.85733(6) 0.310923(16)
N13 N 0.2352(2) 0.9380(4) 0.27334(11)
Zn5 Zn 0.52786(3) 0.85074(6) 0.586740(19)
C1_2 C 0.4426(3) 0.9906(6) 0.02966(17)
H1_2 H 0.4607 0.9618 0.0450
C2_2 C 0.4305(3) 0.9340(6) 0.00582(16)
H2_2 H 0.4410 0.8681 0.0046
C19_2 C 0.1920(3) 0.9420(5) 0.26113(15)
H13_2 H 0.1650 0.9192 0.2718
C20_2 C 0.1850(2) 0.9785(5) 0.23318(14)
H14_2 H 0.1537 0.9812 0.2250
C23_2 C 0.2726(2) 0.9726(4) 0.25885(14)
H16_2 H 0.3032 0.9728 0.2681
H7_2 H 0.5864 1.0000 0.6190
I5_2 I 0.57733(2) 0.76650(4) 0.625990(16)
I6_2 I 0.50996(2) 0.77502(4) 0.537110(13)
N5_2 N 0.5574(2) 0.9866(4) 0.57952(12)
N14 N 0.96296(19) 0.6152(4) 0.39363(12)
C3_2 C 0.4033(2) 0.9742(5) 0.98391(13)
C6_2 C 0.3896(2) 0.9170(5) 0.95748(13)
C7_2 C 0.3905(2) 0.7765(5) 0.93190(14)
C8_2 C 0.3576(2) 0.9119(5) 0.91227(13)
C9_2 C 0.4066(2) 0.6746(5) 0.92879(14)
C10_2 C 0.4305(3) 0.6265(5) 0.95092(16)
H5_2 H 0.4351 0.6574 0.9693
C11_2 C 0.4479(2) 0.5329(5) 0.94626(15)
H6_2 H 0.4640 0.5004 0.9617
C12_2 C 0.4184(3) 0.5328(6) 0.89904(17)
H7_3 H 0.4136 0.5000 0.8810
C13_2 C 0.4006(3) 0.6255(5) 0.90229(16)
H8_2 H 0.3842 0.6563 0.8866
C14_2 C 0.3350(2) 0.9640(5) 0.88757(14)
C15_2 C 0.3165(3) 0.9140(5) 0.86361(15)
H9_2 H 0.3185 0.8449 0.8625
C16_2 C 0.2952(3) 0.9667(5) 0.84166(16)
H10_2 H 0.2820 0.9321 0.8256
I5_3 I 0.42267(2) 0.26650(4) 0.874010(16)
I6_3 I 0.49004(2) 0.27502(4) 0.962890(13)
N2_2 N 0.4017(2) 0.8222(4) 0.95669(12)
N3_2 N 0.36784(19) 0.8171(4) 0.90919(11)
N4_2 N 0.3676(2) 0.9653(4) 0.93598(11)
N5_3 N 0.4426(2) 0.4866(4) 0.92048(12)
Zn3_2 Zn 0.47214(3) 0.35074(6) 0.913260(19)
N14_2 N 0.53704(19) 0.3848(4) 0.89363(12)
C3_3 C 0.9033(2) 0.5258(5) 0.01609(13)
C4_3 C 0.8909(3) 0.4274(5) 0.01413(15)
H3_3 H 0.8733 0.3968 0.0293
C6_3 C 0.8896(2) 0.5830(5) 0.04252(13)
C7_3 C 0.8905(2) 0.7235(5) 0.06810(14)
C8_3 C 0.8576(2) 0.5881(5) 0.08773(13)
C9_3 C 0.9066(2) 0.8254(5) 0.07121(14)
C10_3 C 0.9305(3) 0.8735(5) 0.04908(16)
H5_3 H 0.9351 0.8426 0.0307
C11_3 C 0.9479(2) 0.9671(5) 0.05374(15)
H6_3 H 0.9640 0.9996 0.0383
C12_3 C 0.9184(3) 0.9672(6) 0.10096(17)
H7_4 H 0.9136 1.0000 0.1190
C13_3 C 0.9006(3) 0.8745(5) 0.09771(16)
H8_3 H 0.8842 0.8437 0.1134
C14_3 C 0.8350(2) 0.5360(5) 0.11243(14)
C15_3 C 0.8165(3) 0.5860(5) 0.13639(15)
H9_3 H 0.8185 0.6551 0.1375
C16_3 C 0.7952(3) 0.5333(5) 0.15834(16)
H10_3 H 0.7820 0.5679 0.1744
C17_3 C 0.8112(3) 0.3884(5) 0.13581(15)
H11_3 H 0.8099 0.3192 0.1358
C18_3 C 0.8329(3) 0.4352(5) 0.11248(14)
H12_3 H 0.8460 0.3987 0.0968
I3_3 I 0.80272(2) 0.19914(4) 0.196378(12)
I4_3 I 0.66659(2) 0.34918(5) 0.176614(12)
N2_3 N 0.9017(2) 0.6778(4) 0.04331(12)
N3_3 N 0.86784(19) 0.6829(4) 0.09081(11)
N4_3 N 0.8676(2) 0.5347(4) 0.06402(11)
N6_3 N 0.7922(2) 0.4361(4) 0.15832(12)
Zn2_2 Zn 0.75552(3) 0.35733(6) 0.189077(16)
N13_2 N 0.7648(2) 0.4380(4) 0.22666(11)
C1_3 C 0.9426(3) 0.5094(6) 0.97034(17)
H1_3 H 0.9607 0.5382 0.9550
C2_3 C 0.9305(3) 0.5660(6) 0.99418(16)
H2_3 H 0.9410 0.6319 0.9954
C5_2 C 0.9047(3) 0.3756(5) 0.98990(14)
H4_2 H 0.8962 0.3086 0.9887
C19_3 C 0.6920(3) 0.5580(5) 0.73887(15)
H13_3 H 0.6650 0.5808 0.7282
C20_3 C 0.6850(2) 0.5215(5) 0.76682(14)
H14_3 H 0.6537 0.5188 0.7750
C21_2 C 0.7238(2) 0.4892(4) 0.78259(13)
C22_2 C 0.7687(2) 0.4914(4) 0.76944(13)
H15_2 H 0.7962 0.4687 0.7796
C23_3 C 0.7726(2) 0.5274(4) 0.74115(14)
H16_3 H 0.8032 0.5272 0.7319
C24_2 C 0.7191(2) 0.4587(4) 0.81343(13)
C25_2 C 0.6734(2) 0.4254(4) 0.85308(13)
C26_2 C 0.7542(2) 0.4226(4) 0.85656(13)
C27_2 C 0.6257(2) 0.4133(4) 0.86705(14)
C28_2 C 0.5841(3) 0.4115(7) 0.85048(16)
H17_2 H 0.5852 0.4208 0.8300
C29_2 C 0.5408(3) 0.3957(7) 0.86462(17)
H18_2 H 0.5124 0.3924 0.8532
C30_2 C 0.5774(2) 0.3892(5) 0.90936(14)
H19_2 H 0.5753 0.3828 0.9299
C31_2 C 0.6221(2) 0.4029(5) 0.89681(14)
H20_2 H 0.6500 0.4052 0.9087
C32_2 C 0.7980(2) 0.4080(4) 0.87428(13)
C33_2 C 0.7954(2) 0.3813(4) 0.90325(13)
H21_2 H 0.7651 0.3748 0.9126
C34_2 C 0.8372(2) 0.3642(5) 0.91843(13)
H22_2 H 0.8351 0.3434 0.9382
C35_2 C 0.8835(2) 0.4039(5) 0.87864(14)
H23_2 H 0.9142 0.4129 0.8702
C36_2 C 0.8433(2) 0.4206(4) 0.86155(13)
H24_2 H 0.8463 0.4401 0.8418
I2_2 I 0.93239(2) 0.15739(4) 0.941319(13)
N1_2 N 0.9297(2) 0.4151(4) 0.96788(11)
N7_2 N 0.7352(2) 0.5620(4) 0.72666(11)
N8_2 N 0.67464(19) 0.4490(4) 0.82452(11)
N9_2 N 0.71191(18) 0.4119(4) 0.86992(11)
N10_2 N 0.75994(18) 0.4462(4) 0.82850(11)
N12_2 N 0.8809(2) 0.3756(4) 0.90650(11)
Zn1_2 Zn 0.94235(3) 0.33813(6) 0.929833(17)
Zn4_2 Zn 0.74448(3) 0.64267(6) 0.689077(16)
C1_4 C 0.5574(3) 0.4906(6) 0.47034(17)
H1_4 H 0.5393 0.4618 0.4550
C2_4 C 0.5695(3) 0.4340(6) 0.49418(16)
H2_4 H 0.5590 0.3681 0.4954
C3_4 C 0.5967(2) 0.4742(5) 0.51609(13)
C4_4 C 0.6091(3) 0.5726(5) 0.51413(15)
H3_4 H 0.6267 0.6032 0.5293
C5_3 C 0.5953(3) 0.6244(5) 0.48990(14)
H4_3 H 0.6038 0.6914 0.4887
C6_4 C 0.6104(2) 0.4170(5) 0.54252(13)
C7_4 C 0.6095(2) 0.2765(5) 0.56810(14)
C8_4 C 0.6424(2) 0.4119(5) 0.58773(13)
C9_4 C 0.5934(2) 0.1746(5) 0.57121(14)
C10_4 C 0.5695(3) 0.1265(5) 0.54908(16)
H5_4 H 0.5649 0.1574 0.5307
C11_4 C 0.5521(2) 0.0329(5) 0.55374(15)
H6_4 H 0.5360 0.0004 0.5383
C12_4 C 0.5816(3) 0.0328(6) 0.60096(17)
H7_5 H 0.5864 0.0000 0.6190
C13_4 C 0.5994(3) 0.1255(5) 0.59771(16)
H8_4 H 0.6158 0.1563 0.6134
C14_4 C 0.6650(2) 0.4640(5) 0.61243(14)
C15_4 C 0.6835(3) 0.4140(5) 0.63639(15)
H9_4 H 0.6815 0.3449 0.6375
C16_4 C 0.7048(3) 0.4667(5) 0.65834(16)
H10_4 H 0.7180 0.4321 0.6744
C17_4 C 0.6888(3) 0.6116(5) 0.63581(15)
H11_4 H 0.6901 0.6808 0.6358
C18_4 C 0.6671(3) 0.5648(5) 0.61248(14)
H12_4 H 0.6540 0.6013 0.5968
C19_4 C 0.8080(3) 0.4420(5) 0.23887(15)
H13_4 H 0.8350 0.4192 0.2282
C20_4 C 0.8150(2) 0.4785(5) 0.26682(14)
H14_4 H 0.8463 0.4812 0.2750
C21_3 C 0.7762(2) 0.5108(4) 0.28259(13)
C22_3 C 0.7313(2) 0.5086(4) 0.26944(13)
H15_3 H 0.7038 0.5313 0.2796
C23_4 C 0.7274(2) 0.4726(4) 0.24115(14)
H16_4 H 0.6968 0.4728 0.2319
C24_3 C 0.7809(2) 0.5413(4) 0.31343(13)
C25_3 C 0.8266(2) 0.5746(4) 0.35308(13)
C26_3 C 0.7458(2) 0.5774(4) 0.35656(13)
C27_3 C 0.8743(2) 0.5867(4) 0.36705(14)
C28_3 C 0.9159(3) 0.5885(7) 0.35048(16)
H17_3 H 0.9148 0.5792 0.3300
C29_3 C 0.9592(3) 0.6043(7) 0.36462(17)
H18_3 H 0.9876 0.6076 0.3532
C30_3 C 0.9226(2) 0.6108(5) 0.40936(14)
H19_3 H 0.9247 0.6172 0.4299
C31_3 C 0.8779(2) 0.5971(5) 0.39681(14)
H20_3 H 0.8500 0.5948 0.4087
C32_3 C 0.7020(2) 0.5920(4) 0.37428(13)
C33_3 C 0.7046(2) 0.6187(4) 0.40325(13)
H21_3 H 0.7349 0.6252 0.4126
C34_3 C 0.6628(2) 0.6358(5) 0.41843(13)
H22_3 H 0.6649 0.6566 0.4382
C35_3 C 0.6165(2) 0.5961(5) 0.37864(14)
H23_3 H 0.5858 0.5871 0.3702
C36_3 C 0.6567(2) 0.5794(4) 0.36155(13)
H24_3 H 0.6537 0.5599 0.3418
I1 I 0.489231(18) 0.58052(5) 0.402612(11)
I2_3 I 0.56761(2) 0.84261(4) 0.441319(13)
I3_4 I 0.69728(2) 0.80086(4) 0.696378(12)
I4_4 I 0.83341(2) 0.65082(5) 0.676614(12)
N1_3 N 0.5703(2) 0.5849(4) 0.46788(11)
N2_4 N 0.5983(2) 0.3222(4) 0.54331(12)
N3_4 N 0.63216(19) 0.3171(4) 0.59081(11)
N4_4 N 0.6324(2) 0.4653(4) 0.56402(11)
N6_4 N 0.7078(2) 0.5639(4) 0.65832(12)
N8_3 N 0.82536(19) 0.5510(4) 0.32452(11)
N9_3 N 0.78809(18) 0.5881(4) 0.36992(11)
N10_3 N 0.74006(18) 0.5538(4) 0.32850(11)
N12_3 N 0.6191(2) 0.6244(4) 0.40650(11)
Zn1_3 Zn 0.55765(3) 0.66187(6) 0.429833(17)
I1_2 I 0.989231(18) 0.91948(5) 0.597388(11)
C5_4 C 0.4047(3) 0.1244(5) 0.01010(14)
H4_4 H 0.3962 0.1914 0.0113
C21_4 C 0.2238(2) 0.0108(4) 0.21741(13)
C22_4 C 0.2687(2) 0.0086(4) 0.23056(13)
H15_4 H 0.2962 0.0313 0.2204
C24_4 C 0.2191(2) 0.0413(4) 0.18657(13)
C25_4 C 0.1734(2) 0.0746(4) 0.14692(13)
C26_4 C 0.2542(2) 0.0774(4) 0.14344(13)
C27_4 C 0.1257(2) 0.0867(4) 0.13295(14)
C28_4 C 0.0841(3) 0.0885(7) 0.14952(16)
H17_4 H 0.0852 0.0792 0.1700
C29_4 C 0.0408(3) 0.1043(7) 0.13538(17)
H18_4 H 0.0124 0.1076 0.1468
C30_4 C 0.0774(2) 0.1108(5) 0.09064(14)
H19_4 H 0.0753 0.1172 0.0701
C31_4 C 0.1221(2) 0.0971(5) 0.10319(14)
H20_4 H 0.1500 0.0948 0.0913
C32_4 C 0.2980(2) 0.0920(4) 0.12572(13)
C33_4 C 0.2954(2) 0.1187(4) 0.09675(13)
H21_4 H 0.2651 0.1252 0.0874
C34_4 C 0.3372(2) 0.1358(5) 0.08157(13)
H22_4 H 0.3351 0.1566 0.0618
C35_4 C 0.3835(2) 0.0961(5) 0.12136(14)
H23_4 H 0.4142 0.0871 0.1298
C36_4 C 0.3433(2) 0.0794(4) 0.13845(13)
H24_4 H 0.3463 0.0599 0.1582
I1_3 I 0.510769(18) 0.08052(5) 0.097388(11)
I2_4 I 0.43239(2) 0.34261(4) 0.058681(13)
N1_4 N 0.4297(2) 0.0849(4) 0.03212(11)
N8_4 N 0.17464(19) 0.0510(4) 0.17548(11)
N9_4 N 0.21191(18) 0.0881(4) 0.13008(11)
N10_4 N 0.25994(18) 0.0538(4) 0.17150(11)
N11_2 N 0.03704(19) 0.1152(4) 0.10637(12)
N12_4 N 0.3809(2) 0.1244(4) 0.09350(11)
Zn1_4 Zn 0.44235(3) 0.16187(6) 0.070167(17)
Zn5_2 Zn 0.97214(3) 0.14926(6) 0.086740(19)
H7_6 H 0.9136 0.0000 0.1190
I5_4 I 0.92267(2) 0.23350(4) 0.125990(16)
I6_4 I 0.99004(2) 0.22498(4) 0.037110(13)
N5_4 N 0.9426(2) 0.0134(4) 0.07952(12)
I1_4 I 0.010769(18) 0.41948(5) 0.902612(11)
I1_5 I 0.010769(18) 0.08052(5) 0.402612(11)
N14_3 N 0.03704(19) 0.3848(4) 0.60637(12)
C3_5 C 0.5967(2) 0.0258(5) 0.01609(13)
C6_5 C 0.6104(2) 0.0830(5) 0.04252(13)
C7_5 C 0.6095(2) 0.2235(5) 0.06810(14)
C8_5 C 0.6424(2) 0.0881(5) 0.08773(13)
C9_5 C 0.5934(2) 0.3254(5) 0.07121(14)
C10_5 C 0.5695(3) 0.3735(5) 0.04908(16)
H5_5 H 0.5649 0.3426 0.0307
C11_5 C 0.5521(2) 0.4671(5) 0.05374(15)
H6_5 H 0.5360 0.4996 0.0383
C12_5 C 0.5816(3) 0.4672(6) 0.10096(17)
H7_7 H 0.5864 0.5000 0.1190
C13_5 C 0.5994(3) 0.3745(5) 0.09771(16)
H8_5 H 0.6158 0.3437 0.1134
C14_5 C 0.6650(2) 0.0360(5) 0.11243(14)
C15_5 C 0.6835(3) 0.0860(5) 0.13639(15)
H9_5 H 0.6815 0.1551 0.1375
C16_5 C 0.7048(3) 0.0333(5) 0.15834(16)
H10_5 H 0.7180 0.0679 0.1744
I5_5 I 0.57733(2) 0.73350(4) 0.125990(16)
I6_5 I 0.50996(2) 0.72498(4) 0.037110(13)
N2_5 N 0.5983(2) 0.1778(4) 0.04331(12)
N3_5 N 0.63216(19) 0.1829(4) 0.09081(11)
N4_5 N 0.6324(2) 0.0347(4) 0.06402(11)
N5_5 N 0.5574(2) 0.5134(4) 0.07952(12)
Zn3_3 Zn 0.52786(3) 0.64926(6) 0.086740(19)
N14_4 N 0.46296(19) 0.6152(4) 0.10637(12)
C1_5 C 0.0574(3) 0.4906(6) 0.02966(17)
H1_5 H 0.0393 0.4618 0.0450
C2_5 C 0.0695(3) 0.4340(6) 0.00582(16)
H2_5 H 0.0590 0.3681 0.0046
C5_5 C 0.0953(3) 0.6244(5) 0.01010(14)
H4_5 H 0.1038 0.6914 0.0113
C19_5 C 0.3080(3) 0.4420(5) 0.26113(15)
H13_5 H 0.3350 0.4192 0.2718
C20_5 C 0.3150(2) 0.4785(5) 0.23318(14)
H14_5 H 0.3463 0.4812 0.2250
C21_5 C 0.2762(2) 0.5108(4) 0.21741(13)
C22_5 C 0.2313(2) 0.5086(4) 0.23056(13)
H15_5 H 0.2038 0.5313 0.2204
C23_5 C 0.2274(2) 0.4726(4) 0.25885(14)
H16_5 H 0.1968 0.4728 0.2681
C24_5 C 0.2809(2) 0.5413(4) 0.18657(13)
C25_5 C 0.3266(2) 0.5746(4) 0.14692(13)
C26_5 C 0.2458(2) 0.5774(4) 0.14344(13)
C27_5 C 0.3743(2) 0.5867(4) 0.13295(14)
C28_5 C 0.4159(3) 0.5885(7) 0.14952(16)
H17_5 H 0.4148 0.5792 0.1700
C29_5 C 0.4592(3) 0.6043(7) 0.13538(17)
H18_5 H 0.4876 0.6076 0.1468
C30_5 C 0.4226(2) 0.6108(5) 0.09064(14)
H19_5 H 0.4247 0.6172 0.0701
C31_5 C 0.3779(2) 0.5971(5) 0.10319(14)
H20_5 H 0.3500 0.5948 0.0913
C32_5 C 0.2020(2) 0.5920(4) 0.12572(13)
C33_5 C 0.2046(2) 0.6187(4) 0.09675(13)
H21_5 H 0.2349 0.6252 0.0874
C34_5 C 0.1628(2) 0.6358(5) 0.08157(13)
H22_5 H 0.1649 0.6566 0.0618
C35_5 C 0.1165(2) 0.5961(5) 0.12136(14)
H23_5 H 0.0858 0.5871 0.1298
C36_5 C 0.1567(2) 0.5794(4) 0.13845(13)
H24_5 H 0.1537 0.5599 0.1582
I2_5 I 0.06761(2) 0.84261(4) 0.058681(13)
N1_5 N 0.0703(2) 0.5849(4) 0.03212(11)
N7_3 N 0.2648(2) 0.4380(4) 0.27334(11)
N8_5 N 0.32536(19) 0.5510(4) 0.17548(11)
N9_5 N 0.28809(18) 0.5881(4) 0.13008(11)
N10_5 N 0.24006(18) 0.5538(4) 0.17150(11)
N12_5 N 0.1191(2) 0.6244(4) 0.09350(11)
Zn1_5 Zn 0.05765(3) 0.66187(6) 0.070167(17)
Zn4_3 Zn 0.25552(3) 0.35733(6) 0.310923(16)
C3_6 C 0.0967(2) 0.4742(5) 0.98391(13)
C4_5 C 0.1091(3) 0.5726(5) 0.98587(15)
H3_5 H 0.1267 0.6032 0.9707
C6_6 C 0.1104(2) 0.4170(5) 0.95748(13)
C7_6 C 0.1095(2) 0.2765(5) 0.93190(14)
C8_6 C 0.1424(2) 0.4119(5) 0.91227(13)
C9_6 C 0.0934(2) 0.1746(5) 0.92879(14)
C10_6 C 0.0695(3) 0.1265(5) 0.95092(16)
H5_6 H 0.0649 0.1574 0.9693
C11_6 C 0.0521(2) 0.0329(5) 0.94626(15)
H6_6 H 0.0360 0.0004 0.9617
C12_6 C 0.0816(3) 0.0328(6) 0.89904(17)
H7_8 H 0.0864 0.0000 0.8810
C13_6 C 0.0994(3) 0.1255(5) 0.90229(16)
H8_6 H 0.1158 0.1563 0.8866
C14_6 C 0.1650(2) 0.4640(5) 0.88757(14)
C15_6 C 0.1835(3) 0.4140(5) 0.86361(15)
H9_6 H 0.1815 0.3449 0.8625
C16_6 C 0.2048(3) 0.4667(5) 0.84166(16)
H10_6 H 0.2180 0.4321 0.8256
C17_5 C 0.1888(3) 0.6116(5) 0.86419(15)
H11_5 H 0.1901 0.6808 0.8642
C18_5 C 0.1671(3) 0.5648(5) 0.88752(14)
H12_5 H 0.1540 0.6013 0.9032
I3_5 I 0.19728(2) 0.80086(4) 0.803622(12)
I4_5 I 0.33341(2) 0.65082(5) 0.823386(12)
N2_6 N 0.0983(2) 0.3222(4) 0.95669(12)
N3_6 N 0.13216(19) 0.3171(4) 0.90919(11)
N4_6 N 0.1324(2) 0.4653(4) 0.93598(11)
N6_5 N 0.2078(2) 0.5639(4) 0.84168(12)
Zn2_3 Zn 0.24448(3) 0.64267(6) 0.810923(16)
N13_3 N 0.2352(2) 0.5620(4) 0.77334(11)
C1_6 C 0.4426(3) 0.5094(6) 0.52966(17)
H1_6 H 0.4607 0.5382 0.5450
C2_6 C 0.4305(3) 0.5660(6) 0.50582(16)
H2_6 H 0.4410 0.6319 0.5046
C3_7 C 0.4033(2) 0.5258(5) 0.48391(13)
C4_6 C 0.3909(3) 0.4274(5) 0.48587(15)
H3_6 H 0.3733 0.3968 0.4707
C5_6 C 0.4047(3) 0.3756(5) 0.51010(14)
H4_6 H 0.3962 0.3086 0.5113
C6_7 C 0.3896(2) 0.5830(5) 0.45748(13)
C7_7 C 0.3905(2) 0.7235(5) 0.43190(14)
C8_7 C 0.3576(2) 0.5881(5) 0.41227(13)
C9_7 C 0.4066(2) 0.8254(5) 0.42879(14)
C10_7 C 0.4305(3) 0.8735(5) 0.45092(16)
H5_7 H 0.4351 0.8426 0.4693
C11_7 C 0.4479(2) 0.9671(5) 0.44626(15)
H6_7 H 0.4640 0.9996 0.4617
C12_7 C 0.4184(3) 0.9672(6) 0.39904(17)
H7_9 H 0.4136 1.0000 0.3810
C13_7 C 0.4006(3) 0.8745(5) 0.40229(16)
H8_7 H 0.3842 0.8437 0.3866
C14_7 C 0.3350(2) 0.5360(5) 0.38757(14)
C15_7 C 0.3165(3) 0.5860(5) 0.36361(15)
H9_7 H 0.3185 0.6551 0.3625
C16_7 C 0.2952(3) 0.5333(5) 0.34166(16)
H10_7 H 0.2820 0.5679 0.3256
C17_6 C 0.3112(3) 0.3884(5) 0.36419(15)
H11_6 H 0.3099 0.3192 0.3642
C18_6 C 0.3329(3) 0.4352(5) 0.38752(14)
H12_6 H 0.3460 0.3987 0.4032
C19_6 C 0.1920(3) 0.5580(5) 0.76113(15)
H13_6 H 0.1650 0.5808 0.7718
C20_6 C 0.1850(2) 0.5215(5) 0.73318(14)
H14_6 H 0.1537 0.5188 0.7250
C21_6 C 0.2238(2) 0.4892(4) 0.71741(13)
C22_6 C 0.2687(2) 0.4914(4) 0.73056(13)
H15_6 H 0.2962 0.4687 0.7204
C23_6 C 0.2726(2) 0.5274(4) 0.75885(14)
H16_6 H 0.3032 0.5272 0.7681
C24_6 C 0.2191(2) 0.4587(4) 0.68657(13)
C25_6 C 0.1734(2) 0.4254(4) 0.64692(13)
C26_6 C 0.2542(2) 0.4226(4) 0.64344(13)
C27_6 C 0.1257(2) 0.4133(4) 0.63295(14)
C28_6 C 0.0841(3) 0.4115(7) 0.64952(16)
H17_6 H 0.0852 0.4208 0.6700
C29_6 C 0.0408(3) 0.3957(7) 0.63538(17)
H18_6 H 0.0124 0.3924 0.6468
C30_6 C 0.0774(2) 0.3892(5) 0.59064(14)
H19_6 H 0.0753 0.3828 0.5701
C31_6 C 0.1221(2) 0.4029(5) 0.60319(14)
H20_6 H 0.1500 0.4052 0.5913
C32_6 C 0.2980(2) 0.4080(4) 0.62572(13)
C33_6 C 0.2954(2) 0.3813(4) 0.59675(13)
H21_6 H 0.2651 0.3748 0.5874
C34_6 C 0.3372(2) 0.3642(5) 0.58157(13)
H22_6 H 0.3351 0.3434 0.5618
C35_6 C 0.3835(2) 0.4039(5) 0.62136(14)
H23_6 H 0.4142 0.4129 0.6298
C36_6 C 0.3433(2) 0.4206(4) 0.63845(13)
H24_6 H 0.3463 0.4401 0.6582
I1_6 I 0.510769(18) 0.41948(5) 0.597388(11)
I2_6 I 0.43239(2) 0.15739(4) 0.558681(13)
I3_6 I 0.30272(2) 0.19914(4) 0.303622(12)
I4_6 I 0.16659(2) 0.34918(5) 0.323386(12)
N1_6 N 0.4297(2) 0.4151(4) 0.53212(11)
N2_7 N 0.4017(2) 0.6778(4) 0.45669(12)
N3_7 N 0.36784(19) 0.6829(4) 0.40919(11)
N4_7 N 0.3676(2) 0.5347(4) 0.43598(11)
N6_6 N 0.2922(2) 0.4361(4) 0.34168(12)
N8_6 N 0.17464(19) 0.4490(4) 0.67548(11)
N9_6 N 0.21191(18) 0.4119(4) 0.63008(11)
N10_6 N 0.25994(18) 0.4462(4) 0.67150(11)
N12_6 N 0.3809(2) 0.3756(4) 0.59350(11)
Zn1_6 Zn 0.44235(3) 0.33813(6) 0.570167(17)
C4_7 C 0.8909(3) 0.0726(5) 0.51413(15)
H3_7 H 0.8733 0.1032 0.5293
C5_7 C 0.9047(3) 0.1244(5) 0.48990(14)
H4_7 H 0.8962 0.1914 0.4887
C17_7 C 0.8112(3) 0.1116(5) 0.63581(15)
H11_7 H 0.8099 0.1808 0.6358
C18_7 C 0.8329(3) 0.0648(5) 0.61248(14)
H12_7 H 0.8460 0.1013 0.5968
C21_7 C 0.7238(2) 0.0108(4) 0.28259(13)
C22_7 C 0.7687(2) 0.0086(4) 0.26944(13)
H15_7 H 0.7962 0.0313 0.2796
C24_7 C 0.7191(2) 0.0413(4) 0.31343(13)
C25_7 C 0.6734(2) 0.0746(4) 0.35308(13)
C26_7 C 0.7542(2) 0.0774(4) 0.35656(13)
C27_7 C 0.6257(2) 0.0867(4) 0.36705(14)
C28_7 C 0.5841(3) 0.0885(7) 0.35048(16)
H17_7 H 0.5852 0.0792 0.3300
C29_7 C 0.5408(3) 0.1043(7) 0.36462(17)
H18_7 H 0.5124 0.1076 0.3532
C30_7 C 0.5774(2) 0.1108(5) 0.40936(14)
H19_7 H 0.5753 0.1172 0.4299
C31_7 C 0.6221(2) 0.0971(5) 0.39681(14)
H20_7 H 0.6500 0.0948 0.4087
C32_7 C 0.7980(2) 0.0920(4) 0.37428(13)
C33_7 C 0.7954(2) 0.1187(4) 0.40325(13)
H21_7 H 0.7651 0.1252 0.4126
C34_7 C 0.8372(2) 0.1358(5) 0.41843(13)
H22_7 H 0.8351 0.1566 0.4382
C35_7 C 0.8835(2) 0.0961(5) 0.37864(14)
H23_7 H 0.9142 0.0871 0.3702
C36_7 C 0.8433(2) 0.0794(4) 0.36155(13)
H24_7 H 0.8463 0.0599 0.3418
I2_7 I 0.93239(2) 0.34261(4) 0.441319(13)
I3_7 I 0.80272(2) 0.30086(4) 0.696378(12)
I4_7 I 0.66659(2) 0.15082(5) 0.676614(12)
N1_7 N 0.9297(2) 0.0849(4) 0.46788(11)
N6_7 N 0.7922(2) 0.0639(4) 0.65832(12)
N8_7 N 0.67464(19) 0.0510(4) 0.32452(11)
N9_7 N 0.71191(18) 0.0881(4) 0.36992(11)
N10_7 N 0.75994(18) 0.0538(4) 0.32850(11)
N11_3 N 0.53704(19) 0.1152(4) 0.39363(12)
N12_7 N 0.8809(2) 0.1244(4) 0.40650(11)
Zn1_7 Zn 0.94235(3) 0.16187(6) 0.429833(17)
Zn2_4 Zn 0.75552(3) 0.14267(6) 0.689077(16)
N13_4 N 0.7648(2) 0.0620(4) 0.72666(11)
Zn5_3 Zn 0.47214(3) 0.14926(6) 0.413260(19)
C1_7 C 0.5574(3) 0.0094(6) 0.97034(17)
H1_7 H 0.5393 0.0382 0.9550
C2_7 C 0.5695(3) 0.0660(6) 0.99418(16)
H2_7 H 0.5590 0.1319 0.9954
C19_7 C 0.8080(3) 0.0580(5) 0.73887(15)
H13_7 H 0.8350 0.0808 0.7282
C20_7 C 0.8150(2) 0.0215(5) 0.76682(14)
H14_7 H 0.8463 0.0188 0.7750
C23_7 C 0.7274(2) 0.0274(4) 0.74115(14)
H16_7 H 0.6968 0.0272 0.7319
H7_10 H 0.4136 0.0000 0.3810
I5_6 I 0.42267(2) 0.23350(4) 0.374010(16)
I6_6 I 0.49004(2) 0.22498(4) 0.462890(13)
N5_6 N 0.4426(2) 0.0134(4) 0.42048(12)
C1_8 C 0.9426(3) 0.9906(6) 0.47034(17)
H1_8 H 0.9607 0.9618 0.4550
C2_8 C 0.9305(3) 0.9340(6) 0.49418(16)
H2_8 H 0.9410 0.8681 0.4954
C3_8 C 0.9033(2) 0.9742(5) 0.51609(13)
C6_8 C 0.8896(2) 0.9170(5) 0.54252(13)
C7_8 C 0.8905(2) 0.7765(5) 0.56810(14)
C8_8 C 0.8576(2) 0.9119(5) 0.58773(13)
C9_8 C 0.9066(2) 0.6746(5) 0.57121(14)
C10_8 C 0.9305(3) 0.6265(5) 0.54908(16)
H5_8 H 0.9351 0.6574 0.5307
C11_8 C 0.9479(2) 0.5329(5) 0.55374(15)
H6_8 H 0.9640 0.5004 0.5383
C12_8 C 0.9184(3) 0.5328(6) 0.60096(17)
H7_11 H 0.9136 0.5000 0.6190
C13_8 C 0.9006(3) 0.6255(5) 0.59771(16)
H8_8 H 0.8842 0.6563 0.6134
C14_8 C 0.8350(2) 0.9640(5) 0.61243(14)
C15_8 C 0.8165(3) 0.9140(5) 0.63639(15)
H9_8 H 0.8185 0.8449 0.6375
C16_8 C 0.7952(3) 0.9667(5) 0.65834(16)
H10_8 H 0.7820 0.9321 0.6744
C19_8 C 0.6920(3) 0.9420(5) 0.23887(15)
H13_8 H 0.6650 0.9192 0.2282
C20_8 C 0.6850(2) 0.9785(5) 0.26682(14)
H14_8 H 0.6537 0.9812 0.2750
C23_8 C 0.7726(2) 0.9726(4) 0.24115(14)
H16_8 H 0.8032 0.9728 0.2319
I5_7 I 0.92267(2) 0.26650(4) 0.625990(16)
I6_7 I 0.99004(2) 0.27502(4) 0.537110(13)
N2_8 N 0.9017(2) 0.8222(4) 0.54331(12)
N3_8 N 0.86784(19) 0.8171(4) 0.59081(11)
N4_8 N 0.8676(2) 0.9653(4) 0.56402(11)
N5_7 N 0.9426(2) 0.4866(4) 0.57952(12)
N7_4 N 0.7352(2) 0.9380(4) 0.22666(11)
Zn3_4 Zn 0.97214(3) 0.35074(6) 0.586740(19)
Zn4_4 Zn 0.74448(3) 0.85733(6) 0.189077(16)
C4_8 C 0.6091(3) 0.9274(5) 0.01413(15)
H3_8 H 0.6267 0.8968 0.0293
C17_8 C 0.6888(3) 0.8884(5) 0.13581(15)
H11_8 H 0.6901 0.8192 0.1358
C18_8 C 0.6671(3) 0.9352(5) 0.11248(14)
H12_8 H 0.6540 0.8987 0.0968
I3_8 I 0.69728(2) 0.69914(4) 0.196378(12)
I4_8 I 0.83341(2) 0.84918(5) 0.176614(12)
N6_8 N 0.7078(2) 0.9361(4) 0.15832(12)
Zn5_4 Zn 0.02786(3) 0.85074(6) 0.913260(19)
H7_12 H 0.0864 1.0000 0.8810
I5_8 I 0.07733(2) 0.76650(4) 0.874010(16)
I6_8 I 0.00996(2) 0.77502(4) 0.962890(13)
N5_8 N 0.0574(2) 0.9866(4) 0.92048(12)
C5_8 C 0.5953(3) 0.8756(5) 0.98990(14)
H4_8 H 0.6038 0.8086 0.9887
C21_8 C 0.7762(2) 0.9892(4) 0.78259(13)
C22_8 C 0.7313(2) 0.9914(4) 0.76944(13)
H15_8 H 0.7038 0.9687 0.7796
C24_8 C 0.7809(2) 0.9587(4) 0.81343(13)
C25_8 C 0.8266(2) 0.9254(4) 0.85308(13)
C26_8 C 0.7458(2) 0.9226(4) 0.85656(13)
C27_8 C 0.8743(2) 0.9133(4) 0.86705(14)
C28_8 C 0.9159(3) 0.9115(7) 0.85048(16)
H17_8 H 0.9148 0.9208 0.8300
C29_8 C 0.9592(3) 0.8957(7) 0.86462(17)
H18_8 H 0.9876 0.8924 0.8532
C30_8 C 0.9226(2) 0.8892(5) 0.90936(14)
H19_8 H 0.9247 0.8828 0.9299
C31_8 C 0.8779(2) 0.9029(5) 0.89681(14)
H20_8 H 0.8500 0.9052 0.9087
C32_8 C 0.7020(2) 0.9080(4) 0.87428(13)
C33_8 C 0.7046(2) 0.8813(4) 0.90325(13)
H21_8 H 0.7349 0.8748 0.9126
C34_8 C 0.6628(2) 0.8642(5) 0.91843(13)
H22_8 H 0.6649 0.8434 0.9382
C35_8 C 0.6165(2) 0.9039(5) 0.87864(14)
H23_8 H 0.5858 0.9129 0.8702
C36_8 C 0.6567(2) 0.9206(4) 0.86155(13)
H24_8 H 0.6537 0.9401 0.8418
I1_7 I 0.489231(18) 0.91948(5) 0.902612(11)
I2_8 I 0.56761(2) 0.65739(4) 0.941319(13)
N1_8 N 0.5703(2) 0.9151(4) 0.96788(11)
N8_8 N 0.82536(19) 0.9490(4) 0.82452(11)
N9_8 N 0.78809(18) 0.9119(4) 0.86992(11)
N10_8 N 0.74006(18) 0.9462(4) 0.82850(11)
N11_4 N 0.96296(19) 0.8848(4) 0.89363(12)
N12_8 N 0.6191(2) 0.8756(4) 0.90650(11)
Zn1_8 Zn 0.55765(3) 0.83813(6) 0.929833(17)
I1_8 I 0.989231(18) 0.58052(5) 0.097388(11)
loop_
_geom_bond_atom_site_label_1
_geom_bond_atom_site_label_2
_geom_bond_site_symmetry_1
_geom_bond_site_symmetry_2
C1 H1 1_555 1_555
C2 C1 1_555 1_555
H2 C2 1_555 1_555
C3 C2 1_555 1_555
C6 C3 1_555 1_555
C7 C9 1_555 1_555
C8 C14 1_555 1_555
C9 C10 1_555 1_555
C10 H5 1_555 1_555
C11 C10 1_555 1_555
H6 C11 1_555 1_555
C12 H7 1_555 1_555
C13 C9 1_555 1_555
H8 C13 1_555 1_555
C14 C15 1_555 1_555
C15 H9 1_555 1_555
C16 C15 1_555 1_555
H10 C16 1_555 1_555
C19 H13 1_555 1_555
C20 C19 1_555 1_555
H14 C20 1_555 1_555
H16 C23 1_555 1_555
I5 Zn3 1_555 1_555
I6 Zn3 1_555 1_555
N2 C6 1_555 1_555
N3 C7 1_555 1_555
N4 C6 1_555 1_555
N5 C11 1_555 1_555
N7 C19 1_555 1_555
Zn3 N5 1_555 1_555
Zn4 N7 1_555 1_555
C7 N2 1_555 1_555
C8 N3 1_555 1_555
C8 N4 1_555 1_555
C12 C13 1_555 1_555
C12 N5 1_555 1_555
C23 N7 1_555 1_555
H3 C4 1_555 1_555
C17 H11 1_555 1_555
H12 C18 1_555 1_555
I3 Zn4 1_555 1_555
I4 Zn4 1_555 1_555
Zn4 N6 1_555 1_555
C17 C18 1_555 1_555
C17 N6 1_555 1_555
H3_2 C4_2 1_555 1_555
C5 C4_2 1_555 1_555
H4 C5 1_555 1_555
C17_2 H11_2 1_555 1_555
H12_2 C18_2 1_555 1_555
C22 C21 1_555 1_555
H15 C22 1_555 1_555
C24 C21 1_555 1_555
C25 C27 1_555 1_555
C26 C32 1_555 1_555
C27 C28 1_555 1_555
C28 H17 1_555 1_555
C29 C28 1_555 1_555
H18 C29 1_555 1_555
C30 H19 1_555 1_555
C31 C27 1_555 1_555
H20 C31 1_555 1_555
C32 C33 1_555 1_555
C33 H21 1_555 1_555
C34 C33 1_555 1_555
H22 C34 1_555 1_555
C35 H23 1_555 1_555
C36 C32 1_555 1_555
H24 C36 1_555 1_555
I2 Zn1 1_555 1_555
I3_2 Zn2 1_555 1_555
I4_2 Zn2 1_555 1_555
N8 C24 1_555 1_555
N9 C25 1_555 1_555
N10 C24 1_555 1_555
N11 C29 1_555 1_555
N12 C34 1_555 1_555
Zn1 N1 1_555 1_555
Zn2 N6_2 1_555 1_555
N13 Zn2 1_555 1_555
Zn5 N11 1_555 1_555
C5 N1 1_555 1_555
C17_2 C18_2 1_555 1_555
C17_2 N6_2 1_555 1_555
C25 N8 1_555 1_555
C26 N9 1_555 1_555
C26 N10 1_555 1_555
C30 C31 1_555 1_555
C30 N11 1_555 1_555
C35 C36 1_555 1_555
C35 N12 1_555 1_555
N12 Zn1 1_555 1_555
C1_2 H1_2 1_555 1_555
C2_2 C1_2 1_555 1_555
H2_2 C2_2 1_555 1_555
C19_2 H13_2 1_555 1_555
C20_2 C19_2 1_555 1_555
H14_2 C20_2 1_555 1_555
H16_2 C23_2 1_555 1_555
N13 C19_2 1_555 1_555
C23_2 N13 1_555 1_555
I5_2 Zn5 1_555 1_555
I6_2 Zn5 1_555 1_555
Zn5 N5_2 1_555 1_555
C6_2 C3_2 1_555 1_555
C7_2 C9_2 1_555 1_555
C8_2 C14_2 1_555 1_555
C9_2 C10_2 1_555 1_555
C10_2 H5_2 1_555 1_555
C11_2 C10_2 1_555 1_555
H6_2 C11_2 1_555 1_555
C12_2 H7_3 1_555 1_555
C13_2 C9_2 1_555 1_555
H8_2 C13_2 1_555 1_555
C14_2 C15_2 1_555 1_555
C15_2 H9_2 1_555 1_555
C16_2 C15_2 1_555 1_555
H10_2 C16_2 1_555 1_555
I5_3 Zn3_2 1_555 1_555
I6_3 Zn3_2 1_555 1_555
N2_2 C6_2 1_555 1_555
N3_2 C7_2 1_555 1_555
N4_2 C6_2 1_555 1_555
N5_3 C11_2 1_555 1_555
Zn3_2 N5_3 1_555 1_555
N14_2 Zn3_2 1_555 1_555
C7_2 N2_2 1_555 1_555
C8_2 N3_2 1_555 1_555
C8_2 N4_2 1_555 1_555
C12_2 C13_2 1_555 1_555
C12_2 N5_3 1_555 1_555
C4_3 C3_3 1_555 1_555
H3_3 C4_3 1_555 1_555
C6_3 C3_3 1_555 1_555
C7_3 C9_3 1_555 1_555
C8_3 C14_3 1_555 1_555
C9_3 C10_3 1_555 1_555
C10_3 H5_3 1_555 1_555
C11_3 C10_3 1_555 1_555
H6_3 C11_3 1_555 1_555
C12_3 H7_4 1_555 1_555
C13_3 C9_3 1_555 1_555
H8_3 C13_3 1_555 1_555
C14_3 C15_3 1_555 1_555
C15_3 H9_3 1_555 1_555
C16_3 C15_3 1_555 1_555
H10_3 C16_3 1_555 1_555
C17_3 H11_3 1_555 1_555
C18_3 C14_3 1_555 1_555
H12_3 C18_3 1_555 1_555
I3_3 Zn2_2 1_555 1_555
I4_3 Zn2_2 1_555 1_555
N2_3 C6_3 1_555 1_555
N3_3 C7_3 1_555 1_555
N4_3 C6_3 1_555 1_555
N6_3 C16_3 1_555 1_555
Zn2_2 N6_3 1_555 1_555
N13_2 Zn2_2 1_555 1_555
C7_3 N2_3 1_555 1_555
C8_3 N3_3 1_555 1_555
C8_3 N4_3 1_555 1_555
C12_3 C13_3 1_555 1_555
C17_3 C18_3 1_555 1_555
C17_3 N6_3 1_555 1_555
C1_3 H1_3 1_555 1_555
C2_3 C1_3 1_555 1_555
H2_3 C2_3 1_555 1_555
H4_2 C5_2 1_555 1_555
C19_3 H13_3 1_555 1_555
C20_3 C19_3 1_555 1_555
H14_3 C20_3 1_555 1_555
C21_2 C20_3 1_555 1_555
C22_2 C21_2 1_555 1_555
H15_2 C22_2 1_555 1_555
C23_3 C22_2 1_555 1_555
H16_3 C23_3 1_555 1_555
C24_2 C21_2 1_555 1_555
C25_2 C27_2 1_555 1_555
C26_2 C32_2 1_555 1_555
C27_2 C28_2 1_555 1_555
C28_2 H17_2 1_555 1_555
C29_2 C28_2 1_555 1_555
H18_2 C29_2 1_555 1_555
C30_2 H19_2 1_555 1_555
C31_2 C27_2 1_555 1_555
H20_2 C31_2 1_555 1_555
C32_2 C33_2 1_555 1_555
C33_2 H21_2 1_555 1_555
C34_2 C33_2 1_555 1_555
H22_2 C34_2 1_555 1_555
C35_2 H23_2 1_555 1_555
C36_2 C32_2 1_555 1_555
H24_2 C36_2 1_555 1_555
I2_2 Zn1_2 1_555 1_555
N1_2 C1_3 1_555 1_555
N7_2 C19_3 1_555 1_555
N8_2 C24_2 1_555 1_555
N9_2 C25_2 1_555 1_555
N10_2 C24_2 1_555 1_555
N14_2 C29_2 1_555 1_555
N12_2 C34_2 1_555 1_555
Zn1_2 N1_2 1_555 1_555
Zn4_2 N7_2 1_555 1_555
C5_2 N1_2 1_555 1_555
C23_3 N7_2 1_555 1_555
C25_2 N8_2 1_555 1_555
C26_2 N9_2 1_555 1_555
C26_2 N10_2 1_555 1_555
C30_2 C31_2 1_555 1_555
C30_2 N14_2 1_555 1_555
C35_2 C36_2 1_555 1_555
C35_2 N12_2 1_555 1_555
N12_2 Zn1_2 1_555 1_555
C1_4 H1_4 1_555 1_555
C2_4 C1_4 1_555 1_555
H2_4 C2_4 1_555 1_555
C3_4 C2_4 1_555 1_555
C4_4 C3_4 1_555 1_555
H3_4 C4_4 1_555 1_555
C5_3 C4_4 1_555 1_555
H4_3 C5_3 1_555 1_555
C6_4 C3_4 1_555 1_555
C7_4 C9_4 1_555 1_555
C8_4 C14_4 1_555 1_555
C9_4 C10_4 1_555 1_555
C10_4 H5_4 1_555 1_555
C11_4 C10_4 1_555 1_555
H6_4 C11_4 1_555 1_555
C12_4 H7_5 1_555 1_555
C13_4 C9_4 1_555 1_555
H8_4 C13_4 1_555 1_555
C14_4 C15_4 1_555 1_555
C15_4 H9_4 1_555 1_555
C16_4 C15_4 1_555 1_555
H10_4 C16_4 1_555 1_555
C17_4 H11_4 1_555 1_555
C18_4 C14_4 1_555 1_555
H12_4 C18_4 1_555 1_555
C19_4 H13_4 1_555 1_555
C20_4 C19_4 1_555 1_555
H14_4 C20_4 1_555 1_555
C21_3 C20_4 1_555 1_555
C22_3 C21_3 1_555 1_555
H15_3 C22_3 1_555 1_555
C23_4 C22_3 1_555 1_555
H16_4 C23_4 1_555 1_555
C24_3 C21_3 1_555 1_555
C25_3 C27_3 1_555 1_555
C26_3 C32_3 1_555 1_555
C27_3 C28_3 1_555 1_555
C28_3 H17_3 1_555 1_555
C29_3 C28_3 1_555 1_555
H18_3 C29_3 1_555 1_555
C30_3 H19_3 1_555 1_555
C31_3 C27_3 1_555 1_555
H20_3 C31_3 1_555 1_555
C32_3 C33_3 1_555 1_555
C33_3 H21_3 1_555 1_555
C34_3 C33_3 1_555 1_555
H22_3 C34_3 1_555 1_555
C35_3 H23_3 1_555 1_555
C36_3 C32_3 1_555 1_555
H24_3 C36_3 1_555 1_555
I1 Zn1_3 1_555 1_555
I2_3 Zn1_3 1_555 1_555
I3_4 Zn4_2 1_555 1_555
I4_4 Zn4_2 1_555 1_555
N1_3 C1_4 1_555 1_555
N2_4 C6_4 1_555 1_555
N3_4 C7_4 1_555 1_555
N4_4 C6_4 1_555 1_555
N6_4 C16_4 1_555 1_555
N13_2 C19_4 1_555 1_555
N8_3 C24_3 1_555 1_555
N9_3 C25_3 1_555 1_555
N10_3 C24_3 1_555 1_555
N14 C29_3 1_555 1_555
N12_3 C34_3 1_555 1_555
Zn1_3 N1_3 1_555 1_555
Zn4_2 N6_4 1_555 1_555
C5_3 N1_3 1_555 1_555
C7_4 N2_4 1_555 1_555
C8_4 N3_4 1_555 1_555
C8_4 N4_4 1_555 1_555
C12_4 C13_4 1_555 1_555
C17_4 C18_4 1_555 1_555
C17_4 N6_4 1_555 1_555
C23_4 N13_2 1_555 1_555
C25_3 N8_3 1_555 1_555
C26_3 N9_3 1_555 1_555
C26_3 N10_3 1_555 1_555
C30_3 C31_3 1_555 1_555
C30_3 N14 1_555 1_555
C35_3 C36_3 1_555 1_555
C35_3 N12_3 1_555 1_555
N12_3 Zn1_3 1_555 1_555
H4_4 C5_4 1_555 1_555
C22_4 C21_4 1_555 1_555
H15_4 C22_4 1_555 1_555
C24_4 C21_4 1_555 1_555
C25_4 C27_4 1_555 1_555
C26_4 C32_4 1_555 1_555
C27_4 C28_4 1_555 1_555
C28_4 H17_4 1_555 1_555
C29_4 C28_4 1_555 1_555
H18_4 C29_4 1_555 1_555
C30_4 H19_4 1_555 1_555
C31_4 C27_4 1_555 1_555
H20_4 C31_4 1_555 1_555
C32_4 C33_4 1_555 1_555
C33_4 H21_4 1_555 1_555
C34_4 C33_4 1_555 1_555
H22_4 C34_4 1_555 1_555
C35_4 H23_4 1_555 1_555
C36_4 C32_4 1_555 1_555
H24_4 C36_4 1_555 1_555
I1_3 Zn1_4 1_555 1_555
I2_4 Zn1_4 1_555 1_555
N8_4 C24_4 1_555 1_555
N9_4 C25_4 1_555 1_555
N10_4 C24_4 1_555 1_555
N11_2 C29_4 1_555 1_555
N12_4 C34_4 1_555 1_555
Zn1_4 N1_4 1_555 1_555
C5_4 N1_4 1_555 1_555
C25_4 N8_4 1_555 1_555
C26_4 N9_4 1_555 1_555
C26_4 N10_4 1_555 1_555
C30_4 C31_4 1_555 1_555
C30_4 N11_2 1_555 1_555
C35_4 C36_4 1_555 1_555
C35_4 N12_4 1_555 1_555
N12_4 Zn1_4 1_555 1_555
I5_4 Zn5_2 1_555 1_555
I6_4 Zn5_2 1_555 1_555
Zn5_2 N5_4 1_555 1_555
C6_5 C3_5 1_555 1_555
C7_5 C9_5 1_555 1_555
C8_5 C14_5 1_555 1_555
C9_5 C10_5 1_555 1_555
C10_5 H5_5 1_555 1_555
C11_5 C10_5 1_555 1_555
H6_5 C11_5 1_555 1_555
C12_5 H7_7 1_555 1_555
C13_5 C9_5 1_555 1_555
H8_5 C13_5 1_555 1_555
C14_5 C15_5 1_555 1_555
C15_5 H9_5 1_555 1_555
C16_5 C15_5 1_555 1_555
H10_5 C16_5 1_555 1_555
I5_5 Zn3_3 1_555 1_555
I6_5 Zn3_3 1_555 1_555
N2_5 C6_5 1_555 1_555
N3_5 C7_5 1_555 1_555
N4_5 C6_5 1_555 1_555
N5_5 C11_5 1_555 1_555
Zn3_3 N5_5 1_555 1_555
N14_4 Zn3_3 1_555 1_555
C7_5 N2_5 1_555 1_555
C8_5 N3_5 1_555 1_555
C8_5 N4_5 1_555 1_555
C12_5 C13_5 1_555 1_555
C12_5 N5_5 1_555 1_555
C1_5 H1_5 1_555 1_555
C2_5 C1_5 1_555 1_555
H2_5 C2_5 1_555 1_555
H4_5 C5_5 1_555 1_555
C19_5 H13_5 1_555 1_555
C20_5 C19_5 1_555 1_555
H14_5 C20_5 1_555 1_555
C21_5 C20_5 1_555 1_555
C22_5 C21_5 1_555 1_555
H15_5 C22_5 1_555 1_555
C23_5 C22_5 1_555 1_555
H16_5 C23_5 1_555 1_555
C24_5 C21_5 1_555 1_555
C25_5 C27_5 1_555 1_555
C26_5 C32_5 1_555 1_555
C27_5 C28_5 1_555 1_555
C28_5 H17_5 1_555 1_555
C29_5 C28_5 1_555 1_555
H18_5 C29_5 1_555 1_555
C30_5 H19_5 1_555 1_555
C31_5 C27_5 1_555 1_555
H20_5 C31_5 1_555 1_555
C32_5 C33_5 1_555 1_555
C33_5 H21_5 1_555 1_555
C34_5 C33_5 1_555 1_555
H22_5 C34_5 1_555 1_555
C35_5 H23_5 1_555 1_555
C36_5 C32_5 1_555 1_555
H24_5 C36_5 1_555 1_555
I2_5 Zn1_5 1_555 1_555
N1_5 C1_5 1_555 1_555
N7_3 C19_5 1_555 1_555
N8_5 C24_5 1_555 1_555
N9_5 C25_5 1_555 1_555
N10_5 C24_5 1_555 1_555
N14_4 C29_5 1_555 1_555
N12_5 C34_5 1_555 1_555
Zn1_5 N1_5 1_555 1_555
Zn4_3 N7_3 1_555 1_555
C5_5 N1_5 1_555 1_555
C23_5 N7_3 1_555 1_555
C25_5 N8_5 1_555 1_555
C26_5 N9_5 1_555 1_555
C26_5 N10_5 1_555 1_555
C30_5 C31_5 1_555 1_555
C30_5 N14_4 1_555 1_555
C35_5 C36_5 1_555 1_555
C35_5 N12_5 1_555 1_555
N12_5 Zn1_5 1_555 1_555
C4_5 C3_6 1_555 1_555
H3_5 C4_5 1_555 1_555
C6_6 C3_6 1_555 1_555
C7_6 C9_6 1_555 1_555
C8_6 C14_6 1_555 1_555
C9_6 C10_6 1_555 1_555
C10_6 H5_6 1_555 1_555
C11_6 C10_6 1_555 1_555
H6_6 C11_6 1_555 1_555
C12_6 H7_8 1_555 1_555
C13_6 C9_6 1_555 1_555
H8_6 C13_6 1_555 1_555
C14_6 C15_6 1_555 1_555
C15_6 H9_6 1_555 1_555
C16_6 C15_6 1_555 1_555
H10_6 C16_6 1_555 1_555
C17_5 H11_5 1_555 1_555
C18_5 C14_6 1_555 1_555
H12_5 C18_5 1_555 1_555
I3_5 Zn2_3 1_555 1_555
I4_5 Zn2_3 1_555 1_555
N2_6 C6_6 1_555 1_555
N3_6 C7_6 1_555 1_555
N4_6 C6_6 1_555 1_555
N6_5 C16_6 1_555 1_555
Zn2_3 N6_5 1_555 1_555
N13_3 Zn2_3 1_555 1_555
C7_6 N2_6 1_555 1_555
C8_6 N3_6 1_555 1_555
C8_6 N4_6 1_555 1_555
C12_6 C13_6 1_555 1_555
C17_5 C18_5 1_555 1_555
C17_5 N6_5 1_555 1_555
C1_6 H1_6 1_555 1_555
C2_6 C1_6 1_555 1_555
H2_6 C2_6 1_555 1_555
C3_7 C2_6 1_555 1_555
C4_6 C3_7 1_555 1_555
H3_6 C4_6 1_555 1_555
C5_6 C4_6 1_555 1_555
H4_6 C5_6 1_555 1_555
C6_7 C3_7 1_555 1_555
C7_7 C9_7 1_555 1_555
C8_7 C14_7 1_555 1_555
C9_7 C10_7 1_555 1_555
C10_7 H5_7 1_555 1_555
C11_7 C10_7 1_555 1_555
H6_7 C11_7 1_555 1_555
C12_7 H7_9 1_555 1_555
C13_7 C9_7 1_555 1_555
H8_7 C13_7 1_555 1_555
C14_7 C15_7 1_555 1_555
C15_7 H9_7 1_555 1_555
C16_7 C15_7 1_555 1_555
H10_7 C16_7 1_555 1_555
C17_6 H11_6 1_555 1_555
C18_6 C14_7 1_555 1_555
H12_6 C18_6 1_555 1_555
C19_6 H13_6 1_555 1_555
C20_6 C19_6 1_555 1_555
H14_6 C20_6 1_555 1_555
C21_6 C20_6 1_555 1_555
C22_6 C21_6 1_555 1_555
H15_6 C22_6 1_555 1_555
C23_6 C22_6 1_555 1_555
H16_6 C23_6 1_555 1_555
C24_6 C21_6 1_555 1_555
C25_6 C27_6 1_555 1_555
C26_6 C32_6 1_555 1_555
C27_6 C28_6 1_555 1_555
C28_6 H17_6 1_555 1_555
C29_6 C28_6 1_555 1_555
H18_6 C29_6 1_555 1_555
C30_6 H19_6 1_555 1_555
C31_6 C27_6 1_555 1_555
H20_6 C31_6 1_555 1_555
C32_6 C33_6 1_555 1_555
C33_6 H21_6 1_555 1_555
C34_6 C33_6 1_555 1_555
H22_6 C34_6 1_555 1_555
C35_6 H23_6 1_555 1_555
C36_6 C32_6 1_555 1_555
H24_6 C36_6 1_555 1_555
I1_6 Zn1_6 1_555 1_555
I2_6 Zn1_6 1_555 1_555
I3_6 Zn4_3 1_555 1_555
I4_6 Zn4_3 1_555 1_555
N1_6 C1_6 1_555 1_555
N2_7 C6_7 1_555 1_555
N3_7 C7_7 1_555 1_555
N4_7 C6_7 1_555 1_555
N6_6 C16_7 1_555 1_555
N13_3 C19_6 1_555 1_555
N8_6 C24_6 1_555 1_555
N9_6 C25_6 1_555 1_555
N10_6 C24_6 1_555 1_555
N14_3 C29_6 1_555 1_555
N12_6 C34_6 1_555 1_555
Zn1_6 N1_6 1_555 1_555
Zn4_3 N6_6 1_555 1_555
C5_6 N1_6 1_555 1_555
C7_7 N2_7 1_555 1_555
C8_7 N3_7 1_555 1_555
C8_7 N4_7 1_555 1_555
C12_7 C13_7 1_555 1_555
C17_6 C18_6 1_555 1_555
C17_6 N6_6 1_555 1_555
C23_6 N13_3 1_555 1_555
C25_6 N8_6 1_555 1_555
C26_6 N9_6 1_555 1_555
C26_6 N10_6 1_555 1_555
C30_6 C31_6 1_555 1_555
C30_6 N14_3 1_555 1_555
C35_6 C36_6 1_555 1_555
C35_6 N12_6 1_555 1_555
N12_6 Zn1_6 1_555 1_555
H3_7 C4_7 1_555 1_555
C5_7 C4_7 1_555 1_555
H4_7 C5_7 1_555 1_555
C17_7 H11_7 1_555 1_555
H12_7 C18_7 1_555 1_555
C22_7 C21_7 1_555 1_555
H15_7 C22_7 1_555 1_555
C24_7 C21_7 1_555 1_555
C25_7 C27_7 1_555 1_555
C26_7 C32_7 1_555 1_555
C27_7 C28_7 1_555 1_555
C28_7 H17_7 1_555 1_555
C29_7 C28_7 1_555 1_555
H18_7 C29_7 1_555 1_555
C30_7 H19_7 1_555 1_555
C31_7 C27_7 1_555 1_555
H20_7 C31_7 1_555 1_555
C32_7 C33_7 1_555 1_555
C33_7 H21_7 1_555 1_555
C34_7 C33_7 1_555 1_555
H22_7 C34_7 1_555 1_555
C35_7 H23_7 1_555 1_555
C36_7 C32_7 1_555 1_555
H24_7 C36_7 1_555 1_555
I2_7 Zn1_7 1_555 1_555
I3_7 Zn2_4 1_555 1_555
I4_7 Zn2_4 1_555 1_555
N8_7 C24_7 1_555 1_555
N9_7 C25_7 1_555 1_555
N10_7 C24_7 1_555 1_555
N11_3 C29_7 1_555 1_555
N12_7 C34_7 1_555 1_555
Zn1_7 N1_7 1_555 1_555
Zn2_4 N6_7 1_555 1_555
N13_4 Zn2_4 1_555 1_555
Zn5_3 N11_3 1_555 1_555
C5_7 N1_7 1_555 1_555
C17_7 C18_7 1_555 1_555
C17_7 N6_7 1_555 1_555
C25_7 N8_7 1_555 1_555
C26_7 N9_7 1_555 1_555
C26_7 N10_7 1_555 1_555
C30_7 C31_7 1_555 1_555
C30_7 N11_3 1_555 1_555
C35_7 C36_7 1_555 1_555
C35_7 N12_7 1_555 1_555
N12_7 Zn1_7 1_555 1_555
C1_7 H1_7 1_555 1_555
C2_7 C1_7 1_555 1_555
H2_7 C2_7 1_555 1_555
C19_7 H13_7 1_555 1_555
C20_7 C19_7 1_555 1_555
H14_7 C20_7 1_555 1_555
H16_7 C23_7 1_555 1_555
N13_4 C19_7 1_555 1_555
C23_7 N13_4 1_555 1_555
I5_6 Zn5_3 1_555 1_555
I6_6 Zn5_3 1_555 1_555
Zn5_3 N5_6 1_555 1_555
C1_8 H1_8 1_555 1_555
C2_8 C1_8 1_555 1_555
H2_8 C2_8 1_555 1_555
C3_8 C2_8 1_555 1_555
C6_8 C3_8 1_555 1_555
C7_8 C9_8 1_555 1_555
C8_8 C14_8 1_555 1_555
C9_8 C10_8 1_555 1_555
C10_8 H5_8 1_555 1_555
C11_8 C10_8 1_555 1_555
H6_8 C11_8 1_555 1_555
C12_8 H7_11 1_555 1_555
C13_8 C9_8 1_555 1_555
H8_8 C13_8 1_555 1_555
C14_8 C15_8 1_555 1_555
C15_8 H9_8 1_555 1_555
C16_8 C15_8 1_555 1_555
H10_8 C16_8 1_555 1_555
C19_8 H13_8 1_555 1_555
C20_8 C19_8 1_555 1_555
H14_8 C20_8 1_555 1_555
H16_8 C23_8 1_555 1_555
I5_7 Zn3_4 1_555 1_555
I6_7 Zn3_4 1_555 1_555
N2_8 C6_8 1_555 1_555
N3_8 C7_8 1_555 1_555
N4_8 C6_8 1_555 1_555
N5_7 C11_8 1_555 1_555
N7_4 C19_8 1_555 1_555
Zn3_4 N5_7 1_555 1_555
Zn4_4 N7_4 1_555 1_555
C7_8 N2_8 1_555 1_555
C8_8 N3_8 1_555 1_555
C8_8 N4_8 1_555 1_555
C12_8 C13_8 1_555 1_555
C12_8 N5_7 1_555 1_555
C23_8 N7_4 1_555 1_555
H3_8 C4_8 1_555 1_555
C17_8 H11_8 1_555 1_555
H12_8 C18_8 1_555 1_555
I3_8 Zn4_4 1_555 1_555
I4_8 Zn4_4 1_555 1_555
Zn4_4 N6_8 1_555 1_555
C17_8 C18_8 1_555 1_555
C17_8 N6_8 1_555 1_555
I5_8 Zn5_4 1_555 1_555
I6_8 Zn5_4 1_555 1_555
Zn5_4 N5_8 1_555 1_555
H4_8 C5_8 1_555 1_555
C22_8 C21_8 1_555 1_555
H15_8 C22_8 1_555 1_555
C24_8 C21_8 1_555 1_555
C25_8 C27_8 1_555 1_555
C26_8 C32_8 1_555 1_555
C27_8 C28_8 1_555 1_555
C28_8 H17_8 1_555 1_555
C29_8 C28_8 1_555 1_555
H18_8 C29_8 1_555 1_555
C30_8 H19_8 1_555 1_555
C31_8 C27_8 1_555 1_555
H20_8 C31_8 1_555 1_555
C32_8 C33_8 1_555 1_555
C33_8 H21_8 1_555 1_555
C34_8 C33_8 1_555 1_555
H22_8 C34_8 1_555 1_555
C35_8 H23_8 1_555 1_555
C36_8 C32_8 1_555 1_555
H24_8 C36_8 1_555 1_555
I1_7 Zn1_8 1_555 1_555
I2_8 Zn1_8 1_555 1_555
N8_8 C24_8 1_555 1_555
N9_8 C25_8 1_555 1_555
N10_8 C24_8 1_555 1_555
N11_4 C29_8 1_555 1_555
N12_8 C34_8 1_555 1_555
Zn1_8 N1_8 1_555 1_555
C5_8 N1_8 1_555 1_555
C25_8 N8_8 1_555 1_555
C26_8 N9_8 1_555 1_555
C26_8 N10_8 1_555 1_555
C30_8 C31_8 1_555 1_555
C30_8 N11_4 1_555 1_555
C35_8 C36_8 1_555 1_555
C35_8 N12_8 1_555 1_555
N12_8 Zn1_8 1_555 1_555

#END
