
###############################################################################
#
# This file contains modified crystal structure data generated from the
# MOF subset of the Cambridge Structural Database (CSD) v543 
# hosted by the Cambridge Crystallographic Data Centre (CCDC).
#
# This work is licensed under the Creative Commons
# Attribution-NonCommercial-ShareAlike 4.0 International License.
# To view a copy of this license, visit
# http://creativecommons.org/licenses/by-nc-sa/4.0/
# or send a letter to
# Creative Commons, PO Box 1866, Mountain View, CA 94042, USA.
#
# CIF created using the CSD Python API on 29 September 2022
# The structure has been converted into the P1 space group
# The structure has a 3D framework
# The original CSD entry XAPDAU is in the orthorhombic crystal system
# The framework has been calculated to contain at least 10.0% void space
# The void calculation uses a probe of radius 1.32A, grid spacing 0.4
#
###############################################################################

data_XAPDAU
_chemical_formula_moiety         '(C288 H192 I48 N92 Zn24)n'
_symmetry_cell_setting           triclinic
_symmetry_space_group_name_H-M   'P 1'
_symmetry_Int_Tables_number      1
_space_group_name_Hall           'P 1'
loop_
_symmetry_equiv_pos_site_id
_symmetry_equiv_pos_as_xyz
1 x,y,z
_cell_length_a                   27.5680(18)
_cell_length_b                   13.7285(9)
_cell_length_c                   45.836(3)
_cell_angle_alpha                90
_cell_angle_beta                 90
_cell_angle_gamma                90
_cell_volume                     17347.4
loop_
_atom_site_label
_atom_site_type_symbol
_atom_site_fract_x
_atom_site_fract_y
_atom_site_fract_z
I3 I 0.07666(3) 0.28118(6) 0.13319(2)
I4 I 0.01521(3) 0.27862(5) 0.042957(17)
Zn2 Zn 0.02980(4) 0.36176(7) 0.09205(2)
N14 N 0.0599(3) 0.4964(5) 0.08380(16)
H2 H 0.3016 0.9916 0.2794
C6 C 0.2219(3) 0.9763(5) 0.31238(16)
C7 C 0.2574(3) 0.9409(5) 0.35543(16)
C8 C 0.1757(3) 0.9434(5) 0.35145(16)
C9 C 0.3020(3) 0.9267(5) 0.37318(16)
C10 C 0.3476(3) 0.9395(6) 0.36005(17)
H5 H 0.3502 0.9585 0.3402
C11 C 0.3884(3) 0.9236(6) 0.37680(17)
H6 H 0.4193 0.9335 0.3681
C12 C 0.3423(3) 0.8842(6) 0.41733(17)
H7 H 0.3405 0.8652 0.4372
C13 C 0.3000(3) 0.8998(6) 0.40220(17)
H8 H 0.2696 0.8922 0.4116
C14 C 0.1274(3) 0.9321(5) 0.36498(16)
C15 C 0.1225(3) 0.9171(6) 0.39469(18)
H9 H 0.1502 0.9163 0.4070
C16 C 0.0764(3) 0.9032(6) 0.40615(18)
H10 H 0.0731 0.8953 0.4267
C17 C 0.0409(3) 0.9163(6) 0.36089(19)
H11 H 0.0127 0.9165 0.3490
C18 C 0.0857(3) 0.9327(6) 0.34792(19)
H12 H 0.0879 0.9442 0.3275
C21 C 0.1695(3) 0.9771(6) 0.11028(17)
C22 C 0.1926(4) 0.9282(6) 0.1325(2)
H15 H 0.1944 0.8591 0.1325
C23 C 0.2134(3) 0.9817(6) 0.15506(19)
H16 H 0.2289 0.9479 0.1706
C24 C 0.1454(3) 0.9235(6) 0.08630(18)
C25 C 0.1102(3) 0.9224(6) 0.04211(17)
C26 C 0.1112(3) 0.7853(6) 0.06955(18)
C29 C 0.0932(3) 0.9752(6) 0.01543(18)
C32 C 0.0672(4) 0.5294(7) 0.0569(2)
H21 H 0.0609 0.4877 0.0408
C33 C 0.0840(4) 0.6237(7) 0.0517(2)
H22 H 0.0881 0.6463 0.0323
C34 C 0.0947(3) 0.6840(6) 0.07494(19)
C35 C 0.0879(3) 0.6486(6) 0.1031(2)
H23 H 0.0946 0.6881 0.1196
C36 C 0.0712(3) 0.5549(6) 0.1063(2)
H24 H 0.0676 0.5300 0.1255
I5 I 0.51697(2) 0.95231(5) 0.399593(13)
I6 I 0.44914(3) 0.67495(5) 0.433518(16)
N2 N 0.2632(2) 0.9638(4) 0.32755(13)
N3 N 0.2145(2) 0.9301(4) 0.36895(14)
N4 N 0.1773(2) 0.9665(4) 0.32311(14)
N5 N 0.3864(2) 0.8950(5) 0.40470(14)
N6 N 0.0359(3) 0.9003(5) 0.38944(16)
N8 N 0.1341(2) 0.9730(5) 0.06219(14)
N9 N 0.0983(3) 0.8280(5) 0.04434(15)
N10 N 0.1351(2) 0.8293(5) 0.09119(15)
Zn3 Zn 0.45046(3) 0.85904(7) 0.42628(2)
N13 N 0.4373(3) 0.9257(5) 0.46624(14)
C1 C 0.2225(3) 0.9537(6) 0.74080(17)
H1 H 0.1911 0.9489 0.7324
C2 C 0.2264(3) 0.9892(5) 0.76878(16)
C3 C 0.2723(3) 0.9961(5) 0.78108(16)
C4 C 0.3127(3) 0.9730(6) 0.76460(18)
H3 H 0.3445 0.9806 0.7723
C5 C 0.3053(3) 0.9382(7) 0.73636(19)
H4 H 0.3328 0.9227 0.7248
C19 C 0.3102(3) 0.8734(6) 0.63397(17)
H13 H 0.3113 0.8042 0.6343
C20 C 0.3318(3) 0.9230(6) 0.61111(18)
H14 H 0.3476 0.8878 0.5960
C30 C 0.3949(3) 0.9273(6) 0.51162(19)
H19 H 0.3760 0.8936 0.5257
C31 C 0.4113(4) 0.8807(6) 0.48686(19)
H20 H 0.4037 0.8137 0.4843
I1 I 0.30479(2) 0.68970(4) 0.696084(13)
I2 I 0.16305(2) 0.82807(6) 0.676285(15)
N1 N 0.2610(3) 0.9256(5) 0.72471(14)
N7 N 0.2876(3) 0.9206(5) 0.65570(15)
Zn1 Zn 0.25324(4) 0.84245(7) 0.68780(2)
C1_2 C 0.7225(3) 0.5463(6) 0.25920(17)
H1_2 H 0.6911 0.5511 0.2676
C2_2 C 0.7264(3) 0.5108(5) 0.23122(16)
H2_2 H 0.6984 0.4916 0.2206
C3_2 C 0.7723(3) 0.5039(5) 0.21892(16)
C4_2 C 0.8127(3) 0.5270(6) 0.23540(18)
H3_2 H 0.8445 0.5194 0.2277
C5_2 C 0.8053(3) 0.5618(7) 0.26364(19)
H4_2 H 0.8328 0.5773 0.2752
C6_2 C 0.7781(3) 0.4763(5) 0.18762(16)
C7_2 C 0.7426(3) 0.4409(5) 0.14457(16)
C8_2 C 0.8243(3) 0.4434(5) 0.14855(16)
C9_2 C 0.6980(3) 0.4267(5) 0.12682(16)
C10_2 C 0.6524(3) 0.4395(6) 0.13995(17)
H5_2 H 0.6498 0.4585 0.1598
C11_2 C 0.6116(3) 0.4236(6) 0.12320(17)
H6_2 H 0.5807 0.4335 0.1319
C12_2 C 0.6577(3) 0.3842(6) 0.08267(17)
H7_2 H 0.6595 0.3652 0.0628
C13_2 C 0.7000(3) 0.3998(6) 0.09780(17)
H8_2 H 0.7304 0.3922 0.0884
C14_2 C 0.8726(3) 0.4321(5) 0.13502(16)
C15_2 C 0.8775(3) 0.4171(6) 0.10531(18)
H9_2 H 0.8498 0.4163 0.0930
C16_2 C 0.9236(3) 0.4032(6) 0.09385(18)
H10_2 H 0.9269 0.3953 0.0733
C17_2 C 0.9591(3) 0.4163(6) 0.13911(19)
H11_2 H 0.9873 0.4165 0.1510
C18_2 C 0.9143(3) 0.4327(6) 0.15208(19)
H12_2 H 0.9121 0.4442 0.1725
C19_2 C 0.8102(3) 0.6266(6) 0.36603(17)
H13_2 H 0.8113 0.6958 0.3657
C20_2 C 0.8318(3) 0.5770(6) 0.38889(18)
H14_2 H 0.8476 0.6122 0.4040
C21_2 C 0.8305(3) 0.4771(6) 0.38972(17)
C22_2 C 0.8074(4) 0.4282(6) 0.3675(2)
H15_2 H 0.8056 0.3591 0.3675
C23_2 C 0.7866(3) 0.4817(6) 0.34494(19)
H16_2 H 0.7711 0.4479 0.3294
C24_2 C 0.8546(3) 0.4235(6) 0.41370(18)
C25_2 C 0.8898(3) 0.4224(6) 0.45789(17)
C26_2 C 0.8888(3) 0.2853(6) 0.43045(18)
C27 C 0.9497(3) 0.4808(6) 0.52937(19)
H17 H 0.9694 0.4491 0.5435
C28 C 0.9352(3) 0.4296(7) 0.5055(2)
H18 H 0.9445 0.3634 0.5031
C29_2 C 0.9068(3) 0.4752(6) 0.48457(18)
C30_2 C 0.8949(3) 0.5727(6) 0.48838(19)
H19_2 H 0.8760 0.6064 0.4743
C31_2 C 0.9113(4) 0.6193(6) 0.51314(19)
H20_2 H 0.9037 0.6863 0.5157
C32_2 C 0.9328(4) 0.0294(7) 0.4431(2)
C33_2 C 0.9160(4) 0.1237(7) 0.4483(2)
H22_2 H 0.9119 0.1463 0.4677
C34_2 C 0.9053(3) 0.1840(6) 0.42506(19)
C35_2 C 0.9121(3) 0.1486(6) 0.3969(2)
H23_2 H 0.9054 0.1881 0.3804
C36_2 C 0.9288(3) 0.0549(6) 0.3937(2)
H24_2 H 0.9324 0.0300 0.3745
I1_2 I 0.80479(2) 0.81030(4) 0.303916(13)
I2_2 I 0.66305(2) 0.67193(6) 0.323715(15)
I5_2 I 0.48303(2) 0.45231(5) 0.100407(13)
I6_2 I 0.55086(3) 0.17495(5) 0.066482(16)
N1_2 N 0.7610(3) 0.5744(5) 0.27529(14)
N2_2 N 0.7368(2) 0.4638(4) 0.17245(13)
N3_2 N 0.7855(2) 0.4301(4) 0.13105(14)
N4_2 N 0.8227(2) 0.4665(4) 0.17689(14)
N5_2 N 0.6136(2) 0.3950(5) 0.09530(14)
N6_2 N 0.9641(3) 0.4003(5) 0.11056(16)
N7_2 N 0.7876(3) 0.5794(5) 0.34430(15)
N8_2 N 0.8659(2) 0.4730(5) 0.43781(14)
N9_2 N 0.9017(3) 0.3280(5) 0.45566(15)
N10_2 N 0.8649(2) 0.3293(5) 0.40881(15)
N11 N 0.9373(3) 0.5743(5) 0.53376(14)
Zn1_2 Zn 0.75324(4) 0.65755(7) 0.31220(2)
Zn3_2 Zn 0.54954(3) 0.35904(7) 0.07372(2)
N13_2 N 0.5627(3) 0.4257(5) 0.03376(14)
Zn5 Zn 0.95046(3) 0.64096(7) 0.57372(2)
H21_2 H 0.5609 0.0123 0.9592
N12 N 0.5599(3) 0.0036(5) 0.91620(16)
Zn4 Zn 0.52980(4) 0.13824(7) 0.90795(2)
C27_2 C 0.5503(3) 0.5192(6) 0.02937(19)
H17_2 H 0.5306 0.5509 0.0435
C28_2 C 0.5648(3) 0.5704(7) 0.0055(2)
H18_2 H 0.5555 0.6366 0.0031
C31_3 C 0.5887(4) 0.3807(6) 0.01314(19)
H20_3 H 0.5963 0.3137 0.0157
C1_3 C 0.7775(3) 0.4537(6) 0.75920(17)
H1_3 H 0.8089 0.4489 0.7676
C2_3 C 0.7736(3) 0.4892(5) 0.73122(16)
H2_3 H 0.8016 0.5084 0.7206
C3_3 C 0.7277(3) 0.4961(5) 0.71892(16)
C4_3 C 0.6873(3) 0.4730(6) 0.73540(18)
H3_3 H 0.6555 0.4806 0.7277
C5_3 C 0.6947(3) 0.4382(7) 0.76364(19)
H4_3 H 0.6672 0.4227 0.7752
C6_3 C 0.7219(3) 0.5237(5) 0.68762(16)
C7_3 C 0.7574(3) 0.5591(5) 0.64457(16)
C8_3 C 0.6757(3) 0.5566(5) 0.64855(16)
C9_3 C 0.8020(3) 0.5733(5) 0.62682(16)
C10_3 C 0.8476(3) 0.5605(6) 0.63995(17)
H5_3 H 0.8502 0.5415 0.6598
C11_3 C 0.8884(3) 0.5764(6) 0.62320(17)
H6_3 H 0.9193 0.5665 0.6319
C12_3 C 0.8423(3) 0.6158(6) 0.58267(17)
H7_3 H 0.8405 0.6348 0.5628
C13_3 C 0.8000(3) 0.6002(6) 0.59780(17)
H8_3 H 0.7696 0.6078 0.5884
C14_3 C 0.6274(3) 0.5679(5) 0.63502(16)
C15_3 C 0.6225(3) 0.5829(6) 0.60531(18)
H9_3 H 0.6502 0.5837 0.5930
C16_3 C 0.5764(3) 0.5968(6) 0.59385(18)
H10_3 H 0.5731 0.6047 0.5733
C17_3 C 0.5409(3) 0.5837(6) 0.63911(19)
H11_3 H 0.5127 0.5835 0.6510
C18_3 C 0.5857(3) 0.5673(6) 0.65208(19)
H12_3 H 0.5879 0.5558 0.6725
C19_3 C 0.6898(3) 0.3734(6) 0.86603(17)
H13_3 H 0.6887 0.3042 0.8657
C20_3 C 0.6682(3) 0.4230(6) 0.88889(18)
H14_3 H 0.6524 0.3878 0.9040
C21_3 C 0.6695(3) 0.5229(6) 0.88972(17)
C22_3 C 0.6926(4) 0.5718(6) 0.8675(2)
H15_3 H 0.6944 0.6409 0.8675
C23_3 C 0.7134(3) 0.5183(6) 0.84494(19)
H16_3 H 0.7289 0.5521 0.8294
C24_3 C 0.6454(3) 0.5765(6) 0.91370(18)
C25_3 C 0.6102(3) 0.5776(6) 0.95789(17)
C26_3 C 0.6112(3) 0.7147(6) 0.93045(18)
C29_3 C 0.5932(3) 0.5248(6) 0.98457(18)
C30_3 C 0.6051(3) 0.4273(6) 0.98838(19)
H19_3 H 0.6240 0.3936 0.9743
C32_3 C 0.5672(4) 0.9706(7) 0.9431(2)
C33_3 C 0.5840(4) 0.8763(7) 0.9483(2)
H22_3 H 0.5881 0.8537 0.9677
C34_3 C 0.5947(3) 0.8160(6) 0.92506(19)
C35_3 C 0.5879(3) 0.8514(6) 0.8969(2)
H23_3 H 0.5946 0.8119 0.8804
C36_3 C 0.5712(3) 0.9451(6) 0.8937(2)
H24_3 H 0.5676 0.9700 0.8745
I1_3 I 0.69521(2) 0.18970(4) 0.803916(13)
I2_3 I 0.83695(2) 0.32807(6) 0.823715(15)
I3_2 I 0.42334(3) 0.71882(6) 0.63319(2)
I4_2 I 0.48479(3) 0.72138(5) 0.542957(17)
I6_3 I 0.94914(3) 0.82505(5) 0.566482(16)
N1_3 N 0.7390(3) 0.4256(5) 0.77529(14)
N2_3 N 0.7632(2) 0.5362(4) 0.67245(13)
N3_3 N 0.7145(2) 0.5699(4) 0.63105(14)
N4_3 N 0.6773(2) 0.5335(4) 0.67689(14)
N5_3 N 0.8864(2) 0.6050(5) 0.59530(14)
N6_3 N 0.5359(3) 0.5997(5) 0.61056(16)
N7_3 N 0.7124(3) 0.4206(5) 0.84430(15)
N8_3 N 0.6341(2) 0.5270(5) 0.93781(14)
N9_3 N 0.5983(3) 0.6720(5) 0.95566(15)
N10_3 N 0.6351(2) 0.6707(5) 0.90881(15)
Zn1_3 Zn 0.74676(4) 0.34245(7) 0.81220(2)
Zn2_2 Zn 0.47020(4) 0.63824(7) 0.59205(2)
N14_2 N 0.4401(3) 0.5036(5) 0.58380(16)
C31_4 C 0.0887(4) 0.1193(6) 0.98686(19)
H20_4 H 0.0963 0.1863 0.9843
N11_2 N 0.0627(3) 0.0743(5) 0.96624(14)
Zn5_2 Zn 0.04954(3) 0.14096(7) 0.92628(2)
H2_4 H 0.1984 0.0084 0.7794
C6_4 C 0.2781(3) 0.0237(5) 0.81238(16)
C7_4 C 0.2426(3) 0.0591(5) 0.85543(16)
C8_4 C 0.3243(3) 0.0566(5) 0.85145(16)
C9_4 C 0.1980(3) 0.0733(5) 0.87318(16)
C10_4 C 0.1524(3) 0.0605(6) 0.86005(17)
H5_4 H 0.1498 0.0415 0.8402
C11_4 C 0.1116(3) 0.0764(6) 0.87680(17)
H6_4 H 0.0807 0.0665 0.8681
C12_4 C 0.1577(3) 0.1158(6) 0.91733(17)
H7_4 H 0.1595 0.1348 0.9372
C13_4 C 0.2000(3) 0.1002(6) 0.90220(17)
H8_4 H 0.2304 0.1078 0.9116
C14_4 C 0.3726(3) 0.0679(5) 0.86498(16)
C15_4 C 0.3775(3) 0.0829(6) 0.89469(18)
H9_4 H 0.3498 0.0837 0.9070
C16_4 C 0.4236(3) 0.0968(6) 0.90615(18)
H10_4 H 0.4269 0.1047 0.9267
C17_4 C 0.4591(3) 0.0837(6) 0.86089(19)
H11_4 H 0.4873 0.0835 0.8490
C18_4 C 0.4143(3) 0.0673(6) 0.84792(19)
H12_4 H 0.4121 0.0558 0.8275
C21_4 C 0.3305(3) 0.0229(6) 0.61028(17)
C22_4 C 0.3074(4) 0.0718(6) 0.6325(2)
H15_4 H 0.3056 0.1409 0.6325
C23_4 C 0.2866(3) 0.0183(6) 0.65506(19)
H16_4 H 0.2711 0.0521 0.6706
C24_4 C 0.3546(3) 0.0765(6) 0.58630(18)
C25_4 C 0.3898(3) 0.0776(6) 0.54211(17)
C26_4 C 0.3888(3) 0.2147(6) 0.56955(18)
C27_3 C 0.4497(3) 0.0192(6) 0.47063(19)
H17_3 H 0.4694 0.0509 0.4565
C28_3 C 0.4352(3) 0.0704(7) 0.4945(2)
H18_3 H 0.4445 0.1366 0.4969
C29_4 C 0.4068(3) 0.0248(6) 0.51543(18)
C32_4 C 0.4328(4) 0.4706(7) 0.5569(2)
H21_3 H 0.4391 0.5123 0.5408
C33_4 C 0.4160(4) 0.3763(7) 0.5517(2)
H22_4 H 0.4119 0.3537 0.5323
C34_4 C 0.4053(3) 0.3160(6) 0.57494(19)
C35_4 C 0.4121(3) 0.3514(6) 0.6031(2)
H23_4 H 0.4054 0.3119 0.6196
C36_4 C 0.4288(3) 0.4451(6) 0.6063(2)
H24_4 H 0.4324 0.4700 0.6255
I3_3 I 0.57666(3) 0.21882(6) 0.86681(2)
I4_3 I 0.51521(3) 0.22138(5) 0.957043(17)
I6_4 I 0.05086(3) 0.32505(5) 0.933518(16)
N2_4 N 0.2368(2) 0.0362(4) 0.82755(13)
N3_4 N 0.2855(2) 0.0699(4) 0.86895(14)
N4_4 N 0.3227(2) 0.0335(4) 0.82311(14)
N5_4 N 0.1136(2) 0.1050(5) 0.90470(14)
N6_4 N 0.4641(3) 0.0997(5) 0.88944(16)
N8_4 N 0.3659(2) 0.0270(5) 0.56219(14)
N9_4 N 0.4017(3) 0.1720(5) 0.54434(15)
N10_4 N 0.3649(2) 0.1707(5) 0.59119(15)
H21_4 H 0.9391 0.9877 0.4592
N12_2 N 0.9401(3) 0.9964(5) 0.41620(16)
Zn4_2 Zn 0.97020(4) 0.86176(7) 0.40795(2)
I3_4 I 0.92334(3) 0.78118(6) 0.36681(2)
I4_4 I 0.98479(3) 0.77862(5) 0.457043(17)
I5_3 I 0.01697(2) 0.54769(5) 0.600407(13)
C1_4 C 0.2775(3) 0.0463(6) 0.24080(17)
H1_4 H 0.3089 0.0511 0.2324
C2_4 C 0.2736(3) 0.0108(5) 0.26878(16)
C3_4 C 0.2277(3) 0.0039(5) 0.28108(16)
C4_4 C 0.1873(3) 0.0270(6) 0.26460(18)
H3_4 H 0.1555 0.0194 0.2723
C5_4 C 0.1947(3) 0.0618(7) 0.23636(19)
H4_4 H 0.1672 0.0773 0.2248
C19_4 C 0.1898(3) 0.1266(6) 0.13397(17)
H13_4 H 0.1887 0.1958 0.1343
C20_4 C 0.1682(3) 0.0770(6) 0.11111(18)
H14_4 H 0.1524 0.1122 0.0960
C30_4 C 0.1051(3) 0.0727(6) 0.01162(19)
H19_4 H 0.1240 0.1064 0.0257
I1_4 I 0.19521(2) 0.31030(4) 0.196084(13)
I2_4 I 0.33695(2) 0.17193(6) 0.176285(15)
N1_4 N 0.2390(3) 0.0744(5) 0.22471(14)
N7_4 N 0.2124(3) 0.0794(5) 0.15570(15)
Zn1_4 Zn 0.24676(4) 0.15755(7) 0.18780(2)
C27_4 C 0.0503(3) 0.9808(6) 0.97063(19)
H17_4 H 0.0306 0.9491 0.9565
C28_4 C 0.0648(3) 0.9296(7) 0.9945(2)
H18_4 H 0.0555 0.8634 0.9969
I5_4 I 0.98303(2) 0.04769(5) 0.899593(13)
H21_5 H 0.0609 0.0123 0.5408
N12_3 N 0.0599(3) 0.0036(5) 0.58380(16)
Zn4_3 Zn 0.02980(4) 0.13824(7) 0.59205(2)
I3_5 I 0.07666(3) 0.21882(6) 0.63319(2)
I4_5 I 0.01521(3) 0.22138(5) 0.542957(17)
C1_5 C 0.2775(3) 0.4537(6) 0.74080(17)
H1_5 H 0.3089 0.4489 0.7324
C2_5 C 0.2736(3) 0.4892(5) 0.76878(16)
H2_5 H 0.3016 0.5084 0.7794
C3_5 C 0.2277(3) 0.4961(5) 0.78108(16)
C4_5 C 0.1873(3) 0.4730(6) 0.76460(18)
H3_5 H 0.1555 0.4806 0.7723
C5_5 C 0.1947(3) 0.4382(7) 0.73636(19)
H4_5 H 0.1672 0.4227 0.7248
C6_5 C 0.2219(3) 0.5237(5) 0.81238(16)
C7_5 C 0.2574(3) 0.5591(5) 0.85543(16)
C8_5 C 0.1757(3) 0.5566(5) 0.85145(16)
C9_5 C 0.3020(3) 0.5733(5) 0.87318(16)
C10_5 C 0.3476(3) 0.5605(6) 0.86005(17)
H5_5 H 0.3502 0.5415 0.8402
C11_5 C 0.3884(3) 0.5764(6) 0.87680(17)
H6_5 H 0.4193 0.5665 0.8681
C12_5 C 0.3423(3) 0.6158(6) 0.91733(17)
H7_5 H 0.3405 0.6348 0.9372
C13_5 C 0.3000(3) 0.6002(6) 0.90220(17)
H8_5 H 0.2696 0.6078 0.9116
C14_5 C 0.1274(3) 0.5679(5) 0.86498(16)
C15_5 C 0.1225(3) 0.5829(6) 0.89469(18)
H9_5 H 0.1502 0.5837 0.9070
C16_5 C 0.0764(3) 0.5968(6) 0.90615(18)
H10_5 H 0.0731 0.6047 0.9267
C17_5 C 0.0409(3) 0.5837(6) 0.86089(19)
H11_5 H 0.0127 0.5835 0.8490
C18_5 C 0.0857(3) 0.5673(6) 0.84792(19)
H12_5 H 0.0879 0.5558 0.8275
C19_5 C 0.1898(3) 0.3734(6) 0.63397(17)
H13_5 H 0.1887 0.3042 0.6343
C20_5 C 0.1682(3) 0.4230(6) 0.61111(18)
H14_5 H 0.1524 0.3878 0.5960
C21_5 C 0.1695(3) 0.5229(6) 0.61028(17)
C22_5 C 0.1926(4) 0.5718(6) 0.6325(2)
H15_5 H 0.1944 0.6409 0.6325
C23_5 C 0.2134(3) 0.5183(6) 0.65506(19)
H16_5 H 0.2289 0.5521 0.6706
C24_5 C 0.1454(3) 0.5765(6) 0.58630(18)
C25_5 C 0.1102(3) 0.5776(6) 0.54211(17)
C26_5 C 0.1112(3) 0.7147(6) 0.56955(18)
C27_5 C 0.0503(3) 0.5192(6) 0.47063(19)
H17_5 H 0.0306 0.5509 0.4565
C28_5 C 0.0648(3) 0.5704(7) 0.4945(2)
H18_5 H 0.0555 0.6366 0.4969
C29_5 C 0.0932(3) 0.5248(6) 0.51543(18)
C30_5 C 0.1051(3) 0.4273(6) 0.51162(19)
H19_5 H 0.1240 0.3936 0.5257
C31_5 C 0.0887(4) 0.3807(6) 0.48686(19)
H20_5 H 0.0963 0.3137 0.4843
C32_5 C 0.0672(4) 0.9706(7) 0.5569(2)
C33_5 C 0.0840(4) 0.8763(7) 0.5517(2)
H22_5 H 0.0881 0.8537 0.5323
C34_5 C 0.0947(3) 0.8160(6) 0.57494(19)
C35_5 C 0.0879(3) 0.8514(6) 0.6031(2)
H23_5 H 0.0946 0.8119 0.6196
C36_5 C 0.0712(3) 0.9451(6) 0.6063(2)
H24_5 H 0.0676 0.9700 0.6255
I1_5 I 0.19521(2) 0.18970(4) 0.696084(13)
I2_5 I 0.33695(2) 0.32807(6) 0.676285(15)
I5_5 I 0.51697(2) 0.54769(5) 0.899593(13)
I6_5 I 0.44914(3) 0.82505(5) 0.933518(16)
N1_5 N 0.2390(3) 0.4256(5) 0.72471(14)
N2_5 N 0.2632(2) 0.5362(4) 0.82755(13)
N3_5 N 0.2145(2) 0.5699(4) 0.86895(14)
N4_5 N 0.1773(2) 0.5335(4) 0.82311(14)
N5_5 N 0.3864(2) 0.6050(5) 0.90470(14)
N6_5 N 0.0359(3) 0.5997(5) 0.88944(16)
N7_5 N 0.2124(3) 0.4206(5) 0.65570(15)
N8_5 N 0.1341(2) 0.5270(5) 0.56219(14)
N9_5 N 0.0983(3) 0.6720(5) 0.54434(15)
N10_5 N 0.1351(2) 0.6707(5) 0.59119(15)
N11_3 N 0.0627(3) 0.4257(5) 0.46624(14)
Zn1_5 Zn 0.24676(4) 0.34245(7) 0.68780(2)
Zn3_3 Zn 0.45046(3) 0.64096(7) 0.92628(2)
N13_3 N 0.4373(3) 0.5743(5) 0.96624(14)
Zn5_3 Zn 0.04954(3) 0.35904(7) 0.42628(2)
C1_6 C 0.2225(3) 0.5463(6) 0.24080(17)
H1_6 H 0.1911 0.5511 0.2324
C2_6 C 0.2264(3) 0.5108(5) 0.26878(16)
H2_6 H 0.1984 0.4916 0.2794
C3_6 C 0.2723(3) 0.5039(5) 0.28108(16)
C4_6 C 0.3127(3) 0.5270(6) 0.26460(18)
H3_6 H 0.3445 0.5194 0.2723
C5_6 C 0.3053(3) 0.5618(7) 0.23636(19)
H4_6 H 0.3328 0.5773 0.2248
C6_6 C 0.2781(3) 0.4763(5) 0.31238(16)
C7_6 C 0.2426(3) 0.4409(5) 0.35543(16)
C8_6 C 0.3243(3) 0.4434(5) 0.35145(16)
C9_6 C 0.1980(3) 0.4267(5) 0.37318(16)
C10_6 C 0.1524(3) 0.4395(6) 0.36005(17)
H5_6 H 0.1498 0.4585 0.3402
C11_6 C 0.1116(3) 0.4236(6) 0.37680(17)
H6_6 H 0.0807 0.4335 0.3681
C12_6 C 0.1577(3) 0.3842(6) 0.41733(17)
H7_6 H 0.1595 0.3652 0.4372
C13_6 C 0.2000(3) 0.3998(6) 0.40220(17)
H8_6 H 0.2304 0.3922 0.4116
C14_6 C 0.3726(3) 0.4321(5) 0.36498(16)
C15_6 C 0.3775(3) 0.4171(6) 0.39469(18)
H9_6 H 0.3498 0.4163 0.4070
C16_6 C 0.4236(3) 0.4032(6) 0.40615(18)
H10_6 H 0.4269 0.3953 0.4267
C17_6 C 0.4591(3) 0.4163(6) 0.36089(19)
H11_6 H 0.4873 0.4165 0.3490
C18_6 C 0.4143(3) 0.4327(6) 0.34792(19)
H12_6 H 0.4121 0.4442 0.3275
C19_6 C 0.3102(3) 0.6266(6) 0.13397(17)
H13_6 H 0.3113 0.6958 0.1343
C20_6 C 0.3318(3) 0.5770(6) 0.11111(18)
H14_6 H 0.3476 0.6122 0.0960
C21_6 C 0.3305(3) 0.4771(6) 0.11028(17)
C22_6 C 0.3074(4) 0.4282(6) 0.1325(2)
H15_6 H 0.3056 0.3591 0.1325
C23_6 C 0.2866(3) 0.4817(6) 0.15506(19)
H16_6 H 0.2711 0.4479 0.1706
C24_6 C 0.3546(3) 0.4235(6) 0.08630(18)
C25_6 C 0.3898(3) 0.4224(6) 0.04211(17)
C26_6 C 0.3888(3) 0.2853(6) 0.06955(18)
C29_6 C 0.4068(3) 0.4752(6) 0.01543(18)
C30_6 C 0.3949(3) 0.5727(6) 0.01162(19)
H19_6 H 0.3760 0.6064 0.0257
C32_6 C 0.4328(4) 0.0294(7) 0.0569(2)
C33_6 C 0.4160(4) 0.1237(7) 0.0517(2)
H22_6 H 0.4119 0.1463 0.0323
C34_6 C 0.4053(3) 0.1840(6) 0.07494(19)
C35_6 C 0.4121(3) 0.1486(6) 0.1031(2)
H23_6 H 0.4054 0.1881 0.1196
C36_6 C 0.4288(3) 0.0549(6) 0.1063(2)
H24_6 H 0.4324 0.0300 0.1255
I1_6 I 0.30479(2) 0.81030(4) 0.196084(13)
I2_6 I 0.16305(2) 0.67193(6) 0.176285(15)
I3_6 I 0.57666(3) 0.28118(6) 0.36681(2)
I4_6 I 0.51521(3) 0.27862(5) 0.457043(17)
I6_6 I 0.05086(3) 0.17495(5) 0.433518(16)
N1_6 N 0.2610(3) 0.5744(5) 0.22471(14)
N2_6 N 0.2368(2) 0.4638(4) 0.32755(13)
N3_6 N 0.2855(2) 0.4301(4) 0.36895(14)
N4_6 N 0.3227(2) 0.4665(4) 0.32311(14)
N5_6 N 0.1136(2) 0.3950(5) 0.40470(14)
N6_6 N 0.4641(3) 0.4003(5) 0.38944(16)
N7_6 N 0.2876(3) 0.5794(5) 0.15570(15)
N8_6 N 0.3659(2) 0.4730(5) 0.06219(14)
N9_6 N 0.4017(3) 0.3280(5) 0.04434(15)
N10_6 N 0.3649(2) 0.3293(5) 0.09119(15)
Zn1_6 Zn 0.25324(4) 0.65755(7) 0.18780(2)
Zn2_3 Zn 0.52980(4) 0.36176(7) 0.40795(2)
N14_3 N 0.5599(3) 0.4964(5) 0.41620(16)
C27_6 C 0.4497(3) 0.4808(6) 0.97063(19)
H17_6 H 0.4694 0.4491 0.9565
C28_6 C 0.4352(3) 0.4296(7) 0.9945(2)
H18_6 H 0.4445 0.3634 0.9969
C31_6 C 0.4113(4) 0.6193(6) 0.98686(19)
H20_6 H 0.4037 0.6863 0.9843
H21_6 H 0.4391 0.9877 0.0408
N12_4 N 0.4401(3) 0.9964(5) 0.08380(16)
Zn4_4 Zn 0.47020(4) 0.86176(7) 0.09205(2)
C31_7 C 0.9113(4) 0.8807(6) 0.01314(19)
H20_7 H 0.9037 0.8137 0.0157
N11_4 N 0.9373(3) 0.9257(5) 0.03376(14)
Zn5_4 Zn 0.95046(3) 0.85904(7) 0.07372(2)
H2_7 H 0.8016 0.9916 0.2206
C6_7 C 0.7219(3) 0.9763(5) 0.18762(16)
C7_7 C 0.7574(3) 0.9409(5) 0.14457(16)
C8_7 C 0.6757(3) 0.9434(5) 0.14855(16)
C9_7 C 0.8020(3) 0.9267(5) 0.12682(16)
C10_7 C 0.8476(3) 0.9395(6) 0.13995(17)
H5_7 H 0.8502 0.9585 0.1598
C11_7 C 0.8884(3) 0.9236(6) 0.12320(17)
H6_7 H 0.9193 0.9335 0.1319
C12_7 C 0.8423(3) 0.8842(6) 0.08267(17)
H7_7 H 0.8405 0.8652 0.0628
C13_7 C 0.8000(3) 0.8998(6) 0.09780(17)
H8_7 H 0.7696 0.8922 0.0884
C14_7 C 0.6274(3) 0.9321(5) 0.13502(16)
C15_7 C 0.6225(3) 0.9171(6) 0.10531(18)
H9_7 H 0.6502 0.9163 0.0930
C16_7 C 0.5764(3) 0.9032(6) 0.09385(18)
H10_7 H 0.5731 0.8953 0.0733
C17_7 C 0.5409(3) 0.9163(6) 0.13911(19)
H11_7 H 0.5127 0.9165 0.1510
C18_7 C 0.5857(3) 0.9327(6) 0.15208(19)
H12_7 H 0.5879 0.9442 0.1725
C21_7 C 0.6695(3) 0.9771(6) 0.38972(17)
C22_7 C 0.6926(4) 0.9282(6) 0.3675(2)
H15_7 H 0.6944 0.8591 0.3675
C23_7 C 0.7134(3) 0.9817(6) 0.34494(19)
H16_7 H 0.7289 0.9479 0.3294
C24_7 C 0.6454(3) 0.9235(6) 0.41370(18)
C25_7 C 0.6102(3) 0.9224(6) 0.45789(17)
C26_7 C 0.6112(3) 0.7853(6) 0.43045(18)
C27_7 C 0.5503(3) 0.9808(6) 0.52937(19)
H17_7 H 0.5306 0.9491 0.5435
C28_7 C 0.5648(3) 0.9296(7) 0.5055(2)
H18_7 H 0.5555 0.8634 0.5031
C29_7 C 0.5932(3) 0.9752(6) 0.48457(18)
C32_7 C 0.5672(4) 0.5294(7) 0.4431(2)
H21_7 H 0.5609 0.4877 0.4592
C33_7 C 0.5840(4) 0.6237(7) 0.4483(2)
H22_7 H 0.5881 0.6463 0.4677
C34_7 C 0.5947(3) 0.6840(6) 0.42506(19)
C35_7 C 0.5879(3) 0.6486(6) 0.3969(2)
H23_7 H 0.5946 0.6881 0.3804
C36_7 C 0.5712(3) 0.5549(6) 0.3937(2)
H24_7 H 0.5676 0.5300 0.3745
I3_7 I 0.42334(3) 0.78118(6) 0.13319(2)
I4_7 I 0.48479(3) 0.77862(5) 0.042957(17)
I6_7 I 0.94914(3) 0.67495(5) 0.066482(16)
N2_7 N 0.7632(2) 0.9638(4) 0.17245(13)
N3_7 N 0.7145(2) 0.9301(4) 0.13105(14)
N4_7 N 0.6773(2) 0.9665(4) 0.17689(14)
N5_7 N 0.8864(2) 0.8950(5) 0.09530(14)
N6_7 N 0.5359(3) 0.9003(5) 0.11056(16)
N8_7 N 0.6341(2) 0.9730(5) 0.43781(14)
N9_7 N 0.5983(3) 0.8280(5) 0.45566(15)
N10_7 N 0.6351(2) 0.8293(5) 0.40881(15)
I3_8 I 0.92334(3) 0.71882(6) 0.86681(2)
I4_8 I 0.98479(3) 0.72138(5) 0.957043(17)
Zn2_4 Zn 0.97020(4) 0.63824(7) 0.90795(2)
N14_4 N 0.9401(3) 0.5036(5) 0.91620(16)
H2_8 H 0.6984 0.0084 0.7206
C6_8 C 0.7781(3) 0.0237(5) 0.68762(16)
C7_8 C 0.7426(3) 0.0591(5) 0.64457(16)
C8_8 C 0.8243(3) 0.0566(5) 0.64855(16)
C9_8 C 0.6980(3) 0.0733(5) 0.62682(16)
C10_8 C 0.6524(3) 0.0605(6) 0.63995(17)
H5_8 H 0.6498 0.0415 0.6598
C11_8 C 0.6116(3) 0.0764(6) 0.62320(17)
H6_8 H 0.5807 0.0665 0.6319
C12_8 C 0.6577(3) 0.1158(6) 0.58267(17)
H7_8 H 0.6595 0.1348 0.5628
C13_8 C 0.7000(3) 0.1002(6) 0.59780(17)
H8_8 H 0.7304 0.1078 0.5884
C14_8 C 0.8726(3) 0.0679(5) 0.63502(16)
C15_8 C 0.8775(3) 0.0829(6) 0.60531(18)
H9_8 H 0.8498 0.0837 0.5930
C16_8 C 0.9236(3) 0.0968(6) 0.59385(18)
H10_8 H 0.9269 0.1047 0.5733
C17_8 C 0.9591(3) 0.0837(6) 0.63911(19)
H11_8 H 0.9873 0.0835 0.6510
C18_8 C 0.9143(3) 0.0673(6) 0.65208(19)
H12_8 H 0.9121 0.0558 0.6725
C21_8 C 0.8305(3) 0.0229(6) 0.88972(17)
C22_8 C 0.8074(4) 0.0718(6) 0.8675(2)
H15_8 H 0.8056 0.1409 0.8675
C23_8 C 0.7866(3) 0.0183(6) 0.84494(19)
H16_8 H 0.7711 0.0521 0.8294
C24_8 C 0.8546(3) 0.0765(6) 0.91370(18)
C25_8 C 0.8898(3) 0.0776(6) 0.95789(17)
C26_8 C 0.8888(3) 0.2147(6) 0.93045(18)
C29_8 C 0.9068(3) 0.0248(6) 0.98457(18)
C32_8 C 0.9328(4) 0.4706(7) 0.9431(2)
H21_8 H 0.9391 0.5123 0.9592
C33_8 C 0.9160(4) 0.3763(7) 0.9483(2)
H22_8 H 0.9119 0.3537 0.9677
C34_8 C 0.9053(3) 0.3160(6) 0.92506(19)
C35_8 C 0.9121(3) 0.3514(6) 0.8969(2)
H23_8 H 0.9054 0.3119 0.8804
C36_8 C 0.9288(3) 0.4451(6) 0.8937(2)
H24_8 H 0.9324 0.4700 0.8745
I5_6 I 0.48303(2) 0.04769(5) 0.600407(13)
I6_8 I 0.55086(3) 0.32505(5) 0.566482(16)
N2_8 N 0.7368(2) 0.0362(4) 0.67245(13)
N3_8 N 0.7855(2) 0.0699(4) 0.63105(14)
N4_8 N 0.8227(2) 0.0335(4) 0.67689(14)
N5_8 N 0.6136(2) 0.1050(5) 0.59530(14)
N6_8 N 0.9641(3) 0.0997(5) 0.61056(16)
N8_8 N 0.8659(2) 0.0270(5) 0.93781(14)
N9_8 N 0.9017(3) 0.1720(5) 0.95566(15)
N10_8 N 0.8649(2) 0.1707(5) 0.90881(15)
Zn3_4 Zn 0.54954(3) 0.14096(7) 0.57372(2)
N13_4 N 0.5627(3) 0.0743(5) 0.53376(14)
C1_7 C 0.7775(3) 0.0463(6) 0.25920(17)
H1_7 H 0.8089 0.0511 0.2676
C2_7 C 0.7736(3) 0.0108(5) 0.23122(16)
C3_7 C 0.7277(3) 0.0039(5) 0.21892(16)
C4_7 C 0.6873(3) 0.0270(6) 0.23540(18)
H3_7 H 0.6555 0.0194 0.2277
C5_7 C 0.6947(3) 0.0618(7) 0.26364(19)
H4_7 H 0.6672 0.0773 0.2752
C19_7 C 0.6898(3) 0.1266(6) 0.36603(17)
H13_7 H 0.6887 0.1958 0.3657
C20_7 C 0.6682(3) 0.0770(6) 0.38889(18)
H14_7 H 0.6524 0.1122 0.4040
C30_7 C 0.6051(3) 0.0727(6) 0.48838(19)
H19_7 H 0.6240 0.1064 0.4743
C31_8 C 0.5887(4) 0.1193(6) 0.51314(19)
H20_8 H 0.5963 0.1863 0.5157
I1_7 I 0.69521(2) 0.31030(4) 0.303916(13)
I2_7 I 0.83695(2) 0.17193(6) 0.323715(15)
N1_7 N 0.7390(3) 0.0744(5) 0.27529(14)
N7_7 N 0.7124(3) 0.0794(5) 0.34430(15)
Zn1_7 Zn 0.74676(4) 0.15755(7) 0.31220(2)
I5_7 I 0.98303(2) 0.45231(5) 0.399593(13)
C27_8 C 0.9497(3) 0.0192(6) 0.02937(19)
H17_8 H 0.9694 0.0509 0.0435
C28_8 C 0.9352(3) 0.0704(7) 0.0055(2)
H18_8 H 0.9445 0.1366 0.0031
C1_8 C 0.7225(3) 0.9537(6) 0.75920(17)
H1_8 H 0.6911 0.9489 0.7676
C2_8 C 0.7264(3) 0.9892(5) 0.73122(16)
C3_8 C 0.7723(3) 0.9961(5) 0.71892(16)
C4_8 C 0.8127(3) 0.9730(6) 0.73540(18)
H3_8 H 0.8445 0.9806 0.7277
C5_8 C 0.8053(3) 0.9382(7) 0.76364(19)
H4_8 H 0.8328 0.9227 0.7752
C19_8 C 0.8102(3) 0.8734(6) 0.86603(17)
H13_8 H 0.8113 0.8042 0.8657
C20_8 C 0.8318(3) 0.9230(6) 0.88889(18)
H14_8 H 0.8476 0.8878 0.9040
C30_8 C 0.8949(3) 0.9273(6) 0.98838(19)
H19_8 H 0.8760 0.8936 0.9743
I1_8 I 0.80479(2) 0.68970(4) 0.803916(13)
I2_8 I 0.66305(2) 0.82807(6) 0.823715(15)
N1_8 N 0.7610(3) 0.9256(5) 0.77529(14)
N7_8 N 0.7876(3) 0.9206(5) 0.84430(15)
Zn1_8 Zn 0.75324(4) 0.84245(7) 0.81220(2)
I5_8 I 0.01697(2) 0.95231(5) 0.100407(13)
loop_
_geom_bond_atom_site_label_1
_geom_bond_atom_site_label_2
_geom_bond_site_symmetry_1
_geom_bond_site_symmetry_2
I3 Zn2 1_555 1_555
I4 Zn2 1_555 1_555
N14 Zn2 1_555 1_555
C7 C9 1_555 1_555
C8 C14 1_555 1_555
C9 C10 1_555 1_555
C10 H5 1_555 1_555
C11 C10 1_555 1_555
H6 C11 1_555 1_555
C12 H7 1_555 1_555
C13 C9 1_555 1_555
H8 C13 1_555 1_555
C14 C15 1_555 1_555
C15 H9 1_555 1_555
C16 C15 1_555 1_555
H10 C16 1_555 1_555
C17 H11 1_555 1_555
C18 C14 1_555 1_555
H12 C18 1_555 1_555
C22 C21 1_555 1_555
H15 C22 1_555 1_555
C23 C22 1_555 1_555
H16 C23 1_555 1_555
C24 C21 1_555 1_555
C25 C29 1_555 1_555
C26 C34 1_555 1_555
C32 H21 1_555 1_555
C33 C32 1_555 1_555
H22 C33 1_555 1_555
C34 C33 1_555 1_555
C35 C34 1_555 1_555
H23 C35 1_555 1_555
C36 C35 1_555 1_555
H24 C36 1_555 1_555
I5 Zn3 1_555 1_555
I6 Zn3 1_555 1_555
N2 C6 1_555 1_555
N3 C7 1_555 1_555
N4 C6 1_555 1_555
N5 C11 1_555 1_555
N6 C16 1_555 1_555
N8 C24 1_555 1_555
N9 C25 1_555 1_555
N10 C24 1_555 1_555
N14 C32 1_555 1_555
Zn3 N5 1_555 1_555
N13 Zn3 1_555 1_555
C7 N2 1_555 1_555
C8 N3 1_555 1_555
C8 N4 1_555 1_555
C12 C13 1_555 1_555
C12 N5 1_555 1_555
C17 C18 1_555 1_555
C17 N6 1_555 1_555
C25 N8 1_555 1_555
C26 N9 1_555 1_555
C26 N10 1_555 1_555
C36 N14 1_555 1_555
C1 H1 1_555 1_555
C2 C1 1_555 1_555
C3 C2 1_555 1_555
C4 C3 1_555 1_555
H3 C4 1_555 1_555
C5 C4 1_555 1_555
H4 C5 1_555 1_555
C19 H13 1_555 1_555
C20 C19 1_555 1_555
H14 C20 1_555 1_555
H19 C30 1_555 1_555
C31 C30 1_555 1_555
H20 C31 1_555 1_555
I1 Zn1 1_555 1_555
I2 Zn1 1_555 1_555
N1 C1 1_555 1_555
N7 C19 1_555 1_555
Zn1 N1 1_555 1_555
C5 N1 1_555 1_555
C31 N13 1_555 1_555
N7 Zn1 1_555 1_555
C1_2 H1_2 1_555 1_555
C2_2 C1_2 1_555 1_555
H2_2 C2_2 1_555 1_555
C3_2 C2_2 1_555 1_555
C4_2 C3_2 1_555 1_555
H3_2 C4_2 1_555 1_555
C5_2 C4_2 1_555 1_555
H4_2 C5_2 1_555 1_555
C6_2 C3_2 1_555 1_555
C7_2 C9_2 1_555 1_555
C8_2 C14_2 1_555 1_555
C9_2 C10_2 1_555 1_555
C10_2 H5_2 1_555 1_555
C11_2 C10_2 1_555 1_555
H6_2 C11_2 1_555 1_555
C12_2 H7_2 1_555 1_555
C13_2 C9_2 1_555 1_555
H8_2 C13_2 1_555 1_555
C14_2 C15_2 1_555 1_555
C15_2 H9_2 1_555 1_555
C16_2 C15_2 1_555 1_555
H10_2 C16_2 1_555 1_555
C17_2 H11_2 1_555 1_555
C18_2 C14_2 1_555 1_555
H12_2 C18_2 1_555 1_555
C19_2 H13_2 1_555 1_555
C20_2 C19_2 1_555 1_555
H14_2 C20_2 1_555 1_555
C21_2 C20_2 1_555 1_555
C22_2 C21_2 1_555 1_555
H15_2 C22_2 1_555 1_555
C23_2 C22_2 1_555 1_555
H16_2 C23_2 1_555 1_555
C24_2 C21_2 1_555 1_555
C25_2 C29_2 1_555 1_555
C26_2 C34_2 1_555 1_555
C27 H17 1_555 1_555
C28 C27 1_555 1_555
H18 C28 1_555 1_555
C29_2 C28 1_555 1_555
C30_2 C29_2 1_555 1_555
H19_2 C30_2 1_555 1_555
C31_2 C30_2 1_555 1_555
H20_2 C31_2 1_555 1_555
C33_2 C32_2 1_555 1_555
H22_2 C33_2 1_555 1_555
C34_2 C33_2 1_555 1_555
C35_2 C34_2 1_555 1_555
H23_2 C35_2 1_555 1_555
C36_2 C35_2 1_555 1_555
H24_2 C36_2 1_555 1_555
I1_2 Zn1_2 1_555 1_555
I2_2 Zn1_2 1_555 1_555
I5_2 Zn3_2 1_555 1_555
I6_2 Zn3_2 1_555 1_555
N1_2 C1_2 1_555 1_555
N2_2 C6_2 1_555 1_555
N3_2 C7_2 1_555 1_555
N4_2 C6_2 1_555 1_555
N5_2 C11_2 1_555 1_555
N6_2 C16_2 1_555 1_555
N7_2 C19_2 1_555 1_555
N8_2 C24_2 1_555 1_555
N9_2 C25_2 1_555 1_555
N10_2 C24_2 1_555 1_555
N11 C27 1_555 1_555
Zn1_2 N1_2 1_555 1_555
Zn3_2 N5_2 1_555 1_555
N13_2 Zn3_2 1_555 1_555
Zn5 N11 1_555 1_555
C5_2 N1_2 1_555 1_555
C7_2 N2_2 1_555 1_555
C8_2 N3_2 1_555 1_555
C8_2 N4_2 1_555 1_555
C12_2 C13_2 1_555 1_555
C12_2 N5_2 1_555 1_555
C17_2 C18_2 1_555 1_555
C17_2 N6_2 1_555 1_555
C23_2 N7_2 1_555 1_555
C25_2 N8_2 1_555 1_555
C26_2 N9_2 1_555 1_555
C26_2 N10_2 1_555 1_555
C31_2 N11 1_555 1_555
N7_2 Zn1_2 1_555 1_555
Zn4 N12 1_555 1_555
C27_2 H17_2 1_555 1_555
C28_2 C27_2 1_555 1_555
H18_2 C28_2 1_555 1_555
H20_3 C31_3 1_555 1_555
N13_2 C27_2 1_555 1_555
C31_3 N13_2 1_555 1_555
C1_3 H1_3 1_555 1_555
C2_3 C1_3 1_555 1_555
H2_3 C2_3 1_555 1_555
C3_3 C2_3 1_555 1_555
C4_3 C3_3 1_555 1_555
H3_3 C4_3 1_555 1_555
C5_3 C4_3 1_555 1_555
H4_3 C5_3 1_555 1_555
C6_3 C3_3 1_555 1_555
C7_3 C9_3 1_555 1_555
C8_3 C14_3 1_555 1_555
C9_3 C10_3 1_555 1_555
C10_3 H5_3 1_555 1_555
C11_3 C10_3 1_555 1_555
H6_3 C11_3 1_555 1_555
C12_3 H7_3 1_555 1_555
C13_3 C9_3 1_555 1_555
H8_3 C13_3 1_555 1_555
C14_3 C15_3 1_555 1_555
C15_3 H9_3 1_555 1_555
C16_3 C15_3 1_555 1_555
H10_3 C16_3 1_555 1_555
C17_3 H11_3 1_555 1_555
C18_3 C14_3 1_555 1_555
H12_3 C18_3 1_555 1_555
C19_3 H13_3 1_555 1_555
C20_3 C19_3 1_555 1_555
H14_3 C20_3 1_555 1_555
C21_3 C20_3 1_555 1_555
C22_3 C21_3 1_555 1_555
H15_3 C22_3 1_555 1_555
C23_3 C22_3 1_555 1_555
H16_3 C23_3 1_555 1_555
C24_3 C21_3 1_555 1_555
C25_3 C29_3 1_555 1_555
C26_3 C34_3 1_555 1_555
C30_3 C29_3 1_555 1_555
H19_3 C30_3 1_555 1_555
C33_3 C32_3 1_555 1_555
H22_3 C33_3 1_555 1_555
C34_3 C33_3 1_555 1_555
C35_3 C34_3 1_555 1_555
H23_3 C35_3 1_555 1_555
C36_3 C35_3 1_555 1_555
H24_3 C36_3 1_555 1_555
I1_3 Zn1_3 1_555 1_555
I2_3 Zn1_3 1_555 1_555
I3_2 Zn2_2 1_555 1_555
I4_2 Zn2_2 1_555 1_555
I6_3 Zn5 1_555 1_555
N1_3 C1_3 1_555 1_555
N2_3 C6_3 1_555 1_555
N3_3 C7_3 1_555 1_555
N4_3 C6_3 1_555 1_555
N5_3 C11_3 1_555 1_555
N6_3 C16_3 1_555 1_555
N7_3 C19_3 1_555 1_555
N8_3 C24_3 1_555 1_555
N9_3 C25_3 1_555 1_555
N10_3 C24_3 1_555 1_555
Zn1_3 N1_3 1_555 1_555
Zn2_2 N6_3 1_555 1_555
Zn5 N5_3 1_555 1_555
N14_2 Zn2_2 1_555 1_555
C5_3 N1_3 1_555 1_555
C7_3 N2_3 1_555 1_555
C8_3 N3_3 1_555 1_555
C8_3 N4_3 1_555 1_555
C12_3 C13_3 1_555 1_555
C12_3 N5_3 1_555 1_555
C17_3 C18_3 1_555 1_555
C17_3 N6_3 1_555 1_555
C23_3 N7_3 1_555 1_555
C25_3 N8_3 1_555 1_555
C26_3 N9_3 1_555 1_555
C26_3 N10_3 1_555 1_555
N7_3 Zn1_3 1_555 1_555
H20_4 C31_4 1_555 1_555
Zn5_2 N11_2 1_555 1_555
C31_4 N11_2 1_555 1_555
C7_4 C9_4 1_555 1_555
C8_4 C14_4 1_555 1_555
C9_4 C10_4 1_555 1_555
C10_4 H5_4 1_555 1_555
C11_4 C10_4 1_555 1_555
H6_4 C11_4 1_555 1_555
C12_4 H7_4 1_555 1_555
C13_4 C9_4 1_555 1_555
H8_4 C13_4 1_555 1_555
C14_4 C15_4 1_555 1_555
C15_4 H9_4 1_555 1_555
C16_4 C15_4 1_555 1_555
H10_4 C16_4 1_555 1_555
C17_4 H11_4 1_555 1_555
C18_4 C14_4 1_555 1_555
H12_4 C18_4 1_555 1_555
C22_4 C21_4 1_555 1_555
H15_4 C22_4 1_555 1_555
C23_4 C22_4 1_555 1_555
H16_4 C23_4 1_555 1_555
C24_4 C21_4 1_555 1_555
C25_4 C29_4 1_555 1_555
C26_4 C34_4 1_555 1_555
C27_3 H17_3 1_555 1_555
C28_3 C27_3 1_555 1_555
H18_3 C28_3 1_555 1_555
C29_4 C28_3 1_555 1_555
C32_4 H21_3 1_555 1_555
C33_4 C32_4 1_555 1_555
H22_4 C33_4 1_555 1_555
C34_4 C33_4 1_555 1_555
C35_4 C34_4 1_555 1_555
H23_4 C35_4 1_555 1_555
C36_4 C35_4 1_555 1_555
H24_4 C36_4 1_555 1_555
I3_3 Zn4 1_555 1_555
I4_3 Zn4 1_555 1_555
I6_4 Zn5_2 1_555 1_555
N2_4 C6_4 1_555 1_555
N3_4 C7_4 1_555 1_555
N4_4 C6_4 1_555 1_555
N5_4 C11_4 1_555 1_555
N6_4 C16_4 1_555 1_555
N8_4 C24_4 1_555 1_555
N9_4 C25_4 1_555 1_555
N10_4 C24_4 1_555 1_555
N14_2 C32_4 1_555 1_555
Zn4 N6_4 1_555 1_555
Zn5_2 N5_4 1_555 1_555
C7_4 N2_4 1_555 1_555
C8_4 N3_4 1_555 1_555
C8_4 N4_4 1_555 1_555
C12_4 C13_4 1_555 1_555
C12_4 N5_4 1_555 1_555
C17_4 C18_4 1_555 1_555
C17_4 N6_4 1_555 1_555
C25_4 N8_4 1_555 1_555
C26_4 N9_4 1_555 1_555
C26_4 N10_4 1_555 1_555
C36_4 N14_2 1_555 1_555
Zn4_2 N12_2 1_555 1_555
I3_4 Zn4_2 1_555 1_555
I4_4 Zn4_2 1_555 1_555
C1_4 H1_4 1_555 1_555
C2_4 C1_4 1_555 1_555
C3_4 C2_4 1_555 1_555
C4_4 C3_4 1_555 1_555
H3_4 C4_4 1_555 1_555
C5_4 C4_4 1_555 1_555
H4_4 C5_4 1_555 1_555
C19_4 H13_4 1_555 1_555
C20_4 C19_4 1_555 1_555
H14_4 C20_4 1_555 1_555
H19_4 C30_4 1_555 1_555
I1_4 Zn1_4 1_555 1_555
I2_4 Zn1_4 1_555 1_555
N1_4 C1_4 1_555 1_555
N7_4 C19_4 1_555 1_555
Zn1_4 N1_4 1_555 1_555
C5_4 N1_4 1_555 1_555
N7_4 Zn1_4 1_555 1_555
C27_4 H17_4 1_555 1_555
C28_4 C27_4 1_555 1_555
H18_4 C28_4 1_555 1_555
Zn4_3 N12_3 1_555 1_555
I3_5 Zn4_3 1_555 1_555
I4_5 Zn4_3 1_555 1_555
C1_5 H1_5 1_555 1_555
C2_5 C1_5 1_555 1_555
H2_5 C2_5 1_555 1_555
C3_5 C2_5 1_555 1_555
C4_5 C3_5 1_555 1_555
H3_5 C4_5 1_555 1_555
C5_5 C4_5 1_555 1_555
H4_5 C5_5 1_555 1_555
C6_5 C3_5 1_555 1_555
C7_5 C9_5 1_555 1_555
C8_5 C14_5 1_555 1_555
C9_5 C10_5 1_555 1_555
C10_5 H5_5 1_555 1_555
C11_5 C10_5 1_555 1_555
H6_5 C11_5 1_555 1_555
C12_5 H7_5 1_555 1_555
C13_5 C9_5 1_555 1_555
H8_5 C13_5 1_555 1_555
C14_5 C15_5 1_555 1_555
C15_5 H9_5 1_555 1_555
C16_5 C15_5 1_555 1_555
H10_5 C16_5 1_555 1_555
C17_5 H11_5 1_555 1_555
C18_5 C14_5 1_555 1_555
H12_5 C18_5 1_555 1_555
C19_5 H13_5 1_555 1_555
C20_5 C19_5 1_555 1_555
H14_5 C20_5 1_555 1_555
C21_5 C20_5 1_555 1_555
C22_5 C21_5 1_555 1_555
H15_5 C22_5 1_555 1_555
C23_5 C22_5 1_555 1_555
H16_5 C23_5 1_555 1_555
C24_5 C21_5 1_555 1_555
C25_5 C29_5 1_555 1_555
C26_5 C34_5 1_555 1_555
C27_5 H17_5 1_555 1_555
C28_5 C27_5 1_555 1_555
H18_5 C28_5 1_555 1_555
C29_5 C28_5 1_555 1_555
C30_5 C29_5 1_555 1_555
H19_5 C30_5 1_555 1_555
C31_5 C30_5 1_555 1_555
H20_5 C31_5 1_555 1_555
C33_5 C32_5 1_555 1_555
H22_5 C33_5 1_555 1_555
C34_5 C33_5 1_555 1_555
C35_5 C34_5 1_555 1_555
H23_5 C35_5 1_555 1_555
C36_5 C35_5 1_555 1_555
H24_5 C36_5 1_555 1_555
I1_5 Zn1_5 1_555 1_555
I2_5 Zn1_5 1_555 1_555
I5_5 Zn3_3 1_555 1_555
I6_5 Zn3_3 1_555 1_555
N1_5 C1_5 1_555 1_555
N2_5 C6_5 1_555 1_555
N3_5 C7_5 1_555 1_555
N4_5 C6_5 1_555 1_555
N5_5 C11_5 1_555 1_555
N6_5 C16_5 1_555 1_555
N7_5 C19_5 1_555 1_555
N8_5 C24_5 1_555 1_555
N9_5 C25_5 1_555 1_555
N10_5 C24_5 1_555 1_555
N11_3 C27_5 1_555 1_555
Zn1_5 N1_5 1_555 1_555
Zn3_3 N5_5 1_555 1_555
N13_3 Zn3_3 1_555 1_555
Zn5_3 N11_3 1_555 1_555
C5_5 N1_5 1_555 1_555
C7_5 N2_5 1_555 1_555
C8_5 N3_5 1_555 1_555
C8_5 N4_5 1_555 1_555
C12_5 C13_5 1_555 1_555
C12_5 N5_5 1_555 1_555
C17_5 C18_5 1_555 1_555
C17_5 N6_5 1_555 1_555
C23_5 N7_5 1_555 1_555
C25_5 N8_5 1_555 1_555
C26_5 N9_5 1_555 1_555
C26_5 N10_5 1_555 1_555
C31_5 N11_3 1_555 1_555
N7_5 Zn1_5 1_555 1_555
C1_6 H1_6 1_555 1_555
C2_6 C1_6 1_555 1_555
H2_6 C2_6 1_555 1_555
C3_6 C2_6 1_555 1_555
C4_6 C3_6 1_555 1_555
H3_6 C4_6 1_555 1_555
C5_6 C4_6 1_555 1_555
H4_6 C5_6 1_555 1_555
C6_6 C3_6 1_555 1_555
C7_6 C9_6 1_555 1_555
C8_6 C14_6 1_555 1_555
C9_6 C10_6 1_555 1_555
C10_6 H5_6 1_555 1_555
C11_6 C10_6 1_555 1_555
H6_6 C11_6 1_555 1_555
C12_6 H7_6 1_555 1_555
C13_6 C9_6 1_555 1_555
H8_6 C13_6 1_555 1_555
C14_6 C15_6 1_555 1_555
C15_6 H9_6 1_555 1_555
C16_6 C15_6 1_555 1_555
H10_6 C16_6 1_555 1_555
C17_6 H11_6 1_555 1_555
C18_6 C14_6 1_555 1_555
H12_6 C18_6 1_555 1_555
C19_6 H13_6 1_555 1_555
C20_6 C19_6 1_555 1_555
H14_6 C20_6 1_555 1_555
C21_6 C20_6 1_555 1_555
C22_6 C21_6 1_555 1_555
H15_6 C22_6 1_555 1_555
C23_6 C22_6 1_555 1_555
H16_6 C23_6 1_555 1_555
C24_6 C21_6 1_555 1_555
C25_6 C29_6 1_555 1_555
C26_6 C34_6 1_555 1_555
C30_6 C29_6 1_555 1_555
H19_6 C30_6 1_555 1_555
C33_6 C32_6 1_555 1_555
H22_6 C33_6 1_555 1_555
C34_6 C33_6 1_555 1_555
C35_6 C34_6 1_555 1_555
H23_6 C35_6 1_555 1_555
C36_6 C35_6 1_555 1_555
H24_6 C36_6 1_555 1_555
I1_6 Zn1_6 1_555 1_555
I2_6 Zn1_6 1_555 1_555
I3_6 Zn2_3 1_555 1_555
I4_6 Zn2_3 1_555 1_555
I6_6 Zn5_3 1_555 1_555
N1_6 C1_6 1_555 1_555
N2_6 C6_6 1_555 1_555
N3_6 C7_6 1_555 1_555
N4_6 C6_6 1_555 1_555
N5_6 C11_6 1_555 1_555
N6_6 C16_6 1_555 1_555
N7_6 C19_6 1_555 1_555
N8_6 C24_6 1_555 1_555
N9_6 C25_6 1_555 1_555
N10_6 C24_6 1_555 1_555
Zn1_6 N1_6 1_555 1_555
Zn2_3 N6_6 1_555 1_555
Zn5_3 N5_6 1_555 1_555
N14_3 Zn2_3 1_555 1_555
C5_6 N1_6 1_555 1_555
C7_6 N2_6 1_555 1_555
C8_6 N3_6 1_555 1_555
C8_6 N4_6 1_555 1_555
C12_6 C13_6 1_555 1_555
C12_6 N5_6 1_555 1_555
C17_6 C18_6 1_555 1_555
C17_6 N6_6 1_555 1_555
C23_6 N7_6 1_555 1_555
C25_6 N8_6 1_555 1_555
C26_6 N9_6 1_555 1_555
C26_6 N10_6 1_555 1_555
N7_6 Zn1_6 1_555 1_555
C27_6 H17_6 1_555 1_555
C28_6 C27_6 1_555 1_555
H18_6 C28_6 1_555 1_555
H20_6 C31_6 1_555 1_555
N13_3 C27_6 1_555 1_555
C31_6 N13_3 1_555 1_555
Zn4_4 N12_4 1_555 1_555
H20_7 C31_7 1_555 1_555
Zn5_4 N11_4 1_555 1_555
C31_7 N11_4 1_555 1_555
C7_7 C9_7 1_555 1_555
C8_7 C14_7 1_555 1_555
C9_7 C10_7 1_555 1_555
C10_7 H5_7 1_555 1_555
C11_7 C10_7 1_555 1_555
H6_7 C11_7 1_555 1_555
C12_7 H7_7 1_555 1_555
C13_7 C9_7 1_555 1_555
H8_7 C13_7 1_555 1_555
C14_7 C15_7 1_555 1_555
C15_7 H9_7 1_555 1_555
C16_7 C15_7 1_555 1_555
H10_7 C16_7 1_555 1_555
C17_7 H11_7 1_555 1_555
C18_7 C14_7 1_555 1_555
H12_7 C18_7 1_555 1_555
C22_7 C21_7 1_555 1_555
H15_7 C22_7 1_555 1_555
C23_7 C22_7 1_555 1_555
H16_7 C23_7 1_555 1_555
C24_7 C21_7 1_555 1_555
C25_7 C29_7 1_555 1_555
C26_7 C34_7 1_555 1_555
C27_7 H17_7 1_555 1_555
C28_7 C27_7 1_555 1_555
H18_7 C28_7 1_555 1_555
C29_7 C28_7 1_555 1_555
C32_7 H21_7 1_555 1_555
C33_7 C32_7 1_555 1_555
H22_7 C33_7 1_555 1_555
C34_7 C33_7 1_555 1_555
C35_7 C34_7 1_555 1_555
H23_7 C35_7 1_555 1_555
C36_7 C35_7 1_555 1_555
H24_7 C36_7 1_555 1_555
I3_7 Zn4_4 1_555 1_555
I4_7 Zn4_4 1_555 1_555
I6_7 Zn5_4 1_555 1_555
N2_7 C6_7 1_555 1_555
N3_7 C7_7 1_555 1_555
N4_7 C6_7 1_555 1_555
N5_7 C11_7 1_555 1_555
N6_7 C16_7 1_555 1_555
N8_7 C24_7 1_555 1_555
N9_7 C25_7 1_555 1_555
N10_7 C24_7 1_555 1_555
N14_3 C32_7 1_555 1_555
Zn4_4 N6_7 1_555 1_555
Zn5_4 N5_7 1_555 1_555
C7_7 N2_7 1_555 1_555
C8_7 N3_7 1_555 1_555
C8_7 N4_7 1_555 1_555
C12_7 C13_7 1_555 1_555
C12_7 N5_7 1_555 1_555
C17_7 C18_7 1_555 1_555
C17_7 N6_7 1_555 1_555
C25_7 N8_7 1_555 1_555
C26_7 N9_7 1_555 1_555
C26_7 N10_7 1_555 1_555
C36_7 N14_3 1_555 1_555
I3_8 Zn2_4 1_555 1_555
I4_8 Zn2_4 1_555 1_555
N14_4 Zn2_4 1_555 1_555
C7_8 C9_8 1_555 1_555
C8_8 C14_8 1_555 1_555
C9_8 C10_8 1_555 1_555
C10_8 H5_8 1_555 1_555
C11_8 C10_8 1_555 1_555
H6_8 C11_8 1_555 1_555
C12_8 H7_8 1_555 1_555
C13_8 C9_8 1_555 1_555
H8_8 C13_8 1_555 1_555
C14_8 C15_8 1_555 1_555
C15_8 H9_8 1_555 1_555
C16_8 C15_8 1_555 1_555
H10_8 C16_8 1_555 1_555
C17_8 H11_8 1_555 1_555
C18_8 C14_8 1_555 1_555
H12_8 C18_8 1_555 1_555
C22_8 C21_8 1_555 1_555
H15_8 C22_8 1_555 1_555
C23_8 C22_8 1_555 1_555
H16_8 C23_8 1_555 1_555
C24_8 C21_8 1_555 1_555
C25_8 C29_8 1_555 1_555
C26_8 C34_8 1_555 1_555
C32_8 H21_8 1_555 1_555
C33_8 C32_8 1_555 1_555
H22_8 C33_8 1_555 1_555
C34_8 C33_8 1_555 1_555
C35_8 C34_8 1_555 1_555
H23_8 C35_8 1_555 1_555
C36_8 C35_8 1_555 1_555
H24_8 C36_8 1_555 1_555
I5_6 Zn3_4 1_555 1_555
I6_8 Zn3_4 1_555 1_555
N2_8 C6_8 1_555 1_555
N3_8 C7_8 1_555 1_555
N4_8 C6_8 1_555 1_555
N5_8 C11_8 1_555 1_555
N6_8 C16_8 1_555 1_555
N8_8 C24_8 1_555 1_555
N9_8 C25_8 1_555 1_555
N10_8 C24_8 1_555 1_555
N14_4 C32_8 1_555 1_555
Zn3_4 N5_8 1_555 1_555
N13_4 Zn3_4 1_555 1_555
C7_8 N2_8 1_555 1_555
C8_8 N3_8 1_555 1_555
C8_8 N4_8 1_555 1_555
C12_8 C13_8 1_555 1_555
C12_8 N5_8 1_555 1_555
C17_8 C18_8 1_555 1_555
C17_8 N6_8 1_555 1_555
C25_8 N8_8 1_555 1_555
C26_8 N9_8 1_555 1_555
C26_8 N10_8 1_555 1_555
C36_8 N14_4 1_555 1_555
C1_7 H1_7 1_555 1_555
C2_7 C1_7 1_555 1_555
C3_7 C2_7 1_555 1_555
C4_7 C3_7 1_555 1_555
H3_7 C4_7 1_555 1_555
C5_7 C4_7 1_555 1_555
H4_7 C5_7 1_555 1_555
C19_7 H13_7 1_555 1_555
C20_7 C19_7 1_555 1_555
H14_7 C20_7 1_555 1_555
H19_7 C30_7 1_555 1_555
C31_8 C30_7 1_555 1_555
H20_8 C31_8 1_555 1_555
I1_7 Zn1_7 1_555 1_555
I2_7 Zn1_7 1_555 1_555
N1_7 C1_7 1_555 1_555
N7_7 C19_7 1_555 1_555
Zn1_7 N1_7 1_555 1_555
C5_7 N1_7 1_555 1_555
C31_8 N13_4 1_555 1_555
N7_7 Zn1_7 1_555 1_555
C27_8 H17_8 1_555 1_555
C28_8 C27_8 1_555 1_555
H18_8 C28_8 1_555 1_555
C1_8 H1_8 1_555 1_555
C2_8 C1_8 1_555 1_555
C3_8 C2_8 1_555 1_555
C4_8 C3_8 1_555 1_555
H3_8 C4_8 1_555 1_555
C5_8 C4_8 1_555 1_555
H4_8 C5_8 1_555 1_555
C19_8 H13_8 1_555 1_555
C20_8 C19_8 1_555 1_555
H14_8 C20_8 1_555 1_555
H19_8 C30_8 1_555 1_555
I1_8 Zn1_8 1_555 1_555
I2_8 Zn1_8 1_555 1_555
N1_8 C1_8 1_555 1_555
N7_8 C19_8 1_555 1_555
Zn1_8 N1_8 1_555 1_555
C5_8 N1_8 1_555 1_555
N7_8 Zn1_8 1_555 1_555

#END
