
###############################################################################
#
# This file contains modified crystal structure data generated from the
# MOF subset of the Cambridge Structural Database (CSD) v543 
# hosted by the Cambridge Crystallographic Data Centre (CCDC).
#
# This work is licensed under the Creative Commons
# Attribution-NonCommercial-ShareAlike 4.0 International License.
# To view a copy of this license, visit
# http://creativecommons.org/licenses/by-nc-sa/4.0/
# or send a letter to
# Creative Commons, PO Box 1866, Mountain View, CA 94042, USA.
#
# CIF created using the CSD Python API on 29 September 2022
# The structure has been converted into the P1 space group
# The structure has a 3D framework
# The original CSD entry XAPGED is in the orthorhombic crystal system
# The framework has been calculated to contain at least 10.0% void space
# The void calculation uses a probe of radius 1.32A, grid spacing 0.4
# The framework is charged, counterions have been retained in the structure
# H atom positions have been added when not included in the experimental data
#
###############################################################################

data_XAPGED
_chemical_formula_moiety         '(C456 H344 Mo96 O366 P24 Zn32 8-)n'
_symmetry_cell_setting           triclinic
_symmetry_space_group_name_H-M   'P 1'
_symmetry_Int_Tables_number      1
_space_group_name_Hall           'P 1'
loop_
_symmetry_equiv_pos_site_id
_symmetry_equiv_pos_as_xyz
1 x,y,z
_cell_length_a                   27.0083(6)
_cell_length_b                   27.0121(5)
_cell_length_c                   27.8161(6)
_cell_angle_alpha                90
_cell_angle_beta                 90
_cell_angle_gamma                90
_cell_volume                     20293.3
loop_
_atom_site_label
_atom_site_type_symbol
_atom_site_fract_x
_atom_site_fract_y
_atom_site_fract_z
O21 O 0.01109(10) 0.72321(9) 0.03215(9)
O49 O 0.06337(8) 0.53595(8) 0.02932(8)
Zn5 Zn 0.00528(2) 0.44052(2) 0.97299(2)
Mo1 Mo 0.89929(2) 0.46297(2) 0.03322(2)
Mo2 Mo 0.90681(2) 0.51417(2) 0.11279(2)
Mo3 Mo 0.94048(2) 0.63620(2) 0.11562(2)
Mo4 Mo 0.96458(2) 0.68576(2) 0.01460(2)
Mo11 Mo 0.74618(2) 0.62938(2) 0.07855(2)
Mo12 Mo 0.81831(2) 0.61074(2) 0.13788(2)
Zn1 Zn 0.99472(2) 0.55948(2) 0.02701(2)
Zn2 Zn 0.85263(2) 0.71709(2) 0.07045(2)
Zn4 Zn 0.77900(2) 0.50155(2) 0.06999(2)
P1 P 0.86016(3) 0.59267(3) 0.01300(3)
O1 O 0.74160(9) 0.44790(9) 0.09892(8)
O2 O 0.77196(10) 0.47477(9) 0.16884(9)
O3 O 0.66383(10) 0.28068(9) 0.09811(9)
O4 O 0.60648(18) 0.26861(17) 0.15380(14)
O5 O 0.69330(9) 0.40755(9) 0.31863(8)
O6 O 0.63278(9) 0.35121(9) 0.31180(8)
O7 O 0.91695(9) 0.40728(8) 0.05325(8)
O8 O 0.94834(8) 0.51124(8) 0.05515(8)
O9 O 0.84957(8) 0.48574(8) 0.07966(8)
O13 O 0.92793(10) 0.47120(9) 0.15028(9)
O14 O 0.94930(9) 0.57137(8) 0.13083(8)
O15 O 0.85275(9) 0.54499(9) 0.15683(8)
O16 O 0.87357(8) 0.59022(8) 0.06739(8)
O17 O 0.98335(10) 0.66530(10) 0.14908(9)
O18 O 0.88292(9) 0.64416(9) 0.14953(8)
O19 O 0.91844(9) 0.68920(8) 0.07038(8)
O20 O 0.97719(8) 0.62426(8) 0.05374(8)
O32 O 0.76368(8) 0.50794(8) 0.00195(8)
O36 O 0.70976(9) 0.58581(9) 0.03266(9)
O37 O 0.80502(8) 0.61001(8) 0.00858(8)
O40 O 0.82782(9) 0.71480(8) 0.00261(8)
O41 O 0.73494(9) 0.68432(8) 0.02837(8)
O43 O 0.70130(10) 0.64411(10) 0.11735(9)
O44 O 0.77433(8) 0.56700(8) 0.10133(8)
O45 O 0.80415(9) 0.66853(8) 0.09736(8)
O46 O 0.78953(10) 0.62062(10) 0.19011(9)
C1 C 0.71448(12) 0.40776(11) 0.16952(11)
C2 C 0.69261(13) 0.36982(11) 0.14281(11)
H1 H 0.6983 0.3679 0.1092
C3 C 0.66260(13) 0.33487(11) 0.16500(12)
C4 C 0.65244(13) 0.33930(12) 0.21394(11)
H2 H 0.6296 0.3173 0.2287
C5 C 0.67560(12) 0.37591(11) 0.24146(11)
C6 C 0.70738(12) 0.40924(11) 0.21923(11)
H3 H 0.7244 0.4332 0.2380
C7 C 0.74561(12) 0.44665(11) 0.14537(11)
C8 C 0.64110(17) 0.29164(14) 0.13797(13)
C9 C 0.66571(12) 0.37797(11) 0.29459(11)
Zn6 Zn 0.64737(2) 0.21709(2) 0.07045(2)
Zn7 Zn 0.67837(2) 0.40985(2) 0.38677(2)
O47 O 0.83617(10) 0.78068(9) 0.09811(9)
Mo5 Mo 0.95315(2) 0.61027(2) 0.91561(2)
Mo6 Mo 0.92551(2) 0.51719(2) 0.92096(2)
Mo7 Mo 0.80707(2) 0.48015(2) 0.94905(2)
Mo8 Mo 0.72891(2) 0.56581(2) 0.97266(2)
Mo9 Mo 0.77465(2) 0.68350(2) 0.96488(2)
Mo10 Mo 0.86491(2) 0.70681(2) 0.94220(2)
Zn3 Zn 0.82163(2) 0.59015(2) 0.88677(2)
O10 O 0.93663(8) 0.46405(8) 0.97068(8)
O11 O 0.83867(8) 0.44340(8) 0.99500(8)
O12 O 0.86764(8) 0.54057(8) 0.99059(8)
O22 O 0.98914(8) 0.65324(8) 0.96248(8)
O23 O 0.92316(9) 0.72720(8) 0.98147(9)
O24 O 0.89310(8) 0.63031(8) 0.98545(8)
O25 O 0.99344(9) 0.60877(9) 0.87013(9)
O26 O 0.97074(8) 0.55712(8) 0.96000(8)
O27 O 0.89297(8) 0.57609(8) 0.89386(8)
O28 O 0.91510(8) 0.67394(8) 0.89553(8)
O29 O 0.95836(9) 0.49282(9) 0.87606(9)
O30 O 0.85892(8) 0.48536(8) 0.90780(8)
O31 O 0.76881(9) 0.43895(9) 0.92242(9)
O33 O 0.78092(8) 0.54526(8) 0.92468(8)
O34 O 0.67678(9) 0.53995(10) 0.95055(9)
O35 O 0.73054(9) 0.62721(9) 0.94520(8)
O38 O 0.74477(10) 0.73004(10) 0.93800(9)
O39 O 0.81897(8) 0.65754(8) 0.91544(8)
O42 O 0.85459(10) 0.75839(9) 0.91069(9)
O48 O 0.80670(9) 0.59245(9) 0.81863(8)
Mo1_2 Mo 0.60071(2) 0.53703(2) 0.53322(2)
Mo2_2 Mo 0.59319(2) 0.48583(2) 0.61279(2)
Mo3_2 Mo 0.55952(2) 0.36380(2) 0.61562(2)
Mo4_2 Mo 0.53542(2) 0.31424(2) 0.51460(2)
Mo5_2 Mo 0.54685(2) 0.38973(2) 0.41561(2)
Mo6_2 Mo 0.57449(2) 0.48281(2) 0.42096(2)
Mo7_2 Mo 0.69293(2) 0.51985(2) 0.44905(2)
Mo8_2 Mo 0.77109(2) 0.43419(2) 0.47266(2)
Mo9_2 Mo 0.72535(2) 0.31650(2) 0.46488(2)
Mo10_2 Mo 0.63509(2) 0.29319(2) 0.44220(2)
Mo11_2 Mo 0.75382(2) 0.37062(2) 0.57855(2)
Mo12_2 Mo 0.68169(2) 0.38926(2) 0.63788(2)
Zn1_2 Zn 0.50528(2) 0.44052(2) 0.52701(2)
Zn2_2 Zn 0.64737(2) 0.28291(2) 0.57045(2)
Zn4_2 Zn 0.72100(2) 0.49845(2) 0.56999(2)
P1_2 P 0.63984(3) 0.40733(3) 0.51300(3)
O1_2 O 0.75840(9) 0.55210(9) 0.59892(8)
O2_2 O 0.72804(10) 0.52523(9) 0.66884(9)
O3_2 O 0.83617(10) 0.71932(9) 0.59811(9)
O4_2 O 0.89352(18) 0.73139(17) 0.65380(14)
O6_2 O 0.86722(9) 0.64879(9) 0.81180(8)
O7_2 O 0.58305(9) 0.59272(8) 0.55325(8)
O8_2 O 0.55166(8) 0.48876(8) 0.55515(8)
O9_2 O 0.65043(8) 0.51426(8) 0.57966(8)
O10_2 O 0.56337(8) 0.53595(8) 0.47068(8)
O11_2 O 0.66133(8) 0.55660(8) 0.49500(8)
O12_2 O 0.63236(8) 0.45943(8) 0.49059(8)
O13_2 O 0.57207(10) 0.52880(9) 0.65028(9)
O14_2 O 0.55070(9) 0.42863(8) 0.63083(8)
O15_2 O 0.64725(9) 0.45501(9) 0.65683(8)
O16_2 O 0.62643(8) 0.40978(8) 0.56739(8)
O17_2 O 0.51665(10) 0.33470(10) 0.64908(9)
O18_2 O 0.61708(9) 0.35584(9) 0.64953(8)
O19_2 O 0.58156(9) 0.31080(8) 0.57038(8)
O20_2 O 0.52281(8) 0.37574(8) 0.55374(8)
O21_2 O 0.48891(10) 0.27679(9) 0.53215(9)
O22_2 O 0.51086(8) 0.34676(8) 0.46248(8)
O23_2 O 0.57684(9) 0.27280(8) 0.48147(9)
O24_2 O 0.60690(8) 0.36969(8) 0.48545(8)
O25_2 O 0.50656(9) 0.39123(9) 0.37013(9)
O26_2 O 0.52926(8) 0.44288(8) 0.46000(8)
O27_2 O 0.60703(8) 0.42391(8) 0.39386(8)
O28_2 O 0.58490(8) 0.32606(8) 0.39553(8)
O29_2 O 0.54164(9) 0.50718(9) 0.37606(9)
O30_2 O 0.64108(8) 0.51464(8) 0.40780(8)
O31_2 O 0.73119(9) 0.56105(9) 0.42242(9)
O32_2 O 0.73632(8) 0.49206(8) 0.50195(8)
O33_2 O 0.71908(8) 0.45474(8) 0.42468(8)
O34_2 O 0.82322(9) 0.46005(10) 0.45055(9)
O35_2 O 0.76946(9) 0.37279(9) 0.44520(8)
O36_2 O 0.79024(9) 0.41419(9) 0.53266(9)
O37_2 O 0.69498(8) 0.38999(8) 0.50858(8)
O38_2 O 0.75523(10) 0.26996(10) 0.43800(9)
O39_2 O 0.68103(8) 0.34246(8) 0.41544(8)
O40_2 O 0.67218(9) 0.28520(8) 0.50261(8)
O41_2 O 0.76506(9) 0.31568(8) 0.52837(8)
O42_2 O 0.64541(10) 0.24161(9) 0.41069(9)
O43_2 O 0.79870(10) 0.35589(10) 0.61735(9)
O44_2 O 0.72567(8) 0.43300(8) 0.60133(8)
O45_2 O 0.69585(9) 0.33147(8) 0.59736(8)
O46_2 O 0.71047(10) 0.37938(10) 0.69011(9)
C1_2 C 0.78552(12) 0.59224(11) 0.66952(11)
C2_2 C 0.80739(13) 0.63018(11) 0.64281(11)
H1_2 H 0.8017 0.6321 0.6092
C3_2 C 0.83740(13) 0.66513(11) 0.66500(12)
C4_2 C 0.84756(13) 0.66070(12) 0.71394(11)
H2_2 H 0.8704 0.6827 0.7287
C5_2 C 0.82440(12) 0.62409(11) 0.74146(11)
C6_2 C 0.79262(12) 0.59076(11) 0.71923(11)
H3_2 H 0.7756 0.5668 0.7380
C7_2 C 0.75439(12) 0.55335(11) 0.64537(11)
C8_2 C 0.85890(17) 0.70836(14) 0.63797(13)
C9_2 C 0.83429(12) 0.62203(11) 0.79459(11)
Zn5_2 Zn 0.49472(2) 0.55948(2) 0.47299(2)
Zn6_2 Zn 0.85263(2) 0.78291(2) 0.57045(2)
O47_2 O 0.66383(10) 0.21932(9) 0.59811(9)
O49_2 O 0.43663(8) 0.46405(8) 0.52932(8)
Mo2_3 Mo 0.09319(2) 0.01417(2) 0.38721(2)
Mo3_3 Mo 0.05952(2) 0.13620(2) 0.38438(2)
Mo4_3 Mo 0.03542(2) 0.18576(2) 0.48540(2)
Mo5_3 Mo 0.04685(2) 0.11027(2) 0.58439(2)
Mo6_3 Mo 0.07449(2) 0.01719(2) 0.57904(2)
Mo8_3 Mo 0.27109(2) 0.06581(2) 0.52734(2)
Mo9_3 Mo 0.22535(2) 0.18350(2) 0.53512(2)
Mo10_3 Mo 0.13509(2) 0.20681(2) 0.55780(2)
Mo11_3 Mo 0.25382(2) 0.12938(2) 0.42145(2)
Mo12_3 Mo 0.18169(2) 0.11074(2) 0.36212(2)
Zn1_3 Zn 0.00528(2) 0.05948(2) 0.47299(2)
Zn2_3 Zn 0.14737(2) 0.21709(2) 0.42955(2)
Zn3_2 Zn 0.17837(2) 0.09015(2) 0.61323(2)
Zn4_3 Zn 0.22100(2) 0.00155(2) 0.43001(2)
P1_3 P 0.13984(3) 0.09267(3) 0.48700(3)
O8_3 O 0.05166(8) 0.01124(8) 0.44485(8)
O12_3 O 0.13236(8) 0.04057(8) 0.50941(8)
O14_3 O 0.05070(9) 0.07137(8) 0.36917(8)
O15_3 O 0.14725(9) 0.04499(9) 0.34317(8)
O16_3 O 0.12643(8) 0.09022(8) 0.43261(8)
O17_3 O 0.01665(10) 0.16530(10) 0.35092(9)
O18_3 O 0.11708(9) 0.14416(9) 0.35047(8)
O19_3 O 0.08156(9) 0.18920(8) 0.42962(8)
O20_3 O 0.02281(8) 0.12426(8) 0.44626(8)
O22_3 O 0.01086(8) 0.15324(8) 0.53752(8)
O23_3 O 0.07684(9) 0.22720(8) 0.51853(9)
O24_3 O 0.10690(8) 0.13031(8) 0.51455(8)
O25_3 O 0.00656(9) 0.10877(9) 0.62987(9)
O26_3 O 0.02926(8) 0.05712(8) 0.54000(8)
O27_3 O 0.10703(8) 0.07609(8) 0.60614(8)
O28_3 O 0.08490(8) 0.17394(8) 0.60447(8)
O32_3 O 0.23632(8) 0.00794(8) 0.49805(8)
O33_3 O 0.21908(8) 0.04526(8) 0.57532(8)
O34_3 O 0.32322(9) 0.03995(10) 0.54945(9)
O35_3 O 0.26946(9) 0.12721(9) 0.55480(8)
O36_3 O 0.29024(9) 0.08581(9) 0.46734(9)
O37_3 O 0.19498(8) 0.11001(8) 0.49142(8)
O38_3 O 0.25523(10) 0.23004(10) 0.56200(9)
O39_3 O 0.18103(8) 0.15754(8) 0.58456(8)
O40_3 O 0.17218(9) 0.21480(8) 0.49739(8)
O41_3 O 0.26506(9) 0.18432(8) 0.47163(8)
O42_3 O 0.14541(10) 0.25839(9) 0.58931(9)
O43_3 O 0.29870(10) 0.14411(10) 0.38265(9)
O44_3 O 0.22567(8) 0.06700(8) 0.39867(8)
O45_3 O 0.19585(9) 0.16853(8) 0.40264(8)
O46_3 O 0.21047(10) 0.12062(10) 0.30989(9)
O47_3 O 0.16383(10) 0.28068(9) 0.40189(9)
O48_2 O 0.19330(9) 0.09245(9) 0.68137(8)
Mo1_3 Mo 0.10071(2) 0.96297(2) 0.46678(2)
Mo7_3 Mo 0.19293(2) 0.98015(2) 0.55095(2)
O1_3 O 0.25840(9) 0.94790(9) 0.40108(8)
O2_3 O 0.22804(10) 0.97477(9) 0.33116(9)
O3_3 O 0.33617(10) 0.78068(9) 0.40189(9)
O4_3 O 0.39352(18) 0.76861(17) 0.34620(14)
O5_2 O 0.30670(9) 0.90755(9) 0.18137(8)
O6_3 O 0.36722(9) 0.85121(9) 0.18820(8)
O7_3 O 0.08305(9) 0.90728(8) 0.44675(8)
O9_3 O 0.15043(8) 0.98574(8) 0.42034(8)
O10_3 O 0.06337(8) 0.96405(8) 0.52932(8)
O11_3 O 0.16133(8) 0.94340(8) 0.50500(8)
O13_3 O 0.07207(10) 0.97120(9) 0.34972(9)
O29_3 O 0.04164(9) 0.99282(9) 0.62394(9)
O30_3 O 0.14108(8) 0.98536(8) 0.59220(8)
O31_3 O 0.23119(9) 0.93895(9) 0.57758(9)
C1_3 C 0.28552(12) 0.90776(11) 0.33048(11)
C2_3 C 0.30739(13) 0.86982(11) 0.35719(11)
H1_3 H 0.3017 0.8679 0.3908
C3_3 C 0.33740(13) 0.83487(11) 0.33500(12)
C4_3 C 0.34756(13) 0.83930(12) 0.28606(11)
H2_3 H 0.3704 0.8173 0.2713
C5_3 C 0.32440(12) 0.87591(11) 0.25854(11)
C6_3 C 0.29262(12) 0.90924(11) 0.28077(11)
H3_3 H 0.2756 0.9332 0.2620
C7_3 C 0.25439(12) 0.94665(11) 0.35463(11)
C8_3 C 0.35890(17) 0.79164(14) 0.36203(13)
C9_3 C 0.33429(12) 0.87797(11) 0.20541(11)
Zn6_3 Zn 0.35263(2) 0.71709(2) 0.42955(2)
Zn7_2 Zn 0.32163(2) 0.90985(2) 0.11323(2)
O21_3 O 0.98891(10) 0.22321(9) 0.46785(9)
O49_3 O 0.93663(8) 0.03595(8) 0.47068(8)
Zn5_3 Zn 0.99472(2) 0.94052(2) 0.52701(2)
Mo7_4 Mo 0.30707(2) 0.01985(2) 0.05095(2)
O10_4 O 0.43663(8) 0.03595(8) 0.02932(8)
O11_4 O 0.33867(8) 0.05660(8) 0.00500(8)
O29_4 O 0.45836(9) 0.00718(9) 0.12394(9)
O30_4 O 0.35892(8) 0.01464(8) 0.09220(8)
O31_4 O 0.26881(9) 0.06105(9) 0.07758(9)
Zn5_4 Zn 0.50528(2) 0.05948(2) 0.02701(2)
Mo1_4 Mo 0.39929(2) 0.03703(2) 0.96678(2)
O1_4 O 0.24160(9) 0.05210(9) 0.90108(8)
O2_4 O 0.27196(10) 0.02523(9) 0.83116(9)
O3_4 O 0.16383(10) 0.21932(9) 0.90189(9)
O4_4 O 0.10648(18) 0.23139(17) 0.84620(14)
O6_4 O 0.13278(9) 0.14879(9) 0.68820(8)
O7_4 O 0.41695(9) 0.09272(8) 0.94675(8)
O9_4 O 0.34957(8) 0.01426(8) 0.92034(8)
O13_4 O 0.42793(10) 0.02880(9) 0.84972(9)
C1_4 C 0.21448(12) 0.09224(11) 0.83048(11)
C2_4 C 0.19261(13) 0.13018(11) 0.85719(11)
H1_4 H 0.1983 0.1321 0.8908
C3_4 C 0.16260(13) 0.16513(11) 0.83500(12)
C4_4 C 0.15244(13) 0.16070(12) 0.78606(11)
H2_4 H 0.1296 0.1827 0.7713
C5_4 C 0.17560(12) 0.12409(11) 0.75854(11)
C6_4 C 0.20738(12) 0.09076(11) 0.78077(11)
H3_4 H 0.2244 0.0668 0.7620
C7_4 C 0.24561(12) 0.05335(11) 0.85463(11)
C8_4 C 0.14110(17) 0.20836(14) 0.86203(13)
C9_4 C 0.16571(12) 0.12203(11) 0.70541(11)
Zn6_4 Zn 0.14737(2) 0.28291(2) 0.92955(2)
Mo5_4 Mo 0.45315(2) 0.88973(2) 0.08439(2)
Mo6_4 Mo 0.42551(2) 0.98281(2) 0.07904(2)
Mo8_4 Mo 0.22891(2) 0.93419(2) 0.02734(2)
Mo9_4 Mo 0.27465(2) 0.81650(2) 0.03512(2)
Mo10_4 Mo 0.36491(2) 0.79319(2) 0.05780(2)
O12_4 O 0.36764(8) 0.95943(8) 0.00941(8)
O22_4 O 0.48914(8) 0.84676(8) 0.03752(8)
O23_4 O 0.42316(9) 0.77280(8) 0.01853(9)
O24_4 O 0.39310(8) 0.86969(8) 0.01455(8)
O25_4 O 0.49344(9) 0.89123(9) 0.12987(9)
O26_4 O 0.47074(8) 0.94288(8) 0.04000(8)
O27_4 O 0.39297(8) 0.92391(8) 0.10614(8)
O28_4 O 0.41510(8) 0.82606(8) 0.10447(8)
O33_4 O 0.28092(8) 0.95474(8) 0.07532(8)
O34_4 O 0.17678(9) 0.96005(10) 0.04945(9)
O35_4 O 0.23054(9) 0.87279(9) 0.05480(8)
O38_4 O 0.24477(10) 0.76996(10) 0.06200(9)
O39_4 O 0.31897(8) 0.84246(8) 0.08456(8)
O42_4 O 0.35459(10) 0.74161(9) 0.08931(9)
Mo2_4 Mo 0.40681(2) 0.98583(2) 0.88721(2)
Mo3_4 Mo 0.44048(2) 0.86380(2) 0.88438(2)
Mo4_4 Mo 0.46458(2) 0.81424(2) 0.98540(2)
Mo11_4 Mo 0.24618(2) 0.87062(2) 0.92145(2)
Mo12_4 Mo 0.31831(2) 0.88926(2) 0.86212(2)
Zn1_4 Zn 0.49472(2) 0.94052(2) 0.97299(2)
Zn2_4 Zn 0.35263(2) 0.78291(2) 0.92955(2)
Zn4_4 Zn 0.27900(2) 0.99845(2) 0.93001(2)
P1_4 P 0.36016(3) 0.90733(3) 0.98700(3)
O8_4 O 0.44834(8) 0.98876(8) 0.94485(8)
O14_4 O 0.44930(9) 0.92863(8) 0.86917(8)
O15_4 O 0.35275(9) 0.95501(9) 0.84317(8)
O16_4 O 0.37357(8) 0.90978(8) 0.93261(8)
O17_4 O 0.48335(10) 0.83470(10) 0.85092(9)
O18_4 O 0.38292(9) 0.85584(9) 0.85047(8)
O19_4 O 0.41844(9) 0.81080(8) 0.92962(8)
O20_4 O 0.47719(8) 0.87574(8) 0.94626(8)
O21_4 O 0.51109(10) 0.77679(9) 0.96785(9)
O32_4 O 0.26368(8) 0.99206(8) 0.99805(8)
O36_4 O 0.20976(9) 0.91419(9) 0.96734(9)
O37_4 O 0.30502(8) 0.88999(8) 0.99142(8)
O40_4 O 0.32782(9) 0.78520(8) 0.99739(8)
O41_4 O 0.23494(9) 0.81568(8) 0.97163(8)
O43_4 O 0.20130(10) 0.85589(10) 0.88265(9)
O44_4 O 0.27433(8) 0.93300(8) 0.89867(8)
O45_4 O 0.30415(9) 0.83147(8) 0.90264(8)
O46_4 O 0.28953(10) 0.87938(10) 0.80989(9)
O47_4 O 0.33617(10) 0.71932(9) 0.90189(9)
O49_4 O 0.56337(8) 0.96405(8) 0.97068(8)
Mo5_5 Mo 0.04685(2) 0.38973(2) 0.08439(2)
Mo6_5 Mo 0.07449(2) 0.48281(2) 0.07904(2)
Mo7_5 Mo 0.19293(2) 0.51985(2) 0.05095(2)
Mo8_5 Mo 0.27109(2) 0.43419(2) 0.02734(2)
Mo9_5 Mo 0.22535(2) 0.31650(2) 0.03512(2)
Mo10_5 Mo 0.13509(2) 0.29319(2) 0.05780(2)
Zn3_3 Zn 0.17837(2) 0.40985(2) 0.11323(2)
O11_5 O 0.16133(8) 0.55660(8) 0.00500(8)
O12_5 O 0.13236(8) 0.45943(8) 0.00941(8)
O22_5 O 0.01086(8) 0.34676(8) 0.03752(8)
O23_5 O 0.07684(9) 0.27280(8) 0.01853(9)
O24_5 O 0.10690(8) 0.36969(8) 0.01455(8)
O25_5 O 0.00656(9) 0.39123(9) 0.12987(9)
O26_5 O 0.02926(8) 0.44288(8) 0.04000(8)
O27_5 O 0.10703(8) 0.42391(8) 0.10614(8)
O28_5 O 0.08490(8) 0.32606(8) 0.10447(8)
O29_5 O 0.04164(9) 0.50718(9) 0.12394(9)
O30_5 O 0.14108(8) 0.51464(8) 0.09220(8)
O31_5 O 0.23119(9) 0.56105(9) 0.07758(9)
O33_5 O 0.21908(8) 0.45474(8) 0.07532(8)
O34_5 O 0.32322(9) 0.46005(10) 0.04945(9)
O35_5 O 0.26946(9) 0.37279(9) 0.05480(8)
O38_5 O 0.25523(10) 0.26996(10) 0.06200(9)
O39_5 O 0.18103(8) 0.34246(8) 0.08456(8)
O42_5 O 0.14541(10) 0.24161(9) 0.08931(9)
O48_3 O 0.19330(9) 0.40755(9) 0.18137(8)
Mo1_5 Mo 0.10071(2) 0.53703(2) 0.96678(2)
Mo2_5 Mo 0.09319(2) 0.48583(2) 0.88721(2)
Mo3_5 Mo 0.05952(2) 0.36380(2) 0.88438(2)
Mo4_5 Mo 0.03542(2) 0.31424(2) 0.98540(2)
Mo11_5 Mo 0.25382(2) 0.37062(2) 0.92145(2)
Mo12_5 Mo 0.18169(2) 0.38926(2) 0.86212(2)
Zn4_5 Zn 0.22100(2) 0.49845(2) 0.93001(2)
P1_5 P 0.13984(3) 0.40733(3) 0.98700(3)
O1_5 O 0.25840(9) 0.55210(9) 0.90108(8)
O2_5 O 0.22804(10) 0.52523(9) 0.83116(9)
O4_5 O 0.39352(18) 0.73139(17) 0.84620(14)
O5_3 O 0.30670(9) 0.59245(9) 0.68137(8)
O6_5 O 0.36722(9) 0.64879(9) 0.68820(8)
O7_5 O 0.08305(9) 0.59272(8) 0.94675(8)
O8_5 O 0.05166(8) 0.48876(8) 0.94485(8)
O9_5 O 0.15043(8) 0.51426(8) 0.92034(8)
O13_5 O 0.07207(10) 0.52880(9) 0.84972(9)
O14_5 O 0.05070(9) 0.42863(8) 0.86917(8)
O15_5 O 0.14725(9) 0.45501(9) 0.84317(8)
O16_5 O 0.12643(8) 0.40978(8) 0.93261(8)
O17_5 O 0.01665(10) 0.33470(10) 0.85092(9)
O18_5 O 0.11708(9) 0.35584(9) 0.85047(8)
O19_5 O 0.08156(9) 0.31080(8) 0.92962(8)
O20_5 O 0.02281(8) 0.37574(8) 0.94626(8)
O32_5 O 0.23632(8) 0.49206(8) 0.99805(8)
O36_5 O 0.29024(9) 0.41419(9) 0.96734(9)
O37_5 O 0.19498(8) 0.38999(8) 0.99142(8)
O40_5 O 0.17218(9) 0.28520(8) 0.99739(8)
O41_5 O 0.26506(9) 0.31568(8) 0.97163(8)
O43_5 O 0.29870(10) 0.35589(10) 0.88265(9)
O44_5 O 0.22567(8) 0.43300(8) 0.89867(8)
O45_5 O 0.19585(9) 0.33147(8) 0.90264(8)
O46_5 O 0.21047(10) 0.37938(10) 0.80989(9)
C1_5 C 0.28552(12) 0.59224(11) 0.83048(11)
C2_5 C 0.30739(13) 0.63018(11) 0.85719(11)
H1_5 H 0.3017 0.6321 0.8908
C3_5 C 0.33740(13) 0.66513(11) 0.83500(12)
C4_5 C 0.34756(13) 0.66070(12) 0.78606(11)
H2_5 H 0.3704 0.6827 0.7713
C5_5 C 0.32440(12) 0.62409(11) 0.75854(11)
C6_5 C 0.29262(12) 0.59076(11) 0.78077(11)
H3_5 H 0.2756 0.5668 0.7620
C7_5 C 0.25439(12) 0.55335(11) 0.85463(11)
C8_5 C 0.35890(17) 0.70836(14) 0.86203(13)
C9_5 C 0.33429(12) 0.62203(11) 0.70541(11)
Zn7_3 Zn 0.32163(2) 0.59015(2) 0.61323(2)
O21_5 O 0.98891(10) 0.27679(9) 0.96785(9)
Mo1_6 Mo 0.39929(2) 0.46297(2) 0.46678(2)
Mo2_6 Mo 0.40681(2) 0.51417(2) 0.38721(2)
Mo3_6 Mo 0.44048(2) 0.63620(2) 0.38438(2)
Mo4_6 Mo 0.46458(2) 0.68576(2) 0.48540(2)
Mo5_6 Mo 0.45315(2) 0.61027(2) 0.58439(2)
Mo6_6 Mo 0.42551(2) 0.51719(2) 0.57904(2)
Mo7_6 Mo 0.30707(2) 0.48015(2) 0.55095(2)
Mo8_6 Mo 0.22891(2) 0.56581(2) 0.52734(2)
Mo9_6 Mo 0.27465(2) 0.68350(2) 0.53512(2)
Mo10_6 Mo 0.36491(2) 0.70681(2) 0.55780(2)
Mo11_6 Mo 0.24618(2) 0.62938(2) 0.42145(2)
Mo12_6 Mo 0.31831(2) 0.61074(2) 0.36212(2)
Zn4_6 Zn 0.27900(2) 0.50155(2) 0.43001(2)
P1_6 P 0.36016(3) 0.59267(3) 0.48700(3)
O1_6 O 0.24160(9) 0.44790(9) 0.40108(8)
O2_6 O 0.27196(10) 0.47477(9) 0.33116(9)
O4_6 O 0.10648(18) 0.26861(17) 0.34620(14)
O6_6 O 0.13278(9) 0.35121(9) 0.18820(8)
O7_6 O 0.41695(9) 0.40728(8) 0.44675(8)
O8_6 O 0.44834(8) 0.51124(8) 0.44485(8)
O9_6 O 0.34957(8) 0.48574(8) 0.42034(8)
O11_6 O 0.33867(8) 0.44340(8) 0.50500(8)
O12_6 O 0.36764(8) 0.54057(8) 0.50941(8)
O13_6 O 0.42793(10) 0.47120(9) 0.34972(9)
O14_6 O 0.44930(9) 0.57137(8) 0.36917(8)
O15_6 O 0.35275(9) 0.54499(9) 0.34317(8)
O16_6 O 0.37357(8) 0.59022(8) 0.43261(8)
O17_6 O 0.48335(10) 0.66530(10) 0.35092(9)
O18_6 O 0.38292(9) 0.64416(9) 0.35047(8)
O19_6 O 0.41844(9) 0.68920(8) 0.42962(8)
O20_6 O 0.47719(8) 0.62426(8) 0.44626(8)
O21_6 O 0.51109(10) 0.72321(9) 0.46785(9)
O22_6 O 0.48914(8) 0.65324(8) 0.53752(8)
O23_6 O 0.42316(9) 0.72720(8) 0.51853(9)
O24_6 O 0.39310(8) 0.63031(8) 0.51455(8)
O25_6 O 0.49344(9) 0.60877(9) 0.62987(9)
O26_6 O 0.47074(8) 0.55712(8) 0.54000(8)
O27_6 O 0.39297(8) 0.57609(8) 0.60614(8)
O28_6 O 0.41510(8) 0.67394(8) 0.60447(8)
O29_6 O 0.45836(9) 0.49282(9) 0.62394(9)
O30_6 O 0.35892(8) 0.48536(8) 0.59220(8)
O31_6 O 0.26881(9) 0.43895(9) 0.57758(9)
O32_6 O 0.26368(8) 0.50794(8) 0.49805(8)
O33_6 O 0.28092(8) 0.54526(8) 0.57532(8)
O34_6 O 0.17678(9) 0.53995(10) 0.54945(9)
O35_6 O 0.23054(9) 0.62721(9) 0.55480(8)
O36_6 O 0.20976(9) 0.58581(9) 0.46734(9)
O37_6 O 0.30502(8) 0.61001(8) 0.49142(8)
O38_6 O 0.24477(10) 0.73004(10) 0.56200(9)
O39_6 O 0.31897(8) 0.65754(8) 0.58456(8)
O40_6 O 0.32782(9) 0.71480(8) 0.49739(8)
O41_6 O 0.23494(9) 0.68432(8) 0.47163(8)
O42_6 O 0.35459(10) 0.75839(9) 0.58931(9)
O43_6 O 0.20130(10) 0.64411(10) 0.38265(9)
O44_6 O 0.27433(8) 0.56700(8) 0.39867(8)
O45_6 O 0.30415(9) 0.66853(8) 0.40264(8)
O46_6 O 0.28953(10) 0.62062(10) 0.30989(9)
C1_6 C 0.21448(12) 0.40776(11) 0.33048(11)
C2_6 C 0.19261(13) 0.36982(11) 0.35719(11)
H1_6 H 0.1983 0.3679 0.3908
C3_6 C 0.16260(13) 0.33487(11) 0.33500(12)
C4_6 C 0.15244(13) 0.33930(12) 0.28606(11)
H2_6 H 0.1296 0.3173 0.2713
C5_6 C 0.17560(12) 0.37591(11) 0.25854(11)
C6_6 C 0.20738(12) 0.40924(11) 0.28077(11)
H3_6 H 0.2244 0.4332 0.2620
C7_6 C 0.24561(12) 0.44665(11) 0.35463(11)
C8_6 C 0.14110(17) 0.29164(14) 0.36203(13)
C9_6 C 0.16571(12) 0.37797(11) 0.20541(11)
O21_7 O 0.01109(10) 0.77679(9) 0.53215(9)
Mo1_7 Mo 0.89929(2) 0.03703(2) 0.53322(2)
Mo7_7 Mo 0.80707(2) 0.01985(2) 0.44905(2)
O1_7 O 0.74160(9) 0.05210(9) 0.59892(8)
O2_7 O 0.77196(10) 0.02523(9) 0.66884(9)
O4_7 O 0.60648(18) 0.23139(17) 0.65380(14)
O5_4 O 0.69330(9) 0.09245(9) 0.81863(8)
O6_7 O 0.63278(9) 0.14879(9) 0.81180(8)
O7_7 O 0.91695(9) 0.09272(8) 0.55325(8)
O9_7 O 0.84957(8) 0.01426(8) 0.57966(8)
O11_7 O 0.83867(8) 0.05660(8) 0.49500(8)
O13_7 O 0.92793(10) 0.02880(9) 0.65028(9)
O29_7 O 0.95836(9) 0.00718(9) 0.37606(9)
O30_7 O 0.85892(8) 0.01464(8) 0.40780(8)
O31_7 O 0.76881(9) 0.06105(9) 0.42242(9)
C1_7 C 0.71448(12) 0.09224(11) 0.66952(11)
C2_7 C 0.69261(13) 0.13018(11) 0.64281(11)
H1_7 H 0.6983 0.1321 0.6092
C3_7 C 0.66260(13) 0.16513(11) 0.66500(12)
C4_7 C 0.65244(13) 0.16070(12) 0.71394(11)
H2_7 H 0.6296 0.1827 0.7287
C5_7 C 0.67560(12) 0.12409(11) 0.74146(11)
C6_7 C 0.70738(12) 0.09076(11) 0.71923(11)
H3_7 H 0.7244 0.0668 0.7380
C7_7 C 0.74561(12) 0.05335(11) 0.64537(11)
C8_7 C 0.64110(17) 0.20836(14) 0.63797(13)
C9_7 C 0.66571(12) 0.12203(11) 0.79459(11)
Zn7_4 Zn 0.67837(2) 0.09015(2) 0.88677(2)
Mo2_7 Mo 0.90681(2) 0.98583(2) 0.61279(2)
Mo3_7 Mo 0.94048(2) 0.86380(2) 0.61562(2)
Mo4_7 Mo 0.96458(2) 0.81424(2) 0.51460(2)
Mo5_7 Mo 0.95315(2) 0.88973(2) 0.41561(2)
Mo6_7 Mo 0.92551(2) 0.98281(2) 0.42096(2)
Mo8_7 Mo 0.72891(2) 0.93419(2) 0.47266(2)
Mo9_7 Mo 0.77465(2) 0.81650(2) 0.46488(2)
Mo10_7 Mo 0.86491(2) 0.79319(2) 0.44220(2)
Mo11_7 Mo 0.74618(2) 0.87062(2) 0.57855(2)
Mo12_7 Mo 0.81831(2) 0.88926(2) 0.63788(2)
Zn3_4 Zn 0.82163(2) 0.90985(2) 0.38677(2)
Zn4_7 Zn 0.77900(2) 0.99845(2) 0.56999(2)
P1_7 P 0.86016(3) 0.90733(3) 0.51300(3)
O8_7 O 0.94834(8) 0.98876(8) 0.55515(8)
O12_7 O 0.86764(8) 0.95943(8) 0.49059(8)
O14_7 O 0.94930(9) 0.92863(8) 0.63083(8)
O15_7 O 0.85275(9) 0.95501(9) 0.65683(8)
O16_7 O 0.87357(8) 0.90978(8) 0.56739(8)
O17_7 O 0.98335(10) 0.83470(10) 0.64908(9)
O18_7 O 0.88292(9) 0.85584(9) 0.64953(8)
O19_7 O 0.91844(9) 0.81080(8) 0.57038(8)
O20_7 O 0.97719(8) 0.87574(8) 0.55374(8)
O22_7 O 0.98914(8) 0.84676(8) 0.46248(8)
O23_7 O 0.92316(9) 0.77280(8) 0.48147(9)
O24_7 O 0.89310(8) 0.86969(8) 0.48545(8)
O25_7 O 0.99344(9) 0.89123(9) 0.37013(9)
O26_7 O 0.97074(8) 0.94288(8) 0.46000(8)
O27_7 O 0.89297(8) 0.92391(8) 0.39386(8)
O28_7 O 0.91510(8) 0.82606(8) 0.39553(8)
O32_7 O 0.76368(8) 0.99206(8) 0.50195(8)
O33_7 O 0.78092(8) 0.95474(8) 0.42468(8)
O34_7 O 0.67678(9) 0.96005(10) 0.45055(9)
O35_7 O 0.73054(9) 0.87279(9) 0.44520(8)
O36_7 O 0.70976(9) 0.91419(9) 0.53266(9)
O37_7 O 0.80502(8) 0.88999(8) 0.50858(8)
O38_7 O 0.74477(10) 0.76996(10) 0.43800(9)
O39_7 O 0.81897(8) 0.84246(8) 0.41544(8)
O40_7 O 0.82782(9) 0.78520(8) 0.50261(8)
O41_7 O 0.73494(9) 0.81568(8) 0.52837(8)
O42_7 O 0.85459(10) 0.74161(9) 0.41069(9)
O43_7 O 0.70130(10) 0.85589(10) 0.61735(9)
O44_7 O 0.77433(8) 0.93300(8) 0.60133(8)
O45_7 O 0.80415(9) 0.83147(8) 0.59736(8)
O46_7 O 0.78953(10) 0.87938(10) 0.69011(9)
O48_4 O 0.80670(9) 0.90755(9) 0.31863(8)
Mo2_8 Mo 0.59319(2) 0.01417(2) 0.11279(2)
Mo3_8 Mo 0.55952(2) 0.13620(2) 0.11562(2)
Mo4_8 Mo 0.53542(2) 0.18576(2) 0.01460(2)
Mo11_8 Mo 0.75382(2) 0.12938(2) 0.07855(2)
Mo12_8 Mo 0.68169(2) 0.11074(2) 0.13788(2)
Zn4_8 Zn 0.72100(2) 0.00155(2) 0.06999(2)
P1_8 P 0.63984(3) 0.09267(3) 0.01300(3)
O8_8 O 0.55166(8) 0.01124(8) 0.05515(8)
O14_8 O 0.55070(9) 0.07137(8) 0.13083(8)
O15_8 O 0.64725(9) 0.04499(9) 0.15683(8)
O16_8 O 0.62643(8) 0.09022(8) 0.06739(8)
O17_8 O 0.51665(10) 0.16530(10) 0.14908(9)
O18_8 O 0.61708(9) 0.14416(9) 0.14953(8)
O19_8 O 0.58156(9) 0.18920(8) 0.07038(8)
O20_8 O 0.52281(8) 0.12426(8) 0.05374(8)
O21_8 O 0.48891(10) 0.22321(9) 0.03215(9)
O32_8 O 0.73632(8) 0.00794(8) 0.00195(8)
O36_8 O 0.79024(9) 0.08581(9) 0.03266(9)
O37_8 O 0.69498(8) 0.11001(8) 0.00858(8)
O40_8 O 0.67218(9) 0.21480(8) 0.00261(8)
O41_8 O 0.76506(9) 0.18432(8) 0.02837(8)
O43_8 O 0.79870(10) 0.14411(10) 0.11735(9)
O44_8 O 0.72567(8) 0.06700(8) 0.10133(8)
O45_8 O 0.69585(9) 0.16853(8) 0.09736(8)
O46_8 O 0.71047(10) 0.12062(10) 0.19011(9)
Mo5_8 Mo 0.54685(2) 0.11027(2) 0.91561(2)
Mo6_8 Mo 0.57449(2) 0.01719(2) 0.92096(2)
Mo8_8 Mo 0.77109(2) 0.06581(2) 0.97266(2)
Mo9_8 Mo 0.72535(2) 0.18350(2) 0.96488(2)
Mo10_8 Mo 0.63509(2) 0.20681(2) 0.94220(2)
O12_8 O 0.63236(8) 0.04057(8) 0.99059(8)
O22_8 O 0.51086(8) 0.15324(8) 0.96248(8)
O23_8 O 0.57684(9) 0.22720(8) 0.98147(9)
O24_8 O 0.60690(8) 0.13031(8) 0.98545(8)
O25_8 O 0.50656(9) 0.10877(9) 0.87013(9)
O26_8 O 0.52926(8) 0.05712(8) 0.96000(8)
O27_8 O 0.60703(8) 0.07609(8) 0.89386(8)
O28_8 O 0.58490(8) 0.17394(8) 0.89553(8)
O33_8 O 0.71908(8) 0.04526(8) 0.92468(8)
O34_8 O 0.82322(9) 0.03995(10) 0.95055(9)
O35_8 O 0.76946(9) 0.12721(9) 0.94520(8)
O38_8 O 0.75523(10) 0.23004(10) 0.93800(9)
O39_8 O 0.68103(8) 0.15754(8) 0.91544(8)
O42_8 O 0.64541(10) 0.25839(9) 0.91069(9)
Mo1_8 Mo 0.60071(2) 0.96297(2) 0.03322(2)
O1_8 O 0.75840(9) 0.94790(9) 0.09892(8)
O2_8 O 0.72804(10) 0.97477(9) 0.16884(9)
O4_8 O 0.89352(18) 0.76861(17) 0.15380(14)
O6_8 O 0.86722(9) 0.85121(9) 0.31180(8)
O7_8 O 0.58305(9) 0.90728(8) 0.05325(8)
O9_8 O 0.65043(8) 0.98574(8) 0.07966(8)
O13_8 O 0.57207(10) 0.97120(9) 0.15028(9)
C1_8 C 0.78552(12) 0.90776(11) 0.16952(11)
C2_8 C 0.80739(13) 0.86982(11) 0.14281(11)
H1_8 H 0.8017 0.8679 0.1092
C3_8 C 0.83740(13) 0.83487(11) 0.16500(12)
C4_8 C 0.84756(13) 0.83930(12) 0.21394(11)
H2_8 H 0.8704 0.8173 0.2287
C5_8 C 0.82440(12) 0.87591(11) 0.24146(11)
C6_8 C 0.79262(12) 0.90924(11) 0.21923(11)
H3_8 H 0.7756 0.9332 0.2380
C7_8 C 0.75439(12) 0.94665(11) 0.14537(11)
C8_8 C 0.85890(17) 0.79164(14) 0.13797(13)
C9_8 C 0.83429(12) 0.87797(11) 0.29459(11)
Mo7_8 Mo 0.69293(2) 0.98015(2) 0.94905(2)
O11_8 O 0.66133(8) 0.94340(8) 0.99500(8)
O29_8 O 0.54164(9) 0.99282(9) 0.87606(9)
O30_8 O 0.64108(8) 0.98536(8) 0.90780(8)
O31_8 O 0.73119(9) 0.93895(9) 0.92242(9)
C18 C 0.0080(2) 0.5024(3) 0.2429(2)
H10 H 0.0130 0.5369 0.2386
C19 C 0.0446(2) 0.4692(3) 0.22904(19)
H11 H 0.0746 0.4813 0.2157
C20 C 0.03767(19) 0.4192(3) 0.23452(19)
H12 H 0.0630 0.3968 0.2252
P2 P 0.89912(4) 0.41116(4) 0.28976(3)
C10 C 0.87076(15) 0.37589(13) 0.24216(13)
C11 C 0.82656(16) 0.35066(16) 0.25055(16)
H4 H 0.8129 0.3497 0.2820
C12 C 0.80259(17) 0.32704(17) 0.21302(17)
H5 H 0.7729 0.3091 0.2188
C13 C 0.8220(2) 0.32955(17) 0.16693(17)
H6 H 0.8054 0.3134 0.1412
C14 C 0.8650(2) 0.35523(18) 0.15819(17)
H7 H 0.8774 0.3574 0.1263
C15 C 0.89032(19) 0.37796(15) 0.19553(15)
H8 H 0.9206 0.3947 0.1896
C16 C 0.95696(15) 0.43451(17) 0.26850(14)
C17 C 0.96404(19) 0.4855(2) 0.26284(17)
H9 H 0.9391 0.5083 0.2725
C21 C 0.99359(18) 0.4014(2) 0.25369(18)
H13 H 0.9884 0.3667 0.2567
C22 C 0.90791(15) 0.37384(16) 0.34244(14)
C23 C 0.95459(18) 0.3558(2) 0.35519(18)
H14 H 0.9830 0.3659 0.3375
C24 C 0.9598(2) 0.3234(3) 0.3934(2)
H15 H 0.9917 0.3115 0.4019
C25 C 0.9189(2) 0.3081(2) 0.4193(2)
H16 H 0.9227 0.2852 0.4450
C26 C 0.87268(19) 0.3263(2) 0.40784(18)
H17 H 0.8446 0.3162 0.4260
C27 C 0.86700(17) 0.35917(17) 0.36985(16)
H18 H 0.8351 0.3718 0.3624
C28 C 0.85849(14) 0.46187(13) 0.30353(13)
C29 C 0.85737(15) 0.48228(15) 0.34942(14)
H19 H 0.8774 0.4690 0.3743
C30 C 0.82661(17) 0.52225(16) 0.35824(15)
H20 H 0.8253 0.5363 0.3895
C31 C 0.79767(18) 0.54199(17) 0.32188(17)
H21 H 0.7769 0.5696 0.3283
C32 C 0.79887(18) 0.52158(17) 0.27639(17)
H22 H 0.7790 0.5352 0.2515
C33 C 0.82901(16) 0.48128(16) 0.26700(15)
H23 H 0.8296 0.4669 0.2358
P2_2 P 0.60088(4) 0.58884(4) 0.78976(3)
C10_2 C 0.62924(15) 0.62411(13) 0.74216(13)
C11_2 C 0.67344(16) 0.64934(16) 0.75055(16)
H4_2 H 0.6871 0.6503 0.7820
C12_2 C 0.69741(17) 0.67296(17) 0.71302(17)
H5_2 H 0.7271 0.6909 0.7188
C13_2 C 0.6780(2) 0.67045(17) 0.66693(17)
H6_2 H 0.6946 0.6866 0.6412
C14_2 C 0.6350(2) 0.64477(18) 0.65819(17)
H7_2 H 0.6226 0.6426 0.6263
C15_2 C 0.60968(19) 0.62204(15) 0.69553(15)
H8_2 H 0.5794 0.6053 0.6896
C16_2 C 0.54304(15) 0.56549(17) 0.76850(14)
C17_2 C 0.53596(19) 0.5145(2) 0.76284(17)
H9_2 H 0.5609 0.4917 0.7725
C18_2 C 0.4920(2) 0.4976(3) 0.7429(2)
H10_2 H 0.4870 0.4631 0.7386
C19_2 C 0.4554(2) 0.5308(3) 0.72904(19)
H11_2 H 0.4254 0.5187 0.7157
C20_2 C 0.46233(19) 0.5808(3) 0.73452(19)
H12_2 H 0.4370 0.6032 0.7252
C21_2 C 0.50641(18) 0.5986(2) 0.75369(18)
H13_2 H 0.5116 0.6333 0.7567
C22_2 C 0.59209(15) 0.62616(16) 0.84244(14)
C23_2 C 0.54541(18) 0.6442(2) 0.85519(18)
H14_2 H 0.5170 0.6341 0.8375
C24_2 C 0.5402(2) 0.6766(3) 0.8934(2)
H15_2 H 0.5083 0.6885 0.9019
C25_2 C 0.5811(2) 0.6919(2) 0.9193(2)
H16_2 H 0.5773 0.7148 0.9450
C26_2 C 0.62732(19) 0.6737(2) 0.90784(18)
H17_2 H 0.6554 0.6838 0.9260
C27_2 C 0.63300(17) 0.64083(17) 0.86985(16)
H18_2 H 0.6649 0.6282 0.8624
C28_2 C 0.64151(14) 0.53813(13) 0.80353(13)
C29_2 C 0.64263(15) 0.51772(15) 0.84942(14)
H19_2 H 0.6226 0.5310 0.8743
C30_2 C 0.67339(17) 0.47775(16) 0.85824(15)
H20_2 H 0.6747 0.4637 0.8895
C31_2 C 0.70233(18) 0.45801(17) 0.82188(17)
H21_2 H 0.7231 0.4304 0.8283
C32_2 C 0.70113(18) 0.47842(17) 0.77639(17)
H22_2 H 0.7210 0.4648 0.7515
C33_2 C 0.67099(16) 0.51872(16) 0.76700(15)
H23_2 H 0.6704 0.5331 0.7358
H9_3 H 0.0609 0.0083 0.2275
C30_3 C 0.17339(17) 0.02225(16) 0.14176(15)
H20_3 H 0.1747 0.0363 0.1105
C31_3 C 0.20233(18) 0.04199(17) 0.17812(17)
H21_3 H 0.2231 0.0696 0.1717
C32_3 C 0.20113(18) 0.02158(17) 0.22361(17)
H22_3 H 0.2210 0.0352 0.2485
P2_3 P 0.10088(4) 0.91116(4) 0.21024(3)
C10_3 C 0.12924(15) 0.87589(13) 0.25784(13)
C11_3 C 0.17344(16) 0.85066(16) 0.24945(16)
H4_3 H 0.1871 0.8497 0.2180
C12_3 C 0.19741(17) 0.82704(17) 0.28698(17)
H5_3 H 0.2271 0.8091 0.2812
C13_3 C 0.1780(2) 0.82955(17) 0.33307(17)
H6_3 H 0.1946 0.8134 0.3588
C14_3 C 0.1350(2) 0.85523(18) 0.34181(17)
H7_3 H 0.1226 0.8574 0.3737
C15_3 C 0.10968(19) 0.87796(15) 0.30447(15)
H8_3 H 0.0794 0.8947 0.3104
C16_3 C 0.04304(15) 0.93451(17) 0.23150(14)
C17_3 C 0.03596(19) 0.9855(2) 0.23716(17)
C21_3 C 0.00641(18) 0.9014(2) 0.24631(18)
H13_3 H 0.0116 0.8667 0.2433
C22_3 C 0.09209(15) 0.87384(16) 0.15756(14)
C23_3 C 0.04541(18) 0.8558(2) 0.14481(18)
H14_3 H 0.0170 0.8659 0.1625
C24_3 C 0.0402(2) 0.8234(3) 0.1066(2)
H15_3 H 0.0083 0.8115 0.0981
C25_3 C 0.0811(2) 0.8081(2) 0.0807(2)
H16_3 H 0.0773 0.7852 0.0550
C26_3 C 0.12732(19) 0.8263(2) 0.09216(18)
H17_3 H 0.1554 0.8162 0.0740
C27_3 C 0.13300(17) 0.85917(17) 0.13015(16)
H18_3 H 0.1649 0.8718 0.1376
C28_3 C 0.14151(14) 0.96187(13) 0.19647(13)
C29_3 C 0.14263(15) 0.98228(15) 0.15058(14)
H19_3 H 0.1226 0.9690 0.1257
C33_3 C 0.17099(16) 0.98128(16) 0.23300(15)
H23_3 H 0.1704 0.9669 0.2642
C18_3 C 0.9920(2) 0.0024(3) 0.2571(2)
H10_3 H 0.9870 0.0369 0.2614
C19_3 C 0.9554(2) 0.9692(3) 0.27096(19)
H11_3 H 0.9254 0.9813 0.2843
C20_3 C 0.96233(19) 0.9192(3) 0.26548(19)
H12_3 H 0.9370 0.8968 0.2748
P2_4 P 0.39912(4) 0.08884(4) 0.71024(3)
C10_4 C 0.37076(15) 0.12411(13) 0.75784(13)
C11_4 C 0.32656(16) 0.14934(16) 0.74945(16)
H4_4 H 0.3129 0.1503 0.7180
C12_4 C 0.30259(17) 0.17296(17) 0.78698(17)
H5_4 H 0.2729 0.1909 0.7812
C13_4 C 0.3220(2) 0.17045(17) 0.83307(17)
H6_4 H 0.3054 0.1866 0.8588
C14_4 C 0.3650(2) 0.14477(18) 0.84181(17)
H7_4 H 0.3774 0.1426 0.8737
C15_4 C 0.39032(19) 0.12204(15) 0.80447(15)
H8_4 H 0.4206 0.1053 0.8104
C16_4 C 0.45696(15) 0.06549(17) 0.73150(14)
C17_4 C 0.46404(19) 0.0145(2) 0.73716(17)
C19_4 C 0.5446(2) 0.0308(3) 0.77096(19)
H11_4 H 0.5746 0.0187 0.7843
C20_4 C 0.53767(19) 0.0808(3) 0.76548(19)
H12_4 H 0.5630 0.1032 0.7748
C21_4 C 0.49359(18) 0.0986(2) 0.74631(18)
H13_4 H 0.4884 0.1333 0.7433
C22_4 C 0.40791(15) 0.12616(16) 0.65756(14)
C23_4 C 0.45459(18) 0.1442(2) 0.64481(18)
H14_4 H 0.4830 0.1341 0.6625
C24_4 C 0.4598(2) 0.1766(3) 0.6066(2)
H15_4 H 0.4917 0.1885 0.5981
C25_4 C 0.4189(2) 0.1919(2) 0.5807(2)
H16_4 H 0.4227 0.2148 0.5550
C26_4 C 0.37268(19) 0.1737(2) 0.59216(18)
H17_4 H 0.3446 0.1838 0.5740
C27_4 C 0.36700(17) 0.14083(17) 0.63015(16)
H18_4 H 0.3351 0.1282 0.6376
C28_4 C 0.35849(14) 0.03813(13) 0.69647(13)
C29_4 C 0.35737(15) 0.01772(15) 0.65058(14)
H19_4 H 0.3774 0.0310 0.6257
C33_4 C 0.32901(16) 0.01872(16) 0.73300(15)
H23_4 H 0.3296 0.0331 0.7642
H9_4 H 0.4391 0.9917 0.7275
C18_4 C 0.5080(2) 0.9976(3) 0.7571(2)
H10_4 H 0.5130 0.9631 0.7614
C30_4 C 0.32661(17) 0.97775(16) 0.64176(15)
H20_4 H 0.3253 0.9637 0.6105
C31_4 C 0.29767(18) 0.95801(17) 0.67812(17)
H21_4 H 0.2769 0.9304 0.6717
C32_4 C 0.29887(18) 0.97842(17) 0.72361(17)
H22_4 H 0.2790 0.9648 0.7485
P2_5 P 0.10088(4) 0.58884(4) 0.71024(3)
C10_5 C 0.12924(15) 0.62411(13) 0.75784(13)
C11_5 C 0.17344(16) 0.64934(16) 0.74945(16)
H4_5 H 0.1871 0.6503 0.7180
C12_5 C 0.19741(17) 0.67296(17) 0.78698(17)
H5_5 H 0.2271 0.6909 0.7812
C13_5 C 0.1780(2) 0.67045(17) 0.83307(17)
H6_5 H 0.1946 0.6866 0.8588
C14_5 C 0.1350(2) 0.64477(18) 0.84181(17)
H7_5 H 0.1226 0.6426 0.8737
C15_5 C 0.10968(19) 0.62204(15) 0.80447(15)
H8_5 H 0.0794 0.6053 0.8104
C16_5 C 0.04304(15) 0.56549(17) 0.73150(14)
C17_5 C 0.03596(19) 0.5145(2) 0.73716(17)
H9_5 H 0.0609 0.4917 0.7275
C21_5 C 0.00641(18) 0.5986(2) 0.74631(18)
H13_5 H 0.0116 0.6333 0.7433
C22_5 C 0.09209(15) 0.62616(16) 0.65756(14)
C23_5 C 0.04541(18) 0.6442(2) 0.64481(18)
H14_5 H 0.0170 0.6341 0.6625
C24_5 C 0.0402(2) 0.6766(3) 0.6066(2)
H15_5 H 0.0083 0.6885 0.5981
C25_5 C 0.0811(2) 0.6919(2) 0.5807(2)
H16_5 H 0.0773 0.7148 0.5550
C26_5 C 0.12732(19) 0.6737(2) 0.59216(18)
H17_5 H 0.1554 0.6838 0.5740
C27_5 C 0.13300(17) 0.64083(17) 0.63015(16)
H18_5 H 0.1649 0.6282 0.6376
C28_5 C 0.14151(14) 0.53813(13) 0.69647(13)
C29_5 C 0.14263(15) 0.51772(15) 0.65058(14)
H19_5 H 0.1226 0.5310 0.6257
C30_5 C 0.17339(17) 0.47775(16) 0.64176(15)
H20_5 H 0.1747 0.4637 0.6105
C31_5 C 0.20233(18) 0.45801(17) 0.67812(17)
H21_5 H 0.2231 0.4304 0.6717
C32_5 C 0.20113(18) 0.47842(17) 0.72361(17)
H22_5 H 0.2210 0.4648 0.7485
C33_5 C 0.17099(16) 0.51872(16) 0.73300(15)
H23_5 H 0.1704 0.5331 0.7642
C18_5 C 0.9920(2) 0.4976(3) 0.7571(2)
H10_5 H 0.9870 0.4631 0.7614
C19_5 C 0.9554(2) 0.5308(3) 0.77096(19)
H11_5 H 0.9254 0.5187 0.7843
C20_5 C 0.96233(19) 0.5808(3) 0.76548(19)
H12_5 H 0.9370 0.6032 0.7748
P2_6 P 0.39912(4) 0.41116(4) 0.21024(3)
C10_6 C 0.37076(15) 0.37589(13) 0.25784(13)
C11_6 C 0.32656(16) 0.35066(16) 0.24945(16)
H4_6 H 0.3129 0.3497 0.2180
C12_6 C 0.30259(17) 0.32704(17) 0.28698(17)
H5_6 H 0.2729 0.3091 0.2812
C13_6 C 0.3220(2) 0.32955(17) 0.33307(17)
H6_6 H 0.3054 0.3134 0.3588
C14_6 C 0.3650(2) 0.35523(18) 0.34181(17)
H7_6 H 0.3774 0.3574 0.3737
C15_6 C 0.39032(19) 0.37796(15) 0.30447(15)
H8_6 H 0.4206 0.3947 0.3104
C16_6 C 0.45696(15) 0.43451(17) 0.23150(14)
C17_6 C 0.46404(19) 0.4855(2) 0.23716(17)
H9_6 H 0.4391 0.5083 0.2275
C18_6 C 0.5080(2) 0.5024(3) 0.2571(2)
H10_6 H 0.5130 0.5369 0.2614
C19_6 C 0.5446(2) 0.4692(3) 0.27096(19)
H11_6 H 0.5746 0.4813 0.2843
C20_6 C 0.53767(19) 0.4192(3) 0.26548(19)
H12_6 H 0.5630 0.3968 0.2748
C21_6 C 0.49359(18) 0.4014(2) 0.24631(18)
H13_6 H 0.4884 0.3667 0.2433
C22_6 C 0.40791(15) 0.37384(16) 0.15756(14)
C23_6 C 0.45459(18) 0.3558(2) 0.14481(18)
H14_6 H 0.4830 0.3659 0.1625
C24_6 C 0.4598(2) 0.3234(3) 0.1066(2)
H15_6 H 0.4917 0.3115 0.0981
C25_6 C 0.4189(2) 0.3081(2) 0.0807(2)
H16_6 H 0.4227 0.2852 0.0550
C26_6 C 0.37268(19) 0.3263(2) 0.09216(18)
H17_6 H 0.3446 0.3162 0.0740
C27_6 C 0.36700(17) 0.35917(17) 0.13015(16)
H18_6 H 0.3351 0.3718 0.1376
C28_6 C 0.35849(14) 0.46187(13) 0.19647(13)
C29_6 C 0.35737(15) 0.48228(15) 0.15058(14)
H19_6 H 0.3774 0.4690 0.1257
C30_6 C 0.32661(17) 0.52225(16) 0.14176(15)
H20_6 H 0.3253 0.5363 0.1105
C31_6 C 0.29767(18) 0.54199(17) 0.17812(17)
H21_6 H 0.2769 0.5696 0.1717
C32_6 C 0.29887(18) 0.52158(17) 0.22361(17)
H22_6 H 0.2790 0.5352 0.2485
C33_6 C 0.32901(16) 0.48128(16) 0.23300(15)
H23_6 H 0.3296 0.4669 0.2642
C19_7 C 0.0446(2) 0.0308(3) 0.72904(19)
H11_7 H 0.0746 0.0187 0.7157
C20_7 C 0.03767(19) 0.0808(3) 0.73452(19)
H12_7 H 0.0630 0.1032 0.7252
C18_7 C 0.0080(2) 0.9976(3) 0.7429(2)
H10_7 H 0.0130 0.9631 0.7386
P2_7 P 0.89912(4) 0.08884(4) 0.78976(3)
C10_7 C 0.87076(15) 0.12411(13) 0.74216(13)
C11_7 C 0.82656(16) 0.14934(16) 0.75055(16)
H4_7 H 0.8129 0.1503 0.7820
C12_7 C 0.80259(17) 0.17296(17) 0.71302(17)
H5_7 H 0.7729 0.1909 0.7188
C13_7 C 0.8220(2) 0.17045(17) 0.66693(17)
H6_7 H 0.8054 0.1866 0.6412
C14_7 C 0.8650(2) 0.14477(18) 0.65819(17)
H7_7 H 0.8774 0.1426 0.6263
C15_7 C 0.89032(19) 0.12204(15) 0.69553(15)
H8_7 H 0.9206 0.1053 0.6896
C16_7 C 0.95696(15) 0.06549(17) 0.76850(14)
C17_7 C 0.96404(19) 0.0145(2) 0.76284(17)
C21_7 C 0.99359(18) 0.0986(2) 0.75369(18)
H13_7 H 0.9884 0.1333 0.7567
C22_7 C 0.90791(15) 0.12616(16) 0.84244(14)
C23_7 C 0.95459(18) 0.1442(2) 0.85519(18)
H14_7 H 0.9830 0.1341 0.8375
C24_7 C 0.9598(2) 0.1766(3) 0.8934(2)
H15_7 H 0.9917 0.1885 0.9019
C25_7 C 0.9189(2) 0.1919(2) 0.9193(2)
H16_7 H 0.9227 0.2148 0.9450
C26_7 C 0.87268(19) 0.1737(2) 0.90784(18)
H17_7 H 0.8446 0.1838 0.9260
C27_7 C 0.86700(17) 0.14083(17) 0.86985(16)
H18_7 H 0.8351 0.1282 0.8624
C28_7 C 0.85849(14) 0.03813(13) 0.80353(13)
C29_7 C 0.85737(15) 0.01772(15) 0.84942(14)
H19_7 H 0.8774 0.0310 0.8743
C33_7 C 0.82901(16) 0.01872(16) 0.76700(15)
H23_7 H 0.8296 0.0331 0.7358
H9_7 H 0.9391 0.9917 0.7725
C30_7 C 0.82661(17) 0.97775(16) 0.85824(15)
H20_7 H 0.8253 0.9637 0.8895
C31_7 C 0.79767(18) 0.95801(17) 0.82188(17)
H21_7 H 0.7769 0.9304 0.8283
C32_7 C 0.79887(18) 0.97842(17) 0.77639(17)
H22_7 H 0.7790 0.9648 0.7515
H9_8 H 0.5609 0.0083 0.2725
C18_8 C 0.4920(2) 0.0024(3) 0.2429(2)
H10_8 H 0.4870 0.0369 0.2386
C30_8 C 0.67339(17) 0.02225(16) 0.35824(15)
H20_8 H 0.6747 0.0363 0.3895
C31_8 C 0.70233(18) 0.04199(17) 0.32188(17)
H21_8 H 0.7231 0.0696 0.3283
C32_8 C 0.70113(18) 0.02158(17) 0.27639(17)
H22_8 H 0.7210 0.0352 0.2515
P2_8 P 0.60088(4) 0.91116(4) 0.28976(3)
C10_8 C 0.62924(15) 0.87589(13) 0.24216(13)
C11_8 C 0.67344(16) 0.85066(16) 0.25055(16)
H4_8 H 0.6871 0.8497 0.2820
C12_8 C 0.69741(17) 0.82704(17) 0.21302(17)
H5_8 H 0.7271 0.8091 0.2188
C13_8 C 0.6780(2) 0.82955(17) 0.16693(17)
H6_8 H 0.6946 0.8134 0.1412
C14_8 C 0.6350(2) 0.85523(18) 0.15819(17)
H7_8 H 0.6226 0.8574 0.1263
C15_8 C 0.60968(19) 0.87796(15) 0.19553(15)
H8_8 H 0.5794 0.8947 0.1896
C16_8 C 0.54304(15) 0.93451(17) 0.26850(14)
C17_8 C 0.53596(19) 0.9855(2) 0.26284(17)
C19_8 C 0.4554(2) 0.9692(3) 0.22904(19)
H11_8 H 0.4254 0.9813 0.2157
C20_8 C 0.46233(19) 0.9192(3) 0.23452(19)
H12_8 H 0.4370 0.8968 0.2252
C21_8 C 0.50641(18) 0.9014(2) 0.25369(18)
H13_8 H 0.5116 0.8667 0.2567
C22_8 C 0.59209(15) 0.87384(16) 0.34244(14)
C23_8 C 0.54541(18) 0.8558(2) 0.35519(18)
H14_8 H 0.5170 0.8659 0.3375
C24_8 C 0.5402(2) 0.8234(3) 0.3934(2)
H15_8 H 0.5083 0.8115 0.4019
C25_8 C 0.5811(2) 0.8081(2) 0.4193(2)
H16_8 H 0.5773 0.7852 0.4450
C26_8 C 0.62732(19) 0.8263(2) 0.40784(18)
H17_8 H 0.6554 0.8162 0.4260
C27_8 C 0.63300(17) 0.85917(17) 0.36985(16)
H18_8 H 0.6649 0.8718 0.3624
C28_8 C 0.64151(14) 0.96187(13) 0.30353(13)
C29_8 C 0.64263(15) 0.98228(15) 0.34942(14)
H19_8 H 0.6226 0.9690 0.3743
C33_8 C 0.67099(16) 0.98128(16) 0.26700(15)
H23_8 H 0.6704 0.9669 0.2358
P3 P 0.15403(5) 0.67880(4) 0.19638(4)
C34 C 0.14478(15) 0.66997(14) 0.13341(15)
C35 C 0.10134(15) 0.64827(16) 0.11699(18)
H24 H 0.0775 0.6360 0.1391
C36 C 0.09340(17) 0.64489(16) 0.06827(19)
H25 H 0.0636 0.6303 0.0569
C37 C 0.12734(19) 0.66197(15) 0.03588(16)
H26 H 0.1206 0.6600 0.0024
C38 C 0.1714(2) 0.68203(17) 0.05177(16)
H27 H 0.1955 0.6932 0.0293
C39 C 0.18030(17) 0.68578(16) 0.10087(15)
H28 H 0.2107 0.6992 0.1121
C40 C 0.2125(2) 0.70850(15) 0.20469(15)
C41 C 0.2199(2) 0.75491(16) 0.18312(16)
H29 H 0.1930 0.7722 0.1689
C42 C 0.2666(2) 0.77503(17) 0.18281(16)
H30 H 0.2720 0.8060 0.1675
C43 C 0.3054(2) 0.7510(2) 0.2043(2)
H31 H 0.3376 0.7651 0.2035
C44 C 0.2977(3) 0.7059(2) 0.2272(3)
H32 H 0.3243 0.6897 0.2431
C45 C 0.2509(2) 0.6847(2) 0.2269(2)
H33 H 0.2455 0.6537 0.2421
C46 C 0.1550(2) 0.61920(16) 0.22555(16)
C47 C 0.1526(3) 0.61596(18) 0.27567(18)
H34 H 0.1484 0.6451 0.2944
C48 C 0.1564(3) 0.5705(2) 0.2978(2)
H35 H 0.1555 0.5684 0.3319
C49 C 0.16142(19) 0.52800(18) 0.2707(2)
H36 H 0.1631 0.4966 0.2861
C50 C 0.16410(19) 0.53111(17) 0.22092(19)
H37 H 0.1681 0.5019 0.2024
C51 C 0.16090(18) 0.57664(16) 0.19817(17)
H38 H 0.1627 0.5787 0.1641
C52 C 0.1054(2) 0.71692(16) 0.22169(18)
C53 C 0.1106(3) 0.7325(2) 0.2697(2)
H39 H 0.1403 0.7265 0.2870
C54 C 0.0711(5) 0.7567(3) 0.2912(3)
C55 C 0.0288(4) 0.7665(3) 0.2664(4)
H40 H 0.0020 0.7827 0.2820
C56 C 0.0245(3) 0.7533(2) 0.2194(3)
C57 C 0.0630(2) 0.72850(18) 0.1966(2)
H42 H 0.0601 0.7195 0.1637
H43 H 0.0739938 0.768079 0.328653
H41 H 0.9952 0.7611 0.2022
P3_2 P 0.34597(5) 0.32120(4) 0.69638(4)
C34_2 C 0.35522(15) 0.33003(14) 0.63341(15)
C35_2 C 0.39866(15) 0.35173(16) 0.61699(18)
H24_2 H 0.4225 0.3640 0.6391
C36_2 C 0.40660(17) 0.35511(16) 0.56827(19)
H25_2 H 0.4364 0.3697 0.5569
C37_2 C 0.37266(19) 0.33803(15) 0.53588(16)
H26_2 H 0.3794 0.3400 0.5024
C38_2 C 0.3286(2) 0.31797(17) 0.55177(16)
H27_2 H 0.3045 0.3068 0.5293
C39_2 C 0.31970(17) 0.31422(16) 0.60087(15)
H28_2 H 0.2893 0.3008 0.6121
C40_2 C 0.2875(2) 0.29150(15) 0.70469(15)
C41_2 C 0.2801(2) 0.24509(16) 0.68312(16)
H29_2 H 0.3070 0.2278 0.6689
C42_2 C 0.2334(2) 0.22497(17) 0.68281(16)
H30_2 H 0.2280 0.1940 0.6675
C43_2 C 0.1946(2) 0.2490(2) 0.7043(2)
H31_2 H 0.1624 0.2349 0.7035
C44_2 C 0.2023(3) 0.2941(2) 0.7272(3)
H32_2 H 0.1757 0.3103 0.7431
C45_2 C 0.2491(2) 0.3153(2) 0.7269(2)
H33_2 H 0.2545 0.3463 0.7421
C46_2 C 0.3450(2) 0.38080(16) 0.72555(16)
C47_2 C 0.3474(3) 0.38404(18) 0.77567(18)
H34_2 H 0.3516 0.3549 0.7944
C48_2 C 0.3436(3) 0.4295(2) 0.7978(2)
H35_2 H 0.3445 0.4316 0.8319
C49_2 C 0.33858(19) 0.47200(18) 0.7707(2)
H36_2 H 0.3369 0.5034 0.7861
C50_2 C 0.33590(19) 0.46889(17) 0.72092(19)
H37_2 H 0.3319 0.4981 0.7024
C51_2 C 0.33910(18) 0.42336(16) 0.69817(17)
H38_2 H 0.3373 0.4213 0.6641
C52_2 C 0.3946(2) 0.28308(16) 0.72169(18)
C53_2 C 0.3894(3) 0.2675(2) 0.7697(2)
H39_2 H 0.3597 0.2735 0.7870
C54_2 C 0.4289(5) 0.2433(3) 0.7912(3)
C55_2 C 0.4712(4) 0.2335(3) 0.7664(4)
H40_2 H 0.4980 0.2173 0.7820
C56_2 C 0.4755(3) 0.2467(2) 0.7194(3)
H41_2 H 0.5048 0.2389 0.7022
C57_2 C 0.4370(2) 0.27150(18) 0.6966(2)
H42_2 H 0.4399 0.2805 0.6637
H43_2 H 0.426006 0.231921 0.828653
H41_3 H 0.0048 0.2611 0.2978
P3_3 P 0.84597(5) 0.17880(4) 0.30362(4)
C34_3 C 0.85522(15) 0.16997(14) 0.36659(15)
C35_3 C 0.89866(15) 0.14827(16) 0.38301(18)
H24_3 H 0.9225 0.1360 0.3609
C36_3 C 0.90660(17) 0.14489(16) 0.43173(19)
H25_3 H 0.9364 0.1303 0.4431
C37_3 C 0.87266(19) 0.16197(15) 0.46412(16)
H26_3 H 0.8794 0.1600 0.4976
C38_3 C 0.8286(2) 0.18203(17) 0.44823(16)
H27_3 H 0.8045 0.1932 0.4707
C39_3 C 0.81970(17) 0.18578(16) 0.39913(15)
H28_3 H 0.7893 0.1992 0.3879
C40_3 C 0.7875(2) 0.20850(15) 0.29531(15)
C41_3 C 0.7801(2) 0.25491(16) 0.31688(16)
H29_3 H 0.8070 0.2722 0.3311
C42_3 C 0.7334(2) 0.27503(17) 0.31719(16)
H30_3 H 0.7280 0.3060 0.3325
C43_3 C 0.6946(2) 0.2510(2) 0.2957(2)
H31_3 H 0.6624 0.2651 0.2965
C44_3 C 0.7023(3) 0.2059(2) 0.2728(3)
H32_3 H 0.6757 0.1897 0.2569
C45_3 C 0.7491(2) 0.1847(2) 0.2731(2)
H33_3 H 0.7545 0.1537 0.2579
C46_3 C 0.8450(2) 0.11920(16) 0.27445(16)
C47_3 C 0.8474(3) 0.11596(18) 0.22433(18)
H34_3 H 0.8516 0.1451 0.2056
C48_3 C 0.8436(3) 0.0705(2) 0.2022(2)
H35_3 H 0.8445 0.0684 0.1681
C49_3 C 0.83858(19) 0.02800(18) 0.2293(2)
C50_3 C 0.83590(19) 0.03111(17) 0.27908(19)
H37_3 H 0.8319 0.0019 0.2976
C51_3 C 0.83910(18) 0.07664(16) 0.30183(17)
H38_3 H 0.8373 0.0787 0.3359
C52_3 C 0.8946(2) 0.21692(16) 0.27831(18)
C53_3 C 0.8894(3) 0.2325(2) 0.2303(2)
H39_3 H 0.8597 0.2265 0.2130
C54_3 C 0.9289(5) 0.2567(3) 0.2088(3)
C55_3 C 0.9712(4) 0.2665(3) 0.2336(4)
H40_3 H 0.9980 0.2827 0.2180
C56_3 C 0.9755(3) 0.2533(2) 0.2806(3)
C57_3 C 0.9370(2) 0.22850(18) 0.3034(2)
H42_3 H 0.9399 0.2195 0.3363
H43_3 H 0.926006 0.268079 0.171347
H36_3 H 0.8369 0.9966 0.2139
H36_4 H 0.6631 0.0034 0.7139
P3_4 P 0.65403(5) 0.82120(4) 0.80362(4)
C34_4 C 0.64478(15) 0.83003(14) 0.86659(15)
C35_4 C 0.60134(15) 0.85173(16) 0.88301(18)
H24_4 H 0.5775 0.8640 0.8609
C36_4 C 0.59340(17) 0.85511(16) 0.93173(19)
H25_4 H 0.5636 0.8697 0.9431
C37_4 C 0.62734(19) 0.83803(15) 0.96412(16)
H26_4 H 0.6206 0.8400 0.9976
C38_4 C 0.6714(2) 0.81797(17) 0.94823(16)
H27_4 H 0.6955 0.8068 0.9707
C39_4 C 0.68030(17) 0.81422(16) 0.89913(15)
H28_4 H 0.7107 0.8008 0.8879
C40_4 C 0.7125(2) 0.79150(15) 0.79531(15)
C41_4 C 0.7199(2) 0.74509(16) 0.81688(16)
H29_4 H 0.6930 0.7278 0.8311
C42_4 C 0.7666(2) 0.72497(17) 0.81719(16)
H30_4 H 0.7720 0.6940 0.8325
C43_4 C 0.8054(2) 0.7490(2) 0.7957(2)
H31_4 H 0.8376 0.7349 0.7965
C44_4 C 0.7977(3) 0.7941(2) 0.7728(3)
H32_4 H 0.8243 0.8103 0.7569
C45_4 C 0.7509(2) 0.8153(2) 0.7731(2)
H33_4 H 0.7455 0.8463 0.7579
C46_4 C 0.6550(2) 0.88080(16) 0.77445(16)
C47_4 C 0.6526(3) 0.88404(18) 0.72433(18)
H34_4 H 0.6484 0.8549 0.7056
C48_4 C 0.6564(3) 0.9295(2) 0.7022(2)
H35_4 H 0.6555 0.9316 0.6681
C49_4 C 0.66142(19) 0.97200(18) 0.7293(2)
C50_4 C 0.66410(19) 0.96889(17) 0.77908(19)
H37_4 H 0.6681 0.9981 0.7976
C51_4 C 0.66090(18) 0.92336(16) 0.80183(17)
H38_4 H 0.6627 0.9213 0.8359
C52_4 C 0.6054(2) 0.78308(16) 0.77831(18)
C53_4 C 0.6106(3) 0.7675(2) 0.7303(2)
H39_4 H 0.6403 0.7735 0.7130
C54_4 C 0.5711(5) 0.7433(3) 0.7088(3)
C55_4 C 0.5288(4) 0.7335(3) 0.7336(4)
H40_4 H 0.5020 0.7173 0.7180
C56_4 C 0.5245(3) 0.7467(2) 0.7806(3)
H41_4 H 0.4952 0.7389 0.7978
C57_4 C 0.5630(2) 0.77150(18) 0.8034(2)
H42_4 H 0.5601 0.7805 0.8363
H43_4 H 0.573994 0.731921 0.671347
H41_5 H 0.0048 0.2389 0.7978
P3_5 P 0.84597(5) 0.32120(4) 0.80362(4)
C34_5 C 0.85522(15) 0.33003(14) 0.86659(15)
C35_5 C 0.89866(15) 0.35173(16) 0.88301(18)
H24_5 H 0.9225 0.3640 0.8609
C36_5 C 0.90660(17) 0.35511(16) 0.93173(19)
H25_5 H 0.9364 0.3697 0.9431
C37_5 C 0.87266(19) 0.33803(15) 0.96412(16)
H26_5 H 0.8794 0.3400 0.9976
C38_5 C 0.8286(2) 0.31797(17) 0.94823(16)
H27_5 H 0.8045 0.3068 0.9707
C39_5 C 0.81970(17) 0.31422(16) 0.89913(15)
H28_5 H 0.7893 0.3008 0.8879
C40_5 C 0.7875(2) 0.29150(15) 0.79531(15)
C41_5 C 0.7801(2) 0.24509(16) 0.81688(16)
H29_5 H 0.8070 0.2278 0.8311
C42_5 C 0.7334(2) 0.22497(17) 0.81719(16)
H30_5 H 0.7280 0.1940 0.8325
C43_5 C 0.6946(2) 0.2490(2) 0.7957(2)
H31_5 H 0.6624 0.2349 0.7965
C44_5 C 0.7023(3) 0.2941(2) 0.7728(3)
H32_5 H 0.6757 0.3103 0.7569
C45_5 C 0.7491(2) 0.3153(2) 0.7731(2)
H33_5 H 0.7545 0.3463 0.7579
C46_5 C 0.8450(2) 0.38080(16) 0.77445(16)
C47_5 C 0.8474(3) 0.38404(18) 0.72433(18)
H34_5 H 0.8516 0.3549 0.7056
C48_5 C 0.8436(3) 0.4295(2) 0.7022(2)
H35_5 H 0.8445 0.4316 0.6681
C49_5 C 0.83858(19) 0.47200(18) 0.7293(2)
H36_5 H 0.8369 0.5034 0.7139
C50_5 C 0.83590(19) 0.46889(17) 0.77908(19)
H37_5 H 0.8319 0.4981 0.7976
C51_5 C 0.83910(18) 0.42336(16) 0.80183(17)
H38_5 H 0.8373 0.4213 0.8359
C52_5 C 0.8946(2) 0.28308(16) 0.77831(18)
C53_5 C 0.8894(3) 0.2675(2) 0.7303(2)
H39_5 H 0.8597 0.2735 0.7130
C54_5 C 0.9289(5) 0.2433(3) 0.7088(3)
C55_5 C 0.9712(4) 0.2335(3) 0.7336(4)
H40_5 H 0.9980 0.2173 0.7180
C56_5 C 0.9755(3) 0.2467(2) 0.7806(3)
C57_5 C 0.9370(2) 0.27150(18) 0.8034(2)
H42_5 H 0.9399 0.2805 0.8363
H43_5 H 0.926006 0.231921 0.671347
P3_6 P 0.65403(5) 0.67880(4) 0.30362(4)
C34_6 C 0.64478(15) 0.66997(14) 0.36659(15)
C35_6 C 0.60134(15) 0.64827(16) 0.38301(18)
H24_6 H 0.5775 0.6360 0.3609
C36_6 C 0.59340(17) 0.64489(16) 0.43173(19)
H25_6 H 0.5636 0.6303 0.4431
C37_6 C 0.62734(19) 0.66197(15) 0.46412(16)
H26_6 H 0.6206 0.6600 0.4976
C38_6 C 0.6714(2) 0.68203(17) 0.44823(16)
H27_6 H 0.6955 0.6932 0.4707
C39_6 C 0.68030(17) 0.68578(16) 0.39913(15)
H28_6 H 0.7107 0.6992 0.3879
C40_6 C 0.7125(2) 0.70850(15) 0.29531(15)
C41_6 C 0.7199(2) 0.75491(16) 0.31688(16)
H29_6 H 0.6930 0.7722 0.3311
C42_6 C 0.7666(2) 0.77503(17) 0.31719(16)
H30_6 H 0.7720 0.8060 0.3325
C43_6 C 0.8054(2) 0.7510(2) 0.2957(2)
H31_6 H 0.8376 0.7651 0.2965
C44_6 C 0.7977(3) 0.7059(2) 0.2728(3)
H32_6 H 0.8243 0.6897 0.2569
C45_6 C 0.7509(2) 0.6847(2) 0.2731(2)
H33_6 H 0.7455 0.6537 0.2579
C46_6 C 0.6550(2) 0.61920(16) 0.27445(16)
C47_6 C 0.6526(3) 0.61596(18) 0.22433(18)
H34_6 H 0.6484 0.6451 0.2056
C48_6 C 0.6564(3) 0.5705(2) 0.2022(2)
H35_6 H 0.6555 0.5684 0.1681
C49_6 C 0.66142(19) 0.52800(18) 0.2293(2)
H36_6 H 0.6631 0.4966 0.2139
C50_6 C 0.66410(19) 0.53111(17) 0.27908(19)
H37_6 H 0.6681 0.5019 0.2976
C51_6 C 0.66090(18) 0.57664(16) 0.30183(17)
H38_6 H 0.6627 0.5787 0.3359
C52_6 C 0.6054(2) 0.71692(16) 0.27831(18)
C53_6 C 0.6106(3) 0.7325(2) 0.2303(2)
H39_6 H 0.6403 0.7265 0.2130
C54_6 C 0.5711(5) 0.7567(3) 0.2088(3)
C55_6 C 0.5288(4) 0.7665(3) 0.2336(4)
H40_6 H 0.5020 0.7827 0.2180
C56_6 C 0.5245(3) 0.7533(2) 0.2806(3)
H41_6 H 0.4952 0.7611 0.2978
C57_6 C 0.5630(2) 0.72850(18) 0.3034(2)
H42_6 H 0.5601 0.7195 0.3363
H43_6 H 0.573994 0.768079 0.171347
H36_7 H 0.1631 0.0034 0.7861
P3_7 P 0.15403(5) 0.82120(4) 0.69638(4)
C34_7 C 0.14478(15) 0.83003(14) 0.63341(15)
C35_7 C 0.10134(15) 0.85173(16) 0.61699(18)
H24_7 H 0.0775 0.8640 0.6391
C36_7 C 0.09340(17) 0.85511(16) 0.56827(19)
H25_7 H 0.0636 0.8697 0.5569
C37_7 C 0.12734(19) 0.83803(15) 0.53588(16)
H26_7 H 0.1206 0.8400 0.5024
C38_7 C 0.1714(2) 0.81797(17) 0.55177(16)
H27_7 H 0.1955 0.8068 0.5293
C39_7 C 0.18030(17) 0.81422(16) 0.60087(15)
H28_7 H 0.2107 0.8008 0.6121
C40_7 C 0.2125(2) 0.79150(15) 0.70469(15)
C41_7 C 0.2199(2) 0.74509(16) 0.68312(16)
H29_7 H 0.1930 0.7278 0.6689
C42_7 C 0.2666(2) 0.72497(17) 0.68281(16)
H30_7 H 0.2720 0.6940 0.6675
C43_7 C 0.3054(2) 0.7490(2) 0.7043(2)
H31_7 H 0.3376 0.7349 0.7035
C44_7 C 0.2977(3) 0.7941(2) 0.7272(3)
H32_7 H 0.3243 0.8103 0.7431
C45_7 C 0.2509(2) 0.8153(2) 0.7269(2)
H33_7 H 0.2455 0.8463 0.7421
C46_7 C 0.1550(2) 0.88080(16) 0.72555(16)
C47_7 C 0.1526(3) 0.88404(18) 0.77567(18)
H34_7 H 0.1484 0.8549 0.7944
C48_7 C 0.1564(3) 0.9295(2) 0.7978(2)
H35_7 H 0.1555 0.9316 0.8319
C49_7 C 0.16142(19) 0.97200(18) 0.7707(2)
C50_7 C 0.16410(19) 0.96889(17) 0.72092(19)
H37_7 H 0.1681 0.9981 0.7024
C51_7 C 0.16090(18) 0.92336(16) 0.69817(17)
H38_7 H 0.1627 0.9213 0.6641
C52_7 C 0.1054(2) 0.78308(16) 0.72169(18)
C53_7 C 0.1106(3) 0.7675(2) 0.7697(2)
H39_7 H 0.1403 0.7735 0.7870
C54_7 C 0.0711(5) 0.7433(3) 0.7912(3)
C55_7 C 0.0288(4) 0.7335(3) 0.7664(4)
H40_7 H 0.0020 0.7173 0.7820
C56_7 C 0.0245(3) 0.7467(2) 0.7194(3)
C57_7 C 0.0630(2) 0.77150(18) 0.6966(2)
H42_7 H 0.0601 0.7805 0.6637
H43_7 H 0.0739938 0.731921 0.828653
H41_7 H 0.9952 0.7389 0.7022
P3_8 P 0.34597(5) 0.17880(4) 0.19638(4)
C34_8 C 0.35522(15) 0.16997(14) 0.13341(15)
C35_8 C 0.39866(15) 0.14827(16) 0.11699(18)
H24_8 H 0.4225 0.1360 0.1391
C36_8 C 0.40660(17) 0.14489(16) 0.06827(19)
H25_8 H 0.4364 0.1303 0.0569
C37_8 C 0.37266(19) 0.16197(15) 0.03588(16)
H26_8 H 0.3794 0.1600 0.0024
C38_8 C 0.3286(2) 0.18203(17) 0.05177(16)
H27_8 H 0.3045 0.1932 0.0293
C39_8 C 0.31970(17) 0.18578(16) 0.10087(15)
H28_8 H 0.2893 0.1992 0.1121
C40_8 C 0.2875(2) 0.20850(15) 0.20469(15)
C41_8 C 0.2801(2) 0.25491(16) 0.18312(16)
H29_8 H 0.3070 0.2722 0.1689
C42_8 C 0.2334(2) 0.27503(17) 0.18281(16)
H30_8 H 0.2280 0.3060 0.1675
C43_8 C 0.1946(2) 0.2510(2) 0.2043(2)
H31_8 H 0.1624 0.2651 0.2035
C44_8 C 0.2023(3) 0.2059(2) 0.2272(3)
H32_8 H 0.1757 0.1897 0.2431
C45_8 C 0.2491(2) 0.1847(2) 0.2269(2)
H33_8 H 0.2545 0.1537 0.2421
C46_8 C 0.3450(2) 0.11920(16) 0.22555(16)
C47_8 C 0.3474(3) 0.11596(18) 0.27567(18)
H34_8 H 0.3516 0.1451 0.2944
C48_8 C 0.3436(3) 0.0705(2) 0.2978(2)
H35_8 H 0.3445 0.0684 0.3319
C49_8 C 0.33858(19) 0.02800(18) 0.2707(2)
C50_8 C 0.33590(19) 0.03111(17) 0.22092(19)
H37_8 H 0.3319 0.0019 0.2024
C51_8 C 0.33910(18) 0.07664(16) 0.19817(17)
H38_8 H 0.3373 0.0787 0.1641
C52_8 C 0.3946(2) 0.21692(16) 0.22169(18)
C53_8 C 0.3894(3) 0.2325(2) 0.2697(2)
H39_8 H 0.3597 0.2265 0.2870
C54_8 C 0.4289(5) 0.2567(3) 0.2912(3)
C55_8 C 0.4712(4) 0.2665(3) 0.2664(4)
H40_8 H 0.4980 0.2827 0.2820
C56_8 C 0.4755(3) 0.2533(2) 0.2194(3)
H41_8 H 0.5048 0.2611 0.2022
C57_8 C 0.4370(2) 0.22850(18) 0.1966(2)
H42_8 H 0.4399 0.2195 0.1637
H43_8 H 0.426006 0.268079 0.328653
H36_8 H 0.3369 0.9966 0.2861
loop_
_geom_bond_atom_site_label_1
_geom_bond_atom_site_label_2
_geom_bond_site_symmetry_1
_geom_bond_site_symmetry_2
Mo1 O7 1_555 1_555
Mo2 O8 1_555 1_555
Mo3 O14 1_555 1_555
Mo4 O19 1_555 1_555
Mo11 O36 1_555 1_555
Mo12 O15 1_555 1_555
Zn1 O8 1_555 1_555
Zn2 O19 1_555 1_555
Zn4 O1 1_555 1_555
O1 C7 1_555 1_555
O2 C7 1_555 1_555
O3 C8 1_555 1_555
O4 C8 1_555 1_555
O5 C9 1_555 1_555
O6 C9 1_555 1_555
O8 Mo1 1_555 1_555
O9 Mo1 1_555 1_555
O13 Mo2 1_555 1_555
O14 Mo2 1_555 1_555
O15 Mo2 1_555 1_555
O16 Mo2 1_555 1_555
O17 Mo3 1_555 1_555
O18 Mo3 1_555 1_555
O19 Mo3 1_555 1_555
O20 Mo3 1_555 1_555
O43 Mo11 1_555 1_555
O44 Mo11 1_555 1_555
O45 Mo11 1_555 1_555
O46 Mo12 1_555 1_555
C1 C2 1_555 1_555
C2 H1 1_555 1_555
C3 C2 1_555 1_555
C4 C3 1_555 1_555
H2 C4 1_555 1_555
C5 C4 1_555 1_555
C6 C1 1_555 1_555
H3 C6 1_555 1_555
C7 C1 1_555 1_555
C8 C3 1_555 1_555
C9 C5 1_555 1_555
Zn6 O3 1_555 1_555
Zn7 O5 1_555 1_555
O47 Zn2 1_555 1_555
Mo2 O9 1_555 1_555
Mo3 O16 1_555 1_555
Mo4 O20 1_555 1_555
Mo11 O37 1_555 1_555
Mo11 O41 1_555 1_555
Mo12 O16 1_555 1_555
Mo12 O18 1_555 1_555
Mo12 O44 1_555 1_555
Mo12 O45 1_555 1_555
Zn1 O20 1_555 1_555
Zn2 O40 1_555 1_555
Zn2 O45 1_555 1_555
Zn4 O9 1_555 1_555
Zn4 O32 1_555 1_555
Zn4 O44 1_555 1_555
P1 O16 1_555 1_555
P1 O37 1_555 1_555
C5 C6 1_555 1_555
Mo5 O22 1_555 1_555
Mo6 O10 1_555 1_555
Mo7 O11 1_555 1_555
Mo9 O35 1_555 1_555
Mo10 O23 1_555 1_555
Zn3 O27 1_555 1_555
O25 Mo5 1_555 1_555
O26 Mo5 1_555 1_555
O27 Mo5 1_555 1_555
O28 Mo5 1_555 1_555
O29 Mo6 1_555 1_555
O30 Mo6 1_555 1_555
O31 Mo7 1_555 1_555
O33 Mo7 1_555 1_555
O34 Mo8 1_555 1_555
O35 Mo8 1_555 1_555
O38 Mo9 1_555 1_555
O39 Mo9 1_555 1_555
O42 Mo10 1_555 1_555
O48 Zn3 1_555 1_555
Mo5 O24 1_555 1_555
Mo6 O12 1_555 1_555
Mo6 O26 1_555 1_555
Mo6 O27 1_555 1_555
Mo7 O12 1_555 1_555
Mo7 O30 1_555 1_555
Mo8 O33 1_555 1_555
Mo10 O24 1_555 1_555
Mo10 O28 1_555 1_555
Mo10 O39 1_555 1_555
Zn3 O33 1_555 1_555
Zn3 O39 1_555 1_555
Mo1_2 O7_2 1_555 1_555
Mo2_2 O8_2 1_555 1_555
Mo3_2 O14_2 1_555 1_555
Mo4_2 O19_2 1_555 1_555
Mo5_2 O22_2 1_555 1_555
Mo6_2 O10_2 1_555 1_555
Mo7_2 O11_2 1_555 1_555
Mo8_2 O32_2 1_555 1_555
Mo9_2 O35_2 1_555 1_555
Mo10_2 O23_2 1_555 1_555
Mo11_2 O36_2 1_555 1_555
Mo12_2 O15_2 1_555 1_555
Zn1_2 O8_2 1_555 1_555
Zn2_2 O19_2 1_555 1_555
Zn7 O27_2 1_555 1_555
Zn4_2 O1_2 1_555 1_555
P1_2 O12_2 1_555 1_555
O1_2 C7_2 1_555 1_555
O2_2 C7_2 1_555 1_555
O3_2 C8_2 1_555 1_555
O4_2 C8_2 1_555 1_555
O48 C9_2 1_555 1_555
O6_2 C9_2 1_555 1_555
O8_2 Mo1_2 1_555 1_555
O9_2 Mo1_2 1_555 1_555
O10_2 Mo1_2 1_555 1_555
O11_2 Mo1_2 1_555 1_555
O12_2 Mo1_2 1_555 1_555
O13_2 Mo2_2 1_555 1_555
O14_2 Mo2_2 1_555 1_555
O15_2 Mo2_2 1_555 1_555
O16_2 Mo2_2 1_555 1_555
O17_2 Mo3_2 1_555 1_555
O18_2 Mo3_2 1_555 1_555
O19_2 Mo3_2 1_555 1_555
O20_2 Mo3_2 1_555 1_555
O21_2 Mo4_2 1_555 1_555
O22_2 Mo4_2 1_555 1_555
O23_2 Mo4_2 1_555 1_555
O24_2 Mo4_2 1_555 1_555
O25_2 Mo5_2 1_555 1_555
O26_2 Mo5_2 1_555 1_555
O27_2 Mo5_2 1_555 1_555
O28_2 Mo5_2 1_555 1_555
O29_2 Mo6_2 1_555 1_555
O30_2 Mo6_2 1_555 1_555
O31_2 Mo7_2 1_555 1_555
O32_2 Mo7_2 1_555 1_555
O33_2 Mo7_2 1_555 1_555
O34_2 Mo8_2 1_555 1_555
O35_2 Mo8_2 1_555 1_555
O36_2 Mo8_2 1_555 1_555
O37_2 Mo8_2 1_555 1_555
O38_2 Mo9_2 1_555 1_555
O39_2 Mo9_2 1_555 1_555
O40_2 Mo9_2 1_555 1_555
O41_2 Mo9_2 1_555 1_555
O42_2 Mo10_2 1_555 1_555
O43_2 Mo11_2 1_555 1_555
O44_2 Mo11_2 1_555 1_555
O45_2 Mo11_2 1_555 1_555
O46_2 Mo12_2 1_555 1_555
C1_2 C2_2 1_555 1_555
C2_2 H1_2 1_555 1_555
C3_2 C2_2 1_555 1_555
C4_2 C3_2 1_555 1_555
H2_2 C4_2 1_555 1_555
C5_2 C4_2 1_555 1_555
C6_2 C1_2 1_555 1_555
H3_2 C6_2 1_555 1_555
C7_2 C1_2 1_555 1_555
C8_2 C3_2 1_555 1_555
C9_2 C5_2 1_555 1_555
Zn5_2 O10_2 1_555 1_555
Zn6_2 O3_2 1_555 1_555
O47_2 Zn2_2 1_555 1_555
O49_2 Zn1_2 1_555 1_555
Mo2_2 O9_2 1_555 1_555
Mo3_2 O16_2 1_555 1_555
Mo4_2 O20_2 1_555 1_555
Mo5_2 O24_2 1_555 1_555
Mo6_2 O12_2 1_555 1_555
Mo6_2 O26_2 1_555 1_555
Mo6_2 O27_2 1_555 1_555
Mo7_2 O12_2 1_555 1_555
Mo7_2 O30_2 1_555 1_555
Mo8_2 O33_2 1_555 1_555
Mo9_2 O37_2 1_555 1_555
Mo10_2 O24_2 1_555 1_555
Mo10_2 O28_2 1_555 1_555
Mo10_2 O39_2 1_555 1_555
Mo10_2 O40_2 1_555 1_555
Mo11_2 O37_2 1_555 1_555
Mo11_2 O41_2 1_555 1_555
Mo12_2 O16_2 1_555 1_555
Mo12_2 O18_2 1_555 1_555
Mo12_2 O44_2 1_555 1_555
Mo12_2 O45_2 1_555 1_555
Zn1_2 O20_2 1_555 1_555
Zn1_2 O26_2 1_555 1_555
Zn2_2 O40_2 1_555 1_555
Zn2_2 O45_2 1_555 1_555
Zn7 O33_2 1_555 1_555
Zn7 O39_2 1_555 1_555
Zn4_2 O9_2 1_555 1_555
Zn4_2 O32_2 1_555 1_555
Zn4_2 O44_2 1_555 1_555
P1_2 O16_2 1_555 1_555
P1_2 O24_2 1_555 1_555
P1_2 O37_2 1_555 1_555
C5_2 C6_2 1_555 1_555
Mo2_3 O8_3 1_555 1_555
Mo3_3 O14_3 1_555 1_555
Mo4_3 O19_3 1_555 1_555
Mo5_3 O22_3 1_555 1_555
Mo8_3 O32_3 1_555 1_555
Mo9_3 O35_3 1_555 1_555
Mo10_3 O23_3 1_555 1_555
Mo11_3 O36_3 1_555 1_555
Mo12_3 O15_3 1_555 1_555
Zn1_3 O8_3 1_555 1_555
Zn2_3 O19_3 1_555 1_555
Zn3_2 O27_3 1_555 1_555
P1_3 O12_3 1_555 1_555
O14_3 Mo2_3 1_555 1_555
O15_3 Mo2_3 1_555 1_555
O16_3 Mo2_3 1_555 1_555
O17_3 Mo3_3 1_555 1_555
O18_3 Mo3_3 1_555 1_555
O19_3 Mo3_3 1_555 1_555
O20_3 Mo3_3 1_555 1_555
O22_3 Mo4_3 1_555 1_555
O23_3 Mo4_3 1_555 1_555
O24_3 Mo4_3 1_555 1_555
O25_3 Mo5_3 1_555 1_555
O26_3 Mo5_3 1_555 1_555
O27_3 Mo5_3 1_555 1_555
O28_3 Mo5_3 1_555 1_555
O34_3 Mo8_3 1_555 1_555
O35_3 Mo8_3 1_555 1_555
O36_3 Mo8_3 1_555 1_555
O37_3 Mo8_3 1_555 1_555
O38_3 Mo9_3 1_555 1_555
O39_3 Mo9_3 1_555 1_555
O40_3 Mo9_3 1_555 1_555
O41_3 Mo9_3 1_555 1_555
O42_3 Mo10_3 1_555 1_555
O43_3 Mo11_3 1_555 1_555
O44_3 Mo11_3 1_555 1_555
O45_3 Mo11_3 1_555 1_555
O46_3 Mo12_3 1_555 1_555
O47_3 Zn2_3 1_555 1_555
O48_2 Zn3_2 1_555 1_555
Mo3_3 O16_3 1_555 1_555
Mo4_3 O20_3 1_555 1_555
Mo5_3 O24_3 1_555 1_555
Mo6_3 O12_3 1_555 1_555
Mo6_3 O26_3 1_555 1_555
Mo6_3 O27_3 1_555 1_555
Mo8_3 O33_3 1_555 1_555
Mo9_3 O37_3 1_555 1_555
Mo10_3 O24_3 1_555 1_555
Mo10_3 O28_3 1_555 1_555
Mo10_3 O39_3 1_555 1_555
Mo10_3 O40_3 1_555 1_555
Mo11_3 O37_3 1_555 1_555
Mo11_3 O41_3 1_555 1_555
Mo12_3 O16_3 1_555 1_555
Mo12_3 O18_3 1_555 1_555
Mo12_3 O44_3 1_555 1_555
Mo12_3 O45_3 1_555 1_555
Zn1_3 O20_3 1_555 1_555
Zn1_3 O26_3 1_555 1_555
Zn2_3 O40_3 1_555 1_555
Zn2_3 O45_3 1_555 1_555
Zn3_2 O33_3 1_555 1_555
Zn3_2 O39_3 1_555 1_555
Zn4_3 O32_3 1_555 1_555
Zn4_3 O44_3 1_555 1_555
P1_3 O16_3 1_555 1_555
P1_3 O24_3 1_555 1_555
P1_3 O37_3 1_555 1_555
Mo1_3 O7_3 1_555 1_555
Mo7_3 O11_3 1_555 1_555
O1_3 C7_3 1_555 1_555
O2_3 C7_3 1_555 1_555
O3_3 C8_3 1_555 1_555
O4_3 C8_3 1_555 1_555
O5_2 C9_3 1_555 1_555
O6_3 C9_3 1_555 1_555
O9_3 Mo1_3 1_555 1_555
O10_3 Mo1_3 1_555 1_555
O11_3 Mo1_3 1_555 1_555
O31_3 Mo7_3 1_555 1_555
C1_3 C2_3 1_555 1_555
C2_3 H1_3 1_555 1_555
C3_3 C2_3 1_555 1_555
C4_3 C3_3 1_555 1_555
H2_3 C4_3 1_555 1_555
C5_3 C4_3 1_555 1_555
C6_3 C1_3 1_555 1_555
H3_3 C6_3 1_555 1_555
C7_3 C1_3 1_555 1_555
C8_3 C3_3 1_555 1_555
C9_3 C5_3 1_555 1_555
Zn6_3 O3_3 1_555 1_555
Zn7_2 O5_2 1_555 1_555
Mo7_3 O30_3 1_555 1_555
C5_3 C6_3 1_555 1_555
Mo7_4 O11_4 1_555 1_555
O31_4 Mo7_4 1_555 1_555
Zn5_4 O10_4 1_555 1_555
Mo7_4 O30_4 1_555 1_555
Mo1_4 O7_4 1_555 1_555
O1_4 C7_4 1_555 1_555
O2_4 C7_4 1_555 1_555
O3_4 C8_4 1_555 1_555
O4_4 C8_4 1_555 1_555
O48_2 C9_4 1_555 1_555
O6_4 C9_4 1_555 1_555
O9_4 Mo1_4 1_555 1_555
C1_4 C2_4 1_555 1_555
C2_4 H1_4 1_555 1_555
C3_4 C2_4 1_555 1_555
C4_4 C3_4 1_555 1_555
H2_4 C4_4 1_555 1_555
C5_4 C4_4 1_555 1_555
C6_4 C1_4 1_555 1_555
H3_4 C6_4 1_555 1_555
C7_4 C1_4 1_555 1_555
C8_4 C3_4 1_555 1_555
C9_4 C5_4 1_555 1_555
Zn6_4 O3_4 1_555 1_555
C5_4 C6_4 1_555 1_555
Mo5_4 O22_4 1_555 1_555
Mo9_4 O35_4 1_555 1_555
Mo10_4 O23_4 1_555 1_555
Zn7_2 O27_4 1_555 1_555
O25_4 Mo5_4 1_555 1_555
O26_4 Mo5_4 1_555 1_555
O27_4 Mo5_4 1_555 1_555
O28_4 Mo5_4 1_555 1_555
O34_4 Mo8_4 1_555 1_555
O35_4 Mo8_4 1_555 1_555
O38_4 Mo9_4 1_555 1_555
O39_4 Mo9_4 1_555 1_555
O42_4 Mo10_4 1_555 1_555
Mo5_4 O24_4 1_555 1_555
Mo6_4 O12_4 1_555 1_555
Mo6_4 O26_4 1_555 1_555
Mo6_4 O27_4 1_555 1_555
Mo8_4 O33_4 1_555 1_555
Mo10_4 O24_4 1_555 1_555
Mo10_4 O28_4 1_555 1_555
Mo10_4 O39_4 1_555 1_555
Zn7_2 O33_4 1_555 1_555
Zn7_2 O39_4 1_555 1_555
Mo2_4 O8_4 1_555 1_555
Mo3_4 O14_4 1_555 1_555
Mo4_4 O19_4 1_555 1_555
Mo11_4 O36_4 1_555 1_555
Mo12_4 O15_4 1_555 1_555
Zn1_4 O8_4 1_555 1_555
Zn2_4 O19_4 1_555 1_555
O14_4 Mo2_4 1_555 1_555
O15_4 Mo2_4 1_555 1_555
O16_4 Mo2_4 1_555 1_555
O17_4 Mo3_4 1_555 1_555
O18_4 Mo3_4 1_555 1_555
O19_4 Mo3_4 1_555 1_555
O20_4 Mo3_4 1_555 1_555
O21_4 Mo4_4 1_555 1_555
O43_4 Mo11_4 1_555 1_555
O44_4 Mo11_4 1_555 1_555
O45_4 Mo11_4 1_555 1_555
O46_4 Mo12_4 1_555 1_555
O47_4 Zn2_4 1_555 1_555
O49_4 Zn1_4 1_555 1_555
Mo3_4 O16_4 1_555 1_555
Mo4_4 O20_4 1_555 1_555
Mo11_4 O37_4 1_555 1_555
Mo11_4 O41_4 1_555 1_555
Mo12_4 O16_4 1_555 1_555
Mo12_4 O18_4 1_555 1_555
Mo12_4 O44_4 1_555 1_555
Mo12_4 O45_4 1_555 1_555
Zn1_4 O20_4 1_555 1_555
Zn2_4 O40_4 1_555 1_555
Zn2_4 O45_4 1_555 1_555
Zn4_4 O32_4 1_555 1_555
Zn4_4 O44_4 1_555 1_555
P1_4 O16_4 1_555 1_555
P1_4 O37_4 1_555 1_555
Mo5_5 O22_5 1_555 1_555
Mo6_5 O49 1_555 1_555
Mo7_5 O11_5 1_555 1_555
Mo9_5 O35_5 1_555 1_555
Mo10_5 O23_5 1_555 1_555
Zn3_3 O27_5 1_555 1_555
O25_5 Mo5_5 1_555 1_555
O26_5 Mo5_5 1_555 1_555
O27_5 Mo5_5 1_555 1_555
O28_5 Mo5_5 1_555 1_555
O29_5 Mo6_5 1_555 1_555
O30_5 Mo6_5 1_555 1_555
O31_5 Mo7_5 1_555 1_555
O33_5 Mo7_5 1_555 1_555
O34_5 Mo8_5 1_555 1_555
O35_5 Mo8_5 1_555 1_555
O38_5 Mo9_5 1_555 1_555
O39_5 Mo9_5 1_555 1_555
O42_5 Mo10_5 1_555 1_555
O48_3 Zn3_3 1_555 1_555
Mo5_5 O24_5 1_555 1_555
Mo6_5 O12_5 1_555 1_555
Mo6_5 O26_5 1_555 1_555
Mo6_5 O27_5 1_555 1_555
Mo7_5 O12_5 1_555 1_555
Mo7_5 O30_5 1_555 1_555
Mo8_5 O33_5 1_555 1_555
Mo10_5 O24_5 1_555 1_555
Mo10_5 O28_5 1_555 1_555
Mo10_5 O39_5 1_555 1_555
Zn3_3 O33_5 1_555 1_555
Zn3_3 O39_5 1_555 1_555
Mo1_5 O7_5 1_555 1_555
Mo2_5 O8_5 1_555 1_555
Mo3_5 O14_5 1_555 1_555
Mo4_5 O19_5 1_555 1_555
Mo11_5 O36_5 1_555 1_555
Mo12_5 O15_5 1_555 1_555
Zn5 O8_5 1_555 1_555
Zn6_4 O19_5 1_555 1_555
Zn4_5 O1_5 1_555 1_555
O1_5 C7_5 1_555 1_555
O2_5 C7_5 1_555 1_555
O47_4 C8_5 1_555 1_555
O4_5 C8_5 1_555 1_555
O5_3 C9_5 1_555 1_555
O6_5 C9_5 1_555 1_555
O8_5 Mo1_5 1_555 1_555
O9_5 Mo1_5 1_555 1_555
O13_5 Mo2_5 1_555 1_555
O14_5 Mo2_5 1_555 1_555
O15_5 Mo2_5 1_555 1_555
O16_5 Mo2_5 1_555 1_555
O17_5 Mo3_5 1_555 1_555
O18_5 Mo3_5 1_555 1_555
O19_5 Mo3_5 1_555 1_555
O20_5 Mo3_5 1_555 1_555
O43_5 Mo11_5 1_555 1_555
O44_5 Mo11_5 1_555 1_555
O45_5 Mo11_5 1_555 1_555
O46_5 Mo12_5 1_555 1_555
C1_5 C2_5 1_555 1_555
C2_5 H1_5 1_555 1_555
C3_5 C2_5 1_555 1_555
C4_5 C3_5 1_555 1_555
H2_5 C4_5 1_555 1_555
C5_5 C4_5 1_555 1_555
C6_5 C1_5 1_555 1_555
H3_5 C6_5 1_555 1_555
C7_5 C1_5 1_555 1_555
C8_5 C3_5 1_555 1_555
C9_5 C5_5 1_555 1_555
Zn7_3 O5_3 1_555 1_555
Mo2_5 O9_5 1_555 1_555
Mo3_5 O16_5 1_555 1_555
Mo4_5 O20_5 1_555 1_555
Mo11_5 O37_5 1_555 1_555
Mo11_5 O41_5 1_555 1_555
Mo12_5 O16_5 1_555 1_555
Mo12_5 O18_5 1_555 1_555
Mo12_5 O44_5 1_555 1_555
Mo12_5 O45_5 1_555 1_555
Zn5 O20_5 1_555 1_555
Zn6_4 O40_5 1_555 1_555
Zn6_4 O45_5 1_555 1_555
Zn4_5 O9_5 1_555 1_555
Zn4_5 O32_5 1_555 1_555
Zn4_5 O44_5 1_555 1_555
P1_5 O16_5 1_555 1_555
P1_5 O37_5 1_555 1_555
C5_5 C6_5 1_555 1_555
Mo1_6 O7_6 1_555 1_555
Mo2_6 O8_6 1_555 1_555
Mo3_6 O14_6 1_555 1_555
Mo4_6 O19_6 1_555 1_555
Mo5_6 O22_6 1_555 1_555
Mo6_6 O49_2 1_555 1_555
Mo7_6 O11_6 1_555 1_555
Mo8_6 O32_6 1_555 1_555
Mo9_6 O35_6 1_555 1_555
Mo10_6 O23_6 1_555 1_555
Mo11_6 O36_6 1_555 1_555
Mo12_6 O15_6 1_555 1_555
Zn5_2 O8_6 1_555 1_555
Zn6_3 O19_6 1_555 1_555
Zn7_3 O27_6 1_555 1_555
Zn4_6 O1_6 1_555 1_555
P1_6 O12_6 1_555 1_555
O1_6 C7_6 1_555 1_555
O2_6 C7_6 1_555 1_555
O47_3 C8_6 1_555 1_555
O4_6 C8_6 1_555 1_555
O48_3 C9_6 1_555 1_555
O6_6 C9_6 1_555 1_555
O8_6 Mo1_6 1_555 1_555
O9_6 Mo1_6 1_555 1_555
O49_2 Mo1_6 1_555 1_555
O11_6 Mo1_6 1_555 1_555
O12_6 Mo1_6 1_555 1_555
O13_6 Mo2_6 1_555 1_555
O14_6 Mo2_6 1_555 1_555
O15_6 Mo2_6 1_555 1_555
O16_6 Mo2_6 1_555 1_555
O17_6 Mo3_6 1_555 1_555
O18_6 Mo3_6 1_555 1_555
O19_6 Mo3_6 1_555 1_555
O20_6 Mo3_6 1_555 1_555
O21_6 Mo4_6 1_555 1_555
O22_6 Mo4_6 1_555 1_555
O23_6 Mo4_6 1_555 1_555
O24_6 Mo4_6 1_555 1_555
O25_6 Mo5_6 1_555 1_555
O26_6 Mo5_6 1_555 1_555
O27_6 Mo5_6 1_555 1_555
O28_6 Mo5_6 1_555 1_555
O29_6 Mo6_6 1_555 1_555
O30_6 Mo6_6 1_555 1_555
O31_6 Mo7_6 1_555 1_555
O32_6 Mo7_6 1_555 1_555
O33_6 Mo7_6 1_555 1_555
O34_6 Mo8_6 1_555 1_555
O35_6 Mo8_6 1_555 1_555
O36_6 Mo8_6 1_555 1_555
O37_6 Mo8_6 1_555 1_555
O38_6 Mo9_6 1_555 1_555
O39_6 Mo9_6 1_555 1_555
O40_6 Mo9_6 1_555 1_555
O41_6 Mo9_6 1_555 1_555
O42_6 Mo10_6 1_555 1_555
O43_6 Mo11_6 1_555 1_555
O44_6 Mo11_6 1_555 1_555
O45_6 Mo11_6 1_555 1_555
O46_6 Mo12_6 1_555 1_555
C1_6 C2_6 1_555 1_555
C2_6 H1_6 1_555 1_555
C3_6 C2_6 1_555 1_555
C4_6 C3_6 1_555 1_555
H2_6 C4_6 1_555 1_555
C5_6 C4_6 1_555 1_555
C6_6 C1_6 1_555 1_555
H3_6 C6_6 1_555 1_555
C7_6 C1_6 1_555 1_555
C8_6 C3_6 1_555 1_555
C9_6 C5_6 1_555 1_555
Mo2_6 O9_6 1_555 1_555
Mo3_6 O16_6 1_555 1_555
Mo4_6 O20_6 1_555 1_555
Mo5_6 O24_6 1_555 1_555
Mo6_6 O12_6 1_555 1_555
Mo6_6 O26_6 1_555 1_555
Mo6_6 O27_6 1_555 1_555
Mo7_6 O12_6 1_555 1_555
Mo7_6 O30_6 1_555 1_555
Mo8_6 O33_6 1_555 1_555
Mo9_6 O37_6 1_555 1_555
Mo10_6 O24_6 1_555 1_555
Mo10_6 O28_6 1_555 1_555
Mo10_6 O39_6 1_555 1_555
Mo10_6 O40_6 1_555 1_555
Mo11_6 O37_6 1_555 1_555
Mo11_6 O41_6 1_555 1_555
Mo12_6 O16_6 1_555 1_555
Mo12_6 O18_6 1_555 1_555
Mo12_6 O44_6 1_555 1_555
Mo12_6 O45_6 1_555 1_555
Zn5_2 O20_6 1_555 1_555
Zn5_2 O26_6 1_555 1_555
Zn6_3 O40_6 1_555 1_555
Zn6_3 O45_6 1_555 1_555
Zn7_3 O33_6 1_555 1_555
Zn7_3 O39_6 1_555 1_555
Zn4_6 O9_6 1_555 1_555
Zn4_6 O32_6 1_555 1_555
Zn4_6 O44_6 1_555 1_555
P1_6 O16_6 1_555 1_555
P1_6 O24_6 1_555 1_555
P1_6 O37_6 1_555 1_555
C5_6 C6_6 1_555 1_555
Mo1_7 O7_7 1_555 1_555
Mo7_7 O11_7 1_555 1_555
O1_7 C7_7 1_555 1_555
O2_7 C7_7 1_555 1_555
O47_2 C8_7 1_555 1_555
O4_7 C8_7 1_555 1_555
O5_4 C9_7 1_555 1_555
O6_7 C9_7 1_555 1_555
O9_7 Mo1_7 1_555 1_555
O49_3 Mo1_7 1_555 1_555
O11_7 Mo1_7 1_555 1_555
O31_7 Mo7_7 1_555 1_555
C1_7 C2_7 1_555 1_555
C2_7 H1_7 1_555 1_555
C3_7 C2_7 1_555 1_555
C4_7 C3_7 1_555 1_555
H2_7 C4_7 1_555 1_555
C5_7 C4_7 1_555 1_555
C6_7 C1_7 1_555 1_555
H3_7 C6_7 1_555 1_555
C7_7 C1_7 1_555 1_555
C8_7 C3_7 1_555 1_555
C9_7 C5_7 1_555 1_555
Zn7_4 O5_4 1_555 1_555
Mo7_7 O30_7 1_555 1_555
C5_7 C6_7 1_555 1_555
Mo2_7 O8_7 1_555 1_555
Mo3_7 O14_7 1_555 1_555
Mo4_7 O19_7 1_555 1_555
Mo5_7 O22_7 1_555 1_555
Mo8_7 O32_7 1_555 1_555
Mo9_7 O35_7 1_555 1_555
Mo10_7 O23_7 1_555 1_555
Mo11_7 O36_7 1_555 1_555
Mo12_7 O15_7 1_555 1_555
Zn5_3 O8_7 1_555 1_555
Zn6_2 O19_7 1_555 1_555
Zn3_4 O27_7 1_555 1_555
P1_7 O12_7 1_555 1_555
O14_7 Mo2_7 1_555 1_555
O15_7 Mo2_7 1_555 1_555
O16_7 Mo2_7 1_555 1_555
O17_7 Mo3_7 1_555 1_555
O18_7 Mo3_7 1_555 1_555
O19_7 Mo3_7 1_555 1_555
O20_7 Mo3_7 1_555 1_555
O22_7 Mo4_7 1_555 1_555
O23_7 Mo4_7 1_555 1_555
O24_7 Mo4_7 1_555 1_555
O25_7 Mo5_7 1_555 1_555
O26_7 Mo5_7 1_555 1_555
O27_7 Mo5_7 1_555 1_555
O28_7 Mo5_7 1_555 1_555
O34_7 Mo8_7 1_555 1_555
O35_7 Mo8_7 1_555 1_555
O36_7 Mo8_7 1_555 1_555
O37_7 Mo8_7 1_555 1_555
O38_7 Mo9_7 1_555 1_555
O39_7 Mo9_7 1_555 1_555
O40_7 Mo9_7 1_555 1_555
O41_7 Mo9_7 1_555 1_555
O42_7 Mo10_7 1_555 1_555
O43_7 Mo11_7 1_555 1_555
O44_7 Mo11_7 1_555 1_555
O45_7 Mo11_7 1_555 1_555
O46_7 Mo12_7 1_555 1_555
O48_4 Zn3_4 1_555 1_555
Mo3_7 O16_7 1_555 1_555
Mo4_7 O20_7 1_555 1_555
Mo5_7 O24_7 1_555 1_555
Mo6_7 O12_7 1_555 1_555
Mo6_7 O26_7 1_555 1_555
Mo6_7 O27_7 1_555 1_555
Mo8_7 O33_7 1_555 1_555
Mo9_7 O37_7 1_555 1_555
Mo10_7 O24_7 1_555 1_555
Mo10_7 O28_7 1_555 1_555
Mo10_7 O39_7 1_555 1_555
Mo10_7 O40_7 1_555 1_555
Mo11_7 O37_7 1_555 1_555
Mo11_7 O41_7 1_555 1_555
Mo12_7 O16_7 1_555 1_555
Mo12_7 O18_7 1_555 1_555
Mo12_7 O44_7 1_555 1_555
Mo12_7 O45_7 1_555 1_555
Zn5_3 O20_7 1_555 1_555
Zn5_3 O26_7 1_555 1_555
Zn6_2 O40_7 1_555 1_555
Zn6_2 O45_7 1_555 1_555
Zn3_4 O33_7 1_555 1_555
Zn3_4 O39_7 1_555 1_555
Zn4_7 O32_7 1_555 1_555
Zn4_7 O44_7 1_555 1_555
P1_7 O16_7 1_555 1_555
P1_7 O24_7 1_555 1_555
P1_7 O37_7 1_555 1_555
Mo2_8 O8_8 1_555 1_555
Mo3_8 O14_8 1_555 1_555
Mo4_8 O19_8 1_555 1_555
Mo11_8 O36_8 1_555 1_555
Mo12_8 O15_8 1_555 1_555
Zn5_4 O8_8 1_555 1_555
Zn6 O19_8 1_555 1_555
O14_8 Mo2_8 1_555 1_555
O15_8 Mo2_8 1_555 1_555
O16_8 Mo2_8 1_555 1_555
O17_8 Mo3_8 1_555 1_555
O18_8 Mo3_8 1_555 1_555
O19_8 Mo3_8 1_555 1_555
O20_8 Mo3_8 1_555 1_555
O21_8 Mo4_8 1_555 1_555
O43_8 Mo11_8 1_555 1_555
O44_8 Mo11_8 1_555 1_555
O45_8 Mo11_8 1_555 1_555
O46_8 Mo12_8 1_555 1_555
Mo3_8 O16_8 1_555 1_555
Mo4_8 O20_8 1_555 1_555
Mo11_8 O37_8 1_555 1_555
Mo11_8 O41_8 1_555 1_555
Mo12_8 O16_8 1_555 1_555
Mo12_8 O18_8 1_555 1_555
Mo12_8 O44_8 1_555 1_555
Mo12_8 O45_8 1_555 1_555
Zn5_4 O20_8 1_555 1_555
Zn6 O40_8 1_555 1_555
Zn6 O45_8 1_555 1_555
Zn4_8 O32_8 1_555 1_555
Zn4_8 O44_8 1_555 1_555
P1_8 O16_8 1_555 1_555
P1_8 O37_8 1_555 1_555
Mo5_8 O22_8 1_555 1_555
Mo9_8 O35_8 1_555 1_555
Mo10_8 O23_8 1_555 1_555
Zn7_4 O27_8 1_555 1_555
O25_8 Mo5_8 1_555 1_555
O26_8 Mo5_8 1_555 1_555
O27_8 Mo5_8 1_555 1_555
O28_8 Mo5_8 1_555 1_555
O34_8 Mo8_8 1_555 1_555
O35_8 Mo8_8 1_555 1_555
O38_8 Mo9_8 1_555 1_555
O39_8 Mo9_8 1_555 1_555
O42_8 Mo10_8 1_555 1_555
Mo5_8 O24_8 1_555 1_555
Mo6_8 O12_8 1_555 1_555
Mo6_8 O26_8 1_555 1_555
Mo6_8 O27_8 1_555 1_555
Mo8_8 O33_8 1_555 1_555
Mo10_8 O24_8 1_555 1_555
Mo10_8 O28_8 1_555 1_555
Mo10_8 O39_8 1_555 1_555
Zn7_4 O33_8 1_555 1_555
Zn7_4 O39_8 1_555 1_555
Mo1_8 O7_8 1_555 1_555
O1_8 C7_8 1_555 1_555
O2_8 C7_8 1_555 1_555
O47 C8_8 1_555 1_555
O4_8 C8_8 1_555 1_555
O48_4 C9_8 1_555 1_555
O6_8 C9_8 1_555 1_555
O9_8 Mo1_8 1_555 1_555
C1_8 C2_8 1_555 1_555
C2_8 H1_8 1_555 1_555
C3_8 C2_8 1_555 1_555
C4_8 C3_8 1_555 1_555
H2_8 C4_8 1_555 1_555
C5_8 C4_8 1_555 1_555
C6_8 C1_8 1_555 1_555
H3_8 C6_8 1_555 1_555
C7_8 C1_8 1_555 1_555
C8_8 C3_8 1_555 1_555
C9_8 C5_8 1_555 1_555
C5_8 C6_8 1_555 1_555
Mo7_8 O11_8 1_555 1_555
O31_8 Mo7_8 1_555 1_555
Mo7_8 O30_8 1_555 1_555
H10 C18 1_555 1_555
C19 C18 1_555 1_555
H11 C19 1_555 1_555
C20 C19 1_555 1_555
H12 C20 1_555 1_555
P2 C10 1_555 1_555
C10 C11 1_555 1_555
C11 H4 1_555 1_555
C12 C11 1_555 1_555
H5 C12 1_555 1_555
C13 C12 1_555 1_555
H6 C13 1_555 1_555
C14 C13 1_555 1_555
H7 C14 1_555 1_555
C15 C10 1_555 1_555
H8 C15 1_555 1_555
C16 P2 1_555 1_555
C17 C16 1_555 1_555
H9 C17 1_555 1_555
C21 C16 1_555 1_555
H13 C21 1_555 1_555
C22 P2 1_555 1_555
C23 C22 1_555 1_555
H14 C23 1_555 1_555
C24 C23 1_555 1_555
H15 C24 1_555 1_555
C25 C24 1_555 1_555
H16 C25 1_555 1_555
C26 C25 1_555 1_555
H17 C26 1_555 1_555
C27 C22 1_555 1_555
H18 C27 1_555 1_555
C28 P2 1_555 1_555
C29 C28 1_555 1_555
H19 C29 1_555 1_555
C30 C29 1_555 1_555
H20 C30 1_555 1_555
C31 C30 1_555 1_555
H21 C31 1_555 1_555
C32 C31 1_555 1_555
H22 C32 1_555 1_555
C33 C28 1_555 1_555
H23 C33 1_555 1_555
C14 C15 1_555 1_555
C26 C27 1_555 1_555
C32 C33 1_555 1_555
P2_2 C10_2 1_555 1_555
C10_2 C11_2 1_555 1_555
C11_2 H4_2 1_555 1_555
C12_2 C11_2 1_555 1_555
H5_2 C12_2 1_555 1_555
C13_2 C12_2 1_555 1_555
H6_2 C13_2 1_555 1_555
C14_2 C13_2 1_555 1_555
H7_2 C14_2 1_555 1_555
C15_2 C10_2 1_555 1_555
H8_2 C15_2 1_555 1_555
C16_2 P2_2 1_555 1_555
C17_2 C16_2 1_555 1_555
H9_2 C17_2 1_555 1_555
C18_2 C17_2 1_555 1_555
H10_2 C18_2 1_555 1_555
C19_2 C18_2 1_555 1_555
H11_2 C19_2 1_555 1_555
C20_2 C19_2 1_555 1_555
H12_2 C20_2 1_555 1_555
C21_2 C16_2 1_555 1_555
H13_2 C21_2 1_555 1_555
C22_2 P2_2 1_555 1_555
C23_2 C22_2 1_555 1_555
H14_2 C23_2 1_555 1_555
C24_2 C23_2 1_555 1_555
H15_2 C24_2 1_555 1_555
C25_2 C24_2 1_555 1_555
H16_2 C25_2 1_555 1_555
C26_2 C25_2 1_555 1_555
H17_2 C26_2 1_555 1_555
C27_2 C22_2 1_555 1_555
H18_2 C27_2 1_555 1_555
C28_2 P2_2 1_555 1_555
C29_2 C28_2 1_555 1_555
H19_2 C29_2 1_555 1_555
C30_2 C29_2 1_555 1_555
H20_2 C30_2 1_555 1_555
C31_2 C30_2 1_555 1_555
H21_2 C31_2 1_555 1_555
C32_2 C31_2 1_555 1_555
H22_2 C32_2 1_555 1_555
C33_2 C28_2 1_555 1_555
H23_2 C33_2 1_555 1_555
C14_2 C15_2 1_555 1_555
C20_2 C21_2 1_555 1_555
C26_2 C27_2 1_555 1_555
C32_2 C33_2 1_555 1_555
H20_3 C30_3 1_555 1_555
C31_3 C30_3 1_555 1_555
H21_3 C31_3 1_555 1_555
C32_3 C31_3 1_555 1_555
H22_3 C32_3 1_555 1_555
P2_3 C10_3 1_555 1_555
C10_3 C11_3 1_555 1_555
C11_3 H4_3 1_555 1_555
C12_3 C11_3 1_555 1_555
H5_3 C12_3 1_555 1_555
C13_3 C12_3 1_555 1_555
H6_3 C13_3 1_555 1_555
C14_3 C13_3 1_555 1_555
H7_3 C14_3 1_555 1_555
C15_3 C10_3 1_555 1_555
H8_3 C15_3 1_555 1_555
C16_3 P2_3 1_555 1_555
C17_3 C16_3 1_555 1_555
C21_3 C16_3 1_555 1_555
H13_3 C21_3 1_555 1_555
C22_3 P2_3 1_555 1_555
C23_3 C22_3 1_555 1_555
H14_3 C23_3 1_555 1_555
C24_3 C23_3 1_555 1_555
H15_3 C24_3 1_555 1_555
C25_3 C24_3 1_555 1_555
H16_3 C25_3 1_555 1_555
C26_3 C25_3 1_555 1_555
H17_3 C26_3 1_555 1_555
C27_3 C22_3 1_555 1_555
H18_3 C27_3 1_555 1_555
C28_3 P2_3 1_555 1_555
C29_3 C28_3 1_555 1_555
H19_3 C29_3 1_555 1_555
C33_3 C28_3 1_555 1_555
H23_3 C33_3 1_555 1_555
C14_3 C15_3 1_555 1_555
C26_3 C27_3 1_555 1_555
H10_3 C18_3 1_555 1_555
H11_3 C19_3 1_555 1_555
C20_3 C19_3 1_555 1_555
H12_3 C20_3 1_555 1_555
P2_4 C10_4 1_555 1_555
C10_4 C11_4 1_555 1_555
C11_4 H4_4 1_555 1_555
C12_4 C11_4 1_555 1_555
H5_4 C12_4 1_555 1_555
C13_4 C12_4 1_555 1_555
H6_4 C13_4 1_555 1_555
C14_4 C13_4 1_555 1_555
H7_4 C14_4 1_555 1_555
C15_4 C10_4 1_555 1_555
H8_4 C15_4 1_555 1_555
C16_4 P2_4 1_555 1_555
C17_4 C16_4 1_555 1_555
H11_4 C19_4 1_555 1_555
C20_4 C19_4 1_555 1_555
H12_4 C20_4 1_555 1_555
C21_4 C16_4 1_555 1_555
H13_4 C21_4 1_555 1_555
C22_4 P2_4 1_555 1_555
C23_4 C22_4 1_555 1_555
H14_4 C23_4 1_555 1_555
C24_4 C23_4 1_555 1_555
H15_4 C24_4 1_555 1_555
C25_4 C24_4 1_555 1_555
H16_4 C25_4 1_555 1_555
C26_4 C25_4 1_555 1_555
H17_4 C26_4 1_555 1_555
C27_4 C22_4 1_555 1_555
H18_4 C27_4 1_555 1_555
C28_4 P2_4 1_555 1_555
C29_4 C28_4 1_555 1_555
H19_4 C29_4 1_555 1_555
C33_4 C28_4 1_555 1_555
H23_4 C33_4 1_555 1_555
C14_4 C15_4 1_555 1_555
C20_4 C21_4 1_555 1_555
C26_4 C27_4 1_555 1_555
H10_4 C18_4 1_555 1_555
H20_4 C30_4 1_555 1_555
C31_4 C30_4 1_555 1_555
H21_4 C31_4 1_555 1_555
C32_4 C31_4 1_555 1_555
H22_4 C32_4 1_555 1_555
P2_5 C10_5 1_555 1_555
C10_5 C11_5 1_555 1_555
C11_5 H4_5 1_555 1_555
C12_5 C11_5 1_555 1_555
H5_5 C12_5 1_555 1_555
C13_5 C12_5 1_555 1_555
H6_5 C13_5 1_555 1_555
C14_5 C13_5 1_555 1_555
H7_5 C14_5 1_555 1_555
C15_5 C10_5 1_555 1_555
H8_5 C15_5 1_555 1_555
C16_5 P2_5 1_555 1_555
C17_5 C16_5 1_555 1_555
H9_5 C17_5 1_555 1_555
C21_5 C16_5 1_555 1_555
H13_5 C21_5 1_555 1_555
C22_5 P2_5 1_555 1_555
C23_5 C22_5 1_555 1_555
H14_5 C23_5 1_555 1_555
C24_5 C23_5 1_555 1_555
H15_5 C24_5 1_555 1_555
C25_5 C24_5 1_555 1_555
H16_5 C25_5 1_555 1_555
C26_5 C25_5 1_555 1_555
H17_5 C26_5 1_555 1_555
C27_5 C22_5 1_555 1_555
H18_5 C27_5 1_555 1_555
C28_5 P2_5 1_555 1_555
C29_5 C28_5 1_555 1_555
H19_5 C29_5 1_555 1_555
C30_5 C29_5 1_555 1_555
H20_5 C30_5 1_555 1_555
C31_5 C30_5 1_555 1_555
H21_5 C31_5 1_555 1_555
C32_5 C31_5 1_555 1_555
H22_5 C32_5 1_555 1_555
C33_5 C28_5 1_555 1_555
H23_5 C33_5 1_555 1_555
C14_5 C15_5 1_555 1_555
C26_5 C27_5 1_555 1_555
C32_5 C33_5 1_555 1_555
H10_5 C18_5 1_555 1_555
C19_5 C18_5 1_555 1_555
H11_5 C19_5 1_555 1_555
C20_5 C19_5 1_555 1_555
H12_5 C20_5 1_555 1_555
P2_6 C10_6 1_555 1_555
C10_6 C11_6 1_555 1_555
C11_6 H4_6 1_555 1_555
C12_6 C11_6 1_555 1_555
H5_6 C12_6 1_555 1_555
C13_6 C12_6 1_555 1_555
H6_6 C13_6 1_555 1_555
C14_6 C13_6 1_555 1_555
H7_6 C14_6 1_555 1_555
C15_6 C10_6 1_555 1_555
H8_6 C15_6 1_555 1_555
C16_6 P2_6 1_555 1_555
C17_6 C16_6 1_555 1_555
H9_6 C17_6 1_555 1_555
C18_6 C17_6 1_555 1_555
H10_6 C18_6 1_555 1_555
C19_6 C18_6 1_555 1_555
H11_6 C19_6 1_555 1_555
C20_6 C19_6 1_555 1_555
H12_6 C20_6 1_555 1_555
C21_6 C16_6 1_555 1_555
H13_6 C21_6 1_555 1_555
C22_6 P2_6 1_555 1_555
C23_6 C22_6 1_555 1_555
H14_6 C23_6 1_555 1_555
C24_6 C23_6 1_555 1_555
H15_6 C24_6 1_555 1_555
C25_6 C24_6 1_555 1_555
H16_6 C25_6 1_555 1_555
C26_6 C25_6 1_555 1_555
H17_6 C26_6 1_555 1_555
C27_6 C22_6 1_555 1_555
H18_6 C27_6 1_555 1_555
C28_6 P2_6 1_555 1_555
C29_6 C28_6 1_555 1_555
H19_6 C29_6 1_555 1_555
C30_6 C29_6 1_555 1_555
H20_6 C30_6 1_555 1_555
C31_6 C30_6 1_555 1_555
H21_6 C31_6 1_555 1_555
C32_6 C31_6 1_555 1_555
H22_6 C32_6 1_555 1_555
C33_6 C28_6 1_555 1_555
H23_6 C33_6 1_555 1_555
C14_6 C15_6 1_555 1_555
C20_6 C21_6 1_555 1_555
C26_6 C27_6 1_555 1_555
C32_6 C33_6 1_555 1_555
H11_7 C19_7 1_555 1_555
C20_7 C19_7 1_555 1_555
H12_7 C20_7 1_555 1_555
H10_7 C18_7 1_555 1_555
P2_7 C10_7 1_555 1_555
C10_7 C11_7 1_555 1_555
C11_7 H4_7 1_555 1_555
C12_7 C11_7 1_555 1_555
H5_7 C12_7 1_555 1_555
C13_7 C12_7 1_555 1_555
H6_7 C13_7 1_555 1_555
C14_7 C13_7 1_555 1_555
H7_7 C14_7 1_555 1_555
C15_7 C10_7 1_555 1_555
H8_7 C15_7 1_555 1_555
C16_7 P2_7 1_555 1_555
C17_7 C16_7 1_555 1_555
C21_7 C16_7 1_555 1_555
H13_7 C21_7 1_555 1_555
C22_7 P2_7 1_555 1_555
C23_7 C22_7 1_555 1_555
H14_7 C23_7 1_555 1_555
C24_7 C23_7 1_555 1_555
H15_7 C24_7 1_555 1_555
C25_7 C24_7 1_555 1_555
H16_7 C25_7 1_555 1_555
C26_7 C25_7 1_555 1_555
H17_7 C26_7 1_555 1_555
C27_7 C22_7 1_555 1_555
H18_7 C27_7 1_555 1_555
C28_7 P2_7 1_555 1_555
C29_7 C28_7 1_555 1_555
H19_7 C29_7 1_555 1_555
C33_7 C28_7 1_555 1_555
H23_7 C33_7 1_555 1_555
C14_7 C15_7 1_555 1_555
C26_7 C27_7 1_555 1_555
H20_7 C30_7 1_555 1_555
C31_7 C30_7 1_555 1_555
H21_7 C31_7 1_555 1_555
C32_7 C31_7 1_555 1_555
H22_7 C32_7 1_555 1_555
H10_8 C18_8 1_555 1_555
H20_8 C30_8 1_555 1_555
C31_8 C30_8 1_555 1_555
H21_8 C31_8 1_555 1_555
C32_8 C31_8 1_555 1_555
H22_8 C32_8 1_555 1_555
P2_8 C10_8 1_555 1_555
C10_8 C11_8 1_555 1_555
C11_8 H4_8 1_555 1_555
C12_8 C11_8 1_555 1_555
H5_8 C12_8 1_555 1_555
C13_8 C12_8 1_555 1_555
H6_8 C13_8 1_555 1_555
C14_8 C13_8 1_555 1_555
H7_8 C14_8 1_555 1_555
C15_8 C10_8 1_555 1_555
H8_8 C15_8 1_555 1_555
C16_8 P2_8 1_555 1_555
C17_8 C16_8 1_555 1_555
H11_8 C19_8 1_555 1_555
C20_8 C19_8 1_555 1_555
H12_8 C20_8 1_555 1_555
C21_8 C16_8 1_555 1_555
H13_8 C21_8 1_555 1_555
C22_8 P2_8 1_555 1_555
C23_8 C22_8 1_555 1_555
H14_8 C23_8 1_555 1_555
C24_8 C23_8 1_555 1_555
H15_8 C24_8 1_555 1_555
C25_8 C24_8 1_555 1_555
H16_8 C25_8 1_555 1_555
C26_8 C25_8 1_555 1_555
H17_8 C26_8 1_555 1_555
C27_8 C22_8 1_555 1_555
H18_8 C27_8 1_555 1_555
C28_8 P2_8 1_555 1_555
C29_8 C28_8 1_555 1_555
H19_8 C29_8 1_555 1_555
C33_8 C28_8 1_555 1_555
H23_8 C33_8 1_555 1_555
C14_8 C15_8 1_555 1_555
C20_8 C21_8 1_555 1_555
C26_8 C27_8 1_555 1_555
P3 C34 1_555 1_555
C34 C35 1_555 1_555
C35 H24 1_555 1_555
C36 C35 1_555 1_555
H25 C36 1_555 1_555
C37 C36 1_555 1_555
H26 C37 1_555 1_555
C38 C37 1_555 1_555
H27 C38 1_555 1_555
C39 C34 1_555 1_555
H28 C39 1_555 1_555
C40 P3 1_555 1_555
C41 C40 1_555 1_555
H29 C41 1_555 1_555
C42 C41 1_555 1_555
H30 C42 1_555 1_555
C43 C42 1_555 1_555
H31 C43 1_555 1_555
C44 C43 1_555 1_555
H32 C44 1_555 1_555
C45 C40 1_555 1_555
H33 C45 1_555 1_555
C46 P3 1_555 1_555
C47 C46 1_555 1_555
H34 C47 1_555 1_555
C48 C47 1_555 1_555
H35 C48 1_555 1_555
C49 C48 1_555 1_555
H36 C49 1_555 1_555
C50 C49 1_555 1_555
H37 C50 1_555 1_555
C51 C46 1_555 1_555
H38 C51 1_555 1_555
C52 P3 1_555 1_555
C53 C52 1_555 1_555
H39 C53 1_555 1_555
C54 C53 1_555 1_555
C55 C54 1_555 1_555
H40 C55 1_555 1_555
C56 C55 1_555 1_555
C57 C52 1_555 1_555
H42 C57 1_555 1_555
C38 C39 1_555 1_555
C44 C45 1_555 1_555
C50 C51 1_555 1_555
C56 C57 1_555 1_555
C54 H43 1_555 1_555
P3_2 C34_2 1_555 1_555
C34_2 C35_2 1_555 1_555
C35_2 H24_2 1_555 1_555
C36_2 C35_2 1_555 1_555
H25_2 C36_2 1_555 1_555
C37_2 C36_2 1_555 1_555
H26_2 C37_2 1_555 1_555
C38_2 C37_2 1_555 1_555
H27_2 C38_2 1_555 1_555
C39_2 C34_2 1_555 1_555
H28_2 C39_2 1_555 1_555
C40_2 P3_2 1_555 1_555
C41_2 C40_2 1_555 1_555
H29_2 C41_2 1_555 1_555
C42_2 C41_2 1_555 1_555
H30_2 C42_2 1_555 1_555
C43_2 C42_2 1_555 1_555
H31_2 C43_2 1_555 1_555
C44_2 C43_2 1_555 1_555
H32_2 C44_2 1_555 1_555
C45_2 C40_2 1_555 1_555
H33_2 C45_2 1_555 1_555
C46_2 P3_2 1_555 1_555
C47_2 C46_2 1_555 1_555
H34_2 C47_2 1_555 1_555
C48_2 C47_2 1_555 1_555
H35_2 C48_2 1_555 1_555
C49_2 C48_2 1_555 1_555
H36_2 C49_2 1_555 1_555
C50_2 C49_2 1_555 1_555
H37_2 C50_2 1_555 1_555
C51_2 C46_2 1_555 1_555
H38_2 C51_2 1_555 1_555
C52_2 P3_2 1_555 1_555
C53_2 C52_2 1_555 1_555
H39_2 C53_2 1_555 1_555
C54_2 C53_2 1_555 1_555
C55_2 C54_2 1_555 1_555
H40_2 C55_2 1_555 1_555
C56_2 C55_2 1_555 1_555
H41_2 C56_2 1_555 1_555
C57_2 C52_2 1_555 1_555
H42_2 C57_2 1_555 1_555
C38_2 C39_2 1_555 1_555
C44_2 C45_2 1_555 1_555
C50_2 C51_2 1_555 1_555
C56_2 C57_2 1_555 1_555
C54_2 H43_2 1_555 1_555
P3_3 C34_3 1_555 1_555
C34_3 C35_3 1_555 1_555
C35_3 H24_3 1_555 1_555
C36_3 C35_3 1_555 1_555
H25_3 C36_3 1_555 1_555
C37_3 C36_3 1_555 1_555
H26_3 C37_3 1_555 1_555
C38_3 C37_3 1_555 1_555
H27_3 C38_3 1_555 1_555
C39_3 C34_3 1_555 1_555
H28_3 C39_3 1_555 1_555
C40_3 P3_3 1_555 1_555
C41_3 C40_3 1_555 1_555
H29_3 C41_3 1_555 1_555
C42_3 C41_3 1_555 1_555
H30_3 C42_3 1_555 1_555
C43_3 C42_3 1_555 1_555
H31_3 C43_3 1_555 1_555
C44_3 C43_3 1_555 1_555
H32_3 C44_3 1_555 1_555
C45_3 C40_3 1_555 1_555
H33_3 C45_3 1_555 1_555
C46_3 P3_3 1_555 1_555
C47_3 C46_3 1_555 1_555
H34_3 C47_3 1_555 1_555
C48_3 C47_3 1_555 1_555
H35_3 C48_3 1_555 1_555
C49_3 C48_3 1_555 1_555
C50_3 C49_3 1_555 1_555
H37_3 C50_3 1_555 1_555
C51_3 C46_3 1_555 1_555
H38_3 C51_3 1_555 1_555
C52_3 P3_3 1_555 1_555
C53_3 C52_3 1_555 1_555
H39_3 C53_3 1_555 1_555
C54_3 C53_3 1_555 1_555
C55_3 C54_3 1_555 1_555
H40_3 C55_3 1_555 1_555
C56_3 C55_3 1_555 1_555
C57_3 C52_3 1_555 1_555
H42_3 C57_3 1_555 1_555
C38_3 C39_3 1_555 1_555
C44_3 C45_3 1_555 1_555
C50_3 C51_3 1_555 1_555
C56_3 C57_3 1_555 1_555
C54_3 H43_3 1_555 1_555
P3_4 C34_4 1_555 1_555
C34_4 C35_4 1_555 1_555
C35_4 H24_4 1_555 1_555
C36_4 C35_4 1_555 1_555
H25_4 C36_4 1_555 1_555
C37_4 C36_4 1_555 1_555
H26_4 C37_4 1_555 1_555
C38_4 C37_4 1_555 1_555
H27_4 C38_4 1_555 1_555
C39_4 C34_4 1_555 1_555
H28_4 C39_4 1_555 1_555
C40_4 P3_4 1_555 1_555
C41_4 C40_4 1_555 1_555
H29_4 C41_4 1_555 1_555
C42_4 C41_4 1_555 1_555
H30_4 C42_4 1_555 1_555
C43_4 C42_4 1_555 1_555
H31_4 C43_4 1_555 1_555
C44_4 C43_4 1_555 1_555
H32_4 C44_4 1_555 1_555
C45_4 C40_4 1_555 1_555
H33_4 C45_4 1_555 1_555
C46_4 P3_4 1_555 1_555
C47_4 C46_4 1_555 1_555
H34_4 C47_4 1_555 1_555
C48_4 C47_4 1_555 1_555
H35_4 C48_4 1_555 1_555
C49_4 C48_4 1_555 1_555
C50_4 C49_4 1_555 1_555
H37_4 C50_4 1_555 1_555
C51_4 C46_4 1_555 1_555
H38_4 C51_4 1_555 1_555
C52_4 P3_4 1_555 1_555
C53_4 C52_4 1_555 1_555
H39_4 C53_4 1_555 1_555
C54_4 C53_4 1_555 1_555
C55_4 C54_4 1_555 1_555
H40_4 C55_4 1_555 1_555
C56_4 C55_4 1_555 1_555
H41_4 C56_4 1_555 1_555
C57_4 C52_4 1_555 1_555
H42_4 C57_4 1_555 1_555
C38_4 C39_4 1_555 1_555
C44_4 C45_4 1_555 1_555
C50_4 C51_4 1_555 1_555
C56_4 C57_4 1_555 1_555
C54_4 H43_4 1_555 1_555
P3_5 C34_5 1_555 1_555
C34_5 C35_5 1_555 1_555
C35_5 H24_5 1_555 1_555
C36_5 C35_5 1_555 1_555
H25_5 C36_5 1_555 1_555
C37_5 C36_5 1_555 1_555
H26_5 C37_5 1_555 1_555
C38_5 C37_5 1_555 1_555
H27_5 C38_5 1_555 1_555
C39_5 C34_5 1_555 1_555
H28_5 C39_5 1_555 1_555
C40_5 P3_5 1_555 1_555
C41_5 C40_5 1_555 1_555
H29_5 C41_5 1_555 1_555
C42_5 C41_5 1_555 1_555
H30_5 C42_5 1_555 1_555
C43_5 C42_5 1_555 1_555
H31_5 C43_5 1_555 1_555
C44_5 C43_5 1_555 1_555
H32_5 C44_5 1_555 1_555
C45_5 C40_5 1_555 1_555
H33_5 C45_5 1_555 1_555
C46_5 P3_5 1_555 1_555
C47_5 C46_5 1_555 1_555
H34_5 C47_5 1_555 1_555
C48_5 C47_5 1_555 1_555
H35_5 C48_5 1_555 1_555
C49_5 C48_5 1_555 1_555
H36_5 C49_5 1_555 1_555
C50_5 C49_5 1_555 1_555
H37_5 C50_5 1_555 1_555
C51_5 C46_5 1_555 1_555
H38_5 C51_5 1_555 1_555
C52_5 P3_5 1_555 1_555
C53_5 C52_5 1_555 1_555
H39_5 C53_5 1_555 1_555
C54_5 C53_5 1_555 1_555
C55_5 C54_5 1_555 1_555
H40_5 C55_5 1_555 1_555
C56_5 C55_5 1_555 1_555
C57_5 C52_5 1_555 1_555
H42_5 C57_5 1_555 1_555
C38_5 C39_5 1_555 1_555
C44_5 C45_5 1_555 1_555
C50_5 C51_5 1_555 1_555
C56_5 C57_5 1_555 1_555
C54_5 H43_5 1_555 1_555
P3_6 C34_6 1_555 1_555
C34_6 C35_6 1_555 1_555
C35_6 H24_6 1_555 1_555
C36_6 C35_6 1_555 1_555
H25_6 C36_6 1_555 1_555
C37_6 C36_6 1_555 1_555
H26_6 C37_6 1_555 1_555
C38_6 C37_6 1_555 1_555
H27_6 C38_6 1_555 1_555
C39_6 C34_6 1_555 1_555
H28_6 C39_6 1_555 1_555
C40_6 P3_6 1_555 1_555
C41_6 C40_6 1_555 1_555
H29_6 C41_6 1_555 1_555
C42_6 C41_6 1_555 1_555
H30_6 C42_6 1_555 1_555
C43_6 C42_6 1_555 1_555
H31_6 C43_6 1_555 1_555
C44_6 C43_6 1_555 1_555
H32_6 C44_6 1_555 1_555
C45_6 C40_6 1_555 1_555
H33_6 C45_6 1_555 1_555
C46_6 P3_6 1_555 1_555
C47_6 C46_6 1_555 1_555
H34_6 C47_6 1_555 1_555
C48_6 C47_6 1_555 1_555
H35_6 C48_6 1_555 1_555
C49_6 C48_6 1_555 1_555
H36_6 C49_6 1_555 1_555
C50_6 C49_6 1_555 1_555
H37_6 C50_6 1_555 1_555
C51_6 C46_6 1_555 1_555
H38_6 C51_6 1_555 1_555
C52_6 P3_6 1_555 1_555
C53_6 C52_6 1_555 1_555
H39_6 C53_6 1_555 1_555
C54_6 C53_6 1_555 1_555
C55_6 C54_6 1_555 1_555
H40_6 C55_6 1_555 1_555
C56_6 C55_6 1_555 1_555
H41_6 C56_6 1_555 1_555
C57_6 C52_6 1_555 1_555
H42_6 C57_6 1_555 1_555
C38_6 C39_6 1_555 1_555
C44_6 C45_6 1_555 1_555
C50_6 C51_6 1_555 1_555
C56_6 C57_6 1_555 1_555
C54_6 H43_6 1_555 1_555
P3_7 C34_7 1_555 1_555
C34_7 C35_7 1_555 1_555
C35_7 H24_7 1_555 1_555
C36_7 C35_7 1_555 1_555
H25_7 C36_7 1_555 1_555
C37_7 C36_7 1_555 1_555
H26_7 C37_7 1_555 1_555
C38_7 C37_7 1_555 1_555
H27_7 C38_7 1_555 1_555
C39_7 C34_7 1_555 1_555
H28_7 C39_7 1_555 1_555
C40_7 P3_7 1_555 1_555
C41_7 C40_7 1_555 1_555
H29_7 C41_7 1_555 1_555
C42_7 C41_7 1_555 1_555
H30_7 C42_7 1_555 1_555
C43_7 C42_7 1_555 1_555
H31_7 C43_7 1_555 1_555
C44_7 C43_7 1_555 1_555
H32_7 C44_7 1_555 1_555
C45_7 C40_7 1_555 1_555
H33_7 C45_7 1_555 1_555
C46_7 P3_7 1_555 1_555
C47_7 C46_7 1_555 1_555
H34_7 C47_7 1_555 1_555
C48_7 C47_7 1_555 1_555
H35_7 C48_7 1_555 1_555
C49_7 C48_7 1_555 1_555
C50_7 C49_7 1_555 1_555
H37_7 C50_7 1_555 1_555
C51_7 C46_7 1_555 1_555
H38_7 C51_7 1_555 1_555
C52_7 P3_7 1_555 1_555
C53_7 C52_7 1_555 1_555
H39_7 C53_7 1_555 1_555
C54_7 C53_7 1_555 1_555
C55_7 C54_7 1_555 1_555
H40_7 C55_7 1_555 1_555
C56_7 C55_7 1_555 1_555
C57_7 C52_7 1_555 1_555
H42_7 C57_7 1_555 1_555
C38_7 C39_7 1_555 1_555
C44_7 C45_7 1_555 1_555
C50_7 C51_7 1_555 1_555
C56_7 C57_7 1_555 1_555
C54_7 H43_7 1_555 1_555
P3_8 C34_8 1_555 1_555
C34_8 C35_8 1_555 1_555
C35_8 H24_8 1_555 1_555
C36_8 C35_8 1_555 1_555
H25_8 C36_8 1_555 1_555
C37_8 C36_8 1_555 1_555
H26_8 C37_8 1_555 1_555
C38_8 C37_8 1_555 1_555
H27_8 C38_8 1_555 1_555
C39_8 C34_8 1_555 1_555
H28_8 C39_8 1_555 1_555
C40_8 P3_8 1_555 1_555
C41_8 C40_8 1_555 1_555
H29_8 C41_8 1_555 1_555
C42_8 C41_8 1_555 1_555
H30_8 C42_8 1_555 1_555
C43_8 C42_8 1_555 1_555
H31_8 C43_8 1_555 1_555
C44_8 C43_8 1_555 1_555
H32_8 C44_8 1_555 1_555
C45_8 C40_8 1_555 1_555
H33_8 C45_8 1_555 1_555
C46_8 P3_8 1_555 1_555
C47_8 C46_8 1_555 1_555
H34_8 C47_8 1_555 1_555
C48_8 C47_8 1_555 1_555
H35_8 C48_8 1_555 1_555
C49_8 C48_8 1_555 1_555
C50_8 C49_8 1_555 1_555
H37_8 C50_8 1_555 1_555
C51_8 C46_8 1_555 1_555
H38_8 C51_8 1_555 1_555
C52_8 P3_8 1_555 1_555
C53_8 C52_8 1_555 1_555
H39_8 C53_8 1_555 1_555
C54_8 C53_8 1_555 1_555
C55_8 C54_8 1_555 1_555
H40_8 C55_8 1_555 1_555
C56_8 C55_8 1_555 1_555
H41_8 C56_8 1_555 1_555
C57_8 C52_8 1_555 1_555
H42_8 C57_8 1_555 1_555
C38_8 C39_8 1_555 1_555
C44_8 C45_8 1_555 1_555
C50_8 C51_8 1_555 1_555
C56_8 C57_8 1_555 1_555
C54_8 H43_8 1_555 1_555

#END
