
###############################################################################
#
# This file contains modified crystal structure data generated from the
# MOF subset of the Cambridge Structural Database (CSD) v543 
# hosted by the Cambridge Crystallographic Data Centre (CCDC).
#
# This work is licensed under the Creative Commons
# Attribution-NonCommercial-ShareAlike 4.0 International License.
# To view a copy of this license, visit
# http://creativecommons.org/licenses/by-nc-sa/4.0/
# or send a letter to
# Creative Commons, PO Box 1866, Mountain View, CA 94042, USA.
#
# CIF created using the CSD Python API on 29 September 2022
# The structure has been converted into the P1 space group
# The structure has a 3D framework
# The original CSD entry XAPGAZ is in the orthorhombic crystal system
# The framework has been calculated to contain at least 10.0% void space
# The void calculation uses a probe of radius 1.32A, grid spacing 0.4
#
###############################################################################

data_XAPGAZ
_chemical_formula_moiety         '(C552 H408 Mo96 N96 O366 P8 Ru16 Zn32)n'
_symmetry_cell_setting           triclinic
_symmetry_space_group_name_H-M   'P 1'
_symmetry_Int_Tables_number      1
_space_group_name_Hall           'P 1'
loop_
_symmetry_equiv_pos_site_id
_symmetry_equiv_pos_as_xyz
1 x,y,z
_cell_length_a                   27.0584(5)
_cell_length_b                   27.2448(3)
_cell_length_c                   27.8802(5)
_cell_angle_alpha                90
_cell_angle_beta                 90
_cell_angle_gamma                90
_cell_volume                     20553.3
loop_
_atom_site_label
_atom_site_type_symbol
_atom_site_fract_x
_atom_site_fract_y
_atom_site_fract_z
O50 O 0.4680(3) 0.0593(2) 0.0358(3)
Zn5 Zn 0.53324(5) 0.00789(4) 0.94007(5)
O1 O 0.5615(3) 0.6848(3) 0.0256(3)
O2 O 0.6056(3) 0.8940(3) 0.0746(3)
O3 O 0.6836(3) 0.8111(3) 0.0916(3)
O4 O 0.9041(3) 0.7512(3) 0.0644(3)
O5 O 0.6864(3) 0.8606(3) 0.1548(3)
O6 O 0.3366(3) 0.9700(3) 0.1576(3)
O7 O 0.9034(3) 0.8161(3) 0.2335(3)
O8 O 0.8321(3) 0.7215(3) 0.0388(3)
C1 C 0.7055(5) 0.8311(4) 0.1276(4)
C2 C 0.8318(4) 0.7742(4) 0.1057(4)
C3 C 0.8566(5) 0.7466(4) 0.0668(4)
C4 C 0.7826(4) 0.8267(4) 0.1780(4)
C5 C 0.7577(4) 0.8137(4) 0.1347(4)
C6 C 0.8563(4) 0.7878(4) 0.1472(4)
H1 H 0.8902 0.7797 0.1509
C7 C 0.8320(4) 0.8132(4) 0.1839(4)
C8 C 0.7814(4) 0.7868(4) 0.1008(5)
H2 H 0.7637 0.7762 0.0732
C9 C 0.8563(5) 0.8284(4) 0.2305(4)
O9 O 0.8345(3) 0.8505(3) 0.2615(3)
H3 H 0.765(4) 0.851(4) 0.205(4)
Mo1 Mo 0.57909(4) 0.92850(3) 0.01875(4)
Mo2 Mo 0.57979(4) 0.95035(3) 0.10993(4)
Mo3 Mo 0.53328(4) 0.73221(3) 0.05283(4)
Mo4 Mo 0.53258(4) 0.76798(3) 0.17123(4)
Mo5 Mo 0.42280(4) 0.74146(3) 0.11191(4)
Mo8 Mo 0.35738(4) 0.81056(4) 0.09440(4)
Mo9 Mo 0.55284(4) 0.85825(3) 0.19835(4)
Mo10 Mo 0.38417(4) 0.90553(3) 0.00797(4)
Mo11 Mo 0.37466(4) 0.93161(4) 0.12743(4)
Mo12 Mo 0.47554(4) 0.95614(3) 0.17975(4)
Zn1 Zn 0.46676(5) 0.99211(4) 0.05993(5)
Zn3 Zn 0.42121(5) 0.83997(5) 0.20226(5)
Zn4 Zn 0.61357(5) 0.82307(5) 0.08666(5)
P1 P 0.48491(11) 0.85935(10) 0.08328(11)
O10 O 0.4419(3) 0.9489(3) 0.0086(3)
O11 O 0.4712(3) 0.7312(3) 0.1618(3)
O14 O 0.5098(3) 0.8714(2) 0.0339(3)
O15 O 0.4289(3) 0.8717(2) 0.0792(3)
O16 O 0.6008(3) 0.9106(3) 0.1698(3)
O18 O 0.3982(3) 0.7955(3) 0.1512(3)
O19 O 0.4926(3) 0.8193(3) 0.2013(3)
O20 O 0.3995(3) 0.7713(3) 0.0515(3)
O23 O 0.3401(3) 0.8487(3) 0.0326(3)
O24 O 0.4908(3) 0.8049(3) 0.0954(3)
O25 O 0.4195(3) 0.9079(3) 0.1790(3)
O26 O 0.5362(3) 0.9705(3) 0.0576(3)
O28 O 0.4375(3) 0.9715(3) 0.1203(3)
O29 O 0.4720(3) 0.7094(3) 0.0672(3)
O30 O 0.5804(3) 0.7867(2) 0.0364(3)
O31 O 0.5823(3) 0.8154(3) 0.1494(3)
O32 O 0.3617(3) 0.9455(3) 0.0644(3)
O33 O 0.5298(3) 0.9847(3) 0.1522(3)
O34 O 0.5088(3) 0.9141(3) 0.2189(3)
O35 O 0.5586(3) 0.7309(2) 0.1130(3)
O36 O 0.5844(3) 0.8486(3) 0.2489(3)
O37 O 0.3430(3) 0.8737(3) 0.1298(3)
O38 O 0.3049(3) 0.7790(3) 0.1018(3)
O39 O 0.5592(3) 0.7361(3) 0.2158(3)
O42 O 0.3840(3) 0.6942(3) 0.1220(3)
O43 O 0.5110(3) 0.8908(2) 0.1226(3)
O44 O 0.6263(3) 0.9907(3) 0.1105(3)
O45 O 0.4544(3) 0.9996(3) 0.2173(3)
O46 O 0.6256(3) 0.9641(3) 0.0006(3)
O48 O 0.4034(3) 0.8161(3) 0.2665(3)
O49 O 0.3345(3) 0.8505(3) 0.2385(3)
Zn6 Zn 0.93318(5) 0.71826(5) 0.00973(5)
Zn7 Zn 0.92121(5) 0.83997(5) 0.29774(5)
Mo6 Mo 0.46770(4) 0.90361(3) 0.96024(3)
Mo7 Mo 0.55608(4) 0.81383(3) 0.97370(4)
Zn2 Zn 0.43318(5) 0.78174(5) 0.99027(5)
O12 O 0.4208(3) 0.8520(3) 0.9775(3)
O13 O 0.5320(3) 0.9407(2) 0.9642(3)
O17 O 0.5973(3) 0.8665(3) 0.9835(3)
O21 O 0.5096(3) 0.8461(2) 0.9387(3)
O22 O 0.5035(3) 0.7676(3) 0.9963(3)
O27 O 0.4477(3) 0.9239(3) 0.9070(3)
O40 O 0.5874(3) 0.7790(3) 0.9340(3)
O41 O 0.3450(3) 0.9275(3) 0.9665(3)
O47 O 0.4041(3) 0.7488(3) 0.9356(3)
O6_2 O 0.1634(3) 0.0300(3) 0.6576(3)
Mo5_2 Mo 0.07720(4) 0.25854(3) 0.61191(4)
Mo6_2 Mo 0.03230(4) 0.09639(3) 0.46024(3)
Mo8_2 Mo 0.14262(4) 0.18944(4) 0.59440(4)
Mo10_2 Mo 0.11583(4) 0.09447(3) 0.50797(4)
Mo11_2 Mo 0.12534(4) 0.06839(4) 0.62743(4)
Mo12_2 Mo 0.02446(4) 0.04386(3) 0.67975(4)
Zn1_2 Zn 0.03324(5) 0.00789(4) 0.55993(5)
Zn2_2 Zn 0.06682(5) 0.21826(5) 0.49027(5)
Zn3_2 Zn 0.07879(5) 0.16003(5) 0.70226(5)
P1_2 P 0.01509(11) 0.14065(10) 0.58328(11)
O10_2 O 0.0581(3) 0.0511(3) 0.5086(3)
O11_2 O 0.0288(3) 0.2688(3) 0.6618(3)
O12_2 O 0.0792(3) 0.1480(3) 0.4775(3)
O15_2 O 0.0711(3) 0.1283(2) 0.5792(3)
O18_2 O 0.1018(3) 0.2045(3) 0.6512(3)
O19_2 O 0.0074(3) 0.1807(3) 0.7013(3)
O20_2 O 0.1005(3) 0.2287(3) 0.5515(3)
O23_2 O 0.1599(3) 0.1513(3) 0.5326(3)
O24_2 O 0.0092(3) 0.1951(3) 0.5954(3)
O25_2 O 0.0805(3) 0.0921(3) 0.6790(3)
O27_2 O 0.0523(3) 0.0761(3) 0.4070(3)
O28_2 O 0.0625(3) 0.0285(3) 0.6203(3)
O29_2 O 0.0280(3) 0.2906(3) 0.5672(3)
O32_2 O 0.1383(3) 0.0545(3) 0.5644(3)
O37_2 O 0.1570(3) 0.1263(3) 0.6298(3)
O38_2 O 0.1951(3) 0.2210(3) 0.6018(3)
O41_2 O 0.1550(3) 0.0725(3) 0.4665(3)
O42_2 O 0.1160(3) 0.3058(3) 0.6220(3)
O45_2 O 0.0456(3) 0.0004(3) 0.7173(3)
O47_2 O 0.0959(3) 0.2512(3) 0.4356(3)
O48_2 O 0.0966(3) 0.1839(3) 0.7665(3)
O49_2 O 0.1655(3) 0.1495(3) 0.7385(3)
O50_2 O 0.0320(3) 0.9407(2) 0.5358(3)
O1_2 O 0.9385(3) 0.3152(3) 0.5256(3)
O2_2 O 0.8944(3) 0.1060(3) 0.5746(3)
O3_2 O 0.8164(3) 0.1889(3) 0.5916(3)
O4_2 O 0.5959(3) 0.2488(3) 0.5644(3)
O5_2 O 0.8136(3) 0.1394(3) 0.6548(3)
O7_2 O 0.5966(3) 0.1839(3) 0.7335(3)
O8_2 O 0.6679(3) 0.2785(3) 0.5388(3)
C1_2 C 0.7945(5) 0.1689(4) 0.6276(4)
C2_2 C 0.6682(4) 0.2258(4) 0.6057(4)
C3_2 C 0.6434(5) 0.2534(4) 0.5668(4)
C4_2 C 0.7174(4) 0.1733(4) 0.6780(4)
C5_2 C 0.7423(4) 0.1863(4) 0.6347(4)
C6_2 C 0.6437(4) 0.2122(4) 0.6472(4)
H1_2 H 0.6098 0.2203 0.6509
C7_2 C 0.6680(4) 0.1868(4) 0.6839(4)
C8_2 C 0.7186(4) 0.2132(4) 0.6008(5)
H2_2 H 0.7363 0.2238 0.5732
C9_2 C 0.6437(5) 0.1716(4) 0.7305(4)
O9_2 O 0.6655(3) 0.1495(3) 0.7615(3)
H3_2 H 0.735(4) 0.149(4) 0.705(4)
Mo1_2 Mo 0.92091(4) 0.07150(3) 0.51875(4)
Mo2_2 Mo 0.92021(4) 0.04965(3) 0.60993(4)
Mo3_2 Mo 0.96672(4) 0.26779(3) 0.55283(4)
Mo4_2 Mo 0.96742(4) 0.23202(3) 0.67123(4)
Mo7_2 Mo 0.94392(4) 0.18617(3) 0.47370(4)
Mo9_2 Mo 0.94716(4) 0.14175(3) 0.69835(4)
Zn4_2 Zn 0.88643(5) 0.17693(5) 0.58666(5)
O13_2 O 0.9680(3) 0.0593(2) 0.4642(3)
O14_2 O 0.9902(3) 0.1286(2) 0.5339(3)
O16_2 O 0.8992(3) 0.0894(3) 0.6698(3)
O17_2 O 0.9027(3) 0.1335(3) 0.4835(3)
O21_2 O 0.9904(3) 0.1539(2) 0.4387(3)
O22_2 O 0.9965(3) 0.2324(3) 0.4963(3)
O26_2 O 0.9638(3) 0.0295(3) 0.5576(3)
O30_2 O 0.9196(3) 0.2133(2) 0.5364(3)
O31_2 O 0.9177(3) 0.1846(3) 0.6494(3)
O33_2 O 0.9702(3) 0.0153(3) 0.6522(3)
O34_2 O 0.9912(3) 0.0859(3) 0.7189(3)
O35_2 O 0.9414(3) 0.2691(2) 0.6130(3)
O36_2 O 0.9156(3) 0.1514(3) 0.7489(3)
O39_2 O 0.9408(3) 0.2639(3) 0.7158(3)
O40_2 O 0.9126(3) 0.2210(3) 0.4340(3)
O43_2 O 0.9890(3) 0.1092(2) 0.6226(3)
O44_2 O 0.8737(3) 0.0093(3) 0.6105(3)
O46_2 O 0.8744(3) 0.0359(3) 0.5006(3)
Zn6_2 Zn 0.56682(5) 0.28174(5) 0.50973(5)
Zn7_2 Zn 0.57879(5) 0.16003(5) 0.79774(5)
Zn5_2 Zn 0.96676(5) 0.99211(4) 0.44007(5)
Mo7_3 Mo 0.05608(4) 0.68617(3) 0.02630(4)
O13_3 O 0.0320(3) 0.5593(2) 0.0358(3)
O17_3 O 0.0973(3) 0.6335(3) 0.0165(3)
O21_3 O 0.0096(3) 0.6539(2) 0.0613(3)
O22_3 O 0.0035(3) 0.7324(3) 0.0037(3)
O40_3 O 0.0874(3) 0.7210(3) 0.0660(3)
Zn5_3 Zn 0.03324(5) 0.49211(4) 0.05993(5)
O1_3 O 0.0615(3) 0.8152(3) 0.9744(3)
O2_3 O 0.1056(3) 0.6060(3) 0.9254(3)
O3_3 O 0.1836(3) 0.6889(3) 0.9084(3)
O5_3 O 0.1864(3) 0.6394(3) 0.8452(3)
O7_3 O 0.4034(3) 0.6839(3) 0.7665(3)
O8_3 O 0.3321(3) 0.7785(3) 0.9612(3)
C1_3 C 0.2055(5) 0.6689(4) 0.8724(4)
C2_3 C 0.3318(4) 0.7258(4) 0.8943(4)
C3_3 C 0.3566(5) 0.7534(4) 0.9332(4)
C4_3 C 0.2826(4) 0.6733(4) 0.8220(4)
C5_3 C 0.2577(4) 0.6863(4) 0.8653(4)
C6_3 C 0.3563(4) 0.7122(4) 0.8528(4)
H1_3 H 0.3902 0.7203 0.8491
C7_3 C 0.3320(4) 0.6868(4) 0.8161(4)
C8_3 C 0.2814(4) 0.7132(4) 0.8992(5)
H2_3 H 0.2637 0.7238 0.9268
C9_3 C 0.3563(5) 0.6716(4) 0.7695(4)
O9_3 O 0.3345(3) 0.6495(3) 0.7385(3)
H3_3 H 0.265(4) 0.649(4) 0.795(4)
Mo1_3 Mo 0.07909(4) 0.57150(3) 0.98125(4)
Mo2_3 Mo 0.07979(4) 0.54965(3) 0.89007(4)
Mo3_3 Mo 0.03328(4) 0.76779(3) 0.94717(4)
Mo4_3 Mo 0.03258(4) 0.73202(3) 0.82877(4)
Mo9_3 Mo 0.05284(4) 0.64175(3) 0.80165(4)
Zn4_3 Zn 0.11357(5) 0.67693(5) 0.91334(5)
O14_3 O 0.0098(3) 0.6286(2) 0.9661(3)
O16_3 O 0.1008(3) 0.5894(3) 0.8302(3)
O26_3 O 0.0362(3) 0.5295(3) 0.9424(3)
O30_3 O 0.0804(3) 0.7133(2) 0.9636(3)
O31_3 O 0.0823(3) 0.6846(3) 0.8506(3)
O33_3 O 0.0298(3) 0.5153(3) 0.8478(3)
O34_3 O 0.0088(3) 0.5859(3) 0.7811(3)
O35_3 O 0.0586(3) 0.7691(2) 0.8870(3)
O36_3 O 0.0844(3) 0.6514(3) 0.7511(3)
O39_3 O 0.0592(3) 0.7639(3) 0.7842(3)
O43_3 O 0.0110(3) 0.6092(2) 0.8774(3)
O44_3 O 0.1263(3) 0.5093(3) 0.8895(3)
O46_3 O 0.1256(3) 0.5359(3) 0.9994(3)
Zn7_3 Zn 0.42121(5) 0.66003(5) 0.70226(5)
Mo6_3 Mo 0.96770(4) 0.59639(3) 0.03976(3)
O12_3 O 0.9208(3) 0.6480(3) 0.0225(3)
O27_3 O 0.9477(3) 0.5761(3) 0.0930(3)
O41_3 O 0.8450(3) 0.5725(3) 0.0335(3)
O6_3 O 0.8366(3) 0.5300(3) 0.8424(3)
Mo5_3 Mo 0.92280(4) 0.75854(3) 0.88809(4)
Mo8_3 Mo 0.85738(4) 0.68944(4) 0.90560(4)
Mo10_3 Mo 0.88417(4) 0.59447(3) 0.99203(4)
Mo11_3 Mo 0.87466(4) 0.56839(4) 0.87257(4)
Mo12_3 Mo 0.97554(4) 0.54386(3) 0.82025(4)
Zn1_3 Zn 0.96676(5) 0.50789(4) 0.94007(5)
Zn3_3 Zn 0.92121(5) 0.66003(5) 0.79774(5)
P1_3 P 0.98491(11) 0.64065(10) 0.91672(11)
O10_3 O 0.9419(3) 0.5511(3) 0.9914(3)
O11_3 O 0.9712(3) 0.7688(3) 0.8382(3)
O15_3 O 0.9289(3) 0.6283(2) 0.9208(3)
O18_3 O 0.8982(3) 0.7045(3) 0.8488(3)
O19_3 O 0.9926(3) 0.6807(3) 0.7987(3)
O20_3 O 0.8995(3) 0.7287(3) 0.9485(3)
O23_3 O 0.8401(3) 0.6513(3) 0.9674(3)
O24_3 O 0.9908(3) 0.6951(3) 0.9046(3)
O25_3 O 0.9195(3) 0.5921(3) 0.8210(3)
O28_3 O 0.9375(3) 0.5285(3) 0.8797(3)
O29_3 O 0.9720(3) 0.7906(3) 0.9328(3)
O32_3 O 0.8617(3) 0.5545(3) 0.9356(3)
O37_3 O 0.8430(3) 0.6263(3) 0.8702(3)
O38_3 O 0.8049(3) 0.7210(3) 0.8982(3)
O42_3 O 0.8840(3) 0.8058(3) 0.8780(3)
O45_3 O 0.9544(3) 0.5004(3) 0.7827(3)
O48_3 O 0.9034(3) 0.6839(3) 0.7335(3)
O49_3 O 0.8345(3) 0.6495(3) 0.7615(3)
O50_3 O 0.9680(3) 0.4407(2) 0.9642(3)
O1_4 O 0.4385(3) 0.1848(3) 0.4744(3)
O2_4 O 0.3944(3) 0.3940(3) 0.4254(3)
O3_4 O 0.3164(3) 0.3111(3) 0.4084(3)
O5_4 O 0.3136(3) 0.3606(3) 0.3452(3)
O6_4 O 0.6634(3) 0.4700(3) 0.3424(3)
O7_4 O 0.0966(3) 0.3161(3) 0.2665(3)
O8_4 O 0.1679(3) 0.2215(3) 0.4612(3)
C1_4 C 0.2945(5) 0.3311(4) 0.3724(4)
C2_4 C 0.1682(4) 0.2742(4) 0.3943(4)
C3_4 C 0.1434(5) 0.2466(4) 0.4332(4)
C4_4 C 0.2174(4) 0.3267(4) 0.3220(4)
C5_4 C 0.2423(4) 0.3137(4) 0.3653(4)
C6_4 C 0.1437(4) 0.2878(4) 0.3528(4)
H1_4 H 0.1098 0.2797 0.3491
C7_4 C 0.1680(4) 0.3132(4) 0.3161(4)
C8_4 C 0.2186(4) 0.2868(4) 0.3992(5)
H2_4 H 0.2363 0.2762 0.4268
C9_4 C 0.1437(5) 0.3284(4) 0.2695(4)
O9_4 O 0.1655(3) 0.3505(3) 0.2385(3)
H3_4 H 0.235(4) 0.351(4) 0.295(4)
Mo1_4 Mo 0.42091(4) 0.42850(3) 0.48125(4)
Mo2_4 Mo 0.42021(4) 0.45035(3) 0.39007(4)
Mo3_4 Mo 0.46672(4) 0.23221(3) 0.44717(4)
Mo4_4 Mo 0.46742(4) 0.26798(3) 0.32877(4)
Mo5_4 Mo 0.57720(4) 0.24146(3) 0.38809(4)
Mo6_4 Mo 0.53230(4) 0.40361(3) 0.53976(3)
Mo7_4 Mo 0.44392(4) 0.31383(3) 0.52630(4)
Mo8_4 Mo 0.64262(4) 0.31056(4) 0.40560(4)
Mo9_4 Mo 0.44716(4) 0.35825(3) 0.30165(4)
Mo10_4 Mo 0.61583(4) 0.40553(3) 0.49203(4)
Mo11_4 Mo 0.62534(4) 0.43161(4) 0.37257(4)
Mo12_4 Mo 0.52446(4) 0.45614(3) 0.32025(4)
Zn1_4 Zn 0.53324(5) 0.49211(4) 0.44007(5)
Zn3_4 Zn 0.57879(5) 0.33997(5) 0.29774(5)
Zn4_4 Zn 0.38643(5) 0.32307(5) 0.41334(5)
P1_4 P 0.51509(11) 0.35935(10) 0.41672(11)
O10_4 O 0.5581(3) 0.4489(3) 0.4914(3)
O11_4 O 0.5288(3) 0.2312(3) 0.3382(3)
O12_4 O 0.5792(3) 0.3520(3) 0.5225(3)
O13_4 O 0.4680(3) 0.4407(2) 0.5358(3)
O14_4 O 0.4902(3) 0.3714(2) 0.4661(3)
O15_4 O 0.5711(3) 0.3717(2) 0.4208(3)
O16_4 O 0.3992(3) 0.4106(3) 0.3302(3)
O17_4 O 0.4027(3) 0.3665(3) 0.5165(3)
O18_4 O 0.6018(3) 0.2955(3) 0.3488(3)
O19_4 O 0.5074(3) 0.3193(3) 0.2987(3)
O20_4 O 0.6005(3) 0.2713(3) 0.4485(3)
O21_4 O 0.4904(3) 0.3461(2) 0.5613(3)
O22_4 O 0.4965(3) 0.2676(3) 0.5037(3)
O23_4 O 0.6599(3) 0.3487(3) 0.4674(3)
O24_4 O 0.5092(3) 0.3049(3) 0.4046(3)
O25_4 O 0.5805(3) 0.4079(3) 0.3210(3)
O26_4 O 0.4638(3) 0.4705(3) 0.4424(3)
O27_4 O 0.5523(3) 0.4239(3) 0.5930(3)
O28_4 O 0.5625(3) 0.4715(3) 0.3797(3)
O29_4 O 0.5280(3) 0.2094(3) 0.4328(3)
O30_4 O 0.4196(3) 0.2867(2) 0.4636(3)
O31_4 O 0.4177(3) 0.3154(3) 0.3506(3)
O32_4 O 0.6383(3) 0.4455(3) 0.4356(3)
O33_4 O 0.4702(3) 0.4847(3) 0.3478(3)
O34_4 O 0.4912(3) 0.4141(3) 0.2811(3)
O35_4 O 0.4414(3) 0.2309(2) 0.3870(3)
O36_4 O 0.4156(3) 0.3486(3) 0.2511(3)
O37_4 O 0.6570(3) 0.3737(3) 0.3702(3)
O38_4 O 0.6951(3) 0.2790(3) 0.3982(3)
O39_4 O 0.4408(3) 0.2361(3) 0.2842(3)
O40_4 O 0.4126(3) 0.2790(3) 0.5660(3)
O41_4 O 0.6550(3) 0.4275(3) 0.5335(3)
O42_4 O 0.6160(3) 0.1942(3) 0.3780(3)
O43_4 O 0.4890(3) 0.3908(2) 0.3774(3)
O44_4 O 0.3737(3) 0.4907(3) 0.3895(3)
O45_4 O 0.5456(3) 0.4996(3) 0.2827(3)
O46_4 O 0.3744(3) 0.4641(3) 0.4994(3)
O48_4 O 0.5966(3) 0.3161(3) 0.2335(3)
O49_4 O 0.6655(3) 0.3505(3) 0.2615(3)
Zn5_4 Zn 0.46676(5) 0.50789(4) 0.55993(5)
Zn7_4 Zn 0.07879(5) 0.33997(5) 0.20226(5)
O50_4 O 0.5320(3) 0.5593(2) 0.4642(3)
Mo6_5 Mo 0.53230(4) 0.09639(3) 0.03976(3)
Mo7_5 Mo 0.44392(4) 0.18617(3) 0.02630(4)
Zn2_3 Zn 0.56682(5) 0.21826(5) 0.00973(5)
O12_5 O 0.5792(3) 0.1480(3) 0.0225(3)
O17_5 O 0.4027(3) 0.1335(3) 0.0165(3)
O21_5 O 0.4904(3) 0.1539(2) 0.0613(3)
O22_5 O 0.4965(3) 0.2324(3) 0.0037(3)
O27_5 O 0.5523(3) 0.0761(3) 0.0930(3)
O40_5 O 0.4126(3) 0.2210(3) 0.0660(3)
O41_5 O 0.6550(3) 0.0725(3) 0.0335(3)
O47_3 O 0.5959(3) 0.2512(3) 0.0644(3)
O1_5 O 0.4385(3) 0.3152(3) 0.9744(3)
O2_5 O 0.3944(3) 0.1060(3) 0.9254(3)
O3_5 O 0.3164(3) 0.1889(3) 0.9084(3)
O4_3 O 0.0959(3) 0.2488(3) 0.9356(3)
O5_5 O 0.3136(3) 0.1394(3) 0.8452(3)
O6_5 O 0.6634(3) 0.0300(3) 0.8424(3)
O8_5 O 0.1679(3) 0.2785(3) 0.9612(3)
C1_5 C 0.2945(5) 0.1689(4) 0.8724(4)
C2_5 C 0.1682(4) 0.2258(4) 0.8943(4)
C3_5 C 0.1434(5) 0.2534(4) 0.9332(4)
C4_5 C 0.2174(4) 0.1733(4) 0.8220(4)
C5_5 C 0.2423(4) 0.1863(4) 0.8653(4)
C6_5 C 0.1437(4) 0.2122(4) 0.8528(4)
H1_5 H 0.1098 0.2203 0.8491
C7_5 C 0.1680(4) 0.1868(4) 0.8161(4)
C8_5 C 0.2186(4) 0.2132(4) 0.8992(5)
H2_5 H 0.2363 0.2238 0.9268
C9_5 C 0.1437(5) 0.1716(4) 0.7695(4)
H3_5 H 0.235(4) 0.149(4) 0.795(4)
Mo1_5 Mo 0.42091(4) 0.07150(3) 0.98125(4)
Mo2_5 Mo 0.42021(4) 0.04965(3) 0.89007(4)
Mo3_5 Mo 0.46672(4) 0.26779(3) 0.94717(4)
Mo4_5 Mo 0.46742(4) 0.23202(3) 0.82877(4)
Mo5_5 Mo 0.57720(4) 0.25854(3) 0.88809(4)
Mo8_5 Mo 0.64262(4) 0.18944(4) 0.90560(4)
Mo9_5 Mo 0.44716(4) 0.14175(3) 0.80165(4)
Mo10_5 Mo 0.61583(4) 0.09447(3) 0.99203(4)
Mo11_5 Mo 0.62534(4) 0.06839(4) 0.87257(4)
Mo12_5 Mo 0.52446(4) 0.04386(3) 0.82025(4)
Zn4_5 Zn 0.38643(5) 0.17693(5) 0.91334(5)
P1_5 P 0.51509(11) 0.14065(10) 0.91672(11)
O10_5 O 0.5581(3) 0.0511(3) 0.9914(3)
O11_5 O 0.5288(3) 0.2688(3) 0.8382(3)
O14_5 O 0.4902(3) 0.1286(2) 0.9661(3)
O15_5 O 0.5711(3) 0.1283(2) 0.9208(3)
O16_5 O 0.3992(3) 0.0894(3) 0.8302(3)
O18_5 O 0.6018(3) 0.2045(3) 0.8488(3)
O19_5 O 0.5074(3) 0.1807(3) 0.7987(3)
O20_5 O 0.6005(3) 0.2287(3) 0.9485(3)
O23_5 O 0.6599(3) 0.1513(3) 0.9674(3)
O24_5 O 0.5092(3) 0.1951(3) 0.9046(3)
O25_5 O 0.5805(3) 0.0921(3) 0.8210(3)
O26_5 O 0.4638(3) 0.0295(3) 0.9424(3)
O28_5 O 0.5625(3) 0.0285(3) 0.8797(3)
O29_5 O 0.5280(3) 0.2906(3) 0.9328(3)
O30_5 O 0.4196(3) 0.2133(2) 0.9636(3)
O31_5 O 0.4177(3) 0.1846(3) 0.8506(3)
O32_5 O 0.6383(3) 0.0545(3) 0.9356(3)
O33_5 O 0.4702(3) 0.0153(3) 0.8478(3)
O34_5 O 0.4912(3) 0.0859(3) 0.7811(3)
O35_5 O 0.4414(3) 0.2691(2) 0.8870(3)
O36_5 O 0.4156(3) 0.1514(3) 0.7511(3)
O37_5 O 0.6570(3) 0.1263(3) 0.8702(3)
O38_5 O 0.6951(3) 0.2210(3) 0.8982(3)
O39_5 O 0.4408(3) 0.2639(3) 0.7842(3)
O42_5 O 0.6160(3) 0.3058(3) 0.8780(3)
O43_5 O 0.4890(3) 0.1092(2) 0.8774(3)
O44_5 O 0.3737(3) 0.0093(3) 0.8895(3)
O45_5 O 0.5456(3) 0.0004(3) 0.7827(3)
O46_5 O 0.3744(3) 0.0359(3) 0.9994(3)
Zn6_3 Zn 0.06682(5) 0.28174(5) 0.99027(5)
O1_6 O 0.0615(3) 0.6848(3) 0.4744(3)
O2_6 O 0.1056(3) 0.8940(3) 0.4254(3)
O3_6 O 0.1836(3) 0.8111(3) 0.4084(3)
O4_4 O 0.4041(3) 0.7512(3) 0.4356(3)
O5_6 O 0.1864(3) 0.8606(3) 0.3452(3)
O8_6 O 0.3321(3) 0.7215(3) 0.4612(3)
C1_6 C 0.2055(5) 0.8311(4) 0.3724(4)
C2_6 C 0.3318(4) 0.7742(4) 0.3943(4)
C3_6 C 0.3566(5) 0.7466(4) 0.4332(4)
C4_6 C 0.2826(4) 0.8267(4) 0.3220(4)
C5_6 C 0.2577(4) 0.8137(4) 0.3653(4)
C6_6 C 0.3563(4) 0.7878(4) 0.3528(4)
H1_6 H 0.3902 0.7797 0.3491
C7_6 C 0.3320(4) 0.8132(4) 0.3161(4)
C8_6 C 0.2814(4) 0.7868(4) 0.3992(5)
H2_6 H 0.2637 0.7762 0.4268
C9_6 C 0.3563(5) 0.8284(4) 0.2695(4)
H3_6 H 0.265(4) 0.851(4) 0.295(4)
Mo1_6 Mo 0.07909(4) 0.92850(3) 0.48125(4)
Mo2_6 Mo 0.07979(4) 0.95035(3) 0.39007(4)
Mo3_6 Mo 0.03328(4) 0.73221(3) 0.44717(4)
Mo4_6 Mo 0.03258(4) 0.76798(3) 0.32877(4)
Mo7_6 Mo 0.05608(4) 0.81383(3) 0.52630(4)
Mo9_6 Mo 0.05284(4) 0.85825(3) 0.30165(4)
Zn4_6 Zn 0.11357(5) 0.82307(5) 0.41334(5)
O14_6 O 0.0098(3) 0.8714(2) 0.4661(3)
O16_6 O 0.1008(3) 0.9106(3) 0.3302(3)
O17_6 O 0.0973(3) 0.8665(3) 0.5165(3)
O21_6 O 0.0096(3) 0.8461(2) 0.5613(3)
O22_6 O 0.0035(3) 0.7676(3) 0.5037(3)
O26_6 O 0.0362(3) 0.9705(3) 0.4424(3)
O30_6 O 0.0804(3) 0.7867(2) 0.4636(3)
O31_6 O 0.0823(3) 0.8154(3) 0.3506(3)
O33_6 O 0.0298(3) 0.9847(3) 0.3478(3)
O34_6 O 0.0088(3) 0.9141(3) 0.2811(3)
O35_6 O 0.0586(3) 0.7309(2) 0.3870(3)
O36_6 O 0.0844(3) 0.8486(3) 0.2511(3)
O39_6 O 0.0592(3) 0.7361(3) 0.2842(3)
O40_6 O 0.0874(3) 0.7790(3) 0.5660(3)
O43_6 O 0.0110(3) 0.8908(2) 0.3774(3)
O44_6 O 0.1263(3) 0.9907(3) 0.3895(3)
O46_6 O 0.1256(3) 0.9641(3) 0.4994(3)
Zn6_4 Zn 0.43318(5) 0.71826(5) 0.49027(5)
O6_6 O 0.8366(3) 0.9700(3) 0.3424(3)
Mo5_6 Mo 0.92280(4) 0.74146(3) 0.38809(4)
Mo6_6 Mo 0.96770(4) 0.90361(3) 0.53976(3)
Mo8_6 Mo 0.85738(4) 0.81056(4) 0.40560(4)
Mo10_6 Mo 0.88417(4) 0.90553(3) 0.49203(4)
Mo11_6 Mo 0.87466(4) 0.93161(4) 0.37257(4)
Mo12_6 Mo 0.97554(4) 0.95614(3) 0.32025(4)
Zn2_4 Zn 0.93318(5) 0.78174(5) 0.50973(5)
P1_6 P 0.98491(11) 0.85935(10) 0.41672(11)
O10_6 O 0.9419(3) 0.9489(3) 0.4914(3)
O11_6 O 0.9712(3) 0.7312(3) 0.3382(3)
O12_6 O 0.9208(3) 0.8520(3) 0.5225(3)
O15_6 O 0.9289(3) 0.8717(2) 0.4208(3)
O18_6 O 0.8982(3) 0.7955(3) 0.3488(3)
O19_6 O 0.9926(3) 0.8193(3) 0.2987(3)
O20_6 O 0.8995(3) 0.7713(3) 0.4485(3)
O23_6 O 0.8401(3) 0.8487(3) 0.4674(3)
O24_6 O 0.9908(3) 0.8049(3) 0.4046(3)
O25_6 O 0.9195(3) 0.9079(3) 0.3210(3)
O27_6 O 0.9477(3) 0.9239(3) 0.5930(3)
O28_6 O 0.9375(3) 0.9715(3) 0.3797(3)
O29_6 O 0.9720(3) 0.7094(3) 0.4328(3)
O32_6 O 0.8617(3) 0.9455(3) 0.4356(3)
O37_6 O 0.8430(3) 0.8737(3) 0.3702(3)
O38_6 O 0.8049(3) 0.7790(3) 0.3982(3)
O41_6 O 0.8450(3) 0.9275(3) 0.5335(3)
O42_6 O 0.8840(3) 0.6942(3) 0.3780(3)
O45_6 O 0.9544(3) 0.9996(3) 0.2827(3)
O47_4 O 0.9041(3) 0.7488(3) 0.5644(3)
O6_7 O 0.1634(3) 0.4700(3) 0.1576(3)
Mo5_7 Mo 0.07720(4) 0.24146(3) 0.11191(4)
Mo8_7 Mo 0.14262(4) 0.31056(4) 0.09440(4)
Mo10_7 Mo 0.11583(4) 0.40553(3) 0.00797(4)
Mo11_7 Mo 0.12534(4) 0.43161(4) 0.12743(4)
Mo12_7 Mo 0.02446(4) 0.45614(3) 0.17975(4)
P1_7 P 0.01509(11) 0.35935(10) 0.08328(11)
O10_7 O 0.0581(3) 0.4489(3) 0.0086(3)
O11_7 O 0.0288(3) 0.2312(3) 0.1618(3)
O15_7 O 0.0711(3) 0.3717(2) 0.0792(3)
O18_7 O 0.1018(3) 0.2955(3) 0.1512(3)
O19_7 O 0.0074(3) 0.3193(3) 0.2013(3)
O20_7 O 0.1005(3) 0.2713(3) 0.0515(3)
O23_7 O 0.1599(3) 0.3487(3) 0.0326(3)
O24_7 O 0.0092(3) 0.3049(3) 0.0954(3)
O25_7 O 0.0805(3) 0.4079(3) 0.1790(3)
O28_7 O 0.0625(3) 0.4715(3) 0.1203(3)
O29_7 O 0.0280(3) 0.2094(3) 0.0672(3)
O32_7 O 0.1383(3) 0.4455(3) 0.0644(3)
O37_7 O 0.1570(3) 0.3737(3) 0.1298(3)
O38_7 O 0.1951(3) 0.2790(3) 0.1018(3)
O42_7 O 0.1160(3) 0.1942(3) 0.1220(3)
O45_7 O 0.0456(3) 0.4996(3) 0.2173(3)
Mo6_7 Mo 0.03230(4) 0.40361(3) 0.96024(3)
O12_7 O 0.0792(3) 0.3520(3) 0.9775(3)
O27_7 O 0.0523(3) 0.4239(3) 0.9070(3)
O41_7 O 0.1550(3) 0.4275(3) 0.9665(3)
O1_7 O 0.9385(3) 0.1848(3) 0.0256(3)
O2_7 O 0.8944(3) 0.3940(3) 0.0746(3)
O3_7 O 0.8164(3) 0.3111(3) 0.0916(3)
O5_7 O 0.8136(3) 0.3606(3) 0.1548(3)
O8_7 O 0.6679(3) 0.2215(3) 0.0388(3)
C1_7 C 0.7945(5) 0.3311(4) 0.1276(4)
C2_7 C 0.6682(4) 0.2742(4) 0.1057(4)
C3_7 C 0.6434(5) 0.2466(4) 0.0668(4)
C4_7 C 0.7174(4) 0.3267(4) 0.1780(4)
C5_7 C 0.7423(4) 0.3137(4) 0.1347(4)
C6_7 C 0.6437(4) 0.2878(4) 0.1472(4)
H1_7 H 0.6098 0.2797 0.1509
C7_7 C 0.6680(4) 0.3132(4) 0.1839(4)
C8_7 C 0.7186(4) 0.2868(4) 0.1008(5)
H2_7 H 0.7363 0.2762 0.0732
C9_7 C 0.6437(5) 0.3284(4) 0.2305(4)
H3_7 H 0.735(4) 0.351(4) 0.205(4)
Mo1_7 Mo 0.92091(4) 0.42850(3) 0.01875(4)
Mo2_7 Mo 0.92021(4) 0.45035(3) 0.10993(4)
Mo3_7 Mo 0.96672(4) 0.23221(3) 0.05283(4)
Mo4_7 Mo 0.96742(4) 0.26798(3) 0.17123(4)
Mo9_7 Mo 0.94716(4) 0.35825(3) 0.19835(4)
Zn4_7 Zn 0.88643(5) 0.32307(5) 0.08666(5)
O14_7 O 0.9902(3) 0.3714(2) 0.0339(3)
O16_7 O 0.8992(3) 0.4106(3) 0.1698(3)
O26_7 O 0.9638(3) 0.4705(3) 0.0576(3)
O30_7 O 0.9196(3) 0.2867(2) 0.0364(3)
O31_7 O 0.9177(3) 0.3154(3) 0.1494(3)
O33_7 O 0.9702(3) 0.4847(3) 0.1522(3)
O34_7 O 0.9912(3) 0.4141(3) 0.2189(3)
O35_7 O 0.9414(3) 0.2309(2) 0.1130(3)
O36_7 O 0.9156(3) 0.3486(3) 0.2489(3)
O39_7 O 0.9408(3) 0.2361(3) 0.2158(3)
O43_7 O 0.9890(3) 0.3908(2) 0.1226(3)
O44_7 O 0.8737(3) 0.4907(3) 0.1105(3)
O46_7 O 0.8744(3) 0.4641(3) 0.0006(3)
Mo7_7 Mo 0.94392(4) 0.31383(3) 0.97370(4)
O17_7 O 0.9027(3) 0.3665(3) 0.9835(3)
O21_7 O 0.9904(3) 0.3461(2) 0.9387(3)
O22_7 O 0.9965(3) 0.2676(3) 0.9963(3)
O40_7 O 0.9126(3) 0.2790(3) 0.9340(3)
O1_8 O 0.5615(3) 0.8152(3) 0.5256(3)
O2_8 O 0.6056(3) 0.6060(3) 0.5746(3)
O3_8 O 0.6836(3) 0.6889(3) 0.5916(3)
O5_8 O 0.6864(3) 0.6394(3) 0.6548(3)
O6_8 O 0.3366(3) 0.5300(3) 0.6576(3)
O8_8 O 0.8321(3) 0.7785(3) 0.5388(3)
C1_8 C 0.7055(5) 0.6689(4) 0.6276(4)
C2_8 C 0.8318(4) 0.7258(4) 0.6057(4)
C3_8 C 0.8566(5) 0.7534(4) 0.5668(4)
C4_8 C 0.7826(4) 0.6733(4) 0.6780(4)
C5_8 C 0.7577(4) 0.6863(4) 0.6347(4)
C6_8 C 0.8563(4) 0.7122(4) 0.6472(4)
H1_8 H 0.8902 0.7203 0.6509
C7_8 C 0.8320(4) 0.6868(4) 0.6839(4)
C8_8 C 0.7814(4) 0.7132(4) 0.6008(5)
H2_8 H 0.7637 0.7238 0.5732
C9_8 C 0.8563(5) 0.6716(4) 0.7305(4)
H3_8 H 0.765(4) 0.649(4) 0.705(4)
Mo1_8 Mo 0.57909(4) 0.57150(3) 0.51875(4)
Mo2_8 Mo 0.57979(4) 0.54965(3) 0.60993(4)
Mo3_8 Mo 0.53328(4) 0.76779(3) 0.55283(4)
Mo4_8 Mo 0.53258(4) 0.73202(3) 0.67123(4)
Mo5_8 Mo 0.42280(4) 0.75854(3) 0.61191(4)
Mo6_8 Mo 0.46770(4) 0.59639(3) 0.46024(3)
Mo7_8 Mo 0.55608(4) 0.68617(3) 0.47370(4)
Mo8_8 Mo 0.35738(4) 0.68944(4) 0.59440(4)
Mo9_8 Mo 0.55284(4) 0.64175(3) 0.69835(4)
Mo10_8 Mo 0.38417(4) 0.59447(3) 0.50797(4)
Mo11_8 Mo 0.37466(4) 0.56839(4) 0.62743(4)
Mo12_8 Mo 0.47554(4) 0.54386(3) 0.67975(4)
Zn4_8 Zn 0.61357(5) 0.67693(5) 0.58666(5)
P1_8 P 0.48491(11) 0.64065(10) 0.58328(11)
O10_8 O 0.4419(3) 0.5511(3) 0.5086(3)
O11_8 O 0.4712(3) 0.7688(3) 0.6618(3)
O12_8 O 0.4208(3) 0.6480(3) 0.4775(3)
O14_8 O 0.5098(3) 0.6286(2) 0.5339(3)
O15_8 O 0.4289(3) 0.6283(2) 0.5792(3)
O16_8 O 0.6008(3) 0.5894(3) 0.6698(3)
O17_8 O 0.5973(3) 0.6335(3) 0.4835(3)
O18_8 O 0.3982(3) 0.7045(3) 0.6512(3)
O19_8 O 0.4926(3) 0.6807(3) 0.7013(3)
O20_8 O 0.3995(3) 0.7287(3) 0.5515(3)
O21_8 O 0.5096(3) 0.6539(2) 0.4387(3)
O22_8 O 0.5035(3) 0.7324(3) 0.4963(3)
O23_8 O 0.3401(3) 0.6513(3) 0.5326(3)
O24_8 O 0.4908(3) 0.6951(3) 0.5954(3)
O25_8 O 0.4195(3) 0.5921(3) 0.6790(3)
O26_8 O 0.5362(3) 0.5295(3) 0.5576(3)
O27_8 O 0.4477(3) 0.5761(3) 0.4070(3)
O28_8 O 0.4375(3) 0.5285(3) 0.6203(3)
O29_8 O 0.4720(3) 0.7906(3) 0.5672(3)
O30_8 O 0.5804(3) 0.7133(2) 0.5364(3)
O31_8 O 0.5823(3) 0.6846(3) 0.6494(3)
O32_8 O 0.3617(3) 0.5545(3) 0.5644(3)
O33_8 O 0.5298(3) 0.5153(3) 0.6522(3)
O34_8 O 0.5088(3) 0.5859(3) 0.7189(3)
O35_8 O 0.5586(3) 0.7691(2) 0.6130(3)
O36_8 O 0.5844(3) 0.6514(3) 0.7489(3)
O37_8 O 0.3430(3) 0.6263(3) 0.6298(3)
O38_8 O 0.3049(3) 0.7210(3) 0.6018(3)
O39_8 O 0.5592(3) 0.7639(3) 0.7158(3)
O40_8 O 0.5874(3) 0.7210(3) 0.4340(3)
O41_8 O 0.3450(3) 0.5725(3) 0.4665(3)
O42_8 O 0.3840(3) 0.8058(3) 0.6220(3)
O43_8 O 0.5110(3) 0.6092(2) 0.6226(3)
O44_8 O 0.6263(3) 0.5093(3) 0.6105(3)
O45_8 O 0.4544(3) 0.5004(3) 0.7173(3)
O46_8 O 0.6256(3) 0.5359(3) 0.5006(3)
H6 H 0.5603 0.5543 0.0001
H15 H 0.4271 0.6212 0.0139
C28 C 0.4904(7) 0.5818(6) 0.0128(6)
H18 H 0.4822 0.5607 0.0388
C36 C 0.7214(7) 0.6769(7) 0.0198(7)
H24 H 0.7456 0.6911 0.0403
C37 C 0.7165(7) 0.6277(8) 0.0174(7)
H25 H 0.7368 0.6071 0.0366
C38 C 0.6949(11) 0.5200(8) 0.0134(8)
H26 H 0.7171 0.5304 0.0377
C39 C 0.6851(13) 0.4727(9) 0.0078(10)
H27 H 0.7002 0.449 0.028
N1 N 0.5760(4) 0.6586(4) 0.8801(4)
N2 N 0.6406(5) 0.5418(4) 0.9478(4)
C10 C 0.5304(4) 0.6708(4) 0.8975(4)
C11 C 0.5149(5) 0.6394(5) 0.9373(5)
C12 C 0.5972(5) 0.5424(4) 0.8211(5)
C13 C 0.5773(6) 0.5114(5) 0.7880(5)
H4 H 0.5957 0.5038 0.7599
C14 C 0.7088(5) 0.6061(4) 0.8576(5)
H5 H 0.72 0.6229 0.8854
C15 C 0.6472(5) 0.5636(4) 0.8182(5)
C16 C 0.5365(6) 0.5775(5) 0.9894(5)
C17 C 0.7409(5) 0.6002(5) 0.8205(5)
H7 H 0.7736 0.6127 0.8226
C18 C 0.5317(6) 0.4910(5) 0.7940(6)
H8 H 0.5185 0.4684 0.7714
C19 C 0.4685(5) 0.6456(5) 0.9600(5)
H9 H 0.4456 0.6694 0.9487
C20 C 0.6780(6) 0.5580(5) 0.7792(5)
H10 H 0.6667 0.5413 0.7514
C21 C 0.6575(5) 0.6840(5) 0.9612(6)
H11 H 0.6366 0.7043 0.9423
C22 C 0.5943(5) 0.6874(5) 0.8451(5)
H12 H 0.626 0.6796 0.8325
C23 C 0.5047(5) 0.7097(5) 0.8805(5)
H13 H 0.4733 0.7177 0.8936
C24 C 0.5700(6) 0.7273(5) 0.8266(6)
H14 H 0.5849 0.7468 0.8024
C25 C 0.4576(6) 0.6171(5) 0.9976(6)
C26 C 0.7256(6) 0.5766(5) 0.7808(5)
H16 H 0.7472 0.5727 0.7542
C27 C 0.5249(6) 0.7384(5) 0.8432(5)
H17 H 0.5068 0.7651 0.8301
C29 C 0.5056(6) 0.5045(5) 0.8343(7)
H19 H 0.4731 0.4924 0.8394
C30 C 0.6303(6) 0.4931(5) 0.9432(7)
H20 H 0.6074 0.4827 0.9195
C31 C 0.5269(5) 0.5357(5) 0.8669(6)
H21 H 0.5084 0.5449 0.8945
C32 C 0.6815(6) 0.6070(6) 0.9869(6)
C33 C 0.6724(7) 0.5547(6) 0.9831(6)
C34 C 0.6527(9) 0.4582(7) 0.9724(7)
H22 H 0.6456 0.4244 0.968
C35 C 0.6914(6) 0.7065(7) 0.9924(7)
H23 H 0.6935 0.7412 0.9945
Ru1 Ru 0.60898(4) 0.59778(4) 0.91005(4)
N3 N 0.6622(4) 0.5893(3) 0.8571(3)
N4 N 0.5724(4) 0.5538(4) 0.8618(4)
N5 N 0.6534(4) 0.6355(4) 0.9570(4)
N6 N 0.5458(4) 0.6062(4) 0.9521(4)
C19_2 C 0.0315(5) 0.3544(5) 0.4600(5)
H9_2 H 0.0544 0.3306 0.4487
H13_2 H 0.0267 0.2823 0.3936
C25_2 C 0.0424(6) 0.3829(5) 0.4976(6)
H15_2 H 0.0729 0.3788 0.5139
C28_2 C 0.0096(7) 0.4182(6) 0.5128(6)
H18_2 H 0.0178 0.4393 0.5388
H19_2 H 0.0269 0.5076 0.3394
N1_2 N 0.9240(4) 0.3414(4) 0.3801(4)
N2_2 N 0.8594(5) 0.4582(4) 0.4478(4)
C10_2 C 0.9696(4) 0.3292(4) 0.3975(4)
C11_2 C 0.9851(5) 0.3606(5) 0.4373(5)
C12_2 C 0.9028(5) 0.4576(4) 0.3211(5)
C13_2 C 0.9227(6) 0.4886(5) 0.2880(5)
H4_2 H 0.9043 0.4962 0.2599
C14_2 C 0.7912(5) 0.3939(4) 0.3576(5)
H5_2 H 0.78 0.3771 0.3854
C15_2 C 0.8528(5) 0.4364(4) 0.3182(5)
C16_2 C 0.9635(6) 0.4225(5) 0.4894(5)
H6_2 H 0.9397 0.4457 0.5001
C17_2 C 0.7591(5) 0.3998(5) 0.3205(5)
H7_2 H 0.7264 0.3873 0.3226
C18_2 C 0.9683(6) 0.5090(5) 0.2940(6)
H8_2 H 0.9815 0.5316 0.2714
C20_2 C 0.8220(6) 0.4420(5) 0.2792(5)
H10_2 H 0.8333 0.4587 0.2514
C21_2 C 0.8425(5) 0.3160(5) 0.4612(6)
H11_2 H 0.8634 0.2957 0.4423
C22_2 C 0.9057(5) 0.3126(5) 0.3451(5)
H12_2 H 0.874 0.3204 0.3325
C23_2 C 0.9953(5) 0.2903(5) 0.3805(5)
C24_2 C 0.9300(6) 0.2727(5) 0.3266(6)
H14_2 H 0.9151 0.2532 0.3024
C26_2 C 0.7744(6) 0.4234(5) 0.2808(5)
H16_2 H 0.7528 0.4273 0.2542
C27_2 C 0.9751(6) 0.2616(5) 0.3432(5)
H17_2 H 0.9932 0.2349 0.3301
C29_2 C 0.9944(6) 0.4955(5) 0.3343(7)
C30_2 C 0.8697(6) 0.5069(5) 0.4432(7)
H20_2 H 0.8926 0.5173 0.4195
C31_2 C 0.9731(5) 0.4643(5) 0.3669(6)
H21_2 H 0.9916 0.4551 0.3945
C32_2 C 0.8185(6) 0.3930(6) 0.4869(6)
C33_2 C 0.8276(7) 0.4453(6) 0.4831(6)
C34_2 C 0.8473(9) 0.5418(7) 0.4724(7)
H22_2 H 0.8544 0.5756 0.468
C35_2 C 0.8086(6) 0.2935(7) 0.4924(7)
H23_2 H 0.8065 0.2588 0.4945
C36_2 C 0.7786(7) 0.3231(7) 0.5198(7)
H24_2 H 0.7544 0.3089 0.5403
C37_2 C 0.7835(7) 0.3723(8) 0.5174(7)
H25_2 H 0.7632 0.3929 0.5366
C38_2 C 0.8051(11) 0.4800(8) 0.5134(8)
H26_2 H 0.7829 0.4696 0.5377
C39_2 C 0.8149(13) 0.5273(9) 0.5078(10)
H27_2 H 0.7998 0.551 0.528
Ru1_2 Ru 0.89102(4) 0.40222(4) 0.41005(4)
N3_2 N 0.8378(4) 0.4107(3) 0.3571(3)
N4_2 N 0.9276(4) 0.4462(4) 0.3618(4)
N5_2 N 0.8466(4) 0.3645(4) 0.4570(4)
N6_2 N 0.9542(4) 0.3938(4) 0.4521(4)
C18_3 C 0.0317(6) 0.0090(5) 0.2060(6)
H8_3 H 0.0185 0.0316 0.2286
C30_3 C 0.1303(6) 0.0069(5) 0.0568(7)
H20_3 H 0.1074 0.0173 0.0805
C34_3 C 0.1527(9) 0.0418(7) 0.0276(7)
H22_3 H 0.1456 0.0756 0.032
C39_3 C 0.1851(13) 0.0273(9) 0.9922(10)
H27_3 H 0.2002 0.051 0.972
N1_3 N 0.0760(4) 0.8414(4) 0.1199(4)
N2_3 N 0.1406(5) 0.9582(4) 0.0522(4)
C10_3 C 0.0304(4) 0.8292(4) 0.1025(4)
C11_3 C 0.0149(5) 0.8606(5) 0.0627(5)
C12_3 C 0.0972(5) 0.9576(4) 0.1789(5)
C13_3 C 0.0773(6) 0.9886(5) 0.2120(5)
H4_3 H 0.0957 0.9962 0.2401
C14_3 C 0.2088(5) 0.8939(4) 0.1424(5)
H5_3 H 0.22 0.8771 0.1146
C15_3 C 0.1472(5) 0.9364(4) 0.1818(5)
C16_3 C 0.0365(6) 0.9225(5) 0.0106(5)
C17_3 C 0.2409(5) 0.8998(5) 0.1795(5)
H7_3 H 0.2736 0.8873 0.1774
C20_3 C 0.1780(6) 0.9420(5) 0.2208(5)
H10_3 H 0.1667 0.9587 0.2486
C21_3 C 0.1575(5) 0.8160(5) 0.0388(6)
H11_3 H 0.1366 0.7957 0.0577
C22_3 C 0.0943(5) 0.8126(5) 0.1549(5)
H12_3 H 0.126 0.8204 0.1675
C23_3 C 0.0047(5) 0.7903(5) 0.1195(5)
C24_3 C 0.0700(6) 0.7727(5) 0.1734(6)
H14_3 H 0.0849 0.7532 0.1976
C26_3 C 0.2256(6) 0.9234(5) 0.2192(5)
H16_3 H 0.2472 0.9273 0.2458
C27_3 C 0.0249(6) 0.7616(5) 0.1568(5)
H17_3 H 0.0068 0.7349 0.1699
C29_3 C 0.0056(6) 0.9955(5) 0.1657(7)
C31_3 C 0.0269(5) 0.9643(5) 0.1331(6)
H21_3 H 0.0084 0.9551 0.1055
C32_3 C 0.1815(6) 0.8930(6) 0.0131(6)
C33_3 C 0.1724(7) 0.9453(6) 0.0169(6)
C35_3 C 0.1914(6) 0.7935(7) 0.0076(7)
H23_3 H 0.1935 0.7588 0.0055
Ru1_3 Ru 0.10898(4) 0.90222(4) 0.08995(4)
N3_3 N 0.1622(4) 0.9107(3) 0.1429(3)
N4_3 N 0.0724(4) 0.9462(4) 0.1382(4)
N5_3 N 0.1534(4) 0.8645(4) 0.0430(4)
N6_3 N 0.0458(4) 0.8938(4) 0.0479(4)
H6_3 H 0.0603 0.9457 0.9999
C36_3 C 0.2214(7) 0.8231(7) 0.9802(7)
H24_3 H 0.2456 0.8089 0.9597
C37_3 C 0.2165(7) 0.8723(8) 0.9826(7)
H25_3 H 0.2368 0.8929 0.9634
C38_3 C 0.1949(11) 0.9800(8) 0.9866(8)
H26_3 H 0.2171 0.9696 0.9623
H19_3 H 0.9731 0.0076 0.1606
C19_3 C 0.9685(5) 0.8544(5) 0.0400(5)
H9_3 H 0.9456 0.8306 0.0513
H13_3 H 0.9733 0.7823 0.1064
C25_3 C 0.9576(6) 0.8829(5) 0.0024(6)
H15_3 H 0.9271 0.8788 0.9861
C28_3 C 0.9904(7) 0.9182(6) 0.9872(6)
H18_3 H 0.9822 0.9393 0.9612
N1_4 N 0.4240(4) 0.1586(4) 0.6199(4)
N2_4 N 0.3594(5) 0.0418(4) 0.5522(4)
C10_4 C 0.4696(4) 0.1708(4) 0.6025(4)
C11_4 C 0.4851(5) 0.1394(5) 0.5627(5)
C12_4 C 0.4028(5) 0.0424(4) 0.6789(5)
C13_4 C 0.4227(6) 0.0114(5) 0.7120(5)
H4_4 H 0.4043 0.0038 0.7401
C14_4 C 0.2912(5) 0.1061(4) 0.6424(5)
H5_4 H 0.28 0.1229 0.6146
C15_4 C 0.3528(5) 0.0636(4) 0.6818(5)
C16_4 C 0.4635(6) 0.0775(5) 0.5106(5)
H6_4 H 0.4397 0.0543 0.4999
C17_4 C 0.2591(5) 0.1002(5) 0.6795(5)
H7_4 H 0.2264 0.1127 0.6774
C19_4 C 0.5315(5) 0.1456(5) 0.5400(5)
H9_4 H 0.5544 0.1694 0.5513
C20_4 C 0.3220(6) 0.0580(5) 0.7208(5)
H10_4 H 0.3333 0.0413 0.7486
C21_4 C 0.3425(5) 0.1840(5) 0.5388(6)
H11_4 H 0.3634 0.2043 0.5577
C22_4 C 0.4057(5) 0.1874(5) 0.6549(5)
H12_4 H 0.374 0.1796 0.6675
C23_4 C 0.4953(5) 0.2097(5) 0.6195(5)
H13_4 H 0.5267 0.2177 0.6064
C24_4 C 0.4300(6) 0.2273(5) 0.6734(6)
H14_4 H 0.4151 0.2468 0.6976
C25_4 C 0.5424(6) 0.1171(5) 0.5024(6)
H15_4 H 0.5729 0.1212 0.4861
C26_4 C 0.2744(6) 0.0766(5) 0.7192(5)
H16_4 H 0.2528 0.0727 0.7458
C27_4 C 0.4751(6) 0.2384(5) 0.6568(5)
H17_4 H 0.4932 0.2651 0.6699
C28_4 C 0.5096(7) 0.0818(6) 0.4872(6)
H18_4 H 0.5178 0.0607 0.4612
C29_4 C 0.4944(6) 0.0045(5) 0.6657(7)
C31_4 C 0.4731(5) 0.0357(5) 0.6331(6)
H21_4 H 0.4916 0.0449 0.6055
C32_4 C 0.3185(6) 0.1070(6) 0.5131(6)
C33_4 C 0.3276(7) 0.0547(6) 0.5169(6)
C35_4 C 0.3086(6) 0.2065(7) 0.5076(7)
H23_4 H 0.3065 0.2412 0.5055
C36_4 C 0.2786(7) 0.1769(7) 0.4802(7)
H24_4 H 0.2544 0.1911 0.4597
C37_4 C 0.2835(7) 0.1277(8) 0.4826(7)
H25_4 H 0.2632 0.1071 0.4634
C38_4 C 0.3051(11) 0.0200(8) 0.4866(8)
H26_4 H 0.2829 0.0304 0.4623
Ru1_4 Ru 0.39102(4) 0.09778(4) 0.58995(4)
N3_4 N 0.3378(4) 0.0893(3) 0.6429(3)
N4_4 N 0.4276(4) 0.0538(4) 0.6382(4)
N5_4 N 0.3466(4) 0.1355(4) 0.5430(4)
N6_4 N 0.4542(4) 0.1062(4) 0.5479(4)
C18_4 C 0.4683(6) 0.9910(5) 0.7060(6)
H8_4 H 0.4815 0.9684 0.7286
H19_4 H 0.5269 0.9924 0.6606
C30_4 C 0.3697(6) 0.9931(5) 0.5568(7)
H20_4 H 0.3926 0.9827 0.5805
C34_4 C 0.3473(9) 0.9582(7) 0.5276(7)
H22_4 H 0.3544 0.9244 0.532
C39_4 C 0.3149(13) 0.9727(9) 0.4922(10)
H27_4 H 0.2998 0.949 0.472
N1_5 N 0.4240(4) 0.3414(4) 0.1199(4)
N2_5 N 0.3594(5) 0.4582(4) 0.0522(4)
C10_5 C 0.4696(4) 0.3292(4) 0.1025(4)
C11_5 C 0.4851(5) 0.3606(5) 0.0627(5)
C12_5 C 0.4028(5) 0.4576(4) 0.1789(5)
C13_5 C 0.4227(6) 0.4886(5) 0.2120(5)
H4_5 H 0.4043 0.4962 0.2401
C14_5 C 0.2912(5) 0.3939(4) 0.1424(5)
H5_5 H 0.28 0.3771 0.1146
C15_5 C 0.3528(5) 0.4364(4) 0.1818(5)
C16_5 C 0.4635(6) 0.4225(5) 0.0106(5)
C17_5 C 0.2591(5) 0.3998(5) 0.1795(5)
H7_5 H 0.2264 0.3873 0.1774
C18_5 C 0.4683(6) 0.5090(5) 0.2060(6)
H8_5 H 0.4815 0.5316 0.2286
C19_5 C 0.5315(5) 0.3544(5) 0.0400(5)
H9_5 H 0.5544 0.3306 0.0513
C20_5 C 0.3220(6) 0.4420(5) 0.2208(5)
H10_5 H 0.3333 0.4587 0.2486
C21_5 C 0.3425(5) 0.3160(5) 0.0388(6)
H11_5 H 0.3634 0.2957 0.0577
C22_5 C 0.4057(5) 0.3126(5) 0.1549(5)
H12_5 H 0.374 0.3204 0.1675
C23_5 C 0.4953(5) 0.2903(5) 0.1195(5)
H13_5 H 0.5267 0.2823 0.1064
C24_5 C 0.4300(6) 0.2727(5) 0.1734(6)
H14_5 H 0.4151 0.2532 0.1976
C25_5 C 0.5424(6) 0.3829(5) 0.0024(6)
C26_5 C 0.2744(6) 0.4234(5) 0.2192(5)
H16_5 H 0.2528 0.4273 0.2458
C27_5 C 0.4751(6) 0.2616(5) 0.1568(5)
H17_5 H 0.4932 0.2349 0.1699
C29_5 C 0.4944(6) 0.4955(5) 0.1657(7)
H19_5 H 0.5269 0.5076 0.1606
C30_5 C 0.3697(6) 0.5069(5) 0.0568(7)
H20_5 H 0.3926 0.5173 0.0805
C31_5 C 0.4731(5) 0.4643(5) 0.1331(6)
H21_5 H 0.4916 0.4551 0.1055
C32_5 C 0.3185(6) 0.3930(6) 0.0131(6)
C33_5 C 0.3276(7) 0.4453(6) 0.0169(6)
C34_5 C 0.3473(9) 0.5418(7) 0.0276(7)
H22_5 H 0.3544 0.5756 0.032
C35_5 C 0.3086(6) 0.2935(7) 0.0076(7)
H23_5 H 0.3065 0.2588 0.0055
Ru1_5 Ru 0.39102(4) 0.40222(4) 0.08995(4)
N3_5 N 0.3378(4) 0.4107(3) 0.1429(3)
N4_5 N 0.4276(4) 0.4462(4) 0.1382(4)
N5_5 N 0.3466(4) 0.3645(4) 0.0430(4)
N6_5 N 0.4542(4) 0.3938(4) 0.0479(4)
H6_5 H 0.4397 0.4457 0.9999
H15_5 H 0.5729 0.3788 0.9861
C28_5 C 0.5096(7) 0.4182(6) 0.9872(6)
H18_5 H 0.5178 0.4393 0.9612
C36_5 C 0.2786(7) 0.3231(7) 0.9802(7)
H24_5 H 0.2544 0.3089 0.9597
C37_5 C 0.2835(7) 0.3723(8) 0.9826(7)
H25_5 H 0.2632 0.3929 0.9634
C38_5 C 0.3051(11) 0.4800(8) 0.9866(8)
H26_5 H 0.2829 0.4696 0.9623
C39_5 C 0.3149(13) 0.5273(9) 0.9922(10)
H27_5 H 0.2998 0.551 0.972
N1_6 N 0.0760(4) 0.6586(4) 0.6199(4)
N2_6 N 0.1406(5) 0.5418(4) 0.5522(4)
C10_6 C 0.0304(4) 0.6708(4) 0.6025(4)
C11_6 C 0.0149(5) 0.6394(5) 0.5627(5)
C12_6 C 0.0972(5) 0.5424(4) 0.6789(5)
C13_6 C 0.0773(6) 0.5114(5) 0.7120(5)
H4_6 H 0.0957 0.5038 0.7401
C14_6 C 0.2088(5) 0.6061(4) 0.6424(5)
H5_6 H 0.22 0.6229 0.6146
C15_6 C 0.1472(5) 0.5636(4) 0.6818(5)
C16_6 C 0.0365(6) 0.5775(5) 0.5106(5)
H6_6 H 0.0603 0.5543 0.4999
C17_6 C 0.2409(5) 0.6002(5) 0.6795(5)
H7_6 H 0.2736 0.6127 0.6774
C18_6 C 0.0317(6) 0.4910(5) 0.7060(6)
H8_6 H 0.0185 0.4684 0.7286
C20_6 C 0.1780(6) 0.5580(5) 0.7208(5)
H10_6 H 0.1667 0.5413 0.7486
C21_6 C 0.1575(5) 0.6840(5) 0.5388(6)
H11_6 H 0.1366 0.7043 0.5577
C22_6 C 0.0943(5) 0.6874(5) 0.6549(5)
H12_6 H 0.126 0.6796 0.6675
C23_6 C 0.0047(5) 0.7097(5) 0.6195(5)
C24_6 C 0.0700(6) 0.7273(5) 0.6734(6)
H14_6 H 0.0849 0.7468 0.6976
C26_6 C 0.2256(6) 0.5766(5) 0.7192(5)
H16_6 H 0.2472 0.5727 0.7458
C27_6 C 0.0249(6) 0.7384(5) 0.6568(5)
H17_6 H 0.0068 0.7651 0.6699
C29_6 C 0.0056(6) 0.5045(5) 0.6657(7)
C30_6 C 0.1303(6) 0.4931(5) 0.5568(7)
H20_6 H 0.1074 0.4827 0.5805
C31_6 C 0.0269(5) 0.5357(5) 0.6331(6)
H21_6 H 0.0084 0.5449 0.6055
C32_6 C 0.1815(6) 0.6070(6) 0.5131(6)
C33_6 C 0.1724(7) 0.5547(6) 0.5169(6)
C34_6 C 0.1527(9) 0.4582(7) 0.5276(7)
H22_6 H 0.1456 0.4244 0.532
C35_6 C 0.1914(6) 0.7065(7) 0.5076(7)
H23_6 H 0.1935 0.7412 0.5055
C36_6 C 0.2214(7) 0.6769(7) 0.4802(7)
H24_6 H 0.2456 0.6911 0.4597
C37_6 C 0.2165(7) 0.6277(8) 0.4826(7)
H25_6 H 0.2368 0.6071 0.4634
C38_6 C 0.1949(11) 0.5200(8) 0.4866(8)
H26_6 H 0.2171 0.5304 0.4623
C39_6 C 0.1851(13) 0.4727(9) 0.4922(10)
H27_6 H 0.2002 0.449 0.472
Ru1_6 Ru 0.10898(4) 0.59778(4) 0.58995(4)
N3_6 N 0.1622(4) 0.5893(3) 0.6429(3)
N4_6 N 0.0724(4) 0.5538(4) 0.6382(4)
N5_6 N 0.1534(4) 0.6355(4) 0.5430(4)
N6_6 N 0.0458(4) 0.6062(4) 0.5479(4)
C19_6 C 0.9685(5) 0.6456(5) 0.5400(5)
H9_6 H 0.9456 0.6694 0.5513
H13_6 H 0.9733 0.7177 0.6064
C25_6 C 0.9576(6) 0.6171(5) 0.5024(6)
H15_6 H 0.9271 0.6212 0.4861
C28_6 C 0.9904(7) 0.5818(6) 0.4872(6)
H18_6 H 0.9822 0.5607 0.4612
H19_6 H 0.9731 0.4924 0.6606
H15_7 H 0.0729 0.1212 0.0139
C28_7 C 0.0096(7) 0.0818(6) 0.0128(6)
H18_7 H 0.0178 0.0607 0.0388
C19_7 C 0.0315(5) 0.1456(5) 0.9600(5)
H9_7 H 0.0544 0.1694 0.9487
H13_7 H 0.0267 0.2177 0.8936
C25_7 C 0.0424(6) 0.1171(5) 0.9976(6)
H19_7 H 0.0269 0.9924 0.8394
H6_7 H 0.9397 0.0543 0.0001
C36_7 C 0.7786(7) 0.1769(7) 0.0198(7)
H24_7 H 0.7544 0.1911 0.0403
C37_7 C 0.7835(7) 0.1277(8) 0.0174(7)
H25_7 H 0.7632 0.1071 0.0366
C38_7 C 0.8051(11) 0.0200(8) 0.0134(8)
H26_7 H 0.7829 0.0304 0.0377
N1_7 N 0.9240(4) 0.1586(4) 0.8801(4)
N2_7 N 0.8594(5) 0.0418(4) 0.9478(4)
C10_7 C 0.9696(4) 0.1708(4) 0.8975(4)
C11_7 C 0.9851(5) 0.1394(5) 0.9373(5)
C12_7 C 0.9028(5) 0.0424(4) 0.8211(5)
C13_7 C 0.9227(6) 0.0114(5) 0.7880(5)
H4_7 H 0.9043 0.0038 0.7599
C14_7 C 0.7912(5) 0.1061(4) 0.8576(5)
H5_7 H 0.78 0.1229 0.8854
C15_7 C 0.8528(5) 0.0636(4) 0.8182(5)
C16_7 C 0.9635(6) 0.0775(5) 0.9894(5)
C17_7 C 0.7591(5) 0.1002(5) 0.8205(5)
H7_7 H 0.7264 0.1127 0.8226
C20_7 C 0.8220(6) 0.0580(5) 0.7792(5)
H10_7 H 0.8333 0.0413 0.7514
C21_7 C 0.8425(5) 0.1840(5) 0.9612(6)
H11_7 H 0.8634 0.2043 0.9423
C22_7 C 0.9057(5) 0.1874(5) 0.8451(5)
H12_7 H 0.874 0.1796 0.8325
C23_7 C 0.9953(5) 0.2097(5) 0.8805(5)
C24_7 C 0.9300(6) 0.2273(5) 0.8266(6)
H14_7 H 0.9151 0.2468 0.8024
C26_7 C 0.7744(6) 0.0766(5) 0.7808(5)
H16_7 H 0.7528 0.0727 0.7542
C27_7 C 0.9751(6) 0.2384(5) 0.8432(5)
H17_7 H 0.9932 0.2651 0.8301
C29_7 C 0.9944(6) 0.0045(5) 0.8343(7)
C31_7 C 0.9731(5) 0.0357(5) 0.8669(6)
H21_7 H 0.9916 0.0449 0.8945
C32_7 C 0.8185(6) 0.1070(6) 0.9869(6)
C33_7 C 0.8276(7) 0.0547(6) 0.9831(6)
C35_7 C 0.8086(6) 0.2065(7) 0.9924(7)
H23_7 H 0.8065 0.2412 0.9945
Ru1_7 Ru 0.89102(4) 0.09778(4) 0.91005(4)
N3_7 N 0.8378(4) 0.0893(3) 0.8571(3)
N4_7 N 0.9276(4) 0.0538(4) 0.8618(4)
N5_7 N 0.8466(4) 0.1355(4) 0.9570(4)
N6_7 N 0.9542(4) 0.1062(4) 0.9521(4)
C39_7 C 0.8149(13) 0.9727(9) 0.0078(10)
H27_7 H 0.7998 0.949 0.028
C18_7 C 0.9683(6) 0.9910(5) 0.7940(6)
H8_7 H 0.9815 0.9684 0.7714
C30_7 C 0.8697(6) 0.9931(5) 0.9432(7)
H20_7 H 0.8926 0.9827 0.9195
C34_7 C 0.8473(9) 0.9582(7) 0.9724(7)
H22_7 H 0.8544 0.9244 0.968
C18_8 C 0.5317(6) 0.0090(5) 0.2940(6)
H8_8 H 0.5185 0.0316 0.2714
H19_8 H 0.4731 0.0076 0.3394
C30_8 C 0.6303(6) 0.0069(5) 0.4432(7)
H20_8 H 0.6074 0.0173 0.4195
C34_8 C 0.6527(9) 0.0418(7) 0.4724(7)
H22_8 H 0.6456 0.0756 0.468
C39_8 C 0.6851(13) 0.0273(9) 0.5078(10)
H27_8 H 0.7002 0.051 0.528
N1_8 N 0.5760(4) 0.8414(4) 0.3801(4)
N2_8 N 0.6406(5) 0.9582(4) 0.4478(4)
C10_8 C 0.5304(4) 0.8292(4) 0.3975(4)
C11_8 C 0.5149(5) 0.8606(5) 0.4373(5)
C12_8 C 0.5972(5) 0.9576(4) 0.3211(5)
C13_8 C 0.5773(6) 0.9886(5) 0.2880(5)
H4_8 H 0.5957 0.9962 0.2599
C14_8 C 0.7088(5) 0.8939(4) 0.3576(5)
H5_8 H 0.72 0.8771 0.3854
C15_8 C 0.6472(5) 0.9364(4) 0.3182(5)
C16_8 C 0.5365(6) 0.9225(5) 0.4894(5)
H6_8 H 0.5603 0.9457 0.5001
C17_8 C 0.7409(5) 0.8998(5) 0.3205(5)
H7_8 H 0.7736 0.8873 0.3226
C19_8 C 0.4685(5) 0.8544(5) 0.4600(5)
H9_8 H 0.4456 0.8306 0.4487
C20_8 C 0.6780(6) 0.9420(5) 0.2792(5)
H10_8 H 0.6667 0.9587 0.2514
C21_8 C 0.6575(5) 0.8160(5) 0.4612(6)
H11_8 H 0.6366 0.7957 0.4423
C22_8 C 0.5943(5) 0.8126(5) 0.3451(5)
H12_8 H 0.626 0.8204 0.3325
C23_8 C 0.5047(5) 0.7903(5) 0.3805(5)
H13_8 H 0.4733 0.7823 0.3936
C24_8 C 0.5700(6) 0.7727(5) 0.3266(6)
H14_8 H 0.5849 0.7532 0.3024
C25_8 C 0.4576(6) 0.8829(5) 0.4976(6)
H15_8 H 0.4271 0.8788 0.5139
C26_8 C 0.7256(6) 0.9234(5) 0.2808(5)
H16_8 H 0.7472 0.9273 0.2542
C27_8 C 0.5249(6) 0.7616(5) 0.3432(5)
H17_8 H 0.5068 0.7349 0.3301
C28_8 C 0.4904(7) 0.9182(6) 0.5128(6)
H18_8 H 0.4822 0.9393 0.5388
C29_8 C 0.5056(6) 0.9955(5) 0.3343(7)
C31_8 C 0.5269(5) 0.9643(5) 0.3669(6)
H21_8 H 0.5084 0.9551 0.3945
C32_8 C 0.6815(6) 0.8930(6) 0.4869(6)
C33_8 C 0.6724(7) 0.9453(6) 0.4831(6)
C35_8 C 0.6914(6) 0.7935(7) 0.4924(7)
H23_8 H 0.6935 0.7588 0.4945
C36_8 C 0.7214(7) 0.8231(7) 0.5198(7)
H24_8 H 0.7456 0.8089 0.5403
C37_8 C 0.7165(7) 0.8723(8) 0.5174(7)
H25_8 H 0.7368 0.8929 0.5366
C38_8 C 0.6949(11) 0.9800(8) 0.5134(8)
H26_8 H 0.7171 0.9696 0.5377
Ru1_8 Ru 0.60898(4) 0.90222(4) 0.41005(4)
N3_8 N 0.6622(4) 0.9107(3) 0.3571(3)
N4_8 N 0.5724(4) 0.9462(4) 0.3618(4)
N5_8 N 0.6534(4) 0.8645(4) 0.4570(4)
N6_8 N 0.5458(4) 0.8938(4) 0.4521(4)
C48 C 0.6482(9) 0.0420(5) 0.7052(7)
H34 H 0.6245 0.0658 0.7146
C61 C 0.7174(8) 0.0176(6) 0.6578(6)
H44 H 0.7413 0.0244 0.6336
C64 C 0.6809(9) 0.0508(6) 0.6695(8)
H47 H 0.6786 0.0806 0.652
N7 N 0.6919(4) 0.8180(4) 0.7584(4)
N8 N 0.6192(4) 0.8930(3) 0.7799(4)
N9 N 0.6299(5) 0.8803(4) 0.6871(4)
C40 C 0.5765(5) 0.8826(4) 0.7576(4)
N10 N 0.6830(5) 0.9625(4) 0.7169(4)
C41 C 0.6181(6) 0.9009(5) 0.8277(5)
H28 H 0.6475 0.9101 0.8439
N11 N 0.7434(6) 0.8896(5) 0.6949(5)
N12 N 0.7308(5) 0.8958(5) 0.7958(5)
C42 C 0.5747(6) 0.8958(5) 0.8532(5)
H29 H 0.5742 0.9008 0.8869
C43 C 0.5326(5) 0.8768(5) 0.7803(5)
H30 H 0.5035 0.8688 0.7629
C44 C 0.5316(6) 0.8830(5) 0.8285(6)
H31 H 0.5016 0.8786 0.8456
C45 C 0.5469(8) 0.8810(5) 0.6273(6)
H32 H 0.5192 0.8834 0.6064
C46 C 0.5811(6) 0.8797(5) 0.7065(5)
C47 C 0.5400(7) 0.8783(5) 0.6739(6)
H33 H 0.5074 0.8754 0.6862
C49 C 0.7176(7) 0.9731(5) 0.6833(6)
C50 C 0.7524(7) 0.9336(6) 0.6720(7)
C51 C 0.6402(7) 0.8816(5) 0.6400(5)
H35 H 0.6734 0.8834 0.6292
C52 C 0.6727(6) 0.7815(5) 0.7342(6)
H36 H 0.6505 0.7885 0.7087
C53 C 0.7148(8) 0.7216(6) 0.7809(8)
H37 H 0.7218 0.6885 0.7892
C54 C 0.6510(7) 0.9969(5) 0.7274(5)
H38 H 0.6278 0.9902 0.7521
C55 C 0.6838(7) 0.7326(6) 0.7445(7)
H39 H 0.6695 0.7071 0.7259
C56 C 0.7228(6) 0.8082(6) 0.7937(6)
C57 C 0.6001(7) 0.8803(6) 0.6063(6)
H40 H 0.6058 0.879 0.5727
C58 C 0.8148(7) 0.8564(8) 0.6570(6)
H41 H 0.8369 0.8296 0.6532
C59 C 0.7914(7) 0.9372(7) 0.6403(7)
H42 H 0.7957 0.9666 0.6225
C60 C 0.8234(7) 0.9002(9) 0.6341(7)
H43 H 0.8515 0.9042 0.6142
C62 C 0.7734(7) 0.8523(6) 0.6858(8)
H45 H 0.7661 0.8213 0.6996
C63 C 0.7482(8) 0.9386(6) 0.8179(7)
H46 H 0.7353 0.9688 0.8064
C65 C 0.7476(8) 0.8508(6) 0.8155(6)
C66 C 0.7356(9) 0.7596(6) 0.8054(7)
H48 H 0.7587 0.7533 0.8303
C67 C 0.7809(7) 0.8497(8) 0.8531(8)
H49 H 0.7929 0.8196 0.866
C68 C 0.7802(9) 0.9410(10) 0.8526(9)
H50 H 0.7922 0.9713 0.8648
C69 C 0.7959(8) 0.8948(10) 0.8710(8)
H51 H 0.8181 0.8949 0.8974
Ru2 Ru 0.68375(4) 0.89069(4) 0.74049(4)
N7_2 N 0.8081(4) 0.1820(4) 0.2584(4)
N8_2 N 0.8808(4) 0.1070(3) 0.2799(4)
N9_2 N 0.8701(5) 0.1197(4) 0.1871(4)
C40_2 C 0.9235(5) 0.1174(4) 0.2576(4)
N10_2 N 0.8170(5) 0.0375(4) 0.2169(4)
C41_2 C 0.8819(6) 0.0991(5) 0.3277(5)
H28_2 H 0.8525 0.0899 0.3439
N11_2 N 0.7566(6) 0.1104(5) 0.1949(5)
N12_2 N 0.7692(5) 0.1042(5) 0.2958(5)
C42_2 C 0.9253(6) 0.1042(5) 0.3532(5)
H29_2 H 0.9258 0.0992 0.3869
C43_2 C 0.9674(5) 0.1232(5) 0.2803(5)
H30_2 H 0.9965 0.1312 0.2629
C44_2 C 0.9684(6) 0.1170(5) 0.3285(6)
H31_2 H 0.9984 0.1214 0.3456
C45_2 C 0.9531(8) 0.1190(5) 0.1273(6)
H32_2 H 0.9808 0.1166 0.1064
C46_2 C 0.9189(6) 0.1203(5) 0.2065(5)
C47_2 C 0.9600(7) 0.1217(5) 0.1739(6)
H33_2 H 0.9926 0.1246 0.1862
C49_2 C 0.7824(7) 0.0269(5) 0.1833(6)
C50_2 C 0.7476(7) 0.0664(6) 0.1720(7)
C51_2 C 0.8598(7) 0.1184(5) 0.1400(5)
H35_2 H 0.8266 0.1166 0.1292
C52_2 C 0.8273(6) 0.2185(5) 0.2342(6)
H36_2 H 0.8495 0.2115 0.2087
C53_2 C 0.7852(8) 0.2784(6) 0.2809(8)
H37_2 H 0.7782 0.3115 0.2892
C54_2 C 0.8490(7) 0.0031(5) 0.2274(5)
H38_2 H 0.8722 0.0098 0.2521
C55_2 C 0.8162(7) 0.2674(6) 0.2445(7)
H39_2 H 0.8305 0.2929 0.2259
C56_2 C 0.7772(6) 0.1918(6) 0.2937(6)
C57_2 C 0.8999(7) 0.1197(6) 0.1063(6)
H40_2 H 0.8942 0.121 0.0727
C58_2 C 0.6852(7) 0.1436(8) 0.1570(6)
H41_2 H 0.6631 0.1704 0.1532
C59_2 C 0.7086(7) 0.0628(7) 0.1403(7)
H42_2 H 0.7043 0.0334 0.1225
C60_2 C 0.6766(7) 0.0998(9) 0.1341(7)
H43_2 H 0.6485 0.0958 0.1142
C62_2 C 0.7266(7) 0.1477(6) 0.1858(8)
H45_2 H 0.7339 0.1787 0.1996
C63_2 C 0.7518(8) 0.0614(6) 0.3179(7)
H46_2 H 0.7647 0.0312 0.3064
C65_2 C 0.7524(8) 0.1492(6) 0.3155(6)
C66_2 C 0.7644(9) 0.2404(6) 0.3054(7)
H48_2 H 0.7413 0.2467 0.3303
C67_2 C 0.7191(7) 0.1503(8) 0.3531(8)
H49_2 H 0.7071 0.1804 0.366
C68_2 C 0.7198(9) 0.0590(10) 0.3526(9)
H50_2 H 0.7078 0.0287 0.3648
C69_2 C 0.7041(8) 0.1052(10) 0.3710(8)
H51_2 H 0.6819 0.1051 0.3974
Ru2_2 Ru 0.81625(4) 0.10931(4) 0.24049(4)
C48_2 C 0.8518(9) 0.9580(5) 0.2052(7)
H34_2 H 0.8755 0.9342 0.2146
C61_2 C 0.7826(8) 0.9824(6) 0.1578(6)
H44_2 H 0.7587 0.9756 0.1336
C64_2 C 0.8191(9) 0.9492(6) 0.1695(8)
H47_2 H 0.8214 0.9194 0.152
N7_3 N 0.1919(4) 0.6820(4) 0.2416(4)
N8_3 N 0.1192(4) 0.6070(3) 0.2201(4)
N9_3 N 0.1299(5) 0.6197(4) 0.3129(4)
C40_3 C 0.0765(5) 0.6174(4) 0.2424(4)
N10_3 N 0.1830(5) 0.5375(4) 0.2831(4)
C41_3 C 0.1181(6) 0.5991(5) 0.1723(5)
H28_3 H 0.1475 0.5899 0.1561
N11_3 N 0.2434(6) 0.6104(5) 0.3051(5)
N12_3 N 0.2308(5) 0.6042(5) 0.2042(5)
C42_3 C 0.0747(6) 0.6042(5) 0.1468(5)
H29_3 H 0.0742 0.5992 0.1131
C43_3 C 0.0326(5) 0.6232(5) 0.2197(5)
H30_3 H 0.0035 0.6312 0.2371
C44_3 C 0.0316(6) 0.6170(5) 0.1715(6)
H31_3 H 0.0016 0.6214 0.1544
C45_3 C 0.0469(8) 0.6190(5) 0.3727(6)
H32_3 H 0.0192 0.6166 0.3936
C46_3 C 0.0811(6) 0.6203(5) 0.2935(5)
C47_3 C 0.0400(7) 0.6217(5) 0.3261(6)
H33_3 H 0.0074 0.6246 0.3138
C48_3 C 0.1482(9) 0.4580(5) 0.2948(7)
H34_3 H 0.1245 0.4342 0.2854
C49_3 C 0.2176(7) 0.5269(5) 0.3167(6)
C50_3 C 0.2524(7) 0.5664(6) 0.3280(7)
C51_3 C 0.1402(7) 0.6184(5) 0.3600(5)
H35_3 H 0.1734 0.6166 0.3708
C52_3 C 0.1727(6) 0.7185(5) 0.2658(6)
H36_3 H 0.1505 0.7115 0.2913
C53_3 C 0.2148(8) 0.7784(6) 0.2191(8)
H37_3 H 0.2218 0.8115 0.2108
C54_3 C 0.1510(7) 0.5031(5) 0.2726(5)
H38_3 H 0.1278 0.5098 0.2479
C55_3 C 0.1838(7) 0.7674(6) 0.2555(7)
H39_3 H 0.1695 0.7929 0.2741
C56_3 C 0.2228(6) 0.6918(6) 0.2063(6)
C57_3 C 0.1001(7) 0.6197(6) 0.3937(6)
H40_3 H 0.1058 0.621 0.4273
C58_3 C 0.3148(7) 0.6436(8) 0.3430(6)
H41_3 H 0.3369 0.6704 0.3468
C59_3 C 0.2914(7) 0.5628(7) 0.3597(7)
H42_3 H 0.2957 0.5334 0.3775
C60_3 C 0.3234(7) 0.5998(9) 0.3659(7)
H43_3 H 0.3515 0.5958 0.3858
C61_3 C 0.2174(8) 0.4824(6) 0.3422(6)
H44_3 H 0.2413 0.4756 0.3664
C62_3 C 0.2734(7) 0.6477(6) 0.3142(8)
H45_3 H 0.2661 0.6787 0.3004
C63_3 C 0.2482(8) 0.5614(6) 0.1821(7)
H46_3 H 0.2353 0.5312 0.1936
C64_3 C 0.1809(9) 0.4492(6) 0.3305(8)
H47_3 H 0.1786 0.4194 0.348
C65_3 C 0.2476(8) 0.6492(6) 0.1845(6)
C66_3 C 0.2356(9) 0.7404(6) 0.1946(7)
H48_3 H 0.2587 0.7467 0.1697
C67_3 C 0.2809(7) 0.6503(8) 0.1469(8)
H49_3 H 0.2929 0.6804 0.134
C68_3 C 0.2802(9) 0.5590(10) 0.1474(9)
H50_3 H 0.2922 0.5287 0.1352
C69_3 C 0.2959(8) 0.6052(10) 0.1290(8)
H51_3 H 0.3181 0.6051 0.1026
Ru2_3 Ru 0.18375(4) 0.60931(4) 0.25951(4)
N7_4 N 0.3081(4) 0.3180(4) 0.7416(4)
N8_4 N 0.3808(4) 0.3930(3) 0.7201(4)
N9_4 N 0.3701(5) 0.3803(4) 0.8129(4)
C40_4 C 0.4235(5) 0.3826(4) 0.7424(4)
N10_4 N 0.3170(5) 0.4625(4) 0.7831(4)
C41_4 C 0.3819(6) 0.4009(5) 0.6723(5)
H28_4 H 0.3525 0.4101 0.6561
N11_4 N 0.2566(6) 0.3896(5) 0.8051(5)
N12_4 N 0.2692(5) 0.3958(5) 0.7042(5)
C42_4 C 0.4253(6) 0.3958(5) 0.6468(5)
H29_4 H 0.4258 0.4008 0.6131
C43_4 C 0.4674(5) 0.3768(5) 0.7197(5)
H30_4 H 0.4965 0.3688 0.7371
C44_4 C 0.4684(6) 0.3830(5) 0.6715(6)
H31_4 H 0.4984 0.3786 0.6544
C45_4 C 0.4531(8) 0.3810(5) 0.8727(6)
H32_4 H 0.4808 0.3834 0.8936
C46_4 C 0.4189(6) 0.3797(5) 0.7935(5)
C47_4 C 0.4600(7) 0.3783(5) 0.8261(6)
H33_4 H 0.4926 0.3754 0.8138
C48_4 C 0.3518(9) 0.5420(5) 0.7948(7)
H34_4 H 0.3755 0.5658 0.7854
C49_4 C 0.2824(7) 0.4731(5) 0.8167(6)
C50_4 C 0.2476(7) 0.4336(6) 0.8280(7)
C51_4 C 0.3598(7) 0.3816(5) 0.8600(5)
H35_4 H 0.3266 0.3834 0.8708
C52_4 C 0.3273(6) 0.2815(5) 0.7658(6)
H36_4 H 0.3495 0.2885 0.7913
C53_4 C 0.2852(8) 0.2216(6) 0.7191(8)
H37_4 H 0.2782 0.1885 0.7108
C54_4 C 0.3490(7) 0.4969(5) 0.7726(5)
H38_4 H 0.3722 0.4902 0.7479
C55_4 C 0.3162(7) 0.2326(6) 0.7555(7)
H39_4 H 0.3305 0.2071 0.7741
C56_4 C 0.2772(6) 0.3082(6) 0.7063(6)
C57_4 C 0.3999(7) 0.3803(6) 0.8937(6)
H40_4 H 0.3942 0.379 0.9273
C58_4 C 0.1852(7) 0.3564(8) 0.8430(6)
H41_4 H 0.1631 0.3296 0.8468
C59_4 C 0.2086(7) 0.4372(7) 0.8597(7)
H42_4 H 0.2043 0.4666 0.8775
C60_4 C 0.1766(7) 0.4002(9) 0.8659(7)
H43_4 H 0.1485 0.4042 0.8858
C61_4 C 0.2826(8) 0.5176(6) 0.8422(6)
H44_4 H 0.2587 0.5244 0.8664
C62_4 C 0.2266(7) 0.3523(6) 0.8142(8)
H45_4 H 0.2339 0.3213 0.8004
C63_4 C 0.2518(8) 0.4386(6) 0.6821(7)
H46_4 H 0.2647 0.4688 0.6936
C64_4 C 0.3191(9) 0.5508(6) 0.8305(8)
H47_4 H 0.3214 0.5806 0.848
C65_4 C 0.2524(8) 0.3508(6) 0.6845(6)
C66_4 C 0.2644(9) 0.2596(6) 0.6946(7)
H48_4 H 0.2413 0.2533 0.6697
C67_4 C 0.2191(7) 0.3497(8) 0.6469(8)
H49_4 H 0.2071 0.3196 0.634
C68_4 C 0.2198(9) 0.4410(10) 0.6474(9)
H50_4 H 0.2078 0.4713 0.6352
C69_4 C 0.2041(8) 0.3948(10) 0.6290(8)
H51_4 H 0.1819 0.3949 0.6026
Ru2_4 Ru 0.31625(4) 0.39069(4) 0.75951(4)
N7_5 N 0.3081(4) 0.1820(4) 0.2416(4)
N8_5 N 0.3808(4) 0.1070(3) 0.2201(4)
N9_5 N 0.3701(5) 0.1197(4) 0.3129(4)
C40_5 C 0.4235(5) 0.1174(4) 0.2424(4)
N10_5 N 0.3170(5) 0.0375(4) 0.2831(4)
C41_5 C 0.3819(6) 0.0991(5) 0.1723(5)
H28_5 H 0.3525 0.0899 0.1561
N11_5 N 0.2566(6) 0.1104(5) 0.3051(5)
N12_5 N 0.2692(5) 0.1042(5) 0.2042(5)
C42_5 C 0.4253(6) 0.1042(5) 0.1468(5)
H29_5 H 0.4258 0.0992 0.1131
C43_5 C 0.4674(5) 0.1232(5) 0.2197(5)
H30_5 H 0.4965 0.1312 0.2371
C44_5 C 0.4684(6) 0.1170(5) 0.1715(6)
H31_5 H 0.4984 0.1214 0.1544
C45_5 C 0.4531(8) 0.1190(5) 0.3727(6)
H32_5 H 0.4808 0.1166 0.3936
C46_5 C 0.4189(6) 0.1203(5) 0.2935(5)
C47_5 C 0.4600(7) 0.1217(5) 0.3261(6)
H33_5 H 0.4926 0.1246 0.3138
C49_5 C 0.2824(7) 0.0269(5) 0.3167(6)
C50_5 C 0.2476(7) 0.0664(6) 0.3280(7)
C51_5 C 0.3598(7) 0.1184(5) 0.3600(5)
H35_5 H 0.3266 0.1166 0.3708
C52_5 C 0.3273(6) 0.2185(5) 0.2658(6)
H36_5 H 0.3495 0.2115 0.2913
C53_5 C 0.2852(8) 0.2784(6) 0.2191(8)
H37_5 H 0.2782 0.3115 0.2108
C54_5 C 0.3490(7) 0.0031(5) 0.2726(5)
H38_5 H 0.3722 0.0098 0.2479
C55_5 C 0.3162(7) 0.2674(6) 0.2555(7)
H39_5 H 0.3305 0.2929 0.2741
C56_5 C 0.2772(6) 0.1918(6) 0.2063(6)
C57_5 C 0.3999(7) 0.1197(6) 0.3937(6)
H40_5 H 0.3942 0.121 0.4273
C58_5 C 0.1852(7) 0.1436(8) 0.3430(6)
H41_5 H 0.1631 0.1704 0.3468
C59_5 C 0.2086(7) 0.0628(7) 0.3597(7)
H42_5 H 0.2043 0.0334 0.3775
C60_5 C 0.1766(7) 0.0998(9) 0.3659(7)
H43_5 H 0.1485 0.0958 0.3858
C62_5 C 0.2266(7) 0.1477(6) 0.3142(8)
H45_5 H 0.2339 0.1787 0.3004
C63_5 C 0.2518(8) 0.0614(6) 0.1821(7)
H46_5 H 0.2647 0.0312 0.1936
C65_5 C 0.2524(8) 0.1492(6) 0.1845(6)
C66_5 C 0.2644(9) 0.2404(6) 0.1946(7)
H48_5 H 0.2413 0.2467 0.1697
C67_5 C 0.2191(7) 0.1503(8) 0.1469(8)
H49_5 H 0.2071 0.1804 0.134
C68_5 C 0.2198(9) 0.0590(10) 0.1474(9)
H50_5 H 0.2078 0.0287 0.1352
C69_5 C 0.2041(8) 0.1052(10) 0.1290(8)
H51_5 H 0.1819 0.1051 0.1026
Ru2_5 Ru 0.31625(4) 0.10931(4) 0.25951(4)
C48_5 C 0.3518(9) 0.9580(5) 0.2948(7)
H34_5 H 0.3755 0.9342 0.2854
C61_5 C 0.2826(8) 0.9824(6) 0.3422(6)
H44_5 H 0.2587 0.9756 0.3664
C64_5 C 0.3191(9) 0.9492(6) 0.3305(8)
H47_5 H 0.3214 0.9194 0.348
C48_6 C 0.1482(9) 0.0420(5) 0.7948(7)
H34_6 H 0.1245 0.0658 0.7854
C61_6 C 0.2174(8) 0.0176(6) 0.8422(6)
H44_6 H 0.2413 0.0244 0.8664
C64_6 C 0.1809(9) 0.0508(6) 0.8305(8)
H47_6 H 0.1786 0.0806 0.848
N7_6 N 0.1919(4) 0.8180(4) 0.7416(4)
N8_6 N 0.1192(4) 0.8930(3) 0.7201(4)
N9_6 N 0.1299(5) 0.8803(4) 0.8129(4)
C40_6 C 0.0765(5) 0.8826(4) 0.7424(4)
N10_6 N 0.1830(5) 0.9625(4) 0.7831(4)
C41_6 C 0.1181(6) 0.9009(5) 0.6723(5)
H28_6 H 0.1475 0.9101 0.6561
N11_6 N 0.2434(6) 0.8896(5) 0.8051(5)
N12_6 N 0.2308(5) 0.8958(5) 0.7042(5)
C42_6 C 0.0747(6) 0.8958(5) 0.6468(5)
H29_6 H 0.0742 0.9008 0.6131
C43_6 C 0.0326(5) 0.8768(5) 0.7197(5)
H30_6 H 0.0035 0.8688 0.7371
C44_6 C 0.0316(6) 0.8830(5) 0.6715(6)
H31_6 H 0.0016 0.8786 0.6544
C45_6 C 0.0469(8) 0.8810(5) 0.8727(6)
H32_6 H 0.0192 0.8834 0.8936
C46_6 C 0.0811(6) 0.8797(5) 0.7935(5)
C47_6 C 0.0400(7) 0.8783(5) 0.8261(6)
H33_6 H 0.0074 0.8754 0.8138
C49_6 C 0.2176(7) 0.9731(5) 0.8167(6)
C50_6 C 0.2524(7) 0.9336(6) 0.8280(7)
C51_6 C 0.1402(7) 0.8816(5) 0.8600(5)
H35_6 H 0.1734 0.8834 0.8708
C52_6 C 0.1727(6) 0.7815(5) 0.7658(6)
H36_6 H 0.1505 0.7885 0.7913
C53_6 C 0.2148(8) 0.7216(6) 0.7191(8)
H37_6 H 0.2218 0.6885 0.7108
C54_6 C 0.1510(7) 0.9969(5) 0.7726(5)
H38_6 H 0.1278 0.9902 0.7479
C55_6 C 0.1838(7) 0.7326(6) 0.7555(7)
H39_6 H 0.1695 0.7071 0.7741
C56_6 C 0.2228(6) 0.8082(6) 0.7063(6)
C57_6 C 0.1001(7) 0.8803(6) 0.8937(6)
H40_6 H 0.1058 0.879 0.9273
C58_6 C 0.3148(7) 0.8564(8) 0.8430(6)
H41_6 H 0.3369 0.8296 0.8468
C59_6 C 0.2914(7) 0.9372(7) 0.8597(7)
H42_6 H 0.2957 0.9666 0.8775
C60_6 C 0.3234(7) 0.9002(9) 0.8659(7)
H43_6 H 0.3515 0.9042 0.8858
C62_6 C 0.2734(7) 0.8523(6) 0.8142(8)
H45_6 H 0.2661 0.8213 0.8004
C63_6 C 0.2482(8) 0.9386(6) 0.6821(7)
H46_6 H 0.2353 0.9688 0.6936
C65_6 C 0.2476(8) 0.8508(6) 0.6845(6)
C66_6 C 0.2356(9) 0.7596(6) 0.6946(7)
H48_6 H 0.2587 0.7533 0.6697
C67_6 C 0.2809(7) 0.8497(8) 0.6469(8)
H49_6 H 0.2929 0.8196 0.634
C68_6 C 0.2802(9) 0.9410(10) 0.6474(9)
H50_6 H 0.2922 0.9713 0.6352
C69_6 C 0.2959(8) 0.8948(10) 0.6290(8)
H51_6 H 0.3181 0.8949 0.6026
Ru2_6 Ru 0.18375(4) 0.89069(4) 0.75951(4)
N7_7 N 0.8081(4) 0.3180(4) 0.7584(4)
N8_7 N 0.8808(4) 0.3930(3) 0.7799(4)
N9_7 N 0.8701(5) 0.3803(4) 0.6871(4)
C40_7 C 0.9235(5) 0.3826(4) 0.7576(4)
N10_7 N 0.8170(5) 0.4625(4) 0.7169(4)
C41_7 C 0.8819(6) 0.4009(5) 0.8277(5)
H28_7 H 0.8525 0.4101 0.8439
N11_7 N 0.7566(6) 0.3896(5) 0.6949(5)
N12_7 N 0.7692(5) 0.3958(5) 0.7958(5)
C42_7 C 0.9253(6) 0.3958(5) 0.8532(5)
H29_7 H 0.9258 0.4008 0.8869
C43_7 C 0.9674(5) 0.3768(5) 0.7803(5)
H30_7 H 0.9965 0.3688 0.7629
C44_7 C 0.9684(6) 0.3830(5) 0.8285(6)
H31_7 H 0.9984 0.3786 0.8456
C45_7 C 0.9531(8) 0.3810(5) 0.6273(6)
H32_7 H 0.9808 0.3834 0.6064
C46_7 C 0.9189(6) 0.3797(5) 0.7065(5)
C47_7 C 0.9600(7) 0.3783(5) 0.6739(6)
H33_7 H 0.9926 0.3754 0.6862
C48_7 C 0.8518(9) 0.5420(5) 0.7052(7)
H34_7 H 0.8755 0.5658 0.7146
C49_7 C 0.7824(7) 0.4731(5) 0.6833(6)
C50_7 C 0.7476(7) 0.4336(6) 0.6720(7)
C51_7 C 0.8598(7) 0.3816(5) 0.6400(5)
H35_7 H 0.8266 0.3834 0.6292
C52_7 C 0.8273(6) 0.2815(5) 0.7342(6)
H36_7 H 0.8495 0.2885 0.7087
C53_7 C 0.7852(8) 0.2216(6) 0.7809(8)
H37_7 H 0.7782 0.1885 0.7892
C54_7 C 0.8490(7) 0.4969(5) 0.7274(5)
H38_7 H 0.8722 0.4902 0.7521
C55_7 C 0.8162(7) 0.2326(6) 0.7445(7)
H39_7 H 0.8305 0.2071 0.7259
C56_7 C 0.7772(6) 0.3082(6) 0.7937(6)
C57_7 C 0.8999(7) 0.3803(6) 0.6063(6)
H40_7 H 0.8942 0.379 0.5727
C58_7 C 0.6852(7) 0.3564(8) 0.6570(6)
H41_7 H 0.6631 0.3296 0.6532
C59_7 C 0.7086(7) 0.4372(7) 0.6403(7)
H42_7 H 0.7043 0.4666 0.6225
C60_7 C 0.6766(7) 0.4002(9) 0.6341(7)
H43_7 H 0.6485 0.4042 0.6142
C61_7 C 0.7826(8) 0.5176(6) 0.6578(6)
H44_7 H 0.7587 0.5244 0.6336
C62_7 C 0.7266(7) 0.3523(6) 0.6858(8)
H45_7 H 0.7339 0.3213 0.6996
C63_7 C 0.7518(8) 0.4386(6) 0.8179(7)
H46_7 H 0.7647 0.4688 0.8064
C64_7 C 0.8191(9) 0.5508(6) 0.6695(8)
H47_7 H 0.8214 0.5806 0.652
C65_7 C 0.7524(8) 0.3508(6) 0.8155(6)
C66_7 C 0.7644(9) 0.2596(6) 0.8054(7)
H48_7 H 0.7413 0.2533 0.8303
C67_7 C 0.7191(7) 0.3497(8) 0.8531(8)
H49_7 H 0.7071 0.3196 0.866
C68_7 C 0.7198(9) 0.4410(10) 0.8526(9)
H50_7 H 0.7078 0.4713 0.8648
C69_7 C 0.7041(8) 0.3948(10) 0.8710(8)
H51_7 H 0.6819 0.3949 0.8974
Ru2_7 Ru 0.81625(4) 0.39069(4) 0.74049(4)
N7_8 N 0.6919(4) 0.6820(4) 0.2584(4)
N8_8 N 0.6192(4) 0.6070(3) 0.2799(4)
N9_8 N 0.6299(5) 0.6197(4) 0.1871(4)
C40_8 C 0.5765(5) 0.6174(4) 0.2576(4)
N10_8 N 0.6830(5) 0.5375(4) 0.2169(4)
C41_8 C 0.6181(6) 0.5991(5) 0.3277(5)
H28_8 H 0.6475 0.5899 0.3439
N11_8 N 0.7434(6) 0.6104(5) 0.1949(5)
N12_8 N 0.7308(5) 0.6042(5) 0.2958(5)
C42_8 C 0.5747(6) 0.6042(5) 0.3532(5)
H29_8 H 0.5742 0.5992 0.3869
C43_8 C 0.5326(5) 0.6232(5) 0.2803(5)
H30_8 H 0.5035 0.6312 0.2629
C44_8 C 0.5316(6) 0.6170(5) 0.3285(6)
H31_8 H 0.5016 0.6214 0.3456
C45_8 C 0.5469(8) 0.6190(5) 0.1273(6)
H32_8 H 0.5192 0.6166 0.1064
C46_8 C 0.5811(6) 0.6203(5) 0.2065(5)
C47_8 C 0.5400(7) 0.6217(5) 0.1739(6)
H33_8 H 0.5074 0.6246 0.1862
C48_8 C 0.6482(9) 0.4580(5) 0.2052(7)
H34_8 H 0.6245 0.4342 0.2146
C49_8 C 0.7176(7) 0.5269(5) 0.1833(6)
C50_8 C 0.7524(7) 0.5664(6) 0.1720(7)
C51_8 C 0.6402(7) 0.6184(5) 0.1400(5)
H35_8 H 0.6734 0.6166 0.1292
C52_8 C 0.6727(6) 0.7185(5) 0.2342(6)
H36_8 H 0.6505 0.7115 0.2087
C53_8 C 0.7148(8) 0.7784(6) 0.2809(8)
H37_8 H 0.7218 0.8115 0.2892
C54_8 C 0.6510(7) 0.5031(5) 0.2274(5)
H38_8 H 0.6278 0.5098 0.2521
C55_8 C 0.6838(7) 0.7674(6) 0.2445(7)
H39_8 H 0.6695 0.7929 0.2259
C56_8 C 0.7228(6) 0.6918(6) 0.2937(6)
C57_8 C 0.6001(7) 0.6197(6) 0.1063(6)
H40_8 H 0.6058 0.621 0.0727
C58_8 C 0.8148(7) 0.6436(8) 0.1570(6)
H41_8 H 0.8369 0.6704 0.1532
C59_8 C 0.7914(7) 0.5628(7) 0.1403(7)
H42_8 H 0.7957 0.5334 0.1225
C60_8 C 0.8234(7) 0.5998(9) 0.1341(7)
H43_8 H 0.8515 0.5958 0.1142
C61_8 C 0.7174(8) 0.4824(6) 0.1578(6)
H44_8 H 0.7413 0.4756 0.1336
C62_8 C 0.7734(7) 0.6477(6) 0.1858(8)
H45_8 H 0.7661 0.6787 0.1996
C63_8 C 0.7482(8) 0.5614(6) 0.3179(7)
H46_8 H 0.7353 0.5312 0.3064
C64_8 C 0.6809(9) 0.4492(6) 0.1695(8)
H47_8 H 0.6786 0.4194 0.152
C65_8 C 0.7476(8) 0.6492(6) 0.3155(6)
C66_8 C 0.7356(9) 0.7404(6) 0.3054(7)
H48_8 H 0.7587 0.7467 0.3303
C67_8 C 0.7809(7) 0.6503(8) 0.3531(8)
H49_8 H 0.7929 0.6804 0.366
C68_8 C 0.7802(9) 0.5590(10) 0.3526(9)
H50_8 H 0.7922 0.5287 0.3648
C69_8 C 0.7959(8) 0.6052(10) 0.3710(8)
H51_8 H 0.8181 0.6051 0.3974
Ru2_8 Ru 0.68375(4) 0.60931(4) 0.24049(4)
loop_
_geom_bond_atom_site_label_1
_geom_bond_atom_site_label_2
_geom_bond_site_symmetry_1
_geom_bond_site_symmetry_2
O1 Mo3 1_555 1_555
O2 Mo1 1_555 1_555
O3 C1 1_555 1_555
O4 C3 1_555 1_555
O5 C1 1_555 1_555
O6 Mo11 1_555 1_555
O7 C9 1_555 1_555
O8 C3 1_555 1_555
C1 C5 1_555 1_555
C2 C3 1_555 1_555
C4 C5 1_555 1_555
C5 C8 1_555 1_555
C6 C2 1_555 1_555
H1 C6 1_555 1_555
C7 C4 1_555 1_555
C8 C2 1_555 1_555
H2 C8 1_555 1_555
C9 C7 1_555 1_555
O9 C9 1_555 1_555
H3 C4 1_555 1_555
Mo2 O2 1_555 1_555
Mo4 O11 1_555 1_555
Mo5 O11 1_555 1_555
Mo8 O15 1_555 1_555
Mo9 O16 1_555 1_555
Mo10 O10 1_555 1_555
Mo11 O15 1_555 1_555
Mo12 O25 1_555 1_555
Zn1 O10 1_555 1_555
Zn3 O18 1_555 1_555
Zn4 O2 1_555 1_555
P1 O14 1_555 1_555
O14 Mo1 1_555 1_555
O15 Mo10 1_555 1_555
O16 Mo2 1_555 1_555
O18 Mo5 1_555 1_555
O19 Mo4 1_555 1_555
O20 Mo5 1_555 1_555
O23 Mo8 1_555 1_555
O24 Mo3 1_555 1_555
O25 Mo11 1_555 1_555
O26 Mo1 1_555 1_555
O28 Mo11 1_555 1_555
O29 Mo3 1_555 1_555
O30 Mo3 1_555 1_555
O31 Mo4 1_555 1_555
O32 Mo10 1_555 1_555
O33 Mo2 1_555 1_555
O34 Mo9 1_555 1_555
O35 Mo3 1_555 1_555
O36 Mo9 1_555 1_555
O37 Mo8 1_555 1_555
O38 Mo8 1_555 1_555
O39 Mo4 1_555 1_555
O42 Mo5 1_555 1_555
O43 Mo2 1_555 1_555
O44 Mo2 1_555 1_555
O45 Mo12 1_555 1_555
O46 Mo1 1_555 1_555
O48 Zn3 1_555 1_555
O49 Zn3 1_555 1_555
Zn6 O4 1_555 1_555
Zn7 O7 1_555 1_555
O3 Zn4 1_555 1_555
C6 C7 1_555 1_555
O9 Zn7 1_555 1_555
Mo2 O26 1_555 1_555
Mo4 O24 1_555 1_555
Mo4 O35 1_555 1_555
Mo5 O24 1_555 1_555
Mo5 O29 1_555 1_555
Mo8 O18 1_555 1_555
Mo8 O20 1_555 1_555
Mo9 O19 1_555 1_555
Mo9 O31 1_555 1_555
Mo9 O43 1_555 1_555
Mo10 O23 1_555 1_555
Mo11 O32 1_555 1_555
Mo11 O37 1_555 1_555
Mo12 O28 1_555 1_555
Mo12 O33 1_555 1_555
Mo12 O34 1_555 1_555
Mo12 O43 1_555 1_555
Zn1 O26 1_555 1_555
Zn1 O28 1_555 1_555
Zn3 O19 1_555 1_555
Zn3 O25 1_555 1_555
Zn4 O30 1_555 1_555
Zn4 O31 1_555 1_555
P1 O15 1_555 1_555
P1 O24 1_555 1_555
P1 O43 1_555 1_555
Mo7 O17 1_555 1_555
Zn2 O12 1_555 1_555
O12 Mo6 1_555 1_555
O13 Mo6 1_555 1_555
O21 Mo6 1_555 1_555
O22 Mo7 1_555 1_555
O27 Mo6 1_555 1_555
O40 Mo7 1_555 1_555
O47 Zn2 1_555 1_555
Mo7 O21 1_555 1_555
Zn2 O22 1_555 1_555
O6_2 Mo11_2 1_555 1_555
Mo5_2 O11_2 1_555 1_555
Mo6_2 O10_2 1_555 1_555
Mo8_2 O15_2 1_555 1_555
Mo10_2 O10_2 1_555 1_555
Mo11_2 O15_2 1_555 1_555
Mo12_2 O25_2 1_555 1_555
Zn1_2 O10_2 1_555 1_555
Zn2_2 O12_2 1_555 1_555
Zn3_2 O18_2 1_555 1_555
O12_2 Mo6_2 1_555 1_555
O15_2 Mo10_2 1_555 1_555
O18_2 Mo5_2 1_555 1_555
O20_2 Mo5_2 1_555 1_555
O23_2 Mo8_2 1_555 1_555
O25_2 Mo11_2 1_555 1_555
O27_2 Mo6_2 1_555 1_555
O28_2 Mo11_2 1_555 1_555
O32_2 Mo10_2 1_555 1_555
O37_2 Mo8_2 1_555 1_555
O38_2 Mo8_2 1_555 1_555
O41_2 Mo10_2 1_555 1_555
O42_2 Mo5_2 1_555 1_555
O45_2 Mo12_2 1_555 1_555
O47_2 Zn2_2 1_555 1_555
O48_2 Zn3_2 1_555 1_555
O49_2 Zn3_2 1_555 1_555
Mo5_2 O24_2 1_555 1_555
Mo5_2 O29_2 1_555 1_555
Mo8_2 O18_2 1_555 1_555
Mo8_2 O20_2 1_555 1_555
Mo10_2 O12_2 1_555 1_555
Mo10_2 O23_2 1_555 1_555
Mo11_2 O32_2 1_555 1_555
Mo11_2 O37_2 1_555 1_555
Mo12_2 O28_2 1_555 1_555
Zn1_2 O28_2 1_555 1_555
Zn2_2 O20_2 1_555 1_555
Zn3_2 O19_2 1_555 1_555
Zn3_2 O25_2 1_555 1_555
P1_2 O15_2 1_555 1_555
P1_2 O24_2 1_555 1_555
O1_2 Mo3_2 1_555 1_555
O2_2 Mo1_2 1_555 1_555
O3_2 C1_2 1_555 1_555
O4_2 C3_2 1_555 1_555
O5_2 C1_2 1_555 1_555
O7_2 C9_2 1_555 1_555
O8_2 C3_2 1_555 1_555
C1_2 C5_2 1_555 1_555
C2_2 C3_2 1_555 1_555
C4_2 C5_2 1_555 1_555
C5_2 C8_2 1_555 1_555
C6_2 C2_2 1_555 1_555
H1_2 C6_2 1_555 1_555
C7_2 C4_2 1_555 1_555
C8_2 C2_2 1_555 1_555
H2_2 C8_2 1_555 1_555
C9_2 C7_2 1_555 1_555
O9_2 C9_2 1_555 1_555
H3_2 C4_2 1_555 1_555
Mo1_2 O13_2 1_555 1_555
Mo2_2 O2_2 1_555 1_555
Mo3_2 O22_2 1_555 1_555
Mo7_2 O17_2 1_555 1_555
Mo9_2 O16_2 1_555 1_555
Zn4_2 O2_2 1_555 1_555
O14_2 Mo1_2 1_555 1_555
O16_2 Mo2_2 1_555 1_555
O17_2 Mo1_2 1_555 1_555
O22_2 Mo7_2 1_555 1_555
O26_2 Mo1_2 1_555 1_555
O30_2 Mo3_2 1_555 1_555
O31_2 Mo4_2 1_555 1_555
O33_2 Mo2_2 1_555 1_555
O34_2 Mo9_2 1_555 1_555
O35_2 Mo3_2 1_555 1_555
O36_2 Mo9_2 1_555 1_555
O39_2 Mo4_2 1_555 1_555
O40_2 Mo7_2 1_555 1_555
O43_2 Mo2_2 1_555 1_555
O44_2 Mo2_2 1_555 1_555
O46_2 Mo1_2 1_555 1_555
Zn6_2 O4_2 1_555 1_555
Zn7_2 O7_2 1_555 1_555
O3_2 Zn4_2 1_555 1_555
C6_2 C7_2 1_555 1_555
O9_2 Zn7_2 1_555 1_555
Mo2_2 O26_2 1_555 1_555
Mo4_2 O35_2 1_555 1_555
Mo7_2 O21_2 1_555 1_555
Mo7_2 O30_2 1_555 1_555
Mo9_2 O31_2 1_555 1_555
Mo9_2 O43_2 1_555 1_555
Zn4_2 O30_2 1_555 1_555
Zn4_2 O31_2 1_555 1_555
Mo7_3 O17_3 1_555 1_555
O22_3 Mo7_3 1_555 1_555
O40_3 Mo7_3 1_555 1_555
Zn5_3 O13_3 1_555 1_555
Mo7_3 O21_3 1_555 1_555
O1_3 Mo3_3 1_555 1_555
O2_3 Mo1_3 1_555 1_555
O3_3 C1_3 1_555 1_555
O47 C3_3 1_555 1_555
O5_3 C1_3 1_555 1_555
O7_3 C9_3 1_555 1_555
O8_3 C3_3 1_555 1_555
C1_3 C5_3 1_555 1_555
C2_3 C3_3 1_555 1_555
C4_3 C5_3 1_555 1_555
C5_3 C8_3 1_555 1_555
C6_3 C2_3 1_555 1_555
H1_3 C6_3 1_555 1_555
C7_3 C4_3 1_555 1_555
C8_3 C2_3 1_555 1_555
H2_3 C8_3 1_555 1_555
C9_3 C7_3 1_555 1_555
O9_3 C9_3 1_555 1_555
H3_3 C4_3 1_555 1_555
Mo2_3 O2_3 1_555 1_555
Mo9_3 O16_3 1_555 1_555
Zn4_3 O2_3 1_555 1_555
O14_3 Mo1_3 1_555 1_555
O16_3 Mo2_3 1_555 1_555
O26_3 Mo1_3 1_555 1_555
O30_3 Mo3_3 1_555 1_555
O31_3 Mo4_3 1_555 1_555
O33_3 Mo2_3 1_555 1_555
O34_3 Mo9_3 1_555 1_555
O35_3 Mo3_3 1_555 1_555
O36_3 Mo9_3 1_555 1_555
O39_3 Mo4_3 1_555 1_555
O43_3 Mo2_3 1_555 1_555
O44_3 Mo2_3 1_555 1_555
O46_3 Mo1_3 1_555 1_555
Zn7_3 O7_3 1_555 1_555
O3_3 Zn4_3 1_555 1_555
C6_3 C7_3 1_555 1_555
O9_3 Zn7_3 1_555 1_555
Mo2_3 O26_3 1_555 1_555
Mo4_3 O35_3 1_555 1_555
Mo9_3 O31_3 1_555 1_555
Mo9_3 O43_3 1_555 1_555
Zn4_3 O30_3 1_555 1_555
Zn4_3 O31_3 1_555 1_555
Zn6 O12_3 1_555 1_555
O12_3 Mo6_3 1_555 1_555
O27_3 Mo6_3 1_555 1_555
O6_3 Mo11_3 1_555 1_555
Mo5_3 O11_3 1_555 1_555
Mo8_3 O15_3 1_555 1_555
Mo10_3 O10_3 1_555 1_555
Mo11_3 O15_3 1_555 1_555
Mo12_3 O25_3 1_555 1_555
Zn1_3 O10_3 1_555 1_555
Zn3_3 O18_3 1_555 1_555
O15_3 Mo10_3 1_555 1_555
O18_3 Mo5_3 1_555 1_555
O20_3 Mo5_3 1_555 1_555
O23_3 Mo8_3 1_555 1_555
O25_3 Mo11_3 1_555 1_555
O28_3 Mo11_3 1_555 1_555
O32_3 Mo10_3 1_555 1_555
O37_3 Mo8_3 1_555 1_555
O38_3 Mo8_3 1_555 1_555
O42_3 Mo5_3 1_555 1_555
O45_3 Mo12_3 1_555 1_555
O48_3 Zn3_3 1_555 1_555
O49_3 Zn3_3 1_555 1_555
O50_3 Zn1_3 1_555 1_555
Mo5_3 O24_3 1_555 1_555
Mo5_3 O29_3 1_555 1_555
Mo8_3 O18_3 1_555 1_555
Mo8_3 O20_3 1_555 1_555
Mo10_3 O23_3 1_555 1_555
Mo11_3 O32_3 1_555 1_555
Mo11_3 O37_3 1_555 1_555
Mo12_3 O28_3 1_555 1_555
Zn1_3 O28_3 1_555 1_555
Zn3_3 O19_3 1_555 1_555
Zn3_3 O25_3 1_555 1_555
P1_3 O15_3 1_555 1_555
P1_3 O24_3 1_555 1_555
O1_4 Mo3_4 1_555 1_555
O2_4 Mo1_4 1_555 1_555
O3_4 C1_4 1_555 1_555
O47_2 C3_4 1_555 1_555
O5_4 C1_4 1_555 1_555
O6_4 Mo11_4 1_555 1_555
O7_4 C9_4 1_555 1_555
O8_4 C3_4 1_555 1_555
C1_4 C5_4 1_555 1_555
C2_4 C3_4 1_555 1_555
C4_4 C5_4 1_555 1_555
C5_4 C8_4 1_555 1_555
C6_4 C2_4 1_555 1_555
H1_4 C6_4 1_555 1_555
C7_4 C4_4 1_555 1_555
C8_4 C2_4 1_555 1_555
H2_4 C8_4 1_555 1_555
C9_4 C7_4 1_555 1_555
O9_4 C9_4 1_555 1_555
H3_4 C4_4 1_555 1_555
Mo1_4 O13_4 1_555 1_555
Mo2_4 O2_4 1_555 1_555
Mo3_4 O22_4 1_555 1_555
Mo4_4 O11_4 1_555 1_555
Mo5_4 O11_4 1_555 1_555
Mo6_4 O10_4 1_555 1_555
Mo7_4 O17_4 1_555 1_555
Mo8_4 O15_4 1_555 1_555
Mo9_4 O16_4 1_555 1_555
Mo10_4 O10_4 1_555 1_555
Mo11_4 O15_4 1_555 1_555
Mo12_4 O25_4 1_555 1_555
Zn1_4 O10_4 1_555 1_555
Zn6_2 O12_4 1_555 1_555
Zn3_4 O18_4 1_555 1_555
Zn4_4 O2_4 1_555 1_555
P1_4 O14_4 1_555 1_555
O12_4 Mo6_4 1_555 1_555
O13_4 Mo6_4 1_555 1_555
O14_4 Mo1_4 1_555 1_555
O15_4 Mo10_4 1_555 1_555
O16_4 Mo2_4 1_555 1_555
O17_4 Mo1_4 1_555 1_555
O18_4 Mo5_4 1_555 1_555
O19_4 Mo4_4 1_555 1_555
O20_4 Mo5_4 1_555 1_555
O21_4 Mo6_4 1_555 1_555
O22_4 Mo7_4 1_555 1_555
O23_4 Mo8_4 1_555 1_555
O24_4 Mo3_4 1_555 1_555
O25_4 Mo11_4 1_555 1_555
O26_4 Mo1_4 1_555 1_555
O27_4 Mo6_4 1_555 1_555
O28_4 Mo11_4 1_555 1_555
O29_4 Mo3_4 1_555 1_555
O30_4 Mo3_4 1_555 1_555
O31_4 Mo4_4 1_555 1_555
O32_4 Mo10_4 1_555 1_555
O33_4 Mo2_4 1_555 1_555
O34_4 Mo9_4 1_555 1_555
O35_4 Mo3_4 1_555 1_555
O36_4 Mo9_4 1_555 1_555
O37_4 Mo8_4 1_555 1_555
O38_4 Mo8_4 1_555 1_555
O39_4 Mo4_4 1_555 1_555
O40_4 Mo7_4 1_555 1_555
O41_4 Mo10_4 1_555 1_555
O42_4 Mo5_4 1_555 1_555
O43_4 Mo2_4 1_555 1_555
O44_4 Mo2_4 1_555 1_555
O45_4 Mo12_4 1_555 1_555
O46_4 Mo1_4 1_555 1_555
O48_4 Zn3_4 1_555 1_555
O49_4 Zn3_4 1_555 1_555
Zn5_4 O13_4 1_555 1_555
Zn7_4 O7_4 1_555 1_555
O50_4 Zn1_4 1_555 1_555
O3_4 Zn4_4 1_555 1_555
C6_4 C7_4 1_555 1_555
O9_4 Zn7_4 1_555 1_555
Mo2_4 O26_4 1_555 1_555
Mo4_4 O24_4 1_555 1_555
Mo4_4 O35_4 1_555 1_555
Mo5_4 O24_4 1_555 1_555
Mo5_4 O29_4 1_555 1_555
Mo6_4 O14_4 1_555 1_555
Mo7_4 O21_4 1_555 1_555
Mo7_4 O30_4 1_555 1_555
Mo8_4 O18_4 1_555 1_555
Mo8_4 O20_4 1_555 1_555
Mo9_4 O19_4 1_555 1_555
Mo9_4 O31_4 1_555 1_555
Mo9_4 O43_4 1_555 1_555
Mo10_4 O12_4 1_555 1_555
Mo10_4 O23_4 1_555 1_555
Mo11_4 O32_4 1_555 1_555
Mo11_4 O37_4 1_555 1_555
Mo12_4 O28_4 1_555 1_555
Mo12_4 O33_4 1_555 1_555
Mo12_4 O34_4 1_555 1_555
Mo12_4 O43_4 1_555 1_555
Zn1_4 O26_4 1_555 1_555
Zn1_4 O28_4 1_555 1_555
Zn6_2 O20_4 1_555 1_555
Zn6_2 O22_4 1_555 1_555
Zn3_4 O19_4 1_555 1_555
Zn3_4 O25_4 1_555 1_555
Zn4_4 O30_4 1_555 1_555
Zn4_4 O31_4 1_555 1_555
P1_4 O15_4 1_555 1_555
P1_4 O24_4 1_555 1_555
P1_4 O43_4 1_555 1_555
Mo7_5 O17_5 1_555 1_555
Zn2_3 O12_5 1_555 1_555
O12_5 Mo6_5 1_555 1_555
O50 Mo6_5 1_555 1_555
O21_5 Mo6_5 1_555 1_555
O22_5 Mo7_5 1_555 1_555
O27_5 Mo6_5 1_555 1_555
O40_5 Mo7_5 1_555 1_555
O47_3 Zn2_3 1_555 1_555
Mo7_5 O21_5 1_555 1_555
Zn2_3 O22_5 1_555 1_555
O1_5 Mo3_5 1_555 1_555
O2_5 Mo1_5 1_555 1_555
O3_5 C1_5 1_555 1_555
O4_3 C3_5 1_555 1_555
O5_5 C1_5 1_555 1_555
O6_5 Mo11_5 1_555 1_555
O48_2 C9_5 1_555 1_555
O8_5 C3_5 1_555 1_555
C1_5 C5_5 1_555 1_555
C2_5 C3_5 1_555 1_555
C4_5 C5_5 1_555 1_555
C5_5 C8_5 1_555 1_555
C6_5 C2_5 1_555 1_555
H1_5 C6_5 1_555 1_555
C7_5 C4_5 1_555 1_555
C8_5 C2_5 1_555 1_555
H2_5 C8_5 1_555 1_555
C9_5 C7_5 1_555 1_555
O49_2 C9_5 1_555 1_555
H3_5 C4_5 1_555 1_555
Mo2_5 O2_5 1_555 1_555
Mo4_5 O11_5 1_555 1_555
Mo5_5 O11_5 1_555 1_555
Mo8_5 O15_5 1_555 1_555
Mo9_5 O16_5 1_555 1_555
Mo10_5 O10_5 1_555 1_555
Mo11_5 O15_5 1_555 1_555
Mo12_5 O25_5 1_555 1_555
Zn5 O10_5 1_555 1_555
Zn7_2 O18_5 1_555 1_555
Zn4_5 O2_5 1_555 1_555
P1_5 O14_5 1_555 1_555
O14_5 Mo1_5 1_555 1_555
O15_5 Mo10_5 1_555 1_555
O16_5 Mo2_5 1_555 1_555
O18_5 Mo5_5 1_555 1_555
O19_5 Mo4_5 1_555 1_555
O20_5 Mo5_5 1_555 1_555
O23_5 Mo8_5 1_555 1_555
O24_5 Mo3_5 1_555 1_555
O25_5 Mo11_5 1_555 1_555
O26_5 Mo1_5 1_555 1_555
O28_5 Mo11_5 1_555 1_555
O29_5 Mo3_5 1_555 1_555
O30_5 Mo3_5 1_555 1_555
O31_5 Mo4_5 1_555 1_555
O32_5 Mo10_5 1_555 1_555
O33_5 Mo2_5 1_555 1_555
O34_5 Mo9_5 1_555 1_555
O35_5 Mo3_5 1_555 1_555
O36_5 Mo9_5 1_555 1_555
O37_5 Mo8_5 1_555 1_555
O38_5 Mo8_5 1_555 1_555
O39_5 Mo4_5 1_555 1_555
O42_5 Mo5_5 1_555 1_555
O43_5 Mo2_5 1_555 1_555
O44_5 Mo2_5 1_555 1_555
O45_5 Mo12_5 1_555 1_555
O46_5 Mo1_5 1_555 1_555
Zn6_3 O4_3 1_555 1_555
O3_5 Zn4_5 1_555 1_555
C6_5 C7_5 1_555 1_555
Mo2_5 O26_5 1_555 1_555
Mo4_5 O24_5 1_555 1_555
Mo4_5 O35_5 1_555 1_555
Mo5_5 O24_5 1_555 1_555
Mo5_5 O29_5 1_555 1_555
Mo8_5 O18_5 1_555 1_555
Mo8_5 O20_5 1_555 1_555
Mo9_5 O19_5 1_555 1_555
Mo9_5 O31_5 1_555 1_555
Mo9_5 O43_5 1_555 1_555
Mo10_5 O23_5 1_555 1_555
Mo11_5 O32_5 1_555 1_555
Mo11_5 O37_5 1_555 1_555
Mo12_5 O28_5 1_555 1_555
Mo12_5 O33_5 1_555 1_555
Mo12_5 O34_5 1_555 1_555
Mo12_5 O43_5 1_555 1_555
Zn5 O26_5 1_555 1_555
Zn5 O28_5 1_555 1_555
Zn7_2 O19_5 1_555 1_555
Zn7_2 O25_5 1_555 1_555
Zn4_5 O30_5 1_555 1_555
Zn4_5 O31_5 1_555 1_555
P1_5 O15_5 1_555 1_555
P1_5 O24_5 1_555 1_555
P1_5 O43_5 1_555 1_555
O1_6 Mo3_6 1_555 1_555
O2_6 Mo1_6 1_555 1_555
O3_6 C1_6 1_555 1_555
O4_4 C3_6 1_555 1_555
O5_6 C1_6 1_555 1_555
O48 C9_6 1_555 1_555
O8_6 C3_6 1_555 1_555
C1_6 C5_6 1_555 1_555
C2_6 C3_6 1_555 1_555
C4_6 C5_6 1_555 1_555
C5_6 C8_6 1_555 1_555
C6_6 C2_6 1_555 1_555
H1_6 C6_6 1_555 1_555
C7_6 C4_6 1_555 1_555
C8_6 C2_6 1_555 1_555
H2_6 C8_6 1_555 1_555
C9_6 C7_6 1_555 1_555
O49 C9_6 1_555 1_555
H3_6 C4_6 1_555 1_555
Mo1_6 O50_2 1_555 1_555
Mo2_6 O2_6 1_555 1_555
Mo3_6 O22_6 1_555 1_555
Mo7_6 O17_6 1_555 1_555
Mo9_6 O16_6 1_555 1_555
Zn4_6 O2_6 1_555 1_555
O14_6 Mo1_6 1_555 1_555
O16_6 Mo2_6 1_555 1_555
O17_6 Mo1_6 1_555 1_555
O22_6 Mo7_6 1_555 1_555
O26_6 Mo1_6 1_555 1_555
O30_6 Mo3_6 1_555 1_555
O31_6 Mo4_6 1_555 1_555
O33_6 Mo2_6 1_555 1_555
O34_6 Mo9_6 1_555 1_555
O35_6 Mo3_6 1_555 1_555
O36_6 Mo9_6 1_555 1_555
O39_6 Mo4_6 1_555 1_555
O40_6 Mo7_6 1_555 1_555
O43_6 Mo2_6 1_555 1_555
O44_6 Mo2_6 1_555 1_555
O46_6 Mo1_6 1_555 1_555
Zn6_4 O4_4 1_555 1_555
O3_6 Zn4_6 1_555 1_555
C6_6 C7_6 1_555 1_555
Mo2_6 O26_6 1_555 1_555
Mo4_6 O35_6 1_555 1_555
Mo7_6 O21_6 1_555 1_555
Mo7_6 O30_6 1_555 1_555
Mo9_6 O31_6 1_555 1_555
Mo9_6 O43_6 1_555 1_555
Zn4_6 O30_6 1_555 1_555
Zn4_6 O31_6 1_555 1_555
O6_6 Mo11_6 1_555 1_555
Mo5_6 O11_6 1_555 1_555
Mo6_6 O10_6 1_555 1_555
Mo8_6 O15_6 1_555 1_555
Mo10_6 O10_6 1_555 1_555
Mo11_6 O15_6 1_555 1_555
Mo12_6 O25_6 1_555 1_555
Zn5_2 O10_6 1_555 1_555
Zn2_4 O12_6 1_555 1_555
Zn7 O18_6 1_555 1_555
O12_6 Mo6_6 1_555 1_555
O15_6 Mo10_6 1_555 1_555
O18_6 Mo5_6 1_555 1_555
O20_6 Mo5_6 1_555 1_555
O23_6 Mo8_6 1_555 1_555
O25_6 Mo11_6 1_555 1_555
O27_6 Mo6_6 1_555 1_555
O28_6 Mo11_6 1_555 1_555
O32_6 Mo10_6 1_555 1_555
O37_6 Mo8_6 1_555 1_555
O38_6 Mo8_6 1_555 1_555
O41_6 Mo10_6 1_555 1_555
O42_6 Mo5_6 1_555 1_555
O45_6 Mo12_6 1_555 1_555
O47_4 Zn2_4 1_555 1_555
Mo5_6 O24_6 1_555 1_555
Mo5_6 O29_6 1_555 1_555
Mo8_6 O18_6 1_555 1_555
Mo8_6 O20_6 1_555 1_555
Mo10_6 O12_6 1_555 1_555
Mo10_6 O23_6 1_555 1_555
Mo11_6 O32_6 1_555 1_555
Mo11_6 O37_6 1_555 1_555
Mo12_6 O28_6 1_555 1_555
Zn5_2 O28_6 1_555 1_555
Zn2_4 O20_6 1_555 1_555
Zn7 O19_6 1_555 1_555
Zn7 O25_6 1_555 1_555
P1_6 O15_6 1_555 1_555
P1_6 O24_6 1_555 1_555
O6_7 Mo11_7 1_555 1_555
Mo5_7 O11_7 1_555 1_555
Mo8_7 O15_7 1_555 1_555
Mo10_7 O10_7 1_555 1_555
Mo11_7 O15_7 1_555 1_555
Mo12_7 O25_7 1_555 1_555
Zn5_3 O10_7 1_555 1_555
Zn7_4 O18_7 1_555 1_555
O15_7 Mo10_7 1_555 1_555
O18_7 Mo5_7 1_555 1_555
O20_7 Mo5_7 1_555 1_555
O23_7 Mo8_7 1_555 1_555
O25_7 Mo11_7 1_555 1_555
O28_7 Mo11_7 1_555 1_555
O32_7 Mo10_7 1_555 1_555
O37_7 Mo8_7 1_555 1_555
O38_7 Mo8_7 1_555 1_555
O42_7 Mo5_7 1_555 1_555
O45_7 Mo12_7 1_555 1_555
Mo5_7 O24_7 1_555 1_555
Mo5_7 O29_7 1_555 1_555
Mo8_7 O18_7 1_555 1_555
Mo8_7 O20_7 1_555 1_555
Mo10_7 O23_7 1_555 1_555
Mo11_7 O32_7 1_555 1_555
Mo11_7 O37_7 1_555 1_555
Mo12_7 O28_7 1_555 1_555
Zn5_3 O28_7 1_555 1_555
Zn7_4 O19_7 1_555 1_555
Zn7_4 O25_7 1_555 1_555
P1_7 O15_7 1_555 1_555
P1_7 O24_7 1_555 1_555
Zn6_3 O12_7 1_555 1_555
O12_7 Mo6_7 1_555 1_555
O27_7 Mo6_7 1_555 1_555
O1_7 Mo3_7 1_555 1_555
O2_7 Mo1_7 1_555 1_555
O3_7 C1_7 1_555 1_555
O47_3 C3_7 1_555 1_555
O5_7 C1_7 1_555 1_555
O48_4 C9_7 1_555 1_555
O8_7 C3_7 1_555 1_555
C1_7 C5_7 1_555 1_555
C2_7 C3_7 1_555 1_555
C4_7 C5_7 1_555 1_555
C5_7 C8_7 1_555 1_555
C6_7 C2_7 1_555 1_555
H1_7 C6_7 1_555 1_555
C7_7 C4_7 1_555 1_555
C8_7 C2_7 1_555 1_555
H2_7 C8_7 1_555 1_555
C9_7 C7_7 1_555 1_555
O49_4 C9_7 1_555 1_555
H3_7 C4_7 1_555 1_555
Mo2_7 O2_7 1_555 1_555
Mo9_7 O16_7 1_555 1_555
Zn4_7 O2_7 1_555 1_555
O14_7 Mo1_7 1_555 1_555
O16_7 Mo2_7 1_555 1_555
O26_7 Mo1_7 1_555 1_555
O30_7 Mo3_7 1_555 1_555
O31_7 Mo4_7 1_555 1_555
O33_7 Mo2_7 1_555 1_555
O34_7 Mo9_7 1_555 1_555
O35_7 Mo3_7 1_555 1_555
O36_7 Mo9_7 1_555 1_555
O39_7 Mo4_7 1_555 1_555
O43_7 Mo2_7 1_555 1_555
O44_7 Mo2_7 1_555 1_555
O46_7 Mo1_7 1_555 1_555
O3_7 Zn4_7 1_555 1_555
C6_7 C7_7 1_555 1_555
Mo2_7 O26_7 1_555 1_555
Mo4_7 O35_7 1_555 1_555
Mo9_7 O31_7 1_555 1_555
Mo9_7 O43_7 1_555 1_555
Zn4_7 O30_7 1_555 1_555
Zn4_7 O31_7 1_555 1_555
Mo7_7 O17_7 1_555 1_555
O22_7 Mo7_7 1_555 1_555
O40_7 Mo7_7 1_555 1_555
Mo7_7 O21_7 1_555 1_555
O1_8 Mo3_8 1_555 1_555
O2_8 Mo1_8 1_555 1_555
O3_8 C1_8 1_555 1_555
O47_4 C3_8 1_555 1_555
O5_8 C1_8 1_555 1_555
O6_8 Mo11_8 1_555 1_555
O48_3 C9_8 1_555 1_555
O8_8 C3_8 1_555 1_555
C1_8 C5_8 1_555 1_555
C2_8 C3_8 1_555 1_555
C4_8 C5_8 1_555 1_555
C5_8 C8_8 1_555 1_555
C6_8 C2_8 1_555 1_555
H1_8 C6_8 1_555 1_555
C7_8 C4_8 1_555 1_555
C8_8 C2_8 1_555 1_555
H2_8 C8_8 1_555 1_555
C9_8 C7_8 1_555 1_555
O49_3 C9_8 1_555 1_555
H3_8 C4_8 1_555 1_555
Mo1_8 O50_4 1_555 1_555
Mo2_8 O2_8 1_555 1_555
Mo3_8 O22_8 1_555 1_555
Mo4_8 O11_8 1_555 1_555
Mo5_8 O11_8 1_555 1_555
Mo6_8 O10_8 1_555 1_555
Mo7_8 O17_8 1_555 1_555
Mo8_8 O15_8 1_555 1_555
Mo9_8 O16_8 1_555 1_555
Mo10_8 O10_8 1_555 1_555
Mo11_8 O15_8 1_555 1_555
Mo12_8 O25_8 1_555 1_555
Zn5_4 O10_8 1_555 1_555
Zn6_4 O12_8 1_555 1_555
Zn7_3 O18_8 1_555 1_555
Zn4_8 O2_8 1_555 1_555
P1_8 O14_8 1_555 1_555
O12_8 Mo6_8 1_555 1_555
O50_4 Mo6_8 1_555 1_555
O14_8 Mo1_8 1_555 1_555
O15_8 Mo10_8 1_555 1_555
O16_8 Mo2_8 1_555 1_555
O17_8 Mo1_8 1_555 1_555
O18_8 Mo5_8 1_555 1_555
O19_8 Mo4_8 1_555 1_555
O20_8 Mo5_8 1_555 1_555
O21_8 Mo6_8 1_555 1_555
O22_8 Mo7_8 1_555 1_555
O23_8 Mo8_8 1_555 1_555
O24_8 Mo3_8 1_555 1_555
O25_8 Mo11_8 1_555 1_555
O26_8 Mo1_8 1_555 1_555
O27_8 Mo6_8 1_555 1_555
O28_8 Mo11_8 1_555 1_555
O29_8 Mo3_8 1_555 1_555
O30_8 Mo3_8 1_555 1_555
O31_8 Mo4_8 1_555 1_555
O32_8 Mo10_8 1_555 1_555
O33_8 Mo2_8 1_555 1_555
O34_8 Mo9_8 1_555 1_555
O35_8 Mo3_8 1_555 1_555
O36_8 Mo9_8 1_555 1_555
O37_8 Mo8_8 1_555 1_555
O38_8 Mo8_8 1_555 1_555
O39_8 Mo4_8 1_555 1_555
O40_8 Mo7_8 1_555 1_555
O41_8 Mo10_8 1_555 1_555
O42_8 Mo5_8 1_555 1_555
O43_8 Mo2_8 1_555 1_555
O44_8 Mo2_8 1_555 1_555
O45_8 Mo12_8 1_555 1_555
O46_8 Mo1_8 1_555 1_555
O3_8 Zn4_8 1_555 1_555
C6_8 C7_8 1_555 1_555
Mo2_8 O26_8 1_555 1_555
Mo4_8 O24_8 1_555 1_555
Mo4_8 O35_8 1_555 1_555
Mo5_8 O24_8 1_555 1_555
Mo5_8 O29_8 1_555 1_555
Mo6_8 O14_8 1_555 1_555
Mo7_8 O21_8 1_555 1_555
Mo7_8 O30_8 1_555 1_555
Mo8_8 O18_8 1_555 1_555
Mo8_8 O20_8 1_555 1_555
Mo9_8 O19_8 1_555 1_555
Mo9_8 O31_8 1_555 1_555
Mo9_8 O43_8 1_555 1_555
Mo10_8 O12_8 1_555 1_555
Mo10_8 O23_8 1_555 1_555
Mo11_8 O32_8 1_555 1_555
Mo11_8 O37_8 1_555 1_555
Mo12_8 O28_8 1_555 1_555
Mo12_8 O33_8 1_555 1_555
Mo12_8 O34_8 1_555 1_555
Mo12_8 O43_8 1_555 1_555
Zn5_4 O26_8 1_555 1_555
Zn5_4 O28_8 1_555 1_555
Zn6_4 O20_8 1_555 1_555
Zn6_4 O22_8 1_555 1_555
Zn7_3 O19_8 1_555 1_555
Zn7_3 O25_8 1_555 1_555
Zn4_8 O30_8 1_555 1_555
Zn4_8 O31_8 1_555 1_555
P1_8 O15_8 1_555 1_555
P1_8 O24_8 1_555 1_555
P1_8 O43_8 1_555 1_555
H18 C28 1_555 1_555
H24 C36 1_555 1_555
H25 C37 1_555 1_555
H26 C38 1_555 1_555
H27 C39 1_555 1_555
C36 C37 1_555 1_555
C38 C39 1_555 1_555
N1 C10 1_555 1_555
N2 C30 1_555 1_555
C10 C11 1_555 1_555
C11 C19 1_555 1_555
C12 C13 1_555 1_555
C13 H4 1_555 1_555
C14 H5 1_555 1_555
C15 C12 1_555 1_555
C17 C14 1_555 1_555
H7 C17 1_555 1_555
C18 C13 1_555 1_555
H8 C18 1_555 1_555
C19 H9 1_555 1_555
C20 C15 1_555 1_555
H10 C20 1_555 1_555
C21 H11 1_555 1_555
C22 N1 1_555 1_555
H12 C22 1_555 1_555
C23 C10 1_555 1_555
H13 C23 1_555 1_555
C24 C22 1_555 1_555
H14 C24 1_555 1_555
C25 C19 1_555 1_555
C26 C17 1_555 1_555
H16 C26 1_555 1_555
C27 C23 1_555 1_555
H17 C27 1_555 1_555
C29 C18 1_555 1_555
H19 C29 1_555 1_555
C30 H20 1_555 1_555
C31 C29 1_555 1_555
H21 C31 1_555 1_555
C32 C33 1_555 1_555
C33 N2 1_555 1_555
C34 C30 1_555 1_555
H22 C34 1_555 1_555
C35 C21 1_555 1_555
H23 C35 1_555 1_555
Ru1 N1 1_555 1_555
N3 C14 1_555 1_555
N4 C12 1_555 1_555
N5 C21 1_555 1_555
N6 C11 1_555 1_555
N2 Ru1 1_555 1_555
C15 N3 1_555 1_555
C16 N6 1_555 1_555
C20 C26 1_555 1_555
C24 C27 1_555 1_555
C31 N4 1_555 1_555
C32 N5 1_555 1_555
Ru1 N3 1_555 1_555
Ru1 N4 1_555 1_555
Ru1 N5 1_555 1_555
Ru1 N6 1_555 1_555
C19_2 H9_2 1_555 1_555
C25_2 C19_2 1_555 1_555
H15_2 C25_2 1_555 1_555
H18_2 C28_2 1_555 1_555
C25_2 C28_2 1_555 1_555
N1_2 C10_2 1_555 1_555
N2_2 C30_2 1_555 1_555
C10_2 C11_2 1_555 1_555
C12_2 C13_2 1_555 1_555
C13_2 H4_2 1_555 1_555
C14_2 H5_2 1_555 1_555
C15_2 C12_2 1_555 1_555
C16_2 H6_2 1_555 1_555
C17_2 C14_2 1_555 1_555
H7_2 C17_2 1_555 1_555
C18_2 C13_2 1_555 1_555
H8_2 C18_2 1_555 1_555
C20_2 C15_2 1_555 1_555
H10_2 C20_2 1_555 1_555
C21_2 H11_2 1_555 1_555
C22_2 N1_2 1_555 1_555
H12_2 C22_2 1_555 1_555
C23_2 C10_2 1_555 1_555
C24_2 C22_2 1_555 1_555
H14_2 C24_2 1_555 1_555
C26_2 C17_2 1_555 1_555
H16_2 C26_2 1_555 1_555
C27_2 C23_2 1_555 1_555
H17_2 C27_2 1_555 1_555
C29_2 C18_2 1_555 1_555
C30_2 H20_2 1_555 1_555
C31_2 C29_2 1_555 1_555
H21_2 C31_2 1_555 1_555
C32_2 C33_2 1_555 1_555
C33_2 N2_2 1_555 1_555
C34_2 C30_2 1_555 1_555
H22_2 C34_2 1_555 1_555
C35_2 C21_2 1_555 1_555
H23_2 C35_2 1_555 1_555
C36_2 C35_2 1_555 1_555
H24_2 C36_2 1_555 1_555
C37_2 C32_2 1_555 1_555
H25_2 C37_2 1_555 1_555
C38_2 C33_2 1_555 1_555
H26_2 C38_2 1_555 1_555
C39_2 C34_2 1_555 1_555
H27_2 C39_2 1_555 1_555
Ru1_2 N1_2 1_555 1_555
N3_2 C14_2 1_555 1_555
N4_2 C12_2 1_555 1_555
N5_2 C21_2 1_555 1_555
N6_2 C11_2 1_555 1_555
N2_2 Ru1_2 1_555 1_555
C15_2 N3_2 1_555 1_555
C16_2 N6_2 1_555 1_555
C20_2 C26_2 1_555 1_555
C24_2 C27_2 1_555 1_555
C31_2 N4_2 1_555 1_555
C32_2 N5_2 1_555 1_555
C36_2 C37_2 1_555 1_555
C38_2 C39_2 1_555 1_555
Ru1_2 N3_2 1_555 1_555
Ru1_2 N4_2 1_555 1_555
Ru1_2 N5_2 1_555 1_555
Ru1_2 N6_2 1_555 1_555
H8_3 C18_3 1_555 1_555
C30_3 H20_3 1_555 1_555
C34_3 C30_3 1_555 1_555
H22_3 C34_3 1_555 1_555
H27_3 C39_3 1_555 1_555
N1_3 C10_3 1_555 1_555
C10_3 C11_3 1_555 1_555
C12_3 C13_3 1_555 1_555
C13_3 H4_3 1_555 1_555
C14_3 H5_3 1_555 1_555
C15_3 C12_3 1_555 1_555
C17_3 C14_3 1_555 1_555
H7_3 C17_3 1_555 1_555
C20_3 C15_3 1_555 1_555
H10_3 C20_3 1_555 1_555
C21_3 H11_3 1_555 1_555
C22_3 N1_3 1_555 1_555
H12_3 C22_3 1_555 1_555
C23_3 C10_3 1_555 1_555
C24_3 C22_3 1_555 1_555
H14_3 C24_3 1_555 1_555
C26_3 C17_3 1_555 1_555
H16_3 C26_3 1_555 1_555
C27_3 C23_3 1_555 1_555
H17_3 C27_3 1_555 1_555
C31_3 C29_3 1_555 1_555
H21_3 C31_3 1_555 1_555
C32_3 C33_3 1_555 1_555
C33_3 N2_3 1_555 1_555
C35_3 C21_3 1_555 1_555
H23_3 C35_3 1_555 1_555
Ru1_3 N1_3 1_555 1_555
N3_3 C14_3 1_555 1_555
N4_3 C12_3 1_555 1_555
N5_3 C21_3 1_555 1_555
N6_3 C11_3 1_555 1_555
N2_3 Ru1_3 1_555 1_555
C15_3 N3_3 1_555 1_555
C16_3 N6_3 1_555 1_555
C20_3 C26_3 1_555 1_555
C24_3 C27_3 1_555 1_555
C31_3 N4_3 1_555 1_555
C32_3 N5_3 1_555 1_555
Ru1_3 N3_3 1_555 1_555
Ru1_3 N4_3 1_555 1_555
Ru1_3 N5_3 1_555 1_555
Ru1_3 N6_3 1_555 1_555
H24_3 C36_3 1_555 1_555
H25_3 C37_3 1_555 1_555
H26_3 C38_3 1_555 1_555
C36_3 C37_3 1_555 1_555
C19_3 H9_3 1_555 1_555
C25_3 C19_3 1_555 1_555
H18_3 C28_3 1_555 1_555
N1_4 C10_4 1_555 1_555
C10_4 C11_4 1_555 1_555
C11_4 C19_4 1_555 1_555
C12_4 C13_4 1_555 1_555
C13_4 H4_4 1_555 1_555
C14_4 H5_4 1_555 1_555
C15_4 C12_4 1_555 1_555
C16_4 H6_4 1_555 1_555
C17_4 C14_4 1_555 1_555
H7_4 C17_4 1_555 1_555
C19_4 H9_4 1_555 1_555
C20_4 C15_4 1_555 1_555
H10_4 C20_4 1_555 1_555
C21_4 H11_4 1_555 1_555
C22_4 N1_4 1_555 1_555
H12_4 C22_4 1_555 1_555
C23_4 C10_4 1_555 1_555
H13_4 C23_4 1_555 1_555
C24_4 C22_4 1_555 1_555
H14_4 C24_4 1_555 1_555
C25_4 C19_4 1_555 1_555
H15_4 C25_4 1_555 1_555
C26_4 C17_4 1_555 1_555
H16_4 C26_4 1_555 1_555
C27_4 C23_4 1_555 1_555
H17_4 C27_4 1_555 1_555
C28_4 C16_4 1_555 1_555
H18_4 C28_4 1_555 1_555
C31_4 C29_4 1_555 1_555
H21_4 C31_4 1_555 1_555
C32_4 C33_4 1_555 1_555
C33_4 N2_4 1_555 1_555
C35_4 C21_4 1_555 1_555
H23_4 C35_4 1_555 1_555
C36_4 C35_4 1_555 1_555
H24_4 C36_4 1_555 1_555
C37_4 C32_4 1_555 1_555
H25_4 C37_4 1_555 1_555
C38_4 C33_4 1_555 1_555
H26_4 C38_4 1_555 1_555
Ru1_4 N1_4 1_555 1_555
N3_4 C14_4 1_555 1_555
N4_4 C12_4 1_555 1_555
N5_4 C21_4 1_555 1_555
N6_4 C11_4 1_555 1_555
N2_4 Ru1_4 1_555 1_555
C15_4 N3_4 1_555 1_555
C16_4 N6_4 1_555 1_555
C20_4 C26_4 1_555 1_555
C24_4 C27_4 1_555 1_555
C25_4 C28_4 1_555 1_555
C31_4 N4_4 1_555 1_555
C32_4 N5_4 1_555 1_555
C36_4 C37_4 1_555 1_555
Ru1_4 N3_4 1_555 1_555
Ru1_4 N4_4 1_555 1_555
Ru1_4 N5_4 1_555 1_555
Ru1_4 N6_4 1_555 1_555
H8_4 C18_4 1_555 1_555
C30_4 H20_4 1_555 1_555
C34_4 C30_4 1_555 1_555
H22_4 C34_4 1_555 1_555
C39_4 C34_4 1_555 1_555
H27_4 C39_4 1_555 1_555
N1_5 C10_5 1_555 1_555
N2_5 C30_5 1_555 1_555
C10_5 C11_5 1_555 1_555
C11_5 C19_5 1_555 1_555
C12_5 C13_5 1_555 1_555
C13_5 H4_5 1_555 1_555
C14_5 H5_5 1_555 1_555
C15_5 C12_5 1_555 1_555
C17_5 C14_5 1_555 1_555
H7_5 C17_5 1_555 1_555
C18_5 C13_5 1_555 1_555
H8_5 C18_5 1_555 1_555
C19_5 H9_5 1_555 1_555
C20_5 C15_5 1_555 1_555
H10_5 C20_5 1_555 1_555
C21_5 H11_5 1_555 1_555
C22_5 N1_5 1_555 1_555
H12_5 C22_5 1_555 1_555
C23_5 C10_5 1_555 1_555
H13_5 C23_5 1_555 1_555
C24_5 C22_5 1_555 1_555
H14_5 C24_5 1_555 1_555
C25_5 C19_5 1_555 1_555
C26_5 C17_5 1_555 1_555
H16_5 C26_5 1_555 1_555
C27_5 C23_5 1_555 1_555
H17_5 C27_5 1_555 1_555
C29_5 C18_5 1_555 1_555
H19_5 C29_5 1_555 1_555
C30_5 H20_5 1_555 1_555
C31_5 C29_5 1_555 1_555
H21_5 C31_5 1_555 1_555
C32_5 C33_5 1_555 1_555
C33_5 N2_5 1_555 1_555
C34_5 C30_5 1_555 1_555
H22_5 C34_5 1_555 1_555
C35_5 C21_5 1_555 1_555
H23_5 C35_5 1_555 1_555
Ru1_5 N1_5 1_555 1_555
N3_5 C14_5 1_555 1_555
N4_5 C12_5 1_555 1_555
N5_5 C21_5 1_555 1_555
N6_5 C11_5 1_555 1_555
N2_5 Ru1_5 1_555 1_555
C15_5 N3_5 1_555 1_555
C16_5 N6_5 1_555 1_555
C20_5 C26_5 1_555 1_555
C24_5 C27_5 1_555 1_555
C31_5 N4_5 1_555 1_555
C32_5 N5_5 1_555 1_555
Ru1_5 N3_5 1_555 1_555
Ru1_5 N4_5 1_555 1_555
Ru1_5 N5_5 1_555 1_555
Ru1_5 N6_5 1_555 1_555
H18_5 C28_5 1_555 1_555
H24_5 C36_5 1_555 1_555
H25_5 C37_5 1_555 1_555
H26_5 C38_5 1_555 1_555
H27_5 C39_5 1_555 1_555
C36_5 C37_5 1_555 1_555
C38_5 C39_5 1_555 1_555
N1_6 C10_6 1_555 1_555
N2_6 C30_6 1_555 1_555
C10_6 C11_6 1_555 1_555
C12_6 C13_6 1_555 1_555
C13_6 H4_6 1_555 1_555
C14_6 H5_6 1_555 1_555
C15_6 C12_6 1_555 1_555
C16_6 H6_6 1_555 1_555
C17_6 C14_6 1_555 1_555
H7_6 C17_6 1_555 1_555
C18_6 C13_6 1_555 1_555
H8_6 C18_6 1_555 1_555
C20_6 C15_6 1_555 1_555
H10_6 C20_6 1_555 1_555
C21_6 H11_6 1_555 1_555
C22_6 N1_6 1_555 1_555
H12_6 C22_6 1_555 1_555
C23_6 C10_6 1_555 1_555
C24_6 C22_6 1_555 1_555
H14_6 C24_6 1_555 1_555
C26_6 C17_6 1_555 1_555
H16_6 C26_6 1_555 1_555
C27_6 C23_6 1_555 1_555
H17_6 C27_6 1_555 1_555
C29_6 C18_6 1_555 1_555
C30_6 H20_6 1_555 1_555
C31_6 C29_6 1_555 1_555
H21_6 C31_6 1_555 1_555
C32_6 C33_6 1_555 1_555
C33_6 N2_6 1_555 1_555
C34_6 C30_6 1_555 1_555
H22_6 C34_6 1_555 1_555
C35_6 C21_6 1_555 1_555
H23_6 C35_6 1_555 1_555
C36_6 C35_6 1_555 1_555
H24_6 C36_6 1_555 1_555
C37_6 C32_6 1_555 1_555
H25_6 C37_6 1_555 1_555
C38_6 C33_6 1_555 1_555
H26_6 C38_6 1_555 1_555
C39_6 C34_6 1_555 1_555
H27_6 C39_6 1_555 1_555
Ru1_6 N1_6 1_555 1_555
N3_6 C14_6 1_555 1_555
N4_6 C12_6 1_555 1_555
N5_6 C21_6 1_555 1_555
N6_6 C11_6 1_555 1_555
N2_6 Ru1_6 1_555 1_555
C15_6 N3_6 1_555 1_555
C16_6 N6_6 1_555 1_555
C20_6 C26_6 1_555 1_555
C24_6 C27_6 1_555 1_555
C31_6 N4_6 1_555 1_555
C32_6 N5_6 1_555 1_555
C36_6 C37_6 1_555 1_555
C38_6 C39_6 1_555 1_555
Ru1_6 N3_6 1_555 1_555
Ru1_6 N4_6 1_555 1_555
Ru1_6 N5_6 1_555 1_555
Ru1_6 N6_6 1_555 1_555
C19_6 H9_6 1_555 1_555
C25_6 C19_6 1_555 1_555
H15_6 C25_6 1_555 1_555
H18_6 C28_6 1_555 1_555
C25_6 C28_6 1_555 1_555
H18_7 C28_7 1_555 1_555
C19_7 H9_7 1_555 1_555
C25_7 C19_7 1_555 1_555
H24_7 C36_7 1_555 1_555
H25_7 C37_7 1_555 1_555
H26_7 C38_7 1_555 1_555
C36_7 C37_7 1_555 1_555
N1_7 C10_7 1_555 1_555
C10_7 C11_7 1_555 1_555
C12_7 C13_7 1_555 1_555
C13_7 H4_7 1_555 1_555
C14_7 H5_7 1_555 1_555
C15_7 C12_7 1_555 1_555
C17_7 C14_7 1_555 1_555
H7_7 C17_7 1_555 1_555
C20_7 C15_7 1_555 1_555
H10_7 C20_7 1_555 1_555
C21_7 H11_7 1_555 1_555
C22_7 N1_7 1_555 1_555
H12_7 C22_7 1_555 1_555
C23_7 C10_7 1_555 1_555
C24_7 C22_7 1_555 1_555
H14_7 C24_7 1_555 1_555
C26_7 C17_7 1_555 1_555
H16_7 C26_7 1_555 1_555
C27_7 C23_7 1_555 1_555
H17_7 C27_7 1_555 1_555
C31_7 C29_7 1_555 1_555
H21_7 C31_7 1_555 1_555
C32_7 C33_7 1_555 1_555
C33_7 N2_7 1_555 1_555
C35_7 C21_7 1_555 1_555
H23_7 C35_7 1_555 1_555
Ru1_7 N1_7 1_555 1_555
N3_7 C14_7 1_555 1_555
N4_7 C12_7 1_555 1_555
N5_7 C21_7 1_555 1_555
N6_7 C11_7 1_555 1_555
N2_7 Ru1_7 1_555 1_555
C15_7 N3_7 1_555 1_555
C16_7 N6_7 1_555 1_555
C20_7 C26_7 1_555 1_555
C24_7 C27_7 1_555 1_555
C31_7 N4_7 1_555 1_555
C32_7 N5_7 1_555 1_555
Ru1_7 N3_7 1_555 1_555
Ru1_7 N4_7 1_555 1_555
Ru1_7 N5_7 1_555 1_555
Ru1_7 N6_7 1_555 1_555
H27_7 C39_7 1_555 1_555
H8_7 C18_7 1_555 1_555
C30_7 H20_7 1_555 1_555
C34_7 C30_7 1_555 1_555
H22_7 C34_7 1_555 1_555
H8_8 C18_8 1_555 1_555
C30_8 H20_8 1_555 1_555
C34_8 C30_8 1_555 1_555
H22_8 C34_8 1_555 1_555
C39_8 C34_8 1_555 1_555
H27_8 C39_8 1_555 1_555
N1_8 C10_8 1_555 1_555
C10_8 C11_8 1_555 1_555
C11_8 C19_8 1_555 1_555
C12_8 C13_8 1_555 1_555
C13_8 H4_8 1_555 1_555
C14_8 H5_8 1_555 1_555
C15_8 C12_8 1_555 1_555
C16_8 H6_8 1_555 1_555
C17_8 C14_8 1_555 1_555
H7_8 C17_8 1_555 1_555
C19_8 H9_8 1_555 1_555
C20_8 C15_8 1_555 1_555
H10_8 C20_8 1_555 1_555
C21_8 H11_8 1_555 1_555
C22_8 N1_8 1_555 1_555
H12_8 C22_8 1_555 1_555
C23_8 C10_8 1_555 1_555
H13_8 C23_8 1_555 1_555
C24_8 C22_8 1_555 1_555
H14_8 C24_8 1_555 1_555
C25_8 C19_8 1_555 1_555
H15_8 C25_8 1_555 1_555
C26_8 C17_8 1_555 1_555
H16_8 C26_8 1_555 1_555
C27_8 C23_8 1_555 1_555
H17_8 C27_8 1_555 1_555
C28_8 C16_8 1_555 1_555
H18_8 C28_8 1_555 1_555
C31_8 C29_8 1_555 1_555
H21_8 C31_8 1_555 1_555
C32_8 C33_8 1_555 1_555
C33_8 N2_8 1_555 1_555
C35_8 C21_8 1_555 1_555
H23_8 C35_8 1_555 1_555
C36_8 C35_8 1_555 1_555
H24_8 C36_8 1_555 1_555
C37_8 C32_8 1_555 1_555
H25_8 C37_8 1_555 1_555
C38_8 C33_8 1_555 1_555
H26_8 C38_8 1_555 1_555
Ru1_8 N1_8 1_555 1_555
N3_8 C14_8 1_555 1_555
N4_8 C12_8 1_555 1_555
N5_8 C21_8 1_555 1_555
N6_8 C11_8 1_555 1_555
N2_8 Ru1_8 1_555 1_555
C15_8 N3_8 1_555 1_555
C16_8 N6_8 1_555 1_555
C20_8 C26_8 1_555 1_555
C24_8 C27_8 1_555 1_555
C25_8 C28_8 1_555 1_555
C31_8 N4_8 1_555 1_555
C32_8 N5_8 1_555 1_555
C36_8 C37_8 1_555 1_555
Ru1_8 N3_8 1_555 1_555
Ru1_8 N4_8 1_555 1_555
Ru1_8 N5_8 1_555 1_555
Ru1_8 N6_8 1_555 1_555
C48 H34 1_555 1_555
H44 C61 1_555 1_555
C64 C48 1_555 1_555
H47 C64 1_555 1_555
C61 C64 1_555 1_555
N7 C52 1_555 1_555
N8 C40 1_555 1_555
N9 C46 1_555 1_555
C40 C43 1_555 1_555
N10 C49 1_555 1_555
C41 N8 1_555 1_555
H28 C41 1_555 1_555
N11 C50 1_555 1_555
N12 C63 1_555 1_555
C42 C41 1_555 1_555
H29 C42 1_555 1_555
C43 H30 1_555 1_555
C44 C42 1_555 1_555
H31 C44 1_555 1_555
C45 H32 1_555 1_555
C46 C40 1_555 1_555
C47 C45 1_555 1_555
H33 C47 1_555 1_555
C49 C50 1_555 1_555
C50 C59 1_555 1_555
C51 N9 1_555 1_555
H35 C51 1_555 1_555
C52 H36 1_555 1_555
C53 H37 1_555 1_555
C54 N10 1_555 1_555
H38 C54 1_555 1_555
C55 C52 1_555 1_555
H39 C55 1_555 1_555
C56 N7 1_555 1_555
C57 C45 1_555 1_555
H40 C57 1_555 1_555
C58 H41 1_555 1_555
C59 H42 1_555 1_555
C60 C58 1_555 1_555
H43 C60 1_555 1_555
C62 N11 1_555 1_555
H45 C62 1_555 1_555
C63 H46 1_555 1_555
C65 N12 1_555 1_555
C66 C53 1_555 1_555
H48 C66 1_555 1_555
C67 C65 1_555 1_555
H49 C67 1_555 1_555
C68 C63 1_555 1_555
H50 C68 1_555 1_555
C69 C67 1_555 1_555
H51 C69 1_555 1_555
Ru2 N7 1_555 1_555
N8 Ru2 1_555 1_555
N9 Ru2 1_555 1_555
N10 Ru2 1_555 1_555
N11 Ru2 1_555 1_555
N12 Ru2 1_555 1_555
C43 C44 1_555 1_555
C46 C47 1_555 1_555
C51 C57 1_555 1_555
C53 C55 1_555 1_555
C56 C65 1_555 1_555
C56 C66 1_555 1_555
C58 C62 1_555 1_555
C59 C60 1_555 1_555
C68 C69 1_555 1_555
N7_2 C52_2 1_555 1_555
N8_2 C40_2 1_555 1_555
N9_2 C46_2 1_555 1_555
C40_2 C43_2 1_555 1_555
N10_2 C49_2 1_555 1_555
C41_2 N8_2 1_555 1_555
H28_2 C41_2 1_555 1_555
N11_2 C50_2 1_555 1_555
N12_2 C63_2 1_555 1_555
C42_2 C41_2 1_555 1_555
H29_2 C42_2 1_555 1_555
C43_2 H30_2 1_555 1_555
C44_2 C42_2 1_555 1_555
H31_2 C44_2 1_555 1_555
C45_2 H32_2 1_555 1_555
C46_2 C40_2 1_555 1_555
C47_2 C45_2 1_555 1_555
H33_2 C47_2 1_555 1_555
C49_2 C50_2 1_555 1_555
C50_2 C59_2 1_555 1_555
C51_2 N9_2 1_555 1_555
H35_2 C51_2 1_555 1_555
C52_2 H36_2 1_555 1_555
C53_2 H37_2 1_555 1_555
C54_2 N10_2 1_555 1_555
H38_2 C54_2 1_555 1_555
C55_2 C52_2 1_555 1_555
H39_2 C55_2 1_555 1_555
C56_2 N7_2 1_555 1_555
C57_2 C45_2 1_555 1_555
H40_2 C57_2 1_555 1_555
C58_2 H41_2 1_555 1_555
C59_2 H42_2 1_555 1_555
C60_2 C58_2 1_555 1_555
H43_2 C60_2 1_555 1_555
C62_2 N11_2 1_555 1_555
H45_2 C62_2 1_555 1_555
C63_2 H46_2 1_555 1_555
C65_2 N12_2 1_555 1_555
C66_2 C53_2 1_555 1_555
H48_2 C66_2 1_555 1_555
C67_2 C65_2 1_555 1_555
H49_2 C67_2 1_555 1_555
C68_2 C63_2 1_555 1_555
H50_2 C68_2 1_555 1_555
C69_2 C67_2 1_555 1_555
H51_2 C69_2 1_555 1_555
Ru2_2 N7_2 1_555 1_555
N8_2 Ru2_2 1_555 1_555
N9_2 Ru2_2 1_555 1_555
N10_2 Ru2_2 1_555 1_555
N11_2 Ru2_2 1_555 1_555
N12_2 Ru2_2 1_555 1_555
C43_2 C44_2 1_555 1_555
C46_2 C47_2 1_555 1_555
C51_2 C57_2 1_555 1_555
C53_2 C55_2 1_555 1_555
C56_2 C65_2 1_555 1_555
C56_2 C66_2 1_555 1_555
C58_2 C62_2 1_555 1_555
C59_2 C60_2 1_555 1_555
C68_2 C69_2 1_555 1_555
C48_2 H34_2 1_555 1_555
H44_2 C61_2 1_555 1_555
C64_2 C48_2 1_555 1_555
H47_2 C64_2 1_555 1_555
C61_2 C64_2 1_555 1_555
N7_3 C52_3 1_555 1_555
N8_3 C40_3 1_555 1_555
N9_3 C46_3 1_555 1_555
C40_3 C43_3 1_555 1_555
N10_3 C49_3 1_555 1_555
C41_3 N8_3 1_555 1_555
H28_3 C41_3 1_555 1_555
N11_3 C50_3 1_555 1_555
N12_3 C63_3 1_555 1_555
C42_3 C41_3 1_555 1_555
H29_3 C42_3 1_555 1_555
C43_3 H30_3 1_555 1_555
C44_3 C42_3 1_555 1_555
H31_3 C44_3 1_555 1_555
C45_3 H32_3 1_555 1_555
C46_3 C40_3 1_555 1_555
C47_3 C45_3 1_555 1_555
H33_3 C47_3 1_555 1_555
C48_3 H34_3 1_555 1_555
C49_3 C50_3 1_555 1_555
C50_3 C59_3 1_555 1_555
C51_3 N9_3 1_555 1_555
H35_3 C51_3 1_555 1_555
C52_3 H36_3 1_555 1_555
C53_3 H37_3 1_555 1_555
C54_3 N10_3 1_555 1_555
H38_3 C54_3 1_555 1_555
C55_3 C52_3 1_555 1_555
H39_3 C55_3 1_555 1_555
C56_3 N7_3 1_555 1_555
C57_3 C45_3 1_555 1_555
H40_3 C57_3 1_555 1_555
C58_3 H41_3 1_555 1_555
C59_3 H42_3 1_555 1_555
C60_3 C58_3 1_555 1_555
H43_3 C60_3 1_555 1_555
C61_3 C49_3 1_555 1_555
H44_3 C61_3 1_555 1_555
C62_3 N11_3 1_555 1_555
H45_3 C62_3 1_555 1_555
C63_3 H46_3 1_555 1_555
C64_3 C48_3 1_555 1_555
H47_3 C64_3 1_555 1_555
C65_3 N12_3 1_555 1_555
C66_3 C53_3 1_555 1_555
H48_3 C66_3 1_555 1_555
C67_3 C65_3 1_555 1_555
H49_3 C67_3 1_555 1_555
C68_3 C63_3 1_555 1_555
H50_3 C68_3 1_555 1_555
C69_3 C67_3 1_555 1_555
H51_3 C69_3 1_555 1_555
Ru2_3 N7_3 1_555 1_555
N8_3 Ru2_3 1_555 1_555
N9_3 Ru2_3 1_555 1_555
N10_3 Ru2_3 1_555 1_555
N11_3 Ru2_3 1_555 1_555
N12_3 Ru2_3 1_555 1_555
C43_3 C44_3 1_555 1_555
C46_3 C47_3 1_555 1_555
C48_3 C54_3 1_555 1_555
C51_3 C57_3 1_555 1_555
C53_3 C55_3 1_555 1_555
C56_3 C65_3 1_555 1_555
C56_3 C66_3 1_555 1_555
C58_3 C62_3 1_555 1_555
C59_3 C60_3 1_555 1_555
C61_3 C64_3 1_555 1_555
C68_3 C69_3 1_555 1_555
N7_4 C52_4 1_555 1_555
N8_4 C40_4 1_555 1_555
N9_4 C46_4 1_555 1_555
C40_4 C43_4 1_555 1_555
N10_4 C49_4 1_555 1_555
C41_4 N8_4 1_555 1_555
H28_4 C41_4 1_555 1_555
N11_4 C50_4 1_555 1_555
N12_4 C63_4 1_555 1_555
C42_4 C41_4 1_555 1_555
H29_4 C42_4 1_555 1_555
C43_4 H30_4 1_555 1_555
C44_4 C42_4 1_555 1_555
H31_4 C44_4 1_555 1_555
C45_4 H32_4 1_555 1_555
C46_4 C40_4 1_555 1_555
C47_4 C45_4 1_555 1_555
H33_4 C47_4 1_555 1_555
C48_4 H34_4 1_555 1_555
C49_4 C50_4 1_555 1_555
C50_4 C59_4 1_555 1_555
C51_4 N9_4 1_555 1_555
H35_4 C51_4 1_555 1_555
C52_4 H36_4 1_555 1_555
C53_4 H37_4 1_555 1_555
C54_4 N10_4 1_555 1_555
H38_4 C54_4 1_555 1_555
C55_4 C52_4 1_555 1_555
H39_4 C55_4 1_555 1_555
C56_4 N7_4 1_555 1_555
C57_4 C45_4 1_555 1_555
H40_4 C57_4 1_555 1_555
C58_4 H41_4 1_555 1_555
C59_4 H42_4 1_555 1_555
C60_4 C58_4 1_555 1_555
H43_4 C60_4 1_555 1_555
C61_4 C49_4 1_555 1_555
H44_4 C61_4 1_555 1_555
C62_4 N11_4 1_555 1_555
H45_4 C62_4 1_555 1_555
C63_4 H46_4 1_555 1_555
C64_4 C48_4 1_555 1_555
H47_4 C64_4 1_555 1_555
C65_4 N12_4 1_555 1_555
C66_4 C53_4 1_555 1_555
H48_4 C66_4 1_555 1_555
C67_4 C65_4 1_555 1_555
H49_4 C67_4 1_555 1_555
C68_4 C63_4 1_555 1_555
H50_4 C68_4 1_555 1_555
C69_4 C67_4 1_555 1_555
H51_4 C69_4 1_555 1_555
Ru2_4 N7_4 1_555 1_555
N8_4 Ru2_4 1_555 1_555
N9_4 Ru2_4 1_555 1_555
N10_4 Ru2_4 1_555 1_555
N11_4 Ru2_4 1_555 1_555
N12_4 Ru2_4 1_555 1_555
C43_4 C44_4 1_555 1_555
C46_4 C47_4 1_555 1_555
C48_4 C54_4 1_555 1_555
C51_4 C57_4 1_555 1_555
C53_4 C55_4 1_555 1_555
C56_4 C65_4 1_555 1_555
C56_4 C66_4 1_555 1_555
C58_4 C62_4 1_555 1_555
C59_4 C60_4 1_555 1_555
C61_4 C64_4 1_555 1_555
C68_4 C69_4 1_555 1_555
N7_5 C52_5 1_555 1_555
N8_5 C40_5 1_555 1_555
N9_5 C46_5 1_555 1_555
C40_5 C43_5 1_555 1_555
N10_5 C49_5 1_555 1_555
C41_5 N8_5 1_555 1_555
H28_5 C41_5 1_555 1_555
N11_5 C50_5 1_555 1_555
N12_5 C63_5 1_555 1_555
C42_5 C41_5 1_555 1_555
H29_5 C42_5 1_555 1_555
C43_5 H30_5 1_555 1_555
C44_5 C42_5 1_555 1_555
H31_5 C44_5 1_555 1_555
C45_5 H32_5 1_555 1_555
C46_5 C40_5 1_555 1_555
C47_5 C45_5 1_555 1_555
H33_5 C47_5 1_555 1_555
C49_5 C50_5 1_555 1_555
C50_5 C59_5 1_555 1_555
C51_5 N9_5 1_555 1_555
H35_5 C51_5 1_555 1_555
C52_5 H36_5 1_555 1_555
C53_5 H37_5 1_555 1_555
C54_5 N10_5 1_555 1_555
H38_5 C54_5 1_555 1_555
C55_5 C52_5 1_555 1_555
H39_5 C55_5 1_555 1_555
C56_5 N7_5 1_555 1_555
C57_5 C45_5 1_555 1_555
H40_5 C57_5 1_555 1_555
C58_5 H41_5 1_555 1_555
C59_5 H42_5 1_555 1_555
C60_5 C58_5 1_555 1_555
H43_5 C60_5 1_555 1_555
C62_5 N11_5 1_555 1_555
H45_5 C62_5 1_555 1_555
C63_5 H46_5 1_555 1_555
C65_5 N12_5 1_555 1_555
C66_5 C53_5 1_555 1_555
H48_5 C66_5 1_555 1_555
C67_5 C65_5 1_555 1_555
H49_5 C67_5 1_555 1_555
C68_5 C63_5 1_555 1_555
H50_5 C68_5 1_555 1_555
C69_5 C67_5 1_555 1_555
H51_5 C69_5 1_555 1_555
Ru2_5 N7_5 1_555 1_555
N8_5 Ru2_5 1_555 1_555
N9_5 Ru2_5 1_555 1_555
N10_5 Ru2_5 1_555 1_555
N11_5 Ru2_5 1_555 1_555
N12_5 Ru2_5 1_555 1_555
C43_5 C44_5 1_555 1_555
C46_5 C47_5 1_555 1_555
C51_5 C57_5 1_555 1_555
C53_5 C55_5 1_555 1_555
C56_5 C65_5 1_555 1_555
C56_5 C66_5 1_555 1_555
C58_5 C62_5 1_555 1_555
C59_5 C60_5 1_555 1_555
C68_5 C69_5 1_555 1_555
C48_5 H34_5 1_555 1_555
H44_5 C61_5 1_555 1_555
C64_5 C48_5 1_555 1_555
H47_5 C64_5 1_555 1_555
C61_5 C64_5 1_555 1_555
C48_6 H34_6 1_555 1_555
H44_6 C61_6 1_555 1_555
C64_6 C48_6 1_555 1_555
H47_6 C64_6 1_555 1_555
C61_6 C64_6 1_555 1_555
N7_6 C52_6 1_555 1_555
N8_6 C40_6 1_555 1_555
N9_6 C46_6 1_555 1_555
C40_6 C43_6 1_555 1_555
N10_6 C49_6 1_555 1_555
C41_6 N8_6 1_555 1_555
H28_6 C41_6 1_555 1_555
N11_6 C50_6 1_555 1_555
N12_6 C63_6 1_555 1_555
C42_6 C41_6 1_555 1_555
H29_6 C42_6 1_555 1_555
C43_6 H30_6 1_555 1_555
C44_6 C42_6 1_555 1_555
H31_6 C44_6 1_555 1_555
C45_6 H32_6 1_555 1_555
C46_6 C40_6 1_555 1_555
C47_6 C45_6 1_555 1_555
H33_6 C47_6 1_555 1_555
C49_6 C50_6 1_555 1_555
C50_6 C59_6 1_555 1_555
C51_6 N9_6 1_555 1_555
H35_6 C51_6 1_555 1_555
C52_6 H36_6 1_555 1_555
C53_6 H37_6 1_555 1_555
C54_6 N10_6 1_555 1_555
H38_6 C54_6 1_555 1_555
C55_6 C52_6 1_555 1_555
H39_6 C55_6 1_555 1_555
C56_6 N7_6 1_555 1_555
C57_6 C45_6 1_555 1_555
H40_6 C57_6 1_555 1_555
C58_6 H41_6 1_555 1_555
C59_6 H42_6 1_555 1_555
C60_6 C58_6 1_555 1_555
H43_6 C60_6 1_555 1_555
C62_6 N11_6 1_555 1_555
H45_6 C62_6 1_555 1_555
C63_6 H46_6 1_555 1_555
C65_6 N12_6 1_555 1_555
C66_6 C53_6 1_555 1_555
H48_6 C66_6 1_555 1_555
C67_6 C65_6 1_555 1_555
H49_6 C67_6 1_555 1_555
C68_6 C63_6 1_555 1_555
H50_6 C68_6 1_555 1_555
C69_6 C67_6 1_555 1_555
H51_6 C69_6 1_555 1_555
Ru2_6 N7_6 1_555 1_555
N8_6 Ru2_6 1_555 1_555
N9_6 Ru2_6 1_555 1_555
N10_6 Ru2_6 1_555 1_555
N11_6 Ru2_6 1_555 1_555
N12_6 Ru2_6 1_555 1_555
C43_6 C44_6 1_555 1_555
C46_6 C47_6 1_555 1_555
C51_6 C57_6 1_555 1_555
C53_6 C55_6 1_555 1_555
C56_6 C65_6 1_555 1_555
C56_6 C66_6 1_555 1_555
C58_6 C62_6 1_555 1_555
C59_6 C60_6 1_555 1_555
C68_6 C69_6 1_555 1_555
N7_7 C52_7 1_555 1_555
N8_7 C40_7 1_555 1_555
N9_7 C46_7 1_555 1_555
C40_7 C43_7 1_555 1_555
N10_7 C49_7 1_555 1_555
C41_7 N8_7 1_555 1_555
H28_7 C41_7 1_555 1_555
N11_7 C50_7 1_555 1_555
N12_7 C63_7 1_555 1_555
C42_7 C41_7 1_555 1_555
H29_7 C42_7 1_555 1_555
C43_7 H30_7 1_555 1_555
C44_7 C42_7 1_555 1_555
H31_7 C44_7 1_555 1_555
C45_7 H32_7 1_555 1_555
C46_7 C40_7 1_555 1_555
C47_7 C45_7 1_555 1_555
H33_7 C47_7 1_555 1_555
C48_7 H34_7 1_555 1_555
C49_7 C50_7 1_555 1_555
C50_7 C59_7 1_555 1_555
C51_7 N9_7 1_555 1_555
H35_7 C51_7 1_555 1_555
C52_7 H36_7 1_555 1_555
C53_7 H37_7 1_555 1_555
C54_7 N10_7 1_555 1_555
H38_7 C54_7 1_555 1_555
C55_7 C52_7 1_555 1_555
H39_7 C55_7 1_555 1_555
C56_7 N7_7 1_555 1_555
C57_7 C45_7 1_555 1_555
H40_7 C57_7 1_555 1_555
C58_7 H41_7 1_555 1_555
C59_7 H42_7 1_555 1_555
C60_7 C58_7 1_555 1_555
H43_7 C60_7 1_555 1_555
C61_7 C49_7 1_555 1_555
H44_7 C61_7 1_555 1_555
C62_7 N11_7 1_555 1_555
H45_7 C62_7 1_555 1_555
C63_7 H46_7 1_555 1_555
C64_7 C48_7 1_555 1_555
H47_7 C64_7 1_555 1_555
C65_7 N12_7 1_555 1_555
C66_7 C53_7 1_555 1_555
H48_7 C66_7 1_555 1_555
C67_7 C65_7 1_555 1_555
H49_7 C67_7 1_555 1_555
C68_7 C63_7 1_555 1_555
H50_7 C68_7 1_555 1_555
C69_7 C67_7 1_555 1_555
H51_7 C69_7 1_555 1_555
Ru2_7 N7_7 1_555 1_555
N8_7 Ru2_7 1_555 1_555
N9_7 Ru2_7 1_555 1_555
N10_7 Ru2_7 1_555 1_555
N11_7 Ru2_7 1_555 1_555
N12_7 Ru2_7 1_555 1_555
C43_7 C44_7 1_555 1_555
C46_7 C47_7 1_555 1_555
C48_7 C54_7 1_555 1_555
C51_7 C57_7 1_555 1_555
C53_7 C55_7 1_555 1_555
C56_7 C65_7 1_555 1_555
C56_7 C66_7 1_555 1_555
C58_7 C62_7 1_555 1_555
C59_7 C60_7 1_555 1_555
C61_7 C64_7 1_555 1_555
C68_7 C69_7 1_555 1_555
N7_8 C52_8 1_555 1_555
N8_8 C40_8 1_555 1_555
N9_8 C46_8 1_555 1_555
C40_8 C43_8 1_555 1_555
N10_8 C49_8 1_555 1_555
C41_8 N8_8 1_555 1_555
H28_8 C41_8 1_555 1_555
N11_8 C50_8 1_555 1_555
N12_8 C63_8 1_555 1_555
C42_8 C41_8 1_555 1_555
H29_8 C42_8 1_555 1_555
C43_8 H30_8 1_555 1_555
C44_8 C42_8 1_555 1_555
H31_8 C44_8 1_555 1_555
C45_8 H32_8 1_555 1_555
C46_8 C40_8 1_555 1_555
C47_8 C45_8 1_555 1_555
H33_8 C47_8 1_555 1_555
C48_8 H34_8 1_555 1_555
C49_8 C50_8 1_555 1_555
C50_8 C59_8 1_555 1_555
C51_8 N9_8 1_555 1_555
H35_8 C51_8 1_555 1_555
C52_8 H36_8 1_555 1_555
C53_8 H37_8 1_555 1_555
C54_8 N10_8 1_555 1_555
H38_8 C54_8 1_555 1_555
C55_8 C52_8 1_555 1_555
H39_8 C55_8 1_555 1_555
C56_8 N7_8 1_555 1_555
C57_8 C45_8 1_555 1_555
H40_8 C57_8 1_555 1_555
C58_8 H41_8 1_555 1_555
C59_8 H42_8 1_555 1_555
C60_8 C58_8 1_555 1_555
H43_8 C60_8 1_555 1_555
C61_8 C49_8 1_555 1_555
H44_8 C61_8 1_555 1_555
C62_8 N11_8 1_555 1_555
H45_8 C62_8 1_555 1_555
C63_8 H46_8 1_555 1_555
C64_8 C48_8 1_555 1_555
H47_8 C64_8 1_555 1_555
C65_8 N12_8 1_555 1_555
C66_8 C53_8 1_555 1_555
H48_8 C66_8 1_555 1_555
C67_8 C65_8 1_555 1_555
H49_8 C67_8 1_555 1_555
C68_8 C63_8 1_555 1_555
H50_8 C68_8 1_555 1_555
C69_8 C67_8 1_555 1_555
H51_8 C69_8 1_555 1_555
Ru2_8 N7_8 1_555 1_555
N8_8 Ru2_8 1_555 1_555
N9_8 Ru2_8 1_555 1_555
N10_8 Ru2_8 1_555 1_555
N11_8 Ru2_8 1_555 1_555
N12_8 Ru2_8 1_555 1_555
C43_8 C44_8 1_555 1_555
C46_8 C47_8 1_555 1_555
C48_8 C54_8 1_555 1_555
C51_8 C57_8 1_555 1_555
C53_8 C55_8 1_555 1_555
C56_8 C65_8 1_555 1_555
C56_8 C66_8 1_555 1_555
C58_8 C62_8 1_555 1_555
C59_8 C60_8 1_555 1_555
C61_8 C64_8 1_555 1_555
C68_8 C69_8 1_555 1_555

#END
