
###############################################################################
#
# This file contains modified crystal structure data generated from the
# MOF subset of the Cambridge Structural Database (CSD) v543 
# hosted by the Cambridge Crystallographic Data Centre (CCDC).
#
# This work is licensed under the Creative Commons
# Attribution-NonCommercial-ShareAlike 4.0 International License.
# To view a copy of this license, visit
# http://creativecommons.org/licenses/by-nc-sa/4.0/
# or send a letter to
# Creative Commons, PO Box 1866, Mountain View, CA 94042, USA.
#
# CIF created using the CSD Python API on 29 September 2022
# The structure has been converted into the P1 space group
# The structure has a 3D framework
# The original CSD entry XAPNIN is in the monoclinic crystal system
# The framework has been calculated to contain at least 10.0% void space
# The void calculation uses a probe of radius 1.32A, grid spacing 0.4
# The framework is charged, counterions have been retained in the structure
# H atom positions have been added when not included in the experimental data
#
###############################################################################

data_XAPNIN
_chemical_formula_moiety         '(C52 H60 N4 O24)n'
_symmetry_cell_setting           triclinic
_symmetry_space_group_name_H-M   'P 1'
_symmetry_Int_Tables_number      1
_space_group_name_Hall           'P 1'
loop_
_symmetry_equiv_pos_site_id
_symmetry_equiv_pos_as_xyz
1 x,y,z
_cell_length_a                   9.506(3)
_cell_length_b                   15.482(5)
_cell_length_c                   12.498(4)
_cell_angle_alpha                90
_cell_angle_beta                 94.954(3)
_cell_angle_gamma                90
_cell_volume                     1832.48
loop_
_atom_site_label
_atom_site_type_symbol
_atom_site_fract_x
_atom_site_fract_y
_atom_site_fract_z
C1 C 0.1588(18) 0.2636(13) 0.0447(14)
H1 H 0.1950 0.2142 0.0847
H3 H 0.0644 0.2518 0.0146
C2 C 0.1575(12) 0.3451(9) 0.1227(12)
H4 H 0.2530 0.3592 0.1508
H5 H 0.1179 0.3948 0.0835
C3 C 0.063(2) 0.3903(11) 0.2894(17)
H6 H 0.1040 0.4445 0.2839
H8 H 0.0303 0.3790 0.4472
N1 N 0.0697(9) 0.3231(6) 0.2129(8)
H11 H 0.1058 0.2756 0.2465
H15 H 0.159744 0.366517 0.332499
H2 H 0.2177 0.2756 0.9879
C4 C 0.981(3) 0.3624(15) 0.3802(16)
H7 H 0.8894 0.3894 0.3734
H9 H 0.9694 0.3007 0.3784
H10 H 0.9815 0.3104 0.1853
C1_2 C 0.3412(18) 0.7636(13) 0.4553(14)
H1_2 H 0.3050 0.7142 0.4153
H2_2 H 0.2823 0.7756 0.5121
H3_2 H 0.4356 0.7518 0.4854
C2_2 C 0.3425(12) 0.8451(9) 0.3773(12)
H4_2 H 0.2470 0.8592 0.3492
H5_2 H 0.3821 0.8948 0.4165
C3_2 C 0.437(2) 0.8903(11) 0.2106(17)
H6_2 H 0.3960 0.9445 0.2161
C4_2 C 0.519(3) 0.8624(15) 0.1198(16)
H7_2 H 0.6106 0.8894 0.1266
H8_2 H 0.4697 0.8790 0.0528
H9_2 H 0.5306 0.8007 0.1216
N1_2 N 0.4303(9) 0.8231(6) 0.2871(8)
H10_2 H 0.5185 0.8104 0.3147
H11_2 H 0.3942 0.7756 0.2535
H15_2 H 0.340256 0.866517 0.167501
C4_3 C 0.019(3) 0.6376(15) 0.6198(16)
H7_3 H 0.1106 0.6106 0.6266
H9_3 H 0.0306 0.6993 0.6216
H10_3 H 0.0185 0.6896 0.8147
H2_3 H 0.7823 0.7244 0.0121
C1_3 C 0.8412(18) 0.7364(13) 0.9553(14)
H1_3 H 0.8050 0.7858 0.9153
H3_3 H 0.9356 0.7482 0.9854
C2_3 C 0.8425(12) 0.6549(9) 0.8773(12)
H4_3 H 0.7470 0.6408 0.8492
H5_3 H 0.8821 0.6052 0.9165
C3_3 C 0.937(2) 0.6097(11) 0.7106(17)
H6_3 H 0.8960 0.5555 0.7161
H8_3 H 0.9697 0.6210 0.5528
N1_3 N 0.9303(9) 0.6769(6) 0.7871(8)
H11_3 H 0.8942 0.7244 0.7535
H15_3 H 0.840256 0.633483 0.667501
C1_4 C 0.6588(18) 0.2364(13) 0.5447(14)
H1_4 H 0.6950 0.2858 0.5847
H2_4 H 0.7177 0.2244 0.4879
H3_4 H 0.5644 0.2482 0.5146
C2_4 C 0.6575(12) 0.1549(9) 0.6227(12)
H4_4 H 0.7530 0.1408 0.6508
H5_4 H 0.6179 0.1052 0.5835
C3_4 C 0.563(2) 0.1097(11) 0.7894(17)
H6_4 H 0.6040 0.0555 0.7839
C4_4 C 0.481(3) 0.1376(15) 0.8802(16)
H7_4 H 0.3894 0.1106 0.8734
H8_4 H 0.5303 0.1210 0.9472
H9_4 H 0.4694 0.1993 0.8784
N1_4 N 0.5697(9) 0.1769(6) 0.7129(8)
H10_4 H 0.4815 0.1896 0.6853
H11_4 H 0.6058 0.2244 0.7465
H15_4 H 0.659744 0.133483 0.832499
Zn1 Zn 0.14014(6) 0.08367(4) 0.45719(5)
O8 O 0.0837(5) 0.1758(3) 0.5517(4)
O9 O 0.3096(5) 0.0771(3) 0.3808(4)
Zn3 Zn 0.35986(6) 0.58367(4) 0.04281(5)
C5 C 0.2718(6) 0.8898(4) 0.6854(5)
C6 C 0.4102(6) 0.9021(4) 0.6616(5)
H12 H 0.4311 0.9443 0.6124
C7 C 0.5183(6) 0.8514(4) 0.7116(5)
C8 C 0.4870(7) 0.7909(5) 0.7879(6)
H13 H 0.5591 0.7578 0.8220
C9 C 0.3484(7) 0.7791(5) 0.8141(6)
C10 C 0.2417(6) 0.8284(4) 0.7618(5)
H14 H 0.1488 0.8204 0.7779
C11 C 0.1525(6) 0.9360(4) 0.6206(5)
C12 C 0.6660(6) 0.8585(5) 0.6756(5)
C13 C 0.3127(7) 0.7103(5) 0.8928(6)
O1 O 0.1869(5) 0.9796(3) 0.5433(4)
O2 O 0.0292(4) 0.9238(3) 0.6453(3)
O3 O 0.1895(6) 0.6894(5) 0.8991(6)
O4 O 0.4163(5) 0.6758(3) 0.9483(4)
O5 O 0.7519(5) 0.7996(4) 0.6983(6)
O6 O 0.6904(5) 0.9229(3) 0.6192(4)
Zn4 Zn 0.85986(6) 0.91633(4) 0.54281(5)
O7 O 0.9708(4) 0.0762(3) 0.3547(3)
O7_2 O 0.5292(4) 0.5762(3) 0.1453(3)
O9_2 O 0.1904(5) 0.5771(3) 0.1192(4)
C5_2 C 0.2282(6) 0.3898(4) 0.8146(5)
C6_2 C 0.0898(6) 0.4021(4) 0.8384(5)
H12_2 H 0.0689 0.4443 0.8876
C8_2 C 0.0130(7) 0.2909(5) 0.7121(6)
C9_2 C 0.1516(7) 0.2791(5) 0.6859(6)
C10_2 C 0.2583(6) 0.3284(4) 0.7382(5)
H14_2 H 0.3512 0.3204 0.7221
C11_2 C 0.3475(6) 0.4360(4) 0.8794(5)
C13_2 C 0.1873(7) 0.2103(5) 0.6072(6)
O1_2 O 0.3131(5) 0.4796(3) 0.9567(4)
O2_2 O 0.4708(4) 0.4238(3) 0.8547(3)
O3_2 O 0.3105(6) 0.1894(5) 0.6009(6)
Zn2 Zn 0.64014(6) 0.41633(4) 0.95719(5)
C7_2 C 0.9817(6) 0.3514(4) 0.7884(5)
H13_2 H 0.9409 0.2578 0.6780
C12_2 C 0.8340(6) 0.3585(5) 0.8244(5)
O5_2 O 0.7481(5) 0.2996(4) 0.8017(6)
O6_2 O 0.8096(5) 0.4229(3) 0.8808(4)
C5_3 C 0.7282(6) 0.1102(4) 0.3146(5)
C6_3 C 0.5898(6) 0.0979(4) 0.3384(5)
H12_3 H 0.5689 0.0557 0.3876
C7_3 C 0.4817(6) 0.1486(4) 0.2884(5)
C8_3 C 0.5130(7) 0.2091(5) 0.2121(6)
H13_3 H 0.4409 0.2422 0.1780
C9_3 C 0.6516(7) 0.2209(5) 0.1859(6)
C10_3 C 0.7583(6) 0.1716(4) 0.2382(5)
H14_3 H 0.8512 0.1796 0.2221
C11_3 C 0.8475(6) 0.0640(4) 0.3794(5)
C12_3 C 0.3340(6) 0.1415(5) 0.3244(5)
C13_3 C 0.6873(7) 0.2897(5) 0.1072(6)
O1_3 O 0.8131(5) 0.0204(3) 0.4567(4)
O3_3 O 0.8105(6) 0.3106(5) 0.1009(6)
O4_2 O 0.5837(5) 0.3242(3) 0.0517(4)
O5_3 O 0.2481(5) 0.2004(4) 0.3017(6)
O8_2 O 0.9163(5) 0.8242(3) 0.4483(4)
C7_4 C 0.0183(6) 0.6486(4) 0.2116(5)
H13_4 H 0.0591 0.7422 0.3220
C12_4 C 0.1660(6) 0.6415(5) 0.1756(5)
O5_4 O 0.2519(5) 0.7004(4) 0.1983(6)
C5_4 C 0.7718(6) 0.6102(4) 0.1854(5)
C6_4 C 0.9102(6) 0.5979(4) 0.1616(5)
H12_4 H 0.9311 0.5557 0.1124
C8_4 C 0.9870(7) 0.7091(5) 0.2879(6)
C9_4 C 0.8484(7) 0.7209(5) 0.3141(6)
C10_4 C 0.7417(6) 0.6716(4) 0.2618(5)
H14_4 H 0.6488 0.6796 0.2779
C11_4 C 0.6525(6) 0.5640(4) 0.1206(5)
C13_4 C 0.8127(7) 0.7897(5) 0.3928(6)
O1_4 O 0.6869(5) 0.5204(3) 0.0433(4)
O3_4 O 0.6895(6) 0.8106(5) 0.3991(6)
loop_
_geom_bond_atom_site_label_1
_geom_bond_atom_site_label_2
_geom_bond_site_symmetry_1
_geom_bond_site_symmetry_2
C1 H1 1_555 1_555
H3 C1 1_555 1_555
C2 C1 1_555 1_555
H4 C2 1_555 1_555
H5 C2 1_555 1_555
C3 H6 1_555 1_555
N1 C2 1_555 1_555
H11 N1 1_555 1_555
C3 N1 1_555 1_555
C3 H15 1_555 1_555
H7 C4 1_555 1_555
H9 C4 1_555 1_555
C1_2 H1_2 1_555 1_555
H2_2 C1_2 1_555 1_555
H3_2 C1_2 1_555 1_555
C2_2 C1_2 1_555 1_555
H4_2 C2_2 1_555 1_555
H5_2 C2_2 1_555 1_555
C3_2 H6_2 1_555 1_555
C4_2 C3_2 1_555 1_555
H7_2 C4_2 1_555 1_555
H8_2 C4_2 1_555 1_555
H9_2 C4_2 1_555 1_555
N1_2 C2_2 1_555 1_555
H10_2 N1_2 1_555 1_555
H11_2 N1_2 1_555 1_555
C3_2 N1_2 1_555 1_555
C3_2 H15_2 1_555 1_555
H7_3 C4_3 1_555 1_555
H9_3 C4_3 1_555 1_555
C1_3 H1_3 1_555 1_555
H3_3 C1_3 1_555 1_555
C2_3 C1_3 1_555 1_555
H4_3 C2_3 1_555 1_555
H5_3 C2_3 1_555 1_555
C3_3 H6_3 1_555 1_555
N1_3 C2_3 1_555 1_555
H11_3 N1_3 1_555 1_555
C3_3 N1_3 1_555 1_555
C3_3 H15_3 1_555 1_555
C1_4 H1_4 1_555 1_555
H2_4 C1_4 1_555 1_555
H3_4 C1_4 1_555 1_555
C2_4 C1_4 1_555 1_555
H4_4 C2_4 1_555 1_555
H5_4 C2_4 1_555 1_555
C3_4 H6_4 1_555 1_555
C4_4 C3_4 1_555 1_555
H7_4 C4_4 1_555 1_555
H8_4 C4_4 1_555 1_555
H9_4 C4_4 1_555 1_555
N1_4 C2_4 1_555 1_555
H10_4 N1_4 1_555 1_555
H11_4 N1_4 1_555 1_555
C3_4 N1_4 1_555 1_555
C3_4 H15_4 1_555 1_555
O8 Zn1 1_555 1_555
O9 Zn1 1_555 1_555
C5 C6 1_555 1_555
C6 H12 1_555 1_555
C7 C6 1_555 1_555
C8 C7 1_555 1_555
H13 C8 1_555 1_555
C9 C8 1_555 1_555
C10 C5 1_555 1_555
H14 C10 1_555 1_555
C11 C5 1_555 1_555
C12 C7 1_555 1_555
C13 C9 1_555 1_555
O1 C11 1_555 1_555
O2 C11 1_555 1_555
O3 C13 1_555 1_555
O4 C13 1_555 1_555
O5 C12 1_555 1_555
O6 C12 1_555 1_555
Zn4 O6 1_555 1_555
C9 C10 1_555 1_555
O7_2 Zn3 1_555 1_555
O9_2 Zn3 1_555 1_555
C5_2 C6_2 1_555 1_555
C6_2 H12_2 1_555 1_555
C9_2 C8_2 1_555 1_555
C10_2 C5_2 1_555 1_555
H14_2 C10_2 1_555 1_555
C11_2 C5_2 1_555 1_555
C13_2 C9_2 1_555 1_555
O1_2 C11_2 1_555 1_555
O2_2 C11_2 1_555 1_555
O3_2 C13_2 1_555 1_555
O8 C13_2 1_555 1_555
Zn2 O2_2 1_555 1_555
C9_2 C10_2 1_555 1_555
C12_2 C7_2 1_555 1_555
O5_2 C12_2 1_555 1_555
O6_2 C12_2 1_555 1_555
Zn2 O6_2 1_555 1_555
C5_3 C6_3 1_555 1_555
C6_3 H12_3 1_555 1_555
C7_3 C6_3 1_555 1_555
C8_3 C7_3 1_555 1_555
H13_3 C8_3 1_555 1_555
C9_3 C8_3 1_555 1_555
C10_3 C5_3 1_555 1_555
H14_3 C10_3 1_555 1_555
C11_3 C5_3 1_555 1_555
C12_3 C7_3 1_555 1_555
C13_3 C9_3 1_555 1_555
O1_3 C11_3 1_555 1_555
O7 C11_3 1_555 1_555
O3_3 C13_3 1_555 1_555
O4_2 C13_3 1_555 1_555
O5_3 C12_3 1_555 1_555
O9 C12_3 1_555 1_555
C9_3 C10_3 1_555 1_555
O8_2 Zn4 1_555 1_555
C12_4 C7_4 1_555 1_555
O5_4 C12_4 1_555 1_555
O9_2 C12_4 1_555 1_555
C5_4 C6_4 1_555 1_555
C6_4 H12_4 1_555 1_555
C9_4 C8_4 1_555 1_555
C10_4 C5_4 1_555 1_555
H14_4 C10_4 1_555 1_555
C11_4 C5_4 1_555 1_555
C13_4 C9_4 1_555 1_555
O1_4 C11_4 1_555 1_555
O7_2 C11_4 1_555 1_555
O3_4 C13_4 1_555 1_555
O8_2 C13_4 1_555 1_555
C9_4 C10_4 1_555 1_555

#END
