
###############################################################################
#
# This file contains modified crystal structure data generated from the
# MOF subset of the Cambridge Structural Database (CSD) v543 
# hosted by the Cambridge Crystallographic Data Centre (CCDC).
#
# This work is licensed under the Creative Commons
# Attribution-NonCommercial-ShareAlike 4.0 International License.
# To view a copy of this license, visit
# http://creativecommons.org/licenses/by-nc-sa/4.0/
# or send a letter to
# Creative Commons, PO Box 1866, Mountain View, CA 94042, USA.
#
# CIF created using the CSD Python API on 29 September 2022
# The structure has been converted into the P1 space group
# The structure has a 3D framework
# The original CSD entry XAPSOY is in the monoclinic crystal system
# The framework has been calculated to contain at least 10.0% void space
# The void calculation uses a probe of radius 1.32A, grid spacing 0.4
#
###############################################################################

data_XAPSOY
_chemical_formula_moiety         '(C120 H80 Co10 N16 O48)n'
_symmetry_cell_setting           triclinic
_symmetry_space_group_name_H-M   'P 1'
_symmetry_Int_Tables_number      1
_space_group_name_Hall           'P 1'
loop_
_symmetry_equiv_pos_site_id
_symmetry_equiv_pos_as_xyz
1 x,y,z
_cell_length_a                   13.616(3)
_cell_length_b                   16.828(3)
_cell_length_c                   16.796(3)
_cell_angle_alpha                90
_cell_angle_beta                 99.130(3)
_cell_angle_gamma                90
_cell_volume                     3799.71
loop_
_atom_site_label
_atom_site_type_symbol
_atom_site_fract_x
_atom_site_fract_y
_atom_site_fract_z
Co1 Co 0.20414(5) 0.25183(3) 0.16391(4)
O1 O 0.1613(3) 0.1549(2) 0.1030(3)
O2 O 0.0288(3) 0.1461(3) 0.1610(3)
O3 O 0.1534(3) 0.3507(2) 0.1138(3)
O4 O 0.0033(3) 0.3396(2) 0.1483(3)
O5 O 0.1918(3) 0.24167(19) 0.2790(2)
O6 O 0.3076(3) 0.3329(2) 0.3113(2)
N1 N 0.3429(4) 0.2580(3) 0.1347(3)
N2 N 0.4927(4) 0.2929(4) 0.1232(3)
H1 H 0.5499 0.3156 0.1340
C2 C 0.0389(4) 0.0588(3) 0.0547(3)
C4 C 0.0785(4) 0.1253(3) 0.1107(3)
C6 C 0.0305(4) 0.4385(3) 0.0531(3)
C7 C 0.0994(4) 0.4839(3) 0.0209(4)
H5 H 0.1668 0.4728 0.0351
C8 C 0.0636(4) 0.3706(3) 0.1102(3)
C9 C 0.1981(4) 0.2000(3) 0.4424(3)
H6 H 0.1632 0.1664 0.4040
C10 C 0.2482(4) 0.2671(3) 0.4175(3)
C11 C 0.2990(4) 0.3155(3) 0.4770(3)
H7 H 0.3322 0.3599 0.4619
C12 C 0.2493(3) 0.2837(3) 0.3314(3)
C13 C 0.3775(6) 0.2222(7) 0.0721(5)
H8 H 0.3401 0.1869 0.0369
C14 C 0.4664(6) 0.2420(5) 0.0666(5)
H9 H 0.5045 0.2235 0.0292
C15 C 0.4153(4) 0.3041(3) 0.1622(3)
H10 H 0.4143 0.3404 0.2037
Co2 Co -0.0000 0.24316(11) 0.2500
Co5 Co 0.29586(5) 0.24817(3) 0.83609(4)
O14 O 0.3082(3) 0.25833(19) 0.7210(2)
O16 O 0.1924(3) 0.1671(2) 0.6887(2)
C24 C 0.3019(4) 0.3000(3) 0.5576(3)
H16 H 0.3368 0.3336 0.5960
C25 C 0.2518(4) 0.2329(3) 0.5825(3)
C26 C 0.2010(4) 0.1845(3) 0.5230(3)
H17 H 0.1678 0.1401 0.5381
C27 C 0.2507(3) 0.2163(3) 0.6686(3)
C3 C 0.0858(4) 0.0400(3) 0.9878(3)
H3 H 0.1433 0.0666 0.9798
C20 C 0.0699(4) 0.5452(3) 0.9686(4)
H14 H 0.1171 0.5756 0.9478
Co7 Co -0.0000 0.75684(11) 0.7500
C16 C 0.0452(4) 0.9818(3) 0.9345(3)
H12 H 0.0758 0.9699 0.8902
C1 C 0.9548(4) 0.0182(3) 0.0655(3)
H2 H 0.9242 0.0301 0.1098
C5 C 0.9301(4) 0.4548(3) 0.0314(4)
H4 H 0.8829 0.4244 0.0522
Co2_2 Co 1.0000 0.24316(11) 0.2500
O9 O 0.9712(3) 0.1461(3) 0.3390(3)
O13 O 0.9967(3) 0.3396(2) 0.3517(3)
Co4 Co 0.79586(5) 0.74817(3) 0.83609(4)
O10 O 0.8466(3) 0.6493(2) 0.8862(3)
O12 O 0.9967(3) 0.6604(2) 0.8517(3)
C21 C 0.9695(4) 0.5615(3) 0.9469(3)
C22 C 0.9006(4) 0.5161(3) 0.9791(4)
H15 H 0.8332 0.5272 0.9649
C23 C 0.9364(4) 0.6294(3) 0.8898(3)
Co7_2 Co 1.0000 0.75684(11) 0.7500
C18 C 0.9142(4) 0.9600(3) 0.0122(3)
H13 H 0.8567 0.9334 0.0202
O7 O 0.8387(3) 0.8451(2) 0.8970(3)
O8 O 0.9712(3) 0.8539(3) 0.8390(3)
O15 O 0.8082(3) 0.75833(19) 0.7210(2)
N3 N 0.6571(4) 0.7420(3) 0.8653(3)
N4 N 0.5073(4) 0.7071(4) 0.8768(3)
H11 H 0.4501 0.6844 0.8660
C17 C 0.9611(4) 0.9412(3) 0.9453(3)
C19 C 0.9215(4) 0.8747(3) 0.8893(3)
C28 C 0.6225(6) 0.7778(7) 0.9279(5)
H18 H 0.6599 0.8131 0.9631
C29 C 0.5336(6) 0.7580(5) 0.9334(5)
H19 H 0.4955 0.7765 0.9708
C30 C 0.5847(4) 0.6959(3) 0.8378(3)
H20 H 0.5857 0.6596 0.7963
C1_2 C 0.0452(4) 0.0182(3) 0.4345(3)
H2_2 H 0.0758 0.0301 0.3902
C5_2 C 0.0699(4) 0.4548(3) 0.4686(4)
H4_2 H 0.1171 0.4244 0.4478
Co4_2 Co 0.20414(5) 0.74817(3) 0.66391(4)
O10_2 O 0.1534(3) 0.6493(2) 0.6138(3)
O12_2 O 0.0033(3) 0.6604(2) 0.6483(3)
C21_2 C 0.0305(4) 0.5615(3) 0.5531(3)
C22_2 C 0.0994(4) 0.5161(3) 0.5209(4)
H15_2 H 0.1668 0.5272 0.5351
C23_2 C 0.0636(4) 0.6294(3) 0.6102(3)
O7_2 O 0.1613(3) 0.8451(2) 0.6030(3)
O8_2 O 0.0288(3) 0.8539(3) 0.6610(3)
O15_2 O 0.1918(3) 0.75833(19) 0.7790(2)
N3_2 N 0.3429(4) 0.7420(3) 0.6347(3)
N4_2 N 0.4927(4) 0.7071(4) 0.6232(3)
H11_2 H 0.5499 0.6844 0.6340
C17_2 C 0.0389(4) 0.9412(3) 0.5547(3)
C18_2 C 0.0858(4) 0.9600(3) 0.4878(3)
H13_2 H 0.1433 0.9334 0.4798
C19_2 C 0.0785(4) 0.8747(3) 0.6107(3)
C28_2 C 0.3775(6) 0.7778(7) 0.5721(5)
H18_2 H 0.3401 0.8131 0.5369
C29_2 C 0.4664(6) 0.7580(5) 0.5666(5)
H19_2 H 0.5045 0.7765 0.5292
C30_2 C 0.4153(4) 0.6959(3) 0.6622(3)
H20_2 H 0.4143 0.6596 0.7037
Co1_2 Co 0.79586(5) 0.25183(3) 0.33609(4)
O1_2 O 0.8387(3) 0.1549(2) 0.3970(3)
O3_2 O 0.8466(3) 0.3507(2) 0.3862(3)
O5_2 O 0.8082(3) 0.24167(19) 0.2210(2)
O6_2 O 0.6924(3) 0.3329(2) 0.1887(2)
N1_2 N 0.6571(4) 0.2580(3) 0.3653(3)
N2_2 N 0.5073(4) 0.2929(4) 0.3768(3)
H1_2 H 0.4501 0.3156 0.3660
C2_2 C 0.9611(4) 0.0588(3) 0.4453(3)
C3_2 C 0.9142(4) 0.0400(3) 0.5122(3)
H3_2 H 0.8567 0.0666 0.5202
C4_2 C 0.9215(4) 0.1253(3) 0.3893(3)
C6_2 C 0.9695(4) 0.4385(3) 0.4469(3)
C7_2 C 0.9006(4) 0.4839(3) 0.4791(4)
H5_2 H 0.8332 0.4728 0.4649
C8_2 C 0.9364(4) 0.3706(3) 0.3898(3)
C9_2 C 0.8019(4) 0.2000(3) 0.0576(3)
H6_2 H 0.8368 0.1664 0.0960
C10_2 C 0.7518(4) 0.2671(3) 0.0825(3)
C11_2 C 0.7010(4) 0.3155(3) 0.0230(3)
H7_2 H 0.6678 0.3599 0.0381
C12_2 C 0.7507(3) 0.2837(3) 0.1686(3)
C13_2 C 0.6225(6) 0.2222(7) 0.4279(5)
H8_2 H 0.6599 0.1869 0.4631
C14_2 C 0.5336(6) 0.2420(5) 0.4334(5)
H9_2 H 0.4955 0.2235 0.4708
C15_2 C 0.5847(4) 0.3041(3) 0.3378(3)
H10_2 H 0.5857 0.3404 0.2963
C20_2 C 0.9301(4) 0.5452(3) 0.5314(4)
H14_2 H 0.8829 0.5756 0.5522
Co5_2 Co 0.70414(5) 0.24817(3) 0.66391(4)
O14_2 O 0.6918(3) 0.25833(19) 0.7790(2)
O16_2 O 0.8076(3) 0.1671(2) 0.8113(2)
C24_2 C 0.6981(4) 0.3000(3) 0.9424(3)
H16_2 H 0.6632 0.3336 0.9040
C25_2 C 0.7482(4) 0.2329(3) 0.9175(3)
C26_2 C 0.7990(4) 0.1845(3) 0.9770(3)
H17_2 H 0.8322 0.1401 0.9619
C27_2 C 0.7493(3) 0.2163(3) 0.8314(3)
C16_2 C 0.9548(4) 0.9818(3) 0.5655(3)
H12_2 H 0.9242 0.9699 0.6098
O10_3 O 0.3466(3) 0.1493(2) 0.8862(3)
O12_3 O 0.4967(3) 0.1604(2) 0.8517(3)
C20_3 C 0.5699(4) 0.0452(3) 0.9686(4)
H14_3 H 0.6171 0.0756 0.9478
C21_3 C 0.4695(4) 0.0615(3) 0.9469(3)
C22_3 C 0.4006(4) 0.0161(3) 0.9791(4)
H15_3 H 0.3332 0.0272 0.9649
C23_3 C 0.4364(4) 0.1294(3) 0.8898(3)
Co7_3 Co 0.5000 0.25684(11) 0.7500
Co1_3 Co 0.70414(5) 0.75183(3) 0.16391(4)
O1_3 O 0.6613(3) 0.6549(2) 0.1030(3)
O2_2 O 0.5288(3) 0.6461(3) 0.1610(3)
O3_3 O 0.6534(3) 0.8507(2) 0.1138(3)
O4_2 O 0.5033(3) 0.8396(2) 0.1483(3)
O5_3 O 0.6918(3) 0.74167(19) 0.2790(2)
O6_3 O 0.8076(3) 0.8329(2) 0.3113(2)
N1_3 N 0.8429(4) 0.7580(3) 0.1347(3)
N2_3 N 0.9927(4) 0.7929(4) 0.1232(3)
C1_3 C 0.4548(4) 0.5182(3) 0.0655(3)
H2_3 H 0.4242 0.5301 0.1098
C2_3 C 0.5389(4) 0.5588(3) 0.0547(3)
C4_3 C 0.5785(4) 0.6253(3) 0.1107(3)
C5_3 C 0.4301(4) 0.9548(3) 0.0314(4)
H4_3 H 0.3829 0.9244 0.0522
C6_3 C 0.5305(4) 0.9385(3) 0.0531(3)
C7_3 C 0.5994(4) 0.9839(3) 0.0209(4)
H5_3 H 0.6668 0.9728 0.0351
C8_3 C 0.5636(4) 0.8706(3) 0.1102(3)
C9_3 C 0.6981(4) 0.7000(3) 0.4424(3)
H6_3 H 0.6632 0.6664 0.4040
C10_3 C 0.7482(4) 0.7671(3) 0.4175(3)
C11_3 C 0.7990(4) 0.8155(3) 0.4770(3)
H7_3 H 0.8322 0.8599 0.4619
C12_3 C 0.7493(3) 0.7837(3) 0.3314(3)
C13_3 C 0.8775(6) 0.7222(7) 0.0721(5)
H8_3 H 0.8401 0.6869 0.0369
C14_3 C 0.9664(6) 0.7420(5) 0.0666(5)
C15_3 C 0.9153(4) 0.8041(3) 0.1622(3)
H10_3 H 0.9143 0.8404 0.2037
Co2_3 Co 0.5000 0.74316(11) 0.2500
O9_2 O 0.4712(3) 0.6461(3) 0.3390(3)
O13_2 O 0.4967(3) 0.8396(2) 0.3517(3)
O16_3 O 0.6924(3) 0.6671(2) 0.6887(2)
C18_3 C 0.4142(4) 0.4600(3) 0.0122(3)
H13_3 H 0.3567 0.4334 0.0202
C24_3 C 0.8019(4) 0.8000(3) 0.5576(3)
H16_3 H 0.8368 0.8336 0.5960
C25_3 C 0.7518(4) 0.7329(3) 0.5825(3)
C26_3 C 0.7010(4) 0.6845(3) 0.5230(3)
H17_3 H 0.6678 0.6401 0.5381
C27_3 C 0.7507(3) 0.7163(3) 0.6686(3)
C3_3 C 0.5858(4) 0.5400(3) 0.9878(3)
H3_3 H 0.6433 0.5666 0.9798
O7_3 O 0.3387(3) 0.3451(2) 0.8970(3)
O8_3 O 0.4712(3) 0.3539(3) 0.8390(3)
N3_3 N 0.1571(4) 0.2420(3) 0.8653(3)
N4_3 N 0.0073(4) 0.2071(4) 0.8768(3)
C16_3 C 0.5452(4) 0.4818(3) 0.9345(3)
H12_3 H 0.5758 0.4699 0.8902
C17_3 C 0.4611(4) 0.4412(3) 0.9453(3)
C19_3 C 0.4215(4) 0.3747(3) 0.8893(3)
C28_3 C 0.1225(6) 0.2778(7) 0.9279(5)
H18_3 H 0.1599 0.3131 0.9631
C29_3 C 0.0336(6) 0.2580(5) 0.9334(5)
C30_3 C 0.0847(4) 0.1959(3) 0.8378(3)
H20_3 H 0.0857 0.1596 0.7963
O10_4 O 0.6534(3) 0.1493(2) 0.6138(3)
O12_4 O 0.5033(3) 0.1604(2) 0.6483(3)
C20_4 C 0.4301(4) 0.0452(3) 0.5314(4)
H14_4 H 0.3829 0.0756 0.5522
C21_4 C 0.5305(4) 0.0615(3) 0.5531(3)
C22_4 C 0.5994(4) 0.0161(3) 0.5209(4)
H15_4 H 0.6668 0.0272 0.5351
C23_4 C 0.5636(4) 0.1294(3) 0.6102(3)
Co1_4 Co 0.29586(5) 0.75183(3) 0.33609(4)
O1_4 O 0.3387(3) 0.6549(2) 0.3970(3)
O3_4 O 0.3466(3) 0.8507(2) 0.3862(3)
O5_4 O 0.3082(3) 0.74167(19) 0.2210(2)
O6_4 O 0.1924(3) 0.8329(2) 0.1887(2)
N1_4 N 0.1571(4) 0.7580(3) 0.3653(3)
N2_4 N 0.0073(4) 0.7929(4) 0.3768(3)
C1_4 C 0.5452(4) 0.5182(3) 0.4345(3)
H2_4 H 0.5758 0.5301 0.3902
C2_4 C 0.4611(4) 0.5588(3) 0.4453(3)
C3_4 C 0.4142(4) 0.5400(3) 0.5122(3)
H3_4 H 0.3567 0.5666 0.5202
C4_4 C 0.4215(4) 0.6253(3) 0.3893(3)
C5_4 C 0.5699(4) 0.9548(3) 0.4686(4)
H4_4 H 0.6171 0.9244 0.4478
C6_4 C 0.4695(4) 0.9385(3) 0.4469(3)
C7_4 C 0.4006(4) 0.9839(3) 0.4791(4)
H5_4 H 0.3332 0.9728 0.4649
C8_4 C 0.4364(4) 0.8706(3) 0.3898(3)
C9_4 C 0.3019(4) 0.7000(3) 0.0576(3)
H6_4 H 0.3368 0.6664 0.0960
C10_4 C 0.2518(4) 0.7671(3) 0.0825(3)
C11_4 C 0.2010(4) 0.8155(3) 0.0230(3)
H7_4 H 0.1678 0.8599 0.0381
C12_4 C 0.2507(3) 0.7837(3) 0.1686(3)
C13_4 C 0.1225(6) 0.7222(7) 0.4279(5)
H8_4 H 0.1599 0.6869 0.4631
C14_4 C 0.0336(6) 0.7420(5) 0.4334(5)
C15_4 C 0.0847(4) 0.8041(3) 0.3378(3)
H10_4 H 0.0857 0.8404 0.2963
O7_4 O 0.6613(3) 0.3451(2) 0.6030(3)
O8_4 O 0.5288(3) 0.3539(3) 0.6610(3)
N3_4 N 0.8429(4) 0.2420(3) 0.6347(3)
N4_4 N 0.9927(4) 0.2071(4) 0.6232(3)
C16_4 C 0.4548(4) 0.4818(3) 0.5655(3)
H12_4 H 0.4242 0.4699 0.6098
C17_4 C 0.5389(4) 0.4412(3) 0.5547(3)
C18_4 C 0.5858(4) 0.4600(3) 0.4878(3)
H13_4 H 0.6433 0.4334 0.4798
C19_4 C 0.5785(4) 0.3747(3) 0.6107(3)
C28_4 C 0.8775(6) 0.2778(7) 0.5721(5)
H18_4 H 0.8401 0.3131 0.5369
C29_4 C 0.9664(6) 0.2580(5) 0.5666(5)
C30_4 C 0.9153(4) 0.1959(3) 0.6622(3)
H20_4 H 0.9143 0.1596 0.7037
O16_4 O 0.3076(3) 0.6671(2) 0.8113(2)
C24_4 C 0.1981(4) 0.8000(3) 0.9424(3)
H16_4 H 0.1632 0.8336 0.9040
C25_4 C 0.2482(4) 0.7329(3) 0.9175(3)
C26_4 C 0.2990(4) 0.6845(3) 0.9770(3)
H17_4 H 0.3322 0.6401 0.9619
C27_4 C 0.2493(3) 0.7163(3) 0.8314(3)
H1_3 H 0.0499 0.8156 0.1340
H9_3 H 0.0045 0.7235 0.0292
H11_3 H 0.9501 0.1844 0.8660
H19_3 H 0.9955 0.2765 0.9708
H11_4 H 0.0499 0.1844 0.6340
H19_4 H 0.0045 0.2765 0.5292
H1_4 H 0.9501 0.8156 0.3660
H9_4 H 0.9955 0.7235 0.4708
loop_
_geom_bond_atom_site_label_1
_geom_bond_atom_site_label_2
_geom_bond_site_symmetry_1
_geom_bond_site_symmetry_2
Co1 O1 1_555 1_555
O1 C4 1_555 1_555
O2 C4 1_555 1_555
O3 Co1 1_555 1_555
O4 C8 1_555 1_555
O5 Co1 1_555 1_555
O6 C12 1_555 1_555
N1 Co1 1_555 1_555
N2 H1 1_555 1_555
C4 C2 1_555 1_555
C7 C6 1_555 1_555
H5 C7 1_555 1_555
C8 O3 1_555 1_555
C9 H6 1_555 1_555
C10 C9 1_555 1_555
C11 C10 1_555 1_555
H7 C11 1_555 1_555
C12 O5 1_555 1_555
C13 N1 1_555 1_555
H8 C13 1_555 1_555
C14 N2 1_555 1_555
H9 C14 1_555 1_555
C15 N1 1_555 1_555
H10 C15 1_555 1_555
Co2 O2 1_555 1_555
Co5 O14 1_555 1_555
O14 C27 1_555 1_555
O16 C27 1_555 1_555
C24 C11 1_555 1_555
H16 C24 1_555 1_555
C25 C24 1_555 1_555
C26 C9 1_555 1_555
H17 C26 1_555 1_555
C27 C25 1_555 1_555
O4 Co2 1_555 1_555
N2 C15 1_555 1_555
C6 C8 1_555 1_555
C10 C12 1_555 1_555
C13 C14 1_555 1_555
C25 C26 1_555 1_555
H3 C3 1_555 1_555
H14 C20 1_555 1_555
H12 C16 1_555 1_555
C1 H2 1_555 1_555
C5 H4 1_555 1_555
O9 Co2_2 1_555 1_555
O13 Co2_2 1_555 1_555
Co4 O10 1_555 1_555
O10 C23 1_555 1_555
O12 C23 1_555 1_555
H15 C22 1_555 1_555
C23 C21 1_555 1_555
Co7_2 O12 1_555 1_555
C21 C22 1_555 1_555
H13 C18 1_555 1_555
Co4 O7 1_555 1_555
O7 C19 1_555 1_555
O8 C19 1_555 1_555
O15 Co4 1_555 1_555
N3 Co4 1_555 1_555
N4 H11 1_555 1_555
C19 C17 1_555 1_555
C28 N3 1_555 1_555
H18 C28 1_555 1_555
C29 N4 1_555 1_555
H19 C29 1_555 1_555
C30 N3 1_555 1_555
H20 C30 1_555 1_555
Co7_2 O8 1_555 1_555
N4 C30 1_555 1_555
C28 C29 1_555 1_555
C1_2 H2_2 1_555 1_555
C5_2 H4_2 1_555 1_555
Co4_2 O10_2 1_555 1_555
O10_2 C23_2 1_555 1_555
O12_2 C23_2 1_555 1_555
C22_2 C5_2 1_555 1_555
H15_2 C22_2 1_555 1_555
C23_2 C21_2 1_555 1_555
Co7 O12_2 1_555 1_555
C21_2 C22_2 1_555 1_555
Co4_2 O7_2 1_555 1_555
O7_2 C19_2 1_555 1_555
O8_2 C19_2 1_555 1_555
O15_2 Co4_2 1_555 1_555
N3_2 Co4_2 1_555 1_555
N4_2 H11_2 1_555 1_555
H13_2 C18_2 1_555 1_555
C19_2 C17_2 1_555 1_555
C28_2 N3_2 1_555 1_555
H18_2 C28_2 1_555 1_555
C29_2 N4_2 1_555 1_555
H19_2 C29_2 1_555 1_555
C30_2 N3_2 1_555 1_555
H20_2 C30_2 1_555 1_555
Co7 O8_2 1_555 1_555
N4_2 C30_2 1_555 1_555
C17_2 C18_2 1_555 1_555
C28_2 C29_2 1_555 1_555
Co1_2 O1_2 1_555 1_555
O1_2 C4_2 1_555 1_555
O9 C4_2 1_555 1_555
O3_2 Co1_2 1_555 1_555
O13 C8_2 1_555 1_555
O5_2 Co1_2 1_555 1_555
O6_2 C12_2 1_555 1_555
N1_2 Co1_2 1_555 1_555
N2_2 H1_2 1_555 1_555
C3_2 C2_2 1_555 1_555
H3_2 C3_2 1_555 1_555
C4_2 C2_2 1_555 1_555
C7_2 C6_2 1_555 1_555
H5_2 C7_2 1_555 1_555
C8_2 O3_2 1_555 1_555
C9_2 H6_2 1_555 1_555
C10_2 C9_2 1_555 1_555
C11_2 C10_2 1_555 1_555
H7_2 C11_2 1_555 1_555
C12_2 O5_2 1_555 1_555
C13_2 N1_2 1_555 1_555
H8_2 C13_2 1_555 1_555
C14_2 N2_2 1_555 1_555
H9_2 C14_2 1_555 1_555
C15_2 N1_2 1_555 1_555
H10_2 C15_2 1_555 1_555
C20_2 C7_2 1_555 1_555
H14_2 C20_2 1_555 1_555
N2_2 C15_2 1_555 1_555
C6_2 C8_2 1_555 1_555
C10_2 C12_2 1_555 1_555
C13_2 C14_2 1_555 1_555
Co5_2 O14_2 1_555 1_555
O14_2 C27_2 1_555 1_555
O16_2 C27_2 1_555 1_555
H16_2 C24_2 1_555 1_555
C25_2 C24_2 1_555 1_555
H17_2 C26_2 1_555 1_555
C27_2 C25_2 1_555 1_555
C25_2 C26_2 1_555 1_555
H12_2 C16_2 1_555 1_555
Co5 O10_3 1_555 1_555
O10_3 C23_3 1_555 1_555
O12_3 C23_3 1_555 1_555
H14_3 C20_3 1_555 1_555
C21_3 C20_3 1_555 1_555
H15_3 C22_3 1_555 1_555
C23_3 C21_3 1_555 1_555
Co7_3 O12_3 1_555 1_555
C21_3 C22_3 1_555 1_555
Co1_3 O1_3 1_555 1_555
O1_3 C4_3 1_555 1_555
O2_2 C4_3 1_555 1_555
O3_3 Co1_3 1_555 1_555
O4_2 C8_3 1_555 1_555
O5_3 Co1_3 1_555 1_555
O6_3 C12_3 1_555 1_555
N1_3 Co1_3 1_555 1_555
C1_3 H2_3 1_555 1_555
C2_3 C1_3 1_555 1_555
C4_3 C2_3 1_555 1_555
C5_3 H4_3 1_555 1_555
C6_3 C5_3 1_555 1_555
C7_3 C6_3 1_555 1_555
H5_3 C7_3 1_555 1_555
C8_3 O3_3 1_555 1_555
C9_3 H6_3 1_555 1_555
C10_3 C9_3 1_555 1_555
C11_3 C10_3 1_555 1_555
H7_3 C11_3 1_555 1_555
C12_3 O5_3 1_555 1_555
C13_3 N1_3 1_555 1_555
H8_3 C13_3 1_555 1_555
C14_3 N2_3 1_555 1_555
C15_3 N1_3 1_555 1_555
H10_3 C15_3 1_555 1_555
Co2_3 O2_2 1_555 1_555
O9_2 Co2_3 1_555 1_555
O13_2 Co2_3 1_555 1_555
O15 C27_3 1_555 1_555
O16_3 C27_3 1_555 1_555
C18_3 C1_3 1_555 1_555
H13_3 C18_3 1_555 1_555
C24_3 C11_3 1_555 1_555
H16_3 C24_3 1_555 1_555
C25_3 C24_3 1_555 1_555
C26_3 C9_3 1_555 1_555
H17_3 C26_3 1_555 1_555
C27_3 C25_3 1_555 1_555
O4_2 Co2_3 1_555 1_555
N2_3 C15_3 1_555 1_555
C6_3 C8_3 1_555 1_555
C10_3 C12_3 1_555 1_555
C13_3 C14_3 1_555 1_555
C25_3 C26_3 1_555 1_555
H3_3 C3_3 1_555 1_555
Co5 O7_3 1_555 1_555
O7_3 C19_3 1_555 1_555
O8_3 C19_3 1_555 1_555
N3_3 Co5 1_555 1_555
C16_3 C3_3 1_555 1_555
H12_3 C16_3 1_555 1_555
C17_3 C16_3 1_555 1_555
C19_3 C17_3 1_555 1_555
C28_3 N3_3 1_555 1_555
H18_3 C28_3 1_555 1_555
C29_3 N4_3 1_555 1_555
C30_3 N3_3 1_555 1_555
H20_3 C30_3 1_555 1_555
Co7_3 O8_3 1_555 1_555
N4_3 C30_3 1_555 1_555
C28_3 C29_3 1_555 1_555
Co5_2 O10_4 1_555 1_555
O10_4 C23_4 1_555 1_555
O12_4 C23_4 1_555 1_555
H14_4 C20_4 1_555 1_555
C21_4 C20_4 1_555 1_555
H15_4 C22_4 1_555 1_555
C23_4 C21_4 1_555 1_555
Co7_3 O12_4 1_555 1_555
C21_4 C22_4 1_555 1_555
Co1_4 O1_4 1_555 1_555
O1_4 C4_4 1_555 1_555
O9_2 C4_4 1_555 1_555
O3_4 Co1_4 1_555 1_555
O13_2 C8_4 1_555 1_555
O5_4 Co1_4 1_555 1_555
O6_4 C12_4 1_555 1_555
N1_4 Co1_4 1_555 1_555
C1_4 H2_4 1_555 1_555
C2_4 C1_4 1_555 1_555
C3_4 C2_4 1_555 1_555
H3_4 C3_4 1_555 1_555
C4_4 C2_4 1_555 1_555
C5_4 H4_4 1_555 1_555
C6_4 C5_4 1_555 1_555
C7_4 C6_4 1_555 1_555
H5_4 C7_4 1_555 1_555
C8_4 O3_4 1_555 1_555
C9_4 H6_4 1_555 1_555
C10_4 C9_4 1_555 1_555
C11_4 C10_4 1_555 1_555
H7_4 C11_4 1_555 1_555
C12_4 O5_4 1_555 1_555
C13_4 N1_4 1_555 1_555
H8_4 C13_4 1_555 1_555
C14_4 N2_4 1_555 1_555
C15_4 N1_4 1_555 1_555
H10_4 C15_4 1_555 1_555
Co5_2 O7_4 1_555 1_555
O7_4 C19_4 1_555 1_555
O8_4 C19_4 1_555 1_555
N3_4 Co5_2 1_555 1_555
C16_4 C3_4 1_555 1_555
H12_4 C16_4 1_555 1_555
C17_4 C16_4 1_555 1_555
C18_4 C1_4 1_555 1_555
H13_4 C18_4 1_555 1_555
C19_4 C17_4 1_555 1_555
C28_4 N3_4 1_555 1_555
H18_4 C28_4 1_555 1_555
C29_4 N4_4 1_555 1_555
C30_4 N3_4 1_555 1_555
H20_4 C30_4 1_555 1_555
Co7_3 O8_4 1_555 1_555
N2_4 C15_4 1_555 1_555
C6_4 C8_4 1_555 1_555
C10_4 C12_4 1_555 1_555
C13_4 C14_4 1_555 1_555
N4_4 C30_4 1_555 1_555
C17_4 C18_4 1_555 1_555
C28_4 C29_4 1_555 1_555
O15_2 C27_4 1_555 1_555
O16_4 C27_4 1_555 1_555
H16_4 C24_4 1_555 1_555
C25_4 C24_4 1_555 1_555
H17_4 C26_4 1_555 1_555
C27_4 C25_4 1_555 1_555
C25_4 C26_4 1_555 1_555

#END
