
###############################################################################
#
# This file contains modified crystal structure data generated from the
# MOF subset of the Cambridge Structural Database (CSD) v543 
# hosted by the Cambridge Crystallographic Data Centre (CCDC).
#
# This work is licensed under the Creative Commons
# Attribution-NonCommercial-ShareAlike 4.0 International License.
# To view a copy of this license, visit
# http://creativecommons.org/licenses/by-nc-sa/4.0/
# or send a letter to
# Creative Commons, PO Box 1866, Mountain View, CA 94042, USA.
#
# CIF created using the CSD Python API on 29 September 2022
# The structure has been converted into the P1 space group
# The structure has a 3D framework
# The original CSD entry XARVAR is in the tetragonal crystal system
# The framework has been calculated to contain at least 10.0% void space
# The void calculation uses a probe of radius 1.32A, grid spacing 0.4
# The framework is charged, counterions have been retained in the structure
#
###############################################################################

data_XARVAR
_chemical_formula_moiety         '(C1200 H928 La16 N32 O378 Zr32 8-)n'
_symmetry_cell_setting           triclinic
_symmetry_space_group_name_H-M   'P 1'
_symmetry_Int_Tables_number      1
_space_group_name_Hall           'P 1'
loop_
_symmetry_equiv_pos_site_id
_symmetry_equiv_pos_as_xyz
1 x,y,z
_cell_length_a                   32.5686(6)
_cell_length_b                   32.5686(6)
_cell_length_c                   36.0783(9)
_cell_angle_alpha                90
_cell_angle_beta                 90
_cell_angle_gamma                90
_cell_volume                     38268.7
loop_
_atom_site_label
_atom_site_type_symbol
_atom_site_fract_x
_atom_site_fract_y
_atom_site_fract_z
O31 O 0.2059(4) 0.6850(4) 0.0536(3)
C99 C 0.1650(5) 0.7439(4) 0.0043(4)
C101 C 0.1460(5) 0.7791(4) 0.0617(4)
H74 H 0.146571 0.780507 0.088010
C106 C 0.1641(5) 0.7459(5) 0.0443(4)
C109 C 0.1257(4) 0.8075(4) 0.0015(4)
C114 C 0.1269(5) 0.8108(5) 0.0417(4)
C115 C 0.1098(5) 0.8451(5) 0.0597(4)
H85 H 0.110985 0.847038 0.085920
O48 O 0.1748(6) 0.7104(6) 0.1005(5)
C124 C 0.1824(6) 0.7120(6) 0.0687(5)
C130 C 0.0915(7) 0.8758(6) 0.0398(6)
H93 H 0.079092 0.898200 0.052396
O31_2 O 0.7941(4) 0.3150(4) 0.0536(3)
C99_2 C 0.8350(5) 0.2561(4) 0.0043(4)
C101_2 C 0.8540(5) 0.2209(4) 0.0617(4)
H74_2 H 0.853429 0.219493 0.088010
C106_2 C 0.8359(5) 0.2541(5) 0.0443(4)
C109_2 C 0.8743(4) 0.1925(4) 0.0015(4)
C114_2 C 0.8731(5) 0.1892(5) 0.0417(4)
C115_2 C 0.8902(5) 0.1549(5) 0.0597(4)
H85_2 H 0.889015 0.152962 0.085920
O48_2 O 0.8252(6) 0.2896(6) 0.1005(5)
C124_2 C 0.8176(6) 0.2880(6) 0.0687(5)
C130_2 C 0.9085(7) 0.1242(6) 0.0398(6)
H93_2 H 0.920908 0.101800 0.052396
La1 La 0.43688(3) 0.35422(3) 0.31037(3)
Zr1 Zr 0.61331(4) 0.36764(4) 0.34942(3)
Zr2 Zr 0.77734(4) 0.16762(4) 0.25070(3)
O1 O 0.7059(4) 0.1850(4) 0.5536(3)
O2 O 0.6370(3) 0.3339(4) 0.3092(3)
O3 O 0.6824(4) 0.2124(3) 0.4875(2)
O4 O 0.6652(4) 0.3930(4) 0.3677(3)
O5 O 0.6103(3) 0.3239(3) 0.3885(3)
O6 O 0.5506(4) 0.3470(4) 0.3429(3)
O7 O 0.7250(4) 0.2006(4) 0.2547(3)
O8 O 0.8214(4) 0.1154(4) 0.2457(3)
O9 O 0.4901(3) 0.3200(5) 0.3503(3)
O10 O 0.7777(4) 0.1460(4) 0.3018(3)
O11 O 0.5895(4) 0.4174(4) 0.3816(3)
O12 O 0.7340(4) 0.1249(4) 0.2272(4)
O13 O 0.5998(5) 0.4361(5) 0.2480(4)
O14 O 0.8680(4) 0.0717(4) 0.2578(3)
O15 O 0.6023(4) 0.4071(4) 0.3026(3)
O16 O 0.3758(5) 0.4002(4) 0.3076(4)
C1 C 0.7197(5) 0.4252(5) 0.3973(4)
O17 O 0.5798(4) 0.4700(5) 0.4194(4)
C2 C 0.6650(5) 0.2439(4) 0.5043(4)
N1 N 0.4734(7) 0.3751(7) 0.4279(6)
C3 C 0.6481(5) 0.4469(5) 0.4117(4)
C4 C 0.6077(5) 0.3415(6) 0.4825(4)
H1 H 0.607634 0.341034 0.456152
O18 O 0.5078(4) 0.3550(4) 0.2770(3)
H2 H 0.507933 0.374187 0.260011
H3 H 0.511443 0.332427 0.264231
C5 C 0.6460(5) 0.2791(4) 0.5617(4)
H4 H 0.646571 0.280507 0.588010
O19 O 0.4471(5) 0.2765(4) 0.2962(4)
H5 H 0.422136 0.257736 0.300810
H6 H 0.451232 0.269746 0.268697
C6 C 0.5908(5) 0.3743(5) 0.4995(5)
H7 H 0.578743 0.395844 0.485556
C7 C 0.6472(5) 0.3370(5) 0.2718(4)
C8 C 0.6622(6) 0.4751(6) 0.4354(4)
H8 H 0.643051 0.492315 0.447748
C9 C 0.7771(6) 0.4590(6) 0.4345(4)
H9 H 0.798099 0.442372 0.423972
C10 C 0.6793(5) 0.4208(5) 0.3924(4)
C11 C 0.6431(5) 0.2693(5) 0.4409(4)
H10 H 0.659700 0.244929 0.434017
H11 H 0.656277 0.293697 0.429699
N2 N 0.3363(6) 0.4373(6) 0.3452(5)
C12 C 0.6776(6) 0.2663(5) 0.2784(5)
H12 H 0.666754 0.269807 0.303902
H13 H 0.707580 0.261989 0.280225
C13 C 0.6641(5) 0.2459(5) 0.5443(4)
O20 O 0.4389(6) 0.3844(5) 0.3739(4)
C14 C 0.5888(5) 0.1967(5) 0.4569(5)
H14 H 0.616737 0.196195 0.464528
C15 C 0.6356(6) 0.3738(6) 0.2524(5)
C16 C 0.6257(4) 0.3075(4) 0.5015(4)
C17 C 0.5856(5) 0.2916(5) 0.4005(4)
O21 O 0.3839(5) 0.3164(6) 0.3480(3)
H15 H 0.392975 0.288865 0.357642
H16 H 0.358606 0.307245 0.333982
C18 C 0.5993(4) 0.2644(5) 0.4247(4)
O22 O 0.6798(5) 0.0984(6) 0.1997(5)
C19 C 0.5269(4) 0.3203(5) 0.3572(4)
C20 C 0.5436(5) 0.2907(5) 0.3863(4)
C21 C 0.6269(5) 0.3108(5) 0.5417(4)
C22 C 0.6098(5) 0.3451(5) 0.5597(4)
H17 H 0.610985 0.347038 0.585920
C23 C 0.5625(7) 0.1643(6) 0.4654(5)
H18 H 0.572837 0.141770 0.479205
C24 C 0.7179(7) 0.5134(6) 0.4680(4)
H19 H 0.699273 0.532578 0.478505
C25 C 0.6434(5) 0.2740(5) 0.4840(4)
C26 C 0.6580(6) 0.2289(6) 0.2611(7)
O23 O 0.4650(6) 0.4266(5) 0.3056(6)
H20 H 0.461926 0.445919 0.285079
H21 H 0.481116 0.441369 0.324079
C27 C 0.750000 0.4001(7) 0.375000
H22 H 0.734500 0.382144 0.357841
C28 C 0.7033(6) 0.4803(4) 0.4426(4)
C29 C 0.6813(6) 0.3090(6) 0.2191(4)
C30 C 0.5190(5) 0.2600(6) 0.3987(4)
H23 H 0.490944 0.259520 0.391469
C31 C 0.7342(6) 0.4540(6) 0.4246(5)
C32 C 0.7617(7) 0.5150(7) 0.4760(4)
H24 H 0.772609 0.534783 0.492723
C33 C 0.5072(5) 0.1966(6) 0.4344(5)
H25 H 0.478787 0.197942 0.428400
C34 C 0.6856(5) 0.1965(6) 0.2503(6)
C35 C 0.750000 0.1408(8) 0.375000
H26 H 0.759183 0.158843 0.395485
C36 C 0.5723(6) 0.2315(5) 0.4360(4)
C37 C 0.7853(8) 0.4887(6) 0.4596(5)
H27 H 0.813451 0.490665 0.466380
O24 O 0.6748(6) 0.2104(6) 0.6005(5)
C38 C 0.6824(6) 0.2120(6) 0.5687(5)
C39 C 0.6690(5) 0.3057(5) 0.2559(4)
C40 C 0.6113(6) 0.4078(6) 0.2689(6)
C41 C 0.7072(6) 0.2820(7) 0.1997(5)
H28 H 0.715609 0.258136 0.212774
C42 C 0.8395(6) 0.0955(5) 0.2692(5)
C43 C 0.5341(5) 0.2292(5) 0.4220(4)
C44 C 0.5215(6) 0.1638(6) 0.4545(4)
H29 H 0.504062 0.141533 0.460696
C45 C 0.7978(7) 0.1204(6) 0.3235(5)
C46 C 0.5915(7) 0.3758(6) 0.5398(6)
H30 H 0.579092 0.398200 0.552396
C47 C 0.6677(8) 0.3445(7) 0.1979(5)
C48 C 0.3447(9) 0.4092(8) 0.3221(5)
H31 H 0.322013 0.392485 0.315391
C49 C 0.6455(6) 0.3738(7) 0.2152(5)
H32 H 0.635870 0.396096 0.200614
C50 C 0.6046(6) 0.4448(5) 0.4041(5)
C51 C 0.6700(6) 0.1611(6) 0.2313(6)
C52 C 0.6950(6) 0.1263(6) 0.2174(5)
C53 C 0.3699(12) 0.4692(12) 0.3560(10)
H33 H 0.396086 0.461358 0.344707
H34 H 0.361784 0.496446 0.347052
H35 H 0.372858 0.469915 0.383025
C54 C 0.8304(7) 0.0939(6) 0.3092(5)
C55 C 0.7873(7) 0.1161(6) 0.3614(4)
C56 C 0.4450(7) 0.3674(9) 0.4017(6)
H36 H 0.427469 0.344804 0.406636
C57 C 0.7217(7) 0.2858(9) 0.1647(7)
H37 H 0.741329 0.267006 0.155172
C58 C 0.2972(9) 0.4460(9) 0.3609(7)
H38 H 0.283750 0.420245 0.368022
H39 H 0.300597 0.463416 0.382772
H40 H 0.280179 0.460294 0.342524
C59 C 0.8503(9) 0.0685(8) 0.3330(6)
H41 H 0.872058 0.052102 0.323552
C60 C 0.6788(8) 0.3481(10) 0.1572(6)
H42 H 0.667671 0.368994 0.141801
C61 C 0.4767(10) 0.3501(10) 0.4583(8)
H43 H 0.481304 0.366884 0.480486
H44 H 0.451306 0.334315 0.461256
H45 H 0.499845 0.331255 0.454933
C62 C 0.7072(10) 0.3181(9) 0.1432(7)
H46 H 0.716396 0.320375 0.118283
C63 C 0.8509(7) 0.0330(6) 0.4302(5)
H47 H 0.864714 0.013439 0.445284
C64 C 0.8608(6) 0.0365(6) 0.3929(5)
H48 H 0.881381 0.019382 0.382423
C65 C 0.8407(7) 0.0652(6) 0.3709(4)
C66 C 0.8106(6) 0.0903(5) 0.3862(4)
C67 C 0.8007(6) 0.0868(5) 0.4235(5)
H49 H 0.780191 0.103916 0.433991
C68 C 0.8209(7) 0.0581(7) 0.4455(4)
H50 H 0.814118 0.055707 0.471068
C69 C 0.6265(8) 0.1579(8) 0.2259(8)
H51 H 0.614918 0.138457 0.209342
C70 C 0.5604(6) 0.1758(6) 0.2479(7)
H52 H 0.550662 0.149833 0.239682
C71 C 0.6021(6) 0.1847(5) 0.2462(6)
C72 C 0.6164(5) 0.2227(6) 0.2583(6)
C73 C 0.5890(7) 0.2516(5) 0.2721(7)
H53 H 0.598765 0.277515 0.280374
C74 C 0.5473(7) 0.2426(8) 0.2738(7)
H54 H 0.528604 0.262378 0.283292
C75 C 0.5330(5) 0.2047(9) 0.2618(7)
H55 H 0.504552 0.198537 0.262946
C76 C 0.4998(9) 0.4102(9) 0.4221(8)
H56 H 0.524344 0.407636 0.437554
H57 H 0.507828 0.411475 0.395922
H58 H 0.484977 0.435372 0.428734
H59 H 0.765500 0.382144 0.392159
H60 H 0.740817 0.158843 0.354515
O25 O 0.8348(4) 0.3930(4) 0.3823(3)
O26 O 0.9105(4) 0.4174(4) 0.3684(3)
C77 C 0.7803(5) 0.4252(5) 0.3527(4)
O27 O 0.9202(4) 0.4700(5) 0.3306(4)
C78 C 0.8519(5) 0.4469(5) 0.3383(4)
C79 C 0.8378(6) 0.4751(6) 0.3146(4)
H61 H 0.856949 0.492315 0.302252
C80 C 0.7229(6) 0.4590(6) 0.3155(4)
H62 H 0.701901 0.442372 0.326028
C81 C 0.8207(5) 0.4208(5) 0.3576(4)
C82 C 0.7821(7) 0.5134(6) 0.2820(4)
H63 H 0.800727 0.532578 0.271495
C83 C 0.7967(6) 0.4803(4) 0.3074(4)
C84 C 0.7658(6) 0.4540(6) 0.3254(5)
C85 C 0.7383(7) 0.5150(7) 0.2740(4)
H64 H 0.727391 0.534783 0.257277
C86 C 0.7147(8) 0.4887(6) 0.2904(5)
H65 H 0.686549 0.490665 0.283620
C87 C 0.8954(6) 0.4448(5) 0.3459(5)
O28 O 0.6786(4) 0.1154(4) 0.5043(3)
O29 O 0.7223(4) 0.1460(4) 0.4482(3)
O30 O 0.6320(4) 0.0717(4) 0.4922(3)
C88 C 0.6605(6) 0.0955(5) 0.4808(5)
C89 C 0.7022(7) 0.1204(6) 0.4265(5)
C90 C 0.6696(7) 0.0939(6) 0.4408(5)
C91 C 0.7127(7) 0.1161(6) 0.3886(4)
C92 C 0.6497(9) 0.0685(8) 0.4170(6)
H66 H 0.627942 0.052102 0.426448
C93 C 0.6491(7) 0.0330(6) 0.3198(5)
H67 H 0.635286 0.013439 0.304716
C94 C 0.6392(6) 0.0365(6) 0.3571(5)
H68 H 0.618619 0.019382 0.367577
C95 C 0.6593(7) 0.0652(6) 0.3791(4)
C96 C 0.6894(6) 0.0903(5) 0.3638(4)
C97 C 0.6993(6) 0.0868(5) 0.3265(5)
H69 H 0.719809 0.103916 0.316009
C98 C 0.6791(7) 0.0581(7) 0.3045(4)
H70 H 0.685882 0.055707 0.278932
La2 La 0.85422(3) 0.06312(3) 0.18963(3)
O37 O 0.8200(5) 0.0099(3) 0.1497(3)
O41 O 0.9002(4) 0.1242(5) 0.1924(4)
N3 N 0.8751(7) 0.0266(7) 0.0721(6)
O43 O 0.7765(4) 0.0529(5) 0.2038(4)
H75 H 0.757736 0.077864 0.199190
H76 H 0.769746 0.048768 0.231303
N4 N 0.9373(6) 0.1637(6) 0.1548(5)
O44 O 0.8844(5) 0.0611(6) 0.1261(4)
O45 O 0.8164(6) 0.1161(5) 0.1520(3)
H83 H 0.788865 0.107025 0.142358
H84 H 0.807245 0.141394 0.166018
O47 O 0.9266(5) 0.0350(6) 0.1944(6)
H87 H 0.945919 0.038074 0.214921
H88 H 0.941369 0.018884 0.175921
H89 H 0.759520 0.009056 0.108531
H90 H 0.697942 0.021213 0.071600
C132 C 0.9092(8) 0.1553(9) 0.1779(5)
H94 H 0.892485 0.177987 0.184609
C136 C 0.9692(12) 0.1301(12) 0.1440(10)
H96 H 0.961358 0.103914 0.155293
H97 H 0.996446 0.138216 0.152948
H98 H 0.969915 0.127142 0.116975
C137 C 0.8674(9) 0.0550(7) 0.0983(6)
H99 H 0.844804 0.072531 0.093364
C139 C 0.9460(9) 0.2028(9) 0.1391(7)
H101 H 0.920245 0.216250 0.131978
H102 H 0.963416 0.199403 0.117228
H103 H 0.960294 0.219821 0.157476
C141 C 0.8501(10) 0.0233(10) 0.0417(8)
H105 H 0.866884 0.018696 0.019514
H106 H 0.834315 0.048694 0.038744
H107 H 0.831255 0.000155 0.045067
C150 C 0.9102(9) 0.0002(9) 0.0779(8)
H116 H 0.935372 0.015023 0.071266
La3 La 0.64578(3) 0.06312(3) 0.56037(3)
Zr5 Zr 0.88669(4) 0.36764(4) 0.40058(3)
Zr6 Zr 0.72266(4) 0.16762(4) 0.49930(3)
O49 O 0.7941(4) 0.1850(4) 0.1964(3)
O51 O 0.8176(4) 0.2124(3) 0.2625(2)
O55 O 0.3846(4) 0.3214(4) 0.2543(3)
O58 O 0.4283(4) 0.3680(4) 0.2422(3)
Zr3 Zr 0.86764(4) 0.88669(4) 0.15058(3)
Zr4 Zr 0.66762(4) 0.72266(4) 0.24930(3)
O32 O 0.8339(4) 0.8630(3) 0.1908(3)
O33 O 0.7124(3) 0.8176(4) 0.0125(2)
O34 O 0.8239(3) 0.8897(3) 0.1115(3)
O35 O 0.8470(4) 0.9494(4) 0.1571(3)
O36 O 0.7006(4) 0.7750(4) 0.2453(3)
O38 O 0.6249(4) 0.7660(4) 0.2728(4)
O39 O 0.9361(5) 0.9002(5) 0.2520(4)
O40 O 0.9071(4) 0.8977(4) 0.1974(3)
C100 C 0.8415(6) 0.8923(5) 0.0175(4)
H71 H 0.841034 0.892366 0.043848
O42 O 0.8550(4) 0.9922(4) 0.2230(3)
H72 H 0.874187 0.992067 0.239989
H73 H 0.832427 0.988557 0.235769
C102 C 0.8743(5) 0.9092(5) 0.0005(5)
H77 H 0.895844 0.921257 0.014444
C103 C 0.8370(5) 0.8528(5) 0.2282(4)
C104 C 0.7693(5) 0.8569(5) 0.0591(4)
H78 H 0.744929 0.840300 0.065983
H79 H 0.793697 0.843723 0.070301
C105 C 0.7663(5) 0.8224(6) 0.2216(5)
H80 H 0.769807 0.833246 0.196098
H81 H 0.761989 0.792420 0.219775
C107 C 0.6967(5) 0.9112(5) 0.0431(5)
H82 H 0.696195 0.883263 0.035472
C108 C 0.8738(6) 0.8644(6) 0.2476(5)
C110 C 0.7916(5) 0.9144(5) 0.0995(4)
C111 C 0.7644(5) 0.9007(4) 0.0753(4)
O46 O 0.5984(6) 0.8202(5) 0.3003(5)
C112 C 0.8203(5) 0.9731(4) 0.1428(4)
C113 C 0.7907(5) 0.9564(5) 0.1137(4)
C116 C 0.6643(6) 0.9375(7) 0.0346(5)
H86 H 0.641770 0.927163 0.020795
C117 C 0.7740(5) 0.8566(5) 0.0160(4)
C118 C 0.7289(6) 0.8420(6) 0.2389(7)
C119 C 0.8090(6) 0.8187(6) 0.2809(4)
C120 C 0.7600(6) 0.9810(5) 0.1013(4)
C121 C 0.6966(6) 0.9928(5) 0.0656(5)
C122 C 0.6965(6) 0.8144(5) 0.2497(6)
C123 C 0.7315(5) 0.9277(6) 0.0640(4)
C125 C 0.8057(5) 0.8310(5) 0.2441(4)
C126 C 0.9078(6) 0.8887(6) 0.2311(6)
C127 C 0.7820(7) 0.7928(6) 0.3003(5)
H91 H 0.758136 0.784391 0.287226
C128 C 0.7292(5) 0.9659(5) 0.0780(4)
C129 C 0.6638(6) 0.9785(6) 0.0455(4)
H92 H 0.641533 0.995938 0.039304
C131 C 0.8445(7) 0.8323(8) 0.3021(5)
C133 C 0.8738(7) 0.8545(6) 0.2848(5)
H95 H 0.896096 0.864130 0.299386
C134 C 0.6611(6) 0.8300(6) 0.2687(6)
C135 C 0.6263(6) 0.8050(6) 0.2826(5)
C138 C 0.7858(9) 0.7783(7) 0.3353(7)
H100 H 0.767006 0.758671 0.344828
C140 C 0.8481(10) 0.8212(8) 0.3428(6)
H104 H 0.868994 0.832329 0.358199
C142 C 0.8181(9) 0.7928(10) 0.3568(7)
H108 H 0.820375 0.783604 0.381717
C143 C 0.6579(8) 0.8735(8) 0.2741(8)
H109 H 0.638457 0.885082 0.290658
C144 C 0.6758(6) 0.9396(6) 0.2521(7)
H110 H 0.649833 0.949338 0.260318
C145 C 0.6847(5) 0.8979(6) 0.2538(6)
C146 C 0.7227(6) 0.8836(5) 0.2417(6)
C147 C 0.7516(5) 0.9110(7) 0.2279(7)
H111 H 0.777515 0.901235 0.219626
C148 C 0.7426(8) 0.9527(7) 0.2262(7)
H112 H 0.762378 0.971396 0.216708
C149 C 0.7047(9) 0.9670(5) 0.2382(7)
H113 H 0.698537 0.995448 0.237054
H114 H 0.907636 0.975656 0.062446
H115 H 0.911475 0.992172 0.104078
Zr7 Zr 0.66762(4) 0.77734(4) 0.00070(3)
O50 O 0.6850(4) 0.7059(4) 0.3036(3)
O52 O 0.7124(3) 0.6824(4) 0.2375(2)
O53 O 0.8930(4) 0.8348(4) 0.1323(3)
O54 O 0.6154(4) 0.6786(4) 0.2543(3)
O56 O 0.6460(4) 0.7223(4) 0.1982(3)
O57 O 0.9174(4) 0.9105(4) 0.1184(3)
Zr3_2 Zr 0.13236(4) 0.11331(4) 0.15058(3)
Zr4_2 Zr 0.33238(4) 0.27734(4) 0.24930(3)
O32_2 O 0.1661(4) 0.1370(3) 0.1908(3)
O33_2 O 0.2876(3) 0.1824(4) 0.0125(2)
O34_2 O 0.1761(3) 0.1103(3) 0.1115(3)
O35_2 O 0.1530(4) 0.0506(4) 0.1571(3)
O36_2 O 0.2994(4) 0.2250(4) 0.2453(3)
O38_2 O 0.3751(4) 0.2340(4) 0.2728(4)
O39_2 O 0.0639(5) 0.0998(5) 0.2520(4)
O40_2 O 0.0929(4) 0.1023(4) 0.1974(3)
C100_2 C 0.1585(6) 0.1077(5) 0.0175(4)
H71_2 H 0.158966 0.107634 0.043848
O42_2 O 0.1450(4) 0.0078(4) 0.2230(3)
H72_2 H 0.125813 0.007933 0.239989
H73_2 H 0.167573 0.011443 0.235769
C102_2 C 0.1257(5) 0.0908(5) 0.0005(5)
H77_2 H 0.104156 0.078743 0.014444
C103_2 C 0.1630(5) 0.1472(5) 0.2282(4)
C104_2 C 0.2307(5) 0.1431(5) 0.0591(4)
H78_2 H 0.255071 0.159700 0.065983
H79_2 H 0.206303 0.156277 0.070301
C105_2 C 0.2337(5) 0.1776(6) 0.2216(5)
H80_2 H 0.230193 0.166754 0.196098
H81_2 H 0.238011 0.207580 0.219775
C107_2 C 0.3033(5) 0.0888(5) 0.0431(5)
H82_2 H 0.303805 0.116737 0.035472
C108_2 C 0.1262(6) 0.1356(6) 0.2476(5)
C110_2 C 0.2084(5) 0.0856(5) 0.0995(4)
C111_2 C 0.2356(5) 0.0993(4) 0.0753(4)
O46_2 O 0.4016(6) 0.1798(5) 0.3003(5)
C112_2 C 0.1797(5) 0.0269(4) 0.1428(4)
C113_2 C 0.2093(5) 0.0436(5) 0.1137(4)
C116_2 C 0.3357(6) 0.0625(7) 0.0346(5)
H86_2 H 0.358230 0.072837 0.020795
C117_2 C 0.2260(5) 0.1434(5) 0.0160(4)
C118_2 C 0.2711(6) 0.1580(6) 0.2389(7)
C119_2 C 0.1910(6) 0.1813(6) 0.2809(4)
C120_2 C 0.2400(6) 0.0190(5) 0.1013(4)
C121_2 C 0.3034(6) 0.0072(5) 0.0656(5)
C122_2 C 0.3035(6) 0.1856(5) 0.2497(6)
C123_2 C 0.2685(5) 0.0723(6) 0.0640(4)
C125_2 C 0.1943(5) 0.1690(5) 0.2441(4)
C126_2 C 0.0922(6) 0.1113(6) 0.2311(6)
C127_2 C 0.2180(7) 0.2072(6) 0.3003(5)
H91_2 H 0.241864 0.215609 0.287226
C128_2 C 0.2708(5) 0.0341(5) 0.0780(4)
C129_2 C 0.3362(6) 0.0215(6) 0.0455(4)
H92_2 H 0.358467 0.004062 0.039304
C131_2 C 0.1555(7) 0.1677(8) 0.3021(5)
C133_2 C 0.1262(7) 0.1455(6) 0.2848(5)
H95_2 H 0.103904 0.135870 0.299386
C134_2 C 0.3389(6) 0.1700(6) 0.2687(6)
C135_2 C 0.3737(6) 0.1950(6) 0.2826(5)
C138_2 C 0.2142(9) 0.2217(7) 0.3353(7)
H100_2 H 0.232994 0.241329 0.344828
C140_2 C 0.1519(10) 0.1788(8) 0.3428(6)
H104_2 H 0.131006 0.167671 0.358199
C142_2 C 0.1819(9) 0.2072(10) 0.3568(7)
H108_2 H 0.179625 0.216396 0.381717
C143_2 C 0.3421(8) 0.1265(8) 0.2741(8)
H109_2 H 0.361543 0.114918 0.290658
C144_2 C 0.3242(6) 0.0604(6) 0.2521(7)
H110_2 H 0.350167 0.050662 0.260318
C145_2 C 0.3153(5) 0.1021(6) 0.2538(6)
C146_2 C 0.2773(6) 0.1164(5) 0.2417(6)
C147_2 C 0.2484(5) 0.0890(7) 0.2279(7)
H111_2 H 0.222485 0.098765 0.219626
C148_2 C 0.2574(8) 0.0473(7) 0.2262(7)
H112_2 H 0.237622 0.028604 0.216708
C149_2 C 0.2953(9) 0.0330(5) 0.2382(7)
H113_2 H 0.301463 0.004552 0.237054
H114_2 H 0.092364 0.024344 0.062446
H115_2 H 0.088525 0.007828 0.104078
Zr7_2 Zr 0.33238(4) 0.22266(4) 0.00070(3)
O50_2 O 0.3150(4) 0.2941(4) 0.3036(3)
O52_2 O 0.2876(3) 0.3176(4) 0.2375(2)
O53_2 O 0.1070(4) 0.1652(4) 0.1323(3)
O56_2 O 0.3540(4) 0.2777(4) 0.1982(3)
O57_2 O 0.0826(4) 0.0895(4) 0.1184(3)
La1_2 La 0.56312(3) 0.64578(3) 0.31037(3)
Zr1_2 Zr 0.38669(4) 0.63236(4) 0.34942(3)
Zr2_2 Zr 0.22266(4) 0.83238(4) 0.25070(3)
O1_2 O 0.2941(4) 0.8150(4) 0.5536(3)
O2_2 O 0.3630(3) 0.6661(4) 0.3092(3)
O3_2 O 0.3176(4) 0.7876(3) 0.4875(2)
O4_2 O 0.3348(4) 0.6070(4) 0.3677(3)
O5_2 O 0.3897(3) 0.6761(3) 0.3885(3)
O6_2 O 0.4494(4) 0.6530(4) 0.3429(3)
O7_2 O 0.2750(4) 0.7994(4) 0.2547(3)
O8_2 O 0.1786(4) 0.8846(4) 0.2457(3)
O9_2 O 0.5099(3) 0.6800(5) 0.3503(3)
O10_2 O 0.2223(4) 0.8540(4) 0.3018(3)
O11_2 O 0.4105(4) 0.5826(4) 0.3816(3)
O12_2 O 0.2660(4) 0.8751(4) 0.2272(4)
O13_2 O 0.4002(5) 0.5639(5) 0.2480(4)
O14_2 O 0.1320(4) 0.9283(4) 0.2578(3)
O15_2 O 0.3977(4) 0.5929(4) 0.3026(3)
O16_2 O 0.6242(5) 0.5998(4) 0.3076(4)
C1_2 C 0.2803(5) 0.5748(5) 0.3973(4)
O17_2 O 0.4202(4) 0.5300(5) 0.4194(4)
C2_2 C 0.3350(5) 0.7561(4) 0.5043(4)
N1_2 N 0.5266(7) 0.6249(7) 0.4279(6)
C3_2 C 0.3519(5) 0.5531(5) 0.4117(4)
C4_2 C 0.3923(5) 0.6585(6) 0.4825(4)
H1_2 H 0.392366 0.658966 0.456152
O18_2 O 0.4922(4) 0.6450(4) 0.2770(3)
H2_2 H 0.492067 0.625813 0.260011
H3_2 H 0.488557 0.667573 0.264231
C5_2 C 0.3540(5) 0.7209(4) 0.5617(4)
H4_2 H 0.353429 0.719493 0.588010
O19_2 O 0.5529(5) 0.7235(4) 0.2962(4)
H5_2 H 0.577864 0.742264 0.300810
H6_2 H 0.548768 0.730254 0.268697
C6_2 C 0.4092(5) 0.6257(5) 0.4995(5)
H7_2 H 0.421257 0.604156 0.485556
C7_2 C 0.3528(5) 0.6630(5) 0.2718(4)
C8_2 C 0.3378(6) 0.5249(6) 0.4354(4)
H8_2 H 0.356949 0.507685 0.447748
C9_2 C 0.2229(6) 0.5410(6) 0.4345(4)
H9_2 H 0.201901 0.557628 0.423972
C10_2 C 0.3207(5) 0.5792(5) 0.3924(4)
C11_2 C 0.3569(5) 0.7307(5) 0.4409(4)
H10_2 H 0.340300 0.755071 0.434017
H11_2 H 0.343723 0.706303 0.429699
N2_2 N 0.6637(6) 0.5627(6) 0.3452(5)
C12_2 C 0.3224(6) 0.7337(5) 0.2784(5)
H12_2 H 0.333246 0.730193 0.303902
H13_2 H 0.292420 0.738011 0.280225
C13_2 C 0.3359(5) 0.7541(5) 0.5443(4)
O20_2 O 0.5611(6) 0.6156(5) 0.3739(4)
C14_2 C 0.4112(5) 0.8033(5) 0.4569(5)
H14_2 H 0.383263 0.803805 0.464528
C15_2 C 0.3644(6) 0.6262(6) 0.2524(5)
C16_2 C 0.3743(4) 0.6925(4) 0.5015(4)
C17_2 C 0.4144(5) 0.7084(5) 0.4005(4)
O21_2 O 0.6161(5) 0.6836(6) 0.3480(3)
H15_2 H 0.607025 0.711135 0.357642
H16_2 H 0.641394 0.692755 0.333982
C18_2 C 0.4007(4) 0.7356(5) 0.4247(4)
O22_2 O 0.3202(5) 0.9016(6) 0.1997(5)
C19_2 C 0.4731(4) 0.6797(5) 0.3572(4)
C20_2 C 0.4564(5) 0.7093(5) 0.3863(4)
C21_2 C 0.3731(5) 0.6892(5) 0.5417(4)
C22_2 C 0.3902(5) 0.6549(5) 0.5597(4)
H17_2 H 0.389015 0.652962 0.585920
C23_2 C 0.4375(7) 0.8357(6) 0.4654(5)
H18_2 H 0.427163 0.858230 0.479205
C24_2 C 0.2821(7) 0.4866(6) 0.4680(4)
H19_2 H 0.300727 0.467422 0.478505
C25_2 C 0.3566(5) 0.7260(5) 0.4840(4)
C26_2 C 0.3420(6) 0.7711(6) 0.2611(7)
O23_2 O 0.5350(6) 0.5734(5) 0.3056(6)
H20_2 H 0.538074 0.554081 0.285079
H21_2 H 0.518884 0.558631 0.324079
C27_2 C 0.250000 0.5999(7) 0.375000
H22_2 H 0.265500 0.617856 0.357841
C28_2 C 0.2967(6) 0.5197(4) 0.4426(4)
C29_2 C 0.3187(6) 0.6910(6) 0.2191(4)
C30_2 C 0.4810(5) 0.7400(6) 0.3987(4)
H23_2 H 0.509056 0.740480 0.391469
C31_2 C 0.2658(6) 0.5460(6) 0.4246(5)
C32_2 C 0.2383(7) 0.4850(7) 0.4760(4)
H24_2 H 0.227391 0.465217 0.492723
C33_2 C 0.4928(5) 0.8034(6) 0.4344(5)
H25_2 H 0.521213 0.802058 0.428400
C34_2 C 0.3144(5) 0.8035(6) 0.2503(6)
C35_2 C 0.250000 0.8592(8) 0.375000
H26_2 H 0.240817 0.841157 0.395485
C36_2 C 0.4277(6) 0.7685(5) 0.4360(4)
C37_2 C 0.2147(8) 0.5113(6) 0.4596(5)
H27_2 H 0.186549 0.509335 0.466380
O24_2 O 0.3252(6) 0.7896(6) 0.6005(5)
C38_2 C 0.3176(6) 0.7880(6) 0.5687(5)
C39_2 C 0.3310(5) 0.6943(5) 0.2559(4)
C40_2 C 0.3887(6) 0.5922(6) 0.2689(6)
C41_2 C 0.2928(6) 0.7180(7) 0.1997(5)
H28_2 H 0.284391 0.741864 0.212774
C42_2 C 0.1605(6) 0.9045(5) 0.2692(5)
C43_2 C 0.4659(5) 0.7708(5) 0.4220(4)
C44_2 C 0.4785(6) 0.8362(6) 0.4545(4)
H29_2 H 0.495938 0.858467 0.460696
C45_2 C 0.2022(7) 0.8796(6) 0.3235(5)
C46_2 C 0.4085(7) 0.6242(6) 0.5398(6)
H30_2 H 0.420908 0.601800 0.552396
C47_2 C 0.3323(8) 0.6555(7) 0.1979(5)
C48_2 C 0.6553(9) 0.5908(8) 0.3221(5)
H31_2 H 0.677987 0.607515 0.315391
C49_2 C 0.3545(6) 0.6262(7) 0.2152(5)
H32_2 H 0.364130 0.603904 0.200614
C50_2 C 0.3954(6) 0.5552(5) 0.4041(5)
C51_2 C 0.3300(6) 0.8389(6) 0.2313(6)
C52_2 C 0.3050(6) 0.8737(6) 0.2174(5)
C53_2 C 0.6301(12) 0.5308(12) 0.3560(10)
H33_2 H 0.603914 0.538642 0.344707
H34_2 H 0.638216 0.503554 0.347052
H35_2 H 0.627142 0.530085 0.383025
C54_2 C 0.1696(7) 0.9061(6) 0.3092(5)
C55_2 C 0.2127(7) 0.8839(6) 0.3614(4)
C56_2 C 0.5550(7) 0.6326(9) 0.4017(6)
H36_2 H 0.572531 0.655196 0.406636
C57_2 C 0.2783(7) 0.7142(9) 0.1647(7)
H37_2 H 0.258671 0.732994 0.155172
C58_2 C 0.7028(9) 0.5540(9) 0.3609(7)
H38_2 H 0.716250 0.579755 0.368022
H39_2 H 0.699403 0.536584 0.382772
H40_2 H 0.719821 0.539706 0.342524
C59_2 C 0.1497(9) 0.9315(8) 0.3330(6)
H41_2 H 0.127942 0.947898 0.323552
C60_2 C 0.3212(8) 0.6519(10) 0.1572(6)
H42_2 H 0.332329 0.631006 0.141801
C61_2 C 0.5233(10) 0.6499(10) 0.4583(8)
H43_2 H 0.518696 0.633116 0.480486
H44_2 H 0.548694 0.665685 0.461256
H45_2 H 0.500155 0.668745 0.454933
C62_2 C 0.2928(10) 0.6819(9) 0.1432(7)
H46_2 H 0.283604 0.679625 0.118283
C63_2 C 0.1491(7) 0.9670(6) 0.4302(5)
H47_2 H 0.135286 0.986561 0.445284
C64_2 C 0.1392(6) 0.9635(6) 0.3929(5)
H48_2 H 0.118619 0.980618 0.382423
C65_2 C 0.1593(7) 0.9348(6) 0.3709(4)
C66_2 C 0.1894(6) 0.9097(5) 0.3862(4)
C67_2 C 0.1993(6) 0.9132(5) 0.4235(5)
H49_2 H 0.219809 0.896084 0.433991
C68_2 C 0.1791(7) 0.9419(7) 0.4455(4)
H50_2 H 0.185882 0.944293 0.471068
C69_2 C 0.3735(8) 0.8421(8) 0.2259(8)
H51_2 H 0.385082 0.861543 0.209342
C70_2 C 0.4396(6) 0.8242(6) 0.2479(7)
H52_2 H 0.449338 0.850167 0.239682
C71_2 C 0.3979(6) 0.8153(5) 0.2462(6)
C72_2 C 0.3836(5) 0.7773(6) 0.2583(6)
C73_2 C 0.4110(7) 0.7484(5) 0.2721(7)
H53_2 H 0.401235 0.722485 0.280374
C74_2 C 0.4527(7) 0.7574(8) 0.2738(7)
H54_2 H 0.471396 0.737622 0.283292
C75_2 C 0.4670(5) 0.7953(9) 0.2618(7)
H55_2 H 0.495448 0.801463 0.262946
C76_2 C 0.5002(9) 0.5898(9) 0.4221(8)
H56_2 H 0.475656 0.592364 0.437554
H57_2 H 0.492172 0.588525 0.395922
H58_2 H 0.515023 0.564628 0.428734
H59_2 H 0.234500 0.617856 0.392159
H60_2 H 0.259183 0.841157 0.354515
O25_2 O 0.1652(4) 0.6070(4) 0.3823(3)
O26_2 O 0.0895(4) 0.5826(4) 0.3684(3)
C77_2 C 0.2197(5) 0.5748(5) 0.3527(4)
O27_2 O 0.0798(4) 0.5300(5) 0.3306(4)
C78_2 C 0.1481(5) 0.5531(5) 0.3383(4)
C79_2 C 0.1622(6) 0.5249(6) 0.3146(4)
H61_2 H 0.143051 0.507685 0.302252
C80_2 C 0.2771(6) 0.5410(6) 0.3155(4)
H62_2 H 0.298099 0.557628 0.326028
C81_2 C 0.1793(5) 0.5792(5) 0.3576(4)
C82_2 C 0.2179(7) 0.4866(6) 0.2820(4)
H63_2 H 0.199273 0.467422 0.271495
C83_2 C 0.2033(6) 0.5197(4) 0.3074(4)
C84_2 C 0.2342(6) 0.5460(6) 0.3254(5)
C85_2 C 0.2617(7) 0.4850(7) 0.2740(4)
H64_2 H 0.272609 0.465217 0.257277
C86_2 C 0.2853(8) 0.5113(6) 0.2904(5)
H65_2 H 0.313451 0.509335 0.283620
C87_2 C 0.1046(6) 0.5552(5) 0.3459(5)
O28_2 O 0.3214(4) 0.8846(4) 0.5043(3)
O29_2 O 0.2777(4) 0.8540(4) 0.4482(3)
O30_2 O 0.3680(4) 0.9283(4) 0.4922(3)
C88_2 C 0.3395(6) 0.9045(5) 0.4808(5)
C89_2 C 0.2978(7) 0.8796(6) 0.4265(5)
C90_2 C 0.3304(7) 0.9061(6) 0.4408(5)
C91_2 C 0.2873(7) 0.8839(6) 0.3886(4)
C92_2 C 0.3503(9) 0.9315(8) 0.4170(6)
H66_2 H 0.372058 0.947898 0.426448
C93_2 C 0.3509(7) 0.9670(6) 0.3198(5)
H67_2 H 0.364714 0.986561 0.304716
C94_2 C 0.3608(6) 0.9635(6) 0.3571(5)
H68_2 H 0.381381 0.980618 0.367577
C95_2 C 0.3407(7) 0.9348(6) 0.3791(4)
C96_2 C 0.3106(6) 0.9097(5) 0.3638(4)
C97_2 C 0.3007(6) 0.9132(5) 0.3265(5)
H69_2 H 0.280191 0.896084 0.316009
C98_2 C 0.3209(7) 0.9419(7) 0.3045(4)
H70_2 H 0.314118 0.944293 0.278932
La2_2 La 0.14578(3) 0.93688(3) 0.18963(3)
O37_2 O 0.1800(5) 0.9901(3) 0.1497(3)
O41_2 O 0.0998(4) 0.8758(5) 0.1924(4)
N3_2 N 0.1249(7) 0.9734(7) 0.0721(6)
O43_2 O 0.2235(4) 0.9471(5) 0.2038(4)
H75_2 H 0.242264 0.922136 0.199190
H76_2 H 0.230254 0.951232 0.231303
N4_2 N 0.0627(6) 0.8363(6) 0.1548(5)
O44_2 O 0.1156(5) 0.9389(6) 0.1261(4)
O45_2 O 0.1836(6) 0.8839(5) 0.1520(3)
H83_2 H 0.211135 0.892975 0.142358
H84_2 H 0.192755 0.858606 0.166018
O47_2 O 0.0734(5) 0.9650(6) 0.1944(6)
H87_2 H 0.054081 0.961926 0.214921
H88_2 H 0.058631 0.981116 0.175921
H89_2 H 0.240480 0.990944 0.108531
H90_2 H 0.302058 0.978787 0.071600
C132_2 C 0.0908(8) 0.8447(9) 0.1779(5)
H94_2 H 0.107515 0.822013 0.184609
C136_2 C 0.0308(12) 0.8699(12) 0.1440(10)
H96_2 H 0.038642 0.896086 0.155293
H97_2 H 0.003554 0.861784 0.152948
H98_2 H 0.030085 0.872858 0.116975
C137_2 C 0.1326(9) 0.9450(7) 0.0983(6)
H99_2 H 0.155196 0.927469 0.093364
C139_2 C 0.0540(9) 0.7972(9) 0.1391(7)
H101_2 H 0.079755 0.783750 0.131978
H102_2 H 0.036584 0.800597 0.117228
H103_2 H 0.039706 0.780179 0.157476
C141_2 C 0.1499(10) 0.9767(10) 0.0417(8)
H105_2 H 0.133116 0.981304 0.019514
H106_2 H 0.165685 0.951306 0.038744
H107_2 H 0.168745 0.999845 0.045067
C150_2 C 0.0898(9) 0.9998(9) 0.0779(8)
H116_2 H 0.064628 0.984977 0.071266
La3_2 La 0.35422(3) 0.93688(3) 0.56037(3)
Zr5_2 Zr 0.11331(4) 0.63236(4) 0.40058(3)
Zr6_2 Zr 0.27734(4) 0.83238(4) 0.49930(3)
O49_2 O 0.2059(4) 0.8150(4) 0.1964(3)
O51_2 O 0.1824(4) 0.7876(3) 0.2625(2)
O58_2 O 0.5717(4) 0.6320(4) 0.2422(3)
La1_3 La 0.85422(3) 0.43688(3) 0.06037(3)
Zr1_3 Zr 0.86764(4) 0.61331(4) 0.09942(3)
O2_3 O 0.8339(4) 0.6370(3) 0.0592(3)
O4_3 O 0.8930(4) 0.6652(4) 0.1177(3)
O5_3 O 0.8239(3) 0.6103(3) 0.1385(3)
O6_3 O 0.8470(4) 0.5506(4) 0.0929(3)
O7_3 O 0.7006(4) 0.7250(4) 0.0047(3)
O9_3 O 0.8200(5) 0.4901(3) 0.1003(3)
O10_3 O 0.6460(4) 0.7777(4) 0.0518(3)
O11_3 O 0.9174(4) 0.5895(4) 0.1316(3)
O14_3 O 0.5717(4) 0.8680(4) 0.0078(3)
O15_3 O 0.9071(4) 0.6023(4) 0.0526(3)
O16_3 O 0.9002(4) 0.3758(5) 0.0576(4)
C1_3 C 0.9252(5) 0.7197(5) 0.1473(4)
O17_3 O 0.9700(5) 0.5798(4) 0.1694(4)
C2_3 C 0.7439(4) 0.6650(5) 0.2543(4)
N1_3 N 0.8751(7) 0.4734(7) 0.1779(6)
C3_3 C 0.9469(5) 0.6481(5) 0.1617(4)
C4_3 C 0.8415(6) 0.6077(5) 0.2325(4)
H1_3 H 0.841034 0.607634 0.206152
O18_3 O 0.8550(4) 0.5078(4) 0.0270(3)
H2_3 H 0.874187 0.507933 0.010011
H3_3 H 0.832427 0.511443 0.014231
C5_3 C 0.7791(4) 0.6460(5) 0.3117(4)
H4_3 H 0.780507 0.646571 0.338010
O19_3 O 0.7765(4) 0.4471(5) 0.0462(4)
H5_3 H 0.757736 0.422136 0.050810
H6_3 H 0.769746 0.451232 0.018697
C6_3 C 0.8743(5) 0.5908(5) 0.2495(5)
H7_3 H 0.895844 0.578743 0.235556
C7_3 C 0.8370(5) 0.6472(5) 0.0218(4)
C8_3 C 0.9751(6) 0.6622(6) 0.1854(4)
H8_3 H 0.992315 0.643051 0.197748
C9_3 C 0.9590(6) 0.7771(6) 0.1845(4)
H9_3 H 0.942372 0.798099 0.173972
C10_3 C 0.9208(5) 0.6793(5) 0.1424(4)
C11_3 C 0.7693(5) 0.6431(5) 0.1909(4)
H10_3 H 0.744929 0.659700 0.184017
H11_3 H 0.793697 0.656277 0.179699
N2_3 N 0.9373(6) 0.3363(6) 0.0952(5)
C12_3 C 0.7663(5) 0.6776(6) 0.0284(5)
H12_3 H 0.769807 0.666754 0.053902
H13_3 H 0.761989 0.707580 0.030225
C13_3 C 0.7459(5) 0.6641(5) 0.2943(4)
O20_3 O 0.8844(5) 0.4389(6) 0.1239(4)
C14_3 C 0.6967(5) 0.5888(5) 0.2069(5)
H14_3 H 0.696195 0.616737 0.214528
C15_3 C 0.8738(6) 0.6356(6) 0.0024(5)
C16_3 C 0.8075(4) 0.6257(4) 0.2515(4)
C17_3 C 0.7916(5) 0.5856(5) 0.1505(4)
O21_3 O 0.8164(6) 0.3839(5) 0.0980(3)
H15_3 H 0.788865 0.392975 0.107642
H16_3 H 0.807245 0.358606 0.083982
C18_3 C 0.7644(5) 0.5993(4) 0.1747(4)
C19_3 C 0.8203(5) 0.5269(4) 0.1072(4)
C20_3 C 0.7907(5) 0.5436(5) 0.1363(4)
C21_3 C 0.8108(5) 0.6269(5) 0.2917(4)
C22_3 C 0.8451(5) 0.6098(5) 0.3097(4)
H17_3 H 0.847038 0.610985 0.335920
C23_3 C 0.6643(6) 0.5625(7) 0.2154(5)
H18_3 H 0.641770 0.572837 0.229205
C25_3 C 0.7740(5) 0.6434(5) 0.2340(4)
C26_3 C 0.7289(6) 0.6580(6) 0.0111(7)
O23_3 O 0.9266(5) 0.4650(6) 0.0556(6)
H20_3 H 0.945919 0.461926 0.035079
H21_3 H 0.941369 0.481116 0.074079
C27_3 C 0.9001(7) 0.750000 0.125000
H22_3 H 0.882144 0.734500 0.107841
C28_3 C 0.9803(4) 0.7033(6) 0.1926(4)
C30_3 C 0.7600(6) 0.5190(5) 0.1487(4)
H23_3 H 0.759520 0.490944 0.141469
C31_3 C 0.9540(6) 0.7342(6) 0.1746(5)
C33_3 C 0.6966(6) 0.5072(5) 0.1844(5)
H25_3 H 0.697942 0.478787 0.178400
C34_3 C 0.6965(6) 0.6856(5) 0.0003(6)
C35_3 C 0.6408(8) 0.750000 0.125000
H26_3 H 0.658843 0.759183 0.145485
C36_3 C 0.7315(5) 0.5723(6) 0.1860(4)
C37_3 C 0.9887(6) 0.7853(8) 0.2096(5)
H27_3 H 0.990665 0.813451 0.216380
O24_3 O 0.7104(6) 0.6748(6) 0.3505(5)
C38_3 C 0.7120(6) 0.6824(6) 0.3187(5)
C39_3 C 0.8057(5) 0.6690(5) 0.0059(4)
C40_3 C 0.9078(6) 0.6113(6) 0.0189(6)
C42_3 C 0.5955(5) 0.8395(6) 0.0192(5)
C43_3 C 0.7292(5) 0.5341(5) 0.1720(4)
C44_3 C 0.6638(6) 0.5215(6) 0.2045(4)
H29_3 H 0.641533 0.504062 0.210696
C45_3 C 0.6204(6) 0.7978(7) 0.0735(5)
C46_3 C 0.8758(6) 0.5915(7) 0.2898(6)
H30_3 H 0.898200 0.579092 0.302396
C48_3 C 0.9092(8) 0.3447(9) 0.0721(5)
H31_3 H 0.892485 0.322013 0.065391
C50_3 C 0.9448(5) 0.6046(6) 0.1541(5)
C53_3 C 0.9692(12) 0.3699(12) 0.1060(10)
H33_3 H 0.961358 0.396086 0.094707
H34_3 H 0.996446 0.361784 0.097052
H35_3 H 0.969915 0.372858 0.133025
C54_3 C 0.5939(6) 0.8304(7) 0.0592(5)
C55_3 C 0.6161(6) 0.7873(7) 0.1114(4)
C56_3 C 0.8674(9) 0.4450(7) 0.1517(6)
H36_3 H 0.844804 0.427469 0.156636
C58_3 C 0.9460(9) 0.2972(9) 0.1109(7)
H38_3 H 0.920245 0.283750 0.118022
H39_3 H 0.963416 0.300597 0.132772
H40_3 H 0.960294 0.280179 0.092524
C59_3 C 0.5685(8) 0.8503(9) 0.0830(6)
H41_3 H 0.552102 0.872058 0.073552
C61_3 C 0.8501(10) 0.4767(10) 0.2083(8)
H43_3 H 0.866884 0.481304 0.230486
H44_3 H 0.834315 0.451306 0.211256
H45_3 H 0.831255 0.499845 0.204933
C63_3 C 0.5330(6) 0.8509(7) 0.1802(5)
H47_3 H 0.513439 0.864714 0.195284
C64_3 C 0.5365(6) 0.8608(6) 0.1429(5)
H48_3 H 0.519382 0.881381 0.132423
C65_3 C 0.5652(6) 0.8407(7) 0.1209(4)
C66_3 C 0.5903(5) 0.8106(6) 0.1362(4)
C67_3 C 0.5868(5) 0.8007(6) 0.1735(5)
H49_3 H 0.603916 0.780191 0.183991
C68_3 C 0.5581(7) 0.8209(7) 0.1955(4)
H50_3 H 0.555707 0.814118 0.221068
C72_3 C 0.7227(6) 0.6164(5) 0.0083(6)
C73_3 C 0.7516(5) 0.5890(7) 0.0221(7)
H53_3 H 0.777515 0.598765 0.030374
C74_3 C 0.7426(8) 0.5473(7) 0.0238(7)
H54_3 H 0.762378 0.528604 0.033292
C75_3 C 0.7047(9) 0.5330(5) 0.0118(7)
H55_3 H 0.698537 0.504552 0.012946
C76_3 C 0.9102(9) 0.4998(9) 0.1721(8)
H56_3 H 0.907636 0.524344 0.187554
H57_3 H 0.911475 0.507828 0.145922
H58_3 H 0.935372 0.484977 0.178734
H59_3 H 0.882144 0.765500 0.142159
H60_3 H 0.658843 0.740817 0.104515
C77_3 C 0.9252(5) 0.7803(5) 0.1027(4)
O27_3 O 0.9700(5) 0.9202(4) 0.0806(4)
C78_3 C 0.9469(5) 0.8519(5) 0.0883(4)
C79_3 C 0.9751(6) 0.8378(6) 0.0646(4)
H61_3 H 0.992315 0.856949 0.052252
C80_3 C 0.9590(6) 0.7229(6) 0.0655(4)
H62_3 H 0.942372 0.701901 0.076028
C81_3 C 0.9208(5) 0.8207(5) 0.1076(4)
C83_3 C 0.9803(4) 0.7967(6) 0.0574(4)
C84_3 C 0.9540(6) 0.7658(6) 0.0754(5)
C86_3 C 0.9887(6) 0.7147(8) 0.0404(5)
H65_3 H 0.990665 0.686549 0.033620
C87_3 C 0.9448(5) 0.8954(6) 0.0959(5)
C88_3 C 0.5955(5) 0.6605(6) 0.2308(5)
C89_3 C 0.6204(6) 0.7022(7) 0.1765(5)
C90_3 C 0.5939(6) 0.6696(7) 0.1908(5)
C91_3 C 0.6161(6) 0.7127(7) 0.1386(4)
C92_3 C 0.5685(8) 0.6497(9) 0.1670(6)
H66_3 H 0.552102 0.627942 0.176448
C93_3 C 0.5330(6) 0.6491(7) 0.0698(5)
H67_3 H 0.513439 0.635286 0.054716
C94_3 C 0.5365(6) 0.6392(6) 0.1071(5)
H68_3 H 0.519382 0.618619 0.117577
C95_3 C 0.5652(6) 0.6593(7) 0.1291(4)
C96_3 C 0.5903(5) 0.6894(6) 0.1138(4)
C97_3 C 0.5868(5) 0.6993(6) 0.0765(5)
H69_3 H 0.603916 0.719809 0.066009
C98_3 C 0.5581(7) 0.6791(7) 0.0545(4)
H70_3 H 0.555707 0.685882 0.028932
O38_3 O 0.2660(4) 0.6249(4) 0.0228(4)
O39_3 O 0.4002(5) 0.9361(5) 0.0020(4)
O46_3 O 0.3202(5) 0.5984(6) 0.0503(5)
C119_3 C 0.3187(6) 0.8090(6) 0.0309(4)
C127_3 C 0.2928(6) 0.7820(7) 0.0503(5)
H91_3 H 0.284391 0.758136 0.037226
C131_3 C 0.3323(8) 0.8445(7) 0.0521(5)
C133_3 C 0.3545(6) 0.8738(7) 0.0348(5)
H95_3 H 0.364130 0.896096 0.049386
C134_3 C 0.3300(6) 0.6611(6) 0.0187(6)
C135_3 C 0.3050(6) 0.6263(6) 0.0326(5)
C138_3 C 0.2783(7) 0.7858(9) 0.0853(7)
H100_3 H 0.258671 0.767006 0.094828
C140_3 C 0.3212(8) 0.8481(10) 0.0928(6)
H104_3 H 0.332329 0.868994 0.108199
C142_3 C 0.2928(10) 0.8181(9) 0.1068(7)
H108_3 H 0.283604 0.820375 0.131717
C143_3 C 0.3735(8) 0.6579(8) 0.0241(8)
H109_3 H 0.385082 0.638457 0.040658
C144_3 C 0.4396(6) 0.6758(6) 0.0021(7)
H110_3 H 0.449338 0.649833 0.010318
C145_3 C 0.3979(6) 0.6847(5) 0.0038(6)
O54_2 O 0.1786(4) 0.6154(4) 0.0043(3)
O55_2 O 0.8214(4) 0.3846(4) 0.0043(3)
La1_4 La 0.14578(3) 0.56312(3) 0.06037(3)
Zr1_4 Zr 0.13236(4) 0.38669(4) 0.09942(3)
O2_4 O 0.1661(4) 0.3630(3) 0.0592(3)
O4_4 O 0.1070(4) 0.3348(4) 0.1177(3)
O5_4 O 0.1761(3) 0.3897(3) 0.1385(3)
O6_4 O 0.1530(4) 0.4494(4) 0.0929(3)
O7_4 O 0.2994(4) 0.2750(4) 0.0047(3)
O9_4 O 0.1800(5) 0.5099(3) 0.1003(3)
O10_4 O 0.3540(4) 0.2223(4) 0.0518(3)
O11_4 O 0.0826(4) 0.4105(4) 0.1316(3)
O14_4 O 0.4283(4) 0.1320(4) 0.0078(3)
O15_4 O 0.0929(4) 0.3977(4) 0.0526(3)
O16_4 O 0.0998(4) 0.6242(5) 0.0576(4)
C1_4 C 0.0748(5) 0.2803(5) 0.1473(4)
O17_4 O 0.0300(5) 0.4202(4) 0.1694(4)
C2_4 C 0.2561(4) 0.3350(5) 0.2543(4)
N1_4 N 0.1249(7) 0.5266(7) 0.1779(6)
C3_4 C 0.0531(5) 0.3519(5) 0.1617(4)
C4_4 C 0.1585(6) 0.3923(5) 0.2325(4)
H1_4 H 0.158966 0.392366 0.206152
O18_4 O 0.1450(4) 0.4922(4) 0.0270(3)
H2_4 H 0.125813 0.492067 0.010011
H3_4 H 0.167573 0.488557 0.014231
C5_4 C 0.2209(4) 0.3540(5) 0.3117(4)
H4_4 H 0.219493 0.353429 0.338010
O19_4 O 0.2235(4) 0.5529(5) 0.0462(4)
H5_4 H 0.242264 0.577864 0.050810
H6_4 H 0.230254 0.548768 0.018697
C6_4 C 0.1257(5) 0.4092(5) 0.2495(5)
H7_4 H 0.104156 0.421257 0.235556
C7_4 C 0.1630(5) 0.3528(5) 0.0218(4)
C8_4 C 0.0249(6) 0.3378(6) 0.1854(4)
H8_4 H 0.007685 0.356949 0.197748
C9_4 C 0.0410(6) 0.2229(6) 0.1845(4)
H9_4 H 0.057628 0.201901 0.173972
C10_4 C 0.0792(5) 0.3207(5) 0.1424(4)
C11_4 C 0.2307(5) 0.3569(5) 0.1909(4)
H10_4 H 0.255071 0.340300 0.184017
H11_4 H 0.206303 0.343723 0.179699
N2_4 N 0.0627(6) 0.6637(6) 0.0952(5)
C12_4 C 0.2337(5) 0.3224(6) 0.0284(5)
H12_4 H 0.230193 0.333246 0.053902
H13_4 H 0.238011 0.292420 0.030225
C13_4 C 0.2541(5) 0.3359(5) 0.2943(4)
O20_4 O 0.1156(5) 0.5611(6) 0.1239(4)
C14_4 C 0.3033(5) 0.4112(5) 0.2069(5)
H14_4 H 0.303805 0.383263 0.214528
C15_4 C 0.1262(6) 0.3644(6) 0.0024(5)
C16_4 C 0.1925(4) 0.3743(4) 0.2515(4)
C17_4 C 0.2084(5) 0.4144(5) 0.1505(4)
O21_4 O 0.1836(6) 0.6161(5) 0.0980(3)
H15_4 H 0.211135 0.607025 0.107642
H16_4 H 0.192755 0.641394 0.083982
C18_4 C 0.2356(5) 0.4007(4) 0.1747(4)
C19_4 C 0.1797(5) 0.4731(4) 0.1072(4)
C20_4 C 0.2093(5) 0.4564(5) 0.1363(4)
C21_4 C 0.1892(5) 0.3731(5) 0.2917(4)
C22_4 C 0.1549(5) 0.3902(5) 0.3097(4)
H17_4 H 0.152962 0.389015 0.335920
C23_4 C 0.3357(6) 0.4375(7) 0.2154(5)
H18_4 H 0.358230 0.427163 0.229205
C25_4 C 0.2260(5) 0.3566(5) 0.2340(4)
C26_4 C 0.2711(6) 0.3420(6) 0.0111(7)
O23_4 O 0.0734(5) 0.5350(6) 0.0556(6)
H20_4 H 0.054081 0.538074 0.035079
H21_4 H 0.058631 0.518884 0.074079
C27_4 C 0.0999(7) 0.250000 0.125000
H22_4 H 0.117856 0.265500 0.107841
C28_4 C 0.0197(4) 0.2967(6) 0.1926(4)
C30_4 C 0.2400(6) 0.4810(5) 0.1487(4)
H23_4 H 0.240480 0.509056 0.141469
C31_4 C 0.0460(6) 0.2658(6) 0.1746(5)
C33_4 C 0.3034(6) 0.4928(5) 0.1844(5)
H25_4 H 0.302058 0.521213 0.178400
C34_4 C 0.3035(6) 0.3144(5) 0.0003(6)
C35_4 C 0.3592(8) 0.250000 0.125000
H26_4 H 0.341157 0.240817 0.145485
C36_4 C 0.2685(5) 0.4277(6) 0.1860(4)
C37_4 C 0.0113(6) 0.2147(8) 0.2096(5)
H27_4 H 0.009335 0.186549 0.216380
O24_4 O 0.2896(6) 0.3252(6) 0.3505(5)
C38_4 C 0.2880(6) 0.3176(6) 0.3187(5)
C39_4 C 0.1943(5) 0.3310(5) 0.0059(4)
C40_4 C 0.0922(6) 0.3887(6) 0.0189(6)
C42_4 C 0.4045(5) 0.1605(6) 0.0192(5)
C43_4 C 0.2708(5) 0.4659(5) 0.1720(4)
C44_4 C 0.3362(6) 0.4785(6) 0.2045(4)
H29_4 H 0.358467 0.495938 0.210696
C45_4 C 0.3796(6) 0.2022(7) 0.0735(5)
C46_4 C 0.1242(6) 0.4085(7) 0.2898(6)
H30_4 H 0.101800 0.420908 0.302396
C48_4 C 0.0908(8) 0.6553(9) 0.0721(5)
H31_4 H 0.107515 0.677987 0.065391
C50_4 C 0.0552(5) 0.3954(6) 0.1541(5)
C53_4 C 0.0308(12) 0.6301(12) 0.1060(10)
H33_4 H 0.038642 0.603914 0.094707
H34_4 H 0.003554 0.638216 0.097052
H35_4 H 0.030085 0.627142 0.133025
C54_4 C 0.4061(6) 0.1696(7) 0.0592(5)
C55_4 C 0.3839(6) 0.2127(7) 0.1114(4)
C56_4 C 0.1326(9) 0.5550(7) 0.1517(6)
H36_4 H 0.155196 0.572531 0.156636
C58_4 C 0.0540(9) 0.7028(9) 0.1109(7)
H38_4 H 0.079755 0.716250 0.118022
H39_4 H 0.036584 0.699403 0.132772
H40_4 H 0.039706 0.719821 0.092524
C59_4 C 0.4315(8) 0.1497(9) 0.0830(6)
H41_4 H 0.447898 0.127942 0.073552
C61_4 C 0.1499(10) 0.5233(10) 0.2083(8)
H43_4 H 0.133116 0.518696 0.230486
H44_4 H 0.165685 0.548694 0.211256
H45_4 H 0.168745 0.500155 0.204933
C63_4 C 0.4670(6) 0.1491(7) 0.1802(5)
H47_4 H 0.486561 0.135286 0.195284
C64_4 C 0.4635(6) 0.1392(6) 0.1429(5)
H48_4 H 0.480618 0.118619 0.132423
C65_4 C 0.4348(6) 0.1593(7) 0.1209(4)
C66_4 C 0.4097(5) 0.1894(6) 0.1362(4)
C67_4 C 0.4132(5) 0.1993(6) 0.1735(5)
H49_4 H 0.396084 0.219809 0.183991
C68_4 C 0.4419(7) 0.1791(7) 0.1955(4)
H50_4 H 0.444293 0.185882 0.221068
C72_4 C 0.2773(6) 0.3836(5) 0.0083(6)
C73_4 C 0.2484(5) 0.4110(7) 0.0221(7)
H53_4 H 0.222485 0.401235 0.030374
C74_4 C 0.2574(8) 0.4527(7) 0.0238(7)
H54_4 H 0.237622 0.471396 0.033292
C75_4 C 0.2953(9) 0.4670(5) 0.0118(7)
H55_4 H 0.301463 0.495448 0.012946
C76_4 C 0.0898(9) 0.5002(9) 0.1721(8)
H56_4 H 0.092364 0.475656 0.187554
H57_4 H 0.088525 0.492172 0.145922
H58_4 H 0.064628 0.515023 0.178734
H59_4 H 0.117856 0.234500 0.142159
H60_4 H 0.341157 0.259183 0.104515
C77_4 C 0.0748(5) 0.2197(5) 0.1027(4)
O27_4 O 0.0300(5) 0.0798(4) 0.0806(4)
C78_4 C 0.0531(5) 0.1481(5) 0.0883(4)
C79_4 C 0.0249(6) 0.1622(6) 0.0646(4)
H61_4 H 0.007685 0.143051 0.052252
C80_4 C 0.0410(6) 0.2771(6) 0.0655(4)
H62_4 H 0.057628 0.298099 0.076028
C81_4 C 0.0792(5) 0.1793(5) 0.1076(4)
C83_4 C 0.0197(4) 0.2033(6) 0.0574(4)
C84_4 C 0.0460(6) 0.2342(6) 0.0754(5)
C86_4 C 0.0113(6) 0.2853(8) 0.0404(5)
H65_4 H 0.009335 0.313451 0.033620
C87_4 C 0.0552(5) 0.1046(6) 0.0959(5)
C88_4 C 0.4045(5) 0.3395(6) 0.2308(5)
C89_4 C 0.3796(6) 0.2978(7) 0.1765(5)
C90_4 C 0.4061(6) 0.3304(7) 0.1908(5)
C91_4 C 0.3839(6) 0.2873(7) 0.1386(4)
C92_4 C 0.4315(8) 0.3503(9) 0.1670(6)
H66_4 H 0.447898 0.372058 0.176448
C93_4 C 0.4670(6) 0.3509(7) 0.0698(5)
H67_4 H 0.486561 0.364714 0.054716
C94_4 C 0.4635(6) 0.3608(6) 0.1071(5)
H68_4 H 0.480618 0.381381 0.117577
C95_4 C 0.4348(6) 0.3407(7) 0.1291(4)
C96_4 C 0.4097(5) 0.3106(6) 0.1138(4)
C97_4 C 0.4132(5) 0.3007(6) 0.0765(5)
H69_4 H 0.396084 0.280191 0.066009
C98_4 C 0.4419(7) 0.3209(7) 0.0545(4)
H70_4 H 0.444293 0.314118 0.028932
O38_4 O 0.7340(4) 0.3751(4) 0.0228(4)
O39_4 O 0.5998(5) 0.0639(5) 0.0020(4)
O46_4 O 0.6798(5) 0.4016(6) 0.0503(5)
C119_4 C 0.6813(6) 0.1910(6) 0.0309(4)
C127_4 C 0.7072(6) 0.2180(7) 0.0503(5)
H91_4 H 0.715609 0.241864 0.037226
C131_4 C 0.6677(8) 0.1555(7) 0.0521(5)
C133_4 C 0.6455(6) 0.1262(7) 0.0348(5)
H95_4 H 0.635870 0.103904 0.049386
C134_4 C 0.6700(6) 0.3389(6) 0.0187(6)
C135_4 C 0.6950(6) 0.3737(6) 0.0326(5)
C138_4 C 0.7217(7) 0.2142(9) 0.0853(7)
H100_4 H 0.741329 0.232994 0.094828
C140_4 C 0.6788(8) 0.1519(10) 0.0928(6)
H104_4 H 0.667671 0.131006 0.108199
C142_4 C 0.7072(10) 0.1819(9) 0.1068(7)
H108_4 H 0.716396 0.179625 0.131717
C143_4 C 0.6265(8) 0.3421(8) 0.0241(8)
H109_4 H 0.614918 0.361543 0.040658
C144_4 C 0.5604(6) 0.3242(6) 0.0021(7)
H110_4 H 0.550662 0.350167 0.010318
C145_4 C 0.6021(6) 0.3153(5) 0.0038(6)
O2_5 O 0.8630(3) 0.3339(4) 0.4408(3)
O5_5 O 0.8897(3) 0.3239(3) 0.3615(3)
O6_5 O 0.9494(4) 0.3470(4) 0.4071(3)
O7_5 O 0.7750(4) 0.2006(4) 0.4953(3)
O12_3 O 0.7660(4) 0.1249(4) 0.5228(4)
O13_3 O 0.9002(5) 0.4361(5) 0.5020(4)
O15_5 O 0.8977(4) 0.4071(4) 0.4474(3)
C2_5 C 0.8350(5) 0.2439(4) 0.2457(4)
C4_5 C 0.8923(5) 0.3415(6) 0.2675(4)
H1_5 H 0.892366 0.341034 0.293848
O18_5 O 0.9922(4) 0.3550(4) 0.4730(3)
H2_5 H 0.992067 0.374187 0.489989
H3_5 H 0.988557 0.332427 0.485769
C5_5 C 0.8540(5) 0.2791(4) 0.1883(4)
H4_5 H 0.853429 0.280507 0.161990
C6_5 C 0.9092(5) 0.3743(5) 0.2505(5)
H7_5 H 0.921257 0.395844 0.264444
C7_5 C 0.8528(5) 0.3370(5) 0.4782(4)
C11_5 C 0.8569(5) 0.2693(5) 0.3091(4)
H10_5 H 0.840300 0.244929 0.315983
H11_5 H 0.843723 0.293697 0.320301
C12_5 C 0.8224(6) 0.2663(5) 0.4716(5)
H12_5 H 0.833246 0.269807 0.446098
H13_5 H 0.792420 0.261989 0.469775
C13_5 C 0.8359(5) 0.2459(5) 0.2057(4)
C14_5 C 0.9112(5) 0.1967(5) 0.2931(5)
H14_5 H 0.883263 0.196195 0.285472
C15_5 C 0.8644(6) 0.3738(6) 0.4976(5)
C16_5 C 0.8743(4) 0.3075(4) 0.2485(4)
C17_5 C 0.9144(5) 0.2916(5) 0.3495(4)
C18_5 C 0.9007(4) 0.2644(5) 0.3253(4)
O22_3 O 0.8202(5) 0.0984(6) 0.5503(5)
C19_5 C 0.9731(4) 0.3203(5) 0.3928(4)
C20_5 C 0.9564(5) 0.2907(5) 0.3637(4)
C21_5 C 0.8731(5) 0.3108(5) 0.2083(4)
C22_5 C 0.8902(5) 0.3451(5) 0.1903(4)
H17_5 H 0.889015 0.347038 0.164080
C23_5 C 0.9375(7) 0.1643(6) 0.2846(5)
H18_5 H 0.927163 0.141770 0.270795
C25_5 C 0.8566(5) 0.2740(5) 0.2660(4)
C26_5 C 0.8420(6) 0.2289(6) 0.4889(7)
C29_3 C 0.8187(6) 0.3090(6) 0.5309(4)
C30_5 C 0.9810(5) 0.2600(6) 0.3513(4)
C33_5 C 0.9928(5) 0.1966(6) 0.3156(5)
C34_5 C 0.8144(5) 0.1965(6) 0.4997(6)
C36_5 C 0.9277(6) 0.2315(5) 0.3140(4)
O24_5 O 0.8252(6) 0.2104(6) 0.1495(5)
C38_5 C 0.8176(6) 0.2120(6) 0.1813(5)
C39_5 C 0.8310(5) 0.3057(5) 0.4941(4)
C40_5 C 0.8887(6) 0.4078(6) 0.4811(6)
C41_3 C 0.7928(6) 0.2820(7) 0.5503(5)
H28_3 H 0.784391 0.258136 0.537226
C43_5 C 0.9659(5) 0.2292(5) 0.3280(4)
C44_5 C 0.9785(6) 0.1638(6) 0.2955(4)
H29_5 H 0.995938 0.141533 0.289304
C46_5 C 0.9085(7) 0.3758(6) 0.2102(6)
H30_5 H 0.920908 0.398200 0.197604
C47_3 C 0.8323(8) 0.3445(7) 0.5521(5)
C49_3 C 0.8545(6) 0.3738(7) 0.5348(5)
H32_3 H 0.864130 0.396096 0.549386
C51_3 C 0.8300(6) 0.1611(6) 0.5187(6)
C52_3 C 0.8050(6) 0.1263(6) 0.5326(5)
C57_3 C 0.7783(7) 0.2858(9) 0.5853(7)
H37_3 H 0.758671 0.267006 0.594828
C60_3 C 0.8212(8) 0.3481(10) 0.5928(6)
H42_3 H 0.832329 0.368994 0.608199
C62_3 C 0.7928(10) 0.3181(9) 0.6068(7)
H46_3 H 0.783604 0.320375 0.631717
C69_3 C 0.8735(8) 0.1579(8) 0.5241(8)
H51_3 H 0.885082 0.138457 0.540658
C70_3 C 0.9396(6) 0.1758(6) 0.5021(7)
H52_3 H 0.949338 0.149833 0.510318
C71_3 C 0.8979(6) 0.1847(5) 0.5038(6)
C72_5 C 0.8836(5) 0.2227(6) 0.4917(6)
C73_5 C 0.9110(7) 0.2516(5) 0.4779(7)
H53_5 H 0.901235 0.277515 0.469626
C74_5 C 0.9527(7) 0.2426(8) 0.4762(7)
H54_5 H 0.971396 0.262378 0.466708
C75_5 C 0.9670(5) 0.2047(9) 0.4882(7)
H55_5 H 0.995448 0.198537 0.487054
H56_5 H 0.975656 0.407636 0.312446
H57_5 H 0.992172 0.411475 0.354078
O37_3 O 0.6800(5) 0.0099(3) 0.6003(3)
O41_3 O 0.5998(4) 0.1242(5) 0.5576(4)
N3_3 N 0.6249(7) 0.0266(7) 0.6779(6)
O43_3 O 0.7235(4) 0.0529(5) 0.5462(4)
H75_3 H 0.742264 0.077864 0.550810
H76_3 H 0.730254 0.048768 0.518697
N4_3 N 0.5627(6) 0.1637(6) 0.5952(5)
O44_3 O 0.6156(5) 0.0611(6) 0.6239(4)
O45_3 O 0.6836(6) 0.1161(5) 0.5980(3)
H83_3 H 0.711135 0.107025 0.607642
H84_3 H 0.692755 0.141394 0.583982
O47_3 O 0.5734(5) 0.0350(6) 0.5556(6)
H87_3 H 0.554081 0.038074 0.535079
H88_3 H 0.558631 0.018884 0.574079
H89_3 H 0.740480 0.009056 0.641469
H90_3 H 0.802058 0.021213 0.678400
C132_3 C 0.5908(8) 0.1553(9) 0.5721(5)
H94_3 H 0.607515 0.177987 0.565391
C136_3 C 0.5308(12) 0.1301(12) 0.6060(10)
H96_3 H 0.538642 0.103914 0.594707
H97_3 H 0.503554 0.138216 0.597052
H98_3 H 0.530085 0.127142 0.633025
C137_3 C 0.6326(9) 0.0550(7) 0.6517(6)
H99_3 H 0.655196 0.072531 0.656636
C139_3 C 0.5540(9) 0.2028(9) 0.6109(7)
H101_3 H 0.579755 0.216250 0.618022
H102_3 H 0.536584 0.199403 0.632772
H103_3 H 0.539706 0.219821 0.592524
C141_3 C 0.6499(10) 0.0233(10) 0.7083(8)
H105_3 H 0.633116 0.018696 0.730486
H106_3 H 0.665685 0.048694 0.711256
H107_3 H 0.668745 0.000155 0.704933
C150_3 C 0.5898(9) 0.0002(9) 0.6721(8)
H116_3 H 0.564628 0.015023 0.678734
O2_6 O 0.1370(3) 0.6661(4) 0.4408(3)
O5_6 O 0.1103(3) 0.6761(3) 0.3615(3)
O6_6 O 0.0506(4) 0.6530(4) 0.4071(3)
O7_6 O 0.2250(4) 0.7994(4) 0.4953(3)
O12_4 O 0.2340(4) 0.8751(4) 0.5228(4)
O13_4 O 0.0998(5) 0.5639(5) 0.5020(4)
O15_6 O 0.1023(4) 0.5929(4) 0.4474(3)
C2_6 C 0.1650(5) 0.7561(4) 0.2457(4)
C4_6 C 0.1077(5) 0.6585(6) 0.2675(4)
H1_6 H 0.107634 0.658966 0.293848
O18_6 O 0.0078(4) 0.6450(4) 0.4730(3)
H2_6 H 0.007933 0.625813 0.489989
H3_6 H 0.011443 0.667573 0.485769
C5_6 C 0.1460(5) 0.7209(4) 0.1883(4)
H4_6 H 0.146571 0.719493 0.161990
C6_6 C 0.0908(5) 0.6257(5) 0.2505(5)
H7_6 H 0.078743 0.604156 0.264444
C7_6 C 0.1472(5) 0.6630(5) 0.4782(4)
C11_6 C 0.1431(5) 0.7307(5) 0.3091(4)
H10_6 H 0.159700 0.755071 0.315983
H11_6 H 0.156277 0.706303 0.320301
C12_6 C 0.1776(6) 0.7337(5) 0.4716(5)
H12_6 H 0.166754 0.730193 0.446098
H13_6 H 0.207580 0.738011 0.469775
C13_6 C 0.1641(5) 0.7541(5) 0.2057(4)
C14_6 C 0.0888(5) 0.8033(5) 0.2931(5)
H14_6 H 0.116737 0.803805 0.285472
C15_6 C 0.1356(6) 0.6262(6) 0.4976(5)
C16_6 C 0.1257(4) 0.6925(4) 0.2485(4)
C17_6 C 0.0856(5) 0.7084(5) 0.3495(4)
C18_6 C 0.0993(4) 0.7356(5) 0.3253(4)
O22_4 O 0.1798(5) 0.9016(6) 0.5503(5)
C19_6 C 0.0269(4) 0.6797(5) 0.3928(4)
C20_6 C 0.0436(5) 0.7093(5) 0.3637(4)
C21_6 C 0.1269(5) 0.6892(5) 0.2083(4)
C22_6 C 0.1098(5) 0.6549(5) 0.1903(4)
H17_6 H 0.110985 0.652962 0.164080
C23_6 C 0.0625(7) 0.8357(6) 0.2846(5)
H18_6 H 0.072837 0.858230 0.270795
C25_6 C 0.1434(5) 0.7260(5) 0.2660(4)
C26_6 C 0.1580(6) 0.7711(6) 0.4889(7)
C29_4 C 0.1813(6) 0.6910(6) 0.5309(4)
C30_6 C 0.0190(5) 0.7400(6) 0.3513(4)
C33_6 C 0.0072(5) 0.8034(6) 0.3156(5)
C34_6 C 0.1856(5) 0.8035(6) 0.4997(6)
C36_6 C 0.0723(6) 0.7685(5) 0.3140(4)
O24_6 O 0.1748(6) 0.7896(6) 0.1495(5)
C38_6 C 0.1824(6) 0.7880(6) 0.1813(5)
C39_6 C 0.1690(5) 0.6943(5) 0.4941(4)
C40_6 C 0.1113(6) 0.5922(6) 0.4811(6)
C41_4 C 0.2072(6) 0.7180(7) 0.5503(5)
H28_4 H 0.215609 0.741864 0.537226
C43_6 C 0.0341(5) 0.7708(5) 0.3280(4)
C44_6 C 0.0215(6) 0.8362(6) 0.2955(4)
H29_6 H 0.004062 0.858467 0.289304
C46_6 C 0.0915(7) 0.6242(6) 0.2102(6)
H30_6 H 0.079092 0.601800 0.197604
C47_4 C 0.1677(8) 0.6555(7) 0.5521(5)
C49_4 C 0.1455(6) 0.6262(7) 0.5348(5)
H32_4 H 0.135870 0.603904 0.549386
C51_4 C 0.1700(6) 0.8389(6) 0.5187(6)
C52_4 C 0.1950(6) 0.8737(6) 0.5326(5)
C57_4 C 0.2217(7) 0.7142(9) 0.5853(7)
H37_4 H 0.241329 0.732994 0.594828
C60_4 C 0.1788(8) 0.6519(10) 0.5928(6)
H42_4 H 0.167671 0.631006 0.608199
C62_4 C 0.2072(10) 0.6819(9) 0.6068(7)
H46_4 H 0.216396 0.679625 0.631717
C69_4 C 0.1265(8) 0.8421(8) 0.5241(8)
H51_4 H 0.114918 0.861543 0.540658
C70_4 C 0.0604(6) 0.8242(6) 0.5021(7)
H52_4 H 0.050662 0.850167 0.510318
C71_4 C 0.1021(6) 0.8153(5) 0.5038(6)
C72_6 C 0.1164(5) 0.7773(6) 0.4917(6)
C73_6 C 0.0890(7) 0.7484(5) 0.4779(7)
H53_6 H 0.098765 0.722485 0.469626
C74_6 C 0.0473(7) 0.7574(8) 0.4762(7)
H54_6 H 0.028604 0.737622 0.466708
C75_6 C 0.0330(5) 0.7953(9) 0.4882(7)
H55_6 H 0.004552 0.801463 0.487054
H56_6 H 0.024344 0.592364 0.312446
H57_6 H 0.007828 0.588525 0.354078
O37_4 O 0.3200(5) 0.9901(3) 0.6003(3)
O41_4 O 0.4002(4) 0.8758(5) 0.5576(4)
N3_4 N 0.3751(7) 0.9734(7) 0.6779(6)
O43_4 O 0.2765(4) 0.9471(5) 0.5462(4)
H75_4 H 0.257736 0.922136 0.550810
H76_4 H 0.269746 0.951232 0.518697
N4_4 N 0.4373(6) 0.8363(6) 0.5952(5)
O44_4 O 0.3844(5) 0.9389(6) 0.6239(4)
O45_4 O 0.3164(6) 0.8839(5) 0.5980(3)
H83_4 H 0.288865 0.892975 0.607642
H84_4 H 0.307245 0.858606 0.583982
O47_4 O 0.4266(5) 0.9650(6) 0.5556(6)
H87_4 H 0.445919 0.961926 0.535079
H88_4 H 0.441369 0.981116 0.574079
H89_4 H 0.259520 0.990944 0.641469
H90_4 H 0.197942 0.978787 0.678400
C132_4 C 0.4092(8) 0.8447(9) 0.5721(5)
H94_4 H 0.392485 0.822013 0.565391
C136_4 C 0.4692(12) 0.8699(12) 0.6060(10)
H96_4 H 0.461358 0.896086 0.594707
H97_4 H 0.496446 0.861784 0.597052
H98_4 H 0.469915 0.872858 0.633025
C137_4 C 0.3674(9) 0.9450(7) 0.6517(6)
H99_4 H 0.344804 0.927469 0.656636
C139_4 C 0.4460(9) 0.7972(9) 0.6109(7)
H101_4 H 0.420245 0.783750 0.618022
H102_4 H 0.463416 0.800597 0.632772
H103_4 H 0.460294 0.780179 0.592524
C141_4 C 0.3501(10) 0.9767(10) 0.7083(8)
H105_4 H 0.366884 0.981304 0.730486
H106_4 H 0.334315 0.951306 0.711256
H107_4 H 0.331255 0.999845 0.704933
C150_4 C 0.4102(9) 0.9998(9) 0.6721(8)
H116_4 H 0.435372 0.984977 0.678734
Zr3_3 Zr 0.11331(4) 0.86764(4) 0.84942(3)
Zr4_3 Zr 0.27734(4) 0.66762(4) 0.75070(3)
O32_3 O 0.1370(3) 0.8339(4) 0.8092(3)
O33_3 O 0.1824(4) 0.7124(3) 0.9875(2)
O34_3 O 0.1103(3) 0.8239(3) 0.8885(3)
O35_3 O 0.0506(4) 0.8470(4) 0.8429(3)
O36_3 O 0.2250(4) 0.7006(4) 0.7547(3)
O38_5 O 0.2340(4) 0.6249(4) 0.7272(4)
O39_5 O 0.0998(5) 0.9361(5) 0.7480(4)
O40_3 O 0.1023(4) 0.9071(4) 0.8026(3)
C100_3 C 0.1077(5) 0.8415(6) 0.9825(4)
H71_3 H 0.107634 0.841034 0.956152
O42_3 O 0.0078(4) 0.8550(4) 0.7770(3)
H72_3 H 0.007933 0.874187 0.760011
H73_3 H 0.011443 0.832427 0.764231
C102_3 C 0.0908(5) 0.8743(5) 0.9995(5)
H77_3 H 0.078743 0.895844 0.985556
C103_3 C 0.1472(5) 0.8370(5) 0.7718(4)
C104_3 C 0.1431(5) 0.7693(5) 0.9409(4)
H78_3 H 0.159700 0.744929 0.934017
H79_3 H 0.156277 0.793697 0.929699
C105_3 C 0.1776(6) 0.7663(5) 0.7784(5)
H80_3 H 0.166754 0.769807 0.803902
H81_3 H 0.207580 0.761989 0.780225
C107_3 C 0.0888(5) 0.6967(5) 0.9569(5)
H82_3 H 0.116737 0.696195 0.964528
C108_3 C 0.1356(6) 0.8738(6) 0.7524(5)
C110_3 C 0.0856(5) 0.7916(5) 0.9005(4)
C111_3 C 0.0993(4) 0.7644(5) 0.9247(4)
O46_5 O 0.1798(5) 0.5984(6) 0.6997(5)
C112_3 C 0.0269(4) 0.8203(5) 0.8572(4)
C113_3 C 0.0436(5) 0.7907(5) 0.8863(4)
C116_3 C 0.0625(7) 0.6643(6) 0.9654(5)
H86_3 H 0.072837 0.641770 0.979205
C117_3 C 0.1434(5) 0.7740(5) 0.9840(4)
C118_3 C 0.1580(6) 0.7289(6) 0.7611(7)
C119_5 C 0.1813(6) 0.8090(6) 0.7191(4)
C120_3 C 0.0190(5) 0.7600(6) 0.8987(4)
C121_3 C 0.0072(5) 0.6966(6) 0.9344(5)
C122_3 C 0.1856(5) 0.6965(6) 0.7503(6)
C123_3 C 0.0723(6) 0.7315(5) 0.9360(4)
C125_3 C 0.1690(5) 0.8057(5) 0.7559(4)
C126_3 C 0.1113(6) 0.9078(6) 0.7689(6)
C127_5 C 0.2072(6) 0.7820(7) 0.6997(5)
H91_5 H 0.215609 0.758136 0.712774
C128_3 C 0.0341(5) 0.7292(5) 0.9220(4)
C129_3 C 0.0215(6) 0.6638(6) 0.9545(4)
H92_3 H 0.004062 0.641533 0.960696
C131_5 C 0.1677(8) 0.8445(7) 0.6979(5)
C133_5 C 0.1455(6) 0.8738(7) 0.7152(5)
H95_5 H 0.135870 0.896096 0.700614
C134_5 C 0.1700(6) 0.6611(6) 0.7313(6)
C135_5 C 0.1950(6) 0.6263(6) 0.7174(5)
C138_5 C 0.2217(7) 0.7858(9) 0.6647(7)
H100_5 H 0.241329 0.767006 0.655172
C140_5 C 0.1788(8) 0.8481(10) 0.6572(6)
H104_5 H 0.167671 0.868994 0.641801
C142_5 C 0.2072(10) 0.8181(9) 0.6432(7)
H108_5 H 0.216396 0.820375 0.618283
C143_5 C 0.1265(8) 0.6579(8) 0.7259(8)
H109_5 H 0.114918 0.638457 0.709342
C144_5 C 0.0604(6) 0.6758(6) 0.7479(7)
H110_5 H 0.050662 0.649833 0.739682
C145_5 C 0.1021(6) 0.6847(5) 0.7462(6)
C146_3 C 0.1164(5) 0.7227(6) 0.7583(6)
C147_3 C 0.0890(7) 0.7516(5) 0.7721(7)
H111_3 H 0.098765 0.777515 0.780374
C148_3 C 0.0473(7) 0.7426(8) 0.7738(7)
H112_3 H 0.028604 0.762378 0.783292
C149_3 C 0.0330(5) 0.7047(9) 0.7618(7)
H113_3 H 0.004552 0.698537 0.762946
H114_3 H 0.024344 0.907636 0.937554
H115_3 H 0.007828 0.911475 0.895922
Zr7_3 Zr 0.22266(4) 0.66762(4) 0.99930(3)
O50_3 O 0.2941(4) 0.6850(4) 0.6964(3)
O52_3 O 0.3176(4) 0.7124(3) 0.7625(2)
O53_3 O 0.1652(4) 0.8930(4) 0.8677(3)
O54_3 O 0.3214(4) 0.6154(4) 0.7457(3)
O56_3 O 0.2777(4) 0.6460(4) 0.8018(3)
O57_3 O 0.0895(4) 0.9174(4) 0.8816(3)
La1_5 La 0.64578(3) 0.43688(3) 0.68963(3)
Zr1_5 Zr 0.63236(4) 0.61331(4) 0.65058(3)
Zr2_3 Zr 0.83238(4) 0.77734(4) 0.74930(3)
O1_3 O 0.8150(4) 0.7059(4) 0.4464(3)
O2_7 O 0.6661(4) 0.6370(3) 0.6908(3)
O3_3 O 0.7876(3) 0.6824(4) 0.5125(2)
O4_5 O 0.6070(4) 0.6652(4) 0.6323(3)
O5_7 O 0.6761(3) 0.6103(3) 0.6115(3)
O6_7 O 0.6530(4) 0.5506(4) 0.6571(3)
O7_7 O 0.7994(4) 0.7250(4) 0.7453(3)
O8_3 O 0.8846(4) 0.8214(4) 0.7543(3)
O9_5 O 0.6800(5) 0.4901(3) 0.6497(3)
O10_5 O 0.8540(4) 0.7777(4) 0.6982(3)
O11_5 O 0.5826(4) 0.5895(4) 0.6184(3)
O12_5 O 0.8751(4) 0.7340(4) 0.7728(4)
O13_5 O 0.5639(5) 0.5998(5) 0.7520(4)
O14_5 O 0.9283(4) 0.8680(4) 0.7422(3)
O15_7 O 0.5929(4) 0.6023(4) 0.6974(3)
O16_5 O 0.5998(4) 0.3758(5) 0.6924(4)
C1_5 C 0.5748(5) 0.7197(5) 0.6027(4)
O17_5 O 0.5300(5) 0.5798(4) 0.5806(4)
C2_7 C 0.7561(4) 0.6650(5) 0.4957(4)
N1_5 N 0.6249(7) 0.4734(7) 0.5721(6)
C3_5 C 0.5531(5) 0.6481(5) 0.5883(4)
C4_7 C 0.6585(6) 0.6077(5) 0.5175(4)
H1_7 H 0.658966 0.607634 0.543848
O18_7 O 0.6450(4) 0.5078(4) 0.7230(3)
H2_7 H 0.625813 0.507933 0.739989
H3_7 H 0.667573 0.511443 0.735769
C5_7 C 0.7209(4) 0.6460(5) 0.4383(4)
H4_7 H 0.719493 0.646571 0.411990
O19_5 O 0.7235(4) 0.4471(5) 0.7038(4)
H5_5 H 0.742264 0.422136 0.699190
H6_5 H 0.730254 0.451232 0.731303
C6_7 C 0.6257(5) 0.5908(5) 0.5005(5)
H7_7 H 0.604156 0.578743 0.514444
C7_7 C 0.6630(5) 0.6472(5) 0.7282(4)
C8_5 C 0.5249(6) 0.6622(6) 0.5646(4)
H8_5 H 0.507685 0.643051 0.552252
C9_5 C 0.5410(6) 0.7771(6) 0.5655(4)
H9_5 H 0.557628 0.798099 0.576028
C10_5 C 0.5792(5) 0.6793(5) 0.6076(4)
C11_7 C 0.7307(5) 0.6431(5) 0.5591(4)
H10_7 H 0.755071 0.659700 0.565983
H11_7 H 0.706303 0.656277 0.570301
N2_5 N 0.5627(6) 0.3363(6) 0.6548(5)
C12_7 C 0.7337(5) 0.6776(6) 0.7216(5)
H12_7 H 0.730193 0.666754 0.696098
H13_7 H 0.738011 0.707580 0.719775
C13_7 C 0.7541(5) 0.6641(5) 0.4557(4)
O20_5 O 0.6156(5) 0.4389(6) 0.6261(4)
C14_7 C 0.8033(5) 0.5888(5) 0.5431(5)
H14_7 H 0.803805 0.616737 0.535472
C15_7 C 0.6262(6) 0.6356(6) 0.7476(5)
C16_7 C 0.6925(4) 0.6257(4) 0.4985(4)
C17_7 C 0.7084(5) 0.5856(5) 0.5995(4)
O21_5 O 0.6836(6) 0.3839(5) 0.6520(3)
H15_5 H 0.711135 0.392975 0.642358
H16_5 H 0.692755 0.358606 0.666018
C18_7 C 0.7356(5) 0.5993(4) 0.5753(4)
O22_5 O 0.9016(6) 0.6798(5) 0.8003(5)
C19_7 C 0.6797(5) 0.5269(4) 0.6428(4)
C20_7 C 0.7093(5) 0.5436(5) 0.6137(4)
C21_7 C 0.6892(5) 0.6269(5) 0.4583(4)
C22_7 C 0.6549(5) 0.6098(5) 0.4403(4)
H17_7 H 0.652962 0.610985 0.414080
C23_7 C 0.8357(6) 0.5625(7) 0.5346(5)
H18_7 H 0.858230 0.572837 0.520795
C24_3 C 0.4866(6) 0.7179(7) 0.5320(4)
H19_3 H 0.467422 0.699273 0.521495
C25_7 C 0.7260(5) 0.6434(5) 0.5160(4)
C26_7 C 0.7711(6) 0.6580(6) 0.7389(7)
O23_5 O 0.5734(5) 0.4650(6) 0.6944(6)
H20_5 H 0.554081 0.461926 0.714921
H21_5 H 0.558631 0.481116 0.675921
C27_5 C 0.5999(7) 0.750000 0.625000
H22_5 H 0.617856 0.734500 0.642159
C28_5 C 0.5197(4) 0.7033(6) 0.5574(4)
C29_5 C 0.6910(6) 0.6813(6) 0.7809(4)
C30_7 C 0.7400(6) 0.5190(5) 0.6013(4)
H23_5 H 0.740480 0.490944 0.608531
C31_5 C 0.5460(6) 0.7342(6) 0.5754(5)
C32_3 C 0.4850(7) 0.7617(7) 0.5240(4)
H24_3 H 0.465217 0.772609 0.507277
C33_7 C 0.8034(6) 0.5072(5) 0.5656(5)
H25_5 H 0.802058 0.478787 0.571600
C34_7 C 0.8035(6) 0.6856(5) 0.7497(6)
C35_5 C 0.8592(8) 0.750000 0.625000
H26_5 H 0.841157 0.759183 0.604515
C36_7 C 0.7685(5) 0.5723(6) 0.5640(4)
C37_5 C 0.5113(6) 0.7853(8) 0.5404(5)
H27_5 H 0.509335 0.813451 0.533620
O24_7 O 0.7896(6) 0.6748(6) 0.3995(5)
C38_7 C 0.7880(6) 0.6824(6) 0.4313(5)
C39_7 C 0.6943(5) 0.6690(5) 0.7441(4)
C40_7 C 0.5922(6) 0.6113(6) 0.7311(6)
C41_5 C 0.7180(7) 0.7072(6) 0.8003(5)
H28_5 H 0.741864 0.715609 0.787226
C42_5 C 0.9045(5) 0.8395(6) 0.7308(5)
C43_7 C 0.7708(5) 0.5341(5) 0.5780(4)
C44_7 C 0.8362(6) 0.5215(6) 0.5455(4)
H29_7 H 0.858467 0.504062 0.539304
C45_5 C 0.8796(6) 0.7978(7) 0.6765(5)
C46_7 C 0.6242(6) 0.5915(7) 0.4602(6)
H30_7 H 0.601800 0.579092 0.447604
C47_5 C 0.6555(7) 0.6677(8) 0.8021(5)
C48_5 C 0.5908(8) 0.3447(9) 0.6779(5)
H31_5 H 0.607515 0.322013 0.684609
C49_5 C 0.6262(7) 0.6455(6) 0.7848(5)
H32_5 H 0.603904 0.635870 0.799386
C50_5 C 0.5552(5) 0.6046(6) 0.5959(5)
C51_5 C 0.8389(6) 0.6700(6) 0.7687(6)
C52_5 C 0.8737(6) 0.6950(6) 0.7826(5)
C53_5 C 0.5308(12) 0.3699(12) 0.6440(10)
H33_5 H 0.538642 0.396086 0.655293
H34_5 H 0.503554 0.361784 0.652948
H35_5 H 0.530085 0.372858 0.616975
C54_5 C 0.9061(6) 0.8304(7) 0.6908(5)
C55_5 C 0.8839(6) 0.7873(7) 0.6386(4)
C56_5 C 0.6326(9) 0.4450(7) 0.5983(6)
H36_5 H 0.655196 0.427469 0.593364
C57_5 C 0.7142(9) 0.7217(7) 0.8353(7)
H37_5 H 0.732994 0.741329 0.844828
C58_5 C 0.5540(9) 0.2972(9) 0.6391(7)
H38_5 H 0.579755 0.283750 0.631978
H39_5 H 0.536584 0.300597 0.617228
H40_5 H 0.539706 0.280179 0.657476
C59_5 C 0.9315(8) 0.8503(9) 0.6670(6)
H41_5 H 0.947898 0.872058 0.676448
C60_5 C 0.6519(10) 0.6788(8) 0.8428(6)
H42_5 H 0.631006 0.667671 0.858199
C61_5 C 0.6499(10) 0.4767(10) 0.5417(8)
H43_5 H 0.633116 0.481304 0.519514
H44_5 H 0.665685 0.451306 0.538744
H45_5 H 0.668745 0.499845 0.545067
C62_5 C 0.6819(9) 0.7072(10) 0.8568(7)
H46_5 H 0.679625 0.716396 0.881717
C63_5 C 0.9670(6) 0.8509(7) 0.5698(5)
H47_5 H 0.986561 0.864714 0.554716
C64_5 C 0.9635(6) 0.8608(6) 0.6071(5)
H48_5 H 0.980618 0.881381 0.617577
C65_5 C 0.9348(6) 0.8407(7) 0.6291(4)
C66_5 C 0.9097(5) 0.8106(6) 0.6138(4)
C67_5 C 0.9132(5) 0.8007(6) 0.5765(5)
H49_5 H 0.896084 0.780191 0.566009
C68_5 C 0.9419(7) 0.8209(7) 0.5545(4)
H50_5 H 0.944293 0.814118 0.528932
C69_5 C 0.8421(8) 0.6265(8) 0.7741(8)
H51_5 H 0.861543 0.614918 0.790658
C70_5 C 0.8242(6) 0.5604(6) 0.7521(7)
H52_5 H 0.850167 0.550662 0.760318
C71_5 C 0.8153(5) 0.6021(6) 0.7538(6)
C72_7 C 0.7773(6) 0.6164(5) 0.7417(6)
C73_7 C 0.7484(5) 0.5890(7) 0.7279(7)
H53_7 H 0.722485 0.598765 0.719626
C74_7 C 0.7574(8) 0.5473(7) 0.7262(7)
H54_7 H 0.737622 0.528604 0.716708
C75_7 C 0.7953(9) 0.5330(5) 0.7382(7)
H55_7 H 0.801463 0.504552 0.737054
C76_5 C 0.5898(9) 0.4998(9) 0.5779(8)
H56_7 H 0.592364 0.524344 0.562446
H57_7 H 0.588525 0.507828 0.604078
H58_5 H 0.564628 0.484977 0.571266
H59_5 H 0.617856 0.765500 0.607841
H60_5 H 0.841157 0.740817 0.645485
O25_3 O 0.6070(4) 0.8348(4) 0.6177(3)
O26_3 O 0.5826(4) 0.9105(4) 0.6316(3)
C77_5 C 0.5748(5) 0.7803(5) 0.6473(4)
O27_5 O 0.5300(5) 0.9202(4) 0.6694(4)
C78_5 C 0.5531(5) 0.8519(5) 0.6617(4)
C79_5 C 0.5249(6) 0.8378(6) 0.6854(4)
H61_5 H 0.507685 0.856949 0.697748
C80_5 C 0.5410(6) 0.7229(6) 0.6845(4)
H62_5 H 0.557628 0.701901 0.673972
C81_5 C 0.5792(5) 0.8207(5) 0.6424(4)
C82_3 C 0.4866(6) 0.7821(7) 0.7180(4)
H63_3 H 0.467422 0.800727 0.728505
C83_5 C 0.5197(4) 0.7967(6) 0.6926(4)
C84_5 C 0.5460(6) 0.7658(6) 0.6746(5)
C85_3 C 0.4850(7) 0.7383(7) 0.7260(4)
H64_3 H 0.465217 0.727391 0.742723
C86_5 C 0.5113(6) 0.7147(8) 0.7096(5)
H65_5 H 0.509335 0.686549 0.716380
C87_5 C 0.5552(5) 0.8954(6) 0.6541(5)
O28_3 O 0.8846(4) 0.6786(4) 0.4957(3)
O29_3 O 0.8540(4) 0.7223(4) 0.5518(3)
O30_3 O 0.9283(4) 0.6320(4) 0.5078(3)
C88_5 C 0.9045(5) 0.6605(6) 0.5192(5)
C89_5 C 0.8796(6) 0.7022(7) 0.5735(5)
C90_5 C 0.9061(6) 0.6696(7) 0.5592(5)
C91_5 C 0.8839(6) 0.7127(7) 0.6114(4)
C92_5 C 0.9315(8) 0.6497(9) 0.5830(6)
H66_5 H 0.947898 0.627942 0.573552
C93_5 C 0.9670(6) 0.6491(7) 0.6802(5)
H67_5 H 0.986561 0.635286 0.695284
C94_5 C 0.9635(6) 0.6392(6) 0.6429(5)
H68_5 H 0.980618 0.618619 0.632423
C95_5 C 0.9348(6) 0.6593(7) 0.6209(4)
C96_5 C 0.9097(5) 0.6894(6) 0.6362(4)
C97_5 C 0.9132(5) 0.6993(6) 0.6735(5)
H69_5 H 0.896084 0.719809 0.683991
C98_5 C 0.9419(7) 0.6791(7) 0.6955(4)
H70_5 H 0.944293 0.685882 0.721068
La2_3 La 0.93688(3) 0.85422(3) 0.81037(3)
O37_5 O 0.9901(3) 0.8200(5) 0.8503(3)
O41_5 O 0.8758(5) 0.9002(4) 0.8076(4)
N3_5 N 0.9734(7) 0.8751(7) 0.9279(6)
O43_5 O 0.9471(5) 0.7765(4) 0.7962(4)
H75_5 H 0.922136 0.757736 0.800810
H76_5 H 0.951232 0.769746 0.768697
N4_5 N 0.8363(6) 0.9373(6) 0.8452(5)
O44_5 O 0.9389(6) 0.8844(5) 0.8739(4)
O45_5 O 0.8839(5) 0.8164(6) 0.8480(3)
H83_5 H 0.892975 0.788865 0.857642
H84_5 H 0.858606 0.807245 0.833982
O47_5 O 0.9650(6) 0.9266(5) 0.8056(6)
H87_5 H 0.961926 0.945919 0.785079
H88_5 H 0.981116 0.941369 0.824079
H89_5 H 0.990944 0.759520 0.891469
H90_5 H 0.978787 0.697942 0.928400
C132_5 C 0.8447(9) 0.9092(8) 0.8221(5)
H94_5 H 0.822013 0.892485 0.815391
C136_5 C 0.8699(12) 0.9692(12) 0.8560(10)
H96_5 H 0.896086 0.961358 0.844707
H97_5 H 0.861784 0.996446 0.847052
H98_5 H 0.872858 0.969915 0.883025
C137_5 C 0.9450(7) 0.8674(9) 0.9017(6)
H99_5 H 0.927469 0.844804 0.906636
C139_5 C 0.7972(9) 0.9460(9) 0.8609(7)
H101_5 H 0.783750 0.920245 0.868022
H102_5 H 0.800597 0.963416 0.882772
H103_5 H 0.780179 0.960294 0.842524
C141_5 C 0.9767(10) 0.8501(10) 0.9583(8)
H105_5 H 0.981304 0.866884 0.980486
H106_5 H 0.951306 0.834315 0.961256
H107_5 H 0.999845 0.831255 0.954933
C150_5 C 0.9998(9) 0.9102(9) 0.9221(8)
H116_5 H 0.984977 0.935372 0.928734
La3_3 La 0.93688(3) 0.64578(3) 0.43963(3)
Zr5_3 Zr 0.63236(4) 0.88669(4) 0.59942(3)
Zr6_3 Zr 0.83238(4) 0.72266(4) 0.50070(3)
O49_3 O 0.8150(4) 0.7941(4) 0.8036(3)
O51_3 O 0.7876(3) 0.8176(4) 0.7375(2)
O55_3 O 0.6786(4) 0.3846(4) 0.7457(3)
O58_3 O 0.6320(4) 0.4283(4) 0.7578(3)
La1_6 La 0.35422(3) 0.56312(3) 0.68963(3)
Zr1_6 Zr 0.36764(4) 0.38669(4) 0.65058(3)
Zr2_4 Zr 0.16762(4) 0.22266(4) 0.74930(3)
O1_4 O 0.1850(4) 0.2941(4) 0.4464(3)
O2_8 O 0.3339(4) 0.3630(3) 0.6908(3)
O3_4 O 0.2124(3) 0.3176(4) 0.5125(2)
O4_6 O 0.3930(4) 0.3348(4) 0.6323(3)
O5_8 O 0.3239(3) 0.3897(3) 0.6115(3)
O6_8 O 0.3470(4) 0.4494(4) 0.6571(3)
O7_8 O 0.2006(4) 0.2750(4) 0.7453(3)
O8_4 O 0.1154(4) 0.1786(4) 0.7543(3)
O9_6 O 0.3200(5) 0.5099(3) 0.6497(3)
O10_6 O 0.1460(4) 0.2223(4) 0.6982(3)
O11_6 O 0.4174(4) 0.4105(4) 0.6184(3)
O12_6 O 0.1249(4) 0.2660(4) 0.7728(4)
O13_6 O 0.4361(5) 0.4002(5) 0.7520(4)
O14_6 O 0.0717(4) 0.1320(4) 0.7422(3)
O15_8 O 0.4071(4) 0.3977(4) 0.6974(3)
O16_6 O 0.4002(4) 0.6242(5) 0.6924(4)
C1_6 C 0.4252(5) 0.2803(5) 0.6027(4)
O17_6 O 0.4700(5) 0.4202(4) 0.5806(4)
C2_8 C 0.2439(4) 0.3350(5) 0.4957(4)
N1_6 N 0.3751(7) 0.5266(7) 0.5721(6)
C3_6 C 0.4469(5) 0.3519(5) 0.5883(4)
C4_8 C 0.3415(6) 0.3923(5) 0.5175(4)
H1_8 H 0.341034 0.392366 0.543848
O18_8 O 0.3550(4) 0.4922(4) 0.7230(3)
H2_8 H 0.374187 0.492067 0.739989
H3_8 H 0.332427 0.488557 0.735769
C5_8 C 0.2791(4) 0.3540(5) 0.4383(4)
H4_8 H 0.280507 0.353429 0.411990
O19_6 O 0.2765(4) 0.5529(5) 0.7038(4)
H5_6 H 0.257736 0.577864 0.699190
H6_6 H 0.269746 0.548768 0.731303
C6_8 C 0.3743(5) 0.4092(5) 0.5005(5)
H7_8 H 0.395844 0.421257 0.514444
C7_8 C 0.3370(5) 0.3528(5) 0.7282(4)
C8_6 C 0.4751(6) 0.3378(6) 0.5646(4)
H8_6 H 0.492315 0.356949 0.552252
C9_6 C 0.4590(6) 0.2229(6) 0.5655(4)
H9_6 H 0.442372 0.201901 0.576028
C10_6 C 0.4208(5) 0.3207(5) 0.6076(4)
C11_8 C 0.2693(5) 0.3569(5) 0.5591(4)
H10_8 H 0.244929 0.340300 0.565983
H11_8 H 0.293697 0.343723 0.570301
N2_6 N 0.4373(6) 0.6637(6) 0.6548(5)
C12_8 C 0.2663(5) 0.3224(6) 0.7216(5)
H12_8 H 0.269807 0.333246 0.696098
H13_8 H 0.261989 0.292420 0.719775
C13_8 C 0.2459(5) 0.3359(5) 0.4557(4)
O20_6 O 0.3844(5) 0.5611(6) 0.6261(4)
C14_8 C 0.1967(5) 0.4112(5) 0.5431(5)
H14_8 H 0.196195 0.383263 0.535472
C15_8 C 0.3738(6) 0.3644(6) 0.7476(5)
C16_8 C 0.3075(4) 0.3743(4) 0.4985(4)
C17_8 C 0.2916(5) 0.4144(5) 0.5995(4)
O21_6 O 0.3164(6) 0.6161(5) 0.6520(3)
H15_6 H 0.288865 0.607025 0.642358
H16_6 H 0.307245 0.641394 0.666018
C18_8 C 0.2644(5) 0.4007(4) 0.5753(4)
O22_6 O 0.0984(6) 0.3202(5) 0.8003(5)
C19_8 C 0.3203(5) 0.4731(4) 0.6428(4)
C20_8 C 0.2907(5) 0.4564(5) 0.6137(4)
C21_8 C 0.3108(5) 0.3731(5) 0.4583(4)
C22_8 C 0.3451(5) 0.3902(5) 0.4403(4)
H17_8 H 0.347038 0.389015 0.414080
C23_8 C 0.1643(6) 0.4375(7) 0.5346(5)
H18_8 H 0.141770 0.427163 0.520795
C24_4 C 0.5134(6) 0.2821(7) 0.5320(4)
H19_4 H 0.532578 0.300727 0.521495
C25_8 C 0.2740(5) 0.3566(5) 0.5160(4)
C26_8 C 0.2289(6) 0.3420(6) 0.7389(7)
O23_6 O 0.4266(5) 0.5350(6) 0.6944(6)
H20_6 H 0.445919 0.538074 0.714921
H21_6 H 0.441369 0.518884 0.675921
C27_6 C 0.4001(7) 0.250000 0.625000
H22_6 H 0.382144 0.265500 0.642159
C28_6 C 0.4803(4) 0.2967(6) 0.5574(4)
C29_6 C 0.3090(6) 0.3187(6) 0.7809(4)
C30_8 C 0.2600(6) 0.4810(5) 0.6013(4)
H23_6 H 0.259520 0.509056 0.608531
C31_6 C 0.4540(6) 0.2658(6) 0.5754(5)
C32_4 C 0.5150(7) 0.2383(7) 0.5240(4)
H24_4 H 0.534783 0.227391 0.507277
C33_8 C 0.1966(6) 0.4928(5) 0.5656(5)
H25_6 H 0.197942 0.521213 0.571600
C34_8 C 0.1965(6) 0.3144(5) 0.7497(6)
C35_6 C 0.1408(8) 0.250000 0.625000
H26_6 H 0.158843 0.240817 0.604515
C36_8 C 0.2315(5) 0.4277(6) 0.5640(4)
C37_6 C 0.4887(6) 0.2147(8) 0.5404(5)
H27_6 H 0.490665 0.186549 0.533620
O24_8 O 0.2104(6) 0.3252(6) 0.3995(5)
C38_8 C 0.2120(6) 0.3176(6) 0.4313(5)
C39_8 C 0.3057(5) 0.3310(5) 0.7441(4)
C40_8 C 0.4078(6) 0.3887(6) 0.7311(6)
C41_6 C 0.2820(7) 0.2928(6) 0.8003(5)
H28_6 H 0.258136 0.284391 0.787226
C42_6 C 0.0955(5) 0.1605(6) 0.7308(5)
C43_8 C 0.2292(5) 0.4659(5) 0.5780(4)
C44_8 C 0.1638(6) 0.4785(6) 0.5455(4)
H29_8 H 0.141533 0.495938 0.539304
C45_6 C 0.1204(6) 0.2022(7) 0.6765(5)
C46_8 C 0.3758(6) 0.4085(7) 0.4602(6)
H30_8 H 0.398200 0.420908 0.447604
C47_6 C 0.3445(7) 0.3323(8) 0.8021(5)
C48_6 C 0.4092(8) 0.6553(9) 0.6779(5)
H31_6 H 0.392485 0.677987 0.684609
C49_6 C 0.3738(7) 0.3545(6) 0.7848(5)
H32_6 H 0.396096 0.364130 0.799386
C50_6 C 0.4448(5) 0.3954(6) 0.5959(5)
C51_6 C 0.1611(6) 0.3300(6) 0.7687(6)
C52_6 C 0.1263(6) 0.3050(6) 0.7826(5)
C53_6 C 0.4692(12) 0.6301(12) 0.6440(10)
H33_6 H 0.461358 0.603914 0.655293
H34_6 H 0.496446 0.638216 0.652948
H35_6 H 0.469915 0.627142 0.616975
C54_6 C 0.0939(6) 0.1696(7) 0.6908(5)
C55_6 C 0.1161(6) 0.2127(7) 0.6386(4)
C56_6 C 0.3674(9) 0.5550(7) 0.5983(6)
H36_6 H 0.344804 0.572531 0.593364
C57_6 C 0.2858(9) 0.2783(7) 0.8353(7)
H37_6 H 0.267006 0.258671 0.844828
C58_6 C 0.4460(9) 0.7028(9) 0.6391(7)
H38_6 H 0.420245 0.716250 0.631978
H39_6 H 0.463416 0.699403 0.617228
H40_6 H 0.460294 0.719821 0.657476
C59_6 C 0.0685(8) 0.1497(9) 0.6670(6)
H41_6 H 0.052102 0.127942 0.676448
C60_6 C 0.3481(10) 0.3212(8) 0.8428(6)
H42_6 H 0.368994 0.332329 0.858199
C61_6 C 0.3501(10) 0.5233(10) 0.5417(8)
H43_6 H 0.366884 0.518696 0.519514
H44_6 H 0.334315 0.548694 0.538744
H45_6 H 0.331255 0.500155 0.545067
C62_6 C 0.3181(9) 0.2928(10) 0.8568(7)
H46_6 H 0.320375 0.283604 0.881717
C63_6 C 0.0330(6) 0.1491(7) 0.5698(5)
H47_6 H 0.013439 0.135286 0.554716
C64_6 C 0.0365(6) 0.1392(6) 0.6071(5)
H48_6 H 0.019382 0.118619 0.617577
C65_6 C 0.0652(6) 0.1593(7) 0.6291(4)
C66_6 C 0.0903(5) 0.1894(6) 0.6138(4)
C67_6 C 0.0868(5) 0.1993(6) 0.5765(5)
H49_6 H 0.103916 0.219809 0.566009
C68_6 C 0.0581(7) 0.1791(7) 0.5545(4)
H50_6 H 0.055707 0.185882 0.528932
C69_6 C 0.1579(8) 0.3735(8) 0.7741(8)
H51_6 H 0.138457 0.385082 0.790658
C70_6 C 0.1758(6) 0.4396(6) 0.7521(7)
H52_6 H 0.149833 0.449338 0.760318
C71_6 C 0.1847(5) 0.3979(6) 0.7538(6)
C72_8 C 0.2227(6) 0.3836(5) 0.7417(6)
C73_8 C 0.2516(5) 0.4110(7) 0.7279(7)
H53_8 H 0.277515 0.401235 0.719626
C74_8 C 0.2426(8) 0.4527(7) 0.7262(7)
H54_8 H 0.262378 0.471396 0.716708
C75_8 C 0.2047(9) 0.4670(5) 0.7382(7)
H55_8 H 0.198537 0.495448 0.737054
C76_6 C 0.4102(9) 0.5002(9) 0.5779(8)
H56_8 H 0.407636 0.475656 0.562446
H57_8 H 0.411475 0.492172 0.604078
H58_6 H 0.435372 0.515023 0.571266
H59_6 H 0.382144 0.234500 0.607841
H60_6 H 0.158843 0.259183 0.645485
O25_4 O 0.3930(4) 0.1652(4) 0.6177(3)
O26_4 O 0.4174(4) 0.0895(4) 0.6316(3)
C77_6 C 0.4252(5) 0.2197(5) 0.6473(4)
O27_6 O 0.4700(5) 0.0798(4) 0.6694(4)
C78_6 C 0.4469(5) 0.1481(5) 0.6617(4)
C79_6 C 0.4751(6) 0.1622(6) 0.6854(4)
H61_6 H 0.492315 0.143051 0.697748
C80_6 C 0.4590(6) 0.2771(6) 0.6845(4)
H62_6 H 0.442372 0.298099 0.673972
C81_6 C 0.4208(5) 0.1793(5) 0.6424(4)
C82_4 C 0.5134(6) 0.2179(7) 0.7180(4)
H63_4 H 0.532578 0.199273 0.728505
C83_6 C 0.4803(4) 0.2033(6) 0.6926(4)
C84_6 C 0.4540(6) 0.2342(6) 0.6746(5)
C85_4 C 0.5150(7) 0.2617(7) 0.7260(4)
H64_4 H 0.534783 0.272609 0.742723
C86_6 C 0.4887(6) 0.2853(8) 0.7096(5)
H65_6 H 0.490665 0.313451 0.716380
C87_6 C 0.4448(5) 0.1046(6) 0.6541(5)
O28_4 O 0.1154(4) 0.3214(4) 0.4957(3)
O29_4 O 0.1460(4) 0.2777(4) 0.5518(3)
O30_4 O 0.0717(4) 0.3680(4) 0.5078(3)
C88_6 C 0.0955(5) 0.3395(6) 0.5192(5)
C89_6 C 0.1204(6) 0.2978(7) 0.5735(5)
C90_6 C 0.0939(6) 0.3304(7) 0.5592(5)
C91_6 C 0.1161(6) 0.2873(7) 0.6114(4)
C92_6 C 0.0685(8) 0.3503(9) 0.5830(6)
H66_6 H 0.052102 0.372058 0.573552
C93_6 C 0.0330(6) 0.3509(7) 0.6802(5)
H67_6 H 0.013439 0.364714 0.695284
C94_6 C 0.0365(6) 0.3608(6) 0.6429(5)
H68_6 H 0.019382 0.381381 0.632423
C95_6 C 0.0652(6) 0.3407(7) 0.6209(4)
C96_6 C 0.0903(5) 0.3106(6) 0.6362(4)
C97_6 C 0.0868(5) 0.3007(6) 0.6735(5)
H69_6 H 0.103916 0.280191 0.683991
C98_6 C 0.0581(7) 0.3209(7) 0.6955(4)
H70_6 H 0.055707 0.314118 0.721068
La2_4 La 0.06312(3) 0.14578(3) 0.81037(3)
O37_6 O 0.0099(3) 0.1800(5) 0.8503(3)
O41_6 O 0.1242(5) 0.0998(4) 0.8076(4)
N3_6 N 0.0266(7) 0.1249(7) 0.9279(6)
O43_6 O 0.0529(5) 0.2235(4) 0.7962(4)
H75_6 H 0.077864 0.242264 0.800810
H76_6 H 0.048768 0.230254 0.768697
N4_6 N 0.1637(6) 0.0627(6) 0.8452(5)
O44_6 O 0.0611(6) 0.1156(5) 0.8739(4)
O45_6 O 0.1161(5) 0.1836(6) 0.8480(3)
H83_6 H 0.107025 0.211135 0.857642
H84_6 H 0.141394 0.192755 0.833982
O47_6 O 0.0350(6) 0.0734(5) 0.8056(6)
H87_6 H 0.038074 0.054081 0.785079
H88_6 H 0.018884 0.058631 0.824079
H89_6 H 0.009056 0.240480 0.891469
H90_6 H 0.021213 0.302058 0.928400
C132_6 C 0.1553(9) 0.0908(8) 0.8221(5)
H94_6 H 0.177987 0.107515 0.815391
C136_6 C 0.1301(12) 0.0308(12) 0.8560(10)
H96_6 H 0.103914 0.038642 0.844707
H97_6 H 0.138216 0.003554 0.847052
H98_6 H 0.127142 0.030085 0.883025
C137_6 C 0.0550(7) 0.1326(9) 0.9017(6)
H99_6 H 0.072531 0.155196 0.906636
C139_6 C 0.2028(9) 0.0540(9) 0.8609(7)
H101_6 H 0.216250 0.079755 0.868022
H102_6 H 0.199403 0.036584 0.882772
H103_6 H 0.219821 0.039706 0.842524
C141_6 C 0.0233(10) 0.1499(10) 0.9583(8)
H105_6 H 0.018696 0.133116 0.980486
H106_6 H 0.048694 0.165685 0.961256
H107_6 H 0.000155 0.168745 0.954933
C150_6 C 0.0002(9) 0.0898(9) 0.9221(8)
H116_6 H 0.015023 0.064628 0.928734
La3_4 La 0.06312(3) 0.35422(3) 0.43963(3)
Zr5_4 Zr 0.36764(4) 0.11331(4) 0.59942(3)
Zr6_4 Zr 0.16762(4) 0.27734(4) 0.50070(3)
O49_4 O 0.1850(4) 0.2059(4) 0.8036(3)
O51_4 O 0.2124(3) 0.1824(4) 0.7375(2)
O58_4 O 0.3680(4) 0.5717(4) 0.7578(3)
Zr3_4 Zr 0.88669(4) 0.13236(4) 0.84942(3)
Zr4_4 Zr 0.72266(4) 0.33238(4) 0.75070(3)
O32_4 O 0.8630(3) 0.1661(4) 0.8092(3)
O33_4 O 0.8176(4) 0.2876(3) 0.9875(2)
O34_4 O 0.8897(3) 0.1761(3) 0.8885(3)
O35_4 O 0.9494(4) 0.1530(4) 0.8429(3)
O36_4 O 0.7750(4) 0.2994(4) 0.7547(3)
O38_6 O 0.7660(4) 0.3751(4) 0.7272(4)
O39_6 O 0.9002(5) 0.0639(5) 0.7480(4)
O40_4 O 0.8977(4) 0.0929(4) 0.8026(3)
C100_4 C 0.8923(5) 0.1585(6) 0.9825(4)
H71_4 H 0.892366 0.158966 0.956152
O42_4 O 0.9922(4) 0.1450(4) 0.7770(3)
H72_4 H 0.992067 0.125813 0.760011
H73_4 H 0.988557 0.167573 0.764231
C102_4 C 0.9092(5) 0.1257(5) 0.9995(5)
H77_4 H 0.921257 0.104156 0.985556
C103_4 C 0.8528(5) 0.1630(5) 0.7718(4)
C104_4 C 0.8569(5) 0.2307(5) 0.9409(4)
H78_4 H 0.840300 0.255071 0.934017
H79_4 H 0.843723 0.206303 0.929699
C105_4 C 0.8224(6) 0.2337(5) 0.7784(5)
H80_4 H 0.833246 0.230193 0.803902
H81_4 H 0.792420 0.238011 0.780225
C107_4 C 0.9112(5) 0.3033(5) 0.9569(5)
H82_4 H 0.883263 0.303805 0.964528
C108_4 C 0.8644(6) 0.1262(6) 0.7524(5)
C110_4 C 0.9144(5) 0.2084(5) 0.9005(4)
C111_4 C 0.9007(4) 0.2356(5) 0.9247(4)
O46_6 O 0.8202(5) 0.4016(6) 0.6997(5)
C112_4 C 0.9731(4) 0.1797(5) 0.8572(4)
C113_4 C 0.9564(5) 0.2093(5) 0.8863(4)
C116_4 C 0.9375(7) 0.3357(6) 0.9654(5)
H86_4 H 0.927163 0.358230 0.979205
C117_4 C 0.8566(5) 0.2260(5) 0.9840(4)
C118_4 C 0.8420(6) 0.2711(6) 0.7611(7)
C119_6 C 0.8187(6) 0.1910(6) 0.7191(4)
C120_4 C 0.9810(5) 0.2400(6) 0.8987(4)
C121_4 C 0.9928(5) 0.3034(6) 0.9344(5)
C122_4 C 0.8144(5) 0.3035(6) 0.7503(6)
C123_4 C 0.9277(6) 0.2685(5) 0.9360(4)
C125_4 C 0.8310(5) 0.1943(5) 0.7559(4)
C126_4 C 0.8887(6) 0.0922(6) 0.7689(6)
C127_6 C 0.7928(6) 0.2180(7) 0.6997(5)
H91_6 H 0.784391 0.241864 0.712774
C128_4 C 0.9659(5) 0.2708(5) 0.9220(4)
C129_4 C 0.9785(6) 0.3362(6) 0.9545(4)
H92_4 H 0.995938 0.358467 0.960696
C131_6 C 0.8323(8) 0.1555(7) 0.6979(5)
C133_6 C 0.8545(6) 0.1262(7) 0.7152(5)
H95_6 H 0.864130 0.103904 0.700614
C134_6 C 0.8300(6) 0.3389(6) 0.7313(6)
C135_6 C 0.8050(6) 0.3737(6) 0.7174(5)
C138_6 C 0.7783(7) 0.2142(9) 0.6647(7)
H100_6 H 0.758671 0.232994 0.655172
C140_6 C 0.8212(8) 0.1519(10) 0.6572(6)
H104_6 H 0.832329 0.131006 0.641801
C142_6 C 0.7928(10) 0.1819(9) 0.6432(7)
H108_6 H 0.783604 0.179625 0.618283
C143_6 C 0.8735(8) 0.3421(8) 0.7259(8)
H109_6 H 0.885082 0.361543 0.709342
C144_6 C 0.9396(6) 0.3242(6) 0.7479(7)
H110_6 H 0.949338 0.350167 0.739682
C145_6 C 0.8979(6) 0.3153(5) 0.7462(6)
C146_4 C 0.8836(5) 0.2773(6) 0.7583(6)
C147_4 C 0.9110(7) 0.2484(5) 0.7721(7)
H111_4 H 0.901235 0.222485 0.780374
C148_4 C 0.9527(7) 0.2574(8) 0.7738(7)
H112_4 H 0.971396 0.237622 0.783292
C149_4 C 0.9670(5) 0.2953(9) 0.7618(7)
H113_4 H 0.995448 0.301463 0.762946
H114_4 H 0.975656 0.092364 0.937554
H115_4 H 0.992172 0.088525 0.895922
Zr7_4 Zr 0.77734(4) 0.33238(4) 0.99930(3)
O50_4 O 0.7059(4) 0.3150(4) 0.6964(3)
O52_4 O 0.6824(4) 0.2876(3) 0.7625(2)
O53_4 O 0.8348(4) 0.1070(4) 0.8677(3)
O56_4 O 0.7223(4) 0.3540(4) 0.8018(3)
O57_4 O 0.9105(4) 0.0826(4) 0.8816(3)
O31_3 O 0.6850(4) 0.7941(4) 0.9464(3)
C99_3 C 0.7439(4) 0.8350(5) 0.9957(4)
C101_3 C 0.7791(4) 0.8540(5) 0.9383(4)
H74_3 H 0.780507 0.853429 0.911990
C106_3 C 0.7459(5) 0.8359(5) 0.9557(4)
C109_3 C 0.8075(4) 0.8743(4) 0.9985(4)
C114_3 C 0.8108(5) 0.8731(5) 0.9583(4)
C115_3 C 0.8451(5) 0.8902(5) 0.9403(4)
H85_3 H 0.847038 0.889015 0.914080
O48_3 O 0.7104(6) 0.8252(6) 0.8995(5)
C124_3 C 0.7120(6) 0.8176(6) 0.9313(5)
C130_3 C 0.8758(6) 0.9085(7) 0.9602(6)
H93_3 H 0.898200 0.920908 0.947604
O31_4 O 0.3150(4) 0.2059(4) 0.9464(3)
C99_4 C 0.2561(4) 0.1650(5) 0.9957(4)
C101_4 C 0.2209(4) 0.1460(5) 0.9383(4)
H74_4 H 0.219493 0.146571 0.911990
C106_4 C 0.2541(5) 0.1641(5) 0.9557(4)
C109_4 C 0.1925(4) 0.1257(4) 0.9985(4)
C114_4 C 0.1892(5) 0.1269(5) 0.9583(4)
C115_4 C 0.1549(5) 0.1098(5) 0.9403(4)
H85_4 H 0.152962 0.110985 0.914080
O48_4 O 0.2896(6) 0.1748(6) 0.8995(5)
C124_4 C 0.2880(6) 0.1824(6) 0.9313(5)
C130_4 C 0.1242(6) 0.0915(7) 0.9602(6)
H93_4 H 0.101800 0.079092 0.947604
O8_5 O 0.6154(4) 0.8214(4) 0.9957(3)
O12_7 O 0.6249(4) 0.7340(4) 0.9772(4)
O13_7 O 0.9361(5) 0.5998(5) 0.9980(4)
O22_7 O 0.5984(6) 0.6798(5) 0.9497(5)
C29_7 C 0.8090(6) 0.6813(6) 0.9691(4)
C41_7 C 0.7820(7) 0.7072(6) 0.9497(5)
H28_7 H 0.758136 0.715609 0.962774
C47_7 C 0.8445(7) 0.6677(8) 0.9479(5)
C49_7 C 0.8738(7) 0.6455(6) 0.9652(5)
H32_7 H 0.896096 0.635870 0.950614
C51_7 C 0.6611(6) 0.6700(6) 0.9813(6)
C52_7 C 0.6263(6) 0.6950(6) 0.9674(5)
C57_7 C 0.7858(9) 0.7217(7) 0.9147(7)
H37_7 H 0.767006 0.741329 0.905172
C60_7 C 0.8481(10) 0.6788(8) 0.9072(6)
H42_7 H 0.868994 0.667671 0.891801
C62_7 C 0.8181(9) 0.7072(10) 0.8932(7)
H46_7 H 0.820375 0.716396 0.868283
C69_7 C 0.6579(8) 0.6265(8) 0.9759(8)
H51_7 H 0.638457 0.614918 0.959342
C70_7 C 0.6758(6) 0.5604(6) 0.9979(7)
H52_7 H 0.649833 0.550662 0.989682
C71_7 C 0.6847(5) 0.6021(6) 0.9962(6)
La2_5 La 0.56312(3) 0.85422(3) 0.93963(3)
Zr3_5 Zr 0.38669(4) 0.86764(4) 0.90058(3)
O32_5 O 0.3630(3) 0.8339(4) 0.9408(3)
O34_5 O 0.3897(3) 0.8239(3) 0.8615(3)
O35_5 O 0.4494(4) 0.8470(4) 0.9071(3)
O36_5 O 0.2750(4) 0.7006(4) 0.9953(3)
O37_7 O 0.5099(3) 0.8200(5) 0.8997(3)
O40_5 O 0.3977(4) 0.9071(4) 0.9474(3)
O41_7 O 0.6242(5) 0.9002(4) 0.9424(4)
C99_5 C 0.3350(5) 0.7439(4) 0.7457(4)
N3_7 N 0.5266(7) 0.8751(7) 0.8221(6)
C100_5 C 0.3923(5) 0.8415(6) 0.7675(4)
H71_5 H 0.392366 0.841034 0.793848
O42_5 O 0.4922(4) 0.8550(4) 0.9730(3)
H72_5 H 0.492067 0.874187 0.989989
H73_5 H 0.488557 0.832427 0.985769
C101_5 C 0.3540(5) 0.7791(4) 0.6883(4)
H74_5 H 0.353429 0.780507 0.661990
O43_7 O 0.5529(5) 0.7765(4) 0.9538(4)
H75_7 H 0.577864 0.757736 0.949190
H76_7 H 0.548768 0.769746 0.981303
C102_5 C 0.4092(5) 0.8743(5) 0.7505(5)
H77_5 H 0.421257 0.895844 0.764444
C103_5 C 0.3528(5) 0.8370(5) 0.9782(4)
C104_5 C 0.3569(5) 0.7693(5) 0.8091(4)
H78_5 H 0.340300 0.744929 0.815983
H79_5 H 0.343723 0.793697 0.820301
N4_7 N 0.6637(6) 0.9373(6) 0.9048(5)
C105_5 C 0.3224(6) 0.7663(5) 0.9716(5)
H80_5 H 0.333246 0.769807 0.946098
H81_5 H 0.292420 0.761989 0.969775
C106_5 C 0.3359(5) 0.7459(5) 0.7057(4)
O44_7 O 0.5611(6) 0.8844(5) 0.8761(4)
C107_5 C 0.4112(5) 0.6967(5) 0.7931(5)
H82_5 H 0.383263 0.696195 0.785472
C108_5 C 0.3644(6) 0.8738(6) 0.9976(5)
C109_5 C 0.3743(4) 0.8075(4) 0.7485(4)
C110_5 C 0.4144(5) 0.7916(5) 0.8495(4)
O45_7 O 0.6161(5) 0.8164(6) 0.9020(3)
H83_7 H 0.607025 0.788865 0.892358
H84_7 H 0.641394 0.807245 0.916018
C111_5 C 0.4007(4) 0.7644(5) 0.8253(4)
C112_5 C 0.4731(4) 0.8203(5) 0.8928(4)
C113_5 C 0.4564(5) 0.7907(5) 0.8637(4)
C114_5 C 0.3731(5) 0.8108(5) 0.7083(4)
C115_5 C 0.3902(5) 0.8451(5) 0.6903(4)
H85_5 H 0.389015 0.847038 0.664080
C116_5 C 0.4375(7) 0.6643(6) 0.7846(5)
H86_5 H 0.427163 0.641770 0.770795
C117_5 C 0.3566(5) 0.7740(5) 0.7660(4)
C118_5 C 0.3420(6) 0.7289(6) 0.9889(7)
O47_7 O 0.5350(6) 0.9266(5) 0.9444(6)
H87_7 H 0.538074 0.945919 0.964921
H88_7 H 0.518884 0.941369 0.925921
C120_5 C 0.4810(5) 0.7600(6) 0.8513(4)
H89_7 H 0.509056 0.759520 0.858531
C121_5 C 0.4928(5) 0.6966(6) 0.8156(5)
H90_7 H 0.521213 0.697942 0.821600
C122_5 C 0.3144(5) 0.6965(6) 0.9997(6)
C123_5 C 0.4277(6) 0.7315(5) 0.8140(4)
O48_5 O 0.3252(6) 0.7104(6) 0.6495(5)
C124_5 C 0.3176(6) 0.7120(6) 0.6813(5)
C125_5 C 0.3310(5) 0.8057(5) 0.9941(4)
C126_5 C 0.3887(6) 0.9078(6) 0.9811(6)
C128_5 C 0.4659(5) 0.7292(5) 0.8280(4)
C129_5 C 0.4785(6) 0.6638(6) 0.7955(4)
H92_5 H 0.495938 0.641533 0.789304
C130_5 C 0.4085(7) 0.8758(6) 0.7102(6)
H93_5 H 0.420908 0.898200 0.697604
C132_7 C 0.6553(9) 0.9092(8) 0.9279(5)
H94_7 H 0.677987 0.892485 0.934609
C136_7 C 0.6301(12) 0.9692(12) 0.8940(10)
H96_7 H 0.603914 0.961358 0.905293
H97_7 H 0.638216 0.996446 0.902948
H98_7 H 0.627142 0.969915 0.866975
C137_7 C 0.5550(7) 0.8674(9) 0.8483(6)
H99_7 H 0.572531 0.844804 0.843364
C139_7 C 0.7028(9) 0.9460(9) 0.8891(7)
H101_7 H 0.716250 0.920245 0.881978
H102_7 H 0.699403 0.963416 0.867228
H103_7 H 0.719821 0.960294 0.907476
C141_7 C 0.5233(10) 0.8501(10) 0.7917(8)
H105_7 H 0.518696 0.866884 0.769514
H106_7 H 0.548694 0.834315 0.788744
H107_7 H 0.500155 0.831255 0.795067
C146_5 C 0.3836(5) 0.7227(6) 0.9917(6)
C147_5 C 0.4110(7) 0.7516(5) 0.9779(7)
H111_5 H 0.401235 0.777515 0.969626
C148_5 C 0.4527(7) 0.7426(8) 0.9762(7)
H112_5 H 0.471396 0.762378 0.966708
C149_5 C 0.4670(5) 0.7047(9) 0.9882(7)
H113_5 H 0.495448 0.698537 0.987054
C150_7 C 0.5002(9) 0.9102(9) 0.8279(8)
H114_5 H 0.475656 0.907636 0.812446
H115_5 H 0.492172 0.911475 0.854078
H116_7 H 0.515023 0.935372 0.821266
O53_5 O 0.3348(4) 0.8930(4) 0.8823(3)
O56_5 O 0.2223(4) 0.6460(4) 0.9482(3)
O57_5 O 0.4105(4) 0.9174(4) 0.8684(3)
O58_5 O 0.8680(4) 0.4283(4) 0.9922(3)
O8_6 O 0.3846(4) 0.1786(4) 0.9957(3)
O12_8 O 0.3751(4) 0.2660(4) 0.9772(4)
O13_8 O 0.0639(5) 0.4002(5) 0.9980(4)
O22_8 O 0.4016(6) 0.3202(5) 0.9497(5)
C29_8 C 0.1910(6) 0.3187(6) 0.9691(4)
C41_8 C 0.2180(7) 0.2928(6) 0.9497(5)
H28_8 H 0.241864 0.284391 0.962774
C47_8 C 0.1555(7) 0.3323(8) 0.9479(5)
C49_8 C 0.1262(7) 0.3545(6) 0.9652(5)
H32_8 H 0.103904 0.364130 0.950614
C51_8 C 0.3389(6) 0.3300(6) 0.9813(6)
C52_8 C 0.3737(6) 0.3050(6) 0.9674(5)
C57_8 C 0.2142(9) 0.2783(7) 0.9147(7)
H37_8 H 0.232994 0.258671 0.905172
C60_8 C 0.1519(10) 0.3212(8) 0.9072(6)
H42_8 H 0.131006 0.332329 0.891801
C62_8 C 0.1819(9) 0.2928(10) 0.8932(7)
H46_8 H 0.179625 0.283604 0.868283
C69_8 C 0.3421(8) 0.3735(8) 0.9759(8)
H51_8 H 0.361543 0.385082 0.959342
C70_8 C 0.3242(6) 0.4396(6) 0.9979(7)
H52_8 H 0.350167 0.449338 0.989682
C71_8 C 0.3153(5) 0.3979(6) 0.9962(6)
La2_6 La 0.43688(3) 0.14578(3) 0.93963(3)
Zr3_6 Zr 0.61331(4) 0.13236(4) 0.90058(3)
O32_6 O 0.6370(3) 0.1661(4) 0.9408(3)
O34_6 O 0.6103(3) 0.1761(3) 0.8615(3)
O35_6 O 0.5506(4) 0.1530(4) 0.9071(3)
O36_6 O 0.7250(4) 0.2994(4) 0.9953(3)
O37_8 O 0.4901(3) 0.1800(5) 0.8997(3)
O40_6 O 0.6023(4) 0.0929(4) 0.9474(3)
O41_8 O 0.3758(5) 0.0998(4) 0.9424(4)
C99_6 C 0.6650(5) 0.2561(4) 0.7457(4)
N3_8 N 0.4734(7) 0.1249(7) 0.8221(6)
C100_6 C 0.6077(5) 0.1585(6) 0.7675(4)
H71_6 H 0.607634 0.158966 0.793848
O42_6 O 0.5078(4) 0.1450(4) 0.9730(3)
H72_6 H 0.507933 0.125813 0.989989
H73_6 H 0.511443 0.167573 0.985769
C101_6 C 0.6460(5) 0.2209(4) 0.6883(4)
H74_6 H 0.646571 0.219493 0.661990
O43_8 O 0.4471(5) 0.2235(4) 0.9538(4)
H75_8 H 0.422136 0.242264 0.949190
H76_8 H 0.451232 0.230254 0.981303
C102_6 C 0.5908(5) 0.1257(5) 0.7505(5)
H77_6 H 0.578743 0.104156 0.764444
C103_6 C 0.6472(5) 0.1630(5) 0.9782(4)
C104_6 C 0.6431(5) 0.2307(5) 0.8091(4)
H78_6 H 0.659700 0.255071 0.815983
H79_6 H 0.656277 0.206303 0.820301
N4_8 N 0.3363(6) 0.0627(6) 0.9048(5)
C105_6 C 0.6776(6) 0.2337(5) 0.9716(5)
H80_6 H 0.666754 0.230193 0.946098
H81_6 H 0.707580 0.238011 0.969775
C106_6 C 0.6641(5) 0.2541(5) 0.7057(4)
O44_8 O 0.4389(6) 0.1156(5) 0.8761(4)
C107_6 C 0.5888(5) 0.3033(5) 0.7931(5)
H82_6 H 0.616737 0.303805 0.785472
C108_6 C 0.6356(6) 0.1262(6) 0.9976(5)
C109_6 C 0.6257(4) 0.1925(4) 0.7485(4)
C110_6 C 0.5856(5) 0.2084(5) 0.8495(4)
O45_8 O 0.3839(5) 0.1836(6) 0.9020(3)
H83_8 H 0.392975 0.211135 0.892358
H84_8 H 0.358606 0.192755 0.916018
C111_6 C 0.5993(4) 0.2356(5) 0.8253(4)
C112_6 C 0.5269(4) 0.1797(5) 0.8928(4)
C113_6 C 0.5436(5) 0.2093(5) 0.8637(4)
C114_6 C 0.6269(5) 0.1892(5) 0.7083(4)
C115_6 C 0.6098(5) 0.1549(5) 0.6903(4)
H85_6 H 0.610985 0.152962 0.664080
C116_6 C 0.5625(7) 0.3357(6) 0.7846(5)
H86_6 H 0.572837 0.358230 0.770795
C117_6 C 0.6434(5) 0.2260(5) 0.7660(4)
C118_6 C 0.6580(6) 0.2711(6) 0.9889(7)
O47_8 O 0.4650(6) 0.0734(5) 0.9444(6)
H87_8 H 0.461926 0.054081 0.964921
H88_8 H 0.481116 0.058631 0.925921
C120_6 C 0.5190(5) 0.2400(6) 0.8513(4)
H89_8 H 0.490944 0.240480 0.858531
C121_6 C 0.5072(5) 0.3034(6) 0.8156(5)
H90_8 H 0.478787 0.302058 0.821600
C122_6 C 0.6856(5) 0.3035(6) 0.9997(6)
C123_6 C 0.5723(6) 0.2685(5) 0.8140(4)
O48_6 O 0.6748(6) 0.2896(6) 0.6495(5)
C124_6 C 0.6824(6) 0.2880(6) 0.6813(5)
C125_6 C 0.6690(5) 0.1943(5) 0.9941(4)
C126_6 C 0.6113(6) 0.0922(6) 0.9811(6)
C128_6 C 0.5341(5) 0.2708(5) 0.8280(4)
C129_6 C 0.5215(6) 0.3362(6) 0.7955(4)
H92_6 H 0.504062 0.358467 0.789304
C130_6 C 0.5915(7) 0.1242(6) 0.7102(6)
H93_6 H 0.579092 0.101800 0.697604
C132_8 C 0.3447(9) 0.0908(8) 0.9279(5)
H94_8 H 0.322013 0.107515 0.934609
C136_8 C 0.3699(12) 0.0308(12) 0.8940(10)
H96_8 H 0.396086 0.038642 0.905293
H97_8 H 0.361784 0.003554 0.902948
H98_8 H 0.372858 0.030085 0.866975
C137_8 C 0.4450(7) 0.1326(9) 0.8483(6)
H99_8 H 0.427469 0.155196 0.843364
C139_8 C 0.2972(9) 0.0540(9) 0.8891(7)
H101_8 H 0.283750 0.079755 0.881978
H102_8 H 0.300597 0.036584 0.867228
H103_8 H 0.280179 0.039706 0.907476
C141_8 C 0.4767(10) 0.1499(10) 0.7917(8)
H105_8 H 0.481304 0.133116 0.769514
H106_8 H 0.451306 0.165685 0.788744
H107_8 H 0.499845 0.168745 0.795067
C146_6 C 0.6164(5) 0.2773(6) 0.9917(6)
C147_6 C 0.5890(7) 0.2484(5) 0.9779(7)
H111_6 H 0.598765 0.222485 0.969626
C148_6 C 0.5473(7) 0.2574(8) 0.9762(7)
H112_6 H 0.528604 0.237622 0.966708
C149_6 C 0.5330(5) 0.2953(9) 0.9882(7)
H113_6 H 0.504552 0.301463 0.987054
C150_8 C 0.4998(9) 0.0898(9) 0.8279(8)
H114_6 H 0.524344 0.092364 0.812446
H115_6 H 0.507828 0.088525 0.854078
H116_8 H 0.484977 0.064628 0.821266
O53_6 O 0.6652(4) 0.1070(4) 0.8823(3)
O56_6 O 0.7777(4) 0.3540(4) 0.9482(3)
O57_6 O 0.5895(4) 0.0826(4) 0.8684(3)
O58_6 O 0.1320(4) 0.5717(4) 0.9922(3)
O9_7 O 0.0099(3) 0.3200(5) 0.3997(3)
O16_7 O 0.1242(5) 0.4002(4) 0.4424(4)
N1_7 N 0.0266(7) 0.3751(7) 0.3221(6)
O19_7 O 0.0529(5) 0.2765(4) 0.4538(4)
H5_7 H 0.077864 0.257736 0.449190
H6_7 H 0.048768 0.269746 0.481303
N2_7 N 0.1637(6) 0.4373(6) 0.4048(5)
O20_7 O 0.0611(6) 0.3844(5) 0.3761(4)
O21_7 O 0.1161(5) 0.3164(6) 0.4020(3)
H15_7 H 0.107025 0.288865 0.392358
H16_7 H 0.141394 0.307245 0.416018
O23_7 O 0.0350(6) 0.4266(5) 0.4444(6)
H20_7 H 0.038074 0.445919 0.464921
H21_7 H 0.018884 0.441369 0.425921
H23_7 H 0.009056 0.259520 0.358531
H25_7 H 0.021213 0.197942 0.321600
C48_7 C 0.1553(9) 0.4092(8) 0.4279(5)
H31_7 H 0.177987 0.392485 0.434609
C53_7 C 0.1301(12) 0.4692(12) 0.3940(10)
H33_7 H 0.103914 0.461358 0.405293
H34_7 H 0.138216 0.496446 0.402948
H35_7 H 0.127142 0.469915 0.366975
C56_7 C 0.0550(7) 0.3674(9) 0.3483(6)
H36_7 H 0.072531 0.344804 0.343364
C58_7 C 0.2028(9) 0.4460(9) 0.3891(7)
H38_7 H 0.216250 0.420245 0.381978
H39_7 H 0.199403 0.463416 0.367228
H40_7 H 0.219821 0.460294 0.407476
C61_7 C 0.0233(10) 0.3501(10) 0.2917(8)
H43_7 H 0.018696 0.366884 0.269514
H44_7 H 0.048694 0.334315 0.288744
H45_7 H 0.000155 0.331255 0.295067
C76_7 C 0.0002(9) 0.4102(9) 0.3279(8)
H58_7 H 0.015023 0.435372 0.321266
O32_7 O 0.6661(4) 0.8630(3) 0.5592(3)
O34_7 O 0.6761(3) 0.8897(3) 0.6385(3)
O35_7 O 0.6530(4) 0.9494(4) 0.5929(3)
O36_7 O 0.7994(4) 0.7750(4) 0.5047(3)
O38_7 O 0.8751(4) 0.7660(4) 0.4772(4)
O39_7 O 0.5639(5) 0.9002(5) 0.4980(4)
O40_7 O 0.5929(4) 0.8977(4) 0.5526(3)
C99_7 C 0.7561(4) 0.8350(5) 0.7543(4)
C100_7 C 0.6585(6) 0.8923(5) 0.7325(4)
H71_7 H 0.658966 0.892366 0.706152
O42_7 O 0.6450(4) 0.9922(4) 0.5270(3)
H72_7 H 0.625813 0.992067 0.510011
H73_7 H 0.667573 0.988557 0.514231
C101_7 C 0.7209(4) 0.8540(5) 0.8117(4)
H74_7 H 0.719493 0.853429 0.838010
C102_7 C 0.6257(5) 0.9092(5) 0.7495(5)
H77_7 H 0.604156 0.921257 0.735556
C103_7 C 0.6630(5) 0.8528(5) 0.5218(4)
C104_7 C 0.7307(5) 0.8569(5) 0.6909(4)
H78_7 H 0.755071 0.840300 0.684017
H79_7 H 0.706303 0.843723 0.679699
C105_7 C 0.7337(5) 0.8224(6) 0.5284(5)
H80_7 H 0.730193 0.833246 0.553902
H81_7 H 0.738011 0.792420 0.530225
C106_7 C 0.7541(5) 0.8359(5) 0.7943(4)
C107_7 C 0.8033(5) 0.9112(5) 0.7069(5)
H82_7 H 0.803805 0.883263 0.714528
C108_7 C 0.6262(6) 0.8644(6) 0.5024(5)
C109_7 C 0.6925(4) 0.8743(4) 0.7515(4)
C110_7 C 0.7084(5) 0.9144(5) 0.6505(4)
C111_7 C 0.7356(5) 0.9007(4) 0.6747(4)
O46_7 O 0.9016(6) 0.8202(5) 0.4497(5)
C112_7 C 0.6797(5) 0.9731(4) 0.6072(4)
C113_7 C 0.7093(5) 0.9564(5) 0.6363(4)
C114_7 C 0.6892(5) 0.8731(5) 0.7917(4)
C115_7 C 0.6549(5) 0.8902(5) 0.8097(4)
H85_7 H 0.652962 0.889015 0.835920
C116_7 C 0.8357(6) 0.9375(7) 0.7154(5)
H86_7 H 0.858230 0.927163 0.729205
C117_7 C 0.7260(5) 0.8566(5) 0.7340(4)
C118_7 C 0.7711(6) 0.8420(6) 0.5111(7)
C119_7 C 0.6910(6) 0.8187(6) 0.4691(4)
C120_7 C 0.7400(6) 0.9810(5) 0.6487(4)
C121_7 C 0.8034(6) 0.9928(5) 0.6844(5)
C122_7 C 0.8035(6) 0.8144(5) 0.5003(6)
C123_7 C 0.7685(5) 0.9277(6) 0.6860(4)
O48_7 O 0.7896(6) 0.8252(6) 0.8505(5)
C124_7 C 0.7880(6) 0.8176(6) 0.8187(5)
C125_7 C 0.6943(5) 0.8310(5) 0.5059(4)
C126_7 C 0.5922(6) 0.8887(6) 0.5189(6)
C127_7 C 0.7180(7) 0.7928(6) 0.4497(5)
H91_7 H 0.741864 0.784391 0.462774
C128_7 C 0.7708(5) 0.9659(5) 0.6720(4)
C129_7 C 0.8362(6) 0.9785(6) 0.7045(4)
H92_7 H 0.858467 0.995938 0.710696
C130_7 C 0.6242(6) 0.9085(7) 0.7898(6)
H93_7 H 0.601800 0.920908 0.802396
C131_7 C 0.6555(7) 0.8323(8) 0.4479(5)
C133_7 C 0.6262(7) 0.8545(6) 0.4652(5)
H95_7 H 0.603904 0.864130 0.450614
C134_7 C 0.8389(6) 0.8300(6) 0.4813(6)
C135_7 C 0.8737(6) 0.8050(6) 0.4674(5)
C138_7 C 0.7142(9) 0.7783(7) 0.4147(7)
H100_7 H 0.732994 0.758671 0.405172
C140_7 C 0.6519(10) 0.8212(8) 0.4072(6)
H104_7 H 0.631006 0.832329 0.391801
C142_7 C 0.6819(9) 0.7928(10) 0.3932(7)
H108_7 H 0.679625 0.783604 0.368283
C143_7 C 0.8421(8) 0.8735(8) 0.4759(8)
H109_7 H 0.861543 0.885082 0.459342
C144_7 C 0.8242(6) 0.9396(6) 0.4979(7)
H110_7 H 0.850167 0.949338 0.489682
C145_7 C 0.8153(5) 0.8979(6) 0.4962(6)
C146_7 C 0.7773(6) 0.8836(5) 0.5083(6)
C147_7 C 0.7484(5) 0.9110(7) 0.5221(7)
H111_7 H 0.722485 0.901235 0.530374
C148_7 C 0.7574(8) 0.9527(7) 0.5238(7)
H112_7 H 0.737622 0.971396 0.533292
C149_7 C 0.7953(9) 0.9670(5) 0.5118(7)
H113_7 H 0.801463 0.995448 0.512946
H114_7 H 0.592364 0.975656 0.687554
H115_7 H 0.588525 0.992172 0.645922
O32_8 O 0.3339(4) 0.1370(3) 0.5592(3)
O34_8 O 0.3239(3) 0.1103(3) 0.6385(3)
O35_8 O 0.3470(4) 0.0506(4) 0.5929(3)
O36_8 O 0.2006(4) 0.2250(4) 0.5047(3)
O38_8 O 0.1249(4) 0.2340(4) 0.4772(4)
O39_8 O 0.4361(5) 0.0998(5) 0.4980(4)
O40_8 O 0.4071(4) 0.1023(4) 0.5526(3)
C99_8 C 0.2439(4) 0.1650(5) 0.7543(4)
C100_8 C 0.3415(6) 0.1077(5) 0.7325(4)
H71_8 H 0.341034 0.107634 0.706152
O42_8 O 0.3550(4) 0.0078(4) 0.5270(3)
H72_8 H 0.374187 0.007933 0.510011
H73_8 H 0.332427 0.011443 0.514231
C101_8 C 0.2791(4) 0.1460(5) 0.8117(4)
H74_8 H 0.280507 0.146571 0.838010
C102_8 C 0.3743(5) 0.0908(5) 0.7495(5)
H77_8 H 0.395844 0.078743 0.735556
C103_8 C 0.3370(5) 0.1472(5) 0.5218(4)
C104_8 C 0.2693(5) 0.1431(5) 0.6909(4)
H78_8 H 0.244929 0.159700 0.684017
H79_8 H 0.293697 0.156277 0.679699
C105_8 C 0.2663(5) 0.1776(6) 0.5284(5)
H80_8 H 0.269807 0.166754 0.553902
H81_8 H 0.261989 0.207580 0.530225
C106_8 C 0.2459(5) 0.1641(5) 0.7943(4)
C107_8 C 0.1967(5) 0.0888(5) 0.7069(5)
H82_8 H 0.196195 0.116737 0.714528
C108_8 C 0.3738(6) 0.1356(6) 0.5024(5)
C109_8 C 0.3075(4) 0.1257(4) 0.7515(4)
C110_8 C 0.2916(5) 0.0856(5) 0.6505(4)
C111_8 C 0.2644(5) 0.0993(4) 0.6747(4)
O46_8 O 0.0984(6) 0.1798(5) 0.4497(5)
C112_8 C 0.3203(5) 0.0269(4) 0.6072(4)
C113_8 C 0.2907(5) 0.0436(5) 0.6363(4)
C114_8 C 0.3108(5) 0.1269(5) 0.7917(4)
C115_8 C 0.3451(5) 0.1098(5) 0.8097(4)
H85_8 H 0.347038 0.110985 0.835920
C116_8 C 0.1643(6) 0.0625(7) 0.7154(5)
H86_8 H 0.141770 0.072837 0.729205
C117_8 C 0.2740(5) 0.1434(5) 0.7340(4)
C118_8 C 0.2289(6) 0.1580(6) 0.5111(7)
C119_8 C 0.3090(6) 0.1813(6) 0.4691(4)
C120_8 C 0.2600(6) 0.0190(5) 0.6487(4)
C121_8 C 0.1966(6) 0.0072(5) 0.6844(5)
C122_8 C 0.1965(6) 0.1856(5) 0.5003(6)
C123_8 C 0.2315(5) 0.0723(6) 0.6860(4)
O48_8 O 0.2104(6) 0.1748(6) 0.8505(5)
C124_8 C 0.2120(6) 0.1824(6) 0.8187(5)
C125_8 C 0.3057(5) 0.1690(5) 0.5059(4)
C126_8 C 0.4078(6) 0.1113(6) 0.5189(6)
C127_8 C 0.2820(7) 0.2072(6) 0.4497(5)
H91_8 H 0.258136 0.215609 0.462774
C128_8 C 0.2292(5) 0.0341(5) 0.6720(4)
C129_8 C 0.1638(6) 0.0215(6) 0.7045(4)
H92_8 H 0.141533 0.004062 0.710696
C130_8 C 0.3758(6) 0.0915(7) 0.7898(6)
H93_8 H 0.398200 0.079092 0.802396
C131_8 C 0.3445(7) 0.1677(8) 0.4479(5)
C133_8 C 0.3738(7) 0.1455(6) 0.4652(5)
H95_8 H 0.396096 0.135870 0.450614
C134_8 C 0.1611(6) 0.1700(6) 0.4813(6)
C135_8 C 0.1263(6) 0.1950(6) 0.4674(5)
C138_8 C 0.2858(9) 0.2217(7) 0.4147(7)
H100_8 H 0.267006 0.241329 0.405172
C140_8 C 0.3481(10) 0.1788(8) 0.4072(6)
H104_8 H 0.368994 0.167671 0.391801
C142_8 C 0.3181(9) 0.2072(10) 0.3932(7)
H108_8 H 0.320375 0.216396 0.368283
C143_8 C 0.1579(8) 0.1265(8) 0.4759(8)
H109_8 H 0.138457 0.114918 0.459342
C144_8 C 0.1758(6) 0.0604(6) 0.4979(7)
H110_8 H 0.149833 0.050662 0.489682
C145_8 C 0.1847(5) 0.1021(6) 0.4962(6)
C146_8 C 0.2227(6) 0.1164(5) 0.5083(6)
C147_8 C 0.2516(5) 0.0890(7) 0.5221(7)
H111_8 H 0.277515 0.098765 0.530374
C148_8 C 0.2426(8) 0.0473(7) 0.5238(7)
H112_8 H 0.262378 0.028604 0.533292
C149_8 C 0.2047(9) 0.0330(5) 0.5118(7)
H113_8 H 0.198537 0.004552 0.512946
H114_8 H 0.407636 0.024344 0.687554
H115_8 H 0.411475 0.007828 0.645922
O9_8 O 0.9901(3) 0.6800(5) 0.3997(3)
O16_8 O 0.8758(5) 0.5998(4) 0.4424(4)
N1_8 N 0.9734(7) 0.6249(7) 0.3221(6)
O19_8 O 0.9471(5) 0.7235(4) 0.4538(4)
H5_8 H 0.922136 0.742264 0.449190
H6_8 H 0.951232 0.730254 0.481303
N2_8 N 0.8363(6) 0.5627(6) 0.4048(5)
O20_8 O 0.9389(6) 0.6156(5) 0.3761(4)
O21_8 O 0.8839(5) 0.6836(6) 0.4020(3)
H15_8 H 0.892975 0.711135 0.392358
H16_8 H 0.858606 0.692755 0.416018
O23_8 O 0.9650(6) 0.5734(5) 0.4444(6)
H20_8 H 0.961926 0.554081 0.464921
H21_8 H 0.981116 0.558631 0.425921
H23_8 H 0.990944 0.740480 0.358531
H25_8 H 0.978787 0.802058 0.321600
C48_8 C 0.8447(9) 0.5908(8) 0.4279(5)
H31_8 H 0.822013 0.607515 0.434609
C53_8 C 0.8699(12) 0.5308(12) 0.3940(10)
H33_8 H 0.896086 0.538642 0.405293
H34_8 H 0.861784 0.503554 0.402948
H35_8 H 0.872858 0.530085 0.366975
C56_8 C 0.9450(7) 0.6326(9) 0.3483(6)
H36_8 H 0.927469 0.655196 0.343364
C58_8 C 0.7972(9) 0.5540(9) 0.3891(7)
H38_8 H 0.783750 0.579755 0.381978
H39_8 H 0.800597 0.536584 0.367228
H40_8 H 0.780179 0.539706 0.407476
C61_8 C 0.9767(10) 0.6499(10) 0.2917(8)
H43_8 H 0.981304 0.633116 0.269514
H44_8 H 0.951306 0.665685 0.288744
H45_8 H 0.999845 0.668745 0.295067
C76_8 C 0.9998(9) 0.5898(9) 0.3279(8)
H58_8 H 0.984977 0.564628 0.321266
C1_7 C 0.2197(5) 0.9252(5) 0.8973(4)
O17_7 O 0.0798(4) 0.9700(5) 0.9194(4)
C3_7 C 0.1481(5) 0.9469(5) 0.9117(4)
C8_7 C 0.1622(6) 0.9751(6) 0.9354(4)
H8_7 H 0.143051 0.992315 0.947748
C9_7 C 0.2771(6) 0.9590(6) 0.9345(4)
H9_7 H 0.298099 0.942372 0.923972
C10_7 C 0.1793(5) 0.9208(5) 0.8924(4)
C27_7 C 0.250000 0.9001(7) 0.875000
H22_7 H 0.234500 0.882144 0.857841
C28_7 C 0.2033(6) 0.9803(4) 0.9426(4)
C31_7 C 0.2342(6) 0.9540(6) 0.9246(5)
C35_7 C 0.250000 0.6408(8) 0.875000
H26_7 H 0.259183 0.658843 0.895485
C37_7 C 0.2853(8) 0.9887(6) 0.9596(5)
H27_7 H 0.313451 0.990665 0.966380
C42_7 C 0.3395(6) 0.5955(5) 0.7692(5)
C45_7 C 0.2978(7) 0.6204(6) 0.8235(5)
C50_7 C 0.1046(6) 0.9448(5) 0.9041(5)
C54_7 C 0.3304(7) 0.5939(6) 0.8092(5)
C55_7 C 0.2873(7) 0.6161(6) 0.8614(4)
C59_7 C 0.3503(9) 0.5685(8) 0.8330(6)
H41_7 H 0.372058 0.552102 0.823552
C63_7 C 0.3509(7) 0.5330(6) 0.9302(5)
H47_7 H 0.364714 0.513439 0.945284
C64_7 C 0.3608(6) 0.5365(6) 0.8929(5)
H48_7 H 0.381381 0.519382 0.882423
C65_7 C 0.3407(7) 0.5652(6) 0.8709(4)
C66_7 C 0.3106(6) 0.5903(5) 0.8862(4)
C67_7 C 0.3007(6) 0.5868(5) 0.9235(5)
H49_7 H 0.280191 0.603916 0.933991
C68_7 C 0.3209(7) 0.5581(7) 0.9455(4)
H50_7 H 0.314118 0.555707 0.971068
H59_7 H 0.265500 0.882144 0.892159
H60_7 H 0.240817 0.658843 0.854515
C77_7 C 0.2803(5) 0.9252(5) 0.8527(4)
O27_7 O 0.4202(4) 0.9700(5) 0.8306(4)
C78_7 C 0.3519(5) 0.9469(5) 0.8383(4)
C79_7 C 0.3378(6) 0.9751(6) 0.8146(4)
H61_7 H 0.356949 0.992315 0.802252
C80_7 C 0.2229(6) 0.9590(6) 0.8155(4)
H62_7 H 0.201901 0.942372 0.826028
C81_7 C 0.3207(5) 0.9208(5) 0.8576(4)
C83_7 C 0.2967(6) 0.9803(4) 0.8074(4)
C84_7 C 0.2658(6) 0.9540(6) 0.8254(5)
C86_7 C 0.2147(8) 0.9887(6) 0.7904(5)
H65_7 H 0.186549 0.990665 0.783620
C87_7 C 0.3954(6) 0.9448(5) 0.8459(5)
C88_7 C 0.1605(6) 0.5955(5) 0.9808(5)
C89_7 C 0.2022(7) 0.6204(6) 0.9265(5)
C90_7 C 0.1696(7) 0.5939(6) 0.9408(5)
C91_7 C 0.2127(7) 0.6161(6) 0.8886(4)
C92_7 C 0.1497(9) 0.5685(8) 0.9170(6)
H66_7 H 0.127942 0.552102 0.926448
C93_7 C 0.1491(7) 0.5330(6) 0.8198(5)
H67_7 H 0.135286 0.513439 0.804716
C94_7 C 0.1392(6) 0.5365(6) 0.8571(5)
H68_7 H 0.118619 0.519382 0.867577
C95_7 C 0.1593(7) 0.5652(6) 0.8791(4)
C96_7 C 0.1894(6) 0.5903(5) 0.8638(4)
C97_7 C 0.1993(6) 0.5868(5) 0.8265(5)
H69_7 H 0.219809 0.603916 0.816009
C98_7 C 0.1791(7) 0.5581(7) 0.8045(4)
H70_7 H 0.185882 0.555707 0.778932
C1_8 C 0.7803(5) 0.0748(5) 0.8973(4)
O17_8 O 0.9202(4) 0.0300(5) 0.9194(4)
C3_8 C 0.8519(5) 0.0531(5) 0.9117(4)
C8_8 C 0.8378(6) 0.0249(6) 0.9354(4)
H8_8 H 0.856949 0.007685 0.947748
C9_8 C 0.7229(6) 0.0410(6) 0.9345(4)
H9_8 H 0.701901 0.057628 0.923972
C10_8 C 0.8207(5) 0.0792(5) 0.8924(4)
C27_8 C 0.750000 0.0999(7) 0.875000
H22_8 H 0.765500 0.117856 0.857841
C28_8 C 0.7967(6) 0.0197(4) 0.9426(4)
C31_8 C 0.7658(6) 0.0460(6) 0.9246(5)
C35_8 C 0.750000 0.3592(8) 0.875000
H26_8 H 0.740817 0.341157 0.895485
C37_8 C 0.7147(8) 0.0113(6) 0.9596(5)
H27_8 H 0.686549 0.009335 0.966380
C42_8 C 0.6605(6) 0.4045(5) 0.7692(5)
C45_8 C 0.7022(7) 0.3796(6) 0.8235(5)
C50_8 C 0.8954(6) 0.0552(5) 0.9041(5)
C54_8 C 0.6696(7) 0.4061(6) 0.8092(5)
C55_8 C 0.7127(7) 0.3839(6) 0.8614(4)
C59_8 C 0.6497(9) 0.4315(8) 0.8330(6)
H41_8 H 0.627942 0.447898 0.823552
C63_8 C 0.6491(7) 0.4670(6) 0.9302(5)
H47_8 H 0.635286 0.486561 0.945284
C64_8 C 0.6392(6) 0.4635(6) 0.8929(5)
H48_8 H 0.618619 0.480618 0.882423
C65_8 C 0.6593(7) 0.4348(6) 0.8709(4)
C66_8 C 0.6894(6) 0.4097(5) 0.8862(4)
C67_8 C 0.6993(6) 0.4132(5) 0.9235(5)
H49_8 H 0.719809 0.396084 0.933991
C68_8 C 0.6791(7) 0.4419(7) 0.9455(4)
H50_8 H 0.685882 0.444293 0.971068
H59_8 H 0.734500 0.117856 0.892159
H60_8 H 0.759183 0.341157 0.854515
C77_8 C 0.7197(5) 0.0748(5) 0.8527(4)
O27_8 O 0.5798(4) 0.0300(5) 0.8306(4)
C78_8 C 0.6481(5) 0.0531(5) 0.8383(4)
C79_8 C 0.6622(6) 0.0249(6) 0.8146(4)
H61_8 H 0.643051 0.007685 0.802252
C80_8 C 0.7771(6) 0.0410(6) 0.8155(4)
H62_8 H 0.798099 0.057628 0.826028
C81_8 C 0.6793(5) 0.0792(5) 0.8576(4)
C83_8 C 0.7033(6) 0.0197(4) 0.8074(4)
C84_8 C 0.7342(6) 0.0460(6) 0.8254(5)
C86_8 C 0.7853(8) 0.0113(6) 0.7904(5)
H65_8 H 0.813451 0.009335 0.783620
C87_8 C 0.6046(6) 0.0552(5) 0.8459(5)
C88_8 C 0.8395(6) 0.4045(5) 0.9808(5)
C89_8 C 0.7978(7) 0.3796(6) 0.9265(5)
C90_8 C 0.8304(7) 0.4061(6) 0.9408(5)
C91_8 C 0.7873(7) 0.3839(6) 0.8886(4)
C92_8 C 0.8503(9) 0.4315(8) 0.9170(6)
H66_8 H 0.872058 0.447898 0.926448
C93_8 C 0.8509(7) 0.4670(6) 0.8198(5)
H67_8 H 0.864714 0.486561 0.804716
C94_8 C 0.8608(6) 0.4635(6) 0.8571(5)
H68_8 H 0.881381 0.480618 0.867577
C95_8 C 0.8407(7) 0.4348(6) 0.8791(4)
C96_8 C 0.8106(6) 0.4097(5) 0.8638(4)
C97_8 C 0.8007(6) 0.4132(5) 0.8265(5)
H69_8 H 0.780191 0.396084 0.816009
C98_8 C 0.8209(7) 0.4419(7) 0.8045(4)
H70_8 H 0.814118 0.444293 0.778932
C24_5 C 0.0134(6) 0.7179(7) 0.2180(4)
H19_5 H 0.032578 0.699273 0.228505
C32_5 C 0.0150(7) 0.7617(7) 0.2260(4)
H24_5 H 0.034783 0.772609 0.242723
C82_5 C 0.0134(6) 0.7821(7) 0.0320(4)
H63_5 H 0.032578 0.800727 0.021495
C85_5 C 0.0150(7) 0.7383(7) 0.0240(4)
H64_5 H 0.034783 0.727391 0.007277
C24_6 C 0.9866(6) 0.2821(7) 0.2180(4)
H19_6 H 0.967422 0.300727 0.228505
C32_6 C 0.9850(7) 0.2383(7) 0.2260(4)
H24_6 H 0.965217 0.227391 0.242723
C82_6 C 0.9866(6) 0.2179(7) 0.0320(4)
H63_6 H 0.967422 0.199273 0.021495
C85_6 C 0.9850(7) 0.2617(7) 0.0240(4)
H64_6 H 0.965217 0.272609 0.007277
C24_7 C 0.2179(7) 0.0134(6) 0.9680(4)
H19_7 H 0.199273 0.032578 0.978505
C32_7 C 0.2617(7) 0.0150(7) 0.9760(4)
H24_7 H 0.272609 0.034783 0.992723
C82_7 C 0.2821(7) 0.0134(6) 0.7820(4)
H63_7 H 0.300727 0.032578 0.771495
C85_7 C 0.2383(7) 0.0150(7) 0.7740(4)
H64_7 H 0.227391 0.034783 0.757277
C24_8 C 0.7821(7) 0.9866(6) 0.9680(4)
H19_8 H 0.800727 0.967422 0.978505
C32_8 C 0.7383(7) 0.9850(7) 0.9760(4)
H24_8 H 0.727391 0.965217 0.992723
C82_8 C 0.7179(7) 0.9866(6) 0.7820(4)
H63_8 H 0.699273 0.967422 0.771495
C85_8 C 0.7617(7) 0.9850(7) 0.7740(4)
H64_8 H 0.772609 0.965217 0.757277
loop_
_geom_bond_atom_site_label_1
_geom_bond_atom_site_label_2
_geom_bond_site_symmetry_1
_geom_bond_site_symmetry_2
O31 C124 1_555 1_555
C99 C106 1_555 1_555
C101 H74 1_555 1_555
C106 C101 1_555 1_555
C114 C101 1_555 1_555
C115 C114 1_555 1_555
H85 C115 1_555 1_555
O48 C124 1_555 1_555
C124 C106 1_555 1_555
H93 C130 1_555 1_555
C109 C114 1_555 1_555
C115 C130 1_555 1_555
O31_2 C124_2 1_555 1_555
C99_2 C106_2 1_555 1_555
C101_2 H74_2 1_555 1_555
C106_2 C101_2 1_555 1_555
C114_2 C101_2 1_555 1_555
C115_2 C114_2 1_555 1_555
H85_2 C115_2 1_555 1_555
O48_2 C124_2 1_555 1_555
C124_2 C106_2 1_555 1_555
H93_2 C130_2 1_555 1_555
C109_2 C114_2 1_555 1_555
C115_2 C130_2 1_555 1_555
La1 O9 1_555 1_555
Zr1 O2 1_555 1_555
Zr2 O7 1_555 1_555
O1 C38 1_555 1_555
O2 C7 1_555 1_555
O3 C2 1_555 1_555
O4 Zr1 1_555 1_555
O5 Zr1 1_555 1_555
O6 Zr1 1_555 1_555
O7 C34 1_555 1_555
O8 Zr2 1_555 1_555
O9 C19 1_555 1_555
O10 Zr2 1_555 1_555
O11 Zr1 1_555 1_555
O12 Zr2 1_555 1_555
O13 C40 1_555 1_555
O14 C42 1_555 1_555
O15 Zr1 1_555 1_555
O16 La1 1_555 1_555
C1 C10 1_555 1_555
O17 C50 1_555 1_555
C2 C13 1_555 1_555
N1 C56 1_555 1_555
C3 C8 1_555 1_555
C4 H1 1_555 1_555
O18 La1 1_555 1_555
H2 O18 1_555 1_555
H3 O18 1_555 1_555
C5 H4 1_555 1_555
O19 La1 1_555 1_555
H5 O19 1_555 1_555
H6 O19 1_555 1_555
C6 C4 1_555 1_555
H7 C6 1_555 1_555
C7 C15 1_555 1_555
C8 H8 1_555 1_555
C9 H9 1_555 1_555
C10 O4 1_555 1_555
C11 H10 1_555 1_555
H11 C11 1_555 1_555
N2 C48 1_555 1_555
C12 H12 1_555 1_555
H13 C12 1_555 1_555
C13 C5 1_555 1_555
O20 La1 1_555 1_555
C14 H14 1_555 1_555
C15 C40 1_555 1_555
C16 C4 1_555 1_555
C17 O5 1_555 1_555
O21 La1 1_555 1_555
H15 O21 1_555 1_555
H16 O21 1_555 1_555
C18 C11 1_555 1_555
O22 C52 1_555 1_555
C19 O6 1_555 1_555
C20 C17 1_555 1_555
C21 C5 1_555 1_555
C22 C21 1_555 1_555
H17 C22 1_555 1_555
C23 C14 1_555 1_555
H18 C23 1_555 1_555
C24 H19 1_555 1_555
C25 C2 1_555 1_555
C26 C12 1_555 1_555
O23 La1 1_555 1_555
H20 O23 1_555 1_555
H21 O23 1_555 1_555
C27 C1 1_555 1_555
H22 C27 1_555 1_555
C28 C8 1_555 1_555
C29 C39 1_555 1_555
C30 C20 1_555 1_555
H23 C30 1_555 1_555
C31 C1 1_555 1_555
C32 C24 1_555 1_555
H24 C32 1_555 1_555
C33 H25 1_555 1_555
C34 C26 1_555 1_555
C35 H26 1_555 1_555
C36 C14 1_555 1_555
C37 C9 1_555 1_555
H27 C37 1_555 1_555
O24 C38 1_555 1_555
C38 C13 1_555 1_555
C39 C7 1_555 1_555
C40 O15 1_555 1_555
C41 C29 1_555 1_555
H28 C41 1_555 1_555
C42 O8 1_555 1_555
C43 C30 1_555 1_555
C44 C23 1_555 1_555
H29 C44 1_555 1_555
C45 O10 1_555 1_555
C46 C6 1_555 1_555
H30 C46 1_555 1_555
C47 C29 1_555 1_555
C48 O16 1_555 1_555
H31 C48 1_555 1_555
C49 C15 1_555 1_555
H32 C49 1_555 1_555
C50 O11 1_555 1_555
C51 C34 1_555 1_555
C52 O12 1_555 1_555
C53 N2 1_555 1_555
H33 C53 1_555 1_555
H34 C53 1_555 1_555
H35 C53 1_555 1_555
C54 C42 1_555 1_555
C55 C35 1_555 1_555
C56 O20 1_555 1_555
H36 C56 1_555 1_555
C57 C41 1_555 1_555
H37 C57 1_555 1_555
C58 N2 1_555 1_555
H38 C58 1_555 1_555
H39 C58 1_555 1_555
H40 C58 1_555 1_555
C59 C54 1_555 1_555
H41 C59 1_555 1_555
C60 C47 1_555 1_555
H42 C60 1_555 1_555
C61 N1 1_555 1_555
H43 C61 1_555 1_555
H44 C61 1_555 1_555
H45 C61 1_555 1_555
C62 C57 1_555 1_555
H46 C62 1_555 1_555
C63 H47 1_555 1_555
C64 C63 1_555 1_555
H48 C64 1_555 1_555
C65 C59 1_555 1_555
C66 C55 1_555 1_555
C67 C66 1_555 1_555
H49 C67 1_555 1_555
C68 C63 1_555 1_555
H50 C68 1_555 1_555
C69 C51 1_555 1_555
H51 C69 1_555 1_555
C70 H52 1_555 1_555
C71 C69 1_555 1_555
C72 C26 1_555 1_555
C73 C72 1_555 1_555
H53 C73 1_555 1_555
C74 C73 1_555 1_555
H54 C74 1_555 1_555
C75 C70 1_555 1_555
H55 C75 1_555 1_555
C76 N1 1_555 1_555
H56 C76 1_555 1_555
H57 C76 1_555 1_555
H58 C76 1_555 1_555
H59 C27 1_555 1_555
H60 C35 1_555 1_555
O25 C81 1_555 1_555
O26 C87 1_555 1_555
C77 C27 1_555 1_555
O27 C87 1_555 1_555
C78 C79 1_555 1_555
C79 H61 1_555 1_555
C80 H62 1_555 1_555
C81 C77 1_555 1_555
C82 H63 1_555 1_555
C83 C79 1_555 1_555
C84 C77 1_555 1_555
C85 C82 1_555 1_555
H64 C85 1_555 1_555
C86 C80 1_555 1_555
H65 C86 1_555 1_555
C87 C78 1_555 1_555
O28 C88 1_555 1_555
O29 C89 1_555 1_555
O30 C88 1_555 1_555
C88 C90 1_555 1_555
C89 C90 1_555 1_555
C90 C92 1_555 1_555
C91 C35 1_555 1_555
C92 H66 1_555 1_555
C93 H67 1_555 1_555
C94 C93 1_555 1_555
H68 C94 1_555 1_555
C95 C92 1_555 1_555
C96 C91 1_555 1_555
C97 C96 1_555 1_555
H69 C97 1_555 1_555
C98 C93 1_555 1_555
H70 C98 1_555 1_555
La2 O8 1_555 1_555
O37 La2 1_555 1_555
O41 La2 1_555 1_555
N3 C137 1_555 1_555
O43 La2 1_555 1_555
H75 O43 1_555 1_555
H76 O43 1_555 1_555
N4 C132 1_555 1_555
O44 La2 1_555 1_555
O45 La2 1_555 1_555
H83 O45 1_555 1_555
H84 O45 1_555 1_555
O47 La2 1_555 1_555
H87 O47 1_555 1_555
H88 O47 1_555 1_555
C132 O41 1_555 1_555
H94 C132 1_555 1_555
C136 N4 1_555 1_555
H96 C136 1_555 1_555
H97 C136 1_555 1_555
H98 C136 1_555 1_555
C137 O44 1_555 1_555
H99 C137 1_555 1_555
C139 N4 1_555 1_555
H101 C139 1_555 1_555
H102 C139 1_555 1_555
H103 C139 1_555 1_555
C141 N3 1_555 1_555
H105 C141 1_555 1_555
H106 C141 1_555 1_555
H107 C141 1_555 1_555
C150 N3 1_555 1_555
H116 C150 1_555 1_555
La3 O28 1_555 1_555
Zr5 O25 1_555 1_555
Zr6 O1 1_555 1_555
O49 Zr2 1_555 1_555
O51 Zr2 1_555 1_555
O55 La1 1_555 1_555
O58 La1 1_555 1_555
O3 Zr6 1_555 1_555
O14 La2 1_555 1_555
C3 C10 1_555 1_555
C3 C50 1_555 1_555
C9 C31 1_555 1_555
C11 C25 1_555 1_555
C12 C39 1_555 1_555
C16 C21 1_555 1_555
C16 C25 1_555 1_555
C17 C18 1_555 1_555
C18 C36 1_555 1_555
C19 C20 1_555 1_555
C22 C46 1_555 1_555
C24 C28 1_555 1_555
C28 C31 1_555 1_555
C32 C37 1_555 1_555
C33 C43 1_555 1_555
C33 C44 1_555 1_555
C36 C43 1_555 1_555
C45 C54 1_555 1_555
C45 C55 1_555 1_555
C47 C49 1_555 1_555
C51 C52 1_555 1_555
C60 C62 1_555 1_555
C64 C65 1_555 1_555
C65 C66 1_555 1_555
C67 C68 1_555 1_555
C70 C71 1_555 1_555
C71 C72 1_555 1_555
C74 C75 1_555 1_555
O26 Zr5 1_555 1_555
C78 C81 1_555 1_555
C80 C84 1_555 1_555
C82 C83 1_555 1_555
C83 C84 1_555 1_555
C85 C86 1_555 1_555
O28 Zr6 1_555 1_555
O29 Zr6 1_555 1_555
O30 La3 1_555 1_555
C89 C91 1_555 1_555
C94 C95 1_555 1_555
C95 C96 1_555 1_555
C97 C98 1_555 1_555
Zr3 O32 1_555 1_555
Zr4 O36 1_555 1_555
O32 C103 1_555 1_555
O34 Zr3 1_555 1_555
O35 Zr3 1_555 1_555
O36 C122 1_555 1_555
O38 Zr4 1_555 1_555
O39 C126 1_555 1_555
O40 Zr3 1_555 1_555
C100 H71 1_555 1_555
H72 O42 1_555 1_555
H73 O42 1_555 1_555
C102 C100 1_555 1_555
H77 C102 1_555 1_555
C103 C108 1_555 1_555
C104 H78 1_555 1_555
H79 C104 1_555 1_555
C105 H80 1_555 1_555
H81 C105 1_555 1_555
C107 H82 1_555 1_555
C108 C126 1_555 1_555
C110 O34 1_555 1_555
C111 C104 1_555 1_555
O46 C135 1_555 1_555
C112 O35 1_555 1_555
C113 C110 1_555 1_555
C116 C107 1_555 1_555
H86 C116 1_555 1_555
C118 C105 1_555 1_555
C119 C125 1_555 1_555
C120 C113 1_555 1_555
C122 C118 1_555 1_555
C123 C107 1_555 1_555
C125 C103 1_555 1_555
C126 O40 1_555 1_555
C127 C119 1_555 1_555
H91 C127 1_555 1_555
C128 C120 1_555 1_555
C129 C116 1_555 1_555
H92 C129 1_555 1_555
C131 C119 1_555 1_555
C133 C108 1_555 1_555
H95 C133 1_555 1_555
C134 C122 1_555 1_555
C135 O38 1_555 1_555
C138 C127 1_555 1_555
H100 C138 1_555 1_555
C140 C131 1_555 1_555
H104 C140 1_555 1_555
C142 C138 1_555 1_555
H108 C142 1_555 1_555
C143 C134 1_555 1_555
H109 C143 1_555 1_555
C144 H110 1_555 1_555
C145 C143 1_555 1_555
C146 C118 1_555 1_555
C147 C146 1_555 1_555
H111 C147 1_555 1_555
C148 C147 1_555 1_555
H112 C148 1_555 1_555
C149 C144 1_555 1_555
H113 C149 1_555 1_555
O50 Zr4 1_555 1_555
O52 Zr4 1_555 1_555
O53 Zr3 1_555 1_555
O54 Zr4 1_555 1_555
O56 Zr4 1_555 1_555
O57 Zr3 1_555 1_555
O33 Zr7 1_555 1_555
C104 C117 1_555 1_555
C105 C125 1_555 1_555
C110 C111 1_555 1_555
C111 C123 1_555 1_555
C112 C113 1_555 1_555
C121 C128 1_555 1_555
C121 C129 1_555 1_555
C123 C128 1_555 1_555
C131 C133 1_555 1_555
C134 C135 1_555 1_555
C140 C142 1_555 1_555
C144 C145 1_555 1_555
C145 C146 1_555 1_555
C148 C149 1_555 1_555
Zr3_2 O32_2 1_555 1_555
Zr4_2 O36_2 1_555 1_555
O32_2 C103_2 1_555 1_555
O34_2 Zr3_2 1_555 1_555
O35_2 Zr3_2 1_555 1_555
O36_2 C122_2 1_555 1_555
O38_2 Zr4_2 1_555 1_555
O39_2 C126_2 1_555 1_555
O40_2 Zr3_2 1_555 1_555
C100_2 H71_2 1_555 1_555
H72_2 O42_2 1_555 1_555
H73_2 O42_2 1_555 1_555
C102_2 C100_2 1_555 1_555
H77_2 C102_2 1_555 1_555
C103_2 C108_2 1_555 1_555
C104_2 H78_2 1_555 1_555
H79_2 C104_2 1_555 1_555
C105_2 H80_2 1_555 1_555
H81_2 C105_2 1_555 1_555
C107_2 H82_2 1_555 1_555
C108_2 C126_2 1_555 1_555
C110_2 O34_2 1_555 1_555
C111_2 C104_2 1_555 1_555
O46_2 C135_2 1_555 1_555
C112_2 O35_2 1_555 1_555
C113_2 C110_2 1_555 1_555
C116_2 C107_2 1_555 1_555
H86_2 C116_2 1_555 1_555
C118_2 C105_2 1_555 1_555
C119_2 C125_2 1_555 1_555
C120_2 C113_2 1_555 1_555
C122_2 C118_2 1_555 1_555
C123_2 C107_2 1_555 1_555
C125_2 C103_2 1_555 1_555
C126_2 O40_2 1_555 1_555
C127_2 C119_2 1_555 1_555
H91_2 C127_2 1_555 1_555
C128_2 C120_2 1_555 1_555
C129_2 C116_2 1_555 1_555
H92_2 C129_2 1_555 1_555
C131_2 C119_2 1_555 1_555
C133_2 C108_2 1_555 1_555
H95_2 C133_2 1_555 1_555
C134_2 C122_2 1_555 1_555
C135_2 O38_2 1_555 1_555
C138_2 C127_2 1_555 1_555
H100_2 C138_2 1_555 1_555
C140_2 C131_2 1_555 1_555
H104_2 C140_2 1_555 1_555
C142_2 C138_2 1_555 1_555
H108_2 C142_2 1_555 1_555
C143_2 C134_2 1_555 1_555
H109_2 C143_2 1_555 1_555
C144_2 H110_2 1_555 1_555
C145_2 C143_2 1_555 1_555
C146_2 C118_2 1_555 1_555
C147_2 C146_2 1_555 1_555
H111_2 C147_2 1_555 1_555
C148_2 C147_2 1_555 1_555
H112_2 C148_2 1_555 1_555
C149_2 C144_2 1_555 1_555
H113_2 C149_2 1_555 1_555
O50_2 Zr4_2 1_555 1_555
O52_2 Zr4_2 1_555 1_555
O53_2 Zr3_2 1_555 1_555
O55 Zr4_2 1_555 1_555
O56_2 Zr4_2 1_555 1_555
O57_2 Zr3_2 1_555 1_555
O33_2 Zr7_2 1_555 1_555
C104_2 C117_2 1_555 1_555
C105_2 C125_2 1_555 1_555
C110_2 C111_2 1_555 1_555
C111_2 C123_2 1_555 1_555
C112_2 C113_2 1_555 1_555
C121_2 C128_2 1_555 1_555
C121_2 C129_2 1_555 1_555
C123_2 C128_2 1_555 1_555
C131_2 C133_2 1_555 1_555
C134_2 C135_2 1_555 1_555
C140_2 C142_2 1_555 1_555
C144_2 C145_2 1_555 1_555
C145_2 C146_2 1_555 1_555
C148_2 C149_2 1_555 1_555
La1_2 O9_2 1_555 1_555
Zr1_2 O2_2 1_555 1_555
Zr2_2 O7_2 1_555 1_555
O1_2 C38_2 1_555 1_555
O2_2 C7_2 1_555 1_555
O3_2 C2_2 1_555 1_555
O4_2 Zr1_2 1_555 1_555
O5_2 Zr1_2 1_555 1_555
O6_2 Zr1_2 1_555 1_555
O7_2 C34_2 1_555 1_555
O8_2 Zr2_2 1_555 1_555
O9_2 C19_2 1_555 1_555
O10_2 Zr2_2 1_555 1_555
O11_2 Zr1_2 1_555 1_555
O12_2 Zr2_2 1_555 1_555
O13_2 C40_2 1_555 1_555
O14_2 C42_2 1_555 1_555
O15_2 Zr1_2 1_555 1_555
O16_2 La1_2 1_555 1_555
C1_2 C10_2 1_555 1_555
O17_2 C50_2 1_555 1_555
C2_2 C13_2 1_555 1_555
N1_2 C56_2 1_555 1_555
C3_2 C8_2 1_555 1_555
C4_2 H1_2 1_555 1_555
O18_2 La1_2 1_555 1_555
H2_2 O18_2 1_555 1_555
H3_2 O18_2 1_555 1_555
C5_2 H4_2 1_555 1_555
O19_2 La1_2 1_555 1_555
H5_2 O19_2 1_555 1_555
H6_2 O19_2 1_555 1_555
C6_2 C4_2 1_555 1_555
H7_2 C6_2 1_555 1_555
C7_2 C15_2 1_555 1_555
C8_2 H8_2 1_555 1_555
C9_2 H9_2 1_555 1_555
C10_2 O4_2 1_555 1_555
C11_2 H10_2 1_555 1_555
H11_2 C11_2 1_555 1_555
N2_2 C48_2 1_555 1_555
C12_2 H12_2 1_555 1_555
H13_2 C12_2 1_555 1_555
C13_2 C5_2 1_555 1_555
O20_2 La1_2 1_555 1_555
C14_2 H14_2 1_555 1_555
C15_2 C40_2 1_555 1_555
C16_2 C4_2 1_555 1_555
C17_2 O5_2 1_555 1_555
O21_2 La1_2 1_555 1_555
H15_2 O21_2 1_555 1_555
H16_2 O21_2 1_555 1_555
C18_2 C11_2 1_555 1_555
O22_2 C52_2 1_555 1_555
C19_2 O6_2 1_555 1_555
C20_2 C17_2 1_555 1_555
C21_2 C5_2 1_555 1_555
C22_2 C21_2 1_555 1_555
H17_2 C22_2 1_555 1_555
C23_2 C14_2 1_555 1_555
H18_2 C23_2 1_555 1_555
C24_2 H19_2 1_555 1_555
C25_2 C2_2 1_555 1_555
C26_2 C12_2 1_555 1_555
O23_2 La1_2 1_555 1_555
H20_2 O23_2 1_555 1_555
H21_2 O23_2 1_555 1_555
C27_2 C1_2 1_555 1_555
H22_2 C27_2 1_555 1_555
C28_2 C8_2 1_555 1_555
C29_2 C39_2 1_555 1_555
C30_2 C20_2 1_555 1_555
H23_2 C30_2 1_555 1_555
C31_2 C1_2 1_555 1_555
C32_2 C24_2 1_555 1_555
H24_2 C32_2 1_555 1_555
C33_2 H25_2 1_555 1_555
C34_2 C26_2 1_555 1_555
C35_2 H26_2 1_555 1_555
C36_2 C14_2 1_555 1_555
C37_2 C9_2 1_555 1_555
H27_2 C37_2 1_555 1_555
O24_2 C38_2 1_555 1_555
C38_2 C13_2 1_555 1_555
C39_2 C7_2 1_555 1_555
C40_2 O15_2 1_555 1_555
C41_2 C29_2 1_555 1_555
H28_2 C41_2 1_555 1_555
C42_2 O8_2 1_555 1_555
C43_2 C30_2 1_555 1_555
C44_2 C23_2 1_555 1_555
H29_2 C44_2 1_555 1_555
C45_2 O10_2 1_555 1_555
C46_2 C6_2 1_555 1_555
H30_2 C46_2 1_555 1_555
C47_2 C29_2 1_555 1_555
C48_2 O16_2 1_555 1_555
H31_2 C48_2 1_555 1_555
C49_2 C15_2 1_555 1_555
H32_2 C49_2 1_555 1_555
C50_2 O11_2 1_555 1_555
C51_2 C34_2 1_555 1_555
C52_2 O12_2 1_555 1_555
C53_2 N2_2 1_555 1_555
H33_2 C53_2 1_555 1_555
H34_2 C53_2 1_555 1_555
H35_2 C53_2 1_555 1_555
C54_2 C42_2 1_555 1_555
C55_2 C35_2 1_555 1_555
C56_2 O20_2 1_555 1_555
H36_2 C56_2 1_555 1_555
C57_2 C41_2 1_555 1_555
H37_2 C57_2 1_555 1_555
C58_2 N2_2 1_555 1_555
H38_2 C58_2 1_555 1_555
H39_2 C58_2 1_555 1_555
H40_2 C58_2 1_555 1_555
C59_2 C54_2 1_555 1_555
H41_2 C59_2 1_555 1_555
C60_2 C47_2 1_555 1_555
H42_2 C60_2 1_555 1_555
C61_2 N1_2 1_555 1_555
H43_2 C61_2 1_555 1_555
H44_2 C61_2 1_555 1_555
H45_2 C61_2 1_555 1_555
C62_2 C57_2 1_555 1_555
H46_2 C62_2 1_555 1_555
C63_2 H47_2 1_555 1_555
C64_2 C63_2 1_555 1_555
H48_2 C64_2 1_555 1_555
C65_2 C59_2 1_555 1_555
C66_2 C55_2 1_555 1_555
C67_2 C66_2 1_555 1_555
H49_2 C67_2 1_555 1_555
C68_2 C63_2 1_555 1_555
H50_2 C68_2 1_555 1_555
C69_2 C51_2 1_555 1_555
H51_2 C69_2 1_555 1_555
C70_2 H52_2 1_555 1_555
C71_2 C69_2 1_555 1_555
C72_2 C26_2 1_555 1_555
C73_2 C72_2 1_555 1_555
H53_2 C73_2 1_555 1_555
C74_2 C73_2 1_555 1_555
H54_2 C74_2 1_555 1_555
C75_2 C70_2 1_555 1_555
H55_2 C75_2 1_555 1_555
C76_2 N1_2 1_555 1_555
H56_2 C76_2 1_555 1_555
H57_2 C76_2 1_555 1_555
H58_2 C76_2 1_555 1_555
H59_2 C27_2 1_555 1_555
H60_2 C35_2 1_555 1_555
O25_2 C81_2 1_555 1_555
O26_2 C87_2 1_555 1_555
C77_2 C27_2 1_555 1_555
O27_2 C87_2 1_555 1_555
C78_2 C79_2 1_555 1_555
C79_2 H61_2 1_555 1_555
C80_2 H62_2 1_555 1_555
C81_2 C77_2 1_555 1_555
C82_2 H63_2 1_555 1_555
C83_2 C79_2 1_555 1_555
C84_2 C77_2 1_555 1_555
C85_2 C82_2 1_555 1_555
H64_2 C85_2 1_555 1_555
C86_2 C80_2 1_555 1_555
H65_2 C86_2 1_555 1_555
C87_2 C78_2 1_555 1_555
O28_2 C88_2 1_555 1_555
O29_2 C89_2 1_555 1_555
O30_2 C88_2 1_555 1_555
C88_2 C90_2 1_555 1_555
C89_2 C90_2 1_555 1_555
C90_2 C92_2 1_555 1_555
C91_2 C35_2 1_555 1_555
C92_2 H66_2 1_555 1_555
C93_2 H67_2 1_555 1_555
C94_2 C93_2 1_555 1_555
H68_2 C94_2 1_555 1_555
C95_2 C92_2 1_555 1_555
C96_2 C91_2 1_555 1_555
C97_2 C96_2 1_555 1_555
H69_2 C97_2 1_555 1_555
C98_2 C93_2 1_555 1_555
H70_2 C98_2 1_555 1_555
La2_2 O8_2 1_555 1_555
O37_2 La2_2 1_555 1_555
O41_2 La2_2 1_555 1_555
N3_2 C137_2 1_555 1_555
O43_2 La2_2 1_555 1_555
H75_2 O43_2 1_555 1_555
H76_2 O43_2 1_555 1_555
N4_2 C132_2 1_555 1_555
O44_2 La2_2 1_555 1_555
O45_2 La2_2 1_555 1_555
H83_2 O45_2 1_555 1_555
H84_2 O45_2 1_555 1_555
O47_2 La2_2 1_555 1_555
H87_2 O47_2 1_555 1_555
H88_2 O47_2 1_555 1_555
C132_2 O41_2 1_555 1_555
H94_2 C132_2 1_555 1_555
C136_2 N4_2 1_555 1_555
H96_2 C136_2 1_555 1_555
H97_2 C136_2 1_555 1_555
H98_2 C136_2 1_555 1_555
C137_2 O44_2 1_555 1_555
H99_2 C137_2 1_555 1_555
C139_2 N4_2 1_555 1_555
H101_2 C139_2 1_555 1_555
H102_2 C139_2 1_555 1_555
H103_2 C139_2 1_555 1_555
C141_2 N3_2 1_555 1_555
H105_2 C141_2 1_555 1_555
H106_2 C141_2 1_555 1_555
H107_2 C141_2 1_555 1_555
C150_2 N3_2 1_555 1_555
H116_2 C150_2 1_555 1_555
La3_2 O28_2 1_555 1_555
Zr5_2 O25_2 1_555 1_555
Zr6_2 O1_2 1_555 1_555
O49_2 Zr2_2 1_555 1_555
O51_2 Zr2_2 1_555 1_555
O54 La1_2 1_555 1_555
O58_2 La1_2 1_555 1_555
O3_2 Zr6_2 1_555 1_555
O14_2 La2_2 1_555 1_555
C3_2 C10_2 1_555 1_555
C3_2 C50_2 1_555 1_555
C9_2 C31_2 1_555 1_555
C11_2 C25_2 1_555 1_555
C12_2 C39_2 1_555 1_555
C16_2 C21_2 1_555 1_555
C16_2 C25_2 1_555 1_555
C17_2 C18_2 1_555 1_555
C18_2 C36_2 1_555 1_555
C19_2 C20_2 1_555 1_555
C22_2 C46_2 1_555 1_555
C24_2 C28_2 1_555 1_555
C28_2 C31_2 1_555 1_555
C32_2 C37_2 1_555 1_555
C33_2 C43_2 1_555 1_555
C33_2 C44_2 1_555 1_555
C36_2 C43_2 1_555 1_555
C45_2 C54_2 1_555 1_555
C45_2 C55_2 1_555 1_555
C47_2 C49_2 1_555 1_555
C51_2 C52_2 1_555 1_555
C60_2 C62_2 1_555 1_555
C64_2 C65_2 1_555 1_555
C65_2 C66_2 1_555 1_555
C67_2 C68_2 1_555 1_555
C70_2 C71_2 1_555 1_555
C71_2 C72_2 1_555 1_555
C74_2 C75_2 1_555 1_555
O26_2 Zr5_2 1_555 1_555
C78_2 C81_2 1_555 1_555
C80_2 C84_2 1_555 1_555
C82_2 C83_2 1_555 1_555
C83_2 C84_2 1_555 1_555
C85_2 C86_2 1_555 1_555
O28_2 Zr6_2 1_555 1_555
O29_2 Zr6_2 1_555 1_555
O30_2 La3_2 1_555 1_555
C89_2 C91_2 1_555 1_555
C94_2 C95_2 1_555 1_555
C95_2 C96_2 1_555 1_555
C97_2 C98_2 1_555 1_555
La1_3 O9_3 1_555 1_555
Zr1_3 O2_3 1_555 1_555
Zr7 O7_3 1_555 1_555
O50 C38_3 1_555 1_555
O2_3 C7_3 1_555 1_555
O52 C2_3 1_555 1_555
O4_3 Zr1_3 1_555 1_555
O5_3 Zr1_3 1_555 1_555
O6_3 Zr1_3 1_555 1_555
O7_3 C34_3 1_555 1_555
O9_3 C19_3 1_555 1_555
O10_3 Zr7 1_555 1_555
O11_3 Zr1_3 1_555 1_555
O14_3 C42_3 1_555 1_555
O15_3 Zr1_3 1_555 1_555
O16_3 La1_3 1_555 1_555
C1_3 C10_3 1_555 1_555
O17_3 C50_3 1_555 1_555
C2_3 C13_3 1_555 1_555
N1_3 C56_3 1_555 1_555
C3_3 C8_3 1_555 1_555
C4_3 H1_3 1_555 1_555
O18_3 La1_3 1_555 1_555
H2_3 O18_3 1_555 1_555
H3_3 O18_3 1_555 1_555
C5_3 H4_3 1_555 1_555
O19_3 La1_3 1_555 1_555
H5_3 O19_3 1_555 1_555
H6_3 O19_3 1_555 1_555
C6_3 C4_3 1_555 1_555
H7_3 C6_3 1_555 1_555
C7_3 C15_3 1_555 1_555
C8_3 H8_3 1_555 1_555
C9_3 H9_3 1_555 1_555
C10_3 O4_3 1_555 1_555
C11_3 H10_3 1_555 1_555
H11_3 C11_3 1_555 1_555
N2_3 C48_3 1_555 1_555
C12_3 H12_3 1_555 1_555
H13_3 C12_3 1_555 1_555
C13_3 C5_3 1_555 1_555
O20_3 La1_3 1_555 1_555
C14_3 H14_3 1_555 1_555
C15_3 C40_3 1_555 1_555
C16_3 C4_3 1_555 1_555
C17_3 O5_3 1_555 1_555
O21_3 La1_3 1_555 1_555
H15_3 O21_3 1_555 1_555
H16_3 O21_3 1_555 1_555
C18_3 C11_3 1_555 1_555
C19_3 O6_3 1_555 1_555
C20_3 C17_3 1_555 1_555
C21_3 C5_3 1_555 1_555
C22_3 C21_3 1_555 1_555
H17_3 C22_3 1_555 1_555
C23_3 C14_3 1_555 1_555
H18_3 C23_3 1_555 1_555
C25_3 C2_3 1_555 1_555
C26_3 C12_3 1_555 1_555
O23_3 La1_3 1_555 1_555
H20_3 O23_3 1_555 1_555
H21_3 O23_3 1_555 1_555
C27_3 C1_3 1_555 1_555
H22_3 C27_3 1_555 1_555
C28_3 C8_3 1_555 1_555
C30_3 C20_3 1_555 1_555
H23_3 C30_3 1_555 1_555
C31_3 C1_3 1_555 1_555
C33_3 H25_3 1_555 1_555
C34_3 C26_3 1_555 1_555
C35_3 H26_3 1_555 1_555
C36_3 C14_3 1_555 1_555
C37_3 C9_3 1_555 1_555
H27_3 C37_3 1_555 1_555
O24_3 C38_3 1_555 1_555
C38_3 C13_3 1_555 1_555
C39_3 C7_3 1_555 1_555
C40_3 O15_3 1_555 1_555
C43_3 C30_3 1_555 1_555
C44_3 C23_3 1_555 1_555
H29_3 C44_3 1_555 1_555
C45_3 O10_3 1_555 1_555
C46_3 C6_3 1_555 1_555
H30_3 C46_3 1_555 1_555
C48_3 O16_3 1_555 1_555
H31_3 C48_3 1_555 1_555
C50_3 O11_3 1_555 1_555
C53_3 N2_3 1_555 1_555
H33_3 C53_3 1_555 1_555
H34_3 C53_3 1_555 1_555
H35_3 C53_3 1_555 1_555
C54_3 C42_3 1_555 1_555
C55_3 C35_3 1_555 1_555
C56_3 O20_3 1_555 1_555
H36_3 C56_3 1_555 1_555
C58_3 N2_3 1_555 1_555
H38_3 C58_3 1_555 1_555
H39_3 C58_3 1_555 1_555
H40_3 C58_3 1_555 1_555
C59_3 C54_3 1_555 1_555
H41_3 C59_3 1_555 1_555
C61_3 N1_3 1_555 1_555
H43_3 C61_3 1_555 1_555
H44_3 C61_3 1_555 1_555
H45_3 C61_3 1_555 1_555
C63_3 H47_3 1_555 1_555
C64_3 C63_3 1_555 1_555
H48_3 C64_3 1_555 1_555
C65_3 C59_3 1_555 1_555
C66_3 C55_3 1_555 1_555
C67_3 C66_3 1_555 1_555
H49_3 C67_3 1_555 1_555
C68_3 C63_3 1_555 1_555
H50_3 C68_3 1_555 1_555
C72_3 C26_3 1_555 1_555
C73_3 C72_3 1_555 1_555
H53_3 C73_3 1_555 1_555
C74_3 C73_3 1_555 1_555
H54_3 C74_3 1_555 1_555
H55_3 C75_3 1_555 1_555
C76_3 N1_3 1_555 1_555
H56_3 C76_3 1_555 1_555
H57_3 C76_3 1_555 1_555
H58_3 C76_3 1_555 1_555
H59_3 C27_3 1_555 1_555
H60_3 C35_3 1_555 1_555
O53 C81_3 1_555 1_555
O57 C87_3 1_555 1_555
C77_3 C27_3 1_555 1_555
O27_3 C87_3 1_555 1_555
C78_3 C79_3 1_555 1_555
C79_3 H61_3 1_555 1_555
C80_3 H62_3 1_555 1_555
C81_3 C77_3 1_555 1_555
C83_3 C79_3 1_555 1_555
C84_3 C77_3 1_555 1_555
C86_3 C80_3 1_555 1_555
H65_3 C86_3 1_555 1_555
C87_3 C78_3 1_555 1_555
O54 C88_3 1_555 1_555
O56 C89_3 1_555 1_555
O58_2 C88_3 1_555 1_555
C88_3 C90_3 1_555 1_555
C89_3 C90_3 1_555 1_555
C90_3 C92_3 1_555 1_555
C91_3 C35_3 1_555 1_555
C92_3 H66_3 1_555 1_555
C93_3 H67_3 1_555 1_555
C94_3 C93_3 1_555 1_555
H68_3 C94_3 1_555 1_555
C95_3 C92_3 1_555 1_555
C96_3 C91_3 1_555 1_555
C97_3 C96_3 1_555 1_555
H69_3 C97_3 1_555 1_555
C98_3 C93_3 1_555 1_555
H70_3 C98_3 1_555 1_555
O46_3 C135_3 1_555 1_555
C127_3 C119_3 1_555 1_555
H91_3 C127_3 1_555 1_555
C131_3 C119_3 1_555 1_555
H95_3 C133_3 1_555 1_555
C135_3 O38_3 1_555 1_555
C138_3 C127_3 1_555 1_555
H100_3 C138_3 1_555 1_555
C140_3 C131_3 1_555 1_555
H104_3 C140_3 1_555 1_555
C142_3 C138_3 1_555 1_555
H108_3 C142_3 1_555 1_555
C143_3 C134_3 1_555 1_555
H109_3 C143_3 1_555 1_555
C144_3 H110_3 1_555 1_555
C145_3 C143_3 1_555 1_555
O55_2 La1_3 1_555 1_555
C3_3 C10_3 1_555 1_555
C3_3 C50_3 1_555 1_555
C9_3 C31_3 1_555 1_555
C11_3 C25_3 1_555 1_555
C12_3 C39_3 1_555 1_555
C16_3 C21_3 1_555 1_555
C16_3 C25_3 1_555 1_555
C17_3 C18_3 1_555 1_555
C18_3 C36_3 1_555 1_555
C19_3 C20_3 1_555 1_555
C22_3 C46_3 1_555 1_555
C28_3 C31_3 1_555 1_555
C33_3 C43_3 1_555 1_555
C33_3 C44_3 1_555 1_555
C36_3 C43_3 1_555 1_555
C45_3 C54_3 1_555 1_555
C45_3 C55_3 1_555 1_555
C64_3 C65_3 1_555 1_555
C65_3 C66_3 1_555 1_555
C67_3 C68_3 1_555 1_555
C74_3 C75_3 1_555 1_555
C78_3 C81_3 1_555 1_555
C80_3 C84_3 1_555 1_555
C83_3 C84_3 1_555 1_555
C89_3 C91_3 1_555 1_555
C94_3 C95_3 1_555 1_555
C95_3 C96_3 1_555 1_555
C97_3 C98_3 1_555 1_555
C131_3 C133_3 1_555 1_555
C134_3 C135_3 1_555 1_555
C140_3 C142_3 1_555 1_555
C144_3 C145_3 1_555 1_555
La1_4 O9_4 1_555 1_555
Zr1_4 O2_4 1_555 1_555
Zr7_2 O7_4 1_555 1_555
O50_2 C38_4 1_555 1_555
O2_4 C7_4 1_555 1_555
O52_2 C2_4 1_555 1_555
O4_4 Zr1_4 1_555 1_555
O5_4 Zr1_4 1_555 1_555
O6_4 Zr1_4 1_555 1_555
O7_4 C34_4 1_555 1_555
O9_4 C19_4 1_555 1_555
O10_4 Zr7_2 1_555 1_555
O11_4 Zr1_4 1_555 1_555
O14_4 C42_4 1_555 1_555
O15_4 Zr1_4 1_555 1_555
O16_4 La1_4 1_555 1_555
C1_4 C10_4 1_555 1_555
O17_4 C50_4 1_555 1_555
C2_4 C13_4 1_555 1_555
N1_4 C56_4 1_555 1_555
C3_4 C8_4 1_555 1_555
C4_4 H1_4 1_555 1_555
O18_4 La1_4 1_555 1_555
H2_4 O18_4 1_555 1_555
H3_4 O18_4 1_555 1_555
C5_4 H4_4 1_555 1_555
O19_4 La1_4 1_555 1_555
H5_4 O19_4 1_555 1_555
H6_4 O19_4 1_555 1_555
C6_4 C4_4 1_555 1_555
H7_4 C6_4 1_555 1_555
C7_4 C15_4 1_555 1_555
C8_4 H8_4 1_555 1_555
C9_4 H9_4 1_555 1_555
C10_4 O4_4 1_555 1_555
C11_4 H10_4 1_555 1_555
H11_4 C11_4 1_555 1_555
N2_4 C48_4 1_555 1_555
C12_4 H12_4 1_555 1_555
H13_4 C12_4 1_555 1_555
C13_4 C5_4 1_555 1_555
O20_4 La1_4 1_555 1_555
C14_4 H14_4 1_555 1_555
C15_4 C40_4 1_555 1_555
C16_4 C4_4 1_555 1_555
C17_4 O5_4 1_555 1_555
O21_4 La1_4 1_555 1_555
H15_4 O21_4 1_555 1_555
H16_4 O21_4 1_555 1_555
C18_4 C11_4 1_555 1_555
C19_4 O6_4 1_555 1_555
C20_4 C17_4 1_555 1_555
C21_4 C5_4 1_555 1_555
C22_4 C21_4 1_555 1_555
H17_4 C22_4 1_555 1_555
C23_4 C14_4 1_555 1_555
H18_4 C23_4 1_555 1_555
C25_4 C2_4 1_555 1_555
C26_4 C12_4 1_555 1_555
O23_4 La1_4 1_555 1_555
H20_4 O23_4 1_555 1_555
H21_4 O23_4 1_555 1_555
C27_4 C1_4 1_555 1_555
H22_4 C27_4 1_555 1_555
C28_4 C8_4 1_555 1_555
C30_4 C20_4 1_555 1_555
H23_4 C30_4 1_555 1_555
C31_4 C1_4 1_555 1_555
C33_4 H25_4 1_555 1_555
C34_4 C26_4 1_555 1_555
C35_4 H26_4 1_555 1_555
C36_4 C14_4 1_555 1_555
C37_4 C9_4 1_555 1_555
H27_4 C37_4 1_555 1_555
O24_4 C38_4 1_555 1_555
C38_4 C13_4 1_555 1_555
C39_4 C7_4 1_555 1_555
C40_4 O15_4 1_555 1_555
C43_4 C30_4 1_555 1_555
C44_4 C23_4 1_555 1_555
H29_4 C44_4 1_555 1_555
C45_4 O10_4 1_555 1_555
C46_4 C6_4 1_555 1_555
H30_4 C46_4 1_555 1_555
C48_4 O16_4 1_555 1_555
H31_4 C48_4 1_555 1_555
C50_4 O11_4 1_555 1_555
C53_4 N2_4 1_555 1_555
H33_4 C53_4 1_555 1_555
H34_4 C53_4 1_555 1_555
H35_4 C53_4 1_555 1_555
C54_4 C42_4 1_555 1_555
C55_4 C35_4 1_555 1_555
C56_4 O20_4 1_555 1_555
H36_4 C56_4 1_555 1_555
C58_4 N2_4 1_555 1_555
H38_4 C58_4 1_555 1_555
H39_4 C58_4 1_555 1_555
H40_4 C58_4 1_555 1_555
C59_4 C54_4 1_555 1_555
H41_4 C59_4 1_555 1_555
C61_4 N1_4 1_555 1_555
H43_4 C61_4 1_555 1_555
H44_4 C61_4 1_555 1_555
H45_4 C61_4 1_555 1_555
C63_4 H47_4 1_555 1_555
C64_4 C63_4 1_555 1_555
H48_4 C64_4 1_555 1_555
C65_4 C59_4 1_555 1_555
C66_4 C55_4 1_555 1_555
C67_4 C66_4 1_555 1_555
H49_4 C67_4 1_555 1_555
C68_4 C63_4 1_555 1_555
H50_4 C68_4 1_555 1_555
C72_4 C26_4 1_555 1_555
C73_4 C72_4 1_555 1_555
H53_4 C73_4 1_555 1_555
C74_4 C73_4 1_555 1_555
H54_4 C74_4 1_555 1_555
H55_4 C75_4 1_555 1_555
C76_4 N1_4 1_555 1_555
H56_4 C76_4 1_555 1_555
H57_4 C76_4 1_555 1_555
H58_4 C76_4 1_555 1_555
H59_4 C27_4 1_555 1_555
H60_4 C35_4 1_555 1_555
O53_2 C81_4 1_555 1_555
O57_2 C87_4 1_555 1_555
C77_4 C27_4 1_555 1_555
O27_4 C87_4 1_555 1_555
C78_4 C79_4 1_555 1_555
C79_4 H61_4 1_555 1_555
C80_4 H62_4 1_555 1_555
C81_4 C77_4 1_555 1_555
C83_4 C79_4 1_555 1_555
C84_4 C77_4 1_555 1_555
C86_4 C80_4 1_555 1_555
H65_4 C86_4 1_555 1_555
C87_4 C78_4 1_555 1_555
O55 C88_4 1_555 1_555
O56_2 C89_4 1_555 1_555
O58 C88_4 1_555 1_555
C88_4 C90_4 1_555 1_555
C89_4 C90_4 1_555 1_555
C90_4 C92_4 1_555 1_555
C91_4 C35_4 1_555 1_555
C92_4 H66_4 1_555 1_555
C93_4 H67_4 1_555 1_555
C94_4 C93_4 1_555 1_555
H68_4 C94_4 1_555 1_555
C95_4 C92_4 1_555 1_555
C96_4 C91_4 1_555 1_555
C97_4 C96_4 1_555 1_555
H69_4 C97_4 1_555 1_555
C98_4 C93_4 1_555 1_555
H70_4 C98_4 1_555 1_555
O46_4 C135_4 1_555 1_555
C127_4 C119_4 1_555 1_555
H91_4 C127_4 1_555 1_555
C131_4 C119_4 1_555 1_555
H95_4 C133_4 1_555 1_555
C135_4 O38_4 1_555 1_555
C138_4 C127_4 1_555 1_555
H100_4 C138_4 1_555 1_555
C140_4 C131_4 1_555 1_555
H104_4 C140_4 1_555 1_555
C142_4 C138_4 1_555 1_555
H108_4 C142_4 1_555 1_555
C143_4 C134_4 1_555 1_555
H109_4 C143_4 1_555 1_555
C144_4 H110_4 1_555 1_555
C145_4 C143_4 1_555 1_555
O54_2 La1_4 1_555 1_555
C3_4 C10_4 1_555 1_555
C3_4 C50_4 1_555 1_555
C9_4 C31_4 1_555 1_555
C11_4 C25_4 1_555 1_555
C12_4 C39_4 1_555 1_555
C16_4 C21_4 1_555 1_555
C16_4 C25_4 1_555 1_555
C17_4 C18_4 1_555 1_555
C18_4 C36_4 1_555 1_555
C19_4 C20_4 1_555 1_555
C22_4 C46_4 1_555 1_555
C28_4 C31_4 1_555 1_555
C33_4 C43_4 1_555 1_555
C33_4 C44_4 1_555 1_555
C36_4 C43_4 1_555 1_555
C45_4 C54_4 1_555 1_555
C45_4 C55_4 1_555 1_555
C64_4 C65_4 1_555 1_555
C65_4 C66_4 1_555 1_555
C67_4 C68_4 1_555 1_555
C74_4 C75_4 1_555 1_555
C78_4 C81_4 1_555 1_555
C80_4 C84_4 1_555 1_555
C83_4 C84_4 1_555 1_555
C89_4 C91_4 1_555 1_555
C94_4 C95_4 1_555 1_555
C95_4 C96_4 1_555 1_555
C97_4 C98_4 1_555 1_555
C131_4 C133_4 1_555 1_555
C134_4 C135_4 1_555 1_555
C140_4 C142_4 1_555 1_555
C144_4 C145_4 1_555 1_555
Zr5 O2_5 1_555 1_555
Zr6 O7_5 1_555 1_555
O49 C38_5 1_555 1_555
O2_5 C7_5 1_555 1_555
O51 C2_5 1_555 1_555
O5_5 Zr5 1_555 1_555
O6_5 Zr5 1_555 1_555
O7_5 C34_5 1_555 1_555
O12_3 Zr6 1_555 1_555
O13_3 C40_5 1_555 1_555
O15_5 Zr5 1_555 1_555
C2_5 C13_5 1_555 1_555
C4_5 H1_5 1_555 1_555
H2_5 O18_5 1_555 1_555
H3_5 O18_5 1_555 1_555
C5_5 H4_5 1_555 1_555
C6_5 C4_5 1_555 1_555
H7_5 C6_5 1_555 1_555
C7_5 C15_5 1_555 1_555
C11_5 H10_5 1_555 1_555
H11_5 C11_5 1_555 1_555
C12_5 H12_5 1_555 1_555
H13_5 C12_5 1_555 1_555
C13_5 C5_5 1_555 1_555
C14_5 H14_5 1_555 1_555
C15_5 C40_5 1_555 1_555
C16_5 C4_5 1_555 1_555
C17_5 O5_5 1_555 1_555
C18_5 C11_5 1_555 1_555
O22_3 C52_3 1_555 1_555
C19_5 O6_5 1_555 1_555
C20_5 C17_5 1_555 1_555
C21_5 C5_5 1_555 1_555
C22_5 C21_5 1_555 1_555
H17_5 C22_5 1_555 1_555
C23_5 C14_5 1_555 1_555
H18_5 C23_5 1_555 1_555
C25_5 C2_5 1_555 1_555
C26_5 C12_5 1_555 1_555
C29_3 C39_5 1_555 1_555
C30_5 C20_5 1_555 1_555
C34_5 C26_5 1_555 1_555
C36_5 C14_5 1_555 1_555
O24_5 C38_5 1_555 1_555
C38_5 C13_5 1_555 1_555
C39_5 C7_5 1_555 1_555
C40_5 O15_5 1_555 1_555
C41_3 C29_3 1_555 1_555
H28_3 C41_3 1_555 1_555
C43_5 C30_5 1_555 1_555
C44_5 C23_5 1_555 1_555
H29_5 C44_5 1_555 1_555
C46_5 C6_5 1_555 1_555
H30_5 C46_5 1_555 1_555
C47_3 C29_3 1_555 1_555
C49_3 C15_5 1_555 1_555
H32_3 C49_3 1_555 1_555
C51_3 C34_5 1_555 1_555
C52_3 O12_3 1_555 1_555
C57_3 C41_3 1_555 1_555
H37_3 C57_3 1_555 1_555
C60_3 C47_3 1_555 1_555
H42_3 C60_3 1_555 1_555
C62_3 C57_3 1_555 1_555
H46_3 C62_3 1_555 1_555
C69_3 C51_3 1_555 1_555
H51_3 C69_3 1_555 1_555
C70_3 H52_3 1_555 1_555
C71_3 C69_3 1_555 1_555
C72_5 C26_5 1_555 1_555
C73_5 C72_5 1_555 1_555
H53_5 C73_5 1_555 1_555
C74_5 C73_5 1_555 1_555
H54_5 C74_5 1_555 1_555
C75_5 C70_3 1_555 1_555
H55_5 C75_5 1_555 1_555
O37_3 La3 1_555 1_555
O41_3 La3 1_555 1_555
N3_3 C137_3 1_555 1_555
O43_3 La3 1_555 1_555
H75_3 O43_3 1_555 1_555
H76_3 O43_3 1_555 1_555
N4_3 C132_3 1_555 1_555
O44_3 La3 1_555 1_555
O45_3 La3 1_555 1_555
H83_3 O45_3 1_555 1_555
H84_3 O45_3 1_555 1_555
O47_3 La3 1_555 1_555
H87_3 O47_3 1_555 1_555
H88_3 O47_3 1_555 1_555
C132_3 O41_3 1_555 1_555
H94_3 C132_3 1_555 1_555
C136_3 N4_3 1_555 1_555
H96_3 C136_3 1_555 1_555
H97_3 C136_3 1_555 1_555
H98_3 C136_3 1_555 1_555
C137_3 O44_3 1_555 1_555
H99_3 C137_3 1_555 1_555
C139_3 N4_3 1_555 1_555
H101_3 C139_3 1_555 1_555
H102_3 C139_3 1_555 1_555
H103_3 C139_3 1_555 1_555
C141_3 N3_3 1_555 1_555
H105_3 C141_3 1_555 1_555
H106_3 C141_3 1_555 1_555
H107_3 C141_3 1_555 1_555
C150_3 N3_3 1_555 1_555
H116_3 C150_3 1_555 1_555
C11_5 C25_5 1_555 1_555
C12_5 C39_5 1_555 1_555
C16_5 C21_5 1_555 1_555
C16_5 C25_5 1_555 1_555
C17_5 C18_5 1_555 1_555
C18_5 C36_5 1_555 1_555
C19_5 C20_5 1_555 1_555
C22_5 C46_5 1_555 1_555
C33_5 C43_5 1_555 1_555
C33_5 C44_5 1_555 1_555
C36_5 C43_5 1_555 1_555
C47_3 C49_3 1_555 1_555
C51_3 C52_3 1_555 1_555
C60_3 C62_3 1_555 1_555
C70_3 C71_3 1_555 1_555
C71_3 C72_5 1_555 1_555
C74_5 C75_5 1_555 1_555
Zr5_2 O2_6 1_555 1_555
Zr6_2 O7_6 1_555 1_555
O49_2 C38_6 1_555 1_555
O2_6 C7_6 1_555 1_555
O51_2 C2_6 1_555 1_555
O5_6 Zr5_2 1_555 1_555
O6_6 Zr5_2 1_555 1_555
O7_6 C34_6 1_555 1_555
O12_4 Zr6_2 1_555 1_555
O13_4 C40_6 1_555 1_555
O15_6 Zr5_2 1_555 1_555
C2_6 C13_6 1_555 1_555
C4_6 H1_6 1_555 1_555
H2_6 O18_6 1_555 1_555
H3_6 O18_6 1_555 1_555
C5_6 H4_6 1_555 1_555
C6_6 C4_6 1_555 1_555
H7_6 C6_6 1_555 1_555
C7_6 C15_6 1_555 1_555
C11_6 H10_6 1_555 1_555
H11_6 C11_6 1_555 1_555
C12_6 H12_6 1_555 1_555
H13_6 C12_6 1_555 1_555
C13_6 C5_6 1_555 1_555
C14_6 H14_6 1_555 1_555
C15_6 C40_6 1_555 1_555
C16_6 C4_6 1_555 1_555
C17_6 O5_6 1_555 1_555
C18_6 C11_6 1_555 1_555
O22_4 C52_4 1_555 1_555
C19_6 O6_6 1_555 1_555
C20_6 C17_6 1_555 1_555
C21_6 C5_6 1_555 1_555
C22_6 C21_6 1_555 1_555
H17_6 C22_6 1_555 1_555
C23_6 C14_6 1_555 1_555
H18_6 C23_6 1_555 1_555
C25_6 C2_6 1_555 1_555
C26_6 C12_6 1_555 1_555
C29_4 C39_6 1_555 1_555
C30_6 C20_6 1_555 1_555
C34_6 C26_6 1_555 1_555
C36_6 C14_6 1_555 1_555
O24_6 C38_6 1_555 1_555
C38_6 C13_6 1_555 1_555
C39_6 C7_6 1_555 1_555
C40_6 O15_6 1_555 1_555
C41_4 C29_4 1_555 1_555
H28_4 C41_4 1_555 1_555
C43_6 C30_6 1_555 1_555
C44_6 C23_6 1_555 1_555
H29_6 C44_6 1_555 1_555
C46_6 C6_6 1_555 1_555
H30_6 C46_6 1_555 1_555
C47_4 C29_4 1_555 1_555
C49_4 C15_6 1_555 1_555
H32_4 C49_4 1_555 1_555
C51_4 C34_6 1_555 1_555
C52_4 O12_4 1_555 1_555
C57_4 C41_4 1_555 1_555
H37_4 C57_4 1_555 1_555
C60_4 C47_4 1_555 1_555
H42_4 C60_4 1_555 1_555
C62_4 C57_4 1_555 1_555
H46_4 C62_4 1_555 1_555
C69_4 C51_4 1_555 1_555
H51_4 C69_4 1_555 1_555
C70_4 H52_4 1_555 1_555
C71_4 C69_4 1_555 1_555
C72_6 C26_6 1_555 1_555
C73_6 C72_6 1_555 1_555
H53_6 C73_6 1_555 1_555
C74_6 C73_6 1_555 1_555
H54_6 C74_6 1_555 1_555
C75_6 C70_4 1_555 1_555
H55_6 C75_6 1_555 1_555
O37_4 La3_2 1_555 1_555
O41_4 La3_2 1_555 1_555
N3_4 C137_4 1_555 1_555
O43_4 La3_2 1_555 1_555
H75_4 O43_4 1_555 1_555
H76_4 O43_4 1_555 1_555
N4_4 C132_4 1_555 1_555
O44_4 La3_2 1_555 1_555
O45_4 La3_2 1_555 1_555
H83_4 O45_4 1_555 1_555
H84_4 O45_4 1_555 1_555
O47_4 La3_2 1_555 1_555
H87_4 O47_4 1_555 1_555
H88_4 O47_4 1_555 1_555
C132_4 O41_4 1_555 1_555
H94_4 C132_4 1_555 1_555
C136_4 N4_4 1_555 1_555
H96_4 C136_4 1_555 1_555
H97_4 C136_4 1_555 1_555
H98_4 C136_4 1_555 1_555
C137_4 O44_4 1_555 1_555
H99_4 C137_4 1_555 1_555
C139_4 N4_4 1_555 1_555
H101_4 C139_4 1_555 1_555
H102_4 C139_4 1_555 1_555
H103_4 C139_4 1_555 1_555
C141_4 N3_4 1_555 1_555
H105_4 C141_4 1_555 1_555
H106_4 C141_4 1_555 1_555
H107_4 C141_4 1_555 1_555
C150_4 N3_4 1_555 1_555
H116_4 C150_4 1_555 1_555
C11_6 C25_6 1_555 1_555
C12_6 C39_6 1_555 1_555
C16_6 C21_6 1_555 1_555
C16_6 C25_6 1_555 1_555
C17_6 C18_6 1_555 1_555
C18_6 C36_6 1_555 1_555
C19_6 C20_6 1_555 1_555
C22_6 C46_6 1_555 1_555
C33_6 C43_6 1_555 1_555
C33_6 C44_6 1_555 1_555
C36_6 C43_6 1_555 1_555
C47_4 C49_4 1_555 1_555
C51_4 C52_4 1_555 1_555
C60_4 C62_4 1_555 1_555
C70_4 C71_4 1_555 1_555
C71_4 C72_6 1_555 1_555
C74_6 C75_6 1_555 1_555
Zr3_3 O32_3 1_555 1_555
Zr4_3 O36_3 1_555 1_555
O32_3 C103_3 1_555 1_555
O34_3 Zr3_3 1_555 1_555
O35_3 Zr3_3 1_555 1_555
O36_3 C122_3 1_555 1_555
O38_5 Zr4_3 1_555 1_555
O39_5 C126_3 1_555 1_555
O40_3 Zr3_3 1_555 1_555
C100_3 H71_3 1_555 1_555
H72_3 O42_3 1_555 1_555
H73_3 O42_3 1_555 1_555
C102_3 C100_3 1_555 1_555
H77_3 C102_3 1_555 1_555
C103_3 C108_3 1_555 1_555
C104_3 H78_3 1_555 1_555
H79_3 C104_3 1_555 1_555
C105_3 H80_3 1_555 1_555
H81_3 C105_3 1_555 1_555
C107_3 H82_3 1_555 1_555
C108_3 C126_3 1_555 1_555
C110_3 O34_3 1_555 1_555
C111_3 C104_3 1_555 1_555
O46_5 C135_5 1_555 1_555
C112_3 O35_3 1_555 1_555
C113_3 C110_3 1_555 1_555
C116_3 C107_3 1_555 1_555
H86_3 C116_3 1_555 1_555
C118_3 C105_3 1_555 1_555
C119_5 C125_3 1_555 1_555
C120_3 C113_3 1_555 1_555
C122_3 C118_3 1_555 1_555
C123_3 C107_3 1_555 1_555
C125_3 C103_3 1_555 1_555
C126_3 O40_3 1_555 1_555
C127_5 C119_5 1_555 1_555
H91_5 C127_5 1_555 1_555
C128_3 C120_3 1_555 1_555
C129_3 C116_3 1_555 1_555
H92_3 C129_3 1_555 1_555
C131_5 C119_5 1_555 1_555
C133_5 C108_3 1_555 1_555
H95_5 C133_5 1_555 1_555
C134_5 C122_3 1_555 1_555
C135_5 O38_5 1_555 1_555
C138_5 C127_5 1_555 1_555
H100_5 C138_5 1_555 1_555
C140_5 C131_5 1_555 1_555
H104_5 C140_5 1_555 1_555
C142_5 C138_5 1_555 1_555
H108_5 C142_5 1_555 1_555
C143_5 C134_5 1_555 1_555
H109_5 C143_5 1_555 1_555
C144_5 H110_5 1_555 1_555
C145_5 C143_5 1_555 1_555
C146_3 C118_3 1_555 1_555
C147_3 C146_3 1_555 1_555
H111_3 C147_3 1_555 1_555
C148_3 C147_3 1_555 1_555
H112_3 C148_3 1_555 1_555
C149_3 C144_5 1_555 1_555
H113_3 C149_3 1_555 1_555
O50_3 Zr4_3 1_555 1_555
O52_3 Zr4_3 1_555 1_555
O53_3 Zr3_3 1_555 1_555
O54_3 Zr4_3 1_555 1_555
O56_3 Zr4_3 1_555 1_555
O57_3 Zr3_3 1_555 1_555
O33_3 Zr7_3 1_555 1_555
C104_3 C117_3 1_555 1_555
C105_3 C125_3 1_555 1_555
C110_3 C111_3 1_555 1_555
C111_3 C123_3 1_555 1_555
C112_3 C113_3 1_555 1_555
C121_3 C128_3 1_555 1_555
C121_3 C129_3 1_555 1_555
C123_3 C128_3 1_555 1_555
C131_5 C133_5 1_555 1_555
C134_5 C135_5 1_555 1_555
C140_5 C142_5 1_555 1_555
C144_5 C145_5 1_555 1_555
C145_5 C146_3 1_555 1_555
C148_3 C149_3 1_555 1_555
La1_5 O9_5 1_555 1_555
Zr1_5 O2_7 1_555 1_555
Zr2_3 O7_7 1_555 1_555
O1_3 C38_7 1_555 1_555
O2_7 C7_7 1_555 1_555
O3_3 C2_7 1_555 1_555
O4_5 Zr1_5 1_555 1_555
O5_7 Zr1_5 1_555 1_555
O6_7 Zr1_5 1_555 1_555
O7_7 C34_7 1_555 1_555
O8_3 Zr2_3 1_555 1_555
O9_5 C19_7 1_555 1_555
O10_5 Zr2_3 1_555 1_555
O11_5 Zr1_5 1_555 1_555
O12_5 Zr2_3 1_555 1_555
O13_5 C40_7 1_555 1_555
O14_5 C42_5 1_555 1_555
O15_7 Zr1_5 1_555 1_555
O16_5 La1_5 1_555 1_555
C1_5 C10_5 1_555 1_555
O17_5 C50_5 1_555 1_555
C2_7 C13_7 1_555 1_555
N1_5 C56_5 1_555 1_555
C3_5 C8_5 1_555 1_555
C4_7 H1_7 1_555 1_555
O18_7 La1_5 1_555 1_555
H2_7 O18_7 1_555 1_555
H3_7 O18_7 1_555 1_555
C5_7 H4_7 1_555 1_555
O19_5 La1_5 1_555 1_555
H5_5 O19_5 1_555 1_555
H6_5 O19_5 1_555 1_555
C6_7 C4_7 1_555 1_555
H7_7 C6_7 1_555 1_555
C7_7 C15_7 1_555 1_555
C8_5 H8_5 1_555 1_555
C9_5 H9_5 1_555 1_555
C10_5 O4_5 1_555 1_555
C11_7 H10_7 1_555 1_555
H11_7 C11_7 1_555 1_555
N2_5 C48_5 1_555 1_555
C12_7 H12_7 1_555 1_555
H13_7 C12_7 1_555 1_555
C13_7 C5_7 1_555 1_555
O20_5 La1_5 1_555 1_555
C14_7 H14_7 1_555 1_555
C15_7 C40_7 1_555 1_555
C16_7 C4_7 1_555 1_555
C17_7 O5_7 1_555 1_555
O21_5 La1_5 1_555 1_555
H15_5 O21_5 1_555 1_555
H16_5 O21_5 1_555 1_555
C18_7 C11_7 1_555 1_555
O22_5 C52_5 1_555 1_555
C19_7 O6_7 1_555 1_555
C20_7 C17_7 1_555 1_555
C21_7 C5_7 1_555 1_555
C22_7 C21_7 1_555 1_555
H17_7 C22_7 1_555 1_555
C23_7 C14_7 1_555 1_555
H18_7 C23_7 1_555 1_555
C24_3 H19_3 1_555 1_555
C25_7 C2_7 1_555 1_555
C26_7 C12_7 1_555 1_555
O23_5 La1_5 1_555 1_555
H20_5 O23_5 1_555 1_555
H21_5 O23_5 1_555 1_555
C27_5 C1_5 1_555 1_555
H22_5 C27_5 1_555 1_555
C28_5 C8_5 1_555 1_555
C29_5 C39_7 1_555 1_555
C30_7 C20_7 1_555 1_555
H23_5 C30_7 1_555 1_555
C31_5 C1_5 1_555 1_555
C32_3 C24_3 1_555 1_555
H24_3 C32_3 1_555 1_555
C33_7 H25_5 1_555 1_555
C34_7 C26_7 1_555 1_555
C35_5 H26_5 1_555 1_555
C36_7 C14_7 1_555 1_555
C37_5 C9_5 1_555 1_555
H27_5 C37_5 1_555 1_555
O24_7 C38_7 1_555 1_555
C38_7 C13_7 1_555 1_555
C39_7 C7_7 1_555 1_555
C40_7 O15_7 1_555 1_555
C41_5 C29_5 1_555 1_555
H28_5 C41_5 1_555 1_555
C42_5 O8_3 1_555 1_555
C43_7 C30_7 1_555 1_555
C44_7 C23_7 1_555 1_555
H29_7 C44_7 1_555 1_555
C45_5 O10_5 1_555 1_555
C46_7 C6_7 1_555 1_555
H30_7 C46_7 1_555 1_555
C47_5 C29_5 1_555 1_555
C48_5 O16_5 1_555 1_555
H31_5 C48_5 1_555 1_555
C49_5 C15_7 1_555 1_555
H32_5 C49_5 1_555 1_555
C50_5 O11_5 1_555 1_555
C51_5 C34_7 1_555 1_555
C52_5 O12_5 1_555 1_555
C53_5 N2_5 1_555 1_555
H33_5 C53_5 1_555 1_555
H34_5 C53_5 1_555 1_555
H35_5 C53_5 1_555 1_555
C54_5 C42_5 1_555 1_555
C55_5 C35_5 1_555 1_555
C56_5 O20_5 1_555 1_555
H36_5 C56_5 1_555 1_555
C57_5 C41_5 1_555 1_555
H37_5 C57_5 1_555 1_555
C58_5 N2_5 1_555 1_555
H38_5 C58_5 1_555 1_555
H39_5 C58_5 1_555 1_555
H40_5 C58_5 1_555 1_555
C59_5 C54_5 1_555 1_555
H41_5 C59_5 1_555 1_555
C60_5 C47_5 1_555 1_555
H42_5 C60_5 1_555 1_555
C61_5 N1_5 1_555 1_555
H43_5 C61_5 1_555 1_555
H44_5 C61_5 1_555 1_555
H45_5 C61_5 1_555 1_555
C62_5 C57_5 1_555 1_555
H46_5 C62_5 1_555 1_555
C63_5 H47_5 1_555 1_555
C64_5 C63_5 1_555 1_555
H48_5 C64_5 1_555 1_555
C65_5 C59_5 1_555 1_555
C66_5 C55_5 1_555 1_555
C67_5 C66_5 1_555 1_555
H49_5 C67_5 1_555 1_555
C68_5 C63_5 1_555 1_555
H50_5 C68_5 1_555 1_555
C69_5 C51_5 1_555 1_555
H51_5 C69_5 1_555 1_555
C70_5 H52_5 1_555 1_555
C71_5 C69_5 1_555 1_555
C72_7 C26_7 1_555 1_555
C73_7 C72_7 1_555 1_555
H53_7 C73_7 1_555 1_555
C74_7 C73_7 1_555 1_555
H54_7 C74_7 1_555 1_555
C75_7 C70_5 1_555 1_555
H55_7 C75_7 1_555 1_555
C76_5 N1_5 1_555 1_555
H56_7 C76_5 1_555 1_555
H57_7 C76_5 1_555 1_555
H58_5 C76_5 1_555 1_555
H59_5 C27_5 1_555 1_555
H60_5 C35_5 1_555 1_555
O25_3 C81_5 1_555 1_555
O26_3 C87_5 1_555 1_555
C77_5 C27_5 1_555 1_555
O27_5 C87_5 1_555 1_555
C78_5 C79_5 1_555 1_555
C79_5 H61_5 1_555 1_555
C80_5 H62_5 1_555 1_555
C81_5 C77_5 1_555 1_555
C82_3 H63_3 1_555 1_555
C83_5 C79_5 1_555 1_555
C84_5 C77_5 1_555 1_555
C85_3 C82_3 1_555 1_555
H64_3 C85_3 1_555 1_555
C86_5 C80_5 1_555 1_555
H65_5 C86_5 1_555 1_555
C87_5 C78_5 1_555 1_555
O28_3 C88_5 1_555 1_555
O29_3 C89_5 1_555 1_555
O30_3 C88_5 1_555 1_555
C88_5 C90_5 1_555 1_555
C89_5 C90_5 1_555 1_555
C90_5 C92_5 1_555 1_555
C91_5 C35_5 1_555 1_555
C92_5 H66_5 1_555 1_555
C93_5 H67_5 1_555 1_555
C94_5 C93_5 1_555 1_555
H68_5 C94_5 1_555 1_555
C95_5 C92_5 1_555 1_555
C96_5 C91_5 1_555 1_555
C97_5 C96_5 1_555 1_555
H69_5 C97_5 1_555 1_555
C98_5 C93_5 1_555 1_555
H70_5 C98_5 1_555 1_555
La2_3 O8_3 1_555 1_555
O37_5 La2_3 1_555 1_555
O41_5 La2_3 1_555 1_555
N3_5 C137_5 1_555 1_555
O43_5 La2_3 1_555 1_555
H75_5 O43_5 1_555 1_555
H76_5 O43_5 1_555 1_555
N4_5 C132_5 1_555 1_555
O44_5 La2_3 1_555 1_555
O45_5 La2_3 1_555 1_555
H83_5 O45_5 1_555 1_555
H84_5 O45_5 1_555 1_555
O47_5 La2_3 1_555 1_555
H87_5 O47_5 1_555 1_555
H88_5 O47_5 1_555 1_555
C132_5 O41_5 1_555 1_555
H94_5 C132_5 1_555 1_555
C136_5 N4_5 1_555 1_555
H96_5 C136_5 1_555 1_555
H97_5 C136_5 1_555 1_555
H98_5 C136_5 1_555 1_555
C137_5 O44_5 1_555 1_555
H99_5 C137_5 1_555 1_555
C139_5 N4_5 1_555 1_555
H101_5 C139_5 1_555 1_555
H102_5 C139_5 1_555 1_555
H103_5 C139_5 1_555 1_555
C141_5 N3_5 1_555 1_555
H105_5 C141_5 1_555 1_555
H106_5 C141_5 1_555 1_555
H107_5 C141_5 1_555 1_555
C150_5 N3_5 1_555 1_555
H116_5 C150_5 1_555 1_555
La3_3 O28_3 1_555 1_555
Zr5_3 O25_3 1_555 1_555
Zr6_3 O1_3 1_555 1_555
O49_3 Zr2_3 1_555 1_555
O51_3 Zr2_3 1_555 1_555
O55_3 La1_5 1_555 1_555
O58_3 La1_5 1_555 1_555
O3_3 Zr6_3 1_555 1_555
O14_5 La2_3 1_555 1_555
C3_5 C10_5 1_555 1_555
C3_5 C50_5 1_555 1_555
C9_5 C31_5 1_555 1_555
C11_7 C25_7 1_555 1_555
C12_7 C39_7 1_555 1_555
C16_7 C21_7 1_555 1_555
C16_7 C25_7 1_555 1_555
C17_7 C18_7 1_555 1_555
C18_7 C36_7 1_555 1_555
C19_7 C20_7 1_555 1_555
C22_7 C46_7 1_555 1_555
C24_3 C28_5 1_555 1_555
C28_5 C31_5 1_555 1_555
C32_3 C37_5 1_555 1_555
C33_7 C43_7 1_555 1_555
C33_7 C44_7 1_555 1_555
C36_7 C43_7 1_555 1_555
C45_5 C54_5 1_555 1_555
C45_5 C55_5 1_555 1_555
C47_5 C49_5 1_555 1_555
C51_5 C52_5 1_555 1_555
C60_5 C62_5 1_555 1_555
C64_5 C65_5 1_555 1_555
C65_5 C66_5 1_555 1_555
C67_5 C68_5 1_555 1_555
C70_5 C71_5 1_555 1_555
C71_5 C72_7 1_555 1_555
C74_7 C75_7 1_555 1_555
O26_3 Zr5_3 1_555 1_555
C78_5 C81_5 1_555 1_555
C80_5 C84_5 1_555 1_555
C82_3 C83_5 1_555 1_555
C83_5 C84_5 1_555 1_555
C85_3 C86_5 1_555 1_555
O28_3 Zr6_3 1_555 1_555
O29_3 Zr6_3 1_555 1_555
O30_3 La3_3 1_555 1_555
C89_5 C91_5 1_555 1_555
C94_5 C95_5 1_555 1_555
C95_5 C96_5 1_555 1_555
C97_5 C98_5 1_555 1_555
La1_6 O9_6 1_555 1_555
Zr1_6 O2_8 1_555 1_555
Zr2_4 O7_8 1_555 1_555
O1_4 C38_8 1_555 1_555
O2_8 C7_8 1_555 1_555
O3_4 C2_8 1_555 1_555
O4_6 Zr1_6 1_555 1_555
O5_8 Zr1_6 1_555 1_555
O6_8 Zr1_6 1_555 1_555
O7_8 C34_8 1_555 1_555
O8_4 Zr2_4 1_555 1_555
O9_6 C19_8 1_555 1_555
O10_6 Zr2_4 1_555 1_555
O11_6 Zr1_6 1_555 1_555
O12_6 Zr2_4 1_555 1_555
O13_6 C40_8 1_555 1_555
O14_6 C42_6 1_555 1_555
O15_8 Zr1_6 1_555 1_555
O16_6 La1_6 1_555 1_555
C1_6 C10_6 1_555 1_555
O17_6 C50_6 1_555 1_555
C2_8 C13_8 1_555 1_555
N1_6 C56_6 1_555 1_555
C3_6 C8_6 1_555 1_555
C4_8 H1_8 1_555 1_555
O18_8 La1_6 1_555 1_555
H2_8 O18_8 1_555 1_555
H3_8 O18_8 1_555 1_555
C5_8 H4_8 1_555 1_555
O19_6 La1_6 1_555 1_555
H5_6 O19_6 1_555 1_555
H6_6 O19_6 1_555 1_555
C6_8 C4_8 1_555 1_555
H7_8 C6_8 1_555 1_555
C7_8 C15_8 1_555 1_555
C8_6 H8_6 1_555 1_555
C9_6 H9_6 1_555 1_555
C10_6 O4_6 1_555 1_555
C11_8 H10_8 1_555 1_555
H11_8 C11_8 1_555 1_555
N2_6 C48_6 1_555 1_555
C12_8 H12_8 1_555 1_555
H13_8 C12_8 1_555 1_555
C13_8 C5_8 1_555 1_555
O20_6 La1_6 1_555 1_555
C14_8 H14_8 1_555 1_555
C15_8 C40_8 1_555 1_555
C16_8 C4_8 1_555 1_555
C17_8 O5_8 1_555 1_555
O21_6 La1_6 1_555 1_555
H15_6 O21_6 1_555 1_555
H16_6 O21_6 1_555 1_555
C18_8 C11_8 1_555 1_555
O22_6 C52_6 1_555 1_555
C19_8 O6_8 1_555 1_555
C20_8 C17_8 1_555 1_555
C21_8 C5_8 1_555 1_555
C22_8 C21_8 1_555 1_555
H17_8 C22_8 1_555 1_555
C23_8 C14_8 1_555 1_555
H18_8 C23_8 1_555 1_555
C24_4 H19_4 1_555 1_555
C25_8 C2_8 1_555 1_555
C26_8 C12_8 1_555 1_555
O23_6 La1_6 1_555 1_555
H20_6 O23_6 1_555 1_555
H21_6 O23_6 1_555 1_555
C27_6 C1_6 1_555 1_555
H22_6 C27_6 1_555 1_555
C28_6 C8_6 1_555 1_555
C29_6 C39_8 1_555 1_555
C30_8 C20_8 1_555 1_555
H23_6 C30_8 1_555 1_555
C31_6 C1_6 1_555 1_555
C32_4 C24_4 1_555 1_555
H24_4 C32_4 1_555 1_555
C33_8 H25_6 1_555 1_555
C34_8 C26_8 1_555 1_555
C35_6 H26_6 1_555 1_555
C36_8 C14_8 1_555 1_555
C37_6 C9_6 1_555 1_555
H27_6 C37_6 1_555 1_555
O24_8 C38_8 1_555 1_555
C38_8 C13_8 1_555 1_555
C39_8 C7_8 1_555 1_555
C40_8 O15_8 1_555 1_555
C41_6 C29_6 1_555 1_555
H28_6 C41_6 1_555 1_555
C42_6 O8_4 1_555 1_555
C43_8 C30_8 1_555 1_555
C44_8 C23_8 1_555 1_555
H29_8 C44_8 1_555 1_555
C45_6 O10_6 1_555 1_555
C46_8 C6_8 1_555 1_555
H30_8 C46_8 1_555 1_555
C47_6 C29_6 1_555 1_555
C48_6 O16_6 1_555 1_555
H31_6 C48_6 1_555 1_555
C49_6 C15_8 1_555 1_555
H32_6 C49_6 1_555 1_555
C50_6 O11_6 1_555 1_555
C51_6 C34_8 1_555 1_555
C52_6 O12_6 1_555 1_555
C53_6 N2_6 1_555 1_555
H33_6 C53_6 1_555 1_555
H34_6 C53_6 1_555 1_555
H35_6 C53_6 1_555 1_555
C54_6 C42_6 1_555 1_555
C55_6 C35_6 1_555 1_555
C56_6 O20_6 1_555 1_555
H36_6 C56_6 1_555 1_555
C57_6 C41_6 1_555 1_555
H37_6 C57_6 1_555 1_555
C58_6 N2_6 1_555 1_555
H38_6 C58_6 1_555 1_555
H39_6 C58_6 1_555 1_555
H40_6 C58_6 1_555 1_555
C59_6 C54_6 1_555 1_555
H41_6 C59_6 1_555 1_555
C60_6 C47_6 1_555 1_555
H42_6 C60_6 1_555 1_555
C61_6 N1_6 1_555 1_555
H43_6 C61_6 1_555 1_555
H44_6 C61_6 1_555 1_555
H45_6 C61_6 1_555 1_555
C62_6 C57_6 1_555 1_555
H46_6 C62_6 1_555 1_555
C63_6 H47_6 1_555 1_555
C64_6 C63_6 1_555 1_555
H48_6 C64_6 1_555 1_555
C65_6 C59_6 1_555 1_555
C66_6 C55_6 1_555 1_555
C67_6 C66_6 1_555 1_555
H49_6 C67_6 1_555 1_555
C68_6 C63_6 1_555 1_555
H50_6 C68_6 1_555 1_555
C69_6 C51_6 1_555 1_555
H51_6 C69_6 1_555 1_555
C70_6 H52_6 1_555 1_555
C71_6 C69_6 1_555 1_555
C72_8 C26_8 1_555 1_555
C73_8 C72_8 1_555 1_555
H53_8 C73_8 1_555 1_555
C74_8 C73_8 1_555 1_555
H54_8 C74_8 1_555 1_555
C75_8 C70_6 1_555 1_555
H55_8 C75_8 1_555 1_555
C76_6 N1_6 1_555 1_555
H56_8 C76_6 1_555 1_555
H57_8 C76_6 1_555 1_555
H58_6 C76_6 1_555 1_555
H59_6 C27_6 1_555 1_555
H60_6 C35_6 1_555 1_555
O25_4 C81_6 1_555 1_555
O26_4 C87_6 1_555 1_555
C77_6 C27_6 1_555 1_555
O27_6 C87_6 1_555 1_555
C78_6 C79_6 1_555 1_555
C79_6 H61_6 1_555 1_555
C80_6 H62_6 1_555 1_555
C81_6 C77_6 1_555 1_555
C82_4 H63_4 1_555 1_555
C83_6 C79_6 1_555 1_555
C84_6 C77_6 1_555 1_555
C85_4 C82_4 1_555 1_555
H64_4 C85_4 1_555 1_555
C86_6 C80_6 1_555 1_555
H65_6 C86_6 1_555 1_555
C87_6 C78_6 1_555 1_555
O28_4 C88_6 1_555 1_555
O29_4 C89_6 1_555 1_555
O30_4 C88_6 1_555 1_555
C88_6 C90_6 1_555 1_555
C89_6 C90_6 1_555 1_555
C90_6 C92_6 1_555 1_555
C91_6 C35_6 1_555 1_555
C92_6 H66_6 1_555 1_555
C93_6 H67_6 1_555 1_555
C94_6 C93_6 1_555 1_555
H68_6 C94_6 1_555 1_555
C95_6 C92_6 1_555 1_555
C96_6 C91_6 1_555 1_555
C97_6 C96_6 1_555 1_555
H69_6 C97_6 1_555 1_555
C98_6 C93_6 1_555 1_555
H70_6 C98_6 1_555 1_555
La2_4 O8_4 1_555 1_555
O37_6 La2_4 1_555 1_555
O41_6 La2_4 1_555 1_555
N3_6 C137_6 1_555 1_555
O43_6 La2_4 1_555 1_555
H75_6 O43_6 1_555 1_555
H76_6 O43_6 1_555 1_555
N4_6 C132_6 1_555 1_555
O44_6 La2_4 1_555 1_555
O45_6 La2_4 1_555 1_555
H83_6 O45_6 1_555 1_555
H84_6 O45_6 1_555 1_555
O47_6 La2_4 1_555 1_555
H87_6 O47_6 1_555 1_555
H88_6 O47_6 1_555 1_555
C132_6 O41_6 1_555 1_555
H94_6 C132_6 1_555 1_555
C136_6 N4_6 1_555 1_555
H96_6 C136_6 1_555 1_555
H97_6 C136_6 1_555 1_555
H98_6 C136_6 1_555 1_555
C137_6 O44_6 1_555 1_555
H99_6 C137_6 1_555 1_555
C139_6 N4_6 1_555 1_555
H101_6 C139_6 1_555 1_555
H102_6 C139_6 1_555 1_555
H103_6 C139_6 1_555 1_555
C141_6 N3_6 1_555 1_555
H105_6 C141_6 1_555 1_555
H106_6 C141_6 1_555 1_555
H107_6 C141_6 1_555 1_555
C150_6 N3_6 1_555 1_555
H116_6 C150_6 1_555 1_555
La3_4 O28_4 1_555 1_555
Zr5_4 O25_4 1_555 1_555
Zr6_4 O1_4 1_555 1_555
O49_4 Zr2_4 1_555 1_555
O51_4 Zr2_4 1_555 1_555
O54_3 La1_6 1_555 1_555
O58_4 La1_6 1_555 1_555
O3_4 Zr6_4 1_555 1_555
O14_6 La2_4 1_555 1_555
C3_6 C10_6 1_555 1_555
C3_6 C50_6 1_555 1_555
C9_6 C31_6 1_555 1_555
C11_8 C25_8 1_555 1_555
C12_8 C39_8 1_555 1_555
C16_8 C21_8 1_555 1_555
C16_8 C25_8 1_555 1_555
C17_8 C18_8 1_555 1_555
C18_8 C36_8 1_555 1_555
C19_8 C20_8 1_555 1_555
C22_8 C46_8 1_555 1_555
C24_4 C28_6 1_555 1_555
C28_6 C31_6 1_555 1_555
C32_4 C37_6 1_555 1_555
C33_8 C43_8 1_555 1_555
C33_8 C44_8 1_555 1_555
C36_8 C43_8 1_555 1_555
C45_6 C54_6 1_555 1_555
C45_6 C55_6 1_555 1_555
C47_6 C49_6 1_555 1_555
C51_6 C52_6 1_555 1_555
C60_6 C62_6 1_555 1_555
C64_6 C65_6 1_555 1_555
C65_6 C66_6 1_555 1_555
C67_6 C68_6 1_555 1_555
C70_6 C71_6 1_555 1_555
C71_6 C72_8 1_555 1_555
C74_8 C75_8 1_555 1_555
O26_4 Zr5_4 1_555 1_555
C78_6 C81_6 1_555 1_555
C80_6 C84_6 1_555 1_555
C82_4 C83_6 1_555 1_555
C83_6 C84_6 1_555 1_555
C85_4 C86_6 1_555 1_555
O28_4 Zr6_4 1_555 1_555
O29_4 Zr6_4 1_555 1_555
O30_4 La3_4 1_555 1_555
C89_6 C91_6 1_555 1_555
C94_6 C95_6 1_555 1_555
C95_6 C96_6 1_555 1_555
C97_6 C98_6 1_555 1_555
Zr3_4 O32_4 1_555 1_555
Zr4_4 O36_4 1_555 1_555
O32_4 C103_4 1_555 1_555
O34_4 Zr3_4 1_555 1_555
O35_4 Zr3_4 1_555 1_555
O36_4 C122_4 1_555 1_555
O38_6 Zr4_4 1_555 1_555
O39_6 C126_4 1_555 1_555
O40_4 Zr3_4 1_555 1_555
C100_4 H71_4 1_555 1_555
H72_4 O42_4 1_555 1_555
H73_4 O42_4 1_555 1_555
C102_4 C100_4 1_555 1_555
H77_4 C102_4 1_555 1_555
C103_4 C108_4 1_555 1_555
C104_4 H78_4 1_555 1_555
H79_4 C104_4 1_555 1_555
C105_4 H80_4 1_555 1_555
H81_4 C105_4 1_555 1_555
C107_4 H82_4 1_555 1_555
C108_4 C126_4 1_555 1_555
C110_4 O34_4 1_555 1_555
C111_4 C104_4 1_555 1_555
O46_6 C135_6 1_555 1_555
C112_4 O35_4 1_555 1_555
C113_4 C110_4 1_555 1_555
C116_4 C107_4 1_555 1_555
H86_4 C116_4 1_555 1_555
C118_4 C105_4 1_555 1_555
C119_6 C125_4 1_555 1_555
C120_4 C113_4 1_555 1_555
C122_4 C118_4 1_555 1_555
C123_4 C107_4 1_555 1_555
C125_4 C103_4 1_555 1_555
C126_4 O40_4 1_555 1_555
C127_6 C119_6 1_555 1_555
H91_6 C127_6 1_555 1_555
C128_4 C120_4 1_555 1_555
C129_4 C116_4 1_555 1_555
H92_4 C129_4 1_555 1_555
C131_6 C119_6 1_555 1_555
C133_6 C108_4 1_555 1_555
H95_6 C133_6 1_555 1_555
C134_6 C122_4 1_555 1_555
C135_6 O38_6 1_555 1_555
C138_6 C127_6 1_555 1_555
H100_6 C138_6 1_555 1_555
C140_6 C131_6 1_555 1_555
H104_6 C140_6 1_555 1_555
C142_6 C138_6 1_555 1_555
H108_6 C142_6 1_555 1_555
C143_6 C134_6 1_555 1_555
H109_6 C143_6 1_555 1_555
C144_6 H110_6 1_555 1_555
C145_6 C143_6 1_555 1_555
C146_4 C118_4 1_555 1_555
C147_4 C146_4 1_555 1_555
H111_4 C147_4 1_555 1_555
C148_4 C147_4 1_555 1_555
H112_4 C148_4 1_555 1_555
C149_4 C144_6 1_555 1_555
H113_4 C149_4 1_555 1_555
O50_4 Zr4_4 1_555 1_555
O52_4 Zr4_4 1_555 1_555
O53_4 Zr3_4 1_555 1_555
O55_3 Zr4_4 1_555 1_555
O56_4 Zr4_4 1_555 1_555
O57_4 Zr3_4 1_555 1_555
O33_4 Zr7_4 1_555 1_555
C104_4 C117_4 1_555 1_555
C105_4 C125_4 1_555 1_555
C110_4 C111_4 1_555 1_555
C111_4 C123_4 1_555 1_555
C112_4 C113_4 1_555 1_555
C121_4 C128_4 1_555 1_555
C121_4 C129_4 1_555 1_555
C123_4 C128_4 1_555 1_555
C131_6 C133_6 1_555 1_555
C134_6 C135_6 1_555 1_555
C140_6 C142_6 1_555 1_555
C144_6 C145_6 1_555 1_555
C145_6 C146_4 1_555 1_555
C148_4 C149_4 1_555 1_555
O31_3 C124_3 1_555 1_555
C99_3 C106_3 1_555 1_555
C101_3 H74_3 1_555 1_555
C106_3 C101_3 1_555 1_555
C114_3 C101_3 1_555 1_555
C115_3 C114_3 1_555 1_555
H85_3 C115_3 1_555 1_555
O48_3 C124_3 1_555 1_555
C124_3 C106_3 1_555 1_555
H93_3 C130_3 1_555 1_555
C109_3 C114_3 1_555 1_555
C115_3 C130_3 1_555 1_555
O31_4 C124_4 1_555 1_555
C99_4 C106_4 1_555 1_555
C101_4 H74_4 1_555 1_555
C106_4 C101_4 1_555 1_555
C114_4 C101_4 1_555 1_555
C115_4 C114_4 1_555 1_555
H85_4 C115_4 1_555 1_555
O48_4 C124_4 1_555 1_555
C124_4 C106_4 1_555 1_555
H93_4 C130_4 1_555 1_555
C109_4 C114_4 1_555 1_555
C115_4 C130_4 1_555 1_555
O22_7 C52_7 1_555 1_555
C41_7 C29_7 1_555 1_555
H28_7 C41_7 1_555 1_555
C47_7 C29_7 1_555 1_555
H32_7 C49_7 1_555 1_555
C52_7 O12_7 1_555 1_555
C57_7 C41_7 1_555 1_555
H37_7 C57_7 1_555 1_555
C60_7 C47_7 1_555 1_555
H42_7 C60_7 1_555 1_555
C62_7 C57_7 1_555 1_555
H46_7 C62_7 1_555 1_555
C69_7 C51_7 1_555 1_555
H51_7 C69_7 1_555 1_555
C70_7 H52_7 1_555 1_555
C71_7 C69_7 1_555 1_555
La2_5 O8_5 1_555 1_555
Zr3_5 O32_5 1_555 1_555
Zr7_3 O36_5 1_555 1_555
O50_3 C124_5 1_555 1_555
O32_5 C103_5 1_555 1_555
O52_3 C99_5 1_555 1_555
O34_5 Zr3_5 1_555 1_555
O35_5 Zr3_5 1_555 1_555
O36_5 C122_5 1_555 1_555
O37_7 La2_5 1_555 1_555
O40_5 Zr3_5 1_555 1_555
O41_7 La2_5 1_555 1_555
C99_5 C106_5 1_555 1_555
N3_7 C137_7 1_555 1_555
C100_5 H71_5 1_555 1_555
O42_5 La2_5 1_555 1_555
H72_5 O42_5 1_555 1_555
H73_5 O42_5 1_555 1_555
C101_5 H74_5 1_555 1_555
O43_7 La2_5 1_555 1_555
H75_7 O43_7 1_555 1_555
H76_7 O43_7 1_555 1_555
C102_5 C100_5 1_555 1_555
H77_5 C102_5 1_555 1_555
C103_5 C108_5 1_555 1_555
C104_5 H78_5 1_555 1_555
H79_5 C104_5 1_555 1_555
N4_7 C132_7 1_555 1_555
C105_5 H80_5 1_555 1_555
H81_5 C105_5 1_555 1_555
C106_5 C101_5 1_555 1_555
O44_7 La2_5 1_555 1_555
C107_5 H82_5 1_555 1_555
C108_5 C126_5 1_555 1_555
C109_5 C100_5 1_555 1_555
C110_5 O34_5 1_555 1_555
O45_7 La2_5 1_555 1_555
H83_7 O45_7 1_555 1_555
H84_7 O45_7 1_555 1_555
C111_5 C104_5 1_555 1_555
C112_5 O35_5 1_555 1_555
C113_5 C110_5 1_555 1_555
C114_5 C101_5 1_555 1_555
C115_5 C114_5 1_555 1_555
H85_5 C115_5 1_555 1_555
C116_5 C107_5 1_555 1_555
H86_5 C116_5 1_555 1_555
C117_5 C99_5 1_555 1_555
C118_5 C105_5 1_555 1_555
O47_7 La2_5 1_555 1_555
H87_7 O47_7 1_555 1_555
H88_7 O47_7 1_555 1_555
C120_5 C113_5 1_555 1_555
H89_7 C120_5 1_555 1_555
C121_5 H90_7 1_555 1_555
C122_5 C118_5 1_555 1_555
C123_5 C107_5 1_555 1_555
O48_5 C124_5 1_555 1_555
C124_5 C106_5 1_555 1_555
C125_5 C103_5 1_555 1_555
C126_5 O40_5 1_555 1_555
C128_5 C120_5 1_555 1_555
C129_5 C116_5 1_555 1_555
H92_5 C129_5 1_555 1_555
C130_5 C102_5 1_555 1_555
H93_5 C130_5 1_555 1_555
C132_7 O41_7 1_555 1_555
H94_7 C132_7 1_555 1_555
C136_7 N4_7 1_555 1_555
H96_7 C136_7 1_555 1_555
H97_7 C136_7 1_555 1_555
H98_7 C136_7 1_555 1_555
C137_7 O44_7 1_555 1_555
H99_7 C137_7 1_555 1_555
C139_7 N4_7 1_555 1_555
H101_7 C139_7 1_555 1_555
H102_7 C139_7 1_555 1_555
H103_7 C139_7 1_555 1_555
C141_7 N3_7 1_555 1_555
H105_7 C141_7 1_555 1_555
H106_7 C141_7 1_555 1_555
H107_7 C141_7 1_555 1_555
C146_5 C118_5 1_555 1_555
C147_5 C146_5 1_555 1_555
H111_5 C147_5 1_555 1_555
C148_5 C147_5 1_555 1_555
H112_5 C148_5 1_555 1_555
H113_5 C149_5 1_555 1_555
C150_7 N3_7 1_555 1_555
H114_5 C150_7 1_555 1_555
H115_5 C150_7 1_555 1_555
H116_7 C150_7 1_555 1_555
O53_5 Zr3_5 1_555 1_555
O56_5 Zr7_3 1_555 1_555
O57_5 Zr3_5 1_555 1_555
C47_7 C49_7 1_555 1_555
C51_7 C52_7 1_555 1_555
C60_7 C62_7 1_555 1_555
C70_7 C71_7 1_555 1_555
O37_7 C112_5 1_555 1_555
C104_5 C117_5 1_555 1_555
C105_5 C125_5 1_555 1_555
C109_5 C114_5 1_555 1_555
C109_5 C117_5 1_555 1_555
C110_5 C111_5 1_555 1_555
C111_5 C123_5 1_555 1_555
C112_5 C113_5 1_555 1_555
C115_5 C130_5 1_555 1_555
C121_5 C128_5 1_555 1_555
C121_5 C129_5 1_555 1_555
C123_5 C128_5 1_555 1_555
C148_5 C149_5 1_555 1_555
O22_8 C52_8 1_555 1_555
C41_8 C29_8 1_555 1_555
H28_8 C41_8 1_555 1_555
C47_8 C29_8 1_555 1_555
H32_8 C49_8 1_555 1_555
C52_8 O12_8 1_555 1_555
C57_8 C41_8 1_555 1_555
H37_8 C57_8 1_555 1_555
C60_8 C47_8 1_555 1_555
H42_8 C60_8 1_555 1_555
C62_8 C57_8 1_555 1_555
H46_8 C62_8 1_555 1_555
C69_8 C51_8 1_555 1_555
H51_8 C69_8 1_555 1_555
C70_8 H52_8 1_555 1_555
C71_8 C69_8 1_555 1_555
La2_6 O8_6 1_555 1_555
Zr3_6 O32_6 1_555 1_555
Zr7_4 O36_6 1_555 1_555
O50_4 C124_6 1_555 1_555
O32_6 C103_6 1_555 1_555
O52_4 C99_6 1_555 1_555
O34_6 Zr3_6 1_555 1_555
O35_6 Zr3_6 1_555 1_555
O36_6 C122_6 1_555 1_555
O37_8 La2_6 1_555 1_555
O40_6 Zr3_6 1_555 1_555
O41_8 La2_6 1_555 1_555
C99_6 C106_6 1_555 1_555
N3_8 C137_8 1_555 1_555
C100_6 H71_6 1_555 1_555
O42_6 La2_6 1_555 1_555
H72_6 O42_6 1_555 1_555
H73_6 O42_6 1_555 1_555
C101_6 H74_6 1_555 1_555
O43_8 La2_6 1_555 1_555
H75_8 O43_8 1_555 1_555
H76_8 O43_8 1_555 1_555
C102_6 C100_6 1_555 1_555
H77_6 C102_6 1_555 1_555
C103_6 C108_6 1_555 1_555
C104_6 H78_6 1_555 1_555
H79_6 C104_6 1_555 1_555
N4_8 C132_8 1_555 1_555
C105_6 H80_6 1_555 1_555
H81_6 C105_6 1_555 1_555
C106_6 C101_6 1_555 1_555
O44_8 La2_6 1_555 1_555
C107_6 H82_6 1_555 1_555
C108_6 C126_6 1_555 1_555
C109_6 C100_6 1_555 1_555
C110_6 O34_6 1_555 1_555
O45_8 La2_6 1_555 1_555
H83_8 O45_8 1_555 1_555
H84_8 O45_8 1_555 1_555
C111_6 C104_6 1_555 1_555
C112_6 O35_6 1_555 1_555
C113_6 C110_6 1_555 1_555
C114_6 C101_6 1_555 1_555
C115_6 C114_6 1_555 1_555
H85_6 C115_6 1_555 1_555
C116_6 C107_6 1_555 1_555
H86_6 C116_6 1_555 1_555
C117_6 C99_6 1_555 1_555
C118_6 C105_6 1_555 1_555
O47_8 La2_6 1_555 1_555
H87_8 O47_8 1_555 1_555
H88_8 O47_8 1_555 1_555
C120_6 C113_6 1_555 1_555
H89_8 C120_6 1_555 1_555
C121_6 H90_8 1_555 1_555
C122_6 C118_6 1_555 1_555
C123_6 C107_6 1_555 1_555
O48_6 C124_6 1_555 1_555
C124_6 C106_6 1_555 1_555
C125_6 C103_6 1_555 1_555
C126_6 O40_6 1_555 1_555
C128_6 C120_6 1_555 1_555
C129_6 C116_6 1_555 1_555
H92_6 C129_6 1_555 1_555
C130_6 C102_6 1_555 1_555
H93_6 C130_6 1_555 1_555
C132_8 O41_8 1_555 1_555
H94_8 C132_8 1_555 1_555
C136_8 N4_8 1_555 1_555
H96_8 C136_8 1_555 1_555
H97_8 C136_8 1_555 1_555
H98_8 C136_8 1_555 1_555
C137_8 O44_8 1_555 1_555
H99_8 C137_8 1_555 1_555
C139_8 N4_8 1_555 1_555
H101_8 C139_8 1_555 1_555
H102_8 C139_8 1_555 1_555
H103_8 C139_8 1_555 1_555
C141_8 N3_8 1_555 1_555
H105_8 C141_8 1_555 1_555
H106_8 C141_8 1_555 1_555
H107_8 C141_8 1_555 1_555
C146_6 C118_6 1_555 1_555
C147_6 C146_6 1_555 1_555
H111_6 C147_6 1_555 1_555
C148_6 C147_6 1_555 1_555
H112_6 C148_6 1_555 1_555
H113_6 C149_6 1_555 1_555
C150_8 N3_8 1_555 1_555
H114_6 C150_8 1_555 1_555
H115_6 C150_8 1_555 1_555
H116_8 C150_8 1_555 1_555
O53_6 Zr3_6 1_555 1_555
O56_6 Zr7_4 1_555 1_555
O57_6 Zr3_6 1_555 1_555
C47_8 C49_8 1_555 1_555
C51_8 C52_8 1_555 1_555
C60_8 C62_8 1_555 1_555
C70_8 C71_8 1_555 1_555
O37_8 C112_6 1_555 1_555
C104_6 C117_6 1_555 1_555
C105_6 C125_6 1_555 1_555
C109_6 C114_6 1_555 1_555
C109_6 C117_6 1_555 1_555
C110_6 C111_6 1_555 1_555
C111_6 C123_6 1_555 1_555
C112_6 C113_6 1_555 1_555
C115_6 C130_6 1_555 1_555
C121_6 C128_6 1_555 1_555
C121_6 C129_6 1_555 1_555
C123_6 C128_6 1_555 1_555
C148_6 C149_6 1_555 1_555
La3_4 O9_7 1_555 1_555
O16_7 La3_4 1_555 1_555
N1_7 C56_7 1_555 1_555
O19_7 La3_4 1_555 1_555
H5_7 O19_7 1_555 1_555
H6_7 O19_7 1_555 1_555
N2_7 C48_7 1_555 1_555
O20_7 La3_4 1_555 1_555
O21_7 La3_4 1_555 1_555
H15_7 O21_7 1_555 1_555
H16_7 O21_7 1_555 1_555
O23_7 La3_4 1_555 1_555
H20_7 O23_7 1_555 1_555
H21_7 O23_7 1_555 1_555
C48_7 O16_7 1_555 1_555
H31_7 C48_7 1_555 1_555
C53_7 N2_7 1_555 1_555
H33_7 C53_7 1_555 1_555
H34_7 C53_7 1_555 1_555
H35_7 C53_7 1_555 1_555
C56_7 O20_7 1_555 1_555
H36_7 C56_7 1_555 1_555
C58_7 N2_7 1_555 1_555
H38_7 C58_7 1_555 1_555
H39_7 C58_7 1_555 1_555
H40_7 C58_7 1_555 1_555
C61_7 N1_7 1_555 1_555
H43_7 C61_7 1_555 1_555
H44_7 C61_7 1_555 1_555
H45_7 C61_7 1_555 1_555
C76_7 N1_7 1_555 1_555
H58_7 C76_7 1_555 1_555
Zr5_3 O32_7 1_555 1_555
Zr6_3 O36_7 1_555 1_555
O49_3 C124_7 1_555 1_555
O32_7 C103_7 1_555 1_555
O51_3 C99_7 1_555 1_555
O34_7 Zr5_3 1_555 1_555
O35_7 Zr5_3 1_555 1_555
O36_7 C122_7 1_555 1_555
O38_7 Zr6_3 1_555 1_555
O39_7 C126_7 1_555 1_555
O40_7 Zr5_3 1_555 1_555
C99_7 C106_7 1_555 1_555
C100_7 H71_7 1_555 1_555
H72_7 O42_7 1_555 1_555
H73_7 O42_7 1_555 1_555
C101_7 H74_7 1_555 1_555
C102_7 C100_7 1_555 1_555
H77_7 C102_7 1_555 1_555
C103_7 C108_7 1_555 1_555
C104_7 H78_7 1_555 1_555
H79_7 C104_7 1_555 1_555
C105_7 H80_7 1_555 1_555
H81_7 C105_7 1_555 1_555
C106_7 C101_7 1_555 1_555
C107_7 H82_7 1_555 1_555
C108_7 C126_7 1_555 1_555
C109_7 C100_7 1_555 1_555
C110_7 O34_7 1_555 1_555
C111_7 C104_7 1_555 1_555
O46_7 C135_7 1_555 1_555
C112_7 O35_7 1_555 1_555
C113_7 C110_7 1_555 1_555
C114_7 C101_7 1_555 1_555
C115_7 C114_7 1_555 1_555
H85_7 C115_7 1_555 1_555
C116_7 C107_7 1_555 1_555
H86_7 C116_7 1_555 1_555
C117_7 C99_7 1_555 1_555
C118_7 C105_7 1_555 1_555
C119_7 C125_7 1_555 1_555
C120_7 C113_7 1_555 1_555
C122_7 C118_7 1_555 1_555
C123_7 C107_7 1_555 1_555
O48_7 C124_7 1_555 1_555
C124_7 C106_7 1_555 1_555
C125_7 C103_7 1_555 1_555
C126_7 O40_7 1_555 1_555
C127_7 C119_7 1_555 1_555
H91_7 C127_7 1_555 1_555
C128_7 C120_7 1_555 1_555
C129_7 C116_7 1_555 1_555
H92_7 C129_7 1_555 1_555
C130_7 C102_7 1_555 1_555
H93_7 C130_7 1_555 1_555
C131_7 C119_7 1_555 1_555
C133_7 C108_7 1_555 1_555
H95_7 C133_7 1_555 1_555
C134_7 C122_7 1_555 1_555
C135_7 O38_7 1_555 1_555
C138_7 C127_7 1_555 1_555
H100_7 C138_7 1_555 1_555
C140_7 C131_7 1_555 1_555
H104_7 C140_7 1_555 1_555
C142_7 C138_7 1_555 1_555
H108_7 C142_7 1_555 1_555
C143_7 C134_7 1_555 1_555
H109_7 C143_7 1_555 1_555
C144_7 H110_7 1_555 1_555
C145_7 C143_7 1_555 1_555
C146_7 C118_7 1_555 1_555
C147_7 C146_7 1_555 1_555
H111_7 C147_7 1_555 1_555
C148_7 C147_7 1_555 1_555
H112_7 C148_7 1_555 1_555
C149_7 C144_7 1_555 1_555
H113_7 C149_7 1_555 1_555
C104_7 C117_7 1_555 1_555
C105_7 C125_7 1_555 1_555
C109_7 C114_7 1_555 1_555
C109_7 C117_7 1_555 1_555
C110_7 C111_7 1_555 1_555
C111_7 C123_7 1_555 1_555
C112_7 C113_7 1_555 1_555
C115_7 C130_7 1_555 1_555
C121_7 C128_7 1_555 1_555
C121_7 C129_7 1_555 1_555
C123_7 C128_7 1_555 1_555
C131_7 C133_7 1_555 1_555
C134_7 C135_7 1_555 1_555
C140_7 C142_7 1_555 1_555
C144_7 C145_7 1_555 1_555
C145_7 C146_7 1_555 1_555
C148_7 C149_7 1_555 1_555
Zr5_4 O32_8 1_555 1_555
Zr6_4 O36_8 1_555 1_555
O49_4 C124_8 1_555 1_555
O32_8 C103_8 1_555 1_555
O51_4 C99_8 1_555 1_555
O34_8 Zr5_4 1_555 1_555
O35_8 Zr5_4 1_555 1_555
O36_8 C122_8 1_555 1_555
O38_8 Zr6_4 1_555 1_555
O39_8 C126_8 1_555 1_555
O40_8 Zr5_4 1_555 1_555
C99_8 C106_8 1_555 1_555
C100_8 H71_8 1_555 1_555
H72_8 O42_8 1_555 1_555
H73_8 O42_8 1_555 1_555
C101_8 H74_8 1_555 1_555
C102_8 C100_8 1_555 1_555
H77_8 C102_8 1_555 1_555
C103_8 C108_8 1_555 1_555
C104_8 H78_8 1_555 1_555
H79_8 C104_8 1_555 1_555
C105_8 H80_8 1_555 1_555
H81_8 C105_8 1_555 1_555
C106_8 C101_8 1_555 1_555
C107_8 H82_8 1_555 1_555
C108_8 C126_8 1_555 1_555
C109_8 C100_8 1_555 1_555
C110_8 O34_8 1_555 1_555
C111_8 C104_8 1_555 1_555
O46_8 C135_8 1_555 1_555
C112_8 O35_8 1_555 1_555
C113_8 C110_8 1_555 1_555
C114_8 C101_8 1_555 1_555
C115_8 C114_8 1_555 1_555
H85_8 C115_8 1_555 1_555
C116_8 C107_8 1_555 1_555
H86_8 C116_8 1_555 1_555
C117_8 C99_8 1_555 1_555
C118_8 C105_8 1_555 1_555
C119_8 C125_8 1_555 1_555
C120_8 C113_8 1_555 1_555
C122_8 C118_8 1_555 1_555
C123_8 C107_8 1_555 1_555
O48_8 C124_8 1_555 1_555
C124_8 C106_8 1_555 1_555
C125_8 C103_8 1_555 1_555
C126_8 O40_8 1_555 1_555
C127_8 C119_8 1_555 1_555
H91_8 C127_8 1_555 1_555
C128_8 C120_8 1_555 1_555
C129_8 C116_8 1_555 1_555
H92_8 C129_8 1_555 1_555
C130_8 C102_8 1_555 1_555
H93_8 C130_8 1_555 1_555
C131_8 C119_8 1_555 1_555
C133_8 C108_8 1_555 1_555
H95_8 C133_8 1_555 1_555
C134_8 C122_8 1_555 1_555
C135_8 O38_8 1_555 1_555
C138_8 C127_8 1_555 1_555
H100_8 C138_8 1_555 1_555
C140_8 C131_8 1_555 1_555
H104_8 C140_8 1_555 1_555
C142_8 C138_8 1_555 1_555
H108_8 C142_8 1_555 1_555
C143_8 C134_8 1_555 1_555
H109_8 C143_8 1_555 1_555
C144_8 H110_8 1_555 1_555
C145_8 C143_8 1_555 1_555
C146_8 C118_8 1_555 1_555
C147_8 C146_8 1_555 1_555
H111_8 C147_8 1_555 1_555
C148_8 C147_8 1_555 1_555
H112_8 C148_8 1_555 1_555
C149_8 C144_8 1_555 1_555
H113_8 C149_8 1_555 1_555
C104_8 C117_8 1_555 1_555
C105_8 C125_8 1_555 1_555
C109_8 C114_8 1_555 1_555
C109_8 C117_8 1_555 1_555
C110_8 C111_8 1_555 1_555
C111_8 C123_8 1_555 1_555
C112_8 C113_8 1_555 1_555
C115_8 C130_8 1_555 1_555
C121_8 C128_8 1_555 1_555
C121_8 C129_8 1_555 1_555
C123_8 C128_8 1_555 1_555
C131_8 C133_8 1_555 1_555
C134_8 C135_8 1_555 1_555
C140_8 C142_8 1_555 1_555
C144_8 C145_8 1_555 1_555
C145_8 C146_8 1_555 1_555
C148_8 C149_8 1_555 1_555
La3_3 O9_8 1_555 1_555
O16_8 La3_3 1_555 1_555
N1_8 C56_8 1_555 1_555
O19_8 La3_3 1_555 1_555
H5_8 O19_8 1_555 1_555
H6_8 O19_8 1_555 1_555
N2_8 C48_8 1_555 1_555
O20_8 La3_3 1_555 1_555
O21_8 La3_3 1_555 1_555
H15_8 O21_8 1_555 1_555
H16_8 O21_8 1_555 1_555
O23_8 La3_3 1_555 1_555
H20_8 O23_8 1_555 1_555
H21_8 O23_8 1_555 1_555
C48_8 O16_8 1_555 1_555
H31_8 C48_8 1_555 1_555
C53_8 N2_8 1_555 1_555
H33_8 C53_8 1_555 1_555
H34_8 C53_8 1_555 1_555
H35_8 C53_8 1_555 1_555
C56_8 O20_8 1_555 1_555
H36_8 C56_8 1_555 1_555
C58_8 N2_8 1_555 1_555
H38_8 C58_8 1_555 1_555
H39_8 C58_8 1_555 1_555
H40_8 C58_8 1_555 1_555
C61_8 N1_8 1_555 1_555
H43_8 C61_8 1_555 1_555
H44_8 C61_8 1_555 1_555
H45_8 C61_8 1_555 1_555
C76_8 N1_8 1_555 1_555
H58_8 C76_8 1_555 1_555
O58_4 C42_7 1_555 1_555
C1_7 C10_7 1_555 1_555
O17_7 C50_7 1_555 1_555
C3_7 C8_7 1_555 1_555
C8_7 H8_7 1_555 1_555
C9_7 H9_7 1_555 1_555
C10_7 O53_3 1_555 1_555
C27_7 C1_7 1_555 1_555
H22_7 C27_7 1_555 1_555
C28_7 C8_7 1_555 1_555
C31_7 C1_7 1_555 1_555
C35_7 H26_7 1_555 1_555
C37_7 C9_7 1_555 1_555
H27_7 C37_7 1_555 1_555
C42_7 O54_3 1_555 1_555
C45_7 O56_3 1_555 1_555
C50_7 O57_3 1_555 1_555
C54_7 C42_7 1_555 1_555
C55_7 C35_7 1_555 1_555
C59_7 C54_7 1_555 1_555
H41_7 C59_7 1_555 1_555
C63_7 H47_7 1_555 1_555
C64_7 C63_7 1_555 1_555
H48_7 C64_7 1_555 1_555
C65_7 C59_7 1_555 1_555
C66_7 C55_7 1_555 1_555
C67_7 C66_7 1_555 1_555
H49_7 C67_7 1_555 1_555
C68_7 C63_7 1_555 1_555
H50_7 C68_7 1_555 1_555
H59_7 C27_7 1_555 1_555
H60_7 C35_7 1_555 1_555
O53_5 C81_7 1_555 1_555
O57_5 C87_7 1_555 1_555
C77_7 C27_7 1_555 1_555
O27_7 C87_7 1_555 1_555
C78_7 C79_7 1_555 1_555
C79_7 H61_7 1_555 1_555
C80_7 H62_7 1_555 1_555
C81_7 C77_7 1_555 1_555
C83_7 C79_7 1_555 1_555
C84_7 C77_7 1_555 1_555
C86_7 C80_7 1_555 1_555
H65_7 C86_7 1_555 1_555
C87_7 C78_7 1_555 1_555
O56_5 C89_7 1_555 1_555
O58_6 C88_7 1_555 1_555
C88_7 C90_7 1_555 1_555
C89_7 C90_7 1_555 1_555
C90_7 C92_7 1_555 1_555
C91_7 C35_7 1_555 1_555
C92_7 H66_7 1_555 1_555
C93_7 H67_7 1_555 1_555
C94_7 C93_7 1_555 1_555
H68_7 C94_7 1_555 1_555
C95_7 C92_7 1_555 1_555
C96_7 C91_7 1_555 1_555
C97_7 C96_7 1_555 1_555
H69_7 C97_7 1_555 1_555
C98_7 C93_7 1_555 1_555
H70_7 C98_7 1_555 1_555
C3_7 C10_7 1_555 1_555
C3_7 C50_7 1_555 1_555
C9_7 C31_7 1_555 1_555
C28_7 C31_7 1_555 1_555
C45_7 C54_7 1_555 1_555
C45_7 C55_7 1_555 1_555
C64_7 C65_7 1_555 1_555
C65_7 C66_7 1_555 1_555
C67_7 C68_7 1_555 1_555
C78_7 C81_7 1_555 1_555
C80_7 C84_7 1_555 1_555
C83_7 C84_7 1_555 1_555
C89_7 C91_7 1_555 1_555
C94_7 C95_7 1_555 1_555
C95_7 C96_7 1_555 1_555
C97_7 C98_7 1_555 1_555
O58_3 C42_8 1_555 1_555
C1_8 C10_8 1_555 1_555
O17_8 C50_8 1_555 1_555
C3_8 C8_8 1_555 1_555
C8_8 H8_8 1_555 1_555
C9_8 H9_8 1_555 1_555
C10_8 O53_4 1_555 1_555
C27_8 C1_8 1_555 1_555
H22_8 C27_8 1_555 1_555
C28_8 C8_8 1_555 1_555
C31_8 C1_8 1_555 1_555
C35_8 H26_8 1_555 1_555
C37_8 C9_8 1_555 1_555
H27_8 C37_8 1_555 1_555
C42_8 O55_3 1_555 1_555
C45_8 O56_4 1_555 1_555
C50_8 O57_4 1_555 1_555
C54_8 C42_8 1_555 1_555
C55_8 C35_8 1_555 1_555
C59_8 C54_8 1_555 1_555
H41_8 C59_8 1_555 1_555
C63_8 H47_8 1_555 1_555
C64_8 C63_8 1_555 1_555
H48_8 C64_8 1_555 1_555
C65_8 C59_8 1_555 1_555
C66_8 C55_8 1_555 1_555
C67_8 C66_8 1_555 1_555
H49_8 C67_8 1_555 1_555
C68_8 C63_8 1_555 1_555
H50_8 C68_8 1_555 1_555
H59_8 C27_8 1_555 1_555
H60_8 C35_8 1_555 1_555
O53_6 C81_8 1_555 1_555
O57_6 C87_8 1_555 1_555
C77_8 C27_8 1_555 1_555
O27_8 C87_8 1_555 1_555
C78_8 C79_8 1_555 1_555
C79_8 H61_8 1_555 1_555
C80_8 H62_8 1_555 1_555
C81_8 C77_8 1_555 1_555
C83_8 C79_8 1_555 1_555
C84_8 C77_8 1_555 1_555
C86_8 C80_8 1_555 1_555
H65_8 C86_8 1_555 1_555
C87_8 C78_8 1_555 1_555
O56_6 C89_8 1_555 1_555
O58_5 C88_8 1_555 1_555
C88_8 C90_8 1_555 1_555
C89_8 C90_8 1_555 1_555
C90_8 C92_8 1_555 1_555
C91_8 C35_8 1_555 1_555
C92_8 H66_8 1_555 1_555
C93_8 H67_8 1_555 1_555
C94_8 C93_8 1_555 1_555
H68_8 C94_8 1_555 1_555
C95_8 C92_8 1_555 1_555
C96_8 C91_8 1_555 1_555
C97_8 C96_8 1_555 1_555
H69_8 C97_8 1_555 1_555
C98_8 C93_8 1_555 1_555
H70_8 C98_8 1_555 1_555
C3_8 C10_8 1_555 1_555
C3_8 C50_8 1_555 1_555
C9_8 C31_8 1_555 1_555
C28_8 C31_8 1_555 1_555
C45_8 C54_8 1_555 1_555
C45_8 C55_8 1_555 1_555
C64_8 C65_8 1_555 1_555
C65_8 C66_8 1_555 1_555
C67_8 C68_8 1_555 1_555
C78_8 C81_8 1_555 1_555
C80_8 C84_8 1_555 1_555
C83_8 C84_8 1_555 1_555
C89_8 C91_8 1_555 1_555
C94_8 C95_8 1_555 1_555
C95_8 C96_8 1_555 1_555
C97_8 C98_8 1_555 1_555
C24_5 H19_5 1_555 1_555
C32_5 C24_5 1_555 1_555
H24_5 C32_5 1_555 1_555
C82_5 H63_5 1_555 1_555
C85_5 C82_5 1_555 1_555
H64_5 C85_5 1_555 1_555
C24_6 H19_6 1_555 1_555
C32_6 C24_6 1_555 1_555
H24_6 C32_6 1_555 1_555
C82_6 H63_6 1_555 1_555
C85_6 C82_6 1_555 1_555
H64_6 C85_6 1_555 1_555
C24_7 H19_7 1_555 1_555
C32_7 C24_7 1_555 1_555
H24_7 C32_7 1_555 1_555
C82_7 H63_7 1_555 1_555
C85_7 C82_7 1_555 1_555
H64_7 C85_7 1_555 1_555
C24_8 H19_8 1_555 1_555
C32_8 C24_8 1_555 1_555
H24_8 C32_8 1_555 1_555
C82_8 H63_8 1_555 1_555
C85_8 C82_8 1_555 1_555
H64_8 C85_8 1_555 1_555

#END
