
###############################################################################
#
# This file contains modified crystal structure data generated from the
# MOF subset of the Cambridge Structural Database (CSD) v543 
# hosted by the Cambridge Crystallographic Data Centre (CCDC).
#
# This work is licensed under the Creative Commons
# Attribution-NonCommercial-ShareAlike 4.0 International License.
# To view a copy of this license, visit
# http://creativecommons.org/licenses/by-nc-sa/4.0/
# or send a letter to
# Creative Commons, PO Box 1866, Mountain View, CA 94042, USA.
#
# CIF created using the CSD Python API on 29 September 2022
# The structure has been converted into the P1 space group
# The structure has a 3D framework
# The original CSD entry XASNUD is in the cubic crystal system
# The original CSD entry XASNUD is in a Sohncke space group
# The framework has been calculated to contain at least 10.0% void space
# The void calculation uses a probe of radius 1.32A, grid spacing 0.4
# The framework is charged, counterions have been retained in the structure
# H atom positions have been added when not included in the experimental data
# Generated hydrogen atom positions removed from atoms on special positions
#
###############################################################################

data_XASNUD
_chemical_formula_moiety         '(C216 H168 O171 Zn48 10-)n'
_symmetry_cell_setting           triclinic
_symmetry_space_group_name_H-M   'P 1'
_symmetry_Int_Tables_number      1
_space_group_name_Hall           'P 1'
loop_
_symmetry_equiv_pos_site_id
_symmetry_equiv_pos_as_xyz
1 x,y,z
_cell_length_a                   23.3836(17)
_cell_length_b                   23.3836(17)
_cell_length_c                   23.3836(17)
_cell_angle_alpha                90
_cell_angle_beta                 90
_cell_angle_gamma                90
_cell_volume                     12786
loop_
_atom_site_label
_atom_site_type_symbol
_atom_site_fract_x
_atom_site_fract_y
_atom_site_fract_z
Zn3 Zn -0.0000 0.06376(4) 0.5000
O9 O 0.0559(2) 0.0469(2) 0.4377(3)
C10 C 0.1230(4) 0.0028(3) 0.3786(3)
C11 C 0.1400(4) 0.0541(4) 0.3537(4)
H4 H 0.1232 0.0890 0.3660
O12 O 0.1698(3) 0.1569(2) 0.3046(4)
O13 O 0.2422(3) 0.1141(3) 0.2576(2)
C15 C 0.2098(4) 0.0051(4) 0.2942(4)
H6 H 0.2383 0.0063 0.2653
C16 C 0.1809(4) 0.0547(4) 0.3111(3)
O15 O -0.0000 0.1458(3) 0.5000
C18 C 0.1985(3) 0.1136(3) 0.2885(3)
Zn6 Zn 0.5000 -0.0000 0.06376(4)
O22 O 0.4377(3) 0.0559(2) 0.0469(2)
C28 C 0.3786(3) 0.1230(4) 0.0028(3)
C29 C 0.3537(4) 0.1400(4) 0.0541(4)
H10 H 0.3660 0.1232 0.0890
O25 O 0.3046(4) 0.1698(3) 0.1569(2)
O26 O 0.2576(2) 0.2422(3) 0.1141(3)
C33 C 0.2942(4) 0.2098(4) 0.0051(4)
H12 H 0.2653 0.2383 0.0063
C34 C 0.3111(3) 0.1809(4) 0.0547(4)
O28 O 0.5000 -0.0000 0.1458(3)
C36 C 0.2885(3) 0.1985(3) 0.1136(3)
Zn8 Zn 0.67914(6) 0.26278(5) 0.20690(4)
O30 O 0.5562(3) 0.0659(2) 0.0476(2)
O31 O 0.6664(4) 0.2146(3) 0.1428(3)
C39 C 0.5787(4) 0.0779(3) 0.0001(5)
C40 C 0.6368(4) 0.1518(4) 0.0480(3)
H14 H 0.6192 0.1421 0.0833
C41 C 0.6791(4) 0.1957(4) 0.0454(4)
O34 O 0.7315(6) 0.2643(6) 0.0994(4)
C44 C 0.6969(7) 0.2213(7) 0.1005(5)
O35 O 0.7501(3) 0.2499(3) 0.2499(3)
Zn13 Zn 0.73722(5) 0.20690(4) 0.32086(6)
Zn14 Zn 0.79310(4) 0.32086(6) 0.26278(5)
Zn21 Zn 0.29310(4) 0.17914(6) 0.23722(5)
Zn23 Zn 0.23722(5) 0.29310(4) 0.17914(6)
Zn25 Zn 0.17914(6) 0.23722(5) 0.29310(4)
O44 O 0.0659(2) 0.0476(2) 0.5562(3)
O48 O 0.6698(3) 0.3431(2) 0.1954(4)
O53 O 0.6141(3) 0.2424(2) 0.2578(3)
Zn1 Zn 0.5000 -0.0000 0.93624(4)
O7 O 0.5000 0.0000 0.8542(3)
Zn7 Zn 0.32086(6) 0.26278(5) 0.79310(4)
O23 O 0.4438(3) 0.0659(2) 0.9524(2)
O24 O 0.3336(4) 0.2146(3) 0.8572(3)
C30 C 0.4213(4) 0.0779(3) 0.9999(5)
C31 C 0.3632(4) 0.1518(4) 0.9520(3)
H11 H 0.3808 0.1421 0.9167
C32 C 0.3209(4) 0.1957(4) 0.9546(4)
O27 O 0.2685(6) 0.2643(6) 0.9006(4)
C35 C 0.3031(7) 0.2213(7) 0.8995(5)
O29 O 0.5623(3) 0.0559(2) 0.9531(2)
C37 C 0.6214(3) 0.1230(4) 0.9972(3)
C38 C 0.6463(4) 0.1400(4) 0.9459(4)
H13 H 0.6340 0.1232 0.9110
O32 O 0.6954(4) 0.1698(3) 0.8431(2)
O33 O 0.7424(2) 0.2422(3) 0.8859(3)
C42 C 0.7058(4) 0.2098(4) 0.9949(4)
H15 H 0.7347 0.2383 0.9937
C43 C 0.6889(3) 0.1809(4) 0.9453(4)
C45 C 0.7115(3) 0.1985(3) 0.8864(3)
Zn17 Zn 0.76278(5) 0.29310(4) 0.82086(6)
Zn18 Zn 0.70690(4) 0.17914(6) 0.76278(5)
O46 O 0.3302(3) 0.3431(2) 0.8046(4)
O52 O 0.3859(3) 0.2424(2) 0.7422(3)
O57 O 0.2499(3) 0.2499(3) 0.7501(3)
Zn2 Zn 0.32086(6) 0.73722(5) 0.20690(4)
O2 O 0.4438(3) 0.9341(2) 0.0476(2)
O3 O 0.3336(4) 0.7854(3) 0.1428(3)
C3 C 0.4213(4) 0.9221(3) 0.0001(5)
C4 C 0.3632(4) 0.8482(4) 0.0480(3)
H2 H 0.3808 0.8579 0.0833
C5 C 0.3209(4) 0.8043(4) 0.0454(4)
O6 O 0.2685(6) 0.7357(6) 0.0994(4)
C8 C 0.3031(7) 0.7787(7) 0.1005(5)
O8 O 0.2499(3) 0.7501(3) 0.2499(3)
Zn4 Zn 0.26278(5) 0.79310(4) 0.32086(6)
O10 O 0.0659(2) 0.9524(2) 0.4438(3)
O11 O 0.2146(3) 0.8572(3) 0.3336(4)
C12 C 0.0779(3) 0.9999(5) 0.4213(4)
C13 C 0.1518(4) 0.9520(3) 0.3632(4)
H5 H 0.1421 0.9167 0.3808
C14 C 0.1957(4) 0.9546(4) 0.3209(4)
O14 O 0.2643(6) 0.9006(4) 0.2685(6)
C17 C 0.2213(7) 0.8995(5) 0.3031(7)
Zn5 Zn 0.20690(4) 0.67914(6) 0.26278(5)
O17 O 0.0476(2) 0.5562(3) 0.0659(2)
O18 O 0.1428(3) 0.6664(4) 0.2146(3)
C21 C 0.0001(5) 0.5787(4) 0.0779(3)
C22 C 0.0480(3) 0.6368(4) 0.1518(4)
H8 H 0.0833 0.6192 0.1421
C23 C 0.0454(4) 0.6791(4) 0.1957(4)
O21 O 0.0994(4) 0.7315(6) 0.2643(6)
C26 C 0.1005(5) 0.6969(7) 0.2213(7)
Zn6_2 Zn 0.5000 1.0000 0.06376(4)
O28_2 O 0.5000 1.0000 0.1458(3)
O36 O 0.5623(3) 0.9441(2) 0.0469(2)
C46 C 0.6214(3) 0.8770(4) 0.0028(3)
C47 C 0.6463(4) 0.8600(4) 0.0541(4)
H16 H 0.6340 0.8768 0.0890
O39 O 0.6954(4) 0.8302(3) 0.1569(2)
O40 O 0.7424(2) 0.7578(3) 0.1141(3)
C51 C 0.7058(4) 0.7902(4) 0.0051(4)
H18 H 0.7347 0.7617 0.0063
C52 C 0.6889(3) 0.8191(4) 0.0547(4)
C54 C 0.7115(3) 0.8015(3) 0.1136(3)
Zn11 Zn -0.0000 0.93624(4) 0.5000
Zn12 Zn 0.06376(4) 0.5000 0.0000
Zn15 Zn 0.70690(4) 0.82086(6) 0.23722(5)
Zn20 Zn 0.76278(5) 0.70690(4) 0.17914(6)
O45 O 0.3431(2) 0.8046(4) 0.3302(3)
O49 O 0.3302(3) 0.6569(2) 0.1954(4)
O50 O 0.1954(4) 0.6698(3) 0.3431(2)
O51 O 0.3859(3) 0.7576(2) 0.2578(3)
O55 O 0.2578(3) 0.6141(3) 0.2424(2)
O56 O 0.2424(2) 0.7422(3) 0.3859(3)
Zn1_2 Zn 0.5000 1.0000 0.93624(4)
O1 O 0.4377(3) 0.9441(2) 0.9531(2)
C1 C 0.3786(3) 0.8770(4) 0.9972(3)
C2 C 0.3537(4) 0.8600(4) 0.9459(4)
H1 H 0.3660 0.8768 0.9110
O4 O 0.3046(4) 0.8302(3) 0.8431(2)
O5 O 0.2576(2) 0.7578(3) 0.8859(3)
C6 C 0.2942(4) 0.7902(4) 0.9949(4)
H3 H 0.2653 0.7617 0.9937
C7 C 0.3111(3) 0.8191(4) 0.9453(4)
O7_2 O 0.5000 1.0000 0.8542(3)
C9 C 0.2885(3) 0.8015(3) 0.8864(3)
Zn9 Zn 0.67914(6) 0.73722(5) 0.79310(4)
O37 O 0.5562(3) 0.9341(2) 0.9524(2)
O38 O 0.6664(4) 0.7854(3) 0.8572(3)
C48 C 0.5787(4) 0.9221(3) 0.9999(5)
C49 C 0.6368(4) 0.8482(4) 0.9520(3)
H17 H 0.6192 0.8579 0.9167
C50 C 0.6791(4) 0.8043(4) 0.9546(4)
O41 O 0.7315(6) 0.7357(6) 0.9006(4)
C53 C 0.6969(7) 0.7787(7) 0.8995(5)
Zn12_2 Zn 0.06376(4) 0.5000 1.0000
Zn16 Zn 0.23722(5) 0.70690(4) 0.82086(6)
Zn22 Zn 0.29310(4) 0.82086(6) 0.76278(5)
O47 O 0.6698(3) 0.6569(2) 0.8046(4)
O54 O 0.6141(3) 0.7576(2) 0.7422(3)
O58 O 0.7501(3) 0.7501(3) 0.7501(3)
Zn3_2 Zn 1.0000 0.06376(4) 0.5000
O15_2 O 1.0000 0.1458(3) 0.5000
O42 O 0.9441(2) 0.0469(2) 0.5623(3)
O43 O 0.9341(2) 0.0476(2) 0.4438(3)
O16 O 0.9531(2) 0.5623(3) 0.0559(2)
C19 C 0.9972(3) 0.6214(3) 0.1230(4)
C20 C 0.9459(4) 0.6463(4) 0.1400(4)
H7 H 0.9110 0.6340 0.1232
O19 O 0.8431(2) 0.6954(4) 0.1698(3)
O20 O 0.8859(3) 0.7424(2) 0.2422(3)
C24 C 0.9949(4) 0.7058(4) 0.2098(4)
H9 H 0.9937 0.7347 0.2383
C25 C 0.9453(4) 0.6889(3) 0.1809(4)
C27 C 0.8864(3) 0.7115(3) 0.1985(3)
Zn10 Zn 0.93624(4) 0.5000 0.0000
Zn11_2 Zn 1.0000 0.93624(4) 0.5000
Zn24 Zn 0.82086(6) 0.76278(5) 0.29310(4)
Zn10_2 Zn 0.93624(4) 0.5000 1.0000
O22_2 O 0.0469(2) 0.4377(3) 0.0559(2)
C28_2 C 0.0028(3) 0.3786(3) 0.1230(4)
C29_2 C 0.0541(4) 0.3537(4) 0.1400(4)
H10_2 H 0.0890 0.3660 0.1232
O25_2 O 0.1569(2) 0.3046(4) 0.1698(3)
O26_2 O 0.1141(3) 0.2576(2) 0.2422(3)
C33_2 C 0.0051(4) 0.2942(4) 0.2098(4)
H12_2 H 0.0063 0.2653 0.2383
C34_2 C 0.0547(4) 0.3111(3) 0.1809(4)
O28_3 O 0.1458(3) 0.5000 -0.0000
C36_2 C 0.1136(3) 0.2885(3) 0.1985(3)
Zn2_2 Zn 0.20690(4) 0.32086(6) 0.73722(5)
O2_2 O 0.0476(2) 0.4438(3) 0.9341(2)
O3_2 O 0.1428(3) 0.3336(4) 0.7854(3)
C3_2 C 0.0001(5) 0.4213(4) 0.9221(3)
C4_2 C 0.0480(3) 0.3632(4) 0.8482(4)
H2_2 H 0.0833 0.3808 0.8579
C5_2 C 0.0454(4) 0.3209(4) 0.8043(4)
O6_2 O 0.0994(4) 0.2685(6) 0.7357(6)
C8_2 C 0.1005(5) 0.3031(7) 0.7787(7)
Zn5_2 Zn 0.26278(5) 0.20690(4) 0.67914(6)
O18_2 O 0.2146(3) 0.1428(3) 0.6664(4)
C21_2 C 0.0779(3) 0.0001(5) 0.5787(4)
C22_2 C 0.1518(4) 0.0480(3) 0.6368(4)
H8_2 H 0.1421 0.0833 0.6192
C23_2 C 0.1957(4) 0.0454(4) 0.6791(4)
O21_2 O 0.2643(6) 0.0994(4) 0.7315(6)
C26_2 C 0.2213(7) 0.1005(5) 0.6969(7)
O28_4 O 0.1458(3) 0.5000 1.0000
O36_2 O 0.0469(2) 0.5623(3) 0.9441(2)
C46_2 C 0.0028(3) 0.6214(3) 0.8770(4)
C47_2 C 0.0541(4) 0.6463(4) 0.8600(4)
H16_2 H 0.0890 0.6340 0.8768
O39_2 O 0.1569(2) 0.6954(4) 0.8302(3)
O40_2 O 0.1141(3) 0.7424(2) 0.7578(3)
C51_2 C 0.0051(4) 0.7058(4) 0.7902(4)
H18_2 H 0.0063 0.7347 0.7617
C52_2 C 0.0547(4) 0.6889(3) 0.8191(4)
C54_2 C 0.1136(3) 0.7115(3) 0.8015(3)
Zn20_2 Zn 0.17914(6) 0.76278(5) 0.70690(4)
O49_2 O 0.1954(4) 0.3302(3) 0.6569(2)
O50_2 O 0.3431(2) 0.1954(4) 0.6698(3)
O51_2 O 0.2578(3) 0.3859(3) 0.7576(2)
O55_2 O 0.2424(2) 0.2578(3) 0.6141(3)
O16_2 O 0.0559(2) 0.9531(2) 0.5623(3)
C19_2 C 0.1230(4) 0.9972(3) 0.6214(3)
C20_2 C 0.1400(4) 0.9459(4) 0.6463(4)
H7_2 H 0.1232 0.9110 0.6340
O19_2 O 0.1698(3) 0.8431(2) 0.6954(4)
O20_2 O 0.2422(3) 0.8859(3) 0.7424(2)
C24_2 C 0.2098(4) 0.9949(4) 0.7058(4)
H9_2 H 0.2383 0.9937 0.7347
C25_2 C 0.1809(4) 0.9453(4) 0.6889(3)
C27_2 C 0.1985(3) 0.8864(3) 0.7115(3)
O7_3 O 0.8542(3) 0.5000 0.0000
O23_2 O 0.9524(2) 0.4438(3) 0.0659(2)
O24_2 O 0.8572(3) 0.3336(4) 0.2146(3)
C30_2 C 0.9999(5) 0.4213(4) 0.0779(3)
C31_2 C 0.9520(3) 0.3632(4) 0.1518(4)
H11_2 H 0.9167 0.3808 0.1421
C32_2 C 0.9546(4) 0.3209(4) 0.1957(4)
O27_2 O 0.9006(4) 0.2685(6) 0.2643(6)
C35_2 C 0.8995(5) 0.3031(7) 0.2213(7)
O46_2 O 0.8046(4) 0.3302(3) 0.3431(2)
O52_2 O 0.7422(3) 0.3859(3) 0.2424(2)
O1_2 O 0.9531(2) 0.4377(3) 0.9441(2)
C1_2 C 0.9972(3) 0.3786(3) 0.8770(4)
C2_2 C 0.9459(4) 0.3537(4) 0.8600(4)
H1_2 H 0.9110 0.3660 0.8768
O4_2 O 0.8431(2) 0.3046(4) 0.8302(3)
O5_2 O 0.8859(3) 0.2576(2) 0.7578(3)
C6_2 C 0.9949(4) 0.2942(4) 0.7902(4)
H3_2 H 0.9937 0.2653 0.7617
C7_2 C 0.9453(4) 0.3111(3) 0.8191(4)
O7_4 O 0.8542(3) 0.5000 1.0000
C9_2 C 0.8864(3) 0.2885(3) 0.8015(3)
Zn9_2 Zn 0.79310(4) 0.67914(6) 0.73722(5)
O37_2 O 0.9524(2) 0.5562(3) 0.9341(2)
O38_2 O 0.8572(3) 0.6664(4) 0.7854(3)
C48_2 C 0.9999(5) 0.5787(4) 0.9221(3)
C49_2 C 0.9520(3) 0.6368(4) 0.8482(4)
H17_2 H 0.9167 0.6192 0.8579
C50_2 C 0.9546(4) 0.6791(4) 0.8043(4)
O41_2 O 0.9006(4) 0.7315(6) 0.7357(6)
C53_2 C 0.8995(5) 0.6969(7) 0.7787(7)
Zn16_2 Zn 0.82086(6) 0.23722(5) 0.70690(4)
O47_2 O 0.8046(4) 0.6698(3) 0.6569(2)
O54_2 O 0.7422(3) 0.6141(3) 0.7576(2)
O7_5 O 0.0000 0.8542(3) 0.5000
O3_3 O 0.7854(3) 0.1428(3) 0.3336(4)
C3_3 C 0.9221(3) 0.0001(5) 0.4213(4)
C4_3 C 0.8482(4) 0.0480(3) 0.3632(4)
H2_3 H 0.8579 0.0833 0.3808
C5_3 C 0.8043(4) 0.0454(4) 0.3209(4)
O6_3 O 0.7357(6) 0.0994(4) 0.2685(6)
C8_3 C 0.7787(7) 0.1005(5) 0.3031(7)
C46_3 C 0.8770(4) 0.0028(3) 0.6214(3)
C47_3 C 0.8600(4) 0.0541(4) 0.6463(4)
H16_3 H 0.8768 0.0890 0.6340
O39_3 O 0.8302(3) 0.1569(2) 0.6954(4)
O40_3 O 0.7578(3) 0.1141(3) 0.7424(2)
C51_3 C 0.7902(4) 0.0051(4) 0.7058(4)
H18_3 H 0.7617 0.0063 0.7347
C52_3 C 0.8191(4) 0.0547(4) 0.6889(3)
C54_3 C 0.8015(3) 0.1136(3) 0.7115(3)
O49_3 O 0.6569(2) 0.1954(4) 0.3302(3)
O51_3 O 0.7576(2) 0.2578(3) 0.3859(3)
O1_3 O 0.9441(2) 0.9531(2) 0.4377(3)
C1_3 C 0.8770(4) 0.9972(3) 0.3786(3)
C2_3 C 0.8600(4) 0.9459(4) 0.3537(4)
H1_3 H 0.8768 0.9110 0.3660
O4_3 O 0.8302(3) 0.8431(2) 0.3046(4)
O5_3 O 0.7578(3) 0.8859(3) 0.2576(2)
C6_3 C 0.7902(4) 0.9949(4) 0.2942(4)
H3_3 H 0.7617 0.9937 0.2653
C7_3 C 0.8191(4) 0.9453(4) 0.3111(3)
O7_6 O 1.0000 0.8542(3) 0.5000
C9_3 C 0.8015(3) 0.8864(3) 0.2885(3)
Zn9_3 Zn 0.73722(5) 0.79310(4) 0.67914(6)
O37_3 O 0.9341(2) 0.9524(2) 0.5562(3)
O38_3 O 0.7854(3) 0.8572(3) 0.6664(4)
C48_3 C 0.9221(3) 0.9999(5) 0.5787(4)
C49_3 C 0.8482(4) 0.9520(3) 0.6368(4)
H17_3 H 0.8579 0.9167 0.6192
C50_3 C 0.8043(4) 0.9546(4) 0.6791(4)
O41_3 O 0.7357(6) 0.9006(4) 0.7315(6)
C53_3 C 0.7787(7) 0.8995(5) 0.6969(7)
O47_3 O 0.6569(2) 0.8046(4) 0.6698(3)
O54_3 O 0.7576(2) 0.7422(3) 0.6141(3)
Zn1_3 Zn -0.0000 0.5000 0.43624(4)
O7_7 O -0.0000 0.5000 0.3542(3)
Zn6_3 Zn -0.0000 0.5000 0.56376(4)
O28_5 O -0.0000 0.5000 0.6458(3)
O29_2 O 0.0623(3) 0.5559(2) 0.4531(2)
O30_2 O 0.0562(3) 0.5659(2) 0.5476(2)
C37_2 C 0.1214(3) 0.6230(4) 0.4972(3)
O31_2 O 0.1664(4) 0.7146(3) 0.6428(3)
C38_2 C 0.1463(4) 0.6400(4) 0.4459(4)
H13_2 H 0.1340 0.6232 0.4110
C39_2 C 0.0787(4) 0.5779(3) 0.5001(5)
C40_2 C 0.1368(4) 0.6518(4) 0.5480(3)
H14_2 H 0.1192 0.6421 0.5833
C41_2 C 0.1791(4) 0.6957(4) 0.5454(4)
C42_2 C 0.2058(4) 0.7098(4) 0.4949(4)
H15_2 H 0.2347 0.7383 0.4937
C43_2 C 0.1889(3) 0.6809(4) 0.4453(4)
O34_2 O 0.2315(6) 0.7643(6) 0.5994(4)
C44_2 C 0.1969(7) 0.7213(7) 0.6005(5)
C45_2 C 0.2115(3) 0.6985(3) 0.3864(3)
O35_2 O 0.2501(3) 0.7499(3) 0.7499(3)
O36_3 O 0.0623(3) 0.4441(2) 0.5469(2)
O37_4 O 0.0562(3) 0.4341(2) 0.4524(2)
C46_4 C 0.1214(3) 0.3770(4) 0.5028(3)
O38_4 O 0.1664(4) 0.2854(3) 0.3572(3)
C47_4 C 0.1463(4) 0.3600(4) 0.5541(4)
H16_4 H 0.1340 0.3768 0.5890
C48_4 C 0.0787(4) 0.4221(3) 0.4999(5)
C49_4 C 0.1368(4) 0.3482(4) 0.4520(3)
H17_4 H 0.1192 0.3579 0.4167
C50_4 C 0.1791(4) 0.3043(4) 0.4546(4)
C51_4 C 0.2058(4) 0.2902(4) 0.5051(4)
H18_4 H 0.2347 0.2617 0.5063
C52_4 C 0.1889(3) 0.3191(4) 0.5547(4)
O41_4 O 0.2315(6) 0.2357(6) 0.4006(4)
C53_4 C 0.1969(7) 0.2787(7) 0.3995(5)
C54_4 C 0.2115(3) 0.3015(3) 0.6136(3)
O58_2 O 0.2501(3) 0.2501(3) 0.2501(3)
Zn3_3 Zn 0.5000 0.56376(4) 0.0000
O15_3 O 0.5000 0.6458(3) 0.0000
Zn11_3 Zn 0.5000 0.43624(4) 0.0000
O42_2 O 0.4441(2) 0.5469(2) 0.0623(3)
O44_2 O 0.5659(2) 0.5476(2) 0.0562(3)
Zn1_4 Zn 1.0000 0.5000 0.43624(4)
O1_4 O 0.9377(3) 0.4441(2) 0.4531(2)
O2_3 O 0.9438(3) 0.4341(2) 0.5476(2)
C1_4 C 0.8786(3) 0.3770(4) 0.4972(3)
O3_4 O 0.8336(4) 0.2854(3) 0.6428(3)
C2_4 C 0.8537(4) 0.3600(4) 0.4459(4)
H1_4 H 0.8660 0.3768 0.4110
C3_4 C 0.9213(4) 0.4221(3) 0.5001(5)
C4_4 C 0.8632(4) 0.3482(4) 0.5480(3)
H2_4 H 0.8808 0.3579 0.5833
C5_4 C 0.8209(4) 0.3043(4) 0.5454(4)
C6_4 C 0.7942(4) 0.2902(4) 0.4949(4)
H3_4 H 0.7653 0.2617 0.4937
C7_4 C 0.8111(3) 0.3191(4) 0.4453(4)
O6_4 O 0.7685(6) 0.2357(6) 0.5994(4)
C8_4 C 0.8031(7) 0.2787(7) 0.6005(5)
O7_8 O 1.0000 0.5000 0.3542(3)
C9_4 C 0.7885(3) 0.3015(3) 0.3864(3)
O8_2 O 0.7499(3) 0.2501(3) 0.7499(3)
Zn3_4 Zn 0.5000 0.56376(4) 1.0000
O9_2 O 0.5559(2) 0.5469(2) 0.9377(3)
O10_2 O 0.5659(2) 0.4524(2) 0.9438(3)
C10_2 C 0.6230(4) 0.5028(3) 0.8786(3)
O11_2 O 0.7146(3) 0.3572(3) 0.8336(4)
C11_2 C 0.6400(4) 0.5541(4) 0.8537(4)
H4_2 H 0.6232 0.5890 0.8660
C12_2 C 0.5779(3) 0.4999(5) 0.9213(4)
C13_2 C 0.6518(4) 0.4520(3) 0.8632(4)
H5_2 H 0.6421 0.4167 0.8808
C14_2 C 0.6957(4) 0.4546(4) 0.8209(4)
C15_2 C 0.7098(4) 0.5051(4) 0.7942(4)
H6_2 H 0.7383 0.5063 0.7653
C16_2 C 0.6809(4) 0.5547(4) 0.8111(3)
O14_2 O 0.7643(6) 0.4006(4) 0.7685(6)
C17_2 C 0.7213(7) 0.3995(5) 0.8031(7)
O15_4 O 0.5000 0.6458(3) 1.0000
C18_2 C 0.6985(3) 0.6136(3) 0.7885(3)
O16_3 O 0.4531(2) 0.0623(3) 0.5559(2)
O17_2 O 0.5476(2) 0.0562(3) 0.5659(2)
C19_3 C 0.4972(3) 0.1214(3) 0.6230(4)
O18_3 O 0.6428(3) 0.1664(4) 0.7146(3)
C20_3 C 0.4459(4) 0.1463(4) 0.6400(4)
H7_3 H 0.4110 0.1340 0.6232
C21_3 C 0.5001(5) 0.0787(4) 0.5779(3)
C22_3 C 0.5480(3) 0.1368(4) 0.6518(4)
H8_3 H 0.5833 0.1192 0.6421
C23_3 C 0.5454(4) 0.1791(4) 0.6957(4)
C24_3 C 0.4949(4) 0.2058(4) 0.7098(4)
H9_3 H 0.4937 0.2347 0.7383
C25_3 C 0.4453(4) 0.1889(3) 0.6809(4)
O21_3 O 0.5994(4) 0.2315(6) 0.7643(6)
C26_3 C 0.6005(5) 0.1969(7) 0.7213(7)
C27_3 C 0.3864(3) 0.2115(3) 0.6985(3)
Zn6_4 Zn 1.0000 0.5000 0.56376(4)
O22_3 O 0.9377(3) 0.5559(2) 0.5469(2)
O23_3 O 0.9438(3) 0.5659(2) 0.4524(2)
C28_3 C 0.8786(3) 0.6230(4) 0.5028(3)
O24_3 O 0.8336(4) 0.7146(3) 0.3572(3)
C29_3 C 0.8537(4) 0.6400(4) 0.5541(4)
H10_3 H 0.8660 0.6232 0.5890
C30_3 C 0.9213(4) 0.5779(3) 0.4999(5)
C31_3 C 0.8632(4) 0.6518(4) 0.4520(3)
H11_3 H 0.8808 0.6421 0.4167
C32_3 C 0.8209(4) 0.6957(4) 0.4546(4)
C33_3 C 0.7942(4) 0.7098(4) 0.5051(4)
H12_3 H 0.7653 0.7383 0.5063
C34_3 C 0.8111(3) 0.6809(4) 0.5547(4)
O27_3 O 0.7685(6) 0.7643(6) 0.4006(4)
C35_3 C 0.8031(7) 0.7213(7) 0.3995(5)
O28_6 O 1.0000 0.5000 0.6458(3)
C36_3 C 0.7885(3) 0.6985(3) 0.6136(3)
Zn10_3 Zn 0.43624(4) 0.0000 0.5000
Zn11_4 Zn 0.5000 0.43624(4) 1.0000
Zn12_3 Zn 0.56376(4) 0.0000 0.5000
O43_2 O 0.4341(2) 0.5476(2) 0.9438(3)
O57_2 O 0.7499(3) 0.7499(3) 0.2501(3)
Zn10_4 Zn 0.43624(4) 1.0000 0.5000
Zn12_4 Zn 0.56376(4) 1.0000 0.5000
O7_9 O 0.3542(3) -0.0000 0.5000
O28_7 O 0.6458(3) -0.0000 0.5000
O36_4 O 0.5469(2) 0.0623(3) 0.4441(2)
O37_5 O 0.4524(2) 0.0562(3) 0.4341(2)
C46_5 C 0.5028(3) 0.1214(3) 0.3770(4)
O38_5 O 0.3572(3) 0.1664(4) 0.2854(3)
C47_5 C 0.5541(4) 0.1463(4) 0.3600(4)
H16_5 H 0.5890 0.1340 0.3768
C48_5 C 0.4999(5) 0.0787(4) 0.4221(3)
C49_5 C 0.4520(3) 0.1368(4) 0.3482(4)
H17_5 H 0.4167 0.1192 0.3579
C50_5 C 0.4546(4) 0.1791(4) 0.3043(4)
C51_5 C 0.5051(4) 0.2058(4) 0.2902(4)
H18_5 H 0.5063 0.2347 0.2617
C52_5 C 0.5547(4) 0.1889(3) 0.3191(4)
O41_5 O 0.4006(4) 0.2315(6) 0.2357(6)
C53_5 C 0.3995(5) 0.1969(7) 0.2787(7)
C54_5 C 0.6136(3) 0.2115(3) 0.3015(3)
O1_5 O 0.4531(2) 0.9377(3) 0.4441(2)
O2_4 O 0.5476(2) 0.9438(3) 0.4341(2)
C1_5 C 0.4972(3) 0.8786(3) 0.3770(4)
O3_5 O 0.6428(3) 0.8336(4) 0.2854(3)
C2_5 C 0.4459(4) 0.8537(4) 0.3600(4)
H1_5 H 0.4110 0.8660 0.3768
C3_5 C 0.5001(5) 0.9213(4) 0.4221(3)
C4_5 C 0.5480(3) 0.8632(4) 0.3482(4)
H2_5 H 0.5833 0.8808 0.3579
C5_5 C 0.5454(4) 0.8209(4) 0.3043(4)
C6_5 C 0.4949(4) 0.7942(4) 0.2902(4)
H3_5 H 0.4937 0.7653 0.2617
C7_5 C 0.4453(4) 0.8111(3) 0.3191(4)
O6_5 O 0.5994(4) 0.7685(6) 0.2357(6)
C8_5 C 0.6005(5) 0.8031(7) 0.2787(7)
O7_10 O 0.3542(3) 1.0000 0.5000
C9_5 C 0.3864(3) 0.7885(3) 0.3015(3)
O16_4 O 0.5559(2) 0.4531(2) 0.0623(3)
C19_4 C 0.6230(4) 0.4972(3) 0.1214(3)
O18_4 O 0.7146(3) 0.6428(3) 0.1664(4)
C20_4 C 0.6400(4) 0.4459(4) 0.1463(4)
H7_4 H 0.6232 0.4110 0.1340
C21_4 C 0.5779(3) 0.5001(5) 0.0787(4)
C22_4 C 0.6518(4) 0.5480(3) 0.1368(4)
H8_4 H 0.6421 0.5833 0.1192
C23_4 C 0.6957(4) 0.5454(4) 0.1791(4)
C24_4 C 0.7098(4) 0.4949(4) 0.2058(4)
H9_4 H 0.7383 0.4937 0.2347
C25_4 C 0.6809(4) 0.4453(4) 0.1889(3)
O21_4 O 0.7643(6) 0.5994(4) 0.2315(6)
C26_4 C 0.7213(7) 0.6005(5) 0.1969(7)
C27_4 C 0.6985(3) 0.3864(3) 0.2115(3)
O22_4 O 0.5469(2) 0.9377(3) 0.5559(2)
O23_4 O 0.4524(2) 0.9438(3) 0.5659(2)
C28_4 C 0.5028(3) 0.8786(3) 0.6230(4)
O24_4 O 0.3572(3) 0.8336(4) 0.7146(3)
C29_4 C 0.5541(4) 0.8537(4) 0.6400(4)
H10_4 H 0.5890 0.8660 0.6232
C30_4 C 0.4999(5) 0.9213(4) 0.5779(3)
C31_4 C 0.4520(3) 0.8632(4) 0.6518(4)
H11_4 H 0.4167 0.8808 0.6421
C32_4 C 0.4546(4) 0.8209(4) 0.6957(4)
C33_4 C 0.5051(4) 0.7942(4) 0.7098(4)
H12_4 H 0.5063 0.7653 0.7383
C34_4 C 0.5547(4) 0.8111(3) 0.6809(4)
O27_4 O 0.4006(4) 0.7685(6) 0.7643(6)
C35_4 C 0.3995(5) 0.8031(7) 0.7213(7)
O28_8 O 0.6458(3) 1.0000 0.5000
C36_4 C 0.6136(3) 0.7885(3) 0.6985(3)
O7_11 O 0.5000 0.3542(3) -0.0000
O37_6 O 0.4341(2) 0.4524(2) 0.0562(3)
C46_6 C 0.3770(4) 0.5028(3) 0.1214(3)
O38_6 O 0.2854(3) 0.3572(3) 0.1664(4)
C47_6 C 0.3600(4) 0.5541(4) 0.1463(4)
H16_6 H 0.3768 0.5890 0.1340
C48_6 C 0.4221(3) 0.4999(5) 0.0787(4)
C49_6 C 0.3482(4) 0.4520(3) 0.1368(4)
H17_6 H 0.3579 0.4167 0.1192
C50_6 C 0.3043(4) 0.4546(4) 0.1791(4)
C51_6 C 0.2902(4) 0.5051(4) 0.2058(4)
H18_6 H 0.2617 0.5063 0.2347
C52_6 C 0.3191(4) 0.5547(4) 0.1889(3)
O41_6 O 0.2357(6) 0.4006(4) 0.2315(6)
C53_6 C 0.2787(7) 0.3995(5) 0.1969(7)
C54_6 C 0.3015(3) 0.6136(3) 0.2115(3)
O1_6 O 0.4441(2) 0.4531(2) 0.9377(3)
C1_6 C 0.3770(4) 0.4972(3) 0.8786(3)
O3_6 O 0.2854(3) 0.6428(3) 0.8336(4)
C2_6 C 0.3600(4) 0.4459(4) 0.8537(4)
H1_6 H 0.3768 0.4110 0.8660
C3_6 C 0.4221(3) 0.5001(5) 0.9213(4)
C4_6 C 0.3482(4) 0.5480(3) 0.8632(4)
H2_6 H 0.3579 0.5833 0.8808
C5_6 C 0.3043(4) 0.5454(4) 0.8209(4)
C6_6 C 0.2902(4) 0.4949(4) 0.7942(4)
H3_6 H 0.2617 0.4937 0.7653
C7_6 C 0.3191(4) 0.4453(4) 0.8111(3)
O6_6 O 0.2357(6) 0.5994(4) 0.7685(6)
C8_6 C 0.2787(7) 0.6005(5) 0.8031(7)
O7_12 O 0.5000 0.3542(3) 1.0000
C9_6 C 0.3015(3) 0.3864(3) 0.7885(3)
loop_
_geom_bond_atom_site_label_1
_geom_bond_atom_site_label_2
_geom_bond_site_symmetry_1
_geom_bond_site_symmetry_2
Zn3 O9 1_555 1_555
C10 C11 1_555 1_555
C11 H4 1_555 1_555
O12 C18 1_555 1_555
O13 C18 1_555 1_555
H6 C15 1_555 1_555
C16 C11 1_555 1_555
O15 Zn3 1_555 1_555
C18 C16 1_555 1_555
O22 Zn6 1_555 1_555
C28 C29 1_555 1_555
C29 H10 1_555 1_555
O25 C36 1_555 1_555
O26 C36 1_555 1_555
H12 C33 1_555 1_555
C34 C29 1_555 1_555
O28 Zn6 1_555 1_555
C36 C34 1_555 1_555
Zn8 O31 1_555 1_555
O30 Zn6 1_555 1_555
O31 C44 1_555 1_555
H14 C40 1_555 1_555
C41 C40 1_555 1_555
O34 C44 1_555 1_555
C44 C41 1_555 1_555
O35 Zn8 1_555 1_555
Zn13 O35 1_555 1_555
Zn14 O35 1_555 1_555
Zn21 O13 1_555 1_555
Zn23 O26 1_555 1_555
Zn25 O12 1_555 1_555
O44 Zn3 1_555 1_555
O48 Zn8 1_555 1_555
O53 Zn8 1_555 1_555
C15 C16 1_555 1_555
O25 Zn21 1_555 1_555
C33 C34 1_555 1_555
O30 C39 1_555 1_555
O7 Zn1 1_555 1_555
Zn7 O24 1_555 1_555
O23 Zn1 1_555 1_555
O24 C35 1_555 1_555
H11 C31 1_555 1_555
C32 C31 1_555 1_555
O27 C35 1_555 1_555
C35 C32 1_555 1_555
O29 Zn1 1_555 1_555
C37 C38 1_555 1_555
C38 H13 1_555 1_555
O32 C45 1_555 1_555
O33 C45 1_555 1_555
H15 C42 1_555 1_555
C43 C38 1_555 1_555
C45 C43 1_555 1_555
Zn17 O33 1_555 1_555
Zn18 O32 1_555 1_555
O46 Zn7 1_555 1_555
O52 Zn7 1_555 1_555
O57 Zn7 1_555 1_555
O23 C30 1_555 1_555
C42 C43 1_555 1_555
Zn2 O3 1_555 1_555
O2 C3 1_555 1_555
O3 C8 1_555 1_555
H2 C4 1_555 1_555
C5 C4 1_555 1_555
O6 C8 1_555 1_555
C8 C5 1_555 1_555
O8 Zn2 1_555 1_555
Zn4 O8 1_555 1_555
O10 C12 1_555 1_555
O11 Zn4 1_555 1_555
H5 C13 1_555 1_555
C14 C13 1_555 1_555
O14 C17 1_555 1_555
C17 O11 1_555 1_555
Zn5 O8 1_555 1_555
O17 C21 1_555 1_555
O18 Zn5 1_555 1_555
H8 C22 1_555 1_555
C23 C22 1_555 1_555
O21 C26 1_555 1_555
C26 O18 1_555 1_555
Zn6_2 O2 1_555 1_555
O28_2 Zn6_2 1_555 1_555
O36 Zn6_2 1_555 1_555
C46 C47 1_555 1_555
C47 H16 1_555 1_555
O39 C54 1_555 1_555
O40 C54 1_555 1_555
H18 C51 1_555 1_555
C52 C47 1_555 1_555
C54 C52 1_555 1_555
Zn11 O10 1_555 1_555
Zn12 O17 1_555 1_555
Zn15 O39 1_555 1_555
Zn20 O40 1_555 1_555
O45 Zn4 1_555 1_555
O49 Zn2 1_555 1_555
O50 Zn5 1_555 1_555
O51 Zn2 1_555 1_555
O55 Zn5 1_555 1_555
O56 Zn4 1_555 1_555
C14 C17 1_555 1_555
C23 C26 1_555 1_555
C51 C52 1_555 1_555
Zn1_2 O1 1_555 1_555
C1 C2 1_555 1_555
C2 H1 1_555 1_555
O4 C9 1_555 1_555
O5 C9 1_555 1_555
H3 C6 1_555 1_555
C7 C2 1_555 1_555
O7_2 Zn1_2 1_555 1_555
C9 C7 1_555 1_555
Zn9 O38 1_555 1_555
O37 Zn1_2 1_555 1_555
O38 C53 1_555 1_555
H17 C49 1_555 1_555
C50 C49 1_555 1_555
O41 C53 1_555 1_555
C53 C50 1_555 1_555
Zn16 O5 1_555 1_555
Zn22 O4 1_555 1_555
O47 Zn9 1_555 1_555
O54 Zn9 1_555 1_555
O58 Zn9 1_555 1_555
C6 C7 1_555 1_555
O37 C48 1_555 1_555
O15_2 Zn3_2 1_555 1_555
O42 Zn3_2 1_555 1_555
O43 Zn3_2 1_555 1_555
C19 C20 1_555 1_555
C20 H7 1_555 1_555
O19 C27 1_555 1_555
O20 C27 1_555 1_555
H9 C24 1_555 1_555
C25 C20 1_555 1_555
C27 C25 1_555 1_555
Zn10 O16 1_555 1_555
Zn20 O19 1_555 1_555
Zn24 O20 1_555 1_555
C24 C25 1_555 1_555
O22_2 Zn12 1_555 1_555
C28_2 C29_2 1_555 1_555
C29_2 H10_2 1_555 1_555
O25_2 C36_2 1_555 1_555
O26_2 C36_2 1_555 1_555
H12_2 C33_2 1_555 1_555
C34_2 C29_2 1_555 1_555
O28_3 Zn12 1_555 1_555
C36_2 C34_2 1_555 1_555
Zn25 O26_2 1_555 1_555
O25_2 Zn23 1_555 1_555
C33_2 C34_2 1_555 1_555
Zn2_2 O3_2 1_555 1_555
O2_2 C3_2 1_555 1_555
O3_2 C8_2 1_555 1_555
H2_2 C4_2 1_555 1_555
C5_2 C4_2 1_555 1_555
O6_2 C8_2 1_555 1_555
C8_2 C5_2 1_555 1_555
O57 Zn2_2 1_555 1_555
Zn5_2 O57 1_555 1_555
O44 C21_2 1_555 1_555
O18_2 Zn5_2 1_555 1_555
H8_2 C22_2 1_555 1_555
C23_2 C22_2 1_555 1_555
O21_2 C26_2 1_555 1_555
C26_2 O18_2 1_555 1_555
Zn12_2 O2_2 1_555 1_555
O28_4 Zn12_2 1_555 1_555
O36_2 Zn12_2 1_555 1_555
C46_2 C47_2 1_555 1_555
C47_2 H16_2 1_555 1_555
O39_2 C54_2 1_555 1_555
O40_2 C54_2 1_555 1_555
H18_2 C51_2 1_555 1_555
C52_2 C47_2 1_555 1_555
C54_2 C52_2 1_555 1_555
Zn16 O39_2 1_555 1_555
Zn20_2 O40_2 1_555 1_555
O49_2 Zn2_2 1_555 1_555
O50_2 Zn5_2 1_555 1_555
O51_2 Zn2_2 1_555 1_555
O55_2 Zn5_2 1_555 1_555
C23_2 C26_2 1_555 1_555
C51_2 C52_2 1_555 1_555
C19_2 C20_2 1_555 1_555
C20_2 H7_2 1_555 1_555
O19_2 C27_2 1_555 1_555
O20_2 C27_2 1_555 1_555
H9_2 C24_2 1_555 1_555
C25_2 C20_2 1_555 1_555
C27_2 C25_2 1_555 1_555
Zn11 O16_2 1_555 1_555
Zn20_2 O19_2 1_555 1_555
Zn22 O20_2 1_555 1_555
C24_2 C25_2 1_555 1_555
O7_3 Zn10 1_555 1_555
Zn14 O24_2 1_555 1_555
O23_2 Zn10 1_555 1_555
O24_2 C35_2 1_555 1_555
H11_2 C31_2 1_555 1_555
C32_2 C31_2 1_555 1_555
O27_2 C35_2 1_555 1_555
C35_2 C32_2 1_555 1_555
O46_2 Zn14 1_555 1_555
O52_2 Zn14 1_555 1_555
O23_2 C30_2 1_555 1_555
Zn10_2 O1_2 1_555 1_555
C1_2 C2_2 1_555 1_555
C2_2 H1_2 1_555 1_555
O4_2 C9_2 1_555 1_555
O5_2 C9_2 1_555 1_555
H3_2 C6_2 1_555 1_555
C7_2 C2_2 1_555 1_555
O7_4 Zn10_2 1_555 1_555
C9_2 C7_2 1_555 1_555
Zn9_2 O38_2 1_555 1_555
O37_2 Zn10_2 1_555 1_555
O38_2 C53_2 1_555 1_555
H17_2 C49_2 1_555 1_555
C50_2 C49_2 1_555 1_555
O41_2 C53_2 1_555 1_555
C53_2 C50_2 1_555 1_555
Zn16_2 O5_2 1_555 1_555
Zn17 O4_2 1_555 1_555
O47_2 Zn9_2 1_555 1_555
O54_2 Zn9_2 1_555 1_555
O58 Zn9_2 1_555 1_555
C6_2 C7_2 1_555 1_555
O37_2 C48_2 1_555 1_555
O7_5 Zn11 1_555 1_555
Zn13 O3_3 1_555 1_555
O43 C3_3 1_555 1_555
O3_3 C8_3 1_555 1_555
H2_3 C4_3 1_555 1_555
C5_3 C4_3 1_555 1_555
O6_3 C8_3 1_555 1_555
C8_3 C5_3 1_555 1_555
C46_3 C47_3 1_555 1_555
C47_3 H16_3 1_555 1_555
O39_3 C54_3 1_555 1_555
O40_3 C54_3 1_555 1_555
H18_3 C51_3 1_555 1_555
C52_3 C47_3 1_555 1_555
C54_3 C52_3 1_555 1_555
Zn16_2 O39_3 1_555 1_555
Zn18 O40_3 1_555 1_555
O49_3 Zn13 1_555 1_555
O51_3 Zn13 1_555 1_555
C51_3 C52_3 1_555 1_555
Zn11_2 O1_3 1_555 1_555
C1_3 C2_3 1_555 1_555
C2_3 H1_3 1_555 1_555
O4_3 C9_3 1_555 1_555
O5_3 C9_3 1_555 1_555
H3_3 C6_3 1_555 1_555
C7_3 C2_3 1_555 1_555
O7_6 Zn11_2 1_555 1_555
C9_3 C7_3 1_555 1_555
Zn9_3 O38_3 1_555 1_555
O37_3 Zn11_2 1_555 1_555
O38_3 C53_3 1_555 1_555
H17_3 C49_3 1_555 1_555
C50_3 C49_3 1_555 1_555
O41_3 C53_3 1_555 1_555
C53_3 C50_3 1_555 1_555
Zn15 O5_3 1_555 1_555
Zn24 O4_3 1_555 1_555
O47_3 Zn9_3 1_555 1_555
O54_3 Zn9_3 1_555 1_555
O58 Zn9_3 1_555 1_555
C6_3 C7_3 1_555 1_555
O37_3 C48_3 1_555 1_555
O7_7 Zn1_3 1_555 1_555
O28_5 Zn6_3 1_555 1_555
Zn20_2 O31_2 1_555 1_555
O29_2 Zn1_3 1_555 1_555
O30_2 Zn6_3 1_555 1_555
C37_2 C38_2 1_555 1_555
O31_2 C44_2 1_555 1_555
C38_2 H13_2 1_555 1_555
O50 C45_2 1_555 1_555
C39_2 O29_2 1_555 1_555
C40_2 C37_2 1_555 1_555
H14_2 C40_2 1_555 1_555
O56 C45_2 1_555 1_555
C41_2 C40_2 1_555 1_555
C42_2 C41_2 1_555 1_555
H15_2 C42_2 1_555 1_555
C43_2 C38_2 1_555 1_555
O34_2 C44_2 1_555 1_555
C44_2 C41_2 1_555 1_555
C45_2 C43_2 1_555 1_555
O35_2 Zn20_2 1_555 1_555
Zn25 O38_4 1_555 1_555
O36_3 Zn6_3 1_555 1_555
O37_4 Zn1_3 1_555 1_555
C46_4 C47_4 1_555 1_555
O38_4 C53_4 1_555 1_555
C47_4 H16_4 1_555 1_555
O49_2 C54_4 1_555 1_555
C48_4 O36_3 1_555 1_555
C49_4 C46_4 1_555 1_555
H17_4 C49_4 1_555 1_555
O55_2 C54_4 1_555 1_555
C50_4 C49_4 1_555 1_555
C51_4 C50_4 1_555 1_555
H18_4 C51_4 1_555 1_555
C52_4 C47_4 1_555 1_555
O41_4 C53_4 1_555 1_555
C53_4 C50_4 1_555 1_555
C54_4 C52_4 1_555 1_555
Zn16 O35_2 1_555 1_555
Zn22 O35_2 1_555 1_555
O58_2 Zn25 1_555 1_555
O30_2 C39_2 1_555 1_555
C37_2 C39_2 1_555 1_555
C42_2 C43_2 1_555 1_555
O37_4 C48_4 1_555 1_555
C46_4 C48_4 1_555 1_555
C51_4 C52_4 1_555 1_555
O15_3 Zn3_3 1_555 1_555
O42_2 Zn3_3 1_555 1_555
O44_2 Zn3_3 1_555 1_555
Zn1_4 O1_4 1_555 1_555
Zn16_2 O3_4 1_555 1_555
O1_4 C3_4 1_555 1_555
O2_3 C3_4 1_555 1_555
C1_4 C2_4 1_555 1_555
O3_4 C8_4 1_555 1_555
C2_4 H1_4 1_555 1_555
O46_2 C9_4 1_555 1_555
C3_4 C1_4 1_555 1_555
C4_4 C1_4 1_555 1_555
H2_4 C4_4 1_555 1_555
O51_3 C9_4 1_555 1_555
C5_4 C4_4 1_555 1_555
C6_4 C5_4 1_555 1_555
H3_4 C6_4 1_555 1_555
C7_4 C2_4 1_555 1_555
O6_4 C8_4 1_555 1_555
C8_4 C5_4 1_555 1_555
O7_8 Zn1_4 1_555 1_555
C9_4 C7_4 1_555 1_555
O8_2 Zn16_2 1_555 1_555
Zn3_4 O9_2 1_555 1_555
Zn17 O8_2 1_555 1_555
O9_2 C12_2 1_555 1_555
O10_2 C12_2 1_555 1_555
C10_2 C11_2 1_555 1_555
O11_2 Zn17 1_555 1_555
C11_2 H4_2 1_555 1_555
O47 C18_2 1_555 1_555
C12_2 C10_2 1_555 1_555
C13_2 C10_2 1_555 1_555
H5_2 C13_2 1_555 1_555
O54_2 C18_2 1_555 1_555
C14_2 C13_2 1_555 1_555
C15_2 C14_2 1_555 1_555
H6_2 C15_2 1_555 1_555
C16_2 C11_2 1_555 1_555
O14_2 C17_2 1_555 1_555
C17_2 O11_2 1_555 1_555
O15_4 Zn3_4 1_555 1_555
C18_2 C16_2 1_555 1_555
Zn18 O8_2 1_555 1_555
O16_3 C21_3 1_555 1_555
O17_2 C21_3 1_555 1_555
C19_3 C20_3 1_555 1_555
O18_3 Zn18 1_555 1_555
C20_3 H7_3 1_555 1_555
O50_2 C27_3 1_555 1_555
C21_3 C19_3 1_555 1_555
C22_3 C19_3 1_555 1_555
H8_3 C22_3 1_555 1_555
O52 C27_3 1_555 1_555
C23_3 C22_3 1_555 1_555
C24_3 C23_3 1_555 1_555
H9_3 C24_3 1_555 1_555
C25_3 C20_3 1_555 1_555
O21_3 C26_3 1_555 1_555
C26_3 O18_3 1_555 1_555
C27_3 C25_3 1_555 1_555
Zn6_4 O2_3 1_555 1_555
Zn24 O24_3 1_555 1_555
O22_3 Zn6_4 1_555 1_555
O23_3 Zn1_4 1_555 1_555
C28_3 C29_3 1_555 1_555
O24_3 C35_3 1_555 1_555
C29_3 H10_3 1_555 1_555
O47_2 C36_3 1_555 1_555
C30_3 O22_3 1_555 1_555
C31_3 C28_3 1_555 1_555
H11_3 C31_3 1_555 1_555
O54_3 C36_3 1_555 1_555
C32_3 C31_3 1_555 1_555
C33_3 C32_3 1_555 1_555
H12_3 C33_3 1_555 1_555
C34_3 C29_3 1_555 1_555
O27_3 C35_3 1_555 1_555
C35_3 C32_3 1_555 1_555
O28_6 Zn6_4 1_555 1_555
C36_3 C34_3 1_555 1_555
Zn10_3 O16_3 1_555 1_555
Zn11_4 O10_2 1_555 1_555
Zn12_3 O17_2 1_555 1_555
O43_2 Zn3_4 1_555 1_555
O57_2 Zn24 1_555 1_555
C6_4 C7_4 1_555 1_555
C14_2 C17_2 1_555 1_555
C15_2 C16_2 1_555 1_555
C23_3 C26_3 1_555 1_555
C24_3 C25_3 1_555 1_555
O23_3 C30_3 1_555 1_555
C28_3 C30_3 1_555 1_555
C33_3 C34_3 1_555 1_555
O7_9 Zn10_3 1_555 1_555
O28_7 Zn12_3 1_555 1_555
Zn21 O38_5 1_555 1_555
O36_4 Zn12_3 1_555 1_555
O37_5 Zn10_3 1_555 1_555
C46_5 C47_5 1_555 1_555
O38_5 C53_5 1_555 1_555
C47_5 H16_5 1_555 1_555
O49_3 C54_5 1_555 1_555
C48_5 O36_4 1_555 1_555
C49_5 C46_5 1_555 1_555
H17_5 C49_5 1_555 1_555
O53 C54_5 1_555 1_555
C50_5 C49_5 1_555 1_555
C51_5 C50_5 1_555 1_555
H18_5 C51_5 1_555 1_555
C52_5 C47_5 1_555 1_555
O41_5 C53_5 1_555 1_555
C53_5 C50_5 1_555 1_555
C54_5 C52_5 1_555 1_555
O58_2 Zn21 1_555 1_555
O37_5 C48_5 1_555 1_555
C46_5 C48_5 1_555 1_555
C51_5 C52_5 1_555 1_555
Zn10_4 O1_5 1_555 1_555
Zn15 O3_5 1_555 1_555
O1_5 C3_5 1_555 1_555
O2_4 C3_5 1_555 1_555
C1_5 C2_5 1_555 1_555
O3_5 C8_5 1_555 1_555
C2_5 H1_5 1_555 1_555
O45 C9_5 1_555 1_555
C3_5 C1_5 1_555 1_555
C4_5 C1_5 1_555 1_555
H2_5 C4_5 1_555 1_555
O51 C9_5 1_555 1_555
C5_5 C4_5 1_555 1_555
C6_5 C5_5 1_555 1_555
H3_5 C6_5 1_555 1_555
C7_5 C2_5 1_555 1_555
O6_5 C8_5 1_555 1_555
C8_5 C5_5 1_555 1_555
O7_10 Zn10_4 1_555 1_555
C9_5 C7_5 1_555 1_555
O57_2 Zn15 1_555 1_555
Zn20 O57_2 1_555 1_555
O16_4 C21_4 1_555 1_555
O44_2 C21_4 1_555 1_555
C19_4 C20_4 1_555 1_555
O18_4 Zn20 1_555 1_555
C20_4 H7_4 1_555 1_555
O48 C27_4 1_555 1_555
C21_4 C19_4 1_555 1_555
C22_4 C19_4 1_555 1_555
H8_4 C22_4 1_555 1_555
O52_2 C27_4 1_555 1_555
C23_4 C22_4 1_555 1_555
C24_4 C23_4 1_555 1_555
H9_4 C24_4 1_555 1_555
C25_4 C20_4 1_555 1_555
O21_4 C26_4 1_555 1_555
C26_4 O18_4 1_555 1_555
C27_4 C25_4 1_555 1_555
Zn12_4 O2_4 1_555 1_555
Zn22 O24_4 1_555 1_555
O22_4 Zn12_4 1_555 1_555
O23_4 Zn10_4 1_555 1_555
C28_4 C29_4 1_555 1_555
O24_4 C35_4 1_555 1_555
C29_4 H10_4 1_555 1_555
O47_3 C36_4 1_555 1_555
C30_4 O22_4 1_555 1_555
C31_4 C28_4 1_555 1_555
H11_4 C31_4 1_555 1_555
O54 C36_4 1_555 1_555
C32_4 C31_4 1_555 1_555
C33_4 C32_4 1_555 1_555
H12_4 C33_4 1_555 1_555
C34_4 C29_4 1_555 1_555
O27_4 C35_4 1_555 1_555
C35_4 C32_4 1_555 1_555
O28_8 Zn12_4 1_555 1_555
C36_4 C34_4 1_555 1_555
Zn11_3 O16_4 1_555 1_555
C6_5 C7_5 1_555 1_555
C23_4 C26_4 1_555 1_555
C24_4 C25_4 1_555 1_555
O23_4 C30_4 1_555 1_555
C28_4 C30_4 1_555 1_555
C33_4 C34_4 1_555 1_555
O7_11 Zn11_3 1_555 1_555
Zn23 O38_6 1_555 1_555
O37_6 Zn11_3 1_555 1_555
C46_6 C47_6 1_555 1_555
O38_6 C53_6 1_555 1_555
C47_6 H16_6 1_555 1_555
O49 C54_6 1_555 1_555
C48_6 O42_2 1_555 1_555
C49_6 C46_6 1_555 1_555
H17_6 C49_6 1_555 1_555
O55 C54_6 1_555 1_555
C50_6 C49_6 1_555 1_555
C51_6 C50_6 1_555 1_555
H18_6 C51_6 1_555 1_555
C52_6 C47_6 1_555 1_555
O41_6 C53_6 1_555 1_555
C53_6 C50_6 1_555 1_555
C54_6 C52_6 1_555 1_555
O58_2 Zn23 1_555 1_555
O37_6 C48_6 1_555 1_555
C46_6 C48_6 1_555 1_555
C51_6 C52_6 1_555 1_555
Zn11_4 O1_6 1_555 1_555
Zn16 O3_6 1_555 1_555
O1_6 C3_6 1_555 1_555
O43_2 C3_6 1_555 1_555
C1_6 C2_6 1_555 1_555
O3_6 C8_6 1_555 1_555
C2_6 H1_6 1_555 1_555
O46 C9_6 1_555 1_555
C3_6 C1_6 1_555 1_555
C4_6 C1_6 1_555 1_555
H2_6 C4_6 1_555 1_555
O51_2 C9_6 1_555 1_555
C5_6 C4_6 1_555 1_555
C6_6 C5_6 1_555 1_555
H3_6 C6_6 1_555 1_555
C7_6 C2_6 1_555 1_555
O6_6 C8_6 1_555 1_555
C8_6 C5_6 1_555 1_555
O7_12 Zn11_4 1_555 1_555
C9_6 C7_6 1_555 1_555
C6_6 C7_6 1_555 1_555

#END
