
###############################################################################
#
# This file contains modified crystal structure data generated from the
# MOF subset of the Cambridge Structural Database (CSD) v543 
# hosted by the Cambridge Crystallographic Data Centre (CCDC).
#
# This work is licensed under the Creative Commons
# Attribution-NonCommercial-ShareAlike 4.0 International License.
# To view a copy of this license, visit
# http://creativecommons.org/licenses/by-nc-sa/4.0/
# or send a letter to
# Creative Commons, PO Box 1866, Mountain View, CA 94042, USA.
#
# CIF created using the CSD Python API on 29 September 2022
# The structure has been converted into the P1 space group
# The structure has a 3D framework
# The original CSD entry XASPEP is in the tetragonal crystal system
# The framework has been calculated to contain at least 10.0% void space
# The void calculation uses a probe of radius 1.32A, grid spacing 0.4
# The framework is charged, counterions have been retained in the structure
# H atom positions have been added when not included in the experimental data
#
###############################################################################

data_XASPEP
_chemical_formula_moiety         '(C168 H104 N8 O99 Zn24 3-)n'
_symmetry_cell_setting           triclinic
_symmetry_space_group_name_H-M   'P 1'
_symmetry_Int_Tables_number      1
_space_group_name_Hall           'P 1'
loop_
_symmetry_equiv_pos_site_id
_symmetry_equiv_pos_as_xyz
1 x,y,z
_cell_length_a                   20.4968(4)
_cell_length_b                   20.4968(4)
_cell_length_c                   17.8183(6)
_cell_angle_alpha                90
_cell_angle_beta                 90
_cell_angle_gamma                90
_cell_volume                     7485.8
loop_
_atom_site_label
_atom_site_type_symbol
_atom_site_fract_x
_atom_site_fract_y
_atom_site_fract_z
Zn1 Zn 0.34443(2) 0.15557(2) 0.71367(4)
Zn2 Zn 0.25772(2) 0.11906(2) 0.85942(4)
C1 C 0.1421(2) 0.2155(2) 0.6989(3)
C2 C 0.1437(2) 0.2262(3) 0.6222(3)
H1 H 0.1796 0.2098 0.5932
C3 C 0.0943(2) 0.2608(3) 0.5873(3)
C4 C 0.0409(2) 0.2839(3) 0.6297(2)
H2 H 0.0073 0.3092 0.6059
C5 C 0.0375(2) 0.2703(2) 0.7065(2)
C6 C 0.0880(2) 0.2363(3) 0.7407(3)
H3 H 0.0860 0.2269 0.7934
C7 C 0.1975(2) 0.1801(3) 0.7365(2)
C8 C 0.0925(3) 0.2719(3) 0.5040(3)
O1 O 0.24201(17) 0.1597(2) 0.6970(2)
O2 O 0.19216(17) 0.1731(2) 0.80719(19)
O3 O 0.1301(2) 0.2366(2) 0.4644(2)
O4 O 0.0543(3) 0.3109(3) 0.4768(2)
O7 O 0.3599(2) 0.1401(2) 0.6015(3)
O8 O 0.34070(14) 0.15930(14) 0.8314(2)
N1 N 0.3409(3) 0.1591(3) 0.4787(5)
C10 C 0.3322(3) 0.1678(3) 0.5527(6)
C11 C 0.3050(6) 0.1950(6) 0.4217(10)
C12 C 0.3886(6) 0.1114(6) 0.4520(13)
Zn8 Zn 0.11906(2) 0.25772(2) 0.35942(4)
Zn9 Zn 0.38094(2) 0.24228(2) 0.85942(4)
O15 O 0.3403(2) 0.25799(17) 0.6970(2)
O17 O 0.2366(2) 0.1301(2) 0.9644(2)
O18 O 0.33756(16) 0.05435(15) 0.7231(2)
O19 O 0.44565(15) 0.16244(16) 0.7231(2)
O20 O 0.2572(2) 0.03429(18) 0.8079(2)
H7 H 0.296077 0.203923 0.569491
H8 H 0.314343 0.247007 0.428089
H9 H 0.320778 0.179222 0.366234
H10 H 0.252993 0.185657 0.428089
H11 H 0.375529 0.0631216 0.472615
H12 H 0.388917 0.111083 0.390885
H13 H 0.436878 0.124471 0.472615
C9 C 0.9786(2) 0.2897(3) 0.7490(3)
O5 O 0.94565(15) 0.33756(16) 0.7231(2)
O6 O 0.96571(18) 0.2572(2) 0.8079(2)
Zn3 Zn 0.88094(2) 0.25772(2) 0.85942(4)
C13 C 0.7845(2) 0.1421(2) 0.6989(3)
C14 C 0.7738(3) 0.1437(2) 0.6222(3)
H4 H 0.7902 0.1796 0.5932
C15 C 0.7392(3) 0.0943(2) 0.5873(3)
C16 C 0.7161(3) 0.0409(2) 0.6297(2)
H5 H 0.6908 0.0073 0.6059
C17 C 0.7297(2) 0.0375(2) 0.7065(2)
C18 C 0.7637(3) 0.0880(2) 0.7407(3)
H6 H 0.7731 0.0860 0.7934
C19 C 0.8199(3) 0.1975(2) 0.7365(2)
C20 C 0.7281(3) 0.0925(3) 0.5040(3)
O9 O 0.8403(2) 0.24201(17) 0.6970(2)
O10 O 0.8269(2) 0.19216(17) 0.80719(19)
O11 O 0.7634(2) 0.1301(2) 0.4644(2)
O12 O 0.6891(3) 0.0543(3) 0.4768(2)
Zn4 Zn 0.84443(2) 0.34443(2) 0.71367(4)
Zn7 Zn 0.74228(2) 0.11906(2) 0.35942(4)
O16 O 0.8699(2) 0.2366(2) 0.9644(2)
O21 O 0.84070(14) 0.34070(14) 0.8314(2)
C21 C 0.7103(3) 0.9786(2) 0.7490(3)
O13 O 0.66244(16) 0.94565(15) 0.7231(2)
O14 O 0.7428(2) 0.96571(18) 0.8079(2)
Zn5 Zn 0.65557(2) 0.84443(2) 0.71367(4)
Zn6 Zn 0.74228(2) 0.88094(2) 0.85942(4)
C21_2 C 0.0214(2) 0.7103(3) 0.7490(3)
O13_2 O 0.05435(15) 0.66244(16) 0.7231(2)
O14_2 O 0.03429(18) 0.7428(2) 0.8079(2)
Zn5_2 Zn 0.15557(2) 0.65557(2) 0.71367(4)
Zn6_2 Zn 0.11906(2) 0.74228(2) 0.85942(4)
O7_2 O 0.8599(2) 0.3599(2) 0.6015(3)
N1_2 N 0.8409(3) 0.3409(3) 0.4787(5)
C10_2 C 0.8322(3) 0.3322(3) 0.5527(6)
C11_2 C 0.8050(6) 0.3050(6) 0.4217(10)
C12_2 C 0.8886(6) 0.3886(6) 0.4520(13)
Zn9_2 Zn 0.75772(2) 0.38094(2) 0.85942(4)
O15_2 O 0.74201(17) 0.3403(2) 0.6970(2)
O19_2 O 0.83756(16) 0.44565(15) 0.7231(2)
H7_2 H 0.796077 0.296077 0.569491
H8_2 H 0.752993 0.314343 0.428089
H9_2 H 0.820778 0.320778 0.366234
H10_2 H 0.814343 0.252993 0.428089
H11_2 H 0.936878 0.375529 0.472615
H12_2 H 0.888917 0.388917 0.390885
H13_2 H 0.875529 0.436878 0.472615
C13_2 C 0.8579(2) 0.7845(2) 0.6989(3)
C14_2 C 0.8563(2) 0.7738(3) 0.6222(3)
H4_2 H 0.8204 0.7902 0.5932
C15_2 C 0.9057(2) 0.7392(3) 0.5873(3)
C16_2 C 0.9591(2) 0.7161(3) 0.6297(2)
H5_2 H 0.9927 0.6908 0.6059
C17_2 C 0.9625(2) 0.7297(2) 0.7065(2)
C18_2 C 0.9120(2) 0.7637(3) 0.7407(3)
H6_2 H 0.9140 0.7731 0.7934
C19_2 C 0.8025(2) 0.8199(3) 0.7365(2)
C20_2 C 0.9075(3) 0.7281(3) 0.5040(3)
O9_2 O 0.75799(17) 0.8403(2) 0.6970(2)
O10_2 O 0.80784(17) 0.8269(2) 0.80719(19)
O11_2 O 0.8699(2) 0.7634(2) 0.4644(2)
O12_2 O 0.9457(3) 0.6891(3) 0.4768(2)
Zn7_2 Zn 0.88094(2) 0.74228(2) 0.35942(4)
O16_2 O 0.7634(2) 0.8699(2) 0.9644(2)
O21_2 O 0.65930(14) 0.84070(14) 0.8314(2)
C21_3 C 0.2897(3) 0.0214(2) 0.7490(3)
C13_3 C 0.2155(2) 0.8579(2) 0.6989(3)
C14_3 C 0.2262(3) 0.8563(2) 0.6222(3)
H4_3 H 0.2098 0.8204 0.5932
C15_3 C 0.2608(3) 0.9057(2) 0.5873(3)
C16_3 C 0.2839(3) 0.9591(2) 0.6297(2)
H5_3 H 0.3092 0.9927 0.6059
C17_3 C 0.2703(2) 0.9625(2) 0.7065(2)
C18_3 C 0.2363(3) 0.9120(2) 0.7407(3)
H6_3 H 0.2269 0.9140 0.7934
C19_3 C 0.1801(3) 0.8025(2) 0.7365(2)
C20_3 C 0.2719(3) 0.9075(3) 0.5040(3)
O9_3 O 0.1597(2) 0.75799(17) 0.6970(2)
O10_3 O 0.1731(2) 0.80784(17) 0.80719(19)
O11_3 O 0.2366(2) 0.8699(2) 0.4644(2)
O12_3 O 0.3109(3) 0.9457(3) 0.4768(2)
Zn7_3 Zn 0.25772(2) 0.88094(2) 0.35942(4)
O16_3 O 0.1301(2) 0.7634(2) 0.9644(2)
O21_3 O 0.15930(14) 0.65930(14) 0.8314(2)
O7_3 O 0.6401(2) 0.8599(2) 0.6015(3)
N1_3 N 0.6591(3) 0.8409(3) 0.4787(5)
C10_3 C 0.6678(3) 0.8322(3) 0.5527(6)
C11_3 C 0.6950(6) 0.8050(6) 0.4217(10)
C12_3 C 0.6114(6) 0.8886(6) 0.4520(13)
Zn9_3 Zn 0.61906(2) 0.75772(2) 0.85942(4)
O15_3 O 0.6597(2) 0.74201(17) 0.6970(2)
O19_3 O 0.55435(15) 0.83756(16) 0.7231(2)
H7_3 H 0.703923 0.796077 0.569491
H8_3 H 0.685657 0.752993 0.428089
H9_3 H 0.679222 0.820778 0.366234
H10_3 H 0.747007 0.814343 0.428089
H11_3 H 0.624471 0.936878 0.472615
H12_3 H 0.611083 0.888917 0.390885
H13_3 H 0.563122 0.875529 0.472615
O7_4 O 0.1401(2) 0.6401(2) 0.6015(3)
N1_4 N 0.1591(3) 0.6591(3) 0.4787(5)
C10_4 C 0.1678(3) 0.6678(3) 0.5527(6)
C11_4 C 0.1950(6) 0.6950(6) 0.4217(10)
C12_4 C 0.1114(6) 0.6114(6) 0.4520(13)
Zn9_4 Zn 0.24228(2) 0.61906(2) 0.85942(4)
O15_4 O 0.25799(17) 0.6597(2) 0.6970(2)
O19_4 O 0.16244(16) 0.55435(15) 0.7231(2)
H7_4 H 0.203923 0.703923 0.569491
H8_4 H 0.247007 0.685657 0.428089
H9_4 H 0.179222 0.679222 0.366234
H10_4 H 0.185657 0.747007 0.428089
H11_4 H 0.0631216 0.624471 0.472615
H12_4 H 0.111083 0.611083 0.390885
H13_4 H 0.124471 0.563122 0.472615
C9_2 C 0.0214(2) 0.2897(3) 0.2490(3)
O5_2 O 0.05435(15) 0.33756(16) 0.2231(2)
O6_2 O 0.03429(18) 0.2572(2) 0.3079(2)
C13_4 C 0.2155(2) 0.1421(2) 0.1989(3)
C14_4 C 0.2262(3) 0.1437(2) 0.1222(3)
H4_4 H 0.2098 0.1796 0.0932
C15_4 C 0.2608(3) 0.0943(2) 0.0873(3)
C16_4 C 0.2839(3) 0.0409(2) 0.1297(2)
H5_4 H 0.3092 0.0073 0.1059
C17_4 C 0.2703(2) 0.0375(2) 0.2065(2)
C18_4 C 0.2363(3) 0.0880(2) 0.2407(3)
H6_4 H 0.2269 0.0860 0.2934
C19_4 C 0.1801(3) 0.1975(2) 0.2365(2)
C20_4 C 0.2719(3) 0.0925(3) 0.0040(3)
O9_4 O 0.1597(2) 0.24201(17) 0.1970(2)
O10_4 O 0.1731(2) 0.19216(17) 0.30719(19)
Zn4_2 Zn 0.15557(2) 0.34443(2) 0.21367(4)
O21_4 O 0.15930(14) 0.34070(14) 0.3314(2)
O12_4 O 0.3109(3) 0.0543(3) 0.9768(2)
C21_4 C 0.2897(3) 0.9786(2) 0.2490(3)
O13_3 O 0.33756(16) 0.94565(15) 0.2231(2)
O14_3 O 0.2572(2) 0.96571(18) 0.3079(2)
Zn5_3 Zn 0.34443(2) 0.84443(2) 0.21367(4)
Zn1_2 Zn 0.65557(2) 0.15557(2) 0.21367(4)
C1_2 C 0.8579(2) 0.2155(2) 0.1989(3)
C2_2 C 0.8563(2) 0.2262(3) 0.1222(3)
H1_2 H 0.8204 0.2098 0.0932
C3_2 C 0.9057(2) 0.2608(3) 0.0873(3)
C4_2 C 0.9591(2) 0.2839(3) 0.1297(2)
H2_2 H 0.9927 0.3092 0.1059
C5_2 C 0.9625(2) 0.2703(2) 0.2065(2)
C6_2 C 0.9120(2) 0.2363(3) 0.2407(3)
H3_2 H 0.9140 0.2269 0.2934
C7_2 C 0.8025(2) 0.1801(3) 0.2365(2)
C8_2 C 0.9075(3) 0.2719(3) 0.0040(3)
O1_2 O 0.75799(17) 0.1597(2) 0.1970(2)
O2_2 O 0.80784(17) 0.1731(2) 0.30719(19)
O7_5 O 0.6401(2) 0.1401(2) 0.1015(3)
O8_2 O 0.65930(14) 0.15930(14) 0.3314(2)
C10_5 C 0.6678(3) 0.1678(3) 0.0527(6)
Zn9_5 Zn 0.61906(2) 0.24228(2) 0.35942(4)
O15_5 O 0.6597(2) 0.25799(17) 0.1970(2)
O18_2 O 0.66244(16) 0.05435(15) 0.2231(2)
O19_5 O 0.55435(15) 0.16244(16) 0.2231(2)
O20_2 O 0.7428(2) 0.03429(18) 0.3079(2)
H7_5 H 0.703923 0.203923 0.0694908
O4_2 O 0.9457(3) 0.3109(3) 0.9768(2)
N1_5 N 0.6591(3) 0.1591(3) 0.9787(5)
C11_5 C 0.6950(6) 0.1950(6) 0.9217(10)
C12_5 C 0.6114(6) 0.1114(6) 0.9520(13)
H8_5 H 0.685657 0.247007 0.928089
H9_5 H 0.679222 0.179222 0.866234
H10_5 H 0.747007 0.185657 0.928089
H11_5 H 0.624471 0.0631216 0.972615
H12_5 H 0.611083 0.111083 0.890885
H13_5 H 0.563122 0.124471 0.972615
C1_3 C 0.1421(2) 0.7845(2) 0.1989(3)
C2_3 C 0.1437(2) 0.7738(3) 0.1222(3)
H1_3 H 0.1796 0.7902 0.0932
C3_3 C 0.0943(2) 0.7392(3) 0.0873(3)
C4_3 C 0.0409(2) 0.7161(3) 0.1297(2)
H2_3 H 0.0073 0.6908 0.1059
C5_3 C 0.0375(2) 0.7297(2) 0.2065(2)
C6_3 C 0.0880(2) 0.7637(3) 0.2407(3)
H3_3 H 0.0860 0.7731 0.2934
C7_3 C 0.1975(2) 0.8199(3) 0.2365(2)
C8_3 C 0.0925(3) 0.7281(3) 0.0040(3)
O1_3 O 0.24201(17) 0.8403(2) 0.1970(2)
O2_3 O 0.19216(17) 0.8269(2) 0.30719(19)
O7_6 O 0.3599(2) 0.8599(2) 0.1015(3)
O8_3 O 0.34070(14) 0.84070(14) 0.3314(2)
C10_6 C 0.3322(3) 0.8322(3) 0.0527(6)
Zn9_6 Zn 0.38094(2) 0.75772(2) 0.35942(4)
O15_6 O 0.3403(2) 0.74201(17) 0.1970(2)
O19_6 O 0.44565(15) 0.83756(16) 0.2231(2)
H7_6 H 0.296077 0.796077 0.0694908
O4_3 O 0.0543(3) 0.6891(3) 0.9768(2)
N1_6 N 0.3409(3) 0.8409(3) 0.9787(5)
C11_6 C 0.3050(6) 0.8050(6) 0.9217(10)
C12_6 C 0.3886(6) 0.8886(6) 0.9520(13)
H8_6 H 0.314343 0.752993 0.928089
H9_6 H 0.320778 0.820778 0.866234
H10_6 H 0.252993 0.814343 0.928089
H11_6 H 0.375529 0.936878 0.972615
H12_6 H 0.388917 0.888917 0.890885
H13_6 H 0.436878 0.875529 0.972615
C21_5 C 0.7103(3) 0.0214(2) 0.2490(3)
C9_3 C 0.9786(2) 0.7103(3) 0.2490(3)
O5_3 O 0.94565(15) 0.66244(16) 0.2231(2)
O6_3 O 0.96571(18) 0.7428(2) 0.3079(2)
C13_5 C 0.7845(2) 0.8579(2) 0.1989(3)
C14_5 C 0.7738(3) 0.8563(2) 0.1222(3)
H4_5 H 0.7902 0.8204 0.0932
C15_5 C 0.7392(3) 0.9057(2) 0.0873(3)
C16_5 C 0.7161(3) 0.9591(2) 0.1297(2)
H5_5 H 0.6908 0.9927 0.1059
C17_5 C 0.7297(2) 0.9625(2) 0.2065(2)
C18_5 C 0.7637(3) 0.9120(2) 0.2407(3)
H6_5 H 0.7731 0.9140 0.2934
C19_5 C 0.8199(3) 0.8025(2) 0.2365(2)
C20_5 C 0.7281(3) 0.9075(3) 0.0040(3)
O9_5 O 0.8403(2) 0.75799(17) 0.1970(2)
O10_5 O 0.8269(2) 0.80784(17) 0.30719(19)
Zn4_3 Zn 0.84443(2) 0.65557(2) 0.21367(4)
O21_5 O 0.84070(14) 0.65930(14) 0.3314(2)
O12_5 O 0.6891(3) 0.9457(3) 0.9768(2)
O7_7 O 0.8599(2) 0.6401(2) 0.1015(3)
C10_7 C 0.8322(3) 0.6678(3) 0.0527(6)
Zn9_7 Zn 0.75772(2) 0.61906(2) 0.35942(4)
O15_7 O 0.74201(17) 0.6597(2) 0.1970(2)
O19_7 O 0.83756(16) 0.55435(15) 0.2231(2)
H7_7 H 0.796077 0.703923 0.0694908
N1_7 N 0.8409(3) 0.6591(3) 0.9787(5)
C11_7 C 0.8050(6) 0.6950(6) 0.9217(10)
C12_7 C 0.8886(6) 0.6114(6) 0.9520(13)
H8_7 H 0.752993 0.685657 0.928089
H9_7 H 0.820778 0.679222 0.866234
H10_7 H 0.814343 0.747007 0.928089
H11_7 H 0.936878 0.624471 0.972615
H12_7 H 0.888917 0.611083 0.890885
H13_7 H 0.875529 0.563122 0.972615
O7_8 O 0.1401(2) 0.3599(2) 0.1015(3)
C10_8 C 0.1678(3) 0.3322(3) 0.0527(6)
Zn9_8 Zn 0.24228(2) 0.38094(2) 0.35942(4)
O15_8 O 0.25799(17) 0.3403(2) 0.1970(2)
O19_8 O 0.16244(16) 0.44565(15) 0.2231(2)
H7_8 H 0.203923 0.296077 0.0694908
N1_8 N 0.1591(3) 0.3409(3) 0.9787(5)
C11_8 C 0.1950(6) 0.3050(6) 0.9217(10)
C12_8 C 0.1114(6) 0.3886(6) 0.9520(13)
H8_8 H 0.247007 0.314343 0.928089
H9_8 H 0.179222 0.320778 0.866234
H10_8 H 0.185657 0.252993 0.928089
H11_8 H 0.0631216 0.375529 0.972615
H12_8 H 0.111083 0.388917 0.890885
H13_8 H 0.124471 0.436878 0.972615
C1_4 C 0.6421(2) 0.7155(2) 0.1989(3)
C2_4 C 0.6437(2) 0.7262(3) 0.1222(3)
H1_4 H 0.6796 0.7098 0.0932
C3_4 C 0.5943(2) 0.7608(3) 0.0873(3)
C4_4 C 0.5409(2) 0.7839(3) 0.1297(2)
H2_4 H 0.5073 0.8092 0.1059
C5_4 C 0.5375(2) 0.7703(2) 0.2065(2)
C6_4 C 0.5880(2) 0.7363(3) 0.2407(3)
H3_4 H 0.5860 0.7269 0.2934
C7_4 C 0.6975(2) 0.6801(3) 0.2365(2)
C8_4 C 0.5925(3) 0.7719(3) 0.0040(3)
C9_4 C 0.4786(2) 0.7897(3) 0.2490(3)
O2_4 O 0.69216(17) 0.6731(2) 0.30719(19)
O6_4 O 0.46571(18) 0.7572(2) 0.3079(2)
C13_6 C 0.2845(2) 0.6421(2) 0.1989(3)
C14_6 C 0.2738(3) 0.6437(2) 0.1222(3)
H4_6 H 0.2902 0.6796 0.0932
C15_6 C 0.2392(3) 0.5943(2) 0.0873(3)
C16_6 C 0.2161(3) 0.5409(2) 0.1297(2)
H5_6 H 0.1908 0.5073 0.1059
C17_6 C 0.2297(2) 0.5375(2) 0.2065(2)
C18_6 C 0.2637(3) 0.5880(2) 0.2407(3)
H6_6 H 0.2731 0.5860 0.2934
C19_6 C 0.3199(3) 0.6975(2) 0.2365(2)
C20_6 C 0.2281(3) 0.5925(3) 0.0040(3)
C21_6 C 0.2103(3) 0.4786(2) 0.2490(3)
O10_6 O 0.3269(2) 0.69216(17) 0.30719(19)
O14_4 O 0.2428(2) 0.46571(18) 0.3079(2)
O16_4 O 0.3699(2) 0.7366(2) 0.4644(2)
O17_2 O 0.7366(2) 0.6301(2) 0.4644(2)
O20_3 O 0.7572(2) 0.53429(18) 0.3079(2)
O3_2 O 0.6301(2) 0.7366(2) 0.9644(2)
O4_4 O 0.5543(3) 0.8109(3) 0.9768(2)
O11_4 O 0.2634(2) 0.6301(2) 0.9644(2)
O12_6 O 0.1891(3) 0.5543(3) 0.9768(2)
C13_7 C 0.3579(2) 0.2845(2) 0.1989(3)
C14_7 C 0.3563(2) 0.2738(3) 0.1222(3)
H4_7 H 0.3204 0.2902 0.0932
C15_7 C 0.4057(2) 0.2392(3) 0.0873(3)
C16_7 C 0.4591(2) 0.2161(3) 0.1297(2)
H5_7 H 0.4927 0.1908 0.1059
C17_7 C 0.4625(2) 0.2297(2) 0.2065(2)
C18_7 C 0.4120(2) 0.2637(3) 0.2407(3)
H6_7 H 0.4140 0.2731 0.2934
C19_7 C 0.3025(2) 0.3199(3) 0.2365(2)
C20_7 C 0.4075(3) 0.2281(3) 0.0040(3)
C21_7 C 0.5214(2) 0.2103(3) 0.2490(3)
O10_7 O 0.30784(17) 0.3269(2) 0.30719(19)
O14_5 O 0.53429(18) 0.2428(2) 0.3079(2)
O16_5 O 0.2634(2) 0.3699(2) 0.4644(2)
O11_5 O 0.3699(2) 0.2634(2) 0.9644(2)
O12_7 O 0.4457(3) 0.1891(3) 0.9768(2)
C13_8 C 0.7155(2) 0.3579(2) 0.1989(3)
C14_8 C 0.7262(3) 0.3563(2) 0.1222(3)
H4_8 H 0.7098 0.3204 0.0932
C15_8 C 0.7608(3) 0.4057(2) 0.0873(3)
C16_8 C 0.7839(3) 0.4591(2) 0.1297(2)
H5_8 H 0.8092 0.4927 0.1059
C17_8 C 0.7703(2) 0.4625(2) 0.2065(2)
C18_8 C 0.7363(3) 0.4120(2) 0.2407(3)
H6_8 H 0.7269 0.4140 0.2934
C19_8 C 0.6801(3) 0.3025(2) 0.2365(2)
C20_8 C 0.7719(3) 0.4075(3) 0.0040(3)
C21_8 C 0.7897(3) 0.5214(2) 0.2490(3)
O10_8 O 0.6731(2) 0.30784(17) 0.30719(19)
O16_6 O 0.6301(2) 0.2634(2) 0.4644(2)
O11_6 O 0.7366(2) 0.3699(2) 0.9644(2)
O12_8 O 0.8109(3) 0.4457(3) 0.9768(2)
C1_5 C 0.3579(2) 0.7155(2) 0.6989(3)
C2_5 C 0.3563(2) 0.7262(3) 0.6222(3)
H1_5 H 0.3204 0.7098 0.5932
C3_5 C 0.4057(2) 0.7608(3) 0.5873(3)
C4_5 C 0.4591(2) 0.7839(3) 0.6297(2)
H2_5 H 0.4927 0.8092 0.6059
C5_5 C 0.4625(2) 0.7703(2) 0.7065(2)
C6_5 C 0.4120(2) 0.7363(3) 0.7407(3)
H3_5 H 0.4140 0.7269 0.7934
C7_5 C 0.3025(2) 0.6801(3) 0.7365(2)
C8_5 C 0.4075(3) 0.7719(3) 0.5040(3)
C9_5 C 0.5214(2) 0.7897(3) 0.7490(3)
O2_5 O 0.30784(17) 0.6731(2) 0.80719(19)
O4_5 O 0.4457(3) 0.8109(3) 0.4768(2)
O6_5 O 0.53429(18) 0.7572(2) 0.8079(2)
C13_9 C 0.7155(2) 0.6421(2) 0.6989(3)
C14_9 C 0.7262(3) 0.6437(2) 0.6222(3)
H4_9 H 0.7098 0.6796 0.5932
C15_9 C 0.7608(3) 0.5943(2) 0.5873(3)
C16_9 C 0.7839(3) 0.5409(2) 0.6297(2)
H5_9 H 0.8092 0.5073 0.6059
C17_9 C 0.7703(2) 0.5375(2) 0.7065(2)
C18_9 C 0.7363(3) 0.5880(2) 0.7407(3)
H6_9 H 0.7269 0.5860 0.7934
C19_9 C 0.6801(3) 0.6975(2) 0.7365(2)
C20_9 C 0.7719(3) 0.5925(3) 0.5040(3)
C21_9 C 0.7897(3) 0.4786(2) 0.7490(3)
O10_9 O 0.6731(2) 0.69216(17) 0.80719(19)
O12_9 O 0.8109(3) 0.5543(3) 0.4768(2)
O14_6 O 0.7572(2) 0.46571(18) 0.8079(2)
O20_4 O 0.2428(2) 0.53429(18) 0.8079(2)
C1_6 C 0.6421(2) 0.2845(2) 0.6989(3)
C2_6 C 0.6437(2) 0.2738(3) 0.6222(3)
H1_6 H 0.6796 0.2902 0.5932
C3_6 C 0.5943(2) 0.2392(3) 0.5873(3)
C4_6 C 0.5409(2) 0.2161(3) 0.6297(2)
H2_6 H 0.5073 0.1908 0.6059
C5_6 C 0.5375(2) 0.2297(2) 0.7065(2)
C6_6 C 0.5880(2) 0.2637(3) 0.7407(3)
H3_6 H 0.5860 0.2731 0.7934
C7_6 C 0.6975(2) 0.3199(3) 0.7365(2)
C8_6 C 0.5925(3) 0.2281(3) 0.5040(3)
C9_6 C 0.4786(2) 0.2103(3) 0.7490(3)
O2_6 O 0.69216(17) 0.3269(2) 0.80719(19)
O4_6 O 0.5543(3) 0.1891(3) 0.4768(2)
O6_6 O 0.46571(18) 0.2428(2) 0.8079(2)
C13_10 C 0.2845(2) 0.3579(2) 0.6989(3)
C14_10 C 0.2738(3) 0.3563(2) 0.6222(3)
H4_10 H 0.2902 0.3204 0.5932
C15_10 C 0.2392(3) 0.4057(2) 0.5873(3)
C16_10 C 0.2161(3) 0.4591(2) 0.6297(2)
H5_10 H 0.1908 0.4927 0.6059
C17_10 C 0.2297(2) 0.4625(2) 0.7065(2)
C18_10 C 0.2637(3) 0.4120(2) 0.7407(3)
H6_10 H 0.2731 0.4140 0.7934
C19_10 C 0.3199(3) 0.3025(2) 0.7365(2)
C20_10 C 0.2281(3) 0.4075(3) 0.5040(3)
C21_10 C 0.2103(3) 0.5214(2) 0.7490(3)
O10_10 O 0.3269(2) 0.30784(17) 0.80719(19)
O12_10 O 0.1891(3) 0.4457(3) 0.4768(2)
loop_
_geom_bond_atom_site_label_1
_geom_bond_atom_site_label_2
_geom_bond_site_symmetry_1
_geom_bond_site_symmetry_2
Zn1 O1 1_555 1_555
Zn2 O2 1_555 1_555
C1 C2 1_555 1_555
C2 H1 1_555 1_555
C3 C2 1_555 1_555
C4 C3 1_555 1_555
H2 C4 1_555 1_555
C5 C4 1_555 1_555
C6 C1 1_555 1_555
H3 C6 1_555 1_555
C7 C1 1_555 1_555
C8 C3 1_555 1_555
O1 C7 1_555 1_555
O2 C7 1_555 1_555
O3 C8 1_555 1_555
O4 C8 1_555 1_555
O7 Zn1 1_555 1_555
O8 Zn1 1_555 1_555
N1 C10 1_555 1_555
C10 O7 1_555 1_555
C11 N1 1_555 1_555
C12 N1 1_555 1_555
Zn8 O3 1_555 1_555
Zn9 O8 1_555 1_555
O15 Zn1 1_555 1_555
O17 Zn2 1_555 1_555
O18 Zn1 1_555 1_555
O19 Zn1 1_555 1_555
O20 Zn2 1_555 1_555
Zn2 O8 1_555 1_555
C5 C6 1_555 1_555
C10 H7 1_555 1_555
C11 H8 1_555 1_555
C11 H9 1_555 1_555
C11 H10 1_555 1_555
C12 H11 1_555 1_555
C12 H12 1_555 1_555
C12 H13 1_555 1_555
O5 C9 1_555 1_555
O6 C9 1_555 1_555
Zn3 O6 1_555 1_555
C13 C14 1_555 1_555
C14 H4 1_555 1_555
C15 C14 1_555 1_555
C16 C15 1_555 1_555
H5 C16 1_555 1_555
C17 C16 1_555 1_555
C18 C13 1_555 1_555
H6 C18 1_555 1_555
C19 C13 1_555 1_555
C20 C15 1_555 1_555
O9 C19 1_555 1_555
O10 Zn3 1_555 1_555
O11 C20 1_555 1_555
O12 C20 1_555 1_555
Zn4 O5 1_555 1_555
Zn7 O11 1_555 1_555
O16 Zn3 1_555 1_555
O21 Zn3 1_555 1_555
C17 C18 1_555 1_555
C19 O10 1_555 1_555
O9 Zn4 1_555 1_555
Zn4 O21 1_555 1_555
O13 C21 1_555 1_555
O14 C21 1_555 1_555
Zn5 O13 1_555 1_555
Zn6 O14 1_555 1_555
O13_2 C21_2 1_555 1_555
O14_2 C21_2 1_555 1_555
Zn5_2 O13_2 1_555 1_555
Zn6_2 O14_2 1_555 1_555
O7_2 Zn4 1_555 1_555
N1_2 C10_2 1_555 1_555
C10_2 O7_2 1_555 1_555
C11_2 N1_2 1_555 1_555
C12_2 N1_2 1_555 1_555
Zn9_2 O21 1_555 1_555
O15_2 Zn4 1_555 1_555
O19_2 Zn4 1_555 1_555
C10_2 H7_2 1_555 1_555
C11_2 H8_2 1_555 1_555
C11_2 H9_2 1_555 1_555
C11_2 H10_2 1_555 1_555
C12_2 H11_2 1_555 1_555
C12_2 H12_2 1_555 1_555
C12_2 H13_2 1_555 1_555
C13_2 C14_2 1_555 1_555
C14_2 H4_2 1_555 1_555
C15_2 C14_2 1_555 1_555
C16_2 C15_2 1_555 1_555
H5_2 C16_2 1_555 1_555
C17_2 C16_2 1_555 1_555
C18_2 C13_2 1_555 1_555
H6_2 C18_2 1_555 1_555
C19_2 C13_2 1_555 1_555
C20_2 C15_2 1_555 1_555
O9_2 C19_2 1_555 1_555
O10_2 Zn6 1_555 1_555
O11_2 C20_2 1_555 1_555
O12_2 C20_2 1_555 1_555
Zn7_2 O11_2 1_555 1_555
O16_2 Zn6 1_555 1_555
O21_2 Zn6 1_555 1_555
C17_2 C18_2 1_555 1_555
C19_2 O10_2 1_555 1_555
O9_2 Zn5 1_555 1_555
Zn5 O21_2 1_555 1_555
O18 C21_3 1_555 1_555
O20 C21_3 1_555 1_555
C13_3 C14_3 1_555 1_555
C14_3 H4_3 1_555 1_555
C15_3 C14_3 1_555 1_555
C16_3 C15_3 1_555 1_555
H5_3 C16_3 1_555 1_555
C17_3 C16_3 1_555 1_555
C18_3 C13_3 1_555 1_555
H6_3 C18_3 1_555 1_555
C19_3 C13_3 1_555 1_555
C20_3 C15_3 1_555 1_555
O9_3 C19_3 1_555 1_555
O10_3 Zn6_2 1_555 1_555
O11_3 C20_3 1_555 1_555
O12_3 C20_3 1_555 1_555
Zn7_3 O11_3 1_555 1_555
O16_3 Zn6_2 1_555 1_555
O21_3 Zn6_2 1_555 1_555
C17_3 C18_3 1_555 1_555
C19_3 O10_3 1_555 1_555
O9_3 Zn5_2 1_555 1_555
Zn5_2 O21_3 1_555 1_555
O7_3 Zn5 1_555 1_555
N1_3 C10_3 1_555 1_555
C10_3 O7_3 1_555 1_555
C11_3 N1_3 1_555 1_555
C12_3 N1_3 1_555 1_555
Zn9_3 O21_2 1_555 1_555
O15_3 Zn5 1_555 1_555
O19_3 Zn5 1_555 1_555
C10_3 H7_3 1_555 1_555
C11_3 H8_3 1_555 1_555
C11_3 H9_3 1_555 1_555
C11_3 H10_3 1_555 1_555
C12_3 H11_3 1_555 1_555
C12_3 H12_3 1_555 1_555
C12_3 H13_3 1_555 1_555
O7_4 Zn5_2 1_555 1_555
N1_4 C10_4 1_555 1_555
C10_4 O7_4 1_555 1_555
C11_4 N1_4 1_555 1_555
C12_4 N1_4 1_555 1_555
Zn9_4 O21_3 1_555 1_555
O15_4 Zn5_2 1_555 1_555
O19_4 Zn5_2 1_555 1_555
C10_4 H7_4 1_555 1_555
C11_4 H8_4 1_555 1_555
C11_4 H9_4 1_555 1_555
C11_4 H10_4 1_555 1_555
C12_4 H11_4 1_555 1_555
C12_4 H12_4 1_555 1_555
C12_4 H13_4 1_555 1_555
O5_2 C9_2 1_555 1_555
O6_2 C9_2 1_555 1_555
Zn8 O6_2 1_555 1_555
C13_4 C14_4 1_555 1_555
C14_4 H4_4 1_555 1_555
C15_4 C14_4 1_555 1_555
C16_4 C15_4 1_555 1_555
H5_4 C16_4 1_555 1_555
C17_4 C16_4 1_555 1_555
C18_4 C13_4 1_555 1_555
H6_4 C18_4 1_555 1_555
C19_4 C13_4 1_555 1_555
C20_4 C15_4 1_555 1_555
O9_4 C19_4 1_555 1_555
O10_4 Zn8 1_555 1_555
Zn4_2 O5_2 1_555 1_555
O21_4 Zn8 1_555 1_555
C17_4 C18_4 1_555 1_555
C19_4 O10_4 1_555 1_555
O9_4 Zn4_2 1_555 1_555
Zn4_2 O21_4 1_555 1_555
O13_3 C21_4 1_555 1_555
O14_3 C21_4 1_555 1_555
Zn5_3 O13_3 1_555 1_555
Zn7_3 O14_3 1_555 1_555
Zn1_2 O1_2 1_555 1_555
Zn7 O2_2 1_555 1_555
C1_2 C2_2 1_555 1_555
C2_2 H1_2 1_555 1_555
C3_2 C2_2 1_555 1_555
C4_2 C3_2 1_555 1_555
H2_2 C4_2 1_555 1_555
C5_2 C4_2 1_555 1_555
C6_2 C1_2 1_555 1_555
H3_2 C6_2 1_555 1_555
C7_2 C1_2 1_555 1_555
C8_2 C3_2 1_555 1_555
O1_2 C7_2 1_555 1_555
O2_2 C7_2 1_555 1_555
O7_5 Zn1_2 1_555 1_555
O8_2 Zn1_2 1_555 1_555
C10_5 O7_5 1_555 1_555
Zn9_5 O8_2 1_555 1_555
O15_5 Zn1_2 1_555 1_555
O18_2 Zn1_2 1_555 1_555
O19_5 Zn1_2 1_555 1_555
O20_2 Zn7 1_555 1_555
Zn7 O8_2 1_555 1_555
C5_2 C6_2 1_555 1_555
C10_5 H7_5 1_555 1_555
C11_5 N1_5 1_555 1_555
C12_5 N1_5 1_555 1_555
C11_5 H8_5 1_555 1_555
C11_5 H9_5 1_555 1_555
C11_5 H10_5 1_555 1_555
C12_5 H11_5 1_555 1_555
C12_5 H12_5 1_555 1_555
C12_5 H13_5 1_555 1_555
Zn5_3 O1_3 1_555 1_555
Zn7_3 O2_3 1_555 1_555
C1_3 C2_3 1_555 1_555
C2_3 H1_3 1_555 1_555
C3_3 C2_3 1_555 1_555
C4_3 C3_3 1_555 1_555
H2_3 C4_3 1_555 1_555
C5_3 C4_3 1_555 1_555
C6_3 C1_3 1_555 1_555
H3_3 C6_3 1_555 1_555
C7_3 C1_3 1_555 1_555
C8_3 C3_3 1_555 1_555
O1_3 C7_3 1_555 1_555
O2_3 C7_3 1_555 1_555
O7_6 Zn5_3 1_555 1_555
O8_3 Zn5_3 1_555 1_555
C10_6 O7_6 1_555 1_555
Zn9_6 O8_3 1_555 1_555
O15_6 Zn5_3 1_555 1_555
O19_6 Zn5_3 1_555 1_555
Zn7_3 O8_3 1_555 1_555
C5_3 C6_3 1_555 1_555
C10_6 H7_6 1_555 1_555
C11_6 N1_6 1_555 1_555
C12_6 N1_6 1_555 1_555
C11_6 H8_6 1_555 1_555
C11_6 H9_6 1_555 1_555
C11_6 H10_6 1_555 1_555
C12_6 H11_6 1_555 1_555
C12_6 H12_6 1_555 1_555
C12_6 H13_6 1_555 1_555
O18_2 C21_5 1_555 1_555
O20_2 C21_5 1_555 1_555
O5_3 C9_3 1_555 1_555
O6_3 C9_3 1_555 1_555
Zn7_2 O6_3 1_555 1_555
C13_5 C14_5 1_555 1_555
C14_5 H4_5 1_555 1_555
C15_5 C14_5 1_555 1_555
C16_5 C15_5 1_555 1_555
H5_5 C16_5 1_555 1_555
C17_5 C16_5 1_555 1_555
C18_5 C13_5 1_555 1_555
H6_5 C18_5 1_555 1_555
C19_5 C13_5 1_555 1_555
C20_5 C15_5 1_555 1_555
O9_5 C19_5 1_555 1_555
O10_5 Zn7_2 1_555 1_555
Zn4_3 O5_3 1_555 1_555
O21_5 Zn7_2 1_555 1_555
C17_5 C18_5 1_555 1_555
C19_5 O10_5 1_555 1_555
O9_5 Zn4_3 1_555 1_555
Zn4_3 O21_5 1_555 1_555
O7_7 Zn4_3 1_555 1_555
C10_7 O7_7 1_555 1_555
Zn9_7 O21_5 1_555 1_555
O15_7 Zn4_3 1_555 1_555
O19_7 Zn4_3 1_555 1_555
C10_7 H7_7 1_555 1_555
C11_7 N1_7 1_555 1_555
C12_7 N1_7 1_555 1_555
C11_7 H8_7 1_555 1_555
C11_7 H9_7 1_555 1_555
C11_7 H10_7 1_555 1_555
C12_7 H11_7 1_555 1_555
C12_7 H12_7 1_555 1_555
C12_7 H13_7 1_555 1_555
O7_8 Zn4_2 1_555 1_555
C10_8 O7_8 1_555 1_555
Zn9_8 O21_4 1_555 1_555
O15_8 Zn4_2 1_555 1_555
O19_8 Zn4_2 1_555 1_555
C10_8 H7_8 1_555 1_555
C11_8 N1_8 1_555 1_555
C12_8 N1_8 1_555 1_555
C11_8 H8_8 1_555 1_555
C11_8 H9_8 1_555 1_555
C11_8 H10_8 1_555 1_555
C12_8 H11_8 1_555 1_555
C12_8 H12_8 1_555 1_555
C12_8 H13_8 1_555 1_555
Zn9_7 O2_4 1_555 1_555
C1_4 C2_4 1_555 1_555
C2_4 H1_4 1_555 1_555
C3_4 C2_4 1_555 1_555
C4_4 C3_4 1_555 1_555
H2_4 C4_4 1_555 1_555
C5_4 C4_4 1_555 1_555
C6_4 C1_4 1_555 1_555
H3_4 C6_4 1_555 1_555
C7_4 C1_4 1_555 1_555
C8_4 C3_4 1_555 1_555
C9_4 C5_4 1_555 1_555
O15_7 C7_4 1_555 1_555
O2_4 C7_4 1_555 1_555
O19_6 C9_4 1_555 1_555
O6_4 C9_4 1_555 1_555
Zn9_6 O6_4 1_555 1_555
C13_6 C14_6 1_555 1_555
C14_6 H4_6 1_555 1_555
C15_6 C14_6 1_555 1_555
C16_6 C15_6 1_555 1_555
H5_6 C16_6 1_555 1_555
C17_6 C16_6 1_555 1_555
C18_6 C13_6 1_555 1_555
H6_6 C18_6 1_555 1_555
C19_6 C13_6 1_555 1_555
C20_6 C15_6 1_555 1_555
C21_6 C17_6 1_555 1_555
O15_6 C19_6 1_555 1_555
O10_6 Zn9_6 1_555 1_555
O19_8 C21_6 1_555 1_555
O14_4 C21_6 1_555 1_555
Zn9_8 O14_4 1_555 1_555
O16_4 Zn9_6 1_555 1_555
O17_2 Zn9_7 1_555 1_555
O20_3 Zn9_7 1_555 1_555
C5_4 C6_4 1_555 1_555
C17_6 C18_6 1_555 1_555
C19_6 O10_6 1_555 1_555
Zn9_4 O11_4 1_555 1_555
Zn9_3 O3_2 1_555 1_555
C13_7 C14_7 1_555 1_555
C14_7 H4_7 1_555 1_555
C15_7 C14_7 1_555 1_555
C16_7 C15_7 1_555 1_555
H5_7 C16_7 1_555 1_555
C17_7 C16_7 1_555 1_555
C18_7 C13_7 1_555 1_555
H6_7 C18_7 1_555 1_555
C19_7 C13_7 1_555 1_555
C20_7 C15_7 1_555 1_555
C21_7 C17_7 1_555 1_555
O15_8 C19_7 1_555 1_555
O10_7 Zn9_8 1_555 1_555
O19_5 C21_7 1_555 1_555
O14_5 C21_7 1_555 1_555
Zn9_5 O14_5 1_555 1_555
O16_5 Zn9_8 1_555 1_555
C17_7 C18_7 1_555 1_555
C19_7 O10_7 1_555 1_555
Zn9 O11_5 1_555 1_555
C13_8 C14_8 1_555 1_555
C14_8 H4_8 1_555 1_555
C15_8 C14_8 1_555 1_555
C16_8 C15_8 1_555 1_555
H5_8 C16_8 1_555 1_555
C17_8 C16_8 1_555 1_555
C18_8 C13_8 1_555 1_555
H6_8 C18_8 1_555 1_555
C19_8 C13_8 1_555 1_555
C20_8 C15_8 1_555 1_555
C21_8 C17_8 1_555 1_555
O15_5 C19_8 1_555 1_555
O10_8 Zn9_5 1_555 1_555
O19_7 C21_8 1_555 1_555
O20_3 C21_8 1_555 1_555
O16_6 Zn9_5 1_555 1_555
C17_8 C18_8 1_555 1_555
C19_8 O10_8 1_555 1_555
Zn9_2 O11_6 1_555 1_555
Zn9_4 O2_5 1_555 1_555
C1_5 C2_5 1_555 1_555
C2_5 H1_5 1_555 1_555
C3_5 C2_5 1_555 1_555
C4_5 C3_5 1_555 1_555
H2_5 C4_5 1_555 1_555
C5_5 C4_5 1_555 1_555
C6_5 C1_5 1_555 1_555
H3_5 C6_5 1_555 1_555
C7_5 C1_5 1_555 1_555
C8_5 C3_5 1_555 1_555
C9_5 C5_5 1_555 1_555
O15_4 C7_5 1_555 1_555
O2_5 C7_5 1_555 1_555
O16_4 C8_5 1_555 1_555
O4_5 C8_5 1_555 1_555
O19_3 C9_5 1_555 1_555
O6_5 C9_5 1_555 1_555
Zn9_3 O6_5 1_555 1_555
C13_9 C14_9 1_555 1_555
C14_9 H4_9 1_555 1_555
C15_9 C14_9 1_555 1_555
C16_9 C15_9 1_555 1_555
H5_9 C16_9 1_555 1_555
C17_9 C16_9 1_555 1_555
C18_9 C13_9 1_555 1_555
H6_9 C18_9 1_555 1_555
C19_9 C13_9 1_555 1_555
C20_9 C15_9 1_555 1_555
C21_9 C17_9 1_555 1_555
O15_3 C19_9 1_555 1_555
O10_9 Zn9_3 1_555 1_555
O17_2 C20_9 1_555 1_555
O12_9 C20_9 1_555 1_555
O19_2 C21_9 1_555 1_555
O14_6 C21_9 1_555 1_555
Zn9_2 O14_6 1_555 1_555
O20_4 Zn9_4 1_555 1_555
C5_5 C6_5 1_555 1_555
C17_9 C18_9 1_555 1_555
C19_9 O10_9 1_555 1_555
Zn9_2 O2_6 1_555 1_555
C1_6 C2_6 1_555 1_555
C2_6 H1_6 1_555 1_555
C3_6 C2_6 1_555 1_555
C4_6 C3_6 1_555 1_555
H2_6 C4_6 1_555 1_555
C5_6 C4_6 1_555 1_555
C6_6 C1_6 1_555 1_555
H3_6 C6_6 1_555 1_555
C7_6 C1_6 1_555 1_555
C8_6 C3_6 1_555 1_555
C9_6 C5_6 1_555 1_555
O15_2 C7_6 1_555 1_555
O2_6 C7_6 1_555 1_555
O16_6 C8_6 1_555 1_555
O4_6 C8_6 1_555 1_555
O19 C9_6 1_555 1_555
O6_6 C9_6 1_555 1_555
Zn9 O6_6 1_555 1_555
C13_10 C14_10 1_555 1_555
C14_10 H4_10 1_555 1_555
C15_10 C14_10 1_555 1_555
C16_10 C15_10 1_555 1_555
H5_10 C16_10 1_555 1_555
C17_10 C16_10 1_555 1_555
C18_10 C13_10 1_555 1_555
H6_10 C18_10 1_555 1_555
C19_10 C13_10 1_555 1_555
C20_10 C15_10 1_555 1_555
C21_10 C17_10 1_555 1_555
O15 C19_10 1_555 1_555
O10_10 Zn9 1_555 1_555
O16_5 C20_10 1_555 1_555
O12_10 C20_10 1_555 1_555
O19_4 C21_10 1_555 1_555
O20_4 C21_10 1_555 1_555
C5_6 C6_6 1_555 1_555
C17_10 C18_10 1_555 1_555
C19_10 O10_10 1_555 1_555

#END
