
###############################################################################
#
# This file contains modified crystal structure data generated from the
# MOF subset of the Cambridge Structural Database (CSD) v543 
# hosted by the Cambridge Crystallographic Data Centre (CCDC).
#
# This work is licensed under the Creative Commons
# Attribution-NonCommercial-ShareAlike 4.0 International License.
# To view a copy of this license, visit
# http://creativecommons.org/licenses/by-nc-sa/4.0/
# or send a letter to
# Creative Commons, PO Box 1866, Mountain View, CA 94042, USA.
#
# CIF created using the CSD Python API on 29 September 2022
# The structure has been converted into the P1 space group
# The structure has a 3D framework
# The original CSD entry XATLUC is in the monoclinic crystal system
# The framework has been calculated to contain at least 10.0% void space
# The void calculation uses a probe of radius 1.32A, grid spacing 0.4
# H atom positions have been added when not included in the experimental data
#
###############################################################################

data_XATLUC
_chemical_formula_moiety         '(C148 H108 N28 O42 Si4 Zn12)n'
_symmetry_cell_setting           triclinic
_symmetry_space_group_name_H-M   'P 1'
_symmetry_Int_Tables_number      1
_space_group_name_Hall           'P 1'
loop_
_symmetry_equiv_pos_site_id
_symmetry_equiv_pos_as_xyz
1 x,y,z
_cell_length_a                   13.6983(9)
_cell_length_b                   15.3878(9)
_cell_length_c                   22.9945(15)
_cell_angle_alpha                90
_cell_angle_beta                 96.396(2)
_cell_angle_gamma                90
_cell_volume                     4816.77
loop_
_atom_site_label
_atom_site_type_symbol
_atom_site_fract_x
_atom_site_fract_y
_atom_site_fract_z
O10 O 0.0528(3) 0.4926(2) 0.07110(16)
H26 H 0.0457138 0.484638 0.0279812
H27 H 0.088495 0.547626 0.0813656
O6 O 0.1585(2) 0.0730(2) 0.72661(15)
C15 C 0.1432(3) 0.0023(3) 0.7519(2)
C16 C 0.0703(4) 0.0016(3) 0.7946(2)
Zn5 Zn 0.27811(4) 0.10349(3) 0.68885(2)
O5 O 0.1849(3) 0.9311(2) 0.74226(14)
C17 C 0.0714(4) 0.9374(3) 0.8371(2)
H9 H 0.1194 0.8944 0.8391
C18 C 0.0030(4) 0.9366(3) 0.8759(2)
H10 H 0.0063 0.8935 0.9044
Zn9 Zn 0.26612(4) 0.89109(3) 0.68053(2)
Zn1 Zn 0.77811(4) 0.39651(3) 0.18885(2)
Zn2 Zn 0.91468(4) 0.49779(3) 0.10001(2)
Zn3 Zn 0.76612(4) 0.60891(3) 0.18053(2)
O1 O 0.8847(3) 0.3789(2) 0.06852(16)
O2 O 0.7753(3) 0.3167(2) 0.12080(15)
O9 O 0.7788(2) 0.50379(18) 0.13504(13)
O11 O 0.8059(3) 0.2822(2) 0.23791(14)
N1 N 0.6255(3) 0.8123(3) 0.09186(17)
N2 N 0.6521(3) 0.6750(3) 0.07194(16)
N3 N 0.6850(3) 0.6919(3) 0.12786(16)
N4 N 0.6694(3) 0.7740(3) 0.13989(17)
C1 C 0.8292(4) 0.3182(3) 0.0801(2)
C2 C 0.8258(3) 0.2396(3) 0.0409(2)
C3 C 0.7632(4) 0.1707(3) 0.0488(2)
H1 H 0.7210 0.1735 0.0778
C4 C 0.7639(4) 0.0988(3) 0.0140(2)
H2 H 0.7219 0.0530 0.0201
C37 C 0.6166(3) 0.7508(3) 0.05105(19)
O12 O 0.8643(3) 0.5750(2) 0.02374(15)
O13 O 0.9039(3) 0.6451(2) 0.10540(15)
O14 O 0.6849(3) 0.5689(2) 0.24226(14)
O15 O 0.6585(2) 0.4270(2) 0.22661(15)
O16 O 0.9895(2) 0.4903(2) 0.18023(14)
O17 O 0.8883(3) 0.4473(2) 0.24430(14)
N8 N 0.8738(3) 0.6600(2) 0.23506(15)
H23 H 0.867478 0.255014 0.22768
H24 H 0.812957 0.296495 0.280282
H25 H 0.603531 0.875177 0.0874333
O7 O 0.4895(2) 0.0097(2) 0.68023(14)
O8 O 0.3883(3) 0.0527(2) 0.74430(14)
N5 N 0.3738(3) 0.8400(2) 0.73506(15)
N6 N 0.5089(3) 0.7678(3) 0.77239(18)
N7 N 0.4592(3) 0.8000(3) 0.81584(17)
C5 C 0.8251(3) 0.0913(3) 0.96946(19)
C6 C 0.8861(4) 0.1619(3) 0.9626(2)
H3 H 0.9281 0.1601 0.9335
C7 C 0.8863(4) 0.2339(3) 0.9973(2)
H4 H 0.9280 0.2799 0.9912
C20 C 0.9286(4) 0.0627(3) 0.8305(2)
H11 H 0.8800 0.1052 0.8273
C21 C 0.9985(4) 0.0650(3) 0.7925(2)
H12 H 0.9977 0.1095 0.7651
C22 C 0.4697(4) 0.0268(3) 0.7304(2)
C23 C 0.5522(4) 0.0151(3) 0.7792(2)
C24 C 0.5512(4) 0.0585(3) 0.8319(2)
H13 H 0.4975 0.0928 0.8385
C25 C 0.6301(4) 0.0508(3) 0.8746(2)
H14 H 0.6287 0.0807 0.9096
C29 C 0.4548(4) 0.7937(3) 0.7254(2)
H17 H 0.4705 0.7813 0.6880
C30 C 0.3799(4) 0.8418(3) 0.7929(2)
H18 H 0.3347 0.8688 0.8143
C31 C 0.4963(4) 0.7879(3) 0.8761(2)
C32 C 0.4961(4) 0.8540(3) 0.9143(2)
H19 H 0.4702 0.9077 0.9019
C33 C 0.5344(4) 0.8422(3) 0.9719(2)
H20 H 0.5338 0.8878 0.9984
C34 C 0.5734(4) 0.7636(3) 0.9904(2)
C35 C 0.5736(5) 0.6974(4) 0.9503(2)
H21 H 0.6002 0.6438 0.9622
C36 C 0.5351(5) 0.7090(4) 0.8930(2)
H22 H 0.5354 0.6637 0.8662
Zn7 Zn 0.41468(4) 0.00221(3) 0.60001(2)
C8 C 0.8758(4) 0.6457(3) 0.0520(2)
C9 C 0.8567(3) 0.7301(3) 0.0214(2)
C10 C 0.8666(4) 0.8080(3) 0.0518(2)
H5 H 0.8817 0.8073 0.0922
C11 C 0.8543(4) 0.8860(3) 0.0232(2)
H6 H 0.8616 0.9372 0.0447
Si1 Si 0.32419(9) 0.50522(8) 0.42039(5)
O1_2 O 0.3847(3) 0.1211(2) 0.56852(16)
O2_2 O 0.2753(3) 0.1833(2) 0.62080(15)
O3 O 0.3643(3) 0.9250(2) 0.52374(15)
O4 O 0.4039(3) 0.8549(2) 0.60540(15)
O10_2 O 0.5528(3) 0.0074(2) 0.57110(16)
O11_2 O 0.3059(3) 0.2178(2) 0.73791(14)
C1_2 C 0.3292(4) 0.1818(3) 0.5801(2)
C2_2 C 0.3258(3) 0.2604(3) 0.5409(2)
C3_2 C 0.2632(4) 0.3293(3) 0.5488(2)
H1_2 H 0.2210 0.3265 0.5778
C4_2 C 0.2639(4) 0.4012(3) 0.5140(2)
H2_2 H 0.2219 0.4470 0.5201
C5_2 C 0.3251(3) 0.4087(3) 0.46946(19)
C6_2 C 0.3861(4) 0.3381(3) 0.4626(2)
H3_2 H 0.4281 0.3399 0.4335
C7_2 C 0.3863(4) 0.2661(3) 0.4973(2)
H4_2 H 0.4280 0.2201 0.4912
C8_2 C 0.3758(4) 0.8543(3) 0.5520(2)
C9_2 C 0.3567(3) 0.7699(3) 0.5214(2)
C10_2 C 0.3666(4) 0.6920(3) 0.5518(2)
H5_2 H 0.3817 0.6927 0.5922
C11_2 C 0.3543(4) 0.6140(3) 0.5232(2)
H6_2 H 0.3616 0.5628 0.5447
C12 C 0.3313(3) 0.6094(3) 0.46295(19)
C13 C 0.3185(4) 0.6883(3) 0.4330(2)
H7 H 0.3008 0.6879 0.3928
C14 C 0.3312(4) 0.7661(3) 0.4615(2)
H8 H 0.3227 0.8175 0.4403
C15_2 C 0.6432(3) 0.4977(3) 0.2519(2)
C16_2 C 0.5703(4) 0.4984(3) 0.2946(2)
C17_2 C 0.5714(4) 0.5626(3) 0.3371(2)
H9_2 H 0.6194 0.6056 0.3391
C18_2 C 0.5030(4) 0.5634(3) 0.3759(2)
H10_2 H 0.5063 0.6065 0.4044
C19 C 0.4271(3) 0.5008(3) 0.37412(19)
C20_2 C 0.4286(4) 0.4373(3) 0.3305(2)
H11_2 H 0.3800 0.3948 0.3273
C21_2 C 0.4985(4) 0.4350(3) 0.2925(2)
H12_2 H 0.4977 0.3905 0.2651
C23_2 C 0.0522(4) 0.4849(3) 0.2792(2)
C24_2 C 0.0512(4) 0.4415(3) 0.3319(2)
C25_2 C 0.1301(4) 0.4492(3) 0.3746(2)
H14_2 H 0.1287 0.4193 0.4096
C26 C 0.2116(3) 0.5004(3) 0.36686(19)
C27 C 0.2093(4) 0.5442(3) 0.3132(2)
H15 H 0.2617 0.5798 0.3065
C28 C 0.1317(4) 0.5359(3) 0.2700(2)
H16 H 0.1329 0.5649 0.2346
H23_2 H 0.367478 0.244986 0.72768
H24_2 H 0.312957 0.203505 0.780282
H26_2 H 0.545714 0.0153615 0.527981
O9_2 O 0.2788(2) 0.99621(18) 0.63504(13)
N1_2 N 0.1255(3) 0.6877(3) 0.59186(17)
N2_2 N 0.1521(3) 0.8250(3) 0.57194(16)
N3_2 N 0.1850(3) 0.8081(3) 0.62786(16)
N4_2 N 0.1694(3) 0.7260(3) 0.63989(17)
N6_2 N 0.0089(3) 0.7322(3) 0.27239(18)
C33_2 C 0.0344(4) 0.6578(3) 0.4719(2)
H20_2 H 0.0338 0.6122 0.4984
C34_2 C 0.0734(4) 0.7364(3) 0.4904(2)
C35_2 C 0.0736(5) 0.8026(4) 0.4503(2)
H21_2 H 0.1002 0.8562 0.4622
C36_2 C 0.0351(5) 0.7910(4) 0.3930(2)
H22_2 H 0.0354 0.8363 0.3662
C37_2 C 0.1166(3) 0.7492(3) 0.55105(19)
H25_2 H 0.103531 0.624823 0.587433
H27_2 H 0.588495 0.952374 0.581366
C22_2 C 0.9697(4) 0.4732(3) 0.2304(2)
H13_2 H 0.9975 0.4072 0.3385
N7_2 N 0.9592(3) 0.7000(3) 0.31584(17)
C29_2 C 0.9548(4) 0.7063(3) 0.2254(2)
H17_2 H 0.9705 0.7187 0.1880
C30_2 C 0.8799(4) 0.6582(3) 0.2929(2)
H18_2 H 0.8347 0.6312 0.3143
C31_2 C 0.9963(4) 0.7121(3) 0.3761(2)
C32_2 C 0.9961(4) 0.6460(3) 0.4143(2)
H19_2 H 0.9702 0.5923 0.4019
Si1_2 Si 0.82419(9) 0.99478(8) 0.92039(5)
C12_2 C 0.8313(3) 0.8906(3) 0.96295(19)
C13_2 C 0.8185(4) 0.8117(3) 0.9330(2)
H7_2 H 0.8008 0.8121 0.8928
C14_2 C 0.8312(4) 0.7339(3) 0.9615(2)
H8_2 H 0.8227 0.6825 0.9403
C19_2 C 0.9271(3) 0.9992(3) 0.87412(19)
C26_2 C 0.7116(3) 0.9996(3) 0.86686(19)
C27_2 C 0.7093(4) 0.9558(3) 0.8132(2)
H15_2 H 0.7617 0.9202 0.8065
C28_2 C 0.6317(4) 0.9641(3) 0.7700(2)
H16_2 H 0.6329 0.9351 0.7346
N5_2 N 0.1262(3) 0.3400(2) 0.76494(15)
N7_3 N 0.0408(3) 0.3000(3) 0.68416(17)
C29_3 C 0.0452(4) 0.2937(3) 0.7746(2)
H17_3 H 0.0295 0.2813 0.8120
C30_3 C 0.1201(4) 0.3418(3) 0.7071(2)
H18_3 H 0.1653 0.3688 0.6857
C31_3 C 0.0037(4) 0.2879(3) 0.6239(2)
C32_3 C 0.0039(4) 0.3540(3) 0.5857(2)
H19_3 H 0.0298 0.4077 0.5981
Zn8 Zn 0.23388(4) 0.39109(3) 0.81947(2)
O7_2 O 0.0105(2) 0.5097(2) 0.81977(14)
O8_2 O 0.1117(3) 0.5527(2) 0.75570(14)
C22_3 C 0.0303(4) 0.5268(3) 0.7696(2)
H13_3 H 0.0025 0.5928 0.6615
Zn4 Zn 0.22189(4) 0.60349(3) 0.81115(2)
Zn7_2 Zn 0.08532(4) 0.50221(3) 0.89999(2)
Zn3_2 Zn 0.73388(4) 0.10891(3) 0.31947(2)
O9_3 O 0.7212(2) 0.00379(18) 0.36496(13)
N1_3 N 0.8745(3) 0.3123(3) 0.40814(17)
N2_3 N 0.8479(3) 0.1750(3) 0.42806(16)
N3_3 N 0.8150(3) 0.1919(3) 0.37214(16)
N4_3 N 0.8306(3) 0.2740(3) 0.36011(17)
N6_3 N 0.9911(3) 0.2678(3) 0.72761(18)
C33_3 C 0.9656(4) 0.3422(3) 0.5281(2)
H20_3 H 0.9662 0.3878 0.5016
C34_3 C 0.9266(4) 0.2636(3) 0.5096(2)
C35_3 C 0.9264(5) 0.1974(4) 0.5497(2)
H21_3 H 0.8998 0.1438 0.5378
C36_3 C 0.9649(5) 0.2090(4) 0.6070(2)
H22_3 H 0.9646 0.1637 0.6338
C37_3 C 0.8834(3) 0.2508(3) 0.44895(19)
O12_2 O 0.6357(3) 0.0750(2) 0.47626(15)
O13_2 O 0.5961(3) 0.1451(2) 0.39460(15)
O14_2 O 0.8151(3) 0.0689(2) 0.25774(14)
N8_2 N 0.6262(3) 0.1600(2) 0.26494(15)
H25_3 H 0.896469 0.375177 0.412567
H27_3 H 0.411505 0.0476264 0.418634
Zn1_2 Zn 0.72189(4) 0.89651(3) 0.31115(2)
Zn2_2 Zn 0.58532(4) 0.99779(3) 0.39999(2)
Si1_3 Si 0.67581(9) 0.49478(8) 0.57961(5)
O1_3 O 0.6153(3) 0.8789(2) 0.43148(16)
O2_3 O 0.7247(3) 0.8167(2) 0.37920(15)
O5_2 O 0.3151(3) 0.4311(2) 0.75774(14)
O6_2 O 0.3415(2) 0.5730(2) 0.77339(15)
O10_3 O 0.4472(3) 0.9926(2) 0.42890(16)
O11_3 O 0.6941(3) 0.7822(2) 0.26209(14)
C1_3 C 0.6708(4) 0.8182(3) 0.4199(2)
C2_3 C 0.6742(3) 0.7396(3) 0.4591(2)
C3_3 C 0.7368(4) 0.6707(3) 0.4512(2)
H1_3 H 0.7790 0.6735 0.4222
C4_3 C 0.7361(4) 0.5988(3) 0.4860(2)
H2_3 H 0.7781 0.5530 0.4799
C5_3 C 0.6749(3) 0.5913(3) 0.53054(19)
C6_3 C 0.6139(4) 0.6619(3) 0.5374(2)
H3_3 H 0.5719 0.6601 0.5665
C7_3 C 0.6137(4) 0.7339(3) 0.5027(2)
H4_3 H 0.5720 0.7799 0.5088
C8_3 C 0.6242(4) 0.1457(3) 0.4480(2)
C9_3 C 0.6433(3) 0.2301(3) 0.4786(2)
C10_3 C 0.6334(4) 0.3080(3) 0.4482(2)
H5_3 H 0.6183 0.3073 0.4078
C11_3 C 0.6457(4) 0.3860(3) 0.4768(2)
H6_3 H 0.6384 0.4372 0.4553
C12_3 C 0.6687(3) 0.3906(3) 0.53705(19)
C13_3 C 0.6815(4) 0.3117(3) 0.5670(2)
H7_3 H 0.6992 0.3121 0.6072
C14_3 C 0.6688(4) 0.2339(3) 0.5385(2)
H8_3 H 0.6773 0.1825 0.5597
C15_3 C 0.3568(3) 0.5023(3) 0.7481(2)
C16_3 C 0.4297(4) 0.5016(3) 0.7054(2)
C17_3 C 0.4286(4) 0.4374(3) 0.6629(2)
H9_3 H 0.3806 0.3944 0.6609
C18_3 C 0.4970(4) 0.4366(3) 0.6241(2)
H10_3 H 0.4937 0.3935 0.5956
C19_3 C 0.5729(3) 0.4992(3) 0.62588(19)
C20_3 C 0.5714(4) 0.5627(3) 0.6695(2)
H11_3 H 0.6200 0.6052 0.6727
C21_3 C 0.5015(4) 0.5650(3) 0.7075(2)
H12_3 H 0.5023 0.6095 0.7349
C23_3 C 0.9478(4) 0.5151(3) 0.7208(2)
C24_3 C 0.9488(4) 0.5585(3) 0.6681(2)
C25_3 C 0.8699(4) 0.5508(3) 0.6254(2)
H14_3 H 0.8713 0.5807 0.5904
C26_3 C 0.7884(3) 0.4996(3) 0.63314(19)
C27_3 C 0.7907(4) 0.4558(3) 0.6868(2)
H15_3 H 0.7383 0.4202 0.6935
C28_3 C 0.8683(4) 0.4641(3) 0.7300(2)
H16_3 H 0.8671 0.4351 0.7654
O15_2 O 0.8415(2) 0.9270(2) 0.27339(15)
O16_2 O 0.5105(2) 0.9903(2) 0.31977(14)
O17_2 O 0.6117(3) 0.9473(2) 0.25570(14)
H23_3 H 0.632522 0.755014 0.27232
H24_3 H 0.687043 0.796495 0.219718
H26_3 H 0.454286 0.984638 0.472019
O3_2 O 0.1357(3) 0.4250(2) 0.97626(15)
O4_2 O 0.0961(3) 0.3549(2) 0.89460(15)
C8_4 C 0.1242(4) 0.3543(3) 0.9480(2)
C9_4 C 0.1433(3) 0.2699(3) 0.9786(2)
C10_4 C 0.1334(4) 0.1920(3) 0.9482(2)
H5_4 H 0.1183 0.1927 0.9078
C11_4 C 0.1457(4) 0.1140(3) 0.9768(2)
H6_4 H 0.1384 0.0628 0.9553
N6_4 N 0.4911(3) 0.2322(3) 0.22761(18)
N7_4 N 0.5408(3) 0.2000(3) 0.18416(17)
C5_4 C 0.1749(3) 0.9087(3) 0.03054(19)
C6_4 C 0.1139(4) 0.8381(3) 0.0374(2)
H3_4 H 0.0719 0.8399 0.0665
C7_4 C 0.1137(4) 0.7661(3) 0.0027(2)
H4_4 H 0.0720 0.7201 0.0088
C20_4 C 0.0714(4) 0.9373(3) 0.1695(2)
H11_4 H 0.1200 0.8948 0.1727
C21_4 C 0.0015(4) 0.9350(3) 0.2075(2)
H12_4 H 0.0023 0.8905 0.2349
C22_4 C 0.5303(4) 0.9732(3) 0.2696(2)
C23_4 C 0.4478(4) 0.9849(3) 0.2208(2)
C24_4 C 0.4488(4) 0.9415(3) 0.1681(2)
H13_4 H 0.5025 0.9072 0.1615
C25_4 C 0.3699(4) 0.9492(3) 0.1254(2)
H14_4 H 0.3713 0.9193 0.0904
C29_4 C 0.5452(4) 0.2063(3) 0.2746(2)
H17_4 H 0.5295 0.2187 0.3120
C30_4 C 0.6201(4) 0.1582(3) 0.2071(2)
H18_4 H 0.6653 0.1312 0.1857
C31_4 C 0.5037(4) 0.2121(3) 0.1239(2)
C32_4 C 0.5039(4) 0.1460(3) 0.0857(2)
H19_4 H 0.5298 0.0923 0.0981
C33_4 C 0.4656(4) 0.1578(3) 0.0281(2)
H20_4 H 0.4662 0.1122 0.0016
C34_4 C 0.4266(4) 0.2364(3) 0.0096(2)
C35_4 C 0.4264(5) 0.3026(4) 0.0497(2)
H21_4 H 0.3998 0.3562 0.0378
C36_4 C 0.4649(5) 0.2910(4) 0.1070(2)
H22_4 H 0.4646 0.3363 0.1338
O1_4 O 0.1153(3) 0.6211(2) 0.93148(16)
O2_4 O 0.2247(3) 0.6833(2) 0.87920(15)
O9_4 O 0.2212(2) 0.49621(18) 0.86496(13)
O11_4 O 0.1941(3) 0.7178(2) 0.76209(14)
N1_4 N 0.3745(3) 0.1877(3) 0.90814(17)
N2_4 N 0.3479(3) 0.3250(3) 0.92806(16)
N3_4 N 0.3150(3) 0.3081(3) 0.87214(16)
N4_4 N 0.3306(3) 0.2260(3) 0.86011(17)
C1_4 C 0.1708(4) 0.6818(3) 0.9199(2)
C2_4 C 0.1742(3) 0.7604(3) 0.9591(2)
C3_4 C 0.2368(4) 0.8293(3) 0.9512(2)
H1_4 H 0.2790 0.8265 0.9222
C4_4 C 0.2361(4) 0.9012(3) 0.9860(2)
H2_4 H 0.2781 0.9470 0.9799
C37_4 C 0.3834(3) 0.2492(3) 0.94895(19)
H23_4 H 0.132522 0.744986 0.77232
H24_4 H 0.187043 0.703505 0.719718
H25_4 H 0.396469 0.124823 0.912567
C17_4 C 0.9286(4) 0.0626(3) 0.1629(2)
H9_4 H 0.8806 0.1056 0.1609
C18_4 C 0.9970(4) 0.0634(3) 0.1241(2)
H10_4 H 0.9937 0.1065 0.0956
C15_4 C 0.8568(3) 0.9977(3) 0.2481(2)
C16_4 C 0.9297(4) 0.9984(3) 0.2054(2)
Si1_4 Si 0.17581(9) 0.00522(8) 0.07961(5)
C12_4 C 0.1687(3) 0.1094(3) 0.03705(19)
C13_4 C 0.1815(4) 0.1883(3) 0.0670(2)
H7_4 H 0.1992 0.1879 0.1072
C14_4 C 0.1688(4) 0.2661(3) 0.0385(2)
H8_4 H 0.1773 0.3175 0.0597
C19_4 C 0.0729(3) 0.0008(3) 0.12588(19)
C26_4 C 0.2884(3) 0.0004(3) 0.13314(19)
C27_4 C 0.2907(4) 0.0442(3) 0.1868(2)
H15_4 H 0.2383 0.0798 0.1935
C28_4 C 0.3683(4) 0.0359(3) 0.2300(2)
H16_4 H 0.3671 0.0649 0.2654
O10_4 O 0.9472(3) 0.5074(2) 0.92890(16)
H26_4 H 0.954286 0.515362 0.972019
H27_4 H 0.911505 0.452374 0.918634
loop_
_geom_bond_atom_site_label_1
_geom_bond_atom_site_label_2
_geom_bond_site_symmetry_1
_geom_bond_site_symmetry_2
O10 H26 1_555 1_555
O10 H27 1_555 1_555
O6 C15 1_555 1_555
C15 C16 1_555 1_555
Zn5 O6 1_555 1_555
C17 H9 1_555 1_555
C18 C17 1_555 1_555
H10 C18 1_555 1_555
Zn9 O5 1_555 1_555
Zn1 O2 1_555 1_555
Zn2 O1 1_555 1_555
Zn3 O9 1_555 1_555
O1 C1 1_555 1_555
O2 C1 1_555 1_555
O9 Zn1 1_555 1_555
O11 Zn1 1_555 1_555
N1 N4 1_555 1_555
N2 N3 1_555 1_555
N3 Zn3 1_555 1_555
N4 N3 1_555 1_555
C1 C2 1_555 1_555
C2 C3 1_555 1_555
C3 H1 1_555 1_555
C4 C3 1_555 1_555
H2 C4 1_555 1_555
C37 N1 1_555 1_555
O12 Zn2 1_555 1_555
O13 Zn2 1_555 1_555
O14 Zn3 1_555 1_555
O15 Zn1 1_555 1_555
O16 Zn2 1_555 1_555
O17 Zn1 1_555 1_555
N8 Zn3 1_555 1_555
Zn2 O9 1_555 1_555
N2 C37 1_555 1_555
O11 H23 1_555 1_555
O11 H24 1_555 1_555
N1 H25 1_555 1_555
O7 C22 1_555 1_555
O8 C22 1_555 1_555
N5 C29 1_555 1_555
N6 N7 1_555 1_555
N7 C30 1_555 1_555
C6 C5 1_555 1_555
H3 C6 1_555 1_555
H4 C7 1_555 1_555
H11 C20 1_555 1_555
H12 C21 1_555 1_555
C22 C23 1_555 1_555
C23 C24 1_555 1_555
C24 H13 1_555 1_555
C25 C24 1_555 1_555
H14 C25 1_555 1_555
C29 N6 1_555 1_555
H17 C29 1_555 1_555
C30 N5 1_555 1_555
H18 C30 1_555 1_555
C31 N7 1_555 1_555
C32 C31 1_555 1_555
H19 C32 1_555 1_555
C33 C32 1_555 1_555
H20 C33 1_555 1_555
C34 C33 1_555 1_555
C35 C34 1_555 1_555
H21 C35 1_555 1_555
C36 C31 1_555 1_555
H22 C36 1_555 1_555
Zn5 O8 1_555 1_555
Zn7 O7 1_555 1_555
Zn9 N5 1_555 1_555
C6 C7 1_555 1_555
C20 C21 1_555 1_555
C35 C36 1_555 1_555
O12 C8 1_555 1_555
O13 C8 1_555 1_555
C8 C9 1_555 1_555
C9 C10 1_555 1_555
C10 H5 1_555 1_555
C11 C10 1_555 1_555
H6 C11 1_555 1_555
Zn5 O2_2 1_555 1_555
Zn7 O1_2 1_555 1_555
Si1 C5_2 1_555 1_555
O1_2 C1_2 1_555 1_555
O2_2 C1_2 1_555 1_555
O3 C8_2 1_555 1_555
O4 C8_2 1_555 1_555
O14 C15_2 1_555 1_555
O15 C15_2 1_555 1_555
O10_2 Zn7 1_555 1_555
O11_2 Zn5 1_555 1_555
C1_2 C2_2 1_555 1_555
C2_2 C3_2 1_555 1_555
C3_2 H1_2 1_555 1_555
C4_2 C3_2 1_555 1_555
H2_2 C4_2 1_555 1_555
C5_2 C4_2 1_555 1_555
C6_2 C5_2 1_555 1_555
H3_2 C6_2 1_555 1_555
C7_2 C2_2 1_555 1_555
H4_2 C7_2 1_555 1_555
C8_2 C9_2 1_555 1_555
C9_2 C10_2 1_555 1_555
C10_2 H5_2 1_555 1_555
C11_2 C10_2 1_555 1_555
H6_2 C11_2 1_555 1_555
C12 Si1 1_555 1_555
C13 C12 1_555 1_555
H7 C13 1_555 1_555
C14 C9_2 1_555 1_555
H8 C14 1_555 1_555
C15_2 C16_2 1_555 1_555
C16_2 C17_2 1_555 1_555
C17_2 H9_2 1_555 1_555
C18_2 C17_2 1_555 1_555
H10_2 C18_2 1_555 1_555
C19 Si1 1_555 1_555
C20_2 C19 1_555 1_555
H11_2 C20_2 1_555 1_555
C21_2 C16_2 1_555 1_555
H12_2 C21_2 1_555 1_555
C23_2 C24_2 1_555 1_555
C25_2 C24_2 1_555 1_555
H14_2 C25_2 1_555 1_555
C26 Si1 1_555 1_555
C27 C26 1_555 1_555
H15 C27 1_555 1_555
C28 C23_2 1_555 1_555
H16 C28 1_555 1_555
C6_2 C7_2 1_555 1_555
C11_2 C12 1_555 1_555
C13 C14 1_555 1_555
C18_2 C19 1_555 1_555
C20_2 C21_2 1_555 1_555
C25_2 C26 1_555 1_555
C27 C28 1_555 1_555
O11_2 H23_2 1_555 1_555
O11_2 H24_2 1_555 1_555
O10_2 H26_2 1_555 1_555
Zn9 O9_2 1_555 1_555
N1_2 N4_2 1_555 1_555
N2_2 N3_2 1_555 1_555
N3_2 Zn9 1_555 1_555
N4_2 N3_2 1_555 1_555
H20_2 C33_2 1_555 1_555
C34_2 C33_2 1_555 1_555
C35_2 C34_2 1_555 1_555
H21_2 C35_2 1_555 1_555
H22_2 C36_2 1_555 1_555
C37_2 N1_2 1_555 1_555
N2_2 C37_2 1_555 1_555
C34_2 C37_2 1_555 1_555
C35_2 C36_2 1_555 1_555
N1_2 H25_2 1_555 1_555
O16 C22_2 1_555 1_555
O17 C22_2 1_555 1_555
N8 C29_2 1_555 1_555
N7_2 C30_2 1_555 1_555
H17_2 C29_2 1_555 1_555
C30_2 N8 1_555 1_555
H18_2 C30_2 1_555 1_555
C31_2 N7_2 1_555 1_555
C32_2 C31_2 1_555 1_555
H19_2 C32_2 1_555 1_555
C12_2 Si1_2 1_555 1_555
C13_2 C12_2 1_555 1_555
H7_2 C13_2 1_555 1_555
H8_2 C14_2 1_555 1_555
C19_2 Si1_2 1_555 1_555
C26_2 Si1_2 1_555 1_555
C27_2 C26_2 1_555 1_555
H15_2 C27_2 1_555 1_555
H16_2 C28_2 1_555 1_555
C13_2 C14_2 1_555 1_555
C27_2 C28_2 1_555 1_555
N5_2 C29_3 1_555 1_555
N7_3 C30_3 1_555 1_555
H17_3 C29_3 1_555 1_555
C30_3 N5_2 1_555 1_555
H18_3 C30_3 1_555 1_555
C31_3 N7_3 1_555 1_555
C32_3 C31_3 1_555 1_555
H19_3 C32_3 1_555 1_555
Zn8 N5_2 1_555 1_555
O7_2 C22_3 1_555 1_555
O8_2 C22_3 1_555 1_555
Zn4 O8_2 1_555 1_555
Zn7_2 O7_2 1_555 1_555
Zn3_2 O9_3 1_555 1_555
N1_3 N4_3 1_555 1_555
N2_3 N3_3 1_555 1_555
N3_3 Zn3_2 1_555 1_555
N4_3 N3_3 1_555 1_555
H20_3 C33_3 1_555 1_555
C34_3 C33_3 1_555 1_555
C35_3 C34_3 1_555 1_555
H21_3 C35_3 1_555 1_555
H22_3 C36_3 1_555 1_555
C37_3 N1_3 1_555 1_555
O14_2 Zn3_2 1_555 1_555
N8_2 Zn3_2 1_555 1_555
N2_3 C37_3 1_555 1_555
C34_3 C37_3 1_555 1_555
C35_3 C36_3 1_555 1_555
N1_3 H25_3 1_555 1_555
Zn1_2 O2_3 1_555 1_555
Zn2_2 O1_3 1_555 1_555
Si1_3 C5_3 1_555 1_555
O1_3 C1_3 1_555 1_555
O2_3 C1_3 1_555 1_555
O12_2 C8_3 1_555 1_555
O13_2 C8_3 1_555 1_555
O5_2 C15_3 1_555 1_555
O6_2 C15_3 1_555 1_555
O10_3 Zn2_2 1_555 1_555
O11_3 Zn1_2 1_555 1_555
C1_3 C2_3 1_555 1_555
C2_3 C3_3 1_555 1_555
C3_3 H1_3 1_555 1_555
C4_3 C3_3 1_555 1_555
H2_3 C4_3 1_555 1_555
C5_3 C4_3 1_555 1_555
C6_3 C5_3 1_555 1_555
H3_3 C6_3 1_555 1_555
C7_3 C2_3 1_555 1_555
H4_3 C7_3 1_555 1_555
C8_3 C9_3 1_555 1_555
C9_3 C10_3 1_555 1_555
C10_3 H5_3 1_555 1_555
C11_3 C10_3 1_555 1_555
H6_3 C11_3 1_555 1_555
C12_3 Si1_3 1_555 1_555
C13_3 C12_3 1_555 1_555
H7_3 C13_3 1_555 1_555
C14_3 C9_3 1_555 1_555
H8_3 C14_3 1_555 1_555
C15_3 C16_3 1_555 1_555
C16_3 C17_3 1_555 1_555
C17_3 H9_3 1_555 1_555
C18_3 C17_3 1_555 1_555
H10_3 C18_3 1_555 1_555
C19_3 Si1_3 1_555 1_555
C20_3 C19_3 1_555 1_555
H11_3 C20_3 1_555 1_555
C21_3 C16_3 1_555 1_555
H12_3 C21_3 1_555 1_555
C23_3 C24_3 1_555 1_555
C25_3 C24_3 1_555 1_555
H14_3 C25_3 1_555 1_555
C26_3 Si1_3 1_555 1_555
C27_3 C26_3 1_555 1_555
H15_3 C27_3 1_555 1_555
C28_3 C23_3 1_555 1_555
H16_3 C28_3 1_555 1_555
Zn4 O6_2 1_555 1_555
Zn8 O5_2 1_555 1_555
O15_2 Zn1_2 1_555 1_555
O16_2 Zn2_2 1_555 1_555
O17_2 Zn1_2 1_555 1_555
C6_3 C7_3 1_555 1_555
C11_3 C12_3 1_555 1_555
C13_3 C14_3 1_555 1_555
C18_3 C19_3 1_555 1_555
C20_3 C21_3 1_555 1_555
C25_3 C26_3 1_555 1_555
C27_3 C28_3 1_555 1_555
O11_3 H23_3 1_555 1_555
O11_3 H24_3 1_555 1_555
O10_3 H26_3 1_555 1_555
O3_2 C8_4 1_555 1_555
O4_2 C8_4 1_555 1_555
C8_4 C9_4 1_555 1_555
C9_4 C10_4 1_555 1_555
C10_4 H5_4 1_555 1_555
C11_4 C10_4 1_555 1_555
H6_4 C11_4 1_555 1_555
Zn7_2 O3_2 1_555 1_555
O4_2 Zn7_2 1_555 1_555
O16_2 C22_4 1_555 1_555
O17_2 C22_4 1_555 1_555
N8_2 C29_4 1_555 1_555
N6_4 N7_4 1_555 1_555
N7_4 C30_4 1_555 1_555
C6_4 C5_4 1_555 1_555
H3_4 C6_4 1_555 1_555
H4_4 C7_4 1_555 1_555
H11_4 C20_4 1_555 1_555
H12_4 C21_4 1_555 1_555
C22_4 C23_4 1_555 1_555
C23_4 C24_4 1_555 1_555
C24_4 H13_4 1_555 1_555
C25_4 C24_4 1_555 1_555
H14_4 C25_4 1_555 1_555
C29_4 N6_4 1_555 1_555
H17_4 C29_4 1_555 1_555
C30_4 N8_2 1_555 1_555
H18_4 C30_4 1_555 1_555
C31_4 N7_4 1_555 1_555
C32_4 C31_4 1_555 1_555
H19_4 C32_4 1_555 1_555
C33_4 C32_4 1_555 1_555
H20_4 C33_4 1_555 1_555
C34_4 C33_4 1_555 1_555
C35_4 C34_4 1_555 1_555
H21_4 C35_4 1_555 1_555
C36_4 C31_4 1_555 1_555
H22_4 C36_4 1_555 1_555
C6_4 C7_4 1_555 1_555
C20_4 C21_4 1_555 1_555
C35_4 C36_4 1_555 1_555
Zn4 O2_4 1_555 1_555
Zn7_2 O1_4 1_555 1_555
Zn8 O9_4 1_555 1_555
O1_4 C1_4 1_555 1_555
O2_4 C1_4 1_555 1_555
O9_4 Zn4 1_555 1_555
O11_4 Zn4 1_555 1_555
N1_4 N4_4 1_555 1_555
N2_4 N3_4 1_555 1_555
N3_4 Zn8 1_555 1_555
N4_4 N3_4 1_555 1_555
C1_4 C2_4 1_555 1_555
C2_4 C3_4 1_555 1_555
C3_4 H1_4 1_555 1_555
C4_4 C3_4 1_555 1_555
H2_4 C4_4 1_555 1_555
C37_4 N1_4 1_555 1_555
Zn7_2 O9_4 1_555 1_555
N2_4 C37_4 1_555 1_555
O11_4 H23_4 1_555 1_555
O11_4 H24_4 1_555 1_555
N1_4 H25_4 1_555 1_555
C17_4 H9_4 1_555 1_555
C18_4 C17_4 1_555 1_555
H10_4 C18_4 1_555 1_555
O15_2 C15_4 1_555 1_555
C15_4 C16_4 1_555 1_555
C12_4 Si1_4 1_555 1_555
C13_4 C12_4 1_555 1_555
H7_4 C13_4 1_555 1_555
H8_4 C14_4 1_555 1_555
C19_4 Si1_4 1_555 1_555
C26_4 Si1_4 1_555 1_555
C27_4 C26_4 1_555 1_555
H15_4 C27_4 1_555 1_555
H16_4 C28_4 1_555 1_555
C13_4 C14_4 1_555 1_555
C27_4 C28_4 1_555 1_555
O10_4 H26_4 1_555 1_555
O10_4 H27_4 1_555 1_555

#END
