
###############################################################################
#
# This file contains modified crystal structure data generated from the
# MOF subset of the Cambridge Structural Database (CSD) v543 
# hosted by the Cambridge Crystallographic Data Centre (CCDC).
#
# This work is licensed under the Creative Commons
# Attribution-NonCommercial-ShareAlike 4.0 International License.
# To view a copy of this license, visit
# http://creativecommons.org/licenses/by-nc-sa/4.0/
# or send a letter to
# Creative Commons, PO Box 1866, Mountain View, CA 94042, USA.
#
# CIF created using the CSD Python API on 29 September 2022
# The structure has been converted into the P1 space group
# The structure has a 3D framework
# The original CSD entry XATZUQ is in the monoclinic crystal system
# The framework has been calculated to contain at least 10.0% void space
# The void calculation uses a probe of radius 1.32A, grid spacing 0.4
#
###############################################################################

data_XATZUQ
_chemical_formula_moiety         '(C256 H144 N32 O40 Zn14)n'
_symmetry_cell_setting           triclinic
_symmetry_space_group_name_H-M   'P 1'
_symmetry_Int_Tables_number      1
_space_group_name_Hall           'P 1'
loop_
_symmetry_equiv_pos_site_id
_symmetry_equiv_pos_as_xyz
1 x,y,z
_cell_length_a                   14.123(3)
_cell_length_b                   36.166(9)
_cell_length_c                   18.341(4)
_cell_angle_alpha                90
_cell_angle_beta                 99.380(6)
_cell_angle_gamma                90
_cell_volume                     9242.82
loop_
_atom_site_label
_atom_site_type_symbol
_atom_site_fract_x
_atom_site_fract_y
_atom_site_fract_z
H33 H 0.0178 0.0335 0.0545
H34 H 0.0227 0.0638 0.1618
Zn1 Zn 0.77763(4) 0.572991(17) 0.11491(4)
Zn2 Zn 0.2500 0.7500 0.0000
C1 C 0.3169(5) 0.6366(2) 0.0552(8)
H1 H 0.3595 0.6169 0.0645
O3 O 0.7381(3) 0.54025(13) 0.0296(2)
C6 C 0.8044(5) 0.5167(2) 0.0288(4)
H3 H 0.6240 0.4918 0.0051
O4 O 0.8761(4) 0.51606(14) 0.0774(3)
N2 N 0.6636(3) 0.61048(15) 0.0895(4)
C15 C 0.6432(5) 0.6339(2) 0.1378(6)
H8 H 0.6796 0.6342 0.1848
C16 C 0.5649(7) 0.6596(2) 0.1197(7)
H9 H 0.5508 0.6763 0.1549
C17 C 0.5117(5) 0.6593(3) 0.0509(8)
C18 C 0.4319(5) 0.6863(2) 0.0319(7)
C19 C 0.4569(5) 0.7228(2) 0.0171(7)
C20 C 0.5522(5) 0.7349(2) 0.0092(7)
H10 H 0.6078 0.7207 0.0167
N3 N 0.3949(4) 0.75144(16) 0.0022(5)
N4 N 0.2586(4) 0.69545(17) 0.0255(6)
C24 C 0.5333(6) 0.6342(3) 0.0002(6)
C25 C 0.6102(6) 0.6105(2) 0.0232(6)
C28 C 0.5426(10) 0.8638(3) 0.0016(8)
H16 H 0.5396 0.8602 0.0514
C29 C 0.2208(5) 0.6358(2) 0.0562(7)
H17 H 0.1853 0.6154 0.0666
C30 C 0.3399(5) 0.6742(2) 0.0367(8)
H18 H 0.6523 0.8990 0.0178
C34 C 0.0207(5) 0.6549(2) 0.0520(8)
C42 C 0.0534(5) 0.7191(2) 0.0150(7)
C43 C 0.0890(5) 0.6842(2) 0.0345(7)
H24 H 0.0018 0.8670 0.0473
C47 C 0.0165(7) 0.6459(3) 0.1160(8)
H27 H 0.0626 0.6553 0.1535
C51 C 0.1845(5) 0.6720(2) 0.0383(7)
O10 O 0.2775(8) 0.7652(4) 0.1312(6)
O12 O 0.7521(6) 0.55106(19) 0.2063(4)
N10 N 0.8854(4) 0.60551(14) 0.0893(4)
Zn2_2 Zn 0.2500 0.7500 1.0000
O1 O 0.7521(6) 0.44894(19) 0.7063(4)
C2 C 0.7915(6) 0.4339(3) 0.7613(6)
C3 C 0.8750(5) 0.4626(2) 0.8710(4)
H2 H 0.9316 0.4569 0.8538
C4 C 0.4793(5) 0.8451(2) 0.9480(8)
N1 N 0.6146(4) 0.89449(14) 0.9107(4)
C5 C 0.7908(4) 0.4514(2) 0.8345(4)
O2 O 0.8289(6) 0.4045(3) 0.7545(4)
C7 C 0.7967(4) 0.49080(17) 0.9640(3)
C8 C 0.7075(4) 0.47620(17) 0.9291(4)
C9 C 0.6227(4) 0.47943(19) 0.9606(4)
C10 C 0.5378(5) 0.4641(2) 0.9249(5)
H4 H 0.4822 0.4665 0.9455
C11 C 0.5352(5) 0.4460(3) 0.8617(5)
H5 H 0.4773 0.4362 0.8382
C12 C 0.6173(5) 0.4415(2) 0.8298(4)
H6 H 0.6142 0.4285 0.7857
C13 C 0.7053(4) 0.45664(19) 0.8644(4)
C14 C 0.8765(4) 0.4822(2) 0.9339(4)
H7 H 0.9357 0.4905 0.9583
C21 C 0.5452(5) 0.7703(2) 0.9891(7)
H11 H 0.5951 0.7854 0.9796
C22 C 0.4466(5) 0.7809(2) 0.9850(7)
C23 C 0.4110(5) 0.8158(2) 0.9655(7)
H12 H 0.4982 0.6330 0.9527
H13 H 0.6252 0.5934 0.9891
C26 C 0.5542(7) 0.8779(3) 0.8641(6)
H14 H 0.5563 0.8815 0.8141
C27 C 0.4835(7) 0.8541(3) 0.8840(8)
H15 H 0.4374 0.8447 0.8465
C31 C 0.3155(5) 0.8280(2) 0.9617(7)
C32 C 0.6092(8) 0.8874(3) 0.9812(7)
O5 O 0.2225(8) 0.7348(4) 0.8688(6)
C33 C 0.1831(5) 0.8634(2) 0.9448(8)
H19 H 0.1405 0.8831 0.9355
C38 C 0.0681(5) 0.8137(2) 0.9681(7)
C39 C 0.0431(5) 0.7772(2) 0.9829(7)
N7 N 0.1051(4) 0.74856(16) 0.9978(5)
N8 N 0.2414(4) 0.80455(17) 0.9745(6)
C49 C 0.2792(5) 0.8642(2) 0.9438(7)
H29 H 0.3147 0.8846 0.9334
C50 C 0.1601(5) 0.8258(2) 0.9633(8)
Zn6 Zn 0.77763(4) 0.427009(17) 0.61491(4)
Zn7 Zn 0.72237(4) 0.927009(17) 0.88509(4)
O6 O 0.7479(6) 0.05106(19) 0.2937(4)
C53 C 0.7085(6) 0.0661(3) 0.2387(6)
C54 C 0.6250(5) 0.0374(2) 0.1290(4)
H31 H 0.5684 0.0431 0.1462
C55 C 0.7092(4) 0.0486(2) 0.1655(4)
O7 O 0.6711(6) 0.0955(3) 0.2455(4)
C57 C 0.7033(4) 0.00920(17) 0.0360(3)
C58 C 0.7925(4) 0.02380(17) 0.0709(4)
C59 C 0.8773(4) 0.02057(19) 0.0394(4)
C60 C 0.9622(5) 0.0359(2) 0.0751(5)
C61 C 0.9648(5) 0.0540(3) 0.1383(5)
C62 C 0.8827(5) 0.0585(2) 0.1702(4)
H35 H 0.8858 0.0715 0.2143
C63 C 0.7947(4) 0.04336(19) 0.1356(4)
C64 C 0.6235(4) 0.0178(2) 0.0661(4)
H36 H 0.5643 0.0095 0.0417
Zn5 Zn 0.72237(4) 0.072991(17) 0.38509(4)
C41 C 0.9548(5) 0.7297(2) 0.0109(7)
H23 H 0.9049 0.7146 0.0204
H25 H 0.8748 0.9066 0.0109
C46 C 0.9458(7) 0.6221(3) 0.1359(6)
H26 H 0.9437 0.6185 0.1859
C52 C 0.8908(8) 0.6126(3) 0.0188(7)
N6 N 0.8364(3) 0.88952(15) 0.9105(4)
C35 C 0.8568(5) 0.8661(2) 0.8622(6)
H20 H 0.8204 0.8658 0.8152
C36 C 0.9351(7) 0.8404(2) 0.8803(7)
H21 H 0.9492 0.8237 0.8451
C37 C 0.9883(5) 0.8407(3) 0.9491(8)
C40 C 0.9478(5) 0.7651(2) 0.9908(7)
H22 H 0.8922 0.7793 0.9833
C44 C 0.9667(6) 0.8658(3) 0.9998(6)
C45 C 0.8898(6) 0.8895(2) 0.9768(6)
C48 C 0.9574(10) 0.6362(3) 0.9984(8)
H28 H 0.9604 0.6398 0.9486
H30 H 0.8477 0.6010 0.9822
O8 O 0.7619(3) 0.95975(13) 0.9704(2)
C56 C 0.6956(5) 0.9833(2) 0.9712(4)
O9 O 0.6239(4) 0.98394(14) 0.9226(3)
O11 O 0.7479(6) 0.94894(19) 0.7937(4)
Zn2_3 Zn 0.2500 0.2500 0.5000
C1_2 C 0.1831(5) 0.1366(2) 0.4448(8)
H1_2 H 0.1405 0.1169 0.4355
C4_2 C 0.0207(5) 0.3451(2) 0.5520(8)
C18_2 C 0.0681(5) 0.1863(2) 0.4681(7)
C19_2 C 0.0431(5) 0.2228(2) 0.4829(7)
C22_2 C 0.0534(5) 0.2809(2) 0.5150(7)
C23_2 C 0.0890(5) 0.3158(2) 0.5345(7)
N3_2 N 0.1051(4) 0.25144(16) 0.4978(5)
N4_2 N 0.2414(4) 0.19545(17) 0.4745(6)
H12_2 H 0.0018 0.1330 0.5473
C27_2 C 0.0165(7) 0.3541(3) 0.6160(8)
H15_2 H 0.0626 0.3447 0.6535
C29_2 C 0.2792(5) 0.1358(2) 0.4438(7)
H17_2 H 0.3147 0.1154 0.4334
C30_2 C 0.1601(5) 0.1742(2) 0.4633(8)
C31_2 C 0.1845(5) 0.3280(2) 0.5383(7)
O5_2 O 0.2775(8) 0.2348(4) 0.6312(6)
C33_2 C 0.3169(5) 0.3634(2) 0.5552(8)
H19_2 H 0.3595 0.3831 0.5645
C34_2 C 0.4793(5) 0.1549(2) 0.4480(8)
N5 N 0.6146(4) 0.10551(14) 0.4107(4)
N6_2 N 0.6636(3) 0.38952(15) 0.5895(4)
C35_2 C 0.6432(5) 0.3661(2) 0.6378(6)
H20_2 H 0.6796 0.3658 0.6848
C36_2 C 0.5649(7) 0.3404(2) 0.6197(7)
H21_2 H 0.5508 0.3237 0.6549
C37_2 C 0.5117(5) 0.3407(3) 0.5509(8)
C38_2 C 0.4319(5) 0.3137(2) 0.5319(7)
C39_2 C 0.4569(5) 0.2772(2) 0.5171(7)
C40_2 C 0.5522(5) 0.2651(2) 0.5092(7)
H22_2 H 0.6078 0.2793 0.5167
C41_2 C 0.5452(5) 0.2297(2) 0.4891(7)
H23_2 H 0.5951 0.2146 0.4796
C42_2 C 0.4466(5) 0.2191(2) 0.4850(7)
C43_2 C 0.4110(5) 0.1842(2) 0.4655(7)
N7_2 N 0.3949(4) 0.24856(16) 0.5022(5)
N8_2 N 0.2586(4) 0.30455(17) 0.5255(6)
C44_2 C 0.5333(6) 0.3658(3) 0.5002(6)
H24_2 H 0.4982 0.3670 0.4527
C45_2 C 0.6102(6) 0.3895(2) 0.5232(6)
H25_2 H 0.6252 0.4066 0.4891
C46_2 C 0.5542(7) 0.1221(3) 0.3641(6)
H26_2 H 0.5563 0.1185 0.3141
C47_2 C 0.4835(7) 0.1459(3) 0.3840(8)
H27_2 H 0.4374 0.1553 0.3465
C48_2 C 0.5426(10) 0.1362(3) 0.5016(8)
H28_2 H 0.5396 0.1398 0.5514
C49_2 C 0.2208(5) 0.3642(2) 0.5562(7)
H29_2 H 0.1853 0.3846 0.5666
C50_2 C 0.3399(5) 0.3258(2) 0.5367(8)
C51_2 C 0.3155(5) 0.1720(2) 0.4617(7)
C52_2 C 0.6092(8) 0.1126(3) 0.4812(7)
H30_2 H 0.6523 0.1010 0.5178
C53_2 C 0.7915(6) 0.5661(3) 0.2613(6)
C54_2 C 0.8750(5) 0.5374(2) 0.3710(4)
H31_2 H 0.9316 0.5431 0.3538
C55_2 C 0.7908(4) 0.5486(2) 0.3345(4)
O7_2 O 0.8289(6) 0.5955(3) 0.2545(4)
O8_2 O 0.7381(3) 0.45975(13) 0.5296(2)
C56_2 C 0.8044(5) 0.4833(2) 0.5288(4)
C57_2 C 0.7967(4) 0.50920(17) 0.4640(3)
C58_2 C 0.7075(4) 0.52380(17) 0.4291(4)
C59_2 C 0.6227(4) 0.52057(19) 0.4606(4)
H32 H 0.6240 0.5082 0.5051
C60_2 C 0.5378(5) 0.5359(2) 0.4249(5)
H33_2 H 0.4822 0.5335 0.4455
C61_2 C 0.5352(5) 0.5540(3) 0.3617(5)
H34_2 H 0.4773 0.5638 0.3382
C62_2 C 0.6173(5) 0.5585(2) 0.3298(4)
H35_2 H 0.6142 0.5715 0.2857
C63_2 C 0.7053(4) 0.54336(19) 0.3644(4)
C64_2 C 0.8765(4) 0.5178(2) 0.4339(4)
H36_2 H 0.9357 0.5095 0.4583
O9_2 O 0.8761(4) 0.48394(14) 0.5774(3)
O10_2 O 0.2225(8) 0.2652(4) 0.3688(6)
N9 N 0.8854(4) 0.39449(14) 0.5893(4)
O3_2 O 0.7619(3) 0.04025(13) 0.4704(2)
C6_2 C 0.6956(5) 0.0167(2) 0.4712(4)
O4_2 O 0.6239(4) 0.01606(14) 0.4226(3)
N2_2 N 0.8364(3) 0.11048(15) 0.4105(4)
C15_2 C 0.8568(5) 0.1339(2) 0.3622(6)
H8_2 H 0.8204 0.1342 0.3152
C16_2 C 0.9351(7) 0.1596(2) 0.3803(7)
H9_2 H 0.9492 0.1763 0.3451
C17_2 C 0.9883(5) 0.1593(3) 0.4491(8)
C20_2 C 0.9478(5) 0.2349(2) 0.4908(7)
H10_2 H 0.8922 0.2207 0.4833
C21_2 C 0.9548(5) 0.2703(2) 0.5109(7)
H11_2 H 0.9049 0.2854 0.5204
C24_2 C 0.9667(6) 0.1342(3) 0.4998(6)
C25_2 C 0.8898(6) 0.1105(2) 0.4768(6)
H13_2 H 0.8748 0.0934 0.5109
C26_2 C 0.9458(7) 0.3779(3) 0.6359(6)
H14_2 H 0.9437 0.3815 0.6859
C28_2 C 0.9574(10) 0.3638(3) 0.4984(8)
H16_2 H 0.9604 0.3602 0.4486
C32_2 C 0.8908(8) 0.3874(3) 0.5188(7)
H18_2 H 0.8477 0.3990 0.4822
C2_2 C 0.7085(6) 0.9339(3) 0.7387(6)
C3_2 C 0.6250(5) 0.9626(2) 0.6290(4)
H2_2 H 0.5684 0.9569 0.6462
C5_2 C 0.7092(4) 0.9514(2) 0.6655(4)
O2_2 O 0.6711(6) 0.9045(3) 0.7455(4)
C7_2 C 0.7033(4) 0.99080(17) 0.5360(3)
C8_2 C 0.7925(4) 0.97620(17) 0.5709(4)
C9_2 C 0.8773(4) 0.97943(19) 0.5394(4)
H3_2 H 0.8760 0.9918 0.4949
C10_2 C 0.9622(5) 0.9641(2) 0.5751(5)
C11_2 C 0.9648(5) 0.9460(3) 0.6383(5)
C12_2 C 0.8827(5) 0.9415(2) 0.6702(4)
H6_2 H 0.8858 0.9285 0.7143
C13_2 C 0.7947(4) 0.95664(19) 0.6356(4)
C14_2 C 0.6235(4) 0.9822(2) 0.5661(4)
H7_2 H 0.5643 0.9905 0.5417
H32_2 H 0.8760 0.0082 0.9949
O6_2 O 0.2521(6) 0.05106(19) 0.2063(4)
C53_3 C 0.2915(6) 0.0661(3) 0.2613(6)
C54_3 C 0.3750(5) 0.0374(2) 0.3710(4)
H31_3 H 0.4316 0.0431 0.3538
C55_3 C 0.2908(4) 0.0486(2) 0.3345(4)
O7_3 O 0.3289(6) 0.0955(3) 0.2545(4)
C57_3 C 0.2967(4) 0.00920(17) 0.4640(3)
C58_3 C 0.2075(4) 0.02380(17) 0.4291(4)
C59_3 C 0.1227(4) 0.02057(19) 0.4606(4)
H32_3 H 0.1240 0.0082 0.5051
C60_3 C 0.0378(5) 0.0359(2) 0.4249(5)
C61_3 C 0.0352(5) 0.0540(3) 0.3617(5)
C62_3 C 0.1173(5) 0.0585(2) 0.3298(4)
H35_3 H 0.1142 0.0715 0.2857
C63_3 C 0.2053(4) 0.04336(19) 0.3644(4)
C64_3 C 0.3765(4) 0.0178(2) 0.4339(4)
H36_3 H 0.4357 0.0095 0.4583
Zn5_2 Zn 0.27763(4) 0.072991(17) 0.11491(4)
N5_2 N 0.1146(4) 0.60551(14) 0.4107(4)
N6_3 N 0.1636(3) 0.88952(15) 0.5895(4)
C35_3 C 0.1432(5) 0.8661(2) 0.6378(6)
H20_3 H 0.1796 0.8658 0.6848
C36_3 C 0.0649(7) 0.8404(2) 0.6197(7)
H21_3 H 0.0508 0.8237 0.6549
C37_3 C 0.0117(5) 0.8407(3) 0.5509(8)
C40_3 C 0.0522(5) 0.7651(2) 0.5092(7)
H22_3 H 0.1078 0.7793 0.5167
C41_3 C 0.0452(5) 0.7297(2) 0.4891(7)
H23_3 H 0.0951 0.7146 0.4796
C44_3 C 0.0333(6) 0.8658(3) 0.5002(6)
C45_3 C 0.1102(6) 0.8895(2) 0.5232(6)
H25_3 H 0.1252 0.9066 0.4891
C46_3 C 0.0542(7) 0.6221(3) 0.3641(6)
H26_3 H 0.0563 0.6185 0.3141
C48_3 C 0.0426(10) 0.6362(3) 0.5016(8)
H28_3 H 0.0396 0.6398 0.5514
C52_3 C 0.1092(8) 0.6126(3) 0.4812(7)
H30_3 H 0.1523 0.6010 0.5178
Zn3 Zn 0.27763(4) 0.927009(17) 0.61491(4)
O8_3 O 0.2381(3) 0.95975(13) 0.5296(2)
C56_3 C 0.3044(5) 0.9833(2) 0.5288(4)
O9_3 O 0.3761(4) 0.98394(14) 0.5774(3)
Zn4 Zn 0.22237(4) 0.572991(17) 0.38509(4)
O11_2 O 0.2521(6) 0.94894(19) 0.7063(4)
N9_2 N 0.3854(4) 0.89449(14) 0.5893(4)
Zn2_4 Zn 0.7500 0.7500 0.5000
C1_3 C 0.6831(5) 0.6366(2) 0.4448(8)
H1_3 H 0.6405 0.6169 0.4355
O1_2 O 0.2479(6) 0.44894(19) 0.7937(4)
C2_3 C 0.2085(6) 0.4339(3) 0.7387(6)
C3_3 C 0.1250(5) 0.4626(2) 0.6290(4)
H2_3 H 0.0684 0.4569 0.6462
C4_3 C 0.5207(5) 0.8451(2) 0.5520(8)
C5_3 C 0.2092(4) 0.4514(2) 0.6655(4)
O2_3 O 0.1711(6) 0.4045(3) 0.7455(4)
O3_3 O 0.2619(3) 0.54025(13) 0.4704(2)
C6_3 C 0.1956(5) 0.5167(2) 0.4712(4)
C7_3 C 0.2033(4) 0.49080(17) 0.5360(3)
C8_3 C 0.2925(4) 0.47620(17) 0.5709(4)
C9_3 C 0.3773(4) 0.47943(19) 0.5394(4)
H3_3 H 0.3760 0.4918 0.4949
C10_3 C 0.4622(5) 0.4641(2) 0.5751(5)
H4_2 H 0.5178 0.4665 0.5545
C11_3 C 0.4648(5) 0.4460(3) 0.6383(5)
H5_2 H 0.5227 0.4362 0.6618
C12_3 C 0.3827(5) 0.4415(2) 0.6702(4)
H6_3 H 0.3858 0.4285 0.7143
C13_3 C 0.2947(4) 0.45664(19) 0.6356(4)
C14_3 C 0.1235(4) 0.4822(2) 0.5661(4)
H7_3 H 0.0643 0.4905 0.5417
O4_3 O 0.1239(4) 0.51606(14) 0.4226(3)
N2_3 N 0.3364(3) 0.61048(15) 0.4105(4)
C15_3 C 0.3568(5) 0.6339(2) 0.3622(6)
H8_3 H 0.3204 0.6342 0.3152
C16_3 C 0.4351(7) 0.6596(2) 0.3803(7)
H9_3 H 0.4492 0.6763 0.3451
C17_3 C 0.4883(5) 0.6593(3) 0.4491(8)
C18_3 C 0.5681(5) 0.6863(2) 0.4681(7)
C19_3 C 0.5431(5) 0.7228(2) 0.4829(7)
C20_3 C 0.4478(5) 0.7349(2) 0.4908(7)
H10_3 H 0.3922 0.7207 0.4833
C21_3 C 0.4548(5) 0.7703(2) 0.5109(7)
H11_3 H 0.4049 0.7854 0.5204
C22_3 C 0.5534(5) 0.7809(2) 0.5150(7)
C23_3 C 0.5890(5) 0.8158(2) 0.5345(7)
N3_3 N 0.6051(4) 0.75144(16) 0.4978(5)
N4_3 N 0.7414(4) 0.69545(17) 0.4745(6)
C24_3 C 0.4667(6) 0.6342(3) 0.4998(6)
H12_3 H 0.5018 0.6330 0.5473
C25_3 C 0.3898(6) 0.6105(2) 0.4768(6)
H13_3 H 0.3748 0.5934 0.5109
C26_3 C 0.4458(7) 0.8779(3) 0.6359(6)
H14_3 H 0.4437 0.8815 0.6859
C27_3 C 0.5165(7) 0.8541(3) 0.6160(8)
H15_3 H 0.5626 0.8447 0.6535
C28_3 C 0.4574(10) 0.8638(3) 0.4984(8)
H16_3 H 0.4604 0.8602 0.4486
C29_3 C 0.7792(5) 0.6358(2) 0.4438(7)
H17_3 H 0.8147 0.6154 0.4334
C30_3 C 0.6601(5) 0.6742(2) 0.4633(8)
C31_3 C 0.6845(5) 0.8280(2) 0.5383(7)
C32_3 C 0.3908(8) 0.8874(3) 0.5188(7)
H18_3 H 0.3477 0.8990 0.4822
O5_3 O 0.7775(8) 0.7348(4) 0.6312(6)
C33_3 C 0.8169(5) 0.8634(2) 0.5552(8)
H19_3 H 0.8595 0.8831 0.5645
C34_3 C 0.9793(5) 0.6549(2) 0.4480(8)
C38_3 C 0.9319(5) 0.8137(2) 0.5319(7)
C39_3 C 0.9569(5) 0.7772(2) 0.5171(7)
C42_3 C 0.9466(5) 0.7191(2) 0.4850(7)
C43_3 C 0.9110(5) 0.6842(2) 0.4655(7)
N7_3 N 0.8949(4) 0.74856(16) 0.5022(5)
N8_3 N 0.7586(4) 0.80455(17) 0.5255(6)
H24_3 H 0.9982 0.8670 0.4527
C47_3 C 0.9835(7) 0.6459(3) 0.3840(8)
H27_3 H 0.9374 0.6553 0.3465
C49_3 C 0.7208(5) 0.8642(2) 0.5562(7)
H29_3 H 0.6853 0.8846 0.5666
C50_3 C 0.8399(5) 0.8258(2) 0.5367(8)
C51_3 C 0.8155(5) 0.6720(2) 0.4617(7)
O10_3 O 0.7225(8) 0.7652(4) 0.3688(6)
Zn6_2 Zn 0.22237(4) 0.427009(17) 0.88509(4)
O12_2 O 0.2479(6) 0.55106(19) 0.2937(4)
O3_4 O 0.2381(3) 0.04025(13) 0.0296(2)
C6_4 C 0.3044(5) 0.0167(2) 0.0288(4)
O4_4 O 0.3761(4) 0.01606(14) 0.0774(3)
N2_4 N 0.1636(3) 0.11048(15) 0.0895(4)
C15_4 C 0.1432(5) 0.1339(2) 0.1378(6)
H8_4 H 0.1796 0.1342 0.1848
C16_4 C 0.0649(7) 0.1596(2) 0.1197(7)
H9_4 H 0.0508 0.1763 0.1549
C17_4 C 0.0117(5) 0.1593(3) 0.0509(8)
C20_4 C 0.0522(5) 0.2349(2) 0.0092(7)
H10_4 H 0.1078 0.2207 0.0167
C24_4 C 0.0333(6) 0.1342(3) 0.0002(6)
C25_4 C 0.1102(6) 0.1105(2) 0.0232(6)
C28_4 C 0.0426(10) 0.3638(3) 0.0016(8)
H16_4 H 0.0396 0.3602 0.0514
H18_4 H 0.1523 0.3990 0.0178
N10_2 N 0.3854(4) 0.10551(14) 0.0893(4)
N1_2 N 0.1146(4) 0.39449(14) 0.9107(4)
C21_4 C 0.0452(5) 0.2703(2) 0.9891(7)
H11_4 H 0.0951 0.2854 0.9796
H13_4 H 0.1252 0.0934 0.9891
C26_4 C 0.0542(7) 0.3779(3) 0.8641(6)
H14_4 H 0.0563 0.3815 0.8141
C32_4 C 0.1092(8) 0.3874(3) 0.9812(7)
C2_4 C 0.2915(6) 0.9339(3) 0.7613(6)
C3_4 C 0.3750(5) 0.9626(2) 0.8710(4)
H2_4 H 0.4316 0.9569 0.8538
C5_4 C 0.2908(4) 0.9514(2) 0.8345(4)
O2_4 O 0.3289(6) 0.9045(3) 0.7545(4)
C7_4 C 0.2967(4) 0.99080(17) 0.9640(3)
C8_4 C 0.2075(4) 0.97620(17) 0.9291(4)
C9_4 C 0.1227(4) 0.97943(19) 0.9606(4)
C10_4 C 0.0378(5) 0.9641(2) 0.9249(5)
C11_4 C 0.0352(5) 0.9460(3) 0.8617(5)
C12_4 C 0.1173(5) 0.9415(2) 0.8298(4)
H6_4 H 0.1142 0.9285 0.7857
C13_4 C 0.2053(4) 0.95664(19) 0.8644(4)
C14_4 C 0.3765(4) 0.9822(2) 0.9339(4)
H7_4 H 0.4357 0.9905 0.9583
Zn2_5 Zn 0.7500 0.2500 0.0000
C1_4 C 0.8169(5) 0.1366(2) 0.0552(8)
H1_4 H 0.8595 0.1169 0.0645
C18_4 C 0.9319(5) 0.1863(2) 0.0319(7)
C19_4 C 0.9569(5) 0.2228(2) 0.0171(7)
N3_4 N 0.8949(4) 0.25144(16) 0.0022(5)
N4_4 N 0.7586(4) 0.19545(17) 0.0255(6)
C29_4 C 0.7208(5) 0.1358(2) 0.0562(7)
H17_4 H 0.6853 0.1154 0.0666
C30_4 C 0.8399(5) 0.1742(2) 0.0367(8)
C34_4 C 0.5207(5) 0.1549(2) 0.0520(8)
C41_4 C 0.4548(5) 0.2297(2) 0.0109(7)
H23_4 H 0.4049 0.2146 0.0204
C42_4 C 0.5534(5) 0.2191(2) 0.0150(7)
C43_4 C 0.5890(5) 0.1842(2) 0.0345(7)
H24_4 H 0.5018 0.3670 0.0473
H25_4 H 0.3748 0.4066 0.0109
C46_4 C 0.4458(7) 0.1221(3) 0.1359(6)
H26_4 H 0.4437 0.1185 0.1859
C47_4 C 0.5165(7) 0.1459(3) 0.1160(8)
H27_4 H 0.5626 0.1553 0.1535
C51_4 C 0.6845(5) 0.1720(2) 0.0383(7)
C52_4 C 0.3908(8) 0.1126(3) 0.0188(7)
C53_4 C 0.2085(6) 0.5661(3) 0.2387(6)
C54_4 C 0.1250(5) 0.5374(2) 0.1290(4)
H31_4 H 0.0684 0.5431 0.1462
C55_4 C 0.2092(4) 0.5486(2) 0.1655(4)
O7_4 O 0.1711(6) 0.5955(3) 0.2455(4)
C57_4 C 0.2033(4) 0.50920(17) 0.0360(3)
C58_4 C 0.2925(4) 0.52380(17) 0.0709(4)
C59_4 C 0.3773(4) 0.52057(19) 0.0394(4)
C60_4 C 0.4622(5) 0.5359(2) 0.0751(5)
H33_3 H 0.5178 0.5335 0.0545
C61_4 C 0.4648(5) 0.5540(3) 0.1383(5)
H34_3 H 0.5227 0.5638 0.1618
C62_4 C 0.3827(5) 0.5585(2) 0.1702(4)
H35_4 H 0.3858 0.5715 0.2143
C63_4 C 0.2947(4) 0.54336(19) 0.1356(4)
C64_4 C 0.1235(4) 0.5178(2) 0.0661(4)
H36_4 H 0.0643 0.5095 0.0417
O10_4 O 0.7775(8) 0.2652(4) 0.1312(6)
Zn2_6 Zn 0.7500 0.2500 1.0000
C4_4 C 0.9793(5) 0.3451(2) 0.9480(8)
C22_4 C 0.9466(5) 0.2809(2) 0.9850(7)
C23_4 C 0.9110(5) 0.3158(2) 0.9655(7)
H12_4 H 0.9982 0.1330 0.9527
C27_4 C 0.9835(7) 0.3541(3) 0.8840(8)
H15_4 H 0.9374 0.3447 0.8465
C31_4 C 0.8155(5) 0.3280(2) 0.9617(7)
O5_4 O 0.7225(8) 0.2348(4) 0.8688(6)
C33_4 C 0.6831(5) 0.3634(2) 0.9448(8)
H19_4 H 0.6405 0.3831 0.9355
N6_4 N 0.3364(3) 0.38952(15) 0.9105(4)
C35_4 C 0.3568(5) 0.3661(2) 0.8622(6)
H20_4 H 0.3204 0.3658 0.8152
C36_4 C 0.4351(7) 0.3404(2) 0.8803(7)
H21_4 H 0.4492 0.3237 0.8451
C37_4 C 0.4883(5) 0.3407(3) 0.9491(8)
C38_4 C 0.5681(5) 0.3137(2) 0.9681(7)
C39_4 C 0.5431(5) 0.2772(2) 0.9829(7)
C40_4 C 0.4478(5) 0.2651(2) 0.9908(7)
H22_4 H 0.3922 0.2793 0.9833
N7_4 N 0.6051(4) 0.24856(16) 0.9978(5)
N8_4 N 0.7414(4) 0.30455(17) 0.9745(6)
C44_4 C 0.4667(6) 0.3658(3) 0.9998(6)
C45_4 C 0.3898(6) 0.3895(2) 0.9768(6)
C48_4 C 0.4574(10) 0.1362(3) 0.9984(8)
H28_4 H 0.4604 0.1398 0.9486
C49_4 C 0.7792(5) 0.3642(2) 0.9438(7)
H29_4 H 0.8147 0.3846 0.9334
C50_4 C 0.6601(5) 0.3258(2) 0.9633(8)
H30_4 H 0.3477 0.1010 0.9822
O8_4 O 0.2619(3) 0.45975(13) 0.9704(2)
C56_4 C 0.1956(5) 0.4833(2) 0.9712(4)
H32_4 H 0.3760 0.5082 0.9949
O9_4 O 0.1239(4) 0.48394(14) 0.9226(3)
H33_4 H 0.9822 0.0335 0.4455
H34_4 H 0.9773 0.0638 0.3382
H3_4 H 0.1240 0.9918 0.0051
H4_3 H 0.9822 0.9665 0.9455
H5_3 H 0.9773 0.9362 0.8382
H4_4 H 0.0178 0.9665 0.5545
H5_4 H 0.0227 0.9362 0.6618
loop_
_geom_bond_atom_site_label_1
_geom_bond_atom_site_label_2
_geom_bond_site_symmetry_1
_geom_bond_site_symmetry_2
Zn1 O3 1_555 1_555
Zn2 N3 1_555 1_555
C1 H1 1_555 1_555
O3 C6 1_555 1_555
O4 C6 1_555 1_555
N2 Zn1 1_555 1_555
C15 N2 1_555 1_555
H8 C15 1_555 1_555
C16 C15 1_555 1_555
H9 C16 1_555 1_555
C17 C16 1_555 1_555
C18 C17 1_555 1_555
C19 C18 1_555 1_555
C20 C19 1_555 1_555
H10 C20 1_555 1_555
N3 C19 1_555 1_555
N4 Zn2 1_555 1_555
C24 C17 1_555 1_555
C25 N2 1_555 1_555
H16 C28 1_555 1_555
C29 C1 1_555 1_555
H17 C29 1_555 1_555
C30 C1 1_555 1_555
C34 C43 1_555 1_555
C43 C42 1_555 1_555
C47 C34 1_555 1_555
H27 C47 1_555 1_555
C51 N4 1_555 1_555
O10 Zn2 1_555 1_555
O12 Zn1 1_555 1_555
N10 Zn1 1_555 1_555
C18 C30 1_555 1_555
N4 C30 1_555 1_555
C24 C25 1_555 1_555
C29 C51 1_555 1_555
C43 C51 1_555 1_555
O1 C2 1_555 1_555
C2 C5 1_555 1_555
C3 H2 1_555 1_555
C4 C23 1_555 1_555
N1 C26 1_555 1_555
C5 C3 1_555 1_555
O2 C2 1_555 1_555
C7 C8 1_555 1_555
C8 C9 1_555 1_555
C10 C9 1_555 1_555
H4 C10 1_555 1_555
C11 C10 1_555 1_555
H5 C11 1_555 1_555
C12 C11 1_555 1_555
H6 C12 1_555 1_555
C13 C5 1_555 1_555
C14 C3 1_555 1_555
H7 C14 1_555 1_555
H11 C21 1_555 1_555
C22 C21 1_555 1_555
C23 C22 1_555 1_555
C26 H14 1_555 1_555
C27 C4 1_555 1_555
H15 C27 1_555 1_555
C31 C23 1_555 1_555
C32 N1 1_555 1_555
O5 Zn2_2 1_555 1_555
C33 H19 1_555 1_555
C39 C38 1_555 1_555
N7 Zn2_2 1_555 1_555
N8 Zn2_2 1_555 1_555
C49 C31 1_555 1_555
H29 C49 1_555 1_555
C50 C33 1_555 1_555
Zn6 O1 1_555 1_555
Zn7 N1 1_555 1_555
C7 C14 1_555 1_555
C8 C13 1_555 1_555
C12 C13 1_555 1_555
C26 C27 1_555 1_555
C31 N8 1_555 1_555
C33 C49 1_555 1_555
C38 C50 1_555 1_555
C39 N7 1_555 1_555
N8 C50 1_555 1_555
O6 C53 1_555 1_555
C53 C55 1_555 1_555
C54 H31 1_555 1_555
C55 C54 1_555 1_555
O7 C53 1_555 1_555
C58 C57 1_555 1_555
C59 C58 1_555 1_555
C60 C59 1_555 1_555
C61 C60 1_555 1_555
C62 C61 1_555 1_555
H35 C62 1_555 1_555
C63 C55 1_555 1_555
C64 C54 1_555 1_555
H36 C64 1_555 1_555
Zn5 O6 1_555 1_555
C57 C64 1_555 1_555
C58 C63 1_555 1_555
C62 C63 1_555 1_555
N10 C46 1_555 1_555
H23 C41 1_555 1_555
C46 H26 1_555 1_555
C52 N10 1_555 1_555
N6 C35 1_555 1_555
C35 H20 1_555 1_555
C36 C35 1_555 1_555
H21 C36 1_555 1_555
C37 C36 1_555 1_555
H22 C40 1_555 1_555
C44 C37 1_555 1_555
C45 N6 1_555 1_555
H28 C48 1_555 1_555
Zn7 N6 1_555 1_555
O8 Zn7 1_555 1_555
C56 O8 1_555 1_555
O9 C56 1_555 1_555
O11 Zn7 1_555 1_555
C44 C45 1_555 1_555
Zn2_3 N3_2 1_555 1_555
C1_2 H1_2 1_555 1_555
C4_2 C23_2 1_555 1_555
C19_2 C18_2 1_555 1_555
C23_2 C22_2 1_555 1_555
N3_2 C19_2 1_555 1_555
N4_2 Zn2_3 1_555 1_555
C27_2 C4_2 1_555 1_555
H15_2 C27_2 1_555 1_555
C29_2 C1_2 1_555 1_555
H17_2 C29_2 1_555 1_555
C30_2 C1_2 1_555 1_555
C31_2 C23_2 1_555 1_555
O5_2 Zn2_3 1_555 1_555
C33_2 H19_2 1_555 1_555
C34_2 C43_2 1_555 1_555
N5 C46_2 1_555 1_555
N6_2 C35_2 1_555 1_555
C35_2 H20_2 1_555 1_555
C36_2 C35_2 1_555 1_555
H21_2 C36_2 1_555 1_555
C37_2 C36_2 1_555 1_555
C38_2 C37_2 1_555 1_555
C39_2 C38_2 1_555 1_555
C40_2 C39_2 1_555 1_555
H22_2 C40_2 1_555 1_555
C41_2 C40_2 1_555 1_555
H23_2 C41_2 1_555 1_555
C42_2 C41_2 1_555 1_555
C43_2 C42_2 1_555 1_555
N7_2 Zn2_3 1_555 1_555
N8_2 Zn2_3 1_555 1_555
C44_2 C37_2 1_555 1_555
H24_2 C44_2 1_555 1_555
C45_2 N6_2 1_555 1_555
H25_2 C45_2 1_555 1_555
C46_2 H26_2 1_555 1_555
C47_2 C34_2 1_555 1_555
H27_2 C47_2 1_555 1_555
C48_2 C34_2 1_555 1_555
H28_2 C48_2 1_555 1_555
C49_2 C31_2 1_555 1_555
H29_2 C49_2 1_555 1_555
C50_2 C33_2 1_555 1_555
C51_2 N4_2 1_555 1_555
C52_2 N5 1_555 1_555
H30_2 C52_2 1_555 1_555
Zn6 N6_2 1_555 1_555
O12 C53_2 1_555 1_555
C53_2 C55_2 1_555 1_555
C54_2 H31_2 1_555 1_555
C55_2 C54_2 1_555 1_555
O7_2 C53_2 1_555 1_555
O8_2 Zn6 1_555 1_555
C56_2 O8_2 1_555 1_555
C57_2 C56_2 1_555 1_555
C58_2 C57_2 1_555 1_555
C59_2 C58_2 1_555 1_555
H32 C59_2 1_555 1_555
C60_2 C59_2 1_555 1_555
H33_2 C60_2 1_555 1_555
C61_2 C60_2 1_555 1_555
H34_2 C61_2 1_555 1_555
C62_2 C61_2 1_555 1_555
H35_2 C62_2 1_555 1_555
C63_2 C55_2 1_555 1_555
C64_2 C54_2 1_555 1_555
H36_2 C64_2 1_555 1_555
O9_2 C56_2 1_555 1_555
O10_2 Zn2_3 1_555 1_555
Zn5 N5 1_555 1_555
N9 Zn6 1_555 1_555
C18_2 C30_2 1_555 1_555
C22_2 N3_2 1_555 1_555
N4_2 C30_2 1_555 1_555
C29_2 C51_2 1_555 1_555
C31_2 N8_2 1_555 1_555
C33_2 C49_2 1_555 1_555
C38_2 C50_2 1_555 1_555
C39_2 N7_2 1_555 1_555
C42_2 N7_2 1_555 1_555
C43_2 C51_2 1_555 1_555
N8_2 C50_2 1_555 1_555
C44_2 C45_2 1_555 1_555
C46_2 C47_2 1_555 1_555
C48_2 C52_2 1_555 1_555
C57_2 C64_2 1_555 1_555
C58_2 C63_2 1_555 1_555
C62_2 C63_2 1_555 1_555
Zn5 O3_2 1_555 1_555
N9 C26_2 1_555 1_555
O3_2 C6_2 1_555 1_555
O4_2 C6_2 1_555 1_555
N2_2 Zn5 1_555 1_555
C15_2 N2_2 1_555 1_555
H8_2 C15_2 1_555 1_555
C16_2 C15_2 1_555 1_555
H9_2 C16_2 1_555 1_555
C17_2 C16_2 1_555 1_555
H10_2 C20_2 1_555 1_555
C21_2 C20_2 1_555 1_555
H11_2 C21_2 1_555 1_555
C24_2 C17_2 1_555 1_555
C25_2 N2_2 1_555 1_555
H13_2 C25_2 1_555 1_555
C26_2 H14_2 1_555 1_555
H16_2 C28_2 1_555 1_555
C32_2 N9 1_555 1_555
H18_2 C32_2 1_555 1_555
C24_2 C25_2 1_555 1_555
C28_2 C32_2 1_555 1_555
O11 C2_2 1_555 1_555
C2_2 C5_2 1_555 1_555
C3_2 H2_2 1_555 1_555
C5_2 C3_2 1_555 1_555
O2_2 C2_2 1_555 1_555
C7_2 C8_2 1_555 1_555
C8_2 C9_2 1_555 1_555
C9_2 H3_2 1_555 1_555
C10_2 C9_2 1_555 1_555
C11_2 C10_2 1_555 1_555
C12_2 C11_2 1_555 1_555
H6_2 C12_2 1_555 1_555
C13_2 C5_2 1_555 1_555
C14_2 C3_2 1_555 1_555
H7_2 C14_2 1_555 1_555
C7_2 C14_2 1_555 1_555
C8_2 C13_2 1_555 1_555
C12_2 C13_2 1_555 1_555
O6_2 C53_3 1_555 1_555
C53_3 C55_3 1_555 1_555
C54_3 H31_3 1_555 1_555
C55_3 C54_3 1_555 1_555
O7_3 C53_3 1_555 1_555
C58_3 C57_3 1_555 1_555
C59_3 C58_3 1_555 1_555
H32_3 C59_3 1_555 1_555
C60_3 C59_3 1_555 1_555
C61_3 C60_3 1_555 1_555
C62_3 C61_3 1_555 1_555
H35_3 C62_3 1_555 1_555
C63_3 C55_3 1_555 1_555
C64_3 C54_3 1_555 1_555
H36_3 C64_3 1_555 1_555
Zn5_2 O6_2 1_555 1_555
C57_3 C64_3 1_555 1_555
C58_3 C63_3 1_555 1_555
C62_3 C63_3 1_555 1_555
N5_2 C46_3 1_555 1_555
N6_3 C35_3 1_555 1_555
C35_3 H20_3 1_555 1_555
C36_3 C35_3 1_555 1_555
H21_3 C36_3 1_555 1_555
C37_3 C36_3 1_555 1_555
H22_3 C40_3 1_555 1_555
C41_3 C40_3 1_555 1_555
H23_3 C41_3 1_555 1_555
C44_3 C37_3 1_555 1_555
C45_3 N6_3 1_555 1_555
H25_3 C45_3 1_555 1_555
C46_3 H26_3 1_555 1_555
H28_3 C48_3 1_555 1_555
C52_3 N5_2 1_555 1_555
H30_3 C52_3 1_555 1_555
Zn3 N6_3 1_555 1_555
O8_3 Zn3 1_555 1_555
C56_3 O8_3 1_555 1_555
O9_3 C56_3 1_555 1_555
Zn4 N5_2 1_555 1_555
O11_2 Zn3 1_555 1_555
N9_2 Zn3 1_555 1_555
C44_3 C45_3 1_555 1_555
C48_3 C52_3 1_555 1_555
Zn4 O3_3 1_555 1_555
Zn2_4 N3_3 1_555 1_555
C1_3 H1_3 1_555 1_555
O1_2 C2_3 1_555 1_555
C2_3 C5_3 1_555 1_555
C3_3 H2_3 1_555 1_555
C4_3 C23_3 1_555 1_555
N9_2 C26_3 1_555 1_555
C5_3 C3_3 1_555 1_555
O2_3 C2_3 1_555 1_555
O3_3 C6_3 1_555 1_555
C6_3 C7_3 1_555 1_555
C7_3 C8_3 1_555 1_555
C8_3 C9_3 1_555 1_555
C9_3 H3_3 1_555 1_555
C10_3 C9_3 1_555 1_555
H4_2 C10_3 1_555 1_555
C11_3 C10_3 1_555 1_555
H5_2 C11_3 1_555 1_555
C12_3 C11_3 1_555 1_555
H6_3 C12_3 1_555 1_555
C13_3 C5_3 1_555 1_555
C14_3 C3_3 1_555 1_555
H7_3 C14_3 1_555 1_555
O4_3 C6_3 1_555 1_555
N2_3 Zn4 1_555 1_555
C15_3 N2_3 1_555 1_555
H8_3 C15_3 1_555 1_555
C16_3 C15_3 1_555 1_555
H9_3 C16_3 1_555 1_555
C17_3 C16_3 1_555 1_555
C18_3 C17_3 1_555 1_555
C19_3 C18_3 1_555 1_555
C20_3 C19_3 1_555 1_555
H10_3 C20_3 1_555 1_555
C21_3 C20_3 1_555 1_555
H11_3 C21_3 1_555 1_555
C22_3 C21_3 1_555 1_555
C23_3 C22_3 1_555 1_555
N3_3 C19_3 1_555 1_555
N4_3 Zn2_4 1_555 1_555
C24_3 C17_3 1_555 1_555
H12_3 C24_3 1_555 1_555
C25_3 N2_3 1_555 1_555
H13_3 C25_3 1_555 1_555
C26_3 H14_3 1_555 1_555
C27_3 C4_3 1_555 1_555
H15_3 C27_3 1_555 1_555
C28_3 C4_3 1_555 1_555
H16_3 C28_3 1_555 1_555
C29_3 C1_3 1_555 1_555
H17_3 C29_3 1_555 1_555
C30_3 C1_3 1_555 1_555
C31_3 C23_3 1_555 1_555
C32_3 N9_2 1_555 1_555
H18_3 C32_3 1_555 1_555
O5_3 Zn2_4 1_555 1_555
C33_3 H19_3 1_555 1_555
C34_3 C43_3 1_555 1_555
C39_3 C38_3 1_555 1_555
C43_3 C42_3 1_555 1_555
N7_3 Zn2_4 1_555 1_555
N8_3 Zn2_4 1_555 1_555
C47_3 C34_3 1_555 1_555
H27_3 C47_3 1_555 1_555
C49_3 C31_3 1_555 1_555
H29_3 C49_3 1_555 1_555
C50_3 C33_3 1_555 1_555
C51_3 N4_3 1_555 1_555
O10_3 Zn2_4 1_555 1_555
Zn6_2 O1_2 1_555 1_555
O12_2 Zn4 1_555 1_555
C7_3 C14_3 1_555 1_555
C8_3 C13_3 1_555 1_555
C12_3 C13_3 1_555 1_555
C18_3 C30_3 1_555 1_555
C22_3 N3_3 1_555 1_555
N4_3 C30_3 1_555 1_555
C24_3 C25_3 1_555 1_555
C26_3 C27_3 1_555 1_555
C28_3 C32_3 1_555 1_555
C29_3 C51_3 1_555 1_555
C31_3 N8_3 1_555 1_555
C33_3 C49_3 1_555 1_555
C38_3 C50_3 1_555 1_555
C39_3 N7_3 1_555 1_555
C42_3 N7_3 1_555 1_555
C43_3 C51_3 1_555 1_555
N8_3 C50_3 1_555 1_555
Zn5_2 O3_4 1_555 1_555
O3_4 C6_4 1_555 1_555
O4_4 C6_4 1_555 1_555
N2_4 Zn5_2 1_555 1_555
C15_4 N2_4 1_555 1_555
H8_4 C15_4 1_555 1_555
C16_4 C15_4 1_555 1_555
H9_4 C16_4 1_555 1_555
C17_4 C16_4 1_555 1_555
H10_4 C20_4 1_555 1_555
C24_4 C17_4 1_555 1_555
C25_4 N2_4 1_555 1_555
H16_4 C28_4 1_555 1_555
N10_2 Zn5_2 1_555 1_555
C24_4 C25_4 1_555 1_555
N1_2 C26_4 1_555 1_555
H11_4 C21_4 1_555 1_555
C26_4 H14_4 1_555 1_555
C32_4 N1_2 1_555 1_555
Zn6_2 N1_2 1_555 1_555
O11_2 C2_4 1_555 1_555
C2_4 C5_4 1_555 1_555
C3_4 H2_4 1_555 1_555
C5_4 C3_4 1_555 1_555
O2_4 C2_4 1_555 1_555
C7_4 C8_4 1_555 1_555
C8_4 C9_4 1_555 1_555
C10_4 C9_4 1_555 1_555
C11_4 C10_4 1_555 1_555
C12_4 C11_4 1_555 1_555
H6_4 C12_4 1_555 1_555
C13_4 C5_4 1_555 1_555
C14_4 C3_4 1_555 1_555
H7_4 C14_4 1_555 1_555
C7_4 C14_4 1_555 1_555
C8_4 C13_4 1_555 1_555
C12_4 C13_4 1_555 1_555
Zn2_5 N3_4 1_555 1_555
C1_4 H1_4 1_555 1_555
C19_4 C18_4 1_555 1_555
N3_4 C19_4 1_555 1_555
N4_4 Zn2_5 1_555 1_555
C29_4 C1_4 1_555 1_555
H17_4 C29_4 1_555 1_555
C30_4 C1_4 1_555 1_555
C34_4 C43_4 1_555 1_555
N10_2 C46_4 1_555 1_555
H23_4 C41_4 1_555 1_555
C42_4 C41_4 1_555 1_555
C43_4 C42_4 1_555 1_555
C46_4 H26_4 1_555 1_555
C47_4 C34_4 1_555 1_555
H27_4 C47_4 1_555 1_555
C51_4 N4_4 1_555 1_555
C52_4 N10_2 1_555 1_555
O12_2 C53_4 1_555 1_555
C53_4 C55_4 1_555 1_555
C54_4 H31_4 1_555 1_555
C55_4 C54_4 1_555 1_555
O7_4 C53_4 1_555 1_555
C58_4 C57_4 1_555 1_555
C59_4 C58_4 1_555 1_555
C60_4 C59_4 1_555 1_555
H33_3 C60_4 1_555 1_555
C61_4 C60_4 1_555 1_555
H34_3 C61_4 1_555 1_555
C62_4 C61_4 1_555 1_555
H35_4 C62_4 1_555 1_555
C63_4 C55_4 1_555 1_555
C64_4 C54_4 1_555 1_555
H36_4 C64_4 1_555 1_555
O10_4 Zn2_5 1_555 1_555
C18_4 C30_4 1_555 1_555
N4_4 C30_4 1_555 1_555
C29_4 C51_4 1_555 1_555
C43_4 C51_4 1_555 1_555
C46_4 C47_4 1_555 1_555
C57_4 C64_4 1_555 1_555
C58_4 C63_4 1_555 1_555
C62_4 C63_4 1_555 1_555
C4_4 C23_4 1_555 1_555
C23_4 C22_4 1_555 1_555
C27_4 C4_4 1_555 1_555
H15_4 C27_4 1_555 1_555
C31_4 C23_4 1_555 1_555
O5_4 Zn2_6 1_555 1_555
C33_4 H19_4 1_555 1_555
N6_4 C35_4 1_555 1_555
C35_4 H20_4 1_555 1_555
C36_4 C35_4 1_555 1_555
H21_4 C36_4 1_555 1_555
C37_4 C36_4 1_555 1_555
C38_4 C37_4 1_555 1_555
C39_4 C38_4 1_555 1_555
C40_4 C39_4 1_555 1_555
H22_4 C40_4 1_555 1_555
N7_4 Zn2_6 1_555 1_555
N8_4 Zn2_6 1_555 1_555
C44_4 C37_4 1_555 1_555
C45_4 N6_4 1_555 1_555
H28_4 C48_4 1_555 1_555
C49_4 C31_4 1_555 1_555
H29_4 C49_4 1_555 1_555
C50_4 C33_4 1_555 1_555
Zn6_2 N6_4 1_555 1_555
O8_4 Zn6_2 1_555 1_555
C56_4 O8_4 1_555 1_555
O9_4 C56_4 1_555 1_555
C31_4 N8_4 1_555 1_555
C33_4 C49_4 1_555 1_555
C38_4 C50_4 1_555 1_555
C39_4 N7_4 1_555 1_555
N8_4 C50_4 1_555 1_555
C44_4 C45_4 1_555 1_555

#END
