
###############################################################################
#
# This file contains modified crystal structure data generated from the
# MOF subset of the Cambridge Structural Database (CSD) v543 
# hosted by the Cambridge Crystallographic Data Centre (CCDC).
#
# This work is licensed under the Creative Commons
# Attribution-NonCommercial-ShareAlike 4.0 International License.
# To view a copy of this license, visit
# http://creativecommons.org/licenses/by-nc-sa/4.0/
# or send a letter to
# Creative Commons, PO Box 1866, Mountain View, CA 94042, USA.
#
# CIF created using the CSD Python API on 29 September 2022
# The structure has been converted into the P1 space group
# The structure has a 3D framework
# The original CSD entry XAVDEF is in the orthorhombic crystal system
# The framework has been calculated to contain at least 10.0% void space
# The void calculation uses a probe of radius 1.32A, grid spacing 0.4
# H atom positions have been added when not included in the experimental data
#
###############################################################################

data_XAVDEF
_chemical_formula_moiety         '(C96 H48 O58 V12)n'
_symmetry_cell_setting           triclinic
_symmetry_space_group_name_H-M   'P 1'
_symmetry_Int_Tables_number      1
_space_group_name_Hall           'P 1'
loop_
_symmetry_equiv_pos_site_id
_symmetry_equiv_pos_as_xyz
1 x,y,z
_cell_length_a                   20.4563(33)
_cell_length_b                   15.6609(19)
_cell_length_c                   14.4447(16)
_cell_angle_alpha                90
_cell_angle_beta                 90
_cell_angle_gamma                90
_cell_volume                     4627.56
loop_
_atom_site_label
_atom_site_type_symbol
_atom_site_fract_x
_atom_site_fract_y
_atom_site_fract_z
V2 V 0.6045(33) 0.754(6) 0.270(4)
O2 O 0.53896 0.74187 0.23578
C1 C 0.5051(15) 0.4360(9) 0.5643(11)
C2 C 0.4447(8) 0.4638(13) 0.5364(13)
C3 C 0.4396(6) 0.5278(13) 0.4721(14)
C4 C 0.5604(6) 0.4722(13) 0.5279(14)
C5 C 0.5553(8) 0.5362(13) 0.4636(13)
C6 C 0.4949(15) 0.5640(9) 0.4357(11)
C7 C 0.5106(31) 0.3660(20) 0.6347(23)
C8 C 0.4894(31) 0.6340(20) 0.3653(23)
O4 O 0.568(4) 0.3396(27) 0.6612(32)
O5 O 0.542(4) 0.6683(27) 0.3308(29)
O6 O 0.458(4) 0.3317(27) 0.6692(29)
O7 O 0.432(4) 0.6604(27) 0.3388(32)
C11 C 0.618(4) 0.5389(13) 0.0387(13)
C13 C 0.733(4) 0.5251(14) 0.0249(14)
C14 C 0.680(5) 0.5640(9) 0.0636(10)
C16 C 0.689(5) 0.6341(18) 0.1332(21)
O9 O 0.748(6) 0.6579(27) 0.1569(30)
O11 O 0.638(6) 0.6710(23) 0.1699(28)
V6 V 0.3955(33) 0.254(6) 0.730(4)
V7 V 0.432(4) 0.756(5) 0.235(6)
V8 V 0.568(4) 0.256(5) 0.765(6)
O17 O 0.69173 0.74186 0.297
O19 O 0.542(4) 0.8317(27) 0.3308(29)
O21 O 0.609(5) 0.8356(27) 0.1659(29)
H3 H 0.400753 0.435026 0.565333
H4 H 0.575506 0.569761 0.0694024
H6 H 0.599247 0.564974 0.434667
H9 H 0.608393 0.450118 0.550061
H11 H 0.391607 0.549882 0.449939
H12 H 0.782038 0.545066 0.0447063
V1 V 0.7205(23) 0.258(6) 0.764(4)
O1 O 0.645(6) 0.271(8) 0.690(6)
O3 O 0.80827 0.24186 0.797
C9 C 0.664(4) 0.4360(9) 0.9364(10)
C10 C 0.610(4) 0.4749(14) 0.9751(14)
C12 C 0.725(4) 0.4611(13) 0.9613(13)
C15 C 0.654(5) 0.3659(18) 0.8668(21)
O8 O 0.705(6) 0.3290(23) 0.8301(28)
O10 O 0.596(5) 0.3421(27) 0.8431(30)
C17 C 0.836(4) 0.4360(9) 0.5646(10)
C18 C 0.778(4) 0.4678(15) 0.5324(16)
C19 C 0.778(4) 0.5319(15) 0.4678(15)
C20 C 0.894(4) 0.4681(15) 0.5322(15)
C21 C 0.894(4) 0.5322(15) 0.4676(16)
C22 C 0.836(4) 0.5640(9) 0.4354(10)
C23 C 0.836(5) 0.3659(18) 0.6354(21)
C24 C 0.836(6) 0.6341(18) 0.3646(21)
O12 O 0.891(5) 0.3356(27) 0.6659(29)
O13 O 0.891(6) 0.6646(26) 0.3338(30)
O14 O 0.781(5) 0.3354(26) 0.6662(30)
O15 O 0.780(6) 0.6644(27) 0.3341(29)
V4 V 0.7795(23) 0.758(6) 0.264(4)
V5 V 0.8955(33) 0.254(6) 0.770(4)
V9 V 0.932(4) 0.756(5) 0.265(6)
O16 O 0.46104 0.24187 0.76422
O20 O 0.568(4) 0.1604(27) 0.6612(32)
O22 O 0.609(6) 0.1646(26) 0.8338(30)
O23 O 0.720(6) 0.1644(27) 0.8341(29)
H1 H 0.731881 0.557358 0.442183
H2 H 0.940073 0.557771 0.44195
H5 H 0.767588 0.430359 0.930716
H7 H 0.561055 0.454723 0.955083
H8 H 0.731927 0.442229 0.55805
H10 H 0.940119 0.442642 0.557817
C3_2 C 0.0604(6) 0.0278(13) 0.9721(14)
C6_2 C 0.0051(15) 0.0640(9) 0.9357(11)
C8_2 C 0.0106(31) 0.1340(20) 0.8653(23)
O7_2 O 0.068(4) 0.1604(27) 0.8388(32)
V7_2 V 0.068(4) 0.256(5) 0.735(6)
H11_2 H 0.108393 0.0498818 0.949939
C2_2 C 0.0553(8) 0.9638(13) 0.0364(13)
O6_2 O 0.042(4) 0.8317(27) 0.1692(29)
V6_2 V 0.1045(33) 0.754(6) 0.230(4)
H3_2 H 0.0992469 0.935026 0.0653333
O16_2 O 0.03896 0.74187 0.26422
O2_2 O 0.96104 0.24187 0.73578
C5_2 C 0.9447(8) 0.0362(13) 0.9636(13)
O5_2 O 0.958(4) 0.1683(27) 0.8308(29)
C11_2 C 0.882(4) 0.0389(13) 0.5387(13)
C13_2 C 0.767(4) 0.0251(14) 0.5249(14)
C14_2 C 0.820(5) 0.0640(9) 0.5636(10)
C16_2 C 0.811(5) 0.1341(18) 0.6332(21)
O9_2 O 0.752(6) 0.1579(27) 0.6569(30)
O11_2 O 0.862(6) 0.1710(23) 0.6699(28)
O19_2 O 0.958(4) 0.3317(27) 0.8308(29)
H4_2 H 0.924494 0.0697614 0.569402
H6_2 H 0.900753 0.0649743 0.934667
H12_2 H 0.717962 0.0450657 0.544706
C19_2 C 0.722(4) 0.0319(15) 0.9678(15)
C21_2 C 0.606(4) 0.0322(15) 0.9676(16)
C22_2 C 0.664(4) 0.0640(9) 0.9354(10)
C24_2 C 0.664(6) 0.1341(18) 0.8646(21)
H1_2 H 0.768119 0.0573581 0.942183
H2_2 H 0.559927 0.057771 0.94195
C1_2 C 0.9949(15) 0.9360(9) 0.0643(11)
C4_2 C 0.9396(6) 0.9722(13) 0.0279(14)
C7_2 C 0.9894(31) 0.8660(20) 0.1347(23)
O4_2 O 0.932(4) 0.8396(27) 0.1612(32)
H9_2 H 0.891607 0.950118 0.0500612
O1_2 O 0.855(6) 0.771(8) 0.190(6)
C9_2 C 0.836(4) 0.9360(9) 0.4364(10)
C10_2 C 0.890(4) 0.9749(14) 0.4751(14)
C12_2 C 0.775(4) 0.9611(13) 0.4613(13)
C15_2 C 0.846(5) 0.8659(18) 0.3668(21)
O8_2 O 0.795(6) 0.8290(23) 0.3301(28)
O10_2 O 0.904(5) 0.8421(27) 0.3431(30)
C17_2 C 0.664(4) 0.9360(9) 0.0646(10)
C18_2 C 0.722(4) 0.9678(15) 0.0324(16)
C20_2 C 0.606(4) 0.9681(15) 0.0322(15)
C23_2 C 0.664(5) 0.8659(18) 0.1354(21)
O14_2 O 0.719(5) 0.8354(26) 0.1662(30)
O20_2 O 0.932(4) 0.6604(27) 0.1612(32)
H5_2 H 0.732412 0.930359 0.430716
H7_2 H 0.938945 0.954723 0.455083
H8_2 H 0.768073 0.942229 0.0580497
H10_2 H 0.559881 0.942642 0.0578173
C19_3 C 0.222(4) 0.0319(15) 0.5322(15)
C21_3 C 0.106(4) 0.0322(15) 0.5324(16)
C22_3 C 0.164(4) 0.0640(9) 0.5646(10)
C24_3 C 0.164(6) 0.1341(18) 0.6354(21)
O13_2 O 0.109(6) 0.1646(26) 0.6662(30)
O15_2 O 0.220(6) 0.1644(27) 0.6659(29)
V4_2 V 0.2205(23) 0.258(6) 0.736(4)
H1_3 H 0.268119 0.0573581 0.557817
H2_3 H 0.0599269 0.057771 0.55805
C3_3 C 0.5604(6) 0.0278(13) 0.5279(14)
C5_3 C 0.4447(8) 0.0362(13) 0.5364(13)
C6_3 C 0.5051(15) 0.0640(9) 0.5643(11)
C8_3 C 0.5106(31) 0.1340(20) 0.6347(23)
O5_3 O 0.458(4) 0.1683(27) 0.6692(29)
C11_3 C 0.382(4) 0.0389(13) 0.9613(13)
C13_3 C 0.267(4) 0.0251(14) 0.9751(14)
C14_3 C 0.320(5) 0.0640(9) 0.9364(10)
C16_3 C 0.311(5) 0.1341(18) 0.8668(21)
O9_3 O 0.252(6) 0.1579(27) 0.8431(30)
O11_3 O 0.362(6) 0.1710(23) 0.8301(28)
O17_2 O 0.30827 0.24186 0.703
O21_2 O 0.391(5) 0.3356(27) 0.8341(29)
H4_3 H 0.424494 0.0697614 0.930598
H6_3 H 0.400753 0.0649743 0.565333
H11_3 H 0.608393 0.0498818 0.550061
H12_3 H 0.217962 0.0450657 0.955294
V1_2 V 0.2795(23) 0.758(6) 0.236(4)
O1_3 O 0.355(6) 0.771(8) 0.310(6)
O3_2 O 0.19173 0.74186 0.203
C9_3 C 0.336(4) 0.9360(9) 0.0636(10)
C10_3 C 0.390(4) 0.9749(14) 0.0249(14)
C12_3 C 0.275(4) 0.9611(13) 0.0387(13)
C15_3 C 0.346(5) 0.8659(18) 0.1332(21)
O8_3 O 0.295(6) 0.8290(23) 0.1699(28)
O10_3 O 0.404(5) 0.8421(27) 0.1569(30)
C17_3 C 0.164(4) 0.9360(9) 0.4354(10)
C18_3 C 0.222(4) 0.9678(15) 0.4676(16)
C20_3 C 0.106(4) 0.9681(15) 0.4678(15)
C23_3 C 0.164(5) 0.8659(18) 0.3646(21)
O12_2 O 0.109(5) 0.8356(27) 0.3341(29)
O14_3 O 0.219(5) 0.8354(26) 0.3338(30)
O18 O 0.432(4) 0.8396(27) 0.3388(32)
O22_2 O 0.391(6) 0.6646(26) 0.1662(30)
O23_2 O 0.280(6) 0.6644(27) 0.1659(29)
H5_3 H 0.232412 0.930359 0.0692839
H7_3 H 0.438945 0.954723 0.0449174
H8_3 H 0.268073 0.942229 0.44195
H10_3 H 0.0598813 0.942642 0.442183
C1_3 C 0.4949(15) 0.9360(9) 0.4357(11)
C2_3 C 0.5553(8) 0.9638(13) 0.4636(13)
C4_3 C 0.4396(6) 0.9722(13) 0.4721(14)
C7_3 C 0.4894(31) 0.8660(20) 0.3653(23)
H3_3 H 0.599247 0.935026 0.434667
H9_3 H 0.391607 0.950118 0.449939
C19_4 C 0.278(4) 0.5319(15) 0.0322(15)
C21_4 C 0.394(4) 0.5322(15) 0.0324(16)
C22_4 C 0.336(4) 0.5640(9) 0.0646(10)
C24_4 C 0.336(6) 0.6341(18) 0.1354(21)
H1_4 H 0.231881 0.557358 0.0578173
H2_4 H 0.440073 0.557771 0.0580497
O1_4 O 0.145(6) 0.271(8) 0.810(6)
C5_4 C 0.0553(8) 0.5362(13) 0.0364(13)
O5_4 O 0.042(4) 0.6683(27) 0.1692(29)
C9_4 C 0.164(4) 0.4360(9) 0.5636(10)
C10_4 C 0.110(4) 0.4749(14) 0.5249(14)
C11_4 C 0.118(4) 0.5389(13) 0.4613(13)
C12_4 C 0.225(4) 0.4611(13) 0.5387(13)
C13_4 C 0.233(4) 0.5251(14) 0.4751(14)
C14_4 C 0.180(5) 0.5640(9) 0.4364(10)
C15_4 C 0.154(5) 0.3659(18) 0.6332(21)
C16_4 C 0.189(5) 0.6341(18) 0.3668(21)
O8_4 O 0.205(6) 0.3290(23) 0.6699(28)
O9_4 O 0.248(6) 0.6579(27) 0.3431(30)
O10_4 O 0.096(5) 0.3421(27) 0.6569(30)
O11_4 O 0.138(6) 0.6710(23) 0.3301(28)
C17_4 C 0.336(4) 0.4360(9) 0.9354(10)
C18_4 C 0.278(4) 0.4678(15) 0.9676(16)
C20_4 C 0.394(4) 0.4681(15) 0.9678(15)
C23_4 C 0.336(5) 0.3659(18) 0.8646(21)
O14_4 O 0.281(5) 0.3354(26) 0.8338(30)
O18_2 O 0.068(4) 0.3396(27) 0.8388(32)
H4_4 H 0.0755056 0.569761 0.430598
H5_4 H 0.267588 0.430359 0.569284
H6_4 H 0.0992469 0.564974 0.0653333
H7_4 H 0.0610552 0.454723 0.544917
H8_4 H 0.231927 0.442229 0.94195
H10_4 H 0.440119 0.442642 0.942183
H12_4 H 0.282038 0.545066 0.455294
C1_4 C 0.0051(15) 0.4360(9) 0.9357(11)
C4_4 C 0.0604(6) 0.4722(13) 0.9721(14)
C7_4 C 0.0106(31) 0.3660(20) 0.8653(23)
H9_4 H 0.108393 0.450118 0.949939
C3_4 C 0.9396(6) 0.5278(13) 0.0279(14)
C6_4 C 0.9949(15) 0.5640(9) 0.0643(11)
C8_4 C 0.9894(31) 0.6340(20) 0.1347(23)
H11_4 H 0.891607 0.549882 0.0500612
C2_4 C 0.9447(8) 0.4638(13) 0.9636(13)
H3_4 H 0.900753 0.435026 0.934667
loop_
_geom_bond_atom_site_label_1
_geom_bond_atom_site_label_2
_geom_bond_site_symmetry_1
_geom_bond_site_symmetry_2
V2 O2 1_555 1_555
O2 V7 1_555 1_555
C1 C2 1_555 1_555
C2 C3 1_555 1_555
C3 C6 1_555 1_555
C4 C1 1_555 1_555
C5 C4 1_555 1_555
C6 C5 1_555 1_555
C7 C1 1_555 1_555
C8 C6 1_555 1_555
O4 C7 1_555 1_555
O5 V2 1_555 1_555
O6 C7 1_555 1_555
O7 C8 1_555 1_555
C11 C14 1_555 1_555
C14 C13 1_555 1_555
C16 C14 1_555 1_555
O9 C16 1_555 1_555
O11 V2 1_555 1_555
V6 O6 1_555 1_555
V7 O7 1_555 1_555
V8 O4 1_555 1_555
O17 V2 1_555 1_555
O19 V2 1_555 1_555
O21 V2 1_555 1_555
C8 O5 1_555 1_555
C16 O11 1_555 1_555
C2 H3 1_555 1_555
C11 H4 1_555 1_555
C5 H6 1_555 1_555
C4 H9 1_555 1_555
C3 H11 1_555 1_555
C13 H12 1_555 1_555
V1 O1 1_555 1_555
V8 O1 1_555 1_555
O3 V1 1_555 1_555
C9 C10 1_555 1_555
C12 C9 1_555 1_555
C15 C9 1_555 1_555
O8 V1 1_555 1_555
O10 V8 1_555 1_555
C17 C18 1_555 1_555
C18 C19 1_555 1_555
C19 C22 1_555 1_555
C20 C17 1_555 1_555
C21 C20 1_555 1_555
C22 C21 1_555 1_555
C23 C17 1_555 1_555
C24 C22 1_555 1_555
O12 C23 1_555 1_555
O13 C24 1_555 1_555
O14 V1 1_555 1_555
O15 C24 1_555 1_555
V4 O15 1_555 1_555
V5 O3 1_555 1_555
V9 O13 1_555 1_555
O16 V8 1_555 1_555
O20 V8 1_555 1_555
O22 V8 1_555 1_555
O23 V1 1_555 1_555
C15 O8 1_555 1_555
C15 O10 1_555 1_555
C23 O14 1_555 1_555
O12 V5 1_555 1_555
C19 H1 1_555 1_555
C21 H2 1_555 1_555
C12 H5 1_555 1_555
C10 H7 1_555 1_555
C18 H8 1_555 1_555
C20 H10 1_555 1_555
C3_2 C6_2 1_555 1_555
C8_2 C6_2 1_555 1_555
O7_2 C8_2 1_555 1_555
V7_2 O7_2 1_555 1_555
C3_2 H11_2 1_555 1_555
V6_2 O6_2 1_555 1_555
C2_2 H3_2 1_555 1_555
V5 O2_2 1_555 1_555
O5_2 V5 1_555 1_555
C11_2 C14_2 1_555 1_555
C14_2 C13_2 1_555 1_555
C16_2 C14_2 1_555 1_555
O9_2 C16_2 1_555 1_555
O11_2 V5 1_555 1_555
O19_2 V5 1_555 1_555
C16_2 O11_2 1_555 1_555
C11_2 H4_2 1_555 1_555
C5_2 H6_2 1_555 1_555
C13_2 H12_2 1_555 1_555
C19_2 C22_2 1_555 1_555
C22_2 C21_2 1_555 1_555
C24_2 C22_2 1_555 1_555
O22 C24_2 1_555 1_555
O23 C24_2 1_555 1_555
C19_2 H1_2 1_555 1_555
C21_2 H2_2 1_555 1_555
C4_2 C1_2 1_555 1_555
C7_2 C1_2 1_555 1_555
O4_2 C7_2 1_555 1_555
V9 O4_2 1_555 1_555
C4_2 H9_2 1_555 1_555
V4 O1_2 1_555 1_555
V9 O1_2 1_555 1_555
O17 V4 1_555 1_555
C9_2 C10_2 1_555 1_555
C12_2 C9_2 1_555 1_555
C15_2 C9_2 1_555 1_555
O8_2 V4 1_555 1_555
O10_2 V9 1_555 1_555
C17_2 C18_2 1_555 1_555
C20_2 C17_2 1_555 1_555
C23_2 C17_2 1_555 1_555
O21 C23_2 1_555 1_555
O14_2 V4 1_555 1_555
O20_2 V9 1_555 1_555
C15_2 O8_2 1_555 1_555
C15_2 O10_2 1_555 1_555
C23_2 O14_2 1_555 1_555
C12_2 H5_2 1_555 1_555
C10_2 H7_2 1_555 1_555
C18_2 H8_2 1_555 1_555
C20_2 H10_2 1_555 1_555
C19_3 C22_3 1_555 1_555
C22_3 C21_3 1_555 1_555
C24_3 C22_3 1_555 1_555
O13_2 C24_3 1_555 1_555
O15_2 C24_3 1_555 1_555
V4_2 O15_2 1_555 1_555
V7_2 O13_2 1_555 1_555
C19_3 H1_3 1_555 1_555
C21_3 H2_3 1_555 1_555
V6 O16 1_555 1_555
C3_3 C6_3 1_555 1_555
C6_3 C5_3 1_555 1_555
C8_3 C6_3 1_555 1_555
O5_3 V6 1_555 1_555
O20 C8_3 1_555 1_555
C11_3 C14_3 1_555 1_555
C14_3 C13_3 1_555 1_555
C16_3 C14_3 1_555 1_555
O9_3 C16_3 1_555 1_555
O11_3 V6 1_555 1_555
O17_2 V6 1_555 1_555
O21_2 V6 1_555 1_555
C8_3 O5_3 1_555 1_555
C16_3 O11_3 1_555 1_555
C11_3 H4_3 1_555 1_555
C5_3 H6_3 1_555 1_555
C3_3 H11_3 1_555 1_555
C13_3 H12_3 1_555 1_555
V1_2 O1_3 1_555 1_555
V7 O1_3 1_555 1_555
O3_2 V1_2 1_555 1_555
C9_3 C10_3 1_555 1_555
C12_3 C9_3 1_555 1_555
C15_3 C9_3 1_555 1_555
O8_3 V1_2 1_555 1_555
O10_3 V7 1_555 1_555
C17_3 C18_3 1_555 1_555
C20_3 C17_3 1_555 1_555
C23_3 C17_3 1_555 1_555
O12_2 C23_3 1_555 1_555
O14_3 V1_2 1_555 1_555
V6_2 O3_2 1_555 1_555
O18 V7 1_555 1_555
O22_2 V7 1_555 1_555
O23_2 V1_2 1_555 1_555
C15_3 O8_3 1_555 1_555
C15_3 O10_3 1_555 1_555
C23_3 O14_3 1_555 1_555
O12_2 V6_2 1_555 1_555
C12_3 H5_3 1_555 1_555
C10_3 H7_3 1_555 1_555
C18_3 H8_3 1_555 1_555
C20_3 H10_3 1_555 1_555
C1_3 C2_3 1_555 1_555
C4_3 C1_3 1_555 1_555
C7_3 C1_3 1_555 1_555
O18 C7_3 1_555 1_555
O19 C7_3 1_555 1_555
C2_3 H3_3 1_555 1_555
C4_3 H9_3 1_555 1_555
C19_4 C22_4 1_555 1_555
C22_4 C21_4 1_555 1_555
C24_4 C22_4 1_555 1_555
O22_2 C24_4 1_555 1_555
O23_2 C24_4 1_555 1_555
C19_4 H1_4 1_555 1_555
C21_4 H2_4 1_555 1_555
V4_2 O1_4 1_555 1_555
V6_2 O16_2 1_555 1_555
V7_2 O1_4 1_555 1_555
O17_2 V4_2 1_555 1_555
O5_4 V6_2 1_555 1_555
C9_4 C10_4 1_555 1_555
C10_4 C11_4 1_555 1_555
C11_4 C14_4 1_555 1_555
C12_4 C9_4 1_555 1_555
C13_4 C12_4 1_555 1_555
C14_4 C13_4 1_555 1_555
C15_4 C9_4 1_555 1_555
C16_4 C14_4 1_555 1_555
O8_4 V4_2 1_555 1_555
O9_4 C16_4 1_555 1_555
O10_4 V7_2 1_555 1_555
O11_4 V6_2 1_555 1_555
C17_4 C18_4 1_555 1_555
C20_4 C17_4 1_555 1_555
C23_4 C17_4 1_555 1_555
O21_2 C23_4 1_555 1_555
O14_4 V4_2 1_555 1_555
O18_2 V7_2 1_555 1_555
C15_4 O8_4 1_555 1_555
C15_4 O10_4 1_555 1_555
C16_4 O11_4 1_555 1_555
C23_4 O14_4 1_555 1_555
C11_4 H4_4 1_555 1_555
C12_4 H5_4 1_555 1_555
C5_4 H6_4 1_555 1_555
C10_4 H7_4 1_555 1_555
C18_4 H8_4 1_555 1_555
C20_4 H10_4 1_555 1_555
C13_4 H12_4 1_555 1_555
C4_4 C1_4 1_555 1_555
C7_4 C1_4 1_555 1_555
O18_2 C7_4 1_555 1_555
C4_4 H9_4 1_555 1_555
C3_4 C6_4 1_555 1_555
C8_4 C6_4 1_555 1_555
O20_2 C8_4 1_555 1_555
C3_4 H11_4 1_555 1_555
C2_4 H3_4 1_555 1_555

#END
