
###############################################################################
#
# This file contains modified crystal structure data generated from the
# MOF subset of the Cambridge Structural Database (CSD) v543 
# hosted by the Cambridge Crystallographic Data Centre (CCDC).
#
# This work is licensed under the Creative Commons
# Attribution-NonCommercial-ShareAlike 4.0 International License.
# To view a copy of this license, visit
# http://creativecommons.org/licenses/by-nc-sa/4.0/
# or send a letter to
# Creative Commons, PO Box 1866, Mountain View, CA 94042, USA.
#
# CIF created using the CSD Python API on 29 September 2022
# The structure has been converted into the P1 space group
# The structure has a 3D framework
# The original CSD entry XAWDOR is in the monoclinic crystal system
# The framework has been calculated to contain at least 10.0% void space
# The void calculation uses a probe of radius 1.32A, grid spacing 0.4
#
###############################################################################

data_XAWDOR
_chemical_formula_moiety         '(C344 H232 N24 O104 Zn24)n'
_symmetry_cell_setting           triclinic
_symmetry_space_group_name_H-M   'P 1'
_symmetry_Int_Tables_number      1
_space_group_name_Hall           'P 1'
loop_
_symmetry_equiv_pos_site_id
_symmetry_equiv_pos_as_xyz
1 x,y,z
_cell_length_a                   24.8170(10)
_cell_length_b                   22.64(4)
_cell_length_c                   26.737(8)
_cell_angle_alpha                90
_cell_angle_beta                 91.937(7)
_cell_angle_gamma                90
_cell_volume                     15013.8
loop_
_atom_site_label
_atom_site_type_symbol
_atom_site_fract_x
_atom_site_fract_y
_atom_site_fract_z
C30 C 0.0207(3) 0.1697(4) 0.3841(4)
O11 O 0.0365(2) 0.1955(4) 0.3472(3)
O12 O 0.0525(2) 0.1546(3) 0.4198(3)
Zn9 Zn 0.12296(3) 0.17666(5) 0.38663(3)
C10 C 0.8056(3) 0.3815(4) 0.0165(3)
H4 H 0.7700 0.3706 0.0211
C12 C 0.9107(3) 0.4112(4) 0.0035(4)
C13 C 0.8990(4) 0.3597(4) 0.0284(4)
H7 H 0.9264 0.3351 0.0406
C14 C 0.8464(3) 0.3459(4) 0.0346(3)
C15 C 0.8338(3) 0.2883(4) 0.0604(3)
C16 C 0.7979(3) 0.2169(4) 0.1950(3)
C17 C 0.7924(3) 0.2206(4) 0.2498(3)
C18 C 0.7463(4) 0.2445(5) 0.2683(3)
H8 H 0.7194 0.2597 0.2470
C19 C 0.8318(3) 0.2008(4) 0.2823(3)
H9 H 0.8638 0.1875 0.2692
C20 C 0.7411(3) 0.2454(4) 0.3189(3)
H10 H 0.7093 0.2598 0.3317
C21 C 0.7809(3) 0.2258(4) 0.3517(3)
C22 C 0.8272(3) 0.1993(4) 0.3329(3)
C23 C 0.7698(3) 0.2332(4) 0.4069(3)
C24 C 0.8690(3) 0.1697(3) 0.3664(3)
C25 C 0.8557(3) 0.1306(4) 0.4015(3)
H11 H 0.8194 0.1248 0.4074
C26 C 0.8931(4) 0.0987(5) 0.4291(4)
H12 H 0.8830 0.0678 0.4496
C27 C 0.9477(3) 0.1152(4) 0.4249(3)
H13 H 0.9737 0.0977 0.4459
C28 C 0.9233(3) 0.1845(4) 0.3608(3)
H14 H 0.9329 0.2129 0.3376
C29 C 0.9633(3) 0.1560(4) 0.3906(3)
C31 C 0.6487(3) 0.2708(4) 0.0496(3)
H15 H 0.6728 0.2942 0.0325
C32 C 0.6341(4) 0.2009(6) 0.1074(4)
H16 H 0.6484 0.1749 0.1313
C33 C 0.5929(3) 0.2760(4) 0.0387(3)
H17 H 0.5801 0.3043 0.0160
C34 C 0.5773(4) 0.2026(5) 0.0992(4)
H18 H 0.5544 0.1800 0.1183
C35 C 0.5577(3) 0.2394(4) 0.0617(3)
C36 C 0.4979(3) 0.2406(4) 0.0507(3)
C37 C 0.4789(4) 0.2596(5) 0.0048(4)
C38 C 0.4618(4) 0.2279(6) 0.0850(5)
H20 H 0.4736 0.2209 0.1179
C40 C 0.4078(4) 0.2250(4) 0.0729(4)
H22 H 0.3842 0.2120 0.0968
N1 N 0.6668(2) 0.2337(3) 0.0833(3)
N2 N 0.3882(3) 0.2403(3) 0.0275(3)
O5 O 0.7822(2) 0.2734(2) 0.0584(2)
O6 O 0.8702(2) 0.2587(3) 0.0812(2)
O7 O 0.8411(2) 0.1977(4) 0.1779(2)
O8 O 0.7571(3) 0.2314(3) 0.1681(2)
O9 O 0.8093(2) 0.2462(3) 0.43632(19)
O10 O 0.7216(2) 0.2284(3) 0.4198(2)
O13 O 0.8798(4) 0.0893(4) 0.1505(4)
C41 C 0.8964(6) 0.0849(7) 0.1965(5)
H23 H 0.9189 0.1145 0.2093
C42 C 0.9074(7) 0.0403(8) 0.2779(5)
H24 H 0.9303 0.0741 0.2832
H25 H 0.9282 0.0049 0.2826
H26 H 0.8790 0.0411 0.3014
C43 C 0.8270(6) 0.0229(8) 0.2142(6)
H27 H 0.8146 0.0416 0.1837
H28 H 0.8044 0.0343 0.2409
N3 N 0.8838(5) 0.0417(6) 0.2264(5)
Zn2 Zn 0.74647(3) 0.21820(4) 0.09747(3)
Zn3 Zn 0.87704(3) 0.17666(5) 0.11337(3)
O14 O 0.7100(2) 0.8465(2) 0.0014(2)
O15 O 0.8299(2) 0.1325(3) 0.0608(2)
O16 O 0.7461(2) 0.1319(3) 0.0855(2)
O17 O 0.6907(2) 0.7462(3) 0.06368(19)
O19 O 0.9635(2) 0.1955(4) 0.1528(3)
O20 O 0.9475(2) 0.1546(3) 0.0802(3)
Zn4 Zn 0.80777(3) 0.25914(4) 0.51132(3)
Zn5 Zn 0.30777(3) 0.24086(4) 0.01132(3)
Zn6 Zn 0.69223(3) 0.24086(4) 0.48868(3)
Zn7 Zn 0.80777(3) 0.74086(4) 0.01132(3)
C1 C 0.7443(3) 0.6376(4) 0.9857(3)
C2 C 0.7366(3) 0.5750(4) 0.9738(3)
C3 C 0.6876(3) 0.5521(4) 0.9521(4)
H1 H 0.6594 0.5778 0.9440
C4 C 0.6815(3) 0.4928(4) 0.9429(4)
H2 H 0.6486 0.4785 0.9302
C5 C 0.7233(3) 0.4542(4) 0.9522(3)
C6 C 0.7731(3) 0.4745(4) 0.9750(3)
C7 C 0.7780(3) 0.5329(4) 0.9845(3)
H3 H 0.8103 0.5464 0.9988
C8 C 0.7153(3) 0.3907(4) 0.9342(3)
C9 C 0.8165(3) 0.4345(4) 0.9908(3)
C11 C 0.8705(3) 0.4467(5) 0.9838(4)
H5 H 0.8796 0.4798 0.9654
H6 H 0.9465 0.4221 0.9999
H19 H 0.5023 0.2698 0.9798
C39 C 0.4219(5) 0.2631(6) 0.9965(5)
H21 H 0.4084 0.2823 0.9680
O1 O 0.7042(2) 0.6715(3) 0.9798(2)
O2 O 0.7900(2) 0.6535(2) 0.9986(2)
O3 O 0.6701(2) 0.3675(3) 0.9392(2)
O4 O 0.7539(2) 0.3681(3) 0.9145(2)
Zn1 Zn 0.69223(3) 0.75914(4) 0.98868(3)
N4 N 0.6118(3) 0.7597(3) 0.9725(3)
O18 O 0.7216(2) 0.7716(3) 0.9198(2)
Zn8 Zn 0.75353(3) 0.28180(4) 0.90253(3)
Zn10 Zn 0.62296(3) 0.32334(5) 0.88663(3)
C1_2 C 0.2557(3) 0.6376(4) 0.5143(3)
C2_2 C 0.2634(3) 0.5750(4) 0.5262(3)
C3_2 C 0.3124(3) 0.5521(4) 0.5479(4)
H1_2 H 0.3406 0.5778 0.5560
C4_2 C 0.3185(3) 0.4928(4) 0.5571(4)
H2_2 H 0.3514 0.4785 0.5698
C5_2 C 0.2767(3) 0.4542(4) 0.5478(3)
C6_2 C 0.2269(3) 0.4745(4) 0.5250(3)
C7_2 C 0.2220(3) 0.5329(4) 0.5155(3)
H3_2 H 0.1897 0.5464 0.5012
C8_2 C 0.2847(3) 0.3907(4) 0.5658(3)
C9_2 C 0.1835(3) 0.4345(4) 0.5092(3)
C10_2 C 0.1944(3) 0.3815(4) 0.4835(3)
H4_2 H 0.2300 0.3706 0.4789
C11_2 C 0.1295(3) 0.4467(5) 0.5162(4)
H5_2 H 0.1204 0.4798 0.5346
C12_2 C 0.0893(3) 0.4112(4) 0.4965(4)
H6_2 H 0.0535 0.4221 0.5001
C13_2 C 0.1010(4) 0.3597(4) 0.4716(4)
H7_2 H 0.0736 0.3351 0.4594
C14_2 C 0.1536(3) 0.3459(4) 0.4654(3)
C15_2 C 0.1662(3) 0.2883(4) 0.4396(3)
C16_2 C 0.2021(3) 0.2169(4) 0.3050(3)
C17_2 C 0.2076(3) 0.2206(4) 0.2502(3)
C18_2 C 0.2537(4) 0.2445(5) 0.2317(3)
H8_2 H 0.2806 0.2597 0.2530
C19_2 C 0.1682(3) 0.2008(4) 0.2177(3)
H9_2 H 0.1362 0.1875 0.2308
C20_2 C 0.2589(3) 0.2454(4) 0.1811(3)
H10_2 H 0.2907 0.2598 0.1683
C21_2 C 0.2191(3) 0.2258(4) 0.1483(3)
C22_2 C 0.1728(3) 0.1993(4) 0.1671(3)
C23_2 C 0.2302(3) 0.2332(4) 0.0931(3)
C24_2 C 0.1310(3) 0.1697(3) 0.1336(3)
C25_2 C 0.1443(3) 0.1306(4) 0.0985(3)
H11_2 H 0.1806 0.1248 0.0926
C26_2 C 0.1069(4) 0.0987(5) 0.0709(4)
H12_2 H 0.1170 0.0678 0.0504
C27_2 C 0.0523(3) 0.1152(4) 0.0751(3)
H13_2 H 0.0263 0.0977 0.0541
C28_2 C 0.0767(3) 0.1845(4) 0.1392(3)
H14_2 H 0.0671 0.2129 0.1624
C29_2 C 0.0367(3) 0.1560(4) 0.1094(3)
C31_2 C 0.3513(3) 0.2708(4) 0.4504(3)
H15_2 H 0.3272 0.2942 0.4675
C32_2 C 0.3659(4) 0.2009(6) 0.3926(4)
H16_2 H 0.3516 0.1749 0.3687
C33_2 C 0.4071(3) 0.2760(4) 0.4613(3)
H17_2 H 0.4199 0.3043 0.4840
C34_2 C 0.4227(4) 0.2026(5) 0.4008(4)
H18_2 H 0.4456 0.1800 0.3817
C35_2 C 0.4423(3) 0.2394(4) 0.4383(3)
C36_2 C 0.5021(3) 0.2406(4) 0.4493(3)
C37_2 C 0.5211(4) 0.2596(5) 0.4952(4)
H19_2 H 0.4977 0.2698 0.5202
C38_2 C 0.5382(4) 0.2279(6) 0.4150(5)
H20_2 H 0.5264 0.2209 0.3821
C39_2 C 0.5781(5) 0.2631(6) 0.5035(5)
H21_2 H 0.5916 0.2823 0.5320
C40_2 C 0.5922(4) 0.2250(4) 0.4271(4)
H22_2 H 0.6158 0.2120 0.4032
N1_2 N 0.3332(2) 0.2337(3) 0.4167(3)
N2_2 N 0.6118(3) 0.2403(3) 0.4725(3)
O1_2 O 0.2958(2) 0.6715(3) 0.5202(2)
O2_2 O 0.2100(2) 0.6535(2) 0.5014(2)
O3_2 O 0.3299(2) 0.3675(3) 0.5608(2)
O4_2 O 0.2461(2) 0.3681(3) 0.5855(2)
O5_2 O 0.2178(2) 0.2734(2) 0.4416(2)
O6_2 O 0.1298(2) 0.2587(3) 0.4188(2)
O7_2 O 0.1589(2) 0.1977(4) 0.3221(2)
O8_2 O 0.2429(3) 0.2314(3) 0.3319(2)
O9_2 O 0.1907(2) 0.2462(3) 0.06368(19)
O10_2 O 0.2784(2) 0.2284(3) 0.0802(2)
O13_2 O 0.1202(4) 0.0893(4) 0.3495(4)
C41_2 C 0.1036(6) 0.0849(7) 0.3035(5)
H23_2 H 0.0811 0.1145 0.2907
C42_2 C 0.0926(7) 0.0403(8) 0.2221(5)
H24_2 H 0.0697 0.0741 0.2168
H25_2 H 0.0718 0.0049 0.2174
H26_2 H 0.1210 0.0411 0.1986
C43_2 C 0.1730(6) 0.0229(8) 0.2858(6)
H27_2 H 0.1854 0.0416 0.3163
H28_2 H 0.1956 0.0343 0.2591
N3_2 N 0.1162(5) 0.0417(6) 0.2736(5)
Zn1_2 Zn 0.30777(3) 0.75914(4) 0.51132(3)
Zn2_2 Zn 0.25353(3) 0.21820(4) 0.40253(3)
N4_2 N 0.3882(3) 0.7597(3) 0.5275(3)
O14_2 O 0.2900(2) 0.8465(2) 0.4986(2)
O15_2 O 0.1701(2) 0.1325(3) 0.4392(2)
O16_2 O 0.2539(2) 0.1319(3) 0.4145(2)
O17_2 O 0.3093(2) 0.7462(3) 0.43632(19)
O18_2 O 0.2784(2) 0.7716(3) 0.5802(2)
Zn7_2 Zn 0.19223(3) 0.74086(4) 0.48868(3)
Zn8_2 Zn 0.24647(3) 0.28180(4) 0.59747(3)
Zn10_2 Zn 0.37704(3) 0.32334(5) 0.61337(3)
Zn4_2 Zn 0.19223(3) 0.25914(4) 0.98868(3)
C30_2 C 0.9793(3) 0.1697(4) 0.1159(4)
O14_3 O 0.2100(2) 0.3465(2) 0.0014(2)
C1_3 C 0.2443(3) 0.1376(4) 0.9857(3)
C2_3 C 0.2366(3) 0.0750(4) 0.9738(3)
C3_3 C 0.1876(3) 0.0521(4) 0.9521(4)
H1_3 H 0.1594 0.0778 0.9440
C7_3 C 0.2780(3) 0.0329(4) 0.9845(3)
H3_3 H 0.3103 0.0464 0.9988
O1_3 O 0.2042(2) 0.1715(3) 0.9798(2)
O2_3 O 0.2900(2) 0.1535(2) 0.9986(2)
N4_3 N 0.1118(3) 0.2597(3) 0.9725(3)
O18_3 O 0.2216(2) 0.2716(3) 0.9198(2)
C10_3 C 0.3056(3) 0.8815(4) 0.0165(3)
H4_3 H 0.2700 0.8706 0.0211
C12_3 C 0.4107(3) 0.9112(4) 0.0035(4)
C13_3 C 0.3990(4) 0.8597(4) 0.0284(4)
H7_3 H 0.4264 0.8351 0.0406
C14_3 C 0.3464(3) 0.8459(4) 0.0346(3)
C15_3 C 0.3338(3) 0.7883(4) 0.0604(3)
C16_3 C 0.2979(3) 0.7169(4) 0.1950(3)
C17_3 C 0.2924(3) 0.7206(4) 0.2498(3)
C18_3 C 0.2463(4) 0.7445(5) 0.2683(3)
H8_3 H 0.2194 0.7597 0.2470
C19_3 C 0.3318(3) 0.7008(4) 0.2823(3)
H9_3 H 0.3638 0.6875 0.2692
C20_3 C 0.2411(3) 0.7454(4) 0.3189(3)
H10_3 H 0.2093 0.7598 0.3317
C21_3 C 0.2809(3) 0.7258(4) 0.3517(3)
C22_3 C 0.3272(3) 0.6993(4) 0.3329(3)
C23_3 C 0.2698(3) 0.7332(4) 0.4069(3)
C24_3 C 0.3690(3) 0.6697(3) 0.3664(3)
C25_3 C 0.3557(3) 0.6306(4) 0.4015(3)
H11_3 H 0.3194 0.6248 0.4074
C26_3 C 0.3931(4) 0.5987(5) 0.4291(4)
H12_3 H 0.3830 0.5678 0.4496
C27_3 C 0.4477(3) 0.6152(4) 0.4249(3)
H13_3 H 0.4737 0.5977 0.4459
C28_3 C 0.4233(3) 0.6845(4) 0.3608(3)
H14_3 H 0.4329 0.7129 0.3376
C29_3 C 0.4633(3) 0.6560(4) 0.3906(3)
C30_3 C 0.5207(3) 0.6697(4) 0.3841(4)
C31_3 C 0.1487(3) 0.7708(4) 0.0496(3)
H15_3 H 0.1728 0.7942 0.0325
C32_3 C 0.1341(4) 0.7009(6) 0.1074(4)
H16_3 H 0.1484 0.6749 0.1313
C33_3 C 0.0929(3) 0.7760(4) 0.0387(3)
H17_3 H 0.0801 0.8043 0.0160
C34_3 C 0.0773(4) 0.7026(5) 0.0992(4)
H18_3 H 0.0544 0.6800 0.1183
C35_3 C 0.0577(3) 0.7394(4) 0.0617(3)
N1_3 N 0.1668(2) 0.7337(3) 0.0833(3)
O5_3 O 0.2822(2) 0.7734(2) 0.0584(2)
O6_3 O 0.3702(2) 0.7587(3) 0.0812(2)
O7_3 O 0.3411(2) 0.6977(4) 0.1779(2)
O8_3 O 0.2571(3) 0.7314(3) 0.1681(2)
O10_3 O 0.2216(2) 0.7284(3) 0.4198(2)
O11_2 O 0.5365(2) 0.6955(4) 0.3472(3)
O12_2 O 0.5525(2) 0.6546(3) 0.4198(3)
O13_3 O 0.3798(4) 0.5893(4) 0.1505(4)
C41_3 C 0.3964(6) 0.5849(7) 0.1965(5)
H23_3 H 0.4189 0.6145 0.2093
C42_3 C 0.4074(7) 0.5403(8) 0.2779(5)
H24_3 H 0.4303 0.5741 0.2832
H25_3 H 0.4282 0.5049 0.2826
H26_3 H 0.3790 0.5411 0.3014
C43_3 C 0.3270(6) 0.5229(8) 0.2142(6)
H27_3 H 0.3146 0.5416 0.1837
H28_3 H 0.3044 0.5343 0.2409
H29 H 0.3258 0.4808 0.2101
N3_3 N 0.3838(5) 0.5417(6) 0.2264(5)
Zn2_3 Zn 0.24647(3) 0.71820(4) 0.09747(3)
Zn3_2 Zn 0.37704(3) 0.67666(5) 0.11337(3)
O15_3 O 0.3299(2) 0.6325(3) 0.0608(2)
O16_3 O 0.2461(2) 0.6319(3) 0.0855(2)
O19_2 O 0.4635(2) 0.6955(4) 0.1528(3)
O20_2 O 0.4475(2) 0.6546(3) 0.0802(3)
Zn9_2 Zn 0.62296(3) 0.67666(5) 0.38663(3)
C4_3 C 0.1815(3) 0.9928(4) 0.9429(4)
H2_3 H 0.1486 0.9785 0.9302
C5_3 C 0.2233(3) 0.9542(4) 0.9522(3)
C6_3 C 0.2731(3) 0.9745(4) 0.9750(3)
C8_3 C 0.2153(3) 0.8907(4) 0.9342(3)
C9_3 C 0.3165(3) 0.9345(4) 0.9908(3)
C11_3 C 0.3705(3) 0.9467(5) 0.9838(4)
H5_3 H 0.3796 0.9798 0.9654
H6_3 H 0.4465 0.9221 0.9999
H19_3 H 0.0023 0.7698 0.9798
O3_3 O 0.1701(2) 0.8675(3) 0.9392(2)
O4_3 O 0.2539(2) 0.8681(3) 0.9145(2)
Zn8_3 Zn 0.25353(3) 0.78180(4) 0.90253(3)
Zn10_3 Zn 0.12296(3) 0.82334(5) 0.88663(3)
C36_3 C 0.9979(3) 0.7406(4) 0.0507(3)
C37_3 C 0.9789(4) 0.7596(5) 0.0048(4)
C38_3 C 0.9618(4) 0.7279(6) 0.0850(5)
H20_3 H 0.9736 0.7209 0.1179
C40_3 C 0.9078(4) 0.7250(4) 0.0729(4)
H22_3 H 0.8842 0.7120 0.0968
N2_3 N 0.8882(3) 0.7403(3) 0.0275(3)
C36_4 C 0.0021(3) 0.7406(4) 0.4493(3)
C37_4 C 0.0211(4) 0.7596(5) 0.4952(4)
C38_4 C 0.0382(4) 0.7279(6) 0.4150(5)
H20_4 H 0.0264 0.7209 0.3821
C39_3 C 0.0781(5) 0.7631(6) 0.5035(5)
H21_3 H 0.0916 0.7823 0.5320
C40_4 C 0.0922(4) 0.7250(4) 0.4271(4)
H22_4 H 0.1158 0.7120 0.4032
N2_4 N 0.1118(3) 0.7403(3) 0.4725(3)
C1_4 C 0.7557(3) 0.1376(4) 0.5143(3)
C2_4 C 0.7634(3) 0.0750(4) 0.5262(3)
C3_4 C 0.8124(3) 0.0521(4) 0.5479(4)
H1_4 H 0.8406 0.0778 0.5560
C7_4 C 0.7220(3) 0.0329(4) 0.5155(3)
H3_4 H 0.6897 0.0464 0.5012
O1_4 O 0.7958(2) 0.1715(3) 0.5202(2)
O2_4 O 0.7100(2) 0.1535(2) 0.5014(2)
N4_4 N 0.8882(3) 0.2597(3) 0.5275(3)
O14_4 O 0.7900(2) 0.3465(2) 0.4986(2)
O18_4 O 0.7784(2) 0.2716(3) 0.5802(2)
C4_4 C 0.8185(3) 0.9928(4) 0.5571(4)
H2_4 H 0.8514 0.9785 0.5698
C5_4 C 0.7767(3) 0.9542(4) 0.5478(3)
C6_4 C 0.7269(3) 0.9745(4) 0.5250(3)
C8_4 C 0.7847(3) 0.8907(4) 0.5658(3)
C9_4 C 0.6835(3) 0.9345(4) 0.5092(3)
C10_4 C 0.6944(3) 0.8815(4) 0.4835(3)
H4_4 H 0.7300 0.8706 0.4789
C11_4 C 0.6295(3) 0.9467(5) 0.5162(4)
H5_4 H 0.6204 0.9798 0.5346
C12_4 C 0.5893(3) 0.9112(4) 0.4965(4)
H6_4 H 0.5535 0.9221 0.5001
C13_4 C 0.6010(4) 0.8597(4) 0.4716(4)
H7_4 H 0.5736 0.8351 0.4594
C14_4 C 0.6536(3) 0.8459(4) 0.4654(3)
C15_4 C 0.6662(3) 0.7883(4) 0.4396(3)
C16_4 C 0.7021(3) 0.7169(4) 0.3050(3)
C17_4 C 0.7076(3) 0.7206(4) 0.2502(3)
C18_4 C 0.7537(4) 0.7445(5) 0.2317(3)
H8_4 H 0.7806 0.7597 0.2530
C19_4 C 0.6682(3) 0.7008(4) 0.2177(3)
H9_4 H 0.6362 0.6875 0.2308
C20_4 C 0.7589(3) 0.7454(4) 0.1811(3)
H10_4 H 0.7907 0.7598 0.1683
C21_4 C 0.7191(3) 0.7258(4) 0.1483(3)
C22_4 C 0.6728(3) 0.6993(4) 0.1671(3)
C23_4 C 0.7302(3) 0.7332(4) 0.0931(3)
C24_4 C 0.6310(3) 0.6697(3) 0.1336(3)
C25_4 C 0.6443(3) 0.6306(4) 0.0985(3)
H11_4 H 0.6806 0.6248 0.0926
C26_4 C 0.6069(4) 0.5987(5) 0.0709(4)
H12_4 H 0.6170 0.5678 0.0504
C27_4 C 0.5523(3) 0.6152(4) 0.0751(3)
H13_4 H 0.5263 0.5977 0.0541
C28_4 C 0.5767(3) 0.6845(4) 0.1392(3)
H14_4 H 0.5671 0.7129 0.1624
C29_4 C 0.5367(3) 0.6560(4) 0.1094(3)
C30_4 C 0.4793(3) 0.6697(4) 0.1159(4)
C31_4 C 0.8513(3) 0.7708(4) 0.4504(3)
H15_4 H 0.8272 0.7942 0.4675
C32_4 C 0.8659(4) 0.7009(6) 0.3926(4)
H16_4 H 0.8516 0.6749 0.3687
C33_4 C 0.9071(3) 0.7760(4) 0.4613(3)
H17_4 H 0.9199 0.8043 0.4840
C34_4 C 0.9227(4) 0.7026(5) 0.4008(4)
H18_4 H 0.9456 0.6800 0.3817
C35_4 C 0.9423(3) 0.7394(4) 0.4383(3)
H19_4 H 0.9977 0.7698 0.5202
N1_4 N 0.8332(2) 0.7337(3) 0.4167(3)
O3_4 O 0.8299(2) 0.8675(3) 0.5608(2)
O4_4 O 0.7461(2) 0.8681(3) 0.5855(2)
O5_4 O 0.7178(2) 0.7734(2) 0.4416(2)
O6_4 O 0.6298(2) 0.7587(3) 0.4188(2)
O7_4 O 0.6589(2) 0.6977(4) 0.3221(2)
O8_4 O 0.7429(3) 0.7314(3) 0.3319(2)
O10_4 O 0.7784(2) 0.7284(3) 0.0802(2)
O13_4 O 0.6202(4) 0.5893(4) 0.3495(4)
C41_4 C 0.6036(6) 0.5849(7) 0.3035(5)
H23_4 H 0.5811 0.6145 0.2907
C42_4 C 0.5926(7) 0.5403(8) 0.2221(5)
H24_4 H 0.5697 0.5741 0.2168
H25_4 H 0.5718 0.5049 0.2174
H26_4 H 0.6210 0.5411 0.1986
C43_4 C 0.6730(6) 0.5229(8) 0.2858(6)
H27_4 H 0.6854 0.5416 0.3163
H28_4 H 0.6956 0.5343 0.2591
H29_2 H 0.6742 0.4808 0.2899
N3_4 N 0.6162(5) 0.5417(6) 0.2736(5)
Zn2_4 Zn 0.75353(3) 0.71820(4) 0.40253(3)
O15_4 O 0.6701(2) 0.6325(3) 0.4392(2)
O16_4 O 0.7539(2) 0.6319(3) 0.4145(2)
Zn8_4 Zn 0.74647(3) 0.78180(4) 0.59747(3)
Zn10_4 Zn 0.87704(3) 0.82334(5) 0.61337(3)
C1_5 C 0.2557(3) 0.3624(4) 0.0143(3)
C2_5 C 0.2634(3) 0.4250(4) 0.0262(3)
C3_5 C 0.3124(3) 0.4479(4) 0.0479(4)
H1_5 H 0.3406 0.4222 0.0560
C4_5 C 0.3185(3) 0.5072(4) 0.0571(4)
H2_5 H 0.3514 0.5215 0.0698
C5_5 C 0.2767(3) 0.5458(4) 0.0478(3)
C6_5 C 0.2269(3) 0.5255(4) 0.0250(3)
C7_5 C 0.2220(3) 0.4671(4) 0.0155(3)
H3_5 H 0.1897 0.4536 0.0012
C8_5 C 0.2847(3) 0.6093(4) 0.0658(3)
C9_5 C 0.1835(3) 0.5655(4) 0.0092(3)
C11_5 C 0.1295(3) 0.5533(5) 0.0162(4)
H5_5 H 0.1204 0.5202 0.0346
H6_5 H 0.0535 0.5779 0.0001
H19_5 H 0.4977 0.7302 0.0202
C39_4 C 0.5781(5) 0.7369(6) 0.0035(5)
H21_4 H 0.5916 0.7177 0.0320
O1_5 O 0.2958(2) 0.3285(3) 0.0202(2)
C10_5 C 0.1944(3) 0.6185(4) 0.9835(3)
H4_5 H 0.2300 0.6294 0.9789
C12_5 C 0.0893(3) 0.5888(4) 0.9965(4)
C13_5 C 0.1010(4) 0.6403(4) 0.9716(4)
H7_5 H 0.0736 0.6649 0.9594
C14_5 C 0.1536(3) 0.6541(4) 0.9654(3)
C15_5 C 0.1662(3) 0.7117(4) 0.9396(3)
C16_5 C 0.2021(3) 0.7831(4) 0.8050(3)
C17_5 C 0.2076(3) 0.7794(4) 0.7502(3)
C18_5 C 0.2537(4) 0.7555(5) 0.7317(3)
H8_5 H 0.2806 0.7403 0.7530
C19_5 C 0.1682(3) 0.7992(4) 0.7177(3)
H9_5 H 0.1362 0.8125 0.7308
C20_5 C 0.2589(3) 0.7546(4) 0.6811(3)
H10_5 H 0.2907 0.7402 0.6683
C21_5 C 0.2191(3) 0.7742(4) 0.6483(3)
C22_5 C 0.1728(3) 0.8007(4) 0.6671(3)
C23_5 C 0.2302(3) 0.7668(4) 0.5931(3)
C24_5 C 0.1310(3) 0.8303(3) 0.6336(3)
C25_5 C 0.1443(3) 0.8694(4) 0.5985(3)
H11_5 H 0.1806 0.8752 0.5926
C26_5 C 0.1069(4) 0.9013(5) 0.5709(4)
H12_5 H 0.1170 0.9322 0.5504
C27_5 C 0.0523(3) 0.8848(4) 0.5751(3)
H13_5 H 0.0263 0.9023 0.5541
C28_5 C 0.0767(3) 0.8155(4) 0.6392(3)
H14_5 H 0.0671 0.7871 0.6624
C29_5 C 0.0367(3) 0.8440(4) 0.6094(3)
C31_5 C 0.3513(3) 0.7292(4) 0.9504(3)
H15_5 H 0.3272 0.7058 0.9675
C32_5 C 0.3659(4) 0.7991(6) 0.8926(4)
H16_5 H 0.3516 0.8251 0.8687
C33_5 C 0.4071(3) 0.7240(4) 0.9613(3)
H17_5 H 0.4199 0.6957 0.9840
C34_5 C 0.4227(4) 0.7974(5) 0.9008(4)
H18_5 H 0.4456 0.8200 0.8817
C35_5 C 0.4423(3) 0.7606(4) 0.9383(3)
C36_5 C 0.5021(3) 0.7594(4) 0.9493(3)
C37_5 C 0.5211(4) 0.7404(5) 0.9952(4)
C38_5 C 0.5382(4) 0.7721(6) 0.9150(5)
H20_5 H 0.5264 0.7791 0.8821
C40_5 C 0.5922(4) 0.7750(4) 0.9271(4)
H22_5 H 0.6158 0.7880 0.9032
N1_5 N 0.3332(2) 0.7663(3) 0.9167(3)
O5_5 O 0.2178(2) 0.7266(2) 0.9416(2)
O6_5 O 0.1298(2) 0.7413(3) 0.9188(2)
O7_5 O 0.1589(2) 0.8023(4) 0.8221(2)
O8_5 O 0.2429(3) 0.7686(3) 0.8319(2)
O9_3 O 0.1907(2) 0.7538(3) 0.56368(19)
O13_5 O 0.1202(4) 0.9107(4) 0.8495(4)
C41_5 C 0.1036(6) 0.9151(7) 0.8035(5)
H23_5 H 0.0811 0.8855 0.7907
C42_5 C 0.0926(7) 0.9597(8) 0.7221(5)
H24_5 H 0.0697 0.9259 0.7168
H25_5 H 0.0718 0.9951 0.7174
H26_5 H 0.1210 0.9589 0.6986
C43_5 C 0.1730(6) 0.9771(8) 0.7858(6)
H27_5 H 0.1854 0.9584 0.8163
H28_5 H 0.1956 0.9657 0.7591
N3_5 N 0.1162(5) 0.9583(6) 0.7736(5)
O17_3 O 0.3093(2) 0.2538(3) 0.93632(19)
O19_3 O 0.0365(2) 0.8045(4) 0.8472(3)
O20_3 O 0.0525(2) 0.8454(3) 0.9198(3)
C30_5 C 0.9793(3) 0.8303(4) 0.6159(4)
O11_3 O 0.9635(2) 0.8045(4) 0.6528(3)
O12_3 O 0.9475(2) 0.8454(3) 0.5802(3)
C30_6 C 0.0207(3) 0.8303(4) 0.8841(4)
C1_6 C 0.7443(3) 0.3624(4) 0.4857(3)
C2_6 C 0.7366(3) 0.4250(4) 0.4738(3)
C3_6 C 0.6876(3) 0.4479(4) 0.4521(4)
H1_6 H 0.6594 0.4222 0.4440
C4_6 C 0.6815(3) 0.5072(4) 0.4429(4)
H2_6 H 0.6486 0.5215 0.4302
C5_6 C 0.7233(3) 0.5458(4) 0.4522(3)
C6_6 C 0.7731(3) 0.5255(4) 0.4750(3)
C7_6 C 0.7780(3) 0.4671(4) 0.4845(3)
H3_6 H 0.8103 0.4536 0.4988
C8_6 C 0.7153(3) 0.6093(4) 0.4342(3)
C9_6 C 0.8165(3) 0.5655(4) 0.4908(3)
C10_6 C 0.8056(3) 0.6185(4) 0.5165(3)
H4_6 H 0.7700 0.6294 0.5211
C11_6 C 0.8705(3) 0.5533(5) 0.4838(4)
H5_6 H 0.8796 0.5202 0.4654
C12_6 C 0.9107(3) 0.5888(4) 0.5035(4)
H6_6 H 0.9465 0.5779 0.4999
C13_6 C 0.8990(4) 0.6403(4) 0.5284(4)
H7_6 H 0.9264 0.6649 0.5406
C14_6 C 0.8464(3) 0.6541(4) 0.5346(3)
C15_6 C 0.8338(3) 0.7117(4) 0.5604(3)
C16_6 C 0.7979(3) 0.7831(4) 0.6950(3)
C17_6 C 0.7924(3) 0.7794(4) 0.7498(3)
C18_6 C 0.7463(4) 0.7555(5) 0.7683(3)
H8_6 H 0.7194 0.7403 0.7470
C19_6 C 0.8318(3) 0.7992(4) 0.7823(3)
H9_6 H 0.8638 0.8125 0.7692
C20_6 C 0.7411(3) 0.7546(4) 0.8189(3)
H10_6 H 0.7093 0.7402 0.8317
C21_6 C 0.7809(3) 0.7742(4) 0.8517(3)
C22_6 C 0.8272(3) 0.8007(4) 0.8329(3)
C23_6 C 0.7698(3) 0.7668(4) 0.9069(3)
C24_6 C 0.8690(3) 0.8303(3) 0.8664(3)
C25_6 C 0.8557(3) 0.8694(4) 0.9015(3)
H11_6 H 0.8194 0.8752 0.9074
C26_6 C 0.8931(4) 0.9013(5) 0.9291(4)
H12_6 H 0.8830 0.9322 0.9496
C27_6 C 0.9477(3) 0.8848(4) 0.9249(3)
H13_6 H 0.9737 0.9023 0.9459
C28_6 C 0.9233(3) 0.8155(4) 0.8608(3)
H14_6 H 0.9329 0.7871 0.8376
C29_6 C 0.9633(3) 0.8440(4) 0.8906(3)
C31_6 C 0.6487(3) 0.7292(4) 0.5496(3)
H15_6 H 0.6728 0.7058 0.5325
C32_6 C 0.6341(4) 0.7991(6) 0.6074(4)
H16_6 H 0.6484 0.8251 0.6313
C33_6 C 0.5929(3) 0.7240(4) 0.5387(3)
H17_6 H 0.5801 0.6957 0.5160
C34_6 C 0.5773(4) 0.7974(5) 0.5992(4)
H18_6 H 0.5544 0.8200 0.6183
C35_6 C 0.5577(3) 0.7606(4) 0.5617(3)
C36_6 C 0.4979(3) 0.7594(4) 0.5507(3)
C37_6 C 0.4789(4) 0.7404(5) 0.5048(4)
H19_6 H 0.5023 0.7302 0.4798
C38_6 C 0.4618(4) 0.7721(6) 0.5850(5)
H20_6 H 0.4736 0.7791 0.6179
C39_5 C 0.4219(5) 0.7369(6) 0.4965(5)
H21_5 H 0.4084 0.7177 0.4680
C40_6 C 0.4078(4) 0.7750(4) 0.5729(4)
H22_6 H 0.3842 0.7880 0.5968
N1_6 N 0.6668(2) 0.7663(3) 0.5833(3)
O1_6 O 0.7042(2) 0.3285(3) 0.4798(2)
O5_6 O 0.7822(2) 0.7266(2) 0.5584(2)
O6_6 O 0.8702(2) 0.7413(3) 0.5812(2)
O7_6 O 0.8411(2) 0.8023(4) 0.6779(2)
O8_6 O 0.7571(3) 0.7686(3) 0.6681(2)
O9_4 O 0.8093(2) 0.7538(3) 0.93632(19)
O13_6 O 0.8798(4) 0.9107(4) 0.6505(4)
C41_6 C 0.8964(6) 0.9151(7) 0.6965(5)
H23_6 H 0.9189 0.8855 0.7093
C42_6 C 0.9074(7) 0.9597(8) 0.7779(5)
H24_6 H 0.9303 0.9259 0.7832
H25_6 H 0.9282 0.9951 0.7826
H26_6 H 0.8790 0.9589 0.8014
C43_6 C 0.8270(6) 0.9771(8) 0.7142(6)
H27_6 H 0.8146 0.9584 0.6837
H28_6 H 0.8044 0.9657 0.7409
N3_6 N 0.8838(5) 0.9583(6) 0.7264(5)
O17_4 O 0.6907(2) 0.2538(3) 0.56368(19)
C36_7 C 0.0021(3) 0.2594(4) 0.9493(3)
C37_7 C 0.0211(4) 0.2404(5) 0.9952(4)
C38_7 C 0.0382(4) 0.2721(6) 0.9150(5)
H20_7 H 0.0264 0.2791 0.8821
C40_7 C 0.0922(4) 0.2750(4) 0.9271(4)
H22_7 H 0.1158 0.2880 0.9032
C4_7 C 0.8185(3) 0.0072(4) 0.0571(4)
H2_7 H 0.8514 0.0215 0.0698
C5_7 C 0.7767(3) 0.0458(4) 0.0478(3)
C6_7 C 0.7269(3) 0.0255(4) 0.0250(3)
C8_7 C 0.7847(3) 0.1093(4) 0.0658(3)
C9_7 C 0.6835(3) 0.0655(4) 0.0092(3)
C11_7 C 0.6295(3) 0.0533(5) 0.0162(4)
H5_7 H 0.6204 0.0202 0.0346
H6_7 H 0.5535 0.0779 0.0001
H19_7 H 0.9977 0.2302 0.0202
C10_7 C 0.6944(3) 0.1185(4) 0.9835(3)
H4_7 H 0.7300 0.1294 0.9789
C12_7 C 0.5893(3) 0.0888(4) 0.9965(4)
C13_7 C 0.6010(4) 0.1403(4) 0.9716(4)
H7_7 H 0.5736 0.1649 0.9594
C14_7 C 0.6536(3) 0.1541(4) 0.9654(3)
C15_7 C 0.6662(3) 0.2117(4) 0.9396(3)
C16_7 C 0.7021(3) 0.2831(4) 0.8050(3)
C17_7 C 0.7076(3) 0.2794(4) 0.7502(3)
C18_7 C 0.7537(4) 0.2555(5) 0.7317(3)
H8_7 H 0.7806 0.2403 0.7530
C19_7 C 0.6682(3) 0.2992(4) 0.7177(3)
H9_7 H 0.6362 0.3125 0.7308
C20_7 C 0.7589(3) 0.2546(4) 0.6811(3)
H10_7 H 0.7907 0.2402 0.6683
C21_7 C 0.7191(3) 0.2742(4) 0.6483(3)
C22_7 C 0.6728(3) 0.3007(4) 0.6671(3)
C23_7 C 0.7302(3) 0.2668(4) 0.5931(3)
C24_7 C 0.6310(3) 0.3303(3) 0.6336(3)
C25_7 C 0.6443(3) 0.3694(4) 0.5985(3)
H11_7 H 0.6806 0.3752 0.5926
C26_7 C 0.6069(4) 0.4013(5) 0.5709(4)
H12_7 H 0.6170 0.4322 0.5504
C27_7 C 0.5523(3) 0.3848(4) 0.5751(3)
H13_7 H 0.5263 0.4023 0.5541
C28_7 C 0.5767(3) 0.3155(4) 0.6392(3)
H14_7 H 0.5671 0.2871 0.6624
C29_7 C 0.5367(3) 0.3440(4) 0.6094(3)
C30_7 C 0.4793(3) 0.3303(4) 0.6159(4)
C31_7 C 0.8513(3) 0.2292(4) 0.9504(3)
H15_7 H 0.8272 0.2058 0.9675
C32_7 C 0.8659(4) 0.2991(6) 0.8926(4)
H16_7 H 0.8516 0.3251 0.8687
C33_7 C 0.9071(3) 0.2240(4) 0.9613(3)
H17_7 H 0.9199 0.1957 0.9840
C34_7 C 0.9227(4) 0.2974(5) 0.9008(4)
H18_7 H 0.9456 0.3200 0.8817
C35_7 C 0.9423(3) 0.2606(4) 0.9383(3)
N1_7 N 0.8332(2) 0.2663(3) 0.9167(3)
O5_7 O 0.7178(2) 0.2266(2) 0.9416(2)
O6_7 O 0.6298(2) 0.2413(3) 0.9188(2)
O7_7 O 0.6589(2) 0.3023(4) 0.8221(2)
O8_7 O 0.7429(3) 0.2686(3) 0.8319(2)
O11_4 O 0.4635(2) 0.3045(4) 0.6528(3)
O12_4 O 0.4475(2) 0.3454(3) 0.5802(3)
O13_7 O 0.6202(4) 0.4107(4) 0.8495(4)
C41_7 C 0.6036(6) 0.4151(7) 0.8035(5)
H23_7 H 0.5811 0.3855 0.7907
C42_7 C 0.5926(7) 0.4597(8) 0.7221(5)
H24_7 H 0.5697 0.4259 0.7168
H25_7 H 0.5718 0.4951 0.7174
H26_7 H 0.6210 0.4589 0.6986
C43_7 C 0.6730(6) 0.4771(8) 0.7858(6)
H27_7 H 0.6854 0.4584 0.8163
H28_7 H 0.6956 0.4657 0.7591
H29_3 H 0.6742 0.5192 0.7899
N3_7 N 0.6162(5) 0.4583(6) 0.7736(5)
O19_4 O 0.5365(2) 0.3045(4) 0.8472(3)
O20_4 O 0.5525(2) 0.3454(3) 0.9198(3)
C1_7 C 0.7557(3) 0.8624(4) 0.0143(3)
C2_7 C 0.7634(3) 0.9250(4) 0.0262(3)
C3_7 C 0.8124(3) 0.9479(4) 0.0479(4)
H1_7 H 0.8406 0.9222 0.0560
C7_7 C 0.7220(3) 0.9671(4) 0.0155(3)
H3_7 H 0.6897 0.9536 0.0012
O1_7 O 0.7958(2) 0.8285(3) 0.0202(2)
C4_8 C 0.1815(3) 0.0072(4) 0.4429(4)
H2_8 H 0.1486 0.0215 0.4302
C5_8 C 0.2233(3) 0.0458(4) 0.4522(3)
C6_8 C 0.2731(3) 0.0255(4) 0.4750(3)
C8_8 C 0.2153(3) 0.1093(4) 0.4342(3)
C9_8 C 0.3165(3) 0.0655(4) 0.4908(3)
C10_8 C 0.3056(3) 0.1185(4) 0.5165(3)
H4_8 H 0.2700 0.1294 0.5211
C11_8 C 0.3705(3) 0.0533(5) 0.4838(4)
H5_8 H 0.3796 0.0202 0.4654
C12_8 C 0.4107(3) 0.0888(4) 0.5035(4)
H6_8 H 0.4465 0.0779 0.4999
C13_8 C 0.3990(4) 0.1403(4) 0.5284(4)
H7_8 H 0.4264 0.1649 0.5406
C14_8 C 0.3464(3) 0.1541(4) 0.5346(3)
C15_8 C 0.3338(3) 0.2117(4) 0.5604(3)
C16_8 C 0.2979(3) 0.2831(4) 0.6950(3)
C17_8 C 0.2924(3) 0.2794(4) 0.7498(3)
C18_8 C 0.2463(4) 0.2555(5) 0.7683(3)
H8_8 H 0.2194 0.2403 0.7470
C19_8 C 0.3318(3) 0.2992(4) 0.7823(3)
H9_8 H 0.3638 0.3125 0.7692
C20_8 C 0.2411(3) 0.2546(4) 0.8189(3)
H10_8 H 0.2093 0.2402 0.8317
C21_8 C 0.2809(3) 0.2742(4) 0.8517(3)
C22_8 C 0.3272(3) 0.3007(4) 0.8329(3)
C23_8 C 0.2698(3) 0.2668(4) 0.9069(3)
C24_8 C 0.3690(3) 0.3303(3) 0.8664(3)
C25_8 C 0.3557(3) 0.3694(4) 0.9015(3)
H11_8 H 0.3194 0.3752 0.9074
C26_8 C 0.3931(4) 0.4013(5) 0.9291(4)
H12_8 H 0.3830 0.4322 0.9496
C27_8 C 0.4477(3) 0.3848(4) 0.9249(3)
H13_8 H 0.4737 0.4023 0.9459
C28_8 C 0.4233(3) 0.3155(4) 0.8608(3)
H14_8 H 0.4329 0.2871 0.8376
C29_8 C 0.4633(3) 0.3440(4) 0.8906(3)
C30_8 C 0.5207(3) 0.3303(4) 0.8841(4)
C31_8 C 0.1487(3) 0.2292(4) 0.5496(3)
H15_8 H 0.1728 0.2058 0.5325
C32_8 C 0.1341(4) 0.2991(6) 0.6074(4)
H16_8 H 0.1484 0.3251 0.6313
C33_8 C 0.0929(3) 0.2240(4) 0.5387(3)
H17_8 H 0.0801 0.1957 0.5160
C34_8 C 0.0773(4) 0.2974(5) 0.5992(4)
H18_8 H 0.0544 0.3200 0.6183
C35_8 C 0.0577(3) 0.2606(4) 0.5617(3)
H19_8 H 0.0023 0.2302 0.4798
N1_8 N 0.1668(2) 0.2663(3) 0.5833(3)
O5_8 O 0.2822(2) 0.2266(2) 0.5584(2)
O6_8 O 0.3702(2) 0.2413(3) 0.5812(2)
O7_8 O 0.3411(2) 0.3023(4) 0.6779(2)
O8_8 O 0.2571(3) 0.2686(3) 0.6681(2)
O13_8 O 0.3798(4) 0.4107(4) 0.6505(4)
C41_8 C 0.3964(6) 0.4151(7) 0.6965(5)
H23_8 H 0.4189 0.3855 0.7093
C42_8 C 0.4074(7) 0.4597(8) 0.7779(5)
H24_8 H 0.4303 0.4259 0.7832
H25_8 H 0.4282 0.4951 0.7826
H26_8 H 0.3790 0.4589 0.8014
C43_8 C 0.3270(6) 0.4771(8) 0.7142(6)
H27_8 H 0.3146 0.4584 0.6837
H28_8 H 0.3044 0.4657 0.7409
H29_4 H 0.3258 0.5192 0.7101
N3_8 N 0.3838(5) 0.4583(6) 0.7264(5)
C1_8 C 0.2443(3) 0.8624(4) 0.4857(3)
C2_8 C 0.2366(3) 0.9250(4) 0.4738(3)
C3_8 C 0.1876(3) 0.9479(4) 0.4521(4)
H1_8 H 0.1594 0.9222 0.4440
C7_8 C 0.2780(3) 0.9671(4) 0.4845(3)
H3_8 H 0.3103 0.9536 0.4988
O1_8 O 0.2042(2) 0.8285(3) 0.4798(2)
C36_8 C 0.9979(3) 0.2594(4) 0.5507(3)
C37_8 C 0.9789(4) 0.2404(5) 0.5048(4)
C38_8 C 0.9618(4) 0.2721(6) 0.5850(5)
H20_8 H 0.9736 0.2791 0.6179
C39_6 C 0.9219(5) 0.2369(6) 0.4965(5)
H21_6 H 0.9084 0.2177 0.4680
C40_8 C 0.9078(4) 0.2750(4) 0.5729(4)
H22_8 H 0.8842 0.2880 0.5968
H29_5 H 0.8258 0.9808 0.2101
H29_6 H 0.1742 0.9808 0.2899
C39_7 C 0.9219(5) 0.7631(6) 0.9965(5)
H21_7 H 0.9084 0.7823 0.9680
H29_7 H 0.1742 0.0192 0.7899
H29_8 H 0.8258 0.0192 0.7101
C39_8 C 0.0781(5) 0.2369(6) 0.0035(5)
H21_8 H 0.0916 0.2177 0.0320
loop_
_geom_bond_atom_site_label_1
_geom_bond_atom_site_label_2
_geom_bond_site_symmetry_1
_geom_bond_site_symmetry_2
O11 C30 1_555 1_555
O12 C30 1_555 1_555
Zn9 O11 1_555 1_555
O12 Zn9 1_555 1_555
H4 C10 1_555 1_555
C13 C12 1_555 1_555
H7 C13 1_555 1_555
C14 C10 1_555 1_555
C15 C14 1_555 1_555
C16 C17 1_555 1_555
C17 C18 1_555 1_555
C18 H8 1_555 1_555
C19 C17 1_555 1_555
H9 C19 1_555 1_555
C20 C18 1_555 1_555
H10 C20 1_555 1_555
C21 C20 1_555 1_555
C22 C19 1_555 1_555
C23 C21 1_555 1_555
C24 C22 1_555 1_555
C25 C24 1_555 1_555
H11 C25 1_555 1_555
C26 C25 1_555 1_555
H12 C26 1_555 1_555
C27 C26 1_555 1_555
H13 C27 1_555 1_555
C28 C24 1_555 1_555
H14 C28 1_555 1_555
C29 C27 1_555 1_555
C31 H15 1_555 1_555
C32 H16 1_555 1_555
C33 C31 1_555 1_555
H17 C33 1_555 1_555
C34 C32 1_555 1_555
H18 C34 1_555 1_555
C35 C33 1_555 1_555
C36 C35 1_555 1_555
C37 C36 1_555 1_555
C38 C36 1_555 1_555
H20 C38 1_555 1_555
C40 C38 1_555 1_555
H22 C40 1_555 1_555
N1 C31 1_555 1_555
O5 C15 1_555 1_555
O6 C15 1_555 1_555
O7 C16 1_555 1_555
O8 C16 1_555 1_555
O9 C23 1_555 1_555
O10 C23 1_555 1_555
O13 C41 1_555 1_555
C41 H23 1_555 1_555
C42 H24 1_555 1_555
H25 C42 1_555 1_555
H26 C42 1_555 1_555
C43 H27 1_555 1_555
H28 C43 1_555 1_555
N3 C41 1_555 1_555
Zn2 N1 1_555 1_555
Zn3 O6 1_555 1_555
O15 Zn3 1_555 1_555
O16 Zn2 1_555 1_555
O19 Zn3 1_555 1_555
O20 Zn3 1_555 1_555
Zn4 O9 1_555 1_555
Zn5 N2 1_555 1_555
Zn6 O10 1_555 1_555
C13 C14 1_555 1_555
C21 C22 1_555 1_555
C28 C29 1_555 1_555
C32 N1 1_555 1_555
C34 C35 1_555 1_555
C40 N2 1_555 1_555
O5 Zn2 1_555 1_555
O7 Zn3 1_555 1_555
O8 Zn2 1_555 1_555
O13 Zn3 1_555 1_555
C42 N3 1_555 1_555
C43 N3 1_555 1_555
C1 C2 1_555 1_555
C2 C3 1_555 1_555
C3 H1 1_555 1_555
C4 C3 1_555 1_555
H2 C4 1_555 1_555
C5 C4 1_555 1_555
C6 C5 1_555 1_555
C7 C2 1_555 1_555
H3 C7 1_555 1_555
C8 C5 1_555 1_555
C9 C6 1_555 1_555
C11 C9 1_555 1_555
H5 C11 1_555 1_555
H21 C39 1_555 1_555
O1 C1 1_555 1_555
O2 C1 1_555 1_555
O3 C8 1_555 1_555
O4 C8 1_555 1_555
Zn1 O1 1_555 1_555
N4 Zn1 1_555 1_555
O18 Zn1 1_555 1_555
Zn8 O4 1_555 1_555
Zn10 O3 1_555 1_555
C6 C7 1_555 1_555
C1_2 C2_2 1_555 1_555
C2_2 C3_2 1_555 1_555
C3_2 H1_2 1_555 1_555
C4_2 C3_2 1_555 1_555
H2_2 C4_2 1_555 1_555
C5_2 C4_2 1_555 1_555
C6_2 C5_2 1_555 1_555
C7_2 C2_2 1_555 1_555
H3_2 C7_2 1_555 1_555
C8_2 C5_2 1_555 1_555
C9_2 C6_2 1_555 1_555
C10_2 C9_2 1_555 1_555
H4_2 C10_2 1_555 1_555
C11_2 C9_2 1_555 1_555
H5_2 C11_2 1_555 1_555
C12_2 C11_2 1_555 1_555
H6_2 C12_2 1_555 1_555
C13_2 C12_2 1_555 1_555
H7_2 C13_2 1_555 1_555
C14_2 C10_2 1_555 1_555
C15_2 C14_2 1_555 1_555
C16_2 C17_2 1_555 1_555
C17_2 C18_2 1_555 1_555
C18_2 H8_2 1_555 1_555
C19_2 C17_2 1_555 1_555
H9_2 C19_2 1_555 1_555
C20_2 C18_2 1_555 1_555
H10_2 C20_2 1_555 1_555
C21_2 C20_2 1_555 1_555
C22_2 C19_2 1_555 1_555
C23_2 C21_2 1_555 1_555
C24_2 C22_2 1_555 1_555
C25_2 C24_2 1_555 1_555
H11_2 C25_2 1_555 1_555
C26_2 C25_2 1_555 1_555
H12_2 C26_2 1_555 1_555
C27_2 C26_2 1_555 1_555
H13_2 C27_2 1_555 1_555
C28_2 C24_2 1_555 1_555
H14_2 C28_2 1_555 1_555
C29_2 C27_2 1_555 1_555
C31_2 H15_2 1_555 1_555
C32_2 H16_2 1_555 1_555
C33_2 C31_2 1_555 1_555
H17_2 C33_2 1_555 1_555
C34_2 C32_2 1_555 1_555
H18_2 C34_2 1_555 1_555
C35_2 C33_2 1_555 1_555
C36_2 C35_2 1_555 1_555
C37_2 C36_2 1_555 1_555
H19_2 C37_2 1_555 1_555
C38_2 C36_2 1_555 1_555
H20_2 C38_2 1_555 1_555
C39_2 C37_2 1_555 1_555
H21_2 C39_2 1_555 1_555
C40_2 C38_2 1_555 1_555
H22_2 C40_2 1_555 1_555
N1_2 C31_2 1_555 1_555
N2_2 C39_2 1_555 1_555
O1_2 C1_2 1_555 1_555
O2_2 C1_2 1_555 1_555
O3_2 C8_2 1_555 1_555
O4_2 C8_2 1_555 1_555
O5_2 C15_2 1_555 1_555
O6_2 C15_2 1_555 1_555
O7_2 C16_2 1_555 1_555
O8_2 C16_2 1_555 1_555
O9_2 C23_2 1_555 1_555
O10_2 C23_2 1_555 1_555
O13_2 C41_2 1_555 1_555
C41_2 H23_2 1_555 1_555
C42_2 H24_2 1_555 1_555
H25_2 C42_2 1_555 1_555
H26_2 C42_2 1_555 1_555
C43_2 H27_2 1_555 1_555
H28_2 C43_2 1_555 1_555
N3_2 C41_2 1_555 1_555
Zn1_2 O1_2 1_555 1_555
Zn2_2 N1_2 1_555 1_555
Zn9 O6_2 1_555 1_555
N4_2 Zn1_2 1_555 1_555
O14_2 Zn1_2 1_555 1_555
O15_2 Zn9 1_555 1_555
O16_2 Zn2_2 1_555 1_555
O17_2 Zn1_2 1_555 1_555
O18_2 Zn1_2 1_555 1_555
Zn6 N2_2 1_555 1_555
Zn5 O10_2 1_555 1_555
Zn7_2 O2_2 1_555 1_555
Zn8_2 O4_2 1_555 1_555
Zn10_2 O3_2 1_555 1_555
C6_2 C7_2 1_555 1_555
C13_2 C14_2 1_555 1_555
C21_2 C22_2 1_555 1_555
C28_2 C29_2 1_555 1_555
C32_2 N1_2 1_555 1_555
C34_2 C35_2 1_555 1_555
C40_2 N2_2 1_555 1_555
O5_2 Zn2_2 1_555 1_555
O7_2 Zn9 1_555 1_555
O8_2 Zn2_2 1_555 1_555
O13_2 Zn9 1_555 1_555
C42_2 N3_2 1_555 1_555
C43_2 N3_2 1_555 1_555
O19 C30_2 1_555 1_555
O20 C30_2 1_555 1_555
C1_3 C2_3 1_555 1_555
C2_3 C3_3 1_555 1_555
C3_3 H1_3 1_555 1_555
C7_3 C2_3 1_555 1_555
H3_3 C7_3 1_555 1_555
O1_3 C1_3 1_555 1_555
O2_3 C1_3 1_555 1_555
Zn4_2 O1_3 1_555 1_555
N4_3 Zn4_2 1_555 1_555
O18_3 Zn4_2 1_555 1_555
H4_3 C10_3 1_555 1_555
C13_3 C12_3 1_555 1_555
H7_3 C13_3 1_555 1_555
C14_3 C10_3 1_555 1_555
C15_3 C14_3 1_555 1_555
C16_3 C17_3 1_555 1_555
C17_3 C18_3 1_555 1_555
C18_3 H8_3 1_555 1_555
C19_3 C17_3 1_555 1_555
H9_3 C19_3 1_555 1_555
C20_3 C18_3 1_555 1_555
H10_3 C20_3 1_555 1_555
C21_3 C20_3 1_555 1_555
C22_3 C19_3 1_555 1_555
C23_3 C21_3 1_555 1_555
C24_3 C22_3 1_555 1_555
C25_3 C24_3 1_555 1_555
H11_3 C25_3 1_555 1_555
C26_3 C25_3 1_555 1_555
H12_3 C26_3 1_555 1_555
C27_3 C26_3 1_555 1_555
H13_3 C27_3 1_555 1_555
C28_3 C24_3 1_555 1_555
H14_3 C28_3 1_555 1_555
C29_3 C27_3 1_555 1_555
C30_3 C29_3 1_555 1_555
C31_3 H15_3 1_555 1_555
C32_3 H16_3 1_555 1_555
C33_3 C31_3 1_555 1_555
H17_3 C33_3 1_555 1_555
C34_3 C32_3 1_555 1_555
H18_3 C34_3 1_555 1_555
C35_3 C33_3 1_555 1_555
N1_3 C31_3 1_555 1_555
O5_3 C15_3 1_555 1_555
O6_3 C15_3 1_555 1_555
O7_3 C16_3 1_555 1_555
O8_3 C16_3 1_555 1_555
O17_2 C23_3 1_555 1_555
O10_3 C23_3 1_555 1_555
O11_2 C30_3 1_555 1_555
O12_2 C30_3 1_555 1_555
O13_3 C41_3 1_555 1_555
C41_3 H23_3 1_555 1_555
C42_3 H24_3 1_555 1_555
H25_3 C42_3 1_555 1_555
H26_3 C42_3 1_555 1_555
C43_3 H27_3 1_555 1_555
H28_3 C43_3 1_555 1_555
H29 C43_3 1_555 1_555
N3_3 C41_3 1_555 1_555
Zn2_3 N1_3 1_555 1_555
Zn3_2 O6_3 1_555 1_555
O15_3 Zn3_2 1_555 1_555
O16_3 Zn2_3 1_555 1_555
O19_2 Zn3_2 1_555 1_555
O20_2 Zn3_2 1_555 1_555
Zn7_2 O10_3 1_555 1_555
Zn9_2 O11_2 1_555 1_555
C13_3 C14_3 1_555 1_555
C21_3 C22_3 1_555 1_555
C28_3 C29_3 1_555 1_555
C32_3 N1_3 1_555 1_555
C34_3 C35_3 1_555 1_555
O5_3 Zn2_3 1_555 1_555
O7_3 Zn3_2 1_555 1_555
O8_3 Zn2_3 1_555 1_555
O12_2 Zn9_2 1_555 1_555
O13_3 Zn3_2 1_555 1_555
C42_3 N3_3 1_555 1_555
C43_3 N3_3 1_555 1_555
H2_3 C4_3 1_555 1_555
C5_3 C4_3 1_555 1_555
C6_3 C5_3 1_555 1_555
C8_3 C5_3 1_555 1_555
C9_3 C6_3 1_555 1_555
C11_3 C9_3 1_555 1_555
H5_3 C11_3 1_555 1_555
O3_3 C8_3 1_555 1_555
O4_3 C8_3 1_555 1_555
Zn8_3 O4_3 1_555 1_555
Zn10_3 O3_3 1_555 1_555
C37_3 C36_3 1_555 1_555
C38_3 C36_3 1_555 1_555
H20_3 C38_3 1_555 1_555
C40_3 C38_3 1_555 1_555
H22_3 C40_3 1_555 1_555
Zn7 N2_3 1_555 1_555
C40_3 N2_3 1_555 1_555
C37_4 C36_4 1_555 1_555
C38_4 C36_4 1_555 1_555
H20_4 C38_4 1_555 1_555
C39_3 C37_4 1_555 1_555
H21_3 C39_3 1_555 1_555
C40_4 C38_4 1_555 1_555
H22_4 C40_4 1_555 1_555
N2_4 C39_3 1_555 1_555
Zn7_2 N2_4 1_555 1_555
C40_4 N2_4 1_555 1_555
C1_4 C2_4 1_555 1_555
C2_4 C3_4 1_555 1_555
C3_4 H1_4 1_555 1_555
C7_4 C2_4 1_555 1_555
H3_4 C7_4 1_555 1_555
O1_4 C1_4 1_555 1_555
O2_4 C1_4 1_555 1_555
Zn4 O1_4 1_555 1_555
N4_4 Zn4 1_555 1_555
O14_4 Zn4 1_555 1_555
O18_4 Zn4 1_555 1_555
Zn6 O2_4 1_555 1_555
H2_4 C4_4 1_555 1_555
C5_4 C4_4 1_555 1_555
C6_4 C5_4 1_555 1_555
C8_4 C5_4 1_555 1_555
C9_4 C6_4 1_555 1_555
C10_4 C9_4 1_555 1_555
H4_4 C10_4 1_555 1_555
C11_4 C9_4 1_555 1_555
H5_4 C11_4 1_555 1_555
C12_4 C11_4 1_555 1_555
H6_4 C12_4 1_555 1_555
C13_4 C12_4 1_555 1_555
H7_4 C13_4 1_555 1_555
C14_4 C10_4 1_555 1_555
C15_4 C14_4 1_555 1_555
C16_4 C17_4 1_555 1_555
C17_4 C18_4 1_555 1_555
C18_4 H8_4 1_555 1_555
C19_4 C17_4 1_555 1_555
H9_4 C19_4 1_555 1_555
C20_4 C18_4 1_555 1_555
H10_4 C20_4 1_555 1_555
C21_4 C20_4 1_555 1_555
C22_4 C19_4 1_555 1_555
C23_4 C21_4 1_555 1_555
C24_4 C22_4 1_555 1_555
C25_4 C24_4 1_555 1_555
H11_4 C25_4 1_555 1_555
C26_4 C25_4 1_555 1_555
H12_4 C26_4 1_555 1_555
C27_4 C26_4 1_555 1_555
H13_4 C27_4 1_555 1_555
C28_4 C24_4 1_555 1_555
H14_4 C28_4 1_555 1_555
C29_4 C27_4 1_555 1_555
C30_4 C29_4 1_555 1_555
C31_4 H15_4 1_555 1_555
C32_4 H16_4 1_555 1_555
C33_4 C31_4 1_555 1_555
H17_4 C33_4 1_555 1_555
C34_4 C32_4 1_555 1_555
H18_4 C34_4 1_555 1_555
C35_4 C33_4 1_555 1_555
N1_4 C31_4 1_555 1_555
O3_4 C8_4 1_555 1_555
O4_4 C8_4 1_555 1_555
O5_4 C15_4 1_555 1_555
O6_4 C15_4 1_555 1_555
O7_4 C16_4 1_555 1_555
O8_4 C16_4 1_555 1_555
O17 C23_4 1_555 1_555
O10_4 C23_4 1_555 1_555
O19_2 C30_4 1_555 1_555
O20_2 C30_4 1_555 1_555
O13_4 C41_4 1_555 1_555
C41_4 H23_4 1_555 1_555
C42_4 H24_4 1_555 1_555
H25_4 C42_4 1_555 1_555
H26_4 C42_4 1_555 1_555
C43_4 H27_4 1_555 1_555
H28_4 C43_4 1_555 1_555
H29_2 C43_4 1_555 1_555
N3_4 C41_4 1_555 1_555
Zn2_4 N1_4 1_555 1_555
Zn9_2 O6_4 1_555 1_555
O15_4 Zn9_2 1_555 1_555
O16_4 Zn2_4 1_555 1_555
Zn7 O10_4 1_555 1_555
Zn8_4 O4_4 1_555 1_555
Zn10_4 O3_4 1_555 1_555
C13_4 C14_4 1_555 1_555
C21_4 C22_4 1_555 1_555
C28_4 C29_4 1_555 1_555
C32_4 N1_4 1_555 1_555
C34_4 C35_4 1_555 1_555
O5_4 Zn2_4 1_555 1_555
O7_4 Zn9_2 1_555 1_555
O8_4 Zn2_4 1_555 1_555
O13_4 Zn9_2 1_555 1_555
C42_4 N3_4 1_555 1_555
C43_4 N3_4 1_555 1_555
C1_5 C2_5 1_555 1_555
C2_5 C3_5 1_555 1_555
C3_5 H1_5 1_555 1_555
C4_5 C3_5 1_555 1_555
H2_5 C4_5 1_555 1_555
C5_5 C4_5 1_555 1_555
C6_5 C5_5 1_555 1_555
C7_5 C2_5 1_555 1_555
H3_5 C7_5 1_555 1_555
C8_5 C5_5 1_555 1_555
C9_5 C6_5 1_555 1_555
C11_5 C9_5 1_555 1_555
H5_5 C11_5 1_555 1_555
H21_4 C39_4 1_555 1_555
O1_5 C1_5 1_555 1_555
O14_3 C1_5 1_555 1_555
O15_3 C8_5 1_555 1_555
O16_3 C8_5 1_555 1_555
Zn5 O1_5 1_555 1_555
C6_5 C7_5 1_555 1_555
H4_5 C10_5 1_555 1_555
C13_5 C12_5 1_555 1_555
H7_5 C13_5 1_555 1_555
C14_5 C10_5 1_555 1_555
C15_5 C14_5 1_555 1_555
C16_5 C17_5 1_555 1_555
C17_5 C18_5 1_555 1_555
C18_5 H8_5 1_555 1_555
C19_5 C17_5 1_555 1_555
H9_5 C19_5 1_555 1_555
C20_5 C18_5 1_555 1_555
H10_5 C20_5 1_555 1_555
C21_5 C20_5 1_555 1_555
C22_5 C19_5 1_555 1_555
C23_5 C21_5 1_555 1_555
C24_5 C22_5 1_555 1_555
C25_5 C24_5 1_555 1_555
H11_5 C25_5 1_555 1_555
C26_5 C25_5 1_555 1_555
H12_5 C26_5 1_555 1_555
C27_5 C26_5 1_555 1_555
H13_5 C27_5 1_555 1_555
C28_5 C24_5 1_555 1_555
H14_5 C28_5 1_555 1_555
C29_5 C27_5 1_555 1_555
C31_5 H15_5 1_555 1_555
C32_5 H16_5 1_555 1_555
C33_5 C31_5 1_555 1_555
H17_5 C33_5 1_555 1_555
C34_5 C32_5 1_555 1_555
H18_5 C34_5 1_555 1_555
C35_5 C33_5 1_555 1_555
C36_5 C35_5 1_555 1_555
C37_5 C36_5 1_555 1_555
C38_5 C36_5 1_555 1_555
H20_5 C38_5 1_555 1_555
C40_5 C38_5 1_555 1_555
H22_5 C40_5 1_555 1_555
N1_5 C31_5 1_555 1_555
O5_5 C15_5 1_555 1_555
O6_5 C15_5 1_555 1_555
O7_5 C16_5 1_555 1_555
O8_5 C16_5 1_555 1_555
O9_3 C23_5 1_555 1_555
O18_2 C23_5 1_555 1_555
O13_5 C41_5 1_555 1_555
C41_5 H23_5 1_555 1_555
C42_5 H24_5 1_555 1_555
H25_5 C42_5 1_555 1_555
H26_5 C42_5 1_555 1_555
C43_5 H27_5 1_555 1_555
H28_5 C43_5 1_555 1_555
N3_5 C41_5 1_555 1_555
Zn8_3 N1_5 1_555 1_555
Zn10_3 O6_5 1_555 1_555
O19_3 Zn10_3 1_555 1_555
O20_3 Zn10_3 1_555 1_555
Zn7_2 O9_3 1_555 1_555
C13_5 C14_5 1_555 1_555
C21_5 C22_5 1_555 1_555
C28_5 C29_5 1_555 1_555
C32_5 N1_5 1_555 1_555
C34_5 C35_5 1_555 1_555
C40_5 N4 1_555 1_555
O5_5 Zn8_3 1_555 1_555
O7_5 Zn10_3 1_555 1_555
O8_5 Zn8_3 1_555 1_555
O13_5 Zn10_3 1_555 1_555
C42_5 N3_5 1_555 1_555
C43_5 N3_5 1_555 1_555
O11_3 C30_5 1_555 1_555
O12_3 C30_5 1_555 1_555
Zn10_4 O11_3 1_555 1_555
O12_3 Zn10_4 1_555 1_555
O19_3 C30_6 1_555 1_555
O20_3 C30_6 1_555 1_555
C1_6 C2_6 1_555 1_555
C2_6 C3_6 1_555 1_555
C3_6 H1_6 1_555 1_555
C4_6 C3_6 1_555 1_555
H2_6 C4_6 1_555 1_555
C5_6 C4_6 1_555 1_555
C6_6 C5_6 1_555 1_555
C7_6 C2_6 1_555 1_555
H3_6 C7_6 1_555 1_555
C8_6 C5_6 1_555 1_555
C9_6 C6_6 1_555 1_555
C10_6 C9_6 1_555 1_555
H4_6 C10_6 1_555 1_555
C11_6 C9_6 1_555 1_555
H5_6 C11_6 1_555 1_555
C12_6 C11_6 1_555 1_555
H6_6 C12_6 1_555 1_555
C13_6 C12_6 1_555 1_555
H7_6 C13_6 1_555 1_555
C14_6 C10_6 1_555 1_555
C15_6 C14_6 1_555 1_555
C16_6 C17_6 1_555 1_555
C17_6 C18_6 1_555 1_555
C18_6 H8_6 1_555 1_555
C19_6 C17_6 1_555 1_555
H9_6 C19_6 1_555 1_555
C20_6 C18_6 1_555 1_555
H10_6 C20_6 1_555 1_555
C21_6 C20_6 1_555 1_555
C22_6 C19_6 1_555 1_555
C23_6 C21_6 1_555 1_555
C24_6 C22_6 1_555 1_555
C25_6 C24_6 1_555 1_555
H11_6 C25_6 1_555 1_555
C26_6 C25_6 1_555 1_555
H12_6 C26_6 1_555 1_555
C27_6 C26_6 1_555 1_555
H13_6 C27_6 1_555 1_555
C28_6 C24_6 1_555 1_555
H14_6 C28_6 1_555 1_555
C29_6 C27_6 1_555 1_555
C31_6 H15_6 1_555 1_555
C32_6 H16_6 1_555 1_555
C33_6 C31_6 1_555 1_555
H17_6 C33_6 1_555 1_555
C34_6 C32_6 1_555 1_555
H18_6 C34_6 1_555 1_555
C35_6 C33_6 1_555 1_555
C36_6 C35_6 1_555 1_555
C37_6 C36_6 1_555 1_555
H19_6 C37_6 1_555 1_555
C38_6 C36_6 1_555 1_555
H20_6 C38_6 1_555 1_555
C39_5 C37_6 1_555 1_555
H21_5 C39_5 1_555 1_555
C40_6 C38_6 1_555 1_555
H22_6 C40_6 1_555 1_555
N1_6 C31_6 1_555 1_555
N4_2 C39_5 1_555 1_555
O1_6 C1_6 1_555 1_555
O14_4 C1_6 1_555 1_555
O15_4 C8_6 1_555 1_555
O16_4 C8_6 1_555 1_555
O5_6 C15_6 1_555 1_555
O6_6 C15_6 1_555 1_555
O7_6 C16_6 1_555 1_555
O8_6 C16_6 1_555 1_555
O9_4 C23_6 1_555 1_555
O18 C23_6 1_555 1_555
O13_6 C41_6 1_555 1_555
C41_6 H23_6 1_555 1_555
C42_6 H24_6 1_555 1_555
H25_6 C42_6 1_555 1_555
H26_6 C42_6 1_555 1_555
C43_6 H27_6 1_555 1_555
H28_6 C43_6 1_555 1_555
N3_6 C41_6 1_555 1_555
Zn6 O1_6 1_555 1_555
Zn8_4 N1_6 1_555 1_555
Zn10_4 O6_6 1_555 1_555
O17_4 Zn6 1_555 1_555
C6_6 C7_6 1_555 1_555
C13_6 C14_6 1_555 1_555
C21_6 C22_6 1_555 1_555
C28_6 C29_6 1_555 1_555
C32_6 N1_6 1_555 1_555
C34_6 C35_6 1_555 1_555
C40_6 N4_2 1_555 1_555
O5_6 Zn8_4 1_555 1_555
O7_6 Zn10_4 1_555 1_555
O8_6 Zn8_4 1_555 1_555
O13_6 Zn10_4 1_555 1_555
C42_6 N3_6 1_555 1_555
C43_6 N3_6 1_555 1_555
C37_7 C36_7 1_555 1_555
C38_7 C36_7 1_555 1_555
H20_7 C38_7 1_555 1_555
C40_7 C38_7 1_555 1_555
H22_7 C40_7 1_555 1_555
C40_7 N4_3 1_555 1_555
H2_7 C4_7 1_555 1_555
C5_7 C4_7 1_555 1_555
C6_7 C5_7 1_555 1_555
C8_7 C5_7 1_555 1_555
C9_7 C6_7 1_555 1_555
C11_7 C9_7 1_555 1_555
H5_7 C11_7 1_555 1_555
O15 C8_7 1_555 1_555
O16 C8_7 1_555 1_555
H4_7 C10_7 1_555 1_555
C13_7 C12_7 1_555 1_555
H7_7 C13_7 1_555 1_555
C14_7 C10_7 1_555 1_555
C15_7 C14_7 1_555 1_555
C16_7 C17_7 1_555 1_555
C17_7 C18_7 1_555 1_555
C18_7 H8_7 1_555 1_555
C19_7 C17_7 1_555 1_555
H9_7 C19_7 1_555 1_555
C20_7 C18_7 1_555 1_555
H10_7 C20_7 1_555 1_555
C21_7 C20_7 1_555 1_555
C22_7 C19_7 1_555 1_555
C23_7 C21_7 1_555 1_555
C24_7 C22_7 1_555 1_555
C25_7 C24_7 1_555 1_555
H11_7 C25_7 1_555 1_555
C26_7 C25_7 1_555 1_555
H12_7 C26_7 1_555 1_555
C27_7 C26_7 1_555 1_555
H13_7 C27_7 1_555 1_555
C28_7 C24_7 1_555 1_555
H14_7 C28_7 1_555 1_555
C29_7 C27_7 1_555 1_555
C30_7 C29_7 1_555 1_555
C31_7 H15_7 1_555 1_555
C32_7 H16_7 1_555 1_555
C33_7 C31_7 1_555 1_555
H17_7 C33_7 1_555 1_555
C34_7 C32_7 1_555 1_555
H18_7 C34_7 1_555 1_555
C35_7 C33_7 1_555 1_555
N1_7 C31_7 1_555 1_555
O5_7 C15_7 1_555 1_555
O6_7 C15_7 1_555 1_555
O7_7 C16_7 1_555 1_555
O8_7 C16_7 1_555 1_555
O17_4 C23_7 1_555 1_555
O18_4 C23_7 1_555 1_555
O11_4 C30_7 1_555 1_555
O12_4 C30_7 1_555 1_555
O13_7 C41_7 1_555 1_555
C41_7 H23_7 1_555 1_555
C42_7 H24_7 1_555 1_555
H25_7 C42_7 1_555 1_555
H26_7 C42_7 1_555 1_555
C43_7 H27_7 1_555 1_555
H28_7 C43_7 1_555 1_555
H29_3 C43_7 1_555 1_555
N3_7 C41_7 1_555 1_555
Zn8 N1_7 1_555 1_555
Zn10 O6_7 1_555 1_555
O19_4 Zn10 1_555 1_555
O20_4 Zn10 1_555 1_555
Zn10_2 O11_4 1_555 1_555
C13_7 C14_7 1_555 1_555
C21_7 C22_7 1_555 1_555
C28_7 C29_7 1_555 1_555
C32_7 N1_7 1_555 1_555
C34_7 C35_7 1_555 1_555
O5_7 Zn8 1_555 1_555
O7_7 Zn10 1_555 1_555
O8_7 Zn8 1_555 1_555
O12_4 Zn10_2 1_555 1_555
O13_7 Zn10 1_555 1_555
C42_7 N3_7 1_555 1_555
C43_7 N3_7 1_555 1_555
C1_7 C2_7 1_555 1_555
C2_7 C3_7 1_555 1_555
C3_7 H1_7 1_555 1_555
C7_7 C2_7 1_555 1_555
H3_7 C7_7 1_555 1_555
O1_7 C1_7 1_555 1_555
O14 C1_7 1_555 1_555
Zn7 O1_7 1_555 1_555
H2_8 C4_8 1_555 1_555
C5_8 C4_8 1_555 1_555
C6_8 C5_8 1_555 1_555
C8_8 C5_8 1_555 1_555
C9_8 C6_8 1_555 1_555
C10_8 C9_8 1_555 1_555
H4_8 C10_8 1_555 1_555
C11_8 C9_8 1_555 1_555
H5_8 C11_8 1_555 1_555
C12_8 C11_8 1_555 1_555
H6_8 C12_8 1_555 1_555
C13_8 C12_8 1_555 1_555
H7_8 C13_8 1_555 1_555
C14_8 C10_8 1_555 1_555
C15_8 C14_8 1_555 1_555
C16_8 C17_8 1_555 1_555
C17_8 C18_8 1_555 1_555
C18_8 H8_8 1_555 1_555
C19_8 C17_8 1_555 1_555
H9_8 C19_8 1_555 1_555
C20_8 C18_8 1_555 1_555
H10_8 C20_8 1_555 1_555
C21_8 C20_8 1_555 1_555
C22_8 C19_8 1_555 1_555
C23_8 C21_8 1_555 1_555
C24_8 C22_8 1_555 1_555
C25_8 C24_8 1_555 1_555
H11_8 C25_8 1_555 1_555
C26_8 C25_8 1_555 1_555
H12_8 C26_8 1_555 1_555
C27_8 C26_8 1_555 1_555
H13_8 C27_8 1_555 1_555
C28_8 C24_8 1_555 1_555
H14_8 C28_8 1_555 1_555
C29_8 C27_8 1_555 1_555
C30_8 C29_8 1_555 1_555
C31_8 H15_8 1_555 1_555
C32_8 H16_8 1_555 1_555
C33_8 C31_8 1_555 1_555
H17_8 C33_8 1_555 1_555
C34_8 C32_8 1_555 1_555
H18_8 C34_8 1_555 1_555
C35_8 C33_8 1_555 1_555
N1_8 C31_8 1_555 1_555
O15_2 C8_8 1_555 1_555
O16_2 C8_8 1_555 1_555
O5_8 C15_8 1_555 1_555
O6_8 C15_8 1_555 1_555
O7_8 C16_8 1_555 1_555
O8_8 C16_8 1_555 1_555
O17_3 C23_8 1_555 1_555
O18_3 C23_8 1_555 1_555
O19_4 C30_8 1_555 1_555
O20_4 C30_8 1_555 1_555
O13_8 C41_8 1_555 1_555
C41_8 H23_8 1_555 1_555
C42_8 H24_8 1_555 1_555
H25_8 C42_8 1_555 1_555
H26_8 C42_8 1_555 1_555
C43_8 H27_8 1_555 1_555
H28_8 C43_8 1_555 1_555
H29_4 C43_8 1_555 1_555
N3_8 C41_8 1_555 1_555
Zn8_2 N1_8 1_555 1_555
Zn10_2 O6_8 1_555 1_555
C13_8 C14_8 1_555 1_555
C21_8 C22_8 1_555 1_555
C28_8 C29_8 1_555 1_555
C32_8 N1_8 1_555 1_555
C34_8 C35_8 1_555 1_555
O5_8 Zn8_2 1_555 1_555
O7_8 Zn10_2 1_555 1_555
O8_8 Zn8_2 1_555 1_555
O13_8 Zn10_2 1_555 1_555
C42_8 N3_8 1_555 1_555
C43_8 N3_8 1_555 1_555
C1_8 C2_8 1_555 1_555
C2_8 C3_8 1_555 1_555
C3_8 H1_8 1_555 1_555
C7_8 C2_8 1_555 1_555
H3_8 C7_8 1_555 1_555
O1_8 C1_8 1_555 1_555
O14_2 C1_8 1_555 1_555
Zn7_2 O1_8 1_555 1_555
C37_8 C36_8 1_555 1_555
C38_8 C36_8 1_555 1_555
H20_8 C38_8 1_555 1_555
C39_6 C37_8 1_555 1_555
H21_6 C39_6 1_555 1_555
C40_8 C38_8 1_555 1_555
H22_8 C40_8 1_555 1_555
N4_4 C39_6 1_555 1_555
C40_8 N4_4 1_555 1_555
H21_7 C39_7 1_555 1_555
H21_8 C39_8 1_555 1_555

#END
