
###############################################################################
#
# This file contains modified crystal structure data generated from the
# MOF subset of the Cambridge Structural Database (CSD) v543 
# hosted by the Cambridge Crystallographic Data Centre (CCDC).
#
# This work is licensed under the Creative Commons
# Attribution-NonCommercial-ShareAlike 4.0 International License.
# To view a copy of this license, visit
# http://creativecommons.org/licenses/by-nc-sa/4.0/
# or send a letter to
# Creative Commons, PO Box 1866, Mountain View, CA 94042, USA.
#
# CIF created using the CSD Python API on 29 September 2022
# The structure has been converted into the P1 space group
# The structure has a 3D framework
# The original CSD entry XAWDUX01 is in the rhombohedral crystal system
# The framework has been calculated to contain at least 10.0% void space
# The void calculation uses a probe of radius 1.32A, grid spacing 0.4
#
###############################################################################

data_XAWDUX01
_chemical_formula_moiety         '(C468 H252 N36 O144 Zn36)n'
_symmetry_cell_setting           triclinic
_symmetry_space_group_name_H-M   'P 1'
_symmetry_Int_Tables_number      1
_space_group_name_Hall           'P 1'
loop_
_symmetry_equiv_pos_site_id
_symmetry_equiv_pos_as_xyz
1 x,y,z
_cell_length_a                   36.625(5)
_cell_length_b                   36.625(5)
_cell_length_c                   17.487(4)
_cell_angle_alpha                90
_cell_angle_beta                 90
_cell_angle_gamma                120
_cell_volume                     20314.3
loop_
_atom_site_label
_atom_site_type_symbol
_atom_site_fract_x
_atom_site_fract_y
_atom_site_fract_z
Zn1 Zn 0.46474(2) 0.47798(2) 0.16480(2)
Zn2 Zn 0.20634(2) 0.36028(2) 0.34220(2)
O1 O 0.24764(5) 0.37425(6) 0.51690(10)
O2 O 0.26398(5) 0.39392(6) 0.39384(10)
O3 O 0.46618(5) 0.52446(5) 0.60236(10)
O4 O 0.47559(5) 0.49072(5) 0.50214(10)
O5 O 0.52927(5) 0.50680(5) 0.16640(10)
O6 O 0.54624(5) 0.47905(5) 0.06514(9)
O7 O 0.75846(5) 0.64412(6) 0.16204(10)
O8 O 0.73917(5) 0.62523(6) 0.28461(10)
N1 N 0.45862(6) 0.50278(6) 0.26528(11)
N2 N 0.54937(6) 0.49262(6) 0.40592(11)
C1 C 0.27297(7) 0.39607(8) 0.46422(14)
C2 C 0.31924(7) 0.42842(8) 0.48531(14)
C3 C 0.33245(8) 0.43329(9) 0.56123(14)
H1 H 0.3126 0.4188 0.6008
C4 C 0.37572(8) 0.45994(8) 0.57929(14)
H2 H 0.3842 0.4638 0.6314
C5 C 0.40646(7) 0.48084(7) 0.52238(13)
C6 C 0.39320(7) 0.47816(7) 0.44577(13)
C7 C 0.34928(7) 0.45184(8) 0.42781(13)
H3 H 0.3402 0.4501 0.3764
C8 C 0.45341(7) 0.50107(7) 0.54401(14)
C9 C 0.42529(7) 0.50249(7) 0.38534(13)
C10 C 0.42772(7) 0.48265(7) 0.31785(13)
H4 H 0.4069 0.4541 0.3090
C11 C 0.45570(8) 0.54652(8) 0.39435(14)
H5 H 0.4540 0.5614 0.4374
C12 C 0.48759(8) 0.56754(8) 0.34086(14)
H6 H 0.5080 0.5965 0.3471
C13 C 0.48874(8) 0.54490(8) 0.27788(14)
H7 H 0.5110 0.5587 0.2420
C14 C 0.55559(7) 0.50209(7) 0.12455(13)
C15 C 0.60238(7) 0.52882(8) 0.14766(13)
C16 C 0.63233(8) 0.55336(9) 0.09254(13)
H8 H 0.6245 0.5496 0.0401
C17 C 0.67446(7) 0.58395(8) 0.11325(14)
H9 H 0.6942 0.6007 0.0750
C18 C 0.68653(7) 0.58916(8) 0.19021(14)
C19 C 0.65648(7) 0.56308(8) 0.24529(13)
H10 H 0.6646 0.5662 0.2975
C20 C 0.61471(7) 0.53251(7) 0.22531(13)
C21 C 0.73166(7) 0.62216(8) 0.21356(15)
C22 C 0.57645(7) 0.51866(7) 0.35190(13)
H11 H 0.5908 0.5482 0.3606
C23 C 0.58385(7) 0.50342(7) 0.28393(13)
C24 C 0.56143(8) 0.45832(8) 0.27176(14)
H12 H 0.5657 0.4470 0.2260
C25 C 0.53342(10) 0.43136(8) 0.32762(15)
H13 H 0.5187 0.4017 0.3206
C26 C 0.52783(8) 0.44925(8) 0.39340(15)
H14 H 0.5086 0.4313 0.4312
Zn3 Zn 0.52202(2) 0.53526(2) 0.66480(2)
Zn4 Zn 0.18869(2) 0.32009(3) 0.49813(2)
Zn5 Zn 0.79807(2) 0.65343(3) 0.33147(2)
Zn6 Zn 0.82061(3) 0.69361(2) 0.17553(2)
Zn7 Zn 0.48727(3) 0.46033(2) 0.00887(2)
Zn8 Zn 0.53967(2) 0.51273(3) 0.50887(2)
O9 O 0.45994(8) 0.41903(5) 0.18357(10)
O10 O 0.47554(5) 0.53382(5) 0.10236(10)
O11 O 0.14226(5) 0.31820(7) 0.33547(10)
O12 O 0.18762(5) 0.40052(7) 0.39847(9)
O13 O 0.21899(8) 0.31079(6) 0.32871(10)
O14 O 0.40584(5) 0.44727(8) 0.11794(10)
N3 N 0.21604(6) 0.39008(8) 0.23925(11)
O5_2 O 0.49320(5) 0.02247(7) 0.16640(10)
O6_2 O 0.52095(5) 0.06719(7) 0.06514(9)
O7_2 O 0.35588(6) 0.11434(8) 0.16204(10)
O8_2 O 0.37477(6) 0.11394(8) 0.28461(10)
N2_2 N 0.50738(6) 0.05675(8) 0.40592(11)
C14_2 C 0.49791(7) 0.05350(10) 0.12455(13)
C15_2 C 0.47118(8) 0.07356(11) 0.14766(13)
C16_2 C 0.44664(9) 0.07897(12) 0.09254(13)
H8_2 H 0.4504 0.0749 0.0401
C17_2 C 0.41605(8) 0.09051(11) 0.11325(14)
H9_2 H 0.3993 0.0935 0.0750
C18_2 C 0.41084(8) 0.09737(11) 0.19021(14)
C19_2 C 0.43692(8) 0.09340(11) 0.24529(13)
H10_2 H 0.4338 0.0984 0.2975
C20_2 C 0.46749(7) 0.08220(10) 0.22531(13)
C21_2 C 0.37784(8) 0.10950(11) 0.21356(15)
C22_2 C 0.48134(7) 0.05779(10) 0.35190(13)
H11_2 H 0.4518 0.0426 0.3606
C23_2 C 0.49658(7) 0.08043(10) 0.28393(13)
C24_2 C 0.54168(8) 0.10311(11) 0.27176(14)
H12_2 H 0.5530 0.1187 0.2260
C25_2 C 0.56864(8) 0.10206(13) 0.32762(15)
H13_2 H 0.5983 0.1170 0.3206
C26_2 C 0.55075(8) 0.07858(11) 0.39340(15)
H14_2 H 0.5687 0.0773 0.4312
Zn5_2 Zn 0.34657(3) 0.14465(4) 0.33147(2)
Zn6_2 Zn 0.30639(2) 0.12699(4) 0.17553(2)
Zn7_2 Zn 0.53967(2) 0.02695(4) 0.00887(2)
Zn8_2 Zn 0.48727(3) 0.02695(4) 0.50887(2)
O9_2 O 0.58097(5) 0.04092(9) 0.18357(10)
Zn1_2 Zn 0.52202(2) 0.98676(3) 0.16480(2)
Zn2_2 Zn 0.63972(2) 0.84606(3) 0.34220(2)
O1_2 O 0.62575(6) 0.87339(8) 0.51690(10)
O2_2 O 0.60608(6) 0.87006(8) 0.39384(10)
O3_2 O 0.47554(5) 0.94172(7) 0.60236(10)
O4_2 O 0.50928(5) 0.98487(7) 0.50214(10)
N1_2 N 0.49722(6) 0.95584(8) 0.26528(11)
C1_2 C 0.60393(8) 0.87690(11) 0.46422(14)
C2_2 C 0.57158(8) 0.89082(11) 0.48531(14)
C3_2 C 0.56671(9) 0.89916(12) 0.56123(14)
H1_2 H 0.5812 0.8938 0.6008
C4_2 C 0.54006(8) 0.91578(11) 0.57929(14)
H2_2 H 0.5362 0.9204 0.6314
C5_2 C 0.51916(7) 0.92562(10) 0.52238(13)
C6_2 C 0.52184(7) 0.91504(10) 0.44577(13)
C7_2 C 0.54816(8) 0.89744(11) 0.42781(13)
H3_2 H 0.5499 0.8901 0.3764
C8_2 C 0.49893(7) 0.95234(10) 0.54401(14)
C9_2 C 0.49751(7) 0.92280(10) 0.38534(13)
C10_2 C 0.51735(7) 0.94507(10) 0.31785(13)
H4_2 H 0.5459 0.9528 0.3090
C11_2 C 0.45348(8) 0.90918(11) 0.39435(14)
H5_2 H 0.4386 0.8926 0.4374
C12_2 C 0.43246(8) 0.92005(11) 0.34086(14)
H6_2 H 0.4035 0.9115 0.3471
C13_2 C 0.45510(8) 0.94384(11) 0.27788(14)
H7_2 H 0.4413 0.9523 0.2420
Zn3_2 Zn 0.46474(2) 0.98676(3) 0.66480(2)
Zn4_2 Zn 0.67991(3) 0.86859(4) 0.49813(2)
O10_2 O 0.46618(5) 0.94172(7) 0.10236(10)
O11_2 O 0.68180(7) 0.82405(9) 0.33547(10)
O12_2 O 0.59948(7) 0.78709(9) 0.39847(9)
O13_2 O 0.68921(6) 0.90821(10) 0.32871(10)
O14_2 O 0.55273(8) 0.95856(9) 0.11794(10)
N3_2 N 0.60992(8) 0.82595(10) 0.23925(11)
Zn1_3 Zn 0.01324(3) 0.53526(2) 0.16480(2)
Zn2_3 Zn 0.15394(3) 0.79366(2) 0.34220(2)
O1_3 O 0.12661(8) 0.75236(5) 0.51690(10)
O2_3 O 0.12994(8) 0.73602(5) 0.39384(10)
O3_3 O 0.05828(7) 0.53382(5) 0.60236(10)
O4_3 O 0.01513(7) 0.52441(5) 0.50214(10)
N1_3 N 0.04416(8) 0.54138(6) 0.26528(11)
C1_3 C 0.12310(11) 0.72703(7) 0.46422(14)
C2_3 C 0.10918(11) 0.68076(7) 0.48531(14)
C3_3 C 0.10084(12) 0.66755(8) 0.56123(14)
H1_3 H 0.1062 0.6874 0.6008
C4_3 C 0.08422(11) 0.62428(8) 0.57929(14)
H2_3 H 0.0796 0.6158 0.6314
C5_3 C 0.07438(10) 0.59354(7) 0.52238(13)
C6_3 C 0.08496(10) 0.60680(7) 0.44577(13)
C7_3 C 0.10256(11) 0.65072(7) 0.42781(13)
H3_3 H 0.1099 0.6598 0.3764
C8_3 C 0.04766(10) 0.54659(7) 0.54401(14)
C9_3 C 0.07720(10) 0.57471(7) 0.38534(13)
C10_3 C 0.05493(10) 0.57228(7) 0.31785(13)
H4_3 H 0.0472 0.5931 0.3090
C11_3 C 0.09082(11) 0.54430(8) 0.39435(14)
H5_3 H 0.1074 0.5460 0.4374
C12_3 C 0.07995(11) 0.51241(8) 0.34086(14)
H6_3 H 0.0885 0.4920 0.3471
C13_3 C 0.05616(11) 0.51126(8) 0.27788(14)
H7_3 H 0.0477 0.4890 0.2420
Zn3_3 Zn 0.01324(3) 0.47798(2) 0.66480(2)
Zn4_3 Zn 0.13141(4) 0.81131(2) 0.49813(2)
O10_3 O 0.05828(7) 0.52446(5) 0.10236(10)
O11_3 O 0.17595(9) 0.85774(5) 0.33547(10)
O12_3 O 0.21291(9) 0.81238(5) 0.39847(9)
O13_3 O 0.09179(10) 0.78101(8) 0.32871(10)
O14_3 O 0.04144(9) 0.59416(5) 0.11794(10)
N3_3 N 0.17405(10) 0.78396(6) 0.23925(11)
O5_3 O 0.97753(7) 0.47073(5) 0.16640(10)
O6_3 O 0.93281(7) 0.45376(5) 0.06514(9)
O7_3 O 0.88566(8) 0.24154(5) 0.16204(10)
O8_3 O 0.88606(8) 0.26083(5) 0.28461(10)
N2_3 N 0.94325(8) 0.45063(6) 0.40592(11)
C14_3 C 0.94650(10) 0.44441(7) 0.12455(13)
C15_3 C 0.92644(11) 0.39762(7) 0.14766(13)
C16_3 C 0.92103(12) 0.36767(8) 0.09254(13)
H8_3 H 0.9251 0.3755 0.0401
C17_3 C 0.90949(11) 0.32554(7) 0.11325(14)
H9_3 H 0.9065 0.3058 0.0750
C18_3 C 0.90263(11) 0.31347(7) 0.19021(14)
C19_3 C 0.90660(11) 0.34352(7) 0.24529(13)
H10_3 H 0.9016 0.3354 0.2975
C20_3 C 0.91780(10) 0.38529(7) 0.22531(13)
C21_3 C 0.89050(11) 0.26834(7) 0.21356(15)
C22_3 C 0.94221(10) 0.42355(7) 0.35190(13)
H11_3 H 0.9574 0.4092 0.3606
C23_3 C 0.91957(10) 0.41615(7) 0.28393(13)
C24_3 C 0.89689(11) 0.43857(8) 0.27176(14)
H12_3 H 0.8813 0.4343 0.2260
C25_3 C 0.89794(13) 0.46658(10) 0.32762(15)
H13_3 H 0.8830 0.4813 0.3206
C26_3 C 0.92142(11) 0.47217(8) 0.39340(15)
H14_3 H 0.9227 0.4914 0.4312
Zn5_3 Zn 0.85535(4) 0.20193(2) 0.33147(2)
Zn6_3 Zn 0.87301(4) 0.17939(3) 0.17553(2)
Zn7_3 Zn 0.97305(4) 0.51273(3) 0.00887(2)
Zn8_3 Zn 0.97305(4) 0.46033(2) 0.50887(2)
O9_3 O 0.95908(9) 0.54006(8) 0.18357(10)
O1_4 O 0.62575(6) 0.75236(5) 0.01690(10)
O4_4 O 0.50928(5) 0.52441(5) 0.00214(10)
C3_4 C 0.56671(9) 0.66755(8) 0.06123(14)
H1_4 H 0.5812 0.6874 0.1008
C4_4 C 0.54006(8) 0.62428(8) 0.07929(14)
H2_4 H 0.5362 0.6158 0.1314
C5_4 C 0.51916(7) 0.59354(7) 0.02238(13)
C8_4 C 0.49893(7) 0.54659(7) 0.04401(14)
Zn2_4 Zn 0.63972(2) 0.79366(2) 0.84220(2)
O2_4 O 0.60608(6) 0.73602(5) 0.89384(10)
O5_4 O 0.49320(5) 0.47073(5) 0.66640(10)
O6_4 O 0.52095(5) 0.45376(5) 0.56514(9)
O7_4 O 0.35588(6) 0.24154(5) 0.66204(10)
O8_4 O 0.37477(6) 0.26083(5) 0.78461(10)
N1_4 N 0.49722(6) 0.54138(6) 0.76528(11)
N2_4 N 0.50738(6) 0.45063(6) 0.90592(11)
C1_4 C 0.60393(8) 0.72703(7) 0.96422(14)
C2_4 C 0.57158(8) 0.68076(7) 0.98531(14)
C6_4 C 0.52184(7) 0.60680(7) 0.94577(13)
C7_4 C 0.54816(8) 0.65072(7) 0.92781(13)
H3_4 H 0.5499 0.6598 0.8764
C9_4 C 0.49751(7) 0.57471(7) 0.88534(13)
C10_4 C 0.51735(7) 0.57228(7) 0.81785(13)
H4_4 H 0.5459 0.5931 0.8090
C11_4 C 0.45348(8) 0.54430(8) 0.89435(14)
H5_4 H 0.4386 0.5460 0.9374
C12_4 C 0.43246(8) 0.51241(8) 0.84086(14)
H6_4 H 0.4035 0.4920 0.8471
C13_4 C 0.45510(8) 0.51126(8) 0.77788(14)
H7_4 H 0.4413 0.4890 0.7420
C14_4 C 0.49791(7) 0.44441(7) 0.62455(13)
C15_4 C 0.47118(8) 0.39762(7) 0.64766(13)
C16_4 C 0.44664(9) 0.36767(8) 0.59254(13)
H8_4 H 0.4504 0.3755 0.5401
C17_4 C 0.41605(8) 0.32554(7) 0.61325(14)
H9_4 H 0.3993 0.3058 0.5750
C18_4 C 0.41084(8) 0.31347(7) 0.69021(14)
C19_4 C 0.43692(8) 0.34352(7) 0.74529(13)
H10_4 H 0.4338 0.3354 0.7975
C20_4 C 0.46749(7) 0.38529(7) 0.72531(13)
C21_4 C 0.37784(8) 0.26834(7) 0.71356(15)
C22_4 C 0.48134(7) 0.42355(7) 0.85190(13)
H11_4 H 0.4518 0.4092 0.8606
C23_4 C 0.49658(7) 0.41615(7) 0.78393(13)
C24_4 C 0.54168(8) 0.43857(8) 0.77176(14)
H12_4 H 0.5530 0.4343 0.7260
C25_4 C 0.56864(8) 0.46658(10) 0.82762(15)
H13_4 H 0.5983 0.4813 0.8206
C26_4 C 0.55075(8) 0.47217(8) 0.89340(15)
H14_4 H 0.5687 0.4914 0.9312
Zn4_4 Zn 0.67991(3) 0.81131(2) 0.99813(2)
Zn5_4 Zn 0.34657(3) 0.20193(2) 0.83147(2)
Zn6_4 Zn 0.30639(2) 0.17939(3) 0.67553(2)
O9_4 O 0.58097(5) 0.54006(8) 0.68357(10)
O11_4 O 0.68180(7) 0.85774(5) 0.83547(10)
O12_4 O 0.59948(7) 0.81238(5) 0.89847(9)
O13_4 O 0.68921(6) 0.78101(8) 0.82871(10)
O14_4 O 0.55273(8) 0.59416(5) 0.61794(10)
N3_4 N 0.60992(8) 0.78396(6) 0.73925(11)
O5_5 O 0.52927(5) 0.02247(7) 0.66640(10)
O6_5 O 0.54624(5) 0.06719(7) 0.56514(9)
O7_5 O 0.75846(5) 0.11434(8) 0.66204(10)
O8_5 O 0.73917(5) 0.11394(8) 0.78461(10)
N2_5 N 0.54937(6) 0.05675(8) 0.90592(11)
C14_5 C 0.55559(7) 0.05350(10) 0.62455(13)
C15_5 C 0.60238(7) 0.07356(11) 0.64766(13)
C16_5 C 0.63233(8) 0.07897(12) 0.59254(13)
H8_5 H 0.6245 0.0749 0.5401
C17_5 C 0.67446(7) 0.09051(11) 0.61325(14)
H9_5 H 0.6942 0.0935 0.5750
C18_5 C 0.68653(7) 0.09737(11) 0.69021(14)
C19_5 C 0.65648(7) 0.09340(11) 0.74529(13)
H10_5 H 0.6646 0.0984 0.7975
C20_5 C 0.61471(7) 0.08220(10) 0.72531(13)
C21_5 C 0.73166(7) 0.10950(11) 0.71356(15)
C22_5 C 0.57645(7) 0.05779(10) 0.85190(13)
H11_5 H 0.5908 0.0426 0.8606
C23_5 C 0.58385(7) 0.08043(10) 0.78393(13)
C24_5 C 0.56143(8) 0.10311(11) 0.77176(14)
H12_5 H 0.5657 0.1187 0.7260
C25_5 C 0.53342(10) 0.10206(13) 0.82762(15)
H13_5 H 0.5187 0.1170 0.8206
C26_5 C 0.52783(8) 0.07858(11) 0.89340(15)
H14_5 H 0.5086 0.0773 0.9312
Zn5_5 Zn 0.79807(2) 0.14465(4) 0.83147(2)
Zn6_5 Zn 0.82061(3) 0.12699(4) 0.67553(2)
O9_5 O 0.45994(8) 0.04092(9) 0.68357(10)
O1_5 O 0.24764(5) 0.87339(8) 0.01690(10)
O4_5 O 0.47559(5) 0.98487(7) 0.00214(10)
C3_5 C 0.33245(8) 0.89916(12) 0.06123(14)
H1_5 H 0.3126 0.8938 0.1008
C4_5 C 0.37572(8) 0.91578(11) 0.07929(14)
H2_5 H 0.3842 0.9204 0.1314
C5_5 C 0.40646(7) 0.92562(10) 0.02238(13)
C8_5 C 0.45341(7) 0.95234(10) 0.04401(14)
Zn2_5 Zn 0.20634(2) 0.84606(3) 0.84220(2)
O2_5 O 0.26398(5) 0.87006(8) 0.89384(10)
N1_5 N 0.45862(6) 0.95584(8) 0.76528(11)
C1_5 C 0.27297(7) 0.87690(11) 0.96422(14)
C2_5 C 0.31924(7) 0.89082(11) 0.98531(14)
C6_5 C 0.39320(7) 0.91504(10) 0.94577(13)
C7_5 C 0.34928(7) 0.89744(11) 0.92781(13)
H3_5 H 0.3402 0.8901 0.8764
C9_5 C 0.42529(7) 0.92280(10) 0.88534(13)
C10_5 C 0.42772(7) 0.94507(10) 0.81785(13)
H4_5 H 0.4069 0.9528 0.8090
C11_5 C 0.45570(8) 0.90918(11) 0.89435(14)
H5_5 H 0.4540 0.8926 0.9374
C12_5 C 0.48759(8) 0.92005(11) 0.84086(14)
H6_5 H 0.5080 0.9115 0.8471
C13_5 C 0.48874(8) 0.94384(11) 0.77788(14)
H7_5 H 0.5110 0.9523 0.7420
Zn4_5 Zn 0.18869(2) 0.86859(4) 0.99813(2)
O11_5 O 0.14226(5) 0.82405(9) 0.83547(10)
O12_5 O 0.18762(5) 0.78709(9) 0.89847(9)
O13_5 O 0.21899(8) 0.90821(10) 0.82871(10)
O14_5 O 0.40584(5) 0.95856(9) 0.61794(10)
N3_5 N 0.21604(6) 0.82595(10) 0.73925(11)
O1_6 O 0.12661(8) 0.37425(6) 0.01690(10)
O4_6 O 0.01513(7) 0.49072(5) 0.00214(10)
C3_6 C 0.10084(12) 0.43329(9) 0.06123(14)
H1_6 H 0.1062 0.4188 0.1008
C4_6 C 0.08422(11) 0.45994(8) 0.07929(14)
H2_6 H 0.0796 0.4638 0.1314
C5_6 C 0.07438(10) 0.48084(7) 0.02238(13)
C8_6 C 0.04766(10) 0.50107(7) 0.04401(14)
Zn2_6 Zn 0.15394(3) 0.36028(2) 0.84220(2)
O2_6 O 0.12994(8) 0.39392(6) 0.89384(10)
N1_6 N 0.04416(8) 0.50278(6) 0.76528(11)
C1_6 C 0.12310(11) 0.39607(8) 0.96422(14)
C2_6 C 0.10918(11) 0.42842(8) 0.98531(14)
C6_6 C 0.08496(10) 0.47816(7) 0.94577(13)
C7_6 C 0.10256(11) 0.45184(8) 0.92781(13)
H3_6 H 0.1099 0.4501 0.8764
C9_6 C 0.07720(10) 0.50249(7) 0.88534(13)
C10_6 C 0.05493(10) 0.48265(7) 0.81785(13)
H4_6 H 0.0472 0.4541 0.8090
C11_6 C 0.09082(11) 0.54652(8) 0.89435(14)
H5_6 H 0.1074 0.5614 0.9374
C12_6 C 0.07995(11) 0.56754(8) 0.84086(14)
H6_6 H 0.0885 0.5965 0.8471
C13_6 C 0.05616(11) 0.54490(8) 0.77788(14)
H7_6 H 0.0477 0.5587 0.7420
Zn4_6 Zn 0.13141(4) 0.32009(3) 0.99813(2)
O11_6 O 0.17595(9) 0.31820(7) 0.83547(10)
O12_6 O 0.21291(9) 0.40052(7) 0.89847(9)
O13_6 O 0.09179(10) 0.31079(6) 0.82871(10)
O14_6 O 0.04144(9) 0.44727(8) 0.61794(10)
N3_6 N 0.17405(10) 0.39008(8) 0.73925(11)
O5_6 O 0.97753(7) 0.50680(5) 0.66640(10)
O6_6 O 0.93281(7) 0.47905(5) 0.56514(9)
O7_6 O 0.88566(8) 0.64412(6) 0.66204(10)
O8_6 O 0.88606(8) 0.62523(6) 0.78461(10)
N2_6 N 0.94325(8) 0.49262(6) 0.90592(11)
C14_6 C 0.94650(10) 0.50209(7) 0.62455(13)
C15_6 C 0.92644(11) 0.52882(8) 0.64766(13)
C16_6 C 0.92103(12) 0.55336(9) 0.59254(13)
H8_6 H 0.9251 0.5496 0.5401
C17_6 C 0.90949(11) 0.58395(8) 0.61325(14)
H9_6 H 0.9065 0.6007 0.5750
C18_6 C 0.90263(11) 0.58916(8) 0.69021(14)
C19_6 C 0.90660(11) 0.56308(8) 0.74529(13)
H10_6 H 0.9016 0.5662 0.7975
C20_6 C 0.91780(10) 0.53251(7) 0.72531(13)
C21_6 C 0.89050(11) 0.62216(8) 0.71356(15)
C22_6 C 0.94221(10) 0.51866(7) 0.85190(13)
H11_6 H 0.9574 0.5482 0.8606
C23_6 C 0.91957(10) 0.50342(7) 0.78393(13)
C24_6 C 0.89689(11) 0.45832(8) 0.77176(14)
H12_6 H 0.8813 0.4470 0.7260
C25_6 C 0.89794(13) 0.43136(8) 0.82762(15)
H13_6 H 0.8830 0.4017 0.8206
C26_6 C 0.92142(11) 0.44925(8) 0.89340(15)
H14_6 H 0.9227 0.4313 0.9312
Zn5_6 Zn 0.85535(4) 0.65343(3) 0.83147(2)
Zn6_6 Zn 0.87301(4) 0.69361(2) 0.67553(2)
O9_6 O 0.95908(9) 0.41903(5) 0.68357(10)
O3_4 O 0.13285(5) 0.85779(5) 0.93569(10)
O5_7 O 0.19594(5) 0.84013(5) 0.49973(10)
O7_7 O 0.42513(5) 0.97745(6) 0.49537(10)
N1_7 N 0.12529(6) 0.83611(6) 0.59861(11)
C4_7 C 0.04239(8) 0.79327(8) 0.91262(14)
H2_7 H 0.0509 0.7971 0.9647
C5_7 C 0.07313(7) 0.81417(7) 0.85571(13)
C6_7 C 0.05987(7) 0.81149(7) 0.77910(13)
C7_7 C 0.01595(7) 0.78517(8) 0.76114(13)
H3_7 H 0.0069 0.7834 0.7097
C8_7 C 0.12008(7) 0.83440(7) 0.87734(14)
C9_7 C 0.09196(7) 0.83582(7) 0.71867(13)
C10_7 C 0.09439(7) 0.81598(7) 0.65118(13)
H4_7 H 0.0736 0.7874 0.6423
C11_7 C 0.12237(8) 0.87985(8) 0.72768(14)
H5_7 H 0.1207 0.8947 0.7707
C12_7 C 0.15426(8) 0.90087(8) 0.67419(14)
H6_7 H 0.1747 0.9298 0.6804
C13_7 C 0.15541(8) 0.87823(8) 0.61121(14)
H7_7 H 0.1777 0.8920 0.5753
C14_7 C 0.22226(7) 0.83542(7) 0.45788(13)
C15_7 C 0.26905(7) 0.86215(8) 0.48099(13)
C16_7 C 0.29900(8) 0.88669(9) 0.42587(13)
H8_7 H 0.2912 0.8829 0.3734
C17_7 C 0.34113(7) 0.91728(8) 0.44658(14)
H9_7 H 0.3609 0.9340 0.4083
C18_7 C 0.35320(7) 0.92249(8) 0.52354(14)
C19_7 C 0.32315(7) 0.89641(8) 0.57862(13)
H10_7 H 0.3313 0.8995 0.6308
C20_7 C 0.28138(7) 0.86584(7) 0.55864(13)
C21_7 C 0.39833(7) 0.95549(8) 0.54689(15)
C22_7 C 0.24312(7) 0.85199(7) 0.68523(13)
H11_7 H 0.2575 0.8815 0.6939
C23_7 C 0.25052(7) 0.83675(7) 0.61726(13)
C24_7 C 0.22810(8) 0.79165(8) 0.60509(14)
H12_7 H 0.2324 0.7803 0.5593
C25_7 C 0.20009(10) 0.76469(8) 0.66095(15)
H13_7 H 0.1854 0.7350 0.6539
C26_7 C 0.19450(8) 0.78258(8) 0.72673(15)
H14_7 H 0.1753 0.7646 0.7645
O10_4 O 0.14221(5) 0.86715(5) 0.43569(10)
O14_7 O 0.07250(5) 0.78061(8) 0.45128(10)
O1_7 O 0.91431(5) 0.70758(6) 0.85023(10)
O2_7 O 0.93065(5) 0.72725(6) 0.72717(10)
C1_7 C 0.93964(7) 0.72940(8) 0.79755(14)
C2_7 C 0.98591(7) 0.76175(8) 0.81864(14)
C3_7 C 0.99912(8) 0.76662(9) 0.89456(14)
H1_7 H 0.9793 0.7521 0.9341
O11_7 O 0.80892(5) 0.65154(7) 0.66881(10)
O12_7 O 0.85428(5) 0.73386(7) 0.73181(9)
N3_7 N 0.88270(6) 0.72342(8) 0.57259(11)
O1_8 O 0.29242(6) 0.20672(8) 0.85023(10)
O2_8 O 0.27275(6) 0.20339(8) 0.72717(10)
O3_5 O 0.14221(5) 0.27505(7) 0.93569(10)
O5_8 O 0.15987(5) 0.35580(7) 0.49973(10)
O7_8 O 0.02255(6) 0.44767(8) 0.49537(10)
N1_8 N 0.16389(6) 0.28917(8) 0.59861(11)
C1_8 C 0.27060(8) 0.21023(11) 0.79755(14)
C2_8 C 0.23825(8) 0.22415(11) 0.81864(14)
C3_8 C 0.23338(9) 0.23249(12) 0.89456(14)
H1_8 H 0.2479 0.2271 0.9341
C4_8 C 0.20673(8) 0.24911(11) 0.91262(14)
H2_8 H 0.2029 0.2537 0.9647
C5_8 C 0.18583(7) 0.25895(10) 0.85571(13)
C6_8 C 0.18851(7) 0.24837(10) 0.77910(13)
C7_8 C 0.21483(8) 0.23077(11) 0.76114(13)
H3_8 H 0.2166 0.2234 0.7097
C8_8 C 0.16560(7) 0.28567(10) 0.87734(14)
C9_8 C 0.16418(7) 0.25613(10) 0.71867(13)
C10_8 C 0.18402(7) 0.27840(10) 0.65118(13)
H4_8 H 0.2126 0.2861 0.6423
C11_8 C 0.12015(8) 0.24251(11) 0.72768(14)
H5_8 H 0.1053 0.2259 0.7707
C12_8 C 0.09913(8) 0.25338(11) 0.67419(14)
H6_8 H 0.0702 0.2448 0.6804
C13_8 C 0.12177(8) 0.27717(11) 0.61121(14)
H7_8 H 0.1080 0.2856 0.5753
C14_8 C 0.16458(7) 0.38683(10) 0.45788(13)
C15_8 C 0.13785(8) 0.40689(11) 0.48099(13)
C16_8 C 0.11331(9) 0.41230(12) 0.42587(13)
H8_8 H 0.1171 0.4082 0.3734
C17_8 C 0.08272(8) 0.42384(11) 0.44658(14)
H9_8 H 0.0660 0.4268 0.4083
C18_8 C 0.07751(8) 0.43070(11) 0.52354(14)
C19_8 C 0.10359(8) 0.42673(11) 0.57862(13)
H10_8 H 0.1005 0.4317 0.6308
C20_8 C 0.13416(7) 0.41553(10) 0.55864(13)
C21_8 C 0.04451(8) 0.44283(11) 0.54689(15)
C22_8 C 0.14801(7) 0.39112(10) 0.68523(13)
H11_8 H 0.1185 0.3759 0.6939
C23_8 C 0.16325(7) 0.41376(10) 0.61726(13)
C24_8 C 0.20835(8) 0.43644(11) 0.60509(14)
H12_8 H 0.2197 0.4520 0.5593
C25_8 C 0.23531(8) 0.43539(13) 0.66095(15)
H13_8 H 0.2650 0.4503 0.6539
C26_8 C 0.21742(8) 0.41191(11) 0.72673(15)
H14_8 H 0.2354 0.4106 0.7645
O10_5 O 0.13285(5) 0.27505(7) 0.43569(10)
O11_8 O 0.34846(7) 0.15739(9) 0.66881(10)
O12_8 O 0.26614(7) 0.12043(9) 0.73181(9)
O14_8 O 0.21939(8) 0.29190(9) 0.45128(10)
N3_8 N 0.27658(8) 0.15929(10) 0.57259(11)
O1_9 O 0.79328(8) 0.08569(5) 0.85023(10)
O2_9 O 0.79661(8) 0.06935(5) 0.72717(10)
C1_9 C 0.78977(11) 0.06036(7) 0.79755(14)
C2_9 C 0.77585(11) 0.01409(7) 0.81864(14)
C3_9 C 0.76751(12) 0.00088(8) 0.89456(14)
H1_9 H 0.7729 0.0207 0.9341
O11_9 O 0.84261(9) 0.19108(5) 0.66881(10)
O12_9 O 0.87957(9) 0.14572(5) 0.73181(9)
N3_9 N 0.84071(10) 0.11730(6) 0.57259(11)
O3_6 O 0.72495(7) 0.86715(5) 0.93569(10)
O5_9 O 0.64420(7) 0.80406(5) 0.49973(10)
O7_9 O 0.55233(8) 0.57487(5) 0.49537(10)
N1_9 N 0.71083(8) 0.87471(6) 0.59861(11)
C4_9 C 0.75089(11) 0.95761(8) 0.91262(14)
H2_9 H 0.7463 0.9491 0.9647
C5_9 C 0.74105(10) 0.92687(7) 0.85571(13)
C6_9 C 0.75163(10) 0.94013(7) 0.77910(13)
C7_9 C 0.76923(11) 0.98405(7) 0.76114(13)
H3_9 H 0.7766 0.9931 0.7097
C8_9 C 0.71433(10) 0.87992(7) 0.87734(14)
C9_9 C 0.74387(10) 0.90804(7) 0.71867(13)
C10_9 C 0.72160(10) 0.90561(7) 0.65118(13)
H4_9 H 0.7139 0.9264 0.6423
C11_9 C 0.75749(11) 0.87763(8) 0.72768(14)
H5_9 H 0.7741 0.8793 0.7707
C12_9 C 0.74662(11) 0.84574(8) 0.67419(14)
H6_9 H 0.7552 0.8253 0.6804
C13_9 C 0.72283(11) 0.84459(8) 0.61121(14)
H7_9 H 0.7144 0.8223 0.5753
C14_9 C 0.61317(10) 0.77774(7) 0.45788(13)
C15_9 C 0.59311(11) 0.73095(7) 0.48099(13)
C16_9 C 0.58770(12) 0.70100(8) 0.42587(13)
H8_9 H 0.5918 0.7088 0.3734
C17_9 C 0.57616(11) 0.65887(7) 0.44658(14)
H9_9 H 0.5732 0.6391 0.4083
C18_9 C 0.56930(11) 0.64680(7) 0.52354(14)
C19_9 C 0.57327(11) 0.67685(7) 0.57862(13)
H10_9 H 0.5683 0.6687 0.6308
C20_9 C 0.58447(10) 0.71862(7) 0.55864(13)
C21_9 C 0.55717(11) 0.60167(7) 0.54689(15)
C22_9 C 0.60888(10) 0.75688(7) 0.68523(13)
H11_9 H 0.6241 0.7425 0.6939
C23_9 C 0.58624(10) 0.74948(7) 0.61726(13)
C24_9 C 0.56356(11) 0.77190(8) 0.60509(14)
H12_9 H 0.5480 0.7676 0.5593
C25_9 C 0.56461(13) 0.79991(10) 0.66095(15)
H13_9 H 0.5497 0.8146 0.6539
C26_9 C 0.58809(11) 0.80550(8) 0.72673(15)
H14_9 H 0.5894 0.8247 0.7645
O10_6 O 0.72495(7) 0.85779(5) 0.43569(10)
O14_9 O 0.70810(9) 0.92750(5) 0.45128(10)
O1_10 O 0.29242(6) 0.08569(5) 0.35023(10)
O2_10 O 0.27275(6) 0.06935(5) 0.22717(10)
C1_10 C 0.27060(8) 0.06036(7) 0.29755(14)
C2_10 C 0.23825(8) 0.01409(7) 0.31864(14)
C3_10 C 0.23338(9) 0.00088(8) 0.39456(14)
H1_10 H 0.2479 0.0207 0.4341
O11_10 O 0.34846(7) 0.19108(5) 0.16881(10)
O12_10 O 0.26614(7) 0.14572(5) 0.23181(9)
N3_10 N 0.27658(8) 0.11730(6) 0.07259(11)
N1_10 N 0.16389(6) 0.87471(6) 0.09861(11)
C4_10 C 0.20673(8) 0.95761(8) 0.41262(14)
H2_10 H 0.2029 0.9491 0.4647
C5_10 C 0.18583(7) 0.92687(7) 0.35571(13)
C6_10 C 0.18851(7) 0.94013(7) 0.27910(13)
C7_10 C 0.21483(8) 0.98405(7) 0.26114(13)
H3_10 H 0.2166 0.9931 0.2097
C8_10 C 0.16560(7) 0.87992(7) 0.37734(14)
C9_10 C 0.16418(7) 0.90804(7) 0.21867(13)
C10_10 C 0.18402(7) 0.90561(7) 0.15118(13)
H4_10 H 0.2126 0.9264 0.1423
C11_10 C 0.12015(8) 0.87763(8) 0.22768(14)
H5_10 H 0.1053 0.8793 0.2707
C12_10 C 0.09913(8) 0.84574(8) 0.17419(14)
H6_10 H 0.0702 0.8253 0.1804
C13_10 C 0.12177(8) 0.84459(8) 0.11121(14)
H7_10 H 0.1080 0.8223 0.0753
C18_10 C 0.07751(8) 0.64680(7) 0.02354(14)
C19_10 C 0.10359(8) 0.67685(7) 0.07862(13)
H10_10 H 0.1005 0.6687 0.1308
C20_10 C 0.13416(7) 0.71862(7) 0.05864(13)
C21_10 C 0.04451(8) 0.60167(7) 0.04689(15)
C22_10 C 0.14801(7) 0.75688(7) 0.18523(13)
H11_10 H 0.1185 0.7425 0.1939
C23_10 C 0.16325(7) 0.74948(7) 0.11726(13)
C24_10 C 0.20835(8) 0.77190(8) 0.10509(14)
H12_10 H 0.2197 0.7676 0.0593
C25_10 C 0.23531(8) 0.79991(10) 0.16095(15)
H13_10 H 0.2650 0.8146 0.1539
C26_10 C 0.21742(8) 0.80550(8) 0.22673(15)
H14_10 H 0.2354 0.8247 0.2645
O5_10 O 0.15987(5) 0.80406(5) 0.99973(10)
O7_10 O 0.02255(6) 0.57487(5) 0.99537(10)
C14_10 C 0.16458(7) 0.77774(7) 0.95788(13)
C15_10 C 0.13785(8) 0.73095(7) 0.98099(13)
C16_10 C 0.11331(9) 0.70100(8) 0.92587(13)
H8_10 H 0.1171 0.7088 0.8734
C17_10 C 0.08272(8) 0.65887(7) 0.94658(14)
H9_10 H 0.0660 0.6391 0.9083
O14_10 O 0.21939(8) 0.92750(5) 0.95128(10)
N1_11 N 0.12529(6) 0.28917(8) 0.09861(11)
C4_11 C 0.04239(8) 0.24911(11) 0.41262(14)
H2_11 H 0.0509 0.2537 0.4647
C5_11 C 0.07313(7) 0.25895(10) 0.35571(13)
C6_11 C 0.05987(7) 0.24837(10) 0.27910(13)
C7_11 C 0.01595(7) 0.23077(11) 0.26114(13)
H3_11 H 0.0069 0.2234 0.2097
C8_11 C 0.12008(7) 0.28567(10) 0.37734(14)
C9_11 C 0.09196(7) 0.25613(10) 0.21867(13)
C10_11 C 0.09439(7) 0.27840(10) 0.15118(13)
H4_11 H 0.0736 0.2861 0.1423
C11_11 C 0.12237(8) 0.24251(11) 0.22768(14)
H5_11 H 0.1207 0.2259 0.2707
C12_11 C 0.15426(8) 0.25338(11) 0.17419(14)
H6_11 H 0.1747 0.2448 0.1804
C13_11 C 0.15541(8) 0.27717(11) 0.11121(14)
H7_11 H 0.1777 0.2856 0.0753
C18_11 C 0.35320(7) 0.43070(11) 0.02354(14)
C19_11 C 0.32315(7) 0.42673(11) 0.07862(13)
H10_11 H 0.3313 0.4317 0.1308
C20_11 C 0.28138(7) 0.41553(10) 0.05864(13)
C21_11 C 0.39833(7) 0.44283(11) 0.04689(15)
C22_11 C 0.24312(7) 0.39112(10) 0.18523(13)
H11_11 H 0.2575 0.3759 0.1939
C23_11 C 0.25052(7) 0.41376(10) 0.11726(13)
C24_11 C 0.22810(8) 0.43644(11) 0.10509(14)
H12_11 H 0.2324 0.4520 0.0593
C25_11 C 0.20009(10) 0.43539(13) 0.16095(15)
H13_11 H 0.1854 0.4503 0.1539
C26_11 C 0.19450(8) 0.41191(11) 0.22673(15)
H14_11 H 0.1753 0.4106 0.2645
O5_11 O 0.19594(5) 0.35580(7) 0.99973(10)
O7_11 O 0.42513(5) 0.44767(8) 0.99537(10)
C14_11 C 0.22226(7) 0.38683(10) 0.95788(13)
C15_11 C 0.26905(7) 0.40689(11) 0.98099(13)
C16_11 C 0.29900(8) 0.41230(12) 0.92587(13)
H8_11 H 0.2912 0.4082 0.8734
C17_11 C 0.34113(7) 0.42384(11) 0.94658(14)
H9_11 H 0.3609 0.4268 0.9083
O14_11 O 0.07250(5) 0.29190(9) 0.95128(10)
O1_11 O 0.91431(5) 0.20672(8) 0.35023(10)
O2_11 O 0.93065(5) 0.20339(8) 0.22717(10)
C1_11 C 0.93964(7) 0.21023(11) 0.29755(14)
C2_11 C 0.98591(7) 0.22415(11) 0.31864(14)
C3_11 C 0.99912(8) 0.23249(12) 0.39456(14)
H1_11 H 0.9793 0.2271 0.4341
O11_11 O 0.80892(5) 0.15739(9) 0.16881(10)
O12_11 O 0.85428(5) 0.12043(9) 0.23181(9)
N3_11 N 0.88270(6) 0.15929(10) 0.07259(11)
O1_12 O 0.79328(8) 0.70758(6) 0.35023(10)
O2_12 O 0.79661(8) 0.72725(6) 0.22717(10)
N1_12 N 0.71083(8) 0.83611(6) 0.09861(11)
C1_12 C 0.78977(11) 0.72940(8) 0.29755(14)
C2_12 C 0.77585(11) 0.76175(8) 0.31864(14)
C3_12 C 0.76751(12) 0.76662(9) 0.39456(14)
H1_12 H 0.7729 0.7521 0.4341
C4_12 C 0.75089(11) 0.79327(8) 0.41262(14)
H2_12 H 0.7463 0.7971 0.4647
C5_12 C 0.74105(10) 0.81417(7) 0.35571(13)
C6_12 C 0.75163(10) 0.81149(7) 0.27910(13)
C7_12 C 0.76923(11) 0.78517(8) 0.26114(13)
H3_12 H 0.7766 0.7834 0.2097
C8_12 C 0.71433(10) 0.83440(7) 0.37734(14)
C9_12 C 0.74387(10) 0.83582(7) 0.21867(13)
C10_12 C 0.72160(10) 0.81598(7) 0.15118(13)
H4_12 H 0.7139 0.7874 0.1423
C11_12 C 0.75749(11) 0.87985(8) 0.22768(14)
H5_12 H 0.7741 0.8947 0.2707
C12_12 C 0.74662(11) 0.90087(8) 0.17419(14)
H6_12 H 0.7552 0.9298 0.1804
C13_12 C 0.72283(11) 0.87823(8) 0.11121(14)
H7_12 H 0.7144 0.8920 0.0753
C18_12 C 0.56930(11) 0.92249(8) 0.02354(14)
C19_12 C 0.57327(11) 0.89641(8) 0.07862(13)
H10_12 H 0.5683 0.8995 0.1308
C20_12 C 0.58447(10) 0.86584(7) 0.05864(13)
C21_12 C 0.55717(11) 0.95549(8) 0.04689(15)
C22_12 C 0.60888(10) 0.85199(7) 0.18523(13)
H11_12 H 0.6241 0.8815 0.1939
C23_12 C 0.58624(10) 0.83675(7) 0.11726(13)
C24_12 C 0.56356(11) 0.79165(8) 0.10509(14)
H12_12 H 0.5480 0.7803 0.0593
C25_12 C 0.56461(13) 0.76469(8) 0.16095(15)
H13_12 H 0.5497 0.7350 0.1539
C26_12 C 0.58809(11) 0.78258(8) 0.22673(15)
H14_12 H 0.5894 0.7646 0.2645
O11_12 O 0.84261(9) 0.65154(7) 0.16881(10)
O12_12 O 0.87957(9) 0.73386(7) 0.23181(9)
N3_12 N 0.84071(10) 0.72342(8) 0.07259(11)
O5_12 O 0.64420(7) 0.84013(5) 0.99973(10)
O7_12 O 0.55233(8) 0.97745(6) 0.99537(10)
C14_12 C 0.61317(10) 0.83542(7) 0.95788(13)
C15_12 C 0.59311(11) 0.86215(8) 0.98099(13)
C16_12 C 0.58770(12) 0.88669(9) 0.92587(13)
H8_12 H 0.5918 0.8829 0.8734
C17_12 C 0.57616(11) 0.91728(8) 0.94658(14)
H9_12 H 0.5732 0.9340 0.9083
O14_12 O 0.70810(9) 0.78061(8) 0.95128(10)
C17_13 C 0.00779(7) 0.25062(8) 0.77992(14)
H9_13 H 0.0275 0.2674 0.7417
C18_13 C 0.01986(7) 0.25583(8) 0.85688(14)
C21_13 C 0.06499(7) 0.28883(8) 0.88023(15)
O2_13 O 0.59731(5) 0.06059(6) 0.06051(10)
O3_7 O 0.79951(5) 0.19113(5) 0.26903(10)
C1_13 C 0.60630(7) 0.06274(8) 0.13089(14)
C2_13 C 0.65257(7) 0.09509(8) 0.15198(14)
C3_13 C 0.66578(8) 0.09996(9) 0.22790(14)
H1_13 H 0.6459 0.0855 0.2675
C4_13 C 0.70905(8) 0.12661(8) 0.24596(14)
H2_13 H 0.7175 0.1305 0.2981
C5_13 C 0.73979(7) 0.14751(7) 0.18905(13)
C6_13 C 0.72653(7) 0.14483(7) 0.11244(13)
C7_13 C 0.68261(7) 0.11851(8) 0.09448(13)
H3_13 H 0.6735 0.1168 0.0431
C8_13 C 0.78674(7) 0.16774(7) 0.21068(14)
C9_13 C 0.75862(7) 0.16916(7) 0.05201(13)
C11_13 C 0.78903(8) 0.21319(8) 0.06102(14)
H5_13 H 0.7873 0.2281 0.1041
C12_13 C 0.82092(8) 0.23421(8) 0.00753(14)
H6_13 H 0.8413 0.2632 0.0138
C22_13 C 0.90978(7) 0.18533(7) 0.01857(13)
H11_13 H 0.9241 0.2149 0.0273
C26_13 C 0.86116(8) 0.11592(8) 0.06007(15)
H14_13 H 0.8419 0.0980 0.0979
O5_13 O 0.86260(5) 0.17347(5) 0.83307(10)
N1_13 N 0.79195(6) 0.16945(6) 0.93195(11)
C10_13 C 0.76105(7) 0.14932(7) 0.98452(13)
H4_13 H 0.7402 0.1208 0.9757
C13_13 C 0.82207(8) 0.21157(8) 0.94455(14)
H7_13 H 0.8443 0.2254 0.9087
C14_13 C 0.88892(7) 0.16876(7) 0.79122(13)
C15_13 C 0.93571(7) 0.19549(8) 0.81433(13)
C16_13 C 0.96566(8) 0.22003(9) 0.75921(13)
H8_13 H 0.9578 0.2163 0.7068
C19_13 C 0.98981(7) 0.22975(8) 0.91196(13)
H10_13 H 0.9979 0.2329 0.9642
C20_13 C 0.94804(7) 0.19918(7) 0.89198(13)
C23_13 C 0.91718(7) 0.17009(7) 0.95060(13)
C24_13 C 0.89476(8) 0.12499(8) 0.93843(14)
H12_13 H 0.8990 0.1137 0.8927
C25_13 C 0.86675(10) 0.09803(8) 0.99429(15)
H13_13 H 0.8520 0.0684 0.9873
O10_7 O 0.80887(5) 0.20049(5) 0.76903(10)
O2_14 O 0.93941(6) 0.53673(8) 0.06051(10)
O3_8 O 0.80887(5) 0.60839(7) 0.26903(10)
C1_14 C 0.93726(8) 0.54357(11) 0.13089(14)
C2_14 C 0.90491(8) 0.55749(11) 0.15198(14)
C3_14 C 0.90004(9) 0.56583(12) 0.22790(14)
H1_14 H 0.9145 0.5605 0.2675
C4_14 C 0.87339(8) 0.58245(11) 0.24596(14)
H2_14 H 0.8695 0.5871 0.2981
C5_14 C 0.85249(7) 0.59229(10) 0.18905(13)
C6_14 C 0.85517(7) 0.58171(10) 0.11244(13)
C7_14 C 0.88149(8) 0.56411(11) 0.09448(13)
H3_14 H 0.8832 0.5568 0.0431
C8_14 C 0.83226(7) 0.61901(10) 0.21068(14)
C9_14 C 0.83084(7) 0.58947(10) 0.05201(13)
C11_14 C 0.78681(8) 0.57585(11) 0.06102(14)
H5_14 H 0.7719 0.5593 0.1041
C12_14 C 0.76579(8) 0.58672(11) 0.00753(14)
H6_14 H 0.7368 0.5782 0.0138
C22_14 C 0.81467(7) 0.72446(10) 0.01857(13)
H11_14 H 0.7851 0.7093 0.0273
C26_14 C 0.88408(8) 0.74525(11) 0.06007(15)
H14_14 H 0.9020 0.7440 0.0979
O5_14 O 0.82653(5) 0.68914(7) 0.83307(10)
N1_14 N 0.83055(6) 0.62251(8) 0.93195(11)
C10_14 C 0.85068(7) 0.61174(10) 0.98452(13)
H4_14 H 0.8792 0.6195 0.9757
C13_14 C 0.78843(8) 0.61051(11) 0.94455(14)
H7_14 H 0.7746 0.6190 0.9087
C14_14 C 0.83124(7) 0.72017(10) 0.79122(13)
C15_14 C 0.80451(8) 0.74023(11) 0.81433(13)
C16_14 C 0.77997(9) 0.74564(12) 0.75921(13)
H8_14 H 0.7837 0.7416 0.7068
C17_14 C 0.74938(8) 0.75718(11) 0.77992(14)
H9_14 H 0.7326 0.7602 0.7417
C18_14 C 0.74417(8) 0.76404(11) 0.85688(14)
C19_14 C 0.77025(8) 0.76007(11) 0.91196(13)
H10_14 H 0.7671 0.7651 0.9642
C20_14 C 0.80082(7) 0.74887(10) 0.89198(13)
C21_14 C 0.71117(8) 0.77617(11) 0.88023(15)
C23_14 C 0.82991(7) 0.74710(10) 0.95060(13)
C24_14 C 0.87501(8) 0.76978(11) 0.93843(14)
H12_14 H 0.8863 0.7854 0.8927
C25_14 C 0.90197(8) 0.76873(13) 0.99429(15)
H13_14 H 0.9316 0.7837 0.9873
O10_8 O 0.79951(5) 0.60839(7) 0.76903(10)
O2_15 O 0.46327(8) 0.40269(5) 0.06051(10)
O3_9 O 0.39161(7) 0.20049(5) 0.26903(10)
C1_15 C 0.45643(11) 0.39370(7) 0.13089(14)
C2_15 C 0.44251(11) 0.34743(7) 0.15198(14)
C3_15 C 0.43417(12) 0.33422(8) 0.22790(14)
H1_15 H 0.4395 0.3541 0.2675
C4_15 C 0.41755(11) 0.29095(8) 0.24596(14)
H2_15 H 0.4129 0.2825 0.2981
C5_15 C 0.40771(10) 0.26021(7) 0.18905(13)
C6_15 C 0.41829(10) 0.27347(7) 0.11244(13)
C7_15 C 0.43589(11) 0.31739(7) 0.09448(13)
H3_15 H 0.4432 0.3265 0.0431
C8_15 C 0.38099(10) 0.21326(7) 0.21068(14)
C9_15 C 0.41053(10) 0.24138(7) 0.05201(13)
C11_15 C 0.42415(11) 0.21097(8) 0.06102(14)
H5_15 H 0.4407 0.2127 0.1041
C12_15 C 0.41328(11) 0.17908(8) 0.00753(14)
H6_15 H 0.4218 0.1587 0.0138
C22_15 C 0.27554(10) 0.09022(7) 0.01857(13)
H11_15 H 0.2907 0.0759 0.0273
C26_15 C 0.25475(11) 0.13884(8) 0.06007(15)
H14_15 H 0.2560 0.1581 0.0979
O5_15 O 0.31086(7) 0.13740(5) 0.83307(10)
N1_15 N 0.37749(8) 0.20805(6) 0.93195(11)
C10_15 C 0.38826(10) 0.23895(7) 0.98452(13)
H4_15 H 0.3805 0.2598 0.9757
C13_15 C 0.38949(11) 0.17793(8) 0.94455(14)
H7_15 H 0.3810 0.1557 0.9087
C14_15 C 0.27983(10) 0.11108(7) 0.79122(13)
C15_15 C 0.25977(11) 0.06429(7) 0.81433(13)
C16_15 C 0.25436(12) 0.03434(8) 0.75921(13)
H8_15 H 0.2584 0.0422 0.7068
C19_15 C 0.23993(11) 0.01019(7) 0.91196(13)
H10_15 H 0.2349 0.0021 0.9642
C20_15 C 0.25113(10) 0.05196(7) 0.89198(13)
C23_15 C 0.25290(10) 0.08282(7) 0.95060(13)
C24_15 C 0.23022(11) 0.10524(8) 0.93843(14)
H12_15 H 0.2146 0.1010 0.8927
C25_15 C 0.23127(13) 0.13325(10) 0.99429(15)
H13_15 H 0.2163 0.1480 0.9873
O10_9 O 0.39161(7) 0.19113(5) 0.76903(10)
C17_15 C 0.24282(11) 0.99221(7) 0.77992(14)
H9_15 H 0.2398 0.9725 0.7417
C18_15 C 0.23596(11) 0.98014(7) 0.85688(14)
C21_15 C 0.22383(11) 0.93501(7) 0.88023(15)
O2_16 O 0.93941(6) 0.40269(5) 0.56051(10)
O5_16 O 0.82653(5) 0.13740(5) 0.33307(10)
N1_16 N 0.83055(6) 0.20805(6) 0.43195(11)
C1_16 C 0.93726(8) 0.39370(7) 0.63089(14)
C2_16 C 0.90491(8) 0.34743(7) 0.65198(14)
C3_16 C 0.90004(9) 0.33422(8) 0.72790(14)
H1_16 H 0.9145 0.3541 0.7675
C4_16 C 0.87339(8) 0.29095(8) 0.74596(14)
H2_16 H 0.8695 0.2825 0.7981
C5_16 C 0.85249(7) 0.26021(7) 0.68905(13)
C6_16 C 0.85517(7) 0.27347(7) 0.61244(13)
C7_16 C 0.88149(8) 0.31739(7) 0.59448(13)
H3_16 H 0.8832 0.3265 0.5431
C8_16 C 0.83226(7) 0.21326(7) 0.71068(14)
C9_16 C 0.83084(7) 0.24138(7) 0.55201(13)
C10_16 C 0.85068(7) 0.23895(7) 0.48452(13)
H4_16 H 0.8792 0.2598 0.4757
C11_16 C 0.78681(8) 0.21097(8) 0.56102(14)
H5_16 H 0.7719 0.2127 0.6041
C12_16 C 0.76579(8) 0.17908(8) 0.50753(14)
H6_16 H 0.7368 0.1587 0.5138
C13_16 C 0.78843(8) 0.17793(8) 0.44455(14)
H7_16 H 0.7746 0.1557 0.4087
C14_16 C 0.83124(7) 0.11108(7) 0.29122(13)
C15_16 C 0.80451(8) 0.06429(7) 0.31433(13)
C16_16 C 0.77997(9) 0.03434(8) 0.25921(13)
H8_16 H 0.7837 0.0422 0.2068
C19_16 C 0.77025(8) 0.01019(7) 0.41196(13)
H10_16 H 0.7671 0.0021 0.4642
C20_16 C 0.80082(7) 0.05196(7) 0.39198(13)
C22_16 C 0.81467(7) 0.09022(7) 0.51857(13)
H11_16 H 0.7851 0.0759 0.5273
C23_16 C 0.82991(7) 0.08282(7) 0.45060(13)
C24_16 C 0.87501(8) 0.10524(8) 0.43843(14)
H12_16 H 0.8863 0.1010 0.3927
C25_16 C 0.90197(8) 0.13325(10) 0.49429(15)
H13_16 H 0.9316 0.1480 0.4873
C26_16 C 0.88408(8) 0.13884(8) 0.56007(15)
H14_16 H 0.9020 0.1581 0.5979
C17_16 C 0.74938(8) 0.99221(7) 0.27992(14)
H9_16 H 0.7326 0.9725 0.2417
C18_16 C 0.74417(8) 0.98014(7) 0.35688(14)
C21_16 C 0.71117(8) 0.93501(7) 0.38023(15)
C17_17 C 0.00779(7) 0.75718(11) 0.27992(14)
H9_17 H 0.0275 0.7602 0.2417
C18_17 C 0.01986(7) 0.76404(11) 0.35688(14)
C21_17 C 0.06499(7) 0.77617(11) 0.38023(15)
O2_17 O 0.59731(5) 0.53673(8) 0.56051(10)
O5_17 O 0.86260(5) 0.68914(7) 0.33307(10)
N1_17 N 0.79195(6) 0.62251(8) 0.43195(11)
C1_17 C 0.60630(7) 0.54357(11) 0.63089(14)
C2_17 C 0.65257(7) 0.55749(11) 0.65198(14)
C3_17 C 0.66578(8) 0.56583(12) 0.72790(14)
H1_17 H 0.6459 0.5605 0.7675
C4_17 C 0.70905(8) 0.58245(11) 0.74596(14)
H2_17 H 0.7175 0.5871 0.7981
C5_17 C 0.73979(7) 0.59229(10) 0.68905(13)
C6_17 C 0.72653(7) 0.58171(10) 0.61244(13)
C7_17 C 0.68261(7) 0.56411(11) 0.59448(13)
H3_17 H 0.6735 0.5568 0.5431
C8_17 C 0.78674(7) 0.61901(10) 0.71068(14)
C9_17 C 0.75862(7) 0.58947(10) 0.55201(13)
C10_17 C 0.76105(7) 0.61174(10) 0.48452(13)
H4_17 H 0.7402 0.6195 0.4757
C11_17 C 0.78903(8) 0.57585(11) 0.56102(14)
H5_17 H 0.7873 0.5593 0.6041
C12_17 C 0.82092(8) 0.58672(11) 0.50753(14)
H6_17 H 0.8413 0.5782 0.5138
C13_17 C 0.82207(8) 0.61051(11) 0.44455(14)
H7_17 H 0.8443 0.6190 0.4087
C14_17 C 0.88892(7) 0.72017(10) 0.29122(13)
C15_17 C 0.93571(7) 0.74023(11) 0.31433(13)
C16_17 C 0.96566(8) 0.74564(12) 0.25921(13)
H8_17 H 0.9578 0.7416 0.2068
C19_17 C 0.98981(7) 0.76007(11) 0.41196(13)
H10_17 H 0.9979 0.7651 0.4642
C20_17 C 0.94804(7) 0.74887(10) 0.39198(13)
C22_17 C 0.90978(7) 0.72446(10) 0.51857(13)
H11_17 H 0.9241 0.7093 0.5273
C23_17 C 0.91718(7) 0.74710(10) 0.45060(13)
C24_17 C 0.89476(8) 0.76978(11) 0.43843(14)
H12_17 H 0.8990 0.7854 0.3927
C25_17 C 0.86675(10) 0.76873(13) 0.49429(15)
H13_17 H 0.8520 0.7837 0.4873
C26_17 C 0.86116(8) 0.74525(11) 0.56007(15)
H14_17 H 0.8419 0.7440 0.5979
O2_18 O 0.46327(8) 0.06059(6) 0.56051(10)
O5_18 O 0.31086(7) 0.17347(5) 0.33307(10)
N1_18 N 0.37749(8) 0.16945(6) 0.43195(11)
C1_18 C 0.45643(11) 0.06274(8) 0.63089(14)
C2_18 C 0.44251(11) 0.09509(8) 0.65198(14)
C3_18 C 0.43417(12) 0.09996(9) 0.72790(14)
H1_18 H 0.4395 0.0855 0.7675
C4_18 C 0.41755(11) 0.12661(8) 0.74596(14)
H2_18 H 0.4129 0.1305 0.7981
C5_18 C 0.40771(10) 0.14751(7) 0.68905(13)
C6_18 C 0.41829(10) 0.14483(7) 0.61244(13)
C7_18 C 0.43589(11) 0.11851(8) 0.59448(13)
H3_18 H 0.4432 0.1168 0.5431
C8_18 C 0.38099(10) 0.16774(7) 0.71068(14)
C9_18 C 0.41053(10) 0.16916(7) 0.55201(13)
C10_18 C 0.38826(10) 0.14932(7) 0.48452(13)
H4_18 H 0.3805 0.1208 0.4757
C11_18 C 0.42415(11) 0.21319(8) 0.56102(14)
H5_18 H 0.4407 0.2281 0.6041
C12_18 C 0.41328(11) 0.23421(8) 0.50753(14)
H6_18 H 0.4218 0.2632 0.5138
C13_18 C 0.38949(11) 0.21157(8) 0.44455(14)
H7_18 H 0.3810 0.2254 0.4087
C14_18 C 0.27983(10) 0.16876(7) 0.29122(13)
C15_18 C 0.25977(11) 0.19549(8) 0.31433(13)
C16_18 C 0.25436(12) 0.22003(9) 0.25921(13)
H8_18 H 0.2584 0.2163 0.2068
C17_18 C 0.24282(11) 0.25062(8) 0.27992(14)
H9_18 H 0.2398 0.2674 0.2417
C18_18 C 0.23596(11) 0.25583(8) 0.35688(14)
C19_18 C 0.23993(11) 0.22975(8) 0.41196(13)
H10_18 H 0.2349 0.2329 0.4642
C20_18 C 0.25113(10) 0.19918(7) 0.39198(13)
C21_18 C 0.22383(11) 0.28883(8) 0.38023(15)
C22_18 C 0.27554(10) 0.18533(7) 0.51857(13)
H11_18 H 0.2907 0.2149 0.5273
C23_18 C 0.25290(10) 0.17009(7) 0.45060(13)
C24_18 C 0.23022(11) 0.12499(8) 0.43843(14)
H12_18 H 0.2146 0.1137 0.3927
C25_18 C 0.23127(13) 0.09803(8) 0.49429(15)
H13_18 H 0.2163 0.0684 0.4873
C26_18 C 0.25475(11) 0.11592(8) 0.56007(15)
H14_18 H 0.2560 0.0980 0.5979
loop_
_geom_bond_atom_site_label_1
_geom_bond_atom_site_label_2
_geom_bond_site_symmetry_1
_geom_bond_site_symmetry_2
Zn1 O5 1_555 1_555
Zn2 O2 1_555 1_555
O1 C1 1_555 1_555
O2 C1 1_555 1_555
O3 C8 1_555 1_555
O4 C8 1_555 1_555
O5 C14 1_555 1_555
O6 C14 1_555 1_555
O7 C21 1_555 1_555
O8 C21 1_555 1_555
N1 Zn1 1_555 1_555
N2 C22 1_555 1_555
C1 C2 1_555 1_555
C2 C3 1_555 1_555
C3 H1 1_555 1_555
C4 C3 1_555 1_555
H2 C4 1_555 1_555
C5 C4 1_555 1_555
C6 C5 1_555 1_555
C7 C2 1_555 1_555
H3 C7 1_555 1_555
C8 C5 1_555 1_555
C9 C6 1_555 1_555
C10 N1 1_555 1_555
H4 C10 1_555 1_555
C11 C9 1_555 1_555
H5 C11 1_555 1_555
C12 C11 1_555 1_555
H6 C12 1_555 1_555
C13 N1 1_555 1_555
H7 C13 1_555 1_555
C14 C15 1_555 1_555
C15 C16 1_555 1_555
C16 H8 1_555 1_555
C17 C16 1_555 1_555
H9 C17 1_555 1_555
C18 C17 1_555 1_555
C19 C18 1_555 1_555
H10 C19 1_555 1_555
C20 C15 1_555 1_555
C21 C18 1_555 1_555
C22 H11 1_555 1_555
C23 C20 1_555 1_555
C24 C23 1_555 1_555
H12 C24 1_555 1_555
C25 C24 1_555 1_555
H13 C25 1_555 1_555
C26 N2 1_555 1_555
H14 C26 1_555 1_555
Zn3 O3 1_555 1_555
Zn4 O1 1_555 1_555
Zn5 O8 1_555 1_555
Zn6 O7 1_555 1_555
Zn7 O6 1_555 1_555
Zn8 O4 1_555 1_555
O9 Zn1 1_555 1_555
O10 Zn1 1_555 1_555
O11 Zn2 1_555 1_555
O12 Zn2 1_555 1_555
O13 Zn2 1_555 1_555
O14 Zn1 1_555 1_555
N3 Zn2 1_555 1_555
N2 Zn8 1_555 1_555
C6 C7 1_555 1_555
C9 C10 1_555 1_555
C12 C13 1_555 1_555
C19 C20 1_555 1_555
C22 C23 1_555 1_555
C25 C26 1_555 1_555
O5_2 C14_2 1_555 1_555
O6_2 C14_2 1_555 1_555
O7_2 C21_2 1_555 1_555
O8_2 C21_2 1_555 1_555
N2_2 C22_2 1_555 1_555
C14_2 C15_2 1_555 1_555
C15_2 C16_2 1_555 1_555
C16_2 H8_2 1_555 1_555
C17_2 C16_2 1_555 1_555
H9_2 C17_2 1_555 1_555
C18_2 C17_2 1_555 1_555
C19_2 C18_2 1_555 1_555
H10_2 C19_2 1_555 1_555
C20_2 C15_2 1_555 1_555
C21_2 C18_2 1_555 1_555
C22_2 H11_2 1_555 1_555
C23_2 C20_2 1_555 1_555
C24_2 C23_2 1_555 1_555
H12_2 C24_2 1_555 1_555
C25_2 C24_2 1_555 1_555
H13_2 C25_2 1_555 1_555
C26_2 N2_2 1_555 1_555
H14_2 C26_2 1_555 1_555
Zn5_2 O8_2 1_555 1_555
Zn6_2 O7_2 1_555 1_555
Zn7_2 O6_2 1_555 1_555
N2_2 Zn8_2 1_555 1_555
C19_2 C20_2 1_555 1_555
C22_2 C23_2 1_555 1_555
C25_2 C26_2 1_555 1_555
Zn2_2 O2_2 1_555 1_555
O1_2 C1_2 1_555 1_555
O2_2 C1_2 1_555 1_555
O3_2 C8_2 1_555 1_555
O4_2 C8_2 1_555 1_555
N1_2 Zn1_2 1_555 1_555
C1_2 C2_2 1_555 1_555
C2_2 C3_2 1_555 1_555
C3_2 H1_2 1_555 1_555
C4_2 C3_2 1_555 1_555
H2_2 C4_2 1_555 1_555
C5_2 C4_2 1_555 1_555
C6_2 C5_2 1_555 1_555
C7_2 C2_2 1_555 1_555
H3_2 C7_2 1_555 1_555
C8_2 C5_2 1_555 1_555
C9_2 C6_2 1_555 1_555
C10_2 N1_2 1_555 1_555
H4_2 C10_2 1_555 1_555
C11_2 C9_2 1_555 1_555
H5_2 C11_2 1_555 1_555
C12_2 C11_2 1_555 1_555
H6_2 C12_2 1_555 1_555
C13_2 N1_2 1_555 1_555
H7_2 C13_2 1_555 1_555
Zn3_2 O3_2 1_555 1_555
Zn4_2 O1_2 1_555 1_555
O10_2 Zn1_2 1_555 1_555
O11_2 Zn2_2 1_555 1_555
O12_2 Zn2_2 1_555 1_555
O13_2 Zn2_2 1_555 1_555
O14_2 Zn1_2 1_555 1_555
N3_2 Zn2_2 1_555 1_555
C6_2 C7_2 1_555 1_555
C9_2 C10_2 1_555 1_555
C12_2 C13_2 1_555 1_555
Zn2_3 O2_3 1_555 1_555
O1_3 C1_3 1_555 1_555
O2_3 C1_3 1_555 1_555
O3_3 C8_3 1_555 1_555
O4_3 C8_3 1_555 1_555
N1_3 Zn1_3 1_555 1_555
C1_3 C2_3 1_555 1_555
C2_3 C3_3 1_555 1_555
C3_3 H1_3 1_555 1_555
C4_3 C3_3 1_555 1_555
H2_3 C4_3 1_555 1_555
C5_3 C4_3 1_555 1_555
C6_3 C5_3 1_555 1_555
C7_3 C2_3 1_555 1_555
H3_3 C7_3 1_555 1_555
C8_3 C5_3 1_555 1_555
C9_3 C6_3 1_555 1_555
C10_3 N1_3 1_555 1_555
H4_3 C10_3 1_555 1_555
C11_3 C9_3 1_555 1_555
H5_3 C11_3 1_555 1_555
C12_3 C11_3 1_555 1_555
H6_3 C12_3 1_555 1_555
C13_3 N1_3 1_555 1_555
H7_3 C13_3 1_555 1_555
Zn3_3 O3_3 1_555 1_555
Zn4_3 O1_3 1_555 1_555
O10_3 Zn1_3 1_555 1_555
O11_3 Zn2_3 1_555 1_555
O12_3 Zn2_3 1_555 1_555
O13_3 Zn2_3 1_555 1_555
O14_3 Zn1_3 1_555 1_555
N3_3 Zn2_3 1_555 1_555
C6_3 C7_3 1_555 1_555
C9_3 C10_3 1_555 1_555
C12_3 C13_3 1_555 1_555
O5_3 C14_3 1_555 1_555
O6_3 C14_3 1_555 1_555
O7_3 C21_3 1_555 1_555
O8_3 C21_3 1_555 1_555
N2_3 C22_3 1_555 1_555
C14_3 C15_3 1_555 1_555
C15_3 C16_3 1_555 1_555
C16_3 H8_3 1_555 1_555
C17_3 C16_3 1_555 1_555
H9_3 C17_3 1_555 1_555
C18_3 C17_3 1_555 1_555
C19_3 C18_3 1_555 1_555
H10_3 C19_3 1_555 1_555
C20_3 C15_3 1_555 1_555
C21_3 C18_3 1_555 1_555
C22_3 H11_3 1_555 1_555
C23_3 C20_3 1_555 1_555
C24_3 C23_3 1_555 1_555
H12_3 C24_3 1_555 1_555
C25_3 C24_3 1_555 1_555
H13_3 C25_3 1_555 1_555
C26_3 N2_3 1_555 1_555
H14_3 C26_3 1_555 1_555
Zn5_3 O8_3 1_555 1_555
Zn6_3 O7_3 1_555 1_555
Zn7_3 O6_3 1_555 1_555
N2_3 Zn8_3 1_555 1_555
C19_3 C20_3 1_555 1_555
C22_3 C23_3 1_555 1_555
C25_3 C26_3 1_555 1_555
O10 C8_4 1_555 1_555
O4_4 C8_4 1_555 1_555
C3_4 H1_4 1_555 1_555
C4_4 C3_4 1_555 1_555
H2_4 C4_4 1_555 1_555
C5_4 C4_4 1_555 1_555
C8_4 C5_4 1_555 1_555
Zn7 O4_4 1_555 1_555
Zn3 O5_4 1_555 1_555
Zn2_4 O2_4 1_555 1_555
O2_4 C1_4 1_555 1_555
O5_4 C14_4 1_555 1_555
O6_4 C14_4 1_555 1_555
O7_4 C21_4 1_555 1_555
O8_4 C21_4 1_555 1_555
N1_4 Zn3 1_555 1_555
N2_4 C22_4 1_555 1_555
C1_4 C2_4 1_555 1_555
C7_4 C2_4 1_555 1_555
H3_4 C7_4 1_555 1_555
C9_4 C6_4 1_555 1_555
C10_4 N1_4 1_555 1_555
H4_4 C10_4 1_555 1_555
C11_4 C9_4 1_555 1_555
H5_4 C11_4 1_555 1_555
C12_4 C11_4 1_555 1_555
H6_4 C12_4 1_555 1_555
C13_4 N1_4 1_555 1_555
H7_4 C13_4 1_555 1_555
C14_4 C15_4 1_555 1_555
C15_4 C16_4 1_555 1_555
C16_4 H8_4 1_555 1_555
C17_4 C16_4 1_555 1_555
H9_4 C17_4 1_555 1_555
C18_4 C17_4 1_555 1_555
C19_4 C18_4 1_555 1_555
H10_4 C19_4 1_555 1_555
C20_4 C15_4 1_555 1_555
C21_4 C18_4 1_555 1_555
C22_4 H11_4 1_555 1_555
C23_4 C20_4 1_555 1_555
C24_4 C23_4 1_555 1_555
H12_4 C24_4 1_555 1_555
C25_4 C24_4 1_555 1_555
H13_4 C25_4 1_555 1_555
C26_4 N2_4 1_555 1_555
H14_4 C26_4 1_555 1_555
Zn5_4 O8_4 1_555 1_555
Zn6_4 O7_4 1_555 1_555
Zn8 O6_4 1_555 1_555
O9_4 Zn3 1_555 1_555
O11_4 Zn2_4 1_555 1_555
O12_4 Zn2_4 1_555 1_555
O13_4 Zn2_4 1_555 1_555
O14_4 Zn3 1_555 1_555
N3_4 Zn2_4 1_555 1_555
C6_4 C7_4 1_555 1_555
C9_4 C10_4 1_555 1_555
C12_4 C13_4 1_555 1_555
C19_4 C20_4 1_555 1_555
C22_4 C23_4 1_555 1_555
C25_4 C26_4 1_555 1_555
O5_5 C14_5 1_555 1_555
O6_5 C14_5 1_555 1_555
O7_5 C21_5 1_555 1_555
O8_5 C21_5 1_555 1_555
N2_5 C22_5 1_555 1_555
C14_5 C15_5 1_555 1_555
C15_5 C16_5 1_555 1_555
C16_5 H8_5 1_555 1_555
C17_5 C16_5 1_555 1_555
H9_5 C17_5 1_555 1_555
C18_5 C17_5 1_555 1_555
C19_5 C18_5 1_555 1_555
H10_5 C19_5 1_555 1_555
C20_5 C15_5 1_555 1_555
C21_5 C18_5 1_555 1_555
C22_5 H11_5 1_555 1_555
C23_5 C20_5 1_555 1_555
C24_5 C23_5 1_555 1_555
H12_5 C24_5 1_555 1_555
C25_5 C24_5 1_555 1_555
H13_5 C25_5 1_555 1_555
C26_5 N2_5 1_555 1_555
H14_5 C26_5 1_555 1_555
Zn5_5 O8_5 1_555 1_555
Zn6_5 O7_5 1_555 1_555
Zn8_2 O6_5 1_555 1_555
C19_5 C20_5 1_555 1_555
C22_5 C23_5 1_555 1_555
C25_5 C26_5 1_555 1_555
O10_2 C8_5 1_555 1_555
O4_5 C8_5 1_555 1_555
C3_5 H1_5 1_555 1_555
C4_5 C3_5 1_555 1_555
H2_5 C4_5 1_555 1_555
C5_5 C4_5 1_555 1_555
C8_5 C5_5 1_555 1_555
Zn2_5 O2_5 1_555 1_555
O2_5 C1_5 1_555 1_555
N1_5 Zn3_2 1_555 1_555
C1_5 C2_5 1_555 1_555
C7_5 C2_5 1_555 1_555
H3_5 C7_5 1_555 1_555
C9_5 C6_5 1_555 1_555
C10_5 N1_5 1_555 1_555
H4_5 C10_5 1_555 1_555
C11_5 C9_5 1_555 1_555
H5_5 C11_5 1_555 1_555
C12_5 C11_5 1_555 1_555
H6_5 C12_5 1_555 1_555
C13_5 N1_5 1_555 1_555
H7_5 C13_5 1_555 1_555
O11_5 Zn2_5 1_555 1_555
O12_5 Zn2_5 1_555 1_555
O13_5 Zn2_5 1_555 1_555
O14_5 Zn3_2 1_555 1_555
N3_5 Zn2_5 1_555 1_555
C6_5 C7_5 1_555 1_555
C9_5 C10_5 1_555 1_555
C12_5 C13_5 1_555 1_555
O10_3 C8_6 1_555 1_555
O4_6 C8_6 1_555 1_555
C3_6 H1_6 1_555 1_555
C4_6 C3_6 1_555 1_555
H2_6 C4_6 1_555 1_555
C5_6 C4_6 1_555 1_555
C8_6 C5_6 1_555 1_555
Zn2_6 O2_6 1_555 1_555
O2_6 C1_6 1_555 1_555
N1_6 Zn3_3 1_555 1_555
C1_6 C2_6 1_555 1_555
C7_6 C2_6 1_555 1_555
H3_6 C7_6 1_555 1_555
C9_6 C6_6 1_555 1_555
C10_6 N1_6 1_555 1_555
H4_6 C10_6 1_555 1_555
C11_6 C9_6 1_555 1_555
H5_6 C11_6 1_555 1_555
C12_6 C11_6 1_555 1_555
H6_6 C12_6 1_555 1_555
C13_6 N1_6 1_555 1_555
H7_6 C13_6 1_555 1_555
O11_6 Zn2_6 1_555 1_555
O12_6 Zn2_6 1_555 1_555
O13_6 Zn2_6 1_555 1_555
O14_6 Zn3_3 1_555 1_555
N3_6 Zn2_6 1_555 1_555
C6_6 C7_6 1_555 1_555
C9_6 C10_6 1_555 1_555
C12_6 C13_6 1_555 1_555
O5_6 C14_6 1_555 1_555
O6_6 C14_6 1_555 1_555
O7_6 C21_6 1_555 1_555
O8_6 C21_6 1_555 1_555
N2_6 C22_6 1_555 1_555
C14_6 C15_6 1_555 1_555
C15_6 C16_6 1_555 1_555
C16_6 H8_6 1_555 1_555
C17_6 C16_6 1_555 1_555
H9_6 C17_6 1_555 1_555
C18_6 C17_6 1_555 1_555
C19_6 C18_6 1_555 1_555
H10_6 C19_6 1_555 1_555
C20_6 C15_6 1_555 1_555
C21_6 C18_6 1_555 1_555
C22_6 H11_6 1_555 1_555
C23_6 C20_6 1_555 1_555
C24_6 C23_6 1_555 1_555
H12_6 C24_6 1_555 1_555
C25_6 C24_6 1_555 1_555
H13_6 C25_6 1_555 1_555
C26_6 N2_6 1_555 1_555
H14_6 C26_6 1_555 1_555
Zn5_6 O8_6 1_555 1_555
Zn6_6 O7_6 1_555 1_555
Zn8_3 O6_6 1_555 1_555
C19_6 C20_6 1_555 1_555
C22_6 C23_6 1_555 1_555
C25_6 C26_6 1_555 1_555
Zn4_3 O5_7 1_555 1_555
O3_4 C8_7 1_555 1_555
O11_5 C8_7 1_555 1_555
O5_7 C14_7 1_555 1_555
O12_3 C14_7 1_555 1_555
O7_7 C21_7 1_555 1_555
O14_5 C21_7 1_555 1_555
N1_7 Zn4_3 1_555 1_555
N3_5 C22_7 1_555 1_555
H2_7 C4_7 1_555 1_555
C5_7 C4_7 1_555 1_555
C6_7 C5_7 1_555 1_555
H3_7 C7_7 1_555 1_555
C8_7 C5_7 1_555 1_555
C9_7 C6_7 1_555 1_555
C10_7 N1_7 1_555 1_555
H4_7 C10_7 1_555 1_555
C11_7 C9_7 1_555 1_555
H5_7 C11_7 1_555 1_555
C12_7 C11_7 1_555 1_555
H6_7 C12_7 1_555 1_555
C13_7 N1_7 1_555 1_555
H7_7 C13_7 1_555 1_555
C14_7 C15_7 1_555 1_555
C15_7 C16_7 1_555 1_555
C16_7 H8_7 1_555 1_555
C17_7 C16_7 1_555 1_555
H9_7 C17_7 1_555 1_555
C18_7 C17_7 1_555 1_555
C19_7 C18_7 1_555 1_555
H10_7 C19_7 1_555 1_555
C20_7 C15_7 1_555 1_555
C21_7 C18_7 1_555 1_555
C22_7 H11_7 1_555 1_555
C23_7 C20_7 1_555 1_555
C24_7 C23_7 1_555 1_555
H12_7 C24_7 1_555 1_555
C25_7 C24_7 1_555 1_555
H13_7 C25_7 1_555 1_555
C26_7 N3_5 1_555 1_555
H14_7 C26_7 1_555 1_555
Zn4_5 O3_4 1_555 1_555
O10_4 Zn4_3 1_555 1_555
O14_7 Zn4_3 1_555 1_555
C6_7 C7_7 1_555 1_555
C9_7 C10_7 1_555 1_555
C12_7 C13_7 1_555 1_555
C19_7 C20_7 1_555 1_555
C22_7 C23_7 1_555 1_555
C25_7 C26_7 1_555 1_555
Zn6_6 O2_7 1_555 1_555
O1_7 C1_7 1_555 1_555
O2_7 C1_7 1_555 1_555
C1_7 C2_7 1_555 1_555
C2_7 C3_7 1_555 1_555
C3_7 H1_7 1_555 1_555
Zn5_6 O1_7 1_555 1_555
O11_7 Zn6_6 1_555 1_555
O12_7 Zn6_6 1_555 1_555
N3_7 Zn6_6 1_555 1_555
Zn4 O5_8 1_555 1_555
Zn6_4 O2_8 1_555 1_555
O1_8 C1_8 1_555 1_555
O2_8 C1_8 1_555 1_555
O3_5 C8_8 1_555 1_555
O11_6 C8_8 1_555 1_555
O5_8 C14_8 1_555 1_555
O12 C14_8 1_555 1_555
O7_8 C21_8 1_555 1_555
O14_6 C21_8 1_555 1_555
N1_8 Zn4 1_555 1_555
N3_6 C22_8 1_555 1_555
C1_8 C2_8 1_555 1_555
C2_8 C3_8 1_555 1_555
C3_8 H1_8 1_555 1_555
C4_8 C3_8 1_555 1_555
H2_8 C4_8 1_555 1_555
C5_8 C4_8 1_555 1_555
C6_8 C5_8 1_555 1_555
C7_8 C2_8 1_555 1_555
H3_8 C7_8 1_555 1_555
C8_8 C5_8 1_555 1_555
C9_8 C6_8 1_555 1_555
C10_8 N1_8 1_555 1_555
H4_8 C10_8 1_555 1_555
C11_8 C9_8 1_555 1_555
H5_8 C11_8 1_555 1_555
C12_8 C11_8 1_555 1_555
H6_8 C12_8 1_555 1_555
C13_8 N1_8 1_555 1_555
H7_8 C13_8 1_555 1_555
C14_8 C15_8 1_555 1_555
C15_8 C16_8 1_555 1_555
C16_8 H8_8 1_555 1_555
C17_8 C16_8 1_555 1_555
H9_8 C17_8 1_555 1_555
C18_8 C17_8 1_555 1_555
C19_8 C18_8 1_555 1_555
H10_8 C19_8 1_555 1_555
C20_8 C15_8 1_555 1_555
C21_8 C18_8 1_555 1_555
C22_8 H11_8 1_555 1_555
C23_8 C20_8 1_555 1_555
C24_8 C23_8 1_555 1_555
H12_8 C24_8 1_555 1_555
C25_8 C24_8 1_555 1_555
H13_8 C25_8 1_555 1_555
C26_8 N3_6 1_555 1_555
H14_8 C26_8 1_555 1_555
Zn4_6 O3_5 1_555 1_555
Zn5_4 O1_8 1_555 1_555
O10_5 Zn4 1_555 1_555
O11_8 Zn6_4 1_555 1_555
O12_8 Zn6_4 1_555 1_555
O14_8 Zn4 1_555 1_555
N3_8 Zn6_4 1_555 1_555
C6_8 C7_8 1_555 1_555
C9_8 C10_8 1_555 1_555
C12_8 C13_8 1_555 1_555
C19_8 C20_8 1_555 1_555
C22_8 C23_8 1_555 1_555
C25_8 C26_8 1_555 1_555
Zn6_5 O2_9 1_555 1_555
O1_9 C1_9 1_555 1_555
O2_9 C1_9 1_555 1_555
C1_9 C2_9 1_555 1_555
C2_9 C3_9 1_555 1_555
C3_9 H1_9 1_555 1_555
Zn5_5 O1_9 1_555 1_555
O11_9 Zn6_5 1_555 1_555
O12_9 Zn6_5 1_555 1_555
N3_9 Zn6_5 1_555 1_555
Zn4_2 O5_9 1_555 1_555
O3_6 C8_9 1_555 1_555
O11_4 C8_9 1_555 1_555
O5_9 C14_9 1_555 1_555
O12_2 C14_9 1_555 1_555
O7_9 C21_9 1_555 1_555
O14_4 C21_9 1_555 1_555
N1_9 Zn4_2 1_555 1_555
N3_4 C22_9 1_555 1_555
H2_9 C4_9 1_555 1_555
C5_9 C4_9 1_555 1_555
C6_9 C5_9 1_555 1_555
H3_9 C7_9 1_555 1_555
C8_9 C5_9 1_555 1_555
C9_9 C6_9 1_555 1_555
C10_9 N1_9 1_555 1_555
H4_9 C10_9 1_555 1_555
C11_9 C9_9 1_555 1_555
H5_9 C11_9 1_555 1_555
C12_9 C11_9 1_555 1_555
H6_9 C12_9 1_555 1_555
C13_9 N1_9 1_555 1_555
H7_9 C13_9 1_555 1_555
C14_9 C15_9 1_555 1_555
C15_9 C16_9 1_555 1_555
C16_9 H8_9 1_555 1_555
C17_9 C16_9 1_555 1_555
H9_9 C17_9 1_555 1_555
C18_9 C17_9 1_555 1_555
C19_9 C18_9 1_555 1_555
H10_9 C19_9 1_555 1_555
C20_9 C15_9 1_555 1_555
C21_9 C18_9 1_555 1_555
C22_9 H11_9 1_555 1_555
C23_9 C20_9 1_555 1_555
C24_9 C23_9 1_555 1_555
H12_9 C24_9 1_555 1_555
C25_9 C24_9 1_555 1_555
H13_9 C25_9 1_555 1_555
C26_9 N3_4 1_555 1_555
H14_9 C26_9 1_555 1_555
Zn4_4 O3_6 1_555 1_555
Zn8 O7_9 1_555 1_555
O10_6 Zn4_2 1_555 1_555
O14_9 Zn4_2 1_555 1_555
C6_9 C7_9 1_555 1_555
C9_9 C10_9 1_555 1_555
C12_9 C13_9 1_555 1_555
C19_9 C20_9 1_555 1_555
C22_9 C23_9 1_555 1_555
C25_9 C26_9 1_555 1_555
Zn6_2 O2_10 1_555 1_555
O1_10 C1_10 1_555 1_555
O2_10 C1_10 1_555 1_555
C1_10 C2_10 1_555 1_555
C2_10 C3_10 1_555 1_555
C3_10 H1_10 1_555 1_555
Zn5_2 O1_10 1_555 1_555
O11_10 Zn6_2 1_555 1_555
O12_10 Zn6_2 1_555 1_555
N3_10 Zn6_2 1_555 1_555
O10_4 C8_10 1_555 1_555
O11_3 C8_10 1_555 1_555
O14_3 C21_10 1_555 1_555
N3_3 C22_10 1_555 1_555
H2_10 C4_10 1_555 1_555
C5_10 C4_10 1_555 1_555
C6_10 C5_10 1_555 1_555
H3_10 C7_10 1_555 1_555
C8_10 C5_10 1_555 1_555
C9_10 C6_10 1_555 1_555
C10_10 N1_10 1_555 1_555
H4_10 C10_10 1_555 1_555
C11_10 C9_10 1_555 1_555
H5_10 C11_10 1_555 1_555
C12_10 C11_10 1_555 1_555
H6_10 C12_10 1_555 1_555
C13_10 N1_10 1_555 1_555
H7_10 C13_10 1_555 1_555
C19_10 C18_10 1_555 1_555
H10_10 C19_10 1_555 1_555
C21_10 C18_10 1_555 1_555
C22_10 H11_10 1_555 1_555
C23_10 C20_10 1_555 1_555
C24_10 C23_10 1_555 1_555
H12_10 C24_10 1_555 1_555
C25_10 C24_10 1_555 1_555
H13_10 C25_10 1_555 1_555
C26_10 N3_3 1_555 1_555
H14_10 C26_10 1_555 1_555
C6_10 C7_10 1_555 1_555
C9_10 C10_10 1_555 1_555
C12_10 C13_10 1_555 1_555
C19_10 C20_10 1_555 1_555
C22_10 C23_10 1_555 1_555
C25_10 C26_10 1_555 1_555
Zn4_5 O5_10 1_555 1_555
O5_10 C14_10 1_555 1_555
O12_5 C14_10 1_555 1_555
C14_10 C15_10 1_555 1_555
C15_10 C16_10 1_555 1_555
C16_10 H8_10 1_555 1_555
C17_10 C16_10 1_555 1_555
H9_10 C17_10 1_555 1_555
O14_10 Zn4_5 1_555 1_555
O10_5 C8_11 1_555 1_555
O11 C8_11 1_555 1_555
O14 C21_11 1_555 1_555
N3 C22_11 1_555 1_555
H2_11 C4_11 1_555 1_555
C5_11 C4_11 1_555 1_555
C6_11 C5_11 1_555 1_555
H3_11 C7_11 1_555 1_555
C8_11 C5_11 1_555 1_555
C9_11 C6_11 1_555 1_555
C10_11 N1_11 1_555 1_555
H4_11 C10_11 1_555 1_555
C11_11 C9_11 1_555 1_555
H5_11 C11_11 1_555 1_555
C12_11 C11_11 1_555 1_555
H6_11 C12_11 1_555 1_555
C13_11 N1_11 1_555 1_555
H7_11 C13_11 1_555 1_555
C19_11 C18_11 1_555 1_555
H10_11 C19_11 1_555 1_555
C21_11 C18_11 1_555 1_555
C22_11 H11_11 1_555 1_555
C23_11 C20_11 1_555 1_555
C24_11 C23_11 1_555 1_555
H12_11 C24_11 1_555 1_555
C25_11 C24_11 1_555 1_555
H13_11 C25_11 1_555 1_555
C26_11 N3 1_555 1_555
H14_11 C26_11 1_555 1_555
C6_11 C7_11 1_555 1_555
C9_11 C10_11 1_555 1_555
C12_11 C13_11 1_555 1_555
C19_11 C20_11 1_555 1_555
C22_11 C23_11 1_555 1_555
C25_11 C26_11 1_555 1_555
Zn4_6 O5_11 1_555 1_555
O5_11 C14_11 1_555 1_555
O12_6 C14_11 1_555 1_555
C14_11 C15_11 1_555 1_555
C15_11 C16_11 1_555 1_555
C16_11 H8_11 1_555 1_555
C17_11 C16_11 1_555 1_555
H9_11 C17_11 1_555 1_555
O14_11 Zn4_6 1_555 1_555
Zn6_3 O2_11 1_555 1_555
O1_11 C1_11 1_555 1_555
O2_11 C1_11 1_555 1_555
C1_11 C2_11 1_555 1_555
C2_11 C3_11 1_555 1_555
C3_11 H1_11 1_555 1_555
Zn5_3 O1_11 1_555 1_555
O11_11 Zn6_3 1_555 1_555
O12_11 Zn6_3 1_555 1_555
N3_11 Zn6_3 1_555 1_555
Zn6 O2_12 1_555 1_555
O1_12 C1_12 1_555 1_555
O2_12 C1_12 1_555 1_555
O10_6 C8_12 1_555 1_555
O11_2 C8_12 1_555 1_555
O14_2 C21_12 1_555 1_555
N3_2 C22_12 1_555 1_555
C1_12 C2_12 1_555 1_555
C2_12 C3_12 1_555 1_555
C3_12 H1_12 1_555 1_555
C4_12 C3_12 1_555 1_555
H2_12 C4_12 1_555 1_555
C5_12 C4_12 1_555 1_555
C6_12 C5_12 1_555 1_555
C7_12 C2_12 1_555 1_555
H3_12 C7_12 1_555 1_555
C8_12 C5_12 1_555 1_555
C9_12 C6_12 1_555 1_555
C10_12 N1_12 1_555 1_555
H4_12 C10_12 1_555 1_555
C11_12 C9_12 1_555 1_555
H5_12 C11_12 1_555 1_555
C12_12 C11_12 1_555 1_555
H6_12 C12_12 1_555 1_555
C13_12 N1_12 1_555 1_555
H7_12 C13_12 1_555 1_555
C19_12 C18_12 1_555 1_555
H10_12 C19_12 1_555 1_555
C21_12 C18_12 1_555 1_555
C22_12 H11_12 1_555 1_555
C23_12 C20_12 1_555 1_555
C24_12 C23_12 1_555 1_555
H12_12 C24_12 1_555 1_555
C25_12 C24_12 1_555 1_555
H13_12 C25_12 1_555 1_555
C26_12 N3_2 1_555 1_555
H14_12 C26_12 1_555 1_555
Zn5 O1_12 1_555 1_555
O11_12 Zn6 1_555 1_555
O12_12 Zn6 1_555 1_555
N3_12 Zn6 1_555 1_555
C6_12 C7_12 1_555 1_555
C9_12 C10_12 1_555 1_555
C12_12 C13_12 1_555 1_555
C19_12 C20_12 1_555 1_555
C22_12 C23_12 1_555 1_555
C25_12 C26_12 1_555 1_555
Zn4_4 O5_12 1_555 1_555
O5_12 C14_12 1_555 1_555
O12_4 C14_12 1_555 1_555
C14_12 C15_12 1_555 1_555
C15_12 C16_12 1_555 1_555
C16_12 H8_12 1_555 1_555
C17_12 C16_12 1_555 1_555
H9_12 C17_12 1_555 1_555
O14_12 Zn4_4 1_555 1_555
O13_6 C21_13 1_555 1_555
O14_11 C21_13 1_555 1_555
H9_13 C17_13 1_555 1_555
C18_13 C17_13 1_555 1_555
C21_13 C18_13 1_555 1_555
Zn7_2 O2_13 1_555 1_555
O9_2 C1_13 1_555 1_555
O2_13 C1_13 1_555 1_555
O3_7 C8_13 1_555 1_555
O11_11 C8_13 1_555 1_555
N3_11 C22_13 1_555 1_555
C1_13 C2_13 1_555 1_555
C2_13 C3_13 1_555 1_555
C3_13 H1_13 1_555 1_555
C4_13 C3_13 1_555 1_555
H2_13 C4_13 1_555 1_555
C5_13 C4_13 1_555 1_555
C6_13 C5_13 1_555 1_555
C7_13 C2_13 1_555 1_555
H3_13 C7_13 1_555 1_555
C8_13 C5_13 1_555 1_555
C9_13 C6_13 1_555 1_555
C11_13 C9_13 1_555 1_555
H5_13 C11_13 1_555 1_555
C12_13 C11_13 1_555 1_555
H6_13 C12_13 1_555 1_555
C22_13 H11_13 1_555 1_555
C26_13 N3_11 1_555 1_555
H14_13 C26_13 1_555 1_555
Zn5_3 O3_7 1_555 1_555
C6_13 C7_13 1_555 1_555
Zn5_5 O5_13 1_555 1_555
O5_13 C14_13 1_555 1_555
O12_9 C14_13 1_555 1_555
N1_13 Zn5_5 1_555 1_555
C10_13 N1_13 1_555 1_555
H4_13 C10_13 1_555 1_555
C13_13 N1_13 1_555 1_555
H7_13 C13_13 1_555 1_555
C14_13 C15_13 1_555 1_555
C15_13 C16_13 1_555 1_555
C16_13 H8_13 1_555 1_555
H10_13 C19_13 1_555 1_555
C20_13 C15_13 1_555 1_555
C23_13 C20_13 1_555 1_555
C24_13 C23_13 1_555 1_555
H12_13 C24_13 1_555 1_555
C25_13 C24_13 1_555 1_555
H13_13 C25_13 1_555 1_555
O10_7 Zn5_5 1_555 1_555
C19_13 C20_13 1_555 1_555
Zn7_3 O2_14 1_555 1_555
O9_3 C1_14 1_555 1_555
O2_14 C1_14 1_555 1_555
O3_8 C8_14 1_555 1_555
O11_12 C8_14 1_555 1_555
N3_12 C22_14 1_555 1_555
C1_14 C2_14 1_555 1_555
C2_14 C3_14 1_555 1_555
C3_14 H1_14 1_555 1_555
C4_14 C3_14 1_555 1_555
H2_14 C4_14 1_555 1_555
C5_14 C4_14 1_555 1_555
C6_14 C5_14 1_555 1_555
C7_14 C2_14 1_555 1_555
H3_14 C7_14 1_555 1_555
C8_14 C5_14 1_555 1_555
C9_14 C6_14 1_555 1_555
C11_14 C9_14 1_555 1_555
H5_14 C11_14 1_555 1_555
C12_14 C11_14 1_555 1_555
H6_14 C12_14 1_555 1_555
C22_14 H11_14 1_555 1_555
C26_14 N3_12 1_555 1_555
H14_14 C26_14 1_555 1_555
Zn5 O3_8 1_555 1_555
C6_14 C7_14 1_555 1_555
Zn5_6 O5_14 1_555 1_555
O5_14 C14_14 1_555 1_555
O12_7 C14_14 1_555 1_555
O13_4 C21_14 1_555 1_555
O14_12 C21_14 1_555 1_555
N1_14 Zn5_6 1_555 1_555
C10_14 N1_14 1_555 1_555
H4_14 C10_14 1_555 1_555
C13_14 N1_14 1_555 1_555
H7_14 C13_14 1_555 1_555
C14_14 C15_14 1_555 1_555
C15_14 C16_14 1_555 1_555
C16_14 H8_14 1_555 1_555
C17_14 C16_14 1_555 1_555
H9_14 C17_14 1_555 1_555
C18_14 C17_14 1_555 1_555
C19_14 C18_14 1_555 1_555
H10_14 C19_14 1_555 1_555
C20_14 C15_14 1_555 1_555
C21_14 C18_14 1_555 1_555
C23_14 C20_14 1_555 1_555
C24_14 C23_14 1_555 1_555
H12_14 C24_14 1_555 1_555
C25_14 C24_14 1_555 1_555
H13_14 C25_14 1_555 1_555
O10_8 Zn5_6 1_555 1_555
C19_14 C20_14 1_555 1_555
Zn7 O2_15 1_555 1_555
O9 C1_15 1_555 1_555
O2_15 C1_15 1_555 1_555
O3_9 C8_15 1_555 1_555
O11_10 C8_15 1_555 1_555
N3_10 C22_15 1_555 1_555
C1_15 C2_15 1_555 1_555
C2_15 C3_15 1_555 1_555
C3_15 H1_15 1_555 1_555
C4_15 C3_15 1_555 1_555
H2_15 C4_15 1_555 1_555
C5_15 C4_15 1_555 1_555
C6_15 C5_15 1_555 1_555
C7_15 C2_15 1_555 1_555
H3_15 C7_15 1_555 1_555
C8_15 C5_15 1_555 1_555
C9_15 C6_15 1_555 1_555
C11_15 C9_15 1_555 1_555
H5_15 C11_15 1_555 1_555
C12_15 C11_15 1_555 1_555
H6_15 C12_15 1_555 1_555
C22_15 H11_15 1_555 1_555
C26_15 N3_10 1_555 1_555
H14_15 C26_15 1_555 1_555
Zn5_2 O3_9 1_555 1_555
C6_15 C7_15 1_555 1_555
Zn5_4 O5_15 1_555 1_555
O5_15 C14_15 1_555 1_555
O12_8 C14_15 1_555 1_555
N1_15 Zn5_4 1_555 1_555
C10_15 N1_15 1_555 1_555
H4_15 C10_15 1_555 1_555
C13_15 N1_15 1_555 1_555
H7_15 C13_15 1_555 1_555
C14_15 C15_15 1_555 1_555
C15_15 C16_15 1_555 1_555
C16_15 H8_15 1_555 1_555
H10_15 C19_15 1_555 1_555
C20_15 C15_15 1_555 1_555
C23_15 C20_15 1_555 1_555
C24_15 C23_15 1_555 1_555
H12_15 C24_15 1_555 1_555
C25_15 C24_15 1_555 1_555
H13_15 C25_15 1_555 1_555
O10_9 Zn5_4 1_555 1_555
C19_15 C20_15 1_555 1_555
O13_5 C21_15 1_555 1_555
O14_10 C21_15 1_555 1_555
H9_15 C17_15 1_555 1_555
C18_15 C17_15 1_555 1_555
C21_15 C18_15 1_555 1_555
Zn5_3 O5_16 1_555 1_555
Zn8_3 O2_16 1_555 1_555
O9_6 C1_16 1_555 1_555
O2_16 C1_16 1_555 1_555
O10_7 C8_16 1_555 1_555
O11_9 C8_16 1_555 1_555
O5_16 C14_16 1_555 1_555
O12_11 C14_16 1_555 1_555
N1_16 Zn5_3 1_555 1_555
N3_9 C22_16 1_555 1_555
C1_16 C2_16 1_555 1_555
C2_16 C3_16 1_555 1_555
C3_16 H1_16 1_555 1_555
C4_16 C3_16 1_555 1_555
H2_16 C4_16 1_555 1_555
C5_16 C4_16 1_555 1_555
C6_16 C5_16 1_555 1_555
C7_16 C2_16 1_555 1_555
H3_16 C7_16 1_555 1_555
C8_16 C5_16 1_555 1_555
C9_16 C6_16 1_555 1_555
C10_16 N1_16 1_555 1_555
H4_16 C10_16 1_555 1_555
C11_16 C9_16 1_555 1_555
H5_16 C11_16 1_555 1_555
C12_16 C11_16 1_555 1_555
H6_16 C12_16 1_555 1_555
C13_16 N1_16 1_555 1_555
H7_16 C13_16 1_555 1_555
C14_16 C15_16 1_555 1_555
C15_16 C16_16 1_555 1_555
C16_16 H8_16 1_555 1_555
H10_16 C19_16 1_555 1_555
C20_16 C15_16 1_555 1_555
C22_16 H11_16 1_555 1_555
C23_16 C20_16 1_555 1_555
C24_16 C23_16 1_555 1_555
H12_16 C24_16 1_555 1_555
C25_16 C24_16 1_555 1_555
H13_16 C25_16 1_555 1_555
C26_16 N3_9 1_555 1_555
H14_16 C26_16 1_555 1_555
C6_16 C7_16 1_555 1_555
C9_16 C10_16 1_555 1_555
C12_16 C13_16 1_555 1_555
C19_16 C20_16 1_555 1_555
C22_16 C23_16 1_555 1_555
C25_16 C26_16 1_555 1_555
O13_2 C21_16 1_555 1_555
O14_9 C21_16 1_555 1_555
H9_16 C17_16 1_555 1_555
C18_16 C17_16 1_555 1_555
C21_16 C18_16 1_555 1_555
O13_3 C21_17 1_555 1_555
O14_7 C21_17 1_555 1_555
H9_17 C17_17 1_555 1_555
C18_17 C17_17 1_555 1_555
C21_17 C18_17 1_555 1_555
Zn5 O5_17 1_555 1_555
Zn8 O2_17 1_555 1_555
O9_4 C1_17 1_555 1_555
O2_17 C1_17 1_555 1_555
O10_8 C8_17 1_555 1_555
O11_7 C8_17 1_555 1_555
O5_17 C14_17 1_555 1_555
O12_12 C14_17 1_555 1_555
N1_17 Zn5 1_555 1_555
N3_7 C22_17 1_555 1_555
C1_17 C2_17 1_555 1_555
C2_17 C3_17 1_555 1_555
C3_17 H1_17 1_555 1_555
C4_17 C3_17 1_555 1_555
H2_17 C4_17 1_555 1_555
C5_17 C4_17 1_555 1_555
C6_17 C5_17 1_555 1_555
C7_17 C2_17 1_555 1_555
H3_17 C7_17 1_555 1_555
C8_17 C5_17 1_555 1_555
C9_17 C6_17 1_555 1_555
C10_17 N1_17 1_555 1_555
H4_17 C10_17 1_555 1_555
C11_17 C9_17 1_555 1_555
H5_17 C11_17 1_555 1_555
C12_17 C11_17 1_555 1_555
H6_17 C12_17 1_555 1_555
C13_17 N1_17 1_555 1_555
H7_17 C13_17 1_555 1_555
C14_17 C15_17 1_555 1_555
C15_17 C16_17 1_555 1_555
C16_17 H8_17 1_555 1_555
H10_17 C19_17 1_555 1_555
C20_17 C15_17 1_555 1_555
C22_17 H11_17 1_555 1_555
C23_17 C20_17 1_555 1_555
C24_17 C23_17 1_555 1_555
H12_17 C24_17 1_555 1_555
C25_17 C24_17 1_555 1_555
H13_17 C25_17 1_555 1_555
C26_17 N3_7 1_555 1_555
H14_17 C26_17 1_555 1_555
C6_17 C7_17 1_555 1_555
C9_17 C10_17 1_555 1_555
C12_17 C13_17 1_555 1_555
C19_17 C20_17 1_555 1_555
C22_17 C23_17 1_555 1_555
C25_17 C26_17 1_555 1_555
Zn5_2 O5_18 1_555 1_555
Zn8_2 O2_18 1_555 1_555
O9_5 C1_18 1_555 1_555
O2_18 C1_18 1_555 1_555
O10_9 C8_18 1_555 1_555
O11_8 C8_18 1_555 1_555
O5_18 C14_18 1_555 1_555
O12_10 C14_18 1_555 1_555
O13 C21_18 1_555 1_555
O14_8 C21_18 1_555 1_555
N1_18 Zn5_2 1_555 1_555
N3_8 C22_18 1_555 1_555
C1_18 C2_18 1_555 1_555
C2_18 C3_18 1_555 1_555
C3_18 H1_18 1_555 1_555
C4_18 C3_18 1_555 1_555
H2_18 C4_18 1_555 1_555
C5_18 C4_18 1_555 1_555
C6_18 C5_18 1_555 1_555
C7_18 C2_18 1_555 1_555
H3_18 C7_18 1_555 1_555
C8_18 C5_18 1_555 1_555
C9_18 C6_18 1_555 1_555
C10_18 N1_18 1_555 1_555
H4_18 C10_18 1_555 1_555
C11_18 C9_18 1_555 1_555
H5_18 C11_18 1_555 1_555
C12_18 C11_18 1_555 1_555
H6_18 C12_18 1_555 1_555
C13_18 N1_18 1_555 1_555
H7_18 C13_18 1_555 1_555
C14_18 C15_18 1_555 1_555
C15_18 C16_18 1_555 1_555
C16_18 H8_18 1_555 1_555
C17_18 C16_18 1_555 1_555
H9_18 C17_18 1_555 1_555
C18_18 C17_18 1_555 1_555
C19_18 C18_18 1_555 1_555
H10_18 C19_18 1_555 1_555
C20_18 C15_18 1_555 1_555
C21_18 C18_18 1_555 1_555
C22_18 H11_18 1_555 1_555
C23_18 C20_18 1_555 1_555
C24_18 C23_18 1_555 1_555
H12_18 C24_18 1_555 1_555
C25_18 C24_18 1_555 1_555
H13_18 C25_18 1_555 1_555
C26_18 N3_8 1_555 1_555
H14_18 C26_18 1_555 1_555
C6_18 C7_18 1_555 1_555
C9_18 C10_18 1_555 1_555
C12_18 C13_18 1_555 1_555
C19_18 C20_18 1_555 1_555
C22_18 C23_18 1_555 1_555
C25_18 C26_18 1_555 1_555

#END
