
###############################################################################
#
# This file contains modified crystal structure data generated from the
# MOF subset of the Cambridge Structural Database (CSD) v543 
# hosted by the Cambridge Crystallographic Data Centre (CCDC).
#
# This work is licensed under the Creative Commons
# Attribution-NonCommercial-ShareAlike 4.0 International License.
# To view a copy of this license, visit
# http://creativecommons.org/licenses/by-nc-sa/4.0/
# or send a letter to
# Creative Commons, PO Box 1866, Mountain View, CA 94042, USA.
#
# CIF created using the CSD Python API on 29 September 2022
# The structure has been converted into the P1 space group
# The structure has a 3D framework
# The original CSD entry XAWGEL is in the orthorhombic crystal system
# The original CSD entry XAWGEL is in a Sohncke space group
# The framework has been calculated to contain at least 10.0% void space
# The void calculation uses a probe of radius 1.32A, grid spacing 0.4
# The framework is charged, counterions have been retained in the structure
#
###############################################################################

data_XAWGEL
_chemical_formula_moiety         '(C192 H144 Cd4 Cl8 N48 O32)n'
_symmetry_cell_setting           triclinic
_symmetry_space_group_name_H-M   'P 1'
_symmetry_Int_Tables_number      1
_space_group_name_Hall           'P 1'
loop_
_symmetry_equiv_pos_site_id
_symmetry_equiv_pos_as_xyz
1 x,y,z
_cell_length_a                   15.7006(2)
_cell_length_b                   16.1755(2)
_cell_length_c                   21.6748(3)
_cell_angle_alpha                90
_cell_angle_beta                 90
_cell_angle_gamma                90
_cell_volume                     5504.64
loop_
_atom_site_label
_atom_site_type_symbol
_atom_site_fract_x
_atom_site_fract_y
_atom_site_fract_z
O1 O 0.6852(8) 0.5419(8) 0.6202(7)
O2 O 0.6269(8) 0.6642(6) 0.5897(5)
Cl1 Cl 0.6097(2) 0.59874(18) 0.62318(13)
O3 O 0.5856(6) 0.6001(5) 0.6821(3)
O4 O 0.5477(9) 0.5457(8) 0.5901(5)
O1_2 O 0.8148(8) 0.4581(8) 0.1202(7)
O2_2 O 0.8731(8) 0.3358(6) 0.0897(5)
Cl1_2 Cl 0.8903(2) 0.40126(18) 0.12318(13)
O3_2 O 0.9144(6) 0.3999(5) 0.1821(3)
O4_2 O 0.9523(9) 0.4543(8) 0.0901(5)
O1_3 O 0.1852(8) 0.9581(8) 0.3798(7)
O2_3 O 0.1269(8) 0.8358(6) 0.4103(5)
Cl1_3 Cl 0.1097(2) 0.90126(18) 0.37682(13)
O3_3 O 0.0856(6) 0.8999(5) 0.3179(3)
O4_3 O 0.0477(9) 0.9543(8) 0.4099(5)
O1_4 O 0.3148(8) 0.0419(8) 0.8798(7)
O2_4 O 0.3731(8) 0.1642(6) 0.9103(5)
Cl1_4 Cl 0.3903(2) 0.09874(18) 0.87682(13)
O3_4 O 0.4144(6) 0.1001(5) 0.8179(3)
O4_4 O 0.4523(9) 0.0457(8) 0.9099(5)
C1 C 0.1125(4) 0.0909(4) 0.2590(3)
H1 H 0.1406 0.0420 0.2690
C2 C 0.0527(4) 0.1210(4) 0.3004(3)
H2 H 0.0416 0.0926 0.3368
C3 C 0.0097(4) 0.1933(4) 0.2871(3)
C4 C 0.0361(4) 0.2356(4) 0.2342(3)
H3 H 0.0132 0.2872 0.2251
C5 C 0.0961(4) 0.2012(3) 0.1955(3)
H4 H 0.1125 0.2304 0.1605
N1 N 0.1320(3) 0.1272(3) 0.2064(2)
Cd5 Cd 0.19412(2) 0.060548(19) 0.119628(17)
C6 C 0.9378(4) 0.2243(3) 0.3251(3)
C7 C 0.9224(4) 0.1945(4) 0.3842(3)
H5 H 0.9581 0.1543 0.4007
C8 C 0.8544(5) 0.2242(4) 0.4190(3)
H6 H 0.8442 0.2031 0.4582
C9 C 0.8007(5) 0.2863(4) 0.3946(3)
H7 H 0.7561 0.3076 0.4179
C10 C 0.8161(3) 0.3154(3) 0.3346(2)
C11 C 0.8829(4) 0.2847(3) 0.3012(3)
H8 H 0.8922 0.3045 0.2615
C12 C 0.7596(3) 0.3766(3) 0.3063(2)
C13 C 0.6616(3) 0.4259(3) 0.2445(3)
C14 C 0.5913(3) 0.4341(3) 0.2003(2)
C15 C 0.5850(4) 0.5075(4) 0.1669(3)
H9 H 0.6255 0.5490 0.1715
C16 C 0.5168(5) 0.5174(4) 0.1266(4)
H10 H 0.5118 0.5663 0.1043
C17 C 0.4569(4) 0.4569(4) 0.1192(4)
H11 H 0.4130 0.4643 0.0910
C18 C 0.4610(4) 0.3837(3) 0.1537(3)
C19 C 0.5292(3) 0.3742(3) 0.1939(3)
H12 H 0.5333 0.3260 0.2171
C20 C 0.3960(3) 0.3171(3) 0.1458(3)
C21 C 0.3831(4) 0.2571(4) 0.1908(3)
H13 H 0.4125 0.2597 0.2280
C22 C 0.3267(4) 0.1940(4) 0.1797(3)
H14 H 0.3199 0.1540 0.2102
C23 C 0.2918(4) 0.2444(3) 0.0855(3)
H15 H 0.2608 0.2411 0.0491
C24 C 0.3479(4) 0.3105(4) 0.0933(3)
H16 H 0.3526 0.3505 0.0626
C25 C 0.3325(4) 0.8554(4) 0.4808(3)
H17 H 0.2821 0.8822 0.4704
C26 C 0.3627(4) 0.7936(4) 0.4416(3)
H18 H 0.3326 0.7808 0.4059
C27 C 0.4359(3) 0.7515(3) 0.4550(3)
C28 C 0.4813(4) 0.7797(4) 0.5068(3)
H19 H 0.5344 0.7572 0.5161
C29 C 0.4471(4) 0.8410(4) 0.5441(3)
H20 H 0.4773 0.8573 0.5790
C30 C 0.4668(3) 0.6794(4) 0.4191(3)
C31 C 0.4373(4) 0.6625(4) 0.3602(3)
H21 H 0.3978 0.6978 0.3421
C32 C 0.4654(4) 0.5949(5) 0.3282(3)
H22 H 0.4455 0.5853 0.2884
C33 C 0.5238(4) 0.5401(4) 0.3548(3)
H23 H 0.5417 0.4934 0.3334
C34 C 0.5546(3) 0.5562(4) 0.4135(2)
C35 C 0.5262(3) 0.6257(3) 0.4457(3)
H24 H 0.5470 0.6363 0.4851
C36 C 0.6172(3) 0.5018(3) 0.4442(3)
C37 C 0.6677(3) 0.4062(3) 0.5047(3)
C38 C 0.6775(3) 0.3362(3) 0.5475(3)
C39 C 0.7489(4) 0.3342(4) 0.5848(3)
H25 H 0.7889 0.3765 0.5824
C40 C 0.7612(5) 0.2697(4) 0.6257(4)
H26 H 0.8087 0.2692 0.6514
C41 C 0.7031(4) 0.2065(4) 0.6283(4)
H27 H 0.7121 0.1630 0.6556
C42 C 0.6302(4) 0.2059(3) 0.5907(3)
C43 C 0.6173(4) 0.2717(4) 0.5500(3)
H28 H 0.5693 0.2728 0.5248
C44 C 0.5659(4) 0.1393(4) 0.5963(3)
C45 C 0.5564(4) 0.0930(4) 0.6497(3)
H29 H 0.5944 0.0999 0.6822
C46 C 0.4898(4) 0.0361(4) 0.6548(3)
H30 H 0.4837 0.0072 0.6917
C47 C 0.4446(4) 0.0645(4) 0.5569(3)
H31 H 0.4070 0.0549 0.5245
C48 C 0.5077(4) 0.1223(4) 0.5491(3)
H32 H 0.5119 0.1505 0.5118
Cd1 Cd 0.80588(2) 0.560548(19) 0.380372(17)
N2 N 0.7578(3) 0.4572(3) 0.3132(2)
N3 N 0.6959(3) 0.4897(3) 0.2739(2)
N4 N 0.6998(3) 0.3550(2) 0.2634(2)
N5 N 0.6836(4) 0.2754(3) 0.2409(3)
H33 H 0.6533 0.2474 0.2687
H34 H 0.7327 0.2495 0.2342
N6 N 0.2808(3) 0.1859(3) 0.1279(2)
N7 N 0.3722(3) 0.8780(3) 0.5322(2)
N8 N 0.7005(3) 0.5077(3) 0.4434(2)
N9 N 0.7333(3) 0.4459(3) 0.4818(2)
N10 N 0.5943(3) 0.4391(3) 0.4820(2)
N11 N 0.5107(3) 0.4153(4) 0.4991(3)
H35 H 0.4800 0.4603 0.5070
H36 H 0.4868 0.3872 0.4684
N12 N 0.4349(3) 0.0212(3) 0.6097(2)
Cd3 Cd 0.30588(2) 0.939452(19) 0.619628(17)
N13 N 0.8680(3) 0.6272(3) 0.2936(2)
N14 N 0.7192(3) 0.6859(3) 0.3721(2)
N15 N 0.8722(3) 0.6220(3) 0.4678(2)
N16 N 0.9349(3) 0.4788(3) 0.3903(2)
C28_2 C 0.0187(4) 0.2203(4) 0.0068(3)
C29_2 C 0.0529(4) 0.1590(4) 0.0441(3)
H20_2 H 0.0227 0.1427 0.0790
C46_2 C 0.0102(4) 0.9639(4) 0.1548(3)
H30_2 H 0.0163 0.9928 0.1917
C47_2 C 0.0554(4) 0.9355(4) 0.0569(3)
H31_2 H 0.0930 0.9451 0.0245
N7_2 N 0.1278(3) 0.1220(3) 0.0322(2)
H35_2 H 0.0200 0.5397 0.0070
N12_2 N 0.0651(3) 0.9788(3) 0.1097(2)
C17_2 C 0.0431(4) 0.5431(4) 0.6192(4)
H11_2 H 0.0870 0.5357 0.5910
C18_2 C 0.0390(4) 0.6163(3) 0.6537(3)
C20_2 C 0.1040(3) 0.6829(3) 0.6458(3)
C21_2 C 0.1169(4) 0.7429(4) 0.6908(3)
H13_2 H 0.0875 0.7403 0.7280
C22_2 C 0.1733(4) 0.8060(4) 0.6797(3)
H14_2 H 0.1801 0.8460 0.7102
C23_2 C 0.2082(4) 0.7556(3) 0.5855(3)
H15_2 H 0.2392 0.7589 0.5491
C24_2 C 0.1521(4) 0.6895(4) 0.5933(3)
H16_2 H 0.1474 0.6495 0.5626
C25_2 C 0.1675(4) 0.1446(4) 0.9808(3)
H17_2 H 0.2179 0.1178 0.9704
C26_2 C 0.1373(4) 0.2064(4) 0.9416(3)
H18_2 H 0.1674 0.2192 0.9059
C27_2 C 0.0641(3) 0.2485(3) 0.9550(3)
C30_2 C 0.0332(3) 0.3206(4) 0.9191(3)
C31_2 C 0.0627(4) 0.3375(4) 0.8602(3)
H21_2 H 0.1022 0.3022 0.8421
C32_2 C 0.0346(4) 0.4051(5) 0.8282(3)
H22_2 H 0.0545 0.4147 0.7884
N6_2 N 0.2192(3) 0.8141(3) 0.6279(2)
H36_2 H 0.0132 0.6128 0.9684
C1_2 C 0.3875(4) 0.9091(4) 0.7590(3)
H1_2 H 0.3594 0.9580 0.7690
C2_2 C 0.4473(4) 0.8790(4) 0.8004(3)
H2_2 H 0.4584 0.9074 0.8368
C3_2 C 0.4903(4) 0.8067(4) 0.7871(3)
C4_2 C 0.4639(4) 0.7644(4) 0.7342(3)
H3_2 H 0.4868 0.7128 0.7251
C5_2 C 0.4039(4) 0.7988(3) 0.6955(3)
H4_2 H 0.3875 0.7696 0.6605
C6_2 C 0.5622(4) 0.7757(3) 0.8251(3)
C7_2 C 0.5776(4) 0.8055(4) 0.8842(3)
H5_2 H 0.5419 0.8457 0.9007
C8_2 C 0.6456(5) 0.7758(4) 0.9190(3)
H6_2 H 0.6558 0.7969 0.9582
C9_2 C 0.6993(5) 0.7137(4) 0.8946(3)
H7_2 H 0.7439 0.6924 0.9179
C10_2 C 0.6839(3) 0.6846(3) 0.8346(2)
C11_2 C 0.6171(4) 0.7153(3) 0.8012(3)
H8_2 H 0.6078 0.6955 0.7615
C12_2 C 0.7404(3) 0.6234(3) 0.8063(2)
C13_2 C 0.8384(3) 0.5741(3) 0.7445(3)
C14_2 C 0.9087(3) 0.5659(3) 0.7003(2)
C15_2 C 0.9150(4) 0.4925(4) 0.6669(3)
H9_2 H 0.8745 0.4510 0.6715
C16_2 C 0.9832(5) 0.4826(4) 0.6266(4)
H10_2 H 0.9882 0.4337 0.6043
C19_2 C 0.9708(3) 0.6258(3) 0.6939(3)
H12_2 H 0.9667 0.6740 0.7171
C33_2 C 0.9762(4) 0.4599(4) 0.8548(3)
H23_2 H 0.9583 0.5066 0.8334
C34_2 C 0.9454(3) 0.4438(4) 0.9135(2)
C35_2 C 0.9738(3) 0.3743(3) 0.9457(3)
H24_2 H 0.9530 0.3637 0.9851
C36_2 C 0.8828(3) 0.4982(3) 0.9442(3)
Cd1_2 Cd 0.69412(2) 0.439452(19) 0.880372(17)
N1_2 N 0.3680(3) 0.8728(3) 0.7064(2)
N2_2 N 0.7422(3) 0.5428(3) 0.8132(2)
N3_2 N 0.8041(3) 0.5103(3) 0.7739(2)
N4_2 N 0.8002(3) 0.6450(2) 0.7634(2)
N5_2 N 0.8164(4) 0.7246(3) 0.7409(3)
H33_2 H 0.8467 0.7526 0.7687
H34_2 H 0.7673 0.7505 0.7342
N8_2 N 0.7995(3) 0.4923(3) 0.9434(2)
N9_2 N 0.7667(3) 0.5541(3) 0.9818(2)
N10_2 N 0.9057(3) 0.5609(3) 0.9820(2)
N11_2 N 0.9893(3) 0.5847(4) 0.9991(3)
N13_2 N 0.6320(3) 0.3728(3) 0.7936(2)
N14_2 N 0.7808(3) 0.3141(3) 0.8721(2)
N15_2 N 0.6278(3) 0.3780(3) 0.9678(2)
N16_2 N 0.5651(3) 0.5212(3) 0.8903(2)
C1_3 C 0.6125(4) 0.4091(4) 0.7410(3)
H1_3 H 0.6406 0.4580 0.7310
C2_3 C 0.5527(4) 0.3790(4) 0.6996(3)
H2_3 H 0.5416 0.4074 0.6632
C3_3 C 0.5097(4) 0.3067(4) 0.7129(3)
C4_3 C 0.5361(4) 0.2644(4) 0.7658(3)
H3_3 H 0.5132 0.2128 0.7749
C5_3 C 0.5961(4) 0.2988(3) 0.8045(3)
H4_3 H 0.6125 0.2696 0.8395
C6_3 C 0.4378(4) 0.2757(3) 0.6749(3)
C7_3 C 0.4224(4) 0.3055(4) 0.6158(3)
H5_3 H 0.4581 0.3457 0.5993
C8_3 C 0.3544(5) 0.2758(4) 0.5810(3)
H6_3 H 0.3442 0.2969 0.5418
C9_3 C 0.3007(5) 0.2137(4) 0.6054(3)
H7_3 H 0.2561 0.1924 0.5821
C10_3 C 0.3161(3) 0.1846(3) 0.6654(2)
C11_3 C 0.3829(4) 0.2153(3) 0.6988(3)
H8_3 H 0.3922 0.1955 0.7385
C12_3 C 0.2596(3) 0.1234(3) 0.6937(2)
C13_3 C 0.1616(3) 0.0741(3) 0.7555(3)
C14_3 C 0.0913(3) 0.0659(3) 0.7997(2)
C19_3 C 0.0292(3) 0.1258(3) 0.8061(3)
H12_3 H 0.0333 0.1740 0.7829
H23_3 H 0.0417 0.0066 0.6666
C37_2 C 0.1677(3) 0.0938(3) 0.4953(3)
C38_2 C 0.1775(3) 0.1638(3) 0.4525(3)
C39_2 C 0.2489(4) 0.1658(4) 0.4152(3)
H25_2 H 0.2889 0.1235 0.4176
C40_2 C 0.2612(5) 0.2303(4) 0.3743(4)
H26_2 H 0.3087 0.2308 0.3486
C41_2 C 0.2031(4) 0.2935(4) 0.3717(4)
H27_2 H 0.2121 0.3370 0.3444
C42_2 C 0.1302(4) 0.2941(3) 0.4093(3)
C43_2 C 0.1173(4) 0.2283(4) 0.4500(3)
H28_2 H 0.0693 0.2272 0.4752
C44_2 C 0.0659(4) 0.3607(4) 0.4037(3)
C45_2 C 0.0564(4) 0.4070(4) 0.3503(3)
H29_2 H 0.0944 0.4001 0.3178
C48_2 C 0.0077(4) 0.3777(4) 0.4509(3)
H32_2 H 0.0119 0.3495 0.4882
N2_3 N 0.2578(3) 0.0428(3) 0.6868(2)
N3_3 N 0.1959(3) 0.0103(3) 0.7261(2)
N4_3 N 0.1998(3) 0.1450(2) 0.7366(2)
N5_3 N 0.1836(4) 0.2246(3) 0.7591(3)
H33_3 H 0.1533 0.2526 0.7313
H34_3 H 0.2327 0.2505 0.7658
N9_3 N 0.2333(3) 0.0541(3) 0.5182(2)
N10_3 N 0.0943(3) 0.0609(3) 0.5180(2)
N11_3 N 0.0107(3) 0.0847(4) 0.5009(3)
C15_3 C 0.0850(4) 0.9925(4) 0.8331(3)
H9_3 H 0.1255 0.9510 0.8285
C16_3 C 0.0168(5) 0.9826(4) 0.8734(4)
H10_3 H 0.0118 0.9337 0.8957
H19_2 H 0.0344 0.7428 0.4839
C33_3 C 0.0238(4) 0.9599(4) 0.6452(3)
C34_3 C 0.0546(3) 0.9438(4) 0.5865(2)
C35_3 C 0.0262(3) 0.8743(3) 0.5543(3)
H24_3 H 0.0470 0.8637 0.5149
C36_3 C 0.1172(3) 0.9982(3) 0.5558(3)
N8_3 N 0.2005(3) 0.9923(3) 0.5566(2)
C17_3 C 0.9569(4) 0.0431(4) 0.8808(4)
H11_3 H 0.9130 0.0357 0.9090
C18_3 C 0.9610(4) 0.1163(3) 0.8463(3)
C20_3 C 0.8960(3) 0.1829(3) 0.8542(3)
C21_3 C 0.8831(4) 0.2429(4) 0.8092(3)
H13_3 H 0.9125 0.2403 0.7720
C22_3 C 0.8267(4) 0.3060(4) 0.8203(3)
H14_3 H 0.8199 0.3460 0.7898
C23_3 C 0.7918(4) 0.2556(3) 0.9145(3)
H15_3 H 0.7608 0.2589 0.9509
C24_3 C 0.8479(4) 0.1895(4) 0.9067(3)
H16_3 H 0.8526 0.1495 0.9374
C46_3 C 0.9898(4) 0.4639(4) 0.3452(3)
H30_3 H 0.9837 0.4928 0.3083
C47_3 C 0.9446(4) 0.4355(4) 0.4431(3)
H31_3 H 0.9070 0.4451 0.4755
H35_3 H 0.9800 0.0397 0.4930
H36_3 H 0.9868 0.1128 0.5316
C25_3 C 0.8325(4) 0.6446(4) 0.5192(3)
H17_3 H 0.7821 0.6178 0.5296
C26_3 C 0.8627(4) 0.7064(4) 0.5584(3)
H18_3 H 0.8326 0.7192 0.5941
C27_3 C 0.9359(3) 0.7485(3) 0.5450(3)
C28_3 C 0.9813(4) 0.7203(4) 0.4932(3)
C29_3 C 0.9471(4) 0.6590(4) 0.4559(3)
H20_3 H 0.9773 0.6427 0.4210
C30_3 C 0.9668(3) 0.8206(4) 0.5809(3)
C31_3 C 0.9373(4) 0.8375(4) 0.6398(3)
H21_3 H 0.8978 0.8022 0.6579
C32_3 C 0.9654(4) 0.9051(5) 0.6718(3)
H22_3 H 0.9455 0.9147 0.7116
C15_4 C 0.4150(4) 0.0075(4) 0.3331(3)
H9_4 H 0.3745 0.0490 0.3285
C16_4 C 0.4832(5) 0.0174(4) 0.3734(4)
H10_4 H 0.4882 0.0663 0.3957
C25_4 C 0.6675(4) 0.3554(4) 0.0192(3)
H17_4 H 0.7179 0.3822 0.0296
C26_4 C 0.6373(4) 0.2936(4) 0.0584(3)
H18_4 H 0.6674 0.2808 0.0941
C27_4 C 0.5641(3) 0.2515(3) 0.0450(3)
C30_4 C 0.5332(3) 0.1794(4) 0.0809(3)
C31_4 C 0.5627(4) 0.1625(4) 0.1398(3)
H21_4 H 0.6022 0.1978 0.1579
C32_4 C 0.5346(4) 0.0949(5) 0.1718(3)
H22_4 H 0.5545 0.0853 0.2116
C33_4 C 0.4762(4) 0.0401(4) 0.1452(3)
C34_4 C 0.4454(3) 0.0562(4) 0.0865(2)
C35_4 C 0.4738(3) 0.1257(3) 0.0543(3)
H24_4 H 0.4530 0.1363 0.0149
C36_4 C 0.3828(3) 0.0018(3) 0.0558(3)
N8_4 N 0.2995(3) 0.0077(3) 0.0566(2)
C28_4 C 0.5187(4) 0.2797(4) 0.9932(3)
H19_3 H 0.4656 0.2572 0.9839
C29_4 C 0.5529(4) 0.3410(4) 0.9559(3)
H20_4 H 0.5227 0.3573 0.9210
C6_4 C 0.0622(4) 0.7243(3) 0.1749(3)
C7_4 C 0.0776(4) 0.6945(4) 0.1158(3)
H5_4 H 0.0419 0.6543 0.0993
C8_4 C 0.1456(5) 0.7242(4) 0.0810(3)
H6_4 H 0.1558 0.7031 0.0418
C9_4 C 0.1993(5) 0.7863(4) 0.1054(3)
H7_4 H 0.2439 0.8076 0.0821
C10_4 C 0.1839(3) 0.8154(3) 0.1654(2)
C11_4 C 0.1171(4) 0.7847(3) 0.1988(3)
H8_4 H 0.1078 0.8045 0.2385
C12_4 C 0.2404(3) 0.8766(3) 0.1937(2)
C13_4 C 0.3384(3) 0.9259(3) 0.2555(3)
C14_4 C 0.4087(3) 0.9341(3) 0.2997(2)
C17_4 C 0.5431(4) 0.9569(4) 0.3808(4)
H11_4 H 0.5870 0.9643 0.4090
C18_4 C 0.5390(4) 0.8837(3) 0.3463(3)
C19_4 C 0.4708(3) 0.8742(3) 0.3061(3)
H12_4 H 0.4667 0.8260 0.2829
C20_4 C 0.6040(3) 0.8171(3) 0.3542(3)
C21_4 C 0.6169(4) 0.7571(4) 0.3092(3)
H13_4 H 0.5875 0.7597 0.2720
C22_4 C 0.6733(4) 0.6940(4) 0.3203(3)
H14_4 H 0.6801 0.6540 0.2898
C23_4 C 0.7082(4) 0.7444(3) 0.4145(3)
H15_4 H 0.7392 0.7411 0.4509
C24_4 C 0.6521(4) 0.8105(4) 0.4067(3)
H16_4 H 0.6474 0.8505 0.4374
H23_4 H 0.4583 0.9934 0.1666
N2_4 N 0.2422(3) 0.9572(3) 0.1868(2)
N3_4 N 0.3041(3) 0.9897(3) 0.2261(2)
N4_4 N 0.3002(3) 0.8550(2) 0.2366(2)
N5_4 N 0.3164(4) 0.7754(3) 0.2591(3)
H33_4 H 0.3467 0.7474 0.2313
H34_4 H 0.2673 0.7495 0.2658
N9_4 N 0.2667(3) 0.9459(3) 0.0182(2)
N10_4 N 0.4057(3) 0.9391(3) 0.0180(2)
N11_4 N 0.4893(3) 0.9153(4) 0.0009(3)
H36_4 H 0.5132 0.8872 0.0316
C37_3 C 0.3323(3) 0.9062(3) 0.9953(3)
C38_3 C 0.3225(3) 0.8362(3) 0.9525(3)
C39_3 C 0.2511(4) 0.8342(4) 0.9152(3)
H25_3 H 0.2111 0.8765 0.9176
C40_3 C 0.2388(5) 0.7697(4) 0.8743(4)
H26_3 H 0.1913 0.7692 0.8486
C41_3 C 0.2969(4) 0.7065(4) 0.8717(4)
H27_3 H 0.2879 0.6630 0.8444
C42_3 C 0.3698(4) 0.7059(3) 0.9093(3)
C43_3 C 0.3827(4) 0.7717(4) 0.9500(3)
H28_3 H 0.4307 0.7728 0.9752
C44_3 C 0.4341(4) 0.6393(4) 0.9037(3)
C45_3 C 0.4436(4) 0.5930(4) 0.8503(3)
H29_3 H 0.4056 0.5999 0.8178
C46_4 C 0.5102(4) 0.5361(4) 0.8452(3)
H30_4 H 0.5163 0.5072 0.8083
C47_4 C 0.5554(4) 0.5645(4) 0.9431(3)
H31_4 H 0.5930 0.5549 0.9755
C48_3 C 0.4923(4) 0.6223(4) 0.9509(3)
H32_3 H 0.4881 0.6505 0.9882
H35_4 H 0.5200 0.9603 0.9930
C1_4 C 0.8875(4) 0.5909(4) 0.2410(3)
H1_4 H 0.8594 0.5420 0.2310
C2_4 C 0.9473(4) 0.6210(4) 0.1996(3)
H2_4 H 0.9584 0.5926 0.1632
C3_4 C 0.9903(4) 0.6933(4) 0.2129(3)
C4_4 C 0.9639(4) 0.7356(4) 0.2658(3)
H3_4 H 0.9868 0.7872 0.2749
C5_4 C 0.9039(4) 0.7012(3) 0.3045(3)
H4_4 H 0.8875 0.7304 0.3395
H19_4 H 0.9656 0.2428 0.0161
C37_4 C 0.8323(3) 0.5938(3) 0.0047(3)
C38_4 C 0.8225(3) 0.6638(3) 0.0475(3)
C39_4 C 0.7511(4) 0.6658(4) 0.0848(3)
H25_4 H 0.7111 0.6235 0.0824
C40_4 C 0.7388(5) 0.7303(4) 0.1257(4)
H26_4 H 0.6913 0.7308 0.1514
C41_4 C 0.7969(4) 0.7935(4) 0.1283(4)
H27_4 H 0.7879 0.8370 0.1556
C42_4 C 0.8698(4) 0.7941(3) 0.0907(3)
C43_4 C 0.8827(4) 0.7283(4) 0.0500(3)
H28_4 H 0.9307 0.7272 0.0248
C44_4 C 0.9341(4) 0.8607(4) 0.0963(3)
C45_4 C 0.9436(4) 0.9070(4) 0.1497(3)
H29_4 H 0.9056 0.9001 0.1822
C48_4 C 0.9923(4) 0.8777(4) 0.0491(3)
H32_4 H 0.9881 0.8495 0.0118
O5 O 0.5810(7) 0.3271(6) 0.3693(5)
O6 O 0.4827(6) 0.2350(6) 0.4204(4)
O7 O 0.5009(7) 0.2249(7) 0.3164(5)
O8 O 0.4614(13) 0.3416(12) 0.3572(8)
Cl2 Cl 0.5133(8) 0.2732(6) 0.3637(5)
O6_2 O 0.0173(6) 0.7650(6) 0.9204(4)
O8_2 O 0.0386(13) 0.6584(12) 0.8572(8)
O5_2 O 0.9190(7) 0.6729(6) 0.8693(5)
O7_2 O 0.9991(7) 0.7751(7) 0.8164(5)
Cl2_2 Cl 0.9867(8) 0.7268(6) 0.8637(5)
O5_3 O 0.0810(7) 0.1729(6) 0.6307(5)
O7_3 O 0.0009(7) 0.2751(7) 0.6836(5)
Cl2_3 Cl 0.0133(8) 0.2268(6) 0.6363(5)
O6_3 O 0.9827(6) 0.2650(6) 0.5796(4)
O8_3 O 0.9614(13) 0.1584(12) 0.6428(8)
O5_4 O 0.4190(7) 0.8271(6) 0.1307(5)
O6_4 O 0.5173(6) 0.7350(6) 0.0796(4)
O7_4 O 0.4991(7) 0.7249(7) 0.1836(5)
O8_4 O 0.5386(13) 0.8416(12) 0.1428(8)
Cl2_4 Cl 0.4867(8) 0.7732(6) 0.1363(5)
loop_
_geom_bond_atom_site_label_1
_geom_bond_atom_site_label_2
_geom_bond_site_symmetry_1
_geom_bond_site_symmetry_2
O1 Cl1 1_555 1_555
O2 Cl1 1_555 1_555
Cl1 O3 1_555 1_555
O4 Cl1 1_555 1_555
O1_2 Cl1_2 1_555 1_555
O2_2 Cl1_2 1_555 1_555
Cl1_2 O3_2 1_555 1_555
O4_2 Cl1_2 1_555 1_555
O1_3 Cl1_3 1_555 1_555
O2_3 Cl1_3 1_555 1_555
Cl1_3 O3_3 1_555 1_555
O4_3 Cl1_3 1_555 1_555
O1_4 Cl1_4 1_555 1_555
O2_4 Cl1_4 1_555 1_555
Cl1_4 O3_4 1_555 1_555
O4_4 Cl1_4 1_555 1_555
C1 H1 1_555 1_555
C2 C1 1_555 1_555
H2 C2 1_555 1_555
C3 C2 1_555 1_555
C4 C3 1_555 1_555
H3 C4 1_555 1_555
C5 C4 1_555 1_555
H4 C5 1_555 1_555
N1 C1 1_555 1_555
Cd5 N1 1_555 1_555
C5 N1 1_555 1_555
C7 C6 1_555 1_555
H5 C7 1_555 1_555
C8 C7 1_555 1_555
H6 C8 1_555 1_555
C9 C8 1_555 1_555
H7 C9 1_555 1_555
C10 C9 1_555 1_555
C11 C6 1_555 1_555
H8 C11 1_555 1_555
C12 C10 1_555 1_555
C13 C14 1_555 1_555
C14 C15 1_555 1_555
C15 H9 1_555 1_555
C16 C15 1_555 1_555
H10 C16 1_555 1_555
C17 C16 1_555 1_555
H11 C17 1_555 1_555
C18 C17 1_555 1_555
C19 C14 1_555 1_555
H12 C19 1_555 1_555
C20 C18 1_555 1_555
C21 C20 1_555 1_555
H13 C21 1_555 1_555
C22 C21 1_555 1_555
H14 C22 1_555 1_555
C23 H15 1_555 1_555
C24 C20 1_555 1_555
H16 C24 1_555 1_555
C25 H17 1_555 1_555
C26 C25 1_555 1_555
H18 C26 1_555 1_555
C27 C26 1_555 1_555
C28 C27 1_555 1_555
H19 C28 1_555 1_555
C29 C28 1_555 1_555
H20 C29 1_555 1_555
C30 C27 1_555 1_555
C31 C30 1_555 1_555
H21 C31 1_555 1_555
C32 C31 1_555 1_555
H22 C32 1_555 1_555
C33 C32 1_555 1_555
H23 C33 1_555 1_555
C34 C33 1_555 1_555
C35 C30 1_555 1_555
H24 C35 1_555 1_555
C36 C34 1_555 1_555
C37 C38 1_555 1_555
C38 C39 1_555 1_555
C39 H25 1_555 1_555
C40 C39 1_555 1_555
H26 C40 1_555 1_555
C41 C40 1_555 1_555
H27 C41 1_555 1_555
C42 C41 1_555 1_555
C43 C38 1_555 1_555
H28 C43 1_555 1_555
C44 C42 1_555 1_555
C45 C44 1_555 1_555
H29 C45 1_555 1_555
C46 C45 1_555 1_555
H30 C46 1_555 1_555
C47 H31 1_555 1_555
C48 C44 1_555 1_555
H32 C48 1_555 1_555
Cd1 N2 1_555 1_555
N2 C12 1_555 1_555
N3 C13 1_555 1_555
N4 C12 1_555 1_555
N5 N4 1_555 1_555
H33 N5 1_555 1_555
H34 N5 1_555 1_555
N6 C22 1_555 1_555
N7 C25 1_555 1_555
N8 C36 1_555 1_555
N9 C37 1_555 1_555
N10 C36 1_555 1_555
N11 N10 1_555 1_555
H35 N11 1_555 1_555
H36 N11 1_555 1_555
N12 C46 1_555 1_555
Cd3 N7 1_555 1_555
Cd5 N6 1_555 1_555
N13 Cd1 1_555 1_555
N14 Cd1 1_555 1_555
N15 Cd1 1_555 1_555
N16 Cd1 1_555 1_555
C10 C11 1_555 1_555
C13 N4 1_555 1_555
C18 C19 1_555 1_555
C23 C24 1_555 1_555
C23 N6 1_555 1_555
C29 N7 1_555 1_555
C34 C35 1_555 1_555
C37 N10 1_555 1_555
C42 C43 1_555 1_555
C47 C48 1_555 1_555
C47 N12 1_555 1_555
Cd1 N8 1_555 1_555
N2 N3 1_555 1_555
N8 N9 1_555 1_555
C29_2 C28_2 1_555 1_555
H20_2 C29_2 1_555 1_555
H30_2 C46_2 1_555 1_555
C47_2 H31_2 1_555 1_555
N12_2 C46_2 1_555 1_555
Cd5 N7_2 1_555 1_555
C29_2 N7_2 1_555 1_555
C47_2 N12_2 1_555 1_555
H11_2 C17_2 1_555 1_555
C18_2 C17_2 1_555 1_555
C20_2 C18_2 1_555 1_555
C21_2 C20_2 1_555 1_555
H13_2 C21_2 1_555 1_555
C22_2 C21_2 1_555 1_555
H14_2 C22_2 1_555 1_555
C23_2 H15_2 1_555 1_555
C24_2 C20_2 1_555 1_555
H16_2 C24_2 1_555 1_555
C25_2 H17_2 1_555 1_555
C26_2 C25_2 1_555 1_555
H18_2 C26_2 1_555 1_555
C27_2 C26_2 1_555 1_555
C30_2 C27_2 1_555 1_555
C31_2 C30_2 1_555 1_555
H21_2 C31_2 1_555 1_555
C32_2 C31_2 1_555 1_555
H22_2 C32_2 1_555 1_555
N6_2 C22_2 1_555 1_555
Cd3 N6_2 1_555 1_555
C23_2 C24_2 1_555 1_555
C23_2 N6_2 1_555 1_555
C1_2 H1_2 1_555 1_555
C2_2 C1_2 1_555 1_555
H2_2 C2_2 1_555 1_555
C3_2 C2_2 1_555 1_555
C4_2 C3_2 1_555 1_555
H3_2 C4_2 1_555 1_555
C5_2 C4_2 1_555 1_555
H4_2 C5_2 1_555 1_555
C6_2 C3_2 1_555 1_555
C7_2 C6_2 1_555 1_555
H5_2 C7_2 1_555 1_555
C8_2 C7_2 1_555 1_555
H6_2 C8_2 1_555 1_555
C9_2 C8_2 1_555 1_555
H7_2 C9_2 1_555 1_555
C10_2 C9_2 1_555 1_555
C11_2 C6_2 1_555 1_555
H8_2 C11_2 1_555 1_555
C12_2 C10_2 1_555 1_555
C13_2 C14_2 1_555 1_555
C14_2 C15_2 1_555 1_555
C15_2 H9_2 1_555 1_555
C16_2 C15_2 1_555 1_555
H10_2 C16_2 1_555 1_555
C19_2 C14_2 1_555 1_555
H12_2 C19_2 1_555 1_555
H23_2 C33_2 1_555 1_555
C34_2 C33_2 1_555 1_555
H24_2 C35_2 1_555 1_555
C36_2 C34_2 1_555 1_555
Cd1_2 N2_2 1_555 1_555
N1_2 C1_2 1_555 1_555
N2_2 C12_2 1_555 1_555
N3_2 C13_2 1_555 1_555
N4_2 C12_2 1_555 1_555
N5_2 N4_2 1_555 1_555
H33_2 N5_2 1_555 1_555
H34_2 N5_2 1_555 1_555
N8_2 C36_2 1_555 1_555
N10_2 C36_2 1_555 1_555
N11_2 N10_2 1_555 1_555
Cd3 N1_2 1_555 1_555
N13_2 Cd1_2 1_555 1_555
N14_2 Cd1_2 1_555 1_555
N15_2 Cd1_2 1_555 1_555
N16_2 Cd1_2 1_555 1_555
C5_2 N1_2 1_555 1_555
C10_2 C11_2 1_555 1_555
C13_2 N4_2 1_555 1_555
C34_2 C35_2 1_555 1_555
Cd1_2 N8_2 1_555 1_555
N2_2 N3_2 1_555 1_555
N8_2 N9_2 1_555 1_555
C1_3 H1_3 1_555 1_555
C2_3 C1_3 1_555 1_555
H2_3 C2_3 1_555 1_555
C3_3 C2_3 1_555 1_555
C4_3 C3_3 1_555 1_555
H3_3 C4_3 1_555 1_555
C5_3 C4_3 1_555 1_555
H4_3 C5_3 1_555 1_555
C6_3 C3_3 1_555 1_555
C7_3 C6_3 1_555 1_555
H5_3 C7_3 1_555 1_555
C8_3 C7_3 1_555 1_555
H6_3 C8_3 1_555 1_555
C9_3 C8_3 1_555 1_555
H7_3 C9_3 1_555 1_555
C10_3 C9_3 1_555 1_555
C11_3 C6_3 1_555 1_555
H8_3 C11_3 1_555 1_555
C12_3 C10_3 1_555 1_555
C13_3 C14_3 1_555 1_555
C19_3 C14_3 1_555 1_555
H12_3 C19_3 1_555 1_555
C37_2 C38_2 1_555 1_555
C38_2 C39_2 1_555 1_555
C39_2 H25_2 1_555 1_555
C40_2 C39_2 1_555 1_555
H26_2 C40_2 1_555 1_555
C41_2 C40_2 1_555 1_555
H27_2 C41_2 1_555 1_555
C42_2 C41_2 1_555 1_555
C43_2 C38_2 1_555 1_555
H28_2 C43_2 1_555 1_555
C44_2 C42_2 1_555 1_555
C45_2 C44_2 1_555 1_555
H29_2 C45_2 1_555 1_555
C48_2 C44_2 1_555 1_555
H32_2 C48_2 1_555 1_555
N13_2 C1_3 1_555 1_555
N2_3 C12_3 1_555 1_555
N3_3 C13_3 1_555 1_555
N4_3 C12_3 1_555 1_555
N5_3 N4_3 1_555 1_555
H33_3 N5_3 1_555 1_555
H34_3 N5_3 1_555 1_555
N9_3 C37_2 1_555 1_555
N11_3 N10_3 1_555 1_555
C5_3 N13_2 1_555 1_555
C10_3 C11_3 1_555 1_555
C13_3 N4_3 1_555 1_555
C37_2 N10_3 1_555 1_555
C42_2 C43_2 1_555 1_555
N2_3 N3_3 1_555 1_555
C15_3 H9_3 1_555 1_555
C16_3 C15_3 1_555 1_555
H10_3 C16_3 1_555 1_555
C34_3 C33_3 1_555 1_555
H24_3 C35_3 1_555 1_555
C36_3 C34_3 1_555 1_555
N8_3 C36_3 1_555 1_555
C34_3 C35_3 1_555 1_555
Cd3 N8_3 1_555 1_555
H11_3 C17_3 1_555 1_555
C18_3 C17_3 1_555 1_555
C20_3 C18_3 1_555 1_555
C21_3 C20_3 1_555 1_555
H13_3 C21_3 1_555 1_555
C22_3 C21_3 1_555 1_555
H14_3 C22_3 1_555 1_555
C23_3 H15_3 1_555 1_555
C24_3 C20_3 1_555 1_555
H16_3 C24_3 1_555 1_555
H30_3 C46_3 1_555 1_555
C47_3 H31_3 1_555 1_555
N14_2 C22_3 1_555 1_555
N16 C46_3 1_555 1_555
C23_3 C24_3 1_555 1_555
C23_3 N14_2 1_555 1_555
C47_3 N16 1_555 1_555
C25_3 H17_3 1_555 1_555
C26_3 C25_3 1_555 1_555
H18_3 C26_3 1_555 1_555
C27_3 C26_3 1_555 1_555
C28_3 C27_3 1_555 1_555
C29_3 C28_3 1_555 1_555
H20_3 C29_3 1_555 1_555
C30_3 C27_3 1_555 1_555
C31_3 C30_3 1_555 1_555
H21_3 C31_3 1_555 1_555
C32_3 C31_3 1_555 1_555
H22_3 C32_3 1_555 1_555
N15 C25_3 1_555 1_555
C29_3 N15 1_555 1_555
C15_4 H9_4 1_555 1_555
C16_4 C15_4 1_555 1_555
H10_4 C16_4 1_555 1_555
C25_4 H17_4 1_555 1_555
C26_4 C25_4 1_555 1_555
H18_4 C26_4 1_555 1_555
C27_4 C26_4 1_555 1_555
C30_4 C27_4 1_555 1_555
C31_4 C30_4 1_555 1_555
H21_4 C31_4 1_555 1_555
C32_4 C31_4 1_555 1_555
H22_4 C32_4 1_555 1_555
C33_4 C32_4 1_555 1_555
C34_4 C33_4 1_555 1_555
C35_4 C30_4 1_555 1_555
H24_4 C35_4 1_555 1_555
C36_4 C34_4 1_555 1_555
N8_4 C36_4 1_555 1_555
C34_4 C35_4 1_555 1_555
Cd5 N8_4 1_555 1_555
H19_3 C28_4 1_555 1_555
C29_4 C28_4 1_555 1_555
H20_4 C29_4 1_555 1_555
C29_4 N15_2 1_555 1_555
C7_4 C6_4 1_555 1_555
H5_4 C7_4 1_555 1_555
C8_4 C7_4 1_555 1_555
H6_4 C8_4 1_555 1_555
C9_4 C8_4 1_555 1_555
H7_4 C9_4 1_555 1_555
C10_4 C9_4 1_555 1_555
C11_4 C6_4 1_555 1_555
H8_4 C11_4 1_555 1_555
C12_4 C10_4 1_555 1_555
C13_4 C14_4 1_555 1_555
H11_4 C17_4 1_555 1_555
C18_4 C17_4 1_555 1_555
C19_4 C14_4 1_555 1_555
H12_4 C19_4 1_555 1_555
C20_4 C18_4 1_555 1_555
C21_4 C20_4 1_555 1_555
H13_4 C21_4 1_555 1_555
C22_4 C21_4 1_555 1_555
H14_4 C22_4 1_555 1_555
C23_4 H15_4 1_555 1_555
C24_4 C20_4 1_555 1_555
H16_4 C24_4 1_555 1_555
N2_4 C12_4 1_555 1_555
N3_4 C13_4 1_555 1_555
N4_4 C12_4 1_555 1_555
N5_4 N4_4 1_555 1_555
H33_4 N5_4 1_555 1_555
H34_4 N5_4 1_555 1_555
N14 C22_4 1_555 1_555
N11_4 N10_4 1_555 1_555
H36_4 N11_4 1_555 1_555
C10_4 C11_4 1_555 1_555
C13_4 N4_4 1_555 1_555
C18_4 C19_4 1_555 1_555
C23_4 C24_4 1_555 1_555
C23_4 N14 1_555 1_555
N2_4 N3_4 1_555 1_555
C37_3 C38_3 1_555 1_555
C38_3 C39_3 1_555 1_555
C39_3 H25_3 1_555 1_555
C40_3 C39_3 1_555 1_555
H26_3 C40_3 1_555 1_555
C41_3 C40_3 1_555 1_555
H27_3 C41_3 1_555 1_555
C42_3 C41_3 1_555 1_555
C43_3 C38_3 1_555 1_555
H28_3 C43_3 1_555 1_555
C44_3 C42_3 1_555 1_555
C45_3 C44_3 1_555 1_555
H29_3 C45_3 1_555 1_555
C46_4 C45_3 1_555 1_555
H30_4 C46_4 1_555 1_555
C47_4 H31_4 1_555 1_555
C48_3 C44_3 1_555 1_555
H32_3 C48_3 1_555 1_555
N16_2 C46_4 1_555 1_555
C42_3 C43_3 1_555 1_555
C47_4 C48_3 1_555 1_555
C47_4 N16_2 1_555 1_555
C1_4 H1_4 1_555 1_555
C2_4 C1_4 1_555 1_555
H2_4 C2_4 1_555 1_555
C3_4 C2_4 1_555 1_555
C4_4 C3_4 1_555 1_555
H3_4 C4_4 1_555 1_555
C5_4 C4_4 1_555 1_555
H4_4 C5_4 1_555 1_555
N13 C1_4 1_555 1_555
C5_4 N13 1_555 1_555
C37_4 C38_4 1_555 1_555
C38_4 C39_4 1_555 1_555
C39_4 H25_4 1_555 1_555
C40_4 C39_4 1_555 1_555
H26_4 C40_4 1_555 1_555
C41_4 C40_4 1_555 1_555
H27_4 C41_4 1_555 1_555
C42_4 C41_4 1_555 1_555
C43_4 C38_4 1_555 1_555
H28_4 C43_4 1_555 1_555
C44_4 C42_4 1_555 1_555
C45_4 C44_4 1_555 1_555
H29_4 C45_4 1_555 1_555
C48_4 C44_4 1_555 1_555
H32_4 C48_4 1_555 1_555
C42_4 C43_4 1_555 1_555
O5 Cl2 1_555 1_555
O6 Cl2 1_555 1_555
O7 Cl2 1_555 1_555
O8 Cl2 1_555 1_555
O5_2 Cl2_2 1_555 1_555
O7_2 Cl2_2 1_555 1_555
O5_3 Cl2_3 1_555 1_555
O7_3 Cl2_3 1_555 1_555
O5_4 Cl2_4 1_555 1_555
O6_4 Cl2_4 1_555 1_555
O7_4 Cl2_4 1_555 1_555
O8_4 Cl2_4 1_555 1_555

#END
