
###############################################################################
#
# This file contains modified crystal structure data generated from the
# MOF subset of the Cambridge Structural Database (CSD) v543 
# hosted by the Cambridge Crystallographic Data Centre (CCDC).
#
# This work is licensed under the Creative Commons
# Attribution-NonCommercial-ShareAlike 4.0 International License.
# To view a copy of this license, visit
# http://creativecommons.org/licenses/by-nc-sa/4.0/
# or send a letter to
# Creative Commons, PO Box 1866, Mountain View, CA 94042, USA.
#
# CIF created using the CSD Python API on 29 September 2022
# The structure has been converted into the P1 space group
# The structure has a 3D framework
# The original CSD entry XAWGAH is in the tetragonal crystal system
# The original CSD entry XAWGAH is in a Sohncke space group
# The framework has been calculated to contain at least 10.0% void space
# The void calculation uses a probe of radius 1.32A, grid spacing 0.4
# The framework is charged, counterions have been retained in the structure
#
###############################################################################

data_XAWGAH
_chemical_formula_moiety         '(C192 H144 Cd2 Cl5 N48 O16)n'
_symmetry_cell_setting           triclinic
_symmetry_space_group_name_H-M   'P 1'
_symmetry_Int_Tables_number      1
_space_group_name_Hall           'P 1'
loop_
_symmetry_equiv_pos_site_id
_symmetry_equiv_pos_as_xyz
1 x,y,z
_cell_length_a                   15.8898(3)
_cell_length_b                   15.8898(3)
_cell_length_c                   21.4310(7)
_cell_angle_alpha                90
_cell_angle_beta                 90
_cell_angle_gamma                90
_cell_volume                     5411.02
loop_
_atom_site_label
_atom_site_type_symbol
_atom_site_fract_x
_atom_site_fract_y
_atom_site_fract_z
N1 N 0.1475(6) 0.0579(7) 0.1110(4)
C3 C 0.0667(8) 0.1639(7) 0.1775(5)
N3 N 0.0111(6) 0.0560(7) 0.1070(4)
C4 C 0.0418(9) 0.2948(10) 0.2601(6)
H2 H 0.0340 0.3375 0.2892
C6 C 0.0744(7) 0.0933(7) 0.1332(4)
C7 C 0.1249(7) 0.2262(8) 0.1819(5)
H4 H 0.1729 0.2236 0.1571
C9 C 0.1801(8) 0.3591(9) 0.2286(5)
N5 N 0.3137(7) 0.4765(7) 0.2443(5)
C10 C 0.1146(8) 0.2948(9) 0.2232(5)
C12 C 0.2393(9) 0.3742(9) 0.1820(5)
H5 H 0.2355 0.3451 0.1444
C16 C 0.1908(9) 0.4074(9) 0.2829(6)
H8 H 0.1529 0.4016 0.3158
C17 C 0.3022(9) 0.4303(9) 0.1903(5)
H9 H 0.3401 0.4384 0.1577
N6 N 0.2294(7) 0.0781(8) 0.1321(5)
H11 H 0.2601 0.0313 0.1339
H12 H 0.2531 0.1142 0.1057
C23 C 0.2558(9) 0.4627(9) 0.2881(5)
H17 H 0.2602 0.4932 0.3250
H19 H 0.0053 0.2005 0.0422
Cd5 Cd 0.44139(5) 0.55861(5) 0.2500
H1 H 0.2005 0.0053 0.9578
N7 N 0.0579(7) 0.1475(6) 0.8890(4)
C27 C 0.1639(7) 0.0667(8) 0.8225(5)
N9 N 0.0560(7) 0.0111(6) 0.8930(4)
C28 C 0.2948(10) 0.0418(9) 0.7399(6)
H20 H 0.3375 0.0340 0.7108
C30 C 0.0933(7) 0.0744(7) 0.8668(4)
C31 C 0.2262(8) 0.1249(7) 0.8181(5)
H22 H 0.2236 0.1729 0.8429
C33 C 0.3591(9) 0.1801(8) 0.7714(5)
N11 N 0.4765(7) 0.3137(7) 0.7557(5)
C34 C 0.2948(9) 0.1146(8) 0.7768(5)
C36 C 0.3742(9) 0.2393(9) 0.8180(5)
H23 H 0.3451 0.2355 0.8556
C40 C 0.4074(9) 0.1908(9) 0.7171(6)
H26 H 0.4016 0.1529 0.6842
C41 C 0.4303(9) 0.3022(9) 0.8097(5)
H27 H 0.4384 0.3401 0.8423
N12 N 0.0781(8) 0.2294(7) 0.8679(5)
H29 H 0.0313 0.2601 0.8661
H30 H 0.1142 0.2531 0.8943
C47 C 0.4627(9) 0.2558(9) 0.7119(5)
H35 H 0.4932 0.2602 0.6750
Cd3 Cd 0.55861(5) 0.44139(5) 0.7500
N2 N 0.3744(7) 0.6201(7) 0.1617(4)
C2 C 0.1256(8) 0.9965(8) 0.0700(5)
N4 N 0.0427(6) 0.9941(6) 0.0675(5)
C5 C 0.2176(8) 0.8737(8) 0.0723(5)
H3 H 0.1955 0.8617 0.1115
C8 C 0.2790(8) 0.8213(8) 0.0477(5)
C11 C 0.3099(8) 0.7479(8) 0.0834(5)
C13 C 0.1885(8) 0.9421(9) 0.0408(5)
C14 C 0.2663(9) 0.7196(9) 0.1372(5)
H6 H 0.2148 0.7434 0.1479
C15 C 0.3003(9) 0.6568(9) 0.1735(6)
H7 H 0.2702 0.6390 0.2082
C18 C 0.3812(9) 0.7035(8) 0.0694(6)
H10 H 0.4107 0.7157 0.0331
C22 C 0.4103(9) 0.6400(8) 0.1092(6)
H16 H 0.4583 0.6104 0.0974
C1 C 0.2207(11) 0.9597(10) 0.9805(5)
C19 C 0.2814(10) 0.9092(10) 0.9565(6)
H13 H 0.3040 0.9219 0.9176
C21 C 0.3108(9) 0.8390(9) 0.9884(5)
H15 H 0.3511 0.8042 0.9705
C44 C 0.2348(10) 0.9835(9) 0.7455(7)
H32 H 0.2389 0.9343 0.7221
C48 C 0.1663(9) 0.9939(9) 0.7854(6)
H36 H 0.1235 0.9540 0.7874
N15 N 0.0235(7) 0.8137(7) 0.9943(5)
C20 C 0.9835(9) 0.2348(10) 0.2545(7)
H14 H 0.9343 0.2389 0.2779
C24 C 0.9939(9) 0.1663(9) 0.2146(6)
H18 H 0.9540 0.1235 0.2126
C25 C 0.9597(10) 0.2207(11) 0.0195(5)
C43 C 0.9092(10) 0.2814(10) 0.0435(6)
H31 H 0.9219 0.3040 0.0824
C45 C 0.8390(9) 0.3108(9) 0.0116(5)
H33 H 0.8042 0.3511 0.0295
N16 N 0.8137(7) 0.0235(7) 0.0057(5)
N8 N 0.6201(7) 0.3744(7) 0.8383(4)
C26 C 0.9965(8) 0.1256(8) 0.9300(5)
N10 N 0.9941(6) 0.0427(6) 0.9325(5)
C29 C 0.8737(8) 0.2176(8) 0.9277(5)
H21 H 0.8617 0.1955 0.8885
C32 C 0.8213(8) 0.2790(8) 0.9523(5)
C35 C 0.7479(8) 0.3099(8) 0.9166(5)
C37 C 0.9421(9) 0.1885(8) 0.9592(5)
C38 C 0.7196(9) 0.2663(9) 0.8628(5)
H24 H 0.7434 0.2148 0.8521
C39 C 0.6568(9) 0.3003(9) 0.8265(6)
H25 H 0.6390 0.2702 0.7918
C42 C 0.7035(8) 0.3812(9) 0.9306(6)
H28 H 0.7157 0.4107 0.9669
C46 C 0.6400(8) 0.4103(9) 0.8908(6)
H34 H 0.6104 0.4583 0.9026
Cd1 Cd 0.94139(5) 0.94139(5) 0.0000
N14 N 0.8744(7) 0.8799(7) 0.0883(4)
Cd1_2 Cd 0.94139(5) 0.94139(5) 1.0000
N13 N 0.8799(7) 0.8744(7) 0.9117(4)
Cd1_3 Cd 0.05861(5) 0.05861(5) 0.5000
N13_2 N 0.1201(7) 0.1256(7) 0.4117(4)
N14_2 N 0.1256(7) 0.1201(7) 0.5883(4)
C20_2 C 0.0165(9) 0.7652(10) 0.7545(7)
H14_2 H 0.0657 0.7611 0.7779
C24_2 C 0.0061(9) 0.8337(9) 0.7146(6)
H18_2 H 0.0460 0.8765 0.7126
C25_2 C 0.0403(10) 0.7793(11) 0.5195(5)
N8_2 N 0.3799(7) 0.6256(7) 0.3383(4)
C26_2 C 0.0035(8) 0.8744(8) 0.4300(5)
N10_2 N 0.0059(6) 0.9573(6) 0.4325(5)
C29_2 C 0.1263(8) 0.7824(8) 0.4277(5)
H21_2 H 0.1383 0.8045 0.3885
C32_2 C 0.1787(8) 0.7210(8) 0.4523(5)
C35_2 C 0.2521(8) 0.6901(8) 0.4166(5)
C37_2 C 0.0579(9) 0.8115(8) 0.4592(5)
C38_2 C 0.2804(9) 0.7337(9) 0.3628(5)
H24_2 H 0.2566 0.7852 0.3521
C39_2 C 0.3432(9) 0.6997(9) 0.3265(6)
H25_2 H 0.3610 0.7298 0.2918
C42_2 C 0.2965(8) 0.6188(9) 0.4306(6)
H28_2 H 0.2843 0.5893 0.4669
C43_2 C 0.0908(10) 0.7186(10) 0.5435(6)
H31_2 H 0.0781 0.6960 0.5824
C45_2 C 0.1610(9) 0.6892(9) 0.5116(5)
H33_2 H 0.1958 0.6489 0.5295
C46_2 C 0.3600(8) 0.5897(9) 0.3908(6)
H34_2 H 0.3896 0.5417 0.4026
N16_2 N 0.1863(7) 0.9765(7) 0.5057(5)
C1_2 C 0.7793(11) 0.0403(10) 0.4805(5)
N2_2 N 0.6256(7) 0.3799(7) 0.6617(4)
C2_2 C 0.8744(8) 0.0035(8) 0.5700(5)
N4_2 N 0.9573(6) 0.0059(6) 0.5675(5)
C5_2 C 0.7824(8) 0.1263(8) 0.5723(5)
H3_2 H 0.8045 0.1383 0.6115
C8_2 C 0.7210(8) 0.1787(8) 0.5477(5)
C11_2 C 0.6901(8) 0.2521(8) 0.5834(5)
C13_2 C 0.8115(8) 0.0579(9) 0.5408(5)
C14_2 C 0.7337(9) 0.2804(9) 0.6372(5)
H6_2 H 0.7852 0.2566 0.6479
C15_2 C 0.6997(9) 0.3432(9) 0.6735(6)
H7_2 H 0.7298 0.3610 0.7082
C18_2 C 0.6188(9) 0.2965(8) 0.5694(6)
H10_2 H 0.5893 0.2843 0.5331
C19_2 C 0.7186(10) 0.0908(10) 0.4565(6)
H13_2 H 0.6960 0.0781 0.4176
C21_2 C 0.6892(9) 0.1610(9) 0.4884(5)
H15_2 H 0.6489 0.1958 0.4705
C22_2 C 0.5897(9) 0.3600(8) 0.6092(6)
H16_2 H 0.5417 0.3896 0.5974
C44_2 C 0.7652(10) 0.0165(9) 0.2455(7)
H32_2 H 0.7611 0.0657 0.2221
C48_2 C 0.8337(9) 0.0061(9) 0.2854(6)
H36_2 H 0.8765 0.0460 0.2874
N15_2 N 0.9765(7) 0.1863(7) 0.4943(5)
H1_2 H 0.7995 0.9947 0.4578
N1_2 N 0.8525(6) 0.9421(7) 0.6110(4)
C3_2 C 0.9333(8) 0.8361(7) 0.6775(5)
N3_2 N 0.9889(6) 0.9440(7) 0.6070(4)
C4_2 C 0.9582(9) 0.7052(10) 0.7601(6)
H2_2 H 0.9660 0.6625 0.7892
C6_2 C 0.9256(7) 0.9067(7) 0.6332(4)
C7_2 C 0.8751(7) 0.7738(8) 0.6819(5)
H4_2 H 0.8271 0.7764 0.6571
C9_2 C 0.8199(8) 0.6409(9) 0.7286(5)
N5_2 N 0.6863(7) 0.5235(7) 0.7443(5)
C10_2 C 0.8854(8) 0.7052(9) 0.7232(5)
C12_2 C 0.7607(9) 0.6258(9) 0.6820(5)
H5_2 H 0.7645 0.6549 0.6444
C16_2 C 0.8092(9) 0.5926(9) 0.7829(6)
H8_2 H 0.8471 0.5984 0.8158
C17_2 C 0.6978(9) 0.5697(9) 0.6903(5)
H9_2 H 0.6599 0.5616 0.6577
N6_2 N 0.7706(7) 0.9219(8) 0.6321(5)
H11_2 H 0.7399 0.9687 0.6339
H12_2 H 0.7469 0.8858 0.6057
C23_2 C 0.7442(9) 0.5373(9) 0.7881(5)
H17_2 H 0.7398 0.5068 0.8250
H19_2 H 0.9947 0.7995 0.5422
N7_2 N 0.9421(7) 0.8525(6) 0.3890(4)
C27_2 C 0.8361(7) 0.9333(8) 0.3225(5)
N9_2 N 0.9440(7) 0.9889(6) 0.3930(4)
C28_2 C 0.7052(10) 0.9582(9) 0.2399(6)
H20_2 H 0.6625 0.9660 0.2108
C30_2 C 0.9067(7) 0.9256(7) 0.3668(4)
C31_2 C 0.7738(8) 0.8751(7) 0.3181(5)
H22_2 H 0.7764 0.8271 0.3429
C33_2 C 0.6409(9) 0.8199(8) 0.2714(5)
N11_2 N 0.5235(7) 0.6863(7) 0.2557(5)
C34_2 C 0.7052(9) 0.8854(8) 0.2768(5)
C36_2 C 0.6258(9) 0.7607(9) 0.3180(5)
H23_2 H 0.6549 0.7645 0.3556
C40_2 C 0.5926(9) 0.8092(9) 0.2171(6)
H26_2 H 0.5984 0.8471 0.1842
C41_2 C 0.5697(9) 0.6978(9) 0.3097(5)
H27_2 H 0.5616 0.6599 0.3423
N12_2 N 0.9219(8) 0.7706(7) 0.3679(5)
H29_2 H 0.9687 0.7399 0.3661
H30_2 H 0.8858 0.7469 0.3943
C47_2 C 0.5373(9) 0.7442(9) 0.2119(5)
H35_2 H 0.5068 0.7398 0.1750
C4_3 C 0.2052(10) 0.5418(9) 0.0101(6)
H2_3 H 0.1625 0.5340 0.0392
C16_3 C 0.0926(9) 0.6908(9) 0.0329(6)
H8_3 H 0.0984 0.6529 0.0658
C20_3 C 0.2652(10) 0.4835(9) 0.0045(7)
H14_3 H 0.2611 0.4343 0.0279
C23_3 C 0.0373(9) 0.7558(9) 0.0381(5)
H17_3 H 0.0068 0.7602 0.0750
C1_3 C 0.5403(10) 0.7207(11) 0.7305(5)
H1_3 H 0.4947 0.7005 0.7078
N1_3 N 0.4421(7) 0.6475(6) 0.8610(4)
C2_3 C 0.5035(8) 0.6256(8) 0.8200(5)
C3_3 C 0.3361(7) 0.5667(8) 0.9275(5)
N3_3 N 0.4440(7) 0.5111(6) 0.8570(4)
N4_3 N 0.5059(6) 0.5427(6) 0.8175(5)
C5_3 C 0.6263(8) 0.7176(8) 0.8223(5)
H3_3 H 0.6383 0.6955 0.8615
C6_3 C 0.4067(7) 0.5744(7) 0.8832(4)
C7_3 C 0.2738(8) 0.6249(7) 0.9319(5)
H4_3 H 0.2764 0.6729 0.9071
C8_3 C 0.6787(8) 0.7790(8) 0.7977(5)
C9_3 C 0.1409(9) 0.6801(8) 0.9786(5)
C10_3 C 0.2052(9) 0.6146(8) 0.9732(5)
C11_3 C 0.7521(8) 0.8099(8) 0.8334(5)
C12_3 C 0.1258(9) 0.7393(9) 0.9320(5)
H5_3 H 0.1549 0.7355 0.8944
C13_3 C 0.5579(9) 0.6885(8) 0.7908(5)
C14_3 C 0.7804(9) 0.7663(9) 0.8872(5)
H6_3 H 0.7566 0.7148 0.8979
C15_3 C 0.8432(9) 0.8003(9) 0.9235(6)
H7_3 H 0.8610 0.7702 0.9582
C17_3 C 0.0697(9) 0.8022(9) 0.9403(5)
H9_3 H 0.0616 0.8401 0.9077
C18_3 C 0.7965(8) 0.8812(9) 0.8194(6)
H10_3 H 0.7843 0.9107 0.7831
N6_3 N 0.4219(8) 0.7294(7) 0.8821(5)
H11_3 H 0.4687 0.7601 0.8839
H12_3 H 0.3858 0.7531 0.8557
C19_3 C 0.5908(10) 0.7814(10) 0.7065(6)
H13_3 H 0.5781 0.8040 0.6676
C21_3 C 0.6610(9) 0.8108(9) 0.7384(5)
H15_3 H 0.6958 0.8511 0.7205
C22_3 C 0.8600(8) 0.9103(9) 0.8592(6)
H16_3 H 0.8896 0.9583 0.8474
C24_3 C 0.3337(9) 0.4939(9) 0.9646(6)
H18_3 H 0.3765 0.4540 0.9626
C25_3 C 0.2793(11) 0.4597(10) 0.7695(5)
H19_3 H 0.2995 0.5053 0.7922
N7_3 N 0.3525(6) 0.5579(7) 0.6390(4)
C26_3 C 0.3744(8) 0.4965(8) 0.6800(5)
C27_3 C 0.4333(8) 0.6639(7) 0.5725(5)
N9_3 N 0.4889(6) 0.5560(7) 0.6430(4)
C28_3 C 0.4582(9) 0.7948(10) 0.4899(6)
H20_3 H 0.4660 0.8375 0.4608
N10_3 N 0.4573(6) 0.4941(6) 0.6825(5)
C29_3 C 0.2824(8) 0.3737(8) 0.6777(5)
H21_3 H 0.3045 0.3617 0.6385
C30_3 C 0.4256(7) 0.5933(7) 0.6168(4)
C31_3 C 0.3751(7) 0.7262(8) 0.5681(5)
H22_3 H 0.3271 0.7236 0.5929
C32_3 C 0.2210(8) 0.3213(8) 0.7023(5)
C33_3 C 0.3199(8) 0.8591(9) 0.5214(5)
C34_3 C 0.3854(8) 0.7948(9) 0.5268(5)
C35_3 C 0.1901(8) 0.2479(8) 0.6666(5)
C36_3 C 0.2607(9) 0.8742(9) 0.5680(5)
H23_3 H 0.2645 0.8451 0.6056
C37_3 C 0.3115(8) 0.4421(9) 0.7092(5)
C38_3 C 0.2337(9) 0.2196(9) 0.6128(5)
H24_3 H 0.2852 0.2434 0.6021
C39_3 C 0.1997(9) 0.1568(9) 0.5765(6)
H25_3 H 0.2298 0.1390 0.5418
C40_3 C 0.3092(9) 0.9074(9) 0.4671(6)
H26_3 H 0.3471 0.9016 0.4342
C41_3 C 0.1978(9) 0.9303(9) 0.5597(5)
H27_3 H 0.1599 0.9384 0.5923
C42_3 C 0.1188(9) 0.2035(8) 0.6806(6)
H28_3 H 0.0893 0.2157 0.7169
N12_3 N 0.2706(7) 0.5781(8) 0.6179(5)
H29_3 H 0.2399 0.5313 0.6161
H30_3 H 0.2469 0.6142 0.6443
C43_3 C 0.2186(10) 0.4092(10) 0.7935(6)
H31_3 H 0.1960 0.4219 0.8324
C44_3 C 0.5165(9) 0.7348(10) 0.4955(7)
H32_3 H 0.5657 0.7389 0.4721
C45_3 C 0.1892(9) 0.3390(9) 0.7616(5)
H33_3 H 0.1489 0.3042 0.7795
C46_3 C 0.0897(9) 0.1400(8) 0.6408(6)
H34_3 H 0.0417 0.1104 0.6526
C47_3 C 0.2442(9) 0.9627(9) 0.4619(5)
H35_3 H 0.2398 0.9932 0.4250
C48_3 C 0.5061(9) 0.6663(9) 0.5354(6)
H36_3 H 0.5460 0.6235 0.5374
C1_4 C 0.4597(10) 0.2793(11) 0.2305(5)
H1_4 H 0.5053 0.2995 0.2078
N1_4 N 0.5579(7) 0.3525(6) 0.3610(4)
C2_4 C 0.4965(8) 0.3744(8) 0.3200(5)
C3_4 C 0.6639(7) 0.4333(8) 0.4275(5)
N3_4 N 0.5560(7) 0.4889(6) 0.3570(4)
C4_4 C 0.7948(10) 0.4582(9) 0.5101(6)
H2_4 H 0.8375 0.4660 0.5392
N4_4 N 0.4941(6) 0.4573(6) 0.3175(5)
C5_4 C 0.3737(8) 0.2824(8) 0.3223(5)
H3_4 H 0.3617 0.3045 0.3615
C6_4 C 0.5933(7) 0.4256(7) 0.3832(4)
C7_4 C 0.7262(8) 0.3751(7) 0.4319(5)
H4_4 H 0.7236 0.3271 0.4071
C8_4 C 0.3213(8) 0.2210(8) 0.2977(5)
C9_4 C 0.8591(9) 0.3199(8) 0.4786(5)
C10_4 C 0.7948(9) 0.3854(8) 0.4732(5)
C11_4 C 0.2479(8) 0.1901(8) 0.3334(5)
C12_4 C 0.8742(9) 0.2607(9) 0.4320(5)
H5_4 H 0.8451 0.2645 0.3944
C13_4 C 0.4421(9) 0.3115(8) 0.2908(5)
C14_4 C 0.2196(9) 0.2337(9) 0.3872(5)
H6_4 H 0.2434 0.2852 0.3979
C15_4 C 0.1568(9) 0.1997(9) 0.4235(6)
H7_4 H 0.1390 0.2298 0.4582
C16_4 C 0.9074(9) 0.3092(9) 0.5329(6)
H8_4 H 0.9016 0.3471 0.5658
C17_4 C 0.9303(9) 0.1978(9) 0.4403(5)
H9_4 H 0.9384 0.1599 0.4077
C18_4 C 0.2035(8) 0.1188(9) 0.3194(6)
H10_4 H 0.2157 0.0893 0.2831
N6_4 N 0.5781(8) 0.2706(7) 0.3821(5)
H11_4 H 0.5313 0.2399 0.3839
H12_4 H 0.6142 0.2469 0.3557
C19_4 C 0.4092(10) 0.2186(10) 0.2065(6)
H13_4 H 0.4219 0.1960 0.1676
C20_4 C 0.7348(10) 0.5165(9) 0.5045(7)
H14_4 H 0.7389 0.5657 0.5279
C21_4 C 0.3390(9) 0.1892(9) 0.2384(5)
H15_4 H 0.3042 0.1489 0.2205
C22_4 C 0.1400(8) 0.0897(9) 0.3592(6)
H16_4 H 0.1104 0.0417 0.3474
C23_4 C 0.9627(9) 0.2442(9) 0.5381(5)
H17_4 H 0.9932 0.2398 0.5750
C24_4 C 0.6663(9) 0.5061(9) 0.4646(6)
H18_4 H 0.6235 0.5460 0.4626
C25_4 C 0.7207(11) 0.5403(10) 0.2695(5)
H19_4 H 0.7005 0.4947 0.2922
N7_4 N 0.6475(6) 0.4421(7) 0.1390(4)
C26_4 C 0.6256(8) 0.5035(8) 0.1800(5)
C27_4 C 0.5667(8) 0.3361(7) 0.0725(5)
N9_4 N 0.5111(6) 0.4440(7) 0.1430(4)
N10_4 N 0.5427(6) 0.5059(6) 0.1825(5)
C29_4 C 0.7176(8) 0.6263(8) 0.1777(5)
H21_4 H 0.6955 0.6383 0.1385
C30_4 C 0.5744(7) 0.4067(7) 0.1168(4)
C31_4 C 0.6249(7) 0.2738(8) 0.0681(5)
H22_4 H 0.6729 0.2764 0.0929
C32_4 C 0.7790(8) 0.6787(8) 0.2023(5)
C33_4 C 0.6801(8) 0.1409(9) 0.0214(5)
C34_4 C 0.6146(8) 0.2052(9) 0.0268(5)
C35_4 C 0.8099(8) 0.7521(8) 0.1666(5)
C36_4 C 0.7393(9) 0.1258(9) 0.0680(5)
H23_4 H 0.7355 0.1549 0.1056
C37_4 C 0.6885(8) 0.5579(9) 0.2092(5)
C38_4 C 0.7663(9) 0.7804(9) 0.1128(5)
H24_4 H 0.7148 0.7566 0.1021
C39_4 C 0.8003(9) 0.8432(9) 0.0765(6)
H25_4 H 0.7702 0.8610 0.0418
C41_4 C 0.8022(9) 0.0697(9) 0.0597(5)
H27_4 H 0.8401 0.0616 0.0923
C42_4 C 0.8812(9) 0.7965(8) 0.1806(6)
H28_4 H 0.9107 0.7843 0.2169
N12_4 N 0.7294(7) 0.4219(8) 0.1179(5)
H29_4 H 0.7601 0.4687 0.1161
H30_4 H 0.7531 0.3858 0.1443
C43_4 C 0.7814(10) 0.5908(10) 0.2935(6)
H31_4 H 0.8040 0.5781 0.3324
C45_4 C 0.8108(9) 0.6610(9) 0.2616(5)
H33_4 H 0.8511 0.6958 0.2795
C46_4 C 0.9103(9) 0.8600(8) 0.1408(6)
H34_4 H 0.9583 0.8896 0.1526
C48_4 C 0.4939(9) 0.3337(9) 0.0354(6)
H36_4 H 0.4540 0.3765 0.0374
C28_4 C 0.5418(9) 0.2052(10) 0.9899(6)
H20_4 H 0.5340 0.1625 0.9608
C40_4 C 0.6908(9) 0.0926(9) 0.9671(6)
H26_4 H 0.6529 0.0984 0.9342
C44_4 C 0.4835(9) 0.2652(10) 0.9955(7)
H32_4 H 0.4343 0.2611 0.9721
C47_4 C 0.7558(9) 0.0373(9) 0.9619(5)
H35_4 H 0.7602 0.0068 0.9250
Cl1 Cl 0.6164(3) 0.6164(3) 0.0000
O2 O 0.606(2) 0.6770(19) 0.0474(14)
O3 O 0.623(3) 0.5480(17) 0.0317(10)
Cl1_2 Cl 0.6164(3) 0.6164(3) 1.0000
O1 O 0.5480(17) 0.623(3) 0.9683(10)
O4 O 0.6770(19) 0.606(2) 0.9526(14)
Cl1_3 Cl 0.3836(3) 0.3836(3) 0.5000
O1_2 O 0.4520(17) 0.377(3) 0.4683(10)
O2_2 O 0.394(2) 0.3230(19) 0.5474(14)
O3_2 O 0.377(3) 0.4520(17) 0.5317(10)
O4_2 O 0.3230(19) 0.394(2) 0.4526(14)
Cl1_4 Cl 0.8836(3) 0.1164(3) 0.7500
O1_3 O 0.877(3) 0.0480(17) 0.7183(10)
O2_3 O 0.8230(19) 0.106(2) 0.7974(14)
O3_3 O 0.9520(17) 0.123(3) 0.7817(10)
O4_3 O 0.894(2) 0.1770(19) 0.7026(14)
Cl1_5 Cl 0.1164(3) 0.8836(3) 0.2500
O1_4 O 0.123(3) 0.9520(17) 0.2183(10)
O2_4 O 0.1770(19) 0.894(2) 0.2974(14)
O3_4 O 0.0480(17) 0.877(3) 0.2817(10)
O4_4 O 0.106(2) 0.8230(19) 0.2026(14)
loop_
_geom_bond_atom_site_label_1
_geom_bond_atom_site_label_2
_geom_bond_site_symmetry_1
_geom_bond_site_symmetry_2
C3 C6 1_555 1_555
C4 H2 1_555 1_555
C6 N1 1_555 1_555
C7 C3 1_555 1_555
H4 C7 1_555 1_555
C9 C10 1_555 1_555
N5 C17 1_555 1_555
C10 C4 1_555 1_555
C12 C9 1_555 1_555
H5 C12 1_555 1_555
C16 C9 1_555 1_555
H8 C16 1_555 1_555
C17 C12 1_555 1_555
H9 C17 1_555 1_555
N6 N1 1_555 1_555
H11 N6 1_555 1_555
H12 N6 1_555 1_555
C23 N5 1_555 1_555
H17 C23 1_555 1_555
Cd5 N5 1_555 1_555
N3 C6 1_555 1_555
C7 C10 1_555 1_555
C16 C23 1_555 1_555
C27 C30 1_555 1_555
C28 H20 1_555 1_555
C30 N7 1_555 1_555
C31 C27 1_555 1_555
H22 C31 1_555 1_555
C33 C34 1_555 1_555
N11 C41 1_555 1_555
C34 C28 1_555 1_555
C36 C33 1_555 1_555
H23 C36 1_555 1_555
C40 C33 1_555 1_555
H26 C40 1_555 1_555
C41 C36 1_555 1_555
H27 C41 1_555 1_555
N12 N7 1_555 1_555
H29 N12 1_555 1_555
H30 N12 1_555 1_555
C47 N11 1_555 1_555
H35 C47 1_555 1_555
Cd3 N11 1_555 1_555
N9 C30 1_555 1_555
C31 C34 1_555 1_555
C40 C47 1_555 1_555
N2 C15 1_555 1_555
C2 N4 1_555 1_555
C5 H3 1_555 1_555
C8 C5 1_555 1_555
C11 C8 1_555 1_555
C14 C11 1_555 1_555
H6 C14 1_555 1_555
C15 C14 1_555 1_555
H7 C15 1_555 1_555
C18 C11 1_555 1_555
H10 C18 1_555 1_555
C22 N2 1_555 1_555
H16 C22 1_555 1_555
Cd5 N2 1_555 1_555
C2 C13 1_555 1_555
C5 C13 1_555 1_555
C18 C22 1_555 1_555
C19 C1 1_555 1_555
H13 C19 1_555 1_555
H15 C21 1_555 1_555
H32 C44 1_555 1_555
H36 C48 1_555 1_555
C19 C21 1_555 1_555
C44 C48 1_555 1_555
H14 C20 1_555 1_555
H18 C24 1_555 1_555
C43 C25 1_555 1_555
H31 C43 1_555 1_555
H33 C45 1_555 1_555
C20 C24 1_555 1_555
C43 C45 1_555 1_555
N8 C39 1_555 1_555
C26 N10 1_555 1_555
C29 H21 1_555 1_555
C32 C29 1_555 1_555
C35 C32 1_555 1_555
C38 C35 1_555 1_555
H24 C38 1_555 1_555
C39 C38 1_555 1_555
H25 C39 1_555 1_555
C42 C35 1_555 1_555
H28 C42 1_555 1_555
C46 N8 1_555 1_555
H34 C46 1_555 1_555
Cd3 N8 1_555 1_555
C26 C37 1_555 1_555
C29 C37 1_555 1_555
C42 C46 1_555 1_555
N14 Cd1 1_555 1_555
N13 Cd1_2 1_555 1_555
N13_2 Cd1_3 1_555 1_555
N14_2 Cd1_3 1_555 1_555
H14_2 C20_2 1_555 1_555
H18_2 C24_2 1_555 1_555
N8_2 C39_2 1_555 1_555
C26_2 N10_2 1_555 1_555
C29_2 H21_2 1_555 1_555
C32_2 C29_2 1_555 1_555
C35_2 C32_2 1_555 1_555
C37_2 C25_2 1_555 1_555
C38_2 C35_2 1_555 1_555
H24_2 C38_2 1_555 1_555
C39_2 C38_2 1_555 1_555
H25_2 C39_2 1_555 1_555
C42_2 C35_2 1_555 1_555
H28_2 C42_2 1_555 1_555
C43_2 C25_2 1_555 1_555
H31_2 C43_2 1_555 1_555
C45_2 C32_2 1_555 1_555
H33_2 C45_2 1_555 1_555
C46_2 N8_2 1_555 1_555
H34_2 C46_2 1_555 1_555
Cd5 N8_2 1_555 1_555
C20_2 C24_2 1_555 1_555
C26_2 C37_2 1_555 1_555
C29_2 C37_2 1_555 1_555
C42_2 C46_2 1_555 1_555
C43_2 C45_2 1_555 1_555
N2_2 C15_2 1_555 1_555
C2_2 N4_2 1_555 1_555
C5_2 H3_2 1_555 1_555
C8_2 C5_2 1_555 1_555
C11_2 C8_2 1_555 1_555
C13_2 C1_2 1_555 1_555
C14_2 C11_2 1_555 1_555
H6_2 C14_2 1_555 1_555
C15_2 C14_2 1_555 1_555
H7_2 C15_2 1_555 1_555
C18_2 C11_2 1_555 1_555
H10_2 C18_2 1_555 1_555
C19_2 C1_2 1_555 1_555
H13_2 C19_2 1_555 1_555
C21_2 C8_2 1_555 1_555
H15_2 C21_2 1_555 1_555
C22_2 N2_2 1_555 1_555
H16_2 C22_2 1_555 1_555
H32_2 C44_2 1_555 1_555
H36_2 C48_2 1_555 1_555
Cd3 N2_2 1_555 1_555
C2_2 C13_2 1_555 1_555
C5_2 C13_2 1_555 1_555
C18_2 C22_2 1_555 1_555
C19_2 C21_2 1_555 1_555
C44_2 C48_2 1_555 1_555
C3_2 C6_2 1_555 1_555
C4_2 H2_2 1_555 1_555
C6_2 N1_2 1_555 1_555
C7_2 C3_2 1_555 1_555
H4_2 C7_2 1_555 1_555
C9_2 C10_2 1_555 1_555
N5_2 C17_2 1_555 1_555
C10_2 C4_2 1_555 1_555
C12_2 C9_2 1_555 1_555
H5_2 C12_2 1_555 1_555
C16_2 C9_2 1_555 1_555
H8_2 C16_2 1_555 1_555
C17_2 C12_2 1_555 1_555
H9_2 C17_2 1_555 1_555
N6_2 N1_2 1_555 1_555
H11_2 N6_2 1_555 1_555
H12_2 N6_2 1_555 1_555
C23_2 N5_2 1_555 1_555
H17_2 C23_2 1_555 1_555
C27_2 C30_2 1_555 1_555
C28_2 H20_2 1_555 1_555
C30_2 N7_2 1_555 1_555
C31_2 C27_2 1_555 1_555
H22_2 C31_2 1_555 1_555
C33_2 C34_2 1_555 1_555
N11_2 C41_2 1_555 1_555
C34_2 C28_2 1_555 1_555
C36_2 C33_2 1_555 1_555
H23_2 C36_2 1_555 1_555
C40_2 C33_2 1_555 1_555
H26_2 C40_2 1_555 1_555
C41_2 C36_2 1_555 1_555
H27_2 C41_2 1_555 1_555
N12_2 N7_2 1_555 1_555
H29_2 N12_2 1_555 1_555
H30_2 N12_2 1_555 1_555
C47_2 N11_2 1_555 1_555
H35_2 C47_2 1_555 1_555
Cd5 N11_2 1_555 1_555
Cd3 N5_2 1_555 1_555
N3_2 C6_2 1_555 1_555
C7_2 C10_2 1_555 1_555
C16_2 C23_2 1_555 1_555
N9_2 C30_2 1_555 1_555
C31_2 C34_2 1_555 1_555
C40_2 C47_2 1_555 1_555
C4_3 H2_3 1_555 1_555
H8_3 C16_3 1_555 1_555
C20_3 C4_3 1_555 1_555
H14_3 C20_3 1_555 1_555
H17_3 C23_3 1_555 1_555
C16_3 C23_3 1_555 1_555
Cd3 N4_3 1_555 1_555
C1_3 H1_3 1_555 1_555
N1_3 C2_3 1_555 1_555
N13 C15_3 1_555 1_555
C2_3 N4_3 1_555 1_555
C3_3 C6_3 1_555 1_555
N3_3 N4_3 1_555 1_555
C5_3 H3_3 1_555 1_555
C6_3 N1_3 1_555 1_555
C7_3 C3_3 1_555 1_555
H4_3 C7_3 1_555 1_555
C8_3 C5_3 1_555 1_555
C9_3 C10_3 1_555 1_555
N15 C17_3 1_555 1_555
C11_3 C8_3 1_555 1_555
C12_3 C9_3 1_555 1_555
H5_3 C12_3 1_555 1_555
C13_3 C1_3 1_555 1_555
C14_3 C11_3 1_555 1_555
H6_3 C14_3 1_555 1_555
C15_3 C14_3 1_555 1_555
H7_3 C15_3 1_555 1_555
C17_3 C12_3 1_555 1_555
H9_3 C17_3 1_555 1_555
C18_3 C11_3 1_555 1_555
H10_3 C18_3 1_555 1_555
N6_3 N1_3 1_555 1_555
H11_3 N6_3 1_555 1_555
H12_3 N6_3 1_555 1_555
C19_3 C1_3 1_555 1_555
H13_3 C19_3 1_555 1_555
C21_3 C8_3 1_555 1_555
H15_3 C21_3 1_555 1_555
C22_3 N13 1_555 1_555
H16_3 C22_3 1_555 1_555
C24_3 C3_3 1_555 1_555
H18_3 C24_3 1_555 1_555
C25_3 H19_3 1_555 1_555
N7_3 C26_3 1_555 1_555
N14_2 C39_3 1_555 1_555
C26_3 N10_3 1_555 1_555
C27_3 C30_3 1_555 1_555
N9_3 N10_3 1_555 1_555
C28_3 H20_3 1_555 1_555
N10_3 Cd3 1_555 1_555
C29_3 H21_3 1_555 1_555
C30_3 N7_3 1_555 1_555
C31_3 C27_3 1_555 1_555
H22_3 C31_3 1_555 1_555
C32_3 C29_3 1_555 1_555
C33_3 C34_3 1_555 1_555
N16_2 C41_3 1_555 1_555
C34_3 C28_3 1_555 1_555
C35_3 C32_3 1_555 1_555
C36_3 C33_3 1_555 1_555
H23_3 C36_3 1_555 1_555
C37_3 C25_3 1_555 1_555
C38_3 C35_3 1_555 1_555
H24_3 C38_3 1_555 1_555
C39_3 C38_3 1_555 1_555
H25_3 C39_3 1_555 1_555
C40_3 C33_3 1_555 1_555
H26_3 C40_3 1_555 1_555
C41_3 C36_3 1_555 1_555
H27_3 C41_3 1_555 1_555
C42_3 C35_3 1_555 1_555
H28_3 C42_3 1_555 1_555
N12_3 N7_3 1_555 1_555
H29_3 N12_3 1_555 1_555
H30_3 N12_3 1_555 1_555
C43_3 C25_3 1_555 1_555
H31_3 C43_3 1_555 1_555
C44_3 C28_3 1_555 1_555
H32_3 C44_3 1_555 1_555
C45_3 C32_3 1_555 1_555
H33_3 C45_3 1_555 1_555
C46_3 N14_2 1_555 1_555
H34_3 C46_3 1_555 1_555
C47_3 N16_2 1_555 1_555
H35_3 C47_3 1_555 1_555
C48_3 C27_3 1_555 1_555
H36_3 C48_3 1_555 1_555
C2_3 C13_3 1_555 1_555
N3_3 C6_3 1_555 1_555
C5_3 C13_3 1_555 1_555
C7_3 C10_3 1_555 1_555
C18_3 C22_3 1_555 1_555
C19_3 C21_3 1_555 1_555
C26_3 C37_3 1_555 1_555
N9_3 C30_3 1_555 1_555
C29_3 C37_3 1_555 1_555
C31_3 C34_3 1_555 1_555
C40_3 C47_3 1_555 1_555
C42_3 C46_3 1_555 1_555
C43_3 C45_3 1_555 1_555
C44_3 C48_3 1_555 1_555
Cd5 N4_4 1_555 1_555
C1_4 H1_4 1_555 1_555
N1_4 C2_4 1_555 1_555
N13_2 C15_4 1_555 1_555
C2_4 N4_4 1_555 1_555
C3_4 C6_4 1_555 1_555
N3_4 N4_4 1_555 1_555
C4_4 H2_4 1_555 1_555
C5_4 H3_4 1_555 1_555
C6_4 N1_4 1_555 1_555
C7_4 C3_4 1_555 1_555
H4_4 C7_4 1_555 1_555
C8_4 C5_4 1_555 1_555
C9_4 C10_4 1_555 1_555
N15_2 C17_4 1_555 1_555
C10_4 C4_4 1_555 1_555
C11_4 C8_4 1_555 1_555
C12_4 C9_4 1_555 1_555
H5_4 C12_4 1_555 1_555
C13_4 C1_4 1_555 1_555
C14_4 C11_4 1_555 1_555
H6_4 C14_4 1_555 1_555
C15_4 C14_4 1_555 1_555
H7_4 C15_4 1_555 1_555
C16_4 C9_4 1_555 1_555
H8_4 C16_4 1_555 1_555
C17_4 C12_4 1_555 1_555
H9_4 C17_4 1_555 1_555
C18_4 C11_4 1_555 1_555
H10_4 C18_4 1_555 1_555
N6_4 N1_4 1_555 1_555
H11_4 N6_4 1_555 1_555
H12_4 N6_4 1_555 1_555
C19_4 C1_4 1_555 1_555
H13_4 C19_4 1_555 1_555
C20_4 C4_4 1_555 1_555
H14_4 C20_4 1_555 1_555
C21_4 C8_4 1_555 1_555
H15_4 C21_4 1_555 1_555
C22_4 N13_2 1_555 1_555
H16_4 C22_4 1_555 1_555
C23_4 N15_2 1_555 1_555
H17_4 C23_4 1_555 1_555
C24_4 C3_4 1_555 1_555
H18_4 C24_4 1_555 1_555
C25_4 H19_4 1_555 1_555
N7_4 C26_4 1_555 1_555
N14 C39_4 1_555 1_555
C26_4 N10_4 1_555 1_555
C27_4 C30_4 1_555 1_555
N9_4 N10_4 1_555 1_555
N10_4 Cd5 1_555 1_555
C29_4 H21_4 1_555 1_555
C30_4 N7_4 1_555 1_555
C31_4 C27_4 1_555 1_555
H22_4 C31_4 1_555 1_555
C32_4 C29_4 1_555 1_555
C33_4 C34_4 1_555 1_555
N16 C41_4 1_555 1_555
C35_4 C32_4 1_555 1_555
C36_4 C33_4 1_555 1_555
H23_4 C36_4 1_555 1_555
C37_4 C25_4 1_555 1_555
C38_4 C35_4 1_555 1_555
H24_4 C38_4 1_555 1_555
C39_4 C38_4 1_555 1_555
H25_4 C39_4 1_555 1_555
C41_4 C36_4 1_555 1_555
H27_4 C41_4 1_555 1_555
C42_4 C35_4 1_555 1_555
H28_4 C42_4 1_555 1_555
N12_4 N7_4 1_555 1_555
H29_4 N12_4 1_555 1_555
H30_4 N12_4 1_555 1_555
C43_4 C25_4 1_555 1_555
H31_4 C43_4 1_555 1_555
C45_4 C32_4 1_555 1_555
H33_4 C45_4 1_555 1_555
C46_4 N14 1_555 1_555
H34_4 C46_4 1_555 1_555
C48_4 C27_4 1_555 1_555
H36_4 C48_4 1_555 1_555
C2_4 C13_4 1_555 1_555
N3_4 C6_4 1_555 1_555
C5_4 C13_4 1_555 1_555
C7_4 C10_4 1_555 1_555
C16_4 C23_4 1_555 1_555
C18_4 C22_4 1_555 1_555
C19_4 C21_4 1_555 1_555
C20_4 C24_4 1_555 1_555
C26_4 C37_4 1_555 1_555
N9_4 C30_4 1_555 1_555
C29_4 C37_4 1_555 1_555
C31_4 C34_4 1_555 1_555
C42_4 C46_4 1_555 1_555
C43_4 C45_4 1_555 1_555
C28_4 H20_4 1_555 1_555
H26_4 C40_4 1_555 1_555
C44_4 C28_4 1_555 1_555
H32_4 C44_4 1_555 1_555
H35_4 C47_4 1_555 1_555
C40_4 C47_4 1_555 1_555
O2 Cl1 1_555 1_555
O3 Cl1 1_555 1_555
Cl1_2 O1 1_555 1_555
O4 Cl1_2 1_555 1_555
Cl1_3 O1_2 1_555 1_555
O2_2 Cl1_3 1_555 1_555
O3_2 Cl1_3 1_555 1_555
O4_2 Cl1_3 1_555 1_555
Cl1_4 O1_3 1_555 1_555
O2_3 Cl1_4 1_555 1_555
O3_3 Cl1_4 1_555 1_555
O4_3 Cl1_4 1_555 1_555
Cl1_5 O1_4 1_555 1_555
O2_4 Cl1_5 1_555 1_555
O3_4 Cl1_5 1_555 1_555
O4_4 Cl1_5 1_555 1_555

#END
