
###############################################################################
#
# This file contains modified crystal structure data generated from the
# MOF subset of the Cambridge Structural Database (CSD) v543 
# hosted by the Cambridge Crystallographic Data Centre (CCDC).
#
# This work is licensed under the Creative Commons
# Attribution-NonCommercial-ShareAlike 4.0 International License.
# To view a copy of this license, visit
# http://creativecommons.org/licenses/by-nc-sa/4.0/
# or send a letter to
# Creative Commons, PO Box 1866, Mountain View, CA 94042, USA.
#
# CIF created using the CSD Python API on 29 September 2022
# The structure has been converted into the P1 space group
# The structure has a 3D framework
# The original CSD entry XAWVUN is in the orthorhombic crystal system
# The framework has been calculated to contain at least 10.0% void space
# The void calculation uses a probe of radius 1.32A, grid spacing 0.4
# H atom positions have been added when not included in the experimental data
# Generated hydrogen atom positions removed from atoms on special positions
#
###############################################################################

data_XAWVUN
_chemical_formula_moiety         '(C140 H140 Cu12 N12 O44)n'
_symmetry_cell_setting           triclinic
_symmetry_space_group_name_H-M   'P 1'
_symmetry_Int_Tables_number      1
_space_group_name_Hall           'P 1'
loop_
_symmetry_equiv_pos_site_id
_symmetry_equiv_pos_as_xyz
1 x,y,z
_cell_length_a                   15.2563(12)
_cell_length_b                   28.288(2)
_cell_length_c                   23.5937(18)
_cell_angle_alpha                90
_cell_angle_beta                 90
_cell_angle_gamma                90
_cell_volume                     10182.3
loop_
_atom_site_label
_atom_site_type_symbol
_atom_site_fract_x
_atom_site_fract_y
_atom_site_fract_z
Cu1 Cu 0.18480(2) 0.280884(13) 0.5000
O1 O 0.13704(12) 0.23901(6) 0.44164(7)
O2 O 0.24633(12) 0.18640(6) 0.44163(7)
O3 O 0.0772(2) 0.32903(12) 0.5000
N1 N -0.0000 0.09965(9) 0.2500
C1 C 0.17424(19) 0.20260(9) 0.42401(10)
C2 C 0.12925(17) 0.17528(8) 0.37845(10)
C3 C 0.16682(18) 0.13474(9) 0.35618(11)
H1 H 0.2204 0.1240 0.3699
C4 C 0.12405(19) 0.10998(9) 0.31298(11)
H2 H 0.1502 0.0833 0.2973
C5 C 0.04298(19) 0.12482(8) 0.29343(10)
C6 C 0.00706(18) 0.16511(9) 0.31574(12)
C7 C 0.04975(19) 0.19018(9) 0.35739(12)
H4 H 0.0245 0.2177 0.3716
C8 C 0.0000 0.04979(11) 0.2500
Cu3 Cu 0.31520(2) 0.219116(13) 0.5000
O7 O 0.13704(12) 0.23901(6) 0.55836(7)
O12 O 0.25367(12) 0.31360(6) 0.55837(7)
O13 O 0.25367(12) 0.31360(6) 0.44163(7)
H12 H 0.0469 0.1757 0.1974
C34 C 0.00185(17) 0.02439(8) 0.20005(10)
H18 H 0.0057 0.0404 0.1657
Cu7 Cu 0.18480(2) 0.719116(13) 0.0000
Cu8 Cu 0.31520(2) 0.780884(13) 0.0000
O6 O 0.13704(12) 0.76099(6) 0.05836(7)
O11 O 0.24633(12) 0.81360(6) 0.05837(7)
N2 N -0.0000 0.90035(9) 0.2500
C12 C 0.17424(19) 0.79740(9) 0.07599(10)
C15 C 0.12925(17) 0.82472(8) 0.12155(10)
C18 C 0.16682(18) 0.86526(9) 0.14382(11)
H8 H 0.2204 0.8760 0.1301
C21 C 0.12405(19) 0.89002(9) 0.18702(11)
H11 H 0.1502 0.9167 0.2027
C24 C 0.04298(19) 0.87518(8) 0.20657(10)
C27 C 0.00706(18) 0.83489(9) 0.18426(12)
H13 H 0.0469 0.8243 0.3026
C30 C 0.04975(19) 0.80982(9) 0.14261(12)
H17 H 0.0245 0.7823 0.1284
C31 C -0.0000 0.95021(11) 0.2500
C32 C 0.00185(17) 0.97561(8) 0.29995(10)
H20 H 0.0057 0.9596 0.3343
Cu7_2 Cu 0.18480(2) 0.719116(13) 1.0000
Cu8_2 Cu 0.31520(2) 0.780884(13) 1.0000
N1_2 N 1.0000 0.09965(9) 0.2500
H3 H 0.9531 0.1757 0.3026
C8_2 C 1.0000 0.04979(11) 0.2500
C9 C 0.99815(17) 0.02439(8) 0.29995(10)
H5 H 0.9943 0.0404 0.3343
Cu2 Cu 0.81520(2) 0.280884(13) 0.0000
Cu4 Cu 0.68480(2) 0.219116(13) 0.0000
O4 O 0.86296(12) 0.23901(6) 0.05836(7)
O9 O 0.75367(12) 0.18640(6) 0.05837(7)
O15 O 0.74633(12) 0.31360(6) 0.05837(7)
O16 O 0.9228(2) 0.32903(12) 0.0000
C10 C 0.82576(19) 0.20260(9) 0.07599(10)
C13 C 0.87075(17) 0.17528(8) 0.12155(10)
C16 C 0.83318(18) 0.13474(9) 0.14382(11)
H6 H 0.7796 0.1240 0.1301
C19 C 0.87595(19) 0.10998(9) 0.18702(11)
H9 H 0.8498 0.0833 0.2027
C22 C 0.95702(19) 0.12482(8) 0.20657(10)
C25 C 0.99294(18) 0.16511(9) 0.18426(12)
C28 C 0.95025(19) 0.19018(9) 0.14261(12)
H15 H 0.9755 0.2177 0.1284
Cu2_2 Cu 0.81520(2) 0.280884(13) 1.0000
Cu4_2 Cu 0.68480(2) 0.219116(13) 1.0000
O8 O 0.86296(12) 0.23901(6) 0.94164(7)
O14 O 0.74633(12) 0.31360(6) 0.94163(7)
O16_2 O 0.9228(2) 0.32903(12) 1.0000
Cu5 Cu 0.81520(2) 0.719116(13) 0.5000
Cu6 Cu 0.68480(2) 0.780884(13) 0.5000
O5 O 0.86296(12) 0.76099(6) 0.44164(7)
O10 O 0.75367(12) 0.81360(6) 0.44163(7)
N2_2 N 1.0000 0.90035(9) 0.2500
C11 C 0.82576(19) 0.79740(9) 0.42401(10)
C14 C 0.87075(17) 0.82472(8) 0.37845(10)
C17 C 0.83318(18) 0.86526(9) 0.35618(11)
H7 H 0.7796 0.8760 0.3699
C20 C 0.87595(19) 0.89002(9) 0.31298(11)
H10 H 0.8498 0.9167 0.2973
C23 C 0.95702(19) 0.87518(8) 0.29343(10)
C26 C 0.99294(18) 0.83489(9) 0.31574(12)
H14 H 0.9531 0.8243 0.1974
C29 C 0.95025(19) 0.80982(9) 0.35739(12)
H16 H 0.9755 0.7823 0.3716
C31_2 C 1.0000 0.95021(11) 0.2500
C33 C 0.99815(17) 0.97561(8) 0.20005(10)
H19 H 0.9943 0.9596 0.1657
O1_2 O 0.63704(12) 0.73901(6) 0.44164(7)
O2_2 O 0.74633(12) 0.68640(6) 0.44163(7)
O3_2 O 0.5772(2) 0.82903(12) 0.5000
N1_3 N 0.5000 0.59965(9) 0.2500
C1_2 C 0.67424(19) 0.70260(9) 0.42401(10)
C2_2 C 0.62925(17) 0.67528(8) 0.37845(10)
C3_2 C 0.66682(18) 0.63474(9) 0.35618(11)
H1_2 H 0.7204 0.6240 0.3699
C4_2 C 0.62405(19) 0.60998(9) 0.31298(11)
H2_2 H 0.6502 0.5833 0.2973
C5_2 C 0.54298(19) 0.62482(8) 0.29343(10)
C6_2 C 0.50706(18) 0.66511(9) 0.31574(12)
H3_2 H 0.4531 0.6757 0.3026
C7_2 C 0.54975(19) 0.69018(9) 0.35739(12)
H4_2 H 0.5245 0.7177 0.3716
C8_3 C 0.5000 0.54979(11) 0.2500
C9_2 C 0.49815(17) 0.52439(8) 0.29995(10)
H5_2 H 0.4943 0.5404 0.3343
O4_2 O 0.36296(12) 0.73901(6) 0.05836(7)
O5_2 O 0.36296(12) 0.26099(6) 0.44164(7)
O6_2 O 0.63704(12) 0.26099(6) 0.05836(7)
O7_2 O 0.63704(12) 0.73901(6) 0.55836(7)
O9_2 O 0.25367(12) 0.68640(6) 0.05837(7)
O12_2 O 0.75367(12) 0.81360(6) 0.55837(7)
O16_3 O 0.4228(2) 0.82903(12) 0.0000
N2_3 N 0.5000 0.40035(9) 0.2500
C10_2 C 0.32576(19) 0.70260(9) 0.07599(10)
C11_2 C 0.32576(19) 0.29740(9) 0.42401(10)
C12_2 C 0.67424(19) 0.29740(9) 0.07599(10)
C13_2 C 0.37075(17) 0.67528(8) 0.12155(10)
C14_2 C 0.37075(17) 0.32472(8) 0.37845(10)
C15_2 C 0.62925(17) 0.32472(8) 0.12155(10)
C16_2 C 0.33318(18) 0.63474(9) 0.14382(11)
C17_2 C 0.33318(18) 0.36526(9) 0.35618(11)
C18_2 C 0.66682(18) 0.36526(9) 0.14382(11)
H6_2 H 0.2796 0.6240 0.1301
H7_2 H 0.2796 0.3760 0.3699
H8_2 H 0.7204 0.3760 0.1301
C19_2 C 0.37595(19) 0.60998(9) 0.18702(11)
C20_2 C 0.37595(19) 0.39002(9) 0.31298(11)
C21_2 C 0.62405(19) 0.39002(9) 0.18702(11)
H9_2 H 0.3498 0.5833 0.2027
H10_2 H 0.3498 0.4167 0.2973
H11_2 H 0.6502 0.4167 0.2027
C22_2 C 0.45702(19) 0.62482(8) 0.20657(10)
C23_2 C 0.45702(19) 0.37518(8) 0.29343(10)
C24_2 C 0.54298(19) 0.37518(8) 0.20657(10)
C25_2 C 0.49294(18) 0.66511(9) 0.18426(12)
C26_2 C 0.49294(18) 0.33489(9) 0.31574(12)
C27_2 C 0.50706(18) 0.33489(9) 0.18426(12)
H12_2 H 0.5469 0.6757 0.1974
H13_2 H 0.5469 0.3243 0.3026
H14_2 H 0.4531 0.3243 0.1974
C28_2 C 0.45025(19) 0.69018(9) 0.14261(12)
C29_2 C 0.45025(19) 0.30982(9) 0.35739(12)
C30_2 C 0.54975(19) 0.30982(9) 0.14261(12)
H15_2 H 0.4755 0.7177 0.1284
H16_2 H 0.4755 0.2823 0.3716
H17_2 H 0.5245 0.2823 0.1284
C31_3 C 0.5000 0.45021(11) 0.2500
C32_2 C 0.50185(17) 0.47561(8) 0.29995(10)
C33_2 C 0.49815(17) 0.47561(8) 0.20005(10)
C34_2 C 0.50185(17) 0.52439(8) 0.20005(10)
H18_2 H 0.5057 0.5404 0.1657
H19_2 H 0.4943 0.4596 0.1657
H20_2 H 0.5057 0.4596 0.3343
O8_2 O 0.36296(12) 0.73901(6) 0.94164(7)
O14_2 O 0.24633(12) 0.81360(6) 0.94163(7)
O16_4 O 0.4228(2) 0.82903(12) 1.0000
O16_5 O 0.0772(2) 0.67097(12) 0.0000
O8_3 O 0.13704(12) 0.76099(6) 0.94164(7)
O14_3 O 0.25367(12) 0.68640(6) 0.94163(7)
O16_6 O 0.0772(2) 0.67097(12) 1.0000
O3_3 O 0.9228(2) 0.67097(12) 0.5000
O7_3 O 0.86296(12) 0.76099(6) 0.55836(7)
O12_3 O 0.74633(12) 0.68640(6) 0.55837(7)
O3_4 O 0.4228(2) 0.17097(12) 0.5000
O7_4 O 0.36296(12) 0.26099(6) 0.55836(7)
O12_4 O 0.24633(12) 0.18640(6) 0.55837(7)
O16_7 O 0.5772(2) 0.17097(12) 0.0000
O8_4 O 0.63704(12) 0.26099(6) 0.94164(7)
O14_4 O 0.75367(12) 0.18640(6) 0.94163(7)
O16_8 O 0.5772(2) 0.17097(12) 1.0000
N2_4 N 0.0000 0.09965(9) 0.7500
C11_3 C 0.17424(19) 0.20260(9) 0.57599(10)
C14_3 C 0.12925(17) 0.17528(8) 0.62155(10)
C17_3 C 0.16682(18) 0.13474(9) 0.64382(11)
H7_3 H 0.2204 0.1240 0.6301
C20_3 C 0.12405(19) 0.10998(9) 0.68702(11)
H10_3 H 0.1502 0.0833 0.7027
C23_3 C 0.04298(19) 0.12482(8) 0.70657(10)
C26_3 C 0.00706(18) 0.16511(9) 0.68426(12)
H14_3 H 0.0469 0.1757 0.8026
C29_3 C 0.04975(19) 0.19018(9) 0.64261(12)
H16_3 H 0.0245 0.2177 0.6284
C31_4 C 0.0000 0.04979(11) 0.7500
C33_3 C 0.00185(17) 0.02439(8) 0.79995(10)
H19_3 H 0.0057 0.0404 0.8343
N1_4 N 0.0000 0.90035(9) 0.7500
H3_3 H 0.0469 0.8243 0.6974
C8_4 C 0.0000 0.95021(11) 0.7500
C9_3 C 0.00185(17) 0.97561(8) 0.70005(10)
H5_3 H 0.0057 0.9596 0.6657
C10_3 C 0.17424(19) 0.79740(9) 0.92401(10)
C13_3 C 0.12925(17) 0.82472(8) 0.87845(10)
C16_3 C 0.16682(18) 0.86526(9) 0.85618(11)
H6_3 H 0.2204 0.8760 0.8699
C19_3 C 0.12405(19) 0.89002(9) 0.81298(11)
H9_3 H 0.1502 0.9167 0.7973
C22_3 C 0.04298(19) 0.87518(8) 0.79343(10)
C25_3 C 0.00706(18) 0.83489(9) 0.81574(12)
C28_3 C 0.04975(19) 0.80982(9) 0.85739(12)
H15_3 H 0.0245 0.7823 0.8716
N2_5 N 1.0000 0.09965(9) 0.7500
C12_3 C 0.82576(19) 0.20260(9) 0.92401(10)
C15_3 C 0.87075(17) 0.17528(8) 0.87845(10)
C18_3 C 0.83318(18) 0.13474(9) 0.85618(11)
H8_3 H 0.7796 0.1240 0.8699
C21_3 C 0.87595(19) 0.10998(9) 0.81298(11)
H11_3 H 0.8498 0.0833 0.7973
C24_3 C 0.95702(19) 0.12482(8) 0.79343(10)
C27_3 C 0.99294(18) 0.16511(9) 0.81574(12)
H13_3 H 0.9531 0.1757 0.6974
C30_3 C 0.95025(19) 0.19018(9) 0.85739(12)
H17_3 H 0.9755 0.2177 0.8716
C31_5 C 1.0000 0.04979(11) 0.7500
C32_3 C 0.99815(17) 0.02439(8) 0.70005(10)
H20_3 H 0.9943 0.0404 0.6657
N1_5 N 1.0000 0.90035(9) 0.7500
C1_3 C 0.82576(19) 0.79740(9) 0.57599(10)
C2_3 C 0.87075(17) 0.82472(8) 0.62155(10)
C3_3 C 0.83318(18) 0.86526(9) 0.64382(11)
H1_3 H 0.7796 0.8760 0.6301
C4_3 C 0.87595(19) 0.89002(9) 0.68702(11)
H2_3 H 0.8498 0.9167 0.7027
C5_3 C 0.95702(19) 0.87518(8) 0.70657(10)
C6_3 C 0.99294(18) 0.83489(9) 0.68426(12)
C7_3 C 0.95025(19) 0.80982(9) 0.64261(12)
H4_3 H 0.9755 0.7823 0.6284
C8_5 C 1.0000 0.95021(11) 0.7500
H12_3 H 0.9531 0.8243 0.8026
C34_3 C 0.99815(17) 0.97561(8) 0.79995(10)
H18_3 H 0.9943 0.9596 0.8343
N1_6 N 0.5000 0.40035(9) 0.7500
C1_4 C 0.32576(19) 0.29740(9) 0.57599(10)
C2_4 C 0.37075(17) 0.32472(8) 0.62155(10)
C3_4 C 0.33318(18) 0.36526(9) 0.64382(11)
H1_4 H 0.2796 0.3760 0.6301
C4_4 C 0.37595(19) 0.39002(9) 0.68702(11)
H2_4 H 0.3498 0.4167 0.7027
C5_4 C 0.45702(19) 0.37518(8) 0.70657(10)
C6_4 C 0.49294(18) 0.33489(9) 0.68426(12)
H3_4 H 0.5469 0.3243 0.6974
C7_4 C 0.45025(19) 0.30982(9) 0.64261(12)
H4_4 H 0.4755 0.2823 0.6284
C8_6 C 0.5000 0.45021(11) 0.7500
C9_4 C 0.50185(17) 0.47561(8) 0.70005(10)
H5_4 H 0.5057 0.4596 0.6657
N2_6 N 0.5000 0.59965(9) 0.7500
C10_4 C 0.67424(19) 0.29740(9) 0.92401(10)
C11_4 C 0.67424(19) 0.70260(9) 0.57599(10)
C12_4 C 0.32576(19) 0.70260(9) 0.92401(10)
C13_4 C 0.62925(17) 0.32472(8) 0.87845(10)
C14_4 C 0.62925(17) 0.67528(8) 0.62155(10)
C15_4 C 0.37075(17) 0.67528(8) 0.87845(10)
C16_4 C 0.66682(18) 0.36526(9) 0.85618(11)
C17_4 C 0.66682(18) 0.63474(9) 0.64382(11)
C18_4 C 0.33318(18) 0.63474(9) 0.85618(11)
H6_4 H 0.7204 0.3760 0.8699
H7_4 H 0.7204 0.6240 0.6301
H8_4 H 0.2796 0.6240 0.8699
C19_4 C 0.62405(19) 0.39002(9) 0.81298(11)
C20_4 C 0.62405(19) 0.60998(9) 0.68702(11)
C21_4 C 0.37595(19) 0.60998(9) 0.81298(11)
H9_4 H 0.6502 0.4167 0.7973
H10_4 H 0.6502 0.5833 0.7027
H11_4 H 0.3498 0.5833 0.7973
C22_4 C 0.54298(19) 0.37518(8) 0.79343(10)
C23_4 C 0.54298(19) 0.62482(8) 0.70657(10)
C24_4 C 0.45702(19) 0.62482(8) 0.79343(10)
C25_4 C 0.50706(18) 0.33489(9) 0.81574(12)
C26_4 C 0.50706(18) 0.66511(9) 0.68426(12)
C27_4 C 0.49294(18) 0.66511(9) 0.81574(12)
H12_4 H 0.4531 0.3243 0.8026
H13_4 H 0.4531 0.6757 0.6974
H14_4 H 0.5469 0.6757 0.8026
C28_4 C 0.54975(19) 0.30982(9) 0.85739(12)
C29_4 C 0.54975(19) 0.69018(9) 0.64261(12)
C30_4 C 0.45025(19) 0.69018(9) 0.85739(12)
H15_4 H 0.5245 0.2823 0.8716
H16_4 H 0.5245 0.7177 0.6284
H17_4 H 0.4755 0.7177 0.8716
C31_6 C 0.5000 0.54979(11) 0.7500
C32_4 C 0.49815(17) 0.52439(8) 0.70005(10)
C33_4 C 0.50185(17) 0.52439(8) 0.79995(10)
C34_4 C 0.49815(17) 0.47561(8) 0.79995(10)
H18_4 H 0.4943 0.4596 0.8343
H19_4 H 0.5057 0.5404 0.8343
H20_4 H 0.4943 0.5404 0.6657
loop_
_geom_bond_atom_site_label_1
_geom_bond_atom_site_label_2
_geom_bond_site_symmetry_1
_geom_bond_site_symmetry_2
Cu1 O1 1_555 1_555
O1 C1 1_555 1_555
O2 C1 1_555 1_555
O3 Cu1 1_555 1_555
N1 C5 1_555 1_555
C1 C2 1_555 1_555
C2 C3 1_555 1_555
C3 H1 1_555 1_555
C4 C3 1_555 1_555
H2 C4 1_555 1_555
C5 C4 1_555 1_555
C6 C5 1_555 1_555
C7 C2 1_555 1_555
H4 C7 1_555 1_555
C8 N1 1_555 1_555
Cu3 Cu1 1_555 1_555
O7 Cu1 1_555 1_555
O12 Cu1 1_555 1_555
O13 Cu1 1_555 1_555
C34 C8 1_555 1_555
H18 C34 1_555 1_555
O2 Cu3 1_555 1_555
C6 C7 1_555 1_555
Cu7 Cu8 1_555 1_555
Cu8 O11 1_555 1_555
O6 Cu7 1_555 1_555
O11 C12 1_555 1_555
C12 O6 1_555 1_555
C15 C12 1_555 1_555
C18 C15 1_555 1_555
H8 C18 1_555 1_555
C21 C18 1_555 1_555
H11 C21 1_555 1_555
C24 N2 1_555 1_555
C27 C24 1_555 1_555
C30 C15 1_555 1_555
H17 C30 1_555 1_555
C31 N2 1_555 1_555
H20 C32 1_555 1_555
C21 C24 1_555 1_555
C27 C30 1_555 1_555
C31 C32 1_555 1_555
Cu7_2 Cu8_2 1_555 1_555
C8_2 N1_2 1_555 1_555
C9 C8_2 1_555 1_555
H5 C9 1_555 1_555
Cu2 Cu4 1_555 1_555
Cu4 O9 1_555 1_555
O4 Cu2 1_555 1_555
O9 C10 1_555 1_555
O15 Cu2 1_555 1_555
O16 Cu2 1_555 1_555
C10 O4 1_555 1_555
C13 C10 1_555 1_555
C16 C13 1_555 1_555
H6 C16 1_555 1_555
C19 C16 1_555 1_555
H9 C19 1_555 1_555
C22 N1_2 1_555 1_555
C25 C22 1_555 1_555
C28 C13 1_555 1_555
H15 C28 1_555 1_555
C19 C22 1_555 1_555
C25 C28 1_555 1_555
Cu2_2 Cu4_2 1_555 1_555
O8 Cu2_2 1_555 1_555
O14 Cu2_2 1_555 1_555
O16_2 Cu2_2 1_555 1_555
Cu5 Cu6 1_555 1_555
Cu6 O10 1_555 1_555
O5 Cu5 1_555 1_555
O10 C11 1_555 1_555
N2_2 C23 1_555 1_555
C11 O5 1_555 1_555
C14 C11 1_555 1_555
C17 C14 1_555 1_555
H7 C17 1_555 1_555
C20 C17 1_555 1_555
H10 C20 1_555 1_555
C23 C20 1_555 1_555
C26 C23 1_555 1_555
C29 C14 1_555 1_555
H16 C29 1_555 1_555
C31_2 N2_2 1_555 1_555
C33 C31_2 1_555 1_555
H19 C33 1_555 1_555
C26 C29 1_555 1_555
Cu6 O1_2 1_555 1_555
O1_2 C1_2 1_555 1_555
O2_2 C1_2 1_555 1_555
O3_2 Cu6 1_555 1_555
N1_3 C5_2 1_555 1_555
C1_2 C2_2 1_555 1_555
C2_2 C3_2 1_555 1_555
C3_2 H1_2 1_555 1_555
C4_2 C3_2 1_555 1_555
H2_2 C4_2 1_555 1_555
C5_2 C4_2 1_555 1_555
C6_2 C5_2 1_555 1_555
H3_2 C6_2 1_555 1_555
C7_2 C2_2 1_555 1_555
H4_2 C7_2 1_555 1_555
C8_3 N1_3 1_555 1_555
C9_2 C8_3 1_555 1_555
H5_2 C9_2 1_555 1_555
Cu7 O9_2 1_555 1_555
O4_2 Cu8 1_555 1_555
O5_2 Cu3 1_555 1_555
O6_2 Cu4 1_555 1_555
O7_2 Cu6 1_555 1_555
O9_2 C10_2 1_555 1_555
O13 C11_2 1_555 1_555
O15 C12_2 1_555 1_555
O12_2 Cu6 1_555 1_555
O16_3 Cu8 1_555 1_555
N2_3 C23_2 1_555 1_555
C10_2 O4_2 1_555 1_555
C11_2 O5_2 1_555 1_555
C12_2 O6_2 1_555 1_555
C13_2 C10_2 1_555 1_555
C14_2 C11_2 1_555 1_555
C15_2 C12_2 1_555 1_555
C16_2 C13_2 1_555 1_555
C17_2 C14_2 1_555 1_555
C18_2 C15_2 1_555 1_555
H6_2 C16_2 1_555 1_555
H7_2 C17_2 1_555 1_555
H8_2 C18_2 1_555 1_555
C19_2 C16_2 1_555 1_555
C20_2 C17_2 1_555 1_555
C21_2 C18_2 1_555 1_555
H9_2 C19_2 1_555 1_555
H10_2 C20_2 1_555 1_555
H11_2 C21_2 1_555 1_555
C22_2 N1_3 1_555 1_555
C23_2 C20_2 1_555 1_555
C24_2 N2_3 1_555 1_555
C25_2 C22_2 1_555 1_555
C26_2 C23_2 1_555 1_555
C27_2 C24_2 1_555 1_555
H12_2 C25_2 1_555 1_555
H13_2 C26_2 1_555 1_555
H14_2 C27_2 1_555 1_555
C28_2 C13_2 1_555 1_555
C29_2 C14_2 1_555 1_555
C30_2 C15_2 1_555 1_555
H15_2 C28_2 1_555 1_555
H16_2 C29_2 1_555 1_555
H17_2 C30_2 1_555 1_555
C31_3 N2_3 1_555 1_555
C32_2 C9_2 1_555 1_555
C33_2 C31_3 1_555 1_555
C34_2 C8_3 1_555 1_555
H18_2 C34_2 1_555 1_555
H19_2 C33_2 1_555 1_555
H20_2 C32_2 1_555 1_555
O2_2 Cu5 1_555 1_555
C6_2 C7_2 1_555 1_555
C19_2 C22_2 1_555 1_555
C21_2 C24_2 1_555 1_555
C25_2 C28_2 1_555 1_555
C26_2 C29_2 1_555 1_555
C27_2 C30_2 1_555 1_555
C31_3 C32_2 1_555 1_555
C33_2 C34_2 1_555 1_555
O8_2 Cu8_2 1_555 1_555
O14_2 Cu8_2 1_555 1_555
O16_4 Cu8_2 1_555 1_555
O16_5 Cu7 1_555 1_555
O8_3 Cu7_2 1_555 1_555
O14_3 Cu7_2 1_555 1_555
O16_6 Cu7_2 1_555 1_555
O3_3 Cu5 1_555 1_555
O7_3 Cu5 1_555 1_555
O12_3 Cu5 1_555 1_555
O3_4 Cu3 1_555 1_555
O7_4 Cu3 1_555 1_555
O12_4 Cu3 1_555 1_555
O16_7 Cu4 1_555 1_555
O8_4 Cu4_2 1_555 1_555
O14_4 Cu4_2 1_555 1_555
O16_8 Cu4_2 1_555 1_555
O12_4 C11_3 1_555 1_555
N2_4 C23_3 1_555 1_555
C11_3 O7 1_555 1_555
C14_3 C11_3 1_555 1_555
C17_3 C14_3 1_555 1_555
H7_3 C17_3 1_555 1_555
C20_3 C17_3 1_555 1_555
H10_3 C20_3 1_555 1_555
C23_3 C20_3 1_555 1_555
C26_3 C23_3 1_555 1_555
C29_3 C14_3 1_555 1_555
H16_3 C29_3 1_555 1_555
C31_4 N2_4 1_555 1_555
C33_3 C31_4 1_555 1_555
H19_3 C33_3 1_555 1_555
C26_3 C29_3 1_555 1_555
C8_4 N1_4 1_555 1_555
C9_3 C8_4 1_555 1_555
H5_3 C9_3 1_555 1_555
O14_2 C10_3 1_555 1_555
C10_3 O8_3 1_555 1_555
C13_3 C10_3 1_555 1_555
C16_3 C13_3 1_555 1_555
H6_3 C16_3 1_555 1_555
C19_3 C16_3 1_555 1_555
H9_3 C19_3 1_555 1_555
C22_3 N1_4 1_555 1_555
C25_3 C22_3 1_555 1_555
C28_3 C13_3 1_555 1_555
H15_3 C28_3 1_555 1_555
C19_3 C22_3 1_555 1_555
C25_3 C28_3 1_555 1_555
O14_4 C12_3 1_555 1_555
C12_3 O8 1_555 1_555
C15_3 C12_3 1_555 1_555
C18_3 C15_3 1_555 1_555
H8_3 C18_3 1_555 1_555
C21_3 C18_3 1_555 1_555
H11_3 C21_3 1_555 1_555
C24_3 N2_5 1_555 1_555
C27_3 C24_3 1_555 1_555
C30_3 C15_3 1_555 1_555
H17_3 C30_3 1_555 1_555
C31_5 N2_5 1_555 1_555
H20_3 C32_3 1_555 1_555
C21_3 C24_3 1_555 1_555
C27_3 C30_3 1_555 1_555
C31_5 C32_3 1_555 1_555
O7_3 C1_3 1_555 1_555
O12_2 C1_3 1_555 1_555
N1_5 C5_3 1_555 1_555
C1_3 C2_3 1_555 1_555
C2_3 C3_3 1_555 1_555
C3_3 H1_3 1_555 1_555
C4_3 C3_3 1_555 1_555
H2_3 C4_3 1_555 1_555
C5_3 C4_3 1_555 1_555
C6_3 C5_3 1_555 1_555
C7_3 C2_3 1_555 1_555
H4_3 C7_3 1_555 1_555
C8_5 N1_5 1_555 1_555
C34_3 C8_5 1_555 1_555
H18_3 C34_3 1_555 1_555
C6_3 C7_3 1_555 1_555
O7_4 C1_4 1_555 1_555
O12 C1_4 1_555 1_555
N1_6 C5_4 1_555 1_555
C1_4 C2_4 1_555 1_555
C2_4 C3_4 1_555 1_555
C3_4 H1_4 1_555 1_555
C4_4 C3_4 1_555 1_555
H2_4 C4_4 1_555 1_555
C5_4 C4_4 1_555 1_555
C6_4 C5_4 1_555 1_555
H3_4 C6_4 1_555 1_555
C7_4 C2_4 1_555 1_555
H4_4 C7_4 1_555 1_555
C8_6 N1_6 1_555 1_555
C9_4 C8_6 1_555 1_555
H5_4 C9_4 1_555 1_555
O14 C10_4 1_555 1_555
O12_3 C11_4 1_555 1_555
O14_3 C12_4 1_555 1_555
N2_6 C23_4 1_555 1_555
C10_4 O8_4 1_555 1_555
C11_4 O7_2 1_555 1_555
C12_4 O8_2 1_555 1_555
C13_4 C10_4 1_555 1_555
C14_4 C11_4 1_555 1_555
C15_4 C12_4 1_555 1_555
C16_4 C13_4 1_555 1_555
C17_4 C14_4 1_555 1_555
C18_4 C15_4 1_555 1_555
H6_4 C16_4 1_555 1_555
H7_4 C17_4 1_555 1_555
H8_4 C18_4 1_555 1_555
C19_4 C16_4 1_555 1_555
C20_4 C17_4 1_555 1_555
C21_4 C18_4 1_555 1_555
H9_4 C19_4 1_555 1_555
H10_4 C20_4 1_555 1_555
H11_4 C21_4 1_555 1_555
C22_4 N1_6 1_555 1_555
C23_4 C20_4 1_555 1_555
C24_4 N2_6 1_555 1_555
C25_4 C22_4 1_555 1_555
C26_4 C23_4 1_555 1_555
C27_4 C24_4 1_555 1_555
H12_4 C25_4 1_555 1_555
H13_4 C26_4 1_555 1_555
H14_4 C27_4 1_555 1_555
C28_4 C13_4 1_555 1_555
C29_4 C14_4 1_555 1_555
C30_4 C15_4 1_555 1_555
H15_4 C28_4 1_555 1_555
H16_4 C29_4 1_555 1_555
H17_4 C30_4 1_555 1_555
C31_6 N2_6 1_555 1_555
C32_4 C9_4 1_555 1_555
C33_4 C31_6 1_555 1_555
C34_4 C8_6 1_555 1_555
H18_4 C34_4 1_555 1_555
H19_4 C33_4 1_555 1_555
H20_4 C32_4 1_555 1_555
C6_4 C7_4 1_555 1_555
C19_4 C22_4 1_555 1_555
C21_4 C24_4 1_555 1_555
C25_4 C28_4 1_555 1_555
C26_4 C29_4 1_555 1_555
C27_4 C30_4 1_555 1_555
C31_6 C32_4 1_555 1_555
C33_4 C34_4 1_555 1_555

#END
