
###############################################################################
#
# This file contains modified crystal structure data generated from the
# MOF subset of the Cambridge Structural Database (CSD) v543 
# hosted by the Cambridge Crystallographic Data Centre (CCDC).
#
# This work is licensed under the Creative Commons
# Attribution-NonCommercial-ShareAlike 4.0 International License.
# To view a copy of this license, visit
# http://creativecommons.org/licenses/by-nc-sa/4.0/
# or send a letter to
# Creative Commons, PO Box 1866, Mountain View, CA 94042, USA.
#
# CIF created using the CSD Python API on 29 September 2022
# The structure has been converted into the P1 space group
# The structure has a 3D framework
# The original CSD entry XAWXOL is in the orthorhombic crystal system
# The framework has been calculated to contain at least 10.0% void space
# The void calculation uses a probe of radius 1.32A, grid spacing 0.4
#
###############################################################################

data_XAWXOL
_chemical_formula_moiety         '(C336 H248 Eu8 N8 O58 P8)n'
_symmetry_cell_setting           triclinic
_symmetry_space_group_name_H-M   'P 1'
_symmetry_Int_Tables_number      1
_space_group_name_Hall           'P 1'
loop_
_symmetry_equiv_pos_site_id
_symmetry_equiv_pos_as_xyz
1 x,y,z
_cell_length_a                   36.202(7)
_cell_length_b                   15.391(3)
_cell_length_c                   29.655(6)
_cell_angle_alpha                90
_cell_angle_beta                 90
_cell_angle_gamma                90
_cell_volume                     16523.3
loop_
_atom_site_label
_atom_site_type_symbol
_atom_site_fract_x
_atom_site_fract_y
_atom_site_fract_z
H9 H 0.579596 0.011596 0.629735
O4 O 0.54228(7) 0.0070(2) 0.55862(7)
O9 O 0.39681(6) 0.02296(17) 0.57163(8)
O10 O 0.38477(7) 0.0266(2) 0.49935(11)
O12 O 0.46117(9) 0.10047(17) 0.52141(10)
Eu4 Eu 0.94281(2) 0.04481(2) 0.98388(2)
Eu5 Eu 0.55719(2) 0.04481(2) 0.48388(2)
H3 H 0.766344 0.843009 0.001014
H4 H 0.826052 0.889224 0.013698
O2 O 0.88477(7) 0.9734(2) 0.00065(11)
Eu6 Eu 0.44281(2) 0.04481(2) 0.01612(2)
C1 C 0.87578(9) 0.9593(2) 0.96020(12)
C2 C 0.83745(8) 0.9268(3) 0.95089(12)
C3 C 0.82253(11) 0.9299(4) 0.90861(15)
H1 H 0.836933 0.949313 0.884670
C4 C 0.78611(11) 0.9045(4) 0.90065(14)
H2 H 0.776302 0.909580 0.871780
C5 C 0.76448(9) 0.8721(3) 0.93496(12)
C6 C 0.78007(13) 0.8659(5) 0.97731(16)
C7 C 0.81616(13) 0.8935(5) 0.98484(14)
C8 C 0.72504(8) 0.8470(2) 0.92694(11)
C9 C 0.71298(9) 0.8177(3) 0.88590(13)
H5 H 0.729835 0.810939 0.862498
C10 C 0.67560(9) 0.7977(3) 0.87851(11)
H6 H 0.667858 0.777979 0.850412
C11 C 0.65074(7) 0.80723(18) 0.91266(9)
C12 C 0.66270(9) 0.8361(3) 0.95462(11)
H7 H 0.645889 0.843371 0.978028
C13 C 0.70002(10) 0.8541(3) 0.96142(12)
H8 H 0.708072 0.871266 0.989837
O1 O 0.89681(6) 0.97704(17) 0.92837(8)
C14 C 0.51990(8) 0.9684(2) 0.58342(9)
C15 C 0.53364(9) 0.9410(2) 0.62933(10)
C16 C 0.56577(12) 0.9724(4) 0.64659(14)
C17 C 0.57842(12) 0.9471(3) 0.68883(14)
H10 H 0.600296 0.970129 0.700122
C18 C 0.55854(8) 0.8879(3) 0.71410(11)
C19 C 0.52647(11) 0.8546(3) 0.69618(12)
H11 H 0.513221 0.813241 0.712358
C20 C 0.51351(10) 0.8815(3) 0.65436(11)
H12 H 0.491369 0.859746 0.643191
C21 C 0.57089(9) 0.8608(2) 0.75986(10)
C22 C 0.58599(13) 0.9211(3) 0.78965(13)
H13 H 0.589506 0.978126 0.780276
C23 C 0.59582(11) 0.8973(2) 0.83288(11)
H14 H 0.605589 0.938598 0.852407
C24 C 0.59128(7) 0.81234(19) 0.84749(9)
C25 C 0.57647(11) 0.7529(2) 0.81842(11)
H15 H 0.573147 0.695683 0.827650
C26 C 0.56635(12) 0.7779(3) 0.77497(12)
H16 H 0.556187 0.736633 0.755679
O3 O 0.48679(7) 0.95280(17) 0.57388(8)
C27 C 0.51702(10) 0.1615(2) 0.98058(10)
C28 C 0.53065(9) 0.2499(2) 0.96600(11)
C29 C 0.50654(10) 0.3186(2) 0.96205(14)
H17 H 0.481453 0.309680 0.966941
C30 C 0.51902(10) 0.4004(2) 0.95095(14)
H18 H 0.502124 0.445650 0.948217
C31 C 0.55622(9) 0.4168(2) 0.94376(13)
C32 C 0.58033(10) 0.3470(2) 0.94605(16)
H19 H 0.605302 0.355590 0.940214
C33 C 0.56767(11) 0.2640(2) 0.95697(15)
H20 H 0.584230 0.217860 0.958184
C34 C 0.56899(10) 0.5060(2) 0.93359(12)
C35 C 0.54968(14) 0.5766(3) 0.95131(18)
H21 H 0.528879 0.566933 0.969007
C36 C 0.56114(11) 0.6614(2) 0.94285(16)
H22 H 0.548426 0.707756 0.955621
C37 C 0.59125(8) 0.67673(18) 0.91560(9)
C38 C 0.61055(10) 0.6081(2) 0.89809(14)
H23 H 0.631284 0.618160 0.880313
C39 C 0.59911(10) 0.5228(2) 0.90690(14)
H24 H 0.612186 0.476685 0.894405
O5 O 0.53883(9) 0.10047(17) 0.97859(10)
O6 O 0.48444(7) 0.15717(16) 0.99342(9)
P1 P 0.60203(2) 0.78922(4) 0.90552(2)
O7 O 0.58025(6) 0.84370(13) 0.93738(7)
C40 C 0.4182(3) 0.8162(6) 0.4340(3)
H25 H 0.438752 0.840152 0.419841
C41 C 0.3853(6) 0.6746(13) 0.4454(8)
H26 H 0.377304 0.629080 0.425521
H27 H 0.402437 0.651437 0.466977
H28 H 0.364374 0.698537 0.460819
C42 C 0.4232(7) 0.7095(17) 0.3741(6)
H29 H 0.409480 0.658819 0.365300
H30 H 0.422904 0.751056 0.349989
H31 H 0.448194 0.693409 0.380751
N1 N 0.4053(4) 0.7499(11) 0.4164(5)
O8 O 0.40751(9) 0.8535(2) 0.46724(10)
Eu1 Eu 0.44281(2) 0.95519(2) 0.51612(2)
O11 O 0.45772(7) 0.9930(2) 0.44138(7)
O13 O 0.48444(7) 0.84283(16) 0.49342(9)
O14 O 0.41975(6) 0.84370(13) 0.56262(7)
Eu3 Eu 0.55719(2) 0.95519(2) 0.98388(2)
Eu6_2 Eu 0.05719(2) 0.95519(2) 0.01612(2)
H12_2 H 0.008631 0.140254 0.643191
O3_2 O 0.01321(7) 0.04720(17) 0.57388(8)
H17_2 H 0.018547 0.690320 0.966941
O6_2 O 0.01556(7) 0.84283(16) 0.99342(9)
C40_2 C 0.0818(3) 0.1838(6) 0.4340(3)
H25_2 H 0.061248 0.159848 0.419841
C41_2 C 0.1147(6) 0.3254(13) 0.4454(8)
H26_2 H 0.122696 0.370920 0.425521
H27_2 H 0.097563 0.348563 0.466977
H28_2 H 0.135626 0.301463 0.460819
C42_2 C 0.0768(7) 0.2905(17) 0.3741(6)
H29_2 H 0.090520 0.341181 0.365300
H30_2 H 0.077096 0.248944 0.349989
H31_2 H 0.051806 0.306591 0.380751
N1_2 N 0.0947(4) 0.2501(11) 0.4164(5)
O8_2 O 0.09249(9) 0.1465(2) 0.46724(10)
Eu1_2 Eu 0.05719(2) 0.04481(2) 0.51612(2)
O11_2 O 0.04228(7) 0.0070(2) 0.44138(7)
O13_2 O 0.01556(7) 0.15717(16) 0.49342(9)
O14_2 O 0.08025(6) 0.15630(13) 0.56262(7)
O9_2 O 0.10319(6) 0.97704(17) 0.57163(8)
O10_2 O 0.11523(7) 0.9734(2) 0.49935(11)
O12_2 O 0.03883(9) 0.89953(17) 0.52141(10)
H3_2 H 0.733656 0.156991 0.001014
H4_2 H 0.673948 0.110776 0.013698
O2_2 O 0.61523(7) 0.0266(2) 0.00065(11)
C1_2 C 0.62422(9) 0.0407(2) 0.96020(12)
C2_2 C 0.66255(8) 0.0732(3) 0.95089(12)
C3_2 C 0.67747(11) 0.0701(4) 0.90861(15)
H1_2 H 0.663067 0.050687 0.884670
C4_2 C 0.71389(11) 0.0955(4) 0.90065(14)
H2_2 H 0.723698 0.090420 0.871780
C5_2 C 0.73552(9) 0.1279(3) 0.93496(12)
C6_2 C 0.71993(13) 0.1341(5) 0.97731(16)
C7_2 C 0.68384(13) 0.1065(5) 0.98484(14)
C8_2 C 0.77496(8) 0.1530(2) 0.92694(11)
C9_2 C 0.78702(9) 0.1823(3) 0.88590(13)
H5_2 H 0.770165 0.189061 0.862498
C10_2 C 0.82440(9) 0.2023(3) 0.87851(11)
H6_2 H 0.832142 0.222021 0.850412
C11_2 C 0.84926(7) 0.19277(18) 0.91266(9)
C12_2 C 0.83730(9) 0.1639(3) 0.95462(11)
H7_2 H 0.854111 0.156629 0.978028
C13_2 C 0.79998(10) 0.1459(3) 0.96142(12)
H8_2 H 0.791928 0.128734 0.989837
O1_2 O 0.60319(6) 0.02296(17) 0.92837(8)
C14_2 C 0.98010(8) 0.0316(2) 0.58342(9)
C15_2 C 0.96636(9) 0.0590(2) 0.62933(10)
C16_2 C 0.93423(12) 0.0276(4) 0.64659(14)
C17_2 C 0.92158(12) 0.0529(3) 0.68883(14)
H10_2 H 0.899704 0.029871 0.700122
C18_2 C 0.94146(8) 0.1121(3) 0.71410(11)
C19_2 C 0.97353(11) 0.1454(3) 0.69618(12)
H11_2 H 0.986779 0.186759 0.712358
C20_2 C 0.98649(10) 0.1185(3) 0.65436(11)
C21_2 C 0.92911(9) 0.1392(2) 0.75986(10)
C22_2 C 0.91401(13) 0.0789(3) 0.78965(13)
H13_2 H 0.910494 0.021874 0.780276
C23_2 C 0.90418(11) 0.1027(2) 0.83288(11)
H14_2 H 0.894411 0.061402 0.852407
C24_2 C 0.90872(7) 0.18766(19) 0.84749(9)
C25_2 C 0.92353(11) 0.2471(2) 0.81842(11)
H15_2 H 0.926853 0.304317 0.827650
C26_2 C 0.93365(12) 0.2221(3) 0.77497(12)
H16_2 H 0.943813 0.263367 0.755679
C27_2 C 0.98298(10) 0.8385(2) 0.98058(10)
C28_2 C 0.96935(9) 0.7501(2) 0.96600(11)
C29_2 C 0.99346(10) 0.6814(2) 0.96205(14)
C30_2 C 0.98098(10) 0.5996(2) 0.95095(14)
H18_2 H 0.997876 0.554350 0.948217
C31_2 C 0.94378(9) 0.5832(2) 0.94376(13)
C32_2 C 0.91967(10) 0.6530(2) 0.94605(16)
H19_2 H 0.894698 0.644410 0.940214
C33_2 C 0.93233(11) 0.7360(2) 0.95697(15)
H20_2 H 0.915770 0.782140 0.958184
C34_2 C 0.93101(10) 0.4940(2) 0.93359(12)
C35_2 C 0.95032(14) 0.4234(3) 0.95131(18)
H21_2 H 0.971121 0.433067 0.969007
C36_2 C 0.93886(11) 0.3386(2) 0.94285(16)
H22_2 H 0.951574 0.292244 0.955621
C37_2 C 0.90875(8) 0.32327(18) 0.91560(9)
C38_2 C 0.88945(10) 0.3919(2) 0.89809(14)
H23_2 H 0.868716 0.381840 0.880313
C39_2 C 0.90089(10) 0.4772(2) 0.90690(14)
H24_2 H 0.887814 0.523315 0.894405
O5_2 O 0.96117(9) 0.89953(17) 0.97859(10)
P1_2 P 0.89797(2) 0.21078(4) 0.90552(2)
O7_2 O 0.91975(6) 0.15630(13) 0.93738(7)
H9_2 H 0.920404 0.988404 0.629735
O4_2 O 0.95772(7) 0.9930(2) 0.55862(7)
Eu5_2 Eu 0.94281(2) 0.95519(2) 0.48388(2)
H9_3 H 0.420404 0.011596 0.870265
O4_3 O 0.45772(7) 0.0070(2) 0.94138(7)
C40_3 C 0.5818(3) 0.8162(6) 0.0660(3)
H25_3 H 0.561248 0.840152 0.080159
C41_3 C 0.6147(6) 0.6746(13) 0.0546(8)
H26_3 H 0.622696 0.629080 0.074479
H27_3 H 0.597563 0.651437 0.033023
H28_3 H 0.635626 0.698537 0.039181
C42_3 C 0.5768(7) 0.7095(17) 0.1259(6)
H29_3 H 0.590520 0.658819 0.134700
H30_3 H 0.577096 0.751056 0.150011
H31_3 H 0.551806 0.693409 0.119249
N1_3 N 0.5947(4) 0.7499(11) 0.0836(5)
O8_3 O 0.59249(9) 0.8535(2) 0.03276(10)
O11_3 O 0.54228(7) 0.9930(2) 0.05862(7)
O13_3 O 0.51556(7) 0.84283(16) 0.00658(9)
C1_3 C 0.12422(9) 0.9593(2) 0.53980(12)
C2_3 C 0.16255(8) 0.9268(3) 0.54911(12)
C3_3 C 0.17747(11) 0.9299(4) 0.59139(15)
H1_3 H 0.163067 0.949313 0.615330
C4_3 C 0.21389(11) 0.9045(4) 0.59935(14)
H2_3 H 0.223698 0.909580 0.628220
C5_3 C 0.23552(9) 0.8721(3) 0.56504(12)
C6_3 C 0.21993(13) 0.8659(5) 0.52269(16)
H3_3 H 0.233656 0.843009 0.498986
C7_3 C 0.18384(13) 0.8935(5) 0.51516(14)
H4_3 H 0.173948 0.889224 0.486302
C8_3 C 0.27496(8) 0.8470(2) 0.57306(11)
C9_3 C 0.28702(9) 0.8177(3) 0.61410(13)
H5_3 H 0.270165 0.810939 0.637502
C10_3 C 0.32440(9) 0.7977(3) 0.62149(11)
H6_3 H 0.332142 0.777979 0.649588
C11_3 C 0.34926(7) 0.80723(18) 0.58734(9)
C12_3 C 0.33730(9) 0.8361(3) 0.54538(11)
H7_3 H 0.354111 0.843371 0.521972
C13_3 C 0.29998(10) 0.8541(3) 0.53858(12)
H8_3 H 0.291928 0.871266 0.510163
C14_3 C 0.48010(8) 0.9684(2) 0.91658(9)
C15_3 C 0.46636(9) 0.9410(2) 0.87067(10)
C16_3 C 0.43423(12) 0.9724(4) 0.85341(14)
C17_3 C 0.42158(12) 0.9471(3) 0.81117(14)
H10_3 H 0.399704 0.970129 0.799878
C18_3 C 0.44146(8) 0.8879(3) 0.78590(11)
C19_3 C 0.47353(11) 0.8546(3) 0.80382(12)
H11_3 H 0.486779 0.813241 0.787642
C20_3 C 0.48649(10) 0.8815(3) 0.84564(11)
H12_3 H 0.508631 0.859746 0.856809
C21_3 C 0.42911(9) 0.8608(2) 0.74014(10)
C22_3 C 0.41401(13) 0.9211(3) 0.71035(13)
H13_3 H 0.410494 0.978126 0.719724
C23_3 C 0.40418(11) 0.8973(2) 0.66712(11)
H14_3 H 0.394411 0.938598 0.647593
C24_3 C 0.40872(7) 0.81234(19) 0.65251(9)
C25_3 C 0.42353(11) 0.7529(2) 0.68158(11)
H15_3 H 0.426853 0.695683 0.672350
C26_3 C 0.43365(12) 0.7779(3) 0.72503(12)
H16_3 H 0.443813 0.736633 0.744321
O3_3 O 0.51321(7) 0.95280(17) 0.92612(8)
C27_3 C 0.48298(10) 0.1615(2) 0.51942(10)
C28_3 C 0.46935(9) 0.2499(2) 0.53400(11)
C29_3 C 0.49346(10) 0.3186(2) 0.53795(14)
H17_3 H 0.518547 0.309680 0.533059
C30_3 C 0.48098(10) 0.4004(2) 0.54905(14)
H18_3 H 0.497876 0.445650 0.551783
C31_3 C 0.44378(9) 0.4168(2) 0.55624(13)
C32_3 C 0.41967(10) 0.3470(2) 0.55395(16)
H19_3 H 0.394698 0.355590 0.559786
C33_3 C 0.43233(11) 0.2640(2) 0.54303(15)
H20_3 H 0.415770 0.217860 0.541816
C34_3 C 0.43101(10) 0.5060(2) 0.56641(12)
C35_3 C 0.45032(14) 0.5766(3) 0.54869(18)
H21_3 H 0.471121 0.566933 0.530993
C36_3 C 0.43886(11) 0.6614(2) 0.55715(16)
H22_3 H 0.451574 0.707756 0.544379
C37_3 C 0.40875(8) 0.67673(18) 0.58440(9)
C38_3 C 0.38945(10) 0.6081(2) 0.60191(14)
H23_3 H 0.368716 0.618160 0.619687
C39_3 C 0.40089(10) 0.5228(2) 0.59310(14)
H24_3 H 0.387814 0.476685 0.605595
O6_3 O 0.51556(7) 0.15717(16) 0.50658(9)
P1_3 P 0.39797(2) 0.78922(4) 0.59448(2)
C1_4 C 0.37578(9) 0.0407(2) 0.53980(12)
C2_4 C 0.33745(8) 0.0732(3) 0.54911(12)
C3_4 C 0.32253(11) 0.0701(4) 0.59139(15)
H1_4 H 0.336933 0.050687 0.615330
C4_4 C 0.28611(11) 0.0955(4) 0.59935(14)
H2_4 H 0.276302 0.090420 0.628220
C5_4 C 0.26448(9) 0.1279(3) 0.56504(12)
C6_4 C 0.28007(13) 0.1341(5) 0.52269(16)
H3_4 H 0.266344 0.156991 0.498986
C7_4 C 0.31616(13) 0.1065(5) 0.51516(14)
H4_4 H 0.326052 0.110776 0.486302
C8_4 C 0.22504(8) 0.1530(2) 0.57306(11)
C9_4 C 0.21298(9) 0.1823(3) 0.61410(13)
H5_4 H 0.229835 0.189061 0.637502
C10_4 C 0.17560(9) 0.2023(3) 0.62149(11)
H6_4 H 0.167858 0.222021 0.649588
C11_4 C 0.15074(7) 0.19277(18) 0.58734(9)
C12_4 C 0.16270(9) 0.1639(3) 0.54538(11)
H7_4 H 0.145889 0.156629 0.521972
C13_4 C 0.20002(10) 0.1459(3) 0.53858(12)
H8_4 H 0.208072 0.128734 0.510163
C14_4 C 0.01990(8) 0.0316(2) 0.91658(9)
C15_4 C 0.03364(9) 0.0590(2) 0.87067(10)
C16_4 C 0.06577(12) 0.0276(4) 0.85341(14)
C17_4 C 0.07842(12) 0.0529(3) 0.81117(14)
H10_4 H 0.100296 0.029871 0.799878
C18_4 C 0.05854(8) 0.1121(3) 0.78590(11)
C19_4 C 0.02647(11) 0.1454(3) 0.80382(12)
H11_4 H 0.013221 0.186759 0.787642
C20_4 C 0.01351(10) 0.1185(3) 0.84564(11)
C21_4 C 0.07089(9) 0.1392(2) 0.74014(10)
C22_4 C 0.08599(13) 0.0789(3) 0.71035(13)
H13_4 H 0.089506 0.021874 0.719724
C23_4 C 0.09582(11) 0.1027(2) 0.66712(11)
H14_4 H 0.105589 0.061402 0.647593
C24_4 C 0.09128(7) 0.18766(19) 0.65251(9)
C25_4 C 0.07647(11) 0.2471(2) 0.68158(11)
H15_4 H 0.073147 0.304317 0.672350
C26_4 C 0.06635(12) 0.2221(3) 0.72503(12)
H16_4 H 0.056187 0.263367 0.744321
C27_4 C 0.01702(10) 0.8385(2) 0.51942(10)
C28_4 C 0.03065(9) 0.7501(2) 0.53400(11)
C29_4 C 0.00654(10) 0.6814(2) 0.53795(14)
C30_4 C 0.01902(10) 0.5996(2) 0.54905(14)
H18_4 H 0.002124 0.554350 0.551783
C31_4 C 0.05622(9) 0.5832(2) 0.55624(13)
C32_4 C 0.08033(10) 0.6530(2) 0.55395(16)
H19_4 H 0.105302 0.644410 0.559786
C33_4 C 0.06767(11) 0.7360(2) 0.54303(15)
H20_4 H 0.084230 0.782140 0.541816
C34_4 C 0.06899(10) 0.4940(2) 0.56641(12)
C35_4 C 0.04968(14) 0.4234(3) 0.54869(18)
H21_4 H 0.028879 0.433067 0.530993
C36_4 C 0.06114(11) 0.3386(2) 0.55715(16)
H22_4 H 0.048426 0.292244 0.544379
C37_4 C 0.09125(8) 0.32327(18) 0.58440(9)
C38_4 C 0.11055(10) 0.3919(2) 0.60191(14)
H23_4 H 0.131284 0.381840 0.619687
C39_4 C 0.09911(10) 0.4772(2) 0.59310(14)
H24_4 H 0.112186 0.523315 0.605595
P1_4 P 0.10203(2) 0.21078(4) 0.59448(2)
H9_4 H 0.079596 0.988404 0.870265
O4_4 O 0.04228(7) 0.9930(2) 0.94138(7)
C40_4 C 0.9182(3) 0.1838(6) 0.0660(3)
H25_4 H 0.938752 0.159848 0.080159
C41_4 C 0.8853(6) 0.3254(13) 0.0546(8)
H26_4 H 0.877304 0.370920 0.074479
H27_4 H 0.902437 0.348563 0.033023
H28_4 H 0.864374 0.301463 0.039181
C42_4 C 0.9232(7) 0.2905(17) 0.1259(6)
H29_4 H 0.909480 0.341181 0.134700
H30_4 H 0.922904 0.248944 0.150011
H31_4 H 0.948194 0.306591 0.119249
N1_4 N 0.9053(4) 0.2501(11) 0.0836(5)
O8_4 O 0.90751(9) 0.1465(2) 0.03276(10)
O11_4 O 0.95772(7) 0.0070(2) 0.05862(7)
O13_4 O 0.98444(7) 0.15717(16) 0.00658(9)
H12_4 H 0.991369 0.140254 0.856809
O3_4 O 0.98679(7) 0.04720(17) 0.92612(8)
H17_4 H 0.981453 0.690320 0.533059
O6_4 O 0.98444(7) 0.84283(16) 0.50658(9)
C1_5 C 0.12422(9) 0.0407(2) 0.03980(12)
C2_5 C 0.16255(8) 0.0732(3) 0.04911(12)
C3_5 C 0.17747(11) 0.0701(4) 0.09139(15)
H1_5 H 0.163067 0.050687 0.115330
C4_5 C 0.21389(11) 0.0955(4) 0.09935(14)
H2_5 H 0.223698 0.090420 0.128220
C5_5 C 0.23552(9) 0.1279(3) 0.06504(12)
C6_5 C 0.21993(13) 0.1341(5) 0.02269(16)
C7_5 C 0.18384(13) 0.1065(5) 0.01516(14)
C8_5 C 0.27496(8) 0.1530(2) 0.07306(11)
C9_5 C 0.28702(9) 0.1823(3) 0.11410(13)
H5_5 H 0.270165 0.189061 0.137502
C10_5 C 0.32440(9) 0.2023(3) 0.12149(11)
H6_5 H 0.332142 0.222021 0.149588
C11_5 C 0.34926(7) 0.19277(18) 0.08734(9)
C12_5 C 0.33730(9) 0.1639(3) 0.04538(11)
H7_5 H 0.354111 0.156629 0.021972
C13_5 C 0.29998(10) 0.1459(3) 0.03858(12)
H8_5 H 0.291928 0.128734 0.010163
O1_3 O 0.10319(6) 0.02296(17) 0.07163(8)
C14_5 C 0.48010(8) 0.0316(2) 0.41658(9)
C15_5 C 0.46636(9) 0.0590(2) 0.37067(10)
C16_5 C 0.43423(12) 0.0276(4) 0.35341(14)
C17_5 C 0.42158(12) 0.0529(3) 0.31117(14)
H10_5 H 0.399704 0.029871 0.299878
C18_5 C 0.44146(8) 0.1121(3) 0.28590(11)
C19_5 C 0.47353(11) 0.1454(3) 0.30382(12)
H11_5 H 0.486779 0.186759 0.287642
C20_5 C 0.48649(10) 0.1185(3) 0.34564(11)
H12_5 H 0.508631 0.140254 0.356809
C21_5 C 0.42911(9) 0.1392(2) 0.24014(10)
C22_5 C 0.41401(13) 0.0789(3) 0.21035(13)
H13_5 H 0.410494 0.021874 0.219724
C23_5 C 0.40418(11) 0.1027(2) 0.16712(11)
H14_5 H 0.394411 0.061402 0.147593
C24_5 C 0.40872(7) 0.18766(19) 0.15251(9)
C25_5 C 0.42353(11) 0.2471(2) 0.18158(11)
H15_5 H 0.426853 0.304317 0.172350
C26_5 C 0.43365(12) 0.2221(3) 0.22503(12)
H16_5 H 0.443813 0.263367 0.244321
O3_5 O 0.51321(7) 0.04720(17) 0.42612(8)
C27_5 C 0.48298(10) 0.8385(2) 0.01942(10)
C28_5 C 0.46935(9) 0.7501(2) 0.03400(11)
C29_5 C 0.49346(10) 0.6814(2) 0.03795(14)
H17_5 H 0.518547 0.690320 0.033059
C30_5 C 0.48098(10) 0.5996(2) 0.04905(14)
H18_5 H 0.497876 0.554350 0.051783
C31_5 C 0.44378(9) 0.5832(2) 0.05624(13)
C32_5 C 0.41967(10) 0.6530(2) 0.05395(16)
H19_5 H 0.394698 0.644410 0.059786
C33_5 C 0.43233(11) 0.7360(2) 0.04303(15)
H20_5 H 0.415770 0.782140 0.041816
C34_5 C 0.43101(10) 0.4940(2) 0.06641(12)
C35_5 C 0.45032(14) 0.4234(3) 0.04869(18)
H21_5 H 0.471121 0.433067 0.030993
C36_5 C 0.43886(11) 0.3386(2) 0.05715(16)
H22_5 H 0.451574 0.292244 0.044379
C37_5 C 0.40875(8) 0.32327(18) 0.08440(9)
C38_5 C 0.38945(10) 0.3919(2) 0.10191(14)
H23_5 H 0.368716 0.381840 0.119687
C39_5 C 0.40089(10) 0.4772(2) 0.09310(14)
H24_5 H 0.387814 0.523315 0.105595
O5_3 O 0.46117(9) 0.89953(17) 0.02141(10)
P1_5 P 0.39797(2) 0.21078(4) 0.09448(2)
O7_3 O 0.41975(6) 0.15630(13) 0.06262(7)
C40_5 C 0.5818(3) 0.1838(6) 0.5660(3)
H25_5 H 0.561248 0.159848 0.580159
C41_5 C 0.6147(6) 0.3254(13) 0.5546(8)
H26_5 H 0.622696 0.370920 0.574479
H27_5 H 0.597563 0.348563 0.533023
H28_5 H 0.635626 0.301463 0.539181
C42_5 C 0.5768(7) 0.2905(17) 0.6259(6)
H29_5 H 0.590520 0.341181 0.634700
H30_5 H 0.577096 0.248944 0.650011
H31_5 H 0.551806 0.306591 0.619249
N1_5 N 0.5947(4) 0.2501(11) 0.5836(5)
O8_5 O 0.59249(9) 0.1465(2) 0.53276(10)
O14_3 O 0.58025(6) 0.15630(13) 0.43738(7)
H3_5 H 0.233656 0.156991 0.998986
H4_5 H 0.173948 0.110776 0.986302
O2_3 O 0.11523(7) 0.0266(2) 0.99935(11)
H9_5 H 0.420404 0.988404 0.370265
O9_3 O 0.60319(6) 0.97704(17) 0.42837(8)
O10_3 O 0.61523(7) 0.9734(2) 0.50065(11)
O12_3 O 0.53883(9) 0.89953(17) 0.47859(10)
H9_6 H 0.079596 0.011596 0.370265
C1_6 C 0.37578(9) 0.9593(2) 0.03980(12)
C2_6 C 0.33745(8) 0.9268(3) 0.04911(12)
C3_6 C 0.32253(11) 0.9299(4) 0.09139(15)
H1_6 H 0.336933 0.949313 0.115330
C4_6 C 0.28611(11) 0.9045(4) 0.09935(14)
H2_6 H 0.276302 0.909580 0.128220
C5_6 C 0.26448(9) 0.8721(3) 0.06504(12)
C6_6 C 0.28007(13) 0.8659(5) 0.02269(16)
C7_6 C 0.31616(13) 0.8935(5) 0.01516(14)
C8_6 C 0.22504(8) 0.8470(2) 0.07306(11)
C9_6 C 0.21298(9) 0.8177(3) 0.11410(13)
H5_6 H 0.229835 0.810939 0.137502
C10_6 C 0.17560(9) 0.7977(3) 0.12149(11)
H6_6 H 0.167858 0.777979 0.149588
C11_6 C 0.15074(7) 0.80723(18) 0.08734(9)
C12_6 C 0.16270(9) 0.8361(3) 0.04538(11)
H7_6 H 0.145889 0.843371 0.021972
C13_6 C 0.20002(10) 0.8541(3) 0.03858(12)
H8_6 H 0.208072 0.871266 0.010163
O1_4 O 0.39681(6) 0.97704(17) 0.07163(8)
C14_6 C 0.01990(8) 0.9684(2) 0.41658(9)
C15_6 C 0.03364(9) 0.9410(2) 0.37067(10)
C16_6 C 0.06577(12) 0.9724(4) 0.35341(14)
C17_6 C 0.07842(12) 0.9471(3) 0.31117(14)
H10_6 H 0.100296 0.970129 0.299878
C18_6 C 0.05854(8) 0.8879(3) 0.28590(11)
C19_6 C 0.02647(11) 0.8546(3) 0.30382(12)
H11_6 H 0.013221 0.813241 0.287642
C20_6 C 0.01351(10) 0.8815(3) 0.34564(11)
C21_6 C 0.07089(9) 0.8608(2) 0.24014(10)
C22_6 C 0.08599(13) 0.9211(3) 0.21035(13)
H13_6 H 0.089506 0.978126 0.219724
C23_6 C 0.09582(11) 0.8973(2) 0.16712(11)
H14_6 H 0.105589 0.938598 0.147593
C24_6 C 0.09128(7) 0.81234(19) 0.15251(9)
C25_6 C 0.07647(11) 0.7529(2) 0.18158(11)
H15_6 H 0.073147 0.695683 0.172350
C26_6 C 0.06635(12) 0.7779(3) 0.22503(12)
H16_6 H 0.056187 0.736633 0.244321
C27_6 C 0.01702(10) 0.1615(2) 0.01942(10)
C28_6 C 0.03065(9) 0.2499(2) 0.03400(11)
C29_6 C 0.00654(10) 0.3186(2) 0.03795(14)
C30_6 C 0.01902(10) 0.4004(2) 0.04905(14)
H18_6 H 0.002124 0.445650 0.051783
C31_6 C 0.05622(9) 0.4168(2) 0.05624(13)
C32_6 C 0.08033(10) 0.3470(2) 0.05395(16)
H19_6 H 0.105302 0.355590 0.059786
C33_6 C 0.06767(11) 0.2640(2) 0.04303(15)
H20_6 H 0.084230 0.217860 0.041816
C34_6 C 0.06899(10) 0.5060(2) 0.06641(12)
C35_6 C 0.04968(14) 0.5766(3) 0.04869(18)
H21_6 H 0.028879 0.566933 0.030993
C36_6 C 0.06114(11) 0.6614(2) 0.05715(16)
H22_6 H 0.048426 0.707756 0.044379
C37_6 C 0.09125(8) 0.67673(18) 0.08440(9)
C38_6 C 0.11055(10) 0.6081(2) 0.10191(14)
H23_6 H 0.131284 0.618160 0.119687
C39_6 C 0.09911(10) 0.5228(2) 0.09310(14)
H24_6 H 0.112186 0.476685 0.105595
O5_4 O 0.03883(9) 0.10047(17) 0.02141(10)
P1_6 P 0.10203(2) 0.78922(4) 0.09448(2)
O7_4 O 0.08025(6) 0.84370(13) 0.06262(7)
H3_6 H 0.266344 0.843009 0.998986
H4_6 H 0.326052 0.889224 0.986302
O2_4 O 0.38477(7) 0.9734(2) 0.99935(11)
O9_4 O 0.89681(6) 0.02296(17) 0.42837(8)
O10_4 O 0.88477(7) 0.0266(2) 0.50065(11)
O12_4 O 0.96117(9) 0.10047(17) 0.47859(10)
H12_6 H 0.991369 0.859746 0.356809
O3_6 O 0.98679(7) 0.95280(17) 0.42612(8)
H17_6 H 0.981453 0.309680 0.033059
C40_6 C 0.9182(3) 0.8162(6) 0.5660(3)
H25_6 H 0.938752 0.840152 0.580159
C41_6 C 0.8853(6) 0.6746(13) 0.5546(8)
H26_6 H 0.877304 0.629080 0.574479
H27_6 H 0.902437 0.651437 0.533023
H28_6 H 0.864374 0.698537 0.539181
C42_6 C 0.9232(7) 0.7095(17) 0.6259(6)
H29_6 H 0.909480 0.658819 0.634700
H30_6 H 0.922904 0.751056 0.650011
H31_6 H 0.948194 0.693409 0.619249
N1_6 N 0.9053(4) 0.7499(11) 0.5836(5)
O8_6 O 0.90751(9) 0.8535(2) 0.53276(10)
O14_4 O 0.91975(6) 0.84370(13) 0.43738(7)
C1_7 C 0.87578(9) 0.0407(2) 0.46020(12)
C2_7 C 0.83745(8) 0.0732(3) 0.45089(12)
C3_7 C 0.82253(11) 0.0701(4) 0.40861(15)
H1_7 H 0.836933 0.050687 0.384670
C4_7 C 0.78611(11) 0.0955(4) 0.40065(14)
H2_7 H 0.776302 0.090420 0.371780
C5_7 C 0.76448(9) 0.1279(3) 0.43496(12)
C6_7 C 0.78007(13) 0.1341(5) 0.47731(16)
H3_7 H 0.766344 0.156991 0.501014
C7_7 C 0.81616(13) 0.1065(5) 0.48484(14)
H4_7 H 0.826052 0.110776 0.513698
C8_7 C 0.72504(8) 0.1530(2) 0.42694(11)
C9_7 C 0.71298(9) 0.1823(3) 0.38590(13)
H5_7 H 0.729835 0.189061 0.362498
C10_7 C 0.67560(9) 0.2023(3) 0.37851(11)
H6_7 H 0.667858 0.222021 0.350412
C11_7 C 0.65074(7) 0.19277(18) 0.41266(9)
C12_7 C 0.66270(9) 0.1639(3) 0.45462(11)
H7_7 H 0.645889 0.156629 0.478028
C13_7 C 0.70002(10) 0.1459(3) 0.46142(12)
H8_7 H 0.708072 0.128734 0.489837
C14_7 C 0.51990(8) 0.0316(2) 0.08342(9)
C15_7 C 0.53364(9) 0.0590(2) 0.12933(10)
C16_7 C 0.56577(12) 0.0276(4) 0.14659(14)
C17_7 C 0.57842(12) 0.0529(3) 0.18883(14)
H10_7 H 0.600296 0.029871 0.200122
C18_7 C 0.55854(8) 0.1121(3) 0.21410(11)
C19_7 C 0.52647(11) 0.1454(3) 0.19618(12)
H11_7 H 0.513221 0.186759 0.212358
C20_7 C 0.51351(10) 0.1185(3) 0.15436(11)
H12_7 H 0.491369 0.140254 0.143191
C21_7 C 0.57089(9) 0.1392(2) 0.25986(10)
C22_7 C 0.58599(13) 0.0789(3) 0.28965(13)
H13_7 H 0.589506 0.021874 0.280276
C23_7 C 0.59582(11) 0.1027(2) 0.33288(11)
H14_7 H 0.605589 0.061402 0.352407
C24_7 C 0.59128(7) 0.18766(19) 0.34749(9)
C25_7 C 0.57647(11) 0.2471(2) 0.31842(11)
H15_7 H 0.573147 0.304317 0.327650
C26_7 C 0.56635(12) 0.2221(3) 0.27497(12)
H16_7 H 0.556187 0.263367 0.255679
O3_7 O 0.48679(7) 0.04720(17) 0.07388(8)
C27_7 C 0.51702(10) 0.8385(2) 0.48058(10)
C28_7 C 0.53065(9) 0.7501(2) 0.46600(11)
C29_7 C 0.50654(10) 0.6814(2) 0.46205(14)
H17_7 H 0.481453 0.690320 0.466941
C30_7 C 0.51902(10) 0.5996(2) 0.45095(14)
H18_7 H 0.502124 0.554350 0.448217
C31_7 C 0.55622(9) 0.5832(2) 0.44376(13)
C32_7 C 0.58033(10) 0.6530(2) 0.44605(16)
H19_7 H 0.605302 0.644410 0.440214
C33_7 C 0.56767(11) 0.7360(2) 0.45697(15)
H20_7 H 0.584230 0.782140 0.458184
C34_7 C 0.56899(10) 0.4940(2) 0.43359(12)
C35_7 C 0.54968(14) 0.4234(3) 0.45131(18)
H21_7 H 0.528879 0.433067 0.469007
C36_7 C 0.56114(11) 0.3386(2) 0.44285(16)
H22_7 H 0.548426 0.292244 0.455621
C37_7 C 0.59125(8) 0.32327(18) 0.41560(9)
C38_7 C 0.61055(10) 0.3919(2) 0.39809(14)
H23_7 H 0.631284 0.381840 0.380313
C39_7 C 0.59911(10) 0.4772(2) 0.40690(14)
H24_7 H 0.612186 0.523315 0.394405
P1_7 P 0.60203(2) 0.21078(4) 0.40552(2)
C40_7 C 0.4182(3) 0.1838(6) 0.9340(3)
H25_7 H 0.438752 0.159848 0.919841
C41_7 C 0.3853(6) 0.3254(13) 0.9454(8)
H26_7 H 0.377304 0.370920 0.925521
H27_7 H 0.402437 0.348563 0.966977
H28_7 H 0.364374 0.301463 0.960819
C42_7 C 0.4232(7) 0.2905(17) 0.8741(6)
H29_7 H 0.409480 0.341181 0.865300
H30_7 H 0.422904 0.248944 0.849989
H31_7 H 0.448194 0.306591 0.880751
N1_7 N 0.4053(4) 0.2501(11) 0.9164(5)
O8_7 O 0.40751(9) 0.1465(2) 0.96724(10)
H9_7 H 0.579596 0.988404 0.129735
H12_8 H 0.008631 0.859746 0.143191
O3_8 O 0.01321(7) 0.95280(17) 0.07388(8)
H17_8 H 0.018547 0.309680 0.466941
C40_8 C 0.0818(3) 0.8162(6) 0.9340(3)
H25_8 H 0.061248 0.840152 0.919841
C41_8 C 0.1147(6) 0.6746(13) 0.9454(8)
H26_8 H 0.122696 0.629080 0.925521
H27_8 H 0.097563 0.651437 0.966977
H28_8 H 0.135626 0.698537 0.960819
C42_8 C 0.0768(7) 0.7095(17) 0.8741(6)
H29_8 H 0.090520 0.658819 0.865300
H30_8 H 0.077096 0.751056 0.849989
H31_8 H 0.051806 0.693409 0.880751
N1_8 N 0.0947(4) 0.7499(11) 0.9164(5)
O8_8 O 0.09249(9) 0.8535(2) 0.96724(10)
H9_8 H 0.920404 0.011596 0.129735
C1_8 C 0.62422(9) 0.9593(2) 0.46020(12)
C2_8 C 0.66255(8) 0.9268(3) 0.45089(12)
C3_8 C 0.67747(11) 0.9299(4) 0.40861(15)
H1_8 H 0.663067 0.949313 0.384670
C4_8 C 0.71389(11) 0.9045(4) 0.40065(14)
H2_8 H 0.723698 0.909580 0.371780
C5_8 C 0.73552(9) 0.8721(3) 0.43496(12)
C6_8 C 0.71993(13) 0.8659(5) 0.47731(16)
H3_8 H 0.733656 0.843009 0.501014
C7_8 C 0.68384(13) 0.8935(5) 0.48484(14)
H4_8 H 0.673948 0.889224 0.513698
C8_8 C 0.77496(8) 0.8470(2) 0.42694(11)
C9_8 C 0.78702(9) 0.8177(3) 0.38590(13)
H5_8 H 0.770165 0.810939 0.362498
C10_8 C 0.82440(9) 0.7977(3) 0.37851(11)
H6_8 H 0.832142 0.777979 0.350412
C11_8 C 0.84926(7) 0.80723(18) 0.41266(9)
C12_8 C 0.83730(9) 0.8361(3) 0.45462(11)
H7_8 H 0.854111 0.843371 0.478028
C13_8 C 0.79998(10) 0.8541(3) 0.46142(12)
H8_8 H 0.791928 0.871266 0.489837
C14_8 C 0.98010(8) 0.9684(2) 0.08342(9)
C15_8 C 0.96636(9) 0.9410(2) 0.12933(10)
C16_8 C 0.93423(12) 0.9724(4) 0.14659(14)
C17_8 C 0.92158(12) 0.9471(3) 0.18883(14)
H10_8 H 0.899704 0.970129 0.200122
C18_8 C 0.94146(8) 0.8879(3) 0.21410(11)
C19_8 C 0.97353(11) 0.8546(3) 0.19618(12)
H11_8 H 0.986779 0.813241 0.212358
C20_8 C 0.98649(10) 0.8815(3) 0.15436(11)
C21_8 C 0.92911(9) 0.8608(2) 0.25986(10)
C22_8 C 0.91401(13) 0.9211(3) 0.28965(13)
H13_8 H 0.910494 0.978126 0.280276
C23_8 C 0.90418(11) 0.8973(2) 0.33288(11)
H14_8 H 0.894411 0.938598 0.352407
C24_8 C 0.90872(7) 0.81234(19) 0.34749(9)
C25_8 C 0.92353(11) 0.7529(2) 0.31842(11)
H15_8 H 0.926853 0.695683 0.327650
C26_8 C 0.93365(12) 0.7779(3) 0.27497(12)
H16_8 H 0.943813 0.736633 0.255679
C27_8 C 0.98298(10) 0.1615(2) 0.48058(10)
C28_8 C 0.96935(9) 0.2499(2) 0.46600(11)
C29_8 C 0.99346(10) 0.3186(2) 0.46205(14)
C30_8 C 0.98098(10) 0.4004(2) 0.45095(14)
H18_8 H 0.997876 0.445650 0.448217
C31_8 C 0.94378(9) 0.4168(2) 0.44376(13)
C32_8 C 0.91967(10) 0.3470(2) 0.44605(16)
H19_8 H 0.894698 0.355590 0.440214
C33_8 C 0.93233(11) 0.2640(2) 0.45697(15)
H20_8 H 0.915770 0.217860 0.458184
C34_8 C 0.93101(10) 0.5060(2) 0.43359(12)
C35_8 C 0.95032(14) 0.5766(3) 0.45131(18)
H21_8 H 0.971121 0.566933 0.469007
C36_8 C 0.93886(11) 0.6614(2) 0.44285(16)
H22_8 H 0.951574 0.707756 0.455621
C37_8 C 0.90875(8) 0.67673(18) 0.41560(9)
C38_8 C 0.88945(10) 0.6081(2) 0.39809(14)
H23_8 H 0.868716 0.618160 0.380313
C39_8 C 0.90089(10) 0.5228(2) 0.40690(14)
H24_8 H 0.887814 0.476685 0.394405
P1_8 P 0.89797(2) 0.78922(4) 0.40552(2)
loop_
_geom_bond_atom_site_label_1
_geom_bond_atom_site_label_2
_geom_bond_site_symmetry_1
_geom_bond_site_symmetry_2
Eu5 O4 1_555 1_555
C1 C2 1_555 1_555
C2 C3 1_555 1_555
C3 H1 1_555 1_555
C4 C3 1_555 1_555
H2 C4 1_555 1_555
C5 C4 1_555 1_555
C6 C5 1_555 1_555
C7 C2 1_555 1_555
C8 C5 1_555 1_555
C9 C8 1_555 1_555
H5 C9 1_555 1_555
C10 C9 1_555 1_555
H6 C10 1_555 1_555
C11 C10 1_555 1_555
C12 C11 1_555 1_555
H7 C12 1_555 1_555
C13 C8 1_555 1_555
H8 C13 1_555 1_555
O1 C1 1_555 1_555
C14 C15 1_555 1_555
C15 C16 1_555 1_555
C17 C16 1_555 1_555
H10 C17 1_555 1_555
C18 C17 1_555 1_555
C19 C18 1_555 1_555
H11 C19 1_555 1_555
C20 C15 1_555 1_555
H12 C20 1_555 1_555
C21 C18 1_555 1_555
C22 C21 1_555 1_555
H13 C22 1_555 1_555
C23 C22 1_555 1_555
H14 C23 1_555 1_555
C24 C23 1_555 1_555
C25 C24 1_555 1_555
H15 C25 1_555 1_555
C26 C21 1_555 1_555
H16 C26 1_555 1_555
O3 C14 1_555 1_555
C27 C28 1_555 1_555
C28 C29 1_555 1_555
C29 H17 1_555 1_555
C30 C29 1_555 1_555
H18 C30 1_555 1_555
C31 C30 1_555 1_555
C32 C31 1_555 1_555
H19 C32 1_555 1_555
C33 C28 1_555 1_555
H20 C33 1_555 1_555
C34 C31 1_555 1_555
C35 C34 1_555 1_555
H21 C35 1_555 1_555
C36 C35 1_555 1_555
H22 C36 1_555 1_555
C37 C36 1_555 1_555
C38 C37 1_555 1_555
H23 C38 1_555 1_555
C39 C34 1_555 1_555
H24 C39 1_555 1_555
O5 C27 1_555 1_555
O6 C27 1_555 1_555
P1 C11 1_555 1_555
O7 P1 1_555 1_555
C40 H25 1_555 1_555
C41 H26 1_555 1_555
H27 C41 1_555 1_555
H28 C41 1_555 1_555
C42 H29 1_555 1_555
H30 C42 1_555 1_555
H31 C42 1_555 1_555
N1 C40 1_555 1_555
O8 C40 1_555 1_555
Eu1 O3 1_555 1_555
O11 Eu1 1_555 1_555
O13 Eu1 1_555 1_555
O14 Eu1 1_555 1_555
Eu3 O7 1_555 1_555
C6 C7 1_555 1_555
C12 C13 1_555 1_555
C19 C20 1_555 1_555
C24 P1 1_555 1_555
C25 C26 1_555 1_555
C32 C33 1_555 1_555
C37 P1 1_555 1_555
C38 C39 1_555 1_555
C41 N1 1_555 1_555
C42 N1 1_555 1_555
O8 Eu1 1_555 1_555
C40_2 H25_2 1_555 1_555
C41_2 H26_2 1_555 1_555
H27_2 C41_2 1_555 1_555
H28_2 C41_2 1_555 1_555
C42_2 H29_2 1_555 1_555
H30_2 C42_2 1_555 1_555
H31_2 C42_2 1_555 1_555
N1_2 C40_2 1_555 1_555
O8_2 C40_2 1_555 1_555
Eu1_2 O3_2 1_555 1_555
O11_2 Eu1_2 1_555 1_555
O13_2 Eu1_2 1_555 1_555
O14_2 Eu1_2 1_555 1_555
C41_2 N1_2 1_555 1_555
C42_2 N1_2 1_555 1_555
O8_2 Eu1_2 1_555 1_555
C1_2 C2_2 1_555 1_555
C2_2 C3_2 1_555 1_555
C3_2 H1_2 1_555 1_555
C4_2 C3_2 1_555 1_555
H2_2 C4_2 1_555 1_555
C5_2 C4_2 1_555 1_555
C6_2 C5_2 1_555 1_555
C7_2 C2_2 1_555 1_555
C8_2 C5_2 1_555 1_555
C9_2 C8_2 1_555 1_555
H5_2 C9_2 1_555 1_555
C10_2 C9_2 1_555 1_555
H6_2 C10_2 1_555 1_555
C11_2 C10_2 1_555 1_555
C12_2 C11_2 1_555 1_555
H7_2 C12_2 1_555 1_555
C13_2 C8_2 1_555 1_555
H8_2 C13_2 1_555 1_555
O1_2 C1_2 1_555 1_555
C14_2 C15_2 1_555 1_555
C15_2 C16_2 1_555 1_555
C17_2 C16_2 1_555 1_555
H10_2 C17_2 1_555 1_555
C18_2 C17_2 1_555 1_555
C19_2 C18_2 1_555 1_555
H11_2 C19_2 1_555 1_555
C20_2 C15_2 1_555 1_555
C21_2 C18_2 1_555 1_555
C22_2 C21_2 1_555 1_555
H13_2 C22_2 1_555 1_555
C23_2 C22_2 1_555 1_555
H14_2 C23_2 1_555 1_555
C24_2 C23_2 1_555 1_555
C25_2 C24_2 1_555 1_555
H15_2 C25_2 1_555 1_555
C26_2 C21_2 1_555 1_555
H16_2 C26_2 1_555 1_555
C27_2 C28_2 1_555 1_555
C28_2 C29_2 1_555 1_555
C30_2 C29_2 1_555 1_555
H18_2 C30_2 1_555 1_555
C31_2 C30_2 1_555 1_555
C32_2 C31_2 1_555 1_555
H19_2 C32_2 1_555 1_555
C33_2 C28_2 1_555 1_555
H20_2 C33_2 1_555 1_555
C34_2 C31_2 1_555 1_555
C35_2 C34_2 1_555 1_555
H21_2 C35_2 1_555 1_555
C36_2 C35_2 1_555 1_555
H22_2 C36_2 1_555 1_555
C37_2 C36_2 1_555 1_555
C38_2 C37_2 1_555 1_555
H23_2 C38_2 1_555 1_555
C39_2 C34_2 1_555 1_555
H24_2 C39_2 1_555 1_555
O5_2 C27_2 1_555 1_555
P1_2 C11_2 1_555 1_555
O7_2 P1_2 1_555 1_555
Eu4 O7_2 1_555 1_555
C6_2 C7_2 1_555 1_555
C12_2 C13_2 1_555 1_555
C19_2 C20_2 1_555 1_555
C24_2 P1_2 1_555 1_555
C25_2 C26_2 1_555 1_555
C32_2 C33_2 1_555 1_555
C37_2 P1_2 1_555 1_555
C38_2 C39_2 1_555 1_555
Eu5_2 O4_2 1_555 1_555
C40_3 H25_3 1_555 1_555
C41_3 H26_3 1_555 1_555
H27_3 C41_3 1_555 1_555
H28_3 C41_3 1_555 1_555
C42_3 H29_3 1_555 1_555
H30_3 C42_3 1_555 1_555
H31_3 C42_3 1_555 1_555
N1_3 C40_3 1_555 1_555
O8_3 C40_3 1_555 1_555
C41_3 N1_3 1_555 1_555
C42_3 N1_3 1_555 1_555
C1_3 C2_3 1_555 1_555
C2_3 C3_3 1_555 1_555
C3_3 H1_3 1_555 1_555
C4_3 C3_3 1_555 1_555
H2_3 C4_3 1_555 1_555
C5_3 C4_3 1_555 1_555
C6_3 C5_3 1_555 1_555
H3_3 C6_3 1_555 1_555
C7_3 C2_3 1_555 1_555
H4_3 C7_3 1_555 1_555
C8_3 C5_3 1_555 1_555
C9_3 C8_3 1_555 1_555
H5_3 C9_3 1_555 1_555
C10_3 C9_3 1_555 1_555
H6_3 C10_3 1_555 1_555
C11_3 C10_3 1_555 1_555
C12_3 C11_3 1_555 1_555
H7_3 C12_3 1_555 1_555
C13_3 C8_3 1_555 1_555
H8_3 C13_3 1_555 1_555
O9_2 C1_3 1_555 1_555
O10_2 C1_3 1_555 1_555
C14_3 C15_3 1_555 1_555
C15_3 C16_3 1_555 1_555
C17_3 C16_3 1_555 1_555
H10_3 C17_3 1_555 1_555
C18_3 C17_3 1_555 1_555
C19_3 C18_3 1_555 1_555
H11_3 C19_3 1_555 1_555
C20_3 C15_3 1_555 1_555
H12_3 C20_3 1_555 1_555
C21_3 C18_3 1_555 1_555
C22_3 C21_3 1_555 1_555
H13_3 C22_3 1_555 1_555
C23_3 C22_3 1_555 1_555
H14_3 C23_3 1_555 1_555
C24_3 C23_3 1_555 1_555
C25_3 C24_3 1_555 1_555
H15_3 C25_3 1_555 1_555
C26_3 C21_3 1_555 1_555
H16_3 C26_3 1_555 1_555
O3_3 C14_3 1_555 1_555
C27_3 C28_3 1_555 1_555
C28_3 C29_3 1_555 1_555
C29_3 H17_3 1_555 1_555
C30_3 C29_3 1_555 1_555
H18_3 C30_3 1_555 1_555
C31_3 C30_3 1_555 1_555
C32_3 C31_3 1_555 1_555
H19_3 C32_3 1_555 1_555
C33_3 C28_3 1_555 1_555
H20_3 C33_3 1_555 1_555
C34_3 C31_3 1_555 1_555
C35_3 C34_3 1_555 1_555
H21_3 C35_3 1_555 1_555
C36_3 C35_3 1_555 1_555
H22_3 C36_3 1_555 1_555
C37_3 C36_3 1_555 1_555
C38_3 C37_3 1_555 1_555
H23_3 C38_3 1_555 1_555
C39_3 C34_3 1_555 1_555
H24_3 C39_3 1_555 1_555
O12 C27_3 1_555 1_555
O6_3 C27_3 1_555 1_555
P1_3 C11_3 1_555 1_555
O14 P1_3 1_555 1_555
Eu3 O3_3 1_555 1_555
Eu5 O6_3 1_555 1_555
C6_3 C7_3 1_555 1_555
C12_3 C13_3 1_555 1_555
C19_3 C20_3 1_555 1_555
C24_3 P1_3 1_555 1_555
C25_3 C26_3 1_555 1_555
C32_3 C33_3 1_555 1_555
C37_3 P1_3 1_555 1_555
C38_3 C39_3 1_555 1_555
C1_4 C2_4 1_555 1_555
C2_4 C3_4 1_555 1_555
C3_4 H1_4 1_555 1_555
C4_4 C3_4 1_555 1_555
H2_4 C4_4 1_555 1_555
C5_4 C4_4 1_555 1_555
C6_4 C5_4 1_555 1_555
H3_4 C6_4 1_555 1_555
C7_4 C2_4 1_555 1_555
H4_4 C7_4 1_555 1_555
C8_4 C5_4 1_555 1_555
C9_4 C8_4 1_555 1_555
H5_4 C9_4 1_555 1_555
C10_4 C9_4 1_555 1_555
H6_4 C10_4 1_555 1_555
C11_4 C10_4 1_555 1_555
C12_4 C11_4 1_555 1_555
H7_4 C12_4 1_555 1_555
C13_4 C8_4 1_555 1_555
H8_4 C13_4 1_555 1_555
O9 C1_4 1_555 1_555
O10 C1_4 1_555 1_555
C14_4 C15_4 1_555 1_555
C15_4 C16_4 1_555 1_555
C17_4 C16_4 1_555 1_555
H10_4 C17_4 1_555 1_555
C18_4 C17_4 1_555 1_555
C19_4 C18_4 1_555 1_555
H11_4 C19_4 1_555 1_555
C20_4 C15_4 1_555 1_555
C21_4 C18_4 1_555 1_555
C22_4 C21_4 1_555 1_555
H13_4 C22_4 1_555 1_555
C23_4 C22_4 1_555 1_555
H14_4 C23_4 1_555 1_555
C24_4 C23_4 1_555 1_555
C25_4 C24_4 1_555 1_555
H15_4 C25_4 1_555 1_555
C26_4 C21_4 1_555 1_555
H16_4 C26_4 1_555 1_555
C27_4 C28_4 1_555 1_555
C28_4 C29_4 1_555 1_555
C30_4 C29_4 1_555 1_555
H18_4 C30_4 1_555 1_555
C31_4 C30_4 1_555 1_555
C32_4 C31_4 1_555 1_555
H19_4 C32_4 1_555 1_555
C33_4 C28_4 1_555 1_555
H20_4 C33_4 1_555 1_555
C34_4 C31_4 1_555 1_555
C35_4 C34_4 1_555 1_555
H21_4 C35_4 1_555 1_555
C36_4 C35_4 1_555 1_555
H22_4 C36_4 1_555 1_555
C37_4 C36_4 1_555 1_555
C38_4 C37_4 1_555 1_555
H23_4 C38_4 1_555 1_555
C39_4 C34_4 1_555 1_555
H24_4 C39_4 1_555 1_555
O12_2 C27_4 1_555 1_555
P1_4 C11_4 1_555 1_555
O14_2 P1_4 1_555 1_555
C6_4 C7_4 1_555 1_555
C12_4 C13_4 1_555 1_555
C19_4 C20_4 1_555 1_555
C24_4 P1_4 1_555 1_555
C25_4 C26_4 1_555 1_555
C32_4 C33_4 1_555 1_555
C37_4 P1_4 1_555 1_555
C38_4 C39_4 1_555 1_555
C40_4 H25_4 1_555 1_555
C41_4 H26_4 1_555 1_555
H27_4 C41_4 1_555 1_555
H28_4 C41_4 1_555 1_555
C42_4 H29_4 1_555 1_555
H30_4 C42_4 1_555 1_555
H31_4 C42_4 1_555 1_555
N1_4 C40_4 1_555 1_555
O8_4 C40_4 1_555 1_555
C41_4 N1_4 1_555 1_555
C42_4 N1_4 1_555 1_555
Eu4 O3_4 1_555 1_555
Eu5_2 O6_4 1_555 1_555
C1_5 C2_5 1_555 1_555
C2_5 C3_5 1_555 1_555
C3_5 H1_5 1_555 1_555
C4_5 C3_5 1_555 1_555
H2_5 C4_5 1_555 1_555
C5_5 C4_5 1_555 1_555
C6_5 C5_5 1_555 1_555
C7_5 C2_5 1_555 1_555
C8_5 C5_5 1_555 1_555
C9_5 C8_5 1_555 1_555
H5_5 C9_5 1_555 1_555
C10_5 C9_5 1_555 1_555
H6_5 C10_5 1_555 1_555
C11_5 C10_5 1_555 1_555
C12_5 C11_5 1_555 1_555
H7_5 C12_5 1_555 1_555
C13_5 C8_5 1_555 1_555
H8_5 C13_5 1_555 1_555
O1_3 C1_5 1_555 1_555
C14_5 C15_5 1_555 1_555
C15_5 C16_5 1_555 1_555
C17_5 C16_5 1_555 1_555
H10_5 C17_5 1_555 1_555
C18_5 C17_5 1_555 1_555
C19_5 C18_5 1_555 1_555
H11_5 C19_5 1_555 1_555
C20_5 C15_5 1_555 1_555
H12_5 C20_5 1_555 1_555
C21_5 C18_5 1_555 1_555
C22_5 C21_5 1_555 1_555
H13_5 C22_5 1_555 1_555
C23_5 C22_5 1_555 1_555
H14_5 C23_5 1_555 1_555
C24_5 C23_5 1_555 1_555
C25_5 C24_5 1_555 1_555
H15_5 C25_5 1_555 1_555
C26_5 C21_5 1_555 1_555
H16_5 C26_5 1_555 1_555
O3_5 C14_5 1_555 1_555
C27_5 C28_5 1_555 1_555
C28_5 C29_5 1_555 1_555
C29_5 H17_5 1_555 1_555
C30_5 C29_5 1_555 1_555
H18_5 C30_5 1_555 1_555
C31_5 C30_5 1_555 1_555
C32_5 C31_5 1_555 1_555
H19_5 C32_5 1_555 1_555
C33_5 C28_5 1_555 1_555
H20_5 C33_5 1_555 1_555
C34_5 C31_5 1_555 1_555
C35_5 C34_5 1_555 1_555
H21_5 C35_5 1_555 1_555
C36_5 C35_5 1_555 1_555
H22_5 C36_5 1_555 1_555
C37_5 C36_5 1_555 1_555
C38_5 C37_5 1_555 1_555
H23_5 C38_5 1_555 1_555
C39_5 C34_5 1_555 1_555
H24_5 C39_5 1_555 1_555
O5_3 C27_5 1_555 1_555
O13_3 C27_5 1_555 1_555
P1_5 C11_5 1_555 1_555
O7_3 P1_5 1_555 1_555
C40_5 H25_5 1_555 1_555
C41_5 H26_5 1_555 1_555
H27_5 C41_5 1_555 1_555
H28_5 C41_5 1_555 1_555
C42_5 H29_5 1_555 1_555
H30_5 C42_5 1_555 1_555
H31_5 C42_5 1_555 1_555
N1_5 C40_5 1_555 1_555
O8_5 C40_5 1_555 1_555
Eu5 O3_5 1_555 1_555
O14_3 Eu5 1_555 1_555
Eu6 O7_3 1_555 1_555
C6_5 C7_5 1_555 1_555
C12_5 C13_5 1_555 1_555
C19_5 C20_5 1_555 1_555
C24_5 P1_5 1_555 1_555
C25_5 C26_5 1_555 1_555
C32_5 C33_5 1_555 1_555
C37_5 P1_5 1_555 1_555
C38_5 C39_5 1_555 1_555
C41_5 N1_5 1_555 1_555
C42_5 N1_5 1_555 1_555
O8_5 Eu5 1_555 1_555
C1_6 C2_6 1_555 1_555
C2_6 C3_6 1_555 1_555
C3_6 H1_6 1_555 1_555
C4_6 C3_6 1_555 1_555
H2_6 C4_6 1_555 1_555
C5_6 C4_6 1_555 1_555
C6_6 C5_6 1_555 1_555
C7_6 C2_6 1_555 1_555
C8_6 C5_6 1_555 1_555
C9_6 C8_6 1_555 1_555
H5_6 C9_6 1_555 1_555
C10_6 C9_6 1_555 1_555
H6_6 C10_6 1_555 1_555
C11_6 C10_6 1_555 1_555
C12_6 C11_6 1_555 1_555
H7_6 C12_6 1_555 1_555
C13_6 C8_6 1_555 1_555
H8_6 C13_6 1_555 1_555
O1_4 C1_6 1_555 1_555
C14_6 C15_6 1_555 1_555
C15_6 C16_6 1_555 1_555
C17_6 C16_6 1_555 1_555
H10_6 C17_6 1_555 1_555
C18_6 C17_6 1_555 1_555
C19_6 C18_6 1_555 1_555
H11_6 C19_6 1_555 1_555
C20_6 C15_6 1_555 1_555
C21_6 C18_6 1_555 1_555
C22_6 C21_6 1_555 1_555
H13_6 C22_6 1_555 1_555
C23_6 C22_6 1_555 1_555
H14_6 C23_6 1_555 1_555
C24_6 C23_6 1_555 1_555
C25_6 C24_6 1_555 1_555
H15_6 C25_6 1_555 1_555
C26_6 C21_6 1_555 1_555
H16_6 C26_6 1_555 1_555
C27_6 C28_6 1_555 1_555
C28_6 C29_6 1_555 1_555
C30_6 C29_6 1_555 1_555
H18_6 C30_6 1_555 1_555
C31_6 C30_6 1_555 1_555
C32_6 C31_6 1_555 1_555
H19_6 C32_6 1_555 1_555
C33_6 C28_6 1_555 1_555
H20_6 C33_6 1_555 1_555
C34_6 C31_6 1_555 1_555
C35_6 C34_6 1_555 1_555
H21_6 C35_6 1_555 1_555
C36_6 C35_6 1_555 1_555
H22_6 C36_6 1_555 1_555
C37_6 C36_6 1_555 1_555
C38_6 C37_6 1_555 1_555
H23_6 C38_6 1_555 1_555
C39_6 C34_6 1_555 1_555
H24_6 C39_6 1_555 1_555
O5_4 C27_6 1_555 1_555
P1_6 C11_6 1_555 1_555
O7_4 P1_6 1_555 1_555
Eu6_2 O7_4 1_555 1_555
C6_6 C7_6 1_555 1_555
C12_6 C13_6 1_555 1_555
C19_6 C20_6 1_555 1_555
C24_6 P1_6 1_555 1_555
C25_6 C26_6 1_555 1_555
C32_6 C33_6 1_555 1_555
C37_6 P1_6 1_555 1_555
C38_6 C39_6 1_555 1_555
C40_6 H25_6 1_555 1_555
C41_6 H26_6 1_555 1_555
H27_6 C41_6 1_555 1_555
H28_6 C41_6 1_555 1_555
C42_6 H29_6 1_555 1_555
H30_6 C42_6 1_555 1_555
H31_6 C42_6 1_555 1_555
N1_6 C40_6 1_555 1_555
O8_6 C40_6 1_555 1_555
Eu5_2 O3_6 1_555 1_555
O14_4 Eu5_2 1_555 1_555
C41_6 N1_6 1_555 1_555
C42_6 N1_6 1_555 1_555
O8_6 Eu5_2 1_555 1_555
C1_7 C2_7 1_555 1_555
C2_7 C3_7 1_555 1_555
C3_7 H1_7 1_555 1_555
C4_7 C3_7 1_555 1_555
H2_7 C4_7 1_555 1_555
C5_7 C4_7 1_555 1_555
C6_7 C5_7 1_555 1_555
H3_7 C6_7 1_555 1_555
C7_7 C2_7 1_555 1_555
H4_7 C7_7 1_555 1_555
C8_7 C5_7 1_555 1_555
C9_7 C8_7 1_555 1_555
H5_7 C9_7 1_555 1_555
C10_7 C9_7 1_555 1_555
H6_7 C10_7 1_555 1_555
C11_7 C10_7 1_555 1_555
C12_7 C11_7 1_555 1_555
H7_7 C12_7 1_555 1_555
C13_7 C8_7 1_555 1_555
H8_7 C13_7 1_555 1_555
O9_4 C1_7 1_555 1_555
O10_4 C1_7 1_555 1_555
C14_7 C15_7 1_555 1_555
C15_7 C16_7 1_555 1_555
C17_7 C16_7 1_555 1_555
H10_7 C17_7 1_555 1_555
C18_7 C17_7 1_555 1_555
C19_7 C18_7 1_555 1_555
H11_7 C19_7 1_555 1_555
C20_7 C15_7 1_555 1_555
H12_7 C20_7 1_555 1_555
C21_7 C18_7 1_555 1_555
C22_7 C21_7 1_555 1_555
H13_7 C22_7 1_555 1_555
C23_7 C22_7 1_555 1_555
H14_7 C23_7 1_555 1_555
C24_7 C23_7 1_555 1_555
C25_7 C24_7 1_555 1_555
H15_7 C25_7 1_555 1_555
C26_7 C21_7 1_555 1_555
H16_7 C26_7 1_555 1_555
O3_7 C14_7 1_555 1_555
C27_7 C28_7 1_555 1_555
C28_7 C29_7 1_555 1_555
C29_7 H17_7 1_555 1_555
C30_7 C29_7 1_555 1_555
H18_7 C30_7 1_555 1_555
C31_7 C30_7 1_555 1_555
C32_7 C31_7 1_555 1_555
H19_7 C32_7 1_555 1_555
C33_7 C28_7 1_555 1_555
H20_7 C33_7 1_555 1_555
C34_7 C31_7 1_555 1_555
C35_7 C34_7 1_555 1_555
H21_7 C35_7 1_555 1_555
C36_7 C35_7 1_555 1_555
H22_7 C36_7 1_555 1_555
C37_7 C36_7 1_555 1_555
C38_7 C37_7 1_555 1_555
H23_7 C38_7 1_555 1_555
C39_7 C34_7 1_555 1_555
H24_7 C39_7 1_555 1_555
O12_3 C27_7 1_555 1_555
O13 C27_7 1_555 1_555
P1_7 C11_7 1_555 1_555
O14_3 P1_7 1_555 1_555
Eu6 O3_7 1_555 1_555
C6_7 C7_7 1_555 1_555
C12_7 C13_7 1_555 1_555
C19_7 C20_7 1_555 1_555
C24_7 P1_7 1_555 1_555
C25_7 C26_7 1_555 1_555
C32_7 C33_7 1_555 1_555
C37_7 P1_7 1_555 1_555
C38_7 C39_7 1_555 1_555
C40_7 H25_7 1_555 1_555
C41_7 H26_7 1_555 1_555
H27_7 C41_7 1_555 1_555
H28_7 C41_7 1_555 1_555
C42_7 H29_7 1_555 1_555
H30_7 C42_7 1_555 1_555
H31_7 C42_7 1_555 1_555
N1_7 C40_7 1_555 1_555
O8_7 C40_7 1_555 1_555
C41_7 N1_7 1_555 1_555
C42_7 N1_7 1_555 1_555
Eu6_2 O3_8 1_555 1_555
C40_8 H25_8 1_555 1_555
C41_8 H26_8 1_555 1_555
H27_8 C41_8 1_555 1_555
H28_8 C41_8 1_555 1_555
C42_8 H29_8 1_555 1_555
H30_8 C42_8 1_555 1_555
H31_8 C42_8 1_555 1_555
N1_8 C40_8 1_555 1_555
O8_8 C40_8 1_555 1_555
C41_8 N1_8 1_555 1_555
C42_8 N1_8 1_555 1_555
C1_8 C2_8 1_555 1_555
C2_8 C3_8 1_555 1_555
C3_8 H1_8 1_555 1_555
C4_8 C3_8 1_555 1_555
H2_8 C4_8 1_555 1_555
C5_8 C4_8 1_555 1_555
C6_8 C5_8 1_555 1_555
H3_8 C6_8 1_555 1_555
C7_8 C2_8 1_555 1_555
H4_8 C7_8 1_555 1_555
C8_8 C5_8 1_555 1_555
C9_8 C8_8 1_555 1_555
H5_8 C9_8 1_555 1_555
C10_8 C9_8 1_555 1_555
H6_8 C10_8 1_555 1_555
C11_8 C10_8 1_555 1_555
C12_8 C11_8 1_555 1_555
H7_8 C12_8 1_555 1_555
C13_8 C8_8 1_555 1_555
H8_8 C13_8 1_555 1_555
O9_3 C1_8 1_555 1_555
O10_3 C1_8 1_555 1_555
C14_8 C15_8 1_555 1_555
C15_8 C16_8 1_555 1_555
C17_8 C16_8 1_555 1_555
H10_8 C17_8 1_555 1_555
C18_8 C17_8 1_555 1_555
C19_8 C18_8 1_555 1_555
H11_8 C19_8 1_555 1_555
C20_8 C15_8 1_555 1_555
C21_8 C18_8 1_555 1_555
C22_8 C21_8 1_555 1_555
H13_8 C22_8 1_555 1_555
C23_8 C22_8 1_555 1_555
H14_8 C23_8 1_555 1_555
C24_8 C23_8 1_555 1_555
C25_8 C24_8 1_555 1_555
H15_8 C25_8 1_555 1_555
C26_8 C21_8 1_555 1_555
H16_8 C26_8 1_555 1_555
C27_8 C28_8 1_555 1_555
C28_8 C29_8 1_555 1_555
C30_8 C29_8 1_555 1_555
H18_8 C30_8 1_555 1_555
C31_8 C30_8 1_555 1_555
C32_8 C31_8 1_555 1_555
H19_8 C32_8 1_555 1_555
C33_8 C28_8 1_555 1_555
H20_8 C33_8 1_555 1_555
C34_8 C31_8 1_555 1_555
C35_8 C34_8 1_555 1_555
H21_8 C35_8 1_555 1_555
C36_8 C35_8 1_555 1_555
H22_8 C36_8 1_555 1_555
C37_8 C36_8 1_555 1_555
C38_8 C37_8 1_555 1_555
H23_8 C38_8 1_555 1_555
C39_8 C34_8 1_555 1_555
H24_8 C39_8 1_555 1_555
O12_4 C27_8 1_555 1_555
P1_8 C11_8 1_555 1_555
O14_4 P1_8 1_555 1_555
C6_8 C7_8 1_555 1_555
C12_8 C13_8 1_555 1_555
C19_8 C20_8 1_555 1_555
C24_8 P1_8 1_555 1_555
C25_8 C26_8 1_555 1_555
C32_8 C33_8 1_555 1_555
C37_8 P1_8 1_555 1_555
C38_8 C39_8 1_555 1_555

#END
