
###############################################################################
#
# This file contains modified crystal structure data generated from the
# MOF subset of the Cambridge Structural Database (CSD) v543 
# hosted by the Cambridge Crystallographic Data Centre (CCDC).
#
# This work is licensed under the Creative Commons
# Attribution-NonCommercial-ShareAlike 4.0 International License.
# To view a copy of this license, visit
# http://creativecommons.org/licenses/by-nc-sa/4.0/
# or send a letter to
# Creative Commons, PO Box 1866, Mountain View, CA 94042, USA.
#
# CIF created using the CSD Python API on 29 September 2022
# The structure has been converted into the P1 space group
# The structure has a 3D framework
# The original CSD entry XAXQEU is in the triclinic crystal system
# The framework has been calculated to contain at least 10.0% void space
# The void calculation uses a probe of radius 1.32A, grid spacing 0.4
#
###############################################################################

data_XAXQEU
_chemical_formula_moiety         '(C16 H20 In5 O10)n'
_symmetry_cell_setting           triclinic
_symmetry_space_group_name_H-M   'P 1'
_symmetry_Int_Tables_number      1
_space_group_name_Hall           'P 1'
loop_
_symmetry_equiv_pos_site_id
_symmetry_equiv_pos_as_xyz
1 x,y,z
_cell_length_a                   7.1622(14)
_cell_length_b                   9.094(2)
_cell_length_c                   9.749(3)
_cell_angle_alpha                105.663(14)
_cell_angle_beta                 103.181(14)
_cell_angle_gamma                98.248(14)
_cell_volume                     580.886
loop_
_atom_site_label
_atom_site_type_symbol
_atom_site_fract_x
_atom_site_fract_y
_atom_site_fract_z
In3 In -0.0000 0.5000 -0.0000
In3_2 In 0.0000 0.5000 1.0000
In3_3 In 1.0000 0.5000 -0.0000
In5 In 0.5000 0.5000 -0.0000
H11 H 0.508(4) 0.013(3) 0.709(3)
C9 C 0.7088(4) 0.0313(4) 0.5813(3)
H12 H 0.7671 0.1141 0.5487
H13 H 0.8129 0.0079 0.6496
In3_4 In 1.0000 0.5000 1.0000
In5_2 In 0.5000 0.5000 1.0000
O8 O 0.5327(3) 0.2762(2) 0.8699(2)
O12 O 0.8213(3) 0.2988(2) 0.8188(2)
C14 C 0.6463(4) 0.2315(3) 0.7927(3)
C15 C 0.5592(4) 0.0868(3) 0.6605(3)
C16 C 0.3884(4) 0.1147(4) 0.5527(3)
H18 H 0.2916 0.1451 0.6037
H19 H 0.4356 0.2001 0.5188
H1 H 0.492(4) 0.987(3) 0.291(3)
C1 C 0.2912(4) 0.9687(4) 0.4187(3)
H2 H 0.2329 0.8859 0.4513
H3 H 0.1871 0.9921 0.3504
O1 O 0.2336(2) 0.3854(2) 0.0145(2)
O2 O 0.4673(3) 0.7238(2) 0.1301(2)
O4 O 0.1787(3) 0.7012(2) 0.1812(2)
C6 C 0.3537(4) 0.7685(3) 0.2073(3)
C7 C 0.4408(4) 0.9132(3) 0.3395(3)
C8 C 0.6116(4) 0.8853(4) 0.4473(3)
H8 H 0.7084 0.8549 0.3963
H9 H 0.5644 0.7999 0.4812
O11 O 0.6436(3) 0.4644(3) 0.2036(2)
O3 O 0.3564(3) 0.5356(3) 0.7964(2)
O5 O 0.0779(3) 0.5959(2) 0.8356(2)
C3 C 0.1582(4) 0.6230(4) 0.6176(3)
C5 C 0.1990(4) 0.5803(3) 0.7596(3)
H10 H 0.241(4) 0.723(3) 0.654(3)
C10 C 0.0498(4) 0.3526(4) 0.4331(3)
H14 H 0.0792 0.2825 0.3503
H15 H 0.0565 0.3032 0.5102
O7 O 0.7664(2) 0.6146(2) 0.9855(2)
C12 C 0.2025(4) 0.5040(4) 0.4918(3)
H16 H 0.2065 0.5477 0.4118
H17 H 0.3307 0.4831 0.5277
O15 O 0.9221(3) 0.4041(2) 0.1644(2)
C2 C 0.9502(4) 0.6474(4) 0.5669(3)
H4 H 0.9208 0.7175 0.6497
H5 H 0.9435 0.6968 0.4898
C4 C 0.7975(4) 0.4960(4) 0.5082(3)
H6 H 0.7935 0.4523 0.5882
H7 H 0.6693 0.5169 0.4723
C11 C 0.8418(4) 0.3770(4) 0.3824(3)
C13 C 0.8010(4) 0.4197(3) 0.2404(3)
H20 H 0.759(4) 0.277(3) 0.346(3)
loop_
_geom_bond_atom_site_label_1
_geom_bond_atom_site_label_2
_geom_bond_site_symmetry_1
_geom_bond_site_symmetry_2
H11 C15 1_555 1_555
H12 C9 1_555 1_555
H13 C9 1_555 1_555
In3_4 O12 1_555 1_555
In5_2 O8 1_555 1_555
O8 C14 1_555 1_555
O12 C14 1_555 1_555
C14 C15 1_555 1_555
C15 C9 1_555 1_555
H18 C16 1_555 1_555
H19 C16 1_555 1_555
C15 C16 1_555 1_555
H1 C7 1_555 1_555
C1 H2 1_555 1_555
H3 C1 1_555 1_555
In3 O1 1_555 1_555
In5 O1 1_555 1_555
O2 In5 1_555 1_555
O4 In3 1_555 1_555
C6 O2 1_555 1_555
C7 C1 1_555 1_555
C8 C7 1_555 1_555
H8 C8 1_555 1_555
H9 C8 1_555 1_555
O11 In5 1_555 1_555
O4 C6 1_555 1_555
C6 C7 1_555 1_555
O3 In5_2 1_555 1_555
O5 In3_2 1_555 1_555
C5 O3 1_555 1_555
H10 C3 1_555 1_555
C10 H14 1_555 1_555
H15 C10 1_555 1_555
O7 In5_2 1_555 1_555
C12 C3 1_555 1_555
H16 C12 1_555 1_555
H17 C12 1_555 1_555
O5 C5 1_555 1_555
C3 C5 1_555 1_555
C10 C12 1_555 1_555
O15 In3_3 1_555 1_555
C2 H4 1_555 1_555
H5 C2 1_555 1_555
C4 C2 1_555 1_555
H6 C4 1_555 1_555
H7 C4 1_555 1_555
O7 In3_4 1_555 1_555
O11 C13 1_555 1_555
O15 C13 1_555 1_555
C11 C4 1_555 1_555
C13 C11 1_555 1_555
H20 C11 1_555 1_555

#END
