
###############################################################################
#
# This file contains modified crystal structure data generated from the
# MOF subset of the Cambridge Structural Database (CSD) v543 
# hosted by the Cambridge Crystallographic Data Centre (CCDC).
#
# This work is licensed under the Creative Commons
# Attribution-NonCommercial-ShareAlike 4.0 International License.
# To view a copy of this license, visit
# http://creativecommons.org/licenses/by-nc-sa/4.0/
# or send a letter to
# Creative Commons, PO Box 1866, Mountain View, CA 94042, USA.
#
# CIF created using the CSD Python API on 29 September 2022
# The structure has been converted into the P1 space group
# The structure has a 3D framework
# The original CSD entry XAXVEA is in the tetragonal crystal system
# The original CSD entry XAXVEA is in a Sohncke space group
# The framework has been calculated to contain at least 10.0% void space
# The void calculation uses a probe of radius 1.32A, grid spacing 0.4
#
###############################################################################

data_XAXVEA
_chemical_formula_moiety         '(C96 H64 Co5 Fe8 N16 O48)n'
_symmetry_cell_setting           triclinic
_symmetry_space_group_name_H-M   'P 1'
_symmetry_Int_Tables_number      1
_space_group_name_Hall           'P 1'
loop_
_symmetry_equiv_pos_site_id
_symmetry_equiv_pos_as_xyz
1 x,y,z
_cell_length_a                   15.0787(3)
_cell_length_b                   15.0787(3)
_cell_length_c                   21.4762(7)
_cell_angle_alpha                90
_cell_angle_beta                 90
_cell_angle_gamma                90
_cell_volume                     4882.98
loop_
_atom_site_label
_atom_site_type_symbol
_atom_site_fract_x
_atom_site_fract_y
_atom_site_fract_z
O9 O 0.0348(4) 0.2189(5) 0.6119(3)
O11 O 0.0760(4) 0.2056(8) 0.5134(4)
C17 C 0.0199(6) 0.2086(8) 0.5558(5)
Co3 Co 0.20892(7) 0.20892(7) 0.5000
Fe6 Fe 0.15904(8) 0.23280(8) 0.64911(6)
O3 O 0.2189(5) 0.0348(4) 0.3881(3)
O5 O 0.2056(8) 0.0760(4) 0.4866(4)
C5 C 0.2086(8) 0.0199(6) 0.4442(5)
Fe3 Fe 0.23280(8) 0.15904(8) 0.35089(6)
O1 O 0.1580(5) 0.3606(4) 0.6130(3)
O2 O 0.1854(4) 0.2301(4) 0.4143(3)
N1 N 0.2216(5) 0.7715(5) 0.4516(3)
O4 O 0.2096(7) 0.3408(4) 0.5162(3)
N2 N 0.2091(5) 0.6032(5) 0.4819(3)
C1 C 0.2257(7) 0.8547(6) 0.4321(4)
H1 H 0.2485 0.8657 0.3915
C2 C 0.1833(7) 0.3861(7) 0.5615(5)
C3 C 0.2074(7) 0.5176(6) 0.4948(5)
H2 H 0.2253 0.4773 0.4632
C4 C 0.1816(8) 0.4835(6) 0.5507(5)
C6 C 0.1993(8) 0.9246(6) 0.4665(5)
C7 C 0.1834(9) 0.6605(7) 0.5247(5)
C8 C 0.1858(9) 0.7560(6) 0.5076(5)
C9 C 0.1538(11) 0.5426(8) 0.5943(5)
H3 H 0.1308 0.5217 0.6328
C10 C 0.1666(13) 0.9089(9) 0.5255(7)
H4 H 0.1520 0.9568 0.5523
C11 C 0.1584(14) 0.6334(8) 0.5833(6)
H5 H 0.1448 0.6750 0.6151
C12 C 0.1556(13) 0.8231(8) 0.5446(6)
H6 H 0.1274 0.8104 0.5832
O6 O 0.1201(6) 0.1501(7) 0.3035(4)
H7 H 0.0612 0.1745 0.3155
H8 H 0.1100 0.1204 0.2629
O7 O 0.3606(4) 0.1580(5) 0.3870(3)
O8 O 0.2301(4) 0.1854(4) 0.5857(3)
N3 N 0.7715(5) 0.2216(5) 0.5484(3)
O10 O 0.3408(4) 0.2096(7) 0.4838(3)
N4 N 0.6032(5) 0.2091(5) 0.5181(3)
C13 C 0.8547(6) 0.2257(7) 0.5679(4)
H9 H 0.8657 0.2485 0.6085
C14 C 0.3861(7) 0.1833(7) 0.4385(5)
C15 C 0.5176(6) 0.2074(7) 0.5052(5)
H10 H 0.4773 0.2253 0.5368
C16 C 0.4835(6) 0.1816(8) 0.4493(5)
C18 C 0.9246(6) 0.1993(8) 0.5335(5)
C19 C 0.6605(7) 0.1834(9) 0.4753(5)
C20 C 0.7560(6) 0.1858(9) 0.4924(5)
C21 C 0.5426(8) 0.1538(11) 0.4057(5)
H11 H 0.5217 0.1308 0.3672
C22 C 0.9089(9) 0.1666(13) 0.4745(7)
H12 H 0.9568 0.1520 0.4477
C23 C 0.6334(8) 0.1584(14) 0.4167(6)
H13 H 0.6750 0.1448 0.3849
C24 C 0.8231(8) 0.1556(13) 0.4554(6)
H14 H 0.8104 0.1274 0.4168
O12 O 0.1501(7) 0.1201(6) 0.6965(4)
H15 H 0.1745 0.0612 0.6845
H16 H 0.1204 0.1100 0.7371
Fe4 Fe 0.65904(8) 0.26720(8) 0.60089(6)
Fe5 Fe 0.26720(8) 0.65904(8) 0.39911(6)
N5 N 0.2715(5) 0.2784(5) 0.7016(3)
N6 N 0.2784(5) 0.2715(5) 0.2984(3)
N7 N 0.1032(5) 0.2909(5) 0.7319(3)
N8 N 0.2909(5) 0.1032(5) 0.2681(3)
O9_2 O 0.2811(5) 0.5348(4) 0.3619(3)
O11_2 O 0.2944(8) 0.5760(4) 0.2634(4)
C13_2 C 0.2743(7) 0.3547(6) 0.3179(4)
H9_2 H 0.2515 0.3657 0.3585
C15_2 C 0.2926(7) 0.0176(6) 0.2552(5)
C17_2 C 0.2914(8) 0.5199(6) 0.3058(5)
C18_2 C 0.3007(8) 0.4246(6) 0.2835(5)
C19_2 C 0.3166(9) 0.1605(7) 0.2253(5)
C20_2 C 0.3142(9) 0.2560(6) 0.2424(5)
C21_2 C 0.3462(11) 0.0426(8) 0.1557(5)
H11_2 H 0.3692 0.0217 0.1172
C22_2 C 0.3334(13) 0.4089(9) 0.2245(7)
H12_2 H 0.3480 0.4568 0.1977
C23_2 C 0.3416(14) 0.1334(8) 0.1667(6)
H13_2 H 0.3552 0.1750 0.1349
C24_2 C 0.3444(13) 0.3231(8) 0.2054(6)
H14_2 H 0.3726 0.3104 0.1668
Co3_2 Co 0.29108(7) 0.70892(7) 0.2500
Fe1 Fe 0.34096(8) 0.73280(8) 0.10089(6)
O1_2 O 0.1394(4) 0.6580(5) 0.3630(3)
O2_2 O 0.2699(4) 0.6854(4) 0.1643(3)
O4_2 O 0.1592(4) 0.7096(7) 0.2662(3)
C2_2 C 0.1139(7) 0.6833(7) 0.3115(5)
H2_2 H 0.0227 0.7253 0.2132
C4_2 C 0.0165(6) 0.6816(8) 0.3007(5)
O6_2 O 0.3499(7) 0.6201(6) 0.0535(4)
H7_2 H 0.3255 0.5612 0.0655
H8_2 H 0.3796 0.6100 0.0129
O7_2 O 0.3420(5) 0.8606(4) 0.1370(3)
O8_2 O 0.3146(4) 0.7301(4) 0.3357(3)
O10_2 O 0.2904(7) 0.8408(4) 0.2338(3)
C14_2 C 0.3167(7) 0.8861(7) 0.1885(5)
H10_2 H 0.2747 0.9773 0.2868
C16_2 C 0.3184(8) 0.9835(6) 0.1993(5)
O12_2 O 0.3799(6) 0.6501(7) 0.4465(4)
H15_2 H 0.4388 0.6745 0.4345
H16_2 H 0.3900 0.6204 0.4871
O13 O 0.4652(4) 0.7189(5) 0.1381(3)
N6_2 N 0.2285(5) 0.7784(5) 0.0484(3)
N8_2 N 0.3968(5) 0.7909(5) 0.0181(3)
O15 O 0.4240(4) 0.7056(8) 0.2366(4)
N1_2 N 0.7285(5) 0.7216(5) 0.2016(3)
N2_2 N 0.8968(5) 0.7091(5) 0.2319(3)
C1_2 C 0.6453(6) 0.7257(7) 0.1821(4)
H1_2 H 0.6343 0.7485 0.1415
C3_2 C 0.9824(6) 0.7074(7) 0.2448(5)
C5_2 C 0.4801(6) 0.7086(8) 0.1942(5)
C6_2 C 0.5754(6) 0.6993(8) 0.2165(5)
C7_2 C 0.8395(7) 0.6834(9) 0.2747(5)
C8_2 C 0.7440(6) 0.6858(9) 0.2576(5)
C9_2 C 0.9574(8) 0.6538(11) 0.3443(5)
H3_2 H 0.9783 0.6308 0.3828
C10_2 C 0.5911(9) 0.6666(13) 0.2755(7)
H4_2 H 0.5432 0.6520 0.3023
C11_2 C 0.8666(8) 0.6584(14) 0.3333(6)
H5_2 H 0.8250 0.6448 0.3651
C12_2 C 0.6769(8) 0.6556(13) 0.2946(6)
H6_2 H 0.6896 0.6274 0.3332
Fe5_2 Fe 0.84096(8) 0.76720(8) 0.14911(6)
Co1 Co 0.79108(7) 0.79108(7) 0.0000
O1_3 O 0.8420(5) 0.6394(4) 0.1130(3)
O4_3 O 0.7904(7) 0.6592(4) 0.0162(3)
C2_3 C 0.8167(7) 0.6139(7) 0.0615(5)
C4_3 C 0.8184(8) 0.5165(6) 0.0507(5)
C7_3 C 0.8166(9) 0.3395(7) 0.0247(5)
C8_3 C 0.8142(9) 0.2440(6) 0.0076(5)
C9_3 C 0.8462(11) 0.4574(8) 0.0943(5)
H3_3 H 0.8692 0.4783 0.1328
C10_3 C 0.8334(13) 0.0911(9) 0.0255(7)
H4_3 H 0.8480 0.0432 0.0523
C11_3 C 0.8416(14) 0.3666(8) 0.0833(6)
H5_3 H 0.8552 0.3250 0.1151
C12_3 C 0.8444(13) 0.1769(8) 0.0446(6)
H6_3 H 0.8726 0.1896 0.0832
O8_3 O 0.7699(4) 0.8146(4) 0.0857(3)
C13_3 C 0.1453(6) 0.7743(7) 0.0679(4)
H9_3 H 0.1343 0.7515 0.1085
C15_3 C 0.4824(6) 0.7926(7) 0.0052(5)
H10_3 H 0.5227 0.7747 0.0368
C18_3 C 0.0754(6) 0.8007(8) 0.0335(5)
O12_3 O 0.8499(7) 0.8799(6) 0.1965(4)
H15_3 H 0.8255 0.9388 0.1845
H16_3 H 0.8796 0.8900 0.2371
O14 O 0.9652(4) 0.7811(5) 0.1119(3)
O16 O 0.9240(4) 0.7944(8) 0.0134(4)
Co1_2 Co 0.79108(7) 0.79108(7) 1.0000
Fe1_2 Fe 0.76720(8) 0.84096(8) 0.85089(6)
O2_3 O 0.8146(4) 0.7699(4) 0.9143(3)
N1_3 N 0.7784(5) 0.2285(5) 0.9516(3)
N2_3 N 0.7909(5) 0.3968(5) 0.9819(3)
C1_3 C 0.7743(7) 0.1453(6) 0.9321(4)
H1_3 H 0.7515 0.1343 0.8915
C3_3 C 0.7926(7) 0.4824(6) 0.9948(5)
H2_3 H 0.7747 0.5227 0.9632
C6_3 C 0.8007(8) 0.0754(6) 0.9665(5)
O6_3 O 0.8799(6) 0.8499(7) 0.8035(4)
H7_3 H 0.9388 0.8255 0.8155
H8_3 H 0.8900 0.8796 0.7629
O7_3 O 0.6394(4) 0.8420(5) 0.8870(3)
O10_3 O 0.6592(4) 0.7904(7) 0.9838(3)
C14_3 C 0.6139(7) 0.8167(7) 0.9385(5)
C16_3 C 0.5165(6) 0.8184(8) 0.9493(5)
C19_3 C 0.3395(7) 0.8166(9) 0.9753(5)
C20_3 C 0.2440(6) 0.8142(9) 0.9924(5)
C21_3 C 0.4574(8) 0.8462(11) 0.9057(5)
H11_3 H 0.4783 0.8692 0.8672
C22_3 C 0.0911(9) 0.8334(13) 0.9745(7)
H12_3 H 0.0432 0.8480 0.9477
C23_3 C 0.3666(8) 0.8416(14) 0.9167(6)
H13_3 H 0.3250 0.8552 0.8849
C24_3 C 0.1769(8) 0.8444(13) 0.9554(6)
H14_3 H 0.1896 0.8726 0.9168
Fe5_3 Fe 0.73280(8) 0.34096(8) 0.89911(6)
O13_2 O 0.7811(5) 0.9652(4) 0.8881(3)
N6_3 N 0.7216(5) 0.7285(5) 0.7984(3)
N8_3 N 0.7091(5) 0.8968(5) 0.7681(3)
O15_2 O 0.7944(8) 0.9240(4) 0.9866(4)
C5_3 C 0.7914(8) 0.9801(6) 0.9442(5)
C17_3 C 0.9801(6) 0.7914(8) 0.0558(5)
O3_2 O 0.5348(4) 0.2811(5) 0.6381(3)
O5_2 O 0.5760(4) 0.2944(8) 0.7366(4)
C1_4 C 0.3547(6) 0.2743(7) 0.6821(4)
H1_4 H 0.3657 0.2515 0.6415
C3_4 C 0.0176(6) 0.2926(7) 0.7448(5)
C5_4 C 0.5199(6) 0.2914(8) 0.6942(5)
C6_4 C 0.4246(6) 0.3007(8) 0.7165(5)
C7_4 C 0.1605(7) 0.3166(9) 0.7747(5)
C8_4 C 0.2560(6) 0.3142(9) 0.7576(5)
C9_4 C 0.0426(8) 0.3462(11) 0.8443(5)
H3_4 H 0.0217 0.3692 0.8828
C10_4 C 0.4089(9) 0.3334(13) 0.7755(7)
H4_4 H 0.4568 0.3480 0.8023
C11_4 C 0.1334(8) 0.3416(14) 0.8333(6)
H5_4 H 0.1750 0.3552 0.8651
C12_4 C 0.3231(8) 0.3444(13) 0.7946(6)
H6_4 H 0.3104 0.3726 0.8332
Co2 Co 0.70892(7) 0.29108(7) 0.7500
O1_4 O 0.8606(4) 0.3420(5) 0.8630(3)
O2_4 O 0.7301(4) 0.3146(4) 0.6643(3)
O4_4 O 0.8408(4) 0.2904(7) 0.7662(3)
C2_4 C 0.8861(7) 0.3167(7) 0.8115(5)
H2_4 H 0.9773 0.2747 0.7132
C4_4 C 0.9835(6) 0.3184(8) 0.8007(5)
O6_4 O 0.6501(7) 0.3799(6) 0.5535(4)
H7_4 H 0.6745 0.4388 0.5655
H8_4 H 0.6204 0.3900 0.5129
O7_4 O 0.6580(5) 0.1394(4) 0.6370(3)
O8_4 O 0.6854(4) 0.2699(4) 0.8357(3)
O10_4 O 0.7096(7) 0.1592(4) 0.7338(3)
C14_4 C 0.6833(7) 0.1139(7) 0.6885(5)
H10_4 H 0.7253 0.0227 0.7868
C16_4 C 0.6816(8) 0.0165(6) 0.6993(5)
O12_4 O 0.6201(6) 0.3499(7) 0.9465(4)
H15_4 H 0.5612 0.3255 0.9345
H16_4 H 0.6100 0.3796 0.9871
O14_2 O 0.7189(5) 0.4652(4) 0.8619(3)
O16_2 O 0.7056(8) 0.4240(4) 0.7634(4)
C13_4 C 0.7257(7) 0.6453(6) 0.8179(4)
H9_4 H 0.7485 0.6343 0.8585
C15_4 C 0.7074(7) 0.9824(6) 0.7552(5)
C17_4 C 0.7086(8) 0.4801(6) 0.8058(5)
C18_4 C 0.6993(8) 0.5754(6) 0.7835(5)
C19_4 C 0.6834(9) 0.8395(7) 0.7253(5)
C20_4 C 0.6858(9) 0.7440(6) 0.7424(5)
C21_4 C 0.6538(11) 0.9574(8) 0.6557(5)
H11_4 H 0.6308 0.9783 0.6172
C22_4 C 0.6666(13) 0.5911(9) 0.7245(7)
H12_4 H 0.6520 0.5432 0.6977
C23_4 C 0.6584(14) 0.8666(8) 0.6667(6)
H13_4 H 0.6448 0.8250 0.6349
C24_4 C 0.6556(13) 0.6769(8) 0.7054(6)
H14_4 H 0.6274 0.6896 0.6668
loop_
_geom_bond_atom_site_label_1
_geom_bond_atom_site_label_2
_geom_bond_site_symmetry_1
_geom_bond_site_symmetry_2
O9 C17 1_555 1_555
O11 C17 1_555 1_555
Co3 O11 1_555 1_555
Fe6 O9 1_555 1_555
O3 C5 1_555 1_555
O5 C5 1_555 1_555
Co3 O5 1_555 1_555
Fe3 O3 1_555 1_555
Co3 O2 1_555 1_555
Fe3 O2 1_555 1_555
O1 C2 1_555 1_555
N1 C1 1_555 1_555
O4 Co3 1_555 1_555
N2 C3 1_555 1_555
C1 H1 1_555 1_555
C2 O4 1_555 1_555
C3 H2 1_555 1_555
C4 C2 1_555 1_555
C6 C1 1_555 1_555
C7 N2 1_555 1_555
C8 N1 1_555 1_555
C9 C4 1_555 1_555
H3 C9 1_555 1_555
C10 C6 1_555 1_555
H4 C10 1_555 1_555
C11 C7 1_555 1_555
H5 C11 1_555 1_555
C12 C8 1_555 1_555
H6 C12 1_555 1_555
O6 Fe3 1_555 1_555
H7 O6 1_555 1_555
H8 O6 1_555 1_555
Fe6 O1 1_555 1_555
O7 Fe3 1_555 1_555
O8 Co3 1_555 1_555
N3 C13 1_555 1_555
O10 Co3 1_555 1_555
N4 C15 1_555 1_555
C13 H9 1_555 1_555
C14 O7 1_555 1_555
C15 H10 1_555 1_555
C16 C14 1_555 1_555
C18 C13 1_555 1_555
C19 N4 1_555 1_555
C20 N3 1_555 1_555
C21 C16 1_555 1_555
H11 C21 1_555 1_555
C22 C18 1_555 1_555
H12 C22 1_555 1_555
C23 C19 1_555 1_555
H13 C23 1_555 1_555
C24 C20 1_555 1_555
H14 C24 1_555 1_555
O12 Fe6 1_555 1_555
H15 O12 1_555 1_555
H16 O12 1_555 1_555
Fe4 N3 1_555 1_555
Fe5 N1 1_555 1_555
N5 Fe6 1_555 1_555
N6 Fe3 1_555 1_555
N7 Fe6 1_555 1_555
N8 Fe3 1_555 1_555
N2 Fe5 1_555 1_555
C3 C4 1_555 1_555
C7 C8 1_555 1_555
C9 C11 1_555 1_555
C10 C12 1_555 1_555
Fe6 O8 1_555 1_555
O10 C14 1_555 1_555
N4 Fe4 1_555 1_555
C15 C16 1_555 1_555
C19 C20 1_555 1_555
C21 C23 1_555 1_555
C22 C24 1_555 1_555
O9_2 C17_2 1_555 1_555
N6 C13_2 1_555 1_555
N8 C15_2 1_555 1_555
O11_2 C17_2 1_555 1_555
C13_2 H9_2 1_555 1_555
C17_2 C18_2 1_555 1_555
C18_2 C13_2 1_555 1_555
C19_2 N8 1_555 1_555
C20_2 N6 1_555 1_555
H11_2 C21_2 1_555 1_555
C22_2 C18_2 1_555 1_555
H12_2 C22_2 1_555 1_555
C23_2 C19_2 1_555 1_555
H13_2 C23_2 1_555 1_555
C24_2 C20_2 1_555 1_555
H14_2 C24_2 1_555 1_555
Co3_2 O11_2 1_555 1_555
Fe5 O9_2 1_555 1_555
C19_2 C20_2 1_555 1_555
C21_2 C23_2 1_555 1_555
C22_2 C24_2 1_555 1_555
Co3_2 O2_2 1_555 1_555
Fe1 O2_2 1_555 1_555
O1_2 C2_2 1_555 1_555
O4_2 Co3_2 1_555 1_555
C2_2 O4_2 1_555 1_555
C4_2 C2_2 1_555 1_555
O6_2 Fe1 1_555 1_555
H7_2 O6_2 1_555 1_555
H8_2 O6_2 1_555 1_555
Fe5 O1_2 1_555 1_555
O7_2 Fe1 1_555 1_555
O8_2 Co3_2 1_555 1_555
O10_2 Co3_2 1_555 1_555
C14_2 O7_2 1_555 1_555
C16_2 C14_2 1_555 1_555
O12_2 Fe5 1_555 1_555
H15_2 O12_2 1_555 1_555
H16_2 O12_2 1_555 1_555
O13 Fe1 1_555 1_555
N6_2 Fe1 1_555 1_555
N8_2 Fe1 1_555 1_555
O15 Co3_2 1_555 1_555
Fe5 O8_2 1_555 1_555
O10_2 C14_2 1_555 1_555
O13 C5_2 1_555 1_555
N1_2 C1_2 1_555 1_555
N2_2 C3_2 1_555 1_555
O15 C5_2 1_555 1_555
C1_2 H1_2 1_555 1_555
C5_2 C6_2 1_555 1_555
C6_2 C1_2 1_555 1_555
C7_2 N2_2 1_555 1_555
C8_2 N1_2 1_555 1_555
H3_2 C9_2 1_555 1_555
C10_2 C6_2 1_555 1_555
H4_2 C10_2 1_555 1_555
C11_2 C7_2 1_555 1_555
H5_2 C11_2 1_555 1_555
C12_2 C8_2 1_555 1_555
H6_2 C12_2 1_555 1_555
Fe5_2 N1_2 1_555 1_555
N2_2 Fe5_2 1_555 1_555
C7_2 C8_2 1_555 1_555
C9_2 C11_2 1_555 1_555
C10_2 C12_2 1_555 1_555
O1_3 C2_3 1_555 1_555
O4_3 Co1 1_555 1_555
C2_3 O4_3 1_555 1_555
C4_3 C2_3 1_555 1_555
C9_3 C4_3 1_555 1_555
H3_3 C9_3 1_555 1_555
H4_3 C10_3 1_555 1_555
C11_3 C7_3 1_555 1_555
H5_3 C11_3 1_555 1_555
C12_3 C8_3 1_555 1_555
H6_3 C12_3 1_555 1_555
Fe5_2 O1_3 1_555 1_555
O8_3 Co1 1_555 1_555
N6_2 C13_3 1_555 1_555
N8_2 C15_3 1_555 1_555
C13_3 H9_3 1_555 1_555
C15_3 H10_3 1_555 1_555
C18_3 C13_3 1_555 1_555
O12_3 Fe5_2 1_555 1_555
H15_3 O12_3 1_555 1_555
H16_3 O12_3 1_555 1_555
O14 Fe5_2 1_555 1_555
O16 Co1 1_555 1_555
C7_3 C8_3 1_555 1_555
C9_3 C11_3 1_555 1_555
C10_3 C12_3 1_555 1_555
Fe5_2 O8_3 1_555 1_555
Co1_2 O2_3 1_555 1_555
Fe1_2 O2_3 1_555 1_555
N1_3 C1_3 1_555 1_555
N2_3 C3_3 1_555 1_555
C1_3 H1_3 1_555 1_555
C3_3 H2_3 1_555 1_555
C6_3 C1_3 1_555 1_555
O6_3 Fe1_2 1_555 1_555
H7_3 O6_3 1_555 1_555
H8_3 O6_3 1_555 1_555
O7_3 Fe1_2 1_555 1_555
O10_3 Co1_2 1_555 1_555
C14_3 O7_3 1_555 1_555
C16_3 C14_3 1_555 1_555
C21_3 C16_3 1_555 1_555
H11_3 C21_3 1_555 1_555
H12_3 C22_3 1_555 1_555
C23_3 C19_3 1_555 1_555
H13_3 C23_3 1_555 1_555
C24_3 C20_3 1_555 1_555
H14_3 C24_3 1_555 1_555
Fe5_3 N1_3 1_555 1_555
O13_2 Fe1_2 1_555 1_555
N6_3 Fe1_2 1_555 1_555
N8_3 Fe1_2 1_555 1_555
O15_2 Co1_2 1_555 1_555
N2_3 Fe5_3 1_555 1_555
O10_3 C14_3 1_555 1_555
C19_3 C20_3 1_555 1_555
C21_3 C23_3 1_555 1_555
C22_3 C24_3 1_555 1_555
O13_2 C5_3 1_555 1_555
O15_2 C5_3 1_555 1_555
O14 C17_3 1_555 1_555
O16 C17_3 1_555 1_555
O3_2 C5_4 1_555 1_555
N5 C1_4 1_555 1_555
N7 C3_4 1_555 1_555
O5_2 C5_4 1_555 1_555
C1_4 H1_4 1_555 1_555
C5_4 C6_4 1_555 1_555
C6_4 C1_4 1_555 1_555
C7_4 N7 1_555 1_555
C8_4 N5 1_555 1_555
H3_4 C9_4 1_555 1_555
C10_4 C6_4 1_555 1_555
H4_4 C10_4 1_555 1_555
C11_4 C7_4 1_555 1_555
H5_4 C11_4 1_555 1_555
C12_4 C8_4 1_555 1_555
H6_4 C12_4 1_555 1_555
Co2 O5_2 1_555 1_555
Fe4 O3_2 1_555 1_555
C7_4 C8_4 1_555 1_555
C9_4 C11_4 1_555 1_555
C10_4 C12_4 1_555 1_555
Co2 O2_4 1_555 1_555
Fe4 O2_4 1_555 1_555
O1_4 C2_4 1_555 1_555
O4_4 Co2 1_555 1_555
C2_4 O4_4 1_555 1_555
C4_4 C2_4 1_555 1_555
O6_4 Fe4 1_555 1_555
H7_4 O6_4 1_555 1_555
H8_4 O6_4 1_555 1_555
Fe5_3 O1_4 1_555 1_555
O7_4 Fe4 1_555 1_555
O8_4 Co2 1_555 1_555
O10_4 Co2 1_555 1_555
C14_4 O7_4 1_555 1_555
C16_4 C14_4 1_555 1_555
O12_4 Fe5_3 1_555 1_555
H15_4 O12_4 1_555 1_555
H16_4 O12_4 1_555 1_555
O14_2 Fe5_3 1_555 1_555
O16_2 Co2 1_555 1_555
Fe5_3 O8_4 1_555 1_555
O10_4 C14_4 1_555 1_555
O14_2 C17_4 1_555 1_555
N6_3 C13_4 1_555 1_555
N8_3 C15_4 1_555 1_555
O16_2 C17_4 1_555 1_555
C13_4 H9_4 1_555 1_555
C17_4 C18_4 1_555 1_555
C18_4 C13_4 1_555 1_555
C19_4 N8_3 1_555 1_555
C20_4 N6_3 1_555 1_555
H11_4 C21_4 1_555 1_555
C22_4 C18_4 1_555 1_555
H12_4 C22_4 1_555 1_555
C23_4 C19_4 1_555 1_555
H13_4 C23_4 1_555 1_555
C24_4 C20_4 1_555 1_555
H14_4 C24_4 1_555 1_555
C19_4 C20_4 1_555 1_555
C21_4 C23_4 1_555 1_555
C22_4 C24_4 1_555 1_555

#END
