
###############################################################################
#
# This file contains modified crystal structure data generated from the
# MOF subset of the Cambridge Structural Database (CSD) v543 
# hosted by the Cambridge Crystallographic Data Centre (CCDC).
#
# This work is licensed under the Creative Commons
# Attribution-NonCommercial-ShareAlike 4.0 International License.
# To view a copy of this license, visit
# http://creativecommons.org/licenses/by-nc-sa/4.0/
# or send a letter to
# Creative Commons, PO Box 1866, Mountain View, CA 94042, USA.
#
# CIF created using the CSD Python API on 29 September 2022
# The structure has been converted into the P1 space group
# The structure has a 3D framework
# The original CSD entry XAYLAN is in the monoclinic crystal system
# The framework has been calculated to contain at least 10.0% void space
# The void calculation uses a probe of radius 1.32A, grid spacing 0.4
#
###############################################################################

data_XAYLAN
_chemical_formula_moiety         '(C48 H32 N8 O16)n'
_symmetry_cell_setting           triclinic
_symmetry_space_group_name_H-M   'P 1'
_symmetry_Int_Tables_number      1
_space_group_name_Hall           'P 1'
loop_
_symmetry_equiv_pos_site_id
_symmetry_equiv_pos_as_xyz
1 x,y,z
_cell_length_a                   10.915(10)
_cell_length_b                   11.321(10)
_cell_length_c                   14.814(12)
_cell_angle_alpha                90
_cell_angle_beta                 109.602(13)
_cell_angle_gamma                90
_cell_volume                     1724.46
loop_
_atom_site_label
_atom_site_type_symbol
_atom_site_fract_x
_atom_site_fract_y
_atom_site_fract_z
Cu2 Cu 0.09580(8) 0.08356(8) 0.52287(7)
Cu4 Cu 0.09580(8) 0.41644(8) 0.02287(7)
O5 O 0.0176(6) 0.6512(6) 0.1016(5)
O7 O 0.0197(6) 0.6534(6) 0.9116(5)
O1 O 0.8197(6) 0.4815(5) 0.0463(5)
N1 N 0.2486(7) 0.2895(7) 0.0586(6)
C1 C 0.3747(9) 0.3293(9) 0.0891(6)
H1 H 0.3994 0.4083 0.0929
N2 N 0.4566(7) 0.2375(6) 0.1124(6)
C2 C 0.5981(9) 0.2414(7) 0.1479(6)
C3 C 0.6636(9) 0.1768(10) 0.2253(7)
H2 H 0.6188 0.1307 0.2559
O2 O 0.9824(6) 0.1512(6) 0.3984(5)
O3 O 0.8196(6) 0.0147(6) 0.3621(5)
C4 C 0.8750(8) 0.1091(8) 0.3474(7)
O4 O 0.9803(6) 0.3466(6) 0.0884(5)
C5 C 0.8718(9) 0.3881(8) 0.0869(7)
C6 C 0.6608(9) 0.3114(9) 0.1004(7)
H3 H 0.6146 0.3550 0.0465
C7 C 0.8634(8) 0.2485(7) 0.2139(6)
H4 H 0.9538 0.2501 0.2370
C8 C 0.8007(9) 0.3137(9) 0.1378(7)
C9 C 0.7998(8) 0.1793(9) 0.2595(7)
C10 C 0.3825(9) 0.1381(11) 0.0966(8)
H5 H 0.4102 0.0600 0.1059
C11 C 0.2506(9) 0.1824(10) 0.0621(8)
C12 C 0.1194(6) 0.1007(5) 0.0317(5)
H6 H 0.0917 0.0900 0.0862
H7 H 0.1379 0.0252 0.0097
Cu1 Cu 0.90420(8) 0.58356(8) 0.97713(7)
H8 H 0.0517 0.1390 0.9813
N3 N 0.7514(7) 0.7105(7) 0.9414(6)
O6 O 0.8196(6) 0.4853(6) 0.8621(5)
Cu5 Cu 0.90420(8) 0.91644(8) 0.47713(7)
N3_2 N 0.2486(7) 0.2105(7) 0.5586(6)
O1_2 O 0.1803(6) 0.9815(5) 0.4537(5)
N1_2 N 0.7514(7) 0.7895(7) 0.4414(6)
C1_2 C 0.6253(9) 0.8293(9) 0.4109(6)
H1_2 H 0.6006 0.9083 0.4071
N2_2 N 0.5434(7) 0.7375(6) 0.3876(6)
C2_2 C 0.4019(9) 0.7414(7) 0.3521(6)
C3_2 C 0.3364(9) 0.6768(10) 0.2747(7)
H2_2 H 0.3812 0.6307 0.2441
O3_2 O 0.1804(6) 0.5147(6) 0.1379(5)
C4_2 C 0.1250(8) 0.6091(8) 0.1526(7)
O4_2 O 0.0197(6) 0.8466(6) 0.4116(5)
C5_2 C 0.1282(9) 0.8881(8) 0.4131(7)
C6_2 C 0.3392(9) 0.8114(9) 0.3996(7)
H3_2 H 0.3854 0.8550 0.4535
C7_2 C 0.1366(8) 0.7485(7) 0.2861(6)
H4_2 H 0.0462 0.7501 0.2630
C8_2 C 0.1993(9) 0.8137(9) 0.3622(7)
C9_2 C 0.2002(8) 0.6793(9) 0.2405(7)
C10_2 C 0.6175(9) 0.6381(11) 0.4034(8)
H5_2 H 0.5898 0.5600 0.3941
C11_2 C 0.7494(9) 0.6824(10) 0.4379(8)
C12_2 C 0.8806(6) 0.6007(5) 0.4683(5)
H6_2 H 0.9083 0.5900 0.4138
H7_2 H 0.8621 0.5252 0.4903
H8_2 H 0.9483 0.6390 0.5187
O6_2 O 0.1804(6) 0.9853(6) 0.6379(5)
O7_2 O 0.9803(6) 0.1534(6) 0.5884(5)
H8_3 H 0.9483 0.8610 0.0187
O1_3 O 0.1803(6) 0.5185(5) 0.9537(5)
C1_3 C 0.6253(9) 0.6707(9) 0.9109(6)
H1_3 H 0.6006 0.5917 0.9071
N2_3 N 0.5434(7) 0.7625(6) 0.8876(6)
C2_3 C 0.4019(9) 0.7586(7) 0.8521(6)
C3_3 C 0.3364(9) 0.8232(10) 0.7747(7)
H2_3 H 0.3812 0.8693 0.7441
O2_2 O 0.0176(6) 0.8488(6) 0.6016(5)
C4_3 C 0.1250(8) 0.8909(8) 0.6526(7)
C5_3 C 0.1282(9) 0.6119(8) 0.9131(7)
C6_3 C 0.3392(9) 0.6886(9) 0.8996(7)
H3_3 H 0.3854 0.6450 0.9535
C7_3 C 0.1366(8) 0.7515(7) 0.7861(6)
H4_3 H 0.0462 0.7499 0.7630
C8_3 C 0.1993(9) 0.6863(9) 0.8622(7)
C9_3 C 0.2002(8) 0.8207(9) 0.7405(7)
C10_3 C 0.6175(9) 0.8619(11) 0.9034(8)
H5_3 H 0.5898 0.9400 0.8941
C11_3 C 0.7494(9) 0.8176(10) 0.9379(8)
C12_3 C 0.8806(6) 0.8993(5) 0.9683(5)
H6_3 H 0.9083 0.9100 0.9138
H7_3 H 0.8621 0.9748 0.9903
O5_2 O 0.9824(6) 0.3488(6) 0.8984(5)
O1_4 O 0.8197(6) 0.0185(5) 0.5463(5)
C1_4 C 0.3747(9) 0.1707(9) 0.5891(6)
H1_4 H 0.3994 0.0917 0.5929
N2_4 N 0.4566(7) 0.2625(6) 0.6124(6)
C2_4 C 0.5981(9) 0.2586(7) 0.6479(6)
C3_4 C 0.6636(9) 0.3232(10) 0.7253(7)
H2_4 H 0.6188 0.3693 0.7559
C4_4 C 0.8750(8) 0.3909(8) 0.8474(7)
C5_4 C 0.8718(9) 0.1119(8) 0.5869(7)
C6_4 C 0.6608(9) 0.1886(9) 0.6004(7)
H3_4 H 0.6146 0.1450 0.5465
C7_4 C 0.8634(8) 0.2515(7) 0.7139(6)
H4_4 H 0.9538 0.2499 0.7370
C8_4 C 0.8007(9) 0.1863(9) 0.6378(7)
C9_4 C 0.7998(8) 0.3207(9) 0.7595(7)
C10_4 C 0.3825(9) 0.3619(11) 0.5966(8)
H5_4 H 0.4102 0.4400 0.6059
C11_4 C 0.2506(9) 0.3176(10) 0.5621(8)
C12_4 C 0.1194(6) 0.3993(5) 0.5317(5)
H6_4 H 0.0917 0.4100 0.5862
H7_4 H 0.1379 0.4748 0.5097
H8_4 H 0.0517 0.3610 0.4813
loop_
_geom_bond_atom_site_label_1
_geom_bond_atom_site_label_2
_geom_bond_site_symmetry_1
_geom_bond_site_symmetry_2
O1 C5 1_555 1_555
N1 C1 1_555 1_555
C1 H1 1_555 1_555
N2 C1 1_555 1_555
C2 N2 1_555 1_555
C3 C2 1_555 1_555
H2 C3 1_555 1_555
O2 C4 1_555 1_555
O3 C4 1_555 1_555
C4 C9 1_555 1_555
O4 C5 1_555 1_555
C5 C8 1_555 1_555
C6 C2 1_555 1_555
H3 C6 1_555 1_555
C7 H4 1_555 1_555
C8 C6 1_555 1_555
C9 C3 1_555 1_555
C10 N2 1_555 1_555
H5 C10 1_555 1_555
C11 N1 1_555 1_555
C12 C11 1_555 1_555
H6 C12 1_555 1_555
H7 C12 1_555 1_555
Cu4 N1 1_555 1_555
C7 C8 1_555 1_555
C7 C9 1_555 1_555
C10 C11 1_555 1_555
N3 Cu1 1_555 1_555
O6 Cu1 1_555 1_555
N3_2 Cu2 1_555 1_555
O1_2 C5_2 1_555 1_555
N1_2 C1_2 1_555 1_555
C1_2 H1_2 1_555 1_555
N2_2 C1_2 1_555 1_555
C2_2 N2_2 1_555 1_555
C3_2 C2_2 1_555 1_555
H2_2 C3_2 1_555 1_555
O5 C4_2 1_555 1_555
O3_2 C4_2 1_555 1_555
C4_2 C9_2 1_555 1_555
O4_2 C5_2 1_555 1_555
C5_2 C8_2 1_555 1_555
C6_2 C2_2 1_555 1_555
H3_2 C6_2 1_555 1_555
C7_2 H4_2 1_555 1_555
C8_2 C6_2 1_555 1_555
C9_2 C3_2 1_555 1_555
C10_2 N2_2 1_555 1_555
H5_2 C10_2 1_555 1_555
C11_2 N1_2 1_555 1_555
C12_2 C11_2 1_555 1_555
H6_2 C12_2 1_555 1_555
H7_2 C12_2 1_555 1_555
H8_2 C12_2 1_555 1_555
Cu5 N1_2 1_555 1_555
Cu4 O3_2 1_555 1_555
C7_2 C8_2 1_555 1_555
C7_2 C9_2 1_555 1_555
C10_2 C11_2 1_555 1_555
O1_3 C5_3 1_555 1_555
N3 C1_3 1_555 1_555
C1_3 H1_3 1_555 1_555
N2_3 C1_3 1_555 1_555
C2_3 N2_3 1_555 1_555
C3_3 C2_3 1_555 1_555
H2_3 C3_3 1_555 1_555
O2_2 C4_3 1_555 1_555
O6_2 C4_3 1_555 1_555
C4_3 C9_3 1_555 1_555
O7 C5_3 1_555 1_555
C5_3 C8_3 1_555 1_555
C6_3 C2_3 1_555 1_555
H3_3 C6_3 1_555 1_555
C7_3 H4_3 1_555 1_555
C8_3 C6_3 1_555 1_555
C9_3 C3_3 1_555 1_555
C10_3 N2_3 1_555 1_555
H5_3 C10_3 1_555 1_555
C11_3 N3 1_555 1_555
C12_3 C11_3 1_555 1_555
H6_3 C12_3 1_555 1_555
H7_3 C12_3 1_555 1_555
C7_3 C8_3 1_555 1_555
C7_3 C9_3 1_555 1_555
C10_3 C11_3 1_555 1_555
O1_4 C5_4 1_555 1_555
N3_2 C1_4 1_555 1_555
C1_4 H1_4 1_555 1_555
N2_4 C1_4 1_555 1_555
C2_4 N2_4 1_555 1_555
C3_4 C2_4 1_555 1_555
H2_4 C3_4 1_555 1_555
O5_2 C4_4 1_555 1_555
O6 C4_4 1_555 1_555
C4_4 C9_4 1_555 1_555
O7_2 C5_4 1_555 1_555
C5_4 C8_4 1_555 1_555
C6_4 C2_4 1_555 1_555
H3_4 C6_4 1_555 1_555
C7_4 H4_4 1_555 1_555
C8_4 C6_4 1_555 1_555
C9_4 C3_4 1_555 1_555
C10_4 N2_4 1_555 1_555
H5_4 C10_4 1_555 1_555
C11_4 N3_2 1_555 1_555
C12_4 C11_4 1_555 1_555
H6_4 C12_4 1_555 1_555
H7_4 C12_4 1_555 1_555
H8_4 C12_4 1_555 1_555
C7_4 C8_4 1_555 1_555
C7_4 C9_4 1_555 1_555
C10_4 C11_4 1_555 1_555

#END
