
###############################################################################
#
# This file contains modified crystal structure data generated from the
# MOF subset of the Cambridge Structural Database (CSD) v543 
# hosted by the Cambridge Crystallographic Data Centre (CCDC).
#
# This work is licensed under the Creative Commons
# Attribution-NonCommercial-ShareAlike 4.0 International License.
# To view a copy of this license, visit
# http://creativecommons.org/licenses/by-nc-sa/4.0/
# or send a letter to
# Creative Commons, PO Box 1866, Mountain View, CA 94042, USA.
#
# CIF created using the CSD Python API on 29 September 2022
# The structure has been converted into the P1 space group
# The structure has a 3D framework
# The original CSD entry XAYMUF is in the tetragonal crystal system
# The original CSD entry XAYMUF is in a Sohncke space group
# The framework has been calculated to contain at least 10.0% void space
# The void calculation uses a probe of radius 1.32A, grid spacing 0.4
# The framework is charged, counterions have been retained in the structure
#
###############################################################################

data_XAYMUF
_chemical_formula_moiety         '(C32 H24 Ag5 F24 N12 P5)n'
_symmetry_cell_setting           triclinic
_symmetry_space_group_name_H-M   'P 1'
_symmetry_Int_Tables_number      1
_space_group_name_Hall           'P 1'
loop_
_symmetry_equiv_pos_site_id
_symmetry_equiv_pos_as_xyz
1 x,y,z
_cell_length_a                   12.828(2)
_cell_length_b                   12.828(2)
_cell_length_c                   11.0200(10)
_cell_angle_alpha                90
_cell_angle_beta                 90
_cell_angle_gamma                90
_cell_volume                     1813.42
loop_
_atom_site_label
_atom_site_type_symbol
_atom_site_fract_x
_atom_site_fract_y
_atom_site_fract_z
Ag1 Ag 0.843200(12) 0.843200(12) 0.0000
N1 N 0.68877(16) 0.78360(16) 0.09686(19)
C1 C 0.64283(19) 0.69916(18) 0.0498(2)
C2 C 0.54677(19) 0.6653(2) 0.0907(2)
H1 H 0.5164 0.6048 0.0558
N2 N 0.49553(17) 0.71631(16) 0.1787(2)
C3 C 0.5402(2) 0.80068(19) 0.2234(2)
H2 H 0.5051 0.8396 0.2843
C4 C 0.63691(18) 0.8337(2) 0.1835(2)
H3 H 0.6672 0.8939 0.2191
N4 N 0.99553(17) 0.78369(16) 0.0713(2)
Ag2 Ag 0.343200(12) 0.656800(12) 0.2500
Ag1_2 Ag 0.843200(12) 0.843200(12) 1.0000
N3 N 0.78360(16) 0.68877(16) 0.90314(19)
C5 C 0.69916(18) 0.64283(19) 0.9502(2)
N5 N 0.78369(16) 0.99553(17) 0.9287(2)
C6 C 0.8337(2) 0.63691(18) 0.8165(2)
C7 C 0.6653(2) 0.54677(19) 0.9093(2)
C8 C 0.80068(19) 0.5402(2) 0.7766(2)
H4 H 0.8939 0.6672 0.7809
H5 H 0.6048 0.5164 0.9442
N6 N 0.71631(16) 0.49553(17) 0.8213(2)
H6 H 0.8396 0.5051 0.7157
Ag3 Ag 0.656800(12) 0.343200(12) 0.7500
Ag1_3 Ag 0.156800(12) 0.156800(12) 0.5000
N1_2 N 0.31123(16) 0.21640(16) 0.59686(19)
C1_2 C 0.35717(19) 0.30084(18) 0.5498(2)
C2_2 C 0.45323(19) 0.3347(2) 0.5907(2)
H1_2 H 0.4836 0.3952 0.5558
N2_2 N 0.50447(17) 0.28369(16) 0.6787(2)
C3_2 C 0.4598(2) 0.19932(19) 0.7234(2)
H2_2 H 0.4949 0.1604 0.7843
C4_2 C 0.36309(18) 0.1663(2) 0.6835(2)
H3_2 H 0.3328 0.1061 0.7191
N3_2 N 0.21640(16) 0.31123(16) 0.40314(19)
N4_2 N 0.00447(17) 0.21631(16) 0.5713(2)
C5_2 C 0.30084(18) 0.35717(19) 0.4502(2)
N5_2 N 0.21631(16) 0.00447(17) 0.4287(2)
C6_2 C 0.1663(2) 0.36309(18) 0.3165(2)
C7_2 C 0.3347(2) 0.45323(19) 0.4093(2)
C8_2 C 0.19932(19) 0.4598(2) 0.2766(2)
H4_2 H 0.1061 0.3328 0.2809
H5_2 H 0.3952 0.4836 0.4442
N6_2 N 0.28369(16) 0.50447(17) 0.3213(2)
H6_2 H 0.1604 0.4949 0.2157
N1_3 N 0.71640(16) 0.18877(16) 0.84686(19)
C1_3 C 0.80084(18) 0.14283(19) 0.7998(2)
C2_3 C 0.8347(2) 0.04677(19) 0.8407(2)
H1_3 H 0.8952 0.0164 0.8058
C3_3 C 0.69932(19) 0.0402(2) 0.9734(2)
C4_3 C 0.6663(2) 0.13691(18) 0.9335(2)
H3_3 H 0.6061 0.1672 0.9691
N3_3 N 0.81123(16) 0.28360(16) 0.65314(19)
C5_3 C 0.85717(19) 0.19916(18) 0.7002(2)
C6_3 C 0.86309(18) 0.3337(2) 0.5665(2)
C7_3 C 0.95323(19) 0.1653(2) 0.6593(2)
C8_3 C 0.9598(2) 0.30068(19) 0.5266(2)
H4_3 H 0.8328 0.3939 0.5309
H5_3 H 0.9836 0.1048 0.6942
H6_3 H 0.9949 0.3396 0.4657
N1_4 N 0.28360(16) 0.81123(16) 0.34686(19)
C1_4 C 0.19916(18) 0.85717(19) 0.2998(2)
C2_4 C 0.1653(2) 0.95323(19) 0.3407(2)
H1_4 H 0.1048 0.9836 0.3058
C3_4 C 0.30068(19) 0.9598(2) 0.4734(2)
H2_3 H 0.3396 0.9949 0.5343
C4_4 C 0.3337(2) 0.86309(18) 0.4335(2)
H3_4 H 0.3939 0.8328 0.4691
N3_4 N 0.18877(16) 0.71640(16) 0.15314(19)
C5_4 C 0.14283(19) 0.80084(18) 0.2002(2)
C6_4 C 0.13691(18) 0.6663(2) 0.0665(2)
C7_4 C 0.04677(19) 0.8347(2) 0.1593(2)
C8_4 C 0.0402(2) 0.69932(19) 0.0266(2)
H4_4 H 0.1672 0.6061 0.0309
H5_4 H 0.0164 0.8952 0.1942
H2_4 H 0.6604 0.0051 0.0343
H6_4 H 0.0051 0.6604 0.9657
P1 P 0.38434(5) 0.38434(5) 0.0000
F1 F 0.33349(19) 0.31348(18) 0.1017(2)
F2 F 0.2985(2) 0.4697(2) 0.0218(2)
F3 F 0.4548(2) 0.43567(18) 0.10123(19)
P1_2 P 0.38434(5) 0.38434(5) 1.0000
F4 F 0.31348(18) 0.33349(19) 0.8983(2)
F5 F 0.4697(2) 0.2985(2) 0.9782(2)
F6 F 0.43567(18) 0.4548(2) 0.89877(19)
P1_3 P 0.61566(5) 0.61566(5) 0.5000
F1_2 F 0.66651(19) 0.68652(18) 0.6017(2)
F2_2 F 0.7015(2) 0.5303(2) 0.5218(2)
F3_2 F 0.5452(2) 0.56433(18) 0.60123(19)
F4_2 F 0.68652(18) 0.66651(19) 0.3983(2)
F5_2 F 0.5303(2) 0.7015(2) 0.4782(2)
F6_2 F 0.56433(18) 0.5452(2) 0.39877(19)
P1_4 P 0.11566(5) 0.88434(5) 0.7500
F1_3 F 0.18652(18) 0.83349(19) 0.8517(2)
F2_3 F 0.0303(2) 0.7985(2) 0.7718(2)
F3_3 F 0.06433(18) 0.9548(2) 0.85123(19)
F4_3 F 0.16651(19) 0.81348(18) 0.6483(2)
F5_3 F 0.2015(2) 0.9697(2) 0.7282(2)
F6_3 F 0.0452(2) 0.93567(18) 0.64877(19)
P1_5 P 0.88434(5) 0.11566(5) 0.2500
F1_4 F 0.81348(18) 0.16651(19) 0.3517(2)
F2_4 F 0.9697(2) 0.2015(2) 0.2718(2)
F3_4 F 0.93567(18) 0.0452(2) 0.35123(19)
F4_4 F 0.83349(19) 0.18652(18) 0.1483(2)
F5_4 F 0.7985(2) 0.0303(2) 0.2282(2)
F6_4 F 0.9548(2) 0.06433(18) 0.14877(19)
loop_
_geom_bond_atom_site_label_1
_geom_bond_atom_site_label_2
_geom_bond_site_symmetry_1
_geom_bond_site_symmetry_2
Ag1 N1 1_555 1_555
N1 C1 1_555 1_555
C1 C2 1_555 1_555
C2 H1 1_555 1_555
N2 C2 1_555 1_555
C3 N2 1_555 1_555
H2 C3 1_555 1_555
C4 N1 1_555 1_555
H3 C4 1_555 1_555
N4 Ag1 1_555 1_555
Ag2 N2 1_555 1_555
C3 C4 1_555 1_555
N3 Ag1_2 1_555 1_555
N5 Ag1_2 1_555 1_555
C6 N3 1_555 1_555
C7 C5 1_555 1_555
C8 C6 1_555 1_555
H4 C6 1_555 1_555
H5 C7 1_555 1_555
N6 C7 1_555 1_555
H6 C8 1_555 1_555
Ag3 N6 1_555 1_555
N3 C5 1_555 1_555
C8 N6 1_555 1_555
Ag1_3 N1_2 1_555 1_555
N1_2 C1_2 1_555 1_555
C1_2 C2_2 1_555 1_555
C2_2 H1_2 1_555 1_555
N2_2 C2_2 1_555 1_555
C3_2 N2_2 1_555 1_555
H2_2 C3_2 1_555 1_555
C4_2 N1_2 1_555 1_555
H3_2 C4_2 1_555 1_555
N3_2 Ag1_3 1_555 1_555
N4_2 Ag1_3 1_555 1_555
C5_2 C1_2 1_555 1_555
N5_2 Ag1_3 1_555 1_555
C6_2 N3_2 1_555 1_555
C7_2 C5_2 1_555 1_555
Ag3 N2_2 1_555 1_555
C8_2 C6_2 1_555 1_555
H4_2 C6_2 1_555 1_555
H5_2 C7_2 1_555 1_555
N6_2 C7_2 1_555 1_555
H6_2 C8_2 1_555 1_555
Ag2 N6_2 1_555 1_555
C3_2 C4_2 1_555 1_555
N3_2 C5_2 1_555 1_555
C8_2 N6_2 1_555 1_555
Ag3 N1_3 1_555 1_555
N1_3 C1_3 1_555 1_555
C1_3 C2_3 1_555 1_555
C2_3 H1_3 1_555 1_555
C4_3 N1_3 1_555 1_555
H3_3 C4_3 1_555 1_555
N3_3 Ag3 1_555 1_555
C5_3 C1_3 1_555 1_555
C6_3 N3_3 1_555 1_555
C7_3 C5_3 1_555 1_555
C8_3 C6_3 1_555 1_555
H4_3 C6_3 1_555 1_555
H5_3 C7_3 1_555 1_555
H6_3 C8_3 1_555 1_555
C3_3 C4_3 1_555 1_555
N3_3 C5_3 1_555 1_555
Ag2 N1_4 1_555 1_555
N1_4 C1_4 1_555 1_555
C1_4 C2_4 1_555 1_555
C2_4 H1_4 1_555 1_555
H2_3 C3_4 1_555 1_555
C4_4 N1_4 1_555 1_555
H3_4 C4_4 1_555 1_555
N3_4 Ag2 1_555 1_555
C5_4 C1_4 1_555 1_555
C6_4 N3_4 1_555 1_555
C7_4 C5_4 1_555 1_555
C8_4 C6_4 1_555 1_555
H4_4 C6_4 1_555 1_555
H5_4 C7_4 1_555 1_555
C3_4 C4_4 1_555 1_555
N3_4 C5_4 1_555 1_555
P1 F1 1_555 1_555
F2 P1 1_555 1_555
F3 P1 1_555 1_555
F4 P1_2 1_555 1_555
F5 P1_2 1_555 1_555
F6 P1_2 1_555 1_555
P1_3 F1_2 1_555 1_555
F2_2 P1_3 1_555 1_555
F3_2 P1_3 1_555 1_555
F4_2 P1_3 1_555 1_555
F5_2 P1_3 1_555 1_555
F6_2 P1_3 1_555 1_555
P1_4 F1_3 1_555 1_555
F2_3 P1_4 1_555 1_555
F3_3 P1_4 1_555 1_555
F4_3 P1_4 1_555 1_555
F5_3 P1_4 1_555 1_555
F6_3 P1_4 1_555 1_555
P1_5 F1_4 1_555 1_555
F2_4 P1_5 1_555 1_555
F3_4 P1_5 1_555 1_555
F4_4 P1_5 1_555 1_555
F5_4 P1_5 1_555 1_555
F6_4 P1_5 1_555 1_555

#END
