
###############################################################################
#
# This file contains modified crystal structure data generated from the
# MOF subset of the Cambridge Structural Database (CSD) v543 
# hosted by the Cambridge Crystallographic Data Centre (CCDC).
#
# This work is licensed under the Creative Commons
# Attribution-NonCommercial-ShareAlike 4.0 International License.
# To view a copy of this license, visit
# http://creativecommons.org/licenses/by-nc-sa/4.0/
# or send a letter to
# Creative Commons, PO Box 1866, Mountain View, CA 94042, USA.
#
# CIF created using the CSD Python API on 29 September 2022
# The structure has been converted into the P1 space group
# The structure has a 3D framework
# The original CSD entry XECJAQ is in the tetragonal crystal system
# The framework has been calculated to contain at least 10.0% void space
# The void calculation uses a probe of radius 1.32A, grid spacing 0.4
#
###############################################################################

data_XECJAQ
_chemical_formula_moiety         '(C40 H32 Br20 Cu8 N28)n'
_symmetry_cell_setting           triclinic
_symmetry_space_group_name_H-M   'P 1'
_symmetry_Int_Tables_number      1
_space_group_name_Hall           'P 1'
loop_
_symmetry_equiv_pos_site_id
_symmetry_equiv_pos_as_xyz
1 x,y,z
_cell_length_a                   15.646(3)
_cell_length_b                   15.646(3)
_cell_length_c                   6.705(3)
_cell_angle_alpha                90
_cell_angle_beta                 90
_cell_angle_gamma                90
_cell_volume                     1641.37
loop_
_atom_site_label
_atom_site_type_symbol
_atom_site_fract_x
_atom_site_fract_y
_atom_site_fract_z
Br2 Br -0.0000 0.38192(15) 0.9971(4)
N2 N -0.0000 0.1693(13) 0.2844(31)
C1 C -0.0000 0.2138(12) 0.4501(33)
C3 C -0.0000 0.3128(11) 0.7761(52)
N3 N 0.0762(6) 0.2369(6) 0.5297(19)
C4 C 0.0749(8) 0.2850(8) 0.6926(20)
H3 H 0.1275(8) 0.3007(8) 0.7531(20)
H4 H 0.0536(42) 0.1669(69) 0.229(22)
Cu3 Cu 0.19073(11) 0.19073(11) 0.4303(3)
Cu1 Cu 0.80927(11) 0.19073(11) 0.4303(3)
Br1 Br 0.79899(8) 0.20101(8) 0.0563(3)
Br2_2 Br 1.0000 0.38192(15) 0.9971(4)
N1 N 0.9238(6) 0.2369(6) 0.5297(19)
N2_2 N 1.0000 0.1693(13) 0.2844(31)
H1 H 0.9464(42) 0.1669(69) 0.229(22)
C1_2 C 1.0000 0.2138(12) 0.4501(33)
C2 C 0.9251(8) 0.2850(8) 0.6926(20)
H2 H 0.8725(8) 0.3007(8) 0.7531(20)
C3_2 C 1.0000 0.3128(11) 0.7761(52)
Br3 Br 0.70101(8) 0.29899(8) 0.5563(3)
N4 N 0.7631(6) 0.0762(6) 0.5297(19)
Cu2 Cu 0.69073(11) 0.30927(11) 0.9303(3)
Br2_3 Br 0.61808(15) -0.0000 0.9971(4)
N2_3 N 0.8307(13) -0.0000 0.2844(31)
C1_3 C 0.7862(12) -0.0000 0.4501(33)
C3_3 C 0.6872(11) -0.0000 0.7761(52)
C4_2 C 0.7150(8) 0.0749(8) 0.6926(20)
H3_2 H 0.6993(8) 0.1275(8) 0.7531(20)
H4_2 H 0.8331(69) 0.0536(42) 0.229(22)
Cu1_2 Cu 0.80927(11) 0.80927(11) 0.4303(3)
Br1_2 Br 0.79899(8) 0.79899(8) 0.0563(3)
Br2_4 Br 0.61808(15) 1.0000 0.9971(4)
N1_2 N 0.7631(6) 0.9238(6) 0.5297(19)
N2_4 N 0.8307(13) 1.0000 0.2844(31)
H1_2 H 0.8331(69) 0.9464(42) 0.229(22)
C1_4 C 0.7862(12) 1.0000 0.4501(33)
C2_2 C 0.7150(8) 0.9251(8) 0.6926(20)
H2_2 H 0.6993(8) 0.8725(8) 0.7531(20)
C3_4 C 0.6872(11) 1.0000 0.7761(52)
Br3_2 Br 0.70101(8) 0.70101(8) 0.5563(3)
N4_2 N 0.9238(6) 0.7631(6) 0.5297(19)
Cu2_2 Cu 0.69073(11) 0.69073(11) 0.9303(3)
Br1_3 Br 0.20101(8) 0.20101(8) 0.0563(3)
Br3_3 Br 0.29899(8) 0.29899(8) 0.5563(3)
N4_3 N 0.2369(6) 0.0762(6) 0.5297(19)
Cu2_3 Cu 0.30927(11) 0.30927(11) 0.9303(3)
Cu1_3 Cu 0.19073(11) 0.80927(11) 0.4303(3)
Br1_4 Br 0.20101(8) 0.79899(8) 0.0563(3)
Br2_5 Br 0.0000 0.61808(15) 0.9971(4)
N1_3 N 0.0762(6) 0.7631(6) 0.5297(19)
N2_5 N -0.0000 0.8307(13) 0.2844(31)
H1_3 H 0.0536(42) 0.8331(69) 0.229(22)
C1_5 C 0.0000 0.7862(12) 0.4501(33)
C2_3 C 0.0749(8) 0.7150(8) 0.6926(20)
H2_3 H 0.1275(8) 0.6993(8) 0.7531(20)
C3_5 C -0.0000 0.6872(11) 0.7761(52)
Br3_4 Br 0.29899(8) 0.70101(8) 0.5563(3)
N4_4 N 0.2369(6) 0.9238(6) 0.5297(19)
Cu2_4 Cu 0.30927(11) 0.69073(11) 0.9303(3)
Br2_6 Br 1.0000 0.61808(15) 0.9971(4)
N2_6 N 1.0000 0.8307(13) 0.2844(31)
C1_6 C 1.0000 0.7862(12) 0.4501(33)
C3_6 C 1.0000 0.6872(11) 0.7761(52)
C4_3 C 0.9251(8) 0.7150(8) 0.6926(20)
H3_3 H 0.8725(8) 0.6993(8) 0.7531(20)
H4_3 H 0.9464(42) 0.8331(69) 0.229(22)
Br2_7 Br 0.38192(15) 0.0000 0.9971(4)
N2_7 N 0.1693(13) 0.0000 0.2844(31)
H1_4 H 0.1669(69) 0.0536(42) 0.229(22)
C1_7 C 0.2138(12) 0.0000 0.4501(33)
C2_4 C 0.2850(8) 0.0749(8) 0.6926(20)
H2_4 H 0.3007(8) 0.1275(8) 0.7531(20)
C3_7 C 0.3128(11) 0.0000 0.7761(52)
Br2_8 Br 0.38192(15) 1.0000 0.9971(4)
N2_8 N 0.1693(13) 1.0000 0.2844(31)
C1_8 C 0.2138(12) 1.0000 0.4501(33)
C3_8 C 0.3128(11) 1.0000 0.7761(52)
C4_4 C 0.2850(8) 0.9251(8) 0.6926(20)
H3_4 H 0.3007(8) 0.8725(8) 0.7531(20)
H4_4 H 0.1669(69) 0.9464(42) 0.229(22)
Br2_9 Br 0.5000 0.88192(15) 0.4971(4)
N1_4 N 0.4238(6) 0.7369(6) 0.0297(19)
C2_5 C 0.4251(8) 0.7850(8) 0.1926(20)
H2_5 H 0.3725(8) 0.8007(8) 0.2531(20)
C3_9 C 0.5000 0.8128(11) 0.2761(52)
N3_2 N 0.5762(6) 0.7369(6) 0.0297(19)
C4_5 C 0.5749(8) 0.7850(8) 0.1926(20)
H3_5 H 0.6275(8) 0.8007(8) 0.2531(20)
N4_5 N 0.2631(6) 0.5762(6) 0.0297(19)
N2_9 N 0.5000 0.6693(13) 0.7844(31)
H1_5 H 0.4464(42) 0.6669(69) 0.729(22)
C1_9 C 0.5000 0.7138(12) 0.9501(33)
H4_5 H 0.5536(42) 0.6669(69) 0.729(22)
Br2_10 Br 0.11808(15) 0.5000 0.4971(4)
N1_5 N 0.2631(6) 0.4238(6) 0.0297(19)
C2_6 C 0.2150(8) 0.4251(8) 0.1926(20)
H2_6 H 0.1993(8) 0.3725(8) 0.2531(20)
C3_10 C 0.1872(11) 0.5000 0.2761(52)
C4_6 C 0.2150(8) 0.5749(8) 0.1926(20)
H3_6 H 0.1993(8) 0.6275(8) 0.2531(20)
N4_6 N 0.4238(6) 0.2631(6) 0.0297(19)
N2_10 N 0.3307(13) 0.5000 0.7844(31)
H1_6 H 0.3331(69) 0.4464(42) 0.729(22)
C1_10 C 0.2862(12) 0.5000 0.9501(33)
H4_6 H 0.3331(69) 0.5536(42) 0.729(22)
N4_7 N 0.7369(6) 0.5762(6) 0.0297(19)
Br2_11 Br 0.5000 0.11808(15) 0.4971(4)
N1_6 N 0.5762(6) 0.2631(6) 0.0297(19)
C2_7 C 0.5749(8) 0.2150(8) 0.1926(20)
H2_7 H 0.6275(8) 0.1993(8) 0.2531(20)
C3_11 C 0.5000 0.1872(11) 0.2761(52)
C4_7 C 0.4251(8) 0.2150(8) 0.1926(20)
H3_7 H 0.3725(8) 0.1993(8) 0.2531(20)
N4_8 N 0.7369(6) 0.4238(6) 0.0297(19)
N2_11 N 0.5000 0.3307(13) 0.7844(31)
H1_7 H 0.5536(42) 0.3331(69) 0.729(22)
C1_11 C 0.5000 0.2862(12) 0.9501(33)
H4_7 H 0.4464(42) 0.3331(69) 0.729(22)
Br2_12 Br 0.88192(15) 0.5000 0.4971(4)
C2_8 C 0.7850(8) 0.5749(8) 0.1926(20)
H2_8 H 0.8007(8) 0.6275(8) 0.2531(20)
C3_12 C 0.8128(11) 0.5000 0.2761(52)
C4_8 C 0.7850(8) 0.4251(8) 0.1926(20)
H3_8 H 0.8007(8) 0.3725(8) 0.2531(20)
N2_12 N 0.6693(13) 0.5000 0.7844(31)
H1_8 H 0.6669(69) 0.5536(42) 0.729(22)
C1_12 C 0.7138(12) 0.5000 0.9501(33)
H4_8 H 0.6669(69) 0.4464(42) 0.729(22)
loop_
_geom_bond_atom_site_label_1
_geom_bond_atom_site_label_2
_geom_bond_site_symmetry_1
_geom_bond_site_symmetry_2
Br2 C3 1_555 1_555
N3 C1 1_555 1_555
C4 C3 1_555 1_555
H3 C4 1_555 1_555
H4 N2 1_555 1_555
Cu3 N3 1_555 1_555
N2 C1 1_555 1_555
N3 C4 1_555 1_555
Cu1 Br1 1_555 1_555
Br2_2 C3_2 1_555 1_555
N1 Cu1 1_555 1_555
N2_2 H1 1_555 1_555
C1_2 N1 1_555 1_555
C2 N1 1_555 1_555
H2 C2 1_555 1_555
C3_2 C2 1_555 1_555
Br3 Cu1 1_555 1_555
N4 Cu1 1_555 1_555
N2_2 C1_2 1_555 1_555
Br2_3 C3_3 1_555 1_555
N4 C1_3 1_555 1_555
C4_2 C3_3 1_555 1_555
H3_2 C4_2 1_555 1_555
H4_2 N2_3 1_555 1_555
N2_3 C1_3 1_555 1_555
N4 C4_2 1_555 1_555
Cu1_2 Br1_2 1_555 1_555
Br2_4 C3_4 1_555 1_555
N1_2 Cu1_2 1_555 1_555
N2_4 H1_2 1_555 1_555
C1_4 N1_2 1_555 1_555
C2_2 N1_2 1_555 1_555
H2_2 C2_2 1_555 1_555
C3_4 C2_2 1_555 1_555
Br3_2 Cu1_2 1_555 1_555
N4_2 Cu1_2 1_555 1_555
N2_4 C1_4 1_555 1_555
Cu3 Br1_3 1_555 1_555
Br3_3 Cu3 1_555 1_555
N4_3 Cu3 1_555 1_555
Cu1_3 Br1_4 1_555 1_555
Br2_5 C3_5 1_555 1_555
N1_3 Cu1_3 1_555 1_555
N2_5 H1_3 1_555 1_555
C1_5 N1_3 1_555 1_555
C2_3 N1_3 1_555 1_555
H2_3 C2_3 1_555 1_555
C3_5 C2_3 1_555 1_555
Br3_4 Cu1_3 1_555 1_555
N4_4 Cu1_3 1_555 1_555
N2_5 C1_5 1_555 1_555
Br2_6 C3_6 1_555 1_555
N4_2 C1_6 1_555 1_555
C4_3 C3_6 1_555 1_555
H3_3 C4_3 1_555 1_555
H4_3 N2_6 1_555 1_555
N2_6 C1_6 1_555 1_555
N4_2 C4_3 1_555 1_555
Br2_7 C3_7 1_555 1_555
N2_7 H1_4 1_555 1_555
C1_7 N4_3 1_555 1_555
C2_4 N4_3 1_555 1_555
H2_4 C2_4 1_555 1_555
C3_7 C2_4 1_555 1_555
N2_7 C1_7 1_555 1_555
Br2_8 C3_8 1_555 1_555
N4_4 C1_8 1_555 1_555
C4_4 C3_8 1_555 1_555
H3_4 C4_4 1_555 1_555
H4_4 N2_8 1_555 1_555
N2_8 C1_8 1_555 1_555
N4_4 C4_4 1_555 1_555
Br2_9 C3_9 1_555 1_555
C2_5 N1_4 1_555 1_555
H2_5 C2_5 1_555 1_555
C3_9 C2_5 1_555 1_555
C4_5 C3_9 1_555 1_555
H3_5 C4_5 1_555 1_555
N3_2 C4_5 1_555 1_555
Cu2_4 Br3_4 1_555 1_555
N2_9 H1_5 1_555 1_555
H4_5 N2_9 1_555 1_555
N2_9 C1_9 1_555 1_555
Br2_10 C3_10 1_555 1_555
C2_6 N1_5 1_555 1_555
H2_6 C2_6 1_555 1_555
C3_10 C2_6 1_555 1_555
C4_6 C3_10 1_555 1_555
H3_6 C4_6 1_555 1_555
N4_5 C4_6 1_555 1_555
Cu2_3 Br3_3 1_555 1_555
N2_10 H1_6 1_555 1_555
H4_6 N2_10 1_555 1_555
N2_10 C1_10 1_555 1_555
Cu2_2 Br3_2 1_555 1_555
Br2_11 C3_11 1_555 1_555
C2_7 N1_6 1_555 1_555
H2_7 C2_7 1_555 1_555
C3_11 C2_7 1_555 1_555
C4_7 C3_11 1_555 1_555
H3_7 C4_7 1_555 1_555
N4_6 C4_7 1_555 1_555
Cu2 Br3 1_555 1_555
N2_11 H1_7 1_555 1_555
H4_7 N2_11 1_555 1_555
N2_11 C1_11 1_555 1_555
Br2_12 C3_12 1_555 1_555
C2_8 N4_7 1_555 1_555
H2_8 C2_8 1_555 1_555
C3_12 C2_8 1_555 1_555
C4_8 C3_12 1_555 1_555
H3_8 C4_8 1_555 1_555
N4_8 C4_8 1_555 1_555
N2_12 H1_8 1_555 1_555
H4_8 N2_12 1_555 1_555
N2_12 C1_12 1_555 1_555

#END
