
###############################################################################
#
# This file contains modified crystal structure data generated from the
# MOF subset of the Cambridge Structural Database (CSD) v543 
# hosted by the Cambridge Crystallographic Data Centre (CCDC).
#
# This work is licensed under the Creative Commons
# Attribution-NonCommercial-ShareAlike 4.0 International License.
# To view a copy of this license, visit
# http://creativecommons.org/licenses/by-nc-sa/4.0/
# or send a letter to
# Creative Commons, PO Box 1866, Mountain View, CA 94042, USA.
#
# CIF created using the CSD Python API on 29 September 2022
# The structure has been converted into the P1 space group
# The structure has a 3D framework
# The original CSD entry XECTUX is in the rhombohedral crystal system
# The framework has been calculated to contain at least 10.0% void space
# The void calculation uses a probe of radius 1.32A, grid spacing 0.4
# The framework is charged, counterions have been retained in the structure
#
###############################################################################

data_XECTUX
_chemical_formula_moiety         '(C507 H648 F72 Fe28 N18 O144 4-)n'
_symmetry_cell_setting           triclinic
_symmetry_space_group_name_H-M   'P 1'
_symmetry_Int_Tables_number      1
_space_group_name_Hall           'P 1'
loop_
_symmetry_equiv_pos_site_id
_symmetry_equiv_pos_as_xyz
1 x,y,z
_cell_length_a                   31.2842(7)
_cell_length_b                   31.2842(7)
_cell_length_c                   19.6429(5)
_cell_angle_alpha                90
_cell_angle_beta                 90
_cell_angle_gamma                120
_cell_volume                     16648.9
loop_
_atom_site_label
_atom_site_type_symbol
_atom_site_fract_x
_atom_site_fract_y
_atom_site_fract_z
C21 C 0.6692(3) 0.0066(4) 0.2067(4)
F7 F 0.6747(2) 0.05285(26) 0.2069(3)
O15 O 0.71609(27) 0.02309(34) 0.3088(3)
C1 C 0.3224(3) 0.5724(3) 0.0000(4)
C2 C 0.3538(3) 0.5905(3) 0.0624(4)
C3 C 0.3700(3) 0.5604(3) 0.0918(4)
C4 C 0.3581(3) 0.5152(3) 0.0658(4)
C5 C 0.3241(3) 0.4959(3) 0.0055(4)
C7 C 0.2881(3) 0.3649(3) 0.1581(4)
C8 C 0.3325(3) 0.3591(3) 0.1574(4)
C9 C 0.3374(2) 0.3308(3) 0.2067(4)
C10 C 0.3041(2) 0.3096(4) 0.2591(4)
C11 C 0.2598(2) 0.3161(4) 0.2610(4)
C12 C 0.2543(3) 0.3431(3) 0.2098(4)
F2 F 0.39914(19) 0.57753(18) 0.1481(3)
F3 F 0.37815(17) 0.3253(2) 0.2069(3)
F4 F 0.21358(17) 0.3482(2) 0.2101(2)
Fe1 Fe 0.34156(4) 0.41788(4) 0.04189(6)
Fe2 Fe 0.3333 0.6667 0.02810(9)
O2 O 0.3628(2) 0.63224(19) 0.0849(3)
O4 O 0.3732(2) 0.4867(2) 0.0883(3)
O5 O 0.2848(2) 0.3897(2) 0.1089(3)
O6 O 0.36355(18) 0.38276(19) 0.1095(3)
O7 O 0.3070(2) 0.28391(27) 0.3088(3)
O8 O 0.23000(19) 0.29591(27) 0.3121(3)
C13 C 0.4276(3) 0.7500(4) 0.0000(4)
C14 C 0.4095(3) 0.7633(4) 0.0624(4)
C15 C 0.4396(3) 0.8096(4) 0.0918(4)
C16 C 0.4848(3) 0.8429(4) 0.0658(4)
C17 C 0.5041(3) 0.8282(4) 0.0055(4)
C19 C 0.6351(3) 0.9232(4) 0.1581(4)
C20 C 0.6409(3) 0.9734(4) 0.1574(4)
C22 C 0.6904(4) 0.9945(4) 0.2591(4)
C23 C 0.6839(4) 0.9437(4) 0.2610(4)
C24 C 0.6569(3) 0.9112(4) 0.2098(4)
F6 F 0.42247(18) 0.82161(26) 0.1481(3)
F8 F 0.6518(2) 0.86538(26) 0.2101(2)
Fe3 Fe 0.58212(4) 0.92368(6) 0.04189(6)
O10 O 0.36776(19) 0.73056(28) 0.0849(3)
O12 O 0.5133(2) 0.8865(3) 0.0883(3)
O13 O 0.6103(2) 0.8951(3) 0.1089(3)
O14 O 0.61724(19) 0.98079(26) 0.1095(3)
O16 O 0.70409(27) 0.93409(33) 0.3121(3)
C25 C 0.2500(4) 0.6776(3) 0.0000(4)
C26 C 0.2367(4) 0.6462(3) 0.0624(4)
C27 C 0.1904(4) 0.6300(3) 0.0918(4)
C28 C 0.1571(4) 0.6419(3) 0.0658(4)
C29 C 0.1718(4) 0.6759(3) 0.0055(4)
C31 C 0.0768(4) 0.7119(3) 0.1581(4)
C32 C 0.0266(4) 0.6675(3) 0.1574(4)
C34 C 0.0055(4) 0.6959(2) 0.2591(4)
C35 C 0.0563(4) 0.7402(2) 0.2610(4)
C36 C 0.0888(4) 0.7457(3) 0.2098(4)
F10 F 0.17839(26) 0.60086(19) 0.1481(3)
F12 F 0.13462(26) 0.78642(17) 0.2101(2)
Fe4 Fe 0.07632(6) 0.65844(4) 0.04189(6)
O18 O 0.26944(28) 0.6372(2) 0.0849(3)
O20 O 0.1135(3) 0.6268(2) 0.0883(3)
O21 O 0.1049(3) 0.7152(2) 0.1089(3)
O22 O 0.01921(26) 0.63645(18) 0.1095(3)
O24 O 0.06591(33) 0.77000(19) 0.3121(3)
Fe5 Fe 0.00823(4) 0.75121(4) 0.37522(6)
Fe6 Fe 0.24879(4) 0.25701(6) 0.37522(6)
Fe7 Fe 0.74299(6) 0.99177(4) 0.37522(6)
C1_2 C 0.3224(3) 0.5724(3) 1.0000(4)
C6 C 0.3083(3) 0.5261(3) 0.9753(4)
F1 F 0.2782(2) 0.50859(19) 0.9203(3)
O1 O 0.3101(2) 0.6023(2) 0.9733(3)
O3 O 0.3112(2) 0.45208(19) 0.9864(3)
C13_2 C 0.4276(3) 0.7500(4) 1.0000(4)
C18 C 0.4739(3) 0.7822(4) 0.9753(4)
F5 F 0.49141(19) 0.76961(28) 0.9203(3)
O9 O 0.3977(2) 0.7078(3) 0.9733(3)
O11 O 0.54792(19) 0.85912(28) 0.9864(3)
C25_2 C 0.2500(4) 0.6776(3) 1.0000(4)
C30 C 0.2178(4) 0.6917(3) 0.9753(4)
F9 F 0.23039(28) 0.7218(2) 0.9203(3)
O17 O 0.2922(3) 0.6899(2) 0.9733(3)
O19 O 0.14088(28) 0.6888(2) 0.9864(3)
O25 O 0.6403(2) 0.95058(27) 0.9755(3)
O26 O 0.04942(27) 0.68976(34) 0.9755(3)
O27 O 0.31024(34) 0.3597(2) 0.9755(3)
O28 O 0.56333(19) 0.96258(27) 0.9788(3)
O29 O 0.03742(27) 0.60076(33) 0.9788(3)
O30 O 0.39924(33) 0.43667(19) 0.9788(3)
C33 C 0.9934(4) 0.6626(2) 0.2067(4)
F11 F 0.94715(26) 0.62185(17) 0.2069(3)
O23 O 0.97691(34) 0.6930(2) 0.3088(3)
C13_3 C 0.0943(3) 0.0833(4) 0.3333(4)
C14_2 C 0.0762(3) 0.0966(4) 0.3957(4)
C15_2 C 0.1063(3) 0.1429(4) 0.4251(4)
C16_2 C 0.1515(3) 0.1762(4) 0.3991(4)
C17_2 C 0.1708(3) 0.1615(4) 0.3388(4)
C18_2 C 0.1406(3) 0.1155(4) 0.3086(4)
C19_2 C 0.3018(3) 0.2565(4) 0.4914(4)
C20_2 C 0.3076(3) 0.3067(4) 0.4907(4)
C21_2 C 0.3359(3) 0.3399(4) 0.5400(4)
C22_2 C 0.3571(4) 0.3278(4) 0.5924(4)
C23_2 C 0.3506(4) 0.2770(4) 0.5943(4)
C24_2 C 0.3236(3) 0.2445(4) 0.5431(4)
F5_2 F 0.15808(19) 0.10294(28) 0.2536(3)
F6_2 F 0.08914(18) 0.15494(26) 0.4814(3)
F7_2 F 0.3414(2) 0.38618(26) 0.5402(3)
F8_2 F 0.3185(2) 0.19871(26) 0.5434(2)
O9_2 O 0.0644(2) 0.0411(3) 0.3066(3)
O10_2 O 0.03443(19) 0.06389(28) 0.4182(3)
O11_2 O 0.21459(19) 0.19245(28) 0.3197(3)
O12_2 O 0.1800(2) 0.2198(3) 0.4216(3)
O13_2 O 0.2770(2) 0.2284(3) 0.4422(3)
O14_2 O 0.28391(19) 0.31412(26) 0.4428(3)
O15_2 O 0.38276(27) 0.35642(34) 0.6421(3)
O16_2 O 0.37076(27) 0.26742(33) 0.6454(3)
Fe7_2 Fe 0.40965(6) 0.32511(4) 0.70856(6)
C2_2 C 0.0205(3) 0.9238(3) 0.3957(4)
C3_2 C 0.0367(3) 0.8937(3) 0.4251(4)
C4_2 C 0.0248(3) 0.8485(3) 0.3991(4)
C9_2 C 0.0041(2) 0.6641(3) 0.5400(4)
F2_2 F 0.06581(19) 0.91086(18) 0.4814(3)
F3_2 F 0.04482(17) 0.6586(2) 0.5402(3)
O2_2 O 0.0295(2) 0.96557(19) 0.4182(3)
O4_2 O 0.0399(2) 0.8200(2) 0.4216(3)
O6_2 O 0.03022(18) 0.71609(19) 0.4428(3)
Fe2_2 Fe 1.0000 0.0000 0.36143(9)
C25_3 C 0.9167(4) 0.0109(3) 0.3333(4)
C29_2 C 0.8385(4) 0.0092(3) 0.3388(4)
C30_2 C 0.8845(4) 0.0250(3) 0.3086(4)
C31_2 C 0.7435(4) 0.0452(3) 0.4914(4)
C32_2 C 0.6933(4) 0.0008(3) 0.4907(4)
C34_2 C 0.6722(4) 0.0292(2) 0.5924(4)
C35_2 C 0.7230(4) 0.0735(2) 0.5943(4)
C36_2 C 0.7555(4) 0.0790(3) 0.5431(4)
F9_2 F 0.89706(28) 0.0551(2) 0.2536(3)
F12_2 F 0.80129(26) 0.11975(17) 0.5434(2)
O17_2 O 0.9589(3) 0.0232(2) 0.3066(3)
O19_2 O 0.80755(28) 0.0221(2) 0.3197(3)
O21_2 O 0.7716(3) 0.0485(2) 0.4422(3)
O23_2 O 0.64358(34) 0.0263(2) 0.6421(3)
O24_2 O 0.73258(33) 0.10333(19) 0.6454(3)
Fe5_2 Fe 0.67489(4) 0.08455(4) 0.70856(6)
C1_3 C 0.9891(3) 0.9057(3) 0.3333(4)
C5_2 C 0.9908(3) 0.8292(3) 0.3388(4)
C6_2 C 0.9750(3) 0.8594(3) 0.3086(4)
C7_2 C 0.9548(3) 0.6982(3) 0.4914(4)
C8_2 C 0.9992(3) 0.6924(3) 0.4907(4)
C10_2 C 0.9708(2) 0.6429(4) 0.5924(4)
C11_2 C 0.9265(2) 0.6494(4) 0.5943(4)
C12_2 C 0.9210(3) 0.6764(3) 0.5431(4)
F1_2 F 0.9449(2) 0.84192(19) 0.2536(3)
F4_2 F 0.88025(17) 0.6815(2) 0.5434(2)
O1_2 O 0.9768(2) 0.9356(2) 0.3066(3)
O3_2 O 0.9779(2) 0.78541(19) 0.3197(3)
O5_2 O 0.9515(2) 0.7230(2) 0.4422(3)
O7_2 O 0.9737(2) 0.61724(27) 0.6421(3)
O8_2 O 0.89667(19) 0.62924(27) 0.6454(3)
C26_2 C 0.9034(4) 0.9795(3) 0.3957(4)
C27_2 C 0.8571(4) 0.9633(3) 0.4251(4)
C28_2 C 0.8238(4) 0.9752(3) 0.3991(4)
C33_2 C 0.6601(4) 0.9959(2) 0.5400(4)
F10_2 F 0.84506(26) 0.93419(19) 0.4814(3)
F11_2 F 0.61382(26) 0.95518(17) 0.5402(3)
O18_2 O 0.93611(28) 0.9705(2) 0.4182(3)
O20_2 O 0.7802(3) 0.9601(2) 0.4216(3)
O22_2 O 0.68588(26) 0.96978(18) 0.4428(3)
Fe6_2 Fe 0.91545(4) 0.59035(6) 0.70856(6)
Fe2_3 Fe 1.0000 0.9999 0.36143(9)
Fe2_4 Fe 0.0001 0.0000 0.36143(9)
C21_3 C 0.0025(3) 0.6733(4) 0.8734(4)
C22_3 C 0.0237(4) 0.6612(4) 0.9258(4)
C23_3 C 0.0172(4) 0.6104(4) 0.9277(4)
F7_3 F 0.0080(2) 0.71952(26) 0.8736(3)
C1_4 C 0.6557(3) 0.2391(3) 0.6667(4)
C2_3 C 0.6871(3) 0.2572(3) 0.7291(4)
C3_3 C 0.7033(3) 0.2271(3) 0.7585(4)
C4_3 C 0.6914(3) 0.1819(3) 0.7325(4)
C5_3 C 0.6574(3) 0.1626(3) 0.6722(4)
C6_3 C 0.6416(3) 0.1928(3) 0.6420(4)
C7_3 C 0.6214(3) 0.0316(3) 0.8248(4)
C8_3 C 0.6658(3) 0.0258(3) 0.8241(4)
C12_3 C 0.5876(3) 0.0098(3) 0.8765(4)
F1_3 F 0.6115(2) 0.17526(19) 0.5870(3)
F2_3 F 0.73247(19) 0.24420(18) 0.8148(3)
F4_3 F 0.54691(17) 0.0149(2) 0.8768(2)
Fe2_5 Fe 0.6666 0.3334 0.69477(9)
O1_3 O 0.6434(2) 0.2690(2) 0.6400(3)
O2_3 O 0.6961(2) 0.29891(19) 0.7516(3)
O3_3 O 0.6445(2) 0.11875(19) 0.6531(3)
O4_3 O 0.7065(2) 0.1534(2) 0.7550(3)
O5_3 O 0.6181(2) 0.0564(2) 0.7756(3)
O6_3 O 0.69688(18) 0.04943(19) 0.7762(3)
C13_4 C 0.7609(3) 0.4167(4) 0.6667(4)
C14_3 C 0.7428(3) 0.4300(4) 0.7291(4)
C15_3 C 0.7729(3) 0.4763(4) 0.7585(4)
C16_3 C 0.8181(3) 0.5096(4) 0.7325(4)
C17_3 C 0.8374(3) 0.4949(4) 0.6722(4)
C18_3 C 0.8072(3) 0.4489(4) 0.6420(4)
C19_3 C 0.9684(3) 0.5899(4) 0.8248(4)
C20_3 C 0.9742(3) 0.6401(4) 0.8241(4)
C24_3 C 0.9902(3) 0.5779(4) 0.8765(4)
F5_3 F 0.82474(19) 0.43628(28) 0.5870(3)
F6_3 F 0.75580(18) 0.48828(26) 0.8148(3)
F8_3 F 0.9851(2) 0.53205(26) 0.8768(2)
O9_3 O 0.7310(2) 0.3745(3) 0.6400(3)
O10_3 O 0.70109(19) 0.39723(28) 0.7516(3)
O11_3 O 0.88125(19) 0.52579(28) 0.6531(3)
O12_3 O 0.8466(2) 0.5532(3) 0.7550(3)
O13_3 O 0.9436(2) 0.5618(3) 0.7756(3)
O14_3 O 0.95057(19) 0.64746(26) 0.7762(3)
C25_4 C 0.5833(4) 0.3443(3) 0.6667(4)
C26_3 C 0.5700(4) 0.3129(3) 0.7291(4)
C27_3 C 0.5237(4) 0.2967(3) 0.7585(4)
C28_3 C 0.4904(4) 0.3086(3) 0.7325(4)
C29_3 C 0.5051(4) 0.3426(3) 0.6722(4)
C30_3 C 0.5511(4) 0.3584(3) 0.6420(4)
C31_3 C 0.4101(4) 0.3786(3) 0.8248(4)
C32_3 C 0.3599(4) 0.3342(3) 0.8241(4)
C33_3 C 0.3267(4) 0.3293(2) 0.8734(4)
C34_3 C 0.3388(4) 0.3626(2) 0.9258(4)
C35_3 C 0.3896(4) 0.4069(2) 0.9277(4)
C36_3 C 0.4221(4) 0.4124(3) 0.8765(4)
F9_3 F 0.56372(28) 0.3885(2) 0.5870(3)
F10_3 F 0.51172(26) 0.26753(19) 0.8148(3)
F11_3 F 0.28048(26) 0.28852(17) 0.8736(3)
F12_3 F 0.46795(26) 0.45309(17) 0.8768(2)
O17_3 O 0.6255(3) 0.3566(2) 0.6400(3)
O18_3 O 0.60277(28) 0.3039(2) 0.7516(3)
O19_3 O 0.47421(28) 0.3555(2) 0.6531(3)
O20_3 O 0.4468(3) 0.2935(2) 0.7550(3)
O21_3 O 0.4382(3) 0.3819(2) 0.7756(3)
O22_3 O 0.35254(26) 0.30312(18) 0.7762(3)
C9_3 C 0.6707(2) 0.9975(3) 0.8734(4)
C10_3 C 0.6374(2) 0.9763(4) 0.9258(4)
C11_3 C 0.5931(2) 0.9828(4) 0.9277(4)
F3_3 F 0.71148(17) 0.9920(2) 0.8736(3)
C33_4 C 0.3374(2) 0.0066(4) 0.7067(4)
F11_4 F 0.37815(17) 0.05285(26) 0.7069(3)
O23_3 O 0.3070(2) 0.02309(34) 0.8088(3)
C1_5 C 0.4276(3) 0.6776(3) 0.5000(4)
C2_4 C 0.4095(3) 0.6462(3) 0.5624(4)
C3_4 C 0.4396(3) 0.6300(3) 0.5918(4)
C4_4 C 0.4848(3) 0.6419(3) 0.5658(4)
C5_4 C 0.5041(3) 0.6759(3) 0.5055(4)
C6_4 C 0.4739(3) 0.6917(3) 0.4753(4)
C7_4 C 0.6351(3) 0.7119(3) 0.6581(4)
C8_4 C 0.6409(3) 0.6675(3) 0.6574(4)
C9_4 C 0.6692(3) 0.6626(2) 0.7067(4)
C10_4 C 0.6904(4) 0.6959(2) 0.7591(4)
C11_4 C 0.6839(4) 0.7402(2) 0.7610(4)
C12_4 C 0.6569(3) 0.7457(3) 0.7098(4)
F1_4 F 0.49141(19) 0.7218(2) 0.4203(3)
F2_4 F 0.42247(18) 0.60086(19) 0.6481(3)
F3_4 F 0.6747(2) 0.62185(17) 0.7069(3)
F4_4 F 0.6518(2) 0.78642(17) 0.7101(2)
Fe1_2 Fe 0.58212(4) 0.65844(4) 0.54189(6)
Fe2_6 Fe 0.3333 0.6667 0.52810(9)
O1_4 O 0.3977(2) 0.6899(2) 0.4733(3)
O2_4 O 0.36776(19) 0.6372(2) 0.5849(3)
O3_4 O 0.54792(19) 0.6888(2) 0.4864(3)
O4_4 O 0.5133(2) 0.6268(2) 0.5883(3)
O5_4 O 0.6103(2) 0.7152(2) 0.6089(3)
O6_4 O 0.61724(19) 0.63645(18) 0.6095(3)
O7_3 O 0.71609(27) 0.6930(2) 0.8088(3)
O8_3 O 0.70409(27) 0.77000(19) 0.8121(3)
C13_5 C 0.2500(4) 0.5724(3) 0.5000(4)
C14_4 C 0.2367(4) 0.5905(3) 0.5624(4)
C15_4 C 0.1904(4) 0.5604(3) 0.5918(4)
C16_4 C 0.1571(4) 0.5152(3) 0.5658(4)
C17_4 C 0.1718(4) 0.4959(3) 0.5055(4)
C18_4 C 0.2178(4) 0.5261(3) 0.4753(4)
C19_4 C 0.0768(4) 0.3649(3) 0.6581(4)
C20_4 C 0.0266(4) 0.3591(3) 0.6574(4)
C22_4 C 0.0055(4) 0.3096(4) 0.7591(4)
C23_4 C 0.0563(4) 0.3161(4) 0.7610(4)
C24_4 C 0.0888(4) 0.3431(3) 0.7098(4)
F5_4 F 0.23039(28) 0.50859(19) 0.4203(3)
F6_4 F 0.17839(26) 0.57753(18) 0.6481(3)
F8_4 F 0.13462(26) 0.3482(2) 0.7101(2)
Fe3_2 Fe 0.07632(6) 0.41788(4) 0.54189(6)
O9_4 O 0.2922(3) 0.6023(2) 0.4733(3)
O10_4 O 0.26944(28) 0.63224(19) 0.5849(3)
O11_4 O 0.14088(28) 0.45208(19) 0.4864(3)
O12_4 O 0.1135(3) 0.4867(2) 0.5883(3)
O13_4 O 0.1049(3) 0.3897(2) 0.6089(3)
O14_4 O 0.01921(26) 0.38276(19) 0.6095(3)
O16_3 O 0.06591(33) 0.29591(27) 0.8121(3)
C25_5 C 0.3224(3) 0.7500(4) 0.5000(4)
C26_4 C 0.3538(3) 0.7633(4) 0.5624(4)
C27_4 C 0.3700(3) 0.8096(4) 0.5918(4)
C28_4 C 0.3581(3) 0.8429(4) 0.5658(4)
C29_4 C 0.3241(3) 0.8282(4) 0.5055(4)
C30_4 C 0.3083(3) 0.7822(4) 0.4753(4)
C31_4 C 0.2881(3) 0.9232(4) 0.6581(4)
C32_4 C 0.3325(3) 0.9734(4) 0.6574(4)
C34_4 C 0.3041(2) 0.9945(4) 0.7591(4)
C35_4 C 0.2598(2) 0.9437(4) 0.7610(4)
C36_4 C 0.2543(3) 0.9112(4) 0.7098(4)
F9_4 F 0.2782(2) 0.76961(28) 0.4203(3)
F10_4 F 0.39914(19) 0.82161(26) 0.6481(3)
F12_4 F 0.21358(17) 0.86538(26) 0.7101(2)
Fe4_2 Fe 0.34156(4) 0.92368(6) 0.54189(6)
O17_4 O 0.3101(2) 0.7078(3) 0.4733(3)
O18_4 O 0.3628(2) 0.73056(28) 0.5849(3)
O19_4 O 0.3112(2) 0.85912(28) 0.4864(3)
O20_4 O 0.3732(2) 0.8865(3) 0.5883(3)
O21_4 O 0.2848(2) 0.8951(3) 0.6089(3)
O22_4 O 0.36355(18) 0.98079(26) 0.6095(3)
O24_3 O 0.23000(19) 0.93409(33) 0.8121(3)
Fe5_3 Fe 0.24879(4) 0.99177(4) 0.87522(6)
Fe6_3 Fe 0.74299(6) 0.75121(4) 0.87522(6)
Fe7_3 Fe 0.00823(4) 0.25701(6) 0.87522(6)
O25_2 O 0.04942(27) 0.3597(2) 0.4755(3)
O26_2 O 0.31024(34) 0.95058(27) 0.4755(3)
O27_2 O 0.6403(2) 0.68976(34) 0.4755(3)
O28_2 O 0.03742(27) 0.43667(19) 0.4788(3)
O29_2 O 0.39924(33) 0.96258(27) 0.4788(3)
O30_2 O 0.56333(19) 0.60076(33) 0.4788(3)
C10_5 C 0.3571(4) 0.0292(2) 0.0924(4)
C11_5 C 0.3506(4) 0.0735(2) 0.0943(4)
C12_5 C 0.3236(3) 0.0790(3) 0.0431(4)
F4_5 F 0.3185(2) 0.11975(17) 0.0434(2)
O7_4 O 0.38276(27) 0.0263(2) 0.1421(3)
O8_4 O 0.37076(27) 0.10333(19) 0.1454(3)
C33_5 C 0.0041(2) 0.3399(4) 0.0400(4)
F11_5 F 0.04482(17) 0.38618(26) 0.0402(3)
Fe6_4 Fe 0.40965(6) 0.08455(4) 0.20856(6)
C1_6 C 0.0943(3) 0.0109(3) 0.8333(4)
C5_5 C 0.1708(3) 0.0092(3) 0.8388(4)
C6_5 C 0.1406(3) 0.0250(3) 0.8086(4)
C7_5 C 0.3018(3) 0.0452(3) 0.9914(4)
C8_5 C 0.3076(3) 0.0008(3) 0.9907(4)
F1_5 F 0.15808(19) 0.0551(2) 0.7536(3)
O1_5 O 0.0644(2) 0.0232(2) 0.8066(3)
O3_5 O 0.21459(19) 0.0221(2) 0.8197(3)
O5_5 O 0.2770(2) 0.0485(2) 0.9422(3)
C26_5 C 0.0205(3) 0.0966(4) 0.8957(4)
C27_5 C 0.0367(3) 0.1429(4) 0.9251(4)
C28_5 C 0.0248(3) 0.1762(4) 0.8991(4)
F10_5 F 0.06581(19) 0.15494(26) 0.9814(3)
O18_5 O 0.0295(2) 0.06389(28) 0.9182(3)
O20_5 O 0.0399(2) 0.2198(3) 0.9216(3)
O22_5 O 0.03022(18) 0.31412(26) 0.9428(3)
C2_5 C 0.0762(3) 0.9795(3) 0.8957(4)
C3_5 C 0.1063(3) 0.9633(3) 0.9251(4)
C4_5 C 0.1515(3) 0.9752(3) 0.8991(4)
F2_5 F 0.08914(18) 0.93419(19) 0.9814(3)
O2_5 O 0.03443(19) 0.9705(2) 0.9182(3)
O4_5 O 0.1800(2) 0.9601(2) 0.9216(3)
O6_5 O 0.28391(19) 0.96978(18) 0.9428(3)
C34_5 C 0.9708(2) 0.3278(4) 0.0924(4)
C35_5 C 0.9265(2) 0.2770(4) 0.0943(4)
C36_5 C 0.9210(3) 0.2445(4) 0.0431(4)
F12_5 F 0.88025(17) 0.19871(26) 0.0434(2)
O23_4 O 0.9737(2) 0.35642(34) 0.1421(3)
O24_4 O 0.89667(19) 0.26742(33) 0.1454(3)
Fe5_4 Fe 0.91545(4) 0.32511(4) 0.20856(6)
C21_4 C 0.6601(4) 0.6641(3) 0.0400(4)
C22_5 C 0.6722(4) 0.6429(4) 0.0924(4)
C23_5 C 0.7230(4) 0.6494(4) 0.0943(4)
C24_5 C 0.7555(4) 0.6764(3) 0.0431(4)
F7_4 F 0.61382(26) 0.6586(2) 0.0402(3)
F8_5 F 0.80129(26) 0.6815(2) 0.0434(2)
O15_3 O 0.64358(34) 0.61724(27) 0.1421(3)
O16_4 O 0.73258(33) 0.62924(27) 0.1454(3)
Fe7_4 Fe 0.67489(4) 0.59035(6) 0.20856(6)
C13_6 C 0.9167(4) 0.9057(3) 0.8333(4)
C14_5 C 0.9034(4) 0.9238(3) 0.8957(4)
C15_5 C 0.8571(4) 0.8937(3) 0.9251(4)
C16_5 C 0.8238(4) 0.8485(3) 0.8991(4)
C17_5 C 0.8385(4) 0.8292(3) 0.8388(4)
C18_5 C 0.8845(4) 0.8594(3) 0.8086(4)
C19_5 C 0.7435(4) 0.6982(3) 0.9914(4)
C20_5 C 0.6933(4) 0.6924(3) 0.9907(4)
F5_5 F 0.89706(28) 0.84192(19) 0.7536(3)
F6_5 F 0.84506(26) 0.91086(18) 0.9814(3)
O9_5 O 0.9589(3) 0.9356(2) 0.8066(3)
O10_5 O 0.93611(28) 0.96557(19) 0.9182(3)
O11_5 O 0.80755(28) 0.78541(19) 0.8197(3)
O12_5 O 0.7802(3) 0.8200(2) 0.9216(3)
O13_5 O 0.7716(3) 0.7230(2) 0.9422(3)
O14_5 O 0.68588(26) 0.71609(19) 0.9428(3)
Fe2_7 Fe 0.0001 0.0000 0.86143(9)
Fe2_8 Fe 1.0000 0.9999 0.86143(9)
C9_5 C 0.0025(3) 0.3293(2) 0.3734(4)
C10_6 C 0.0237(4) 0.3626(2) 0.4258(4)
C11_6 C 0.0172(4) 0.4069(2) 0.4277(4)
F3_5 F 0.0080(2) 0.28852(17) 0.3736(3)
C1_7 C 0.7609(3) 0.3443(3) 0.1667(4)
C2_6 C 0.7428(3) 0.3129(3) 0.2291(4)
C3_6 C 0.7729(3) 0.2967(3) 0.2585(4)
C4_6 C 0.8181(3) 0.3086(3) 0.2325(4)
C5_6 C 0.8374(3) 0.3426(3) 0.1722(4)
C6_6 C 0.8072(3) 0.3584(3) 0.1420(4)
C7_6 C 0.9684(3) 0.3786(3) 0.3248(4)
C8_6 C 0.9742(3) 0.3342(3) 0.3241(4)
C12_6 C 0.9902(3) 0.4124(3) 0.3765(4)
F1_6 F 0.82474(19) 0.3885(2) 0.0870(3)
F2_6 F 0.75580(18) 0.26753(19) 0.3148(3)
F4_6 F 0.9851(2) 0.45309(17) 0.3768(2)
Fe2_9 Fe 0.6666 0.3334 0.19477(9)
O1_6 O 0.7310(2) 0.3566(2) 0.1400(3)
O2_6 O 0.70109(19) 0.3039(2) 0.2516(3)
O3_6 O 0.88125(19) 0.3555(2) 0.1531(3)
O4_6 O 0.8466(2) 0.2935(2) 0.2550(3)
O5_6 O 0.9436(2) 0.3819(2) 0.2756(3)
O6_6 O 0.95057(19) 0.30312(18) 0.2762(3)
C13_7 C 0.5833(4) 0.2391(3) 0.1667(4)
C14_6 C 0.5700(4) 0.2572(3) 0.2291(4)
C15_6 C 0.5237(4) 0.2271(3) 0.2585(4)
C16_6 C 0.4904(4) 0.1819(3) 0.2325(4)
C17_6 C 0.5051(4) 0.1626(3) 0.1722(4)
C18_6 C 0.5511(4) 0.1928(3) 0.1420(4)
C19_6 C 0.4101(4) 0.0316(3) 0.3248(4)
C20_6 C 0.3599(4) 0.0258(3) 0.3241(4)
C24_6 C 0.4221(4) 0.0098(3) 0.3765(4)
F5_6 F 0.56372(28) 0.17526(19) 0.0870(3)
F6_6 F 0.51172(26) 0.24420(18) 0.3148(3)
F8_6 F 0.46795(26) 0.0149(2) 0.3768(2)
O9_6 O 0.6255(3) 0.2690(2) 0.1400(3)
O10_6 O 0.60277(28) 0.29891(19) 0.2516(3)
O11_6 O 0.47421(28) 0.11875(19) 0.1531(3)
O12_6 O 0.4468(3) 0.1534(2) 0.2550(3)
O13_6 O 0.4382(3) 0.0564(2) 0.2756(3)
O14_6 O 0.35254(26) 0.04943(19) 0.2762(3)
C25_6 C 0.6557(3) 0.4167(4) 0.1667(4)
C26_6 C 0.6871(3) 0.4300(4) 0.2291(4)
C27_6 C 0.7033(3) 0.4763(4) 0.2585(4)
C28_6 C 0.6914(3) 0.5096(4) 0.2325(4)
C29_5 C 0.6574(3) 0.4949(4) 0.1722(4)
C30_5 C 0.6416(3) 0.4489(4) 0.1420(4)
C31_5 C 0.6214(3) 0.5899(4) 0.3248(4)
C32_5 C 0.6658(3) 0.6401(4) 0.3241(4)
C33_6 C 0.6707(2) 0.6733(4) 0.3734(4)
C34_6 C 0.6374(2) 0.6612(4) 0.4258(4)
C35_6 C 0.5931(2) 0.6104(4) 0.4277(4)
C36_6 C 0.5876(3) 0.5779(4) 0.3765(4)
F9_5 F 0.6115(2) 0.43628(28) 0.0870(3)
F10_6 F 0.73247(19) 0.48828(26) 0.3148(3)
F11_6 F 0.71148(17) 0.71952(26) 0.3736(3)
F12_6 F 0.54691(17) 0.53205(26) 0.3768(2)
O17_5 O 0.6434(2) 0.3745(3) 0.1400(3)
O18_6 O 0.6961(2) 0.39723(28) 0.2516(3)
O19_5 O 0.6445(2) 0.52579(28) 0.1531(3)
O20_6 O 0.7065(2) 0.5532(3) 0.2550(3)
O21_5 O 0.6181(2) 0.5618(3) 0.2756(3)
O22_6 O 0.69688(18) 0.64746(26) 0.2762(3)
C21_5 C 0.3267(4) 0.9975(3) 0.3734(4)
C22_6 C 0.3388(4) 0.9763(4) 0.4258(4)
C23_6 C 0.3896(4) 0.9828(4) 0.4277(4)
F7_5 F 0.28048(26) 0.9920(2) 0.3736(3)
C21_6 C 0.9934(4) 0.3308(3) 0.7067(4)
F7_6 F 0.94715(26) 0.3253(2) 0.7069(3)
O15_4 O 0.97691(34) 0.28391(27) 0.8088(3)
Fe2_10 Fe 1.0000 0.0000 0.86143(9)
C25_7 C 0.9891(3) 0.0833(4) 0.8333(4)
C29_6 C 0.9908(3) 0.1615(4) 0.8388(4)
C30_6 C 0.9750(3) 0.1155(4) 0.8086(4)
C31_6 C 0.9548(3) 0.2565(4) 0.9914(4)
C32_6 C 0.9992(3) 0.3067(4) 0.9907(4)
F9_6 F 0.9449(2) 0.10294(28) 0.7536(3)
O17_6 O 0.9768(2) 0.0411(3) 0.8066(3)
O19_6 O 0.9779(2) 0.19245(28) 0.8197(3)
O21_6 O 0.9515(2) 0.2284(3) 0.9422(3)
C9_6 C 0.3359(3) 0.9959(2) 0.0400(4)
F3_6 F 0.3414(2) 0.95518(17) 0.0402(3)
C37 C 0.5298(3) 0.4828(4) 0.7171(6)
H1 H 0.5100 0.4482 0.7052
H2 H 0.5303 0.4851 0.7664
C38 C 0.5824(4) 0.5013(4) 0.6925(7)
H3 H 0.6017 0.5370 0.6966
H4 H 0.5822 0.4926 0.6451
C39 C 0.6048(4) 0.4774(5) 0.7364(8)
H5 H 0.5829 0.4419 0.7374
H6 H 0.6090 0.4897 0.7826
C40 C 0.6555(5) 0.4891(7) 0.7069(10)
H7 H 0.6694 0.4740 0.7348
H8 H 0.6511 0.4765 0.6614
H9 H 0.6772 0.5242 0.7064
C41 C 0.5319(4) 0.5639(4) 0.7153(7)
H10 H 0.5656 0.5799 0.6990
H11 H 0.5164 0.5811 0.6950
C42 C 0.5330(5) 0.5707(4) 0.7898(7)
H12 H 0.4998 0.5517 0.8080
H13 H 0.5530 0.5586 0.8106
C43 C 0.5538(5) 0.6242(5) 0.8071(7)
H14 H 0.5331 0.6355 0.7863
H15 H 0.5863 0.6428 0.7867
C44 C 0.5584(5) 0.6366(5) 0.8821(8)
H16 H 0.5720 0.6715 0.8877
H17 H 0.5263 0.6194 0.9029
H18 H 0.5797 0.6267 0.9034
C45 C 0.5064(4) 0.5126(4) 0.6119(5)
H19 H 0.4898 0.5301 0.5969
H20 H 0.5406 0.5317 0.5977
C46 C 0.4834(5) 0.4636(4) 0.5771(7)
H21 H 0.4973 0.4444 0.5953
H22 H 0.4482 0.4459 0.5864
C47 C 0.4914(8) 0.4689(6) 0.5027(8)
H23 H 0.5265 0.4881 0.4939
H24 H 0.4762 0.4870 0.4846
C48 C 0.4711(8) 0.4215(7) 0.4668(10)
H25 H 0.4775 0.4274 0.4189
H26 H 0.4865 0.4036 0.4837
H27 H 0.4362 0.4024 0.4744
C49 C 0.4514(4) 0.4820(4) 0.7143(6)
H28 H 0.4363 0.4482 0.6982
H29 H 0.4518 0.4811 0.7636
C50 C 0.4196(4) 0.5029(5) 0.6929(7)
H30 H 0.4130 0.4976 0.6444
H31 H 0.4369 0.5381 0.7013
C51 C 0.3769(10) 0.5014(12) 0.8074(16)
H32 H 0.3455 0.4853 0.8303
H33 H 0.4002 0.4964 0.8327
H34 H 0.3884 0.5361 0.8042
C52 C 0.3707(5) 0.4785(6) 0.7318(8)
H35 H 0.3585 0.4433 0.7353
H36 H 0.3466 0.4831 0.7067
N1 N 0.5047(3) 0.5100(3) 0.6889(6)
C37_2 C 0.5172(4) 0.0470(5) 0.7171(6)
H1_2 H 0.5518 0.0618 0.7052
H2_2 H 0.5149 0.0452 0.7664
C38_2 C 0.4987(4) 0.0811(6) 0.6925(7)
H3_2 H 0.4630 0.0647 0.6966
H4_2 H 0.5074 0.0896 0.6451
C39_2 C 0.5226(5) 0.1274(6) 0.7364(8)
H5_2 H 0.5581 0.1410 0.7374
H6_2 H 0.5103 0.1193 0.7826
C40_2 C 0.5109(7) 0.1664(9) 0.7069(10)
H7_2 H 0.5260 0.1954 0.7348
H8_2 H 0.5235 0.1746 0.6614
H9_2 H 0.4758 0.1530 0.7064
H20_2 H 0.4683 0.0089 0.5977
C46_2 C 0.5364(4) 0.0198(6) 0.5771(7)
H21_2 H 0.5556 0.0529 0.5953
H22_2 H 0.5541 0.0023 0.5864
C47_2 C 0.5311(6) 0.0225(10) 0.5027(8)
H23_2 H 0.5119 0.0384 0.4939
C48_2 C 0.5785(7) 0.0496(11) 0.4668(10)
H25_2 H 0.5726 0.0501 0.4189
H26_2 H 0.5964 0.0829 0.4837
H27_2 H 0.5976 0.0338 0.4744
C41_2 C 0.4361(4) 0.9680(6) 0.7153(7)
H10_2 H 0.4201 0.9857 0.6990
H11_2 H 0.4189 0.9353 0.6950
C42_2 C 0.4293(4) 0.9623(6) 0.7898(7)
H12_2 H 0.4483 0.9481 0.8080
H13_2 H 0.4414 0.9944 0.8106
C43_2 C 0.3758(5) 0.9296(7) 0.8071(7)
H14_2 H 0.3645 0.8976 0.7863
H15_2 H 0.3572 0.9435 0.7867
C44_2 C 0.3634(5) 0.9218(7) 0.8821(8)
H16_2 H 0.3285 0.9005 0.8877
H17_2 H 0.3806 0.9069 0.9029
H18_2 H 0.3733 0.9530 0.9034
C45_2 C 0.4874(4) 0.9938(6) 0.6119(5)
H19_2 H 0.4699 0.9597 0.5969
H24_2 H 0.5130 0.9892 0.4846
C49_2 C 0.5180(4) 0.9694(6) 0.7143(6)
H28_2 H 0.5518 0.9881 0.6982
H29_2 H 0.5189 0.9707 0.7636
C50_2 C 0.4971(5) 0.9167(6) 0.6929(7)
H30_2 H 0.5024 0.9154 0.6444
H31_2 H 0.4619 0.8988 0.7013
C51_2 C 0.4986(12) 0.8755(16) 0.8074(16)
H32_2 H 0.5147 0.8602 0.8303
H33_2 H 0.5036 0.9038 0.8327
H34_2 H 0.4639 0.8523 0.8042
C52_2 C 0.5215(6) 0.8922(8) 0.7318(8)
H35_2 H 0.5567 0.9152 0.7353
H36_2 H 0.5169 0.8635 0.7067
N1_2 N 0.4900(3) 0.9947(4) 0.6889(6)
C41_3 C 0.0320(6) 0.4681(4) 0.7153(7)
H10_3 H 0.0143 0.4344 0.6990
H11_3 H 0.0647 0.4836 0.6950
C42_3 C 0.0377(6) 0.4670(5) 0.7898(7)
H12_3 H 0.0519 0.5002 0.8080
H13_3 H 0.0056 0.4470 0.8106
C43_3 C 0.0704(7) 0.4462(5) 0.8071(7)
H14_3 H 0.1024 0.4669 0.7863
H15_3 H 0.0565 0.4137 0.7867
C44_3 C 0.0782(7) 0.4416(5) 0.8821(8)
H16_3 H 0.0995 0.4280 0.8877
H17_3 H 0.0931 0.4737 0.9029
H18_3 H 0.0470 0.4203 0.9034
C45_3 C 0.0062(6) 0.4936(4) 0.6119(5)
H19_3 H 0.0403 0.5102 0.5969
H24_3 H 0.0108 0.5238 0.4846
C49_3 C 0.0306(6) 0.5486(4) 0.7143(6)
H28_3 H 0.0119 0.5637 0.6982
H29_3 H 0.0293 0.5482 0.7636
C50_3 C 0.0833(6) 0.5804(4) 0.6929(7)
H30_3 H 0.0846 0.5870 0.6444
H31_3 H 0.1012 0.5631 0.7013
C51_3 C 0.1245(16) 0.6231(10) 0.8074(16)
H32_3 H 0.1398 0.6545 0.8303
H33_3 H 0.0962 0.5998 0.8327
H34_3 H 0.1477 0.6116 0.8042
C52_3 C 0.1078(8) 0.6293(5) 0.7318(8)
H35_3 H 0.0848 0.6415 0.7353
H36_3 H 0.1365 0.6534 0.7067
N1_3 N 0.0053(4) 0.4953(3) 0.6889(6)
C37_3 C 0.9530(5) 0.4702(3) 0.7171(6)
H1_3 H 0.9382 0.4900 0.7052
H2_3 H 0.9548 0.4697 0.7664
C38_3 C 0.9189(6) 0.4176(4) 0.6925(7)
H3_3 H 0.9353 0.3983 0.6966
H4_3 H 0.9104 0.4178 0.6451
C39_3 C 0.8726(6) 0.3952(4) 0.7364(8)
H5_3 H 0.8590 0.4171 0.7374
H6_3 H 0.8807 0.3910 0.7826
C40_3 C 0.8336(9) 0.3445(5) 0.7069(10)
H7_3 H 0.8046 0.3306 0.7348
H8_3 H 0.8254 0.3489 0.6614
H9_3 H 0.8470 0.3228 0.7064
H20_3 H 0.9911 0.4594 0.5977
C46_3 C 0.9802(6) 0.5166(5) 0.5771(7)
H21_3 H 0.9471 0.5027 0.5953
H22_3 H 0.9977 0.5518 0.5864
C47_3 C 0.9775(10) 0.5086(8) 0.5027(8)
H23_3 H 0.9616 0.4735 0.4939
C48_3 C 0.9504(11) 0.5289(8) 0.4668(10)
H25_3 H 0.9499 0.5225 0.4189
H26_3 H 0.9171 0.5135 0.4837
H27_3 H 0.9662 0.5638 0.4744
C37_4 C 0.5172(4) 0.4702(3) 0.2171(6)
H1_4 H 0.5518 0.4900 0.2052
H2_4 H 0.5149 0.4697 0.2664
C38_4 C 0.4987(4) 0.4176(4) 0.1925(7)
H3_4 H 0.4630 0.3983 0.1966
H4_4 H 0.5074 0.4178 0.1451
C39_4 C 0.5226(5) 0.3952(4) 0.2364(8)
H5_4 H 0.5581 0.4171 0.2374
H6_4 H 0.5103 0.3910 0.2826
C40_4 C 0.5109(7) 0.3445(5) 0.2069(10)
H7_4 H 0.5260 0.3306 0.2348
H8_4 H 0.5235 0.3489 0.1614
H9_4 H 0.4758 0.3228 0.2064
C41_4 C 0.4361(4) 0.4681(4) 0.2153(7)
H10_4 H 0.4201 0.4344 0.1990
H11_4 H 0.4189 0.4836 0.1950
C42_4 C 0.4293(4) 0.4670(5) 0.2898(7)
H12_4 H 0.4483 0.5002 0.3080
H13_4 H 0.4414 0.4470 0.3106
C43_4 C 0.3758(5) 0.4462(5) 0.3071(7)
H14_4 H 0.3645 0.4669 0.2863
H15_4 H 0.3572 0.4137 0.2867
C44_4 C 0.3634(5) 0.4416(5) 0.3821(8)
H16_4 H 0.3285 0.4280 0.3877
H17_4 H 0.3806 0.4737 0.4029
H18_4 H 0.3733 0.4203 0.4034
C45_4 C 0.4874(4) 0.4936(4) 0.1119(5)
H19_4 H 0.4699 0.5102 0.0969
H20_4 H 0.4683 0.4594 0.0977
C46_4 C 0.5364(4) 0.5166(5) 0.0771(7)
H21_4 H 0.5556 0.5027 0.0953
H22_4 H 0.5541 0.5518 0.0864
C47_4 C 0.5311(6) 0.5086(8) 0.0027(8)
C49_4 C 0.5180(4) 0.5486(4) 0.2143(6)
H28_4 H 0.5518 0.5637 0.1982
H29_4 H 0.5189 0.5482 0.2636
C50_4 C 0.4971(5) 0.5804(4) 0.1929(7)
H30_4 H 0.5024 0.5870 0.1444
H31_4 H 0.4619 0.5631 0.2013
C51_4 C 0.4986(12) 0.6231(10) 0.3074(16)
H32_4 H 0.5147 0.6545 0.3303
H33_4 H 0.5036 0.5998 0.3327
H34_4 H 0.4639 0.6116 0.3042
C52_4 C 0.5215(6) 0.6293(5) 0.2318(8)
H35_4 H 0.5567 0.6415 0.2353
H36_4 H 0.5169 0.6534 0.2067
N1_4 N 0.4900(3) 0.4953(3) 0.1889(6)
H23_4 H 0.5119 0.4735 0.9939
H24_4 H 0.5130 0.5238 0.9846
C48_4 C 0.5785(7) 0.5289(8) 0.9668(10)
H25_4 H 0.5726 0.5225 0.9189
H26_4 H 0.5964 0.5135 0.9837
H27_4 H 0.5976 0.5638 0.9744
C41_5 C 0.0320(6) 0.5639(4) 0.2153(7)
H10_5 H 0.0143 0.5799 0.1990
H11_5 H 0.0647 0.5811 0.1950
C42_5 C 0.0377(6) 0.5707(4) 0.2898(7)
H12_5 H 0.0519 0.5517 0.3080
H13_5 H 0.0056 0.5586 0.3106
C43_5 C 0.0704(7) 0.6242(5) 0.3071(7)
H14_5 H 0.1024 0.6355 0.2863
H15_5 H 0.0565 0.6428 0.2867
C44_5 C 0.0782(7) 0.6366(5) 0.3821(8)
H16_5 H 0.0995 0.6715 0.3877
H17_5 H 0.0931 0.6194 0.4029
H18_5 H 0.0470 0.6267 0.4034
C45_5 C 0.0062(6) 0.5126(4) 0.1119(5)
H19_5 H 0.0403 0.5301 0.0969
C49_5 C 0.0306(6) 0.4820(4) 0.2143(6)
H28_5 H 0.0119 0.4482 0.1982
H29_5 H 0.0293 0.4811 0.2636
C50_5 C 0.0833(6) 0.5029(5) 0.1929(7)
H30_5 H 0.0846 0.4976 0.1444
H31_5 H 0.1012 0.5381 0.2013
C51_5 C 0.1245(16) 0.5014(12) 0.3074(16)
H32_5 H 0.1398 0.4853 0.3303
H33_5 H 0.0962 0.4964 0.3327
H34_5 H 0.1477 0.5361 0.3042
C52_5 C 0.1078(8) 0.4785(6) 0.2318(8)
H35_5 H 0.0848 0.4433 0.2353
H36_5 H 0.1365 0.4831 0.2067
N1_5 N 0.0053(4) 0.5100(3) 0.1889(6)
H24_5 H 0.0108 0.4870 0.9846
C37_5 C 0.9530(5) 0.4828(4) 0.2171(6)
H1_5 H 0.9382 0.4482 0.2052
H2_5 H 0.9548 0.4851 0.2664
C38_5 C 0.9189(6) 0.5013(4) 0.1925(7)
H3_5 H 0.9353 0.5370 0.1966
H4_5 H 0.9104 0.4926 0.1451
C39_5 C 0.8726(6) 0.4774(5) 0.2364(8)
H5_5 H 0.8590 0.4419 0.2374
H6_5 H 0.8807 0.4897 0.2826
C40_5 C 0.8336(9) 0.4891(7) 0.2069(10)
H7_5 H 0.8046 0.4740 0.2348
H8_5 H 0.8254 0.4765 0.1614
H9_5 H 0.8470 0.5242 0.2064
H20_5 H 0.9911 0.5317 0.0977
C46_5 C 0.9802(6) 0.4636(4) 0.0771(7)
H21_5 H 0.9471 0.4444 0.0953
H22_5 H 0.9977 0.4459 0.0864
C47_5 C 0.9775(10) 0.4689(6) 0.0027(8)
H23_5 H 0.9616 0.4881 0.9939
C48_5 C 0.9504(11) 0.4215(7) 0.9668(10)
H25_5 H 0.9499 0.4274 0.9189
H26_5 H 0.9171 0.4036 0.9837
H27_5 H 0.9662 0.4024 0.9744
C37_6 C 0.5298(3) 0.0470(5) 0.2171(6)
H1_6 H 0.5100 0.0618 0.2052
H2_6 H 0.5303 0.0452 0.2664
C38_6 C 0.5824(4) 0.0811(6) 0.1925(7)
H3_6 H 0.6017 0.0647 0.1966
H4_6 H 0.5822 0.0896 0.1451
C39_6 C 0.6048(4) 0.1274(6) 0.2364(8)
H5_6 H 0.5829 0.1410 0.2374
H6_6 H 0.6090 0.1193 0.2826
C40_6 C 0.6555(5) 0.1664(9) 0.2069(10)
H7_6 H 0.6694 0.1954 0.2348
H8_6 H 0.6511 0.1746 0.1614
H9_6 H 0.6772 0.1530 0.2064
H20_6 H 0.5406 0.0089 0.0977
C46_6 C 0.4834(5) 0.0198(6) 0.0771(7)
H21_6 H 0.4973 0.0529 0.0953
H22_6 H 0.4482 0.0023 0.0864
C47_6 C 0.4914(8) 0.0225(10) 0.0027(8)
H23_6 H 0.5265 0.0384 0.9939
C48_6 C 0.4711(8) 0.0496(11) 0.9668(10)
H25_6 H 0.4775 0.0501 0.9189
H26_6 H 0.4865 0.0829 0.9837
H27_6 H 0.4362 0.0338 0.9744
C41_6 C 0.5319(4) 0.9680(6) 0.2153(7)
H10_6 H 0.5656 0.9857 0.1990
H11_6 H 0.5164 0.9353 0.1950
C42_6 C 0.5330(5) 0.9623(6) 0.2898(7)
H12_6 H 0.4998 0.9481 0.3080
H13_6 H 0.5530 0.9944 0.3106
C43_6 C 0.5538(5) 0.9296(7) 0.3071(7)
H14_6 H 0.5331 0.8976 0.2863
H15_6 H 0.5863 0.9435 0.2867
C44_6 C 0.5584(5) 0.9218(7) 0.3821(8)
H16_6 H 0.5720 0.9005 0.3877
H17_6 H 0.5263 0.9069 0.4029
H18_6 H 0.5797 0.9530 0.4034
C45_6 C 0.5064(4) 0.9938(6) 0.1119(5)
H19_6 H 0.4898 0.9597 0.0969
C49_6 C 0.4514(4) 0.9694(6) 0.2143(6)
H28_6 H 0.4363 0.9881 0.1982
H29_6 H 0.4518 0.9707 0.2636
C50_6 C 0.4196(4) 0.9167(6) 0.1929(7)
H30_6 H 0.4130 0.9154 0.1444
H31_6 H 0.4369 0.8988 0.2013
C51_6 C 0.3769(10) 0.8755(16) 0.3074(16)
H32_6 H 0.3455 0.8602 0.3303
H33_6 H 0.4002 0.9038 0.3327
H34_6 H 0.3884 0.8523 0.3042
C52_6 C 0.3707(5) 0.8922(8) 0.2318(8)
H35_6 H 0.3585 0.9152 0.2353
H36_6 H 0.3466 0.8635 0.2067
N1_6 N 0.5047(3) 0.9947(4) 0.1889(6)
H24_6 H 0.4762 0.9892 0.9846
H16_7 H 0.2387 0.0048 0.2210
C37_7 C 0.1965(3) 0.8161(4) 0.0504(6)
H1_7 H 0.1767 0.7815 0.0385
H2_7 H 0.1970 0.8184 0.0997
C38_7 C 0.2491(4) 0.8346(4) 0.0258(7)
H3_7 H 0.2684 0.8703 0.0299
C39_7 C 0.2715(4) 0.8107(5) 0.0697(8)
H5_7 H 0.2496 0.7752 0.0707
H6_7 H 0.2757 0.8230 0.1159
C40_7 C 0.3222(5) 0.8224(7) 0.0402(10)
H7_7 H 0.3361 0.8073 0.0681
H9_7 H 0.3439 0.8575 0.0397
C41_7 C 0.1986(4) 0.8972(4) 0.0486(7)
H10_7 H 0.2323 0.9132 0.0323
H11_7 H 0.1831 0.9144 0.0283
C42_7 C 0.1997(5) 0.9040(4) 0.1231(7)
H12_7 H 0.1665 0.8850 0.1413
H13_7 H 0.2197 0.8919 0.1439
C43_7 C 0.2205(5) 0.9575(5) 0.1404(7)
H14_7 H 0.1998 0.9688 0.1196
H15_7 H 0.2530 0.9761 0.1200
C44_7 C 0.2251(5) 0.9699(5) 0.2154(8)
H17_7 H 0.1930 0.9527 0.2362
H18_7 H 0.2464 0.9600 0.2367
C49_7 C 0.1181(4) 0.8153(4) 0.0476(6)
H28_7 H 0.1030 0.7815 0.0315
H29_7 H 0.1185 0.8144 0.0969
C50_7 C 0.0863(4) 0.8362(5) 0.0262(7)
H31_7 H 0.1036 0.8714 0.0346
C51_7 C 0.0436(10) 0.8347(12) 0.1407(16)
H32_7 H 0.0122 0.8186 0.1636
H33_7 H 0.0669 0.8297 0.1660
H34_7 H 0.0551 0.8694 0.1375
C52_7 C 0.0374(5) 0.8118(6) 0.0651(8)
H35_7 H 0.0252 0.7766 0.0686
H36_7 H 0.0133 0.8164 0.0400
N1_7 N 0.1714(3) 0.8433(3) 0.0222(6)
H4_7 H 0.2489 0.8259 0.9784
H8_7 H 0.3178 0.8098 0.9947
C45_7 C 0.1731(4) 0.8459(4) 0.9452(5)
H19_7 H 0.1565 0.8634 0.9302
H20_7 H 0.2073 0.8650 0.9310
C46_7 C 0.1501(5) 0.7969(4) 0.9104(7)
H21_7 H 0.1640 0.7777 0.9286
H22_7 H 0.1149 0.7792 0.9197
C47_7 C 0.1581(8) 0.8022(6) 0.8360(8)
H23_7 H 0.1932 0.8214 0.8272
H24_7 H 0.1429 0.8203 0.8179
C48_7 C 0.1378(8) 0.7548(7) 0.8001(10)
H25_7 H 0.1442 0.7607 0.7522
H26_7 H 0.1532 0.7369 0.8170
H27_7 H 0.1029 0.7357 0.8077
H30_7 H 0.0797 0.8309 0.9777
C37_8 C 0.1839(4) 0.3803(5) 0.0504(6)
H1_8 H 0.2185 0.3951 0.0385
H2_8 H 0.1816 0.3785 0.0997
C38_8 C 0.1654(4) 0.4144(6) 0.0258(7)
H3_8 H 0.1297 0.3980 0.0299
C39_8 C 0.1893(5) 0.4607(6) 0.0697(8)
H5_8 H 0.2248 0.4743 0.0707
H6_8 H 0.1770 0.4526 0.1159
C40_8 C 0.1776(7) 0.4997(9) 0.0402(10)
H7_8 H 0.1927 0.5287 0.0681
H9_8 H 0.1425 0.4863 0.0397
C41_8 C 0.1028(4) 0.3013(6) 0.0486(7)
H10_8 H 0.0868 0.3190 0.0323
H11_8 H 0.0856 0.2686 0.0283
C42_8 C 0.0960(4) 0.2956(6) 0.1231(7)
H12_8 H 0.1150 0.2814 0.1413
H13_8 H 0.1081 0.3277 0.1439
C43_8 C 0.0425(5) 0.2629(7) 0.1404(7)
H14_8 H 0.0312 0.2309 0.1196
H15_8 H 0.0239 0.2768 0.1200
C44_8 C 0.0301(5) 0.2551(7) 0.2154(8)
H17_8 H 0.0473 0.2402 0.2362
H18_8 H 0.0400 0.2863 0.2367
C49_8 C 0.1847(4) 0.3027(6) 0.0476(6)
H28_8 H 0.2185 0.3214 0.0315
H29_8 H 0.1856 0.3040 0.0969
C50_8 C 0.1638(5) 0.2500(6) 0.0262(7)
H31_8 H 0.1286 0.2321 0.0346
C51_8 C 0.1653(12) 0.2088(16) 0.1407(16)
H32_8 H 0.1814 0.1935 0.1636
H33_8 H 0.1703 0.2371 0.1660
H34_8 H 0.1306 0.1856 0.1375
C52_8 C 0.1882(6) 0.2255(8) 0.0651(8)
H35_8 H 0.2234 0.2485 0.0686
H36_8 H 0.1836 0.1968 0.0400
N1_8 N 0.1567(3) 0.3280(4) 0.0222(6)
H4_8 H 0.1741 0.4229 0.9784
H8_8 H 0.1902 0.5079 0.9947
C45_8 C 0.1541(4) 0.3271(6) 0.9452(5)
H19_8 H 0.1366 0.2930 0.9302
H20_8 H 0.1350 0.3422 0.9310
C46_8 C 0.2031(4) 0.3531(6) 0.9104(7)
H21_8 H 0.2223 0.3862 0.9286
H22_8 H 0.2208 0.3356 0.9197
C47_8 C 0.1978(6) 0.3558(10) 0.8360(8)
H23_8 H 0.1786 0.3717 0.8272
H24_8 H 0.1797 0.3225 0.8179
C48_8 C 0.2452(7) 0.3829(11) 0.8001(10)
H25_8 H 0.2393 0.3834 0.7522
H26_8 H 0.2631 0.4162 0.8170
H27_8 H 0.2643 0.3671 0.8077
H30_8 H 0.1691 0.2487 0.9777
H16_8 H 0.9952 0.2338 0.2210
C37_9 C 0.6197(5) 0.8035(3) 0.0504(6)
H1_9 H 0.6049 0.8233 0.0385
H2_9 H 0.6215 0.8030 0.0997
C38_9 C 0.5856(6) 0.7509(4) 0.0258(7)
H3_9 H 0.6020 0.7316 0.0299
C39_9 C 0.5393(6) 0.7285(4) 0.0697(8)
H5_9 H 0.5257 0.7504 0.0707
H6_9 H 0.5474 0.7243 0.1159
C40_9 C 0.5003(9) 0.6778(5) 0.0402(10)
H7_9 H 0.4713 0.6639 0.0681
H9_9 H 0.5137 0.6561 0.0397
C41_9 C 0.6987(6) 0.8014(4) 0.0486(7)
H10_9 H 0.6810 0.7677 0.0323
H11_9 H 0.7314 0.8169 0.0283
C42_9 C 0.7044(6) 0.8003(5) 0.1231(7)
H12_9 H 0.7186 0.8335 0.1413
H13_9 H 0.6723 0.7803 0.1439
C43_9 C 0.7371(7) 0.7795(5) 0.1404(7)
H14_9 H 0.7691 0.8002 0.1196
H15_9 H 0.7232 0.7470 0.1200
C44_9 C 0.7449(7) 0.7749(5) 0.2154(8)
H16_9 H 0.7662 0.7613 0.2210
H17_9 H 0.7598 0.8070 0.2362
H18_9 H 0.7137 0.7536 0.2367
C49_9 C 0.6973(6) 0.8819(4) 0.0476(6)
H28_9 H 0.6786 0.8970 0.0315
H29_9 H 0.6960 0.8815 0.0969
C50_9 C 0.7500(6) 0.9137(4) 0.0262(7)
H31_9 H 0.7679 0.8964 0.0346
C51_9 C 0.7912(16) 0.9564(10) 0.1407(16)
H32_9 H 0.8065 0.9878 0.1636
H33_9 H 0.7629 0.9331 0.1660
H34_9 H 0.8144 0.9449 0.1375
C52_9 C 0.7745(8) 0.9626(5) 0.0651(8)
H35_9 H 0.7515 0.9748 0.0686
H36_9 H 0.8032 0.9867 0.0400
N1_9 N 0.6720(4) 0.8286(3) 0.0222(6)
H4_9 H 0.5771 0.7511 0.9784
H8_9 H 0.4921 0.6822 0.9947
C45_9 C 0.6729(6) 0.8269(4) 0.9452(5)
H19_9 H 0.7070 0.8435 0.9302
H20_9 H 0.6578 0.7927 0.9310
C46_9 C 0.6469(6) 0.8499(5) 0.9104(7)
H21_9 H 0.6138 0.8360 0.9286
H22_9 H 0.6644 0.8851 0.9197
C47_9 C 0.6442(10) 0.8419(8) 0.8360(8)
H23_9 H 0.6283 0.8068 0.8272
H24_9 H 0.6775 0.8571 0.8179
C48_9 C 0.6171(11) 0.8622(8) 0.8001(10)
H25_9 H 0.6166 0.8558 0.7522
H26_9 H 0.5838 0.8468 0.8170
H27_9 H 0.6329 0.8971 0.8077
H30_9 H 0.7513 0.9203 0.9777
C37_10 C 0.1839(4) 0.8035(3) 0.5504(6)
H1_10 H 0.2185 0.8233 0.5385
H2_10 H 0.1816 0.8030 0.5997
C38_10 C 0.1654(4) 0.7509(4) 0.5258(7)
H3_10 H 0.1297 0.7316 0.5299
H4_10 H 0.1741 0.7511 0.4784
C39_10 C 0.1893(5) 0.7285(4) 0.5697(8)
H5_10 H 0.2248 0.7504 0.5707
H6_10 H 0.1770 0.7243 0.6159
C40_10 C 0.1776(7) 0.6778(5) 0.5402(10)
H7_10 H 0.1927 0.6639 0.5681
H8_10 H 0.1902 0.6822 0.4947
H9_10 H 0.1425 0.6561 0.5397
C41_10 C 0.1028(4) 0.8014(4) 0.5486(7)
H10_10 H 0.0868 0.7677 0.5323
H11_10 H 0.0856 0.8169 0.5283
C42_10 C 0.0960(4) 0.8003(5) 0.6231(7)
H12_10 H 0.1150 0.8335 0.6413
H13_10 H 0.1081 0.7803 0.6439
C43_10 C 0.0425(5) 0.7795(5) 0.6404(7)
H14_10 H 0.0312 0.8002 0.6196
H15_10 H 0.0239 0.7470 0.6200
C44_10 C 0.0301(5) 0.7749(5) 0.7154(8)
H17_10 H 0.0473 0.8070 0.7362
H18_10 H 0.0400 0.7536 0.7367
C45_10 C 0.1541(4) 0.8269(4) 0.4452(5)
H19_10 H 0.1366 0.8435 0.4302
H20_10 H 0.1350 0.7927 0.4310
C46_10 C 0.2031(4) 0.8499(5) 0.4104(7)
H21_10 H 0.2223 0.8360 0.4286
H22_10 H 0.2208 0.8851 0.4197
C47_10 C 0.1978(6) 0.8419(8) 0.3360(8)
H23_10 H 0.1786 0.8068 0.3272
H24_10 H 0.1797 0.8571 0.3179
C48_10 C 0.2452(7) 0.8622(8) 0.3001(10)
H25_10 H 0.2393 0.8558 0.2522
H26_10 H 0.2631 0.8468 0.3170
H27_10 H 0.2643 0.8971 0.3077
C49_10 C 0.1847(4) 0.8819(4) 0.5476(6)
H28_10 H 0.2185 0.8970 0.5315
H29_10 H 0.1856 0.8815 0.5969
C50_10 C 0.1638(5) 0.9137(4) 0.5262(7)
H30_10 H 0.1691 0.9203 0.4777
H31_10 H 0.1286 0.8964 0.5346
C51_10 C 0.1653(12) 0.9564(10) 0.6407(16)
H32_10 H 0.1814 0.9878 0.6636
H33_10 H 0.1703 0.9331 0.6660
H34_10 H 0.1306 0.9449 0.6375
C52_10 C 0.1882(6) 0.9626(5) 0.5651(8)
H35_10 H 0.2234 0.9748 0.5686
H36_10 H 0.1836 0.9867 0.5400
N1_10 N 0.1567(3) 0.8286(3) 0.5222(6)
H16_10 H 0.9952 0.7613 0.7210
H16_11 H 0.7662 0.0048 0.7210
C37_11 C 0.6197(5) 0.8161(4) 0.5504(6)
H1_11 H 0.6049 0.7815 0.5385
H2_11 H 0.6215 0.8184 0.5997
C38_11 C 0.5856(6) 0.8346(4) 0.5258(7)
H3_11 H 0.6020 0.8703 0.5299
H4_11 H 0.5771 0.8259 0.4784
C39_11 C 0.5393(6) 0.8107(5) 0.5697(8)
H5_11 H 0.5257 0.7752 0.5707
H6_11 H 0.5474 0.8230 0.6159
C40_11 C 0.5003(9) 0.8224(7) 0.5402(10)
H7_11 H 0.4713 0.8073 0.5681
H8_11 H 0.4921 0.8098 0.4947
H9_11 H 0.5137 0.8575 0.5397
C41_11 C 0.6987(6) 0.8972(4) 0.5486(7)
H10_11 H 0.6810 0.9132 0.5323
H11_11 H 0.7314 0.9144 0.5283
C42_11 C 0.7044(6) 0.9040(4) 0.6231(7)
H12_11 H 0.7186 0.8850 0.6413
H13_11 H 0.6723 0.8919 0.6439
C43_11 C 0.7371(7) 0.9575(5) 0.6404(7)
H14_11 H 0.7691 0.9688 0.6196
H15_11 H 0.7232 0.9761 0.6200
C44_11 C 0.7449(7) 0.9699(5) 0.7154(8)
H17_11 H 0.7598 0.9527 0.7362
H18_11 H 0.7137 0.9600 0.7367
C45_11 C 0.6729(6) 0.8459(4) 0.4452(5)
H19_11 H 0.7070 0.8634 0.4302
H20_11 H 0.6578 0.8650 0.4310
C46_11 C 0.6469(6) 0.7969(4) 0.4104(7)
H21_11 H 0.6138 0.7777 0.4286
H22_11 H 0.6644 0.7792 0.4197
C47_11 C 0.6442(10) 0.8022(6) 0.3360(8)
H23_11 H 0.6283 0.8214 0.3272
H24_11 H 0.6775 0.8203 0.3179
C48_11 C 0.6171(11) 0.7548(7) 0.3001(10)
H25_11 H 0.6166 0.7607 0.2522
H26_11 H 0.5838 0.7369 0.3170
H27_11 H 0.6329 0.7357 0.3077
C49_11 C 0.6973(6) 0.8153(4) 0.5476(6)
H28_11 H 0.6786 0.7815 0.5315
H29_11 H 0.6960 0.8144 0.5969
C50_11 C 0.7500(6) 0.8362(5) 0.5262(7)
H30_11 H 0.7513 0.8309 0.4777
H31_11 H 0.7679 0.8714 0.5346
C51_11 C 0.7912(16) 0.8347(12) 0.6407(16)
H32_11 H 0.8065 0.8186 0.6636
H33_11 H 0.7629 0.8297 0.6660
H34_11 H 0.8144 0.8694 0.6375
C52_11 C 0.7745(8) 0.8118(6) 0.5651(8)
H35_11 H 0.7515 0.7766 0.5686
H36_11 H 0.8032 0.8164 0.5400
N1_11 N 0.6720(4) 0.8433(3) 0.5222(6)
C37_12 C 0.1965(3) 0.3803(5) 0.5504(6)
H1_12 H 0.1767 0.3951 0.5385
H2_12 H 0.1970 0.3785 0.5997
C38_12 C 0.2491(4) 0.4144(6) 0.5258(7)
H3_12 H 0.2684 0.3980 0.5299
H4_12 H 0.2489 0.4229 0.4784
C39_12 C 0.2715(4) 0.4607(6) 0.5697(8)
H5_12 H 0.2496 0.4743 0.5707
H6_12 H 0.2757 0.4526 0.6159
C40_12 C 0.3222(5) 0.4997(9) 0.5402(10)
H7_12 H 0.3361 0.5287 0.5681
H8_12 H 0.3178 0.5079 0.4947
H9_12 H 0.3439 0.4863 0.5397
C41_12 C 0.1986(4) 0.3013(6) 0.5486(7)
H10_12 H 0.2323 0.3190 0.5323
H11_12 H 0.1831 0.2686 0.5283
C42_12 C 0.1997(5) 0.2956(6) 0.6231(7)
H12_12 H 0.1665 0.2814 0.6413
H13_12 H 0.2197 0.3277 0.6439
C43_12 C 0.2205(5) 0.2629(7) 0.6404(7)
H14_12 H 0.1998 0.2309 0.6196
H15_12 H 0.2530 0.2768 0.6200
C44_12 C 0.2251(5) 0.2551(7) 0.7154(8)
H16_12 H 0.2387 0.2338 0.7210
H17_12 H 0.1930 0.2402 0.7362
H18_12 H 0.2464 0.2863 0.7367
C45_12 C 0.1731(4) 0.3271(6) 0.4452(5)
H19_12 H 0.1565 0.2930 0.4302
H20_12 H 0.2073 0.3422 0.4310
C46_12 C 0.1501(5) 0.3531(6) 0.4104(7)
H21_12 H 0.1640 0.3862 0.4286
H22_12 H 0.1149 0.3356 0.4197
C47_12 C 0.1581(8) 0.3558(10) 0.3360(8)
H23_12 H 0.1932 0.3717 0.3272
H24_12 H 0.1429 0.3225 0.3179
C48_12 C 0.1378(8) 0.3829(11) 0.3001(10)
H25_12 H 0.1442 0.3834 0.2522
H26_12 H 0.1532 0.4162 0.3170
H27_12 H 0.1029 0.3671 0.3077
C49_12 C 0.1181(4) 0.3027(6) 0.5476(6)
H28_12 H 0.1030 0.3214 0.5315
H29_12 H 0.1185 0.3040 0.5969
C50_12 C 0.0863(4) 0.2500(6) 0.5262(7)
H30_12 H 0.0797 0.2487 0.4777
H31_12 H 0.1036 0.2321 0.5346
C51_12 C 0.0436(10) 0.2088(16) 0.6407(16)
H32_12 H 0.0122 0.1935 0.6636
H33_12 H 0.0669 0.2371 0.6660
H34_12 H 0.0551 0.1856 0.6375
C52_12 C 0.0374(5) 0.2255(8) 0.5651(8)
H35_12 H 0.0252 0.2485 0.5686
H36_12 H 0.0133 0.1968 0.5400
N1_12 N 0.1714(3) 0.3280(4) 0.5222(6)
H7_13 H 0.0027 0.1407 0.4015
H9_13 H 0.0105 0.1909 0.3731
C37_13 C 0.8631(3) 0.1495(4) 0.3838(6)
H1_13 H 0.8433 0.1149 0.3719
H2_13 H 0.8636 0.1518 0.4331
C38_13 C 0.9157(4) 0.1680(4) 0.3592(7)
H3_13 H 0.9350 0.2037 0.3633
H4_13 H 0.9155 0.1593 0.3118
C39_13 C 0.9381(4) 0.1441(5) 0.4031(8)
H5_13 H 0.9162 0.1086 0.4041
H6_13 H 0.9423 0.1564 0.4493
C40_13 C 0.9888(5) 0.1558(7) 0.3736(10)
H8_13 H 0.9844 0.1432 0.3281
C41_13 C 0.8652(4) 0.2306(4) 0.3820(7)
H10_13 H 0.8989 0.2466 0.3657
H11_13 H 0.8497 0.2478 0.3617
C42_13 C 0.8663(5) 0.2374(4) 0.4565(7)
H12_13 H 0.8331 0.2184 0.4747
H13_13 H 0.8863 0.2253 0.4773
C43_13 C 0.8871(5) 0.2909(5) 0.4738(7)
H14_13 H 0.8664 0.3022 0.4530
H15_13 H 0.9196 0.3095 0.4534
C44_13 C 0.8917(5) 0.3033(5) 0.5488(8)
H16_13 H 0.9053 0.3382 0.5544
H17_13 H 0.8596 0.2861 0.5696
H18_13 H 0.9130 0.2934 0.5701
C45_13 C 0.8397(4) 0.1793(4) 0.2786(5)
H19_13 H 0.8231 0.1968 0.2636
H20_13 H 0.8739 0.1984 0.2644
C46_13 C 0.8167(5) 0.1303(4) 0.2438(7)
H21_13 H 0.8306 0.1111 0.2620
H22_13 H 0.7815 0.1126 0.2531
C47_13 C 0.8247(8) 0.1356(6) 0.1694(8)
H23_13 H 0.8598 0.1548 0.1606
H24_13 H 0.8095 0.1537 0.1513
C48_13 C 0.8044(8) 0.0882(7) 0.1335(10)
H25_13 H 0.8108 0.0941 0.0856
H26_13 H 0.8198 0.0703 0.1504
H27_13 H 0.7695 0.0691 0.1411
C49_13 C 0.7847(4) 0.1487(4) 0.3810(6)
H28_13 H 0.7696 0.1149 0.3649
H29_13 H 0.7851 0.1478 0.4303
C50_13 C 0.7529(4) 0.1696(5) 0.3596(7)
H30_13 H 0.7463 0.1643 0.3111
H31_13 H 0.7702 0.2048 0.3680
C51_13 C 0.7102(10) 0.1681(12) 0.4741(16)
H32_13 H 0.6788 0.1520 0.4970
H33_13 H 0.7335 0.1631 0.4994
H34_13 H 0.7217 0.2028 0.4709
C52_13 C 0.7040(5) 0.1452(6) 0.3985(8)
H35_13 H 0.6918 0.1100 0.4020
H36_13 H 0.6799 0.1498 0.3734
N1_13 N 0.8380(3) 0.1767(3) 0.3556(6)
C37_14 C 0.8505(4) 0.7137(5) 0.3838(6)
H1_14 H 0.8851 0.7285 0.3719
H2_14 H 0.8482 0.7119 0.4331
C38_14 C 0.8320(4) 0.7478(6) 0.3592(7)
H3_14 H 0.7963 0.7314 0.3633
H4_14 H 0.8407 0.7563 0.3118
C39_14 C 0.8559(5) 0.7941(6) 0.4031(8)
H5_14 H 0.8914 0.8077 0.4041
H6_14 H 0.8436 0.7860 0.4493
C40_14 C 0.8442(7) 0.8331(9) 0.3736(10)
H7_14 H 0.8593 0.8621 0.4015
H8_14 H 0.8568 0.8413 0.3281
H9_14 H 0.8091 0.8197 0.3731
C41_14 C 0.7694(4) 0.6347(6) 0.3820(7)
H10_14 H 0.7534 0.6524 0.3657
H11_14 H 0.7522 0.6020 0.3617
C42_14 C 0.7626(4) 0.6290(6) 0.4565(7)
H12_14 H 0.7816 0.6148 0.4747
H13_14 H 0.7747 0.6611 0.4773
C43_14 C 0.7091(5) 0.5963(7) 0.4738(7)
H14_14 H 0.6978 0.5643 0.4530
H15_14 H 0.6905 0.6102 0.4534
C44_14 C 0.6967(5) 0.5885(7) 0.5488(8)
H16_14 H 0.6618 0.5672 0.5544
H17_14 H 0.7139 0.5736 0.5696
H18_14 H 0.7066 0.6197 0.5701
C45_14 C 0.8207(4) 0.6605(6) 0.2786(5)
H19_14 H 0.8032 0.6264 0.2636
H20_14 H 0.8016 0.6756 0.2644
C46_14 C 0.8697(4) 0.6865(6) 0.2438(7)
H21_14 H 0.8889 0.7196 0.2620
H22_14 H 0.8874 0.6690 0.2531
C47_14 C 0.8644(6) 0.6892(10) 0.1694(8)
H23_14 H 0.8452 0.7051 0.1606
H24_14 H 0.8463 0.6559 0.1513
C48_14 C 0.9118(7) 0.7163(11) 0.1335(10)
H25_14 H 0.9059 0.7168 0.0856
H26_14 H 0.9297 0.7496 0.1504
H27_14 H 0.9309 0.7005 0.1411
C49_14 C 0.8513(4) 0.6361(6) 0.3810(6)
H28_14 H 0.8851 0.6548 0.3649
H29_14 H 0.8522 0.6374 0.4303
C50_14 C 0.8304(5) 0.5834(6) 0.3596(7)
H30_14 H 0.8357 0.5821 0.3111
H31_14 H 0.7952 0.5655 0.3680
C51_14 C 0.8319(12) 0.5422(16) 0.4741(16)
H32_14 H 0.8480 0.5269 0.4970
H33_14 H 0.8369 0.5705 0.4994
H34_14 H 0.7972 0.5190 0.4709
C52_14 C 0.8548(6) 0.5589(8) 0.3985(8)
H35_14 H 0.8900 0.5819 0.4020
H36_14 H 0.8502 0.5302 0.3734
N1_14 N 0.8233(3) 0.6614(4) 0.3556(6)
C37_15 C 0.2863(5) 0.1369(3) 0.3838(6)
H1_15 H 0.2715 0.1567 0.3719
H2_15 H 0.2881 0.1364 0.4331
C38_15 C 0.2522(6) 0.0843(4) 0.3592(7)
H3_15 H 0.2686 0.0650 0.3633
H4_15 H 0.2437 0.0845 0.3118
C39_15 C 0.2059(6) 0.0619(4) 0.4031(8)
H5_15 H 0.1923 0.0838 0.4041
H6_15 H 0.2140 0.0577 0.4493
C40_15 C 0.1669(9) 0.0112(5) 0.3736(10)
H8_15 H 0.1587 0.0156 0.3281
C41_15 C 0.3653(6) 0.1348(4) 0.3820(7)
H10_15 H 0.3476 0.1011 0.3657
H11_15 H 0.3980 0.1503 0.3617
C42_15 C 0.3710(6) 0.1337(5) 0.4565(7)
H12_15 H 0.3852 0.1669 0.4747
H13_15 H 0.3389 0.1137 0.4773
C43_15 C 0.4037(7) 0.1129(5) 0.4738(7)
H14_15 H 0.4357 0.1336 0.4530
H15_15 H 0.3898 0.0804 0.4534
C44_15 C 0.4115(7) 0.1083(5) 0.5488(8)
H16_15 H 0.4328 0.0947 0.5544
H17_15 H 0.4264 0.1404 0.5696
H18_15 H 0.3803 0.0870 0.5701
C45_15 C 0.3395(6) 0.1603(4) 0.2786(5)
H19_15 H 0.3736 0.1769 0.2636
H20_15 H 0.3244 0.1261 0.2644
C46_15 C 0.3135(6) 0.1833(5) 0.2438(7)
H21_15 H 0.2804 0.1694 0.2620
H22_15 H 0.3310 0.2185 0.2531
C47_15 C 0.3108(10) 0.1753(8) 0.1694(8)
H23_15 H 0.2949 0.1402 0.1606
H24_15 H 0.3441 0.1905 0.1513
C48_15 C 0.2837(11) 0.1956(8) 0.1335(10)
H25_15 H 0.2832 0.1892 0.0856
H26_15 H 0.2504 0.1802 0.1504
H27_15 H 0.2995 0.2305 0.1411
C49_15 C 0.3639(6) 0.2153(4) 0.3810(6)
H28_15 H 0.3452 0.2304 0.3649
H29_15 H 0.3626 0.2149 0.4303
C50_15 C 0.4166(6) 0.2471(4) 0.3596(7)
H30_15 H 0.4179 0.2537 0.3111
H31_15 H 0.4345 0.2298 0.3680
C51_15 C 0.4578(16) 0.2898(10) 0.4741(16)
H32_15 H 0.4731 0.3212 0.4970
H33_15 H 0.4295 0.2665 0.4994
H34_15 H 0.4810 0.2783 0.4709
C52_15 C 0.4411(8) 0.2960(5) 0.3985(8)
H35_15 H 0.4181 0.3082 0.4020
H36_15 H 0.4698 0.3201 0.3734
N1_15 N 0.3386(4) 0.1620(3) 0.3556(6)
H7_15 H 0.1379 0.9973 0.4015
H9_15 H 0.1803 0.9895 0.3731
C44_16 C 0.6967(5) 0.1083(5) 0.0488(8)
H16_16 H 0.6618 0.0947 0.0544
H17_16 H 0.7139 0.1404 0.0696
H18_16 H 0.7066 0.0870 0.0701
C37_16 C 0.8505(4) 0.1369(3) 0.8838(6)
H1_16 H 0.8851 0.1567 0.8719
H2_16 H 0.8482 0.1364 0.9331
C38_16 C 0.8320(4) 0.0843(4) 0.8592(7)
H3_16 H 0.7963 0.0650 0.8633
H4_16 H 0.8407 0.0845 0.8118
C39_16 C 0.8559(5) 0.0619(4) 0.9031(8)
H5_16 H 0.8914 0.0838 0.9041
H6_16 H 0.8436 0.0577 0.9493
C40_16 C 0.8442(7) 0.0112(5) 0.8736(10)
H8_16 H 0.8568 0.0156 0.8281
C41_16 C 0.7694(4) 0.1348(4) 0.8820(7)
H10_16 H 0.7534 0.1011 0.8657
H11_16 H 0.7522 0.1503 0.8617
C42_16 C 0.7626(4) 0.1337(5) 0.9565(7)
H12_16 H 0.7816 0.1669 0.9747
H13_16 H 0.7747 0.1137 0.9773
C43_16 C 0.7091(5) 0.1129(5) 0.9738(7)
H14_16 H 0.6978 0.1336 0.9530
H15_16 H 0.6905 0.0804 0.9534
C45_16 C 0.8207(4) 0.1603(4) 0.7786(5)
H19_16 H 0.8032 0.1769 0.7636
H20_16 H 0.8016 0.1261 0.7644
C46_16 C 0.8697(4) 0.1833(5) 0.7438(7)
H21_16 H 0.8889 0.1694 0.7620
H22_16 H 0.8874 0.2185 0.7531
C47_16 C 0.8644(6) 0.1753(8) 0.6694(8)
H23_16 H 0.8452 0.1402 0.6606
H24_16 H 0.8463 0.1905 0.6513
C48_16 C 0.9118(7) 0.1956(8) 0.6335(10)
H25_16 H 0.9059 0.1892 0.5856
H26_16 H 0.9297 0.1802 0.6504
H27_16 H 0.9309 0.2305 0.6411
C49_16 C 0.8513(4) 0.2153(4) 0.8810(6)
H28_16 H 0.8851 0.2304 0.8649
H29_16 H 0.8522 0.2149 0.9303
C50_16 C 0.8304(5) 0.2471(4) 0.8596(7)
H30_16 H 0.8357 0.2537 0.8111
H31_16 H 0.7952 0.2298 0.8680
C51_16 C 0.8319(12) 0.2898(10) 0.9741(16)
H32_16 H 0.8480 0.3212 0.9970
H33_16 H 0.8369 0.2665 0.9994
H34_16 H 0.7972 0.2783 0.9709
C52_16 C 0.8548(6) 0.2960(5) 0.8985(8)
H35_16 H 0.8900 0.3082 0.9020
H36_16 H 0.8502 0.3201 0.8734
N1_16 N 0.8233(3) 0.1620(3) 0.8556(6)
H7_16 H 0.8593 0.9973 0.9015
H9_16 H 0.8091 0.9895 0.8731
C44_17 C 0.4115(7) 0.3033(5) 0.0488(8)
H16_17 H 0.4328 0.3382 0.0544
H17_17 H 0.4264 0.2861 0.0696
H18_17 H 0.3803 0.2934 0.0701
C37_17 C 0.2863(5) 0.1495(4) 0.8838(6)
H1_17 H 0.2715 0.1149 0.8719
H2_17 H 0.2881 0.1518 0.9331
C38_17 C 0.2522(6) 0.1680(4) 0.8592(7)
H3_17 H 0.2686 0.2037 0.8633
H4_17 H 0.2437 0.1593 0.8118
C39_17 C 0.2059(6) 0.1441(5) 0.9031(8)
H5_17 H 0.1923 0.1086 0.9041
H6_17 H 0.2140 0.1564 0.9493
C40_17 C 0.1669(9) 0.1558(7) 0.8736(10)
H7_17 H 0.1379 0.1407 0.9015
H8_17 H 0.1587 0.1432 0.8281
H9_17 H 0.1803 0.1909 0.8731
C41_17 C 0.3653(6) 0.2306(4) 0.8820(7)
H10_17 H 0.3476 0.2466 0.8657
H11_17 H 0.3980 0.2478 0.8617
C42_17 C 0.3710(6) 0.2374(4) 0.9565(7)
H12_17 H 0.3852 0.2184 0.9747
H13_17 H 0.3389 0.2253 0.9773
C43_17 C 0.4037(7) 0.2909(5) 0.9738(7)
H14_17 H 0.4357 0.3022 0.9530
H15_17 H 0.3898 0.3095 0.9534
C45_17 C 0.3395(6) 0.1793(4) 0.7786(5)
H19_17 H 0.3736 0.1968 0.7636
H20_17 H 0.3244 0.1984 0.7644
C46_17 C 0.3135(6) 0.1303(4) 0.7438(7)
H21_17 H 0.2804 0.1111 0.7620
H22_17 H 0.3310 0.1126 0.7531
C47_17 C 0.3108(10) 0.1356(6) 0.6694(8)
H23_17 H 0.2949 0.1548 0.6606
H24_17 H 0.3441 0.1537 0.6513
C48_17 C 0.2837(11) 0.0882(7) 0.6335(10)
H25_17 H 0.2832 0.0941 0.5856
H26_17 H 0.2504 0.0703 0.6504
H27_17 H 0.2995 0.0691 0.6411
C49_17 C 0.3639(6) 0.1487(4) 0.8810(6)
H28_17 H 0.3452 0.1149 0.8649
H29_17 H 0.3626 0.1478 0.9303
C50_17 C 0.4166(6) 0.1696(5) 0.8596(7)
H30_17 H 0.4179 0.1643 0.8111
H31_17 H 0.4345 0.2048 0.8680
C51_17 C 0.4578(16) 0.1681(12) 0.9741(16)
H32_17 H 0.4731 0.1520 0.9970
H33_17 H 0.4295 0.1631 0.9994
H34_17 H 0.4810 0.2028 0.9709
C52_17 C 0.4411(8) 0.1452(6) 0.8985(8)
H35_17 H 0.4181 0.1100 0.9020
H36_17 H 0.4698 0.1498 0.8734
N1_17 N 0.3386(4) 0.1767(3) 0.8556(6)
H7_18 H 0.0027 0.8621 0.9015
H9_18 H 0.0105 0.8197 0.8731
C44_18 C 0.8917(5) 0.5885(7) 0.0488(8)
H16_18 H 0.9053 0.5672 0.0544
H17_18 H 0.8596 0.5736 0.0696
H18_18 H 0.9130 0.6197 0.0701
C37_18 C 0.8631(3) 0.7137(5) 0.8838(6)
H1_18 H 0.8433 0.7285 0.8719
H2_18 H 0.8636 0.7119 0.9331
C38_18 C 0.9157(4) 0.7478(6) 0.8592(7)
H3_18 H 0.9350 0.7314 0.8633
H4_18 H 0.9155 0.7563 0.8118
C39_18 C 0.9381(4) 0.7941(6) 0.9031(8)
H5_18 H 0.9162 0.8077 0.9041
H6_18 H 0.9423 0.7860 0.9493
C40_18 C 0.9888(5) 0.8331(9) 0.8736(10)
H8_18 H 0.9844 0.8413 0.8281
C41_18 C 0.8652(4) 0.6347(6) 0.8820(7)
H10_18 H 0.8989 0.6524 0.8657
H11_18 H 0.8497 0.6020 0.8617
C42_18 C 0.8663(5) 0.6290(6) 0.9565(7)
H12_18 H 0.8331 0.6148 0.9747
H13_18 H 0.8863 0.6611 0.9773
C43_18 C 0.8871(5) 0.5963(7) 0.9738(7)
H14_18 H 0.8664 0.5643 0.9530
H15_18 H 0.9196 0.6102 0.9534
C45_18 C 0.8397(4) 0.6605(6) 0.7786(5)
H19_18 H 0.8231 0.6264 0.7636
H20_18 H 0.8739 0.6756 0.7644
C46_18 C 0.8167(5) 0.6865(6) 0.7438(7)
H21_18 H 0.8306 0.7196 0.7620
H22_18 H 0.7815 0.6690 0.7531
C47_18 C 0.8247(8) 0.6892(10) 0.6694(8)
H23_18 H 0.8598 0.7051 0.6606
H24_18 H 0.8095 0.6559 0.6513
C48_18 C 0.8044(8) 0.7163(11) 0.6335(10)
H25_18 H 0.8108 0.7168 0.5856
H26_18 H 0.8198 0.7496 0.6504
H27_18 H 0.7695 0.7005 0.6411
C49_18 C 0.7847(4) 0.6361(6) 0.8810(6)
H28_18 H 0.7696 0.6548 0.8649
H29_18 H 0.7851 0.6374 0.9303
C50_18 C 0.7529(4) 0.5834(6) 0.8596(7)
H30_18 H 0.7463 0.5821 0.8111
H31_18 H 0.7702 0.5655 0.8680
C51_18 C 0.7102(10) 0.5422(16) 0.9741(16)
H32_18 H 0.6788 0.5269 0.9970
H33_18 H 0.7335 0.5705 0.9994
H34_18 H 0.7217 0.5190 0.9709
C52_18 C 0.7040(5) 0.5589(8) 0.8985(8)
H35_18 H 0.6918 0.5819 0.9020
H36_18 H 0.6799 0.5302 0.8734
N1_18 N 0.8380(3) 0.6614(4) 0.8556(6)
loop_
_geom_bond_atom_site_label_1
_geom_bond_atom_site_label_2
_geom_bond_site_symmetry_1
_geom_bond_site_symmetry_2
F7 C21 1_555 1_555
C1 C2 1_555 1_555
C2 C3 1_555 1_555
C3 C4 1_555 1_555
C4 C5 1_555 1_555
C7 C8 1_555 1_555
C8 C9 1_555 1_555
C9 C10 1_555 1_555
C10 C11 1_555 1_555
C11 C12 1_555 1_555
C12 C7 1_555 1_555
F2 C3 1_555 1_555
F3 C9 1_555 1_555
F4 C12 1_555 1_555
O2 C2 1_555 1_555
O4 C4 1_555 1_555
O5 C7 1_555 1_555
O6 C8 1_555 1_555
O7 C10 1_555 1_555
O8 C11 1_555 1_555
C13 C14 1_555 1_555
C14 C15 1_555 1_555
C15 C16 1_555 1_555
C16 C17 1_555 1_555
C19 C20 1_555 1_555
C22 C23 1_555 1_555
C23 C24 1_555 1_555
C24 C19 1_555 1_555
F6 C15 1_555 1_555
F8 C24 1_555 1_555
O10 Fe2 1_555 1_555
O12 C16 1_555 1_555
O13 C19 1_555 1_555
O14 C20 1_555 1_555
O16 C23 1_555 1_555
C25 C26 1_555 1_555
C26 C27 1_555 1_555
C27 C28 1_555 1_555
C28 C29 1_555 1_555
C31 C32 1_555 1_555
C34 C35 1_555 1_555
C35 C36 1_555 1_555
C36 C31 1_555 1_555
F10 C27 1_555 1_555
F12 C36 1_555 1_555
O18 Fe2 1_555 1_555
O20 C28 1_555 1_555
O21 C31 1_555 1_555
O22 C32 1_555 1_555
O24 C35 1_555 1_555
Fe6 O7 1_555 1_555
Fe1 O4 1_555 1_555
Fe1 O5 1_555 1_555
Fe1 O6 1_555 1_555
Fe2 O2 1_555 1_555
O8 Fe6 1_555 1_555
C14 O10 1_555 1_555
Fe3 O12 1_555 1_555
Fe3 O13 1_555 1_555
Fe3 O14 1_555 1_555
O16 Fe7 1_555 1_555
C26 O18 1_555 1_555
Fe4 O20 1_555 1_555
Fe4 O21 1_555 1_555
Fe4 O22 1_555 1_555
O24 Fe5 1_555 1_555
C6 C1_2 1_555 1_555
F1 C6 1_555 1_555
O1 C1_2 1_555 1_555
C18 C13_2 1_555 1_555
F5 C18 1_555 1_555
C30 C25_2 1_555 1_555
F9 C30 1_555 1_555
C13_2 O9 1_555 1_555
C25_2 O17 1_555 1_555
F11 C33 1_555 1_555
C13_3 C14_2 1_555 1_555
C14_2 C15_2 1_555 1_555
C15_2 C16_2 1_555 1_555
C16_2 C17_2 1_555 1_555
C17_2 C18_2 1_555 1_555
C18_2 C13_3 1_555 1_555
C19_2 C20_2 1_555 1_555
C20_2 C21_2 1_555 1_555
C21_2 C22_2 1_555 1_555
C22_2 C23_2 1_555 1_555
C23_2 C24_2 1_555 1_555
C24_2 C19_2 1_555 1_555
F5_2 C18_2 1_555 1_555
F6_2 C15_2 1_555 1_555
F7_2 C21_2 1_555 1_555
F8_2 C24_2 1_555 1_555
Fe6 O11_2 1_555 1_555
O11_2 C17_2 1_555 1_555
O12_2 C16_2 1_555 1_555
O13_2 C19_2 1_555 1_555
O14_2 C20_2 1_555 1_555
O15_2 C22_2 1_555 1_555
O16_2 C23_2 1_555 1_555
Fe7_2 O15_2 1_555 1_555
C13_3 O9_2 1_555 1_555
C14_2 O10_2 1_555 1_555
Fe6 O12_2 1_555 1_555
Fe6 O13_2 1_555 1_555
Fe6 O14_2 1_555 1_555
O16_2 Fe7_2 1_555 1_555
C2_2 C3_2 1_555 1_555
C3_2 C4_2 1_555 1_555
F2_2 C3_2 1_555 1_555
F3_2 C9_2 1_555 1_555
O2_2 C2_2 1_555 1_555
O4_2 C4_2 1_555 1_555
Fe5 O4_2 1_555 1_555
Fe5 O6_2 1_555 1_555
C29_2 C30_2 1_555 1_555
C30_2 C25_3 1_555 1_555
C31_2 C32_2 1_555 1_555
C34_2 C35_2 1_555 1_555
C35_2 C36_2 1_555 1_555
C36_2 C31_2 1_555 1_555
F9_2 C30_2 1_555 1_555
F12_2 C36_2 1_555 1_555
O17_2 Fe2_2 1_555 1_555
O19_2 C29_2 1_555 1_555
O21_2 C31_2 1_555 1_555
O23_2 C34_2 1_555 1_555
O24_2 C35_2 1_555 1_555
Fe5_2 O23_2 1_555 1_555
C25_3 O17_2 1_555 1_555
O24_2 Fe5_2 1_555 1_555
C5_2 C6_2 1_555 1_555
C6_2 C1_3 1_555 1_555
C7_2 C8_2 1_555 1_555
C10_2 C11_2 1_555 1_555
C11_2 C12_2 1_555 1_555
C12_2 C7_2 1_555 1_555
F1_2 C6_2 1_555 1_555
F4_2 C12_2 1_555 1_555
O1_2 C1_3 1_555 1_555
O3_2 C5_2 1_555 1_555
O5_2 C7_2 1_555 1_555
O7_2 C10_2 1_555 1_555
O8_2 C11_2 1_555 1_555
C26_2 C27_2 1_555 1_555
C27_2 C28_2 1_555 1_555
F10_2 C27_2 1_555 1_555
F11_2 C33_2 1_555 1_555
O20_2 C28_2 1_555 1_555
Fe6_2 O7_2 1_555 1_555
O8_2 Fe6_2 1_555 1_555
C26_2 O18_2 1_555 1_555
Fe7 O20_2 1_555 1_555
Fe7 O22_2 1_555 1_555
O18_2 Fe2_3 1_555 1_555
O1_2 Fe2_3 1_555 1_555
O9_2 Fe2_4 1_555 1_555
O10_2 Fe2_4 1_555 1_555
C21_3 C22_3 1_555 1_555
C22_3 C23_3 1_555 1_555
F7_3 C21_3 1_555 1_555
O26 C22_3 1_555 1_555
O29 C23_3 1_555 1_555
C1_4 C2_3 1_555 1_555
C2_3 C3_3 1_555 1_555
C3_3 C4_3 1_555 1_555
C4_3 C5_3 1_555 1_555
C5_3 C6_3 1_555 1_555
C6_3 C1_4 1_555 1_555
C7_3 C8_3 1_555 1_555
C12_3 C7_3 1_555 1_555
F1_3 C6_3 1_555 1_555
F2_3 C3_3 1_555 1_555
F4_3 C12_3 1_555 1_555
Fe5_2 O3_3 1_555 1_555
Fe2_5 O1_3 1_555 1_555
O1_3 C1_4 1_555 1_555
O2_3 C2_3 1_555 1_555
O3_3 C5_3 1_555 1_555
O4_3 C4_3 1_555 1_555
O5_3 C7_3 1_555 1_555
O6_3 C8_3 1_555 1_555
C13_4 C14_3 1_555 1_555
C14_3 C15_3 1_555 1_555
C15_3 C16_3 1_555 1_555
C16_3 C17_3 1_555 1_555
C17_3 C18_3 1_555 1_555
C18_3 C13_4 1_555 1_555
C19_3 C20_3 1_555 1_555
C24_3 C19_3 1_555 1_555
F5_3 C18_3 1_555 1_555
F6_3 C15_3 1_555 1_555
F8_3 C24_3 1_555 1_555
Fe6_2 O11_3 1_555 1_555
O9_3 Fe2_5 1_555 1_555
O10_3 Fe2_5 1_555 1_555
O11_3 C17_3 1_555 1_555
O12_3 C16_3 1_555 1_555
O13_3 C19_3 1_555 1_555
O14_3 C20_3 1_555 1_555
C25_4 C26_3 1_555 1_555
C26_3 C27_3 1_555 1_555
C27_3 C28_3 1_555 1_555
C28_3 C29_3 1_555 1_555
C29_3 C30_3 1_555 1_555
C30_3 C25_4 1_555 1_555
C31_3 C32_3 1_555 1_555
C32_3 C33_3 1_555 1_555
C33_3 C34_3 1_555 1_555
C34_3 C35_3 1_555 1_555
C35_3 C36_3 1_555 1_555
C36_3 C31_3 1_555 1_555
F9_3 C30_3 1_555 1_555
F10_3 C27_3 1_555 1_555
F11_3 C33_3 1_555 1_555
F12_3 C36_3 1_555 1_555
Fe7_2 O19_3 1_555 1_555
O17_3 Fe2_5 1_555 1_555
O18_3 Fe2_5 1_555 1_555
O19_3 C29_3 1_555 1_555
O20_3 C28_3 1_555 1_555
O21_3 C31_3 1_555 1_555
O22_3 C32_3 1_555 1_555
O27 C34_3 1_555 1_555
O30 C35_3 1_555 1_555
Fe5_2 O4_3 1_555 1_555
Fe5_2 O5_3 1_555 1_555
Fe5_2 O6_3 1_555 1_555
Fe2_5 O2_3 1_555 1_555
C13_4 O9_3 1_555 1_555
C14_3 O10_3 1_555 1_555
Fe6_2 O12_3 1_555 1_555
Fe6_2 O13_3 1_555 1_555
Fe6_2 O14_3 1_555 1_555
C25_4 O17_3 1_555 1_555
C26_3 O18_3 1_555 1_555
Fe7_2 O20_3 1_555 1_555
Fe7_2 O21_3 1_555 1_555
Fe7_2 O22_3 1_555 1_555
C9_3 C10_3 1_555 1_555
C10_3 C11_3 1_555 1_555
F3_3 C9_3 1_555 1_555
O25 C10_3 1_555 1_555
O28 C11_3 1_555 1_555
F11_4 C33_4 1_555 1_555
C1_5 C2_4 1_555 1_555
C2_4 C3_4 1_555 1_555
C3_4 C4_4 1_555 1_555
C4_4 C5_4 1_555 1_555
C5_4 C6_4 1_555 1_555
C6_4 C1_5 1_555 1_555
C7_4 C8_4 1_555 1_555
C8_4 C9_4 1_555 1_555
C9_4 C10_4 1_555 1_555
C10_4 C11_4 1_555 1_555
C11_4 C12_4 1_555 1_555
C12_4 C7_4 1_555 1_555
F1_4 C6_4 1_555 1_555
F2_4 C3_4 1_555 1_555
F3_4 C9_4 1_555 1_555
F4_4 C12_4 1_555 1_555
Fe1_2 O3_4 1_555 1_555
Fe2_6 O1_4 1_555 1_555
O1_4 C1_5 1_555 1_555
O2_4 C2_4 1_555 1_555
O3_4 C5_4 1_555 1_555
O4_4 C4_4 1_555 1_555
O5_4 C7_4 1_555 1_555
O6_4 C8_4 1_555 1_555
O7_3 C10_4 1_555 1_555
O8_3 C11_4 1_555 1_555
C13_5 C14_4 1_555 1_555
C14_4 C15_4 1_555 1_555
C15_4 C16_4 1_555 1_555
C16_4 C17_4 1_555 1_555
C17_4 C18_4 1_555 1_555
C18_4 C13_5 1_555 1_555
C19_4 C20_4 1_555 1_555
C22_4 C23_4 1_555 1_555
C23_4 C24_4 1_555 1_555
C24_4 C19_4 1_555 1_555
F5_4 C18_4 1_555 1_555
F6_4 C15_4 1_555 1_555
F8_4 C24_4 1_555 1_555
Fe3_2 O11_4 1_555 1_555
O9_4 Fe2_6 1_555 1_555
O10_4 Fe2_6 1_555 1_555
O11_4 C17_4 1_555 1_555
O12_4 C16_4 1_555 1_555
O13_4 C19_4 1_555 1_555
O14_4 C20_4 1_555 1_555
O16_3 C23_4 1_555 1_555
C25_5 C26_4 1_555 1_555
C26_4 C27_4 1_555 1_555
C27_4 C28_4 1_555 1_555
C28_4 C29_4 1_555 1_555
C29_4 C30_4 1_555 1_555
C30_4 C25_5 1_555 1_555
C31_4 C32_4 1_555 1_555
C34_4 C35_4 1_555 1_555
C35_4 C36_4 1_555 1_555
C36_4 C31_4 1_555 1_555
F9_4 C30_4 1_555 1_555
F10_4 C27_4 1_555 1_555
F12_4 C36_4 1_555 1_555
Fe4_2 O19_4 1_555 1_555
O17_4 Fe2_6 1_555 1_555
O18_4 Fe2_6 1_555 1_555
O19_4 C29_4 1_555 1_555
O20_4 C28_4 1_555 1_555
O21_4 C31_4 1_555 1_555
O22_4 C32_4 1_555 1_555
O24_3 C35_4 1_555 1_555
Fe6_3 O7_3 1_555 1_555
O25_2 Fe3_2 1_555 1_555
O26_2 Fe4_2 1_555 1_555
O27_2 Fe1_2 1_555 1_555
O28_2 Fe3_2 1_555 1_555
O29_2 Fe4_2 1_555 1_555
O30_2 Fe1_2 1_555 1_555
Fe1_2 O4_4 1_555 1_555
Fe1_2 O5_4 1_555 1_555
Fe1_2 O6_4 1_555 1_555
Fe2_6 O2_4 1_555 1_555
O8_3 Fe6_3 1_555 1_555
C13_5 O9_4 1_555 1_555
C14_4 O10_4 1_555 1_555
Fe3_2 O12_4 1_555 1_555
Fe3_2 O13_4 1_555 1_555
Fe3_2 O14_4 1_555 1_555
O16_3 Fe7_3 1_555 1_555
C25_5 O17_4 1_555 1_555
C26_4 O18_4 1_555 1_555
Fe4_2 O20_4 1_555 1_555
Fe4_2 O21_4 1_555 1_555
Fe4_2 O22_4 1_555 1_555
O24_3 Fe5_3 1_555 1_555
C10_5 C11_5 1_555 1_555
C11_5 C12_5 1_555 1_555
F4_5 C12_5 1_555 1_555
O7_4 C10_5 1_555 1_555
O8_4 C11_5 1_555 1_555
F11_5 C33_5 1_555 1_555
Fe6_4 O7_4 1_555 1_555
O8_4 Fe6_4 1_555 1_555
C5_5 C6_5 1_555 1_555
C6_5 C1_6 1_555 1_555
C7_5 C8_5 1_555 1_555
F1_5 C6_5 1_555 1_555
O1_5 C1_6 1_555 1_555
O3_5 C5_5 1_555 1_555
O5_5 C7_5 1_555 1_555
C26_5 C27_5 1_555 1_555
C27_5 C28_5 1_555 1_555
F10_5 C27_5 1_555 1_555
O20_5 C28_5 1_555 1_555
C26_5 O18_5 1_555 1_555
Fe7_3 O20_5 1_555 1_555
Fe7_3 O22_5 1_555 1_555
C2_5 C3_5 1_555 1_555
C3_5 C4_5 1_555 1_555
F2_5 C3_5 1_555 1_555
O2_5 C2_5 1_555 1_555
O4_5 C4_5 1_555 1_555
Fe5_3 O4_5 1_555 1_555
Fe5_3 O6_5 1_555 1_555
C34_5 C35_5 1_555 1_555
C35_5 C36_5 1_555 1_555
F12_5 C36_5 1_555 1_555
O23_4 C34_5 1_555 1_555
O24_4 C35_5 1_555 1_555
Fe5_4 O23_4 1_555 1_555
O24_4 Fe5_4 1_555 1_555
C21_4 C22_5 1_555 1_555
C22_5 C23_5 1_555 1_555
C23_5 C24_5 1_555 1_555
F7_4 C21_4 1_555 1_555
F8_5 C24_5 1_555 1_555
O15_3 C22_5 1_555 1_555
O16_4 C23_5 1_555 1_555
Fe7_4 O15_3 1_555 1_555
O16_4 Fe7_4 1_555 1_555
C13_6 C14_5 1_555 1_555
C14_5 C15_5 1_555 1_555
C15_5 C16_5 1_555 1_555
C16_5 C17_5 1_555 1_555
C17_5 C18_5 1_555 1_555
C18_5 C13_6 1_555 1_555
C19_5 C20_5 1_555 1_555
F5_5 C18_5 1_555 1_555
F6_5 C15_5 1_555 1_555
Fe6_3 O11_5 1_555 1_555
O11_5 C17_5 1_555 1_555
O12_5 C16_5 1_555 1_555
O13_5 C19_5 1_555 1_555
O14_5 C20_5 1_555 1_555
C13_6 O9_5 1_555 1_555
C14_5 O10_5 1_555 1_555
Fe6_3 O12_5 1_555 1_555
Fe6_3 O13_5 1_555 1_555
Fe6_3 O14_5 1_555 1_555
O18_5 Fe2_7 1_555 1_555
O1_5 Fe2_7 1_555 1_555
O9_5 Fe2_8 1_555 1_555
O10_5 Fe2_8 1_555 1_555
C9_5 C10_6 1_555 1_555
C10_6 C11_6 1_555 1_555
F3_5 C9_5 1_555 1_555
O25_2 C10_6 1_555 1_555
O28_2 C11_6 1_555 1_555
C1_7 C2_6 1_555 1_555
C2_6 C3_6 1_555 1_555
C3_6 C4_6 1_555 1_555
C4_6 C5_6 1_555 1_555
C5_6 C6_6 1_555 1_555
C6_6 C1_7 1_555 1_555
C7_6 C8_6 1_555 1_555
C12_6 C7_6 1_555 1_555
F1_6 C6_6 1_555 1_555
F2_6 C3_6 1_555 1_555
F4_6 C12_6 1_555 1_555
Fe5_4 O3_6 1_555 1_555
Fe2_9 O1_6 1_555 1_555
O1_6 C1_7 1_555 1_555
O2_6 C2_6 1_555 1_555
O3_6 C5_6 1_555 1_555
O4_6 C4_6 1_555 1_555
O5_6 C7_6 1_555 1_555
O6_6 C8_6 1_555 1_555
C13_7 C14_6 1_555 1_555
C14_6 C15_6 1_555 1_555
C15_6 C16_6 1_555 1_555
C16_6 C17_6 1_555 1_555
C17_6 C18_6 1_555 1_555
C18_6 C13_7 1_555 1_555
C19_6 C20_6 1_555 1_555
C24_6 C19_6 1_555 1_555
F5_6 C18_6 1_555 1_555
F6_6 C15_6 1_555 1_555
F8_6 C24_6 1_555 1_555
Fe6_4 O11_6 1_555 1_555
O9_6 Fe2_9 1_555 1_555
O10_6 Fe2_9 1_555 1_555
O11_6 C17_6 1_555 1_555
O12_6 C16_6 1_555 1_555
O13_6 C19_6 1_555 1_555
O14_6 C20_6 1_555 1_555
C25_6 C26_6 1_555 1_555
C26_6 C27_6 1_555 1_555
C27_6 C28_6 1_555 1_555
C28_6 C29_5 1_555 1_555
C29_5 C30_5 1_555 1_555
C30_5 C25_6 1_555 1_555
C31_5 C32_5 1_555 1_555
C32_5 C33_6 1_555 1_555
C33_6 C34_6 1_555 1_555
C34_6 C35_6 1_555 1_555
C35_6 C36_6 1_555 1_555
C36_6 C31_5 1_555 1_555
F9_5 C30_5 1_555 1_555
F10_6 C27_6 1_555 1_555
F11_6 C33_6 1_555 1_555
F12_6 C36_6 1_555 1_555
Fe7_4 O19_5 1_555 1_555
O17_5 Fe2_9 1_555 1_555
O18_6 Fe2_9 1_555 1_555
O19_5 C29_5 1_555 1_555
O20_6 C28_6 1_555 1_555
O21_5 C31_5 1_555 1_555
O22_6 C32_5 1_555 1_555
O27_2 C34_6 1_555 1_555
O30_2 C35_6 1_555 1_555
Fe5_4 O4_6 1_555 1_555
Fe5_4 O5_6 1_555 1_555
Fe5_4 O6_6 1_555 1_555
Fe2_9 O2_6 1_555 1_555
C13_7 O9_6 1_555 1_555
C14_6 O10_6 1_555 1_555
Fe6_4 O12_6 1_555 1_555
Fe6_4 O13_6 1_555 1_555
Fe6_4 O14_6 1_555 1_555
C25_6 O17_5 1_555 1_555
C26_6 O18_6 1_555 1_555
Fe7_4 O20_6 1_555 1_555
Fe7_4 O21_5 1_555 1_555
Fe7_4 O22_6 1_555 1_555
C21_5 C22_6 1_555 1_555
C22_6 C23_6 1_555 1_555
F7_5 C21_5 1_555 1_555
O26_2 C22_6 1_555 1_555
O29_2 C23_6 1_555 1_555
F7_6 C21_6 1_555 1_555
C29_6 C30_6 1_555 1_555
C30_6 C25_7 1_555 1_555
C31_6 C32_6 1_555 1_555
F9_6 C30_6 1_555 1_555
O17_6 Fe2_10 1_555 1_555
O19_6 C29_6 1_555 1_555
O21_6 C31_6 1_555 1_555
C25_7 O17_6 1_555 1_555
F3_6 C9_6 1_555 1_555
C37 H1 1_555 1_555
H2 C37 1_555 1_555
C38 C37 1_555 1_555
H3 C38 1_555 1_555
H4 C38 1_555 1_555
C39 C38 1_555 1_555
H5 C39 1_555 1_555
H6 C39 1_555 1_555
C40 C39 1_555 1_555
H7 C40 1_555 1_555
H8 C40 1_555 1_555
H9 C40 1_555 1_555
C41 H10 1_555 1_555
H11 C41 1_555 1_555
C42 C41 1_555 1_555
H12 C42 1_555 1_555
H13 C42 1_555 1_555
C43 C42 1_555 1_555
H14 C43 1_555 1_555
H15 C43 1_555 1_555
C44 C43 1_555 1_555
H16 C44 1_555 1_555
H17 C44 1_555 1_555
H18 C44 1_555 1_555
C45 H19 1_555 1_555
H20 C45 1_555 1_555
C46 C45 1_555 1_555
H21 C46 1_555 1_555
H22 C46 1_555 1_555
C47 C46 1_555 1_555
H23 C47 1_555 1_555
H24 C47 1_555 1_555
C48 C47 1_555 1_555
H25 C48 1_555 1_555
H26 C48 1_555 1_555
H27 C48 1_555 1_555
C49 H28 1_555 1_555
H29 C49 1_555 1_555
C50 C49 1_555 1_555
H30 C50 1_555 1_555
H31 C50 1_555 1_555
C51 H32 1_555 1_555
H33 C51 1_555 1_555
H34 C51 1_555 1_555
C52 C50 1_555 1_555
H35 C52 1_555 1_555
H36 C52 1_555 1_555
N1 C37 1_555 1_555
C41 N1 1_555 1_555
C45 N1 1_555 1_555
C49 N1 1_555 1_555
C51 C52 1_555 1_555
C37_2 H1_2 1_555 1_555
H2_2 C37_2 1_555 1_555
C38_2 C37_2 1_555 1_555
H3_2 C38_2 1_555 1_555
H4_2 C38_2 1_555 1_555
C39_2 C38_2 1_555 1_555
H5_2 C39_2 1_555 1_555
H6_2 C39_2 1_555 1_555
C40_2 C39_2 1_555 1_555
H7_2 C40_2 1_555 1_555
H8_2 C40_2 1_555 1_555
H9_2 C40_2 1_555 1_555
H21_2 C46_2 1_555 1_555
H22_2 C46_2 1_555 1_555
C47_2 C46_2 1_555 1_555
H23_2 C47_2 1_555 1_555
C48_2 C47_2 1_555 1_555
H25_2 C48_2 1_555 1_555
H26_2 C48_2 1_555 1_555
H27_2 C48_2 1_555 1_555
C41_2 H10_2 1_555 1_555
H11_2 C41_2 1_555 1_555
C42_2 C41_2 1_555 1_555
H12_2 C42_2 1_555 1_555
H13_2 C42_2 1_555 1_555
C43_2 C42_2 1_555 1_555
H14_2 C43_2 1_555 1_555
H15_2 C43_2 1_555 1_555
C44_2 C43_2 1_555 1_555
H16_2 C44_2 1_555 1_555
H17_2 C44_2 1_555 1_555
H18_2 C44_2 1_555 1_555
C45_2 H19_2 1_555 1_555
C49_2 H28_2 1_555 1_555
H29_2 C49_2 1_555 1_555
C50_2 C49_2 1_555 1_555
H30_2 C50_2 1_555 1_555
H31_2 C50_2 1_555 1_555
C51_2 H32_2 1_555 1_555
H33_2 C51_2 1_555 1_555
H34_2 C51_2 1_555 1_555
C52_2 C50_2 1_555 1_555
H35_2 C52_2 1_555 1_555
H36_2 C52_2 1_555 1_555
C41_2 N1_2 1_555 1_555
C45_2 N1_2 1_555 1_555
C49_2 N1_2 1_555 1_555
C51_2 C52_2 1_555 1_555
C41_3 H10_3 1_555 1_555
H11_3 C41_3 1_555 1_555
C42_3 C41_3 1_555 1_555
H12_3 C42_3 1_555 1_555
H13_3 C42_3 1_555 1_555
C43_3 C42_3 1_555 1_555
H14_3 C43_3 1_555 1_555
H15_3 C43_3 1_555 1_555
C44_3 C43_3 1_555 1_555
H16_3 C44_3 1_555 1_555
H17_3 C44_3 1_555 1_555
H18_3 C44_3 1_555 1_555
C45_3 H19_3 1_555 1_555
C49_3 H28_3 1_555 1_555
H29_3 C49_3 1_555 1_555
C50_3 C49_3 1_555 1_555
H30_3 C50_3 1_555 1_555
H31_3 C50_3 1_555 1_555
C51_3 H32_3 1_555 1_555
H33_3 C51_3 1_555 1_555
H34_3 C51_3 1_555 1_555
C52_3 C50_3 1_555 1_555
H35_3 C52_3 1_555 1_555
H36_3 C52_3 1_555 1_555
C41_3 N1_3 1_555 1_555
C45_3 N1_3 1_555 1_555
C49_3 N1_3 1_555 1_555
C51_3 C52_3 1_555 1_555
C37_3 H1_3 1_555 1_555
H2_3 C37_3 1_555 1_555
C38_3 C37_3 1_555 1_555
H3_3 C38_3 1_555 1_555
H4_3 C38_3 1_555 1_555
C39_3 C38_3 1_555 1_555
H5_3 C39_3 1_555 1_555
H6_3 C39_3 1_555 1_555
C40_3 C39_3 1_555 1_555
H7_3 C40_3 1_555 1_555
H8_3 C40_3 1_555 1_555
H9_3 C40_3 1_555 1_555
H21_3 C46_3 1_555 1_555
H22_3 C46_3 1_555 1_555
C47_3 C46_3 1_555 1_555
H23_3 C47_3 1_555 1_555
C48_3 C47_3 1_555 1_555
H25_3 C48_3 1_555 1_555
H26_3 C48_3 1_555 1_555
H27_3 C48_3 1_555 1_555
C37_4 H1_4 1_555 1_555
H2_4 C37_4 1_555 1_555
C38_4 C37_4 1_555 1_555
H3_4 C38_4 1_555 1_555
H4_4 C38_4 1_555 1_555
C39_4 C38_4 1_555 1_555
H5_4 C39_4 1_555 1_555
H6_4 C39_4 1_555 1_555
C40_4 C39_4 1_555 1_555
H7_4 C40_4 1_555 1_555
H8_4 C40_4 1_555 1_555
H9_4 C40_4 1_555 1_555
C41_4 H10_4 1_555 1_555
H11_4 C41_4 1_555 1_555
C42_4 C41_4 1_555 1_555
H12_4 C42_4 1_555 1_555
H13_4 C42_4 1_555 1_555
C43_4 C42_4 1_555 1_555
H14_4 C43_4 1_555 1_555
H15_4 C43_4 1_555 1_555
C44_4 C43_4 1_555 1_555
H16_4 C44_4 1_555 1_555
H17_4 C44_4 1_555 1_555
H18_4 C44_4 1_555 1_555
C45_4 H19_4 1_555 1_555
H20_4 C45_4 1_555 1_555
C46_4 C45_4 1_555 1_555
H21_4 C46_4 1_555 1_555
H22_4 C46_4 1_555 1_555
C47_4 C46_4 1_555 1_555
C49_4 H28_4 1_555 1_555
H29_4 C49_4 1_555 1_555
C50_4 C49_4 1_555 1_555
H30_4 C50_4 1_555 1_555
H31_4 C50_4 1_555 1_555
C51_4 H32_4 1_555 1_555
H33_4 C51_4 1_555 1_555
H34_4 C51_4 1_555 1_555
C52_4 C50_4 1_555 1_555
H35_4 C52_4 1_555 1_555
H36_4 C52_4 1_555 1_555
N1_4 C37_4 1_555 1_555
C41_4 N1_4 1_555 1_555
C45_4 N1_4 1_555 1_555
C49_4 N1_4 1_555 1_555
C51_4 C52_4 1_555 1_555
H25_4 C48_4 1_555 1_555
H26_4 C48_4 1_555 1_555
H27_4 C48_4 1_555 1_555
C41_5 H10_5 1_555 1_555
H11_5 C41_5 1_555 1_555
C42_5 C41_5 1_555 1_555
H12_5 C42_5 1_555 1_555
H13_5 C42_5 1_555 1_555
C43_5 C42_5 1_555 1_555
H14_5 C43_5 1_555 1_555
H15_5 C43_5 1_555 1_555
C44_5 C43_5 1_555 1_555
H16_5 C44_5 1_555 1_555
H17_5 C44_5 1_555 1_555
H18_5 C44_5 1_555 1_555
C45_5 H19_5 1_555 1_555
C49_5 H28_5 1_555 1_555
H29_5 C49_5 1_555 1_555
C50_5 C49_5 1_555 1_555
H30_5 C50_5 1_555 1_555
H31_5 C50_5 1_555 1_555
C51_5 H32_5 1_555 1_555
H33_5 C51_5 1_555 1_555
H34_5 C51_5 1_555 1_555
C52_5 C50_5 1_555 1_555
H35_5 C52_5 1_555 1_555
H36_5 C52_5 1_555 1_555
C41_5 N1_5 1_555 1_555
C45_5 N1_5 1_555 1_555
C49_5 N1_5 1_555 1_555
C51_5 C52_5 1_555 1_555
C37_5 H1_5 1_555 1_555
H2_5 C37_5 1_555 1_555
C38_5 C37_5 1_555 1_555
H3_5 C38_5 1_555 1_555
H4_5 C38_5 1_555 1_555
C39_5 C38_5 1_555 1_555
H5_5 C39_5 1_555 1_555
H6_5 C39_5 1_555 1_555
C40_5 C39_5 1_555 1_555
H7_5 C40_5 1_555 1_555
H8_5 C40_5 1_555 1_555
H9_5 C40_5 1_555 1_555
H21_5 C46_5 1_555 1_555
H22_5 C46_5 1_555 1_555
C47_5 C46_5 1_555 1_555
H25_5 C48_5 1_555 1_555
H26_5 C48_5 1_555 1_555
H27_5 C48_5 1_555 1_555
C37_6 H1_6 1_555 1_555
H2_6 C37_6 1_555 1_555
C38_6 C37_6 1_555 1_555
H3_6 C38_6 1_555 1_555
H4_6 C38_6 1_555 1_555
C39_6 C38_6 1_555 1_555
H5_6 C39_6 1_555 1_555
H6_6 C39_6 1_555 1_555
C40_6 C39_6 1_555 1_555
H7_6 C40_6 1_555 1_555
H8_6 C40_6 1_555 1_555
H9_6 C40_6 1_555 1_555
H21_6 C46_6 1_555 1_555
H22_6 C46_6 1_555 1_555
C47_6 C46_6 1_555 1_555
H25_6 C48_6 1_555 1_555
H26_6 C48_6 1_555 1_555
H27_6 C48_6 1_555 1_555
C41_6 H10_6 1_555 1_555
H11_6 C41_6 1_555 1_555
C42_6 C41_6 1_555 1_555
H12_6 C42_6 1_555 1_555
H13_6 C42_6 1_555 1_555
C43_6 C42_6 1_555 1_555
H14_6 C43_6 1_555 1_555
H15_6 C43_6 1_555 1_555
C44_6 C43_6 1_555 1_555
H16_6 C44_6 1_555 1_555
H17_6 C44_6 1_555 1_555
H18_6 C44_6 1_555 1_555
C45_6 H19_6 1_555 1_555
C49_6 H28_6 1_555 1_555
H29_6 C49_6 1_555 1_555
C50_6 C49_6 1_555 1_555
H30_6 C50_6 1_555 1_555
H31_6 C50_6 1_555 1_555
C51_6 H32_6 1_555 1_555
H33_6 C51_6 1_555 1_555
H34_6 C51_6 1_555 1_555
C52_6 C50_6 1_555 1_555
H35_6 C52_6 1_555 1_555
H36_6 C52_6 1_555 1_555
C41_6 N1_6 1_555 1_555
C45_6 N1_6 1_555 1_555
C49_6 N1_6 1_555 1_555
C51_6 C52_6 1_555 1_555
C37_7 H1_7 1_555 1_555
H2_7 C37_7 1_555 1_555
C38_7 C37_7 1_555 1_555
H3_7 C38_7 1_555 1_555
C39_7 C38_7 1_555 1_555
H5_7 C39_7 1_555 1_555
H6_7 C39_7 1_555 1_555
C40_7 C39_7 1_555 1_555
H7_7 C40_7 1_555 1_555
H9_7 C40_7 1_555 1_555
C41_7 H10_7 1_555 1_555
H11_7 C41_7 1_555 1_555
C42_7 C41_7 1_555 1_555
H12_7 C42_7 1_555 1_555
H13_7 C42_7 1_555 1_555
C43_7 C42_7 1_555 1_555
H14_7 C43_7 1_555 1_555
H15_7 C43_7 1_555 1_555
C44_7 C43_7 1_555 1_555
H17_7 C44_7 1_555 1_555
H18_7 C44_7 1_555 1_555
C49_7 H28_7 1_555 1_555
H29_7 C49_7 1_555 1_555
C50_7 C49_7 1_555 1_555
H31_7 C50_7 1_555 1_555
C51_7 H32_7 1_555 1_555
H33_7 C51_7 1_555 1_555
H34_7 C51_7 1_555 1_555
C52_7 C50_7 1_555 1_555
H35_7 C52_7 1_555 1_555
H36_7 C52_7 1_555 1_555
N1_7 C37_7 1_555 1_555
C41_7 N1_7 1_555 1_555
C49_7 N1_7 1_555 1_555
C51_7 C52_7 1_555 1_555
C45_7 H19_7 1_555 1_555
H20_7 C45_7 1_555 1_555
C46_7 C45_7 1_555 1_555
H21_7 C46_7 1_555 1_555
H22_7 C46_7 1_555 1_555
C47_7 C46_7 1_555 1_555
H23_7 C47_7 1_555 1_555
H24_7 C47_7 1_555 1_555
C48_7 C47_7 1_555 1_555
H25_7 C48_7 1_555 1_555
H26_7 C48_7 1_555 1_555
H27_7 C48_7 1_555 1_555
C37_8 H1_8 1_555 1_555
H2_8 C37_8 1_555 1_555
C38_8 C37_8 1_555 1_555
H3_8 C38_8 1_555 1_555
C39_8 C38_8 1_555 1_555
H5_8 C39_8 1_555 1_555
H6_8 C39_8 1_555 1_555
C40_8 C39_8 1_555 1_555
H7_8 C40_8 1_555 1_555
H9_8 C40_8 1_555 1_555
C41_8 H10_8 1_555 1_555
H11_8 C41_8 1_555 1_555
C42_8 C41_8 1_555 1_555
H12_8 C42_8 1_555 1_555
H13_8 C42_8 1_555 1_555
C43_8 C42_8 1_555 1_555
H14_8 C43_8 1_555 1_555
H15_8 C43_8 1_555 1_555
C44_8 C43_8 1_555 1_555
H17_8 C44_8 1_555 1_555
H18_8 C44_8 1_555 1_555
C49_8 H28_8 1_555 1_555
H29_8 C49_8 1_555 1_555
C50_8 C49_8 1_555 1_555
H31_8 C50_8 1_555 1_555
C51_8 H32_8 1_555 1_555
H33_8 C51_8 1_555 1_555
H34_8 C51_8 1_555 1_555
C52_8 C50_8 1_555 1_555
H35_8 C52_8 1_555 1_555
H36_8 C52_8 1_555 1_555
N1_8 C37_8 1_555 1_555
C41_8 N1_8 1_555 1_555
C49_8 N1_8 1_555 1_555
C51_8 C52_8 1_555 1_555
C45_8 H19_8 1_555 1_555
H20_8 C45_8 1_555 1_555
C46_8 C45_8 1_555 1_555
H21_8 C46_8 1_555 1_555
H22_8 C46_8 1_555 1_555
C47_8 C46_8 1_555 1_555
H23_8 C47_8 1_555 1_555
H24_8 C47_8 1_555 1_555
C48_8 C47_8 1_555 1_555
H25_8 C48_8 1_555 1_555
H26_8 C48_8 1_555 1_555
H27_8 C48_8 1_555 1_555
C37_9 H1_9 1_555 1_555
H2_9 C37_9 1_555 1_555
C38_9 C37_9 1_555 1_555
H3_9 C38_9 1_555 1_555
C39_9 C38_9 1_555 1_555
H5_9 C39_9 1_555 1_555
H6_9 C39_9 1_555 1_555
C40_9 C39_9 1_555 1_555
H7_9 C40_9 1_555 1_555
H9_9 C40_9 1_555 1_555
C41_9 H10_9 1_555 1_555
H11_9 C41_9 1_555 1_555
C42_9 C41_9 1_555 1_555
H12_9 C42_9 1_555 1_555
H13_9 C42_9 1_555 1_555
C43_9 C42_9 1_555 1_555
H14_9 C43_9 1_555 1_555
H15_9 C43_9 1_555 1_555
C44_9 C43_9 1_555 1_555
H16_9 C44_9 1_555 1_555
H17_9 C44_9 1_555 1_555
H18_9 C44_9 1_555 1_555
C49_9 H28_9 1_555 1_555
H29_9 C49_9 1_555 1_555
C50_9 C49_9 1_555 1_555
H31_9 C50_9 1_555 1_555
C51_9 H32_9 1_555 1_555
H33_9 C51_9 1_555 1_555
H34_9 C51_9 1_555 1_555
C52_9 C50_9 1_555 1_555
H35_9 C52_9 1_555 1_555
H36_9 C52_9 1_555 1_555
N1_9 C37_9 1_555 1_555
C41_9 N1_9 1_555 1_555
C49_9 N1_9 1_555 1_555
C51_9 C52_9 1_555 1_555
C45_9 H19_9 1_555 1_555
H20_9 C45_9 1_555 1_555
C46_9 C45_9 1_555 1_555
H21_9 C46_9 1_555 1_555
H22_9 C46_9 1_555 1_555
C47_9 C46_9 1_555 1_555
H23_9 C47_9 1_555 1_555
H24_9 C47_9 1_555 1_555
C48_9 C47_9 1_555 1_555
H25_9 C48_9 1_555 1_555
H26_9 C48_9 1_555 1_555
H27_9 C48_9 1_555 1_555
C37_10 H1_10 1_555 1_555
H2_10 C37_10 1_555 1_555
C38_10 C37_10 1_555 1_555
H3_10 C38_10 1_555 1_555
H4_10 C38_10 1_555 1_555
C39_10 C38_10 1_555 1_555
H5_10 C39_10 1_555 1_555
H6_10 C39_10 1_555 1_555
C40_10 C39_10 1_555 1_555
H7_10 C40_10 1_555 1_555
H8_10 C40_10 1_555 1_555
H9_10 C40_10 1_555 1_555
C41_10 H10_10 1_555 1_555
H11_10 C41_10 1_555 1_555
C42_10 C41_10 1_555 1_555
H12_10 C42_10 1_555 1_555
H13_10 C42_10 1_555 1_555
C43_10 C42_10 1_555 1_555
H14_10 C43_10 1_555 1_555
H15_10 C43_10 1_555 1_555
C44_10 C43_10 1_555 1_555
H17_10 C44_10 1_555 1_555
H18_10 C44_10 1_555 1_555
C45_10 H19_10 1_555 1_555
H20_10 C45_10 1_555 1_555
C46_10 C45_10 1_555 1_555
H21_10 C46_10 1_555 1_555
H22_10 C46_10 1_555 1_555
C47_10 C46_10 1_555 1_555
H23_10 C47_10 1_555 1_555
H24_10 C47_10 1_555 1_555
C48_10 C47_10 1_555 1_555
H25_10 C48_10 1_555 1_555
H26_10 C48_10 1_555 1_555
H27_10 C48_10 1_555 1_555
C49_10 H28_10 1_555 1_555
H29_10 C49_10 1_555 1_555
C50_10 C49_10 1_555 1_555
H30_10 C50_10 1_555 1_555
H31_10 C50_10 1_555 1_555
C51_10 H32_10 1_555 1_555
H33_10 C51_10 1_555 1_555
H34_10 C51_10 1_555 1_555
C52_10 C50_10 1_555 1_555
H35_10 C52_10 1_555 1_555
H36_10 C52_10 1_555 1_555
N1_10 C37_10 1_555 1_555
C41_10 N1_10 1_555 1_555
C45_10 N1_10 1_555 1_555
C49_10 N1_10 1_555 1_555
C51_10 C52_10 1_555 1_555
C37_11 H1_11 1_555 1_555
H2_11 C37_11 1_555 1_555
C38_11 C37_11 1_555 1_555
H3_11 C38_11 1_555 1_555
H4_11 C38_11 1_555 1_555
C39_11 C38_11 1_555 1_555
H5_11 C39_11 1_555 1_555
H6_11 C39_11 1_555 1_555
C40_11 C39_11 1_555 1_555
H7_11 C40_11 1_555 1_555
H8_11 C40_11 1_555 1_555
H9_11 C40_11 1_555 1_555
C41_11 H10_11 1_555 1_555
H11_11 C41_11 1_555 1_555
C42_11 C41_11 1_555 1_555
H12_11 C42_11 1_555 1_555
H13_11 C42_11 1_555 1_555
C43_11 C42_11 1_555 1_555
H14_11 C43_11 1_555 1_555
H15_11 C43_11 1_555 1_555
C44_11 C43_11 1_555 1_555
H17_11 C44_11 1_555 1_555
H18_11 C44_11 1_555 1_555
C45_11 H19_11 1_555 1_555
H20_11 C45_11 1_555 1_555
C46_11 C45_11 1_555 1_555
H21_11 C46_11 1_555 1_555
H22_11 C46_11 1_555 1_555
C47_11 C46_11 1_555 1_555
H23_11 C47_11 1_555 1_555
H24_11 C47_11 1_555 1_555
C48_11 C47_11 1_555 1_555
H25_11 C48_11 1_555 1_555
H26_11 C48_11 1_555 1_555
H27_11 C48_11 1_555 1_555
C49_11 H28_11 1_555 1_555
H29_11 C49_11 1_555 1_555
C50_11 C49_11 1_555 1_555
H30_11 C50_11 1_555 1_555
H31_11 C50_11 1_555 1_555
C51_11 H32_11 1_555 1_555
H33_11 C51_11 1_555 1_555
H34_11 C51_11 1_555 1_555
C52_11 C50_11 1_555 1_555
H35_11 C52_11 1_555 1_555
H36_11 C52_11 1_555 1_555
N1_11 C37_11 1_555 1_555
C41_11 N1_11 1_555 1_555
C45_11 N1_11 1_555 1_555
C49_11 N1_11 1_555 1_555
C51_11 C52_11 1_555 1_555
C37_12 H1_12 1_555 1_555
H2_12 C37_12 1_555 1_555
C38_12 C37_12 1_555 1_555
H3_12 C38_12 1_555 1_555
H4_12 C38_12 1_555 1_555
C39_12 C38_12 1_555 1_555
H5_12 C39_12 1_555 1_555
H6_12 C39_12 1_555 1_555
C40_12 C39_12 1_555 1_555
H7_12 C40_12 1_555 1_555
H8_12 C40_12 1_555 1_555
H9_12 C40_12 1_555 1_555
C41_12 H10_12 1_555 1_555
H11_12 C41_12 1_555 1_555
C42_12 C41_12 1_555 1_555
H12_12 C42_12 1_555 1_555
H13_12 C42_12 1_555 1_555
C43_12 C42_12 1_555 1_555
H14_12 C43_12 1_555 1_555
H15_12 C43_12 1_555 1_555
C44_12 C43_12 1_555 1_555
H16_12 C44_12 1_555 1_555
H17_12 C44_12 1_555 1_555
H18_12 C44_12 1_555 1_555
C45_12 H19_12 1_555 1_555
H20_12 C45_12 1_555 1_555
C46_12 C45_12 1_555 1_555
H21_12 C46_12 1_555 1_555
H22_12 C46_12 1_555 1_555
C47_12 C46_12 1_555 1_555
H23_12 C47_12 1_555 1_555
H24_12 C47_12 1_555 1_555
C48_12 C47_12 1_555 1_555
H25_12 C48_12 1_555 1_555
H26_12 C48_12 1_555 1_555
H27_12 C48_12 1_555 1_555
C49_12 H28_12 1_555 1_555
H29_12 C49_12 1_555 1_555
C50_12 C49_12 1_555 1_555
H30_12 C50_12 1_555 1_555
H31_12 C50_12 1_555 1_555
C51_12 H32_12 1_555 1_555
H33_12 C51_12 1_555 1_555
H34_12 C51_12 1_555 1_555
C52_12 C50_12 1_555 1_555
H35_12 C52_12 1_555 1_555
H36_12 C52_12 1_555 1_555
N1_12 C37_12 1_555 1_555
C41_12 N1_12 1_555 1_555
C45_12 N1_12 1_555 1_555
C49_12 N1_12 1_555 1_555
C51_12 C52_12 1_555 1_555
C37_13 H1_13 1_555 1_555
H2_13 C37_13 1_555 1_555
C38_13 C37_13 1_555 1_555
H3_13 C38_13 1_555 1_555
H4_13 C38_13 1_555 1_555
C39_13 C38_13 1_555 1_555
H5_13 C39_13 1_555 1_555
H6_13 C39_13 1_555 1_555
C40_13 C39_13 1_555 1_555
H8_13 C40_13 1_555 1_555
C41_13 H10_13 1_555 1_555
H11_13 C41_13 1_555 1_555
C42_13 C41_13 1_555 1_555
H12_13 C42_13 1_555 1_555
H13_13 C42_13 1_555 1_555
C43_13 C42_13 1_555 1_555
H14_13 C43_13 1_555 1_555
H15_13 C43_13 1_555 1_555
C44_13 C43_13 1_555 1_555
H16_13 C44_13 1_555 1_555
H17_13 C44_13 1_555 1_555
H18_13 C44_13 1_555 1_555
C45_13 H19_13 1_555 1_555
H20_13 C45_13 1_555 1_555
C46_13 C45_13 1_555 1_555
H21_13 C46_13 1_555 1_555
H22_13 C46_13 1_555 1_555
C47_13 C46_13 1_555 1_555
H23_13 C47_13 1_555 1_555
H24_13 C47_13 1_555 1_555
C48_13 C47_13 1_555 1_555
H25_13 C48_13 1_555 1_555
H26_13 C48_13 1_555 1_555
H27_13 C48_13 1_555 1_555
C49_13 H28_13 1_555 1_555
H29_13 C49_13 1_555 1_555
C50_13 C49_13 1_555 1_555
H30_13 C50_13 1_555 1_555
H31_13 C50_13 1_555 1_555
C51_13 H32_13 1_555 1_555
H33_13 C51_13 1_555 1_555
H34_13 C51_13 1_555 1_555
C52_13 C50_13 1_555 1_555
H35_13 C52_13 1_555 1_555
H36_13 C52_13 1_555 1_555
N1_13 C37_13 1_555 1_555
C41_13 N1_13 1_555 1_555
C45_13 N1_13 1_555 1_555
C49_13 N1_13 1_555 1_555
C51_13 C52_13 1_555 1_555
C37_14 H1_14 1_555 1_555
H2_14 C37_14 1_555 1_555
C38_14 C37_14 1_555 1_555
H3_14 C38_14 1_555 1_555
H4_14 C38_14 1_555 1_555
C39_14 C38_14 1_555 1_555
H5_14 C39_14 1_555 1_555
H6_14 C39_14 1_555 1_555
C40_14 C39_14 1_555 1_555
H7_14 C40_14 1_555 1_555
H8_14 C40_14 1_555 1_555
H9_14 C40_14 1_555 1_555
C41_14 H10_14 1_555 1_555
H11_14 C41_14 1_555 1_555
C42_14 C41_14 1_555 1_555
H12_14 C42_14 1_555 1_555
H13_14 C42_14 1_555 1_555
C43_14 C42_14 1_555 1_555
H14_14 C43_14 1_555 1_555
H15_14 C43_14 1_555 1_555
C44_14 C43_14 1_555 1_555
H16_14 C44_14 1_555 1_555
H17_14 C44_14 1_555 1_555
H18_14 C44_14 1_555 1_555
C45_14 H19_14 1_555 1_555
H20_14 C45_14 1_555 1_555
C46_14 C45_14 1_555 1_555
H21_14 C46_14 1_555 1_555
H22_14 C46_14 1_555 1_555
C47_14 C46_14 1_555 1_555
H23_14 C47_14 1_555 1_555
H24_14 C47_14 1_555 1_555
C48_14 C47_14 1_555 1_555
H25_14 C48_14 1_555 1_555
H26_14 C48_14 1_555 1_555
H27_14 C48_14 1_555 1_555
C49_14 H28_14 1_555 1_555
H29_14 C49_14 1_555 1_555
C50_14 C49_14 1_555 1_555
H30_14 C50_14 1_555 1_555
H31_14 C50_14 1_555 1_555
C51_14 H32_14 1_555 1_555
H33_14 C51_14 1_555 1_555
H34_14 C51_14 1_555 1_555
C52_14 C50_14 1_555 1_555
H35_14 C52_14 1_555 1_555
H36_14 C52_14 1_555 1_555
N1_14 C37_14 1_555 1_555
C41_14 N1_14 1_555 1_555
C45_14 N1_14 1_555 1_555
C49_14 N1_14 1_555 1_555
C51_14 C52_14 1_555 1_555
C37_15 H1_15 1_555 1_555
H2_15 C37_15 1_555 1_555
C38_15 C37_15 1_555 1_555
H3_15 C38_15 1_555 1_555
H4_15 C38_15 1_555 1_555
C39_15 C38_15 1_555 1_555
H5_15 C39_15 1_555 1_555
H6_15 C39_15 1_555 1_555
C40_15 C39_15 1_555 1_555
H8_15 C40_15 1_555 1_555
C41_15 H10_15 1_555 1_555
H11_15 C41_15 1_555 1_555
C42_15 C41_15 1_555 1_555
H12_15 C42_15 1_555 1_555
H13_15 C42_15 1_555 1_555
C43_15 C42_15 1_555 1_555
H14_15 C43_15 1_555 1_555
H15_15 C43_15 1_555 1_555
C44_15 C43_15 1_555 1_555
H16_15 C44_15 1_555 1_555
H17_15 C44_15 1_555 1_555
H18_15 C44_15 1_555 1_555
C45_15 H19_15 1_555 1_555
H20_15 C45_15 1_555 1_555
C46_15 C45_15 1_555 1_555
H21_15 C46_15 1_555 1_555
H22_15 C46_15 1_555 1_555
C47_15 C46_15 1_555 1_555
H23_15 C47_15 1_555 1_555
H24_15 C47_15 1_555 1_555
C48_15 C47_15 1_555 1_555
H25_15 C48_15 1_555 1_555
H26_15 C48_15 1_555 1_555
H27_15 C48_15 1_555 1_555
C49_15 H28_15 1_555 1_555
H29_15 C49_15 1_555 1_555
C50_15 C49_15 1_555 1_555
H30_15 C50_15 1_555 1_555
H31_15 C50_15 1_555 1_555
C51_15 H32_15 1_555 1_555
H33_15 C51_15 1_555 1_555
H34_15 C51_15 1_555 1_555
C52_15 C50_15 1_555 1_555
H35_15 C52_15 1_555 1_555
H36_15 C52_15 1_555 1_555
N1_15 C37_15 1_555 1_555
C41_15 N1_15 1_555 1_555
C45_15 N1_15 1_555 1_555
C49_15 N1_15 1_555 1_555
C51_15 C52_15 1_555 1_555
H16_16 C44_16 1_555 1_555
H17_16 C44_16 1_555 1_555
H18_16 C44_16 1_555 1_555
C37_16 H1_16 1_555 1_555
H2_16 C37_16 1_555 1_555
C38_16 C37_16 1_555 1_555
H3_16 C38_16 1_555 1_555
H4_16 C38_16 1_555 1_555
C39_16 C38_16 1_555 1_555
H5_16 C39_16 1_555 1_555
H6_16 C39_16 1_555 1_555
C40_16 C39_16 1_555 1_555
H8_16 C40_16 1_555 1_555
C41_16 H10_16 1_555 1_555
H11_16 C41_16 1_555 1_555
C42_16 C41_16 1_555 1_555
H12_16 C42_16 1_555 1_555
H13_16 C42_16 1_555 1_555
C43_16 C42_16 1_555 1_555
H14_16 C43_16 1_555 1_555
H15_16 C43_16 1_555 1_555
C45_16 H19_16 1_555 1_555
H20_16 C45_16 1_555 1_555
C46_16 C45_16 1_555 1_555
H21_16 C46_16 1_555 1_555
H22_16 C46_16 1_555 1_555
C47_16 C46_16 1_555 1_555
H23_16 C47_16 1_555 1_555
H24_16 C47_16 1_555 1_555
C48_16 C47_16 1_555 1_555
H25_16 C48_16 1_555 1_555
H26_16 C48_16 1_555 1_555
H27_16 C48_16 1_555 1_555
C49_16 H28_16 1_555 1_555
H29_16 C49_16 1_555 1_555
C50_16 C49_16 1_555 1_555
H30_16 C50_16 1_555 1_555
H31_16 C50_16 1_555 1_555
C51_16 H32_16 1_555 1_555
H33_16 C51_16 1_555 1_555
H34_16 C51_16 1_555 1_555
C52_16 C50_16 1_555 1_555
H35_16 C52_16 1_555 1_555
H36_16 C52_16 1_555 1_555
N1_16 C37_16 1_555 1_555
C41_16 N1_16 1_555 1_555
C45_16 N1_16 1_555 1_555
C49_16 N1_16 1_555 1_555
C51_16 C52_16 1_555 1_555
H16_17 C44_17 1_555 1_555
H17_17 C44_17 1_555 1_555
H18_17 C44_17 1_555 1_555
C37_17 H1_17 1_555 1_555
H2_17 C37_17 1_555 1_555
C38_17 C37_17 1_555 1_555
H3_17 C38_17 1_555 1_555
H4_17 C38_17 1_555 1_555
C39_17 C38_17 1_555 1_555
H5_17 C39_17 1_555 1_555
H6_17 C39_17 1_555 1_555
C40_17 C39_17 1_555 1_555
H7_17 C40_17 1_555 1_555
H8_17 C40_17 1_555 1_555
H9_17 C40_17 1_555 1_555
C41_17 H10_17 1_555 1_555
H11_17 C41_17 1_555 1_555
C42_17 C41_17 1_555 1_555
H12_17 C42_17 1_555 1_555
H13_17 C42_17 1_555 1_555
C43_17 C42_17 1_555 1_555
H14_17 C43_17 1_555 1_555
H15_17 C43_17 1_555 1_555
C45_17 H19_17 1_555 1_555
H20_17 C45_17 1_555 1_555
C46_17 C45_17 1_555 1_555
H21_17 C46_17 1_555 1_555
H22_17 C46_17 1_555 1_555
C47_17 C46_17 1_555 1_555
H23_17 C47_17 1_555 1_555
H24_17 C47_17 1_555 1_555
C48_17 C47_17 1_555 1_555
H25_17 C48_17 1_555 1_555
H26_17 C48_17 1_555 1_555
H27_17 C48_17 1_555 1_555
C49_17 H28_17 1_555 1_555
H29_17 C49_17 1_555 1_555
C50_17 C49_17 1_555 1_555
H30_17 C50_17 1_555 1_555
H31_17 C50_17 1_555 1_555
C51_17 H32_17 1_555 1_555
H33_17 C51_17 1_555 1_555
H34_17 C51_17 1_555 1_555
C52_17 C50_17 1_555 1_555
H35_17 C52_17 1_555 1_555
H36_17 C52_17 1_555 1_555
N1_17 C37_17 1_555 1_555
C41_17 N1_17 1_555 1_555
C45_17 N1_17 1_555 1_555
C49_17 N1_17 1_555 1_555
C51_17 C52_17 1_555 1_555
H16_18 C44_18 1_555 1_555
H17_18 C44_18 1_555 1_555
H18_18 C44_18 1_555 1_555
C37_18 H1_18 1_555 1_555
H2_18 C37_18 1_555 1_555
C38_18 C37_18 1_555 1_555
H3_18 C38_18 1_555 1_555
H4_18 C38_18 1_555 1_555
C39_18 C38_18 1_555 1_555
H5_18 C39_18 1_555 1_555
H6_18 C39_18 1_555 1_555
C40_18 C39_18 1_555 1_555
H8_18 C40_18 1_555 1_555
C41_18 H10_18 1_555 1_555
H11_18 C41_18 1_555 1_555
C42_18 C41_18 1_555 1_555
H12_18 C42_18 1_555 1_555
H13_18 C42_18 1_555 1_555
C43_18 C42_18 1_555 1_555
H14_18 C43_18 1_555 1_555
H15_18 C43_18 1_555 1_555
C45_18 H19_18 1_555 1_555
H20_18 C45_18 1_555 1_555
C46_18 C45_18 1_555 1_555
H21_18 C46_18 1_555 1_555
H22_18 C46_18 1_555 1_555
C47_18 C46_18 1_555 1_555
H23_18 C47_18 1_555 1_555
H24_18 C47_18 1_555 1_555
C48_18 C47_18 1_555 1_555
H25_18 C48_18 1_555 1_555
H26_18 C48_18 1_555 1_555
H27_18 C48_18 1_555 1_555
C49_18 H28_18 1_555 1_555
H29_18 C49_18 1_555 1_555
C50_18 C49_18 1_555 1_555
H30_18 C50_18 1_555 1_555
H31_18 C50_18 1_555 1_555
C51_18 H32_18 1_555 1_555
H33_18 C51_18 1_555 1_555
H34_18 C51_18 1_555 1_555
C52_18 C50_18 1_555 1_555
H35_18 C52_18 1_555 1_555
H36_18 C52_18 1_555 1_555
N1_18 C37_18 1_555 1_555
C41_18 N1_18 1_555 1_555
C45_18 N1_18 1_555 1_555
C49_18 N1_18 1_555 1_555
C51_18 C52_18 1_555 1_555

#END
