
###############################################################################
#
# This file contains modified crystal structure data generated from the
# MOF subset of the Cambridge Structural Database (CSD) v543 
# hosted by the Cambridge Crystallographic Data Centre (CCDC).
#
# This work is licensed under the Creative Commons
# Attribution-NonCommercial-ShareAlike 4.0 International License.
# To view a copy of this license, visit
# http://creativecommons.org/licenses/by-nc-sa/4.0/
# or send a letter to
# Creative Commons, PO Box 1866, Mountain View, CA 94042, USA.
#
# CIF created using the CSD Python API on 29 September 2022
# The structure has been converted into the P1 space group
# The structure has a 3D framework
# The original CSD entry XECVAF is in the rhombohedral crystal system
# The framework has been calculated to contain at least 10.0% void space
# The void calculation uses a probe of radius 1.32A, grid spacing 0.4
# The framework is charged, counterions have been retained in the structure
#
###############################################################################

data_XECVAF
_chemical_formula_moiety         '(C504 H648 F72 N18 O144 Zn28 2-)n'
_symmetry_cell_setting           triclinic
_symmetry_space_group_name_H-M   'P 1'
_symmetry_Int_Tables_number      1
_space_group_name_Hall           'P 1'
loop_
_symmetry_equiv_pos_site_id
_symmetry_equiv_pos_as_xyz
1 x,y,z
_cell_length_a                   31.272(4)
_cell_length_b                   31.272(4)
_cell_length_c                   19.711(2)
_cell_angle_alpha                90
_cell_angle_beta                 90
_cell_angle_gamma                120
_cell_volume                     16693.6
loop_
_atom_site_label
_atom_site_type_symbol
_atom_site_fract_x
_atom_site_fract_y
_atom_site_fract_z
C33 C 0.0069(4) 0.3376(3) 0.7930(4)
F11 F 0.05346(25) 0.37855(17) 0.7925(3)
O23 O 0.02399(34) 0.3078(2) 0.6917(3)
C1 C 0.6787(3) 0.4273(3) 0.0021(4)
C6 C 0.6924(3) 0.4741(3) 0.0261(4)
F1 F 0.7225(2) 0.49215(18) 0.0812(2)
O1 O 0.6903(2) 0.3981(2) 0.0295(3)
O3 O 0.6897(2) 0.54747(19) 0.0141(3)
C13 C 0.5727(3) 0.2514(4) 0.0021(4)
C18 C 0.5259(3) 0.2183(4) 0.0261(4)
F5 F 0.50785(18) 0.23035(27) 0.0812(2)
O9 O 0.6019(2) 0.2922(3) 0.0295(3)
O11 O 0.45253(19) 0.14223(28) 0.0141(3)
C25 C 0.7486(4) 0.3213(3) 0.0021(4)
C30 C 0.7817(4) 0.3076(3) 0.0261(4)
F9 F 0.76965(27) 0.2775(2) 0.0812(2)
O17 O 0.7078(3) 0.3097(2) 0.0295(3)
O19 O 0.85777(28) 0.3103(2) 0.0141(3)
O25 O 0.3589(2) 0.04952(28) 0.0250(3)
O26 O 0.95048(28) 0.30934(34) 0.0250(3)
O27 O 0.69066(34) 0.6411(2) 0.0250(3)
O28 O 0.4381(2) 0.0381(3) 0.0222(3)
O29 O 0.9619(3) 0.3999(4) 0.0222(3)
O30 O 0.6001(4) 0.5619(2) 0.0222(3)
C2 C 0.6466(3) 0.4094(3) 0.9385(4)
C3 C 0.6308(3) 0.4393(3) 0.9078(4)
C4 C 0.6422(3) 0.4843(3) 0.9329(4)
C5 C 0.6774(3) 0.5049(3) 0.9946(4)
C7 C 0.7136(3) 0.6358(3) 0.8417(4)
C8 C 0.6677(3) 0.6416(3) 0.8430(4)
C9 C 0.6624(3) 0.6693(3) 0.7930(4)
C10 C 0.6964(3) 0.6919(4) 0.7407(4)
C11 C 0.7420(3) 0.6848(4) 0.7383(4)
C12 C 0.7474(3) 0.6584(3) 0.7910(4)
F2 F 0.6020(2) 0.42207(18) 0.8516(3)
F3 F 0.62145(17) 0.67491(19) 0.7925(3)
F4 F 0.78825(19) 0.6533(2) 0.7898(2)
Zn1 Zn 0.65832(3) 0.58132(3) 0.95694(4)
Zn2 Zn 0.6667 0.3333 0.97547(7)
O2 O 0.6366(2) 0.3672(2) 0.9155(3)
O4 O 0.6274(2) 0.5125(2) 0.9093(3)
O5 O 0.7170(2) 0.6112(2) 0.8894(3)
O6 O 0.6364(2) 0.6188(2) 0.8893(3)
O7 O 0.6922(2) 0.71619(28) 0.6917(3)
O8 O 0.7714(2) 0.7048(3) 0.6889(3)
C14 C 0.5906(3) 0.2372(4) 0.9385(4)
C15 C 0.5607(3) 0.1915(4) 0.9078(4)
C16 C 0.5157(3) 0.1579(4) 0.9329(4)
C17 C 0.4951(3) 0.1725(4) 0.9946(4)
C19 C 0.3642(3) 0.0778(4) 0.8417(4)
C20 C 0.3584(3) 0.0261(4) 0.8430(4)
C22 C 0.3081(4) 0.0045(5) 0.7407(4)
C23 C 0.3152(4) 0.0572(5) 0.7383(4)
C24 C 0.3416(3) 0.0890(4) 0.7910(4)
F6 F 0.57793(18) 0.17993(27) 0.8516(3)
F8 F 0.3467(2) 0.13495(28) 0.7898(2)
Zn3 Zn 0.41868(3) 0.07700(4) 0.95694(4)
O10 O 0.6328(2) 0.2694(3) 0.9155(3)
O12 O 0.4875(2) 0.1149(3) 0.9093(3)
O13 O 0.3888(2) 0.1058(3) 0.8894(3)
O14 O 0.3812(2) 0.0176(3) 0.8893(3)
O16 O 0.2952(3) 0.0666(4) 0.6889(3)
C26 C 0.7628(4) 0.3534(3) 0.9385(4)
C27 C 0.8085(4) 0.3692(3) 0.9078(4)
C28 C 0.8421(4) 0.3578(3) 0.9329(4)
C29 C 0.8275(4) 0.3226(3) 0.9946(4)
C31 C 0.9222(4) 0.2864(3) 0.8417(4)
C32 C 0.9739(4) 0.3323(3) 0.8430(4)
C34 C 0.9955(5) 0.3036(3) 0.7407(4)
C35 C 0.9428(5) 0.2580(3) 0.7383(4)
C36 C 0.9110(4) 0.2526(3) 0.7910(4)
F10 F 0.82007(27) 0.3980(2) 0.8516(3)
F12 F 0.86505(28) 0.21175(19) 0.7898(2)
Zn4 Zn 0.92300(4) 0.34168(3) 0.95694(4)
O18 O 0.7306(3) 0.3634(2) 0.9155(3)
O20 O 0.8851(3) 0.3726(2) 0.9093(3)
O21 O 0.8942(3) 0.2830(2) 0.8894(3)
O22 O 0.9824(3) 0.3636(2) 0.8893(3)
O24 O 0.9334(4) 0.2286(2) 0.6889(3)
Zn5 Zn 0.99165(3) 0.24799(3) 0.62361(4)
Zn6 Zn 0.75201(3) 0.74367(4) 0.62361(4)
Zn7 Zn 0.25633(4) 0.00835(3) 0.62361(4)
C21 C 0.3307(3) 0.9931(4) 0.7930(4)
F7 F 0.32509(19) 0.94654(25) 0.7925(3)
O15 O 0.28381(28) 0.97601(34) 0.6917(3)
C9_2 C 0.3291(3) 0.0026(3) 0.1263(4)
C10_2 C 0.3631(3) 0.0252(4) 0.0740(4)
C11_2 C 0.4087(3) 0.0181(4) 0.0716(4)
F3_2 F 0.28812(17) 0.00824(19) 0.1258(3)
C1_2 C 0.3454(3) 0.7606(3) 0.3354(4)
C2_2 C 0.3133(3) 0.7427(3) 0.2718(4)
C3_2 C 0.2975(3) 0.7726(3) 0.2411(4)
C4_2 C 0.3089(3) 0.8176(3) 0.2662(4)
C5_2 C 0.3441(3) 0.8382(3) 0.3279(4)
C6_2 C 0.3591(3) 0.8074(3) 0.3594(4)
C7_2 C 0.3803(3) 0.9691(3) 0.1750(4)
C8_2 C 0.3344(3) 0.9749(3) 0.1763(4)
C12_2 C 0.4141(3) 0.9917(3) 0.1243(4)
F1_2 F 0.3892(2) 0.82548(18) 0.4145(2)
F2_2 F 0.2687(2) 0.75540(18) 0.1849(3)
F4_2 F 0.45492(19) 0.9866(2) 0.1231(2)
Zn1_2 Zn 0.32499(3) 0.91465(3) 0.29027(4)
Zn2_2 Zn 0.3334 0.6666 0.30880(7)
O1_2 O 0.3570(2) 0.7314(2) 0.3628(3)
O2_2 O 0.3033(2) 0.7005(2) 0.2488(3)
O3_2 O 0.3564(2) 0.88080(19) 0.3474(3)
O4_2 O 0.2941(2) 0.8458(2) 0.2426(3)
O5_2 O 0.3837(2) 0.9445(2) 0.2227(3)
O6_2 O 0.3031(2) 0.9521(2) 0.2226(3)
C13_2 C 0.2394(3) 0.5847(4) 0.3354(4)
C14_2 C 0.2573(3) 0.5705(4) 0.2718(4)
C15_2 C 0.2274(3) 0.5248(4) 0.2411(4)
C16_2 C 0.1824(3) 0.4912(4) 0.2662(4)
C17_2 C 0.1618(3) 0.5058(4) 0.3279(4)
C18_2 C 0.1926(3) 0.5516(4) 0.3594(4)
C19_2 C 0.0309(3) 0.4111(4) 0.1750(4)
C20_2 C 0.0251(3) 0.3594(4) 0.1763(4)
C24_2 C 0.0083(3) 0.4223(4) 0.1243(4)
F5_2 F 0.17452(18) 0.56368(27) 0.4145(2)
F6_2 F 0.24460(18) 0.51326(27) 0.1849(3)
F8_2 F 0.0134(2) 0.46828(28) 0.1231(2)
Zn3_2 Zn 0.08535(3) 0.41033(4) 0.29027(4)
O9_2 O 0.2686(2) 0.6255(3) 0.3628(3)
O10_2 O 0.2995(2) 0.6027(3) 0.2488(3)
O11_2 O 0.11920(19) 0.47556(28) 0.3474(3)
O12_2 O 0.1542(2) 0.4482(3) 0.2426(3)
O13_2 O 0.0555(2) 0.4391(3) 0.2227(3)
O14_2 O 0.0479(2) 0.3509(3) 0.2226(3)
C25_2 C 0.4153(4) 0.6546(3) 0.3354(4)
C26_2 C 0.4295(4) 0.6867(3) 0.2718(4)
C27_2 C 0.4752(4) 0.7025(3) 0.2411(4)
C28_2 C 0.5088(4) 0.6911(3) 0.2662(4)
C29_2 C 0.4942(4) 0.6559(3) 0.3279(4)
C30_2 C 0.4484(4) 0.6409(3) 0.3594(4)
C31_2 C 0.5889(4) 0.6197(3) 0.1750(4)
C32_2 C 0.6406(4) 0.6656(3) 0.1763(4)
C33_2 C 0.6736(4) 0.6709(3) 0.1263(4)
C34_2 C 0.6622(5) 0.6369(3) 0.0740(4)
C35_2 C 0.6095(5) 0.5913(3) 0.0716(4)
C36_2 C 0.5777(4) 0.5859(3) 0.1243(4)
F9_2 F 0.43632(27) 0.6108(2) 0.4145(2)
F10_2 F 0.48674(27) 0.7313(2) 0.1849(3)
F11_2 F 0.72013(25) 0.71188(17) 0.1258(3)
F12_2 F 0.53172(28) 0.54508(19) 0.1231(2)
Zn4_2 Zn 0.58967(4) 0.67501(3) 0.29027(4)
O17_2 O 0.3745(3) 0.6430(2) 0.3628(3)
O18_2 O 0.3973(3) 0.6967(2) 0.2488(3)
O19_2 O 0.52444(28) 0.6436(2) 0.3474(3)
O20_2 O 0.5518(3) 0.7059(2) 0.2426(3)
O21_2 O 0.5609(3) 0.6163(2) 0.2227(3)
O22_2 O 0.6491(3) 0.6969(2) 0.2226(3)
O25_2 O 0.0255(2) 0.38286(28) 0.3584(3)
O26_2 O 0.61714(28) 0.64268(34) 0.3584(3)
O27_2 O 0.35732(34) 0.9745(2) 0.3584(3)
O28_2 O 0.1047(2) 0.3715(3) 0.3556(3)
O29_2 O 0.6285(3) 0.7333(4) 0.3556(3)
O30_2 O 0.2667(4) 0.8953(2) 0.3556(3)
C21_2 C 0.9974(3) 0.3264(4) 0.1263(4)
C22_2 C 0.9748(4) 0.3378(5) 0.0740(4)
C23_2 C 0.9819(4) 0.3905(5) 0.0716(4)
F7_2 F 0.99176(19) 0.27987(25) 0.1258(3)
C1_3 C 0.0120(3) 0.0940(3) 0.6688(4)
C5_3 C 0.0107(3) 0.1716(3) 0.6613(4)
C6_3 C 0.0257(3) 0.1408(3) 0.6928(4)
C7_3 C 0.0469(3) 0.3025(3) 0.5084(4)
C8_3 C 0.0010(3) 0.3083(3) 0.5097(4)
C10_3 C 0.0297(3) 0.3586(4) 0.4074(4)
C11_3 C 0.0753(3) 0.3515(4) 0.4050(4)
C12_3 C 0.0807(3) 0.3251(3) 0.4577(4)
F1_3 F 0.0558(2) 0.15882(18) 0.7479(2)
F4_3 F 0.12158(19) 0.3200(2) 0.4565(2)
O1_3 O 0.0236(2) 0.0648(2) 0.6962(3)
O3_3 O 0.0230(2) 0.21414(19) 0.6808(3)
O5_3 O 0.0503(2) 0.2779(2) 0.5561(3)
C26_3 C 0.0961(4) 0.0201(3) 0.6052(4)
C27_3 C 0.1418(4) 0.0359(3) 0.5745(4)
C28_3 C 0.1754(4) 0.0245(3) 0.5996(4)
C33_3 C 0.3402(4) 0.0043(3) 0.4597(4)
F10_3 F 0.15340(27) 0.0647(2) 0.5183(3)
F11_3 F 0.38679(25) 0.04522(17) 0.4592(3)
O18_3 O 0.0639(3) 0.0301(2) 0.5822(3)
O20_3 O 0.2184(3) 0.0393(2) 0.5760(3)
O22_3 O 0.3157(3) 0.0303(2) 0.5560(3)
Zn2_3 Zn 0.0000 1.0000 0.64214(7)
C25_3 C 0.0819(4) 0.9880(3) 0.6688(4)
C29_3 C 0.1608(4) 0.9893(3) 0.6613(4)
C30_3 C 0.1150(4) 0.9743(3) 0.6928(4)
C31_3 C 0.2555(4) 0.9531(3) 0.5084(4)
C32_3 C 0.3072(4) 0.9990(3) 0.5097(4)
C34_3 C 0.3288(5) 0.9703(3) 0.4074(4)
C35_3 C 0.2761(5) 0.9247(3) 0.4050(4)
C36_3 C 0.2443(4) 0.9193(3) 0.4577(4)
F9_3 F 0.10298(27) 0.9442(2) 0.7479(2)
F12_3 F 0.19838(28) 0.87842(19) 0.4565(2)
O17_3 O 0.0411(3) 0.9764(2) 0.6962(3)
O19_3 O 0.19110(28) 0.9770(2) 0.6808(3)
O21_3 O 0.2275(3) 0.9497(2) 0.5561(3)
C2_3 C 0.9799(3) 0.0761(3) 0.6052(4)
C3_3 C 0.9641(3) 0.1060(3) 0.5745(4)
C4_3 C 0.9755(3) 0.1510(3) 0.5996(4)
C9_3 C 0.9957(3) 0.3360(3) 0.4597(4)
F2_3 F 0.9353(2) 0.08874(18) 0.5183(3)
F3_3 F 0.95478(17) 0.34158(19) 0.4592(3)
O2_3 O 0.9699(2) 0.0339(2) 0.5822(3)
O4_3 O 0.9607(2) 0.1792(2) 0.5760(3)
O6_3 O 0.9697(2) 0.2855(2) 0.5560(3)
C13_3 C 0.9060(3) 0.9181(4) 0.6688(4)
C14_3 C 0.9239(3) 0.9039(4) 0.6052(4)
C15_3 C 0.8940(3) 0.8582(4) 0.5745(4)
C16_3 C 0.8490(3) 0.8246(4) 0.5996(4)
C17_3 C 0.8284(3) 0.8392(4) 0.6613(4)
C18_3 C 0.8592(3) 0.8850(4) 0.6928(4)
C19_3 C 0.6975(3) 0.7445(4) 0.5084(4)
C20_3 C 0.6917(3) 0.6928(4) 0.5097(4)
C21_3 C 0.6640(3) 0.6598(4) 0.4597(4)
C22_3 C 0.6414(4) 0.6712(5) 0.4074(4)
C23_3 C 0.6485(4) 0.7239(5) 0.4050(4)
C24_3 C 0.6749(3) 0.7557(4) 0.4577(4)
F5_3 F 0.84118(18) 0.89702(27) 0.7479(2)
F6_3 F 0.91126(18) 0.84660(27) 0.5183(3)
F7_3 F 0.65842(19) 0.61321(25) 0.4592(3)
F8_3 F 0.6800(2) 0.80162(28) 0.4565(2)
O9_3 O 0.9352(2) 0.9589(3) 0.6962(3)
O10_3 O 0.9661(2) 0.9361(3) 0.5822(3)
O11_3 O 0.78586(19) 0.80890(28) 0.6808(3)
O12_3 O 0.8208(2) 0.7816(3) 0.5760(3)
O13_3 O 0.7221(2) 0.7725(3) 0.5561(3)
O14_3 O 0.7145(2) 0.6843(3) 0.5560(3)
Zn2_4 Zn 0.0000 0.0001 0.64214(7)
Zn2_5 Zn 0.9999 1.0000 0.64214(7)
C21_4 C 0.0069(4) 0.6693(3) 0.2930(4)
F7_4 F 0.05346(25) 0.67491(19) 0.2925(3)
O15_2 O 0.02399(34) 0.71619(28) 0.1917(3)
Zn2_6 Zn 0.0000 1.0000 0.14214(7)
C25_4 C 0.0120(3) 0.9181(4) 0.1688(4)
C29_4 C 0.0107(3) 0.8392(4) 0.1613(4)
C30_4 C 0.0257(3) 0.8850(4) 0.1928(4)
C31_4 C 0.0469(3) 0.7445(4) 0.0084(4)
C32_4 C 0.0010(3) 0.6928(4) 0.0097(4)
F9_4 F 0.0558(2) 0.89702(27) 0.2479(2)
O17_4 O 0.0236(2) 0.9589(3) 0.1962(3)
O19_4 O 0.0230(2) 0.80890(28) 0.1808(3)
O21_4 O 0.0503(2) 0.7725(3) 0.0561(3)
C1_4 C 0.5727(3) 0.3213(3) 0.5021(4)
C2_4 C 0.5906(3) 0.3534(3) 0.4385(4)
C3_4 C 0.5607(3) 0.3692(3) 0.4078(4)
C4_4 C 0.5157(3) 0.3578(3) 0.4329(4)
C5_4 C 0.4951(3) 0.3226(3) 0.4946(4)
C6_4 C 0.5259(3) 0.3076(3) 0.5261(4)
C7_4 C 0.3642(3) 0.2864(3) 0.3417(4)
C8_4 C 0.3584(3) 0.3323(3) 0.3430(4)
C9_4 C 0.3307(3) 0.3376(3) 0.2930(4)
C10_4 C 0.3081(4) 0.3036(3) 0.2407(4)
C11_4 C 0.3152(4) 0.2580(3) 0.2383(4)
C12_4 C 0.3416(3) 0.2526(3) 0.2910(4)
F1_4 F 0.50785(18) 0.2775(2) 0.5812(2)
F2_4 F 0.57793(18) 0.3980(2) 0.3516(3)
F3_4 F 0.32509(19) 0.37855(17) 0.2925(3)
F4_4 F 0.3467(2) 0.21175(19) 0.2898(2)
Zn1_3 Zn 0.41868(3) 0.34168(3) 0.45694(4)
Zn2_7 Zn 0.6667 0.3333 0.47547(7)
O1_4 O 0.6019(2) 0.3097(2) 0.5295(3)
O2_4 O 0.6328(2) 0.3634(2) 0.4155(3)
O3_4 O 0.45253(19) 0.3103(2) 0.5141(3)
O4_4 O 0.4875(2) 0.3726(2) 0.4093(3)
O5_4 O 0.3888(2) 0.2830(2) 0.3894(3)
O6_4 O 0.3812(2) 0.3636(2) 0.3893(3)
O7_2 O 0.28381(28) 0.3078(2) 0.1917(3)
O8_2 O 0.2952(3) 0.2286(2) 0.1889(3)
C13_4 C 0.7486(4) 0.4273(3) 0.5021(4)
C14_4 C 0.7628(4) 0.4094(3) 0.4385(4)
C15_4 C 0.8085(4) 0.4393(3) 0.4078(4)
C16_4 C 0.8421(4) 0.4843(3) 0.4329(4)
C17_4 C 0.8275(4) 0.5049(3) 0.4946(4)
C18_4 C 0.7817(4) 0.4741(3) 0.5261(4)
C19_4 C 0.9222(4) 0.6358(3) 0.3417(4)
C20_4 C 0.9739(4) 0.6416(3) 0.3430(4)
C22_4 C 0.9955(5) 0.6919(4) 0.2407(4)
C23_4 C 0.9428(5) 0.6848(4) 0.2383(4)
C24_4 C 0.9110(4) 0.6584(3) 0.2910(4)
F5_4 F 0.76965(27) 0.49215(18) 0.5812(2)
F6_4 F 0.82007(27) 0.42207(18) 0.3516(3)
F8_4 F 0.86505(28) 0.6533(2) 0.2898(2)
Zn3_3 Zn 0.92300(4) 0.58132(3) 0.45694(4)
O9_4 O 0.7078(3) 0.3981(2) 0.5295(3)
O10_4 O 0.7306(3) 0.3672(2) 0.4155(3)
O11_4 O 0.85777(28) 0.54747(19) 0.5141(3)
O12_4 O 0.8851(3) 0.5125(2) 0.4093(3)
O13_4 O 0.8942(3) 0.6112(2) 0.3894(3)
O14_4 O 0.9824(3) 0.6188(2) 0.3893(3)
O16_2 O 0.9334(4) 0.7048(3) 0.1889(3)
C25_5 C 0.6787(3) 0.2514(4) 0.5021(4)
C26_4 C 0.6466(3) 0.2372(4) 0.4385(4)
C27_4 C 0.6308(3) 0.1915(4) 0.4078(4)
C28_4 C 0.6422(3) 0.1579(4) 0.4329(4)
C29_5 C 0.6774(3) 0.1725(4) 0.4946(4)
C30_5 C 0.6924(3) 0.2183(4) 0.5261(4)
C31_5 C 0.7136(3) 0.0778(4) 0.3417(4)
C32_5 C 0.6677(3) 0.0261(4) 0.3430(4)
C34_4 C 0.6964(3) 0.0045(5) 0.2407(4)
C35_4 C 0.7420(3) 0.0572(5) 0.2383(4)
C36_4 C 0.7474(3) 0.0890(4) 0.2910(4)
F9_5 F 0.7225(2) 0.23035(27) 0.5812(2)
F10_4 F 0.6020(2) 0.17993(27) 0.3516(3)
F12_4 F 0.78825(19) 0.13495(28) 0.2898(2)
Zn4_3 Zn 0.65832(3) 0.07700(4) 0.45694(4)
O17_5 O 0.6903(2) 0.2922(3) 0.5295(3)
O18_4 O 0.6366(2) 0.2694(3) 0.4155(3)
O19_5 O 0.6897(2) 0.14223(28) 0.5141(3)
O20_4 O 0.6274(2) 0.1149(3) 0.4093(3)
O21_5 O 0.7170(2) 0.1058(3) 0.3894(3)
O22_4 O 0.6364(2) 0.0176(3) 0.3893(3)
O24_2 O 0.7714(2) 0.0666(4) 0.1889(3)
Zn5_2 Zn 0.75201(3) 0.00835(3) 0.12361(4)
Zn6_2 Zn 0.25633(4) 0.24799(3) 0.12361(4)
Zn7_2 Zn 0.99165(3) 0.74367(4) 0.12361(4)
O25_3 O 0.95048(28) 0.6411(2) 0.5250(3)
O26_3 O 0.69066(34) 0.04952(28) 0.5250(3)
O27_3 O 0.3589(2) 0.30934(34) 0.5250(3)
O28_3 O 0.9619(3) 0.5619(2) 0.5222(3)
O29_3 O 0.6001(4) 0.0381(3) 0.5222(3)
O30_3 O 0.4381(2) 0.3999(4) 0.5222(3)
C33_4 C 0.6624(3) 0.9931(4) 0.2930(4)
F11_4 F 0.62145(17) 0.94654(25) 0.2925(3)
O23_2 O 0.6922(2) 0.97601(34) 0.1917(3)
C21_5 C 0.6736(4) 0.0026(3) 0.6263(4)
C22_5 C 0.6622(5) 0.0252(4) 0.5740(4)
C23_5 C 0.6095(5) 0.0181(4) 0.5716(4)
F7_5 F 0.72013(25) 0.00824(19) 0.6258(3)
C1_5 C 0.2394(3) 0.6546(3) 0.8354(4)
C2_5 C 0.2573(3) 0.6867(3) 0.7718(4)
C3_5 C 0.2274(3) 0.7025(3) 0.7411(4)
C4_5 C 0.1824(3) 0.6911(3) 0.7662(4)
C5_5 C 0.1618(3) 0.6559(3) 0.8279(4)
C6_5 C 0.1926(3) 0.6409(3) 0.8594(4)
C7_5 C 0.0309(3) 0.6197(3) 0.6750(4)
C8_5 C 0.0251(3) 0.6656(3) 0.6763(4)
C12_5 C 0.0083(3) 0.5859(3) 0.6243(4)
F1_5 F 0.17452(18) 0.6108(2) 0.9145(2)
F2_5 F 0.24460(18) 0.7313(2) 0.6849(3)
F4_5 F 0.0134(2) 0.54508(19) 0.6231(2)
Zn1_4 Zn 0.08535(3) 0.67501(3) 0.79027(4)
Zn2_8 Zn 0.3334 0.6666 0.80880(7)
O1_5 O 0.2686(2) 0.6430(2) 0.8628(3)
O2_5 O 0.2995(2) 0.6967(2) 0.7488(3)
O3_5 O 0.11920(19) 0.6436(2) 0.8474(3)
O4_5 O 0.1542(2) 0.7059(2) 0.7426(3)
O5_5 O 0.0555(2) 0.6163(2) 0.7227(3)
O6_5 O 0.0479(2) 0.6969(2) 0.7226(3)
C13_5 C 0.4153(4) 0.7606(3) 0.8354(4)
C14_5 C 0.4295(4) 0.7427(3) 0.7718(4)
C15_5 C 0.4752(4) 0.7726(3) 0.7411(4)
C16_5 C 0.5088(4) 0.8176(3) 0.7662(4)
C17_5 C 0.4942(4) 0.8382(3) 0.8279(4)
C18_5 C 0.4484(4) 0.8074(3) 0.8594(4)
C19_5 C 0.5889(4) 0.9691(3) 0.6750(4)
C20_5 C 0.6406(4) 0.9749(3) 0.6763(4)
C24_5 C 0.5777(4) 0.9917(3) 0.6243(4)
F5_5 F 0.43632(27) 0.82548(18) 0.9145(2)
F6_5 F 0.48674(27) 0.75540(18) 0.6849(3)
F8_5 F 0.53172(28) 0.9866(2) 0.6231(2)
Zn3_4 Zn 0.58967(4) 0.91465(3) 0.79027(4)
O9_5 O 0.3745(3) 0.7314(2) 0.8628(3)
O10_5 O 0.3973(3) 0.7005(2) 0.7488(3)
O11_5 O 0.52444(28) 0.88080(19) 0.8474(3)
O12_5 O 0.5518(3) 0.8458(2) 0.7426(3)
O13_5 O 0.5609(3) 0.9445(2) 0.7227(3)
O14_5 O 0.6491(3) 0.9521(2) 0.7226(3)
C25_6 C 0.3454(3) 0.5847(4) 0.8354(4)
C26_5 C 0.3133(3) 0.5705(4) 0.7718(4)
C27_5 C 0.2975(3) 0.5248(4) 0.7411(4)
C28_5 C 0.3089(3) 0.4912(4) 0.7662(4)
C29_6 C 0.3441(3) 0.5058(4) 0.8279(4)
C30_6 C 0.3591(3) 0.5516(4) 0.8594(4)
C31_6 C 0.3803(3) 0.4111(4) 0.6750(4)
C32_6 C 0.3344(3) 0.3594(4) 0.6763(4)
C33_5 C 0.3291(3) 0.3264(4) 0.6263(4)
C34_5 C 0.3631(3) 0.3378(5) 0.5740(4)
C35_5 C 0.4087(3) 0.3905(5) 0.5716(4)
C36_5 C 0.4141(3) 0.4223(4) 0.6243(4)
F9_6 F 0.3892(2) 0.56368(27) 0.9145(2)
F10_5 F 0.2687(2) 0.51326(27) 0.6849(3)
F11_5 F 0.28812(17) 0.27987(25) 0.6258(3)
F12_5 F 0.45492(19) 0.46828(28) 0.6231(2)
Zn4_4 Zn 0.32499(3) 0.41033(4) 0.79027(4)
O17_6 O 0.3570(2) 0.6255(3) 0.8628(3)
O18_5 O 0.3033(2) 0.6027(3) 0.7488(3)
O19_6 O 0.3564(2) 0.47556(28) 0.8474(3)
O20_5 O 0.2941(2) 0.4482(3) 0.7426(3)
O21_6 O 0.3837(2) 0.4391(3) 0.7227(3)
O22_5 O 0.3031(2) 0.3509(3) 0.7226(3)
O25_4 O 0.61714(28) 0.9745(2) 0.8584(3)
O26_4 O 0.35732(34) 0.38286(28) 0.8584(3)
O27_4 O 0.0255(2) 0.64268(34) 0.8584(3)
O28_4 O 0.6285(3) 0.8953(2) 0.8556(3)
O29_4 O 0.2667(4) 0.3715(3) 0.8556(3)
O30_4 O 0.1047(2) 0.7333(4) 0.8556(3)
C9_5 C 0.9974(3) 0.6709(3) 0.6263(4)
C10_5 C 0.9748(4) 0.6369(3) 0.5740(4)
C11_5 C 0.9819(4) 0.5913(3) 0.5716(4)
F3_5 F 0.99176(19) 0.71188(17) 0.6258(3)
C13_6 C 0.0819(4) 0.0940(3) 0.1688(4)
C14_6 C 0.0961(4) 0.0761(3) 0.1052(4)
C15_6 C 0.1418(4) 0.1060(3) 0.0745(4)
C16_6 C 0.1754(4) 0.1510(3) 0.0996(4)
C17_6 C 0.1608(4) 0.1716(3) 0.1613(4)
C18_6 C 0.1150(4) 0.1408(3) 0.1928(4)
C19_6 C 0.2555(4) 0.3025(3) 0.0084(4)
C20_6 C 0.3072(4) 0.3083(3) 0.0097(4)
F5_6 F 0.10298(27) 0.15882(18) 0.2479(2)
F6_6 F 0.15340(27) 0.08874(18) 0.0183(3)
O9_6 O 0.0411(3) 0.0648(2) 0.1962(3)
O10_6 O 0.0639(3) 0.0339(2) 0.0822(3)
O11_6 O 0.19110(28) 0.21414(19) 0.1808(3)
O12_6 O 0.2184(3) 0.1792(2) 0.0760(3)
O13_6 O 0.2275(3) 0.2779(2) 0.0561(3)
O14_6 O 0.3157(3) 0.2855(2) 0.0560(3)
C21_6 C 0.3402(4) 0.3360(3) 0.9597(4)
C22_6 C 0.3288(5) 0.3586(4) 0.9074(4)
C23_6 C 0.2761(5) 0.3515(4) 0.9050(4)
C24_6 C 0.2443(4) 0.3251(3) 0.9577(4)
F7_6 F 0.38679(25) 0.34158(19) 0.9592(3)
F8_6 F 0.19838(28) 0.3200(2) 0.9565(2)
C34_6 C 0.0297(3) 0.6712(5) 0.9074(4)
C35_6 C 0.0753(3) 0.7239(5) 0.9050(4)
C36_6 C 0.0807(3) 0.7557(4) 0.9577(4)
F12_6 F 0.12158(19) 0.80162(28) 0.9565(2)
C2_6 C 0.9239(3) 0.0201(3) 0.1052(4)
C3_6 C 0.8940(3) 0.0359(3) 0.0745(4)
C4_6 C 0.8490(3) 0.0245(3) 0.0996(4)
F2_6 F 0.91126(18) 0.0647(2) 0.0183(3)
O2_6 O 0.9661(2) 0.0301(2) 0.0822(3)
O4_6 O 0.8208(2) 0.0393(2) 0.0760(3)
O6_6 O 0.7145(2) 0.0303(2) 0.0560(3)
C1_6 C 0.9060(3) 0.9880(3) 0.1688(4)
C5_6 C 0.8284(3) 0.9893(3) 0.1613(4)
C6_6 C 0.8592(3) 0.9743(3) 0.1928(4)
C7_6 C 0.6975(3) 0.9531(3) 0.0084(4)
C8_6 C 0.6917(3) 0.9990(3) 0.0097(4)
F1_6 F 0.84118(18) 0.9442(2) 0.2479(2)
O1_6 O 0.9352(2) 0.9764(2) 0.1962(3)
O3_6 O 0.78586(19) 0.9770(2) 0.1808(3)
O5_6 O 0.7221(2) 0.9497(2) 0.0561(3)
C26_6 C 0.9799(3) 0.9039(4) 0.1052(4)
C27_6 C 0.9641(3) 0.8582(4) 0.0745(4)
C28_6 C 0.9755(3) 0.8246(4) 0.0996(4)
F10_6 F 0.9353(2) 0.84660(27) 0.0183(3)
O18_6 O 0.9699(2) 0.9361(3) 0.0822(3)
O20_6 O 0.9607(2) 0.7816(3) 0.0760(3)
O22_6 O 0.9697(2) 0.6843(3) 0.0560(3)
C10_6 C 0.6414(4) 0.9703(3) 0.9074(4)
C11_6 C 0.6485(4) 0.9247(3) 0.9050(4)
C12_6 C 0.6749(3) 0.9193(3) 0.9577(4)
F4_6 F 0.6800(2) 0.87842(19) 0.9565(2)
C33_6 C 0.9957(3) 0.6598(4) 0.9597(4)
F11_6 F 0.95478(17) 0.61321(25) 0.9592(3)
Zn2_9 Zn 0.9999 1.0000 0.14214(7)
Zn2_10 Zn 0.0000 0.0001 0.14214(7)
C9_6 C 0.6640(3) 0.0043(3) 0.9597(4)
F3_6 F 0.65842(19) 0.04522(17) 0.9592(3)
C37 C 0.4708(4) 0.5173(4) 0.2848(7)
H1 H 0.4913 0.5518 0.2972
H2 H 0.4708 0.5156 0.2357
C38 C 0.4193(3) 0.5012(4) 0.3071(6)
H3 H 0.4196 0.5107 0.3540
H4 H 0.3995 0.4655 0.3044
C39 C 0.3955(4) 0.5242(5) 0.2627(8)
H5 H 0.4181 0.5595 0.2591
H6 H 0.3902 0.5103 0.2175
C40 C 0.3468(5) 0.5156(6) 0.2908(9)
H7 H 0.3336 0.5307 0.2615
H8 H 0.3240 0.4808 0.2936
H9 H 0.3519 0.5299 0.3353
C41 C 0.4671(5) 0.4353(4) 0.2834(8)
H10 H 0.4810 0.4172 0.3051
H11 H 0.4329 0.4202 0.2975
C42 C 0.4680(5) 0.4286(5) 0.2095(8)
H12 H 0.5019 0.4457 0.1938
H13 H 0.4508 0.4432 0.1870
C43 C 0.4445(5) 0.3756(5) 0.1906(8)
H14 H 0.4111 0.3587 0.2085
H15 H 0.4625 0.3616 0.2126
C44 C 0.4420(6) 0.3648(6) 0.1146(8)
H16 H 0.4263 0.3298 0.1076
H17 H 0.4233 0.3774 0.0922
H18 H 0.4748 0.3804 0.0963
C45 C 0.4933(5) 0.4872(4) 0.3882(6)
H19 H 0.5091 0.4690 0.4033
H20 H 0.4590 0.4688 0.4024
C46 C 0.5179(5) 0.5372(5) 0.4228(8)
H21 H 0.5067 0.5581 0.4021
H22 H 0.5534 0.5531 0.4171
C47 C 0.5052(8) 0.5311(6) 0.4987(9)
H23 H 0.4696 0.5147 0.5042
H24 H 0.5166 0.5105 0.5193
C48 C 0.5282(9) 0.5795(8) 0.5337(9)
H25 H 0.5196 0.5745 0.5810
H26 H 0.5634 0.5955 0.5290
H27 H 0.5164 0.5997 0.5139
C49 C 0.5487(4) 0.5169(4) 0.2866(6)
H28 H 0.5487 0.5180 0.2375
H29 H 0.5647 0.5507 0.3030
C50 C 0.5787(4) 0.4937(5) 0.3089(6)
H30 H 0.5609 0.4587 0.2987
H31 H 0.5841 0.4976 0.3576
C51 C 0.6204(8) 0.4957(10) 0.1963(13)
H32 H 0.6512 0.5107 0.1720
H33 H 0.6075 0.4607 0.1993
H34 H 0.5973 0.5020 0.1726
C52 C 0.6293(5) 0.5188(6) 0.2716(7)
H35 H 0.6527 0.5128 0.2958
H36 H 0.6424 0.5542 0.2691
N1 N 0.4951(4) 0.4898(4) 0.3117(7)
C41_2 C 0.5647(4) 0.0318(6) 0.2834(8)
H10_2 H 0.5828 0.0638 0.3051
H11_2 H 0.5798 0.0127 0.2975
C42_2 C 0.5714(5) 0.0394(7) 0.2095(8)
H12_2 H 0.5543 0.0562 0.1938
H13_2 H 0.5568 0.0076 0.1870
C43_2 C 0.6244(5) 0.0689(7) 0.1906(8)
H14_2 H 0.6413 0.0524 0.2085
H15_2 H 0.6384 0.1009 0.2126
C44_2 C 0.6352(6) 0.0772(8) 0.1146(8)
H16_2 H 0.6702 0.0965 0.1076
H17_2 H 0.6226 0.0459 0.0922
H18_2 H 0.6196 0.0944 0.0963
C45_2 C 0.5128(4) 0.0061(6) 0.3882(6)
H19_2 H 0.5310 0.0401 0.4033
H22_2 H 0.4469 0.0003 0.4171
H24_2 H 0.4895 0.0061 0.5193
C49_2 C 0.4831(4) 0.0318(6) 0.2866(6)
H28_2 H 0.4820 0.0307 0.2375
H29_2 H 0.4493 0.0140 0.3030
C50_2 C 0.5063(5) 0.0850(6) 0.3089(6)
H30_2 H 0.5413 0.1022 0.2987
H31_2 H 0.5024 0.0865 0.3576
C51_2 C 0.5043(10) 0.1247(13) 0.1963(13)
H32_2 H 0.4893 0.1405 0.1720
H33_2 H 0.5393 0.1468 0.1993
H34_2 H 0.4980 0.0953 0.1726
C52_2 C 0.4812(6) 0.1105(8) 0.2716(7)
H35_2 H 0.4872 0.1399 0.2958
H36_2 H 0.4458 0.0882 0.2691
N1_2 N 0.5102(4) 0.0053(6) 0.3117(7)
C37_2 C 0.4827(4) 0.9535(6) 0.2848(7)
H1_2 H 0.4482 0.9395 0.2972
H2_2 H 0.4844 0.9552 0.2357
C38_2 C 0.4988(4) 0.9181(5) 0.3071(6)
H3_2 H 0.4893 0.9089 0.3540
H4_2 H 0.5345 0.9340 0.3044
C39_2 C 0.4758(5) 0.8713(6) 0.2627(8)
H5_2 H 0.4405 0.8586 0.2591
H6_2 H 0.4897 0.8799 0.2175
C40_2 C 0.4844(6) 0.8312(8) 0.2908(9)
H7_2 H 0.4693 0.8029 0.2615
H8_2 H 0.5192 0.8432 0.2936
H9_2 H 0.4701 0.8220 0.3353
H20_2 H 0.5312 0.9902 0.4024
C46_2 C 0.4628(5) 0.9807(7) 0.4228(8)
H21_2 H 0.4419 0.9486 0.4021
C47_2 C 0.4689(6) 0.9741(10) 0.4987(9)
H23_2 H 0.4853 0.9549 0.5042
C48_2 C 0.4205(8) 0.9487(12) 0.5337(9)
H25_2 H 0.4255 0.9451 0.5810
H26_2 H 0.4045 0.9679 0.5290
H27_2 H 0.4003 0.9167 0.5139
C37_3 C 0.0465(6) 0.5292(4) 0.2848(7)
H1_3 H 0.0605 0.5087 0.2972
H2_3 H 0.0448 0.5292 0.2357
C38_3 C 0.0819(5) 0.5807(3) 0.3071(6)
H3_3 H 0.0911 0.5804 0.3540
H4_3 H 0.0660 0.6005 0.3044
C39_3 C 0.1287(6) 0.6045(4) 0.2627(8)
H5_3 H 0.1414 0.5819 0.2591
H6_3 H 0.1201 0.6098 0.2175
C40_3 C 0.1688(8) 0.6532(5) 0.2908(9)
H7_3 H 0.1971 0.6664 0.2615
H8_3 H 0.1568 0.6760 0.2936
H9_3 H 0.1780 0.6481 0.3353
H20_3 H 0.0098 0.5410 0.4024
C46_3 C 0.0193(7) 0.4821(5) 0.4228(8)
H21_3 H 0.0514 0.4933 0.4021
C47_3 C 0.0259(10) 0.4948(8) 0.4987(9)
H23_3 H 0.0451 0.5304 0.5042
C48_3 C 0.0513(12) 0.4718(9) 0.5337(9)
H25_3 H 0.0549 0.4804 0.5810
H26_3 H 0.0321 0.4366 0.5290
H27_3 H 0.0833 0.4836 0.5139
C41_3 C 0.9682(6) 0.5329(5) 0.2834(8)
H10_3 H 0.9362 0.5190 0.3051
H11_3 H 0.9873 0.5671 0.2975
C42_3 C 0.9606(7) 0.5320(5) 0.2095(8)
H12_3 H 0.9438 0.4981 0.1938
H13_3 H 0.9924 0.5492 0.1870
C43_3 C 0.9311(7) 0.5555(5) 0.1906(8)
H14_3 H 0.9476 0.5889 0.2085
H15_3 H 0.8991 0.5375 0.2126
C44_3 C 0.9228(8) 0.5580(6) 0.1146(8)
H16_3 H 0.9035 0.5737 0.1076
H17_3 H 0.9541 0.5767 0.0922
H18_3 H 0.9056 0.5252 0.0963
C45_3 C 0.9939(6) 0.5067(5) 0.3882(6)
H19_3 H 0.9599 0.4909 0.4033
H22_3 H 0.9997 0.4466 0.4171
H24_3 H 0.9939 0.4834 0.5193
C49_3 C 0.9682(6) 0.4513(4) 0.2866(6)
H28_3 H 0.9693 0.4513 0.2375
H29_3 H 0.9860 0.4353 0.3030
C50_3 C 0.9150(6) 0.4213(4) 0.3089(6)
H30_3 H 0.8978 0.4391 0.2987
H31_3 H 0.9135 0.4159 0.3576
C51_3 C 0.8753(13) 0.3796(8) 0.1963(13)
H32_3 H 0.8595 0.3488 0.1720
H33_3 H 0.8532 0.3925 0.1993
H34_3 H 0.9047 0.4027 0.1726
C52_3 C 0.8895(8) 0.3707(5) 0.2716(7)
H35_3 H 0.8601 0.3473 0.2958
H36_3 H 0.9118 0.3576 0.2691
N1_3 N 0.9947(6) 0.5049(4) 0.3117(7)
H23_4 H 0.4853 0.5304 0.0042
H24_4 H 0.4895 0.4834 0.0193
C48_4 C 0.4205(8) 0.4718(9) 0.0337(9)
H25_4 H 0.4255 0.4804 0.0810
H26_4 H 0.4045 0.4366 0.0290
H27_4 H 0.4003 0.4836 0.0139
C37_4 C 0.4827(4) 0.5292(4) 0.7848(7)
H1_4 H 0.4482 0.5087 0.7972
H2_4 H 0.4844 0.5292 0.7357
C38_4 C 0.4988(4) 0.5807(3) 0.8071(6)
H3_4 H 0.4893 0.5804 0.8540
H4_4 H 0.5345 0.6005 0.8044
C39_4 C 0.4758(5) 0.6045(4) 0.7627(8)
H5_4 H 0.4405 0.5819 0.7591
H6_4 H 0.4897 0.6098 0.7175
C40_4 C 0.4844(6) 0.6532(5) 0.7908(9)
H7_4 H 0.4693 0.6664 0.7615
H8_4 H 0.5192 0.6760 0.7936
H9_4 H 0.4701 0.6481 0.8353
C41_4 C 0.5647(4) 0.5329(5) 0.7834(8)
H10_4 H 0.5828 0.5190 0.8051
H11_4 H 0.5798 0.5671 0.7975
C42_4 C 0.5714(5) 0.5320(5) 0.7095(8)
H12_4 H 0.5543 0.4981 0.6938
H13_4 H 0.5568 0.5492 0.6870
C43_4 C 0.6244(5) 0.5555(5) 0.6906(8)
H14_4 H 0.6413 0.5889 0.7085
H15_4 H 0.6384 0.5375 0.7126
C44_4 C 0.6352(6) 0.5580(6) 0.6146(8)
H16_4 H 0.6702 0.5737 0.6076
H17_4 H 0.6226 0.5767 0.5922
H18_4 H 0.6196 0.5252 0.5963
C45_4 C 0.5128(4) 0.5067(5) 0.8882(6)
H19_4 H 0.5310 0.4909 0.9033
H20_4 H 0.5312 0.5410 0.9024
C46_4 C 0.4628(5) 0.4821(5) 0.9228(8)
H21_4 H 0.4419 0.4933 0.9021
H22_4 H 0.4469 0.4466 0.9171
C47_4 C 0.4689(6) 0.4948(8) 0.9987(9)
C49_4 C 0.4831(4) 0.4513(4) 0.7866(6)
H28_4 H 0.4820 0.4513 0.7375
H29_4 H 0.4493 0.4353 0.8030
C50_4 C 0.5063(5) 0.4213(4) 0.8089(6)
H30_4 H 0.5413 0.4391 0.7987
H31_4 H 0.5024 0.4159 0.8576
C51_4 C 0.5043(10) 0.3796(8) 0.6963(13)
H32_4 H 0.4893 0.3488 0.6720
H33_4 H 0.5393 0.3925 0.6993
H34_4 H 0.4980 0.4027 0.6726
C52_4 C 0.4812(6) 0.3707(5) 0.7716(7)
H35_4 H 0.4872 0.3473 0.7958
H36_4 H 0.4458 0.3576 0.7691
N1_4 N 0.5102(4) 0.5049(4) 0.8117(7)
H23_5 H 0.0451 0.5147 0.0042
C48_5 C 0.0513(12) 0.5795(8) 0.0337(9)
H25_5 H 0.0549 0.5745 0.0810
H26_5 H 0.0321 0.5955 0.0290
H27_5 H 0.0833 0.5997 0.0139
C37_5 C 0.0465(6) 0.5173(4) 0.7848(7)
H1_5 H 0.0605 0.5518 0.7972
H2_5 H 0.0448 0.5156 0.7357
C38_5 C 0.0819(5) 0.5012(4) 0.8071(6)
H3_5 H 0.0911 0.5107 0.8540
H4_5 H 0.0660 0.4655 0.8044
C39_5 C 0.1287(6) 0.5242(5) 0.7627(8)
H5_5 H 0.1414 0.5595 0.7591
H6_5 H 0.1201 0.5103 0.7175
C40_5 C 0.1688(8) 0.5156(6) 0.7908(9)
H7_5 H 0.1971 0.5307 0.7615
H8_5 H 0.1568 0.4808 0.7936
H9_5 H 0.1780 0.5299 0.8353
H20_5 H 0.0098 0.4688 0.9024
C46_5 C 0.0193(7) 0.5372(5) 0.9228(8)
H21_5 H 0.0514 0.5581 0.9021
C47_5 C 0.0259(10) 0.5311(6) 0.9987(9)
H24_5 H 0.9939 0.5105 0.0193
C41_5 C 0.9682(6) 0.4353(4) 0.7834(8)
H10_5 H 0.9362 0.4172 0.8051
H11_5 H 0.9873 0.4202 0.7975
C42_5 C 0.9606(7) 0.4286(5) 0.7095(8)
H12_5 H 0.9438 0.4457 0.6938
H13_5 H 0.9924 0.4432 0.6870
C43_5 C 0.9311(7) 0.3756(5) 0.6906(8)
H14_5 H 0.9476 0.3587 0.7085
H15_5 H 0.8991 0.3616 0.7126
C44_5 C 0.9228(8) 0.3648(6) 0.6146(8)
H16_5 H 0.9035 0.3298 0.6076
H17_5 H 0.9541 0.3774 0.5922
H18_5 H 0.9056 0.3804 0.5963
C45_5 C 0.9939(6) 0.4872(4) 0.8882(6)
H19_5 H 0.9599 0.4690 0.9033
H22_5 H 0.9997 0.5531 0.9171
C49_5 C 0.9682(6) 0.5169(4) 0.7866(6)
H28_5 H 0.9693 0.5180 0.7375
H29_5 H 0.9860 0.5507 0.8030
C50_5 C 0.9150(6) 0.4937(5) 0.8089(6)
H30_5 H 0.8978 0.4587 0.7987
H31_5 H 0.9135 0.4976 0.8576
C51_5 C 0.8753(13) 0.4957(10) 0.6963(13)
H32_5 H 0.8595 0.5107 0.6720
H33_5 H 0.8532 0.4607 0.6993
H34_5 H 0.9047 0.5020 0.6726
C52_5 C 0.8895(8) 0.5188(6) 0.7716(7)
H35_5 H 0.8601 0.5128 0.7958
H36_5 H 0.9118 0.5542 0.7691
N1_5 N 0.9947(6) 0.4898(4) 0.8117(7)
H24_6 H 0.5166 0.0061 0.0193
C41_6 C 0.4671(5) 0.0318(6) 0.7834(8)
H10_6 H 0.4810 0.0638 0.8051
H11_6 H 0.4329 0.0127 0.7975
C42_6 C 0.4680(5) 0.0394(7) 0.7095(8)
H12_6 H 0.5019 0.0562 0.6938
H13_6 H 0.4508 0.0076 0.6870
C43_6 C 0.4445(5) 0.0689(7) 0.6906(8)
H14_6 H 0.4111 0.0524 0.7085
H15_6 H 0.4625 0.1009 0.7126
C44_6 C 0.4420(6) 0.0772(8) 0.6146(8)
H16_6 H 0.4263 0.0965 0.6076
H17_6 H 0.4233 0.0459 0.5922
H18_6 H 0.4748 0.0944 0.5963
C45_6 C 0.4933(5) 0.0061(6) 0.8882(6)
H19_6 H 0.5091 0.0401 0.9033
H22_6 H 0.5534 0.0003 0.9171
C49_6 C 0.5487(4) 0.0318(6) 0.7866(6)
H28_6 H 0.5487 0.0307 0.7375
H29_6 H 0.5647 0.0140 0.8030
C50_6 C 0.5787(4) 0.0850(6) 0.8089(6)
H30_6 H 0.5609 0.1022 0.7987
H31_6 H 0.5841 0.0865 0.8576
C51_6 C 0.6204(8) 0.1247(13) 0.6963(13)
H32_6 H 0.6512 0.1405 0.6720
H33_6 H 0.6075 0.1468 0.6993
H34_6 H 0.5973 0.0953 0.6726
C52_6 C 0.6293(5) 0.1105(8) 0.7716(7)
H35_6 H 0.6527 0.1399 0.7958
H36_6 H 0.6424 0.0882 0.7691
N1_6 N 0.4951(4) 0.0053(6) 0.8117(7)
H23_6 H 0.4696 0.9549 0.0042
C48_6 C 0.5282(9) 0.9487(12) 0.0337(9)
H25_6 H 0.5196 0.9451 0.0810
H26_6 H 0.5634 0.9679 0.0290
H27_6 H 0.5164 0.9167 0.0139
C37_6 C 0.4708(4) 0.9535(6) 0.7848(7)
H1_6 H 0.4913 0.9395 0.7972
H2_6 H 0.4708 0.9552 0.7357
C38_6 C 0.4193(3) 0.9181(5) 0.8071(6)
H3_6 H 0.4196 0.9089 0.8540
H4_6 H 0.3995 0.9340 0.8044
C39_6 C 0.3955(4) 0.8713(6) 0.7627(8)
H5_6 H 0.4181 0.8586 0.7591
H6_6 H 0.3902 0.8799 0.7175
C40_6 C 0.3468(5) 0.8312(8) 0.7908(9)
H7_6 H 0.3336 0.8029 0.7615
H8_6 H 0.3240 0.8432 0.7936
H9_6 H 0.3519 0.8220 0.8353
H20_6 H 0.4590 0.9902 0.9024
C46_6 C 0.5179(5) 0.9807(7) 0.9228(8)
H21_6 H 0.5067 0.9486 0.9021
C47_6 C 0.5052(8) 0.9741(10) 0.9987(9)
C37_7 C 0.1375(4) 0.8506(4) 0.6181(7)
H1_7 H 0.1580 0.8851 0.6305
H2_7 H 0.1375 0.8489 0.5690
C38_7 C 0.0860(3) 0.8345(4) 0.6404(6)
H3_7 H 0.0863 0.8440 0.6873
H4_7 H 0.0662 0.7988 0.6377
C39_7 C 0.0622(4) 0.8575(5) 0.5960(8)
H5_7 H 0.0848 0.8928 0.5924
H6_7 H 0.0569 0.8436 0.5508
C40_7 C 0.0135(5) 0.8489(6) 0.6241(9)
H7_7 H 0.0003 0.8640 0.5948
H9_7 H 0.0186 0.8632 0.6686
C41_7 C 0.1338(5) 0.7686(4) 0.6167(8)
H10_7 H 0.1477 0.7505 0.6384
H11_7 H 0.0996 0.7535 0.6308
C42_7 C 0.1347(5) 0.7619(5) 0.5428(8)
H12_7 H 0.1686 0.7790 0.5271
H13_7 H 0.1175 0.7765 0.5203
C43_7 C 0.1112(5) 0.7089(5) 0.5239(8)
H14_7 H 0.0778 0.6920 0.5418
H15_7 H 0.1292 0.6949 0.5459
C44_7 C 0.1087(6) 0.6981(6) 0.4479(8)
H16_7 H 0.0930 0.6631 0.4409
H17_7 H 0.0900 0.7107 0.4255
H18_7 H 0.1415 0.7137 0.4296
C45_7 C 0.1600(5) 0.8205(4) 0.7215(6)
H19_7 H 0.1758 0.8023 0.7366
H20_7 H 0.1257 0.8021 0.7357
C46_7 C 0.1846(5) 0.8705(5) 0.7561(8)
H21_7 H 0.1734 0.8914 0.7354
H22_7 H 0.2201 0.8864 0.7504
C47_7 C 0.1719(8) 0.8644(6) 0.8320(9)
H23_7 H 0.1363 0.8480 0.8375
H24_7 H 0.1833 0.8438 0.8526
C48_7 C 0.1949(9) 0.9128(8) 0.8670(9)
H25_7 H 0.1863 0.9078 0.9143
H26_7 H 0.2301 0.9288 0.8623
H27_7 H 0.1831 0.9330 0.8472
C49_7 C 0.2154(4) 0.8502(4) 0.6199(6)
H28_7 H 0.2154 0.8513 0.5708
H29_7 H 0.2314 0.8840 0.6363
C50_7 C 0.2454(4) 0.8270(5) 0.6422(6)
H30_7 H 0.2276 0.7920 0.6320
H31_7 H 0.2508 0.8309 0.6909
C51_7 C 0.2871(8) 0.8290(10) 0.5296(13)
H32_7 H 0.3179 0.8440 0.5053
H33_7 H 0.2742 0.7940 0.5326
H34_7 H 0.2640 0.8353 0.5059
C52_7 C 0.2960(5) 0.8521(6) 0.6049(7)
H35_7 H 0.3194 0.8461 0.6291
H36_7 H 0.3091 0.8875 0.6024
N1_7 N 0.1618(4) 0.8231(4) 0.6450(7)
H8_7 H 0.9907 0.8141 0.6269
C37_8 C 0.1494(4) 0.2868(6) 0.6181(7)
H1_8 H 0.1149 0.2728 0.6305
H2_8 H 0.1511 0.2885 0.5690
C38_8 C 0.1655(4) 0.2514(5) 0.6404(6)
H3_8 H 0.1560 0.2422 0.6873
H4_8 H 0.2012 0.2673 0.6377
C39_8 C 0.1425(5) 0.2046(6) 0.5960(8)
H5_8 H 0.1072 0.1919 0.5924
H6_8 H 0.1564 0.2132 0.5508
C40_8 C 0.1511(6) 0.1645(8) 0.6241(9)
H7_8 H 0.1360 0.1362 0.5948
H8_8 H 0.1859 0.1765 0.6269
H9_8 H 0.1368 0.1553 0.6686
C41_8 C 0.2314(4) 0.3651(6) 0.6167(8)
H10_8 H 0.2495 0.3971 0.6384
H11_8 H 0.2465 0.3460 0.6308
C42_8 C 0.2381(5) 0.3727(7) 0.5428(8)
H12_8 H 0.2210 0.3895 0.5271
H13_8 H 0.2235 0.3409 0.5203
C43_8 C 0.2911(5) 0.4022(7) 0.5239(8)
H14_8 H 0.3080 0.3857 0.5418
H15_8 H 0.3051 0.4342 0.5459
C44_8 C 0.3019(6) 0.4105(8) 0.4479(8)
H16_8 H 0.3369 0.4298 0.4409
H17_8 H 0.2893 0.3792 0.4255
H18_8 H 0.2863 0.4277 0.4296
C45_8 C 0.1795(4) 0.3394(6) 0.7215(6)
H19_8 H 0.1977 0.3734 0.7366
H20_8 H 0.1979 0.3235 0.7357
C46_8 C 0.1295(5) 0.3140(7) 0.7561(8)
H21_8 H 0.1086 0.2819 0.7354
H22_8 H 0.1136 0.3336 0.7504
C47_8 C 0.1356(6) 0.3074(10) 0.8320(9)
H23_8 H 0.1520 0.2882 0.8375
H24_8 H 0.1562 0.3394 0.8526
C48_8 C 0.0872(8) 0.2820(12) 0.8670(9)
H25_8 H 0.0922 0.2784 0.9143
H26_8 H 0.0712 0.3012 0.8623
H27_8 H 0.0670 0.2500 0.8472
C49_8 C 0.1498(4) 0.3651(6) 0.6199(6)
H28_8 H 0.1487 0.3640 0.5708
H29_8 H 0.1160 0.3473 0.6363
C50_8 C 0.1730(5) 0.4183(6) 0.6422(6)
H30_8 H 0.2080 0.4355 0.6320
H31_8 H 0.1691 0.4198 0.6909
C51_8 C 0.1710(10) 0.4580(13) 0.5296(13)
H32_8 H 0.1560 0.4738 0.5053
H33_8 H 0.2060 0.4801 0.5326
H34_8 H 0.1647 0.4286 0.5059
C52_8 C 0.1479(6) 0.4438(8) 0.6049(7)
H35_8 H 0.1539 0.4732 0.6291
H36_8 H 0.1125 0.4215 0.6024
N1_8 N 0.1769(4) 0.3386(6) 0.6450(7)
H8_9 H 0.8235 0.0093 0.6269
C37_9 C 0.7132(6) 0.8625(4) 0.6181(7)
H1_9 H 0.7272 0.8420 0.6305
H2_9 H 0.7115 0.8625 0.5690
C38_9 C 0.7486(5) 0.9140(3) 0.6404(6)
H3_9 H 0.7578 0.9137 0.6873
H4_9 H 0.7327 0.9338 0.6377
C39_9 C 0.7954(6) 0.9378(4) 0.5960(8)
H5_9 H 0.8081 0.9152 0.5924
H6_9 H 0.7868 0.9431 0.5508
C40_9 C 0.8355(8) 0.9865(5) 0.6241(9)
H7_9 H 0.8638 0.9997 0.5948
H9_9 H 0.8447 0.9814 0.6686
C41_9 C 0.6349(6) 0.8662(5) 0.6167(8)
H10_9 H 0.6029 0.8523 0.6384
H11_9 H 0.6540 0.9004 0.6308
C42_9 C 0.6273(7) 0.8653(5) 0.5428(8)
H12_9 H 0.6105 0.8314 0.5271
H13_9 H 0.6591 0.8825 0.5203
C43_9 C 0.5978(7) 0.8888(5) 0.5239(8)
H14_9 H 0.6143 0.9222 0.5418
H15_9 H 0.5658 0.8708 0.5459
C44_9 C 0.5895(8) 0.8913(6) 0.4479(8)
H16_9 H 0.5702 0.9070 0.4409
H17_9 H 0.6208 0.9100 0.4255
H18_9 H 0.5723 0.8585 0.4296
C45_9 C 0.6606(6) 0.8400(5) 0.7215(6)
H19_9 H 0.6266 0.8242 0.7366
H20_9 H 0.6765 0.8743 0.7357
C46_9 C 0.6860(7) 0.8154(5) 0.7561(8)
H21_9 H 0.7181 0.8266 0.7354
H22_9 H 0.6664 0.7799 0.7504
C47_9 C 0.6926(10) 0.8281(8) 0.8320(9)
H23_9 H 0.7118 0.8637 0.8375
H24_9 H 0.6606 0.8167 0.8526
C48_9 C 0.7180(12) 0.8051(9) 0.8670(9)
H25_9 H 0.7216 0.8137 0.9143
H26_9 H 0.6988 0.7699 0.8623
H27_9 H 0.7500 0.8169 0.8472
C49_9 C 0.6349(6) 0.7846(4) 0.6199(6)
H28_9 H 0.6360 0.7846 0.5708
H29_9 H 0.6527 0.7686 0.6363
C50_9 C 0.5817(6) 0.7546(4) 0.6422(6)
H30_9 H 0.5645 0.7724 0.6320
H31_9 H 0.5802 0.7492 0.6909
C51_9 C 0.5420(13) 0.7129(8) 0.5296(13)
H32_9 H 0.5262 0.6821 0.5053
H33_9 H 0.5199 0.7258 0.5326
H34_9 H 0.5714 0.7360 0.5059
C52_9 C 0.5562(8) 0.7040(5) 0.6049(7)
H35_9 H 0.5268 0.6806 0.6291
H36_9 H 0.5785 0.6909 0.6024
N1_9 N 0.6614(6) 0.8382(4) 0.6450(7)
H8_10 H 0.1859 0.0093 0.1269
C37_10 C 0.1494(4) 0.8625(4) 0.1181(7)
H1_10 H 0.1149 0.8420 0.1305
H2_10 H 0.1511 0.8625 0.0690
C38_10 C 0.1655(4) 0.9140(3) 0.1404(6)
H3_10 H 0.1560 0.9137 0.1873
H4_10 H 0.2012 0.9338 0.1377
C39_10 C 0.1425(5) 0.9378(4) 0.0960(8)
H5_10 H 0.1072 0.9152 0.0924
H6_10 H 0.1564 0.9431 0.0508
C40_10 C 0.1511(6) 0.9865(5) 0.1241(9)
H7_10 H 0.1360 0.9997 0.0948
H9_10 H 0.1368 0.9814 0.1686
C41_10 C 0.2314(4) 0.8662(5) 0.1167(8)
H10_10 H 0.2495 0.8523 0.1384
H11_10 H 0.2465 0.9004 0.1308
C42_10 C 0.2381(5) 0.8653(5) 0.0428(8)
H12_10 H 0.2210 0.8314 0.0271
H13_10 H 0.2235 0.8825 0.0203
C43_10 C 0.2911(5) 0.8888(5) 0.0239(8)
H14_10 H 0.3080 0.9222 0.0418
H15_10 H 0.3051 0.8708 0.0459
C45_10 C 0.1795(4) 0.8400(5) 0.2215(6)
H19_10 H 0.1977 0.8242 0.2366
H20_10 H 0.1979 0.8743 0.2357
C46_10 C 0.1295(5) 0.8154(5) 0.2561(8)
H21_10 H 0.1086 0.8266 0.2354
H22_10 H 0.1136 0.7799 0.2504
C47_10 C 0.1356(6) 0.8281(8) 0.3320(9)
H23_10 H 0.1520 0.8637 0.3375
H24_10 H 0.1562 0.8167 0.3526
C48_10 C 0.0872(8) 0.8051(9) 0.3670(9)
H25_10 H 0.0922 0.8137 0.4143
H26_10 H 0.0712 0.7699 0.3623
H27_10 H 0.0670 0.8169 0.3472
C49_10 C 0.1498(4) 0.7846(4) 0.1199(6)
H28_10 H 0.1487 0.7846 0.0708
H29_10 H 0.1160 0.7686 0.1363
C50_10 C 0.1730(5) 0.7546(4) 0.1422(6)
H30_10 H 0.2080 0.7724 0.1320
H31_10 H 0.1691 0.7492 0.1909
C51_10 C 0.1710(10) 0.7129(8) 0.0296(13)
H32_10 H 0.1560 0.6821 0.0053
H33_10 H 0.2060 0.7258 0.0326
H34_10 H 0.1647 0.7360 0.0059
C52_10 C 0.1479(6) 0.7040(5) 0.1049(7)
H35_10 H 0.1539 0.6806 0.1291
H36_10 H 0.1125 0.6909 0.1024
N1_10 N 0.1769(4) 0.8382(4) 0.1450(7)
C44_10 C 0.3019(6) 0.8913(6) 0.9479(8)
H16_10 H 0.3369 0.9070 0.9409
H17_10 H 0.2893 0.9100 0.9255
H18_10 H 0.2863 0.8585 0.9296
C37_11 C 0.7132(6) 0.8506(4) 0.1181(7)
H1_11 H 0.7272 0.8851 0.1305
H2_11 H 0.7115 0.8489 0.0690
C38_11 C 0.7486(5) 0.8345(4) 0.1404(6)
H3_11 H 0.7578 0.8440 0.1873
H4_11 H 0.7327 0.7988 0.1377
C39_11 C 0.7954(6) 0.8575(5) 0.0960(8)
H5_11 H 0.8081 0.8928 0.0924
H6_11 H 0.7868 0.8436 0.0508
C40_11 C 0.8355(8) 0.8489(6) 0.1241(9)
H7_11 H 0.8638 0.8640 0.0948
H8_11 H 0.8235 0.8141 0.1269
H9_11 H 0.8447 0.8632 0.1686
C41_11 C 0.6349(6) 0.7686(4) 0.1167(8)
H10_11 H 0.6029 0.7505 0.1384
H11_11 H 0.6540 0.7535 0.1308
C42_11 C 0.6273(7) 0.7619(5) 0.0428(8)
H12_11 H 0.6105 0.7790 0.0271
H13_11 H 0.6591 0.7765 0.0203
C43_11 C 0.5978(7) 0.7089(5) 0.0239(8)
H14_11 H 0.6143 0.6920 0.0418
H15_11 H 0.5658 0.6949 0.0459
C45_11 C 0.6606(6) 0.8205(4) 0.2215(6)
H19_11 H 0.6266 0.8023 0.2366
H20_11 H 0.6765 0.8021 0.2357
C46_11 C 0.6860(7) 0.8705(5) 0.2561(8)
H21_11 H 0.7181 0.8914 0.2354
H22_11 H 0.6664 0.8864 0.2504
C47_11 C 0.6926(10) 0.8644(6) 0.3320(9)
H23_11 H 0.7118 0.8480 0.3375
H24_11 H 0.6606 0.8438 0.3526
C48_11 C 0.7180(12) 0.9128(8) 0.3670(9)
H25_11 H 0.7216 0.9078 0.4143
H26_11 H 0.6988 0.9288 0.3623
H27_11 H 0.7500 0.9330 0.3472
C49_11 C 0.6349(6) 0.8502(4) 0.1199(6)
H28_11 H 0.6360 0.8513 0.0708
H29_11 H 0.6527 0.8840 0.1363
C50_11 C 0.5817(6) 0.8270(5) 0.1422(6)
H30_11 H 0.5645 0.7920 0.1320
H31_11 H 0.5802 0.8309 0.1909
C51_11 C 0.5420(13) 0.8290(10) 0.0296(13)
H32_11 H 0.5262 0.8440 0.0053
H33_11 H 0.5199 0.7940 0.0326
H34_11 H 0.5714 0.8353 0.0059
C52_11 C 0.5562(8) 0.8521(6) 0.1049(7)
H35_11 H 0.5268 0.8461 0.1291
H36_11 H 0.5785 0.8875 0.1024
N1_11 N 0.6614(6) 0.8231(4) 0.1450(7)
C44_11 C 0.5895(8) 0.6981(6) 0.9479(8)
H16_11 H 0.5702 0.6631 0.9409
H17_11 H 0.6208 0.7107 0.9255
H18_11 H 0.5723 0.7137 0.9296
C37_12 C 0.1375(4) 0.2868(6) 0.1181(7)
H1_12 H 0.1580 0.2728 0.1305
H2_12 H 0.1375 0.2885 0.0690
C38_12 C 0.0860(3) 0.2514(5) 0.1404(6)
H3_12 H 0.0863 0.2422 0.1873
H4_12 H 0.0662 0.2673 0.1377
C39_12 C 0.0622(4) 0.2046(6) 0.0960(8)
H5_12 H 0.0848 0.1919 0.0924
H6_12 H 0.0569 0.2132 0.0508
C40_12 C 0.0135(5) 0.1645(8) 0.1241(9)
H7_12 H 0.0003 0.1362 0.0948
H9_12 H 0.0186 0.1553 0.1686
C41_12 C 0.1338(5) 0.3651(6) 0.1167(8)
H10_12 H 0.1477 0.3971 0.1384
H11_12 H 0.0996 0.3460 0.1308
C42_12 C 0.1347(5) 0.3727(7) 0.0428(8)
H12_12 H 0.1686 0.3895 0.0271
H13_12 H 0.1175 0.3409 0.0203
C43_12 C 0.1112(5) 0.4022(7) 0.0239(8)
H14_12 H 0.0778 0.3857 0.0418
H15_12 H 0.1292 0.4342 0.0459
C45_12 C 0.1600(5) 0.3394(6) 0.2215(6)
H19_12 H 0.1758 0.3734 0.2366
H20_12 H 0.1257 0.3235 0.2357
C46_12 C 0.1846(5) 0.3140(7) 0.2561(8)
H21_12 H 0.1734 0.2819 0.2354
H22_12 H 0.2201 0.3336 0.2504
C47_12 C 0.1719(8) 0.3074(10) 0.3320(9)
H23_12 H 0.1363 0.2882 0.3375
H24_12 H 0.1833 0.3394 0.3526
C48_12 C 0.1949(9) 0.2820(12) 0.3670(9)
H25_12 H 0.1863 0.2784 0.4143
H26_12 H 0.2301 0.3012 0.3623
H27_12 H 0.1831 0.2500 0.3472
C49_12 C 0.2154(4) 0.3651(6) 0.1199(6)
H28_12 H 0.2154 0.3640 0.0708
H29_12 H 0.2314 0.3473 0.1363
C50_12 C 0.2454(4) 0.4183(6) 0.1422(6)
H30_12 H 0.2276 0.4355 0.1320
H31_12 H 0.2508 0.4198 0.1909
C51_12 C 0.2871(8) 0.4580(13) 0.0296(13)
H32_12 H 0.3179 0.4738 0.0053
H33_12 H 0.2742 0.4801 0.0326
H34_12 H 0.2640 0.4286 0.0059
C52_12 C 0.2960(5) 0.4438(8) 0.1049(7)
H35_12 H 0.3194 0.4732 0.1291
H36_12 H 0.3091 0.4215 0.1024
N1_12 N 0.1618(4) 0.3386(6) 0.1450(7)
C44_12 C 0.1087(6) 0.4105(8) 0.9479(8)
H16_12 H 0.0930 0.4298 0.9409
H17_12 H 0.0900 0.3792 0.9255
H18_12 H 0.1415 0.4277 0.9296
H8_12 H 0.9907 0.1765 0.1269
H3_13 H 0.7529 0.1774 0.0207
H9_13 H 0.6852 0.1966 0.0020
C45_13 C 0.8266(5) 0.1539(4) 0.0549(6)
H19_13 H 0.8424 0.1357 0.0700
H20_13 H 0.7923 0.1355 0.0691
C46_13 C 0.8512(5) 0.2039(5) 0.0895(8)
H21_13 H 0.8400 0.2248 0.0688
H22_13 H 0.8867 0.2198 0.0838
C47_13 C 0.8385(8) 0.1978(6) 0.1654(9)
H23_13 H 0.8029 0.1814 0.1709
H24_13 H 0.8499 0.1772 0.1860
C48_13 C 0.8615(9) 0.2462(8) 0.2004(9)
H25_13 H 0.8529 0.2412 0.2477
H26_13 H 0.8967 0.2622 0.1957
H27_13 H 0.8497 0.2664 0.1806
H31_13 H 0.9174 0.1643 0.0243
C37_13 C 0.8041(4) 0.1840(4) 0.9515(7)
H1_13 H 0.8246 0.2185 0.9639
H2_13 H 0.8041 0.1823 0.9024
C38_13 C 0.7526(3) 0.1679(4) 0.9738(6)
H4_13 H 0.7328 0.1322 0.9711
C39_13 C 0.7288(4) 0.1909(5) 0.9294(8)
H5_13 H 0.7514 0.2262 0.9258
H6_13 H 0.7235 0.1770 0.8842
C40_13 C 0.6801(5) 0.1823(6) 0.9575(9)
H7_13 H 0.6669 0.1974 0.9282
H8_13 H 0.6573 0.1475 0.9603
C41_13 C 0.8004(5) 0.1020(4) 0.9501(8)
H10_13 H 0.8143 0.0839 0.9718
H11_13 H 0.7662 0.0869 0.9642
C42_13 C 0.8013(5) 0.0953(5) 0.8762(8)
H12_13 H 0.8352 0.1124 0.8605
H13_13 H 0.7841 0.1099 0.8537
C43_13 C 0.7778(5) 0.0423(5) 0.8573(8)
H14_13 H 0.7444 0.0254 0.8752
H15_13 H 0.7958 0.0283 0.8793
C44_13 C 0.7753(6) 0.0315(6) 0.7813(8)
H17_13 H 0.7566 0.0441 0.7589
H18_13 H 0.8081 0.0471 0.7630
C49_13 C 0.8820(4) 0.1836(4) 0.9533(6)
H28_13 H 0.8820 0.1847 0.9042
H29_13 H 0.8980 0.2174 0.9697
C50_13 C 0.9120(4) 0.1604(5) 0.9756(6)
H30_13 H 0.8942 0.1254 0.9654
C51_13 C 0.9537(8) 0.1624(10) 0.8630(13)
H32_13 H 0.9845 0.1774 0.8387
H33_13 H 0.9408 0.1274 0.8660
H34_13 H 0.9306 0.1687 0.8393
C52_13 C 0.9626(5) 0.1855(6) 0.9383(7)
H35_13 H 0.9860 0.1795 0.9625
H36_13 H 0.9757 0.2209 0.9358
N1_13 N 0.8284(4) 0.1565(4) 0.9784(7)
H16_13 H 0.7596 0.9965 0.7743
H16_14 H 0.0035 0.7632 0.7743
H3_14 H 0.8226 0.5756 0.0207
H9_14 H 0.8034 0.4887 0.0020
C45_14 C 0.8461(4) 0.6728(6) 0.0549(6)
H19_14 H 0.8643 0.7068 0.0700
H20_14 H 0.8645 0.6569 0.0691
C46_14 C 0.7961(5) 0.6474(7) 0.0895(8)
H21_14 H 0.7752 0.6153 0.0688
H22_14 H 0.7802 0.6670 0.0838
C47_14 C 0.8022(6) 0.6408(10) 0.1654(9)
H23_14 H 0.8186 0.6216 0.1709
H24_14 H 0.8228 0.6728 0.1860
C48_14 C 0.7538(8) 0.6154(12) 0.2004(9)
H25_14 H 0.7588 0.6118 0.2477
H26_14 H 0.7378 0.6346 0.1957
H27_14 H 0.7336 0.5834 0.1806
H31_14 H 0.8357 0.7532 0.0243
C37_14 C 0.8160(4) 0.6202(6) 0.9515(7)
H1_14 H 0.7815 0.6062 0.9639
H2_14 H 0.8177 0.6219 0.9024
C38_14 C 0.8321(4) 0.5848(5) 0.9738(6)
H4_14 H 0.8678 0.6007 0.9711
C39_14 C 0.8091(5) 0.5380(6) 0.9294(8)
H5_14 H 0.7738 0.5253 0.9258
H6_14 H 0.8230 0.5466 0.8842
C40_14 C 0.8177(6) 0.4979(8) 0.9575(9)
H7_14 H 0.8026 0.4696 0.9282
H8_14 H 0.8525 0.5099 0.9603
C41_14 C 0.8980(4) 0.6985(6) 0.9501(8)
H10_14 H 0.9161 0.7305 0.9718
H11_14 H 0.9131 0.6794 0.9642
C42_14 C 0.9047(5) 0.7061(7) 0.8762(8)
H12_14 H 0.8876 0.7229 0.8605
H13_14 H 0.8901 0.6743 0.8537
C43_14 C 0.9577(5) 0.7356(7) 0.8573(8)
H14_14 H 0.9746 0.7191 0.8752
H15_14 H 0.9717 0.7676 0.8793
C44_14 C 0.9685(6) 0.7439(8) 0.7813(8)
H17_14 H 0.9559 0.7126 0.7589
H18_14 H 0.9529 0.7611 0.7630
C49_14 C 0.8164(4) 0.6985(6) 0.9533(6)
H28_14 H 0.8153 0.6974 0.9042
H29_14 H 0.7826 0.6807 0.9697
C50_14 C 0.8396(5) 0.7517(6) 0.9756(6)
H30_14 H 0.8746 0.7689 0.9654
C51_14 C 0.8376(10) 0.7914(13) 0.8630(13)
H32_14 H 0.8226 0.8072 0.8387
H33_14 H 0.8726 0.8135 0.8660
H34_14 H 0.8313 0.7620 0.8393
C52_14 C 0.8145(6) 0.7772(8) 0.9383(7)
H35_14 H 0.8205 0.8066 0.9625
H36_14 H 0.7791 0.7549 0.9358
N1_14 N 0.8435(4) 0.6720(6) 0.9784(7)
H3_15 H 0.4244 0.2471 0.0207
H9_15 H 0.5113 0.3148 0.0020
C45_15 C 0.3272(6) 0.1734(5) 0.0549(6)
H19_15 H 0.2932 0.1576 0.0700
H20_15 H 0.3431 0.2077 0.0691
C46_15 C 0.3526(7) 0.1488(5) 0.0895(8)
H21_15 H 0.3847 0.1600 0.0688
H22_15 H 0.3330 0.1133 0.0838
C47_15 C 0.3592(10) 0.1615(8) 0.1654(9)
H23_15 H 0.3784 0.1971 0.1709
H24_15 H 0.3272 0.1501 0.1860
C48_15 C 0.3846(12) 0.1385(9) 0.2004(9)
H25_15 H 0.3882 0.1471 0.2477
H26_15 H 0.3654 0.1033 0.1957
H27_15 H 0.4166 0.1503 0.1806
H31_15 H 0.2468 0.0826 0.0243
C37_15 C 0.3798(6) 0.1959(4) 0.9515(7)
H1_15 H 0.3938 0.1754 0.9639
H2_15 H 0.3781 0.1959 0.9024
C38_15 C 0.4152(5) 0.2474(3) 0.9738(6)
H4_15 H 0.3993 0.2672 0.9711
C39_15 C 0.4620(6) 0.2712(4) 0.9294(8)
H5_15 H 0.4747 0.2486 0.9258
H6_15 H 0.4534 0.2765 0.8842
C40_15 C 0.5021(8) 0.3199(5) 0.9575(9)
H7_15 H 0.5304 0.3331 0.9282
H8_15 H 0.4901 0.3427 0.9603
C41_15 C 0.3015(6) 0.1996(5) 0.9501(8)
H10_15 H 0.2695 0.1857 0.9718
H11_15 H 0.3206 0.2338 0.9642
C42_15 C 0.2939(7) 0.1987(5) 0.8762(8)
H12_15 H 0.2771 0.1648 0.8605
H13_15 H 0.3257 0.2159 0.8537
C43_15 C 0.2644(7) 0.2222(5) 0.8573(8)
H14_15 H 0.2809 0.2556 0.8752
H15_15 H 0.2324 0.2042 0.8793
C44_15 C 0.2561(8) 0.2247(6) 0.7813(8)
H16_15 H 0.2368 0.2404 0.7743
H17_15 H 0.2874 0.2434 0.7589
H18_15 H 0.2389 0.1919 0.7630
C49_15 C 0.3015(6) 0.1180(4) 0.9533(6)
H28_15 H 0.3026 0.1180 0.9042
H29_15 H 0.3193 0.1020 0.9697
C50_15 C 0.2483(6) 0.0880(4) 0.9756(6)
H30_15 H 0.2311 0.1058 0.9654
C51_15 C 0.2086(13) 0.0463(8) 0.8630(13)
H32_15 H 0.1928 0.0155 0.8387
H33_15 H 0.1865 0.0592 0.8660
H34_15 H 0.2380 0.0694 0.8393
C52_15 C 0.2228(8) 0.0374(5) 0.9383(7)
H35_15 H 0.1934 0.0140 0.9625
H36_15 H 0.2451 0.0243 0.9358
N1_15 N 0.3280(6) 0.1716(4) 0.9784(7)
H16_16 H 0.0035 0.2404 0.2743
C37_16 C 0.8160(4) 0.1959(4) 0.4515(7)
H1_16 H 0.7815 0.1754 0.4639
H2_16 H 0.8177 0.1959 0.4024
C38_16 C 0.8321(4) 0.2474(3) 0.4738(6)
H3_16 H 0.8226 0.2471 0.5207
H4_16 H 0.8678 0.2672 0.4711
C39_16 C 0.8091(5) 0.2712(4) 0.4294(8)
H5_16 H 0.7738 0.2486 0.4258
H6_16 H 0.8230 0.2765 0.3842
C40_16 C 0.8177(6) 0.3199(5) 0.4575(9)
H7_16 H 0.8026 0.3331 0.4282
H8_16 H 0.8525 0.3427 0.4603
H9_16 H 0.8034 0.3148 0.5020
C41_16 C 0.8980(4) 0.1996(5) 0.4501(8)
H10_16 H 0.9161 0.1857 0.4718
H11_16 H 0.9131 0.2338 0.4642
C42_16 C 0.9047(5) 0.1987(5) 0.3762(8)
H12_16 H 0.8876 0.1648 0.3605
H13_16 H 0.8901 0.2159 0.3537
C43_16 C 0.9577(5) 0.2222(5) 0.3573(8)
H14_16 H 0.9746 0.2556 0.3752
H15_16 H 0.9717 0.2042 0.3793
C44_16 C 0.9685(6) 0.2247(6) 0.2813(8)
H17_16 H 0.9559 0.2434 0.2589
H18_16 H 0.9529 0.1919 0.2630
C45_16 C 0.8461(4) 0.1734(5) 0.5549(6)
H19_16 H 0.8643 0.1576 0.5700
H20_16 H 0.8645 0.2077 0.5691
C46_16 C 0.7961(5) 0.1488(5) 0.5895(8)
H21_16 H 0.7752 0.1600 0.5688
H22_16 H 0.7802 0.1133 0.5838
C47_16 C 0.8022(6) 0.1615(8) 0.6654(9)
H23_16 H 0.8186 0.1971 0.6709
H24_16 H 0.8228 0.1501 0.6860
C48_16 C 0.7538(8) 0.1385(9) 0.7004(9)
H25_16 H 0.7588 0.1471 0.7477
H26_16 H 0.7378 0.1033 0.6957
H27_16 H 0.7336 0.1503 0.6806
C49_16 C 0.8164(4) 0.1180(4) 0.4533(6)
H28_16 H 0.8153 0.1180 0.4042
H29_16 H 0.7826 0.1020 0.4697
C50_16 C 0.8396(5) 0.0880(4) 0.4756(6)
H30_16 H 0.8746 0.1058 0.4654
H31_16 H 0.8357 0.0826 0.5243
C51_16 C 0.8376(10) 0.0463(8) 0.3630(13)
H32_16 H 0.8226 0.0155 0.3387
H33_16 H 0.8726 0.0592 0.3660
H34_16 H 0.8313 0.0694 0.3393
C52_16 C 0.8145(6) 0.0374(5) 0.4383(7)
H35_16 H 0.8205 0.0140 0.4625
H36_16 H 0.7791 0.0243 0.4358
N1_16 N 0.8435(4) 0.1716(4) 0.4784(7)
C37_17 C 0.3798(6) 0.1840(4) 0.4515(7)
H1_17 H 0.3938 0.2185 0.4639
H2_17 H 0.3781 0.1823 0.4024
C38_17 C 0.4152(5) 0.1679(4) 0.4738(6)
H3_17 H 0.4244 0.1774 0.5207
H4_17 H 0.3993 0.1322 0.4711
C39_17 C 0.4620(6) 0.1909(5) 0.4294(8)
H5_17 H 0.4747 0.2262 0.4258
H6_17 H 0.4534 0.1770 0.3842
C40_17 C 0.5021(8) 0.1823(6) 0.4575(9)
H7_17 H 0.5304 0.1974 0.4282
H8_17 H 0.4901 0.1475 0.4603
H9_17 H 0.5113 0.1966 0.5020
C41_17 C 0.3015(6) 0.1020(4) 0.4501(8)
H10_17 H 0.2695 0.0839 0.4718
H11_17 H 0.3206 0.0869 0.4642
C42_17 C 0.2939(7) 0.0953(5) 0.3762(8)
H12_17 H 0.2771 0.1124 0.3605
H13_17 H 0.3257 0.1099 0.3537
C43_17 C 0.2644(7) 0.0423(5) 0.3573(8)
H14_17 H 0.2809 0.0254 0.3752
H15_17 H 0.2324 0.0283 0.3793
C44_17 C 0.2561(8) 0.0315(6) 0.2813(8)
H17_17 H 0.2874 0.0441 0.2589
H18_17 H 0.2389 0.0471 0.2630
C45_17 C 0.3272(6) 0.1539(4) 0.5549(6)
H19_17 H 0.2932 0.1357 0.5700
H20_17 H 0.3431 0.1355 0.5691
C46_17 C 0.3526(7) 0.2039(5) 0.5895(8)
H21_17 H 0.3847 0.2248 0.5688
H22_17 H 0.3330 0.2198 0.5838
C47_17 C 0.3592(10) 0.1978(6) 0.6654(9)
H23_17 H 0.3784 0.1814 0.6709
H24_17 H 0.3272 0.1772 0.6860
C48_17 C 0.3846(12) 0.2462(8) 0.7004(9)
H25_17 H 0.3882 0.2412 0.7477
H26_17 H 0.3654 0.2622 0.6957
H27_17 H 0.4166 0.2664 0.6806
C49_17 C 0.3015(6) 0.1836(4) 0.4533(6)
H28_17 H 0.3026 0.1847 0.4042
H29_17 H 0.3193 0.2174 0.4697
C50_17 C 0.2483(6) 0.1604(5) 0.4756(6)
H30_17 H 0.2311 0.1254 0.4654
H31_17 H 0.2468 0.1643 0.5243
C51_17 C 0.2086(13) 0.1624(10) 0.3630(13)
H32_17 H 0.1928 0.1774 0.3387
H33_17 H 0.1865 0.1274 0.3660
H34_17 H 0.2380 0.1687 0.3393
C52_17 C 0.2228(8) 0.1855(6) 0.4383(7)
H35_17 H 0.1934 0.1795 0.4625
H36_17 H 0.2451 0.2209 0.4358
N1_17 N 0.3280(6) 0.1565(4) 0.4784(7)
H16_17 H 0.2368 0.9965 0.2743
C37_18 C 0.8041(4) 0.6202(6) 0.4515(7)
H1_18 H 0.8246 0.6062 0.4639
H2_18 H 0.8041 0.6219 0.4024
C38_18 C 0.7526(3) 0.5848(5) 0.4738(6)
H3_18 H 0.7529 0.5756 0.5207
H4_18 H 0.7328 0.6007 0.4711
C39_18 C 0.7288(4) 0.5380(6) 0.4294(8)
H5_18 H 0.7514 0.5253 0.4258
H6_18 H 0.7235 0.5466 0.3842
C40_18 C 0.6801(5) 0.4979(8) 0.4575(9)
H7_18 H 0.6669 0.4696 0.4282
H8_18 H 0.6573 0.5099 0.4603
H9_18 H 0.6852 0.4887 0.5020
C41_18 C 0.8004(5) 0.6985(6) 0.4501(8)
H10_18 H 0.8143 0.7305 0.4718
H11_18 H 0.7662 0.6794 0.4642
C42_18 C 0.8013(5) 0.7061(7) 0.3762(8)
H12_18 H 0.8352 0.7229 0.3605
H13_18 H 0.7841 0.6743 0.3537
C43_18 C 0.7778(5) 0.7356(7) 0.3573(8)
H14_18 H 0.7444 0.7191 0.3752
H15_18 H 0.7958 0.7676 0.3793
C44_18 C 0.7753(6) 0.7439(8) 0.2813(8)
H16_18 H 0.7596 0.7632 0.2743
H17_18 H 0.7566 0.7126 0.2589
H18_18 H 0.8081 0.7611 0.2630
C45_18 C 0.8266(5) 0.6728(6) 0.5549(6)
H19_18 H 0.8424 0.7068 0.5700
H20_18 H 0.7923 0.6569 0.5691
C46_18 C 0.8512(5) 0.6474(7) 0.5895(8)
H21_18 H 0.8400 0.6153 0.5688
H22_18 H 0.8867 0.6670 0.5838
C47_18 C 0.8385(8) 0.6408(10) 0.6654(9)
H23_18 H 0.8029 0.6216 0.6709
H24_18 H 0.8499 0.6728 0.6860
C48_18 C 0.8615(9) 0.6154(12) 0.7004(9)
H25_18 H 0.8529 0.6118 0.7477
H26_18 H 0.8967 0.6346 0.6957
H27_18 H 0.8497 0.5834 0.6806
C49_18 C 0.8820(4) 0.6985(6) 0.4533(6)
H28_18 H 0.8820 0.6974 0.4042
H29_18 H 0.8980 0.6807 0.4697
C50_18 C 0.9120(4) 0.7517(6) 0.4756(6)
H30_18 H 0.8942 0.7689 0.4654
H31_18 H 0.9174 0.7532 0.5243
C51_18 C 0.9537(8) 0.7914(13) 0.3630(13)
H32_18 H 0.9845 0.8072 0.3387
H33_18 H 0.9408 0.8135 0.3660
H34_18 H 0.9306 0.7620 0.3393
C52_18 C 0.9626(5) 0.7772(8) 0.4383(7)
H35_18 H 0.9860 0.8066 0.4625
H36_18 H 0.9757 0.7549 0.4358
N1_18 N 0.8284(4) 0.6720(6) 0.4784(7)
loop_
_geom_bond_atom_site_label_1
_geom_bond_atom_site_label_2
_geom_bond_site_symmetry_1
_geom_bond_site_symmetry_2
F11 C33 1_555 1_555
C6 C1 1_555 1_555
F1 C6 1_555 1_555
O1 C1 1_555 1_555
C18 C13 1_555 1_555
F5 C18 1_555 1_555
C30 C25 1_555 1_555
F9 C30 1_555 1_555
C13 O9 1_555 1_555
C25 O17 1_555 1_555
C2 C3 1_555 1_555
C3 C4 1_555 1_555
C4 C5 1_555 1_555
C7 C8 1_555 1_555
C8 C9 1_555 1_555
C9 C10 1_555 1_555
C10 C11 1_555 1_555
C11 C12 1_555 1_555
C12 C7 1_555 1_555
F2 C3 1_555 1_555
F3 C9 1_555 1_555
F4 C12 1_555 1_555
O2 C2 1_555 1_555
O4 C4 1_555 1_555
O5 C7 1_555 1_555
O6 C8 1_555 1_555
O7 C10 1_555 1_555
O8 C11 1_555 1_555
C14 C15 1_555 1_555
C15 C16 1_555 1_555
C16 C17 1_555 1_555
C19 C20 1_555 1_555
C22 C23 1_555 1_555
C23 C24 1_555 1_555
C24 C19 1_555 1_555
F6 C15 1_555 1_555
F8 C24 1_555 1_555
O10 Zn2 1_555 1_555
O12 C16 1_555 1_555
O13 C19 1_555 1_555
O14 C20 1_555 1_555
O16 C23 1_555 1_555
C26 C27 1_555 1_555
C27 C28 1_555 1_555
C28 C29 1_555 1_555
C31 C32 1_555 1_555
C34 C35 1_555 1_555
C35 C36 1_555 1_555
C36 C31 1_555 1_555
F10 C27 1_555 1_555
F12 C36 1_555 1_555
O18 Zn2 1_555 1_555
O20 C28 1_555 1_555
O21 C31 1_555 1_555
O22 C32 1_555 1_555
O24 C35 1_555 1_555
Zn6 O7 1_555 1_555
Zn1 O4 1_555 1_555
Zn1 O5 1_555 1_555
Zn1 O6 1_555 1_555
Zn2 O2 1_555 1_555
O8 Zn6 1_555 1_555
C14 O10 1_555 1_555
Zn3 O12 1_555 1_555
Zn3 O13 1_555 1_555
Zn3 O14 1_555 1_555
O16 Zn7 1_555 1_555
C26 O18 1_555 1_555
Zn4 O20 1_555 1_555
Zn4 O21 1_555 1_555
Zn4 O22 1_555 1_555
O24 Zn5 1_555 1_555
F7 C21 1_555 1_555
C9_2 C10_2 1_555 1_555
C10_2 C11_2 1_555 1_555
F3_2 C9_2 1_555 1_555
O25 C10_2 1_555 1_555
O28 C11_2 1_555 1_555
C1_2 C2_2 1_555 1_555
C2_2 C3_2 1_555 1_555
C3_2 C4_2 1_555 1_555
C4_2 C5_2 1_555 1_555
C5_2 C6_2 1_555 1_555
C6_2 C1_2 1_555 1_555
C7_2 C8_2 1_555 1_555
C12_2 C7_2 1_555 1_555
F1_2 C6_2 1_555 1_555
F2_2 C3_2 1_555 1_555
F4_2 C12_2 1_555 1_555
Zn1_2 O3_2 1_555 1_555
Zn2_2 O1_2 1_555 1_555
O1_2 C1_2 1_555 1_555
O2_2 C2_2 1_555 1_555
O3_2 C5_2 1_555 1_555
O4_2 C4_2 1_555 1_555
O5_2 C7_2 1_555 1_555
O6_2 C8_2 1_555 1_555
C13_2 C14_2 1_555 1_555
C14_2 C15_2 1_555 1_555
C15_2 C16_2 1_555 1_555
C16_2 C17_2 1_555 1_555
C17_2 C18_2 1_555 1_555
C18_2 C13_2 1_555 1_555
C19_2 C20_2 1_555 1_555
C24_2 C19_2 1_555 1_555
F5_2 C18_2 1_555 1_555
F6_2 C15_2 1_555 1_555
F8_2 C24_2 1_555 1_555
Zn3_2 O11_2 1_555 1_555
O9_2 Zn2_2 1_555 1_555
O10_2 Zn2_2 1_555 1_555
O11_2 C17_2 1_555 1_555
O12_2 C16_2 1_555 1_555
O13_2 C19_2 1_555 1_555
O14_2 C20_2 1_555 1_555
C25_2 C26_2 1_555 1_555
C26_2 C27_2 1_555 1_555
C27_2 C28_2 1_555 1_555
C28_2 C29_2 1_555 1_555
C29_2 C30_2 1_555 1_555
C30_2 C25_2 1_555 1_555
C31_2 C32_2 1_555 1_555
C32_2 C33_2 1_555 1_555
C33_2 C34_2 1_555 1_555
C34_2 C35_2 1_555 1_555
C35_2 C36_2 1_555 1_555
C36_2 C31_2 1_555 1_555
F9_2 C30_2 1_555 1_555
F10_2 C27_2 1_555 1_555
F11_2 C33_2 1_555 1_555
F12_2 C36_2 1_555 1_555
Zn4_2 O19_2 1_555 1_555
O17_2 Zn2_2 1_555 1_555
O18_2 Zn2_2 1_555 1_555
O19_2 C29_2 1_555 1_555
O20_2 C28_2 1_555 1_555
O21_2 C31_2 1_555 1_555
O22_2 C32_2 1_555 1_555
O27 C34_2 1_555 1_555
O30 C35_2 1_555 1_555
O25_2 Zn3_2 1_555 1_555
O26_2 Zn4_2 1_555 1_555
O27_2 Zn1_2 1_555 1_555
O28_2 Zn3_2 1_555 1_555
O29_2 Zn4_2 1_555 1_555
O30_2 Zn1_2 1_555 1_555
Zn1_2 O4_2 1_555 1_555
Zn1_2 O5_2 1_555 1_555
Zn1_2 O6_2 1_555 1_555
Zn2_2 O2_2 1_555 1_555
C13_2 O9_2 1_555 1_555
C14_2 O10_2 1_555 1_555
Zn3_2 O12_2 1_555 1_555
Zn3_2 O13_2 1_555 1_555
Zn3_2 O14_2 1_555 1_555
C25_2 O17_2 1_555 1_555
C26_2 O18_2 1_555 1_555
Zn4_2 O20_2 1_555 1_555
Zn4_2 O21_2 1_555 1_555
Zn4_2 O22_2 1_555 1_555
C21_2 C22_2 1_555 1_555
C22_2 C23_2 1_555 1_555
F7_2 C21_2 1_555 1_555
O26 C22_2 1_555 1_555
O29 C23_2 1_555 1_555
C5_3 C6_3 1_555 1_555
C6_3 C1_3 1_555 1_555
C7_3 C8_3 1_555 1_555
C10_3 C11_3 1_555 1_555
C11_3 C12_3 1_555 1_555
C12_3 C7_3 1_555 1_555
F1_3 C6_3 1_555 1_555
F4_3 C12_3 1_555 1_555
O1_3 C1_3 1_555 1_555
O3_3 C5_3 1_555 1_555
O5_3 C7_3 1_555 1_555
O25_2 C10_3 1_555 1_555
O28_2 C11_3 1_555 1_555
C26_3 C27_3 1_555 1_555
C27_3 C28_3 1_555 1_555
F10_3 C27_3 1_555 1_555
F11_3 C33_3 1_555 1_555
O20_3 C28_3 1_555 1_555
C26_3 O18_3 1_555 1_555
Zn7 O20_3 1_555 1_555
Zn7 O22_3 1_555 1_555
C29_3 C30_3 1_555 1_555
C30_3 C25_3 1_555 1_555
C31_3 C32_3 1_555 1_555
C34_3 C35_3 1_555 1_555
C35_3 C36_3 1_555 1_555
C36_3 C31_3 1_555 1_555
F9_3 C30_3 1_555 1_555
F12_3 C36_3 1_555 1_555
O17_3 Zn2_3 1_555 1_555
O19_3 C29_3 1_555 1_555
O21_3 C31_3 1_555 1_555
O27_2 C34_3 1_555 1_555
O30_2 C35_3 1_555 1_555
C25_3 O17_3 1_555 1_555
C2_3 C3_3 1_555 1_555
C3_3 C4_3 1_555 1_555
F2_3 C3_3 1_555 1_555
F3_3 C9_3 1_555 1_555
O2_3 C2_3 1_555 1_555
O4_3 C4_3 1_555 1_555
Zn5 O4_3 1_555 1_555
Zn5 O6_3 1_555 1_555
C13_3 C14_3 1_555 1_555
C14_3 C15_3 1_555 1_555
C15_3 C16_3 1_555 1_555
C16_3 C17_3 1_555 1_555
C17_3 C18_3 1_555 1_555
C18_3 C13_3 1_555 1_555
C19_3 C20_3 1_555 1_555
C20_3 C21_3 1_555 1_555
C21_3 C22_3 1_555 1_555
C22_3 C23_3 1_555 1_555
C23_3 C24_3 1_555 1_555
C24_3 C19_3 1_555 1_555
F5_3 C18_3 1_555 1_555
F6_3 C15_3 1_555 1_555
F7_3 C21_3 1_555 1_555
F8_3 C24_3 1_555 1_555
Zn6 O11_3 1_555 1_555
O11_3 C17_3 1_555 1_555
O12_3 C16_3 1_555 1_555
O13_3 C19_3 1_555 1_555
O14_3 C20_3 1_555 1_555
O26_2 C22_3 1_555 1_555
O29_2 C23_3 1_555 1_555
C13_3 O9_3 1_555 1_555
C14_3 O10_3 1_555 1_555
Zn6 O12_3 1_555 1_555
Zn6 O13_3 1_555 1_555
Zn6 O14_3 1_555 1_555
O18_3 Zn2_4 1_555 1_555
O1_3 Zn2_4 1_555 1_555
O9_3 Zn2_5 1_555 1_555
O10_3 Zn2_5 1_555 1_555
F7_4 C21_4 1_555 1_555
C29_4 C30_4 1_555 1_555
C30_4 C25_4 1_555 1_555
C31_4 C32_4 1_555 1_555
F9_4 C30_4 1_555 1_555
O17_4 Zn2_6 1_555 1_555
O19_4 C29_4 1_555 1_555
O21_4 C31_4 1_555 1_555
C25_4 O17_4 1_555 1_555
C1_4 C2_4 1_555 1_555
C2_4 C3_4 1_555 1_555
C3_4 C4_4 1_555 1_555
C4_4 C5_4 1_555 1_555
C5_4 C6_4 1_555 1_555
C6_4 C1_4 1_555 1_555
C7_4 C8_4 1_555 1_555
C8_4 C9_4 1_555 1_555
C9_4 C10_4 1_555 1_555
C10_4 C11_4 1_555 1_555
C11_4 C12_4 1_555 1_555
C12_4 C7_4 1_555 1_555
F1_4 C6_4 1_555 1_555
F2_4 C3_4 1_555 1_555
F3_4 C9_4 1_555 1_555
F4_4 C12_4 1_555 1_555
Zn1_3 O3_4 1_555 1_555
Zn2_7 O1_4 1_555 1_555
O1_4 C1_4 1_555 1_555
O2_4 C2_4 1_555 1_555
O3_4 C5_4 1_555 1_555
O4_4 C4_4 1_555 1_555
O5_4 C7_4 1_555 1_555
O6_4 C8_4 1_555 1_555
O7_2 C10_4 1_555 1_555
O8_2 C11_4 1_555 1_555
C13_4 C14_4 1_555 1_555
C14_4 C15_4 1_555 1_555
C15_4 C16_4 1_555 1_555
C16_4 C17_4 1_555 1_555
C17_4 C18_4 1_555 1_555
C18_4 C13_4 1_555 1_555
C19_4 C20_4 1_555 1_555
C22_4 C23_4 1_555 1_555
C23_4 C24_4 1_555 1_555
C24_4 C19_4 1_555 1_555
F5_4 C18_4 1_555 1_555
F6_4 C15_4 1_555 1_555
F8_4 C24_4 1_555 1_555
Zn3_3 O11_4 1_555 1_555
O9_4 Zn2_7 1_555 1_555
O10_4 Zn2_7 1_555 1_555
O11_4 C17_4 1_555 1_555
O12_4 C16_4 1_555 1_555
O13_4 C19_4 1_555 1_555
O14_4 C20_4 1_555 1_555
O16_2 C23_4 1_555 1_555
C25_5 C26_4 1_555 1_555
C26_4 C27_4 1_555 1_555
C27_4 C28_4 1_555 1_555
C28_4 C29_5 1_555 1_555
C29_5 C30_5 1_555 1_555
C30_5 C25_5 1_555 1_555
C31_5 C32_5 1_555 1_555
C34_4 C35_4 1_555 1_555
C35_4 C36_4 1_555 1_555
C36_4 C31_5 1_555 1_555
F9_5 C30_5 1_555 1_555
F10_4 C27_4 1_555 1_555
F12_4 C36_4 1_555 1_555
Zn4_3 O19_5 1_555 1_555
O17_5 Zn2_7 1_555 1_555
O18_4 Zn2_7 1_555 1_555
O19_5 C29_5 1_555 1_555
O20_4 C28_4 1_555 1_555
O21_5 C31_5 1_555 1_555
O22_4 C32_5 1_555 1_555
O24_2 C35_4 1_555 1_555
Zn6_2 O7_2 1_555 1_555
O25_3 Zn3_3 1_555 1_555
O26_3 Zn4_3 1_555 1_555
O27_3 Zn1_3 1_555 1_555
O28_3 Zn3_3 1_555 1_555
O29_3 Zn4_3 1_555 1_555
O30_3 Zn1_3 1_555 1_555
Zn1_3 O4_4 1_555 1_555
Zn1_3 O5_4 1_555 1_555
Zn1_3 O6_4 1_555 1_555
Zn2_7 O2_4 1_555 1_555
O8_2 Zn6_2 1_555 1_555
C13_4 O9_4 1_555 1_555
C14_4 O10_4 1_555 1_555
Zn3_3 O12_4 1_555 1_555
Zn3_3 O13_4 1_555 1_555
Zn3_3 O14_4 1_555 1_555
O16_2 Zn7_2 1_555 1_555
C25_5 O17_5 1_555 1_555
C26_4 O18_4 1_555 1_555
Zn4_3 O20_4 1_555 1_555
Zn4_3 O21_5 1_555 1_555
Zn4_3 O22_4 1_555 1_555
O24_2 Zn5_2 1_555 1_555
F11_4 C33_4 1_555 1_555
C21_5 C22_5 1_555 1_555
C22_5 C23_5 1_555 1_555
F7_5 C21_5 1_555 1_555
O26_3 C22_5 1_555 1_555
O29_3 C23_5 1_555 1_555
C1_5 C2_5 1_555 1_555
C2_5 C3_5 1_555 1_555
C3_5 C4_5 1_555 1_555
C4_5 C5_5 1_555 1_555
C5_5 C6_5 1_555 1_555
C6_5 C1_5 1_555 1_555
C7_5 C8_5 1_555 1_555
C12_5 C7_5 1_555 1_555
F1_5 C6_5 1_555 1_555
F2_5 C3_5 1_555 1_555
F4_5 C12_5 1_555 1_555
Zn1_4 O3_5 1_555 1_555
Zn2_8 O1_5 1_555 1_555
O1_5 C1_5 1_555 1_555
O2_5 C2_5 1_555 1_555
O3_5 C5_5 1_555 1_555
O4_5 C4_5 1_555 1_555
O5_5 C7_5 1_555 1_555
O6_5 C8_5 1_555 1_555
C13_5 C14_5 1_555 1_555
C14_5 C15_5 1_555 1_555
C15_5 C16_5 1_555 1_555
C16_5 C17_5 1_555 1_555
C17_5 C18_5 1_555 1_555
C18_5 C13_5 1_555 1_555
C19_5 C20_5 1_555 1_555
C24_5 C19_5 1_555 1_555
F5_5 C18_5 1_555 1_555
F6_5 C15_5 1_555 1_555
F8_5 C24_5 1_555 1_555
Zn3_4 O11_5 1_555 1_555
O9_5 Zn2_8 1_555 1_555
O10_5 Zn2_8 1_555 1_555
O11_5 C17_5 1_555 1_555
O12_5 C16_5 1_555 1_555
O13_5 C19_5 1_555 1_555
O14_5 C20_5 1_555 1_555
C25_6 C26_5 1_555 1_555
C26_5 C27_5 1_555 1_555
C27_5 C28_5 1_555 1_555
C28_5 C29_6 1_555 1_555
C29_6 C30_6 1_555 1_555
C30_6 C25_6 1_555 1_555
C31_6 C32_6 1_555 1_555
C32_6 C33_5 1_555 1_555
C33_5 C34_5 1_555 1_555
C34_5 C35_5 1_555 1_555
C35_5 C36_5 1_555 1_555
C36_5 C31_6 1_555 1_555
F9_6 C30_6 1_555 1_555
F10_5 C27_5 1_555 1_555
F11_5 C33_5 1_555 1_555
F12_5 C36_5 1_555 1_555
Zn4_4 O19_6 1_555 1_555
O17_6 Zn2_8 1_555 1_555
O18_5 Zn2_8 1_555 1_555
O19_6 C29_6 1_555 1_555
O20_5 C28_5 1_555 1_555
O21_6 C31_6 1_555 1_555
O22_5 C32_6 1_555 1_555
O27_3 C34_5 1_555 1_555
O30_3 C35_5 1_555 1_555
O25_4 Zn3_4 1_555 1_555
O26_4 Zn4_4 1_555 1_555
O27_4 Zn1_4 1_555 1_555
O28_4 Zn3_4 1_555 1_555
O29_4 Zn4_4 1_555 1_555
O30_4 Zn1_4 1_555 1_555
Zn1_4 O4_5 1_555 1_555
Zn1_4 O5_5 1_555 1_555
Zn1_4 O6_5 1_555 1_555
Zn2_8 O2_5 1_555 1_555
C13_5 O9_5 1_555 1_555
C14_5 O10_5 1_555 1_555
Zn3_4 O12_5 1_555 1_555
Zn3_4 O13_5 1_555 1_555
Zn3_4 O14_5 1_555 1_555
C25_6 O17_6 1_555 1_555
C26_5 O18_5 1_555 1_555
Zn4_4 O20_5 1_555 1_555
Zn4_4 O21_6 1_555 1_555
Zn4_4 O22_5 1_555 1_555
C9_5 C10_5 1_555 1_555
C10_5 C11_5 1_555 1_555
F3_5 C9_5 1_555 1_555
O25_3 C10_5 1_555 1_555
O28_3 C11_5 1_555 1_555
C13_6 C14_6 1_555 1_555
C14_6 C15_6 1_555 1_555
C15_6 C16_6 1_555 1_555
C16_6 C17_6 1_555 1_555
C17_6 C18_6 1_555 1_555
C18_6 C13_6 1_555 1_555
C19_6 C20_6 1_555 1_555
F5_6 C18_6 1_555 1_555
F6_6 C15_6 1_555 1_555
Zn6_2 O11_6 1_555 1_555
O11_6 C17_6 1_555 1_555
O12_6 C16_6 1_555 1_555
O13_6 C19_6 1_555 1_555
O14_6 C20_6 1_555 1_555
C13_6 O9_6 1_555 1_555
C14_6 O10_6 1_555 1_555
Zn6_2 O12_6 1_555 1_555
Zn6_2 O13_6 1_555 1_555
Zn6_2 O14_6 1_555 1_555
C21_6 C22_6 1_555 1_555
C22_6 C23_6 1_555 1_555
C23_6 C24_6 1_555 1_555
F7_6 C21_6 1_555 1_555
F8_6 C24_6 1_555 1_555
O26_4 C22_6 1_555 1_555
O29_4 C23_6 1_555 1_555
C34_6 C35_6 1_555 1_555
C35_6 C36_6 1_555 1_555
F12_6 C36_6 1_555 1_555
O27_4 C34_6 1_555 1_555
O30_4 C35_6 1_555 1_555
C2_6 C3_6 1_555 1_555
C3_6 C4_6 1_555 1_555
F2_6 C3_6 1_555 1_555
O2_6 C2_6 1_555 1_555
O4_6 C4_6 1_555 1_555
Zn5_2 O4_6 1_555 1_555
Zn5_2 O6_6 1_555 1_555
C5_6 C6_6 1_555 1_555
C6_6 C1_6 1_555 1_555
C7_6 C8_6 1_555 1_555
F1_6 C6_6 1_555 1_555
O1_6 C1_6 1_555 1_555
O3_6 C5_6 1_555 1_555
O5_6 C7_6 1_555 1_555
C26_6 C27_6 1_555 1_555
C27_6 C28_6 1_555 1_555
F10_6 C27_6 1_555 1_555
O20_6 C28_6 1_555 1_555
C26_6 O18_6 1_555 1_555
Zn7_2 O20_6 1_555 1_555
Zn7_2 O22_6 1_555 1_555
C10_6 C11_6 1_555 1_555
C11_6 C12_6 1_555 1_555
F4_6 C12_6 1_555 1_555
O25_4 C10_6 1_555 1_555
O28_4 C11_6 1_555 1_555
F11_6 C33_6 1_555 1_555
O18_6 Zn2_9 1_555 1_555
O1_6 Zn2_9 1_555 1_555
O9_6 Zn2_10 1_555 1_555
O10_6 Zn2_10 1_555 1_555
F3_6 C9_6 1_555 1_555
C37 H1 1_555 1_555
H2 C37 1_555 1_555
C38 C37 1_555 1_555
H3 C38 1_555 1_555
H4 C38 1_555 1_555
C39 C38 1_555 1_555
H5 C39 1_555 1_555
H6 C39 1_555 1_555
C40 C39 1_555 1_555
H7 C40 1_555 1_555
H8 C40 1_555 1_555
H9 C40 1_555 1_555
C41 H10 1_555 1_555
H11 C41 1_555 1_555
C42 C41 1_555 1_555
H12 C42 1_555 1_555
H13 C42 1_555 1_555
C43 C42 1_555 1_555
H14 C43 1_555 1_555
H15 C43 1_555 1_555
C44 C43 1_555 1_555
H16 C44 1_555 1_555
H17 C44 1_555 1_555
H18 C44 1_555 1_555
C45 H19 1_555 1_555
H20 C45 1_555 1_555
C46 C45 1_555 1_555
H21 C46 1_555 1_555
H22 C46 1_555 1_555
C47 C46 1_555 1_555
H23 C47 1_555 1_555
H24 C47 1_555 1_555
C48 C47 1_555 1_555
H25 C48 1_555 1_555
H26 C48 1_555 1_555
H27 C48 1_555 1_555
C49 H28 1_555 1_555
H29 C49 1_555 1_555
C50 C49 1_555 1_555
H30 C50 1_555 1_555
H31 C50 1_555 1_555
C51 H32 1_555 1_555
H33 C51 1_555 1_555
H34 C51 1_555 1_555
C52 C50 1_555 1_555
H35 C52 1_555 1_555
H36 C52 1_555 1_555
N1 C37 1_555 1_555
C41 N1 1_555 1_555
C45 N1 1_555 1_555
C49 N1 1_555 1_555
C51 C52 1_555 1_555
C41_2 H10_2 1_555 1_555
H11_2 C41_2 1_555 1_555
C42_2 C41_2 1_555 1_555
H12_2 C42_2 1_555 1_555
H13_2 C42_2 1_555 1_555
C43_2 C42_2 1_555 1_555
H14_2 C43_2 1_555 1_555
H15_2 C43_2 1_555 1_555
C44_2 C43_2 1_555 1_555
H16_2 C44_2 1_555 1_555
H17_2 C44_2 1_555 1_555
H18_2 C44_2 1_555 1_555
C45_2 H19_2 1_555 1_555
C49_2 H28_2 1_555 1_555
H29_2 C49_2 1_555 1_555
C50_2 C49_2 1_555 1_555
H30_2 C50_2 1_555 1_555
H31_2 C50_2 1_555 1_555
C51_2 H32_2 1_555 1_555
H33_2 C51_2 1_555 1_555
H34_2 C51_2 1_555 1_555
C52_2 C50_2 1_555 1_555
H35_2 C52_2 1_555 1_555
H36_2 C52_2 1_555 1_555
C41_2 N1_2 1_555 1_555
C45_2 N1_2 1_555 1_555
C49_2 N1_2 1_555 1_555
C51_2 C52_2 1_555 1_555
C37_2 H1_2 1_555 1_555
H2_2 C37_2 1_555 1_555
C38_2 C37_2 1_555 1_555
H3_2 C38_2 1_555 1_555
H4_2 C38_2 1_555 1_555
C39_2 C38_2 1_555 1_555
H5_2 C39_2 1_555 1_555
H6_2 C39_2 1_555 1_555
C40_2 C39_2 1_555 1_555
H7_2 C40_2 1_555 1_555
H8_2 C40_2 1_555 1_555
H9_2 C40_2 1_555 1_555
H21_2 C46_2 1_555 1_555
C47_2 C46_2 1_555 1_555
H23_2 C47_2 1_555 1_555
C48_2 C47_2 1_555 1_555
H25_2 C48_2 1_555 1_555
H26_2 C48_2 1_555 1_555
H27_2 C48_2 1_555 1_555
C37_3 H1_3 1_555 1_555
H2_3 C37_3 1_555 1_555
C38_3 C37_3 1_555 1_555
H3_3 C38_3 1_555 1_555
H4_3 C38_3 1_555 1_555
C39_3 C38_3 1_555 1_555
H5_3 C39_3 1_555 1_555
H6_3 C39_3 1_555 1_555
C40_3 C39_3 1_555 1_555
H7_3 C40_3 1_555 1_555
H8_3 C40_3 1_555 1_555
H9_3 C40_3 1_555 1_555
H21_3 C46_3 1_555 1_555
C47_3 C46_3 1_555 1_555
H23_3 C47_3 1_555 1_555
C48_3 C47_3 1_555 1_555
H25_3 C48_3 1_555 1_555
H26_3 C48_3 1_555 1_555
H27_3 C48_3 1_555 1_555
C41_3 H10_3 1_555 1_555
H11_3 C41_3 1_555 1_555
C42_3 C41_3 1_555 1_555
H12_3 C42_3 1_555 1_555
H13_3 C42_3 1_555 1_555
C43_3 C42_3 1_555 1_555
H14_3 C43_3 1_555 1_555
H15_3 C43_3 1_555 1_555
C44_3 C43_3 1_555 1_555
H16_3 C44_3 1_555 1_555
H17_3 C44_3 1_555 1_555
H18_3 C44_3 1_555 1_555
C45_3 H19_3 1_555 1_555
C49_3 H28_3 1_555 1_555
H29_3 C49_3 1_555 1_555
C50_3 C49_3 1_555 1_555
H30_3 C50_3 1_555 1_555
H31_3 C50_3 1_555 1_555
C51_3 H32_3 1_555 1_555
H33_3 C51_3 1_555 1_555
H34_3 C51_3 1_555 1_555
C52_3 C50_3 1_555 1_555
H35_3 C52_3 1_555 1_555
H36_3 C52_3 1_555 1_555
C41_3 N1_3 1_555 1_555
C45_3 N1_3 1_555 1_555
C49_3 N1_3 1_555 1_555
C51_3 C52_3 1_555 1_555
H25_4 C48_4 1_555 1_555
H26_4 C48_4 1_555 1_555
H27_4 C48_4 1_555 1_555
C37_4 H1_4 1_555 1_555
H2_4 C37_4 1_555 1_555
C38_4 C37_4 1_555 1_555
H3_4 C38_4 1_555 1_555
H4_4 C38_4 1_555 1_555
C39_4 C38_4 1_555 1_555
H5_4 C39_4 1_555 1_555
H6_4 C39_4 1_555 1_555
C40_4 C39_4 1_555 1_555
H7_4 C40_4 1_555 1_555
H8_4 C40_4 1_555 1_555
H9_4 C40_4 1_555 1_555
C41_4 H10_4 1_555 1_555
H11_4 C41_4 1_555 1_555
C42_4 C41_4 1_555 1_555
H12_4 C42_4 1_555 1_555
H13_4 C42_4 1_555 1_555
C43_4 C42_4 1_555 1_555
H14_4 C43_4 1_555 1_555
H15_4 C43_4 1_555 1_555
C44_4 C43_4 1_555 1_555
H16_4 C44_4 1_555 1_555
H17_4 C44_4 1_555 1_555
H18_4 C44_4 1_555 1_555
C45_4 H19_4 1_555 1_555
H20_4 C45_4 1_555 1_555
C46_4 C45_4 1_555 1_555
H21_4 C46_4 1_555 1_555
H22_4 C46_4 1_555 1_555
C47_4 C46_4 1_555 1_555
C49_4 H28_4 1_555 1_555
H29_4 C49_4 1_555 1_555
C50_4 C49_4 1_555 1_555
H30_4 C50_4 1_555 1_555
H31_4 C50_4 1_555 1_555
C51_4 H32_4 1_555 1_555
H33_4 C51_4 1_555 1_555
H34_4 C51_4 1_555 1_555
C52_4 C50_4 1_555 1_555
H35_4 C52_4 1_555 1_555
H36_4 C52_4 1_555 1_555
N1_4 C37_4 1_555 1_555
C41_4 N1_4 1_555 1_555
C45_4 N1_4 1_555 1_555
C49_4 N1_4 1_555 1_555
C51_4 C52_4 1_555 1_555
H25_5 C48_5 1_555 1_555
H26_5 C48_5 1_555 1_555
H27_5 C48_5 1_555 1_555
C37_5 H1_5 1_555 1_555
H2_5 C37_5 1_555 1_555
C38_5 C37_5 1_555 1_555
H3_5 C38_5 1_555 1_555
H4_5 C38_5 1_555 1_555
C39_5 C38_5 1_555 1_555
H5_5 C39_5 1_555 1_555
H6_5 C39_5 1_555 1_555
C40_5 C39_5 1_555 1_555
H7_5 C40_5 1_555 1_555
H8_5 C40_5 1_555 1_555
H9_5 C40_5 1_555 1_555
H21_5 C46_5 1_555 1_555
C47_5 C46_5 1_555 1_555
C41_5 H10_5 1_555 1_555
H11_5 C41_5 1_555 1_555
C42_5 C41_5 1_555 1_555
H12_5 C42_5 1_555 1_555
H13_5 C42_5 1_555 1_555
C43_5 C42_5 1_555 1_555
H14_5 C43_5 1_555 1_555
H15_5 C43_5 1_555 1_555
C44_5 C43_5 1_555 1_555
H16_5 C44_5 1_555 1_555
H17_5 C44_5 1_555 1_555
H18_5 C44_5 1_555 1_555
C45_5 H19_5 1_555 1_555
C49_5 H28_5 1_555 1_555
H29_5 C49_5 1_555 1_555
C50_5 C49_5 1_555 1_555
H30_5 C50_5 1_555 1_555
H31_5 C50_5 1_555 1_555
C51_5 H32_5 1_555 1_555
H33_5 C51_5 1_555 1_555
H34_5 C51_5 1_555 1_555
C52_5 C50_5 1_555 1_555
H35_5 C52_5 1_555 1_555
H36_5 C52_5 1_555 1_555
C41_5 N1_5 1_555 1_555
C45_5 N1_5 1_555 1_555
C49_5 N1_5 1_555 1_555
C51_5 C52_5 1_555 1_555
C41_6 H10_6 1_555 1_555
H11_6 C41_6 1_555 1_555
C42_6 C41_6 1_555 1_555
H12_6 C42_6 1_555 1_555
H13_6 C42_6 1_555 1_555
C43_6 C42_6 1_555 1_555
H14_6 C43_6 1_555 1_555
H15_6 C43_6 1_555 1_555
C44_6 C43_6 1_555 1_555
H16_6 C44_6 1_555 1_555
H17_6 C44_6 1_555 1_555
H18_6 C44_6 1_555 1_555
C45_6 H19_6 1_555 1_555
C49_6 H28_6 1_555 1_555
H29_6 C49_6 1_555 1_555
C50_6 C49_6 1_555 1_555
H30_6 C50_6 1_555 1_555
H31_6 C50_6 1_555 1_555
C51_6 H32_6 1_555 1_555
H33_6 C51_6 1_555 1_555
H34_6 C51_6 1_555 1_555
C52_6 C50_6 1_555 1_555
H35_6 C52_6 1_555 1_555
H36_6 C52_6 1_555 1_555
C41_6 N1_6 1_555 1_555
C45_6 N1_6 1_555 1_555
C49_6 N1_6 1_555 1_555
C51_6 C52_6 1_555 1_555
H25_6 C48_6 1_555 1_555
H26_6 C48_6 1_555 1_555
H27_6 C48_6 1_555 1_555
C37_6 H1_6 1_555 1_555
H2_6 C37_6 1_555 1_555
C38_6 C37_6 1_555 1_555
H3_6 C38_6 1_555 1_555
H4_6 C38_6 1_555 1_555
C39_6 C38_6 1_555 1_555
H5_6 C39_6 1_555 1_555
H6_6 C39_6 1_555 1_555
C40_6 C39_6 1_555 1_555
H7_6 C40_6 1_555 1_555
H8_6 C40_6 1_555 1_555
H9_6 C40_6 1_555 1_555
H21_6 C46_6 1_555 1_555
C47_6 C46_6 1_555 1_555
C37_7 H1_7 1_555 1_555
H2_7 C37_7 1_555 1_555
C38_7 C37_7 1_555 1_555
H3_7 C38_7 1_555 1_555
H4_7 C38_7 1_555 1_555
C39_7 C38_7 1_555 1_555
H5_7 C39_7 1_555 1_555
H6_7 C39_7 1_555 1_555
C40_7 C39_7 1_555 1_555
H7_7 C40_7 1_555 1_555
H9_7 C40_7 1_555 1_555
C41_7 H10_7 1_555 1_555
H11_7 C41_7 1_555 1_555
C42_7 C41_7 1_555 1_555
H12_7 C42_7 1_555 1_555
H13_7 C42_7 1_555 1_555
C43_7 C42_7 1_555 1_555
H14_7 C43_7 1_555 1_555
H15_7 C43_7 1_555 1_555
C44_7 C43_7 1_555 1_555
H16_7 C44_7 1_555 1_555
H17_7 C44_7 1_555 1_555
H18_7 C44_7 1_555 1_555
C45_7 H19_7 1_555 1_555
H20_7 C45_7 1_555 1_555
C46_7 C45_7 1_555 1_555
H21_7 C46_7 1_555 1_555
H22_7 C46_7 1_555 1_555
C47_7 C46_7 1_555 1_555
H23_7 C47_7 1_555 1_555
H24_7 C47_7 1_555 1_555
C48_7 C47_7 1_555 1_555
H25_7 C48_7 1_555 1_555
H26_7 C48_7 1_555 1_555
H27_7 C48_7 1_555 1_555
C49_7 H28_7 1_555 1_555
H29_7 C49_7 1_555 1_555
C50_7 C49_7 1_555 1_555
H30_7 C50_7 1_555 1_555
H31_7 C50_7 1_555 1_555
C51_7 H32_7 1_555 1_555
H33_7 C51_7 1_555 1_555
H34_7 C51_7 1_555 1_555
C52_7 C50_7 1_555 1_555
H35_7 C52_7 1_555 1_555
H36_7 C52_7 1_555 1_555
N1_7 C37_7 1_555 1_555
C41_7 N1_7 1_555 1_555
C45_7 N1_7 1_555 1_555
C49_7 N1_7 1_555 1_555
C51_7 C52_7 1_555 1_555
C37_8 H1_8 1_555 1_555
H2_8 C37_8 1_555 1_555
C38_8 C37_8 1_555 1_555
H3_8 C38_8 1_555 1_555
H4_8 C38_8 1_555 1_555
C39_8 C38_8 1_555 1_555
H5_8 C39_8 1_555 1_555
H6_8 C39_8 1_555 1_555
C40_8 C39_8 1_555 1_555
H7_8 C40_8 1_555 1_555
H8_8 C40_8 1_555 1_555
H9_8 C40_8 1_555 1_555
C41_8 H10_8 1_555 1_555
H11_8 C41_8 1_555 1_555
C42_8 C41_8 1_555 1_555
H12_8 C42_8 1_555 1_555
H13_8 C42_8 1_555 1_555
C43_8 C42_8 1_555 1_555
H14_8 C43_8 1_555 1_555
H15_8 C43_8 1_555 1_555
C44_8 C43_8 1_555 1_555
H16_8 C44_8 1_555 1_555
H17_8 C44_8 1_555 1_555
H18_8 C44_8 1_555 1_555
C45_8 H19_8 1_555 1_555
H20_8 C45_8 1_555 1_555
C46_8 C45_8 1_555 1_555
H21_8 C46_8 1_555 1_555
H22_8 C46_8 1_555 1_555
C47_8 C46_8 1_555 1_555
H23_8 C47_8 1_555 1_555
H24_8 C47_8 1_555 1_555
C48_8 C47_8 1_555 1_555
H25_8 C48_8 1_555 1_555
H26_8 C48_8 1_555 1_555
H27_8 C48_8 1_555 1_555
C49_8 H28_8 1_555 1_555
H29_8 C49_8 1_555 1_555
C50_8 C49_8 1_555 1_555
H30_8 C50_8 1_555 1_555
H31_8 C50_8 1_555 1_555
C51_8 H32_8 1_555 1_555
H33_8 C51_8 1_555 1_555
H34_8 C51_8 1_555 1_555
C52_8 C50_8 1_555 1_555
H35_8 C52_8 1_555 1_555
H36_8 C52_8 1_555 1_555
N1_8 C37_8 1_555 1_555
C41_8 N1_8 1_555 1_555
C45_8 N1_8 1_555 1_555
C49_8 N1_8 1_555 1_555
C51_8 C52_8 1_555 1_555
C37_9 H1_9 1_555 1_555
H2_9 C37_9 1_555 1_555
C38_9 C37_9 1_555 1_555
H3_9 C38_9 1_555 1_555
H4_9 C38_9 1_555 1_555
C39_9 C38_9 1_555 1_555
H5_9 C39_9 1_555 1_555
H6_9 C39_9 1_555 1_555
C40_9 C39_9 1_555 1_555
H7_9 C40_9 1_555 1_555
H9_9 C40_9 1_555 1_555
C41_9 H10_9 1_555 1_555
H11_9 C41_9 1_555 1_555
C42_9 C41_9 1_555 1_555
H12_9 C42_9 1_555 1_555
H13_9 C42_9 1_555 1_555
C43_9 C42_9 1_555 1_555
H14_9 C43_9 1_555 1_555
H15_9 C43_9 1_555 1_555
C44_9 C43_9 1_555 1_555
H16_9 C44_9 1_555 1_555
H17_9 C44_9 1_555 1_555
H18_9 C44_9 1_555 1_555
C45_9 H19_9 1_555 1_555
H20_9 C45_9 1_555 1_555
C46_9 C45_9 1_555 1_555
H21_9 C46_9 1_555 1_555
H22_9 C46_9 1_555 1_555
C47_9 C46_9 1_555 1_555
H23_9 C47_9 1_555 1_555
H24_9 C47_9 1_555 1_555
C48_9 C47_9 1_555 1_555
H25_9 C48_9 1_555 1_555
H26_9 C48_9 1_555 1_555
H27_9 C48_9 1_555 1_555
C49_9 H28_9 1_555 1_555
H29_9 C49_9 1_555 1_555
C50_9 C49_9 1_555 1_555
H30_9 C50_9 1_555 1_555
H31_9 C50_9 1_555 1_555
C51_9 H32_9 1_555 1_555
H33_9 C51_9 1_555 1_555
H34_9 C51_9 1_555 1_555
C52_9 C50_9 1_555 1_555
H35_9 C52_9 1_555 1_555
H36_9 C52_9 1_555 1_555
N1_9 C37_9 1_555 1_555
C41_9 N1_9 1_555 1_555
C45_9 N1_9 1_555 1_555
C49_9 N1_9 1_555 1_555
C51_9 C52_9 1_555 1_555
C37_10 H1_10 1_555 1_555
H2_10 C37_10 1_555 1_555
C38_10 C37_10 1_555 1_555
H3_10 C38_10 1_555 1_555
H4_10 C38_10 1_555 1_555
C39_10 C38_10 1_555 1_555
H5_10 C39_10 1_555 1_555
H6_10 C39_10 1_555 1_555
C40_10 C39_10 1_555 1_555
H7_10 C40_10 1_555 1_555
H9_10 C40_10 1_555 1_555
C41_10 H10_10 1_555 1_555
H11_10 C41_10 1_555 1_555
C42_10 C41_10 1_555 1_555
H12_10 C42_10 1_555 1_555
H13_10 C42_10 1_555 1_555
C43_10 C42_10 1_555 1_555
H14_10 C43_10 1_555 1_555
H15_10 C43_10 1_555 1_555
C45_10 H19_10 1_555 1_555
H20_10 C45_10 1_555 1_555
C46_10 C45_10 1_555 1_555
H21_10 C46_10 1_555 1_555
H22_10 C46_10 1_555 1_555
C47_10 C46_10 1_555 1_555
H23_10 C47_10 1_555 1_555
H24_10 C47_10 1_555 1_555
C48_10 C47_10 1_555 1_555
H25_10 C48_10 1_555 1_555
H26_10 C48_10 1_555 1_555
H27_10 C48_10 1_555 1_555
C49_10 H28_10 1_555 1_555
H29_10 C49_10 1_555 1_555
C50_10 C49_10 1_555 1_555
H30_10 C50_10 1_555 1_555
H31_10 C50_10 1_555 1_555
C51_10 H32_10 1_555 1_555
H33_10 C51_10 1_555 1_555
H34_10 C51_10 1_555 1_555
C52_10 C50_10 1_555 1_555
H35_10 C52_10 1_555 1_555
H36_10 C52_10 1_555 1_555
N1_10 C37_10 1_555 1_555
C41_10 N1_10 1_555 1_555
C45_10 N1_10 1_555 1_555
C49_10 N1_10 1_555 1_555
C51_10 C52_10 1_555 1_555
H16_10 C44_10 1_555 1_555
H17_10 C44_10 1_555 1_555
H18_10 C44_10 1_555 1_555
C37_11 H1_11 1_555 1_555
H2_11 C37_11 1_555 1_555
C38_11 C37_11 1_555 1_555
H3_11 C38_11 1_555 1_555
H4_11 C38_11 1_555 1_555
C39_11 C38_11 1_555 1_555
H5_11 C39_11 1_555 1_555
H6_11 C39_11 1_555 1_555
C40_11 C39_11 1_555 1_555
H7_11 C40_11 1_555 1_555
H8_11 C40_11 1_555 1_555
H9_11 C40_11 1_555 1_555
C41_11 H10_11 1_555 1_555
H11_11 C41_11 1_555 1_555
C42_11 C41_11 1_555 1_555
H12_11 C42_11 1_555 1_555
H13_11 C42_11 1_555 1_555
C43_11 C42_11 1_555 1_555
H14_11 C43_11 1_555 1_555
H15_11 C43_11 1_555 1_555
C45_11 H19_11 1_555 1_555
H20_11 C45_11 1_555 1_555
C46_11 C45_11 1_555 1_555
H21_11 C46_11 1_555 1_555
H22_11 C46_11 1_555 1_555
C47_11 C46_11 1_555 1_555
H23_11 C47_11 1_555 1_555
H24_11 C47_11 1_555 1_555
C48_11 C47_11 1_555 1_555
H25_11 C48_11 1_555 1_555
H26_11 C48_11 1_555 1_555
H27_11 C48_11 1_555 1_555
C49_11 H28_11 1_555 1_555
H29_11 C49_11 1_555 1_555
C50_11 C49_11 1_555 1_555
H30_11 C50_11 1_555 1_555
H31_11 C50_11 1_555 1_555
C51_11 H32_11 1_555 1_555
H33_11 C51_11 1_555 1_555
H34_11 C51_11 1_555 1_555
C52_11 C50_11 1_555 1_555
H35_11 C52_11 1_555 1_555
H36_11 C52_11 1_555 1_555
N1_11 C37_11 1_555 1_555
C41_11 N1_11 1_555 1_555
C45_11 N1_11 1_555 1_555
C49_11 N1_11 1_555 1_555
C51_11 C52_11 1_555 1_555
H16_11 C44_11 1_555 1_555
H17_11 C44_11 1_555 1_555
H18_11 C44_11 1_555 1_555
C37_12 H1_12 1_555 1_555
H2_12 C37_12 1_555 1_555
C38_12 C37_12 1_555 1_555
H3_12 C38_12 1_555 1_555
H4_12 C38_12 1_555 1_555
C39_12 C38_12 1_555 1_555
H5_12 C39_12 1_555 1_555
H6_12 C39_12 1_555 1_555
C40_12 C39_12 1_555 1_555
H7_12 C40_12 1_555 1_555
H9_12 C40_12 1_555 1_555
C41_12 H10_12 1_555 1_555
H11_12 C41_12 1_555 1_555
C42_12 C41_12 1_555 1_555
H12_12 C42_12 1_555 1_555
H13_12 C42_12 1_555 1_555
C43_12 C42_12 1_555 1_555
H14_12 C43_12 1_555 1_555
H15_12 C43_12 1_555 1_555
C45_12 H19_12 1_555 1_555
H20_12 C45_12 1_555 1_555
C46_12 C45_12 1_555 1_555
H21_12 C46_12 1_555 1_555
H22_12 C46_12 1_555 1_555
C47_12 C46_12 1_555 1_555
H23_12 C47_12 1_555 1_555
H24_12 C47_12 1_555 1_555
C48_12 C47_12 1_555 1_555
H25_12 C48_12 1_555 1_555
H26_12 C48_12 1_555 1_555
H27_12 C48_12 1_555 1_555
C49_12 H28_12 1_555 1_555
H29_12 C49_12 1_555 1_555
C50_12 C49_12 1_555 1_555
H30_12 C50_12 1_555 1_555
H31_12 C50_12 1_555 1_555
C51_12 H32_12 1_555 1_555
H33_12 C51_12 1_555 1_555
H34_12 C51_12 1_555 1_555
C52_12 C50_12 1_555 1_555
H35_12 C52_12 1_555 1_555
H36_12 C52_12 1_555 1_555
N1_12 C37_12 1_555 1_555
C41_12 N1_12 1_555 1_555
C45_12 N1_12 1_555 1_555
C49_12 N1_12 1_555 1_555
C51_12 C52_12 1_555 1_555
H16_12 C44_12 1_555 1_555
H17_12 C44_12 1_555 1_555
H18_12 C44_12 1_555 1_555
C45_13 H19_13 1_555 1_555
H20_13 C45_13 1_555 1_555
C46_13 C45_13 1_555 1_555
H21_13 C46_13 1_555 1_555
H22_13 C46_13 1_555 1_555
C47_13 C46_13 1_555 1_555
H23_13 C47_13 1_555 1_555
H24_13 C47_13 1_555 1_555
C48_13 C47_13 1_555 1_555
H25_13 C48_13 1_555 1_555
H26_13 C48_13 1_555 1_555
H27_13 C48_13 1_555 1_555
C37_13 H1_13 1_555 1_555
H2_13 C37_13 1_555 1_555
C38_13 C37_13 1_555 1_555
H4_13 C38_13 1_555 1_555
C39_13 C38_13 1_555 1_555
H5_13 C39_13 1_555 1_555
H6_13 C39_13 1_555 1_555
C40_13 C39_13 1_555 1_555
H7_13 C40_13 1_555 1_555
H8_13 C40_13 1_555 1_555
C41_13 H10_13 1_555 1_555
H11_13 C41_13 1_555 1_555
C42_13 C41_13 1_555 1_555
H12_13 C42_13 1_555 1_555
H13_13 C42_13 1_555 1_555
C43_13 C42_13 1_555 1_555
H14_13 C43_13 1_555 1_555
H15_13 C43_13 1_555 1_555
C44_13 C43_13 1_555 1_555
H17_13 C44_13 1_555 1_555
H18_13 C44_13 1_555 1_555
C49_13 H28_13 1_555 1_555
H29_13 C49_13 1_555 1_555
C50_13 C49_13 1_555 1_555
H30_13 C50_13 1_555 1_555
C51_13 H32_13 1_555 1_555
H33_13 C51_13 1_555 1_555
H34_13 C51_13 1_555 1_555
C52_13 C50_13 1_555 1_555
H35_13 C52_13 1_555 1_555
H36_13 C52_13 1_555 1_555
N1_13 C37_13 1_555 1_555
C41_13 N1_13 1_555 1_555
C49_13 N1_13 1_555 1_555
C51_13 C52_13 1_555 1_555
C45_14 H19_14 1_555 1_555
H20_14 C45_14 1_555 1_555
C46_14 C45_14 1_555 1_555
H21_14 C46_14 1_555 1_555
H22_14 C46_14 1_555 1_555
C47_14 C46_14 1_555 1_555
H23_14 C47_14 1_555 1_555
H24_14 C47_14 1_555 1_555
C48_14 C47_14 1_555 1_555
H25_14 C48_14 1_555 1_555
H26_14 C48_14 1_555 1_555
H27_14 C48_14 1_555 1_555
C37_14 H1_14 1_555 1_555
H2_14 C37_14 1_555 1_555
C38_14 C37_14 1_555 1_555
H4_14 C38_14 1_555 1_555
C39_14 C38_14 1_555 1_555
H5_14 C39_14 1_555 1_555
H6_14 C39_14 1_555 1_555
C40_14 C39_14 1_555 1_555
H7_14 C40_14 1_555 1_555
H8_14 C40_14 1_555 1_555
C41_14 H10_14 1_555 1_555
H11_14 C41_14 1_555 1_555
C42_14 C41_14 1_555 1_555
H12_14 C42_14 1_555 1_555
H13_14 C42_14 1_555 1_555
C43_14 C42_14 1_555 1_555
H14_14 C43_14 1_555 1_555
H15_14 C43_14 1_555 1_555
C44_14 C43_14 1_555 1_555
H17_14 C44_14 1_555 1_555
H18_14 C44_14 1_555 1_555
C49_14 H28_14 1_555 1_555
H29_14 C49_14 1_555 1_555
C50_14 C49_14 1_555 1_555
H30_14 C50_14 1_555 1_555
C51_14 H32_14 1_555 1_555
H33_14 C51_14 1_555 1_555
H34_14 C51_14 1_555 1_555
C52_14 C50_14 1_555 1_555
H35_14 C52_14 1_555 1_555
H36_14 C52_14 1_555 1_555
N1_14 C37_14 1_555 1_555
C41_14 N1_14 1_555 1_555
C49_14 N1_14 1_555 1_555
C51_14 C52_14 1_555 1_555
C45_15 H19_15 1_555 1_555
H20_15 C45_15 1_555 1_555
C46_15 C45_15 1_555 1_555
H21_15 C46_15 1_555 1_555
H22_15 C46_15 1_555 1_555
C47_15 C46_15 1_555 1_555
H23_15 C47_15 1_555 1_555
H24_15 C47_15 1_555 1_555
C48_15 C47_15 1_555 1_555
H25_15 C48_15 1_555 1_555
H26_15 C48_15 1_555 1_555
H27_15 C48_15 1_555 1_555
C37_15 H1_15 1_555 1_555
H2_15 C37_15 1_555 1_555
C38_15 C37_15 1_555 1_555
H4_15 C38_15 1_555 1_555
C39_15 C38_15 1_555 1_555
H5_15 C39_15 1_555 1_555
H6_15 C39_15 1_555 1_555
C40_15 C39_15 1_555 1_555
H7_15 C40_15 1_555 1_555
H8_15 C40_15 1_555 1_555
C41_15 H10_15 1_555 1_555
H11_15 C41_15 1_555 1_555
C42_15 C41_15 1_555 1_555
H12_15 C42_15 1_555 1_555
H13_15 C42_15 1_555 1_555
C43_15 C42_15 1_555 1_555
H14_15 C43_15 1_555 1_555
H15_15 C43_15 1_555 1_555
C44_15 C43_15 1_555 1_555
H16_15 C44_15 1_555 1_555
H17_15 C44_15 1_555 1_555
H18_15 C44_15 1_555 1_555
C49_15 H28_15 1_555 1_555
H29_15 C49_15 1_555 1_555
C50_15 C49_15 1_555 1_555
H30_15 C50_15 1_555 1_555
C51_15 H32_15 1_555 1_555
H33_15 C51_15 1_555 1_555
H34_15 C51_15 1_555 1_555
C52_15 C50_15 1_555 1_555
H35_15 C52_15 1_555 1_555
H36_15 C52_15 1_555 1_555
N1_15 C37_15 1_555 1_555
C41_15 N1_15 1_555 1_555
C49_15 N1_15 1_555 1_555
C51_15 C52_15 1_555 1_555
C37_16 H1_16 1_555 1_555
H2_16 C37_16 1_555 1_555
C38_16 C37_16 1_555 1_555
H3_16 C38_16 1_555 1_555
H4_16 C38_16 1_555 1_555
C39_16 C38_16 1_555 1_555
H5_16 C39_16 1_555 1_555
H6_16 C39_16 1_555 1_555
C40_16 C39_16 1_555 1_555
H7_16 C40_16 1_555 1_555
H8_16 C40_16 1_555 1_555
H9_16 C40_16 1_555 1_555
C41_16 H10_16 1_555 1_555
H11_16 C41_16 1_555 1_555
C42_16 C41_16 1_555 1_555
H12_16 C42_16 1_555 1_555
H13_16 C42_16 1_555 1_555
C43_16 C42_16 1_555 1_555
H14_16 C43_16 1_555 1_555
H15_16 C43_16 1_555 1_555
C44_16 C43_16 1_555 1_555
H17_16 C44_16 1_555 1_555
H18_16 C44_16 1_555 1_555
C45_16 H19_16 1_555 1_555
H20_16 C45_16 1_555 1_555
C46_16 C45_16 1_555 1_555
H21_16 C46_16 1_555 1_555
H22_16 C46_16 1_555 1_555
C47_16 C46_16 1_555 1_555
H23_16 C47_16 1_555 1_555
H24_16 C47_16 1_555 1_555
C48_16 C47_16 1_555 1_555
H25_16 C48_16 1_555 1_555
H26_16 C48_16 1_555 1_555
H27_16 C48_16 1_555 1_555
C49_16 H28_16 1_555 1_555
H29_16 C49_16 1_555 1_555
C50_16 C49_16 1_555 1_555
H30_16 C50_16 1_555 1_555
H31_16 C50_16 1_555 1_555
C51_16 H32_16 1_555 1_555
H33_16 C51_16 1_555 1_555
H34_16 C51_16 1_555 1_555
C52_16 C50_16 1_555 1_555
H35_16 C52_16 1_555 1_555
H36_16 C52_16 1_555 1_555
N1_16 C37_16 1_555 1_555
C41_16 N1_16 1_555 1_555
C45_16 N1_16 1_555 1_555
C49_16 N1_16 1_555 1_555
C51_16 C52_16 1_555 1_555
C37_17 H1_17 1_555 1_555
H2_17 C37_17 1_555 1_555
C38_17 C37_17 1_555 1_555
H3_17 C38_17 1_555 1_555
H4_17 C38_17 1_555 1_555
C39_17 C38_17 1_555 1_555
H5_17 C39_17 1_555 1_555
H6_17 C39_17 1_555 1_555
C40_17 C39_17 1_555 1_555
H7_17 C40_17 1_555 1_555
H8_17 C40_17 1_555 1_555
H9_17 C40_17 1_555 1_555
C41_17 H10_17 1_555 1_555
H11_17 C41_17 1_555 1_555
C42_17 C41_17 1_555 1_555
H12_17 C42_17 1_555 1_555
H13_17 C42_17 1_555 1_555
C43_17 C42_17 1_555 1_555
H14_17 C43_17 1_555 1_555
H15_17 C43_17 1_555 1_555
C44_17 C43_17 1_555 1_555
H17_17 C44_17 1_555 1_555
H18_17 C44_17 1_555 1_555
C45_17 H19_17 1_555 1_555
H20_17 C45_17 1_555 1_555
C46_17 C45_17 1_555 1_555
H21_17 C46_17 1_555 1_555
H22_17 C46_17 1_555 1_555
C47_17 C46_17 1_555 1_555
H23_17 C47_17 1_555 1_555
H24_17 C47_17 1_555 1_555
C48_17 C47_17 1_555 1_555
H25_17 C48_17 1_555 1_555
H26_17 C48_17 1_555 1_555
H27_17 C48_17 1_555 1_555
C49_17 H28_17 1_555 1_555
H29_17 C49_17 1_555 1_555
C50_17 C49_17 1_555 1_555
H30_17 C50_17 1_555 1_555
H31_17 C50_17 1_555 1_555
C51_17 H32_17 1_555 1_555
H33_17 C51_17 1_555 1_555
H34_17 C51_17 1_555 1_555
C52_17 C50_17 1_555 1_555
H35_17 C52_17 1_555 1_555
H36_17 C52_17 1_555 1_555
N1_17 C37_17 1_555 1_555
C41_17 N1_17 1_555 1_555
C45_17 N1_17 1_555 1_555
C49_17 N1_17 1_555 1_555
C51_17 C52_17 1_555 1_555
C37_18 H1_18 1_555 1_555
H2_18 C37_18 1_555 1_555
C38_18 C37_18 1_555 1_555
H3_18 C38_18 1_555 1_555
H4_18 C38_18 1_555 1_555
C39_18 C38_18 1_555 1_555
H5_18 C39_18 1_555 1_555
H6_18 C39_18 1_555 1_555
C40_18 C39_18 1_555 1_555
H7_18 C40_18 1_555 1_555
H8_18 C40_18 1_555 1_555
H9_18 C40_18 1_555 1_555
C41_18 H10_18 1_555 1_555
H11_18 C41_18 1_555 1_555
C42_18 C41_18 1_555 1_555
H12_18 C42_18 1_555 1_555
H13_18 C42_18 1_555 1_555
C43_18 C42_18 1_555 1_555
H14_18 C43_18 1_555 1_555
H15_18 C43_18 1_555 1_555
C44_18 C43_18 1_555 1_555
H16_18 C44_18 1_555 1_555
H17_18 C44_18 1_555 1_555
H18_18 C44_18 1_555 1_555
C45_18 H19_18 1_555 1_555
H20_18 C45_18 1_555 1_555
C46_18 C45_18 1_555 1_555
H21_18 C46_18 1_555 1_555
H22_18 C46_18 1_555 1_555
C47_18 C46_18 1_555 1_555
H23_18 C47_18 1_555 1_555
H24_18 C47_18 1_555 1_555
C48_18 C47_18 1_555 1_555
H25_18 C48_18 1_555 1_555
H26_18 C48_18 1_555 1_555
H27_18 C48_18 1_555 1_555
C49_18 H28_18 1_555 1_555
H29_18 C49_18 1_555 1_555
C50_18 C49_18 1_555 1_555
H30_18 C50_18 1_555 1_555
H31_18 C50_18 1_555 1_555
C51_18 H32_18 1_555 1_555
H33_18 C51_18 1_555 1_555
H34_18 C51_18 1_555 1_555
C52_18 C50_18 1_555 1_555
H35_18 C52_18 1_555 1_555
H36_18 C52_18 1_555 1_555
N1_18 C37_18 1_555 1_555
C41_18 N1_18 1_555 1_555
C45_18 N1_18 1_555 1_555
C49_18 N1_18 1_555 1_555
C51_18 C52_18 1_555 1_555

#END
