
###############################################################################
#
# This file contains modified crystal structure data generated from the
# MOF subset of the Cambridge Structural Database (CSD) v543 
# hosted by the Cambridge Crystallographic Data Centre (CCDC).
#
# This work is licensed under the Creative Commons
# Attribution-NonCommercial-ShareAlike 4.0 International License.
# To view a copy of this license, visit
# http://creativecommons.org/licenses/by-nc-sa/4.0/
# or send a letter to
# Creative Commons, PO Box 1866, Mountain View, CA 94042, USA.
#
# CIF created using the CSD Python API on 29 September 2022
# The structure has been converted into the P1 space group
# The structure has a 3D framework
# The original CSD entry XECZOY is in the monoclinic crystal system
# The framework has been calculated to contain at least 10.0% void space
# The void calculation uses a probe of radius 1.32A, grid spacing 0.4
# H atom positions have been added when not included in the experimental data
#
###############################################################################

data_XECZOY
_chemical_formula_moiety         '(C648 H404 Ni24 O172)n'
_symmetry_cell_setting           triclinic
_symmetry_space_group_name_H-M   'P 1'
_symmetry_Int_Tables_number      1
_space_group_name_Hall           'P 1'
loop_
_symmetry_equiv_pos_site_id
_symmetry_equiv_pos_as_xyz
1 x,y,z
_cell_length_a                   33.979(3)
_cell_length_b                   20.5922(16)
_cell_length_c                   22.456(2)
_cell_angle_alpha                90
_cell_angle_beta                 108.751(2)
_cell_angle_gamma                90
_cell_volume                     14878.6
loop_
_atom_site_label
_atom_site_type_symbol
_atom_site_fract_x
_atom_site_fract_y
_atom_site_fract_z
C16 C 0.2660(4) 0.0526(6) 0.2660(7)
H9 H 0.282127 0.064377 0.241162
C17 C 0.2578(4) 0.0979(6) 0.3061(6)
C18 C 0.2322(4) 0.0822(6) 0.3378(7)
H10 H 0.225731 0.113490 0.363043
C19 C 0.2149(4) 0.0207(6) 0.3345(6)
H11 H 0.196736 0.011545 0.356817
C20 C 0.2785(4) 0.1645(8) 0.3172(9)
C41 C 0.0063(3) 0.0377(4) 0.2295(4)
C42 C 0.0297(3) 0.0887(4) 0.2643(4)
H23 H 0.037882 0.122561 0.243485
C43 C 0.0408(3) 0.0899(4) 0.3284(4)
H24 H 0.056204 0.124558 0.350735
C44 C 0.0290(3) 0.0388(4) 0.3606(4)
C47 C 0.0421(3) 0.0407(4) 0.4302(4)
O3 O 0.2758(4) 0.2001(6) 0.3586(8)
O4 O 0.3017(4) 0.1760(6) 0.2808(7)
O7 O 0.07328(18) 0.0749(3) 0.4558(3)
O8 O 0.02200(18) 0.0085(3) 0.4600(3)
Ni14 Ni 0.10490(3) 0.09487(5) 0.54520(5)
H93 H 0.284105 0.173833 0.235967
C1 C 0.1501(3) 0.8345(5) 0.2915(5)
C2 C 0.1674(3) 0.8961(5) 0.2962(5)
H1 H 0.151634 0.931578 0.300510
C3 C 0.2080(3) 0.9069(5) 0.2949(5)
C4 C 0.2307(3) 0.8514(5) 0.2891(5)
H2 H 0.257413 0.856773 0.287025
C5 C 0.2147(3) 0.7889(5) 0.2864(5)
C6 C 0.1730(3) 0.7812(5) 0.2848(5)
H3 H 0.160928 0.740093 0.279270
C7 C 0.1065(3) 0.8249(5) 0.2909(5)
C8 C 0.0782(3) 0.7850(5) 0.2466(5)
H4 H 0.087086 0.761676 0.217802
C9 C 0.0373(3) 0.7799(5) 0.2452(5)
H5 H 0.018666 0.754347 0.214756
C10 C 0.0240(3) 0.8130(4) 0.2895(4)
C11 C 0.0530(3) 0.8498(5) 0.3352(4)
H6 H 0.044837 0.870288 0.366252
C12 C 0.0935(3) 0.8563(5) 0.3356(5)
H7 H 0.112028 0.881963 0.365976
C14 C 0.2248(3) 0.9722(5) 0.2975(5)
C15 C 0.2505(3) 0.9894(6) 0.2623(6)
H8 H 0.257144 0.958940 0.236520
C21 C 0.2390(3) 0.7307(5) 0.2841(5)
C22 C 0.2661(3) 0.7264(5) 0.2495(5)
H12 H 0.269744 0.762389 0.226749
C23 C 0.2878(3) 0.6698(5) 0.2478(5)
H13 H 0.305126 0.667373 0.223110
C24 C 0.2836(3) 0.6174(5) 0.2829(5)
C25 C 0.2578(3) 0.6198(6) 0.3202(6)
H14 H 0.255682 0.584319 0.344551
C26 C 0.2355(3) 0.6758(5) 0.3202(5)
H15 H 0.217781 0.677515 0.344382
C27 C 0.3070(3) 0.5558(5) 0.2844(5)
C45 C 0.0055(3) 0.9878(4) 0.3264(4)
O5 O 0.3325(2) 0.5561(4) 0.2509(4)
O6 O 0.3028(3) 0.5092(4) 0.3154(4)
Ni8 Ni 0.04464(3) 0.99204(5) 0.55879(5)
H92 H 0.353619 0.590759 0.26661
Ni1 Ni 0.41926(3) 0.13967(5) 0.07778(5)
Ni3 Ni 0.95536(3) 0.00796(5) 0.44121(5)
C30 C 0.9914(3) 0.0382(4) 0.1604(4)
C31 C 0.9883(3) 0.0958(4) 0.1263(4)
H17 H 0.997944 0.134074 0.148118
C32 C 0.9714(3) 0.0982(4) 0.0613(4)
C33 C 0.9563(3) 0.0407(4) 0.0293(4)
C48 C 0.9692(2) 0.1618(4) 0.0276(4)
C51 C 0.9721(3) 0.2788(4) 0.0299(4)
H28 H 0.975277 0.317434 0.052469
C52 C 0.9738(3) 0.2207(4) 0.0599(4)
H29 H 0.977982 0.220343 0.102923
C57 C 0.8592(3) 0.1762(4) 0.0283(4)
H31 H 0.861025 0.208006 0.058468
C58 C 0.8630(3) 0.1116(4) 0.0460(4)
H32 H 0.862552 0.020661 0.010798
C60 C 0.8732(3) 0.0893(4) 0.1123(4)
C61 C 0.8598(3) 0.0291(5) 0.1261(5)
H33 H 0.841973 0.004723 0.093605
C62 C 0.8719(3) 0.0046(4) 0.1856(5)
C63 C 0.8976(3) 0.0393(4) 0.2355(4)
C64 C 0.9097(3) 0.1021(4) 0.2237(4)
H35 H 0.925998 0.127422 0.256683
C65 C 0.8974(3) 0.1260(4) 0.1631(4)
H36 H 0.905468 0.167620 0.155909
C66 C 0.9139(3) 0.0052(4) 0.2977(4)
H43 H 0.891324 0.402601 0.007620
H44 H 0.885610 0.296319 0.034570
C81 C 0.7088(3) 0.2797(5) 0.4127(5)
C82 C 0.6676(3) 0.2701(5) 0.3758(5)
H45 H 0.650934 0.306258 0.360632
C83 C 0.6504(3) 0.2086(5) 0.3608(5)
C84 C 0.6751(3) 0.1544(5) 0.3850(5)
H46 H 0.664004 0.112843 0.375960
C85 C 0.7170(3) 0.1625(5) 0.4231(5)
C86 C 0.7326(3) 0.2254(5) 0.4364(5)
H47 H 0.759977 0.231028 0.461994
C87 C 0.7250(3) 0.3466(5) 0.4279(6)
C88 C 0.7507(3) 0.3616(5) 0.4864(6)
H48 H 0.761548 0.328991 0.515744
C89 C 0.7608(4) 0.4262(6) 0.5020(6)
H49 H 0.778075 0.436665 0.542176
C90 C 0.7453(4) 0.4752(6) 0.4585(7)
C91 C 0.7215(3) 0.4588(6) 0.3991(6)
H50 H 0.712204 0.491024 0.368793
C92 C 0.7112(4) 0.3957(5) 0.3837(6)
H51 H 0.694691 0.385269 0.343022
C93 C 0.7543(5) 0.5454(7) 0.4755(8)
C94 C 0.7434(3) 0.1055(5) 0.4491(5)
C95 C 0.7414(3) 0.0493(6) 0.4131(5)
H52 H 0.721072 0.045904 0.374020
C97 C 0.7994(3) 0.0036(5) 0.4928(5)
C98 C 0.8008(3) 0.0566(5) 0.5308(5)
H54 H 0.820322 0.058403 0.570812
C99 C 0.7730(3) 0.1075(5) 0.5090(5)
H55 H 0.774151 0.143315 0.534681
C101 C 0.6069(3) 0.2009(5) 0.3195(4)
C102 C 0.5755(3) 0.2368(5) 0.3323(5)
H56 H 0.582238 0.263917 0.367223
C103 C 0.5346(3) 0.2325(4) 0.2934(4)
H57 H 0.513988 0.254984 0.303847
C104 C 0.5239(3) 0.1946(4) 0.2386(4)
C105 C 0.5558(3) 0.1597(5) 0.2255(5)
H58 H 0.549439 0.134539 0.189220
C106 C 0.5966(3) 0.1620(5) 0.2659(5)
H59 H 0.617089 0.137610 0.257021
C107 C 0.4804(3) 0.1896(5) 0.1964(4)
H65 H 0.428081 0.346262 0.036503
H66 H 0.444354 0.447786 0.006006
C131 C 0.4655(3) 0.7822(4) 0.0013(4)
C132 C 0.4628(3) 0.7238(4) 0.0312(4)
H73 H 0.459608 0.724411 0.070755
C133 C 0.4648(3) 0.6657(4) 0.0029(4)
H74 H 0.462650 0.627411 0.023641
C134 C 0.4598(3) 0.8462(4) 0.0280(4)
C143 C 0.3751(3) 0.0174(5) 0.5758(5)
H79 H 0.389755 0.013867 0.618444
C144 C 0.3548(3) 0.0751(5) 0.5521(5)
C145 C 0.3321(4) 0.0791(5) 0.4892(5)
H80 H 0.318520 0.117696 0.473523
C146 C 0.3290(3) 0.0272(5) 0.4486(5)
H81 H 0.312489 0.030483 0.406708
C147 C 0.3614(3) 0.1321(5) 0.5943(5)
C159 C 0.3768(3) 0.0014(4) 0.1999(5)
H88 H 0.369115 0.043368 0.185516
H89 H 0.346894 0.001338 0.263976
O17 O 0.93160(19) 0.0373(3) 0.3482(3)
O21 O 0.47377(18) 0.1606(3) 0.1447(3)
O22 O 0.4525(2) 0.2136(5) 0.2156(4)
O23 O 0.7403(4) 0.5897(5) 0.4393(6)
O24 O 0.7790(4) 0.5540(5) 0.5302(6)
O25 O 0.46529(18) 0.8970(3) 0.0017(3)
O26 O 0.4485(2) 0.8456(3) 0.0780(3)
O27 O 0.4212(2) 0.2234(3) 0.0323(3)
O31 O 0.41180(19) 0.0576(3) 0.1214(3)
O35 O 0.3774(3) 0.1260(4) 0.6522(4)
O36 O 0.3509(3) 0.1889(4) 0.5678(4)
O41 O 0.44725(18) 0.0898(3) 0.0236(3)
O42 O 0.3843(2) 0.1927(3) 0.1240(3)
O43 O 0.36277(19) 0.1133(3) 0.0087(3)
Ni10 Ni 0.45606(3) 0.99355(5) 0.01723(5)
O46 O 0.96536(19) 0.1042(3) 0.4648(3)
O49 O 0.89293(18) 0.0040(3) 0.4395(3)
H96 H 0.805924 0.532577 0.534281
H97 H 0.320784 0.188966 0.543486
H100 H 0.393318 0.238816 0.128056
H101 H 0.354324 0.190116 0.0991717
Ni6 Ni 0.39554(4) 0.09620(5) 0.94565(5)
H18 H 0.943754 0.041677 0.985936
C49 C 0.9609(3) 0.2226(4) 0.9328(4)
H27 H 0.955867 0.223542 0.889602
C50 C 0.9657(3) 0.2800(4) 0.9655(4)
C53 C 0.9597(3) 0.3436(4) 0.9337(4)
C54 C 0.8527(3) 0.0810(4) 0.9376(4)
C55 C 0.8492(3) 0.1466(4) 0.9200(4)
H30 H 0.844613 0.158009 0.878267
C56 C 0.8525(3) 0.1949(4) 0.9654(4)
C59 C 0.8598(3) 0.0643(4) 0.9995(4)
C67 C 0.8523(3) 0.0281(5) 0.8912(4)
C72 C 0.8740(3) 0.0337(5) 0.8486(4)
H40 H 0.887384 0.072398 0.845662
C74 C 0.8515(3) 0.2647(4) 0.9487(4)
C75 C 0.8301(3) 0.2872(4) 0.8877(4)
H41 H 0.813689 0.258758 0.857816
C76 C 0.8335(3) 0.3519(4) 0.8718(4)
H42 H 0.819824 0.365850 0.830988
C77 C 0.8572(2) 0.3960(4) 0.9162(4)
C78 C 0.8761(3) 0.3737(4) 0.9770(4)
C79 C 0.8730(3) 0.3095(4) 0.9932(4)
C80 C 0.8617(3) 0.4652(4) 0.8993(4)
C108 C 0.4782(3) 0.4826(4) 0.8536(4)
H60 H 0.480747 0.443121 0.834977
C109 C 0.4603(3) 0.4836(4) 0.9013(4)
C110 C 0.4571(3) 0.5420(4) 0.9298(4)
H61 H 0.444752 0.543051 0.961259
C111 C 0.4722(3) 0.5997(4) 0.9120(4)
C112 C 0.4898(3) 0.5972(4) 0.8637(4)
H62 H 0.500015 0.635192 0.851720
C113 C 0.4926(3) 0.5390(4) 0.8328(4)
C114 C 0.4438(3) 0.4219(4) 0.9183(4)
C115 C 0.4334(3) 0.3709(4) 0.8760(5)
H63 H 0.433515 0.377164 0.835093
C116 C 0.4225(4) 0.3096(4) 0.8941(5)
H64 H 0.416643 0.275407 0.865551
C117 C 0.4205(3) 0.3003(4) 0.9536(4)
C118 C 0.4293(3) 0.3523(4) 0.9961(4)
C119 C 0.4399(3) 0.4130(4) 0.9782(4)
C120 C 0.4135(3) 0.2337(4) 0.9754(4)
C121 C 0.5074(3) 0.5387(4) 0.7780(4)
C122 C 0.5269(3) 0.5925(4) 0.7618(4)
H67 H 0.532633 0.628544 0.788169
C123 C 0.5379(3) 0.5935(4) 0.7077(4)
H68 H 0.551162 0.629736 0.698326
C124 C 0.5293(3) 0.5413(4) 0.6677(4)
C125 C 0.5096(3) 0.4864(4) 0.6819(4)
H69 H 0.503673 0.450965 0.654768
C126 C 0.4992(3) 0.4853(4) 0.7362(4)
H70 H 0.486436 0.448520 0.745735
C127 C 0.5431(3) 0.5418(4) 0.6107(4)
C128 C 0.4700(3) 0.6622(4) 0.9435(4)
C129 C 0.4735(3) 0.7220(4) 0.9147(4)
H71 H 0.477216 0.721777 0.875474
C130 C 0.4714(3) 0.7810(4) 0.9433(4)
H72 H 0.473993 0.819679 0.923412
C162 C 0.9633(3) 0.1633(4) 0.9630(4)
H90 H 0.960930 0.124848 0.940416
O9 O 0.96536(19) 0.3958(3) 0.9648(3)
O10 O 0.9465(2) 0.3437(3) 0.8722(3)
O13 O 0.8383(2) 0.4897(3) 0.8511(3)
O14 O 0.89293(18) 0.4960(3) 0.9395(3)
O28 O 0.3997(2) 0.1920(3) 0.9315(3)
O29 O 0.52230(17) 0.5089(3) 0.5611(3)
O30 O 0.57409(18) 0.5756(3) 0.6156(3)
O40 O 0.3393(2) 0.0979(3) 0.8737(3)
Ni9 Ni 0.95536(3) 0.49204(5) 0.94121(5)
Ni11 Ni 0.54394(3) 0.49355(5) 0.48277(5)
Ni13 Ni 0.45606(3) 0.50645(5) 0.51723(5)
Ni16 Ni 0.89510(3) 0.59487(5) 0.95480(5)
Ni17 Ni 0.60446(4) 0.59620(5) 0.55435(5)
O51 O 0.47770(17) 0.0089(3) 0.9389(3)
O53 O 0.42591(18) 0.0756(3) 0.8844(3)
H94 H 0.343761 0.112985 0.834358
H95 H 0.327193 0.0535468 0.867289
Ni2 Ni 0.91732(3) 0.86178(5) 0.34549(5)
Ni5 Ni 0.89510(3) 0.90513(5) 0.45480(5)
C13 C 0.9795(3) 0.8131(4) 0.2871(4)
C28 C 0.9596(3) 0.9818(4) 0.0611(4)
C29 C 0.9782(3) 0.9808(4) 0.1255(4)
H16 H 0.982100 0.941171 0.146405
C34 C 0.9438(3) 0.9202(4) 0.0277(4)
C35 C 0.9327(4) 0.8690(4) 0.0610(5)
H19 H 0.932600 0.876076 0.101877
C36 C 0.9219(3) 0.8082(4) 0.0336(5)
H20 H 0.915810 0.774388 0.056632
H25 H 0.997037 0.954293 0.347226
C46 C 0.9947(3) 0.9866(4) 0.2616(4)
H26 H 0.979647 0.951805 0.239157
H34 H 0.862583 0.963760 0.192683
C96 C 0.7694(3) 0.9983(5) 0.4348(5)
H53 H 0.767792 0.961306 0.410353
C100 C 0.8322(3) 0.9533(5) 0.5110(5)
C135 C 0.3526(3) 0.9179(4) 0.4257(4)
C136 C 0.3506(3) 0.8516(4) 0.4382(5)
H75 H 0.346855 0.838599 0.475659
C137 C 0.3540(3) 0.8046(4) 0.3949(4)
C138 C 0.3604(3) 0.8251(4) 0.3398(4)
H76 H 0.362444 0.794190 0.310724
C139 C 0.3639(3) 0.8911(4) 0.3267(4)
C140 C 0.3588(3) 0.9365(4) 0.3700(5)
H77 H 0.359684 0.980514 0.361155
C141 C 0.3511(3) 0.9695(4) 0.4712(5)
C142 C 0.3735(3) 0.9641(5) 0.5357(5)
H78 H 0.387182 0.925701 0.551727
C148 C 0.3533(3) 0.7342(4) 0.4113(4)
C149 C 0.3362(3) 0.7117(4) 0.4556(5)
H82 H 0.322863 0.740815 0.474310
C150 C 0.3386(3) 0.6467(4) 0.4728(5)
H83 H 0.325927 0.632355 0.501488
C151 C 0.3597(3) 0.6037(4) 0.4475(4)
C152 C 0.3773(3) 0.6246(4) 0.4034(4)
H84 H 0.391453 0.595150 0.386218
C153 C 0.3742(3) 0.6886(4) 0.3847(4)
H85 H 0.385927 0.702076 0.354570
C154 C 0.3632(3) 0.5333(4) 0.4681(4)
C155 C 0.3753(3) 0.9143(4) 0.2714(4)
C156 C 0.4000(3) 0.8770(4) 0.2443(4)
H86 H 0.408144 0.835229 0.258988
C157 C 0.4123(3) 0.9025(4) 0.1957(4)
H87 H 0.428196 0.877030 0.177924
C158 C 0.4014(3) 0.9646(4) 0.1729(4)
C160 C 0.3637(3) 0.9763(4) 0.2476(5)
C161 C 0.4163(3) 0.9981(4) 0.1243(4)
O1 O 0.97168(18) 0.8416(3) 0.3313(3)
O2 O 0.9522(2) 0.7873(4) 0.2393(4)
O18 O 0.90831(18) 0.9455(3) 0.2958(3)
O19 O 0.83826(19) 0.9141(3) 0.4737(3)
O20 O 0.8573(3) 0.9581(5) 0.5703(4)
O32 O 0.43288(19) 0.9640(3) 0.0902(3)
O33 O 0.39466(19) 0.5020(3) 0.4582(3)
O34 O 0.3394(2) 0.5096(3) 0.4924(4)
O37 O 0.88387(19) 0.8102(3) 0.2650(3)
O38 O 0.94609(18) 0.9124(3) 0.4258(3)
O39 O 0.86105(18) 0.8856(3) 0.3624(3)
Ni18 Ni 0.39554(4) 0.40380(5) 0.44565(5)
O44 O 0.92672(18) 0.9251(3) 0.5442(3)
O45 O 0.97800(18) 0.9915(3) 0.5400(3)
O47 O 0.8991(2) 0.8106(3) 0.4746(3)
O48 O 0.91918(19) 0.7778(3) 0.3928(3)
O52 O 0.52230(17) 0.9911(3) 0.0611(3)
H98 H 0.893189 0.76423 0.269258
H99 H 0.853762 0.812092 0.259915
C37 C 0.9203(3) 0.7981(4) 0.9713(4)
C38 C 0.9295(2) 0.8498(4) 0.9373(4)
H21 H 0.928225 0.843621 0.895700
C39 C 0.9405(3) 0.9099(4) 0.9651(4)
H22 H 0.945821 0.943944 0.941577
C40 C 0.9123(3) 0.7324(4) 0.9437(4)
C68 C 0.8309(3) 0.9699(5) 0.8944(5)
H37 H 0.815701 0.966509 0.921983
C69 C 0.8329(3) 0.9175(5) 0.8557(5)
H38 H 0.819205 0.878953 0.857989
C70 C 0.8551(3) 0.9231(5) 0.8140(4)
C71 C 0.8756(3) 0.9814(5) 0.8101(5)
H39 H 0.890281 0.985067 0.781760
C73 C 0.8595(3) 0.8666(5) 0.7746(5)
O11 O 0.8991(2) 0.6894(3) 0.9746(3)
O12 O 0.91918(19) 0.7222(3) 0.8928(3)
O15 O 0.8469(2) 0.8113(3) 0.7833(4)
O16 O 0.8749(2) 0.8796(4) 0.7311(4)
Ni7 Ni 0.91732(3) 0.63822(5) 0.84549(5)
O54 O 0.39466(19) 0.9980(3) 0.9582(3)
H91 H 0.90321 0.897987 0.749939
C93_2 C 0.2457(5) 0.0454(7) 0.0245(8)
C110_2 C 0.5429(3) 0.0420(4) 0.5702(4)
H61_2 H 0.555248 0.043051 0.538741
C111_2 C 0.5278(3) 0.0997(4) 0.5880(4)
C112_2 C 0.5102(3) 0.0972(4) 0.6363(4)
H62_2 H 0.499985 0.135192 0.648280
C113_2 C 0.5074(3) 0.0390(4) 0.6672(4)
C121_2 C 0.4926(3) 0.0387(4) 0.7220(4)
C122_2 C 0.4731(3) 0.0925(4) 0.7382(4)
H67_2 H 0.467367 0.128544 0.711831
C123_2 C 0.4621(3) 0.0935(4) 0.7923(4)
H68_2 H 0.448838 0.129736 0.801674
C124_2 C 0.4707(3) 0.0413(4) 0.8323(4)
C127_2 C 0.4569(3) 0.0418(4) 0.8893(4)
C128_2 C 0.5300(3) 0.1622(4) 0.5565(4)
C129_2 C 0.5265(3) 0.2220(4) 0.5853(4)
H71_2 H 0.522784 0.221777 0.624526
C130_2 C 0.5286(3) 0.2810(4) 0.5567(4)
H72_2 H 0.526007 0.319679 0.576588
C131_2 C 0.5345(3) 0.2822(4) 0.4987(4)
C132_2 C 0.5372(3) 0.2238(4) 0.4688(4)
H73_2 H 0.540392 0.224411 0.429245
C133_2 C 0.5352(3) 0.1657(4) 0.4971(4)
H74_2 H 0.537350 0.127411 0.476359
C134_2 C 0.5402(3) 0.3462(4) 0.4720(4)
O23_2 O 0.2597(4) 0.0897(5) 0.0607(6)
O25_2 O 0.53471(18) 0.3970(3) 0.4983(3)
O26_2 O 0.5515(2) 0.3456(3) 0.4220(3)
Ni13_2 Ni 0.54394(3) 0.00645(5) 0.98277(5)
Ni1_2 Ni 0.58074(3) 0.63967(5) 0.42222(5)
Ni2_2 Ni 0.08268(3) 0.36178(5) 0.15451(5)
Ni3_2 Ni 0.04464(3) 0.50796(5) 0.05879(5)
Ni5_2 Ni 0.10490(3) 0.40513(5) 0.04520(5)
C13_2 C 0.0205(3) 0.3131(4) 0.2129(4)
C28_2 C 0.0404(3) 0.4818(4) 0.4389(4)
C29_2 C 0.0218(3) 0.4808(4) 0.3745(4)
H16_2 H 0.017900 0.441171 0.353595
C30_2 C 0.0086(3) 0.5382(4) 0.3396(4)
C31_2 C 0.0117(3) 0.5958(4) 0.3737(4)
H17_2 H 0.002056 0.634074 0.351882
C32_2 C 0.0286(3) 0.5982(4) 0.4387(4)
C33_2 C 0.0437(3) 0.5407(4) 0.4707(4)
H18_2 H 0.056246 0.541677 0.514064
C34_2 C 0.0562(3) 0.4202(4) 0.4723(4)
C35_2 C 0.0673(4) 0.3690(4) 0.4390(5)
H19_2 H 0.067400 0.376076 0.398123
C36_2 C 0.0781(3) 0.3082(4) 0.4664(5)
H20_2 H 0.084190 0.274388 0.443368
C37_2 C 0.0797(3) 0.2981(4) 0.5287(4)
C38_2 C 0.0705(2) 0.3498(4) 0.5627(4)
H21_2 H 0.071775 0.343621 0.604300
C39_2 C 0.0595(3) 0.4099(4) 0.5349(4)
H22_2 H 0.054179 0.443944 0.558423
C40_2 C 0.0877(3) 0.2324(4) 0.5563(4)
H25_2 H 0.002963 0.454293 0.152774
C46_2 C 0.0053(3) 0.4866(4) 0.2384(4)
H26_2 H 0.020353 0.451805 0.260843
C48_2 C 0.0308(2) 0.6618(4) 0.4724(4)
C49_2 C 0.0391(3) 0.7226(4) 0.5672(4)
H27_2 H 0.044133 0.723542 0.610398
C50_2 C 0.0343(3) 0.7800(4) 0.5345(4)
C51_2 C 0.0279(3) 0.7788(4) 0.4701(4)
H28_2 H 0.024723 0.817434 0.447531
C52_2 C 0.0262(3) 0.7207(4) 0.4401(4)
H29_2 H 0.022018 0.720343 0.397077
C53_2 C 0.0403(3) 0.8436(4) 0.5663(4)
C54_2 C 0.1473(3) 0.5810(4) 0.5624(4)
C55_2 C 0.1508(3) 0.6466(4) 0.5800(4)
H30_2 H 0.155387 0.658009 0.621733
C56_2 C 0.1475(3) 0.6949(4) 0.5346(4)
C57_2 C 0.1408(3) 0.6762(4) 0.4717(4)
H31_2 H 0.138975 0.708006 0.441532
C58_2 C 0.1370(3) 0.6116(4) 0.4540(4)
C59_2 C 0.1402(3) 0.5643(4) 0.5005(4)
H32_2 H 0.137448 0.520661 0.489202
C60_2 C 0.1268(3) 0.5893(4) 0.3877(4)
C61_2 C 0.1402(3) 0.5291(5) 0.3739(5)
H33_2 H 0.158027 0.504723 0.406395
C62_2 C 0.1281(3) 0.5046(4) 0.3144(5)
H34_2 H 0.137417 0.463760 0.307317
C63_2 C 0.1024(3) 0.5393(4) 0.2645(4)
C64_2 C 0.0903(3) 0.6021(4) 0.2763(4)
H35_2 H 0.074002 0.627422 0.243317
C65_2 C 0.1026(3) 0.6260(4) 0.3369(4)
H36_2 H 0.094532 0.667620 0.344091
C66_2 C 0.0861(3) 0.5052(4) 0.2023(4)
C67_2 C 0.1477(3) 0.5281(5) 0.6088(4)
C68_2 C 0.1691(3) 0.4699(5) 0.6056(5)
H37_2 H 0.184299 0.466509 0.578017
C69_2 C 0.1671(3) 0.4175(5) 0.6443(5)
H38_2 H 0.180795 0.378953 0.642011
C70_2 C 0.1449(3) 0.4231(5) 0.6860(4)
C71_2 C 0.1244(3) 0.4814(5) 0.6899(5)
H39_2 H 0.109719 0.485067 0.718240
C72_2 C 0.1260(3) 0.5337(5) 0.6514(4)
H40_2 H 0.112616 0.572398 0.654338
C73_2 C 0.1405(3) 0.3666(5) 0.7254(5)
C74_2 C 0.1485(3) 0.7647(4) 0.5513(4)
C75_2 C 0.1699(3) 0.7872(4) 0.6123(4)
H41_2 H 0.186311 0.758758 0.642184
C76_2 C 0.1665(3) 0.8519(4) 0.6282(4)
H42_2 H 0.180176 0.865850 0.669012
C77_2 C 0.1428(2) 0.8960(4) 0.5838(4)
C78_2 C 0.1239(3) 0.8737(4) 0.5230(4)
H43_2 H 0.108676 0.902601 0.492380
C79_2 C 0.1270(3) 0.8095(4) 0.5068(4)
H44_2 H 0.114390 0.796319 0.465430
C80_2 C 0.1383(3) 0.9652(4) 0.6007(4)
C81_2 C 0.2912(3) 0.7797(5) 0.0873(5)
C82_2 C 0.3324(3) 0.7701(5) 0.1242(5)
H45_2 H 0.349066 0.806258 0.139368
C83_2 C 0.3496(3) 0.7086(5) 0.1392(5)
C84_2 C 0.3249(3) 0.6544(5) 0.1150(5)
H46_2 H 0.335996 0.612843 0.124040
C85_2 C 0.2830(3) 0.6625(5) 0.0769(5)
C86_2 C 0.2674(3) 0.7254(5) 0.0636(5)
H47_2 H 0.240023 0.731028 0.038006
C87_2 C 0.2750(3) 0.8466(5) 0.0721(6)
C88_2 C 0.2493(3) 0.8616(5) 0.0136(6)
C90_2 C 0.2547(4) 0.9752(6) 0.0415(7)
C91_2 C 0.2785(3) 0.9588(6) 0.1009(6)
H50_2 H 0.287796 0.991024 0.131207
C92_2 C 0.2888(4) 0.8957(5) 0.1163(6)
H51_2 H 0.305309 0.885269 0.156978
C94_2 C 0.2566(3) 0.6055(5) 0.0509(5)
C95_2 C 0.2586(3) 0.5493(6) 0.0869(5)
H52_2 H 0.278928 0.545904 0.125980
C96_2 C 0.2306(3) 0.4983(5) 0.0652(5)
H53_2 H 0.232208 0.461306 0.089647
C97_2 C 0.2006(3) 0.5036(5) 0.0072(5)
C101_2 C 0.3931(3) 0.7009(5) 0.1805(4)
C102_2 C 0.4245(3) 0.7368(5) 0.1677(5)
H56_2 H 0.417762 0.763917 0.132777
C103_2 C 0.4654(3) 0.7325(4) 0.2066(4)
H57_2 H 0.486012 0.754984 0.196153
C104_2 C 0.4761(3) 0.6946(4) 0.2614(4)
C105_2 C 0.4442(3) 0.6597(5) 0.2745(5)
H58_2 H 0.450561 0.634539 0.310780
C106_2 C 0.4034(3) 0.6620(5) 0.2341(5)
H59_2 H 0.382911 0.637610 0.242979
C107_2 C 0.5196(3) 0.6896(5) 0.3036(4)
C108_2 C 0.5218(3) 0.9826(4) 0.6464(4)
H60_2 H 0.519253 0.943121 0.665023
C109_2 C 0.5397(3) 0.9836(4) 0.5987(4)
C114_2 C 0.5562(3) 0.9219(4) 0.5817(4)
C115_2 C 0.5666(3) 0.8709(4) 0.6240(5)
H63_2 H 0.566485 0.877164 0.664907
C116_2 C 0.5775(4) 0.8096(4) 0.6059(5)
H64_2 H 0.583357 0.775407 0.634449
C117_2 C 0.5795(3) 0.8003(4) 0.5464(4)
C118_2 C 0.5707(3) 0.8523(4) 0.5039(4)
H65_2 H 0.571919 0.846262 0.463497
C119_2 C 0.5601(3) 0.9130(4) 0.5218(4)
H66_2 H 0.555646 0.947786 0.493994
C120_2 C 0.5865(3) 0.7337(4) 0.5246(4)
C125_2 C 0.4904(3) 0.9864(4) 0.8181(4)
H69_2 H 0.496327 0.950965 0.845232
C126_2 C 0.5008(3) 0.9853(4) 0.7638(4)
H70_2 H 0.513564 0.948520 0.754265
C135_2 C 0.6474(3) 0.4179(4) 0.0743(4)
C136_2 C 0.6494(3) 0.3516(4) 0.0618(5)
H75_2 H 0.653145 0.338599 0.024341
C137_2 C 0.6460(3) 0.3046(4) 0.1051(4)
C138_2 C 0.6396(3) 0.3251(4) 0.1602(4)
H76_2 H 0.637556 0.294190 0.189276
C139_2 C 0.6361(3) 0.3911(4) 0.1733(4)
C140_2 C 0.6412(3) 0.4365(4) 0.1300(5)
H77_2 H 0.640316 0.480514 0.138845
C141_2 C 0.6489(3) 0.4695(4) 0.0288(5)
C145_2 C 0.6679(4) 0.5791(5) 0.0108(5)
H80_2 H 0.681480 0.617696 0.026477
C146_2 C 0.6710(3) 0.5272(5) 0.0514(5)
H81_2 H 0.687511 0.530483 0.093292
C148_2 C 0.6467(3) 0.2342(4) 0.0887(4)
C149_2 C 0.6638(3) 0.2117(4) 0.0444(5)
H82_2 H 0.677137 0.240815 0.025690
C150_2 C 0.6614(3) 0.1467(4) 0.0272(5)
C151_2 C 0.6403(3) 0.1037(4) 0.0525(4)
C152_2 C 0.6227(3) 0.1246(4) 0.0966(4)
H84_2 H 0.608547 0.095150 0.113782
C153_2 C 0.6258(3) 0.1886(4) 0.1153(4)
H85_2 H 0.614073 0.202076 0.145430
C154_2 C 0.6368(3) 0.0333(4) 0.0319(4)
C155_2 C 0.6247(3) 0.4143(4) 0.2286(4)
C156_2 C 0.6000(3) 0.3770(4) 0.2557(4)
H86_2 H 0.591856 0.335229 0.241012
C157_2 C 0.5877(3) 0.4025(4) 0.3043(4)
H87_2 H 0.571804 0.377030 0.322076
C158_2 C 0.5986(3) 0.4646(4) 0.3271(4)
C159_2 C 0.6232(3) 0.5014(4) 0.3001(5)
H88_2 H 0.630885 0.543368 0.314484
C160_2 C 0.6363(3) 0.4763(4) 0.2524(5)
H89_2 H 0.653106 0.501338 0.236024
C161_2 C 0.5837(3) 0.4981(4) 0.3757(4)
C162_2 C 0.0367(3) 0.6633(4) 0.5370(4)
H90_2 H 0.039070 0.624848 0.559584
O1_2 O 0.02832(18) 0.3416(3) 0.1687(3)
O2_2 O 0.0478(2) 0.2873(4) 0.2607(4)
O9_2 O 0.03464(19) 0.8958(3) 0.5352(3)
O10_2 O 0.0535(2) 0.8437(3) 0.6278(3)
O11_2 O 0.1009(2) 0.1894(3) 0.5254(3)
O12_2 O 0.08082(19) 0.2222(3) 0.6072(3)
O13_2 O 0.1617(2) 0.9897(3) 0.6489(3)
O14_2 O 0.10707(18) 0.9960(3) 0.5605(3)
O15_2 O 0.1531(2) 0.3113(3) 0.7167(4)
O16_2 O 0.1251(2) 0.3796(4) 0.7689(4)
O17_2 O 0.06840(19) 0.5373(3) 0.1518(3)
O18_2 O 0.09169(18) 0.4455(3) 0.2042(3)
O19_2 O 0.16174(19) 0.4141(3) 0.0263(3)
O21_2 O 0.52623(18) 0.6606(3) 0.3553(3)
O22_2 O 0.5475(2) 0.7136(5) 0.2844(4)
O27_2 O 0.5788(2) 0.7234(3) 0.4677(3)
O28_2 O 0.6003(2) 0.6920(3) 0.5685(3)
O31_2 O 0.58820(19) 0.5576(3) 0.3786(3)
O32_2 O 0.56712(19) 0.4640(3) 0.4098(3)
O33_2 O 0.60534(19) 0.0020(3) 0.0418(3)
O34_2 O 0.6606(2) 0.0096(3) 0.0076(4)
O37_2 O 0.11613(19) 0.3102(3) 0.2350(3)
O38_2 O 0.05391(18) 0.4124(3) 0.0742(3)
O39_2 O 0.13895(18) 0.3856(3) 0.1376(3)
O40_2 O 0.6607(2) 0.5979(3) 0.6263(3)
O41_2 O 0.55275(18) 0.5898(3) 0.4764(3)
O42_2 O 0.6157(2) 0.6927(3) 0.3760(3)
O43_2 O 0.63723(19) 0.6133(3) 0.4913(3)
Ni7_2 Ni 0.08268(3) 0.13822(5) 0.65451(5)
O46_2 O 0.03464(19) 0.6042(3) 0.0352(3)
O47_2 O 0.1009(2) 0.3106(3) 0.0254(3)
O48_2 O 0.08082(19) 0.2778(3) 0.1072(3)
O49_2 O 0.10707(18) 0.5040(3) 0.0605(3)
O52_2 O 0.47770(17) 0.4911(3) 0.4389(3)
O54_2 O 0.60534(19) 0.4980(3) 0.5418(3)
H91_2 H 0.0967897 0.397987 0.750061
H94_2 H 0.656239 0.612985 0.665642
H95_2 H 0.672807 0.553547 0.632711
H98_2 H 0.106811 0.26423 0.230742
H99_2 H 0.146238 0.312092 0.240085
H100_2 H 0.606682 0.738816 0.371944
H101_2 H 0.645676 0.690116 0.400828
H48_2 H 0.238452 0.828991 0.984256
C89_2 C 0.2392(4) 0.9262(6) 0.9980(6)
H49_2 H 0.221925 0.936665 0.957824
C98_2 C 0.1992(3) 0.5566(5) 0.9692(5)
H54_2 H 0.179678 0.558403 0.929188
C99_2 C 0.2270(3) 0.6075(5) 0.9910(5)
H55_2 H 0.225849 0.643315 0.965319
C100_2 C 0.1678(3) 0.4533(5) 0.9890(5)
C142_2 C 0.6265(3) 0.4641(5) 0.9643(5)
H78_2 H 0.612818 0.425701 0.948273
C143_2 C 0.6249(3) 0.5174(5) 0.9242(5)
H79_2 H 0.610245 0.513867 0.881556
C144_2 C 0.6452(3) 0.5751(5) 0.9479(5)
C147_2 C 0.6386(3) 0.6321(5) 0.9057(5)
H83_2 H 0.674073 0.132355 0.998512
O20_2 O 0.1427(3) 0.4581(5) 0.9297(4)
O35_2 O 0.6226(3) 0.6260(4) 0.8478(4)
O36_2 O 0.6491(3) 0.6889(4) 0.9322(4)
O44_2 O 0.07328(18) 0.4251(3) 0.9558(3)
O45_2 O 0.02200(18) 0.4915(3) 0.9600(3)
H97_2 H 0.679216 0.688966 0.956514
Ni18_2 Ni 0.60446(4) 0.90380(5) 0.05435(5)
C1_2 C 0.8499(3) 0.3345(5) 0.2085(5)
C2_2 C 0.8326(3) 0.3961(5) 0.2038(5)
H1_2 H 0.848366 0.431578 0.199490
C3_2 C 0.7920(3) 0.4069(5) 0.2051(5)
C4_2 C 0.7693(3) 0.3514(5) 0.2109(5)
H2_2 H 0.742587 0.356773 0.212975
C5_2 C 0.7853(3) 0.2889(5) 0.2136(5)
C6_2 C 0.8270(3) 0.2812(5) 0.2152(5)
H3_2 H 0.839072 0.240093 0.220730
C7_2 C 0.8935(3) 0.3249(5) 0.2091(5)
C8_2 C 0.9218(3) 0.2850(5) 0.2534(5)
H4_2 H 0.912914 0.261676 0.282198
C9_2 C 0.9627(3) 0.2799(5) 0.2548(5)
H5_2 H 0.981334 0.254347 0.285244
C10_2 C 0.9760(3) 0.3130(4) 0.2105(4)
C11_2 C 0.9470(3) 0.3498(5) 0.1648(4)
H6_2 H 0.955163 0.370288 0.133748
C12_2 C 0.9065(3) 0.3563(5) 0.1644(5)
H7_2 H 0.887972 0.381963 0.134024
C14_2 C 0.7752(3) 0.4722(5) 0.2025(5)
C15_2 C 0.7495(3) 0.4894(6) 0.2377(6)
H8_2 H 0.742856 0.458940 0.263480
C16_2 C 0.7340(4) 0.5526(6) 0.2340(7)
H9_2 H 0.717873 0.564377 0.258838
C17_2 C 0.7422(4) 0.5979(6) 0.1939(6)
C18_2 C 0.7678(4) 0.5822(6) 0.1622(7)
H10_2 H 0.774269 0.613490 0.136957
C19_2 C 0.7851(4) 0.5207(6) 0.1655(6)
H11_2 H 0.803264 0.511545 0.143183
C20_2 C 0.7215(4) 0.6645(8) 0.1828(9)
C21_2 C 0.7610(3) 0.2307(5) 0.2159(5)
C22_2 C 0.7339(3) 0.2264(5) 0.2505(5)
H12_2 H 0.730256 0.262389 0.273251
C23_2 C 0.7122(3) 0.1698(5) 0.2522(5)
H13_2 H 0.694874 0.167373 0.276890
C24_2 C 0.7164(3) 0.1174(5) 0.2171(5)
C25_2 C 0.7422(3) 0.1198(6) 0.1798(6)
H14_2 H 0.744318 0.084319 0.155449
C26_2 C 0.7645(3) 0.1758(5) 0.1798(5)
H15_2 H 0.782219 0.177515 0.155618
C27_2 C 0.6930(3) 0.0558(5) 0.2156(5)
C41_2 C 0.9937(3) 0.5377(4) 0.2705(4)
C42_2 C 0.9703(3) 0.5887(4) 0.2357(4)
H23_2 H 0.962118 0.622561 0.256515
C43_2 C 0.9592(3) 0.5899(4) 0.1716(4)
H24_2 H 0.943796 0.624558 0.149265
C44_2 C 0.9710(3) 0.5388(4) 0.1394(4)
C45_2 C 0.9945(3) 0.4878(4) 0.1736(4)
C47_2 C 0.9579(3) 0.5407(4) 0.0698(4)
O3_2 O 0.7242(4) 0.7001(6) 0.1414(8)
O4_2 O 0.6983(4) 0.6760(6) 0.2192(7)
O5_2 O 0.6675(2) 0.0561(4) 0.2491(4)
O6_2 O 0.6972(3) 0.0092(4) 0.1846(4)
O7_2 O 0.92672(18) 0.5749(3) 0.0442(3)
O8_2 O 0.97800(18) 0.5085(3) 0.0400(3)
H92_2 H 0.646381 0.0907593 0.23339
H93_2 H 0.715895 0.673833 0.264033
C37_3 C 0.0797(3) 0.2019(4) 0.0287(4)
C38_3 C 0.0705(2) 0.1502(4) 0.0627(4)
H21_3 H 0.071775 0.156379 0.104300
C39_3 C 0.0595(3) 0.0901(4) 0.0349(4)
H22_3 H 0.054179 0.056056 0.058423
C40_3 C 0.0877(3) 0.2676(4) 0.0563(4)
C68_3 C 0.1691(3) 0.0301(5) 0.1056(5)
H37_3 H 0.184299 0.033491 0.078017
C69_3 C 0.1671(3) 0.0825(5) 0.1443(5)
H38_3 H 0.180795 0.121047 0.142011
C70_3 C 0.1449(3) 0.0769(5) 0.1860(4)
C71_3 C 0.1244(3) 0.0186(5) 0.1899(5)
H39_3 H 0.109719 0.014933 0.218240
C73_3 C 0.1405(3) 0.1334(5) 0.2254(5)
O15_3 O 0.1531(2) 0.1887(3) 0.2167(4)
O16_3 O 0.1251(2) 0.1204(4) 0.2689(4)
H91_3 H 0.0967897 0.102013 0.250061
C13_3 C 0.0205(3) 0.1869(4) 0.7129(4)
C28_3 C 0.0404(3) 0.0182(4) 0.9389(4)
C29_3 C 0.0218(3) 0.0192(4) 0.8745(4)
H16_3 H 0.017900 0.058829 0.853595
C34_3 C 0.0562(3) 0.0798(4) 0.9723(4)
C35_3 C 0.0673(4) 0.1310(4) 0.9390(5)
H19_3 H 0.067400 0.123924 0.898123
C36_3 C 0.0781(3) 0.1918(4) 0.9664(5)
H20_3 H 0.084190 0.225612 0.943368
H25_3 H 0.002963 0.045707 0.652774
C46_3 C 0.0053(3) 0.0134(4) 0.7384(4)
H26_3 H 0.020353 0.048195 0.760843
H34_3 H 0.137417 0.036240 0.807317
C96_3 C 0.2306(3) 0.0017(5) 0.5652(5)
H53_3 H 0.232208 0.038694 0.589647
C100_3 C 0.1678(3) 0.0467(5) 0.4890(5)
C135_3 C 0.6474(3) 0.0821(4) 0.5743(4)
C136_3 C 0.6494(3) 0.1484(4) 0.5618(5)
H75_3 H 0.653145 0.161401 0.524341
C137_3 C 0.6460(3) 0.1954(4) 0.6051(4)
C138_3 C 0.6396(3) 0.1749(4) 0.6602(4)
H76_3 H 0.637556 0.205810 0.689276
C139_3 C 0.6361(3) 0.1089(4) 0.6733(4)
C140_3 C 0.6412(3) 0.0635(4) 0.6300(5)
H77_3 H 0.640316 0.019486 0.638845
C141_3 C 0.6489(3) 0.0305(4) 0.5288(5)
C142_3 C 0.6265(3) 0.0359(5) 0.4643(5)
H78_3 H 0.612818 0.074299 0.448273
C148_3 C 0.6467(3) 0.2658(4) 0.5887(4)
C149_3 C 0.6638(3) 0.2883(4) 0.5444(5)
H82_3 H 0.677137 0.259185 0.525690
C150_3 C 0.6614(3) 0.3533(4) 0.5272(5)
H83_3 H 0.674073 0.367645 0.498512
C151_3 C 0.6403(3) 0.3963(4) 0.5525(4)
C152_3 C 0.6227(3) 0.3754(4) 0.5966(4)
H84_3 H 0.608547 0.404850 0.613782
C153_3 C 0.6258(3) 0.3114(4) 0.6153(4)
H85_3 H 0.614073 0.297924 0.645430
C154_3 C 0.6368(3) 0.4667(4) 0.5319(4)
C155_3 C 0.6247(3) 0.0857(4) 0.7286(4)
C156_3 C 0.6000(3) 0.1230(4) 0.7557(4)
H86_3 H 0.591856 0.164771 0.741012
C157_3 C 0.5877(3) 0.0975(4) 0.8043(4)
H87_3 H 0.571804 0.122970 0.822076
C158_3 C 0.5986(3) 0.0354(4) 0.8271(4)
C160_3 C 0.6363(3) 0.0237(4) 0.7524(5)
C161_3 C 0.5837(3) 0.0019(4) 0.8757(4)
O1_3 O 0.02832(18) 0.1584(3) 0.6687(3)
O2_3 O 0.0478(2) 0.2127(4) 0.7607(4)
O18_3 O 0.09169(18) 0.0545(3) 0.7042(3)
O19_3 O 0.16174(19) 0.0859(3) 0.5263(3)
O20_3 O 0.1427(3) 0.0419(5) 0.4297(4)
O32_3 O 0.56712(19) 0.0360(3) 0.9098(3)
O34_3 O 0.6606(2) 0.4904(3) 0.5076(4)
O37_3 O 0.11613(19) 0.1898(3) 0.7350(3)
O38_3 O 0.05391(18) 0.0876(3) 0.5742(3)
O39_3 O 0.13895(18) 0.1144(3) 0.6376(3)
O50 O 0.53471(18) 0.1030(3) 0.9983(3)
H98_3 H 0.106811 0.23577 0.730742
H99_3 H 0.146238 0.187908 0.740085
H18_3 H 0.056246 0.958323 0.014064
C49_3 C 0.0391(3) 0.7774(4) 0.0672(4)
H27_3 H 0.044133 0.776458 0.110398
C50_3 C 0.0343(3) 0.7200(4) 0.0345(4)
C53_3 C 0.0403(3) 0.6564(4) 0.0663(4)
C54_3 C 0.1473(3) 0.9190(4) 0.0624(4)
C55_3 C 0.1508(3) 0.8534(4) 0.0800(4)
H30_3 H 0.155387 0.841991 0.121733
C56_3 C 0.1475(3) 0.8051(4) 0.0346(4)
C59_3 C 0.1402(3) 0.9357(4) 0.0005(4)
C67_3 C 0.1477(3) 0.9719(5) 0.1088(4)
C72_3 C 0.1260(3) 0.9663(5) 0.1514(4)
H40_3 H 0.112616 0.927602 0.154338
C74_3 C 0.1485(3) 0.7353(4) 0.0513(4)
C75_3 C 0.1699(3) 0.7128(4) 0.1123(4)
H41_3 H 0.186311 0.741242 0.142184
C76_3 C 0.1665(3) 0.6481(4) 0.1282(4)
H42_3 H 0.180176 0.634150 0.169012
C77_3 C 0.1428(2) 0.6040(4) 0.0838(4)
C78_3 C 0.1239(3) 0.6263(4) 0.0230(4)
C79_3 C 0.1270(3) 0.6905(4) 0.0068(4)
C80_3 C 0.1383(3) 0.5348(4) 0.1007(4)
C108_3 C 0.5218(3) 0.5174(4) 0.1464(4)
H60_3 H 0.519253 0.556879 0.165023
C109_3 C 0.5397(3) 0.5164(4) 0.0987(4)
C110_3 C 0.5429(3) 0.4580(4) 0.0702(4)
H61_3 H 0.555248 0.456949 0.038741
C111_3 C 0.5278(3) 0.4003(4) 0.0880(4)
C112_3 C 0.5102(3) 0.4028(4) 0.1363(4)
H62_3 H 0.499985 0.364808 0.148280
C113_3 C 0.5074(3) 0.4610(4) 0.1672(4)
C114_3 C 0.5562(3) 0.5781(4) 0.0817(4)
C115_3 C 0.5666(3) 0.6291(4) 0.1240(5)
H63_3 H 0.566485 0.622836 0.164907
C116_3 C 0.5775(4) 0.6904(4) 0.1059(5)
H64_3 H 0.583357 0.724593 0.134449
C117_3 C 0.5795(3) 0.6997(4) 0.0464(4)
C118_3 C 0.5707(3) 0.6477(4) 0.0039(4)
C119_3 C 0.5601(3) 0.5870(4) 0.0218(4)
C120_3 C 0.5865(3) 0.7663(4) 0.0246(4)
C121_3 C 0.4926(3) 0.4613(4) 0.2220(4)
C122_3 C 0.4731(3) 0.4075(4) 0.2382(4)
H67_3 H 0.467367 0.371456 0.211831
C123_3 C 0.4621(3) 0.4065(4) 0.2923(4)
H68_3 H 0.448838 0.370264 0.301674
C124_3 C 0.4707(3) 0.4587(4) 0.3323(4)
C125_3 C 0.4904(3) 0.5136(4) 0.3181(4)
H69_3 H 0.496327 0.549035 0.345232
C126_3 C 0.5008(3) 0.5147(4) 0.2638(4)
H70_3 H 0.513564 0.551480 0.254265
C127_3 C 0.4569(3) 0.4582(4) 0.3893(4)
C128_3 C 0.5300(3) 0.3378(4) 0.0565(4)
C129_3 C 0.5265(3) 0.2780(4) 0.0853(4)
H71_3 H 0.522784 0.278223 0.124526
C130_3 C 0.5286(3) 0.2190(4) 0.0567(4)
H72_3 H 0.526007 0.180321 0.076588
C162_3 C 0.0367(3) 0.8367(4) 0.0370(4)
H90_3 H 0.039070 0.875152 0.059584
O10_3 O 0.0535(2) 0.6563(3) 0.1278(3)
O13_3 O 0.1617(2) 0.5103(3) 0.1489(3)
O28_3 O 0.6003(2) 0.8080(3) 0.0685(3)
O30_2 O 0.42591(18) 0.4244(3) 0.3844(3)
O40_3 O 0.6607(2) 0.9021(3) 0.1263(3)
O53_2 O 0.57409(18) 0.9244(3) 0.1156(3)
H94_3 H 0.656239 0.887015 0.165642
H95_3 H 0.672807 0.946453 0.132711
Ni1_3 Ni 0.58074(3) 0.86033(5) 0.92222(5)
C30_3 C 0.0086(3) 0.9618(4) 0.8396(4)
C31_3 C 0.0117(3) 0.9042(4) 0.8737(4)
H17_3 H 0.002056 0.865926 0.851882
C32_3 C 0.0286(3) 0.9018(4) 0.9387(4)
C33_3 C 0.0437(3) 0.9593(4) 0.9707(4)
C48_3 C 0.0308(2) 0.8382(4) 0.9724(4)
C51_3 C 0.0279(3) 0.7212(4) 0.9701(4)
H28_3 H 0.024723 0.682566 0.947531
C52_3 C 0.0262(3) 0.7793(4) 0.9401(4)
H29_3 H 0.022018 0.779657 0.897077
C57_3 C 0.1408(3) 0.8238(4) 0.9717(4)
H31_3 H 0.138975 0.791994 0.941532
C58_3 C 0.1370(3) 0.8884(4) 0.9540(4)
H32_3 H 0.137448 0.979339 0.989202
C60_3 C 0.1268(3) 0.9107(4) 0.8877(4)
C61_3 C 0.1402(3) 0.9709(5) 0.8739(5)
H33_3 H 0.158027 0.995277 0.906395
C62_3 C 0.1281(3) 0.9954(4) 0.8144(5)
C63_3 C 0.1024(3) 0.9607(4) 0.7645(4)
C64_3 C 0.0903(3) 0.8979(4) 0.7763(4)
H35_3 H 0.074002 0.872578 0.743317
C65_3 C 0.1026(3) 0.8740(4) 0.8369(4)
H36_3 H 0.094532 0.832380 0.844091
C66_3 C 0.0861(3) 0.9948(4) 0.7023(4)
H43_3 H 0.108676 0.597399 0.992380
H44_3 H 0.114390 0.703681 0.965430
C81_3 C 0.2912(3) 0.7203(5) 0.5873(5)
C82_3 C 0.3324(3) 0.7299(5) 0.6242(5)
H45_3 H 0.349066 0.693742 0.639368
C83_3 C 0.3496(3) 0.7914(5) 0.6392(5)
C84_3 C 0.3249(3) 0.8456(5) 0.6150(5)
H46_3 H 0.335996 0.887157 0.624040
C85_3 C 0.2830(3) 0.8375(5) 0.5769(5)
C86_3 C 0.2674(3) 0.7746(5) 0.5636(5)
H47_3 H 0.240023 0.768972 0.538006
C87_3 C 0.2750(3) 0.6534(5) 0.5721(6)
C88_3 C 0.2493(3) 0.6384(5) 0.5136(6)
H48_3 H 0.238452 0.671009 0.484256
C89_3 C 0.2392(4) 0.5738(6) 0.4980(6)
H49_3 H 0.221925 0.563335 0.457824
C90_3 C 0.2547(4) 0.5248(6) 0.5415(7)
C91_3 C 0.2785(3) 0.5412(6) 0.6009(6)
H50_3 H 0.287796 0.508976 0.631207
C92_3 C 0.2888(4) 0.6043(5) 0.6163(6)
H51_3 H 0.305309 0.614731 0.656978
C93_3 C 0.2457(5) 0.4546(7) 0.5245(8)
C94_3 C 0.2566(3) 0.8945(5) 0.5509(5)
C95_3 C 0.2586(3) 0.9507(6) 0.5869(5)
H52_3 H 0.278928 0.954096 0.625980
C97_3 C 0.2006(3) 0.9964(5) 0.5072(5)
C98_3 C 0.1992(3) 0.9434(5) 0.4692(5)
H54_3 H 0.179678 0.941597 0.429188
C99_3 C 0.2270(3) 0.8925(5) 0.4910(5)
H55_3 H 0.225849 0.856685 0.465319
C101_3 C 0.3931(3) 0.7991(5) 0.6805(4)
C102_3 C 0.4245(3) 0.7632(5) 0.6677(5)
H56_3 H 0.417762 0.736083 0.632777
C103_3 C 0.4654(3) 0.7675(4) 0.7066(4)
H57_3 H 0.486012 0.745016 0.696153
C104_3 C 0.4761(3) 0.8054(4) 0.7614(4)
C105_3 C 0.4442(3) 0.8403(5) 0.7745(5)
H58_3 H 0.450561 0.865461 0.810780
C106_3 C 0.4034(3) 0.8380(5) 0.7341(5)
H59_3 H 0.382911 0.862390 0.742979
C107_3 C 0.5196(3) 0.8104(5) 0.8036(4)
H65_3 H 0.571919 0.653738 0.963497
H66_3 H 0.555646 0.552214 0.993994
C131_3 C 0.5345(3) 0.2178(4) 0.9987(4)
C132_3 C 0.5372(3) 0.2762(4) 0.9688(4)
H73_3 H 0.540392 0.275589 0.929245
C133_3 C 0.5352(3) 0.3343(4) 0.9971(4)
H74_3 H 0.537350 0.372589 0.976359
C134_3 C 0.5402(3) 0.1538(4) 0.9720(4)
C143_3 C 0.6249(3) 0.9826(5) 0.4242(5)
H79_3 H 0.610245 0.986133 0.381556
C144_3 C 0.6452(3) 0.9249(5) 0.4479(5)
C145_3 C 0.6679(4) 0.9209(5) 0.5108(5)
H80_3 H 0.681480 0.882304 0.526477
C146_3 C 0.6710(3) 0.9728(5) 0.5514(5)
H81_3 H 0.687511 0.969517 0.593292
C147_3 C 0.6386(3) 0.8679(5) 0.4057(5)
C159_3 C 0.6232(3) 0.9986(4) 0.8001(5)
H88_3 H 0.630885 0.956632 0.814484
H89_3 H 0.653106 0.998662 0.736024
O17_3 O 0.06840(19) 0.9627(3) 0.6518(3)
O21_3 O 0.52623(18) 0.8394(3) 0.8553(3)
O22_3 O 0.5475(2) 0.7864(5) 0.7844(4)
O23_3 O 0.2597(4) 0.4103(5) 0.5607(6)
O24_2 O 0.2210(4) 0.4460(5) 0.4698(6)
O26_3 O 0.5515(2) 0.1544(3) 0.9220(3)
O27_3 O 0.5788(2) 0.7766(3) 0.9677(3)
O31_3 O 0.58820(19) 0.9424(3) 0.8786(3)
O35_3 O 0.6226(3) 0.8740(4) 0.3478(4)
O36_3 O 0.6491(3) 0.8111(4) 0.4322(4)
O41_3 O 0.55275(18) 0.9102(3) 0.9764(3)
O42_3 O 0.6157(2) 0.8073(3) 0.8760(3)
O43_3 O 0.63723(19) 0.8867(3) 0.9913(3)
H96_2 H 0.194076 0.467423 0.465719
H97_3 H 0.679216 0.811034 0.456514
H100_3 H 0.606682 0.761184 0.871944
H101_3 H 0.645676 0.809884 0.900828
C1_3 C 0.8499(3) 0.1655(5) 0.7085(5)
C2_3 C 0.8326(3) 0.1039(5) 0.7038(5)
H1_3 H 0.848366 0.068422 0.699490
C3_3 C 0.7920(3) 0.0931(5) 0.7051(5)
C4_3 C 0.7693(3) 0.1486(5) 0.7109(5)
H2_3 H 0.742587 0.143227 0.712975
C5_3 C 0.7853(3) 0.2111(5) 0.7136(5)
C6_3 C 0.8270(3) 0.2188(5) 0.7152(5)
H3_3 H 0.839072 0.259907 0.720730
C7_3 C 0.8935(3) 0.1751(5) 0.7091(5)
C8_3 C 0.9218(3) 0.2150(5) 0.7534(5)
H4_3 H 0.912914 0.238324 0.782198
C9_3 C 0.9627(3) 0.2201(5) 0.7548(5)
H5_3 H 0.981334 0.245653 0.785244
C10_3 C 0.9760(3) 0.1870(4) 0.7105(4)
C11_3 C 0.9470(3) 0.1502(5) 0.6648(4)
H6_3 H 0.955163 0.129712 0.633748
C12_3 C 0.9065(3) 0.1437(5) 0.6644(5)
H7_3 H 0.887972 0.118037 0.634024
C14_3 C 0.7752(3) 0.0278(5) 0.7025(5)
C15_3 C 0.7495(3) 0.0106(6) 0.7377(6)
H8_3 H 0.742856 0.041060 0.763480
C21_3 C 0.7610(3) 0.2693(5) 0.7159(5)
C22_3 C 0.7339(3) 0.2736(5) 0.7505(5)
H12_3 H 0.730256 0.237611 0.773251
C23_3 C 0.7122(3) 0.3302(5) 0.7522(5)
H13_3 H 0.694874 0.332627 0.776890
C24_3 C 0.7164(3) 0.3826(5) 0.7171(5)
C25_3 C 0.7422(3) 0.3802(6) 0.6798(6)
H14_3 H 0.744318 0.415681 0.655449
C26_3 C 0.7645(3) 0.3242(5) 0.6798(5)
H15_3 H 0.782219 0.322485 0.655618
C27_3 C 0.6930(3) 0.4442(5) 0.7156(5)
C45_3 C 0.9945(3) 0.0122(4) 0.6736(4)
O5_3 O 0.6675(2) 0.4439(4) 0.7491(4)
O6_3 O 0.6972(3) 0.4908(4) 0.6846(4)
H92_3 H 0.646381 0.409241 0.73339
C16_3 C 0.7340(4) 0.9474(6) 0.7340(7)
H9_3 H 0.717873 0.935623 0.758838
C17_3 C 0.7422(4) 0.9021(6) 0.6939(6)
C18_3 C 0.7678(4) 0.9178(6) 0.6622(7)
H10_3 H 0.774269 0.886510 0.636957
C19_3 C 0.7851(4) 0.9793(6) 0.6655(6)
H11_3 H 0.803264 0.988455 0.643183
C20_3 C 0.7215(4) 0.8355(8) 0.6828(9)
C41_3 C 0.9937(3) 0.9623(4) 0.7705(4)
C42_3 C 0.9703(3) 0.9113(4) 0.7357(4)
H23_3 H 0.962118 0.877439 0.756515
C43_3 C 0.9592(3) 0.9101(4) 0.6716(4)
H24_3 H 0.943796 0.875442 0.649265
C44_3 C 0.9710(3) 0.9612(4) 0.6394(4)
C47_3 C 0.9579(3) 0.9593(4) 0.5698(4)
O3_3 O 0.7242(4) 0.7999(6) 0.6414(8)
O4_3 O 0.6983(4) 0.8240(6) 0.7192(7)
H93_3 H 0.715895 0.826167 0.764033
C1_4 C 0.1501(3) 0.6655(5) 0.7915(5)
C2_4 C 0.1674(3) 0.6039(5) 0.7962(5)
H1_4 H 0.151634 0.568422 0.800510
C3_4 C 0.2080(3) 0.5931(5) 0.7949(5)
C4_4 C 0.2307(3) 0.6486(5) 0.7891(5)
H2_4 H 0.257413 0.643227 0.787025
C5_4 C 0.2147(3) 0.7111(5) 0.7864(5)
C6_4 C 0.1730(3) 0.7188(5) 0.7848(5)
H3_4 H 0.160928 0.759907 0.779270
C7_4 C 0.1065(3) 0.6751(5) 0.7909(5)
C8_4 C 0.0782(3) 0.7150(5) 0.7466(5)
H4_4 H 0.087086 0.738324 0.717802
C9_4 C 0.0373(3) 0.7201(5) 0.7452(5)
H5_4 H 0.018666 0.745653 0.714756
C10_4 C 0.0240(3) 0.6870(4) 0.7895(4)
C11_4 C 0.0530(3) 0.6502(5) 0.8352(4)
H6_4 H 0.044837 0.629712 0.866252
C12_4 C 0.0935(3) 0.6437(5) 0.8356(5)
H7_4 H 0.112028 0.618037 0.865976
C14_4 C 0.2248(3) 0.5278(5) 0.7975(5)
C15_4 C 0.2505(3) 0.5106(6) 0.7623(6)
H8_4 H 0.257144 0.541060 0.736520
C16_4 C 0.2660(4) 0.4474(6) 0.7660(7)
H9_4 H 0.282127 0.435623 0.741162
C17_4 C 0.2578(4) 0.4021(6) 0.8061(6)
C18_4 C 0.2322(4) 0.4178(6) 0.8378(7)
H10_4 H 0.225731 0.386510 0.863043
C19_4 C 0.2149(4) 0.4793(6) 0.8345(6)
H11_4 H 0.196736 0.488455 0.856817
C20_4 C 0.2785(4) 0.3355(8) 0.8172(9)
C21_4 C 0.2390(3) 0.7693(5) 0.7841(5)
C22_4 C 0.2661(3) 0.7736(5) 0.7495(5)
H12_4 H 0.269744 0.737611 0.726749
C23_4 C 0.2878(3) 0.8302(5) 0.7478(5)
H13_4 H 0.305126 0.832627 0.723110
C24_4 C 0.2836(3) 0.8826(5) 0.7829(5)
C25_4 C 0.2578(3) 0.8802(6) 0.8202(6)
H14_4 H 0.255682 0.915681 0.844551
C26_4 C 0.2355(3) 0.8242(5) 0.8202(5)
H15_4 H 0.217781 0.822485 0.844382
C27_4 C 0.3070(3) 0.9442(5) 0.7844(5)
C41_4 C 0.0063(3) 0.4623(4) 0.7295(4)
C42_4 C 0.0297(3) 0.4113(4) 0.7643(4)
H23_4 H 0.037882 0.377439 0.743485
C43_4 C 0.0408(3) 0.4101(4) 0.8284(4)
H24_4 H 0.056204 0.375442 0.850735
C44_4 C 0.0290(3) 0.4612(4) 0.8606(4)
C45_4 C 0.0055(3) 0.5122(4) 0.8264(4)
C47_4 C 0.0421(3) 0.4593(4) 0.9302(4)
O3_4 O 0.2758(4) 0.2999(6) 0.8586(8)
O4_4 O 0.3017(4) 0.3240(6) 0.7808(7)
O5_4 O 0.3325(2) 0.9439(4) 0.7509(4)
O6_4 O 0.3028(3) 0.9908(4) 0.8154(4)
H92_4 H 0.353619 0.909241 0.76661
H93_4 H 0.284105 0.326167 0.735967
H48_4 H 0.761548 0.171009 0.015744
C89_4 C 0.7608(4) 0.0738(6) 0.0020(6)
H49_4 H 0.778075 0.063335 0.042176
C98_4 C 0.8008(3) 0.4434(5) 0.0308(5)
H54_4 H 0.820322 0.441597 0.070812
C99_4 C 0.7730(3) 0.3925(5) 0.0090(5)
H55_4 H 0.774151 0.356685 0.034681
C100_4 C 0.8322(3) 0.5467(5) 0.0110(5)
C142_4 C 0.3735(3) 0.5359(5) 0.0357(5)
H78_4 H 0.387182 0.574299 0.051727
C143_4 C 0.3751(3) 0.4826(5) 0.0758(5)
H79_4 H 0.389755 0.486133 0.118444
C144_4 C 0.3548(3) 0.4249(5) 0.0521(5)
C147_4 C 0.3614(3) 0.3679(5) 0.0943(5)
H83_4 H 0.325927 0.867645 0.001488
O20_4 O 0.8573(3) 0.5419(5) 0.0703(4)
O35_4 O 0.3774(3) 0.3740(4) 0.1522(4)
O36_4 O 0.3509(3) 0.3111(4) 0.0678(4)
H97_4 H 0.320784 0.311034 0.0434863
Ni1_4 Ni 0.41926(3) 0.36033(5) 0.57778(5)
C13_4 C 0.9795(3) 0.6869(4) 0.7871(4)
C28_4 C 0.9596(3) 0.5182(4) 0.5611(4)
C29_4 C 0.9782(3) 0.5192(4) 0.6255(4)
H16_4 H 0.982100 0.558829 0.646405
C30_4 C 0.9914(3) 0.4618(4) 0.6604(4)
C31_4 C 0.9883(3) 0.4042(4) 0.6263(4)
H17_4 H 0.997944 0.365926 0.648118
C32_4 C 0.9714(3) 0.4018(4) 0.5613(4)
C33_4 C 0.9563(3) 0.4593(4) 0.5293(4)
H18_4 H 0.943754 0.458323 0.485936
C34_4 C 0.9438(3) 0.5798(4) 0.5277(4)
C35_4 C 0.9327(4) 0.6310(4) 0.5610(5)
H19_4 H 0.932600 0.623924 0.601877
C36_4 C 0.9219(3) 0.6918(4) 0.5336(5)
H20_4 H 0.915810 0.725612 0.556632
C37_4 C 0.9203(3) 0.7019(4) 0.4713(4)
C38_4 C 0.9295(2) 0.6502(4) 0.4373(4)
H21_4 H 0.928225 0.656379 0.395700
C39_4 C 0.9405(3) 0.5901(4) 0.4651(4)
H22_4 H 0.945821 0.556056 0.441577
C40_4 C 0.9123(3) 0.7676(4) 0.4437(4)
H25_4 H 0.997037 0.545707 0.847226
C46_4 C 0.9947(3) 0.5134(4) 0.7616(4)
H26_4 H 0.979647 0.548195 0.739157
C48_4 C 0.9692(2) 0.3382(4) 0.5276(4)
C49_4 C 0.9609(3) 0.2774(4) 0.4328(4)
H27_4 H 0.955867 0.276458 0.389602
C50_4 C 0.9657(3) 0.2200(4) 0.4655(4)
C51_4 C 0.9721(3) 0.2212(4) 0.5299(4)
H28_4 H 0.975277 0.182566 0.552469
C52_4 C 0.9738(3) 0.2793(4) 0.5599(4)
H29_4 H 0.977982 0.279657 0.602923
C53_4 C 0.9597(3) 0.1564(4) 0.4337(4)
C54_4 C 0.8527(3) 0.4190(4) 0.4376(4)
C55_4 C 0.8492(3) 0.3534(4) 0.4200(4)
H30_4 H 0.844613 0.341991 0.378267
C56_4 C 0.8525(3) 0.3051(4) 0.4654(4)
C57_4 C 0.8592(3) 0.3238(4) 0.5283(4)
H31_4 H 0.861025 0.291994 0.558468
C58_4 C 0.8630(3) 0.3884(4) 0.5460(4)
C59_4 C 0.8598(3) 0.4357(4) 0.4995(4)
H32_4 H 0.862552 0.479339 0.510798
C60_4 C 0.8732(3) 0.4107(4) 0.6123(4)
C61_4 C 0.8598(3) 0.4709(5) 0.6261(5)
H33_4 H 0.841973 0.495277 0.593605
C62_4 C 0.8719(3) 0.4954(4) 0.6856(5)
H34_4 H 0.862583 0.536240 0.692683
C63_4 C 0.8976(3) 0.4607(4) 0.7355(4)
C64_4 C 0.9097(3) 0.3979(4) 0.7237(4)
H35_4 H 0.925998 0.372578 0.756683
C65_4 C 0.8974(3) 0.3740(4) 0.6631(4)
H36_4 H 0.905468 0.332380 0.655909
C66_4 C 0.9139(3) 0.4948(4) 0.7977(4)
C67_4 C 0.8523(3) 0.4719(5) 0.3912(4)
C68_4 C 0.8309(3) 0.5301(5) 0.3944(5)
H37_4 H 0.815701 0.533491 0.421983
C69_4 C 0.8329(3) 0.5825(5) 0.3557(5)
H38_4 H 0.819205 0.621047 0.357989
C70_4 C 0.8551(3) 0.5769(5) 0.3140(4)
C71_4 C 0.8756(3) 0.5186(5) 0.3101(5)
H39_4 H 0.890281 0.514933 0.281760
C72_4 C 0.8740(3) 0.4663(5) 0.3486(4)
H40_4 H 0.887384 0.427602 0.345662
C73_4 C 0.8595(3) 0.6334(5) 0.2746(5)
C74_4 C 0.8515(3) 0.2353(4) 0.4487(4)
C75_4 C 0.8301(3) 0.2128(4) 0.3877(4)
H41_4 H 0.813689 0.241242 0.357816
C76_4 C 0.8335(3) 0.1481(4) 0.3718(4)
H42_4 H 0.819824 0.134150 0.330988
C77_4 C 0.8572(2) 0.1040(4) 0.4162(4)
C78_4 C 0.8761(3) 0.1263(4) 0.4770(4)
H43_4 H 0.891324 0.097399 0.507620
C79_4 C 0.8730(3) 0.1905(4) 0.4932(4)
H44_4 H 0.885610 0.203681 0.534570
C80_4 C 0.8617(3) 0.0348(4) 0.3993(4)
C81_4 C 0.7088(3) 0.2203(5) 0.9127(5)
C82_4 C 0.6676(3) 0.2299(5) 0.8758(5)
H45_4 H 0.650934 0.193742 0.860632
C83_4 C 0.6504(3) 0.2914(5) 0.8608(5)
C84_4 C 0.6751(3) 0.3456(5) 0.8850(5)
H46_4 H 0.664004 0.387157 0.875960
C85_4 C 0.7170(3) 0.3375(5) 0.9231(5)
C86_4 C 0.7326(3) 0.2746(5) 0.9364(5)
H47_4 H 0.759977 0.268972 0.961994
C87_4 C 0.7250(3) 0.1534(5) 0.9279(6)
C88_4 C 0.7507(3) 0.1384(5) 0.9864(6)
C90_4 C 0.7453(4) 0.0248(6) 0.9585(7)
C91_4 C 0.7215(3) 0.0412(6) 0.8991(6)
H50_4 H 0.712204 0.008976 0.868793
C92_4 C 0.7112(4) 0.1043(5) 0.8837(6)
H51_4 H 0.694691 0.114731 0.843022
C94_4 C 0.7434(3) 0.3945(5) 0.9491(5)
C95_4 C 0.7414(3) 0.4507(6) 0.9131(5)
H52_4 H 0.721072 0.454096 0.874020
C96_4 C 0.7694(3) 0.5017(5) 0.9348(5)
H53_4 H 0.767792 0.538694 0.910353
C97_4 C 0.7994(3) 0.4964(5) 0.9928(5)
C101_4 C 0.6069(3) 0.2991(5) 0.8195(4)
C102_4 C 0.5755(3) 0.2632(5) 0.8323(5)
H56_4 H 0.582238 0.236083 0.867223
C103_4 C 0.5346(3) 0.2675(4) 0.7934(4)
H57_4 H 0.513988 0.245016 0.803847
C104_4 C 0.5239(3) 0.3054(4) 0.7386(4)
C105_4 C 0.5558(3) 0.3403(5) 0.7255(5)
H58_4 H 0.549439 0.365461 0.689220
C106_4 C 0.5966(3) 0.3380(5) 0.7659(5)
H59_4 H 0.617089 0.362390 0.757021
C107_4 C 0.4804(3) 0.3104(5) 0.6964(4)
C108_4 C 0.4782(3) 0.0174(4) 0.3536(4)
H60_4 H 0.480747 0.056879 0.334977
C109_4 C 0.4603(3) 0.0164(4) 0.4013(4)
C114_4 C 0.4438(3) 0.0781(4) 0.4183(4)
C115_4 C 0.4334(3) 0.1291(4) 0.3760(5)
H63_4 H 0.433515 0.122836 0.335093
C116_4 C 0.4225(4) 0.1904(4) 0.3941(5)
H64_4 H 0.416643 0.224593 0.365551
C117_4 C 0.4205(3) 0.1997(4) 0.4536(4)
C118_4 C 0.4293(3) 0.1477(4) 0.4961(4)
H65_4 H 0.428081 0.153738 0.536503
C119_4 C 0.4399(3) 0.0870(4) 0.4782(4)
H66_4 H 0.444354 0.052214 0.506006
C120_4 C 0.4135(3) 0.2663(4) 0.4754(4)
C125_4 C 0.5096(3) 0.0136(4) 0.1819(4)
H69_4 H 0.503673 0.049035 0.154768
C126_4 C 0.4992(3) 0.0147(4) 0.2362(4)
H70_4 H 0.486436 0.051480 0.245735
C135_4 C 0.3526(3) 0.5821(4) 0.9257(4)
C136_4 C 0.3506(3) 0.6484(4) 0.9382(5)
H75_4 H 0.346855 0.661401 0.975659
C137_4 C 0.3540(3) 0.6954(4) 0.8949(4)
C138_4 C 0.3604(3) 0.6749(4) 0.8398(4)
H76_4 H 0.362444 0.705810 0.810724
C139_4 C 0.3639(3) 0.6089(4) 0.8267(4)
C140_4 C 0.3588(3) 0.5635(4) 0.8700(5)
H77_4 H 0.359684 0.519486 0.861155
C141_4 C 0.3511(3) 0.5305(4) 0.9712(5)
C145_4 C 0.3321(4) 0.4209(5) 0.9892(5)
H80_4 H 0.318520 0.382304 0.973523
C146_4 C 0.3290(3) 0.4728(5) 0.9486(5)
H81_4 H 0.312489 0.469517 0.906708
C148_4 C 0.3533(3) 0.7658(4) 0.9113(4)
C149_4 C 0.3362(3) 0.7883(4) 0.9556(5)
H82_4 H 0.322863 0.759185 0.974310
C150_4 C 0.3386(3) 0.8533(4) 0.9728(5)
C151_4 C 0.3597(3) 0.8963(4) 0.9475(4)
C152_4 C 0.3773(3) 0.8754(4) 0.9034(4)
H84_4 H 0.391453 0.904850 0.886218
C153_4 C 0.3742(3) 0.8114(4) 0.8847(4)
H85_4 H 0.385927 0.797924 0.854570
C154_4 C 0.3632(3) 0.9667(4) 0.9681(4)
C155_4 C 0.3753(3) 0.5857(4) 0.7714(4)
C156_4 C 0.4000(3) 0.6230(4) 0.7443(4)
H86_4 H 0.408144 0.664771 0.758988
C157_4 C 0.4123(3) 0.5975(4) 0.6957(4)
H87_4 H 0.428196 0.622970 0.677924
C158_4 C 0.4014(3) 0.5354(4) 0.6729(4)
C159_4 C 0.3768(3) 0.4986(4) 0.6999(5)
H88_4 H 0.369115 0.456632 0.685516
C160_4 C 0.3637(3) 0.5237(4) 0.7476(5)
H89_4 H 0.346894 0.498662 0.763976
C161_4 C 0.4163(3) 0.5019(4) 0.6243(4)
C162_4 C 0.9633(3) 0.3367(4) 0.4630(4)
H90_4 H 0.960930 0.375152 0.440416
O1_4 O 0.97168(18) 0.6584(3) 0.8313(3)
O2_4 O 0.9522(2) 0.7127(4) 0.7393(4)
O10_4 O 0.9465(2) 0.1563(3) 0.3722(3)
O13_4 O 0.8383(2) 0.0103(3) 0.3511(3)
O15_4 O 0.8469(2) 0.6887(3) 0.2833(4)
O16_4 O 0.8749(2) 0.6204(4) 0.2311(4)
O17_4 O 0.93160(19) 0.4627(3) 0.8482(3)
O18_4 O 0.90831(18) 0.5545(3) 0.7958(3)
O19_4 O 0.83826(19) 0.5859(3) 0.9737(3)
O21_4 O 0.47377(18) 0.3394(3) 0.6447(3)
O22_4 O 0.4525(2) 0.2864(5) 0.7156(4)
O27_4 O 0.4212(2) 0.2766(3) 0.5323(3)
O28_4 O 0.3997(2) 0.3080(3) 0.4315(3)
O31_4 O 0.41180(19) 0.4424(3) 0.6214(3)
O32_4 O 0.43288(19) 0.5360(3) 0.5902(3)
O34_4 O 0.3394(2) 0.9904(3) 0.9924(4)
O37_4 O 0.88387(19) 0.6898(3) 0.7650(3)
O38_4 O 0.94609(18) 0.5876(3) 0.9258(3)
O39_4 O 0.86105(18) 0.6144(3) 0.8624(3)
O40_4 O 0.3393(2) 0.4021(3) 0.3737(3)
O41_4 O 0.44725(18) 0.4102(3) 0.5236(3)
O42_4 O 0.3843(2) 0.3073(3) 0.6240(3)
O43_4 O 0.36277(19) 0.3867(3) 0.5087(3)
O50_2 O 0.46529(18) 0.6030(3) 0.5017(3)
H91_4 H 0.90321 0.602013 0.249939
H94_4 H 0.343761 0.387015 0.334358
H95_4 H 0.327193 0.446453 0.367289
H98_4 H 0.893189 0.73577 0.769258
H99_4 H 0.853762 0.687908 0.759915
H100_4 H 0.393318 0.261184 0.628056
H101_4 H 0.354324 0.309884 0.599172
C93_4 C 0.7543(5) 0.9546(7) 0.9755(8)
C110_4 C 0.4571(3) 0.9580(4) 0.4298(4)
H61_4 H 0.444752 0.956949 0.461259
C111_4 C 0.4722(3) 0.9003(4) 0.4120(4)
C112_4 C 0.4898(3) 0.9028(4) 0.3637(4)
H62_4 H 0.500015 0.864808 0.351720
C113_4 C 0.4926(3) 0.9610(4) 0.3328(4)
C121_4 C 0.5074(3) 0.9613(4) 0.2780(4)
C122_4 C 0.5269(3) 0.9075(4) 0.2618(4)
H67_4 H 0.532633 0.871456 0.288169
C123_4 C 0.5379(3) 0.9065(4) 0.2077(4)
H68_4 H 0.551162 0.870264 0.198326
C124_4 C 0.5293(3) 0.9587(4) 0.1677(4)
C127_4 C 0.5431(3) 0.9582(4) 0.1107(4)
C128_4 C 0.4700(3) 0.8378(4) 0.4435(4)
C129_4 C 0.4735(3) 0.7780(4) 0.4147(4)
H71_4 H 0.477216 0.778223 0.375474
C130_4 C 0.4714(3) 0.7190(4) 0.4433(4)
H72_4 H 0.473993 0.680321 0.423412
C131_4 C 0.4655(3) 0.7178(4) 0.5013(4)
C132_4 C 0.4628(3) 0.7762(4) 0.5312(4)
H73_4 H 0.459608 0.775589 0.570755
C133_4 C 0.4648(3) 0.8343(4) 0.5029(4)
H74_4 H 0.462650 0.872589 0.523641
C134_4 C 0.4598(3) 0.6538(4) 0.5280(4)
O23_4 O 0.7403(4) 0.9103(5) 0.9393(6)
O26_4 O 0.4485(2) 0.6544(3) 0.5780(3)
O24_3 O 0.2210(4) 0.0540(5) 0.9698(6)
H96_3 H 0.194076 0.0325772 0.965719
O24_4 O 0.7790(4) 0.9460(5) 0.0302(6)
H96_4 H 0.805924 0.967423 0.0342808
loop_
_geom_bond_atom_site_label_1
_geom_bond_atom_site_label_2
_geom_bond_site_symmetry_1
_geom_bond_site_symmetry_2
H9 C16 1_555 1_555
C17 C16 1_555 1_555
C18 C17 1_555 1_555
H10 C18 1_555 1_555
H11 C19 1_555 1_555
C20 C17 1_555 1_555
C42 C41 1_555 1_555
H23 C42 1_555 1_555
C43 C42 1_555 1_555
H24 C43 1_555 1_555
C44 C43 1_555 1_555
C47 C44 1_555 1_555
O3 C20 1_555 1_555
O4 C20 1_555 1_555
O7 C47 1_555 1_555
O8 C47 1_555 1_555
Ni14 O7 1_555 1_555
C18 C19 1_555 1_555
O4 H93 1_555 1_555
C1 C2 1_555 1_555
C2 H1 1_555 1_555
C3 C2 1_555 1_555
C4 C3 1_555 1_555
H2 C4 1_555 1_555
C5 C4 1_555 1_555
C6 C1 1_555 1_555
H3 C6 1_555 1_555
C7 C1 1_555 1_555
C8 C7 1_555 1_555
H4 C8 1_555 1_555
C9 C8 1_555 1_555
H5 C9 1_555 1_555
C10 C9 1_555 1_555
C11 C10 1_555 1_555
H6 C11 1_555 1_555
C12 C7 1_555 1_555
H7 C12 1_555 1_555
C14 C3 1_555 1_555
C15 C14 1_555 1_555
H8 C15 1_555 1_555
C21 C5 1_555 1_555
C22 C21 1_555 1_555
H12 C22 1_555 1_555
C23 C22 1_555 1_555
H13 C23 1_555 1_555
C24 C23 1_555 1_555
C25 C24 1_555 1_555
H14 C25 1_555 1_555
C26 C21 1_555 1_555
H15 C26 1_555 1_555
C27 C24 1_555 1_555
O5 C27 1_555 1_555
O6 C27 1_555 1_555
C5 C6 1_555 1_555
C11 C12 1_555 1_555
C25 C26 1_555 1_555
O5 H92 1_555 1_555
Ni1 O21 1_555 1_555
C31 C30 1_555 1_555
H17 C31 1_555 1_555
C32 C31 1_555 1_555
C48 C32 1_555 1_555
H28 C51 1_555 1_555
C52 C48 1_555 1_555
H29 C52 1_555 1_555
H31 C57 1_555 1_555
C58 C57 1_555 1_555
C60 C58 1_555 1_555
C61 C60 1_555 1_555
H33 C61 1_555 1_555
C62 C61 1_555 1_555
C63 C62 1_555 1_555
C64 C63 1_555 1_555
H35 C64 1_555 1_555
C65 C60 1_555 1_555
H36 C65 1_555 1_555
C66 C63 1_555 1_555
C81 C82 1_555 1_555
C82 H45 1_555 1_555
C83 C82 1_555 1_555
C84 C83 1_555 1_555
H46 C84 1_555 1_555
C85 C84 1_555 1_555
C86 C81 1_555 1_555
H47 C86 1_555 1_555
C87 C81 1_555 1_555
C88 C87 1_555 1_555
H48 C88 1_555 1_555
C89 C88 1_555 1_555
H49 C89 1_555 1_555
C90 C89 1_555 1_555
C91 C90 1_555 1_555
H50 C91 1_555 1_555
C92 C87 1_555 1_555
H51 C92 1_555 1_555
C93 C90 1_555 1_555
C94 C85 1_555 1_555
C95 C94 1_555 1_555
H52 C95 1_555 1_555
C98 C97 1_555 1_555
H54 C98 1_555 1_555
C99 C94 1_555 1_555
H55 C99 1_555 1_555
C101 C83 1_555 1_555
C102 C101 1_555 1_555
H56 C102 1_555 1_555
C103 C102 1_555 1_555
H57 C103 1_555 1_555
C104 C103 1_555 1_555
C105 C104 1_555 1_555
H58 C105 1_555 1_555
C106 C101 1_555 1_555
H59 C106 1_555 1_555
C107 C104 1_555 1_555
C132 C131 1_555 1_555
H73 C132 1_555 1_555
H74 C133 1_555 1_555
C134 C131 1_555 1_555
H79 C143 1_555 1_555
C144 C143 1_555 1_555
C145 C144 1_555 1_555
H80 C145 1_555 1_555
H81 C146 1_555 1_555
C147 C144 1_555 1_555
H88 C159 1_555 1_555
O17 Ni3 1_555 1_555
O21 C107 1_555 1_555
O22 C107 1_555 1_555
O23 C93 1_555 1_555
O24 C93 1_555 1_555
O25 C134 1_555 1_555
O26 C134 1_555 1_555
O27 Ni1 1_555 1_555
O31 Ni1 1_555 1_555
O35 C147 1_555 1_555
O36 C147 1_555 1_555
O41 Ni1 1_555 1_555
O42 Ni1 1_555 1_555
O43 Ni1 1_555 1_555
Ni10 O25 1_555 1_555
O46 Ni3 1_555 1_555
O49 Ni3 1_555 1_555
C32 C33 1_555 1_555
C51 C52 1_555 1_555
C64 C65 1_555 1_555
C66 O17 1_555 1_555
C85 C86 1_555 1_555
C91 C92 1_555 1_555
C98 C99 1_555 1_555
C105 C106 1_555 1_555
C132 C133 1_555 1_555
C145 C146 1_555 1_555
O24 H96 1_555 1_555
O36 H97 1_555 1_555
O42 H100 1_555 1_555
O42 H101 1_555 1_555
Ni6 O28 1_555 1_555
C49 H27 1_555 1_555
C50 C49 1_555 1_555
C53 C50 1_555 1_555
C54 C55 1_555 1_555
C55 H30 1_555 1_555
C56 C55 1_555 1_555
C59 C54 1_555 1_555
C67 C54 1_555 1_555
C72 C67 1_555 1_555
H40 C72 1_555 1_555
C74 C56 1_555 1_555
C75 C74 1_555 1_555
H41 C75 1_555 1_555
C76 C75 1_555 1_555
H42 C76 1_555 1_555
C77 C76 1_555 1_555
C78 C77 1_555 1_555
C79 C74 1_555 1_555
C80 C77 1_555 1_555
C108 H60 1_555 1_555
C109 C108 1_555 1_555
C110 C109 1_555 1_555
H61 C110 1_555 1_555
C111 C110 1_555 1_555
C112 C111 1_555 1_555
H62 C112 1_555 1_555
C113 C108 1_555 1_555
C114 C109 1_555 1_555
C115 C114 1_555 1_555
H63 C115 1_555 1_555
C116 C115 1_555 1_555
H64 C116 1_555 1_555
C117 C116 1_555 1_555
C118 C117 1_555 1_555
C119 C114 1_555 1_555
C120 C117 1_555 1_555
C121 C113 1_555 1_555
C122 C121 1_555 1_555
H67 C122 1_555 1_555
C123 C122 1_555 1_555
H68 C123 1_555 1_555
C124 C123 1_555 1_555
C125 C124 1_555 1_555
H69 C125 1_555 1_555
C126 C121 1_555 1_555
H70 C126 1_555 1_555
C127 C124 1_555 1_555
C128 C111 1_555 1_555
C129 C128 1_555 1_555
H71 C129 1_555 1_555
C130 C129 1_555 1_555
H72 C130 1_555 1_555
H90 C162 1_555 1_555
O9 C53 1_555 1_555
O10 C53 1_555 1_555
O13 C80 1_555 1_555
O14 C80 1_555 1_555
O28 C120 1_555 1_555
O29 C127 1_555 1_555
O30 C127 1_555 1_555
O40 Ni6 1_555 1_555
Ni9 O9 1_555 1_555
Ni11 O29 1_555 1_555
Ni13 O29 1_555 1_555
Ni16 O14 1_555 1_555
Ni17 O30 1_555 1_555
O53 Ni6 1_555 1_555
C49 C162 1_555 1_555
C78 C79 1_555 1_555
C112 C113 1_555 1_555
C118 C119 1_555 1_555
C125 C126 1_555 1_555
O14 Ni9 1_555 1_555
O40 H94 1_555 1_555
O40 H95 1_555 1_555
Ni2 O1 1_555 1_555
Ni10 O32 1_555 1_555
Ni5 O19 1_555 1_555
C28 C29 1_555 1_555
C29 H16 1_555 1_555
C34 C28 1_555 1_555
C35 C34 1_555 1_555
H19 C35 1_555 1_555
C36 C35 1_555 1_555
H20 C36 1_555 1_555
H26 C46 1_555 1_555
H53 C96 1_555 1_555
C135 C136 1_555 1_555
C136 H75 1_555 1_555
C137 C136 1_555 1_555
C138 C137 1_555 1_555
H76 C138 1_555 1_555
C139 C138 1_555 1_555
C140 C135 1_555 1_555
H77 C140 1_555 1_555
C141 C135 1_555 1_555
C142 C141 1_555 1_555
H78 C142 1_555 1_555
C148 C137 1_555 1_555
C149 C148 1_555 1_555
H82 C149 1_555 1_555
C150 C149 1_555 1_555
H83 C150 1_555 1_555
C151 C150 1_555 1_555
C152 C151 1_555 1_555
H84 C152 1_555 1_555
C153 C148 1_555 1_555
H85 C153 1_555 1_555
C154 C151 1_555 1_555
C155 C139 1_555 1_555
C156 C155 1_555 1_555
H86 C156 1_555 1_555
C157 C156 1_555 1_555
H87 C157 1_555 1_555
C158 C157 1_555 1_555
C160 C155 1_555 1_555
C161 C158 1_555 1_555
O1 C13 1_555 1_555
O2 C13 1_555 1_555
O18 Ni2 1_555 1_555
O19 C100 1_555 1_555
O20 C100 1_555 1_555
O32 C161 1_555 1_555
O33 C154 1_555 1_555
O34 C154 1_555 1_555
O37 Ni2 1_555 1_555
O38 Ni2 1_555 1_555
O39 Ni2 1_555 1_555
Ni13 O33 1_555 1_555
Ni18 O33 1_555 1_555
O44 Ni5 1_555 1_555
O47 Ni5 1_555 1_555
O48 Ni2 1_555 1_555
O52 Ni10 1_555 1_555
Ni5 O38 1_555 1_555
Ni5 O39 1_555 1_555
C139 C140 1_555 1_555
C152 C153 1_555 1_555
O37 H98 1_555 1_555
O37 H99 1_555 1_555
C38 C37 1_555 1_555
H21 C38 1_555 1_555
H22 C39 1_555 1_555
C40 C37 1_555 1_555
H37 C68 1_555 1_555
C69 C68 1_555 1_555
H38 C69 1_555 1_555
C70 C69 1_555 1_555
C71 C70 1_555 1_555
H39 C71 1_555 1_555
C73 C70 1_555 1_555
O11 C40 1_555 1_555
O12 C40 1_555 1_555
O15 C73 1_555 1_555
O16 C73 1_555 1_555
Ni7 O12 1_555 1_555
Ni16 O11 1_555 1_555
C38 C39 1_555 1_555
O16 H91 1_555 1_555
H61_2 C110_2 1_555 1_555
C111_2 C110_2 1_555 1_555
C112_2 C111_2 1_555 1_555
H62_2 C112_2 1_555 1_555
C121_2 C113_2 1_555 1_555
C122_2 C121_2 1_555 1_555
H67_2 C122_2 1_555 1_555
C123_2 C122_2 1_555 1_555
H68_2 C123_2 1_555 1_555
C124_2 C123_2 1_555 1_555
C127_2 C124_2 1_555 1_555
C128_2 C111_2 1_555 1_555
C129_2 C128_2 1_555 1_555
H71_2 C129_2 1_555 1_555
C130_2 C129_2 1_555 1_555
H72_2 C130_2 1_555 1_555
C131_2 C130_2 1_555 1_555
C132_2 C131_2 1_555 1_555
H73_2 C132_2 1_555 1_555
C133_2 C128_2 1_555 1_555
H74_2 C133_2 1_555 1_555
C134_2 C131_2 1_555 1_555
O23_2 C93_2 1_555 1_555
O25_2 C134_2 1_555 1_555
O26_2 C134_2 1_555 1_555
O51 C127_2 1_555 1_555
O53 C127_2 1_555 1_555
Ni11 O25_2 1_555 1_555
Ni13_2 O51 1_555 1_555
C112_2 C113_2 1_555 1_555
C132_2 C133_2 1_555 1_555
Ni1_2 O21_2 1_555 1_555
Ni2_2 O1_2 1_555 1_555
Ni11 O32_2 1_555 1_555
Ni5_2 O19_2 1_555 1_555
Ni17 O28_2 1_555 1_555
C28_2 C29_2 1_555 1_555
C29_2 H16_2 1_555 1_555
C30_2 C29_2 1_555 1_555
C31_2 C30_2 1_555 1_555
H17_2 C31_2 1_555 1_555
C32_2 C31_2 1_555 1_555
C33_2 C28_2 1_555 1_555
H18_2 C33_2 1_555 1_555
C34_2 C28_2 1_555 1_555
C35_2 C34_2 1_555 1_555
H19_2 C35_2 1_555 1_555
C36_2 C35_2 1_555 1_555
H20_2 C36_2 1_555 1_555
C37_2 C36_2 1_555 1_555
C38_2 C37_2 1_555 1_555
H21_2 C38_2 1_555 1_555
C39_2 C34_2 1_555 1_555
H22_2 C39_2 1_555 1_555
C40_2 C37_2 1_555 1_555
H26_2 C46_2 1_555 1_555
C48_2 C32_2 1_555 1_555
C49_2 H27_2 1_555 1_555
C50_2 C49_2 1_555 1_555
C51_2 C50_2 1_555 1_555
H28_2 C51_2 1_555 1_555
C52_2 C48_2 1_555 1_555
H29_2 C52_2 1_555 1_555
C53_2 C50_2 1_555 1_555
C54_2 C55_2 1_555 1_555
C55_2 H30_2 1_555 1_555
C56_2 C55_2 1_555 1_555
C57_2 C56_2 1_555 1_555
H31_2 C57_2 1_555 1_555
C58_2 C57_2 1_555 1_555
C59_2 C54_2 1_555 1_555
H32_2 C59_2 1_555 1_555
C60_2 C58_2 1_555 1_555
C61_2 C60_2 1_555 1_555
H33_2 C61_2 1_555 1_555
C62_2 C61_2 1_555 1_555
H34_2 C62_2 1_555 1_555
C63_2 C62_2 1_555 1_555
C64_2 C63_2 1_555 1_555
H35_2 C64_2 1_555 1_555
C65_2 C60_2 1_555 1_555
H36_2 C65_2 1_555 1_555
C66_2 C63_2 1_555 1_555
C67_2 C54_2 1_555 1_555
C68_2 C67_2 1_555 1_555
H37_2 C68_2 1_555 1_555
C69_2 C68_2 1_555 1_555
H38_2 C69_2 1_555 1_555
C70_2 C69_2 1_555 1_555
C71_2 C70_2 1_555 1_555
H39_2 C71_2 1_555 1_555
C72_2 C67_2 1_555 1_555
H40_2 C72_2 1_555 1_555
C73_2 C70_2 1_555 1_555
C74_2 C56_2 1_555 1_555
C75_2 C74_2 1_555 1_555
H41_2 C75_2 1_555 1_555
C76_2 C75_2 1_555 1_555
H42_2 C76_2 1_555 1_555
C77_2 C76_2 1_555 1_555
C78_2 C77_2 1_555 1_555
H43_2 C78_2 1_555 1_555
C79_2 C74_2 1_555 1_555
H44_2 C79_2 1_555 1_555
C80_2 C77_2 1_555 1_555
C81_2 C82_2 1_555 1_555
C82_2 H45_2 1_555 1_555
C83_2 C82_2 1_555 1_555
C84_2 C83_2 1_555 1_555
H46_2 C84_2 1_555 1_555
C85_2 C84_2 1_555 1_555
C86_2 C81_2 1_555 1_555
H47_2 C86_2 1_555 1_555
C87_2 C81_2 1_555 1_555
C88_2 C87_2 1_555 1_555
C91_2 C90_2 1_555 1_555
H50_2 C91_2 1_555 1_555
C92_2 C87_2 1_555 1_555
H51_2 C92_2 1_555 1_555
C94_2 C85_2 1_555 1_555
C95_2 C94_2 1_555 1_555
H52_2 C95_2 1_555 1_555
C96_2 C95_2 1_555 1_555
H53_2 C96_2 1_555 1_555
C97_2 C96_2 1_555 1_555
C101_2 C83_2 1_555 1_555
C102_2 C101_2 1_555 1_555
H56_2 C102_2 1_555 1_555
C103_2 C102_2 1_555 1_555
H57_2 C103_2 1_555 1_555
C104_2 C103_2 1_555 1_555
C105_2 C104_2 1_555 1_555
H58_2 C105_2 1_555 1_555
C106_2 C101_2 1_555 1_555
H59_2 C106_2 1_555 1_555
C107_2 C104_2 1_555 1_555
C108_2 H60_2 1_555 1_555
C109_2 C108_2 1_555 1_555
C114_2 C109_2 1_555 1_555
C115_2 C114_2 1_555 1_555
H63_2 C115_2 1_555 1_555
C116_2 C115_2 1_555 1_555
H64_2 C116_2 1_555 1_555
C117_2 C116_2 1_555 1_555
C118_2 C117_2 1_555 1_555
H65_2 C118_2 1_555 1_555
C119_2 C114_2 1_555 1_555
H66_2 C119_2 1_555 1_555
C120_2 C117_2 1_555 1_555
H69_2 C125_2 1_555 1_555
H70_2 C126_2 1_555 1_555
C135_2 C136_2 1_555 1_555
C136_2 H75_2 1_555 1_555
C137_2 C136_2 1_555 1_555
C138_2 C137_2 1_555 1_555
H76_2 C138_2 1_555 1_555
C139_2 C138_2 1_555 1_555
C140_2 C135_2 1_555 1_555
H77_2 C140_2 1_555 1_555
C141_2 C135_2 1_555 1_555
H80_2 C145_2 1_555 1_555
C146_2 C141_2 1_555 1_555
H81_2 C146_2 1_555 1_555
C148_2 C137_2 1_555 1_555
C149_2 C148_2 1_555 1_555
H82_2 C149_2 1_555 1_555
C150_2 C149_2 1_555 1_555
C151_2 C150_2 1_555 1_555
C152_2 C151_2 1_555 1_555
H84_2 C152_2 1_555 1_555
C153_2 C148_2 1_555 1_555
H85_2 C153_2 1_555 1_555
C154_2 C151_2 1_555 1_555
C155_2 C139_2 1_555 1_555
C156_2 C155_2 1_555 1_555
H86_2 C156_2 1_555 1_555
C157_2 C156_2 1_555 1_555
H87_2 C157_2 1_555 1_555
C158_2 C157_2 1_555 1_555
C159_2 C158_2 1_555 1_555
H88_2 C159_2 1_555 1_555
C160_2 C155_2 1_555 1_555
H89_2 C160_2 1_555 1_555
C161_2 C158_2 1_555 1_555
C162_2 C48_2 1_555 1_555
H90_2 C162_2 1_555 1_555
O1_2 C13_2 1_555 1_555
O2_2 C13_2 1_555 1_555
O9_2 C53_2 1_555 1_555
O10_2 C53_2 1_555 1_555
O11_2 C40_2 1_555 1_555
O12_2 C40_2 1_555 1_555
O13_2 C80_2 1_555 1_555
O14_2 C80_2 1_555 1_555
O15_2 C73_2 1_555 1_555
O16_2 C73_2 1_555 1_555
O17_2 Ni3_2 1_555 1_555
O18_2 Ni2_2 1_555 1_555
O21_2 C107_2 1_555 1_555
O22_2 C107_2 1_555 1_555
O27_2 Ni1_2 1_555 1_555
O28_2 C120_2 1_555 1_555
O31_2 Ni1_2 1_555 1_555
O32_2 C161_2 1_555 1_555
O33_2 C154_2 1_555 1_555
O34_2 C154_2 1_555 1_555
O37_2 Ni2_2 1_555 1_555
O38_2 Ni2_2 1_555 1_555
O39_2 Ni2_2 1_555 1_555
O40_2 Ni17 1_555 1_555
O41_2 Ni1_2 1_555 1_555
O42_2 Ni1_2 1_555 1_555
O43_2 Ni1_2 1_555 1_555
Ni7_2 O12_2 1_555 1_555
Ni8 O9_2 1_555 1_555
Ni14 O11_2 1_555 1_555
O46_2 Ni3_2 1_555 1_555
O47_2 Ni5_2 1_555 1_555
O48_2 Ni2_2 1_555 1_555
O49_2 Ni3_2 1_555 1_555
O52_2 Ni11 1_555 1_555
O54_2 Ni11 1_555 1_555
Ni3_2 O38_2 1_555 1_555
Ni11 O41_2 1_555 1_555
Ni5_2 O38_2 1_555 1_555
Ni5_2 O39_2 1_555 1_555
Ni5_2 O49_2 1_555 1_555
Ni17 O41_2 1_555 1_555
Ni17 O43_2 1_555 1_555
Ni17 O54_2 1_555 1_555
C32_2 C33_2 1_555 1_555
C38_2 C39_2 1_555 1_555
C49_2 C162_2 1_555 1_555
C51_2 C52_2 1_555 1_555
C58_2 C59_2 1_555 1_555
C64_2 C65_2 1_555 1_555
C66_2 O17_2 1_555 1_555
C66_2 O18_2 1_555 1_555
C71_2 C72_2 1_555 1_555
C78_2 C79_2 1_555 1_555
C85_2 C86_2 1_555 1_555
C91_2 C92_2 1_555 1_555
C105_2 C106_2 1_555 1_555
C118_2 C119_2 1_555 1_555
C120_2 O27_2 1_555 1_555
C125_2 C126_2 1_555 1_555
C139_2 C140_2 1_555 1_555
C145_2 C146_2 1_555 1_555
C152_2 C153_2 1_555 1_555
C159_2 C160_2 1_555 1_555
C161_2 O31_2 1_555 1_555
O14_2 Ni8 1_555 1_555
O16_2 H91_2 1_555 1_555
O40_2 H94_2 1_555 1_555
O40_2 H95_2 1_555 1_555
O37_2 H98_2 1_555 1_555
O37_2 H99_2 1_555 1_555
O42_2 H100_2 1_555 1_555
O42_2 H101_2 1_555 1_555
H49_2 C89_2 1_555 1_555
H54_2 C98_2 1_555 1_555
H55_2 C99_2 1_555 1_555
H78_2 C142_2 1_555 1_555
C143_2 C142_2 1_555 1_555
H79_2 C143_2 1_555 1_555
C144_2 C143_2 1_555 1_555
C147_2 C144_2 1_555 1_555
O20_2 C100_2 1_555 1_555
O35_2 C147_2 1_555 1_555
O36_2 C147_2 1_555 1_555
C98_2 C99_2 1_555 1_555
O36_2 H97_2 1_555 1_555
C1_2 C2_2 1_555 1_555
C2_2 H1_2 1_555 1_555
C3_2 C2_2 1_555 1_555
C4_2 C3_2 1_555 1_555
H2_2 C4_2 1_555 1_555
C5_2 C4_2 1_555 1_555
C6_2 C1_2 1_555 1_555
H3_2 C6_2 1_555 1_555
C7_2 C1_2 1_555 1_555
C8_2 C7_2 1_555 1_555
H4_2 C8_2 1_555 1_555
C9_2 C8_2 1_555 1_555
H5_2 C9_2 1_555 1_555
C10_2 C9_2 1_555 1_555
C11_2 C10_2 1_555 1_555
H6_2 C11_2 1_555 1_555
C12_2 C7_2 1_555 1_555
H7_2 C12_2 1_555 1_555
C14_2 C3_2 1_555 1_555
C15_2 C14_2 1_555 1_555
H8_2 C15_2 1_555 1_555
C16_2 C15_2 1_555 1_555
H9_2 C16_2 1_555 1_555
C17_2 C16_2 1_555 1_555
C18_2 C17_2 1_555 1_555
H10_2 C18_2 1_555 1_555
C19_2 C14_2 1_555 1_555
H11_2 C19_2 1_555 1_555
C20_2 C17_2 1_555 1_555
C21_2 C5_2 1_555 1_555
C22_2 C21_2 1_555 1_555
H12_2 C22_2 1_555 1_555
C23_2 C22_2 1_555 1_555
H13_2 C23_2 1_555 1_555
C24_2 C23_2 1_555 1_555
C25_2 C24_2 1_555 1_555
H14_2 C25_2 1_555 1_555
C26_2 C21_2 1_555 1_555
H15_2 C26_2 1_555 1_555
C27_2 C24_2 1_555 1_555
C42_2 C41_2 1_555 1_555
H23_2 C42_2 1_555 1_555
C43_2 C42_2 1_555 1_555
H24_2 C43_2 1_555 1_555
C44_2 C43_2 1_555 1_555
C45_2 C44_2 1_555 1_555
C47_2 C44_2 1_555 1_555
O3_2 C20_2 1_555 1_555
O4_2 C20_2 1_555 1_555
O5_2 C27_2 1_555 1_555
O6_2 C27_2 1_555 1_555
O7_2 C47_2 1_555 1_555
O8_2 C47_2 1_555 1_555
C5_2 C6_2 1_555 1_555
C11_2 C12_2 1_555 1_555
C18_2 C19_2 1_555 1_555
C25_2 C26_2 1_555 1_555
O5_2 H92_2 1_555 1_555
O4_2 H93_2 1_555 1_555
C38_3 C37_3 1_555 1_555
H21_3 C38_3 1_555 1_555
H22_3 C39_3 1_555 1_555
C40_3 C37_3 1_555 1_555
H37_3 C68_3 1_555 1_555
C69_3 C68_3 1_555 1_555
H38_3 C69_3 1_555 1_555
C70_3 C69_3 1_555 1_555
C71_3 C70_3 1_555 1_555
H39_3 C71_3 1_555 1_555
C73_3 C70_3 1_555 1_555
O47_2 C40_3 1_555 1_555
O48_2 C40_3 1_555 1_555
O15_3 C73_3 1_555 1_555
O16_3 C73_3 1_555 1_555
C38_3 C39_3 1_555 1_555
O16_3 H91_3 1_555 1_555
Ni7_2 O1_3 1_555 1_555
Ni13_2 O32_3 1_555 1_555
Ni14 O19_3 1_555 1_555
C28_3 C29_3 1_555 1_555
C29_3 H16_3 1_555 1_555
C34_3 C28_3 1_555 1_555
C35_3 C34_3 1_555 1_555
H19_3 C35_3 1_555 1_555
C36_3 C35_3 1_555 1_555
H20_3 C36_3 1_555 1_555
H26_3 C46_3 1_555 1_555
H53_3 C96_3 1_555 1_555
C135_3 C136_3 1_555 1_555
C136_3 H75_3 1_555 1_555
C137_3 C136_3 1_555 1_555
C138_3 C137_3 1_555 1_555
H76_3 C138_3 1_555 1_555
C139_3 C138_3 1_555 1_555
C140_3 C135_3 1_555 1_555
H77_3 C140_3 1_555 1_555
C141_3 C135_3 1_555 1_555
C142_3 C141_3 1_555 1_555
H78_3 C142_3 1_555 1_555
C148_3 C137_3 1_555 1_555
C149_3 C148_3 1_555 1_555
H82_3 C149_3 1_555 1_555
C150_3 C149_3 1_555 1_555
H83_3 C150_3 1_555 1_555
C151_3 C150_3 1_555 1_555
C152_3 C151_3 1_555 1_555
H84_3 C152_3 1_555 1_555
C153_3 C148_3 1_555 1_555
H85_3 C153_3 1_555 1_555
C154_3 C151_3 1_555 1_555
C155_3 C139_3 1_555 1_555
C156_3 C155_3 1_555 1_555
H86_3 C156_3 1_555 1_555
C157_3 C156_3 1_555 1_555
H87_3 C157_3 1_555 1_555
C158_3 C157_3 1_555 1_555
C160_3 C155_3 1_555 1_555
C161_3 C158_3 1_555 1_555
O1_3 C13_3 1_555 1_555
O2_3 C13_3 1_555 1_555
O18_3 Ni7_2 1_555 1_555
O19_3 C100_3 1_555 1_555
O20_3 C100_3 1_555 1_555
O32_3 C161_3 1_555 1_555
O54_2 C154_3 1_555 1_555
O34_3 C154_3 1_555 1_555
O37_3 Ni7_2 1_555 1_555
O38_3 Ni7_2 1_555 1_555
O39_3 Ni7_2 1_555 1_555
O50 Ni13_2 1_555 1_555
Ni14 O38_3 1_555 1_555
Ni14 O39_3 1_555 1_555
C139_3 C140_3 1_555 1_555
C152_3 C153_3 1_555 1_555
O37_3 H98_3 1_555 1_555
O37_3 H99_3 1_555 1_555
Ni18_2 O28_3 1_555 1_555
C49_3 H27_3 1_555 1_555
C50_3 C49_3 1_555 1_555
C53_3 C50_3 1_555 1_555
C54_3 C55_3 1_555 1_555
C55_3 H30_3 1_555 1_555
C56_3 C55_3 1_555 1_555
C59_3 C54_3 1_555 1_555
C67_3 C54_3 1_555 1_555
C72_3 C67_3 1_555 1_555
H40_3 C72_3 1_555 1_555
C74_3 C56_3 1_555 1_555
C75_3 C74_3 1_555 1_555
H41_3 C75_3 1_555 1_555
C76_3 C75_3 1_555 1_555
H42_3 C76_3 1_555 1_555
C77_3 C76_3 1_555 1_555
C78_3 C77_3 1_555 1_555
C79_3 C74_3 1_555 1_555
C80_3 C77_3 1_555 1_555
C108_3 H60_3 1_555 1_555
C109_3 C108_3 1_555 1_555
C110_3 C109_3 1_555 1_555
H61_3 C110_3 1_555 1_555
C111_3 C110_3 1_555 1_555
C112_3 C111_3 1_555 1_555
H62_3 C112_3 1_555 1_555
C113_3 C108_3 1_555 1_555
C114_3 C109_3 1_555 1_555
C115_3 C114_3 1_555 1_555
H63_3 C115_3 1_555 1_555
C116_3 C115_3 1_555 1_555
H64_3 C116_3 1_555 1_555
C117_3 C116_3 1_555 1_555
C118_3 C117_3 1_555 1_555
C119_3 C114_3 1_555 1_555
C120_3 C117_3 1_555 1_555
C121_3 C113_3 1_555 1_555
C122_3 C121_3 1_555 1_555
H67_3 C122_3 1_555 1_555
C123_3 C122_3 1_555 1_555
H68_3 C123_3 1_555 1_555
C124_3 C123_3 1_555 1_555
C125_3 C124_3 1_555 1_555
H69_3 C125_3 1_555 1_555
C126_3 C121_3 1_555 1_555
H70_3 C126_3 1_555 1_555
C127_3 C124_3 1_555 1_555
C128_3 C111_3 1_555 1_555
C129_3 C128_3 1_555 1_555
H71_3 C129_3 1_555 1_555
C130_3 C129_3 1_555 1_555
H72_3 C130_3 1_555 1_555
H90_3 C162_3 1_555 1_555
O46_2 C53_3 1_555 1_555
O10_3 C53_3 1_555 1_555
O13_3 C80_3 1_555 1_555
O49_2 C80_3 1_555 1_555
O28_3 C120_3 1_555 1_555
O52_2 C127_3 1_555 1_555
O30_2 C127_3 1_555 1_555
O40_3 Ni18_2 1_555 1_555
Ni13 O52_2 1_555 1_555
Ni18 O30_2 1_555 1_555
O53_2 Ni18_2 1_555 1_555
C49_3 C162_3 1_555 1_555
C78_3 C79_3 1_555 1_555
C112_3 C113_3 1_555 1_555
C118_3 C119_3 1_555 1_555
C125_3 C126_3 1_555 1_555
O40_3 H94_3 1_555 1_555
O40_3 H95_3 1_555 1_555
Ni1_3 O21_3 1_555 1_555
C31_3 C30_3 1_555 1_555
H17_3 C31_3 1_555 1_555
C32_3 C31_3 1_555 1_555
C48_3 C32_3 1_555 1_555
H28_3 C51_3 1_555 1_555
C52_3 C48_3 1_555 1_555
H29_3 C52_3 1_555 1_555
H31_3 C57_3 1_555 1_555
C58_3 C57_3 1_555 1_555
C60_3 C58_3 1_555 1_555
C61_3 C60_3 1_555 1_555
H33_3 C61_3 1_555 1_555
C62_3 C61_3 1_555 1_555
C63_3 C62_3 1_555 1_555
C64_3 C63_3 1_555 1_555
H35_3 C64_3 1_555 1_555
C65_3 C60_3 1_555 1_555
H36_3 C65_3 1_555 1_555
C66_3 C63_3 1_555 1_555
C81_3 C82_3 1_555 1_555
C82_3 H45_3 1_555 1_555
C83_3 C82_3 1_555 1_555
C84_3 C83_3 1_555 1_555
H46_3 C84_3 1_555 1_555
C85_3 C84_3 1_555 1_555
C86_3 C81_3 1_555 1_555
H47_3 C86_3 1_555 1_555
C87_3 C81_3 1_555 1_555
C88_3 C87_3 1_555 1_555
H48_3 C88_3 1_555 1_555
C89_3 C88_3 1_555 1_555
H49_3 C89_3 1_555 1_555
C90_3 C89_3 1_555 1_555
C91_3 C90_3 1_555 1_555
H50_3 C91_3 1_555 1_555
C92_3 C87_3 1_555 1_555
H51_3 C92_3 1_555 1_555
C93_3 C90_3 1_555 1_555
C94_3 C85_3 1_555 1_555
C95_3 C94_3 1_555 1_555
H52_3 C95_3 1_555 1_555
C98_3 C97_3 1_555 1_555
H54_3 C98_3 1_555 1_555
C99_3 C94_3 1_555 1_555
H55_3 C99_3 1_555 1_555
C101_3 C83_3 1_555 1_555
C102_3 C101_3 1_555 1_555
H56_3 C102_3 1_555 1_555
C103_3 C102_3 1_555 1_555
H57_3 C103_3 1_555 1_555
C104_3 C103_3 1_555 1_555
C105_3 C104_3 1_555 1_555
H58_3 C105_3 1_555 1_555
C106_3 C101_3 1_555 1_555
H59_3 C106_3 1_555 1_555
C107_3 C104_3 1_555 1_555
C132_3 C131_3 1_555 1_555
H73_3 C132_3 1_555 1_555
H74_3 C133_3 1_555 1_555
C134_3 C131_3 1_555 1_555
H79_3 C143_3 1_555 1_555
C144_3 C143_3 1_555 1_555
C145_3 C144_3 1_555 1_555
H80_3 C145_3 1_555 1_555
H81_3 C146_3 1_555 1_555
C147_3 C144_3 1_555 1_555
H88_3 C159_3 1_555 1_555
O17_3 Ni8 1_555 1_555
O21_3 C107_3 1_555 1_555
O22_3 C107_3 1_555 1_555
O23_3 C93_3 1_555 1_555
O24_2 C93_3 1_555 1_555
O50 C134_3 1_555 1_555
O26_3 C134_3 1_555 1_555
O27_3 Ni1_3 1_555 1_555
O31_3 Ni1_3 1_555 1_555
O35_3 C147_3 1_555 1_555
O36_3 C147_3 1_555 1_555
O41_3 Ni1_3 1_555 1_555
O42_3 Ni1_3 1_555 1_555
O43_3 Ni1_3 1_555 1_555
C32_3 C33_3 1_555 1_555
C51_3 C52_3 1_555 1_555
C64_3 C65_3 1_555 1_555
C66_3 O17_3 1_555 1_555
C85_3 C86_3 1_555 1_555
C91_3 C92_3 1_555 1_555
C98_3 C99_3 1_555 1_555
C105_3 C106_3 1_555 1_555
C132_3 C133_3 1_555 1_555
C145_3 C146_3 1_555 1_555
O24_2 H96_2 1_555 1_555
O36_3 H97_3 1_555 1_555
O42_3 H100_3 1_555 1_555
O42_3 H101_3 1_555 1_555
C1_3 C2_3 1_555 1_555
C2_3 H1_3 1_555 1_555
C3_3 C2_3 1_555 1_555
C4_3 C3_3 1_555 1_555
H2_3 C4_3 1_555 1_555
C5_3 C4_3 1_555 1_555
C6_3 C1_3 1_555 1_555
H3_3 C6_3 1_555 1_555
C7_3 C1_3 1_555 1_555
C8_3 C7_3 1_555 1_555
H4_3 C8_3 1_555 1_555
C9_3 C8_3 1_555 1_555
H5_3 C9_3 1_555 1_555
C10_3 C9_3 1_555 1_555
C11_3 C10_3 1_555 1_555
H6_3 C11_3 1_555 1_555
C12_3 C7_3 1_555 1_555
H7_3 C12_3 1_555 1_555
C14_3 C3_3 1_555 1_555
C15_3 C14_3 1_555 1_555
H8_3 C15_3 1_555 1_555
C21_3 C5_3 1_555 1_555
C22_3 C21_3 1_555 1_555
H12_3 C22_3 1_555 1_555
C23_3 C22_3 1_555 1_555
H13_3 C23_3 1_555 1_555
C24_3 C23_3 1_555 1_555
C25_3 C24_3 1_555 1_555
H14_3 C25_3 1_555 1_555
C26_3 C21_3 1_555 1_555
H15_3 C26_3 1_555 1_555
C27_3 C24_3 1_555 1_555
O5_3 C27_3 1_555 1_555
O6_3 C27_3 1_555 1_555
C5_3 C6_3 1_555 1_555
C11_3 C12_3 1_555 1_555
C25_3 C26_3 1_555 1_555
O5_3 H92_3 1_555 1_555
H9_3 C16_3 1_555 1_555
C17_3 C16_3 1_555 1_555
C18_3 C17_3 1_555 1_555
H10_3 C18_3 1_555 1_555
H11_3 C19_3 1_555 1_555
C20_3 C17_3 1_555 1_555
C42_3 C41_3 1_555 1_555
H23_3 C42_3 1_555 1_555
C43_3 C42_3 1_555 1_555
H24_3 C43_3 1_555 1_555
C44_3 C43_3 1_555 1_555
C47_3 C44_3 1_555 1_555
O3_3 C20_3 1_555 1_555
O4_3 C20_3 1_555 1_555
O44 C47_3 1_555 1_555
O45 C47_3 1_555 1_555
C18_3 C19_3 1_555 1_555
O4_3 H93_3 1_555 1_555
C1_4 C2_4 1_555 1_555
C2_4 H1_4 1_555 1_555
C3_4 C2_4 1_555 1_555
C4_4 C3_4 1_555 1_555
H2_4 C4_4 1_555 1_555
C5_4 C4_4 1_555 1_555
C6_4 C1_4 1_555 1_555
H3_4 C6_4 1_555 1_555
C7_4 C1_4 1_555 1_555
C8_4 C7_4 1_555 1_555
H4_4 C8_4 1_555 1_555
C9_4 C8_4 1_555 1_555
H5_4 C9_4 1_555 1_555
C10_4 C9_4 1_555 1_555
C11_4 C10_4 1_555 1_555
H6_4 C11_4 1_555 1_555
C12_4 C7_4 1_555 1_555
H7_4 C12_4 1_555 1_555
C14_4 C3_4 1_555 1_555
C15_4 C14_4 1_555 1_555
H8_4 C15_4 1_555 1_555
C16_4 C15_4 1_555 1_555
H9_4 C16_4 1_555 1_555
C17_4 C16_4 1_555 1_555
C18_4 C17_4 1_555 1_555
H10_4 C18_4 1_555 1_555
C19_4 C14_4 1_555 1_555
H11_4 C19_4 1_555 1_555
C20_4 C17_4 1_555 1_555
C21_4 C5_4 1_555 1_555
C22_4 C21_4 1_555 1_555
H12_4 C22_4 1_555 1_555
C23_4 C22_4 1_555 1_555
H13_4 C23_4 1_555 1_555
C24_4 C23_4 1_555 1_555
C25_4 C24_4 1_555 1_555
H14_4 C25_4 1_555 1_555
C26_4 C21_4 1_555 1_555
H15_4 C26_4 1_555 1_555
C27_4 C24_4 1_555 1_555
C42_4 C41_4 1_555 1_555
H23_4 C42_4 1_555 1_555
C43_4 C42_4 1_555 1_555
H24_4 C43_4 1_555 1_555
C44_4 C43_4 1_555 1_555
C45_4 C44_4 1_555 1_555
C47_4 C44_4 1_555 1_555
O3_4 C20_4 1_555 1_555
O4_4 C20_4 1_555 1_555
O5_4 C27_4 1_555 1_555
O6_4 C27_4 1_555 1_555
O44_2 C47_4 1_555 1_555
O45_2 C47_4 1_555 1_555
C5_4 C6_4 1_555 1_555
C11_4 C12_4 1_555 1_555
C18_4 C19_4 1_555 1_555
C25_4 C26_4 1_555 1_555
O5_4 H92_4 1_555 1_555
O4_4 H93_4 1_555 1_555
H49_4 C89_4 1_555 1_555
H54_4 C98_4 1_555 1_555
H55_4 C99_4 1_555 1_555
H78_4 C142_4 1_555 1_555
C143_4 C142_4 1_555 1_555
H79_4 C143_4 1_555 1_555
C144_4 C143_4 1_555 1_555
C147_4 C144_4 1_555 1_555
O20_4 C100_4 1_555 1_555
O35_4 C147_4 1_555 1_555
O36_4 C147_4 1_555 1_555
C98_4 C99_4 1_555 1_555
O36_4 H97_4 1_555 1_555
Ni1_4 O21_4 1_555 1_555
Ni7 O1_4 1_555 1_555
Ni13 O32_4 1_555 1_555
Ni16 O19_4 1_555 1_555
Ni18 O28_4 1_555 1_555
C28_4 C29_4 1_555 1_555
C29_4 H16_4 1_555 1_555
C30_4 C29_4 1_555 1_555
C31_4 C30_4 1_555 1_555
H17_4 C31_4 1_555 1_555
C32_4 C31_4 1_555 1_555
C33_4 C28_4 1_555 1_555
H18_4 C33_4 1_555 1_555
C34_4 C28_4 1_555 1_555
C35_4 C34_4 1_555 1_555
H19_4 C35_4 1_555 1_555
C36_4 C35_4 1_555 1_555
H20_4 C36_4 1_555 1_555
C37_4 C36_4 1_555 1_555
C38_4 C37_4 1_555 1_555
H21_4 C38_4 1_555 1_555
C39_4 C34_4 1_555 1_555
H22_4 C39_4 1_555 1_555
C40_4 C37_4 1_555 1_555
H26_4 C46_4 1_555 1_555
C48_4 C32_4 1_555 1_555
C49_4 H27_4 1_555 1_555
C50_4 C49_4 1_555 1_555
C51_4 C50_4 1_555 1_555
H28_4 C51_4 1_555 1_555
C52_4 C48_4 1_555 1_555
H29_4 C52_4 1_555 1_555
C53_4 C50_4 1_555 1_555
C54_4 C55_4 1_555 1_555
C55_4 H30_4 1_555 1_555
C56_4 C55_4 1_555 1_555
C57_4 C56_4 1_555 1_555
H31_4 C57_4 1_555 1_555
C58_4 C57_4 1_555 1_555
C59_4 C54_4 1_555 1_555
H32_4 C59_4 1_555 1_555
C60_4 C58_4 1_555 1_555
C61_4 C60_4 1_555 1_555
H33_4 C61_4 1_555 1_555
C62_4 C61_4 1_555 1_555
H34_4 C62_4 1_555 1_555
C63_4 C62_4 1_555 1_555
C64_4 C63_4 1_555 1_555
H35_4 C64_4 1_555 1_555
C65_4 C60_4 1_555 1_555
H36_4 C65_4 1_555 1_555
C66_4 C63_4 1_555 1_555
C67_4 C54_4 1_555 1_555
C68_4 C67_4 1_555 1_555
H37_4 C68_4 1_555 1_555
C69_4 C68_4 1_555 1_555
H38_4 C69_4 1_555 1_555
C70_4 C69_4 1_555 1_555
C71_4 C70_4 1_555 1_555
H39_4 C71_4 1_555 1_555
C72_4 C67_4 1_555 1_555
H40_4 C72_4 1_555 1_555
C73_4 C70_4 1_555 1_555
C74_4 C56_4 1_555 1_555
C75_4 C74_4 1_555 1_555
H41_4 C75_4 1_555 1_555
C76_4 C75_4 1_555 1_555
H42_4 C76_4 1_555 1_555
C77_4 C76_4 1_555 1_555
C78_4 C77_4 1_555 1_555
H43_4 C78_4 1_555 1_555
C79_4 C74_4 1_555 1_555
H44_4 C79_4 1_555 1_555
C80_4 C77_4 1_555 1_555
C81_4 C82_4 1_555 1_555
C82_4 H45_4 1_555 1_555
C83_4 C82_4 1_555 1_555
C84_4 C83_4 1_555 1_555
H46_4 C84_4 1_555 1_555
C85_4 C84_4 1_555 1_555
C86_4 C81_4 1_555 1_555
H47_4 C86_4 1_555 1_555
C87_4 C81_4 1_555 1_555
C88_4 C87_4 1_555 1_555
C91_4 C90_4 1_555 1_555
H50_4 C91_4 1_555 1_555
C92_4 C87_4 1_555 1_555
H51_4 C92_4 1_555 1_555
C94_4 C85_4 1_555 1_555
C95_4 C94_4 1_555 1_555
H52_4 C95_4 1_555 1_555
C96_4 C95_4 1_555 1_555
H53_4 C96_4 1_555 1_555
C97_4 C96_4 1_555 1_555
C101_4 C83_4 1_555 1_555
C102_4 C101_4 1_555 1_555
H56_4 C102_4 1_555 1_555
C103_4 C102_4 1_555 1_555
H57_4 C103_4 1_555 1_555
C104_4 C103_4 1_555 1_555
C105_4 C104_4 1_555 1_555
H58_4 C105_4 1_555 1_555
C106_4 C101_4 1_555 1_555
H59_4 C106_4 1_555 1_555
C107_4 C104_4 1_555 1_555
C108_4 H60_4 1_555 1_555
C109_4 C108_4 1_555 1_555
C114_4 C109_4 1_555 1_555
C115_4 C114_4 1_555 1_555
H63_4 C115_4 1_555 1_555
C116_4 C115_4 1_555 1_555
H64_4 C116_4 1_555 1_555
C117_4 C116_4 1_555 1_555
C118_4 C117_4 1_555 1_555
H65_4 C118_4 1_555 1_555
C119_4 C114_4 1_555 1_555
H66_4 C119_4 1_555 1_555
C120_4 C117_4 1_555 1_555
H69_4 C125_4 1_555 1_555
H70_4 C126_4 1_555 1_555
C135_4 C136_4 1_555 1_555
C136_4 H75_4 1_555 1_555
C137_4 C136_4 1_555 1_555
C138_4 C137_4 1_555 1_555
H76_4 C138_4 1_555 1_555
C139_4 C138_4 1_555 1_555
C140_4 C135_4 1_555 1_555
H77_4 C140_4 1_555 1_555
C141_4 C135_4 1_555 1_555
H80_4 C145_4 1_555 1_555
C146_4 C141_4 1_555 1_555
H81_4 C146_4 1_555 1_555
C148_4 C137_4 1_555 1_555
C149_4 C148_4 1_555 1_555
H82_4 C149_4 1_555 1_555
C150_4 C149_4 1_555 1_555
C151_4 C150_4 1_555 1_555
C152_4 C151_4 1_555 1_555
H84_4 C152_4 1_555 1_555
C153_4 C148_4 1_555 1_555
H85_4 C153_4 1_555 1_555
C154_4 C151_4 1_555 1_555
C155_4 C139_4 1_555 1_555
C156_4 C155_4 1_555 1_555
H86_4 C156_4 1_555 1_555
C157_4 C156_4 1_555 1_555
H87_4 C157_4 1_555 1_555
C158_4 C157_4 1_555 1_555
C159_4 C158_4 1_555 1_555
H88_4 C159_4 1_555 1_555
C160_4 C155_4 1_555 1_555
H89_4 C160_4 1_555 1_555
C161_4 C158_4 1_555 1_555
C162_4 C48_4 1_555 1_555
H90_4 C162_4 1_555 1_555
O1_4 C13_4 1_555 1_555
O2_4 C13_4 1_555 1_555
O46 C53_4 1_555 1_555
O10_4 C53_4 1_555 1_555
O47 C40_4 1_555 1_555
O48 C40_4 1_555 1_555
O13_4 C80_4 1_555 1_555
O49 C80_4 1_555 1_555
O15_4 C73_4 1_555 1_555
O16_4 C73_4 1_555 1_555
O17_4 Ni9 1_555 1_555
O18_4 Ni7 1_555 1_555
O21_4 C107_4 1_555 1_555
O22_4 C107_4 1_555 1_555
O27_4 Ni1_4 1_555 1_555
O28_4 C120_4 1_555 1_555
O31_4 Ni1_4 1_555 1_555
O32_4 C161_4 1_555 1_555
O54 C154_4 1_555 1_555
O34_4 C154_4 1_555 1_555
O37_4 Ni7 1_555 1_555
O38_4 Ni7 1_555 1_555
O39_4 Ni7 1_555 1_555
O40_4 Ni18 1_555 1_555
O41_4 Ni1_4 1_555 1_555
O42_4 Ni1_4 1_555 1_555
O43_4 Ni1_4 1_555 1_555
O50_2 Ni13 1_555 1_555
Ni9 O38_4 1_555 1_555
Ni13 O41_4 1_555 1_555
Ni16 O38_4 1_555 1_555
Ni16 O39_4 1_555 1_555
Ni18 O41_4 1_555 1_555
Ni18 O43_4 1_555 1_555
C32_4 C33_4 1_555 1_555
C38_4 C39_4 1_555 1_555
C49_4 C162_4 1_555 1_555
C51_4 C52_4 1_555 1_555
C58_4 C59_4 1_555 1_555
C64_4 C65_4 1_555 1_555
C66_4 O17_4 1_555 1_555
C66_4 O18_4 1_555 1_555
C71_4 C72_4 1_555 1_555
C78_4 C79_4 1_555 1_555
C85_4 C86_4 1_555 1_555
C91_4 C92_4 1_555 1_555
C105_4 C106_4 1_555 1_555
C118_4 C119_4 1_555 1_555
C120_4 O27_4 1_555 1_555
C125_4 C126_4 1_555 1_555
C139_4 C140_4 1_555 1_555
C145_4 C146_4 1_555 1_555
C152_4 C153_4 1_555 1_555
C159_4 C160_4 1_555 1_555
C161_4 O31_4 1_555 1_555
O16_4 H91_4 1_555 1_555
O40_4 H94_4 1_555 1_555
O40_4 H95_4 1_555 1_555
O37_4 H98_4 1_555 1_555
O37_4 H99_4 1_555 1_555
O42_4 H100_4 1_555 1_555
O42_4 H101_4 1_555 1_555
H61_4 C110_4 1_555 1_555
C111_4 C110_4 1_555 1_555
C112_4 C111_4 1_555 1_555
H62_4 C112_4 1_555 1_555
C121_4 C113_4 1_555 1_555
C122_4 C121_4 1_555 1_555
H67_4 C122_4 1_555 1_555
C123_4 C122_4 1_555 1_555
H68_4 C123_4 1_555 1_555
C124_4 C123_4 1_555 1_555
C127_4 C124_4 1_555 1_555
C128_4 C111_4 1_555 1_555
C129_4 C128_4 1_555 1_555
H71_4 C129_4 1_555 1_555
C130_4 C129_4 1_555 1_555
H72_4 C130_4 1_555 1_555
C131_4 C130_4 1_555 1_555
C132_4 C131_4 1_555 1_555
H73_4 C132_4 1_555 1_555
C133_4 C128_4 1_555 1_555
H74_4 C133_4 1_555 1_555
C134_4 C131_4 1_555 1_555
O23_4 C93_4 1_555 1_555
O50_2 C134_4 1_555 1_555
O26_4 C134_4 1_555 1_555
O52 C127_4 1_555 1_555
O53_2 C127_4 1_555 1_555
C112_4 C113_4 1_555 1_555
C132_4 C133_4 1_555 1_555
O24_3 H96_3 1_555 1_555
O24_4 H96_4 1_555 1_555

#END
