
###############################################################################
#
# This file contains modified crystal structure data generated from the
# MOF subset of the Cambridge Structural Database (CSD) v543 
# hosted by the Cambridge Crystallographic Data Centre (CCDC).
#
# This work is licensed under the Creative Commons
# Attribution-NonCommercial-ShareAlike 4.0 International License.
# To view a copy of this license, visit
# http://creativecommons.org/licenses/by-nc-sa/4.0/
# or send a letter to
# Creative Commons, PO Box 1866, Mountain View, CA 94042, USA.
#
# CIF created using the CSD Python API on 29 September 2022
# The structure has been converted into the P1 space group
# The structure has a 3D framework
# The original CSD entry XEDFOF is in the orthorhombic crystal system
# The framework has been calculated to contain at least 10.0% void space
# The void calculation uses a probe of radius 1.32A, grid spacing 0.4
#
###############################################################################

data_XEDFOF
_chemical_formula_moiety         '(C212 H128 N48 Ni8 O22)n'
_symmetry_cell_setting           triclinic
_symmetry_space_group_name_H-M   'P 1'
_symmetry_Int_Tables_number      1
_space_group_name_Hall           'P 1'
loop_
_symmetry_equiv_pos_site_id
_symmetry_equiv_pos_as_xyz
1 x,y,z
_cell_length_a                   24.6324(8)
_cell_length_b                   20.3013(6)
_cell_length_c                   19.2878(5)
_cell_angle_alpha                90
_cell_angle_beta                 90
_cell_angle_gamma                90
_cell_volume                     9645.25
loop_
_atom_site_label
_atom_site_type_symbol
_atom_site_fract_x
_atom_site_fract_y
_atom_site_fract_z
Ni1 Ni 0.56980(2) 0.27514(2) 0.59231(2)
O1 O 0.500000 0.32079(7) 0.57430(7)
O2 O 0.54541(7) 0.24657(8) 0.68917(8)
N1 N 0.59678(7) 0.30352(9) 0.49254(9)
N2 N 0.85673(8) 0.27378(8) 0.12537(10)
N3 N 0.60054(7) 0.63397(8) 0.13134(8)
N4 N 0.70085(9) 0.34591(11) 0.27369(11)
N5 N 0.70371(9) 0.42804(10) 0.18702(10)
N6 N 0.63792(9) 0.43343(10) 0.27677(10)
C1 C 0.63441(14) 0.27178(12) 0.45671(14)
H1 H 0.647725 0.232489 0.474744
C2 C 0.65497(14) 0.29330(14) 0.39461(15)
H2 H 0.681312 0.268891 0.371521
C3 C 0.63603(10) 0.35177(11) 0.36675(11)
C4 C 0.59627(11) 0.38476(13) 0.40214(13)
H3 H 0.581966 0.423759 0.384638
C5 C 0.57753(10) 0.35918(13) 0.46460(13)
H4 H 0.550343 0.381828 0.488075
C6 C 0.83975(10) 0.33049(11) 0.10139(14)
H5 H 0.858311 0.349331 0.064380
C7 C 0.79496(12) 0.36419(13) 0.12878(14)
H6 H 0.783351 0.403358 0.108634
C8 C 0.76848(10) 0.33935(12) 0.18503(12)
C9 C 0.78917(14) 0.28161(14) 0.21353(18)
H7 H 0.773730 0.263722 0.253304
C10 C 0.83206(13) 0.25169(15) 0.18275(16)
H8 H 0.845250 0.213232 0.202808
C11 C 0.57670(9) 0.60562(12) 0.18558(13)
H9 H 0.546260 0.625874 0.204534
C12 C 0.59472(11) 0.54782(12) 0.21514(14)
H10 H 0.576671 0.529967 0.253096
C13 C 0.63937(10) 0.51688(11) 0.18825(12)
C14 C 0.66477(11) 0.54617(14) 0.13228(14)
H11 H 0.695221 0.526739 0.112438
C15 C 0.64474(10) 0.60404(12) 0.10629(13)
H12 H 0.662818 0.623537 0.069274
C16 C 0.65920(10) 0.37815(12) 0.30147(12)
C17 C 0.72177(11) 0.37237(12) 0.21692(12)
C18 C 0.66142(10) 0.45575(12) 0.21891(12)
C19 C 0.500000 0.22633(12) 0.70963(15)
C20 C 0.500000 0.17217(16) 0.76265(17)
C21 C 0.45280(13) 0.14588(18) 0.7872(2)
H13 H 0.419897 0.163722 0.772805
C22 C 0.45265(15) 0.0935(2) 0.8326(2)
H14 H 0.419686 0.075915 0.847036
C23 C 0.500000 0.0670(2) 0.8570(2)
C24 C 0.500000 0.0070(2) 0.9033(2)
O4 O 0.45459(7) 0.24657(8) 0.68917(8)
C29 C 0.54720(13) 0.14588(18) 0.7872(2)
H17 H 0.580103 0.163722 0.772805
C30 C 0.54735(15) 0.0935(2) 0.8326(2)
H18 H 0.580314 0.075915 0.847036
Ni2 Ni 0.43020(2) 0.27514(2) 0.59231(2)
N7 N 0.40322(7) 0.30352(9) 0.49254(9)
N8 N 0.14327(8) 0.27378(8) 0.12537(10)
N9 N 0.39946(7) 0.63397(8) 0.13134(8)
N10 N 0.29915(9) 0.34591(11) 0.27369(11)
N11 N 0.29629(9) 0.42804(10) 0.18702(10)
N12 N 0.36208(9) 0.43343(10) 0.27677(10)
C33 C 0.36559(14) 0.27178(12) 0.45671(14)
H21 H 0.352275 0.232489 0.474744
C34 C 0.34503(14) 0.29330(14) 0.39461(15)
H22 H 0.318688 0.268891 0.371521
C35 C 0.36397(10) 0.35177(11) 0.36675(11)
C36 C 0.40373(11) 0.38476(13) 0.40214(13)
H23 H 0.418034 0.423759 0.384638
C37 C 0.42247(10) 0.35918(13) 0.46460(13)
H24 H 0.449657 0.381828 0.488075
C38 C 0.16025(10) 0.33049(11) 0.10139(14)
H25 H 0.141689 0.349331 0.064380
C39 C 0.20504(12) 0.36419(13) 0.12878(14)
H26 H 0.216649 0.403358 0.108634
C40 C 0.23152(10) 0.33935(12) 0.18503(12)
C41 C 0.21083(14) 0.28161(14) 0.21353(18)
H27 H 0.226270 0.263722 0.253304
C42 C 0.16794(13) 0.25169(15) 0.18275(16)
H28 H 0.154750 0.213232 0.202808
C43 C 0.42330(9) 0.60562(12) 0.18558(13)
H29 H 0.453740 0.625874 0.204534
C44 C 0.40528(11) 0.54782(12) 0.21514(14)
H30 H 0.423329 0.529967 0.253096
C45 C 0.36063(10) 0.51688(11) 0.18825(12)
C46 C 0.33523(11) 0.54617(14) 0.13228(14)
H31 H 0.304779 0.526739 0.112438
C47 C 0.35526(10) 0.60404(12) 0.10629(13)
H32 H 0.337182 0.623537 0.069274
C48 C 0.34080(10) 0.37815(12) 0.30147(12)
C49 C 0.27823(11) 0.37237(12) 0.21692(12)
C50 C 0.33858(10) 0.45575(12) 0.21891(12)
Ni4 Ni 0.43020(2) 0.72486(2) 0.09231(2)
Ni6 Ni 0.56980(2) 0.72486(2) 0.09231(2)
Ni7 Ni 0.93020(2) 0.22486(2) 0.09231(2)
Ni8 Ni 0.06980(2) 0.22486(2) 0.09231(2)
O6 O 0.54532(6) 0.18867(7) 0.54864(8)
O7 O 0.45468(6) 0.18867(7) 0.54864(8)
N13 N 0.64327(8) 0.22622(8) 0.62537(10)
N14 N 0.35673(8) 0.22622(8) 0.62537(10)
N15 N 0.39946(7) 0.36603(8) 0.63134(8)
N16 N 0.60054(7) 0.36603(8) 0.63134(8)
O3 O 0.45468(6) 0.81133(7) 0.04864(8)
C28 C 0.500000 0.83388(13) 0.03292(14)
O5 O 0.54532(6) 0.81133(7) 0.04864(8)
C25 C 0.45353(14) 0.0221(2) 0.4239(3)
H15 H 0.420523 0.005538 0.408205
C26 C 0.45377(14) 0.0758(2) 0.4677(2)
H16 H 0.420823 0.092792 0.483051
C27 C 0.500000 0.10422(16) 0.48896(18)
C28_2 C 0.500000 0.16612(13) 0.53292(14)
C31 C 0.54647(14) 0.0221(2) 0.4239(3)
H19 H 0.579477 0.005538 0.408205
C32 C 0.54623(14) 0.0758(2) 0.4677(2)
H20 H 0.579177 0.092792 0.483051
O1_2 O 0.500000 0.67921(7) 0.07430(7)
O2_2 O 0.45459(7) 0.75343(8) 0.18917(8)
C19_2 C 0.500000 0.77367(12) 0.20963(15)
C20_2 C 0.500000 0.82783(16) 0.26265(17)
C21_2 C 0.54720(13) 0.85412(18) 0.2872(2)
H13_2 H 0.580103 0.836278 0.272805
C22_2 C 0.54735(15) 0.9065(2) 0.3326(2)
H14_2 H 0.580314 0.924085 0.347036
C23_2 C 0.500000 0.9330(2) 0.3570(2)
C24_2 C 0.500000 0.9930(2) 0.4033(2)
O4_2 O 0.54541(7) 0.75343(8) 0.18917(8)
C29_2 C 0.45280(13) 0.85412(18) 0.2872(2)
H17_2 H 0.419897 0.836278 0.272805
C30_2 C 0.45265(15) 0.9065(2) 0.3326(2)
H18_2 H 0.419686 0.924085 0.347036
N13_2 N 0.35673(8) 0.77378(8) 0.12537(10)
N14_2 N 0.64327(8) 0.77378(8) 0.12537(10)
N1_2 N 0.40322(7) 0.69648(9) 0.99254(9)
N2_2 N 0.14327(8) 0.72622(8) 0.62537(10)
N4_2 N 0.29915(9) 0.65409(11) 0.77369(11)
N5_2 N 0.29629(9) 0.57196(10) 0.68702(10)
N6_2 N 0.36208(9) 0.56657(10) 0.77677(10)
C1_2 C 0.36559(14) 0.72822(12) 0.95671(14)
H1_2 H 0.352275 0.767511 0.974744
C2_2 C 0.34503(14) 0.70670(14) 0.89461(15)
H2_2 H 0.318688 0.731109 0.871521
C3_2 C 0.36397(10) 0.64823(11) 0.86675(11)
C4_2 C 0.40373(11) 0.61524(13) 0.90214(13)
H3_2 H 0.418034 0.576241 0.884638
C5_2 C 0.42247(10) 0.64082(13) 0.96460(13)
H4_2 H 0.449657 0.618172 0.988075
C6_2 C 0.16025(10) 0.66951(11) 0.60139(14)
H5_2 H 0.141689 0.650669 0.564380
C7_2 C 0.20504(12) 0.63581(13) 0.62878(14)
H6_2 H 0.216649 0.596642 0.608634
C8_2 C 0.23152(10) 0.66065(12) 0.68503(12)
C9_2 C 0.21083(14) 0.71839(14) 0.71353(18)
H7_2 H 0.226270 0.736278 0.753304
C10_2 C 0.16794(13) 0.74831(15) 0.68275(16)
H8_2 H 0.154750 0.786768 0.702808
C11_2 C 0.42330(9) 0.39438(12) 0.68558(13)
H9_2 H 0.453740 0.374126 0.704534
C12_2 C 0.40528(11) 0.45218(12) 0.71514(14)
H10_2 H 0.423329 0.470033 0.753096
C13_2 C 0.36063(10) 0.48312(11) 0.68825(12)
C14_2 C 0.33523(11) 0.45383(14) 0.63228(14)
H11_2 H 0.304779 0.473261 0.612438
C15_2 C 0.35526(10) 0.39596(12) 0.60629(13)
H12_2 H 0.337182 0.376463 0.569274
C16_2 C 0.34080(10) 0.62185(12) 0.80147(12)
C17_2 C 0.27823(11) 0.62763(12) 0.71692(12)
C18_2 C 0.33858(10) 0.54425(12) 0.71891(12)
N7_2 N 0.59678(7) 0.69648(9) 0.99254(9)
N8_2 N 0.85673(8) 0.72622(8) 0.62537(10)
N10_2 N 0.70085(9) 0.65409(11) 0.77369(11)
N11_2 N 0.70371(9) 0.57196(10) 0.68702(10)
N12_2 N 0.63792(9) 0.56657(10) 0.77677(10)
C33_2 C 0.63441(14) 0.72822(12) 0.95671(14)
H21_2 H 0.647725 0.767511 0.974744
C34_2 C 0.65497(14) 0.70670(14) 0.89461(15)
H22_2 H 0.681312 0.731109 0.871521
C35_2 C 0.63603(10) 0.64823(11) 0.86675(11)
C36_2 C 0.59627(11) 0.61524(13) 0.90214(13)
H23_2 H 0.581966 0.576241 0.884638
C37_2 C 0.57753(10) 0.64082(13) 0.96460(13)
H24_2 H 0.550343 0.618172 0.988075
C38_2 C 0.83975(10) 0.66951(11) 0.60139(14)
H25_2 H 0.858311 0.650669 0.564380
C39_2 C 0.79496(12) 0.63581(13) 0.62878(14)
H26_2 H 0.783351 0.596642 0.608634
C40_2 C 0.76848(10) 0.66065(12) 0.68503(12)
C41_2 C 0.78917(14) 0.71839(14) 0.71353(18)
H27_2 H 0.773730 0.736278 0.753304
C42_2 C 0.83206(13) 0.74831(15) 0.68275(16)
H28_2 H 0.845250 0.786768 0.702808
C43_2 C 0.57670(9) 0.39438(12) 0.68558(13)
H29_2 H 0.546260 0.374126 0.704534
C44_2 C 0.59472(11) 0.45218(12) 0.71514(14)
H30_2 H 0.576671 0.470033 0.753096
C45_2 C 0.63937(10) 0.48312(11) 0.68825(12)
C46_2 C 0.66477(11) 0.45383(14) 0.63228(14)
H31_2 H 0.695221 0.473261 0.612438
C47_2 C 0.64474(10) 0.39596(12) 0.60629(13)
H32_2 H 0.662818 0.376463 0.569274
C48_2 C 0.65920(10) 0.62185(12) 0.80147(12)
C49_2 C 0.72177(11) 0.62763(12) 0.71692(12)
C50_2 C 0.66142(10) 0.54425(12) 0.71891(12)
Ni7_2 Ni 0.06980(2) 0.77514(2) 0.59231(2)
Ni8_2 Ni 0.93020(2) 0.77514(2) 0.59231(2)
N3_2 N 0.10054(7) 0.13397(8) 0.13134(8)
C11_3 C 0.07670(9) 0.10562(12) 0.18558(13)
H9_3 H 0.046260 0.125874 0.204534
C12_3 C 0.09472(11) 0.04782(12) 0.21514(14)
H10_3 H 0.076671 0.029967 0.253096
C13_3 C 0.13937(10) 0.01688(11) 0.18825(12)
C14_3 C 0.16477(11) 0.04617(14) 0.13228(14)
H11_3 H 0.195221 0.026739 0.112438
C15_3 C 0.14474(10) 0.10404(12) 0.10629(13)
H12_3 H 0.162818 0.123537 0.069274
C28_3 C -0.000000 0.33388(13) 0.03292(14)
O5_2 O 0.04532(6) 0.31133(7) 0.04864(8)
O1_3 O -0.000000 0.82079(7) 0.57430(7)
O2_3 O 0.04541(7) 0.74657(8) 0.68917(8)
N1_3 N 0.09678(7) 0.80352(9) 0.49254(9)
N4_3 N 0.20085(9) 0.84591(11) 0.27369(11)
N5_3 N 0.20371(9) 0.92804(10) 0.18702(10)
N6_3 N 0.13792(9) 0.93343(10) 0.27677(10)
C1_3 C 0.13441(14) 0.77178(12) 0.45671(14)
H1_3 H 0.147725 0.732489 0.474744
C2_3 C 0.15497(14) 0.79330(14) 0.39461(15)
H2_3 H 0.181312 0.768891 0.371521
C3_3 C 0.13603(10) 0.85177(11) 0.36675(11)
C4_3 C 0.09627(11) 0.88476(13) 0.40214(13)
H3_3 H 0.081966 0.923759 0.384638
C5_3 C 0.07753(10) 0.85918(13) 0.46460(13)
H4_3 H 0.050343 0.881828 0.488075
C6_3 C 0.33975(10) 0.83049(11) 0.10139(14)
H5_3 H 0.358311 0.849331 0.064380
C7_3 C 0.29496(12) 0.86419(13) 0.12878(14)
H6_3 H 0.283351 0.903358 0.108634
C8_3 C 0.26848(10) 0.83935(12) 0.18503(12)
C9_3 C 0.28917(14) 0.78161(14) 0.21353(18)
H7_3 H 0.273730 0.763722 0.253304
C10_3 C 0.33206(13) 0.75169(15) 0.18275(16)
H8_3 H 0.345250 0.713232 0.202808
C16_3 C 0.15920(10) 0.87815(12) 0.30147(12)
C17_3 C 0.22177(11) 0.87237(12) 0.21692(12)
C18_3 C 0.16142(10) 0.95575(12) 0.21891(12)
C19_3 C -0.000000 0.72633(12) 0.70963(15)
C20_3 C -0.000000 0.67217(16) 0.76265(17)
C23_3 C -0.000000 0.5670(2) 0.8570(2)
C24_3 C -0.000000 0.5070(2) 0.9033(2)
C25_2 C 0.04647(14) 0.4779(2) 0.9239(3)
H15_2 H 0.079477 0.494462 0.908205
C26_2 C 0.04623(14) 0.4242(2) 0.9677(2)
H16_2 H 0.079177 0.407208 0.983051
C27_2 C -0.000000 0.39578(16) 0.98896(18)
C29_3 C 0.04720(13) 0.64588(18) 0.7872(2)
H17_3 H 0.080103 0.663722 0.772805
C30_3 C 0.04735(15) 0.5935(2) 0.8326(2)
H18_3 H 0.080314 0.575915 0.847036
O6_2 O 0.04532(6) 0.68867(7) 0.54864(8)
N16_2 N 0.10054(7) 0.86603(8) 0.63134(8)
N9_2 N 0.89946(7) 0.13397(8) 0.13134(8)
C43_3 C 0.92330(9) 0.10562(12) 0.18558(13)
H29_3 H 0.953740 0.125874 0.204534
C44_3 C 0.90528(11) 0.04782(12) 0.21514(14)
H30_3 H 0.923329 0.029967 0.253096
C45_3 C 0.86063(10) 0.01688(11) 0.18825(12)
C46_3 C 0.83523(11) 0.04617(14) 0.13228(14)
H31_3 H 0.804779 0.026739 0.112438
C47_3 C 0.85526(10) 0.10404(12) 0.10629(13)
H32_3 H 0.837182 0.123537 0.069274
O3_2 O 0.95468(6) 0.31133(7) 0.04864(8)
C28_4 C 1.000000 0.33388(13) 0.03292(14)
O1_4 O 1.000000 0.82079(7) 0.57430(7)
C19_4 C 1.000000 0.72633(12) 0.70963(15)
C20_4 C 1.000000 0.67217(16) 0.76265(17)
C21_3 C 0.95280(13) 0.64588(18) 0.7872(2)
H13_3 H 0.919897 0.663722 0.772805
C22_3 C 0.95265(15) 0.5935(2) 0.8326(2)
H14_3 H 0.919686 0.575915 0.847036
C23_4 C 1.000000 0.5670(2) 0.8570(2)
C24_4 C 1.000000 0.5070(2) 0.9033(2)
C27_3 C 1.000000 0.39578(16) 0.98896(18)
O4_3 O 0.95459(7) 0.74657(8) 0.68917(8)
C31_2 C 0.95353(14) 0.4779(2) 0.9239(3)
H19_2 H 0.920523 0.494462 0.908205
C32_2 C 0.95377(14) 0.4242(2) 0.9677(2)
H20_2 H 0.920823 0.407208 0.983051
N7_3 N 0.90322(7) 0.80352(9) 0.49254(9)
N10_3 N 0.79915(9) 0.84591(11) 0.27369(11)
N11_3 N 0.79629(9) 0.92804(10) 0.18702(10)
N12_3 N 0.86208(9) 0.93343(10) 0.27677(10)
C33_3 C 0.86559(14) 0.77178(12) 0.45671(14)
H21_3 H 0.852275 0.732489 0.474744
C34_3 C 0.84503(14) 0.79330(14) 0.39461(15)
H22_3 H 0.818688 0.768891 0.371521
C35_3 C 0.86397(10) 0.85177(11) 0.36675(11)
C36_3 C 0.90373(11) 0.88476(13) 0.40214(13)
H23_3 H 0.918034 0.923759 0.384638
C37_3 C 0.92247(10) 0.85918(13) 0.46460(13)
H24_3 H 0.949657 0.881828 0.488075
C38_3 C 0.66025(10) 0.83049(11) 0.10139(14)
H25_3 H 0.641689 0.849331 0.064380
C39_3 C 0.70504(12) 0.86419(13) 0.12878(14)
H26_3 H 0.716649 0.903358 0.108634
C40_3 C 0.73152(10) 0.83935(12) 0.18503(12)
C41_3 C 0.71083(14) 0.78161(14) 0.21353(18)
H27_3 H 0.726270 0.763722 0.253304
C42_3 C 0.66794(13) 0.75169(15) 0.18275(16)
H28_3 H 0.654750 0.713232 0.202808
C48_3 C 0.84080(10) 0.87815(12) 0.30147(12)
C49_3 C 0.77823(11) 0.87237(12) 0.21692(12)
C50_3 C 0.83858(10) 0.95575(12) 0.21891(12)
O7_2 O 0.95468(6) 0.68867(7) 0.54864(8)
N15_2 N 0.89946(7) 0.86603(8) 0.63134(8)
O1_5 O 0.000000 0.17921(7) 0.07430(7)
C19_5 C 0.000000 0.27367(12) 0.20963(15)
C20_5 C 0.000000 0.32783(16) 0.26265(17)
C21_4 C 0.04720(13) 0.35412(18) 0.2872(2)
H13_4 H 0.080103 0.336278 0.272805
C22_4 C 0.04735(15) 0.4065(2) 0.3326(2)
H14_4 H 0.080314 0.424085 0.347036
C23_5 C 0.000000 0.4330(2) 0.3570(2)
C24_5 C 0.000000 0.4930(2) 0.4033(2)
C27_4 C 0.000000 0.60422(16) 0.48896(18)
C28_5 C 0.000000 0.66612(13) 0.53292(14)
O4_4 O 0.04541(7) 0.25343(8) 0.18917(8)
C31_3 C 0.04647(14) 0.5221(2) 0.4239(3)
H19_3 H 0.079477 0.505538 0.408205
C32_3 C 0.04623(14) 0.5758(2) 0.4677(2)
H20_3 H 0.079177 0.592792 0.483051
N7_4 N 0.09678(7) 0.19648(9) 0.99254(9)
N10_4 N 0.20085(9) 0.15409(11) 0.77369(11)
N11_4 N 0.20371(9) 0.07196(10) 0.68702(10)
N12_4 N 0.13792(9) 0.06657(10) 0.77677(10)
C33_4 C 0.13441(14) 0.22822(12) 0.95671(14)
H21_4 H 0.147725 0.267511 0.974744
C34_4 C 0.15497(14) 0.20670(14) 0.89461(15)
H22_4 H 0.181312 0.231109 0.871521
C35_4 C 0.13603(10) 0.14823(11) 0.86675(11)
C36_4 C 0.09627(11) 0.11524(13) 0.90214(13)
H23_4 H 0.081966 0.076241 0.884638
C37_4 C 0.07753(10) 0.14082(13) 0.96460(13)
H24_4 H 0.050343 0.118172 0.988075
C38_4 C 0.33975(10) 0.16951(11) 0.60139(14)
H25_4 H 0.358311 0.150669 0.564380
C39_4 C 0.29496(12) 0.13581(13) 0.62878(14)
H26_4 H 0.283351 0.096642 0.608634
C40_4 C 0.26848(10) 0.16065(12) 0.68503(12)
C41_4 C 0.28917(14) 0.21839(14) 0.71353(18)
H27_4 H 0.273730 0.236278 0.753304
C42_4 C 0.33206(13) 0.24831(15) 0.68275(16)
H28_4 H 0.345250 0.286768 0.702808
C48_4 C 0.15920(10) 0.12185(12) 0.80147(12)
C49_4 C 0.22177(11) 0.12763(12) 0.71692(12)
C50_4 C 0.16142(10) 0.04425(12) 0.71891(12)
C43_4 C 0.07670(9) 0.89438(12) 0.68558(13)
H29_4 H 0.046260 0.874126 0.704534
C44_4 C 0.09472(11) 0.95218(12) 0.71514(14)
H30_4 H 0.076671 0.970033 0.753096
C45_4 C 0.13937(10) 0.98312(11) 0.68825(12)
C46_4 C 0.16477(11) 0.95383(14) 0.63228(14)
H31_4 H 0.195221 0.973261 0.612438
C47_4 C 0.14474(10) 0.89596(12) 0.60629(13)
H32_4 H 0.162818 0.876463 0.569274
O1_6 O 1.000000 0.17921(7) 0.07430(7)
O2_4 O 0.95459(7) 0.25343(8) 0.18917(8)
C19_6 C 1.000000 0.27367(12) 0.20963(15)
C20_6 C 1.000000 0.32783(16) 0.26265(17)
C23_6 C 1.000000 0.4330(2) 0.3570(2)
C24_6 C 1.000000 0.4930(2) 0.4033(2)
C25_3 C 0.95353(14) 0.5221(2) 0.4239(3)
H15_3 H 0.920523 0.505538 0.408205
C26_3 C 0.95377(14) 0.5758(2) 0.4677(2)
H16_3 H 0.920823 0.592792 0.483051
C27_5 C 1.000000 0.60422(16) 0.48896(18)
C28_6 C 1.000000 0.66612(13) 0.53292(14)
C29_4 C 0.95280(13) 0.35412(18) 0.2872(2)
H17_4 H 0.919897 0.336278 0.272805
C30_4 C 0.95265(15) 0.4065(2) 0.3326(2)
H18_4 H 0.919686 0.424085 0.347036
N1_4 N 0.90322(7) 0.19648(9) 0.99254(9)
N4_4 N 0.79915(9) 0.15409(11) 0.77369(11)
N5_4 N 0.79629(9) 0.07196(10) 0.68702(10)
N6_4 N 0.86208(9) 0.06657(10) 0.77677(10)
C1_4 C 0.86559(14) 0.22822(12) 0.95671(14)
H1_4 H 0.852275 0.267511 0.974744
C2_4 C 0.84503(14) 0.20670(14) 0.89461(15)
H2_4 H 0.818688 0.231109 0.871521
C3_4 C 0.86397(10) 0.14823(11) 0.86675(11)
C4_4 C 0.90373(11) 0.11524(13) 0.90214(13)
H3_4 H 0.918034 0.076241 0.884638
C5_4 C 0.92247(10) 0.14082(13) 0.96460(13)
H4_4 H 0.949657 0.118172 0.988075
C6_4 C 0.66025(10) 0.16951(11) 0.60139(14)
H5_4 H 0.641689 0.150669 0.564380
C7_4 C 0.70504(12) 0.13581(13) 0.62878(14)
H6_4 H 0.716649 0.096642 0.608634
C8_4 C 0.73152(10) 0.16065(12) 0.68503(12)
C9_4 C 0.71083(14) 0.21839(14) 0.71353(18)
H7_4 H 0.726270 0.236278 0.753304
C10_4 C 0.66794(13) 0.24831(15) 0.68275(16)
H8_4 H 0.654750 0.286768 0.702808
C16_4 C 0.84080(10) 0.12185(12) 0.80147(12)
C17_4 C 0.77823(11) 0.12763(12) 0.71692(12)
C18_4 C 0.83858(10) 0.04425(12) 0.71891(12)
C11_4 C 0.92330(9) 0.89438(12) 0.68558(13)
H9_4 H 0.953740 0.874126 0.704534
C12_4 C 0.90528(11) 0.95218(12) 0.71514(14)
H10_4 H 0.923329 0.970033 0.753096
C13_4 C 0.86063(10) 0.98312(11) 0.68825(12)
C14_4 C 0.83523(11) 0.95383(14) 0.63228(14)
H11_4 H 0.804779 0.973261 0.612438
C15_4 C 0.85526(10) 0.89596(12) 0.60629(13)
H12_4 H 0.837182 0.876463 0.569274
C25_4 C 0.54647(14) 0.9779(2) 0.9239(3)
H15_4 H 0.579477 0.994462 0.908205
C26_4 C 0.54623(14) 0.9242(2) 0.9677(2)
H16_4 H 0.579177 0.907208 0.983051
C27_6 C 0.500000 0.89578(16) 0.98896(18)
C31_4 C 0.45353(14) 0.9779(2) 0.9239(3)
H19_4 H 0.420523 0.994462 0.908205
C32_4 C 0.45377(14) 0.9242(2) 0.9677(2)
H20_4 H 0.420823 0.907208 0.983051
loop_
_geom_bond_atom_site_label_1
_geom_bond_atom_site_label_2
_geom_bond_site_symmetry_1
_geom_bond_site_symmetry_2
Ni1 O1 1_555 1_555
O1 Ni2 1_555 1_555
O2 Ni1 1_555 1_555
N1 Ni1 1_555 1_555
N2 C6 1_555 1_555
N3 C11 1_555 1_555
N4 C16 1_555 1_555
N5 C17 1_555 1_555
N6 C16 1_555 1_555
C1 N1 1_555 1_555
H1 C1 1_555 1_555
C2 C1 1_555 1_555
H2 C2 1_555 1_555
C3 C2 1_555 1_555
C4 C3 1_555 1_555
H3 C4 1_555 1_555
C5 N1 1_555 1_555
H4 C5 1_555 1_555
C6 H5 1_555 1_555
C7 C6 1_555 1_555
H6 C7 1_555 1_555
C8 C7 1_555 1_555
C9 C8 1_555 1_555
H7 C9 1_555 1_555
C10 N2 1_555 1_555
H8 C10 1_555 1_555
C11 H9 1_555 1_555
C12 C11 1_555 1_555
H10 C12 1_555 1_555
C13 C12 1_555 1_555
C14 C13 1_555 1_555
H11 C14 1_555 1_555
C15 N3 1_555 1_555
H12 C15 1_555 1_555
C16 C3 1_555 1_555
C17 N4 1_555 1_555
C18 N5 1_555 1_555
C19 O2 1_555 1_555
C20 C19 1_555 1_555
C21 C20 1_555 1_555
H13 C21 1_555 1_555
C22 C21 1_555 1_555
H14 C22 1_555 1_555
C23 C22 1_555 1_555
C24 C23 1_555 1_555
O4 C19 1_555 1_555
C29 C20 1_555 1_555
H17 C29 1_555 1_555
C30 C23 1_555 1_555
H18 C30 1_555 1_555
Ni2 O4 1_555 1_555
N7 Ni2 1_555 1_555
N8 C38 1_555 1_555
N9 C43 1_555 1_555
N10 C48 1_555 1_555
N11 C49 1_555 1_555
N12 C48 1_555 1_555
C33 N7 1_555 1_555
H21 C33 1_555 1_555
C34 C33 1_555 1_555
H22 C34 1_555 1_555
C35 C34 1_555 1_555
C36 C35 1_555 1_555
H23 C36 1_555 1_555
C37 N7 1_555 1_555
H24 C37 1_555 1_555
C38 H25 1_555 1_555
C39 C38 1_555 1_555
H26 C39 1_555 1_555
C40 C39 1_555 1_555
C41 C40 1_555 1_555
H27 C41 1_555 1_555
C42 N8 1_555 1_555
H28 C42 1_555 1_555
C43 H29 1_555 1_555
C44 C43 1_555 1_555
H30 C44 1_555 1_555
C45 C44 1_555 1_555
C46 C45 1_555 1_555
H31 C46 1_555 1_555
C47 N9 1_555 1_555
H32 C47 1_555 1_555
C48 C35 1_555 1_555
C49 N10 1_555 1_555
C50 N11 1_555 1_555
Ni4 N9 1_555 1_555
Ni6 N3 1_555 1_555
Ni7 N2 1_555 1_555
Ni8 N8 1_555 1_555
O6 Ni1 1_555 1_555
O7 Ni2 1_555 1_555
N13 Ni1 1_555 1_555
N14 Ni2 1_555 1_555
N15 Ni2 1_555 1_555
N16 Ni1 1_555 1_555
N6 C18 1_555 1_555
C4 C5 1_555 1_555
C8 C17 1_555 1_555
C9 C10 1_555 1_555
C13 C18 1_555 1_555
C14 C15 1_555 1_555
C29 C30 1_555 1_555
N12 C50 1_555 1_555
C36 C37 1_555 1_555
C40 C49 1_555 1_555
C41 C42 1_555 1_555
C45 C50 1_555 1_555
C46 C47 1_555 1_555
O3 C28 1_555 1_555
O5 C28 1_555 1_555
Ni4 O3 1_555 1_555
Ni6 O5 1_555 1_555
O6 C28_2 1_555 1_555
H15 C25 1_555 1_555
C26 C25 1_555 1_555
H16 C26 1_555 1_555
C27 C26 1_555 1_555
C28_2 C27 1_555 1_555
O7 C28_2 1_555 1_555
H19 C31 1_555 1_555
C32 C27 1_555 1_555
H20 C32 1_555 1_555
C31 C32 1_555 1_555
Ni4 O1_2 1_555 1_555
O1_2 Ni6 1_555 1_555
O2_2 Ni4 1_555 1_555
C19_2 O2_2 1_555 1_555
C20_2 C19_2 1_555 1_555
C21_2 C20_2 1_555 1_555
H13_2 C21_2 1_555 1_555
C22_2 C21_2 1_555 1_555
H14_2 C22_2 1_555 1_555
C23_2 C22_2 1_555 1_555
C24_2 C23_2 1_555 1_555
O4_2 C19_2 1_555 1_555
C29_2 C20_2 1_555 1_555
H17_2 C29_2 1_555 1_555
C30_2 C23_2 1_555 1_555
H18_2 C30_2 1_555 1_555
Ni6 O4_2 1_555 1_555
N13_2 Ni4 1_555 1_555
N14_2 Ni6 1_555 1_555
C29_2 C30_2 1_555 1_555
N2_2 C6_2 1_555 1_555
N15 C11_2 1_555 1_555
N4_2 C16_2 1_555 1_555
N5_2 C17_2 1_555 1_555
N6_2 C16_2 1_555 1_555
C1_2 N1_2 1_555 1_555
H1_2 C1_2 1_555 1_555
C2_2 C1_2 1_555 1_555
H2_2 C2_2 1_555 1_555
C3_2 C2_2 1_555 1_555
C4_2 C3_2 1_555 1_555
H3_2 C4_2 1_555 1_555
C5_2 N1_2 1_555 1_555
H4_2 C5_2 1_555 1_555
C6_2 H5_2 1_555 1_555
C7_2 C6_2 1_555 1_555
H6_2 C7_2 1_555 1_555
C8_2 C7_2 1_555 1_555
C9_2 C8_2 1_555 1_555
H7_2 C9_2 1_555 1_555
C10_2 N2_2 1_555 1_555
H8_2 C10_2 1_555 1_555
C11_2 H9_2 1_555 1_555
C12_2 C11_2 1_555 1_555
H10_2 C12_2 1_555 1_555
C13_2 C12_2 1_555 1_555
C14_2 C13_2 1_555 1_555
H11_2 C14_2 1_555 1_555
C15_2 N15 1_555 1_555
H12_2 C15_2 1_555 1_555
C16_2 C3_2 1_555 1_555
C17_2 N4_2 1_555 1_555
C18_2 N5_2 1_555 1_555
N8_2 C38_2 1_555 1_555
N16 C43_2 1_555 1_555
N10_2 C48_2 1_555 1_555
N11_2 C49_2 1_555 1_555
N12_2 C48_2 1_555 1_555
C33_2 N7_2 1_555 1_555
H21_2 C33_2 1_555 1_555
C34_2 C33_2 1_555 1_555
H22_2 C34_2 1_555 1_555
C35_2 C34_2 1_555 1_555
C36_2 C35_2 1_555 1_555
H23_2 C36_2 1_555 1_555
C37_2 N7_2 1_555 1_555
H24_2 C37_2 1_555 1_555
C38_2 H25_2 1_555 1_555
C39_2 C38_2 1_555 1_555
H26_2 C39_2 1_555 1_555
C40_2 C39_2 1_555 1_555
C41_2 C40_2 1_555 1_555
H27_2 C41_2 1_555 1_555
C42_2 N8_2 1_555 1_555
H28_2 C42_2 1_555 1_555
C43_2 H29_2 1_555 1_555
C44_2 C43_2 1_555 1_555
H30_2 C44_2 1_555 1_555
C45_2 C44_2 1_555 1_555
C46_2 C45_2 1_555 1_555
H31_2 C46_2 1_555 1_555
C47_2 N16 1_555 1_555
H32_2 C47_2 1_555 1_555
C48_2 C35_2 1_555 1_555
C49_2 N10_2 1_555 1_555
C50_2 N11_2 1_555 1_555
Ni7_2 N2_2 1_555 1_555
Ni8_2 N8_2 1_555 1_555
N6_2 C18_2 1_555 1_555
C4_2 C5_2 1_555 1_555
C8_2 C17_2 1_555 1_555
C9_2 C10_2 1_555 1_555
C13_2 C18_2 1_555 1_555
C14_2 C15_2 1_555 1_555
N12_2 C50_2 1_555 1_555
C36_2 C37_2 1_555 1_555
C40_2 C49_2 1_555 1_555
C41_2 C42_2 1_555 1_555
C45_2 C50_2 1_555 1_555
C46_2 C47_2 1_555 1_555
N3_2 C11_3 1_555 1_555
C11_3 H9_3 1_555 1_555
C12_3 C11_3 1_555 1_555
H10_3 C12_3 1_555 1_555
C13_3 C12_3 1_555 1_555
C14_3 C13_3 1_555 1_555
H11_3 C14_3 1_555 1_555
C15_3 N3_2 1_555 1_555
H12_3 C15_3 1_555 1_555
Ni8 N3_2 1_555 1_555
C14_3 C15_3 1_555 1_555
O5_2 C28_3 1_555 1_555
Ni8 O5_2 1_555 1_555
Ni7_2 O1_3 1_555 1_555
O2_3 Ni7_2 1_555 1_555
N1_3 Ni7_2 1_555 1_555
N13_2 C6_3 1_555 1_555
N4_3 C16_3 1_555 1_555
N5_3 C17_3 1_555 1_555
N6_3 C16_3 1_555 1_555
C1_3 N1_3 1_555 1_555
H1_3 C1_3 1_555 1_555
C2_3 C1_3 1_555 1_555
H2_3 C2_3 1_555 1_555
C3_3 C2_3 1_555 1_555
C4_3 C3_3 1_555 1_555
H3_3 C4_3 1_555 1_555
C5_3 N1_3 1_555 1_555
H4_3 C5_3 1_555 1_555
C6_3 H5_3 1_555 1_555
C7_3 C6_3 1_555 1_555
H6_3 C7_3 1_555 1_555
C8_3 C7_3 1_555 1_555
C9_3 C8_3 1_555 1_555
H7_3 C9_3 1_555 1_555
C10_3 N13_2 1_555 1_555
H8_3 C10_3 1_555 1_555
C16_3 C3_3 1_555 1_555
C17_3 N4_3 1_555 1_555
C18_3 N5_3 1_555 1_555
C19_3 O2_3 1_555 1_555
C20_3 C19_3 1_555 1_555
C24_3 C23_3 1_555 1_555
C25_2 C24_3 1_555 1_555
H15_2 C25_2 1_555 1_555
C26_2 C25_2 1_555 1_555
H16_2 C26_2 1_555 1_555
C27_2 C26_2 1_555 1_555
C29_3 C20_3 1_555 1_555
H17_3 C29_3 1_555 1_555
C30_3 C23_3 1_555 1_555
H18_3 C30_3 1_555 1_555
O6_2 Ni7_2 1_555 1_555
N16_2 Ni7_2 1_555 1_555
N6_3 C18_3 1_555 1_555
C4_3 C5_3 1_555 1_555
C8_3 C17_3 1_555 1_555
C9_3 C10_3 1_555 1_555
C29_3 C30_3 1_555 1_555
N9_2 C43_3 1_555 1_555
C43_3 H29_3 1_555 1_555
C44_3 C43_3 1_555 1_555
H30_3 C44_3 1_555 1_555
C45_3 C44_3 1_555 1_555
C46_3 C45_3 1_555 1_555
H31_3 C46_3 1_555 1_555
C47_3 N9_2 1_555 1_555
H32_3 C47_3 1_555 1_555
Ni7 N9_2 1_555 1_555
C46_3 C47_3 1_555 1_555
O3_2 C28_4 1_555 1_555
Ni7 O3_2 1_555 1_555
O1_4 Ni8_2 1_555 1_555
C20_4 C19_4 1_555 1_555
C21_3 C20_4 1_555 1_555
H13_3 C21_3 1_555 1_555
C22_3 C21_3 1_555 1_555
H14_3 C22_3 1_555 1_555
C23_4 C22_3 1_555 1_555
C24_4 C23_4 1_555 1_555
O4_3 C19_4 1_555 1_555
C31_2 C24_4 1_555 1_555
H19_2 C31_2 1_555 1_555
C32_2 C27_3 1_555 1_555
H20_2 C32_2 1_555 1_555
Ni8_2 O4_3 1_555 1_555
N7_3 Ni8_2 1_555 1_555
N14_2 C38_3 1_555 1_555
N10_3 C48_3 1_555 1_555
N11_3 C49_3 1_555 1_555
N12_3 C48_3 1_555 1_555
C33_3 N7_3 1_555 1_555
H21_3 C33_3 1_555 1_555
C34_3 C33_3 1_555 1_555
H22_3 C34_3 1_555 1_555
C35_3 C34_3 1_555 1_555
C36_3 C35_3 1_555 1_555
H23_3 C36_3 1_555 1_555
C37_3 N7_3 1_555 1_555
H24_3 C37_3 1_555 1_555
C38_3 H25_3 1_555 1_555
C39_3 C38_3 1_555 1_555
H26_3 C39_3 1_555 1_555
C40_3 C39_3 1_555 1_555
C41_3 C40_3 1_555 1_555
H27_3 C41_3 1_555 1_555
C42_3 N14_2 1_555 1_555
H28_3 C42_3 1_555 1_555
C48_3 C35_3 1_555 1_555
C49_3 N10_3 1_555 1_555
C50_3 N11_3 1_555 1_555
O7_2 Ni8_2 1_555 1_555
N15_2 Ni8_2 1_555 1_555
C31_2 C32_2 1_555 1_555
N12_3 C50_3 1_555 1_555
C36_3 C37_3 1_555 1_555
C40_3 C49_3 1_555 1_555
C41_3 C42_3 1_555 1_555
O1_5 Ni8 1_555 1_555
O6_2 C28_5 1_555 1_555
C20_5 C19_5 1_555 1_555
C21_4 C20_5 1_555 1_555
H13_4 C21_4 1_555 1_555
C22_4 C21_4 1_555 1_555
H14_4 C22_4 1_555 1_555
C23_5 C22_4 1_555 1_555
C24_5 C23_5 1_555 1_555
C28_5 C27_4 1_555 1_555
O4_4 C19_5 1_555 1_555
C31_3 C24_5 1_555 1_555
H19_3 C31_3 1_555 1_555
C32_3 C27_4 1_555 1_555
H20_3 C32_3 1_555 1_555
Ni8 O4_4 1_555 1_555
C31_3 C32_3 1_555 1_555
N14 C38_4 1_555 1_555
N10_4 C48_4 1_555 1_555
N11_4 C49_4 1_555 1_555
N12_4 C48_4 1_555 1_555
C33_4 N7_4 1_555 1_555
H21_4 C33_4 1_555 1_555
C34_4 C33_4 1_555 1_555
H22_4 C34_4 1_555 1_555
C35_4 C34_4 1_555 1_555
C36_4 C35_4 1_555 1_555
H23_4 C36_4 1_555 1_555
C37_4 N7_4 1_555 1_555
H24_4 C37_4 1_555 1_555
C38_4 H25_4 1_555 1_555
C39_4 C38_4 1_555 1_555
H26_4 C39_4 1_555 1_555
C40_4 C39_4 1_555 1_555
C41_4 C40_4 1_555 1_555
H27_4 C41_4 1_555 1_555
C42_4 N14 1_555 1_555
H28_4 C42_4 1_555 1_555
C48_4 C35_4 1_555 1_555
C49_4 N10_4 1_555 1_555
C50_4 N11_4 1_555 1_555
N12_4 C50_4 1_555 1_555
C36_4 C37_4 1_555 1_555
C40_4 C49_4 1_555 1_555
C41_4 C42_4 1_555 1_555
N16_2 C43_4 1_555 1_555
C43_4 H29_4 1_555 1_555
C44_4 C43_4 1_555 1_555
H30_4 C44_4 1_555 1_555
C45_4 C44_4 1_555 1_555
C46_4 C45_4 1_555 1_555
H31_4 C46_4 1_555 1_555
C47_4 N16_2 1_555 1_555
H32_4 C47_4 1_555 1_555
C46_4 C47_4 1_555 1_555
Ni7 O1_6 1_555 1_555
O2_4 Ni7 1_555 1_555
C19_6 O2_4 1_555 1_555
C20_6 C19_6 1_555 1_555
C24_6 C23_6 1_555 1_555
C25_3 C24_6 1_555 1_555
H15_3 C25_3 1_555 1_555
C26_3 C25_3 1_555 1_555
H16_3 C26_3 1_555 1_555
C27_5 C26_3 1_555 1_555
C28_6 C27_5 1_555 1_555
O7_2 C28_6 1_555 1_555
C29_4 C20_6 1_555 1_555
H17_4 C29_4 1_555 1_555
C30_4 C23_6 1_555 1_555
H18_4 C30_4 1_555 1_555
C29_4 C30_4 1_555 1_555
N13 C6_4 1_555 1_555
N4_4 C16_4 1_555 1_555
N5_4 C17_4 1_555 1_555
N6_4 C16_4 1_555 1_555
C1_4 N1_4 1_555 1_555
H1_4 C1_4 1_555 1_555
C2_4 C1_4 1_555 1_555
H2_4 C2_4 1_555 1_555
C3_4 C2_4 1_555 1_555
C4_4 C3_4 1_555 1_555
H3_4 C4_4 1_555 1_555
C5_4 N1_4 1_555 1_555
H4_4 C5_4 1_555 1_555
C6_4 H5_4 1_555 1_555
C7_4 C6_4 1_555 1_555
H6_4 C7_4 1_555 1_555
C8_4 C7_4 1_555 1_555
C9_4 C8_4 1_555 1_555
H7_4 C9_4 1_555 1_555
C10_4 N13 1_555 1_555
H8_4 C10_4 1_555 1_555
C16_4 C3_4 1_555 1_555
C17_4 N4_4 1_555 1_555
C18_4 N5_4 1_555 1_555
N6_4 C18_4 1_555 1_555
C4_4 C5_4 1_555 1_555
C8_4 C17_4 1_555 1_555
C9_4 C10_4 1_555 1_555
N15_2 C11_4 1_555 1_555
C11_4 H9_4 1_555 1_555
C12_4 C11_4 1_555 1_555
H10_4 C12_4 1_555 1_555
C13_4 C12_4 1_555 1_555
C14_4 C13_4 1_555 1_555
H11_4 C14_4 1_555 1_555
C15_4 N15_2 1_555 1_555
H12_4 C15_4 1_555 1_555
C14_4 C15_4 1_555 1_555
H15_4 C25_4 1_555 1_555
C26_4 C25_4 1_555 1_555
H16_4 C26_4 1_555 1_555
C27_6 C26_4 1_555 1_555
H19_4 C31_4 1_555 1_555
C32_4 C27_6 1_555 1_555
H20_4 C32_4 1_555 1_555
C31_4 C32_4 1_555 1_555

#END
