
###############################################################################
#
# This file contains modified crystal structure data generated from the
# MOF subset of the Cambridge Structural Database (CSD) v543 
# hosted by the Cambridge Crystallographic Data Centre (CCDC).
#
# This work is licensed under the Creative Commons
# Attribution-NonCommercial-ShareAlike 4.0 International License.
# To view a copy of this license, visit
# http://creativecommons.org/licenses/by-nc-sa/4.0/
# or send a letter to
# Creative Commons, PO Box 1866, Mountain View, CA 94042, USA.
#
# CIF created using the CSD Python API on 29 September 2022
# The structure has been converted into the P1 space group
# The structure has a 3D framework
# The original CSD entry XEDGIY is in the monoclinic crystal system
# The framework has been calculated to contain at least 10.0% void space
# The void calculation uses a probe of radius 1.32A, grid spacing 0.4
# H atom positions have been added when not included in the experimental data
#
###############################################################################

data_XEDGIY
_chemical_formula_moiety         '(C324 H220 Cd12 N4 O62)n'
_symmetry_cell_setting           triclinic
_symmetry_space_group_name_H-M   'P 1'
_symmetry_Int_Tables_number      1
_space_group_name_Hall           'P 1'
loop_
_symmetry_equiv_pos_site_id
_symmetry_equiv_pos_as_xyz
1 x,y,z
_cell_length_a                   14.306(2)
_cell_length_b                   19.509(3)
_cell_length_c                   36.482(5)
_cell_angle_alpha                90
_cell_angle_beta                 99.6290(9)
_cell_angle_gamma                90
_cell_volume                     10038.5
loop_
_atom_site_label
_atom_site_type_symbol
_atom_site_fract_x
_atom_site_fract_y
_atom_site_fract_z
Cd1 Cd 0.31783(3) 0.01968(2) 0.304934(11)
C67 C 0.0260(4) 0.0221(3) 0.15280(16)
C68 C 0.0773(4) 0.0312(3) 0.18831(16)
H36 H 0.0630 0.0687 0.2030
O11 O 0.1905(3) 0.0467(2) 0.26019(12)
O17 O 0.3364(3) 0.1119(2) 0.33884(11)
O18 O 0.4738(3) 0.0708(2) 0.37010(11)
O19 O 0.4468(3) 0.0564(2) 0.28135(11)
O23 O 0.6667(3) 0.0771(2) 0.33428(11)
Cd2 Cd 0.55313(3) 0.99989(2) 0.337326(11)
C1 C 0.3664(5) 0.9094(3) 0.34990(16)
C2 C 0.3840(4) 0.8460(3) 0.37364(15)
C3 C 0.3414(4) 0.8368(3) 0.40381(15)
H1 H 0.3044 0.8731 0.4112
C4 C 0.3499(4) 0.7751(3) 0.42470(14)
C5 C 0.4042(4) 0.7215(3) 0.41312(14)
C6 C 0.4538(4) 0.7332(3) 0.38212(15)
H2 H 0.4938 0.6986 0.3749
C7 C 0.4433(4) 0.7929(3) 0.36351(16)
H3 H 0.4760 0.7999 0.3432
C8 C 0.4096(4) 0.6586(3) 0.43180(13)
H4 H 0.4445 0.6220 0.4235
C9 C 0.3649(4) 0.6489(3) 0.46208(14)
C10 C 0.3149(4) 0.7046(3) 0.47452(14)
H5 H 0.2859 0.6993 0.4960
C11 C 0.3078(4) 0.7657(3) 0.45613(14)
H6 H 0.2736 0.8023 0.4648
C12 C 0.4079(5) 0.1136(3) 0.36491(17)
C13 C 0.4092(4) 0.1721(3) 0.39131(16)
C14 C 0.4707(5) 0.1719(3) 0.42669(17)
H7 H 0.5128 0.1345 0.4328
C15 C 0.4707(4) 0.2232(3) 0.45172(16)
H8 H 0.5126 0.2214 0.4748
C16 C 0.4084(4) 0.2795(3) 0.44345(14)
C17 C 0.3463(4) 0.2817(3) 0.40827(15)
C18 C 0.3493(4) 0.2262(3) 0.38297(16)
H9 H 0.3082 0.2270 0.3596
C19 C 0.4090(4) 0.3366(3) 0.46731(14)
H10 H 0.4489 0.3357 0.4909
C20 C 0.3539(4) 0.3936(3) 0.45749(13)
C21 C 0.2893(4) 0.3927(3) 0.42298(14)
H11 H 0.2478 0.4304 0.4167
C22 C 0.2860(4) 0.3396(3) 0.39932(15)
H12 H 0.2432 0.3406 0.3764
C23 C 0.4886(5) 0.4818(3) 0.76191(17)
C24 C 0.4633(5) 0.4770(3) 0.71928(17)
C25 C 0.4967(5) 0.5258(3) 0.69878(17)
H13 H 0.5355 0.5614 0.7107
C26 C 0.4738(4) 0.5243(3) 0.65897(16)
C27 C 0.4154(4) 0.4699(3) 0.64271(16)
C28 C 0.3810(5) 0.4209(3) 0.66454(16)
H14 H 0.3416 0.3849 0.6533
C29 C 0.4044(5) 0.4249(4) 0.70294(16)
H15 H 0.3802 0.3920 0.7181
C30 C 0.5061(4) 0.5726(3) 0.63730(17)
H16 H 0.5454 0.6088 0.6484
C31 C 0.4815(4) 0.5691(3) 0.59899(14)
H17 H 0.5046 0.6034 0.5843
C32 C 0.4239(4) 0.5169(3) 0.58102(14)
C33 C 0.3915(4) 0.4659(3) 0.60208(15)
H18 H 0.3544 0.4291 0.5905
C34 C 0.3698(3) 0.5809(3) 0.48177(13)
C35 C 0.3574(4) 0.5209(3) 0.46215(14)
H19 H 0.3430 0.5227 0.4358
C36 C 0.3655(3) 0.4566(3) 0.47998(14)
C37 C 0.3875(4) 0.4563(3) 0.51864(13)
H20 H 0.3945 0.4135 0.5313
C38 C 0.3997(3) 0.5169(3) 0.53963(14)
C39 C 0.3881(3) 0.5793(3) 0.52086(13)
H21 H 0.3925 0.6210 0.5345
C62 C 0.2089(5) 0.9945(3) 0.24048(17)
C63 C 0.1509(5) 0.9851(3) 0.20283(17)
C64 C 0.1707(5) 0.9299(3) 0.18064(18)
H34 H 0.2198 0.8988 0.1902
C65 C 0.1211(5) 0.9197(3) 0.14547(17)
H35 H 0.1356 0.8817 0.1312
C66 C 0.0476(4) 0.9664(3) 0.13042(15)
H37 H 0.0105 0.9216 0.0791
O1 O 0.4224(3) 0.92420(18) 0.32807(10)
O2 O 0.2928(3) 0.9450(2) 0.35180(11)
O5 O 0.4468(3) 0.4436(2) 0.78135(11)
O6 O 0.5534(3) 0.5243(2) 0.77564(10)
O12 O 0.2721(3) 0.9530(2) 0.25181(11)
Cd5 Cd 0.31783(3) 0.48032(2) 0.804934(11)
Cd7 Cd 0.55313(3) 0.50011(2) 0.837326(11)
O20 O 0.5534(3) 0.9757(2) 0.27564(10)
O21 O 0.6744(3) 0.90605(18) 0.34826(10)
O22 O 0.5949(3) 0.93971(19) 0.39185(10)
C51 C 0.7432(5) 0.4134(3) 0.85795(16)
C52 C 0.7490(4) 0.3459(3) 0.87750(16)
C53 C 0.8252(4) 0.3321(3) 0.90537(16)
H28 H 0.8718 0.3666 0.9120
C54 C 0.8358(4) 0.2694(3) 0.92406(15)
C55 C 0.7673(4) 0.2182(3) 0.91360(15)
C56 C 0.6879(4) 0.2330(3) 0.88509(16)
H29 H 0.6408 0.1990 0.8779
C57 C 0.6797(4) 0.2958(3) 0.86819(16)
H30 H 0.6259 0.3054 0.8498
C58 C 0.9118(4) 0.2557(3) 0.95265(16)
H31 H 0.9589 0.2897 0.9596
C59 C 0.9191(4) 0.1936(3) 0.97081(16)
H32 H 0.9702 0.1861 0.9907
C60 C 0.8518(4) 0.1405(3) 0.96052(15)
C61 C 0.7774(4) 0.1537(3) 0.93192(14)
H33 H 0.7320 0.1188 0.9243
C74 C 0.8421(4) 0.0123(3) 0.96052(14)
H40 H 0.8227 0.0134 0.9343
C75 C 0.8609(4) 0.0739(3) 0.97981(14)
O9 O 0.6667(3) 0.4229(2) 0.83428(11)
O10 O 0.8099(3) 0.4552(2) 0.86476(12)
Cd10 Cd 0.81873(4) 0.55438(2) 0.836550(13)
C40 C 0.6491(4) 0.6021(3) 0.87961(16)
C41 C 0.6823(4) 0.6638(3) 0.90236(15)
C42 C 0.6575(4) 0.6703(3) 0.93832(16)
H22 H 0.6194 0.6360 0.9470
C43 C 0.6880(4) 0.7258(3) 0.96085(16)
H23 H 0.6718 0.7293 0.9850
C44 C 0.7435(4) 0.7772(3) 0.94761(15)
C45 C 0.7642(4) 0.7719(3) 0.91122(14)
C46 C 0.7328(4) 0.7141(3) 0.88931(15)
H24 H 0.7475 0.7104 0.8649
C47 C 0.8196(4) 0.8241(3) 0.89857(15)
H25 H 0.8364 0.8207 0.8745
C48 C 0.8495(4) 0.8795(3) 0.92065(14)
H26 H 0.8858 0.9143 0.9115
C49 C 0.8274(4) 0.8856(3) 0.95632(14)
C50 C 0.7767(4) 0.8346(3) 0.96950(14)
H27 H 0.7636 0.8378 0.9941
C73 C 0.8512(4) 0.9499(3) 0.97851(15)
C80 C 0.9515(5) 0.6754(4) 0.9572(2)
H46 H 0.9024 0.6399 0.9548
H48 H 0.9261 0.7183 0.9655
C81 C 0.9510(5) 0.6476(4) 0.8914(2)
H49 H 0.9749 0.6566 0.8692
O7 O 0.6744(3) 0.59395(18) 0.84826(10)
O8 O 0.5949(3) 0.56029(19) 0.89185(10)
O13 O 0.8935(3) 0.6005(2) 0.89111(11)
O14 O 0.8325(4) 0.6632(3) 0.81009(13)
O15 O 0.7619(5) 0.5231(3) 0.77692(15)
O16 O 0.9720(3) 0.5303(3) 0.82730(15)
N1 N 0.9818(4) 0.6865(3) 0.92062(19)
H50 H 0.830421 0.699102 0.829232
H51 H 0.893626 0.666177 0.800688
H52 H 0.73547 0.563931 0.762549
H53 H 0.814157 0.503482 0.765427
H55 H 0.975291 0.48223 0.818659
C23_2 C 0.4886(5) 0.0182(3) 0.26191(17)
C24_2 C 0.4633(5) 0.0230(3) 0.21928(17)
C27_2 C 0.4154(4) 0.0301(3) 0.14271(16)
C28_2 C 0.3810(5) 0.0791(3) 0.16454(16)
H14_2 H 0.3416 0.1151 0.1533
C29_2 C 0.4044(5) 0.0751(4) 0.20294(16)
H15_2 H 0.3802 0.1080 0.2181
C33_2 C 0.3915(4) 0.0341(3) 0.10208(15)
H18_2 H 0.3544 0.0709 0.0905
C37_2 C 0.3875(4) 0.0437(3) 0.01864(13)
H20_2 H 0.3945 0.0865 0.0313
C12_2 C 0.4079(5) 0.3864(3) 0.86491(17)
C13_2 C 0.4092(4) 0.3279(3) 0.89131(16)
C14_2 C 0.4707(5) 0.3281(3) 0.92669(17)
H7_2 H 0.5128 0.3655 0.9328
C15_2 C 0.4707(4) 0.2768(3) 0.95172(16)
H8_2 H 0.5126 0.2786 0.9748
C16_2 C 0.4084(4) 0.2205(3) 0.94345(14)
C17_2 C 0.3463(4) 0.2183(3) 0.90827(15)
C18_2 C 0.3493(4) 0.2738(3) 0.88297(16)
H9_2 H 0.3082 0.2730 0.8596
C19_2 C 0.4090(4) 0.1634(3) 0.96731(14)
H10_2 H 0.4489 0.1643 0.9909
C20_2 C 0.3539(4) 0.1064(3) 0.95749(13)
C21_2 C 0.2893(4) 0.1073(3) 0.92298(14)
H11_2 H 0.2478 0.0696 0.9167
C22_2 C 0.2860(4) 0.1604(3) 0.89932(15)
H12_2 H 0.2432 0.1594 0.8764
C36_2 C 0.3655(3) 0.0434(3) 0.97998(14)
O3 O 0.3364(3) 0.3881(2) 0.83884(11)
O4 O 0.4738(3) 0.4292(2) 0.87010(11)
C25_2 C 0.4967(5) 0.9742(3) 0.19878(17)
H13_2 H 0.5355 0.9386 0.2107
C26_2 C 0.4738(4) 0.9757(3) 0.15897(16)
C30_2 C 0.5061(4) 0.9274(3) 0.13730(17)
H16_2 H 0.5454 0.8912 0.1484
C31_2 C 0.4815(4) 0.9309(3) 0.09899(14)
H17_2 H 0.5046 0.8966 0.0843
C32_2 C 0.4239(4) 0.9831(3) 0.08102(14)
C38_2 C 0.3997(3) 0.9831(3) 0.03963(14)
C39_2 C 0.3881(3) 0.9207(3) 0.02086(13)
H21_2 H 0.3925 0.8790 0.0345
C1_2 C 0.3664(5) 0.5906(3) 0.84990(16)
C2_2 C 0.3840(4) 0.6540(3) 0.87364(15)
C3_2 C 0.3414(4) 0.6632(3) 0.90381(15)
H1_2 H 0.3044 0.6269 0.9112
C4_2 C 0.3499(4) 0.7249(3) 0.92470(14)
C5_2 C 0.4042(4) 0.7785(3) 0.91312(14)
C6_2 C 0.4538(4) 0.7668(3) 0.88212(15)
H2_2 H 0.4938 0.8014 0.8749
C7_2 C 0.4433(4) 0.7071(3) 0.86351(16)
H3_2 H 0.4760 0.7001 0.8432
C8_2 C 0.4096(4) 0.8414(3) 0.93180(13)
H4_2 H 0.4445 0.8780 0.9235
C9_2 C 0.3649(4) 0.8511(3) 0.96208(14)
C10_2 C 0.3149(4) 0.7954(3) 0.97452(14)
H5_2 H 0.2859 0.8007 0.9960
C11_2 C 0.3078(4) 0.7343(3) 0.95613(14)
H6_2 H 0.2736 0.6977 0.9648
C34_2 C 0.3698(3) 0.9191(3) 0.98177(13)
C35_2 C 0.3574(4) 0.9791(3) 0.96215(14)
H19_2 H 0.3430 0.9773 0.9358
C62_2 C 0.2089(5) 0.5055(3) 0.74048(17)
C63_2 C 0.1509(5) 0.5149(3) 0.70283(17)
C64_2 C 0.1707(5) 0.5701(3) 0.68064(18)
H34_2 H 0.2198 0.6012 0.6902
C65_2 C 0.1211(5) 0.5803(3) 0.64547(17)
H35_2 H 0.1356 0.6183 0.6312
C66_2 C 0.0476(4) 0.5336(3) 0.63042(15)
C67_2 C 0.0260(4) 0.4779(3) 0.65280(16)
C68_2 C 0.0773(4) 0.4688(3) 0.68831(16)
H36_2 H 0.0630 0.4313 0.7030
H37_2 H 0.0105 0.5784 0.5791
C79 C 0.0523(5) 0.7592(4) 0.4185(2)
H43 H 0.0666 0.7571 0.3931
H44 H 0.0267 0.7150 0.4249
H45 H 0.1104 0.7694 0.4360
H47 H 0.0061 0.8392 0.4754
O1_2 O 0.4224(3) 0.57580(18) 0.82807(10)
O2_2 O 0.2928(3) 0.5550(2) 0.85180(11)
O11_2 O 0.1905(3) 0.4533(2) 0.76019(12)
O12_2 O 0.2721(3) 0.5470(2) 0.75181(11)
H54 H 0.0165844 0.963546 0.351031
O24 O 0.8099(3) 0.0448(2) 0.36476(12)
H55_2 H 0.975291 0.0177704 0.318659
Cd3 Cd 0.81873(4) 0.94562(2) 0.336550(13)
C40_2 C 0.6491(4) 0.8979(3) 0.37961(16)
C41_2 C 0.6823(4) 0.8362(3) 0.40236(15)
C42_2 C 0.6575(4) 0.8297(3) 0.43832(16)
H22_2 H 0.6194 0.8640 0.4470
C43_2 C 0.6880(4) 0.7742(3) 0.46085(16)
H23_2 H 0.6718 0.7707 0.4850
C44_2 C 0.7435(4) 0.7228(3) 0.44761(15)
C45_2 C 0.7642(4) 0.7281(3) 0.41122(14)
C46_2 C 0.7328(4) 0.7859(3) 0.38931(15)
H24_2 H 0.7475 0.7896 0.3649
C47_2 C 0.8196(4) 0.6759(3) 0.39857(15)
H25_2 H 0.8364 0.6793 0.3745
C48_2 C 0.8495(4) 0.6205(3) 0.42065(14)
H26_2 H 0.8858 0.5857 0.4115
C49_2 C 0.8274(4) 0.6144(3) 0.45632(14)
C50_2 C 0.7767(4) 0.6654(3) 0.46950(14)
H27_2 H 0.7636 0.6622 0.4941
C51_2 C 0.7432(5) 0.0866(3) 0.35795(16)
C52_2 C 0.7490(4) 0.1541(3) 0.37750(16)
C53_2 C 0.8252(4) 0.1679(3) 0.40537(16)
H28_2 H 0.8718 0.1334 0.4120
C54_2 C 0.8358(4) 0.2306(3) 0.42406(15)
C55_2 C 0.7673(4) 0.2818(3) 0.41360(15)
C56_2 C 0.6879(4) 0.2670(3) 0.38509(16)
H29_2 H 0.6408 0.3010 0.3779
C57_2 C 0.6797(4) 0.2042(3) 0.36819(16)
H30_2 H 0.6259 0.1946 0.3498
C58_2 C 0.9118(4) 0.2443(3) 0.45265(16)
H31_2 H 0.9589 0.2103 0.4596
C59_2 C 0.9191(4) 0.3064(3) 0.47081(16)
H32_2 H 0.9702 0.3139 0.4907
C60_2 C 0.8518(4) 0.3595(3) 0.46052(15)
C61_2 C 0.7774(4) 0.3463(3) 0.43192(14)
H33_2 H 0.7320 0.3812 0.4243
C69 C 0.9987(4) 0.5398(3) 0.59344(15)
C70 C 0.9354(4) 0.4919(3) 0.57812(14)
C71 C 0.9118(4) 0.4377(3) 0.60071(15)
H38 H 0.8649 0.4052 0.5907
C72 C 0.9564(4) 0.4317(3) 0.63711(16)
H39 H 0.9392 0.3952 0.6519
C73_2 C 0.8512(4) 0.5501(3) 0.47851(15)
C74_2 C 0.8421(4) 0.4877(3) 0.46052(14)
H40_2 H 0.8227 0.4866 0.4343
C75_2 C 0.8609(4) 0.4261(3) 0.47981(14)
C76 C 0.8905(4) 0.4302(3) 0.51818(14)
H41 H 0.9045 0.3889 0.5318
C77 C 0.9004(4) 0.4921(3) 0.53737(14)
C78 C 0.8803(4) 0.5515(3) 0.51681(14)
H42 H 0.8864 0.5945 0.5292
C80_2 C 0.9515(5) 0.8246(4) 0.4572(2)
H46_2 H 0.9024 0.8601 0.4548
H48_2 H 0.9261 0.7817 0.4655
C81_2 C 0.9510(5) 0.8524(4) 0.3914(2)
H49_2 H 0.9749 0.8434 0.3692
O13_2 O 0.8935(3) 0.8995(2) 0.39111(11)
O14_2 O 0.8325(4) 0.8368(3) 0.31009(13)
O15_2 O 0.7619(5) 0.9769(3) 0.27692(15)
O16_2 O 0.9720(3) 0.9697(3) 0.32730(15)
N1_2 N 0.9818(4) 0.8135(3) 0.42062(19)
H50_2 H 0.830421 0.800898 0.329232
H51_2 H 0.893626 0.833823 0.300688
H52_2 H 0.73547 0.936069 0.262549
H53_2 H 0.814157 0.996518 0.265427
C79_2 C 0.0523(5) 0.7408(4) 0.9185(2)
H43_2 H 0.0666 0.7429 0.8931
H44_2 H 0.0267 0.7850 0.9249
H45_2 H 0.1104 0.7306 0.9360
H47_2 H 0.0061 0.6608 0.9754
H54_2 H 0.0165844 0.536454 0.851031
C70_2 C 0.9354(4) 0.0081(3) 0.07812(14)
C71_2 C 0.9118(4) 0.0623(3) 0.10071(15)
H38_2 H 0.8649 0.0948 0.0907
C72_2 C 0.9564(4) 0.0683(3) 0.13711(16)
H39_2 H 0.9392 0.1048 0.1519
C76_2 C 0.8905(4) 0.0698(3) 0.01818(14)
H41_2 H 0.9045 0.1111 0.0318
C77_2 C 0.9004(4) 0.0079(3) 0.03737(14)
C69_2 C 0.9987(4) 0.9602(3) 0.09344(15)
C78_2 C 0.8803(4) 0.9485(3) 0.01681(14)
H42_2 H 0.8864 0.9055 0.0292
Cd9 Cd 0.44687(3) 0.00011(2) 0.662674(11)
Cd10_2 Cd 0.18127(4) 0.05438(2) 0.663450(13)
C40_3 C 0.3509(4) 0.1021(3) 0.62039(16)
C41_3 C 0.3177(4) 0.1638(3) 0.59764(15)
C42_3 C 0.3425(4) 0.1703(3) 0.56168(16)
H22_3 H 0.3806 0.1360 0.5530
C43_3 C 0.3120(4) 0.2258(3) 0.53915(16)
H23_3 H 0.3282 0.2293 0.5150
C44_3 C 0.2565(4) 0.2772(3) 0.55239(15)
C45_3 C 0.2358(4) 0.2719(3) 0.58878(14)
C46_3 C 0.2672(4) 0.2141(3) 0.61069(15)
H24_3 H 0.2525 0.2104 0.6351
C47_3 C 0.1804(4) 0.3241(3) 0.60143(15)
H25_3 H 0.1636 0.3207 0.6255
C48_3 C 0.1505(4) 0.3795(3) 0.57935(14)
H26_3 H 0.1142 0.4143 0.5885
C49_3 C 0.1726(4) 0.3856(3) 0.54368(14)
C50_3 C 0.2233(4) 0.3346(3) 0.53050(14)
H27_3 H 0.2364 0.3378 0.5059
C51_3 C 0.2568(5) 0.9134(3) 0.64205(16)
C52_3 C 0.2510(4) 0.8459(3) 0.62250(16)
C53_3 C 0.1748(4) 0.8321(3) 0.59463(16)
H28_3 H 0.1282 0.8666 0.5880
C54_3 C 0.1642(4) 0.7694(3) 0.57594(15)
C55_3 C 0.2327(4) 0.7182(3) 0.58640(15)
C56_3 C 0.3121(4) 0.7330(3) 0.61491(16)
H29_3 H 0.3592 0.6990 0.6221
C57_3 C 0.3203(4) 0.7958(3) 0.63181(16)
H30_3 H 0.3741 0.8054 0.6502
C58_3 C 0.0882(4) 0.7557(3) 0.54735(16)
H31_3 H 0.0411 0.7897 0.5404
C59_3 C 0.0809(4) 0.6936(3) 0.52919(16)
H32_3 H 0.0298 0.6861 0.5093
C60_3 C 0.1482(4) 0.6405(3) 0.53948(15)
C61_3 C 0.2226(4) 0.6537(3) 0.56808(14)
H33_3 H 0.2680 0.6188 0.5757
C69_3 C 0.0013(4) 0.4602(3) 0.40656(15)
C70_3 C 0.0646(4) 0.5081(3) 0.42188(14)
C71_3 C 0.0882(4) 0.5623(3) 0.39929(15)
H38_3 H 0.1351 0.5948 0.4093
C72_3 C 0.0436(4) 0.5683(3) 0.36289(16)
H39_3 H 0.0608 0.6048 0.3481
C73_3 C 0.1488(4) 0.4499(3) 0.52149(15)
C74_3 C 0.1579(4) 0.5123(3) 0.53948(14)
H40_3 H 0.1773 0.5134 0.5657
C75_3 C 0.1391(4) 0.5739(3) 0.52019(14)
C76_3 C 0.1095(4) 0.5698(3) 0.48182(14)
H41_3 H 0.0955 0.6111 0.4682
C77_3 C 0.0996(4) 0.5079(3) 0.46263(14)
C78_3 C 0.1197(4) 0.4485(3) 0.48319(14)
H42_3 H 0.1136 0.4055 0.4708
C80_3 C 0.0485(5) 0.1754(4) 0.5428(2)
H46_3 H 0.0976 0.1399 0.5452
H48_3 H 0.0739 0.2183 0.5345
C81_3 C 0.0490(5) 0.1476(4) 0.6086(2)
H49_3 H 0.0251 0.1566 0.6308
O7_2 O 0.3256(3) 0.09395(18) 0.65174(10)
O8_2 O 0.4051(3) 0.06029(19) 0.60815(10)
O9_2 O 0.3333(3) 0.9229(2) 0.66572(11)
O10_2 O 0.1901(3) 0.9552(2) 0.63524(12)
O13_3 O 0.1065(3) 0.1005(2) 0.60889(11)
O14_3 O 0.1675(4) 0.1632(3) 0.68991(13)
O15_3 O 0.2381(5) 0.0231(3) 0.72308(15)
O16_3 O 0.0280(3) 0.0303(3) 0.67270(15)
N1_3 N 0.0182(4) 0.1865(3) 0.57938(19)
H50_3 H 0.169579 0.199102 0.670768
H51_3 H 0.106374 0.166177 0.699312
H52_3 H 0.26453 0.0639315 0.737451
H53_3 H 0.185843 0.00348193 0.734573
H55_3 H 0.0247091 0.98223 0.681341
Cd1_2 Cd 0.68217(3) 0.51968(2) 0.195066(11)
Cd2_2 Cd 0.44687(3) 0.49989(2) 0.162674(11)
C1_3 C 0.6336(5) 0.4094(3) 0.15010(16)
C2_3 C 0.6160(4) 0.3460(3) 0.12636(15)
C3_3 C 0.6586(4) 0.3368(3) 0.09619(15)
H1_3 H 0.6956 0.3731 0.0888
C4_3 C 0.6501(4) 0.2751(3) 0.07530(14)
C5_3 C 0.5958(4) 0.2215(3) 0.08688(14)
C6_3 C 0.5462(4) 0.2332(3) 0.11788(15)
H2_3 H 0.5062 0.1986 0.1251
C7_3 C 0.5567(4) 0.2929(3) 0.13649(16)
H3_3 H 0.5240 0.2999 0.1568
C8_3 C 0.5904(4) 0.1586(3) 0.06820(13)
H4_3 H 0.5555 0.1220 0.0765
C9_3 C 0.6351(4) 0.1489(3) 0.03792(14)
C10_3 C 0.6851(4) 0.2046(3) 0.02548(14)
H5_3 H 0.7141 0.1993 0.0040
C11_3 C 0.6922(4) 0.2657(3) 0.04387(14)
H6_3 H 0.7264 0.3023 0.0352
C34_3 C 0.6302(3) 0.0809(3) 0.01823(13)
C35_3 C 0.6426(4) 0.0209(3) 0.03785(14)
H19_3 H 0.6570 0.0227 0.0642
C62_3 C 0.7911(5) 0.4945(3) 0.25952(17)
C63_3 C 0.8491(5) 0.4851(3) 0.29717(17)
C64_3 C 0.8293(5) 0.4299(3) 0.31936(18)
H34_3 H 0.7802 0.3988 0.3098
C65_3 C 0.8789(5) 0.4197(3) 0.35453(17)
H35_3 H 0.8644 0.3817 0.3688
C66_3 C 0.9524(4) 0.4664(3) 0.36958(15)
C67_3 C 0.9740(4) 0.5221(3) 0.34720(16)
C68_3 C 0.9227(4) 0.5312(3) 0.31169(16)
H36_3 H 0.9370 0.5687 0.2970
H37_3 H 0.9895 0.4216 0.4209
C79_3 C 0.9477(5) 0.2408(4) 0.5815(2)
H43_3 H 0.9334 0.2429 0.6069
H44_3 H 0.9733 0.2850 0.5751
H45_3 H 0.8896 0.2306 0.5640
H47_3 H 0.9939 0.1608 0.5246
O1_3 O 0.5776(3) 0.42420(18) 0.17193(10)
O2_3 O 0.7072(3) 0.4450(2) 0.14820(11)
O11_3 O 0.8095(3) 0.5467(2) 0.23981(12)
O12_3 O 0.7279(3) 0.4530(2) 0.24819(11)
O17_2 O 0.6636(3) 0.6119(2) 0.16116(11)
O18_2 O 0.5262(3) 0.5708(2) 0.12990(11)
O19_2 O 0.5532(3) 0.5564(2) 0.21865(11)
O20_2 O 0.4466(3) 0.4757(2) 0.22436(10)
O21_2 O 0.3256(3) 0.40605(18) 0.15174(10)
O22_2 O 0.4051(3) 0.43971(19) 0.10815(10)
O23_2 O 0.3333(3) 0.5771(2) 0.16572(11)
H54_3 H 0.983416 0.0364539 0.648969
C25_3 C 0.5033(5) 0.0258(3) 0.80122(17)
H13_3 H 0.4645 0.0614 0.7893
C26_3 C 0.5262(4) 0.0243(3) 0.84103(16)
C30_3 C 0.4939(4) 0.0726(3) 0.86270(17)
H16_3 H 0.4546 0.1088 0.8516
C31_3 C 0.5185(4) 0.0691(3) 0.90101(14)
H17_3 H 0.4954 0.1034 0.9157
C32_3 C 0.5761(4) 0.0169(3) 0.91898(14)
C38_3 C 0.6003(3) 0.0169(3) 0.96037(14)
C39_3 C 0.6119(3) 0.0793(3) 0.97914(13)
H21_3 H 0.6075 0.1210 0.9655
O6_2 O 0.4466(3) 0.0243(2) 0.72436(10)
C12_3 C 0.5921(5) 0.6136(3) 0.13509(17)
C13_3 C 0.5908(4) 0.6721(3) 0.10869(16)
C14_3 C 0.5293(5) 0.6719(3) 0.07331(17)
H7_3 H 0.4872 0.6345 0.0672
C15_3 C 0.5293(4) 0.7232(3) 0.04828(16)
H8_3 H 0.4874 0.7214 0.0252
C16_3 C 0.5916(4) 0.7795(3) 0.05655(14)
C17_3 C 0.6537(4) 0.7817(3) 0.09173(15)
C18_3 C 0.6507(4) 0.7262(3) 0.11703(16)
H9_3 H 0.6918 0.7270 0.1404
C19_3 C 0.5910(4) 0.8366(3) 0.03269(14)
H10_3 H 0.5511 0.8357 0.0091
C20_3 C 0.6461(4) 0.8936(3) 0.04251(13)
C21_3 C 0.7107(4) 0.8927(3) 0.07702(14)
H11_3 H 0.7522 0.9304 0.0833
C22_3 C 0.7140(4) 0.8396(3) 0.10068(15)
H12_3 H 0.7568 0.8406 0.1236
C36_3 C 0.6345(3) 0.9566(3) 0.02002(14)
C23_3 C 0.5114(5) 0.9818(3) 0.73809(17)
C24_3 C 0.5367(5) 0.9770(3) 0.78072(17)
C27_3 C 0.5846(4) 0.9699(3) 0.85729(16)
C28_3 C 0.6190(5) 0.9209(3) 0.83546(16)
H14_3 H 0.6584 0.8849 0.8467
C29_3 C 0.5956(5) 0.9249(4) 0.79706(16)
H15_3 H 0.6198 0.8920 0.7819
C33_3 C 0.6085(4) 0.9659(3) 0.89792(15)
H18_3 H 0.6456 0.9291 0.9095
C37_3 C 0.6125(4) 0.9563(3) 0.98136(13)
H20_3 H 0.6055 0.9135 0.9687
O5_2 O 0.5532(3) 0.9436(2) 0.71865(11)
Cd5_2 Cd 0.68217(3) 0.98032(2) 0.695066(11)
Cd3_2 Cd 0.18127(4) 0.44562(2) 0.163450(13)
C40_4 C 0.3509(4) 0.3979(3) 0.12039(16)
C41_4 C 0.3177(4) 0.3362(3) 0.09764(15)
C42_4 C 0.3425(4) 0.3297(3) 0.06168(16)
H22_4 H 0.3806 0.3640 0.0530
C43_4 C 0.3120(4) 0.2742(3) 0.03915(16)
H23_4 H 0.3282 0.2707 0.0150
C44_4 C 0.2565(4) 0.2228(3) 0.05239(15)
C45_4 C 0.2358(4) 0.2281(3) 0.08878(14)
C46_4 C 0.2672(4) 0.2859(3) 0.11069(15)
H24_4 H 0.2525 0.2896 0.1351
C47_4 C 0.1804(4) 0.1759(3) 0.10143(15)
H25_4 H 0.1636 0.1793 0.1255
C48_4 C 0.1505(4) 0.1205(3) 0.07935(14)
H26_4 H 0.1142 0.0857 0.0885
C49_4 C 0.1726(4) 0.1144(3) 0.04368(14)
C50_4 C 0.2233(4) 0.1654(3) 0.03050(14)
H27_4 H 0.2364 0.1622 0.0059
C73_4 C 0.1488(4) 0.0501(3) 0.02149(15)
C80_4 C 0.0485(5) 0.3246(4) 0.0428(2)
H46_4 H 0.0976 0.3601 0.0452
H48_4 H 0.0739 0.2817 0.0345
C81_4 C 0.0490(5) 0.3524(4) 0.1086(2)
H49_4 H 0.0251 0.3434 0.1308
O13_4 O 0.1065(3) 0.3995(2) 0.10889(11)
O14_4 O 0.1675(4) 0.3368(3) 0.18991(13)
O15_4 O 0.2381(5) 0.4769(3) 0.22308(15)
O16_4 O 0.0280(3) 0.4697(3) 0.17270(15)
N1_4 N 0.0182(4) 0.3135(3) 0.07938(19)
O24_2 O 0.1901(3) 0.5448(2) 0.13524(12)
H50_4 H 0.169579 0.300898 0.170768
H51_4 H 0.106374 0.333823 0.199312
H52_4 H 0.26453 0.436069 0.237451
H53_4 H 0.185843 0.496518 0.234573
H55_4 H 0.0247091 0.51777 0.181341
C51_4 C 0.2568(5) 0.5866(3) 0.14205(16)
C52_4 C 0.2510(4) 0.6541(3) 0.12250(16)
C53_4 C 0.1748(4) 0.6679(3) 0.09463(16)
H28_4 H 0.1282 0.6334 0.0880
C54_4 C 0.1642(4) 0.7306(3) 0.07594(15)
C55_4 C 0.2327(4) 0.7818(3) 0.08640(15)
C56_4 C 0.3121(4) 0.7670(3) 0.11491(16)
H29_4 H 0.3592 0.8010 0.1221
C57_4 C 0.3203(4) 0.7042(3) 0.13181(16)
H30_4 H 0.3741 0.6946 0.1502
C58_4 C 0.0882(4) 0.7443(3) 0.04735(16)
H31_4 H 0.0411 0.7103 0.0404
C59_4 C 0.0809(4) 0.8064(3) 0.02919(16)
H32_4 H 0.0298 0.8139 0.0093
C60_4 C 0.1482(4) 0.8595(3) 0.03948(15)
C61_4 C 0.2226(4) 0.8463(3) 0.06808(14)
H33_4 H 0.2680 0.8812 0.0757
C74_4 C 0.1579(4) 0.9877(3) 0.03948(14)
H40_4 H 0.1773 0.9866 0.0657
C75_4 C 0.1391(4) 0.9261(3) 0.02019(14)
C1_4 C 0.6336(5) 0.0906(3) 0.65010(16)
C2_4 C 0.6160(4) 0.1540(3) 0.62636(15)
C3_4 C 0.6586(4) 0.1632(3) 0.59619(15)
H1_4 H 0.6956 0.1269 0.5888
C4_4 C 0.6501(4) 0.2249(3) 0.57530(14)
C5_4 C 0.5958(4) 0.2785(3) 0.58688(14)
C6_4 C 0.5462(4) 0.2668(3) 0.61788(15)
H2_4 H 0.5062 0.3014 0.6251
C7_4 C 0.5567(4) 0.2071(3) 0.63649(16)
H3_4 H 0.5240 0.2001 0.6568
C8_4 C 0.5904(4) 0.3414(3) 0.56820(13)
H4_4 H 0.5555 0.3780 0.5765
C9_4 C 0.6351(4) 0.3511(3) 0.53792(14)
C10_4 C 0.6851(4) 0.2954(3) 0.52548(14)
H5_4 H 0.7141 0.3007 0.5040
C11_4 C 0.6922(4) 0.2343(3) 0.54387(14)
H6_4 H 0.7264 0.1977 0.5352
C12_4 C 0.5921(5) 0.8864(3) 0.63509(17)
C13_4 C 0.5908(4) 0.8279(3) 0.60869(16)
C14_4 C 0.5293(5) 0.8281(3) 0.57331(17)
H7_4 H 0.4872 0.8655 0.5672
C15_4 C 0.5293(4) 0.7768(3) 0.54828(16)
H8_4 H 0.4874 0.7786 0.5252
C16_4 C 0.5916(4) 0.7205(3) 0.55655(14)
C17_4 C 0.6537(4) 0.7183(3) 0.59173(15)
C18_4 C 0.6507(4) 0.7738(3) 0.61703(16)
H9_4 H 0.6918 0.7730 0.6404
C19_4 C 0.5910(4) 0.6634(3) 0.53269(14)
H10_4 H 0.5511 0.6643 0.5091
C20_4 C 0.6461(4) 0.6064(3) 0.54251(13)
C21_4 C 0.7107(4) 0.6073(3) 0.57702(14)
H11_4 H 0.7522 0.5696 0.5833
C22_4 C 0.7140(4) 0.6604(3) 0.60068(15)
H12_4 H 0.7568 0.6594 0.6236
C23_4 C 0.5114(5) 0.5182(3) 0.23809(17)
C24_4 C 0.5367(5) 0.5230(3) 0.28072(17)
C25_4 C 0.5033(5) 0.4742(3) 0.30122(17)
H13_4 H 0.4645 0.4386 0.2893
C26_4 C 0.5262(4) 0.4757(3) 0.34103(16)
C27_4 C 0.5846(4) 0.5301(3) 0.35729(16)
C28_4 C 0.6190(5) 0.5791(3) 0.33546(16)
H14_4 H 0.6584 0.6151 0.3467
C29_4 C 0.5956(5) 0.5751(4) 0.29706(16)
H15_4 H 0.6198 0.6080 0.2819
C30_4 C 0.4939(4) 0.4274(3) 0.36270(17)
H16_4 H 0.4546 0.3912 0.3516
C31_4 C 0.5185(4) 0.4309(3) 0.40101(14)
H17_4 H 0.4954 0.3966 0.4157
C32_4 C 0.5761(4) 0.4831(3) 0.41898(14)
C33_4 C 0.6085(4) 0.5341(3) 0.39792(15)
H18_4 H 0.6456 0.5709 0.4095
C34_4 C 0.6302(3) 0.4191(3) 0.51823(13)
C35_4 C 0.6426(4) 0.4791(3) 0.53785(14)
H19_4 H 0.6570 0.4773 0.5642
C36_4 C 0.6345(3) 0.5434(3) 0.52002(14)
C37_4 C 0.6125(4) 0.5437(3) 0.48136(13)
H20_4 H 0.6055 0.5865 0.4687
C38_4 C 0.6003(3) 0.4831(3) 0.46037(14)
C39_4 C 0.6119(3) 0.4207(3) 0.47914(13)
H21_4 H 0.6075 0.3790 0.4655
C62_4 C 0.7911(5) 0.0055(3) 0.75952(17)
C63_4 C 0.8491(5) 0.0149(3) 0.79717(17)
C64_4 C 0.8293(5) 0.0701(3) 0.81936(18)
H34_4 H 0.7802 0.1012 0.8098
C65_4 C 0.8789(5) 0.0803(3) 0.85453(17)
H35_4 H 0.8644 0.1183 0.8688
C66_4 C 0.9524(4) 0.0336(3) 0.86958(15)
H37_4 H 0.9895 0.0784 0.9209
O1_4 O 0.5776(3) 0.07580(18) 0.67193(10)
O2_4 O 0.7072(3) 0.0550(2) 0.64820(11)
O3_2 O 0.6636(3) 0.8881(2) 0.66116(11)
O4_2 O 0.5262(3) 0.9292(2) 0.62990(11)
O12_4 O 0.7279(3) 0.0470(2) 0.74819(11)
C67_4 C 0.9740(4) 0.9779(3) 0.84720(16)
C68_4 C 0.9227(4) 0.9688(3) 0.81169(16)
H36_4 H 0.9370 0.9313 0.7970
O11_4 O 0.8095(3) 0.9533(2) 0.73981(12)
C69_4 C 0.0013(4) 0.0398(3) 0.90656(15)
C78_4 C 0.1197(4) 0.0515(3) 0.98319(14)
H42_4 H 0.1136 0.0945 0.9708
C70_4 C 0.0646(4) 0.9919(3) 0.92188(14)
C71_4 C 0.0882(4) 0.9377(3) 0.89929(15)
H38_4 H 0.1351 0.9052 0.9093
C72_4 C 0.0436(4) 0.9317(3) 0.86289(16)
H39_4 H 0.0608 0.8952 0.8481
C76_4 C 0.1095(4) 0.9302(3) 0.98182(14)
H41_4 H 0.0955 0.8889 0.9682
C77_4 C 0.0996(4) 0.9921(3) 0.96263(14)
C79_4 C 0.9477(5) 0.2592(4) 0.0815(2)
H43_4 H 0.9334 0.2571 0.1069
H44_4 H 0.9733 0.2150 0.0751
H45_4 H 0.8896 0.2694 0.0640
H47_4 H 0.9939 0.3392 0.0246
H54_4 H 0.983416 0.463546 0.148969
loop_
_geom_bond_atom_site_label_1
_geom_bond_atom_site_label_2
_geom_bond_site_symmetry_1
_geom_bond_site_symmetry_2
H36 C68 1_555 1_555
O11 Cd1 1_555 1_555
O17 Cd1 1_555 1_555
O19 Cd1 1_555 1_555
C67 C68 1_555 1_555
Cd2 O1 1_555 1_555
C1 C2 1_555 1_555
C2 C3 1_555 1_555
C3 H1 1_555 1_555
C4 C3 1_555 1_555
C5 C4 1_555 1_555
C6 C5 1_555 1_555
H2 C6 1_555 1_555
C7 C2 1_555 1_555
H3 C7 1_555 1_555
C8 C5 1_555 1_555
H4 C8 1_555 1_555
C9 C8 1_555 1_555
C10 C9 1_555 1_555
H5 C10 1_555 1_555
C11 C4 1_555 1_555
H6 C11 1_555 1_555
C12 C13 1_555 1_555
C13 C14 1_555 1_555
C14 H7 1_555 1_555
C15 C14 1_555 1_555
H8 C15 1_555 1_555
C16 C15 1_555 1_555
C17 C16 1_555 1_555
C18 C13 1_555 1_555
H9 C18 1_555 1_555
C19 C16 1_555 1_555
H10 C19 1_555 1_555
C20 C19 1_555 1_555
C21 C20 1_555 1_555
H11 C21 1_555 1_555
C22 C17 1_555 1_555
H12 C22 1_555 1_555
C23 C24 1_555 1_555
C24 C25 1_555 1_555
C25 H13 1_555 1_555
C26 C25 1_555 1_555
C27 C26 1_555 1_555
C28 C27 1_555 1_555
H14 C28 1_555 1_555
C29 C24 1_555 1_555
H15 C29 1_555 1_555
C30 C26 1_555 1_555
H16 C30 1_555 1_555
C31 C30 1_555 1_555
H17 C31 1_555 1_555
C32 C31 1_555 1_555
C33 C27 1_555 1_555
H18 C33 1_555 1_555
C34 C9 1_555 1_555
C35 C34 1_555 1_555
H19 C35 1_555 1_555
C36 C20 1_555 1_555
C37 C36 1_555 1_555
H20 C37 1_555 1_555
C38 C32 1_555 1_555
C39 C34 1_555 1_555
H21 C39 1_555 1_555
C62 C63 1_555 1_555
C63 C64 1_555 1_555
C64 H34 1_555 1_555
C65 C64 1_555 1_555
H35 C65 1_555 1_555
C66 C65 1_555 1_555
O1 C1 1_555 1_555
O17 C12 1_555 1_555
O18 C12 1_555 1_555
O5 C23 1_555 1_555
O6 C23 1_555 1_555
Cd5 O5 1_555 1_555
Cd7 O6 1_555 1_555
O20 Cd2 1_555 1_555
O21 Cd2 1_555 1_555
O22 Cd2 1_555 1_555
C1 O2 1_555 1_555
C6 C7 1_555 1_555
C10 C11 1_555 1_555
C17 C18 1_555 1_555
C21 C22 1_555 1_555
C28 C29 1_555 1_555
C32 C33 1_555 1_555
C35 C36 1_555 1_555
C37 C38 1_555 1_555
C38 C39 1_555 1_555
C62 O12 1_555 1_555
C51 C52 1_555 1_555
C52 C53 1_555 1_555
C53 H28 1_555 1_555
C54 C53 1_555 1_555
C55 C54 1_555 1_555
C56 C55 1_555 1_555
H29 C56 1_555 1_555
C57 C52 1_555 1_555
H30 C57 1_555 1_555
C58 C54 1_555 1_555
H31 C58 1_555 1_555
C59 C58 1_555 1_555
H32 C59 1_555 1_555
C60 C59 1_555 1_555
C61 C55 1_555 1_555
H33 C61 1_555 1_555
H40 C74 1_555 1_555
C75 C60 1_555 1_555
O9 C51 1_555 1_555
O10 C51 1_555 1_555
Cd7 O9 1_555 1_555
Cd10 O10 1_555 1_555
C56 C57 1_555 1_555
C60 C61 1_555 1_555
C74 C75 1_555 1_555
Cd10 O7 1_555 1_555
C40 C41 1_555 1_555
C41 C42 1_555 1_555
C42 H22 1_555 1_555
C43 C42 1_555 1_555
H23 C43 1_555 1_555
C44 C43 1_555 1_555
C45 C44 1_555 1_555
C46 C41 1_555 1_555
H24 C46 1_555 1_555
C47 C45 1_555 1_555
H25 C47 1_555 1_555
C48 C47 1_555 1_555
H26 C48 1_555 1_555
C49 C48 1_555 1_555
C50 C44 1_555 1_555
H27 C50 1_555 1_555
C73 C49 1_555 1_555
C80 H46 1_555 1_555
H48 C80 1_555 1_555
C81 H49 1_555 1_555
O7 C40 1_555 1_555
O8 C40 1_555 1_555
O13 Cd10 1_555 1_555
O14 Cd10 1_555 1_555
O15 Cd10 1_555 1_555
O16 Cd10 1_555 1_555
Cd7 O7 1_555 1_555
C45 C46 1_555 1_555
C49 C50 1_555 1_555
C80 N1 1_555 1_555
C81 O13 1_555 1_555
C81 N1 1_555 1_555
O8 Cd7 1_555 1_555
O14 H50 1_555 1_555
O14 H51 1_555 1_555
O15 H52 1_555 1_555
O15 H53 1_555 1_555
O16 H55 1_555 1_555
C23_2 C24_2 1_555 1_555
C28_2 C27_2 1_555 1_555
H14_2 C28_2 1_555 1_555
C29_2 C24_2 1_555 1_555
H15_2 C29_2 1_555 1_555
C33_2 C27_2 1_555 1_555
H18_2 C33_2 1_555 1_555
H20_2 C37_2 1_555 1_555
O19 C23_2 1_555 1_555
C28_2 C29_2 1_555 1_555
C12_2 C13_2 1_555 1_555
C13_2 C14_2 1_555 1_555
C14_2 H7_2 1_555 1_555
C15_2 C14_2 1_555 1_555
H8_2 C15_2 1_555 1_555
C16_2 C15_2 1_555 1_555
C17_2 C16_2 1_555 1_555
C18_2 C13_2 1_555 1_555
H9_2 C18_2 1_555 1_555
C19_2 C16_2 1_555 1_555
H10_2 C19_2 1_555 1_555
C20_2 C19_2 1_555 1_555
C21_2 C20_2 1_555 1_555
H11_2 C21_2 1_555 1_555
C22_2 C17_2 1_555 1_555
H12_2 C22_2 1_555 1_555
C36_2 C20_2 1_555 1_555
O3 C12_2 1_555 1_555
O4 C12_2 1_555 1_555
Cd5 O3 1_555 1_555
Cd7 O4 1_555 1_555
C17_2 C18_2 1_555 1_555
C21_2 C22_2 1_555 1_555
C25_2 H13_2 1_555 1_555
C26_2 C25_2 1_555 1_555
C30_2 C26_2 1_555 1_555
H16_2 C30_2 1_555 1_555
C31_2 C30_2 1_555 1_555
H17_2 C31_2 1_555 1_555
C32_2 C31_2 1_555 1_555
C38_2 C32_2 1_555 1_555
H21_2 C39_2 1_555 1_555
C38_2 C39_2 1_555 1_555
Cd5 O1_2 1_555 1_555
Cd7 O1_2 1_555 1_555
C1_2 C2_2 1_555 1_555
C2_2 C3_2 1_555 1_555
C3_2 H1_2 1_555 1_555
C4_2 C3_2 1_555 1_555
C5_2 C4_2 1_555 1_555
C6_2 C5_2 1_555 1_555
H2_2 C6_2 1_555 1_555
C7_2 C2_2 1_555 1_555
H3_2 C7_2 1_555 1_555
C8_2 C5_2 1_555 1_555
H4_2 C8_2 1_555 1_555
C9_2 C8_2 1_555 1_555
C10_2 C9_2 1_555 1_555
H5_2 C10_2 1_555 1_555
C11_2 C4_2 1_555 1_555
H6_2 C11_2 1_555 1_555
C34_2 C9_2 1_555 1_555
C35_2 C34_2 1_555 1_555
H19_2 C35_2 1_555 1_555
C62_2 C63_2 1_555 1_555
C63_2 C64_2 1_555 1_555
C64_2 H34_2 1_555 1_555
C65_2 C64_2 1_555 1_555
H35_2 C65_2 1_555 1_555
C66_2 C65_2 1_555 1_555
C67_2 C66_2 1_555 1_555
C68_2 C63_2 1_555 1_555
H36_2 C68_2 1_555 1_555
C79 H43 1_555 1_555
H44 C79 1_555 1_555
H45 C79 1_555 1_555
O1_2 C1_2 1_555 1_555
O2_2 Cd5 1_555 1_555
O11_2 Cd5 1_555 1_555
O12_2 Cd5 1_555 1_555
C1_2 O2_2 1_555 1_555
C6_2 C7_2 1_555 1_555
C10_2 C11_2 1_555 1_555
C62_2 O11_2 1_555 1_555
C62_2 O12_2 1_555 1_555
C67_2 C68_2 1_555 1_555
Cd3 O21 1_555 1_555
C40_2 C41_2 1_555 1_555
C41_2 C42_2 1_555 1_555
C42_2 H22_2 1_555 1_555
C43_2 C42_2 1_555 1_555
H23_2 C43_2 1_555 1_555
C44_2 C43_2 1_555 1_555
C45_2 C44_2 1_555 1_555
C46_2 C41_2 1_555 1_555
H24_2 C46_2 1_555 1_555
C47_2 C45_2 1_555 1_555
H25_2 C47_2 1_555 1_555
C48_2 C47_2 1_555 1_555
H26_2 C48_2 1_555 1_555
C49_2 C48_2 1_555 1_555
C50_2 C44_2 1_555 1_555
H27_2 C50_2 1_555 1_555
C51_2 C52_2 1_555 1_555
C52_2 C53_2 1_555 1_555
C53_2 H28_2 1_555 1_555
C54_2 C53_2 1_555 1_555
C55_2 C54_2 1_555 1_555
C56_2 C55_2 1_555 1_555
H29_2 C56_2 1_555 1_555
C57_2 C52_2 1_555 1_555
H30_2 C57_2 1_555 1_555
C58_2 C54_2 1_555 1_555
H31_2 C58_2 1_555 1_555
C59_2 C58_2 1_555 1_555
H32_2 C59_2 1_555 1_555
C60_2 C59_2 1_555 1_555
C61_2 C55_2 1_555 1_555
H33_2 C61_2 1_555 1_555
C70 C69 1_555 1_555
C71 C70 1_555 1_555
H38 C71 1_555 1_555
H39 C72 1_555 1_555
C73_2 C49_2 1_555 1_555
C74_2 C73_2 1_555 1_555
H40_2 C74_2 1_555 1_555
C75_2 C60_2 1_555 1_555
C76 C75_2 1_555 1_555
H41 C76 1_555 1_555
C77 C70 1_555 1_555
C78 C73_2 1_555 1_555
H42 C78 1_555 1_555
C80_2 H46_2 1_555 1_555
H48_2 C80_2 1_555 1_555
C81_2 H49_2 1_555 1_555
O21 C40_2 1_555 1_555
O22 C40_2 1_555 1_555
O23 C51_2 1_555 1_555
O24 C51_2 1_555 1_555
O13_2 Cd3 1_555 1_555
O14_2 Cd3 1_555 1_555
O15_2 Cd3 1_555 1_555
O16_2 Cd3 1_555 1_555
C45_2 C46_2 1_555 1_555
C49_2 C50_2 1_555 1_555
C56_2 C57_2 1_555 1_555
C60_2 C61_2 1_555 1_555
C71 C72 1_555 1_555
C74_2 C75_2 1_555 1_555
C76 C77 1_555 1_555
C77 C78 1_555 1_555
C80_2 N1_2 1_555 1_555
C81_2 O13_2 1_555 1_555
C81_2 N1_2 1_555 1_555
O14_2 H50_2 1_555 1_555
O14_2 H51_2 1_555 1_555
O15_2 H52_2 1_555 1_555
O15_2 H53_2 1_555 1_555
C79_2 H43_2 1_555 1_555
H44_2 C79_2 1_555 1_555
H45_2 C79_2 1_555 1_555
C71_2 C70_2 1_555 1_555
H38_2 C71_2 1_555 1_555
H39_2 C72_2 1_555 1_555
H41_2 C76_2 1_555 1_555
C77_2 C70_2 1_555 1_555
C71_2 C72_2 1_555 1_555
C76_2 C77_2 1_555 1_555
H42_2 C78_2 1_555 1_555
Cd10_2 O7_2 1_555 1_555
C40_3 C41_3 1_555 1_555
C41_3 C42_3 1_555 1_555
C42_3 H22_3 1_555 1_555
C43_3 C42_3 1_555 1_555
H23_3 C43_3 1_555 1_555
C44_3 C43_3 1_555 1_555
C45_3 C44_3 1_555 1_555
C46_3 C41_3 1_555 1_555
H24_3 C46_3 1_555 1_555
C47_3 C45_3 1_555 1_555
H25_3 C47_3 1_555 1_555
C48_3 C47_3 1_555 1_555
H26_3 C48_3 1_555 1_555
C49_3 C48_3 1_555 1_555
C50_3 C44_3 1_555 1_555
H27_3 C50_3 1_555 1_555
C51_3 C52_3 1_555 1_555
C52_3 C53_3 1_555 1_555
C53_3 H28_3 1_555 1_555
C54_3 C53_3 1_555 1_555
C55_3 C54_3 1_555 1_555
C56_3 C55_3 1_555 1_555
H29_3 C56_3 1_555 1_555
C57_3 C52_3 1_555 1_555
H30_3 C57_3 1_555 1_555
C58_3 C54_3 1_555 1_555
H31_3 C58_3 1_555 1_555
C59_3 C58_3 1_555 1_555
H32_3 C59_3 1_555 1_555
C60_3 C59_3 1_555 1_555
C61_3 C55_3 1_555 1_555
H33_3 C61_3 1_555 1_555
C70_3 C69_3 1_555 1_555
C71_3 C70_3 1_555 1_555
H38_3 C71_3 1_555 1_555
H39_3 C72_3 1_555 1_555
C73_3 C49_3 1_555 1_555
C74_3 C73_3 1_555 1_555
H40_3 C74_3 1_555 1_555
C75_3 C60_3 1_555 1_555
C76_3 C75_3 1_555 1_555
H41_3 C76_3 1_555 1_555
C77_3 C70_3 1_555 1_555
C78_3 C73_3 1_555 1_555
H42_3 C78_3 1_555 1_555
C80_3 H46_3 1_555 1_555
H48_3 C80_3 1_555 1_555
C81_3 H49_3 1_555 1_555
O7_2 C40_3 1_555 1_555
O8_2 C40_3 1_555 1_555
O9_2 C51_3 1_555 1_555
O10_2 C51_3 1_555 1_555
O13_3 Cd10_2 1_555 1_555
O14_3 Cd10_2 1_555 1_555
O15_3 Cd10_2 1_555 1_555
O16_3 Cd10_2 1_555 1_555
Cd9 O7_2 1_555 1_555
C45_3 C46_3 1_555 1_555
C49_3 C50_3 1_555 1_555
C56_3 C57_3 1_555 1_555
C60_3 C61_3 1_555 1_555
C71_3 C72_3 1_555 1_555
C74_3 C75_3 1_555 1_555
C76_3 C77_3 1_555 1_555
C77_3 C78_3 1_555 1_555
C80_3 N1_3 1_555 1_555
C81_3 O13_3 1_555 1_555
C81_3 N1_3 1_555 1_555
O8_2 Cd9 1_555 1_555
O14_3 H50_3 1_555 1_555
O14_3 H51_3 1_555 1_555
O15_3 H52_3 1_555 1_555
O15_3 H53_3 1_555 1_555
Cd1_2 O1_3 1_555 1_555
Cd2_2 O1_3 1_555 1_555
C1_3 C2_3 1_555 1_555
C2_3 C3_3 1_555 1_555
C3_3 H1_3 1_555 1_555
C4_3 C3_3 1_555 1_555
C5_3 C4_3 1_555 1_555
C6_3 C5_3 1_555 1_555
H2_3 C6_3 1_555 1_555
C7_3 C2_3 1_555 1_555
H3_3 C7_3 1_555 1_555
C8_3 C5_3 1_555 1_555
H4_3 C8_3 1_555 1_555
C9_3 C8_3 1_555 1_555
C10_3 C9_3 1_555 1_555
H5_3 C10_3 1_555 1_555
C11_3 C4_3 1_555 1_555
H6_3 C11_3 1_555 1_555
C34_3 C9_3 1_555 1_555
C35_3 C34_3 1_555 1_555
H19_3 C35_3 1_555 1_555
C62_3 C63_3 1_555 1_555
C63_3 C64_3 1_555 1_555
C64_3 H34_3 1_555 1_555
C65_3 C64_3 1_555 1_555
H35_3 C65_3 1_555 1_555
C66_3 C65_3 1_555 1_555
C67_3 C66_3 1_555 1_555
C68_3 C63_3 1_555 1_555
H36_3 C68_3 1_555 1_555
C79_3 H43_3 1_555 1_555
H44_3 C79_3 1_555 1_555
H45_3 C79_3 1_555 1_555
O1_3 C1_3 1_555 1_555
O2_3 Cd1_2 1_555 1_555
O11_3 Cd1_2 1_555 1_555
O12_3 Cd1_2 1_555 1_555
O17_2 Cd1_2 1_555 1_555
O18_2 Cd2_2 1_555 1_555
O19_2 Cd1_2 1_555 1_555
O20_2 Cd2_2 1_555 1_555
O21_2 Cd2_2 1_555 1_555
O22_2 Cd2_2 1_555 1_555
O23_2 Cd2_2 1_555 1_555
C1_3 O2_3 1_555 1_555
C6_3 C7_3 1_555 1_555
C10_3 C11_3 1_555 1_555
C62_3 O11_3 1_555 1_555
C62_3 O12_3 1_555 1_555
C67_3 C68_3 1_555 1_555
C25_3 H13_3 1_555 1_555
C26_3 C25_3 1_555 1_555
C30_3 C26_3 1_555 1_555
H16_3 C30_3 1_555 1_555
C31_3 C30_3 1_555 1_555
H17_3 C31_3 1_555 1_555
C32_3 C31_3 1_555 1_555
C38_3 C32_3 1_555 1_555
H21_3 C39_3 1_555 1_555
Cd9 O6_2 1_555 1_555
C38_3 C39_3 1_555 1_555
C12_3 C13_3 1_555 1_555
C13_3 C14_3 1_555 1_555
C14_3 H7_3 1_555 1_555
C15_3 C14_3 1_555 1_555
H8_3 C15_3 1_555 1_555
C16_3 C15_3 1_555 1_555
C17_3 C16_3 1_555 1_555
C18_3 C13_3 1_555 1_555
H9_3 C18_3 1_555 1_555
C19_3 C16_3 1_555 1_555
H10_3 C19_3 1_555 1_555
C20_3 C19_3 1_555 1_555
C21_3 C20_3 1_555 1_555
H11_3 C21_3 1_555 1_555
C22_3 C17_3 1_555 1_555
H12_3 C22_3 1_555 1_555
C36_3 C20_3 1_555 1_555
O17_2 C12_3 1_555 1_555
O18_2 C12_3 1_555 1_555
C17_3 C18_3 1_555 1_555
C21_3 C22_3 1_555 1_555
C23_3 C24_3 1_555 1_555
C28_3 C27_3 1_555 1_555
H14_3 C28_3 1_555 1_555
C29_3 C24_3 1_555 1_555
H15_3 C29_3 1_555 1_555
C33_3 C27_3 1_555 1_555
H18_3 C33_3 1_555 1_555
H20_3 C37_3 1_555 1_555
O5_2 C23_3 1_555 1_555
Cd5_2 O5_2 1_555 1_555
C28_3 C29_3 1_555 1_555
Cd3_2 O21_2 1_555 1_555
C40_4 C41_4 1_555 1_555
C41_4 C42_4 1_555 1_555
C42_4 H22_4 1_555 1_555
C43_4 C42_4 1_555 1_555
H23_4 C43_4 1_555 1_555
C44_4 C43_4 1_555 1_555
C45_4 C44_4 1_555 1_555
C46_4 C41_4 1_555 1_555
H24_4 C46_4 1_555 1_555
C47_4 C45_4 1_555 1_555
H25_4 C47_4 1_555 1_555
C48_4 C47_4 1_555 1_555
H26_4 C48_4 1_555 1_555
C49_4 C48_4 1_555 1_555
C50_4 C44_4 1_555 1_555
H27_4 C50_4 1_555 1_555
C73_4 C49_4 1_555 1_555
C80_4 H46_4 1_555 1_555
H48_4 C80_4 1_555 1_555
C81_4 H49_4 1_555 1_555
O21_2 C40_4 1_555 1_555
O22_2 C40_4 1_555 1_555
O13_4 Cd3_2 1_555 1_555
O14_4 Cd3_2 1_555 1_555
O15_4 Cd3_2 1_555 1_555
O16_4 Cd3_2 1_555 1_555
O24_2 Cd3_2 1_555 1_555
C45_4 C46_4 1_555 1_555
C49_4 C50_4 1_555 1_555
C80_4 N1_4 1_555 1_555
C81_4 O13_4 1_555 1_555
C81_4 N1_4 1_555 1_555
O14_4 H50_4 1_555 1_555
O14_4 H51_4 1_555 1_555
O15_4 H52_4 1_555 1_555
O15_4 H53_4 1_555 1_555
O16_4 H55_4 1_555 1_555
C51_4 C52_4 1_555 1_555
C52_4 C53_4 1_555 1_555
C53_4 H28_4 1_555 1_555
C54_4 C53_4 1_555 1_555
C55_4 C54_4 1_555 1_555
C56_4 C55_4 1_555 1_555
H29_4 C56_4 1_555 1_555
C57_4 C52_4 1_555 1_555
H30_4 C57_4 1_555 1_555
C58_4 C54_4 1_555 1_555
H31_4 C58_4 1_555 1_555
C59_4 C58_4 1_555 1_555
H32_4 C59_4 1_555 1_555
C60_4 C59_4 1_555 1_555
C61_4 C55_4 1_555 1_555
H33_4 C61_4 1_555 1_555
H40_4 C74_4 1_555 1_555
C75_4 C60_4 1_555 1_555
O23_2 C51_4 1_555 1_555
O24_2 C51_4 1_555 1_555
C56_4 C57_4 1_555 1_555
C60_4 C61_4 1_555 1_555
C74_4 C75_4 1_555 1_555
Cd9 O1_4 1_555 1_555
C1_4 C2_4 1_555 1_555
C2_4 C3_4 1_555 1_555
C3_4 H1_4 1_555 1_555
C4_4 C3_4 1_555 1_555
C5_4 C4_4 1_555 1_555
C6_4 C5_4 1_555 1_555
H2_4 C6_4 1_555 1_555
C7_4 C2_4 1_555 1_555
H3_4 C7_4 1_555 1_555
C8_4 C5_4 1_555 1_555
H4_4 C8_4 1_555 1_555
C9_4 C8_4 1_555 1_555
C10_4 C9_4 1_555 1_555
H5_4 C10_4 1_555 1_555
C11_4 C4_4 1_555 1_555
H6_4 C11_4 1_555 1_555
C12_4 C13_4 1_555 1_555
C13_4 C14_4 1_555 1_555
C14_4 H7_4 1_555 1_555
C15_4 C14_4 1_555 1_555
H8_4 C15_4 1_555 1_555
C16_4 C15_4 1_555 1_555
C17_4 C16_4 1_555 1_555
C18_4 C13_4 1_555 1_555
H9_4 C18_4 1_555 1_555
C19_4 C16_4 1_555 1_555
H10_4 C19_4 1_555 1_555
C20_4 C19_4 1_555 1_555
C21_4 C20_4 1_555 1_555
H11_4 C21_4 1_555 1_555
C22_4 C17_4 1_555 1_555
H12_4 C22_4 1_555 1_555
C23_4 C24_4 1_555 1_555
C24_4 C25_4 1_555 1_555
C25_4 H13_4 1_555 1_555
C26_4 C25_4 1_555 1_555
C27_4 C26_4 1_555 1_555
C28_4 C27_4 1_555 1_555
H14_4 C28_4 1_555 1_555
C29_4 C24_4 1_555 1_555
H15_4 C29_4 1_555 1_555
C30_4 C26_4 1_555 1_555
H16_4 C30_4 1_555 1_555
C31_4 C30_4 1_555 1_555
H17_4 C31_4 1_555 1_555
C32_4 C31_4 1_555 1_555
C33_4 C27_4 1_555 1_555
H18_4 C33_4 1_555 1_555
C34_4 C9_4 1_555 1_555
C35_4 C34_4 1_555 1_555
H19_4 C35_4 1_555 1_555
C36_4 C20_4 1_555 1_555
C37_4 C36_4 1_555 1_555
H20_4 C37_4 1_555 1_555
C38_4 C32_4 1_555 1_555
C39_4 C34_4 1_555 1_555
H21_4 C39_4 1_555 1_555
C62_4 C63_4 1_555 1_555
C63_4 C64_4 1_555 1_555
C64_4 H34_4 1_555 1_555
C65_4 C64_4 1_555 1_555
H35_4 C65_4 1_555 1_555
C66_4 C65_4 1_555 1_555
O1_4 C1_4 1_555 1_555
O3_2 C12_4 1_555 1_555
O4_2 C12_4 1_555 1_555
O19_2 C23_4 1_555 1_555
O20_2 C23_4 1_555 1_555
Cd5_2 O3_2 1_555 1_555
C1_4 O2_4 1_555 1_555
C6_4 C7_4 1_555 1_555
C10_4 C11_4 1_555 1_555
C17_4 C18_4 1_555 1_555
C21_4 C22_4 1_555 1_555
C28_4 C29_4 1_555 1_555
C32_4 C33_4 1_555 1_555
C35_4 C36_4 1_555 1_555
C37_4 C38_4 1_555 1_555
C38_4 C39_4 1_555 1_555
C62_4 O12_4 1_555 1_555
H36_4 C68_4 1_555 1_555
O11_4 Cd5_2 1_555 1_555
C67_4 C68_4 1_555 1_555
H42_4 C78_4 1_555 1_555
C71_4 C70_4 1_555 1_555
H38_4 C71_4 1_555 1_555
H39_4 C72_4 1_555 1_555
H41_4 C76_4 1_555 1_555
C77_4 C70_4 1_555 1_555
C71_4 C72_4 1_555 1_555
C76_4 C77_4 1_555 1_555
C79_4 H43_4 1_555 1_555
H44_4 C79_4 1_555 1_555
H45_4 C79_4 1_555 1_555

#END
