
###############################################################################
#
# This file contains modified crystal structure data generated from the
# MOF subset of the Cambridge Structural Database (CSD) v543 
# hosted by the Cambridge Crystallographic Data Centre (CCDC).
#
# This work is licensed under the Creative Commons
# Attribution-NonCommercial-ShareAlike 4.0 International License.
# To view a copy of this license, visit
# http://creativecommons.org/licenses/by-nc-sa/4.0/
# or send a letter to
# Creative Commons, PO Box 1866, Mountain View, CA 94042, USA.
#
# CIF created using the CSD Python API on 29 September 2022
# The structure has been converted into the P1 space group
# The structure has a 3D framework
# The original CSD entry XEDPON is in the tetragonal crystal system
# The framework has been calculated to contain at least 10.0% void space
# The void calculation uses a probe of radius 1.32A, grid spacing 0.4
#
###############################################################################

data_XEDPON
_chemical_formula_moiety         '(C56 H48 N32 O16 Zn8)n'
_symmetry_cell_setting           triclinic
_symmetry_space_group_name_H-M   'P 1'
_symmetry_Int_Tables_number      1
_space_group_name_Hall           'P 1'
loop_
_symmetry_equiv_pos_site_id
_symmetry_equiv_pos_as_xyz
1 x,y,z
_cell_length_a                   15.02(3)
_cell_length_b                   15.02(3)
_cell_length_c                   9.570(19)
_cell_angle_alpha                90
_cell_angle_beta                 90
_cell_angle_gamma                90
_cell_volume                     2159
loop_
_atom_site_label
_atom_site_type_symbol
_atom_site_fract_x
_atom_site_fract_y
_atom_site_fract_z
Zn7 Zn 0.17863(6) 0.34608(5) 0.04316(9)
N11 N 0.7170(4) 0.2669(4) 0.0806(7)
N17 N 0.4038(4) 0.2992(4) 0.0467(8)
C16 C 0.4884(5) 0.2750(6) 0.0420(10)
H12 H 0.5255 0.2947 0.1134
O4 O 0.6892(12) 0.0733(12) 0.072(3)
C24 C 0.6287(17) 0.0203(13) 0.049(3)
C26 C 0.367(2) 0.0707(14) 0.128(3)
H16 H 0.4199 0.1042 0.1099
H19 H 0.3158 0.1037 0.0964
H22 H 0.3615 0.0601 0.2268
Zn3 Zn 0.65392(5) 0.17863(6) 0.95684(9)
Zn4 Zn 0.32137(6) 0.15392(5) 0.54316(9)
Zn5 Zn 0.84608(5) 0.32137(6) 0.45684(9)
N6 N 0.7033(5) 0.1810(5) 0.7621(7)
N7 N 0.3190(5) 0.2033(5) 0.7379(7)
C9 C 0.7429(6) 0.2515(5) 0.7010(10)
C10 C 0.2485(5) 0.2429(6) 0.7990(10)
H8 H 0.7422 0.3083 0.7398
H9 H 0.1917 0.2422 0.7602
N9 N 0.7830(4) 0.2331(4) 0.5806(7)
N10 N 0.2669(4) 0.2830(4) 0.9194(7)
N13 N 0.2331(4) 0.2170(4) 0.4194(7)
C12 C 0.7711(5) 0.1444(5) 0.5612(8)
C13 C 0.3556(5) 0.2711(5) 0.9388(8)
N16 N 0.7992(4) 0.0962(4) 0.4533(8)
C15 C 0.7750(6) 0.0116(5) 0.4580(10)
H10 H 0.2053 0.0255 0.3866
N18 N 0.2764(5) 0.0252(4) 0.5594(8)
N20 N 0.5252(4) 0.2236(5) 0.9406(8)
C18 C 0.6957(6) 0.0230(5) 0.6689(9)
C19 C 0.4770(5) 0.1957(6) 0.8311(9)
H13 H 0.3385 0.0022 0.7396
H15 H 0.5022 0.1615 0.7604
C21 C 0.7204(5) 0.1131(5) 0.6722(8)
C22 C 0.3869(5) 0.2204(5) 0.8278(8)
O5 O 0.4267(12) 0.1892(12) 0.428(3)
O7 O 0.5794(12) 0.0231(12) 0.944(2)
O8 O 0.4769(12) 0.0794(12) 0.556(2)
C25 C 0.4797(13) 0.1287(17) 0.451(3)
C28 C 0.5707(14) 0.133(2) 0.372(3)
H18 H 0.6042 0.0801 0.3901
H21 H 0.6037 0.1842 0.4036
H24 H 0.5601 0.1385 0.2732
N3 N 0.5962(4) 0.7008(4) 0.0467(8)
C3 C 0.5116(5) 0.7250(6) 0.0420(10)
H2 H 0.4745 0.7053 0.1134
Zn8 Zn 0.82137(6) 0.65392(5) 0.04316(9)
N12 N 0.2830(4) 0.7331(4) 0.0806(7)
O3 O 0.3108(12) 0.9267(12) 0.072(3)
C23 C 0.3713(17) 0.9797(13) 0.049(3)
C27 C 0.633(2) 0.9293(14) 0.128(3)
H17 H 0.5801 0.8958 0.1099
H20 H 0.6842 0.8963 0.0964
H23 H 0.6385 0.9399 0.2268
Zn1 Zn 0.67863(6) 0.84608(5) 0.54316(9)
N1 N 0.6810(5) 0.7967(5) 0.7379(7)
C1 C 0.7515(5) 0.7571(6) 0.7990(10)
H1 H 0.8083 0.7578 0.7602
N2 N 0.7331(4) 0.7170(4) 0.9194(7)
C2 C 0.6444(5) 0.7289(5) 0.9388(8)
N4 N 0.4748(4) 0.7764(5) 0.9406(8)
C4 C 0.5230(5) 0.8043(6) 0.8311(9)
H3 H 0.4978 0.8385 0.7604
C5 C 0.6131(5) 0.7796(5) 0.8278(8)
O1 O 0.5733(12) 0.8108(12) 0.428(3)
O2 O 0.5231(12) 0.9206(12) 0.556(2)
C6 C 0.5203(13) 0.8713(17) 0.451(3)
C7 C 0.4293(14) 0.867(2) 0.372(3)
H4 H 0.3958 0.9199 0.3901
H5 H 0.3963 0.8158 0.4036
H6 H 0.4399 0.8615 0.2732
Zn2 Zn 0.34608(5) 0.82137(6) 0.95684(9)
Zn6 Zn 0.15392(5) 0.67863(6) 0.45684(9)
N5 N 0.2967(5) 0.8190(5) 0.7621(7)
C8 C 0.2571(6) 0.7485(5) 0.7010(10)
H7 H 0.2578 0.6917 0.7398
N8 N 0.2170(4) 0.7669(4) 0.5806(7)
N14 N 0.7669(4) 0.7830(4) 0.4194(7)
C11 C 0.2289(5) 0.8556(5) 0.5612(8)
N15 N 0.2008(4) 0.9038(4) 0.4533(8)
C14 C 0.2250(6) 0.9884(5) 0.4580(10)
H11 H 0.7947 0.9745 0.3866
N19 N 0.7236(5) 0.9748(4) 0.5594(8)
C17 C 0.3043(6) 0.9770(5) 0.6689(9)
H14 H 0.6615 0.9978 0.7396
C20 C 0.2796(5) 0.8869(5) 0.6722(8)
O6 O 0.4206(12) 0.9769(12) 0.944(2)
N6_2 N 0.1810(5) 0.2967(5) 0.2379(7)
N7_2 N 0.2033(5) 0.6810(5) 0.2621(7)
C9_2 C 0.2515(5) 0.2571(6) 0.2990(10)
C10_2 C 0.2429(6) 0.7515(5) 0.2010(10)
H8_2 H 0.3083 0.2578 0.2602
H9_2 H 0.2422 0.8083 0.2398
C12_2 C 0.1444(5) 0.2289(5) 0.4388(8)
C13_2 C 0.2711(5) 0.6444(5) 0.0612(8)
N16_2 N 0.0962(4) 0.2008(4) 0.5467(8)
C15_2 C 0.0116(5) 0.2250(6) 0.5420(10)
H10_2 H 0.0255 0.7947 0.6134
N18_2 N 0.0252(4) 0.7236(5) 0.4406(8)
N20_2 N 0.2236(5) 0.4748(4) 0.0594(8)
C18_2 C 0.0230(5) 0.3043(6) 0.3311(9)
C19_2 C 0.1957(6) 0.5230(5) 0.1689(9)
H13_2 H 0.0022 0.6615 0.2604
H15_2 H 0.1615 0.4978 0.2396
C21_2 C 0.1131(5) 0.2796(5) 0.3278(8)
C22_2 C 0.2204(5) 0.6131(5) 0.1722(8)
O5_2 O 0.1892(12) 0.5733(12) 0.572(3)
O7_2 O 0.0231(12) 0.4206(12) 0.056(2)
O8_2 O 0.0794(12) 0.5231(12) 0.444(2)
C25_2 C 0.1287(17) 0.5203(13) 0.549(3)
C28_2 C 0.133(2) 0.4293(14) 0.628(3)
H18_2 H 0.0801 0.3958 0.6099
H21_2 H 0.1842 0.3963 0.5964
H24_2 H 0.1385 0.4399 0.7268
N17_2 N 0.2992(4) 0.5962(4) 0.9533(8)
C16_2 C 0.2750(6) 0.5116(5) 0.9580(10)
H12_2 H 0.2947 0.4745 0.8866
O4_2 O 0.0733(12) 0.3108(12) 0.928(3)
C24_2 C 0.0203(13) 0.3713(17) 0.951(3)
C26_2 C 0.0707(14) 0.633(2) 0.872(3)
H16_2 H 0.1042 0.5801 0.8901
H19_2 H 0.1037 0.6842 0.9036
H22_2 H 0.0601 0.6385 0.7732
N1_2 N 0.7967(5) 0.3190(5) 0.2621(7)
C1_2 C 0.7571(6) 0.2485(5) 0.2010(10)
H1_2 H 0.7578 0.1917 0.2398
C2_2 C 0.7289(5) 0.3556(5) 0.0612(8)
N4_2 N 0.7764(5) 0.5252(4) 0.0594(8)
C4_2 C 0.8043(6) 0.4770(5) 0.1689(9)
H3_2 H 0.8385 0.5022 0.2396
C5_2 C 0.7796(5) 0.3869(5) 0.1722(8)
O1_2 O 0.8108(12) 0.4267(12) 0.572(3)
O2_2 O 0.9206(12) 0.4769(12) 0.444(2)
C6_2 C 0.8713(17) 0.4797(13) 0.549(3)
C7_2 C 0.867(2) 0.5707(14) 0.628(3)
H4_2 H 0.9199 0.6042 0.6099
H5_2 H 0.8158 0.6037 0.5964
H6_2 H 0.8615 0.5601 0.7268
N5_2 N 0.8190(5) 0.7033(5) 0.2379(7)
C8_2 C 0.7485(5) 0.7429(6) 0.2990(10)
H7_2 H 0.6917 0.7422 0.2602
C11_2 C 0.8556(5) 0.7711(5) 0.4388(8)
N15_2 N 0.9038(4) 0.7992(4) 0.5467(8)
C14_2 C 0.9884(5) 0.7750(6) 0.5420(10)
H11_2 H 0.9745 0.2053 0.6134
N19_2 N 0.9748(4) 0.2764(5) 0.4406(8)
C17_2 C 0.9770(5) 0.6957(6) 0.3311(9)
H14_2 H 0.9978 0.3385 0.2604
C20_2 C 0.8869(5) 0.7204(5) 0.3278(8)
O6_2 O 0.9769(12) 0.5794(12) 0.056(2)
N3_2 N 0.7008(4) 0.4038(4) 0.9533(8)
C3_2 C 0.7250(6) 0.4884(5) 0.9580(10)
H2_2 H 0.7053 0.5255 0.8866
O3_2 O 0.9267(12) 0.6892(12) 0.928(3)
C23_2 C 0.9797(13) 0.6287(17) 0.951(3)
C27_2 C 0.9293(14) 0.367(2) 0.872(3)
H17_2 H 0.8958 0.4199 0.8901
H20_2 H 0.8963 0.3158 0.9036
H23_2 H 0.9399 0.3615 0.7732
loop_
_geom_bond_atom_site_label_1
_geom_bond_atom_site_label_2
_geom_bond_site_symmetry_1
_geom_bond_site_symmetry_2
C16 N17 1_555 1_555
H12 C16 1_555 1_555
C24 O4 1_555 1_555
H16 C26 1_555 1_555
H19 C26 1_555 1_555
H22 C26 1_555 1_555
Zn3 N6 1_555 1_555
Zn4 N7 1_555 1_555
Zn5 N9 1_555 1_555
N6 C9 1_555 1_555
N7 C10 1_555 1_555
C9 H8 1_555 1_555
C10 H9 1_555 1_555
N9 C9 1_555 1_555
N10 C10 1_555 1_555
N13 Zn4 1_555 1_555
C12 N9 1_555 1_555
C13 N10 1_555 1_555
N16 C12 1_555 1_555
C15 N16 1_555 1_555
N18 Zn4 1_555 1_555
N20 Zn3 1_555 1_555
C19 N20 1_555 1_555
H15 C19 1_555 1_555
C21 N6 1_555 1_555
C22 N7 1_555 1_555
O5 Zn4 1_555 1_555
O8 C25 1_555 1_555
C25 O5 1_555 1_555
C28 C25 1_555 1_555
H18 C28 1_555 1_555
H21 C28 1_555 1_555
H24 C28 1_555 1_555
C12 C21 1_555 1_555
C13 C22 1_555 1_555
C18 C21 1_555 1_555
C19 C22 1_555 1_555
C3 N3 1_555 1_555
H2 C3 1_555 1_555
C23 O3 1_555 1_555
H17 C27 1_555 1_555
H20 C27 1_555 1_555
H23 C27 1_555 1_555
Zn1 N1 1_555 1_555
N1 C1 1_555 1_555
C1 H1 1_555 1_555
N2 C1 1_555 1_555
C2 N2 1_555 1_555
C4 N4 1_555 1_555
H3 C4 1_555 1_555
C5 N1 1_555 1_555
O1 Zn1 1_555 1_555
O2 C6 1_555 1_555
C6 O1 1_555 1_555
C7 C6 1_555 1_555
H4 C7 1_555 1_555
H5 C7 1_555 1_555
H6 C7 1_555 1_555
Zn2 N4 1_555 1_555
Zn6 N8 1_555 1_555
N5 Zn2 1_555 1_555
C8 N5 1_555 1_555
H7 C8 1_555 1_555
N8 C8 1_555 1_555
N14 Zn1 1_555 1_555
C11 N8 1_555 1_555
N15 C11 1_555 1_555
C14 N15 1_555 1_555
N19 Zn1 1_555 1_555
C20 N5 1_555 1_555
C2 C5 1_555 1_555
C4 C5 1_555 1_555
C11 C20 1_555 1_555
C17 C20 1_555 1_555
Zn7 N6_2 1_555 1_555
Zn6 N7_2 1_555 1_555
N6_2 C9_2 1_555 1_555
N7_2 C10_2 1_555 1_555
C9_2 H8_2 1_555 1_555
C10_2 H9_2 1_555 1_555
N13 C9_2 1_555 1_555
N12 C10_2 1_555 1_555
C12_2 N13 1_555 1_555
C13_2 N12 1_555 1_555
N16_2 C12_2 1_555 1_555
C15_2 N16_2 1_555 1_555
N18_2 Zn6 1_555 1_555
N20_2 Zn7 1_555 1_555
C19_2 N20_2 1_555 1_555
H15_2 C19_2 1_555 1_555
C21_2 N6_2 1_555 1_555
C22_2 N7_2 1_555 1_555
O5_2 Zn6 1_555 1_555
O8_2 C25_2 1_555 1_555
C25_2 O5_2 1_555 1_555
C28_2 C25_2 1_555 1_555
H18_2 C28_2 1_555 1_555
H21_2 C28_2 1_555 1_555
H24_2 C28_2 1_555 1_555
C12_2 C21_2 1_555 1_555
C13_2 C22_2 1_555 1_555
C18_2 C21_2 1_555 1_555
C19_2 C22_2 1_555 1_555
C16_2 N17_2 1_555 1_555
H12_2 C16_2 1_555 1_555
C24_2 O4_2 1_555 1_555
H16_2 C26_2 1_555 1_555
H19_2 C26_2 1_555 1_555
H22_2 C26_2 1_555 1_555
Zn5 N1_2 1_555 1_555
N1_2 C1_2 1_555 1_555
C1_2 H1_2 1_555 1_555
N11 C1_2 1_555 1_555
C2_2 N11 1_555 1_555
C4_2 N4_2 1_555 1_555
H3_2 C4_2 1_555 1_555
C5_2 N1_2 1_555 1_555
O1_2 Zn5 1_555 1_555
O2_2 C6_2 1_555 1_555
C6_2 O1_2 1_555 1_555
C7_2 C6_2 1_555 1_555
H4_2 C7_2 1_555 1_555
H5_2 C7_2 1_555 1_555
H6_2 C7_2 1_555 1_555
Zn8 N4_2 1_555 1_555
N5_2 Zn8 1_555 1_555
C8_2 N5_2 1_555 1_555
H7_2 C8_2 1_555 1_555
N14 C8_2 1_555 1_555
C11_2 N14 1_555 1_555
N15_2 C11_2 1_555 1_555
C14_2 N15_2 1_555 1_555
N19_2 Zn5 1_555 1_555
C20_2 N5_2 1_555 1_555
C2_2 C5_2 1_555 1_555
C4_2 C5_2 1_555 1_555
C11_2 C20_2 1_555 1_555
C17_2 C20_2 1_555 1_555
C3_2 N3_2 1_555 1_555
H2_2 C3_2 1_555 1_555
C23_2 O3_2 1_555 1_555
H17_2 C27_2 1_555 1_555
H20_2 C27_2 1_555 1_555
H23_2 C27_2 1_555 1_555

#END
