
###############################################################################
#
# This file contains modified crystal structure data generated from the
# MOF subset of the Cambridge Structural Database (CSD) v543 
# hosted by the Cambridge Crystallographic Data Centre (CCDC).
#
# This work is licensed under the Creative Commons
# Attribution-NonCommercial-ShareAlike 4.0 International License.
# To view a copy of this license, visit
# http://creativecommons.org/licenses/by-nc-sa/4.0/
# or send a letter to
# Creative Commons, PO Box 1866, Mountain View, CA 94042, USA.
#
# CIF created using the CSD Python API on 29 September 2022
# The structure has been converted into the P1 space group
# The structure has a 3D framework
# The original CSD entry XEDPED is in the hexagonal crystal system
# The framework has been calculated to contain at least 10.0% void space
# The void calculation uses a probe of radius 1.32A, grid spacing 0.4
#
###############################################################################

data_XEDPED
_chemical_formula_moiety         '(C258 H186 N120 O48 Zn24)n'
_symmetry_cell_setting           triclinic
_symmetry_space_group_name_H-M   'P 1'
_symmetry_Int_Tables_number      1
_space_group_name_Hall           'P 1'
loop_
_symmetry_equiv_pos_site_id
_symmetry_equiv_pos_as_xyz
1 x,y,z
_cell_length_a                   26.884(10)
_cell_length_b                   26.884(10)
_cell_length_c                   18.121(10)
_cell_angle_alpha                90
_cell_angle_beta                 90
_cell_angle_gamma                120
_cell_volume                     11342.3
loop_
_atom_site_label
_atom_site_type_symbol
_atom_site_fract_x
_atom_site_fract_y
_atom_site_fract_z
Zn1 Zn 0.11057(7) 0.44222(9) 0.58395(11)
C1 C 0.2225(5) 0.4449(9) 0.5814(8)
H1 H 0.2249 0.4498 0.6335
N1 N 0.1790(5) 0.4413(5) 0.5417(6)
C2 C 0.1912(6) 0.4356(7) 0.4722(8)
C3 C 0.1655(9) 0.4330(10) 0.4071(7)
H2 H 0.1291 0.4307 0.4057
C4 C 0.1918(10) 0.4338(14) 0.3458(11)
H3 H 0.1749 0.4345 0.3000
C5 C 0.0000 0.3874(7) 0.5000
H4 H 0.0000 0.4228 0.5000
N2 N 0.0412(5) 0.3792(5) 0.5287(7)
C6 C 0.0253(6) 0.3231(6) 0.5208(9)
C7 C 0.0519(9) 0.2939(9) 0.5344(11)
H5 H 0.0898 0.3122 0.5539
C8 C 0.0230(11) 0.2370(8) 0.5194(13)
H6 H 0.0372 0.2134 0.5382
N3 N 0.0945(5) 0.4118(5) 0.6885(6)
C9 C 0.0513(7) 0.3632(7) 0.7126(8)
H7 H 0.0243 0.3329 0.6823
C10 C 0.1209(8) 0.4402(8) 0.7500
N4 N 0.1706(6) 0.4963(7) 0.7500
O1 O 0.1888(4) 0.5181(4) 0.6897(5)
N5 N 0.1225(6) 0.5198(5) 0.5541(8)
C11 C 0.1609(15) 0.5546(12) 0.5064(18)
H8 H 0.1848 0.5459 0.4768
C12 C 0.0992(8) 0.5496(4) 0.5811(13)
N6 N 0.0543(11) 0.5272(6) 0.635(2)
O2 O 0.0387(11) 0.4768(10) 0.6537(19)
Zn2 Zn 0.33165(11) 0.44222(9) 0.58395(11)
Zn4 Zn 0.11057(7) 0.44222(9) 0.91605(11)
Zn5 Zn 0.11057(7) 0.66835(11) 0.58395(11)
N7 N 0.2623(7) 0.4413(5) 0.5417(6)
C13 C 0.2444(9) 0.4356(7) 0.4722(8)
C14 C 0.2675(13) 0.4330(10) 0.4071(7)
H9 H 0.3016 0.4307 0.4057
C15 C 0.2420(17) 0.4338(14) 0.3458(11)
H10 H 0.2596 0.4345 0.3000
N9 N 0.3380(7) 0.3792(5) 0.5287(7)
N10 N 0.0945(5) 0.4118(5) 0.8115(6)
N11 N 0.3173(7) 0.4118(5) 0.6885(6)
C19 C 0.0513(7) 0.3632(7) 0.7874(8)
H13 H 0.0243 0.3329 0.8177
O3 O 0.1888(4) 0.5181(4) 0.8103(5)
N12 N 0.1225(6) 0.6027(8) 0.5541(8)
N13 N 0.3973(8) 0.5198(5) 0.5541(8)
C20 C 0.1609(15) 0.6063(19) 0.5064(18)
H14 H 0.1848 0.6389 0.4768
O4 O 0.0387(11) 0.5619(15) 0.6537(19)
C5_2 C 1.0000 0.3874(7) 0.5000
H4_2 H 1.0000 0.4228 0.5000
Zn3 Zn 0.88943(7) 0.33165(11) 0.41605(11)
N8 N 0.9588(5) 0.3380(7) 0.4713(7)
C16 C 0.9747(6) 0.2978(8) 0.4792(9)
C17 C 0.9481(9) 0.2420(13) 0.4656(11)
H11 H 0.9102 0.2224 0.4461
C18 C 0.9770(11) 0.2140(14) 0.4806(13)
H12 H 0.9628 0.1762 0.4618
Zn1_2 Zn 0.55778(9) 0.66835(11) 0.58395(11)
C1_2 C 0.5551(9) 0.7776(10) 0.5814(8)
H1_2 H 0.5502 0.7751 0.6335
N1_2 N 0.5587(5) 0.7377(7) 0.5417(6)
C2_2 C 0.5644(7) 0.7556(9) 0.4722(8)
C3_2 C 0.5670(10) 0.7325(13) 0.4071(7)
H2_2 H 0.5693 0.6984 0.4057
C4_2 C 0.5662(14) 0.7580(17) 0.3458(11)
H3_2 H 0.5655 0.7404 0.3000
C5_3 C 0.6126(7) 0.6126(7) 0.5000
H4_3 H 0.5772 0.5772 0.5000
N2_2 N 0.6208(5) 0.6620(7) 0.5287(7)
C6_2 C 0.6769(6) 0.7022(8) 0.5208(9)
C7_2 C 0.7061(9) 0.7580(13) 0.5344(11)
H5_2 H 0.6878 0.7776 0.5539
C8_2 C 0.7630(8) 0.7860(14) 0.5194(13)
H6_2 H 0.7866 0.8238 0.5382
N3_2 N 0.5882(5) 0.6827(7) 0.6885(6)
C9_2 C 0.6368(7) 0.6881(10) 0.7126(8)
H7_2 H 0.6671 0.6914 0.6823
C10_2 C 0.5598(8) 0.6807(11) 0.7500
N4_2 N 0.5037(7) 0.6743(9) 0.7500
O1_2 O 0.4819(4) 0.6707(6) 0.6897(5)
N5_2 N 0.4802(5) 0.6027(8) 0.5541(8)
C11_2 C 0.4454(12) 0.6063(19) 0.5064(18)
H8_2 H 0.4541 0.6389 0.4768
C12_2 C 0.4504(4) 0.5496(9) 0.5811(13)
N6_2 N 0.4728(6) 0.5271(13) 0.635(2)
O2_2 O 0.5232(10) 0.5619(15) 0.6537(19)
Zn2_2 Zn 0.55778(9) 0.88943(14) 0.58395(11)
Zn3_2 Zn 0.66835(11) 0.55778(13) 0.41605(11)
Zn4_2 Zn 0.55778(9) 0.66835(11) 0.91605(11)
N7_2 N 0.5587(5) 0.8210(9) 0.5417(6)
C13_2 C 0.5644(7) 0.8088(11) 0.4722(8)
C14_2 C 0.5670(10) 0.8345(16) 0.4071(7)
H9_2 H 0.5693 0.8709 0.4057
C15_2 C 0.5662(14) 0.8082(22) 0.3458(11)
H10_2 H 0.5655 0.8251 0.3000
N8_2 N 0.6620(7) 0.6208(9) 0.4713(7)
N9_2 N 0.6208(5) 0.9588(9) 0.5287(7)
C16_2 C 0.7022(8) 0.6769(10) 0.4792(9)
C17_2 C 0.7580(13) 0.7061(16) 0.4656(11)
H11_2 H 0.7776 0.6878 0.4461
C18_2 C 0.7860(14) 0.7630(18) 0.4806(13)
H12_2 H 0.8238 0.7866 0.4618
N10_2 N 0.5882(5) 0.6827(7) 0.8115(6)
N11_2 N 0.5882(5) 0.9055(9) 0.6885(6)
C19_2 C 0.6368(7) 0.6881(10) 0.7874(8)
H13_2 H 0.6671 0.6914 0.8177
O3_2 O 0.4819(4) 0.6707(6) 0.8103(5)
N13_2 N 0.4802(5) 0.8775(9) 0.5541(8)
C20_2 C 0.3937(19) 0.5546(24) 0.5064(18)
H14_2 H 0.3611 0.5459 0.4768
O4_2 O 0.4381(15) 0.4768(19) 0.6537(19)
C5_4 C 0.3874(7) -0.0000 0.5000
H4_4 H 0.4228 -0.0000 0.5000
Zn3_3 Zn 0.44222(13) 0.11057(7) 0.41605(11)
N8_3 N 0.3792(9) 0.0412(5) 0.4713(7)
C16_3 C 0.3231(10) 0.0253(6) 0.4792(9)
C17_3 C 0.2939(16) 0.0519(9) 0.4656(11)
H11_3 H 0.3122 0.0898 0.4461
C18_3 C 0.2370(18) 0.0230(11) 0.4806(13)
H12_3 H 0.2134 0.0372 0.4618
Zn1_3 Zn 0.33165(11) 0.88943(7) 0.58395(11)
C1_3 C 0.2224(10) 0.7775(5) 0.5814(8)
H1_3 H 0.2249 0.7751 0.6335
N1_3 N 0.2623(7) 0.8210(5) 0.5417(6)
C2_3 C 0.2444(9) 0.8088(6) 0.4722(8)
C3_3 C 0.2675(13) 0.8345(9) 0.4071(7)
H2_3 H 0.3016 0.8709 0.4057
C4_3 C 0.2420(17) 0.8082(10) 0.3458(11)
H3_3 H 0.2596 0.8251 0.3000
C5_5 C 0.3874(7) 1.0000 0.5000
H4_5 H 0.4228 1.0000 0.5000
N2_3 N 0.3380(7) 0.9588(5) 0.5287(7)
C6_3 C 0.2978(8) 0.9747(6) 0.5208(9)
C7_3 C 0.2420(13) 0.9481(9) 0.5344(11)
H5_3 H 0.2224 0.9102 0.5539
C8_3 C 0.2140(14) 0.9770(11) 0.5194(13)
H6_3 H 0.1762 0.9628 0.5382
N3_3 N 0.3173(7) 0.9055(5) 0.6885(6)
C9_3 C 0.3119(10) 0.9487(7) 0.7126(8)
H7_3 H 0.3086 0.9757 0.6823
C10_3 C 0.3193(11) 0.8791(8) 0.7500
N4_3 N 0.3257(9) 0.8294(6) 0.7500
O1_3 O 0.3293(6) 0.8112(4) 0.6897(5)
N5_3 N 0.3973(8) 0.8775(6) 0.5541(8)
C11_3 C 0.3937(19) 0.8391(15) 0.5064(18)
H8_3 H 0.3611 0.8152 0.4768
C12_3 C 0.4504(9) 0.9008(8) 0.5811(13)
N6_3 N 0.4729(13) 0.9457(11) 0.635(2)
O2_3 O 0.4381(15) 0.9613(11) 0.6537(19)
Zn4_3 Zn 0.33165(11) 0.88943(7) 0.91605(11)
N7_3 N 0.1790(9) 0.7377(7) 0.5417(6)
C13_3 C 0.1912(11) 0.7556(9) 0.4722(8)
C14_3 C 0.1655(16) 0.7325(13) 0.4071(7)
H9_3 H 0.1291 0.6984 0.4057
C15_3 C 0.1918(22) 0.7580(17) 0.3458(11)
H10_3 H 0.1749 0.7404 0.3000
N9_3 N 0.0412(9) 0.6620(7) 0.5287(7)
N10_3 N 0.3173(7) 0.9055(5) 0.8115(6)
N11_3 N 0.0945(9) 0.6827(7) 0.6885(6)
C19_3 C 0.3119(10) 0.9487(7) 0.7874(8)
H13_3 H 0.3086 0.9757 0.8177
O3_3 O 0.3293(6) 0.8112(4) 0.8103(5)
C20_3 C 0.4454(24) 0.8391(15) 0.5064(18)
H14_3 H 0.4541 0.8152 0.4768
O4_3 O 0.5232(19) 0.9613(11) 0.6537(19)
C5_6 C -0.0000 0.6126(7) 0.0000
H4_6 H 0.0000 0.5772 0.0000
C5_7 C -0.0000 0.6126(7) 1.0000
H4_7 H -0.0000 0.5772 1.0000
Zn3_4 Zn 0.11057(7) 0.66835(11) 0.91605(11)
N8_4 N 0.0412(5) 0.6620(7) 0.9713(7)
C16_4 C 0.0253(6) 0.7022(8) 0.9792(9)
C17_4 C 0.0519(9) 0.7580(13) 0.9656(11)
H11_4 H 0.0898 0.7776 0.9461
C18_4 C 0.0230(11) 0.7860(14) 0.9806(13)
H12_4 H 0.0372 0.8238 0.9618
Zn1_4 Zn 0.88943(7) 0.55778(9) 0.08395(11)
C1_4 C 0.7775(5) 0.5551(9) 0.0814(8)
H1_4 H 0.7751 0.5502 0.1335
N1_4 N 0.8210(5) 0.5587(5) 0.0417(6)
C5_8 C 1.0000 0.6126(7) 0.0000
H4_8 H 1.0000 0.5772 0.0000
N2_4 N 0.9588(5) 0.6208(5) 0.0287(7)
C6_4 C 0.9747(6) 0.6769(6) 0.0208(9)
C7_4 C 0.9481(9) 0.7061(9) 0.0344(11)
H5_4 H 0.9102 0.6878 0.0539
C8_4 C 0.9770(11) 0.7630(8) 0.0194(13)
H6_4 H 0.9628 0.7866 0.0382
N3_4 N 0.9055(5) 0.5882(5) 0.1885(6)
C9_4 C 0.9487(7) 0.6368(7) 0.2126(8)
H7_4 H 0.9757 0.6671 0.1823
C10_4 C 0.8791(8) 0.5598(8) 0.2500
N4_4 N 0.8294(6) 0.5037(7) 0.2500
O1_4 O 0.8112(4) 0.4819(4) 0.1897(5)
N5_4 N 0.8775(6) 0.4802(5) 0.0541(8)
C11_4 C 0.8391(15) 0.4454(12) 0.0064(18)
C12_4 C 0.9008(8) 0.4504(4) 0.0811(13)
N6_4 N 0.9457(11) 0.4728(6) 0.135(2)
O2_4 O 0.9613(11) 0.5232(10) 0.1537(19)
Zn2_3 Zn 0.66835(11) 0.55778(9) 0.08395(11)
Zn4_4 Zn 0.88943(7) 0.55778(9) 0.41605(11)
Zn5_2 Zn 0.88943(7) 0.33165(11) 0.08395(11)
N7_4 N 0.7377(7) 0.5587(5) 0.0417(6)
N9_4 N 0.6620(7) 0.6208(5) 0.0287(7)
N10_4 N 0.9055(5) 0.5882(5) 0.3115(6)
N11_4 N 0.6827(7) 0.5882(5) 0.1885(6)
C19_4 C 0.9487(7) 0.6368(7) 0.2874(8)
H13_4 H 0.9757 0.6671 0.3177
O3_4 O 0.8112(4) 0.4819(4) 0.3103(5)
N12_2 N 0.8775(6) 0.3973(8) 0.0541(8)
N13_3 N 0.6027(8) 0.4802(5) 0.0541(8)
C20_4 C 0.8391(15) 0.3937(19) 0.0064(18)
O4_4 O 0.9613(11) 0.4381(15) 0.1537(19)
C2_4 C 0.8088(6) 0.5644(7) 0.9722(8)
C3_4 C 0.8345(9) 0.5670(10) 0.9071(7)
H2_4 H 0.8709 0.5693 0.9057
C4_4 C 0.8082(10) 0.5662(14) 0.8458(11)
H3_4 H 0.8251 0.5655 0.8000
C5_9 C 1.0000 0.6126(7) 1.0000
H4_9 H 1.0000 0.5772 1.0000
H8_4 H 0.8152 0.4541 0.9768
C13_4 C 0.7556(9) 0.5644(7) 0.9722(8)
C14_4 C 0.7325(13) 0.5670(10) 0.9071(7)
H9_4 H 0.6984 0.5693 0.9057
C15_4 C 0.7580(17) 0.5662(14) 0.8458(11)
H10_4 H 0.7404 0.5655 0.8000
H14_4 H 0.8152 0.3611 0.9768
Zn1_5 Zn 0.44222(9) 0.33165(11) 0.08395(11)
C1_5 C 0.4449(9) 0.2224(10) 0.0814(8)
H1_5 H 0.4498 0.2249 0.1335
N1_5 N 0.4413(5) 0.2623(7) 0.0417(6)
C5_10 C 0.3874(7) 0.3874(7) 0.0000
H4_10 H 0.4228 0.4228 0.0000
N2_5 N 0.3792(5) 0.3380(7) 0.0287(7)
C6_5 C 0.3231(6) 0.2978(8) 0.0208(9)
C7_5 C 0.2939(9) 0.2420(13) 0.0344(11)
H5_5 H 0.3122 0.2224 0.0539
C8_5 C 0.2370(8) 0.2140(14) 0.0194(13)
H6_5 H 0.2134 0.1762 0.0382
N3_5 N 0.4118(5) 0.3173(7) 0.1885(6)
C9_5 C 0.3632(7) 0.3119(10) 0.2126(8)
H7_5 H 0.3329 0.3086 0.1823
C10_5 C 0.4402(8) 0.3193(11) 0.2500
N4_5 N 0.4963(7) 0.3257(9) 0.2500
O1_5 O 0.5181(4) 0.3293(6) 0.1897(5)
N5_5 N 0.5198(5) 0.3973(8) 0.0541(8)
C11_5 C 0.5546(12) 0.3937(19) 0.0064(18)
C12_5 C 0.5496(4) 0.4504(9) 0.0811(13)
N6_5 N 0.5272(6) 0.4729(13) 0.135(2)
O2_5 O 0.4768(10) 0.4381(15) 0.1537(19)
Zn2_4 Zn 0.44222(9) 0.11057(14) 0.08395(11)
Zn4_5 Zn 0.44222(9) 0.33165(11) 0.41605(11)
N7_5 N 0.4413(5) 0.1790(9) 0.0417(6)
N9_5 N 0.3792(5) 0.0412(9) 0.0287(7)
N10_5 N 0.4118(5) 0.3173(7) 0.3115(6)
N11_5 N 0.4118(5) 0.0945(9) 0.1885(6)
C19_5 C 0.3632(7) 0.3119(10) 0.2874(8)
H13_5 H 0.3329 0.3086 0.3177
O3_5 O 0.5181(4) 0.3293(6) 0.3103(5)
N13_4 N 0.5198(5) 0.1225(9) 0.0541(8)
C20_5 C 0.6063(19) 0.4454(24) 0.0064(18)
O4_5 O 0.5619(15) 0.5232(19) 0.1537(19)
C2_5 C 0.4356(7) 0.2444(9) 0.9722(8)
C3_5 C 0.4330(10) 0.2675(13) 0.9071(7)
H2_5 H 0.4307 0.3016 0.9057
C4_5 C 0.4338(14) 0.2420(17) 0.8458(11)
H3_5 H 0.4345 0.2596 0.8000
C5_11 C 0.3874(7) 0.3874(7) 1.0000
H4_11 H 0.4228 0.4228 1.0000
H8_5 H 0.5459 0.3611 0.9768
Zn3_5 Zn 0.33165(11) 0.44222(13) 0.91605(11)
C13_5 C 0.4356(7) 0.1912(11) 0.9722(8)
C14_5 C 0.4330(10) 0.1655(16) 0.9071(7)
H9_5 H 0.4307 0.1291 0.9057
C15_5 C 0.4338(14) 0.1918(22) 0.8458(11)
H10_5 H 0.4345 0.1749 0.8000
N8_5 N 0.3380(7) 0.3792(9) 0.9713(7)
C16_5 C 0.2978(8) 0.3231(10) 0.9792(9)
C17_5 C 0.2420(13) 0.2939(16) 0.9656(11)
H11_5 H 0.2224 0.3122 0.9461
C18_5 C 0.2140(14) 0.2370(18) 0.9806(13)
H12_5 H 0.1762 0.2134 0.9618
H14_5 H 0.6389 0.4541 0.9768
Zn1_6 Zn 0.66835(11) 0.11057(7) 0.08395(11)
C1_6 C 0.7776(10) 0.2225(5) 0.0814(8)
H1_6 H 0.7751 0.2249 0.1335
N1_6 N 0.7377(7) 0.1790(5) 0.0417(6)
C5_12 C 0.6126(7) 0.0000 0.0000
H4_12 H 0.5772 0.0000 0.0000
N2_6 N 0.6620(7) 0.0412(5) 0.0287(7)
C6_6 C 0.7022(8) 0.0253(6) 0.0208(9)
C7_6 C 0.7580(13) 0.0519(9) 0.0344(11)
H5_6 H 0.7776 0.0898 0.0539
C8_6 C 0.7860(14) 0.0230(11) 0.0194(13)
H6_6 H 0.8238 0.0372 0.0382
N3_6 N 0.6827(7) 0.0945(5) 0.1885(6)
C9_6 C 0.6881(10) 0.0513(7) 0.2126(8)
H7_6 H 0.6914 0.0243 0.1823
C10_6 C 0.6807(11) 0.1209(8) 0.2500
N4_6 N 0.6743(9) 0.1706(6) 0.2500
O1_6 O 0.6707(6) 0.1888(4) 0.1897(5)
N5_6 N 0.6027(8) 0.1225(6) 0.0541(8)
C11_6 C 0.6063(19) 0.1609(15) 0.0064(18)
C12_6 C 0.5496(9) 0.0992(8) 0.0811(13)
N6_6 N 0.5271(13) 0.0543(11) 0.135(2)
O2_6 O 0.5619(15) 0.0387(11) 0.1537(19)
Zn4_6 Zn 0.66835(11) 0.11057(7) 0.41605(11)
N7_6 N 0.8210(9) 0.2623(7) 0.0417(6)
N9_6 N 0.9588(9) 0.3380(7) 0.0287(7)
N10_6 N 0.6827(7) 0.0945(5) 0.3115(6)
N11_6 N 0.9055(9) 0.3173(7) 0.1885(6)
C19_6 C 0.6881(10) 0.0513(7) 0.2874(8)
H13_6 H 0.6914 0.0243 0.3177
O3_6 O 0.6707(6) 0.1888(4) 0.3103(5)
C20_6 C 0.5546(24) 0.1609(15) 0.0064(18)
O4_6 O 0.4768(19) 0.0387(11) 0.1537(19)
C2_6 C 0.7556(9) 0.1912(6) 0.9722(8)
C3_6 C 0.7325(13) 0.1655(9) 0.9071(7)
H2_6 H 0.6984 0.1291 0.9057
C4_6 C 0.7580(17) 0.1918(10) 0.8458(11)
H3_6 H 0.7404 0.1749 0.8000
C5_13 C 0.6126(7) 0.0000 1.0000
H4_13 H 0.5772 0.0000 1.0000
H8_6 H 0.6389 0.1848 0.9768
C13_6 C 0.8088(11) 0.2444(9) 0.9722(8)
C14_6 C 0.8345(16) 0.2675(13) 0.9071(7)
H9_6 H 0.8709 0.3016 0.9057
C15_6 C 0.8082(22) 0.2420(17) 0.8458(11)
H10_6 H 0.8251 0.2596 0.8000
H14_6 H 0.5459 0.1848 0.9768
C5_14 C 0.6126(7) 1.0000 0.0000
H4_14 H 0.5772 1.0000 0.0000
C5_15 C 0.6126(7) 1.0000 1.0000
H4_15 H 0.5772 1.0000 1.0000
Zn3_6 Zn 0.55778(13) 0.88943(7) 0.91605(11)
N8_6 N 0.6208(9) 0.9588(5) 0.9713(7)
C16_6 C 0.6769(10) 0.9747(6) 0.9792(9)
C17_6 C 0.7061(16) 0.9481(9) 0.9656(11)
H11_6 H 0.6878 0.9102 0.9461
C18_6 C 0.7630(18) 0.9770(11) 0.9806(13)
H12_6 H 0.7866 0.9628 0.9618
C1_7 C 0.4449(9) 0.2225(5) 0.4186(8)
H1_7 H 0.4498 0.2249 0.3665
N1_7 N 0.4413(5) 0.1790(5) 0.4583(6)
C2_7 C 0.4356(7) 0.1912(6) 0.5278(8)
C3_7 C 0.4330(10) 0.1655(9) 0.5929(7)
H2_7 H 0.4307 0.1291 0.5943
C4_7 C 0.4338(14) 0.1918(10) 0.6542(11)
H3_7 H 0.4345 0.1749 0.7000
N3_7 N 0.4118(5) 0.0945(5) 0.3115(6)
C9_7 C 0.3632(7) 0.0513(7) 0.2874(8)
H7_7 H 0.3329 0.0243 0.3177
C10_7 C 0.4402(8) 0.1209(8) 0.2500
N4_7 N 0.4963(7) 0.1706(6) 0.2500
O1_7 O 0.5181(4) 0.1888(4) 0.3103(5)
N5_7 N 0.5198(5) 0.1225(6) 0.4459(8)
C11_7 C 0.5546(12) 0.1609(15) 0.4936(18)
H8_7 H 0.5459 0.1848 0.5232
C12_7 C 0.5496(4) 0.0992(8) 0.4189(13)
N6_7 N 0.5272(6) 0.0543(11) 0.365(2)
O2_7 O 0.4768(10) 0.0387(11) 0.3463(19)
N7_7 N 0.4413(5) 0.2623(7) 0.4583(6)
C13_7 C 0.4356(7) 0.2444(9) 0.5278(8)
C14_7 C 0.4330(10) 0.2675(13) 0.5929(7)
H9_7 H 0.4307 0.3016 0.5943
C15_7 C 0.4338(14) 0.2420(17) 0.6542(11)
H10_7 H 0.4345 0.2596 0.7000
N9_7 N 0.3792(5) 0.3380(7) 0.4713(7)
C19_7 C 0.3632(7) 0.0513(7) 0.2126(8)
H13_7 H 0.3329 0.0243 0.1823
O3_7 O 0.5181(4) 0.1888(4) 0.1897(5)
N12_3 N 0.6027(8) 0.1225(6) 0.4459(8)
N13_5 N 0.5198(5) 0.3973(8) 0.4459(8)
C20_7 C 0.6063(19) 0.1609(15) 0.4936(18)
H14_7 H 0.6389 0.1848 0.5232
O4_7 O 0.5619(15) 0.0387(11) 0.3463(19)
C1_8 C 0.7776(10) 0.5551(9) 0.4186(8)
H1_8 H 0.7751 0.5502 0.3665
N1_8 N 0.7377(7) 0.5587(5) 0.4583(6)
C2_8 C 0.7556(9) 0.5644(7) 0.5278(8)
C3_8 C 0.7325(13) 0.5670(10) 0.5929(7)
H2_8 H 0.6984 0.5693 0.5943
C4_8 C 0.7580(17) 0.5662(14) 0.6542(11)
H3_8 H 0.7404 0.5655 0.7000
N3_8 N 0.6827(7) 0.5882(5) 0.3115(6)
C9_8 C 0.6881(10) 0.6368(7) 0.2874(8)
H7_8 H 0.6914 0.6671 0.3177
C10_8 C 0.6807(11) 0.5598(8) 0.2500
N4_8 N 0.6743(9) 0.5037(7) 0.2500
O1_8 O 0.6707(6) 0.4819(4) 0.3103(5)
N5_8 N 0.6027(8) 0.4802(5) 0.4459(8)
C11_8 C 0.6063(19) 0.4454(12) 0.4936(18)
H8_8 H 0.6389 0.4541 0.5232
C12_8 C 0.5496(9) 0.4504(4) 0.4189(13)
N6_8 N 0.5271(13) 0.4728(6) 0.365(2)
O2_8 O 0.5619(15) 0.5232(10) 0.3463(19)
N7_8 N 0.8210(9) 0.5587(5) 0.4583(6)
C13_8 C 0.8088(11) 0.5644(7) 0.5278(8)
C14_8 C 0.8345(16) 0.5670(10) 0.5929(7)
H9_8 H 0.8709 0.5693 0.5943
C15_8 C 0.8082(22) 0.5662(14) 0.6542(11)
H10_8 H 0.8251 0.5655 0.7000
N9_8 N 0.9588(9) 0.6208(5) 0.4713(7)
C19_8 C 0.6881(10) 0.6368(7) 0.2126(8)
H13_8 H 0.6914 0.6671 0.1823
O3_8 O 0.6707(6) 0.4819(4) 0.1897(5)
N13_6 N 0.8775(9) 0.4802(5) 0.4459(8)
C20_8 C 0.5546(24) 0.3937(19) 0.4936(18)
H14_8 H 0.5459 0.3611 0.5232
O4_8 O 0.4768(19) 0.4381(15) 0.3463(19)
C1_9 C 0.7775(5) 0.2224(10) 0.4186(8)
H1_9 H 0.7751 0.2249 0.3665
N1_9 N 0.8210(5) 0.2623(7) 0.4583(6)
C2_9 C 0.8088(6) 0.2444(9) 0.5278(8)
C3_9 C 0.8345(9) 0.2675(13) 0.5929(7)
H2_9 H 0.8709 0.3016 0.5943
C4_9 C 0.8082(10) 0.2420(17) 0.6542(11)
H3_9 H 0.8251 0.2596 0.7000
N3_9 N 0.9055(5) 0.3173(7) 0.3115(6)
C9_9 C 0.9487(7) 0.3119(10) 0.2874(8)
H7_9 H 0.9757 0.3086 0.3177
C10_9 C 0.8791(8) 0.3193(11) 0.2500
N4_9 N 0.8294(6) 0.3257(9) 0.2500
O1_9 O 0.8112(4) 0.3293(6) 0.3103(5)
N5_9 N 0.8775(6) 0.3973(8) 0.4459(8)
C11_9 C 0.8391(15) 0.3937(19) 0.4936(18)
H8_9 H 0.8152 0.3611 0.5232
C12_9 C 0.9008(8) 0.4504(9) 0.4189(13)
N6_9 N 0.9457(11) 0.4729(13) 0.365(2)
O2_9 O 0.9613(11) 0.4381(15) 0.3463(19)
N7_9 N 0.7377(7) 0.1790(9) 0.4583(6)
C13_9 C 0.7556(9) 0.1912(11) 0.5278(8)
C14_9 C 0.7325(13) 0.1655(16) 0.5929(7)
H9_9 H 0.6984 0.1291 0.5943
C15_9 C 0.7580(17) 0.1918(22) 0.6542(11)
H10_9 H 0.7404 0.1749 0.7000
N9_9 N 0.6620(7) 0.0412(9) 0.4713(7)
C19_9 C 0.9487(7) 0.3119(10) 0.2126(8)
H13_9 H 0.9757 0.3086 0.1823
O3_9 O 0.8112(4) 0.3293(6) 0.1897(5)
C20_9 C 0.8391(15) 0.4454(24) 0.4936(18)
H14_9 H 0.8152 0.4541 0.5232
O4_9 O 0.9613(11) 0.5232(19) 0.3463(19)
C2_10 C 0.5644(7) 0.8088(6) 0.0278(8)
C3_10 C 0.5670(10) 0.8345(9) 0.0929(7)
H2_10 H 0.5693 0.8709 0.0943
C4_10 C 0.5662(14) 0.8082(10) 0.1542(11)
H3_10 H 0.5655 0.8251 0.2000
H8_10 H 0.4541 0.8152 0.0232
C13_10 C 0.5644(7) 0.7556(9) 0.0278(8)
C14_10 C 0.5670(10) 0.7325(13) 0.0929(7)
H9_10 H 0.5693 0.6984 0.0943
C15_10 C 0.5662(14) 0.7580(17) 0.1542(11)
H10_10 H 0.5655 0.7404 0.2000
H14_10 H 0.3611 0.8152 0.0232
C1_10 C 0.5551(9) 0.7775(5) 0.9186(8)
H1_10 H 0.5502 0.7751 0.8665
N1_10 N 0.5587(5) 0.8210(5) 0.9583(6)
N3_10 N 0.5882(5) 0.9055(5) 0.8115(6)
C9_10 C 0.6368(7) 0.9487(7) 0.7874(8)
H7_10 H 0.6671 0.9757 0.8177
C10_10 C 0.5598(8) 0.8791(8) 0.7500
N4_10 N 0.5037(7) 0.8294(6) 0.7500
O1_10 O 0.4819(4) 0.8112(4) 0.8103(5)
N5_10 N 0.4802(5) 0.8775(6) 0.9459(8)
C11_10 C 0.4454(12) 0.8391(15) 0.9936(18)
C12_10 C 0.4504(4) 0.9008(8) 0.9189(13)
N6_10 N 0.4728(6) 0.9457(11) 0.865(2)
O2_10 O 0.5232(10) 0.9613(11) 0.8463(19)
N7_10 N 0.5587(5) 0.7377(7) 0.9583(6)
N9_10 N 0.6208(5) 0.6620(7) 0.9713(7)
C19_10 C 0.6368(7) 0.9487(7) 0.7126(8)
H13_10 H 0.6671 0.9757 0.6823
O3_10 O 0.4819(4) 0.8112(4) 0.6897(5)
N12_4 N 0.3973(8) 0.8775(6) 0.9459(8)
N13_7 N 0.4802(5) 0.6027(8) 0.9459(8)
C20_10 C 0.3937(19) 0.8391(15) 0.9936(18)
O4_10 O 0.4381(15) 0.9613(11) 0.8463(19)
C2_11 C 0.2444(9) 0.4356(7) 0.0278(8)
C3_11 C 0.2675(13) 0.4330(10) 0.0929(7)
H2_11 H 0.3016 0.4307 0.0943
C4_11 C 0.2420(17) 0.4338(14) 0.1542(11)
H3_11 H 0.2596 0.4345 0.2000
H8_11 H 0.3611 0.5459 0.0232
C13_11 C 0.1912(11) 0.4356(7) 0.0278(8)
C14_11 C 0.1655(16) 0.4330(10) 0.0929(7)
H9_11 H 0.1291 0.4307 0.0943
C15_11 C 0.1918(22) 0.4338(14) 0.1542(11)
H10_11 H 0.1749 0.4345 0.2000
H14_11 H 0.4541 0.6389 0.0232
C1_11 C 0.2224(10) 0.4449(9) 0.9186(8)
H1_11 H 0.2249 0.4498 0.8665
N1_11 N 0.2623(7) 0.4413(5) 0.9583(6)
N3_11 N 0.3173(7) 0.4118(5) 0.8115(6)
C9_11 C 0.3119(10) 0.3632(7) 0.7874(8)
H7_11 H 0.3086 0.3329 0.8177
C10_11 C 0.3193(11) 0.4402(8) 0.7500
N4_11 N 0.3257(9) 0.4963(7) 0.7500
O1_11 O 0.3293(6) 0.5181(4) 0.8103(5)
N5_11 N 0.3973(8) 0.5198(5) 0.9459(8)
C11_11 C 0.3937(19) 0.5546(12) 0.9936(18)
C12_11 C 0.4504(9) 0.5496(4) 0.9189(13)
N6_11 N 0.4729(13) 0.5272(6) 0.865(2)
O2_11 O 0.4381(15) 0.4768(10) 0.8463(19)
N7_11 N 0.1790(9) 0.4413(5) 0.9583(6)
N9_11 N 0.0412(9) 0.3792(5) 0.9713(7)
C19_11 C 0.3119(10) 0.3632(7) 0.7126(8)
H13_11 H 0.3086 0.3329 0.6823
O3_11 O 0.3293(6) 0.5181(4) 0.6897(5)
N13_8 N 0.1225(9) 0.5198(5) 0.9459(8)
C20_11 C 0.4454(24) 0.6063(19) 0.9936(18)
O4_11 O 0.5232(19) 0.5619(15) 0.8463(19)
C2_12 C 0.1912(6) 0.7556(9) 0.0278(8)
C3_12 C 0.1655(9) 0.7325(13) 0.0929(7)
H2_12 H 0.1291 0.6984 0.0943
C4_12 C 0.1918(10) 0.7580(17) 0.1542(11)
H3_12 H 0.1749 0.7404 0.2000
H8_12 H 0.1848 0.6389 0.0232
C13_12 C 0.2444(9) 0.8088(11) 0.0278(8)
C14_12 C 0.2675(13) 0.8345(16) 0.0929(7)
H9_12 H 0.3016 0.8709 0.0943
C15_12 C 0.2420(17) 0.8082(22) 0.1542(11)
H10_12 H 0.2596 0.8251 0.2000
H14_12 H 0.1848 0.5459 0.0232
C1_12 C 0.2225(5) 0.7776(10) 0.9186(8)
H1_12 H 0.2249 0.7751 0.8665
N1_12 N 0.1790(5) 0.7377(7) 0.9583(6)
N3_12 N 0.0945(5) 0.6827(7) 0.8115(6)
C9_12 C 0.0513(7) 0.6881(10) 0.7874(8)
H7_12 H 0.0243 0.6914 0.8177
C10_12 C 0.1209(8) 0.6807(11) 0.7500
N4_12 N 0.1706(6) 0.6743(9) 0.7500
O1_12 O 0.1888(4) 0.6707(6) 0.8103(5)
N5_12 N 0.1225(6) 0.6027(8) 0.9459(8)
C11_12 C 0.1609(15) 0.6063(19) 0.9936(18)
C12_12 C 0.0992(8) 0.5496(9) 0.9189(13)
N6_12 N 0.0543(11) 0.5271(13) 0.865(2)
O2_12 O 0.0387(11) 0.5619(15) 0.8463(19)
N7_12 N 0.2623(7) 0.8210(9) 0.9583(6)
N9_12 N 0.3380(7) 0.9588(9) 0.9713(7)
C19_12 C 0.0513(7) 0.6881(10) 0.7126(8)
H13_12 H 0.0243 0.6914 0.6823
O3_12 O 0.1888(4) 0.6707(6) 0.6897(5)
C20_12 C 0.1609(15) 0.5546(24) 0.9936(18)
O4_12 O 0.0387(11) 0.4768(19) 0.8463(19)
C5_16 C -0.0000 0.6126(7) 0.5000
H4_16 H 0.0000 0.5772 0.5000
C16_7 C 0.0253(6) 0.7022(8) 0.5208(9)
C17_7 C 0.0519(9) 0.7580(13) 0.5344(11)
H11_7 H 0.0898 0.7776 0.5539
C18_7 C 0.0230(11) 0.7860(14) 0.5194(13)
H12_7 H 0.0372 0.8238 0.5382
C5_17 C 1.0000 0.6126(7) 0.5000
H4_17 H 1.0000 0.5772 0.5000
C6_7 C 0.9747(6) 0.6769(6) 0.4792(9)
C7_7 C 0.9481(9) 0.7061(9) 0.4656(11)
H5_7 H 0.9102 0.6878 0.4461
C8_7 C 0.9770(11) 0.7630(8) 0.4806(13)
H6_7 H 0.9628 0.7866 0.4618
C5_18 C 0.3874(7) 0.3874(7) 0.5000
H4_18 H 0.4228 0.4228 0.5000
C6_8 C 0.3231(6) 0.2978(8) 0.4792(9)
C7_8 C 0.2939(9) 0.2420(13) 0.4656(11)
H5_8 H 0.3122 0.2224 0.4461
C8_8 C 0.2370(8) 0.2140(14) 0.4806(13)
H6_8 H 0.2134 0.1762 0.4618
C16_8 C 0.2978(8) 0.3231(10) 0.5208(9)
C17_8 C 0.2420(13) 0.2939(16) 0.5344(11)
H11_8 H 0.2224 0.3122 0.5539
C18_8 C 0.2140(14) 0.2370(18) 0.5194(13)
H12_8 H 0.1762 0.2134 0.5382
C5_19 C 0.6126(7) 0.0000 0.5000
H4_19 H 0.5772 0.0000 0.5000
C6_9 C 0.7022(8) 0.0253(6) 0.4792(9)
C7_9 C 0.7580(13) 0.0519(9) 0.4656(11)
H5_9 H 0.7776 0.0898 0.4461
C8_9 C 0.7860(14) 0.0230(11) 0.4806(13)
H6_9 H 0.8238 0.0372 0.4618
C5_20 C 0.6126(7) 1.0000 0.5000
H4_20 H 0.5772 1.0000 0.5000
C16_9 C 0.6769(10) 0.9747(6) 0.5208(9)
C17_9 C 0.7061(16) 0.9481(9) 0.5344(11)
H11_9 H 0.6878 0.9102 0.5539
C18_9 C 0.7630(18) 0.9770(11) 0.5194(13)
H12_9 H 0.7866 0.9628 0.5382
C5_21 C 0.0000 0.3874(7) 0.0000
H4_21 H 0.0000 0.4228 0.0000
C5_22 C 0.0000 0.3874(7) 1.0000
H4_22 H -0.0000 0.4228 1.0000
C6_10 C 0.0253(6) 0.3231(6) 0.9792(9)
C7_10 C 0.0519(9) 0.2939(9) 0.9656(11)
H5_10 H 0.0898 0.3122 0.9461
C8_10 C 0.0230(11) 0.2370(8) 0.9806(13)
H6_10 H 0.0372 0.2134 0.9618
C5_23 C 1.0000 0.3874(7) 0.0000
H4_23 H 1.0000 0.4228 0.0000
C16_10 C 0.9747(6) 0.2978(8) 0.0208(9)
C17_10 C 0.9481(9) 0.2420(13) 0.0344(11)
H11_10 H 0.9102 0.2224 0.0539
C18_10 C 0.9770(11) 0.2140(14) 0.0194(13)
H12_10 H 0.9628 0.1762 0.0382
C5_24 C 1.0000 0.3874(7) 1.0000
H4_24 H 1.0000 0.4228 1.0000
C5_25 C 0.6126(7) 0.6126(7) 0.0000
H4_25 H 0.5772 0.5772 0.0000
C16_11 C 0.7022(8) 0.6769(10) 0.0208(9)
C17_11 C 0.7580(13) 0.7061(16) 0.0344(11)
H11_11 H 0.7776 0.6878 0.0539
C18_11 C 0.7860(14) 0.7630(18) 0.0194(13)
H12_11 H 0.8238 0.7866 0.0382
C5_26 C 0.6126(7) 0.6126(7) 1.0000
H4_26 H 0.5772 0.5772 1.0000
C6_11 C 0.6769(6) 0.7022(8) 0.9792(9)
C7_11 C 0.7061(9) 0.7580(13) 0.9656(11)
H5_11 H 0.6878 0.7776 0.9461
C8_11 C 0.7630(8) 0.7860(14) 0.9806(13)
H6_11 H 0.7866 0.8238 0.9618
C5_27 C 0.3874(7) -0.0000 0.0000
H4_27 H 0.4228 -0.0000 0.0000
C16_12 C 0.3231(10) 0.0253(6) 0.0208(9)
C17_12 C 0.2939(16) 0.0519(9) 0.0344(11)
H11_12 H 0.3122 0.0898 0.0539
C18_12 C 0.2370(18) 0.0230(11) 0.0194(13)
H12_12 H 0.2134 0.0372 0.0382
C5_28 C 0.3874(7) -0.0000 1.0000
H4_28 H 0.4228 -0.0000 1.0000
C5_29 C 0.3874(7) 1.0000 0.0000
H4_29 H 0.4228 1.0000 0.0000
C5_30 C 0.3874(7) 1.0000 1.0000
H4_30 H 0.4228 1.0000 1.0000
C6_12 C 0.2978(8) 0.9747(6) 0.9792(9)
C7_12 C 0.2420(13) 0.9481(9) 0.9656(11)
H5_12 H 0.2224 0.9102 0.9461
C8_12 C 0.2140(14) 0.9770(11) 0.9806(13)
H6_12 H 0.1762 0.9628 0.9618
loop_
_geom_bond_atom_site_label_1
_geom_bond_atom_site_label_2
_geom_bond_site_symmetry_1
_geom_bond_site_symmetry_2
Zn1 N1 1_555 1_555
C1 H1 1_555 1_555
N1 C1 1_555 1_555
C2 N1 1_555 1_555
C3 C2 1_555 1_555
H2 C3 1_555 1_555
C4 C3 1_555 1_555
H3 C4 1_555 1_555
C5 H4 1_555 1_555
N2 Zn1 1_555 1_555
C6 N2 1_555 1_555
C7 C6 1_555 1_555
H5 C7 1_555 1_555
C8 C7 1_555 1_555
H6 C8 1_555 1_555
N3 Zn1 1_555 1_555
C9 N3 1_555 1_555
H7 C9 1_555 1_555
C10 N3 1_555 1_555
N4 C10 1_555 1_555
O1 N4 1_555 1_555
N5 Zn1 1_555 1_555
C11 N5 1_555 1_555
H8 C11 1_555 1_555
C12 N5 1_555 1_555
N6 C12 1_555 1_555
O2 N6 1_555 1_555
Zn2 N7 1_555 1_555
Zn4 N10 1_555 1_555
Zn5 N12 1_555 1_555
N7 C1 1_555 1_555
C13 C2 1_555 1_555
C14 C13 1_555 1_555
H9 C14 1_555 1_555
C15 C4 1_555 1_555
H10 C15 1_555 1_555
N9 Zn2 1_555 1_555
N10 C10 1_555 1_555
N11 Zn2 1_555 1_555
C19 C9 1_555 1_555
H13 C19 1_555 1_555
O3 N4 1_555 1_555
N12 C12 1_555 1_555
N13 Zn2 1_555 1_555
C20 C11 1_555 1_555
H14 C20 1_555 1_555
O4 N6 1_555 1_555
C5 N2 1_555 1_555
N7 C13 1_555 1_555
C14 C15 1_555 1_555
N10 C19 1_555 1_555
N12 C20 1_555 1_555
C5_2 H4_2 1_555 1_555
Zn3 N8 1_555 1_555
N8 C5_2 1_555 1_555
C17 C16 1_555 1_555
H11 C17 1_555 1_555
H12 C18 1_555 1_555
N8 C16 1_555 1_555
C17 C18 1_555 1_555
Zn1_2 N1_2 1_555 1_555
C1_2 H1_2 1_555 1_555
N1_2 C1_2 1_555 1_555
C2_2 N1_2 1_555 1_555
C3_2 C2_2 1_555 1_555
H2_2 C3_2 1_555 1_555
C4_2 C3_2 1_555 1_555
H3_2 C4_2 1_555 1_555
C5_3 H4_3 1_555 1_555
N2_2 Zn1_2 1_555 1_555
C6_2 N2_2 1_555 1_555
C7_2 C6_2 1_555 1_555
H5_2 C7_2 1_555 1_555
C8_2 C7_2 1_555 1_555
H6_2 C8_2 1_555 1_555
N3_2 Zn1_2 1_555 1_555
C9_2 N3_2 1_555 1_555
H7_2 C9_2 1_555 1_555
C10_2 N3_2 1_555 1_555
N4_2 C10_2 1_555 1_555
O1_2 N4_2 1_555 1_555
N5_2 Zn1_2 1_555 1_555
C11_2 N5_2 1_555 1_555
H8_2 C11_2 1_555 1_555
C12_2 N5_2 1_555 1_555
N6_2 C12_2 1_555 1_555
O2_2 N6_2 1_555 1_555
Zn2_2 N7_2 1_555 1_555
Zn3_2 N8_2 1_555 1_555
Zn4_2 N10_2 1_555 1_555
N7_2 C1_2 1_555 1_555
C13_2 C2_2 1_555 1_555
C14_2 C13_2 1_555 1_555
H9_2 C14_2 1_555 1_555
C15_2 C4_2 1_555 1_555
H10_2 C15_2 1_555 1_555
N8_2 C5_3 1_555 1_555
N9_2 Zn2_2 1_555 1_555
C16_2 C6_2 1_555 1_555
C17_2 C16_2 1_555 1_555
H11_2 C17_2 1_555 1_555
C18_2 C8_2 1_555 1_555
H12_2 C18_2 1_555 1_555
N10_2 C10_2 1_555 1_555
N11_2 Zn2_2 1_555 1_555
C19_2 C9_2 1_555 1_555
H13_2 C19_2 1_555 1_555
O3_2 N4_2 1_555 1_555
N13 C12_2 1_555 1_555
N13_2 Zn2_2 1_555 1_555
C20_2 C11_2 1_555 1_555
H14_2 C20_2 1_555 1_555
O4_2 N6_2 1_555 1_555
C5_3 N2_2 1_555 1_555
N7_2 C13_2 1_555 1_555
C14_2 C15_2 1_555 1_555
N8_2 C16_2 1_555 1_555
C17_2 C18_2 1_555 1_555
N10_2 C19_2 1_555 1_555
N13 C20_2 1_555 1_555
C5_4 H4_4 1_555 1_555
Zn3_3 N8_3 1_555 1_555
N8_3 C5_4 1_555 1_555
C17_3 C16_3 1_555 1_555
H11_3 C17_3 1_555 1_555
H12_3 C18_3 1_555 1_555
N8_3 C16_3 1_555 1_555
C17_3 C18_3 1_555 1_555
Zn1_3 N1_3 1_555 1_555
C1_3 H1_3 1_555 1_555
N1_3 C1_3 1_555 1_555
C2_3 N1_3 1_555 1_555
C3_3 C2_3 1_555 1_555
H2_3 C3_3 1_555 1_555
C4_3 C3_3 1_555 1_555
H3_3 C4_3 1_555 1_555
C5_5 H4_5 1_555 1_555
N2_3 Zn1_3 1_555 1_555
C6_3 N2_3 1_555 1_555
C7_3 C6_3 1_555 1_555
H5_3 C7_3 1_555 1_555
C8_3 C7_3 1_555 1_555
H6_3 C8_3 1_555 1_555
N3_3 Zn1_3 1_555 1_555
C9_3 N3_3 1_555 1_555
H7_3 C9_3 1_555 1_555
C10_3 N3_3 1_555 1_555
N4_3 C10_3 1_555 1_555
O1_3 N4_3 1_555 1_555
N5_3 Zn1_3 1_555 1_555
C11_3 N5_3 1_555 1_555
H8_3 C11_3 1_555 1_555
C12_3 N5_3 1_555 1_555
N6_3 C12_3 1_555 1_555
O2_3 N6_3 1_555 1_555
Zn5 N7_3 1_555 1_555
Zn4_3 N10_3 1_555 1_555
N7_3 C1_3 1_555 1_555
C13_3 C2_3 1_555 1_555
C14_3 C13_3 1_555 1_555
H9_3 C14_3 1_555 1_555
C15_3 C4_3 1_555 1_555
H10_3 C15_3 1_555 1_555
N9_3 Zn5 1_555 1_555
N10_3 C10_3 1_555 1_555
N11_3 Zn5 1_555 1_555
C19_3 C9_3 1_555 1_555
H13_3 C19_3 1_555 1_555
O3_3 N4_3 1_555 1_555
N13_2 C12_3 1_555 1_555
C20_3 C11_3 1_555 1_555
H14_3 C20_3 1_555 1_555
O4_3 N6_3 1_555 1_555
C5_5 N2_3 1_555 1_555
N7_3 C13_3 1_555 1_555
C14_3 C15_3 1_555 1_555
N10_3 C19_3 1_555 1_555
N13_2 C20_3 1_555 1_555
C5_6 H4_6 1_555 1_555
C5_7 H4_7 1_555 1_555
Zn3_4 N8_4 1_555 1_555
N8_4 C5_7 1_555 1_555
C17_4 C16_4 1_555 1_555
H11_4 C17_4 1_555 1_555
H12_4 C18_4 1_555 1_555
N8_4 C16_4 1_555 1_555
C17_4 C18_4 1_555 1_555
Zn1_4 N1_4 1_555 1_555
C1_4 H1_4 1_555 1_555
N1_4 C1_4 1_555 1_555
C5_8 H4_8 1_555 1_555
N2_4 Zn1_4 1_555 1_555
C6_4 N2_4 1_555 1_555
C7_4 C6_4 1_555 1_555
H5_4 C7_4 1_555 1_555
C8_4 C7_4 1_555 1_555
H6_4 C8_4 1_555 1_555
N3_4 Zn1_4 1_555 1_555
C9_4 N3_4 1_555 1_555
H7_4 C9_4 1_555 1_555
C10_4 N3_4 1_555 1_555
N4_4 C10_4 1_555 1_555
O1_4 N4_4 1_555 1_555
N5_4 Zn1_4 1_555 1_555
C11_4 N5_4 1_555 1_555
C12_4 N5_4 1_555 1_555
N6_4 C12_4 1_555 1_555
O2_4 N6_4 1_555 1_555
Zn2_3 N7_4 1_555 1_555
Zn4_4 N10_4 1_555 1_555
Zn5_2 N12_2 1_555 1_555
N7_4 C1_4 1_555 1_555
N9_4 Zn2_3 1_555 1_555
N10_4 C10_4 1_555 1_555
N11_4 Zn2_3 1_555 1_555
C19_4 C9_4 1_555 1_555
H13_4 C19_4 1_555 1_555
O3_4 N4_4 1_555 1_555
N12_2 C12_4 1_555 1_555
N13_3 Zn2_3 1_555 1_555
C20_4 C11_4 1_555 1_555
O4_4 N6_4 1_555 1_555
C5_8 N2_4 1_555 1_555
N10_4 C19_4 1_555 1_555
N12_2 C20_4 1_555 1_555
C3_4 C2_4 1_555 1_555
H2_4 C3_4 1_555 1_555
C4_4 C3_4 1_555 1_555
H3_4 C4_4 1_555 1_555
C5_9 H4_9 1_555 1_555
C13_4 C2_4 1_555 1_555
C14_4 C13_4 1_555 1_555
H9_4 C14_4 1_555 1_555
C15_4 C4_4 1_555 1_555
H10_4 C15_4 1_555 1_555
C14_4 C15_4 1_555 1_555
Zn1_5 N1_5 1_555 1_555
C1_5 H1_5 1_555 1_555
N1_5 C1_5 1_555 1_555
C5_10 H4_10 1_555 1_555
N2_5 Zn1_5 1_555 1_555
C6_5 N2_5 1_555 1_555
C7_5 C6_5 1_555 1_555
H5_5 C7_5 1_555 1_555
C8_5 C7_5 1_555 1_555
H6_5 C8_5 1_555 1_555
N3_5 Zn1_5 1_555 1_555
C9_5 N3_5 1_555 1_555
H7_5 C9_5 1_555 1_555
C10_5 N3_5 1_555 1_555
N4_5 C10_5 1_555 1_555
O1_5 N4_5 1_555 1_555
N5_5 Zn1_5 1_555 1_555
C11_5 N5_5 1_555 1_555
C12_5 N5_5 1_555 1_555
N6_5 C12_5 1_555 1_555
O2_5 N6_5 1_555 1_555
Zn2_4 N7_5 1_555 1_555
Zn4_5 N10_5 1_555 1_555
N7_5 C1_5 1_555 1_555
N9_5 Zn2_4 1_555 1_555
N10_5 C10_5 1_555 1_555
N11_5 Zn2_4 1_555 1_555
C19_5 C9_5 1_555 1_555
H13_5 C19_5 1_555 1_555
O3_5 N4_5 1_555 1_555
N13_3 C12_5 1_555 1_555
N13_4 Zn2_4 1_555 1_555
C20_5 C11_5 1_555 1_555
O4_5 N6_5 1_555 1_555
C5_10 N2_5 1_555 1_555
N10_5 C19_5 1_555 1_555
N13_3 C20_5 1_555 1_555
C3_5 C2_5 1_555 1_555
H2_5 C3_5 1_555 1_555
C4_5 C3_5 1_555 1_555
H3_5 C4_5 1_555 1_555
C5_11 H4_11 1_555 1_555
Zn3_5 N8_5 1_555 1_555
C13_5 C2_5 1_555 1_555
C14_5 C13_5 1_555 1_555
H9_5 C14_5 1_555 1_555
C15_5 C4_5 1_555 1_555
H10_5 C15_5 1_555 1_555
N8_5 C5_11 1_555 1_555
C17_5 C16_5 1_555 1_555
H11_5 C17_5 1_555 1_555
H12_5 C18_5 1_555 1_555
C14_5 C15_5 1_555 1_555
N8_5 C16_5 1_555 1_555
C17_5 C18_5 1_555 1_555
Zn1_6 N1_6 1_555 1_555
C1_6 H1_6 1_555 1_555
N1_6 C1_6 1_555 1_555
C5_12 H4_12 1_555 1_555
N2_6 Zn1_6 1_555 1_555
C6_6 N2_6 1_555 1_555
C7_6 C6_6 1_555 1_555
H5_6 C7_6 1_555 1_555
C8_6 C7_6 1_555 1_555
H6_6 C8_6 1_555 1_555
N3_6 Zn1_6 1_555 1_555
C9_6 N3_6 1_555 1_555
H7_6 C9_6 1_555 1_555
C10_6 N3_6 1_555 1_555
N4_6 C10_6 1_555 1_555
O1_6 N4_6 1_555 1_555
N5_6 Zn1_6 1_555 1_555
C11_6 N5_6 1_555 1_555
C12_6 N5_6 1_555 1_555
N6_6 C12_6 1_555 1_555
O2_6 N6_6 1_555 1_555
Zn5_2 N7_6 1_555 1_555
Zn4_6 N10_6 1_555 1_555
N7_6 C1_6 1_555 1_555
N9_6 Zn5_2 1_555 1_555
N10_6 C10_6 1_555 1_555
N11_6 Zn5_2 1_555 1_555
C19_6 C9_6 1_555 1_555
H13_6 C19_6 1_555 1_555
O3_6 N4_6 1_555 1_555
N13_4 C12_6 1_555 1_555
C20_6 C11_6 1_555 1_555
O4_6 N6_6 1_555 1_555
C5_12 N2_6 1_555 1_555
N10_6 C19_6 1_555 1_555
N13_4 C20_6 1_555 1_555
C3_6 C2_6 1_555 1_555
H2_6 C3_6 1_555 1_555
C4_6 C3_6 1_555 1_555
H3_6 C4_6 1_555 1_555
C5_13 H4_13 1_555 1_555
C13_6 C2_6 1_555 1_555
C14_6 C13_6 1_555 1_555
H9_6 C14_6 1_555 1_555
C15_6 C4_6 1_555 1_555
H10_6 C15_6 1_555 1_555
C14_6 C15_6 1_555 1_555
C5_14 H4_14 1_555 1_555
C5_15 H4_15 1_555 1_555
Zn3_6 N8_6 1_555 1_555
N8_6 C5_15 1_555 1_555
C17_6 C16_6 1_555 1_555
H11_6 C17_6 1_555 1_555
H12_6 C18_6 1_555 1_555
N8_6 C16_6 1_555 1_555
C17_6 C18_6 1_555 1_555
Zn3_3 N1_7 1_555 1_555
C1_7 H1_7 1_555 1_555
N1_7 C1_7 1_555 1_555
C2_7 N1_7 1_555 1_555
C3_7 C2_7 1_555 1_555
H2_7 C3_7 1_555 1_555
C4_7 C3_7 1_555 1_555
H3_7 C4_7 1_555 1_555
N3_7 Zn3_3 1_555 1_555
C9_7 N3_7 1_555 1_555
H7_7 C9_7 1_555 1_555
C10_7 N3_7 1_555 1_555
N4_7 C10_7 1_555 1_555
O1_7 N4_7 1_555 1_555
N5_7 Zn3_3 1_555 1_555
C11_7 N5_7 1_555 1_555
H8_7 C11_7 1_555 1_555
C12_7 N5_7 1_555 1_555
N6_7 C12_7 1_555 1_555
O2_7 N6_7 1_555 1_555
Zn4_5 N7_7 1_555 1_555
Zn4_6 N12_3 1_555 1_555
N7_7 C1_7 1_555 1_555
C13_7 C2_7 1_555 1_555
C14_7 C13_7 1_555 1_555
H9_7 C14_7 1_555 1_555
C15_7 C4_7 1_555 1_555
H10_7 C15_7 1_555 1_555
N9_7 Zn4_5 1_555 1_555
N11_5 C10_7 1_555 1_555
C19_7 C9_7 1_555 1_555
H13_7 C19_7 1_555 1_555
O3_7 N4_7 1_555 1_555
N12_3 C12_7 1_555 1_555
N13_5 Zn4_5 1_555 1_555
C20_7 C11_7 1_555 1_555
H14_7 C20_7 1_555 1_555
O4_7 N6_7 1_555 1_555
N7_7 C13_7 1_555 1_555
C14_7 C15_7 1_555 1_555
N11_5 C19_7 1_555 1_555
N12_3 C20_7 1_555 1_555
Zn3_2 N1_8 1_555 1_555
C1_8 H1_8 1_555 1_555
N1_8 C1_8 1_555 1_555
C2_8 N1_8 1_555 1_555
C3_8 C2_8 1_555 1_555
H2_8 C3_8 1_555 1_555
C4_8 C3_8 1_555 1_555
H3_8 C4_8 1_555 1_555
N3_8 Zn3_2 1_555 1_555
C9_8 N3_8 1_555 1_555
H7_8 C9_8 1_555 1_555
C10_8 N3_8 1_555 1_555
N4_8 C10_8 1_555 1_555
O1_8 N4_8 1_555 1_555
N5_8 Zn3_2 1_555 1_555
C11_8 N5_8 1_555 1_555
H8_8 C11_8 1_555 1_555
C12_8 N5_8 1_555 1_555
N6_8 C12_8 1_555 1_555
O2_8 N6_8 1_555 1_555
Zn4_4 N7_8 1_555 1_555
N7_8 C1_8 1_555 1_555
C13_8 C2_8 1_555 1_555
C14_8 C13_8 1_555 1_555
H9_8 C14_8 1_555 1_555
C15_8 C4_8 1_555 1_555
H10_8 C15_8 1_555 1_555
N9_8 Zn4_4 1_555 1_555
N11_4 C10_8 1_555 1_555
C19_8 C9_8 1_555 1_555
H13_8 C19_8 1_555 1_555
O3_8 N4_8 1_555 1_555
N13_5 C12_8 1_555 1_555
N13_6 Zn4_4 1_555 1_555
C20_8 C11_8 1_555 1_555
H14_8 C20_8 1_555 1_555
O4_8 N6_8 1_555 1_555
N7_8 C13_8 1_555 1_555
C14_8 C15_8 1_555 1_555
N11_4 C19_8 1_555 1_555
N13_5 C20_8 1_555 1_555
Zn3 N1_9 1_555 1_555
C1_9 H1_9 1_555 1_555
N1_9 C1_9 1_555 1_555
C2_9 N1_9 1_555 1_555
C3_9 C2_9 1_555 1_555
H2_9 C3_9 1_555 1_555
C4_9 C3_9 1_555 1_555
H3_9 C4_9 1_555 1_555
N3_9 Zn3 1_555 1_555
C9_9 N3_9 1_555 1_555
H7_9 C9_9 1_555 1_555
C10_9 N3_9 1_555 1_555
N4_9 C10_9 1_555 1_555
O1_9 N4_9 1_555 1_555
N5_9 Zn3 1_555 1_555
C11_9 N5_9 1_555 1_555
H8_9 C11_9 1_555 1_555
C12_9 N5_9 1_555 1_555
N6_9 C12_9 1_555 1_555
O2_9 N6_9 1_555 1_555
Zn4_6 N7_9 1_555 1_555
N7_9 C1_9 1_555 1_555
C13_9 C2_9 1_555 1_555
C14_9 C13_9 1_555 1_555
H9_9 C14_9 1_555 1_555
C15_9 C4_9 1_555 1_555
H10_9 C15_9 1_555 1_555
N9_9 Zn4_6 1_555 1_555
N11_6 C10_9 1_555 1_555
C19_9 C9_9 1_555 1_555
H13_9 C19_9 1_555 1_555
O3_9 N4_9 1_555 1_555
N13_6 C12_9 1_555 1_555
C20_9 C11_9 1_555 1_555
H14_9 C20_9 1_555 1_555
O4_9 N6_9 1_555 1_555
N7_9 C13_9 1_555 1_555
C14_9 C15_9 1_555 1_555
N11_6 C19_9 1_555 1_555
N13_6 C20_9 1_555 1_555
C3_10 C2_10 1_555 1_555
H2_10 C3_10 1_555 1_555
C4_10 C3_10 1_555 1_555
H3_10 C4_10 1_555 1_555
C13_10 C2_10 1_555 1_555
C14_10 C13_10 1_555 1_555
H9_10 C14_10 1_555 1_555
C15_10 C4_10 1_555 1_555
H10_10 C15_10 1_555 1_555
C14_10 C15_10 1_555 1_555
Zn3_6 N1_10 1_555 1_555
C1_10 H1_10 1_555 1_555
N1_10 C1_10 1_555 1_555
N3_10 Zn3_6 1_555 1_555
C9_10 N3_10 1_555 1_555
H7_10 C9_10 1_555 1_555
C10_10 N3_10 1_555 1_555
N4_10 C10_10 1_555 1_555
O1_10 N4_10 1_555 1_555
N5_10 Zn3_6 1_555 1_555
C11_10 N5_10 1_555 1_555
C12_10 N5_10 1_555 1_555
N6_10 C12_10 1_555 1_555
O2_10 N6_10 1_555 1_555
Zn4_2 N7_10 1_555 1_555
Zn4_3 N12_4 1_555 1_555
N7_10 C1_10 1_555 1_555
N9_10 Zn4_2 1_555 1_555
N11_2 C10_10 1_555 1_555
C19_10 C9_10 1_555 1_555
H13_10 C19_10 1_555 1_555
O3_10 N4_10 1_555 1_555
N12_4 C12_10 1_555 1_555
N13_7 Zn4_2 1_555 1_555
C20_10 C11_10 1_555 1_555
O4_10 N6_10 1_555 1_555
N11_2 C19_10 1_555 1_555
N12_4 C20_10 1_555 1_555
C3_11 C2_11 1_555 1_555
H2_11 C3_11 1_555 1_555
C4_11 C3_11 1_555 1_555
H3_11 C4_11 1_555 1_555
C13_11 C2_11 1_555 1_555
C14_11 C13_11 1_555 1_555
H9_11 C14_11 1_555 1_555
C15_11 C4_11 1_555 1_555
H10_11 C15_11 1_555 1_555
C14_11 C15_11 1_555 1_555
Zn3_5 N1_11 1_555 1_555
C1_11 H1_11 1_555 1_555
N1_11 C1_11 1_555 1_555
N3_11 Zn3_5 1_555 1_555
C9_11 N3_11 1_555 1_555
H7_11 C9_11 1_555 1_555
C10_11 N3_11 1_555 1_555
N4_11 C10_11 1_555 1_555
O1_11 N4_11 1_555 1_555
N5_11 Zn3_5 1_555 1_555
C11_11 N5_11 1_555 1_555
C12_11 N5_11 1_555 1_555
N6_11 C12_11 1_555 1_555
O2_11 N6_11 1_555 1_555
Zn4 N7_11 1_555 1_555
N7_11 C1_11 1_555 1_555
N9_11 Zn4 1_555 1_555
N11 C10_11 1_555 1_555
C19_11 C9_11 1_555 1_555
H13_11 C19_11 1_555 1_555
O3_11 N4_11 1_555 1_555
N13_7 C12_11 1_555 1_555
N13_8 Zn4 1_555 1_555
C20_11 C11_11 1_555 1_555
O4_11 N6_11 1_555 1_555
N11 C19_11 1_555 1_555
N13_7 C20_11 1_555 1_555
C3_12 C2_12 1_555 1_555
H2_12 C3_12 1_555 1_555
C4_12 C3_12 1_555 1_555
H3_12 C4_12 1_555 1_555
C13_12 C2_12 1_555 1_555
C14_12 C13_12 1_555 1_555
H9_12 C14_12 1_555 1_555
C15_12 C4_12 1_555 1_555
H10_12 C15_12 1_555 1_555
C14_12 C15_12 1_555 1_555
Zn3_4 N1_12 1_555 1_555
C1_12 H1_12 1_555 1_555
N1_12 C1_12 1_555 1_555
N3_12 Zn3_4 1_555 1_555
C9_12 N3_12 1_555 1_555
H7_12 C9_12 1_555 1_555
C10_12 N3_12 1_555 1_555
N4_12 C10_12 1_555 1_555
O1_12 N4_12 1_555 1_555
N5_12 Zn3_4 1_555 1_555
C11_12 N5_12 1_555 1_555
C12_12 N5_12 1_555 1_555
N6_12 C12_12 1_555 1_555
O2_12 N6_12 1_555 1_555
Zn4_3 N7_12 1_555 1_555
N7_12 C1_12 1_555 1_555
N9_12 Zn4_3 1_555 1_555
N11_3 C10_12 1_555 1_555
C19_12 C9_12 1_555 1_555
H13_12 C19_12 1_555 1_555
O3_12 N4_12 1_555 1_555
N13_8 C12_12 1_555 1_555
C20_12 C11_12 1_555 1_555
O4_12 N6_12 1_555 1_555
N11_3 C19_12 1_555 1_555
N13_8 C20_12 1_555 1_555
C5_16 H4_16 1_555 1_555
N9_3 C5_16 1_555 1_555
C17_7 C16_7 1_555 1_555
H11_7 C17_7 1_555 1_555
H12_7 C18_7 1_555 1_555
N9_3 C16_7 1_555 1_555
C17_7 C18_7 1_555 1_555
C5_17 H4_17 1_555 1_555
C6_7 N9_8 1_555 1_555
C7_7 C6_7 1_555 1_555
H5_7 C7_7 1_555 1_555
C8_7 C7_7 1_555 1_555
H6_7 C8_7 1_555 1_555
C5_17 N9_8 1_555 1_555
C5_18 H4_18 1_555 1_555
C6_8 N9_7 1_555 1_555
C7_8 C6_8 1_555 1_555
H5_8 C7_8 1_555 1_555
C8_8 C7_8 1_555 1_555
H6_8 C8_8 1_555 1_555
N9 C5_18 1_555 1_555
C16_8 C6_8 1_555 1_555
C17_8 C16_8 1_555 1_555
H11_8 C17_8 1_555 1_555
C18_8 C8_8 1_555 1_555
H12_8 C18_8 1_555 1_555
C5_18 N9_7 1_555 1_555
N9 C16_8 1_555 1_555
C17_8 C18_8 1_555 1_555
C5_19 H4_19 1_555 1_555
C6_9 N9_9 1_555 1_555
C7_9 C6_9 1_555 1_555
H5_9 C7_9 1_555 1_555
C8_9 C7_9 1_555 1_555
H6_9 C8_9 1_555 1_555
C5_19 N9_9 1_555 1_555
C5_20 H4_20 1_555 1_555
N9_2 C5_20 1_555 1_555
C17_9 C16_9 1_555 1_555
H11_9 C17_9 1_555 1_555
H12_9 C18_9 1_555 1_555
N9_2 C16_9 1_555 1_555
C17_9 C18_9 1_555 1_555
C5_21 H4_21 1_555 1_555
C5_22 H4_22 1_555 1_555
C6_10 N9_11 1_555 1_555
C7_10 C6_10 1_555 1_555
H5_10 C7_10 1_555 1_555
C8_10 C7_10 1_555 1_555
H6_10 C8_10 1_555 1_555
C5_22 N9_11 1_555 1_555
C5_23 H4_23 1_555 1_555
N9_6 C5_23 1_555 1_555
C17_10 C16_10 1_555 1_555
H11_10 C17_10 1_555 1_555
H12_10 C18_10 1_555 1_555
N9_6 C16_10 1_555 1_555
C17_10 C18_10 1_555 1_555
C5_24 H4_24 1_555 1_555
C5_25 H4_25 1_555 1_555
N9_4 C5_25 1_555 1_555
C17_11 C16_11 1_555 1_555
H11_11 C17_11 1_555 1_555
H12_11 C18_11 1_555 1_555
N9_4 C16_11 1_555 1_555
C17_11 C18_11 1_555 1_555
C5_26 H4_26 1_555 1_555
C6_11 N9_10 1_555 1_555
C7_11 C6_11 1_555 1_555
H5_11 C7_11 1_555 1_555
C8_11 C7_11 1_555 1_555
H6_11 C8_11 1_555 1_555
C5_26 N9_10 1_555 1_555
C5_27 H4_27 1_555 1_555
N9_5 C5_27 1_555 1_555
C17_12 C16_12 1_555 1_555
H11_12 C17_12 1_555 1_555
H12_12 C18_12 1_555 1_555
N9_5 C16_12 1_555 1_555
C17_12 C18_12 1_555 1_555
C5_28 H4_28 1_555 1_555
C5_29 H4_29 1_555 1_555
C5_30 H4_30 1_555 1_555
C6_12 N9_12 1_555 1_555
C7_12 C6_12 1_555 1_555
H5_12 C7_12 1_555 1_555
C8_12 C7_12 1_555 1_555
H6_12 C8_12 1_555 1_555
C5_30 N9_12 1_555 1_555

#END
