
###############################################################################
#
# This file contains modified crystal structure data generated from the
# MOF subset of the Cambridge Structural Database (CSD) v543 
# hosted by the Cambridge Crystallographic Data Centre (CCDC).
#
# This work is licensed under the Creative Commons
# Attribution-NonCommercial-ShareAlike 4.0 International License.
# To view a copy of this license, visit
# http://creativecommons.org/licenses/by-nc-sa/4.0/
# or send a letter to
# Creative Commons, PO Box 1866, Mountain View, CA 94042, USA.
#
# CIF created using the CSD Python API on 29 September 2022
# The structure has been converted into the P1 space group
# The structure has a 3D framework
# The original CSD entry XEDPIH is in the monoclinic crystal system
# The framework has been calculated to contain at least 10.0% void space
# The void calculation uses a probe of radius 1.32A, grid spacing 0.4
#
###############################################################################

data_XEDPIH
_chemical_formula_moiety         '(C40 H24 Br8 N32 Zn8)n'
_symmetry_cell_setting           triclinic
_symmetry_space_group_name_H-M   'P 1'
_symmetry_Int_Tables_number      1
_space_group_name_Hall           'P 1'
loop_
_symmetry_equiv_pos_site_id
_symmetry_equiv_pos_as_xyz
1 x,y,z
_cell_length_a                   13.636(7)
_cell_length_b                   10.209(5)
_cell_length_c                   14.124(7)
_cell_angle_alpha                90
_cell_angle_beta                 91.568(9)
_cell_angle_gamma                90
_cell_volume                     1965.46
loop_
_atom_site_label
_atom_site_type_symbol
_atom_site_fract_x
_atom_site_fract_y
_atom_site_fract_z
Br3 Br 0.49529(5) 0.00700(7) 0.32341(6)
N10 N 0.2436(4) 0.0155(5) 0.6025(4)
N19 N 0.2397(3) 0.0349(4) 0.2657(3)
C11 C 0.2661(5) 0.0095(6) 0.5114(4)
H7 H 0.2632 0.0889 0.4764
Zn1 Zn 0.66254(5) 0.08513(6) 0.67327(4)
Zn2 Zn 0.69209(5) 0.50397(6) 0.34538(4)
Br2 Br 0.72864(6) 0.59107(7) 0.49590(5)
N1 N 0.7072(4) 0.1003(5) 0.5360(4)
N3 N 0.7639(4) 0.1210(4) 0.2579(3)
N4 N 0.7249(4) 0.3149(5) 0.3272(3)
N5 N 0.4579(4) 0.4894(5) 0.6771(4)
N6 N 0.5980(4) 0.6037(5) 0.7408(4)
N7 N 0.7397(3) 0.4651(4) 0.7657(3)
N8 N 0.6719(4) 0.2735(4) 0.7135(4)
C2 C 0.7499(4) 0.0988(5) 0.3524(4)
C3 C 0.7479(5) 0.2520(6) 0.2481(5)
H2 H 0.7528 0.2956 0.1890
C4 C 0.7247(4) 0.2178(5) 0.3957(4)
C5 C 0.7029(5) 0.2154(6) 0.4898(4)
H3 H 0.6851 0.2934 0.5218
C6 C 0.5054(5) 0.5982(6) 0.7091(5)
H4 H 0.4692 0.6777 0.7089
C7 C 0.6446(4) 0.4889(6) 0.7375(4)
C8 C 0.7512(5) 0.3356(6) 0.7496(4)
H5 H 0.8113 0.2915 0.7628
C9 C 0.6018(4) 0.3709(5) 0.7055(4)
C10 C 0.5058(4) 0.3747(6) 0.6736(4)
H6 H 0.4741 0.2982 0.6497
Zn3 Zn 0.33746(5) 0.91487(6) 0.32673(4)
Zn4 Zn 0.83746(5) 0.58513(6) 0.82673(4)
Zn5 Zn 0.16254(5) 0.41487(6) 0.17327(4)
Zn6 Zn 0.30791(5) 0.49603(6) 0.65462(4)
Zn7 Zn 0.80791(5) 0.00397(6) 0.15462(4)
Zn8 Zn 0.19209(5) 0.99603(6) 0.84538(4)
Br4 Br 0.27136(6) 0.40893(7) 0.50410(5)
N9 N 0.2928(4) 0.8997(5) 0.4640(4)
N11 N 0.2361(4) 0.8790(4) 0.7421(3)
N12 N 0.7361(4) 0.6210(4) 0.2421(3)
N13 N 0.2639(4) 0.3790(4) 0.7579(3)
N14 N 0.2751(4) 0.6851(5) 0.6728(3)
N15 N 0.5421(4) 0.5106(5) 0.3229(4)
N16 N 0.4020(4) 0.3963(5) 0.2592(4)
N17 N 0.2603(3) 0.5349(4) 0.2343(3)
N20 N 0.3281(4) 0.7265(4) 0.2865(4)
C12 C 0.2501(4) 0.9012(5) 0.6476(4)
C13 C 0.2521(5) 0.7480(6) 0.7519(5)
H8 H 0.2472 0.7044 0.8110
C14 C 0.2753(4) 0.7822(5) 0.6043(4)
C15 C 0.2971(5) 0.7846(6) 0.5102(4)
H9 H 0.3149 0.7066 0.4782
C16 C 0.4946(5) 0.4018(6) 0.2909(5)
H10 H 0.5308 0.3223 0.2911
C17 C 0.3554(4) 0.5111(6) 0.2625(4)
C18 C 0.2488(5) 0.6644(6) 0.2504(4)
H11 H 0.1887 0.7085 0.2372
C19 C 0.3982(4) 0.6291(5) 0.2945(4)
C20 C 0.4942(4) 0.6253(6) 0.3264(4)
H12 H 0.5259 0.7018 0.3503
Br1 Br 0.50471(5) 0.99300(7) 0.67659(6)
N2 N 0.7564(4) 0.9845(5) 0.3975(4)
C1 C 0.7339(5) 0.9905(6) 0.4886(4)
H1 H 0.7368 0.9111 0.5236
N18 N 0.7603(3) 0.9651(4) 0.7343(3)
Br3_2 Br 0.00471(5) 0.50700(7) 0.17659(6)
N9_2 N 0.2072(4) 0.3997(5) 0.0360(4)
N20_2 N 0.1719(4) 0.2265(4) 0.2135(4)
H7_2 H 0.2368 0.5889 0.0236
H9_2 H 0.1851 0.2066 0.0218
C17_2 C 0.1446(4) 0.0111(6) 0.2375(4)
C18_2 C 0.2512(5) 0.1644(6) 0.2496(4)
H11_2 H 0.3113 0.2085 0.2628
C19_2 C 0.1018(4) 0.1291(5) 0.2055(4)
C20_2 C 0.0058(4) 0.1253(6) 0.1736(4)
H4_2 H 0.0308 0.1777 0.7911
N10_2 N 0.2564(4) 0.5155(5) 0.8975(4)
N14_2 N 0.2249(4) 0.1851(5) 0.8272(3)
C11_2 C 0.2339(5) 0.5095(6) 0.9886(4)
C12_2 C 0.2499(4) 0.4012(5) 0.8524(4)
C13_2 C 0.2479(5) 0.2480(6) 0.7481(5)
H8_2 H 0.2528 0.2044 0.6890
C14_2 C 0.2247(4) 0.2822(5) 0.8957(4)
C15_2 C 0.2029(5) 0.2846(6) 0.9898(4)
N16_2 N 0.0980(4) 0.8963(5) 0.2408(4)
C16_2 C 0.0054(5) 0.9018(6) 0.2091(5)
N5_2 N 0.0421(4) 0.9894(5) 0.8229(4)
H6_2 H 0.0259 0.7982 0.8503
Br4_2 Br 0.22864(6) 0.90893(7) 0.99590(5)
Br2_2 Br 0.77136(6) 0.09107(7) 0.00410(5)
N15_2 N 0.9579(4) 0.0106(5) 0.1771(4)
H12_2 H 0.9741 0.2018 0.1497
N6_2 N 0.9020(4) 0.1037(5) 0.7592(4)
C6_2 C 0.9946(5) 0.0982(6) 0.7909(5)
N2_2 N 0.7436(4) 0.4845(5) 0.1025(4)
N4_2 N 0.7751(4) 0.8149(5) 0.1728(3)
C1_2 C 0.7661(5) 0.4905(6) 0.0114(4)
C2_2 C 0.7501(4) 0.5988(5) 0.1476(4)
C3_2 C 0.7521(5) 0.7520(6) 0.2519(5)
H2_2 H 0.7472 0.7956 0.3110
C4_2 C 0.7753(4) 0.7178(5) 0.1043(4)
C5_2 C 0.7971(5) 0.7154(6) 0.0102(4)
H10_2 H 0.9692 0.8223 0.2089
Br1_2 Br 0.99529(5) 0.49300(7) 0.82341(6)
N1_2 N 0.7928(4) 0.6003(5) 0.9640(4)
N8_2 N 0.8281(4) 0.7735(4) 0.7865(4)
H1_2 H 0.7632 0.4111 0.9764
H3_2 H 0.8149 0.7934 0.9782
C7_2 C 0.8554(4) 0.9889(6) 0.7625(4)
C8_2 C 0.7488(5) 0.8356(6) 0.7504(4)
H5_2 H 0.6887 0.7915 0.7372
C9_2 C 0.8982(4) 0.8709(5) 0.7945(4)
C10_2 C 0.9942(4) 0.8747(6) 0.8264(4)
loop_
_geom_bond_atom_site_label_1
_geom_bond_atom_site_label_2
_geom_bond_site_symmetry_1
_geom_bond_site_symmetry_2
N10 C11 1_555 1_555
H7 C11 1_555 1_555
Zn2 Br2 1_555 1_555
N1 Zn1 1_555 1_555
N3 C2 1_555 1_555
N4 Zn2 1_555 1_555
N5 C6 1_555 1_555
N6 C6 1_555 1_555
N7 C7 1_555 1_555
N8 Zn1 1_555 1_555
C3 N3 1_555 1_555
H2 C3 1_555 1_555
C4 N4 1_555 1_555
C5 N1 1_555 1_555
H3 C5 1_555 1_555
C6 H4 1_555 1_555
C7 N6 1_555 1_555
C8 N7 1_555 1_555
H5 C8 1_555 1_555
C9 N8 1_555 1_555
C10 N5 1_555 1_555
H6 C10 1_555 1_555
Zn4 N7 1_555 1_555
Zn5 N17 1_555 1_555
Zn6 N5 1_555 1_555
Zn7 N3 1_555 1_555
Zn8 N11 1_555 1_555
Br4 Zn6 1_555 1_555
N9 Zn3 1_555 1_555
N11 C12 1_555 1_555
N12 Zn2 1_555 1_555
N13 Zn6 1_555 1_555
N14 Zn6 1_555 1_555
N15 Zn2 1_555 1_555
N16 C16 1_555 1_555
N17 C17 1_555 1_555
N20 Zn3 1_555 1_555
C13 N11 1_555 1_555
H8 C13 1_555 1_555
C14 N14 1_555 1_555
C15 N9 1_555 1_555
H9 C15 1_555 1_555
C16 N15 1_555 1_555
H10 C16 1_555 1_555
C17 N16 1_555 1_555
C18 N17 1_555 1_555
H11 C18 1_555 1_555
C19 N20 1_555 1_555
C20 N15 1_555 1_555
H12 C20 1_555 1_555
N4 C3 1_555 1_555
N8 C8 1_555 1_555
C2 C4 1_555 1_555
C4 C5 1_555 1_555
C7 C9 1_555 1_555
C9 C10 1_555 1_555
N14 C13 1_555 1_555
N20 C18 1_555 1_555
C12 C14 1_555 1_555
C14 C15 1_555 1_555
C17 C19 1_555 1_555
C19 C20 1_555 1_555
N2 C1 1_555 1_555
H1 C1 1_555 1_555
Zn5 Br3_2 1_555 1_555
N9_2 Zn5 1_555 1_555
N19 C17_2 1_555 1_555
N20_2 Zn5 1_555 1_555
C18_2 N19 1_555 1_555
H11_2 C18_2 1_555 1_555
C19_2 N20_2 1_555 1_555
N20_2 C18_2 1_555 1_555
C17_2 C19_2 1_555 1_555
C19_2 C20_2 1_555 1_555
N10_2 C11_2 1_555 1_555
N13 C12_2 1_555 1_555
C12_2 N10_2 1_555 1_555
C13_2 N13 1_555 1_555
H8_2 C13_2 1_555 1_555
C14_2 N14_2 1_555 1_555
N14_2 C13_2 1_555 1_555
C12_2 C14_2 1_555 1_555
C14_2 C15_2 1_555 1_555
N16_2 C16_2 1_555 1_555
Zn8 N5_2 1_555 1_555
Br4_2 Zn8 1_555 1_555
Zn7 Br2_2 1_555 1_555
N15_2 Zn7 1_555 1_555
N6_2 C6_2 1_555 1_555
N2_2 C1_2 1_555 1_555
N12 C2_2 1_555 1_555
C2_2 N2_2 1_555 1_555
C3_2 N12 1_555 1_555
H2_2 C3_2 1_555 1_555
C4_2 N4_2 1_555 1_555
N4_2 C3_2 1_555 1_555
C2_2 C4_2 1_555 1_555
C4_2 C5_2 1_555 1_555
Zn4 Br1_2 1_555 1_555
N1_2 Zn4 1_555 1_555
N18 C7_2 1_555 1_555
N8_2 Zn4 1_555 1_555
C8_2 N18 1_555 1_555
H5_2 C8_2 1_555 1_555
C9_2 N8_2 1_555 1_555
N8_2 C8_2 1_555 1_555
C7_2 C9_2 1_555 1_555
C9_2 C10_2 1_555 1_555

#END
