
###############################################################################
#
# This file contains modified crystal structure data generated from the
# MOF subset of the Cambridge Structural Database (CSD) v543 
# hosted by the Cambridge Crystallographic Data Centre (CCDC).
#
# This work is licensed under the Creative Commons
# Attribution-NonCommercial-ShareAlike 4.0 International License.
# To view a copy of this license, visit
# http://creativecommons.org/licenses/by-nc-sa/4.0/
# or send a letter to
# Creative Commons, PO Box 1866, Mountain View, CA 94042, USA.
#
# CIF created using the CSD Python API on 29 September 2022
# The structure has been converted into the P1 space group
# The structure has a 3D framework
# The original CSD entry XEDWIO is in the orthorhombic crystal system
# The framework has been calculated to contain at least 10.0% void space
# The void calculation uses a probe of radius 1.32A, grid spacing 0.4
#
###############################################################################

data_XEDWIO
_chemical_formula_moiety         '(C88 H48 Cu16 N28)n'
_symmetry_cell_setting           triclinic
_symmetry_space_group_name_H-M   'P 1'
_symmetry_Int_Tables_number      1
_space_group_name_Hall           'P 1'
loop_
_symmetry_equiv_pos_site_id
_symmetry_equiv_pos_as_xyz
1 x,y,z
_cell_length_a                   7.413(4)
_cell_length_b                   8.577(4)
_cell_length_c                   37.051(16)
_cell_angle_alpha                90
_cell_angle_beta                 90
_cell_angle_gamma                90
_cell_volume                     2355.75
loop_
_atom_site_label
_atom_site_type_symbol
_atom_site_fract_x
_atom_site_fract_y
_atom_site_fract_z
Cu1 Cu 0.02487(15) 0.42626(14) 0.43616(2)
Cu2 Cu 0.1939(3) 0.5485(2) 0.31378(3)
C1 C 0.0270(12) 0.0894(12) 0.4532(2)
H1 H 0.0873 0.1254 0.4735
H5 H 0.0120 0.1946 0.3394
H6 H 0.0088 0.1925 0.2768
C10 C 0.1556(13) 0.5188(11) 0.36139(19)
C11 C 0.0054(12) 0.4846(11) 0.48511(19)
C12 C 0.2385(16) 0.5503(12) 0.2650(2)
N3 N 0.1097(11) 0.4887(10) 0.3896(2)
N5 N 0.2615(16) 0.5503(12) 0.2350(2)
Cu5 Cu 0.02487(15) 0.07374(14) 0.06384(2)
Cu13 Cu 0.3061(3) 0.5485(2) 0.18622(3)
C15 C 0.0270(12) 0.4106(12) 0.0468(2)
H9 H 0.0873 0.3746 0.0265
C18 C 0.0292(13) 0.5663(13) 0.0539(2)
H12 H 0.0892 0.6348 0.0386
H20 H 0.0120 0.3054 0.1606
H23 H 0.0088 0.3075 0.2232
C41 C 0.0054(12) 0.0154(11) 0.01489(19)
N12 N 0.1097(11) 0.0113(10) 0.1104(2)
C2 C 0.0292(13) 0.9337(13) 0.4461(2)
H2 H 0.0892 0.8652 0.4614
Cu12 Cu 0.1939(3) 0.9515(2) 0.18622(3)
Cu16 Cu 0.3061(3) 0.9515(2) 0.31378(3)
C38 C 0.1556(13) 0.9812(11) 0.13861(19)
C44 C 0.2385(16) 0.9497(12) 0.2350(2)
N18 N 0.2615(16) 0.9497(12) 0.2650(2)
C5 C 0.8487(10) 0.1379(9) 0.40416(17)
C6 C 0.7500 0.2500 0.3458(3)
C7 C 0.9058(11) 0.2167(11) 0.32701(18)
C8 C 0.9034(12) 0.2163(11) 0.28931(19)
C9 C 0.7500 0.2500 0.2702(2)
N1 N 0.9428(9) 0.1923(8) 0.43235(14)
N2 N 0.7500 0.2500 0.3844(2)
N4 N 0.9946(12) 0.5154(11) 0.51489(19)
Cu3 Cu 0.47513(15) 0.07374(14) 0.43616(2)
Cu4 Cu 0.47513(15) 0.42626(14) 0.06384(2)
Cu6 Cu 0.97513(15) 0.57374(14) 0.56384(2)
C13 C 0.4730(12) 0.4106(12) 0.4532(2)
C14 C 0.4730(12) 0.0894(12) 0.0468(2)
H7 H 0.4127 0.3746 0.4735
H8 H 0.4127 0.1254 0.0265
C16 C 0.4708(13) 0.5663(13) 0.4461(2)
H10 H 0.4108 0.6348 0.4614
C19 C 0.5588(13) 0.6206(11) 0.4160(3)
C21 C 0.9412(13) 0.6206(11) 0.0840(3)
H13 H 0.5546 0.7258 0.4101
H15 H 0.9454 0.7258 0.0899
C22 C 0.6533(12) 0.5174(10) 0.3947(2)
C24 C 0.8467(12) 0.5174(10) 0.1053(2)
H16 H 0.7166 0.5516 0.3746
H18 H 0.7834 0.5516 0.1254
C25 C 0.6513(10) 0.3621(9) 0.40416(17)
C26 C 0.6513(10) 0.1379(9) 0.09584(17)
C27 C 0.8487(10) 0.3621(9) 0.09584(17)
C28 C 0.7500 0.2500 0.1542(3)
C29 C 0.5942(11) 0.2833(11) 0.32701(18)
C30 C 0.5942(11) 0.2167(11) 0.17299(18)
C31 C 0.9058(11) 0.2833(11) 0.17299(18)
H19 H 0.4880 0.3054 0.3394
H21 H 0.4880 0.1946 0.1606
C32 C 0.5966(12) 0.2837(11) 0.28931(19)
C33 C 0.5966(12) 0.2163(11) 0.21069(19)
C34 C 0.9034(12) 0.2837(11) 0.21069(19)
H22 H 0.4912 0.3075 0.2768
H24 H 0.4912 0.1925 0.2232
C35 C 0.7500 0.2500 0.2298(2)
C37 C 0.3444(13) 0.5188(11) 0.13861(19)
C39 C 0.4946(12) 0.0154(11) 0.48511(19)
C40 C 0.4946(12) 0.4846(11) 0.01489(19)
C43 C 0.2615(16) 0.5503(12) 0.2350(2)
N6 N 0.5572(9) 0.3077(8) 0.43235(14)
N7 N 0.5572(9) 0.1923(8) 0.06765(14)
N8 N 0.9428(9) 0.3077(8) 0.06765(14)
N9 N 0.7500 0.2500 0.1156(2)
N10 N 0.3903(11) 0.0113(10) 0.3896(2)
N11 N 0.3903(11) 0.4887(10) 0.1104(2)
N17 N 0.2385(16) 0.5503(12) 0.2650(2)
Cu8 Cu 0.52487(15) 0.57374(14) 0.93616(2)
N14 N 0.5054(12) 0.5154(11) 0.98511(19)
C3 C 0.9412(13) 0.8794(11) 0.4160(3)
H3 H 0.9454 0.7742 0.4101
C4 C 0.8467(12) 0.9826(10) 0.3947(2)
H4 H 0.7834 0.9484 0.3746
Cu7 Cu 0.52487(15) 0.92626(14) 0.56384(2)
C17 C 0.4708(13) 0.9337(13) 0.0539(2)
H11 H 0.4108 0.8652 0.0386
C20 C 0.5588(13) 0.8794(11) 0.0840(3)
H14 H 0.5546 0.7742 0.0899
C23 C 0.6533(12) 0.9826(10) 0.1053(2)
H17 H 0.7166 0.9484 0.1254
C36 C 0.3444(13) 0.9812(11) 0.36139(19)
C42 C 0.2615(16) 0.9497(12) 0.2650(2)
N13 N 0.5054(12) 0.9846(11) 0.51489(19)
N16 N 0.2385(16) 0.9497(12) 0.2350(2)
Cu9 Cu 0.97513(15) 0.92626(14) 0.93616(2)
N15 N 0.9946(12) 0.9846(11) 0.98511(19)
N15_2 N 0.0054(12) 0.0154(11) 0.01489(19)
C3_2 C 0.0588(13) 0.1206(11) 0.5840(3)
H3_2 H 0.0546 0.2258 0.5899
C4_2 C 0.1533(12) 0.0174(10) 0.6053(2)
H4_2 H 0.2166 0.0516 0.6254
Cu10 Cu 0.6939(3) 0.0485(2) 0.68622(3)
Cu14 Cu 0.8061(3) 0.0485(2) 0.81378(3)
C17_2 C 0.5292(13) 0.0663(13) 0.9461(2)
H11_2 H 0.5892 0.1348 0.9614
C20_2 C 0.4412(13) 0.1206(11) 0.9160(3)
H14_2 H 0.4454 0.2258 0.9101
C23_2 C 0.3467(12) 0.0174(10) 0.8947(2)
H17_2 H 0.2834 0.0516 0.8746
C36_2 C 0.6556(13) 0.0188(11) 0.63861(19)
C42_2 C 0.7385(16) 0.0503(12) 0.7350(2)
N13_2 N 0.4946(12) 0.0154(11) 0.48511(19)
N16_2 N 0.7615(16) 0.0503(12) 0.7650(2)
N14_2 N 0.4946(12) 0.4846(11) 0.01489(19)
C5_2 C 0.1513(10) 0.8621(9) 0.59584(17)
C6_2 C 0.2500 0.7500 0.6542(3)
C7_2 C 0.0942(11) 0.7833(11) 0.67299(18)
C8_2 C 0.0966(12) 0.7837(11) 0.71069(19)
C9_2 C 0.2500 0.7500 0.7298(2)
N1_2 N 0.0572(9) 0.8077(8) 0.56765(14)
N2_2 N 0.2500 0.7500 0.6156(2)
N4_2 N 0.0054(12) 0.4846(11) 0.48511(19)
Cu11 Cu 0.6939(3) 0.4515(2) 0.81378(3)
Cu15 Cu 0.8061(3) 0.4515(2) 0.68622(3)
C13_2 C 0.5270(12) 0.5894(12) 0.5468(2)
C14_2 C 0.5270(12) 0.9106(12) 0.9532(2)
H7_2 H 0.5873 0.6254 0.5265
H8_2 H 0.5873 0.8746 0.9735
C16_2 C 0.5292(13) 0.4337(13) 0.5539(2)
H10_2 H 0.5892 0.3652 0.5386
C19_2 C 0.4412(13) 0.3794(11) 0.5840(3)
C21_2 C 0.0588(13) 0.3794(11) 0.9160(3)
H13_2 H 0.4454 0.2742 0.5899
H15_2 H 0.0546 0.2742 0.9101
C22_2 C 0.3467(12) 0.4826(10) 0.6053(2)
C24_2 C 0.1533(12) 0.4826(10) 0.8947(2)
H16_2 H 0.2834 0.4484 0.6254
H18_2 H 0.2166 0.4484 0.8746
C25_2 C 0.3487(10) 0.6379(9) 0.59584(17)
C26_2 C 0.3487(10) 0.8621(9) 0.90416(17)
C27_2 C 0.1513(10) 0.6379(9) 0.90416(17)
C28_2 C 0.2500 0.7500 0.8458(3)
C29_2 C 0.4058(11) 0.7167(11) 0.67299(18)
C30_2 C 0.4058(11) 0.7833(11) 0.82701(18)
C31_2 C 0.0942(11) 0.7167(11) 0.82701(18)
H19_2 H 0.5120 0.6946 0.6606
H21_2 H 0.5120 0.8054 0.8394
C32_2 C 0.4034(12) 0.7163(11) 0.71069(19)
C33_2 C 0.4034(12) 0.7837(11) 0.78931(19)
C34_2 C 0.0966(12) 0.7163(11) 0.78931(19)
H22_2 H 0.5088 0.6925 0.7232
H24_2 H 0.5088 0.8075 0.7768
C35_2 C 0.2500 0.7500 0.7702(2)
C37_2 C 0.6556(13) 0.4812(11) 0.86139(19)
C39_2 C 0.5054(12) 0.9846(11) 0.51489(19)
C40_2 C 0.5054(12) 0.5154(11) 0.98511(19)
C43_2 C 0.7385(16) 0.4497(12) 0.7650(2)
N6_2 N 0.4428(9) 0.6923(8) 0.56765(14)
N7_2 N 0.4428(9) 0.8077(8) 0.93235(14)
N8_2 N 0.0572(9) 0.6923(8) 0.93235(14)
N9_2 N 0.2500 0.7500 0.8844(2)
N10_2 N 0.6097(11) 0.9887(10) 0.6104(2)
N11_2 N 0.6097(11) 0.5113(10) 0.8896(2)
N17_2 N 0.7615(16) 0.4497(12) 0.7350(2)
C2_2 C 0.9708(13) 0.0663(13) 0.5539(2)
H2_2 H 0.9108 0.1348 0.5386
C38_2 C 0.8444(13) 0.0188(11) 0.86139(19)
C44_2 C 0.7615(16) 0.0503(12) 0.7650(2)
N18_2 N 0.7385(16) 0.0503(12) 0.7350(2)
C1_2 C 0.9730(12) 0.9106(12) 0.5468(2)
H1_2 H 0.9127 0.8746 0.5265
H5_2 H 0.9880 0.8054 0.6606
H6_2 H 0.9912 0.8075 0.7232
C10_2 C 0.8444(13) 0.4812(11) 0.63861(19)
C11_2 C 0.9946(12) 0.5154(11) 0.51489(19)
C12_2 C 0.7615(16) 0.4497(12) 0.7350(2)
N3_2 N 0.8903(11) 0.5113(10) 0.6104(2)
N5_2 N 0.7385(16) 0.4497(12) 0.7650(2)
C15_2 C 0.9730(12) 0.5894(12) 0.9532(2)
H9_2 H 0.9127 0.6254 0.9735
C18_2 C 0.9708(13) 0.4337(13) 0.9461(2)
H12_2 H 0.9108 0.3652 0.9614
H20_2 H 0.9880 0.6946 0.8394
H23_2 H 0.9912 0.6925 0.7768
C41_2 C 0.9946(12) 0.9846(11) 0.98511(19)
N12_2 N 0.8903(11) 0.9887(10) 0.8896(2)
loop_
_geom_bond_atom_site_label_1
_geom_bond_atom_site_label_2
_geom_bond_site_symmetry_1
_geom_bond_site_symmetry_2
Cu1 C11 1_555 1_555
Cu2 C10 1_555 1_555
C1 H1 1_555 1_555
C10 N3 1_555 1_555
C12 Cu2 1_555 1_555
N3 Cu1 1_555 1_555
N5 C12 1_555 1_555
Cu5 C41 1_555 1_555
Cu13 N5 1_555 1_555
C15 H9 1_555 1_555
C18 C15 1_555 1_555
H12 C18 1_555 1_555
N12 Cu5 1_555 1_555
H2 C2 1_555 1_555
Cu12 C38 1_555 1_555
Cu16 N18 1_555 1_555
C44 Cu12 1_555 1_555
N18 C44 1_555 1_555
C6 C7 1_555 1_555
C8 C7 1_555 1_555
C9 C8 1_555 1_555
N2 C5 1_555 1_555
N4 Cu6 1_555 1_555
Cu3 C39 1_555 1_555
Cu4 C40 1_555 1_555
Cu13 C37 1_555 1_555
Cu2 N17 1_555 1_555
C13 H7 1_555 1_555
C14 H8 1_555 1_555
C16 C13 1_555 1_555
H10 C16 1_555 1_555
C19 C16 1_555 1_555
H13 C19 1_555 1_555
H15 C21 1_555 1_555
C22 C19 1_555 1_555
C24 C21 1_555 1_555
H16 C22 1_555 1_555
H18 C24 1_555 1_555
C25 N2 1_555 1_555
C27 C24 1_555 1_555
C28 C30 1_555 1_555
C29 C6 1_555 1_555
C30 H21 1_555 1_555
C31 C28 1_555 1_555
H19 C29 1_555 1_555
C32 C9 1_555 1_555
C33 C30 1_555 1_555
C34 C31 1_555 1_555
H22 C32 1_555 1_555
H24 C33 1_555 1_555
C35 C9 1_555 1_555
C37 N11 1_555 1_555
C43 Cu13 1_555 1_555
N6 Cu3 1_555 1_555
N7 Cu4 1_555 1_555
N9 C26 1_555 1_555
N10 Cu3 1_555 1_555
N11 Cu4 1_555 1_555
N17 C43 1_555 1_555
C5 N1 1_555 1_555
C6 N2 1_555 1_555
C13 N6 1_555 1_555
C14 N7 1_555 1_555
C22 C25 1_555 1_555
C25 N6 1_555 1_555
C26 N7 1_555 1_555
C27 N8 1_555 1_555
C27 N9 1_555 1_555
C28 N9 1_555 1_555
C29 C32 1_555 1_555
C33 C35 1_555 1_555
C34 C35 1_555 1_555
Cu8 N14 1_555 1_555
H3 C3 1_555 1_555
C4 C3 1_555 1_555
H4 C4 1_555 1_555
Cu7 N13 1_555 1_555
Cu16 C36 1_555 1_555
Cu12 N16 1_555 1_555
H11 C17 1_555 1_555
C20 C17 1_555 1_555
H14 C20 1_555 1_555
C23 C20 1_555 1_555
H17 C23 1_555 1_555
C42 Cu16 1_555 1_555
N16 C42 1_555 1_555
Cu9 N15 1_555 1_555
Cu5 N15_2 1_555 1_555
H3_2 C3_2 1_555 1_555
C4_2 C3_2 1_555 1_555
H4_2 C4_2 1_555 1_555
Cu3 N13_2 1_555 1_555
Cu10 C36_2 1_555 1_555
Cu14 N16_2 1_555 1_555
H11_2 C17_2 1_555 1_555
C20_2 C17_2 1_555 1_555
H14_2 C20_2 1_555 1_555
C23_2 C20_2 1_555 1_555
H17_2 C23_2 1_555 1_555
C42_2 Cu10 1_555 1_555
N16_2 C42_2 1_555 1_555
Cu4 N14_2 1_555 1_555
C6_2 C7_2 1_555 1_555
C8_2 C7_2 1_555 1_555
C9_2 C8_2 1_555 1_555
N2_2 C5_2 1_555 1_555
N4_2 Cu1 1_555 1_555
Cu7 C39_2 1_555 1_555
Cu8 C40_2 1_555 1_555
Cu11 C37_2 1_555 1_555
Cu15 N17_2 1_555 1_555
C13_2 H7_2 1_555 1_555
C14_2 H8_2 1_555 1_555
C16_2 C13_2 1_555 1_555
H10_2 C16_2 1_555 1_555
C19_2 C16_2 1_555 1_555
H13_2 C19_2 1_555 1_555
H15_2 C21_2 1_555 1_555
C22_2 C19_2 1_555 1_555
C24_2 C21_2 1_555 1_555
H16_2 C22_2 1_555 1_555
H18_2 C24_2 1_555 1_555
C25_2 N2_2 1_555 1_555
C27_2 C24_2 1_555 1_555
C28_2 C30_2 1_555 1_555
C29_2 C6_2 1_555 1_555
C30_2 H21_2 1_555 1_555
C31_2 C28_2 1_555 1_555
H19_2 C29_2 1_555 1_555
C32_2 C9_2 1_555 1_555
C33_2 C30_2 1_555 1_555
C34_2 C31_2 1_555 1_555
H22_2 C32_2 1_555 1_555
H24_2 C33_2 1_555 1_555
C35_2 C9_2 1_555 1_555
C37_2 N11_2 1_555 1_555
C43_2 Cu11 1_555 1_555
N6_2 Cu7 1_555 1_555
N7_2 Cu8 1_555 1_555
N9_2 C26_2 1_555 1_555
N10_2 Cu7 1_555 1_555
N11_2 Cu8 1_555 1_555
N17_2 C43_2 1_555 1_555
C5_2 N1_2 1_555 1_555
C6_2 N2_2 1_555 1_555
C13_2 N6_2 1_555 1_555
C14_2 N7_2 1_555 1_555
C22_2 C25_2 1_555 1_555
C25_2 N6_2 1_555 1_555
C26_2 N7_2 1_555 1_555
C27_2 N8_2 1_555 1_555
C27_2 N9_2 1_555 1_555
C28_2 N9_2 1_555 1_555
C29_2 C32_2 1_555 1_555
C33_2 C35_2 1_555 1_555
C34_2 C35_2 1_555 1_555
H2_2 C2_2 1_555 1_555
Cu14 C38_2 1_555 1_555
Cu10 N18_2 1_555 1_555
C44_2 Cu14 1_555 1_555
N18_2 C44_2 1_555 1_555
Cu6 C11_2 1_555 1_555
Cu15 C10_2 1_555 1_555
C1_2 H1_2 1_555 1_555
C10_2 N3_2 1_555 1_555
C12_2 Cu15 1_555 1_555
N3_2 Cu6 1_555 1_555
N5_2 C12_2 1_555 1_555
Cu9 C41_2 1_555 1_555
Cu11 N5_2 1_555 1_555
C15_2 H9_2 1_555 1_555
C18_2 C15_2 1_555 1_555
H12_2 C18_2 1_555 1_555
N12_2 Cu9 1_555 1_555

#END
