
###############################################################################
#
# This file contains modified crystal structure data generated from the
# MOF subset of the Cambridge Structural Database (CSD) v543 
# hosted by the Cambridge Crystallographic Data Centre (CCDC).
#
# This work is licensed under the Creative Commons
# Attribution-NonCommercial-ShareAlike 4.0 International License.
# To view a copy of this license, visit
# http://creativecommons.org/licenses/by-nc-sa/4.0/
# or send a letter to
# Creative Commons, PO Box 1866, Mountain View, CA 94042, USA.
#
# CIF created using the CSD Python API on 29 September 2022
# The structure has been converted into the P1 space group
# The structure has a 3D framework
# The original CSD entry XEDYIS is in the orthorhombic crystal system
# The framework has been calculated to contain at least 10.0% void space
# The void calculation uses a probe of radius 1.32A, grid spacing 0.4
# H atom positions have been added when not included in the experimental data
# Generated hydrogen atom positions removed from atoms on special positions
#
###############################################################################

data_XEDYIS
_chemical_formula_moiety         '(C232 H252 N8 O66 Zr16)n'
_symmetry_cell_setting           triclinic
_symmetry_space_group_name_H-M   'P 1'
_symmetry_Int_Tables_number      1
_space_group_name_Hall           'P 1'
loop_
_symmetry_equiv_pos_site_id
_symmetry_equiv_pos_as_xyz
1 x,y,z
_cell_length_a                   26.294(5)
_cell_length_b                   42.394(9)
_cell_length_c                   20.284(4)
_cell_angle_alpha                90
_cell_angle_beta                 90
_cell_angle_gamma                90
_cell_volume                     22610.7
loop_
_atom_site_label
_atom_site_type_symbol
_atom_site_fract_x
_atom_site_fract_y
_atom_site_fract_z
Zr7 Zr 0.000000 0.94199(2) 0.500000
Zr11 Zr 0.93280(2) 0.000000 0.41289(2)
Zr12 Zr 0.93280(2) 0.000000 0.58711(2)
O9 O 0.55085(9) 0.58415(4) 0.43439(10)
O10 O 0.59394(10) 0.54740(5) 0.37739(12)
C30 C 0.58176(15) 0.57563(7) 0.39060(16)
C31 C 0.60816(16) 0.60081(8) 0.35275(18)
N2 N 0.750000 0.750000 0.1380(2)
C32 C 0.750000 0.750000 0.0686(3)
C33 C 0.6545(2) 0.64950(10) 0.28179(19)
C34 C 0.7936(2) 0.75815(12) 0.0345(2)
H19 H 0.823514 0.763745 0.057959
C35 C 0.7262(2) 0.72495(11) 0.17356(18)
C36 C 0.6798(2) 0.67554(10) 0.24403(19)
C37 C 0.5961(2) 0.63186(10) 0.3632(2)
H20 H 0.571599 0.637194 0.395737
C38 C 0.6439(2) 0.59533(10) 0.3076(2)
H21 H 0.654598 0.574246 0.299753
C39 C 0.7308(3) 0.69501(13) 0.1547(2)
H22 H 0.750305 0.690296 0.116531
C40 C 0.6658(2) 0.61941(12) 0.2720(3)
H23 H 0.689991 0.614223 0.238990
C41 C 0.6755(3) 0.70602(12) 0.2638(3)
H24 H 0.656405 0.711045 0.302119
C42 C 0.6191(2) 0.65553(10) 0.3271(3)
H25 H 0.609424 0.676791 0.334864
C43 C 0.6993(3) 0.73005(13) 0.2278(3)
H26 H 0.695854 0.751132 0.243031
C44 C 0.7079(2) 0.67015(12) 0.1895(2)
H27 H 0.712143 0.649126 0.174292
O11 O 0.94915(9) 0.91585(4) 0.43439(10)
O12 O 0.90606(10) 0.95260(5) 0.37739(12)
C45 C 0.91824(15) 0.92437(7) 0.39060(16)
C46 C 0.89184(16) 0.89919(8) 0.35275(18)
C47 C 0.8455(2) 0.85050(10) 0.28179(19)
C48 C 0.7064(2) 0.74185(12) 0.0345(2)
H28 H 0.676486 0.736255 0.057959
C49 C 0.7738(2) 0.77505(11) 0.17356(18)
C50 C 0.8202(2) 0.82446(10) 0.24403(19)
C51 C 0.9039(2) 0.86814(10) 0.3632(2)
H29 H 0.928401 0.862806 0.395737
C52 C 0.8561(2) 0.90467(10) 0.3076(2)
H30 H 0.845402 0.925754 0.299753
C53 C 0.7692(3) 0.80499(13) 0.1547(2)
H31 H 0.749695 0.809704 0.116531
C54 C 0.8342(2) 0.88059(12) 0.2720(3)
H32 H 0.810009 0.885777 0.238990
C55 C 0.8245(3) 0.79398(12) 0.2638(3)
H33 H 0.843595 0.788955 0.302119
C56 C 0.8809(2) 0.84447(10) 0.3271(3)
H34 H 0.890576 0.823209 0.334864
C57 C 0.8007(3) 0.76995(13) 0.2278(3)
H35 H 0.804146 0.748868 0.243031
C58 C 0.7921(2) 0.82985(12) 0.1895(2)
H36 H 0.787857 0.850874 0.174292
Zr4 Zr 0.500000 0.55801(2) 0.500000
Zr7_2 Zr 1.000000 0.94199(2) 0.500000
Zr8 Zr 0.56720(2) 0.500000 0.41289(2)
Zr11_2 Zr 0.93280(2) 1.000000 0.41289(2)
Zr2 Zr 0.43280(2) 0.500000 0.41289(2)
O1 O 0.55085(9) 0.58415(4) 0.56561(10)
O2 O 0.59394(10) 0.54740(5) 0.62261(12)
O3 O 0.43740(15) 0.500000 0.30358(16)
O4 O 0.43190(15) 0.52792(8) 0.500000
O5 O 0.34897(14) 0.500000 0.41796(18)
O6 O 0.500000 0.52823(9) 0.4120(2)
C1 C 0.58176(15) 0.57563(7) 0.60940(16)
C2 C 0.60816(16) 0.60081(8) 0.64725(18)
N1 N 0.750000 0.750000 0.8620(2)
C3 C 0.750000 0.750000 0.9314(3)
C4 C 0.6545(2) 0.64950(10) 0.71821(19)
C5 C 0.7936(2) 0.75815(12) 0.9655(2)
H1 H 0.823514 0.763745 0.942041
C6 C 0.7262(2) 0.72495(11) 0.82644(18)
C7 C 0.6798(2) 0.67554(10) 0.75597(19)
C8 C 0.5961(2) 0.63186(10) 0.6368(2)
H2 H 0.571599 0.637194 0.604263
C9 C 0.6439(2) 0.59533(10) 0.6924(2)
H3 H 0.654598 0.574246 0.700247
C10 C 0.7308(3) 0.69501(13) 0.8453(2)
H4 H 0.750305 0.690296 0.883469
C11 C 0.6658(2) 0.61941(12) 0.7280(3)
H5 H 0.689991 0.614223 0.761010
C12 C 0.6755(3) 0.70602(12) 0.7362(3)
H6 H 0.656405 0.711045 0.697881
C13 C 0.6191(2) 0.65553(10) 0.6729(3)
H7 H 0.609424 0.676791 0.665136
C14 C 0.6993(3) 0.73005(13) 0.7722(3)
H8 H 0.695854 0.751132 0.756969
C15 C 0.7079(2) 0.67015(12) 0.8105(2)
H9 H 0.712143 0.649126 0.825708
O7 O 0.94915(9) 0.91585(4) 0.56561(10)
O8 O 0.90606(10) 0.95260(5) 0.62261(12)
C16 C 0.91824(15) 0.92437(7) 0.60940(16)
C17 C 0.89184(16) 0.89919(8) 0.64725(18)
C18 C 0.8455(2) 0.85050(10) 0.71821(19)
C19 C 0.7064(2) 0.74185(12) 0.9655(2)
H10 H 0.676486 0.736255 0.942041
C20 C 0.7738(2) 0.77505(11) 0.82644(18)
C21 C 0.8202(2) 0.82446(10) 0.75597(19)
C22 C 0.9039(2) 0.86814(10) 0.6368(2)
H11 H 0.928401 0.862806 0.604263
C23 C 0.8561(2) 0.90467(10) 0.6924(2)
H12 H 0.845402 0.925754 0.700247
C24 C 0.7692(3) 0.80499(13) 0.8453(2)
H13 H 0.749695 0.809704 0.883469
C25 C 0.8342(2) 0.88059(12) 0.7280(3)
H14 H 0.810009 0.885777 0.761010
C26 C 0.8245(3) 0.79398(12) 0.7362(3)
H15 H 0.843595 0.788955 0.697881
C27 C 0.8809(2) 0.84447(10) 0.6729(3)
H16 H 0.890576 0.823209 0.665136
C28 C 0.8007(3) 0.76995(13) 0.7722(3)
H17 H 0.804146 0.748868 0.756969
C29 C 0.7921(2) 0.82985(12) 0.8105(2)
H18 H 0.787857 0.850874 0.825708
O13 O 0.56260(15) 0.500000 0.30358(16)
O14 O 0.56810(15) 0.47208(8) 0.500000
O15 O 0.65103(14) 0.500000 0.41796(18)
O16 O 0.500000 0.47177(9) 0.4120(2)
Zr5 Zr 0.500000 0.44199(2) 0.500000
Zr9 Zr 0.56720(2) 0.500000 0.58711(2)
Zr10 Zr 0.43280(2) 0.500000 0.58711(2)
Zr12_2 Zr 0.93280(2) 1.000000 0.58711(2)
O17 O 0.44915(9) 0.58415(4) 0.43439(10)
O19 O 0.44915(9) 0.58415(4) 0.56561(10)
O20 O 0.40606(10) 0.54740(5) 0.37739(12)
O21 O 0.59394(10) 0.45260(5) 0.37739(12)
O22 O 0.40606(10) 0.45260(5) 0.37739(12)
O24 O 0.56810(15) 0.52792(8) 0.500000
O25 O 0.43190(15) 0.47208(8) 0.500000
O26 O 0.500000 0.52823(9) 0.5880(2)
O9_2 O 0.44915(9) 0.41585(4) 0.43439(10)
C30_2 C 0.41824(15) 0.42437(7) 0.39060(16)
C31_2 C 0.39184(16) 0.39919(8) 0.35275(18)
N2_2 N 0.250000 0.250000 0.1380(2)
C32_2 C 0.250000 0.250000 0.0686(3)
C33_2 C 0.3455(2) 0.35050(10) 0.28179(19)
C34_2 C 0.2064(2) 0.24185(12) 0.0345(2)
H19_2 H 0.176486 0.236255 0.057959
C35_2 C 0.2738(2) 0.27505(11) 0.17356(18)
C36_2 C 0.3202(2) 0.32446(10) 0.24403(19)
C37_2 C 0.4039(2) 0.36814(10) 0.3632(2)
H20_2 H 0.428401 0.362806 0.395737
C38_2 C 0.3561(2) 0.40467(10) 0.3076(2)
H21_2 H 0.345402 0.425754 0.299753
C39_2 C 0.2692(3) 0.30499(13) 0.1547(2)
H22_2 H 0.249695 0.309704 0.116531
C40_2 C 0.3342(2) 0.38059(12) 0.2720(3)
H23_2 H 0.310009 0.385777 0.238990
C41_2 C 0.3245(3) 0.29398(12) 0.2638(3)
H24_2 H 0.343595 0.288955 0.302119
C42_2 C 0.3809(2) 0.34447(10) 0.3271(3)
H25_2 H 0.390576 0.323209 0.334864
C43_2 C 0.3007(3) 0.26995(13) 0.2278(3)
H26_2 H 0.304146 0.248868 0.243031
C44_2 C 0.2921(2) 0.32985(12) 0.1895(2)
H27_2 H 0.287857 0.350874 0.174292
O11_2 O 0.05085(9) 0.08415(4) 0.43439(10)
O12_2 O 0.09394(10) 0.04740(5) 0.37739(12)
C45_2 C 0.08176(15) 0.07563(7) 0.39060(16)
C46_2 C 0.10816(16) 0.10081(8) 0.35275(18)
C47_2 C 0.1545(2) 0.14950(10) 0.28179(19)
C48_2 C 0.2936(2) 0.25815(12) 0.0345(2)
H28_2 H 0.323514 0.263745 0.057959
C49_2 C 0.2262(2) 0.22495(11) 0.17356(18)
C50_2 C 0.1798(2) 0.17554(10) 0.24403(19)
C51_2 C 0.0961(2) 0.13186(10) 0.3632(2)
H29_2 H 0.071599 0.137194 0.395737
C52_2 C 0.1439(2) 0.09533(10) 0.3076(2)
H30_2 H 0.154598 0.074246 0.299753
C53_2 C 0.2308(3) 0.19501(13) 0.1547(2)
H31_2 H 0.250305 0.190296 0.116531
C54_2 C 0.1658(2) 0.11941(12) 0.2720(3)
H32_2 H 0.189991 0.114223 0.238990
C55_2 C 0.1755(3) 0.20602(12) 0.2638(3)
H33_2 H 0.156405 0.211045 0.302119
C56_2 C 0.1191(2) 0.15553(10) 0.3271(3)
H34_2 H 0.109424 0.176791 0.334864
C57_2 C 0.1993(3) 0.23005(13) 0.2278(3)
H35_2 H 0.195854 0.251132 0.243031
C58_2 C 0.2079(2) 0.17015(12) 0.1895(2)
H36_2 H 0.212143 0.149126 0.174292
Zr7_3 Zr -0.000000 0.05801(2) 0.500000
Zr11_3 Zr 0.06720(2) -0.000000 0.41289(2)
O1_2 O 0.44915(9) 0.41585(4) 0.56561(10)
O2_2 O 0.40606(10) 0.45260(5) 0.62261(12)
C1_2 C 0.41824(15) 0.42437(7) 0.60940(16)
C2_2 C 0.39184(16) 0.39919(8) 0.64725(18)
N1_2 N 0.250000 0.250000 0.8620(2)
C3_2 C 0.250000 0.250000 0.9314(3)
C4_2 C 0.3455(2) 0.35050(10) 0.71821(19)
C5_2 C 0.2064(2) 0.24185(12) 0.9655(2)
H1_2 H 0.176486 0.236255 0.942041
C6_2 C 0.2738(2) 0.27505(11) 0.82644(18)
C7_2 C 0.3202(2) 0.32446(10) 0.75597(19)
C8_2 C 0.4039(2) 0.36814(10) 0.6368(2)
H2_2 H 0.428401 0.362806 0.604263
C9_2 C 0.3561(2) 0.40467(10) 0.6924(2)
H3_2 H 0.345402 0.425754 0.700247
C10_2 C 0.2692(3) 0.30499(13) 0.8453(2)
H4_2 H 0.249695 0.309704 0.883469
C11_2 C 0.3342(2) 0.38059(12) 0.7280(3)
H5_2 H 0.310009 0.385777 0.761010
C12_2 C 0.3245(3) 0.29398(12) 0.7362(3)
H6_2 H 0.343595 0.288955 0.697881
C13_2 C 0.3809(2) 0.34447(10) 0.6729(3)
H7_2 H 0.390576 0.323209 0.665136
C14_2 C 0.3007(3) 0.26995(13) 0.7722(3)
H8_2 H 0.304146 0.248868 0.756969
C15_2 C 0.2921(2) 0.32985(12) 0.8105(2)
H9_2 H 0.287857 0.350874 0.825708
O7_2 O 0.05085(9) 0.08415(4) 0.56561(10)
O8_2 O 0.09394(10) 0.04740(5) 0.62261(12)
C16_2 C 0.08176(15) 0.07563(7) 0.60940(16)
C17_2 C 0.10816(16) 0.10081(8) 0.64725(18)
C18_2 C 0.1545(2) 0.14950(10) 0.71821(19)
C19_2 C 0.2936(2) 0.25815(12) 0.9655(2)
H10_2 H 0.323514 0.263745 0.942041
C20_2 C 0.2262(2) 0.22495(11) 0.82644(18)
C21_2 C 0.1798(2) 0.17554(10) 0.75597(19)
C22_2 C 0.0961(2) 0.13186(10) 0.6368(2)
H11_2 H 0.071599 0.137194 0.604263
C23_2 C 0.1439(2) 0.09533(10) 0.6924(2)
H12_2 H 0.154598 0.074246 0.700247
C24_2 C 0.2308(3) 0.19501(13) 0.8453(2)
H13_2 H 0.250305 0.190296 0.883469
C25_2 C 0.1658(2) 0.11941(12) 0.7280(3)
H14_2 H 0.189991 0.114223 0.761010
C26_2 C 0.1755(3) 0.20602(12) 0.7362(3)
H15_2 H 0.156405 0.211045 0.697881
C27_2 C 0.1191(2) 0.15553(10) 0.6729(3)
H16_2 H 0.109424 0.176791 0.665136
C28_2 C 0.1993(3) 0.23005(13) 0.7722(3)
H17_2 H 0.195854 0.251132 0.756969
C29_2 C 0.2079(2) 0.17015(12) 0.8105(2)
H18_2 H 0.212143 0.149126 0.825708
Zr12_3 Zr 0.06720(2) -0.000000 0.58711(2)
O17_2 O 0.55085(9) 0.41585(4) 0.43439(10)
O19_2 O 0.55085(9) 0.41585(4) 0.56561(10)
O26_2 O 0.500000 0.47177(9) 0.5880(2)
Zr11_4 Zr 0.06720(2) 1.000000 0.41289(2)
Zr12_4 Zr 0.06720(2) 1.000000 0.58711(2)
Zr7_4 Zr 1.000000 0.05801(2) 0.500000
O3_2 O 0.56260(15) 0.500000 0.69642(16)
O5_2 O 0.65103(14) 0.500000 0.58204(18)
C1_3 C 0.41824(15) 0.57563(7) 0.39060(16)
C2_3 C 0.39184(16) 0.60081(8) 0.35275(18)
N1_3 N 0.250000 0.750000 0.1380(2)
C3_3 C 0.250000 0.750000 0.0686(3)
C4_3 C 0.3455(2) 0.64950(10) 0.28179(19)
C5_3 C 0.2064(2) 0.75815(12) 0.0345(2)
H1_3 H 0.176486 0.763745 0.057959
C6_3 C 0.2738(2) 0.72495(11) 0.17356(18)
C7_3 C 0.3202(2) 0.67554(10) 0.24403(19)
C8_3 C 0.4039(2) 0.63186(10) 0.3632(2)
H2_3 H 0.428401 0.637194 0.395737
C9_3 C 0.3561(2) 0.59533(10) 0.3076(2)
H3_3 H 0.345402 0.574246 0.299753
C10_3 C 0.2692(3) 0.69501(13) 0.1547(2)
H4_3 H 0.249695 0.690296 0.116531
C11_3 C 0.3342(2) 0.61941(12) 0.2720(3)
H5_3 H 0.310009 0.614223 0.238990
C12_3 C 0.3245(3) 0.70602(12) 0.2638(3)
H6_3 H 0.343595 0.711045 0.302119
C13_3 C 0.3809(2) 0.65553(10) 0.3271(3)
H7_3 H 0.390576 0.676791 0.334864
C14_3 C 0.3007(3) 0.73005(13) 0.2278(3)
H8_3 H 0.304146 0.751132 0.243031
C15_3 C 0.2921(2) 0.67015(12) 0.1895(2)
H9_3 H 0.287857 0.649126 0.174292
O7_3 O 0.05085(9) 0.91585(4) 0.43439(10)
O8_3 O 0.09394(10) 0.95260(5) 0.37739(12)
C16_3 C 0.08176(15) 0.92437(7) 0.39060(16)
C17_3 C 0.10816(16) 0.89919(8) 0.35275(18)
C18_3 C 0.1545(2) 0.85050(10) 0.28179(19)
C19_3 C 0.2936(2) 0.74185(12) 0.0345(2)
H10_3 H 0.323514 0.736255 0.057959
C20_3 C 0.2262(2) 0.77505(11) 0.17356(18)
C21_3 C 0.1798(2) 0.82446(10) 0.24403(19)
C22_3 C 0.0961(2) 0.86814(10) 0.3632(2)
H11_3 H 0.071599 0.862806 0.395737
C23_3 C 0.1439(2) 0.90467(10) 0.3076(2)
H12_3 H 0.154598 0.925754 0.299753
C24_3 C 0.2308(3) 0.80499(13) 0.1547(2)
H13_3 H 0.250305 0.809704 0.116531
C25_3 C 0.1658(2) 0.88059(12) 0.2720(3)
H14_3 H 0.189991 0.885777 0.238990
C26_3 C 0.1755(3) 0.79398(12) 0.2638(3)
H15_3 H 0.156405 0.788955 0.302119
C27_3 C 0.1191(2) 0.84447(10) 0.3271(3)
H16_3 H 0.109424 0.823209 0.334864
C28_3 C 0.1993(3) 0.76995(13) 0.2278(3)
H17_3 H 0.195854 0.748868 0.243031
C29_3 C 0.2079(2) 0.82985(12) 0.1895(2)
H18_3 H 0.212143 0.850874 0.174292
O13_2 O 0.43740(15) 0.500000 0.69642(16)
O15_2 O 0.34897(14) 0.500000 0.58204(18)
O22_2 O 0.59394(10) 0.45260(5) 0.62261(12)
O23 O 0.40606(10) 0.54740(5) 0.62261(12)
C30_3 C 0.41824(15) 0.57563(7) 0.60940(16)
C31_3 C 0.39184(16) 0.60081(8) 0.64725(18)
N2_3 N 0.250000 0.750000 0.8620(2)
C32_3 C 0.250000 0.750000 0.9314(3)
C33_3 C 0.3455(2) 0.64950(10) 0.71821(19)
C34_3 C 0.2064(2) 0.75815(12) 0.9655(2)
H19_3 H 0.176486 0.763745 0.942041
C35_3 C 0.2738(2) 0.72495(11) 0.82644(18)
C36_3 C 0.3202(2) 0.67554(10) 0.75597(19)
C37_3 C 0.4039(2) 0.63186(10) 0.6368(2)
H20_3 H 0.428401 0.637194 0.604263
C38_3 C 0.3561(2) 0.59533(10) 0.6924(2)
H21_3 H 0.345402 0.574246 0.700247
C39_3 C 0.2692(3) 0.69501(13) 0.8453(2)
H22_3 H 0.249695 0.690296 0.883469
C40_3 C 0.3342(2) 0.61941(12) 0.7280(3)
H23_3 H 0.310009 0.614223 0.761010
C41_3 C 0.3245(3) 0.70602(12) 0.7362(3)
H24_3 H 0.343595 0.711045 0.697881
C42_3 C 0.3809(2) 0.65553(10) 0.6729(3)
H25_3 H 0.390576 0.676791 0.665136
C43_3 C 0.3007(3) 0.73005(13) 0.7722(3)
H26_3 H 0.304146 0.751132 0.756969
C44_3 C 0.2921(2) 0.67015(12) 0.8105(2)
H27_3 H 0.287857 0.649126 0.825708
O11_3 O 0.05085(9) 0.91585(4) 0.56561(10)
O12_3 O 0.09394(10) 0.95260(5) 0.62261(12)
C45_3 C 0.08176(15) 0.92437(7) 0.60940(16)
C46_3 C 0.10816(16) 0.89919(8) 0.64725(18)
C47_3 C 0.1545(2) 0.85050(10) 0.71821(19)
C48_3 C 0.2936(2) 0.74185(12) 0.9655(2)
H28_3 H 0.323514 0.736255 0.942041
C49_3 C 0.2262(2) 0.77505(11) 0.82644(18)
C50_3 C 0.1798(2) 0.82446(10) 0.75597(19)
C51_3 C 0.0961(2) 0.86814(10) 0.6368(2)
H29_3 H 0.071599 0.862806 0.604263
C52_3 C 0.1439(2) 0.90467(10) 0.6924(2)
H30_3 H 0.154598 0.925754 0.700247
C53_3 C 0.2308(3) 0.80499(13) 0.8453(2)
H31_3 H 0.250305 0.809704 0.883469
C54_3 C 0.1658(2) 0.88059(12) 0.7280(3)
H32_3 H 0.189991 0.885777 0.761010
C55_3 C 0.1755(3) 0.79398(12) 0.7362(3)
H33_3 H 0.156405 0.788955 0.697881
C56_3 C 0.1191(2) 0.84447(10) 0.6729(3)
H34_3 H 0.109424 0.823209 0.665136
C57_3 C 0.1993(3) 0.76995(13) 0.7722(3)
H35_3 H 0.195854 0.748868 0.756969
C58_3 C 0.2079(2) 0.82985(12) 0.8105(2)
H36_3 H 0.212143 0.850874 0.825708
C1_4 C 0.58176(15) 0.42437(7) 0.39060(16)
C2_4 C 0.60816(16) 0.39919(8) 0.35275(18)
N1_4 N 0.750000 0.250000 0.1380(2)
C3_4 C 0.750000 0.250000 0.0686(3)
C4_4 C 0.6545(2) 0.35050(10) 0.28179(19)
C5_4 C 0.7936(2) 0.24185(12) 0.0345(2)
H1_4 H 0.823514 0.236255 0.057959
C6_4 C 0.7262(2) 0.27505(11) 0.17356(18)
C7_4 C 0.6798(2) 0.32446(10) 0.24403(19)
C8_4 C 0.5961(2) 0.36814(10) 0.3632(2)
H2_4 H 0.571599 0.362806 0.395737
C9_4 C 0.6439(2) 0.40467(10) 0.3076(2)
H3_4 H 0.654598 0.425754 0.299753
C10_4 C 0.7308(3) 0.30499(13) 0.1547(2)
H4_4 H 0.750305 0.309704 0.116531
C11_4 C 0.6658(2) 0.38059(12) 0.2720(3)
H5_4 H 0.689991 0.385777 0.238990
C12_4 C 0.6755(3) 0.29398(12) 0.2638(3)
H6_4 H 0.656405 0.288955 0.302119
C13_4 C 0.6191(2) 0.34447(10) 0.3271(3)
H7_4 H 0.609424 0.323209 0.334864
C14_4 C 0.6993(3) 0.26995(13) 0.2278(3)
H8_4 H 0.695854 0.248868 0.243031
C15_4 C 0.7079(2) 0.32985(12) 0.1895(2)
H9_4 H 0.712143 0.350874 0.174292
O7_4 O 0.94915(9) 0.08415(4) 0.43439(10)
O8_4 O 0.90606(10) 0.04740(5) 0.37739(12)
C16_4 C 0.91824(15) 0.07563(7) 0.39060(16)
C17_4 C 0.89184(16) 0.10081(8) 0.35275(18)
C18_4 C 0.8455(2) 0.14950(10) 0.28179(19)
C19_4 C 0.7064(2) 0.25815(12) 0.0345(2)
H10_4 H 0.676486 0.263745 0.057959
C20_4 C 0.7738(2) 0.22495(11) 0.17356(18)
C21_4 C 0.8202(2) 0.17554(10) 0.24403(19)
C22_4 C 0.9039(2) 0.13186(10) 0.3632(2)
H11_4 H 0.928401 0.137194 0.395737
C23_4 C 0.8561(2) 0.09533(10) 0.3076(2)
H12_4 H 0.845402 0.074246 0.299753
C24_4 C 0.7692(3) 0.19501(13) 0.1547(2)
H13_4 H 0.749695 0.190296 0.116531
C25_4 C 0.8342(2) 0.11941(12) 0.2720(3)
H14_4 H 0.810009 0.114223 0.238990
C26_4 C 0.8245(3) 0.20602(12) 0.2638(3)
H15_4 H 0.843595 0.211045 0.302119
C27_4 C 0.8809(2) 0.15553(10) 0.3271(3)
H16_4 H 0.890576 0.176791 0.334864
C28_4 C 0.8007(3) 0.23005(13) 0.2278(3)
H17_4 H 0.804146 0.251132 0.243031
C29_4 C 0.7921(2) 0.17015(12) 0.1895(2)
H18_4 H 0.787857 0.149126 0.174292
C30_4 C 0.58176(15) 0.42437(7) 0.60940(16)
C31_4 C 0.60816(16) 0.39919(8) 0.64725(18)
N2_4 N 0.750000 0.250000 0.8620(2)
C32_4 C 0.750000 0.250000 0.9314(3)
C33_4 C 0.6545(2) 0.35050(10) 0.71821(19)
C34_4 C 0.7936(2) 0.24185(12) 0.9655(2)
H19_4 H 0.823514 0.236255 0.942041
C35_4 C 0.7262(2) 0.27505(11) 0.82644(18)
C36_4 C 0.6798(2) 0.32446(10) 0.75597(19)
C37_4 C 0.5961(2) 0.36814(10) 0.6368(2)
H20_4 H 0.571599 0.362806 0.604263
C38_4 C 0.6439(2) 0.40467(10) 0.6924(2)
H21_4 H 0.654598 0.425754 0.700247
C39_4 C 0.7308(3) 0.30499(13) 0.8453(2)
H22_4 H 0.750305 0.309704 0.883469
C40_4 C 0.6658(2) 0.38059(12) 0.7280(3)
H23_4 H 0.689991 0.385777 0.761010
C41_4 C 0.6755(3) 0.29398(12) 0.7362(3)
H24_4 H 0.656405 0.288955 0.697881
C42_4 C 0.6191(2) 0.34447(10) 0.6729(3)
H25_4 H 0.609424 0.323209 0.665136
C43_4 C 0.6993(3) 0.26995(13) 0.7722(3)
H26_4 H 0.695854 0.248868 0.756969
C44_4 C 0.7079(2) 0.32985(12) 0.8105(2)
H27_4 H 0.712143 0.350874 0.825708
O11_4 O 0.94915(9) 0.08415(4) 0.56561(10)
O12_4 O 0.90606(10) 0.04740(5) 0.62261(12)
C45_4 C 0.91824(15) 0.07563(7) 0.60940(16)
C46_4 C 0.89184(16) 0.10081(8) 0.64725(18)
C47_4 C 0.8455(2) 0.14950(10) 0.71821(19)
C48_4 C 0.7064(2) 0.25815(12) 0.9655(2)
H28_4 H 0.676486 0.263745 0.942041
C49_4 C 0.7738(2) 0.22495(11) 0.82644(18)
C50_4 C 0.8202(2) 0.17554(10) 0.75597(19)
C51_4 C 0.9039(2) 0.13186(10) 0.6368(2)
H29_4 H 0.928401 0.137194 0.604263
C52_4 C 0.8561(2) 0.09533(10) 0.6924(2)
H30_4 H 0.845402 0.074246 0.700247
C53_4 C 0.7692(3) 0.19501(13) 0.8453(2)
H31_4 H 0.749695 0.190296 0.883469
C54_4 C 0.8342(2) 0.11941(12) 0.7280(3)
H32_4 H 0.810009 0.114223 0.761010
C55_4 C 0.8245(3) 0.20602(12) 0.7362(3)
H33_4 H 0.843595 0.211045 0.697881
C56_4 C 0.8809(2) 0.15553(10) 0.6729(3)
H34_4 H 0.890576 0.176791 0.665136
C57_4 C 0.8007(3) 0.23005(13) 0.7722(3)
H35_4 H 0.804146 0.251132 0.756969
C58_4 C 0.7921(2) 0.17015(12) 0.8105(2)
H36_4 H 0.787857 0.149126 0.825708
O6_2 O 0.000000 0.02823(9) 0.4120(2)
O13_3 O 0.06260(15) 0.000000 0.30358(16)
O15_3 O 0.15103(14) 0.000000 0.41796(18)
O24_2 O 0.06810(15) 0.02792(8) 0.500000
O26_3 O 0.000000 0.02823(9) 0.5880(2)
O13_4 O 0.06260(15) 1.000000 0.30358(16)
O14_2 O 0.06810(15) 0.97208(8) 0.500000
O15_4 O 0.15103(14) 1.000000 0.41796(18)
O16_2 O 0.000000 0.97177(9) 0.4120(2)
O3_3 O 0.93740(15) 0.000000 0.30358(16)
O4_2 O 0.93190(15) 0.02792(8) 0.500000
O5_3 O 0.84897(14) 0.000000 0.41796(18)
O6_3 O 1.000000 0.02823(9) 0.4120(2)
O26_4 O 1.000000 0.02823(9) 0.5880(2)
O3_4 O 0.93740(15) 1.000000 0.30358(16)
O5_4 O 0.84897(14) 1.000000 0.41796(18)
O16_3 O 1.000000 0.97177(9) 0.4120(2)
O25_2 O 0.93190(15) 0.97208(8) 0.500000
O26_5 O -0.000000 0.97177(9) 0.5880(2)
O26_6 O 1.000000 0.97177(9) 0.5880(2)
O3_5 O 0.06260(15) 0.000000 0.69642(16)
O5_5 O 0.15103(14) 0.000000 0.58204(18)
O3_6 O 0.06260(15) 1.000000 0.69642(16)
O5_6 O 0.15103(14) 1.000000 0.58204(18)
O13_5 O 0.93740(15) 0.000000 0.69642(16)
O15_5 O 0.84897(14) 0.000000 0.58204(18)
O13_6 O 0.93740(15) 1.000000 0.69642(16)
O15_6 O 0.84897(14) 1.000000 0.58204(18)
loop_
_geom_bond_atom_site_label_1
_geom_bond_atom_site_label_2
_geom_bond_site_symmetry_1
_geom_bond_site_symmetry_2
O9 C30 1_555 1_555
O10 C30 1_555 1_555
C30 C31 1_555 1_555
C31 C37 1_555 1_555
N2 C32 1_555 1_555
C32 C34 1_555 1_555
C33 C36 1_555 1_555
H19 C34 1_555 1_555
C35 N2 1_555 1_555
C36 C41 1_555 1_555
C37 H20 1_555 1_555
C38 C31 1_555 1_555
H21 C38 1_555 1_555
C39 C35 1_555 1_555
H22 C39 1_555 1_555
C40 C33 1_555 1_555
H23 C40 1_555 1_555
C41 H24 1_555 1_555
C42 C33 1_555 1_555
H25 C42 1_555 1_555
C43 C35 1_555 1_555
H26 C43 1_555 1_555
C44 C36 1_555 1_555
H27 C44 1_555 1_555
O11 C45 1_555 1_555
O12 C45 1_555 1_555
C45 C46 1_555 1_555
C46 C51 1_555 1_555
C47 C50 1_555 1_555
H28 C48 1_555 1_555
C49 N2 1_555 1_555
C50 C55 1_555 1_555
C51 H29 1_555 1_555
C52 C46 1_555 1_555
H30 C52 1_555 1_555
C53 C49 1_555 1_555
H31 C53 1_555 1_555
C54 C47 1_555 1_555
H32 C54 1_555 1_555
C55 H33 1_555 1_555
C56 C47 1_555 1_555
H34 C56 1_555 1_555
C57 C49 1_555 1_555
H35 C57 1_555 1_555
C58 C50 1_555 1_555
H36 C58 1_555 1_555
Zr4 O9 1_555 1_555
Zr7_2 O11 1_555 1_555
Zr8 O10 1_555 1_555
Zr11_2 O12 1_555 1_555
C32 C48 1_555 1_555
C37 C42 1_555 1_555
C38 C40 1_555 1_555
C39 C44 1_555 1_555
C41 C43 1_555 1_555
C51 C56 1_555 1_555
C52 C54 1_555 1_555
C53 C58 1_555 1_555
C55 C57 1_555 1_555
Zr4 O1 1_555 1_555
Zr2 O3 1_555 1_555
O1 C1 1_555 1_555
O2 C1 1_555 1_555
O4 Zr4 1_555 1_555
O5 Zr2 1_555 1_555
O6 Zr4 1_555 1_555
C1 C2 1_555 1_555
C2 C8 1_555 1_555
N1 C3 1_555 1_555
C3 C5 1_555 1_555
C4 C7 1_555 1_555
C5 H1 1_555 1_555
C6 N1 1_555 1_555
C7 C12 1_555 1_555
C8 H2 1_555 1_555
C9 C2 1_555 1_555
H3 C9 1_555 1_555
C10 C6 1_555 1_555
H4 C10 1_555 1_555
C11 C4 1_555 1_555
H5 C11 1_555 1_555
C12 H6 1_555 1_555
C13 C4 1_555 1_555
H7 C13 1_555 1_555
C14 C6 1_555 1_555
H8 C14 1_555 1_555
C15 C7 1_555 1_555
H9 C15 1_555 1_555
O7 C16 1_555 1_555
O8 C16 1_555 1_555
C16 C17 1_555 1_555
C17 C22 1_555 1_555
C18 C21 1_555 1_555
C19 C3 1_555 1_555
H10 C19 1_555 1_555
C20 N1 1_555 1_555
C21 C26 1_555 1_555
C22 H11 1_555 1_555
C23 C17 1_555 1_555
H12 C23 1_555 1_555
C24 C20 1_555 1_555
H13 C24 1_555 1_555
C25 C18 1_555 1_555
H14 C25 1_555 1_555
C26 H15 1_555 1_555
C27 C18 1_555 1_555
H16 C27 1_555 1_555
C28 C20 1_555 1_555
H17 C28 1_555 1_555
C29 C21 1_555 1_555
H18 C29 1_555 1_555
Zr8 O6 1_555 1_555
O13 Zr8 1_555 1_555
O14 Zr8 1_555 1_555
O15 Zr8 1_555 1_555
O16 Zr2 1_555 1_555
Zr5 O14 1_555 1_555
Zr7_2 O7 1_555 1_555
Zr9 O2 1_555 1_555
Zr10 O4 1_555 1_555
Zr12_2 O8 1_555 1_555
O17 Zr4 1_555 1_555
O19 Zr4 1_555 1_555
O20 Zr2 1_555 1_555
O21 Zr8 1_555 1_555
O22 Zr2 1_555 1_555
O24 Zr4 1_555 1_555
O25 Zr2 1_555 1_555
O26 Zr4 1_555 1_555
Zr2 O4 1_555 1_555
Zr2 O6 1_555 1_555
C8 C13 1_555 1_555
C9 C11 1_555 1_555
C10 C15 1_555 1_555
C12 C14 1_555 1_555
C22 C27 1_555 1_555
C23 C25 1_555 1_555
C24 C29 1_555 1_555
C26 C28 1_555 1_555
Zr8 O16 1_555 1_555
Zr8 O24 1_555 1_555
O14 Zr9 1_555 1_555
O16 Zr5 1_555 1_555
Zr5 O25 1_555 1_555
Zr9 O24 1_555 1_555
Zr9 O26 1_555 1_555
Zr10 O25 1_555 1_555
Zr10 O26 1_555 1_555
O9_2 C30_2 1_555 1_555
O22 C30_2 1_555 1_555
C30_2 C31_2 1_555 1_555
C31_2 C37_2 1_555 1_555
N2_2 C32_2 1_555 1_555
C32_2 C34_2 1_555 1_555
C33_2 C36_2 1_555 1_555
H19_2 C34_2 1_555 1_555
C35_2 N2_2 1_555 1_555
C36_2 C41_2 1_555 1_555
C37_2 H20_2 1_555 1_555
C38_2 C31_2 1_555 1_555
H21_2 C38_2 1_555 1_555
C39_2 C35_2 1_555 1_555
H22_2 C39_2 1_555 1_555
C40_2 C33_2 1_555 1_555
H23_2 C40_2 1_555 1_555
C41_2 H24_2 1_555 1_555
C42_2 C33_2 1_555 1_555
H25_2 C42_2 1_555 1_555
C43_2 C35_2 1_555 1_555
H26_2 C43_2 1_555 1_555
C44_2 C36_2 1_555 1_555
H27_2 C44_2 1_555 1_555
O11_2 C45_2 1_555 1_555
O12_2 C45_2 1_555 1_555
C45_2 C46_2 1_555 1_555
C46_2 C51_2 1_555 1_555
C47_2 C50_2 1_555 1_555
H28_2 C48_2 1_555 1_555
C49_2 N2_2 1_555 1_555
C50_2 C55_2 1_555 1_555
C51_2 H29_2 1_555 1_555
C52_2 C46_2 1_555 1_555
H30_2 C52_2 1_555 1_555
C53_2 C49_2 1_555 1_555
H31_2 C53_2 1_555 1_555
C54_2 C47_2 1_555 1_555
H32_2 C54_2 1_555 1_555
C55_2 H33_2 1_555 1_555
C56_2 C47_2 1_555 1_555
H34_2 C56_2 1_555 1_555
C57_2 C49_2 1_555 1_555
H35_2 C57_2 1_555 1_555
C58_2 C50_2 1_555 1_555
H36_2 C58_2 1_555 1_555
Zr5 O9_2 1_555 1_555
Zr7_3 O11_2 1_555 1_555
Zr11_3 O12_2 1_555 1_555
C32_2 C48_2 1_555 1_555
C37_2 C42_2 1_555 1_555
C38_2 C40_2 1_555 1_555
C39_2 C44_2 1_555 1_555
C41_2 C43_2 1_555 1_555
C51_2 C56_2 1_555 1_555
C52_2 C54_2 1_555 1_555
C53_2 C58_2 1_555 1_555
C55_2 C57_2 1_555 1_555
Zr5 O1_2 1_555 1_555
O1_2 C1_2 1_555 1_555
O2_2 C1_2 1_555 1_555
C1_2 C2_2 1_555 1_555
C2_2 C8_2 1_555 1_555
N1_2 C3_2 1_555 1_555
C3_2 C5_2 1_555 1_555
C4_2 C7_2 1_555 1_555
C5_2 H1_2 1_555 1_555
C6_2 N1_2 1_555 1_555
C7_2 C12_2 1_555 1_555
C8_2 H2_2 1_555 1_555
C9_2 C2_2 1_555 1_555
H3_2 C9_2 1_555 1_555
C10_2 C6_2 1_555 1_555
H4_2 C10_2 1_555 1_555
C11_2 C4_2 1_555 1_555
H5_2 C11_2 1_555 1_555
C12_2 H6_2 1_555 1_555
C13_2 C4_2 1_555 1_555
H7_2 C13_2 1_555 1_555
C14_2 C6_2 1_555 1_555
H8_2 C14_2 1_555 1_555
C15_2 C7_2 1_555 1_555
H9_2 C15_2 1_555 1_555
O7_2 C16_2 1_555 1_555
O8_2 C16_2 1_555 1_555
C16_2 C17_2 1_555 1_555
C17_2 C22_2 1_555 1_555
C18_2 C21_2 1_555 1_555
C19_2 C3_2 1_555 1_555
H10_2 C19_2 1_555 1_555
C20_2 N1_2 1_555 1_555
C21_2 C26_2 1_555 1_555
C22_2 H11_2 1_555 1_555
C23_2 C17_2 1_555 1_555
H12_2 C23_2 1_555 1_555
C24_2 C20_2 1_555 1_555
H13_2 C24_2 1_555 1_555
C25_2 C18_2 1_555 1_555
H14_2 C25_2 1_555 1_555
C26_2 H15_2 1_555 1_555
C27_2 C18_2 1_555 1_555
H16_2 C27_2 1_555 1_555
C28_2 C20_2 1_555 1_555
H17_2 C28_2 1_555 1_555
C29_2 C21_2 1_555 1_555
H18_2 C29_2 1_555 1_555
Zr7_3 O7_2 1_555 1_555
Zr10 O2_2 1_555 1_555
Zr12_3 O8_2 1_555 1_555
O17_2 Zr5 1_555 1_555
O19_2 Zr5 1_555 1_555
O26_2 Zr5 1_555 1_555
C8_2 C13_2 1_555 1_555
C9_2 C11_2 1_555 1_555
C10_2 C15_2 1_555 1_555
C12_2 C14_2 1_555 1_555
C22_2 C27_2 1_555 1_555
C23_2 C25_2 1_555 1_555
C24_2 C29_2 1_555 1_555
C26_2 C28_2 1_555 1_555
Zr10 O26_2 1_555 1_555
Zr9 O26_2 1_555 1_555
Zr9 O3_2 1_555 1_555
O17 C1_3 1_555 1_555
O20 C1_3 1_555 1_555
O5_2 Zr9 1_555 1_555
C1_3 C2_3 1_555 1_555
C2_3 C8_3 1_555 1_555
N1_3 C3_3 1_555 1_555
C3_3 C5_3 1_555 1_555
C4_3 C7_3 1_555 1_555
C5_3 H1_3 1_555 1_555
C6_3 N1_3 1_555 1_555
C7_3 C12_3 1_555 1_555
C8_3 H2_3 1_555 1_555
C9_3 C2_3 1_555 1_555
H3_3 C9_3 1_555 1_555
C10_3 C6_3 1_555 1_555
H4_3 C10_3 1_555 1_555
C11_3 C4_3 1_555 1_555
H5_3 C11_3 1_555 1_555
C12_3 H6_3 1_555 1_555
C13_3 C4_3 1_555 1_555
H7_3 C13_3 1_555 1_555
C14_3 C6_3 1_555 1_555
H8_3 C14_3 1_555 1_555
C15_3 C7_3 1_555 1_555
H9_3 C15_3 1_555 1_555
O7_3 C16_3 1_555 1_555
O8_3 C16_3 1_555 1_555
C16_3 C17_3 1_555 1_555
C17_3 C22_3 1_555 1_555
C18_3 C21_3 1_555 1_555
C19_3 C3_3 1_555 1_555
H10_3 C19_3 1_555 1_555
C20_3 N1_3 1_555 1_555
C21_3 C26_3 1_555 1_555
C22_3 H11_3 1_555 1_555
C23_3 C17_3 1_555 1_555
H12_3 C23_3 1_555 1_555
C24_3 C20_3 1_555 1_555
H13_3 C24_3 1_555 1_555
C25_3 C18_3 1_555 1_555
H14_3 C25_3 1_555 1_555
C26_3 H15_3 1_555 1_555
C27_3 C18_3 1_555 1_555
H16_3 C27_3 1_555 1_555
C28_3 C20_3 1_555 1_555
H17_3 C28_3 1_555 1_555
C29_3 C21_3 1_555 1_555
H18_3 C29_3 1_555 1_555
O13_2 Zr10 1_555 1_555
O15_2 Zr10 1_555 1_555
Zr7 O7_3 1_555 1_555
Zr11_4 O8_3 1_555 1_555
O22_2 Zr9 1_555 1_555
O23 Zr10 1_555 1_555
C8_3 C13_3 1_555 1_555
C9_3 C11_3 1_555 1_555
C10_3 C15_3 1_555 1_555
C12_3 C14_3 1_555 1_555
C22_3 C27_3 1_555 1_555
C23_3 C25_3 1_555 1_555
C24_3 C29_3 1_555 1_555
C26_3 C28_3 1_555 1_555
O19 C30_3 1_555 1_555
O23 C30_3 1_555 1_555
C30_3 C31_3 1_555 1_555
C31_3 C37_3 1_555 1_555
N2_3 C32_3 1_555 1_555
C32_3 C34_3 1_555 1_555
C33_3 C36_3 1_555 1_555
H19_3 C34_3 1_555 1_555
C35_3 N2_3 1_555 1_555
C36_3 C41_3 1_555 1_555
C37_3 H20_3 1_555 1_555
C38_3 C31_3 1_555 1_555
H21_3 C38_3 1_555 1_555
C39_3 C35_3 1_555 1_555
H22_3 C39_3 1_555 1_555
C40_3 C33_3 1_555 1_555
H23_3 C40_3 1_555 1_555
C41_3 H24_3 1_555 1_555
C42_3 C33_3 1_555 1_555
H25_3 C42_3 1_555 1_555
C43_3 C35_3 1_555 1_555
H26_3 C43_3 1_555 1_555
C44_3 C36_3 1_555 1_555
H27_3 C44_3 1_555 1_555
O11_3 C45_3 1_555 1_555
O12_3 C45_3 1_555 1_555
C45_3 C46_3 1_555 1_555
C46_3 C51_3 1_555 1_555
C47_3 C50_3 1_555 1_555
H28_3 C48_3 1_555 1_555
C49_3 N2_3 1_555 1_555
C50_3 C55_3 1_555 1_555
C51_3 H29_3 1_555 1_555
C52_3 C46_3 1_555 1_555
H30_3 C52_3 1_555 1_555
C53_3 C49_3 1_555 1_555
H31_3 C53_3 1_555 1_555
C54_3 C47_3 1_555 1_555
H32_3 C54_3 1_555 1_555
C55_3 H33_3 1_555 1_555
C56_3 C47_3 1_555 1_555
H34_3 C56_3 1_555 1_555
C57_3 C49_3 1_555 1_555
H35_3 C57_3 1_555 1_555
C58_3 C50_3 1_555 1_555
H36_3 C58_3 1_555 1_555
Zr7 O11_3 1_555 1_555
Zr12_4 O12_3 1_555 1_555
C32_3 C48_3 1_555 1_555
C37_3 C42_3 1_555 1_555
C38_3 C40_3 1_555 1_555
C39_3 C44_3 1_555 1_555
C41_3 C43_3 1_555 1_555
C51_3 C56_3 1_555 1_555
C52_3 C54_3 1_555 1_555
C53_3 C58_3 1_555 1_555
C55_3 C57_3 1_555 1_555
O17_2 C1_4 1_555 1_555
O21 C1_4 1_555 1_555
C1_4 C2_4 1_555 1_555
C2_4 C8_4 1_555 1_555
N1_4 C3_4 1_555 1_555
C3_4 C5_4 1_555 1_555
C4_4 C7_4 1_555 1_555
C5_4 H1_4 1_555 1_555
C6_4 N1_4 1_555 1_555
C7_4 C12_4 1_555 1_555
C8_4 H2_4 1_555 1_555
C9_4 C2_4 1_555 1_555
H3_4 C9_4 1_555 1_555
C10_4 C6_4 1_555 1_555
H4_4 C10_4 1_555 1_555
C11_4 C4_4 1_555 1_555
H5_4 C11_4 1_555 1_555
C12_4 H6_4 1_555 1_555
C13_4 C4_4 1_555 1_555
H7_4 C13_4 1_555 1_555
C14_4 C6_4 1_555 1_555
H8_4 C14_4 1_555 1_555
C15_4 C7_4 1_555 1_555
H9_4 C15_4 1_555 1_555
O7_4 C16_4 1_555 1_555
O8_4 C16_4 1_555 1_555
C16_4 C17_4 1_555 1_555
C17_4 C22_4 1_555 1_555
C18_4 C21_4 1_555 1_555
C19_4 C3_4 1_555 1_555
H10_4 C19_4 1_555 1_555
C20_4 N1_4 1_555 1_555
C21_4 C26_4 1_555 1_555
C22_4 H11_4 1_555 1_555
C23_4 C17_4 1_555 1_555
H12_4 C23_4 1_555 1_555
C24_4 C20_4 1_555 1_555
H13_4 C24_4 1_555 1_555
C25_4 C18_4 1_555 1_555
H14_4 C25_4 1_555 1_555
C26_4 H15_4 1_555 1_555
C27_4 C18_4 1_555 1_555
H16_4 C27_4 1_555 1_555
C28_4 C20_4 1_555 1_555
H17_4 C28_4 1_555 1_555
C29_4 C21_4 1_555 1_555
H18_4 C29_4 1_555 1_555
Zr7_4 O7_4 1_555 1_555
Zr11 O8_4 1_555 1_555
C8_4 C13_4 1_555 1_555
C9_4 C11_4 1_555 1_555
C10_4 C15_4 1_555 1_555
C12_4 C14_4 1_555 1_555
C22_4 C27_4 1_555 1_555
C23_4 C25_4 1_555 1_555
C24_4 C29_4 1_555 1_555
C26_4 C28_4 1_555 1_555
O19_2 C30_4 1_555 1_555
O22_2 C30_4 1_555 1_555
C30_4 C31_4 1_555 1_555
C31_4 C37_4 1_555 1_555
N2_4 C32_4 1_555 1_555
C32_4 C34_4 1_555 1_555
C33_4 C36_4 1_555 1_555
H19_4 C34_4 1_555 1_555
C35_4 N2_4 1_555 1_555
C36_4 C41_4 1_555 1_555
C37_4 H20_4 1_555 1_555
C38_4 C31_4 1_555 1_555
H21_4 C38_4 1_555 1_555
C39_4 C35_4 1_555 1_555
H22_4 C39_4 1_555 1_555
C40_4 C33_4 1_555 1_555
H23_4 C40_4 1_555 1_555
C41_4 H24_4 1_555 1_555
C42_4 C33_4 1_555 1_555
H25_4 C42_4 1_555 1_555
C43_4 C35_4 1_555 1_555
H26_4 C43_4 1_555 1_555
C44_4 C36_4 1_555 1_555
H27_4 C44_4 1_555 1_555
O11_4 C45_4 1_555 1_555
O12_4 C45_4 1_555 1_555
C45_4 C46_4 1_555 1_555
C46_4 C51_4 1_555 1_555
C47_4 C50_4 1_555 1_555
H28_4 C48_4 1_555 1_555
C49_4 N2_4 1_555 1_555
C50_4 C55_4 1_555 1_555
C51_4 H29_4 1_555 1_555
C52_4 C46_4 1_555 1_555
H30_4 C52_4 1_555 1_555
C53_4 C49_4 1_555 1_555
H31_4 C53_4 1_555 1_555
C54_4 C47_4 1_555 1_555
H32_4 C54_4 1_555 1_555
C55_4 H33_4 1_555 1_555
C56_4 C47_4 1_555 1_555
H34_4 C56_4 1_555 1_555
C57_4 C49_4 1_555 1_555
H35_4 C57_4 1_555 1_555
C58_4 C50_4 1_555 1_555
H36_4 C58_4 1_555 1_555
Zr7_4 O11_4 1_555 1_555
Zr12 O12_4 1_555 1_555
C32_4 C48_4 1_555 1_555
C37_4 C42_4 1_555 1_555
C38_4 C40_4 1_555 1_555
C39_4 C44_4 1_555 1_555
C41_4 C43_4 1_555 1_555
C51_4 C56_4 1_555 1_555
C52_4 C54_4 1_555 1_555
C53_4 C58_4 1_555 1_555
C55_4 C57_4 1_555 1_555
O6_2 Zr7_3 1_555 1_555
Zr11_3 O6_2 1_555 1_555
O13_3 Zr11_3 1_555 1_555
O15_3 Zr11_3 1_555 1_555
O24_2 Zr7_3 1_555 1_555
O26_3 Zr7_3 1_555 1_555
Zr11_3 O24_2 1_555 1_555
Zr12_3 O24_2 1_555 1_555
Zr12_3 O26_3 1_555 1_555
O13_4 Zr11_4 1_555 1_555
O14_2 Zr11_4 1_555 1_555
O15_4 Zr11_4 1_555 1_555
Zr7 O14_2 1_555 1_555
Zr11_4 O16_2 1_555 1_555
O14_2 Zr12_4 1_555 1_555
O16_2 Zr7 1_555 1_555
Zr11 O3_3 1_555 1_555
O4_2 Zr7_4 1_555 1_555
O5_3 Zr11 1_555 1_555
O6_3 Zr7_4 1_555 1_555
Zr12 O4_2 1_555 1_555
O26_4 Zr7_4 1_555 1_555
Zr11 O4_2 1_555 1_555
Zr11 O6_3 1_555 1_555
Zr12 O26_4 1_555 1_555
Zr11_2 O3_4 1_555 1_555
O5_4 Zr11_2 1_555 1_555
O16_3 Zr11_2 1_555 1_555
O25_2 Zr11_2 1_555 1_555
O16_3 Zr7_2 1_555 1_555
Zr7_2 O25_2 1_555 1_555
Zr12_2 O25_2 1_555 1_555
O26_5 Zr7 1_555 1_555
Zr12_4 O26_5 1_555 1_555
O26_6 Zr7_2 1_555 1_555
Zr12_2 O26_6 1_555 1_555
Zr12_3 O3_5 1_555 1_555
O5_5 Zr12_3 1_555 1_555
Zr12_4 O3_6 1_555 1_555
O5_6 Zr12_4 1_555 1_555
O13_5 Zr12 1_555 1_555
O15_5 Zr12 1_555 1_555
O13_6 Zr12_2 1_555 1_555
O15_6 Zr12_2 1_555 1_555

#END
