
###############################################################################
#
# This file contains modified crystal structure data generated from the
# MOF subset of the Cambridge Structural Database (CSD) v543 
# hosted by the Cambridge Crystallographic Data Centre (CCDC).
#
# This work is licensed under the Creative Commons
# Attribution-NonCommercial-ShareAlike 4.0 International License.
# To view a copy of this license, visit
# http://creativecommons.org/licenses/by-nc-sa/4.0/
# or send a letter to
# Creative Commons, PO Box 1866, Mountain View, CA 94042, USA.
#
# CIF created using the CSD Python API on 29 September 2022
# The structure has been converted into the P1 space group
# The structure has a 3D framework
# The original CSD entry XEFGAQ is in the tetragonal crystal system
# The framework has been calculated to contain at least 10.0% void space
# The void calculation uses a probe of radius 1.32A, grid spacing 0.4
# The framework is charged, counterions have been retained in the structure
#
###############################################################################

data_XEFGAQ
_chemical_formula_moiety         '(C80 H64 Cu4 N32 4+)n'
_symmetry_cell_setting           triclinic
_symmetry_space_group_name_H-M   'P 1'
_symmetry_Int_Tables_number      1
_space_group_name_Hall           'P 1'
loop_
_symmetry_equiv_pos_site_id
_symmetry_equiv_pos_as_xyz
1 x,y,z
_cell_length_a                   17.327(3)
_cell_length_b                   17.327(3)
_cell_length_c                   7.7288(16)
_cell_angle_alpha                90
_cell_angle_beta                 90
_cell_angle_gamma                90
_cell_volume                     2320.38
loop_
_atom_site_label
_atom_site_type_symbol
_atom_site_fract_x
_atom_site_fract_y
_atom_site_fract_z
Cu1 Cu 0.0000 0.2500 0.1250
N4 N 0.09230(17) 0.24841(17) 0.2876(4)
C1 C 0.2971(2) 0.2446(2) 0.9529(5)
N2 N 0.23889(17) 0.23823(18) 0.8226(4)
C5 C 0.3524(2) 0.3028(2) 0.9531(5)
H4 H 0.3533 0.3410 0.8649
N6 N 0.26111(17) 0.26177(18) 0.6774(4)
C8 C 0.2029(2) 0.2554(2) 0.5471(5)
C11 C 0.2040(2) 0.3075(2) 0.4128(5)
C12 C 0.1476(2) 0.1972(2) 0.5469(5)
H9 H 0.2430 0.3459 0.4062
C14 C 0.1473(2) 0.3029(2) 0.2881(5)
C15 C 0.0941(2) 0.1965(2) 0.4151(5)
H10 H 0.1467 0.1590 0.6351
H11 H 0.1471 0.3402 0.1980
H12 H 0.0564 0.1568 0.4148
H5 H 0.0902 0.1029 0.0520
N1 N 0.00159(17) 0.34230(17) 0.9624(4)
C4 C 0.0535(2) 0.3441(2) 0.8349(5)
H3 H 0.0932 0.3064 0.8352
C5_2 C 0.0528(2) 0.3976(2) 0.7031(5)
H4_2 H 0.0910 0.3967 0.6149
N6_2 N 0.01177(18) 0.48889(17) 0.4274(4)
C8_2 C 0.0054(2) 0.5471(2) 0.2971(5)
C11_2 C 0.0575(2) 0.5460(2) 0.1628(5)
H9_2 H 0.0959 0.5070 0.1562
C14_2 C 0.0529(2) 0.6027(2) 0.0381(5)
N4_2 N 0.00159(17) 0.84230(17) 0.0376(4)
C6 C 0.0529(2) 0.1027(2) 0.9619(5)
C9 C 0.0575(2) 0.0460(2) 0.8372(5)
C13 C 0.0054(2) 0.0471(2) 0.7029(5)
H7 H 0.0959 0.0070 0.8438
N7 N 0.01177(18) 0.98889(17) 0.5726(4)
C18 C 0.0528(2) 0.8976(2) 0.2969(5)
C20 C 0.0535(2) 0.8441(2) 0.1651(5)
H14 H 0.0910 0.8967 0.3851
H16 H 0.0932 0.8064 0.1648
H11_2 H 0.0902 0.6029 0.9480
Cu2 Cu -0.0000 0.7500 0.8750
C10 C 0.3524(2) 0.8028(2) 0.0469(5)
C13_2 C 0.2971(2) 0.7446(2) 0.0471(5)
H8 H 0.3533 0.8410 0.1351
N7_2 N 0.23889(17) 0.73823(18) 0.1774(4)
N9 N 0.26111(17) 0.76177(18) 0.3226(4)
C16 C 0.2029(2) 0.7554(2) 0.4529(5)
C17 C 0.2040(2) 0.8075(2) 0.5872(5)
C18_2 C 0.1476(2) 0.6972(2) 0.4531(5)
H13 H 0.2430 0.8459 0.5938
C19 C 0.1473(2) 0.8029(2) 0.7119(5)
C20_2 C 0.0941(2) 0.6965(2) 0.5849(5)
H14_2 H 0.1467 0.6590 0.3649
N10 N 0.09230(17) 0.74841(17) 0.7124(4)
H15 H 0.1471 0.8402 0.8020
H16_2 H 0.0564 0.6568 0.5852
C17_2 C 0.7040(2) 0.3075(2) 0.0872(5)
H13_2 H 0.7430 0.3459 0.0938
C19_2 C 0.6473(2) 0.3029(2) 0.2119(5)
C20_3 C 0.5941(2) 0.1965(2) 0.0849(5)
N10_2 N 0.59230(17) 0.24841(17) 0.2124(4)
H15_2 H 0.6471 0.3402 0.3020
H16_3 H 0.5564 0.1568 0.0852
Cu3 Cu 0.5000 0.2500 0.3750
N1_2 N 0.40770(17) 0.25159(17) 0.2124(4)
C2 C 0.2960(2) 0.1925(2) 0.0872(5)
H1 H 0.2570 0.1541 0.0938
C3 C 0.3527(2) 0.1971(2) 0.2119(5)
H2 H 0.3529 0.1598 0.3020
C4_2 C 0.4059(2) 0.3035(2) 0.0849(5)
H3_2 H 0.4436 0.3432 0.0852
N3 N 0.49841(17) 0.15770(17) 0.5376(4)
N4_3 N 0.50159(17) 0.34230(17) 0.5376(4)
C6_2 C 0.5529(2) 0.1027(2) 0.5381(5)
C7 C 0.4465(2) 0.1559(2) 0.6651(5)
C9_2 C 0.5575(2) 0.0460(2) 0.6628(5)
H5_2 H 0.5902 0.1029 0.4480
H6 H 0.4068 0.1936 0.6648
C10_2 C 0.4472(2) 0.1024(2) 0.7969(5)
C13_3 C 0.5054(2) 0.0471(2) 0.7971(5)
H7_2 H 0.5959 0.0070 0.6562
H8_2 H 0.4090 0.1033 0.8851
C6_3 C 0.4471(2) 0.3973(2) 0.5381(5)
C7_2 C 0.5535(2) 0.3441(2) 0.6651(5)
C9_3 C 0.4425(2) 0.4540(2) 0.6628(5)
H5_3 H 0.4098 0.3971 0.4480
H6_2 H 0.5932 0.3064 0.6648
C10_3 C 0.5528(2) 0.3976(2) 0.7969(5)
C13_4 C 0.4946(2) 0.4529(2) 0.7971(5)
H7_3 H 0.4041 0.4930 0.6562
H8_3 H 0.5910 0.3967 0.8851
N7_3 N 0.48823(18) 0.51111(17) 0.9274(4)
Cu1_2 Cu 1.0000 0.2500 0.1250
H2_2 H 0.9098 0.3971 0.0520
N3_2 N 0.90770(17) 0.25159(17) 0.2876(4)
C6_4 C 0.8527(2) 0.1971(2) 0.2881(5)
C7_3 C 0.9059(2) 0.3035(2) 0.4151(5)
C9_4 C 0.7960(2) 0.1925(2) 0.4128(5)
H5_4 H 0.8529 0.1598 0.1980
H6_3 H 0.9436 0.3432 0.4148
C10_4 C 0.8524(2) 0.3028(2) 0.5469(5)
C13_5 C 0.7971(2) 0.2446(2) 0.5471(5)
H7_4 H 0.7570 0.1541 0.4062
H8_4 H 0.8533 0.3410 0.6351
N7_4 N 0.73889(17) 0.23823(18) 0.6774(4)
N9_2 N 0.76111(17) 0.26177(18) 0.8226(4)
C16_2 C 0.7029(2) 0.2554(2) 0.9529(5)
C18_3 C 0.6476(2) 0.1972(2) 0.9531(5)
H14_3 H 0.6467 0.1590 0.8649
C1_2 C 0.9946(2) 0.4529(2) 0.7029(5)
N2_2 N 0.98823(18) 0.51111(17) 0.5726(4)
C2_2 C 0.9425(2) 0.4540(2) 0.8372(5)
H1_2 H 0.9041 0.4930 0.8438
C3_2 C 0.9471(2) 0.3973(2) 0.9619(5)
N5 N 0.99841(17) 0.15770(17) 0.9624(4)
C12_2 C 0.9472(2) 0.6024(2) 0.2969(5)
C15_2 C 0.9465(2) 0.6559(2) 0.1651(5)
H10_2 H 0.9090 0.6033 0.3851
N8 N 0.99841(17) 0.65770(17) 0.0376(4)
H12_2 H 0.9068 0.6936 0.1648
C7_4 C 0.9465(2) 0.1559(2) 0.8349(5)
H6_4 H 0.9068 0.1936 0.8352
C10_5 C 0.9472(2) 0.1024(2) 0.7031(5)
H8_5 H 0.9090 0.1033 0.6149
N9_3 N 0.98823(18) 0.01111(17) 0.4274(4)
C16_3 C 0.9946(2) 0.9529(2) 0.2971(5)
C17_3 C 0.9425(2) 0.9540(2) 0.1628(5)
H13_3 H 0.9041 0.9930 0.1562
C19_3 C 0.9471(2) 0.8973(2) 0.0381(5)
Cu2_2 Cu 1.0000 0.7500 0.8750
N1_3 N 0.90770(17) 0.75159(17) 0.7124(4)
C1_3 C 0.7971(2) 0.7446(2) 0.4529(5)
N2_3 N 0.73889(17) 0.73823(18) 0.3226(4)
C2_3 C 0.7960(2) 0.6925(2) 0.5872(5)
H1_3 H 0.7570 0.6541 0.5938
C3_3 C 0.8527(2) 0.6971(2) 0.7119(5)
H2_3 H 0.8529 0.6598 0.8020
C4_3 C 0.9059(2) 0.8035(2) 0.5849(5)
H3_3 H 0.9436 0.8432 0.5852
C5_3 C 0.8524(2) 0.8028(2) 0.4531(5)
H4_3 H 0.8533 0.8410 0.3649
N6_3 N 0.76111(17) 0.76177(18) 0.1774(4)
C8_3 C 0.7029(2) 0.7554(2) 0.0471(5)
C12_3 C 0.6476(2) 0.6972(2) 0.0469(5)
H10_3 H 0.6467 0.6590 0.1351
H15_3 H 0.9098 0.8971 0.9480
N9_4 N 0.48823(18) 0.01111(17) 0.0726(4)
C16_4 C 0.4946(2) 0.9529(2) 0.2029(5)
C17_4 C 0.4425(2) 0.9540(2) 0.3372(5)
C18_4 C 0.5528(2) 0.8976(2) 0.2031(5)
H13_4 H 0.4041 0.9930 0.3438
C19_4 C 0.4471(2) 0.8973(2) 0.4619(5)
C20_4 C 0.5535(2) 0.8441(2) 0.3349(5)
H14_4 H 0.5910 0.8967 0.1149
N10_3 N 0.50159(17) 0.84230(17) 0.4624(4)
H15_4 H 0.4098 0.8971 0.5520
H16_4 H 0.5932 0.8064 0.3352
Cu3_2 Cu 0.5000 0.7500 0.6250
N3_3 N 0.40770(17) 0.75159(17) 0.7876(4)
N4_4 N 0.59230(17) 0.74841(17) 0.7876(4)
N5_2 N 0.49841(17) 0.65770(17) 0.4624(4)
C6_5 C 0.3527(2) 0.6971(2) 0.7881(5)
C7_5 C 0.4059(2) 0.8035(2) 0.9151(5)
C9_5 C 0.2960(2) 0.6925(2) 0.9128(5)
H5_5 H 0.3529 0.6598 0.6980
H6_5 H 0.4436 0.8432 0.9148
H7_5 H 0.2570 0.6541 0.9062
C11_3 C 0.7040(2) 0.8075(2) 0.9128(5)
H9_3 H 0.7430 0.8459 0.9062
C14_3 C 0.6473(2) 0.8029(2) 0.7881(5)
C15_3 C 0.5941(2) 0.6965(2) 0.9151(5)
H11_3 H 0.6471 0.8402 0.6980
H12_3 H 0.5564 0.6568 0.9148
N9_5 N 0.51177(18) 0.48889(17) 0.0726(4)
C16_5 C 0.5054(2) 0.5471(2) 0.2029(5)
C17_5 C 0.5575(2) 0.5460(2) 0.3372(5)
C18_5 C 0.4472(2) 0.6024(2) 0.2031(5)
H13_5 H 0.5959 0.5070 0.3438
C19_5 C 0.5529(2) 0.6027(2) 0.4619(5)
C20_5 C 0.4465(2) 0.6559(2) 0.3349(5)
H14_5 H 0.4090 0.6033 0.1149
H15_5 H 0.5902 0.6029 0.5520
H16_5 H 0.4068 0.6936 0.3352
N7_5 N 0.51177(18) 0.98889(17) 0.9274(4)
loop_
_geom_bond_atom_site_label_1
_geom_bond_atom_site_label_2
_geom_bond_site_symmetry_1
_geom_bond_site_symmetry_2
N4 Cu1 1_555 1_555
C1 N2 1_555 1_555
N2 N6 1_555 1_555
C5 C1 1_555 1_555
H4 C5 1_555 1_555
N6 C8 1_555 1_555
C8 C11 1_555 1_555
C11 H9 1_555 1_555
C12 C8 1_555 1_555
C14 C11 1_555 1_555
C15 C12 1_555 1_555
H10 C12 1_555 1_555
N4 C14 1_555 1_555
H11 C14 1_555 1_555
H12 C15 1_555 1_555
C15 N4 1_555 1_555
C4 N1 1_555 1_555
H3 C4 1_555 1_555
H4_2 C5_2 1_555 1_555
N6_2 C8_2 1_555 1_555
C8_2 C11_2 1_555 1_555
C11_2 H9_2 1_555 1_555
C14_2 C11_2 1_555 1_555
C4 C5_2 1_555 1_555
C9 C6 1_555 1_555
C13 C9 1_555 1_555
H7 C9 1_555 1_555
C20 C18 1_555 1_555
H14 C18 1_555 1_555
H16 C20 1_555 1_555
C20 N4_2 1_555 1_555
H8 C10 1_555 1_555
N7_2 C13_2 1_555 1_555
N9 N7_2 1_555 1_555
C16 N9 1_555 1_555
C17 C16 1_555 1_555
C18_2 C16 1_555 1_555
H13 C17 1_555 1_555
C19 C17 1_555 1_555
C20_2 C18_2 1_555 1_555
H14_2 C18_2 1_555 1_555
N10 C19 1_555 1_555
H15 C19 1_555 1_555
H16_2 C20_2 1_555 1_555
Cu2 N10 1_555 1_555
C10 C13_2 1_555 1_555
C20_2 N10 1_555 1_555
H13_2 C17_2 1_555 1_555
C19_2 C17_2 1_555 1_555
N10_2 C19_2 1_555 1_555
H15_2 C19_2 1_555 1_555
H16_3 C20_3 1_555 1_555
Cu3 N10_2 1_555 1_555
C20_3 N10_2 1_555 1_555
Cu3 N1_2 1_555 1_555
N1_2 C3 1_555 1_555
H1 C2 1_555 1_555
C3 C2 1_555 1_555
H2 C3 1_555 1_555
C4_2 N1_2 1_555 1_555
H3_2 C4_2 1_555 1_555
N3 Cu3 1_555 1_555
N4_3 Cu3 1_555 1_555
C6_2 N3 1_555 1_555
C7 N3 1_555 1_555
C9_2 C6_2 1_555 1_555
H5_2 C6_2 1_555 1_555
H6 C7 1_555 1_555
C10_2 C7 1_555 1_555
C13_3 C9_2 1_555 1_555
H7_2 C9_2 1_555 1_555
H8_2 C10_2 1_555 1_555
C10_2 C13_3 1_555 1_555
C6_3 N4_3 1_555 1_555
C7_2 N4_3 1_555 1_555
C9_3 C6_3 1_555 1_555
H5_3 C6_3 1_555 1_555
H6_2 C7_2 1_555 1_555
C10_3 C7_2 1_555 1_555
C13_4 C9_3 1_555 1_555
H7_3 C9_3 1_555 1_555
H8_3 C10_3 1_555 1_555
N7_3 C13_4 1_555 1_555
C10_3 C13_4 1_555 1_555
N3_2 Cu1_2 1_555 1_555
C6_4 N3_2 1_555 1_555
C7_3 N3_2 1_555 1_555
C9_4 C6_4 1_555 1_555
H5_4 C6_4 1_555 1_555
H6_3 C7_3 1_555 1_555
C10_4 C7_3 1_555 1_555
C13_5 C9_4 1_555 1_555
H7_4 C9_4 1_555 1_555
H8_4 C10_4 1_555 1_555
N7_4 C13_5 1_555 1_555
N9_2 N7_4 1_555 1_555
C16_2 N9_2 1_555 1_555
C18_3 C16_2 1_555 1_555
H14_3 C18_3 1_555 1_555
C10_4 C13_5 1_555 1_555
C1_2 N2_2 1_555 1_555
C2_2 C1_2 1_555 1_555
H1_2 C2_2 1_555 1_555
C3_2 C2_2 1_555 1_555
C15_2 C12_2 1_555 1_555
H10_2 C12_2 1_555 1_555
H12_2 C15_2 1_555 1_555
C15_2 N8 1_555 1_555
C7_4 N5 1_555 1_555
H6_4 C7_4 1_555 1_555
C10_5 C7_4 1_555 1_555
H8_5 C10_5 1_555 1_555
C17_3 C16_3 1_555 1_555
H13_3 C17_3 1_555 1_555
C19_3 C17_3 1_555 1_555
Cu2_2 N1_3 1_555 1_555
N1_3 C3_3 1_555 1_555
C1_3 N2_3 1_555 1_555
N2_3 N6_3 1_555 1_555
C2_3 C1_3 1_555 1_555
H1_3 C2_3 1_555 1_555
C3_3 C2_3 1_555 1_555
H2_3 C3_3 1_555 1_555
C4_3 N1_3 1_555 1_555
H3_3 C4_3 1_555 1_555
C5_3 C1_3 1_555 1_555
H4_3 C5_3 1_555 1_555
N6_3 C8_3 1_555 1_555
C12_3 C8_3 1_555 1_555
H10_3 C12_3 1_555 1_555
C4_3 C5_3 1_555 1_555
C17_4 C16_4 1_555 1_555
C18_4 C16_4 1_555 1_555
H13_4 C17_4 1_555 1_555
C19_4 C17_4 1_555 1_555
C20_4 C18_4 1_555 1_555
H14_4 C18_4 1_555 1_555
N10_3 C19_4 1_555 1_555
H15_4 C19_4 1_555 1_555
H16_4 C20_4 1_555 1_555
Cu3_2 N10_3 1_555 1_555
C20_4 N10_3 1_555 1_555
N3_3 Cu3_2 1_555 1_555
N4_4 Cu3_2 1_555 1_555
N5_2 Cu3_2 1_555 1_555
C6_5 N3_3 1_555 1_555
C7_5 N3_3 1_555 1_555
C9_5 C6_5 1_555 1_555
H5_5 C6_5 1_555 1_555
H6_5 C7_5 1_555 1_555
H7_5 C9_5 1_555 1_555
C11_3 H9_3 1_555 1_555
C14_3 C11_3 1_555 1_555
N4_4 C14_3 1_555 1_555
H11_3 C14_3 1_555 1_555
H12_3 C15_3 1_555 1_555
C15_3 N4_4 1_555 1_555
C16_5 N9_5 1_555 1_555
C17_5 C16_5 1_555 1_555
C18_5 C16_5 1_555 1_555
H13_5 C17_5 1_555 1_555
C19_5 C17_5 1_555 1_555
C20_5 C18_5 1_555 1_555
H14_5 C18_5 1_555 1_555
N5_2 C19_5 1_555 1_555
H15_5 C19_5 1_555 1_555
H16_5 C20_5 1_555 1_555
C20_5 N5_2 1_555 1_555

#END
