
###############################################################################
#
# This file contains modified crystal structure data generated from the
# MOF subset of the Cambridge Structural Database (CSD) v543 
# hosted by the Cambridge Crystallographic Data Centre (CCDC).
#
# This work is licensed under the Creative Commons
# Attribution-NonCommercial-ShareAlike 4.0 International License.
# To view a copy of this license, visit
# http://creativecommons.org/licenses/by-nc-sa/4.0/
# or send a letter to
# Creative Commons, PO Box 1866, Mountain View, CA 94042, USA.
#
# CIF created using the CSD Python API on 29 September 2022
# The structure has been converted into the P1 space group
# The structure has a 3D framework
# The original CSD entry XEGJUQ is in the monoclinic crystal system
# The framework has been calculated to contain at least 10.0% void space
# The void calculation uses a probe of radius 1.32A, grid spacing 0.4
#
###############################################################################

data_XEGJUQ
_chemical_formula_moiety         '(C216 H160 Gd8 N64 O158)n'
_symmetry_cell_setting           triclinic
_symmetry_space_group_name_H-M   'P 1'
_symmetry_Int_Tables_number      1
_space_group_name_Hall           'P 1'
loop_
_symmetry_equiv_pos_site_id
_symmetry_equiv_pos_as_xyz
1 x,y,z
_cell_length_a                   13.307(6)
_cell_length_b                   30.217(5)
_cell_length_c                   23.947(7)
_cell_angle_alpha                90
_cell_angle_beta                 98.155(5)
_cell_angle_gamma                90
_cell_volume                     9531.66
loop_
_atom_site_label
_atom_site_type_symbol
_atom_site_fract_x
_atom_site_fract_y
_atom_site_fract_z
Gd1 Gd 0.14519(5) 0.22873(2) 0.27035(3)
O1 O 0.0830(8) 0.2248(3) 0.3617(4)
O13 O 0.2619(8) 0.6739(3) 0.2784(4)
O14 O 0.2518(8) 0.6661(3) 0.1862(5)
O15 O 0.1014(7) 0.3043(3) 0.2736(4)
O17 O 0.0962(16) 0.5619(5) 0.3800(7)
O18 O 0.0646(13) 0.4980(4) 0.3482(6)
O19 O 0.1634(15) 0.4678(5) 0.1509(7)
O20 O 0.1484(19) 0.5227(7) 0.1046(9)
O21 O 0.2993(15) 0.4865(5) 0.3031(14)
O22 O 0.3416(11) 0.4216(5) 0.3081(8)
O25 O 0.0437(8) 0.1632(3) 0.2574(5)
O29 O 0.1232(14) 0.0203(6) 0.3378(9)
O37 O 0.2760(9) 0.2613(3) 0.3335(6)
O38 O 0.2572(9) 0.2662(4) 0.2149(5)
N5 N 0.0972(14) 0.5343(6) 0.3442(7)
N6 N 0.1593(14) 0.5067(6) 0.1484(8)
N7 N 0.2780(14) 0.4491(5) 0.2988(9)
N13 N 0.3532(11) 0.2940(6) 0.4112(7)
N14 N 0.3673(15) 0.3184(6) 0.1995(7)
H2 H 0.0094 0.2025 0.4507
C15 C 0.2374(11) 0.6525(4) 0.2335(7)
C16 C 0.1977(11) 0.6072(4) 0.2383(6)
C17 C 0.1652(12) 0.5913(5) 0.2873(7)
H5 H 0.1654 0.6098 0.3183
C18 C 0.1320(12) 0.5470(5) 0.2897(7)
C19 C 0.1330(12) 0.5174(5) 0.2471(7)
C20 C 0.1629(11) 0.5343(4) 0.1979(7)
C21 C 0.1940(11) 0.5780(5) 0.1940(7)
H6 H 0.2129 0.5879 0.1602
C22 C 0.1030(12) 0.4688(5) 0.2508(7)
C23 C 0.1736(13) 0.4373(5) 0.2741(8)
C24 C 0.1491(12) 0.3934(5) 0.2758(7)
H7 H 0.1969 0.3735 0.2930
C25 C 0.0556(14) 0.3785(5) 0.2527(7)
C27 C 0.0128(10) 0.4528(4) 0.2281(7)
C28 C 0.0279(12) 0.3296(4) 0.2489(7)
C31 C 0.0075(12) 0.0727(5) 0.2617(7)
H9 H 0.0726 0.0826 0.2752
C43 C 0.2996(15) 0.2627(6) 0.3840(10)
H13 H 0.2778 0.2397 0.4051
C44 C 0.3765(19) 0.2948(9) 0.4731(10)
H14 H 0.3297 0.2760 0.4889
H15 H 0.3706 0.3245 0.4864
H16 H 0.4445 0.2843 0.4844
C45 C 0.3903(19) 0.3312(6) 0.3825(10)
H17 H 0.3759 0.3267 0.3424
H18 H 0.4622 0.3340 0.3934
H19 H 0.3573 0.3578 0.3924
C46 C 0.292(2) 0.2966(10) 0.2078(9)
H20 H 0.2401 0.3174 0.2075
C47 C 0.459(3) 0.2887(11) 0.2034(14)
H21 H 0.4419 0.2599 0.2162
H22 H 0.5131 0.3010 0.2295
H23 H 0.4805 0.2861 0.1669
C48 C 0.395(3) 0.3637(9) 0.1914(13)
H24 H 0.3476 0.3828 0.2066
H25 H 0.3922 0.3694 0.1518
H26 H 0.4619 0.3690 0.2104
Gd4 Gd 0.35481(5) 0.72873(2) 0.22965(3)
O42 O 0.0352(7) 0.2380(3) 0.1851(4)
O43 O 0.2381(8) 0.1739(3) 0.2216(4)
O44 O 0.2482(8) 0.1661(3) 0.3138(5)
Gd2 Gd 0.84814(5) 0.25145(2) 0.20980(3)
O2 O 0.9540(8) 0.2420(3) 0.2961(4)
O3 O 0.4124(9) 0.2411(3) 0.6187(4)
O4 O 0.5352(7) 0.2620(3) 0.6851(4)
O5 O 0.6414(15) 0.2965(7) 0.3649(9)
O6 O 0.6462(13) 0.3111(6) 0.4477(7)
O7 O 0.9997(17) 0.1877(9) 0.5487(7)
O8 O 0.8490(14) 0.1826(6) 0.5620(6)
O9 O 0.6692(15) 0.1747(6) 0.4405(7)
O10 O 0.5173(19) 0.1884(10) 0.4418(9)
O11 O 0.9007(18) 0.2883(9) 0.5649(10)
O12 O 0.8246(15) 0.3320(7) 0.6008(8)
O16 O 0.9478(8) 0.3188(3) 0.2237(5)
O23 O 0.9377(9) 0.5215(4) 0.2048(7)
O24 O 0.8725(11) 0.4655(5) 0.1594(7)
O26 O 0.8900(8) 0.1750(3) 0.2085(4)
O31 O 0.6506(12) 0.0565(5) 0.1863(8)
O33 O 0.8309(13) 0.0186(4) 0.3496(6)
O39 O 0.7333(11) 0.2141(4) 0.2621(6)
O40 O 0.7193(10) 0.2196(4) 0.1461(7)
N1 N 0.6774(13) 0.2912(6) 0.4114(6)
N2 N 0.9105(17) 0.1956(7) 0.5344(7)
N3 N 0.6038(19) 0.1919(8) 0.4594(8)
N4 N 0.8237(13) 0.3002(6) 0.5762(7)
N8 N 0.9349(11) 0.4819(5) 0.1962(8)
N10 N 0.7141(13) 0.0268(5) 0.2032(8)
N15 N 0.618(2) 0.1679(9) 0.2864(12)
N16 N 0.6427(14) 0.1905(8) 0.0635(10)
C1 C 0.9932(14) 0.2342(4) 0.3474(6)
C2 C 0.9247(12) 0.2388(4) 0.3911(6)
C3 C 0.8370(11) 0.2627(5) 0.3809(6)
H1 H 0.8200 0.2774 0.3467
C4 C 0.7719(12) 0.2650(4) 0.4229(6)
C5 C 0.7953(13) 0.2437(5) 0.4741(6)
C6 C 0.8823(13) 0.2201(6) 0.4816(6)
C7 C 0.9487(13) 0.2180(5) 0.4425(6)
C8 C 0.7218(12) 0.2455(6) 0.5180(6)
C9 C 0.6294(14) 0.2217(6) 0.5103(7)
C10 C 0.5582(13) 0.2228(6) 0.5459(7)
H3 H 0.4988 0.2063 0.5384
C11 C 0.5770(11) 0.2496(5) 0.5942(6)
C12 C 0.6649(11) 0.2748(5) 0.6030(6)
H4 H 0.6779 0.2932 0.6343
C13 C 0.7337(11) 0.2722(5) 0.5641(5)
C14 C 0.5046(13) 0.2507(5) 0.6346(6)
C26 C 0.9872(11) 0.4088(4) 0.2279(7)
H8 H 0.9234 0.3996 0.2109
C29 C 0.9582(13) 0.1508(4) 0.2326(6)
C30 C 0.9353(11) 0.1020(4) 0.2361(7)
C32 C 0.9833(12) 0.0296(4) 0.2669(7)
C33 C 0.8886(13) 0.0107(5) 0.2493(8)
C34 C 0.8191(13) 0.0419(5) 0.2247(7)
C35 C 0.8406(12) 0.0866(5) 0.2181(7)
H10 H 0.7903 0.1057 0.2014
C49 C 0.702(3) 0.1849(9) 0.2824(11)
H27 H 0.7543 0.1683 0.3022
C50 C 0.528(3) 0.1930(11) 0.2921(17)
H28 H 0.5470 0.2218 0.3072
H29 H 0.4895 0.1778 0.3171
H30 H 0.4877 0.1962 0.2558
C51 C 0.606(3) 0.1248(9) 0.310(2)
H31 H 0.5692 0.1275 0.3415
H32 H 0.6711 0.1120 0.3221
H33 H 0.5684 0.1062 0.2818
C52 C 0.6959(19) 0.2228(8) 0.0976(13)
H34 H 0.7137 0.2486 0.0803
C53 C 0.620(2) 0.1462(9) 0.0899(13)
H35 H 0.6458 0.1226 0.0692
H36 H 0.5481 0.1429 0.0887
H37 H 0.6523 0.1454 0.1284
Gd3 Gd 0.64519(5) 0.27127(2) 0.77035(3)
Gd5 Gd 0.34814(5) 0.24855(2) 0.70980(3)
O41 O 0.9124(9) 0.2589(3) 0.1187(4)
O45 O 0.7533(8) 0.3057(3) 0.2578(5)
O46 O 0.7480(9) 0.3164(3) 0.1676(4)
O27 O 0.7467(8) 0.8057(3) 0.2422(5)
O28 O 0.7520(9) 0.8164(3) 0.3324(4)
O32 O 0.6896(11) 0.9887(4) 0.2067(8)
O34 O 0.8500(15) 0.9643(5) 0.4048(7)
O35 O 0.9155(15) 0.9774(4) 0.1521(6)
O36 O 0.9216(17) 0.9097(5) 0.1376(7)
N11 N 0.8413(12) 0.9793(5) 0.3582(7)
N12 N 0.8976(15) 0.9409(5) 0.1643(8)
C36 C 0.8633(11) 0.9633(4) 0.2591(7)
C37 C 0.8383(11) 0.9491(4) 0.3098(6)
C38 C 0.8099(12) 0.9057(4) 0.3203(7)
H11 H 0.7937 0.8978 0.3555
C39 C 0.8065(10) 0.8753(4) 0.2779(7)
C40 C 0.8344(12) 0.8877(4) 0.2272(7)
H12 H 0.8330 0.8671 0.1982
C41 C 0.8644(13) 0.9301(5) 0.2192(7)
C42 C 0.7694(11) 0.8296(4) 0.2859(7)
Gd6 Gd 0.65186(5) 0.75145(2) 0.29020(3)
O3_2 O 0.0876(9) 0.7411(3) 0.8813(4)
H3_2 H 0.0012 0.7063 0.9616
Gd5_2 Gd 0.15186(5) 0.74855(2) 0.79020(3)
O17_2 O 0.4038(16) 0.0619(5) 0.1200(7)
O20_2 O 0.3516(19) 0.0227(7) 0.3954(9)
O23_2 O 0.5623(9) 0.0215(4) 0.2952(7)
N5_2 N 0.4028(14) 0.0343(6) 0.1558(7)
N6_2 N 0.3407(14) 0.0067(6) 0.3516(8)
C15_2 C 0.2626(11) 0.1525(4) 0.2665(7)
C16_2 C 0.3023(11) 0.1072(4) 0.2617(6)
C17_2 C 0.3348(12) 0.0913(5) 0.2127(7)
H5_2 H 0.3346 0.1098 0.1817
C18_2 C 0.3680(12) 0.0470(5) 0.2103(7)
C19_2 C 0.3670(12) 0.0174(5) 0.2529(7)
C20_2 C 0.3371(11) 0.0343(4) 0.3021(7)
C21_2 C 0.3060(11) 0.0780(5) 0.3060(7)
H6_2 H 0.2871 0.0879 0.3398
O1_2 O 0.4170(8) 0.7248(3) 0.1383(4)
O2_2 O 0.5460(8) 0.7420(3) 0.2039(4)
O5_2 O 0.8586(15) 0.7965(7) 0.1351(9)
O6_2 O 0.8538(13) 0.8111(6) 0.0523(7)
O9_2 O 0.8308(15) 0.6747(6) 0.0595(7)
O10_2 O 0.9827(19) 0.6884(10) 0.0582(9)
O15_2 O 0.3986(7) 0.8043(3) 0.2264(4)
O16_2 O 0.5522(8) 0.8188(3) 0.2763(5)
O18_2 O 0.4354(13) 0.9980(4) 0.1518(6)
O19_2 O 0.3366(15) 0.9678(5) 0.3491(7)
O21_2 O 0.2007(15) 0.9865(5) 0.1969(14)
O22_2 O 0.1584(11) 0.9216(5) 0.1919(8)
O24_2 O 0.6275(11) 0.9655(5) 0.3406(7)
O25_2 O 0.4563(8) 0.6632(3) 0.2426(5)
O26_2 O 0.6100(8) 0.6750(3) 0.2915(4)
O29_2 O 0.3768(14) 0.5203(6) 0.1622(9)
O30 O 0.4394(10) 0.4627(4) 0.2025(9)
O31_2 O 0.8494(12) 0.5565(5) 0.3137(8)
O32_2 O 0.8104(11) 0.4887(4) 0.2933(8)
O33_2 O 0.6691(13) 0.5186(4) 0.1504(6)
O34_2 O 0.6500(15) 0.4643(5) 0.0952(7)
O35_2 O 0.5845(15) 0.4774(4) 0.3479(6)
O36_2 O 0.5784(17) 0.4097(5) 0.3624(7)
O37_2 O 0.2240(9) 0.7613(3) 0.1665(6)
O38_2 O 0.2428(9) 0.7662(4) 0.2851(5)
O39_2 O 0.7667(11) 0.7141(4) 0.2379(6)
O40_2 O 0.7807(10) 0.7196(4) 0.3539(7)
N1_2 N 0.8226(13) 0.7912(6) 0.0886(6)
N3_2 N 0.8962(19) 0.6919(8) 0.0406(8)
N7_2 N 0.2220(14) 0.9491(5) 0.2012(9)
N8_2 N 0.5651(11) 0.9819(5) 0.3038(8)
N9 N 0.4382(12) 0.4994(5) 0.2021(9)
N10_2 N 0.7859(13) 0.5268(5) 0.2968(8)
N11_2 N 0.6587(12) 0.4793(5) 0.1418(7)
N12_2 N 0.6024(15) 0.4409(5) 0.3357(8)
N13_2 N 0.1468(11) 0.7940(6) 0.0888(7)
N14_2 N 0.1327(15) 0.8184(6) 0.3005(7)
N15_2 N 0.882(2) 0.6679(9) 0.2136(12)
N16_2 N 0.8573(14) 0.6905(8) 0.4365(10)
C1_2 C 0.5068(14) 0.7342(4) 0.1526(6)
C2_2 C 0.5753(12) 0.7388(4) 0.1089(6)
C3_2 C 0.6630(11) 0.7627(5) 0.1191(6)
H1_2 H 0.6800 0.7774 0.1533
C4_2 C 0.7281(12) 0.7650(4) 0.0771(6)
C5_2 C 0.7047(13) 0.7437(5) 0.0259(6)
C6_2 C 0.6177(13) 0.7201(6) 0.0184(6)
C7_2 C 0.5513(13) 0.7180(5) 0.0575(6)
H2_2 H 0.4906 0.7025 0.0493
C22_2 C 0.3970(12) 0.9688(5) 0.2492(7)
C23_2 C 0.3264(13) 0.9373(5) 0.2259(8)
C24_2 C 0.3509(12) 0.8934(5) 0.2242(7)
H7_2 H 0.3031 0.8735 0.2070
C25_2 C 0.4444(14) 0.8785(5) 0.2473(7)
C26_2 C 0.5128(11) 0.9088(4) 0.2721(7)
H8_2 H 0.5766 0.8996 0.2891
C27_2 C 0.4872(10) 0.9528(4) 0.2719(7)
C28_2 C 0.4721(12) 0.8296(4) 0.2511(7)
C29_2 C 0.5418(13) 0.6508(4) 0.2674(6)
C30_2 C 0.5647(11) 0.6020(4) 0.2639(7)
C31_2 C 0.4925(12) 0.5727(5) 0.2383(7)
H9_2 H 0.4274 0.5826 0.2248
C32_2 C 0.5167(12) 0.5296(4) 0.2331(7)
C33_2 C 0.6114(13) 0.5107(5) 0.2507(8)
C34_2 C 0.6809(13) 0.5419(5) 0.2753(7)
C35_2 C 0.6594(12) 0.5866(5) 0.2819(7)
H10_2 H 0.7097 0.6057 0.2986
C36_2 C 0.6367(11) 0.4633(4) 0.2409(7)
C37_2 C 0.6617(11) 0.4491(4) 0.1902(6)
C38_2 C 0.6901(12) 0.4057(4) 0.1797(7)
H11_2 H 0.7063 0.3978 0.1445
C39_2 C 0.6935(10) 0.3753(4) 0.2221(7)
C40_2 C 0.6656(12) 0.3877(4) 0.2728(7)
H12_2 H 0.6670 0.3671 0.3018
C41_2 C 0.6356(13) 0.4301(5) 0.2808(7)
C42_2 C 0.7306(11) 0.3296(4) 0.2141(7)
C43_2 C 0.2004(15) 0.7627(6) 0.1160(10)
H13_2 H 0.2222 0.7397 0.0949
C44_2 C 0.1235(19) 0.7948(9) 0.0269(10)
H14_2 H 0.1703 0.7760 0.0111
H15_2 H 0.1294 0.8245 0.0136
H16_2 H 0.0555 0.7843 0.0156
C45_2 C 0.1097(19) 0.8312(6) 0.1175(10)
H17_2 H 0.1241 0.8267 0.1576
H18_2 H 0.0378 0.8340 0.1066
H19_2 H 0.1427 0.8578 0.1076
C46_2 C 0.208(2) 0.7966(10) 0.2922(9)
H20_2 H 0.2599 0.8174 0.2925
C47_2 C 0.041(3) 0.7887(11) 0.2966(14)
H21_2 H 0.0581 0.7599 0.2838
H23_2 H 0.0195 0.7861 0.3331
C48_2 C 0.105(3) 0.8637(9) 0.3086(13)
H24_2 H 0.1524 0.8828 0.2934
H25_2 H 0.1078 0.8694 0.3482
H26_2 H 0.0381 0.8690 0.2896
C49_2 C 0.798(3) 0.6849(9) 0.2176(11)
H27_2 H 0.7457 0.6683 0.1978
C50_2 C 0.972(3) 0.6930(11) 0.2079(17)
H28_2 H 0.9530 0.7218 0.1928
C51_2 C 0.894(3) 0.6248(9) 0.190(2)
H31_2 H 0.9308 0.6275 0.1585
H32_2 H 0.8289 0.6120 0.1779
H33_2 H 0.9316 0.6062 0.2182
C52_2 C 0.8041(19) 0.7228(8) 0.4024(13)
H34_2 H 0.7863 0.7486 0.4197
C53_2 C 0.880(2) 0.6462(9) 0.4101(13)
H35_2 H 0.8542 0.6226 0.4308
H36_2 H 0.9519 0.6429 0.4113
H37_2 H 0.8477 0.6454 0.3716
C54 C 0.889(2) 0.6978(11) 0.5016(12)
H38 H 0.9608 0.7020 0.5095
H39 H 0.8696 0.6724 0.5217
H40 H 0.8548 0.7236 0.5132
O41_2 O 0.5876(9) 0.7589(3) 0.3813(4)
O42_2 O 0.4648(7) 0.7380(3) 0.3149(4)
O4_2 O 0.9648(7) 0.7620(3) 0.8149(4)
O7_2 O 0.5003(17) 0.6877(9) 0.9513(7)
O8_2 O 0.6510(14) 0.6826(6) 0.9380(6)
O11_2 O 0.5993(18) 0.7883(9) 0.9351(10)
O12_2 O 0.6754(15) 0.8320(7) 0.8992(8)
N2_2 N 0.5895(17) 0.6956(7) 0.9656(7)
N4_2 N 0.6763(13) 0.8002(6) 0.9238(7)
C8_2 C 0.7782(12) 0.7455(6) 0.9820(6)
C9_2 C 0.8706(14) 0.7217(6) 0.9897(7)
C10_2 C 0.9418(13) 0.7228(6) 0.9541(7)
C11_2 C 0.9230(11) 0.7496(5) 0.9058(6)
C12_2 C 0.8351(11) 0.7748(5) 0.8970(6)
H4_2 H 0.8221 0.7932 0.8657
C13_2 C 0.7663(11) 0.7722(5) 0.9359(5)
C14_2 C 0.9954(13) 0.7507(5) 0.8654(6)
Gd3_2 Gd 0.85481(5) 0.77127(2) 0.72965(3)
O27_2 O 0.2533(8) 0.1943(3) 0.7578(5)
O28_2 O 0.2480(9) 0.1836(3) 0.6676(4)
O32_3 O 0.3104(11) 0.0113(4) 0.7933(8)
O34_3 O 0.1500(15) 0.0357(5) 0.5952(7)
O35_3 O 0.0845(15) 0.0226(4) 0.8479(6)
O36_3 O 0.0784(17) 0.0903(5) 0.8624(7)
N11_3 N 0.1587(12) 0.0207(5) 0.6418(7)
N12_3 N 0.1024(15) 0.0591(5) 0.8357(8)
C36_3 C 0.1367(11) 0.0367(4) 0.7409(7)
C37_3 C 0.1617(11) 0.0509(4) 0.6902(6)
C38_3 C 0.1901(12) 0.0943(4) 0.6797(7)
H11_3 H 0.2063 0.1022 0.6445
C39_3 C 0.1935(10) 0.1247(4) 0.7221(7)
C40_3 C 0.1656(12) 0.1123(4) 0.7728(7)
H12_3 H 0.1670 0.1329 0.8018
C41_3 C 0.1356(13) 0.0699(5) 0.7808(7)
C42_3 C 0.2306(11) 0.1704(4) 0.7141(7)
O2_3 O 0.0460(8) 0.7580(3) 0.7039(4)
O5_3 O 0.3586(15) 0.7035(7) 0.6351(9)
O6_3 O 0.3538(13) 0.6889(6) 0.5523(7)
O7_3 O 0.0003(17) 0.8123(9) 0.4513(7)
O8_3 O 0.1510(14) 0.8174(6) 0.4380(6)
O9_3 O 0.3308(15) 0.8253(6) 0.5595(7)
O10_3 O 0.4827(19) 0.8116(10) 0.5582(9)
O11_3 O 0.0993(18) 0.7117(9) 0.4351(10)
O12_3 O 0.1754(15) 0.6680(7) 0.3992(8)
O16_3 O 0.0522(8) 0.6812(3) 0.7763(5)
O23_3 O 0.0623(9) 0.4785(4) 0.7952(7)
O24_3 O 0.1275(11) 0.5345(5) 0.8406(7)
O26_3 O 0.1100(8) 0.8250(3) 0.7915(4)
O31_3 O 0.3494(12) 0.9435(5) 0.8137(8)
O33_3 O 0.1691(13) 0.9814(4) 0.6504(6)
O39_3 O 0.2667(11) 0.7859(4) 0.7379(6)
O40_3 O 0.2807(10) 0.7804(4) 0.8539(7)
N1_3 N 0.3226(13) 0.7088(6) 0.5886(6)
N2_3 N 0.0895(17) 0.8044(7) 0.4656(7)
N3_3 N 0.3962(19) 0.8081(8) 0.5406(8)
N4_3 N 0.1763(13) 0.6998(6) 0.4238(7)
N8_3 N 0.0651(11) 0.5181(5) 0.8038(8)
N10_3 N 0.2859(13) 0.9732(5) 0.7968(8)
N15_3 N 0.382(2) 0.8321(9) 0.7136(12)
N16_3 N 0.3573(14) 0.8095(8) 0.9365(10)
C1_3 C 0.0068(14) 0.7658(4) 0.6526(6)
C2_3 C 0.0753(12) 0.7612(4) 0.6089(6)
C3_3 C 0.1630(11) 0.7373(5) 0.6191(6)
H1_3 H 0.1800 0.7226 0.6533
C4_3 C 0.2281(12) 0.7350(4) 0.5771(6)
C5_3 C 0.2047(13) 0.7563(5) 0.5259(6)
C6_3 C 0.1177(13) 0.7799(6) 0.5184(6)
C7_3 C 0.0513(13) 0.7820(5) 0.5575(6)
C8_3 C 0.2782(12) 0.7545(6) 0.4820(6)
C9_3 C 0.3706(14) 0.7783(6) 0.4897(7)
C10_3 C 0.4418(13) 0.7772(6) 0.4541(7)
H3_3 H 0.5012 0.7937 0.4616
C11_3 C 0.4230(11) 0.7504(5) 0.4058(6)
C12_3 C 0.3351(11) 0.7252(5) 0.3970(6)
H4_3 H 0.3221 0.7068 0.3657
C13_3 C 0.2663(11) 0.7278(5) 0.4359(5)
C14_3 C 0.4954(13) 0.7493(5) 0.3654(6)
C26_3 C 0.0128(11) 0.5912(4) 0.7721(7)
H8_3 H 0.0766 0.6004 0.7891
C29_3 C 0.0418(13) 0.8492(4) 0.7674(6)
C30_3 C 0.0647(11) 0.8980(4) 0.7639(7)
C32_3 C 0.0167(12) 0.9704(4) 0.7331(7)
C33_3 C 0.1114(13) 0.9893(5) 0.7507(8)
C34_3 C 0.1809(13) 0.9581(5) 0.7753(7)
C35_3 C 0.1594(12) 0.9134(5) 0.7819(7)
H10_3 H 0.2097 0.8943 0.7986
C49_3 C 0.298(3) 0.8151(9) 0.7176(11)
H27_3 H 0.2457 0.8317 0.6978
C50_3 C 0.472(3) 0.8070(11) 0.7079(17)
H28_3 H 0.4530 0.7782 0.6928
H29_2 H 0.5105 0.8222 0.6829
H30_2 H 0.5123 0.8038 0.7442
C51_3 C 0.394(3) 0.8752(9) 0.690(2)
H31_3 H 0.4308 0.8725 0.6585
H32_3 H 0.3289 0.8880 0.6779
H33_3 H 0.4316 0.8938 0.7182
C52_3 C 0.3041(19) 0.7772(8) 0.9024(13)
H34_3 H 0.2863 0.7514 0.9197
C53_3 C 0.380(2) 0.8538(9) 0.9101(13)
H35_3 H 0.3542 0.8774 0.9308
H36_3 H 0.4519 0.8571 0.9113
H37_3 H 0.3477 0.8546 0.8716
O45_2 O 0.2467(8) 0.6943(3) 0.7422(5)
O46_2 O 0.2520(9) 0.6836(3) 0.8324(4)
O1_3 O 0.9170(8) 0.7752(3) 0.6383(4)
O13_2 O 0.7381(8) 0.3261(3) 0.7216(4)
O14_2 O 0.7482(8) 0.3339(3) 0.8138(5)
O15_3 O 0.8986(7) 0.6957(3) 0.7264(4)
O17_3 O 0.9038(16) 0.4381(5) 0.6200(7)
O18_3 O 0.9354(13) 0.5020(4) 0.6518(6)
O19_3 O 0.8366(15) 0.5322(5) 0.8491(7)
O20_3 O 0.8516(19) 0.4773(7) 0.8954(9)
O21_3 O 0.7007(15) 0.5135(5) 0.6969(14)
O22_3 O 0.6584(11) 0.5784(5) 0.6919(8)
O25_3 O 0.9563(8) 0.8368(3) 0.7426(5)
O29_3 O 0.8768(14) 0.9797(6) 0.6622(9)
O37_3 O 0.7240(9) 0.7387(3) 0.6665(6)
O38_3 O 0.7428(9) 0.7338(4) 0.7851(5)
N5_3 N 0.9028(14) 0.4657(6) 0.6558(7)
N6_3 N 0.8407(14) 0.4933(6) 0.8516(8)
N7_3 N 0.7220(14) 0.5509(5) 0.7012(9)
N13_3 N 0.6468(11) 0.7060(6) 0.5888(7)
N14_3 N 0.6327(15) 0.6816(6) 0.8005(7)
H2_3 H 0.9906 0.7975 0.5493
C15_3 C 0.7626(11) 0.3475(4) 0.7665(7)
C16_3 C 0.8023(11) 0.3928(4) 0.7617(6)
C17_3 C 0.8348(12) 0.4087(5) 0.7127(7)
H5_3 H 0.8346 0.3902 0.6817
C18_3 C 0.8680(12) 0.4530(5) 0.7103(7)
C19_3 C 0.8670(12) 0.4826(5) 0.7529(7)
C20_3 C 0.8371(11) 0.4657(4) 0.8021(7)
C21_3 C 0.8060(11) 0.4220(5) 0.8060(7)
H6_3 H 0.7871 0.4121 0.8398
C22_3 C 0.8970(12) 0.5312(5) 0.7492(7)
C23_3 C 0.8264(13) 0.5627(5) 0.7259(8)
C24_3 C 0.8509(12) 0.6066(5) 0.7242(7)
H7_3 H 0.8031 0.6265 0.7070
C25_3 C 0.9444(14) 0.6215(5) 0.7473(7)
C27_3 C 0.9872(10) 0.5472(4) 0.7719(7)
C28_3 C 0.9721(12) 0.6704(4) 0.7511(7)
C31_3 C 0.9925(12) 0.9273(5) 0.7383(7)
H9_3 H 0.9274 0.9174 0.7248
C43_3 C 0.7004(15) 0.7373(6) 0.6160(10)
H13_3 H 0.7222 0.7603 0.5949
C44_3 C 0.6235(19) 0.7052(9) 0.5269(10)
H14_3 H 0.6703 0.7240 0.5111
H15_3 H 0.6294 0.6755 0.5136
H16_3 H 0.5555 0.7157 0.5156
C45_3 C 0.6097(19) 0.6688(6) 0.6175(10)
H17_3 H 0.6241 0.6733 0.6576
H18_3 H 0.5378 0.6660 0.6066
H19_3 H 0.6427 0.6422 0.6076
C46_3 C 0.708(2) 0.7034(10) 0.7922(9)
H20_3 H 0.7599 0.6826 0.7925
C47_3 C 0.541(3) 0.7113(11) 0.7966(14)
H21_3 H 0.5581 0.7401 0.7838
H22_2 H 0.4869 0.6990 0.7705
H23_3 H 0.5195 0.7139 0.8331
C48_3 C 0.605(3) 0.6363(9) 0.8086(13)
H24_3 H 0.6524 0.6172 0.7934
H25_3 H 0.6078 0.6306 0.8482
H26_3 H 0.5381 0.6310 0.7896
O43_2 O 0.7619(8) 0.8261(3) 0.7784(4)
O44_2 O 0.7518(8) 0.8339(3) 0.6862(5)
O7_4 O 0.4997(17) 0.3123(9) 0.0487(7)
O8_4 O 0.3490(14) 0.3174(6) 0.0620(6)
O11_4 O 0.4007(18) 0.2117(9) 0.0649(10)
O12_4 O 0.3246(15) 0.1680(7) 0.1008(8)
N2_4 N 0.4105(17) 0.3044(7) 0.0344(7)
N4_4 N 0.3237(13) 0.1998(6) 0.0762(7)
C8_4 C 0.2218(12) 0.2545(6) 0.0180(6)
C9_4 C 0.1294(14) 0.2783(6) 0.0103(7)
C10_4 C 0.0582(13) 0.2772(6) 0.0459(7)
C11_4 C 0.0770(11) 0.2504(5) 0.0942(6)
C12_4 C 0.1649(11) 0.2252(5) 0.1030(6)
H4_4 H 0.1779 0.2068 0.1343
C13_4 C 0.2337(11) 0.2278(5) 0.0641(5)
C14_4 C 0.0046(13) 0.2493(5) 0.1346(6)
O1_4 O 0.5830(8) 0.2752(3) 0.8617(4)
O2_4 O 0.4540(8) 0.2580(3) 0.7961(4)
O5_4 O 0.1414(15) 0.2035(7) 0.8649(9)
O6_4 O 0.1462(13) 0.1889(6) 0.9477(7)
O9_4 O 0.1692(15) 0.3253(6) 0.9405(7)
O10_4 O 0.0173(19) 0.3116(10) 0.9418(9)
O15_4 O 0.6014(7) 0.1957(3) 0.7736(4)
O16_4 O 0.4478(8) 0.1812(3) 0.7237(5)
O18_4 O 0.5646(13) 0.0020(4) 0.8482(6)
O19_4 O 0.6634(15) 0.0322(5) 0.6509(7)
O21_4 O 0.7993(15) 0.0135(5) 0.8031(14)
O22_4 O 0.8416(11) 0.0784(5) 0.8081(8)
O24_4 O 0.3725(11) 0.0345(5) 0.6594(7)
O25_4 O 0.5437(8) 0.3368(3) 0.7574(5)
O26_4 O 0.3900(8) 0.3250(3) 0.7085(4)
O29_4 O 0.6232(14) 0.4797(6) 0.8378(9)
O30_2 O 0.5606(10) 0.5373(4) 0.7975(9)
O31_4 O 0.1506(12) 0.4435(5) 0.6863(8)
O32_4 O 0.1896(11) 0.5113(4) 0.7067(8)
O33_4 O 0.3309(13) 0.4814(4) 0.8496(6)
O34_4 O 0.3500(15) 0.5357(5) 0.9048(7)
O35_4 O 0.4155(15) 0.5226(4) 0.6521(6)
O36_4 O 0.4216(17) 0.5903(5) 0.6376(7)
O37_4 O 0.7760(9) 0.2387(3) 0.8335(6)
O38_4 O 0.7572(9) 0.2338(4) 0.7149(5)
O39_4 O 0.2333(11) 0.2859(4) 0.7621(6)
O40_4 O 0.2193(10) 0.2804(4) 0.6461(7)
N1_4 N 0.1774(13) 0.2088(6) 0.9114(6)
N3_4 N 0.1038(19) 0.3081(8) 0.9594(8)
N7_4 N 0.7780(14) 0.0509(5) 0.7988(9)
N8_4 N 0.4349(11) 0.0181(5) 0.6962(8)
N9_2 N 0.5618(12) 0.5006(5) 0.7979(9)
N10_4 N 0.2141(13) 0.4732(5) 0.7032(8)
N11_4 N 0.3413(12) 0.5207(5) 0.8582(7)
N12_4 N 0.3976(15) 0.5591(5) 0.6643(8)
N13_4 N 0.8532(11) 0.2060(6) 0.9112(7)
N14_4 N 0.8673(15) 0.1816(6) 0.6995(7)
N15_4 N 0.118(2) 0.3321(9) 0.7864(12)
N16_4 N 0.1427(14) 0.3095(8) 0.5635(10)
C1_4 C 0.4932(14) 0.2658(4) 0.8474(6)
C2_4 C 0.4247(12) 0.2612(4) 0.8911(6)
C3_4 C 0.3370(11) 0.2373(5) 0.8809(6)
H1_4 H 0.3200 0.2226 0.8467
C4_4 C 0.2719(12) 0.2350(4) 0.9229(6)
C5_4 C 0.2953(13) 0.2563(5) 0.9741(6)
C6_4 C 0.3823(13) 0.2799(6) 0.9816(6)
C7_4 C 0.4487(13) 0.2820(5) 0.9425(6)
H2_4 H 0.5094 0.2975 0.9507
C22_4 C 0.6030(12) 0.0312(5) 0.7508(7)
C23_4 C 0.6736(13) 0.0627(5) 0.7741(8)
C24_4 C 0.6491(12) 0.1066(5) 0.7758(7)
H7_4 H 0.6969 0.1265 0.7930
C25_4 C 0.5556(14) 0.1215(5) 0.7527(7)
C26_4 C 0.4872(11) 0.0912(4) 0.7279(7)
H8_4 H 0.4234 0.1004 0.7109
C27_4 C 0.5128(10) 0.0472(4) 0.7281(7)
C28_4 C 0.5279(12) 0.1704(4) 0.7489(7)
C29_4 C 0.4582(13) 0.3492(4) 0.7326(6)
C30_4 C 0.4353(11) 0.3980(4) 0.7361(7)
C31_4 C 0.5075(12) 0.4273(5) 0.7617(7)
H9_4 H 0.5726 0.4174 0.7752
C32_4 C 0.4833(12) 0.4704(4) 0.7669(7)
C33_4 C 0.3886(13) 0.4893(5) 0.7493(8)
C34_4 C 0.3191(13) 0.4581(5) 0.7247(7)
C35_4 C 0.3406(12) 0.4134(5) 0.7181(7)
H10_4 H 0.2903 0.3943 0.7014
C36_4 C 0.3633(11) 0.5367(4) 0.7591(7)
C37_4 C 0.3383(11) 0.5509(4) 0.8098(6)
C38_4 C 0.3099(12) 0.5943(4) 0.8203(7)
H11_4 H 0.2937 0.6022 0.8555
C39_4 C 0.3065(10) 0.6247(4) 0.7779(7)
C40_4 C 0.3344(12) 0.6123(4) 0.7272(7)
H12_4 H 0.3330 0.6329 0.6982
C41_4 C 0.3644(13) 0.5699(5) 0.7192(7)
C42_4 C 0.2694(11) 0.6704(4) 0.7859(7)
C43_4 C 0.7996(15) 0.2373(6) 0.8840(10)
H13_4 H 0.7778 0.2603 0.9051
C44_4 C 0.8765(19) 0.2052(9) 0.9731(10)
H14_4 H 0.8297 0.2240 0.9889
H15_4 H 0.8706 0.1755 0.9864
H16_4 H 0.9445 0.2157 0.9844
C45_4 C 0.8903(19) 0.1688(6) 0.8825(10)
H17_4 H 0.8759 0.1733 0.8424
H18_4 H 0.9622 0.1660 0.8934
H19_4 H 0.8573 0.1422 0.8924
C46_4 C 0.792(2) 0.2034(10) 0.7078(9)
H20_4 H 0.7401 0.1826 0.7075
C47_4 C 0.959(3) 0.2113(11) 0.7034(14)
H21_4 H 0.9419 0.2401 0.7162
H23_4 H 0.9805 0.2139 0.6669
C48_4 C 0.895(3) 0.1363(9) 0.6914(13)
H24_4 H 0.8476 0.1172 0.7066
H25_4 H 0.8922 0.1306 0.6518
H26_4 H 0.9619 0.1310 0.7104
C49_4 C 0.202(3) 0.3151(9) 0.7824(11)
H27_4 H 0.2543 0.3317 0.8022
C50_4 C 0.028(3) 0.3070(11) 0.7921(17)
H28_4 H 0.0470 0.2782 0.8072
C51_4 C 0.106(3) 0.3752(9) 0.810(2)
H31_4 H 0.0692 0.3725 0.8415
H32_4 H 0.1711 0.3880 0.8221
H33_4 H 0.0684 0.3938 0.7818
C52_4 C 0.1959(19) 0.2772(8) 0.5976(13)
H34_4 H 0.2137 0.2514 0.5803
C53_4 C 0.120(2) 0.3538(9) 0.5899(13)
H35_4 H 0.1458 0.3774 0.5692
H36_4 H 0.0481 0.3571 0.5887
H37_4 H 0.1523 0.3546 0.6284
C54_2 C 0.111(2) 0.3022(11) 0.4984(12)
H38_2 H 0.0392 0.2980 0.4905
H39_2 H 0.1304 0.3276 0.4783
H40_2 H 0.1452 0.2764 0.4868
O17_4 O 0.5962(16) 0.9381(5) 0.8800(7)
O20_4 O 0.6484(19) 0.9773(7) 0.6046(9)
O23_4 O 0.4377(9) 0.9785(4) 0.7048(7)
N5_4 N 0.5972(14) 0.9657(6) 0.8442(7)
N6_4 N 0.6593(14) 0.9933(6) 0.6484(8)
C15_4 C 0.7374(11) 0.8475(4) 0.7335(7)
C16_4 C 0.6977(11) 0.8928(4) 0.7383(6)
C17_4 C 0.6652(12) 0.9087(5) 0.7873(7)
H5_4 H 0.6654 0.8902 0.8183
C18_4 C 0.6320(12) 0.9530(5) 0.7897(7)
C19_4 C 0.6330(12) 0.9826(5) 0.7471(7)
C20_4 C 0.6629(11) 0.9657(4) 0.6979(7)
C21_4 C 0.6940(11) 0.9220(5) 0.6940(7)
H6_4 H 0.7129 0.9121 0.6602
H3_4 H 0.9988 0.2937 0.0384
O30_3 O 0.0606(10) 0.9627(4) 0.2975(9)
N9_3 N 0.0618(12) 0.9994(5) 0.2979(9)
C54_3 C 0.611(2) 0.1978(11) 0.9984(12)
H38_3 H 0.5392 0.2020 0.9905
H39_3 H 0.6304 0.1724 0.9783
H40_3 H 0.6452 0.2236 0.9868
H29_3 H 0.0105 0.6778 0.1829
H30_3 H 0.0123 0.6962 0.2442
H22_3 H 0.9869 0.8010 0.2705
C54_4 C 0.389(2) 0.8022(11) 0.0016(12)
H38_4 H 0.4608 0.7980 0.0095
H39_4 H 0.3696 0.8276 0.0217
H40_4 H 0.3548 0.7764 0.0132
O30_4 O 0.9394(10) 0.0373(4) 0.7025(9)
N9_4 N 0.9382(12) 0.0006(5) 0.7021(9)
H22_4 H 0.0131 0.1990 0.7295
H29_4 H 0.9895 0.3222 0.8171
H30_4 H 0.9877 0.3038 0.7558
loop_
_geom_bond_atom_site_label_1
_geom_bond_atom_site_label_2
_geom_bond_site_symmetry_1
_geom_bond_site_symmetry_2
Gd1 O1 1_555 1_555
O13 C15 1_555 1_555
O14 C15 1_555 1_555
O15 Gd1 1_555 1_555
O17 N5 1_555 1_555
O18 N5 1_555 1_555
O19 N6 1_555 1_555
O20 N6 1_555 1_555
O21 N7 1_555 1_555
O22 N7 1_555 1_555
O25 Gd1 1_555 1_555
O37 Gd1 1_555 1_555
O38 Gd1 1_555 1_555
N5 C18 1_555 1_555
N6 C20 1_555 1_555
N7 C23 1_555 1_555
N13 C43 1_555 1_555
N14 C46 1_555 1_555
C15 C16 1_555 1_555
C16 C17 1_555 1_555
C17 H5 1_555 1_555
C18 C17 1_555 1_555
C19 C18 1_555 1_555
C20 C19 1_555 1_555
C21 C16 1_555 1_555
H6 C21 1_555 1_555
C22 C19 1_555 1_555
C23 C22 1_555 1_555
C24 C23 1_555 1_555
H7 C24 1_555 1_555
C25 C24 1_555 1_555
C27 C22 1_555 1_555
C28 O15 1_555 1_555
H9 C31 1_555 1_555
C43 O37 1_555 1_555
H13 C43 1_555 1_555
C44 N13 1_555 1_555
H14 C44 1_555 1_555
H15 C44 1_555 1_555
H16 C44 1_555 1_555
C45 N13 1_555 1_555
H17 C45 1_555 1_555
H18 C45 1_555 1_555
H19 C45 1_555 1_555
C46 O38 1_555 1_555
H20 C46 1_555 1_555
C47 N14 1_555 1_555
H21 C47 1_555 1_555
H22 C47 1_555 1_555
H23 C47 1_555 1_555
C48 N14 1_555 1_555
H24 C48 1_555 1_555
H25 C48 1_555 1_555
H26 C48 1_555 1_555
Gd4 O13 1_555 1_555
O42 Gd1 1_555 1_555
O43 Gd1 1_555 1_555
O44 Gd1 1_555 1_555
O14 Gd4 1_555 1_555
C20 C21 1_555 1_555
C25 C28 1_555 1_555
Gd2 O2 1_555 1_555
O3 C14 1_555 1_555
O4 C14 1_555 1_555
O5 N1 1_555 1_555
O6 N1 1_555 1_555
O7 N2 1_555 1_555
O8 N2 1_555 1_555
O9 N3 1_555 1_555
O10 N3 1_555 1_555
O11 N4 1_555 1_555
O12 N4 1_555 1_555
O16 Gd2 1_555 1_555
O23 N8 1_555 1_555
O24 N8 1_555 1_555
O26 Gd2 1_555 1_555
O31 N10 1_555 1_555
O39 Gd2 1_555 1_555
O40 Gd2 1_555 1_555
N1 C4 1_555 1_555
N2 C6 1_555 1_555
N3 C9 1_555 1_555
N4 C13 1_555 1_555
N10 C34 1_555 1_555
N15 C49 1_555 1_555
N16 C52 1_555 1_555
C1 O2 1_555 1_555
C2 C1 1_555 1_555
C3 C2 1_555 1_555
H1 C3 1_555 1_555
C4 C3 1_555 1_555
C5 C4 1_555 1_555
C6 C5 1_555 1_555
C7 C2 1_555 1_555
C8 C5 1_555 1_555
C9 C8 1_555 1_555
C10 C9 1_555 1_555
H3 C10 1_555 1_555
C11 C10 1_555 1_555
C12 C11 1_555 1_555
H4 C12 1_555 1_555
C13 C8 1_555 1_555
C14 C11 1_555 1_555
H8 C26 1_555 1_555
C30 C29 1_555 1_555
C33 C32 1_555 1_555
C34 C33 1_555 1_555
C35 C30 1_555 1_555
H10 C35 1_555 1_555
C49 O39 1_555 1_555
H27 C49 1_555 1_555
C50 N15 1_555 1_555
H28 C50 1_555 1_555
H29 C50 1_555 1_555
H30 C50 1_555 1_555
C51 N15 1_555 1_555
H31 C51 1_555 1_555
H32 C51 1_555 1_555
H33 C51 1_555 1_555
C52 O40 1_555 1_555
H34 C52 1_555 1_555
C53 N16 1_555 1_555
H35 C53 1_555 1_555
H36 C53 1_555 1_555
H37 C53 1_555 1_555
Gd3 O4 1_555 1_555
Gd5 O3 1_555 1_555
O41 Gd2 1_555 1_555
O45 Gd2 1_555 1_555
O46 Gd2 1_555 1_555
O4 Gd5 1_555 1_555
O26 C29 1_555 1_555
C6 C7 1_555 1_555
C12 C13 1_555 1_555
C34 C35 1_555 1_555
O27 C42 1_555 1_555
O28 C42 1_555 1_555
O34 N11 1_555 1_555
O35 N12 1_555 1_555
O36 N12 1_555 1_555
N11 C37 1_555 1_555
N12 C41 1_555 1_555
C37 C36 1_555 1_555
C38 C37 1_555 1_555
H11 C38 1_555 1_555
C39 C38 1_555 1_555
C40 C39 1_555 1_555
H12 C40 1_555 1_555
C41 C36 1_555 1_555
C42 C39 1_555 1_555
Gd6 O27 1_555 1_555
O28 Gd6 1_555 1_555
C40 C41 1_555 1_555
Gd5_2 O3_2 1_555 1_555
O43 C15_2 1_555 1_555
O44 C15_2 1_555 1_555
O17_2 N5_2 1_555 1_555
O20_2 N6_2 1_555 1_555
N5_2 C18_2 1_555 1_555
N6_2 C20_2 1_555 1_555
C15_2 C16_2 1_555 1_555
C16_2 C17_2 1_555 1_555
C17_2 H5_2 1_555 1_555
C18_2 C17_2 1_555 1_555
C19_2 C18_2 1_555 1_555
C20_2 C19_2 1_555 1_555
C21_2 C16_2 1_555 1_555
H6_2 C21_2 1_555 1_555
C20_2 C21_2 1_555 1_555
Gd4 O1_2 1_555 1_555
Gd6 O2_2 1_555 1_555
O1_2 C1_2 1_555 1_555
O2_2 Gd4 1_555 1_555
O5_2 N1_2 1_555 1_555
O6_2 N1_2 1_555 1_555
O9_2 N3_2 1_555 1_555
O10_2 N3_2 1_555 1_555
O15_2 Gd4 1_555 1_555
O16_2 Gd6 1_555 1_555
O21_2 N7_2 1_555 1_555
O22_2 N7_2 1_555 1_555
O24_2 N8_2 1_555 1_555
O25_2 Gd4 1_555 1_555
O26_2 Gd6 1_555 1_555
O45 C42_2 1_555 1_555
O46 C42_2 1_555 1_555
O29_2 N9 1_555 1_555
O30 N9 1_555 1_555
O31_2 N10_2 1_555 1_555
O32_2 N10_2 1_555 1_555
O33_2 N11_2 1_555 1_555
O34_2 N11_2 1_555 1_555
O35_2 N12_2 1_555 1_555
O36_2 N12_2 1_555 1_555
O37_2 Gd4 1_555 1_555
O38_2 Gd4 1_555 1_555
O39_2 Gd6 1_555 1_555
O40_2 Gd6 1_555 1_555
N1_2 C4_2 1_555 1_555
N7_2 C23_2 1_555 1_555
N8_2 C27_2 1_555 1_555
N9 C32_2 1_555 1_555
N10_2 C34_2 1_555 1_555
N11_2 C37_2 1_555 1_555
N12_2 C41_2 1_555 1_555
N13_2 C43_2 1_555 1_555
N14_2 C46_2 1_555 1_555
N15_2 C49_2 1_555 1_555
N16_2 C52_2 1_555 1_555
C1_2 O2_2 1_555 1_555
C2_2 C1_2 1_555 1_555
C3_2 C2_2 1_555 1_555
H1_2 C3_2 1_555 1_555
C4_2 C3_2 1_555 1_555
C5_2 C4_2 1_555 1_555
C6_2 C5_2 1_555 1_555
C7_2 C2_2 1_555 1_555
H2_2 C7_2 1_555 1_555
C23_2 C22_2 1_555 1_555
C24_2 C23_2 1_555 1_555
H7_2 C24_2 1_555 1_555
C25_2 C24_2 1_555 1_555
C26_2 C25_2 1_555 1_555
H8_2 C26_2 1_555 1_555
C27_2 C22_2 1_555 1_555
C28_2 O15_2 1_555 1_555
C29_2 O25_2 1_555 1_555
C30_2 C29_2 1_555 1_555
C31_2 C30_2 1_555 1_555
H9_2 C31_2 1_555 1_555
C32_2 C31_2 1_555 1_555
C33_2 C32_2 1_555 1_555
C34_2 C33_2 1_555 1_555
C35_2 C30_2 1_555 1_555
H10_2 C35_2 1_555 1_555
C36_2 C33_2 1_555 1_555
C37_2 C36_2 1_555 1_555
C38_2 C37_2 1_555 1_555
H11_2 C38_2 1_555 1_555
C39_2 C38_2 1_555 1_555
C40_2 C39_2 1_555 1_555
H12_2 C40_2 1_555 1_555
C41_2 C36_2 1_555 1_555
C42_2 C39_2 1_555 1_555
C43_2 O37_2 1_555 1_555
H13_2 C43_2 1_555 1_555
C44_2 N13_2 1_555 1_555
H14_2 C44_2 1_555 1_555
H15_2 C44_2 1_555 1_555
H16_2 C44_2 1_555 1_555
C45_2 N13_2 1_555 1_555
H17_2 C45_2 1_555 1_555
H18_2 C45_2 1_555 1_555
H19_2 C45_2 1_555 1_555
C46_2 O38_2 1_555 1_555
H20_2 C46_2 1_555 1_555
C47_2 N14_2 1_555 1_555
H21_2 C47_2 1_555 1_555
H23_2 C47_2 1_555 1_555
C48_2 N14_2 1_555 1_555
H24_2 C48_2 1_555 1_555
H25_2 C48_2 1_555 1_555
H26_2 C48_2 1_555 1_555
C49_2 O39_2 1_555 1_555
H27_2 C49_2 1_555 1_555
C50_2 N15_2 1_555 1_555
H28_2 C50_2 1_555 1_555
C51_2 N15_2 1_555 1_555
H31_2 C51_2 1_555 1_555
H32_2 C51_2 1_555 1_555
H33_2 C51_2 1_555 1_555
C52_2 O40_2 1_555 1_555
H34_2 C52_2 1_555 1_555
C53_2 N16_2 1_555 1_555
H35_2 C53_2 1_555 1_555
H36_2 C53_2 1_555 1_555
H37_2 C53_2 1_555 1_555
C54 N16_2 1_555 1_555
H38 C54 1_555 1_555
H39 C54 1_555 1_555
H40 C54 1_555 1_555
O41_2 Gd6 1_555 1_555
O42_2 Gd4 1_555 1_555
Gd6 O42_2 1_555 1_555
O16_2 C28_2 1_555 1_555
O26_2 C29_2 1_555 1_555
C6_2 C7_2 1_555 1_555
C25_2 C28_2 1_555 1_555
C26_2 C27_2 1_555 1_555
C34_2 C35_2 1_555 1_555
C40_2 C41_2 1_555 1_555
O4_2 C14_2 1_555 1_555
O7_2 N2_2 1_555 1_555
O8_2 N2_2 1_555 1_555
O11_2 N4_2 1_555 1_555
O12_2 N4_2 1_555 1_555
N4_2 C13_2 1_555 1_555
C9_2 C8_2 1_555 1_555
C10_2 C9_2 1_555 1_555
C11_2 C10_2 1_555 1_555
C12_2 C11_2 1_555 1_555
H4_2 C12_2 1_555 1_555
C13_2 C8_2 1_555 1_555
C14_2 C11_2 1_555 1_555
Gd3_2 O4_2 1_555 1_555
C12_2 C13_2 1_555 1_555
O27_2 C42_3 1_555 1_555
O28_2 C42_3 1_555 1_555
O34_3 N11_3 1_555 1_555
O35_3 N12_3 1_555 1_555
O36_3 N12_3 1_555 1_555
N11_3 C37_3 1_555 1_555
N12_3 C41_3 1_555 1_555
C37_3 C36_3 1_555 1_555
C38_3 C37_3 1_555 1_555
H11_3 C38_3 1_555 1_555
C39_3 C38_3 1_555 1_555
C40_3 C39_3 1_555 1_555
H12_3 C40_3 1_555 1_555
C41_3 C36_3 1_555 1_555
C42_3 C39_3 1_555 1_555
Gd5 O27_2 1_555 1_555
O28_2 Gd5 1_555 1_555
C40_3 C41_3 1_555 1_555
Gd5_2 O2_3 1_555 1_555
O41_2 C14_3 1_555 1_555
O42_2 C14_3 1_555 1_555
O5_3 N1_3 1_555 1_555
O6_3 N1_3 1_555 1_555
O7_3 N2_3 1_555 1_555
O8_3 N2_3 1_555 1_555
O9_3 N3_3 1_555 1_555
O10_3 N3_3 1_555 1_555
O11_3 N4_3 1_555 1_555
O12_3 N4_3 1_555 1_555
O16_3 Gd5_2 1_555 1_555
O23_3 N8_3 1_555 1_555
O24_3 N8_3 1_555 1_555
O26_3 Gd5_2 1_555 1_555
O31_3 N10_3 1_555 1_555
O39_3 Gd5_2 1_555 1_555
O40_3 Gd5_2 1_555 1_555
N1_3 C4_3 1_555 1_555
N2_3 C6_3 1_555 1_555
N3_3 C9_3 1_555 1_555
N4_3 C13_3 1_555 1_555
N10_3 C34_3 1_555 1_555
N15_3 C49_3 1_555 1_555
N16_3 C52_3 1_555 1_555
C1_3 O2_3 1_555 1_555
C2_3 C1_3 1_555 1_555
C3_3 C2_3 1_555 1_555
H1_3 C3_3 1_555 1_555
C4_3 C3_3 1_555 1_555
C5_3 C4_3 1_555 1_555
C6_3 C5_3 1_555 1_555
C7_3 C2_3 1_555 1_555
C8_3 C5_3 1_555 1_555
C9_3 C8_3 1_555 1_555
C10_3 C9_3 1_555 1_555
H3_3 C10_3 1_555 1_555
C11_3 C10_3 1_555 1_555
C12_3 C11_3 1_555 1_555
H4_3 C12_3 1_555 1_555
C13_3 C8_3 1_555 1_555
C14_3 C11_3 1_555 1_555
H8_3 C26_3 1_555 1_555
C30_3 C29_3 1_555 1_555
C33_3 C32_3 1_555 1_555
C34_3 C33_3 1_555 1_555
C35_3 C30_3 1_555 1_555
H10_3 C35_3 1_555 1_555
C49_3 O39_3 1_555 1_555
H27_3 C49_3 1_555 1_555
C50_3 N15_3 1_555 1_555
H28_3 C50_3 1_555 1_555
H29_2 C50_3 1_555 1_555
H30_2 C50_3 1_555 1_555
C51_3 N15_3 1_555 1_555
H31_3 C51_3 1_555 1_555
H32_3 C51_3 1_555 1_555
H33_3 C51_3 1_555 1_555
C52_3 O40_3 1_555 1_555
H34_3 C52_3 1_555 1_555
C53_3 N16_3 1_555 1_555
H35_3 C53_3 1_555 1_555
H36_3 C53_3 1_555 1_555
H37_3 C53_3 1_555 1_555
O45_2 Gd5_2 1_555 1_555
O46_2 Gd5_2 1_555 1_555
O26_3 C29_3 1_555 1_555
C6_3 C7_3 1_555 1_555
C12_3 C13_3 1_555 1_555
C34_3 C35_3 1_555 1_555
Gd3_2 O1_3 1_555 1_555
O13_2 C15_3 1_555 1_555
O14_2 C15_3 1_555 1_555
O15_3 Gd3_2 1_555 1_555
O17_3 N5_3 1_555 1_555
O18_3 N5_3 1_555 1_555
O19_3 N6_3 1_555 1_555
O20_3 N6_3 1_555 1_555
O21_3 N7_3 1_555 1_555
O22_3 N7_3 1_555 1_555
O25_3 Gd3_2 1_555 1_555
O37_3 Gd3_2 1_555 1_555
O38_3 Gd3_2 1_555 1_555
N5_3 C18_3 1_555 1_555
N6_3 C20_3 1_555 1_555
N7_3 C23_3 1_555 1_555
N13_3 C43_3 1_555 1_555
N14_3 C46_3 1_555 1_555
C15_3 C16_3 1_555 1_555
C16_3 C17_3 1_555 1_555
C17_3 H5_3 1_555 1_555
C18_3 C17_3 1_555 1_555
C19_3 C18_3 1_555 1_555
C20_3 C19_3 1_555 1_555
C21_3 C16_3 1_555 1_555
H6_3 C21_3 1_555 1_555
C22_3 C19_3 1_555 1_555
C23_3 C22_3 1_555 1_555
C24_3 C23_3 1_555 1_555
H7_3 C24_3 1_555 1_555
C25_3 C24_3 1_555 1_555
C27_3 C22_3 1_555 1_555
C28_3 O15_3 1_555 1_555
H9_3 C31_3 1_555 1_555
C43_3 O37_3 1_555 1_555
H13_3 C43_3 1_555 1_555
C44_3 N13_3 1_555 1_555
H14_3 C44_3 1_555 1_555
H15_3 C44_3 1_555 1_555
H16_3 C44_3 1_555 1_555
C45_3 N13_3 1_555 1_555
H17_3 C45_3 1_555 1_555
H18_3 C45_3 1_555 1_555
H19_3 C45_3 1_555 1_555
C46_3 O38_3 1_555 1_555
H20_3 C46_3 1_555 1_555
C47_3 N14_3 1_555 1_555
H21_3 C47_3 1_555 1_555
H22_2 C47_3 1_555 1_555
H23_3 C47_3 1_555 1_555
C48_3 N14_3 1_555 1_555
H24_3 C48_3 1_555 1_555
H25_3 C48_3 1_555 1_555
H26_3 C48_3 1_555 1_555
Gd3 O13_2 1_555 1_555
O43_2 Gd3_2 1_555 1_555
O44_2 Gd3_2 1_555 1_555
O14_2 Gd3 1_555 1_555
C20_3 C21_3 1_555 1_555
C25_3 C28_3 1_555 1_555
O42 C14_4 1_555 1_555
O7_4 N2_4 1_555 1_555
O8_4 N2_4 1_555 1_555
O11_4 N4_4 1_555 1_555
O12_4 N4_4 1_555 1_555
N4_4 C13_4 1_555 1_555
C9_4 C8_4 1_555 1_555
C10_4 C9_4 1_555 1_555
C11_4 C10_4 1_555 1_555
C12_4 C11_4 1_555 1_555
H4_4 C12_4 1_555 1_555
C13_4 C8_4 1_555 1_555
C14_4 C11_4 1_555 1_555
C12_4 C13_4 1_555 1_555
Gd3 O1_4 1_555 1_555
Gd5 O2_4 1_555 1_555
O1_4 C1_4 1_555 1_555
O2_4 Gd3 1_555 1_555
O5_4 N1_4 1_555 1_555
O6_4 N1_4 1_555 1_555
O9_4 N3_4 1_555 1_555
O10_4 N3_4 1_555 1_555
O15_4 Gd3 1_555 1_555
O16_4 Gd5 1_555 1_555
O21_4 N7_4 1_555 1_555
O22_4 N7_4 1_555 1_555
O24_4 N8_4 1_555 1_555
O25_4 Gd3 1_555 1_555
O26_4 Gd5 1_555 1_555
O45_2 C42_4 1_555 1_555
O46_2 C42_4 1_555 1_555
O29_4 N9_2 1_555 1_555
O30_2 N9_2 1_555 1_555
O31_4 N10_4 1_555 1_555
O32_4 N10_4 1_555 1_555
O33_4 N11_4 1_555 1_555
O34_4 N11_4 1_555 1_555
O35_4 N12_4 1_555 1_555
O36_4 N12_4 1_555 1_555
O37_4 Gd3 1_555 1_555
O38_4 Gd3 1_555 1_555
O39_4 Gd5 1_555 1_555
O40_4 Gd5 1_555 1_555
N1_4 C4_4 1_555 1_555
N7_4 C23_4 1_555 1_555
N8_4 C27_4 1_555 1_555
N9_2 C32_4 1_555 1_555
N10_4 C34_4 1_555 1_555
N11_4 C37_4 1_555 1_555
N12_4 C41_4 1_555 1_555
N13_4 C43_4 1_555 1_555
N14_4 C46_4 1_555 1_555
N15_4 C49_4 1_555 1_555
N16_4 C52_4 1_555 1_555
C1_4 O2_4 1_555 1_555
C2_4 C1_4 1_555 1_555
C3_4 C2_4 1_555 1_555
H1_4 C3_4 1_555 1_555
C4_4 C3_4 1_555 1_555
C5_4 C4_4 1_555 1_555
C6_4 C5_4 1_555 1_555
C7_4 C2_4 1_555 1_555
H2_4 C7_4 1_555 1_555
C23_4 C22_4 1_555 1_555
C24_4 C23_4 1_555 1_555
H7_4 C24_4 1_555 1_555
C25_4 C24_4 1_555 1_555
C26_4 C25_4 1_555 1_555
H8_4 C26_4 1_555 1_555
C27_4 C22_4 1_555 1_555
C28_4 O15_4 1_555 1_555
C29_4 O25_4 1_555 1_555
C30_4 C29_4 1_555 1_555
C31_4 C30_4 1_555 1_555
H9_4 C31_4 1_555 1_555
C32_4 C31_4 1_555 1_555
C33_4 C32_4 1_555 1_555
C34_4 C33_4 1_555 1_555
C35_4 C30_4 1_555 1_555
H10_4 C35_4 1_555 1_555
C36_4 C33_4 1_555 1_555
C37_4 C36_4 1_555 1_555
C38_4 C37_4 1_555 1_555
H11_4 C38_4 1_555 1_555
C39_4 C38_4 1_555 1_555
C40_4 C39_4 1_555 1_555
H12_4 C40_4 1_555 1_555
C41_4 C36_4 1_555 1_555
C42_4 C39_4 1_555 1_555
C43_4 O37_4 1_555 1_555
H13_4 C43_4 1_555 1_555
C44_4 N13_4 1_555 1_555
H14_4 C44_4 1_555 1_555
H15_4 C44_4 1_555 1_555
H16_4 C44_4 1_555 1_555
C45_4 N13_4 1_555 1_555
H17_4 C45_4 1_555 1_555
H18_4 C45_4 1_555 1_555
H19_4 C45_4 1_555 1_555
C46_4 O38_4 1_555 1_555
H20_4 C46_4 1_555 1_555
C47_4 N14_4 1_555 1_555
H21_4 C47_4 1_555 1_555
H23_4 C47_4 1_555 1_555
C48_4 N14_4 1_555 1_555
H24_4 C48_4 1_555 1_555
H25_4 C48_4 1_555 1_555
H26_4 C48_4 1_555 1_555
C49_4 O39_4 1_555 1_555
H27_4 C49_4 1_555 1_555
C50_4 N15_4 1_555 1_555
H28_4 C50_4 1_555 1_555
C51_4 N15_4 1_555 1_555
H31_4 C51_4 1_555 1_555
H32_4 C51_4 1_555 1_555
H33_4 C51_4 1_555 1_555
C52_4 O40_4 1_555 1_555
H34_4 C52_4 1_555 1_555
C53_4 N16_4 1_555 1_555
H35_4 C53_4 1_555 1_555
H36_4 C53_4 1_555 1_555
H37_4 C53_4 1_555 1_555
C54_2 N16_4 1_555 1_555
H38_2 C54_2 1_555 1_555
H39_2 C54_2 1_555 1_555
H40_2 C54_2 1_555 1_555
O16_4 C28_4 1_555 1_555
O26_4 C29_4 1_555 1_555
C6_4 C7_4 1_555 1_555
C25_4 C28_4 1_555 1_555
C26_4 C27_4 1_555 1_555
C34_4 C35_4 1_555 1_555
C40_4 C41_4 1_555 1_555
O43_2 C15_4 1_555 1_555
O44_2 C15_4 1_555 1_555
O17_4 N5_4 1_555 1_555
O20_4 N6_4 1_555 1_555
N5_4 C18_4 1_555 1_555
N6_4 C20_4 1_555 1_555
C15_4 C16_4 1_555 1_555
C16_4 C17_4 1_555 1_555
C17_4 H5_4 1_555 1_555
C18_4 C17_4 1_555 1_555
C19_4 C18_4 1_555 1_555
C20_4 C19_4 1_555 1_555
C21_4 C16_4 1_555 1_555
H6_4 C21_4 1_555 1_555
C20_4 C21_4 1_555 1_555
O30_3 N9_3 1_555 1_555
H38_3 C54_3 1_555 1_555
H39_3 C54_3 1_555 1_555
H40_3 C54_3 1_555 1_555
H38_4 C54_4 1_555 1_555
H39_4 C54_4 1_555 1_555
H40_4 C54_4 1_555 1_555
O30_4 N9_4 1_555 1_555

#END
