
###############################################################################
#
# This file contains modified crystal structure data generated from the
# MOF subset of the Cambridge Structural Database (CSD) v543 
# hosted by the Cambridge Crystallographic Data Centre (CCDC).
#
# This work is licensed under the Creative Commons
# Attribution-NonCommercial-ShareAlike 4.0 International License.
# To view a copy of this license, visit
# http://creativecommons.org/licenses/by-nc-sa/4.0/
# or send a letter to
# Creative Commons, PO Box 1866, Mountain View, CA 94042, USA.
#
# CIF created using the CSD Python API on 29 September 2022
# The structure has been converted into the P1 space group
# The structure has a 3D framework
# The original CSD entry XEGJIE02 is in the monoclinic crystal system
# The framework has been calculated to contain at least 10.0% void space
# The void calculation uses a probe of radius 1.32A, grid spacing 0.4
#
###############################################################################

data_XEGJIE02
_chemical_formula_moiety         '(C216 H160 Gd8 N64 O158)n'
_symmetry_cell_setting           triclinic
_symmetry_space_group_name_H-M   'P 1'
_symmetry_Int_Tables_number      1
_space_group_name_Hall           'P 1'
loop_
_symmetry_equiv_pos_site_id
_symmetry_equiv_pos_as_xyz
1 x,y,z
_cell_length_a                   13.103(4)
_cell_length_b                   30.424(6)
_cell_length_c                   23.434(5)
_cell_angle_alpha                90
_cell_angle_beta                 101.392(5)
_cell_angle_gamma                90
_cell_volume                     9157.82
loop_
_atom_site_label
_atom_site_type_symbol
_atom_site_fract_x
_atom_site_fract_y
_atom_site_fract_z
Gd1 Gd 0.14953(2) 0.230671(8) 0.271487(12)
O1 O 0.0923(3) 0.22773(12) 0.36266(17)
O3 O 0.1113(3) 0.30693(12) 0.28463(18)
O4 O 0.0429(3) 0.16615(11) 0.25259(18)
O5 O 0.2981(3) 0.25735(13) 0.33503(19)
O6 O 0.2446(4) 0.27460(13) 0.21423(19)
O7 O 0.0340(3) 0.24132(11) 0.18147(16)
O8 O 0.2476(3) 0.16398(12) 0.31704(17)
O9 O 0.2493(3) 0.17867(12) 0.22503(18)
C2 C 0.0439(4) 0.33192(17) 0.2564(2)
C4 C 0.3224(5) 0.2571(2) 0.3888(3)
C5 C 0.3256(6) 0.2934(3) 0.2232(3)
C7 C 0.0675(4) 0.38084(17) 0.2612(2)
N1 N 0.3670(4) 0.29008(17) 0.4204(2)
H1 H 0.3080 0.2318 0.4081
N2 N 0.3553(5) 0.3300(2) 0.2045(3)
H2 H 0.3778 0.2787 0.2489
C14 C 0.1627(4) 0.39523(18) 0.2892(3)
C15 C 0.0022(5) 0.07764(17) 0.2568(3)
C17 C 0.3888(5) 0.3311(2) 0.3926(3)
C18 C 0.3921(6) 0.2886(3) 0.4837(3)
C19 C 0.2706(7) 0.3567(3) 0.1683(4)
C20 C 0.4508(10) 0.3494(4) 0.2146(5)
H4 H 0.0316 0.2051 0.4538
C23 C 0.0178(4) 0.45498(17) 0.2362(3)
C24 C 0.1860(5) 0.43998(18) 0.2893(3)
H8 H 0.2119 0.3754 0.3082
H9 H 0.0692 0.0875 0.2720
H11 H 0.3703 0.3279 0.3511
H12 H 0.4617 0.3378 0.4036
H13 H 0.3489 0.3545 0.4048
H14 H 0.3745 0.2602 0.4968
H15 H 0.3531 0.3108 0.4992
H16 H 0.4652 0.2938 0.4969
H17 H 0.2710 0.3522 0.1278
H18 H 0.2818 0.3873 0.1776
H19 H 0.2045 0.3478 0.1763
H20 H 0.5025 0.3285 0.2319
H21 H 0.4510 0.3738 0.2406
H22 H 0.4662 0.3597 0.1785
C32 C 0.1138(5) 0.47167(17) 0.2628(3)
N8 N 0.2933(4) 0.45264(17) 0.3156(3)
N9 N 0.0607(4) 0.00466(16) 0.2908(3)
O20 O 0.0320(4) 0.1859(2) 0.5542(2)
C35 C 0.1419(4) 0.51901(17) 0.2554(3)
O23 O 0.3594(4) 0.42344(15) 0.3255(3)
O24 O 0.3124(4) 0.49068(16) 0.3279(4)
O25 O 0.1226(4) 0.02020(15) 0.3329(2)
C39 C 0.1443(4) 0.55128(18) 0.2991(3)
C40 C 0.1640(4) 0.53413(18) 0.2035(3)
N13 N 0.1165(5) 0.53953(16) 0.3550(2)
C45 C 0.1723(4) 0.59413(18) 0.2918(3)
N14 N 0.1607(4) 0.50407(15) 0.1541(2)
C46 C 0.1903(4) 0.57756(18) 0.1947(3)
O33 O 0.0790(4) 0.50355(14) 0.3604(2)
O34 O 0.1308(6) 0.56685(18) 0.3935(2)
H37 H 0.1746 0.6143 0.3219
C50 C 0.1970(4) 0.60735(17) 0.2397(2)
O35 O 0.1810(4) 0.46549(14) 0.1630(2)
O36 O 0.1354(4) 0.51979(15) 0.1054(2)
H38 H 0.2034 0.5864 0.1589
C53 C 0.2342(4) 0.65317(17) 0.2319(3)
O43 O 0.2524(3) 0.66398(12) 0.18296(17)
O44 O 0.2507(3) 0.67867(12) 0.27497(18)
Gd5 Gd 0.35047(2) 0.730671(8) 0.228513(12)
O2 O 0.9566(3) 0.24378(12) 0.29406(17)
C1 C 0.9973(4) 0.23583(16) 0.3466(2)
Gd2 Gd 0.84782(2) 0.258308(8) 0.203412(12)
C3 C 0.9527(5) 0.15556(17) 0.2296(3)
C6 C 0.9300(4) 0.23714(17) 0.3912(3)
O10 O 0.9606(3) 0.32137(11) 0.22301(17)
O11 O 0.8802(3) 0.18005(12) 0.20505(18)
O12 O 0.7267(4) 0.22828(14) 0.1258(2)
O13 O 0.7137(3) 0.22662(13) 0.2451(2)
O14 O 0.9188(3) 0.27359(13) 0.11350(17)
O15 O 0.7414(3) 0.32388(12) 0.16889(17)
O16 O 0.7764(3) 0.31334(12) 0.26451(18)
C8 C 0.9267(4) 0.10665(18) 0.2305(3)
C9 C 0.8340(4) 0.25757(17) 0.3798(3)
C10 C 0.9655(4) 0.21750(17) 0.4450(2)
C11 C 0.6957(5) 0.2258(2) 0.0727(3)
C12 C 0.6999(5) 0.1913(2) 0.2685(3)
C13 C 0.9933(5) 0.41082(17) 0.2343(2)
C16 C 0.8282(5) 0.09185(19) 0.2091(3)
H3 H 0.8102 0.2711 0.3441
C21 C 0.7734(5) 0.25774(19) 0.4220(3)
C22 C 0.9009(5) 0.21663(19) 0.4856(3)
N3 N 0.6470(4) 0.19070(17) 0.0461(2)
H5 H 0.7067 0.2497 0.0500
N4 N 0.6101(4) 0.17315(18) 0.2682(3)
H6 H 0.7587 0.1765 0.2879
H7 H 0.9280 0.4013 0.2153
C25 C 0.9775(5) 0.03356(18) 0.2604(3)
C26 C 0.8050(4) 0.04753(18) 0.2137(3)
H10 H 0.7768 0.1113 0.1916
N5 N 0.6744(4) 0.28208(18) 0.4080(2)
C27 C 0.8037(5) 0.23643(18) 0.4759(3)
N6 N 0.9396(4) 0.19162(19) 0.5387(2)
C28 C 0.6241(6) 0.1532(2) 0.0800(4)
C30 C 0.5982(6) 0.1319(2) 0.2978(3)
C31 C 0.5169(8) 0.1929(5) 0.2356(9)
N7 N 0.9364(4) 0.48460(15) 0.2048(2)
C33 C 0.8783(4) 0.01642(17) 0.2390(3)
N10 N 0.6960(4) 0.03469(17) 0.1896(3)
O17 O 0.6361(5) 0.2872(3) 0.3582(3)
O18 O 0.6367(5) 0.2960(2) 0.4478(2)
C34 C 0.7328(5) 0.23548(19) 0.5191(3)
O19 O 0.8769(4) 0.1756(2) 0.5649(2)
H23 H 0.6653 0.1285 0.0726
H24 H 0.5516 0.1459 0.0690
H25 H 0.6404 0.1604 0.1206
H29 H 0.6656 0.1209 0.3157
H30 H 0.5636 0.1109 0.2700
H31 H 0.5576 0.1368 0.3271
H32 H 0.5351 0.2172 0.2134
H33 H 0.4745 0.2032 0.2619
H34 H 0.4788 0.1715 0.2097
O21 O 0.8705(3) 0.46841(13) 0.16616(19)
O22 O 0.9381(3) 0.52316(13) 0.2185(2)
O27 O 0.6327(4) 0.06384(15) 0.1744(3)
C37 C 0.6454(5) 0.20884(19) 0.5108(3)
C38 C 0.7433(5) 0.26464(19) 0.5660(3)
N11 N 0.6249(4) 0.17922(17) 0.4604(2)
C43 C 0.5723(5) 0.21018(18) 0.5460(2)
N12 N 0.8314(4) 0.29550(19) 0.5777(2)
C44 C 0.6715(5) 0.26683(18) 0.6023(3)
O29 O 0.6978(4) 0.16125(15) 0.4452(2)
O30 O 0.5336(4) 0.17538(16) 0.4353(2)
H35 H 0.5142 0.1920 0.5386
C49 C 0.5873(4) 0.23931(17) 0.5929(2)
O31 O 0.9178(4) 0.2807(2) 0.5741(3)
O32 O 0.8182(4) 0.33084(17) 0.5959(3)
H36 H 0.6806 0.2869 0.6328
O37 O 0.8291(4) 0.02350(13) 0.3452(2)
C52 C 0.5072(4) 0.24132(16) 0.6317(2)
O41 O 0.5340(3) 0.25868(11) 0.68147(16)
O42 O 0.4188(3) 0.22641(13) 0.61350(17)
Gd3 Gd 0.64953(2) 0.269329(8) 0.771487(12)
Gd4 Gd 0.34782(2) 0.241692(8) 0.703412(12)
C36 C 0.8539(5) 0.96934(18) 0.2491(3)
O28 O 0.6740(4) 0.99586(14) 0.1884(3)
C41 C 0.8416(4) 0.95472(18) 0.3033(3)
C42 C 0.8446(5) 0.93631(19) 0.2063(3)
N15 N 0.8555(4) 0.98546(17) 0.3539(3)
C47 C 0.8167(4) 0.91189(18) 0.3146(3)
N16 N 0.8652(5) 0.94719(17) 0.1482(2)
C48 C 0.8143(5) 0.89391(18) 0.2152(3)
O38 O 0.8932(4) 0.97002(16) 0.4018(2)
H39 H 0.8124 0.9035 0.3522
C51 C 0.7983(4) 0.88162(17) 0.2699(3)
O39 O 0.8961(6) 0.98246(16) 0.1390(3)
O40 O 0.8580(10) 0.9188(2) 0.1138(3)
H40 H 0.8047 0.8737 0.1849
C54 C 0.7582(4) 0.83626(17) 0.2794(3)
O45 O 0.7586(3) 0.82388(12) 0.33111(17)
O46 O 0.7236(3) 0.81334(12) 0.23549(18)
Gd6 Gd 0.65218(2) 0.758308(8) 0.296588(12)
O42_2 O 0.0812(3) 0.72641(13) 0.88650(17)
Gd4_2 Gd 0.15218(2) 0.741692(8) 0.796588(12)
O22_2 O 0.5619(3) 0.02316(13) 0.2815(2)
C35_2 C 0.3581(4) 0.01901(17) 0.2446(3)
C39_2 C 0.3557(4) 0.05128(18) 0.2009(3)
C40_2 C 0.3360(4) 0.03413(18) 0.2965(3)
N13_2 N 0.3835(5) 0.03953(16) 0.1450(2)
C45_2 C 0.3277(4) 0.09413(18) 0.2082(3)
N14_2 N 0.3393(4) 0.00407(15) 0.3459(2)
C46_2 C 0.3097(4) 0.07756(18) 0.3053(3)
O33_2 O 0.4210(4) 0.00355(14) 0.1396(2)
O34_2 O 0.3692(6) 0.06685(18) 0.1065(2)
H37_2 H 0.3254 0.1143 0.1781
C50_2 C 0.3030(4) 0.10735(17) 0.2603(2)
O36_2 O 0.3646(4) 0.01979(15) 0.3946(2)
H38_2 H 0.2966 0.0864 0.3411
C53_2 C 0.2658(4) 0.15317(17) 0.2681(3)
O1_2 O 0.4077(3) 0.72773(12) 0.13734(17)
O2_2 O 0.5434(3) 0.74378(12) 0.20594(17)
O3_2 O 0.3887(3) 0.80693(12) 0.21537(18)
O4_2 O 0.4571(3) 0.66615(11) 0.24741(18)
O5_2 O 0.2019(3) 0.75735(13) 0.16497(19)
O6_2 O 0.2554(4) 0.77460(13) 0.28577(19)
O7_2 O 0.4660(3) 0.74132(11) 0.31853(16)
C1_2 C 0.5027(4) 0.73583(16) 0.1534(2)
C2_2 C 0.4561(4) 0.83192(17) 0.2436(2)
C3_2 C 0.5473(5) 0.65556(17) 0.2704(3)
C4_2 C 0.1776(5) 0.7571(2) 0.1112(3)
C5_2 C 0.1744(6) 0.7934(3) 0.2768(3)
C6_2 C 0.5700(4) 0.73714(17) 0.1088(3)
O10_2 O 0.5394(3) 0.82137(11) 0.27699(17)
O11_2 O 0.6198(3) 0.68005(12) 0.29495(18)
O12_2 O 0.7733(4) 0.72828(14) 0.3742(2)
O13_2 O 0.7863(3) 0.72662(13) 0.2549(2)
O14_2 O 0.5812(3) 0.77359(13) 0.38650(17)
C7_2 C 0.4325(4) 0.88084(17) 0.2388(2)
C8_2 C 0.5733(4) 0.60665(18) 0.2695(3)
N1_2 N 0.1330(4) 0.79008(17) 0.0796(2)
H1_2 H 0.1920 0.7318 0.0919
N2_2 N 0.1447(5) 0.8300(2) 0.2955(3)
H2_2 H 0.1222 0.7787 0.2511
C9_2 C 0.6660(4) 0.75757(17) 0.1202(3)
C10_2 C 0.5345(4) 0.71750(17) 0.0550(2)
C11_2 C 0.8043(5) 0.7258(2) 0.4273(3)
C12_2 C 0.8001(5) 0.6913(2) 0.2315(3)
C13_2 C 0.5067(5) 0.91082(17) 0.2657(2)
C14_2 C 0.3373(4) 0.89523(18) 0.2108(3)
C15_2 C 0.4978(5) 0.57764(17) 0.2432(3)
C16_2 C 0.6718(5) 0.59185(19) 0.2909(3)
C17_2 C 0.1112(5) 0.8311(2) 0.1074(3)
C18_2 C 0.1079(6) 0.7886(3) 0.0163(3)
C19_2 C 0.2294(7) 0.8567(3) 0.3317(4)
C20_2 C 0.0492(10) 0.8494(4) 0.2854(5)
H3_2 H 0.6898 0.7711 0.1559
C21_2 C 0.7266(5) 0.75774(19) 0.0780(3)
C22_2 C 0.5991(5) 0.71663(19) 0.0144(3)
H4_2 H 0.4684 0.7051 0.0462
N3_2 N 0.8530(4) 0.69070(17) 0.4539(2)
H5_2 H 0.7933 0.7497 0.4500
N4_2 N 0.8899(4) 0.67315(18) 0.2318(3)
H6_2 H 0.7413 0.6765 0.2121
H7_2 H 0.5720 0.9013 0.2847
C23_2 C 0.4822(4) 0.95498(17) 0.2638(3)
C24_2 C 0.3140(5) 0.93998(18) 0.2107(3)
H8_2 H 0.2881 0.8754 0.1918
H9_2 H 0.4308 0.5875 0.2280
C25_2 C 0.5225(5) 0.53356(18) 0.2396(3)
C26_2 C 0.6950(4) 0.54753(18) 0.2863(3)
H10_2 H 0.7232 0.6113 0.3084
H11_2 H 0.1297 0.8279 0.1489
H12_2 H 0.0383 0.8378 0.0964
H13_2 H 0.1511 0.8545 0.0952
H14_2 H 0.1255 0.7602 0.0032
H15_2 H 0.1469 0.8108 0.0008
H16_2 H 0.0348 0.7938 0.0031
H17_2 H 0.2290 0.8522 0.3722
H18_2 H 0.2182 0.8873 0.3224
H19_2 H 0.2955 0.8478 0.3237
H21_2 H 0.0490 0.8738 0.2594
H22_2 H 0.0338 0.8597 0.3215
N5_2 N 0.8256(4) 0.78208(18) 0.0920(2)
C27_2 C 0.6963(5) 0.73643(18) 0.0241(3)
C28_2 C 0.8759(6) 0.6532(2) 0.4200(4)
C29 C 0.8842(6) 0.6894(3) 0.5171(3)
C30_2 C 0.9018(6) 0.6319(2) 0.2022(3)
C31_2 C 0.9831(8) 0.6929(5) 0.2644(9)
N7_2 N 0.5636(4) 0.98460(15) 0.2952(2)
C32_2 C 0.3862(5) 0.97167(17) 0.2372(3)
N8_2 N 0.2067(4) 0.95264(17) 0.1844(3)
N9_2 N 0.4393(4) 0.50466(16) 0.2092(3)
C33_2 C 0.6217(4) 0.51642(17) 0.2610(3)
N10_2 N 0.8040(4) 0.53469(17) 0.3104(3)
O17_2 O 0.8639(5) 0.7872(3) 0.1418(3)
O18_2 O 0.8633(5) 0.7960(2) 0.0522(2)
H23_2 H 0.8347 0.6285 0.4274
H24_2 H 0.9484 0.6459 0.4310
H25_2 H 0.8596 0.6604 0.3794
H26 H 0.8704 0.7173 0.5330
H27 H 0.9572 0.6830 0.5277
H28 H 0.8454 0.6669 0.5323
H29_2 H 0.8344 0.6209 0.1843
H30_2 H 0.9364 0.6109 0.2300
H31_2 H 0.9424 0.6368 0.1729
H32_2 H 0.9649 0.7172 0.2866
O21_2 O 0.6295(3) 0.96841(13) 0.33384(19)
O23_2 O 0.1406(4) 0.92344(15) 0.1745(3)
O24_2 O 0.1876(4) 0.99068(16) 0.1721(4)
O25_2 O 0.3774(4) 0.52020(15) 0.1671(2)
O26 O 0.4365(4) 0.46705(15) 0.2247(3)
C36_2 C 0.6461(5) 0.46934(18) 0.2509(3)
O27_2 O 0.8673(4) 0.56384(15) 0.3256(3)
O28_2 O 0.8260(4) 0.49586(14) 0.3116(3)
C41_2 C 0.6584(4) 0.45472(18) 0.1967(3)
C42_2 C 0.6554(5) 0.43631(19) 0.2937(3)
N11_2 N 0.8751(4) 0.67922(17) 0.0396(2)
N15_2 N 0.6445(4) 0.48546(17) 0.1461(3)
C47_2 C 0.6833(4) 0.41189(18) 0.1854(3)
N16_2 N 0.6348(5) 0.44719(17) 0.3518(2)
C48_2 C 0.6857(5) 0.39391(18) 0.2848(3)
O29_2 O 0.8022(4) 0.66125(15) 0.0548(2)
O30_2 O 0.9664(4) 0.67538(16) 0.0647(2)
O35_2 O 0.3190(4) 0.96549(14) 0.3370(2)
O37_2 O 0.6709(4) 0.52350(13) 0.1548(2)
O38_2 O 0.6068(4) 0.47002(16) 0.0982(2)
H39_2 H 0.6876 0.4035 0.1478
C51_2 C 0.7017(4) 0.38162(17) 0.2301(3)
O39_2 O 0.6039(6) 0.48246(16) 0.3610(3)
O40_2 O 0.6420(10) 0.4188(2) 0.3862(3)
H40_2 H 0.6953 0.3737 0.3151
C54_2 C 0.7418(4) 0.33626(17) 0.2206(3)
N6_2 N 0.5604(4) 0.69162(19) 0.9613(2)
C34_2 C 0.7672(5) 0.73548(19) 0.9809(3)
O19_2 O 0.6231(4) 0.6756(2) 0.9351(2)
O20_2 O 0.4680(4) 0.6859(2) 0.9458(2)
C37_2 C 0.8546(5) 0.70884(19) 0.9892(3)
C38_2 C 0.7567(5) 0.76464(19) 0.9340(3)
C43_2 C 0.9277(5) 0.71018(18) 0.9540(2)
N12_2 N 0.6686(4) 0.79550(19) 0.9223(2)
C44_2 C 0.8285(5) 0.76683(18) 0.8977(3)
H35_2 H 0.9858 0.6920 0.9614
C49_2 C 0.9127(4) 0.73931(17) 0.9071(2)
O31_2 O 0.5822(4) 0.7807(2) 0.9259(3)
O32_2 O 0.6818(4) 0.83084(17) 0.9041(3)
H36_2 H 0.8194 0.7869 0.8672
C52_2 C 0.9928(4) 0.74132(16) 0.8683(2)
O41_2 O 0.9660(3) 0.75868(11) 0.81853(16)
Gd3_2 Gd 0.85047(2) 0.769329(8) 0.728513(12)
C36_3 C 0.1461(5) 0.03066(18) 0.7509(3)
O28_3 O 0.3260(4) 0.00414(14) 0.8116(3)
C41_3 C 0.1584(4) 0.04528(18) 0.6967(3)
C42_3 C 0.1554(5) 0.06369(19) 0.7937(3)
N15_3 N 0.1445(4) 0.01454(17) 0.6461(3)
C47_3 C 0.1833(4) 0.08811(18) 0.6854(3)
N16_3 N 0.1348(5) 0.05281(17) 0.8518(2)
C48_3 C 0.1857(5) 0.10609(18) 0.7848(3)
O38_3 O 0.1068(4) 0.02998(16) 0.5982(2)
H39_3 H 0.1876 0.0965 0.6478
C51_3 C 0.2017(4) 0.11838(17) 0.7301(3)
O39_3 O 0.1039(6) 0.01754(16) 0.8610(3)
O40_3 O 0.1420(10) 0.0812(2) 0.8862(3)
H40_3 H 0.1953 0.1263 0.8151
C54_3 C 0.2418(4) 0.16374(17) 0.7206(3)
O45_2 O 0.2414(3) 0.17612(12) 0.66889(17)
O46_2 O 0.2764(3) 0.18666(12) 0.76451(18)
O2_3 O 0.0434(3) 0.75622(12) 0.70594(17)
C1_3 C 0.0027(4) 0.76417(16) 0.6534(2)
C3_3 C 0.0473(5) 0.84444(17) 0.7704(3)
C6_3 C 0.0700(4) 0.76286(17) 0.6088(3)
O10_3 O 0.0394(3) 0.67863(11) 0.77699(17)
O11_3 O 0.1198(3) 0.81995(12) 0.79495(18)
O12_3 O 0.2733(4) 0.77172(14) 0.8742(2)
O13_3 O 0.2863(3) 0.77338(13) 0.7549(2)
O15_2 O 0.2586(3) 0.67612(12) 0.83111(17)
O16_2 O 0.2236(3) 0.68666(12) 0.73549(18)
C8_3 C 0.0733(4) 0.89335(18) 0.7695(3)
C9_3 C 0.1660(4) 0.74243(17) 0.6202(3)
C10_3 C 0.0345(4) 0.78250(17) 0.5550(2)
C11_3 C 0.3043(5) 0.7742(2) 0.9273(3)
C12_3 C 0.3001(5) 0.8087(2) 0.7315(3)
C13_3 C 0.0067(5) 0.58918(17) 0.7657(2)
C16_3 C 0.1718(5) 0.90815(19) 0.7909(3)
H3_3 H 0.1898 0.7289 0.6559
C21_3 C 0.2266(5) 0.74226(19) 0.5780(3)
C22_3 C 0.0991(5) 0.78337(19) 0.5144(3)
N3_3 N 0.3530(4) 0.80930(17) 0.9539(2)
H5_3 H 0.2933 0.7503 0.9500
N4_3 N 0.3899(4) 0.82685(18) 0.7318(3)
H6_3 H 0.2413 0.8235 0.7121
H7_3 H 0.0720 0.5987 0.7847
C25_3 C 0.0225(5) 0.96644(18) 0.7396(3)
C26_3 C 0.1950(4) 0.95247(18) 0.7863(3)
H10_3 H 0.2232 0.8887 0.8084
N5_3 N 0.3256(4) 0.71792(18) 0.5920(2)
C27_3 C 0.1963(5) 0.76357(18) 0.5241(3)
N6_3 N 0.0604(4) 0.80838(19) 0.4613(2)
C28_3 C 0.3759(6) 0.8468(2) 0.9200(4)
C30_3 C 0.4018(6) 0.8681(2) 0.7022(3)
C31_3 C 0.4831(8) 0.8071(5) 0.7644(9)
N7_3 N 0.0636(4) 0.51540(15) 0.7952(2)
C33_3 C 0.1217(4) 0.98358(17) 0.7610(3)
N10_3 N 0.3040(4) 0.96531(17) 0.8104(3)
O17_3 O 0.3639(5) 0.7128(3) 0.6418(3)
O18_3 O 0.3633(5) 0.7040(2) 0.5522(2)
C34_3 C 0.2672(5) 0.76452(19) 0.4809(3)
O19_3 O 0.1231(4) 0.8244(2) 0.4351(2)
H23_3 H 0.3347 0.8715 0.9274
H24_3 H 0.4484 0.8541 0.9310
H25_3 H 0.3596 0.8396 0.8794
H29_3 H 0.3344 0.8791 0.6843
H30_3 H 0.4364 0.8891 0.7300
H31_3 H 0.4424 0.8632 0.6729
H32_3 H 0.4649 0.7828 0.7866
H33_2 H 0.5255 0.7968 0.7381
H34_2 H 0.5212 0.8285 0.7903
O21_3 O 0.1295(3) 0.53159(13) 0.83384(19)
O22_3 O 0.0619(3) 0.47684(13) 0.7815(2)
O27_3 O 0.3673(4) 0.93616(15) 0.8256(3)
C37_3 C 0.3546(5) 0.79116(19) 0.4892(3)
C38_3 C 0.2567(5) 0.73536(19) 0.4340(3)
N11_3 N 0.3751(4) 0.82078(17) 0.5396(2)
C43_3 C 0.4277(5) 0.78982(18) 0.4540(2)
N12_3 N 0.1686(4) 0.70450(19) 0.4223(2)
C44_3 C 0.3285(5) 0.73317(18) 0.3977(3)
O29_3 O 0.3022(4) 0.83875(15) 0.5548(2)
O30_3 O 0.4664(4) 0.82462(16) 0.5647(2)
H35_3 H 0.4858 0.8080 0.4614
C49_3 C 0.4127(4) 0.76069(17) 0.4071(2)
O31_3 O 0.0822(4) 0.7193(2) 0.4259(3)
O32_3 O 0.1818(4) 0.66916(17) 0.4041(3)
H36_3 H 0.3194 0.7131 0.3672
O37_3 O 0.1709(4) 0.97650(13) 0.6548(2)
C52_3 C 0.4928(4) 0.75868(16) 0.3683(2)
O1_3 O 0.9077(3) 0.77227(12) 0.63734(17)
O3_3 O 0.8887(3) 0.69307(12) 0.71537(18)
O4_3 O 0.9571(3) 0.83385(11) 0.74741(18)
O5_3 O 0.7019(3) 0.74265(13) 0.66497(19)
O6_3 O 0.7554(4) 0.72540(13) 0.78577(19)
O8_2 O 0.7524(3) 0.83602(12) 0.68296(17)
O9_2 O 0.7507(3) 0.82133(12) 0.77497(18)
C2_3 C 0.9561(4) 0.66808(17) 0.7436(2)
C4_3 C 0.6776(5) 0.7429(2) 0.6112(3)
C5_3 C 0.6744(6) 0.7066(3) 0.7768(3)
C7_3 C 0.9325(4) 0.61916(17) 0.7388(2)
N1_3 N 0.6330(4) 0.70992(17) 0.5796(2)
H1_3 H 0.6920 0.7682 0.5919
N2_3 N 0.6447(5) 0.6700(2) 0.7955(3)
H2_3 H 0.6222 0.7213 0.7511
C14_3 C 0.8373(4) 0.60477(18) 0.7108(3)
C15_3 C 0.9978(5) 0.92236(17) 0.7432(3)
C17_3 C 0.6112(5) 0.6689(2) 0.6074(3)
C18_3 C 0.6079(6) 0.7114(3) 0.5163(3)
C19_3 C 0.7294(7) 0.6433(3) 0.8317(4)
C20_3 C 0.5492(10) 0.6506(4) 0.7854(5)
H4_3 H 0.9684 0.7949 0.5462
C23_3 C 0.9822(4) 0.54502(17) 0.7638(3)
C24_3 C 0.8140(5) 0.56002(18) 0.7107(3)
H8_3 H 0.7881 0.6246 0.6918
H9_3 H 0.9308 0.9125 0.7280
H11_3 H 0.6297 0.6721 0.6489
H12_3 H 0.5383 0.6622 0.5964
H13_3 H 0.6511 0.6455 0.5952
H14_3 H 0.6255 0.7398 0.5032
H15_3 H 0.6469 0.6892 0.5008
H16_3 H 0.5348 0.7062 0.5031
H17_3 H 0.7290 0.6478 0.8722
H18_3 H 0.7182 0.6127 0.8224
H19_3 H 0.7955 0.6522 0.8237
H20_2 H 0.4975 0.6715 0.7681
H21_3 H 0.5490 0.6262 0.7594
H22_3 H 0.5338 0.6403 0.8215
C32_3 C 0.8862(5) 0.52833(17) 0.7372(3)
N8_3 N 0.7067(4) 0.54736(17) 0.6844(3)
N9_3 N 0.9393(4) 0.99534(16) 0.7092(3)
O20_3 O 0.9680(4) 0.8141(2) 0.4458(2)
C35_3 C 0.8581(4) 0.48099(17) 0.7446(3)
O23_3 O 0.6406(4) 0.57656(15) 0.6745(3)
O24_3 O 0.6876(4) 0.50932(16) 0.6721(4)
O25_3 O 0.8774(4) 0.97980(15) 0.6671(2)
C39_3 C 0.8557(4) 0.44872(18) 0.7009(3)
C40_3 C 0.8360(4) 0.46587(18) 0.7965(3)
N13_3 N 0.8835(5) 0.46047(16) 0.6450(2)
C45_3 C 0.8277(4) 0.40587(18) 0.7082(3)
N14_3 N 0.8393(4) 0.49593(15) 0.8459(2)
C46_3 C 0.8097(4) 0.42244(18) 0.8053(3)
O33_3 O 0.9210(4) 0.49645(14) 0.6396(2)
O34_3 O 0.8692(6) 0.43315(18) 0.6065(2)
H37_3 H 0.8254 0.3857 0.6781
C50_3 C 0.8030(4) 0.39265(17) 0.7603(2)
O35_3 O 0.8190(4) 0.53451(14) 0.8370(2)
O36_3 O 0.8646(4) 0.48021(15) 0.8946(2)
H38_3 H 0.7966 0.4136 0.8411
C53_3 C 0.7658(4) 0.34683(17) 0.7681(3)
O43_2 O 0.7476(3) 0.33602(12) 0.81704(17)
O44_2 O 0.7493(3) 0.32133(12) 0.72503(18)
N6_4 N 0.4396(4) 0.30838(19) 0.0387(2)
C34_4 C 0.2328(5) 0.26452(19) 0.0191(3)
O19_4 O 0.3769(4) 0.3244(2) 0.0649(2)
O20_4 O 0.5320(4) 0.3141(2) 0.0542(2)
C37_4 C 0.1454(5) 0.29116(19) 0.0108(3)
C38_4 C 0.2433(5) 0.23536(19) 0.0660(3)
C43_4 C 0.0723(5) 0.28982(18) 0.0460(2)
N12_4 N 0.3314(4) 0.20450(19) 0.0777(2)
C44_4 C 0.1715(5) 0.23317(18) 0.1023(3)
H35_4 H 0.0142 0.3080 0.0386
C49_4 C 0.0873(4) 0.26069(17) 0.0929(2)
O31_4 O 0.4178(4) 0.2193(2) 0.0741(3)
O32_4 O 0.3182(4) 0.16916(17) 0.0959(3)
H36_4 H 0.1806 0.2131 0.1328
C52_4 C 0.0072(4) 0.25868(16) 0.1317(2)
O1_4 O 0.5923(3) 0.27227(12) 0.86266(17)
O2_4 O 0.4566(3) 0.25622(12) 0.79406(17)
O3_4 O 0.6113(3) 0.19307(12) 0.78463(18)
O4_4 O 0.5429(3) 0.33385(11) 0.75259(18)
O5_4 O 0.7981(3) 0.24265(13) 0.83503(19)
O6_4 O 0.7446(4) 0.22540(13) 0.71423(19)
C1_4 C 0.4973(4) 0.26417(16) 0.8466(2)
C2_4 C 0.5439(4) 0.16808(17) 0.7564(2)
C3_4 C 0.4527(5) 0.34444(17) 0.7296(3)
C4_4 C 0.8224(5) 0.2429(2) 0.8888(3)
C5_4 C 0.8256(6) 0.2066(3) 0.7232(3)
C6_4 C 0.4300(4) 0.26286(17) 0.8912(3)
O10_4 O 0.4606(3) 0.17863(11) 0.72301(17)
O11_4 O 0.3802(3) 0.31995(12) 0.70505(18)
O12_4 O 0.2267(4) 0.27172(14) 0.6258(2)
O13_4 O 0.2137(3) 0.27338(13) 0.7451(2)
C7_4 C 0.5675(4) 0.11916(17) 0.7612(2)
C8_4 C 0.4267(4) 0.39335(18) 0.7305(3)
N1_4 N 0.8670(4) 0.20992(17) 0.9204(2)
H1_4 H 0.8080 0.2682 0.9081
N2_4 N 0.8553(5) 0.1700(2) 0.7045(3)
H2_4 H 0.8778 0.2213 0.7489
C9_4 C 0.3340(4) 0.24243(17) 0.8798(3)
C10_4 C 0.4655(4) 0.28250(17) 0.9450(2)
C11_4 C 0.1957(5) 0.2742(2) 0.5727(3)
C12_4 C 0.1999(5) 0.3087(2) 0.7685(3)
C13_4 C 0.4933(5) 0.08918(17) 0.7343(2)
C14_4 C 0.6627(4) 0.10477(18) 0.7892(3)
C15_4 C 0.5022(5) 0.42236(17) 0.7568(3)
C16_4 C 0.3282(5) 0.40815(19) 0.7091(3)
C17_4 C 0.8888(5) 0.1689(2) 0.8926(3)
C18_4 C 0.8921(6) 0.2114(3) 0.9837(3)
C19_4 C 0.7706(7) 0.1433(3) 0.6683(4)
C20_4 C 0.9508(10) 0.1506(4) 0.7146(5)
H3_4 H 0.3102 0.2289 0.8441
C21_4 C 0.2734(5) 0.24226(19) 0.9220(3)
C22_4 C 0.4009(5) 0.28337(19) 0.9856(3)
H4_4 H 0.5316 0.2949 0.9538
N3_4 N 0.1470(4) 0.30930(17) 0.5461(2)
H5_4 H 0.2067 0.2503 0.5500
N4_4 N 0.1101(4) 0.32685(18) 0.7682(3)
H6_4 H 0.2587 0.3235 0.7879
H7_4 H 0.4280 0.0987 0.7153
C23_4 C 0.5178(4) 0.04502(17) 0.7362(3)
C24_4 C 0.6860(5) 0.06002(18) 0.7893(3)
H8_4 H 0.7119 0.1246 0.8082
H9_4 H 0.5692 0.4125 0.7720
C25_4 C 0.4775(5) 0.46644(18) 0.7604(3)
C26_4 C 0.3050(4) 0.45247(18) 0.7137(3)
H10_4 H 0.2768 0.3887 0.6916
H11_4 H 0.8703 0.1721 0.8511
H12_4 H 0.9617 0.1622 0.9036
H13_4 H 0.8489 0.1455 0.9048
H14_4 H 0.8745 0.2398 0.9968
H15_4 H 0.8531 0.1892 0.9992
H16_4 H 0.9652 0.2062 0.9969
H17_4 H 0.7710 0.1478 0.6278
H18_4 H 0.7818 0.1127 0.6776
H19_4 H 0.7045 0.1522 0.6763
H21_4 H 0.9510 0.1262 0.7406
H22_4 H 0.9662 0.1403 0.6785
N5_4 N 0.1744(4) 0.21792(18) 0.9080(2)
C27_4 C 0.3037(5) 0.26357(18) 0.9759(3)
C28_4 C 0.1241(6) 0.3468(2) 0.5800(4)
C29_2 C 0.1158(6) 0.3106(3) 0.4829(3)
C30_4 C 0.0982(6) 0.3681(2) 0.7978(3)
C31_4 C 0.0169(8) 0.3071(5) 0.7356(9)
N7_4 N 0.4364(4) 0.01540(15) 0.7048(2)
C32_4 C 0.6138(5) 0.02833(17) 0.7628(3)
N8_4 N 0.7933(4) 0.04736(17) 0.8156(3)
N9_4 N 0.5607(4) 0.49534(16) 0.7908(3)
C33_4 C 0.3783(4) 0.48358(17) 0.7390(3)
N10_4 N 0.1960(4) 0.46531(17) 0.6896(3)
O17_4 O 0.1361(5) 0.2128(3) 0.8582(3)
O18_4 O 0.1367(5) 0.2040(2) 0.9478(2)
H23_4 H 0.1653 0.3715 0.5726
H24_4 H 0.0516 0.3541 0.5690
H25_4 H 0.1404 0.3396 0.6206
H26_2 H 0.1296 0.2827 0.4670
H27_2 H 0.0428 0.3170 0.4723
H28_2 H 0.1546 0.3331 0.4677
H29_4 H 0.1656 0.3791 0.8157
H30_4 H 0.0636 0.3891 0.7700
H31_4 H 0.0576 0.3632 0.8271
H32_4 H 0.0351 0.2828 0.7134
O21_4 O 0.3705(3) 0.03159(13) 0.66616(19)
O23_4 O 0.8594(4) 0.07656(15) 0.8255(3)
O24_4 O 0.8124(4) 0.00932(16) 0.8279(4)
O25_4 O 0.6226(4) 0.47980(15) 0.8329(2)
O26_2 O 0.5635(4) 0.53295(15) 0.7753(3)
C36_4 C 0.3539(5) 0.53066(18) 0.7491(3)
O27_4 O 0.1327(4) 0.43616(15) 0.6744(3)
O28_4 O 0.1740(4) 0.50414(14) 0.6884(3)
C41_4 C 0.3416(4) 0.54528(18) 0.8033(3)
C42_4 C 0.3446(5) 0.56369(19) 0.7063(3)
N11_4 N 0.1249(4) 0.32078(17) 0.9604(2)
N15_4 N 0.3555(4) 0.51454(17) 0.8539(3)
C47_4 C 0.3167(4) 0.58811(18) 0.8146(3)
N16_4 N 0.3652(5) 0.55281(17) 0.6482(2)
C48_4 C 0.3143(5) 0.60609(18) 0.7152(3)
O29_4 O 0.1978(4) 0.33875(15) 0.9452(2)
O30_4 O 0.0336(4) 0.32462(16) 0.9353(2)
O35_4 O 0.6810(4) 0.03451(14) 0.6630(2)
O37_4 O 0.3291(4) 0.47650(13) 0.8452(2)
O38_4 O 0.3932(4) 0.52998(16) 0.9018(2)
H39_4 H 0.3124 0.5965 0.8522
C51_4 C 0.2983(4) 0.61838(17) 0.7699(3)
O39_4 O 0.3961(6) 0.51754(16) 0.6390(3)
O40_4 O 0.3580(10) 0.5812(2) 0.6138(3)
H40_4 H 0.3047 0.6263 0.6849
C54_4 C 0.2582(4) 0.66374(17) 0.7794(3)
O22_4 O 0.4381(3) 0.97684(13) 0.7185(2)
C35_4 C 0.6419(4) 0.98099(17) 0.7554(3)
C39_4 C 0.6443(4) 0.94872(18) 0.7991(3)
C40_4 C 0.6640(4) 0.96587(18) 0.7035(3)
N13_4 N 0.6165(5) 0.96047(16) 0.8550(2)
C45_4 C 0.6723(4) 0.90587(18) 0.7918(3)
N14_4 N 0.6607(4) 0.99593(15) 0.6541(2)
C46_4 C 0.6903(4) 0.92244(18) 0.6947(3)
O33_4 O 0.5790(4) 0.99645(14) 0.8604(2)
O34_4 O 0.6308(6) 0.93315(18) 0.8935(2)
H37_4 H 0.6746 0.8857 0.8219
C50_4 C 0.6970(4) 0.89265(17) 0.7397(2)
O36_4 O 0.6354(4) 0.98021(15) 0.6054(2)
H38_4 H 0.7034 0.9136 0.6589
C53_4 C 0.7342(4) 0.84683(17) 0.7319(3)
O26_3 O 0.0635(4) 0.96705(15) 0.2753(3)
C29_3 C 0.6158(6) 0.1894(3) 0.9829(3)
H26_3 H 0.6296 0.2173 0.9670
H27_3 H 0.5428 0.1830 0.9723
H28_3 H 0.6546 0.1669 0.9677
H33_3 H 0.0255 0.7032 0.2381
H34_3 H 0.0212 0.6715 0.2903
H20_3 H 0.9975 0.8285 0.2681
C29_4 C 0.3842(6) 0.8106(3) 0.0171(3)
H26_4 H 0.3704 0.7827 0.0330
H27_4 H 0.4572 0.8170 0.0277
H28_4 H 0.3454 0.8331 0.0323
O26_4 O 0.9365(4) 0.03295(15) 0.7247(3)
H20_4 H 0.0025 0.1715 0.7319
H33_4 H 0.9745 0.2968 0.7619
H34_4 H 0.9788 0.3285 0.7097
loop_
_geom_bond_atom_site_label_1
_geom_bond_atom_site_label_2
_geom_bond_site_symmetry_1
_geom_bond_site_symmetry_2
Gd1 O1 1_555 1_555
O3 Gd1 1_555 1_555
O4 Gd1 1_555 1_555
O5 Gd1 1_555 1_555
O6 Gd1 1_555 1_555
O7 Gd1 1_555 1_555
O8 Gd1 1_555 1_555
O9 Gd1 1_555 1_555
C2 O3 1_555 1_555
C4 O5 1_555 1_555
C5 O6 1_555 1_555
C7 C2 1_555 1_555
N1 C4 1_555 1_555
H1 C4 1_555 1_555
N2 C5 1_555 1_555
H2 C5 1_555 1_555
C14 C7 1_555 1_555
C17 N1 1_555 1_555
C18 N1 1_555 1_555
C19 N2 1_555 1_555
C20 N2 1_555 1_555
C24 C14 1_555 1_555
H8 C14 1_555 1_555
H9 C15 1_555 1_555
H11 C17 1_555 1_555
H12 C17 1_555 1_555
H13 C17 1_555 1_555
H14 C18 1_555 1_555
H15 C18 1_555 1_555
H16 C18 1_555 1_555
H17 C19 1_555 1_555
H18 C19 1_555 1_555
H19 C19 1_555 1_555
H20 C20 1_555 1_555
H21 C20 1_555 1_555
H22 C20 1_555 1_555
C32 C23 1_555 1_555
N8 C24 1_555 1_555
C35 C32 1_555 1_555
O23 N8 1_555 1_555
O24 N8 1_555 1_555
O25 N9 1_555 1_555
C39 C35 1_555 1_555
C40 C35 1_555 1_555
N13 C39 1_555 1_555
C45 C39 1_555 1_555
N14 C40 1_555 1_555
C46 C40 1_555 1_555
O33 N13 1_555 1_555
O34 N13 1_555 1_555
H37 C45 1_555 1_555
C50 C45 1_555 1_555
O35 N14 1_555 1_555
O36 N14 1_555 1_555
H38 C46 1_555 1_555
C53 C50 1_555 1_555
O43 C53 1_555 1_555
O44 C53 1_555 1_555
Gd5 O43 1_555 1_555
C24 C32 1_555 1_555
C46 C50 1_555 1_555
O44 Gd5 1_555 1_555
C1 O2 1_555 1_555
Gd2 O2 1_555 1_555
C6 C1 1_555 1_555
O10 Gd2 1_555 1_555
O11 Gd2 1_555 1_555
O12 Gd2 1_555 1_555
O13 Gd2 1_555 1_555
O14 Gd2 1_555 1_555
O15 Gd2 1_555 1_555
O16 Gd2 1_555 1_555
C8 C3 1_555 1_555
C9 C6 1_555 1_555
C10 C6 1_555 1_555
C11 O12 1_555 1_555
C12 O13 1_555 1_555
C16 C8 1_555 1_555
H3 C9 1_555 1_555
C21 C9 1_555 1_555
C22 C10 1_555 1_555
N3 C11 1_555 1_555
H5 C11 1_555 1_555
N4 C12 1_555 1_555
H6 C12 1_555 1_555
H7 C13 1_555 1_555
C26 C16 1_555 1_555
H10 C16 1_555 1_555
N5 C21 1_555 1_555
C27 C21 1_555 1_555
N6 C22 1_555 1_555
C28 N3 1_555 1_555
C30 N4 1_555 1_555
C31 N4 1_555 1_555
C33 C25 1_555 1_555
N10 C26 1_555 1_555
O17 N5 1_555 1_555
O18 N5 1_555 1_555
C34 C27 1_555 1_555
O19 N6 1_555 1_555
H23 C28 1_555 1_555
H24 C28 1_555 1_555
H25 C28 1_555 1_555
H29 C30 1_555 1_555
H30 C30 1_555 1_555
H31 C30 1_555 1_555
H32 C31 1_555 1_555
H33 C31 1_555 1_555
H34 C31 1_555 1_555
O21 N7 1_555 1_555
O22 N7 1_555 1_555
O27 N10 1_555 1_555
C37 C34 1_555 1_555
C38 C34 1_555 1_555
N11 C37 1_555 1_555
C43 C37 1_555 1_555
N12 C38 1_555 1_555
C44 C38 1_555 1_555
O29 N11 1_555 1_555
O30 N11 1_555 1_555
H35 C43 1_555 1_555
C49 C43 1_555 1_555
O31 N12 1_555 1_555
O32 N12 1_555 1_555
H36 C44 1_555 1_555
C52 C49 1_555 1_555
O41 C52 1_555 1_555
O42 C52 1_555 1_555
Gd3 O41 1_555 1_555
Gd4 O41 1_555 1_555
C3 O11 1_555 1_555
C22 C27 1_555 1_555
C26 C33 1_555 1_555
C44 C49 1_555 1_555
O42 Gd4 1_555 1_555
C41 C36 1_555 1_555
C42 C36 1_555 1_555
N15 C41 1_555 1_555
C47 C41 1_555 1_555
N16 C42 1_555 1_555
C48 C42 1_555 1_555
O38 N15 1_555 1_555
H39 C47 1_555 1_555
C51 C47 1_555 1_555
O39 N16 1_555 1_555
O40 N16 1_555 1_555
H40 C48 1_555 1_555
C54 C51 1_555 1_555
O45 C54 1_555 1_555
O46 C54 1_555 1_555
Gd6 O45 1_555 1_555
C48 C51 1_555 1_555
O46 Gd6 1_555 1_555
O42_2 Gd4_2 1_555 1_555
C39_2 C35_2 1_555 1_555
C40_2 C35_2 1_555 1_555
N13_2 C39_2 1_555 1_555
C45_2 C39_2 1_555 1_555
N14_2 C40_2 1_555 1_555
C46_2 C40_2 1_555 1_555
O33_2 N13_2 1_555 1_555
O34_2 N13_2 1_555 1_555
H37_2 C45_2 1_555 1_555
C50_2 C45_2 1_555 1_555
O36_2 N14_2 1_555 1_555
H38_2 C46_2 1_555 1_555
C53_2 C50_2 1_555 1_555
O8 C53_2 1_555 1_555
O9 C53_2 1_555 1_555
C46_2 C50_2 1_555 1_555
Gd5 O1_2 1_555 1_555
O1_2 C1_2 1_555 1_555
O2_2 Gd5 1_555 1_555
O3_2 Gd5 1_555 1_555
O4_2 Gd5 1_555 1_555
O5_2 Gd5 1_555 1_555
O6_2 Gd5 1_555 1_555
O7_2 Gd5 1_555 1_555
C1_2 O2_2 1_555 1_555
Gd6 O2_2 1_555 1_555
C2_2 O3_2 1_555 1_555
C3_2 O4_2 1_555 1_555
C4_2 O5_2 1_555 1_555
C5_2 O6_2 1_555 1_555
C6_2 C1_2 1_555 1_555
O10_2 Gd6 1_555 1_555
O11_2 Gd6 1_555 1_555
O12_2 Gd6 1_555 1_555
O13_2 Gd6 1_555 1_555
O14_2 Gd6 1_555 1_555
C7_2 C2_2 1_555 1_555
C8_2 C3_2 1_555 1_555
N1_2 C4_2 1_555 1_555
H1_2 C4_2 1_555 1_555
N2_2 C5_2 1_555 1_555
H2_2 C5_2 1_555 1_555
C9_2 C6_2 1_555 1_555
C10_2 C6_2 1_555 1_555
C11_2 O12_2 1_555 1_555
C12_2 O13_2 1_555 1_555
C13_2 C7_2 1_555 1_555
C14_2 C7_2 1_555 1_555
C15_2 C8_2 1_555 1_555
C16_2 C8_2 1_555 1_555
C17_2 N1_2 1_555 1_555
C18_2 N1_2 1_555 1_555
C19_2 N2_2 1_555 1_555
C20_2 N2_2 1_555 1_555
H3_2 C9_2 1_555 1_555
C21_2 C9_2 1_555 1_555
C22_2 C10_2 1_555 1_555
H4_2 C10_2 1_555 1_555
N3_2 C11_2 1_555 1_555
H5_2 C11_2 1_555 1_555
N4_2 C12_2 1_555 1_555
H6_2 C12_2 1_555 1_555
H7_2 C13_2 1_555 1_555
C23_2 C13_2 1_555 1_555
C24_2 C14_2 1_555 1_555
H8_2 C14_2 1_555 1_555
H9_2 C15_2 1_555 1_555
C25_2 C15_2 1_555 1_555
C26_2 C16_2 1_555 1_555
H10_2 C16_2 1_555 1_555
H11_2 C17_2 1_555 1_555
H12_2 C17_2 1_555 1_555
H13_2 C17_2 1_555 1_555
H14_2 C18_2 1_555 1_555
H15_2 C18_2 1_555 1_555
H16_2 C18_2 1_555 1_555
H17_2 C19_2 1_555 1_555
H18_2 C19_2 1_555 1_555
H19_2 C19_2 1_555 1_555
H21_2 C20_2 1_555 1_555
H22_2 C20_2 1_555 1_555
N5_2 C21_2 1_555 1_555
C27_2 C21_2 1_555 1_555
C28_2 N3_2 1_555 1_555
C29 N3_2 1_555 1_555
C30_2 N4_2 1_555 1_555
C31_2 N4_2 1_555 1_555
N7_2 C23_2 1_555 1_555
C32_2 C23_2 1_555 1_555
N8_2 C24_2 1_555 1_555
N9_2 C25_2 1_555 1_555
C33_2 C25_2 1_555 1_555
N10_2 C26_2 1_555 1_555
O17_2 N5_2 1_555 1_555
O18_2 N5_2 1_555 1_555
H23_2 C28_2 1_555 1_555
H24_2 C28_2 1_555 1_555
H25_2 C28_2 1_555 1_555
H26 C29 1_555 1_555
H27 C29 1_555 1_555
H28 C29 1_555 1_555
H29_2 C30_2 1_555 1_555
H30_2 C30_2 1_555 1_555
H31_2 C30_2 1_555 1_555
H32_2 C31_2 1_555 1_555
O21_2 N7_2 1_555 1_555
O23_2 N8_2 1_555 1_555
O24_2 N8_2 1_555 1_555
O25_2 N9_2 1_555 1_555
O26 N9_2 1_555 1_555
C36_2 C33_2 1_555 1_555
O27_2 N10_2 1_555 1_555
O28_2 N10_2 1_555 1_555
C41_2 C36_2 1_555 1_555
C42_2 C36_2 1_555 1_555
N15_2 C41_2 1_555 1_555
C47_2 C41_2 1_555 1_555
N16_2 C42_2 1_555 1_555
C48_2 C42_2 1_555 1_555
O29_2 N11_2 1_555 1_555
O30_2 N11_2 1_555 1_555
O37_2 N15_2 1_555 1_555
O38_2 N15_2 1_555 1_555
H39_2 C47_2 1_555 1_555
C51_2 C47_2 1_555 1_555
O39_2 N16_2 1_555 1_555
O40_2 N16_2 1_555 1_555
H40_2 C48_2 1_555 1_555
C54_2 C51_2 1_555 1_555
O15 C54_2 1_555 1_555
O16 C54_2 1_555 1_555
O7_2 Gd6 1_555 1_555
C2_2 O10_2 1_555 1_555
C3_2 O11_2 1_555 1_555
C22_2 C27_2 1_555 1_555
C24_2 C32_2 1_555 1_555
C26_2 C33_2 1_555 1_555
C48_2 C51_2 1_555 1_555
O19_2 N6_2 1_555 1_555
O20_2 N6_2 1_555 1_555
C37_2 C34_2 1_555 1_555
C38_2 C34_2 1_555 1_555
C43_2 C37_2 1_555 1_555
N12_2 C38_2 1_555 1_555
C44_2 C38_2 1_555 1_555
H35_2 C43_2 1_555 1_555
C49_2 C43_2 1_555 1_555
O31_2 N12_2 1_555 1_555
O32_2 N12_2 1_555 1_555
H36_2 C44_2 1_555 1_555
C52_2 C49_2 1_555 1_555
O41_2 C52_2 1_555 1_555
Gd3_2 O41_2 1_555 1_555
C44_2 C49_2 1_555 1_555
C41_3 C36_3 1_555 1_555
C42_3 C36_3 1_555 1_555
N15_3 C41_3 1_555 1_555
C47_3 C41_3 1_555 1_555
N16_3 C42_3 1_555 1_555
C48_3 C42_3 1_555 1_555
O38_3 N15_3 1_555 1_555
H39_3 C47_3 1_555 1_555
C51_3 C47_3 1_555 1_555
O39_3 N16_3 1_555 1_555
O40_3 N16_3 1_555 1_555
H40_3 C48_3 1_555 1_555
C54_3 C51_3 1_555 1_555
O45_2 C54_3 1_555 1_555
O46_2 C54_3 1_555 1_555
Gd4 O45_2 1_555 1_555
C48_3 C51_3 1_555 1_555
O46_2 Gd4 1_555 1_555
C1_3 O2_3 1_555 1_555
Gd4_2 O2_3 1_555 1_555
C6_3 C1_3 1_555 1_555
O10_3 Gd4_2 1_555 1_555
O11_3 Gd4_2 1_555 1_555
O12_3 Gd4_2 1_555 1_555
O13_3 Gd4_2 1_555 1_555
O15_2 Gd4_2 1_555 1_555
O16_2 Gd4_2 1_555 1_555
C8_3 C3_3 1_555 1_555
C9_3 C6_3 1_555 1_555
C10_3 C6_3 1_555 1_555
C11_3 O12_3 1_555 1_555
C12_3 O13_3 1_555 1_555
C16_3 C8_3 1_555 1_555
H3_3 C9_3 1_555 1_555
C21_3 C9_3 1_555 1_555
C22_3 C10_3 1_555 1_555
N3_3 C11_3 1_555 1_555
H5_3 C11_3 1_555 1_555
N4_3 C12_3 1_555 1_555
H6_3 C12_3 1_555 1_555
H7_3 C13_3 1_555 1_555
C26_3 C16_3 1_555 1_555
H10_3 C16_3 1_555 1_555
N5_3 C21_3 1_555 1_555
C27_3 C21_3 1_555 1_555
N6_3 C22_3 1_555 1_555
C28_3 N3_3 1_555 1_555
C30_3 N4_3 1_555 1_555
C31_3 N4_3 1_555 1_555
C33_3 C25_3 1_555 1_555
N10_3 C26_3 1_555 1_555
O17_3 N5_3 1_555 1_555
O18_3 N5_3 1_555 1_555
C34_3 C27_3 1_555 1_555
O19_3 N6_3 1_555 1_555
H23_3 C28_3 1_555 1_555
H24_3 C28_3 1_555 1_555
H25_3 C28_3 1_555 1_555
H29_3 C30_3 1_555 1_555
H30_3 C30_3 1_555 1_555
H31_3 C30_3 1_555 1_555
H32_3 C31_3 1_555 1_555
H33_2 C31_3 1_555 1_555
H34_2 C31_3 1_555 1_555
O21_3 N7_3 1_555 1_555
O22_3 N7_3 1_555 1_555
O27_3 N10_3 1_555 1_555
C37_3 C34_3 1_555 1_555
C38_3 C34_3 1_555 1_555
N11_3 C37_3 1_555 1_555
C43_3 C37_3 1_555 1_555
N12_3 C38_3 1_555 1_555
C44_3 C38_3 1_555 1_555
O29_3 N11_3 1_555 1_555
O30_3 N11_3 1_555 1_555
H35_3 C43_3 1_555 1_555
C49_3 C43_3 1_555 1_555
O31_3 N12_3 1_555 1_555
O32_3 N12_3 1_555 1_555
H36_3 C44_3 1_555 1_555
C52_3 C49_3 1_555 1_555
O7_2 C52_3 1_555 1_555
O14_2 C52_3 1_555 1_555
C3_3 O11_3 1_555 1_555
C22_3 C27_3 1_555 1_555
C26_3 C33_3 1_555 1_555
C44_3 C49_3 1_555 1_555
Gd3_2 O1_3 1_555 1_555
O3_3 Gd3_2 1_555 1_555
O4_3 Gd3_2 1_555 1_555
O5_3 Gd3_2 1_555 1_555
O6_3 Gd3_2 1_555 1_555
O8_2 Gd3_2 1_555 1_555
O9_2 Gd3_2 1_555 1_555
C2_3 O3_3 1_555 1_555
C4_3 O5_3 1_555 1_555
C5_3 O6_3 1_555 1_555
C7_3 C2_3 1_555 1_555
N1_3 C4_3 1_555 1_555
H1_3 C4_3 1_555 1_555
N2_3 C5_3 1_555 1_555
H2_3 C5_3 1_555 1_555
C14_3 C7_3 1_555 1_555
C17_3 N1_3 1_555 1_555
C18_3 N1_3 1_555 1_555
C19_3 N2_3 1_555 1_555
C20_3 N2_3 1_555 1_555
C24_3 C14_3 1_555 1_555
H8_3 C14_3 1_555 1_555
H9_3 C15_3 1_555 1_555
H11_3 C17_3 1_555 1_555
H12_3 C17_3 1_555 1_555
H13_3 C17_3 1_555 1_555
H14_3 C18_3 1_555 1_555
H15_3 C18_3 1_555 1_555
H16_3 C18_3 1_555 1_555
H17_3 C19_3 1_555 1_555
H18_3 C19_3 1_555 1_555
H19_3 C19_3 1_555 1_555
H20_2 C20_3 1_555 1_555
H21_3 C20_3 1_555 1_555
H22_3 C20_3 1_555 1_555
C32_3 C23_3 1_555 1_555
N8_3 C24_3 1_555 1_555
C35_3 C32_3 1_555 1_555
O23_3 N8_3 1_555 1_555
O24_3 N8_3 1_555 1_555
O25_3 N9_3 1_555 1_555
C39_3 C35_3 1_555 1_555
C40_3 C35_3 1_555 1_555
N13_3 C39_3 1_555 1_555
C45_3 C39_3 1_555 1_555
N14_3 C40_3 1_555 1_555
C46_3 C40_3 1_555 1_555
O33_3 N13_3 1_555 1_555
O34_3 N13_3 1_555 1_555
H37_3 C45_3 1_555 1_555
C50_3 C45_3 1_555 1_555
O35_3 N14_3 1_555 1_555
O36_3 N14_3 1_555 1_555
H38_3 C46_3 1_555 1_555
C53_3 C50_3 1_555 1_555
O43_2 C53_3 1_555 1_555
O44_2 C53_3 1_555 1_555
Gd3 O43_2 1_555 1_555
C24_3 C32_3 1_555 1_555
C46_3 C50_3 1_555 1_555
O44_2 Gd3 1_555 1_555
O19_4 N6_4 1_555 1_555
O20_4 N6_4 1_555 1_555
C37_4 C34_4 1_555 1_555
C38_4 C34_4 1_555 1_555
C43_4 C37_4 1_555 1_555
N12_4 C38_4 1_555 1_555
C44_4 C38_4 1_555 1_555
H35_4 C43_4 1_555 1_555
C49_4 C43_4 1_555 1_555
O31_4 N12_4 1_555 1_555
O32_4 N12_4 1_555 1_555
H36_4 C44_4 1_555 1_555
C52_4 C49_4 1_555 1_555
O7 C52_4 1_555 1_555
C44_4 C49_4 1_555 1_555
Gd3 O1_4 1_555 1_555
O1_4 C1_4 1_555 1_555
O2_4 Gd3 1_555 1_555
O3_4 Gd3 1_555 1_555
O4_4 Gd3 1_555 1_555
O5_4 Gd3 1_555 1_555
O6_4 Gd3 1_555 1_555
C1_4 O2_4 1_555 1_555
Gd4 O2_4 1_555 1_555
C2_4 O3_4 1_555 1_555
C3_4 O4_4 1_555 1_555
C4_4 O5_4 1_555 1_555
C5_4 O6_4 1_555 1_555
C6_4 C1_4 1_555 1_555
O10_4 Gd4 1_555 1_555
O11_4 Gd4 1_555 1_555
O12_4 Gd4 1_555 1_555
O13_4 Gd4 1_555 1_555
C7_4 C2_4 1_555 1_555
C8_4 C3_4 1_555 1_555
N1_4 C4_4 1_555 1_555
H1_4 C4_4 1_555 1_555
N2_4 C5_4 1_555 1_555
H2_4 C5_4 1_555 1_555
C9_4 C6_4 1_555 1_555
C10_4 C6_4 1_555 1_555
C11_4 O12_4 1_555 1_555
C12_4 O13_4 1_555 1_555
C13_4 C7_4 1_555 1_555
C14_4 C7_4 1_555 1_555
C15_4 C8_4 1_555 1_555
C16_4 C8_4 1_555 1_555
C17_4 N1_4 1_555 1_555
C18_4 N1_4 1_555 1_555
C19_4 N2_4 1_555 1_555
C20_4 N2_4 1_555 1_555
H3_4 C9_4 1_555 1_555
C21_4 C9_4 1_555 1_555
C22_4 C10_4 1_555 1_555
H4_4 C10_4 1_555 1_555
N3_4 C11_4 1_555 1_555
H5_4 C11_4 1_555 1_555
N4_4 C12_4 1_555 1_555
H6_4 C12_4 1_555 1_555
H7_4 C13_4 1_555 1_555
C23_4 C13_4 1_555 1_555
C24_4 C14_4 1_555 1_555
H8_4 C14_4 1_555 1_555
H9_4 C15_4 1_555 1_555
C25_4 C15_4 1_555 1_555
C26_4 C16_4 1_555 1_555
H10_4 C16_4 1_555 1_555
H11_4 C17_4 1_555 1_555
H12_4 C17_4 1_555 1_555
H13_4 C17_4 1_555 1_555
H14_4 C18_4 1_555 1_555
H15_4 C18_4 1_555 1_555
H16_4 C18_4 1_555 1_555
H17_4 C19_4 1_555 1_555
H18_4 C19_4 1_555 1_555
H19_4 C19_4 1_555 1_555
H21_4 C20_4 1_555 1_555
H22_4 C20_4 1_555 1_555
N5_4 C21_4 1_555 1_555
C27_4 C21_4 1_555 1_555
C28_4 N3_4 1_555 1_555
C29_2 N3_4 1_555 1_555
C30_4 N4_4 1_555 1_555
C31_4 N4_4 1_555 1_555
N7_4 C23_4 1_555 1_555
C32_4 C23_4 1_555 1_555
N8_4 C24_4 1_555 1_555
N9_4 C25_4 1_555 1_555
C33_4 C25_4 1_555 1_555
N10_4 C26_4 1_555 1_555
O17_4 N5_4 1_555 1_555
O18_4 N5_4 1_555 1_555
H23_4 C28_4 1_555 1_555
H24_4 C28_4 1_555 1_555
H25_4 C28_4 1_555 1_555
H26_2 C29_2 1_555 1_555
H27_2 C29_2 1_555 1_555
H28_2 C29_2 1_555 1_555
H29_4 C30_4 1_555 1_555
H30_4 C30_4 1_555 1_555
H31_4 C30_4 1_555 1_555
H32_4 C31_4 1_555 1_555
O21_4 N7_4 1_555 1_555
O23_4 N8_4 1_555 1_555
O24_4 N8_4 1_555 1_555
O25_4 N9_4 1_555 1_555
O26_2 N9_4 1_555 1_555
C36_4 C33_4 1_555 1_555
O27_4 N10_4 1_555 1_555
O28_4 N10_4 1_555 1_555
C41_4 C36_4 1_555 1_555
C42_4 C36_4 1_555 1_555
N15_4 C41_4 1_555 1_555
C47_4 C41_4 1_555 1_555
N16_4 C42_4 1_555 1_555
C48_4 C42_4 1_555 1_555
O29_4 N11_4 1_555 1_555
O30_4 N11_4 1_555 1_555
O37_4 N15_4 1_555 1_555
O38_4 N15_4 1_555 1_555
H39_4 C47_4 1_555 1_555
C51_4 C47_4 1_555 1_555
O39_4 N16_4 1_555 1_555
O40_4 N16_4 1_555 1_555
H40_4 C48_4 1_555 1_555
C54_4 C51_4 1_555 1_555
O15_2 C54_4 1_555 1_555
O16_2 C54_4 1_555 1_555
C2_4 O10_4 1_555 1_555
C3_4 O11_4 1_555 1_555
C22_4 C27_4 1_555 1_555
C24_4 C32_4 1_555 1_555
C26_4 C33_4 1_555 1_555
C48_4 C51_4 1_555 1_555
C39_4 C35_4 1_555 1_555
C40_4 C35_4 1_555 1_555
N13_4 C39_4 1_555 1_555
C45_4 C39_4 1_555 1_555
N14_4 C40_4 1_555 1_555
C46_4 C40_4 1_555 1_555
O33_4 N13_4 1_555 1_555
O34_4 N13_4 1_555 1_555
H37_4 C45_4 1_555 1_555
C50_4 C45_4 1_555 1_555
O36_4 N14_4 1_555 1_555
H38_4 C46_4 1_555 1_555
C53_4 C50_4 1_555 1_555
O8_2 C53_4 1_555 1_555
O9_2 C53_4 1_555 1_555
C46_4 C50_4 1_555 1_555
H26_3 C29_3 1_555 1_555
H27_3 C29_3 1_555 1_555
H28_3 C29_3 1_555 1_555
H26_4 C29_4 1_555 1_555
H27_4 C29_4 1_555 1_555
H28_4 C29_4 1_555 1_555

#END
