
###############################################################################
#
# This file contains modified crystal structure data generated from the
# MOF subset of the Cambridge Structural Database (CSD) v543 
# hosted by the Cambridge Crystallographic Data Centre (CCDC).
#
# This work is licensed under the Creative Commons
# Attribution-NonCommercial-ShareAlike 4.0 International License.
# To view a copy of this license, visit
# http://creativecommons.org/licenses/by-nc-sa/4.0/
# or send a letter to
# Creative Commons, PO Box 1866, Mountain View, CA 94042, USA.
#
# CIF created using the CSD Python API on 29 September 2022
# The structure has been converted into the P1 space group
# The structure has a 3D framework
# The original CSD entry XEGJOK is in the monoclinic crystal system
# The framework has been calculated to contain at least 10.0% void space
# The void calculation uses a probe of radius 1.32A, grid spacing 0.4
#
###############################################################################

data_XEGJOK
_chemical_formula_moiety         '(C216 H160 Gd8 N64 O156)n'
_symmetry_cell_setting           triclinic
_symmetry_space_group_name_H-M   'P 1'
_symmetry_Int_Tables_number      1
_space_group_name_Hall           'P 1'
loop_
_symmetry_equiv_pos_site_id
_symmetry_equiv_pos_as_xyz
1 x,y,z
_cell_length_a                   24.428(7)
_cell_length_b                   30.251(7)
_cell_length_c                   13.356(3)
_cell_angle_alpha                90
_cell_angle_beta                 96.131(6)
_cell_angle_gamma                90
_cell_volume                     9813.25
loop_
_atom_site_label
_atom_site_type_symbol
_atom_site_fract_x
_atom_site_fract_y
_atom_site_fract_z
Gd6 Gd 0.77698(3) 0.238235(18) 0.14753(5)
O23 O 0.7286(5) 0.1811(3) 0.2388(8)
O26 O 0.8187(5) 0.1769(3) 0.2488(8)
O32 O 0.8026(8) 0.0280(3) 0.5554(9)
O33 O 0.6622(7) 0.0067(4) 0.4376(14)
O34 O 0.6349(7) 0.0720(5) 0.4204(13)
O36 O 0.9022(7) 0.0320(5) 0.3317(13)
N11 N 0.6664(7) 0.0436(4) 0.4071(12)
N12 N 0.8559(8) 0.0145(5) 0.3284(12)
C35 C 0.7603(7) 0.0268(4) 0.3648(11)
C36 C 0.7183(7) 0.0574(4) 0.3678(11)
C37 C 0.7221(7) 0.1000(4) 0.3375(10)
H23 H 0.6926 0.1192 0.3402
C38 C 0.7698(6) 0.1143(4) 0.3030(9)
C39 C 0.8134(6) 0.0868(4) 0.3038(10)
H24 H 0.8466 0.0971 0.2847
C40 C 0.8087(6) 0.0431(4) 0.3332(11)
C41 C 0.7732(9) 0.1612(5) 0.2626(11)
H13 H 0.7126 0.7002 0.0346
Gd5 Gd 0.27698(3) 0.738235(18) 0.14753(5)
O39 O 0.3675(4) 0.7350(3) 0.0822(8)
H26 H 0.4532 0.7101 0.0064
Gd1 Gd 0.77698(3) 0.761765(18) 0.64753(5)
O1 O 0.7754(4) 0.6857(3) 0.6084(7)
O2 O 0.7296(4) 0.6728(2) 0.4555(7)
O3 O 0.7714(5) 0.3189(3) 0.7612(8)
O4 O 0.6813(5) 0.3231(3) 0.7512(8)
O5 O 0.7991(7) 0.5671(5) 0.8429(10)
O6 O 0.7913(9) 0.5024(4) 0.8038(12)
O7 O 0.6576(8) 0.5282(5) 0.3808(12)
O8 O 0.6974(8) 0.4720(3) 0.4446(9)
O9 O 0.8378(7) 0.4933(4) 0.5624(14)
O10 O 0.8651(7) 0.4280(5) 0.5796(13)
O11 O 0.6507(6) 0.5251(4) 0.6855(13)
O12 O 0.5978(7) 0.4680(5) 0.6683(13)
O13 O 0.6947(4) 0.7544(3) 0.5403(7)
O14 O 0.6325(4) 0.7350(3) 0.4178(8)
O15 O 0.5574(13) 0.7936(13) 0.890(2)
O16 O 0.6200(10) 0.8191(9) 0.8410(17)
O17 O 0.4414(7) 0.6807(5) 0.6618(13)
O18 O 0.4521(8) 0.6915(8) 0.5101(16)
O19 O 0.7212(5) 0.7281(4) 0.7644(10)
O20 O 0.8365(6) 0.7268(3) 0.7725(9)
N1 N 0.7880(8) 0.5401(4) 0.7795(11)
N2 N 0.6948(7) 0.5093(4) 0.4427(11)
N3 N 0.8336(7) 0.4564(4) 0.5929(12)
N4 N 0.6441(8) 0.4855(5) 0.6716(12)
N5 N 0.5788(7) 0.7986(6) 0.8163(12)
N6 N 0.4671(7) 0.6960(7) 0.6003(17)
N7 N 0.6982(8) 0.6812(6) 0.8905(14)
N8 N 0.9135(12) 0.6955(9) 0.8533(18)
C1 C 0.7530(7) 0.6618(4) 0.5419(13)
C2 C 0.7507(7) 0.6126(4) 0.5625(10)
C3 C 0.7702(6) 0.5966(4) 0.6556(10)
H1 H 0.7856 0.6163 0.7041
C4 C 0.7678(7) 0.5533(4) 0.6796(11)
C5 C 0.7452(7) 0.5220(4) 0.6114(10)
C6 C 0.7241(7) 0.5387(4) 0.5196(11)
C7 C 0.7255(7) 0.5838(4) 0.4926(11)
H2 H 0.7100 0.5936 0.4299
C8 C 0.7397(7) 0.4732(4) 0.6352(11)
C9 C 0.7817(7) 0.4426(4) 0.6322(11)
C10 C 0.7779(7) 0.4000(4) 0.6625(10)
H3 H 0.8074 0.3808 0.6598
C11 C 0.7302(6) 0.3857(4) 0.6970(9)
C12 C 0.6866(6) 0.4132(4) 0.6962(10)
H4 H 0.6534 0.4029 0.7153
C13 C 0.6913(6) 0.4569(4) 0.6668(11)
C14 C 0.7268(9) 0.3388(5) 0.7374(11)
C15 C 0.6463(7) 0.7452(4) 0.5046(12)
C16 C 0.6038(6) 0.7456(4) 0.5795(11)
C17 C 0.6103(6) 0.7711(5) 0.6643(11)
H5 H 0.6418 0.7884 0.6777
C18 C 0.5702(6) 0.7715(5) 0.7306(11)
C19 C 0.5231(7) 0.7462(6) 0.7152(14)
C20 C 0.5149(7) 0.7228(5) 0.6240(12)
C21 C 0.5541(7) 0.7239(5) 0.5558(12)
H6 H 0.5468 0.7101 0.4936
C22 C 0.7106(10) 0.6933(6) 0.7946(17)
H7 H 0.7104 0.6703 0.7483
C23 C 0.6872(13) 0.6358(7) 0.911(2)
H8 H 0.6587 0.6250 0.8618
H9 H 0.6755 0.6332 0.9769
H10 H 0.7201 0.6187 0.9073
C24 C 0.6920(17) 0.7113(12) 0.975(3)
H11 H 0.6538 0.7135 0.9849
H12 H 0.7057 0.7401 0.9593
C25 C 0.8855(9) 0.7273(12) 0.789(2)
H14 H 0.9056 0.7487 0.7589
C26 C 0.971(2) 0.680(4) 0.849(5)
H15 H 0.9962 0.7031 0.8745
H16 H 0.9769 0.6740 0.7802
H17 H 0.9777 0.6541 0.8888
C27 C 0.8901(19) 0.6529(11) 0.881(4)
H18 H 0.8700 0.6398 0.8231
H19 H 0.8658 0.6577 0.9322
H20 H 0.9194 0.6334 0.9070
Gd2 Gd 0.72302(3) 0.738235(18) 0.35247(5)
Gd3 Gd 0.72302(3) 0.261765(18) 0.85247(5)
Gd4 Gd 0.22302(3) 0.761765(18) 0.85247(5)
O21 O 0.7246(4) 0.8143(3) 0.3916(7)
O22 O 0.7704(4) 0.8272(2) 0.5445(7)
O24 O 0.7286(5) 0.8189(3) 0.7388(8)
O25 O 0.7714(5) 0.6811(3) 0.2612(8)
O27 O 0.8187(5) 0.8231(3) 0.7488(8)
O28 O 0.6813(5) 0.6769(3) 0.2512(8)
O29 O 0.7009(7) 0.9329(5) 0.1571(10)
O30 O 0.7087(9) 0.9976(4) 0.1962(12)
O31 O 0.8424(8) 0.9718(5) 0.6192(12)
O35 O 0.8493(6) 0.9749(4) 0.3145(13)
O37 O 0.3053(4) 0.7544(3) 0.9597(7)
O38 O 0.8053(4) 0.7456(3) 0.4597(7)
O40 O 0.8675(4) 0.7650(3) 0.5822(8)
O41 O 0.4426(13) 0.7936(13) 0.610(2)
O42 O 0.3800(10) 0.8191(9) 0.6590(17)
O43 O 0.5586(7) 0.6807(5) 0.8382(13)
O44 O 0.5479(8) 0.6915(8) 0.9899(16)
O45 O 0.7788(5) 0.7719(4) 0.2356(10)
O46 O 0.6635(6) 0.7732(3) 0.2275(9)
N9 N 0.7120(8) 0.9599(4) 0.2205(11)
N10 N 0.8052(7) 0.9907(4) 0.5573(11)
N13 N 0.4212(7) 0.7986(6) 0.6837(12)
N14 N 0.5329(7) 0.6960(7) 0.8997(17)
N15 N 0.8018(8) 0.8188(6) 0.1095(14)
N16 N 0.5865(12) 0.8045(9) 0.1467(18)
C28 C 0.7470(7) 0.8382(4) 0.4581(13)
C29 C 0.7493(7) 0.8874(4) 0.4375(10)
C30 C 0.7298(6) 0.9034(4) 0.3444(10)
H21 H 0.7144 0.8837 0.2959
C31 C 0.7322(7) 0.9467(4) 0.3204(11)
C32 C 0.7548(7) 0.9780(4) 0.3886(10)
C33 C 0.7759(7) 0.9613(4) 0.4804(11)
C34 C 0.7745(7) 0.9162(4) 0.5074(11)
H22 H 0.7900 0.9064 0.5701
C42 C 0.3537(7) 0.7452(4) 0.9954(12)
C43 C 0.3962(6) 0.7456(4) 0.9205(11)
C44 C 0.3897(6) 0.7711(5) 0.8357(11)
H25 H 0.3582 0.7884 0.8223
C45 C 0.4298(6) 0.7715(5) 0.7694(11)
C46 C 0.4769(7) 0.7462(6) 0.7848(14)
C47 C 0.4851(7) 0.7228(5) 0.8760(12)
C48 C 0.4459(7) 0.7239(5) 0.9442(12)
C49 C 0.7894(10) 0.8067(6) 0.2054(17)
H27 H 0.7896 0.8297 0.2517
C50 C 0.8128(13) 0.8642(7) 0.089(2)
H28 H 0.8413 0.8750 0.1382
H29 H 0.8245 0.8668 0.0231
H30 H 0.7799 0.8813 0.0927
C51 C 0.8080(17) 0.7887(12) 0.025(3)
H31 H 0.8462 0.7865 0.0151
H32 H 0.7943 0.7599 0.0407
C52 C 0.6145(9) 0.7727(12) 0.211(2)
H34 H 0.5944 0.7513 0.2411
C53 C 0.529(2) 0.820(4) 0.151(5)
H35 H 0.5038 0.7969 0.1255
H36 H 0.5231 0.8260 0.2198
H37 H 0.5223 0.8459 0.1112
C54 C 0.6099(19) 0.8471(11) 0.119(4)
H38 H 0.6300 0.8602 0.1769
H39 H 0.6342 0.8423 0.0678
H40 H 0.5806 0.8666 0.0930
Gd6_2 Gd 0.22302(3) 0.238235(18) 0.35247(5)
O23_2 O 0.2714(5) 0.1811(3) 0.2612(8)
O26_2 O 0.1813(5) 0.1769(3) 0.2512(8)
O33_2 O 0.3378(7) 0.0067(4) 0.0624(14)
O34_2 O 0.3651(7) 0.0720(5) 0.0796(13)
O36_2 O 0.0978(7) 0.0320(5) 0.1683(13)
N11_2 N 0.3336(7) 0.0436(4) 0.0929(12)
N12_2 N 0.1441(8) 0.0145(5) 0.1716(12)
C35_2 C 0.2397(7) 0.0268(4) 0.1352(11)
C36_2 C 0.2817(7) 0.0574(4) 0.1322(11)
C37_2 C 0.2779(7) 0.1000(4) 0.1625(10)
H23_2 H 0.3074 0.1192 0.1598
C38_2 C 0.2302(6) 0.1143(4) 0.1970(9)
C39_2 C 0.1866(6) 0.0868(4) 0.1962(10)
H24_2 H 0.1534 0.0971 0.2153
C40_2 C 0.1913(6) 0.0431(4) 0.1668(11)
C41_2 C 0.2268(9) 0.1612(5) 0.2374(11)
O2_2 O 0.2704(4) 0.6728(2) 0.0445(7)
O7_2 O 0.3424(8) 0.5282(5) 0.1192(12)
O8_2 O 0.3026(8) 0.4720(3) 0.0554(9)
N2_2 N 0.3052(7) 0.5093(4) 0.0573(11)
C7_2 C 0.2745(7) 0.5838(4) 0.0074(11)
H2_2 H 0.2900 0.5936 0.0701
O21_2 O 0.2754(4) 0.8143(3) 0.1084(7)
O25_2 O 0.2286(5) 0.6811(3) 0.2388(8)
O28_2 O 0.3187(5) 0.6769(3) 0.2488(8)
O29_2 O 0.2991(7) 0.9329(5) 0.3429(10)
O30_2 O 0.2913(9) 0.9976(4) 0.3038(12)
O35_2 O 0.1507(6) 0.9749(4) 0.1855(13)
O38_2 O 0.1947(4) 0.7456(3) 0.0403(7)
O45_2 O 0.2212(5) 0.7719(4) 0.2644(10)
O46_2 O 0.3365(6) 0.7732(3) 0.2725(9)
N9_2 N 0.2880(8) 0.9599(4) 0.2795(11)
N15_2 N 0.1982(8) 0.8188(6) 0.3905(14)
N16_2 N 0.4135(12) 0.8045(9) 0.3533(18)
C28_2 C 0.2530(7) 0.8382(4) 0.0419(13)
C29_2 C 0.2507(7) 0.8874(4) 0.0625(10)
C30_2 C 0.2702(6) 0.9034(4) 0.1556(10)
H21_2 H 0.2856 0.8837 0.2041
C31_2 C 0.2678(7) 0.9467(4) 0.1796(11)
C32_2 C 0.2452(7) 0.9780(4) 0.1114(10)
C33_2 C 0.2241(7) 0.9613(4) 0.0196(11)
C49_2 C 0.2106(10) 0.8067(6) 0.2946(17)
H27_2 H 0.2104 0.8297 0.2483
C50_2 C 0.1872(13) 0.8642(7) 0.411(2)
H28_2 H 0.1587 0.8750 0.3618
H29_2 H 0.1755 0.8668 0.4769
H30_2 H 0.2201 0.8813 0.4073
C51_2 C 0.1920(17) 0.7887(12) 0.475(3)
H31_2 H 0.1538 0.7865 0.4849
H32_2 H 0.2057 0.7599 0.4593
H33 H 0.2126 0.7998 0.5346
C52_2 C 0.3855(9) 0.7727(12) 0.289(2)
H34_2 H 0.4056 0.7513 0.2589
C53_2 C 0.471(2) 0.820(4) 0.349(5)
H35_2 H 0.4962 0.7969 0.3745
H36_2 H 0.4769 0.8260 0.2802
H37_2 H 0.4777 0.8459 0.3888
C54_2 C 0.3901(19) 0.8471(11) 0.381(4)
H38_2 H 0.3700 0.8602 0.3231
H39_2 H 0.3658 0.8423 0.4322
H40_2 H 0.4194 0.8666 0.4070
O1_2 O 0.2246(4) 0.6857(3) 0.8916(7)
O3_2 O 0.2286(5) 0.3189(3) 0.7388(8)
O4_2 O 0.3187(5) 0.3231(3) 0.7488(8)
O5_2 O 0.2009(7) 0.5671(5) 0.6571(10)
O6_2 O 0.2087(9) 0.5024(4) 0.6962(12)
O9_2 O 0.1622(7) 0.4933(4) 0.9376(14)
O10_2 O 0.1349(7) 0.4280(5) 0.9204(13)
O11_2 O 0.3493(6) 0.5251(4) 0.8145(13)
O12_2 O 0.4022(7) 0.4680(5) 0.8317(13)
O19_2 O 0.2788(5) 0.7281(4) 0.7356(10)
O20_2 O 0.1635(6) 0.7268(3) 0.7275(9)
N1_2 N 0.2120(8) 0.5401(4) 0.7205(11)
N3_2 N 0.1664(7) 0.4564(4) 0.9071(12)
N4_2 N 0.3559(8) 0.4855(5) 0.8284(12)
N7_2 N 0.3018(8) 0.6812(6) 0.6095(14)
N8_2 N 0.0865(12) 0.6955(9) 0.6467(18)
C1_2 C 0.2470(7) 0.6618(4) 0.9581(13)
C2_2 C 0.2493(7) 0.6126(4) 0.9375(10)
C3_2 C 0.2298(6) 0.5966(4) 0.8444(10)
H1_2 H 0.2144 0.6163 0.7959
C4_2 C 0.2322(7) 0.5533(4) 0.8204(11)
C5_2 C 0.2548(7) 0.5220(4) 0.8886(10)
C6_2 C 0.2759(7) 0.5387(4) 0.9804(11)
C8_2 C 0.2603(7) 0.4732(4) 0.8648(11)
C9_2 C 0.2183(7) 0.4426(4) 0.8678(11)
C10_2 C 0.2221(7) 0.4000(4) 0.8375(10)
H3_2 H 0.1926 0.3808 0.8402
C11_2 C 0.2698(6) 0.3857(4) 0.8030(9)
C12_2 C 0.3134(6) 0.4132(4) 0.8038(10)
H4_2 H 0.3466 0.4029 0.7847
C13_2 C 0.3087(6) 0.4569(4) 0.8332(11)
C14_2 C 0.2732(9) 0.3388(5) 0.7626(11)
C22_2 C 0.2894(10) 0.6933(6) 0.7054(17)
H7_2 H 0.2896 0.6703 0.7517
C23_2 C 0.3128(13) 0.6358(7) 0.589(2)
H8_2 H 0.3413 0.6250 0.6382
H9_2 H 0.3245 0.6332 0.5231
H10_2 H 0.2799 0.6187 0.5927
C24_2 C 0.3080(17) 0.7113(12) 0.525(3)
H11_2 H 0.3462 0.7135 0.5151
H12_2 H 0.2943 0.7401 0.5407
H13_2 H 0.2874 0.7002 0.4654
C25_2 C 0.1145(9) 0.7273(12) 0.711(2)
H14_2 H 0.0944 0.7487 0.7411
C26_2 C 0.029(2) 0.680(4) 0.651(5)
H15_2 H 0.0038 0.7031 0.6255
H16_2 H 0.0231 0.6740 0.7198
H17_2 H 0.0223 0.6541 0.6112
C27_2 C 0.1099(19) 0.6529(11) 0.619(4)
H18_2 H 0.1300 0.6398 0.6769
H19_2 H 0.1342 0.6577 0.5678
H20_2 H 0.0806 0.6334 0.5930
Gd3_2 Gd 0.27698(3) 0.261765(18) 0.64753(5)
O22_2 O 0.2296(4) 0.8272(2) 0.9555(7)
O24_2 O 0.2714(5) 0.8189(3) 0.7612(8)
O27_2 O 0.1813(5) 0.8231(3) 0.7512(8)
O31_2 O 0.1576(8) 0.9718(5) 0.8808(12)
O40_2 O 0.1325(4) 0.7650(3) 0.9178(8)
N10_2 N 0.1948(7) 0.9907(4) 0.9427(11)
C34_2 C 0.2255(7) 0.9162(4) 0.9926(11)
H22_2 H 0.2100 0.9064 0.9299
O1_3 O 0.2754(4) 0.1857(3) 0.6084(7)
O2_3 O 0.2296(4) 0.1728(2) 0.4555(7)
O5_3 O 0.2991(7) 0.0671(5) 0.8429(10)
O6_3 O 0.2913(9) 0.0024(4) 0.8038(12)
O7_3 O 0.1576(8) 0.0282(5) 0.3808(12)
O11_3 O 0.1507(6) 0.0251(4) 0.6855(13)
O13_2 O 0.1947(4) 0.2544(3) 0.5403(7)
O14_2 O 0.1325(4) 0.2350(3) 0.4178(8)
O15_2 O 0.0574(13) 0.2936(13) 0.890(2)
O16_2 O 0.1200(10) 0.3191(9) 0.8410(17)
O19_3 O 0.2212(5) 0.2281(4) 0.7644(10)
O20_3 O 0.3365(6) 0.2268(3) 0.7725(9)
N1_3 N 0.2880(8) 0.0401(4) 0.7795(11)
N2_3 N 0.1948(7) 0.0093(4) 0.4427(11)
N5_2 N 0.0788(7) 0.2986(6) 0.8163(12)
N7_3 N 0.1982(8) 0.1812(6) 0.8905(14)
N8_3 N 0.4135(12) 0.1955(9) 0.8533(18)
C1_3 C 0.2530(7) 0.1618(4) 0.5419(13)
C2_3 C 0.2507(7) 0.1126(4) 0.5625(10)
C3_3 C 0.2702(6) 0.0966(4) 0.6556(10)
H1_3 H 0.2856 0.1163 0.7041
C4_3 C 0.2678(7) 0.0533(4) 0.6796(11)
C5_3 C 0.2452(7) 0.0220(4) 0.6114(10)
C6_3 C 0.2241(7) 0.0387(4) 0.5196(11)
C7_3 C 0.2255(7) 0.0838(4) 0.4926(11)
H2_3 H 0.2100 0.0936 0.4299
C15_2 C 0.1463(7) 0.2452(4) 0.5046(12)
C16_2 C 0.1038(6) 0.2456(4) 0.5795(11)
C17_2 C 0.1103(6) 0.2711(5) 0.6643(11)
H5_2 H 0.1418 0.2884 0.6777
C18_2 C 0.0702(6) 0.2715(5) 0.7306(11)
C19_2 C 0.0231(7) 0.2462(6) 0.7152(14)
C20_2 C 0.0149(7) 0.2228(5) 0.6240(12)
C21_2 C 0.0541(7) 0.2239(5) 0.5558(12)
H6_2 H 0.0468 0.2101 0.4936
C22_3 C 0.2106(10) 0.1933(6) 0.7946(17)
H7_3 H 0.2104 0.1703 0.7483
C23_3 C 0.1872(13) 0.1358(7) 0.911(2)
H8_3 H 0.1587 0.1250 0.8618
H9_3 H 0.1755 0.1332 0.9769
H10_3 H 0.2201 0.1187 0.9073
C24_3 C 0.1920(17) 0.2113(12) 0.975(3)
H11_3 H 0.1538 0.2135 0.9849
H12_3 H 0.2057 0.2401 0.9593
C25_3 C 0.3855(9) 0.2273(12) 0.789(2)
H14_3 H 0.4056 0.2487 0.7589
C26_3 C 0.471(2) 0.180(4) 0.849(5)
H15_3 H 0.4962 0.2031 0.8745
H16_3 H 0.4769 0.1740 0.7802
H17_3 H 0.4777 0.1541 0.8888
C27_3 C 0.3901(19) 0.1529(11) 0.881(4)
H18_3 H 0.3700 0.1398 0.8231
H19_3 H 0.3658 0.1577 0.9322
H20_3 H 0.4194 0.1334 0.9070
O21_3 O 0.2246(4) 0.3143(3) 0.3916(7)
O22_3 O 0.2704(4) 0.3272(2) 0.5445(7)
O29_3 O 0.2009(7) 0.4329(5) 0.1571(10)
O30_3 O 0.2087(9) 0.4976(4) 0.1962(12)
O31_3 O 0.3424(8) 0.4718(5) 0.6192(12)
O32_2 O 0.3026(8) 0.5280(3) 0.5554(9)
O33_3 O 0.1622(7) 0.5067(4) 0.4376(14)
O34_3 O 0.1349(7) 0.5720(5) 0.4204(13)
O35_3 O 0.3493(6) 0.4749(4) 0.3145(13)
O36_3 O 0.4022(7) 0.5320(5) 0.3317(13)
O38_3 O 0.3053(4) 0.2456(3) 0.4597(7)
O40_3 O 0.3675(4) 0.2650(3) 0.5822(8)
O43_2 O 0.0586(7) 0.1807(5) 0.8382(13)
O44_2 O 0.0479(8) 0.1915(8) 0.9899(16)
O45_3 O 0.2788(5) 0.2719(4) 0.2356(10)
O46_3 O 0.1635(6) 0.2732(3) 0.2275(9)
N9_3 N 0.2120(8) 0.4599(4) 0.2205(11)
N10_3 N 0.3052(7) 0.4907(4) 0.5573(11)
N11_3 N 0.1664(7) 0.5436(4) 0.4071(12)
N12_3 N 0.3559(8) 0.5145(5) 0.3284(12)
N14_2 N 0.0329(7) 0.1960(7) 0.8997(17)
N15_3 N 0.3018(8) 0.3188(6) 0.1095(14)
N16_3 N 0.0865(12) 0.3045(9) 0.1467(18)
C28_3 C 0.2470(7) 0.3382(4) 0.4581(13)
C29_3 C 0.2493(7) 0.3874(4) 0.4375(10)
C30_3 C 0.2298(6) 0.4034(4) 0.3444(10)
H21_3 H 0.2144 0.3837 0.2959
C31_3 C 0.2322(7) 0.4467(4) 0.3204(11)
C32_3 C 0.2548(7) 0.4780(4) 0.3886(10)
C33_3 C 0.2759(7) 0.4613(4) 0.4804(11)
C34_3 C 0.2745(7) 0.4162(4) 0.5074(11)
H22_3 H 0.2900 0.4064 0.5701
C35_3 C 0.2603(7) 0.5268(4) 0.3648(11)
C36_3 C 0.2183(7) 0.5574(4) 0.3678(11)
C37_3 C 0.2221(7) 0.6000(4) 0.3375(10)
H23_3 H 0.1926 0.6192 0.3402
C38_3 C 0.2698(6) 0.6143(4) 0.3030(9)
C39_3 C 0.3134(6) 0.5868(4) 0.3038(10)
H24_3 H 0.3466 0.5971 0.2847
C40_3 C 0.3087(6) 0.5431(4) 0.3332(11)
C41_3 C 0.2732(9) 0.6612(5) 0.2626(11)
C49_3 C 0.2894(10) 0.3067(6) 0.2054(17)
H27_3 H 0.2896 0.3297 0.2517
C50_3 C 0.3128(13) 0.3642(7) 0.089(2)
H28_3 H 0.3413 0.3750 0.1382
H29_3 H 0.3245 0.3668 0.0231
H30_3 H 0.2799 0.3813 0.0927
C51_3 C 0.3080(17) 0.2887(12) 0.025(3)
H31_3 H 0.3462 0.2865 0.0151
H32_3 H 0.2943 0.2599 0.0407
C52_3 C 0.1145(9) 0.2727(12) 0.211(2)
H34_3 H 0.0944 0.2513 0.2411
C53_3 C 0.029(2) 0.320(4) 0.151(5)
H35_3 H 0.0038 0.2969 0.1255
H36_3 H 0.0231 0.3260 0.2198
H37_3 H 0.0223 0.3459 0.1112
C54_3 C 0.1099(19) 0.3471(11) 0.119(4)
H38_3 H 0.1300 0.3602 0.1769
H39_3 H 0.1342 0.3423 0.0678
H40_3 H 0.0806 0.3666 0.0930
H33_2 H 0.2874 0.2998 0.9654
O8_3 O 0.1974(8) 0.9720(3) 0.4446(9)
O9_3 O 0.3378(7) 0.9933(4) 0.5624(14)
O10_3 O 0.3651(7) 0.9280(5) 0.5796(13)
O12_3 O 0.0978(7) 0.9680(5) 0.6683(13)
N3_3 N 0.3336(7) 0.9564(4) 0.5929(12)
N4_3 N 0.1441(8) 0.9855(5) 0.6716(12)
C8_3 C 0.2397(7) 0.9732(4) 0.6352(11)
C9_3 C 0.2817(7) 0.9426(4) 0.6322(11)
C10_3 C 0.2779(7) 0.9000(4) 0.6625(10)
H3_3 H 0.3074 0.8808 0.6598
C11_3 C 0.2302(6) 0.8857(4) 0.6970(9)
C12_3 C 0.1866(6) 0.9132(4) 0.6962(10)
H4_3 H 0.1534 0.9029 0.7153
C13_3 C 0.1913(6) 0.9569(4) 0.6668(11)
C14_3 C 0.2268(9) 0.8388(5) 0.7374(11)
O39_2 O 0.8675(4) 0.2350(3) 0.0822(8)
H26_2 H 0.9532 0.2101 0.0064
O17_2 O 0.9414(7) 0.1807(5) 0.6618(13)
O18_2 O 0.9521(8) 0.1915(8) 0.5101(16)
N6_2 N 0.9671(7) 0.1960(7) 0.6003(17)
O37_2 O 0.8053(4) 0.2544(3) 0.9597(7)
O41_2 O 0.9426(13) 0.2936(13) 0.610(2)
O42_2 O 0.8800(10) 0.3191(9) 0.6590(17)
N13_2 N 0.9212(7) 0.2986(6) 0.6837(12)
C42_2 C 0.8537(7) 0.2452(4) 0.9954(12)
C43_2 C 0.8962(6) 0.2456(4) 0.9205(11)
C44_2 C 0.8897(6) 0.2711(5) 0.8357(11)
H25_2 H 0.8582 0.2884 0.8223
C45_2 C 0.9298(6) 0.2715(5) 0.7694(11)
C46_2 C 0.9769(7) 0.2462(6) 0.7848(14)
C47_2 C 0.9851(7) 0.2228(5) 0.8760(12)
C48_2 C 0.9459(7) 0.2239(5) 0.9442(12)
O2_4 O 0.7704(4) 0.1728(2) 0.0445(7)
O7_4 O 0.8424(8) 0.0282(5) 0.1192(12)
N2_4 N 0.8052(7) 0.0093(4) 0.0573(11)
C7_4 C 0.7745(7) 0.0838(4) 0.0074(11)
H2_4 H 0.7900 0.0936 0.0701
O21_4 O 0.7754(4) 0.3143(3) 0.1084(7)
O29_4 O 0.7991(7) 0.4329(5) 0.3429(10)
O30_4 O 0.7913(9) 0.4976(4) 0.3038(12)
O33_4 O 0.8378(7) 0.5067(4) 0.0624(14)
O34_4 O 0.8651(7) 0.5720(5) 0.0796(13)
O35_4 O 0.6507(6) 0.4749(4) 0.1855(13)
O36_4 O 0.5978(7) 0.5320(5) 0.1683(13)
O38_4 O 0.6947(4) 0.2456(3) 0.0403(7)
O45_4 O 0.7212(5) 0.2719(4) 0.2644(10)
O46_4 O 0.8365(6) 0.2732(3) 0.2725(9)
N9_4 N 0.7880(8) 0.4599(4) 0.2795(11)
N11_4 N 0.8336(7) 0.5436(4) 0.0929(12)
N12_4 N 0.6441(8) 0.5145(5) 0.1716(12)
N15_4 N 0.6982(8) 0.3188(6) 0.3905(14)
N16_4 N 0.9135(12) 0.3045(9) 0.3533(18)
C28_4 C 0.7530(7) 0.3382(4) 0.0419(13)
C29_4 C 0.7507(7) 0.3874(4) 0.0625(10)
C30_4 C 0.7702(6) 0.4034(4) 0.1556(10)
H21_4 H 0.7856 0.3837 0.2041
C31_4 C 0.7678(7) 0.4467(4) 0.1796(11)
C32_4 C 0.7452(7) 0.4780(4) 0.1114(10)
C33_4 C 0.7241(7) 0.4613(4) 0.0196(11)
C35_4 C 0.7397(7) 0.5268(4) 0.1352(11)
C36_4 C 0.7817(7) 0.5574(4) 0.1322(11)
C37_4 C 0.7779(7) 0.6000(4) 0.1625(10)
H23_4 H 0.8074 0.6192 0.1598
C38_4 C 0.7302(6) 0.6143(4) 0.1970(9)
C39_4 C 0.6866(6) 0.5868(4) 0.1962(10)
H24_4 H 0.6534 0.5971 0.2153
C40_4 C 0.6913(6) 0.5431(4) 0.1668(11)
C41_4 C 0.7268(9) 0.6612(5) 0.2374(11)
C49_4 C 0.7106(10) 0.3067(6) 0.2946(17)
H27_4 H 0.7104 0.3297 0.2483
C50_4 C 0.6872(13) 0.3642(7) 0.411(2)
H28_4 H 0.6587 0.3750 0.3618
H29_4 H 0.6755 0.3668 0.4769
H30_4 H 0.7201 0.3813 0.4073
C51_4 C 0.6920(17) 0.2887(12) 0.475(3)
H31_4 H 0.6538 0.2865 0.4849
H32_4 H 0.7057 0.2599 0.4593
H33_3 H 0.7126 0.2998 0.5346
C52_4 C 0.8855(9) 0.2727(12) 0.289(2)
H34_4 H 0.9056 0.2513 0.2589
C53_4 C 0.971(2) 0.320(4) 0.349(5)
H35_4 H 0.9962 0.2969 0.3745
H36_4 H 0.9769 0.3260 0.2802
H37_4 H 0.9777 0.3459 0.3888
C54_4 C 0.8901(19) 0.3471(11) 0.381(4)
H38_4 H 0.8700 0.3602 0.3231
H39_4 H 0.8658 0.3423 0.4322
H40_4 H 0.9194 0.3666 0.4070
O1_4 O 0.7246(4) 0.1857(3) 0.8916(7)
O5_4 O 0.7009(7) 0.0671(5) 0.6571(10)
O6_4 O 0.7087(9) 0.0024(4) 0.6962(12)
O11_4 O 0.8493(6) 0.0251(4) 0.8145(13)
O19_4 O 0.7788(5) 0.2281(4) 0.7356(10)
O20_4 O 0.6635(6) 0.2268(3) 0.7275(9)
N1_4 N 0.7120(8) 0.0401(4) 0.7205(11)
N7_4 N 0.8018(8) 0.1812(6) 0.6095(14)
N8_4 N 0.5865(12) 0.1955(9) 0.6467(18)
C1_4 C 0.7470(7) 0.1618(4) 0.9581(13)
C2_4 C 0.7493(7) 0.1126(4) 0.9375(10)
C3_4 C 0.7298(6) 0.0966(4) 0.8444(10)
H1_4 H 0.7144 0.1163 0.7959
C4_4 C 0.7322(7) 0.0533(4) 0.8204(11)
C5_4 C 0.7548(7) 0.0220(4) 0.8886(10)
C6_4 C 0.7759(7) 0.0387(4) 0.9804(11)
C22_4 C 0.7894(10) 0.1933(6) 0.7054(17)
H7_4 H 0.7896 0.1703 0.7517
C23_4 C 0.8128(13) 0.1358(7) 0.589(2)
H8_4 H 0.8413 0.1250 0.6382
H9_4 H 0.8245 0.1332 0.5231
H10_4 H 0.7799 0.1187 0.5927
C24_4 C 0.8080(17) 0.2113(12) 0.525(3)
H11_4 H 0.8462 0.2135 0.5151
H12_4 H 0.7943 0.2401 0.5407
H13_3 H 0.7874 0.2002 0.4654
C25_4 C 0.6145(9) 0.2273(12) 0.711(2)
H14_4 H 0.5944 0.2487 0.7411
C26_4 C 0.529(2) 0.180(4) 0.651(5)
H15_4 H 0.5038 0.2031 0.6255
H16_4 H 0.5231 0.1740 0.7198
H17_4 H 0.5223 0.1541 0.6112
C27_4 C 0.6099(19) 0.1529(11) 0.619(4)
H18_4 H 0.6300 0.1398 0.6769
H19_4 H 0.6342 0.1577 0.5678
H20_4 H 0.5806 0.1334 0.5930
O22_4 O 0.7296(4) 0.3272(2) 0.9555(7)
O31_4 O 0.6576(8) 0.4718(5) 0.8808(12)
O32_3 O 0.6974(8) 0.5280(3) 0.9446(9)
O40_4 O 0.6325(4) 0.2650(3) 0.9178(8)
N10_4 N 0.6948(7) 0.4907(4) 0.9427(11)
C34_4 C 0.7255(7) 0.4162(4) 0.9926(11)
H22_4 H 0.7100 0.4064 0.9299
O9_4 O 0.6622(7) 0.9933(4) 0.9376(14)
O10_4 O 0.6349(7) 0.9280(5) 0.9204(13)
O12_4 O 0.9022(7) 0.9680(5) 0.8317(13)
N3_4 N 0.6664(7) 0.9564(4) 0.9071(12)
N4_4 N 0.8559(8) 0.9855(5) 0.8284(12)
C8_4 C 0.7603(7) 0.9732(4) 0.8648(11)
C9_4 C 0.7183(7) 0.9426(4) 0.8678(11)
C10_4 C 0.7221(7) 0.9000(4) 0.8375(10)
H3_4 H 0.6926 0.8808 0.8402
C11_4 C 0.7698(6) 0.8857(4) 0.8030(9)
C12_4 C 0.8134(6) 0.9132(4) 0.8038(10)
H4_4 H 0.8466 0.9029 0.7847
C13_4 C 0.8087(6) 0.9569(4) 0.8332(11)
C14_4 C 0.7732(9) 0.8388(5) 0.7626(11)
O15_3 O 0.4426(13) 0.2064(13) 0.110(2)
O16_3 O 0.3800(10) 0.1809(9) 0.1590(17)
O17_3 O 0.5586(7) 0.3193(5) 0.3382(13)
O18_3 O 0.5479(8) 0.3085(8) 0.4899(16)
N5_3 N 0.4212(7) 0.2014(6) 0.1837(12)
N6_3 N 0.5329(7) 0.3040(7) 0.3997(17)
C15_3 C 0.3537(7) 0.2548(4) 0.4954(12)
C16_3 C 0.3962(6) 0.2544(4) 0.4205(11)
C17_3 C 0.3897(6) 0.2289(5) 0.3357(11)
H5_3 H 0.3582 0.2116 0.3223
C18_3 C 0.4298(6) 0.2285(5) 0.2694(11)
C19_3 C 0.4769(7) 0.2538(6) 0.2848(14)
C20_3 C 0.4851(7) 0.2772(5) 0.3760(12)
C21_3 C 0.4459(7) 0.2761(5) 0.4442(12)
H6_3 H 0.4532 0.2899 0.5064
O41_3 O 0.5574(13) 0.2064(13) 0.390(2)
O42_3 O 0.6200(10) 0.1809(9) 0.3410(17)
O43_3 O 0.4414(7) 0.3193(5) 0.1618(13)
O44_3 O 0.4521(8) 0.3085(8) 0.0101(16)
N13_3 N 0.5788(7) 0.2014(6) 0.3163(12)
N14_3 N 0.4671(7) 0.3040(7) 0.1003(17)
C42_3 C 0.6463(7) 0.2548(4) 0.0046(12)
C43_3 C 0.6038(6) 0.2544(4) 0.0795(11)
C44_3 C 0.6103(6) 0.2289(5) 0.1643(11)
H25_3 H 0.6418 0.2116 0.1777
C45_3 C 0.5702(6) 0.2285(5) 0.2306(11)
C46_3 C 0.5231(7) 0.2538(6) 0.2152(14)
C47_3 C 0.5149(7) 0.2772(5) 0.1240(12)
C48_3 C 0.5541(7) 0.2761(5) 0.0558(12)
H26_3 H 0.5468 0.2899 0.9936
O17_4 O 0.0586(7) 0.8193(5) 0.3382(13)
O18_4 O 0.0479(8) 0.8085(8) 0.4899(16)
N6_4 N 0.0329(7) 0.8040(7) 0.3997(17)
O41_4 O 0.0574(13) 0.7064(13) 0.390(2)
O42_4 O 0.1200(10) 0.6809(9) 0.3410(17)
N13_4 N 0.0788(7) 0.7014(6) 0.3163(12)
C42_4 C 0.1463(7) 0.7548(4) 0.0046(12)
C43_4 C 0.1038(6) 0.7544(4) 0.0795(11)
C44_4 C 0.1103(6) 0.7289(5) 0.1643(11)
H25_4 H 0.1418 0.7116 0.1777
C45_4 C 0.0702(6) 0.7285(5) 0.2306(11)
C46_4 C 0.0231(7) 0.7538(6) 0.2152(14)
C47_4 C 0.0149(7) 0.7772(5) 0.1240(12)
C48_4 C 0.0541(7) 0.7761(5) 0.0558(12)
H26_4 H 0.0468 0.7899 0.9936
O15_4 O 0.9426(13) 0.7064(13) 0.110(2)
O16_4 O 0.8800(10) 0.6809(9) 0.1590(17)
N5_4 N 0.9212(7) 0.7014(6) 0.1837(12)
C15_4 C 0.8537(7) 0.7548(4) 0.4954(12)
C16_4 C 0.8962(6) 0.7544(4) 0.4205(11)
C17_4 C 0.8897(6) 0.7289(5) 0.3357(11)
H5_4 H 0.8582 0.7116 0.3223
C18_4 C 0.9298(6) 0.7285(5) 0.2694(11)
C19_4 C 0.9769(7) 0.7538(6) 0.2848(14)
C20_4 C 0.9851(7) 0.7772(5) 0.3760(12)
C21_4 C 0.9459(7) 0.7761(5) 0.4442(12)
H6_4 H 0.9532 0.7899 0.5064
O43_4 O 0.9414(7) 0.8193(5) 0.1618(13)
O44_4 O 0.9521(8) 0.8085(8) 0.0101(16)
N14_4 N 0.9671(7) 0.8040(7) 0.1003(17)
H33_4 H 0.7874 0.7998 0.9654
O32_4 O 0.1974(8) 0.0280(3) 0.9446(9)
H13_4 H 0.2126 0.2002 0.0346
O8_4 O 0.8026(8) 0.9720(3) 0.0554(9)
loop_
_geom_bond_atom_site_label_1
_geom_bond_atom_site_label_2
_geom_bond_site_symmetry_1
_geom_bond_site_symmetry_2
Gd6 O23 1_555 1_555
O23 C41 1_555 1_555
O26 Gd6 1_555 1_555
O33 N11 1_555 1_555
O34 N11 1_555 1_555
O36 N12 1_555 1_555
N11 C36 1_555 1_555
N12 C40 1_555 1_555
C36 C35 1_555 1_555
C37 C36 1_555 1_555
H23 C37 1_555 1_555
C38 C37 1_555 1_555
C39 C38 1_555 1_555
H24 C39 1_555 1_555
C40 C35 1_555 1_555
C41 O26 1_555 1_555
C38 C41 1_555 1_555
C39 C40 1_555 1_555
O39 Gd5 1_555 1_555
Gd1 O1 1_555 1_555
O1 C1 1_555 1_555
O2 C1 1_555 1_555
O3 C14 1_555 1_555
O4 C14 1_555 1_555
O5 N1 1_555 1_555
O6 N1 1_555 1_555
O7 N2 1_555 1_555
O8 N2 1_555 1_555
O9 N3 1_555 1_555
O10 N3 1_555 1_555
O11 N4 1_555 1_555
O12 N4 1_555 1_555
O13 Gd1 1_555 1_555
O14 C15 1_555 1_555
O15 N5 1_555 1_555
O16 N5 1_555 1_555
O17 N6 1_555 1_555
O18 N6 1_555 1_555
O19 Gd1 1_555 1_555
O20 Gd1 1_555 1_555
N1 C4 1_555 1_555
N2 C6 1_555 1_555
N3 C9 1_555 1_555
N4 C13 1_555 1_555
N5 C18 1_555 1_555
N6 C20 1_555 1_555
N7 C22 1_555 1_555
N8 C25 1_555 1_555
C1 C2 1_555 1_555
C2 C3 1_555 1_555
C3 H1 1_555 1_555
C4 C3 1_555 1_555
C5 C4 1_555 1_555
C6 C5 1_555 1_555
C7 C2 1_555 1_555
H2 C7 1_555 1_555
C8 C5 1_555 1_555
C9 C8 1_555 1_555
C10 C9 1_555 1_555
H3 C10 1_555 1_555
C11 C10 1_555 1_555
C12 C11 1_555 1_555
H4 C12 1_555 1_555
C13 C8 1_555 1_555
C14 C11 1_555 1_555
C15 O13 1_555 1_555
C16 C15 1_555 1_555
C17 C16 1_555 1_555
H5 C17 1_555 1_555
C18 C17 1_555 1_555
C19 C18 1_555 1_555
C20 C19 1_555 1_555
C21 C16 1_555 1_555
H6 C21 1_555 1_555
C22 O19 1_555 1_555
H7 C22 1_555 1_555
C23 N7 1_555 1_555
H8 C23 1_555 1_555
H9 C23 1_555 1_555
H10 C23 1_555 1_555
C24 N7 1_555 1_555
H11 C24 1_555 1_555
H12 C24 1_555 1_555
C25 O20 1_555 1_555
H14 C25 1_555 1_555
C26 N8 1_555 1_555
H15 C26 1_555 1_555
H16 C26 1_555 1_555
H17 C26 1_555 1_555
C27 N8 1_555 1_555
H18 C27 1_555 1_555
H19 C27 1_555 1_555
H20 C27 1_555 1_555
Gd2 O2 1_555 1_555
Gd3 O3 1_555 1_555
Gd4 O37 1_555 1_555
O21 Gd2 1_555 1_555
O22 Gd1 1_555 1_555
O24 Gd1 1_555 1_555
O25 Gd2 1_555 1_555
O27 Gd1 1_555 1_555
O28 Gd2 1_555 1_555
O29 N9 1_555 1_555
O30 N9 1_555 1_555
O31 N10 1_555 1_555
O37 C42 1_555 1_555
O38 Gd1 1_555 1_555
O40 Gd1 1_555 1_555
O41 N13 1_555 1_555
O42 N13 1_555 1_555
O43 N14 1_555 1_555
O44 N14 1_555 1_555
O45 Gd2 1_555 1_555
O46 Gd2 1_555 1_555
N9 C31 1_555 1_555
N10 C33 1_555 1_555
N13 C45 1_555 1_555
N14 C47 1_555 1_555
N15 C49 1_555 1_555
N16 C52 1_555 1_555
C28 O21 1_555 1_555
C29 C28 1_555 1_555
C30 C29 1_555 1_555
H21 C30 1_555 1_555
C31 C30 1_555 1_555
C32 C31 1_555 1_555
C33 C32 1_555 1_555
C34 C29 1_555 1_555
H22 C34 1_555 1_555
C43 C42 1_555 1_555
C44 C43 1_555 1_555
H25 C44 1_555 1_555
C45 C44 1_555 1_555
C46 C19 1_555 1_555
C47 C46 1_555 1_555
C48 C43 1_555 1_555
C49 O45 1_555 1_555
H27 C49 1_555 1_555
C50 N15 1_555 1_555
H28 C50 1_555 1_555
H29 C50 1_555 1_555
H30 C50 1_555 1_555
C51 N15 1_555 1_555
H31 C51 1_555 1_555
H32 C51 1_555 1_555
C52 O46 1_555 1_555
H34 C52 1_555 1_555
C53 N16 1_555 1_555
H35 C53 1_555 1_555
H36 C53 1_555 1_555
H37 C53 1_555 1_555
C54 N16 1_555 1_555
H38 C54 1_555 1_555
H39 C54 1_555 1_555
H40 C54 1_555 1_555
O4 Gd3 1_555 1_555
O13 Gd2 1_555 1_555
O14 Gd2 1_555 1_555
C6 C7 1_555 1_555
C12 C13 1_555 1_555
C20 C21 1_555 1_555
Gd2 O38 1_555 1_555
O22 C28 1_555 1_555
C33 C34 1_555 1_555
C45 C46 1_555 1_555
C47 C48 1_555 1_555
Gd6_2 O23_2 1_555 1_555
O23_2 C41_2 1_555 1_555
O26_2 Gd6_2 1_555 1_555
O33_2 N11_2 1_555 1_555
O34_2 N11_2 1_555 1_555
O36_2 N12_2 1_555 1_555
N11_2 C36_2 1_555 1_555
N12_2 C40_2 1_555 1_555
C36_2 C35_2 1_555 1_555
C37_2 C36_2 1_555 1_555
H23_2 C37_2 1_555 1_555
C38_2 C37_2 1_555 1_555
C39_2 C38_2 1_555 1_555
H24_2 C39_2 1_555 1_555
C40_2 C35_2 1_555 1_555
C41_2 O26_2 1_555 1_555
C38_2 C41_2 1_555 1_555
C39_2 C40_2 1_555 1_555
O7_2 N2_2 1_555 1_555
O8_2 N2_2 1_555 1_555
H2_2 C7_2 1_555 1_555
Gd5 O2_2 1_555 1_555
O21_2 Gd5 1_555 1_555
O25_2 Gd5 1_555 1_555
O28_2 Gd5 1_555 1_555
O29_2 N9_2 1_555 1_555
O30_2 N9_2 1_555 1_555
O45_2 Gd5 1_555 1_555
O46_2 Gd5 1_555 1_555
N9_2 C31_2 1_555 1_555
N15_2 C49_2 1_555 1_555
N16_2 C52_2 1_555 1_555
C28_2 O21_2 1_555 1_555
C29_2 C28_2 1_555 1_555
C30_2 C29_2 1_555 1_555
H21_2 C30_2 1_555 1_555
C31_2 C30_2 1_555 1_555
C32_2 C31_2 1_555 1_555
C33_2 C32_2 1_555 1_555
C49_2 O45_2 1_555 1_555
H27_2 C49_2 1_555 1_555
C50_2 N15_2 1_555 1_555
H28_2 C50_2 1_555 1_555
H29_2 C50_2 1_555 1_555
H30_2 C50_2 1_555 1_555
C51_2 N15_2 1_555 1_555
H31_2 C51_2 1_555 1_555
H32_2 C51_2 1_555 1_555
H33 C51_2 1_555 1_555
C52_2 O46_2 1_555 1_555
H34_2 C52_2 1_555 1_555
C53_2 N16_2 1_555 1_555
H35_2 C53_2 1_555 1_555
H36_2 C53_2 1_555 1_555
H37_2 C53_2 1_555 1_555
C54_2 N16_2 1_555 1_555
H38_2 C54_2 1_555 1_555
H39_2 C54_2 1_555 1_555
H40_2 C54_2 1_555 1_555
Gd5 O38_2 1_555 1_555
Gd4 O1_2 1_555 1_555
O1_2 C1_2 1_555 1_555
O3_2 C14_2 1_555 1_555
O4_2 C14_2 1_555 1_555
O5_2 N1_2 1_555 1_555
O6_2 N1_2 1_555 1_555
O9_2 N3_2 1_555 1_555
O10_2 N3_2 1_555 1_555
O11_2 N4_2 1_555 1_555
O12_2 N4_2 1_555 1_555
O19_2 Gd4 1_555 1_555
O20_2 Gd4 1_555 1_555
N1_2 C4_2 1_555 1_555
N3_2 C9_2 1_555 1_555
N4_2 C13_2 1_555 1_555
N7_2 C22_2 1_555 1_555
N8_2 C25_2 1_555 1_555
C1_2 C2_2 1_555 1_555
C2_2 C3_2 1_555 1_555
C3_2 H1_2 1_555 1_555
C4_2 C3_2 1_555 1_555
C5_2 C4_2 1_555 1_555
C6_2 C5_2 1_555 1_555
C8_2 C5_2 1_555 1_555
C9_2 C8_2 1_555 1_555
C10_2 C9_2 1_555 1_555
H3_2 C10_2 1_555 1_555
C11_2 C10_2 1_555 1_555
C12_2 C11_2 1_555 1_555
H4_2 C12_2 1_555 1_555
C13_2 C8_2 1_555 1_555
C14_2 C11_2 1_555 1_555
C22_2 O19_2 1_555 1_555
H7_2 C22_2 1_555 1_555
C23_2 N7_2 1_555 1_555
H8_2 C23_2 1_555 1_555
H9_2 C23_2 1_555 1_555
H10_2 C23_2 1_555 1_555
C24_2 N7_2 1_555 1_555
H11_2 C24_2 1_555 1_555
H12_2 C24_2 1_555 1_555
H13_2 C24_2 1_555 1_555
C25_2 O20_2 1_555 1_555
H14_2 C25_2 1_555 1_555
C26_2 N8_2 1_555 1_555
H15_2 C26_2 1_555 1_555
H16_2 C26_2 1_555 1_555
H17_2 C26_2 1_555 1_555
C27_2 N8_2 1_555 1_555
H18_2 C27_2 1_555 1_555
H19_2 C27_2 1_555 1_555
H20_2 C27_2 1_555 1_555
Gd3_2 O3_2 1_555 1_555
O22_2 Gd4 1_555 1_555
O24_2 Gd4 1_555 1_555
O27_2 Gd4 1_555 1_555
O31_2 N10_2 1_555 1_555
O40_2 Gd4 1_555 1_555
H22_2 C34_2 1_555 1_555
O4_2 Gd3_2 1_555 1_555
C12_2 C13_2 1_555 1_555
Gd3_2 O1_3 1_555 1_555
O1_3 C1_3 1_555 1_555
O2_3 C1_3 1_555 1_555
O5_3 N1_3 1_555 1_555
O6_3 N1_3 1_555 1_555
O7_3 N2_3 1_555 1_555
O13_2 Gd3_2 1_555 1_555
O14_2 C15_2 1_555 1_555
O15_2 N5_2 1_555 1_555
O16_2 N5_2 1_555 1_555
O19_3 Gd3_2 1_555 1_555
O20_3 Gd3_2 1_555 1_555
N1_3 C4_3 1_555 1_555
N2_3 C6_3 1_555 1_555
N5_2 C18_2 1_555 1_555
N7_3 C22_3 1_555 1_555
N8_3 C25_3 1_555 1_555
C1_3 C2_3 1_555 1_555
C2_3 C3_3 1_555 1_555
C3_3 H1_3 1_555 1_555
C4_3 C3_3 1_555 1_555
C5_3 C4_3 1_555 1_555
C6_3 C5_3 1_555 1_555
C7_3 C2_3 1_555 1_555
H2_3 C7_3 1_555 1_555
C15_2 O13_2 1_555 1_555
C16_2 C15_2 1_555 1_555
C17_2 C16_2 1_555 1_555
H5_2 C17_2 1_555 1_555
C18_2 C17_2 1_555 1_555
C19_2 C18_2 1_555 1_555
C20_2 C19_2 1_555 1_555
C21_2 C16_2 1_555 1_555
H6_2 C21_2 1_555 1_555
C22_3 O19_3 1_555 1_555
H7_3 C22_3 1_555 1_555
C23_3 N7_3 1_555 1_555
H8_3 C23_3 1_555 1_555
H9_3 C23_3 1_555 1_555
H10_3 C23_3 1_555 1_555
C24_3 N7_3 1_555 1_555
H11_3 C24_3 1_555 1_555
H12_3 C24_3 1_555 1_555
C25_3 O20_3 1_555 1_555
H14_3 C25_3 1_555 1_555
C26_3 N8_3 1_555 1_555
H15_3 C26_3 1_555 1_555
H16_3 C26_3 1_555 1_555
H17_3 C26_3 1_555 1_555
C27_3 N8_3 1_555 1_555
H18_3 C27_3 1_555 1_555
H19_3 C27_3 1_555 1_555
H20_3 C27_3 1_555 1_555
Gd6_2 O2_3 1_555 1_555
O21_3 Gd6_2 1_555 1_555
O22_3 Gd3_2 1_555 1_555
O25_2 C41_3 1_555 1_555
O29_3 N9_3 1_555 1_555
O30_3 N9_3 1_555 1_555
O31_3 N10_3 1_555 1_555
O32_2 N10_3 1_555 1_555
O33_3 N11_3 1_555 1_555
O34_3 N11_3 1_555 1_555
O35_3 N12_3 1_555 1_555
O36_3 N12_3 1_555 1_555
O38_3 Gd3_2 1_555 1_555
O40_3 Gd3_2 1_555 1_555
O43_2 N14_2 1_555 1_555
O44_2 N14_2 1_555 1_555
O45_3 Gd6_2 1_555 1_555
O46_3 Gd6_2 1_555 1_555
N9_3 C31_3 1_555 1_555
N10_3 C33_3 1_555 1_555
N11_3 C36_3 1_555 1_555
N12_3 C40_3 1_555 1_555
N15_3 C49_3 1_555 1_555
N16_3 C52_3 1_555 1_555
C28_3 O21_3 1_555 1_555
C29_3 C28_3 1_555 1_555
C30_3 C29_3 1_555 1_555
H21_3 C30_3 1_555 1_555
C31_3 C30_3 1_555 1_555
C32_3 C31_3 1_555 1_555
C33_3 C32_3 1_555 1_555
C34_3 C29_3 1_555 1_555
H22_3 C34_3 1_555 1_555
C35_3 C32_3 1_555 1_555
C36_3 C35_3 1_555 1_555
C37_3 C36_3 1_555 1_555
H23_3 C37_3 1_555 1_555
C38_3 C37_3 1_555 1_555
C39_3 C38_3 1_555 1_555
H24_3 C39_3 1_555 1_555
C40_3 C35_3 1_555 1_555
C41_3 O28_2 1_555 1_555
C49_3 O45_3 1_555 1_555
H27_3 C49_3 1_555 1_555
C50_3 N15_3 1_555 1_555
H28_3 C50_3 1_555 1_555
H29_3 C50_3 1_555 1_555
H30_3 C50_3 1_555 1_555
C51_3 N15_3 1_555 1_555
H31_3 C51_3 1_555 1_555
H32_3 C51_3 1_555 1_555
C52_3 O46_3 1_555 1_555
H34_3 C52_3 1_555 1_555
C53_3 N16_3 1_555 1_555
H35_3 C53_3 1_555 1_555
H36_3 C53_3 1_555 1_555
H37_3 C53_3 1_555 1_555
C54_3 N16_3 1_555 1_555
H38_3 C54_3 1_555 1_555
H39_3 C54_3 1_555 1_555
H40_3 C54_3 1_555 1_555
O13_2 Gd6_2 1_555 1_555
O14_2 Gd6_2 1_555 1_555
C6_3 C7_3 1_555 1_555
C20_2 C21_2 1_555 1_555
Gd6_2 O38_3 1_555 1_555
O22_3 C28_3 1_555 1_555
C33_3 C34_3 1_555 1_555
C38_3 C41_3 1_555 1_555
C39_3 C40_3 1_555 1_555
O24_2 C14_3 1_555 1_555
O27_2 C14_3 1_555 1_555
O9_3 N3_3 1_555 1_555
O10_3 N3_3 1_555 1_555
O12_3 N4_3 1_555 1_555
N3_3 C9_3 1_555 1_555
N4_3 C13_3 1_555 1_555
C9_3 C8_3 1_555 1_555
C10_3 C9_3 1_555 1_555
H3_3 C10_3 1_555 1_555
C11_3 C10_3 1_555 1_555
C12_3 C11_3 1_555 1_555
H4_3 C12_3 1_555 1_555
C13_3 C8_3 1_555 1_555
C14_3 C11_3 1_555 1_555
C12_3 C13_3 1_555 1_555
O39_2 Gd6 1_555 1_555
O17_2 N6_2 1_555 1_555
O18_2 N6_2 1_555 1_555
Gd3 O37_2 1_555 1_555
O37_2 C42_2 1_555 1_555
O41_2 N13_2 1_555 1_555
O42_2 N13_2 1_555 1_555
N13_2 C45_2 1_555 1_555
C43_2 C42_2 1_555 1_555
C44_2 C43_2 1_555 1_555
H25_2 C44_2 1_555 1_555
C45_2 C44_2 1_555 1_555
C47_2 C46_2 1_555 1_555
C48_2 C43_2 1_555 1_555
C45_2 C46_2 1_555 1_555
C47_2 C48_2 1_555 1_555
O7_4 N2_4 1_555 1_555
H2_4 C7_4 1_555 1_555
Gd6 O2_4 1_555 1_555
O21_4 Gd6 1_555 1_555
O25 C41_4 1_555 1_555
O29_4 N9_4 1_555 1_555
O30_4 N9_4 1_555 1_555
O33_4 N11_4 1_555 1_555
O34_4 N11_4 1_555 1_555
O35_4 N12_4 1_555 1_555
O36_4 N12_4 1_555 1_555
O45_4 Gd6 1_555 1_555
O46_4 Gd6 1_555 1_555
N9_4 C31_4 1_555 1_555
N11_4 C36_4 1_555 1_555
N12_4 C40_4 1_555 1_555
N15_4 C49_4 1_555 1_555
N16_4 C52_4 1_555 1_555
C28_4 O21_4 1_555 1_555
C29_4 C28_4 1_555 1_555
C30_4 C29_4 1_555 1_555
H21_4 C30_4 1_555 1_555
C31_4 C30_4 1_555 1_555
C32_4 C31_4 1_555 1_555
C33_4 C32_4 1_555 1_555
C35_4 C32_4 1_555 1_555
C36_4 C35_4 1_555 1_555
C37_4 C36_4 1_555 1_555
H23_4 C37_4 1_555 1_555
C38_4 C37_4 1_555 1_555
C39_4 C38_4 1_555 1_555
H24_4 C39_4 1_555 1_555
C40_4 C35_4 1_555 1_555
C41_4 O28 1_555 1_555
C49_4 O45_4 1_555 1_555
H27_4 C49_4 1_555 1_555
C50_4 N15_4 1_555 1_555
H28_4 C50_4 1_555 1_555
H29_4 C50_4 1_555 1_555
H30_4 C50_4 1_555 1_555
C51_4 N15_4 1_555 1_555
H31_4 C51_4 1_555 1_555
H32_4 C51_4 1_555 1_555
H33_3 C51_4 1_555 1_555
C52_4 O46_4 1_555 1_555
H34_4 C52_4 1_555 1_555
C53_4 N16_4 1_555 1_555
H35_4 C53_4 1_555 1_555
H36_4 C53_4 1_555 1_555
H37_4 C53_4 1_555 1_555
C54_4 N16_4 1_555 1_555
H38_4 C54_4 1_555 1_555
H39_4 C54_4 1_555 1_555
H40_4 C54_4 1_555 1_555
Gd6 O38_4 1_555 1_555
C38_4 C41_4 1_555 1_555
C39_4 C40_4 1_555 1_555
Gd3 O1_4 1_555 1_555
O1_4 C1_4 1_555 1_555
O5_4 N1_4 1_555 1_555
O6_4 N1_4 1_555 1_555
O19_4 Gd3 1_555 1_555
O20_4 Gd3 1_555 1_555
N1_4 C4_4 1_555 1_555
N7_4 C22_4 1_555 1_555
N8_4 C25_4 1_555 1_555
C1_4 C2_4 1_555 1_555
C2_4 C3_4 1_555 1_555
C3_4 H1_4 1_555 1_555
C4_4 C3_4 1_555 1_555
C5_4 C4_4 1_555 1_555
C6_4 C5_4 1_555 1_555
C22_4 O19_4 1_555 1_555
H7_4 C22_4 1_555 1_555
C23_4 N7_4 1_555 1_555
H8_4 C23_4 1_555 1_555
H9_4 C23_4 1_555 1_555
H10_4 C23_4 1_555 1_555
C24_4 N7_4 1_555 1_555
H11_4 C24_4 1_555 1_555
H12_4 C24_4 1_555 1_555
H13_3 C24_4 1_555 1_555
C25_4 O20_4 1_555 1_555
H14_4 C25_4 1_555 1_555
C26_4 N8_4 1_555 1_555
H15_4 C26_4 1_555 1_555
H16_4 C26_4 1_555 1_555
H17_4 C26_4 1_555 1_555
C27_4 N8_4 1_555 1_555
H18_4 C27_4 1_555 1_555
H19_4 C27_4 1_555 1_555
H20_4 C27_4 1_555 1_555
O22_4 Gd3 1_555 1_555
O31_4 N10_4 1_555 1_555
O32_3 N10_4 1_555 1_555
O40_4 Gd3 1_555 1_555
H22_4 C34_4 1_555 1_555
O24 C14_4 1_555 1_555
O27 C14_4 1_555 1_555
O9_4 N3_4 1_555 1_555
O10_4 N3_4 1_555 1_555
O12_4 N4_4 1_555 1_555
N3_4 C9_4 1_555 1_555
N4_4 C13_4 1_555 1_555
C9_4 C8_4 1_555 1_555
C10_4 C9_4 1_555 1_555
H3_4 C10_4 1_555 1_555
C11_4 C10_4 1_555 1_555
C12_4 C11_4 1_555 1_555
H4_4 C12_4 1_555 1_555
C13_4 C8_4 1_555 1_555
C14_4 C11_4 1_555 1_555
C12_4 C13_4 1_555 1_555
O40_3 C15_3 1_555 1_555
O15_3 N5_3 1_555 1_555
O16_3 N5_3 1_555 1_555
O17_3 N6_3 1_555 1_555
O18_3 N6_3 1_555 1_555
N5_3 C18_3 1_555 1_555
N6_3 C20_3 1_555 1_555
C15_3 O38_3 1_555 1_555
C16_3 C15_3 1_555 1_555
C17_3 C16_3 1_555 1_555
H5_3 C17_3 1_555 1_555
C18_3 C17_3 1_555 1_555
C19_3 C18_3 1_555 1_555
C20_3 C19_3 1_555 1_555
C21_3 C16_3 1_555 1_555
H6_3 C21_3 1_555 1_555
O38_4 C42_3 1_555 1_555
O41_3 N13_3 1_555 1_555
O42_3 N13_3 1_555 1_555
O43_3 N14_3 1_555 1_555
O44_3 N14_3 1_555 1_555
N13_3 C45_3 1_555 1_555
N14_3 C47_3 1_555 1_555
C43_3 C42_3 1_555 1_555
C44_3 C43_3 1_555 1_555
H25_3 C44_3 1_555 1_555
C45_3 C44_3 1_555 1_555
C46_3 C19_3 1_555 1_555
C47_3 C46_3 1_555 1_555
C48_3 C43_3 1_555 1_555
C20_3 C21_3 1_555 1_555
C45_3 C46_3 1_555 1_555
C47_3 C48_3 1_555 1_555
O17_4 N6_4 1_555 1_555
O18_4 N6_4 1_555 1_555
O38_2 C42_4 1_555 1_555
O41_4 N13_4 1_555 1_555
O42_4 N13_4 1_555 1_555
N13_4 C45_4 1_555 1_555
C43_4 C42_4 1_555 1_555
C44_4 C43_4 1_555 1_555
H25_4 C44_4 1_555 1_555
C45_4 C44_4 1_555 1_555
C47_4 C46_4 1_555 1_555
C48_4 C43_4 1_555 1_555
C45_4 C46_4 1_555 1_555
C47_4 C48_4 1_555 1_555
O40 C15_4 1_555 1_555
O15_4 N5_4 1_555 1_555
O16_4 N5_4 1_555 1_555
N5_4 C18_4 1_555 1_555
C15_4 O38 1_555 1_555
C16_4 C15_4 1_555 1_555
C17_4 C16_4 1_555 1_555
H5_4 C17_4 1_555 1_555
C18_4 C17_4 1_555 1_555
C19_4 C18_4 1_555 1_555
C20_4 C19_4 1_555 1_555
C21_4 C16_4 1_555 1_555
H6_4 C21_4 1_555 1_555
O43_4 N14_4 1_555 1_555
O44_4 N14_4 1_555 1_555
C20_4 C21_4 1_555 1_555

#END
