
###############################################################################
#
# This file contains modified crystal structure data generated from the
# MOF subset of the Cambridge Structural Database (CSD) v543 
# hosted by the Cambridge Crystallographic Data Centre (CCDC).
#
# This work is licensed under the Creative Commons
# Attribution-NonCommercial-ShareAlike 4.0 International License.
# To view a copy of this license, visit
# http://creativecommons.org/licenses/by-nc-sa/4.0/
# or send a letter to
# Creative Commons, PO Box 1866, Mountain View, CA 94042, USA.
#
# CIF created using the CSD Python API on 29 September 2022
# The structure has been converted into the P1 space group
# The structure has a 3D framework
# The original CSD entry XEGKEB is in the monoclinic crystal system
# The framework has been calculated to contain at least 10.0% void space
# The void calculation uses a probe of radius 1.32A, grid spacing 0.4
#
###############################################################################

data_XEGKEB
_chemical_formula_moiety         '(C216 H160 Gd8 N64 O156)n'
_symmetry_cell_setting           triclinic
_symmetry_space_group_name_H-M   'P 1'
_symmetry_Int_Tables_number      1
_space_group_name_Hall           'P 1'
loop_
_symmetry_equiv_pos_site_id
_symmetry_equiv_pos_as_xyz
1 x,y,z
_cell_length_a                   24.553(4)
_cell_length_b                   30.267(7)
_cell_length_c                   13.362(5)
_cell_angle_alpha                90
_cell_angle_beta                 94.828(5)
_cell_angle_gamma                90
_cell_volume                     9894.68
loop_
_atom_site_label
_atom_site_type_symbol
_atom_site_fract_x
_atom_site_fract_y
_atom_site_fract_z
O17 O 0.0574(12) 0.3190(8) 0.330(2)
O18 O 0.0452(13) 0.3135(16) 0.483(3)
N6 N 0.0325(12) 0.3047(11) 0.398(2)
Gd5 Gd 0.27464(5) 0.23790(3) 0.14748(7)
O39 O 0.1957(8) 0.2436(5) 0.0388(13)
O41 O 0.1058(19) 0.1688(14) 0.318(3)
O42 O 0.0620(19) 0.2098(17) 0.392(3)
N13 N 0.0763(11) 0.1979(10) 0.3169(19)
C42 C 0.1479(15) 0.2525(8) 0.006(2)
C43 C 0.1036(10) 0.2518(8) 0.0765(18)
C44 C 0.1096(11) 0.2259(8) 0.1606(19)
H25 H 0.1408 0.2086 0.1733
C45 C 0.0688(12) 0.2254(9) 0.2276(19)
C46 C 0.0227(12) 0.2521(10) 0.213(2)
C47 C 0.0168(12) 0.2750(9) 0.123(2)
C48 C 0.0550(11) 0.2744(9) 0.055(2)
Gd4 Gd 0.22536(5) 0.26210(3) 0.85252(7)
O37 O 0.1346(7) 0.2645(5) 0.9159(13)
H26 H 0.0484 0.2890 0.9938
H9 H 0.7133 0.2007 0.0247
Gd1 Gd 0.77464(5) 0.26210(3) 0.64748(7)
O1 O 0.7690(8) 0.1859(4) 0.6102(12)
O2 O 0.7289(8) 0.1729(4) 0.4546(11)
O5 O 0.662(2) 0.0277(10) 0.381(2)
O7 O 0.7929(12) 0.0666(8) 0.8413(16)
O8 O 0.792(2) 0.0009(8) 0.797(2)
O9 O 0.6472(11) 0.0229(7) 0.682(2)
O13 O 0.8654(7) 0.2645(5) 0.5841(13)
O14 O 0.8043(8) 0.2436(5) 0.4612(13)
O15 O 0.8942(19) 0.1688(14) 0.182(3)
O16 O 0.9380(19) 0.2098(17) 0.108(3)
O19 O 0.7174(9) 0.2304(6) 0.7671(15)
O20 O 0.8329(8) 0.2267(6) 0.7728(13)
N1 N 0.6939(14) 0.0102(7) 0.4406(16)
N2 N 0.7869(14) 0.0397(8) 0.777(2)
N5 N 0.9237(11) 0.1979(10) 0.1831(19)
N7 N 0.6956(13) 0.1804(11) 0.886(2)
N8 N 0.8963(6) 0.1859(5) 0.8201(10)
C1 C 0.7499(13) 0.1624(8) 0.540(2)
C2 C 0.7481(13) 0.1127(7) 0.5619(17)
C3 C 0.7238(13) 0.0842(7) 0.4926(17)
H1 H 0.7085 0.0945 0.4310
C4 C 0.7226(13) 0.0397(7) 0.5163(18)
C5 C 0.7445(12) 0.0212(7) 0.6067(17)
C6 C 0.7653(13) 0.0533(7) 0.6783(19)
C7 C 0.7684(11) 0.0971(7) 0.6536(17)
H2 H 0.7847 0.1167 0.7005
C15 C 0.8521(15) 0.2525(8) 0.494(2)
C16 C 0.8964(10) 0.2518(8) 0.4235(18)
C17 C 0.8904(11) 0.2259(8) 0.3394(19)
H5 H 0.8592 0.2086 0.3267
C18 C 0.9312(12) 0.2254(9) 0.2724(19)
C19 C 0.9773(12) 0.2521(10) 0.287(2)
C20 C 0.9832(12) 0.2750(9) 0.377(2)
C21 C 0.9450(11) 0.2744(9) 0.445(2)
H6 H 0.9516 0.2890 0.5062
C22 C 0.7083(16) 0.1948(12) 0.797(3)
H7 H 0.7106 0.1726 0.7500
C23 C 0.691(3) 0.210(2) 0.967(3)
H8 H 0.7019 0.2394 0.9477
H10 H 0.6532 0.2115 0.9828
C24 C 0.6812(19) 0.1358(13) 0.904(3)
H11 H 0.6586 0.1246 0.8480
H12 H 0.6616 0.1344 0.9635
H13 H 0.7138 0.1183 0.9142
C25 C 0.8816(10) 0.2298(5) 0.7762(11)
H14 H 0.9036 0.2528 0.7572
C26 C 0.8726(12) 0.1620(6) 0.9070(13)
H15 H 0.8826 0.1776 0.9684
H16 H 0.8868 0.1325 0.9119
H17 H 0.8335 0.1610 0.8954
C27 C 0.9512(11) 0.2059(8) 0.8524(10)
H18 H 0.9705 0.2118 0.7943
H19 H 0.9720 0.1857 0.8958
H20 H 0.9461 0.2330 0.8877
Gd2 Gd 0.72536(5) 0.23790(3) 0.35252(7)
Gd6 Gd 0.77464(5) 0.73790(3) 0.14748(7)
O21 O 0.7310(8) 0.3141(4) 0.3898(12)
O22 O 0.7711(8) 0.3271(4) 0.5454(11)
O23 O 0.8167(9) 0.6775(6) 0.2508(14)
O24 O 0.8167(9) 0.3225(6) 0.7508(14)
O25 O 0.6833(9) 0.1775(6) 0.2492(14)
O26 O 0.7275(8) 0.6796(5) 0.2361(13)
O27 O 0.7275(8) 0.3204(5) 0.7361(13)
O28 O 0.7725(8) 0.1796(5) 0.2639(13)
O29 O 0.838(2) 0.4723(10) 0.619(2)
O30 O 0.8109(13) 0.5257(6) 0.5522(15)
O31 O 0.7071(12) 0.4334(8) 0.1587(16)
O32 O 0.708(2) 0.4991(8) 0.203(2)
O33 O 0.8528(11) 0.4771(7) 0.318(2)
O34 O 0.9030(12) 0.5361(9) 0.335(2)
O35 O 0.6644(13) 0.5070(7) 0.452(2)
O36 O 0.6345(12) 0.5702(9) 0.425(2)
O38 O 0.6346(7) 0.2355(5) 0.4159(13)
O40 O 0.6957(8) 0.2564(5) 0.5388(13)
O43 O 0.9426(12) 0.3190(8) 0.170(2)
O44 O 0.9548(13) 0.3135(16) 0.017(3)
O45 O 0.7826(9) 0.2696(6) 0.2329(15)
O46 O 0.6671(8) 0.2733(6) 0.2272(13)
N9 N 0.8061(14) 0.4898(7) 0.5594(16)
N10 N 0.7131(14) 0.4603(8) 0.223(2)
N11 N 0.8592(13) 0.5163(9) 0.3293(18)
N12 N 0.6695(12) 0.5423(8) 0.4147(19)
N14 N 0.9675(12) 0.3047(11) 0.102(2)
N15 N 0.8044(13) 0.3196(11) 0.114(2)
N16 N 0.6037(6) 0.3141(5) 0.1799(10)
C28 C 0.7501(13) 0.3376(8) 0.460(2)
C29 C 0.7519(13) 0.3873(7) 0.4381(17)
C30 C 0.7762(13) 0.4158(7) 0.5074(17)
H21 H 0.7915 0.4055 0.5690
C31 C 0.7774(13) 0.4603(7) 0.4837(18)
C32 C 0.7555(12) 0.4788(7) 0.3933(17)
C33 C 0.7347(13) 0.4467(7) 0.3217(19)
C34 C 0.7316(11) 0.4029(7) 0.3464(17)
H22 H 0.7153 0.3833 0.2995
C35 C 0.7610(12) 0.5267(7) 0.3675(17)
C36 C 0.8077(13) 0.5439(8) 0.3332(18)
C37 C 0.8128(12) 0.5875(8) 0.3049(16)
H23 H 0.8462 0.5980 0.2865
C38 C 0.7684(12) 0.6153(7) 0.3040(17)
C39 C 0.7214(13) 0.5997(8) 0.3396(18)
H24 H 0.6909 0.6179 0.3401
C40 C 0.7194(12) 0.5564(8) 0.3752(18)
C41 C 0.7716(15) 0.6617(8) 0.2626(16)
C49 C 0.7917(16) 0.3052(12) 0.203(3)
H27 H 0.7894 0.3274 0.2500
C50 C 0.809(3) 0.290(2) 0.033(3)
H28 H 0.7981 0.2606 0.0523
H30 H 0.8468 0.2885 0.0172
C51 C 0.8188(19) 0.3642(13) 0.096(3)
H31 H 0.8414 0.3754 0.1520
H32 H 0.8384 0.3656 0.0365
H33 H 0.7862 0.3817 0.0858
C52 C 0.6184(10) 0.2702(5) 0.2238(11)
H34 H 0.5964 0.2472 0.2428
C53 C 0.6274(12) 0.3380(6) 0.0930(13)
H35 H 0.6174 0.3224 0.0316
H36 H 0.6132 0.3675 0.0881
H37 H 0.6665 0.3390 0.1046
C54 C 0.5488(11) 0.2941(8) 0.1476(10)
H38 H 0.5295 0.2882 0.2057
H39 H 0.5280 0.3143 0.1042
H40 H 0.5539 0.2670 0.1123
O3 O 0.6833(9) 0.8225(6) 0.7492(14)
O4 O 0.7725(8) 0.8204(5) 0.7639(13)
O6 O 0.6891(13) 0.9743(6) 0.4478(15)
O10 O 0.5970(12) 0.9639(9) 0.665(2)
O11 O 0.8356(13) 0.9930(7) 0.548(2)
O12 O 0.8655(12) 0.9298(9) 0.575(2)
N3 N 0.6408(13) 0.9837(9) 0.6707(18)
N4 N 0.8305(12) 0.9577(8) 0.5853(19)
C8 C 0.7390(12) 0.9733(7) 0.6325(17)
C9 C 0.6923(13) 0.9561(8) 0.6668(18)
C10 C 0.6872(12) 0.9125(8) 0.6951(16)
H3 H 0.6538 0.9020 0.7135
C11 C 0.7316(12) 0.8847(7) 0.6960(17)
C12 C 0.7786(13) 0.9003(8) 0.6604(18)
H4 H 0.8091 0.8821 0.6599
C13 C 0.7806(12) 0.9436(8) 0.6248(18)
C14 C 0.7284(15) 0.8383(8) 0.7374(16)
Gd3 Gd 0.72536(5) 0.76210(3) 0.85252(7)
O2_2 O 0.2711(8) 0.1729(4) 0.0454(11)
O5_2 O 0.338(2) 0.0277(10) 0.119(2)
N1_2 N 0.3061(14) 0.0102(7) 0.0594(16)
C3_2 C 0.2762(13) 0.0842(7) 0.0074(17)
H1_2 H 0.2915 0.0945 0.0690
Gd6_2 Gd 0.22536(5) 0.73790(3) 0.35252(7)
O21_2 O 0.2690(8) 0.3141(4) 0.1102(12)
O23_2 O 0.1833(9) 0.6775(6) 0.2492(14)
O25_2 O 0.3167(9) 0.1775(6) 0.2508(14)
O26_2 O 0.2725(8) 0.6796(5) 0.2639(13)
O28_2 O 0.2275(8) 0.1796(5) 0.2361(13)
O31_2 O 0.2929(12) 0.4334(8) 0.3413(16)
O32_2 O 0.292(2) 0.4991(8) 0.297(2)
O33_2 O 0.1472(11) 0.4771(7) 0.182(2)
O34_2 O 0.0970(12) 0.5361(9) 0.165(2)
O35_2 O 0.3356(13) 0.5070(7) 0.048(2)
O36_2 O 0.3655(12) 0.5702(9) 0.075(2)
O38_2 O 0.3654(7) 0.2355(5) 0.0841(13)
O45_2 O 0.2174(9) 0.2696(6) 0.2671(15)
O46_2 O 0.3329(8) 0.2733(6) 0.2728(13)
N10_2 N 0.2869(14) 0.4603(8) 0.277(2)
N11_2 N 0.1408(13) 0.5163(9) 0.1707(18)
N12_2 N 0.3305(12) 0.5423(8) 0.0853(19)
N15_2 N 0.1956(13) 0.3196(11) 0.386(2)
N16_2 N 0.3963(6) 0.3141(5) 0.3201(10)
C28_2 C 0.2499(13) 0.3376(8) 0.040(2)
C29_2 C 0.2481(13) 0.3873(7) 0.0619(17)
C31_2 C 0.2226(13) 0.4603(7) 0.0163(18)
C32_2 C 0.2445(12) 0.4788(7) 0.1067(17)
C33_2 C 0.2653(13) 0.4467(7) 0.1783(19)
C34_2 C 0.2684(11) 0.4029(7) 0.1536(17)
H22_2 H 0.2847 0.3833 0.2005
C35_2 C 0.2390(12) 0.5267(7) 0.1325(17)
C36_2 C 0.1923(13) 0.5439(8) 0.1668(18)
C37_2 C 0.1872(12) 0.5875(8) 0.1951(16)
H23_2 H 0.1538 0.5980 0.2135
C38_2 C 0.2316(12) 0.6153(7) 0.1960(17)
C39_2 C 0.2786(13) 0.5997(8) 0.1604(18)
H24_2 H 0.3091 0.6179 0.1599
C40_2 C 0.2806(12) 0.5564(8) 0.1248(18)
C41_2 C 0.2284(15) 0.6617(8) 0.2374(16)
C49_2 C 0.2083(16) 0.3052(12) 0.297(3)
H27_2 H 0.2106 0.3274 0.2500
C50_2 C 0.191(3) 0.290(2) 0.467(3)
H28_2 H 0.2019 0.2606 0.4477
H29 H 0.2133 0.2993 0.5247
H30_2 H 0.1532 0.2885 0.4828
C51_2 C 0.1812(19) 0.3642(13) 0.404(3)
H31_2 H 0.1586 0.3754 0.3480
H32_2 H 0.1616 0.3656 0.4635
H33_2 H 0.2138 0.3817 0.4142
C52_2 C 0.3816(10) 0.2702(5) 0.2762(11)
H34_2 H 0.4036 0.2472 0.2572
C53_2 C 0.3726(12) 0.3380(6) 0.4070(13)
H35_2 H 0.3826 0.3224 0.4684
H36_2 H 0.3868 0.3675 0.4119
H37_2 H 0.3335 0.3390 0.3954
C54_2 C 0.4512(11) 0.2941(8) 0.3524(10)
H38_2 H 0.4705 0.2882 0.2943
H39_2 H 0.4720 0.3143 0.3958
H40_2 H 0.4461 0.2670 0.3877
O1_2 O 0.2310(8) 0.1859(4) 0.8898(12)
O7_2 O 0.2071(12) 0.0666(8) 0.6587(16)
O8_2 O 0.208(2) 0.0009(8) 0.703(2)
O9_2 O 0.3528(11) 0.0229(7) 0.818(2)
O19_2 O 0.2826(9) 0.2304(6) 0.7329(15)
O20_2 O 0.1671(8) 0.2267(6) 0.7272(13)
N2_2 N 0.2131(14) 0.0397(8) 0.723(2)
N7_2 N 0.3044(13) 0.1804(11) 0.614(2)
N8_2 N 0.1037(6) 0.1859(5) 0.6799(10)
C1_2 C 0.2501(13) 0.1624(8) 0.960(2)
C2_2 C 0.2519(13) 0.1127(7) 0.9381(17)
C4_2 C 0.2774(13) 0.0397(7) 0.9837(18)
C5_2 C 0.2555(12) 0.0212(7) 0.8933(17)
C6_2 C 0.2347(13) 0.0533(7) 0.8217(19)
C7_2 C 0.2316(11) 0.0971(7) 0.8464(17)
H2_2 H 0.2153 0.1167 0.7995
C22_2 C 0.2917(16) 0.1948(12) 0.703(3)
H7_2 H 0.2894 0.1726 0.7500
C23_2 C 0.309(3) 0.210(2) 0.533(3)
H8_2 H 0.2981 0.2394 0.5523
H9_2 H 0.2867 0.2007 0.4753
H10_2 H 0.3468 0.2115 0.5172
C24_2 C 0.3188(19) 0.1358(13) 0.596(3)
H11_2 H 0.3414 0.1246 0.6520
H12_2 H 0.3384 0.1344 0.5365
H13_2 H 0.2862 0.1183 0.5858
C25_2 C 0.1184(10) 0.2298(5) 0.7238(11)
H14_2 H 0.0964 0.2528 0.7428
C26_2 C 0.1274(12) 0.1620(6) 0.5930(13)
H15_2 H 0.1174 0.1776 0.5316
H16_2 H 0.1132 0.1325 0.5881
H17_2 H 0.1665 0.1610 0.6046
C27_2 C 0.0488(11) 0.2059(8) 0.6476(10)
H18_2 H 0.0295 0.2118 0.7057
H19_2 H 0.0280 0.1857 0.6042
H20_2 H 0.0539 0.2330 0.6123
O22_2 O 0.2289(8) 0.3271(4) 0.9546(11)
O24_2 O 0.1833(9) 0.3225(6) 0.7492(14)
O27_2 O 0.2725(8) 0.3204(5) 0.7639(13)
O29_2 O 0.162(2) 0.4723(10) 0.881(2)
O30_2 O 0.1891(13) 0.5257(6) 0.9478(15)
O40_2 O 0.3043(8) 0.2564(5) 0.9612(13)
N9_2 N 0.1939(14) 0.4898(7) 0.9406(16)
C30_2 C 0.2238(13) 0.4158(7) 0.9926(17)
H21_2 H 0.2085 0.4055 0.9310
O3_2 O 0.3167(9) 0.8225(6) 0.7508(14)
O4_2 O 0.2275(8) 0.8204(5) 0.7361(13)
O10_2 O 0.4030(12) 0.9639(9) 0.835(2)
O11_2 O 0.1644(13) 0.9930(7) 0.952(2)
O12_2 O 0.1345(12) 0.9298(9) 0.925(2)
N3_2 N 0.3592(13) 0.9837(9) 0.8293(18)
N4_2 N 0.1695(12) 0.9577(8) 0.9147(19)
C8_2 C 0.2610(12) 0.9733(7) 0.8675(17)
C9_2 C 0.3077(13) 0.9561(8) 0.8332(18)
C10_2 C 0.3128(12) 0.9125(8) 0.8049(16)
H3_2 H 0.3462 0.9020 0.7865
C11_2 C 0.2684(12) 0.8847(7) 0.8040(17)
C12_2 C 0.2214(13) 0.9003(8) 0.8396(18)
H4_2 H 0.1909 0.8821 0.8401
C13_2 C 0.2194(12) 0.9436(8) 0.8752(18)
C14_2 C 0.2716(15) 0.8383(8) 0.7626(16)
Gd3_2 Gd 0.27464(5) 0.76210(3) 0.64748(7)
O30_3 O 0.3109(13) 0.0257(6) 0.5522(15)
O34_3 O 0.4030(12) 0.0361(9) 0.335(2)
O35_3 O 0.1644(13) 0.0070(7) 0.452(2)
O36_3 O 0.1345(12) 0.0702(9) 0.425(2)
N11_3 N 0.3592(13) 0.0163(9) 0.3293(18)
N12_3 N 0.1695(12) 0.0423(8) 0.4147(19)
C35_3 C 0.2610(12) 0.0267(7) 0.3675(17)
C36_3 C 0.3077(13) 0.0439(8) 0.3332(18)
C37_3 C 0.3128(12) 0.0875(8) 0.3049(16)
H23_3 H 0.3462 0.0980 0.2865
C38_3 C 0.2684(12) 0.1153(7) 0.3040(17)
C39_3 C 0.2214(13) 0.0997(8) 0.3396(18)
H24_3 H 0.1909 0.1179 0.3401
C40_3 C 0.2194(12) 0.0564(8) 0.3752(18)
C41_3 C 0.2716(15) 0.1617(8) 0.2626(16)
O1_3 O 0.2690(8) 0.6859(4) 0.6102(12)
O2_3 O 0.2289(8) 0.6729(4) 0.4546(11)
O5_3 O 0.162(2) 0.5277(10) 0.381(2)
O6_2 O 0.1891(13) 0.4743(6) 0.4478(15)
O7_3 O 0.2929(12) 0.5666(8) 0.8413(16)
O8_3 O 0.292(2) 0.5009(8) 0.797(2)
O9_3 O 0.1472(11) 0.5229(7) 0.682(2)
O10_3 O 0.0970(12) 0.4639(9) 0.665(2)
O11_3 O 0.3356(13) 0.4930(7) 0.548(2)
O12_3 O 0.3655(12) 0.4298(9) 0.575(2)
O13_2 O 0.3654(7) 0.7645(5) 0.5841(13)
O14_2 O 0.3043(8) 0.7436(5) 0.4612(13)
O15_2 O 0.3942(19) 0.6688(14) 0.182(3)
O16_2 O 0.4380(19) 0.7098(17) 0.108(3)
O17_2 O 0.5574(12) 0.8190(8) 0.330(2)
O18_2 O 0.5452(13) 0.8135(16) 0.483(3)
O19_3 O 0.2174(9) 0.7304(6) 0.7671(15)
O20_3 O 0.3329(8) 0.7267(6) 0.7728(13)
N1_3 N 0.1939(14) 0.5102(7) 0.4406(16)
N2_3 N 0.2869(14) 0.5397(8) 0.777(2)
N3_3 N 0.1408(13) 0.4837(9) 0.6707(18)
N4_3 N 0.3305(12) 0.4577(8) 0.5853(19)
N5_2 N 0.4237(11) 0.6979(10) 0.1831(19)
N6_2 N 0.5325(12) 0.8047(11) 0.398(2)
N7_3 N 0.1956(13) 0.6804(11) 0.886(2)
N8_3 N 0.3963(6) 0.6859(5) 0.8201(10)
C1_3 C 0.2499(13) 0.6624(8) 0.540(2)
C2_3 C 0.2481(13) 0.6127(7) 0.5619(17)
C3_3 C 0.2238(13) 0.5842(7) 0.4926(17)
H1_3 H 0.2085 0.5945 0.4310
C4_3 C 0.2226(13) 0.5397(7) 0.5163(18)
C5_3 C 0.2445(12) 0.5212(7) 0.6067(17)
C6_3 C 0.2653(13) 0.5533(7) 0.6783(19)
C7_3 C 0.2684(11) 0.5971(7) 0.6536(17)
H2_3 H 0.2847 0.6167 0.7005
C8_3 C 0.2390(12) 0.4733(7) 0.6325(17)
C9_3 C 0.1923(13) 0.4561(8) 0.6668(18)
C10_3 C 0.1872(12) 0.4125(8) 0.6951(16)
H3_3 H 0.1538 0.4020 0.7135
C11_3 C 0.2316(12) 0.3847(7) 0.6960(17)
C12_3 C 0.2786(13) 0.4003(8) 0.6604(18)
H4_3 H 0.3091 0.3821 0.6599
C13_3 C 0.2806(12) 0.4436(8) 0.6248(18)
C14_3 C 0.2284(15) 0.3383(8) 0.7374(16)
C15_2 C 0.3521(15) 0.7525(8) 0.494(2)
C16_2 C 0.3964(10) 0.7518(8) 0.4235(18)
C17_2 C 0.3904(11) 0.7259(8) 0.3394(19)
H5_2 H 0.3592 0.7086 0.3267
C18_2 C 0.4312(12) 0.7254(9) 0.2724(19)
C19_2 C 0.4773(12) 0.7521(10) 0.287(2)
C20_2 C 0.4832(12) 0.7750(9) 0.377(2)
C21_2 C 0.4450(11) 0.7744(9) 0.445(2)
H6_2 H 0.4516 0.7890 0.5062
C22_3 C 0.2083(16) 0.6948(12) 0.797(3)
H7_3 H 0.2106 0.6726 0.7500
C23_3 C 0.191(3) 0.710(2) 0.967(3)
H8_3 H 0.2019 0.7394 0.9477
H10_3 H 0.1532 0.7115 0.9828
C24_3 C 0.1812(19) 0.6358(13) 0.904(3)
H11_3 H 0.1586 0.6246 0.8480
H12_3 H 0.1616 0.6344 0.9635
H13_3 H 0.2138 0.6183 0.9142
C25_3 C 0.3816(10) 0.7298(5) 0.7762(11)
H14_3 H 0.4036 0.7528 0.7572
C26_3 C 0.3726(12) 0.6620(6) 0.9070(13)
H15_3 H 0.3826 0.6776 0.9684
H16_3 H 0.3868 0.6325 0.9119
H17_3 H 0.3335 0.6610 0.8954
C27_3 C 0.4512(11) 0.7059(8) 0.8524(10)
H18_3 H 0.4705 0.7118 0.7943
H19_3 H 0.4720 0.6857 0.8958
H20_3 H 0.4461 0.7330 0.8877
O21_3 O 0.2310(8) 0.8141(4) 0.3898(12)
O22_3 O 0.2711(8) 0.8271(4) 0.5454(11)
O29_3 O 0.338(2) 0.9723(10) 0.619(2)
O31_3 O 0.2071(12) 0.9334(8) 0.1587(16)
O32_3 O 0.208(2) 0.9991(8) 0.203(2)
O33_3 O 0.3528(11) 0.9771(7) 0.318(2)
O38_3 O 0.1346(7) 0.7355(5) 0.4159(13)
O39_2 O 0.6957(8) 0.7436(5) 0.0388(13)
O40_3 O 0.1957(8) 0.7564(5) 0.5388(13)
O41_2 O 0.6058(19) 0.6688(14) 0.318(3)
O42_2 O 0.5620(19) 0.7098(17) 0.392(3)
O43_2 O 0.4426(12) 0.8190(8) 0.170(2)
O44_2 O 0.4548(13) 0.8135(16) 0.017(3)
O45_3 O 0.2826(9) 0.7696(6) 0.2329(15)
O46_3 O 0.1671(8) 0.7733(6) 0.2272(13)
N9_3 N 0.3061(14) 0.9898(7) 0.5594(16)
N10_3 N 0.2131(14) 0.9603(8) 0.223(2)
N13_2 N 0.5763(11) 0.6979(10) 0.3169(19)
N14_2 N 0.4675(12) 0.8047(11) 0.102(2)
N15_3 N 0.3044(13) 0.8196(11) 0.114(2)
N16_3 N 0.1037(6) 0.8141(5) 0.1799(10)
C28_3 C 0.2501(13) 0.8376(8) 0.460(2)
C29_3 C 0.2519(13) 0.8873(7) 0.4381(17)
C30_3 C 0.2762(13) 0.9158(7) 0.5074(17)
H21_3 H 0.2915 0.9055 0.5690
C31_3 C 0.2774(13) 0.9603(7) 0.4837(18)
C32_3 C 0.2555(12) 0.9788(7) 0.3933(17)
C33_3 C 0.2347(13) 0.9467(7) 0.3217(19)
C34_3 C 0.2316(11) 0.9029(7) 0.3464(17)
H22_3 H 0.2153 0.8833 0.2995
C42_2 C 0.6479(15) 0.7525(8) 0.006(2)
C43_2 C 0.6036(10) 0.7518(8) 0.0765(18)
C44_2 C 0.6096(11) 0.7259(8) 0.1606(19)
H25_2 H 0.6408 0.7086 0.1733
C45_2 C 0.5688(12) 0.7254(9) 0.2276(19)
C46_2 C 0.5227(12) 0.7521(10) 0.213(2)
C47_2 C 0.5168(12) 0.7750(9) 0.123(2)
C48_2 C 0.5550(11) 0.7744(9) 0.055(2)
C49_3 C 0.2917(16) 0.8052(12) 0.203(3)
H27_3 H 0.2894 0.8274 0.2500
C50_3 C 0.309(3) 0.790(2) 0.033(3)
H28_3 H 0.2981 0.7606 0.0523
H30_3 H 0.3468 0.7885 0.0172
C51_3 C 0.3188(19) 0.8642(13) 0.096(3)
H31_3 H 0.3414 0.8754 0.1520
H32_3 H 0.3384 0.8656 0.0365
H33_3 H 0.2862 0.8817 0.0858
C52_3 C 0.1184(10) 0.7702(5) 0.2238(11)
H34_3 H 0.0964 0.7472 0.2428
C53_3 C 0.1274(12) 0.8380(6) 0.0930(13)
H35_3 H 0.1174 0.8224 0.0316
H36_3 H 0.1132 0.8675 0.0881
H37_3 H 0.1665 0.8390 0.1046
C54_3 C 0.0488(11) 0.7941(8) 0.1476(10)
H38_3 H 0.0295 0.7882 0.2057
H39_3 H 0.0280 0.8143 0.1042
H40_3 H 0.0539 0.7670 0.1123
O37_2 O 0.6346(7) 0.7645(5) 0.9159(13)
H26_2 H 0.5484 0.7890 0.9938
H29_2 H 0.2867 0.7993 0.9753
O34_4 O 0.5970(12) 0.0361(9) 0.165(2)
O35_4 O 0.8356(13) 0.0070(7) 0.048(2)
O36_4 O 0.8655(12) 0.0702(9) 0.075(2)
N11_4 N 0.6408(13) 0.0163(9) 0.1707(18)
N12_4 N 0.8305(12) 0.0423(8) 0.0853(19)
C35_4 C 0.7390(12) 0.0267(7) 0.1325(17)
C36_4 C 0.6923(13) 0.0439(8) 0.1668(18)
C37_4 C 0.6872(12) 0.0875(8) 0.1951(16)
H23_4 H 0.6538 0.0980 0.2135
C38_4 C 0.7316(12) 0.1153(7) 0.1960(17)
C39_4 C 0.7786(13) 0.0997(8) 0.1604(18)
H24_4 H 0.8091 0.1179 0.1599
C40_4 C 0.7806(12) 0.0564(8) 0.1248(18)
C41_4 C 0.7284(15) 0.1617(8) 0.2374(16)
O2_4 O 0.7711(8) 0.6729(4) 0.0454(11)
O5_4 O 0.838(2) 0.5277(10) 0.119(2)
O6_3 O 0.8109(13) 0.4743(6) 0.0522(15)
N1_4 N 0.8061(14) 0.5102(7) 0.0594(16)
C3_4 C 0.7762(13) 0.5842(7) 0.0074(17)
H1_4 H 0.7915 0.5945 0.0690
O21_4 O 0.7690(8) 0.8141(4) 0.1102(12)
O31_4 O 0.7929(12) 0.9334(8) 0.3413(16)
O32_4 O 0.792(2) 0.9991(8) 0.297(2)
O33_4 O 0.6472(11) 0.9771(7) 0.182(2)
O38_4 O 0.8654(7) 0.7355(5) 0.0841(13)
O45_4 O 0.7174(9) 0.7696(6) 0.2671(15)
O46_4 O 0.8329(8) 0.7733(6) 0.2728(13)
N10_4 N 0.7869(14) 0.9603(8) 0.277(2)
N15_4 N 0.6956(13) 0.8196(11) 0.386(2)
N16_4 N 0.8963(6) 0.8141(5) 0.3201(10)
C28_4 C 0.7499(13) 0.8376(8) 0.040(2)
C29_4 C 0.7481(13) 0.8873(7) 0.0619(17)
C31_4 C 0.7226(13) 0.9603(7) 0.0163(18)
C32_4 C 0.7445(12) 0.9788(7) 0.1067(17)
C33_4 C 0.7653(13) 0.9467(7) 0.1783(19)
C34_4 C 0.7684(11) 0.9029(7) 0.1536(17)
H22_4 H 0.7847 0.8833 0.2005
C49_4 C 0.7083(16) 0.8052(12) 0.297(3)
H27_4 H 0.7106 0.8274 0.2500
C50_4 C 0.691(3) 0.790(2) 0.467(3)
H28_4 H 0.7019 0.7606 0.4477
H29_3 H 0.7133 0.7993 0.5247
H30_4 H 0.6532 0.7885 0.4828
C51_4 C 0.6812(19) 0.8642(13) 0.404(3)
H31_4 H 0.6586 0.8754 0.3480
H32_4 H 0.6616 0.8656 0.4635
H33_4 H 0.7138 0.8817 0.4142
C52_4 C 0.8816(10) 0.7702(5) 0.2762(11)
H34_4 H 0.9036 0.7472 0.2572
C53_4 C 0.8726(12) 0.8380(6) 0.4070(13)
H35_4 H 0.8826 0.8224 0.4684
H36_4 H 0.8868 0.8675 0.4119
H37_4 H 0.8335 0.8390 0.3954
C54_4 C 0.9512(11) 0.7941(8) 0.3524(10)
H38_4 H 0.9705 0.7882 0.2943
H39_4 H 0.9720 0.8143 0.3958
H40_4 H 0.9461 0.7670 0.3877
O1_4 O 0.7310(8) 0.6859(4) 0.8898(12)
O7_4 O 0.7071(12) 0.5666(8) 0.6587(16)
O8_4 O 0.708(2) 0.5009(8) 0.703(2)
O9_4 O 0.8528(11) 0.5229(7) 0.818(2)
O10_4 O 0.9030(12) 0.4639(9) 0.835(2)
O11_4 O 0.6644(13) 0.4930(7) 0.952(2)
O12_4 O 0.6345(12) 0.4298(9) 0.925(2)
O19_4 O 0.7826(9) 0.7304(6) 0.7329(15)
O20_4 O 0.6671(8) 0.7267(6) 0.7272(13)
N2_4 N 0.7131(14) 0.5397(8) 0.723(2)
N3_4 N 0.8592(13) 0.4837(9) 0.8293(18)
N4_4 N 0.6695(12) 0.4577(8) 0.9147(19)
N7_4 N 0.8044(13) 0.6804(11) 0.614(2)
N8_4 N 0.6037(6) 0.6859(5) 0.6799(10)
C1_4 C 0.7501(13) 0.6624(8) 0.960(2)
C2_4 C 0.7519(13) 0.6127(7) 0.9381(17)
C4_4 C 0.7774(13) 0.5397(7) 0.9837(18)
C5_4 C 0.7555(12) 0.5212(7) 0.8933(17)
C6_4 C 0.7347(13) 0.5533(7) 0.8217(19)
C7_4 C 0.7316(11) 0.5971(7) 0.8464(17)
H2_4 H 0.7153 0.6167 0.7995
C8_4 C 0.7610(12) 0.4733(7) 0.8675(17)
C9_4 C 0.8077(13) 0.4561(8) 0.8332(18)
C10_4 C 0.8128(12) 0.4125(8) 0.8049(16)
H3_4 H 0.8462 0.4020 0.7865
C11_4 C 0.7684(12) 0.3847(7) 0.8040(17)
C12_4 C 0.7214(13) 0.4003(8) 0.8396(18)
H4_4 H 0.6909 0.3821 0.8401
C13_4 C 0.7194(12) 0.4436(8) 0.8752(18)
C14_4 C 0.7716(15) 0.3383(8) 0.7626(16)
C22_4 C 0.7917(16) 0.6948(12) 0.703(3)
H7_4 H 0.7894 0.6726 0.7500
C23_4 C 0.809(3) 0.710(2) 0.533(3)
H8_4 H 0.7981 0.7394 0.5523
H9_3 H 0.7867 0.7007 0.4753
H10_4 H 0.8468 0.7115 0.5172
C24_4 C 0.8188(19) 0.6358(13) 0.596(3)
H11_4 H 0.8414 0.6246 0.6520
H12_4 H 0.8384 0.6344 0.5365
H13_4 H 0.7862 0.6183 0.5858
C25_4 C 0.6184(10) 0.7298(5) 0.7238(11)
H14_4 H 0.5964 0.7528 0.7428
C26_4 C 0.6274(12) 0.6620(6) 0.5930(13)
H15_4 H 0.6174 0.6776 0.5316
H16_4 H 0.6132 0.6325 0.5881
H17_4 H 0.6665 0.6610 0.6046
C27_4 C 0.5488(11) 0.7059(8) 0.6476(10)
H18_4 H 0.5295 0.7118 0.7057
H19_4 H 0.5280 0.6857 0.6042
H20_4 H 0.5539 0.7330 0.6123
O22_4 O 0.7289(8) 0.8271(4) 0.9546(11)
O29_4 O 0.662(2) 0.9723(10) 0.881(2)
O40_4 O 0.8043(8) 0.7564(5) 0.9612(13)
N9_4 N 0.6939(14) 0.9898(7) 0.9406(16)
C30_4 C 0.7238(13) 0.9158(7) 0.9926(17)
H21_4 H 0.7085 0.9055 0.9310
O15_3 O 0.1058(19) 0.8312(14) 0.818(3)
O16_3 O 0.0620(19) 0.7902(17) 0.892(3)
N5_3 N 0.0763(11) 0.8021(10) 0.8169(19)
C15_3 C 0.1479(15) 0.7475(8) 0.506(2)
C16_3 C 0.1036(10) 0.7482(8) 0.5765(18)
C17_3 C 0.1096(11) 0.7741(8) 0.6606(19)
H5_3 H 0.1408 0.7914 0.6733
C18_3 C 0.0688(12) 0.7746(9) 0.7276(19)
C19_3 C 0.0227(12) 0.7479(10) 0.713(2)
C20_3 C 0.0168(12) 0.7250(9) 0.623(2)
C21_3 C 0.0550(11) 0.7256(9) 0.555(2)
H6_3 H 0.0484 0.7110 0.4938
O43_3 O 0.0574(12) 0.6810(8) 0.830(2)
O44_3 O 0.0452(13) 0.6865(16) 0.983(3)
N14_3 N 0.0325(12) 0.6953(11) 0.898(2)
H26_3 H 0.9516 0.7110 0.0062
O17_3 O 0.9426(12) 0.6810(8) 0.670(2)
O18_3 O 0.9548(13) 0.6865(16) 0.517(3)
N6_3 N 0.9675(12) 0.6953(11) 0.602(2)
O41_3 O 0.8942(19) 0.8312(14) 0.682(3)
O42_3 O 0.9380(19) 0.7902(17) 0.608(3)
N13_3 N 0.9237(11) 0.8021(10) 0.6831(19)
C42_3 C 0.8521(15) 0.7475(8) 0.994(2)
C43_3 C 0.8964(10) 0.7482(8) 0.9235(18)
C44_3 C 0.8904(11) 0.7741(8) 0.8394(19)
H25_3 H 0.8592 0.7914 0.8267
C45_3 C 0.9312(12) 0.7746(9) 0.7724(19)
C46_3 C 0.9773(12) 0.7479(10) 0.787(2)
C47_3 C 0.9832(12) 0.7250(9) 0.877(2)
C48_3 C 0.9450(11) 0.7256(9) 0.945(2)
H26_4 H 0.4516 0.2110 0.0062
O15_4 O 0.6058(19) 0.3312(14) 0.818(3)
O16_4 O 0.5620(19) 0.2902(17) 0.892(3)
O17_4 O 0.4426(12) 0.1810(8) 0.670(2)
O18_4 O 0.4548(13) 0.1865(16) 0.517(3)
N5_4 N 0.5763(11) 0.3021(10) 0.8169(19)
N6_4 N 0.4675(12) 0.1953(11) 0.602(2)
C15_4 C 0.6479(15) 0.2475(8) 0.506(2)
C16_4 C 0.6036(10) 0.2482(8) 0.5765(18)
C17_4 C 0.6096(11) 0.2741(8) 0.6606(19)
H5_4 H 0.6408 0.2914 0.6733
C18_4 C 0.5688(12) 0.2746(9) 0.7276(19)
C19_4 C 0.5227(12) 0.2479(10) 0.713(2)
C20_4 C 0.5168(12) 0.2250(9) 0.623(2)
C21_4 C 0.5550(11) 0.2256(9) 0.555(2)
H6_4 H 0.5484 0.2110 0.4938
O41_4 O 0.3942(19) 0.3312(14) 0.682(3)
O42_4 O 0.4380(19) 0.2902(17) 0.608(3)
O43_4 O 0.5574(12) 0.1810(8) 0.830(2)
O44_4 O 0.5452(13) 0.1865(16) 0.983(3)
N13_4 N 0.4237(11) 0.3021(10) 0.6831(19)
N14_4 N 0.5325(12) 0.1953(11) 0.898(2)
C42_4 C 0.3521(15) 0.2475(8) 0.994(2)
C43_4 C 0.3964(10) 0.2482(8) 0.9235(18)
C44_4 C 0.3904(11) 0.2741(8) 0.8394(19)
H25_4 H 0.3592 0.2914 0.8267
C45_4 C 0.4312(12) 0.2746(9) 0.7724(19)
C46_4 C 0.4773(12) 0.2479(10) 0.787(2)
C47_4 C 0.4832(12) 0.2250(9) 0.877(2)
C48_4 C 0.4450(11) 0.2256(9) 0.945(2)
H29_4 H 0.7867 0.2993 0.9753
O6_4 O 0.3109(13) 0.9743(6) 0.0522(15)
H9_4 H 0.2133 0.7007 0.0247
O30_4 O 0.6891(13) 0.0257(6) 0.9478(15)
loop_
_geom_bond_atom_site_label_1
_geom_bond_atom_site_label_2
_geom_bond_site_symmetry_1
_geom_bond_site_symmetry_2
O17 N6 1_555 1_555
O18 N6 1_555 1_555
Gd5 O39 1_555 1_555
O41 N13 1_555 1_555
O42 N13 1_555 1_555
N13 C45 1_555 1_555
C42 O39 1_555 1_555
C43 C42 1_555 1_555
C44 C43 1_555 1_555
H25 C44 1_555 1_555
C45 C44 1_555 1_555
C47 C46 1_555 1_555
C48 C43 1_555 1_555
C45 C46 1_555 1_555
C47 C48 1_555 1_555
Gd4 O37 1_555 1_555
Gd1 O1 1_555 1_555
O1 C1 1_555 1_555
O2 C1 1_555 1_555
O5 N1 1_555 1_555
O7 N2 1_555 1_555
O8 N2 1_555 1_555
O13 Gd1 1_555 1_555
O14 Gd1 1_555 1_555
O15 N5 1_555 1_555
O16 N5 1_555 1_555
O19 Gd1 1_555 1_555
O20 Gd1 1_555 1_555
N1 C4 1_555 1_555
N2 C6 1_555 1_555
N5 C18 1_555 1_555
N7 C22 1_555 1_555
N8 C25 1_555 1_555
C1 C2 1_555 1_555
C2 C3 1_555 1_555
C3 H1 1_555 1_555
C4 C3 1_555 1_555
C5 C4 1_555 1_555
C6 C5 1_555 1_555
C7 C2 1_555 1_555
H2 C7 1_555 1_555
C15 O13 1_555 1_555
C16 C15 1_555 1_555
C17 C16 1_555 1_555
H5 C17 1_555 1_555
C18 C17 1_555 1_555
C19 C18 1_555 1_555
C20 C19 1_555 1_555
C21 C16 1_555 1_555
H6 C21 1_555 1_555
C22 O19 1_555 1_555
H7 C22 1_555 1_555
C23 N7 1_555 1_555
H8 C23 1_555 1_555
H10 C23 1_555 1_555
C24 N7 1_555 1_555
H11 C24 1_555 1_555
H12 C24 1_555 1_555
H13 C24 1_555 1_555
C25 O20 1_555 1_555
H14 C25 1_555 1_555
C26 N8 1_555 1_555
H15 C26 1_555 1_555
H16 C26 1_555 1_555
H17 C26 1_555 1_555
C27 N8 1_555 1_555
H18 C27 1_555 1_555
H19 C27 1_555 1_555
H20 C27 1_555 1_555
Gd2 O2 1_555 1_555
Gd6 O23 1_555 1_555
O21 Gd2 1_555 1_555
O22 Gd1 1_555 1_555
O23 C41 1_555 1_555
O24 Gd1 1_555 1_555
O25 Gd2 1_555 1_555
O26 Gd6 1_555 1_555
O27 Gd1 1_555 1_555
O28 Gd2 1_555 1_555
O29 N9 1_555 1_555
O30 N9 1_555 1_555
O31 N10 1_555 1_555
O32 N10 1_555 1_555
O33 N11 1_555 1_555
O34 N11 1_555 1_555
O35 N12 1_555 1_555
O36 N12 1_555 1_555
O38 Gd2 1_555 1_555
O40 Gd1 1_555 1_555
O43 N14 1_555 1_555
O44 N14 1_555 1_555
O45 Gd2 1_555 1_555
O46 Gd2 1_555 1_555
N9 C31 1_555 1_555
N10 C33 1_555 1_555
N11 C36 1_555 1_555
N12 C40 1_555 1_555
N15 C49 1_555 1_555
N16 C52 1_555 1_555
C28 O21 1_555 1_555
C29 C28 1_555 1_555
C30 C29 1_555 1_555
H21 C30 1_555 1_555
C31 C30 1_555 1_555
C32 C31 1_555 1_555
C33 C32 1_555 1_555
C34 C29 1_555 1_555
H22 C34 1_555 1_555
C35 C32 1_555 1_555
C36 C35 1_555 1_555
C37 C36 1_555 1_555
H23 C37 1_555 1_555
C38 C37 1_555 1_555
C39 C38 1_555 1_555
H24 C39 1_555 1_555
C40 C35 1_555 1_555
C41 O26 1_555 1_555
C49 O45 1_555 1_555
H27 C49 1_555 1_555
C50 N15 1_555 1_555
H28 C50 1_555 1_555
H30 C50 1_555 1_555
C51 N15 1_555 1_555
H31 C51 1_555 1_555
H32 C51 1_555 1_555
H33 C51 1_555 1_555
C52 O46 1_555 1_555
H34 C52 1_555 1_555
C53 N16 1_555 1_555
H35 C53 1_555 1_555
H36 C53 1_555 1_555
H37 C53 1_555 1_555
C54 N16 1_555 1_555
H38 C54 1_555 1_555
H39 C54 1_555 1_555
H40 C54 1_555 1_555
O14 C15 1_555 1_555
O14 Gd2 1_555 1_555
C6 C7 1_555 1_555
C20 C21 1_555 1_555
Gd2 O40 1_555 1_555
O22 C28 1_555 1_555
C33 C34 1_555 1_555
C38 C41 1_555 1_555
C39 C40 1_555 1_555
O3 C14 1_555 1_555
O4 C14 1_555 1_555
O10 N3 1_555 1_555
O11 N4 1_555 1_555
O12 N4 1_555 1_555
N3 C9 1_555 1_555
N4 C13 1_555 1_555
C9 C8 1_555 1_555
C10 C9 1_555 1_555
H3 C10 1_555 1_555
C11 C10 1_555 1_555
C12 C11 1_555 1_555
H4 C12 1_555 1_555
C13 C8 1_555 1_555
C14 C11 1_555 1_555
Gd3 O3 1_555 1_555
O4 Gd3 1_555 1_555
C12 C13 1_555 1_555
O5_2 N1_2 1_555 1_555
C3_2 H1_2 1_555 1_555
Gd5 O2_2 1_555 1_555
Gd6_2 O23_2 1_555 1_555
O21_2 Gd5 1_555 1_555
O23_2 C41_2 1_555 1_555
O25_2 Gd5 1_555 1_555
O26_2 Gd6_2 1_555 1_555
O28_2 Gd5 1_555 1_555
O31_2 N10_2 1_555 1_555
O32_2 N10_2 1_555 1_555
O33_2 N11_2 1_555 1_555
O34_2 N11_2 1_555 1_555
O35_2 N12_2 1_555 1_555
O36_2 N12_2 1_555 1_555
O38_2 Gd5 1_555 1_555
O45_2 Gd5 1_555 1_555
O46_2 Gd5 1_555 1_555
N10_2 C33_2 1_555 1_555
N11_2 C36_2 1_555 1_555
N12_2 C40_2 1_555 1_555
N15_2 C49_2 1_555 1_555
N16_2 C52_2 1_555 1_555
C28_2 O21_2 1_555 1_555
C29_2 C28_2 1_555 1_555
C32_2 C31_2 1_555 1_555
C33_2 C32_2 1_555 1_555
C34_2 C29_2 1_555 1_555
H22_2 C34_2 1_555 1_555
C35_2 C32_2 1_555 1_555
C36_2 C35_2 1_555 1_555
C37_2 C36_2 1_555 1_555
H23_2 C37_2 1_555 1_555
C38_2 C37_2 1_555 1_555
C39_2 C38_2 1_555 1_555
H24_2 C39_2 1_555 1_555
C40_2 C35_2 1_555 1_555
C41_2 O26_2 1_555 1_555
C49_2 O45_2 1_555 1_555
H27_2 C49_2 1_555 1_555
C50_2 N15_2 1_555 1_555
H28_2 C50_2 1_555 1_555
H29 C50_2 1_555 1_555
H30_2 C50_2 1_555 1_555
C51_2 N15_2 1_555 1_555
H31_2 C51_2 1_555 1_555
H32_2 C51_2 1_555 1_555
H33_2 C51_2 1_555 1_555
C52_2 O46_2 1_555 1_555
H34_2 C52_2 1_555 1_555
C53_2 N16_2 1_555 1_555
H35_2 C53_2 1_555 1_555
H36_2 C53_2 1_555 1_555
H37_2 C53_2 1_555 1_555
C54_2 N16_2 1_555 1_555
H38_2 C54_2 1_555 1_555
H39_2 C54_2 1_555 1_555
H40_2 C54_2 1_555 1_555
C33_2 C34_2 1_555 1_555
C38_2 C41_2 1_555 1_555
C39_2 C40_2 1_555 1_555
Gd4 O1_2 1_555 1_555
O1_2 C1_2 1_555 1_555
O7_2 N2_2 1_555 1_555
O8_2 N2_2 1_555 1_555
O19_2 Gd4 1_555 1_555
O20_2 Gd4 1_555 1_555
N2_2 C6_2 1_555 1_555
N7_2 C22_2 1_555 1_555
N8_2 C25_2 1_555 1_555
C1_2 C2_2 1_555 1_555
C5_2 C4_2 1_555 1_555
C6_2 C5_2 1_555 1_555
C7_2 C2_2 1_555 1_555
H2_2 C7_2 1_555 1_555
C22_2 O19_2 1_555 1_555
H7_2 C22_2 1_555 1_555
C23_2 N7_2 1_555 1_555
H8_2 C23_2 1_555 1_555
H9_2 C23_2 1_555 1_555
H10_2 C23_2 1_555 1_555
C24_2 N7_2 1_555 1_555
H11_2 C24_2 1_555 1_555
H12_2 C24_2 1_555 1_555
H13_2 C24_2 1_555 1_555
C25_2 O20_2 1_555 1_555
H14_2 C25_2 1_555 1_555
C26_2 N8_2 1_555 1_555
H15_2 C26_2 1_555 1_555
H16_2 C26_2 1_555 1_555
H17_2 C26_2 1_555 1_555
C27_2 N8_2 1_555 1_555
H18_2 C27_2 1_555 1_555
H19_2 C27_2 1_555 1_555
H20_2 C27_2 1_555 1_555
O22_2 Gd4 1_555 1_555
O24_2 Gd4 1_555 1_555
O27_2 Gd4 1_555 1_555
O29_2 N9_2 1_555 1_555
O30_2 N9_2 1_555 1_555
O40_2 Gd4 1_555 1_555
H21_2 C30_2 1_555 1_555
C6_2 C7_2 1_555 1_555
O3_2 C14_2 1_555 1_555
O4_2 C14_2 1_555 1_555
O10_2 N3_2 1_555 1_555
O11_2 N4_2 1_555 1_555
O12_2 N4_2 1_555 1_555
N3_2 C9_2 1_555 1_555
N4_2 C13_2 1_555 1_555
C9_2 C8_2 1_555 1_555
C10_2 C9_2 1_555 1_555
H3_2 C10_2 1_555 1_555
C11_2 C10_2 1_555 1_555
C12_2 C11_2 1_555 1_555
H4_2 C12_2 1_555 1_555
C13_2 C8_2 1_555 1_555
C14_2 C11_2 1_555 1_555
Gd3_2 O3_2 1_555 1_555
O4_2 Gd3_2 1_555 1_555
C12_2 C13_2 1_555 1_555
O25_2 C41_3 1_555 1_555
O34_3 N11_3 1_555 1_555
O35_3 N12_3 1_555 1_555
O36_3 N12_3 1_555 1_555
N11_3 C36_3 1_555 1_555
N12_3 C40_3 1_555 1_555
C36_3 C35_3 1_555 1_555
C37_3 C36_3 1_555 1_555
H23_3 C37_3 1_555 1_555
C38_3 C37_3 1_555 1_555
C39_3 C38_3 1_555 1_555
H24_3 C39_3 1_555 1_555
C40_3 C35_3 1_555 1_555
C41_3 O28_2 1_555 1_555
C38_3 C41_3 1_555 1_555
C39_3 C40_3 1_555 1_555
Gd3_2 O1_3 1_555 1_555
O1_3 C1_3 1_555 1_555
O2_3 C1_3 1_555 1_555
O24_2 C14_3 1_555 1_555
O27_2 C14_3 1_555 1_555
O5_3 N1_3 1_555 1_555
O6_2 N1_3 1_555 1_555
O7_3 N2_3 1_555 1_555
O8_3 N2_3 1_555 1_555
O9_3 N3_3 1_555 1_555
O10_3 N3_3 1_555 1_555
O11_3 N4_3 1_555 1_555
O12_3 N4_3 1_555 1_555
O13_2 Gd3_2 1_555 1_555
O14_2 Gd3_2 1_555 1_555
O15_2 N5_2 1_555 1_555
O16_2 N5_2 1_555 1_555
O17_2 N6_2 1_555 1_555
O18_2 N6_2 1_555 1_555
O19_3 Gd3_2 1_555 1_555
O20_3 Gd3_2 1_555 1_555
N1_3 C4_3 1_555 1_555
N2_3 C6_3 1_555 1_555
N3_3 C9_3 1_555 1_555
N4_3 C13_3 1_555 1_555
N5_2 C18_2 1_555 1_555
N6_2 C20_2 1_555 1_555
N7_3 C22_3 1_555 1_555
N8_3 C25_3 1_555 1_555
C1_3 C2_3 1_555 1_555
C2_3 C3_3 1_555 1_555
C3_3 H1_3 1_555 1_555
C4_3 C3_3 1_555 1_555
C5_3 C4_3 1_555 1_555
C6_3 C5_3 1_555 1_555
C7_3 C2_3 1_555 1_555
H2_3 C7_3 1_555 1_555
C8_3 C5_3 1_555 1_555
C9_3 C8_3 1_555 1_555
C10_3 C9_3 1_555 1_555
H3_3 C10_3 1_555 1_555
C11_3 C10_3 1_555 1_555
C12_3 C11_3 1_555 1_555
H4_3 C12_3 1_555 1_555
C13_3 C8_3 1_555 1_555
C14_3 C11_3 1_555 1_555
C15_2 O13_2 1_555 1_555
C16_2 C15_2 1_555 1_555
C17_2 C16_2 1_555 1_555
H5_2 C17_2 1_555 1_555
C18_2 C17_2 1_555 1_555
C19_2 C18_2 1_555 1_555
C20_2 C19_2 1_555 1_555
C21_2 C16_2 1_555 1_555
H6_2 C21_2 1_555 1_555
C22_3 O19_3 1_555 1_555
H7_3 C22_3 1_555 1_555
C23_3 N7_3 1_555 1_555
H8_3 C23_3 1_555 1_555
H10_3 C23_3 1_555 1_555
C24_3 N7_3 1_555 1_555
H11_3 C24_3 1_555 1_555
H12_3 C24_3 1_555 1_555
H13_3 C24_3 1_555 1_555
C25_3 O20_3 1_555 1_555
H14_3 C25_3 1_555 1_555
C26_3 N8_3 1_555 1_555
H15_3 C26_3 1_555 1_555
H16_3 C26_3 1_555 1_555
H17_3 C26_3 1_555 1_555
C27_3 N8_3 1_555 1_555
H18_3 C27_3 1_555 1_555
H19_3 C27_3 1_555 1_555
H20_3 C27_3 1_555 1_555
Gd6_2 O2_3 1_555 1_555
Gd6 O39_2 1_555 1_555
O21_3 Gd6_2 1_555 1_555
O22_3 Gd3_2 1_555 1_555
O29_3 N9_3 1_555 1_555
O31_3 N10_3 1_555 1_555
O32_3 N10_3 1_555 1_555
O38_3 Gd6_2 1_555 1_555
O40_3 Gd3_2 1_555 1_555
O41_2 N13_2 1_555 1_555
O42_2 N13_2 1_555 1_555
O43_2 N14_2 1_555 1_555
O44_2 N14_2 1_555 1_555
O45_3 Gd6_2 1_555 1_555
O46_3 Gd6_2 1_555 1_555
N9_3 C31_3 1_555 1_555
N10_3 C33_3 1_555 1_555
N13_2 C45_2 1_555 1_555
N14_2 C47_2 1_555 1_555
N15_3 C49_3 1_555 1_555
N16_3 C52_3 1_555 1_555
C28_3 O21_3 1_555 1_555
C29_3 C28_3 1_555 1_555
C30_3 C29_3 1_555 1_555
H21_3 C30_3 1_555 1_555
C31_3 C30_3 1_555 1_555
C32_3 C31_3 1_555 1_555
C33_3 C32_3 1_555 1_555
C34_3 C29_3 1_555 1_555
H22_3 C34_3 1_555 1_555
C42_2 O39_2 1_555 1_555
C43_2 C42_2 1_555 1_555
C44_2 C43_2 1_555 1_555
H25_2 C44_2 1_555 1_555
C45_2 C44_2 1_555 1_555
C46_2 C19_2 1_555 1_555
C47_2 C46_2 1_555 1_555
C48_2 C43_2 1_555 1_555
C49_3 O45_3 1_555 1_555
H27_3 C49_3 1_555 1_555
C50_3 N15_3 1_555 1_555
H28_3 C50_3 1_555 1_555
H30_3 C50_3 1_555 1_555
C51_3 N15_3 1_555 1_555
H31_3 C51_3 1_555 1_555
H32_3 C51_3 1_555 1_555
H33_3 C51_3 1_555 1_555
C52_3 O46_3 1_555 1_555
H34_3 C52_3 1_555 1_555
C53_3 N16_3 1_555 1_555
H35_3 C53_3 1_555 1_555
H36_3 C53_3 1_555 1_555
H37_3 C53_3 1_555 1_555
C54_3 N16_3 1_555 1_555
H38_3 C54_3 1_555 1_555
H39_3 C54_3 1_555 1_555
H40_3 C54_3 1_555 1_555
O14_2 C15_2 1_555 1_555
O14_2 Gd6_2 1_555 1_555
C6_3 C7_3 1_555 1_555
C12_3 C13_3 1_555 1_555
C20_2 C21_2 1_555 1_555
Gd6_2 O40_3 1_555 1_555
O22_3 C28_3 1_555 1_555
C33_3 C34_3 1_555 1_555
C45_2 C46_2 1_555 1_555
C47_2 C48_2 1_555 1_555
Gd3 O37_2 1_555 1_555
O25 C41_4 1_555 1_555
O34_4 N11_4 1_555 1_555
O35_4 N12_4 1_555 1_555
O36_4 N12_4 1_555 1_555
N11_4 C36_4 1_555 1_555
N12_4 C40_4 1_555 1_555
C36_4 C35_4 1_555 1_555
C37_4 C36_4 1_555 1_555
H23_4 C37_4 1_555 1_555
C38_4 C37_4 1_555 1_555
C39_4 C38_4 1_555 1_555
H24_4 C39_4 1_555 1_555
C40_4 C35_4 1_555 1_555
C41_4 O28 1_555 1_555
C38_4 C41_4 1_555 1_555
C39_4 C40_4 1_555 1_555
O5_4 N1_4 1_555 1_555
O6_3 N1_4 1_555 1_555
C3_4 H1_4 1_555 1_555
Gd6 O2_4 1_555 1_555
O21_4 Gd6 1_555 1_555
O31_4 N10_4 1_555 1_555
O32_4 N10_4 1_555 1_555
O38_4 Gd6 1_555 1_555
O45_4 Gd6 1_555 1_555
O46_4 Gd6 1_555 1_555
N10_4 C33_4 1_555 1_555
N15_4 C49_4 1_555 1_555
N16_4 C52_4 1_555 1_555
C28_4 O21_4 1_555 1_555
C29_4 C28_4 1_555 1_555
C32_4 C31_4 1_555 1_555
C33_4 C32_4 1_555 1_555
C34_4 C29_4 1_555 1_555
H22_4 C34_4 1_555 1_555
C49_4 O45_4 1_555 1_555
H27_4 C49_4 1_555 1_555
C50_4 N15_4 1_555 1_555
H28_4 C50_4 1_555 1_555
H29_3 C50_4 1_555 1_555
H30_4 C50_4 1_555 1_555
C51_4 N15_4 1_555 1_555
H31_4 C51_4 1_555 1_555
H32_4 C51_4 1_555 1_555
H33_4 C51_4 1_555 1_555
C52_4 O46_4 1_555 1_555
H34_4 C52_4 1_555 1_555
C53_4 N16_4 1_555 1_555
H35_4 C53_4 1_555 1_555
H36_4 C53_4 1_555 1_555
H37_4 C53_4 1_555 1_555
C54_4 N16_4 1_555 1_555
H38_4 C54_4 1_555 1_555
H39_4 C54_4 1_555 1_555
H40_4 C54_4 1_555 1_555
C33_4 C34_4 1_555 1_555
Gd3 O1_4 1_555 1_555
O1_4 C1_4 1_555 1_555
O24 C14_4 1_555 1_555
O27 C14_4 1_555 1_555
O7_4 N2_4 1_555 1_555
O8_4 N2_4 1_555 1_555
O9_4 N3_4 1_555 1_555
O10_4 N3_4 1_555 1_555
O11_4 N4_4 1_555 1_555
O12_4 N4_4 1_555 1_555
O19_4 Gd3 1_555 1_555
O20_4 Gd3 1_555 1_555
N2_4 C6_4 1_555 1_555
N3_4 C9_4 1_555 1_555
N4_4 C13_4 1_555 1_555
N7_4 C22_4 1_555 1_555
N8_4 C25_4 1_555 1_555
C1_4 C2_4 1_555 1_555
C5_4 C4_4 1_555 1_555
C6_4 C5_4 1_555 1_555
C7_4 C2_4 1_555 1_555
H2_4 C7_4 1_555 1_555
C8_4 C5_4 1_555 1_555
C9_4 C8_4 1_555 1_555
C10_4 C9_4 1_555 1_555
H3_4 C10_4 1_555 1_555
C11_4 C10_4 1_555 1_555
C12_4 C11_4 1_555 1_555
H4_4 C12_4 1_555 1_555
C13_4 C8_4 1_555 1_555
C14_4 C11_4 1_555 1_555
C22_4 O19_4 1_555 1_555
H7_4 C22_4 1_555 1_555
C23_4 N7_4 1_555 1_555
H8_4 C23_4 1_555 1_555
H9_3 C23_4 1_555 1_555
H10_4 C23_4 1_555 1_555
C24_4 N7_4 1_555 1_555
H11_4 C24_4 1_555 1_555
H12_4 C24_4 1_555 1_555
H13_4 C24_4 1_555 1_555
C25_4 O20_4 1_555 1_555
H14_4 C25_4 1_555 1_555
C26_4 N8_4 1_555 1_555
H15_4 C26_4 1_555 1_555
H16_4 C26_4 1_555 1_555
H17_4 C26_4 1_555 1_555
C27_4 N8_4 1_555 1_555
H18_4 C27_4 1_555 1_555
H19_4 C27_4 1_555 1_555
H20_4 C27_4 1_555 1_555
O22_4 Gd3 1_555 1_555
O29_4 N9_4 1_555 1_555
O40_4 Gd3 1_555 1_555
H21_4 C30_4 1_555 1_555
C6_4 C7_4 1_555 1_555
C12_4 C13_4 1_555 1_555
O15_3 N5_3 1_555 1_555
O16_3 N5_3 1_555 1_555
N5_3 C18_3 1_555 1_555
C15_3 O38_3 1_555 1_555
C16_3 C15_3 1_555 1_555
C17_3 C16_3 1_555 1_555
H5_3 C17_3 1_555 1_555
C18_3 C17_3 1_555 1_555
C19_3 C18_3 1_555 1_555
C20_3 C19_3 1_555 1_555
C21_3 C16_3 1_555 1_555
H6_3 C21_3 1_555 1_555
O43_3 N14_3 1_555 1_555
O44_3 N14_3 1_555 1_555
O40_3 C15_3 1_555 1_555
C20_3 C21_3 1_555 1_555
O17_3 N6_3 1_555 1_555
O18_3 N6_3 1_555 1_555
O41_3 N13_3 1_555 1_555
O42_3 N13_3 1_555 1_555
N13_3 C45_3 1_555 1_555
C42_3 O40_4 1_555 1_555
C43_3 C42_3 1_555 1_555
C44_3 C43_3 1_555 1_555
H25_3 C44_3 1_555 1_555
C45_3 C44_3 1_555 1_555
C47_3 C46_3 1_555 1_555
C48_3 C43_3 1_555 1_555
C45_3 C46_3 1_555 1_555
C47_3 C48_3 1_555 1_555
O15_4 N5_4 1_555 1_555
O16_4 N5_4 1_555 1_555
O17_4 N6_4 1_555 1_555
O18_4 N6_4 1_555 1_555
N5_4 C18_4 1_555 1_555
N6_4 C20_4 1_555 1_555
C15_4 O38 1_555 1_555
C16_4 C15_4 1_555 1_555
C17_4 C16_4 1_555 1_555
H5_4 C17_4 1_555 1_555
C18_4 C17_4 1_555 1_555
C19_4 C18_4 1_555 1_555
C20_4 C19_4 1_555 1_555
C21_4 C16_4 1_555 1_555
H6_4 C21_4 1_555 1_555
O41_4 N13_4 1_555 1_555
O42_4 N13_4 1_555 1_555
O43_4 N14_4 1_555 1_555
O44_4 N14_4 1_555 1_555
N13_4 C45_4 1_555 1_555
N14_4 C47_4 1_555 1_555
C42_4 O40_2 1_555 1_555
C43_4 C42_4 1_555 1_555
C44_4 C43_4 1_555 1_555
H25_4 C44_4 1_555 1_555
C45_4 C44_4 1_555 1_555
C46_4 C19_4 1_555 1_555
C47_4 C46_4 1_555 1_555
C48_4 C43_4 1_555 1_555
O40 C15_4 1_555 1_555
C20_4 C21_4 1_555 1_555
C45_4 C46_4 1_555 1_555
C47_4 C48_4 1_555 1_555

#END
