
###############################################################################
#
# This file contains modified crystal structure data generated from the
# MOF subset of the Cambridge Structural Database (CSD) v543 
# hosted by the Cambridge Crystallographic Data Centre (CCDC).
#
# This work is licensed under the Creative Commons
# Attribution-NonCommercial-ShareAlike 4.0 International License.
# To view a copy of this license, visit
# http://creativecommons.org/licenses/by-nc-sa/4.0/
# or send a letter to
# Creative Commons, PO Box 1866, Mountain View, CA 94042, USA.
#
# CIF created using the CSD Python API on 29 September 2022
# The structure has been converted into the P1 space group
# The structure has a 3D framework
# The original CSD entry XEGKOL is in the monoclinic crystal system
# The framework has been calculated to contain at least 10.0% void space
# The void calculation uses a probe of radius 1.32A, grid spacing 0.4
#
###############################################################################

data_XEGKOL
_chemical_formula_moiety         '(C240 H144 Gd8 N64 O156)n'
_symmetry_cell_setting           triclinic
_symmetry_space_group_name_H-M   'P 1'
_symmetry_Int_Tables_number      1
_space_group_name_Hall           'P 1'
loop_
_symmetry_equiv_pos_site_id
_symmetry_equiv_pos_as_xyz
1 x,y,z
_cell_length_a                   24.447(4)
_cell_length_b                   29.784(7)
_cell_length_c                   14.636(5)
_cell_angle_alpha                90
_cell_angle_beta                 94.258(5)
_cell_angle_gamma                90
_cell_volume                     10627.5
loop_
_atom_site_label
_atom_site_type_symbol
_atom_site_fract_x
_atom_site_fract_y
_atom_site_fract_z
O17 O 0.0510(7) 0.1752(5) 0.3229(13)
O18 O 0.0475(5) 0.1871(6) 0.4604(13)
N6 N 0.0323(6) 0.1954(5) 0.3881(14)
Gd5 Gd 0.28113(2) 0.263598(17) 0.13125(4)
O37 O 0.1969(3) 0.2504(3) 0.0533(5)
O41 O 0.1281(5) 0.2990(4) 0.3481(7)
O42 O 0.0434(4) 0.3146(4) 0.3498(7)
N13 N 0.0819(5) 0.2978(4) 0.3157(8)
C45 C 0.1483(5) 0.2431(4) 0.0237(7)
C46 C 0.1044(5) 0.2462(4) 0.0919(8)
C47 C 0.1126(5) 0.2698(4) 0.1716(8)
H23 H 0.1451 0.2854 0.1857
C48 C 0.0704(5) 0.2699(4) 0.2316(8)
C49 C 0.0225(6) 0.2475(4) 0.2164(10)
C50 C 0.0149(5) 0.2238(5) 0.1347(11)
C51 C 0.0556(5) 0.2235(4) 0.0713(9)
H24 H 0.0498 0.2082 0.0161
Gd4 Gd 0.21887(2) 0.236402(17) 0.86875(4)
O39 O 0.1338(3) 0.2335(3) 0.9438(6)
O20 O 0.6703(5) 0.3498(4) 0.0462(7)
Gd1 Gd 0.78113(2) 0.236402(17) 0.63125(4)
O1 O 0.7614(3) 0.1707(3) 0.5381(5)
O2 O 0.7145(3) 0.1863(2) 0.4052(5)
O5 O 0.8299(4) 0.0205(3) 0.5937(6)
O7 O 0.7143(5) 0.0801(3) 0.1669(6)
O8 O 0.7215(4) 0.0087(3) 0.1920(6)
O9 O 0.8502(5) 0.0333(3) 0.2901(9)
O13 O 0.8031(3) 0.2504(3) 0.4467(5)
O14 O 0.8662(3) 0.2335(3) 0.5562(6)
O15 O 0.8719(5) 0.2990(4) 0.1519(7)
O16 O 0.9566(4) 0.3146(4) 0.1502(7)
O19 O 0.8433(4) 0.2634(3) 0.7467(6)
N1 N 0.8002(5) 0.0050(4) 0.5316(7)
N2 N 0.7229(5) 0.0472(4) 0.2178(7)
N5 N 0.9181(5) 0.2978(4) 0.1843(8)
N7 N 0.8759(8) 0.3056(6) 0.8680(12)
N8 N 0.7264(4) 0.2814(3) 0.7516(6)
C1 C 0.7393(5) 0.1608(4) 0.4610(7)
C2 C 0.7450(5) 0.1132(4) 0.4329(8)
C3 C 0.7685(5) 0.0810(4) 0.4923(8)
H1 H 0.7793 0.0886 0.5526
C4 C 0.7759(5) 0.0368(4) 0.4609(8)
C5 C 0.7601(5) 0.0231(4) 0.3734(8)
C6 C 0.7382(5) 0.0562(4) 0.3155(7)
C7 C 0.7300(5) 0.0999(4) 0.3447(8)
H2 H 0.7140 0.1206 0.3035
C15 C 0.8517(5) 0.2431(4) 0.4763(7)
C16 C 0.8956(5) 0.2462(4) 0.4081(8)
C17 C 0.8874(5) 0.2698(4) 0.3284(8)
H5 H 0.8549 0.2854 0.3143
C18 C 0.9296(5) 0.2699(4) 0.2684(8)
C19 C 0.9775(6) 0.2475(4) 0.2836(10)
C20 C 0.9851(5) 0.2238(5) 0.3653(11)
C21 C 0.9444(5) 0.2235(4) 0.4287(9)
H6 H 0.9502 0.2082 0.4839
C22 C 0.8569(7) 0.2991(6) 0.7820(12)
H7 H 0.8536 0.3244 0.7446
C23 C 0.905(5) 0.2652(16) 0.921(3)
H8 H 0.8955 0.2376 0.8901
H9 H 0.9440 0.2693 0.9241
H10 H 0.8931 0.2640 0.9824
C24 C 0.8895(11) 0.3511(8) 0.898(2)
H11 H 0.8805 0.3717 0.8491
H12 H 0.8690 0.3586 0.9496
H13 H 0.9280 0.3529 0.9161
C25 C 0.7362(6) 0.2720(4) 0.8417(10)
H14 H 0.7573 0.2467 0.8567
C26 C 0.7183(6) 0.2959(6) 0.9119(9)
H15 H 0.7272 0.2874 0.9724
C27 C 0.6860(6) 0.3337(5) 0.8910(10)
C28 C 0.6744(5) 0.3444(4) 0.8009(8)
H16 H 0.6530 0.3693 0.7844
C29 C 0.6951(5) 0.3176(4) 0.7346(8)
H17 H 0.6866 0.3253 0.6736
C30 C 0.6620(6) 0.3592(6) 0.9656(11)
H18 H 0.6395 0.3836 0.9498
Gd2 Gd 0.71887(2) 0.263598(17) 0.36875(4)
Gd6 Gd 0.71887(2) 0.736402(17) 0.86875(4)
O21 O 0.7386(3) 0.3293(3) 0.4619(5)
O22 O 0.7855(3) 0.3137(2) 0.5948(5)
O23 O 0.7594(3) 0.6844(2) 0.7676(5)
O24 O 0.7406(3) 0.1844(2) 0.7324(5)
O25 O 0.7594(3) 0.3156(2) 0.2676(5)
O26 O 0.6740(3) 0.6704(3) 0.7957(5)
O27 O 0.8260(3) 0.1704(3) 0.7043(5)
O28 O 0.6740(3) 0.3296(3) 0.2957(5)
O29 O 0.6701(4) 0.4795(3) 0.4063(6)
O30 O 0.7113(5) 0.5340(3) 0.4770(6)
O31 O 0.7857(5) 0.4199(3) 0.8331(6)
O32 O 0.7785(4) 0.4913(3) 0.8080(6)
O33 O 0.6498(5) 0.4667(3) 0.7099(9)
O34 O 0.5968(4) 0.5237(3) 0.7336(7)
O35 O 0.8376(4) 0.5091(3) 0.5990(7)
O36 O 0.8435(4) 0.5790(3) 0.5633(6)
O38 O 0.6969(3) 0.2496(3) 0.5533(5)
O40 O 0.6338(3) 0.2665(3) 0.4438(6)
O43 O 0.9490(7) 0.1752(5) 0.1771(13)
O44 O 0.9525(5) 0.1871(6) 0.0396(13)
O45 O 0.6567(4) 0.2366(3) 0.2533(6)
N9 N 0.6998(5) 0.4950(4) 0.4684(7)
N10 N 0.7771(5) 0.4528(4) 0.7822(7)
N11 N 0.6403(5) 0.5075(4) 0.7144(8)
N12 N 0.8206(4) 0.5478(4) 0.6003(7)
N14 N 0.9677(6) 0.1954(5) 0.1119(14)
N15 N 0.6241(8) 0.1944(6) 0.1320(12)
N16 N 0.7736(4) 0.2186(3) 0.2484(6)
C31 C 0.7607(5) 0.3392(4) 0.5390(7)
C32 C 0.7550(5) 0.3868(4) 0.5671(8)
C33 C 0.7315(5) 0.4190(4) 0.5077(8)
H19 H 0.7207 0.4114 0.4474
C34 C 0.7241(5) 0.4632(4) 0.5391(8)
C35 C 0.7399(5) 0.4769(4) 0.6266(8)
C36 C 0.7618(5) 0.4438(4) 0.6845(7)
C37 C 0.7700(5) 0.4001(4) 0.6553(8)
H20 H 0.7860 0.3794 0.6965
C38 C 0.7312(5) 0.5249(4) 0.6582(9)
C39 C 0.6869(5) 0.5385(4) 0.6998(7)
C40 C 0.6802(5) 0.5816(4) 0.7318(7)
H21 H 0.6481 0.5898 0.7580
C41 C 0.7222(5) 0.6128(4) 0.7244(8)
C42 C 0.7684(5) 0.6011(4) 0.6807(7)
H22 H 0.7960 0.6219 0.6727
C43 C 0.7724(5) 0.5581(4) 0.6494(8)
C44 C 0.7184(5) 0.6590(4) 0.7663(8)
C52 C 0.6431(7) 0.2009(6) 0.2180(12)
H25 H 0.6464 0.1756 0.2554
C53 C 0.595(5) 0.2348(16) 0.079(3)
H26 H 0.6045 0.2624 0.1099
H27 H 0.5560 0.2307 0.0759
H28 H 0.6069 0.2360 0.0176
C54 C 0.6105(11) 0.1489(8) 0.102(2)
H29 H 0.6195 0.1283 0.1509
H30 H 0.6310 0.1414 0.0504
H31 H 0.5720 0.1471 0.0839
C55 C 0.7638(6) 0.2280(4) 0.1583(10)
H32 H 0.7427 0.2533 0.1433
C56 C 0.7817(6) 0.2041(6) 0.0881(9)
H33 H 0.7728 0.2126 0.0276
C57 C 0.8140(6) 0.1663(5) 0.1090(10)
C58 C 0.8256(5) 0.1556(4) 0.1991(8)
H34 H 0.8470 0.1307 0.2156
C59 C 0.8049(5) 0.1824(4) 0.2654(8)
H35 H 0.8134 0.1747 0.3264
C60 C 0.8380(6) 0.1408(6) 0.0344(11)
H36 H 0.8605 0.1164 0.0502
O3 O 0.7406(3) 0.8156(2) 0.2324(5)
O4 O 0.8260(3) 0.8296(3) 0.2043(5)
O6 O 0.7887(5) 0.9660(3) 0.5230(6)
O10 O 0.9032(4) 0.9763(3) 0.2664(7)
O11 O 0.6624(4) 0.9909(3) 0.4010(7)
O12 O 0.6565(4) 0.9210(3) 0.4367(6)
N3 N 0.8597(5) 0.9925(4) 0.2856(8)
N4 N 0.6794(4) 0.9522(4) 0.3997(7)
C8 C 0.7688(5) 0.9751(4) 0.3418(9)
C9 C 0.8131(5) 0.9615(4) 0.3002(7)
C10 C 0.8198(5) 0.9184(4) 0.2682(7)
H3 H 0.8519 0.9102 0.2420
C11 C 0.7778(5) 0.8872(4) 0.2756(8)
C12 C 0.7316(5) 0.8989(4) 0.3193(7)
H4 H 0.7040 0.8781 0.3273
C13 C 0.7276(5) 0.9419(4) 0.3506(8)
C14 C 0.7816(5) 0.8410(4) 0.2337(8)
Gd3 Gd 0.78113(2) 0.763598(17) 0.13125(4)
O2_2 O 0.2855(3) 0.1863(2) 0.0948(5)
O7_2 O 0.2857(5) 0.0801(3) 0.3331(6)
O8_2 O 0.2785(4) 0.0087(3) 0.3080(6)
O9_2 O 0.1498(5) 0.0333(3) 0.2099(9)
N2_2 N 0.2771(5) 0.0472(4) 0.2822(7)
C1_2 C 0.2607(5) 0.1608(4) 0.0390(7)
C2_2 C 0.2550(5) 0.1132(4) 0.0671(8)
C3_2 C 0.2315(5) 0.0810(4) 0.0077(8)
C4_2 C 0.2241(5) 0.0368(4) 0.0391(8)
C5_2 C 0.2399(5) 0.0231(4) 0.1266(8)
C6_2 C 0.2618(5) 0.0562(4) 0.1845(7)
C7_2 C 0.2700(5) 0.0999(4) 0.1553(8)
H2_2 H 0.2860 0.1206 0.1965
O21_2 O 0.2614(3) 0.3293(3) 0.0381(5)
O25_2 O 0.2406(3) 0.3156(2) 0.2324(5)
O28_2 O 0.3260(3) 0.3296(3) 0.2043(5)
O29_2 O 0.3299(4) 0.4795(3) 0.0937(6)
O30_2 O 0.2887(5) 0.5340(3) 0.0230(6)
O40_2 O 0.3662(3) 0.2665(3) 0.0562(6)
O45_2 O 0.3433(4) 0.2366(3) 0.2467(6)
O46 O 0.1703(5) 0.1502(4) 0.5462(7)
N9_2 N 0.3002(5) 0.4950(4) 0.0316(7)
N15_2 N 0.3759(8) 0.1944(6) 0.3680(12)
N16_2 N 0.2264(4) 0.2186(3) 0.2516(6)
H19_2 H 0.2793 0.4114 0.0526
C52_2 C 0.3569(7) 0.2009(6) 0.2820(12)
H25_2 H 0.3536 0.1756 0.2446
C53_2 C 0.405(5) 0.2348(16) 0.421(3)
H26_2 H 0.3955 0.2624 0.3901
H27_2 H 0.4440 0.2307 0.4241
H28_2 H 0.3931 0.2360 0.4824
C54_2 C 0.3895(11) 0.1489(8) 0.398(2)
H29_2 H 0.3805 0.1283 0.3491
H30_2 H 0.3690 0.1414 0.4496
H31_2 H 0.4280 0.1471 0.4161
C55_2 C 0.2362(6) 0.2280(4) 0.3417(10)
H32_2 H 0.2573 0.2533 0.3567
C56_2 C 0.2183(6) 0.2041(6) 0.4119(9)
H33_2 H 0.2272 0.2126 0.4724
C57_2 C 0.1860(6) 0.1663(5) 0.3910(10)
C58_2 C 0.1744(5) 0.1556(4) 0.3009(8)
H34_2 H 0.1530 0.1307 0.2844
C59_2 C 0.1951(5) 0.1824(4) 0.2346(8)
H35_2 H 0.1866 0.1747 0.1736
C60_2 C 0.1620(6) 0.1408(6) 0.4656(11)
H36_2 H 0.1395 0.1164 0.4498
O1_2 O 0.2386(3) 0.1707(3) 0.9619(5)
O5_2 O 0.1701(4) 0.0205(3) 0.9063(6)
O19_2 O 0.1567(4) 0.2634(3) 0.7533(6)
O20_2 O 0.3297(5) 0.3498(4) 0.4538(7)
N1_2 N 0.1998(5) 0.0050(4) 0.9684(7)
N7_2 N 0.1241(8) 0.3056(6) 0.6320(12)
N8_2 N 0.2736(4) 0.2814(3) 0.7484(6)
H1_2 H 0.2207 0.0886 0.9474
C22_2 C 0.1431(7) 0.2991(6) 0.7180(12)
H7_2 H 0.1464 0.3244 0.7554
C23_2 C 0.095(5) 0.2652(16) 0.579(3)
H8_2 H 0.1045 0.2376 0.6099
H9_2 H 0.0560 0.2693 0.5759
H10_2 H 0.1069 0.2640 0.5176
C24_2 C 0.1105(11) 0.3511(8) 0.602(2)
H11_2 H 0.1195 0.3717 0.6509
H12_2 H 0.1310 0.3586 0.5504
H13_2 H 0.0720 0.3529 0.5839
C25_2 C 0.2638(6) 0.2720(4) 0.6583(10)
H14_2 H 0.2427 0.2467 0.6433
C26_2 C 0.2817(6) 0.2959(6) 0.5881(9)
H15_2 H 0.2728 0.2874 0.5276
C27_2 C 0.3140(6) 0.3337(5) 0.6090(10)
C28_2 C 0.3256(5) 0.3444(4) 0.6991(8)
H16_2 H 0.3470 0.3693 0.7156
C29_2 C 0.3049(5) 0.3176(4) 0.7654(8)
H17_2 H 0.3134 0.3253 0.8264
C30_2 C 0.3380(6) 0.3592(6) 0.5344(11)
H18_2 H 0.3605 0.3836 0.5502
Gd6_2 Gd 0.28113(2) 0.736402(17) 0.63125(4)
O22_2 O 0.2145(3) 0.3137(2) 0.9052(5)
O23_2 O 0.2406(3) 0.6844(2) 0.7324(5)
O24_2 O 0.2594(3) 0.1844(2) 0.7676(5)
O26_2 O 0.3260(3) 0.6704(3) 0.7043(5)
O27_2 O 0.1740(3) 0.1704(3) 0.7957(5)
O31_2 O 0.2143(5) 0.4199(3) 0.6669(6)
O32_2 O 0.2215(4) 0.4913(3) 0.6920(6)
O33_2 O 0.3502(5) 0.4667(3) 0.7901(9)
O34_2 O 0.4032(4) 0.5237(3) 0.7664(7)
O35_2 O 0.1624(4) 0.5091(3) 0.9010(7)
O36_2 O 0.1565(4) 0.5790(3) 0.9367(6)
O38_2 O 0.3031(3) 0.2496(3) 0.9467(5)
N10_2 N 0.2229(5) 0.4528(4) 0.7178(7)
N11_2 N 0.3597(5) 0.5075(4) 0.7856(8)
N12_2 N 0.1794(4) 0.5478(4) 0.8997(7)
C31_2 C 0.2393(5) 0.3392(4) 0.9610(7)
C32_2 C 0.2450(5) 0.3868(4) 0.9329(8)
C33_2 C 0.2685(5) 0.4190(4) 0.9923(8)
C34_2 C 0.2759(5) 0.4632(4) 0.9609(8)
C35_2 C 0.2601(5) 0.4769(4) 0.8734(8)
C36_2 C 0.2382(5) 0.4438(4) 0.8155(7)
C37_2 C 0.2300(5) 0.4001(4) 0.8447(8)
H20_2 H 0.2140 0.3794 0.8035
C38_2 C 0.2688(5) 0.5249(4) 0.8418(9)
C39_2 C 0.3131(5) 0.5385(4) 0.8002(7)
C40_2 C 0.3198(5) 0.5816(4) 0.7682(7)
H21_2 H 0.3519 0.5898 0.7420
C41_2 C 0.2778(5) 0.6128(4) 0.7756(8)
C42_2 C 0.2316(5) 0.6011(4) 0.8193(7)
H22_2 H 0.2040 0.6219 0.8273
C43_2 C 0.2276(5) 0.5581(4) 0.8506(8)
C44_2 C 0.2816(5) 0.6590(4) 0.7337(8)
O3_2 O 0.2594(3) 0.8156(2) 0.2676(5)
O4_2 O 0.1740(3) 0.8296(3) 0.2957(5)
O10_2 O 0.0968(4) 0.9763(3) 0.2336(7)
O11_2 O 0.3376(4) 0.9909(3) 0.0990(7)
O12_2 O 0.3435(4) 0.9210(3) 0.0633(6)
N3_2 N 0.1403(5) 0.9925(4) 0.2144(8)
N4_2 N 0.3206(4) 0.9522(4) 0.1003(7)
C8_2 C 0.2312(5) 0.9751(4) 0.1582(9)
C9_2 C 0.1869(5) 0.9615(4) 0.1998(7)
C10_2 C 0.1802(5) 0.9184(4) 0.2318(7)
H3_2 H 0.1481 0.9102 0.2580
C11_2 C 0.2222(5) 0.8872(4) 0.2244(8)
C12_2 C 0.2684(5) 0.8989(4) 0.1807(7)
H4_2 H 0.2960 0.8781 0.1727
C13_2 C 0.2724(5) 0.9419(4) 0.1494(8)
C14_2 C 0.2184(5) 0.8410(4) 0.2663(8)
Gd3_2 Gd 0.21887(2) 0.763598(17) 0.36875(4)
O30_3 O 0.2113(5) 0.0340(3) 0.4770(6)
O34_3 O 0.0968(4) 0.0237(3) 0.7336(7)
O35_3 O 0.3376(4) 0.0091(3) 0.5990(7)
O36_3 O 0.3435(4) 0.0790(3) 0.5633(6)
N11_3 N 0.1403(5) 0.0075(4) 0.7144(8)
N12_3 N 0.3206(4) 0.0478(4) 0.6003(7)
C38_3 C 0.2312(5) 0.0249(4) 0.6582(9)
C39_3 C 0.1869(5) 0.0385(4) 0.6998(7)
C40_3 C 0.1802(5) 0.0816(4) 0.7318(7)
H21_3 H 0.1481 0.0898 0.7580
C41_3 C 0.2222(5) 0.1128(4) 0.7244(8)
C42_3 C 0.2684(5) 0.1011(4) 0.6807(7)
H22_3 H 0.2960 0.1219 0.6727
C43_3 C 0.2724(5) 0.0581(4) 0.6494(8)
C44_3 C 0.2184(5) 0.1590(4) 0.7663(8)
O1_3 O 0.2614(3) 0.6707(3) 0.5381(5)
O2_3 O 0.2145(3) 0.6863(2) 0.4052(5)
O5_3 O 0.3299(4) 0.5205(3) 0.5937(6)
O6_2 O 0.2887(5) 0.4660(3) 0.5230(6)
O7_3 O 0.2143(5) 0.5801(3) 0.1669(6)
O8_3 O 0.2215(4) 0.5087(3) 0.1920(6)
O9_3 O 0.3502(5) 0.5333(3) 0.2901(9)
O10_3 O 0.4032(4) 0.4763(3) 0.2664(7)
O11_3 O 0.1624(4) 0.4909(3) 0.4010(7)
O12_3 O 0.1565(4) 0.4210(3) 0.4367(6)
O13_2 O 0.3031(3) 0.7504(3) 0.4467(5)
O14_2 O 0.3662(3) 0.7335(3) 0.5562(6)
O15_2 O 0.3719(5) 0.7990(4) 0.1519(7)
O16_2 O 0.4566(4) 0.8146(4) 0.1502(7)
O17_2 O 0.5510(7) 0.6752(5) 0.3229(13)
O18_2 O 0.5475(5) 0.6871(6) 0.4604(13)
O19_3 O 0.3433(4) 0.7634(3) 0.7467(6)
N1_3 N 0.3002(5) 0.5050(4) 0.5316(7)
N2_3 N 0.2229(5) 0.5472(4) 0.2178(7)
N3_3 N 0.3597(5) 0.4925(4) 0.2856(8)
N4_3 N 0.1794(4) 0.4522(4) 0.3997(7)
N5_2 N 0.4181(5) 0.7978(4) 0.1843(8)
N6_2 N 0.5323(6) 0.6954(5) 0.3881(14)
N7_3 N 0.3759(8) 0.8056(6) 0.8680(12)
N8_3 N 0.2264(4) 0.7814(3) 0.7516(6)
C1_3 C 0.2393(5) 0.6608(4) 0.4610(7)
C2_3 C 0.2450(5) 0.6132(4) 0.4329(8)
C3_3 C 0.2685(5) 0.5810(4) 0.4923(8)
H1_3 H 0.2793 0.5886 0.5526
C4_3 C 0.2759(5) 0.5368(4) 0.4609(8)
C5_3 C 0.2601(5) 0.5231(4) 0.3734(8)
C6_3 C 0.2382(5) 0.5562(4) 0.3155(7)
C7_3 C 0.2300(5) 0.5999(4) 0.3447(8)
H2_3 H 0.2140 0.6206 0.3035
C8_3 C 0.2688(5) 0.4751(4) 0.3418(9)
C9_3 C 0.3131(5) 0.4615(4) 0.3002(7)
C10_3 C 0.3198(5) 0.4184(4) 0.2682(7)
H3_3 H 0.3519 0.4102 0.2420
C11_3 C 0.2778(5) 0.3872(4) 0.2756(8)
C12_3 C 0.2316(5) 0.3989(4) 0.3193(7)
H4_3 H 0.2040 0.3781 0.3273
C13_3 C 0.2276(5) 0.4419(4) 0.3506(8)
C14_3 C 0.2816(5) 0.3410(4) 0.2337(8)
C15_2 C 0.3517(5) 0.7431(4) 0.4763(7)
C16_2 C 0.3956(5) 0.7462(4) 0.4081(8)
C17_2 C 0.3874(5) 0.7698(4) 0.3284(8)
H5_2 H 0.3549 0.7854 0.3143
C18_2 C 0.4296(5) 0.7699(4) 0.2684(8)
C19_2 C 0.4775(6) 0.7475(4) 0.2836(10)
C20_2 C 0.4851(5) 0.7238(5) 0.3653(11)
C21_2 C 0.4444(5) 0.7235(4) 0.4287(9)
H6_2 H 0.4502 0.7082 0.4839
C22_3 C 0.3569(7) 0.7991(6) 0.7820(12)
H7_3 H 0.3536 0.8244 0.7446
C23_3 C 0.405(5) 0.7652(16) 0.921(3)
H8_3 H 0.3955 0.7376 0.8901
H9_3 H 0.4440 0.7693 0.9241
H10_3 H 0.3931 0.7640 0.9824
C24_3 C 0.3895(11) 0.8511(8) 0.898(2)
H11_3 H 0.3805 0.8717 0.8491
H12_3 H 0.3690 0.8586 0.9496
H13_3 H 0.4280 0.8529 0.9161
C25_3 C 0.2362(6) 0.7720(4) 0.8417(10)
H14_3 H 0.2573 0.7467 0.8567
C26_3 C 0.2183(6) 0.7959(6) 0.9119(9)
H15_3 H 0.2272 0.7874 0.9724
C27_3 C 0.1860(6) 0.8337(5) 0.8910(10)
C28_3 C 0.1744(5) 0.8444(4) 0.8009(8)
H16_3 H 0.1530 0.8693 0.7844
C29_3 C 0.1951(5) 0.8176(4) 0.7346(8)
H17_3 H 0.1866 0.8253 0.6736
C30_3 C 0.1620(6) 0.8592(6) 0.9656(11)
H18_3 H 0.1395 0.8836 0.9498
O21_3 O 0.2386(3) 0.8293(3) 0.4619(5)
O22_3 O 0.2855(3) 0.8137(2) 0.5948(5)
O29_3 O 0.1701(4) 0.9795(3) 0.4063(6)
O31_3 O 0.2857(5) 0.9199(3) 0.8331(6)
O32_3 O 0.2785(4) 0.9913(3) 0.8080(6)
O33_3 O 0.1498(5) 0.9667(3) 0.7099(9)
O37_2 O 0.6969(3) 0.7504(3) 0.0533(5)
O38_3 O 0.1969(3) 0.7496(3) 0.5533(5)
O40_3 O 0.1338(3) 0.7665(3) 0.4438(6)
O41_2 O 0.6281(5) 0.7990(4) 0.3481(7)
O42_2 O 0.5434(4) 0.8146(4) 0.3498(7)
O43_2 O 0.4490(7) 0.6752(5) 0.1771(13)
O44_2 O 0.4525(5) 0.6871(6) 0.0396(13)
O45_3 O 0.1567(4) 0.7366(3) 0.2533(6)
N9_3 N 0.1998(5) 0.9950(4) 0.4684(7)
N10_3 N 0.2771(5) 0.9528(4) 0.7822(7)
N13_2 N 0.5819(5) 0.7978(4) 0.3157(8)
N14_2 N 0.4677(6) 0.6954(5) 0.1119(14)
N15_3 N 0.1241(8) 0.6944(6) 0.1320(12)
N16_3 N 0.2736(4) 0.7186(3) 0.2484(6)
C31_3 C 0.2607(5) 0.8392(4) 0.5390(7)
C32_3 C 0.2550(5) 0.8868(4) 0.5671(8)
C33_3 C 0.2315(5) 0.9190(4) 0.5077(8)
H19_3 H 0.2207 0.9114 0.4474
C34_3 C 0.2241(5) 0.9632(4) 0.5391(8)
C35_3 C 0.2399(5) 0.9769(4) 0.6266(8)
C36_3 C 0.2618(5) 0.9438(4) 0.6845(7)
C37_3 C 0.2700(5) 0.9001(4) 0.6553(8)
H20_3 H 0.2860 0.8794 0.6965
C45_2 C 0.6483(5) 0.7431(4) 0.0237(7)
C46_2 C 0.6044(5) 0.7462(4) 0.0919(8)
C47_2 C 0.6126(5) 0.7698(4) 0.1716(8)
H23_2 H 0.6451 0.7854 0.1857
C48_2 C 0.5704(5) 0.7699(4) 0.2316(8)
C49_2 C 0.5225(6) 0.7475(4) 0.2164(10)
C50_2 C 0.5149(5) 0.7238(5) 0.1347(11)
C51_2 C 0.5556(5) 0.7235(4) 0.0713(9)
H24_2 H 0.5498 0.7082 0.0161
C52_3 C 0.1431(7) 0.7009(6) 0.2180(12)
H25_3 H 0.1464 0.6756 0.2554
C53_3 C 0.095(5) 0.7348(16) 0.079(3)
H26_3 H 0.1045 0.7624 0.1099
H27_3 H 0.0560 0.7307 0.0759
H28_3 H 0.1069 0.7360 0.0176
C54_3 C 0.1105(11) 0.6489(8) 0.102(2)
H29_3 H 0.1195 0.6283 0.1509
H30_3 H 0.1310 0.6414 0.0504
H31_3 H 0.0720 0.6471 0.0839
C55_3 C 0.2638(6) 0.7280(4) 0.1583(10)
H32_3 H 0.2427 0.7533 0.1433
C56_3 C 0.2817(6) 0.7041(6) 0.0881(9)
H33_3 H 0.2728 0.7126 0.0276
C57_3 C 0.3140(6) 0.6663(5) 0.1090(10)
C58_3 C 0.3256(5) 0.6556(4) 0.1991(8)
H34_3 H 0.3470 0.6307 0.2156
C59_3 C 0.3049(5) 0.6824(4) 0.2654(8)
H35_3 H 0.3134 0.6747 0.3264
C60_3 C 0.3380(6) 0.6408(6) 0.0344(11)
H36_3 H 0.3605 0.6164 0.0502
O39_2 O 0.6338(3) 0.7335(3) 0.9438(6)
O46_2 O 0.3297(5) 0.6502(4) 0.9538(7)
O34_4 O 0.9032(4) 0.0237(3) 0.7664(7)
O35_4 O 0.6624(4) 0.0091(3) 0.9010(7)
O36_4 O 0.6565(4) 0.0790(3) 0.9367(6)
N11_4 N 0.8597(5) 0.0075(4) 0.7856(8)
N12_4 N 0.6794(4) 0.0478(4) 0.8997(7)
C38_4 C 0.7688(5) 0.0249(4) 0.8418(9)
C39_4 C 0.8131(5) 0.0385(4) 0.8002(7)
C40_4 C 0.8198(5) 0.0816(4) 0.7682(7)
H21_4 H 0.8519 0.0898 0.7420
C41_4 C 0.7778(5) 0.1128(4) 0.7756(8)
C42_4 C 0.7316(5) 0.1011(4) 0.8193(7)
H22_4 H 0.7040 0.1219 0.8273
C43_4 C 0.7276(5) 0.0581(4) 0.8506(8)
C44_4 C 0.7816(5) 0.1590(4) 0.7337(8)
O2_4 O 0.7855(3) 0.6863(2) 0.0948(5)
O7_4 O 0.7857(5) 0.5801(3) 0.3331(6)
O8_4 O 0.7785(4) 0.5087(3) 0.3080(6)
O9_4 O 0.6498(5) 0.5333(3) 0.2099(9)
O10_4 O 0.5968(4) 0.4763(3) 0.2336(7)
O11_4 O 0.8376(4) 0.4909(3) 0.0990(7)
O12_4 O 0.8435(4) 0.4210(3) 0.0633(6)
N2_4 N 0.7771(5) 0.5472(4) 0.2822(7)
N3_4 N 0.6403(5) 0.4925(4) 0.2144(8)
N4_4 N 0.8206(4) 0.4522(4) 0.1003(7)
C1_4 C 0.7607(5) 0.6608(4) 0.0390(7)
C2_4 C 0.7550(5) 0.6132(4) 0.0671(8)
C3_4 C 0.7315(5) 0.5810(4) 0.0077(8)
C4_4 C 0.7241(5) 0.5368(4) 0.0391(8)
C5_4 C 0.7399(5) 0.5231(4) 0.1266(8)
C6_4 C 0.7618(5) 0.5562(4) 0.1845(7)
C7_4 C 0.7700(5) 0.5999(4) 0.1553(8)
H2_4 H 0.7860 0.6206 0.1965
C8_4 C 0.7312(5) 0.4751(4) 0.1582(9)
C9_4 C 0.6869(5) 0.4615(4) 0.1998(7)
C10_4 C 0.6802(5) 0.4184(4) 0.2318(7)
H3_4 H 0.6481 0.4102 0.2580
C11_4 C 0.7222(5) 0.3872(4) 0.2244(8)
C12_4 C 0.7684(5) 0.3989(4) 0.1807(7)
H4_4 H 0.7960 0.3781 0.1727
C13_4 C 0.7724(5) 0.4419(4) 0.1494(8)
C14_4 C 0.7184(5) 0.3410(4) 0.2663(8)
O21_4 O 0.7614(3) 0.8293(3) 0.0381(5)
O29_4 O 0.8299(4) 0.9795(3) 0.0937(6)
O40_4 O 0.8662(3) 0.7665(3) 0.0562(6)
O45_4 O 0.8433(4) 0.7366(3) 0.2467(6)
O46_3 O 0.6703(5) 0.6502(4) 0.5462(7)
N9_4 N 0.8002(5) 0.9950(4) 0.0316(7)
N15_4 N 0.8759(8) 0.6944(6) 0.3680(12)
N16_4 N 0.7264(4) 0.7186(3) 0.2516(6)
H19_4 H 0.7793 0.9114 0.0526
C52_4 C 0.8569(7) 0.7009(6) 0.2820(12)
H25_4 H 0.8536 0.6756 0.2446
C53_4 C 0.905(5) 0.7348(16) 0.421(3)
H26_4 H 0.8955 0.7624 0.3901
H27_4 H 0.9440 0.7307 0.4241
H28_4 H 0.8931 0.7360 0.4824
C54_4 C 0.8895(11) 0.6489(8) 0.398(2)
H29_4 H 0.8805 0.6283 0.3491
H30_4 H 0.8690 0.6414 0.4496
H31_4 H 0.9280 0.6471 0.4161
C55_4 C 0.7362(6) 0.7280(4) 0.3417(10)
H32_4 H 0.7573 0.7533 0.3567
C56_4 C 0.7183(6) 0.7041(6) 0.4119(9)
H33_4 H 0.7272 0.7126 0.4724
C57_4 C 0.6860(6) 0.6663(5) 0.3910(10)
C58_4 C 0.6744(5) 0.6556(4) 0.3009(8)
H34_4 H 0.6530 0.6307 0.2844
C59_4 C 0.6951(5) 0.6824(4) 0.2346(8)
H35_4 H 0.6866 0.6747 0.1736
C60_4 C 0.6620(6) 0.6408(6) 0.4656(11)
H36_4 H 0.6395 0.6164 0.4498
O1_4 O 0.7386(3) 0.6707(3) 0.9619(5)
O5_4 O 0.6701(4) 0.5205(3) 0.9063(6)
O6_3 O 0.7113(5) 0.4660(3) 0.9770(6)
O19_4 O 0.6567(4) 0.7634(3) 0.7533(6)
O20_3 O 0.8297(5) 0.8498(4) 0.4538(7)
N1_4 N 0.6998(5) 0.5050(4) 0.9684(7)
N7_4 N 0.6241(8) 0.8056(6) 0.6320(12)
N8_4 N 0.7736(4) 0.7814(3) 0.7484(6)
H1_4 H 0.7207 0.5886 0.9474
C22_4 C 0.6431(7) 0.7991(6) 0.7180(12)
H7_4 H 0.6464 0.8244 0.7554
C23_4 C 0.595(5) 0.7652(16) 0.579(3)
H8_4 H 0.6045 0.7376 0.6099
H9_4 H 0.5560 0.7693 0.5759
H10_4 H 0.6069 0.7640 0.5176
C24_4 C 0.6105(11) 0.8511(8) 0.602(2)
H11_4 H 0.6195 0.8717 0.6509
H12_4 H 0.6310 0.8586 0.5504
H13_4 H 0.5720 0.8529 0.5839
C25_4 C 0.7638(6) 0.7720(4) 0.6583(10)
H14_4 H 0.7427 0.7467 0.6433
C26_4 C 0.7817(6) 0.7959(6) 0.5881(9)
H15_4 H 0.7728 0.7874 0.5276
C27_4 C 0.8140(6) 0.8337(5) 0.6090(10)
C28_4 C 0.8256(5) 0.8444(4) 0.6991(8)
H16_4 H 0.8470 0.8693 0.7156
C29_4 C 0.8049(5) 0.8176(4) 0.7654(8)
H17_4 H 0.8134 0.8253 0.8264
C30_4 C 0.8380(6) 0.8592(6) 0.5344(11)
H18_4 H 0.8605 0.8836 0.5502
O22_4 O 0.7145(3) 0.8137(2) 0.9052(5)
O31_4 O 0.7143(5) 0.9199(3) 0.6669(6)
O32_4 O 0.7215(4) 0.9913(3) 0.6920(6)
O33_4 O 0.8502(5) 0.9667(3) 0.7901(9)
O38_4 O 0.8031(3) 0.7496(3) 0.9467(5)
N10_4 N 0.7229(5) 0.9528(4) 0.7178(7)
C31_4 C 0.7393(5) 0.8392(4) 0.9610(7)
C32_4 C 0.7450(5) 0.8868(4) 0.9329(8)
C33_4 C 0.7685(5) 0.9190(4) 0.9923(8)
C34_4 C 0.7759(5) 0.9632(4) 0.9609(8)
C35_4 C 0.7601(5) 0.9769(4) 0.8734(8)
C36_4 C 0.7382(5) 0.9438(4) 0.8155(7)
C37_4 C 0.7300(5) 0.9001(4) 0.8447(8)
H20_4 H 0.7140 0.8794 0.8035
O15_3 O 0.1281(5) 0.7010(4) 0.8481(7)
O16_3 O 0.0434(4) 0.6854(4) 0.8498(7)
N5_3 N 0.0819(5) 0.7022(4) 0.8157(8)
C15_3 C 0.1483(5) 0.7569(4) 0.5237(7)
C16_3 C 0.1044(5) 0.7538(4) 0.5919(8)
C17_3 C 0.1126(5) 0.7302(4) 0.6716(8)
H5_3 H 0.1451 0.7146 0.6857
C18_3 C 0.0704(5) 0.7301(4) 0.7316(8)
C19_3 C 0.0225(6) 0.7525(4) 0.7164(10)
C20_3 C 0.0149(5) 0.7762(5) 0.6347(11)
C21_3 C 0.0556(5) 0.7765(4) 0.5713(9)
H6_3 H 0.0498 0.7918 0.5161
O43_3 O 0.0510(7) 0.8248(5) 0.8229(13)
O44_3 O 0.0475(5) 0.8129(6) 0.9604(13)
N14_3 N 0.0323(6) 0.8046(5) 0.8881(14)
O17_3 O 0.9490(7) 0.8248(5) 0.6771(13)
O18_3 O 0.9525(5) 0.8129(6) 0.5396(13)
N6_3 N 0.9677(6) 0.8046(5) 0.6119(14)
O41_3 O 0.8719(5) 0.7010(4) 0.6519(7)
O42_3 O 0.9566(4) 0.6854(4) 0.6502(7)
N13_3 N 0.9181(5) 0.7022(4) 0.6843(8)
C45_3 C 0.8517(5) 0.7569(4) 0.9763(7)
C46_3 C 0.8956(5) 0.7538(4) 0.9081(8)
C47_3 C 0.8874(5) 0.7302(4) 0.8284(8)
H23_3 H 0.8549 0.7146 0.8143
C48_3 C 0.9296(5) 0.7301(4) 0.7684(8)
C49_3 C 0.9775(6) 0.7525(4) 0.7836(10)
C50_3 C 0.9851(5) 0.7762(5) 0.8653(11)
C51_3 C 0.9444(5) 0.7765(4) 0.9287(9)
H24_3 H 0.9502 0.7918 0.9839
O15_4 O 0.6281(5) 0.2010(4) 0.8481(7)
O16_4 O 0.5434(4) 0.1854(4) 0.8498(7)
O17_4 O 0.4490(7) 0.3248(5) 0.6771(13)
O18_4 O 0.4525(5) 0.3129(6) 0.5396(13)
N5_4 N 0.5819(5) 0.2022(4) 0.8157(8)
N6_4 N 0.4677(6) 0.3046(5) 0.6119(14)
C15_4 C 0.6483(5) 0.2569(4) 0.5237(7)
C16_4 C 0.6044(5) 0.2538(4) 0.5919(8)
C17_4 C 0.6126(5) 0.2302(4) 0.6716(8)
H5_4 H 0.6451 0.2146 0.6857
C18_4 C 0.5704(5) 0.2301(4) 0.7316(8)
C19_4 C 0.5225(6) 0.2525(4) 0.7164(10)
C20_4 C 0.5149(5) 0.2762(5) 0.6347(11)
C21_4 C 0.5556(5) 0.2765(4) 0.5713(9)
H6_4 H 0.5498 0.2918 0.5161
O41_4 O 0.3719(5) 0.2010(4) 0.6519(7)
O42_4 O 0.4566(4) 0.1854(4) 0.6502(7)
O43_4 O 0.5510(7) 0.3248(5) 0.8229(13)
O44_4 O 0.5475(5) 0.3129(6) 0.9604(13)
N13_4 N 0.4181(5) 0.2022(4) 0.6843(8)
N14_4 N 0.5323(6) 0.3046(5) 0.8881(14)
C45_4 C 0.3517(5) 0.2569(4) 0.9763(7)
C46_4 C 0.3956(5) 0.2538(4) 0.9081(8)
C47_4 C 0.3874(5) 0.2302(4) 0.8284(8)
H23_4 H 0.3549 0.2146 0.8143
C48_4 C 0.4296(5) 0.2301(4) 0.7684(8)
C49_4 C 0.4775(6) 0.2525(4) 0.7836(10)
C50_4 C 0.4851(5) 0.2762(5) 0.8653(11)
C51_4 C 0.4444(5) 0.2765(4) 0.9287(9)
H24_4 H 0.4502 0.2918 0.9839
O46_4 O 0.8297(5) 0.1502(4) 0.9538(7)
O6_4 O 0.2113(5) 0.9660(3) 0.9770(6)
O20_4 O 0.1703(5) 0.8498(4) 0.0462(7)
O30_4 O 0.7887(5) 0.0340(3) 0.0230(6)
loop_
_geom_bond_atom_site_label_1
_geom_bond_atom_site_label_2
_geom_bond_site_symmetry_1
_geom_bond_site_symmetry_2
O17 N6 1_555 1_555
O18 N6 1_555 1_555
Gd5 O37 1_555 1_555
O37 C45 1_555 1_555
O41 N13 1_555 1_555
O42 N13 1_555 1_555
N13 C48 1_555 1_555
C46 C45 1_555 1_555
C47 C46 1_555 1_555
H23 C47 1_555 1_555
C48 C47 1_555 1_555
C50 C49 1_555 1_555
C51 C46 1_555 1_555
H24 C51 1_555 1_555
C48 C49 1_555 1_555
C50 C51 1_555 1_555
O39 Gd4 1_555 1_555
Gd1 O1 1_555 1_555
O1 C1 1_555 1_555
O2 C1 1_555 1_555
O5 N1 1_555 1_555
O7 N2 1_555 1_555
O8 N2 1_555 1_555
O13 Gd1 1_555 1_555
O14 Gd1 1_555 1_555
O15 N5 1_555 1_555
O16 N5 1_555 1_555
O19 Gd1 1_555 1_555
N1 C4 1_555 1_555
N2 C6 1_555 1_555
N5 C18 1_555 1_555
N7 C22 1_555 1_555
N8 Gd1 1_555 1_555
C1 C2 1_555 1_555
C2 C3 1_555 1_555
C3 H1 1_555 1_555
C4 C3 1_555 1_555
C5 C4 1_555 1_555
C6 C5 1_555 1_555
C7 C2 1_555 1_555
H2 C7 1_555 1_555
C15 O13 1_555 1_555
C16 C15 1_555 1_555
C17 C16 1_555 1_555
H5 C17 1_555 1_555
C18 C17 1_555 1_555
C19 C18 1_555 1_555
C20 C19 1_555 1_555
C21 C16 1_555 1_555
H6 C21 1_555 1_555
C22 O19 1_555 1_555
H7 C22 1_555 1_555
C23 N7 1_555 1_555
H8 C23 1_555 1_555
H9 C23 1_555 1_555
H10 C23 1_555 1_555
C24 N7 1_555 1_555
H11 C24 1_555 1_555
H12 C24 1_555 1_555
H13 C24 1_555 1_555
C25 N8 1_555 1_555
H14 C25 1_555 1_555
C26 C25 1_555 1_555
H15 C26 1_555 1_555
C27 C26 1_555 1_555
C28 C27 1_555 1_555
H16 C28 1_555 1_555
C29 N8 1_555 1_555
H17 C29 1_555 1_555
C30 C27 1_555 1_555
H18 C30 1_555 1_555
Gd2 O2 1_555 1_555
Gd6 O23 1_555 1_555
O21 Gd2 1_555 1_555
O22 Gd1 1_555 1_555
O23 C44 1_555 1_555
O24 Gd1 1_555 1_555
O25 Gd2 1_555 1_555
O26 Gd6 1_555 1_555
O27 Gd1 1_555 1_555
O28 Gd2 1_555 1_555
O29 N9 1_555 1_555
O30 N9 1_555 1_555
O31 N10 1_555 1_555
O32 N10 1_555 1_555
O33 N11 1_555 1_555
O34 N11 1_555 1_555
O35 N12 1_555 1_555
O36 N12 1_555 1_555
O38 Gd1 1_555 1_555
O40 Gd2 1_555 1_555
O43 N14 1_555 1_555
O44 N14 1_555 1_555
O45 Gd2 1_555 1_555
N9 C34 1_555 1_555
N10 C36 1_555 1_555
N11 C39 1_555 1_555
N12 C43 1_555 1_555
N15 C52 1_555 1_555
N16 Gd2 1_555 1_555
C31 O21 1_555 1_555
C32 C31 1_555 1_555
C33 C32 1_555 1_555
H19 C33 1_555 1_555
C34 C33 1_555 1_555
C35 C34 1_555 1_555
C36 C35 1_555 1_555
C37 C32 1_555 1_555
H20 C37 1_555 1_555
C38 C35 1_555 1_555
C39 C38 1_555 1_555
C40 C39 1_555 1_555
H21 C40 1_555 1_555
C41 C40 1_555 1_555
C42 C41 1_555 1_555
H22 C42 1_555 1_555
C43 C38 1_555 1_555
C44 O26 1_555 1_555
C52 O45 1_555 1_555
H25 C52 1_555 1_555
C53 N15 1_555 1_555
H26 C53 1_555 1_555
H27 C53 1_555 1_555
H28 C53 1_555 1_555
C54 N15 1_555 1_555
H29 C54 1_555 1_555
H30 C54 1_555 1_555
H31 C54 1_555 1_555
C55 N16 1_555 1_555
H32 C55 1_555 1_555
C56 C55 1_555 1_555
H33 C56 1_555 1_555
C57 C56 1_555 1_555
C58 C57 1_555 1_555
H34 C58 1_555 1_555
C59 N16 1_555 1_555
H35 C59 1_555 1_555
C60 C57 1_555 1_555
H36 C60 1_555 1_555
O13 Gd2 1_555 1_555
O14 C15 1_555 1_555
C6 C7 1_555 1_555
C20 C21 1_555 1_555
C28 C29 1_555 1_555
Gd2 O38 1_555 1_555
O22 C31 1_555 1_555
C36 C37 1_555 1_555
C41 C44 1_555 1_555
C42 C43 1_555 1_555
C58 C59 1_555 1_555
O3 C14 1_555 1_555
O4 C14 1_555 1_555
O10 N3 1_555 1_555
O11 N4 1_555 1_555
O12 N4 1_555 1_555
N3 C9 1_555 1_555
N4 C13 1_555 1_555
C9 C8 1_555 1_555
C10 C9 1_555 1_555
H3 C10 1_555 1_555
C11 C10 1_555 1_555
C12 C11 1_555 1_555
H4 C12 1_555 1_555
C13 C8 1_555 1_555
C14 C11 1_555 1_555
Gd3 O3 1_555 1_555
O4 Gd3 1_555 1_555
C12 C13 1_555 1_555
O2_2 C1_2 1_555 1_555
O7_2 N2_2 1_555 1_555
O8_2 N2_2 1_555 1_555
N2_2 C6_2 1_555 1_555
C1_2 C2_2 1_555 1_555
C2_2 C3_2 1_555 1_555
C4_2 C3_2 1_555 1_555
C5_2 C4_2 1_555 1_555
C6_2 C5_2 1_555 1_555
C7_2 C2_2 1_555 1_555
H2_2 C7_2 1_555 1_555
Gd5 O2_2 1_555 1_555
O21_2 Gd5 1_555 1_555
O25_2 Gd5 1_555 1_555
O28_2 Gd5 1_555 1_555
O29_2 N9_2 1_555 1_555
O30_2 N9_2 1_555 1_555
O40_2 Gd5 1_555 1_555
O45_2 Gd5 1_555 1_555
O46 C60_2 1_555 1_555
N15_2 C52_2 1_555 1_555
N16_2 Gd5 1_555 1_555
C52_2 O45_2 1_555 1_555
H25_2 C52_2 1_555 1_555
C53_2 N15_2 1_555 1_555
H26_2 C53_2 1_555 1_555
H27_2 C53_2 1_555 1_555
H28_2 C53_2 1_555 1_555
C54_2 N15_2 1_555 1_555
H29_2 C54_2 1_555 1_555
H30_2 C54_2 1_555 1_555
H31_2 C54_2 1_555 1_555
C55_2 N16_2 1_555 1_555
H32_2 C55_2 1_555 1_555
C56_2 C55_2 1_555 1_555
H33_2 C56_2 1_555 1_555
C57_2 C56_2 1_555 1_555
C58_2 C57_2 1_555 1_555
H34_2 C58_2 1_555 1_555
C59_2 N16_2 1_555 1_555
H35_2 C59_2 1_555 1_555
C60_2 C57_2 1_555 1_555
H36_2 C60_2 1_555 1_555
C6_2 C7_2 1_555 1_555
C58_2 C59_2 1_555 1_555
Gd4 O1_2 1_555 1_555
O5_2 N1_2 1_555 1_555
O19_2 Gd4 1_555 1_555
O20_2 C30_2 1_555 1_555
N7_2 C22_2 1_555 1_555
N8_2 Gd4 1_555 1_555
C22_2 O19_2 1_555 1_555
H7_2 C22_2 1_555 1_555
C23_2 N7_2 1_555 1_555
H8_2 C23_2 1_555 1_555
H9_2 C23_2 1_555 1_555
H10_2 C23_2 1_555 1_555
C24_2 N7_2 1_555 1_555
H11_2 C24_2 1_555 1_555
H12_2 C24_2 1_555 1_555
H13_2 C24_2 1_555 1_555
C25_2 N8_2 1_555 1_555
H14_2 C25_2 1_555 1_555
C26_2 C25_2 1_555 1_555
H15_2 C26_2 1_555 1_555
C27_2 C26_2 1_555 1_555
C28_2 C27_2 1_555 1_555
H16_2 C28_2 1_555 1_555
C29_2 N8_2 1_555 1_555
H17_2 C29_2 1_555 1_555
C30_2 C27_2 1_555 1_555
H18_2 C30_2 1_555 1_555
Gd6_2 O23_2 1_555 1_555
O22_2 Gd4 1_555 1_555
O23_2 C44_2 1_555 1_555
O24_2 Gd4 1_555 1_555
O26_2 Gd6_2 1_555 1_555
O27_2 Gd4 1_555 1_555
O31_2 N10_2 1_555 1_555
O32_2 N10_2 1_555 1_555
O33_2 N11_2 1_555 1_555
O34_2 N11_2 1_555 1_555
O35_2 N12_2 1_555 1_555
O36_2 N12_2 1_555 1_555
O38_2 Gd4 1_555 1_555
N10_2 C36_2 1_555 1_555
N11_2 C39_2 1_555 1_555
N12_2 C43_2 1_555 1_555
C32_2 C31_2 1_555 1_555
C33_2 C32_2 1_555 1_555
C34_2 C33_2 1_555 1_555
C35_2 C34_2 1_555 1_555
C36_2 C35_2 1_555 1_555
C37_2 C32_2 1_555 1_555
H20_2 C37_2 1_555 1_555
C38_2 C35_2 1_555 1_555
C39_2 C38_2 1_555 1_555
C40_2 C39_2 1_555 1_555
H21_2 C40_2 1_555 1_555
C41_2 C40_2 1_555 1_555
C42_2 C41_2 1_555 1_555
H22_2 C42_2 1_555 1_555
C43_2 C38_2 1_555 1_555
C44_2 O26_2 1_555 1_555
C28_2 C29_2 1_555 1_555
O22_2 C31_2 1_555 1_555
C36_2 C37_2 1_555 1_555
C41_2 C44_2 1_555 1_555
C42_2 C43_2 1_555 1_555
O3_2 C14_2 1_555 1_555
O4_2 C14_2 1_555 1_555
O10_2 N3_2 1_555 1_555
O11_2 N4_2 1_555 1_555
O12_2 N4_2 1_555 1_555
N3_2 C9_2 1_555 1_555
N4_2 C13_2 1_555 1_555
C9_2 C8_2 1_555 1_555
C10_2 C9_2 1_555 1_555
H3_2 C10_2 1_555 1_555
C11_2 C10_2 1_555 1_555
C12_2 C11_2 1_555 1_555
H4_2 C12_2 1_555 1_555
C13_2 C8_2 1_555 1_555
C14_2 C11_2 1_555 1_555
Gd3_2 O3_2 1_555 1_555
O4_2 Gd3_2 1_555 1_555
C12_2 C13_2 1_555 1_555
O24_2 C44_3 1_555 1_555
O34_3 N11_3 1_555 1_555
O35_3 N12_3 1_555 1_555
O36_3 N12_3 1_555 1_555
N11_3 C39_3 1_555 1_555
N12_3 C43_3 1_555 1_555
C39_3 C38_3 1_555 1_555
C40_3 C39_3 1_555 1_555
H21_3 C40_3 1_555 1_555
C41_3 C40_3 1_555 1_555
C42_3 C41_3 1_555 1_555
H22_3 C42_3 1_555 1_555
C43_3 C38_3 1_555 1_555
C44_3 O27_2 1_555 1_555
C41_3 C44_3 1_555 1_555
C42_3 C43_3 1_555 1_555
Gd6_2 O1_3 1_555 1_555
O1_3 C1_3 1_555 1_555
O2_3 C1_3 1_555 1_555
O25_2 C14_3 1_555 1_555
O28_2 C14_3 1_555 1_555
O5_3 N1_3 1_555 1_555
O6_2 N1_3 1_555 1_555
O7_3 N2_3 1_555 1_555
O8_3 N2_3 1_555 1_555
O9_3 N3_3 1_555 1_555
O10_3 N3_3 1_555 1_555
O11_3 N4_3 1_555 1_555
O12_3 N4_3 1_555 1_555
O13_2 Gd6_2 1_555 1_555
O14_2 Gd6_2 1_555 1_555
O15_2 N5_2 1_555 1_555
O16_2 N5_2 1_555 1_555
O17_2 N6_2 1_555 1_555
O18_2 N6_2 1_555 1_555
O19_3 Gd6_2 1_555 1_555
N1_3 C4_3 1_555 1_555
N2_3 C6_3 1_555 1_555
N3_3 C9_3 1_555 1_555
N4_3 C13_3 1_555 1_555
N5_2 C18_2 1_555 1_555
N6_2 C20_2 1_555 1_555
N7_3 C22_3 1_555 1_555
N8_3 Gd6_2 1_555 1_555
C1_3 C2_3 1_555 1_555
C2_3 C3_3 1_555 1_555
C3_3 H1_3 1_555 1_555
C4_3 C3_3 1_555 1_555
C5_3 C4_3 1_555 1_555
C6_3 C5_3 1_555 1_555
C7_3 C2_3 1_555 1_555
H2_3 C7_3 1_555 1_555
C8_3 C5_3 1_555 1_555
C9_3 C8_3 1_555 1_555
C10_3 C9_3 1_555 1_555
H3_3 C10_3 1_555 1_555
C11_3 C10_3 1_555 1_555
C12_3 C11_3 1_555 1_555
H4_3 C12_3 1_555 1_555
C13_3 C8_3 1_555 1_555
C14_3 C11_3 1_555 1_555
C15_2 O13_2 1_555 1_555
C16_2 C15_2 1_555 1_555
C17_2 C16_2 1_555 1_555
H5_2 C17_2 1_555 1_555
C18_2 C17_2 1_555 1_555
C19_2 C18_2 1_555 1_555
C20_2 C19_2 1_555 1_555
C21_2 C16_2 1_555 1_555
H6_2 C21_2 1_555 1_555
C22_3 O19_3 1_555 1_555
H7_3 C22_3 1_555 1_555
C23_3 N7_3 1_555 1_555
H8_3 C23_3 1_555 1_555
H9_3 C23_3 1_555 1_555
H10_3 C23_3 1_555 1_555
C24_3 N7_3 1_555 1_555
H11_3 C24_3 1_555 1_555
H12_3 C24_3 1_555 1_555
H13_3 C24_3 1_555 1_555
C25_3 N8_3 1_555 1_555
H14_3 C25_3 1_555 1_555
C26_3 C25_3 1_555 1_555
H15_3 C26_3 1_555 1_555
C27_3 C26_3 1_555 1_555
C28_3 C27_3 1_555 1_555
H16_3 C28_3 1_555 1_555
C29_3 N8_3 1_555 1_555
H17_3 C29_3 1_555 1_555
C30_3 C27_3 1_555 1_555
H18_3 C30_3 1_555 1_555
Gd3_2 O2_3 1_555 1_555
Gd3 O37_2 1_555 1_555
O21_3 Gd3_2 1_555 1_555
O22_3 Gd6_2 1_555 1_555
O29_3 N9_3 1_555 1_555
O31_3 N10_3 1_555 1_555
O32_3 N10_3 1_555 1_555
O37_2 C45_2 1_555 1_555
O38_3 Gd6_2 1_555 1_555
O40_3 Gd3_2 1_555 1_555
O41_2 N13_2 1_555 1_555
O42_2 N13_2 1_555 1_555
O43_2 N14_2 1_555 1_555
O44_2 N14_2 1_555 1_555
O45_3 Gd3_2 1_555 1_555
N9_3 C34_3 1_555 1_555
N10_3 C36_3 1_555 1_555
N13_2 C48_2 1_555 1_555
N14_2 C50_2 1_555 1_555
N15_3 C52_3 1_555 1_555
N16_3 Gd3_2 1_555 1_555
C31_3 O21_3 1_555 1_555
C32_3 C31_3 1_555 1_555
C33_3 C32_3 1_555 1_555
H19_3 C33_3 1_555 1_555
C34_3 C33_3 1_555 1_555
C35_3 C34_3 1_555 1_555
C36_3 C35_3 1_555 1_555
C37_3 C32_3 1_555 1_555
H20_3 C37_3 1_555 1_555
C46_2 C45_2 1_555 1_555
C47_2 C46_2 1_555 1_555
H23_2 C47_2 1_555 1_555
C48_2 C47_2 1_555 1_555
C49_2 C19_2 1_555 1_555
C50_2 C49_2 1_555 1_555
C51_2 C46_2 1_555 1_555
H24_2 C51_2 1_555 1_555
C52_3 O45_3 1_555 1_555
H25_3 C52_3 1_555 1_555
C53_3 N15_3 1_555 1_555
H26_3 C53_3 1_555 1_555
H27_3 C53_3 1_555 1_555
H28_3 C53_3 1_555 1_555
C54_3 N15_3 1_555 1_555
H29_3 C54_3 1_555 1_555
H30_3 C54_3 1_555 1_555
H31_3 C54_3 1_555 1_555
C55_3 N16_3 1_555 1_555
H32_3 C55_3 1_555 1_555
C56_3 C55_3 1_555 1_555
H33_3 C56_3 1_555 1_555
C57_3 C56_3 1_555 1_555
C58_3 C57_3 1_555 1_555
H34_3 C58_3 1_555 1_555
C59_3 N16_3 1_555 1_555
H35_3 C59_3 1_555 1_555
C60_3 C57_3 1_555 1_555
H36_3 C60_3 1_555 1_555
O13_2 Gd3_2 1_555 1_555
O14_2 C15_2 1_555 1_555
C6_3 C7_3 1_555 1_555
C12_3 C13_3 1_555 1_555
C20_2 C21_2 1_555 1_555
C28_3 C29_3 1_555 1_555
Gd3_2 O38_3 1_555 1_555
O22_3 C31_3 1_555 1_555
C36_3 C37_3 1_555 1_555
C48_2 C49_2 1_555 1_555
C50_2 C51_2 1_555 1_555
C58_3 C59_3 1_555 1_555
O39_2 Gd6 1_555 1_555
O24 C44_4 1_555 1_555
O34_4 N11_4 1_555 1_555
O35_4 N12_4 1_555 1_555
O36_4 N12_4 1_555 1_555
N11_4 C39_4 1_555 1_555
N12_4 C43_4 1_555 1_555
C39_4 C38_4 1_555 1_555
C40_4 C39_4 1_555 1_555
H21_4 C40_4 1_555 1_555
C41_4 C40_4 1_555 1_555
C42_4 C41_4 1_555 1_555
H22_4 C42_4 1_555 1_555
C43_4 C38_4 1_555 1_555
C44_4 O27 1_555 1_555
C41_4 C44_4 1_555 1_555
C42_4 C43_4 1_555 1_555
O2_4 C1_4 1_555 1_555
O25 C14_4 1_555 1_555
O28 C14_4 1_555 1_555
O7_4 N2_4 1_555 1_555
O8_4 N2_4 1_555 1_555
O9_4 N3_4 1_555 1_555
O10_4 N3_4 1_555 1_555
O11_4 N4_4 1_555 1_555
O12_4 N4_4 1_555 1_555
N2_4 C6_4 1_555 1_555
N3_4 C9_4 1_555 1_555
N4_4 C13_4 1_555 1_555
C1_4 C2_4 1_555 1_555
C2_4 C3_4 1_555 1_555
C4_4 C3_4 1_555 1_555
C5_4 C4_4 1_555 1_555
C6_4 C5_4 1_555 1_555
C7_4 C2_4 1_555 1_555
H2_4 C7_4 1_555 1_555
C8_4 C5_4 1_555 1_555
C9_4 C8_4 1_555 1_555
C10_4 C9_4 1_555 1_555
H3_4 C10_4 1_555 1_555
C11_4 C10_4 1_555 1_555
C12_4 C11_4 1_555 1_555
H4_4 C12_4 1_555 1_555
C13_4 C8_4 1_555 1_555
C14_4 C11_4 1_555 1_555
Gd3 O2_4 1_555 1_555
O21_4 Gd3 1_555 1_555
O29_4 N9_4 1_555 1_555
O40_4 Gd3 1_555 1_555
O45_4 Gd3 1_555 1_555
O46_3 C60_4 1_555 1_555
N15_4 C52_4 1_555 1_555
N16_4 Gd3 1_555 1_555
C52_4 O45_4 1_555 1_555
H25_4 C52_4 1_555 1_555
C53_4 N15_4 1_555 1_555
H26_4 C53_4 1_555 1_555
H27_4 C53_4 1_555 1_555
H28_4 C53_4 1_555 1_555
C54_4 N15_4 1_555 1_555
H29_4 C54_4 1_555 1_555
H30_4 C54_4 1_555 1_555
H31_4 C54_4 1_555 1_555
C55_4 N16_4 1_555 1_555
H32_4 C55_4 1_555 1_555
C56_4 C55_4 1_555 1_555
H33_4 C56_4 1_555 1_555
C57_4 C56_4 1_555 1_555
C58_4 C57_4 1_555 1_555
H34_4 C58_4 1_555 1_555
C59_4 N16_4 1_555 1_555
H35_4 C59_4 1_555 1_555
C60_4 C57_4 1_555 1_555
H36_4 C60_4 1_555 1_555
C6_4 C7_4 1_555 1_555
C12_4 C13_4 1_555 1_555
C58_4 C59_4 1_555 1_555
Gd6 O1_4 1_555 1_555
O5_4 N1_4 1_555 1_555
O6_3 N1_4 1_555 1_555
O19_4 Gd6 1_555 1_555
O20_3 C30_4 1_555 1_555
N7_4 C22_4 1_555 1_555
N8_4 Gd6 1_555 1_555
C22_4 O19_4 1_555 1_555
H7_4 C22_4 1_555 1_555
C23_4 N7_4 1_555 1_555
H8_4 C23_4 1_555 1_555
H9_4 C23_4 1_555 1_555
H10_4 C23_4 1_555 1_555
C24_4 N7_4 1_555 1_555
H11_4 C24_4 1_555 1_555
H12_4 C24_4 1_555 1_555
H13_4 C24_4 1_555 1_555
C25_4 N8_4 1_555 1_555
H14_4 C25_4 1_555 1_555
C26_4 C25_4 1_555 1_555
H15_4 C26_4 1_555 1_555
C27_4 C26_4 1_555 1_555
C28_4 C27_4 1_555 1_555
H16_4 C28_4 1_555 1_555
C29_4 N8_4 1_555 1_555
H17_4 C29_4 1_555 1_555
C30_4 C27_4 1_555 1_555
H18_4 C30_4 1_555 1_555
O22_4 Gd6 1_555 1_555
O31_4 N10_4 1_555 1_555
O32_4 N10_4 1_555 1_555
O38_4 Gd6 1_555 1_555
N10_4 C36_4 1_555 1_555
C32_4 C31_4 1_555 1_555
C33_4 C32_4 1_555 1_555
C34_4 C33_4 1_555 1_555
C35_4 C34_4 1_555 1_555
C36_4 C35_4 1_555 1_555
C37_4 C32_4 1_555 1_555
H20_4 C37_4 1_555 1_555
C28_4 C29_4 1_555 1_555
O22_4 C31_4 1_555 1_555
C36_4 C37_4 1_555 1_555
O15_3 N5_3 1_555 1_555
O16_3 N5_3 1_555 1_555
N5_3 C18_3 1_555 1_555
C15_3 O38_3 1_555 1_555
C16_3 C15_3 1_555 1_555
C17_3 C16_3 1_555 1_555
H5_3 C17_3 1_555 1_555
C18_3 C17_3 1_555 1_555
C19_3 C18_3 1_555 1_555
C20_3 C19_3 1_555 1_555
C21_3 C16_3 1_555 1_555
H6_3 C21_3 1_555 1_555
O43_3 N14_3 1_555 1_555
O44_3 N14_3 1_555 1_555
O40_3 C15_3 1_555 1_555
C20_3 C21_3 1_555 1_555
O17_3 N6_3 1_555 1_555
O18_3 N6_3 1_555 1_555
O38_4 C45_3 1_555 1_555
O41_3 N13_3 1_555 1_555
O42_3 N13_3 1_555 1_555
N13_3 C48_3 1_555 1_555
C46_3 C45_3 1_555 1_555
C47_3 C46_3 1_555 1_555
H23_3 C47_3 1_555 1_555
C48_3 C47_3 1_555 1_555
C50_3 C49_3 1_555 1_555
C51_3 C46_3 1_555 1_555
H24_3 C51_3 1_555 1_555
C48_3 C49_3 1_555 1_555
C50_3 C51_3 1_555 1_555
O15_4 N5_4 1_555 1_555
O16_4 N5_4 1_555 1_555
O17_4 N6_4 1_555 1_555
O18_4 N6_4 1_555 1_555
N5_4 C18_4 1_555 1_555
N6_4 C20_4 1_555 1_555
C15_4 O38 1_555 1_555
C16_4 C15_4 1_555 1_555
C17_4 C16_4 1_555 1_555
H5_4 C17_4 1_555 1_555
C18_4 C17_4 1_555 1_555
C19_4 C18_4 1_555 1_555
C20_4 C19_4 1_555 1_555
C21_4 C16_4 1_555 1_555
H6_4 C21_4 1_555 1_555
O38_2 C45_4 1_555 1_555
O41_4 N13_4 1_555 1_555
O42_4 N13_4 1_555 1_555
O43_4 N14_4 1_555 1_555
O44_4 N14_4 1_555 1_555
N13_4 C48_4 1_555 1_555
N14_4 C50_4 1_555 1_555
C46_4 C45_4 1_555 1_555
C47_4 C46_4 1_555 1_555
H23_4 C47_4 1_555 1_555
C48_4 C47_4 1_555 1_555
C49_4 C19_4 1_555 1_555
C50_4 C49_4 1_555 1_555
C51_4 C46_4 1_555 1_555
H24_4 C51_4 1_555 1_555
O40 C15_4 1_555 1_555
C20_4 C21_4 1_555 1_555
C48_4 C49_4 1_555 1_555
C50_4 C51_4 1_555 1_555

#END
