
###############################################################################
#
# This file contains modified crystal structure data generated from the
# MOF subset of the Cambridge Structural Database (CSD) v543 
# hosted by the Cambridge Crystallographic Data Centre (CCDC).
#
# This work is licensed under the Creative Commons
# Attribution-NonCommercial-ShareAlike 4.0 International License.
# To view a copy of this license, visit
# http://creativecommons.org/licenses/by-nc-sa/4.0/
# or send a letter to
# Creative Commons, PO Box 1866, Mountain View, CA 94042, USA.
#
# CIF created using the CSD Python API on 29 September 2022
# The structure has been converted into the P1 space group
# The structure has a 3D framework
# The original CSD entry XEGKAX is in the monoclinic crystal system
# The framework has been calculated to contain at least 10.0% void space
# The void calculation uses a probe of radius 1.32A, grid spacing 0.4
#
###############################################################################

data_XEGKAX
_chemical_formula_moiety         '(C216 H160 Gd8 N64 O158)n'
_symmetry_cell_setting           triclinic
_symmetry_space_group_name_H-M   'P 1'
_symmetry_Int_Tables_number      1
_space_group_name_Hall           'P 1'
loop_
_symmetry_equiv_pos_site_id
_symmetry_equiv_pos_as_xyz
1 x,y,z
_cell_length_a                   13.652(2)
_cell_length_b                   30.143(5)
_cell_length_c                   24.698(4)
_cell_angle_alpha                90
_cell_angle_beta                 94.935(3)
_cell_angle_gamma                90
_cell_volume                     10125.9
loop_
_atom_site_label
_atom_site_type_symbol
_atom_site_fract_x
_atom_site_fract_y
_atom_site_fract_z
H23 H 0.0468 0.2204 0.6921
H25 H 0.0179 0.1473 0.7739
O4 O 0.0532(6) 0.2580(3) 0.1947(3)
O7 O 0.4201(10) 0.3508(4) 0.0058(5)
O8 O 0.3441(10) 0.3136(4) 0.0577(5)
O11 O 0.3628(10) 0.1984(5) 0.0401(5)
O12 O 0.3528(11) 0.2041(7) 0.1207(6)
N2 N 0.3706(10) 0.3201(5) 0.0140(5)
N4 N 0.3196(9) 0.2100(5) 0.0746(5)
C8 C 0.2064(9) 0.2563(4) 0.0161(5)
C9 C 0.1172(10) 0.2788(4) 0.0110(5)
C10 C 0.0561(9) 0.2828(4) 0.0519(5)
C11 C 0.0842(9) 0.2621(4) 0.1022(5)
C12 C 0.1695(9) 0.2395(4) 0.1083(5)
H4 H 0.1887 0.2262 0.1414
C13 C 0.2293(9) 0.2358(4) 0.0658(5)
C14 C 0.0178(9) 0.2670(4) 0.1477(5)
Gd3 Gd 0.14237(4) 0.246349(17) 0.27778(3)
Gd1 Gd 0.64237(4) 0.253651(17) 0.77778(3)
Gd2 Gd 0.36000(4) 0.226330(17) 0.72268(3)
O1 O 0.5680(6) 0.2701(3) 0.8622(3)
O2 O 0.4611(6) 0.2388(2) 0.8037(3)
O5 O 0.1717(11) 0.1740(5) 0.8848(6)
O6 O 0.1484(11) 0.1844(5) 0.9627(6)
O9 O 0.1118(10) 0.2886(6) 0.9174(4)
O10 O 0.0199(10) 0.3284(5) 0.9593(5)
O13 O 0.6093(5) 0.1761(2) 0.7808(3)
O14 O 0.4636(6) 0.1628(2) 0.7330(3)
O17 O 0.3860(7) 0.0160(3) 0.6745(4)
O19 O 0.8309(7) 0.0542(3) 0.8225(5)
O21 O 0.6738(10) 0.0157(3) 0.6618(5)
O25 O 0.5460(6) 0.3192(3) 0.7567(3)
O26 O 0.3994(6) 0.3014(3) 0.7164(4)
O27 O 0.2405(6) 0.6632(3) 0.8123(4)
O28 O 0.2220(7) 0.6710(3) 0.7227(4)
O29 O 0.1803(7) 0.4823(3) 0.7030(4)
O30 O 0.1471(7) 0.4119(3) 0.7029(4)
O31 O 0.5310(9) 0.5148(5) 0.7960(10)
O32 O 0.6274(9) 0.4805(4) 0.7527(6)
O33 O 0.3501(12) 0.5543(4) 0.6119(5)
O34 O 0.4324(10) 0.5014(4) 0.6483(5)
O35 O 0.3252(9) 0.5178(3) 0.8860(4)
O36 O 0.3054(9) 0.4609(3) 0.8347(4)
O37 O 0.7481(11) 0.2256(3) 0.8483(6)
O38 O 0.7659(9) 0.2131(4) 0.7319(7)
O39 O 0.2488(8) 0.2639(4) 0.7743(4)
O40 O 0.2379(6) 0.2580(3) 0.6583(4)
N1 N 0.1897(8) 0.1923(4) 0.9252(5)
N3 N 0.0820(10) 0.3007(5) 0.9589(5)
N6 N 0.7643(9) 0.0279(4) 0.8168(5)
N9 N 0.2044(8) 0.4432(3) 0.7073(5)
N10 N 0.5469(9) 0.4842(4) 0.7732(7)
N11 N 0.3787(10) 0.5331(4) 0.6504(6)
N12 N 0.3181(8) 0.5006(4) 0.8424(5)
N13 N 0.8612(9) 0.1782(3) 0.8816(6)
N14 N 0.9314(6) 0.1939(7) 0.7310(4)
N15 N 0.1401(13) 0.3206(6) 0.7984(7)
N16 N 0.1943(11) 0.3145(4) 0.5992(6)
C1 C 0.4843(9) 0.2550(4) 0.8497(5)
C2 C 0.4092(9) 0.2557(4) 0.8906(5)
C3 C 0.3305(9) 0.2261(4) 0.8877(5)
H1 H 0.3205 0.2065 0.8586
C4 C 0.2681(9) 0.2262(4) 0.9283(5)
C5 C 0.2765(10) 0.2557(4) 0.9722(5)
C6 C 0.3532(10) 0.2858(4) 0.9716(5)
C7 C 0.4192(9) 0.2858(4) 0.9324(5)
H2 H 0.4705 0.3062 0.9343
C15 C 0.5451(9) 0.1516(4) 0.7584(5)
C16 C 0.5667(8) 0.1022(4) 0.7599(5)
C17 C 0.5011(8) 0.0725(4) 0.7339(5)
H5 H 0.4421 0.0828 0.7167
C18 C 0.5223(8) 0.0283(4) 0.7332(5)
C19 C 0.6095(9) 0.0105(4) 0.7597(5)
C20 C 0.6708(9) 0.0416(4) 0.7861(5)
C21 C 0.6524(9) 0.0865(4) 0.7857(5)
H6 H 0.6978 0.1060 0.8029
C29 C 0.4644(9) 0.3290(4) 0.7355(5)
C30 C 0.4337(9) 0.3776(4) 0.7338(5)
C31 C 0.3385(9) 0.3891(4) 0.7182(5)
H9 H 0.2931 0.3677 0.7056
C32 C 0.3108(9) 0.4330(4) 0.7214(5)
C33 C 0.3759(8) 0.4664(4) 0.7388(5)
C34 C 0.4712(9) 0.4524(4) 0.7531(5)
C35 C 0.5014(9) 0.4089(4) 0.7508(6)
H10 H 0.5664 0.4011 0.7607
C36 C 0.3457(9) 0.5139(4) 0.7446(5)
C37 C 0.3462(9) 0.5447(4) 0.7036(5)
C38 C 0.3132(9) 0.5878(4) 0.7085(6)
H11 H 0.3088 0.6068 0.6787
C39 C 0.2867(8) 0.6023(4) 0.7584(5)
C40 C 0.2906(8) 0.5735(4) 0.8015(5)
H12 H 0.2741 0.5831 0.8353
C41 C 0.3192(8) 0.5300(4) 0.7944(5)
C42 C 0.2475(8) 0.6486(4) 0.7646(5)
C43 C 0.7653(14) 0.1943(9) 0.8721(13)
H13 H 0.7141 0.1787 0.8858
C44 C 0.936(3) 0.2124(13) 0.877(4)
H14 H 0.9177 0.2302 0.8450
H15 H 0.9982 0.1987 0.8730
H16 H 0.9399 0.2309 0.9084
C45 C 0.894(2) 0.1377(7) 0.9086(14)
H17 H 0.8378 0.1190 0.9129
H18 H 0.9259 0.1446 0.9437
H19 H 0.9386 0.1226 0.8872
C46 C 0.836(3) 0.206(4) 0.7065(16)
H20 H 0.8270 0.2074 0.6688
C47 C 0.9837(18) 0.2080(8) 0.6806(10)
H21 H 0.9445 0.2299 0.6604
H22 H 0.9920 0.1826 0.6580
C48 C 0.9486(5) 0.1516(3) 0.7654(6)
H24 H 0.9170 0.1546 0.7985
H26 H 0.9216 0.1265 0.7453
C49 C 0.1774(18) 0.2830(7) 0.7749(8)
H27 H 0.1282 0.2692 0.7526
C50 C 0.0375(16) 0.3220(19) 0.7890(12)
H28 H 0.0188 0.3161 0.7514
H29 H 0.0144 0.3509 0.7982
H30 H 0.0090 0.3001 0.8111
C51 C 0.208(2) 0.3512(11) 0.8317(13)
H31 H 0.2740 0.3395 0.8337
H32 H 0.1875 0.3536 0.8678
H33 H 0.2074 0.3800 0.8151
C52 C 0.2576(12) 0.2810(5) 0.6211(7)
H34 H 0.3171 0.2765 0.6061
C53 C 0.217(2) 0.3402(9) 0.5512(12)
H35 H 0.2815 0.3324 0.5415
H36 H 0.2153 0.3713 0.5594
H37 H 0.1695 0.3337 0.5214
C54 C 0.1017(13) 0.3238(6) 0.6197(9)
H38 H 0.0504 0.3085 0.5981
H39 H 0.0895 0.3552 0.6181
H40 H 0.1029 0.3140 0.6567
Gd6 Gd 0.14000(4) 0.726330(17) 0.77732(3)
O41 O 0.4306(6) 0.2208(3) 0.6362(3)
O42 O 0.5532(6) 0.2420(3) 0.6947(3)
O43 O 0.7440(6) 0.3045(3) 0.7269(3)
O44 O 0.7422(6) 0.3165(3) 0.8147(4)
O45 O 0.2595(6) 0.1632(3) 0.6877(4)
O46 O 0.2780(7) 0.1710(3) 0.7773(4)
O15 O 0.7560(6) 0.8045(3) 0.7731(3)
O16 O 0.7578(6) 0.8165(3) 0.6853(4)
O18 O 0.4594(7) 0.9586(3) 0.7095(5)
O20 O 0.7650(8) 0.9906(3) 0.8390(5)
O22 O 0.7612(16) 0.9682(4) 0.6324(7)
O23 O 0.5446(7) 0.9768(3) 0.8474(4)
O24 O 0.5670(9) 0.9106(3) 0.8733(4)
N5 N 0.4512(7) 0.9984(3) 0.7040(4)
N7 N 0.7048(8) 0.9799(3) 0.6636(5)
N8 N 0.5771(8) 0.9400(3) 0.8405(4)
C22 C 0.6388(8) 0.9628(4) 0.7524(5)
C23 C 0.6842(9) 0.9486(4) 0.7077(6)
C24 C 0.7130(8) 0.9052(4) 0.7003(5)
H7 H 0.7400 0.8971 0.6684
C25 C 0.7019(8) 0.8747(4) 0.7394(5)
C26 C 0.6578(8) 0.8863(4) 0.7848(5)
H8 H 0.6491 0.8652 0.8115
C27 C 0.6259(9) 0.9295(4) 0.7911(5)
C28 C 0.7403(8) 0.8283(4) 0.7316(5)
Gd4 Gd 0.85763(4) 0.753651(17) 0.72222(3)
O3 O 0.9306(6) 0.2792(3) 0.1362(3)
H3 H 0.9977 0.2987 0.0467
Gd5 Gd 0.86000(4) 0.273670(17) 0.22268(3)
O33_2 O 0.1499(12) 0.0543(4) 0.8881(5)
O34_2 O 0.0676(10) 0.0014(4) 0.8517(5)
O35_2 O 0.1748(9) 0.0178(3) 0.6140(4)
N11_2 N 0.1213(10) 0.0331(4) 0.8496(6)
N12_2 N 0.1819(8) 0.0006(4) 0.6576(5)
C36_2 C 0.1543(9) 0.0139(4) 0.7554(5)
C37_2 C 0.1538(9) 0.0447(4) 0.7964(5)
C38_2 C 0.1868(9) 0.0878(4) 0.7915(6)
H11_2 H 0.1912 0.1068 0.8213
C39_2 C 0.2133(8) 0.1023(4) 0.7416(5)
C40_2 C 0.2094(8) 0.0735(4) 0.6985(5)
H12_2 H 0.2259 0.0831 0.6647
C41_2 C 0.1808(8) 0.0300(4) 0.7056(5)
C42_2 C 0.2525(8) 0.1486(4) 0.7354(5)
O2_2 O 0.0389(6) 0.7388(2) 0.6963(3)
O3_2 O 0.5694(6) 0.7792(3) 0.3638(3)
O4_2 O 0.4468(6) 0.7580(3) 0.3053(3)
O5_2 O 0.3283(11) 0.6740(5) 0.6152(6)
O6_2 O 0.3516(11) 0.6844(5) 0.5373(6)
O7_2 O 0.0799(10) 0.8508(4) 0.4942(5)
O8_2 O 0.1559(10) 0.8136(4) 0.4423(5)
O9_2 O 0.3882(10) 0.7886(6) 0.5826(4)
O10_2 O 0.4801(10) 0.8284(5) 0.5407(5)
O11_2 O 0.1372(10) 0.6984(5) 0.4599(5)
O12_2 O 0.1472(11) 0.7041(7) 0.3793(6)
O14_2 O 0.0364(6) 0.6628(2) 0.7670(3)
O17_2 O 0.1140(7) 0.5160(3) 0.8255(4)
O18_2 O 0.0406(7) 0.4586(3) 0.7905(5)
O26_2 O 0.1006(6) 0.8014(3) 0.7836(4)
O29_2 O 0.3197(7) 0.9823(3) 0.7970(4)
O30_2 O 0.3529(7) 0.9119(3) 0.7971(4)
O36_2 O 0.1946(9) 0.9609(3) 0.6653(4)
O39_2 O 0.2512(8) 0.7639(4) 0.7257(4)
O40_2 O 0.2621(6) 0.7580(3) 0.8417(4)
N1_2 N 0.3103(8) 0.6923(4) 0.5748(5)
N2_2 N 0.1294(10) 0.8201(5) 0.4860(5)
N3_2 N 0.4180(10) 0.8007(5) 0.5411(5)
N4_2 N 0.1804(9) 0.7100(5) 0.4254(5)
N5_2 N 0.0488(7) 0.4984(3) 0.7960(4)
N9_2 N 0.2956(8) 0.9432(3) 0.7927(5)
N15_2 N 0.3599(13) 0.8206(6) 0.7016(7)
N16_2 N 0.3057(11) 0.8145(4) 0.9008(6)
C1_2 C 0.0157(9) 0.7550(4) 0.6503(5)
C2_2 C 0.0908(9) 0.7557(4) 0.6094(5)
C3_2 C 0.1695(9) 0.7261(4) 0.6123(5)
H1_2 H 0.1795 0.7065 0.6414
C4_2 C 0.2319(9) 0.7262(4) 0.5717(5)
C5_2 C 0.2235(10) 0.7557(4) 0.5278(5)
C6_2 C 0.1468(10) 0.7858(4) 0.5284(5)
C7_2 C 0.0808(9) 0.7858(4) 0.5676(5)
H2_2 H 0.0295 0.8062 0.5657
C8_2 C 0.2936(9) 0.7563(4) 0.4839(5)
C9_2 C 0.3828(10) 0.7788(4) 0.4890(5)
C10_2 C 0.4439(9) 0.7828(4) 0.4481(5)
H3_2 H 0.5023 0.7987 0.4533
C11_2 C 0.4158(9) 0.7621(4) 0.3978(5)
C12_2 C 0.3305(9) 0.7395(4) 0.3917(5)
H4_2 H 0.3113 0.7262 0.3586
C13_2 C 0.2707(9) 0.7358(4) 0.4342(5)
C14_2 C 0.4822(9) 0.7670(4) 0.3523(5)
H5_2 H 0.0579 0.5828 0.7833
C29_2 C 0.0356(9) 0.8290(4) 0.7645(5)
C30_2 C 0.0663(9) 0.8776(4) 0.7662(5)
C31_2 C 0.1615(9) 0.8891(4) 0.7818(5)
H9_2 H 0.2069 0.8677 0.7944
C32_2 C 0.1892(9) 0.9330(4) 0.7786(5)
C33_2 C 0.1241(8) 0.9664(4) 0.7612(5)
C34_2 C 0.0288(9) 0.9524(4) 0.7469(5)
C49_2 C 0.3226(18) 0.7830(7) 0.7251(8)
H27_2 H 0.3718 0.7692 0.7474
C50_2 C 0.4625(16) 0.8220(19) 0.7110(12)
H28_2 H 0.4812 0.8161 0.7486
H29_2 H 0.4856 0.8509 0.7018
H30_2 H 0.4910 0.8001 0.6889
C51_2 C 0.292(2) 0.8512(11) 0.6683(13)
H31_2 H 0.2260 0.8395 0.6663
H32_2 H 0.3125 0.8536 0.6322
H33_2 H 0.2926 0.8800 0.6849
C52_2 C 0.2424(12) 0.7810(5) 0.8789(7)
H34_2 H 0.1829 0.7765 0.8939
C53_2 C 0.283(2) 0.8402(9) 0.9488(12)
H35_2 H 0.2185 0.8324 0.9585
H36_2 H 0.2847 0.8713 0.9406
H37_2 H 0.3305 0.8337 0.9786
C54_2 C 0.3983(13) 0.8238(6) 0.8803(9)
H38_2 H 0.4496 0.8085 0.9019
H39_2 H 0.4105 0.8552 0.8819
H40_2 H 0.3971 0.8140 0.8433
Gd3_2 Gd 0.35763(4) 0.746349(17) 0.22222(3)
Gd5_2 Gd 0.64000(4) 0.773670(17) 0.27732(3)
O41_2 O 0.0694(6) 0.7208(3) 0.8638(3)
O1_2 O 0.9320(6) 0.7701(3) 0.6378(3)
O13_2 O 0.8907(5) 0.6761(2) 0.7192(3)
O19_2 O 0.6691(7) 0.5542(3) 0.6775(5)
O20_2 O 0.7350(8) 0.4906(3) 0.6610(5)
O21_2 O 0.8262(10) 0.5157(3) 0.8382(5)
O22_2 O 0.7388(16) 0.4682(4) 0.8676(7)
O23_2 O 0.9554(7) 0.4768(3) 0.6526(4)
O24_2 O 0.9330(9) 0.4106(3) 0.6267(4)
O25_2 O 0.9540(6) 0.8192(3) 0.7433(3)
O32_2 O 0.8726(9) 0.9805(4) 0.7473(6)
O37_2 O 0.7519(11) 0.7256(3) 0.6517(6)
O38_2 O 0.7341(9) 0.7131(4) 0.7681(7)
N6_2 N 0.7357(9) 0.5279(4) 0.6832(5)
N7_2 N 0.7952(8) 0.4799(3) 0.8364(5)
N8_2 N 0.9229(8) 0.4400(3) 0.6595(4)
N10_2 N 0.9531(9) 0.9842(4) 0.7268(7)
N13_2 N 0.6388(9) 0.6782(3) 0.6184(6)
N14_2 N 0.5686(6) 0.6939(7) 0.7690(4)
C15_2 C 0.9549(9) 0.6516(4) 0.7416(5)
C16_2 C 0.9333(8) 0.6022(4) 0.7401(5)
C17_2 C 0.9989(8) 0.5725(4) 0.7661(5)
C18_2 C 0.9777(8) 0.5283(4) 0.7668(5)
C19_2 C 0.8905(9) 0.5105(4) 0.7403(5)
C20_2 C 0.8292(9) 0.5416(4) 0.7139(5)
C21_2 C 0.8476(9) 0.5865(4) 0.7143(5)
H6_2 H 0.8022 0.6060 0.6971
C22_2 C 0.8612(8) 0.4628(4) 0.7476(5)
C23_2 C 0.8158(9) 0.4486(4) 0.7923(6)
C24_2 C 0.7870(8) 0.4052(4) 0.7997(5)
H7_2 H 0.7600 0.3971 0.8316
C25_2 C 0.7981(8) 0.3747(4) 0.7606(5)
C26_2 C 0.8422(8) 0.3863(4) 0.7152(5)
H8_2 H 0.8509 0.3652 0.6885
C27_2 C 0.8741(9) 0.4295(4) 0.7089(5)
C28_2 C 0.7597(8) 0.3283(4) 0.7684(5)
C35_2 C 0.9986(9) 0.9089(4) 0.7492(6)
H10_2 H 0.9336 0.9011 0.7393
C43_2 C 0.7347(14) 0.6943(9) 0.6279(13)
H13_2 H 0.7859 0.6787 0.6142
C44_2 C 0.564(3) 0.7124(13) 0.623(4)
H14_2 H 0.5823 0.7302 0.6550
H15_2 H 0.5018 0.6987 0.6270
H16_2 H 0.5601 0.7309 0.5916
C45_2 C 0.606(2) 0.6377(7) 0.5914(14)
H17_2 H 0.6622 0.6190 0.5871
H18_2 H 0.5741 0.6446 0.5563
H19_2 H 0.5614 0.6226 0.6128
C46_2 C 0.664(3) 0.706(4) 0.7935(16)
H20_2 H 0.6730 0.7074 0.8312
C47_2 C 0.5163(18) 0.7080(8) 0.8194(10)
H21_2 H 0.5555 0.7299 0.8396
H22_2 H 0.5080 0.6826 0.8420
H23_2 H 0.4532 0.7204 0.8079
C48_2 C 0.5514(5) 0.6516(3) 0.7346(6)
H24_2 H 0.5830 0.6546 0.7015
H25_2 H 0.4821 0.6473 0.7261
H26_2 H 0.5784 0.6265 0.7547
O42_2 O 0.9468(6) 0.7420(3) 0.8053(3)
H3_3 H 0.0023 0.7013 0.9533
O15_2 O 0.2440(6) 0.1955(3) 0.2269(3)
O16_2 O 0.2422(6) 0.1835(3) 0.3147(4)
O18_3 O 0.5406(7) 0.0414(3) 0.2905(5)
O20_3 O 0.2350(8) 0.0094(3) 0.1610(5)
O22_3 O 0.2388(16) 0.0318(4) 0.3676(7)
O23_3 O 0.4554(7) 0.0232(3) 0.1526(4)
O24_3 O 0.4330(9) 0.0894(3) 0.1267(4)
N5_3 N 0.5488(7) 0.0016(3) 0.2960(4)
N7_3 N 0.2952(8) 0.0201(3) 0.3364(5)
N8_3 N 0.4229(8) 0.0600(3) 0.1595(4)
C22_3 C 0.3612(8) 0.0372(4) 0.2476(5)
C23_3 C 0.3158(9) 0.0514(4) 0.2923(6)
C24_3 C 0.2870(8) 0.0948(4) 0.2997(5)
H7_3 H 0.2600 0.1029 0.3316
C25_3 C 0.2981(8) 0.1253(4) 0.2606(5)
C26_3 C 0.3422(8) 0.1137(4) 0.2152(5)
H8_3 H 0.3509 0.1348 0.1885
C27_3 C 0.3741(9) 0.0705(4) 0.2089(5)
C28_3 C 0.2597(8) 0.1717(4) 0.2684(5)
O1_3 O 0.4320(6) 0.7299(3) 0.1378(3)
O2_3 O 0.5389(6) 0.7612(2) 0.1963(3)
O5_3 O 0.8283(11) 0.8260(5) 0.1152(6)
O6_3 O 0.8516(11) 0.8156(5) 0.0373(6)
O9_3 O 0.8882(10) 0.7114(6) 0.0826(4)
O10_3 O 0.9801(10) 0.6716(5) 0.0407(5)
O13_3 O 0.3907(5) 0.8239(2) 0.2192(3)
O14_3 O 0.5364(6) 0.8372(2) 0.2670(3)
O17_3 O 0.6140(7) 0.9840(3) 0.3255(4)
O19_3 O 0.1691(7) 0.9458(3) 0.1775(5)
O21_3 O 0.3262(10) 0.9843(3) 0.3382(5)
O25_3 O 0.4540(6) 0.6808(3) 0.2433(3)
O26_3 O 0.6006(6) 0.6986(3) 0.2836(4)
O27_2 O 0.7595(6) 0.3368(3) 0.1877(4)
O28_2 O 0.7780(7) 0.3290(3) 0.2773(4)
O29_3 O 0.8197(7) 0.5177(3) 0.2970(4)
O30_3 O 0.8529(7) 0.5881(3) 0.2971(4)
O31_2 O 0.4690(9) 0.4852(5) 0.2040(10)
O32_3 O 0.3726(9) 0.5195(4) 0.2473(6)
O33_3 O 0.6499(12) 0.4457(4) 0.3881(5)
O34_3 O 0.5676(10) 0.4986(4) 0.3517(5)
O35_3 O 0.6748(9) 0.4822(3) 0.1140(4)
O36_3 O 0.6946(9) 0.5391(3) 0.1653(4)
O37_3 O 0.2519(11) 0.7744(3) 0.1517(6)
O38_3 O 0.2341(9) 0.7869(4) 0.2681(7)
O39_3 O 0.7512(8) 0.7361(4) 0.2257(4)
O40_3 O 0.7621(6) 0.7420(3) 0.3417(4)
N1_3 N 0.8103(8) 0.8077(4) 0.0748(5)
N3_3 N 0.9180(10) 0.6993(5) 0.0411(5)
N6_3 N 0.2357(9) 0.9721(4) 0.1832(5)
N9_3 N 0.7956(8) 0.5568(3) 0.2927(5)
N10_3 N 0.4531(9) 0.5158(4) 0.2268(7)
N11_3 N 0.6213(10) 0.4669(4) 0.3496(6)
N12_3 N 0.6819(8) 0.4994(4) 0.1576(5)
N13_3 N 0.1388(9) 0.8218(3) 0.1184(6)
N14_3 N 0.0686(6) 0.8061(7) 0.2690(4)
N15_3 N 0.8599(13) 0.6794(6) 0.2016(7)
N16_3 N 0.8057(11) 0.6855(4) 0.4008(6)
C1_3 C 0.5157(9) 0.7450(4) 0.1503(5)
C2_3 C 0.5908(9) 0.7443(4) 0.1094(5)
C3_3 C 0.6695(9) 0.7739(4) 0.1123(5)
H1_3 H 0.6795 0.7935 0.1414
C4_3 C 0.7319(9) 0.7738(4) 0.0717(5)
C5_3 C 0.7235(10) 0.7443(4) 0.0278(5)
C6_3 C 0.6468(10) 0.7142(4) 0.0284(5)
C7_3 C 0.5808(9) 0.7142(4) 0.0676(5)
H2_3 H 0.5295 0.6938 0.0657
C15_3 C 0.4549(9) 0.8484(4) 0.2416(5)
C16_3 C 0.4333(8) 0.8978(4) 0.2401(5)
C17_3 C 0.4989(8) 0.9275(4) 0.2661(5)
H5_3 H 0.5579 0.9172 0.2833
C18_3 C 0.4777(8) 0.9717(4) 0.2668(5)
C19_3 C 0.3905(9) 0.9895(4) 0.2403(5)
C20_3 C 0.3292(9) 0.9584(4) 0.2139(5)
C21_3 C 0.3476(9) 0.9135(4) 0.2143(5)
H6_3 H 0.3022 0.8940 0.1971
C29_3 C 0.5356(9) 0.6710(4) 0.2645(5)
C30_3 C 0.5663(9) 0.6224(4) 0.2662(5)
C31_3 C 0.6615(9) 0.6109(4) 0.2818(5)
H9_3 H 0.7069 0.6323 0.2944
C32_3 C 0.6892(9) 0.5670(4) 0.2786(5)
C33_3 C 0.6241(8) 0.5336(4) 0.2612(5)
C34_3 C 0.5288(9) 0.5476(4) 0.2469(5)
C35_3 C 0.4986(9) 0.5911(4) 0.2492(6)
H10_3 H 0.4336 0.5989 0.2393
C36_3 C 0.6543(9) 0.4861(4) 0.2554(5)
C37_3 C 0.6538(9) 0.4553(4) 0.2964(5)
C38_3 C 0.6868(9) 0.4122(4) 0.2915(6)
H11_3 H 0.6912 0.3932 0.3213
C39_3 C 0.7133(8) 0.3977(4) 0.2416(5)
C40_3 C 0.7094(8) 0.4265(4) 0.1985(5)
H12_3 H 0.7259 0.4169 0.1647
C41_3 C 0.6808(8) 0.4700(4) 0.2056(5)
C42_3 C 0.7525(8) 0.3514(4) 0.2354(5)
C43_3 C 0.2347(14) 0.8057(9) 0.1279(13)
H13_3 H 0.2859 0.8213 0.1142
C44_3 C 0.064(3) 0.7876(13) 0.123(4)
H14_3 H 0.0823 0.7698 0.1550
H15_3 H 0.0018 0.8013 0.1270
H16_3 H 0.0601 0.7691 0.0916
C45_3 C 0.106(2) 0.8623(7) 0.0914(14)
H17_3 H 0.1622 0.8810 0.0871
H18_3 H 0.0741 0.8554 0.0563
H19_3 H 0.0614 0.8774 0.1128
C46_3 C 0.164(3) 0.794(4) 0.2935(16)
H20_3 H 0.1730 0.7926 0.3312
C47_3 C 0.0163(18) 0.7920(8) 0.3194(10)
H21_3 H 0.0555 0.7701 0.3396
H22_3 H 0.0080 0.8174 0.3420
C48_3 C 0.0514(5) 0.8484(3) 0.2346(6)
H24_3 H 0.0830 0.8454 0.2015
H26_3 H 0.0784 0.8735 0.2547
C49_3 C 0.8226(18) 0.7170(7) 0.2251(8)
H27_3 H 0.8718 0.7308 0.2474
C50_3 C 0.9625(16) 0.6780(19) 0.2110(12)
H28_3 H 0.9812 0.6839 0.2486
H29_3 H 0.9856 0.6491 0.2018
H30_3 H 0.9910 0.6999 0.1889
C51_3 C 0.792(2) 0.6488(11) 0.1683(13)
H31_3 H 0.7260 0.6605 0.1663
H32_3 H 0.8125 0.6464 0.1322
H33_3 H 0.7926 0.6200 0.1849
C52_3 C 0.7424(12) 0.7190(5) 0.3789(7)
H34_3 H 0.6829 0.7235 0.3939
C53_3 C 0.783(2) 0.6598(9) 0.4488(12)
H35_3 H 0.7185 0.6676 0.4585
H36_3 H 0.7847 0.6287 0.4406
H37_3 H 0.8305 0.6663 0.4786
C54_3 C 0.8983(13) 0.6762(6) 0.3803(9)
H38_3 H 0.9496 0.6915 0.4019
H39_3 H 0.9105 0.6448 0.3819
H40_3 H 0.8971 0.6860 0.3433
O43_2 O 0.2560(6) 0.6955(3) 0.2731(3)
O44_2 O 0.2578(6) 0.6835(3) 0.1853(4)
O45_2 O 0.7405(6) 0.8368(3) 0.3123(4)
O46_2 O 0.7220(7) 0.8290(3) 0.2227(4)
O7_3 O 0.5799(10) 0.6492(4) 0.9942(5)
O8_3 O 0.6559(10) 0.6864(4) 0.9423(5)
O11_3 O 0.6372(10) 0.8016(5) 0.9599(5)
O12_3 O 0.6472(11) 0.7959(7) 0.8793(6)
N2_3 N 0.6294(10) 0.6799(5) 0.9860(5)
N4_3 N 0.6804(9) 0.7900(5) 0.9254(5)
C8_3 C 0.7936(9) 0.7437(4) 0.9839(5)
C9_3 C 0.8828(10) 0.7212(4) 0.9890(5)
C10_3 C 0.9439(9) 0.7172(4) 0.9481(5)
C11_3 C 0.9158(9) 0.7379(4) 0.8978(5)
C12_3 C 0.8305(9) 0.7605(4) 0.8917(5)
H4_3 H 0.8113 0.7738 0.8586
C13_3 C 0.7707(9) 0.7642(4) 0.9342(5)
C14_3 C 0.9822(9) 0.7330(4) 0.8523(5)
O1_4 O 0.0680(6) 0.2299(3) 0.3622(3)
O13_4 O 0.1093(5) 0.3239(2) 0.2808(3)
O19_4 O 0.3309(7) 0.4458(3) 0.3225(5)
O20_4 O 0.2650(8) 0.5094(3) 0.3390(5)
O21_4 O 0.1738(10) 0.4843(3) 0.1618(5)
O22_4 O 0.2612(16) 0.5318(4) 0.1324(7)
O23_4 O 0.0446(7) 0.5232(3) 0.3474(4)
O24_4 O 0.0670(9) 0.5894(3) 0.3733(4)
O25_4 O 0.0460(6) 0.1808(3) 0.2567(3)
O32_4 O 0.1274(9) 0.0195(4) 0.2527(6)
O37_4 O 0.2481(11) 0.2744(3) 0.3483(6)
O38_4 O 0.2659(9) 0.2869(4) 0.2319(7)
N6_4 N 0.2643(9) 0.4721(4) 0.3168(5)
N7_4 N 0.2048(8) 0.5201(3) 0.1636(5)
N8_4 N 0.0771(8) 0.5600(3) 0.3405(4)
N10_4 N 0.0469(9) 0.0158(4) 0.2732(7)
N13_4 N 0.3612(9) 0.3218(3) 0.3816(6)
N14_4 N 0.4314(6) 0.3061(7) 0.2310(4)
C15_4 C 0.0451(9) 0.3484(4) 0.2584(5)
C16_4 C 0.0667(8) 0.3978(4) 0.2599(5)
C17_4 C 0.0011(8) 0.4275(4) 0.2339(5)
C18_4 C 0.0223(8) 0.4717(4) 0.2332(5)
C19_4 C 0.1095(9) 0.4895(4) 0.2597(5)
C20_4 C 0.1708(9) 0.4584(4) 0.2861(5)
C21_4 C 0.1524(9) 0.4135(4) 0.2857(5)
H6_4 H 0.1978 0.3940 0.3029
C22_4 C 0.1388(8) 0.5372(4) 0.2524(5)
C23_4 C 0.1842(9) 0.5514(4) 0.2077(6)
C24_4 C 0.2130(8) 0.5948(4) 0.2003(5)
H7_4 H 0.2400 0.6029 0.1684
C25_4 C 0.2019(8) 0.6253(4) 0.2394(5)
C26_4 C 0.1578(8) 0.6137(4) 0.2848(5)
H8_4 H 0.1491 0.6348 0.3115
C27_4 C 0.1259(9) 0.5705(4) 0.2911(5)
C28_4 C 0.2403(8) 0.6717(4) 0.2316(5)
C35_4 C 0.0014(9) 0.0911(4) 0.2508(6)
H10_4 H 0.0664 0.0989 0.2607
C43_4 C 0.2653(14) 0.3057(9) 0.3721(13)
H13_4 H 0.2141 0.3213 0.3858
C44_4 C 0.436(3) 0.2876(13) 0.377(4)
H14_4 H 0.4177 0.2698 0.3450
H15_4 H 0.4982 0.3013 0.3730
H16_4 H 0.4399 0.2691 0.4084
C45_4 C 0.394(2) 0.3623(7) 0.4086(14)
H17_4 H 0.3378 0.3810 0.4129
H18_4 H 0.4259 0.3554 0.4437
H19_4 H 0.4386 0.3774 0.3872
C46_4 C 0.336(3) 0.294(4) 0.2065(16)
H20_4 H 0.3270 0.2926 0.1688
C47_4 C 0.4837(18) 0.2920(8) 0.1806(10)
H21_4 H 0.4445 0.2701 0.1604
H22_4 H 0.4920 0.3174 0.1580
H23_3 H 0.5468 0.2796 0.1921
C48_4 C 0.4486(5) 0.3484(3) 0.2654(6)
H24_4 H 0.4170 0.3454 0.2985
H25_3 H 0.5179 0.3527 0.2739
H26_4 H 0.4216 0.3735 0.2453
O2_4 O 0.9611(6) 0.2612(2) 0.3037(3)
O5_4 O 0.6717(11) 0.3260(5) 0.3848(6)
O6_4 O 0.6484(11) 0.3156(5) 0.4627(6)
O7_4 O 0.9201(10) 0.1492(4) 0.5058(5)
O8_4 O 0.8441(10) 0.1864(4) 0.5577(5)
O9_4 O 0.6118(10) 0.2114(6) 0.4174(4)
O10_4 O 0.5199(10) 0.1716(5) 0.4593(5)
O11_4 O 0.8628(10) 0.3016(5) 0.5401(5)
O12_4 O 0.8528(11) 0.2959(7) 0.6207(6)
O14_4 O 0.9636(6) 0.3372(2) 0.2330(3)
O17_4 O 0.8860(7) 0.4840(3) 0.1745(4)
O18_4 O 0.9594(7) 0.5414(3) 0.2095(5)
O26_4 O 0.8994(6) 0.1986(3) 0.2164(4)
O29_4 O 0.6803(7) 0.0177(3) 0.2030(4)
O30_4 O 0.6471(7) 0.0881(3) 0.2029(4)
O36_4 O 0.8054(9) 0.0391(3) 0.3347(4)
O39_4 O 0.7488(8) 0.2361(4) 0.2743(4)
O40_4 O 0.7379(6) 0.2420(3) 0.1583(4)
N1_4 N 0.6897(8) 0.3077(4) 0.4252(5)
N2_4 N 0.8706(10) 0.1799(5) 0.5140(5)
N3_4 N 0.5820(10) 0.1993(5) 0.4589(5)
N4_4 N 0.8196(9) 0.2900(5) 0.5746(5)
N5_4 N 0.9512(7) 0.5016(3) 0.2040(4)
N9_4 N 0.7044(8) 0.0568(3) 0.2073(5)
N15_4 N 0.6401(13) 0.1794(6) 0.2984(7)
N16_4 N 0.6943(11) 0.1855(4) 0.0992(6)
C1_4 C 0.9843(9) 0.2450(4) 0.3497(5)
C2_4 C 0.9092(9) 0.2443(4) 0.3906(5)
C3_4 C 0.8305(9) 0.2739(4) 0.3877(5)
H1_4 H 0.8205 0.2935 0.3586
C4_4 C 0.7681(9) 0.2738(4) 0.4283(5)
C5_4 C 0.7765(10) 0.2443(4) 0.4722(5)
C6_4 C 0.8532(10) 0.2142(4) 0.4716(5)
C7_4 C 0.9192(9) 0.2142(4) 0.4324(5)
H2_4 H 0.9705 0.1938 0.4343
C8_4 C 0.7064(9) 0.2437(4) 0.5161(5)
C9_4 C 0.6172(10) 0.2212(4) 0.5110(5)
C10_4 C 0.5561(9) 0.2172(4) 0.5519(5)
H3_4 H 0.4977 0.2013 0.5467
C11_4 C 0.5842(9) 0.2379(4) 0.6022(5)
C12_4 C 0.6695(9) 0.2605(4) 0.6083(5)
H4_4 H 0.6887 0.2738 0.6414
C13_4 C 0.7293(9) 0.2642(4) 0.5658(5)
C14_4 C 0.5178(9) 0.2330(4) 0.6477(5)
H5_4 H 0.9421 0.4172 0.2167
C29_4 C 0.9644(9) 0.1710(4) 0.2355(5)
C30_4 C 0.9337(9) 0.1224(4) 0.2338(5)
C31_4 C 0.8385(9) 0.1109(4) 0.2182(5)
H9_4 H 0.7931 0.1323 0.2056
C32_4 C 0.8108(9) 0.0670(4) 0.2214(5)
C33_4 C 0.8759(8) 0.0336(4) 0.2388(5)
C34_4 C 0.9712(9) 0.0476(4) 0.2531(5)
C49_4 C 0.6774(18) 0.2170(7) 0.2749(8)
H27_4 H 0.6282 0.2308 0.2526
C50_4 C 0.5375(16) 0.1780(19) 0.2890(12)
H28_4 H 0.5188 0.1839 0.2514
H29_4 H 0.5144 0.1491 0.2982
H30_4 H 0.5090 0.1999 0.3111
C51_4 C 0.708(2) 0.1488(11) 0.3317(13)
H31_4 H 0.7740 0.1605 0.3337
H32_4 H 0.6875 0.1464 0.3678
H33_4 H 0.7074 0.1200 0.3151
C52_4 C 0.7576(12) 0.2190(5) 0.1211(7)
H34_4 H 0.8171 0.2235 0.1061
C53_4 C 0.717(2) 0.1598(9) 0.0512(12)
H35_4 H 0.7815 0.1676 0.0415
H36_4 H 0.7153 0.1287 0.0594
H37_4 H 0.6695 0.1663 0.0214
C54_4 C 0.6017(13) 0.1762(6) 0.1197(9)
H38_4 H 0.5504 0.1915 0.0981
H39_4 H 0.5895 0.1448 0.1181
H40_4 H 0.6029 0.1860 0.1567
O33_4 O 0.8501(12) 0.9457(4) 0.1119(5)
O34_4 O 0.9324(10) 0.9986(4) 0.1483(5)
O35_4 O 0.8252(9) 0.9822(3) 0.3860(4)
N11_4 N 0.8787(10) 0.9669(4) 0.1504(6)
N12_4 N 0.8181(8) 0.9994(4) 0.3424(5)
C36_4 C 0.8457(9) 0.9861(4) 0.2446(5)
C37_4 C 0.8462(9) 0.9553(4) 0.2036(5)
C38_4 C 0.8132(9) 0.9122(4) 0.2085(6)
H11_4 H 0.8088 0.8932 0.1787
C39_4 C 0.7867(8) 0.8977(4) 0.2584(5)
C40_4 C 0.7906(8) 0.9265(4) 0.3015(5)
H12_4 H 0.7741 0.9169 0.3353
C41_4 C 0.8192(8) 0.9700(4) 0.2944(5)
C42_4 C 0.7475(8) 0.8514(4) 0.2646(5)
O31_3 O 0.9690(9) 0.0148(5) 0.7040(10)
H23_4 H 0.9532 0.7796 0.3079
H25_4 H 0.9821 0.8527 0.2261
O31_4 O 0.0310(9) 0.9852(5) 0.2960(10)
loop_
_geom_bond_atom_site_label_1
_geom_bond_atom_site_label_2
_geom_bond_site_symmetry_1
_geom_bond_site_symmetry_2
O4 C14 1_555 1_555
O7 N2 1_555 1_555
O8 N2 1_555 1_555
O11 N4 1_555 1_555
O12 N4 1_555 1_555
N4 C13 1_555 1_555
C9 C8 1_555 1_555
C10 C9 1_555 1_555
C11 C10 1_555 1_555
C12 C11 1_555 1_555
H4 C12 1_555 1_555
C13 C8 1_555 1_555
C14 C11 1_555 1_555
Gd3 O4 1_555 1_555
C12 C13 1_555 1_555
Gd1 O1 1_555 1_555
Gd2 O2 1_555 1_555
O1 C1 1_555 1_555
O2 Gd1 1_555 1_555
O5 N1 1_555 1_555
O6 N1 1_555 1_555
O9 N3 1_555 1_555
O10 N3 1_555 1_555
O13 Gd1 1_555 1_555
O14 Gd2 1_555 1_555
O19 N6 1_555 1_555
O25 Gd1 1_555 1_555
O26 Gd2 1_555 1_555
O27 C42 1_555 1_555
O28 C42 1_555 1_555
O29 N9 1_555 1_555
O30 N9 1_555 1_555
O31 N10 1_555 1_555
O32 N10 1_555 1_555
O33 N11 1_555 1_555
O34 N11 1_555 1_555
O35 N12 1_555 1_555
O36 N12 1_555 1_555
O37 Gd1 1_555 1_555
O38 Gd1 1_555 1_555
O39 Gd2 1_555 1_555
O40 Gd2 1_555 1_555
N1 C4 1_555 1_555
N6 C20 1_555 1_555
N9 C32 1_555 1_555
N10 C34 1_555 1_555
N11 C37 1_555 1_555
N12 C41 1_555 1_555
N13 C43 1_555 1_555
N14 C46 1_555 1_555
N15 C49 1_555 1_555
N16 C52 1_555 1_555
C1 O2 1_555 1_555
C2 C1 1_555 1_555
C3 C2 1_555 1_555
H1 C3 1_555 1_555
C4 C3 1_555 1_555
C5 C4 1_555 1_555
C6 C5 1_555 1_555
C7 C2 1_555 1_555
H2 C7 1_555 1_555
C15 O13 1_555 1_555
C16 C15 1_555 1_555
C17 C16 1_555 1_555
H5 C17 1_555 1_555
C18 C17 1_555 1_555
C19 C18 1_555 1_555
C20 C19 1_555 1_555
C21 C16 1_555 1_555
H6 C21 1_555 1_555
C29 O25 1_555 1_555
C30 C29 1_555 1_555
C31 C30 1_555 1_555
H9 C31 1_555 1_555
C32 C31 1_555 1_555
C33 C32 1_555 1_555
C34 C33 1_555 1_555
C35 C30 1_555 1_555
H10 C35 1_555 1_555
C36 C33 1_555 1_555
C37 C36 1_555 1_555
C38 C37 1_555 1_555
H11 C38 1_555 1_555
C39 C38 1_555 1_555
C40 C39 1_555 1_555
H12 C40 1_555 1_555
C41 C36 1_555 1_555
C42 C39 1_555 1_555
C43 O37 1_555 1_555
H13 C43 1_555 1_555
C44 N13 1_555 1_555
H14 C44 1_555 1_555
H15 C44 1_555 1_555
H16 C44 1_555 1_555
C45 N13 1_555 1_555
H17 C45 1_555 1_555
H18 C45 1_555 1_555
H19 C45 1_555 1_555
C46 O38 1_555 1_555
H20 C46 1_555 1_555
C47 N14 1_555 1_555
H21 C47 1_555 1_555
H22 C47 1_555 1_555
C48 N14 1_555 1_555
H24 C48 1_555 1_555
H26 C48 1_555 1_555
C49 O39 1_555 1_555
H27 C49 1_555 1_555
C50 N15 1_555 1_555
H28 C50 1_555 1_555
H29 C50 1_555 1_555
H30 C50 1_555 1_555
C51 N15 1_555 1_555
H31 C51 1_555 1_555
H32 C51 1_555 1_555
H33 C51 1_555 1_555
C52 O40 1_555 1_555
H34 C52 1_555 1_555
C53 N16 1_555 1_555
H35 C53 1_555 1_555
H36 C53 1_555 1_555
H37 C53 1_555 1_555
C54 N16 1_555 1_555
H38 C54 1_555 1_555
H39 C54 1_555 1_555
H40 C54 1_555 1_555
Gd6 O27 1_555 1_555
O41 Gd2 1_555 1_555
O42 Gd1 1_555 1_555
O43 Gd1 1_555 1_555
O44 Gd1 1_555 1_555
O45 Gd2 1_555 1_555
O46 Gd2 1_555 1_555
Gd2 O42 1_555 1_555
O14 C15 1_555 1_555
O26 C29 1_555 1_555
O28 Gd6 1_555 1_555
C6 C7 1_555 1_555
C20 C21 1_555 1_555
C34 C35 1_555 1_555
C40 C41 1_555 1_555
O15 C28 1_555 1_555
O16 C28 1_555 1_555
O18 N5 1_555 1_555
O22 N7 1_555 1_555
O23 N8 1_555 1_555
O24 N8 1_555 1_555
N7 C23 1_555 1_555
N8 C27 1_555 1_555
C23 C22 1_555 1_555
C24 C23 1_555 1_555
H7 C24 1_555 1_555
C25 C24 1_555 1_555
C26 C25 1_555 1_555
H8 C26 1_555 1_555
C27 C22 1_555 1_555
C28 C25 1_555 1_555
Gd4 O15 1_555 1_555
O16 Gd4 1_555 1_555
C26 C27 1_555 1_555
Gd5 O3 1_555 1_555
O45 C42_2 1_555 1_555
O46 C42_2 1_555 1_555
O33_2 N11_2 1_555 1_555
O34_2 N11_2 1_555 1_555
O35_2 N12_2 1_555 1_555
N11_2 C37_2 1_555 1_555
N12_2 C41_2 1_555 1_555
C37_2 C36_2 1_555 1_555
C38_2 C37_2 1_555 1_555
H11_2 C38_2 1_555 1_555
C39_2 C38_2 1_555 1_555
C40_2 C39_2 1_555 1_555
H12_2 C40_2 1_555 1_555
C41_2 C36_2 1_555 1_555
C42_2 C39_2 1_555 1_555
C40_2 C41_2 1_555 1_555
Gd6 O2_2 1_555 1_555
O3_2 C14_2 1_555 1_555
O4_2 C14_2 1_555 1_555
O5_2 N1_2 1_555 1_555
O6_2 N1_2 1_555 1_555
O7_2 N2_2 1_555 1_555
O8_2 N2_2 1_555 1_555
O9_2 N3_2 1_555 1_555
O10_2 N3_2 1_555 1_555
O11_2 N4_2 1_555 1_555
O12_2 N4_2 1_555 1_555
O14_2 Gd6 1_555 1_555
O17_2 N5_2 1_555 1_555
O18_2 N5_2 1_555 1_555
O26_2 Gd6 1_555 1_555
O29_2 N9_2 1_555 1_555
O30_2 N9_2 1_555 1_555
O39_2 Gd6 1_555 1_555
O40_2 Gd6 1_555 1_555
N1_2 C4_2 1_555 1_555
N2_2 C6_2 1_555 1_555
N3_2 C9_2 1_555 1_555
N4_2 C13_2 1_555 1_555
N9_2 C32_2 1_555 1_555
N15_2 C49_2 1_555 1_555
N16_2 C52_2 1_555 1_555
C1_2 O2_2 1_555 1_555
C2_2 C1_2 1_555 1_555
C3_2 C2_2 1_555 1_555
H1_2 C3_2 1_555 1_555
C4_2 C3_2 1_555 1_555
C5_2 C4_2 1_555 1_555
C6_2 C5_2 1_555 1_555
C7_2 C2_2 1_555 1_555
H2_2 C7_2 1_555 1_555
C8_2 C5_2 1_555 1_555
C9_2 C8_2 1_555 1_555
C10_2 C9_2 1_555 1_555
H3_2 C10_2 1_555 1_555
C11_2 C10_2 1_555 1_555
C12_2 C11_2 1_555 1_555
H4_2 C12_2 1_555 1_555
C13_2 C8_2 1_555 1_555
C14_2 C11_2 1_555 1_555
C30_2 C29_2 1_555 1_555
C31_2 C30_2 1_555 1_555
H9_2 C31_2 1_555 1_555
C32_2 C31_2 1_555 1_555
C33_2 C32_2 1_555 1_555
C34_2 C33_2 1_555 1_555
C49_2 O39_2 1_555 1_555
H27_2 C49_2 1_555 1_555
C50_2 N15_2 1_555 1_555
H28_2 C50_2 1_555 1_555
H29_2 C50_2 1_555 1_555
H30_2 C50_2 1_555 1_555
C51_2 N15_2 1_555 1_555
H31_2 C51_2 1_555 1_555
H32_2 C51_2 1_555 1_555
H33_2 C51_2 1_555 1_555
C52_2 O40_2 1_555 1_555
H34_2 C52_2 1_555 1_555
C53_2 N16_2 1_555 1_555
H35_2 C53_2 1_555 1_555
H36_2 C53_2 1_555 1_555
H37_2 C53_2 1_555 1_555
C54_2 N16_2 1_555 1_555
H38_2 C54_2 1_555 1_555
H39_2 C54_2 1_555 1_555
H40_2 C54_2 1_555 1_555
Gd3_2 O4_2 1_555 1_555
Gd5_2 O3_2 1_555 1_555
O41_2 Gd6 1_555 1_555
O4_2 Gd5_2 1_555 1_555
O26_2 C29_2 1_555 1_555
C6_2 C7_2 1_555 1_555
C12_2 C13_2 1_555 1_555
Gd4 O1_2 1_555 1_555
O13_2 Gd4 1_555 1_555
O43 C28_2 1_555 1_555
O44 C28_2 1_555 1_555
O19_2 N6_2 1_555 1_555
O20_2 N6_2 1_555 1_555
O21_2 N7_2 1_555 1_555
O22_2 N7_2 1_555 1_555
O23_2 N8_2 1_555 1_555
O24_2 N8_2 1_555 1_555
O25_2 Gd4 1_555 1_555
O32_2 N10_2 1_555 1_555
O37_2 Gd4 1_555 1_555
O38_2 Gd4 1_555 1_555
N6_2 C20_2 1_555 1_555
N7_2 C23_2 1_555 1_555
N8_2 C27_2 1_555 1_555
N13_2 C43_2 1_555 1_555
N14_2 C46_2 1_555 1_555
C15_2 O13_2 1_555 1_555
C16_2 C15_2 1_555 1_555
C17_2 C16_2 1_555 1_555
C18_2 C17_2 1_555 1_555
C19_2 C18_2 1_555 1_555
C20_2 C19_2 1_555 1_555
C21_2 C16_2 1_555 1_555
H6_2 C21_2 1_555 1_555
C22_2 C19_2 1_555 1_555
C23_2 C22_2 1_555 1_555
C24_2 C23_2 1_555 1_555
H7_2 C24_2 1_555 1_555
C25_2 C24_2 1_555 1_555
C26_2 C25_2 1_555 1_555
H8_2 C26_2 1_555 1_555
C27_2 C22_2 1_555 1_555
C28_2 C25_2 1_555 1_555
H10_2 C35_2 1_555 1_555
C43_2 O37_2 1_555 1_555
H13_2 C43_2 1_555 1_555
C44_2 N13_2 1_555 1_555
H14_2 C44_2 1_555 1_555
H15_2 C44_2 1_555 1_555
H16_2 C44_2 1_555 1_555
C45_2 N13_2 1_555 1_555
H17_2 C45_2 1_555 1_555
H18_2 C45_2 1_555 1_555
H19_2 C45_2 1_555 1_555
C46_2 O38_2 1_555 1_555
H20_2 C46_2 1_555 1_555
C47_2 N14_2 1_555 1_555
H21_2 C47_2 1_555 1_555
H22_2 C47_2 1_555 1_555
H23_2 C47_2 1_555 1_555
C48_2 N14_2 1_555 1_555
H24_2 C48_2 1_555 1_555
H25_2 C48_2 1_555 1_555
H26_2 C48_2 1_555 1_555
O42_2 Gd4 1_555 1_555
C20_2 C21_2 1_555 1_555
C26_2 C27_2 1_555 1_555
O15_2 C28_3 1_555 1_555
O16_2 C28_3 1_555 1_555
O18_3 N5_3 1_555 1_555
O22_3 N7_3 1_555 1_555
O23_3 N8_3 1_555 1_555
O24_3 N8_3 1_555 1_555
N7_3 C23_3 1_555 1_555
N8_3 C27_3 1_555 1_555
C23_3 C22_3 1_555 1_555
C24_3 C23_3 1_555 1_555
H7_3 C24_3 1_555 1_555
C25_3 C24_3 1_555 1_555
C26_3 C25_3 1_555 1_555
H8_3 C26_3 1_555 1_555
C27_3 C22_3 1_555 1_555
C28_3 C25_3 1_555 1_555
Gd3 O15_2 1_555 1_555
O16_2 Gd3 1_555 1_555
C26_3 C27_3 1_555 1_555
Gd3_2 O1_3 1_555 1_555
Gd5_2 O2_3 1_555 1_555
O1_3 C1_3 1_555 1_555
O2_3 Gd3_2 1_555 1_555
O5_3 N1_3 1_555 1_555
O6_3 N1_3 1_555 1_555
O9_3 N3_3 1_555 1_555
O10_3 N3_3 1_555 1_555
O13_3 Gd3_2 1_555 1_555
O14_3 Gd5_2 1_555 1_555
O19_3 N6_3 1_555 1_555
O25_3 Gd3_2 1_555 1_555
O26_3 Gd5_2 1_555 1_555
O27_2 C42_3 1_555 1_555
O28_2 C42_3 1_555 1_555
O29_3 N9_3 1_555 1_555
O30_3 N9_3 1_555 1_555
O31_2 N10_3 1_555 1_555
O32_3 N10_3 1_555 1_555
O33_3 N11_3 1_555 1_555
O34_3 N11_3 1_555 1_555
O35_3 N12_3 1_555 1_555
O36_3 N12_3 1_555 1_555
O37_3 Gd3_2 1_555 1_555
O38_3 Gd3_2 1_555 1_555
O39_3 Gd5_2 1_555 1_555
O40_3 Gd5_2 1_555 1_555
N1_3 C4_3 1_555 1_555
N6_3 C20_3 1_555 1_555
N9_3 C32_3 1_555 1_555
N10_3 C34_3 1_555 1_555
N11_3 C37_3 1_555 1_555
N12_3 C41_3 1_555 1_555
N13_3 C43_3 1_555 1_555
N14_3 C46_3 1_555 1_555
N15_3 C49_3 1_555 1_555
N16_3 C52_3 1_555 1_555
C1_3 O2_3 1_555 1_555
C2_3 C1_3 1_555 1_555
C3_3 C2_3 1_555 1_555
H1_3 C3_3 1_555 1_555
C4_3 C3_3 1_555 1_555
C5_3 C4_3 1_555 1_555
C6_3 C5_3 1_555 1_555
C7_3 C2_3 1_555 1_555
H2_3 C7_3 1_555 1_555
C15_3 O13_3 1_555 1_555
C16_3 C15_3 1_555 1_555
C17_3 C16_3 1_555 1_555
H5_3 C17_3 1_555 1_555
C18_3 C17_3 1_555 1_555
C19_3 C18_3 1_555 1_555
C20_3 C19_3 1_555 1_555
C21_3 C16_3 1_555 1_555
H6_3 C21_3 1_555 1_555
C29_3 O25_3 1_555 1_555
C30_3 C29_3 1_555 1_555
C31_3 C30_3 1_555 1_555
H9_3 C31_3 1_555 1_555
C32_3 C31_3 1_555 1_555
C33_3 C32_3 1_555 1_555
C34_3 C33_3 1_555 1_555
C35_3 C30_3 1_555 1_555
H10_3 C35_3 1_555 1_555
C36_3 C33_3 1_555 1_555
C37_3 C36_3 1_555 1_555
C38_3 C37_3 1_555 1_555
H11_3 C38_3 1_555 1_555
C39_3 C38_3 1_555 1_555
C40_3 C39_3 1_555 1_555
H12_3 C40_3 1_555 1_555
C41_3 C36_3 1_555 1_555
C42_3 C39_3 1_555 1_555
C43_3 O37_3 1_555 1_555
H13_3 C43_3 1_555 1_555
C44_3 N13_3 1_555 1_555
H14_3 C44_3 1_555 1_555
H15_3 C44_3 1_555 1_555
H16_3 C44_3 1_555 1_555
C45_3 N13_3 1_555 1_555
H17_3 C45_3 1_555 1_555
H18_3 C45_3 1_555 1_555
H19_3 C45_3 1_555 1_555
C46_3 O38_3 1_555 1_555
H20_3 C46_3 1_555 1_555
C47_3 N14_3 1_555 1_555
H21_3 C47_3 1_555 1_555
H22_3 C47_3 1_555 1_555
C48_3 N14_3 1_555 1_555
H24_3 C48_3 1_555 1_555
H26_3 C48_3 1_555 1_555
C49_3 O39_3 1_555 1_555
H27_3 C49_3 1_555 1_555
C50_3 N15_3 1_555 1_555
H28_3 C50_3 1_555 1_555
H29_3 C50_3 1_555 1_555
H30_3 C50_3 1_555 1_555
C51_3 N15_3 1_555 1_555
H31_3 C51_3 1_555 1_555
H32_3 C51_3 1_555 1_555
H33_3 C51_3 1_555 1_555
C52_3 O40_3 1_555 1_555
H34_3 C52_3 1_555 1_555
C53_3 N16_3 1_555 1_555
H35_3 C53_3 1_555 1_555
H36_3 C53_3 1_555 1_555
H37_3 C53_3 1_555 1_555
C54_3 N16_3 1_555 1_555
H38_3 C54_3 1_555 1_555
H39_3 C54_3 1_555 1_555
H40_3 C54_3 1_555 1_555
Gd5 O27_2 1_555 1_555
O43_2 Gd3_2 1_555 1_555
O44_2 Gd3_2 1_555 1_555
O45_2 Gd5_2 1_555 1_555
O46_2 Gd5_2 1_555 1_555
O14_3 C15_3 1_555 1_555
O26_3 C29_3 1_555 1_555
O28_2 Gd5 1_555 1_555
C6_3 C7_3 1_555 1_555
C20_3 C21_3 1_555 1_555
C34_3 C35_3 1_555 1_555
C40_3 C41_3 1_555 1_555
O42_2 C14_3 1_555 1_555
O7_3 N2_3 1_555 1_555
O8_3 N2_3 1_555 1_555
O11_3 N4_3 1_555 1_555
O12_3 N4_3 1_555 1_555
N4_3 C13_3 1_555 1_555
C9_3 C8_3 1_555 1_555
C10_3 C9_3 1_555 1_555
C11_3 C10_3 1_555 1_555
C12_3 C11_3 1_555 1_555
H4_3 C12_3 1_555 1_555
C13_3 C8_3 1_555 1_555
C14_3 C11_3 1_555 1_555
C12_3 C13_3 1_555 1_555
Gd3 O1_4 1_555 1_555
O13_4 Gd3 1_555 1_555
O43_2 C28_4 1_555 1_555
O44_2 C28_4 1_555 1_555
O19_4 N6_4 1_555 1_555
O20_4 N6_4 1_555 1_555
O21_4 N7_4 1_555 1_555
O22_4 N7_4 1_555 1_555
O23_4 N8_4 1_555 1_555
O24_4 N8_4 1_555 1_555
O25_4 Gd3 1_555 1_555
O32_4 N10_4 1_555 1_555
O37_4 Gd3 1_555 1_555
O38_4 Gd3 1_555 1_555
N6_4 C20_4 1_555 1_555
N7_4 C23_4 1_555 1_555
N8_4 C27_4 1_555 1_555
N13_4 C43_4 1_555 1_555
N14_4 C46_4 1_555 1_555
C15_4 O13_4 1_555 1_555
C16_4 C15_4 1_555 1_555
C17_4 C16_4 1_555 1_555
C18_4 C17_4 1_555 1_555
C19_4 C18_4 1_555 1_555
C20_4 C19_4 1_555 1_555
C21_4 C16_4 1_555 1_555
H6_4 C21_4 1_555 1_555
C22_4 C19_4 1_555 1_555
C23_4 C22_4 1_555 1_555
C24_4 C23_4 1_555 1_555
H7_4 C24_4 1_555 1_555
C25_4 C24_4 1_555 1_555
C26_4 C25_4 1_555 1_555
H8_4 C26_4 1_555 1_555
C27_4 C22_4 1_555 1_555
C28_4 C25_4 1_555 1_555
H10_4 C35_4 1_555 1_555
C43_4 O37_4 1_555 1_555
H13_4 C43_4 1_555 1_555
C44_4 N13_4 1_555 1_555
H14_4 C44_4 1_555 1_555
H15_4 C44_4 1_555 1_555
H16_4 C44_4 1_555 1_555
C45_4 N13_4 1_555 1_555
H17_4 C45_4 1_555 1_555
H18_4 C45_4 1_555 1_555
H19_4 C45_4 1_555 1_555
C46_4 O38_4 1_555 1_555
H20_4 C46_4 1_555 1_555
C47_4 N14_4 1_555 1_555
H21_4 C47_4 1_555 1_555
H22_4 C47_4 1_555 1_555
H23_3 C47_4 1_555 1_555
C48_4 N14_4 1_555 1_555
H24_4 C48_4 1_555 1_555
H25_3 C48_4 1_555 1_555
H26_4 C48_4 1_555 1_555
C20_4 C21_4 1_555 1_555
C26_4 C27_4 1_555 1_555
Gd5 O2_4 1_555 1_555
O41 C14_4 1_555 1_555
O42 C14_4 1_555 1_555
O5_4 N1_4 1_555 1_555
O6_4 N1_4 1_555 1_555
O7_4 N2_4 1_555 1_555
O8_4 N2_4 1_555 1_555
O9_4 N3_4 1_555 1_555
O10_4 N3_4 1_555 1_555
O11_4 N4_4 1_555 1_555
O12_4 N4_4 1_555 1_555
O14_4 Gd5 1_555 1_555
O17_4 N5_4 1_555 1_555
O18_4 N5_4 1_555 1_555
O26_4 Gd5 1_555 1_555
O29_4 N9_4 1_555 1_555
O30_4 N9_4 1_555 1_555
O39_4 Gd5 1_555 1_555
O40_4 Gd5 1_555 1_555
N1_4 C4_4 1_555 1_555
N2_4 C6_4 1_555 1_555
N3_4 C9_4 1_555 1_555
N4_4 C13_4 1_555 1_555
N9_4 C32_4 1_555 1_555
N15_4 C49_4 1_555 1_555
N16_4 C52_4 1_555 1_555
C1_4 O2_4 1_555 1_555
C2_4 C1_4 1_555 1_555
C3_4 C2_4 1_555 1_555
H1_4 C3_4 1_555 1_555
C4_4 C3_4 1_555 1_555
C5_4 C4_4 1_555 1_555
C6_4 C5_4 1_555 1_555
C7_4 C2_4 1_555 1_555
H2_4 C7_4 1_555 1_555
C8_4 C5_4 1_555 1_555
C9_4 C8_4 1_555 1_555
C10_4 C9_4 1_555 1_555
H3_4 C10_4 1_555 1_555
C11_4 C10_4 1_555 1_555
C12_4 C11_4 1_555 1_555
H4_4 C12_4 1_555 1_555
C13_4 C8_4 1_555 1_555
C14_4 C11_4 1_555 1_555
C30_4 C29_4 1_555 1_555
C31_4 C30_4 1_555 1_555
H9_4 C31_4 1_555 1_555
C32_4 C31_4 1_555 1_555
C33_4 C32_4 1_555 1_555
C34_4 C33_4 1_555 1_555
C49_4 O39_4 1_555 1_555
H27_4 C49_4 1_555 1_555
C50_4 N15_4 1_555 1_555
H28_4 C50_4 1_555 1_555
H29_4 C50_4 1_555 1_555
H30_4 C50_4 1_555 1_555
C51_4 N15_4 1_555 1_555
H31_4 C51_4 1_555 1_555
H32_4 C51_4 1_555 1_555
H33_4 C51_4 1_555 1_555
C52_4 O40_4 1_555 1_555
H34_4 C52_4 1_555 1_555
C53_4 N16_4 1_555 1_555
H35_4 C53_4 1_555 1_555
H36_4 C53_4 1_555 1_555
H37_4 C53_4 1_555 1_555
C54_4 N16_4 1_555 1_555
H38_4 C54_4 1_555 1_555
H39_4 C54_4 1_555 1_555
H40_4 C54_4 1_555 1_555
O26_4 C29_4 1_555 1_555
C6_4 C7_4 1_555 1_555
C12_4 C13_4 1_555 1_555
O45_2 C42_4 1_555 1_555
O46_2 C42_4 1_555 1_555
O33_4 N11_4 1_555 1_555
O34_4 N11_4 1_555 1_555
O35_4 N12_4 1_555 1_555
N11_4 C37_4 1_555 1_555
N12_4 C41_4 1_555 1_555
C37_4 C36_4 1_555 1_555
C38_4 C37_4 1_555 1_555
H11_4 C38_4 1_555 1_555
C39_4 C38_4 1_555 1_555
C40_4 C39_4 1_555 1_555
H12_4 C40_4 1_555 1_555
C41_4 C36_4 1_555 1_555
C42_4 C39_4 1_555 1_555
C40_4 C41_4 1_555 1_555

#END
