
###############################################################################
#
# This file contains modified crystal structure data generated from the
# MOF subset of the Cambridge Structural Database (CSD) v543 
# hosted by the Cambridge Crystallographic Data Centre (CCDC).
#
# This work is licensed under the Creative Commons
# Attribution-NonCommercial-ShareAlike 4.0 International License.
# To view a copy of this license, visit
# http://creativecommons.org/licenses/by-nc-sa/4.0/
# or send a letter to
# Creative Commons, PO Box 1866, Mountain View, CA 94042, USA.
#
# CIF created using the CSD Python API on 29 September 2022
# The structure has been converted into the P1 space group
# The structure has a 3D framework
# The original CSD entry XEGKIF is in the triclinic crystal system
# The framework has been calculated to contain at least 10.0% void space
# The void calculation uses a probe of radius 1.32A, grid spacing 0.4
#
###############################################################################

data_XEGKIF
_chemical_formula_moiety         '(C120 H72 Gd4 N32 O78)n'
_symmetry_cell_setting           triclinic
_symmetry_space_group_name_H-M   'P 1'
_symmetry_Int_Tables_number      1
_space_group_name_Hall           'P 1'
loop_
_symmetry_equiv_pos_site_id
_symmetry_equiv_pos_as_xyz
1 x,y,z
_cell_length_a                   14.392(3)
_cell_length_b                   16.669(5)
_cell_length_c                   19.637(6)
_cell_angle_alpha                105.471(4)
_cell_angle_beta                 96.286(5)
_cell_angle_gamma                95.100(3)
_cell_volume                     4478.5
loop_
_atom_site_label
_atom_site_type_symbol
_atom_site_fract_x
_atom_site_fract_y
_atom_site_fract_z
Gd1 Gd 0.12672(17) 0.04672(15) 0.05745(12)
O28 O 0.233(3) 0.023(2) 0.1498(19)
O38 O 0.185(6) 0.488(4) 0.189(4)
N14 N 0.197(3) 0.197(3) 0.137(2)
H13 H 0.3700 0.1000 0.0356
C46 C 0.260(5) 0.208(4) 0.194(4)
H20 H 0.2820 0.1604 0.2029
C47 C 0.296(5) 0.284(4) 0.241(3)
H21 H 0.3395 0.2877 0.2806
C48 C 0.267(5) 0.355(4) 0.229(4)
H22 H 0.2918 0.4077 0.2576
C49 C 0.199(6) 0.344(4) 0.171(4)
C50 C 0.166(6) 0.264(4) 0.127(4)
H23 H 0.1201 0.2580 0.0884
C51 C 0.155(8) 0.415(5) 0.155(5)
H24 H 0.1037 0.4048 0.1197
O43 O 0.034(2) 0.091(2) 0.1580(18)
O37 O 0.247(3) 0.085(3) 0.995(2)
N13 N 0.366(4) 0.111(5) 0.939(4)
C43 C 0.329(5) 0.098(6) 0.995(4)
C44 C 0.467(8) 0.118(13) 0.939(6)
H14 H 0.4872 0.1663 0.9238
H15 H 0.4841 0.0687 0.9079
H16 H 0.4980 0.1253 0.9870
C45 C 0.310(5) 0.106(5) 0.873(4)
H17 H 0.2462 0.0840 0.8734
H18 H 0.3349 0.0703 0.8339
H19 H 0.3105 0.1613 0.8661
O41 O 0.068(3) 0.141(2) 0.9974(18)
O1 O 0.061(3) 0.922(2) 0.0804(19)
O5 O 0.137(3) 0.840(3) 0.293(2)
O6 O 0.025(3) 0.800(4) 0.344(3)
O25 O 0.398(2) 0.503(2) 0.3899(17)
O26 O 0.549(2) 0.560(2) 0.406(2)
O27 O 0.241(3) 0.938(2) 0.0438(19)
O29 O 0.163(3) 0.646(3) 0.292(2)
O30 O 0.188(3) 0.680(3) 0.196(2)
O31 O 0.539(4) 0.796(6) 0.217(6)
O32 O 0.627(5) 0.727(8) 0.247(7)
O33 O 0.351(4) 0.824(3) 0.360(2)
O34 O 0.345(5) 0.951(4) 0.359(3)
O35 O 0.364(6) 0.618(4) 0.110(3)
O36 O 0.380(6) 0.679(4) 0.030(3)
O40 O 0.010(7) 0.403(8) 0.502(5)
N1 N 0.057(3) 0.810(3) 0.291(3)
N9 N 0.215(3) 0.661(3) 0.250(3)
N10 N 0.552(4) 0.751(5) 0.247(4)
N11 N 0.348(4) 0.877(4) 0.329(3)
N12 N 0.364(4) 0.679(4) 0.089(3)
C3 C 0.020(4) 0.833(3) 0.174(3)
H1 H 0.0757 0.8692 0.1845
C29 C 0.463(4) 0.548(3) 0.378(3)
C30 C 0.436(4) 0.599(3) 0.328(3)
C31 C 0.341(4) 0.603(3) 0.307(3)
H9 H 0.2948 0.5706 0.3213
C32 C 0.316(4) 0.655(3) 0.266(3)
C33 C 0.382(4) 0.708(4) 0.246(3)
C34 C 0.475(4) 0.701(4) 0.268(4)
C35 C 0.503(4) 0.649(4) 0.308(3)
H10 H 0.5667 0.6474 0.3209
C36 C 0.354(4) 0.773(4) 0.210(3)
C37 C 0.336(4) 0.852(4) 0.249(3)
C38 C 0.308(4) 0.911(4) 0.217(3)
H11 H 0.2985 0.9636 0.2454
C39 C 0.295(4) 0.895(3) 0.145(3)
C40 C 0.314(4) 0.817(4) 0.104(3)
H12 H 0.3063 0.8050 0.0543
C41 C 0.342(4) 0.760(4) 0.137(3)
C42 C 0.255(4) 0.956(4) 0.110(3)
H30 H 0.0181 0.7465 0.6747
H36 H 0.0116 0.3023 0.5099
Gd6 Gd 0.36170(16) 0.45887(15) 0.49040(13)
Gd7 Gd 0.63830(16) 0.54113(15) 0.50960(13)
O13 O 0.058(2) 0.960(2) 0.9450(18)
O15 O 0.472(2) 0.581(2) 0.5406(18)
O16 O 0.599(2) 0.668(2) 0.5899(18)
O17 O 0.343(4) 0.806(4) 0.925(3)
O18 O 0.440(4) 0.854(4) 0.865(3)
O19 O 0.117(4) 0.857(5) 0.623(3)
O20 O 0.265(4) 0.882(5) 0.631(3)
O21 O 0.206(5) 0.694(5) 0.764(4)
O22 O 0.175(4) 0.639(6) 0.654(4)
O23 O 0.423(4) 0.971(3) 0.764(4)
O24 O 0.548(7) 0.939(6) 0.752(10)
N5 N 0.362(4) 0.841(4) 0.879(3)
N6 N 0.194(5) 0.872(5) 0.657(3)
N7 N 0.226(4) 0.677(4) 0.702(3)
N8 N 0.467(5) 0.921(4) 0.743(5)
C15 C 0.045(4) 0.928(3) 0.877(3)
C16 C 0.131(4) 0.909(4) 0.841(3)
C17 C 0.209(4) 0.891(4) 0.877(3)
H5 H 0.2136 0.8972 0.9261
C18 C 0.283(4) 0.862(4) 0.838(3)
C19 C 0.281(4) 0.851(4) 0.769(3)
C20 C 0.202(4) 0.880(4) 0.734(3)
C21 C 0.127(4) 0.904(4) 0.768(3)
H6 H 0.0744 0.9178 0.7438
C22 C 0.345(4) 0.801(4) 0.724(3)
C23 C 0.319(4) 0.719(4) 0.693(3)
C24 C 0.371(4) 0.665(4) 0.648(3)
H7 H 0.3493 0.6084 0.6284
C25 C 0.455(4) 0.700(4) 0.636(3)
C26 C 0.487(4) 0.781(4) 0.668(3)
H8 H 0.5460 0.8031 0.6619
C27 C 0.432(4) 0.831(4) 0.711(4)
C28 C 0.513(4) 0.646(3) 0.587(3)
O42 O 0.942(2) 0.040(2) 0.0550(18)
O2 O 0.932(3) 0.859(2) 0.0026(18)
O3 O 0.718(3) 0.658(2) 0.475(2)
O4 O 0.743(2) 0.530(3) 0.4206(19)
O7 O 0.704(4) 0.684(4) 0.086(3)
O8 O 0.759(4) 0.607(4) 0.146(3)
O9 O 0.809(4) 0.861(3) 0.266(3)
O10 O 0.810(4) 0.887(3) 0.379(3)
O11 O 0.969(4) 0.591(3) 0.177(3)
O12 O 0.943(5) 0.500(4) 0.230(3)
O39 O 0.778(2) 0.584(2) 0.5901(19)
N2 N 0.768(3) 0.669(3) 0.125(3)
N3 N 0.813(4) 0.839(3) 0.321(3)
N4 N 0.936(3) 0.568(3) 0.224(3)
N15 N 0.904(4) 0.662(3) 0.660(3)
N16 N 0.730(3) 0.413(3) 0.512(2)
C1 C 0.988(4) 0.870(3) 0.060(3)
C2 C 0.963(4) 0.820(3) 0.110(3)
C4 C 0.994(4) 0.792(4) 0.223(3)
C5 C 0.910(4) 0.738(3) 0.211(3)
C6 C 0.855(4) 0.727(3) 0.145(3)
C7 C 0.881(4) 0.765(4) 0.095(3)
H2 H 0.8435 0.7542 0.0507
C8 C 0.874(4) 0.703(4) 0.268(3)
C9 C 0.825(4) 0.752(4) 0.319(3)
C10 C 0.787(4) 0.721(4) 0.370(3)
H3 H 0.7548 0.7554 0.4028
C11 C 0.796(4) 0.641(4) 0.372(3)
C12 C 0.845(4) 0.591(4) 0.323(3)
H4 H 0.8520 0.5364 0.3252
C13 C 0.883(4) 0.622(4) 0.272(3)
C14 C 0.751(4) 0.607(4) 0.426(3)
C52 C 0.827(4) 0.654(4) 0.618(3)
H25 H 0.8066 0.7012 0.6084
C53 C 0.941(5) 0.592(5) 0.679(4)
H26 H 0.9873 0.5714 0.6494
H27 H 0.9696 0.6097 0.7282
H28 H 0.8904 0.5478 0.6732
C54 C 0.959(6) 0.745(5) 0.693(6)
H29 H 0.9696 0.7542 0.7434
H31 H 0.9243 0.7873 0.6815
C55 C 0.693(5) 0.338(4) 0.523(3)
H32 H 0.6281 0.3306 0.5239
C56 C 0.744(5) 0.274(4) 0.531(3)
H33 H 0.7149 0.2257 0.5387
C57 C 0.838(5) 0.284(5) 0.529(3)
H34 H 0.8750 0.2432 0.5379
C58 C 0.877(5) 0.351(5) 0.515(5)
C59 C 0.821(4) 0.417(4) 0.507(3)
H35 H 0.8511 0.4650 0.4987
C60 C 0.980(9) 0.348(8) 0.509(6)
O44 O 0.528(2) 0.419(2) 0.4594(18)
O47 O 0.602(2) 0.497(2) 0.6101(17)
O3_2 O 0.282(3) 0.342(2) 0.525(2)
O4_2 O 0.257(2) 0.470(3) 0.5794(19)
O7_2 O 0.296(4) 0.316(4) 0.914(3)
O8_2 O 0.241(4) 0.393(4) 0.854(3)
O9_2 O 0.191(4) 0.139(3) 0.734(3)
O10_2 O 0.190(4) 0.113(3) 0.621(3)
O11_2 O 0.031(4) 0.409(3) 0.823(3)
O12_2 O 0.057(5) 0.500(4) 0.770(3)
O39_2 O 0.222(2) 0.416(2) 0.4099(19)
N2_2 N 0.232(3) 0.331(3) 0.875(3)
N3_2 N 0.187(4) 0.161(3) 0.679(3)
N4_2 N 0.064(3) 0.432(3) 0.776(3)
N15_2 N 0.096(4) 0.338(3) 0.340(3)
N16_2 N 0.270(3) 0.587(3) 0.488(2)
C1_2 C 0.012(4) 0.130(3) 0.940(3)
C2_2 C 0.037(4) 0.180(3) 0.890(3)
C4_2 C 0.006(4) 0.208(4) 0.777(3)
C5_2 C 0.090(4) 0.262(3) 0.789(3)
C6_2 C 0.145(4) 0.273(3) 0.855(3)
C7_2 C 0.119(4) 0.235(4) 0.905(3)
H2_2 H 0.1565 0.2458 0.9493
C8_2 C 0.126(4) 0.297(4) 0.732(3)
C9_2 C 0.175(4) 0.248(4) 0.681(3)
C10_2 C 0.213(4) 0.279(4) 0.630(3)
H3_2 H 0.2452 0.2446 0.5972
C11_2 C 0.204(4) 0.359(4) 0.628(3)
C12_2 C 0.155(4) 0.409(4) 0.677(3)
H4_2 H 0.1480 0.4636 0.6748
C13_2 C 0.117(4) 0.378(4) 0.728(3)
C14_2 C 0.249(4) 0.393(4) 0.574(3)
C52_2 C 0.173(4) 0.346(4) 0.382(3)
H25_2 H 0.1934 0.2988 0.3916
C53_2 C 0.059(5) 0.408(5) 0.321(4)
H26_2 H 0.0127 0.4286 0.3506
H27_2 H 0.0304 0.3903 0.2718
H28_2 H 0.1096 0.4522 0.3268
C54_2 C 0.041(6) 0.255(5) 0.307(6)
H29_2 H 0.0304 0.2458 0.2566
H31_2 H 0.0757 0.2127 0.3185
C55_2 C 0.307(5) 0.662(4) 0.477(3)
H32_2 H 0.3719 0.6694 0.4761
C56_2 C 0.256(5) 0.726(4) 0.469(3)
H33_2 H 0.2851 0.7743 0.4613
C57_2 C 0.162(5) 0.716(5) 0.471(3)
H34_2 H 0.1250 0.7568 0.4621
C58_2 C 0.123(5) 0.649(5) 0.485(5)
C59_2 C 0.179(4) 0.583(4) 0.493(3)
H35_2 H 0.1489 0.5350 0.5013
C60_2 C 0.020(9) 0.652(8) 0.491(6)
O46 O 0.401(2) 0.332(2) 0.4101(18)
O48 O 0.451(2) 0.440(2) 0.594(2)
O17_2 O 0.657(4) 0.194(4) 0.075(3)
O18_2 O 0.560(4) 0.146(4) 0.135(3)
O19_2 O 0.883(4) 0.143(5) 0.377(3)
O20_2 O 0.735(4) 0.118(5) 0.369(3)
O21_2 O 0.794(5) 0.306(5) 0.236(4)
O22_2 O 0.825(4) 0.361(6) 0.346(4)
O23_2 O 0.577(4) 0.029(3) 0.236(4)
O24_2 O 0.452(7) 0.061(6) 0.248(10)
N5_2 N 0.638(4) 0.159(4) 0.121(3)
N6_2 N 0.806(5) 0.128(5) 0.343(3)
N7_2 N 0.774(4) 0.323(4) 0.298(3)
N8_2 N 0.533(5) 0.079(4) 0.257(5)
C15_2 C 0.955(4) 0.072(3) 0.123(3)
C16_2 C 0.869(4) 0.091(4) 0.159(3)
C17_2 C 0.791(4) 0.109(4) 0.123(3)
H5_2 H 0.7864 0.1028 0.0739
C18_2 C 0.717(4) 0.138(4) 0.162(3)
C19_2 C 0.719(4) 0.149(4) 0.231(3)
C20_2 C 0.798(4) 0.120(4) 0.266(3)
C21_2 C 0.873(4) 0.096(4) 0.232(3)
H6_2 H 0.9256 0.0822 0.2562
C22_2 C 0.655(4) 0.199(4) 0.276(3)
C23_2 C 0.681(4) 0.281(4) 0.307(3)
C24_2 C 0.629(4) 0.335(4) 0.352(3)
H7_2 H 0.6507 0.3916 0.3716
C25_2 C 0.545(4) 0.300(4) 0.364(3)
C26_2 C 0.513(4) 0.219(4) 0.332(3)
H8_2 H 0.4540 0.1969 0.3381
C27_2 C 0.568(4) 0.169(4) 0.289(4)
C28_2 C 0.487(4) 0.354(3) 0.413(3)
O1_2 O 0.939(3) 0.078(2) 0.9196(19)
O5_2 O 0.863(3) 0.160(3) 0.707(2)
O6_2 O 0.975(3) 0.200(4) 0.656(3)
O27_2 O 0.759(3) 0.062(2) 0.9562(19)
O29_2 O 0.837(3) 0.354(3) 0.708(2)
O30_2 O 0.812(3) 0.320(3) 0.804(2)
O31_2 O 0.461(4) 0.204(6) 0.783(6)
O32_2 O 0.373(5) 0.273(8) 0.753(7)
O33_2 O 0.649(4) 0.176(3) 0.640(2)
O34_2 O 0.655(5) 0.049(4) 0.641(3)
O35_2 O 0.636(6) 0.382(4) 0.890(3)
O36_2 O 0.620(6) 0.321(4) 0.970(3)
O40_2 O 0.990(7) 0.597(8) 0.498(5)
N1_2 N 0.943(3) 0.190(3) 0.709(3)
N9_2 N 0.785(3) 0.339(3) 0.750(3)
N10_2 N 0.448(4) 0.249(5) 0.753(4)
N11_2 N 0.652(4) 0.123(4) 0.671(3)
N12_2 N 0.636(4) 0.321(4) 0.911(3)
C3_2 C 0.980(4) 0.167(3) 0.826(3)
H1_2 H 0.9243 0.1308 0.8155
C29_2 C 0.537(4) 0.452(3) 0.622(3)
C30_2 C 0.564(4) 0.401(3) 0.672(3)
C31_2 C 0.659(4) 0.397(3) 0.693(3)
H9_2 H 0.7052 0.4294 0.6787
C32_2 C 0.684(4) 0.345(3) 0.734(3)
C33_2 C 0.618(4) 0.292(4) 0.754(3)
C34_2 C 0.525(4) 0.299(4) 0.732(4)
C35_2 C 0.497(4) 0.351(4) 0.692(3)
H10_2 H 0.4333 0.3526 0.6791
C36_2 C 0.646(4) 0.227(4) 0.790(3)
C37_2 C 0.664(4) 0.148(4) 0.751(3)
C38_2 C 0.692(4) 0.089(4) 0.783(3)
H11_2 H 0.7015 0.0364 0.7546
C39_2 C 0.705(4) 0.105(3) 0.855(3)
C40_2 C 0.686(4) 0.183(4) 0.896(3)
H12_2 H 0.6937 0.1950 0.9457
C41_2 C 0.658(4) 0.240(4) 0.863(3)
C42_2 C 0.745(4) 0.044(4) 0.890(3)
H30_2 H 0.9819 0.2535 0.3253
H36_2 H 0.9884 0.6977 0.4901
O37_2 O 0.753(3) 0.915(3) 0.005(2)
N13_2 N 0.634(4) 0.889(5) 0.061(4)
C43_2 C 0.671(5) 0.902(6) 0.005(4)
C44_2 C 0.533(8) 0.882(13) 0.061(6)
H14_2 H 0.5128 0.8337 0.0762
H15_2 H 0.5159 0.9313 0.0921
H16_2 H 0.5020 0.8747 0.0130
C45_2 C 0.690(5) 0.894(5) 0.127(4)
H17_2 H 0.7538 0.9160 0.1266
H18_2 H 0.6651 0.9297 0.1661
H19_2 H 0.6895 0.8387 0.1339
O14 O 0.966(2) 0.909(2) 0.8420(18)
Gd3 Gd 0.87328(17) 0.95328(15) 0.94255(12)
O28_2 O 0.767(3) 0.977(2) 0.8502(19)
O38_2 O 0.815(6) 0.512(4) 0.811(4)
N14_2 N 0.803(3) 0.803(3) 0.863(2)
H13_2 H 0.6300 0.9000 0.9644
C46_2 C 0.740(5) 0.792(4) 0.806(4)
H20_2 H 0.7180 0.8396 0.7971
C47_2 C 0.704(5) 0.716(4) 0.759(3)
H21_2 H 0.6605 0.7123 0.7194
C48_2 C 0.733(5) 0.645(4) 0.771(4)
H22_2 H 0.7082 0.5923 0.7424
C49_2 C 0.801(6) 0.656(4) 0.829(4)
C50_2 C 0.834(6) 0.736(4) 0.873(4)
H23_2 H 0.8799 0.7420 0.9116
C51_2 C 0.845(8) 0.585(5) 0.845(5)
H24_2 H 0.8963 0.5952 0.8803
loop_
_geom_bond_atom_site_label_1
_geom_bond_atom_site_label_2
_geom_bond_site_symmetry_1
_geom_bond_site_symmetry_2
O28 Gd1 1_555 1_555
O38 C51 1_555 1_555
N14 Gd1 1_555 1_555
C46 N14 1_555 1_555
H20 C46 1_555 1_555
C47 C46 1_555 1_555
H21 C47 1_555 1_555
C48 C47 1_555 1_555
H22 C48 1_555 1_555
C49 C48 1_555 1_555
C50 N14 1_555 1_555
H23 C50 1_555 1_555
C51 C49 1_555 1_555
H24 C51 1_555 1_555
O43 Gd1 1_555 1_555
C49 C50 1_555 1_555
N13 C43 1_555 1_555
C43 O37 1_555 1_555
C44 N13 1_555 1_555
H14 C44 1_555 1_555
H15 C44 1_555 1_555
H16 C44 1_555 1_555
C45 N13 1_555 1_555
H17 C45 1_555 1_555
H18 C45 1_555 1_555
H19 C45 1_555 1_555
O5 N1 1_555 1_555
O6 N1 1_555 1_555
O25 C29 1_555 1_555
O26 C29 1_555 1_555
O29 N9 1_555 1_555
O30 N9 1_555 1_555
O31 N10 1_555 1_555
O32 N10 1_555 1_555
O33 N11 1_555 1_555
O34 N11 1_555 1_555
O35 N12 1_555 1_555
O36 N12 1_555 1_555
N9 C32 1_555 1_555
N10 C34 1_555 1_555
N11 C37 1_555 1_555
N12 C41 1_555 1_555
C3 H1 1_555 1_555
C29 C30 1_555 1_555
C30 C31 1_555 1_555
C31 H9 1_555 1_555
C32 C31 1_555 1_555
C33 C32 1_555 1_555
C34 C33 1_555 1_555
C35 C30 1_555 1_555
H10 C35 1_555 1_555
C36 C33 1_555 1_555
C37 C36 1_555 1_555
C38 C37 1_555 1_555
H11 C38 1_555 1_555
C39 C38 1_555 1_555
C40 C39 1_555 1_555
H12 C40 1_555 1_555
C41 C36 1_555 1_555
C42 O27 1_555 1_555
Gd6 O25 1_555 1_555
Gd7 O26 1_555 1_555
C34 C35 1_555 1_555
C39 C42 1_555 1_555
C40 C41 1_555 1_555
O15 C28 1_555 1_555
O16 C28 1_555 1_555
O17 N5 1_555 1_555
O18 N5 1_555 1_555
O19 N6 1_555 1_555
O20 N6 1_555 1_555
O21 N7 1_555 1_555
O22 N7 1_555 1_555
O23 N8 1_555 1_555
O24 N8 1_555 1_555
N5 C18 1_555 1_555
N6 C20 1_555 1_555
N7 C23 1_555 1_555
N8 C27 1_555 1_555
C15 O13 1_555 1_555
C16 C15 1_555 1_555
C17 C16 1_555 1_555
H5 C17 1_555 1_555
C18 C17 1_555 1_555
C19 C18 1_555 1_555
C20 C19 1_555 1_555
C21 C16 1_555 1_555
H6 C21 1_555 1_555
C22 C19 1_555 1_555
C23 C22 1_555 1_555
C24 C23 1_555 1_555
H7 C24 1_555 1_555
C25 C24 1_555 1_555
C26 C25 1_555 1_555
H8 C26 1_555 1_555
C27 C22 1_555 1_555
C28 C25 1_555 1_555
Gd6 O15 1_555 1_555
Gd7 O15 1_555 1_555
O16 Gd7 1_555 1_555
C20 C21 1_555 1_555
C26 C27 1_555 1_555
Gd7 O3 1_555 1_555
O2 C1 1_555 1_555
O3 C14 1_555 1_555
O4 Gd7 1_555 1_555
O7 N2 1_555 1_555
O8 N2 1_555 1_555
O9 N3 1_555 1_555
O10 N3 1_555 1_555
O11 N4 1_555 1_555
O12 N4 1_555 1_555
O39 Gd7 1_555 1_555
N2 C6 1_555 1_555
N3 C9 1_555 1_555
N4 C13 1_555 1_555
N15 C52 1_555 1_555
N16 Gd7 1_555 1_555
C1 C2 1_555 1_555
C5 C4 1_555 1_555
C6 C5 1_555 1_555
C7 C2 1_555 1_555
H2 C7 1_555 1_555
C8 C5 1_555 1_555
C9 C8 1_555 1_555
C10 C9 1_555 1_555
H3 C10 1_555 1_555
C11 C10 1_555 1_555
C12 C11 1_555 1_555
H4 C12 1_555 1_555
C13 C8 1_555 1_555
C14 O4 1_555 1_555
C52 O39 1_555 1_555
H25 C52 1_555 1_555
C53 N15 1_555 1_555
H26 C53 1_555 1_555
H27 C53 1_555 1_555
H28 C53 1_555 1_555
C54 N15 1_555 1_555
H29 C54 1_555 1_555
H31 C54 1_555 1_555
C55 N16 1_555 1_555
H32 C55 1_555 1_555
C56 C55 1_555 1_555
H33 C56 1_555 1_555
C57 C56 1_555 1_555
H34 C57 1_555 1_555
C58 C57 1_555 1_555
C59 N16 1_555 1_555
H35 C59 1_555 1_555
C60 C58 1_555 1_555
O44 Gd7 1_555 1_555
O47 Gd7 1_555 1_555
C6 C7 1_555 1_555
C11 C14 1_555 1_555
C12 C13 1_555 1_555
C58 C59 1_555 1_555
Gd6 O3_2 1_555 1_555
O41 C1_2 1_555 1_555
O3_2 C14_2 1_555 1_555
O4_2 Gd6 1_555 1_555
O7_2 N2_2 1_555 1_555
O8_2 N2_2 1_555 1_555
O9_2 N3_2 1_555 1_555
O10_2 N3_2 1_555 1_555
O11_2 N4_2 1_555 1_555
O12_2 N4_2 1_555 1_555
O39_2 Gd6 1_555 1_555
N2_2 C6_2 1_555 1_555
N3_2 C9_2 1_555 1_555
N4_2 C13_2 1_555 1_555
N15_2 C52_2 1_555 1_555
N16_2 Gd6 1_555 1_555
C1_2 C2_2 1_555 1_555
C5_2 C4_2 1_555 1_555
C6_2 C5_2 1_555 1_555
C7_2 C2_2 1_555 1_555
H2_2 C7_2 1_555 1_555
C8_2 C5_2 1_555 1_555
C9_2 C8_2 1_555 1_555
C10_2 C9_2 1_555 1_555
H3_2 C10_2 1_555 1_555
C11_2 C10_2 1_555 1_555
C12_2 C11_2 1_555 1_555
H4_2 C12_2 1_555 1_555
C13_2 C8_2 1_555 1_555
C14_2 O4_2 1_555 1_555
C52_2 O39_2 1_555 1_555
H25_2 C52_2 1_555 1_555
C53_2 N15_2 1_555 1_555
H26_2 C53_2 1_555 1_555
H27_2 C53_2 1_555 1_555
H28_2 C53_2 1_555 1_555
C54_2 N15_2 1_555 1_555
H29_2 C54_2 1_555 1_555
H31_2 C54_2 1_555 1_555
C55_2 N16_2 1_555 1_555
H32_2 C55_2 1_555 1_555
C56_2 C55_2 1_555 1_555
H33_2 C56_2 1_555 1_555
C57_2 C56_2 1_555 1_555
H34_2 C57_2 1_555 1_555
C58_2 C57_2 1_555 1_555
C59_2 N16_2 1_555 1_555
H35_2 C59_2 1_555 1_555
C60_2 C58_2 1_555 1_555
O44 Gd6 1_555 1_555
O46 Gd6 1_555 1_555
O48 Gd6 1_555 1_555
C6_2 C7_2 1_555 1_555
C11_2 C14_2 1_555 1_555
C12_2 C13_2 1_555 1_555
C58_2 C59_2 1_555 1_555
O44 C28_2 1_555 1_555
O46 C28_2 1_555 1_555
O17_2 N5_2 1_555 1_555
O18_2 N5_2 1_555 1_555
O19_2 N6_2 1_555 1_555
O20_2 N6_2 1_555 1_555
O21_2 N7_2 1_555 1_555
O22_2 N7_2 1_555 1_555
O23_2 N8_2 1_555 1_555
O24_2 N8_2 1_555 1_555
N5_2 C18_2 1_555 1_555
N6_2 C20_2 1_555 1_555
N7_2 C23_2 1_555 1_555
N8_2 C27_2 1_555 1_555
C15_2 O42 1_555 1_555
C16_2 C15_2 1_555 1_555
C17_2 C16_2 1_555 1_555
H5_2 C17_2 1_555 1_555
C18_2 C17_2 1_555 1_555
C19_2 C18_2 1_555 1_555
C20_2 C19_2 1_555 1_555
C21_2 C16_2 1_555 1_555
H6_2 C21_2 1_555 1_555
C22_2 C19_2 1_555 1_555
C23_2 C22_2 1_555 1_555
C24_2 C23_2 1_555 1_555
H7_2 C24_2 1_555 1_555
C25_2 C24_2 1_555 1_555
C26_2 C25_2 1_555 1_555
H8_2 C26_2 1_555 1_555
C27_2 C22_2 1_555 1_555
C28_2 C25_2 1_555 1_555
C20_2 C21_2 1_555 1_555
C26_2 C27_2 1_555 1_555
O5_2 N1_2 1_555 1_555
O6_2 N1_2 1_555 1_555
O47 C29_2 1_555 1_555
O48 C29_2 1_555 1_555
O29_2 N9_2 1_555 1_555
O30_2 N9_2 1_555 1_555
O31_2 N10_2 1_555 1_555
O32_2 N10_2 1_555 1_555
O33_2 N11_2 1_555 1_555
O34_2 N11_2 1_555 1_555
O35_2 N12_2 1_555 1_555
O36_2 N12_2 1_555 1_555
N9_2 C32_2 1_555 1_555
N10_2 C34_2 1_555 1_555
N11_2 C37_2 1_555 1_555
N12_2 C41_2 1_555 1_555
C3_2 H1_2 1_555 1_555
C29_2 C30_2 1_555 1_555
C30_2 C31_2 1_555 1_555
C31_2 H9_2 1_555 1_555
C32_2 C31_2 1_555 1_555
C33_2 C32_2 1_555 1_555
C34_2 C33_2 1_555 1_555
C35_2 C30_2 1_555 1_555
H10_2 C35_2 1_555 1_555
C36_2 C33_2 1_555 1_555
C37_2 C36_2 1_555 1_555
C38_2 C37_2 1_555 1_555
H11_2 C38_2 1_555 1_555
C39_2 C38_2 1_555 1_555
C40_2 C39_2 1_555 1_555
H12_2 C40_2 1_555 1_555
C41_2 C36_2 1_555 1_555
C42_2 O27_2 1_555 1_555
C34_2 C35_2 1_555 1_555
C39_2 C42_2 1_555 1_555
C40_2 C41_2 1_555 1_555
N13_2 C43_2 1_555 1_555
C43_2 O37_2 1_555 1_555
C44_2 N13_2 1_555 1_555
H14_2 C44_2 1_555 1_555
H15_2 C44_2 1_555 1_555
H16_2 C44_2 1_555 1_555
C45_2 N13_2 1_555 1_555
H17_2 C45_2 1_555 1_555
H18_2 C45_2 1_555 1_555
H19_2 C45_2 1_555 1_555
O14 Gd3 1_555 1_555
O28_2 Gd3 1_555 1_555
O38_2 C51_2 1_555 1_555
N14_2 Gd3 1_555 1_555
C46_2 N14_2 1_555 1_555
H20_2 C46_2 1_555 1_555
C47_2 C46_2 1_555 1_555
H21_2 C47_2 1_555 1_555
C48_2 C47_2 1_555 1_555
H22_2 C48_2 1_555 1_555
C49_2 C48_2 1_555 1_555
C50_2 N14_2 1_555 1_555
H23_2 C50_2 1_555 1_555
C51_2 C49_2 1_555 1_555
H24_2 C51_2 1_555 1_555
C49_2 C50_2 1_555 1_555

#END
