
###############################################################################
#
# This file contains modified crystal structure data generated from the
# MOF subset of the Cambridge Structural Database (CSD) v543 
# hosted by the Cambridge Crystallographic Data Centre (CCDC).
#
# This work is licensed under the Creative Commons
# Attribution-NonCommercial-ShareAlike 4.0 International License.
# To view a copy of this license, visit
# http://creativecommons.org/licenses/by-nc-sa/4.0/
# or send a letter to
# Creative Commons, PO Box 1866, Mountain View, CA 94042, USA.
#
# CIF created using the CSD Python API on 29 September 2022
# The structure has been converted into the P1 space group
# The structure has a 3D framework
# The original CSD entry XEGQOS is in the rhombohedral crystal system
# The framework has been calculated to contain at least 10.0% void space
# The void calculation uses a probe of radius 1.32A, grid spacing 0.4
#
###############################################################################

data_XEGQOS
_chemical_formula_moiety         '(C234 H162 N18 O84 Zn18)n'
_symmetry_cell_setting           triclinic
_symmetry_space_group_name_H-M   'P 1'
_symmetry_Int_Tables_number      1
_space_group_name_Hall           'P 1'
loop_
_symmetry_equiv_pos_site_id
_symmetry_equiv_pos_as_xyz
1 x,y,z
_cell_length_a                   31.2060(7)
_cell_length_b                   31.2060(7)
_cell_length_c                   10.5025(3)
_cell_angle_alpha                90
_cell_angle_beta                 90
_cell_angle_gamma                120
_cell_volume                     8857.26
loop_
_atom_site_label
_atom_site_type_symbol
_atom_site_fract_x
_atom_site_fract_y
_atom_site_fract_z
O7 O 0.02978(10) 0.38826(7) 0.14931(18)
O8 O 0.04312(7) 0.31683(10) 0.27549(18)
Zn2 Zn 0.017734(12) 0.333636(17) 0.85589(3)
Zn1 Zn 0.982568(12) 0.315599(12) 0.18922(3)
O2 O 0.92048(8) 0.31028(8) 0.08231(19)
H1 H 0.9151 0.3321 0.1213
H2 H 0.9256 0.3162 0.0118
O3 O 0.99325(7) 0.28476(7) 0.01688(16)
O4 O 0.72159(7) 0.02514(7) 0.51736(18)
O5 O 0.72629(7) 0.04312(7) 0.72451(18)
N1 N 0.94020(9) 0.23919(9) 0.2262(2)
C1 C 0.96472(11) 0.23768(11) 0.0078(3)
C2 C 0.93479(12) 0.21149(11) 0.1241(3)
C3 C 0.90352(14) 0.16066(12) 0.1260(3)
H3 H 0.8986 0.1420 0.0528
C4 C 0.87980(14) 0.13819(12) 0.2379(3)
H4 H 0.8581 0.1042 0.2401
C5 C 0.88830(11) 0.16624(11) 0.3469(3)
C6 C 0.91802(11) 0.21737(11) 0.3349(3)
H5 H 0.9226 0.2371 0.4057
C7 C 0.86750(11) 0.14345(11) 0.4725(3)
C8 C 0.81855(11) 0.10626(11) 0.4841(3)
H6 H 0.7987 0.0947 0.4120
C9 C 0.79888(11) 0.08602(10) 0.6028(3)
C10 C 0.82906(12) 0.10245(12) 0.7094(3)
H7 H 0.8163 0.0889 0.7888
C11 C 0.87813(12) 0.13907(13) 0.6978(3)
H8 H 0.8985 0.1496 0.7692
C12 C 0.89678(12) 0.15988(12) 0.5811(3)
H9 H 0.9295 0.1853 0.5746
C13 C 0.74506(10) 0.04864(10) 0.6164(3)
O6 O 0.95818(10) 0.34008(7) 0.35021(16)
Zn3 Zn 0.666969(17) 0.982568(12) 0.81078(3)
Zn4 Zn 0.648932(12) 0.999698(17) 0.47745(3)
Zn3_2 Zn 0.017432(12) 0.684401(21) 0.81078(3)
Zn4_2 Zn 0.000302(17) 0.649235(21) 0.47745(3)
Zn1_2 Zn 0.684401(12) 0.666969(17) 0.18922(3)
O2_2 O 0.68972(8) 0.61020(11) 0.08231(19)
H1_2 H 0.6679 0.5830 0.1213
H2_2 H 0.6838 0.6094 0.0118
O3_2 O 0.71524(7) 0.70849(10) 0.01688(16)
O4_2 O 0.97486(7) 0.69645(10) 0.51736(18)
O5_2 O 0.95688(7) 0.68317(10) 0.72451(18)
N1_2 N 0.76081(9) 0.70101(13) 0.2262(2)
C1_2 C 0.76232(11) 0.72704(16) 0.0078(3)
C2_2 C 0.78851(11) 0.72330(16) 0.1241(3)
C3_2 C 0.83934(12) 0.74286(18) 0.1260(3)
H3_2 H 0.8580 0.7566 0.0528
C4_2 C 0.86181(12) 0.74161(18) 0.2379(3)
H4_2 H 0.8958 0.7539 0.2401
C5_2 C 0.83376(11) 0.72206(16) 0.3469(3)
C6_2 C 0.78263(11) 0.70065(16) 0.3349(3)
H5_2 H 0.7629 0.6855 0.4057
C7_2 C 0.85655(11) 0.72405(16) 0.4725(3)
C8_2 C 0.89374(11) 0.71229(16) 0.4841(3)
H6_2 H 0.9053 0.7040 0.4120
C9_2 C 0.91398(10) 0.71286(15) 0.6028(3)
C10_2 C 0.89755(12) 0.72661(17) 0.7094(3)
H7_2 H 0.9111 0.7274 0.7888
C11_2 C 0.86093(13) 0.73906(18) 0.6978(3)
H8_2 H 0.8504 0.7489 0.7692
C12_2 C 0.84012(12) 0.73690(17) 0.5811(3)
H9_2 H 0.8147 0.7442 0.5746
C13_2 C 0.95136(10) 0.69642(14) 0.6164(3)
O6_2 O 0.65992(7) 0.61809(12) 0.35021(16)
O7_2 O 0.61174(7) 0.64153(12) 0.14931(18)
O8_2 O 0.68317(10) 0.72629(12) 0.27549(18)
O1 O 0.78748(8) 0.74812(12) 0.9131(2)
Zn2_2 Zn 0.666364(17) 0.684099(21) 0.85589(3)
Zn1_3 Zn 0.333031(17) 0.017432(12) 0.18922(3)
O2_3 O 0.38980(11) 0.07952(8) 0.08231(19)
H1_3 H 0.4170 0.0849 0.1213
H2_3 H 0.3906 0.0744 0.0118
O3_3 O 0.29151(10) 0.00675(7) 0.01688(16)
O4_3 O 0.30355(10) 0.27841(7) 0.51736(18)
O5_3 O 0.31683(10) 0.27371(7) 0.72451(18)
N1_3 N 0.29899(13) 0.05980(9) 0.2262(2)
C1_3 C 0.27296(16) 0.03528(11) 0.0078(3)
C2_3 C 0.27670(16) 0.06521(12) 0.1241(3)
C3_3 C 0.25714(18) 0.09648(14) 0.1260(3)
H3_3 H 0.2434 0.1014 0.0528
C4_3 C 0.25839(18) 0.12020(14) 0.2379(3)
H4_3 H 0.2461 0.1419 0.2401
C5_3 C 0.27794(16) 0.11170(11) 0.3469(3)
C6_3 C 0.29935(16) 0.08198(11) 0.3349(3)
H5_3 H 0.3145 0.0774 0.4057
C7_3 C 0.27595(16) 0.13250(11) 0.4725(3)
C8_3 C 0.28771(16) 0.18145(11) 0.4841(3)
H6_3 H 0.2960 0.2013 0.4120
C9_3 C 0.28714(15) 0.20112(11) 0.6028(3)
C10_3 C 0.27339(17) 0.17094(12) 0.7094(3)
H7_3 H 0.2726 0.1837 0.7888
C11_3 C 0.26094(18) 0.12187(12) 0.6978(3)
H8_3 H 0.2511 0.1015 0.7692
C12_3 C 0.26310(17) 0.10322(12) 0.5811(3)
H9_3 H 0.2558 0.0705 0.5746
C13_3 C 0.30358(14) 0.25494(10) 0.6164(3)
Zn3_3 Zn 0.315599(21) 0.333031(17) 0.81078(3)
Zn4_3 Zn 0.350765(21) 0.351068(12) 0.47745(3)
O6_3 O 0.38191(12) 0.04182(10) 0.35021(16)
O7_3 O 0.35847(12) 0.97022(10) 0.14931(18)
O8_3 O 0.27371(12) 0.95688(7) 0.27549(18)
Zn2_3 Zn 0.315901(21) 0.982266(12) 0.85589(3)
O5_4 O 0.39296(7) 0.37645(7) 0.05784(18)
C10_4 C 0.49573(12) 0.43578(12) 0.0427(3)
H7_4 H 0.4830 0.4222 0.1221
C11_4 C 0.54480(12) 0.47240(13) 0.0311(3)
H8_4 H 0.5652 0.4829 0.1025
Zn3_4 Zn 0.333636(17) 0.315901(12) 0.14411(3)
Zn1_4 Zn 0.649235(12) 0.648932(12) 0.52255(3)
O1_2 O 0.62731(9) 0.54585(8) 0.2464(2)
O2_4 O 0.58715(8) 0.64361(8) 0.41564(19)
H1_4 H 0.5818 0.6654 0.4546
H2_4 H 0.5923 0.6495 0.3451
O4_4 O 0.38826(7) 0.35847(7) 0.85069(18)
N1_4 N 0.60687(9) 0.57252(9) 0.5595(2)
C1_4 C 0.63139(11) 0.57101(11) 0.3411(3)
C2_4 C 0.60146(12) 0.54482(11) 0.4574(3)
C3_4 C 0.57019(14) 0.49399(12) 0.4593(3)
H3_4 H 0.5653 0.4753 0.3861
C4_4 C 0.54647(14) 0.47152(12) 0.5712(3)
H4_4 H 0.5248 0.4375 0.5734
C5_4 C 0.55497(11) 0.49957(11) 0.6802(3)
C6_4 C 0.58469(11) 0.55070(11) 0.6682(3)
H5_4 H 0.5893 0.5704 0.7390
C7_4 C 0.53417(11) 0.47678(11) 0.8058(3)
C8_4 C 0.48522(11) 0.43959(11) 0.8174(3)
H6_4 H 0.4654 0.4280 0.7453
C9_4 C 0.46555(11) 0.41935(10) 0.9361(3)
C12_4 C 0.56345(12) 0.49321(12) 0.9144(3)
H9_4 H 0.5962 0.5186 0.9079
C13_4 C 0.41173(10) 0.38197(10) 0.9497(3)
O6_4 O 0.62484(10) 0.67342(7) 0.68355(16)
O7_4 O 0.69645(10) 0.72159(7) 0.48264(18)
O8_4 O 0.70979(7) 0.65016(10) 0.60882(18)
O5_5 O 0.62355(7) 0.01650(10) 0.05784(18)
C10_5 C 0.56422(12) 0.05994(17) 0.0427(3)
H7_5 H 0.5778 0.0607 0.1221
C11_5 C 0.52760(13) 0.07239(18) 0.0311(3)
H8_5 H 0.5171 0.0822 0.1025
Zn3_5 Zn 0.684099(12) 0.017734(21) 0.14411(3)
Zn1_5 Zn 0.351068(12) 0.000302(17) 0.52255(3)
O1_3 O 0.45415(8) 0.08145(12) 0.2464(2)
O4_5 O 0.64153(7) 0.02978(10) 0.85069(18)
N1_5 N 0.42748(9) 0.03434(13) 0.5595(2)
C1_5 C 0.42899(11) 0.06037(16) 0.3411(3)
C2_5 C 0.45518(11) 0.05663(16) 0.4574(3)
C3_5 C 0.50601(12) 0.07619(18) 0.4593(3)
H3_5 H 0.5247 0.0899 0.3861
C4_5 C 0.52848(12) 0.07494(18) 0.5712(3)
H4_5 H 0.5625 0.0872 0.5734
C5_5 C 0.50043(11) 0.05539(16) 0.6802(3)
C6_5 C 0.44930(11) 0.03398(16) 0.6682(3)
H5_5 H 0.4296 0.0188 0.7390
C7_5 C 0.52322(11) 0.05738(16) 0.8058(3)
C8_5 C 0.56041(11) 0.04562(16) 0.8174(3)
H6_5 H 0.5720 0.0373 0.7453
C9_5 C 0.58065(10) 0.04619(15) 0.9361(3)
C12_5 C 0.50679(12) 0.07023(17) 0.9144(3)
H9_5 H 0.4814 0.0775 0.9079
C13_5 C 0.61803(10) 0.02975(14) 0.9497(3)
O8_5 O 0.34984(10) 0.05962(12) 0.60882(18)
O2_5 O 0.35639(8) 0.94353(11) 0.41564(19)
H1_5 H 0.3346 0.9163 0.4546
H2_5 H 0.3505 0.9427 0.3451
O6_5 O 0.32658(7) 0.95143(12) 0.68355(16)
O7_5 O 0.27841(7) 0.97486(12) 0.48264(18)
O2_6 O 0.05647(11) 0.41285(8) 0.41564(19)
H1_6 H 0.0837 0.4182 0.4546
H2_6 H 0.0573 0.4077 0.3451
O6_6 O 0.04857(12) 0.37516(10) 0.68355(16)
O7_6 O 0.02514(12) 0.30355(10) 0.48264(18)
O5_6 O 0.98350(10) 0.60704(7) 0.05784(18)
C10_6 C 0.94006(17) 0.50427(12) 0.0427(3)
H7_6 H 0.9393 0.5170 0.1221
C11_6 C 0.92761(18) 0.45520(12) 0.0311(3)
H8_6 H 0.9178 0.4348 0.1025
Zn3_6 Zn 0.982266(21) 0.666364(17) 0.14411(3)
Zn1_6 Zn 0.999698(17) 0.350765(12) 0.52255(3)
O1_4 O 0.91855(12) 0.37269(9) 0.2464(2)
O4_6 O 0.97022(10) 0.61174(7) 0.85069(18)
N1_6 N 0.96566(13) 0.39313(9) 0.5595(2)
C1_6 C 0.93963(16) 0.36861(11) 0.3411(3)
C2_6 C 0.94337(16) 0.39854(12) 0.4574(3)
C3_6 C 0.92381(18) 0.42981(14) 0.4593(3)
H3_6 H 0.9101 0.4347 0.3861
C4_6 C 0.92506(18) 0.45353(14) 0.5712(3)
H4_6 H 0.9128 0.4752 0.5734
C5_6 C 0.94461(16) 0.44503(11) 0.6802(3)
C6_6 C 0.96602(16) 0.41531(11) 0.6682(3)
H5_6 H 0.9812 0.4107 0.7390
C7_6 C 0.94262(16) 0.46583(11) 0.8058(3)
C8_6 C 0.95438(16) 0.51478(11) 0.8174(3)
H6_6 H 0.9627 0.5346 0.7453
C9_6 C 0.95381(15) 0.53445(11) 0.9361(3)
C12_6 C 0.92977(17) 0.43655(12) 0.9144(3)
H9_6 H 0.9225 0.4038 0.9079
C13_6 C 0.97025(14) 0.58827(10) 0.9497(3)
O8_6 O 0.94038(12) 0.29021(7) 0.60882(18)
O7_7 O 0.36312(10) 0.05492(7) 0.81597(18)
O4_7 O 0.05492(7) 0.69181(7) 0.18403(18)
O5_7 O 0.05962(7) 0.70979(7) 0.39118(18)
C5_7 C 0.22163(11) 0.83291(11) 0.0136(3)
C6_7 C 0.25135(11) 0.88404(11) 0.0016(3)
H5_7 H 0.2559 0.9038 0.0724
C7_7 C 0.20083(11) 0.81012(11) 0.1392(3)
C8_7 C 0.15188(11) 0.77293(11) 0.1508(3)
H6_7 H 0.1320 0.7614 0.0787
C9_7 C 0.13221(11) 0.75269(10) 0.2695(3)
C10_7 C 0.16239(12) 0.76912(12) 0.3761(3)
H7_7 H 0.1496 0.7556 0.4555
C11_7 C 0.21146(12) 0.80574(13) 0.3645(3)
H8_7 H 0.2318 0.8163 0.4359
C12_7 C 0.23011(12) 0.82655(12) 0.2478(3)
H9_7 H 0.2628 0.8520 0.2413
C13_7 C 0.07839(10) 0.71531(10) 0.2831(3)
O1_5 O 0.29397(9) 0.87919(8) 0.5798(2)
O2_7 O 0.25381(8) 0.97695(8) 0.74898(19)
H1_7 H 0.2484 0.9988 0.7880
H2_7 H 0.2589 0.9829 0.6785
N1_7 N 0.27353(9) 0.90586(9) 0.8929(2)
C1_7 C 0.29805(11) 0.90435(11) 0.6745(3)
C2_7 C 0.26812(12) 0.87816(11) 0.7908(3)
C3_7 C 0.23685(14) 0.82733(12) 0.7927(3)
H3_7 H 0.2319 0.8087 0.7195
C4_7 C 0.21313(14) 0.80486(12) 0.9046(3)
H4_7 H 0.1914 0.7709 0.9068
O8_7 O 0.37645(7) 0.98350(10) 0.94216(18)
O4_8 O 0.30819(7) 0.36312(10) 0.18403(18)
O5_8 O 0.29021(7) 0.34984(10) 0.39118(18)
C5_8 C 0.16709(11) 0.38873(16) 0.0136(3)
C6_8 C 0.11596(11) 0.36732(16) 0.0016(3)
H5_8 H 0.0962 0.3522 0.0724
C7_8 C 0.18988(11) 0.39072(16) 0.1392(3)
C8_8 C 0.22707(11) 0.37896(16) 0.1508(3)
H6_8 H 0.2386 0.3707 0.0787
C9_8 C 0.24731(10) 0.37953(15) 0.2695(3)
C10_8 C 0.23088(12) 0.39328(17) 0.3761(3)
H7_8 H 0.2444 0.3941 0.4555
C11_8 C 0.19426(13) 0.40573(18) 0.3645(3)
H8_8 H 0.1837 0.4156 0.4359
C12_8 C 0.17345(12) 0.40357(17) 0.2478(3)
H9_8 H 0.1480 0.4109 0.2413
C13_8 C 0.28469(10) 0.36309(14) 0.2831(3)
O1_6 O 0.12081(8) 0.41479(12) 0.5798(2)
O2_8 O 0.02305(8) 0.27687(11) 0.74898(19)
H1_8 H 0.0012 0.2497 0.7880
H2_8 H 0.0171 0.2761 0.6785
N1_8 N 0.09414(9) 0.36768(13) 0.8929(2)
C1_8 C 0.09565(11) 0.39371(16) 0.6745(3)
C2_8 C 0.12184(11) 0.38997(16) 0.7908(3)
C3_8 C 0.17267(12) 0.40953(18) 0.7927(3)
H3_8 H 0.1913 0.4233 0.7195
C4_8 C 0.19514(12) 0.40828(18) 0.9046(3)
H4_8 H 0.2291 0.4206 0.9068
O8_8 O 0.01650(10) 0.39296(12) 0.94216(18)
O7_8 O 0.94508(7) 0.30819(12) 0.81597(18)
O4_9 O 0.63688(10) 0.94508(7) 0.18403(18)
O5_9 O 0.65016(10) 0.94038(7) 0.39118(18)
C5_9 C 0.61127(16) 0.77837(11) 0.0136(3)
C6_9 C 0.63268(16) 0.74865(11) 0.0016(3)
H5_9 H 0.6478 0.7441 0.0724
C7_9 C 0.60928(16) 0.79917(11) 0.1392(3)
C8_9 C 0.62104(16) 0.84812(11) 0.1508(3)
H6_9 H 0.6293 0.8680 0.0787
C9_9 C 0.62047(15) 0.86779(11) 0.2695(3)
C10_9 C 0.60672(17) 0.83761(12) 0.3761(3)
H7_9 H 0.6059 0.8504 0.4555
C11_9 C 0.59427(18) 0.78854(12) 0.3645(3)
H8_9 H 0.5844 0.7682 0.4359
C12_9 C 0.59643(17) 0.76989(12) 0.2478(3)
H9_9 H 0.5891 0.7372 0.2413
C13_9 C 0.63691(14) 0.92161(10) 0.2831(3)
O1_7 O 0.58521(12) 0.70603(9) 0.5798(2)
O2_9 O 0.72313(11) 0.74619(8) 0.74898(19)
H1_9 H 0.7503 0.7516 0.7880
H2_9 H 0.7239 0.7411 0.6785
N1_9 N 0.63232(13) 0.72647(9) 0.8929(2)
C1_9 C 0.60629(16) 0.70195(11) 0.6745(3)
C2_9 C 0.61003(16) 0.73188(12) 0.7908(3)
C3_9 C 0.59047(18) 0.76315(14) 0.7927(3)
H3_9 H 0.5767 0.7681 0.7195
C4_9 C 0.59172(18) 0.78687(14) 0.9046(3)
H4_9 H 0.5794 0.8086 0.9068
O7_9 O 0.69181(12) 0.63688(10) 0.81597(18)
O8_9 O 0.60704(12) 0.62355(7) 0.94216(18)
O2_10 O 0.07952(8) 0.68972(8) 0.91769(19)
H1_10 H 0.0849 0.6679 0.8787
H2_10 H 0.0744 0.6838 0.9882
O3_4 O 0.00675(7) 0.71524(7) 0.98312(16)
N1_10 N 0.05980(9) 0.76081(9) 0.7738(2)
C1_10 C 0.03528(11) 0.76232(11) 0.9922(3)
C2_10 C 0.06521(12) 0.78851(11) 0.8759(3)
C3_10 C 0.09648(14) 0.83934(12) 0.8740(3)
H3_10 H 0.1014 0.8580 0.9472
C4_10 C 0.12020(14) 0.86181(12) 0.7621(3)
H4_10 H 0.1419 0.8958 0.7599
C5_10 C 0.11170(11) 0.83376(11) 0.6531(3)
C6_10 C 0.08198(11) 0.78263(11) 0.6651(3)
H5_10 H 0.0774 0.7629 0.5943
C7_10 C 0.13250(11) 0.85655(11) 0.5275(3)
C8_10 C 0.18145(11) 0.89374(11) 0.5159(3)
H6_10 H 0.2013 0.9053 0.5880
C9_10 C 0.20112(11) 0.91398(10) 0.3972(3)
C10_10 C 0.17094(12) 0.89755(12) 0.2906(3)
H7_10 H 0.1837 0.9111 0.2112
C11_10 C 0.12187(12) 0.86093(13) 0.3022(3)
H8_10 H 0.1015 0.8504 0.2308
C12_10 C 0.10322(12) 0.84012(12) 0.4189(3)
H9_10 H 0.0705 0.8147 0.4254
C13_10 C 0.25494(10) 0.95136(10) 0.3836(3)
O6_7 O 0.04182(10) 0.65992(7) 0.64979(16)
O1_8 O 0.21252(8) 0.25188(12) 0.0869(2)
O2_11 O 0.31028(8) 0.38980(11) 0.91769(19)
H1_11 H 0.3321 0.4170 0.8787
H2_11 H 0.3162 0.3906 0.9882
O3_5 O 0.28476(7) 0.29151(10) 0.98312(16)
N1_11 N 0.23919(9) 0.29899(13) 0.7738(2)
C1_11 C 0.23768(11) 0.27296(16) 0.9922(3)
C2_11 C 0.21149(11) 0.27670(16) 0.8759(3)
C3_11 C 0.16066(12) 0.25714(18) 0.8740(3)
H3_11 H 0.1420 0.2434 0.9472
C4_11 C 0.13819(12) 0.25839(18) 0.7621(3)
H4_11 H 0.1042 0.2461 0.7599
C5_11 C 0.16624(11) 0.27794(16) 0.6531(3)
C6_11 C 0.21737(11) 0.29935(16) 0.6651(3)
H5_11 H 0.2371 0.3145 0.5943
C7_11 C 0.14345(11) 0.27595(16) 0.5275(3)
C8_11 C 0.10626(11) 0.28771(16) 0.5159(3)
H6_11 H 0.0947 0.2960 0.5880
C9_11 C 0.08602(10) 0.28714(15) 0.3972(3)
C10_11 C 0.10245(12) 0.27339(17) 0.2906(3)
H7_11 H 0.0889 0.2726 0.2112
C11_11 C 0.13907(13) 0.26094(18) 0.3022(3)
H8_11 H 0.1496 0.2511 0.2308
C12_11 C 0.15988(12) 0.26310(17) 0.4189(3)
H9_11 H 0.1853 0.2558 0.4254
C13_11 C 0.04864(10) 0.30358(14) 0.3836(3)
O6_8 O 0.34008(7) 0.38191(12) 0.64979(16)
O2_12 O 0.61020(11) 0.92048(8) 0.91769(19)
H1_12 H 0.5830 0.9151 0.8787
H2_12 H 0.6094 0.9256 0.9882
O3_6 O 0.70849(10) 0.99325(7) 0.98312(16)
N1_12 N 0.70101(13) 0.94020(9) 0.7738(2)
C1_12 C 0.72704(16) 0.96472(11) 0.9922(3)
C2_12 C 0.72330(16) 0.93479(12) 0.8759(3)
C3_12 C 0.74286(18) 0.90352(14) 0.8740(3)
H3_12 H 0.7566 0.8986 0.9472
C4_12 C 0.74161(18) 0.87980(14) 0.7621(3)
H4_12 H 0.7539 0.8581 0.7599
C5_12 C 0.72206(16) 0.88830(11) 0.6531(3)
C6_12 C 0.70065(16) 0.91802(11) 0.6651(3)
H5_12 H 0.6855 0.9226 0.5943
C7_12 C 0.72405(16) 0.86750(11) 0.5275(3)
C8_12 C 0.71229(16) 0.81855(11) 0.5159(3)
H6_12 H 0.7040 0.7987 0.5880
C9_12 C 0.71286(15) 0.79888(11) 0.3972(3)
C10_12 C 0.72661(17) 0.82906(12) 0.2906(3)
H7_12 H 0.7274 0.8163 0.2112
C11_12 C 0.73906(18) 0.87813(12) 0.3022(3)
H8_12 H 0.7489 0.8985 0.2308
C12_12 C 0.73690(17) 0.89678(12) 0.4189(3)
H9_12 H 0.7442 0.9295 0.4254
C13_12 C 0.69642(14) 0.74506(10) 0.3836(3)
O6_9 O 0.61809(12) 0.95818(10) 0.64979(16)
O1_9 O 0.37269(9) 0.45415(8) 0.7536(2)
O2_13 O 0.41285(8) 0.35639(8) 0.58436(19)
H1_13 H 0.4182 0.3346 0.5454
H2_13 H 0.4077 0.3505 0.6549
N1_13 N 0.39313(9) 0.42748(9) 0.4405(2)
C1_13 C 0.36861(11) 0.42899(11) 0.6589(3)
C2_13 C 0.39854(12) 0.45518(11) 0.5426(3)
C3_13 C 0.42981(14) 0.50601(12) 0.5407(3)
H3_13 H 0.4347 0.5247 0.6139
C4_13 C 0.45353(14) 0.52848(12) 0.4288(3)
H4_13 H 0.4752 0.5625 0.4266
C5_13 C 0.44503(11) 0.50043(11) 0.3198(3)
C6_13 C 0.41531(11) 0.44930(11) 0.3318(3)
H5_13 H 0.4107 0.4296 0.2610
C7_13 C 0.46583(11) 0.52322(11) 0.1942(3)
C8_13 C 0.51478(11) 0.56041(11) 0.1826(3)
H6_13 H 0.5346 0.5720 0.2547
C9_13 C 0.53445(11) 0.58065(10) 0.0639(3)
C12_13 C 0.43655(12) 0.50679(12) 0.0856(3)
H9_13 H 0.4038 0.4814 0.0921
C13_13 C 0.58827(10) 0.61803(10) 0.0503(3)
O6_10 O 0.37516(10) 0.32658(7) 0.31645(16)
C10_13 C 0.50427(12) 0.56422(12) 0.9573(3)
H7_13 H 0.5170 0.5778 0.8779
C11_13 C 0.45520(12) 0.52760(13) 0.9689(3)
H8_13 H 0.4348 0.5171 0.8975
O2_14 O 0.64361(8) 0.05647(11) 0.58436(19)
H1_14 H 0.6654 0.0837 0.5454
H2_14 H 0.6495 0.0573 0.6549
O6_11 O 0.67342(7) 0.04857(12) 0.31645(16)
O1_10 O 0.54585(8) 0.91855(12) 0.7536(2)
N1_14 N 0.57252(9) 0.96566(13) 0.4405(2)
C1_14 C 0.57101(11) 0.93963(16) 0.6589(3)
C2_14 C 0.54482(11) 0.94337(16) 0.5426(3)
C3_14 C 0.49399(12) 0.92381(18) 0.5407(3)
H3_14 H 0.4753 0.9101 0.6139
C4_14 C 0.47152(12) 0.92506(18) 0.4288(3)
H4_14 H 0.4375 0.9128 0.4266
C5_14 C 0.49957(11) 0.94461(16) 0.3198(3)
C6_14 C 0.55070(11) 0.96602(16) 0.3318(3)
H5_14 H 0.5704 0.9812 0.2610
C7_14 C 0.47678(11) 0.94262(16) 0.1942(3)
C8_14 C 0.43959(11) 0.95438(16) 0.1826(3)
H6_14 H 0.4280 0.9627 0.2547
C9_14 C 0.41935(10) 0.95381(15) 0.0639(3)
C12_14 C 0.49321(12) 0.92977(17) 0.0856(3)
H9_14 H 0.5186 0.9225 0.0921
C13_14 C 0.38197(10) 0.97025(14) 0.0503(3)
C10_14 C 0.43578(12) 0.94006(17) 0.9573(3)
H7_14 H 0.4222 0.9393 0.8779
C11_14 C 0.47240(13) 0.92761(18) 0.9689(3)
H8_14 H 0.4829 0.9178 0.8975
O1_11 O 0.08145(12) 0.62731(9) 0.7536(2)
N1_15 N 0.03434(13) 0.60687(9) 0.4405(2)
C1_15 C 0.06037(16) 0.63139(11) 0.6589(3)
C2_15 C 0.05663(16) 0.60146(12) 0.5426(3)
C3_15 C 0.07619(18) 0.57019(14) 0.5407(3)
H3_15 H 0.0899 0.5653 0.6139
C4_15 C 0.07494(18) 0.54647(14) 0.4288(3)
H4_15 H 0.0872 0.5248 0.4266
C5_15 C 0.05539(16) 0.55497(11) 0.3198(3)
C6_15 C 0.03398(16) 0.58469(11) 0.3318(3)
H5_15 H 0.0188 0.5893 0.2610
C7_15 C 0.05738(16) 0.53417(11) 0.1942(3)
C8_15 C 0.04562(16) 0.48522(11) 0.1826(3)
H6_15 H 0.0373 0.4654 0.2547
C9_15 C 0.04619(15) 0.46555(11) 0.0639(3)
C12_15 C 0.07023(17) 0.56345(12) 0.0856(3)
H9_15 H 0.0775 0.5962 0.0921
C13_15 C 0.02975(14) 0.41173(10) 0.0503(3)
C10_15 C 0.05994(17) 0.49573(12) 0.9573(3)
H7_15 H 0.0607 0.4830 0.8779
C11_15 C 0.07239(18) 0.54480(12) 0.9689(3)
H8_15 H 0.0822 0.5652 0.8975
O2_15 O 0.94353(11) 0.58715(8) 0.58436(19)
H1_15 H 0.9163 0.5818 0.5454
H2_15 H 0.9427 0.5923 0.6549
O6_12 O 0.95143(12) 0.62484(10) 0.31645(16)
O1_12 O 0.70603(9) 0.12081(8) 0.4202(2)
O2_16 O 0.74619(8) 0.02305(8) 0.25102(19)
H1_16 H 0.7516 0.0012 0.2120
H2_16 H 0.7411 0.0171 0.3215
N1_16 N 0.72647(9) 0.09414(9) 0.1071(2)
C1_16 C 0.70195(11) 0.09565(11) 0.3255(3)
C2_16 C 0.73188(12) 0.12184(11) 0.2092(3)
C3_16 C 0.76315(14) 0.17267(12) 0.2073(3)
H3_16 H 0.7681 0.1913 0.2805
C4_16 C 0.78687(14) 0.19514(12) 0.0954(3)
H4_16 H 0.8086 0.2291 0.0932
C5_16 C 0.77837(11) 0.16709(11) 0.9864(3)
C6_16 C 0.74865(11) 0.11596(11) 0.9984(3)
H5_16 H 0.7441 0.0962 0.9276
C7_16 C 0.79917(11) 0.18988(11) 0.8608(3)
C8_16 C 0.84812(11) 0.22707(11) 0.8492(3)
H6_16 H 0.8680 0.2386 0.9213
C9_16 C 0.86779(11) 0.24731(10) 0.7305(3)
C10_16 C 0.83761(12) 0.23088(12) 0.6239(3)
H7_16 H 0.8504 0.2444 0.5445
C11_16 C 0.78854(12) 0.19426(13) 0.6355(3)
H8_16 H 0.7682 0.1837 0.5641
C12_16 C 0.76989(12) 0.17345(12) 0.7522(3)
H9_16 H 0.7372 0.1480 0.7587
C13_16 C 0.92161(10) 0.28469(10) 0.7169(3)
O1_13 O 0.87919(8) 0.58521(12) 0.4202(2)
O2_17 O 0.97695(8) 0.72313(11) 0.25102(19)
H1_17 H 0.9988 0.7503 0.2120
H2_17 H 0.9829 0.7239 0.3215
N1_17 N 0.90586(9) 0.63232(13) 0.1071(2)
C1_17 C 0.90435(11) 0.60629(16) 0.3255(3)
C2_17 C 0.87816(11) 0.61003(16) 0.2092(3)
C3_17 C 0.82733(12) 0.59047(18) 0.2073(3)
H3_17 H 0.8087 0.5767 0.2805
C4_17 C 0.80486(12) 0.59172(18) 0.0954(3)
H4_17 H 0.7709 0.5794 0.0932
C5_17 C 0.83291(11) 0.61127(16) 0.9864(3)
C6_17 C 0.88404(11) 0.63268(16) 0.9984(3)
H5_17 H 0.9038 0.6478 0.9276
C7_17 C 0.81012(11) 0.60928(16) 0.8608(3)
C8_17 C 0.77293(11) 0.62104(16) 0.8492(3)
H6_17 H 0.7614 0.6293 0.9213
C9_17 C 0.75269(10) 0.62047(15) 0.7305(3)
C10_17 C 0.76912(12) 0.60672(17) 0.6239(3)
H7_17 H 0.7556 0.6059 0.5445
C11_17 C 0.80574(13) 0.59427(18) 0.6355(3)
H8_17 H 0.8163 0.5844 0.5641
C12_17 C 0.82655(12) 0.59643(17) 0.7522(3)
H9_17 H 0.8520 0.5891 0.7587
C13_17 C 0.71531(10) 0.63691(14) 0.7169(3)
O1_14 O 0.41479(12) 0.29397(9) 0.4202(2)
O2_18 O 0.27687(11) 0.25381(8) 0.25102(19)
H1_18 H 0.2497 0.2484 0.2120
H2_18 H 0.2761 0.2589 0.3215
N1_18 N 0.36768(13) 0.27353(9) 0.1071(2)
C1_18 C 0.39371(16) 0.29805(11) 0.3255(3)
C2_18 C 0.38997(16) 0.26812(12) 0.2092(3)
C3_18 C 0.40953(18) 0.23685(14) 0.2073(3)
H3_18 H 0.4233 0.2319 0.2805
C4_18 C 0.40828(18) 0.21313(14) 0.0954(3)
H4_18 H 0.4206 0.1914 0.0932
C5_18 C 0.38873(16) 0.22163(11) 0.9864(3)
C6_18 C 0.36732(16) 0.25135(11) 0.9984(3)
H5_18 H 0.3522 0.2559 0.9276
C7_18 C 0.39072(16) 0.20083(11) 0.8608(3)
C8_18 C 0.37896(16) 0.15188(11) 0.8492(3)
H6_18 H 0.3707 0.1320 0.9213
C9_18 C 0.37953(15) 0.13221(11) 0.7305(3)
C10_18 C 0.39328(17) 0.16239(12) 0.6239(3)
H7_18 H 0.3941 0.1496 0.5445
C11_18 C 0.40573(18) 0.21146(12) 0.6355(3)
H8_18 H 0.4156 0.2318 0.5641
C12_18 C 0.40357(17) 0.23011(12) 0.7522(3)
H9_18 H 0.4109 0.2628 0.7587
C13_18 C 0.36309(14) 0.07839(10) 0.7169(3)
O1_15 O 0.96064(9) 0.21252(8) 0.9131(2)
O1_16 O 0.25188(12) 0.03936(9) 0.9131(2)
O1_17 O 0.03936(9) 0.78748(8) 0.0869(2)
O1_18 O 0.74812(12) 0.96064(9) 0.0869(2)
loop_
_geom_bond_atom_site_label_1
_geom_bond_atom_site_label_2
_geom_bond_site_symmetry_1
_geom_bond_site_symmetry_2
Zn1 O2 1_555 1_555
O2 H1 1_555 1_555
H2 O2 1_555 1_555
O3 Zn1 1_555 1_555
O4 C13 1_555 1_555
O5 C13 1_555 1_555
N1 Zn1 1_555 1_555
C1 O3 1_555 1_555
C2 N1 1_555 1_555
C3 C2 1_555 1_555
H3 C3 1_555 1_555
C4 C3 1_555 1_555
H4 C4 1_555 1_555
C5 C4 1_555 1_555
C6 N1 1_555 1_555
H5 C6 1_555 1_555
C7 C5 1_555 1_555
C8 C7 1_555 1_555
H6 C8 1_555 1_555
C9 C8 1_555 1_555
C10 C9 1_555 1_555
H7 C10 1_555 1_555
C11 C10 1_555 1_555
H8 C11 1_555 1_555
C12 C7 1_555 1_555
H9 C12 1_555 1_555
C13 C9 1_555 1_555
O6 Zn1 1_555 1_555
C1 C2 1_555 1_555
C5 C6 1_555 1_555
C11 C12 1_555 1_555
Zn1_2 O2_2 1_555 1_555
O2_2 H1_2 1_555 1_555
H2_2 O2_2 1_555 1_555
O3_2 Zn1_2 1_555 1_555
O4_2 C13_2 1_555 1_555
O5_2 C13_2 1_555 1_555
N1_2 Zn1_2 1_555 1_555
C1_2 O3_2 1_555 1_555
C2_2 N1_2 1_555 1_555
C3_2 C2_2 1_555 1_555
H3_2 C3_2 1_555 1_555
C4_2 C3_2 1_555 1_555
H4_2 C4_2 1_555 1_555
C5_2 C4_2 1_555 1_555
C6_2 N1_2 1_555 1_555
H5_2 C6_2 1_555 1_555
C7_2 C5_2 1_555 1_555
C8_2 C7_2 1_555 1_555
H6_2 C8_2 1_555 1_555
C9_2 C8_2 1_555 1_555
C10_2 C9_2 1_555 1_555
H7_2 C10_2 1_555 1_555
C11_2 C10_2 1_555 1_555
H8_2 C11_2 1_555 1_555
C12_2 C7_2 1_555 1_555
H9_2 C12_2 1_555 1_555
C13_2 C9_2 1_555 1_555
O6_2 Zn1_2 1_555 1_555
O7_2 Zn1_2 1_555 1_555
O8_2 Zn1_2 1_555 1_555
C1_2 C2_2 1_555 1_555
C5_2 C6_2 1_555 1_555
C11_2 C12_2 1_555 1_555
Zn1_3 O2_3 1_555 1_555
O2_3 H1_3 1_555 1_555
H2_3 O2_3 1_555 1_555
O3_3 Zn1_3 1_555 1_555
O4_3 C13_3 1_555 1_555
O5_3 C13_3 1_555 1_555
N1_3 Zn1_3 1_555 1_555
C1_3 O3_3 1_555 1_555
C2_3 N1_3 1_555 1_555
C3_3 C2_3 1_555 1_555
H3_3 C3_3 1_555 1_555
C4_3 C3_3 1_555 1_555
H4_3 C4_3 1_555 1_555
C5_3 C4_3 1_555 1_555
C6_3 N1_3 1_555 1_555
H5_3 C6_3 1_555 1_555
C7_3 C5_3 1_555 1_555
C8_3 C7_3 1_555 1_555
H6_3 C8_3 1_555 1_555
C9_3 C8_3 1_555 1_555
C10_3 C9_3 1_555 1_555
H7_3 C10_3 1_555 1_555
C11_3 C10_3 1_555 1_555
H8_3 C11_3 1_555 1_555
C12_3 C7_3 1_555 1_555
H9_3 C12_3 1_555 1_555
C13_3 C9_3 1_555 1_555
Zn3_3 O5_3 1_555 1_555
Zn4_3 O4_3 1_555 1_555
O6_3 Zn1_3 1_555 1_555
C1_3 C2_3 1_555 1_555
C5_3 C6_3 1_555 1_555
C11_3 C12_3 1_555 1_555
H7_4 C10_4 1_555 1_555
C11_4 C10_4 1_555 1_555
H8_4 C11_4 1_555 1_555
Zn3_4 O5_4 1_555 1_555
Zn1_4 O2_4 1_555 1_555
O1_2 C1_4 1_555 1_555
O2_4 H1_4 1_555 1_555
H2_4 O2_4 1_555 1_555
O6_2 Zn1_4 1_555 1_555
O4_4 C13_4 1_555 1_555
N1_4 Zn1_4 1_555 1_555
C1_4 O6_2 1_555 1_555
C2_4 N1_4 1_555 1_555
C3_4 C2_4 1_555 1_555
H3_4 C3_4 1_555 1_555
C4_4 C3_4 1_555 1_555
H4_4 C4_4 1_555 1_555
C5_4 C4_4 1_555 1_555
C6_4 N1_4 1_555 1_555
H5_4 C6_4 1_555 1_555
C7_4 C5_4 1_555 1_555
C8_4 C7_4 1_555 1_555
H6_4 C8_4 1_555 1_555
C9_4 C8_4 1_555 1_555
C12_4 C7_4 1_555 1_555
H9_4 C12_4 1_555 1_555
C13_4 C9_4 1_555 1_555
Zn3_3 O4_4 1_555 1_555
O6_4 Zn1_4 1_555 1_555
O7_4 Zn1_4 1_555 1_555
O8_4 Zn1_4 1_555 1_555
C1_4 C2_4 1_555 1_555
C5_4 C6_4 1_555 1_555
H7_5 C10_5 1_555 1_555
C11_5 C10_5 1_555 1_555
H8_5 C11_5 1_555 1_555
Zn3_5 O5_5 1_555 1_555
O1_3 C1_5 1_555 1_555
O6_3 Zn1_5 1_555 1_555
O4_5 C13_5 1_555 1_555
N1_5 Zn1_5 1_555 1_555
C1_5 O6_3 1_555 1_555
C2_5 N1_5 1_555 1_555
C3_5 C2_5 1_555 1_555
H3_5 C3_5 1_555 1_555
C4_5 C3_5 1_555 1_555
H4_5 C4_5 1_555 1_555
C5_5 C4_5 1_555 1_555
C6_5 N1_5 1_555 1_555
H5_5 C6_5 1_555 1_555
C7_5 C5_5 1_555 1_555
C8_5 C7_5 1_555 1_555
H6_5 C8_5 1_555 1_555
C9_5 C8_5 1_555 1_555
C12_5 C7_5 1_555 1_555
H9_5 C12_5 1_555 1_555
C13_5 C9_5 1_555 1_555
O8_5 Zn1_5 1_555 1_555
C1_5 C2_5 1_555 1_555
C5_5 C6_5 1_555 1_555
O2_5 H1_5 1_555 1_555
H2_5 O2_5 1_555 1_555
O2_6 H1_6 1_555 1_555
H2_6 O2_6 1_555 1_555
H7_6 C10_6 1_555 1_555
C11_6 C10_6 1_555 1_555
H8_6 C11_6 1_555 1_555
Zn3_6 O5_6 1_555 1_555
O1_4 C1_6 1_555 1_555
O6 Zn1_6 1_555 1_555
O4_6 C13_6 1_555 1_555
N1_6 Zn1_6 1_555 1_555
C1_6 O6 1_555 1_555
C2_6 N1_6 1_555 1_555
C3_6 C2_6 1_555 1_555
H3_6 C3_6 1_555 1_555
C4_6 C3_6 1_555 1_555
H4_6 C4_6 1_555 1_555
C5_6 C4_6 1_555 1_555
C6_6 N1_6 1_555 1_555
H5_6 C6_6 1_555 1_555
C7_6 C5_6 1_555 1_555
C8_6 C7_6 1_555 1_555
H6_6 C8_6 1_555 1_555
C9_6 C8_6 1_555 1_555
C12_6 C7_6 1_555 1_555
H9_6 C12_6 1_555 1_555
C13_6 C9_6 1_555 1_555
O8_6 Zn1_6 1_555 1_555
C1_6 C2_6 1_555 1_555
C5_6 C6_6 1_555 1_555
O4_7 C13_7 1_555 1_555
O5_7 C13_7 1_555 1_555
H5_7 C6_7 1_555 1_555
C7_7 C5_7 1_555 1_555
C8_7 C7_7 1_555 1_555
H6_7 C8_7 1_555 1_555
C9_7 C8_7 1_555 1_555
C10_7 C9_7 1_555 1_555
H7_7 C10_7 1_555 1_555
C11_7 C10_7 1_555 1_555
H8_7 C11_7 1_555 1_555
C12_7 C7_7 1_555 1_555
H9_7 C12_7 1_555 1_555
C13_7 C9_7 1_555 1_555
Zn4_2 O5_7 1_555 1_555
C5_7 C6_7 1_555 1_555
C11_7 C12_7 1_555 1_555
Zn2_3 O2_7 1_555 1_555
O1_5 C1_7 1_555 1_555
O2_7 H1_7 1_555 1_555
H2_7 O2_7 1_555 1_555
O6_5 Zn2_3 1_555 1_555
N1_7 Zn2_3 1_555 1_555
C1_7 O6_5 1_555 1_555
C2_7 N1_7 1_555 1_555
C3_7 C2_7 1_555 1_555
H3_7 C3_7 1_555 1_555
C4_7 C3_7 1_555 1_555
H4_7 C4_7 1_555 1_555
O8_7 Zn2_3 1_555 1_555
C1_7 C2_7 1_555 1_555
O4_8 C13_8 1_555 1_555
O5_8 C13_8 1_555 1_555
H5_8 C6_8 1_555 1_555
C7_8 C5_8 1_555 1_555
C8_8 C7_8 1_555 1_555
H6_8 C8_8 1_555 1_555
C9_8 C8_8 1_555 1_555
C10_8 C9_8 1_555 1_555
H7_8 C10_8 1_555 1_555
C11_8 C10_8 1_555 1_555
H8_8 C11_8 1_555 1_555
C12_8 C7_8 1_555 1_555
H9_8 C12_8 1_555 1_555
C13_8 C9_8 1_555 1_555
Zn4_3 O5_8 1_555 1_555
Zn3_4 O4_8 1_555 1_555
C5_8 C6_8 1_555 1_555
C11_8 C12_8 1_555 1_555
Zn2 O2_8 1_555 1_555
O1_6 C1_8 1_555 1_555
O2_8 H1_8 1_555 1_555
H2_8 O2_8 1_555 1_555
O6_6 Zn2 1_555 1_555
N1_8 Zn2 1_555 1_555
C1_8 O6_6 1_555 1_555
C2_8 N1_8 1_555 1_555
C3_8 C2_8 1_555 1_555
H3_8 C3_8 1_555 1_555
C4_8 C3_8 1_555 1_555
H4_8 C4_8 1_555 1_555
O8_8 Zn2 1_555 1_555
C1_8 C2_8 1_555 1_555
O4_9 C13_9 1_555 1_555
O5_9 C13_9 1_555 1_555
H5_9 C6_9 1_555 1_555
C7_9 C5_9 1_555 1_555
C8_9 C7_9 1_555 1_555
H6_9 C8_9 1_555 1_555
C9_9 C8_9 1_555 1_555
C10_9 C9_9 1_555 1_555
H7_9 C10_9 1_555 1_555
C11_9 C10_9 1_555 1_555
H8_9 C11_9 1_555 1_555
C12_9 C7_9 1_555 1_555
H9_9 C12_9 1_555 1_555
C13_9 C9_9 1_555 1_555
Zn4 O5_9 1_555 1_555
C5_9 C6_9 1_555 1_555
C11_9 C12_9 1_555 1_555
Zn2_2 O2_9 1_555 1_555
O1_7 C1_9 1_555 1_555
O2_9 H1_9 1_555 1_555
H2_9 O2_9 1_555 1_555
O6_4 Zn2_2 1_555 1_555
N1_9 Zn2_2 1_555 1_555
C1_9 O6_4 1_555 1_555
C2_9 N1_9 1_555 1_555
C3_9 C2_9 1_555 1_555
H3_9 C3_9 1_555 1_555
C4_9 C3_9 1_555 1_555
H4_9 C4_9 1_555 1_555
O7_9 Zn2_2 1_555 1_555
O8_9 Zn2_2 1_555 1_555
C1_9 C2_9 1_555 1_555
Zn3_2 O2_10 1_555 1_555
O2_10 H1_10 1_555 1_555
H2_10 O2_10 1_555 1_555
O3_4 Zn3_2 1_555 1_555
O7_5 C13_10 1_555 1_555
O8_3 C13_10 1_555 1_555
N1_10 Zn3_2 1_555 1_555
C1_10 O3_4 1_555 1_555
C2_10 N1_10 1_555 1_555
C3_10 C2_10 1_555 1_555
H3_10 C3_10 1_555 1_555
C4_10 C3_10 1_555 1_555
H4_10 C4_10 1_555 1_555
C5_10 C4_10 1_555 1_555
C6_10 N1_10 1_555 1_555
H5_10 C6_10 1_555 1_555
C7_10 C5_10 1_555 1_555
C8_10 C7_10 1_555 1_555
H6_10 C8_10 1_555 1_555
C9_10 C8_10 1_555 1_555
C10_10 C9_10 1_555 1_555
H7_10 C10_10 1_555 1_555
C11_10 C10_10 1_555 1_555
H8_10 C11_10 1_555 1_555
C12_10 C7_10 1_555 1_555
H9_10 C12_10 1_555 1_555
C13_10 C9_10 1_555 1_555
O6_7 Zn3_2 1_555 1_555
C1_10 C2_10 1_555 1_555
C5_10 C6_10 1_555 1_555
C11_10 C12_10 1_555 1_555
Zn3_3 O2_11 1_555 1_555
O2_11 H1_11 1_555 1_555
H2_11 O2_11 1_555 1_555
O3_5 Zn3_3 1_555 1_555
O7_6 C13_11 1_555 1_555
O8 C13_11 1_555 1_555
N1_11 Zn3_3 1_555 1_555
C1_11 O3_5 1_555 1_555
C2_11 N1_11 1_555 1_555
C3_11 C2_11 1_555 1_555
H3_11 C3_11 1_555 1_555
C4_11 C3_11 1_555 1_555
H4_11 C4_11 1_555 1_555
C5_11 C4_11 1_555 1_555
C6_11 N1_11 1_555 1_555
H5_11 C6_11 1_555 1_555
C7_11 C5_11 1_555 1_555
C8_11 C7_11 1_555 1_555
H6_11 C8_11 1_555 1_555
C9_11 C8_11 1_555 1_555
C10_11 C9_11 1_555 1_555
H7_11 C10_11 1_555 1_555
C11_11 C10_11 1_555 1_555
H8_11 C11_11 1_555 1_555
C12_11 C7_11 1_555 1_555
H9_11 C12_11 1_555 1_555
C13_11 C9_11 1_555 1_555
O6_8 Zn3_3 1_555 1_555
C1_11 C2_11 1_555 1_555
C5_11 C6_11 1_555 1_555
C11_11 C12_11 1_555 1_555
Zn3 O2_12 1_555 1_555
O2_12 H1_12 1_555 1_555
H2_12 O2_12 1_555 1_555
O3_6 Zn3 1_555 1_555
O7_4 C13_12 1_555 1_555
O8_2 C13_12 1_555 1_555
N1_12 Zn3 1_555 1_555
C1_12 O3_6 1_555 1_555
C2_12 N1_12 1_555 1_555
C3_12 C2_12 1_555 1_555
H3_12 C3_12 1_555 1_555
C4_12 C3_12 1_555 1_555
H4_12 C4_12 1_555 1_555
C5_12 C4_12 1_555 1_555
C6_12 N1_12 1_555 1_555
H5_12 C6_12 1_555 1_555
C7_12 C5_12 1_555 1_555
C8_12 C7_12 1_555 1_555
H6_12 C8_12 1_555 1_555
C9_12 C8_12 1_555 1_555
C10_12 C9_12 1_555 1_555
H7_12 C10_12 1_555 1_555
C11_12 C10_12 1_555 1_555
H8_12 C11_12 1_555 1_555
C12_12 C7_12 1_555 1_555
H9_12 C12_12 1_555 1_555
C13_12 C9_12 1_555 1_555
O6_9 Zn3 1_555 1_555
C1_12 C2_12 1_555 1_555
C5_12 C6_12 1_555 1_555
C11_12 C12_12 1_555 1_555
Zn4_3 O2_13 1_555 1_555
O1_9 C1_13 1_555 1_555
O2_13 H1_13 1_555 1_555
H2_13 O2_13 1_555 1_555
O6_8 Zn4_3 1_555 1_555
O7_2 C13_13 1_555 1_555
N1_13 Zn4_3 1_555 1_555
C1_13 O6_8 1_555 1_555
C2_13 N1_13 1_555 1_555
C3_13 C2_13 1_555 1_555
H3_13 C3_13 1_555 1_555
C4_13 C3_13 1_555 1_555
H4_13 C4_13 1_555 1_555
C5_13 C4_13 1_555 1_555
C6_13 N1_13 1_555 1_555
H5_13 C6_13 1_555 1_555
C7_13 C5_13 1_555 1_555
C8_13 C7_13 1_555 1_555
H6_13 C8_13 1_555 1_555
C9_13 C8_13 1_555 1_555
C12_13 C7_13 1_555 1_555
H9_13 C12_13 1_555 1_555
C13_13 C9_13 1_555 1_555
O6_10 Zn4_3 1_555 1_555
C1_13 C2_13 1_555 1_555
C5_13 C6_13 1_555 1_555
H7_13 C10_13 1_555 1_555
C11_13 C10_13 1_555 1_555
H8_13 C11_13 1_555 1_555
O2_14 H1_14 1_555 1_555
H2_14 O2_14 1_555 1_555
O1_10 C1_14 1_555 1_555
O6_9 Zn4 1_555 1_555
O7_3 C13_14 1_555 1_555
N1_14 Zn4 1_555 1_555
C1_14 O6_9 1_555 1_555
C2_14 N1_14 1_555 1_555
C3_14 C2_14 1_555 1_555
H3_14 C3_14 1_555 1_555
C4_14 C3_14 1_555 1_555
H4_14 C4_14 1_555 1_555
C5_14 C4_14 1_555 1_555
C6_14 N1_14 1_555 1_555
H5_14 C6_14 1_555 1_555
C7_14 C5_14 1_555 1_555
C8_14 C7_14 1_555 1_555
H6_14 C8_14 1_555 1_555
C9_14 C8_14 1_555 1_555
C12_14 C7_14 1_555 1_555
H9_14 C12_14 1_555 1_555
C13_14 C9_14 1_555 1_555
C1_14 C2_14 1_555 1_555
C5_14 C6_14 1_555 1_555
H7_14 C10_14 1_555 1_555
C11_14 C10_14 1_555 1_555
H8_14 C11_14 1_555 1_555
O1_11 C1_15 1_555 1_555
O6_7 Zn4_2 1_555 1_555
O7 C13_15 1_555 1_555
N1_15 Zn4_2 1_555 1_555
C1_15 O6_7 1_555 1_555
C2_15 N1_15 1_555 1_555
C3_15 C2_15 1_555 1_555
H3_15 C3_15 1_555 1_555
C4_15 C3_15 1_555 1_555
H4_15 C4_15 1_555 1_555
C5_15 C4_15 1_555 1_555
C6_15 N1_15 1_555 1_555
H5_15 C6_15 1_555 1_555
C7_15 C5_15 1_555 1_555
C8_15 C7_15 1_555 1_555
H6_15 C8_15 1_555 1_555
C9_15 C8_15 1_555 1_555
C12_15 C7_15 1_555 1_555
H9_15 C12_15 1_555 1_555
C13_15 C9_15 1_555 1_555
C1_15 C2_15 1_555 1_555
C5_15 C6_15 1_555 1_555
H7_15 C10_15 1_555 1_555
C11_15 C10_15 1_555 1_555
H8_15 C11_15 1_555 1_555
O2_15 H1_15 1_555 1_555
H2_15 O2_15 1_555 1_555
Zn3_5 O2_16 1_555 1_555
O1_12 C1_16 1_555 1_555
O2_16 H1_16 1_555 1_555
H2_16 O2_16 1_555 1_555
O6_11 Zn3_5 1_555 1_555
N1_16 Zn3_5 1_555 1_555
C1_16 O6_11 1_555 1_555
C2_16 N1_16 1_555 1_555
C3_16 C2_16 1_555 1_555
H3_16 C3_16 1_555 1_555
C4_16 C3_16 1_555 1_555
H4_16 C4_16 1_555 1_555
C1_16 C2_16 1_555 1_555
O7_8 C13_16 1_555 1_555
O8_6 C13_16 1_555 1_555
H5_16 C6_16 1_555 1_555
C7_16 C5_16 1_555 1_555
C8_16 C7_16 1_555 1_555
H6_16 C8_16 1_555 1_555
C9_16 C8_16 1_555 1_555
C10_16 C9_16 1_555 1_555
H7_16 C10_16 1_555 1_555
C11_16 C10_16 1_555 1_555
H8_16 C11_16 1_555 1_555
C12_16 C7_16 1_555 1_555
H9_16 C12_16 1_555 1_555
C13_16 C9_16 1_555 1_555
C5_16 C6_16 1_555 1_555
C11_16 C12_16 1_555 1_555
Zn3_6 O2_17 1_555 1_555
O1_13 C1_17 1_555 1_555
O2_17 H1_17 1_555 1_555
H2_17 O2_17 1_555 1_555
O6_12 Zn3_6 1_555 1_555
N1_17 Zn3_6 1_555 1_555
C1_17 O6_12 1_555 1_555
C2_17 N1_17 1_555 1_555
C3_17 C2_17 1_555 1_555
H3_17 C3_17 1_555 1_555
C4_17 C3_17 1_555 1_555
H4_17 C4_17 1_555 1_555
C1_17 C2_17 1_555 1_555
O7_9 C13_17 1_555 1_555
O8_4 C13_17 1_555 1_555
H5_17 C6_17 1_555 1_555
C7_17 C5_17 1_555 1_555
C8_17 C7_17 1_555 1_555
H6_17 C8_17 1_555 1_555
C9_17 C8_17 1_555 1_555
C10_17 C9_17 1_555 1_555
H7_17 C10_17 1_555 1_555
C11_17 C10_17 1_555 1_555
H8_17 C11_17 1_555 1_555
C12_17 C7_17 1_555 1_555
H9_17 C12_17 1_555 1_555
C13_17 C9_17 1_555 1_555
C5_17 C6_17 1_555 1_555
C11_17 C12_17 1_555 1_555
Zn3_4 O2_18 1_555 1_555
O1_14 C1_18 1_555 1_555
O2_18 H1_18 1_555 1_555
H2_18 O2_18 1_555 1_555
O6_10 Zn3_4 1_555 1_555
N1_18 Zn3_4 1_555 1_555
C1_18 O6_10 1_555 1_555
C2_18 N1_18 1_555 1_555
C3_18 C2_18 1_555 1_555
H3_18 C3_18 1_555 1_555
C4_18 C3_18 1_555 1_555
H4_18 C4_18 1_555 1_555
C1_18 C2_18 1_555 1_555
O7_7 C13_18 1_555 1_555
O8_5 C13_18 1_555 1_555
H5_18 C6_18 1_555 1_555
C7_18 C5_18 1_555 1_555
C8_18 C7_18 1_555 1_555
H6_18 C8_18 1_555 1_555
C9_18 C8_18 1_555 1_555
C10_18 C9_18 1_555 1_555
H7_18 C10_18 1_555 1_555
C11_18 C10_18 1_555 1_555
H8_18 C11_18 1_555 1_555
C12_18 C7_18 1_555 1_555
H9_18 C12_18 1_555 1_555
C13_18 C9_18 1_555 1_555
C5_18 C6_18 1_555 1_555
C11_18 C12_18 1_555 1_555

#END
