
###############################################################################
#
# This file contains modified crystal structure data generated from the
# MOF subset of the Cambridge Structural Database (CSD) v543 
# hosted by the Cambridge Crystallographic Data Centre (CCDC).
#
# This work is licensed under the Creative Commons
# Attribution-NonCommercial-ShareAlike 4.0 International License.
# To view a copy of this license, visit
# http://creativecommons.org/licenses/by-nc-sa/4.0/
# or send a letter to
# Creative Commons, PO Box 1866, Mountain View, CA 94042, USA.
#
# CIF created using the CSD Python API on 29 September 2022
# The structure has been converted into the P1 space group
# The structure has a 3D framework
# The original CSD entry XEGSIO is in the hexagonal crystal system
# The original CSD entry XEGSIO is in a Sohncke space group
# The framework has been calculated to contain at least 10.0% void space
# The void calculation uses a probe of radius 1.32A, grid spacing 0.4
#
###############################################################################

data_XEGSIO
_chemical_formula_moiety         '(C204 H96 F72 Mn6 O48 Zn6)n'
_symmetry_cell_setting           triclinic
_symmetry_space_group_name_H-M   'P 1'
_symmetry_Int_Tables_number      1
_space_group_name_Hall           'P 1'
loop_
_symmetry_equiv_pos_site_id
_symmetry_equiv_pos_as_xyz
1 x,y,z
_cell_length_a                   21.2887(5)
_cell_length_b                   21.2887(5)
_cell_length_c                   15.1272(5)
_cell_angle_alpha                90
_cell_angle_beta                 90
_cell_angle_gamma                120
_cell_volume                     5937.28
loop_
_atom_site_label
_atom_site_type_symbol
_atom_site_fract_x
_atom_site_fract_y
_atom_site_fract_z
F8 F 0.0938(4) 0.7959(3) 0.0186(4)
O5 O 0.2557(3) 0.6303(2) 0.8120(3)
C18 C 0.0204(6) 0.7326(4) 0.8961(5)
F9 F 0.0120(4) 0.8057(3) 0.7793(4)
C19 C 0.1037(5) 0.6813(4) 0.9102(4)
H9 H 0.0839 0.6659 0.9662
F11 F 0.0159(4) 0.8264(3) 0.9790(5)
F12 F 0.1109(4) 0.8570(3) 0.9011(5)
C21 C 0.1868(4) 0.6898(3) 0.7977(4)
C22 C 0.1647(5) 0.7295(4) 0.7459(4)
H11 H 0.1859 0.7466 0.6909
C24 C 0.1120(6) 0.7435(4) 0.7755(4)
H12 H 0.0979 0.7702 0.7405
C27 C 0.0795(4) 0.7182(3) 0.8573(5)
C31 C 0.1569(5) 0.6671(4) 0.8806(4)
H15 H 0.1725 0.6422 0.9167
C33 C 0.0607(6) 0.8042(4) 0.9495(7)
O7 O 0.2668(3) 0.6918(2) 0.6877(3)
C34 C 0.2412(4) 0.6710(3) 0.7621(3)
Zn3 Zn 0.28303(3) 0.56607(5) 0.7500
Mn4 Mn 0.35153(6) 0.67576(3) 0.9167
Mn6 Mn 0.32424(3) 0.67577(7) 0.5834
Zn1 Zn 0.71697(3) 0.43393(5) 0.2500
Mn1 Mn 0.64847(6) 0.32424(3) 0.4167
O1 O 0.3746(2) 0.6303(2) 0.6880(3)
F1 F 0.7381(3) 0.6910(4) 0.7383(4)
F2 F 0.7021(3) 0.7959(3) 0.4814(4)
C1 C 0.7122(4) 0.7326(4) 0.6039(5)
O2 O 0.6557(3) 0.4246(2) 0.4420(3)
F3 F 0.7937(3) 0.8057(3) 0.7207(4)
F4 F 0.8244(3) 0.7410(4) 0.6440(5)
C2 C 0.5776(3) 0.6813(4) 0.5898(4)
H1 H 0.5820 0.6659 0.5338
F5 F 0.8105(3) 0.8264(3) 0.5210(5)
F6 F 0.7461(3) 0.8570(3) 0.5989(5)
C3 C 0.7182(4) 0.6150(4) 0.4155(5)
H2 H 0.7350 0.6205 0.3577
C4 C 0.5030(3) 0.6898(3) 0.7023(4)
C5 C 0.5648(3) 0.7295(4) 0.7541(4)
H3 H 0.5607 0.7466 0.8091
C6 C 0.6845(3) 0.5471(3) 0.4542(4)
C7 C 0.6315(4) 0.7435(4) 0.7245(4)
H4 H 0.6723 0.7702 0.7595
C8 C 0.7675(4) 0.7430(6) 0.6778(7)
C9 C 0.6793(3) 0.4842(3) 0.4048(4)
C10 C 0.6387(3) 0.7182(3) 0.6427(5)
C11 C 0.7016(3) 0.6676(3) 0.5470(5)
C12 C 0.6589(4) 0.5397(4) 0.5401(4)
H5 H 0.6361 0.4943 0.5669
C13 C 0.7272(4) 0.6747(4) 0.4624(5)
H6 H 0.7510 0.7203 0.4361
C14 C 0.5102(3) 0.6671(4) 0.6194(4)
H7 H 0.4697 0.6422 0.5833
C15 C 0.6671(4) 0.5995(4) 0.5860(5)
H8 H 0.6493 0.5940 0.6434
C16 C 0.7435(5) 0.8042(4) 0.5505(7)
O3 O 0.4250(2) 0.6918(2) 0.8123(3)
O4 O 0.7015(3) 0.4965(3) 0.3251(3)
C17 C 0.4298(3) 0.6710(3) 0.7379(3)
O6 O 0.7689(4) 0.4246(2) 0.0580(3)
C20 C 0.8968(6) 0.6150(4) 0.0845(5)
H10 H 0.8855 0.6205 0.1423
C23 C 0.8626(4) 0.5471(3) 0.0458(4)
C26 C 0.8049(4) 0.4842(3) 0.0952(4)
C30 C 0.9475(6) 0.6747(4) 0.0376(5)
H14 H 0.9693 0.7203 0.0639
O8 O 0.7950(4) 0.4965(3) 0.1749(3)
Mn2 Mn 0.67576(3) 0.32423(7) 0.0834
O9 O 0.7443(3) 0.3746(2) 0.5213(3)
O10 O 0.6254(2) 0.3697(2) 0.1880(3)
O11 O 0.7443(3) 0.3697(2) 0.3120(3)
O12 O 0.6557(3) 0.2311(4) 0.3913(3)
O13 O 0.5750(2) 0.3082(2) 0.3123(3)
O14 O 0.5750(2) 0.2668(3) 0.5210(3)
F7 F 0.9529(5) 0.6910(4) 0.7617(4)
F10 F 0.9166(5) 0.7410(4) 0.8560(5)
C25 C 0.9755(7) 0.7430(6) 0.8222(7)
C28 C 0.9660(4) 0.6676(3) 0.9530(5)
C29 C 0.8808(6) 0.5397(4) 0.9599(4)
H13 H 0.8582 0.4943 0.9331
C32 C 0.9324(6) 0.5995(4) 0.9140(5)
H16 H 0.9447 0.5940 0.8566
O5_2 O 0.6254(4) 0.2557(3) 0.6453(3)
F8_2 F 0.2979(5) 0.0938(4) 0.8519(4)
C18_2 C 0.2878(7) 0.0204(6) 0.7294(5)
F9_2 F 0.2063(5) 0.0120(4) 0.6126(4)
C19_2 C 0.4224(6) 0.1037(5) 0.7435(4)
H9_2 H 0.4180 0.0839 0.7995
F11_2 F 0.1895(5) 0.0159(4) 0.8123(5)
F12_2 F 0.2539(5) 0.1109(4) 0.7344(5)
C21_2 C 0.4970(5) 0.1868(4) 0.6310(4)
C22_2 C 0.4352(6) 0.1647(5) 0.5792(4)
H11_2 H 0.4393 0.1859 0.5242
C24_2 C 0.3685(7) 0.1120(6) 0.6088(4)
H12_2 H 0.3277 0.0979 0.5738
C27_2 C 0.3613(5) 0.0795(4) 0.6906(5)
C31_2 C 0.4898(6) 0.1569(5) 0.7139(4)
H15_2 H 0.5303 0.1725 0.7500
C33_2 C 0.2565(7) 0.0607(6) 0.7828(7)
C34_2 C 0.5702(5) 0.2412(4) 0.5954(3)
Zn3_2 Zn 0.71696(6) 0.28303(3) 0.5833
Mn4_2 Mn 0.67577(7) 0.35153(6) 0.7500
Zn1_2 Zn 0.28304(6) 0.71697(3) 0.0833
Mn1_2 Mn 0.32423(7) 0.64847(6) 0.2500
F1_2 F 0.0471(5) 0.7381(3) 0.5716(4)
O2_2 O 0.2311(4) 0.6557(3) 0.2753(3)
F4_2 F 0.0834(5) 0.8244(3) 0.4773(5)
C3_2 C 0.1032(6) 0.7182(4) 0.2488(5)
H2_2 H 0.1145 0.7350 0.1910
C6_2 C 0.1374(4) 0.6845(3) 0.2875(4)
C8_2 C 0.0245(7) 0.7675(4) 0.5111(7)
C9_2 C 0.1951(4) 0.6793(3) 0.2381(4)
C11_2 C 0.0340(4) 0.7016(3) 0.3803(5)
C12_2 C 0.1192(6) 0.6589(4) 0.3734(4)
H5_2 H 0.1418 0.6361 0.4002
C13_2 C 0.0525(6) 0.7272(4) 0.2957(5)
H6_2 H 0.0307 0.7510 0.2694
C15_2 C 0.0676(6) 0.6671(4) 0.4193(5)
H8_2 H 0.0553 0.6493 0.4767
O4_2 O 0.2050(4) 0.7015(3) 0.1584(3)
O8_2 O 0.2985(5) 0.7950(4) 0.0082(3)
O9_2 O 0.3697(4) 0.7443(3) 0.3547(3)
O10_2 O 0.2557(3) 0.6254(2) 0.0213(3)
O11_2 O 0.3746(4) 0.7443(3) 0.1453(3)
O12_2 O 0.4246(5) 0.6557(3) 0.2247(3)
O13_2 O 0.2668(3) 0.5750(2) 0.1456(3)
O14_2 O 0.3082(4) 0.5750(2) 0.3544(3)
F7_2 F 0.2619(6) 0.9529(5) 0.5950(4)
O6_2 O 0.3443(4) 0.7689(4) 0.8913(3)
F10_2 F 0.1756(6) 0.9166(5) 0.6893(5)
C20_2 C 0.2818(7) 0.8968(6) 0.9178(5)
H10_2 H 0.2650 0.8855 0.9756
C23_2 C 0.3155(5) 0.8626(4) 0.8791(4)
C25_2 C 0.2325(9) 0.9755(7) 0.6555(7)
C26_2 C 0.3207(5) 0.8049(4) 0.9285(4)
C28_2 C 0.2984(5) 0.9660(4) 0.7863(5)
C29_2 C 0.3411(7) 0.8808(6) 0.7932(4)
H13_2 H 0.3639 0.8582 0.7664
C30_2 C 0.2728(7) 0.9475(6) 0.8709(5)
H14_2 H 0.2490 0.9693 0.8972
C32_2 C 0.3329(7) 0.9324(6) 0.7473(5)
H16_2 H 0.3507 0.9447 0.6899
F2_2 F 0.9062(4) 0.7021(3) 0.3147(4)
C1_2 C 0.9796(6) 0.7122(4) 0.4372(5)
F3_2 F 0.9880(4) 0.7937(3) 0.5540(4)
C2_2 C 0.8963(5) 0.5776(3) 0.4231(4)
H1_2 H 0.9161 0.5820 0.3671
F5_2 F 0.9841(4) 0.8105(3) 0.3543(5)
F6_2 F 0.8891(4) 0.7461(3) 0.4322(5)
C4_2 C 0.8132(4) 0.5030(3) 0.5356(4)
C5_2 C 0.8353(5) 0.5648(3) 0.5874(4)
H3_2 H 0.8141 0.5607 0.6424
C7_2 C 0.8880(6) 0.6315(4) 0.5578(4)
H4_2 H 0.9021 0.6723 0.5928
C10_2 C 0.9205(4) 0.6387(3) 0.4760(5)
C14_2 C 0.8431(5) 0.5102(3) 0.4527(4)
H7_2 H 0.8275 0.4697 0.4166
C16_2 C 0.9393(6) 0.7435(5) 0.3838(7)
O3_2 O 0.7332(3) 0.4250(2) 0.6456(3)
C17_2 C 0.7588(4) 0.4298(3) 0.5712(3)
F1_3 F 0.3090(4) 0.0471(5) 0.4050(4)
O2_3 O 0.5754(2) 0.2311(4) 0.1087(3)
F4_3 F 0.2590(4) 0.0834(5) 0.3107(5)
C3_3 C 0.3850(4) 0.1032(6) 0.0822(5)
H2_3 H 0.3795 0.1145 0.0244
C6_3 C 0.4529(3) 0.1374(4) 0.1209(4)
C8_3 C 0.2570(6) 0.0245(7) 0.3445(7)
C9_3 C 0.5158(3) 0.1951(4) 0.0715(4)
C11_3 C 0.3324(3) 0.0340(4) 0.2137(5)
C12_3 C 0.4603(4) 0.1192(6) 0.2068(4)
H5_3 H 0.5057 0.1418 0.2336
C13_3 C 0.3253(4) 0.0525(6) 0.1291(5)
H6_3 H 0.2797 0.0307 0.1028
C15_3 C 0.4005(4) 0.0676(6) 0.2527(5)
H8_3 H 0.4060 0.0553 0.3101
O14_3 O 0.7332(3) 0.3082(4) 0.1877(3)
Zn1_3 Zn 0.56607(5) 0.28304(6) 0.9167
O4_3 O 0.5035(3) 0.2050(4) 0.9918(3)
O5_3 O 0.3697(2) 0.6254(4) 0.4787(3)
F7_3 F 0.3090(4) 0.2619(6) 0.4284(4)
F8_3 F 0.2041(3) 0.2979(5) 0.6853(4)
C18_3 C 0.2674(4) 0.2878(7) 0.5628(5)
O6_3 O 0.5754(2) 0.3443(4) 0.7247(3)
F9_3 F 0.1943(3) 0.2063(5) 0.4460(4)
F10_3 F 0.2590(4) 0.1756(6) 0.5227(5)
C19_3 C 0.3187(4) 0.4224(6) 0.5769(4)
H9_3 H 0.3341 0.4180 0.6329
F11_3 F 0.1736(3) 0.1895(5) 0.6457(5)
F12_3 F 0.1430(3) 0.2539(5) 0.5678(5)
C20_3 C 0.3850(4) 0.2818(7) 0.7512(5)
H10_3 H 0.3795 0.2650 0.8090
C21_3 C 0.3102(3) 0.4970(5) 0.4644(4)
C22_3 C 0.2705(4) 0.4352(6) 0.4126(4)
H11_3 H 0.2534 0.4393 0.3576
C23_3 C 0.4529(3) 0.3155(5) 0.7125(4)
C24_3 C 0.2565(4) 0.3685(7) 0.4422(4)
H12_3 H 0.2298 0.3277 0.4072
C25_3 C 0.2570(6) 0.2325(9) 0.4889(7)
C26_3 C 0.5158(3) 0.3207(5) 0.7619(4)
C27_3 C 0.2818(3) 0.3613(5) 0.5240(5)
C28_3 C 0.3324(3) 0.2984(5) 0.6197(5)
C29_3 C 0.4603(4) 0.3411(7) 0.6266(4)
H13_3 H 0.5057 0.3639 0.5998
C30_3 C 0.3253(4) 0.2728(7) 0.7043(5)
H14_3 H 0.2797 0.2490 0.7306
C31_3 C 0.3329(4) 0.4898(6) 0.5473(4)
H15_3 H 0.3578 0.5303 0.5834
C32_3 C 0.4005(4) 0.3329(7) 0.5807(5)
H16_3 H 0.4060 0.3507 0.5233
C33_3 C 0.1958(4) 0.2565(7) 0.6162(7)
O8_3 O 0.5035(3) 0.2985(5) 0.8416(3)
C34_3 C 0.3290(3) 0.5702(5) 0.4288(3)
Zn3_3 Zn 0.43393(5) 0.71696(6) 0.4167
O10_3 O 0.6303(2) 0.2557(3) 0.8547(3)
O11_3 O 0.6303(2) 0.3746(4) 0.9787(3)
O13_3 O 0.6918(2) 0.2668(3) 0.9790(3)
F2_3 F 0.2041(3) 0.9062(4) 0.1481(4)
C1_3 C 0.2674(4) 0.9796(6) 0.2706(5)
F3_3 F 0.1943(3) 0.9880(4) 0.3874(4)
C2_3 C 0.3187(4) 0.8963(5) 0.2565(4)
H1_3 H 0.3341 0.9161 0.2005
F5_3 F 0.1736(3) 0.9841(4) 0.1877(5)
F6_3 F 0.1430(3) 0.8891(4) 0.2656(5)
C4_3 C 0.3102(3) 0.8132(4) 0.3690(4)
C5_3 C 0.2705(4) 0.8353(5) 0.4208(4)
H3_3 H 0.2534 0.8141 0.4758
C7_3 C 0.2565(4) 0.8880(6) 0.3912(4)
H4_3 H 0.2298 0.9021 0.4262
C10_3 C 0.2818(3) 0.9205(4) 0.3094(5)
C14_3 C 0.3329(4) 0.8431(5) 0.2861(4)
H7_3 H 0.3578 0.8275 0.2500
C16_3 C 0.1958(4) 0.9393(6) 0.2172(7)
O3_3 O 0.3082(2) 0.7332(3) 0.4790(3)
C17_3 C 0.3290(3) 0.7588(4) 0.4046(3)
F1_4 F 0.2619(3) 0.3090(4) 0.2383(4)
C1_4 C 0.2878(4) 0.2674(4) 0.1039(5)
F3_4 F 0.2063(3) 0.1943(3) 0.2207(4)
F4_4 F 0.1756(3) 0.2590(4) 0.1440(5)
C2_4 C 0.4224(3) 0.3187(4) 0.0898(4)
H1_4 H 0.4180 0.3341 0.0338
F5_4 F 0.1895(3) 0.1736(3) 0.0210(5)
F6_4 F 0.2539(3) 0.1430(3) 0.0989(5)
C4_4 C 0.4970(3) 0.3102(3) 0.2023(4)
C5_4 C 0.4352(3) 0.2705(4) 0.2541(4)
H3_4 H 0.4393 0.2534 0.3091
C7_4 C 0.3685(4) 0.2565(4) 0.2245(4)
H4_4 H 0.3277 0.2298 0.2595
C8_4 C 0.2325(4) 0.2570(6) 0.1778(7)
C10_4 C 0.3613(3) 0.2818(3) 0.1427(5)
C11_4 C 0.2984(3) 0.3324(3) 0.0470(5)
C12_4 C 0.3411(4) 0.4603(4) 0.0401(4)
H5_4 H 0.3639 0.5057 0.0669
C14_4 C 0.4898(3) 0.3329(4) 0.1194(4)
H7_4 H 0.5303 0.3578 0.0833
C15_4 C 0.3329(4) 0.4005(4) 0.0860(5)
H8_4 H 0.3507 0.4060 0.1434
C16_4 C 0.2565(5) 0.1958(4) 0.0505(7)
C17_4 C 0.5702(3) 0.3290(3) 0.2379(3)
O14_4 O 0.4250(2) 0.7332(3) 0.0210(3)
F2_4 F 0.2979(3) 0.2041(3) 0.9814(4)
O2_4 O 0.3443(3) 0.5754(2) 0.9420(3)
C3_4 C 0.2818(4) 0.3850(4) 0.9155(5)
H2_4 H 0.2650 0.3795 0.8577
C6_4 C 0.3155(3) 0.4529(3) 0.9542(4)
C9_4 C 0.3207(3) 0.5158(3) 0.9048(4)
C13_4 C 0.2728(4) 0.3253(4) 0.9624(5)
H6_4 H 0.2490 0.2797 0.9361
O4_4 O 0.2985(3) 0.5035(3) 0.8251(3)
F7_4 F 0.0471(5) 0.3090(4) 0.2617(4)
O6_4 O 0.2311(4) 0.5754(2) 0.5580(3)
F10_4 F 0.0834(5) 0.2590(4) 0.3560(5)
C20_4 C 0.1032(6) 0.3850(4) 0.5845(5)
H10_4 H 0.1145 0.3795 0.6423
C23_4 C 0.1374(4) 0.4529(3) 0.5458(4)
C25_4 C 0.0245(7) 0.2570(6) 0.3222(7)
C26_4 C 0.1951(4) 0.5158(3) 0.5952(4)
C28_4 C 0.0340(4) 0.3324(3) 0.4530(5)
C29_4 C 0.1192(6) 0.4603(4) 0.4599(4)
H13_4 H 0.1418 0.5057 0.4331
C30_4 C 0.0525(6) 0.3253(4) 0.5376(5)
H14_4 H 0.0307 0.2797 0.5639
C32_4 C 0.0676(6) 0.4005(4) 0.4140(5)
H16_4 H 0.0553 0.4060 0.3566
O8_4 O 0.2050(4) 0.5035(3) 0.6749(3)
F8_4 F 0.9062(4) 0.2041(3) 0.5186(4)
C18_4 C 0.9796(6) 0.2674(4) 0.3961(5)
F9_4 F 0.9880(4) 0.1943(3) 0.2793(4)
C19_4 C 0.8963(5) 0.3187(4) 0.4102(4)
H9_4 H 0.9161 0.3341 0.4662
F11_4 F 0.9841(4) 0.1736(3) 0.4790(5)
F12_4 F 0.8891(4) 0.1430(3) 0.4011(5)
C21_4 C 0.8132(4) 0.3102(3) 0.2977(4)
C22_4 C 0.8353(5) 0.2705(4) 0.2459(4)
H11_4 H 0.8141 0.2534 0.1909
C24_4 C 0.8880(6) 0.2565(4) 0.2755(4)
H12_4 H 0.9021 0.2298 0.2405
C27_4 C 0.9205(4) 0.2818(3) 0.3573(5)
C31_4 C 0.8431(5) 0.3329(4) 0.3806(4)
H15_4 H 0.8275 0.3578 0.4167
C33_4 C 0.9393(6) 0.1958(4) 0.4495(7)
C34_4 C 0.7588(4) 0.3290(3) 0.2621(3)
F3_5 F 0.0120(4) 0.2063(3) 0.0540(4)
C4_5 C 0.1868(4) 0.4970(3) 0.0356(4)
C5_5 C 0.1647(5) 0.4352(3) 0.0874(4)
H3_5 H 0.1859 0.4393 0.1424
C7_5 C 0.1120(6) 0.3685(4) 0.0578(4)
H4_5 H 0.0979 0.3277 0.0928
C17_5 C 0.2412(4) 0.5702(3) 0.0712(3)
F2_5 F 0.0938(4) 0.2979(3) 0.8147(4)
C1_5 C 0.0204(6) 0.2878(4) 0.9372(5)
C2_5 C 0.1037(5) 0.4224(3) 0.9231(4)
H1_5 H 0.0839 0.4180 0.8671
F5_5 F 0.0159(4) 0.1895(3) 0.8543(5)
F6_5 F 0.1109(4) 0.2539(3) 0.9322(5)
C10_5 C 0.0795(4) 0.3613(3) 0.9760(5)
C14_5 C 0.1569(5) 0.4898(3) 0.9527(4)
H7_5 H 0.1725 0.5303 0.9166
C16_5 C 0.0607(6) 0.2565(5) 0.8838(7)
O2_5 O 0.7689(4) 0.3443(3) 0.7753(3)
F4_5 F 0.9166(5) 0.1756(3) 0.9773(5)
C3_5 C 0.8968(6) 0.2818(4) 0.7488(5)
H2_5 H 0.8855 0.2650 0.6910
C6_5 C 0.8626(4) 0.3155(3) 0.7875(4)
C9_5 C 0.8049(4) 0.3207(3) 0.7381(4)
C11_5 C 0.9660(4) 0.2984(3) 0.8803(5)
C12_5 C 0.8808(6) 0.3411(4) 0.8734(4)
H5_5 H 0.8582 0.3639 0.9002
C13_5 C 0.9475(6) 0.2728(4) 0.7957(5)
H6_5 H 0.9693 0.2490 0.7694
C15_5 C 0.9324(6) 0.3329(4) 0.9193(5)
H8_5 H 0.9447 0.3507 0.9767
O4_5 O 0.7950(4) 0.2985(3) 0.6584(3)
F7_5 F 0.7381(6) 0.0471(5) 0.0950(4)
F10_5 F 0.8244(6) 0.0834(5) 0.1893(5)
C20_5 C 0.7182(7) 0.1032(6) 0.4178(5)
H10_5 H 0.7350 0.1145 0.4756
C23_5 C 0.6845(5) 0.1374(4) 0.3791(4)
C25_5 C 0.7675(9) 0.0245(7) 0.1555(7)
C26_5 C 0.6793(5) 0.1951(4) 0.4285(4)
C28_5 C 0.7016(5) 0.0340(4) 0.2863(5)
C29_5 C 0.6589(7) 0.1192(6) 0.2932(4)
H13_5 H 0.6361 0.1418 0.2664
C30_5 C 0.7272(7) 0.0525(6) 0.3709(5)
H14_5 H 0.7510 0.0307 0.3972
C32_5 C 0.6671(7) 0.0676(6) 0.2473(5)
H16_5 H 0.6493 0.0553 0.1899
O8_5 O 0.7015(5) 0.2050(4) 0.5082(3)
O14_5 O 0.6918(4) 0.4250(2) 0.8544(3)
F8_5 F 0.7021(5) 0.9062(4) 0.3519(4)
C18_5 C 0.7122(7) 0.9796(6) 0.2294(5)
F9_5 F 0.7937(5) 0.9880(4) 0.1126(4)
C19_5 C 0.5776(6) 0.8963(5) 0.2435(4)
H9_5 H 0.5820 0.9161 0.2995
F11_5 F 0.8105(5) 0.9841(4) 0.3123(5)
F12_5 F 0.7461(5) 0.8891(4) 0.2344(5)
C21_5 C 0.5030(5) 0.8132(4) 0.1310(4)
C22_5 C 0.5648(6) 0.8353(5) 0.0792(4)
H11_5 H 0.5607 0.8141 0.0242
C24_5 C 0.6315(7) 0.8880(6) 0.1088(4)
H12_5 H 0.6723 0.9021 0.0738
C27_5 C 0.6387(5) 0.9205(4) 0.1906(5)
C31_5 C 0.5102(6) 0.8431(5) 0.2139(4)
H15_5 H 0.4697 0.8275 0.2500
C33_5 C 0.7435(7) 0.9393(6) 0.2828(7)
C34_5 C 0.4298(5) 0.7588(4) 0.0954(3)
F2_6 F 0.7959(3) 0.0938(4) 0.6481(4)
C1_6 C 0.7326(4) 0.0204(6) 0.7706(5)
F3_6 F 0.8057(3) 0.0120(4) 0.8874(4)
C2_6 C 0.6813(4) 0.1037(5) 0.7565(4)
H1_6 H 0.6659 0.0839 0.7005
F5_6 F 0.8264(3) 0.0159(4) 0.6877(5)
F6_6 F 0.8570(3) 0.1109(4) 0.7656(5)
C4_6 C 0.6898(3) 0.1868(4) 0.8690(4)
C5_6 C 0.7295(4) 0.1647(5) 0.9208(4)
H3_6 H 0.7466 0.1859 0.9758
C7_6 C 0.7435(4) 0.1120(6) 0.8912(4)
H4_6 H 0.7702 0.0979 0.9262
C10_6 C 0.7182(3) 0.0795(4) 0.8094(5)
C14_6 C 0.6671(4) 0.1569(5) 0.7861(4)
H7_6 H 0.6422 0.1725 0.7500
C16_6 C 0.8042(4) 0.0607(6) 0.7172(7)
C17_6 C 0.6710(3) 0.2412(4) 0.9046(3)
F1_5 F 0.6910(4) 0.9529(5) 0.9050(4)
O2_6 O 0.4246(2) 0.7689(4) 0.6087(3)
F4_6 F 0.7410(4) 0.9166(5) 0.8107(5)
C3_6 C 0.6150(4) 0.8968(6) 0.5822(5)
H2_6 H 0.6205 0.8855 0.5244
C6_6 C 0.5471(3) 0.8626(4) 0.6209(4)
C8_5 C 0.7430(6) 0.9755(7) 0.8445(7)
C9_6 C 0.4842(3) 0.8049(4) 0.5715(4)
C11_6 C 0.6676(3) 0.9660(4) 0.7137(5)
C12_6 C 0.5397(4) 0.8808(6) 0.7068(4)
H5_6 H 0.4943 0.8582 0.7336
C13_6 C 0.6747(4) 0.9475(6) 0.6291(5)
H6_6 H 0.7203 0.9693 0.6028
C15_6 C 0.5995(4) 0.9324(6) 0.7527(5)
H8_6 H 0.5940 0.9447 0.8101
O4_6 O 0.4965(3) 0.7950(4) 0.4918(3)
F8_6 F 0.7959(3) 0.7021(5) 0.1853(4)
C18_6 C 0.7326(4) 0.7122(7) 0.0628(5)
F10_6 F 0.7410(4) 0.8244(6) 0.0227(5)
C19_6 C 0.6813(4) 0.5776(6) 0.0769(4)
H9_6 H 0.6659 0.5820 0.1329
F11_6 F 0.8264(3) 0.8105(5) 0.1457(5)
F12_6 F 0.8570(3) 0.7461(5) 0.0678(5)
C20_6 C 0.6150(4) 0.7182(7) 0.2512(5)
H10_6 H 0.6205 0.7350 0.3090
C23_6 C 0.5471(3) 0.6845(5) 0.2125(4)
C26_6 C 0.4842(3) 0.6793(5) 0.2619(4)
C27_6 C 0.7182(3) 0.6387(5) 0.0240(5)
C28_6 C 0.6676(3) 0.7016(5) 0.1197(5)
C29_6 C 0.5397(4) 0.6589(7) 0.1266(4)
H13_6 H 0.4943 0.6361 0.0998
C30_6 C 0.6747(4) 0.7272(7) 0.2043(5)
H14_6 H 0.7203 0.7510 0.2306
C31_6 C 0.6671(4) 0.5102(6) 0.0473(4)
H15_6 H 0.6422 0.4697 0.0834
C32_6 C 0.5995(4) 0.6671(7) 0.0807(5)
H16_6 H 0.5940 0.6493 0.0233
C33_6 C 0.8042(4) 0.7435(7) 0.1162(7)
O8_6 O 0.4965(3) 0.7015(5) 0.3416(3)
F7_6 F 0.6910(4) 0.7381(6) 0.9284(4)
F9_6 F 0.8057(3) 0.7937(5) 0.9460(4)
C21_6 C 0.6898(3) 0.5030(5) 0.9644(4)
C22_6 C 0.7295(4) 0.5648(6) 0.9126(4)
H11_6 H 0.7466 0.5607 0.8576
C24_6 C 0.7435(4) 0.6315(7) 0.9422(4)
H12_6 H 0.7702 0.6723 0.9072
C25_6 C 0.7430(6) 0.7675(9) 0.9889(7)
C34_6 C 0.6710(3) 0.4298(5) 0.9288(3)
F1_6 F 0.9529(5) 0.2619(3) 0.0716(4)
C8_6 C 0.9755(7) 0.2325(4) 0.0111(7)
loop_
_geom_bond_atom_site_label_1
_geom_bond_atom_site_label_2
_geom_bond_site_symmetry_1
_geom_bond_site_symmetry_2
O5 C34 1_555 1_555
C19 H9 1_555 1_555
F11 C33 1_555 1_555
F12 C33 1_555 1_555
C21 C22 1_555 1_555
C22 H11 1_555 1_555
C24 C22 1_555 1_555
H12 C24 1_555 1_555
C27 C18 1_555 1_555
C31 C19 1_555 1_555
H15 C31 1_555 1_555
C33 C18 1_555 1_555
O7 C34 1_555 1_555
C34 C21 1_555 1_555
Zn3 O5 1_555 1_555
Mn4 O5 1_555 1_555
Mn6 O7 1_555 1_555
C19 C27 1_555 1_555
C21 C31 1_555 1_555
C24 C27 1_555 1_555
Zn1 O4 1_555 1_555
Mn1 O2 1_555 1_555
O1 C17 1_555 1_555
F1 C8 1_555 1_555
F2 C16 1_555 1_555
C1 C8 1_555 1_555
O2 C9 1_555 1_555
F3 C8 1_555 1_555
F4 C8 1_555 1_555
C2 H1 1_555 1_555
F5 C16 1_555 1_555
F6 C16 1_555 1_555
C3 H2 1_555 1_555
C4 C5 1_555 1_555
C5 H3 1_555 1_555
C6 C3 1_555 1_555
C7 C5 1_555 1_555
H4 C7 1_555 1_555
C9 C6 1_555 1_555
C10 C1 1_555 1_555
C11 C1 1_555 1_555
C12 C6 1_555 1_555
H5 C12 1_555 1_555
C13 C3 1_555 1_555
H6 C13 1_555 1_555
C14 C2 1_555 1_555
H7 C14 1_555 1_555
C15 C11 1_555 1_555
H8 C15 1_555 1_555
C16 C1 1_555 1_555
O3 C17 1_555 1_555
O4 C9 1_555 1_555
C17 C4 1_555 1_555
O6 C26 1_555 1_555
C20 H10 1_555 1_555
C23 C20 1_555 1_555
C26 C23 1_555 1_555
C30 C20 1_555 1_555
H14 C30 1_555 1_555
O8 Zn1 1_555 1_555
Zn3 O1 1_555 1_555
Mn2 O6 1_555 1_555
Mn4 O3 1_555 1_555
Mn6 O1 1_555 1_555
O9 Mn1 1_555 1_555
O10 Zn1 1_555 1_555
O11 Zn1 1_555 1_555
O12 Mn1 1_555 1_555
O13 Mn1 1_555 1_555
O14 Mn1 1_555 1_555
Mn1 O11 1_555 1_555
C2 C10 1_555 1_555
C4 C14 1_555 1_555
C7 C10 1_555 1_555
C11 C13 1_555 1_555
C12 C15 1_555 1_555
C26 O8 1_555 1_555
Mn2 O10 1_555 1_555
F7 C25 1_555 1_555
F10 C25 1_555 1_555
H13 C29 1_555 1_555
C32 C28 1_555 1_555
H16 C32 1_555 1_555
C29 C32 1_555 1_555
O5_2 C34_2 1_555 1_555
F8_2 C33_2 1_555 1_555
C19_2 H9_2 1_555 1_555
F11_2 C33_2 1_555 1_555
F12_2 C33_2 1_555 1_555
C21_2 C22_2 1_555 1_555
C22_2 H11_2 1_555 1_555
C24_2 C22_2 1_555 1_555
H12_2 C24_2 1_555 1_555
C27_2 C18_2 1_555 1_555
C31_2 C19_2 1_555 1_555
H15_2 C31_2 1_555 1_555
C33_2 C18_2 1_555 1_555
O14 C34_2 1_555 1_555
C34_2 C21_2 1_555 1_555
Zn3_2 O5_2 1_555 1_555
Mn4_2 O5_2 1_555 1_555
C19_2 C27_2 1_555 1_555
C21_2 C31_2 1_555 1_555
C24_2 C27_2 1_555 1_555
Zn1_2 O4_2 1_555 1_555
Mn1_2 O2_2 1_555 1_555
F1_2 C8_2 1_555 1_555
O2_2 C9_2 1_555 1_555
F4_2 C8_2 1_555 1_555
C3_2 H2_2 1_555 1_555
C6_2 C3_2 1_555 1_555
C9_2 C6_2 1_555 1_555
C12_2 C6_2 1_555 1_555
H5_2 C12_2 1_555 1_555
C13_2 C3_2 1_555 1_555
H6_2 C13_2 1_555 1_555
C15_2 C11_2 1_555 1_555
H8_2 C15_2 1_555 1_555
O4_2 C9_2 1_555 1_555
O8_2 Zn1_2 1_555 1_555
O9_2 Mn1_2 1_555 1_555
O10_2 Zn1_2 1_555 1_555
O11_2 Zn1_2 1_555 1_555
O12_2 Mn1_2 1_555 1_555
O13_2 Mn1_2 1_555 1_555
O14_2 Mn1_2 1_555 1_555
Mn1_2 O11_2 1_555 1_555
C11_2 C13_2 1_555 1_555
C12_2 C15_2 1_555 1_555
F7_2 C25_2 1_555 1_555
O6_2 C26_2 1_555 1_555
F10_2 C25_2 1_555 1_555
C20_2 H10_2 1_555 1_555
C23_2 C20_2 1_555 1_555
C26_2 C23_2 1_555 1_555
C29_2 C23_2 1_555 1_555
H13_2 C29_2 1_555 1_555
C30_2 C20_2 1_555 1_555
H14_2 C30_2 1_555 1_555
C32_2 C28_2 1_555 1_555
H16_2 C32_2 1_555 1_555
Mn4 O6_2 1_555 1_555
C28_2 C30_2 1_555 1_555
C29_2 C32_2 1_555 1_555
O9 C17_2 1_555 1_555
F2_2 C16_2 1_555 1_555
C2_2 H1_2 1_555 1_555
F5_2 C16_2 1_555 1_555
F6_2 C16_2 1_555 1_555
C4_2 C5_2 1_555 1_555
C5_2 H3_2 1_555 1_555
C7_2 C5_2 1_555 1_555
H4_2 C7_2 1_555 1_555
C10_2 C1_2 1_555 1_555
C14_2 C2_2 1_555 1_555
H7_2 C14_2 1_555 1_555
C16_2 C1_2 1_555 1_555
O3_2 C17_2 1_555 1_555
C17_2 C4_2 1_555 1_555
Zn3_2 O9 1_555 1_555
Mn4_2 O3_2 1_555 1_555
C2_2 C10_2 1_555 1_555
C4_2 C14_2 1_555 1_555
C7_2 C10_2 1_555 1_555
Mn2 O2_3 1_555 1_555
F1_3 C8_3 1_555 1_555
O2_3 C9_3 1_555 1_555
F4_3 C8_3 1_555 1_555
C3_3 H2_3 1_555 1_555
C6_3 C3_3 1_555 1_555
C9_3 C6_3 1_555 1_555
C12_3 C6_3 1_555 1_555
H5_3 C12_3 1_555 1_555
C13_3 C3_3 1_555 1_555
H6_3 C13_3 1_555 1_555
C15_3 C11_3 1_555 1_555
H8_3 C15_3 1_555 1_555
O14_3 Mn2 1_555 1_555
C11_3 C13_3 1_555 1_555
C12_3 C15_3 1_555 1_555
Zn1_3 O4_3 1_555 1_555
O5_3 C34_3 1_555 1_555
F7_3 C25_3 1_555 1_555
F8_3 C33_3 1_555 1_555
C18_3 C25_3 1_555 1_555
O6_3 C26_3 1_555 1_555
F9_3 C25_3 1_555 1_555
F10_3 C25_3 1_555 1_555
C19_3 H9_3 1_555 1_555
F11_3 C33_3 1_555 1_555
F12_3 C33_3 1_555 1_555
C20_3 H10_3 1_555 1_555
C21_3 C22_3 1_555 1_555
C22_3 H11_3 1_555 1_555
C23_3 C20_3 1_555 1_555
C24_3 C22_3 1_555 1_555
H12_3 C24_3 1_555 1_555
C26_3 C23_3 1_555 1_555
C27_3 C18_3 1_555 1_555
C28_3 C18_3 1_555 1_555
C29_3 C23_3 1_555 1_555
H13_3 C29_3 1_555 1_555
C30_3 C20_3 1_555 1_555
H14_3 C30_3 1_555 1_555
C31_3 C19_3 1_555 1_555
H15_3 C31_3 1_555 1_555
C32_3 C28_3 1_555 1_555
H16_3 C32_3 1_555 1_555
C33_3 C18_3 1_555 1_555
O14_2 C34_3 1_555 1_555
O8_3 Zn1_3 1_555 1_555
C34_3 C21_3 1_555 1_555
Zn3_3 O5_3 1_555 1_555
Mn4_2 O6_3 1_555 1_555
Mn6 O5_3 1_555 1_555
O10_3 Zn1_3 1_555 1_555
O11_3 Zn1_3 1_555 1_555
C19_3 C27_3 1_555 1_555
C21_3 C31_3 1_555 1_555
C24_3 C27_3 1_555 1_555
C26_3 O8_3 1_555 1_555
C28_3 C30_3 1_555 1_555
C29_3 C32_3 1_555 1_555
Mn4_2 O10_3 1_555 1_555
O9_2 C17_3 1_555 1_555
F2_3 C16_3 1_555 1_555
C2_3 H1_3 1_555 1_555
F5_3 C16_3 1_555 1_555
F6_3 C16_3 1_555 1_555
C4_3 C5_3 1_555 1_555
C5_3 H3_3 1_555 1_555
C7_3 C5_3 1_555 1_555
H4_3 C7_3 1_555 1_555
C10_3 C1_3 1_555 1_555
C14_3 C2_3 1_555 1_555
H7_3 C14_3 1_555 1_555
C16_3 C1_3 1_555 1_555
O3_3 C17_3 1_555 1_555
C17_3 C4_3 1_555 1_555
Zn3_3 O9_2 1_555 1_555
Mn6 O3_3 1_555 1_555
C2_3 C10_3 1_555 1_555
C4_3 C14_3 1_555 1_555
C7_3 C10_3 1_555 1_555
O10 C17_4 1_555 1_555
F1_4 C8_4 1_555 1_555
C1_4 C8_4 1_555 1_555
F3_4 C8_4 1_555 1_555
F4_4 C8_4 1_555 1_555
C2_4 H1_4 1_555 1_555
F5_4 C16_4 1_555 1_555
F6_4 C16_4 1_555 1_555
C4_4 C5_4 1_555 1_555
C5_4 H3_4 1_555 1_555
C7_4 C5_4 1_555 1_555
H4_4 C7_4 1_555 1_555
C10_4 C1_4 1_555 1_555
C11_4 C1_4 1_555 1_555
H5_4 C12_4 1_555 1_555
C14_4 C2_4 1_555 1_555
H7_4 C14_4 1_555 1_555
C15_4 C11_4 1_555 1_555
H8_4 C15_4 1_555 1_555
C16_4 C1_4 1_555 1_555
O13 C17_4 1_555 1_555
C17_4 C4_4 1_555 1_555
C2_4 C10_4 1_555 1_555
C4_4 C14_4 1_555 1_555
C7_4 C10_4 1_555 1_555
C12_4 C15_4 1_555 1_555
Zn3 O4_4 1_555 1_555
Mn4 O2_4 1_555 1_555
O2_4 C9_4 1_555 1_555
C3_4 H2_4 1_555 1_555
C6_4 C3_4 1_555 1_555
C9_4 C6_4 1_555 1_555
C13_4 C3_4 1_555 1_555
H6_4 C13_4 1_555 1_555
O4_4 C9_4 1_555 1_555
F7_4 C25_4 1_555 1_555
O6_4 C26_4 1_555 1_555
F10_4 C25_4 1_555 1_555
C20_4 H10_4 1_555 1_555
C23_4 C20_4 1_555 1_555
C26_4 C23_4 1_555 1_555
C29_4 C23_4 1_555 1_555
H13_4 C29_4 1_555 1_555
C30_4 C20_4 1_555 1_555
H14_4 C30_4 1_555 1_555
C32_4 C28_4 1_555 1_555
H16_4 C32_4 1_555 1_555
O8_4 Zn3 1_555 1_555
Mn6 O6_4 1_555 1_555
C26_4 O8_4 1_555 1_555
C28_4 C30_4 1_555 1_555
C29_4 C32_4 1_555 1_555
O11 C34_4 1_555 1_555
F8_4 C33_4 1_555 1_555
C19_4 H9_4 1_555 1_555
F11_4 C33_4 1_555 1_555
F12_4 C33_4 1_555 1_555
C21_4 C22_4 1_555 1_555
C22_4 H11_4 1_555 1_555
C24_4 C22_4 1_555 1_555
H12_4 C24_4 1_555 1_555
C27_4 C18_4 1_555 1_555
C31_4 C19_4 1_555 1_555
H15_4 C31_4 1_555 1_555
C33_4 C18_4 1_555 1_555
O14_3 C34_4 1_555 1_555
C34_4 C21_4 1_555 1_555
C19_4 C27_4 1_555 1_555
C21_4 C31_4 1_555 1_555
C24_4 C27_4 1_555 1_555
O10_2 C17_5 1_555 1_555
C4_5 C5_5 1_555 1_555
C5_5 H3_5 1_555 1_555
C7_5 C5_5 1_555 1_555
H4_5 C7_5 1_555 1_555
O13_2 C17_5 1_555 1_555
C17_5 C4_5 1_555 1_555
F2_5 C16_5 1_555 1_555
C2_5 H1_5 1_555 1_555
F5_5 C16_5 1_555 1_555
F6_5 C16_5 1_555 1_555
C10_5 C1_5 1_555 1_555
C14_5 C2_5 1_555 1_555
H7_5 C14_5 1_555 1_555
C16_5 C1_5 1_555 1_555
C2_5 C10_5 1_555 1_555
Zn3_2 O4_5 1_555 1_555
Mn4_2 O2_5 1_555 1_555
O2_5 C9_5 1_555 1_555
C3_5 H2_5 1_555 1_555
C6_5 C3_5 1_555 1_555
C9_5 C6_5 1_555 1_555
C12_5 C6_5 1_555 1_555
H5_5 C12_5 1_555 1_555
C13_5 C3_5 1_555 1_555
H6_5 C13_5 1_555 1_555
C15_5 C11_5 1_555 1_555
H8_5 C15_5 1_555 1_555
O4_5 C9_5 1_555 1_555
F7_5 C25_5 1_555 1_555
O12 C26_5 1_555 1_555
F10_5 C25_5 1_555 1_555
C20_5 H10_5 1_555 1_555
C23_5 C20_5 1_555 1_555
C26_5 C23_5 1_555 1_555
C29_5 C23_5 1_555 1_555
H13_5 C29_5 1_555 1_555
C30_5 C20_5 1_555 1_555
H14_5 C30_5 1_555 1_555
C32_5 C28_5 1_555 1_555
H16_5 C32_5 1_555 1_555
O8_5 Zn3_2 1_555 1_555
O14_5 Mn4_2 1_555 1_555
C11_5 C13_5 1_555 1_555
C12_5 C15_5 1_555 1_555
C26_5 O8_5 1_555 1_555
C28_5 C30_5 1_555 1_555
C29_5 C32_5 1_555 1_555
O11_2 C34_5 1_555 1_555
F8_5 C33_5 1_555 1_555
C19_5 H9_5 1_555 1_555
F11_5 C33_5 1_555 1_555
F12_5 C33_5 1_555 1_555
C21_5 C22_5 1_555 1_555
C22_5 H11_5 1_555 1_555
C24_5 C22_5 1_555 1_555
H12_5 C24_5 1_555 1_555
C27_5 C18_5 1_555 1_555
C31_5 C19_5 1_555 1_555
H15_5 C31_5 1_555 1_555
C33_5 C18_5 1_555 1_555
O14_4 C34_5 1_555 1_555
C34_5 C21_5 1_555 1_555
C19_5 C27_5 1_555 1_555
C21_5 C31_5 1_555 1_555
C24_5 C27_5 1_555 1_555
O10_3 C17_6 1_555 1_555
F2_6 C16_6 1_555 1_555
C2_6 H1_6 1_555 1_555
F5_6 C16_6 1_555 1_555
F6_6 C16_6 1_555 1_555
C4_6 C5_6 1_555 1_555
C5_6 H3_6 1_555 1_555
C7_6 C5_6 1_555 1_555
H4_6 C7_6 1_555 1_555
C10_6 C1_6 1_555 1_555
C14_6 C2_6 1_555 1_555
H7_6 C14_6 1_555 1_555
C16_6 C1_6 1_555 1_555
O13_3 C17_6 1_555 1_555
C17_6 C4_6 1_555 1_555
C2_6 C10_6 1_555 1_555
C4_6 C14_6 1_555 1_555
C7_6 C10_6 1_555 1_555
Zn3_3 O4_6 1_555 1_555
Mn6 O2_6 1_555 1_555
F1_5 C8_5 1_555 1_555
O2_6 C9_6 1_555 1_555
F4_6 C8_5 1_555 1_555
C3_6 H2_6 1_555 1_555
C6_6 C3_6 1_555 1_555
C9_6 C6_6 1_555 1_555
C12_6 C6_6 1_555 1_555
H5_6 C12_6 1_555 1_555
C13_6 C3_6 1_555 1_555
H6_6 C13_6 1_555 1_555
C15_6 C11_6 1_555 1_555
H8_6 C15_6 1_555 1_555
O4_6 C9_6 1_555 1_555
F8_6 C33_6 1_555 1_555
O12_2 C26_6 1_555 1_555
C19_6 H9_6 1_555 1_555
F11_6 C33_6 1_555 1_555
F12_6 C33_6 1_555 1_555
C20_6 H10_6 1_555 1_555
C23_6 C20_6 1_555 1_555
C26_6 C23_6 1_555 1_555
C27_6 C18_6 1_555 1_555
C28_6 C18_6 1_555 1_555
C29_6 C23_6 1_555 1_555
H13_6 C29_6 1_555 1_555
C30_6 C20_6 1_555 1_555
H14_6 C30_6 1_555 1_555
C31_6 C19_6 1_555 1_555
H15_6 C31_6 1_555 1_555
C32_6 C28_6 1_555 1_555
H16_6 C32_6 1_555 1_555
C33_6 C18_6 1_555 1_555
O8_6 Zn3_3 1_555 1_555
C11_6 C13_6 1_555 1_555
C12_6 C15_6 1_555 1_555
C19_6 C27_6 1_555 1_555
C26_6 O8_6 1_555 1_555
C28_6 C30_6 1_555 1_555
C29_6 C32_6 1_555 1_555
O11_3 C34_6 1_555 1_555
F7_6 C25_6 1_555 1_555
F9_6 C25_6 1_555 1_555
C21_6 C22_6 1_555 1_555
C22_6 H11_6 1_555 1_555
C24_6 C22_6 1_555 1_555
H12_6 C24_6 1_555 1_555
O14_5 C34_6 1_555 1_555
C34_6 C21_6 1_555 1_555
F1_6 C8_6 1_555 1_555

#END
