
###############################################################################
#
# This file contains modified crystal structure data generated from the
# MOF subset of the Cambridge Structural Database (CSD) v543 
# hosted by the Cambridge Crystallographic Data Centre (CCDC).
#
# This work is licensed under the Creative Commons
# Attribution-NonCommercial-ShareAlike 4.0 International License.
# To view a copy of this license, visit
# http://creativecommons.org/licenses/by-nc-sa/4.0/
# or send a letter to
# Creative Commons, PO Box 1866, Mountain View, CA 94042, USA.
#
# CIF created using the CSD Python API on 29 September 2022
# The structure has been converted into the P1 space group
# The structure has a 3D framework
# The original CSD entry XEGVOX is in the hexagonal crystal system
# The original CSD entry XEGVOX is in a Sohncke space group
# The framework has been calculated to contain at least 10.0% void space
# The void calculation uses a probe of radius 1.32A, grid spacing 0.4
#
###############################################################################

data_XEGVOX
_chemical_formula_moiety         '(C204 H96 Co6 F72 O47 Zn6)n'
_symmetry_cell_setting           triclinic
_symmetry_space_group_name_H-M   'P 1'
_symmetry_Int_Tables_number      1
_space_group_name_Hall           'P 1'
loop_
_symmetry_equiv_pos_site_id
_symmetry_equiv_pos_as_xyz
1 x,y,z
_cell_length_a                   21.1760(8)
_cell_length_b                   21.1760(8)
_cell_length_c                   14.9203(8)
_cell_angle_alpha                90
_cell_angle_beta                 90
_cell_angle_gamma                120
_cell_volume                     5794.23
loop_
_atom_site_label
_atom_site_type_symbol
_atom_site_fract_x
_atom_site_fract_y
_atom_site_fract_z
Co4 Co 0.67571(6) 0.32429(6) 0.0833
O1 O 0.6933(4) 0.2685(4) 0.9808(6)
C4 C 0.7321(6) 0.1660(7) 0.9223(10)
H2 H 0.7493 0.1871 0.9782
C5 C 0.6723(6) 0.2432(7) 0.9046(9)
C6 C 0.6925(7) 0.1896(7) 0.8697(9)
C8 C 0.7457(7) 0.1131(9) 0.8934(10)
H4 H 0.7715 0.0983 0.9299
O4 O 0.6339(5) 0.2577(4) 0.8523(6)
C10 C 0.7337(7) 0.0199(7) 0.7727(11)
C12 C 0.6840(7) 0.1060(7) 0.7559(10)
H7 H 0.6691 0.0865 0.6988
C14 C 0.6690(7) 0.1583(7) 0.7856(9)
H8 H 0.6430 0.1730 0.7494
C15 C 0.7215(7) 0.0811(7) 0.8101(9)
F2 F 0.8603(5) 0.1110(5) 0.7630(8)
F3 F 0.8088(5) 0.0122(5) 0.8894(7)
F4 F 0.8270(5) 0.0135(5) 0.6867(7)
F5 F 0.7962(5) 0.0919(5) 0.6461(7)
C17 C 0.8052(8) 0.0586(8) 0.7157(11)
Zn3 Zn 0.56870(13) 0.28435(7) 0.9167
Co5 Co 0.67571(6) 0.35142(8) 0.7500
Zn1 Zn 0.43130(13) 0.71565(7) 0.4167
Co1 Co 0.32429(6) 0.67571(6) 0.5833
O2 O 0.4210(5) 0.7689(4) 0.6132(6)
C1 C 0.4792(7) 0.8030(7) 0.5730(9)
O3 O 0.4925(5) 0.7959(5) 0.4933(6)
C2 C 0.5431(7) 0.8612(6) 0.6243(9)
C3 C 0.6122(7) 0.8946(7) 0.5829(11)
H1 H 0.6171 0.8824 0.5244
C7 C 0.6724(7) 0.9454(7) 0.6295(10)
H3 H 0.7177 0.9675 0.6016
C9 C 0.5373(7) 0.8813(7) 0.7117(9)
H5 H 0.4920 0.8597 0.7396
C11 C 0.5983(7) 0.9330(7) 0.7570(10)
H6 H 0.5935 0.9470 0.8145
C13 C 0.6673(7) 0.9646(7) 0.7170(9)
F1 F 0.6932(5) 0.9536(5) 0.9099(6)
F6 F 0.7427(6) 0.9146(5) 0.8114(7)
C16 C 0.7469(10) 0.9758(9) 0.8462(12)
O6 O 0.2311(4) 0.5790(5) 0.5535(6)
C18 C 0.1970(7) 0.5208(7) 0.5937(9)
O7 O 0.2041(5) 0.5075(5) 0.6734(6)
C19 C 0.1388(6) 0.4569(7) 0.5424(9)
C20 C 0.1054(7) 0.3878(7) 0.5838(11)
H9 H 0.1176 0.3829 0.6423
C24 C 0.0546(7) 0.3276(7) 0.5372(10)
H11 H 0.0325 0.2823 0.5651
C26 C 0.1187(7) 0.4627(7) 0.4550(9)
H13 H 0.1403 0.5080 0.4271
C28 C 0.0670(7) 0.4017(7) 0.4097(10)
H14 H 0.0530 0.4065 0.3522
C30 C 0.0354(7) 0.3327(7) 0.4497(9)
F7 F 0.0464(5) 0.3068(5) 0.2568(6)
F12 F 0.0854(5) 0.2573(6) 0.3553(7)
C33 C 0.0242(9) 0.2531(10) 0.3205(12)
Zn4 Zn 0.28435(15) 0.56870(13) 0.7500
O9 O 0.3067(4) 0.7315(4) 0.4808(6)
O10 O 0.2685(4) 0.6933(4) 0.6859(6)
O11 O 0.4925(5) 0.6966(7) 0.3400(6)
O12 O 0.3762(6) 0.6339(5) 0.6856(6)
O13 O 0.3661(5) 0.7423(4) 0.3523(6)
O14 O 0.3661(5) 0.6238(6) 0.4810(6)
O5 O 0.7315(4) 0.3067(4) 0.1859(6)
C21 C 0.8340(7) 0.2679(6) 0.2444(10)
H10 H 0.8129 0.2507 0.1885
C22 C 0.7568(7) 0.3277(6) 0.2621(9)
C23 C 0.8104(7) 0.3075(7) 0.2970(9)
C25 C 0.8869(9) 0.2543(7) 0.2733(10)
H12 H 0.9017 0.2285 0.2368
O8 O 0.7423(4) 0.3661(5) 0.3144(6)
C27 C 0.9801(7) 0.2663(7) 0.3940(11)
C29 C 0.8940(7) 0.3160(7) 0.4108(10)
H15 H 0.9135 0.3309 0.4679
C31 C 0.8417(7) 0.3310(7) 0.3811(9)
H16 H 0.8270 0.3570 0.4173
C32 C 0.9189(7) 0.2785(7) 0.3566(9)
F8 F 0.8890(5) 0.1397(5) 0.4037(8)
F9 F 0.9878(5) 0.1912(5) 0.2773(7)
F10 F 0.9865(5) 0.1730(5) 0.4800(7)
F11 F 0.9081(5) 0.2038(5) 0.5206(7)
C34 C 0.9414(8) 0.1948(8) 0.4510(11)
Zn2 Zn 0.71565(15) 0.43130(13) 0.2500
Co2 Co 0.64858(8) 0.32429(6) 0.4166
O1_2 O 0.4248(6) 0.6933(4) 0.8141(6)
O2_2 O 0.6521(6) 0.4210(5) 0.4465(6)
C1_2 C 0.6762(10) 0.4792(7) 0.4063(9)
O3_2 O 0.6966(7) 0.4925(5) 0.3266(6)
C2_2 C 0.6819(9) 0.5431(7) 0.4576(9)
C3_2 C 0.7176(10) 0.6122(7) 0.4162(11)
H1_2 H 0.7347 0.6171 0.3577
C4_2 C 0.5661(9) 0.7321(6) 0.7556(10)
H2_2 H 0.5622 0.7493 0.8115
C5_2 C 0.4291(9) 0.6723(6) 0.7379(9)
C6_2 C 0.5029(10) 0.6925(7) 0.7030(9)
C7_2 C 0.7270(10) 0.6724(7) 0.4628(10)
H3_2 H 0.7502 0.7177 0.4349
C8_2 C 0.6326(11) 0.7457(7) 0.7267(10)
H4_2 H 0.6732 0.7715 0.7632
C9_2 C 0.6560(10) 0.5373(7) 0.5450(9)
H5_2 H 0.6323 0.4920 0.5729
C10_2 C 0.7138(10) 0.7337(7) 0.6060(11)
C11_2 C 0.6653(10) 0.5983(7) 0.5903(10)
H6_2 H 0.6465 0.5935 0.6478
C12_2 C 0.5780(10) 0.6840(7) 0.5892(10)
H7_2 H 0.5826 0.6691 0.5321
C13_2 C 0.7027(10) 0.6673(7) 0.5503(9)
C14_2 C 0.5107(10) 0.6690(7) 0.6189(9)
H8_2 H 0.4700 0.6430 0.5827
C15_2 C 0.6404(10) 0.7215(7) 0.6434(9)
F1_2 F 0.7396(7) 0.6932(5) 0.7432(6)
F2_2 F 0.7493(7) 0.8603(5) 0.5963(8)
F3_2 F 0.7966(7) 0.8088(5) 0.7227(7)
F4_2 F 0.8135(7) 0.8270(5) 0.5200(7)
F5_2 F 0.7043(7) 0.7962(5) 0.4794(7)
F6_2 F 0.8281(8) 0.7427(6) 0.6447(7)
C16_2 C 0.7711(13) 0.7469(10) 0.6795(12)
C17_2 C 0.7466(11) 0.8052(8) 0.5490(11)
O6_2 O 0.6521(6) 0.2311(4) 0.3868(6)
C18_2 C 0.6762(10) 0.1970(7) 0.4270(9)
O7_2 O 0.6966(7) 0.2041(5) 0.5067(6)
C19_2 C 0.6819(9) 0.1388(6) 0.3757(9)
C20_2 C 0.7176(10) 0.1054(7) 0.4171(11)
H9_2 H 0.7347 0.1176 0.4756
C24_2 C 0.7270(10) 0.0546(7) 0.3705(10)
H11_2 H 0.7502 0.0325 0.3984
C26_2 C 0.6560(10) 0.1187(7) 0.2883(9)
H13_2 H 0.6323 0.1403 0.2604
C28_2 C 0.6653(10) 0.0670(7) 0.2430(10)
H14_2 H 0.6465 0.0530 0.1855
C30_2 C 0.7027(10) 0.0354(7) 0.2830(9)
F7_2 F 0.7396(7) 0.0464(5) 0.0901(6)
F12_2 F 0.8281(8) 0.0854(5) 0.1886(7)
C33_2 C 0.7711(13) 0.0242(9) 0.1538(12)
Zn4_2 Zn 0.71565(20) 0.28435(15) 0.5834
Co4_2 Co 0.35142(8) 0.67571(6) 0.9166
O9_2 O 0.5752(6) 0.3067(4) 0.3141(6)
O10_2 O 0.5752(6) 0.2685(4) 0.5192(6)
O11_2 O 0.7959(9) 0.4925(5) 0.1734(6)
O12_2 O 0.7423(8) 0.3762(6) 0.5190(6)
O13_2 O 0.6238(6) 0.3661(5) 0.1856(6)
O5_2 O 0.4248(6) 0.7315(4) 0.0192(6)
C21_2 C 0.5661(9) 0.8340(7) 0.0777(10)
H10_2 H 0.5622 0.8129 0.0218
C22_2 C 0.4291(9) 0.7568(7) 0.0954(9)
C23_2 C 0.5029(10) 0.8104(7) 0.1303(9)
C25_2 C 0.6326(11) 0.8869(9) 0.1066(10)
H12_2 H 0.6732 0.9017 0.0701
O8_2 O 0.3762(6) 0.7423(4) 0.1477(6)
C27_2 C 0.7138(10) 0.9801(7) 0.2273(11)
C29_2 C 0.5780(10) 0.8940(7) 0.2441(10)
H15_2 H 0.5826 0.9135 0.3012
C31_2 C 0.5107(10) 0.8417(7) 0.2144(9)
H16_2 H 0.4700 0.8270 0.2506
C32_2 C 0.6404(10) 0.9189(7) 0.1899(9)
F8_2 F 0.7493(7) 0.8890(5) 0.2370(8)
F9_2 F 0.7966(7) 0.9878(5) 0.1106(7)
F10_2 F 0.8135(7) 0.9865(5) 0.3133(7)
F11_2 F 0.7043(7) 0.9081(5) 0.3539(7)
C34_2 C 0.7466(11) 0.9414(8) 0.2843(11)
Zn2_2 Zn 0.28435(20) 0.71565(15) 0.0834
Co2_2 Co 0.32429(10) 0.64858(8) 0.2500
O2_3 O 0.2311(4) 0.6521(6) 0.2799(6)
C1_3 C 0.1970(7) 0.6762(10) 0.2397(9)
O3_3 O 0.2041(5) 0.6966(7) 0.1600(6)
C2_3 C 0.1388(6) 0.6819(9) 0.2910(9)
C3_3 C 0.1054(7) 0.7176(10) 0.2496(11)
H1_3 H 0.1176 0.7347 0.1911
C7_3 C 0.0546(7) 0.7270(10) 0.2962(10)
H3_3 H 0.0325 0.7502 0.2683
C9_3 C 0.1187(7) 0.6560(10) 0.3784(9)
H5_3 H 0.1403 0.6323 0.4063
C11_3 C 0.0670(7) 0.6653(10) 0.4237(10)
H6_3 H 0.0530 0.6465 0.4812
C13_3 C 0.0354(7) 0.7027(10) 0.3837(9)
F1_3 F 0.0464(5) 0.7396(7) 0.5766(6)
F6_3 F 0.0854(5) 0.8281(8) 0.4781(7)
C16_3 C 0.0242(9) 0.7711(13) 0.5129(12)
O6_3 O 0.4210(5) 0.6521(6) 0.2201(6)
C18_3 C 0.4792(7) 0.6762(10) 0.2603(9)
C19_3 C 0.5431(7) 0.6819(9) 0.2090(9)
C20_3 C 0.6122(7) 0.7176(10) 0.2504(11)
H9_3 H 0.6171 0.7347 0.3089
C24_3 C 0.6724(7) 0.7270(10) 0.2038(10)
H11_3 H 0.7177 0.7502 0.2317
C26_3 C 0.5373(7) 0.6560(10) 0.1216(9)
H13_3 H 0.4920 0.6323 0.0937
C27_3 C 0.7337(7) 0.7138(10) 0.0606(11)
C28_3 C 0.5983(7) 0.6653(10) 0.0763(10)
H14_3 H 0.5935 0.6465 0.0188
C29_3 C 0.6840(7) 0.5780(10) 0.0774(10)
H15_3 H 0.6691 0.5826 0.1345
C30_3 C 0.6673(7) 0.7027(10) 0.1163(9)
C31_3 C 0.6690(7) 0.5107(10) 0.0477(9)
H16_3 H 0.6430 0.4700 0.0839
C32_3 C 0.7215(7) 0.6404(10) 0.0232(9)
F8_3 F 0.8603(5) 0.7493(7) 0.0703(8)
F10_3 F 0.8270(5) 0.8135(7) 0.1466(7)
F11_3 F 0.7962(5) 0.7043(7) 0.1872(7)
F12_3 F 0.7427(6) 0.8281(8) 0.0219(7)
C34_3 C 0.8052(8) 0.7466(11) 0.1176(11)
O9_3 O 0.2685(4) 0.5752(6) 0.1475(6)
O10_3 O 0.3067(4) 0.5752(6) 0.3525(6)
O11_3 O 0.3034(7) 0.7959(9) 0.0067(6)
O13_3 O 0.2577(4) 0.6238(6) 0.0190(6)
O5_3 O 0.6933(4) 0.4248(6) 0.8525(6)
C21_3 C 0.7321(6) 0.5661(9) 0.9110(10)
H10_3 H 0.7493 0.5622 0.8551
C22_3 C 0.6723(6) 0.4291(9) 0.9287(9)
C23_3 C 0.6925(7) 0.5029(10) 0.9636(9)
C25_3 C 0.7457(7) 0.6326(11) 0.9399(10)
H12_3 H 0.7715 0.6732 0.9034
O8_3 O 0.6339(5) 0.3762(6) 0.9810(6)
F7_3 F 0.6932(5) 0.7396(7) 0.9234(6)
F9_3 F 0.8088(5) 0.7966(7) 0.9439(7)
C33_3 C 0.7469(10) 0.7711(13) 0.9871(12)
O1_3 O 0.7315(4) 0.4248(6) 0.6475(6)
C4_3 C 0.8340(7) 0.5661(9) 0.5890(10)
H2_3 H 0.8129 0.5622 0.6449
C5_3 C 0.7568(7) 0.4291(9) 0.5713(9)
C6_3 C 0.8104(7) 0.5029(10) 0.5364(9)
C8_3 C 0.8869(9) 0.6326(11) 0.5601(10)
H4_3 H 0.9017 0.6732 0.5966
C10_3 C 0.9801(7) 0.7138(10) 0.4394(11)
C12_3 C 0.8940(7) 0.5780(10) 0.4226(10)
H7_3 H 0.9135 0.5826 0.3655
C14_3 C 0.8417(7) 0.5107(10) 0.4523(9)
H8_3 H 0.8270 0.4700 0.4161
C15_3 C 0.9189(7) 0.6404(10) 0.4768(9)
F2_3 F 0.8890(5) 0.7493(7) 0.4297(8)
F3_3 F 0.9878(5) 0.7966(7) 0.5561(7)
F4_3 F 0.9865(5) 0.8135(7) 0.3534(7)
F5_3 F 0.9081(5) 0.7043(7) 0.3128(7)
C17_3 C 0.9414(8) 0.7466(11) 0.3824(11)
C21_4 C 0.1660(7) 0.7321(6) 0.7444(10)
H10_4 H 0.1871 0.7493 0.6885
C22_4 C 0.2432(7) 0.6723(6) 0.7621(9)
C23_4 C 0.1896(7) 0.6925(7) 0.7970(9)
C25_4 C 0.1131(9) 0.7457(7) 0.7733(10)
H12_4 H 0.0983 0.7715 0.7368
O8_4 O 0.2577(4) 0.6339(5) 0.8144(6)
C27_4 C 0.0199(7) 0.7337(7) 0.8940(11)
C29_4 C 0.1060(7) 0.6840(7) 0.9108(10)
H15_4 H 0.0865 0.6691 0.9679
C31_4 C 0.1583(7) 0.6690(7) 0.8811(9)
H16_4 H 0.1730 0.6430 0.9173
C32_4 C 0.0811(7) 0.7215(7) 0.8566(9)
F8_4 F 0.1110(5) 0.8603(5) 0.9037(8)
F9_4 F 0.0122(5) 0.8088(5) 0.7773(7)
F10_4 F 0.0135(5) 0.8270(5) 0.9800(7)
C34_4 C 0.0586(8) 0.8052(8) 0.9510(11)
O2_4 O 0.5790(5) 0.2311(4) 0.1132(6)
C1_4 C 0.5208(7) 0.1970(7) 0.0730(9)
C2_4 C 0.4569(7) 0.1388(6) 0.1243(9)
C3_4 C 0.3878(7) 0.1054(7) 0.0829(11)
H1_4 H 0.3829 0.1176 0.0244
C7_4 C 0.3276(7) 0.0546(7) 0.1295(10)
H3_4 H 0.2823 0.0325 0.1016
C9_4 C 0.4627(7) 0.1187(7) 0.2117(9)
H5_4 H 0.5080 0.1403 0.2396
C11_4 C 0.4017(7) 0.0670(7) 0.2570(10)
H6_4 H 0.4065 0.0530 0.3145
C13_4 C 0.3327(7) 0.0354(7) 0.2170(9)
F1_4 F 0.3068(5) 0.0464(5) 0.4099(6)
F6_4 F 0.2573(6) 0.0854(5) 0.3114(7)
C16_4 C 0.2531(10) 0.0242(9) 0.3462(12)
O6_4 O 0.7689(4) 0.4210(5) 0.0535(6)
C18_4 C 0.8030(7) 0.4792(7) 0.0937(9)
C19_4 C 0.8612(6) 0.5431(7) 0.0424(9)
C20_4 C 0.8946(7) 0.6122(7) 0.0838(11)
H9_4 H 0.8824 0.6171 0.1423
C24_4 C 0.9454(7) 0.6724(7) 0.0372(10)
H11_4 H 0.9675 0.7177 0.0651
O3_4 O 0.5075(5) 0.2041(5) 0.9933(6)
C26_4 C 0.8813(7) 0.5373(7) 0.9550(9)
H13_4 H 0.8597 0.4920 0.9271
C28_4 C 0.9330(7) 0.5983(7) 0.9097(10)
H14_4 H 0.9470 0.5935 0.8522
C30_4 C 0.9646(7) 0.6673(7) 0.9497(9)
F7_4 F 0.9536(5) 0.6932(5) 0.7568(6)
F12_4 F 0.9146(5) 0.7427(6) 0.8553(7)
C33_4 C 0.9758(9) 0.7469(10) 0.8205(12)
O11_4 O 0.5075(5) 0.3034(7) 0.8400(6)
C4_4 C 0.2679(6) 0.8340(7) 0.4223(10)
H2_4 H 0.2507 0.8129 0.4782
C5_4 C 0.3277(6) 0.7568(7) 0.4046(9)
C6_4 C 0.3075(7) 0.8104(7) 0.3697(9)
C8_4 C 0.2543(7) 0.8869(9) 0.3934(10)
H4_4 H 0.2285 0.9017 0.4299
C10_4 C 0.2663(7) 0.9801(7) 0.2727(11)
C12_4 C 0.3160(7) 0.8940(7) 0.2559(10)
H7_4 H 0.3309 0.9135 0.1988
C14_4 C 0.3310(7) 0.8417(7) 0.2856(9)
H8_4 H 0.3570 0.8270 0.2494
C15_4 C 0.2785(7) 0.9189(7) 0.3101(9)
F2_4 F 0.1397(5) 0.8890(5) 0.2630(8)
F3_4 F 0.1912(5) 0.9878(5) 0.3894(7)
F4_4 F 0.1730(5) 0.9865(5) 0.1867(7)
F5_4 F 0.2038(5) 0.9081(5) 0.1461(7)
C17_4 C 0.1948(8) 0.9414(8) 0.2157(11)
C21_5 C 0.4339(9) 0.1660(7) 0.5777(10)
H10_5 H 0.4378 0.1871 0.5218
C22_5 C 0.5709(9) 0.2432(7) 0.5954(9)
C23_5 C 0.4971(10) 0.1896(7) 0.6303(9)
C25_5 C 0.3674(11) 0.1131(9) 0.6066(10)
H12_5 H 0.3268 0.0983 0.5701
O8_5 O 0.6238(6) 0.2577(4) 0.6477(6)
C27_5 C 0.2862(10) 0.0199(7) 0.7273(11)
C29_5 C 0.4220(10) 0.1060(7) 0.7441(10)
H15_5 H 0.4174 0.0865 0.8012
C31_5 C 0.4893(10) 0.1583(7) 0.7144(9)
H16_5 H 0.5300 0.1730 0.7506
C32_5 C 0.3596(10) 0.0811(7) 0.6899(9)
F8_5 F 0.2507(7) 0.1110(5) 0.7370(8)
F9_5 F 0.2034(7) 0.0122(5) 0.6106(7)
F10_5 F 0.1865(7) 0.0135(5) 0.8133(7)
F11_4 F 0.2957(7) 0.0919(5) 0.8539(7)
C34_5 C 0.2534(11) 0.0586(8) 0.7843(11)
C4_5 C 0.4339(9) 0.2679(6) 0.2556(10)
H2_5 H 0.4378 0.2507 0.3115
C5_5 C 0.5709(9) 0.3277(6) 0.2379(9)
C6_5 C 0.4971(10) 0.3075(7) 0.2030(9)
C8_5 C 0.3674(11) 0.2543(7) 0.2267(10)
H4_5 H 0.3268 0.2285 0.2632
C9_5 C 0.3440(10) 0.4627(7) 0.0450(9)
H5_5 H 0.3677 0.5080 0.0729
C10_5 C 0.2862(10) 0.2663(7) 0.1060(11)
C11_5 C 0.3347(10) 0.4017(7) 0.0903(10)
H6_5 H 0.3535 0.4065 0.1478
C12_5 C 0.4220(10) 0.3160(7) 0.0892(10)
H7_5 H 0.4174 0.3309 0.0321
C13_5 C 0.2973(10) 0.3327(7) 0.0503(9)
C14_5 C 0.4893(10) 0.3310(7) 0.1189(9)
H8_5 H 0.5300 0.3570 0.0827
C15_5 C 0.3596(10) 0.2785(7) 0.1434(9)
F1_5 F 0.2604(7) 0.3068(5) 0.2432(6)
F2_5 F 0.2507(7) 0.1397(5) 0.0963(8)
F3_5 F 0.2034(7) 0.1912(5) 0.2227(7)
F4_5 F 0.1865(7) 0.1730(5) 0.0200(7)
F6_5 F 0.1719(8) 0.2573(6) 0.1447(7)
C16_5 C 0.2289(13) 0.2531(10) 0.1795(12)
C17_5 C 0.2534(11) 0.1948(8) 0.0490(11)
O2_5 O 0.3479(6) 0.5790(5) 0.9465(6)
C1_5 C 0.3238(10) 0.5208(7) 0.9063(9)
O3_5 O 0.3034(7) 0.5075(5) 0.8266(6)
C2_5 C 0.3181(9) 0.4569(7) 0.9576(9)
C3_5 C 0.2824(10) 0.3878(7) 0.9162(11)
H1_5 H 0.2653 0.3829 0.8577
C7_5 C 0.2730(10) 0.3276(7) 0.9628(10)
H3_5 H 0.2498 0.2823 0.9349
F5_5 F 0.2957(7) 0.2038(5) 0.9794(7)
O6_5 O 0.3479(6) 0.7689(4) 0.8868(6)
C18_5 C 0.3238(10) 0.8030(7) 0.9270(9)
C19_5 C 0.3181(9) 0.8612(6) 0.8757(9)
C20_5 C 0.2824(10) 0.8946(7) 0.9171(11)
H9_5 H 0.2653 0.8824 0.9756
C24_5 C 0.2730(10) 0.9454(7) 0.8705(10)
H11_5 H 0.2498 0.9675 0.8984
C26_5 C 0.3440(10) 0.8813(7) 0.7883(9)
H13_5 H 0.3677 0.8597 0.7604
C28_5 C 0.3347(10) 0.9330(7) 0.7430(10)
H14_5 H 0.3535 0.9470 0.6855
C30_5 C 0.2973(10) 0.9646(7) 0.7830(9)
F7_5 F 0.2604(7) 0.9536(5) 0.5901(6)
F12_5 F 0.1719(8) 0.9146(5) 0.6886(7)
C33_5 C 0.2289(13) 0.9758(9) 0.6538(12)
C4_6 C 0.1660(7) 0.4339(9) 0.0890(10)
H2_6 H 0.1871 0.4378 0.1449
C5_6 C 0.2432(7) 0.5709(9) 0.0713(9)
C6_6 C 0.1896(7) 0.4971(10) 0.0364(9)
C8_6 C 0.1131(9) 0.3674(11) 0.0601(10)
H4_6 H 0.0983 0.3268 0.0966
F3_6 F 0.0122(5) 0.2034(7) 0.0561(7)
C10_6 C 0.0199(7) 0.2862(10) 0.9394(11)
C12_6 C 0.1060(7) 0.4220(10) 0.9226(10)
H7_6 H 0.0865 0.4174 0.8655
C14_6 C 0.1583(7) 0.4893(10) 0.9523(9)
H8_6 H 0.1730 0.5300 0.9161
C15_6 C 0.0811(7) 0.3596(10) 0.9768(9)
F2_6 F 0.1110(5) 0.2507(7) 0.9297(8)
F4_6 F 0.0135(5) 0.1865(7) 0.8534(7)
F5_6 F 0.0919(5) 0.2957(7) 0.8128(7)
C17_6 C 0.0586(8) 0.2534(11) 0.8824(11)
O2_6 O 0.7689(4) 0.3479(6) 0.7799(6)
C1_6 C 0.8030(7) 0.3238(10) 0.7397(9)
O3_6 O 0.7959(5) 0.3034(7) 0.6600(6)
C2_6 C 0.8612(6) 0.3181(9) 0.7910(9)
C3_6 C 0.8946(7) 0.2824(10) 0.7496(11)
H1_6 H 0.8824 0.2653 0.6911
C7_6 C 0.9454(7) 0.2730(10) 0.7962(10)
H3_6 H 0.9675 0.2498 0.7683
C9_6 C 0.8813(7) 0.3440(10) 0.8784(9)
H5_6 H 0.8597 0.3677 0.9063
C11_6 C 0.9330(7) 0.3347(10) 0.9237(10)
H6_6 H 0.9470 0.3535 0.9812
C13_6 C 0.9646(7) 0.2973(10) 0.8837(9)
F6_6 F 0.9146(5) 0.1719(8) 0.9781(7)
O6_6 O 0.5790(5) 0.3479(6) 0.7201(6)
C18_6 C 0.5208(7) 0.3238(10) 0.7603(9)
C19_6 C 0.4569(7) 0.3181(9) 0.7090(9)
C20_6 C 0.3878(7) 0.2824(10) 0.7504(11)
H9_6 H 0.3829 0.2653 0.8089
C21_6 C 0.2679(6) 0.4339(9) 0.4110(10)
H10_6 H 0.2507 0.4378 0.3551
C22_6 C 0.3277(6) 0.5709(9) 0.4287(9)
C23_6 C 0.3075(7) 0.4971(10) 0.4636(9)
C24_6 C 0.3276(7) 0.2730(10) 0.7038(10)
H11_6 H 0.2823 0.2498 0.7317
C25_6 C 0.2543(7) 0.3674(11) 0.4399(10)
H12_6 H 0.2285 0.3268 0.4034
C26_6 C 0.4627(7) 0.3440(10) 0.6216(9)
H13_6 H 0.5080 0.3677 0.5937
C27_6 C 0.2663(7) 0.2862(10) 0.5606(11)
C28_6 C 0.4017(7) 0.3347(10) 0.5763(10)
H14_6 H 0.4065 0.3535 0.5188
C29_6 C 0.3160(7) 0.4220(10) 0.5774(10)
H15_6 H 0.3309 0.4174 0.6345
C30_6 C 0.3327(7) 0.2973(10) 0.6163(9)
C31_6 C 0.3310(7) 0.4893(10) 0.5477(9)
H16_6 H 0.3570 0.5300 0.5839
C32_6 C 0.2785(7) 0.3596(10) 0.5232(9)
F7_6 F 0.3068(5) 0.2604(7) 0.4234(6)
F8_6 F 0.1397(5) 0.2507(7) 0.5703(8)
F9_6 F 0.1912(5) 0.2034(7) 0.4439(7)
F10_6 F 0.1730(5) 0.1865(7) 0.6466(7)
F11_5 F 0.2038(5) 0.2957(7) 0.6872(7)
F12_6 F 0.2573(6) 0.1719(8) 0.5219(7)
C33_6 C 0.2531(10) 0.2289(13) 0.4871(12)
C34_6 C 0.1948(8) 0.2534(11) 0.6176(11)
F11_6 F 0.0919(5) 0.7962(5) 0.0206(7)
F1_6 F 0.9536(5) 0.2604(7) 0.0766(6)
C16_6 C 0.9758(9) 0.2289(13) 0.0129(12)
loop_
_geom_bond_atom_site_label_1
_geom_bond_atom_site_label_2
_geom_bond_site_symmetry_1
_geom_bond_site_symmetry_2
O1 C5 1_555 1_555
C4 H2 1_555 1_555
C5 C6 1_555 1_555
C6 C4 1_555 1_555
C8 C4 1_555 1_555
H4 C8 1_555 1_555
O4 C5 1_555 1_555
C12 H7 1_555 1_555
C14 C6 1_555 1_555
H8 C14 1_555 1_555
C15 C8 1_555 1_555
F2 C17 1_555 1_555
F4 C17 1_555 1_555
F5 C17 1_555 1_555
C17 C10 1_555 1_555
Zn3 O4 1_555 1_555
Co5 O4 1_555 1_555
C10 C15 1_555 1_555
C12 C14 1_555 1_555
C12 C15 1_555 1_555
Zn1 O3 1_555 1_555
Co1 O2 1_555 1_555
O2 C1 1_555 1_555
C1 O3 1_555 1_555
C2 C1 1_555 1_555
C3 C2 1_555 1_555
H1 C3 1_555 1_555
C7 C3 1_555 1_555
H3 C7 1_555 1_555
C9 C2 1_555 1_555
H5 C9 1_555 1_555
C11 C9 1_555 1_555
H6 C11 1_555 1_555
C13 C7 1_555 1_555
F1 C16 1_555 1_555
F6 C16 1_555 1_555
O6 Co1 1_555 1_555
C18 O6 1_555 1_555
O7 C18 1_555 1_555
C19 C18 1_555 1_555
C20 C19 1_555 1_555
H9 C20 1_555 1_555
C24 C20 1_555 1_555
H11 C24 1_555 1_555
C26 C19 1_555 1_555
H13 C26 1_555 1_555
C28 C26 1_555 1_555
H14 C28 1_555 1_555
C30 C24 1_555 1_555
F7 C33 1_555 1_555
F12 C33 1_555 1_555
Zn4 O7 1_555 1_555
O9 Co1 1_555 1_555
O10 Co1 1_555 1_555
O11 Zn1 1_555 1_555
O12 Co1 1_555 1_555
O13 Zn1 1_555 1_555
O14 Zn1 1_555 1_555
Co1 O14 1_555 1_555
C11 C13 1_555 1_555
C28 C30 1_555 1_555
Zn4 O12 1_555 1_555
O5 C22 1_555 1_555
C21 H10 1_555 1_555
C22 C23 1_555 1_555
C23 C21 1_555 1_555
C25 C21 1_555 1_555
H12 C25 1_555 1_555
O8 C22 1_555 1_555
C29 H15 1_555 1_555
C31 C23 1_555 1_555
H16 C31 1_555 1_555
C32 C25 1_555 1_555
F8 C34 1_555 1_555
F10 C34 1_555 1_555
F11 C34 1_555 1_555
C34 C27 1_555 1_555
Zn2 O8 1_555 1_555
Co2 O8 1_555 1_555
Co4 O5 1_555 1_555
C27 C32 1_555 1_555
C29 C31 1_555 1_555
C29 C32 1_555 1_555
Zn2 O3_2 1_555 1_555
Co2 O2_2 1_555 1_555
O1_2 C5_2 1_555 1_555
O2_2 C1_2 1_555 1_555
C1_2 O3_2 1_555 1_555
C2_2 C1_2 1_555 1_555
C3_2 C2_2 1_555 1_555
H1_2 C3_2 1_555 1_555
C4_2 H2_2 1_555 1_555
C5_2 C6_2 1_555 1_555
C6_2 C4_2 1_555 1_555
C7_2 C3_2 1_555 1_555
H3_2 C7_2 1_555 1_555
C8_2 C4_2 1_555 1_555
H4_2 C8_2 1_555 1_555
C9_2 C2_2 1_555 1_555
H5_2 C9_2 1_555 1_555
O12 C5_2 1_555 1_555
C10_2 C13_2 1_555 1_555
C11_2 C9_2 1_555 1_555
H6_2 C11_2 1_555 1_555
C12_2 H7_2 1_555 1_555
C13_2 C7_2 1_555 1_555
C14_2 C6_2 1_555 1_555
H8_2 C14_2 1_555 1_555
C15_2 C8_2 1_555 1_555
F1_2 C16_2 1_555 1_555
F2_2 C17_2 1_555 1_555
F3_2 C16_2 1_555 1_555
F4_2 C17_2 1_555 1_555
F5_2 C17_2 1_555 1_555
F6_2 C16_2 1_555 1_555
C16_2 C10_2 1_555 1_555
C17_2 C10_2 1_555 1_555
O6_2 Co2 1_555 1_555
C18_2 O6_2 1_555 1_555
O7_2 C18_2 1_555 1_555
C19_2 C18_2 1_555 1_555
C20_2 C19_2 1_555 1_555
H9_2 C20_2 1_555 1_555
C24_2 C20_2 1_555 1_555
H11_2 C24_2 1_555 1_555
C26_2 C19_2 1_555 1_555
H13_2 C26_2 1_555 1_555
C28_2 C26_2 1_555 1_555
H14_2 C28_2 1_555 1_555
C30_2 C24_2 1_555 1_555
F7_2 C33_2 1_555 1_555
F12_2 C33_2 1_555 1_555
Zn4_2 O7_2 1_555 1_555
Co4_2 O1_2 1_555 1_555
O9_2 Co2 1_555 1_555
O10_2 Co2 1_555 1_555
O11_2 Zn2 1_555 1_555
O12_2 Co2 1_555 1_555
O13_2 Zn2 1_555 1_555
C10_2 C15_2 1_555 1_555
C11_2 C13_2 1_555 1_555
C12_2 C14_2 1_555 1_555
C12_2 C15_2 1_555 1_555
C28_2 C30_2 1_555 1_555
Zn4_2 O12_2 1_555 1_555
O5_2 C22_2 1_555 1_555
C21_2 H10_2 1_555 1_555
C22_2 C23_2 1_555 1_555
C23_2 C21_2 1_555 1_555
C25_2 C21_2 1_555 1_555
H12_2 C25_2 1_555 1_555
O8_2 C22_2 1_555 1_555
C29_2 H15_2 1_555 1_555
C31_2 C23_2 1_555 1_555
H16_2 C31_2 1_555 1_555
C32_2 C25_2 1_555 1_555
F8_2 C34_2 1_555 1_555
F10_2 C34_2 1_555 1_555
F11_2 C34_2 1_555 1_555
C34_2 C27_2 1_555 1_555
Zn2_2 O8_2 1_555 1_555
Co2_2 O8_2 1_555 1_555
C27_2 C32_2 1_555 1_555
C29_2 C31_2 1_555 1_555
C29_2 C32_2 1_555 1_555
Zn2_2 O3_3 1_555 1_555
Co2_2 O2_3 1_555 1_555
O2_3 C1_3 1_555 1_555
C1_3 O3_3 1_555 1_555
C2_3 C1_3 1_555 1_555
C3_3 C2_3 1_555 1_555
H1_3 C3_3 1_555 1_555
C7_3 C3_3 1_555 1_555
H3_3 C7_3 1_555 1_555
C9_3 C2_3 1_555 1_555
H5_3 C9_3 1_555 1_555
C11_3 C9_3 1_555 1_555
H6_3 C11_3 1_555 1_555
C13_3 C7_3 1_555 1_555
F1_3 C16_3 1_555 1_555
F6_3 C16_3 1_555 1_555
O6_3 Co2_2 1_555 1_555
C18_3 O6_3 1_555 1_555
O11 C18_3 1_555 1_555
C19_3 C18_3 1_555 1_555
C20_3 C19_3 1_555 1_555
H9_3 C20_3 1_555 1_555
C24_3 C20_3 1_555 1_555
H11_3 C24_3 1_555 1_555
C26_3 C19_3 1_555 1_555
H13_3 C26_3 1_555 1_555
C27_3 C30_3 1_555 1_555
C28_3 C26_3 1_555 1_555
H14_3 C28_3 1_555 1_555
C29_3 H15_3 1_555 1_555
C30_3 C24_3 1_555 1_555
H16_3 C31_3 1_555 1_555
F8_3 C34_3 1_555 1_555
F10_3 C34_3 1_555 1_555
F11_3 C34_3 1_555 1_555
C34_3 C27_3 1_555 1_555
O9_3 Co2_2 1_555 1_555
O10_3 Co2_2 1_555 1_555
O11_3 Zn2_2 1_555 1_555
O13 Co2_2 1_555 1_555
O13_3 Zn2_2 1_555 1_555
C11_3 C13_3 1_555 1_555
C27_3 C32_3 1_555 1_555
C28_3 C30_3 1_555 1_555
C29_3 C31_3 1_555 1_555
C29_3 C32_3 1_555 1_555
O5_3 C22_3 1_555 1_555
C21_3 H10_3 1_555 1_555
C22_3 C23_3 1_555 1_555
C23_3 C21_3 1_555 1_555
C25_3 C21_3 1_555 1_555
H12_3 C25_3 1_555 1_555
O8_3 C22_3 1_555 1_555
F7_3 C33_3 1_555 1_555
F9_3 C33_3 1_555 1_555
Zn3 O8_3 1_555 1_555
Co5 O5_3 1_555 1_555
O1_3 C5_3 1_555 1_555
C4_3 H2_3 1_555 1_555
C5_3 C6_3 1_555 1_555
C6_3 C4_3 1_555 1_555
C8_3 C4_3 1_555 1_555
H4_3 C8_3 1_555 1_555
O12_2 C5_3 1_555 1_555
C12_3 H7_3 1_555 1_555
C14_3 C6_3 1_555 1_555
H8_3 C14_3 1_555 1_555
C15_3 C8_3 1_555 1_555
F2_3 C17_3 1_555 1_555
F4_3 C17_3 1_555 1_555
F5_3 C17_3 1_555 1_555
C17_3 C10_3 1_555 1_555
Co5 O1_3 1_555 1_555
C10_3 C15_3 1_555 1_555
C12_3 C14_3 1_555 1_555
C12_3 C15_3 1_555 1_555
O10 C22_4 1_555 1_555
C21_4 H10_4 1_555 1_555
C22_4 C23_4 1_555 1_555
C23_4 C21_4 1_555 1_555
C25_4 C21_4 1_555 1_555
H12_4 C25_4 1_555 1_555
O8_4 C22_4 1_555 1_555
C29_4 H15_4 1_555 1_555
C31_4 C23_4 1_555 1_555
H16_4 C31_4 1_555 1_555
C32_4 C25_4 1_555 1_555
F8_4 C34_4 1_555 1_555
F10_4 C34_4 1_555 1_555
C34_4 C27_4 1_555 1_555
Zn4 O8_4 1_555 1_555
Co4_2 O8_4 1_555 1_555
C27_4 C32_4 1_555 1_555
C29_4 C31_4 1_555 1_555
C29_4 C32_4 1_555 1_555
Co4 O2_4 1_555 1_555
O2_4 C1_4 1_555 1_555
C2_4 C1_4 1_555 1_555
C3_4 C2_4 1_555 1_555
H1_4 C3_4 1_555 1_555
C7_4 C3_4 1_555 1_555
H3_4 C7_4 1_555 1_555
C9_4 C2_4 1_555 1_555
H5_4 C9_4 1_555 1_555
C11_4 C9_4 1_555 1_555
H6_4 C11_4 1_555 1_555
C13_4 C7_4 1_555 1_555
F1_4 C16_4 1_555 1_555
F6_4 C16_4 1_555 1_555
O6_4 Co4 1_555 1_555
C18_4 O6_4 1_555 1_555
O11_2 C18_4 1_555 1_555
C19_4 C18_4 1_555 1_555
C20_4 C19_4 1_555 1_555
H9_4 C20_4 1_555 1_555
C24_4 C20_4 1_555 1_555
H11_4 C24_4 1_555 1_555
O13_2 Co4 1_555 1_555
C11_4 C13_4 1_555 1_555
Zn3 O3_4 1_555 1_555
H13_4 C26_4 1_555 1_555
C28_4 C26_4 1_555 1_555
H14_4 C28_4 1_555 1_555
F7_4 C33_4 1_555 1_555
F12_4 C33_4 1_555 1_555
O11_4 Zn3 1_555 1_555
C28_4 C30_4 1_555 1_555
O9 C5_4 1_555 1_555
C4_4 H2_4 1_555 1_555
C5_4 C6_4 1_555 1_555
C6_4 C4_4 1_555 1_555
C8_4 C4_4 1_555 1_555
H4_4 C8_4 1_555 1_555
O13 C5_4 1_555 1_555
C12_4 H7_4 1_555 1_555
C14_4 C6_4 1_555 1_555
H8_4 C14_4 1_555 1_555
C15_4 C8_4 1_555 1_555
F2_4 C17_4 1_555 1_555
F4_4 C17_4 1_555 1_555
F5_4 C17_4 1_555 1_555
C17_4 C10_4 1_555 1_555
C10_4 C15_4 1_555 1_555
C12_4 C14_4 1_555 1_555
C12_4 C15_4 1_555 1_555
O10_2 C22_5 1_555 1_555
C21_5 H10_5 1_555 1_555
C22_5 C23_5 1_555 1_555
C23_5 C21_5 1_555 1_555
C25_5 C21_5 1_555 1_555
H12_5 C25_5 1_555 1_555
O8_5 C22_5 1_555 1_555
C29_5 H15_5 1_555 1_555
C31_5 C23_5 1_555 1_555
H16_5 C31_5 1_555 1_555
C32_5 C25_5 1_555 1_555
F8_5 C34_5 1_555 1_555
F10_5 C34_5 1_555 1_555
F11_4 C34_5 1_555 1_555
C34_5 C27_5 1_555 1_555
Zn4_2 O8_5 1_555 1_555
Co5 O8_5 1_555 1_555
C27_5 C32_5 1_555 1_555
C29_5 C31_5 1_555 1_555
C29_5 C32_5 1_555 1_555
O9_2 C5_5 1_555 1_555
C4_5 H2_5 1_555 1_555
C5_5 C6_5 1_555 1_555
C6_5 C4_5 1_555 1_555
C8_5 C4_5 1_555 1_555
H4_5 C8_5 1_555 1_555
H5_5 C9_5 1_555 1_555
O13_2 C5_5 1_555 1_555
C10_5 C13_5 1_555 1_555
C11_5 C9_5 1_555 1_555
H6_5 C11_5 1_555 1_555
C12_5 H7_5 1_555 1_555
C14_5 C6_5 1_555 1_555
H8_5 C14_5 1_555 1_555
C15_5 C8_5 1_555 1_555
F1_5 C16_5 1_555 1_555
F2_5 C17_5 1_555 1_555
F3_5 C16_5 1_555 1_555
F4_5 C17_5 1_555 1_555
F6_5 C16_5 1_555 1_555
C16_5 C10_5 1_555 1_555
C17_5 C10_5 1_555 1_555
C10_5 C15_5 1_555 1_555
C11_5 C13_5 1_555 1_555
C12_5 C14_5 1_555 1_555
C12_5 C15_5 1_555 1_555
Zn4 O3_5 1_555 1_555
Co4_2 O2_5 1_555 1_555
O2_5 C1_5 1_555 1_555
C1_5 O3_5 1_555 1_555
C2_5 C1_5 1_555 1_555
C3_5 C2_5 1_555 1_555
H1_5 C3_5 1_555 1_555
C7_5 C3_5 1_555 1_555
H3_5 C7_5 1_555 1_555
O6_5 Co4_2 1_555 1_555
C18_5 O6_5 1_555 1_555
C19_5 C18_5 1_555 1_555
C20_5 C19_5 1_555 1_555
H9_5 C20_5 1_555 1_555
C24_5 C20_5 1_555 1_555
H11_5 C24_5 1_555 1_555
C26_5 C19_5 1_555 1_555
H13_5 C26_5 1_555 1_555
C28_5 C26_5 1_555 1_555
H14_5 C28_5 1_555 1_555
C30_5 C24_5 1_555 1_555
F7_5 C33_5 1_555 1_555
F12_5 C33_5 1_555 1_555
C28_5 C30_5 1_555 1_555
O9_3 C5_6 1_555 1_555
C4_6 H2_6 1_555 1_555
C5_6 C6_6 1_555 1_555
C6_6 C4_6 1_555 1_555
C8_6 C4_6 1_555 1_555
H4_6 C8_6 1_555 1_555
O13_3 C5_6 1_555 1_555
C12_6 H7_6 1_555 1_555
H8_6 C14_6 1_555 1_555
F2_6 C17_6 1_555 1_555
F4_6 C17_6 1_555 1_555
F5_6 C17_6 1_555 1_555
C17_6 C10_6 1_555 1_555
C10_6 C15_6 1_555 1_555
C12_6 C14_6 1_555 1_555
C12_6 C15_6 1_555 1_555
Zn4_2 O3_6 1_555 1_555
Co5 O2_6 1_555 1_555
O2_6 C1_6 1_555 1_555
C1_6 O3_6 1_555 1_555
C2_6 C1_6 1_555 1_555
C3_6 C2_6 1_555 1_555
H1_6 C3_6 1_555 1_555
C7_6 C3_6 1_555 1_555
H3_6 C7_6 1_555 1_555
C9_6 C2_6 1_555 1_555
H5_6 C9_6 1_555 1_555
C11_6 C9_6 1_555 1_555
H6_6 C11_6 1_555 1_555
C13_6 C7_6 1_555 1_555
O10_3 C22_6 1_555 1_555
O6_6 Co5 1_555 1_555
C18_6 O6_6 1_555 1_555
O11_4 C18_6 1_555 1_555
C19_6 C18_6 1_555 1_555
C20_6 C19_6 1_555 1_555
H9_6 C20_6 1_555 1_555
C21_6 H10_6 1_555 1_555
C22_6 C23_6 1_555 1_555
C23_6 C21_6 1_555 1_555
C24_6 C20_6 1_555 1_555
H11_6 C24_6 1_555 1_555
C25_6 C21_6 1_555 1_555
H12_6 C25_6 1_555 1_555
C26_6 C19_6 1_555 1_555
H13_6 C26_6 1_555 1_555
O14 C22_6 1_555 1_555
C27_6 C30_6 1_555 1_555
C28_6 C26_6 1_555 1_555
H14_6 C28_6 1_555 1_555
C29_6 H15_6 1_555 1_555
C30_6 C24_6 1_555 1_555
C31_6 C23_6 1_555 1_555
H16_6 C31_6 1_555 1_555
C32_6 C25_6 1_555 1_555
F7_6 C33_6 1_555 1_555
F8_6 C34_6 1_555 1_555
F9_6 C33_6 1_555 1_555
F10_6 C34_6 1_555 1_555
F11_5 C34_6 1_555 1_555
F12_6 C33_6 1_555 1_555
C33_6 C27_6 1_555 1_555
C34_6 C27_6 1_555 1_555
C11_6 C13_6 1_555 1_555
C27_6 C32_6 1_555 1_555
C28_6 C30_6 1_555 1_555
C29_6 C31_6 1_555 1_555
C29_6 C32_6 1_555 1_555
F1_6 C16_6 1_555 1_555

#END
