
###############################################################################
#
# This file contains modified crystal structure data generated from the
# MOF subset of the Cambridge Structural Database (CSD) v543 
# hosted by the Cambridge Crystallographic Data Centre (CCDC).
#
# This work is licensed under the Creative Commons
# Attribution-NonCommercial-ShareAlike 4.0 International License.
# To view a copy of this license, visit
# http://creativecommons.org/licenses/by-nc-sa/4.0/
# or send a letter to
# Creative Commons, PO Box 1866, Mountain View, CA 94042, USA.
#
# CIF created using the CSD Python API on 29 September 2022
# The structure has been converted into the P1 space group
# The structure has a 3D framework
# The original CSD entry XEHDOG is in the monoclinic crystal system
# The original CSD entry XEHDOG is in a Sohncke space group
# The framework has been calculated to contain at least 10.0% void space
# The void calculation uses a probe of radius 1.32A, grid spacing 0.4
# The framework is charged, counterions have been retained in the structure
# H atom positions have been added when not included in the experimental data
#
###############################################################################

data_XEHDOG
_chemical_formula_moiety         '(C148 H245 Ca28 O143 2+)n'
_symmetry_cell_setting           triclinic
_symmetry_space_group_name_H-M   'P 1'
_symmetry_Int_Tables_number      1
_space_group_name_Hall           'P 1'
loop_
_symmetry_equiv_pos_site_id
_symmetry_equiv_pos_as_xyz
1 x,y,z
_cell_length_a                   24.3868(11)
_cell_length_b                   13.2612(6)
_cell_length_c                   24.9710(10)
_cell_angle_alpha                90
_cell_angle_beta                 90.327(2)
_cell_angle_gamma                90
_cell_volume                     8075.45
loop_
_atom_site_label
_atom_site_type_symbol
_atom_site_fract_x
_atom_site_fract_y
_atom_site_fract_z
O3 O 0.46768(18) 0.1246(3) 0.00943(17)
Ca15 Ca 0.52357(4) 0.03158(9) 0.07309(4)
Ca17 Ca 0.47973(5) 0.30291(8) 0.01563(5)
C1 C 0.4623(3) 0.0474(5) 0.9775(2)
C2 C 0.4176(3) 0.0456(7) 0.9369(3)
O55 O 0.3826(3) 0.1322(6) 0.9417(3)
H12 H 0.3943 0.1786 0.9220
C30 C 0.4401(4) 0.0346(8) 0.8804(3)
H33 H 0.4097 0.0272 0.8549
H34 H 0.4616 0.0946 0.8712
H92 H 0.1919 0.0477 0.7867
Ca23 Ca 0.50486(8) 0.02996(12) 0.51194(7)
Ca5 Ca 0.02502(5) 0.03707(11) 0.08689(5)
Ca7 Ca 0.15685(5) 0.03434(12) 0.14784(5)
O20 O 0.38195(19) 0.2593(3) 0.0277(2)
H4 H 0.3708 0.2219 0.0524
O29 O 0.1044(2) 0.1347(4) 0.0840(2)
O30 O 0.0872(3) 0.2750(5) 0.0401(3)
O48 O 0.1741(3) 0.2143(4) 0.1476(3)
H9 H 0.199(3) 0.246(3) 0.166(3)
C4 C 0.1121(3) 0.2280(6) 0.0739(3)
C21 C 0.3427(3) 0.3365(5) 0.0178(3)
H23 H 0.3065 0.3056 0.0085
C33 C 0.1545(4) 0.2759(7) 0.1082(4)
H42 H 0.1344 0.3301 0.1278
C34 C 0.3371(4) 0.4036(6) 0.0697(4)
H43 H 0.3101 0.4570 0.0633
H44 H 0.3250 0.3615 0.0997
H45 H 0.3726 0.4339 0.0785
C42 C 0.3092(4) 0.7581(13) 0.0056(5)
H53 H 0.3314 0.8002 0.0296
H54 H 0.2713 0.7829 0.0053
H55 H 0.3098 0.6882 0.0183
H97 H 0.0033 0.3326 0.1984
C67 C 0.1964(7) 0.3305(17) 0.0773(9)
H101 H 0.1785 0.3725 0.0501
H102 H 0.2180 0.3733 0.1015
H103 H 0.2207 0.2819 0.0598
O77 O 0.50893(19) 0.4708(3) 0.01626(18)
O78 O 0.06211(18) 0.0442(4) 0.17767(19)
O79 O 0.58761(17) 0.9106(3) 0.03452(19)
O80 O 0.24793(18) 0.0107(4) 0.18615(19)
O87 O 0.4998(2) 0.7734(4) 0.0735(2)
O90 O 0.1472(2) 0.0577(5) 0.2428(2)
O92 O 0.2274(2) 0.0182(6) 0.0827(2)
Ca1 Ca 0.47643(4) 0.53158(9) 0.92691(4)
Ca2 Ca 0.52027(5) 0.80291(8) 0.98437(5)
Ca3 Ca 0.56876(5) 0.48959(10) 0.81043(5)
Ca4 Ca 0.33754(5) 0.55184(9) 0.87337(5)
Ca6 Ca 0.59039(6) 0.28354(11) 0.48326(5)
Ca8 Ca 0.07603(6) 0.55590(13) 0.80532(7)
Ca9 Ca 0.49514(8) 0.52996(12) 0.48806(7)
Ca10 Ca 0.34144(7) 0.77528(15) 0.64003(7)
Ca11 Ca 0.69057(8) 0.31264(15) 0.59208(7)
Ca12 Ca 0.00551(8) 0.28031(12) 0.99179(7)
Ca13 Ca 0.70285(6) 0.43913(19) 0.73379(7)
Ca14 Ca 0.22480(7) 0.6303(2) 0.77032(7)
O1 O 0.40174(16) 0.6418(3) 0.92680(16)
O2 O 0.42592(16) 0.4998(3) 0.84730(16)
O4 O 0.53823(19) 0.4102(3) 0.89080(18)
O5 O 0.53480(18) 0.6182(3) 0.86648(18)
O7 O 0.58851(19) 0.6622(4) 0.78022(19)
H1 H 0.609(3) 0.686(2) 0.7542(16)
O8 O 0.49107(19) 0.9708(3) 0.98374(18)
O10 O 0.52709(19) 0.7791(4) 0.89261(17)
O11 O 0.41239(17) 0.4106(3) 0.96548(19)
O12 O 0.30202(18) 0.7031(4) 0.9115(2)
H2 H 0.2906 0.7414 0.8844
O13 O 0.32611(19) 0.4531(4) 0.9494(2)
O14 O 0.4115(2) 0.7565(4) 0.7056(2)
H3 H 0.4452(9) 0.743(6) 0.6995(14)
O15 O 0.75207(18) 0.5107(4) 0.81385(19)
O16 O 0.3218(2) 0.6335(4) 0.7936(2)
O17 O 0.4048(2) 0.6712(4) 0.58807(18)
O18 O 0.42609(17) 0.7759(4) 0.97431(18)
O21 O 0.66382(19) 0.4870(5) 0.82408(19)
O22 O 0.24505(17) 0.5256(4) 0.85773(19)
O23 O 0.0410(2) 0.4369(4) 0.8687(2)
O24 O 0.5947(3) 0.3789(4) 0.4048(2)
O25 O 0.16103(19) 0.5754(5) 0.8438(2)
O27 O 0.5002(2) 0.2734(4) 0.9265(2)
O28 O 0.47981(19) 0.4336(4) 0.78550(19)
O31 O 0.5007(3) 0.8587(5) 0.5041(3)
O32 O 0.4938(3) 0.7027(4) 0.4878(3)
O33 O 0.6247(2) 0.4033(4) 0.5398(2)
O34 O 0.5997(2) 0.4603(4) 0.7257(2)
O35 O 0.0013(2) 0.1095(4) 0.9988(2)
O37 O 0.5848(2) 0.3114(4) 0.8124(2)
H6 H 0.6151(15) 0.280(3) 0.806(3)
O38 O 0.4380(2) 0.5228(4) 0.5641(2)
O39 O 0.5819(3) 0.5481(5) 0.5299(2)
O40 O 0.3050(2) 0.7314(5) 0.7256(2)
O43 O 0.3391(2) 0.4032(5) 0.8149(3)
H7 H 0.3141 0.3613 0.8084
O44 O 0.7726(2) 0.5182(6) 0.9173(2)
H8 H 0.7820 0.4857 0.9448
O45 O 0.0426(3) 0.2867(5) 0.9064(3)
O46 O 0.3149(2) 0.7848(6) 0.5469(2)
O47 O 0.6420(3) 0.3783(6) 0.6615(2)
O49 O 0.1320(3) 0.5769(5) 0.7321(2)
O50 O 0.3716(3) 0.6890(5) 0.4447(2)
O51 O 0.4132(3) 0.5433(4) 0.4422(3)
O53 O 0.5467(4) 0.5227(5) 0.4099(3)
H11 H 0.3946 0.9848 0.9442
C3 C 0.3926(2) 0.7248(5) 0.9492(2)
C5 C 0.5457(2) 0.7109(5) 0.8626(3)
C7 C 0.3339(3) 0.7632(6) 0.9456(3)
H13 H 0.3336 0.8345 0.9325
C8 C 0.5877(3) 0.7401(5) 0.8208(3)
H14 H 0.6245 0.7407 0.8387
C9 C 0.4358(3) 0.4374(5) 0.8094(3)
C10 C 0.3609(3) 0.4063(5) 0.9727(3)
C11 C 0.5307(3) 0.3161(5) 0.8922(3)
C12 C 0.6218(4) 0.5007(7) 0.5406(3)
C14 C 0.7101(2) 0.4996(5) 0.8428(2)
O57 O 0.3267(3) 0.5926(6) 0.6436(3)
H16 H 0.314(5) 0.558(2) 0.670(2)
C15 C 0.7178(3) 0.4941(6) 0.9038(3)
H17 H 0.7114 0.4226 0.9148
C16 C 0.3889(3) 0.3691(8) 0.7919(4)
H18 H 0.3966 0.2994 0.8053
C17 C 0.1952(3) 0.5297(6) 0.8717(3)
C18 C 0.5199(4) 0.7765(6) 0.4852(4)
O58 O 0.6854(3) 0.6896(9) 0.7340(3)
C19 C 0.5786(3) 0.8428(6) 0.7963(3)
H19 H 0.5782 0.8939 0.8247
H20 H 0.6083 0.8576 0.7712
H21 H 0.5434 0.8436 0.7771
C20 C 0.3973(3) 0.7175(6) 0.7573(3)
H22 H 0.4194 0.6555 0.7649
C22 C 0.4040(3) 0.5781(6) 0.5854(3)
C23 C 0.3383(3) 0.6924(6) 0.7580(3)
O59 O 0.2451(3) 0.7894(9) 0.6254(4)
H24 H 0.2204(17) 0.803(15) 0.6480(14)
O60 O 0.1040(4) 0.3818(5) 0.7900(4)
H25 H 0.136(2) 0.365(3) 0.780(4)
C24 C 0.5571(4) 0.2494(5) 0.8507(3)
H26 H 0.5269 0.2138 0.8311
C25 C 0.0540(3) 0.3430(6) 0.8694(4)
O61 O 0.7129(4) 0.4895(8) 0.5807(4)
H27 H 0.735(4) 0.526(2) 0.598(4)
O62 O 0.6581(6) 0.4519(7) 0.3306(4)
H28 H 0.6814 0.4465 0.3554
O63 O 0.2541(3) 0.7875(12) 0.4834(4)
C27 C 0.5985(3) 0.4096(8) 0.6837(3)
H32 H 0.4637 0.9748 0.8787
C31 C 0.4095(4) 0.7972(9) 0.7997(4)
H35 H 0.3999 0.7708 0.8351
H36 H 0.4486 0.8140 0.7991
H37 H 0.3878 0.8578 0.7922
O64 O 0.7554(4) 0.3369(9) 0.6540(5)
C32 C 0.5444(4) 0.3883(9) 0.6583(3)
H38 H 0.5498 0.3480 0.6258
H39 H 0.5213 0.3509 0.6834
H40 H 0.5264 0.4520 0.6488
O65 O 0.2175(3) 0.4040(10) 0.9392(5)
H41 H 0.2045 0.3719 0.9653
C35 C 0.0800(6) 0.2962(8) 0.8188(5)
H46 H 0.0536 0.2560 0.7967
C36 C 0.5821(5) 0.4702(6) 0.3906(4)
C37 C 0.1786(3) 0.4854(12) 0.9233(4)
H47 H 0.1421 0.4530 0.9175
C38 C 0.6794(4) 0.5578(10) 0.9343(4)
H48 H 0.6416 0.5402 0.9244
H49 H 0.6849 0.5466 0.9727
H50 H 0.6861 0.6289 0.9259
O66 O 0.1877(4) 0.6558(11) 0.6802(3)
C39 C 0.3824(5) 0.6068(8) 0.4239(4)
O67 O 0.2592(4) 0.4824(8) 0.7281(6)
O68 O 0.2325(6) 0.7708(7) 0.8283(6)
C43 C 0.5928(6) 0.1715(8) 0.8742(6)
H56 H 0.5718 0.1315 0.8999
H57 H 0.6065 0.1274 0.8457
H58 H 0.6238 0.2037 0.8925
C44 C 0.1698(6) 0.5733(17) 0.9618(5)
H59 H 0.1587 0.5473 0.9968
H60 H 0.2040 0.6115 0.9657
H61 H 0.1411 0.6176 0.9476
C45 C 0.6728(5) 0.5547(9) 0.5541(5)
H62 H 0.6651 0.6164 0.5759
C47 C 0.7178(5) 0.2140(10) 0.7819(4)
C48 C 0.7094(5) 0.6668(10) 0.6978(5)
C49 C 0.3516(4) 0.5221(7) 0.6077(5)
H64 H 0.3619 0.4582 0.6265
C50 C 0.2676(4) 0.7747(13) 0.5266(5)
O69 O 0.1825(6) 0.8168(13) 0.7512(10)
H68 H 0.1497(10) 0.830(2) 0.761(3)
C52 C 0.2170(6) 0.9058(8) 0.7680(6)
H69 H 0.2446 0.9248 0.7403
O70 O 0.3164(6) 0.6586(6) 0.3561(5)
H70 H 0.2972 0.6373 0.3305
C53 C 0.3831(5) 0.3650(16) 0.7318(6)
H71 H 0.4175 0.3414 0.7161
H72 H 0.3534 0.3184 0.7222
H73 H 0.3745 0.4324 0.7182
O71 O 0.2764(8) 0.9254(11) 0.8379(8)
C54 C 0.3136(7) 0.5008(10) 0.5586(7)
H74 H 0.3314 0.4525 0.5346
H75 H 0.2787 0.4726 0.5710
H76 H 0.3066 0.5638 0.5393
O72 O 0.7035(6) 0.5717(9) 0.6867(5)
C55 C 0.6174(8) 0.5192(8) 0.3460(5)
H77 H 0.6334 0.5847 0.3582
C56 C 0.2447(6) 0.8583(8) 0.8206(6)
C57 C 0.2212(5) 0.7963(18) 0.5715(6)
H78 H 0.1923 0.7431 0.5681
C58 C 0.5813(10) 0.5336(14) 0.2987(6)
H79 H 0.5518 0.5807 0.3077
H80 H 0.6027 0.5609 0.2690
H81 H 0.5654 0.4686 0.2882
C59 C 0.6982(7) 0.5843(19) 0.4955(7)
H82 H 0.6723 0.6282 0.4763
H83 H 0.7331 0.6197 0.5004
H84 H 0.7042 0.5227 0.4746
C60 C 0.1413(6) 0.6166(13) 0.6898(5)
C62 C 0.5804(6) 0.7763(9) 0.4677(8)
H88 H 0.5946 0.8454 0.4683
H89 H 0.6019 0.7343 0.4924
H90 H 0.5831 0.7489 0.4314
C63 C 0.3539(9) 0.5807(9) 0.3732(6)
H91 H 0.3347 0.5143 0.3763
C64 C 0.1744(7) 0.9846(10) 0.7755(10)
H93 H 0.1547 0.9953 0.7417
H94 H 0.1485 0.9628 0.8030
O73 O 0.7356(8) 0.1327(17) 0.7425(8)
C66 C 0.1289(8) 0.2376(14) 0.8367(7)
H98 H 0.1169 0.1779 0.8567
H99 H 0.1501 0.2163 0.8054
H100 H 0.1519 0.2798 0.8599
C68 C 0.3999(10) 0.5773(12) 0.3268(8)
H104 H 0.4272 0.5255 0.3355
H105 H 0.3824 0.5610 0.2924
H106 H 0.4179 0.6431 0.3243
C69 C 0.7337(7) 0.1537(18) 0.8371(8)
H107 H 0.7580 0.0970 0.8286
H108 H 0.7525 0.1998 0.8618
H109 H 0.7003 0.1283 0.8539
C70 C 0.1930(9) 0.898(2) 0.5715(8)
H110 H 0.1756 0.9097 0.5365
H111 H 0.1651 0.8996 0.5995
H112 H 0.2202 0.9512 0.5783
O74 O 0.6895(7) 0.2856(16) 0.7768(6)
C71 C 0.0952(9) 0.627(3) 0.6436(8)
H113 H 0.1109 0.6616 0.6125
H114 H 0.0824 0.5602 0.6330
H115 H 0.0643 0.6667 0.6573
C72 C 0.7479(7) 0.7311(13) 0.6669(8)
H116 H 0.7632 0.6920 0.6372
H117 H 0.7282 0.7897 0.6526
H118 H 0.7777 0.7539 0.6904
C73 C 0.7997(5) 0.3414(13) 0.6800(6)
C74 C 0.8499(9) 0.3441(18) 0.6397(14)
H119 H 0.8843 0.3476 0.6600
H120 H 0.8496 0.2829 0.6177
H121 H 0.8467 0.4034 0.6165
O75 O 0.8042(10) 0.365(2) 0.7309(8)
Ca19 Ca 0.40961(6) 0.78354(11) 0.51674(5)
Ca21 Ca 0.84315(5) 0.53434(12) 0.85216(5)
Ca24 Ca 0.65856(7) 0.27528(15) 0.35997(7)
Ca25 Ca 0.30943(8) 0.81264(15) 0.40792(7)
O76 O 0.53232(18) 0.6246(3) 0.99057(17)
O81 O 0.5952(2) 0.1712(4) 0.41193(18)
O82 O 0.0107(3) 0.4533(4) 0.9913(2)
O83 O 0.61805(19) 0.7593(3) 0.9723(2)
O85 O 0.4053(3) 0.8789(4) 0.5952(2)
O86 O 0.03690(19) 0.6485(4) 0.8772(2)
O88 O 0.4993(3) 0.3587(5) 0.4959(3)
O89 O 0.5062(3) 0.2027(4) 0.5122(3)
O93 O 0.6851(2) 0.2848(6) 0.4531(2)
O94 O 0.6284(3) 0.1890(5) 0.5553(2)
O95 O 0.0848(4) 0.7358(6) 0.7971(4)
O96 O 0.3419(6) 0.9519(7) 0.6694(4)
O97 O 0.7459(3) 0.2875(12) 0.5166(4)
O98 O 0.6836(6) 0.1586(6) 0.6439(5)
H122 H 0.275282 0.436887 0.755584
H123 H 0.228793 0.447199 0.70922
O26 O 0.96310(19) 0.1485(4) 0.1228(2)
O42 O 0.9661(3) 0.2886(5) 0.0764(3)
C13 C 0.9558(3) 0.2459(7) 0.1182(4)
O56 O 0.9152(4) 0.2358(6) 0.2029(4)
H15 H 0.9436 0.2204 0.2202
C41 C 0.9283(6) 0.2985(9) 0.1630(6)
H52 H 0.8953 0.3361 0.1500
C65 C 0.9713(10) 0.3710(17) 0.1861(7)
H95 H 0.9825 0.4190 0.1584
H96 H 0.9556 0.4078 0.2164
Ca22 Ca 0.92397(6) 0.05590(13) 0.19468(7)
O9 O 0.93789(18) 0.5442(4) 0.82233(19)
O36 O 0.8528(2) 0.5577(5) 0.7572(2)
H5 H 0.8501 0.4978 0.7680
O54 O 0.9961(3) 0.5587(10) 0.7561(3)
C6 C 0.9830(4) 0.0270(7) 0.9816(3)
C26 C 0.9572(4) 0.0266(7) 0.9259(3)
H29 H 0.9565 0.0955 0.9117
H31 H 0.9196 0.0007 0.9281
C29 C 0.9496(4) 0.5532(9) 0.7727(4)
C46 C 0.9034(4) 0.5712(15) 0.7328(5)
H63 H 0.9071 0.5257 0.7011
C61 C 0.9088(5) 0.6861(17) 0.7155(7)
H85 H 0.9443 0.6967 0.6982
H86 H 0.8792 0.7030 0.6903
H87 H 0.9061 0.7292 0.7472
Ca18 Ca 0.97498(5) 0.53707(11) 0.91311(5)
O91 O 0.9238(2) 0.2748(4) 0.9397(3)
O19 O 0.9893(3) 0.9533(4) 0.0087(2)
Ca26 Ca 0.99449(8) 0.78031(12) 0.00821(7)
O84 O 0.9590(2) 0.9369(4) 0.1313(2)
O54_2 O 0.0039(3) 0.0587(10) 0.2439(3)
C29_2 C 0.0504(4) 0.0532(9) 0.2273(4)
C46_2 C 0.0966(4) 0.0712(15) 0.2672(5)
H63_2 H 0.0929 0.0257 0.2989
C61_2 C 0.0912(5) 0.1861(17) 0.2845(7)
H85_2 H 0.0557 0.1967 0.3018
H86_2 H 0.1208 0.2030 0.3097
H87_2 H 0.0939 0.2292 0.2528
O42_2 O 0.0339(3) 0.7886(5) 0.9236(3)
C13_2 C 0.0442(3) 0.7459(7) 0.8818(4)
H15_2 H 0.0564 0.7204 0.7798
C41_2 C 0.0717(6) 0.7985(9) 0.8370(6)
H52_2 H 0.1047 0.8361 0.8500
C65_2 C 0.0287(10) 0.8710(17) 0.8139(7)
H95_2 H 0.0175 0.9190 0.8416
H96_2 H 0.0444 0.9078 0.7836
Ca4_2 Ca 0.66246(5) 0.05184(9) 0.12663(5)
Ca14_2 Ca 0.77520(7) 0.1303(2) 0.22968(7)
O1_2 O 0.59826(16) 0.1418(3) 0.07320(16)
O5_2 O 0.46520(18) 0.1182(3) 0.13352(18)
O7_2 O 0.41149(19) 0.1622(4) 0.21978(19)
H1_2 H 0.391(3) 0.186(2) 0.2458(16)
O10_2 O 0.47291(19) 0.2791(4) 0.10739(17)
O12_2 O 0.69798(18) 0.2031(4) 0.0885(2)
H2_2 H 0.7094 0.2414 0.1156
O14_2 O 0.5885(2) 0.2565(4) 0.2944(2)
H3_2 H 0.5548(9) 0.243(6) 0.3005(14)
O16_2 O 0.6782(2) 0.1335(4) 0.2064(2)
O18_2 O 0.57391(17) 0.2759(4) 0.02569(18)
O22_2 O 0.75495(17) 0.0256(4) 0.14227(19)
O25_2 O 0.83897(19) 0.0754(5) 0.1562(2)
O38_2 O 0.5620(2) 0.0228(4) 0.4359(2)
O39_2 O 0.4181(3) 0.0481(5) 0.4701(2)
O40_2 O 0.6950(2) 0.2314(5) 0.2744(2)
C1_2 C 0.5377(3) 0.5474(5) 0.0225(2)
O49_2 O 0.8680(3) 0.0769(5) 0.2679(2)
O51_2 O 0.5868(3) 0.0433(4) 0.5578(3)
O53_2 O 0.4533(4) 0.0227(5) 0.5901(3)
C2_2 C 0.5824(3) 0.5456(7) 0.0631(3)
H11_2 H 0.6054 0.4848 0.0558
C3_2 C 0.6074(2) 0.2248(5) 0.0508(2)
O55_2 O 0.6174(3) 0.6322(6) 0.0583(3)
H12_2 H 0.6057 0.6786 0.0780
C5_2 C 0.4543(2) 0.2109(5) 0.1374(3)
C7_2 C 0.6661(3) 0.2632(6) 0.0544(3)
H13_2 H 0.6664 0.3345 0.0675
C8_2 C 0.4123(3) 0.2401(5) 0.1792(3)
H14_2 H 0.3755 0.2407 0.1613
C12_2 C 0.3782(4) 0.0007(7) 0.4594(3)
O57_2 O 0.6733(3) 0.0926(6) 0.3564(3)
H16_2 H 0.686(5) 0.058(2) 0.330(2)
C17_2 C 0.8048(3) 0.0297(6) 0.1283(3)
C18_2 C 0.4801(4) 0.2765(6) 0.5148(4)
O58_2 O 0.3146(3) 0.1896(9) 0.2660(3)
C19_2 C 0.4214(3) 0.3428(6) 0.2037(3)
H19_2 H 0.4218 0.3939 0.1753
H20_2 H 0.3917 0.3576 0.2288
H21_2 H 0.4566 0.3436 0.2229
C20_2 C 0.6027(3) 0.2175(6) 0.2427(3)
H22_2 H 0.5806 0.1555 0.2351
C22_2 C 0.5960(3) 0.0781(6) 0.4146(3)
C23_2 C 0.6617(3) 0.1924(6) 0.2420(3)
O59_2 O 0.7549(3) 0.2894(9) 0.3746(4)
H24_2 H 0.7796(17) 0.303(15) 0.3520(14)
H27_2 H 0.265(4) 0.026(2) 0.402(4)
C30_2 C 0.5599(4) 0.5346(8) 0.1196(3)
H32_2 H 0.5363 0.4748 0.1213
H33_2 H 0.5903 0.5272 0.1451
H34_2 H 0.5384 0.5946 0.1288
C31_2 C 0.5905(4) 0.2972(9) 0.2003(4)
H35_2 H 0.6001 0.2708 0.1649
H36_2 H 0.5514 0.3140 0.2009
H37_2 H 0.6122 0.3578 0.2078
C38_2 C 0.3206(4) 0.0578(10) 0.0657(4)
H48_2 H 0.3584 0.0402 0.0756
H49_2 H 0.3151 0.0466 0.0273
H50_2 H 0.3139 0.1289 0.0741
O66_2 O 0.8123(4) 0.1558(11) 0.3198(3)
C39_2 C 0.6176(5) 0.1068(8) 0.5761(4)
O68_2 O 0.7675(6) 0.2708(7) 0.1717(6)
C44_2 C 0.8302(6) 0.0733(17) 0.0382(5)
H59_2 H 0.8413 0.0473 0.0032
H60_2 H 0.7960 0.1115 0.0343
H61_2 H 0.8589 0.1176 0.0524
C45_2 C 0.3272(5) 0.0547(9) 0.4459(5)
H62_2 H 0.3349 0.1164 0.4241
C48_2 C 0.2906(5) 0.1668(10) 0.3022(5)
C49_2 C 0.6484(4) 0.0221(7) 0.3923(5)
C50_2 C 0.7324(4) 0.2747(13) 0.4734(5)
O69_2 O 0.8175(6) 0.3168(13) 0.2488(10)
H68_2 H 0.8503(10) 0.330(2) 0.239(3)
C52_2 C 0.7830(6) 0.4058(8) 0.2320(6)
H69_2 H 0.7554 0.4248 0.2597
H70_2 H 0.7028 0.1373 0.6695
O71_2 O 0.7236(8) 0.4254(11) 0.1621(8)
C54_2 C 0.6864(7) 0.0008(10) 0.4414(7)
H76_2 H 0.6934 0.0638 0.4607
O72_2 O 0.2965(6) 0.0717(9) 0.3133(5)
C55_2 C 0.3826(8) 0.0192(8) 0.6540(5)
H77_2 H 0.3666 0.0847 0.6418
C56_2 C 0.7553(6) 0.3583(8) 0.1794(6)
C57_2 C 0.7788(5) 0.2963(18) 0.4285(6)
H78_2 H 0.8077 0.2431 0.4319
C58_2 C 0.4187(10) 0.0336(14) 0.7013(6)
H79_2 H 0.4482 0.0807 0.6923
H80_2 H 0.3973 0.0609 0.7310
C59_2 C 0.3018(7) 0.0843(19) 0.5045(7)
H82_2 H 0.3277 0.1282 0.5237
H83_2 H 0.2669 0.1197 0.4996
H84_2 H 0.2958 0.0227 0.5254
C60_2 C 0.8587(6) 0.1166(13) 0.3102(5)
C62_2 C 0.4196(6) 0.2763(9) 0.5323(8)
H88_2 H 0.4054 0.3454 0.5317
H89_2 H 0.3981 0.2343 0.5076
H90_2 H 0.4169 0.2489 0.5686
C63_2 C 0.6461(9) 0.0807(9) 0.6268(6)
H91_2 H 0.6653 0.0143 0.6237
C64_2 C 0.8256(7) 0.4846(10) 0.2245(10)
H92_2 H 0.8081 0.5477 0.2133
H93_2 H 0.8453 0.4953 0.2583
H94_2 H 0.8515 0.4628 0.1970
C68_2 C 0.6001(10) 0.0773(12) 0.6732(8)
H104_2 H 0.5728 0.0255 0.6645
H105_2 H 0.6176 0.0610 0.7076
H106_2 H 0.5821 0.1431 0.6757
C70_2 C 0.8070(9) 0.398(2) 0.4285(8)
H110_2 H 0.8244 0.4097 0.4635
H111_2 H 0.8349 0.3996 0.4005
H112_2 H 0.7798 0.4512 0.4217
C71_2 C 0.9048(9) 0.127(3) 0.3564(8)
H113_2 H 0.8891 0.1616 0.3875
H114_2 H 0.9176 0.0602 0.3670
H115_2 H 0.9357 0.1667 0.3427
C72_2 C 0.2521(7) 0.2311(13) 0.3331(8)
H116_2 H 0.2368 0.1920 0.3628
H117_2 H 0.2718 0.2897 0.3474
H118_2 H 0.2223 0.2539 0.3096
C42_2 C 0.6908(4) 0.2581(13) 0.9944(5)
H53_2 H 0.6686 0.3002 0.9704
H54_2 H 0.7287 0.2829 0.9947
H55_2 H 0.6902 0.1882 0.9817
Ca3_2 Ca 0.43124(5) 0.98959(10) 0.18957(5)
Ca13_2 Ca 0.29715(6) 0.93913(19) 0.26621(7)
O2_2 O 0.57408(16) 0.9998(3) 0.15270(16)
O4_2 O 0.46177(19) 0.9102(3) 0.10920(18)
O13_2 O 0.67389(19) 0.9531(4) 0.0506(2)
O21_2 O 0.33618(19) 0.9870(5) 0.17592(19)
O28_2 O 0.52019(19) 0.9336(4) 0.21450(19)
O33_2 O 0.3753(2) 0.9033(4) 0.4602(2)
O34_2 O 0.4003(2) 0.9603(4) 0.2743(2)
O35_2 O 0.9987(2) 0.6095(4) 0.0012(2)
O37_2 O 0.4152(2) 0.8114(4) 0.1876(2)
H6_2 H 0.3849(15) 0.780(3) 0.194(3)
O43_2 O 0.6609(2) 0.9032(5) 0.1851(3)
H7_2 H 0.6859 0.8613 0.1916
H8_2 H 0.2180 0.9857 0.0552
O45_2 O 0.9574(3) 0.7867(5) 0.0936(3)
O47_2 O 0.3580(3) 0.8783(6) 0.3385(2)
C9_2 C 0.5642(3) 0.9374(5) 0.1906(3)
C10_2 C 0.6391(3) 0.9063(5) 0.0273(3)
C11_2 C 0.4693(3) 0.8161(5) 0.1078(3)
C14_2 C 0.2899(2) 0.9996(5) 0.1572(2)
C15_2 C 0.2822(3) 0.9941(6) 0.0962(3)
H17_2 H 0.2886 0.9226 0.0852
C16_2 C 0.6111(3) 0.8691(8) 0.2081(4)
H18_2 H 0.6034 0.7994 0.1947
O60_2 O 0.8960(4) 0.8818(5) 0.2100(4)
H25_2 H 0.864(2) 0.865(3) 0.220(4)
C24_2 C 0.4429(4) 0.7494(5) 0.1493(3)
H26_2 H 0.4731 0.7138 0.1689
C25_2 C 0.9460(3) 0.8430(6) 0.1306(4)
O61_2 O 0.2871(4) 0.9895(8) 0.4193(4)
H28_2 H 0.3186 0.9465 0.6446
C27_2 C 0.4015(3) 0.9096(8) 0.3163(3)
O64_2 O 0.2446(4) 0.8369(9) 0.3460(5)
C32_2 C 0.4556(4) 0.8883(9) 0.3417(3)
H38_2 H 0.4502 0.8480 0.3742
H39_2 H 0.4787 0.8509 0.3166
H40_2 H 0.4736 0.9520 0.3512
O65_2 O 0.7825(3) 0.9040(10) 0.0608(5)
H41_2 H 0.7955 0.8719 0.0347
C35_2 C 0.9200(6) 0.7962(8) 0.1812(5)
H46_2 H 0.9464 0.7560 0.2033
C36_2 C 0.4179(5) 0.9702(6) 0.6094(4)
C37_2 C 0.8214(3) 0.9854(12) 0.0767(4)
H47_2 H 0.8579 0.9530 0.0825
O67_2 O 0.7408(4) 0.9824(8) 0.2719(6)
C43_2 C 0.4072(6) 0.6715(8) 0.1258(6)
H56_2 H 0.4282 0.6315 0.1001
H57_2 H 0.3935 0.6274 0.1543
H58_2 H 0.3762 0.7037 0.1075
C47_2 C 0.2822(5) 0.7140(10) 0.2181(4)
H64_2 H 0.6381 0.9582 0.3735
C53_2 C 0.6169(5) 0.8650(16) 0.2682(6)
H71_2 H 0.5825 0.8414 0.2839
H72_2 H 0.6466 0.8184 0.2778
H73_2 H 0.6255 0.9324 0.2818
H74_2 H 0.6686 0.9525 0.4654
H75_2 H 0.7213 0.9726 0.4290
H81_2 H 0.4346 0.9686 0.7118
O73_2 O 0.2644(8) 0.6327(17) 0.2575(8)
C66_2 C 0.8711(8) 0.7376(14) 0.1633(7)
H98_2 H 0.8831 0.6779 0.1433
H99_2 H 0.8499 0.7163 0.1946
H100_2 H 0.8481 0.7798 0.1401
C69_2 C 0.2663(7) 0.6537(18) 0.1629(8)
H107_2 H 0.2420 0.5970 0.1714
H108_2 H 0.2475 0.6998 0.1382
H109_2 H 0.2997 0.6283 0.1461
O74_2 O 0.3105(7) 0.7856(16) 0.2232(6)
C73_2 C 0.2003(5) 0.8414(13) 0.3200(6)
C74_2 C 0.1501(9) 0.8441(18) 0.3603(14)
H119_2 H 0.1157 0.8476 0.3400
H120_2 H 0.1504 0.7829 0.3823
H121_2 H 0.1533 0.9034 0.3835
O75_2 O 0.1958(10) 0.865(2) 0.2691(8)
H122_2 H 0.724718 0.936887 0.244416
H123_2 H 0.771207 0.947199 0.29078
O6 O 0.90018(19) 0.4249(4) 0.90979(19)
H4_2 H 0.6292 0.7219 0.9476
O29_2 O 0.8956(2) 0.6347(4) 0.9160(2)
O30_2 O 0.9128(3) 0.7750(5) 0.9599(3)
O48_2 O 0.8259(3) 0.7143(4) 0.8524(3)
H9_2 H 0.801(3) 0.746(3) 0.834(3)
O52 O 0.8391(3) 0.3555(5) 0.8352(3)
H10 H 0.830(4) 0.337(3) 0.8034(16)
C4_2 C 0.8879(3) 0.7280(6) 0.9261(3)
C21_2 C 0.6573(3) 0.8365(5) 0.9822(3)
H23_2 H 0.6935 0.8056 0.9915
C28 C 0.9001(3) 0.3321(7) 0.9080(3)
C33_2 C 0.8455(4) 0.7759(7) 0.8918(4)
H42_2 H 0.8656 0.8301 0.8722
C34_2 C 0.6629(4) 0.9036(6) 0.9303(4)
H43_2 H 0.6899 0.9570 0.9367
H44_2 H 0.6750 0.8615 0.9003
H45_2 H 0.6274 0.9339 0.9215
C40 C 0.8744(4) 0.2798(7) 0.8591(4)
H51 H 0.8541 0.2169 0.8689
C51 C 0.9194(6) 0.2606(11) 0.8156(5)
H65 H 0.9454 0.2097 0.8287
H66 H 0.9019 0.2366 0.7826
H67 H 0.9390 0.3236 0.8084
H97_2 H 0.9967 0.8326 0.8016
C67_2 C 0.8036(7) 0.8305(17) 0.9227(9)
H101_2 H 0.8215 0.8725 0.9499
H102_2 H 0.7820 0.8733 0.8985
H103_2 H 0.7793 0.7819 0.9402
O6_2 O 0.09982(19) 0.9249(4) 0.09021(19)
O41 O 0.0762(2) 0.7748(4) 0.0603(3)
O52_2 O 0.1609(3) 0.8555(5) 0.1648(3)
H10_2 H 0.170(4) 0.837(3) 0.1966(16)
C28_2 C 0.0999(3) 0.8321(7) 0.0920(3)
C40_2 C 0.1256(4) 0.7798(7) 0.1409(4)
H51_2 H 0.1459 0.7169 0.1311
C51_2 C 0.0806(6) 0.7606(11) 0.1844(5)
H65_2 H 0.0546 0.7097 0.1713
H66_2 H 0.0981 0.7366 0.2174
H67_2 H 0.0610 0.8236 0.1916
H5_2 H 0.1499 0.9978 0.2320
C6_2 C 0.0170(4) 0.5270(7) 0.0184(3)
C26_2 C 0.0428(4) 0.5266(7) 0.0741(3)
H29_2 H 0.0435 0.5955 0.0883
H30 H 0.0212 0.4834 0.0978
H31_2 H 0.0804 0.5007 0.0719
H30_2 H 0.9788 0.9834 0.9022
loop_
_geom_bond_atom_site_label_1
_geom_bond_atom_site_label_2
_geom_bond_site_symmetry_1
_geom_bond_site_symmetry_2
Ca15 O3 1_555 1_555
Ca17 O3 1_555 1_555
C1 C2 1_555 1_555
O55 C2 1_555 1_555
H12 O55 1_555 1_555
C30 C2 1_555 1_555
H33 C30 1_555 1_555
H34 C30 1_555 1_555
O20 H4 1_555 1_555
O29 Ca5 1_555 1_555
O30 C4 1_555 1_555
O48 Ca7 1_555 1_555
H9 O48 1_555 1_555
C4 O29 1_555 1_555
C21 O20 1_555 1_555
H23 C21 1_555 1_555
C33 O48 1_555 1_555
H42 C33 1_555 1_555
C34 C21 1_555 1_555
H43 C34 1_555 1_555
H44 C34 1_555 1_555
H45 C34 1_555 1_555
H53 C42 1_555 1_555
H54 C42 1_555 1_555
H55 C42 1_555 1_555
C67 C33 1_555 1_555
H101 C67 1_555 1_555
H102 C67 1_555 1_555
H103 C67 1_555 1_555
O78 Ca5 1_555 1_555
O80 Ca7 1_555 1_555
O90 Ca7 1_555 1_555
O92 Ca7 1_555 1_555
Ca7 O29 1_555 1_555
Ca7 O78 1_555 1_555
O20 Ca17 1_555 1_555
C4 C33 1_555 1_555
Ca17 O77 1_555 1_555
Ca1 O1 1_555 1_555
Ca2 O8 1_555 1_555
Ca3 O4 1_555 1_555
Ca4 O1 1_555 1_555
Ca6 O24 1_555 1_555
Ca8 O23 1_555 1_555
Ca9 O32 1_555 1_555
Ca10 O14 1_555 1_555
Ca11 O33 1_555 1_555
Ca13 O15 1_555 1_555
Ca14 O16 1_555 1_555
O1 C3 1_555 1_555
O2 Ca1 1_555 1_555
O4 Ca1 1_555 1_555
O5 Ca1 1_555 1_555
O7 Ca3 1_555 1_555
H1 O7 1_555 1_555
O10 Ca2 1_555 1_555
O11 Ca1 1_555 1_555
O12 Ca4 1_555 1_555
H2 O12 1_555 1_555
O13 Ca4 1_555 1_555
O14 H3 1_555 1_555
O15 C14 1_555 1_555
O16 Ca4 1_555 1_555
O17 Ca10 1_555 1_555
O18 Ca2 1_555 1_555
O21 Ca3 1_555 1_555
O22 Ca4 1_555 1_555
O23 C25 1_555 1_555
O24 C36 1_555 1_555
O25 Ca8 1_555 1_555
O27 C11 1_555 1_555
O28 Ca3 1_555 1_555
O31 C18 1_555 1_555
O32 C18 1_555 1_555
O33 Ca6 1_555 1_555
O34 Ca3 1_555 1_555
O37 Ca3 1_555 1_555
H6 O37 1_555 1_555
O38 Ca9 1_555 1_555
O39 Ca9 1_555 1_555
O40 Ca10 1_555 1_555
O43 Ca4 1_555 1_555
H7 O43 1_555 1_555
O44 H8 1_555 1_555
O45 Ca12 1_555 1_555
O46 Ca10 1_555 1_555
O47 Ca11 1_555 1_555
O49 Ca8 1_555 1_555
O50 C39 1_555 1_555
O51 Ca9 1_555 1_555
O53 Ca9 1_555 1_555
C3 O18 1_555 1_555
C5 O5 1_555 1_555
C7 O12 1_555 1_555
H13 C7 1_555 1_555
C8 O7 1_555 1_555
H14 C8 1_555 1_555
C9 O2 1_555 1_555
C10 O11 1_555 1_555
C11 O4 1_555 1_555
C12 O33 1_555 1_555
C14 O21 1_555 1_555
O57 Ca10 1_555 1_555
H16 O57 1_555 1_555
C15 O44 1_555 1_555
H17 C15 1_555 1_555
C16 O43 1_555 1_555
H18 C16 1_555 1_555
C17 O22 1_555 1_555
C18 C62 1_555 1_555
O58 C48 1_555 1_555
C19 C8 1_555 1_555
H19 C19 1_555 1_555
H20 C19 1_555 1_555
H21 C19 1_555 1_555
C20 O14 1_555 1_555
H22 C20 1_555 1_555
C22 O17 1_555 1_555
C23 O16 1_555 1_555
O59 Ca10 1_555 1_555
H24 O59 1_555 1_555
O60 Ca8 1_555 1_555
H25 O60 1_555 1_555
C24 O37 1_555 1_555
H26 C24 1_555 1_555
C25 O45 1_555 1_555
O61 Ca11 1_555 1_555
H27 O61 1_555 1_555
O62 H28 1_555 1_555
O63 C50 1_555 1_555
C27 O34 1_555 1_555
C31 C20 1_555 1_555
H35 C31 1_555 1_555
H36 C31 1_555 1_555
H37 C31 1_555 1_555
O64 Ca11 1_555 1_555
C32 C27 1_555 1_555
H38 C32 1_555 1_555
H39 C32 1_555 1_555
H40 C32 1_555 1_555
O65 H41 1_555 1_555
C35 O60 1_555 1_555
H46 C35 1_555 1_555
C36 O53 1_555 1_555
C37 C17 1_555 1_555
H47 C37 1_555 1_555
C38 C15 1_555 1_555
H48 C38 1_555 1_555
H49 C38 1_555 1_555
H50 C38 1_555 1_555
O66 Ca14 1_555 1_555
C39 O51 1_555 1_555
O67 Ca14 1_555 1_555
O68 Ca14 1_555 1_555
C43 C24 1_555 1_555
H56 C43 1_555 1_555
H57 C43 1_555 1_555
H58 C43 1_555 1_555
C44 C37 1_555 1_555
H59 C44 1_555 1_555
H60 C44 1_555 1_555
H61 C44 1_555 1_555
C45 C12 1_555 1_555
H62 C45 1_555 1_555
C47 O73 1_555 1_555
C48 O72 1_555 1_555
C49 O57 1_555 1_555
H64 C49 1_555 1_555
C50 O46 1_555 1_555
O69 Ca14 1_555 1_555
H68 O69 1_555 1_555
C52 O69 1_555 1_555
H69 C52 1_555 1_555
O70 H70 1_555 1_555
C53 C16 1_555 1_555
H71 C53 1_555 1_555
H72 C53 1_555 1_555
H73 C53 1_555 1_555
O71 C56 1_555 1_555
C54 C49 1_555 1_555
H74 C54 1_555 1_555
H75 C54 1_555 1_555
H76 C54 1_555 1_555
O72 Ca13 1_555 1_555
C55 O62 1_555 1_555
H77 C55 1_555 1_555
C56 O68 1_555 1_555
C57 O59 1_555 1_555
H78 C57 1_555 1_555
C58 C55 1_555 1_555
H79 C58 1_555 1_555
H80 C58 1_555 1_555
H81 C58 1_555 1_555
C59 C45 1_555 1_555
H82 C59 1_555 1_555
H83 C59 1_555 1_555
H84 C59 1_555 1_555
C60 O49 1_555 1_555
C62 H88 1_555 1_555
H89 C62 1_555 1_555
H90 C62 1_555 1_555
C63 C39 1_555 1_555
H91 C63 1_555 1_555
C64 C52 1_555 1_555
H93 C64 1_555 1_555
H94 C64 1_555 1_555
C66 C35 1_555 1_555
H98 C66 1_555 1_555
H99 C66 1_555 1_555
H100 C66 1_555 1_555
C68 C63 1_555 1_555
H104 C68 1_555 1_555
H105 C68 1_555 1_555
H106 C68 1_555 1_555
C69 C47 1_555 1_555
H107 C69 1_555 1_555
H108 C69 1_555 1_555
H109 C69 1_555 1_555
C70 C57 1_555 1_555
H110 C70 1_555 1_555
H111 C70 1_555 1_555
H112 C70 1_555 1_555
O74 Ca13 1_555 1_555
C71 C60 1_555 1_555
H113 C71 1_555 1_555
H114 C71 1_555 1_555
H115 C71 1_555 1_555
C72 C48 1_555 1_555
H116 C72 1_555 1_555
H117 C72 1_555 1_555
H118 C72 1_555 1_555
C73 O64 1_555 1_555
C74 C73 1_555 1_555
H119 C74 1_555 1_555
H120 C74 1_555 1_555
H121 C74 1_555 1_555
O75 Ca13 1_555 1_555
Ca19 O17 1_555 1_555
Ca21 O15 1_555 1_555
Ca24 O24 1_555 1_555
Ca25 O50 1_555 1_555
O76 Ca1 1_555 1_555
O81 Ca6 1_555 1_555
O82 Ca12 1_555 1_555
O83 Ca2 1_555 1_555
O85 Ca10 1_555 1_555
O86 Ca8 1_555 1_555
O88 Ca6 1_555 1_555
O89 Ca6 1_555 1_555
O93 Ca6 1_555 1_555
O94 Ca6 1_555 1_555
O95 Ca8 1_555 1_555
O96 Ca10 1_555 1_555
O97 Ca11 1_555 1_555
O98 Ca11 1_555 1_555
Ca2 O76 1_555 1_555
Ca3 O5 1_555 1_555
Ca4 O2 1_555 1_555
Ca9 O88 1_555 1_555
Ca11 O94 1_555 1_555
Ca12 O35 1_555 1_555
Ca13 O21 1_555 1_555
Ca13 O34 1_555 1_555
Ca13 O47 1_555 1_555
Ca13 O64 1_555 1_555
Ca14 O22 1_555 1_555
Ca14 O25 1_555 1_555
Ca14 O40 1_555 1_555
Ca14 O49 1_555 1_555
O10 C5 1_555 1_555
O13 C10 1_555 1_555
O25 C17 1_555 1_555
O28 C9 1_555 1_555
O31 Ca19 1_555 1_555
O32 Ca19 1_555 1_555
O38 C22 1_555 1_555
O39 C12 1_555 1_555
O40 C23 1_555 1_555
O44 Ca21 1_555 1_555
O46 Ca19 1_555 1_555
O47 C27 1_555 1_555
O50 Ca19 1_555 1_555
C3 C7 1_555 1_555
C5 C8 1_555 1_555
C9 C16 1_555 1_555
C11 C24 1_555 1_555
C14 C15 1_555 1_555
C20 C23 1_555 1_555
C22 C49 1_555 1_555
C25 C35 1_555 1_555
O61 C45 1_555 1_555
O62 Ca24 1_555 1_555
O63 Ca25 1_555 1_555
O65 C37 1_555 1_555
C36 C55 1_555 1_555
O66 C60 1_555 1_555
C47 O74 1_555 1_555
C50 C57 1_555 1_555
C52 C56 1_555 1_555
O70 C63 1_555 1_555
O70 Ca25 1_555 1_555
C73 O75 1_555 1_555
Ca19 O85 1_555 1_555
Ca24 O81 1_555 1_555
Ca24 O93 1_555 1_555
O67 H122 1_555 1_555
O67 H123 1_555 1_555
C13 O26 1_555 1_555
O56 H15 1_555 1_555
C41 C13 1_555 1_555
H52 C41 1_555 1_555
C65 C41 1_555 1_555
H95 C65 1_555 1_555
H96 C65 1_555 1_555
Ca22 O26 1_555 1_555
O42 C13 1_555 1_555
O56 C41 1_555 1_555
O56 Ca22 1_555 1_555
O9 C29 1_555 1_555
O36 H5 1_555 1_555
C26 C6 1_555 1_555
H29 C26 1_555 1_555
H31 C26 1_555 1_555
C29 O54 1_555 1_555
C46 O36 1_555 1_555
H63 C46 1_555 1_555
C61 C46 1_555 1_555
H85 C61 1_555 1_555
H86 C61 1_555 1_555
H87 C61 1_555 1_555
Ca18 O9 1_555 1_555
Ca21 O9 1_555 1_555
O36 Ca21 1_555 1_555
C29 C46 1_555 1_555
Ca26 O19 1_555 1_555
O78 C29_2 1_555 1_555
C29_2 O54_2 1_555 1_555
C46_2 O90 1_555 1_555
H63_2 C46_2 1_555 1_555
C61_2 C46_2 1_555 1_555
H85_2 C61_2 1_555 1_555
H86_2 C61_2 1_555 1_555
H87_2 C61_2 1_555 1_555
C29_2 C46_2 1_555 1_555
C13_2 O86 1_555 1_555
O95 H15_2 1_555 1_555
C41_2 C13_2 1_555 1_555
H52_2 C41_2 1_555 1_555
C65_2 C41_2 1_555 1_555
H95_2 C65_2 1_555 1_555
H96_2 C65_2 1_555 1_555
O42_2 C13_2 1_555 1_555
O95 C41_2 1_555 1_555
Ca15 O1_2 1_555 1_555
Ca4_2 O1_2 1_555 1_555
Ca23 O89 1_555 1_555
Ca24 O14_2 1_555 1_555
Ca14_2 O16_2 1_555 1_555
O1_2 C3_2 1_555 1_555
O5_2 Ca15 1_555 1_555
H1_2 O7_2 1_555 1_555
O77 C1_2 1_555 1_555
O10_2 Ca17 1_555 1_555
O12_2 Ca4_2 1_555 1_555
H2_2 O12_2 1_555 1_555
O14_2 H3_2 1_555 1_555
O16_2 Ca4_2 1_555 1_555
O18_2 Ca17 1_555 1_555
O22_2 Ca4_2 1_555 1_555
O25_2 Ca22 1_555 1_555
O88 C18_2 1_555 1_555
O89 C18_2 1_555 1_555
O38_2 Ca23 1_555 1_555
O39_2 Ca23 1_555 1_555
O40_2 Ca24 1_555 1_555
C1_2 C2_2 1_555 1_555
O49_2 Ca22 1_555 1_555
O94 C39_2 1_555 1_555
O51_2 Ca23 1_555 1_555
O53_2 Ca23 1_555 1_555
C2_2 H11_2 1_555 1_555
C3_2 O18_2 1_555 1_555
O55_2 C2_2 1_555 1_555
H12_2 O55_2 1_555 1_555
C5_2 O5_2 1_555 1_555
C7_2 O12_2 1_555 1_555
H13_2 C7_2 1_555 1_555
C8_2 O7_2 1_555 1_555
H14_2 C8_2 1_555 1_555
O57_2 Ca24 1_555 1_555
H16_2 O57_2 1_555 1_555
C17_2 O22_2 1_555 1_555
C18_2 C62_2 1_555 1_555
O58_2 C48_2 1_555 1_555
C19_2 C8_2 1_555 1_555
H19_2 C19_2 1_555 1_555
H20_2 C19_2 1_555 1_555
H21_2 C19_2 1_555 1_555
C20_2 O14_2 1_555 1_555
H22_2 C20_2 1_555 1_555
C22_2 O81 1_555 1_555
C23_2 O16_2 1_555 1_555
O59_2 Ca24 1_555 1_555
H24_2 O59_2 1_555 1_555
O97 C50_2 1_555 1_555
C30_2 C2_2 1_555 1_555
H32_2 C30_2 1_555 1_555
H33_2 C30_2 1_555 1_555
H34_2 C30_2 1_555 1_555
C31_2 C20_2 1_555 1_555
H35_2 C31_2 1_555 1_555
H36_2 C31_2 1_555 1_555
H37_2 C31_2 1_555 1_555
H48_2 C38_2 1_555 1_555
H49_2 C38_2 1_555 1_555
H50_2 C38_2 1_555 1_555
O66_2 Ca14_2 1_555 1_555
C39_2 O51_2 1_555 1_555
O68_2 Ca14_2 1_555 1_555
H59_2 C44_2 1_555 1_555
H60_2 C44_2 1_555 1_555
H61_2 C44_2 1_555 1_555
C45_2 C12_2 1_555 1_555
H62_2 C45_2 1_555 1_555
C48_2 O72_2 1_555 1_555
C49_2 O57_2 1_555 1_555
C50_2 O93 1_555 1_555
O69_2 Ca14_2 1_555 1_555
H68_2 O69_2 1_555 1_555
C52_2 O69_2 1_555 1_555
H69_2 C52_2 1_555 1_555
O98 H70_2 1_555 1_555
O71_2 C56_2 1_555 1_555
C54_2 C49_2 1_555 1_555
H76_2 C54_2 1_555 1_555
H77_2 C55_2 1_555 1_555
C56_2 O68_2 1_555 1_555
C57_2 O59_2 1_555 1_555
H78_2 C57_2 1_555 1_555
C58_2 C55_2 1_555 1_555
H79_2 C58_2 1_555 1_555
H80_2 C58_2 1_555 1_555
C59_2 C45_2 1_555 1_555
H82_2 C59_2 1_555 1_555
H83_2 C59_2 1_555 1_555
H84_2 C59_2 1_555 1_555
C60_2 O49_2 1_555 1_555
C62_2 H88_2 1_555 1_555
H89_2 C62_2 1_555 1_555
H90_2 C62_2 1_555 1_555
C63_2 C39_2 1_555 1_555
H91_2 C63_2 1_555 1_555
C64_2 C52_2 1_555 1_555
H92_2 C64_2 1_555 1_555
H93_2 C64_2 1_555 1_555
H94_2 C64_2 1_555 1_555
C68_2 C63_2 1_555 1_555
H104_2 C68_2 1_555 1_555
H105_2 C68_2 1_555 1_555
H106_2 C68_2 1_555 1_555
C70_2 C57_2 1_555 1_555
H110_2 C70_2 1_555 1_555
H111_2 C70_2 1_555 1_555
H112_2 C70_2 1_555 1_555
C71_2 C60_2 1_555 1_555
H113_2 C71_2 1_555 1_555
H114_2 C71_2 1_555 1_555
H115_2 C71_2 1_555 1_555
C72_2 C48_2 1_555 1_555
H116_2 C72_2 1_555 1_555
H117_2 C72_2 1_555 1_555
H118_2 C72_2 1_555 1_555
Ca14_2 O22_2 1_555 1_555
Ca14_2 O25_2 1_555 1_555
Ca14_2 O40_2 1_555 1_555
Ca14_2 O49_2 1_555 1_555
O10_2 C5_2 1_555 1_555
O25_2 C17_2 1_555 1_555
O38_2 C22_2 1_555 1_555
O39_2 C12_2 1_555 1_555
O40_2 C23_2 1_555 1_555
C3_2 C7_2 1_555 1_555
C5_2 C8_2 1_555 1_555
C20_2 C23_2 1_555 1_555
C22_2 C49_2 1_555 1_555
O66_2 C60_2 1_555 1_555
C50_2 C57_2 1_555 1_555
C52_2 C56_2 1_555 1_555
O98 C63_2 1_555 1_555
H53_2 C42_2 1_555 1_555
H54_2 C42_2 1_555 1_555
H55_2 C42_2 1_555 1_555
Ca3_2 O4_2 1_555 1_555
Ca25 O33_2 1_555 1_555
O21_2 Ca3_2 1_555 1_555
O84 C25_2 1_555 1_555
O85 C36_2 1_555 1_555
O87 C11_2 1_555 1_555
O28_2 Ca3_2 1_555 1_555
O33_2 Ca19 1_555 1_555
O34_2 Ca3_2 1_555 1_555
O37_2 Ca3_2 1_555 1_555
H6_2 O37_2 1_555 1_555
H7_2 O43_2 1_555 1_555
O45_2 Ca26 1_555 1_555
O47_2 Ca25 1_555 1_555
C9_2 O2_2 1_555 1_555
C10_2 O79 1_555 1_555
C11_2 O4_2 1_555 1_555
C14_2 O21_2 1_555 1_555
H17_2 C15_2 1_555 1_555
C16_2 O43_2 1_555 1_555
H18_2 C16_2 1_555 1_555
H25_2 O60_2 1_555 1_555
C24_2 O37_2 1_555 1_555
H26_2 C24_2 1_555 1_555
C25_2 O45_2 1_555 1_555
O61_2 Ca25 1_555 1_555
O96 H28_2 1_555 1_555
C27_2 O34_2 1_555 1_555
O64_2 Ca25 1_555 1_555
C32_2 C27_2 1_555 1_555
H38_2 C32_2 1_555 1_555
H39_2 C32_2 1_555 1_555
H40_2 C32_2 1_555 1_555
O65_2 H41_2 1_555 1_555
C35_2 O60_2 1_555 1_555
H46_2 C35_2 1_555 1_555
H47_2 C37_2 1_555 1_555
C43_2 C24_2 1_555 1_555
H56_2 C43_2 1_555 1_555
H57_2 C43_2 1_555 1_555
H58_2 C43_2 1_555 1_555
C47_2 O73_2 1_555 1_555
C53_2 C16_2 1_555 1_555
H71_2 C53_2 1_555 1_555
H72_2 C53_2 1_555 1_555
H73_2 C53_2 1_555 1_555
C66_2 C35_2 1_555 1_555
H98_2 C66_2 1_555 1_555
H99_2 C66_2 1_555 1_555
H100_2 C66_2 1_555 1_555
C69_2 C47_2 1_555 1_555
H107_2 C69_2 1_555 1_555
H108_2 C69_2 1_555 1_555
H109_2 C69_2 1_555 1_555
O74_2 Ca13_2 1_555 1_555
C73_2 O64_2 1_555 1_555
C74_2 C73_2 1_555 1_555
H119_2 C74_2 1_555 1_555
H120_2 C74_2 1_555 1_555
H121_2 C74_2 1_555 1_555
O75_2 Ca13_2 1_555 1_555
Ca26 O35_2 1_555 1_555
Ca13_2 O21_2 1_555 1_555
Ca13_2 O34_2 1_555 1_555
Ca13_2 O47_2 1_555 1_555
Ca13_2 O64_2 1_555 1_555
O13_2 C10_2 1_555 1_555
O28_2 C9_2 1_555 1_555
O47_2 C27_2 1_555 1_555
C9_2 C16_2 1_555 1_555
C11_2 C24_2 1_555 1_555
C14_2 C15_2 1_555 1_555
C25_2 C35_2 1_555 1_555
O65_2 C37_2 1_555 1_555
C47_2 O74_2 1_555 1_555
C73_2 O75_2 1_555 1_555
O67_2 H122_2 1_555 1_555
O67_2 H123_2 1_555 1_555
Ca18 O6 1_555 1_555
Ca21 O6 1_555 1_555
O6 C28 1_555 1_555
O83 H4_2 1_555 1_555
O29_2 Ca18 1_555 1_555
O30_2 C4_2 1_555 1_555
O91 C28 1_555 1_555
O48_2 Ca21 1_555 1_555
H9_2 O48_2 1_555 1_555
O52 Ca21 1_555 1_555
H10 O52 1_555 1_555
C4_2 O29_2 1_555 1_555
C21_2 O83 1_555 1_555
H23_2 C21_2 1_555 1_555
C28 C40 1_555 1_555
C33_2 O48_2 1_555 1_555
H42_2 C33_2 1_555 1_555
C34_2 C21_2 1_555 1_555
H43_2 C34_2 1_555 1_555
H44_2 C34_2 1_555 1_555
H45_2 C34_2 1_555 1_555
C40 O52 1_555 1_555
H51 C40 1_555 1_555
C51 C40 1_555 1_555
H65 C51 1_555 1_555
H66 C51 1_555 1_555
H67 C51 1_555 1_555
C67_2 C33_2 1_555 1_555
H101_2 C67_2 1_555 1_555
H102_2 C67_2 1_555 1_555
H103_2 C67_2 1_555 1_555
Ca21 O29_2 1_555 1_555
C4_2 C33_2 1_555 1_555
O6_2 C28_2 1_555 1_555
O41 C28_2 1_555 1_555
H10_2 O52_2 1_555 1_555
C28_2 C40_2 1_555 1_555
C40_2 O52_2 1_555 1_555
H51_2 C40_2 1_555 1_555
C51_2 C40_2 1_555 1_555
H65_2 C51_2 1_555 1_555
H66_2 C51_2 1_555 1_555
H67_2 C51_2 1_555 1_555
C26_2 C6_2 1_555 1_555
H29_2 C26_2 1_555 1_555
H30 C26_2 1_555 1_555
H31_2 C26_2 1_555 1_555

#END
