
###############################################################################
#
# This file contains modified crystal structure data generated from the
# MOF subset of the Cambridge Structural Database (CSD) v543 
# hosted by the Cambridge Crystallographic Data Centre (CCDC).
#
# This work is licensed under the Creative Commons
# Attribution-NonCommercial-ShareAlike 4.0 International License.
# To view a copy of this license, visit
# http://creativecommons.org/licenses/by-nc-sa/4.0/
# or send a letter to
# Creative Commons, PO Box 1866, Mountain View, CA 94042, USA.
#
# CIF created using the CSD Python API on 29 September 2022
# The structure has been converted into the P1 space group
# The structure has a 3D framework
# The original CSD entry XEHRUY is in the monoclinic crystal system
# The framework has been calculated to contain at least 10.0% void space
# The void calculation uses a probe of radius 1.32A, grid spacing 0.4
#
###############################################################################

data_XEHRUY
_chemical_formula_moiety         '(C24 H24 Mg19 O48)n'
_symmetry_cell_setting           triclinic
_symmetry_space_group_name_H-M   'P 1'
_symmetry_Int_Tables_number      1
_space_group_name_Hall           'P 1'
loop_
_symmetry_equiv_pos_site_id
_symmetry_equiv_pos_as_xyz
1 x,y,z
_cell_length_a                   11.3805(4)
_cell_length_b                   9.8406(3)
_cell_length_c                   14.5057(5)
_cell_angle_alpha                90
_cell_angle_beta                 91.429(2)
_cell_angle_gamma                90
_cell_volume                     1624
loop_
_atom_site_label
_atom_site_type_symbol
_atom_site_fract_x
_atom_site_fract_y
_atom_site_fract_z
Mg14 Mg -0.0000 -0.0000 0.0000
Mg11 Mg 0.26071(5) 0.10922(5) 0.68940(4)
Mg14_2 Mg -0.0000 -0.0000 1.0000
Mg14_3 Mg -0.0000 1.0000 0.0000
Mg1 Mg 0.25647(4) 0.41905(5) 0.63437(4)
Mg2 Mg -0.0000 0.5000 0.5000
Mg3 Mg 0.23929(5) 0.60922(5) 0.81060(4)
Mg4 Mg 0.5000 0.5000 0.5000
O1 O 0.13109(9) 0.50375(10) 0.71982(8)
O3 O 0.15722(9) 0.24187(10) 0.61046(8)
O4 O 0.01837(10) 0.29229(11) 0.50396(8)
O5 O 0.39986(9) 0.34726(10) 0.56333(8)
O6 O 0.39008(10) 0.12511(11) 0.59708(8)
O7 O 0.30748(9) 0.29732(10) 0.74687(7)
O8 O 0.31286(10) 0.44012(11) 0.86741(8)
O9 O 0.18277(9) 0.52389(11) 0.52466(8)
O10 O 0.34981(10) 0.60195(11) 0.46589(9)
O11 O 0.34829(9) 0.57942(10) 0.69661(8)
O12 O 0.51428(10) 0.61049(12) 0.61969(9)
C1 C 0.02053(13) 0.51646(15) 0.71069(11)
C2 C 0.07663(14) 0.21114(14) 0.55138(11)
H2 H 0.0602 0.1193 0.5432
C3 C 0.43339(13) 0.22355(14) 0.55705(11)
H3 H 0.4961 0.2060 0.5189
C4 C 0.32876(13) 0.32743(14) 0.83125(11)
H4 H 0.3589 0.2588 0.8690
C5 C 0.24174(13) 0.59788(15) 0.46970(11)
H5 H 0.1993 0.6534 0.4291
C6 C 0.44822(14) 0.63435(15) 0.68384(11)
H6 H 0.4736 0.6985 0.7270
Mg6 Mg 0.24353(4) 0.91905(5) 0.86563(4)
Mg7 Mg 0.74353(4) 0.58095(5) 0.36563(4)
Mg12 Mg 0.76071(5) 0.39078(5) 0.18940(4)
Mg14_4 Mg -0.0000 1.0000 1.0000
O14 O 0.03690(10) 0.49828(12) 0.36212(8)
O16 O 0.34278(9) 0.74187(10) 0.88954(8)
O19 O 0.10014(9) 0.84726(10) 0.93667(8)
O20 O 0.60014(9) 0.65274(10) 0.43667(8)
O22 O 0.10992(10) 0.62511(11) 0.90292(8)
O24 O 0.19252(9) 0.79732(10) 0.75313(7)
O27 O 0.18714(10) 0.94012(11) 0.63259(8)
O31 O 0.65019(10) 0.39805(11) 0.53411(9)
O32 O 0.65171(9) 0.42058(10) 0.30339(8)
O34 O 0.48572(10) 0.38951(12) 0.38031(9)
H7 H 0.0208 0.4613 0.2369
C9 C 0.06661(13) 0.72355(14) 0.94295(11)
H9 H 0.0039 0.7060 0.9811
C10 C 0.17124(13) 0.82743(14) 0.66875(11)
H10 H 0.1411 0.7588 0.6310
C12 C 0.55178(14) 0.36565(15) 0.31616(11)
H12 H 0.5264 0.3015 0.2730
Mg14_5 Mg 1.0000 -0.0000 0.0000
Mg14_6 Mg 1.0000 -0.0000 1.0000
Mg14_7 Mg 1.0000 1.0000 0.0000
Mg2_2 Mg 1.0000 0.5000 0.5000
O2 O 0.96310(10) 0.50172(12) 0.63788(8)
H1 H 0.9792 0.5387 0.7631
Mg10 Mg 0.73929(5) 0.89078(5) 0.31060(4)
Mg14_8 Mg 1.0000 1.0000 1.0000
O13 O 0.86891(9) 0.49625(10) 0.28018(8)
O15 O 0.84278(9) 0.75813(10) 0.38954(8)
O17 O 0.65722(9) 0.25813(10) 0.11046(8)
O18 O 0.98163(10) 0.70771(11) 0.49604(8)
O23 O 0.89008(10) 0.37489(11) 0.09708(8)
O25 O 0.69252(9) 0.70268(10) 0.25313(7)
O26 O 0.80748(9) 0.20268(10) 0.24687(7)
O28 O 0.68714(10) 0.55988(11) 0.13259(8)
O29 O 0.81723(9) 0.47611(11) 0.47534(8)
C7 C 0.97947(13) 0.48354(15) 0.28931(11)
C8 C 0.92337(14) 0.78886(14) 0.44862(11)
H8 H 0.9398 0.8807 0.4568
C11 C 0.75826(13) 0.40212(15) 0.53030(11)
H11 H 0.8007 0.3466 0.5709
Mg2_3 Mg 0.5000 -0.0000 0.0000
O10_2 O 0.15019(10) 0.10195(11) 0.03411(9)
C5_2 C 0.25826(13) 0.09788(15) 0.03030(11)
H5_2 H 0.3007 0.1534 0.0709
Mg5 Mg 0.75647(4) 0.08095(5) 0.13437(4)
O18_2 O 0.51837(10) 0.20771(11) 0.00396(8)
O21 O 0.89986(9) 0.15274(10) 0.06333(8)
O28_2 O 0.81286(10) 0.05988(11) 0.36741(8)
C8_2 C 0.57663(14) 0.28886(14) 0.05138(11)
H8_2 H 0.5602 0.3807 0.0432
Mg2_4 Mg 0.5000 -0.0000 1.0000
O1_2 O 0.36891(9) 0.00375(10) 0.78018(8)
O2_2 O 0.53690(10) 0.00172(12) 0.86212(8)
O9_2 O 0.31723(9) 0.02389(11) 0.97534(8)
O11_2 O 0.15171(9) 0.07942(10) 0.80339(8)
C1_2 C 0.47947(13) 0.01646(15) 0.78931(11)
H1_2 H 0.5208 0.0387 0.7369
C6_2 C 0.05178(14) 0.13435(15) 0.81616(11)
H6_2 H 0.0264 0.1985 0.7730
Mg2_5 Mg 0.5000 1.0000 0.0000
O13_2 O 0.63109(9) 0.99625(10) 0.21982(8)
O14_2 O 0.46310(10) 0.99828(12) 0.13788(8)
O23_2 O 0.60992(10) 0.87489(11) 0.40292(8)
O29_2 O 0.68277(9) 0.97611(11) 0.02466(8)
O33 O 0.84829(9) 0.92058(10) 0.19661(8)
O34_2 O 0.01428(10) 0.88951(12) 0.11969(9)
C7_2 C 0.52053(13) 0.98354(15) 0.21069(11)
H7_2 H 0.4792 0.9613 0.2631
Mg2_6 Mg 0.5000 1.0000 1.0000
O4_2 O 0.48163(10) 0.79229(11) 0.99604(8)
C2_2 C 0.42337(14) 0.71114(14) 0.94862(11)
H2_2 H 0.4398 0.6193 0.9568
O30 O 0.84981(10) 0.89805(11) 0.96589(9)
C11_2 C 0.74174(13) 0.90212(15) 0.96970(11)
H11_2 H 0.6993 0.8466 0.9291
O12_2 O 0.98572(10) 0.11049(12) 0.88031(9)
C12_2 C 0.94822(14) 0.86565(15) 0.18384(11)
H12_2 H 0.9736 0.8015 0.2270
C3_2 C 0.56661(13) 0.77645(14) 0.44295(11)
H3_2 H 0.5039 0.7940 0.4811
C4_2 C 0.67124(13) 0.67257(14) 0.16875(11)
H4_2 H 0.6411 0.7412 0.1310
C9_2 C 0.93339(13) 0.27645(14) 0.05705(11)
H9_2 H 0.9961 0.2940 0.0189
C10_2 C 0.82876(13) 0.17257(14) 0.33125(11)
H10_2 H 0.8589 0.2412 0.3690
loop_
_geom_bond_atom_site_label_1
_geom_bond_atom_site_label_2
_geom_bond_site_symmetry_1
_geom_bond_site_symmetry_2
Mg1 O1 1_555 1_555
Mg3 O1 1_555 1_555
Mg4 O5 1_555 1_555
O1 C1 1_555 1_555
O3 Mg1 1_555 1_555
O4 Mg2 1_555 1_555
O5 Mg1 1_555 1_555
O6 C3 1_555 1_555
O7 Mg1 1_555 1_555
O8 Mg3 1_555 1_555
O9 Mg1 1_555 1_555
O10 Mg4 1_555 1_555
O11 Mg1 1_555 1_555
O12 Mg4 1_555 1_555
C2 O3 1_555 1_555
H2 C2 1_555 1_555
C3 O5 1_555 1_555
H3 C3 1_555 1_555
C4 O7 1_555 1_555
H4 C4 1_555 1_555
C5 O9 1_555 1_555
H5 C5 1_555 1_555
C6 O11 1_555 1_555
H6 C6 1_555 1_555
Mg6 O16 1_555 1_555
Mg7 O20 1_555 1_555
Mg11 O3 1_555 1_555
Mg12 O32 1_555 1_555
Mg14_4 O19 1_555 1_555
O14 Mg2 1_555 1_555
O16 Mg3 1_555 1_555
O19 Mg6 1_555 1_555
O20 Mg4 1_555 1_555
O22 Mg3 1_555 1_555
O24 Mg3 1_555 1_555
O27 C10 1_555 1_555
O31 Mg4 1_555 1_555
O32 Mg7 1_555 1_555
O34 Mg4 1_555 1_555
C9 O19 1_555 1_555
H9 C9 1_555 1_555
C10 O24 1_555 1_555
H10 C10 1_555 1_555
C12 O32 1_555 1_555
H12 C12 1_555 1_555
Mg2 O9 1_555 1_555
Mg3 O11 1_555 1_555
O4 C2 1_555 1_555
O6 Mg11 1_555 1_555
O7 Mg11 1_555 1_555
O8 C4 1_555 1_555
O10 C5 1_555 1_555
O12 C6 1_555 1_555
Mg6 O24 1_555 1_555
O22 C9 1_555 1_555
O34 C12 1_555 1_555
Mg2_2 O2 1_555 1_555
Mg7 O13 1_555 1_555
Mg12 O13 1_555 1_555
Mg10 O15 1_555 1_555
O13 C7 1_555 1_555
O15 Mg7 1_555 1_555
O17 Mg12 1_555 1_555
O18 Mg2_2 1_555 1_555
O23 Mg12 1_555 1_555
O25 Mg7 1_555 1_555
O26 Mg12 1_555 1_555
O28 Mg12 1_555 1_555
O29 Mg2_2 1_555 1_555
C8 O15 1_555 1_555
H8 C8 1_555 1_555
C11 O29 1_555 1_555
H11 C11 1_555 1_555
Mg7 O29 1_555 1_555
Mg10 O25 1_555 1_555
O18 C8 1_555 1_555
O31 C11 1_555 1_555
O10_2 Mg14 1_555 1_555
H5_2 C5_2 1_555 1_555
Mg14_5 O21 1_555 1_555
O17 Mg5 1_555 1_555
O18_2 Mg2_3 1_555 1_555
O21 Mg5 1_555 1_555
O26 Mg5 1_555 1_555
C8_2 O17 1_555 1_555
H8_2 C8_2 1_555 1_555
O10_2 C5_2 1_555 1_555
O18_2 C8_2 1_555 1_555
Mg2_4 O2_2 1_555 1_555
Mg11 O1_2 1_555 1_555
O1_2 C1_2 1_555 1_555
O2_2 C1_2 1_555 1_555
C1_2 H1_2 1_555 1_555
C6_2 O11_2 1_555 1_555
H6_2 C6_2 1_555 1_555
Mg2_4 O9_2 1_555 1_555
Mg11 O11_2 1_555 1_555
Mg10 O13_2 1_555 1_555
O13_2 C7_2 1_555 1_555
O14_2 Mg2_5 1_555 1_555
O23_2 Mg10 1_555 1_555
O29_2 Mg2_5 1_555 1_555
O34_2 Mg14_3 1_555 1_555
C7_2 O14_2 1_555 1_555
H7_2 C7_2 1_555 1_555
Mg10 O33 1_555 1_555
O4_2 Mg2_6 1_555 1_555
C2_2 O16 1_555 1_555
H2_2 C2_2 1_555 1_555
O30 Mg14_8 1_555 1_555
H11_2 C11_2 1_555 1_555
O4_2 C2_2 1_555 1_555
O30 C11_2 1_555 1_555
O12_2 Mg14_6 1_555 1_555
C12_2 O33 1_555 1_555
H12_2 C12_2 1_555 1_555
O23_2 C3_2 1_555 1_555
C3_2 O20 1_555 1_555
H3_2 C3_2 1_555 1_555
C4_2 O25 1_555 1_555
H4_2 C4_2 1_555 1_555
O28_2 C10_2 1_555 1_555
C9_2 O21 1_555 1_555
H9_2 C9_2 1_555 1_555
C10_2 O26 1_555 1_555
H10_2 C10_2 1_555 1_555
O28 C4_2 1_555 1_555
O23 C9_2 1_555 1_555

#END
