
###############################################################################
#
# This file contains modified crystal structure data generated from the
# MOF subset of the Cambridge Structural Database (CSD) v543 
# hosted by the Cambridge Crystallographic Data Centre (CCDC).
#
# This work is licensed under the Creative Commons
# Attribution-NonCommercial-ShareAlike 4.0 International License.
# To view a copy of this license, visit
# http://creativecommons.org/licenses/by-nc-sa/4.0/
# or send a letter to
# Creative Commons, PO Box 1866, Mountain View, CA 94042, USA.
#
# CIF created using the CSD Python API on 29 September 2022
# The structure has been converted into the P1 space group
# The structure has a 3D framework
# The original CSD entry XEHSEJ is in the monoclinic crystal system
# The framework has been calculated to contain at least 10.0% void space
# The void calculation uses a probe of radius 1.32A, grid spacing 0.4
#
###############################################################################

data_XEHSEJ
_chemical_formula_moiety         '(C24 H24 Mg19 O48)n'
_symmetry_cell_setting           triclinic
_symmetry_space_group_name_H-M   'P 1'
_symmetry_Int_Tables_number      1
_space_group_name_Hall           'P 1'
loop_
_symmetry_equiv_pos_site_id
_symmetry_equiv_pos_as_xyz
1 x,y,z
_cell_length_a                   11.3762(10)
_cell_length_b                   9.9831(9)
_cell_length_c                   15.0358(13)
_cell_angle_alpha                90
_cell_angle_beta                 91.203(5)
_cell_angle_gamma                90
_cell_volume                     1707.24
loop_
_atom_site_label
_atom_site_type_symbol
_atom_site_fract_x
_atom_site_fract_y
_atom_site_fract_z
Mg14 Mg 0.0000 0.0000 0.0000
Mg11 Mg 0.26002(5) 0.12626(5) 0.69824(3)
Mg14_2 Mg 0.0000 0.0000 1.0000
Mg14_3 Mg 0.0000 1.0000 0.0000
Mg1 Mg 0.25497(4) 0.42938(5) 0.63552(3)
Mg2 Mg 0.0000 0.5000 0.5000
Mg3 Mg 0.23998(5) 0.62626(5) 0.80176(3)
Mg4 Mg 0.5000 0.5000 0.5000
O1 O 0.13103(9) 0.52049(11) 0.71483(7)
O3 O 0.15424(9) 0.25391(11) 0.62116(7)
O4 O 0.01033(10) 0.29799(11) 0.52170(8)
O5 O 0.40095(9) 0.35641(11) 0.57005(7)
O6 O 0.39157(10) 0.13998(11) 0.60937(7)
O7 O 0.30741(9) 0.31410(11) 0.74807(7)
O8 O 0.31165(10) 0.46187(11) 0.85972(7)
O9 O 0.18427(9) 0.51961(11) 0.52280(7)
O10 O 0.34897(10) 0.58976(12) 0.45777(7)
O11 O 0.34620(9) 0.59392(11) 0.69000(7)
O12 O 0.50416(10) 0.62833(12) 0.60670(7)
C1 C 0.02035(14) 0.53762(16) 0.70356(11)
C2 C 0.06565(14) 0.22210(16) 0.57170(11)
H2 H 0.0402 0.1315 0.5738
C3 C 0.43549(13) 0.23460(16) 0.56837(10)
H3 H 0.5009 0.2148 0.5324
C4 C 0.32746(14) 0.34841(16) 0.82851(10)
H4 H 0.3570 0.2815 0.8680
C5 C 0.24094(14) 0.58370(16) 0.46363(11)
H5 H 0.1956 0.6311 0.4201
C6 C 0.44010(14) 0.65545(16) 0.66946(11)
H6 H 0.4629 0.7291 0.7059
Mg6 Mg 0.24503(4) 0.92938(5) 0.86448(3)
Mg7 Mg 0.74503(4) 0.57062(5) 0.36448(3)
Mg12 Mg 0.76002(5) 0.37374(5) 0.19824(3)
Mg14_4 Mg 0.0000 1.0000 1.0000
O14 O 0.03450(10) 0.47329(12) 0.36755(7)
O16 O 0.34576(9) 0.75391(11) 0.87884(7)
O19 O 0.09905(9) 0.85641(11) 0.92995(7)
O20 O 0.59905(9) 0.64359(11) 0.42995(7)
O22 O 0.10843(10) 0.63998(11) 0.89063(7)
O24 O 0.19259(9) 0.81410(11) 0.75193(7)
O27 O 0.18835(10) 0.96187(11) 0.64028(7)
O31 O 0.65103(10) 0.41024(12) 0.54223(7)
O32 O 0.65380(9) 0.40608(11) 0.31000(7)
O34 O 0.49584(10) 0.37167(12) 0.39330(7)
H7 H 0.0234 0.4392 0.2455
C9 C 0.06451(13) 0.73460(16) 0.93163(10)
C10 C 0.17254(14) 0.84841(16) 0.67149(10)
H10 H 0.1430 0.7815 0.6320
C12 C 0.55990(14) 0.34455(16) 0.33054(11)
H12 H 0.5371 0.2709 0.2941
Mg14_5 Mg 1.0000 0.0000 0.0000
Mg14_6 Mg 1.0000 0.0000 1.0000
Mg14_7 Mg 1.0000 1.0000 0.0000
Mg2_2 Mg 1.0000 0.5000 0.5000
O2 O 0.96550(10) 0.52671(12) 0.63245(7)
H1 H 0.9766 0.5608 0.7545
Mg10 Mg 0.73998(5) 0.87374(5) 0.30176(3)
Mg14_8 Mg 1.0000 1.0000 1.0000
O13 O 0.86897(9) 0.47951(11) 0.28517(7)
O15 O 0.84576(9) 0.74609(11) 0.37884(7)
O17 O 0.65424(9) 0.24609(11) 0.12116(7)
O18 O 0.98967(10) 0.70201(11) 0.47830(8)
O23 O 0.89157(10) 0.36002(11) 0.10937(7)
O25 O 0.69259(9) 0.68590(11) 0.25193(7)
O26 O 0.80741(9) 0.18590(11) 0.24807(7)
O28 O 0.68835(10) 0.53813(11) 0.14028(7)
O29 O 0.81573(9) 0.48039(11) 0.47720(7)
C7 C 0.97965(14) 0.46238(16) 0.29644(11)
C8 C 0.93435(14) 0.77790(16) 0.42830(11)
H8 H 0.9598 0.8685 0.4262
H9 H 0.9991 0.7148 0.9676
C11 C 0.75906(14) 0.41630(16) 0.53637(11)
H11 H 0.8044 0.3689 0.5799
Mg2_3 Mg 0.5000 0.0000 0.0000
O10_2 O 0.15103(10) 0.08976(12) 0.04223(7)
C5_2 C 0.25906(14) 0.08370(16) 0.03637(11)
H5_2 H 0.3044 0.1311 0.0799
Mg5 Mg 0.75497(4) 0.07062(5) 0.13552(3)
O18_2 O 0.51033(10) 0.20201(11) 0.02170(8)
O21 O 0.90095(9) 0.14359(11) 0.07005(7)
O28_2 O 0.81165(10) 0.03813(11) 0.35972(7)
C8_2 C 0.56565(14) 0.27790(16) 0.07170(11)
H8_2 H 0.5402 0.3685 0.0738
Mg2_4 Mg 0.5000 0.0000 1.0000
O1_2 O 0.36897(9) 0.02049(11) 0.78517(7)
O2_2 O 0.53450(10) 0.02671(12) 0.86755(7)
O9_2 O 0.31573(9) 0.01961(11) 0.97720(7)
O11_2 O 0.15380(9) 0.09392(11) 0.81000(7)
C1_2 C 0.47965(14) 0.03762(16) 0.79644(11)
H1_2 H 0.5234 0.0608 0.7455
C6_2 C 0.05990(14) 0.15545(16) 0.83054(11)
H6_2 H 0.0371 0.2291 0.7941
Mg2_5 Mg 0.5000 1.0000 0.0000
O13_2 O 0.63103(9) 0.97951(11) 0.21483(7)
O14_2 O 0.46550(10) 0.97329(12) 0.13245(7)
O23_2 O 0.60843(10) 0.86002(11) 0.39063(7)
O29_2 O 0.68427(9) 0.98039(11) 0.02280(7)
O33 O 0.84620(9) 0.90608(11) 0.19000(7)
O34_2 O 0.00416(10) 0.87167(12) 0.10670(7)
C7_2 C 0.52035(14) 0.96238(16) 0.20356(11)
H7_2 H 0.4766 0.9392 0.2545
Mg2_6 Mg 0.5000 1.0000 1.0000
O4_2 O 0.48967(10) 0.79799(11) 0.97830(8)
C2_2 C 0.43435(14) 0.72210(16) 0.92830(11)
H2_2 H 0.4598 0.6315 0.9262
O30 O 0.84897(10) 0.91024(12) 0.95777(7)
C11_2 C 0.74094(14) 0.91630(16) 0.96363(11)
H11_2 H 0.6956 0.8689 0.9201
O12_2 O 0.99584(10) 0.12833(12) 0.89330(7)
C12_2 C 0.94010(14) 0.84455(16) 0.16946(11)
H12_2 H 0.9629 0.7709 0.2059
H9_2 H 0.0009 0.2852 0.0324
C3_2 C 0.56451(13) 0.76540(16) 0.43163(10)
H3_2 H 0.4991 0.7852 0.4676
C4_2 C 0.67254(14) 0.65159(16) 0.17149(10)
H4_2 H 0.6430 0.7185 0.1320
C9_2 C 0.93549(13) 0.26540(16) 0.06837(10)
C10_2 C 0.82746(14) 0.15159(16) 0.32851(10)
H10_2 H 0.8570 0.2185 0.3680
loop_
_geom_bond_atom_site_label_1
_geom_bond_atom_site_label_2
_geom_bond_site_symmetry_1
_geom_bond_site_symmetry_2
Mg1 O1 1_555 1_555
Mg3 O1 1_555 1_555
Mg4 O5 1_555 1_555
O1 C1 1_555 1_555
O3 Mg1 1_555 1_555
O4 Mg2 1_555 1_555
O5 Mg1 1_555 1_555
O6 C3 1_555 1_555
O7 Mg1 1_555 1_555
O8 Mg3 1_555 1_555
O9 Mg1 1_555 1_555
O10 Mg4 1_555 1_555
O11 Mg1 1_555 1_555
O12 Mg4 1_555 1_555
C2 O3 1_555 1_555
H2 C2 1_555 1_555
C3 O5 1_555 1_555
H3 C3 1_555 1_555
C4 O7 1_555 1_555
H4 C4 1_555 1_555
C5 O9 1_555 1_555
H5 C5 1_555 1_555
C6 O11 1_555 1_555
H6 C6 1_555 1_555
Mg6 O16 1_555 1_555
Mg7 O20 1_555 1_555
Mg11 O3 1_555 1_555
Mg12 O32 1_555 1_555
Mg14_4 O19 1_555 1_555
O14 Mg2 1_555 1_555
O16 Mg3 1_555 1_555
O19 Mg6 1_555 1_555
O20 Mg4 1_555 1_555
O22 Mg3 1_555 1_555
O24 Mg3 1_555 1_555
O27 C10 1_555 1_555
O31 Mg4 1_555 1_555
O32 Mg7 1_555 1_555
O34 Mg4 1_555 1_555
C9 O19 1_555 1_555
C10 O24 1_555 1_555
H10 C10 1_555 1_555
C12 O32 1_555 1_555
H12 C12 1_555 1_555
Mg2 O9 1_555 1_555
Mg3 O11 1_555 1_555
O4 C2 1_555 1_555
O6 Mg11 1_555 1_555
O7 Mg11 1_555 1_555
O8 C4 1_555 1_555
O10 C5 1_555 1_555
O12 C6 1_555 1_555
Mg6 O24 1_555 1_555
O22 C9 1_555 1_555
O34 C12 1_555 1_555
Mg2_2 O2 1_555 1_555
Mg7 O13 1_555 1_555
Mg12 O13 1_555 1_555
Mg10 O15 1_555 1_555
O13 C7 1_555 1_555
O15 Mg7 1_555 1_555
O17 Mg12 1_555 1_555
O18 Mg2_2 1_555 1_555
O23 Mg12 1_555 1_555
O25 Mg7 1_555 1_555
O26 Mg12 1_555 1_555
O28 Mg12 1_555 1_555
O29 Mg2_2 1_555 1_555
C8 O15 1_555 1_555
H8 C8 1_555 1_555
C11 O29 1_555 1_555
H11 C11 1_555 1_555
Mg7 O29 1_555 1_555
Mg10 O25 1_555 1_555
O18 C8 1_555 1_555
O31 C11 1_555 1_555
O10_2 Mg14 1_555 1_555
H5_2 C5_2 1_555 1_555
Mg14_5 O21 1_555 1_555
O17 Mg5 1_555 1_555
O18_2 Mg2_3 1_555 1_555
O21 Mg5 1_555 1_555
O26 Mg5 1_555 1_555
C8_2 O17 1_555 1_555
H8_2 C8_2 1_555 1_555
O10_2 C5_2 1_555 1_555
O18_2 C8_2 1_555 1_555
Mg2_4 O2_2 1_555 1_555
Mg11 O1_2 1_555 1_555
O1_2 C1_2 1_555 1_555
O2_2 C1_2 1_555 1_555
C1_2 H1_2 1_555 1_555
C6_2 O11_2 1_555 1_555
H6_2 C6_2 1_555 1_555
Mg2_4 O9_2 1_555 1_555
Mg11 O11_2 1_555 1_555
Mg10 O13_2 1_555 1_555
O13_2 C7_2 1_555 1_555
O14_2 Mg2_5 1_555 1_555
O23_2 Mg10 1_555 1_555
O29_2 Mg2_5 1_555 1_555
O34_2 Mg14_3 1_555 1_555
C7_2 O14_2 1_555 1_555
H7_2 C7_2 1_555 1_555
Mg10 O33 1_555 1_555
O4_2 Mg2_6 1_555 1_555
C2_2 O16 1_555 1_555
H2_2 C2_2 1_555 1_555
O30 Mg14_8 1_555 1_555
H11_2 C11_2 1_555 1_555
O4_2 C2_2 1_555 1_555
O30 C11_2 1_555 1_555
O12_2 Mg14_6 1_555 1_555
C12_2 O33 1_555 1_555
H12_2 C12_2 1_555 1_555
O23_2 C3_2 1_555 1_555
C3_2 O20 1_555 1_555
H3_2 C3_2 1_555 1_555
C4_2 O25 1_555 1_555
H4_2 C4_2 1_555 1_555
O28_2 C10_2 1_555 1_555
C9_2 O21 1_555 1_555
C10_2 O26 1_555 1_555
H10_2 C10_2 1_555 1_555
O28 C4_2 1_555 1_555
O23 C9_2 1_555 1_555

#END
