
###############################################################################
#
# This file contains modified crystal structure data generated from the
# MOF subset of the Cambridge Structural Database (CSD) v543 
# hosted by the Cambridge Crystallographic Data Centre (CCDC).
#
# This work is licensed under the Creative Commons
# Attribution-NonCommercial-ShareAlike 4.0 International License.
# To view a copy of this license, visit
# http://creativecommons.org/licenses/by-nc-sa/4.0/
# or send a letter to
# Creative Commons, PO Box 1866, Mountain View, CA 94042, USA.
#
# CIF created using the CSD Python API on 29 September 2022
# The structure has been converted into the P1 space group
# The structure has a 3D framework
# The original CSD entry XEHSAF is in the monoclinic crystal system
# The framework has been calculated to contain at least 10.0% void space
# The void calculation uses a probe of radius 1.32A, grid spacing 0.4
#
###############################################################################

data_XEHSAF
_chemical_formula_moiety         '(C24 H24 Mg21 O48)n'
_symmetry_cell_setting           triclinic
_symmetry_space_group_name_H-M   'P 1'
_symmetry_Int_Tables_number      1
_space_group_name_Hall           'P 1'
loop_
_symmetry_equiv_pos_site_id
_symmetry_equiv_pos_as_xyz
1 x,y,z
_cell_length_a                   11.2790(8)
_cell_length_b                   9.8339(7)
_cell_length_c                   14.7660(11)
_cell_angle_alpha                90
_cell_angle_beta                 91.565(4)
_cell_angle_gamma                90
_cell_volume                     1637.18
loop_
_atom_site_label
_atom_site_type_symbol
_atom_site_fract_x
_atom_site_fract_y
_atom_site_fract_z
Mg13 Mg -0.0000 -0.0000 -0.0000
Mg13_2 Mg -0.0000 -0.0000 1.0000
Mg13_3 Mg -0.0000 1.0000 -0.0000
Mg13_4 Mg -0.0000 1.0000 1.0000
Mg2 Mg 0.5000 -0.0000 -0.0000
O10 O 0.15042(11) 0.10367(14) 0.03717(9)
C5 C 0.25923(15) 0.10256(18) 0.02967(12)
H5 H 0.3043 0.1617 0.0681
Mg5 Mg 0.75674(5) 0.07498(6) 0.13493(4)
Mg10 Mg 0.76020(5) 0.38305(6) 0.19398(4)
Mg13_5 Mg 1.0000 -0.0000 -0.0000
O15 O 0.65797(11) 0.25289(13) 0.11322(8)
O18 O 0.52132(11) 0.20675(13) 0.00500(9)
O21 O 0.90021(11) 0.14945(12) 0.06590(8)
O25 O 0.80809(11) 0.19470(13) 0.24768(8)
O28 O 0.80911(12) 0.05175(13) 0.36567(9)
C8 C 0.57734(15) 0.28658(18) 0.05470(12)
H8 H 0.5591 0.3806 0.0490
Mg2_2 Mg 0.5000 -0.0000 1.0000
Mg3 Mg 0.26020(5) 0.11695(6) 0.69398(4)
O1 O 0.36967(11) 0.01166(13) 0.78332(8)
O2 O 0.53938(11) 0.00580(14) 0.86466(9)
O9 O 0.31654(11) 0.02833(13) 0.97435(8)
O11 O 0.15027(11) 0.08614(13) 0.80524(8)
C1 C 0.48165(15) 0.02363(18) 0.79336(12)
H1 H 0.5246 0.0485 0.7414
C6 C 0.05075(15) 0.14304(18) 0.82073(12)
H6 H 0.0238 0.2107 0.7791
Mg6 Mg 0.25674(5) 0.42502(6) 0.63493(4)
Mg11 Mg 0.23980(5) 0.61695(6) 0.80602(4)
Mg13_6 Mg 1.0000 -0.0000 1.0000
Mg14 Mg 0.5000 0.5000 0.5000
O16 O 0.15797(11) 0.24711(13) 0.61322(8)
O19 O 0.40021(11) 0.35055(12) 0.56590(8)
O22 O 0.39411(11) 0.13027(13) 0.60491(9)
O24 O 0.30809(11) 0.30530(13) 0.74768(8)
O27 O 0.30911(12) 0.44825(13) 0.86567(9)
C9 C 0.43529(15) 0.22709(18) 0.56219(12)
H9 H 0.4987 0.2078 0.5231
C10 C 0.32723(15) 0.33574(18) 0.83069(12)
H10 H 0.3581 0.2661 0.8692
Mg2_3 Mg 0.5000 1.0000 -0.0000
Mg8 Mg 0.73980(5) 0.88305(6) 0.30602(4)
Mg13_7 Mg 1.0000 1.0000 -0.0000
O13 O 0.63033(11) 0.98834(13) 0.21668(8)
O14 O 0.46062(11) 0.99420(14) 0.13534(9)
O17 O 0.84203(11) 0.75289(13) 0.38678(8)
O23 O 0.60589(11) 0.86973(13) 0.39509(9)
O26 O 0.69191(11) 0.69470(13) 0.25232(8)
O29 O 0.68346(11) 0.97167(13) 0.02565(8)
O33 O 0.84973(11) 0.91386(13) 0.19476(8)
O34 O 0.01329(12) 0.88233(14) 0.11489(9)
C7 C 0.51835(15) 0.97637(18) 0.20664(12)
H7 H 0.4754 0.9515 0.2586
Mg1 Mg 0.24326(5) 0.92502(6) 0.86507(4)
Mg2_4 Mg 0.5000 1.0000 1.0000
O3 O 0.34203(11) 0.74711(13) 0.88678(8)
O4 O 0.47868(11) 0.79325(13) 0.99500(9)
O5 O 0.09979(11) 0.85055(12) 0.93410(8)
O6 O 0.10589(11) 0.63027(13) 0.89509(9)
O7 O 0.19191(11) 0.80530(13) 0.75232(8)
O8 O 0.19089(12) 0.94825(13) 0.63433(9)
C2 C 0.42266(15) 0.71342(18) 0.94530(12)
H2 H 0.4409 0.6194 0.9510
C3 C 0.06471(15) 0.72709(18) 0.93781(12)
H3 H 0.0013 0.7078 0.9769
C4 C 0.17277(15) 0.83574(18) 0.66931(12)
H4 H 0.1419 0.7661 0.6308
Mg13_8 Mg 1.0000 1.0000 1.0000
O30 O 0.84958(11) 0.89633(14) 0.96283(9)
C11 C 0.74077(15) 0.89744(18) 0.97033(12)
H11 H 0.6957 0.8383 0.9319
O12 O 0.98671(12) 0.11767(14) 0.88511(9)
C12 C 0.94925(15) 0.85696(18) 0.17927(12)
H12 H 0.9762 0.7893 0.2209
Mg2_5 Mg 0.0000 0.5000 0.5000
O1_2 O 0.13033(11) 0.51166(13) 0.71668(8)
O4_2 O 0.02132(11) 0.29325(13) 0.50500(9)
O9_2 O 0.18346(11) 0.52833(13) 0.52565(8)
O10_2 O 0.34958(11) 0.60367(14) 0.46283(9)
O11_2 O 0.34973(11) 0.58614(13) 0.69476(8)
O12_2 O 0.51329(12) 0.61767(14) 0.61489(9)
C1_2 C 0.01835(15) 0.52363(18) 0.70664(12)
C2_2 C 0.07734(15) 0.21342(18) 0.55470(12)
H2_2 H 0.0591 0.1194 0.5490
C5_2 C 0.24077(15) 0.60256(18) 0.47033(12)
H5_2 H 0.1957 0.6617 0.4319
C6_2 C 0.44925(15) 0.64304(18) 0.67927(12)
H6_2 H 0.4762 0.7107 0.7209
Mg7 Mg 0.74326(5) 0.57498(6) 0.36507(4)
O14_2 O 0.03938(11) 0.49420(14) 0.36466(9)
O20 O 0.59979(11) 0.64945(12) 0.43410(8)
O31 O 0.65042(11) 0.39633(14) 0.53717(9)
O32 O 0.65027(11) 0.41386(13) 0.30524(8)
O34_2 O 0.48671(12) 0.38233(14) 0.38511(9)
H7_2 H 0.0246 0.4515 0.2414
C12_2 C 0.55075(15) 0.35696(18) 0.32073(12)
H12_2 H 0.5238 0.2893 0.2791
Mg2_6 Mg 1.0000 0.5000 0.5000
O2_2 O 0.96062(11) 0.50580(14) 0.63534(9)
H1_2 H 0.9754 0.5485 0.7586
O13_2 O 0.86967(11) 0.48834(13) 0.28332(8)
O18_2 O 0.97868(11) 0.70675(13) 0.49500(9)
O23_2 O 0.89411(11) 0.36973(13) 0.10491(9)
O28_2 O 0.69089(12) 0.55175(13) 0.13433(9)
O29_2 O 0.81654(11) 0.47167(13) 0.47435(8)
C7_2 C 0.98165(15) 0.47637(18) 0.29336(12)
C8_2 C 0.92266(15) 0.78658(18) 0.44530(12)
H8_2 H 0.9409 0.8806 0.4510
C11_2 C 0.75923(15) 0.39744(18) 0.52967(12)
H11_2 H 0.8043 0.3383 0.5681
C3_2 C 0.93529(15) 0.27291(18) 0.06219(12)
H3_2 H 0.9987 0.2922 0.0231
C4_2 C 0.82723(15) 0.16426(18) 0.33069(12)
H4_2 H 0.8581 0.2339 0.3692
C9_2 C 0.56471(15) 0.77291(18) 0.43781(12)
H9_2 H 0.5013 0.7922 0.4769
C10_2 C 0.67277(15) 0.66426(18) 0.16931(12)
H10_2 H 0.6419 0.7339 0.1308
loop_
_geom_bond_atom_site_label_1
_geom_bond_atom_site_label_2
_geom_bond_site_symmetry_1
_geom_bond_site_symmetry_2
O10 Mg13 1_555 1_555
H5 C5 1_555 1_555
Mg10 O15 1_555 1_555
Mg13_5 O21 1_555 1_555
O15 Mg5 1_555 1_555
O18 Mg2 1_555 1_555
O21 Mg5 1_555 1_555
O25 Mg5 1_555 1_555
C8 O15 1_555 1_555
H8 C8 1_555 1_555
O10 C5 1_555 1_555
Mg10 O25 1_555 1_555
O18 C8 1_555 1_555
Mg2_2 O2 1_555 1_555
Mg3 O1 1_555 1_555
O1 C1 1_555 1_555
O2 C1 1_555 1_555
C1 H1 1_555 1_555
C6 O11 1_555 1_555
H6 C6 1_555 1_555
Mg6 O16 1_555 1_555
Mg11 O27 1_555 1_555
Mg14 O19 1_555 1_555
O16 Mg3 1_555 1_555
O19 Mg6 1_555 1_555
O22 Mg3 1_555 1_555
O24 Mg3 1_555 1_555
O27 C10 1_555 1_555
C9 O19 1_555 1_555
H9 C9 1_555 1_555
C10 O24 1_555 1_555
H10 C10 1_555 1_555
Mg2_2 O9 1_555 1_555
Mg3 O11 1_555 1_555
Mg6 O24 1_555 1_555
O22 C9 1_555 1_555
Mg8 O13 1_555 1_555
O13 C7 1_555 1_555
O14 Mg2_3 1_555 1_555
O17 Mg8 1_555 1_555
O23 Mg8 1_555 1_555
O26 Mg8 1_555 1_555
O29 Mg2_3 1_555 1_555
O34 Mg13_3 1_555 1_555
C7 O14 1_555 1_555
H7 C7 1_555 1_555
Mg8 O33 1_555 1_555
Mg13_4 O5 1_555 1_555
O3 Mg1 1_555 1_555
O4 Mg2_4 1_555 1_555
O5 Mg1 1_555 1_555
O6 C3 1_555 1_555
O7 Mg1 1_555 1_555
C2 O3 1_555 1_555
H2 C2 1_555 1_555
C3 O5 1_555 1_555
H3 C3 1_555 1_555
C4 O7 1_555 1_555
H4 C4 1_555 1_555
Mg11 O3 1_555 1_555
O30 Mg13_8 1_555 1_555
H11 C11 1_555 1_555
O4 C2 1_555 1_555
O6 Mg11 1_555 1_555
O7 Mg11 1_555 1_555
O8 C4 1_555 1_555
O30 C11 1_555 1_555
O12 Mg13_6 1_555 1_555
C12 O33 1_555 1_555
H12 C12 1_555 1_555
Mg6 O1_2 1_555 1_555
Mg11 O1_2 1_555 1_555
O1_2 C1_2 1_555 1_555
O4_2 Mg2_5 1_555 1_555
O9_2 Mg6 1_555 1_555
O10_2 Mg14 1_555 1_555
O11_2 Mg6 1_555 1_555
O12_2 Mg14 1_555 1_555
C2_2 O16 1_555 1_555
H2_2 C2_2 1_555 1_555
C5_2 O9_2 1_555 1_555
H5_2 C5_2 1_555 1_555
C6_2 O11_2 1_555 1_555
H6_2 C6_2 1_555 1_555
Mg7 O20 1_555 1_555
Mg10 O32 1_555 1_555
O14_2 Mg2_5 1_555 1_555
O20 Mg14 1_555 1_555
O31 Mg14 1_555 1_555
O32 Mg7 1_555 1_555
O34_2 Mg14 1_555 1_555
C12_2 O32 1_555 1_555
H12_2 C12_2 1_555 1_555
Mg2_5 O9_2 1_555 1_555
Mg11 O11_2 1_555 1_555
O4_2 C2_2 1_555 1_555
O10_2 C5_2 1_555 1_555
O12_2 C6_2 1_555 1_555
O34_2 C12_2 1_555 1_555
Mg2_6 O2_2 1_555 1_555
Mg7 O13_2 1_555 1_555
Mg10 O13_2 1_555 1_555
O13_2 C7_2 1_555 1_555
O17 Mg7 1_555 1_555
O18_2 Mg2_6 1_555 1_555
O23_2 Mg10 1_555 1_555
O26 Mg7 1_555 1_555
O28_2 Mg10 1_555 1_555
O29_2 Mg2_6 1_555 1_555
C8_2 O17 1_555 1_555
H8_2 C8_2 1_555 1_555
C11_2 O29_2 1_555 1_555
H11_2 C11_2 1_555 1_555
Mg7 O29_2 1_555 1_555
O18_2 C8_2 1_555 1_555
O31 C11_2 1_555 1_555
O23_2 C3_2 1_555 1_555
C3_2 O21 1_555 1_555
H3_2 C3_2 1_555 1_555
C4_2 O25 1_555 1_555
H4_2 C4_2 1_555 1_555
O28 C4_2 1_555 1_555
O28_2 C10_2 1_555 1_555
C9_2 O20 1_555 1_555
H9_2 C9_2 1_555 1_555
C10_2 O26 1_555 1_555
H10_2 C10_2 1_555 1_555
O23 C9_2 1_555 1_555

#END
