
###############################################################################
#
# This file contains modified crystal structure data generated from the
# MOF subset of the Cambridge Structural Database (CSD) v543 
# hosted by the Cambridge Crystallographic Data Centre (CCDC).
#
# This work is licensed under the Creative Commons
# Attribution-NonCommercial-ShareAlike 4.0 International License.
# To view a copy of this license, visit
# http://creativecommons.org/licenses/by-nc-sa/4.0/
# or send a letter to
# Creative Commons, PO Box 1866, Mountain View, CA 94042, USA.
#
# CIF created using the CSD Python API on 29 September 2022
# The structure has been converted into the P1 space group
# The structure has a 3D framework
# The original CSD entry XEHSUZ is in the monoclinic crystal system
# The framework has been calculated to contain at least 10.0% void space
# The void calculation uses a probe of radius 1.32A, grid spacing 0.4
#
###############################################################################

data_XEHSUZ
_chemical_formula_moiety         '(C24 H24 Mg19 O48)n'
_symmetry_cell_setting           triclinic
_symmetry_space_group_name_H-M   'P 1'
_symmetry_Int_Tables_number      1
_space_group_name_Hall           'P 1'
loop_
_symmetry_equiv_pos_site_id
_symmetry_equiv_pos_as_xyz
1 x,y,z
_cell_length_a                   11.4007(6)
_cell_length_b                   9.9047(4)
_cell_length_c                   14.5357(6)
_cell_angle_alpha                90
_cell_angle_beta                 91.317(2)
_cell_angle_gamma                90
_cell_volume                     1640.95
loop_
_atom_site_label
_atom_site_type_symbol
_atom_site_fract_x
_atom_site_fract_y
_atom_site_fract_z
Mg14 Mg 0.0000 0.0000 -0.0000
Mg11 Mg 0.26127(3) 0.11237(3) 0.69041(2)
Mg14_2 Mg 0.0000 0.0000 1.0000
Mg14_3 Mg -0.0000 1.0000 -0.0000
Mg1 Mg 0.25528(3) 0.42080(3) 0.63491(2)
Mg2 Mg 0.0000 0.5000 0.5000
Mg3 Mg 0.23873(3) 0.61237(3) 0.80959(2)
Mg4 Mg 0.5000 0.5000 0.5000
O1 O 0.13021(6) 0.50675(7) 0.71916(5)
O3 O 0.15984(6) 0.24348(7) 0.61001(4)
O4 O 0.02347(6) 0.29487(7) 0.50230(5)
O5 O 0.40216(6) 0.35019(7) 0.56729(5)
O6 O 0.39568(6) 0.12971(7) 0.60196(5)
O7 O 0.30400(6) 0.30028(7) 0.74879(5)
O8 O 0.30352(6) 0.44186(7) 0.86899(5)
O9 O 0.18369(6) 0.52476(7) 0.52450(5)
O10 O 0.34834(6) 0.59558(7) 0.45953(5)
O11 O 0.34733(6) 0.57975(7) 0.69720(5)
O12 O 0.50670(6) 0.61924(7) 0.61479(5)
C1 C 0.01926(9) 0.51712(10) 0.70989(7)
C2 C 0.07957(9) 0.21351(10) 0.55002(7)
H2 H 0.0623 0.1225 0.5419
C3 C 0.43924(9) 0.22874(10) 0.56348(7)
H3 H 0.5052 0.2131 0.5285
C4 C 0.31934(9) 0.32943(10) 0.83383(7)
H4 H 0.3446 0.2603 0.8728
C5 C 0.24080(9) 0.59590(10) 0.46695(7)
H5 H 0.1977 0.6522 0.4277
C6 C 0.44285(9) 0.64104(10) 0.68046(7)
H6 H 0.4665 0.7083 0.7215
Mg6 Mg 0.24472(3) 0.92080(3) 0.86509(2)
Mg7 Mg 0.74472(3) 0.57920(3) 0.36509(2)
Mg12 Mg 0.76127(3) 0.38763(3) 0.19041(2)
Mg14_4 Mg 0.0000 1.0000 1.0000
O14 O 0.03790(6) 0.49690(8) 0.36259(5)
O16 O 0.34016(6) 0.74348(7) 0.88999(4)
O19 O 0.09784(6) 0.85019(7) 0.93271(5)
O20 O 0.59784(6) 0.64981(7) 0.43271(5)
O22 O 0.10432(6) 0.62971(7) 0.89804(5)
O24 O 0.19600(6) 0.80028(7) 0.75121(5)
O27 O 0.19648(6) 0.94186(7) 0.63101(5)
O31 O 0.65166(6) 0.40442(7) 0.54047(5)
O32 O 0.65267(6) 0.42025(7) 0.30280(5)
O34 O 0.49330(6) 0.38076(7) 0.38521(5)
H7 H 0.0224 0.4630 0.2376
C9 C 0.06076(9) 0.72874(10) 0.93652(7)
C10 C 0.18066(9) 0.82943(10) 0.66617(7)
H10 H 0.1554 0.7603 0.6272
C12 C 0.55715(9) 0.35896(10) 0.31954(7)
H12 H 0.5335 0.2917 0.2785
Mg14_5 Mg 1.0000 0.0000 -0.0000
Mg14_6 Mg 1.0000 0.0000 1.0000
Mg14_7 Mg 1.0000 1.0000 -0.0000
Mg2_2 Mg 1.0000 0.5000 0.5000
O2 O 0.96210(6) 0.50310(8) 0.63741(5)
H1 H 0.9776 0.5370 0.7624
Mg10 Mg 0.73873(3) 0.88763(3) 0.30959(2)
Mg14_8 Mg 1.0000 1.0000 1.0000
O13 O 0.86979(6) 0.49325(7) 0.28084(5)
O15 O 0.84016(6) 0.75652(7) 0.38999(4)
O17 O 0.65984(6) 0.25652(7) 0.11001(4)
O18 O 0.97653(6) 0.70513(7) 0.49770(5)
O23 O 0.89568(6) 0.37029(7) 0.10196(5)
O25 O 0.69600(6) 0.69972(7) 0.25121(5)
O26 O 0.80400(6) 0.19972(7) 0.24879(5)
O28 O 0.69648(6) 0.55814(7) 0.13101(5)
O29 O 0.81631(6) 0.47524(7) 0.47550(5)
C7 C 0.98074(9) 0.48288(10) 0.29011(7)
C8 C 0.92043(9) 0.78649(10) 0.44998(7)
H8 H 0.9377 0.8775 0.4581
H9 H 0.9948 0.7131 0.9715
C11 C 0.75920(9) 0.40410(10) 0.53305(7)
H11 H 0.8023 0.3478 0.5723
Mg2_3 Mg 0.5000 0.0000 0.0000
O10_2 O 0.15166(6) 0.09558(7) 0.04047(5)
C5_2 C 0.25920(9) 0.09590(10) 0.03305(7)
H5_2 H 0.3023 0.1522 0.0723
Mg5 Mg 0.75528(3) 0.07920(3) 0.13491(2)
O18_2 O 0.52347(6) 0.20513(7) 0.00230(5)
O21 O 0.90216(6) 0.14981(7) 0.06729(5)
O28_2 O 0.80352(6) 0.05814(7) 0.36899(5)
C8_2 C 0.57957(9) 0.28649(10) 0.05002(7)
H8_2 H 0.5623 0.3775 0.0419
Mg2_4 Mg 0.5000 0.0000 1.0000
O1_2 O 0.36979(6) 0.00675(7) 0.78084(5)
O2_2 O 0.53790(6) 0.00310(8) 0.86259(5)
O9_2 O 0.31631(6) 0.02476(7) 0.97550(5)
O11_2 O 0.15267(6) 0.07975(7) 0.80280(5)
C1_2 C 0.48074(9) 0.01712(10) 0.79011(7)
H1_2 H 0.5224 0.0370 0.7376
C6_2 C 0.05715(9) 0.14104(10) 0.81954(7)
H6_2 H 0.0335 0.2083 0.7785
Mg2_5 Mg 0.5000 1.0000 0.0000
O13_2 O 0.63021(6) 0.99325(7) 0.21916(5)
O14_2 O 0.46210(6) 0.99690(8) 0.13741(5)
O23_2 O 0.60432(6) 0.87029(7) 0.39804(5)
O29_2 O 0.68369(6) 0.97524(7) 0.02450(5)
O33 O 0.84733(6) 0.92025(7) 0.19720(5)
O34_2 O 0.00670(6) 0.88076(7) 0.11479(5)
C7_2 C 0.51926(9) 0.98288(10) 0.20989(7)
H7_2 H 0.4776 0.9630 0.2624
Mg2_6 Mg 0.5000 1.0000 1.0000
O4_2 O 0.47653(6) 0.79487(7) 0.99770(5)
C2_2 C 0.42043(9) 0.71351(10) 0.94998(7)
H2_2 H 0.4377 0.6225 0.9581
O30 O 0.84834(6) 0.90442(7) 0.95953(5)
C11_2 C 0.74080(9) 0.90410(10) 0.96695(7)
H11_2 H 0.6977 0.8478 0.9277
O12_2 O 0.99330(6) 0.11924(7) 0.88521(5)
C12_2 C 0.94285(9) 0.85896(10) 0.18046(7)
H12_2 H 0.9665 0.7917 0.2215
H9_2 H 0.0052 0.2869 0.0285
C3_2 C 0.56076(9) 0.77126(10) 0.43652(7)
H3_2 H 0.4948 0.7869 0.4715
C4_2 C 0.68066(9) 0.67057(10) 0.16617(7)
H4_2 H 0.6554 0.7397 0.1272
C9_2 C 0.93924(9) 0.27126(10) 0.06348(7)
C10_2 C 0.81934(9) 0.17057(10) 0.33383(7)
H10_2 H 0.8446 0.2397 0.3728
loop_
_geom_bond_atom_site_label_1
_geom_bond_atom_site_label_2
_geom_bond_site_symmetry_1
_geom_bond_site_symmetry_2
Mg1 O1 1_555 1_555
Mg3 O1 1_555 1_555
Mg4 O5 1_555 1_555
O1 C1 1_555 1_555
O3 Mg1 1_555 1_555
O4 Mg2 1_555 1_555
O5 Mg1 1_555 1_555
O6 C3 1_555 1_555
O7 Mg1 1_555 1_555
O8 Mg3 1_555 1_555
O9 Mg1 1_555 1_555
O10 Mg4 1_555 1_555
O11 Mg1 1_555 1_555
O12 Mg4 1_555 1_555
C2 O3 1_555 1_555
H2 C2 1_555 1_555
C3 O5 1_555 1_555
H3 C3 1_555 1_555
C4 O7 1_555 1_555
H4 C4 1_555 1_555
C5 O9 1_555 1_555
H5 C5 1_555 1_555
C6 O11 1_555 1_555
H6 C6 1_555 1_555
Mg6 O16 1_555 1_555
Mg7 O20 1_555 1_555
Mg11 O3 1_555 1_555
Mg12 O32 1_555 1_555
Mg14_4 O19 1_555 1_555
O14 Mg2 1_555 1_555
O16 Mg3 1_555 1_555
O19 Mg6 1_555 1_555
O20 Mg4 1_555 1_555
O22 Mg3 1_555 1_555
O24 Mg3 1_555 1_555
O27 C10 1_555 1_555
O31 Mg4 1_555 1_555
O32 Mg7 1_555 1_555
O34 Mg4 1_555 1_555
C9 O19 1_555 1_555
C10 O24 1_555 1_555
H10 C10 1_555 1_555
C12 O32 1_555 1_555
H12 C12 1_555 1_555
Mg2 O9 1_555 1_555
Mg3 O11 1_555 1_555
O4 C2 1_555 1_555
O6 Mg11 1_555 1_555
O7 Mg11 1_555 1_555
O8 C4 1_555 1_555
O10 C5 1_555 1_555
O12 C6 1_555 1_555
Mg6 O24 1_555 1_555
O22 C9 1_555 1_555
O34 C12 1_555 1_555
Mg2_2 O2 1_555 1_555
Mg7 O13 1_555 1_555
Mg12 O13 1_555 1_555
Mg10 O15 1_555 1_555
O13 C7 1_555 1_555
O15 Mg7 1_555 1_555
O17 Mg12 1_555 1_555
O18 Mg2_2 1_555 1_555
O23 Mg12 1_555 1_555
O25 Mg7 1_555 1_555
O26 Mg12 1_555 1_555
O28 Mg12 1_555 1_555
O29 Mg2_2 1_555 1_555
C8 O15 1_555 1_555
H8 C8 1_555 1_555
C11 O29 1_555 1_555
H11 C11 1_555 1_555
Mg7 O29 1_555 1_555
Mg10 O25 1_555 1_555
O18 C8 1_555 1_555
O31 C11 1_555 1_555
O10_2 Mg14 1_555 1_555
H5_2 C5_2 1_555 1_555
Mg14_5 O21 1_555 1_555
O17 Mg5 1_555 1_555
O18_2 Mg2_3 1_555 1_555
O21 Mg5 1_555 1_555
O26 Mg5 1_555 1_555
C8_2 O17 1_555 1_555
H8_2 C8_2 1_555 1_555
O10_2 C5_2 1_555 1_555
O18_2 C8_2 1_555 1_555
Mg2_4 O2_2 1_555 1_555
Mg11 O1_2 1_555 1_555
O1_2 C1_2 1_555 1_555
O2_2 C1_2 1_555 1_555
C1_2 H1_2 1_555 1_555
C6_2 O11_2 1_555 1_555
H6_2 C6_2 1_555 1_555
Mg2_4 O9_2 1_555 1_555
Mg11 O11_2 1_555 1_555
Mg10 O13_2 1_555 1_555
O13_2 C7_2 1_555 1_555
O14_2 Mg2_5 1_555 1_555
O23_2 Mg10 1_555 1_555
O29_2 Mg2_5 1_555 1_555
O34_2 Mg14_3 1_555 1_555
C7_2 O14_2 1_555 1_555
H7_2 C7_2 1_555 1_555
Mg10 O33 1_555 1_555
O4_2 Mg2_6 1_555 1_555
C2_2 O16 1_555 1_555
H2_2 C2_2 1_555 1_555
O30 Mg14_8 1_555 1_555
H11_2 C11_2 1_555 1_555
O4_2 C2_2 1_555 1_555
O30 C11_2 1_555 1_555
O12_2 Mg14_6 1_555 1_555
C12_2 O33 1_555 1_555
H12_2 C12_2 1_555 1_555
O23_2 C3_2 1_555 1_555
C3_2 O20 1_555 1_555
H3_2 C3_2 1_555 1_555
C4_2 O25 1_555 1_555
H4_2 C4_2 1_555 1_555
O28_2 C10_2 1_555 1_555
C9_2 O21 1_555 1_555
C10_2 O26 1_555 1_555
H10_2 C10_2 1_555 1_555
O28 C4_2 1_555 1_555
O23 C9_2 1_555 1_555

#END
