
###############################################################################
#
# This file contains modified crystal structure data generated from the
# MOF subset of the Cambridge Structural Database (CSD) v543 
# hosted by the Cambridge Crystallographic Data Centre (CCDC).
#
# This work is licensed under the Creative Commons
# Attribution-NonCommercial-ShareAlike 4.0 International License.
# To view a copy of this license, visit
# http://creativecommons.org/licenses/by-nc-sa/4.0/
# or send a letter to
# Creative Commons, PO Box 1866, Mountain View, CA 94042, USA.
#
# CIF created using the CSD Python API on 29 September 2022
# The structure has been converted into the P1 space group
# The structure has a 3D framework
# The original CSD entry XEHSIN is in the monoclinic crystal system
# The framework has been calculated to contain at least 10.0% void space
# The void calculation uses a probe of radius 1.32A, grid spacing 0.4
#
###############################################################################

data_XEHSIN
_chemical_formula_moiety         '(C24 H24 Mg19 O48)n'
_symmetry_cell_setting           triclinic
_symmetry_space_group_name_H-M   'P 1'
_symmetry_Int_Tables_number      1
_space_group_name_Hall           'P 1'
loop_
_symmetry_equiv_pos_site_id
_symmetry_equiv_pos_as_xyz
1 x,y,z
_cell_length_a                   11.2962(3)
_cell_length_b                   9.8184(3)
_cell_length_c                   14.5847(4)
_cell_angle_alpha                90
_cell_angle_beta                 91.662(1)
_cell_angle_gamma                90
_cell_volume                     1616.92
loop_
_atom_site_label
_atom_site_type_symbol
_atom_site_fract_x
_atom_site_fract_y
_atom_site_fract_z
Mg14 Mg 0.0000 0.0000 0.0000
Mg11 Mg 0.25983(7) 0.11114(8) 0.69074(5)
Mg14_2 Mg 0.0000 0.0000 1.0000
Mg14_3 Mg 0.0000 1.0000 0.0000
Mg1 Mg 0.25645(6) 0.42040(8) 0.63511(5)
Mg2 Mg 0.0000 0.5000 0.5000
Mg3 Mg 0.24017(7) 0.61114(8) 0.80926(5)
Mg4 Mg 0.5000 0.5000 0.5000
O1 O 0.13082(14) 0.50634(16) 0.71920(11)
O3 O 0.15593(14) 0.24386(16) 0.61252(11)
O4 O 0.01707(15) 0.29308(17) 0.50534(12)
O5 O 0.39925(14) 0.34790(17) 0.56356(11)
O6 O 0.38827(14) 0.12614(17) 0.59736(11)
O7 O 0.30816(14) 0.29929(16) 0.74703(11)
O8 O 0.31390(15) 0.44223(17) 0.86643(11)
O9 O 0.18394(14) 0.52563(17) 0.52526(11)
O10 O 0.34929(15) 0.60325(18) 0.46306(12)
O11 O 0.34969(14) 0.58114(16) 0.69622(11)
O12 O 0.51512(15) 0.61074(19) 0.61867(12)
C1 C 0.0194(2) 0.5205(2) 0.70920(16)
C2 C 0.0734(2) 0.2126(2) 0.55455(16)
H2 H 0.0536 0.1188 0.5489
C3 C 0.4313(2) 0.2239(2) 0.55692(16)
H3 H 0.4942 0.2049 0.5170
C4 C 0.3297(2) 0.3293(2) 0.83079(16)
H4 H 0.3607 0.2590 0.8693
C5 C 0.2407(2) 0.5998(2) 0.46975(16)
H5 H 0.1953 0.6574 0.4300
C6 C 0.4501(2) 0.6352(2) 0.68333(16)
H6 H 0.4776 0.7001 0.7273
Mg6 Mg 0.24355(6) 0.92040(8) 0.86489(5)
Mg7 Mg 0.74355(6) 0.57960(8) 0.36489(5)
Mg12 Mg 0.75983(7) 0.38886(8) 0.19074(5)
Mg14_4 Mg 0.0000 1.0000 1.0000
O14 O 0.03784(14) 0.49487(19) 0.36337(12)
O16 O 0.34407(14) 0.74386(16) 0.88748(11)
O19 O 0.10075(14) 0.84790(17) 0.93644(11)
O20 O 0.60075(14) 0.65210(17) 0.43644(11)
O22 O 0.11173(14) 0.62614(17) 0.90264(11)
O24 O 0.19184(14) 0.79929(16) 0.75297(11)
O27 O 0.18610(15) 0.94223(17) 0.63357(11)
O31 O 0.65071(15) 0.39675(18) 0.53694(12)
O32 O 0.65031(14) 0.41886(16) 0.30378(11)
O34 O 0.48488(15) 0.38926(19) 0.38133(12)
H7 H 0.0233 0.4550 0.2381
C9 C 0.0687(2) 0.7239(2) 0.94308(16)
H9 H 0.0058 0.7049 0.9830
C10 C 0.1703(2) 0.8293(2) 0.66921(16)
H10 H 0.1393 0.7590 0.6307
C12 C 0.5499(2) 0.3648(2) 0.31667(16)
H12 H 0.5224 0.2999 0.2727
Mg14_5 Mg 1.0000 0.0000 0.0000
Mg14_6 Mg 1.0000 0.0000 1.0000
Mg14_7 Mg 1.0000 1.0000 0.0000
Mg2_2 Mg 1.0000 0.5000 0.5000
O2 O 0.96216(14) 0.50513(19) 0.63663(12)
H1 H 0.9767 0.5450 0.7619
Mg10 Mg 0.74017(7) 0.88886(8) 0.30926(5)
Mg14_8 Mg 1.0000 1.0000 1.0000
O13 O 0.86918(14) 0.49366(16) 0.28080(11)
O15 O 0.84407(14) 0.75614(16) 0.38748(11)
O17 O 0.65593(14) 0.25614(16) 0.11252(11)
O18 O 0.98293(15) 0.70692(17) 0.49466(12)
O23 O 0.88827(14) 0.37386(17) 0.09736(11)
O25 O 0.69184(14) 0.70071(16) 0.25297(11)
O26 O 0.80816(14) 0.20071(16) 0.24703(11)
O28 O 0.68610(15) 0.55777(17) 0.13357(11)
O29 O 0.81606(14) 0.47437(17) 0.47474(11)
C7 C 0.9806(2) 0.4795(2) 0.29080(16)
C8 C 0.9266(2) 0.7874(2) 0.44545(16)
H8 H 0.9464 0.8812 0.4511
C11 C 0.7593(2) 0.4002(2) 0.53025(16)
H11 H 0.8047 0.3426 0.5700
Mg2_3 Mg 0.5000 0.0000 -0.0000
O10_2 O 0.15071(15) 0.10325(18) 0.03694(12)
C5_2 C 0.2593(2) 0.0998(2) 0.03025(16)
H5_2 H 0.3047 0.1574 0.0700
Mg5 Mg 0.75645(6) 0.07960(8) 0.13511(5)
O18_2 O 0.51707(15) 0.20692(17) 0.00534(12)
O21 O 0.89925(14) 0.15210(17) 0.06356(11)
O28_2 O 0.81390(15) 0.05777(17) 0.36643(11)
C8_2 C 0.5734(2) 0.2874(2) 0.05455(16)
H8_2 H 0.5536 0.3812 0.0489
Mg2_4 Mg 0.5000 0.0000 1.0000
O1_2 O 0.36918(14) 0.00634(16) 0.78080(11)
O2_2 O 0.53784(14) 0.00513(19) 0.86337(12)
O9_2 O 0.31606(14) 0.02563(17) 0.97474(11)
O11_2 O 0.15031(14) 0.08114(16) 0.80378(11)
C1_2 C 0.4806(2) 0.0205(2) 0.79080(16)
H1_2 H 0.5233 0.0450 0.7381
C6_2 C 0.0499(2) 0.1352(2) 0.81667(16)
H6_2 H 0.0224 0.2001 0.7727
Mg2_5 Mg 0.5000 1.0000 -0.0000
O13_2 O 0.63082(14) 0.99366(16) 0.21920(11)
O14_2 O 0.46216(14) 0.99487(19) 0.13663(12)
O23_2 O 0.61173(14) 0.87386(17) 0.40264(11)
O29_2 O 0.68394(14) 0.97437(17) 0.02526(11)
O33 O 0.84969(14) 0.91886(16) 0.19622(11)
O34_2 O 0.01512(15) 0.88926(19) 0.11867(12)
C7_2 C 0.5194(2) 0.9795(2) 0.20920(16)
H7_2 H 0.4767 0.9550 0.2619
Mg2_6 Mg 0.5000 1.0000 1.0000
O4_2 O 0.48293(15) 0.79308(17) 0.99466(12)
C2_2 C 0.4266(2) 0.7126(2) 0.94545(16)
H2_2 H 0.4464 0.6188 0.9511
O30 O 0.84929(15) 0.89675(18) 0.96306(12)
C11_2 C 0.7407(2) 0.9002(2) 0.96975(16)
H11_2 H 0.6953 0.8426 0.9300
O12_2 O 0.98488(15) 0.11074(19) 0.88133(12)
C12_2 C 0.9501(2) 0.8648(2) 0.18333(16)
H12_2 H 0.9776 0.7999 0.2273
C3_2 C 0.5687(2) 0.7761(2) 0.44308(16)
H3_2 H 0.5058 0.7951 0.4830
C4_2 C 0.6703(2) 0.6707(2) 0.16921(16)
H4_2 H 0.6393 0.7410 0.1307
C9_2 C 0.9313(2) 0.2761(2) 0.05692(16)
H9_2 H 0.9942 0.2951 0.0170
C10_2 C 0.8297(2) 0.1707(2) 0.33079(16)
H10_2 H 0.8607 0.2410 0.3693
loop_
_geom_bond_atom_site_label_1
_geom_bond_atom_site_label_2
_geom_bond_site_symmetry_1
_geom_bond_site_symmetry_2
Mg1 O1 1_555 1_555
Mg3 O1 1_555 1_555
Mg4 O5 1_555 1_555
O1 C1 1_555 1_555
O3 Mg1 1_555 1_555
O4 Mg2 1_555 1_555
O5 Mg1 1_555 1_555
O6 C3 1_555 1_555
O7 Mg1 1_555 1_555
O8 Mg3 1_555 1_555
O9 Mg1 1_555 1_555
O10 Mg4 1_555 1_555
O11 Mg1 1_555 1_555
O12 Mg4 1_555 1_555
C2 O3 1_555 1_555
H2 C2 1_555 1_555
C3 O5 1_555 1_555
H3 C3 1_555 1_555
C4 O7 1_555 1_555
H4 C4 1_555 1_555
C5 O9 1_555 1_555
H5 C5 1_555 1_555
C6 O11 1_555 1_555
H6 C6 1_555 1_555
Mg6 O16 1_555 1_555
Mg7 O20 1_555 1_555
Mg11 O3 1_555 1_555
Mg12 O32 1_555 1_555
Mg14_4 O19 1_555 1_555
O14 Mg2 1_555 1_555
O16 Mg3 1_555 1_555
O19 Mg6 1_555 1_555
O20 Mg4 1_555 1_555
O22 Mg3 1_555 1_555
O24 Mg3 1_555 1_555
O27 C10 1_555 1_555
O31 Mg4 1_555 1_555
O32 Mg7 1_555 1_555
O34 Mg4 1_555 1_555
C9 O19 1_555 1_555
H9 C9 1_555 1_555
C10 O24 1_555 1_555
H10 C10 1_555 1_555
C12 O32 1_555 1_555
H12 C12 1_555 1_555
Mg2 O9 1_555 1_555
Mg3 O11 1_555 1_555
O4 C2 1_555 1_555
O6 Mg11 1_555 1_555
O7 Mg11 1_555 1_555
O8 C4 1_555 1_555
O10 C5 1_555 1_555
O12 C6 1_555 1_555
Mg6 O24 1_555 1_555
O22 C9 1_555 1_555
O34 C12 1_555 1_555
Mg2_2 O2 1_555 1_555
Mg7 O13 1_555 1_555
Mg12 O13 1_555 1_555
Mg10 O15 1_555 1_555
O13 C7 1_555 1_555
O15 Mg7 1_555 1_555
O17 Mg12 1_555 1_555
O18 Mg2_2 1_555 1_555
O23 Mg12 1_555 1_555
O25 Mg7 1_555 1_555
O26 Mg12 1_555 1_555
O28 Mg12 1_555 1_555
O29 Mg2_2 1_555 1_555
C8 O15 1_555 1_555
H8 C8 1_555 1_555
C11 O29 1_555 1_555
H11 C11 1_555 1_555
Mg7 O29 1_555 1_555
Mg10 O25 1_555 1_555
O18 C8 1_555 1_555
O31 C11 1_555 1_555
O10_2 Mg14 1_555 1_555
H5_2 C5_2 1_555 1_555
Mg14_5 O21 1_555 1_555
O17 Mg5 1_555 1_555
O18_2 Mg2_3 1_555 1_555
O21 Mg5 1_555 1_555
O26 Mg5 1_555 1_555
C8_2 O17 1_555 1_555
H8_2 C8_2 1_555 1_555
O10_2 C5_2 1_555 1_555
O18_2 C8_2 1_555 1_555
Mg2_4 O2_2 1_555 1_555
Mg11 O1_2 1_555 1_555
O1_2 C1_2 1_555 1_555
O2_2 C1_2 1_555 1_555
C1_2 H1_2 1_555 1_555
C6_2 O11_2 1_555 1_555
H6_2 C6_2 1_555 1_555
Mg2_4 O9_2 1_555 1_555
Mg11 O11_2 1_555 1_555
Mg10 O13_2 1_555 1_555
O13_2 C7_2 1_555 1_555
O14_2 Mg2_5 1_555 1_555
O23_2 Mg10 1_555 1_555
O29_2 Mg2_5 1_555 1_555
O34_2 Mg14_3 1_555 1_555
C7_2 O14_2 1_555 1_555
H7_2 C7_2 1_555 1_555
Mg10 O33 1_555 1_555
O4_2 Mg2_6 1_555 1_555
C2_2 O16 1_555 1_555
H2_2 C2_2 1_555 1_555
O30 Mg14_8 1_555 1_555
H11_2 C11_2 1_555 1_555
O4_2 C2_2 1_555 1_555
O30 C11_2 1_555 1_555
O12_2 Mg14_6 1_555 1_555
C12_2 O33 1_555 1_555
H12_2 C12_2 1_555 1_555
O23_2 C3_2 1_555 1_555
C3_2 O20 1_555 1_555
H3_2 C3_2 1_555 1_555
C4_2 O25 1_555 1_555
H4_2 C4_2 1_555 1_555
O28_2 C10_2 1_555 1_555
C9_2 O21 1_555 1_555
H9_2 C9_2 1_555 1_555
C10_2 O26 1_555 1_555
H10_2 C10_2 1_555 1_555
O28 C4_2 1_555 1_555
O23 C9_2 1_555 1_555

#END
