
###############################################################################
#
# This file contains modified crystal structure data generated from the
# MOF subset of the Cambridge Structural Database (CSD) v543 
# hosted by the Cambridge Crystallographic Data Centre (CCDC).
#
# This work is licensed under the Creative Commons
# Attribution-NonCommercial-ShareAlike 4.0 International License.
# To view a copy of this license, visit
# http://creativecommons.org/licenses/by-nc-sa/4.0/
# or send a letter to
# Creative Commons, PO Box 1866, Mountain View, CA 94042, USA.
#
# CIF created using the CSD Python API on 29 September 2022
# The structure has been converted into the P1 space group
# The structure has a 3D framework
# The original CSD entry XEJGOL is in the cubic crystal system
# The original CSD entry XEJGOL is in a Sohncke space group
# The framework has been calculated to contain at least 10.0% void space
# The void calculation uses a probe of radius 1.32A, grid spacing 0.4
# The framework is charged, counterions have been retained in the structure
# H atom positions have been added when not included in the experimental data
#
###############################################################################

data_XEJGOL
_chemical_formula_moiety         '(C552 H312 Eu4 O156 Ti16 20-)n'
_symmetry_cell_setting           triclinic
_symmetry_space_group_name_H-M   'P 1'
_symmetry_Int_Tables_number      1
_space_group_name_Hall           'P 1'
loop_
_symmetry_equiv_pos_site_id
_symmetry_equiv_pos_as_xyz
1 x,y,z
_cell_length_a                   26.0097(2)
_cell_length_b                   26.0097(2)
_cell_length_c                   26.0097(2)
_cell_angle_alpha                90
_cell_angle_beta                 90
_cell_angle_gamma                90
_cell_volume                     17595.7
loop_
_atom_site_label
_atom_site_type_symbol
_atom_site_fract_x
_atom_site_fract_y
_atom_site_fract_z
Ti1 Ti 0.01509(6) 0.22166(7) 0.56064(7)
C3 C 0.0457(4) 0.2434(4) 0.6687(4)
C7 C 0.0601(5) 0.1512(4) 0.6430(5)
C9 C 0.0495(4) 0.2825(4) 0.7047(4)
C15 C 0.0640(4) 0.1947(4) 0.6817(4)
C19 C 0.0867(5) 0.1855(4) 0.7263(5)
H5 H 0.0986 0.1524 0.7331
C20 C 0.0272(5) 0.3371(4) 0.6928(4)
H6 H 0.0548 0.3622 0.6949
H7 H 0.0140 0.3376 0.6580
C27 C 0.0770(4) 0.2743(5) 0.7512(4)
C33 C 0.1133(6) 0.3021(7) 0.8324(5)
H13 H 0.1206 0.3279 0.8561
C38 C 0.0889(5) 0.3135(5) 0.7870(5)
H19 H 0.0801 0.3473 0.7796
C40 C 0.1191(7) 0.2150(6) 0.8100(6)
H20 H 0.1306 0.1819 0.8172
C45 C 0.1275(7) 0.2497(7) 0.8427(6)
H24 H 0.1429 0.2413 0.8738
C46 C 0.0934(5) 0.2234(5) 0.7634(5)
O5 O 0.0219(2) 0.2535(3) 0.6246(3)
O6 O 0.0407(3) 0.1587(2) 0.5975(3)
O9 O 0.0726(5) 0.1085(3) 0.6543(4)
O11 O 0.0343(3) 0.4223(2) 0.7557(3)
Ti3 Ti 0.06064(7) 0.48491(6) 0.77834(7)
C47 C 0.2995(4) 0.5457(4) 0.5927(4)
C48 C 0.0412(4) 0.6629(4) 0.7292(4)
H26 H 0.0498 0.6890 0.7520
C49 C 0.1687(4) 0.4543(4) 0.7566(4)
C50 C 0.0652(4) 0.6011(4) 0.7975(4)
C51 C 0.0454(4) 0.6123(4) 0.7441(4)
C52 C 0.0284(4) 0.5732(4) 0.7113(4)
C53 C 0.1430(5) 0.4399(5) 0.8488(4)
C54 C 0.0076(4) 0.6358(4) 0.6460(4)
C55 C 0.2047(4) 0.4505(4) 0.7175(4)
C57 C 0.3335(5) 0.5377(5) 0.5462(6)
C59 C 0.0241(4) 0.6750(4) 0.6801(4)
C60 C 0.2608(4) 0.5093(4) 0.6051(4)
C61 C 0.1817(4) 0.4360(4) 0.8053(4)
C62 C 0.3052(5) 0.5869(5) 0.6198(4)
H28 H 0.3311 0.6100 0.6114
C65 C 0.2263(5) 0.4133(5) 0.8145(4)
H30 H 0.2331 0.4014 0.8476
C66 C 0.1928(4) 0.4728(5) 0.6629(4)
H31 H 0.1949 0.4452 0.6378
H32 H 0.1580 0.4860 0.6624
C68 C 0.0220(5) 0.7271(5) 0.6658(5)
H33 H 0.0272 0.7532 0.6896
C69 C 0.2335(4) 0.5617(4) 0.6749(4)
C70 C 0.2058(6) 0.6198(5) 0.7430(5)
H34 H 0.1841 0.6267 0.7705
C71 C 0.2447(7) 0.6541(5) 0.7315(5)
H35 H 0.2477 0.6845 0.7500
C72 C 0.2725(5) 0.5974(4) 0.6623(4)
C73 C 0.2512(4) 0.4230(4) 0.7257(5)
C75 C 0.0091(4) 0.5841(4) 0.6631(4)
C77 C 0.1987(5) 0.5762(5) 0.7150(4)
H37 H 0.1705 0.5554 0.7220
C78 C 0.2291(4) 0.5147(4) 0.6476(4)
C79 C 0.3324(5) 0.3867(6) 0.6979(7)
H38 H 0.3561 0.3794 0.6721
C80 C 0.2785(7) 0.6437(6) 0.6932(6)
H39 H 0.3056 0.6662 0.6868
H41 H 0.0084 0.5396 0.5989
C82 C 0.0116(8) 0.7380(6) 0.6138(6)
H42 H 0.0168 0.7711 0.6014
C84 C 0.2870(5) 0.4111(5) 0.6865(5)
H44 H 0.2796 0.4199 0.6527
C86 C 0.3100(6) 0.3809(7) 0.7850(6)
H45 H 0.3172 0.3694 0.8181
C91 C 0.3427(6) 0.3725(7) 0.7503(7)
H49 H 0.3738 0.3571 0.7587
C92 C 0.2634(5) 0.4066(5) 0.7766(5)
O15 O 0.0734(3) 0.6379(3) 0.8275(3)
O16 O 0.3257(3) 0.5010(3) 0.5138(3)
O17 O 0.1246(3) 0.4781(2) 0.7465(3)
O18 O 0.0975(3) 0.4593(3) 0.8413(2)
O19 O 0.0315(3) 0.5235(2) 0.7270(3)
O20 O 0.0728(2) 0.5554(2) 0.8132(3)
O21 O 0.1543(4) 0.4274(5) 0.8915(3)
O22 O 0.3723(5) 0.5685(4) 0.5413(4)
O23 O 0.2557(3) 0.4657(3) 0.5777(2)
Ti4 Ti 0.27834(7) 0.43936(7) 0.51509(6)
C93 C 0.0927(4) 0.2005(4) 0.4543(4)
C94 C 0.2292(4) 0.4588(4) 0.3371(4)
H50 H 0.2520 0.4502 0.3110
C95 C 0.2566(4) 0.3313(4) 0.5457(4)
C96 C 0.2975(4) 0.4348(4) 0.3989(4)
O26 O 0.0285(3) 0.5479(3) 0.4555(3)
C97 C 0.2441(4) 0.4546(4) 0.3877(4)
C98 C 0.2113(4) 0.4716(4) 0.4268(4)
C99 C 0.3488(4) 0.3570(5) 0.5601(5)
C100 C 0.1460(4) 0.4924(4) 0.3642(4)
C101 C 0.2175(4) 0.2953(4) 0.5495(4)
C102 C 0.2063(6) 0.5960(6) 0.4539(5)
H51 H 0.2151 0.5620 0.4606
C103 C 0.0462(6) 0.1665(5) 0.4623(5)
C104 C 0.1543(5) 0.6089(4) 0.4494(5)
C105 C 0.1801(4) 0.4759(4) 0.3250(4)
C106 C 0.1051(4) 0.2392(4) 0.4907(4)
C107 C 0.3053(4) 0.3183(4) 0.5640(4)
C108 C 0.1198(4) 0.1948(5) 0.4131(5)
H52 H 0.1114 0.1689 0.3900
C109 C 0.0900(8) 0.6713(5) 0.4380(6)
H53 H 0.0819 0.7057 0.4328
C110 C 0.1163(5) 0.5685(4) 0.4543(4)
C111 C 0.3145(4) 0.2737(5) 0.5867(5)
H54 H 0.3476 0.2669 0.5986
C112 C 0.1629(4) 0.3072(4) 0.5272(5)
H55 H 0.1378 0.3051 0.5548
H56 H 0.1624 0.3420 0.5140
C113 C 0.0663(5) 0.5830(4) 0.4502(4)
C114 C 0.1658(5) 0.4780(5) 0.2729(5)
H57 H 0.1896 0.4728 0.2468
C115 C 0.1749(4) 0.2665(4) 0.4383(4)
C116 C 0.2430(5) 0.2942(6) 0.3802(5)
H58 H 0.2705 0.3159 0.3733
C117 C 0.2315(5) 0.2553(7) 0.3459(5)
H59 H 0.2500 0.2523 0.3155
C118 C 0.1623(4) 0.2275(5) 0.4026(4)
C119 C 0.2257(5) 0.2488(4) 0.5770(4)
C120 C 0.0493(5) 0.6373(4) 0.4437(5)
C121 C 0.1631(4) 0.4909(4) 0.4159(4)
C122 C 0.0958(5) 0.5054(5) 0.3488(4)
H60 H 0.0720 0.5139 0.3741
C123 C 0.2150(4) 0.3013(5) 0.4238(5)
H61 H 0.2220 0.3295 0.4446
C124 C 0.1476(4) 0.2709(4) 0.4853(4)
C125 C 0.1979(7) 0.1676(5) 0.6133(6)
H62 H 0.1721 0.1439 0.6206
C126 C 0.1932(6) 0.2215(7) 0.3563(6)
H63 H 0.1868 0.1944 0.3338
C127 C 0.1304(4) 0.5116(4) 0.4589(4)
H64 H 0.1485 0.5064 0.4910
H65 H 0.0989 0.4916 0.4604
C128 C 0.1138(6) 0.4884(8) 0.2620(6)
H66 H 0.1014 0.4832 0.2289
C129 C 0.0805(5) 0.5062(6) 0.3000(6)
H67 H 0.0481 0.5185 0.2913
C130 C 0.1865(5) 0.2130(5) 0.5889(5)
H68 H 0.1527 0.2204 0.5801
C131 C 0.1429(6) 0.6580(6) 0.4394(6)
C132 C 0.2850(6) 0.1900(6) 0.6191(7)
H69 H 0.3181 0.1828 0.6306
C133 C 0.2294(9) 0.6844(8) 0.4366(8)
H70 H 0.2538 0.7103 0.4330
C134 C 0.2468(7) 0.6338(7) 0.4485(6)
H71 H 0.2814 0.6257 0.4525
C136 C 0.1772(10) 0.6973(7) 0.4302(8)
H72 H 0.1666 0.7300 0.4203
C137 C 0.2503(7) 0.1573(6) 0.6275(7)
H73 H 0.2587 0.1262 0.6429
C138 C 0.2766(5) 0.2366(5) 0.5934(5)
O27 O 0.3275(3) 0.4266(3) 0.3621(3)
O28 O 0.0138(3) 0.1743(3) 0.4990(3)
O29 O 0.2465(3) 0.3754(3) 0.5219(2)
O30 O 0.3413(2) 0.4025(3) 0.5407(3)
O31 O 0.2270(3) 0.4685(3) 0.4765(2)
O32 O 0.3132(3) 0.4272(2) 0.4446(2)
O33 O 0.3915(3) 0.3457(4) 0.5726(5)
O34 O 0.0413(4) 0.1277(5) 0.4315(4)
O35 O 0.0777(2) 0.2443(3) 0.5343(3)
H75 H 0.0096 0.0798 0.6165
Eu2 Eu 0.09425(2) 0.59425(2) 0.90575(2)
Eu3 Eu 0.40575(2) 0.40575(2) 0.40575(2)
H77 H 0.0066677 0.0591892 0.563435
Eu1 Eu 0.90575(2) 0.09425(2) 0.59425(2)
Ti2 Ti 0.95763(8) 0.54237(8) 0.45763(8)
C1 C 0.9543(4) 0.4073(4) 0.7995(4)
C2 C 0.8371(4) 0.2708(4) 0.5412(4)
H1 H 0.8110 0.2480 0.5498
C4 C 0.8989(4) 0.2025(4) 0.5652(4)
O1 O 0.9555(3) 0.4715(3) 0.4521(3)
C5 C 0.8877(4) 0.2559(4) 0.5454(4)
C6 C 0.9268(4) 0.2887(4) 0.5284(4)
C8 C 0.8642(4) 0.3540(4) 0.5076(4)
C10 C 0.9539(5) 0.2937(6) 0.4040(6)
H2 H 0.9606 0.2849 0.4380
C11 C 0.9623(5) 0.4538(6) 0.8335(5)
C12 C 0.9494(5) 0.3457(5) 0.3911(4)
C13 C 0.8250(4) 0.3199(4) 0.5241(4)
C14 C 0.9907(4) 0.3949(4) 0.7608(4)
C16 C 0.9131(5) 0.3802(4) 0.8052(5)
H3 H 0.8900 0.3886 0.8311
C17 C 0.9380(6) 0.4100(8) 0.3287(5)
H4 H 0.9328 0.4181 0.2943
C18 C 0.9543(4) 0.3837(5) 0.4315(4)
C21 C 0.9502(4) 0.4337(5) 0.4170(4)
C22 C 0.7729(5) 0.3342(5) 0.5220(5)
H8 H 0.7468 0.3104 0.5272
C23 C 0.9383(4) 0.3251(4) 0.7335(4)
C24 C 0.8802(5) 0.2570(5) 0.7058(6)
H9 H 0.8733 0.2295 0.6841
C25 C 0.8459(5) 0.2685(5) 0.7447(7)
H10 H 0.8155 0.2500 0.7477
C26 C 0.9026(4) 0.3377(4) 0.7725(5)
C28 C 0.9437(5) 0.4507(5) 0.3627(4)
C29 C 0.9159(4) 0.3369(4) 0.5091(4)
C30 C 0.8488(4) 0.4042(5) 0.4946(5)
H11 H 0.8741 0.4280 0.4861
C31 C 0.9238(5) 0.2850(4) 0.6987(5)
H12 H 0.9446 0.2780 0.6705
C32 C 0.9853(4) 0.3524(4) 0.7291(4)
C34 C 0.8563(6) 0.3068(6) 0.7785(7)
H14 H 0.8338 0.3132 0.8056
C35 C 0.9589(4) 0.3696(4) 0.4884(4)
H15 H 0.9910 0.3515 0.4936
H16 H 0.9604 0.4011 0.5084
C36 C 0.7620(6) 0.3862(6) 0.5116(8)
H17 H 0.7289 0.3986 0.5168
C37 C 0.8000(6) 0.4195(5) 0.4938(6)
H18 H 0.7913 0.4519 0.4815
C39 C 0.9394(6) 0.3571(6) 0.3420(6)
C41 C 0.9366(8) 0.2706(9) 0.3156(8)
H21 H 0.9330 0.2462 0.2897
C42 C 0.9485(6) 0.2532(7) 0.3662(7)
H22 H 0.9525 0.2186 0.3743
C43 C 0.9397(6) 0.5014(8) 0.3478(6)
C44 C 0.9302(8) 0.3228(10) 0.3027(7)
H23 H 0.9203 0.3334 0.2700
O2 O 0.9014(3) 0.0081(3) 0.5609(3)
O3 O 0.8621(3) 0.1725(3) 0.5734(3)
O4 O 0.9990(3) 0.4862(3) 0.8257(3)
O7 O 0.9765(2) 0.2730(3) 0.5315(3)
O8 O 0.9446(2) 0.1868(3) 0.5728(2)
O10 O 0.9315(4) 0.4587(4) 0.8723(5)
O12 O 0.9474(4) 0.5409(4) 0.3788(4)
O13 O 0.9365(6) 0.5135(5) 0.3017(4)
O14 O 0.9521(3) 0.5445(3) 0.5285(3)
C56 C 0.9040(6) 0.5461(5) 0.7063(6)
H27 H 0.9380 0.5394 0.7151
C58 C 0.8911(4) 0.5506(5) 0.6543(5)
C63 C 0.8287(5) 0.5620(6) 0.5900(8)
H29 H 0.7943 0.5672 0.5819
C64 C 0.9315(4) 0.5457(4) 0.6163(5)
C67 C 0.9170(4) 0.5498(4) 0.5663(5)
C74 C 0.8627(4) 0.5563(5) 0.5493(5)
C76 C 0.9946(5) 0.6512(4) 0.5958(5)
H36 H 0.9861 0.6259 0.5720
C81 C 0.9884(4) 0.5411(4) 0.6304(4)
H40 H 0.9936 0.5090 0.6485
C83 C 0.9938(6) 0.7000(6) 0.5805(5)
H43 H 0.9815 0.7087 0.5481
C85 C 0.8420(6) 0.5606(6) 0.6429(6)
C87 C 0.8156(8) 0.5634(8) 0.7294(9)
H46 H 0.7897 0.5670 0.7538
C88 C 0.8662(7) 0.5515(6) 0.7468(7)
H47 H 0.8743 0.5475 0.7814
C89 C 0.8478(6) 0.5603(6) 0.4986(8)
C90 C 0.8027(7) 0.5698(8) 0.6772(10)
H48 H 0.7700 0.5797 0.6666
O24 O 0.8788(4) 0.5526(4) 0.4591(4)
O25 O 0.8017(4) 0.5635(6) 0.4865(5)
C135 C 0.9986(8) 0.6522(6) 0.4397(6)
O36 O 0.9591(4) 0.6212(4) 0.4474(4)
O37 O 0.9865(5) 0.6983(4) 0.4365(6)
O38 O 0.9391(3) 0.0986(3) 0.5081(3)
H74 H 0.9202 0.1165 0.4904
O39 O 0.9919(3) 0.0609(3) 0.5986(3)
O40 O 0.9266(3) 0.1379(3) 0.6725(3)
O41 O 0.8275(3) 0.0734(3) 0.6379(3)
O42 O 0.9272(2) 0.0554(2) 0.6868(3)
O43 O 0.8132(3) 0.0728(2) 0.5554(2)
H76 H 0.940811 0.0634353 0.493332
H25 H 0.8835 0.9904 0.5798
H78 H 0.936565 0.993332 0.559189
H25_2 H 0.6165 0.0096 0.0798
H78_2 H 0.563435 0.0066677 0.0591892
Eu1_2 Eu 0.59425(2) 0.90575(2) 0.09425(2)
Ti1_2 Ti 0.48491(6) 0.77834(7) 0.06064(7)
C1_2 C 0.5457(4) 0.5927(4) 0.2995(4)
C2_2 C 0.6629(4) 0.7292(4) 0.0412(4)
H1_2 H 0.6890 0.7520 0.0498
C3_2 C 0.4543(4) 0.7566(4) 0.1687(4)
C4_2 C 0.6011(4) 0.7975(4) 0.0652(4)
C5_2 C 0.6123(4) 0.7441(4) 0.0454(4)
C6_2 C 0.5732(4) 0.7113(4) 0.0284(4)
C7_2 C 0.4399(5) 0.8488(4) 0.1430(5)
C8_2 C 0.6358(4) 0.6460(4) 0.0076(4)
C9_2 C 0.4505(4) 0.7175(4) 0.2047(4)
C11_2 C 0.5377(5) 0.5462(6) 0.3335(5)
C13_2 C 0.6750(4) 0.6801(4) 0.0241(4)
C14_2 C 0.5093(4) 0.6051(4) 0.2608(4)
C15_2 C 0.4360(4) 0.8053(4) 0.1817(4)
C16_2 C 0.5869(5) 0.6198(4) 0.3052(5)
H3_2 H 0.6100 0.6114 0.3311
C19_2 C 0.4133(5) 0.8145(4) 0.2263(5)
H5_2 H 0.4014 0.8476 0.2331
C20_2 C 0.4728(5) 0.6629(4) 0.1928(4)
H6_2 H 0.4452 0.6378 0.1949
H7_2 H 0.4860 0.6624 0.1580
C22_2 C 0.7271(5) 0.6658(5) 0.0220(5)
H8_2 H 0.7532 0.6896 0.0272
C23_2 C 0.5617(4) 0.6749(4) 0.2335(4)
C24_2 C 0.6198(5) 0.7430(5) 0.2058(6)
H9_2 H 0.6267 0.7705 0.1841
C25_2 C 0.6541(5) 0.7315(5) 0.2447(7)
H10_2 H 0.6845 0.7500 0.2477
C26_2 C 0.5974(4) 0.6623(4) 0.2725(5)
C27_2 C 0.4230(4) 0.7257(5) 0.2512(4)
C29_2 C 0.5841(4) 0.6631(4) 0.0091(4)
C31_2 C 0.5762(5) 0.7150(4) 0.1987(5)
H12_2 H 0.5554 0.7220 0.1705
C32_2 C 0.5147(4) 0.6476(4) 0.2291(4)
C33_2 C 0.3867(6) 0.6979(7) 0.3324(5)
H13_2 H 0.3794 0.6721 0.3561
C34_2 C 0.6437(6) 0.6932(6) 0.2785(7)
H14_2 H 0.6662 0.6868 0.3056
H16_2 H 0.5396 0.5989 0.0084
C36_2 C 0.7380(6) 0.6138(6) 0.0116(8)
H17_2 H 0.7711 0.6014 0.0168
C38_2 C 0.4111(5) 0.6865(5) 0.2870(5)
H19_2 H 0.4199 0.6527 0.2796
C40_2 C 0.3809(7) 0.7850(6) 0.3100(6)
H20_2 H 0.3694 0.8181 0.3172
C45_2 C 0.3725(7) 0.7503(7) 0.3427(6)
H24_2 H 0.3571 0.7587 0.3738
C46_2 C 0.4066(5) 0.7766(5) 0.2634(5)
O2_2 O 0.5986(3) 0.9919(3) 0.0609(3)
O3_2 O 0.6379(3) 0.8275(3) 0.0734(3)
O4_2 O 0.5010(3) 0.5138(3) 0.3257(3)
O5_2 O 0.4781(2) 0.7465(3) 0.1246(3)
O6_2 O 0.4593(3) 0.8413(2) 0.0975(3)
O7_2 O 0.5235(2) 0.7270(3) 0.0315(3)
O8_2 O 0.5554(2) 0.8132(3) 0.0728(2)
O9_2 O 0.4274(5) 0.8915(3) 0.1543(4)
O10_2 O 0.5685(4) 0.5413(4) 0.3723(5)
O11_2 O 0.4657(3) 0.5777(2) 0.2557(3)
Ti3_2 Ti 0.43936(7) 0.51509(6) 0.27834(7)
C47_2 C 0.2005(4) 0.4543(4) 0.0927(4)
C48_2 C 0.4588(4) 0.3371(4) 0.2292(4)
H26_2 H 0.4502 0.3110 0.2520
C49_2 C 0.3313(4) 0.5457(4) 0.2566(4)
C50_2 C 0.4348(4) 0.3989(4) 0.2975(4)
O14_2 O 0.5479(3) 0.4555(3) 0.0285(3)
C51_2 C 0.4546(4) 0.3877(4) 0.2441(4)
C52_2 C 0.4716(4) 0.4268(4) 0.2113(4)
C53_2 C 0.3570(5) 0.5601(5) 0.3488(4)
C54_2 C 0.4924(4) 0.3642(4) 0.1460(4)
C55_2 C 0.2953(4) 0.5495(4) 0.2175(4)
C56_2 C 0.5960(6) 0.4539(5) 0.2063(6)
H27_2 H 0.5620 0.4606 0.2151
C57_2 C 0.1665(5) 0.4623(5) 0.0462(6)
C58_2 C 0.6089(4) 0.4494(5) 0.1543(5)
C59_2 C 0.4759(4) 0.3250(4) 0.1801(4)
C60_2 C 0.2392(4) 0.4907(4) 0.1051(4)
C61_2 C 0.3183(4) 0.5640(4) 0.3053(4)
C62_2 C 0.1948(5) 0.4131(5) 0.1198(4)
H28_2 H 0.1689 0.3900 0.1114
C63_2 C 0.6713(5) 0.4380(6) 0.0900(8)
H29_2 H 0.7057 0.4328 0.0819
C64_2 C 0.5685(4) 0.4543(4) 0.1163(5)
C65_2 C 0.2737(5) 0.5867(5) 0.3145(4)
H30_2 H 0.2669 0.5986 0.3476
C66_2 C 0.3072(4) 0.5272(5) 0.1629(4)
H31_2 H 0.3051 0.5548 0.1378
H32_2 H 0.3420 0.5140 0.1624
C67_2 C 0.5830(4) 0.4502(4) 0.0663(5)
C68_2 C 0.4780(5) 0.2729(5) 0.1658(5)
H33_2 H 0.4728 0.2468 0.1896
C69_2 C 0.2665(4) 0.4383(4) 0.1749(4)
C70_2 C 0.2942(6) 0.3802(5) 0.2430(5)
H34_2 H 0.3159 0.3733 0.2705
C71_2 C 0.2553(7) 0.3459(5) 0.2315(5)
H35_2 H 0.2523 0.3155 0.2500
C72_2 C 0.2275(5) 0.4026(4) 0.1623(4)
C73_2 C 0.2488(4) 0.5770(4) 0.2257(5)
C74_2 C 0.6373(4) 0.4437(5) 0.0493(5)
C75_2 C 0.4909(4) 0.4159(4) 0.1631(4)
C76_2 C 0.5054(5) 0.3488(4) 0.0958(5)
H36_2 H 0.5139 0.3741 0.0720
C77_2 C 0.3013(5) 0.4238(5) 0.2150(4)
H37_2 H 0.3295 0.4446 0.2220
C78_2 C 0.2709(4) 0.4853(4) 0.1476(4)
C79_2 C 0.1676(5) 0.6133(6) 0.1979(7)
H38_2 H 0.1439 0.6206 0.1721
C80_2 C 0.2215(7) 0.3563(6) 0.1932(6)
H39_2 H 0.1944 0.3338 0.1868
C81_2 C 0.5116(4) 0.4589(4) 0.1304(4)
H40_2 H 0.5064 0.4910 0.1485
H41_2 H 0.4916 0.4604 0.0989
C82_2 C 0.4884(8) 0.2620(6) 0.1138(6)
H42_2 H 0.4832 0.2289 0.1014
C83_2 C 0.5062(6) 0.3000(6) 0.0805(5)
H43_2 H 0.5185 0.2913 0.0481
C84_2 C 0.2130(5) 0.5889(5) 0.1865(5)
H44_2 H 0.2204 0.5801 0.1527
C85_2 C 0.6580(6) 0.4394(6) 0.1429(6)
C86_2 C 0.1900(6) 0.6191(7) 0.2850(6)
H45_2 H 0.1828 0.6306 0.3181
C87_2 C 0.6844(8) 0.4366(8) 0.2294(9)
H46_2 H 0.7103 0.4330 0.2538
C88_2 C 0.6338(7) 0.4485(6) 0.2468(7)
H47_2 H 0.6257 0.4525 0.2814
C90_2 C 0.6973(7) 0.4302(8) 0.1772(10)
H48_2 H 0.7300 0.4203 0.1666
C91_2 C 0.1573(6) 0.6275(7) 0.2503(7)
H49_2 H 0.1262 0.6429 0.2587
C92_2 C 0.2366(5) 0.5934(5) 0.2766(5)
O15_2 O 0.4266(3) 0.3621(3) 0.3275(3)
O16_2 O 0.1743(3) 0.4990(3) 0.0138(3)
O17_2 O 0.3754(3) 0.5219(2) 0.2465(3)
O18_2 O 0.4025(3) 0.5407(3) 0.3413(2)
O19_2 O 0.4685(3) 0.4765(2) 0.2270(3)
O20_2 O 0.4272(2) 0.4446(2) 0.3132(3)
O21_2 O 0.3457(4) 0.5726(5) 0.3915(3)
O22_2 O 0.1277(5) 0.4315(4) 0.0413(4)
O23_2 O 0.2443(3) 0.5343(3) 0.0777(2)
Ti4_2 Ti 0.22166(7) 0.56064(7) 0.01509(6)
C95_2 C 0.2434(4) 0.6687(4) 0.0457(4)
C99_2 C 0.1512(4) 0.6430(5) 0.0601(5)
C101_2 C 0.2825(4) 0.7047(4) 0.0495(4)
C107_2 C 0.1947(4) 0.6817(4) 0.0640(4)
C111_2 C 0.1855(4) 0.7263(5) 0.0867(5)
H54_2 H 0.1524 0.7331 0.0986
C112_2 C 0.3371(4) 0.6928(4) 0.0272(5)
H55_2 H 0.3622 0.6949 0.0548
H56_2 H 0.3376 0.6580 0.0140
C119_2 C 0.2743(5) 0.7512(4) 0.0770(4)
C125_2 C 0.3021(7) 0.8324(5) 0.1133(6)
H62_2 H 0.3279 0.8561 0.1206
C130_2 C 0.3135(5) 0.7870(5) 0.0889(5)
H68_2 H 0.3473 0.7796 0.0801
C132_2 C 0.2150(6) 0.8100(6) 0.1191(7)
H69_2 H 0.1819 0.8172 0.1306
C137_2 C 0.2497(7) 0.8427(6) 0.1275(7)
H73_2 H 0.2413 0.8738 0.1429
C138_2 C 0.2234(5) 0.7634(5) 0.0934(5)
O29_2 O 0.2535(3) 0.6246(3) 0.0219(2)
O30_2 O 0.1587(2) 0.5975(3) 0.0407(3)
O33_2 O 0.1085(3) 0.6543(4) 0.0726(5)
O35_2 O 0.4223(2) 0.7557(3) 0.0343(3)
O38_2 O 0.5609(3) 0.9014(3) 0.0081(3)
O39_2 O 0.5081(3) 0.9391(3) 0.0986(3)
H75_2 H 0.4904 0.9202 0.1165
O40_2 O 0.5734(3) 0.8621(3) 0.1725(3)
O41_2 O 0.6725(3) 0.9266(3) 0.1379(3)
O42_2 O 0.5728(2) 0.9446(2) 0.1868(3)
O43_2 O 0.6868(3) 0.9272(2) 0.0554(2)
H77_2 H 0.493332 0.940811 0.0634353
Ti2_2 Ti 0.54237(8) 0.45763(8) 0.95763(8)
O1_2 O 0.5445(3) 0.5285(3) 0.9521(3)
C10_2 C 0.5461(5) 0.7063(6) 0.9040(6)
H2_2 H 0.5394 0.7151 0.9380
C12_2 C 0.5506(5) 0.6543(5) 0.8911(4)
C17_2 C 0.5620(6) 0.5900(8) 0.8287(5)
H4_2 H 0.5672 0.5819 0.7943
C18_2 C 0.5457(4) 0.6163(5) 0.9315(4)
C21_2 C 0.5498(4) 0.5663(5) 0.9170(4)
C28_2 C 0.5563(5) 0.5493(5) 0.8627(4)
C30_2 C 0.6512(4) 0.5958(5) 0.9946(5)
H11_2 H 0.6259 0.5720 0.9861
C35_2 C 0.5411(4) 0.6304(4) 0.9884(4)
H15_2 H 0.5090 0.6485 0.9936
C37_2 C 0.7000(6) 0.5805(5) 0.9938(6)
H18_2 H 0.7087 0.5481 0.9815
C39_2 C 0.5606(6) 0.6429(6) 0.8420(6)
C41_2 C 0.5634(8) 0.7294(9) 0.8156(8)
H21_2 H 0.5670 0.7538 0.7897
C42_2 C 0.5515(6) 0.7468(7) 0.8662(7)
H22_2 H 0.5475 0.7814 0.8743
C43_2 C 0.5603(6) 0.4986(8) 0.8478(6)
C44_2 C 0.5698(8) 0.6772(10) 0.8027(7)
H23_2 H 0.5797 0.6666 0.7700
O12_2 O 0.5526(4) 0.4591(4) 0.8788(4)
O13_2 O 0.5635(6) 0.4865(5) 0.8017(4)
C89_2 C 0.6522(6) 0.4397(6) 0.9986(8)
O24_2 O 0.6212(4) 0.4474(4) 0.9591(4)
O25_2 O 0.6983(4) 0.4365(6) 0.9865(5)
C93_2 C 0.4073(4) 0.7995(4) 0.9543(4)
C94_2 C 0.2708(4) 0.5412(4) 0.8371(4)
H50_2 H 0.2480 0.5498 0.8110
C96_2 C 0.2025(4) 0.5652(4) 0.8989(4)
O26_2 O 0.4715(3) 0.4521(3) 0.9555(3)
C97_2 C 0.2559(4) 0.5454(4) 0.8877(4)
C98_2 C 0.2887(4) 0.5284(4) 0.9268(4)
C100_2 C 0.3540(4) 0.5076(4) 0.8642(4)
C102_2 C 0.2937(6) 0.4040(6) 0.9539(5)
H51_2 H 0.2849 0.4380 0.9606
C103_2 C 0.4538(6) 0.8335(5) 0.9623(5)
C104_2 C 0.3457(5) 0.3911(4) 0.9494(5)
C105_2 C 0.3199(4) 0.5241(4) 0.8250(4)
C106_2 C 0.3949(4) 0.7608(4) 0.9907(4)
C108_2 C 0.3802(4) 0.8052(5) 0.9131(5)
H52_2 H 0.3886 0.8311 0.8900
C109_2 C 0.4100(8) 0.3287(5) 0.9380(6)
H53_2 H 0.4181 0.2943 0.9328
C110_2 C 0.3837(5) 0.4315(4) 0.9543(4)
C113_2 C 0.4337(5) 0.4170(4) 0.9502(4)
C114_2 C 0.3342(5) 0.5220(5) 0.7729(5)
H57_2 H 0.3104 0.5272 0.7468
C115_2 C 0.3251(4) 0.7335(4) 0.9383(4)
C116_2 C 0.2570(5) 0.7058(6) 0.8802(5)
H58_2 H 0.2295 0.6841 0.8733
C117_2 C 0.2685(5) 0.7447(7) 0.8459(5)
H59_2 H 0.2500 0.7477 0.8155
C118_2 C 0.3377(4) 0.7725(5) 0.9026(4)
C120_2 C 0.4507(5) 0.3627(4) 0.9437(5)
C121_2 C 0.3369(4) 0.5091(4) 0.9159(4)
C122_2 C 0.4042(5) 0.4946(5) 0.8488(4)
H60_2 H 0.4280 0.4861 0.8741
C123_2 C 0.2850(4) 0.6987(5) 0.9238(5)
H61_2 H 0.2780 0.6705 0.9446
C124_2 C 0.3524(4) 0.7291(4) 0.9853(4)
C126_2 C 0.3068(6) 0.7785(7) 0.8563(6)
H63_2 H 0.3132 0.8056 0.8338
C127_2 C 0.3696(4) 0.4884(4) 0.9589(4)
H64_2 H 0.3515 0.4936 0.9910
H65_2 H 0.4011 0.5084 0.9604
C128_2 C 0.3862(6) 0.5116(8) 0.7620(6)
H66_2 H 0.3986 0.5168 0.7289
C129_2 C 0.4195(5) 0.4938(6) 0.8000(6)
H67_2 H 0.4519 0.4815 0.7913
C131_2 C 0.3571(6) 0.3420(6) 0.9394(6)
C133_2 C 0.2706(9) 0.3156(8) 0.9366(8)
H70_2 H 0.2462 0.2897 0.9330
C134_2 C 0.2532(7) 0.3662(7) 0.9485(6)
H71_2 H 0.2186 0.3743 0.9525
C135_2 C 0.5014(8) 0.3478(6) 0.9397(6)
C136_2 C 0.3228(10) 0.3027(7) 0.9302(8)
H72_2 H 0.3334 0.2700 0.9203
O27_2 O 0.1725(3) 0.5734(3) 0.8621(3)
O28_2 O 0.4862(3) 0.8257(3) 0.9990(3)
O31_2 O 0.2730(3) 0.5315(3) 0.9765(2)
O32_2 O 0.1868(3) 0.5728(2) 0.9446(2)
O34_2 O 0.4587(4) 0.8723(5) 0.9315(4)
O36_2 O 0.5409(4) 0.3788(4) 0.9474(4)
O37_2 O 0.5135(5) 0.3017(4) 0.9365(6)
H74_2 H 0.5798 0.8835 0.9904
H76_2 H 0.559189 0.936565 0.993332
O14_3 O 0.0479(3) 0.0445(3) 0.9715(3)
C56_3 C 0.0960(6) 0.0461(5) 0.7937(6)
H27_3 H 0.0620 0.0394 0.7849
C58_3 C 0.1089(4) 0.0506(5) 0.8457(5)
C63_3 C 0.1713(5) 0.0620(6) 0.9100(8)
H29_3 H 0.2057 0.0672 0.9181
C64_3 C 0.0685(4) 0.0457(4) 0.8837(5)
C67_3 C 0.0830(4) 0.0498(4) 0.9337(5)
C74_3 C 0.1373(4) 0.0563(5) 0.9507(5)
C76_3 C 0.0054(5) 0.1512(4) 0.9042(5)
H36_3 H 0.0139 0.1259 0.9280
C81_3 C 0.0116(4) 0.0411(4) 0.8696(4)
H40_3 H 0.0064 0.0090 0.8515
C83_3 C 0.0062(6) 0.2000(6) 0.9195(5)
H43_3 H 0.0185 0.2087 0.9519
C85_3 C 0.1580(6) 0.0606(6) 0.8571(6)
C87_3 C 0.1844(8) 0.0634(8) 0.7706(9)
H46_3 H 0.2103 0.0670 0.7462
C88_3 C 0.1338(7) 0.0515(6) 0.7532(7)
H47_3 H 0.1257 0.0475 0.7186
C90_3 C 0.1973(7) 0.0698(8) 0.8228(10)
H48_3 H 0.2300 0.0797 0.8334
O1_3 O 0.0445(3) 0.9715(3) 0.0479(3)
C10_3 C 0.0461(5) 0.7937(6) 0.0960(6)
H2_3 H 0.0394 0.7849 0.0620
C12_3 C 0.0506(5) 0.8457(5) 0.1089(4)
C17_3 C 0.0620(6) 0.9100(8) 0.1713(5)
H4_3 H 0.0672 0.9181 0.2057
C18_3 C 0.0457(4) 0.8837(5) 0.0685(4)
C21_3 C 0.0498(4) 0.9337(5) 0.0830(4)
C28_3 C 0.0563(5) 0.9507(5) 0.1373(4)
C30_3 C 0.1512(4) 0.9042(5) 0.0054(5)
H11_3 H 0.1259 0.9280 0.0139
C35_3 C 0.0411(4) 0.8696(4) 0.0116(4)
H15_3 H 0.0090 0.8515 0.0064
C37_3 C 0.2000(6) 0.9195(5) 0.0062(6)
H18_3 H 0.2087 0.9519 0.0185
C39_3 C 0.0606(6) 0.8571(6) 0.1580(6)
C41_3 C 0.0634(8) 0.7706(9) 0.1844(8)
H21_3 H 0.0670 0.7462 0.2103
C42_3 C 0.0515(6) 0.7532(7) 0.1338(7)
H22_3 H 0.0475 0.7186 0.1257
C44_3 C 0.0698(8) 0.8228(10) 0.1973(7)
H23_3 H 0.0797 0.8334 0.2300
H74_3 H 0.0798 0.6165 0.0096
H76_3 H 0.0591892 0.563435 0.0066677
C1_3 C 0.0457(4) 0.9073(4) 0.7005(4)
C2_3 C 0.1629(4) 0.7708(4) 0.9588(4)
H1_3 H 0.1890 0.7480 0.9502
C4_3 C 0.1011(4) 0.7025(4) 0.9348(4)
C5_3 C 0.1123(4) 0.7559(4) 0.9546(4)
C6_3 C 0.0732(4) 0.7887(4) 0.9716(4)
C8_3 C 0.1358(4) 0.8540(4) 0.9924(4)
C11_3 C 0.0377(5) 0.9538(6) 0.6665(5)
C13_3 C 0.1750(4) 0.8199(4) 0.9759(4)
C14_3 C 0.0093(4) 0.8949(4) 0.7392(4)
C16_3 C 0.0869(5) 0.8802(4) 0.6948(5)
H3_3 H 0.1100 0.8886 0.6689
C22_3 C 0.2271(5) 0.8342(5) 0.9780(5)
H8_3 H 0.2532 0.8104 0.9728
C23_3 C 0.0617(4) 0.8251(4) 0.7665(4)
C24_3 C 0.1198(5) 0.7570(5) 0.7942(6)
H9_3 H 0.1267 0.7295 0.8159
C25_3 C 0.1541(5) 0.7685(5) 0.7553(7)
H10_3 H 0.1845 0.7500 0.7523
C26_3 C 0.0974(4) 0.8377(4) 0.7275(5)
C29_3 C 0.0841(4) 0.8369(4) 0.9909(4)
C31_3 C 0.0762(5) 0.7850(4) 0.8013(5)
H12_3 H 0.0554 0.7780 0.8295
C32_3 C 0.0147(4) 0.8524(4) 0.7709(4)
C34_3 C 0.1437(6) 0.8068(6) 0.7215(7)
H14_3 H 0.1662 0.8132 0.6944
H16_3 H 0.0396 0.9011 0.9916
C36_3 C 0.2380(6) 0.8862(6) 0.9884(8)
H17_3 H 0.2711 0.8986 0.9832
O2_3 O 0.0986(3) 0.5081(3) 0.9391(3)
H25_3 H 0.1165 0.4904 0.9202
O3_3 O 0.1379(3) 0.6725(3) 0.9266(3)
O4_3 O 0.0010(3) 0.9862(3) 0.6743(3)
O7_3 O 0.0235(2) 0.7730(3) 0.9685(3)
O8_3 O 0.0554(2) 0.6868(3) 0.9272(2)
O10_3 O 0.0685(4) 0.9587(4) 0.6277(5)
O38_3 O 0.0609(3) 0.5986(3) 0.9919(3)
O39_3 O 0.0081(3) 0.5609(3) 0.9014(3)
H78_3 H 0.0634353 0.493332 0.940811
O26_3 O 0.9715(3) 0.0479(3) 0.0445(3)
C102_3 C 0.7937(6) 0.0960(6) 0.0461(5)
H51_3 H 0.7849 0.0620 0.0394
C104_3 C 0.8457(5) 0.1089(4) 0.0506(5)
C109_3 C 0.9100(8) 0.1713(5) 0.0620(6)
H53_3 H 0.9181 0.2057 0.0672
C110_3 C 0.8837(5) 0.0685(4) 0.0457(4)
C113_3 C 0.9337(5) 0.0830(4) 0.0498(4)
C120_3 C 0.9507(5) 0.1373(4) 0.0563(5)
C122_3 C 0.9042(5) 0.0054(5) 0.1512(4)
H60_3 H 0.9280 0.0139 0.1259
C127_3 C 0.8696(4) 0.0116(4) 0.0411(4)
H64_3 H 0.8515 0.0064 0.0090
C129_3 C 0.9195(5) 0.0062(6) 0.2000(6)
H67_3 H 0.9519 0.0185 0.2087
C131_3 C 0.8571(6) 0.1580(6) 0.0606(6)
C133_3 C 0.7706(9) 0.1844(8) 0.0634(8)
H70_3 H 0.7462 0.2103 0.0670
C134_3 C 0.7532(7) 0.1338(7) 0.0515(6)
H71_3 H 0.7186 0.1257 0.0475
C136_3 C 0.8228(10) 0.1973(7) 0.0698(8)
H72_3 H 0.8334 0.2300 0.0797
C47_3 C 0.7005(4) 0.0457(4) 0.9073(4)
C48_3 C 0.9588(4) 0.1629(4) 0.7708(4)
H26_3 H 0.9502 0.1890 0.7480
C50_3 C 0.9348(4) 0.1011(4) 0.7025(4)
C51_3 C 0.9546(4) 0.1123(4) 0.7559(4)
C52_3 C 0.9716(4) 0.0732(4) 0.7887(4)
C54_3 C 0.9924(4) 0.1358(4) 0.8540(4)
C57_3 C 0.6665(5) 0.0377(5) 0.9538(6)
C59_3 C 0.9759(4) 0.1750(4) 0.8199(4)
C60_3 C 0.7392(4) 0.0093(4) 0.8949(4)
C62_3 C 0.6948(5) 0.0869(5) 0.8802(4)
H28_3 H 0.6689 0.1100 0.8886
C68_3 C 0.9780(5) 0.2271(5) 0.8342(5)
H33_3 H 0.9728 0.2532 0.8104
C69_3 C 0.7665(4) 0.0617(4) 0.8251(4)
C70_3 C 0.7942(6) 0.1198(5) 0.7570(5)
H34_3 H 0.8159 0.1267 0.7295
C71_3 C 0.7553(7) 0.1541(5) 0.7685(5)
H35_3 H 0.7523 0.1845 0.7500
C72_3 C 0.7275(5) 0.0974(4) 0.8377(4)
C75_3 C 0.9909(4) 0.0841(4) 0.8369(4)
C77_3 C 0.8013(5) 0.0762(5) 0.7850(4)
H37_3 H 0.8295 0.0554 0.7780
C78_3 C 0.7709(4) 0.0147(4) 0.8524(4)
C80_3 C 0.7215(7) 0.1437(6) 0.8068(6)
H39_3 H 0.6944 0.1662 0.8132
H41_3 H 0.9916 0.0396 0.9011
C82_3 C 0.9884(8) 0.2380(6) 0.8862(6)
H42_3 H 0.9832 0.2711 0.8986
O16_3 O 0.6743(3) 0.0010(3) 0.9862(3)
O19_3 O 0.9685(3) 0.0235(2) 0.7730(3)
O22_3 O 0.6277(5) 0.0685(4) 0.9587(4)
C93_3 C 0.9073(4) 0.7005(4) 0.0457(4)
C94_3 C 0.7708(4) 0.9588(4) 0.1629(4)
H50_3 H 0.7480 0.9502 0.1890
C96_3 C 0.7025(4) 0.9348(4) 0.1011(4)
C97_3 C 0.7559(4) 0.9546(4) 0.1123(4)
C98_3 C 0.7887(4) 0.9716(4) 0.0732(4)
C100_3 C 0.8540(4) 0.9924(4) 0.1358(4)
C103_3 C 0.9538(6) 0.6665(5) 0.0377(5)
C105_3 C 0.8199(4) 0.9759(4) 0.1750(4)
C106_3 C 0.8949(4) 0.7392(4) 0.0093(4)
C108_3 C 0.8802(4) 0.6948(5) 0.0869(5)
H52_3 H 0.8886 0.6689 0.1100
C114_3 C 0.8342(5) 0.9780(5) 0.2271(5)
H57_3 H 0.8104 0.9728 0.2532
C115_3 C 0.8251(4) 0.7665(4) 0.0617(4)
C116_3 C 0.7570(5) 0.7942(6) 0.1198(5)
H58_3 H 0.7295 0.8159 0.1267
C117_3 C 0.7685(5) 0.7553(7) 0.1541(5)
H59_3 H 0.7500 0.7523 0.1845
C118_3 C 0.8377(4) 0.7275(5) 0.0974(4)
C121_3 C 0.8369(4) 0.9909(4) 0.0841(4)
C123_3 C 0.7850(4) 0.8013(5) 0.0762(5)
H61_3 H 0.7780 0.8295 0.0554
C124_3 C 0.8524(4) 0.7709(4) 0.0147(4)
C126_3 C 0.8068(6) 0.7215(7) 0.1437(6)
H63_3 H 0.8132 0.6944 0.1662
H65_3 H 0.9011 0.9916 0.0396
C128_3 C 0.8862(6) 0.9884(8) 0.2380(6)
H66_3 H 0.8986 0.9832 0.2711
O28_3 O 0.9862(3) 0.6743(3) 0.0010(3)
O31_3 O 0.7730(3) 0.9685(3) 0.0235(2)
O34_3 O 0.9587(4) 0.6277(5) 0.0685(4)
Ti1_3 Ti 0.98491(6) 0.72166(7) 0.93936(7)
C3_3 C 0.9543(4) 0.7434(4) 0.8313(4)
C7_3 C 0.9399(5) 0.6512(4) 0.8570(5)
C9_3 C 0.9505(4) 0.7825(4) 0.7953(4)
C15_3 C 0.9360(4) 0.6947(4) 0.8183(4)
C19_3 C 0.9133(5) 0.6855(4) 0.7737(5)
H5_3 H 0.9014 0.6524 0.7669
C20_3 C 0.9728(5) 0.8371(4) 0.8072(4)
H6_3 H 0.9452 0.8622 0.8051
H7_3 H 0.9860 0.8376 0.8420
C27_3 C 0.9230(4) 0.7743(5) 0.7488(4)
C33_3 C 0.8867(6) 0.8021(7) 0.6676(5)
H13_3 H 0.8794 0.8279 0.6439
C38_3 C 0.9111(5) 0.8135(5) 0.7130(5)
H19_3 H 0.9199 0.8473 0.7204
C40_3 C 0.8809(7) 0.7150(6) 0.6900(6)
H20_3 H 0.8694 0.6819 0.6828
C45_3 C 0.8725(7) 0.7497(7) 0.6573(6)
H24_3 H 0.8571 0.7413 0.6262
C46_3 C 0.9066(5) 0.7234(5) 0.7366(5)
O5_3 O 0.9781(2) 0.7535(3) 0.8754(3)
O6_3 O 0.9593(3) 0.6587(2) 0.9025(3)
O9_3 O 0.9274(5) 0.6085(3) 0.8457(4)
O11_3 O 0.9657(3) 0.9223(2) 0.7443(3)
Ti3_3 Ti 0.93936(7) 0.98491(6) 0.72166(7)
C49_3 C 0.8313(4) 0.9543(4) 0.7434(4)
C53_3 C 0.8570(5) 0.9399(5) 0.6512(4)
C55_3 C 0.7953(4) 0.9505(4) 0.7825(4)
C61_3 C 0.8183(4) 0.9360(4) 0.6947(4)
C65_3 C 0.7737(5) 0.9133(5) 0.6855(4)
H30_3 H 0.7669 0.9014 0.6524
C66_3 C 0.8072(4) 0.9728(5) 0.8371(4)
H31_3 H 0.8051 0.9452 0.8622
H32_3 H 0.8420 0.9860 0.8376
C73_3 C 0.7488(4) 0.9230(4) 0.7743(5)
C79_3 C 0.6676(5) 0.8867(6) 0.8021(7)
H38_3 H 0.6439 0.8794 0.8279
C84_3 C 0.7130(5) 0.9111(5) 0.8135(5)
H44_3 H 0.7204 0.9199 0.8473
C86_3 C 0.6900(6) 0.8809(7) 0.7150(6)
H45_3 H 0.6828 0.8694 0.6819
C91_3 C 0.6573(6) 0.8725(7) 0.7497(7)
H49_3 H 0.6262 0.8571 0.7413
C92_3 C 0.7366(5) 0.9066(5) 0.7234(5)
O17_3 O 0.8754(3) 0.9781(2) 0.7535(3)
O18_3 O 0.9025(3) 0.9593(3) 0.6587(2)
O21_3 O 0.8457(4) 0.9274(5) 0.6085(3)
O23_3 O 0.7443(3) 0.9657(3) 0.9223(2)
Ti4_3 Ti 0.72166(7) 0.93936(7) 0.98491(6)
C95_3 C 0.7434(4) 0.8313(4) 0.9543(4)
C99_3 C 0.6512(4) 0.8570(5) 0.9399(5)
C101_3 C 0.7825(4) 0.7953(4) 0.9505(4)
C107_3 C 0.6947(4) 0.8183(4) 0.9360(4)
C111_3 C 0.6855(4) 0.7737(5) 0.9133(5)
H54_3 H 0.6524 0.7669 0.9014
C112_3 C 0.8371(4) 0.8072(4) 0.9728(5)
H55_3 H 0.8622 0.8051 0.9452
H56_3 H 0.8376 0.8420 0.9860
C119_3 C 0.7743(5) 0.7488(4) 0.9230(4)
C125_3 C 0.8021(7) 0.6676(5) 0.8867(6)
H62_3 H 0.8279 0.6439 0.8794
C130_3 C 0.8135(5) 0.7130(5) 0.9111(5)
H68_3 H 0.8473 0.7204 0.9199
C132_3 C 0.7150(6) 0.6900(6) 0.8809(7)
H69_3 H 0.6819 0.6828 0.8694
C137_3 C 0.7497(7) 0.6573(6) 0.8725(7)
H73_3 H 0.7413 0.6262 0.8571
C138_3 C 0.7234(5) 0.7366(5) 0.9066(5)
O29_3 O 0.7535(3) 0.8754(3) 0.9781(2)
O30_3 O 0.6587(2) 0.9025(3) 0.9593(3)
O33_3 O 0.6085(3) 0.8457(4) 0.9274(5)
O35_3 O 0.9223(2) 0.7443(3) 0.9657(3)
H75_3 H 0.9904 0.5798 0.8835
H77_3 H 0.993332 0.559189 0.936565
Ti1_4 Ti 0.51509(6) 0.27834(7) 0.43936(7)
C1_4 C 0.4543(4) 0.0927(4) 0.2005(4)
C2_4 C 0.3371(4) 0.2292(4) 0.4588(4)
H1_4 H 0.3110 0.2520 0.4502
C3_4 C 0.5457(4) 0.2566(4) 0.3313(4)
C4_4 C 0.3989(4) 0.2975(4) 0.4348(4)
O1_4 O 0.4555(3) 0.0285(3) 0.5479(3)
C5_4 C 0.3877(4) 0.2441(4) 0.4546(4)
C6_4 C 0.4268(4) 0.2113(4) 0.4716(4)
C7_4 C 0.5601(5) 0.3488(4) 0.3570(5)
C8_4 C 0.3642(4) 0.1460(4) 0.4924(4)
C9_4 C 0.5495(4) 0.2175(4) 0.2953(4)
C10_4 C 0.4539(5) 0.2063(6) 0.5960(6)
H2_4 H 0.4606 0.2151 0.5620
C11_4 C 0.4623(5) 0.0462(6) 0.1665(5)
C12_4 C 0.4494(5) 0.1543(5) 0.6089(4)
C13_4 C 0.3250(4) 0.1801(4) 0.4759(4)
C14_4 C 0.4907(4) 0.1051(4) 0.2392(4)
C15_4 C 0.5640(4) 0.3053(4) 0.3183(4)
C16_4 C 0.4131(5) 0.1198(4) 0.1948(5)
H3_4 H 0.3900 0.1114 0.1689
C17_4 C 0.4380(6) 0.0900(8) 0.6713(5)
H4_4 H 0.4328 0.0819 0.7057
C18_4 C 0.4543(4) 0.1163(5) 0.5685(4)
C19_4 C 0.5867(5) 0.3145(4) 0.2737(5)
H5_4 H 0.5986 0.3476 0.2669
C20_4 C 0.5272(5) 0.1629(4) 0.3072(4)
H6_4 H 0.5548 0.1378 0.3051
H7_4 H 0.5140 0.1624 0.3420
C21_4 C 0.4502(4) 0.0663(5) 0.5830(4)
C22_4 C 0.2729(5) 0.1658(5) 0.4780(5)
H8_4 H 0.2468 0.1896 0.4728
C23_4 C 0.4383(4) 0.1749(4) 0.2665(4)
C24_4 C 0.3802(5) 0.2430(5) 0.2942(6)
H9_4 H 0.3733 0.2705 0.3159
C25_4 C 0.3459(5) 0.2315(5) 0.2553(7)
H10_4 H 0.3155 0.2500 0.2523
C26_4 C 0.4026(4) 0.1623(4) 0.2275(5)
C27_4 C 0.5770(4) 0.2257(5) 0.2488(4)
C28_4 C 0.4437(5) 0.0493(5) 0.6373(4)
C29_4 C 0.4159(4) 0.1631(4) 0.4909(4)
C30_4 C 0.3488(4) 0.0958(5) 0.5054(5)
H11_4 H 0.3741 0.0720 0.5139
C31_4 C 0.4238(5) 0.2150(4) 0.3013(5)
H12_4 H 0.4446 0.2220 0.3295
C32_4 C 0.4853(4) 0.1476(4) 0.2709(4)
C33_4 C 0.6133(6) 0.1979(7) 0.1676(5)
H13_4 H 0.6206 0.1721 0.1439
C34_4 C 0.3563(6) 0.1932(6) 0.2215(7)
H14_4 H 0.3338 0.1868 0.1944
C35_4 C 0.4589(4) 0.1304(4) 0.5116(4)
H15_4 H 0.4910 0.1485 0.5064
H16_4 H 0.4604 0.0989 0.4916
C36_4 C 0.2620(6) 0.1138(6) 0.4884(8)
H17_4 H 0.2289 0.1014 0.4832
C37_4 C 0.3000(6) 0.0805(5) 0.5062(6)
H18_4 H 0.2913 0.0481 0.5185
C38_4 C 0.5889(5) 0.1865(5) 0.2130(5)
H19_4 H 0.5801 0.1527 0.2204
C39_4 C 0.4394(6) 0.1429(6) 0.6580(6)
C40_4 C 0.6191(7) 0.2850(6) 0.1900(6)
H20_4 H 0.6306 0.3181 0.1828
C41_4 C 0.4366(8) 0.2294(9) 0.6844(8)
H21_4 H 0.4330 0.2538 0.7103
C42_4 C 0.4485(6) 0.2468(7) 0.6338(7)
H22_4 H 0.4525 0.2814 0.6257
C44_4 C 0.4302(8) 0.1772(10) 0.6973(7)
H23_4 H 0.4203 0.1666 0.7300
C45_4 C 0.6275(7) 0.2503(7) 0.1573(6)
H24_4 H 0.6429 0.2587 0.1262
C46_4 C 0.5934(5) 0.2766(5) 0.2366(5)
O2_4 O 0.4014(3) 0.4919(3) 0.4391(3)
H25_4 H 0.3835 0.5096 0.4202
O3_4 O 0.3621(3) 0.3275(3) 0.4266(3)
O4_4 O 0.4990(3) 0.0138(3) 0.1743(3)
O5_4 O 0.5219(2) 0.2465(3) 0.3754(3)
O6_4 O 0.5407(3) 0.3413(2) 0.4025(3)
O7_4 O 0.4765(2) 0.2270(3) 0.4685(3)
O8_4 O 0.4446(2) 0.3132(3) 0.4272(2)
O9_4 O 0.5726(5) 0.3915(3) 0.3457(4)
O10_4 O 0.4315(4) 0.0413(4) 0.1277(5)
O11_4 O 0.5343(3) 0.0777(2) 0.2443(3)
Ti3_4 Ti 0.56064(7) 0.01509(6) 0.22166(7)
C49_4 C 0.6687(4) 0.0457(4) 0.2434(4)
C53_4 C 0.6430(5) 0.0601(5) 0.1512(4)
C55_4 C 0.7047(4) 0.0495(4) 0.2825(4)
C61_4 C 0.6817(4) 0.0640(4) 0.1947(4)
C65_4 C 0.7263(5) 0.0867(5) 0.1855(4)
H30_4 H 0.7331 0.0986 0.1524
C66_4 C 0.6928(4) 0.0272(5) 0.3371(4)
H31_4 H 0.6949 0.0548 0.3622
H32_4 H 0.6580 0.0140 0.3376
C73_4 C 0.7512(4) 0.0770(4) 0.2743(5)
C79_4 C 0.8324(5) 0.1133(6) 0.3021(7)
H38_4 H 0.8561 0.1206 0.3279
C84_4 C 0.7870(5) 0.0889(5) 0.3135(5)
H44_4 H 0.7796 0.0801 0.3473
C86_4 C 0.8100(6) 0.1191(7) 0.2150(6)
H45_4 H 0.8172 0.1306 0.1819
C91_4 C 0.8427(6) 0.1275(7) 0.2497(7)
H49_4 H 0.8738 0.1429 0.2413
C92_4 C 0.7634(5) 0.0934(5) 0.2234(5)
O17_4 O 0.6246(3) 0.0219(2) 0.2535(3)
O18_4 O 0.5975(3) 0.0407(3) 0.1587(2)
O21_4 O 0.6543(4) 0.0726(5) 0.1085(3)
O23_4 O 0.7557(3) 0.0343(3) 0.4223(2)
Ti4_4 Ti 0.77834(7) 0.06064(7) 0.48491(6)
C93_4 C 0.5927(4) 0.2995(4) 0.5457(4)
C94_4 C 0.7292(4) 0.0412(4) 0.6629(4)
H50_4 H 0.7520 0.0498 0.6890
C95_4 C 0.7566(4) 0.1687(4) 0.4543(4)
C96_4 C 0.7975(4) 0.0652(4) 0.6011(4)
C97_4 C 0.7441(4) 0.0454(4) 0.6123(4)
C98_4 C 0.7113(4) 0.0284(4) 0.5732(4)
C99_4 C 0.8488(4) 0.1430(5) 0.4399(5)
C100_4 C 0.6460(4) 0.0076(4) 0.6358(4)
C101_4 C 0.7175(4) 0.2047(4) 0.4505(4)
C103_4 C 0.5462(6) 0.3335(5) 0.5377(5)
C105_4 C 0.6801(4) 0.0241(4) 0.6750(4)
C106_4 C 0.6051(4) 0.2608(4) 0.5093(4)
C107_4 C 0.8053(4) 0.1817(4) 0.4360(4)
C108_4 C 0.6198(4) 0.3052(5) 0.5869(5)
H52_4 H 0.6114 0.3311 0.6100
C111_4 C 0.8145(4) 0.2263(5) 0.4133(5)
H54_4 H 0.8476 0.2331 0.4014
C112_4 C 0.6629(4) 0.1928(4) 0.4728(5)
H55_4 H 0.6378 0.1949 0.4452
H56_4 H 0.6624 0.1580 0.4860
C114_4 C 0.6658(5) 0.0220(5) 0.7271(5)
H57_4 H 0.6896 0.0272 0.7532
C115_4 C 0.6749(4) 0.2335(4) 0.5617(4)
C116_4 C 0.7430(5) 0.2058(6) 0.6198(5)
H58_4 H 0.7705 0.1841 0.6267
C117_4 C 0.7315(5) 0.2447(7) 0.6541(5)
H59_4 H 0.7500 0.2477 0.6845
C118_4 C 0.6623(4) 0.2725(5) 0.5974(4)
C119_4 C 0.7257(5) 0.2512(4) 0.4230(4)
C121_4 C 0.6631(4) 0.0091(4) 0.5841(4)
C123_4 C 0.7150(4) 0.1987(5) 0.5762(5)
H61_4 H 0.7220 0.1705 0.5554
C124_4 C 0.6476(4) 0.2291(4) 0.5147(4)
C125_4 C 0.6979(7) 0.3324(5) 0.3867(6)
H62_4 H 0.6721 0.3561 0.3794
C126_4 C 0.6932(6) 0.2785(7) 0.6437(6)
H63_4 H 0.6868 0.3056 0.6662
H65_4 H 0.5989 0.0084 0.5396
C128_4 C 0.6138(6) 0.0116(8) 0.7380(6)
H66_4 H 0.6014 0.0168 0.7711
C130_4 C 0.6865(5) 0.2870(5) 0.4111(5)
H68_4 H 0.6527 0.2796 0.4199
C132_4 C 0.7850(6) 0.3100(6) 0.3809(7)
H69_4 H 0.8181 0.3172 0.3694
C137_4 C 0.7503(7) 0.3427(6) 0.3725(7)
H73_4 H 0.7587 0.3738 0.3571
C138_4 C 0.7766(5) 0.2634(5) 0.4066(5)
O28_4 O 0.5138(3) 0.3257(3) 0.5010(3)
O29_4 O 0.7465(3) 0.1246(3) 0.4781(2)
O30_4 O 0.8413(2) 0.0975(3) 0.4593(3)
O31_4 O 0.7270(3) 0.0315(3) 0.5235(2)
O33_4 O 0.8915(3) 0.1543(4) 0.4274(5)
O34_4 O 0.5413(4) 0.3723(5) 0.5685(4)
O35_4 O 0.5777(2) 0.2557(3) 0.4657(3)
O38_4 O 0.4391(3) 0.4014(3) 0.4919(3)
H74_4 H 0.4202 0.3835 0.5096
O39_4 O 0.4919(3) 0.4391(3) 0.4014(3)
H75_4 H 0.5096 0.4202 0.3835
H76_4 H 0.440811 0.436565 0.506668
H77_4 H 0.506668 0.440811 0.436565
H78_4 H 0.436565 0.506668 0.440811
Ti2_3 Ti 0.45763(8) 0.95763(8) 0.54237(8)
C43_3 C 0.4397(6) 0.9986(8) 0.6522(6)
O12_3 O 0.4474(4) 0.9591(4) 0.6212(4)
O13_3 O 0.4365(6) 0.9865(5) 0.6983(4)
C47_4 C 0.7995(4) 0.9543(4) 0.4073(4)
C48_4 C 0.5412(4) 0.8371(4) 0.2708(4)
H26_4 H 0.5498 0.8110 0.2480
C50_4 C 0.5652(4) 0.8989(4) 0.2025(4)
O14_4 O 0.4521(3) 0.9555(3) 0.4715(3)
C51_4 C 0.5454(4) 0.8877(4) 0.2559(4)
C52_4 C 0.5284(4) 0.9268(4) 0.2887(4)
C54_4 C 0.5076(4) 0.8642(4) 0.3540(4)
C56_4 C 0.4040(6) 0.9539(5) 0.2937(6)
H27_4 H 0.4380 0.9606 0.2849
C57_4 C 0.8335(5) 0.9623(5) 0.4538(6)
C58_4 C 0.3911(4) 0.9494(5) 0.3457(5)
C59_4 C 0.5241(4) 0.8250(4) 0.3199(4)
C60_4 C 0.7608(4) 0.9907(4) 0.3949(4)
C62_4 C 0.8052(5) 0.9131(5) 0.3802(4)
H28_4 H 0.8311 0.8900 0.3886
C63_4 C 0.3287(5) 0.9380(6) 0.4100(8)
H29_4 H 0.2943 0.9328 0.4181
C64_4 C 0.4315(4) 0.9543(4) 0.3837(5)
C67_4 C 0.4170(4) 0.9502(4) 0.4337(5)
C68_4 C 0.5220(5) 0.7729(5) 0.3342(5)
H33_4 H 0.5272 0.7468 0.3104
C69_4 C 0.7335(4) 0.9383(4) 0.3251(4)
C70_4 C 0.7058(6) 0.8802(5) 0.2570(5)
H34_4 H 0.6841 0.8733 0.2295
C71_4 C 0.7447(7) 0.8459(5) 0.2685(5)
H35_4 H 0.7477 0.8155 0.2500
C72_4 C 0.7725(5) 0.9026(4) 0.3377(4)
C74_4 C 0.3627(4) 0.9437(5) 0.4507(5)
C75_4 C 0.5091(4) 0.9159(4) 0.3369(4)
C76_4 C 0.4946(5) 0.8488(4) 0.4042(5)
H36_4 H 0.4861 0.8741 0.4280
C77_4 C 0.6987(5) 0.9238(5) 0.2850(4)
H37_4 H 0.6705 0.9446 0.2780
C78_4 C 0.7291(4) 0.9853(4) 0.3524(4)
C80_4 C 0.7785(7) 0.8563(6) 0.3068(6)
H39_4 H 0.8056 0.8338 0.3132
C81_4 C 0.4884(4) 0.9589(4) 0.3696(4)
H40_4 H 0.4936 0.9910 0.3515
H41_4 H 0.5084 0.9604 0.4011
C82_4 C 0.5116(8) 0.7620(6) 0.3862(6)
H42_4 H 0.5168 0.7289 0.3986
C83_4 C 0.4938(6) 0.8000(6) 0.4195(5)
H43_4 H 0.4815 0.7913 0.4519
C85_4 C 0.3420(6) 0.9394(6) 0.3571(6)
C87_4 C 0.3156(8) 0.9366(8) 0.2706(9)
H46_4 H 0.2897 0.9330 0.2462
C88_4 C 0.3662(7) 0.9485(6) 0.2532(7)
H47_4 H 0.3743 0.9525 0.2186
C89_3 C 0.3478(6) 0.9397(6) 0.5014(8)
C90_4 C 0.3027(7) 0.9302(8) 0.3228(10)
H48_4 H 0.2700 0.9203 0.3334
O16_4 O 0.8257(3) 0.9990(3) 0.4862(3)
O19_4 O 0.5315(3) 0.9765(2) 0.2730(3)
O22_4 O 0.8723(5) 0.9315(4) 0.4587(4)
O24_3 O 0.3788(4) 0.9474(4) 0.5409(4)
O25_3 O 0.3017(4) 0.9365(6) 0.5135(5)
O26_4 O 0.5285(3) 0.9521(3) 0.5445(3)
C102_4 C 0.7063(6) 0.9040(6) 0.5461(5)
H51_4 H 0.7151 0.9380 0.5394
C104_4 C 0.6543(5) 0.8911(4) 0.5506(5)
C109_4 C 0.5900(8) 0.8287(5) 0.5620(6)
H53_4 H 0.5819 0.7943 0.5672
C110_4 C 0.6163(5) 0.9315(4) 0.5457(4)
C113_4 C 0.5663(5) 0.9170(4) 0.5498(4)
C120_4 C 0.5493(5) 0.8627(4) 0.5563(5)
C122_4 C 0.5958(5) 0.9946(5) 0.6512(4)
H60_4 H 0.5720 0.9861 0.6259
C127_4 C 0.6304(4) 0.9884(4) 0.5411(4)
H64_4 H 0.6485 0.9936 0.5090
C129_4 C 0.5805(5) 0.9938(6) 0.7000(6)
H67_4 H 0.5481 0.9815 0.7087
C131_4 C 0.6429(6) 0.8420(6) 0.5606(6)
C133_4 C 0.7294(9) 0.8156(8) 0.5634(8)
H70_4 H 0.7538 0.7897 0.5670
C134_4 C 0.7468(7) 0.8662(7) 0.5515(6)
H71_4 H 0.7814 0.8743 0.5475
C135_3 C 0.4986(8) 0.8478(6) 0.5603(6)
C136_4 C 0.6772(10) 0.8027(7) 0.5698(8)
H72_4 H 0.6666 0.7700 0.5797
O36_3 O 0.4591(4) 0.8788(4) 0.5526(4)
O37_3 O 0.4865(5) 0.8017(4) 0.5635(6)
Ti2_4 Ti 0.04237(8) 0.04237(8) 0.04237(8)
C43_4 C 0.0603(6) 0.0014(8) 0.1522(6)
O12_4 O 0.0526(4) 0.0409(4) 0.1212(4)
O13_4 O 0.0635(6) 0.0135(5) 0.1983(4)
C89_4 C 0.1522(6) 0.0603(6) 0.0014(8)
O24_4 O 0.1212(4) 0.0526(4) 0.0409(4)
O25_4 O 0.1983(4) 0.0635(6) 0.0135(5)
C135_4 C 0.0014(8) 0.1522(6) 0.0603(6)
O36_4 O 0.0409(4) 0.1212(4) 0.0526(4)
O37_4 O 0.0135(5) 0.1983(4) 0.0635(6)
loop_
_geom_bond_atom_site_label_1
_geom_bond_atom_site_label_2
_geom_bond_site_symmetry_1
_geom_bond_site_symmetry_2
Ti1 O5 1_555 1_555
C3 C9 1_555 1_555
C7 C15 1_555 1_555
C9 C20 1_555 1_555
C15 C3 1_555 1_555
C19 C15 1_555 1_555
H5 C19 1_555 1_555
C20 H6 1_555 1_555
H7 C20 1_555 1_555
C27 C9 1_555 1_555
C33 H13 1_555 1_555
C38 C27 1_555 1_555
H19 C38 1_555 1_555
C40 H20 1_555 1_555
C45 C33 1_555 1_555
H24 C45 1_555 1_555
C46 C19 1_555 1_555
O5 C3 1_555 1_555
O6 Ti1 1_555 1_555
O9 C7 1_555 1_555
Ti3 O11 1_555 1_555
C47 C57 1_555 1_555
C48 H26 1_555 1_555
C49 C55 1_555 1_555
C50 C51 1_555 1_555
C51 C48 1_555 1_555
C52 C51 1_555 1_555
C53 C61 1_555 1_555
C54 C59 1_555 1_555
C55 C66 1_555 1_555
C57 O16 1_555 1_555
C59 C48 1_555 1_555
C60 C47 1_555 1_555
C61 C49 1_555 1_555
C62 C47 1_555 1_555
H28 C62 1_555 1_555
C65 C61 1_555 1_555
H30 C65 1_555 1_555
C66 H31 1_555 1_555
H32 C66 1_555 1_555
C68 C59 1_555 1_555
H33 C68 1_555 1_555
C69 C72 1_555 1_555
C70 H34 1_555 1_555
C71 C70 1_555 1_555
H35 C71 1_555 1_555
C72 C62 1_555 1_555
C73 C55 1_555 1_555
C75 C52 1_555 1_555
C77 C69 1_555 1_555
H37 C77 1_555 1_555
C78 C60 1_555 1_555
C79 H38 1_555 1_555
C80 C71 1_555 1_555
H39 C80 1_555 1_555
C82 C68 1_555 1_555
H42 C82 1_555 1_555
C84 C73 1_555 1_555
H44 C84 1_555 1_555
C86 H45 1_555 1_555
C91 C79 1_555 1_555
H49 C91 1_555 1_555
C92 C65 1_555 1_555
O15 C50 1_555 1_555
O16 Ti4 1_555 1_555
O17 Ti3 1_555 1_555
O18 Ti3 1_555 1_555
O19 Ti3 1_555 1_555
O20 Ti3 1_555 1_555
O21 C53 1_555 1_555
O22 C57 1_555 1_555
O23 C60 1_555 1_555
Ti4 O23 1_555 1_555
C93 C103 1_555 1_555
C94 H50 1_555 1_555
C95 C101 1_555 1_555
C96 C97 1_555 1_555
C97 C94 1_555 1_555
C98 C97 1_555 1_555
C99 C107 1_555 1_555
C100 C105 1_555 1_555
C101 C112 1_555 1_555
C102 H51 1_555 1_555
C103 O28 1_555 1_555
C104 C102 1_555 1_555
C105 C94 1_555 1_555
C106 C93 1_555 1_555
C107 C95 1_555 1_555
C108 C93 1_555 1_555
H52 C108 1_555 1_555
C109 H53 1_555 1_555
C110 C104 1_555 1_555
C111 C107 1_555 1_555
H54 C111 1_555 1_555
C112 H55 1_555 1_555
H56 C112 1_555 1_555
C113 O26 1_555 1_555
C114 C105 1_555 1_555
H57 C114 1_555 1_555
C115 C118 1_555 1_555
C116 H58 1_555 1_555
C117 C116 1_555 1_555
H59 C117 1_555 1_555
C118 C108 1_555 1_555
C119 C101 1_555 1_555
C120 C109 1_555 1_555
C121 C98 1_555 1_555
C122 C100 1_555 1_555
H60 C122 1_555 1_555
C123 C115 1_555 1_555
H61 C123 1_555 1_555
C124 C106 1_555 1_555
C125 H62 1_555 1_555
C126 C117 1_555 1_555
H63 C126 1_555 1_555
C127 C110 1_555 1_555
H64 C127 1_555 1_555
H65 C127 1_555 1_555
C128 C114 1_555 1_555
H66 C128 1_555 1_555
C129 C122 1_555 1_555
H67 C129 1_555 1_555
C130 C119 1_555 1_555
H68 C130 1_555 1_555
C131 C104 1_555 1_555
C132 H69 1_555 1_555
C133 H70 1_555 1_555
C134 C102 1_555 1_555
H71 C134 1_555 1_555
C136 C131 1_555 1_555
H72 C136 1_555 1_555
C137 C125 1_555 1_555
H73 C137 1_555 1_555
C138 C111 1_555 1_555
O27 C96 1_555 1_555
O28 Ti1 1_555 1_555
O29 Ti4 1_555 1_555
O30 Ti4 1_555 1_555
O31 Ti4 1_555 1_555
O32 Ti4 1_555 1_555
O33 C99 1_555 1_555
O34 C103 1_555 1_555
O35 Ti1 1_555 1_555
Eu2 O15 1_555 1_555
Eu3 O27 1_555 1_555
C7 O6 1_555 1_555
C27 C46 1_555 1_555
C33 C38 1_555 1_555
C40 C45 1_555 1_555
C40 C46 1_555 1_555
C49 O17 1_555 1_555
C50 O20 1_555 1_555
C52 O19 1_555 1_555
C53 O18 1_555 1_555
C54 C75 1_555 1_555
C66 C78 1_555 1_555
C69 C78 1_555 1_555
C70 C77 1_555 1_555
C72 C80 1_555 1_555
C73 C92 1_555 1_555
C79 C84 1_555 1_555
C86 C91 1_555 1_555
C86 C92 1_555 1_555
O20 Eu2 1_555 1_555
C95 O29 1_555 1_555
C96 O32 1_555 1_555
C98 O31 1_555 1_555
C99 O30 1_555 1_555
C100 C121 1_555 1_555
C106 O35 1_555 1_555
C109 C131 1_555 1_555
C110 C113 1_555 1_555
C112 C124 1_555 1_555
C113 C120 1_555 1_555
C115 C124 1_555 1_555
C116 C123 1_555 1_555
C118 C126 1_555 1_555
C119 C138 1_555 1_555
C121 C127 1_555 1_555
C125 C130 1_555 1_555
C128 C129 1_555 1_555
C132 C137 1_555 1_555
C132 C138 1_555 1_555
C133 C134 1_555 1_555
C133 C136 1_555 1_555
O32 Eu3 1_555 1_555
Eu1 O2 1_555 1_555
Ti2 O1 1_555 1_555
C1 C11 1_555 1_555
C2 H1 1_555 1_555
C4 C5 1_555 1_555
O1 C21 1_555 1_555
C5 C2 1_555 1_555
C6 C5 1_555 1_555
C8 C13 1_555 1_555
C10 H2 1_555 1_555
C11 O4 1_555 1_555
C12 C10 1_555 1_555
C13 C2 1_555 1_555
C14 C1 1_555 1_555
C16 C1 1_555 1_555
H3 C16 1_555 1_555
C17 H4 1_555 1_555
C18 C12 1_555 1_555
C21 C18 1_555 1_555
C22 C13 1_555 1_555
H8 C22 1_555 1_555
C23 C26 1_555 1_555
C24 H9 1_555 1_555
C25 C24 1_555 1_555
H10 C25 1_555 1_555
C26 C16 1_555 1_555
C28 C17 1_555 1_555
C29 C6 1_555 1_555
C30 C8 1_555 1_555
H11 C30 1_555 1_555
C31 C23 1_555 1_555
H12 C31 1_555 1_555
C32 C14 1_555 1_555
C34 C25 1_555 1_555
H14 C34 1_555 1_555
C35 C18 1_555 1_555
H15 C35 1_555 1_555
H16 C35 1_555 1_555
C36 C22 1_555 1_555
H17 C36 1_555 1_555
C37 C30 1_555 1_555
H18 C37 1_555 1_555
C39 C12 1_555 1_555
C41 H21 1_555 1_555
C42 C10 1_555 1_555
H22 C42 1_555 1_555
C43 C28 1_555 1_555
C44 C39 1_555 1_555
H23 C44 1_555 1_555
O3 Eu1 1_555 1_555
O8 Eu1 1_555 1_555
O10 C11 1_555 1_555
O12 Ti2 1_555 1_555
O13 C43 1_555 1_555
O14 Ti2 1_555 1_555
C56 H27 1_555 1_555
C58 C56 1_555 1_555
C63 H29 1_555 1_555
C64 C58 1_555 1_555
C67 O14 1_555 1_555
C74 C63 1_555 1_555
H36 C76 1_555 1_555
C81 C64 1_555 1_555
H40 C81 1_555 1_555
C83 C76 1_555 1_555
H43 C83 1_555 1_555
C85 C58 1_555 1_555
C87 H46 1_555 1_555
C88 C56 1_555 1_555
H47 C88 1_555 1_555
C89 C74 1_555 1_555
C90 C85 1_555 1_555
H48 C90 1_555 1_555
O24 Ti2 1_555 1_555
O25 C89 1_555 1_555
O36 Ti2 1_555 1_555
O37 C135 1_555 1_555
O38 Eu1 1_555 1_555
H74 O38 1_555 1_555
O39 Eu1 1_555 1_555
O40 Eu1 1_555 1_555
O41 Eu1 1_555 1_555
O42 Eu1 1_555 1_555
O43 Eu1 1_555 1_555
C4 O3 1_555 1_555
C4 O8 1_555 1_555
C6 O7 1_555 1_555
C8 C29 1_555 1_555
C17 C39 1_555 1_555
C21 C28 1_555 1_555
C23 C32 1_555 1_555
C24 C31 1_555 1_555
C26 C34 1_555 1_555
C29 C35 1_555 1_555
C36 C37 1_555 1_555
C41 C42 1_555 1_555
C41 C44 1_555 1_555
C43 O12 1_555 1_555
C63 C85 1_555 1_555
C64 C67 1_555 1_555
C67 C74 1_555 1_555
C87 C88 1_555 1_555
C87 C90 1_555 1_555
C89 O24 1_555 1_555
C135 O36 1_555 1_555
O38 H76 1_555 1_555
Eu1_2 O2_2 1_555 1_555
Ti1_2 O5_2 1_555 1_555
C1_2 C11_2 1_555 1_555
C2_2 H1_2 1_555 1_555
C3_2 C9_2 1_555 1_555
C4_2 C5_2 1_555 1_555
C5_2 C2_2 1_555 1_555
C6_2 C5_2 1_555 1_555
C7_2 C15_2 1_555 1_555
C8_2 C13_2 1_555 1_555
C9_2 C20_2 1_555 1_555
C11_2 O4_2 1_555 1_555
C13_2 C2_2 1_555 1_555
C14_2 C1_2 1_555 1_555
C15_2 C3_2 1_555 1_555
C16_2 C1_2 1_555 1_555
H3_2 C16_2 1_555 1_555
C19_2 C15_2 1_555 1_555
H5_2 C19_2 1_555 1_555
C20_2 H6_2 1_555 1_555
H7_2 C20_2 1_555 1_555
C22_2 C13_2 1_555 1_555
H8_2 C22_2 1_555 1_555
C23_2 C26_2 1_555 1_555
C24_2 H9_2 1_555 1_555
C25_2 C24_2 1_555 1_555
H10_2 C25_2 1_555 1_555
C26_2 C16_2 1_555 1_555
C27_2 C9_2 1_555 1_555
C29_2 C6_2 1_555 1_555
C31_2 C23_2 1_555 1_555
H12_2 C31_2 1_555 1_555
C32_2 C14_2 1_555 1_555
C33_2 H13_2 1_555 1_555
C34_2 C25_2 1_555 1_555
H14_2 C34_2 1_555 1_555
C36_2 C22_2 1_555 1_555
H17_2 C36_2 1_555 1_555
C38_2 C27_2 1_555 1_555
H19_2 C38_2 1_555 1_555
C40_2 H20_2 1_555 1_555
C45_2 C33_2 1_555 1_555
H24_2 C45_2 1_555 1_555
C46_2 C19_2 1_555 1_555
O3_2 Eu1_2 1_555 1_555
O4_2 Ti3_2 1_555 1_555
O5_2 C3_2 1_555 1_555
O6_2 Ti1_2 1_555 1_555
O7_2 Ti1_2 1_555 1_555
O8_2 Eu1_2 1_555 1_555
O9_2 C7_2 1_555 1_555
O10_2 C11_2 1_555 1_555
O11_2 C14_2 1_555 1_555
Ti3_2 O11_2 1_555 1_555
C47_2 C57_2 1_555 1_555
C48_2 H26_2 1_555 1_555
C49_2 C55_2 1_555 1_555
C50_2 C51_2 1_555 1_555
C51_2 C48_2 1_555 1_555
C52_2 C51_2 1_555 1_555
C53_2 C61_2 1_555 1_555
C54_2 C59_2 1_555 1_555
C55_2 C66_2 1_555 1_555
C56_2 H27_2 1_555 1_555
C57_2 O16_2 1_555 1_555
C58_2 C56_2 1_555 1_555
C59_2 C48_2 1_555 1_555
C60_2 C47_2 1_555 1_555
C61_2 C49_2 1_555 1_555
C62_2 C47_2 1_555 1_555
H28_2 C62_2 1_555 1_555
C63_2 H29_2 1_555 1_555
C64_2 C58_2 1_555 1_555
C65_2 C61_2 1_555 1_555
H30_2 C65_2 1_555 1_555
C66_2 H31_2 1_555 1_555
H32_2 C66_2 1_555 1_555
C67_2 O14_2 1_555 1_555
C68_2 C59_2 1_555 1_555
H33_2 C68_2 1_555 1_555
C69_2 C72_2 1_555 1_555
C70_2 H34_2 1_555 1_555
C71_2 C70_2 1_555 1_555
H35_2 C71_2 1_555 1_555
C72_2 C62_2 1_555 1_555
C73_2 C55_2 1_555 1_555
C74_2 C63_2 1_555 1_555
C75_2 C52_2 1_555 1_555
C76_2 C54_2 1_555 1_555
H36_2 C76_2 1_555 1_555
C77_2 C69_2 1_555 1_555
H37_2 C77_2 1_555 1_555
C78_2 C60_2 1_555 1_555
C79_2 H38_2 1_555 1_555
C80_2 C71_2 1_555 1_555
H39_2 C80_2 1_555 1_555
C81_2 C64_2 1_555 1_555
H40_2 C81_2 1_555 1_555
H41_2 C81_2 1_555 1_555
C82_2 C68_2 1_555 1_555
H42_2 C82_2 1_555 1_555
C83_2 C76_2 1_555 1_555
H43_2 C83_2 1_555 1_555
C84_2 C73_2 1_555 1_555
H44_2 C84_2 1_555 1_555
C85_2 C58_2 1_555 1_555
C86_2 H45_2 1_555 1_555
C87_2 H46_2 1_555 1_555
C88_2 C56_2 1_555 1_555
H47_2 C88_2 1_555 1_555
C90_2 C85_2 1_555 1_555
H48_2 C90_2 1_555 1_555
C91_2 C79_2 1_555 1_555
H49_2 C91_2 1_555 1_555
C92_2 C65_2 1_555 1_555
O15_2 C50_2 1_555 1_555
O16_2 Ti4_2 1_555 1_555
O17_2 Ti3_2 1_555 1_555
O18_2 Ti3_2 1_555 1_555
O19_2 Ti3_2 1_555 1_555
O20_2 Ti3_2 1_555 1_555
O21_2 C53_2 1_555 1_555
O22_2 C57_2 1_555 1_555
O23_2 C60_2 1_555 1_555
Ti4_2 O23_2 1_555 1_555
C95_2 C101_2 1_555 1_555
C99_2 C107_2 1_555 1_555
C101_2 C112_2 1_555 1_555
C107_2 C95_2 1_555 1_555
C111_2 C107_2 1_555 1_555
H54_2 C111_2 1_555 1_555
C112_2 H55_2 1_555 1_555
H56_2 C112_2 1_555 1_555
C119_2 C101_2 1_555 1_555
C125_2 H62_2 1_555 1_555
C130_2 C119_2 1_555 1_555
H68_2 C130_2 1_555 1_555
C132_2 H69_2 1_555 1_555
C137_2 C125_2 1_555 1_555
H73_2 C137_2 1_555 1_555
C138_2 C111_2 1_555 1_555
O29_2 Ti4_2 1_555 1_555
O30_2 Ti4_2 1_555 1_555
O33_2 C99_2 1_555 1_555
O35_2 Ti1_2 1_555 1_555
O38_2 Eu1_2 1_555 1_555
O39_2 Eu1_2 1_555 1_555
H75_2 O39_2 1_555 1_555
Eu3 O15_2 1_555 1_555
O40_2 Eu1_2 1_555 1_555
O41_2 Eu1_2 1_555 1_555
O42_2 Eu1_2 1_555 1_555
O43_2 Eu1_2 1_555 1_555
Ti1_2 O8_2 1_555 1_555
C4_2 O3_2 1_555 1_555
C4_2 O8_2 1_555 1_555
C6_2 O7_2 1_555 1_555
C7_2 O6_2 1_555 1_555
C8_2 C29_2 1_555 1_555
C20_2 C32_2 1_555 1_555
C23_2 C32_2 1_555 1_555
C24_2 C31_2 1_555 1_555
C26_2 C34_2 1_555 1_555
C27_2 C46_2 1_555 1_555
C33_2 C38_2 1_555 1_555
C40_2 C45_2 1_555 1_555
C40_2 C46_2 1_555 1_555
C49_2 O17_2 1_555 1_555
C50_2 O20_2 1_555 1_555
C52_2 O19_2 1_555 1_555
C53_2 O18_2 1_555 1_555
C54_2 C75_2 1_555 1_555
C63_2 C85_2 1_555 1_555
C64_2 C67_2 1_555 1_555
C66_2 C78_2 1_555 1_555
C67_2 C74_2 1_555 1_555
C69_2 C78_2 1_555 1_555
C70_2 C77_2 1_555 1_555
C72_2 C80_2 1_555 1_555
C73_2 C92_2 1_555 1_555
C75_2 C81_2 1_555 1_555
C79_2 C84_2 1_555 1_555
C82_2 C83_2 1_555 1_555
C86_2 C91_2 1_555 1_555
C86_2 C92_2 1_555 1_555
C87_2 C88_2 1_555 1_555
C87_2 C90_2 1_555 1_555
O20_2 Eu3 1_555 1_555
C95_2 O29_2 1_555 1_555
C99_2 O30_2 1_555 1_555
C119_2 C138_2 1_555 1_555
C125_2 C130_2 1_555 1_555
C132_2 C137_2 1_555 1_555
C132_2 C138_2 1_555 1_555
O39_2 H77_2 1_555 1_555
Ti2_2 O1_2 1_555 1_555
O1_2 C21_2 1_555 1_555
C10_2 H2_2 1_555 1_555
C12_2 C10_2 1_555 1_555
C17_2 H4_2 1_555 1_555
C18_2 C12_2 1_555 1_555
C21_2 C18_2 1_555 1_555
C28_2 C17_2 1_555 1_555
H11_2 C30_2 1_555 1_555
C35_2 C18_2 1_555 1_555
H15_2 C35_2 1_555 1_555
C37_2 C30_2 1_555 1_555
H18_2 C37_2 1_555 1_555
C39_2 C12_2 1_555 1_555
C41_2 H21_2 1_555 1_555
C42_2 C10_2 1_555 1_555
H22_2 C42_2 1_555 1_555
C43_2 C28_2 1_555 1_555
C44_2 C39_2 1_555 1_555
H23_2 C44_2 1_555 1_555
O12_2 Ti2_2 1_555 1_555
O13_2 C43_2 1_555 1_555
O24_2 Ti2_2 1_555 1_555
O25_2 C89_2 1_555 1_555
C93_2 C103_2 1_555 1_555
C94_2 H50_2 1_555 1_555
C96_2 C97_2 1_555 1_555
O26_2 Ti2_2 1_555 1_555
C97_2 C94_2 1_555 1_555
C98_2 C97_2 1_555 1_555
C100_2 C105_2 1_555 1_555
C102_2 H51_2 1_555 1_555
C103_2 O28_2 1_555 1_555
C104_2 C102_2 1_555 1_555
C105_2 C94_2 1_555 1_555
C106_2 C93_2 1_555 1_555
C108_2 C93_2 1_555 1_555
H52_2 C108_2 1_555 1_555
C109_2 H53_2 1_555 1_555
C110_2 C104_2 1_555 1_555
C113_2 O26_2 1_555 1_555
C114_2 C105_2 1_555 1_555
H57_2 C114_2 1_555 1_555
C115_2 C118_2 1_555 1_555
C116_2 H58_2 1_555 1_555
C117_2 C116_2 1_555 1_555
H59_2 C117_2 1_555 1_555
C118_2 C108_2 1_555 1_555
C120_2 C109_2 1_555 1_555
C121_2 C98_2 1_555 1_555
C122_2 C100_2 1_555 1_555
H60_2 C122_2 1_555 1_555
C123_2 C115_2 1_555 1_555
H61_2 C123_2 1_555 1_555
C124_2 C106_2 1_555 1_555
C126_2 C117_2 1_555 1_555
H63_2 C126_2 1_555 1_555
C127_2 C110_2 1_555 1_555
H64_2 C127_2 1_555 1_555
H65_2 C127_2 1_555 1_555
C128_2 C114_2 1_555 1_555
H66_2 C128_2 1_555 1_555
C129_2 C122_2 1_555 1_555
H67_2 C129_2 1_555 1_555
C131_2 C104_2 1_555 1_555
C133_2 H70_2 1_555 1_555
C134_2 C102_2 1_555 1_555
H71_2 C134_2 1_555 1_555
C135_2 C120_2 1_555 1_555
C136_2 C131_2 1_555 1_555
H72_2 C136_2 1_555 1_555
O27_2 C96_2 1_555 1_555
O34_2 C103_2 1_555 1_555
O36_2 Ti2_2 1_555 1_555
O37_2 C135_2 1_555 1_555
Eu2 O27_2 1_555 1_555
C17_2 C39_2 1_555 1_555
C21_2 C28_2 1_555 1_555
C41_2 C42_2 1_555 1_555
C41_2 C44_2 1_555 1_555
C43_2 O12_2 1_555 1_555
C89_2 O24_2 1_555 1_555
C96_2 O32_2 1_555 1_555
C98_2 O31_2 1_555 1_555
C100_2 C121_2 1_555 1_555
C109_2 C131_2 1_555 1_555
C110_2 C113_2 1_555 1_555
C113_2 C120_2 1_555 1_555
C115_2 C124_2 1_555 1_555
C116_2 C123_2 1_555 1_555
C118_2 C126_2 1_555 1_555
C121_2 C127_2 1_555 1_555
C128_2 C129_2 1_555 1_555
C133_2 C134_2 1_555 1_555
C133_2 C136_2 1_555 1_555
C135_2 O36_2 1_555 1_555
O32_2 Eu2 1_555 1_555
C56_3 H27_3 1_555 1_555
C58_3 C56_3 1_555 1_555
C63_3 H29_3 1_555 1_555
C64_3 C58_3 1_555 1_555
C67_3 O14_3 1_555 1_555
C74_3 C63_3 1_555 1_555
H36_3 C76_3 1_555 1_555
C81_3 C64_3 1_555 1_555
H40_3 C81_3 1_555 1_555
C83_3 C76_3 1_555 1_555
H43_3 C83_3 1_555 1_555
C85_3 C58_3 1_555 1_555
C87_3 H46_3 1_555 1_555
C88_3 C56_3 1_555 1_555
H47_3 C88_3 1_555 1_555
C90_3 C85_3 1_555 1_555
H48_3 C90_3 1_555 1_555
C63_3 C85_3 1_555 1_555
C64_3 C67_3 1_555 1_555
C67_3 C74_3 1_555 1_555
C87_3 C88_3 1_555 1_555
C87_3 C90_3 1_555 1_555
O1_3 C21_3 1_555 1_555
C10_3 H2_3 1_555 1_555
C12_3 C10_3 1_555 1_555
C17_3 H4_3 1_555 1_555
C18_3 C12_3 1_555 1_555
C21_3 C18_3 1_555 1_555
C28_3 C17_3 1_555 1_555
H11_3 C30_3 1_555 1_555
C35_3 C18_3 1_555 1_555
H15_3 C35_3 1_555 1_555
C37_3 C30_3 1_555 1_555
H18_3 C37_3 1_555 1_555
C39_3 C12_3 1_555 1_555
C41_3 H21_3 1_555 1_555
C42_3 C10_3 1_555 1_555
H22_3 C42_3 1_555 1_555
C44_3 C39_3 1_555 1_555
H23_3 C44_3 1_555 1_555
C17_3 C39_3 1_555 1_555
C21_3 C28_3 1_555 1_555
C41_3 C42_3 1_555 1_555
C41_3 C44_3 1_555 1_555
Eu2 O2_3 1_555 1_555
C1_3 C11_3 1_555 1_555
C2_3 H1_3 1_555 1_555
C4_3 C5_3 1_555 1_555
C5_3 C2_3 1_555 1_555
C6_3 C5_3 1_555 1_555
C8_3 C13_3 1_555 1_555
C11_3 O4_3 1_555 1_555
C13_3 C2_3 1_555 1_555
C14_3 C1_3 1_555 1_555
C16_3 C1_3 1_555 1_555
H3_3 C16_3 1_555 1_555
C22_3 C13_3 1_555 1_555
H8_3 C22_3 1_555 1_555
C23_3 C26_3 1_555 1_555
C24_3 H9_3 1_555 1_555
C25_3 C24_3 1_555 1_555
H10_3 C25_3 1_555 1_555
C26_3 C16_3 1_555 1_555
C29_3 C6_3 1_555 1_555
C31_3 C23_3 1_555 1_555
H12_3 C31_3 1_555 1_555
C32_3 C14_3 1_555 1_555
C34_3 C25_3 1_555 1_555
H14_3 C34_3 1_555 1_555
C36_3 C22_3 1_555 1_555
H17_3 C36_3 1_555 1_555
O2_3 H25_3 1_555 1_555
O3_3 Eu2 1_555 1_555
O8_3 Eu2 1_555 1_555
O10_3 C11_3 1_555 1_555
O38_3 Eu2 1_555 1_555
O39_3 Eu2 1_555 1_555
C4_3 O3_3 1_555 1_555
C4_3 O8_3 1_555 1_555
C6_3 O7_3 1_555 1_555
C8_3 C29_3 1_555 1_555
C23_3 C32_3 1_555 1_555
C24_3 C31_3 1_555 1_555
C26_3 C34_3 1_555 1_555
O2_3 H78_3 1_555 1_555
C102_3 H51_3 1_555 1_555
C104_3 C102_3 1_555 1_555
C109_3 H53_3 1_555 1_555
C110_3 C104_3 1_555 1_555
C113_3 O26_3 1_555 1_555
C120_3 C109_3 1_555 1_555
H60_3 C122_3 1_555 1_555
C127_3 C110_3 1_555 1_555
H64_3 C127_3 1_555 1_555
C129_3 C122_3 1_555 1_555
H67_3 C129_3 1_555 1_555
C131_3 C104_3 1_555 1_555
C133_3 H70_3 1_555 1_555
C134_3 C102_3 1_555 1_555
H71_3 C134_3 1_555 1_555
C136_3 C131_3 1_555 1_555
H72_3 C136_3 1_555 1_555
C109_3 C131_3 1_555 1_555
C110_3 C113_3 1_555 1_555
C113_3 C120_3 1_555 1_555
C133_3 C134_3 1_555 1_555
C133_3 C136_3 1_555 1_555
C47_3 C57_3 1_555 1_555
C48_3 H26_3 1_555 1_555
C50_3 C51_3 1_555 1_555
C51_3 C48_3 1_555 1_555
C52_3 C51_3 1_555 1_555
C54_3 C59_3 1_555 1_555
C57_3 O16_3 1_555 1_555
C59_3 C48_3 1_555 1_555
C60_3 C47_3 1_555 1_555
C62_3 C47_3 1_555 1_555
H28_3 C62_3 1_555 1_555
C68_3 C59_3 1_555 1_555
H33_3 C68_3 1_555 1_555
C69_3 C72_3 1_555 1_555
C70_3 H34_3 1_555 1_555
C71_3 C70_3 1_555 1_555
H35_3 C71_3 1_555 1_555
C72_3 C62_3 1_555 1_555
C75_3 C52_3 1_555 1_555
C77_3 C69_3 1_555 1_555
H37_3 C77_3 1_555 1_555
C78_3 C60_3 1_555 1_555
C80_3 C71_3 1_555 1_555
H39_3 C80_3 1_555 1_555
C82_3 C68_3 1_555 1_555
H42_3 C82_3 1_555 1_555
O40 C50_3 1_555 1_555
O22_3 C57_3 1_555 1_555
C50_3 O42 1_555 1_555
C52_3 O19_3 1_555 1_555
C54_3 C75_3 1_555 1_555
C69_3 C78_3 1_555 1_555
C70_3 C77_3 1_555 1_555
C72_3 C80_3 1_555 1_555
C93_3 C103_3 1_555 1_555
C94_3 H50_3 1_555 1_555
C96_3 C97_3 1_555 1_555
C97_3 C94_3 1_555 1_555
C98_3 C97_3 1_555 1_555
C100_3 C105_3 1_555 1_555
C103_3 O28_3 1_555 1_555
C105_3 C94_3 1_555 1_555
C106_3 C93_3 1_555 1_555
C108_3 C93_3 1_555 1_555
H52_3 C108_3 1_555 1_555
C114_3 C105_3 1_555 1_555
H57_3 C114_3 1_555 1_555
C115_3 C118_3 1_555 1_555
C116_3 H58_3 1_555 1_555
C117_3 C116_3 1_555 1_555
H59_3 C117_3 1_555 1_555
C118_3 C108_3 1_555 1_555
C121_3 C98_3 1_555 1_555
C123_3 C115_3 1_555 1_555
H61_3 C123_3 1_555 1_555
C124_3 C106_3 1_555 1_555
C126_3 C117_3 1_555 1_555
H63_3 C126_3 1_555 1_555
C128_3 C114_3 1_555 1_555
H66_3 C128_3 1_555 1_555
O41_2 C96_3 1_555 1_555
O34_3 C103_3 1_555 1_555
C96_3 O43_2 1_555 1_555
C98_3 O31_3 1_555 1_555
C100_3 C121_3 1_555 1_555
C115_3 C124_3 1_555 1_555
C116_3 C123_3 1_555 1_555
C118_3 C126_3 1_555 1_555
Ti1_3 O5_3 1_555 1_555
C3_3 C9_3 1_555 1_555
C7_3 C15_3 1_555 1_555
C9_3 C20_3 1_555 1_555
C15_3 C3_3 1_555 1_555
C19_3 C15_3 1_555 1_555
H5_3 C19_3 1_555 1_555
C20_3 H6_3 1_555 1_555
H7_3 C20_3 1_555 1_555
C27_3 C9_3 1_555 1_555
C33_3 H13_3 1_555 1_555
C38_3 C27_3 1_555 1_555
H19_3 C38_3 1_555 1_555
C40_3 H20_3 1_555 1_555
C45_3 C33_3 1_555 1_555
H24_3 C45_3 1_555 1_555
C46_3 C19_3 1_555 1_555
O5_3 C3_3 1_555 1_555
O6_3 Ti1_3 1_555 1_555
O9_3 C7_3 1_555 1_555
Ti3_3 O11_3 1_555 1_555
C49_3 C55_3 1_555 1_555
C53_3 C61_3 1_555 1_555
C55_3 C66_3 1_555 1_555
C61_3 C49_3 1_555 1_555
C65_3 C61_3 1_555 1_555
H30_3 C65_3 1_555 1_555
C66_3 H31_3 1_555 1_555
H32_3 C66_3 1_555 1_555
C73_3 C55_3 1_555 1_555
C79_3 H38_3 1_555 1_555
C84_3 C73_3 1_555 1_555
H44_3 C84_3 1_555 1_555
C86_3 H45_3 1_555 1_555
C91_3 C79_3 1_555 1_555
H49_3 C91_3 1_555 1_555
C92_3 C65_3 1_555 1_555
O17_3 Ti3_3 1_555 1_555
O18_3 Ti3_3 1_555 1_555
O21_3 C53_3 1_555 1_555
Ti4_3 O23_3 1_555 1_555
C95_3 C101_3 1_555 1_555
C99_3 C107_3 1_555 1_555
C101_3 C112_3 1_555 1_555
C107_3 C95_3 1_555 1_555
C111_3 C107_3 1_555 1_555
H54_3 C111_3 1_555 1_555
C112_3 H55_3 1_555 1_555
H56_3 C112_3 1_555 1_555
C119_3 C101_3 1_555 1_555
C125_3 H62_3 1_555 1_555
C130_3 C119_3 1_555 1_555
H68_3 C130_3 1_555 1_555
C132_3 H69_3 1_555 1_555
C137_3 C125_3 1_555 1_555
H73_3 C137_3 1_555 1_555
C138_3 C111_3 1_555 1_555
O29_3 Ti4_3 1_555 1_555
O30_3 Ti4_3 1_555 1_555
O33_3 C99_3 1_555 1_555
O35_3 Ti1_3 1_555 1_555
C7_3 O6_3 1_555 1_555
C27_3 C46_3 1_555 1_555
C33_3 C38_3 1_555 1_555
C40_3 C45_3 1_555 1_555
C40_3 C46_3 1_555 1_555
C49_3 O17_3 1_555 1_555
C53_3 O18_3 1_555 1_555
C73_3 C92_3 1_555 1_555
C79_3 C84_3 1_555 1_555
C86_3 C91_3 1_555 1_555
C86_3 C92_3 1_555 1_555
C95_3 O29_3 1_555 1_555
C99_3 O30_3 1_555 1_555
C119_3 C138_3 1_555 1_555
C125_3 C130_3 1_555 1_555
C132_3 C137_3 1_555 1_555
C132_3 C138_3 1_555 1_555
Eu3 O2_4 1_555 1_555
Ti1_4 O5_4 1_555 1_555
C1_4 C11_4 1_555 1_555
C2_4 H1_4 1_555 1_555
C3_4 C9_4 1_555 1_555
C4_4 C5_4 1_555 1_555
O1_4 C21_4 1_555 1_555
C5_4 C2_4 1_555 1_555
C6_4 C5_4 1_555 1_555
C7_4 C15_4 1_555 1_555
C8_4 C13_4 1_555 1_555
C9_4 C20_4 1_555 1_555
C10_4 H2_4 1_555 1_555
C11_4 O4_4 1_555 1_555
C12_4 C10_4 1_555 1_555
C13_4 C2_4 1_555 1_555
C14_4 C1_4 1_555 1_555
C15_4 C3_4 1_555 1_555
C16_4 C1_4 1_555 1_555
H3_4 C16_4 1_555 1_555
C17_4 H4_4 1_555 1_555
C18_4 C12_4 1_555 1_555
C19_4 C15_4 1_555 1_555
H5_4 C19_4 1_555 1_555
C20_4 H6_4 1_555 1_555
H7_4 C20_4 1_555 1_555
C21_4 C18_4 1_555 1_555
C22_4 C13_4 1_555 1_555
H8_4 C22_4 1_555 1_555
C23_4 C26_4 1_555 1_555
C24_4 H9_4 1_555 1_555
C25_4 C24_4 1_555 1_555
H10_4 C25_4 1_555 1_555
C26_4 C16_4 1_555 1_555
C27_4 C9_4 1_555 1_555
C28_4 C17_4 1_555 1_555
C29_4 C6_4 1_555 1_555
C30_4 C8_4 1_555 1_555
H11_4 C30_4 1_555 1_555
C31_4 C23_4 1_555 1_555
H12_4 C31_4 1_555 1_555
C32_4 C14_4 1_555 1_555
C33_4 H13_4 1_555 1_555
C34_4 C25_4 1_555 1_555
H14_4 C34_4 1_555 1_555
C35_4 C18_4 1_555 1_555
H15_4 C35_4 1_555 1_555
H16_4 C35_4 1_555 1_555
C36_4 C22_4 1_555 1_555
H17_4 C36_4 1_555 1_555
C37_4 C30_4 1_555 1_555
H18_4 C37_4 1_555 1_555
C38_4 C27_4 1_555 1_555
H19_4 C38_4 1_555 1_555
C39_4 C12_4 1_555 1_555
C40_4 H20_4 1_555 1_555
C41_4 H21_4 1_555 1_555
C42_4 C10_4 1_555 1_555
H22_4 C42_4 1_555 1_555
C44_4 C39_4 1_555 1_555
H23_4 C44_4 1_555 1_555
C45_4 C33_4 1_555 1_555
H24_4 C45_4 1_555 1_555
C46_4 C19_4 1_555 1_555
O2_4 H25_4 1_555 1_555
O3_4 Eu3 1_555 1_555
O4_4 Ti3_4 1_555 1_555
O5_4 C3_4 1_555 1_555
O6_4 Ti1_4 1_555 1_555
O7_4 Ti1_4 1_555 1_555
O8_4 Eu3 1_555 1_555
O9_4 C7_4 1_555 1_555
O10_4 C11_4 1_555 1_555
O11_4 C14_4 1_555 1_555
Ti3_4 O11_4 1_555 1_555
C49_4 C55_4 1_555 1_555
C53_4 C61_4 1_555 1_555
C55_4 C66_4 1_555 1_555
C61_4 C49_4 1_555 1_555
C65_4 C61_4 1_555 1_555
H30_4 C65_4 1_555 1_555
C66_4 H31_4 1_555 1_555
H32_4 C66_4 1_555 1_555
C73_4 C55_4 1_555 1_555
C79_4 H38_4 1_555 1_555
C84_4 C73_4 1_555 1_555
H44_4 C84_4 1_555 1_555
C86_4 H45_4 1_555 1_555
C91_4 C79_4 1_555 1_555
H49_4 C91_4 1_555 1_555
C92_4 C65_4 1_555 1_555
O17_4 Ti3_4 1_555 1_555
O18_4 Ti3_4 1_555 1_555
O21_4 C53_4 1_555 1_555
Ti4_4 O23_4 1_555 1_555
C93_4 C103_4 1_555 1_555
C94_4 H50_4 1_555 1_555
C95_4 C101_4 1_555 1_555
C96_4 C97_4 1_555 1_555
C97_4 C94_4 1_555 1_555
C98_4 C97_4 1_555 1_555
C99_4 C107_4 1_555 1_555
C100_4 C105_4 1_555 1_555
C101_4 C112_4 1_555 1_555
C103_4 O28_4 1_555 1_555
C105_4 C94_4 1_555 1_555
C106_4 C93_4 1_555 1_555
C107_4 C95_4 1_555 1_555
C108_4 C93_4 1_555 1_555
H52_4 C108_4 1_555 1_555
C111_4 C107_4 1_555 1_555
H54_4 C111_4 1_555 1_555
C112_4 H55_4 1_555 1_555
H56_4 C112_4 1_555 1_555
C114_4 C105_4 1_555 1_555
H57_4 C114_4 1_555 1_555
C115_4 C118_4 1_555 1_555
C116_4 H58_4 1_555 1_555
C117_4 C116_4 1_555 1_555
H59_4 C117_4 1_555 1_555
C118_4 C108_4 1_555 1_555
C119_4 C101_4 1_555 1_555
C121_4 C98_4 1_555 1_555
C123_4 C115_4 1_555 1_555
H61_4 C123_4 1_555 1_555
C124_4 C106_4 1_555 1_555
C125_4 H62_4 1_555 1_555
C126_4 C117_4 1_555 1_555
H63_4 C126_4 1_555 1_555
C128_4 C114_4 1_555 1_555
H66_4 C128_4 1_555 1_555
C130_4 C119_4 1_555 1_555
H68_4 C130_4 1_555 1_555
C132_4 H69_4 1_555 1_555
C137_4 C125_4 1_555 1_555
H73_4 C137_4 1_555 1_555
C138_4 C111_4 1_555 1_555
O41 C96_4 1_555 1_555
O28_4 Ti1_4 1_555 1_555
O29_4 Ti4_4 1_555 1_555
O30_4 Ti4_4 1_555 1_555
O31_4 Ti4_4 1_555 1_555
O43 Ti4_4 1_555 1_555
O33_4 C99_4 1_555 1_555
O34_4 C103_4 1_555 1_555
O35_4 Ti1_4 1_555 1_555
O38_4 Eu3 1_555 1_555
H74_4 O38_4 1_555 1_555
O39_4 Eu3 1_555 1_555
H75_4 O39_4 1_555 1_555
Ti1_4 O8_4 1_555 1_555
C4_4 O3_4 1_555 1_555
C4_4 O8_4 1_555 1_555
C6_4 O7_4 1_555 1_555
C7_4 O6_4 1_555 1_555
C8_4 C29_4 1_555 1_555
C17_4 C39_4 1_555 1_555
C20_4 C32_4 1_555 1_555
C21_4 C28_4 1_555 1_555
C23_4 C32_4 1_555 1_555
C24_4 C31_4 1_555 1_555
C26_4 C34_4 1_555 1_555
C27_4 C46_4 1_555 1_555
C29_4 C35_4 1_555 1_555
C33_4 C38_4 1_555 1_555
C36_4 C37_4 1_555 1_555
C40_4 C45_4 1_555 1_555
C40_4 C46_4 1_555 1_555
C41_4 C42_4 1_555 1_555
C41_4 C44_4 1_555 1_555
C49_4 O17_4 1_555 1_555
C53_4 O18_4 1_555 1_555
C73_4 C92_4 1_555 1_555
C79_4 C84_4 1_555 1_555
C86_4 C91_4 1_555 1_555
C86_4 C92_4 1_555 1_555
C95_4 O29_4 1_555 1_555
C96_4 O43 1_555 1_555
C98_4 O31_4 1_555 1_555
C99_4 O30_4 1_555 1_555
C100_4 C121_4 1_555 1_555
C106_4 O35_4 1_555 1_555
C112_4 C124_4 1_555 1_555
C115_4 C124_4 1_555 1_555
C116_4 C123_4 1_555 1_555
C118_4 C126_4 1_555 1_555
C119_4 C138_4 1_555 1_555
C125_4 C130_4 1_555 1_555
C132_4 C137_4 1_555 1_555
C132_4 C138_4 1_555 1_555
O38_4 H76_4 1_555 1_555
O39_4 H77_4 1_555 1_555
O2_4 H78_4 1_555 1_555
O12_3 Ti2_3 1_555 1_555
O13_3 C43_3 1_555 1_555
C47_4 C57_4 1_555 1_555
C48_4 H26_4 1_555 1_555
C50_4 C51_4 1_555 1_555
O14_4 Ti2_3 1_555 1_555
C51_4 C48_4 1_555 1_555
C52_4 C51_4 1_555 1_555
C54_4 C59_4 1_555 1_555
C56_4 H27_4 1_555 1_555
C57_4 O16_4 1_555 1_555
C58_4 C56_4 1_555 1_555
C59_4 C48_4 1_555 1_555
C60_4 C47_4 1_555 1_555
C62_4 C47_4 1_555 1_555
H28_4 C62_4 1_555 1_555
C63_4 H29_4 1_555 1_555
C64_4 C58_4 1_555 1_555
C67_4 O14_4 1_555 1_555
C68_4 C59_4 1_555 1_555
H33_4 C68_4 1_555 1_555
C69_4 C72_4 1_555 1_555
C70_4 H34_4 1_555 1_555
C71_4 C70_4 1_555 1_555
H35_4 C71_4 1_555 1_555
C72_4 C62_4 1_555 1_555
C74_4 C63_4 1_555 1_555
C75_4 C52_4 1_555 1_555
C76_4 C54_4 1_555 1_555
H36_4 C76_4 1_555 1_555
C77_4 C69_4 1_555 1_555
H37_4 C77_4 1_555 1_555
C78_4 C60_4 1_555 1_555
C80_4 C71_4 1_555 1_555
H39_4 C80_4 1_555 1_555
C81_4 C64_4 1_555 1_555
H40_4 C81_4 1_555 1_555
H41_4 C81_4 1_555 1_555
C82_4 C68_4 1_555 1_555
H42_4 C82_4 1_555 1_555
C83_4 C76_4 1_555 1_555
H43_4 C83_4 1_555 1_555
C85_4 C58_4 1_555 1_555
C87_4 H46_4 1_555 1_555
C88_4 C56_4 1_555 1_555
H47_4 C88_4 1_555 1_555
C89_3 C74_4 1_555 1_555
C90_4 C85_4 1_555 1_555
H48_4 C90_4 1_555 1_555
O40_2 C50_4 1_555 1_555
O22_4 C57_4 1_555 1_555
O24_3 Ti2_3 1_555 1_555
O25_3 C89_3 1_555 1_555
O26_4 Ti2_3 1_555 1_555
C102_4 H51_4 1_555 1_555
C104_4 C102_4 1_555 1_555
C109_4 H53_4 1_555 1_555
C110_4 C104_4 1_555 1_555
C113_4 O26_4 1_555 1_555
C120_4 C109_4 1_555 1_555
H60_4 C122_4 1_555 1_555
C127_4 C110_4 1_555 1_555
H64_4 C127_4 1_555 1_555
C129_4 C122_4 1_555 1_555
H67_4 C129_4 1_555 1_555
C131_4 C104_4 1_555 1_555
C133_4 H70_4 1_555 1_555
C134_4 C102_4 1_555 1_555
H71_4 C134_4 1_555 1_555
C135_3 C120_4 1_555 1_555
C136_4 C131_4 1_555 1_555
H72_4 C136_4 1_555 1_555
O36_3 Ti2_3 1_555 1_555
O37_3 C135_3 1_555 1_555
C43_3 O12_3 1_555 1_555
C50_4 O42_2 1_555 1_555
C52_4 O19_4 1_555 1_555
C54_4 C75_4 1_555 1_555
C63_4 C85_4 1_555 1_555
C64_4 C67_4 1_555 1_555
C67_4 C74_4 1_555 1_555
C69_4 C78_4 1_555 1_555
C70_4 C77_4 1_555 1_555
C72_4 C80_4 1_555 1_555
C75_4 C81_4 1_555 1_555
C82_4 C83_4 1_555 1_555
C87_4 C88_4 1_555 1_555
C87_4 C90_4 1_555 1_555
C89_3 O24_3 1_555 1_555
C109_4 C131_4 1_555 1_555
C110_4 C113_4 1_555 1_555
C113_4 C120_4 1_555 1_555
C133_4 C134_4 1_555 1_555
C133_4 C136_4 1_555 1_555
C135_3 O36_3 1_555 1_555
O12_4 Ti2_4 1_555 1_555
O13_4 C43_4 1_555 1_555
O24_4 Ti2_4 1_555 1_555
O25_4 C89_4 1_555 1_555
O36_4 Ti2_4 1_555 1_555
O37_4 C135_4 1_555 1_555
C43_4 O12_4 1_555 1_555
C89_4 O24_4 1_555 1_555
C135_4 O36_4 1_555 1_555

#END
