
###############################################################################
#
# This file contains modified crystal structure data generated from the
# MOF subset of the Cambridge Structural Database (CSD) v543 
# hosted by the Cambridge Crystallographic Data Centre (CCDC).
#
# This work is licensed under the Creative Commons
# Attribution-NonCommercial-ShareAlike 4.0 International License.
# To view a copy of this license, visit
# http://creativecommons.org/licenses/by-nc-sa/4.0/
# or send a letter to
# Creative Commons, PO Box 1866, Mountain View, CA 94042, USA.
#
# CIF created using the CSD Python API on 29 September 2022
# The structure has been converted into the P1 space group
# The structure has a 3D framework
# The original CSD entry XEJJIG is in the triclinic crystal system
# The framework has been calculated to contain at least 10.0% void space
# The void calculation uses a probe of radius 1.32A, grid spacing 0.4
# H atom positions have been added when not included in the experimental data
#
###############################################################################

data_XEJJIG
_chemical_formula_moiety         '(C24 H22 Gd2 O14)n'
_symmetry_cell_setting           triclinic
_symmetry_space_group_name_H-M   'P 1'
_symmetry_Int_Tables_number      1
_space_group_name_Hall           'P 1'
loop_
_symmetry_equiv_pos_site_id
_symmetry_equiv_pos_as_xyz
1 x,y,z
_cell_length_a                   7.707(4)
_cell_length_b                   9.686(4)
_cell_length_c                   10.570(4)
_cell_angle_alpha                106.650(11)
_cell_angle_beta                 105.252(14)
_cell_angle_gamma                100.689(13)
_cell_volume                     699.696
loop_
_atom_site_label
_atom_site_type_symbol
_atom_site_fract_x
_atom_site_fract_y
_atom_site_fract_z
Gd5 Gd 0.24673(4) 0.03183(3) 0.45083(3)
O4 O 0.0419(4) 0.8287(4) 0.2274(3)
O3 O 0.9333(4) 0.8606(3) 0.4033(3)
C3 C 0.6863(6) 0.6499(5) 0.0301(5)
H2 H 0.5347 0.8022 0.0496
C9 C 0.7425(7) 0.6651(6) 0.1817(5)
H6 H 0.6373 0.6806 0.2160
H7 H 0.7647 0.5700 0.1896
C10 C 0.9133(7) 0.7907(5) 0.2735(5)
Gd6 Gd 0.75327(4) 0.96817(3) 0.54917(3)
O1 O 0.5967(4) 0.1570(3) 0.5842(3)
O2 O 0.4119(4) 0.2988(3) 0.5557(3)
O5 O 0.6056(4) 0.9333(3) 0.7110(3)
O6 O 0.3146(4) 0.9597(4) 0.6572(3)
O7 O 0.0356(4) 0.1426(3) 0.3213(3)
C1 C 0.6900(6) 0.5411(5) 0.7936(5)
C2 C 0.7401(6) 0.5522(5) 0.9339(5)
H1 H 0.8129 0.4912 0.9641
C4 C 0.5748(6) 0.7367(5) 0.9848(5)
C5 C 0.5222(6) 0.7280(5) 0.8458(5)
C6 C 0.5820(6) 0.6295(5) 0.7505(5)
H3 H 0.5478 0.6238 0.6556
C7 C 0.7375(7) 0.4275(5) 0.6888(5)
H4 H 0.8453 0.3989 0.7383
H5 H 0.7754 0.4728 0.6239
C8 C 0.5729(7) 0.2873(6) 0.6048(5)
C11 C 0.3859(7) 0.8099(5) 0.7956(5)
H8 H 0.3649 0.8748 0.8781
H9 H 0.2646 0.7347 0.7350
C12 C 0.4444(6) 0.9075(5) 0.7140(5)
O10 O 0.0667(4) 0.1394(3) 0.5967(3)
O12 O 0.3944(4) 0.0667(3) 0.2890(3)
H10 H 0.0802721 0.161517 0.246196
O8 O 0.4033(4) 0.8430(3) 0.4158(3)
O11 O 0.9581(4) 0.1713(4) 0.7726(3)
O13 O 0.6854(4) 0.0403(4) 0.3428(3)
O2_2 O 0.5881(4) 0.7012(3) 0.4443(3)
O7_2 O 0.9644(4) 0.8574(3) 0.6787(3)
C1_2 C 0.3100(6) 0.4589(5) 0.2064(5)
C2_2 C 0.2599(6) 0.4478(5) 0.0661(5)
H1_2 H 0.1871 0.5088 0.0359
C4_2 C 0.4252(6) 0.2633(5) 0.0152(5)
C5_2 C 0.4778(6) 0.2720(5) 0.1542(5)
C6_2 C 0.4180(6) 0.3705(5) 0.2495(5)
H3_2 H 0.4522 0.3762 0.3444
C7_2 C 0.2625(7) 0.5725(5) 0.3112(5)
H4_2 H 0.1547 0.6011 0.2617
H5_2 H 0.2246 0.5272 0.3761
C8_2 C 0.4271(7) 0.7127(6) 0.3952(5)
C11_2 C 0.6141(7) 0.1901(5) 0.2044(5)
H8_2 H 0.6351 0.1252 0.1219
H9_2 H 0.7354 0.2653 0.2650
C12_2 C 0.5556(6) 0.0925(5) 0.2860(5)
H10_2 H 0.919728 0.838483 0.753804
C3_2 C 0.3137(6) 0.3501(5) 0.9699(5)
H2_2 H 0.4653 0.1978 0.9504
C9_2 C 0.2575(7) 0.3349(6) 0.8183(5)
H6_2 H 0.3627 0.3194 0.7840
H7_2 H 0.2353 0.4300 0.8104
C10_2 C 0.0867(7) 0.2093(5) 0.7265(5)
H11 H 0.907142 0.0723291 0.278754
H11_2 H 0.0928585 0.927671 0.721246
loop_
_geom_bond_atom_site_label_1
_geom_bond_atom_site_label_2
_geom_bond_site_symmetry_1
_geom_bond_site_symmetry_2
O3 C10 1_555 1_555
C9 C3 1_555 1_555
H6 C9 1_555 1_555
H7 C9 1_555 1_555
C10 C9 1_555 1_555
Gd6 O3 1_555 1_555
Gd5 O1 1_555 1_555
O1 C8 1_555 1_555
O2 Gd5 1_555 1_555
O5 C12 1_555 1_555
O6 C12 1_555 1_555
O7 Gd5 1_555 1_555
C1 C2 1_555 1_555
C2 H1 1_555 1_555
C5 C4 1_555 1_555
C6 C1 1_555 1_555
H3 C6 1_555 1_555
C7 C1 1_555 1_555
H4 C7 1_555 1_555
H5 C7 1_555 1_555
C8 O2 1_555 1_555
C11 C5 1_555 1_555
H8 C11 1_555 1_555
H9 C11 1_555 1_555
C12 C11 1_555 1_555
Gd6 O5 1_555 1_555
O10 Gd5 1_555 1_555
O12 Gd5 1_555 1_555
C5 C6 1_555 1_555
C7 C8 1_555 1_555
O7 H10 1_555 1_555
Gd6 O8 1_555 1_555
O8 C8_2 1_555 1_555
O2_2 Gd6 1_555 1_555
O12 C12_2 1_555 1_555
O13 C12_2 1_555 1_555
O7_2 Gd6 1_555 1_555
C1_2 C2_2 1_555 1_555
C2_2 H1_2 1_555 1_555
C5_2 C4_2 1_555 1_555
C6_2 C1_2 1_555 1_555
H3_2 C6_2 1_555 1_555
C7_2 C1_2 1_555 1_555
H4_2 C7_2 1_555 1_555
H5_2 C7_2 1_555 1_555
C8_2 O2_2 1_555 1_555
C11_2 C5_2 1_555 1_555
H8_2 C11_2 1_555 1_555
H9_2 C11_2 1_555 1_555
C12_2 C11_2 1_555 1_555
C5_2 C6_2 1_555 1_555
C7_2 C8_2 1_555 1_555
O7_2 H10_2 1_555 1_555
O10 C10_2 1_555 1_555
C9_2 C3_2 1_555 1_555
H6_2 C9_2 1_555 1_555
H7_2 C9_2 1_555 1_555
C10_2 C9_2 1_555 1_555

#END
