
###############################################################################
#
# This file contains modified crystal structure data generated from the
# MOF subset of the Cambridge Structural Database (CSD) v543 
# hosted by the Cambridge Crystallographic Data Centre (CCDC).
#
# This work is licensed under the Creative Commons
# Attribution-NonCommercial-ShareAlike 4.0 International License.
# To view a copy of this license, visit
# http://creativecommons.org/licenses/by-nc-sa/4.0/
# or send a letter to
# Creative Commons, PO Box 1866, Mountain View, CA 94042, USA.
#
# CIF created using the CSD Python API on 29 September 2022
# The structure has been converted into the P1 space group
# The structure has a 3D framework
# The original CSD entry XEJJII is in the orthorhombic crystal system
# The framework has been calculated to contain at least 10.0% void space
# The void calculation uses a probe of radius 1.32A, grid spacing 0.4
#
###############################################################################

data_XEJJII
_chemical_formula_moiety         '(C160 H96 N16 O40 Se8 Zn7)n'
_symmetry_cell_setting           triclinic
_symmetry_space_group_name_H-M   'P 1'
_symmetry_Int_Tables_number      1
_space_group_name_Hall           'P 1'
loop_
_symmetry_equiv_pos_site_id
_symmetry_equiv_pos_as_xyz
1 x,y,z
_cell_length_a                   17.124(3)
_cell_length_b                   30.169(6)
_cell_length_c                   14.903(3)
_cell_angle_alpha                90
_cell_angle_beta                 90
_cell_angle_gamma                90
_cell_volume                     7699.1
loop_
_atom_site_label
_atom_site_type_symbol
_atom_site_fract_x
_atom_site_fract_y
_atom_site_fract_z
Zn1 Zn 0.45154(3) 0.50035(2) 0.62793(4)
Se1 Se 0.46335(5) 0.7500 0.61475(7)
Se2 Se 0.43727(7) 0.2500 0.63538(8)
O1 O 0.72707(19) 0.50950(12) 0.6712(2)
O2 O 0.8224(2) 0.50213(12) 0.8170(3)
O3 O 0.5701(2) 0.50495(12) 0.6459(3)
O4 O 0.5849(2) 0.51606(12) 0.4989(3)
O5 O 0.9277(2) 0.51271(13) 0.7332(3)
N1 N 0.4397(2) 0.56893(14) 0.5979(3)
C1 C 0.6104(3) 0.51137(14) 0.5769(4)
N2 N 0.4568(3) 0.43127(16) 0.6529(4)
C2 C 0.6963(3) 0.51360(17) 0.5883(4)
C3 C 0.4231(3) 0.66020(16) 0.5625(4)
C4 C 0.4134(4) 0.70743(18) 0.5443(4)
C5 C 0.4887(4) 0.59868(18) 0.6331(4)
H1 H 0.5294 0.5885 0.6712
C6 C 0.8056(3) 0.51408(19) 0.6617(4)
C7 C 0.7533(3) 0.5196(2) 0.5266(4)
H2 H 0.7466 0.5230 0.4637
C8 C 0.8535(3) 0.50918(19) 0.7439(4)
C9 C 0.3821(5) 0.5847(2) 0.5472(6)
H3 H 0.3463 0.5640 0.5223
C10 C 0.8248(3) 0.5200(2) 0.5743(4)
H4 H 0.8757 0.5235 0.5501
C11 C 0.3686(4) 0.72679(18) 0.4796(5)
H5 H 0.3394 0.7099 0.4374
C12 C 0.4826(4) 0.6436(2) 0.6164(4)
H6 H 0.5196 0.6634 0.6420
C13 C 0.3708(6) 0.6287(2) 0.5283(6)
H7 H 0.3279 0.6378 0.4924
C14 C 0.4336(4) 0.3559(2) 0.6170(5)
H8 H 0.4096 0.3355 0.5769
C15 C 0.4270(4) 0.40036(19) 0.5993(5)
H9 H 0.4002 0.4094 0.5466
C16 C 0.4717(5) 0.3399(2) 0.6874(6)
C17 C 0.4817(6) 0.2928(2) 0.7038(7)
C18 C 0.4976(6) 0.4166(2) 0.7202(6)
H10 H 0.5228 0.4376 0.7580
C19 C 0.5339(6) 0.2724(3) 0.7672(7)
H11 H 0.5661 0.2892 0.8063
C20 C 0.5061(5) 0.3718(2) 0.7395(7)
H12 H 0.5364 0.3631 0.7900
N3 N 0.4397(2) 0.93107(14) 0.5979(3)
C21 C 0.4231(3) 0.83980(16) 0.5625(4)
C22 C 0.4134(4) 0.79257(18) 0.5443(4)
C23 C 0.4887(4) 0.90132(18) 0.6331(4)
H13 H 0.5294 0.9115 0.6712
C24 C 0.3821(5) 0.9153(2) 0.5472(6)
H14 H 0.3463 0.9360 0.5223
C25 C 0.3686(4) 0.77321(18) 0.4796(5)
H15 H 0.3394 0.7901 0.4374
C26 C 0.4826(4) 0.8564(2) 0.6164(4)
H16 H 0.5196 0.8366 0.6420
C27 C 0.3708(6) 0.8713(2) 0.5283(6)
H17 H 0.3279 0.8622 0.4924
N4 N 0.4568(3) 0.06873(16) 0.6529(4)
C28 C 0.4336(4) 0.1441(2) 0.6170(5)
H18 H 0.4096 0.1645 0.5769
C29 C 0.4270(4) 0.09964(19) 0.5993(5)
H19 H 0.4002 0.0906 0.5466
C30 C 0.4717(5) 0.1601(2) 0.6874(6)
C31 C 0.4817(6) 0.2072(2) 0.7038(7)
C32 C 0.4976(6) 0.0834(2) 0.7202(6)
H20 H 0.5228 0.0624 0.7580
C33 C 0.5339(6) 0.2276(3) 0.7672(7)
H21 H 0.5661 0.2108 0.8063
C34 C 0.5061(5) 0.1282(2) 0.7395(7)
H22 H 0.5364 0.1369 0.7900
Zn2 Zn 0.54846(3) 0.49965(2) 0.37207(4)
O6 O 0.27293(19) 0.49050(12) 0.3288(2)
O7 O 0.1776(2) 0.49787(12) 0.1830(3)
O8 O 0.4299(2) 0.49505(12) 0.3541(3)
O9 O 0.4151(2) 0.48394(12) 0.5011(3)
O10 O 0.0723(2) 0.48729(13) 0.2668(3)
C35 C 0.3896(3) 0.48863(14) 0.4231(4)
C36 C 0.3037(3) 0.48640(17) 0.4117(4)
C37 C 0.1944(3) 0.48592(19) 0.3383(4)
C38 C 0.2467(3) 0.4804(2) 0.4734(4)
H23 H 0.2534 0.4770 0.5363
C39 C 0.1465(3) 0.49082(19) 0.2561(4)
C40 C 0.1752(3) 0.4800(2) 0.4257(4)
H24 H 0.1243 0.4765 0.4499
Zn3 Zn 0.04846(3) 0.49965(2) 0.12793(4)
Zn4 Zn 0.95154(3) 0.50035(2) 0.87207(4)
Zn6 Zn 0.45154(3) 0.99965(2) 0.62793(4)
O11 O 0.6776(2) 0.49787(12) 0.3170(3)
O12 O 0.3224(2) 0.50213(12) 0.6830(3)
O13 O 0.5723(2) 0.48729(13) 0.2332(3)
O14 O 0.4277(2) 0.51271(13) 0.7668(3)
N5 N 0.5603(2) 0.43107(14) 0.4021(3)
N6 N 0.5432(3) 0.56873(16) 0.3471(4)
Zn5 Zn 0.04846(3) 0.00035(2) 0.12793(4)
Se1_2 Se 0.03665(5) 0.2500 0.11475(7)
Se2_2 Se 0.06273(7) 0.7500 0.13538(8)
N1_2 N 0.0603(2) 0.43107(14) 0.0979(3)
N2_2 N 0.0432(3) 0.56873(16) 0.1529(4)
C3_2 C 0.0769(3) 0.33980(16) 0.0625(4)
C4_2 C 0.0866(4) 0.29257(18) 0.0443(4)
C5_2 C 0.0113(4) 0.40132(18) 0.1331(4)
C9_2 C 0.1179(5) 0.4153(2) 0.0472(6)
H3_2 H 0.1537 0.4360 0.0223
C12_2 C 0.0174(4) 0.3564(2) 0.1164(4)
C13_2 C 0.1292(6) 0.3713(2) 0.0283(6)
C14_2 C 0.0664(4) 0.6441(2) 0.1170(5)
H8_2 H 0.0904 0.6645 0.0769
C15_2 C 0.0730(4) 0.59964(19) 0.0993(5)
H9_2 H 0.0998 0.5906 0.0466
C16_2 C 0.0283(5) 0.6601(2) 0.1874(6)
C17_2 C 0.0183(6) 0.7072(2) 0.2038(7)
C18_2 C 0.0024(6) 0.5834(2) 0.2202(6)
N3_2 N 0.0603(2) 0.06893(14) 0.0979(3)
C21_2 C 0.0769(3) 0.16020(16) 0.0625(4)
C22_2 C 0.0866(4) 0.20743(18) 0.0443(4)
C23_2 C 0.0113(4) 0.09868(18) 0.1331(4)
C24_2 C 0.1179(5) 0.0847(2) 0.0472(6)
H14_2 H 0.1537 0.0640 0.0223
C26_2 C 0.0174(4) 0.1436(2) 0.1164(4)
C27_2 C 0.1292(6) 0.1287(2) 0.0283(6)
N4_2 N 0.0432(3) 0.93127(16) 0.1529(4)
C28_2 C 0.0664(4) 0.8559(2) 0.1170(5)
H18_2 H 0.0904 0.8355 0.0769
C29_2 C 0.0730(4) 0.90036(19) 0.0993(5)
H19_2 H 0.0998 0.9094 0.0466
C30_2 C 0.0283(5) 0.8399(2) 0.1874(6)
C31_2 C 0.0183(6) 0.7928(2) 0.2038(7)
C32_2 C 0.0024(6) 0.9166(2) 0.2202(6)
O9_2 O 0.0849(2) 0.51606(12) 0.0011(3)
H23_2 H 0.2466 0.5230 0.0363
C11_2 C 0.1314(4) 0.27321(18) 0.9796(5)
H5_2 H 0.1606 0.2901 0.9374
H7_2 H 0.1721 0.3622 0.9924
C25_2 C 0.1314(4) 0.22679(18) 0.9796(5)
H15_2 H 0.1606 0.2099 0.9374
H17_2 H 0.1721 0.1378 0.9924
O6_2 O 0.22707(19) 0.50950(12) 0.8288(2)
O8_2 O 0.0701(2) 0.50495(12) 0.8541(3)
C35_2 C 0.1104(3) 0.51137(14) 0.9231(4)
C36_2 C 0.1963(3) 0.51360(17) 0.9117(4)
C37_2 C 0.3056(3) 0.51408(19) 0.8383(4)
C38_2 C 0.2533(3) 0.5196(2) 0.9734(4)
C39_2 C 0.3535(3) 0.50918(19) 0.7561(4)
C40_2 C 0.3248(3) 0.5200(2) 0.9257(4)
H24_2 H 0.3757 0.5235 0.9499
O1_2 O 0.77293(19) 0.49050(12) 0.1712(2)
O3_2 O 0.9299(2) 0.49505(12) 0.1459(3)
C1_2 C 0.8896(3) 0.48863(14) 0.0769(4)
C2_2 C 0.8037(3) 0.48640(17) 0.0883(4)
H1_2 H 0.9706 0.4115 0.1712
C6_2 C 0.6944(3) 0.48592(19) 0.1617(4)
C7_2 C 0.7467(3) 0.4804(2) 0.0266(4)
C8_2 C 0.6465(3) 0.49082(19) 0.2439(4)
C10_2 C 0.6752(3) 0.4800(2) 0.0743(4)
H4_2 H 0.6243 0.4765 0.0501
H6_2 H 0.9804 0.3366 0.1420
H10_2 H 0.9772 0.5624 0.2580
C19_2 C 0.9661(6) 0.7276(3) 0.2672(7)
H11_2 H 0.9339 0.7108 0.3063
C20_2 C 0.9939(5) 0.6282(2) 0.2395(7)
H12_2 H 0.9636 0.6369 0.2900
H13_2 H 0.9706 0.0885 0.1712
H16_2 H 0.9804 0.1634 0.1420
H20_2 H 0.9772 0.9376 0.2580
C33_2 C 0.9661(6) 0.7724(3) 0.2672(7)
H21_2 H 0.9339 0.7892 0.3063
C34_2 C 0.9939(5) 0.8718(2) 0.2395(7)
H22_2 H 0.9636 0.8631 0.2900
O4_2 O 0.9151(2) 0.48394(12) 0.9989(3)
H2_2 H 0.7534 0.4770 0.9637
N5_2 N 0.9397(2) 0.56893(14) 0.9021(3)
N6_2 N 0.9568(3) 0.43127(16) 0.8471(4)
Zn1_2 Zn 0.54846(3) 0.00035(2) 0.37207(4)
Se1_3 Se 0.53665(5) 0.2500 0.38525(7)
O1_3 O 0.27293(19) 0.00950(12) 0.3288(2)
O2_2 O 0.1776(2) 0.00213(12) 0.1830(3)
O3_3 O 0.4299(2) 0.00495(12) 0.3541(3)
O4_3 O 0.4151(2) 0.01606(12) 0.5011(3)
O5_2 O 0.0723(2) 0.01271(13) 0.2668(3)
N1_3 N 0.5603(2) 0.06893(14) 0.4021(3)
C1_3 C 0.3896(3) 0.01137(14) 0.4231(4)
C2_3 C 0.3037(3) 0.01360(17) 0.4117(4)
C3_3 C 0.5769(3) 0.16020(16) 0.4375(4)
C4_3 C 0.5866(4) 0.20743(18) 0.4557(4)
C5_3 C 0.5113(4) 0.09868(18) 0.3669(4)
H1_3 H 0.4706 0.0885 0.3288
C6_3 C 0.1944(3) 0.01408(19) 0.3383(4)
C7_3 C 0.2467(3) 0.0196(2) 0.4734(4)
H2_3 H 0.2534 0.0230 0.5363
C8_3 C 0.1465(3) 0.00918(19) 0.2561(4)
C9_3 C 0.6179(5) 0.0847(2) 0.4528(6)
H3_3 H 0.6537 0.0640 0.4777
C10_3 C 0.1752(3) 0.0200(2) 0.4257(4)
H4_3 H 0.1243 0.0235 0.4499
C11_3 C 0.6314(4) 0.22679(18) 0.5204(5)
H5_3 H 0.6606 0.2099 0.5626
C12_3 C 0.5174(4) 0.1436(2) 0.3836(4)
H6_3 H 0.4804 0.1634 0.3580
C13_3 C 0.6292(6) 0.1287(2) 0.4717(6)
H7_3 H 0.6721 0.1378 0.5076
C21_3 C 0.5769(3) 0.33980(16) 0.4375(4)
C22_3 C 0.5866(4) 0.29257(18) 0.4557(4)
C23_3 C 0.5113(4) 0.40132(18) 0.3669(4)
H13_3 H 0.4706 0.4115 0.3288
C24_3 C 0.6179(5) 0.4153(2) 0.4528(6)
H14_3 H 0.6537 0.4360 0.4777
C25_3 C 0.6314(4) 0.27321(18) 0.5204(5)
H15_3 H 0.6606 0.2901 0.5626
C26_3 C 0.5174(4) 0.3564(2) 0.3836(4)
H16_3 H 0.4804 0.3366 0.3580
C27_3 C 0.6292(6) 0.3713(2) 0.4717(6)
H17_3 H 0.6721 0.3622 0.5076
O12_2 O 0.6776(2) 0.00213(12) 0.3170(3)
O14_2 O 0.5723(2) 0.01271(13) 0.2332(3)
Se2_3 Se 0.56273(7) 0.7500 0.36462(8)
N2_3 N 0.5432(3) 0.93127(16) 0.3471(4)
C14_3 C 0.5664(4) 0.8559(2) 0.3830(5)
H8_3 H 0.5904 0.8355 0.4231
C15_3 C 0.5730(4) 0.90036(19) 0.4007(5)
H9_3 H 0.5998 0.9094 0.4534
C16_3 C 0.5283(5) 0.8399(2) 0.3126(6)
C17_3 C 0.5183(6) 0.7928(2) 0.2962(7)
C18_3 C 0.5024(6) 0.9166(2) 0.2798(6)
H10_3 H 0.4772 0.9376 0.2420
C19_3 C 0.4661(6) 0.7724(3) 0.2328(7)
H11_3 H 0.4339 0.7892 0.1937
C20_3 C 0.4939(5) 0.8718(2) 0.2605(7)
H12_3 H 0.4636 0.8631 0.2100
C28_3 C 0.5664(4) 0.6441(2) 0.3830(5)
H18_3 H 0.5904 0.6645 0.4231
C29_3 C 0.5730(4) 0.59964(19) 0.4007(5)
H19_3 H 0.5998 0.5906 0.4534
C30_3 C 0.5283(5) 0.6601(2) 0.3126(6)
C31_3 C 0.5183(6) 0.7072(2) 0.2962(7)
C32_3 C 0.5024(6) 0.5834(2) 0.2798(6)
H20_3 H 0.4772 0.5624 0.2420
C33_3 C 0.4661(6) 0.7276(3) 0.2328(7)
H21_3 H 0.4339 0.7108 0.1937
C34_3 C 0.4939(5) 0.6282(2) 0.2605(7)
H22_3 H 0.4636 0.6369 0.2100
O6_3 O 0.72707(19) 0.99050(12) 0.6712(2)
O7_2 O 0.8224(2) 0.99787(12) 0.8170(3)
O8_3 O 0.5701(2) 0.99505(12) 0.6459(3)
O9_3 O 0.5849(2) 0.98394(12) 0.4989(3)
O10_2 O 0.9277(2) 0.98729(13) 0.7332(3)
C35_3 C 0.6104(3) 0.98863(14) 0.5769(4)
C36_3 C 0.6963(3) 0.98640(17) 0.5883(4)
C37_3 C 0.8056(3) 0.98592(19) 0.6617(4)
C38_3 C 0.7533(3) 0.9804(2) 0.5266(4)
H23_3 H 0.7466 0.9770 0.4637
C39_3 C 0.8535(3) 0.99082(19) 0.7439(4)
C40_3 C 0.8248(3) 0.9800(2) 0.5743(4)
H24_3 H 0.8757 0.9765 0.5501
Zn3_2 Zn 0.95154(3) 0.99965(2) 0.87207(4)
O11_2 O 0.3224(2) 0.99787(12) 0.6830(3)
O13_2 O 0.4277(2) 0.98729(13) 0.7668(3)
H10_4 H 0.0228 0.0624 0.7420
C19_4 C 0.0339(6) 0.2276(3) 0.7328(7)
H11_4 H 0.0661 0.2108 0.6937
C20_4 C 0.0061(5) 0.1282(2) 0.7605(7)
H12_4 H 0.0364 0.1369 0.7100
H20_4 H 0.0228 0.4376 0.7420
C33_4 C 0.0339(6) 0.2724(3) 0.7328(7)
H21_4 H 0.0661 0.2892 0.6937
C34_4 C 0.0061(5) 0.3718(2) 0.7605(7)
H22_4 H 0.0364 0.3631 0.7100
O4_4 O 0.0849(2) 0.98394(12) 0.0011(3)
H2_4 H 0.2466 0.9770 0.0363
O1_4 O 0.22707(19) 0.99050(12) 0.8288(2)
O3_4 O 0.0701(2) 0.99505(12) 0.8541(3)
C1_4 C 0.1104(3) 0.98863(14) 0.9231(4)
C2_4 C 0.1963(3) 0.98640(17) 0.9117(4)
H1_4 H 0.0294 0.9115 0.8288
C6_4 C 0.3056(3) 0.98592(19) 0.8383(4)
C7_4 C 0.2533(3) 0.9804(2) 0.9734(4)
C8_4 C 0.3535(3) 0.99082(19) 0.7561(4)
C10_4 C 0.3248(3) 0.9800(2) 0.9257(4)
H4_4 H 0.3757 0.9765 0.9499
H6_4 H 0.0196 0.8366 0.8580
H13_4 H 0.0294 0.5885 0.8288
H16_4 H 0.0196 0.6634 0.8580
O6_4 O 0.77293(19) 0.00950(12) 0.1712(2)
O8_4 O 0.9299(2) 0.00495(12) 0.1459(3)
C35_4 C 0.8896(3) 0.01137(14) 0.0769(4)
C36_4 C 0.8037(3) 0.01360(17) 0.0883(4)
C37_4 C 0.6944(3) 0.01408(19) 0.1617(4)
C38_4 C 0.7467(3) 0.0196(2) 0.0266(4)
C39_4 C 0.6465(3) 0.00918(19) 0.2439(4)
C40_4 C 0.6752(3) 0.0200(2) 0.0743(4)
H24_4 H 0.6243 0.0235 0.0501
Se2_4 Se 0.93727(7) 0.2500 0.86462(8)
N2_4 N 0.9568(3) 0.06873(16) 0.8471(4)
C14_4 C 0.9336(4) 0.1441(2) 0.8830(5)
H8_4 H 0.9096 0.1645 0.9231
C15_4 C 0.9270(4) 0.09964(19) 0.9007(5)
H9_4 H 0.9002 0.0906 0.9534
C16_4 C 0.9717(5) 0.1601(2) 0.8126(6)
C17_4 C 0.9817(6) 0.2072(2) 0.7962(7)
C18_4 C 0.9976(6) 0.0834(2) 0.7798(6)
C28_4 C 0.9336(4) 0.3559(2) 0.8830(5)
H18_4 H 0.9096 0.3355 0.9231
C29_4 C 0.9270(4) 0.40036(19) 0.9007(5)
H19_4 H 0.9002 0.4094 0.9534
C30_4 C 0.9717(5) 0.3399(2) 0.8126(6)
C31_4 C 0.9817(6) 0.2928(2) 0.7962(7)
C32_4 C 0.9976(6) 0.4166(2) 0.7798(6)
O9_4 O 0.9151(2) 0.01606(12) 0.9989(3)
H23_4 H 0.7534 0.0230 0.9637
C11_4 C 0.8686(4) 0.77321(18) 0.0204(5)
H5_4 H 0.8394 0.7901 0.0626
H7_4 H 0.8279 0.8622 0.0076
C25_4 C 0.8686(4) 0.72679(18) 0.0204(5)
H15_4 H 0.8394 0.7099 0.0626
H17_4 H 0.8279 0.6378 0.0076
Se1_4 Se 0.96335(5) 0.7500 0.88525(7)
N1_4 N 0.9397(2) 0.93107(14) 0.9021(3)
C3_4 C 0.9231(3) 0.83980(16) 0.9375(4)
C4_4 C 0.9134(4) 0.79257(18) 0.9557(4)
C5_4 C 0.9887(4) 0.90132(18) 0.8669(4)
C9_4 C 0.8821(5) 0.9153(2) 0.9528(6)
H3_4 H 0.8463 0.9360 0.9777
C12_4 C 0.9826(4) 0.8564(2) 0.8836(4)
C13_4 C 0.8708(6) 0.8713(2) 0.9717(6)
C21_4 C 0.9231(3) 0.66020(16) 0.9375(4)
C22_4 C 0.9134(4) 0.70743(18) 0.9557(4)
C23_4 C 0.9887(4) 0.59868(18) 0.8669(4)
C24_4 C 0.8821(5) 0.5847(2) 0.9528(6)
H14_4 H 0.8463 0.5640 0.9777
C26_4 C 0.9826(4) 0.6436(2) 0.8836(4)
C27_4 C 0.8708(6) 0.6287(2) 0.9717(6)
loop_
_geom_bond_atom_site_label_1
_geom_bond_atom_site_label_2
_geom_bond_site_symmetry_1
_geom_bond_site_symmetry_2
Zn1 O3 1_555 1_555
Se1 C4 1_555 1_555
Se2 C17 1_555 1_555
O1 C2 1_555 1_555
O2 C8 1_555 1_555
O3 C1 1_555 1_555
O4 C1 1_555 1_555
O5 C8 1_555 1_555
N1 Zn1 1_555 1_555
C1 C2 1_555 1_555
N2 Zn1 1_555 1_555
C2 C7 1_555 1_555
C3 C4 1_555 1_555
C4 C11 1_555 1_555
C5 N1 1_555 1_555
H1 C5 1_555 1_555
C6 O1 1_555 1_555
C7 H2 1_555 1_555
C8 C6 1_555 1_555
C9 N1 1_555 1_555
H3 C9 1_555 1_555
C10 C6 1_555 1_555
H4 C10 1_555 1_555
C11 H5 1_555 1_555
C12 C3 1_555 1_555
H6 C12 1_555 1_555
C13 C3 1_555 1_555
H7 C13 1_555 1_555
C14 H8 1_555 1_555
C15 N2 1_555 1_555
H9 C15 1_555 1_555
C16 C14 1_555 1_555
C17 C16 1_555 1_555
C18 N2 1_555 1_555
H10 C18 1_555 1_555
C19 C17 1_555 1_555
H11 C19 1_555 1_555
C20 C16 1_555 1_555
H12 C20 1_555 1_555
N3 C23 1_555 1_555
C21 C22 1_555 1_555
C22 Se1 1_555 1_555
C23 H13 1_555 1_555
C24 N3 1_555 1_555
H14 C24 1_555 1_555
C25 C11 1_555 1_555
H15 C25 1_555 1_555
C26 C21 1_555 1_555
H16 C26 1_555 1_555
C27 C21 1_555 1_555
H17 C27 1_555 1_555
N4 C29 1_555 1_555
C28 H18 1_555 1_555
C29 C28 1_555 1_555
H19 C29 1_555 1_555
C30 C28 1_555 1_555
C31 Se2 1_555 1_555
C32 N4 1_555 1_555
H20 C32 1_555 1_555
C33 C19 1_555 1_555
H21 C33 1_555 1_555
C34 C30 1_555 1_555
H22 C34 1_555 1_555
Zn2 O4 1_555 1_555
O6 C36 1_555 1_555
O7 C39 1_555 1_555
O8 Zn2 1_555 1_555
O9 Zn1 1_555 1_555
O10 C39 1_555 1_555
C35 O8 1_555 1_555
C36 C35 1_555 1_555
C37 O6 1_555 1_555
C38 C36 1_555 1_555
H23 C38 1_555 1_555
C39 C37 1_555 1_555
C40 C37 1_555 1_555
H24 C40 1_555 1_555
Zn3 O7 1_555 1_555
Zn4 O2 1_555 1_555
Zn6 N3 1_555 1_555
O11 Zn2 1_555 1_555
O12 Zn1 1_555 1_555
O13 Zn2 1_555 1_555
O14 Zn1 1_555 1_555
N5 Zn2 1_555 1_555
N6 Zn2 1_555 1_555
O5 Zn4 1_555 1_555
C5 C12 1_555 1_555
C7 C10 1_555 1_555
C9 C13 1_555 1_555
C14 C15 1_555 1_555
C18 C20 1_555 1_555
C22 C25 1_555 1_555
C23 C26 1_555 1_555
C24 C27 1_555 1_555
C30 C31 1_555 1_555
C31 C33 1_555 1_555
C32 C34 1_555 1_555
O9 C35 1_555 1_555
O10 Zn3 1_555 1_555
C38 C40 1_555 1_555
Se1_2 C4_2 1_555 1_555
Se2_2 C17_2 1_555 1_555
N1_2 Zn3 1_555 1_555
N2_2 Zn3 1_555 1_555
C3_2 C4_2 1_555 1_555
C5_2 N1_2 1_555 1_555
C9_2 N1_2 1_555 1_555
H3_2 C9_2 1_555 1_555
C12_2 C3_2 1_555 1_555
C13_2 C3_2 1_555 1_555
C14_2 H8_2 1_555 1_555
C15_2 N2_2 1_555 1_555
H9_2 C15_2 1_555 1_555
C16_2 C14_2 1_555 1_555
C17_2 C16_2 1_555 1_555
C18_2 N2_2 1_555 1_555
N3_2 C23_2 1_555 1_555
C21_2 C22_2 1_555 1_555
C22_2 Se1_2 1_555 1_555
C24_2 N3_2 1_555 1_555
H14_2 C24_2 1_555 1_555
C26_2 C21_2 1_555 1_555
C27_2 C21_2 1_555 1_555
N4_2 C29_2 1_555 1_555
C28_2 H18_2 1_555 1_555
C29_2 C28_2 1_555 1_555
H19_2 C29_2 1_555 1_555
C30_2 C28_2 1_555 1_555
C31_2 Se2_2 1_555 1_555
C32_2 N4_2 1_555 1_555
O9_2 Zn3 1_555 1_555
Zn5 N3_2 1_555 1_555
C5_2 C12_2 1_555 1_555
C9_2 C13_2 1_555 1_555
C14_2 C15_2 1_555 1_555
C23_2 C26_2 1_555 1_555
C24_2 C27_2 1_555 1_555
C30_2 C31_2 1_555 1_555
C11_2 H5_2 1_555 1_555
C25_2 C11_2 1_555 1_555
H15_2 C25_2 1_555 1_555
O6_2 C36_2 1_555 1_555
O12 C39_2 1_555 1_555
O14 C39_2 1_555 1_555
C35_2 O8_2 1_555 1_555
C36_2 C35_2 1_555 1_555
C37_2 O6_2 1_555 1_555
C38_2 C36_2 1_555 1_555
C39_2 C37_2 1_555 1_555
C40_2 C37_2 1_555 1_555
H24_2 C40_2 1_555 1_555
C38_2 C40_2 1_555 1_555
O1_2 C2_2 1_555 1_555
O11 C8_2 1_555 1_555
O3_2 C1_2 1_555 1_555
O13 C8_2 1_555 1_555
C1_2 C2_2 1_555 1_555
C2_2 C7_2 1_555 1_555
C6_2 O1_2 1_555 1_555
C8_2 C6_2 1_555 1_555
C10_2 C6_2 1_555 1_555
H4_2 C10_2 1_555 1_555
H11_2 C19_2 1_555 1_555
H12_2 C20_2 1_555 1_555
C33_2 C19_2 1_555 1_555
H21_2 C33_2 1_555 1_555
H22_2 C34_2 1_555 1_555
C7_2 C10_2 1_555 1_555
Zn4 O4_2 1_555 1_555
N5_2 Zn4 1_555 1_555
N6_2 Zn4 1_555 1_555
Zn1_2 O3_3 1_555 1_555
Se1_3 C4_3 1_555 1_555
O1_3 C2_3 1_555 1_555
O2_2 C8_3 1_555 1_555
O3_3 C1_3 1_555 1_555
O4_3 C1_3 1_555 1_555
O5_2 C8_3 1_555 1_555
N1_3 Zn1_2 1_555 1_555
C1_3 C2_3 1_555 1_555
C2_3 C7_3 1_555 1_555
C3_3 C4_3 1_555 1_555
C4_3 C11_3 1_555 1_555
C5_3 N1_3 1_555 1_555
H1_3 C5_3 1_555 1_555
C6_3 O1_3 1_555 1_555
C7_3 H2_3 1_555 1_555
C8_3 C6_3 1_555 1_555
C9_3 N1_3 1_555 1_555
H3_3 C9_3 1_555 1_555
C10_3 C6_3 1_555 1_555
H4_3 C10_3 1_555 1_555
C11_3 H5_3 1_555 1_555
C12_3 C3_3 1_555 1_555
H6_3 C12_3 1_555 1_555
C13_3 C3_3 1_555 1_555
H7_3 C13_3 1_555 1_555
N5 C23_3 1_555 1_555
C21_3 C22_3 1_555 1_555
C22_3 Se1_3 1_555 1_555
C23_3 H13_3 1_555 1_555
C24_3 N5 1_555 1_555
H14_3 C24_3 1_555 1_555
C25_3 C11_3 1_555 1_555
H15_3 C25_3 1_555 1_555
C26_3 C21_3 1_555 1_555
H16_3 C26_3 1_555 1_555
C27_3 C21_3 1_555 1_555
H17_3 C27_3 1_555 1_555
Zn5 O2_2 1_555 1_555
O12_2 Zn1_2 1_555 1_555
O14_2 Zn1_2 1_555 1_555
O5_2 Zn5 1_555 1_555
C5_3 C12_3 1_555 1_555
C7_3 C10_3 1_555 1_555
C9_3 C13_3 1_555 1_555
C22_3 C25_3 1_555 1_555
C23_3 C26_3 1_555 1_555
C24_3 C27_3 1_555 1_555
Se2_3 C17_3 1_555 1_555
C14_3 H8_3 1_555 1_555
C15_3 N2_3 1_555 1_555
H9_3 C15_3 1_555 1_555
C16_3 C14_3 1_555 1_555
C17_3 C16_3 1_555 1_555
C18_3 N2_3 1_555 1_555
H10_3 C18_3 1_555 1_555
C19_3 C17_3 1_555 1_555
H11_3 C19_3 1_555 1_555
C20_3 C16_3 1_555 1_555
H12_3 C20_3 1_555 1_555
N6 C29_3 1_555 1_555
C28_3 H18_3 1_555 1_555
C29_3 C28_3 1_555 1_555
H19_3 C29_3 1_555 1_555
C30_3 C28_3 1_555 1_555
C31_3 Se2_3 1_555 1_555
C32_3 N6 1_555 1_555
H20_3 C32_3 1_555 1_555
C33_3 C19_3 1_555 1_555
H21_3 C33_3 1_555 1_555
C34_3 C30_3 1_555 1_555
H22_3 C34_3 1_555 1_555
O6_3 C36_3 1_555 1_555
O7_2 C39_3 1_555 1_555
O8_3 Zn6 1_555 1_555
O10_2 C39_3 1_555 1_555
C35_3 O8_3 1_555 1_555
C36_3 C35_3 1_555 1_555
C37_3 O6_3 1_555 1_555
C38_3 C36_3 1_555 1_555
H23_3 C38_3 1_555 1_555
C39_3 C37_3 1_555 1_555
C40_3 C37_3 1_555 1_555
H24_3 C40_3 1_555 1_555
Zn3_2 O7_2 1_555 1_555
O11_2 Zn6 1_555 1_555
O13_2 Zn6 1_555 1_555
C14_3 C15_3 1_555 1_555
C18_3 C20_3 1_555 1_555
C30_3 C31_3 1_555 1_555
C31_3 C33_3 1_555 1_555
C32_3 C34_3 1_555 1_555
O9_3 C35_3 1_555 1_555
O10_2 Zn3_2 1_555 1_555
C38_3 C40_3 1_555 1_555
H11_4 C19_4 1_555 1_555
H12_4 C20_4 1_555 1_555
C33_4 C19_4 1_555 1_555
H21_4 C33_4 1_555 1_555
H22_4 C34_4 1_555 1_555
O1_4 C2_4 1_555 1_555
O11_2 C8_4 1_555 1_555
O3_4 C1_4 1_555 1_555
O13_2 C8_4 1_555 1_555
C1_4 C2_4 1_555 1_555
C2_4 C7_4 1_555 1_555
C6_4 O1_4 1_555 1_555
C8_4 C6_4 1_555 1_555
C10_4 C6_4 1_555 1_555
H4_4 C10_4 1_555 1_555
C7_4 C10_4 1_555 1_555
O6_4 C36_4 1_555 1_555
O12_2 C39_4 1_555 1_555
O14_2 C39_4 1_555 1_555
C35_4 O8_4 1_555 1_555
C36_4 C35_4 1_555 1_555
C37_4 O6_4 1_555 1_555
C38_4 C36_4 1_555 1_555
C39_4 C37_4 1_555 1_555
C40_4 C37_4 1_555 1_555
H24_4 C40_4 1_555 1_555
C38_4 C40_4 1_555 1_555
Se2_4 C17_4 1_555 1_555
C14_4 H8_4 1_555 1_555
C15_4 N2_4 1_555 1_555
H9_4 C15_4 1_555 1_555
C16_4 C14_4 1_555 1_555
C17_4 C16_4 1_555 1_555
C18_4 N2_4 1_555 1_555
N6_2 C29_4 1_555 1_555
C28_4 H18_4 1_555 1_555
C29_4 C28_4 1_555 1_555
H19_4 C29_4 1_555 1_555
C30_4 C28_4 1_555 1_555
C31_4 Se2_4 1_555 1_555
C32_4 N6_2 1_555 1_555
C14_4 C15_4 1_555 1_555
C30_4 C31_4 1_555 1_555
C11_4 H5_4 1_555 1_555
C25_4 C11_4 1_555 1_555
H15_4 C25_4 1_555 1_555
Se1_4 C4_4 1_555 1_555
N1_4 Zn3_2 1_555 1_555
C3_4 C4_4 1_555 1_555
C5_4 N1_4 1_555 1_555
C9_4 N1_4 1_555 1_555
H3_4 C9_4 1_555 1_555
C12_4 C3_4 1_555 1_555
C13_4 C3_4 1_555 1_555
N5_2 C23_4 1_555 1_555
C21_4 C22_4 1_555 1_555
C22_4 Se1_4 1_555 1_555
C24_4 N5_2 1_555 1_555
H14_4 C24_4 1_555 1_555
C26_4 C21_4 1_555 1_555
C27_4 C21_4 1_555 1_555
C5_4 C12_4 1_555 1_555
C9_4 C13_4 1_555 1_555
C23_4 C26_4 1_555 1_555
C24_4 C27_4 1_555 1_555

#END
