
###############################################################################
#
# This file contains modified crystal structure data generated from the
# MOF subset of the Cambridge Structural Database (CSD) v543 
# hosted by the Cambridge Crystallographic Data Centre (CCDC).
#
# This work is licensed under the Creative Commons
# Attribution-NonCommercial-ShareAlike 4.0 International License.
# To view a copy of this license, visit
# http://creativecommons.org/licenses/by-nc-sa/4.0/
# or send a letter to
# Creative Commons, PO Box 1866, Mountain View, CA 94042, USA.
#
# CIF created using the CSD Python API on 29 September 2022
# The structure has been converted into the P1 space group
# The structure has a 3D framework
# The original CSD entry XEJKAB is in the monoclinic crystal system
# The framework has been calculated to contain at least 10.0% void space
# The void calculation uses a probe of radius 1.32A, grid spacing 0.4
#
###############################################################################

data_XEJKAB
_chemical_formula_moiety         '(C160 H96 N16 O40 S8 Zn8)n'
_symmetry_cell_setting           triclinic
_symmetry_space_group_name_H-M   'P 1'
_symmetry_Int_Tables_number      1
_space_group_name_Hall           'P 1'
loop_
_symmetry_equiv_pos_site_id
_symmetry_equiv_pos_as_xyz
1 x,y,z
_cell_length_a                   15.947(3)
_cell_length_b                   13.343(3)
_cell_length_c                   21.423(4)
_cell_angle_alpha                90
_cell_angle_beta                 92.60(3)
_cell_angle_gamma                90
_cell_volume                     4553.71
loop_
_atom_site_label
_atom_site_type_symbol
_atom_site_fract_x
_atom_site_fract_y
_atom_site_fract_z
C9 C 0.42327(19) 0.0631(2) 0.69811(13)
H4 H 0.4465 0.1208 0.6795
H7 H 0.2550 0.0358 0.8475
H10 H 0.5287 0.0483 0.5958
C20 C 0.3671(2) 0.0614(2) 0.74788(14)
H12 H 0.3458 0.1177 0.7692
Zn1 Zn 0.63416(2) 0.75850(2) 0.46250(2)
S1 S 0.40428(4) 0.52142(5) 0.44876(3)
O1 O 0.53420(13) 0.67152(18) 0.44607(11)
O2 O 0.18402(13) 0.39189(15) 0.43821(10)
O3 O 0.30912(15) 0.33795(16) 0.47616(10)
O4 O 0.39308(12) 0.90333(15) 0.71975(9)
N1 N 0.19626(15) 0.81194(19) 0.88662(11)
O5 O 0.47195(18) 0.7772(2) 0.37759(14)
N2 N 0.57510(15) 0.83047(19) 0.53868(11)
C1 C 0.2374(2) 0.7620(2) 0.84317(14)
H1 H 0.2317 0.6912 0.8416
C2 C 0.26254(17) 0.4007(2) 0.44829(12)
C3 C 0.5338(2) 0.7744(2) 0.57979(16)
H2 H 0.5357 0.7036 0.5756
C4 C 0.29603(17) 0.9117(2) 0.80211(13)
C5 C 0.57230(18) 0.9303(2) 0.54658(13)
H3 H 0.6019 0.9712 0.5187
C6 C 0.43727(17) 0.9656(2) 0.68234(12)
C7 C 0.47501(18) 0.6989(2) 0.40870(14)
C8 C 0.48569(16) 0.9183(2) 0.63483(12)
C10 C 0.30310(16) 0.4923(2) 0.42464(13)
C11 C 0.20246(19) 0.9127(2) 0.88669(14)
H5 H 0.1719 0.9497 0.9160
C12 C 0.28774(19) 0.8075(2) 0.80055(13)
H6 H 0.3161 0.7688 0.7708
C13 C 0.2517(2) 0.9647(2) 0.84572(14)
C14 C 0.3267(2) 0.6397(3) 0.37169(17)
H8 H 0.3142 0.6937 0.3440
C15 C 0.4889(2) 0.8142(2) 0.62760(15)
H9 H 0.4606 0.7715 0.6552
C16 C 0.52910(19) 0.9773(2) 0.59266(13)
C17 C 0.40166(18) 0.6288(2) 0.40450(13)
C18 C 0.34975(18) 0.9624(2) 0.75905(13)
C19 C 0.2698(2) 0.5612(3) 0.38370(16)
H11 H 0.2146 0.5571 0.3653
Zn2 Zn 0.13416(2) 0.25850(2) 0.46250(2)
Zn3 Zn 0.36584(2) 0.24150(2) 0.53750(2)
Zn4 Zn 0.13416(2) 0.74150(2) 0.96250(2)
O6 O 0.68402(13) 0.89189(15) 0.43821(10)
O7 O 0.69088(15) 0.66205(16) 0.52384(10)
N3 N 0.69626(15) 0.68806(19) 0.38662(11)
Zn1_2 Zn 0.36584(2) 0.75850(2) 0.03750(2)
S1_2 S 0.59572(4) 0.52142(5) 0.05124(3)
O1_2 O 0.46580(13) 0.67152(18) 0.05393(11)
O2_2 O 0.81598(13) 0.39189(15) 0.06179(10)
O3_2 O 0.69088(15) 0.33795(16) 0.02384(10)
O5_2 O 0.52805(18) 0.7772(2) 0.12241(14)
C2_2 C 0.73746(17) 0.4007(2) 0.05171(12)
C7_2 C 0.52499(18) 0.6989(2) 0.09130(14)
C10_2 C 0.69690(16) 0.4923(2) 0.07536(13)
C14_2 C 0.6733(2) 0.6397(3) 0.12831(17)
H8_2 H 0.6858 0.6937 0.1560
C17_2 C 0.59834(18) 0.6288(2) 0.09550(13)
C19_2 C 0.7302(2) 0.5612(3) 0.11630(16)
H11_2 H 0.7854 0.5571 0.1347
Zn2_2 Zn 0.86584(2) 0.25850(2) 0.03750(2)
O6_2 O 0.31598(13) 0.89189(15) 0.06179(10)
N3_2 N 0.30374(15) 0.68806(19) 0.11338(11)
O4_2 O 0.60692(12) 0.90333(15) 0.78025(9)
N1_2 N 0.80374(15) 0.81194(19) 0.61338(11)
N2_2 N 0.42490(15) 0.83047(19) 0.96132(11)
C1_2 C 0.7626(2) 0.7620(2) 0.65683(14)
H1_2 H 0.7683 0.6912 0.6584
C3_2 C 0.4662(2) 0.7744(2) 0.92021(16)
H2_2 H 0.4643 0.7036 0.9244
C4_2 C 0.70397(17) 0.9117(2) 0.69789(13)
C5_2 C 0.42770(18) 0.9303(2) 0.95342(13)
H3_2 H 0.3981 0.9712 0.9813
C6_2 C 0.56273(17) 0.9656(2) 0.81766(12)
C8_2 C 0.51431(16) 0.9183(2) 0.86517(12)
C11_2 C 0.79754(19) 0.9127(2) 0.61331(14)
H5_2 H 0.8281 0.9497 0.5840
C12_2 C 0.71226(19) 0.8075(2) 0.69945(13)
H6_2 H 0.6839 0.7688 0.7292
C13_2 C 0.7483(2) 0.9647(2) 0.65428(14)
C15_2 C 0.5111(2) 0.8142(2) 0.87240(15)
H9_2 H 0.5394 0.7715 0.8448
C16_2 C 0.47090(19) 0.9773(2) 0.90734(13)
C18_2 C 0.65025(18) 0.9624(2) 0.74095(13)
Zn3_2 Zn 0.63416(2) 0.24150(2) 0.96250(2)
Zn4_2 Zn 0.86584(2) 0.74150(2) 0.53750(2)
O7_2 O 0.30912(15) 0.66205(16) 0.97616(10)
O1_3 O 0.03420(13) 0.17152(18) 0.44607(11)
N2_3 N 0.07510(15) 0.33047(19) 0.53868(11)
C3_3 C 0.0338(2) 0.2744(2) 0.57979(16)
H2_3 H 0.0357 0.2036 0.5756
C5_3 C 0.07230(18) 0.4303(2) 0.54658(13)
H3_3 H 0.1019 0.4712 0.5187
C16_3 C 0.02910(19) 0.4773(2) 0.59266(13)
H10_2 H 0.0287 0.5483 0.5958
O7_3 O 0.19088(15) 0.16205(16) 0.52384(10)
N3_3 N 0.19626(15) 0.18806(19) 0.38662(11)
S1_3 S 0.90428(4) 0.02142(5) 0.44876(3)
O4_3 O 0.89308(12) 0.40333(15) 0.71975(9)
N1_3 N 0.69626(15) 0.31194(19) 0.88662(11)
O5_3 O 0.97195(18) 0.2772(2) 0.37759(14)
C1_3 C 0.7374(2) 0.2620(2) 0.84317(14)
H1_3 H 0.7317 0.1912 0.8416
C4_3 C 0.79603(17) 0.4117(2) 0.80211(13)
C6_3 C 0.93727(17) 0.4656(2) 0.68234(12)
C7_3 C 0.97501(18) 0.1989(2) 0.40870(14)
C8_3 C 0.98569(16) 0.4183(2) 0.63483(12)
C9_2 C 0.92327(19) 0.5631(2) 0.69811(13)
H4_2 H 0.9465 0.6208 0.6795
C11_3 C 0.70246(19) 0.4127(2) 0.88669(14)
H5_3 H 0.6719 0.4497 0.9160
C12_3 C 0.78774(19) 0.3075(2) 0.80055(13)
H6_3 H 0.8161 0.2688 0.7708
C13_3 C 0.7517(2) 0.4647(2) 0.84572(14)
H7_2 H 0.7550 0.5358 0.8475
C14_3 C 0.8267(2) 0.1397(3) 0.37169(17)
H8_3 H 0.8142 0.1937 0.3440
C15_3 C 0.9889(2) 0.3142(2) 0.62760(15)
H9_3 H 0.9606 0.2715 0.6552
C17_3 C 0.90166(18) 0.1288(2) 0.40450(13)
C18_3 C 0.84975(18) 0.4624(2) 0.75905(13)
C19_3 C 0.7698(2) 0.0612(3) 0.38370(16)
H11_3 H 0.7146 0.0571 0.3653
C20_2 C 0.8671(2) 0.5614(2) 0.74788(14)
H12_2 H 0.8458 0.6177 0.7692
O3_3 O 0.80912(15) 0.83795(16) 0.47616(10)
C2_3 C 0.76254(17) 0.9007(2) 0.44829(12)
C10_3 C 0.80310(16) 0.9923(2) 0.42464(13)
O4_4 O 0.10692(12) 0.40333(15) 0.78025(9)
N1_4 N 0.30374(15) 0.31194(19) 0.61338(11)
C1_4 C 0.2626(2) 0.2620(2) 0.65683(14)
H1_4 H 0.2683 0.1912 0.6584
C4_4 C 0.20397(17) 0.4117(2) 0.69789(13)
C6_4 C 0.06273(17) 0.4656(2) 0.81766(12)
C8_4 C 0.01431(16) 0.4183(2) 0.86517(12)
C9_3 C 0.07673(19) 0.5631(2) 0.80189(13)
H4_3 H 0.0535 0.6208 0.8205
C11_4 C 0.29754(19) 0.4127(2) 0.61331(14)
H5_4 H 0.3281 0.4497 0.5840
C12_4 C 0.21226(19) 0.3075(2) 0.69945(13)
H6_4 H 0.1839 0.2688 0.7292
C13_4 C 0.2483(2) 0.4647(2) 0.65428(14)
H7_3 H 0.2450 0.5358 0.6525
C15_4 C 0.0111(2) 0.3142(2) 0.87240(15)
H9_4 H 0.0394 0.2715 0.8448
C18_4 C 0.15025(18) 0.4624(2) 0.74095(13)
C20_3 C 0.1329(2) 0.5614(2) 0.75212(14)
H12_3 H 0.1542 0.6177 0.7308
O3_4 O 0.19088(15) 0.83795(16) 0.02384(10)
C2_4 C 0.23746(17) 0.9007(2) 0.05171(12)
C10_4 C 0.19690(16) 0.9923(2) 0.07536(13)
O1_4 O 0.96580(13) 0.17152(18) 0.05393(11)
N3_4 N 0.80374(15) 0.18806(19) 0.11338(11)
N2_4 N 0.92490(15) 0.33047(19) 0.96132(11)
C3_4 C 0.9662(2) 0.2744(2) 0.92021(16)
H2_4 H 0.9643 0.2036 0.9244
C5_4 C 0.92770(18) 0.4303(2) 0.95342(13)
H3_4 H 0.8981 0.4712 0.9813
C16_4 C 0.97090(19) 0.4773(2) 0.90734(13)
H10_3 H 0.9713 0.5483 0.9042
O7_4 O 0.80912(15) 0.16205(16) 0.97616(10)
S1_4 S 0.59572(4) 0.47858(5) 0.55124(3)
O1_5 O 0.46580(13) 0.32848(18) 0.55393(11)
O2_3 O 0.81598(13) 0.60811(15) 0.56179(10)
O4_5 O 0.60692(12) 0.09667(15) 0.28025(9)
O5_4 O 0.52805(18) 0.2228(2) 0.62241(14)
N2_5 N 0.42490(15) 0.16953(19) 0.46132(11)
C1_5 C 0.7626(2) 0.2380(2) 0.15683(14)
H1_5 H 0.7683 0.3088 0.1584
C2_5 C 0.73746(17) 0.5993(2) 0.55171(12)
C3_5 C 0.4662(2) 0.2256(2) 0.42021(16)
H2_5 H 0.4643 0.2964 0.4244
C4_5 C 0.70397(17) 0.0883(2) 0.19789(13)
C5_5 C 0.42770(18) 0.0697(2) 0.45342(13)
H3_5 H 0.3981 0.0288 0.4813
C6_5 C 0.56273(17) 0.0344(2) 0.31766(12)
C7_4 C 0.52499(18) 0.3011(2) 0.59130(14)
C8_5 C 0.51431(16) 0.0817(2) 0.36517(12)
C10_5 C 0.69690(16) 0.5077(2) 0.57536(13)
C11_5 C 0.79754(19) 0.0873(2) 0.11331(14)
H5_5 H 0.8281 0.0503 0.0840
C12_5 C 0.71226(19) 0.1925(2) 0.19945(13)
H6_5 H 0.6839 0.2312 0.2292
C13_5 C 0.7483(2) 0.0353(2) 0.15428(14)
C14_4 C 0.6733(2) 0.3603(3) 0.62831(17)
H8_4 H 0.6858 0.3063 0.6560
C15_5 C 0.5111(2) 0.1858(2) 0.37240(15)
H9_5 H 0.5394 0.2285 0.3448
C16_5 C 0.47090(19) 0.0227(2) 0.40734(13)
C17_4 C 0.59834(18) 0.3712(2) 0.59550(13)
C18_5 C 0.65025(18) 0.0376(2) 0.24095(13)
C19_4 C 0.7302(2) 0.4388(3) 0.61630(16)
H11_4 H 0.7854 0.4429 0.6347
O6_3 O 0.31598(13) 0.10811(15) 0.56179(10)
O4_6 O 0.39308(12) 0.09667(15) 0.21975(9)
N2_6 N 0.57510(15) 0.16953(19) 0.03868(11)
C1_6 C 0.2374(2) 0.2380(2) 0.34317(14)
H1_6 H 0.2317 0.3088 0.3416
C3_6 C 0.5338(2) 0.2256(2) 0.07979(16)
H2_6 H 0.5357 0.2964 0.0756
C4_6 C 0.29603(17) 0.0883(2) 0.30211(13)
C5_6 C 0.57230(18) 0.0697(2) 0.04658(13)
H3_6 H 0.6019 0.0288 0.0187
C6_6 C 0.43727(17) 0.0344(2) 0.18234(12)
C8_6 C 0.48569(16) 0.0817(2) 0.13483(12)
C11_6 C 0.20246(19) 0.0873(2) 0.38669(14)
H5_6 H 0.1719 0.0503 0.4160
C12_6 C 0.28774(19) 0.1925(2) 0.30055(13)
H6_6 H 0.3161 0.2312 0.2708
C13_6 C 0.2517(2) 0.0353(2) 0.34572(14)
C15_6 C 0.4889(2) 0.1858(2) 0.12760(15)
H9_6 H 0.4606 0.2285 0.1552
C16_6 C 0.52910(19) 0.0227(2) 0.09266(13)
C18_6 C 0.34975(18) 0.0376(2) 0.25905(13)
S1_5 S 0.40428(4) 0.47858(5) 0.94876(3)
O1_6 O 0.53420(13) 0.32848(18) 0.94607(11)
O2_4 O 0.18402(13) 0.60811(15) 0.93821(10)
O5_5 O 0.47195(18) 0.2228(2) 0.87759(14)
C2_6 C 0.26254(17) 0.5993(2) 0.94829(12)
C7_5 C 0.47501(18) 0.3011(2) 0.90870(14)
C10_6 C 0.30310(16) 0.5077(2) 0.92464(13)
C14_5 C 0.3267(2) 0.3603(3) 0.87169(17)
H8_5 H 0.3142 0.3063 0.8440
C17_5 C 0.40166(18) 0.3712(2) 0.90450(13)
C19_5 C 0.2698(2) 0.4388(3) 0.88370(16)
H11_5 H 0.2146 0.4429 0.8653
O6_4 O 0.68402(13) 0.10811(15) 0.93821(10)
C2_7 C 0.23746(17) 0.0993(2) 0.55171(12)
C10_7 C 0.19690(16) 0.0077(2) 0.57536(13)
S1_6 S 0.09572(4) 0.97858(5) 0.55124(3)
O4_7 O 0.10692(12) 0.59667(15) 0.28025(9)
O5_6 O 0.02805(18) 0.7228(2) 0.62241(14)
C1_7 C 0.2626(2) 0.7380(2) 0.15683(14)
H1_7 H 0.2683 0.8088 0.1584
C4_7 C 0.20397(17) 0.5883(2) 0.19789(13)
C6_7 C 0.06273(17) 0.5344(2) 0.31766(12)
C7_6 C 0.02499(18) 0.8011(2) 0.59130(14)
C8_7 C 0.01431(16) 0.5817(2) 0.36517(12)
C9_4 C 0.07673(19) 0.4369(2) 0.30189(13)
H4_4 H 0.0535 0.3792 0.3205
C11_7 C 0.29754(19) 0.5873(2) 0.11331(14)
H5_7 H 0.3281 0.5503 0.0840
C12_7 C 0.21226(19) 0.6925(2) 0.19945(13)
H6_7 H 0.1839 0.7312 0.2292
C13_7 C 0.2483(2) 0.5353(2) 0.15428(14)
H7_4 H 0.2450 0.4642 0.1525
C14_6 C 0.1733(2) 0.8603(3) 0.62831(17)
H8_6 H 0.1858 0.8063 0.6560
C15_7 C 0.0111(2) 0.6858(2) 0.37240(15)
H9_7 H 0.0394 0.7285 0.3448
C17_6 C 0.09834(18) 0.8712(2) 0.59550(13)
C18_7 C 0.15025(18) 0.5376(2) 0.24095(13)
C19_6 C 0.2302(2) 0.9388(3) 0.61630(16)
H11_6 H 0.2854 0.9429 0.6347
C20_4 C 0.1329(2) 0.4386(2) 0.25212(14)
H12_4 H 0.1542 0.3823 0.2308
O1_7 O 0.96580(13) 0.82848(18) 0.55393(11)
N2_7 N 0.92490(15) 0.66953(19) 0.46132(11)
C3_7 C 0.9662(2) 0.7256(2) 0.42021(16)
H2_7 H 0.9643 0.7964 0.4244
C5_7 C 0.92770(18) 0.5697(2) 0.45342(13)
H3_7 H 0.8981 0.5288 0.4813
C16_7 C 0.97090(19) 0.5227(2) 0.40734(13)
H10_4 H 0.9713 0.4517 0.4042
N2_8 N 0.07510(15) 0.66953(19) 0.03868(11)
C3_8 C 0.0338(2) 0.7256(2) 0.07979(16)
H2_8 H 0.0357 0.7964 0.0756
C5_8 C 0.07230(18) 0.5697(2) 0.04658(13)
H3_8 H 0.1019 0.5288 0.0187
C16_8 C 0.02910(19) 0.5227(2) 0.09266(13)
H10_5 H 0.0287 0.4517 0.0958
O1_8 O 0.03420(13) 0.82848(18) 0.94607(11)
C2_8 C 0.76254(17) 0.0993(2) 0.94829(12)
C10_8 C 0.80310(16) 0.0077(2) 0.92464(13)
O4_8 O 0.89308(12) 0.59667(15) 0.21975(9)
C1_8 C 0.7374(2) 0.7380(2) 0.34317(14)
H1_8 H 0.7317 0.8088 0.3416
C4_8 C 0.79603(17) 0.5883(2) 0.30211(13)
C6_8 C 0.93727(17) 0.5344(2) 0.18234(12)
C8_8 C 0.98569(16) 0.5817(2) 0.13483(12)
C9_5 C 0.92327(19) 0.4369(2) 0.19811(13)
H4_5 H 0.9465 0.3792 0.1795
C11_8 C 0.70246(19) 0.5873(2) 0.38669(14)
H5_8 H 0.6719 0.5503 0.4160
C12_8 C 0.78774(19) 0.6925(2) 0.30055(13)
H6_8 H 0.8161 0.7312 0.2708
C13_8 C 0.7517(2) 0.5353(2) 0.34572(14)
H7_5 H 0.7550 0.4642 0.3475
C15_8 C 0.9889(2) 0.6858(2) 0.12760(15)
H9_8 H 0.9606 0.7285 0.1552
C18_8 C 0.84975(18) 0.5376(2) 0.25905(13)
C20_5 C 0.8671(2) 0.4386(2) 0.24788(14)
H12_5 H 0.8458 0.3823 0.2692
C9_6 C 0.57673(19) 0.0631(2) 0.80189(13)
H4_6 H 0.5535 0.1208 0.8205
H7_6 H 0.7450 0.0358 0.6525
H10_6 H 0.4713 0.0483 0.9042
C20_6 C 0.6329(2) 0.0614(2) 0.75212(14)
H12_6 H 0.6542 0.1177 0.7308
S1_7 S 0.09572(4) 0.02142(5) 0.05124(3)
O5_7 O 0.02805(18) 0.2772(2) 0.12241(14)
C7_7 C 0.02499(18) 0.1989(2) 0.09130(14)
C14_7 C 0.1733(2) 0.1397(3) 0.12831(17)
H8_7 H 0.1858 0.1937 0.1560
C17_7 C 0.09834(18) 0.1288(2) 0.09550(13)
C19_7 C 0.2302(2) 0.0612(3) 0.11630(16)
H11_7 H 0.2854 0.0571 0.1347
C9_7 C 0.57673(19) 0.9369(2) 0.30189(13)
H4_7 H 0.5535 0.8792 0.3205
H7_7 H 0.7450 0.9642 0.1525
H10_7 H 0.4713 0.9517 0.4042
C20_7 C 0.6329(2) 0.9386(2) 0.25212(14)
H12_7 H 0.6542 0.8823 0.2308
C9_8 C 0.42327(19) 0.9369(2) 0.19811(13)
H4_8 H 0.4465 0.8792 0.1795
H7_8 H 0.2550 0.9642 0.3475
H10_8 H 0.5287 0.9517 0.0958
C20_8 C 0.3671(2) 0.9386(2) 0.24788(14)
H12_8 H 0.3458 0.8823 0.2692
S1_8 S 0.90428(4) 0.97858(5) 0.94876(3)
O5_8 O 0.97195(18) 0.7228(2) 0.87759(14)
C7_8 C 0.97501(18) 0.8011(2) 0.90870(14)
C14_8 C 0.8267(2) 0.8603(3) 0.87169(17)
H8_8 H 0.8142 0.8063 0.8440
C17_8 C 0.90166(18) 0.8712(2) 0.90450(13)
C19_8 C 0.7698(2) 0.9388(3) 0.88370(16)
H11_8 H 0.7146 0.9429 0.8653
loop_
_geom_bond_atom_site_label_1
_geom_bond_atom_site_label_2
_geom_bond_site_symmetry_1
_geom_bond_site_symmetry_2
H4 C9 1_555 1_555
C20 C9 1_555 1_555
H12 C20 1_555 1_555
Zn1 O1 1_555 1_555
S1 C10 1_555 1_555
O1 C7 1_555 1_555
O2 C2 1_555 1_555
O3 C2 1_555 1_555
O4 C6 1_555 1_555
N1 C1 1_555 1_555
O5 C7 1_555 1_555
N2 Zn1 1_555 1_555
C1 H1 1_555 1_555
C2 C10 1_555 1_555
C3 N2 1_555 1_555
H2 C3 1_555 1_555
C4 C12 1_555 1_555
C5 N2 1_555 1_555
H3 C5 1_555 1_555
C6 C8 1_555 1_555
C7 C17 1_555 1_555
C8 C15 1_555 1_555
C10 C19 1_555 1_555
C11 N1 1_555 1_555
H5 C11 1_555 1_555
C12 C1 1_555 1_555
H6 C12 1_555 1_555
C13 C4 1_555 1_555
C14 H8 1_555 1_555
C15 C3 1_555 1_555
H9 C15 1_555 1_555
C16 C5 1_555 1_555
C17 S1 1_555 1_555
C18 O4 1_555 1_555
C19 C14 1_555 1_555
H11 C19 1_555 1_555
Zn2 O2 1_555 1_555
Zn3 O3 1_555 1_555
Zn4 N1 1_555 1_555
O6 Zn1 1_555 1_555
O7 Zn1 1_555 1_555
N3 Zn1 1_555 1_555
C4 C18 1_555 1_555
C8 C16 1_555 1_555
C11 C13 1_555 1_555
C14 C17 1_555 1_555
Zn1_2 O1_2 1_555 1_555
S1_2 C10_2 1_555 1_555
O1_2 C7_2 1_555 1_555
O2_2 C2_2 1_555 1_555
O3_2 C2_2 1_555 1_555
O5_2 C7_2 1_555 1_555
C2_2 C10_2 1_555 1_555
C7_2 C17_2 1_555 1_555
C10_2 C19_2 1_555 1_555
C14_2 H8_2 1_555 1_555
C17_2 S1_2 1_555 1_555
C19_2 C14_2 1_555 1_555
H11_2 C19_2 1_555 1_555
Zn2_2 O2_2 1_555 1_555
O6_2 Zn1_2 1_555 1_555
N3_2 Zn1_2 1_555 1_555
C14_2 C17_2 1_555 1_555
O4_2 C6_2 1_555 1_555
N1_2 C1_2 1_555 1_555
C1_2 H1_2 1_555 1_555
C3_2 N2_2 1_555 1_555
H2_2 C3_2 1_555 1_555
C4_2 C12_2 1_555 1_555
C5_2 N2_2 1_555 1_555
H3_2 C5_2 1_555 1_555
C6_2 C8_2 1_555 1_555
C8_2 C15_2 1_555 1_555
C11_2 N1_2 1_555 1_555
H5_2 C11_2 1_555 1_555
C12_2 C1_2 1_555 1_555
H6_2 C12_2 1_555 1_555
C13_2 C4_2 1_555 1_555
C15_2 C3_2 1_555 1_555
H9_2 C15_2 1_555 1_555
C16_2 C5_2 1_555 1_555
C18_2 O4_2 1_555 1_555
Zn4_2 N1_2 1_555 1_555
C4_2 C18_2 1_555 1_555
C8_2 C16_2 1_555 1_555
C11_2 C13_2 1_555 1_555
Zn2 O1_3 1_555 1_555
N2_3 Zn2 1_555 1_555
C3_3 N2_3 1_555 1_555
H2_3 C3_3 1_555 1_555
C5_3 N2_3 1_555 1_555
H3_3 C5_3 1_555 1_555
C16_3 C5_3 1_555 1_555
H10_2 C16_3 1_555 1_555
O7_3 Zn2 1_555 1_555
N3_3 Zn2 1_555 1_555
O4_3 C6_3 1_555 1_555
N1_3 C1_3 1_555 1_555
O5_3 C7_3 1_555 1_555
C1_3 H1_3 1_555 1_555
C4_3 C12_3 1_555 1_555
C6_3 C8_3 1_555 1_555
C7_3 C17_3 1_555 1_555
C8_3 C15_3 1_555 1_555
C9_2 C6_3 1_555 1_555
H4_2 C9_2 1_555 1_555
C11_3 N1_3 1_555 1_555
H5_3 C11_3 1_555 1_555
C12_3 C1_3 1_555 1_555
H6_3 C12_3 1_555 1_555
C13_3 C4_3 1_555 1_555
H7_2 C13_3 1_555 1_555
C14_3 H8_3 1_555 1_555
H9_3 C15_3 1_555 1_555
C17_3 S1_3 1_555 1_555
C18_3 O4_3 1_555 1_555
C19_3 C14_3 1_555 1_555
H11_3 C19_3 1_555 1_555
C20_2 C9_2 1_555 1_555
H12_2 C20_2 1_555 1_555
Zn3_2 N1_3 1_555 1_555
C4_3 C18_3 1_555 1_555
C11_3 C13_3 1_555 1_555
C14_3 C17_3 1_555 1_555
C18_3 C20_2 1_555 1_555
O6 C2_3 1_555 1_555
O3_3 C2_3 1_555 1_555
C2_3 C10_3 1_555 1_555
Zn4_2 O3_3 1_555 1_555
O4_4 C6_4 1_555 1_555
N1_4 C1_4 1_555 1_555
C1_4 H1_4 1_555 1_555
C4_4 C12_4 1_555 1_555
C6_4 C8_4 1_555 1_555
C8_4 C15_4 1_555 1_555
C9_3 C6_4 1_555 1_555
H4_3 C9_3 1_555 1_555
C11_4 N1_4 1_555 1_555
H5_4 C11_4 1_555 1_555
C12_4 C1_4 1_555 1_555
H6_4 C12_4 1_555 1_555
C13_4 C4_4 1_555 1_555
H7_3 C13_4 1_555 1_555
H9_4 C15_4 1_555 1_555
C18_4 O4_4 1_555 1_555
C20_3 C9_3 1_555 1_555
H12_3 C20_3 1_555 1_555
Zn3 N1_4 1_555 1_555
C4_4 C18_4 1_555 1_555
C11_4 C13_4 1_555 1_555
C18_4 C20_3 1_555 1_555
O6_2 C2_4 1_555 1_555
O3_4 C2_4 1_555 1_555
C2_4 C10_4 1_555 1_555
Zn2_2 O1_4 1_555 1_555
N3_4 Zn2_2 1_555 1_555
C3_4 N2_4 1_555 1_555
H2_4 C3_4 1_555 1_555
C5_4 N2_4 1_555 1_555
H3_4 C5_4 1_555 1_555
C16_4 C5_4 1_555 1_555
H10_3 C16_4 1_555 1_555
Zn3 O1_5 1_555 1_555
S1_4 C10_5 1_555 1_555
O1_5 C7_4 1_555 1_555
O2_3 C2_5 1_555 1_555
O7 C2_5 1_555 1_555
O4_5 C6_5 1_555 1_555
N3_4 C1_5 1_555 1_555
O5_4 C7_4 1_555 1_555
N2_5 Zn3 1_555 1_555
C1_5 H1_5 1_555 1_555
C2_5 C10_5 1_555 1_555
C3_5 N2_5 1_555 1_555
H2_5 C3_5 1_555 1_555
C4_5 C12_5 1_555 1_555
C5_5 N2_5 1_555 1_555
H3_5 C5_5 1_555 1_555
C6_5 C8_5 1_555 1_555
C7_4 C17_4 1_555 1_555
C8_5 C15_5 1_555 1_555
C10_5 C19_4 1_555 1_555
C11_5 N3_4 1_555 1_555
H5_5 C11_5 1_555 1_555
C12_5 C1_5 1_555 1_555
H6_5 C12_5 1_555 1_555
C13_5 C4_5 1_555 1_555
C14_4 H8_4 1_555 1_555
C15_5 C3_5 1_555 1_555
H9_5 C15_5 1_555 1_555
C16_5 C5_5 1_555 1_555
C17_4 S1_4 1_555 1_555
C18_5 O4_5 1_555 1_555
C19_4 C14_4 1_555 1_555
H11_4 C19_4 1_555 1_555
Zn4_2 O2_3 1_555 1_555
O6_3 Zn3 1_555 1_555
C4_5 C18_5 1_555 1_555
C8_5 C16_5 1_555 1_555
C11_5 C13_5 1_555 1_555
C14_4 C17_4 1_555 1_555
O4_6 C6_6 1_555 1_555
N3_3 C1_6 1_555 1_555
C1_6 H1_6 1_555 1_555
C3_6 N2_6 1_555 1_555
H2_6 C3_6 1_555 1_555
C4_6 C12_6 1_555 1_555
C5_6 N2_6 1_555 1_555
H3_6 C5_6 1_555 1_555
C6_6 C8_6 1_555 1_555
C8_6 C15_6 1_555 1_555
C11_6 N3_3 1_555 1_555
H5_6 C11_6 1_555 1_555
C12_6 C1_6 1_555 1_555
H6_6 C12_6 1_555 1_555
C13_6 C4_6 1_555 1_555
C15_6 C3_6 1_555 1_555
H9_6 C15_6 1_555 1_555
C16_6 C5_6 1_555 1_555
C18_6 O4_6 1_555 1_555
C4_6 C18_6 1_555 1_555
C8_6 C16_6 1_555 1_555
C11_6 C13_6 1_555 1_555
Zn3_2 O1_6 1_555 1_555
S1_5 C10_6 1_555 1_555
O1_6 C7_5 1_555 1_555
O2_4 C2_6 1_555 1_555
O7_2 C2_6 1_555 1_555
O5_5 C7_5 1_555 1_555
C2_6 C10_6 1_555 1_555
C7_5 C17_5 1_555 1_555
C10_6 C19_5 1_555 1_555
C14_5 H8_5 1_555 1_555
C17_5 S1_5 1_555 1_555
C19_5 C14_5 1_555 1_555
H11_5 C19_5 1_555 1_555
Zn4 O2_4 1_555 1_555
O6_4 Zn3_2 1_555 1_555
C14_5 C17_5 1_555 1_555
O6_3 C2_7 1_555 1_555
O7_3 C2_7 1_555 1_555
C2_7 C10_7 1_555 1_555
O4_7 C6_7 1_555 1_555
N3_2 C1_7 1_555 1_555
O5_6 C7_6 1_555 1_555
C1_7 H1_7 1_555 1_555
C4_7 C12_7 1_555 1_555
C6_7 C8_7 1_555 1_555
C7_6 C17_6 1_555 1_555
C8_7 C15_7 1_555 1_555
C9_4 C6_7 1_555 1_555
H4_4 C9_4 1_555 1_555
C11_7 N3_2 1_555 1_555
H5_7 C11_7 1_555 1_555
C12_7 C1_7 1_555 1_555
H6_7 C12_7 1_555 1_555
C13_7 C4_7 1_555 1_555
H7_4 C13_7 1_555 1_555
C14_6 H8_6 1_555 1_555
H9_7 C15_7 1_555 1_555
C17_6 S1_6 1_555 1_555
C18_7 O4_7 1_555 1_555
C19_6 C14_6 1_555 1_555
H11_6 C19_6 1_555 1_555
C20_4 C9_4 1_555 1_555
H12_4 C20_4 1_555 1_555
C4_7 C18_7 1_555 1_555
C11_7 C13_7 1_555 1_555
C14_6 C17_6 1_555 1_555
C18_7 C20_4 1_555 1_555
Zn4_2 O1_7 1_555 1_555
N2_7 Zn4_2 1_555 1_555
C3_7 N2_7 1_555 1_555
H2_7 C3_7 1_555 1_555
C5_7 N2_7 1_555 1_555
H3_7 C5_7 1_555 1_555
C16_7 C5_7 1_555 1_555
H10_4 C16_7 1_555 1_555
C3_8 N2_8 1_555 1_555
H2_8 C3_8 1_555 1_555
C5_8 N2_8 1_555 1_555
H3_8 C5_8 1_555 1_555
C16_8 C5_8 1_555 1_555
H10_5 C16_8 1_555 1_555
Zn4 O1_8 1_555 1_555
O6_4 C2_8 1_555 1_555
O7_4 C2_8 1_555 1_555
C2_8 C10_8 1_555 1_555
O4_8 C6_8 1_555 1_555
N3 C1_8 1_555 1_555
C1_8 H1_8 1_555 1_555
C4_8 C12_8 1_555 1_555
C6_8 C8_8 1_555 1_555
C8_8 C15_8 1_555 1_555
C9_5 C6_8 1_555 1_555
H4_5 C9_5 1_555 1_555
C11_8 N3 1_555 1_555
H5_8 C11_8 1_555 1_555
C12_8 C1_8 1_555 1_555
H6_8 C12_8 1_555 1_555
C13_8 C4_8 1_555 1_555
H7_5 C13_8 1_555 1_555
H9_8 C15_8 1_555 1_555
C18_8 O4_8 1_555 1_555
C20_5 C9_5 1_555 1_555
H12_5 C20_5 1_555 1_555
C4_8 C18_8 1_555 1_555
C11_8 C13_8 1_555 1_555
C18_8 C20_5 1_555 1_555
H4_6 C9_6 1_555 1_555
C20_6 C9_6 1_555 1_555
H12_6 C20_6 1_555 1_555
O5_7 C7_7 1_555 1_555
C7_7 C17_7 1_555 1_555
C14_7 H8_7 1_555 1_555
C17_7 S1_7 1_555 1_555
C19_7 C14_7 1_555 1_555
H11_7 C19_7 1_555 1_555
C14_7 C17_7 1_555 1_555
H4_7 C9_7 1_555 1_555
C20_7 C9_7 1_555 1_555
H12_7 C20_7 1_555 1_555
H4_8 C9_8 1_555 1_555
C20_8 C9_8 1_555 1_555
H12_8 C20_8 1_555 1_555
O5_8 C7_8 1_555 1_555
C7_8 C17_8 1_555 1_555
C14_8 H8_8 1_555 1_555
C17_8 S1_8 1_555 1_555
C19_8 C14_8 1_555 1_555
H11_8 C19_8 1_555 1_555
C14_8 C17_8 1_555 1_555

#END
