
###############################################################################
#
# This file contains modified crystal structure data generated from the
# MOF subset of the Cambridge Structural Database (CSD) v543 
# hosted by the Cambridge Crystallographic Data Centre (CCDC).
#
# This work is licensed under the Creative Commons
# Attribution-NonCommercial-ShareAlike 4.0 International License.
# To view a copy of this license, visit
# http://creativecommons.org/licenses/by-nc-sa/4.0/
# or send a letter to
# Creative Commons, PO Box 1866, Mountain View, CA 94042, USA.
#
# CIF created using the CSD Python API on 29 September 2022
# The structure has been converted into the P1 space group
# The structure has a 3D framework
# The original CSD entry XEJKUV is in the orthorhombic crystal system
# The framework has been calculated to contain at least 10.0% void space
# The void calculation uses a probe of radius 1.32A, grid spacing 0.4
#
###############################################################################

data_XEJKUV
_chemical_formula_moiety         '(C320 H192 N32 O64 S32 Zn16)n'
_symmetry_cell_setting           triclinic
_symmetry_space_group_name_H-M   'P 1'
_symmetry_Int_Tables_number      1
_space_group_name_Hall           'P 1'
loop_
_symmetry_equiv_pos_site_id
_symmetry_equiv_pos_as_xyz
1 x,y,z
_cell_length_a                   17.8908(3)
_cell_length_b                   18.2373(3)
_cell_length_c                   29.3112(7)
_cell_angle_alpha                90
_cell_angle_beta                 90
_cell_angle_gamma                90
_cell_volume                     9563.66
loop_
_atom_site_label
_atom_site_type_symbol
_atom_site_fract_x
_atom_site_fract_y
_atom_site_fract_z
O4 O 0.12130(15) 0.16940(15) 0.31849(10)
O6 O 0.02253(16) 0.09686(14) 0.31950(10)
C12 C 0.0506(2) 0.1588(2) 0.31860(15)
C28 C 0.0034(2) 0.2250(2) 0.31777(15)
C32 C 0.0251(2) 0.2965(2) 0.3169(2)
H16 H 0.0759 0.3117 0.3158
Zn3 Zn 0.16004(2) 0.06367(2) 0.31928(2)
Zn2 Zn 0.67481(2) 0.35990(3) 0.32083(2)
S1 S 0.47023(4) 0.17451(4) 0.32243(4)
S2 S 0.90809(5) 0.21669(5) 0.31906(3)
S3 S 0.67792(6) 0.42329(6) 0.07505(4)
S4 S 0.67210(6) 0.43032(6) 0.56285(4)
O1 O 0.76709(13) 0.29934(14) 0.32315(10)
O2 O 0.59934(13) 0.27849(14) 0.32387(10)
O3 O 0.37525(14) 0.04277(13) 0.32040(10)
O5 O 0.81673(14) 0.41117(15) 0.32195(11)
O7 O 0.53345(14) 0.38070(14) 0.31877(12)
O8 O 0.26606(15) 0.09986(16) 0.31880(12)
N1 N 0.65380(16) 0.44505(16) 0.74665(12)
N2 N 0.67267(16) 0.40272(17) 0.25761(11)
N4 N 0.66874(17) 0.41300(19) 0.38179(12)
C1 C 0.33559(18) 0.09799(19) 0.31876(12)
C2 C 0.82198(19) 0.3439(2) 0.32173(14)
C3 C 0.89721(19) 0.3103(2) 0.31962(14)
C4 C 0.5990(2) 0.4869(2) 0.72918(14)
H1 H 0.5645 0.5088 0.7497
C5 C 0.6566(2) 0.4500(2) 0.16762(14)
C6 C 0.6405(2) 0.46938(19) 0.65215(14)
C7 C 0.5903(2) 0.4997(2) 0.68336(14)
H2 H 0.5501 0.5292 0.6729
C8 C 0.37486(19) 0.1699(2) 0.31797(14)
C9 C 0.6448(2) 0.4744(2) 0.12078(14)
C10 C 0.7021(2) 0.4144(2) 0.71661(15)
H3 H 0.7413 0.3847 0.7283
C11 C 0.6975(2) 0.4240(2) 0.67017(15)
H4 H 0.7322 0.4005 0.6504
C13 C 0.5381(2) 0.3127(2) 0.32049(15)
C14 C 0.6383(2) 0.4822(2) 0.03566(15)
C16 C 0.7011(2) 0.3640(2) 0.22261(15)
H5 H 0.7273 0.3199 0.2291
C18 C 0.6939(3) 0.3854(2) 0.17796(15)
H7 H 0.7143 0.3561 0.1542
C19 C 0.6059(2) 0.5340(2) 0.10526(15)
H8 H 0.5835 0.5691 0.1249
C20 C 0.4684(2) 0.2685(2) 0.31821(16)
C21 C 0.6379(3) 0.4654(2) 0.24788(15)
H9 H 0.6182 0.4939 0.2722
C22 C 0.6294(3) 0.4905(2) 0.20386(15)
H10 H 0.6048 0.5358 0.1984
C24 C 0.6330(2) 0.4855(2) 0.60342(15)
C27 C 0.9642(2) 0.3455(2) 0.31789(19)
H14 H 0.9694 0.3973 0.3174
C29 C 0.6495(3) 0.4613(2) 0.47166(16)
C30 C 0.6023(2) 0.5380(2) 0.05738(16)
H15 H 0.5769 0.5761 0.0416
C31 C 0.6372(3) 0.4829(2) 0.51927(16)
C33 C 0.3973(2) 0.2937(2) 0.3125(2)
H17 H 0.3852 0.3441 0.3089
C34 C 0.3438(2) 0.2376(2) 0.3124(2)
H18 H 0.2917 0.2458 0.3089
C35 C 0.5950(4) 0.5425(3) 0.58387(18)
H19 H 0.5687 0.5786 0.6008
C36 C 0.6218(4) 0.4671(3) 0.39194(18)
H20 H 0.5936 0.4890 0.3681
C37 C 0.5988(4) 0.5418(3) 0.53590(19)
H21 H 0.5770 0.5785 0.5171
C38 C 0.7078(3) 0.3877(5) 0.41595(19)
H22 H 0.7444 0.3515 0.4094
C39 C 0.6126(5) 0.4927(3) 0.43619(19)
H23 H 0.5799 0.5328 0.4417
C40 C 0.7001(4) 0.4092(4) 0.4608(2)
H24 H 0.7302 0.3875 0.4838
Zn6 Zn 0.66004(2) 0.43633(2) 0.81928(2)
N5 N 0.15380(16) 0.05495(16) 0.24665(12)
N6 N 0.15343(18) 0.05508(17) 0.39217(12)
N3 N 0.65343(18) 0.44492(17) 0.89217(12)
C15 C 0.6439(2) 0.4679(2) 0.98694(15)
C17 C 0.7026(3) 0.4152(2) 0.92100(15)
H6 H 0.7420 0.3863 0.9088
C23 C 0.5988(2) 0.4857(3) 0.91089(15)
H11 H 0.5625 0.5069 0.8912
C25 C 0.5928(2) 0.4981(3) 0.95635(16)
H12 H 0.5533 0.5279 0.9675
C26 C 0.6988(3) 0.4243(2) 0.96778(16)
H13 H 0.7342 0.4005 0.9869
Zn4 Zn 0.33996(2) 0.93633(2) 0.31928(2)
O9 O 0.12475(14) 0.95723(13) 0.32040(10)
S1_2 S 0.02977(4) 0.82549(4) 0.32243(4)
O8_2 O 0.23394(15) 0.90014(16) 0.31880(12)
C1_2 C 0.16441(18) 0.90201(19) 0.31876(12)
C8_2 C 0.12514(19) 0.8301(2) 0.31797(14)
C20_2 C 0.0316(2) 0.7315(2) 0.31821(16)
C33_2 C 0.1027(2) 0.7063(2) 0.3125(2)
H17_2 H 0.1148 0.6559 0.3089
C34_2 C 0.1562(2) 0.7624(2) 0.3124(2)
H18_2 H 0.2083 0.7542 0.3089
O10 O 0.37870(15) 0.83060(15) 0.31849(10)
O11 O 0.47747(16) 0.90314(14) 0.31950(10)
N5_2 N 0.34620(16) 0.94505(16) 0.24665(12)
N6_2 N 0.34657(18) 0.94492(17) 0.39217(12)
Zn2_2 Zn 0.82519(2) 0.64010(3) 0.32083(2)
S2_2 S 0.59191(5) 0.78331(5) 0.31906(3)
S3_2 S 0.82208(6) 0.57671(6) 0.07505(4)
S4_2 S 0.82790(6) 0.56968(6) 0.56285(4)
O1_2 O 0.73291(13) 0.70066(14) 0.32315(10)
O2_2 O 0.90066(13) 0.72151(14) 0.32387(10)
O5_2 O 0.68327(14) 0.58883(15) 0.32195(11)
O7_2 O 0.96655(14) 0.61930(14) 0.31877(12)
N1_2 N 0.84620(16) 0.55495(16) 0.74665(12)
N2_2 N 0.82733(16) 0.59728(17) 0.25761(11)
N4_2 N 0.83126(17) 0.58700(19) 0.38179(12)
C2_2 C 0.67802(19) 0.6561(2) 0.32173(14)
C3_2 C 0.60279(19) 0.6897(2) 0.31962(14)
C4_2 C 0.9010(2) 0.5131(2) 0.72918(14)
H1_2 H 0.9355 0.4912 0.7497
C5_2 C 0.8434(2) 0.5500(2) 0.16762(14)
C6_2 C 0.8595(2) 0.53062(19) 0.65215(14)
C7_2 C 0.9097(2) 0.5003(2) 0.68336(14)
H2_2 H 0.9499 0.4708 0.6729
C9_2 C 0.8552(2) 0.5256(2) 0.12078(14)
C10_2 C 0.7979(2) 0.5856(2) 0.71661(15)
H3_2 H 0.7587 0.6153 0.7283
C11_2 C 0.8025(2) 0.5760(2) 0.67017(15)
H4_2 H 0.7678 0.5995 0.6504
C12_2 C 0.4494(2) 0.8412(2) 0.31860(15)
C13_2 C 0.9619(2) 0.6873(2) 0.32049(15)
C14_2 C 0.8617(2) 0.5178(2) 0.03566(15)
C16_2 C 0.7989(2) 0.6360(2) 0.22261(15)
H5_2 H 0.7727 0.6801 0.2291
C18_2 C 0.8061(3) 0.6146(2) 0.17796(15)
H7_2 H 0.7857 0.6439 0.1542
C19_2 C 0.8941(2) 0.4660(2) 0.10526(15)
H8_2 H 0.9165 0.4309 0.1249
C21_2 C 0.8621(3) 0.5346(2) 0.24788(15)
H9_2 H 0.8818 0.5061 0.2722
C22_2 C 0.8706(3) 0.5095(2) 0.20386(15)
H10_2 H 0.8952 0.4642 0.1984
C24_2 C 0.8670(2) 0.5145(2) 0.60342(15)
C27_2 C 0.5358(2) 0.6545(2) 0.31789(19)
H14_2 H 0.5306 0.6027 0.3174
C28_2 C 0.4966(2) 0.7750(2) 0.31777(15)
C29_2 C 0.8505(3) 0.5387(2) 0.47166(16)
C30_2 C 0.8977(2) 0.4620(2) 0.05738(16)
H15_2 H 0.9231 0.4239 0.0416
C31_2 C 0.8628(3) 0.5171(2) 0.51927(16)
C32_2 C 0.4749(2) 0.7035(2) 0.3169(2)
H16_2 H 0.4241 0.6883 0.3158
C35_2 C 0.9050(4) 0.4575(3) 0.58387(18)
H19_2 H 0.9313 0.4214 0.6008
C36_2 C 0.8782(4) 0.5329(3) 0.39194(18)
H20_2 H 0.9064 0.5110 0.3681
C37_2 C 0.9012(4) 0.4582(3) 0.53590(19)
H21_2 H 0.9230 0.4215 0.5171
C38_2 C 0.7922(3) 0.6123(5) 0.41595(19)
H22_2 H 0.7556 0.6485 0.4094
C39_2 C 0.8874(5) 0.5073(3) 0.43619(19)
H23_2 H 0.9201 0.4672 0.4417
C40_2 C 0.7999(4) 0.5908(4) 0.4608(2)
H24_2 H 0.7698 0.6125 0.4838
Zn6_2 Zn 0.83996(2) 0.56367(2) 0.81928(2)
N3_2 N 0.84657(18) 0.55508(17) 0.89217(12)
C15_2 C 0.8561(2) 0.5321(2) 0.98694(15)
C17_2 C 0.7974(3) 0.5848(2) 0.92100(15)
H6_2 H 0.7580 0.6137 0.9088
C23_2 C 0.9012(2) 0.5143(3) 0.91089(15)
H11_2 H 0.9375 0.4931 0.8912
C25_2 C 0.9072(2) 0.5019(3) 0.95635(16)
H12_2 H 0.9467 0.4721 0.9675
C26_2 C 0.8012(3) 0.5757(2) 0.96778(16)
H13_2 H 0.7658 0.5995 0.9869
S4_3 S 0.17210(6) 0.06968(6) 0.06285(4)
C4_3 C 0.0990(2) 0.0131(2) 0.22918(14)
C6_3 C 0.1405(2) 0.03062(19) 0.15215(14)
C7_3 C 0.0903(2) 0.0003(2) 0.18336(14)
C10_3 C 0.2021(2) 0.0856(2) 0.21661(15)
H3_3 H 0.2413 0.1153 0.2283
C11_3 C 0.1975(2) 0.0760(2) 0.17017(15)
H4_3 H 0.2322 0.0995 0.1504
C24_3 C 0.1330(2) 0.0145(2) 0.10342(15)
C31_3 C 0.1372(3) 0.0171(2) 0.01927(16)
Zn2_3 Zn 0.17481(2) 0.14010(3) 0.82083(2)
S2_3 S 0.40809(5) 0.28331(5) 0.81906(3)
S3_3 S 0.17792(6) 0.07671(6) 0.57505(4)
O1_3 O 0.26709(13) 0.20066(14) 0.82315(10)
O2_3 O 0.09934(13) 0.22151(14) 0.82387(10)
O4_2 O 0.62130(15) 0.33060(15) 0.81849(10)
O5_3 O 0.31673(14) 0.08883(15) 0.82195(11)
O6_2 O 0.52253(16) 0.40314(14) 0.81950(10)
O7_3 O 0.03345(14) 0.11930(14) 0.81877(12)
N2_3 N 0.17267(16) 0.09728(17) 0.75761(11)
N4_3 N 0.16874(17) 0.08700(19) 0.88179(12)
C2_3 C 0.32198(19) 0.1561(2) 0.82173(14)
C3_3 C 0.39721(19) 0.1897(2) 0.81962(14)
C5_3 C 0.1566(2) 0.0500(2) 0.66762(14)
C9_3 C 0.1448(2) 0.0256(2) 0.62078(14)
C12_3 C 0.5506(2) 0.3412(2) 0.81860(15)
C13_3 C 0.0381(2) 0.1873(2) 0.82049(15)
C14_3 C 0.1383(2) 0.0178(2) 0.53566(15)
C15_3 C 0.1439(2) 0.0321(2) 0.48694(15)
C16_3 C 0.2011(2) 0.1360(2) 0.72261(15)
H5_3 H 0.2273 0.1801 0.7291
C17_3 C 0.2026(3) 0.0848(2) 0.42100(15)
H6_3 H 0.2420 0.1137 0.4088
C18_3 C 0.1939(3) 0.1146(2) 0.67796(15)
H7_3 H 0.2143 0.1439 0.6542
C21_3 C 0.1379(3) 0.0346(2) 0.74788(15)
H9_3 H 0.1182 0.0061 0.7722
C22_3 C 0.1294(3) 0.0095(2) 0.70386(15)
C23_3 C 0.0988(2) 0.0143(3) 0.41089(15)
C25_3 C 0.0928(2) 0.0019(3) 0.45635(16)
C26_3 C 0.1988(3) 0.0757(2) 0.46778(16)
H13_3 H 0.2342 0.0995 0.4869
C27_3 C 0.4642(2) 0.1545(2) 0.81789(19)
H14_3 H 0.4694 0.1027 0.8174
C28_3 C 0.5034(2) 0.2750(2) 0.81777(15)
C29_3 C 0.1495(3) 0.0387(2) 0.97166(16)
C32_3 C 0.5251(2) 0.2035(2) 0.8169(2)
H16_3 H 0.5759 0.1883 0.8158
C36_3 C 0.1218(4) 0.0329(3) 0.89194(18)
H20_3 H 0.0936 0.0110 0.8681
C38_3 C 0.2078(3) 0.1123(5) 0.91595(19)
H22_3 H 0.2444 0.1485 0.9094
C39_3 C 0.1126(5) 0.0073(3) 0.93619(19)
C40_3 C 0.2001(4) 0.0908(4) 0.9608(2)
H24_3 H 0.2302 0.1125 0.9838
S1_3 S 0.97023(4) 0.32549(4) 0.82243(4)
O3_2 O 0.87525(14) 0.45723(13) 0.82040(10)
O8_3 O 0.76606(15) 0.40014(16) 0.81880(12)
C1_3 C 0.83559(18) 0.40201(19) 0.81876(12)
C8_3 C 0.87486(19) 0.3301(2) 0.81797(14)
C20_3 C 0.9684(2) 0.2315(2) 0.81821(16)
C33_3 C 0.8973(2) 0.2063(2) 0.8125(2)
H17_3 H 0.8852 0.1559 0.8089
C34_3 C 0.8438(2) 0.2624(2) 0.8124(2)
H18_3 H 0.7917 0.2542 0.8089
O9_2 O 0.62475(14) 0.54277(13) 0.82040(10)
S4_4 S 0.32790(6) 0.93032(6) 0.06285(4)
C4_4 C 0.4010(2) 0.9869(2) 0.22918(14)
C6_4 C 0.3595(2) 0.96938(19) 0.15215(14)
C7_4 C 0.4097(2) 0.9997(2) 0.18336(14)
C10_4 C 0.2979(2) 0.9144(2) 0.21661(15)
H3_4 H 0.2587 0.8847 0.2283
C11_4 C 0.3025(2) 0.9240(2) 0.17017(15)
H4_4 H 0.2678 0.9005 0.1504
C24_4 C 0.3670(2) 0.9855(2) 0.10342(15)
C31_4 C 0.3628(3) 0.9829(2) 0.01927(16)
Zn2_4 Zn 0.32519(2) 0.85990(3) 0.82083(2)
S1_4 S 0.52977(4) 0.67451(4) 0.82243(4)
S2_4 S 0.09191(5) 0.71669(5) 0.81906(3)
S3_4 S 0.32208(6) 0.92329(6) 0.57505(4)
O1_4 O 0.23291(13) 0.79934(14) 0.82315(10)
O2_4 O 0.40066(13) 0.77849(14) 0.82387(10)
O5_4 O 0.18327(14) 0.91117(15) 0.82195(11)
O7_4 O 0.46655(14) 0.88070(14) 0.81877(12)
O8_4 O 0.73394(15) 0.59986(16) 0.81880(12)
N2_4 N 0.32733(16) 0.90272(17) 0.75761(11)
N4_4 N 0.33126(17) 0.91300(19) 0.88179(12)
C1_4 C 0.66441(18) 0.59799(19) 0.81876(12)
C2_4 C 0.17802(19) 0.8439(2) 0.82173(14)
C3_4 C 0.10279(19) 0.8103(2) 0.81962(14)
C5_4 C 0.3434(2) 0.9500(2) 0.66762(14)
C8_4 C 0.62514(19) 0.6699(2) 0.81797(14)
C9_4 C 0.3552(2) 0.9744(2) 0.62078(14)
C13_4 C 0.4619(2) 0.8127(2) 0.82049(15)
C14_4 C 0.3617(2) 0.9822(2) 0.53566(15)
C15_4 C 0.3561(2) 0.9679(2) 0.48694(15)
C16_4 C 0.2989(2) 0.8640(2) 0.72261(15)
H5_4 H 0.2727 0.8199 0.7291
C17_4 C 0.2974(3) 0.9152(2) 0.42100(15)
H6_4 H 0.2580 0.8863 0.4088
C18_4 C 0.3061(3) 0.8854(2) 0.67796(15)
H7_4 H 0.2857 0.8561 0.6542
C20_4 C 0.5316(2) 0.7685(2) 0.81821(16)
C21_4 C 0.3621(3) 0.9654(2) 0.74788(15)
H9_4 H 0.3818 0.9939 0.7722
C22_4 C 0.3706(3) 0.9905(2) 0.70386(15)
C23_4 C 0.4012(2) 0.9857(3) 0.41089(15)
C25_4 C 0.4072(2) 0.9981(3) 0.45635(16)
C26_4 C 0.3012(3) 0.9243(2) 0.46778(16)
H13_4 H 0.2658 0.9005 0.4869
C27_4 C 0.0358(2) 0.8455(2) 0.81789(19)
H14_4 H 0.0306 0.8973 0.8174
C29_4 C 0.3505(3) 0.9613(2) 0.97166(16)
C33_4 C 0.6027(2) 0.7937(2) 0.8125(2)
H17_4 H 0.6148 0.8441 0.8089
C34_4 C 0.6562(2) 0.7376(2) 0.8124(2)
H18_4 H 0.7083 0.7458 0.8089
C36_4 C 0.3782(4) 0.9671(3) 0.89194(18)
H20_4 H 0.4064 0.9890 0.8681
C38_4 C 0.2922(3) 0.8877(5) 0.91595(19)
H22_4 H 0.2556 0.8515 0.9094
C39_4 C 0.3874(5) 0.9927(3) 0.93619(19)
C40_4 C 0.2999(4) 0.9092(4) 0.9608(2)
H24_4 H 0.2698 0.8875 0.9838
O10_2 O 0.87870(15) 0.66940(15) 0.81849(10)
O11_2 O 0.97747(16) 0.59686(14) 0.81950(10)
C12_4 C 0.9494(2) 0.6588(2) 0.81860(15)
C28_4 C 0.9966(2) 0.7250(2) 0.81777(15)
C32_4 C 0.9749(2) 0.7965(2) 0.8169(2)
H16_4 H 0.9241 0.8117 0.8158
Zn1 Zn 0.33996(2) 0.56367(2) 0.18072(2)
S1_5 S 0.02977(4) 0.67451(4) 0.17757(4)
O3_3 O 0.12475(14) 0.54277(13) 0.17960(10)
O8_5 O 0.23394(15) 0.59986(16) 0.18120(12)
C1_5 C 0.16441(18) 0.59799(19) 0.18124(12)
C8_5 C 0.12514(19) 0.6699(2) 0.18203(14)
C20_5 C 0.0316(2) 0.7685(2) 0.18179(16)
C33_5 C 0.1027(2) 0.7937(2) 0.1875(2)
H17_5 H 0.1148 0.8441 0.1911
C34_5 C 0.1562(2) 0.7376(2) 0.1876(2)
H18_5 H 0.2083 0.7458 0.1911
Zn4_2 Zn 0.16004(2) 0.43633(2) 0.18072(2)
O9_3 O 0.37525(14) 0.45723(13) 0.17960(10)
O10_3 O 0.37870(15) 0.66940(15) 0.18151(10)
O11_3 O 0.47747(16) 0.59686(14) 0.18050(10)
N5_3 N 0.34620(16) 0.55495(16) 0.25335(12)
N6_3 N 0.34657(18) 0.55508(17) 0.10783(12)
Zn2_5 Zn 0.82519(2) 0.85990(3) 0.17917(2)
S2_5 S 0.59191(5) 0.71669(5) 0.18094(3)
S3_5 S 0.82208(6) 0.92329(6) 0.42495(4)
O1_5 O 0.73291(13) 0.79934(14) 0.17685(10)
O2_5 O 0.90066(13) 0.77849(14) 0.17613(10)
O5_5 O 0.68327(14) 0.91117(15) 0.17805(11)
O7_5 O 0.96655(14) 0.88070(14) 0.18123(12)
N2_5 N 0.82733(16) 0.90272(17) 0.24239(11)
N3_3 N 0.84657(18) 0.94492(17) 0.60783(12)
N4_5 N 0.83126(17) 0.91300(19) 0.11821(12)
C2_5 C 0.67802(19) 0.8439(2) 0.17827(14)
C3_5 C 0.60279(19) 0.8103(2) 0.18038(14)
C5_5 C 0.8434(2) 0.9500(2) 0.33238(14)
C9_5 C 0.8552(2) 0.9744(2) 0.37922(14)
C12_5 C 0.4494(2) 0.6588(2) 0.18140(15)
C13_5 C 0.9619(2) 0.8127(2) 0.17951(15)
C14_5 C 0.8617(2) 0.9822(2) 0.46434(15)
C15_5 C 0.8561(2) 0.9679(2) 0.51306(15)
C16_5 C 0.7989(2) 0.8640(2) 0.27739(15)
H5_5 H 0.7727 0.8199 0.2709
C17_5 C 0.7974(3) 0.9152(2) 0.57900(15)
H6_5 H 0.7580 0.8863 0.5912
C18_5 C 0.8061(3) 0.8854(2) 0.32204(15)
H7_5 H 0.7857 0.8561 0.3458
C21_5 C 0.8621(3) 0.9654(2) 0.25212(15)
H9_5 H 0.8818 0.9939 0.2278
C22_5 C 0.8706(3) 0.9905(2) 0.29614(15)
C23_5 C 0.9012(2) 0.9857(3) 0.58911(15)
C25_5 C 0.9072(2) 0.9981(3) 0.54365(16)
C26_5 C 0.8012(3) 0.9243(2) 0.53222(16)
H13_5 H 0.7658 0.9005 0.5131
C27_5 C 0.5358(2) 0.8455(2) 0.18211(19)
H14_5 H 0.5306 0.8973 0.1826
C28_5 C 0.4966(2) 0.7250(2) 0.18223(15)
C29_5 C 0.8505(3) 0.9613(2) 0.02834(16)
C32_5 C 0.4749(2) 0.7965(2) 0.1831(2)
H16_5 H 0.4241 0.8117 0.1842
C36_5 C 0.8782(4) 0.9671(3) 0.10806(18)
H20_5 H 0.9064 0.9890 0.1319
C38_5 C 0.7922(3) 0.8877(5) 0.08405(19)
H22_5 H 0.7556 0.8515 0.0906
C39_5 C 0.8874(5) 0.9927(3) 0.06381(19)
C40_5 C 0.7999(4) 0.9092(4) 0.0392(2)
H24_5 H 0.7698 0.8875 0.0162
Zn5 Zn 0.83996(2) 0.93633(2) 0.68072(2)
S4_5 S 0.82790(6) 0.93032(6) 0.93715(4)
N1_3 N 0.84620(16) 0.94505(16) 0.75335(12)
C4_5 C 0.9010(2) 0.9869(2) 0.77082(14)
C6_5 C 0.8595(2) 0.96938(19) 0.84785(14)
C7_5 C 0.9097(2) 0.9997(2) 0.81664(14)
C10_5 C 0.7979(2) 0.9144(2) 0.78339(15)
H3_5 H 0.7587 0.8847 0.7717
C11_5 C 0.8025(2) 0.9240(2) 0.82983(15)
H4_5 H 0.7678 0.9005 0.8496
C24_5 C 0.8670(2) 0.9855(2) 0.89658(15)
C31_5 C 0.8628(3) 0.9829(2) 0.98073(16)
O4_3 O 0.12130(15) 0.33060(15) 0.18151(10)
O6_3 O 0.02253(16) 0.40314(14) 0.18050(10)
C12_6 C 0.0506(2) 0.3412(2) 0.18140(15)
C28_6 C 0.0034(2) 0.2750(2) 0.18223(15)
C32_6 C 0.0251(2) 0.2035(2) 0.1831(2)
H16_6 H 0.0759 0.1883 0.1842
Zn2_6 Zn 0.67481(2) 0.14010(3) 0.17917(2)
S1_6 S 0.47023(4) 0.32549(4) 0.17757(4)
S2_6 S 0.90809(5) 0.28331(5) 0.18094(3)
S3_6 S 0.67792(6) 0.07671(6) 0.42495(4)
O1_6 O 0.76709(13) 0.20066(14) 0.17685(10)
O2_6 O 0.59934(13) 0.22151(14) 0.17613(10)
O5_6 O 0.81673(14) 0.08883(15) 0.17805(11)
O7_6 O 0.53345(14) 0.11930(14) 0.18123(12)
O8_6 O 0.26606(15) 0.40014(16) 0.18120(12)
N2_6 N 0.67267(16) 0.09728(17) 0.24239(11)
N3_4 N 0.65343(18) 0.05508(17) 0.60783(12)
N4_6 N 0.66874(17) 0.08700(19) 0.11821(12)
C1_6 C 0.33559(18) 0.40201(19) 0.18124(12)
C2_6 C 0.82198(19) 0.1561(2) 0.17827(14)
C3_6 C 0.89721(19) 0.1897(2) 0.18038(14)
C5_6 C 0.6566(2) 0.0500(2) 0.33238(14)
C8_6 C 0.37486(19) 0.3301(2) 0.18203(14)
C9_6 C 0.6448(2) 0.0256(2) 0.37922(14)
C13_6 C 0.5381(2) 0.1873(2) 0.17951(15)
C14_6 C 0.6383(2) 0.0178(2) 0.46434(15)
C15_6 C 0.6439(2) 0.0321(2) 0.51306(15)
C16_6 C 0.7011(2) 0.1360(2) 0.27739(15)
H5_6 H 0.7273 0.1801 0.2709
C17_6 C 0.7026(3) 0.0848(2) 0.57900(15)
H6_6 H 0.7420 0.1137 0.5912
C18_6 C 0.6939(3) 0.1146(2) 0.32204(15)
H7_6 H 0.7143 0.1439 0.3458
C20_6 C 0.4684(2) 0.2315(2) 0.18179(16)
C21_6 C 0.6379(3) 0.0346(2) 0.25212(15)
H9_6 H 0.6182 0.0061 0.2278
C22_6 C 0.6294(3) 0.0095(2) 0.29614(15)
C23_6 C 0.5988(2) 0.0143(3) 0.58911(15)
C25_6 C 0.5928(2) 0.0019(3) 0.54365(16)
C26_6 C 0.6988(3) 0.0757(2) 0.53222(16)
H13_6 H 0.7342 0.0995 0.5131
C27_6 C 0.9642(2) 0.1545(2) 0.18211(19)
H14_6 H 0.9694 0.1027 0.1826
C29_6 C 0.6495(3) 0.0387(2) 0.02834(16)
C33_6 C 0.3973(2) 0.2063(2) 0.1875(2)
H17_6 H 0.3852 0.1559 0.1911
C34_6 C 0.3438(2) 0.2624(2) 0.1876(2)
H18_6 H 0.2917 0.2542 0.1911
C36_6 C 0.6218(4) 0.0329(3) 0.10806(18)
H20_6 H 0.5936 0.0110 0.1319
C38_6 C 0.7078(3) 0.1123(5) 0.08405(19)
H22_6 H 0.7444 0.1485 0.0906
C39_6 C 0.6126(5) 0.0073(3) 0.06381(19)
C40_6 C 0.7001(4) 0.0908(4) 0.0392(2)
H24_6 H 0.7302 0.1125 0.0162
Zn5_2 Zn 0.66004(2) 0.06367(2) 0.68072(2)
N5_4 N 0.15380(16) 0.44505(16) 0.25335(12)
N6_4 N 0.15343(18) 0.44492(17) 0.10783(12)
S4_6 S 0.67210(6) 0.06968(6) 0.93715(4)
N1_4 N 0.65380(16) 0.05495(16) 0.75335(12)
C4_6 C 0.5990(2) 0.0131(2) 0.77082(14)
C6_6 C 0.6405(2) 0.03062(19) 0.84785(14)
C7_6 C 0.5903(2) 0.0003(2) 0.81664(14)
C10_6 C 0.7021(2) 0.0856(2) 0.78339(15)
H3_6 H 0.7413 0.1153 0.7717
C11_6 C 0.6975(2) 0.0760(2) 0.82983(15)
H4_6 H 0.7322 0.0995 0.8496
C24_6 C 0.6330(2) 0.0145(2) 0.89658(15)
C31_6 C 0.6372(3) 0.0171(2) 0.98073(16)
O9_4 O 0.87525(14) 0.04277(13) 0.67960(10)
C15_7 C 0.3561(2) 0.5321(2) 0.01306(15)
C17_7 C 0.2974(3) 0.5848(2) 0.07900(15)
H6_7 H 0.2580 0.6137 0.0912
C23_7 C 0.4012(2) 0.5143(3) 0.08911(15)
H11_3 H 0.4375 0.4931 0.1088
C25_7 C 0.4072(2) 0.5019(3) 0.04365(16)
H12_3 H 0.4467 0.4721 0.0325
C26_7 C 0.3012(3) 0.5757(2) 0.03222(16)
H13_7 H 0.2658 0.5995 0.0131
Zn2_7 Zn 0.32519(2) 0.64010(3) 0.67917(2)
S1_7 S 0.52977(4) 0.82549(4) 0.67757(4)
S2_7 S 0.09191(5) 0.78331(5) 0.68094(3)
S3_7 S 0.32208(6) 0.57671(6) 0.92495(4)
S4_7 S 0.32790(6) 0.56968(6) 0.43715(4)
O1_7 O 0.23291(13) 0.70066(14) 0.67685(10)
O2_7 O 0.40066(13) 0.72151(14) 0.67613(10)
O3_4 O 0.62475(14) 0.95723(13) 0.67960(10)
O5_7 O 0.18327(14) 0.58883(15) 0.67805(11)
O7_7 O 0.46655(14) 0.61930(14) 0.68123(12)
O8_7 O 0.73394(15) 0.90014(16) 0.68120(12)
N2_7 N 0.32733(16) 0.59728(17) 0.74239(11)
N4_7 N 0.33126(17) 0.58700(19) 0.61821(12)
C1_7 C 0.66441(18) 0.90201(19) 0.68124(12)
C2_7 C 0.17802(19) 0.6561(2) 0.67827(14)
C3_7 C 0.10279(19) 0.6897(2) 0.68038(14)
C4_7 C 0.4010(2) 0.5131(2) 0.27082(14)
H1_3 H 0.4355 0.4912 0.2503
C5_7 C 0.3434(2) 0.5500(2) 0.83238(14)
C6_7 C 0.3595(2) 0.53062(19) 0.34785(14)
C7_7 C 0.4097(2) 0.5003(2) 0.31664(14)
H2_3 H 0.4499 0.4708 0.3271
C8_7 C 0.62514(19) 0.8301(2) 0.68203(14)
C9_7 C 0.3552(2) 0.5256(2) 0.87922(14)
C10_7 C 0.2979(2) 0.5856(2) 0.28339(15)
H3_7 H 0.2587 0.6153 0.2717
C11_7 C 0.3025(2) 0.5760(2) 0.32983(15)
H4_7 H 0.2678 0.5995 0.3496
C13_7 C 0.4619(2) 0.6873(2) 0.67951(15)
C14_7 C 0.3617(2) 0.5178(2) 0.96434(15)
C16_7 C 0.2989(2) 0.6360(2) 0.77739(15)
H5_7 H 0.2727 0.6801 0.7709
C18_7 C 0.3061(3) 0.6146(2) 0.82204(15)
H7_7 H 0.2857 0.6439 0.8458
C19_3 C 0.3941(2) 0.4660(2) 0.89474(15)
H8_3 H 0.4165 0.4309 0.8751
C20_7 C 0.5316(2) 0.7315(2) 0.68179(16)
C21_7 C 0.3621(3) 0.5346(2) 0.75212(15)
H9_7 H 0.3818 0.5061 0.7278
C22_7 C 0.3706(3) 0.5095(2) 0.79614(15)
H10_3 H 0.3952 0.4642 0.8016
C24_7 C 0.3670(2) 0.5145(2) 0.39658(15)
C27_7 C 0.0358(2) 0.6545(2) 0.68211(19)
H14_7 H 0.0306 0.6027 0.6826
C29_7 C 0.3505(3) 0.5387(2) 0.52834(16)
C30_3 C 0.3977(2) 0.4620(2) 0.94262(16)
H15_3 H 0.4231 0.4239 0.9584
C31_7 C 0.3628(3) 0.5171(2) 0.48073(16)
C33_7 C 0.6027(2) 0.7063(2) 0.6875(2)
H17_7 H 0.6148 0.6559 0.6911
C34_7 C 0.6562(2) 0.7624(2) 0.6876(2)
H18_7 H 0.7083 0.7542 0.6911
C35_3 C 0.4050(4) 0.4575(3) 0.41613(18)
H19_3 H 0.4313 0.4214 0.3992
C36_7 C 0.3782(4) 0.5329(3) 0.60806(18)
H20_7 H 0.4064 0.5110 0.6319
C37_3 C 0.4012(4) 0.4582(3) 0.46410(19)
H21_3 H 0.4230 0.4215 0.4829
C38_7 C 0.2922(3) 0.6123(5) 0.58405(19)
H22_7 H 0.2556 0.6485 0.5906
C39_7 C 0.3874(5) 0.5073(3) 0.56381(19)
H23_3 H 0.4201 0.4672 0.5583
C40_7 C 0.2999(4) 0.5908(4) 0.5392(2)
H24_7 H 0.2698 0.6125 0.5162
O10_4 O 0.87870(15) 0.83060(15) 0.68151(10)
O11_4 O 0.97747(16) 0.90314(14) 0.68050(10)
C12_7 C 0.9494(2) 0.8412(2) 0.68140(15)
C28_7 C 0.9966(2) 0.7750(2) 0.68223(15)
C32_7 C 0.9749(2) 0.7035(2) 0.6831(2)
H16_7 H 0.9241 0.6883 0.6842
C15_8 C 0.1439(2) 0.4679(2) 0.01306(15)
C17_8 C 0.2026(3) 0.4152(2) 0.07900(15)
H6_8 H 0.2420 0.3863 0.0912
C23_8 C 0.0988(2) 0.4857(3) 0.08911(15)
H11_4 H 0.0625 0.5069 0.1088
C25_8 C 0.0928(2) 0.4981(3) 0.04365(16)
H12_4 H 0.0533 0.5279 0.0325
C26_8 C 0.1988(3) 0.4243(2) 0.03222(16)
H13_8 H 0.2342 0.4005 0.0131
Zn2_8 Zn 0.17481(2) 0.35990(3) 0.67917(2)
S2_8 S 0.40809(5) 0.21669(5) 0.68094(3)
S3_8 S 0.17792(6) 0.42329(6) 0.92495(4)
S4_8 S 0.17210(6) 0.43032(6) 0.43715(4)
O1_8 O 0.26709(13) 0.29934(14) 0.67685(10)
O2_8 O 0.09934(13) 0.27849(14) 0.67613(10)
O4_4 O 0.62130(15) 0.16940(15) 0.68151(10)
O5_8 O 0.31673(14) 0.41117(15) 0.67805(11)
O6_4 O 0.52253(16) 0.09686(14) 0.68050(10)
O7_8 O 0.03345(14) 0.38070(14) 0.68123(12)
N2_8 N 0.17267(16) 0.40272(17) 0.74239(11)
N4_8 N 0.16874(17) 0.41300(19) 0.61821(12)
C2_8 C 0.32198(19) 0.3439(2) 0.67827(14)
C3_8 C 0.39721(19) 0.3103(2) 0.68038(14)
C4_8 C 0.0990(2) 0.4869(2) 0.27082(14)
H1_4 H 0.0645 0.5088 0.2503
C5_8 C 0.1566(2) 0.4500(2) 0.83238(14)
C6_8 C 0.1405(2) 0.46938(19) 0.34785(14)
C7_8 C 0.0903(2) 0.4997(2) 0.31664(14)
H2_4 H 0.0501 0.5292 0.3271
C9_8 C 0.1448(2) 0.4744(2) 0.87922(14)
C10_8 C 0.2021(2) 0.4144(2) 0.28339(15)
H3_8 H 0.2413 0.3847 0.2717
C11_8 C 0.1975(2) 0.4240(2) 0.32983(15)
H4_8 H 0.2322 0.4005 0.3496
C12_8 C 0.5506(2) 0.1588(2) 0.68140(15)
C13_8 C 0.0381(2) 0.3127(2) 0.67951(15)
C14_8 C 0.1383(2) 0.4822(2) 0.96434(15)
C16_8 C 0.2011(2) 0.3640(2) 0.77739(15)
H5_8 H 0.2273 0.3199 0.7709
C18_8 C 0.1939(3) 0.3854(2) 0.82204(15)
H7_8 H 0.2143 0.3561 0.8458
C19_4 C 0.1059(2) 0.5340(2) 0.89474(15)
H8_4 H 0.0835 0.5691 0.8751
C21_8 C 0.1379(3) 0.4654(2) 0.75212(15)
H9_8 H 0.1182 0.4939 0.7278
C22_8 C 0.1294(3) 0.4905(2) 0.79614(15)
H10_4 H 0.1048 0.5358 0.8016
C24_8 C 0.1330(2) 0.4855(2) 0.39658(15)
C27_8 C 0.4642(2) 0.3455(2) 0.68211(19)
H14_8 H 0.4694 0.3973 0.6826
C28_8 C 0.5034(2) 0.2250(2) 0.68223(15)
C29_8 C 0.1495(3) 0.4613(2) 0.52834(16)
C30_4 C 0.1023(2) 0.5380(2) 0.94262(16)
H15_4 H 0.0769 0.5761 0.9584
C31_8 C 0.1372(3) 0.4829(2) 0.48073(16)
C32_8 C 0.5251(2) 0.2965(2) 0.6831(2)
H16_8 H 0.5759 0.3117 0.6842
C35_4 C 0.0950(4) 0.5425(3) 0.41613(18)
H19_4 H 0.0687 0.5786 0.3992
C36_8 C 0.1218(4) 0.4671(3) 0.60806(18)
H20_8 H 0.0936 0.4890 0.6319
C37_4 C 0.0988(4) 0.5418(3) 0.46410(19)
H21_4 H 0.0770 0.5785 0.4829
C38_8 C 0.2078(3) 0.3877(5) 0.58405(19)
H22_8 H 0.2444 0.3515 0.5906
C39_8 C 0.1126(5) 0.4927(3) 0.56381(19)
H23_4 H 0.0799 0.5328 0.5583
C40_8 C 0.2001(4) 0.4092(4) 0.5392(2)
H24_8 H 0.2302 0.3875 0.5162
S1_8 S 0.97023(4) 0.17451(4) 0.67757(4)
O8_8 O 0.76606(15) 0.09986(16) 0.68120(12)
C1_8 C 0.83559(18) 0.09799(19) 0.68124(12)
C8_8 C 0.87486(19) 0.1699(2) 0.68203(14)
C20_8 C 0.9684(2) 0.2685(2) 0.68179(16)
C33_8 C 0.8973(2) 0.2937(2) 0.6875(2)
H17_8 H 0.8852 0.3441 0.6911
C34_8 C 0.8438(2) 0.2376(2) 0.6876(2)
H18_8 H 0.7917 0.2458 0.6911
C19_5 C 0.8941(2) 0.0340(2) 0.39474(15)
H8_5 H 0.9165 0.0691 0.3751
H10_5 H 0.8952 0.0358 0.3016
H11_5 H 0.9375 0.0069 0.6088
H12_5 H 0.9467 0.0279 0.5325
C30_5 C 0.8977(2) 0.0380(2) 0.44262(16)
H15_5 H 0.9231 0.0761 0.4584
H23_5 H 0.9201 0.0328 0.0583
H1_5 H 0.9355 0.0088 0.7503
H2_5 H 0.9499 0.0292 0.8271
C35_5 C 0.9050(4) 0.0425(3) 0.91613(18)
H19_5 H 0.9313 0.0786 0.8992
C37_5 C 0.9012(4) 0.0418(3) 0.96410(19)
H21_5 H 0.9230 0.0785 0.9829
C19_6 C 0.6059(2) 0.9660(2) 0.39474(15)
H8_6 H 0.5835 0.9309 0.3751
H10_6 H 0.6048 0.9642 0.3016
H11_6 H 0.5625 0.9931 0.6088
H12_6 H 0.5533 0.9721 0.5325
C30_6 C 0.6023(2) 0.9620(2) 0.44262(16)
H15_6 H 0.5769 0.9239 0.4584
H23_6 H 0.5799 0.9672 0.0583
H1_6 H 0.5645 0.9912 0.7503
H2_6 H 0.5501 0.9708 0.8271
C35_6 C 0.5950(4) 0.9575(3) 0.91613(18)
H19_6 H 0.5687 0.9214 0.8992
C37_6 C 0.5988(4) 0.9582(3) 0.96410(19)
H21_6 H 0.5770 0.9215 0.9829
H1_7 H 0.0645 0.9912 0.2497
H2_7 H 0.0501 0.9708 0.1729
C35_7 C 0.0950(4) 0.9575(3) 0.08387(18)
H19_7 H 0.0687 0.9214 0.1008
C37_7 C 0.0988(4) 0.9582(3) 0.03590(19)
H21_7 H 0.0770 0.9215 0.0171
C19_7 C 0.1059(2) 0.9660(2) 0.60526(15)
H8_7 H 0.0835 0.9309 0.6249
H10_7 H 0.1048 0.9642 0.6984
H11_7 H 0.0625 0.9931 0.3912
H12_7 H 0.0533 0.9721 0.4675
C30_7 C 0.1023(2) 0.9620(2) 0.55738(16)
H15_7 H 0.0769 0.9239 0.5416
H23_7 H 0.0799 0.9672 0.9417
H1_8 H 0.4355 0.0088 0.2497
H2_8 H 0.4499 0.0292 0.1729
C35_8 C 0.4050(4) 0.0425(3) 0.08387(18)
H19_8 H 0.4313 0.0786 0.1008
C37_8 C 0.4012(4) 0.0418(3) 0.03590(19)
H21_8 H 0.4230 0.0785 0.0171
C19_8 C 0.3941(2) 0.0340(2) 0.60526(15)
H8_8 H 0.4165 0.0691 0.6249
H10_8 H 0.3952 0.0358 0.6984
H11_8 H 0.4375 0.0069 0.3912
H12_8 H 0.4467 0.0279 0.4675
C30_8 C 0.3977(2) 0.0380(2) 0.55738(16)
H15_8 H 0.4231 0.0761 0.5416
H23_8 H 0.4201 0.0328 0.9417
loop_
_geom_bond_atom_site_label_1
_geom_bond_atom_site_label_2
_geom_bond_site_symmetry_1
_geom_bond_site_symmetry_2
O4 C12 1_555 1_555
O6 C12 1_555 1_555
C12 C28 1_555 1_555
H16 C32 1_555 1_555
Zn3 O4 1_555 1_555
O6 Zn3 1_555 1_555
C28 C32 1_555 1_555
Zn3 O8 1_555 1_555
Zn2 O1 1_555 1_555
S1 C8 1_555 1_555
S2 C3 1_555 1_555
S3 C9 1_555 1_555
S4 C24 1_555 1_555
O1 C2 1_555 1_555
O2 Zn2 1_555 1_555
O3 C1 1_555 1_555
O5 C2 1_555 1_555
O7 Zn2 1_555 1_555
O8 C1 1_555 1_555
N1 C4 1_555 1_555
N2 Zn2 1_555 1_555
N4 Zn2 1_555 1_555
C1 C8 1_555 1_555
C2 C3 1_555 1_555
C3 C27 1_555 1_555
C4 H1 1_555 1_555
C5 C9 1_555 1_555
C6 C7 1_555 1_555
C7 C4 1_555 1_555
H2 C7 1_555 1_555
C8 C34 1_555 1_555
C9 C19 1_555 1_555
C10 N1 1_555 1_555
H3 C10 1_555 1_555
C11 C6 1_555 1_555
H4 C11 1_555 1_555
C13 O2 1_555 1_555
C14 S3 1_555 1_555
C16 N2 1_555 1_555
H5 C16 1_555 1_555
C18 C5 1_555 1_555
H7 C18 1_555 1_555
C19 H8 1_555 1_555
C20 S1 1_555 1_555
C21 N2 1_555 1_555
H9 C21 1_555 1_555
C22 C5 1_555 1_555
H10 C22 1_555 1_555
C24 C6 1_555 1_555
C27 H14 1_555 1_555
C29 C31 1_555 1_555
C30 C14 1_555 1_555
H15 C30 1_555 1_555
C31 S4 1_555 1_555
C33 C20 1_555 1_555
H17 C33 1_555 1_555
C34 C33 1_555 1_555
H18 C34 1_555 1_555
C35 C24 1_555 1_555
H19 C35 1_555 1_555
C36 N4 1_555 1_555
H20 C36 1_555 1_555
C37 C31 1_555 1_555
H21 C37 1_555 1_555
C38 N4 1_555 1_555
H22 C38 1_555 1_555
C39 C29 1_555 1_555
H23 C39 1_555 1_555
C40 C29 1_555 1_555
H24 C40 1_555 1_555
Zn6 N1 1_555 1_555
N5 Zn3 1_555 1_555
N6 Zn3 1_555 1_555
O7 C13 1_555 1_555
C10 C11 1_555 1_555
C13 C20 1_555 1_555
C16 C18 1_555 1_555
C19 C30 1_555 1_555
C21 C22 1_555 1_555
C35 C37 1_555 1_555
C36 C39 1_555 1_555
C38 C40 1_555 1_555
N3 C17 1_555 1_555
C17 H6 1_555 1_555
C23 N3 1_555 1_555
H11 C23 1_555 1_555
C25 C15 1_555 1_555
H12 C25 1_555 1_555
C26 C15 1_555 1_555
H13 C26 1_555 1_555
Zn6 N3 1_555 1_555
C17 C26 1_555 1_555
C23 C25 1_555 1_555
Zn4 O8_2 1_555 1_555
S1_2 C8_2 1_555 1_555
O9 C1_2 1_555 1_555
O8_2 C1_2 1_555 1_555
C1_2 C8_2 1_555 1_555
C8_2 C34_2 1_555 1_555
C20_2 S1_2 1_555 1_555
C33_2 C20_2 1_555 1_555
H17_2 C33_2 1_555 1_555
C34_2 C33_2 1_555 1_555
H18_2 C34_2 1_555 1_555
O10 Zn4 1_555 1_555
O11 Zn4 1_555 1_555
N5_2 Zn4 1_555 1_555
N6_2 Zn4 1_555 1_555
Zn2_2 O1_2 1_555 1_555
S2_2 C3_2 1_555 1_555
S3_2 C9_2 1_555 1_555
S4_2 C24_2 1_555 1_555
O1_2 C2_2 1_555 1_555
O2_2 Zn2_2 1_555 1_555
O10 C12_2 1_555 1_555
O5_2 C2_2 1_555 1_555
O11 C12_2 1_555 1_555
O7_2 Zn2_2 1_555 1_555
N1_2 C4_2 1_555 1_555
N2_2 Zn2_2 1_555 1_555
N4_2 Zn2_2 1_555 1_555
C2_2 C3_2 1_555 1_555
C3_2 C27_2 1_555 1_555
C4_2 H1_2 1_555 1_555
C5_2 C9_2 1_555 1_555
C6_2 C7_2 1_555 1_555
C7_2 C4_2 1_555 1_555
H2_2 C7_2 1_555 1_555
C9_2 C19_2 1_555 1_555
C10_2 N1_2 1_555 1_555
H3_2 C10_2 1_555 1_555
C11_2 C6_2 1_555 1_555
H4_2 C11_2 1_555 1_555
C12_2 C28_2 1_555 1_555
C13_2 O2_2 1_555 1_555
C14_2 S3_2 1_555 1_555
C16_2 N2_2 1_555 1_555
H5_2 C16_2 1_555 1_555
C18_2 C5_2 1_555 1_555
H7_2 C18_2 1_555 1_555
C19_2 H8_2 1_555 1_555
C21_2 N2_2 1_555 1_555
H9_2 C21_2 1_555 1_555
C22_2 C5_2 1_555 1_555
H10_2 C22_2 1_555 1_555
C24_2 C6_2 1_555 1_555
C27_2 H14_2 1_555 1_555
C28_2 S2_2 1_555 1_555
C29_2 C31_2 1_555 1_555
C30_2 C14_2 1_555 1_555
H15_2 C30_2 1_555 1_555
C31_2 S4_2 1_555 1_555
C32_2 C27_2 1_555 1_555
H16_2 C32_2 1_555 1_555
C35_2 C24_2 1_555 1_555
H19_2 C35_2 1_555 1_555
C36_2 N4_2 1_555 1_555
H20_2 C36_2 1_555 1_555
C37_2 C31_2 1_555 1_555
H21_2 C37_2 1_555 1_555
C38_2 N4_2 1_555 1_555
H22_2 C38_2 1_555 1_555
C39_2 C29_2 1_555 1_555
H23_2 C39_2 1_555 1_555
C40_2 C29_2 1_555 1_555
H24_2 C40_2 1_555 1_555
Zn6_2 N1_2 1_555 1_555
O7_2 C13_2 1_555 1_555
C10_2 C11_2 1_555 1_555
C16_2 C18_2 1_555 1_555
C19_2 C30_2 1_555 1_555
C21_2 C22_2 1_555 1_555
C28_2 C32_2 1_555 1_555
C35_2 C37_2 1_555 1_555
C36_2 C39_2 1_555 1_555
C38_2 C40_2 1_555 1_555
N3_2 C17_2 1_555 1_555
C17_2 H6_2 1_555 1_555
C23_2 N3_2 1_555 1_555
H11_2 C23_2 1_555 1_555
C25_2 C15_2 1_555 1_555
H12_2 C25_2 1_555 1_555
C26_2 C15_2 1_555 1_555
H13_2 C26_2 1_555 1_555
Zn6_2 N3_2 1_555 1_555
C17_2 C26_2 1_555 1_555
C23_2 C25_2 1_555 1_555
S4_3 C24_3 1_555 1_555
N5 C4_3 1_555 1_555
C6_3 C7_3 1_555 1_555
C7_3 C4_3 1_555 1_555
C10_3 N5 1_555 1_555
H3_3 C10_3 1_555 1_555
C11_3 C6_3 1_555 1_555
H4_3 C11_3 1_555 1_555
C24_3 C6_3 1_555 1_555
C31_3 S4_3 1_555 1_555
C10_3 C11_3 1_555 1_555
Zn2_3 O1_3 1_555 1_555
S2_3 C3_3 1_555 1_555
S3_3 C9_3 1_555 1_555
O1_3 C2_3 1_555 1_555
O2_3 Zn2_3 1_555 1_555
O4_2 C12_3 1_555 1_555
O5_3 C2_3 1_555 1_555
O6_2 C12_3 1_555 1_555
O7_3 Zn2_3 1_555 1_555
N2_3 Zn2_3 1_555 1_555
N6 C17_3 1_555 1_555
N4_3 Zn2_3 1_555 1_555
C2_3 C3_3 1_555 1_555
C3_3 C27_3 1_555 1_555
C5_3 C9_3 1_555 1_555
C12_3 C28_3 1_555 1_555
C13_3 O2_3 1_555 1_555
C14_3 S3_3 1_555 1_555
C15_3 C14_3 1_555 1_555
C16_3 N2_3 1_555 1_555
H5_3 C16_3 1_555 1_555
C17_3 H6_3 1_555 1_555
C18_3 C5_3 1_555 1_555
H7_3 C18_3 1_555 1_555
C21_3 N2_3 1_555 1_555
H9_3 C21_3 1_555 1_555
C22_3 C5_3 1_555 1_555
C23_3 N6 1_555 1_555
C25_3 C15_3 1_555 1_555
C26_3 C15_3 1_555 1_555
H13_3 C26_3 1_555 1_555
C27_3 H14_3 1_555 1_555
C28_3 S2_3 1_555 1_555
C32_3 C27_3 1_555 1_555
H16_3 C32_3 1_555 1_555
C36_3 N4_3 1_555 1_555
H20_3 C36_3 1_555 1_555
C38_3 N4_3 1_555 1_555
H22_3 C38_3 1_555 1_555
C39_3 C29_3 1_555 1_555
C40_3 C29_3 1_555 1_555
H24_3 C40_3 1_555 1_555
Zn6 O4_2 1_555 1_555
O6_2 Zn6 1_555 1_555
O7_3 C13_3 1_555 1_555
C16_3 C18_3 1_555 1_555
C17_3 C26_3 1_555 1_555
C21_3 C22_3 1_555 1_555
C23_3 C25_3 1_555 1_555
C28_3 C32_3 1_555 1_555
C36_3 C39_3 1_555 1_555
C38_3 C40_3 1_555 1_555
Zn6 O8_3 1_555 1_555
S1_3 C8_3 1_555 1_555
O3_2 C1_3 1_555 1_555
O8_3 C1_3 1_555 1_555
C1_3 C8_3 1_555 1_555
C8_3 C34_3 1_555 1_555
C20_3 S1_3 1_555 1_555
C33_3 C20_3 1_555 1_555
H17_3 C33_3 1_555 1_555
C34_3 C33_3 1_555 1_555
H18_3 C34_3 1_555 1_555
Zn6_2 O3_2 1_555 1_555
O9_2 Zn6 1_555 1_555
S4_4 C24_4 1_555 1_555
N5_2 C4_4 1_555 1_555
C6_4 C7_4 1_555 1_555
C7_4 C4_4 1_555 1_555
C10_4 N5_2 1_555 1_555
H3_4 C10_4 1_555 1_555
C11_4 C6_4 1_555 1_555
H4_4 C11_4 1_555 1_555
C24_4 C6_4 1_555 1_555
C31_4 S4_4 1_555 1_555
C10_4 C11_4 1_555 1_555
Zn6_2 O8_4 1_555 1_555
Zn2_4 O1_4 1_555 1_555
S1_4 C8_4 1_555 1_555
S2_4 C3_4 1_555 1_555
S3_4 C9_4 1_555 1_555
O1_4 C2_4 1_555 1_555
O2_4 Zn2_4 1_555 1_555
O9_2 C1_4 1_555 1_555
O5_4 C2_4 1_555 1_555
O7_4 Zn2_4 1_555 1_555
O8_4 C1_4 1_555 1_555
N2_4 Zn2_4 1_555 1_555
N6_2 C17_4 1_555 1_555
N4_4 Zn2_4 1_555 1_555
C1_4 C8_4 1_555 1_555
C2_4 C3_4 1_555 1_555
C3_4 C27_4 1_555 1_555
C5_4 C9_4 1_555 1_555
C8_4 C34_4 1_555 1_555
C13_4 O2_4 1_555 1_555
C14_4 S3_4 1_555 1_555
C15_4 C14_4 1_555 1_555
C16_4 N2_4 1_555 1_555
H5_4 C16_4 1_555 1_555
C17_4 H6_4 1_555 1_555
C18_4 C5_4 1_555 1_555
H7_4 C18_4 1_555 1_555
C20_4 S1_4 1_555 1_555
C21_4 N2_4 1_555 1_555
H9_4 C21_4 1_555 1_555
C22_4 C5_4 1_555 1_555
C23_4 N6_2 1_555 1_555
C25_4 C15_4 1_555 1_555
C26_4 C15_4 1_555 1_555
H13_4 C26_4 1_555 1_555
C27_4 H14_4 1_555 1_555
C33_4 C20_4 1_555 1_555
H17_4 C33_4 1_555 1_555
C34_4 C33_4 1_555 1_555
H18_4 C34_4 1_555 1_555
C36_4 N4_4 1_555 1_555
H20_4 C36_4 1_555 1_555
C38_4 N4_4 1_555 1_555
H22_4 C38_4 1_555 1_555
C39_4 C29_4 1_555 1_555
C40_4 C29_4 1_555 1_555
H24_4 C40_4 1_555 1_555
O10_2 Zn6_2 1_555 1_555
O11_2 Zn6_2 1_555 1_555
O7_4 C13_4 1_555 1_555
C13_4 C20_4 1_555 1_555
C16_4 C18_4 1_555 1_555
C17_4 C26_4 1_555 1_555
C21_4 C22_4 1_555 1_555
C23_4 C25_4 1_555 1_555
C36_4 C39_4 1_555 1_555
C38_4 C40_4 1_555 1_555
O10_2 C12_4 1_555 1_555
O11_2 C12_4 1_555 1_555
C12_4 C28_4 1_555 1_555
H16_4 C32_4 1_555 1_555
C28_4 C32_4 1_555 1_555
Zn1 O8_5 1_555 1_555
S1_5 C8_5 1_555 1_555
O3_3 C1_5 1_555 1_555
O8_5 C1_5 1_555 1_555
C1_5 C8_5 1_555 1_555
C8_5 C34_5 1_555 1_555
C20_5 S1_5 1_555 1_555
C33_5 C20_5 1_555 1_555
H17_5 C33_5 1_555 1_555
C34_5 C33_5 1_555 1_555
H18_5 C34_5 1_555 1_555
Zn4_2 O3_3 1_555 1_555
O9_3 Zn1 1_555 1_555
O10_3 Zn1 1_555 1_555
O11_3 Zn1 1_555 1_555
N5_3 Zn1 1_555 1_555
N6_3 Zn1 1_555 1_555
Zn2_5 O1_5 1_555 1_555
S2_5 C3_5 1_555 1_555
S3_5 C9_5 1_555 1_555
O1_5 C2_5 1_555 1_555
O2_5 Zn2_5 1_555 1_555
O10_3 C12_5 1_555 1_555
O5_5 C2_5 1_555 1_555
O11_3 C12_5 1_555 1_555
O7_5 Zn2_5 1_555 1_555
N2_5 Zn2_5 1_555 1_555
N3_3 C17_5 1_555 1_555
N4_5 Zn2_5 1_555 1_555
C2_5 C3_5 1_555 1_555
C3_5 C27_5 1_555 1_555
C5_5 C9_5 1_555 1_555
C12_5 C28_5 1_555 1_555
C13_5 O2_5 1_555 1_555
C14_5 S3_5 1_555 1_555
C15_5 C14_5 1_555 1_555
C16_5 N2_5 1_555 1_555
H5_5 C16_5 1_555 1_555
C17_5 H6_5 1_555 1_555
C18_5 C5_5 1_555 1_555
H7_5 C18_5 1_555 1_555
C21_5 N2_5 1_555 1_555
H9_5 C21_5 1_555 1_555
C22_5 C5_5 1_555 1_555
C23_5 N3_3 1_555 1_555
C25_5 C15_5 1_555 1_555
C26_5 C15_5 1_555 1_555
H13_5 C26_5 1_555 1_555
C27_5 H14_5 1_555 1_555
C28_5 S2_5 1_555 1_555
C32_5 C27_5 1_555 1_555
H16_5 C32_5 1_555 1_555
C36_5 N4_5 1_555 1_555
H20_5 C36_5 1_555 1_555
C38_5 N4_5 1_555 1_555
H22_5 C38_5 1_555 1_555
C39_5 C29_5 1_555 1_555
C40_5 C29_5 1_555 1_555
H24_5 C40_5 1_555 1_555
Zn5 N3_3 1_555 1_555
O7_5 C13_5 1_555 1_555
C16_5 C18_5 1_555 1_555
C17_5 C26_5 1_555 1_555
C21_5 C22_5 1_555 1_555
C23_5 C25_5 1_555 1_555
C28_5 C32_5 1_555 1_555
C36_5 C39_5 1_555 1_555
C38_5 C40_5 1_555 1_555
S4_5 C24_5 1_555 1_555
N1_3 C4_5 1_555 1_555
C6_5 C7_5 1_555 1_555
C7_5 C4_5 1_555 1_555
C10_5 N1_3 1_555 1_555
H3_5 C10_5 1_555 1_555
C11_5 C6_5 1_555 1_555
H4_5 C11_5 1_555 1_555
C24_5 C6_5 1_555 1_555
C31_5 S4_5 1_555 1_555
Zn5 N1_3 1_555 1_555
C10_5 C11_5 1_555 1_555
O4_3 C12_6 1_555 1_555
O6_3 C12_6 1_555 1_555
C12_6 C28_6 1_555 1_555
H16_6 C32_6 1_555 1_555
Zn4_2 O4_3 1_555 1_555
O6_3 Zn4_2 1_555 1_555
C28_6 C32_6 1_555 1_555
Zn4_2 O8_6 1_555 1_555
Zn2_6 O1_6 1_555 1_555
S1_6 C8_6 1_555 1_555
S2_6 C3_6 1_555 1_555
S3_6 C9_6 1_555 1_555
O1_6 C2_6 1_555 1_555
O2_6 Zn2_6 1_555 1_555
O9_3 C1_6 1_555 1_555
O5_6 C2_6 1_555 1_555
O7_6 Zn2_6 1_555 1_555
O8_6 C1_6 1_555 1_555
N2_6 Zn2_6 1_555 1_555
N3_4 C17_6 1_555 1_555
N4_6 Zn2_6 1_555 1_555
C1_6 C8_6 1_555 1_555
C2_6 C3_6 1_555 1_555
C3_6 C27_6 1_555 1_555
C5_6 C9_6 1_555 1_555
C8_6 C34_6 1_555 1_555
C13_6 O2_6 1_555 1_555
C14_6 S3_6 1_555 1_555
C15_6 C14_6 1_555 1_555
C16_6 N2_6 1_555 1_555
H5_6 C16_6 1_555 1_555
C17_6 H6_6 1_555 1_555
C18_6 C5_6 1_555 1_555
H7_6 C18_6 1_555 1_555
C20_6 S1_6 1_555 1_555
C21_6 N2_6 1_555 1_555
H9_6 C21_6 1_555 1_555
C22_6 C5_6 1_555 1_555
C23_6 N3_4 1_555 1_555
C25_6 C15_6 1_555 1_555
C26_6 C15_6 1_555 1_555
H13_6 C26_6 1_555 1_555
C27_6 H14_6 1_555 1_555
C33_6 C20_6 1_555 1_555
H17_6 C33_6 1_555 1_555
C34_6 C33_6 1_555 1_555
H18_6 C34_6 1_555 1_555
C36_6 N4_6 1_555 1_555
H20_6 C36_6 1_555 1_555
C38_6 N4_6 1_555 1_555
H22_6 C38_6 1_555 1_555
C39_6 C29_6 1_555 1_555
C40_6 C29_6 1_555 1_555
H24_6 C40_6 1_555 1_555
Zn5_2 N3_4 1_555 1_555
N5_4 Zn4_2 1_555 1_555
N6_4 Zn4_2 1_555 1_555
O7_6 C13_6 1_555 1_555
C13_6 C20_6 1_555 1_555
C16_6 C18_6 1_555 1_555
C17_6 C26_6 1_555 1_555
C21_6 C22_6 1_555 1_555
C23_6 C25_6 1_555 1_555
C36_6 C39_6 1_555 1_555
C38_6 C40_6 1_555 1_555
S4_6 C24_6 1_555 1_555
N1_4 C4_6 1_555 1_555
C6_6 C7_6 1_555 1_555
C7_6 C4_6 1_555 1_555
C10_6 N1_4 1_555 1_555
H3_6 C10_6 1_555 1_555
C11_6 C6_6 1_555 1_555
H4_6 C11_6 1_555 1_555
C24_6 C6_6 1_555 1_555
C31_6 S4_6 1_555 1_555
Zn5_2 N1_4 1_555 1_555
C10_6 C11_6 1_555 1_555
N6_3 C17_7 1_555 1_555
C17_7 H6_7 1_555 1_555
C23_7 N6_3 1_555 1_555
H11_3 C23_7 1_555 1_555
C25_7 C15_7 1_555 1_555
H12_3 C25_7 1_555 1_555
C26_7 C15_7 1_555 1_555
H13_7 C26_7 1_555 1_555
C17_7 C26_7 1_555 1_555
C23_7 C25_7 1_555 1_555
Zn5 O8_7 1_555 1_555
Zn2_7 O1_7 1_555 1_555
S1_7 C8_7 1_555 1_555
S2_7 C3_7 1_555 1_555
S3_7 C9_7 1_555 1_555
S4_7 C24_7 1_555 1_555
O1_7 C2_7 1_555 1_555
O2_7 Zn2_7 1_555 1_555
O3_4 C1_7 1_555 1_555
O5_7 C2_7 1_555 1_555
O7_7 Zn2_7 1_555 1_555
O8_7 C1_7 1_555 1_555
N5_3 C4_7 1_555 1_555
N2_7 Zn2_7 1_555 1_555
N4_7 Zn2_7 1_555 1_555
C1_7 C8_7 1_555 1_555
C2_7 C3_7 1_555 1_555
C3_7 C27_7 1_555 1_555
C4_7 H1_3 1_555 1_555
C5_7 C9_7 1_555 1_555
C6_7 C7_7 1_555 1_555
C7_7 C4_7 1_555 1_555
H2_3 C7_7 1_555 1_555
C8_7 C34_7 1_555 1_555
C9_7 C19_3 1_555 1_555
C10_7 N5_3 1_555 1_555
H3_7 C10_7 1_555 1_555
C11_7 C6_7 1_555 1_555
H4_7 C11_7 1_555 1_555
C13_7 O2_7 1_555 1_555
C14_7 S3_7 1_555 1_555
C16_7 N2_7 1_555 1_555
H5_7 C16_7 1_555 1_555
C18_7 C5_7 1_555 1_555
H7_7 C18_7 1_555 1_555
C19_3 H8_3 1_555 1_555
C20_7 S1_7 1_555 1_555
C21_7 N2_7 1_555 1_555
H9_7 C21_7 1_555 1_555
C22_7 C5_7 1_555 1_555
H10_3 C22_7 1_555 1_555
C24_7 C6_7 1_555 1_555
C27_7 H14_7 1_555 1_555
C29_7 C31_7 1_555 1_555
C30_3 C14_7 1_555 1_555
H15_3 C30_3 1_555 1_555
C31_7 S4_7 1_555 1_555
C33_7 C20_7 1_555 1_555
H17_7 C33_7 1_555 1_555
C34_7 C33_7 1_555 1_555
H18_7 C34_7 1_555 1_555
C35_3 C24_7 1_555 1_555
H19_3 C35_3 1_555 1_555
C36_7 N4_7 1_555 1_555
H20_7 C36_7 1_555 1_555
C37_3 C31_7 1_555 1_555
H21_3 C37_3 1_555 1_555
C38_7 N4_7 1_555 1_555
H22_7 C38_7 1_555 1_555
C39_7 C29_7 1_555 1_555
H23_3 C39_7 1_555 1_555
C40_7 C29_7 1_555 1_555
H24_7 C40_7 1_555 1_555
O10_4 Zn5 1_555 1_555
O11_4 Zn5 1_555 1_555
O7_7 C13_7 1_555 1_555
C10_7 C11_7 1_555 1_555
C13_7 C20_7 1_555 1_555
C16_7 C18_7 1_555 1_555
C19_3 C30_3 1_555 1_555
C21_7 C22_7 1_555 1_555
C35_3 C37_3 1_555 1_555
C36_7 C39_7 1_555 1_555
C38_7 C40_7 1_555 1_555
O10_4 C12_7 1_555 1_555
O11_4 C12_7 1_555 1_555
C12_7 C28_7 1_555 1_555
H16_7 C32_7 1_555 1_555
C28_7 C32_7 1_555 1_555
N6_4 C17_8 1_555 1_555
C17_8 H6_8 1_555 1_555
C23_8 N6_4 1_555 1_555
H11_4 C23_8 1_555 1_555
C25_8 C15_8 1_555 1_555
H12_4 C25_8 1_555 1_555
C26_8 C15_8 1_555 1_555
H13_8 C26_8 1_555 1_555
C17_8 C26_8 1_555 1_555
C23_8 C25_8 1_555 1_555
Zn2_8 O1_8 1_555 1_555
S2_8 C3_8 1_555 1_555
S3_8 C9_8 1_555 1_555
S4_8 C24_8 1_555 1_555
O1_8 C2_8 1_555 1_555
O2_8 Zn2_8 1_555 1_555
O4_4 C12_8 1_555 1_555
O5_8 C2_8 1_555 1_555
O6_4 C12_8 1_555 1_555
O7_8 Zn2_8 1_555 1_555
N5_4 C4_8 1_555 1_555
N2_8 Zn2_8 1_555 1_555
N4_8 Zn2_8 1_555 1_555
C2_8 C3_8 1_555 1_555
C3_8 C27_8 1_555 1_555
C4_8 H1_4 1_555 1_555
C5_8 C9_8 1_555 1_555
C6_8 C7_8 1_555 1_555
C7_8 C4_8 1_555 1_555
H2_4 C7_8 1_555 1_555
C9_8 C19_4 1_555 1_555
C10_8 N5_4 1_555 1_555
H3_8 C10_8 1_555 1_555
C11_8 C6_8 1_555 1_555
H4_8 C11_8 1_555 1_555
C12_8 C28_8 1_555 1_555
C13_8 O2_8 1_555 1_555
C14_8 S3_8 1_555 1_555
C16_8 N2_8 1_555 1_555
H5_8 C16_8 1_555 1_555
C18_8 C5_8 1_555 1_555
H7_8 C18_8 1_555 1_555
C19_4 H8_4 1_555 1_555
C21_8 N2_8 1_555 1_555
H9_8 C21_8 1_555 1_555
C22_8 C5_8 1_555 1_555
H10_4 C22_8 1_555 1_555
C24_8 C6_8 1_555 1_555
C27_8 H14_8 1_555 1_555
C28_8 S2_8 1_555 1_555
C29_8 C31_8 1_555 1_555
C30_4 C14_8 1_555 1_555
H15_4 C30_4 1_555 1_555
C31_8 S4_8 1_555 1_555
C32_8 C27_8 1_555 1_555
H16_8 C32_8 1_555 1_555
C35_4 C24_8 1_555 1_555
H19_4 C35_4 1_555 1_555
C36_8 N4_8 1_555 1_555
H20_8 C36_8 1_555 1_555
C37_4 C31_8 1_555 1_555
H21_4 C37_4 1_555 1_555
C38_8 N4_8 1_555 1_555
H22_8 C38_8 1_555 1_555
C39_8 C29_8 1_555 1_555
H23_4 C39_8 1_555 1_555
C40_8 C29_8 1_555 1_555
H24_8 C40_8 1_555 1_555
Zn5_2 O4_4 1_555 1_555
O6_4 Zn5_2 1_555 1_555
O7_8 C13_8 1_555 1_555
C10_8 C11_8 1_555 1_555
C16_8 C18_8 1_555 1_555
C19_4 C30_4 1_555 1_555
C21_8 C22_8 1_555 1_555
C28_8 C32_8 1_555 1_555
C35_4 C37_4 1_555 1_555
C36_8 C39_8 1_555 1_555
C38_8 C40_8 1_555 1_555
Zn5_2 O8_8 1_555 1_555
S1_8 C8_8 1_555 1_555
O9_4 C1_8 1_555 1_555
O8_8 C1_8 1_555 1_555
C1_8 C8_8 1_555 1_555
C8_8 C34_8 1_555 1_555
C20_8 S1_8 1_555 1_555
C33_8 C20_8 1_555 1_555
H17_8 C33_8 1_555 1_555
C34_8 C33_8 1_555 1_555
H18_8 C34_8 1_555 1_555
C19_5 H8_5 1_555 1_555
H15_5 C30_5 1_555 1_555
C19_5 C30_5 1_555 1_555
H19_5 C35_5 1_555 1_555
H21_5 C37_5 1_555 1_555
C35_5 C37_5 1_555 1_555
C19_6 H8_6 1_555 1_555
H15_6 C30_6 1_555 1_555
C19_6 C30_6 1_555 1_555
H19_6 C35_6 1_555 1_555
H21_6 C37_6 1_555 1_555
C35_6 C37_6 1_555 1_555
H19_7 C35_7 1_555 1_555
H21_7 C37_7 1_555 1_555
C35_7 C37_7 1_555 1_555
C19_7 H8_7 1_555 1_555
H15_7 C30_7 1_555 1_555
C19_7 C30_7 1_555 1_555
H19_8 C35_8 1_555 1_555
H21_8 C37_8 1_555 1_555
C35_8 C37_8 1_555 1_555
C19_8 H8_8 1_555 1_555
H15_8 C30_8 1_555 1_555
C19_8 C30_8 1_555 1_555

#END
