
###############################################################################
#
# This file contains modified crystal structure data generated from the
# MOF subset of the Cambridge Structural Database (CSD) v543 
# hosted by the Cambridge Crystallographic Data Centre (CCDC).
#
# This work is licensed under the Creative Commons
# Attribution-NonCommercial-ShareAlike 4.0 International License.
# To view a copy of this license, visit
# http://creativecommons.org/licenses/by-nc-sa/4.0/
# or send a letter to
# Creative Commons, PO Box 1866, Mountain View, CA 94042, USA.
#
# CIF created using the CSD Python API on 29 September 2022
# The structure has been converted into the P1 space group
# The structure has a 3D framework
# The original CSD entry XEJQAG is in the monoclinic crystal system
# The framework has been calculated to contain at least 10.0% void space
# The void calculation uses a probe of radius 1.32A, grid spacing 0.4
# The framework is charged, counterions have been retained in the structure
#
###############################################################################

data_XEJQAG
_chemical_formula_moiety         '(C84 H76 Cu13 N12 O66 Yb4 1+)n'
_symmetry_cell_setting           triclinic
_symmetry_space_group_name_H-M   'P 1'
_symmetry_Int_Tables_number      1
_space_group_name_Hall           'P 1'
loop_
_symmetry_equiv_pos_site_id
_symmetry_equiv_pos_as_xyz
1 x,y,z
_cell_length_a                   11.711(3)
_cell_length_b                   13.103(4)
_cell_length_c                   19.499(6)
_cell_angle_alpha                90
_cell_angle_beta                 96.755(4)
_cell_angle_gamma                90
_cell_volume                     2971.34
loop_
_atom_site_label
_atom_site_type_symbol
_atom_site_fract_x
_atom_site_fract_y
_atom_site_fract_z
Cu2 Cu 0.0000 0.0000 0.0000
Yb4 Yb 0.369151(12) 0.436798(11) 0.151541(8)
O27 O 0.0359(2) 0.00998(19) 0.13046(12)
O28 O 0.1581(2) 0.04761(16) 0.00379(13)
O29 O 0.26269(18) 0.18933(18) 0.01025(12)
O31 O 0.20121(19) 0.39107(18) 0.08462(12)
O36 O 0.2647(2) 0.04908(18) 0.31658(12)
H24 H 0.3126(8) 0.0724(11) 0.3479(4)
H25 H 0.2863(11) 0.0414(19) 0.2775(3)
H27 H 0.0797(8) 0.0528(5) 0.4653(11)
O38 O 0.0419(2) 0.09952(19) 0.33346(14)
H29 H 0.0650(12) 0.1373(7) 0.3672(4)
C36 C 0.1692(3) 0.1435(2) 0.00815(16)
C37 C 0.0614(3) 0.2049(2) 0.00844(15)
C38 C 0.0554(3) 0.3097(2) 0.01265(16)
C39 C 0.1591(3) 0.3788(2) 0.02256(17)
Cu1 Cu 0.16149(4) 0.41797(3) 0.84517(3)
Cu2_2 Cu 0.0000 0.0000 1.0000
O2 O 0.06689(19) 0.09749(17) 0.65513(13)
O3 O 0.1208(2) 0.2973(2) 0.59583(14)
O4 O 0.1436(2) 0.3529(2) 0.70409(14)
O5 O 0.00207(18) 0.37636(17) 0.84020(12)
N1 N 0.3668(2) 0.06413(19) 0.67328(15)
N2 N 0.1917(2) 0.2709(2) 0.84979(14)
C1 C 0.1625(3) 0.0570(2) 0.65540(17)
C2 C 0.2695(3) 0.1220(2) 0.66593(16)
C3 C 0.2727(3) 0.2267(3) 0.67172(18)
C4 C 0.1667(3) 0.2972(3) 0.65655(18)
C5 C 0.3783(3) 0.2714(3) 0.6886(2)
H11 H 0.3830 0.3418 0.6947
C6 C 0.4778(3) 0.2137(3) 0.6967(2)
H12 H 0.5491 0.2442 0.7085
C7 C 0.4687(3) 0.1105(3) 0.68695(19)
H13 H 0.5354 0.0714 0.6899
C9 C 0.0930(3) 0.2153(2) 0.83996(15)
C10 C 0.0947(3) 0.1108(3) 0.83444(17)
C12 C 0.2023(3) 0.0631(3) 0.8401(2)
C13 C 0.3021(3) 0.1197(3) 0.8503(2)
H15 H 0.3738 0.0885 0.8538
C14 C 0.2921(3) 0.2231(3) 0.85509(18)
H16 H 0.3589 0.2619 0.8624
Yb5 Yb 0.630849(12) 0.563202(11) 0.848459(8)
O18 O 0.3223(2) 0.46135(17) 0.84830(14)
O20 O 0.43311(19) 0.59749(17) 0.84487(13)
O22 O 0.3792(2) 0.7973(2) 0.90417(14)
O23 O 0.3564(2) 0.8529(2) 0.79591(14)
O30 O 0.1905(2) 0.42409(17) 0.97174(12)
N4 N 0.1332(2) 0.56413(19) 0.82672(15)
C22 C 0.3375(3) 0.5570(2) 0.84460(17)
C23 C 0.2305(3) 0.6220(2) 0.83407(16)
C24 C 0.2273(3) 0.7267(3) 0.82828(18)
C25 C 0.3333(3) 0.7972(3) 0.84345(18)
C26 C 0.1217(3) 0.7714(3) 0.8114(2)
H30 H 0.1170 0.8418 0.8053
C27 C 0.0222(3) 0.7137(3) 0.8033(2)
C28 C 0.0313(3) 0.6105(3) 0.81305(19)
Cu2_3 Cu 0.0000 1.0000 0.0000
H19 H 0.2030 0.8503 0.0014
Yb2 Yb 0.130849(12) 0.936798(11) 0.348459(8)
O25 O 0.10739(18) 0.76237(18) 0.15988(12)
O26 O 0.0672(2) 0.95004(17) 0.23636(12)
O33 O 0.29879(19) 0.89107(18) 0.41538(12)
O34 O 0.2282(2) 0.81988(18) 0.28582(12)
H20 H 0.2394(19) 0.7609(5) 0.3018(7)
H21 H 0.1845(9) 0.8246(14) 0.2485(4)
O35 O 0.0949(2) 0.78124(19) 0.39594(14)
H22 H 0.1406(7) 0.7358(6) 0.4130(8)
H23 H 0.0519(6) 0.8057(10) 0.4236(5)
O37 O 0.1127(2) 0.9972(2) 0.45824(13)
H26 H 0.1661(7) 0.9793(10) 0.4885(5)
C29 C 0.0136(3) 0.7201(2) 0.16129(16)
C32 C 0.0132(3) 0.9549(2) 0.17806(18)
Cu2_4 Cu 0.0000 1.0000 1.0000
O1 O 0.1777(2) 0.96135(17) 0.65170(14)
H9 H 0.0298(4) 0.9103(15) 0.6708(12)
N3 N 0.0349(2) 0.8525(2) 0.99729(13)
H14 H 0.2065 0.9924 0.8369
C19 C 0.0531(3) 0.6452(3) 0.99020(18)
H17 H 0.0600 0.5746 0.9877
C20 C 0.1495(3) 0.7057(3) 0.99676(19)
H18 H 0.2222 0.6763 0.9998
C21 C 0.1379(3) 0.8093(3) 0.99883(18)
Cu4 Cu 0.33851(4) 0.91797(3) 0.65483(3)
Cu2_5 Cu 1.0000 0.0000 0.0000
H28 H 0.9702(4) 0.0897(15) 0.3292(12)
N7 N 0.9651(2) 0.1475(2) 0.00271(13)
H33 H 0.7935 0.0076 0.1631
C40 C 0.9469(3) 0.3548(3) 0.00980(18)
H36 H 0.9400 0.4254 0.0123
C41 C 0.8505(3) 0.2943(3) 0.00324(19)
H37 H 0.7778 0.3237 0.0002
C42 C 0.8621(3) 0.1907(3) 0.00117(18)
Yb1 Yb 0.869151(12) 0.063202(11) 0.651541(8)
Cu2_6 Cu 1.0000 0.0000 1.0000
O6 O 0.89261(18) 0.23763(18) 0.84012(12)
O7 O 0.9328(2) 0.04996(17) 0.76364(12)
O13 O 0.7718(2) 0.18012(18) 0.71418(12)
H1 H 0.7606(19) 0.2391(5) 0.6982(7)
H2 H 0.8155(9) 0.1754(14) 0.7515(4)
O14 O 0.9051(2) 0.21876(19) 0.60406(14)
H3 H 0.8594(7) 0.2642(6) 0.5870(8)
H4 H 0.9481(6) 0.1943(10) 0.5764(5)
O16 O 0.8873(2) 0.0028(2) 0.54176(13)
H7 H 0.8339(7) 0.0207(10) 0.5115(5)
C8 C 0.9864(3) 0.2799(2) 0.83871(16)
C11 C 0.9868(3) 0.0451(2) 0.82194(18)
O32 O 0.70121(19) 0.10893(18) 0.58462(12)
H31 H 0.9509 0.7442 0.7915
H32 H 0.9646 0.5714 0.8101
H38 H 0.7970 0.1497 0.9986
Cu2_7 Cu 1.0000 1.0000 0.0000
O11 O 0.8095(2) 0.57591(17) 0.02826(12)
Cu3 Cu 0.83851(4) 0.58203(3) 0.15483(3)
O19 O 0.6777(2) 0.53865(17) 0.15170(14)
O21 O 0.93311(19) 0.90251(17) 0.34487(13)
O24 O 0.99793(18) 0.62364(17) 0.15980(12)
N5 N 0.8668(2) 0.43587(19) 0.17328(15)
N6 N 0.8083(2) 0.7291(2) 0.15021(14)
C30 C 0.9070(3) 0.7847(2) 0.16004(15)
C31 C 0.9053(3) 0.8892(3) 0.16556(17)
C33 C 0.7977(3) 0.9369(3) 0.1599(2)
C34 C 0.6979(3) 0.8803(3) 0.1497(2)
H34 H 0.6262 0.9115 0.1462
C35 C 0.7079(3) 0.7769(3) 0.14491(18)
H35 H 0.6411 0.7381 0.1376
Cu2_8 Cu 1.0000 1.0000 1.0000
O8 O 0.9641(2) 0.99002(19) 0.86954(12)
O9 O 0.8419(2) 0.95239(16) 0.99621(13)
O10 O 0.73731(18) 0.81067(18) 0.98975(12)
O12 O 0.79879(19) 0.60893(18) 0.91538(12)
O15 O 0.7353(2) 0.95092(18) 0.68342(12)
H5 H 0.6874(8) 0.9276(11) 0.6521(4)
H6 H 0.7137(11) 0.9586(19) 0.7225(3)
H8 H 0.9203(8) 0.9472(5) 0.5347(11)
O17 O 0.9581(2) 0.90048(19) 0.66654(14)
H10 H 0.9350(12) 0.8627(7) 0.6328(4)
C15 C 0.8308(3) 0.8565(2) 0.99185(16)
C16 C 0.9386(3) 0.7951(2) 0.99156(15)
C17 C 0.9446(3) 0.6903(2) 0.98735(16)
C18 C 0.8409(3) 0.6212(2) 0.97744(17)
Cu2_9 Cu 0.5000 0.5000 0.5000
O5_2 O 0.49793(18) 0.87636(17) 0.65980(12)
O6_2 O 0.60739(18) 0.73763(18) 0.65988(12)
O7_2 O 0.5672(2) 0.54996(17) 0.73636(12)
O8_2 O 0.5359(2) 0.49002(19) 0.63046(12)
O9_2 O 0.6581(2) 0.45239(16) 0.50379(13)
O10_2 O 0.76269(18) 0.31067(18) 0.51025(12)
O11_2 O 0.6905(2) 0.07591(17) 0.47174(12)
O13_2 O 0.7282(2) 0.68012(18) 0.78582(12)
H1_2 H 0.7394(19) 0.7391(5) 0.8018(7)
H2_2 H 0.6845(9) 0.6754(14) 0.7485(4)
O14_2 O 0.5949(2) 0.71876(19) 0.89594(14)
H3_2 H 0.6406(7) 0.7642(6) 0.9130(8)
H4_2 H 0.5519(6) 0.6943(10) 0.9236(5)
O15_2 O 0.7647(2) 0.45092(18) 0.81658(12)
H5_2 H 0.8126(8) 0.4276(11) 0.8479(4)
H6_2 H 0.7863(11) 0.4586(19) 0.7775(3)
O16_2 O 0.6127(2) 0.5028(2) 0.95824(13)
H7_2 H 0.6661(7) 0.5207(10) 0.9885(5)
H8_2 H 0.5797(8) 0.4472(5) 0.9653(11)
O17_2 O 0.5419(2) 0.40048(19) 0.83346(14)
H9_2 H 0.4702(4) 0.4103(15) 0.8292(12)
H10_2 H 0.5650(12) 0.3627(7) 0.8672(4)
N2_2 N 0.3083(2) 0.7709(2) 0.65021(14)
N3_2 N 0.4651(2) 0.3525(2) 0.50271(13)
C8_2 C 0.5136(3) 0.7799(2) 0.66129(16)
C9_2 C 0.4070(3) 0.7153(2) 0.66004(15)
C10_2 C 0.4053(3) 0.6108(3) 0.66556(17)
C11_2 C 0.5132(3) 0.5451(2) 0.67806(18)
C12_2 C 0.2977(3) 0.5631(3) 0.6599(2)
H14_2 H 0.2935 0.4924 0.6631
C13_2 C 0.1979(3) 0.6197(3) 0.6497(2)
H15_2 H 0.1262 0.5885 0.6462
C14_2 C 0.2079(3) 0.7231(3) 0.64491(18)
H16_2 H 0.1411 0.7619 0.6376
C15_2 C 0.6692(3) 0.3565(2) 0.50815(16)
C16_2 C 0.5614(3) 0.2951(2) 0.50844(15)
C17_2 C 0.5554(3) 0.1903(2) 0.51265(16)
C18_2 C 0.6591(3) 0.1212(2) 0.52256(17)
C19_2 C 0.4469(3) 0.1452(3) 0.50980(18)
H17_2 H 0.4400 0.0746 0.5123
C20_2 C 0.3505(3) 0.2057(3) 0.50324(19)
H18_2 H 0.2778 0.1763 0.5002
C21_2 C 0.3621(3) 0.3093(3) 0.50117(18)
H19_2 H 0.2970 0.3503 0.4986
Cu3_2 Cu 0.66149(4) 0.08203(3) 0.34517(3)
O19_2 O 0.8223(2) 0.03865(17) 0.34830(14)
O21_2 O 0.56689(19) 0.40251(17) 0.15513(13)
O24_2 O 0.50207(18) 0.12364(17) 0.34020(12)
O25_2 O 0.39261(18) 0.26237(18) 0.34012(12)
O26_2 O 0.4328(2) 0.45004(17) 0.26364(12)
O27_2 O 0.4641(2) 0.50998(19) 0.36954(12)
O28_2 O 0.3419(2) 0.54761(16) 0.49621(13)
O29_2 O 0.23731(18) 0.68933(18) 0.48975(12)
O30_2 O 0.3095(2) 0.92409(17) 0.52826(12)
O34_2 O 0.2718(2) 0.31988(18) 0.21418(12)
H20_2 H 0.2606(19) 0.2609(5) 0.1982(7)
H21_2 H 0.3155(9) 0.3246(14) 0.2515(4)
O35_2 O 0.4051(2) 0.28124(19) 0.10406(14)
H22_2 H 0.3594(7) 0.2358(6) 0.0870(8)
H23_2 H 0.4481(6) 0.3057(10) 0.0764(5)
O36_2 O 0.2353(2) 0.54908(18) 0.18342(12)
H24_2 H 0.1874(8) 0.5724(11) 0.1521(4)
H25_2 H 0.2137(11) 0.5414(19) 0.2225(3)
O37_2 O 0.3873(2) 0.4972(2) 0.04176(13)
H26_2 H 0.3339(7) 0.4793(10) 0.0115(5)
H27_2 H 0.4203(8) 0.5528(5) 0.0347(11)
O38_2 O 0.4581(2) 0.59952(19) 0.16654(14)
H28_2 H 0.5298(4) 0.5897(15) 0.1708(12)
H29_2 H 0.4350(12) 0.6373(7) 0.1328(4)
N6_2 N 0.6917(2) 0.2291(2) 0.34979(14)
N7_2 N 0.5349(2) 0.6475(2) 0.49729(13)
C29_2 C 0.4864(3) 0.2201(2) 0.33871(16)
C30_2 C 0.5930(3) 0.2847(2) 0.33996(15)
C31_2 C 0.5947(3) 0.3892(3) 0.33444(17)
C32_2 C 0.4868(3) 0.4549(2) 0.32194(18)
C33_2 C 0.7023(3) 0.4369(3) 0.3401(2)
H33_2 H 0.7065 0.5076 0.3369
C34_2 C 0.8021(3) 0.3803(3) 0.3503(2)
H34_2 H 0.8738 0.4115 0.3538
C35_2 C 0.7921(3) 0.2769(3) 0.35509(18)
H35_2 H 0.8589 0.2381 0.3624
C36_2 C 0.3308(3) 0.6435(2) 0.49185(16)
C37_2 C 0.4386(3) 0.7049(2) 0.49156(15)
C38_2 C 0.4446(3) 0.8097(2) 0.48735(16)
C39_2 C 0.3409(3) 0.8788(2) 0.47744(17)
C40_2 C 0.5531(3) 0.8548(3) 0.49020(18)
H36_2 H 0.5600 0.9254 0.4877
C41_2 C 0.6495(3) 0.7943(3) 0.49676(19)
H37_2 H 0.7222 0.8237 0.4998
C42_2 C 0.6379(3) 0.6907(3) 0.49883(18)
H38_2 H 0.7030 0.6497 0.5014
N5_2 N 0.6332(2) 0.93587(19) 0.32672(15)
H31_2 H 0.0491 0.2558 0.2085
H32_2 H 0.0354 0.4286 0.1899
O3_2 O 0.8792(2) 0.7027(2) 0.40417(14)
O4_2 O 0.8564(2) 0.6471(2) 0.29591(14)
C1_2 C 0.8375(3) 0.9430(2) 0.34460(17)
C2_2 C 0.7305(3) 0.8780(2) 0.33407(16)
C3_2 C 0.7273(3) 0.7733(3) 0.32828(18)
C4_2 C 0.8333(3) 0.7028(3) 0.34345(18)
C5_2 C 0.6217(3) 0.7286(3) 0.3114(2)
H11_2 H 0.6170 0.6582 0.3053
C6_2 C 0.5222(3) 0.7863(3) 0.3033(2)
H12_2 H 0.4509 0.7558 0.2915
C7_2 C 0.5313(3) 0.8895(3) 0.31305(19)
H13_2 H 0.4646 0.9286 0.3101
O22_2 O 0.6208(2) 0.2027(2) 0.09583(14)
O23_2 O 0.6436(2) 0.1471(2) 0.20409(14)
C22_2 C 0.6625(3) 0.4430(2) 0.15540(17)
C23_2 C 0.7695(3) 0.3780(2) 0.16593(16)
C24_2 C 0.7727(3) 0.2733(3) 0.17172(18)
C25_2 C 0.6667(3) 0.2028(3) 0.15655(18)
C26_2 C 0.8783(3) 0.2286(3) 0.1886(2)
H30_2 H 0.8830 0.1582 0.1947
C27_2 C 0.9778(3) 0.2863(3) 0.1967(2)
C28_2 C 0.9687(3) 0.3895(3) 0.18695(19)
loop_
_geom_bond_atom_site_label_1
_geom_bond_atom_site_label_2
_geom_bond_site_symmetry_1
_geom_bond_site_symmetry_2
Yb4 O31 1_555 1_555
O27 Cu2 1_555 1_555
O28 Cu2 1_555 1_555
O29 C36 1_555 1_555
O31 C39 1_555 1_555
H24 O36 1_555 1_555
H25 O36 1_555 1_555
H29 O38 1_555 1_555
C36 O28 1_555 1_555
C38 C37 1_555 1_555
C36 C37 1_555 1_555
C38 C39 1_555 1_555
Cu1 O5 1_555 1_555
O2 C1 1_555 1_555
O3 C4 1_555 1_555
O4 C4 1_555 1_555
N1 C2 1_555 1_555
N2 Cu1 1_555 1_555
C1 C2 1_555 1_555
C2 C3 1_555 1_555
C3 C4 1_555 1_555
C5 C3 1_555 1_555
H11 C5 1_555 1_555
C6 C5 1_555 1_555
H12 C6 1_555 1_555
C7 N1 1_555 1_555
H13 C7 1_555 1_555
C9 N2 1_555 1_555
C10 C9 1_555 1_555
C12 C10 1_555 1_555
C13 C12 1_555 1_555
H15 C13 1_555 1_555
C14 N2 1_555 1_555
H16 C14 1_555 1_555
Yb5 O20 1_555 1_555
O18 Cu1 1_555 1_555
O20 C22 1_555 1_555
O22 C25 1_555 1_555
O23 C25 1_555 1_555
O30 Cu1 1_555 1_555
N4 Cu1 1_555 1_555
C22 O18 1_555 1_555
C23 N4 1_555 1_555
C24 C23 1_555 1_555
C25 C24 1_555 1_555
C26 C24 1_555 1_555
H30 C26 1_555 1_555
C27 C26 1_555 1_555
C28 N4 1_555 1_555
C6 C7 1_555 1_555
C13 C14 1_555 1_555
C22 C23 1_555 1_555
C27 C28 1_555 1_555
O25 C29 1_555 1_555
O26 Yb2 1_555 1_555
O33 Yb2 1_555 1_555
O34 Yb2 1_555 1_555
H20 O34 1_555 1_555
H21 O34 1_555 1_555
O35 Yb2 1_555 1_555
H22 O35 1_555 1_555
H23 O35 1_555 1_555
O37 Yb2 1_555 1_555
H26 O37 1_555 1_555
C32 O26 1_555 1_555
N3 Cu2_4 1_555 1_555
H17 C19 1_555 1_555
C20 C19 1_555 1_555
H18 C20 1_555 1_555
C21 N3 1_555 1_555
Cu4 O1 1_555 1_555
C20 C21 1_555 1_555
N7 Cu2_5 1_555 1_555
H36 C40 1_555 1_555
C41 C40 1_555 1_555
H37 C41 1_555 1_555
C42 N7 1_555 1_555
C41 C42 1_555 1_555
O6 C8 1_555 1_555
O7 Yb1 1_555 1_555
O13 Yb1 1_555 1_555
H1 O13 1_555 1_555
H2 O13 1_555 1_555
O14 Yb1 1_555 1_555
H3 O14 1_555 1_555
H4 O14 1_555 1_555
O16 Yb1 1_555 1_555
H7 O16 1_555 1_555
C11 O7 1_555 1_555
O32 Yb1 1_555 1_555
Cu3 O11 1_555 1_555
O19 Cu3 1_555 1_555
O24 Cu3 1_555 1_555
N5 Cu3 1_555 1_555
N6 Cu3 1_555 1_555
C30 N6 1_555 1_555
C31 C30 1_555 1_555
C33 C31 1_555 1_555
C34 C33 1_555 1_555
H34 C34 1_555 1_555
C35 N6 1_555 1_555
H35 C35 1_555 1_555
C34 C35 1_555 1_555
Cu2_8 O8 1_555 1_555
O9 Cu2_8 1_555 1_555
O10 C15 1_555 1_555
O12 C18 1_555 1_555
H5 O15 1_555 1_555
H6 O15 1_555 1_555
H10 O17 1_555 1_555
C15 O9 1_555 1_555
C17 C16 1_555 1_555
C18 C17 1_555 1_555
Yb5 O12 1_555 1_555
C15 C16 1_555 1_555
Cu4 O5_2 1_555 1_555
Cu2_9 O8_2 1_555 1_555
O5_2 C8_2 1_555 1_555
O6_2 C8_2 1_555 1_555
O7_2 Yb5 1_555 1_555
O8_2 C11_2 1_555 1_555
O9_2 Cu2_9 1_555 1_555
O10_2 C15_2 1_555 1_555
O11_2 C18_2 1_555 1_555
O32 C18_2 1_555 1_555
O13_2 Yb5 1_555 1_555
H1_2 O13_2 1_555 1_555
H2_2 O13_2 1_555 1_555
O14_2 Yb5 1_555 1_555
H3_2 O14_2 1_555 1_555
H4_2 O14_2 1_555 1_555
O15_2 Yb5 1_555 1_555
H5_2 O15_2 1_555 1_555
H6_2 O15_2 1_555 1_555
O16_2 Yb5 1_555 1_555
H7_2 O16_2 1_555 1_555
H8_2 O16_2 1_555 1_555
O17_2 Yb5 1_555 1_555
H9_2 O17_2 1_555 1_555
H10_2 O17_2 1_555 1_555
N2_2 Cu4 1_555 1_555
N3_2 Cu2_9 1_555 1_555
C8_2 C9_2 1_555 1_555
C9_2 N2_2 1_555 1_555
C10_2 C9_2 1_555 1_555
C11_2 O7_2 1_555 1_555
C12_2 C10_2 1_555 1_555
H14_2 C12_2 1_555 1_555
C13_2 C12_2 1_555 1_555
H15_2 C13_2 1_555 1_555
C14_2 N2_2 1_555 1_555
H16_2 C14_2 1_555 1_555
C15_2 O9_2 1_555 1_555
C16_2 N3_2 1_555 1_555
C17_2 C16_2 1_555 1_555
C18_2 C17_2 1_555 1_555
C19_2 C17_2 1_555 1_555
H17_2 C19_2 1_555 1_555
C20_2 C19_2 1_555 1_555
H18_2 C20_2 1_555 1_555
C21_2 N3_2 1_555 1_555
H19_2 C21_2 1_555 1_555
Yb4 O21_2 1_555 1_555
Cu3_2 O11_2 1_555 1_555
O19_2 Cu3_2 1_555 1_555
O24_2 Cu3_2 1_555 1_555
O25_2 C29_2 1_555 1_555
O26_2 Yb4 1_555 1_555
O27_2 Cu2_9 1_555 1_555
O28_2 Cu2_9 1_555 1_555
O29_2 C36_2 1_555 1_555
O30_2 Cu4 1_555 1_555
O33 C39_2 1_555 1_555
O34_2 Yb4 1_555 1_555
H20_2 O34_2 1_555 1_555
H21_2 O34_2 1_555 1_555
O35_2 Yb4 1_555 1_555
H22_2 O35_2 1_555 1_555
H23_2 O35_2 1_555 1_555
O36_2 Yb4 1_555 1_555
H24_2 O36_2 1_555 1_555
H25_2 O36_2 1_555 1_555
O37_2 Yb4 1_555 1_555
H26_2 O37_2 1_555 1_555
H27_2 O37_2 1_555 1_555
O38_2 Yb4 1_555 1_555
H28_2 O38_2 1_555 1_555
H29_2 O38_2 1_555 1_555
N6_2 Cu3_2 1_555 1_555
N7_2 Cu2_9 1_555 1_555
C29_2 O24_2 1_555 1_555
C30_2 N6_2 1_555 1_555
C31_2 C30_2 1_555 1_555
C32_2 O26_2 1_555 1_555
C33_2 C31_2 1_555 1_555
H33_2 C33_2 1_555 1_555
C34_2 C33_2 1_555 1_555
H34_2 C34_2 1_555 1_555
C35_2 N6_2 1_555 1_555
H35_2 C35_2 1_555 1_555
C36_2 O28_2 1_555 1_555
C37_2 N7_2 1_555 1_555
C38_2 C37_2 1_555 1_555
C39_2 O30_2 1_555 1_555
C40_2 C38_2 1_555 1_555
H36_2 C40_2 1_555 1_555
C41_2 C40_2 1_555 1_555
H37_2 C41_2 1_555 1_555
C42_2 N7_2 1_555 1_555
H38_2 C42_2 1_555 1_555
C10_2 C11_2 1_555 1_555
C13_2 C14_2 1_555 1_555
C15_2 C16_2 1_555 1_555
C20_2 C21_2 1_555 1_555
O27_2 C32_2 1_555 1_555
C29_2 C30_2 1_555 1_555
C31_2 C32_2 1_555 1_555
C34_2 C35_2 1_555 1_555
C36_2 C37_2 1_555 1_555
C38_2 C39_2 1_555 1_555
C41_2 C42_2 1_555 1_555
O21 C1_2 1_555 1_555
O3_2 C4_2 1_555 1_555
O4_2 C4_2 1_555 1_555
N5_2 C2_2 1_555 1_555
C1_2 C2_2 1_555 1_555
C2_2 C3_2 1_555 1_555
C3_2 C4_2 1_555 1_555
C5_2 C3_2 1_555 1_555
H11_2 C5_2 1_555 1_555
C6_2 C5_2 1_555 1_555
H12_2 C6_2 1_555 1_555
C7_2 N5_2 1_555 1_555
H13_2 C7_2 1_555 1_555
O21_2 C22_2 1_555 1_555
O22_2 C25_2 1_555 1_555
O23_2 C25_2 1_555 1_555
C22_2 O19 1_555 1_555
C23_2 N5 1_555 1_555
C24_2 C23_2 1_555 1_555
C25_2 C24_2 1_555 1_555
C26_2 C24_2 1_555 1_555
H30_2 C26_2 1_555 1_555
C27_2 C26_2 1_555 1_555
C28_2 N5 1_555 1_555
C6_2 C7_2 1_555 1_555
C22_2 C23_2 1_555 1_555
C27_2 C28_2 1_555 1_555

#END
