
###############################################################################
#
# This file contains modified crystal structure data generated from the
# MOF subset of the Cambridge Structural Database (CSD) v543 
# hosted by the Cambridge Crystallographic Data Centre (CCDC).
#
# This work is licensed under the Creative Commons
# Attribution-NonCommercial-ShareAlike 4.0 International License.
# To view a copy of this license, visit
# http://creativecommons.org/licenses/by-nc-sa/4.0/
# or send a letter to
# Creative Commons, PO Box 1866, Mountain View, CA 94042, USA.
#
# CIF created using the CSD Python API on 29 September 2022
# The structure has been converted into the P1 space group
# The structure has a 3D framework
# The original CSD entry XEJQIO is in the monoclinic crystal system
# The framework has been calculated to contain at least 10.0% void space
# The void calculation uses a probe of radius 1.32A, grid spacing 0.4
# The framework is charged, counterions have been retained in the structure
#
###############################################################################

data_XEJQIO
_chemical_formula_moiety         '(C84 H76 Cu13 Lu4 N12 O68 1+)n'
_symmetry_cell_setting           triclinic
_symmetry_space_group_name_H-M   'P 1'
_symmetry_Int_Tables_number      1
_space_group_name_Hall           'P 1'
loop_
_symmetry_equiv_pos_site_id
_symmetry_equiv_pos_as_xyz
1 x,y,z
_cell_length_a                   11.669(2)
_cell_length_b                   13.086(3)
_cell_length_c                   19.396(4)
_cell_angle_alpha                90
_cell_angle_beta                 96.208(3)
_cell_angle_gamma                90
_cell_volume                     2944.41
loop_
_atom_site_label
_atom_site_type_symbol
_atom_site_fract_x
_atom_site_fract_y
_atom_site_fract_z
Cu2 Cu 0.0000 0.0000 0.0000
Lu4 Lu 0.370364(17) 0.437315(17) 0.149895(11)
O27 O 0.0364(3) 0.0120(3) 0.13169(17)
O28 O 0.1575(3) 0.0476(2) 0.00322(17)
O29 O 0.2631(2) 0.1890(3) 0.01048(17)
O31 O 0.2031(3) 0.3919(3) 0.08430(17)
O36 O 0.2638(3) 0.0491(3) 0.31736(15)
H24 H 0.3132(8) 0.0730(12) 0.3481(4)
H25 H 0.2903(8) 0.0416(13) 0.2788(3)
H27 H 0.0791(9) 0.0545(5) 0.4638(14)
O38 O 0.0424(3) 0.1003(3) 0.33660(19)
H29 H 0.0622(12) 0.1395(5) 0.3705(4)
C36 C 0.1690(4) 0.1443(4) 0.0074(2)
C37 C 0.0603(3) 0.2050(3) 0.0085(2)
C38 C 0.0553(4) 0.3111(3) 0.0118(2)
C39 C 0.1603(4) 0.3796(3) 0.0227(3)
Cu1 Cu 0.16044(5) 0.41751(5) 0.84398(4)
Cu2_2 Cu 0.0000 0.0000 1.0000
O2 O 0.0685(3) 0.0963(3) 0.65344(18)
O3 O 0.1220(3) 0.2957(3) 0.5946(2)
O4 O 0.1401(3) 0.3528(3) 0.7029(2)
O5 O 0.0000(3) 0.3759(2) 0.83983(17)
N1 N 0.3685(3) 0.0642(3) 0.6741(2)
N2 N 0.1905(3) 0.2703(3) 0.8489(2)
C1 C 0.1635(4) 0.0555(4) 0.6568(3)
C2 C 0.2707(4) 0.1227(4) 0.6658(2)
C3 C 0.2713(4) 0.2271(4) 0.6713(3)
C4 C 0.1667(4) 0.2987(4) 0.6569(3)
C5 C 0.3806(4) 0.2724(4) 0.6877(3)
H11 H 0.3867 0.3429 0.6930
C6 C 0.4779(5) 0.2128(4) 0.6958(3)
H12 H 0.5495 0.2430 0.7074
C7 C 0.4701(4) 0.1098(4) 0.6870(3)
H13 H 0.5370 0.0707 0.6901
C9 C 0.0934(4) 0.2147(4) 0.8401(2)
C10 C 0.0952(4) 0.1117(4) 0.8336(2)
C12 C 0.2015(4) 0.0636(4) 0.8395(3)
C13 C 0.3022(4) 0.1192(4) 0.8495(3)
H15 H 0.3739 0.0875 0.8527
C14 C 0.2922(4) 0.2228(4) 0.8545(3)
H16 H 0.3590 0.2618 0.8621
Lu5 Lu 0.629636(17) 0.562685(17) 0.850105(11)
O18 O 0.3206(3) 0.4611(2) 0.84668(19)
O20 O 0.4315(3) 0.5963(3) 0.84656(18)
O22 O 0.3780(3) 0.7957(3) 0.9054(2)
O23 O 0.3599(3) 0.8528(3) 0.7971(2)
O30 O 0.1920(3) 0.4242(3) 0.97039(17)
N4 N 0.1315(3) 0.5642(3) 0.8259(2)
C22 C 0.3365(4) 0.5555(4) 0.8432(3)
C23 C 0.2293(4) 0.6227(4) 0.8342(2)
C24 C 0.2287(4) 0.7271(4) 0.8287(3)
C25 C 0.3333(4) 0.7987(4) 0.8431(3)
C26 C 0.1194(4) 0.7724(4) 0.8123(3)
H30 H 0.1133 0.8429 0.8070
C27 C 0.0221(5) 0.7128(4) 0.8042(3)
C28 C 0.0299(4) 0.6098(4) 0.8130(3)
Cu2_3 Cu 0.0000 1.0000 0.0000
H19 H 0.2030 0.8493 0.0018
Lu2 Lu 0.129636(17) 0.937315(17) 0.350105(11)
O24 O 0.0000(3) 0.6241(2) 0.16017(17)
O25 O 0.1091(2) 0.7632(3) 0.16119(17)
O26 O 0.0668(3) 0.9505(3) 0.23805(17)
O33 O 0.2969(3) 0.8919(3) 0.41570(17)
O34 O 0.2252(3) 0.8198(3) 0.28670(17)
H20 H 0.2477(14) 0.7623(5) 0.3019(7)
H21 H 0.1854(10) 0.8201(16) 0.2477(4)
O35 O 0.0923(3) 0.7839(3) 0.39891(19)
H22 H 0.1377(7) 0.7373(6) 0.4146(9)
H23 H 0.0496(7) 0.8094(10) 0.4267(5)
O37 O 0.1109(3) 0.9973(3) 0.46054(19)
H26 H 0.1642(7) 0.9825(11) 0.4917(5)
C29 C 0.0158(4) 0.7210(4) 0.1612(2)
C32 C 0.0119(4) 0.9557(3) 0.1800(3)
Cu2_4 Cu 0.0000 1.0000 1.0000
O1 O 0.1794(3) 0.9611(2) 0.65332(19)
H9 H 0.0291(5) 0.9112(15) 0.6699(12)
N3 N 0.0338(3) 0.8532(3) 0.99714(18)
H14 H 0.2050 0.9927 0.8367
C19 C 0.0529(4) 0.6446(4) 0.9906(3)
H17 H 0.0602 0.5739 0.9885
C20 C 0.1488(4) 0.7051(4) 0.9959(3)
H18 H 0.2216 0.6758 0.9976
C21 C 0.1372(4) 0.8086(4) 0.9987(3)
Cu4 Cu 0.33956(5) 0.91751(5) 0.65602(4)
Cu2_5 Cu 1.0000 0.0000 0.0000
H28 H 0.9709(5) 0.0888(15) 0.3301(12)
N7 N 0.9662(3) 0.1468(3) 0.00286(18)
H33 H 0.7950 0.0073 0.1633
C40 C 0.9471(4) 0.3554(4) 0.0094(3)
H36 H 0.9398 0.4261 0.0115
C41 C 0.8512(4) 0.2949(4) 0.0041(3)
H37 H 0.7784 0.3242 0.0024
C42 C 0.8628(4) 0.1914(4) 0.0013(3)
Lu1 Lu 0.870364(17) 0.062685(17) 0.649895(11)
Cu2_6 Cu 1.0000 0.0000 1.0000
O5_2 O 1.0000(3) 0.3759(2) 0.83983(17)
O6 O 0.8909(2) 0.2368(3) 0.83881(17)
O7 O 0.9332(3) 0.0495(3) 0.76195(17)
O13 O 0.7748(3) 0.1802(3) 0.71330(17)
H1 H 0.7523(14) 0.2377(5) 0.6981(7)
H2 H 0.8146(10) 0.1799(16) 0.7523(4)
O14 O 0.9077(3) 0.2161(3) 0.60109(19)
H3 H 0.8623(7) 0.2627(6) 0.5854(9)
H4 H 0.9504(7) 0.1906(10) 0.5733(5)
O16 O 0.8891(3) 0.0027(3) 0.53946(19)
H7 H 0.8358(7) 0.0175(11) 0.5083(5)
C8 C 0.9842(4) 0.2790(4) 0.8388(2)
C11 C 0.9881(4) 0.0443(3) 0.8200(3)
O32 O 0.7031(3) 0.1081(3) 0.58430(17)
H31 H 0.9505 0.7430 0.7926
H32 H 0.9630 0.5707 0.8099
H38 H 0.7970 0.1507 0.9982
Cu2_7 Cu 1.0000 1.0000 0.0000
O11 O 0.8080(3) 0.5758(3) 0.02961(17)
Cu3 Cu 0.83956(5) 0.58249(5) 0.15602(4)
O19 O 0.6794(3) 0.5389(2) 0.15332(19)
O21 O 0.9315(3) 0.9037(3) 0.34656(18)
O24_2 O 1.0000(3) 0.6241(2) 0.16017(17)
N5 N 0.8685(3) 0.4358(3) 0.1741(2)
N6 N 0.8095(3) 0.7297(3) 0.1511(2)
C30 C 0.9066(4) 0.7853(4) 0.1599(2)
C31 C 0.9048(4) 0.8883(4) 0.1664(2)
C33 C 0.7985(4) 0.9364(4) 0.1605(3)
C34 C 0.6978(4) 0.8808(4) 0.1505(3)
H34 H 0.6261 0.9125 0.1473
C35 C 0.7078(4) 0.7772(4) 0.1455(3)
H35 H 0.6410 0.7382 0.1379
Cu2_8 Cu 1.0000 1.0000 1.0000
O8 O 0.9636(3) 0.9880(3) 0.86831(17)
O9 O 0.8425(3) 0.9524(2) 0.99678(17)
O10 O 0.7369(2) 0.8110(3) 0.98952(17)
O12 O 0.7969(3) 0.6081(3) 0.91570(17)
O15 O 0.7362(3) 0.9509(3) 0.68264(15)
H5 H 0.6868(8) 0.9270(12) 0.6519(4)
H6 H 0.7097(8) 0.9584(13) 0.7212(3)
H8 H 0.9209(9) 0.9455(5) 0.5362(14)
O17 O 0.9576(3) 0.8997(3) 0.66340(19)
H10 H 0.9378(12) 0.8605(5) 0.6295(4)
C15 C 0.8310(4) 0.8557(4) 0.9926(2)
C16 C 0.9397(3) 0.7950(3) 0.9915(2)
C17 C 0.9447(4) 0.6889(3) 0.9882(2)
C18 C 0.8397(4) 0.6204(3) 0.9773(3)
Cu2_9 Cu 0.5000 0.5000 0.5000
O5_3 O 0.5000(3) 0.8759(2) 0.66017(17)
O6_2 O 0.6091(2) 0.7368(3) 0.66119(17)
O7_2 O 0.5668(3) 0.5495(3) 0.73805(17)
O8_2 O 0.5364(3) 0.4880(3) 0.63169(17)
O9_2 O 0.6575(3) 0.4524(2) 0.50322(17)
O10_2 O 0.7631(2) 0.3110(3) 0.51048(17)
O11_2 O 0.6920(3) 0.0758(3) 0.47039(17)
O13_2 O 0.7252(3) 0.6802(3) 0.78670(17)
H1_2 H 0.7477(14) 0.7377(5) 0.8019(7)
H2_2 H 0.6854(10) 0.6799(16) 0.7477(4)
O14_2 O 0.5923(3) 0.7161(3) 0.89891(19)
H3_2 H 0.6377(7) 0.7627(6) 0.9146(9)
H4_2 H 0.5496(7) 0.6906(10) 0.9267(5)
O15_2 O 0.7638(3) 0.4509(3) 0.81736(15)
H5_2 H 0.8132(8) 0.4270(12) 0.8481(4)
H6_2 H 0.7903(8) 0.4584(13) 0.7788(3)
O16_2 O 0.6109(3) 0.5027(3) 0.96054(19)
H7_2 H 0.6642(7) 0.5175(11) 0.9917(5)
H8_2 H 0.5791(9) 0.4455(5) 0.9638(14)
O17_2 O 0.5424(3) 0.3997(3) 0.83660(19)
H9_2 H 0.4709(5) 0.4112(15) 0.8301(12)
H10_2 H 0.5622(12) 0.3605(5) 0.8705(4)
N2_2 N 0.3095(3) 0.7703(3) 0.6511(2)
N3_2 N 0.4662(3) 0.3532(3) 0.50286(18)
C8_2 C 0.5158(4) 0.7790(4) 0.6612(2)
C9_2 C 0.4066(4) 0.7147(4) 0.6599(2)
C10_2 C 0.4048(4) 0.6117(4) 0.6664(2)
C11_2 C 0.5119(4) 0.5443(3) 0.6800(3)
C12_2 C 0.2985(4) 0.5636(4) 0.6605(3)
H14_2 H 0.2950 0.4927 0.6633
C13_2 C 0.1978(4) 0.6192(4) 0.6505(3)
H15_2 H 0.1261 0.5875 0.6473
C14_2 C 0.2078(4) 0.7228(4) 0.6455(3)
H16_2 H 0.1410 0.7618 0.6379
C15_2 C 0.6690(4) 0.3557(4) 0.5074(2)
C16_2 C 0.5603(3) 0.2950(3) 0.5085(2)
C17_2 C 0.5553(4) 0.1889(3) 0.5118(2)
C18_2 C 0.6603(4) 0.1204(3) 0.5227(3)
C19_2 C 0.4471(4) 0.1446(4) 0.5094(3)
H17_2 H 0.4398 0.0739 0.5115
C20_2 C 0.3512(4) 0.2051(4) 0.5041(3)
H18_2 H 0.2784 0.1758 0.5024
C21_2 C 0.3628(4) 0.3086(4) 0.5013(3)
H19_2 H 0.2970 0.3493 0.4982
Cu3_2 Cu 0.66044(5) 0.08249(5) 0.34398(4)
O19_2 O 0.8206(3) 0.0389(2) 0.34668(19)
O21_2 O 0.5685(3) 0.4037(3) 0.15344(18)
O24_3 O 0.5000(3) 0.1241(2) 0.33983(17)
O25_2 O 0.3909(2) 0.2632(3) 0.33881(17)
O26_2 O 0.4332(3) 0.4505(3) 0.26195(17)
O27_2 O 0.4636(3) 0.5120(3) 0.36831(17)
O28_2 O 0.3425(3) 0.5476(2) 0.49678(17)
O29_2 O 0.2369(2) 0.6890(3) 0.48952(17)
O30_2 O 0.3080(3) 0.9242(3) 0.52961(17)
O34_2 O 0.2748(3) 0.3198(3) 0.21330(17)
H20_2 H 0.2523(14) 0.2623(5) 0.1981(7)
H21_2 H 0.3146(10) 0.3201(16) 0.2523(4)
O35_2 O 0.4077(3) 0.2839(3) 0.10109(19)
H22_2 H 0.3623(7) 0.2373(6) 0.0854(9)
H23_2 H 0.4504(7) 0.3094(10) 0.0733(5)
O36_2 O 0.2362(3) 0.5491(3) 0.18264(15)
H24_2 H 0.1868(8) 0.5730(12) 0.1519(4)
H25_2 H 0.2097(8) 0.5416(13) 0.2212(3)
O37_2 O 0.3891(3) 0.4973(3) 0.03946(19)
H26_2 H 0.3358(7) 0.4825(11) 0.0083(5)
H27_2 H 0.4209(9) 0.5545(5) 0.0362(14)
O38_2 O 0.4576(3) 0.6003(3) 0.16340(19)
H28_2 H 0.5291(5) 0.5888(15) 0.1699(12)
H29_2 H 0.4378(12) 0.6395(5) 0.1295(4)
N6_2 N 0.6905(3) 0.2297(3) 0.3489(2)
N7_2 N 0.5338(3) 0.6468(3) 0.49714(18)
C29_2 C 0.4842(4) 0.2210(4) 0.3388(2)
C30_2 C 0.5934(4) 0.2853(4) 0.3401(2)
C31_2 C 0.5952(4) 0.3883(4) 0.3336(2)
C32_2 C 0.4881(4) 0.4557(3) 0.3200(3)
C33_2 C 0.7015(4) 0.4364(4) 0.3395(3)
H33_2 H 0.7050 0.5073 0.3367
C34_2 C 0.8022(4) 0.3808(4) 0.3495(3)
H34_2 H 0.8739 0.4125 0.3527
C35_2 C 0.7922(4) 0.2772(4) 0.3545(3)
H35_2 H 0.8590 0.2382 0.3621
C36_2 C 0.3310(4) 0.6443(4) 0.4926(2)
C37_2 C 0.4397(3) 0.7050(3) 0.4915(2)
C38_2 C 0.4447(4) 0.8111(3) 0.4882(2)
C39_2 C 0.3397(4) 0.8796(3) 0.4773(3)
C40_2 C 0.5529(4) 0.8554(4) 0.4906(3)
H36_2 H 0.5602 0.9261 0.4885
C41_2 C 0.6488(4) 0.7949(4) 0.4959(3)
H37_2 H 0.7216 0.8242 0.4976
C42_2 C 0.6372(4) 0.6914(4) 0.4987(3)
H38_2 H 0.7030 0.6507 0.5018
N5_2 N 0.6315(3) 0.9358(3) 0.3259(2)
H31_2 H 0.0495 0.2570 0.2074
H32_2 H 0.0370 0.4293 0.1901
O3_2 O 0.8780(3) 0.7043(3) 0.4054(2)
O4_2 O 0.8599(3) 0.6472(3) 0.2971(2)
C1_2 C 0.8365(4) 0.9445(4) 0.3432(3)
C2_2 C 0.7293(4) 0.8773(4) 0.3342(2)
C3_2 C 0.7287(4) 0.7729(4) 0.3287(3)
C4_2 C 0.8333(4) 0.7013(4) 0.3431(3)
C5_2 C 0.6194(4) 0.7276(4) 0.3123(3)
H11_2 H 0.6133 0.6571 0.3070
C6_2 C 0.5221(5) 0.7872(4) 0.3042(3)
H12_2 H 0.4505 0.7570 0.2926
C7_2 C 0.5299(4) 0.8902(4) 0.3130(3)
H13_2 H 0.4630 0.9293 0.3099
O22_2 O 0.6220(3) 0.2043(3) 0.0946(2)
O23_2 O 0.6401(3) 0.1472(3) 0.2029(2)
C22_2 C 0.6635(4) 0.4445(4) 0.1568(3)
C23_2 C 0.7707(4) 0.3773(4) 0.1658(2)
C24_2 C 0.7713(4) 0.2729(4) 0.1713(3)
C25_2 C 0.6667(4) 0.2013(4) 0.1569(3)
C26_2 C 0.8806(4) 0.2276(4) 0.1877(3)
H30_2 H 0.8867 0.1571 0.1930
C27_2 C 0.9779(5) 0.2872(4) 0.1958(3)
C28_2 C 0.9701(4) 0.3902(4) 0.1870(3)
loop_
_geom_bond_atom_site_label_1
_geom_bond_atom_site_label_2
_geom_bond_site_symmetry_1
_geom_bond_site_symmetry_2
Lu4 O31 1_555 1_555
O27 Cu2 1_555 1_555
O28 Cu2 1_555 1_555
O29 C36 1_555 1_555
O31 C39 1_555 1_555
H24 O36 1_555 1_555
H25 O36 1_555 1_555
H29 O38 1_555 1_555
C36 O28 1_555 1_555
C38 C37 1_555 1_555
C36 C37 1_555 1_555
C38 C39 1_555 1_555
Cu1 O5 1_555 1_555
O2 C1 1_555 1_555
O3 C4 1_555 1_555
O4 C4 1_555 1_555
N1 C2 1_555 1_555
N2 Cu1 1_555 1_555
C1 C2 1_555 1_555
C2 C3 1_555 1_555
C3 C4 1_555 1_555
C5 C3 1_555 1_555
H11 C5 1_555 1_555
C6 C5 1_555 1_555
H12 C6 1_555 1_555
C7 N1 1_555 1_555
H13 C7 1_555 1_555
C9 N2 1_555 1_555
C10 C9 1_555 1_555
C12 C10 1_555 1_555
C13 C12 1_555 1_555
H15 C13 1_555 1_555
C14 N2 1_555 1_555
H16 C14 1_555 1_555
Lu5 O20 1_555 1_555
O18 Cu1 1_555 1_555
O20 C22 1_555 1_555
O22 C25 1_555 1_555
O23 C25 1_555 1_555
O30 Cu1 1_555 1_555
N4 Cu1 1_555 1_555
C22 O18 1_555 1_555
C23 N4 1_555 1_555
C24 C23 1_555 1_555
C25 C24 1_555 1_555
C26 C24 1_555 1_555
H30 C26 1_555 1_555
C27 C26 1_555 1_555
C28 N4 1_555 1_555
C6 C7 1_555 1_555
C13 C14 1_555 1_555
C22 C23 1_555 1_555
C27 C28 1_555 1_555
O25 C29 1_555 1_555
O26 Lu2 1_555 1_555
O33 Lu2 1_555 1_555
O34 Lu2 1_555 1_555
H20 O34 1_555 1_555
H21 O34 1_555 1_555
O35 Lu2 1_555 1_555
H22 O35 1_555 1_555
H23 O35 1_555 1_555
O37 Lu2 1_555 1_555
H26 O37 1_555 1_555
C29 O24 1_555 1_555
C32 O26 1_555 1_555
N3 Cu2_4 1_555 1_555
H17 C19 1_555 1_555
C20 C19 1_555 1_555
H18 C20 1_555 1_555
C21 N3 1_555 1_555
Cu4 O1 1_555 1_555
C20 C21 1_555 1_555
N7 Cu2_5 1_555 1_555
H36 C40 1_555 1_555
C41 C40 1_555 1_555
H37 C41 1_555 1_555
C42 N7 1_555 1_555
C41 C42 1_555 1_555
O5_2 C8 1_555 1_555
O6 C8 1_555 1_555
O7 Lu1 1_555 1_555
O13 Lu1 1_555 1_555
H1 O13 1_555 1_555
H2 O13 1_555 1_555
O14 Lu1 1_555 1_555
H3 O14 1_555 1_555
H4 O14 1_555 1_555
O16 Lu1 1_555 1_555
H7 O16 1_555 1_555
C11 O7 1_555 1_555
O32 Lu1 1_555 1_555
Cu3 O11 1_555 1_555
O19 Cu3 1_555 1_555
O24_2 Cu3 1_555 1_555
N5 Cu3 1_555 1_555
N6 Cu3 1_555 1_555
C30 N6 1_555 1_555
C31 C30 1_555 1_555
C33 C31 1_555 1_555
C34 C33 1_555 1_555
H34 C34 1_555 1_555
C35 N6 1_555 1_555
H35 C35 1_555 1_555
C34 C35 1_555 1_555
Cu2_8 O8 1_555 1_555
O9 Cu2_8 1_555 1_555
O10 C15 1_555 1_555
O12 C18 1_555 1_555
H5 O15 1_555 1_555
H6 O15 1_555 1_555
H10 O17 1_555 1_555
C15 O9 1_555 1_555
C17 C16 1_555 1_555
C18 C17 1_555 1_555
Lu5 O12 1_555 1_555
C15 C16 1_555 1_555
Cu4 O5_3 1_555 1_555
Cu2_9 O8_2 1_555 1_555
O5_3 C8_2 1_555 1_555
O6_2 C8_2 1_555 1_555
O7_2 Lu5 1_555 1_555
O8_2 C11_2 1_555 1_555
O9_2 Cu2_9 1_555 1_555
O10_2 C15_2 1_555 1_555
O11_2 C18_2 1_555 1_555
O32 C18_2 1_555 1_555
O13_2 Lu5 1_555 1_555
H1_2 O13_2 1_555 1_555
H2_2 O13_2 1_555 1_555
O14_2 Lu5 1_555 1_555
H3_2 O14_2 1_555 1_555
H4_2 O14_2 1_555 1_555
O15_2 Lu5 1_555 1_555
H5_2 O15_2 1_555 1_555
H6_2 O15_2 1_555 1_555
O16_2 Lu5 1_555 1_555
H7_2 O16_2 1_555 1_555
H8_2 O16_2 1_555 1_555
O17_2 Lu5 1_555 1_555
H9_2 O17_2 1_555 1_555
H10_2 O17_2 1_555 1_555
N2_2 Cu4 1_555 1_555
N3_2 Cu2_9 1_555 1_555
C8_2 C9_2 1_555 1_555
C9_2 N2_2 1_555 1_555
C10_2 C9_2 1_555 1_555
C11_2 O7_2 1_555 1_555
C12_2 C10_2 1_555 1_555
H14_2 C12_2 1_555 1_555
C13_2 C12_2 1_555 1_555
H15_2 C13_2 1_555 1_555
C14_2 N2_2 1_555 1_555
H16_2 C14_2 1_555 1_555
C15_2 O9_2 1_555 1_555
C16_2 N3_2 1_555 1_555
C17_2 C16_2 1_555 1_555
C18_2 C17_2 1_555 1_555
C19_2 C17_2 1_555 1_555
H17_2 C19_2 1_555 1_555
C20_2 C19_2 1_555 1_555
H18_2 C20_2 1_555 1_555
C21_2 N3_2 1_555 1_555
H19_2 C21_2 1_555 1_555
Lu4 O21_2 1_555 1_555
Cu3_2 O11_2 1_555 1_555
O19_2 Cu3_2 1_555 1_555
O24_3 Cu3_2 1_555 1_555
O25_2 C29_2 1_555 1_555
O26_2 Lu4 1_555 1_555
O27_2 Cu2_9 1_555 1_555
O28_2 Cu2_9 1_555 1_555
O29_2 C36_2 1_555 1_555
O30_2 Cu4 1_555 1_555
O33 C39_2 1_555 1_555
O34_2 Lu4 1_555 1_555
H20_2 O34_2 1_555 1_555
H21_2 O34_2 1_555 1_555
O35_2 Lu4 1_555 1_555
H22_2 O35_2 1_555 1_555
H23_2 O35_2 1_555 1_555
O36_2 Lu4 1_555 1_555
H24_2 O36_2 1_555 1_555
H25_2 O36_2 1_555 1_555
O37_2 Lu4 1_555 1_555
H26_2 O37_2 1_555 1_555
H27_2 O37_2 1_555 1_555
O38_2 Lu4 1_555 1_555
H28_2 O38_2 1_555 1_555
H29_2 O38_2 1_555 1_555
N6_2 Cu3_2 1_555 1_555
N7_2 Cu2_9 1_555 1_555
C29_2 O24_3 1_555 1_555
C30_2 N6_2 1_555 1_555
C31_2 C30_2 1_555 1_555
C32_2 O26_2 1_555 1_555
C33_2 C31_2 1_555 1_555
H33_2 C33_2 1_555 1_555
C34_2 C33_2 1_555 1_555
H34_2 C34_2 1_555 1_555
C35_2 N6_2 1_555 1_555
H35_2 C35_2 1_555 1_555
C36_2 O28_2 1_555 1_555
C37_2 N7_2 1_555 1_555
C38_2 C37_2 1_555 1_555
C39_2 O30_2 1_555 1_555
C40_2 C38_2 1_555 1_555
H36_2 C40_2 1_555 1_555
C41_2 C40_2 1_555 1_555
H37_2 C41_2 1_555 1_555
C42_2 N7_2 1_555 1_555
H38_2 C42_2 1_555 1_555
C10_2 C11_2 1_555 1_555
C13_2 C14_2 1_555 1_555
C15_2 C16_2 1_555 1_555
C20_2 C21_2 1_555 1_555
O27_2 C32_2 1_555 1_555
C29_2 C30_2 1_555 1_555
C31_2 C32_2 1_555 1_555
C34_2 C35_2 1_555 1_555
C36_2 C37_2 1_555 1_555
C38_2 C39_2 1_555 1_555
C41_2 C42_2 1_555 1_555
O21 C1_2 1_555 1_555
O3_2 C4_2 1_555 1_555
O4_2 C4_2 1_555 1_555
N5_2 C2_2 1_555 1_555
C1_2 C2_2 1_555 1_555
C2_2 C3_2 1_555 1_555
C3_2 C4_2 1_555 1_555
C5_2 C3_2 1_555 1_555
H11_2 C5_2 1_555 1_555
C6_2 C5_2 1_555 1_555
H12_2 C6_2 1_555 1_555
C7_2 N5_2 1_555 1_555
H13_2 C7_2 1_555 1_555
O21_2 C22_2 1_555 1_555
O22_2 C25_2 1_555 1_555
O23_2 C25_2 1_555 1_555
C22_2 O19 1_555 1_555
C23_2 N5 1_555 1_555
C24_2 C23_2 1_555 1_555
C25_2 C24_2 1_555 1_555
C26_2 C24_2 1_555 1_555
H30_2 C26_2 1_555 1_555
C27_2 C26_2 1_555 1_555
C28_2 N5 1_555 1_555
C6_2 C7_2 1_555 1_555
C22_2 C23_2 1_555 1_555
C27_2 C28_2 1_555 1_555

#END
