
###############################################################################
#
# This file contains modified crystal structure data generated from the
# MOF subset of the Cambridge Structural Database (CSD) v543 
# hosted by the Cambridge Crystallographic Data Centre (CCDC).
#
# This work is licensed under the Creative Commons
# Attribution-NonCommercial-ShareAlike 4.0 International License.
# To view a copy of this license, visit
# http://creativecommons.org/licenses/by-nc-sa/4.0/
# or send a letter to
# Creative Commons, PO Box 1866, Mountain View, CA 94042, USA.
#
# CIF created using the CSD Python API on 29 September 2022
# The structure has been converted into the P1 space group
# The structure has a 3D framework
# The original CSD entry XEJREL is in the monoclinic crystal system
# The framework has been calculated to contain at least 10.0% void space
# The void calculation uses a probe of radius 1.32A, grid spacing 0.4
# The framework is charged, counterions have been retained in the structure
#
###############################################################################

data_XEJREL
_chemical_formula_moiety         '(C84 H76 Cu8 N12 O63 Tb4 1+)n'
_symmetry_cell_setting           triclinic
_symmetry_space_group_name_H-M   'P 1'
_symmetry_Int_Tables_number      1
_space_group_name_Hall           'P 1'
loop_
_symmetry_equiv_pos_site_id
_symmetry_equiv_pos_as_xyz
1 x,y,z
_cell_length_a                   11.758(4)
_cell_length_b                   13.149(4)
_cell_length_c                   21.709(5)
_cell_angle_alpha                90
_cell_angle_beta                 116.489(13)
_cell_angle_gamma                90
_cell_volume                     3003.99
loop_
_atom_site_label
_atom_site_type_symbol
_atom_site_fract_x
_atom_site_fract_y
_atom_site_fract_z
H34 H 0.0204 0.9118 0.6503
Tb1 Tb 0.27774(2) 0.062000(17) 0.147864(11)
Cu1 Cu 0.18336(5) 0.41557(4) 0.34278(3)
Cu2 Cu 0.5000 0.0000 0.5000
O1 O 0.0814(2) 0.0957(2) 0.15138(15)
O4 O 0.0574(3) 0.3493(3) 0.20215(17)
O5 O 0.3380(2) 0.3734(2) 0.33869(14)
O6 O 0.4456(3) 0.2346(2) 0.33846(14)
O7 O 0.3289(3) 0.0468(2) 0.26171(14)
O13 O 0.4374(3) 0.1836(2) 0.21257(13)
H1 H 0.4308(8) 0.1924(15) 0.2492(3)
H2 H 0.4352(12) 0.2360(5) 0.1901(4)
O14 O 0.1904(2) 0.2189(3) 0.09820(16)
H3 H 0.1189(4) 0.2357(16) 0.0947(6)
H4 H 0.2150(6) 0.2471(11) 0.0716(4)
O15 O 0.1454(3) 0.0025(2) 0.03327(15)
H5 H 0.1639(8) 0.0319(7) 0.0044(3)
N2 N 0.1563(3) 0.2685(2) 0.34599(16)
C8 C 0.3520(4) 0.2774(3) 0.3369(2)
C9 C 0.2457(4) 0.2142(3) 0.33785(19)
C10 C 0.2390(4) 0.1088(3) 0.3326(2)
C11 C 0.3332(4) 0.0427(3) 0.3208(2)
C12 C 0.1381(4) 0.0625(4) 0.3377(2)
C13 C 0.0480(4) 0.1196(3) 0.3467(2)
C14 C 0.0613(4) 0.2234(3) 0.3514(2)
H16 H 0.0022 0.2625 0.3584
Tb4 Tb 0.27774(2) 0.438000(17) 0.647864(11)
O20 O 0.0280(3) 0.4592(2) 0.34569(15)
O22 O 0.0326(3) 0.7961(2) 0.40665(15)
O27 O 0.5948(3) 0.0113(2) 0.63096(14)
O28 O 0.3447(2) 0.0480(2) 0.50174(14)
O29 O 0.2456(3) 0.1887(2) 0.50671(15)
O30 O 0.3801(3) 0.3923(2) 0.58037(13)
O31 O 0.3801(3) 0.1077(2) 0.08037(13)
O33 O 0.2779(2) 0.4230(2) 0.46805(14)
H25 H 0.8711(15) 0.0595(4) 0.9720(6)
O37 O 0.5486(2) 0.0527(2) 0.81582(12)
H26 H 0.5139(6) 0.0737(13) 0.8399(3)
H27 H 0.5026(17) 0.048(2) 0.7733(3)
O38 O 0.7998(2) 0.1041(2) 0.84038(15)
H28 H 0.8648(5) 0.104(2) 0.8337(4)
H29 H 0.8025(10) 0.1419(5) 0.8722(3)
N4 N 0.1948(3) 0.5627(3) 0.32737(16)
N7 N 0.5360(3) 0.1463(2) 0.50142(17)
C22 C 0.0083(4) 0.5556(3) 0.3435(2)
C23 C 0.1067(4) 0.6204(3) 0.3348(2)
C24 C 0.1038(4) 0.7257(3) 0.3310(2)
C25 C 0.0159(4) 0.7961(3) 0.3466(2)
C26 C 0.1963(4) 0.7707(3) 0.3165(2)
H30 H 0.1976 0.8410 0.3124
C27 C 0.2856(4) 0.7125(3) 0.3082(2)
H31 H 0.3470 0.7435 0.2986
C28 C 0.2843(4) 0.6077(3) 0.3140(2)
H32 H 0.3452 0.5685 0.3087
H33 H 0.8693 0.0080 0.6651
C36 C 0.3355(4) 0.1451(3) 0.5060(2)
C37 C 0.4465(4) 0.2056(3) 0.50669(19)
C38 C 0.4568(4) 0.3106(3) 0.5100(2)
C39 C 0.3616(4) 0.3791(3) 0.5196(2)
C40 C 0.5621(4) 0.3545(3) 0.5082(2)
H36 H 0.5722 0.4247 0.5107
C41 C 0.6503(4) 0.2942(3) 0.5027(2)
H37 H 0.7211 0.3234 0.5011
C42 C 0.6364(4) 0.1903(3) 0.4994(2)
H38 H 0.6981 0.1500 0.4957
Cu2_2 Cu 0.5000 1.0000 0.5000
O8 O 0.4052(3) 0.9887(2) 0.36904(14)
O9 O 0.6553(2) 0.9520(2) 0.49826(14)
O10 O 0.7544(3) 0.8113(2) 0.49329(15)
O11 O 0.6199(3) 0.6077(2) 0.41963(13)
O12 O 0.7221(2) 0.5770(2) 0.53195(14)
H6 H 0.1289(15) 0.9405(4) 0.0280(6)
O16 O 0.4514(2) 0.9473(2) 0.18418(12)
H7 H 0.4861(6) 0.9263(13) 0.1601(3)
H8 H 0.4974(17) 0.952(2) 0.2267(3)
O17 O 0.2002(2) 0.8959(2) 0.15962(15)
H9 H 0.1352(5) 0.896(2) 0.1663(4)
H10 H 0.1975(10) 0.8581(5) 0.1278(3)
N3 N 0.4640(3) 0.8537(2) 0.49858(17)
H14 H 0.1307 0.9920 0.3349
C15 C 0.6645(4) 0.8549(3) 0.4940(2)
C16 C 0.5535(4) 0.7944(3) 0.49331(19)
C17 C 0.5432(4) 0.6894(3) 0.4900(2)
C18 C 0.6384(4) 0.6209(3) 0.4804(2)
C19 C 0.4379(4) 0.6455(3) 0.4918(2)
H17 H 0.4278 0.5753 0.4893
C20 C 0.3497(4) 0.7058(3) 0.4973(2)
H18 H 0.2789 0.6766 0.4989
C21 C 0.3636(4) 0.8097(3) 0.5006(2)
H19 H 0.3019 0.8500 0.5043
Tb2 Tb 0.72226(2) 0.938000(17) 0.852136(11)
Tb3 Tb 0.72226(2) 0.562000(17) 0.352136(11)
Cu3 Cu 0.81664(5) 0.58443(4) 0.65722(3)
O19 O 0.9186(2) 0.9043(2) 0.84862(15)
O21 O 0.9720(3) 0.5408(2) 0.65431(15)
O24 O 0.6620(2) 0.6266(2) 0.66131(14)
O25 O 0.5544(3) 0.7654(2) 0.66154(14)
O26 O 0.6711(3) 0.9532(2) 0.73829(14)
O32 O 0.6199(3) 0.8923(2) 0.91963(13)
O34 O 0.5626(3) 0.8164(2) 0.78743(13)
H20 H 0.5692(8) 0.8076(15) 0.7508(3)
H21 H 0.5648(12) 0.7640(5) 0.8099(4)
O35 O 0.8096(2) 0.7811(3) 0.90180(16)
H22 H 0.8811(4) 0.7643(16) 0.9053(6)
H23 H 0.7850(6) 0.7529(11) 0.9284(4)
O36 O 0.8546(3) 0.9975(2) 0.96673(15)
H24 H 0.8361(8) 0.9681(7) 0.9956(3)
N5 N 0.8052(3) 0.4373(3) 0.67263(16)
N6 N 0.8437(3) 0.7315(2) 0.65401(16)
C29 C 0.6480(4) 0.7226(3) 0.6631(2)
C30 C 0.7543(4) 0.7858(3) 0.66215(19)
C31 C 0.7610(4) 0.8912(3) 0.6674(2)
C32 C 0.6668(4) 0.9573(3) 0.6792(2)
C33 C 0.8619(4) 0.9375(4) 0.6623(2)
C34 C 0.9520(4) 0.8804(3) 0.6533(2)
C35 C 0.9387(4) 0.7766(3) 0.6486(2)
H35 H 0.9978 0.7375 0.6416
O3 O 0.9674(3) 0.2961(2) 0.09335(15)
N1 N 0.8052(3) 0.0627(3) 0.17263(16)
C1 C 0.9917(4) 0.0556(3) 0.1565(2)
C2 C 0.8933(4) 0.1204(3) 0.1652(2)
C3 C 0.8962(4) 0.2257(3) 0.1690(2)
C4 C 0.9841(4) 0.2961(3) 0.1534(2)
C5 C 0.8037(4) 0.2707(3) 0.1835(2)
H11 H 0.8024 0.3410 0.1876
C6 C 0.7144(4) 0.2125(3) 0.1918(2)
H12 H 0.6530 0.2435 0.2014
C7 C 0.7157(4) 0.1077(3) 0.1860(2)
H13 H 0.6548 0.0685 0.1913
H15 H 0.9796 0.0882 0.3497
O18 O 0.9186(2) 0.5957(2) 0.34862(15)
O23 O 0.9426(3) 0.8493(3) 0.29785(17)
O2 O 0.9720(3) 0.9592(2) 0.15431(15)
Cu4 Cu 0.81664(5) 0.91557(4) 0.15722(3)
H15_2 H 0.0204 0.5882 0.1503
Cu2_3 Cu 0.5000 0.5000 0.0000
O5_2 O 0.6620(2) 0.8734(2) 0.16131(14)
O6_2 O 0.5544(3) 0.7346(2) 0.16154(14)
O7_2 O 0.6711(3) 0.5468(2) 0.23829(14)
O8_2 O 0.5948(3) 0.4887(2) 0.13096(14)
O9_2 O 0.3447(2) 0.4520(2) 0.00174(14)
O10_2 O 0.2456(3) 0.3113(2) 0.00671(15)
O13_2 O 0.5626(3) 0.6836(2) 0.28743(13)
H1_2 H 0.5692(8) 0.6924(15) 0.2508(3)
H2_2 H 0.5648(12) 0.7360(5) 0.3099(4)
O14_2 O 0.8096(2) 0.7189(3) 0.40180(16)
H3_2 H 0.8811(4) 0.7357(16) 0.4053(6)
H4_2 H 0.7850(6) 0.7471(11) 0.4284(4)
O15_2 O 0.8546(3) 0.5025(2) 0.46673(15)
H5_2 H 0.8361(8) 0.5319(7) 0.4956(3)
H6_2 H 0.8711(15) 0.4405(4) 0.4720(6)
O16_2 O 0.5486(2) 0.4473(2) 0.31582(12)
H7_2 H 0.5139(6) 0.4263(13) 0.3399(3)
H8_2 H 0.5026(17) 0.452(2) 0.2733(3)
O17_2 O 0.7998(2) 0.3959(2) 0.34038(15)
H9_2 H 0.8648(5) 0.396(2) 0.3337(4)
H10_2 H 0.8025(10) 0.3581(5) 0.3722(3)
N2_2 N 0.8437(3) 0.7685(2) 0.15401(16)
N3_2 N 0.5360(3) 0.3537(2) 0.00142(17)
C8_2 C 0.6480(4) 0.7774(3) 0.1631(2)
C9_2 C 0.7543(4) 0.7142(3) 0.16215(19)
C10_2 C 0.7610(4) 0.6088(3) 0.1674(2)
C11_2 C 0.6668(4) 0.5427(3) 0.1792(2)
C12_2 C 0.8619(4) 0.5625(4) 0.1623(2)
H14_2 H 0.8693 0.4920 0.1651
C13_2 C 0.9520(4) 0.6196(3) 0.1533(2)
C14_2 C 0.9387(4) 0.7234(3) 0.1486(2)
H16_2 H 0.9978 0.7625 0.1416
C15_2 C 0.3355(4) 0.3549(3) 0.0060(2)
C16_2 C 0.4465(4) 0.2944(3) 0.00669(19)
C17_2 C 0.4568(4) 0.1894(3) 0.0100(2)
C18_2 C 0.3616(4) 0.1209(3) 0.0196(2)
C19_2 C 0.5621(4) 0.1455(3) 0.0082(2)
H17_2 H 0.5722 0.0753 0.0107
C20_2 C 0.6503(4) 0.2058(3) 0.0027(2)
H18_2 H 0.7211 0.1766 0.0011
O33_2 O 0.7221(2) 0.9230(2) 0.03195(14)
C42_2 C 0.3636(4) 0.6903(3) 0.0006(2)
H38_2 H 0.3019 0.6500 0.0043
Cu2_4 Cu 0.5000 0.5000 1.0000
O12_2 O 0.2779(2) 0.0770(2) 0.96805(14)
C21_2 C 0.6364(4) 0.3097(3) 0.9994(2)
H19_2 H 0.6981 0.3500 0.9957
Cu3_2 Cu 0.18336(5) 0.08443(4) 0.84278(3)
O19_2 O 0.0814(2) 0.4043(2) 0.65138(15)
O21_2 O 0.0280(3) 0.0408(2) 0.84569(15)
O24_2 O 0.3380(2) 0.1266(2) 0.83869(14)
O25_2 O 0.4456(3) 0.2654(2) 0.83846(14)
O26_2 O 0.3289(3) 0.4532(2) 0.76171(14)
O27_2 O 0.4052(3) 0.5113(2) 0.86904(14)
O28_2 O 0.6553(2) 0.5480(2) 0.99826(14)
O29_2 O 0.7544(3) 0.6887(2) 0.99329(15)
O34_2 O 0.4374(3) 0.3164(2) 0.71257(13)
H20_2 H 0.4308(8) 0.3076(15) 0.7492(3)
H21_2 H 0.4352(12) 0.2640(5) 0.6901(4)
O35_2 O 0.1904(2) 0.2811(3) 0.59820(16)
H22_2 H 0.1189(4) 0.2643(16) 0.5947(6)
H23_2 H 0.2150(6) 0.2529(11) 0.5716(4)
O36_2 O 0.1454(3) 0.4975(2) 0.53327(15)
H24_2 H 0.1639(8) 0.4681(7) 0.5044(3)
H25_2 H 0.1289(15) 0.5595(4) 0.5280(6)
O37_2 O 0.4514(2) 0.5527(2) 0.68418(12)
H26_2 H 0.4861(6) 0.5737(13) 0.6601(3)
H27_2 H 0.4974(17) 0.548(2) 0.7267(3)
O38_2 O 0.2002(2) 0.6041(2) 0.65962(15)
H28_2 H 0.1352(5) 0.604(2) 0.6663(4)
H29_2 H 0.1975(10) 0.6419(5) 0.6278(3)
N6_2 N 0.1563(3) 0.2315(2) 0.84599(16)
N7_2 N 0.4640(3) 0.6463(2) 0.99858(17)
C29_2 C 0.3520(4) 0.2226(3) 0.8369(2)
C30_2 C 0.2457(4) 0.2858(3) 0.83785(19)
C31_2 C 0.2390(4) 0.3912(3) 0.8326(2)
C32_2 C 0.3332(4) 0.4573(3) 0.8208(2)
C33_2 C 0.1381(4) 0.4375(4) 0.8377(2)
H33_2 H 0.1307 0.5080 0.8349
C34_2 C 0.0480(4) 0.3804(3) 0.8467(2)
C35_2 C 0.0613(4) 0.2766(3) 0.8514(2)
H35_2 H 0.0022 0.2375 0.8584
C36_2 C 0.6645(4) 0.6451(3) 0.9940(2)
C37_2 C 0.5535(4) 0.7056(3) 0.99331(19)
C38_2 C 0.5432(4) 0.8106(3) 0.9900(2)
C39_2 C 0.6384(4) 0.8791(3) 0.9804(2)
C40_2 C 0.4379(4) 0.8545(3) 0.9918(2)
H36_2 H 0.4278 0.9247 0.9893
C41_2 C 0.3497(4) 0.7942(3) 0.9973(2)
H37_2 H 0.2789 0.8234 0.9989
N5_2 N 0.1948(3) 0.9373(3) 0.82737(16)
H34_2 H 0.9796 0.4118 0.8497
O3_2 O 0.0326(3) 0.7039(2) 0.90665(15)
C1_2 C 0.0083(4) 0.9444(3) 0.8435(2)
C2_2 C 0.1067(4) 0.8796(3) 0.8348(2)
C3_2 C 0.1038(4) 0.7743(3) 0.8310(2)
C4_2 C 0.0159(4) 0.7039(3) 0.8466(2)
C5_2 C 0.1963(4) 0.7293(3) 0.8165(2)
H11_2 H 0.1976 0.6590 0.8124
C6_2 C 0.2856(4) 0.7875(3) 0.8082(2)
H12_2 H 0.3470 0.7565 0.7986
C7_2 C 0.2843(4) 0.8923(3) 0.8140(2)
H13_2 H 0.3452 0.9315 0.8087
O23_2 O 0.0574(3) 0.1507(3) 0.70215(17)
O4_2 O 0.9426(3) 0.6507(3) 0.79785(17)
O22_2 O 0.9674(3) 0.2039(2) 0.59335(15)
C22_2 C 0.9917(4) 0.4444(3) 0.6565(2)
C23_2 C 0.8933(4) 0.3796(3) 0.6652(2)
C24_2 C 0.8962(4) 0.2743(3) 0.6690(2)
C25_2 C 0.9841(4) 0.2039(3) 0.6534(2)
C26_2 C 0.8037(4) 0.2293(3) 0.6835(2)
H30_2 H 0.8024 0.1590 0.6876
C27_2 C 0.7144(4) 0.2875(3) 0.6918(2)
H31_2 H 0.6530 0.2565 0.7014
C28_2 C 0.7157(4) 0.3923(3) 0.6860(2)
H32_2 H 0.6548 0.4315 0.6913
loop_
_geom_bond_atom_site_label_1
_geom_bond_atom_site_label_2
_geom_bond_site_symmetry_1
_geom_bond_site_symmetry_2
Tb1 O1 1_555 1_555
Cu1 O5 1_555 1_555
O5 C8 1_555 1_555
O6 C8 1_555 1_555
O7 Tb1 1_555 1_555
O13 Tb1 1_555 1_555
H1 O13 1_555 1_555
H2 O13 1_555 1_555
O14 Tb1 1_555 1_555
H3 O14 1_555 1_555
H4 O14 1_555 1_555
O15 Tb1 1_555 1_555
H5 O15 1_555 1_555
N2 Cu1 1_555 1_555
C8 C9 1_555 1_555
C9 N2 1_555 1_555
C10 C9 1_555 1_555
C11 O7 1_555 1_555
C12 C10 1_555 1_555
C13 C12 1_555 1_555
C14 N2 1_555 1_555
H16 C14 1_555 1_555
Tb4 O30 1_555 1_555
O20 Cu1 1_555 1_555
O22 C25 1_555 1_555
O27 Cu2 1_555 1_555
O28 Cu2 1_555 1_555
O29 C36 1_555 1_555
O30 C39 1_555 1_555
O31 Tb1 1_555 1_555
O33 Cu1 1_555 1_555
H26 O37 1_555 1_555
H27 O37 1_555 1_555
H28 O38 1_555 1_555
H29 O38 1_555 1_555
N4 Cu1 1_555 1_555
N7 Cu2 1_555 1_555
C22 O20 1_555 1_555
C23 N4 1_555 1_555
C24 C23 1_555 1_555
C25 C24 1_555 1_555
C26 C24 1_555 1_555
H30 C26 1_555 1_555
C27 C26 1_555 1_555
H31 C27 1_555 1_555
C28 N4 1_555 1_555
H32 C28 1_555 1_555
C36 O28 1_555 1_555
C37 N7 1_555 1_555
C38 C37 1_555 1_555
C39 O33 1_555 1_555
C40 C38 1_555 1_555
H36 C40 1_555 1_555
C41 C40 1_555 1_555
H37 C41 1_555 1_555
C42 N7 1_555 1_555
H38 C42 1_555 1_555
C10 C11 1_555 1_555
C13 C14 1_555 1_555
C22 C23 1_555 1_555
C27 C28 1_555 1_555
C36 C37 1_555 1_555
C38 C39 1_555 1_555
C41 C42 1_555 1_555
Cu2_2 O8 1_555 1_555
O9 Cu2_2 1_555 1_555
O10 C15 1_555 1_555
O11 C18 1_555 1_555
O12 C18 1_555 1_555
H7 O16 1_555 1_555
H8 O16 1_555 1_555
H9 O17 1_555 1_555
H10 O17 1_555 1_555
N3 Cu2_2 1_555 1_555
C15 O9 1_555 1_555
C16 N3 1_555 1_555
C17 C16 1_555 1_555
C18 C17 1_555 1_555
C19 C17 1_555 1_555
H17 C19 1_555 1_555
C20 C19 1_555 1_555
H18 C20 1_555 1_555
C21 N3 1_555 1_555
H19 C21 1_555 1_555
Tb2 O19 1_555 1_555
Tb3 O11 1_555 1_555
Cu3 O12 1_555 1_555
O21 Cu3 1_555 1_555
O24 Cu3 1_555 1_555
O25 C29 1_555 1_555
O26 Tb2 1_555 1_555
O32 Tb2 1_555 1_555
O34 Tb2 1_555 1_555
H20 O34 1_555 1_555
H21 O34 1_555 1_555
O35 Tb2 1_555 1_555
H22 O35 1_555 1_555
H23 O35 1_555 1_555
O36 Tb2 1_555 1_555
H24 O36 1_555 1_555
N5 Cu3 1_555 1_555
N6 Cu3 1_555 1_555
C29 O24 1_555 1_555
C30 N6 1_555 1_555
C31 C30 1_555 1_555
C32 O26 1_555 1_555
C33 C31 1_555 1_555
C34 C33 1_555 1_555
C35 N6 1_555 1_555
H35 C35 1_555 1_555
C15 C16 1_555 1_555
C20 C21 1_555 1_555
C29 C30 1_555 1_555
C31 C32 1_555 1_555
C34 C35 1_555 1_555
O3 C4 1_555 1_555
N1 C2 1_555 1_555
C1 C2 1_555 1_555
C2 C3 1_555 1_555
C3 C4 1_555 1_555
C5 C3 1_555 1_555
H11 C5 1_555 1_555
C6 C5 1_555 1_555
H12 C6 1_555 1_555
C7 N1 1_555 1_555
H13 C7 1_555 1_555
Tb3 O18 1_555 1_555
C6 C7 1_555 1_555
Cu4 O2 1_555 1_555
Cu4 O5_2 1_555 1_555
Cu2_3 O8_2 1_555 1_555
O5_2 C8_2 1_555 1_555
O6_2 C8_2 1_555 1_555
O7_2 Tb3 1_555 1_555
O8_2 C11_2 1_555 1_555
O9_2 Cu2_3 1_555 1_555
O10_2 C15_2 1_555 1_555
O31 C18_2 1_555 1_555
O13_2 Tb3 1_555 1_555
H1_2 O13_2 1_555 1_555
H2_2 O13_2 1_555 1_555
O14_2 Tb3 1_555 1_555
H3_2 O14_2 1_555 1_555
H4_2 O14_2 1_555 1_555
O15_2 Tb3 1_555 1_555
H5_2 O15_2 1_555 1_555
H6_2 O15_2 1_555 1_555
O16_2 Tb3 1_555 1_555
H7_2 O16_2 1_555 1_555
H8_2 O16_2 1_555 1_555
O17_2 Tb3 1_555 1_555
H9_2 O17_2 1_555 1_555
H10_2 O17_2 1_555 1_555
N2_2 Cu4 1_555 1_555
N3_2 Cu2_3 1_555 1_555
C8_2 C9_2 1_555 1_555
C9_2 N2_2 1_555 1_555
C10_2 C9_2 1_555 1_555
C11_2 O7_2 1_555 1_555
C12_2 C10_2 1_555 1_555
H14_2 C12_2 1_555 1_555
C13_2 C12_2 1_555 1_555
C14_2 N2_2 1_555 1_555
H16_2 C14_2 1_555 1_555
C15_2 O9_2 1_555 1_555
C16_2 N3_2 1_555 1_555
C17_2 C16_2 1_555 1_555
C18_2 C17_2 1_555 1_555
C19_2 C17_2 1_555 1_555
H17_2 C19_2 1_555 1_555
C20_2 C19_2 1_555 1_555
H18_2 C20_2 1_555 1_555
O33_2 Cu4 1_555 1_555
H38_2 C42_2 1_555 1_555
C10_2 C11_2 1_555 1_555
C13_2 C14_2 1_555 1_555
C15_2 C16_2 1_555 1_555
H19_2 C21_2 1_555 1_555
Tb4 O19_2 1_555 1_555
Cu3_2 O12_2 1_555 1_555
O21_2 Cu3_2 1_555 1_555
O24_2 Cu3_2 1_555 1_555
O25_2 C29_2 1_555 1_555
O26_2 Tb4 1_555 1_555
O27_2 Cu2_4 1_555 1_555
O28_2 Cu2_4 1_555 1_555
O29_2 C36_2 1_555 1_555
O32 C39_2 1_555 1_555
O34_2 Tb4 1_555 1_555
H20_2 O34_2 1_555 1_555
H21_2 O34_2 1_555 1_555
O35_2 Tb4 1_555 1_555
H22_2 O35_2 1_555 1_555
H23_2 O35_2 1_555 1_555
O36_2 Tb4 1_555 1_555
H24_2 O36_2 1_555 1_555
H25_2 O36_2 1_555 1_555
O37_2 Tb4 1_555 1_555
H26_2 O37_2 1_555 1_555
H27_2 O37_2 1_555 1_555
O38_2 Tb4 1_555 1_555
H28_2 O38_2 1_555 1_555
H29_2 O38_2 1_555 1_555
N6_2 Cu3_2 1_555 1_555
N7_2 Cu2_4 1_555 1_555
C29_2 O24_2 1_555 1_555
C30_2 N6_2 1_555 1_555
C31_2 C30_2 1_555 1_555
C32_2 O26_2 1_555 1_555
C33_2 C31_2 1_555 1_555
H33_2 C33_2 1_555 1_555
C34_2 C33_2 1_555 1_555
C35_2 N6_2 1_555 1_555
H35_2 C35_2 1_555 1_555
C36_2 O28_2 1_555 1_555
C37_2 N7_2 1_555 1_555
C38_2 C37_2 1_555 1_555
C40_2 C38_2 1_555 1_555
H36_2 C40_2 1_555 1_555
C41_2 C40_2 1_555 1_555
H37_2 C41_2 1_555 1_555
O27_2 C32_2 1_555 1_555
C29_2 C30_2 1_555 1_555
C31_2 C32_2 1_555 1_555
C34_2 C35_2 1_555 1_555
C36_2 C37_2 1_555 1_555
C38_2 C39_2 1_555 1_555
O3_2 C4_2 1_555 1_555
N5_2 C2_2 1_555 1_555
C1_2 C2_2 1_555 1_555
C2_2 C3_2 1_555 1_555
C3_2 C4_2 1_555 1_555
C5_2 C3_2 1_555 1_555
H11_2 C5_2 1_555 1_555
C6_2 C5_2 1_555 1_555
H12_2 C6_2 1_555 1_555
C7_2 N5_2 1_555 1_555
H13_2 C7_2 1_555 1_555
C6_2 C7_2 1_555 1_555
O22_2 C25_2 1_555 1_555
C22_2 O21 1_555 1_555
C23_2 N5 1_555 1_555
C24_2 C23_2 1_555 1_555
C25_2 C24_2 1_555 1_555
C26_2 C24_2 1_555 1_555
H30_2 C26_2 1_555 1_555
C27_2 C26_2 1_555 1_555
H31_2 C27_2 1_555 1_555
C28_2 N5 1_555 1_555
H32_2 C28_2 1_555 1_555
C22_2 C23_2 1_555 1_555
C27_2 C28_2 1_555 1_555

#END
