
###############################################################################
#
# This file contains modified crystal structure data generated from the
# MOF subset of the Cambridge Structural Database (CSD) v543 
# hosted by the Cambridge Crystallographic Data Centre (CCDC).
#
# This work is licensed under the Creative Commons
# Attribution-NonCommercial-ShareAlike 4.0 International License.
# To view a copy of this license, visit
# http://creativecommons.org/licenses/by-nc-sa/4.0/
# or send a letter to
# Creative Commons, PO Box 1866, Mountain View, CA 94042, USA.
#
# CIF created using the CSD Python API on 29 September 2022
# The structure has been converted into the P1 space group
# The structure has a 3D framework
# The original CSD entry XEJRIP is in the monoclinic crystal system
# The framework has been calculated to contain at least 10.0% void space
# The void calculation uses a probe of radius 1.32A, grid spacing 0.4
# The framework is charged, counterions have been retained in the structure
#
###############################################################################

data_XEJRIP
_chemical_formula_moiety         '(C84 H76 Cu8 Ho4 N12 O63 1+)n'
_symmetry_cell_setting           triclinic
_symmetry_space_group_name_H-M   'P 1'
_symmetry_Int_Tables_number      1
_space_group_name_Hall           'P 1'
loop_
_symmetry_equiv_pos_site_id
_symmetry_equiv_pos_as_xyz
1 x,y,z
_cell_length_a                   11.739(2)
_cell_length_b                   13.138(3)
_cell_length_c                   21.666(4)
_cell_angle_alpha                90
_cell_angle_beta                 116.366(8)
_cell_angle_gamma                90
_cell_volume                     2993.89
loop_
_atom_site_label
_atom_site_type_symbol
_atom_site_fract_x
_atom_site_fract_y
_atom_site_fract_z
H34 H 0.0207 0.9127 0.6494
Ho1 Ho 0.27848(5) 0.06215(5) 0.14882(3)
Cu1 Cu 0.18351(13) 0.41620(11) 0.34336(8)
Cu2 Cu 0.5000 0.0000 0.5000
O1 O 0.0844(7) 0.0956(6) 0.1526(4)
O4 O 0.0599(8) 0.3504(7) 0.2026(4)
O5 O 0.3374(7) 0.3734(6) 0.3388(4)
O6 O 0.4456(7) 0.2361(6) 0.3386(4)
O7 O 0.3279(7) 0.0476(6) 0.2620(4)
O13 O 0.4388(8) 0.1818(6) 0.2126(4)
H1 H 0.4321 0.1906 0.2492
H2 H 0.4365 0.2343 0.1901
O14 O 0.1924(8) 0.2167(7) 0.1000(5)
H3 H 0.1208 0.2334 0.0965
H4 H 0.2169 0.2448 0.0734
O15 O 0.1481(8) 0.0013(7) 0.0368(4)
H5 H 0.1666 0.0307 0.0079
N2 N 0.1582(9) 0.2697(7) 0.3479(4)
C8 C 0.3530(12) 0.2783(10) 0.3379(6)
C9 C 0.2472(10) 0.2134(9) 0.3384(5)
C10 C 0.2378(11) 0.1088(9) 0.3342(5)
C11 C 0.3344(11) 0.0446(10) 0.3217(7)
C12 C 0.1374(10) 0.0616(11) 0.3379(5)
C13 C 0.0478(12) 0.1185(10) 0.3477(6)
C14 C 0.0625(11) 0.2220(10) 0.3529(6)
H16 H 0.0032 0.2606 0.3602
Ho4 Ho 0.27848(5) 0.43785(5) 0.64882(3)
O20 O 0.0272(7) 0.4595(6) 0.3461(4)
O22 O 0.0298(8) 0.7961(7) 0.4050(5)
O27 O 0.5940(8) 0.0117(6) 0.6312(4)
O28 O 0.3456(7) 0.0476(6) 0.5031(4)
O29 O 0.2483(7) 0.1878(6) 0.5091(4)
O30 O 0.3818(7) 0.3920(6) 0.5829(4)
O31 O 0.3818(7) 0.1080(6) 0.0829(4)
O33 O 0.2783(7) 0.4229(6) 0.4693(4)
H25 H 0.8683 0.0607 0.9685
O37 O 0.5518(7) 0.0504(6) 0.8169(4)
H26 H 0.5171 0.0714 0.8410
H27 H 0.5059 0.0455 0.7744
O38 O 0.7981(7) 0.1018(6) 0.8387(4)
H28 H 0.8632 0.1016 0.8320
H29 H 0.8008 0.1396 0.8705
N4 N 0.1951(8) 0.5637(8) 0.3275(4)
N7 N 0.5359(9) 0.1471(7) 0.5020(4)
C22 C 0.0084(11) 0.5545(10) 0.3442(5)
C23 C 0.1050(11) 0.6197(9) 0.3340(5)
C24 C 0.1023(11) 0.7257(9) 0.3300(6)
C25 C 0.0154(12) 0.7962(10) 0.3443(8)
C26 C 0.1956(12) 0.7697(9) 0.3141(6)
H30 H 0.1970 0.8400 0.3093
C27 C 0.2845(12) 0.7112(10) 0.3057(6)
H31 H 0.3457 0.7416 0.2955
C28 C 0.2821(12) 0.6082(9) 0.3124(6)
H32 H 0.3418 0.5683 0.3063
H33 H 0.8706 0.0088 0.6661
C36 C 0.3397(11) 0.1442(10) 0.5070(5)
C37 C 0.4460(11) 0.2056(9) 0.5075(5)
C38 C 0.4561(10) 0.3106(8) 0.5110(5)
C39 C 0.3617(11) 0.3799(8) 0.5210(6)
C40 C 0.5626(11) 0.3550(9) 0.5093(6)
H36 H 0.5725 0.4253 0.5119
C41 C 0.6523(11) 0.2943(10) 0.5037(6)
H37 H 0.7233 0.3228 0.5020
C42 C 0.6361(11) 0.1916(9) 0.5009(6)
H38 H 0.6983 0.1508 0.4980
Cu2_2 Cu 0.5000 1.0000 0.5000
O8 O 0.4060(8) 0.9883(6) 0.3688(4)
O9 O 0.6544(7) 0.9524(6) 0.4969(4)
O10 O 0.7517(7) 0.8122(6) 0.4909(4)
O11 O 0.6182(7) 0.6080(6) 0.4171(4)
O12 O 0.7217(7) 0.5771(6) 0.5307(4)
H6 H 0.1317 0.9393 0.0315
O16 O 0.4482(7) 0.9496(6) 0.1831(4)
H7 H 0.4829 0.9286 0.1590
H8 H 0.4941 0.9545 0.2256
O17 O 0.2019(7) 0.8982(6) 0.1613(4)
H9 H 0.1368 0.8984 0.1680
H10 H 0.1992 0.8604 0.1295
N3 N 0.4641(9) 0.8529(7) 0.4980(4)
H14 H 0.1294 0.9912 0.3339
C15 C 0.6603(11) 0.8558(10) 0.4930(5)
C16 C 0.5540(11) 0.7944(9) 0.4925(5)
C17 C 0.5439(10) 0.6894(8) 0.4890(5)
C18 C 0.6383(11) 0.6201(8) 0.4790(6)
C19 C 0.4374(11) 0.6450(9) 0.4907(6)
H17 H 0.4275 0.5747 0.4881
C20 C 0.3477(11) 0.7057(10) 0.4963(6)
H18 H 0.2767 0.6772 0.4980
C21 C 0.3639(11) 0.8084(9) 0.4991(6)
H19 H 0.3017 0.8492 0.5020
Ho2 Ho 0.72152(5) 0.93785(5) 0.85118(3)
Ho3 Ho 0.72152(5) 0.56215(5) 0.35118(3)
Cu3 Cu 0.81649(13) 0.58380(11) 0.65664(8)
O19 O 0.9156(7) 0.9044(6) 0.8474(4)
O21 O 0.9728(7) 0.5405(6) 0.6539(4)
O24 O 0.6626(7) 0.6266(6) 0.6612(4)
O25 O 0.5544(7) 0.7639(6) 0.6614(4)
O26 O 0.6721(7) 0.9524(6) 0.7380(4)
O32 O 0.6182(7) 0.8920(6) 0.9171(4)
O34 O 0.5612(8) 0.8182(6) 0.7874(4)
H20 H 0.5679 0.8094 0.7508
H21 H 0.5635 0.7657 0.8099
O35 O 0.8076(8) 0.7833(7) 0.9000(5)
H22 H 0.8792 0.7666 0.9035
H23 H 0.7831 0.7552 0.9266
O36 O 0.8519(8) 0.9987(7) 0.9632(4)
H24 H 0.8334 0.9693 0.9921
N5 N 0.8049(8) 0.4363(8) 0.6725(4)
N6 N 0.8418(9) 0.7303(7) 0.6521(4)
C29 C 0.6470(12) 0.7217(10) 0.6621(6)
C30 C 0.7528(10) 0.7866(9) 0.6616(5)
C31 C 0.7622(11) 0.8912(9) 0.6658(5)
C32 C 0.6656(11) 0.9554(10) 0.6783(7)
C33 C 0.8626(10) 0.9384(11) 0.6621(5)
C34 C 0.9522(12) 0.8815(10) 0.6523(6)
C35 C 0.9375(11) 0.7780(10) 0.6471(6)
H35 H 0.9968 0.7394 0.6398
O3 O 0.9702(8) 0.2961(7) 0.0950(5)
N1 N 0.8049(8) 0.0637(8) 0.1725(4)
C1 C 0.9916(11) 0.0545(10) 0.1558(5)
C2 C 0.8950(11) 0.1197(9) 0.1660(5)
C3 C 0.8977(11) 0.2257(9) 0.1700(6)
C4 C 0.9846(12) 0.2962(10) 0.1557(8)
C5 C 0.8044(12) 0.2697(9) 0.1859(6)
H11 H 0.8030 0.3400 0.1907
C6 C 0.7155(12) 0.2112(10) 0.1943(6)
H12 H 0.6543 0.2416 0.2045
C7 C 0.7179(12) 0.1082(9) 0.1876(6)
H13 H 0.6582 0.0683 0.1937
H15 H 0.9793 0.0873 0.3506
O18 O 0.9156(7) 0.5956(6) 0.3474(4)
O23 O 0.9401(8) 0.8504(7) 0.2974(4)
O2 O 0.9728(7) 0.9595(6) 0.1539(4)
Cu4 Cu 0.81649(13) 0.91620(11) 0.15664(8)
H15_2 H 0.0207 0.5873 0.1494
Cu2_3 Cu 0.5000 0.5000 0.0000
O5_2 O 0.6626(7) 0.8734(6) 0.1612(4)
O6_2 O 0.5544(7) 0.7361(6) 0.1614(4)
O7_2 O 0.6721(7) 0.5476(6) 0.2380(4)
O8_2 O 0.5940(8) 0.4883(6) 0.1312(4)
O9_2 O 0.3456(7) 0.4524(6) 0.0031(4)
O10_2 O 0.2483(7) 0.3122(6) 0.0091(4)
O13_2 O 0.5612(8) 0.6818(6) 0.2874(4)
H1_2 H 0.5679 0.6906 0.2508
H2_2 H 0.5635 0.7343 0.3099
O14_2 O 0.8076(8) 0.7167(7) 0.4000(5)
H3_2 H 0.8792 0.7334 0.4035
H4_2 H 0.7831 0.7448 0.4266
O15_2 O 0.8519(8) 0.5013(7) 0.4632(4)
H5_2 H 0.8334 0.5307 0.4921
H6_2 H 0.8683 0.4393 0.4685
O16_2 O 0.5518(7) 0.4496(6) 0.3169(4)
H7_2 H 0.5171 0.4286 0.3410
H8_2 H 0.5059 0.4545 0.2744
O17_2 O 0.7981(7) 0.3982(6) 0.3387(4)
H9_2 H 0.8632 0.3984 0.3320
H10_2 H 0.8008 0.3604 0.3705
N2_2 N 0.8418(9) 0.7697(7) 0.1521(4)
N3_2 N 0.5359(9) 0.3529(7) 0.0020(4)
C8_2 C 0.6470(12) 0.7783(10) 0.1621(6)
C9_2 C 0.7528(10) 0.7134(9) 0.1616(5)
C10_2 C 0.7622(11) 0.6088(9) 0.1658(5)
C11_2 C 0.6656(11) 0.5446(10) 0.1783(7)
C12_2 C 0.8626(10) 0.5616(11) 0.1621(5)
H14_2 H 0.8706 0.4912 0.1661
C13_2 C 0.9522(12) 0.6185(10) 0.1523(6)
C14_2 C 0.9375(11) 0.7220(10) 0.1471(6)
H16_2 H 0.9968 0.7606 0.1398
C15_2 C 0.3397(11) 0.3558(10) 0.0070(5)
C16_2 C 0.4460(11) 0.2944(9) 0.0075(5)
C17_2 C 0.4561(10) 0.1894(8) 0.0110(5)
C18_2 C 0.3617(11) 0.1201(8) 0.0210(6)
C19_2 C 0.5626(11) 0.1450(9) 0.0093(6)
H17_2 H 0.5725 0.0747 0.0119
C20_2 C 0.6523(11) 0.2057(10) 0.0037(6)
H18_2 H 0.7233 0.1772 0.0020
C21_2 C 0.6361(11) 0.3084(9) 0.0009(6)
O33_2 O 0.7217(7) 0.9229(6) 0.0307(4)
H38_2 H 0.3017 0.6508 0.0020
Cu2_4 Cu 0.5000 0.5000 1.0000
O12_2 O 0.2783(7) 0.0771(6) 0.9693(4)
H19_2 H 0.6983 0.3492 0.9980
Cu3_2 Cu 0.18351(13) 0.08380(11) 0.84336(8)
O19_2 O 0.0844(7) 0.4044(6) 0.6526(4)
O21_2 O 0.0272(7) 0.0405(6) 0.8461(4)
O24_2 O 0.3374(7) 0.1266(6) 0.8388(4)
O25_2 O 0.4456(7) 0.2639(6) 0.8386(4)
O26_2 O 0.3279(7) 0.4524(6) 0.7620(4)
O27_2 O 0.4060(8) 0.5117(6) 0.8688(4)
O28_2 O 0.6544(7) 0.5476(6) 0.9969(4)
O29_2 O 0.7517(7) 0.6878(6) 0.9909(4)
O34_2 O 0.4388(8) 0.3182(6) 0.7126(4)
H20_2 H 0.4321 0.3094 0.7492
H21_2 H 0.4365 0.2657 0.6901
O35_2 O 0.1924(8) 0.2833(7) 0.6000(5)
H22_2 H 0.1208 0.2666 0.5965
H23_2 H 0.2169 0.2552 0.5734
O36_2 O 0.1481(8) 0.4987(7) 0.5368(4)
H24_2 H 0.1666 0.4693 0.5079
H25_2 H 0.1317 0.5607 0.5315
O37_2 O 0.4482(7) 0.5504(6) 0.6831(4)
H26_2 H 0.4829 0.5714 0.6590
H27_2 H 0.4941 0.5455 0.7256
O38_2 O 0.2019(7) 0.6018(6) 0.6613(4)
H28_2 H 0.1368 0.6016 0.6680
H29_2 H 0.1992 0.6396 0.6295
N6_2 N 0.1582(9) 0.2303(7) 0.8479(4)
N7_2 N 0.4641(9) 0.6471(7) 0.9980(4)
C29_2 C 0.3530(12) 0.2217(10) 0.8379(6)
C30_2 C 0.2472(10) 0.2866(9) 0.8384(5)
C31_2 C 0.2378(11) 0.3912(9) 0.8342(5)
C32_2 C 0.3344(11) 0.4554(10) 0.8217(7)
C33_2 C 0.1374(10) 0.4384(11) 0.8379(5)
H33_2 H 0.1294 0.5088 0.8339
C34_2 C 0.0478(12) 0.3815(10) 0.8477(6)
C35_2 C 0.0625(11) 0.2780(10) 0.8529(6)
H35_2 H 0.0032 0.2394 0.8602
C36_2 C 0.6603(11) 0.6442(10) 0.9930(5)
C37_2 C 0.5540(11) 0.7056(9) 0.9925(5)
C38_2 C 0.5439(10) 0.8106(8) 0.9890(5)
C39_2 C 0.6383(11) 0.8799(8) 0.9790(6)
C40_2 C 0.4374(11) 0.8550(9) 0.9907(6)
H36_2 H 0.4275 0.9253 0.9881
C41_2 C 0.3477(11) 0.7943(10) 0.9963(6)
H37_2 H 0.2767 0.8228 0.9980
C42_2 C 0.3639(11) 0.6916(9) 0.9991(6)
N5_2 N 0.1951(8) 0.9363(8) 0.8275(4)
H34_2 H 0.9793 0.4127 0.8506
O3_2 O 0.0298(8) 0.7039(7) 0.9050(5)
C1_2 C 0.0084(11) 0.9455(10) 0.8442(5)
C2_2 C 0.1050(11) 0.8803(9) 0.8340(5)
C3_2 C 0.1023(11) 0.7743(9) 0.8300(6)
C4_2 C 0.0154(12) 0.7038(10) 0.8443(8)
C5_2 C 0.1956(12) 0.7303(9) 0.8141(6)
H11_2 H 0.1970 0.6600 0.8093
C6_2 C 0.2845(12) 0.7888(10) 0.8057(6)
H12_2 H 0.3457 0.7584 0.7955
C7_2 C 0.2821(12) 0.8918(9) 0.8124(6)
H13_2 H 0.3418 0.9317 0.8063
O23_2 O 0.0599(8) 0.1496(7) 0.7026(4)
O4_2 O 0.9401(8) 0.6496(7) 0.7974(4)
O22_2 O 0.9702(8) 0.2039(7) 0.5950(5)
C22_2 C 0.9916(11) 0.4455(10) 0.6558(5)
C23_2 C 0.8950(11) 0.3803(9) 0.6660(5)
C24_2 C 0.8977(11) 0.2743(9) 0.6700(6)
C25_2 C 0.9846(12) 0.2038(10) 0.6557(8)
C26_2 C 0.8044(12) 0.2303(9) 0.6859(6)
H30_2 H 0.8030 0.1600 0.6907
C27_2 C 0.7155(12) 0.2888(10) 0.6943(6)
H31_2 H 0.6543 0.2584 0.7045
C28_2 C 0.7179(12) 0.3918(9) 0.6876(6)
H32_2 H 0.6582 0.4317 0.6937
loop_
_geom_bond_atom_site_label_1
_geom_bond_atom_site_label_2
_geom_bond_site_symmetry_1
_geom_bond_site_symmetry_2
Ho1 O1 1_555 1_555
Cu1 O5 1_555 1_555
O5 C8 1_555 1_555
O6 C8 1_555 1_555
O7 Ho1 1_555 1_555
O13 Ho1 1_555 1_555
H1 O13 1_555 1_555
H2 O13 1_555 1_555
O14 Ho1 1_555 1_555
H3 O14 1_555 1_555
H4 O14 1_555 1_555
O15 Ho1 1_555 1_555
H5 O15 1_555 1_555
N2 Cu1 1_555 1_555
C8 C9 1_555 1_555
C9 N2 1_555 1_555
C10 C9 1_555 1_555
C11 O7 1_555 1_555
C12 C10 1_555 1_555
C13 C12 1_555 1_555
C14 N2 1_555 1_555
H16 C14 1_555 1_555
Ho4 O30 1_555 1_555
O20 Cu1 1_555 1_555
O22 C25 1_555 1_555
O27 Cu2 1_555 1_555
O28 Cu2 1_555 1_555
O29 C36 1_555 1_555
O30 C39 1_555 1_555
O31 Ho1 1_555 1_555
O33 Cu1 1_555 1_555
H26 O37 1_555 1_555
H27 O37 1_555 1_555
H28 O38 1_555 1_555
H29 O38 1_555 1_555
N4 Cu1 1_555 1_555
N7 Cu2 1_555 1_555
C22 O20 1_555 1_555
C23 N4 1_555 1_555
C24 C23 1_555 1_555
C25 C24 1_555 1_555
C26 C24 1_555 1_555
H30 C26 1_555 1_555
C27 C26 1_555 1_555
H31 C27 1_555 1_555
C28 N4 1_555 1_555
H32 C28 1_555 1_555
C36 O28 1_555 1_555
C37 N7 1_555 1_555
C38 C37 1_555 1_555
C39 O33 1_555 1_555
C40 C38 1_555 1_555
H36 C40 1_555 1_555
C41 C40 1_555 1_555
H37 C41 1_555 1_555
C42 N7 1_555 1_555
H38 C42 1_555 1_555
C10 C11 1_555 1_555
C13 C14 1_555 1_555
C22 C23 1_555 1_555
C27 C28 1_555 1_555
C36 C37 1_555 1_555
C38 C39 1_555 1_555
C41 C42 1_555 1_555
Cu2_2 O8 1_555 1_555
O9 Cu2_2 1_555 1_555
O10 C15 1_555 1_555
O11 C18 1_555 1_555
O12 C18 1_555 1_555
H7 O16 1_555 1_555
H8 O16 1_555 1_555
H9 O17 1_555 1_555
H10 O17 1_555 1_555
N3 Cu2_2 1_555 1_555
C15 O9 1_555 1_555
C16 N3 1_555 1_555
C17 C16 1_555 1_555
C18 C17 1_555 1_555
C19 C17 1_555 1_555
H17 C19 1_555 1_555
C20 C19 1_555 1_555
H18 C20 1_555 1_555
C21 N3 1_555 1_555
H19 C21 1_555 1_555
Ho2 O19 1_555 1_555
Ho3 O11 1_555 1_555
Cu3 O12 1_555 1_555
O21 Cu3 1_555 1_555
O24 Cu3 1_555 1_555
O25 C29 1_555 1_555
O26 Ho2 1_555 1_555
O32 Ho2 1_555 1_555
O34 Ho2 1_555 1_555
H20 O34 1_555 1_555
H21 O34 1_555 1_555
O35 Ho2 1_555 1_555
H22 O35 1_555 1_555
H23 O35 1_555 1_555
O36 Ho2 1_555 1_555
H24 O36 1_555 1_555
N5 Cu3 1_555 1_555
N6 Cu3 1_555 1_555
C29 O24 1_555 1_555
C30 N6 1_555 1_555
C31 C30 1_555 1_555
C32 O26 1_555 1_555
C33 C31 1_555 1_555
C34 C33 1_555 1_555
C35 N6 1_555 1_555
H35 C35 1_555 1_555
C15 C16 1_555 1_555
C20 C21 1_555 1_555
C29 C30 1_555 1_555
C31 C32 1_555 1_555
C34 C35 1_555 1_555
O3 C4 1_555 1_555
N1 C2 1_555 1_555
C1 C2 1_555 1_555
C2 C3 1_555 1_555
C3 C4 1_555 1_555
C5 C3 1_555 1_555
H11 C5 1_555 1_555
C6 C5 1_555 1_555
H12 C6 1_555 1_555
C7 N1 1_555 1_555
H13 C7 1_555 1_555
Ho3 O18 1_555 1_555
C6 C7 1_555 1_555
Cu4 O2 1_555 1_555
Cu4 O5_2 1_555 1_555
Cu2_3 O8_2 1_555 1_555
O5_2 C8_2 1_555 1_555
O6_2 C8_2 1_555 1_555
O7_2 Ho3 1_555 1_555
O8_2 C11_2 1_555 1_555
O9_2 Cu2_3 1_555 1_555
O10_2 C15_2 1_555 1_555
O31 C18_2 1_555 1_555
O13_2 Ho3 1_555 1_555
H1_2 O13_2 1_555 1_555
H2_2 O13_2 1_555 1_555
O14_2 Ho3 1_555 1_555
H3_2 O14_2 1_555 1_555
H4_2 O14_2 1_555 1_555
O15_2 Ho3 1_555 1_555
H5_2 O15_2 1_555 1_555
H6_2 O15_2 1_555 1_555
O16_2 Ho3 1_555 1_555
H7_2 O16_2 1_555 1_555
H8_2 O16_2 1_555 1_555
O17_2 Ho3 1_555 1_555
H9_2 O17_2 1_555 1_555
H10_2 O17_2 1_555 1_555
N2_2 Cu4 1_555 1_555
N3_2 Cu2_3 1_555 1_555
C8_2 C9_2 1_555 1_555
C9_2 N2_2 1_555 1_555
C10_2 C9_2 1_555 1_555
C11_2 O7_2 1_555 1_555
C12_2 C10_2 1_555 1_555
H14_2 C12_2 1_555 1_555
C13_2 C12_2 1_555 1_555
C14_2 N2_2 1_555 1_555
H16_2 C14_2 1_555 1_555
C15_2 O9_2 1_555 1_555
C16_2 N3_2 1_555 1_555
C17_2 C16_2 1_555 1_555
C18_2 C17_2 1_555 1_555
C19_2 C17_2 1_555 1_555
H17_2 C19_2 1_555 1_555
C20_2 C19_2 1_555 1_555
H18_2 C20_2 1_555 1_555
C21_2 N3_2 1_555 1_555
O33_2 Cu4 1_555 1_555
C10_2 C11_2 1_555 1_555
C13_2 C14_2 1_555 1_555
C15_2 C16_2 1_555 1_555
C20_2 C21_2 1_555 1_555
Ho4 O19_2 1_555 1_555
Cu3_2 O12_2 1_555 1_555
O21_2 Cu3_2 1_555 1_555
O24_2 Cu3_2 1_555 1_555
O25_2 C29_2 1_555 1_555
O26_2 Ho4 1_555 1_555
O27_2 Cu2_4 1_555 1_555
O28_2 Cu2_4 1_555 1_555
O29_2 C36_2 1_555 1_555
O32 C39_2 1_555 1_555
O34_2 Ho4 1_555 1_555
H20_2 O34_2 1_555 1_555
H21_2 O34_2 1_555 1_555
O35_2 Ho4 1_555 1_555
H22_2 O35_2 1_555 1_555
H23_2 O35_2 1_555 1_555
O36_2 Ho4 1_555 1_555
H24_2 O36_2 1_555 1_555
H25_2 O36_2 1_555 1_555
O37_2 Ho4 1_555 1_555
H26_2 O37_2 1_555 1_555
H27_2 O37_2 1_555 1_555
O38_2 Ho4 1_555 1_555
H28_2 O38_2 1_555 1_555
H29_2 O38_2 1_555 1_555
N6_2 Cu3_2 1_555 1_555
N7_2 Cu2_4 1_555 1_555
C29_2 O24_2 1_555 1_555
C30_2 N6_2 1_555 1_555
C31_2 C30_2 1_555 1_555
C32_2 O26_2 1_555 1_555
C33_2 C31_2 1_555 1_555
H33_2 C33_2 1_555 1_555
C34_2 C33_2 1_555 1_555
C35_2 N6_2 1_555 1_555
H35_2 C35_2 1_555 1_555
C36_2 O28_2 1_555 1_555
C37_2 N7_2 1_555 1_555
C38_2 C37_2 1_555 1_555
C40_2 C38_2 1_555 1_555
H36_2 C40_2 1_555 1_555
C41_2 C40_2 1_555 1_555
H37_2 C41_2 1_555 1_555
C42_2 N7_2 1_555 1_555
O27_2 C32_2 1_555 1_555
C29_2 C30_2 1_555 1_555
C31_2 C32_2 1_555 1_555
C34_2 C35_2 1_555 1_555
C36_2 C37_2 1_555 1_555
C38_2 C39_2 1_555 1_555
C41_2 C42_2 1_555 1_555
O3_2 C4_2 1_555 1_555
N5_2 C2_2 1_555 1_555
C1_2 C2_2 1_555 1_555
C2_2 C3_2 1_555 1_555
C3_2 C4_2 1_555 1_555
C5_2 C3_2 1_555 1_555
H11_2 C5_2 1_555 1_555
C6_2 C5_2 1_555 1_555
H12_2 C6_2 1_555 1_555
C7_2 N5_2 1_555 1_555
H13_2 C7_2 1_555 1_555
C6_2 C7_2 1_555 1_555
O22_2 C25_2 1_555 1_555
C22_2 O21 1_555 1_555
C23_2 N5 1_555 1_555
C24_2 C23_2 1_555 1_555
C25_2 C24_2 1_555 1_555
C26_2 C24_2 1_555 1_555
H30_2 C26_2 1_555 1_555
C27_2 C26_2 1_555 1_555
H31_2 C27_2 1_555 1_555
C28_2 N5 1_555 1_555
H32_2 C28_2 1_555 1_555
C22_2 C23_2 1_555 1_555
C27_2 C28_2 1_555 1_555

#END
