
###############################################################################
#
# This file contains modified crystal structure data generated from the
# MOF subset of the Cambridge Structural Database (CSD) v543 
# hosted by the Cambridge Crystallographic Data Centre (CCDC).
#
# This work is licensed under the Creative Commons
# Attribution-NonCommercial-ShareAlike 4.0 International License.
# To view a copy of this license, visit
# http://creativecommons.org/licenses/by-nc-sa/4.0/
# or send a letter to
# Creative Commons, PO Box 1866, Mountain View, CA 94042, USA.
#
# CIF created using the CSD Python API on 29 September 2022
# The structure has been converted into the P1 space group
# The structure has a 3D framework
# The original CSD entry XEJTIR is in the monoclinic crystal system
# The framework has been calculated to contain at least 10.0% void space
# The void calculation uses a probe of radius 1.32A, grid spacing 0.4
#
###############################################################################

data_XEJTIR
_chemical_formula_moiety         '(C112 H64 Al4 Cu4 N16 O16)n'
_symmetry_cell_setting           triclinic
_symmetry_space_group_name_H-M   'P 1'
_symmetry_Int_Tables_number      1
_space_group_name_Hall           'P 1'
loop_
_symmetry_equiv_pos_site_id
_symmetry_equiv_pos_as_xyz
1 x,y,z
_cell_length_a                   12.4486(6)
_cell_length_b                   15.0360(6)
_cell_length_c                   16.5961(7)
_cell_angle_alpha                90
_cell_angle_beta                 92.074(2)
_cell_angle_gamma                90
_cell_volume                     3104.38
loop_
_atom_site_label
_atom_site_type_symbol
_atom_site_fract_x
_atom_site_fract_y
_atom_site_fract_z
Cu3 Cu 0.02259(2) 0.97863(2) 0.731490(18)
N6 N 0.94043(17) 0.63692(14) 0.22300(12)
N7 N 0.92423(19) 0.41690(15) 0.23282(14)
Al1 Al 0.48177(6) 0.01679(5) 0.24623(4)
O1 O 0.36904(14) 0.05062(11) 0.18982(10)
O3 O 0.54435(14) 0.11111(12) 0.28348(11)
C1 C 0.31683(19) 0.03733(15) 0.11941(14)
C5 C 0.1528(2) 0.0529(2) 0.03962(17)
H3 H 0.0799 0.0716 0.0349
C6 C 0.2103(2) 0.06414(19) 0.11125(16)
H4 H 0.1766 0.0906 0.1558
C15 C 0.6227(2) 0.16937(16) 0.27226(15)
C16 C 0.7128(2) 0.14844(18) 0.22928(17)
H9 H 0.7200 0.0905 0.2073
C17 C 0.7917(2) 0.21053(18) 0.21812(17)
H10 H 0.8523 0.1958 0.1876
C18 C 0.7831(2) 0.29477(17) 0.25131(17)
C19 C 0.6951(2) 0.31460(18) 0.29584(19)
H11 H 0.6893 0.3719 0.3195
C20 C 0.6155(2) 0.25299(18) 0.30661(17)
H12 H 0.5555 0.2677 0.3377
C21 C 0.8636(2) 0.36128(19) 0.23993(17)
C23 C 0.2082(2) 0.01363(17) 0.43903(16)
H13 H 0.1406 0.0419 0.4300
C24 C 0.2791(2) 0.00778(17) 0.37751(15)
H14 H 0.2600 0.0325 0.3263
O2 O 0.55918(13) 0.94976(11) 0.18615(10)
O4 O 0.44766(14) 0.95609(11) 0.33079(10)
N1 N 0.10993(17) 0.98242(14) 0.63453(13)
C2 C 0.3647(2) 0.99811(17) 0.05400(15)
H1 H 0.4373 0.9789 0.0588
C8 C 0.63832(18) 0.88979(16) 0.19532(14)
C9 C 0.7073(2) 0.88818(17) 0.26296(15)
H5 H 0.6981 0.9304 0.3047
C10 C 0.7885(2) 0.82651(17) 0.27051(16)
H6 H 0.8357 0.8266 0.3168
C11 C 0.80143(19) 0.76361(16) 0.20955(15)
C12 C 0.7335(2) 0.76544(17) 0.14137(16)
H7 H 0.7425 0.7232 0.0996
C13 C 0.6532(2) 0.82813(16) 0.13408(15)
H8 H 0.6076 0.8294 0.0869
C14 C 0.8808(2) 0.69476(17) 0.21798(15)
C22 C 0.3786(2) 0.96610(16) 0.38926(15)
C25 C 0.2356(2) 0.97817(17) 0.51437(15)
C26 C 0.3350(2) 0.93766(18) 0.52726(16)
H15 H 0.3545 0.9141 0.5789
C27 C 0.4052(2) 0.93158(18) 0.46555(16)
H16 H 0.4728 0.9035 0.4749
C28 C 0.1633(2) 0.98256(17) 0.57991(16)
N4 N 0.09842(16) 0.98886(14) 0.83916(13)
C3 C 0.3076(2) 0.98705(17) 0.98260(16)
H2 H 0.3413 0.9604 0.9382
N1_2 N 0.10993(17) 0.51758(14) 0.13453(13)
C25_2 C 0.2356(2) 0.52183(17) 0.01437(15)
C26_2 C 0.3350(2) 0.56234(18) 0.02726(16)
H15_2 H 0.3545 0.5859 0.0789
C28_2 C 0.1633(2) 0.51744(17) 0.07991(16)
Cu2 Cu 0.02259(2) 0.52137(2) 0.231490(18)
Al1_2 Al 0.48177(6) 0.48321(5) 0.74623(4)
O1_2 O 0.36904(14) 0.44938(11) 0.68982(10)
O2_2 O 0.55918(13) 0.55024(11) 0.68615(10)
O3_2 O 0.54435(14) 0.38889(12) 0.78348(11)
O4_2 O 0.44766(14) 0.54391(11) 0.83079(10)
N2 N 0.94043(17) 0.86308(14) 0.72300(12)
N3 N 0.92423(19) 0.08310(15) 0.73282(14)
N4_2 N 0.09842(16) 0.51114(14) 0.33916(13)
C1_2 C 0.31683(19) 0.46267(15) 0.61941(14)
C2_2 C 0.3647(2) 0.50189(17) 0.55400(15)
H1_2 H 0.4373 0.5211 0.5588
C3_2 C 0.3076(2) 0.51295(17) 0.48260(16)
H2_2 H 0.3413 0.5396 0.4382
C4 C 0.2013(2) 0.48587(16) 0.47426(15)
C5_2 C 0.1528(2) 0.4471(2) 0.53962(17)
H3_2 H 0.0799 0.4284 0.5349
C6_2 C 0.2103(2) 0.43586(19) 0.61125(16)
H4_2 H 0.1766 0.4094 0.6558
C7 C 0.1427(2) 0.49898(16) 0.39950(15)
C8_2 C 0.63832(18) 0.61021(16) 0.69532(14)
C9_2 C 0.7073(2) 0.61182(17) 0.76296(15)
H5_2 H 0.6981 0.5696 0.8047
C10_2 C 0.7885(2) 0.67349(17) 0.77051(16)
H6_2 H 0.8357 0.6734 0.8168
C11_2 C 0.80143(19) 0.73639(16) 0.70955(15)
C12_2 C 0.7335(2) 0.73456(17) 0.64137(16)
H7_2 H 0.7425 0.7768 0.5996
C13_2 C 0.6532(2) 0.67187(16) 0.63408(15)
H8_2 H 0.6076 0.6706 0.5869
C14_2 C 0.8808(2) 0.80524(17) 0.71798(15)
C15_2 C 0.6227(2) 0.33063(16) 0.77226(15)
C16_2 C 0.7128(2) 0.35156(18) 0.72928(17)
H9_2 H 0.7200 0.4095 0.7073
C17_2 C 0.7917(2) 0.28947(18) 0.71812(17)
H10_2 H 0.8523 0.3042 0.6876
C18_2 C 0.7831(2) 0.20523(17) 0.75131(17)
C19_2 C 0.6951(2) 0.18540(18) 0.79584(19)
H11_2 H 0.6893 0.1281 0.8195
C20_2 C 0.6155(2) 0.24701(18) 0.80661(17)
H12_2 H 0.5555 0.2323 0.8377
C21_2 C 0.8636(2) 0.13872(19) 0.73993(17)
C22_2 C 0.3786(2) 0.53390(16) 0.88926(15)
C23_2 C 0.2082(2) 0.48637(17) 0.93903(16)
H13_2 H 0.1406 0.4581 0.9300
C24_2 C 0.2791(2) 0.49222(17) 0.87751(15)
H14_2 H 0.2600 0.4675 0.8263
C27_2 C 0.4052(2) 0.56842(18) 0.96555(16)
H16_2 H 0.4728 0.5965 0.9749
N6_2 N 0.05957(17) 0.13692(14) 0.27700(12)
N7_2 N 0.07577(19) 0.91690(15) 0.26718(14)
Cu3_2 Cu 0.97741(2) 0.47863(2) 0.768510(18)
Al1_3 Al 0.51823(6) 0.51679(5) 0.25377(4)
O1_3 O 0.63096(14) 0.55062(11) 0.31018(10)
O2_3 O 0.44082(13) 0.44976(11) 0.31385(10)
O3_3 O 0.45565(14) 0.61111(12) 0.21652(11)
O4_3 O 0.55234(14) 0.45609(11) 0.16921(10)
N4_3 N 0.90158(16) 0.48886(14) 0.66084(13)
C1_3 C 0.68317(19) 0.53733(15) 0.38059(14)
C2_3 C 0.6353(2) 0.49811(17) 0.44600(15)
H1_3 H 0.5627 0.4789 0.4412
C3_3 C 0.6924(2) 0.48705(17) 0.51740(16)
H2_3 H 0.6587 0.4604 0.5618
C4_2 C 0.7987(2) 0.51413(16) 0.52574(15)
C5_3 C 0.8472(2) 0.5529(2) 0.46038(17)
H3_3 H 0.9201 0.5716 0.4651
C6_3 C 0.7897(2) 0.56414(19) 0.38875(16)
H4_3 H 0.8234 0.5906 0.3442
C7_2 C 0.8573(2) 0.50102(16) 0.60050(15)
C8_3 C 0.36168(18) 0.38979(16) 0.30468(14)
C9_3 C 0.2927(2) 0.38818(17) 0.23704(15)
H5_3 H 0.3019 0.4304 0.1953
C10_3 C 0.2115(2) 0.32651(17) 0.22949(16)
H6_3 H 0.1643 0.3266 0.1832
C11_3 C 0.19857(19) 0.26361(16) 0.29045(15)
C12_3 C 0.2665(2) 0.26544(17) 0.35863(16)
H7_3 H 0.2575 0.2232 0.4004
C13_3 C 0.3468(2) 0.32813(16) 0.36592(15)
H8_3 H 0.3924 0.3294 0.4131
C14_3 C 0.1192(2) 0.19476(17) 0.28202(15)
C15_3 C 0.3773(2) 0.66937(16) 0.22774(15)
C16_3 C 0.2872(2) 0.64844(18) 0.27072(17)
H9_3 H 0.2800 0.5905 0.2927
C17_3 C 0.2083(2) 0.71053(18) 0.28188(17)
H10_3 H 0.1477 0.6958 0.3124
C18_3 C 0.2169(2) 0.79477(17) 0.24869(17)
C19_3 C 0.3049(2) 0.81460(18) 0.20416(19)
H11_3 H 0.3107 0.8719 0.1805
C20_3 C 0.3845(2) 0.75299(18) 0.19339(17)
H12_3 H 0.4445 0.7677 0.1623
C21_3 C 0.1364(2) 0.86128(19) 0.26007(17)
C22_3 C 0.6214(2) 0.46610(16) 0.11074(15)
C23_3 C 0.7918(2) 0.51363(17) 0.06097(16)
H13_3 H 0.8594 0.5419 0.0700
C24_3 C 0.7209(2) 0.50778(17) 0.12249(15)
H14_3 H 0.7400 0.5325 0.1737
C27_3 C 0.5948(2) 0.43158(18) 0.03445(16)
H16_3 H 0.5272 0.4035 0.0251
N5 N 0.89007(17) 0.48242(14) 0.86547(13)
C25_3 C 0.7644(2) 0.47817(17) 0.98563(15)
C26_3 C 0.6650(2) 0.43766(18) 0.97274(16)
H15_3 H 0.6455 0.4141 0.9211
C28_3 C 0.8367(2) 0.48256(17) 0.92009(16)
Cu1 Cu 0.97741(2) 0.02137(2) 0.268510(18)
N4_4 N 0.90158(16) 0.01114(14) 0.16084(13)
C3_4 C 0.6924(2) 0.01295(17) 0.01740(16)
H2_4 H 0.6587 0.0396 0.0618
N5_2 N 0.89007(17) 0.01758(14) 0.36547(13)
O2_4 O 0.44082(13) 0.05024(11) 0.81385(10)
O4_4 O 0.55234(14) 0.04391(11) 0.66921(10)
N2_2 N 0.05957(17) 0.36308(14) 0.77700(12)
C2_4 C 0.6353(2) 0.00189(17) 0.94600(15)
H1_4 H 0.5627 0.0211 0.9412
C8_4 C 0.36168(18) 0.11021(16) 0.80468(14)
C9_4 C 0.2927(2) 0.11182(17) 0.73704(15)
H5_4 H 0.3019 0.0696 0.6953
C10_4 C 0.2115(2) 0.17349(17) 0.72949(16)
H6_4 H 0.1643 0.1734 0.6832
C11_4 C 0.19857(19) 0.23639(16) 0.79045(15)
C12_4 C 0.2665(2) 0.23456(17) 0.85863(16)
H7_4 H 0.2575 0.2768 0.9004
C13_4 C 0.3468(2) 0.17187(16) 0.86592(15)
H8_4 H 0.3924 0.1706 0.9131
C14_4 C 0.1192(2) 0.30524(17) 0.78202(15)
C22_4 C 0.6214(2) 0.03390(16) 0.61074(15)
C25_4 C 0.7644(2) 0.02183(17) 0.48563(15)
C26_4 C 0.6650(2) 0.06234(18) 0.47274(16)
H15_4 H 0.6455 0.0859 0.4211
C27_4 C 0.5948(2) 0.06842(18) 0.53445(16)
H16_4 H 0.5272 0.0965 0.5251
C28_4 C 0.8367(2) 0.01744(17) 0.42009(16)
Al1_4 Al 0.51823(6) 0.98321(5) 0.75377(4)
O1_4 O 0.63096(14) 0.94938(11) 0.81018(10)
O3_4 O 0.45565(14) 0.88889(12) 0.71652(11)
N3_2 N 0.07577(19) 0.58310(15) 0.76718(14)
C1_4 C 0.68317(19) 0.96267(15) 0.88059(14)
C5_4 C 0.8472(2) 0.9471(2) 0.96038(17)
H3_4 H 0.9201 0.9284 0.9651
C6_4 C 0.7897(2) 0.93586(19) 0.88875(16)
H4_4 H 0.8234 0.9094 0.8442
C15_4 C 0.3773(2) 0.83063(16) 0.72774(15)
C16_4 C 0.2872(2) 0.85156(18) 0.77072(17)
H9_4 H 0.2800 0.9095 0.7927
C17_4 C 0.2083(2) 0.78947(18) 0.78188(17)
H10_4 H 0.1477 0.8042 0.8124
C18_4 C 0.2169(2) 0.70523(17) 0.74869(17)
C19_4 C 0.3049(2) 0.68540(18) 0.70416(19)
H11_4 H 0.3107 0.6281 0.6805
C20_4 C 0.3845(2) 0.74701(18) 0.69339(17)
H12_4 H 0.4445 0.7323 0.6623
C21_4 C 0.1364(2) 0.63872(19) 0.76007(17)
C23_4 C 0.7918(2) 0.98637(17) 0.56097(16)
H13_4 H 0.8594 0.9581 0.5700
C24_4 C 0.7209(2) 0.99222(17) 0.62249(15)
H14_4 H 0.7400 0.9675 0.6737
C4_3 C 0.7987(2) 0.98587(16) 0.02574(15)
C7_3 C 0.8573(2) 0.99898(16) 0.10050(15)
C4_4 C 0.2013(2) 0.01413(16) 0.97426(15)
C7_4 C 0.1427(2) 0.00102(16) 0.89950(15)
loop_
_geom_bond_atom_site_label_1
_geom_bond_atom_site_label_2
_geom_bond_site_symmetry_1
_geom_bond_site_symmetry_2
Al1 O1 1_555 1_555
O1 C1 1_555 1_555
O3 Al1 1_555 1_555
N7 C21 1_555 1_555
H3 C5 1_555 1_555
C6 C1 1_555 1_555
H4 C6 1_555 1_555
C15 O3 1_555 1_555
C16 C15 1_555 1_555
H9 C16 1_555 1_555
C17 C16 1_555 1_555
H10 C17 1_555 1_555
C18 C17 1_555 1_555
C19 C18 1_555 1_555
H11 C19 1_555 1_555
C20 C15 1_555 1_555
H12 C20 1_555 1_555
C21 C18 1_555 1_555
C23 H13 1_555 1_555
H14 C24 1_555 1_555
C5 C6 1_555 1_555
C19 C20 1_555 1_555
C23 C24 1_555 1_555
N1 C28 1_555 1_555
N6 C14 1_555 1_555
C2 H1 1_555 1_555
C8 O2 1_555 1_555
C9 C8 1_555 1_555
H5 C9 1_555 1_555
C10 C9 1_555 1_555
H6 C10 1_555 1_555
C11 C10 1_555 1_555
C12 C11 1_555 1_555
H7 C12 1_555 1_555
C13 C8 1_555 1_555
H8 C13 1_555 1_555
C14 C11 1_555 1_555
C22 O4 1_555 1_555
C26 C25 1_555 1_555
H15 C26 1_555 1_555
C27 C22 1_555 1_555
H16 C27 1_555 1_555
C28 C25 1_555 1_555
Cu3 N1 1_555 1_555
C12 C13 1_555 1_555
C26 C27 1_555 1_555
Cu3 N4 1_555 1_555
H2 C3 1_555 1_555
N1_2 C28_2 1_555 1_555
C26_2 C25_2 1_555 1_555
H15_2 C26_2 1_555 1_555
C28_2 C25_2 1_555 1_555
Cu2 N1_2 1_555 1_555
Cu2 N4_2 1_555 1_555
Al1_2 O1_2 1_555 1_555
O1_2 C1_2 1_555 1_555
O2_2 Al1_2 1_555 1_555
O3_2 Al1_2 1_555 1_555
O4_2 Al1_2 1_555 1_555
N2 C14_2 1_555 1_555
N3 C21_2 1_555 1_555
N4_2 C7 1_555 1_555
C1_2 C2_2 1_555 1_555
C2_2 H1_2 1_555 1_555
C3_2 C2_2 1_555 1_555
H2_2 C3_2 1_555 1_555
C4 C3_2 1_555 1_555
C5_2 C4 1_555 1_555
H3_2 C5_2 1_555 1_555
C6_2 C1_2 1_555 1_555
H4_2 C6_2 1_555 1_555
C7 C4 1_555 1_555
C8_2 O2_2 1_555 1_555
C9_2 C8_2 1_555 1_555
H5_2 C9_2 1_555 1_555
C10_2 C9_2 1_555 1_555
H6_2 C10_2 1_555 1_555
C11_2 C10_2 1_555 1_555
C12_2 C11_2 1_555 1_555
H7_2 C12_2 1_555 1_555
C13_2 C8_2 1_555 1_555
H8_2 C13_2 1_555 1_555
C14_2 C11_2 1_555 1_555
C15_2 O3_2 1_555 1_555
C16_2 C15_2 1_555 1_555
H9_2 C16_2 1_555 1_555
C17_2 C16_2 1_555 1_555
H10_2 C17_2 1_555 1_555
C18_2 C17_2 1_555 1_555
C19_2 C18_2 1_555 1_555
H11_2 C19_2 1_555 1_555
C20_2 C15_2 1_555 1_555
H12_2 C20_2 1_555 1_555
C21_2 C18_2 1_555 1_555
C22_2 O4_2 1_555 1_555
C23_2 H13_2 1_555 1_555
C24_2 C22_2 1_555 1_555
H14_2 C24_2 1_555 1_555
C27_2 C22_2 1_555 1_555
H16_2 C27_2 1_555 1_555
C5_2 C6_2 1_555 1_555
C12_2 C13_2 1_555 1_555
C19_2 C20_2 1_555 1_555
C23_2 C24_2 1_555 1_555
Cu3_2 N4_3 1_555 1_555
Al1_3 O1_3 1_555 1_555
O1_3 C1_3 1_555 1_555
O2_3 Al1_3 1_555 1_555
O3_3 Al1_3 1_555 1_555
O4_3 Al1_3 1_555 1_555
N6_2 C14_3 1_555 1_555
N7_2 C21_3 1_555 1_555
N4_3 C7_2 1_555 1_555
C1_3 C2_3 1_555 1_555
C2_3 H1_3 1_555 1_555
C3_3 C2_3 1_555 1_555
H2_3 C3_3 1_555 1_555
C4_2 C3_3 1_555 1_555
C5_3 C4_2 1_555 1_555
H3_3 C5_3 1_555 1_555
C6_3 C1_3 1_555 1_555
H4_3 C6_3 1_555 1_555
C7_2 C4_2 1_555 1_555
C8_3 O2_3 1_555 1_555
C9_3 C8_3 1_555 1_555
H5_3 C9_3 1_555 1_555
C10_3 C9_3 1_555 1_555
H6_3 C10_3 1_555 1_555
C11_3 C10_3 1_555 1_555
C12_3 C11_3 1_555 1_555
H7_3 C12_3 1_555 1_555
C13_3 C8_3 1_555 1_555
H8_3 C13_3 1_555 1_555
C14_3 C11_3 1_555 1_555
C15_3 O3_3 1_555 1_555
C16_3 C15_3 1_555 1_555
H9_3 C16_3 1_555 1_555
C17_3 C16_3 1_555 1_555
H10_3 C17_3 1_555 1_555
C18_3 C17_3 1_555 1_555
C19_3 C18_3 1_555 1_555
H11_3 C19_3 1_555 1_555
C20_3 C15_3 1_555 1_555
H12_3 C20_3 1_555 1_555
C21_3 C18_3 1_555 1_555
C22_3 O4_3 1_555 1_555
C23_3 H13_3 1_555 1_555
C24_3 C22_3 1_555 1_555
H14_3 C24_3 1_555 1_555
C27_3 C22_3 1_555 1_555
H16_3 C27_3 1_555 1_555
N5 Cu3_2 1_555 1_555
C5_3 C6_3 1_555 1_555
C12_3 C13_3 1_555 1_555
C19_3 C20_3 1_555 1_555
C23_3 C24_3 1_555 1_555
N5 C28_3 1_555 1_555
C26_3 C25_3 1_555 1_555
H15_3 C26_3 1_555 1_555
C28_3 C25_3 1_555 1_555
Cu1 N4_4 1_555 1_555
H2_4 C3_4 1_555 1_555
N5_2 Cu1 1_555 1_555
N5_2 C28_4 1_555 1_555
N2_2 C14_4 1_555 1_555
C2_4 H1_4 1_555 1_555
C8_4 O2_4 1_555 1_555
C9_4 C8_4 1_555 1_555
H5_4 C9_4 1_555 1_555
C10_4 C9_4 1_555 1_555
H6_4 C10_4 1_555 1_555
C11_4 C10_4 1_555 1_555
C12_4 C11_4 1_555 1_555
H7_4 C12_4 1_555 1_555
C13_4 C8_4 1_555 1_555
H8_4 C13_4 1_555 1_555
C14_4 C11_4 1_555 1_555
C22_4 O4_4 1_555 1_555
C26_4 C25_4 1_555 1_555
H15_4 C26_4 1_555 1_555
C27_4 C22_4 1_555 1_555
H16_4 C27_4 1_555 1_555
C28_4 C25_4 1_555 1_555
C12_4 C13_4 1_555 1_555
C26_4 C27_4 1_555 1_555
Al1_4 O1_4 1_555 1_555
O1_4 C1_4 1_555 1_555
O3_4 Al1_4 1_555 1_555
N3_2 C21_4 1_555 1_555
H3_4 C5_4 1_555 1_555
C6_4 C1_4 1_555 1_555
H4_4 C6_4 1_555 1_555
C15_4 O3_4 1_555 1_555
C16_4 C15_4 1_555 1_555
H9_4 C16_4 1_555 1_555
C17_4 C16_4 1_555 1_555
H10_4 C17_4 1_555 1_555
C18_4 C17_4 1_555 1_555
C19_4 C18_4 1_555 1_555
H11_4 C19_4 1_555 1_555
C20_4 C15_4 1_555 1_555
H12_4 C20_4 1_555 1_555
C21_4 C18_4 1_555 1_555
C23_4 H13_4 1_555 1_555
H14_4 C24_4 1_555 1_555
C5_4 C6_4 1_555 1_555
C19_4 C20_4 1_555 1_555
C23_4 C24_4 1_555 1_555
C7_3 C4_3 1_555 1_555
C7_4 C4_4 1_555 1_555

#END
