
###############################################################################
#
# This file contains modified crystal structure data generated from the
# MOF subset of the Cambridge Structural Database (CSD) v543 
# hosted by the Cambridge Crystallographic Data Centre (CCDC).
#
# This work is licensed under the Creative Commons
# Attribution-NonCommercial-ShareAlike 4.0 International License.
# To view a copy of this license, visit
# http://creativecommons.org/licenses/by-nc-sa/4.0/
# or send a letter to
# Creative Commons, PO Box 1866, Mountain View, CA 94042, USA.
#
# CIF created using the CSD Python API on 29 September 2022
# The structure has been converted into the P1 space group
# The structure has a 3D framework
# The original CSD entry XEJVOZ is in the rhombohedral crystal system
# The framework has been calculated to contain at least 10.0% void space
# The void calculation uses a probe of radius 1.32A, grid spacing 0.4
#
###############################################################################

data_XEJVOZ
_chemical_formula_moiety         '(C180 H72 N72 O136 Sr32)n'
_symmetry_cell_setting           triclinic
_symmetry_space_group_name_H-M   'P 1'
_symmetry_Int_Tables_number      1
_space_group_name_Hall           'P 1'
loop_
_symmetry_equiv_pos_site_id
_symmetry_equiv_pos_as_xyz
1 x,y,z
_cell_length_a                   27.855(4)
_cell_length_b                   27.855(4)
_cell_length_c                   9.5354(19)
_cell_angle_alpha                90
_cell_angle_beta                 90
_cell_angle_gamma                120
_cell_volume                     6407.31
loop_
_atom_site_label
_atom_site_type_symbol
_atom_site_fract_x
_atom_site_fract_y
_atom_site_fract_z
Sr2 Sr 0.62766(2) 0.84105(2) 0.01534(5)
O1 O 0.69612(16) 0.79957(16) 0.0221(4)
O2 O 0.71503(17) 0.85573(17) 0.2023(5)
O4 O 0.74201(19) 0.66858(17) 0.0744(4)
N1 N 0.7022(2) 0.7678(2) 0.3804(5)
N2 N 0.7261(2) 0.7058(2) 0.3290(5)
H1 H 0.7328 0.6788 0.3265
C1 C 0.7090(2) 0.7276(2) 0.4289(6)
H3 H 0.7026 0.7155 0.5216
C2 C 0.7162(2) 0.7725(2) 0.2398(5)
C3 C 0.7319(2) 0.7337(2) 0.2072(5)
C4 C 0.7098(2) 0.8127(2) 0.1498(6)
C5 C 0.7496(2) 0.7163(2) 0.0780(6)
Sr3 Sr 0.76460(2) 0.94679(3) 0.31831(4)
Sr4 Sr 0.71988(3) 0.56873(2) 0.15164(4)
Sr8 Sr 0.62766(2) 0.78661(3) 0.51534(5)
O10 O 0.58240(18) 0.89414(18) 0.1464(4)
O12 O 0.66475(17) 0.92466(19) 0.2411(4)
O16 O 0.59631(17) 0.78306(23) 0.2435(4)
N6 N 0.5401(2) 0.7366(3) 0.0025(5)
Sr1 Sr 0.76460(2) 0.81781(2) 0.81831(4)
O3 O 0.77253(18) 0.75093(18) 0.9797(4)
O5 O 0.83723(18) 0.88942(17) 0.6597(4)
O6 O 0.8231(2) 0.9264(2) 0.4689(4)
O7 O 0.80839(18) 0.77240(17) 0.6845(4)
O8 O 0.85341(16) 0.73702(17) 0.5768(4)
N3 N 0.8544(2) 0.8671(2) 0.2981(5)
H2 H 0.852(3) 0.893(2) 0.258(7)
N4 N 0.8631(2) 0.7932(2) 0.3358(5)
C6 C 0.8668(3) 0.8301(3) 0.2422(6)
H4 H 0.8768 0.8305 0.1490
C7 C 0.8435(2) 0.8550(2) 0.4379(6)
C8 C 0.8482(2) 0.8080(2) 0.4592(6)
C9 C 0.8334(2) 0.8923(2) 0.5296(6)
C10 C 0.8365(2) 0.7711(2) 0.5822(6)
Sr6 Sr 0.82562(2) 0.70567(2) 0.84867(5)
Sr7 Sr 0.88006(3) 0.70567(2) 0.34867(5)
O9 O 0.71503(17) 0.85930(24) 0.7023(5)
O11 O 0.66475(17) 0.74010(25) 0.7411(4)
O13 O 0.8231(2) 0.8967(3) 0.9689(4)
O14 O 0.56093(17) 0.85828(18) 0.8512(4)
O15 O 0.59631(17) 0.81326(16) 0.7435(4)
N5 N 0.7022(2) 0.9344(3) 0.8804(5)
O4_2 O 0.33142(17) 0.07343(25) 0.0744(4)
N2_2 N 0.2942(2) 0.0203(3) 0.3290(5)
H1_2 H 0.3212 0.0540 0.3265
C5_2 C 0.2837(2) 0.0333(3) 0.0780(6)
Sr4_2 Sr 0.43127(2) 0.15114(4) 0.15164(4)
O3_2 O 0.24907(18) 0.02160(25) 0.9797(4)
O7_2 O 0.22760(17) 0.03599(25) 0.6845(4)
O8_2 O 0.26298(17) 0.11639(23) 0.5768(4)
N4_2 N 0.2068(2) 0.0699(3) 0.3358(5)
C6_2 C 0.1699(3) 0.0367(4) 0.2422(6)
H4_2 H 0.1695 0.0463 0.1490
C8_2 C 0.1920(2) 0.0402(3) 0.4592(6)
C10_2 C 0.2289(2) 0.0654(3) 0.5822(6)
Sr6_2 Sr 0.29433(2) 0.11994(3) 0.84867(5)
Sr7_2 Sr 0.29433(2) 0.17438(4) 0.34867(5)
Sr2_2 Sr 0.15895(2) 0.78661(3) 0.01534(5)
O1_2 O 0.20043(16) 0.89655(23) 0.0221(4)
O2_2 O 0.14427(17) 0.85930(24) 0.2023(5)
N1_2 N 0.2322(2) 0.9344(3) 0.3804(5)
C1_2 C 0.2724(2) 0.9814(3) 0.4289(6)
H3_2 H 0.2845 0.9871 0.5216
C2_2 C 0.2275(2) 0.9437(3) 0.2398(5)
C3_2 C 0.2663(2) 0.9982(3) 0.2072(5)
C4_2 C 0.1873(2) 0.8971(3) 0.1498(6)
Sr3_2 Sr 0.05321(3) 0.81781(4) 0.31831(4)
Sr8_2 Sr 0.21339(3) 0.84105(4) 0.51534(5)
O10_2 O 0.10586(18) 0.68827(25) 0.1464(4)
O12_2 O 0.07534(19) 0.74010(25) 0.2411(4)
O16_2 O 0.21694(23) 0.81326(29) 0.2435(4)
N6_2 N 0.2634(3) 0.8036(4) 0.0025(5)
Sr1_2 Sr 0.18219(2) 0.94679(3) 0.81831(4)
O5_2 O 0.11058(17) 0.94781(25) 0.6597(4)
O6_2 O 0.0736(2) 0.8967(3) 0.4689(4)
N3_2 N 0.1329(2) 0.9873(3) 0.2981(5)
H2_2 H 0.107(2) 0.959(4) 0.258(7)
C7_2 C 0.1450(2) 0.9885(3) 0.4379(6)
C9_2 C 0.1077(2) 0.9411(3) 0.5296(6)
O9_2 O 0.14070(24) 0.85573(29) 0.7023(5)
O11_2 O 0.25990(25) 0.92466(30) 0.7411(4)
O13_2 O 0.1033(3) 0.9264(4) 0.9689(4)
O14_2 O 0.14172(18) 0.70266(25) 0.8512(4)
O15_2 O 0.18674(16) 0.78306(23) 0.7435(4)
N5_2 N 0.0656(3) 0.7678(4) 0.8804(5)
Sr2_3 Sr 0.21339(3) 0.37234(2) 0.01534(5)
O1_3 O 0.10345(23) 0.30388(16) 0.0221(4)
O2_3 O 0.14070(24) 0.28497(17) 0.2023(5)
N1_3 N 0.0656(3) 0.2978(2) 0.3804(5)
C1_3 C 0.0186(3) 0.2910(2) 0.4289(6)
H3_3 H 0.0129 0.2974 0.5216
C2_3 C 0.0563(3) 0.2838(2) 0.2398(5)
C3_3 C 0.0018(3) 0.2681(2) 0.2072(5)
C4_3 C 0.1029(3) 0.2902(2) 0.1498(6)
Sr3_3 Sr 0.18219(4) 0.23540(2) 0.31831(4)
Sr8_3 Sr 0.15895(4) 0.37234(2) 0.51534(5)
O10_3 O 0.31173(25) 0.41760(18) 0.1464(4)
O12_3 O 0.25990(25) 0.33525(17) 0.2411(4)
O16_3 O 0.18674(29) 0.40369(17) 0.2435(4)
N6_3 N 0.1964(4) 0.4599(2) 0.0025(5)
Sr1_3 Sr 0.05321(3) 0.23540(2) 0.81831(4)
O5_3 O 0.05219(25) 0.16277(18) 0.6597(4)
O6_3 O 0.1033(3) 0.1769(2) 0.4689(4)
N3_3 N 0.0127(3) 0.1456(2) 0.2981(5)
H2_3 H 0.041(4) 0.148(3) 0.258(7)
C7_3 C 0.0115(3) 0.1565(2) 0.4379(6)
C9_3 C 0.0589(3) 0.1666(2) 0.5296(6)
O9_3 O 0.14427(29) 0.28497(17) 0.7023(5)
O11_3 O 0.07534(30) 0.33525(17) 0.7411(4)
O13_3 O 0.0736(4) 0.1769(2) 0.9689(4)
O14_3 O 0.29734(25) 0.43907(17) 0.8512(4)
O15_3 O 0.21694(23) 0.40369(17) 0.7435(4)
N5_3 N 0.2322(4) 0.2978(2) 0.8804(5)
O4_3 O 0.92657(25) 0.25799(19) 0.0744(4)
N2_3 N 0.9797(3) 0.2739(2) 0.3290(5)
H1_3 H 0.9460 0.2672 0.3265
C5_3 C 0.9667(3) 0.2504(2) 0.0780(6)
Sr4_3 Sr 0.84886(4) 0.28012(3) 0.15164(4)
O3_3 O 0.97840(25) 0.22747(18) 0.9797(4)
O7_3 O 0.96401(25) 0.19161(18) 0.6845(4)
O8_3 O 0.88361(23) 0.14659(16) 0.5768(4)
N4_3 N 0.9301(3) 0.1369(2) 0.3358(5)
C6_3 C 0.9633(4) 0.1332(3) 0.2422(6)
H4_3 H 0.9537 0.1232 0.1490
C8_3 C 0.9598(3) 0.1518(2) 0.4592(6)
C10_3 C 0.9346(3) 0.1635(2) 0.5822(6)
Sr6_3 Sr 0.88006(3) 0.17438(2) 0.84867(5)
Sr7_3 Sr 0.82562(4) 0.11994(3) 0.34867(5)
H3_4 H 0.2845 0.2974 0.0216
O1_4 O 0.20043(16) 0.30388(16) 0.5221(4)
O3_4 O 0.24907(18) 0.22747(18) 0.4797(4)
O4_4 O 0.33142(17) 0.25799(19) 0.5744(4)
O5_4 O 0.11058(17) 0.16277(18) 0.1597(4)
O7_4 O 0.22760(17) 0.19161(18) 0.1845(4)
O8_4 O 0.26298(17) 0.14659(16) 0.0768(4)
N2_4 N 0.2942(2) 0.2739(2) 0.8290(5)
H1_4 H 0.3212 0.2672 0.8265
C1_4 C 0.2724(2) 0.2910(2) 0.9289(6)
C2_4 C 0.2275(2) 0.2838(2) 0.7398(5)
C3_4 C 0.2663(2) 0.2681(2) 0.7072(5)
C4_4 C 0.1873(2) 0.2902(2) 0.6498(6)
C5_4 C 0.2837(2) 0.2504(2) 0.5780(6)
C9_4 C 0.1077(2) 0.1666(2) 0.0296(6)
C10_4 C 0.2289(2) 0.1635(2) 0.0822(6)
Sr4_4 Sr 0.43127(2) 0.28012(3) 0.65164(4)
O10_4 O 0.10586(18) 0.41760(18) 0.6464(4)
O14_4 O 0.14172(18) 0.43907(17) 0.3512(4)
N6_4 N 0.2634(3) 0.4599(2) 0.5025(5)
N3_4 N 0.1329(2) 0.1456(2) 0.7981(5)
H2_4 H 0.107(2) 0.148(3) 0.758(7)
N4_4 N 0.2068(2) 0.1369(2) 0.8358(5)
C6_4 C 0.1699(3) 0.1332(3) 0.7422(6)
H4_4 H 0.1695 0.1232 0.6490
C7_4 C 0.1450(2) 0.1565(2) 0.9379(6)
C8_4 C 0.1920(2) 0.1518(2) 0.9592(6)
H3_5 H 0.0129 0.7155 0.0216
O1_5 O 0.10345(23) 0.79957(16) 0.5221(4)
O5_5 O 0.05219(25) 0.88942(17) 0.1597(4)
C1_5 C 0.0186(3) 0.7276(2) 0.9289(6)
C2_5 C 0.0563(3) 0.7725(2) 0.7398(5)
C3_5 C 0.0018(3) 0.7337(2) 0.7072(5)
C4_5 C 0.1029(3) 0.8127(2) 0.6498(6)
C9_5 C 0.0589(3) 0.8923(2) 0.0296(6)
O10_5 O 0.31173(25) 0.89414(18) 0.6464(4)
O14_5 O 0.29734(25) 0.85828(18) 0.3512(4)
N6_5 N 0.1964(4) 0.7366(3) 0.5025(5)
N3_5 N 0.0127(3) 0.8671(2) 0.7981(5)
H2_5 H 0.041(4) 0.893(2) 0.758(7)
C7_5 C 0.0115(3) 0.8550(2) 0.9379(6)
O3_5 O 0.97840(25) 0.75093(18) 0.4797(4)
O4_5 O 0.92657(25) 0.66858(17) 0.5744(4)
O7_5 O 0.96401(25) 0.77240(17) 0.1845(4)
O8_5 O 0.88361(23) 0.73702(17) 0.0768(4)
N2_5 N 0.9797(3) 0.7058(2) 0.8290(5)
H1_5 H 0.9460 0.6788 0.8265
C5_5 C 0.9667(3) 0.7163(2) 0.5780(6)
C10_5 C 0.9346(3) 0.7711(2) 0.0822(6)
Sr4_5 Sr 0.84886(4) 0.56873(2) 0.65164(4)
N4_5 N 0.9301(3) 0.7932(2) 0.8358(5)
C6_5 C 0.9633(4) 0.8301(3) 0.7422(6)
H4_5 H 0.9537 0.8305 0.6490
C8_5 C 0.9598(3) 0.8080(2) 0.9592(6)
O3_6 O 0.77253(18) 0.02160(25) 0.4797(4)
O4_6 O 0.74201(19) 0.07343(25) 0.5744(4)
O7_6 O 0.80839(18) 0.03599(25) 0.1845(4)
O8_6 O 0.85341(16) 0.11639(23) 0.0768(4)
N2_6 N 0.7261(2) 0.0203(3) 0.8290(5)
H1_6 H 0.7328 0.0540 0.8265
C5_6 C 0.7496(2) 0.0333(3) 0.5780(6)
C10_6 C 0.8365(2) 0.0654(3) 0.0822(6)
Sr4_6 Sr 0.71988(3) 0.15114(4) 0.65164(4)
N4_6 N 0.8631(2) 0.0699(3) 0.8358(5)
C6_6 C 0.8668(3) 0.0367(4) 0.7422(6)
H4_6 H 0.8768 0.0463 0.6490
C8_6 C 0.8482(2) 0.0402(3) 0.9592(6)
H3_6 H 0.7026 0.9871 0.0216
O1_6 O 0.69612(16) 0.89655(23) 0.5221(4)
O5_6 O 0.83723(18) 0.94781(25) 0.1597(4)
C1_6 C 0.7090(2) 0.9814(3) 0.9289(6)
C2_6 C 0.7162(2) 0.9437(3) 0.7398(5)
C3_6 C 0.7319(2) 0.9982(3) 0.7072(5)
C4_6 C 0.7098(2) 0.8971(3) 0.6498(6)
C9_6 C 0.8334(2) 0.9411(3) 0.0296(6)
O10_6 O 0.58240(18) 0.68827(25) 0.6464(4)
O14_6 O 0.56093(17) 0.70266(25) 0.3512(4)
N6_6 N 0.5401(2) 0.8036(4) 0.5025(5)
N3_6 N 0.8544(2) 0.9873(3) 0.7981(5)
H2_6 H 0.852(3) 0.959(4) 0.758(7)
C7_6 C 0.8435(2) 0.9885(3) 0.9379(6)
O1_7 O 0.36279(16) 0.13290(16) 0.3554(4)
O2_4 O 0.38170(17) 0.18906(17) 0.5356(5)
O3_7 O 0.43920(18) 0.08426(18) 0.3130(4)
O4_7 O 0.40868(19) 0.00191(17) 0.4077(4)
O7_7 O 0.47506(18) 0.10573(17) 0.0178(4)
N1_4 N 0.3689(2) 0.1011(2) 0.7137(5)
N2_7 N 0.3928(2) 0.0391(2) 0.6623(5)
H1_7 H 0.3995 0.0121 0.6598
C1_7 C 0.3757(2) 0.0609(2) 0.7622(6)
H3_7 H 0.3693 0.0488 0.8549
C2_7 C 0.3829(2) 0.1058(2) 0.5731(5)
C3_7 C 0.3986(2) 0.0670(2) 0.5405(5)
C4_7 C 0.3765(2) 0.1460(2) 0.4831(6)
C5_7 C 0.4163(2) 0.0496(2) 0.4113(6)
Sr6_4 Sr 0.49228(2) 0.03901(2) 0.18201(5)
O9_4 O 0.38170(17) 0.19263(24) 0.0356(5)
O13_4 O 0.4898(2) 0.2300(3) 0.3022(4)
N5_4 N 0.3689(2) 0.2677(3) 0.2137(5)
O5_7 O 0.50390(18) 0.22275(17) 0.9930(4)
O6_4 O 0.4898(2) 0.2597(2) 0.8022(4)
O8_7 O 0.52008(16) 0.07035(17) 0.9101(4)
N3_7 N 0.5211(2) 0.2004(2) 0.6314(5)
H2_7 H 0.519(3) 0.226(2) 0.591(7)
N4_7 N 0.5298(2) 0.1265(2) 0.6691(5)
C6_7 C 0.5335(3) 0.1634(3) 0.5755(6)
H4_7 H 0.5435 0.1638 0.4823
C7_7 C 0.5102(2) 0.1883(2) 0.7712(6)
C8_7 C 0.5149(2) 0.1413(2) 0.7925(6)
C9_7 C 0.5001(2) 0.2256(2) 0.8629(6)
C10_7 C 0.5032(2) 0.1044(2) 0.9155(6)
Sr7_4 Sr 0.54672(3) 0.03901(2) 0.68201(5)
Sr4_7 Sr 0.38654(3) 0.90207(2) 0.48498(4)
Sr4_8 Sr 0.09793(2) 0.48448(4) 0.48498(4)
O1_8 O 0.86710(16) 0.22988(23) 0.3554(4)
O2_5 O 0.81094(17) 0.19263(24) 0.5356(5)
O3_8 O 0.91574(18) 0.35493(25) 0.3130(4)
O4_8 O 0.99809(17) 0.40676(25) 0.4077(4)
O7_8 O 0.89427(17) 0.36932(25) 0.0178(4)
N1_5 N 0.8989(2) 0.2677(3) 0.7137(5)
N2_8 N 0.9609(2) 0.3536(3) 0.6623(5)
H1_8 H 0.9879 0.3873 0.6598
C1_8 C 0.9391(2) 0.3147(3) 0.7622(6)
H3_8 H 0.9512 0.3204 0.8549
C2_8 C 0.8942(2) 0.2770(3) 0.5731(5)
C3_8 C 0.9330(2) 0.3315(3) 0.5405(5)
C4_8 C 0.8540(2) 0.2304(3) 0.4831(6)
C5_8 C 0.9504(2) 0.3666(3) 0.4113(6)
Sr6_5 Sr 0.96099(2) 0.45328(3) 0.18201(5)
O9_5 O 0.80737(24) 0.18906(29) 0.0356(5)
O13_5 O 0.7700(3) 0.2597(4) 0.3022(4)
N5_5 N 0.7323(3) 0.1011(4) 0.2137(5)
O5_8 O 0.77725(17) 0.28114(25) 0.9930(4)
O6_5 O 0.7403(2) 0.2300(3) 0.8022(4)
O8_8 O 0.92965(17) 0.44972(23) 0.9101(4)
N3_8 N 0.7996(2) 0.3206(3) 0.6314(5)
H2_8 H 0.774(2) 0.292(4) 0.591(7)
N4_8 N 0.8735(2) 0.4032(3) 0.6691(5)
C6_8 C 0.8366(3) 0.3700(4) 0.5755(6)
H4_8 H 0.8362 0.3796 0.4823
C7_8 C 0.8117(2) 0.3218(3) 0.7712(6)
C8_8 C 0.8587(2) 0.3735(3) 0.7925(6)
C9_8 C 0.7744(2) 0.2744(3) 0.8629(6)
C10_8 C 0.8956(2) 0.3987(3) 0.9155(6)
Sr7_5 Sr 0.96099(2) 0.50772(4) 0.68201(5)
O1_9 O 0.77012(23) 0.63721(16) 0.3554(4)
O2_6 O 0.80737(24) 0.61830(17) 0.5356(5)
O3_9 O 0.64507(25) 0.56080(18) 0.3130(4)
O4_9 O 0.59324(25) 0.59132(19) 0.4077(4)
O7_9 O 0.63068(25) 0.52494(18) 0.0178(4)
N1_6 N 0.7323(3) 0.6311(2) 0.7137(5)
N2_9 N 0.6464(3) 0.6072(2) 0.6623(5)
H1_9 H 0.6127 0.6005 0.6598
C1_9 C 0.6853(3) 0.6243(2) 0.7622(6)
H3_9 H 0.6796 0.6307 0.8549
C2_9 C 0.7230(3) 0.6171(2) 0.5731(5)
C3_9 C 0.6685(3) 0.6014(2) 0.5405(5)
C4_9 C 0.7696(3) 0.6235(2) 0.4831(6)
C5_9 C 0.6334(3) 0.5837(2) 0.4113(6)
Sr4_9 Sr 0.51552(4) 0.61346(3) 0.48498(4)
Sr6_6 Sr 0.54672(3) 0.50772(2) 0.18201(5)
O9_6 O 0.81094(29) 0.61830(17) 0.0356(5)
O13_6 O 0.7403(4) 0.5102(2) 0.3022(4)
N5_6 N 0.8989(4) 0.6311(2) 0.2137(5)
O5_9 O 0.71886(25) 0.49610(18) 0.9930(4)
O6_6 O 0.7700(3) 0.5102(2) 0.8022(4)
O8_9 O 0.55028(23) 0.47992(16) 0.9101(4)
N3_9 N 0.6794(3) 0.4789(2) 0.6314(5)
H2_9 H 0.708(4) 0.481(3) 0.591(7)
N4_9 N 0.5968(3) 0.4702(2) 0.6691(5)
C6_9 C 0.6300(4) 0.4665(3) 0.5755(6)
H4_9 H 0.6204 0.4565 0.4823
C7_9 C 0.6782(3) 0.4898(2) 0.7712(6)
C8_9 C 0.6265(3) 0.4851(2) 0.7925(6)
C9_9 C 0.7256(3) 0.4999(2) 0.8629(6)
C10_9 C 0.6013(3) 0.4968(2) 0.9155(6)
Sr7_6 Sr 0.49228(4) 0.45328(3) 0.68201(5)
Sr4_10 Sr 0.09793(2) 0.61346(3) 0.98498(4)
N2_10 N 0.9609(2) 0.6072(2) 0.1623(5)
H1_10 H 0.9879 0.6005 0.1598
C1_10 C 0.9391(2) 0.6243(2) 0.2622(6)
H3_10 H 0.9512 0.6307 0.3549
C2_10 C 0.8942(2) 0.6171(2) 0.0731(5)
C3_10 C 0.9330(2) 0.6014(2) 0.0405(5)
O1_10 O 0.86710(16) 0.63721(16) 0.8554(4)
O3_10 O 0.91574(18) 0.56080(18) 0.8130(4)
O4_10 O 0.99809(17) 0.59132(19) 0.9077(4)
O5_10 O 0.77725(17) 0.49610(18) 0.4930(4)
O7_10 O 0.89427(17) 0.52494(18) 0.5178(4)
O8_10 O 0.92965(17) 0.47992(16) 0.4101(4)
N3_10 N 0.7996(2) 0.4789(2) 0.1314(5)
H2_10 H 0.774(2) 0.481(3) 0.091(7)
N4_10 N 0.8735(2) 0.4702(2) 0.1691(5)
C4_10 C 0.8540(2) 0.6235(2) 0.9831(6)
C5_10 C 0.9504(2) 0.5837(2) 0.9113(6)
C6_10 C 0.8366(3) 0.4665(3) 0.0755(6)
C7_10 C 0.8117(2) 0.4898(2) 0.2712(6)
C8_10 C 0.8587(2) 0.4851(2) 0.2925(6)
C9_10 C 0.7744(2) 0.4999(2) 0.3629(6)
C10_10 C 0.8956(2) 0.4968(2) 0.4155(6)
N2_11 N 0.6464(3) 0.0391(2) 0.1623(5)
H1_11 H 0.6127 0.0121 0.1598
C1_11 C 0.6853(3) 0.0609(2) 0.2622(6)
H3_11 H 0.6796 0.0488 0.3549
C2_11 C 0.7230(3) 0.1058(2) 0.0731(5)
C3_11 C 0.6685(3) 0.0670(2) 0.0405(5)
O1_11 O 0.77012(23) 0.13290(16) 0.8554(4)
O3_11 O 0.64507(25) 0.08426(18) 0.8130(4)
O4_11 O 0.59324(25) 0.00191(17) 0.9077(4)
O5_11 O 0.71886(25) 0.22275(17) 0.4930(4)
O7_11 O 0.63068(25) 0.10573(17) 0.5178(4)
O8_11 O 0.55028(23) 0.07035(17) 0.4101(4)
N3_11 N 0.6794(3) 0.2004(2) 0.1314(5)
H2_11 H 0.708(4) 0.226(2) 0.091(7)
N4_11 N 0.5968(3) 0.1265(2) 0.1691(5)
C4_11 C 0.7696(3) 0.1460(2) 0.9831(6)
C5_11 C 0.6334(3) 0.0496(2) 0.9113(6)
C6_11 C 0.6300(4) 0.1634(3) 0.0755(6)
C7_11 C 0.6782(3) 0.1883(2) 0.2712(6)
C8_11 C 0.6265(3) 0.1413(2) 0.2925(6)
C9_11 C 0.7256(3) 0.2256(2) 0.3629(6)
C10_11 C 0.6013(3) 0.1044(2) 0.4155(6)
Sr4_11 Sr 0.51552(4) 0.90207(2) 0.98498(4)
N2_12 N 0.3928(2) 0.3536(3) 0.1623(5)
H1_12 H 0.3995 0.3873 0.1598
C1_12 C 0.3757(2) 0.3147(3) 0.2622(6)
H3_12 H 0.3693 0.3204 0.3549
C2_12 C 0.3829(2) 0.2770(3) 0.0731(5)
C3_12 C 0.3986(2) 0.3315(3) 0.0405(5)
O1_12 O 0.36279(16) 0.22988(23) 0.8554(4)
O3_12 O 0.43920(18) 0.35493(25) 0.8130(4)
O4_12 O 0.40868(19) 0.40676(25) 0.9077(4)
O5_12 O 0.50390(18) 0.28114(25) 0.4930(4)
O7_12 O 0.47506(18) 0.36932(25) 0.5178(4)
O8_12 O 0.52008(16) 0.44972(23) 0.4101(4)
N3_12 N 0.5211(2) 0.3206(3) 0.1314(5)
H2_12 H 0.519(3) 0.292(4) 0.091(7)
N4_12 N 0.5298(2) 0.4032(3) 0.1691(5)
C4_12 C 0.3765(2) 0.2304(3) 0.9831(6)
C5_12 C 0.4163(2) 0.3666(3) 0.9113(6)
C6_12 C 0.5335(3) 0.3700(4) 0.0755(6)
C7_12 C 0.5102(2) 0.3218(3) 0.2712(6)
C8_12 C 0.5149(2) 0.3735(3) 0.2925(6)
C9_12 C 0.5001(2) 0.2744(3) 0.3629(6)
C10_12 C 0.5032(2) 0.3987(3) 0.4155(6)
Sr4_12 Sr 0.38654(3) 0.48448(4) 0.98498(4)
N1_7 N 0.0355(2) 0.4345(2) 0.0471(5)
C1_13 C 0.0423(2) 0.3943(2) 0.0956(6)
H3_13 H 0.0359 0.3822 0.1883
O1_13 O 0.02945(16) 0.46624(16) 0.6888(4)
O2_7 O 0.04836(17) 0.52240(17) 0.8690(5)
O5_13 O 0.17056(18) 0.55609(17) 0.3264(4)
O6_7 O 0.1564(2) 0.5931(2) 0.1356(4)
N2_13 N 0.0594(2) 0.3725(2) 0.9957(5)
H1_13 H 0.0661 0.3455 0.9932
C2_13 C 0.0495(2) 0.4392(2) 0.9065(5)
C3_13 C 0.0652(2) 0.4004(2) 0.8739(5)
C4_13 C 0.0431(2) 0.4794(2) 0.8165(6)
C5_13 C 0.0829(2) 0.3830(2) 0.7447(6)
C7_13 C 0.1768(2) 0.5217(2) 0.1046(6)
C8_13 C 0.1815(2) 0.4747(2) 0.1259(6)
C9_13 C 0.1667(2) 0.5590(2) 0.1963(6)
C10_13 C 0.1698(2) 0.4378(2) 0.2489(6)
O9_7 O 0.04836(17) 0.52597(24) 0.3690(5)
O13_7 O 0.1564(2) 0.5634(3) 0.6356(4)
N5_7 N 0.0355(2) 0.6011(3) 0.5471(5)
N3_13 N 0.1877(2) 0.5338(2) 0.9648(5)
H2_13 H 0.185(3) 0.560(2) 0.925(7)
C6_13 C 0.2001(3) 0.4968(3) 0.9089(6)
H4_10 H 0.2101 0.4972 0.8157
N1_8 N 0.5655(2) 0.6011(3) 0.0471(5)
C1_14 C 0.6057(2) 0.6481(3) 0.0956(6)
H3_14 H 0.6178 0.6538 0.1883
O1_14 O 0.53376(16) 0.56322(23) 0.6888(4)
O2_8 O 0.47760(17) 0.52597(24) 0.8690(5)
O5_14 O 0.44391(17) 0.61448(25) 0.3264(4)
O6_8 O 0.4069(2) 0.5634(3) 0.1356(4)
N2_14 N 0.6275(2) 0.6870(3) 0.9957(5)
H1_14 H 0.6545 0.7207 0.9932
C2_14 C 0.5608(2) 0.6104(3) 0.9065(5)
C3_14 C 0.5996(2) 0.6649(3) 0.8739(5)
C4_14 C 0.5206(2) 0.5638(3) 0.8165(6)
C5_14 C 0.6170(2) 0.7000(3) 0.7447(6)
C7_14 C 0.4783(2) 0.6552(3) 0.1046(6)
C8_14 C 0.5253(2) 0.7069(3) 0.1259(6)
C9_14 C 0.4410(2) 0.6078(3) 0.1963(6)
C10_14 C 0.5622(2) 0.7321(3) 0.2489(6)
O9_8 O 0.47403(24) 0.52240(29) 0.3690(5)
O13_8 O 0.4366(3) 0.5931(4) 0.6356(4)
N5_8 N 0.3989(3) 0.4345(4) 0.5471(5)
N3_14 N 0.4662(2) 0.6540(3) 0.9648(5)
H2_14 H 0.440(2) 0.626(4) 0.925(7)
C6_14 C 0.5032(3) 0.7034(4) 0.9089(6)
H4_11 H 0.5028 0.7130 0.8157
N1_9 N 0.3989(3) 0.9645(2) 0.0471(5)
C1_15 C 0.3519(3) 0.9577(2) 0.0956(6)
H3_15 H 0.3462 0.9641 0.1883
O1_15 O 0.43678(23) 0.97055(16) 0.6888(4)
O2_9 O 0.47403(24) 0.95164(17) 0.8690(5)
O5_15 O 0.38552(25) 0.82944(18) 0.3264(4)
O6_9 O 0.4366(3) 0.8436(2) 0.1356(4)
N2_15 N 0.3130(3) 0.9406(2) 0.9957(5)
H1_15 H 0.2793 0.9339 0.9932
C2_15 C 0.3896(3) 0.9505(2) 0.9065(5)
C3_15 C 0.3351(3) 0.9348(2) 0.8739(5)
C4_15 C 0.4362(3) 0.9569(2) 0.8165(6)
C5_15 C 0.3000(3) 0.9171(2) 0.7447(6)
C7_15 C 0.3448(3) 0.8232(2) 0.1046(6)
C8_15 C 0.2931(3) 0.8185(2) 0.1259(6)
C9_15 C 0.3922(3) 0.8333(2) 0.1963(6)
C10_15 C 0.2679(3) 0.8302(2) 0.2489(6)
O9_9 O 0.47760(29) 0.95164(17) 0.3690(5)
O13_9 O 0.4069(4) 0.8436(2) 0.6356(4)
N5_9 N 0.5655(4) 0.9645(2) 0.5471(5)
N3_15 N 0.3460(3) 0.8123(2) 0.9648(5)
H2_15 H 0.374(4) 0.815(3) 0.925(7)
C6_15 C 0.2966(4) 0.7999(3) 0.9089(6)
H4_12 H 0.2870 0.7899 0.8157
O1_16 O 0.53376(16) 0.97055(16) 0.1888(4)
N2_16 N 0.6275(2) 0.9406(2) 0.4957(5)
H1_16 H 0.6545 0.9339 0.4932
C1_16 C 0.6057(2) 0.9577(2) 0.5956(6)
H3_16 H 0.6178 0.9641 0.6883
C2_16 C 0.5608(2) 0.9505(2) 0.4065(5)
C3_16 C 0.5996(2) 0.9348(2) 0.3739(5)
C4_16 C 0.5206(2) 0.9569(2) 0.3165(6)
C5_16 C 0.6170(2) 0.9171(2) 0.2447(6)
O5_16 O 0.44391(17) 0.82944(18) 0.8264(4)
N3_16 N 0.4662(2) 0.8123(2) 0.4648(5)
H2_16 H 0.440(2) 0.815(3) 0.425(7)
C6_16 C 0.5032(3) 0.7999(3) 0.4089(6)
H4_13 H 0.5028 0.7899 0.3157
C7_16 C 0.4783(2) 0.8232(2) 0.6046(6)
C8_16 C 0.5253(2) 0.8185(2) 0.6259(6)
C9_16 C 0.4410(2) 0.8333(2) 0.6963(6)
C10_16 C 0.5622(2) 0.8302(2) 0.7489(6)
O1_17 O 0.43678(23) 0.46624(16) 0.1888(4)
N2_17 N 0.3130(3) 0.3725(2) 0.4957(5)
H1_17 H 0.2793 0.3455 0.4932
C1_17 C 0.3519(3) 0.3943(2) 0.5956(6)
H3_17 H 0.3462 0.3822 0.6883
C2_17 C 0.3896(3) 0.4392(2) 0.4065(5)
C3_17 C 0.3351(3) 0.4004(2) 0.3739(5)
C4_17 C 0.4362(3) 0.4794(2) 0.3165(6)
C5_17 C 0.3000(3) 0.3830(2) 0.2447(6)
O5_17 O 0.38552(25) 0.55609(17) 0.8264(4)
N3_17 N 0.3460(3) 0.5338(2) 0.4648(5)
H2_17 H 0.374(4) 0.560(2) 0.425(7)
C6_17 C 0.2966(4) 0.4968(3) 0.4089(6)
H4_14 H 0.2870 0.4972 0.3157
C7_17 C 0.3448(3) 0.5217(2) 0.6046(6)
C8_17 C 0.2931(3) 0.4747(2) 0.6259(6)
C9_17 C 0.3922(3) 0.5590(2) 0.6963(6)
C10_17 C 0.2679(3) 0.4378(2) 0.7489(6)
O1_18 O 0.02945(16) 0.56322(23) 0.1888(4)
N2_18 N 0.0594(2) 0.6870(3) 0.4957(5)
H1_18 H 0.0661 0.7207 0.4932
C1_18 C 0.0423(2) 0.6481(3) 0.5956(6)
H3_18 H 0.0359 0.6538 0.6883
C2_18 C 0.0495(2) 0.6104(3) 0.4065(5)
C3_18 C 0.0652(2) 0.6649(3) 0.3739(5)
C4_18 C 0.0431(2) 0.5638(3) 0.3165(6)
C5_18 C 0.0829(2) 0.7000(3) 0.2447(6)
O5_18 O 0.17056(18) 0.61448(25) 0.8264(4)
N3_18 N 0.1877(2) 0.6540(3) 0.4648(5)
H2_18 H 0.185(3) 0.626(4) 0.425(7)
C6_18 C 0.2001(3) 0.7034(4) 0.4089(6)
H4_15 H 0.2101 0.7130 0.3157
C7_18 C 0.1768(2) 0.6552(3) 0.6046(6)
C8_18 C 0.1815(2) 0.7069(3) 0.6259(6)
C9_18 C 0.1667(2) 0.6078(3) 0.6963(6)
C10_18 C 0.1698(2) 0.7321(3) 0.7489(6)
H4_16 H 0.8362 0.4565 0.9823
H4_17 H 0.6204 0.1638 0.9823
H4_18 H 0.5435 0.3796 0.9823
loop_
_geom_bond_atom_site_label_1
_geom_bond_atom_site_label_2
_geom_bond_site_symmetry_1
_geom_bond_site_symmetry_2
Sr2 O1 1_555 1_555
O1 C4 1_555 1_555
O2 Sr2 1_555 1_555
O4 C5 1_555 1_555
N1 C1 1_555 1_555
N2 H1 1_555 1_555
C1 N2 1_555 1_555
H3 C1 1_555 1_555
C2 N1 1_555 1_555
C3 N2 1_555 1_555
C4 O2 1_555 1_555
Sr3 O2 1_555 1_555
Sr4 O4 1_555 1_555
Sr8 N1 1_555 1_555
O10 Sr2 1_555 1_555
O12 Sr2 1_555 1_555
O16 Sr2 1_555 1_555
N6 Sr2 1_555 1_555
C2 C3 1_555 1_555
C2 C4 1_555 1_555
C3 C5 1_555 1_555
Sr3 O12 1_555 1_555
Sr8 O16 1_555 1_555
O3 Sr1 1_555 1_555
O5 Sr1 1_555 1_555
O6 C9 1_555 1_555
O7 Sr1 1_555 1_555
O8 C10 1_555 1_555
N3 H2 1_555 1_555
N4 C6 1_555 1_555
C6 N3 1_555 1_555
H4 C6 1_555 1_555
C7 N3 1_555 1_555
C8 N4 1_555 1_555
C9 O5 1_555 1_555
C10 O7 1_555 1_555
Sr3 O6 1_555 1_555
Sr6 O3 1_555 1_555
Sr7 O8 1_555 1_555
O9 Sr1 1_555 1_555
O11 Sr1 1_555 1_555
O13 Sr1 1_555 1_555
O7 Sr6 1_555 1_555
O8 Sr6 1_555 1_555
N4 Sr7 1_555 1_555
C7 C8 1_555 1_555
C7 C9 1_555 1_555
C8 C10 1_555 1_555
O4_2 C5_2 1_555 1_555
N2_2 H1_2 1_555 1_555
Sr4_2 O4_2 1_555 1_555
O8_2 C10_2 1_555 1_555
N4_2 C6_2 1_555 1_555
H4_2 C6_2 1_555 1_555
C8_2 N4_2 1_555 1_555
C10_2 O7_2 1_555 1_555
Sr6_2 O3_2 1_555 1_555
Sr7_2 O8_2 1_555 1_555
O7_2 Sr6_2 1_555 1_555
O8_2 Sr6_2 1_555 1_555
N4_2 Sr7_2 1_555 1_555
C8_2 C10_2 1_555 1_555
Sr2_2 O1_2 1_555 1_555
O1_2 C4_2 1_555 1_555
O2_2 Sr2_2 1_555 1_555
N1_2 C1_2 1_555 1_555
H3_2 C1_2 1_555 1_555
C2_2 N1_2 1_555 1_555
C4_2 O2_2 1_555 1_555
Sr3_2 O2_2 1_555 1_555
Sr8_2 N1_2 1_555 1_555
O10_2 Sr2_2 1_555 1_555
O12_2 Sr2_2 1_555 1_555
O16_2 Sr2_2 1_555 1_555
N6_2 Sr2_2 1_555 1_555
C2_2 C3_2 1_555 1_555
C2_2 C4_2 1_555 1_555
Sr3_2 O12_2 1_555 1_555
Sr8_2 O16_2 1_555 1_555
O5_2 Sr1_2 1_555 1_555
O6_2 C9_2 1_555 1_555
N3_2 H2_2 1_555 1_555
C7_2 N3_2 1_555 1_555
C9_2 O5_2 1_555 1_555
Sr3_2 O6_2 1_555 1_555
O9_2 Sr1_2 1_555 1_555
O11_2 Sr1_2 1_555 1_555
O13_2 Sr1_2 1_555 1_555
C7_2 C9_2 1_555 1_555
Sr2_3 O1_3 1_555 1_555
O1_3 C4_3 1_555 1_555
O2_3 Sr2_3 1_555 1_555
N1_3 C1_3 1_555 1_555
H3_3 C1_3 1_555 1_555
C2_3 N1_3 1_555 1_555
C4_3 O2_3 1_555 1_555
Sr3_3 O2_3 1_555 1_555
Sr8_3 N1_3 1_555 1_555
O10_3 Sr2_3 1_555 1_555
O12_3 Sr2_3 1_555 1_555
O16_3 Sr2_3 1_555 1_555
N6_3 Sr2_3 1_555 1_555
C2_3 C3_3 1_555 1_555
C2_3 C4_3 1_555 1_555
Sr3_3 O12_3 1_555 1_555
Sr8_3 O16_3 1_555 1_555
O5_3 Sr1_3 1_555 1_555
O6_3 C9_3 1_555 1_555
N3_3 H2_3 1_555 1_555
C7_3 N3_3 1_555 1_555
C9_3 O5_3 1_555 1_555
Sr3_3 O6_3 1_555 1_555
O9_3 Sr1_3 1_555 1_555
O11_3 Sr1_3 1_555 1_555
O13_3 Sr1_3 1_555 1_555
C7_3 C9_3 1_555 1_555
O4_3 C5_3 1_555 1_555
N2_3 H1_3 1_555 1_555
Sr4_3 O4_3 1_555 1_555
O8_3 C10_3 1_555 1_555
N4_3 C6_3 1_555 1_555
H4_3 C6_3 1_555 1_555
C8_3 N4_3 1_555 1_555
C10_3 O7_3 1_555 1_555
Sr6_3 O3_3 1_555 1_555
Sr7_3 O8_3 1_555 1_555
O7_3 Sr6_3 1_555 1_555
O8_3 Sr6_3 1_555 1_555
N4_3 Sr7_3 1_555 1_555
C8_3 C10_3 1_555 1_555
Sr3_3 O1_4 1_555 1_555
Sr8_3 O1_4 1_555 1_555
O1_4 C4_4 1_555 1_555
O9_3 Sr8_3 1_555 1_555
O3_4 Sr3_3 1_555 1_555
O4_4 C5_4 1_555 1_555
O5_4 Sr3_3 1_555 1_555
O7_4 Sr3_3 1_555 1_555
O8_4 C10_4 1_555 1_555
N5_3 C1_4 1_555 1_555
N2_4 H1_4 1_555 1_555
C1_4 N2_4 1_555 1_555
C2_4 N5_3 1_555 1_555
C3_4 N2_4 1_555 1_555
C4_4 O9_3 1_555 1_555
C5_4 O3_4 1_555 1_555
C9_4 O5_4 1_555 1_555
C10_4 O7_4 1_555 1_555
Sr4_4 O4_4 1_555 1_555
Sr7_2 O3_4 1_555 1_555
O10_4 Sr8_3 1_555 1_555
O11_3 Sr8_3 1_555 1_555
O14_4 Sr8_3 1_555 1_555
O15_3 Sr8_3 1_555 1_555
N6_4 Sr8_3 1_555 1_555
O4_4 Sr7_2 1_555 1_555
O7_4 Sr7_2 1_555 1_555
O8_4 Sr7_2 1_555 1_555
C2_4 C3_4 1_555 1_555
C2_4 C4_4 1_555 1_555
C3_4 C5_4 1_555 1_555
N3_4 H2_4 1_555 1_555
N4_4 C6_4 1_555 1_555
C6_4 N3_4 1_555 1_555
H4_4 C6_4 1_555 1_555
C7_4 N3_4 1_555 1_555
C8_4 N4_4 1_555 1_555
N4_4 Sr6_2 1_555 1_555
C7_4 C8_4 1_555 1_555
Sr3_2 O1_5 1_555 1_555
Sr8_2 O1_5 1_555 1_555
O1_5 C4_5 1_555 1_555
O9_2 Sr8_2 1_555 1_555
O5_5 Sr3_2 1_555 1_555
N5_2 C1_5 1_555 1_555
C2_5 N5_2 1_555 1_555
C4_5 O9_2 1_555 1_555
C9_5 O5_5 1_555 1_555
O10_5 Sr8_2 1_555 1_555
O11_2 Sr8_2 1_555 1_555
O14_5 Sr8_2 1_555 1_555
O15_2 Sr8_2 1_555 1_555
N6_5 Sr8_2 1_555 1_555
C2_5 C3_5 1_555 1_555
C2_5 C4_5 1_555 1_555
N3_5 H2_5 1_555 1_555
C7_5 N3_5 1_555 1_555
O4_5 C5_5 1_555 1_555
O8_5 C10_5 1_555 1_555
N2_5 H1_5 1_555 1_555
C5_5 O3_5 1_555 1_555
C10_5 O7_5 1_555 1_555
Sr4_5 O4_5 1_555 1_555
Sr7 O3_5 1_555 1_555
O4_5 Sr7 1_555 1_555
O7_5 Sr7 1_555 1_555
O8_5 Sr7 1_555 1_555
N4_5 C6_5 1_555 1_555
H4_5 C6_5 1_555 1_555
C8_5 N4_5 1_555 1_555
N4_5 Sr6 1_555 1_555
O4_6 C5_6 1_555 1_555
O8_6 C10_6 1_555 1_555
N2_6 H1_6 1_555 1_555
C5_6 O3_6 1_555 1_555
C10_6 O7_6 1_555 1_555
Sr4_6 O4_6 1_555 1_555
Sr7_3 O3_6 1_555 1_555
O4_6 Sr7_3 1_555 1_555
O7_6 Sr7_3 1_555 1_555
O8_6 Sr7_3 1_555 1_555
N4_6 C6_6 1_555 1_555
H4_6 C6_6 1_555 1_555
C8_6 N4_6 1_555 1_555
N4_6 Sr6_3 1_555 1_555
Sr3 O1_6 1_555 1_555
Sr8 O1_6 1_555 1_555
O1_6 C4_6 1_555 1_555
O9 Sr8 1_555 1_555
O5_6 Sr3 1_555 1_555
N5 C1_6 1_555 1_555
C2_6 N5 1_555 1_555
C4_6 O9 1_555 1_555
C9_6 O5_6 1_555 1_555
O10_6 Sr8 1_555 1_555
O11 Sr8 1_555 1_555
O14_6 Sr8 1_555 1_555
O15 Sr8 1_555 1_555
N6_6 Sr8 1_555 1_555
C2_6 C3_6 1_555 1_555
C2_6 C4_6 1_555 1_555
N3_6 H2_6 1_555 1_555
C7_6 N3_6 1_555 1_555
Sr4_2 O1_7 1_555 1_555
Sr7_2 O1_7 1_555 1_555
O1_7 C4_7 1_555 1_555
O2_4 Sr7_2 1_555 1_555
O3_7 Sr4_2 1_555 1_555
O4_7 C5_7 1_555 1_555
O7_7 Sr4_2 1_555 1_555
N1_4 C1_7 1_555 1_555
N2_7 H1_7 1_555 1_555
C1_7 N2_7 1_555 1_555
H3_7 C1_7 1_555 1_555
C2_7 N1_4 1_555 1_555
C3_7 N2_7 1_555 1_555
C4_7 O2_4 1_555 1_555
C5_7 O3_7 1_555 1_555
Sr4_4 O2_4 1_555 1_555
Sr6_4 O3_7 1_555 1_555
Sr6_2 N1_4 1_555 1_555
O9_4 Sr4_2 1_555 1_555
O13_4 Sr4_2 1_555 1_555
N5_4 Sr7_2 1_555 1_555
O4_7 Sr6_4 1_555 1_555
O7_7 Sr6_4 1_555 1_555
C2_7 C3_7 1_555 1_555
C2_7 C4_7 1_555 1_555
C3_7 C5_7 1_555 1_555
O6_4 C9_7 1_555 1_555
O8_7 C10_7 1_555 1_555
N3_7 H2_7 1_555 1_555
N4_7 C6_7 1_555 1_555
C6_7 N3_7 1_555 1_555
H4_7 C6_7 1_555 1_555
C7_7 N3_7 1_555 1_555
C8_7 N4_7 1_555 1_555
C9_7 O5_7 1_555 1_555
Sr4_4 O6_4 1_555 1_555
Sr7_4 O8_7 1_555 1_555
N4_7 Sr7_4 1_555 1_555
C7_7 C8_7 1_555 1_555
C7_7 C9_7 1_555 1_555
C8_7 C10_7 1_555 1_555
Sr4_3 O1_8 1_555 1_555
Sr7_3 O1_8 1_555 1_555
O1_8 C4_8 1_555 1_555
O2_5 Sr7_3 1_555 1_555
O3_8 Sr4_3 1_555 1_555
O4_8 C5_8 1_555 1_555
O7_8 Sr4_3 1_555 1_555
N1_5 C1_8 1_555 1_555
N2_8 H1_8 1_555 1_555
C1_8 N2_8 1_555 1_555
H3_8 C1_8 1_555 1_555
C2_8 N1_5 1_555 1_555
C3_8 N2_8 1_555 1_555
C4_8 O2_5 1_555 1_555
C5_8 O3_8 1_555 1_555
Sr4_6 O2_5 1_555 1_555
Sr6_5 O3_8 1_555 1_555
Sr6_3 N1_5 1_555 1_555
O9_5 Sr4_3 1_555 1_555
O13_5 Sr4_3 1_555 1_555
N5_5 Sr7_3 1_555 1_555
O4_8 Sr6_5 1_555 1_555
O7_8 Sr6_5 1_555 1_555
C2_8 C3_8 1_555 1_555
C2_8 C4_8 1_555 1_555
C3_8 C5_8 1_555 1_555
O6_5 C9_8 1_555 1_555
O8_8 C10_8 1_555 1_555
N3_8 H2_8 1_555 1_555
N4_8 C6_8 1_555 1_555
C6_8 N3_8 1_555 1_555
H4_8 C6_8 1_555 1_555
C7_8 N3_8 1_555 1_555
C8_8 N4_8 1_555 1_555
C9_8 O5_8 1_555 1_555
Sr4_6 O6_5 1_555 1_555
Sr7_5 O8_8 1_555 1_555
N4_8 Sr7_5 1_555 1_555
C7_8 C8_8 1_555 1_555
C7_8 C9_8 1_555 1_555
C8_8 C10_8 1_555 1_555
Sr4 O1_9 1_555 1_555
Sr7 O1_9 1_555 1_555
O1_9 C4_9 1_555 1_555
O2_6 Sr7 1_555 1_555
O3_9 Sr4 1_555 1_555
O4_9 C5_9 1_555 1_555
O7_9 Sr4 1_555 1_555
N1_6 C1_9 1_555 1_555
N2_9 H1_9 1_555 1_555
C1_9 N2_9 1_555 1_555
H3_9 C1_9 1_555 1_555
C2_9 N1_6 1_555 1_555
C3_9 N2_9 1_555 1_555
C4_9 O2_6 1_555 1_555
C5_9 O3_9 1_555 1_555
Sr4_5 O2_6 1_555 1_555
Sr4_9 O4_9 1_555 1_555
Sr6_6 O3_9 1_555 1_555
Sr6 N1_6 1_555 1_555
O9_6 Sr4 1_555 1_555
O13_6 Sr4 1_555 1_555
N5_6 Sr7 1_555 1_555
O4_9 Sr6_6 1_555 1_555
O7_9 Sr6_6 1_555 1_555
C2_9 C3_9 1_555 1_555
C2_9 C4_9 1_555 1_555
C3_9 C5_9 1_555 1_555
O6_6 C9_9 1_555 1_555
O8_9 C10_9 1_555 1_555
N3_9 H2_9 1_555 1_555
N4_9 C6_9 1_555 1_555
C6_9 N3_9 1_555 1_555
H4_9 C6_9 1_555 1_555
C7_9 N3_9 1_555 1_555
C8_9 N4_9 1_555 1_555
C9_9 O5_9 1_555 1_555
Sr4_5 O6_6 1_555 1_555
Sr7_6 O8_9 1_555 1_555
N4_9 Sr7_6 1_555 1_555
C7_9 C8_9 1_555 1_555
C7_9 C9_9 1_555 1_555
C8_9 C10_9 1_555 1_555
N5_6 C1_10 1_555 1_555
N2_10 H1_10 1_555 1_555
C1_10 N2_10 1_555 1_555
H3_10 C1_10 1_555 1_555
C2_10 N5_6 1_555 1_555
C3_10 N2_10 1_555 1_555
C2_10 C3_10 1_555 1_555
Sr4_5 O1_10 1_555 1_555
Sr6 O1_10 1_555 1_555
O1_10 C4_10 1_555 1_555
O3_10 Sr4_5 1_555 1_555
O4_10 C5_10 1_555 1_555
O5_10 Sr4_5 1_555 1_555
O13_6 C9_10 1_555 1_555
O7_10 Sr4_5 1_555 1_555
O8_10 C10_10 1_555 1_555
N3_10 H2_10 1_555 1_555
N4_10 C6_10 1_555 1_555
C5_10 O3_10 1_555 1_555
C6_10 N3_10 1_555 1_555
C7_10 N3_10 1_555 1_555
C8_10 N4_10 1_555 1_555
C9_10 O5_10 1_555 1_555
C10_10 O7_10 1_555 1_555
Sr7_5 O3_10 1_555 1_555
Sr6_5 O8_10 1_555 1_555
O4_10 Sr7_5 1_555 1_555
O7_10 Sr7_5 1_555 1_555
O8_10 Sr7_5 1_555 1_555
N4_10 Sr6_5 1_555 1_555
C7_10 C8_10 1_555 1_555
C7_10 C9_10 1_555 1_555
C8_10 C10_10 1_555 1_555
N5_5 C1_11 1_555 1_555
N2_11 H1_11 1_555 1_555
C1_11 N2_11 1_555 1_555
H3_11 C1_11 1_555 1_555
C2_11 N5_5 1_555 1_555
C3_11 N2_11 1_555 1_555
C2_11 C3_11 1_555 1_555
Sr4_6 O1_11 1_555 1_555
Sr6_3 O1_11 1_555 1_555
O1_11 C4_11 1_555 1_555
O3_11 Sr4_6 1_555 1_555
O4_11 C5_11 1_555 1_555
O5_11 Sr4_6 1_555 1_555
O13_5 C9_11 1_555 1_555
O7_11 Sr4_6 1_555 1_555
O8_11 C10_11 1_555 1_555
N3_11 H2_11 1_555 1_555
N4_11 C6_11 1_555 1_555
C5_11 O3_11 1_555 1_555
C6_11 N3_11 1_555 1_555
C7_11 N3_11 1_555 1_555
C8_11 N4_11 1_555 1_555
C9_11 O5_11 1_555 1_555
C10_11 O7_11 1_555 1_555
Sr7_4 O3_11 1_555 1_555
Sr6_4 O8_11 1_555 1_555
O4_11 Sr7_4 1_555 1_555
O7_11 Sr7_4 1_555 1_555
O8_11 Sr7_4 1_555 1_555
N4_11 Sr6_4 1_555 1_555
C7_11 C8_11 1_555 1_555
C7_11 C9_11 1_555 1_555
C8_11 C10_11 1_555 1_555
N5_4 C1_12 1_555 1_555
N2_12 H1_12 1_555 1_555
C1_12 N2_12 1_555 1_555
H3_12 C1_12 1_555 1_555
C2_12 N5_4 1_555 1_555
C3_12 N2_12 1_555 1_555
C2_12 C3_12 1_555 1_555
Sr4_4 O1_12 1_555 1_555
Sr6_2 O1_12 1_555 1_555
O1_12 C4_12 1_555 1_555
O3_12 Sr4_4 1_555 1_555
O4_12 C5_12 1_555 1_555
O5_12 Sr4_4 1_555 1_555
O13_4 C9_12 1_555 1_555
O7_12 Sr4_4 1_555 1_555
O8_12 C10_12 1_555 1_555
N3_12 H2_12 1_555 1_555
N4_12 C6_12 1_555 1_555
C5_12 O3_12 1_555 1_555
C6_12 N3_12 1_555 1_555
C7_12 N3_12 1_555 1_555
C8_12 N4_12 1_555 1_555
C9_12 O5_12 1_555 1_555
C10_12 O7_12 1_555 1_555
Sr4_12 O4_12 1_555 1_555
Sr7_6 O3_12 1_555 1_555
Sr6_6 O8_12 1_555 1_555
O4_12 Sr7_6 1_555 1_555
O7_12 Sr7_6 1_555 1_555
O8_12 Sr7_6 1_555 1_555
N4_12 Sr6_6 1_555 1_555
C7_12 C8_12 1_555 1_555
C7_12 C9_12 1_555 1_555
C8_12 C10_12 1_555 1_555
N1_7 C1_13 1_555 1_555
H3_13 C1_13 1_555 1_555
Sr4_8 O1_13 1_555 1_555
O1_13 C4_13 1_555 1_555
O10_4 Sr4_8 1_555 1_555
O11_3 C5_13 1_555 1_555
O5_13 Sr4_8 1_555 1_555
O6_7 C9_13 1_555 1_555
O14_4 Sr4_8 1_555 1_555
O16_3 C10_13 1_555 1_555
N2_13 H1_13 1_555 1_555
C3_13 N2_13 1_555 1_555
C4_13 O2_7 1_555 1_555
C5_13 O10_4 1_555 1_555
C8_13 N6_3 1_555 1_555
C9_13 O5_13 1_555 1_555
C10_13 O14_4 1_555 1_555
Sr4_10 O2_7 1_555 1_555
O9_7 Sr4_8 1_555 1_555
O13_7 Sr4_8 1_555 1_555
C2_13 C3_13 1_555 1_555
C2_13 C4_13 1_555 1_555
C3_13 C5_13 1_555 1_555
C7_13 C8_13 1_555 1_555
C7_13 C9_13 1_555 1_555
C8_13 C10_13 1_555 1_555
N3_13 H2_13 1_555 1_555
C6_13 N3_13 1_555 1_555
H4_10 C6_13 1_555 1_555
N1_8 C1_14 1_555 1_555
H3_14 C1_14 1_555 1_555
Sr6_6 N1_8 1_555 1_555
Sr4_9 O1_14 1_555 1_555
Sr7_6 O1_14 1_555 1_555
O1_14 C4_14 1_555 1_555
O2_8 Sr7_6 1_555 1_555
O10_6 Sr4_9 1_555 1_555
O11 C5_14 1_555 1_555
O5_14 Sr4_9 1_555 1_555
O6_8 C9_14 1_555 1_555
O14_6 Sr4_9 1_555 1_555
O16 C10_14 1_555 1_555
N2_14 H1_14 1_555 1_555
C3_14 N2_14 1_555 1_555
C4_14 O2_8 1_555 1_555
C5_14 O10_6 1_555 1_555
C8_14 N6 1_555 1_555
C9_14 O5_14 1_555 1_555
C10_14 O14_6 1_555 1_555
Sr4_12 O2_8 1_555 1_555
O9_8 Sr4_9 1_555 1_555
O13_8 Sr4_9 1_555 1_555
N5_8 Sr7_6 1_555 1_555
C2_14 C3_14 1_555 1_555
C2_14 C4_14 1_555 1_555
C3_14 C5_14 1_555 1_555
C7_14 C8_14 1_555 1_555
C7_14 C9_14 1_555 1_555
C8_14 C10_14 1_555 1_555
N3_14 H2_14 1_555 1_555
C6_14 N3_14 1_555 1_555
H4_11 C6_14 1_555 1_555
N1_9 C1_15 1_555 1_555
H3_15 C1_15 1_555 1_555
Sr4_7 O1_15 1_555 1_555
O1_15 C4_15 1_555 1_555
O10_5 Sr4_7 1_555 1_555
O11_2 C5_15 1_555 1_555
O5_15 Sr4_7 1_555 1_555
O6_9 C9_15 1_555 1_555
O14_5 Sr4_7 1_555 1_555
O16_2 C10_15 1_555 1_555
N2_15 H1_15 1_555 1_555
C3_15 N2_15 1_555 1_555
C4_15 O2_9 1_555 1_555
C5_15 O10_5 1_555 1_555
C8_15 N6_2 1_555 1_555
C9_15 O5_15 1_555 1_555
C10_15 O14_5 1_555 1_555
Sr4_11 O2_9 1_555 1_555
O9_9 Sr4_7 1_555 1_555
O13_9 Sr4_7 1_555 1_555
C2_15 C3_15 1_555 1_555
C2_15 C4_15 1_555 1_555
C3_15 C5_15 1_555 1_555
C7_15 C8_15 1_555 1_555
C7_15 C9_15 1_555 1_555
C8_15 C10_15 1_555 1_555
N3_15 H2_15 1_555 1_555
C6_15 N3_15 1_555 1_555
H4_12 C6_15 1_555 1_555
O1_16 C4_16 1_555 1_555
O12 C5_16 1_555 1_555
N5_9 C1_16 1_555 1_555
N2_16 H1_16 1_555 1_555
C1_16 N2_16 1_555 1_555
H3_16 C1_16 1_555 1_555
C2_16 N5_9 1_555 1_555
C3_16 N2_16 1_555 1_555
C4_16 O9_9 1_555 1_555
C5_16 O10 1_555 1_555
C2_16 C3_16 1_555 1_555
C2_16 C4_16 1_555 1_555
C3_16 C5_16 1_555 1_555
O5_16 Sr4_11 1_555 1_555
O13_9 C9_16 1_555 1_555
O14 Sr4_11 1_555 1_555
O15 C10_16 1_555 1_555
N3_16 H2_16 1_555 1_555
N6_6 C6_16 1_555 1_555
C6_16 N3_16 1_555 1_555
H4_13 C6_16 1_555 1_555
C7_16 N3_16 1_555 1_555
C8_16 N6_6 1_555 1_555
C9_16 O5_16 1_555 1_555
C10_16 O14 1_555 1_555
C7_16 C8_16 1_555 1_555
C7_16 C9_16 1_555 1_555
C8_16 C10_16 1_555 1_555
Sr6_6 O1_17 1_555 1_555
O1_17 C4_17 1_555 1_555
O9_8 Sr6_6 1_555 1_555
O12_3 C5_17 1_555 1_555
N5_8 C1_17 1_555 1_555
N2_17 H1_17 1_555 1_555
C1_17 N2_17 1_555 1_555
H3_17 C1_17 1_555 1_555
C2_17 N5_8 1_555 1_555
C3_17 N2_17 1_555 1_555
C4_17 O9_8 1_555 1_555
C5_17 O10_3 1_555 1_555
C2_17 C3_17 1_555 1_555
C2_17 C4_17 1_555 1_555
C3_17 C5_17 1_555 1_555
O5_17 Sr4_12 1_555 1_555
O13_8 C9_17 1_555 1_555
O14_3 Sr4_12 1_555 1_555
O15_3 C10_17 1_555 1_555
N3_17 H2_17 1_555 1_555
N6_4 C6_17 1_555 1_555
C6_17 N3_17 1_555 1_555
H4_14 C6_17 1_555 1_555
C7_17 N3_17 1_555 1_555
C8_17 N6_4 1_555 1_555
C9_17 O5_17 1_555 1_555
C10_17 O14_3 1_555 1_555
C7_17 C8_17 1_555 1_555
C7_17 C9_17 1_555 1_555
C8_17 C10_17 1_555 1_555
O1_18 C4_18 1_555 1_555
O12_2 C5_18 1_555 1_555
N5_7 C1_18 1_555 1_555
N2_18 H1_18 1_555 1_555
C1_18 N2_18 1_555 1_555
H3_18 C1_18 1_555 1_555
C2_18 N5_7 1_555 1_555
C3_18 N2_18 1_555 1_555
C4_18 O9_7 1_555 1_555
C5_18 O10_2 1_555 1_555
C2_18 C3_18 1_555 1_555
C2_18 C4_18 1_555 1_555
C3_18 C5_18 1_555 1_555
O5_18 Sr4_10 1_555 1_555
O13_7 C9_18 1_555 1_555
O14_2 Sr4_10 1_555 1_555
O15_2 C10_18 1_555 1_555
N3_18 H2_18 1_555 1_555
N6_5 C6_18 1_555 1_555
C6_18 N3_18 1_555 1_555
H4_15 C6_18 1_555 1_555
C7_18 N3_18 1_555 1_555
C8_18 N6_5 1_555 1_555
C9_18 O5_18 1_555 1_555
C10_18 O14_2 1_555 1_555
C7_18 C8_18 1_555 1_555
C7_18 C9_18 1_555 1_555
C8_18 C10_18 1_555 1_555

#END
