
###############################################################################
#
# This file contains modified crystal structure data generated from the
# MOF subset of the Cambridge Structural Database (CSD) v543 
# hosted by the Cambridge Crystallographic Data Centre (CCDC).
#
# This work is licensed under the Creative Commons
# Attribution-NonCommercial-ShareAlike 4.0 International License.
# To view a copy of this license, visit
# http://creativecommons.org/licenses/by-nc-sa/4.0/
# or send a letter to
# Creative Commons, PO Box 1866, Mountain View, CA 94042, USA.
#
# CIF created using the CSD Python API on 29 September 2022
# The structure has been converted into the P1 space group
# The structure has a 3D framework
# The original CSD entry XEJXER is in the orthorhombic crystal system
# The original CSD entry XEJXER is in a Sohncke space group
# The framework has been calculated to contain at least 10.0% void space
# The void calculation uses a probe of radius 1.32A, grid spacing 0.4
# H atom positions have been added when not included in the experimental data
#
###############################################################################

data_XEJXER
_chemical_formula_moiety         '(C80 H76 N8 Ni8 O40)n'
_symmetry_cell_setting           triclinic
_symmetry_space_group_name_H-M   'P 1'
_symmetry_Int_Tables_number      1
_space_group_name_Hall           'P 1'
loop_
_symmetry_equiv_pos_site_id
_symmetry_equiv_pos_as_xyz
1 x,y,z
_cell_length_a                   23.6987(6)
_cell_length_b                   9.6879(2)
_cell_length_c                   10.4569(3)
_cell_angle_alpha                90
_cell_angle_beta                 90
_cell_angle_gamma                90
_cell_volume                     2400.81
loop_
_atom_site_label
_atom_site_type_symbol
_atom_site_fract_x
_atom_site_fract_y
_atom_site_fract_z
C20 C 0.13747(10) 0.0018(3) 0.1835(2)
H18 H 0.1645 0.0368 0.2423
N2 N 0.14216(7) 0.03735(18) 0.05963(17)
H15 H 0.1082 0.0055 0.8901
Ni6 Ni 0.213600(10) 0.14239(2) 0.99506(2)
O6 O 0.74509(6) 0.54840(16) 0.05052(15)
O7 O 0.82451(6) 0.66838(15) 0.01843(14)
C5 C 0.79685(9) 0.5575(2) 0.03175(18)
C6 C 0.83007(8) 0.4209(2) 0.02151(18)
H5 H 0.8653 0.4274 0.0739
O8 O 0.79627(6) 0.30781(15) 0.06680(13)
H6 H 0.7922(11) 0.308(3) 0.1531(16)
Ni4 Ni 0.713600(10) 0.35761(2) 0.00494(2)
Ni1 Ni 0.787523(9) 0.38315(2) 0.49467(2)
O1 O 0.76351(6) 0.33380(15) 0.30779(13)
O2 O 0.68323(6) 0.33944(16) 0.19241(13)
C1 C 0.71007(8) 0.33417(19) 0.29530(18)
C2 C 0.67496(8) 0.3286(2) 0.41836(18)
H1 H 0.6450 0.2566 0.4084
O3 O 0.70897(6) 0.29474(14) 0.52671(13)
H2 H 0.7211(10) 0.2119(18) 0.526(2)
C3 C 0.64690(8) 0.4665(2) 0.4457(2)
H3 H 0.6217 0.4553 0.5205
H4 H 0.6231 0.4915 0.3715
C4 C 0.68717(8) 0.5853(2) 0.47247(18)
O4 O 0.73986(6) 0.56180(14) 0.47581(15)
O5 O 0.66581(6) 0.70203(13) 0.48833(16)
C7 C 0.84554(9) 0.3911(2) 0.88290(19)
H7 H 0.8637 0.2991 0.8789
H8 H 0.8738 0.4599 0.8550
C8 C 0.79646(9) 0.3932(2) 0.78810(19)
O9 O 0.74711(6) 0.36744(17) 0.82377(15)
O10 O 0.81110(6) 0.41944(18) 0.67527(14)
N1 N 0.85646(7) 0.49758(17) 0.43461(15)
C9 C 0.90153(8) 0.5220(2) 0.5089(2)
H9 H 0.9026 0.4815 0.5916
C10 C 0.94659(8) 0.6032(2) 0.4710(2)
H10 H 0.9771 0.6197 0.5280
C11 C 0.94701(9) 0.6606(2) 0.3492(2)
C12 C 0.89921(10) 0.6398(2) 0.2735(2)
H11 H 0.8967 0.6805 0.1910
C13 C 0.85551(9) 0.5596(2) 0.3197(2)
H12 H 0.8231 0.5476 0.2675
C14 C 0.99594(10) 0.7417(3) 0.3067(2)
H14 H 0.9792 0.7553 0.1235
Ni3 Ni 0.712477(9) 0.88315(2) 0.50533(2)
Ni5 Ni 0.786400(10) 0.85761(2) 0.99506(2)
O11 O 0.83419(6) 0.20203(13) 0.51167(16)
H20 H 0.823981 0.378415 0.038612
O13 O 0.67549(6) 0.16838(15) 0.98157(14)
N3 N 0.64216(7) 0.46265(18) 0.94037(17)
O6_2 O 0.25491(6) 0.45160(16) 0.05052(15)
O7_2 O 0.17549(6) 0.33162(15) 0.01843(14)
C5_2 C 0.20315(9) 0.4425(2) 0.03175(18)
C6_2 C 0.16993(8) 0.5791(2) 0.02151(18)
H5_2 H 0.1347 0.5726 0.0739
O8_2 O 0.20373(6) 0.69219(15) 0.06680(13)
H6_2 H 0.2078(11) 0.692(3) 0.1531(16)
Ni4_2 Ni 0.286400(10) 0.64239(2) 0.00494(2)
Ni1_2 Ni 0.212477(9) 0.61685(2) 0.49467(2)
O1_2 O 0.23649(6) 0.66620(15) 0.30779(13)
O2_2 O 0.31677(6) 0.66056(16) 0.19241(13)
C1_2 C 0.28993(8) 0.66583(19) 0.29530(18)
C2_2 C 0.32504(8) 0.6714(2) 0.41836(18)
H1_2 H 0.3550 0.7434 0.4084
O3_2 O 0.29103(6) 0.70526(14) 0.52671(13)
H2_2 H 0.2789(10) 0.7881(18) 0.526(2)
C3_2 C 0.35310(8) 0.5335(2) 0.4457(2)
H3_2 H 0.3783 0.5447 0.5205
H4_2 H 0.3769 0.5085 0.3715
C4_2 C 0.31283(8) 0.4147(2) 0.47247(18)
O4_2 O 0.26014(6) 0.43820(14) 0.47581(15)
O5_2 O 0.33419(6) 0.29797(13) 0.48833(16)
C7_2 C 0.15446(9) 0.6089(2) 0.88290(19)
H7_2 H 0.1363 0.7009 0.8789
H8_2 H 0.1262 0.5401 0.8550
C8_2 C 0.20354(9) 0.6068(2) 0.78810(19)
O9_2 O 0.25289(6) 0.63256(17) 0.82377(15)
O10_2 O 0.18890(6) 0.58056(18) 0.67527(14)
N1_2 N 0.14354(7) 0.50242(17) 0.43461(15)
C9_2 C 0.09847(8) 0.4780(2) 0.5089(2)
H9_2 H 0.0974 0.5185 0.5916
C10_2 C 0.05341(8) 0.3968(2) 0.4710(2)
H10_2 H 0.0229 0.3803 0.5280
C11_2 C 0.05299(9) 0.3394(2) 0.3492(2)
C12_2 C 0.10079(10) 0.3602(2) 0.2735(2)
H11_2 H 0.1033 0.3195 0.1910
C13_2 C 0.14449(9) 0.4404(2) 0.3197(2)
H12_2 H 0.1769 0.4524 0.2675
C14_2 C 0.00406(10) 0.2583(3) 0.3067(2)
H14_2 H 0.0208 0.2447 0.1235
Ni3_2 Ni 0.287523(9) 0.11685(2) 0.50533(2)
O11_2 O 0.16581(6) 0.79797(13) 0.51167(16)
H20_2 H 0.176019 0.621585 0.038612
O13_2 O 0.32451(6) 0.83162(15) 0.98157(14)
N3_2 N 0.35784(7) 0.53735(18) 0.94037(17)
C20_2 C 0.86253(10) 0.9982(3) 0.1835(2)
H18_2 H 0.8355 0.9632 0.2423
N2_2 N 0.85784(7) 0.96265(18) 0.05963(17)
H15_2 H 0.8918 0.9945 0.8901
C16 C 0.39549(9) 0.4844(2) 0.0215(2)
H15_3 H 0.3918 0.5055 0.1099
H16 H 0.4659 0.3653 0.0449
C4_3 C 0.81283(8) 0.0853(2) 0.52753(18)
O4_3 O 0.76014(6) 0.06180(14) 0.52419(15)
C9_3 C 0.59847(8) 0.0220(2) 0.4911(2)
C10_3 C 0.55341(8) 0.1032(2) 0.5290(2)
H10_3 H 0.5229 0.1197 0.4720
C11_3 C 0.55299(9) 0.1606(2) 0.6508(2)
C12_3 C 0.60079(10) 0.1398(2) 0.7265(2)
H11_3 H 0.6033 0.1805 0.8090
C13_3 C 0.64449(9) 0.0596(2) 0.6803(2)
H12_3 H 0.6769 0.0476 0.7325
C14_3 C 0.50406(10) 0.2417(3) 0.6933(2)
H13 H 0.4771 0.2671 0.6303
C15 C 0.49433(10) 0.2825(3) 0.8131(2)
H14_3 H 0.5208 0.2553 0.8765
C17 C 0.43989(9) 0.3997(2) 0.9835(2)
C18 C 0.44596(10) 0.3659(2) 0.8551(2)
C19 C 0.40494(12) 0.4165(3) 0.7706(2)
H17 H 0.4062 0.3925 0.6826
C20_3 C 0.36253(10) 0.5018(3) 0.8165(2)
H18_3 H 0.3355 0.5368 0.7577
O12 O 0.75491(6) 0.04840(16) 0.94948(15)
C5_3 C 0.70315(9) 0.0575(2) 0.96825(18)
O15 O 0.75289(6) 0.86744(17) 0.17623(15)
O1_3 O 0.73649(6) 0.83380(15) 0.69221(13)
O2_3 O 0.81677(6) 0.83944(16) 0.80759(13)
C1_3 C 0.78993(8) 0.83417(19) 0.70470(18)
C2_3 C 0.82504(8) 0.8286(2) 0.58164(18)
H1_3 H 0.8550 0.7566 0.5916
O3_3 O 0.79103(6) 0.79474(14) 0.47329(13)
H2_3 H 0.7789(10) 0.7119(18) 0.474(2)
C3_3 C 0.85310(8) 0.9665(2) 0.5543(2)
H3_3 H 0.8783 0.9553 0.4795
H4_3 H 0.8769 0.9915 0.6285
C7_3 C 0.65446(9) 0.8911(2) 0.11710(19)
H7_3 H 0.6363 0.7991 0.1211
H8_3 H 0.6262 0.9599 0.1450
C8_3 C 0.70354(9) 0.8932(2) 0.21190(19)
O10_3 O 0.68890(6) 0.91944(18) 0.32473(14)
N1_3 N 0.64354(7) 0.99758(17) 0.56539(15)
H9_3 H 0.5974 0.9815 0.4084
O14 O 0.70373(6) 0.80781(15) 0.93320(13)
H19 H 0.7078(11) 0.808(3) 0.8469(16)
H20_3 H 0.676019 0.878415 0.961388
C6_3 C 0.66993(8) 0.9209(2) 0.97849(18)
H5_3 H 0.6347 0.9274 0.9261
O15_2 O 0.24711(6) 0.13256(17) 0.17623(15)
O1_4 O 0.26351(6) 0.16620(15) 0.69221(13)
O2_4 O 0.18323(6) 0.16056(16) 0.80759(13)
C1_4 C 0.21007(8) 0.16583(19) 0.70470(18)
C2_4 C 0.17496(8) 0.1714(2) 0.58164(18)
H1_4 H 0.1450 0.2434 0.5916
O3_4 O 0.20897(6) 0.20526(14) 0.47329(13)
H2_4 H 0.2211(10) 0.2881(18) 0.474(2)
C3_4 C 0.14690(8) 0.0335(2) 0.5543(2)
H3_4 H 0.1217 0.0447 0.4795
H4_4 H 0.1231 0.0085 0.6285
C7_4 C 0.34554(9) 0.1089(2) 0.11710(19)
H7_4 H 0.3637 0.2009 0.1211
H8_4 H 0.3738 0.0401 0.1450
C8_4 C 0.29646(9) 0.1068(2) 0.21190(19)
O10_4 O 0.31110(6) 0.08056(18) 0.32473(14)
N1_4 N 0.35646(7) 0.00242(17) 0.56539(15)
H9_4 H 0.4026 0.0185 0.4084
O14_2 O 0.29627(6) 0.19219(15) 0.93320(13)
H19_2 H 0.2922(11) 0.192(3) 0.8469(16)
H20_4 H 0.323981 0.121585 0.961388
C6_4 C 0.33007(8) 0.0791(2) 0.97849(18)
H5_4 H 0.3653 0.0726 0.9261
C16_2 C 0.60451(9) 0.5156(2) 0.0215(2)
H15_4 H 0.6082 0.4945 0.1099
H16_2 H 0.5341 0.6347 0.0449
C4_4 C 0.18717(8) 0.9147(2) 0.52753(18)
O4_4 O 0.23986(6) 0.93820(14) 0.52419(15)
C9_4 C 0.40153(8) 0.9780(2) 0.4911(2)
C10_4 C 0.44659(8) 0.8968(2) 0.5290(2)
H10_4 H 0.4771 0.8803 0.4720
C11_4 C 0.44701(9) 0.8394(2) 0.6508(2)
C12_4 C 0.39921(10) 0.8602(2) 0.7265(2)
H11_4 H 0.3967 0.8195 0.8090
C13_4 C 0.35551(9) 0.9404(2) 0.6803(2)
H12_4 H 0.3231 0.9524 0.7325
C14_4 C 0.49594(10) 0.7583(3) 0.6933(2)
H13_2 H 0.5229 0.7329 0.6303
C15_2 C 0.50567(10) 0.7175(3) 0.8131(2)
H14_4 H 0.4792 0.7447 0.8765
C17_2 C 0.56011(9) 0.6003(2) 0.9835(2)
C18_2 C 0.55404(10) 0.6341(2) 0.8551(2)
C19_2 C 0.59506(12) 0.5835(3) 0.7706(2)
H17_2 H 0.5938 0.6075 0.6826
C20_4 C 0.63747(10) 0.4982(3) 0.8165(2)
H18_4 H 0.6645 0.4632 0.7577
O12_2 O 0.24509(6) 0.95160(16) 0.94948(15)
C5_4 C 0.29685(9) 0.9425(2) 0.96825(18)
H13_3 H 0.0229 0.7671 0.3697
C15_3 C 0.00567(10) 0.7825(3) 0.1869(2)
C17_3 C 0.06011(9) 0.8997(2) 0.0165(2)
C18_3 C 0.05404(10) 0.8659(2) 0.1449(2)
C19_3 C 0.09506(12) 0.9165(3) 0.2294(2)
H17_3 H 0.0938 0.8925 0.3174
C16_3 C 0.10451(9) 0.9844(2) 0.9785(2)
H16_3 H 0.0341 0.8653 0.9551
H13_4 H 0.9771 0.2329 0.3697
C15_4 C 0.99433(10) 0.2175(3) 0.1869(2)
C17_4 C 0.93989(9) 0.1003(2) 0.0165(2)
C18_4 C 0.94596(10) 0.1341(2) 0.1449(2)
C19_4 C 0.90494(12) 0.0835(3) 0.2294(2)
H17_4 H 0.9062 0.1075 0.3174
C16_4 C 0.89549(9) 0.0156(2) 0.9785(2)
H16_4 H 0.9659 0.1347 0.9551
loop_
_geom_bond_atom_site_label_1
_geom_bond_atom_site_label_2
_geom_bond_site_symmetry_1
_geom_bond_site_symmetry_2
H18 C20 1_555 1_555
C20 N2 1_555 1_555
O6 C5 1_555 1_555
O7 C5 1_555 1_555
C5 C6 1_555 1_555
C6 H5 1_555 1_555
O8 C6 1_555 1_555
H6 O8 1_555 1_555
Ni4 O6 1_555 1_555
O8 Ni4 1_555 1_555
Ni1 O1 1_555 1_555
Ni4 O2 1_555 1_555
O1 C1 1_555 1_555
O2 C1 1_555 1_555
C1 C2 1_555 1_555
C2 H1 1_555 1_555
O3 Ni1 1_555 1_555
H2 O3 1_555 1_555
C3 C2 1_555 1_555
H3 C3 1_555 1_555
H4 C3 1_555 1_555
C4 C3 1_555 1_555
O4 Ni1 1_555 1_555
O5 C4 1_555 1_555
H7 C7 1_555 1_555
H8 C7 1_555 1_555
C8 C7 1_555 1_555
O9 C8 1_555 1_555
O10 Ni1 1_555 1_555
N1 Ni1 1_555 1_555
C9 N1 1_555 1_555
H9 C9 1_555 1_555
C10 C9 1_555 1_555
H10 C10 1_555 1_555
C11 C10 1_555 1_555
C12 C11 1_555 1_555
H11 C12 1_555 1_555
C13 N1 1_555 1_555
H12 C13 1_555 1_555
C14 C11 1_555 1_555
Ni3 O5 1_555 1_555
O11 Ni1 1_555 1_555
C2 O3 1_555 1_555
C4 O4 1_555 1_555
C8 O10 1_555 1_555
C12 C13 1_555 1_555
O8 H20 1_555 1_555
O6_2 C5_2 1_555 1_555
O7_2 C5_2 1_555 1_555
C5_2 C6_2 1_555 1_555
C6_2 H5_2 1_555 1_555
O8_2 C6_2 1_555 1_555
H6_2 O8_2 1_555 1_555
Ni4_2 O6_2 1_555 1_555
O8_2 Ni4_2 1_555 1_555
Ni1_2 O1_2 1_555 1_555
Ni4_2 O2_2 1_555 1_555
O1_2 C1_2 1_555 1_555
O2_2 C1_2 1_555 1_555
C1_2 C2_2 1_555 1_555
C2_2 H1_2 1_555 1_555
O3_2 Ni1_2 1_555 1_555
H2_2 O3_2 1_555 1_555
C3_2 C2_2 1_555 1_555
H3_2 C3_2 1_555 1_555
H4_2 C3_2 1_555 1_555
C4_2 C3_2 1_555 1_555
O4_2 Ni1_2 1_555 1_555
O5_2 C4_2 1_555 1_555
H7_2 C7_2 1_555 1_555
H8_2 C7_2 1_555 1_555
C8_2 C7_2 1_555 1_555
O9_2 C8_2 1_555 1_555
O10_2 Ni1_2 1_555 1_555
N1_2 Ni1_2 1_555 1_555
C9_2 N1_2 1_555 1_555
H9_2 C9_2 1_555 1_555
C10_2 C9_2 1_555 1_555
H10_2 C10_2 1_555 1_555
C11_2 C10_2 1_555 1_555
C12_2 C11_2 1_555 1_555
H11_2 C12_2 1_555 1_555
C13_2 N1_2 1_555 1_555
H12_2 C13_2 1_555 1_555
C14_2 C11_2 1_555 1_555
Ni3_2 O5_2 1_555 1_555
O11_2 Ni1_2 1_555 1_555
C2_2 O3_2 1_555 1_555
C4_2 O4_2 1_555 1_555
C8_2 O10_2 1_555 1_555
C12_2 C13_2 1_555 1_555
O8_2 H20_2 1_555 1_555
H18_2 C20_2 1_555 1_555
C20_2 N2_2 1_555 1_555
C16 H15_3 1_555 1_555
O11 C4_3 1_555 1_555
C10_3 C9_3 1_555 1_555
H10_3 C10_3 1_555 1_555
C11_3 C10_3 1_555 1_555
C12_3 C11_3 1_555 1_555
H11_3 C12_3 1_555 1_555
H12_3 C13_3 1_555 1_555
C14_3 C11_3 1_555 1_555
H13 C14_3 1_555 1_555
C15 C14_3 1_555 1_555
H14_3 C15 1_555 1_555
C18 C15 1_555 1_555
C19 C18 1_555 1_555
H17 C19 1_555 1_555
C20_3 C19 1_555 1_555
H18_3 C20_3 1_555 1_555
C4_3 O4_3 1_555 1_555
C12_3 C13_3 1_555 1_555
C17 C18 1_555 1_555
C20_3 N3_2 1_555 1_555
O12 C5_3 1_555 1_555
O13 C5_3 1_555 1_555
Ni3 O1_3 1_555 1_555
Ni5 O2_3 1_555 1_555
O1_3 C1_3 1_555 1_555
O2_3 C1_3 1_555 1_555
C1_3 C2_3 1_555 1_555
C2_3 H1_3 1_555 1_555
O3_3 Ni3 1_555 1_555
H2_3 O3_3 1_555 1_555
C3_3 C2_3 1_555 1_555
H3_3 C3_3 1_555 1_555
H4_3 C3_3 1_555 1_555
H7_3 C7_3 1_555 1_555
H8_3 C7_3 1_555 1_555
C8_3 C7_3 1_555 1_555
O15 C8_3 1_555 1_555
O10_3 Ni3 1_555 1_555
N1_3 Ni3 1_555 1_555
O14 Ni5 1_555 1_555
H19 O14 1_555 1_555
C2_3 O3_3 1_555 1_555
C8_3 O10_3 1_555 1_555
O14 H20_3 1_555 1_555
C6_3 H5_3 1_555 1_555
O14 C6_3 1_555 1_555
Ni3_2 O1_4 1_555 1_555
Ni6 O2_4 1_555 1_555
O1_4 C1_4 1_555 1_555
O2_4 C1_4 1_555 1_555
C1_4 C2_4 1_555 1_555
C2_4 H1_4 1_555 1_555
O3_4 Ni3_2 1_555 1_555
H2_4 O3_4 1_555 1_555
C3_4 C2_4 1_555 1_555
H3_4 C3_4 1_555 1_555
H4_4 C3_4 1_555 1_555
H7_4 C7_4 1_555 1_555
H8_4 C7_4 1_555 1_555
C8_4 C7_4 1_555 1_555
O15_2 C8_4 1_555 1_555
O10_4 Ni3_2 1_555 1_555
N1_4 Ni3_2 1_555 1_555
O14_2 Ni6 1_555 1_555
H19_2 O14_2 1_555 1_555
C2_4 O3_4 1_555 1_555
C8_4 O10_4 1_555 1_555
O14_2 H20_4 1_555 1_555
C6_4 H5_4 1_555 1_555
O14_2 C6_4 1_555 1_555
C16_2 H15_4 1_555 1_555
O11_2 C4_4 1_555 1_555
C10_4 C9_4 1_555 1_555
H10_4 C10_4 1_555 1_555
C11_4 C10_4 1_555 1_555
C12_4 C11_4 1_555 1_555
H11_4 C12_4 1_555 1_555
H12_4 C13_4 1_555 1_555
C14_4 C11_4 1_555 1_555
H13_2 C14_4 1_555 1_555
C15_2 C14_4 1_555 1_555
H14_4 C15_2 1_555 1_555
C18_2 C15_2 1_555 1_555
C19_2 C18_2 1_555 1_555
H17_2 C19_2 1_555 1_555
C20_4 C19_2 1_555 1_555
H18_4 C20_4 1_555 1_555
C4_4 O4_4 1_555 1_555
C12_4 C13_4 1_555 1_555
C17_2 C18_2 1_555 1_555
C20_4 N3 1_555 1_555
O12_2 C5_4 1_555 1_555
O13_2 C5_4 1_555 1_555
C18_3 C15_3 1_555 1_555
C19_3 C18_3 1_555 1_555
H17_3 C19_3 1_555 1_555
C17_3 C18_3 1_555 1_555
C18_4 C15_4 1_555 1_555
C19_4 C18_4 1_555 1_555
H17_4 C19_4 1_555 1_555
C17_4 C18_4 1_555 1_555

#END
