
###############################################################################
#
# This file contains modified crystal structure data generated from the
# MOF subset of the Cambridge Structural Database (CSD) v543 
# hosted by the Cambridge Crystallographic Data Centre (CCDC).
#
# This work is licensed under the Creative Commons
# Attribution-NonCommercial-ShareAlike 4.0 International License.
# To view a copy of this license, visit
# http://creativecommons.org/licenses/by-nc-sa/4.0/
# or send a letter to
# Creative Commons, PO Box 1866, Mountain View, CA 94042, USA.
#
# CIF created using the CSD Python API on 29 September 2022
# The structure has been converted into the P1 space group
# The structure has a 3D framework
# The original CSD entry XEKDOI is in the monoclinic crystal system
# The framework has been calculated to contain at least 10.0% void space
# The void calculation uses a probe of radius 1.32A, grid spacing 0.4
#
###############################################################################

data_XEKDOI
_chemical_formula_moiety         '(C56 H40 Cu12 N28 O16)n'
_symmetry_cell_setting           triclinic
_symmetry_space_group_name_H-M   'P 1'
_symmetry_Int_Tables_number      1
_space_group_name_Hall           'P 1'
loop_
_symmetry_equiv_pos_site_id
_symmetry_equiv_pos_as_xyz
1 x,y,z
_cell_length_a                   9.334(6)
_cell_length_b                   29.102(18)
_cell_length_c                   7.702(5)
_cell_angle_alpha                90
_cell_angle_beta                 108.395(9)
_cell_angle_gamma                90
_cell_volume                     1985.25
loop_
_atom_site_label
_atom_site_type_symbol
_atom_site_fract_x
_atom_site_fract_y
_atom_site_fract_z
Cu1 Cu -0.0000 0.0000 0.5000
C6 C 0.0221(8) 0.2064(2) 0.5293(10)
H3 H 0.1140 0.2187 0.5288
C7 C 0.0074(8) 0.1594(2) 0.5315(10)
H4 H 0.0883 0.1407 0.5322
C11 C 0.0616(9) 0.3539(3) 0.5090(11)
H7 H 0.1454 0.3673 0.4887
C12 C 0.0480(9) 0.3071(2) 0.4996(10)
H8 H 0.1214 0.2893 0.4736
H10 H 0.0038 0.4439 0.4587
C14 C 0.1309(8) 0.4417(2) 0.7321(10)
O3 O 0.1424(5) 0.48419(16) 0.7738(6)
O4 O 0.2177(5) 0.41092(17) 0.8077(7)
Cu3 Cu 0.33093(8) 0.00164(3) 0.48481(10)
Cu5 Cu 0.33093(8) 0.49836(3) 0.98481(10)
N9 N 0.2120(6) 0.01104(19) 0.6510(8)
N10 N 0.2385(7) 0.0406(3) 0.7646(12)
N11 N 0.2669(10) 0.0712(4) 0.8756(14)
N14 N 0.5351(6) 0.0010(2) 0.6728(8)
O9 O 0.1424(5) 0.01581(16) 0.2738(6)
Cu1_2 Cu -0.0000 1.0000 0.5000
C15 C 0.1491(8) 0.9118(2) 0.4683(9)
C16 C 0.1269(8) 0.8601(2) 0.4673(9)
C17 C 0.2458(9) 0.8309(2) 0.4676(11)
H11 H 0.3370 0.8432 0.4649
C18 C 0.2289(9) 0.7839(2) 0.4718(12)
H12 H 0.3104 0.7652 0.4744
C19 C 0.0951(8) 0.7634(2) 0.4723(9)
C22 C 0.0773(8) 0.7137(2) 0.4703(9)
C23 C 0.1862(8) 0.6841(2) 0.4404(11)
H15 H 0.2745 0.6964 0.4282
C24 C 0.1647(9) 0.6371(2) 0.4287(11)
H16 H 0.2359 0.6182 0.4034
C27 C 0.0098(8) 0.5685(2) 0.4307(10)
H19 H 0.0964 0.5534 0.4119
N8 N 0.0396(7) 0.61860(18) 0.4542(8)
N13 N 0.4649(6) 0.9990(2) 0.3272(8)
O5 O 0.0389(5) 0.93433(15) 0.4884(7)
O6 O 0.2667(6) 0.92753(15) 0.4518(7)
Cu1_3 Cu 1.0000 0.0000 0.5000
C1 C 0.8509(8) 0.0882(2) 0.5317(9)
C2 C 0.8731(8) 0.1399(2) 0.5327(9)
C3 C 0.7542(9) 0.1691(2) 0.5324(11)
H1 H 0.6630 0.1568 0.5351
C4 C 0.7711(9) 0.2161(2) 0.5282(12)
H2 H 0.6896 0.2348 0.5256
C5 C 0.9049(8) 0.2366(2) 0.5277(9)
C8 C 0.9227(8) 0.2863(2) 0.5297(9)
C9 C 0.8138(8) 0.3159(2) 0.5596(11)
H5 H 0.7255 0.3036 0.5718
C10 C 0.8353(9) 0.3629(2) 0.5713(11)
H6 H 0.7641 0.3818 0.5966
C13 C 0.9902(8) 0.4315(2) 0.5693(10)
H9 H 0.9036 0.4466 0.5881
N1 N 0.9604(7) 0.38140(18) 0.5458(8)
N6 N 0.5775(7) 0.0199(2) 0.8181(10)
N7 N 0.6185(8) 0.0370(3) 0.9586(10)
O1 O 0.9611(5) 0.06567(15) 0.5116(7)
O2 O 0.7333(6) 0.07247(15) 0.5482(7)
Cu1_4 Cu 1.0000 1.0000 0.5000
Cu2 Cu 0.66907(8) 0.99836(3) 0.51519(10)
N2 N 0.7880(6) 0.98896(19) 0.3490(8)
N3 N 0.7615(7) 0.9594(3) 0.2354(12)
N4 N 0.7331(10) 0.9288(4) 0.1244(14)
Cu6 Cu 0.66907(8) 0.50164(3) 0.01519(10)
C20 C 0.9779(8) 0.7936(2) 0.4707(10)
H13 H 0.8860 0.7813 0.4712
C21 C 0.9926(8) 0.8406(2) 0.4685(10)
H14 H 0.9117 0.8593 0.4678
C25 C 0.9384(9) 0.6461(3) 0.4910(11)
H17 H 0.8546 0.6327 0.5113
C26 C 0.9520(9) 0.6929(2) 0.5004(10)
H18 H 0.8786 0.7107 0.5264
H20 H 0.9962 0.5561 0.5413
C28 C 0.8691(8) 0.5583(2) 0.2679(10)
N15 N 0.4225(7) 0.9801(2) 0.1819(10)
N16 N 0.3815(8) 0.9630(3) 0.0414(10)
O7 O 0.8576(5) 0.51581(16) 0.2262(6)
O8 O 0.8576(5) 0.98419(16) 0.7262(6)
O10 O 0.7823(5) 0.58908(17) 0.1923(7)
Cu1_5 Cu 0.0000 0.5000 0.0000
N2_2 N 0.2120(6) 0.48896(19) 0.1510(8)
N3_2 N 0.2385(7) 0.4594(3) 0.2646(12)
N4_2 N 0.2669(10) 0.4288(4) 0.3756(14)
C20_2 C 0.0221(8) 0.2936(2) 0.0293(10)
H13_2 H 0.1140 0.2813 0.0288
C21_2 C 0.0074(8) 0.3406(2) 0.0315(10)
H14_2 H 0.0883 0.3593 0.0322
C25_2 C 0.0616(9) 0.1461(3) 0.0090(11)
C28_2 C 0.1309(8) 0.0583(2) 0.2321(10)
N12 N 0.5351(6) 0.4990(2) 0.1728(8)
N15_2 N 0.5775(7) 0.4801(2) 0.3181(10)
N16_2 N 0.6185(8) 0.4630(3) 0.4586(10)
O10_2 O 0.2177(5) 0.08908(17) 0.3077(7)
Cu1_6 Cu 0.0000 0.5000 1.0000
C1_2 C 0.1491(8) 0.5882(2) 0.9683(9)
C2_2 C 0.1269(8) 0.6399(2) 0.9673(9)
C3_2 C 0.2458(9) 0.6691(2) 0.9676(11)
H1_2 H 0.3370 0.6568 0.9649
C4_2 C 0.2289(9) 0.7161(2) 0.9718(12)
H2_2 H 0.3104 0.7348 0.9744
C5_2 C 0.0951(8) 0.7366(2) 0.9723(9)
C8_2 C 0.0773(8) 0.7863(2) 0.9703(9)
C9_2 C 0.1862(8) 0.8159(2) 0.9404(11)
H5_2 H 0.2745 0.8036 0.9282
C10_2 C 0.1647(9) 0.8629(2) 0.9287(11)
H6_2 H 0.2359 0.8818 0.9034
C13_2 C 0.0098(8) 0.9315(2) 0.9307(10)
H9_2 H 0.0964 0.9466 0.9119
N1_2 N 0.0396(7) 0.88140(18) 0.9542(8)
N5 N 0.4649(6) 0.5010(2) 0.8272(8)
N6_2 N 0.4225(7) 0.5199(2) 0.6819(10)
N7_2 N 0.3815(8) 0.5370(3) 0.5414(10)
O1_2 O 0.0389(5) 0.56567(15) 0.9884(7)
O2_2 O 0.2667(6) 0.57247(15) 0.9518(7)
H17_2 H 0.1454 0.1327 0.9887
C26_2 C 0.0480(9) 0.1929(2) 0.9996(10)
H18_2 H 0.1214 0.2107 0.9736
H20_2 H 0.0038 0.0561 0.9587
Cu1_7 Cu 1.0000 0.5000 0.0000
H7_2 H 0.8546 0.8673 0.0113
C12_2 C 0.9520(9) 0.8071(2) 0.0004(10)
H8_2 H 0.8786 0.7893 0.0264
H10_2 H 0.9962 0.9439 0.0413
C15_2 C 0.8509(8) 0.4118(2) 0.0317(9)
C16_2 C 0.8731(8) 0.3601(2) 0.0327(9)
C17_2 C 0.7542(9) 0.3309(2) 0.0324(11)
H11_2 H 0.6630 0.3432 0.0351
C18_2 C 0.7711(9) 0.2839(2) 0.0282(12)
H12_2 H 0.6896 0.2652 0.0256
C19_2 C 0.9049(8) 0.2634(2) 0.0277(9)
C22_2 C 0.9227(8) 0.2137(2) 0.0297(9)
C23_2 C 0.8138(8) 0.1841(2) 0.0596(11)
H15_2 H 0.7255 0.1964 0.0718
C24_2 C 0.8353(9) 0.1371(2) 0.0713(11)
H16_2 H 0.7641 0.1182 0.0966
C27_2 C 0.9902(8) 0.0685(2) 0.0693(10)
H19_2 H 0.9036 0.0534 0.0881
N8_2 N 0.9604(7) 0.11860(18) 0.0458(8)
O5_2 O 0.9611(5) 0.43433(15) 0.0116(7)
O6_2 O 0.7333(6) 0.42753(15) 0.0482(7)
Cu1_8 Cu 1.0000 0.5000 1.0000
C6_2 C 0.9779(8) 0.7064(2) 0.9707(10)
H3_2 H 0.8860 0.7187 0.9712
C7_2 C 0.9926(8) 0.6594(2) 0.9685(10)
H4_2 H 0.9117 0.6407 0.9678
C11_2 C 0.9384(9) 0.8539(3) 0.9910(11)
C14_2 C 0.8691(8) 0.9417(2) 0.7679(10)
O4_2 O 0.7823(5) 0.91092(17) 0.6923(7)
N9_2 N 0.7880(6) 0.51104(19) 0.8490(8)
N10_2 N 0.7615(7) 0.5406(3) 0.7354(12)
N11_2 N 0.7331(10) 0.5712(4) 0.6244(14)
loop_
_geom_bond_atom_site_label_1
_geom_bond_atom_site_label_2
_geom_bond_site_symmetry_1
_geom_bond_site_symmetry_2
H3 C6 1_555 1_555
H4 C7 1_555 1_555
C11 H7 1_555 1_555
H8 C12 1_555 1_555
O3 C14 1_555 1_555
O4 C14 1_555 1_555
Cu3 N9 1_555 1_555
Cu5 O3 1_555 1_555
N9 Cu1 1_555 1_555
N10 N9 1_555 1_555
N11 N10 1_555 1_555
N14 Cu3 1_555 1_555
O9 Cu3 1_555 1_555
C6 C7 1_555 1_555
C11 C12 1_555 1_555
C15 C16 1_555 1_555
C16 C17 1_555 1_555
C17 H11 1_555 1_555
C18 C17 1_555 1_555
H12 C18 1_555 1_555
C19 C18 1_555 1_555
C22 C19 1_555 1_555
C23 C22 1_555 1_555
H15 C23 1_555 1_555
C24 C23 1_555 1_555
H16 C24 1_555 1_555
C27 H19 1_555 1_555
N8 C24 1_555 1_555
O5 Cu1_2 1_555 1_555
C15 O5 1_555 1_555
C15 O6 1_555 1_555
C27 N8 1_555 1_555
C1 C2 1_555 1_555
C2 C3 1_555 1_555
C3 H1 1_555 1_555
C4 C3 1_555 1_555
H2 C4 1_555 1_555
C5 C4 1_555 1_555
C8 C5 1_555 1_555
C9 C8 1_555 1_555
H5 C9 1_555 1_555
C10 C9 1_555 1_555
H6 C10 1_555 1_555
C13 H9 1_555 1_555
N1 C10 1_555 1_555
N6 N14 1_555 1_555
N7 N6 1_555 1_555
O1 Cu1_3 1_555 1_555
C1 O1 1_555 1_555
C1 O2 1_555 1_555
C13 N1 1_555 1_555
Cu1_4 N2 1_555 1_555
Cu2 N2 1_555 1_555
N2 N3 1_555 1_555
N3 N4 1_555 1_555
Cu6 O7 1_555 1_555
H13 C20 1_555 1_555
H14 C21 1_555 1_555
C25 H17 1_555 1_555
H18 C26 1_555 1_555
N13 Cu2 1_555 1_555
N15 N13 1_555 1_555
N16 N15 1_555 1_555
O7 C28 1_555 1_555
O8 Cu2 1_555 1_555
O10 C28 1_555 1_555
C20 C21 1_555 1_555
C25 C26 1_555 1_555
Cu1_5 N2_2 1_555 1_555
N2_2 N3_2 1_555 1_555
N3_2 N4_2 1_555 1_555
H13_2 C20_2 1_555 1_555
H14_2 C21_2 1_555 1_555
N15_2 N12 1_555 1_555
N16_2 N15_2 1_555 1_555
O9 C28_2 1_555 1_555
O10_2 C28_2 1_555 1_555
Cu6 N12 1_555 1_555
C20_2 C21_2 1_555 1_555
C1_2 C2_2 1_555 1_555
C2_2 C3_2 1_555 1_555
C3_2 H1_2 1_555 1_555
C4_2 C3_2 1_555 1_555
H2_2 C4_2 1_555 1_555
C5_2 C4_2 1_555 1_555
C8_2 C5_2 1_555 1_555
C9_2 C8_2 1_555 1_555
H5_2 C9_2 1_555 1_555
C10_2 C9_2 1_555 1_555
H6_2 C10_2 1_555 1_555
C13_2 H9_2 1_555 1_555
N1_2 C10_2 1_555 1_555
N5 Cu5 1_555 1_555
N6_2 N5 1_555 1_555
N7_2 N6_2 1_555 1_555
O1_2 Cu1_6 1_555 1_555
O2_2 Cu5 1_555 1_555
H18_2 C26_2 1_555 1_555
C1_2 O1_2 1_555 1_555
C1_2 O2_2 1_555 1_555
C13_2 N1_2 1_555 1_555
H8_2 C12_2 1_555 1_555
C15_2 C16_2 1_555 1_555
C16_2 C17_2 1_555 1_555
C17_2 H11_2 1_555 1_555
C18_2 C17_2 1_555 1_555
H12_2 C18_2 1_555 1_555
C19_2 C18_2 1_555 1_555
C22_2 C19_2 1_555 1_555
C23_2 C22_2 1_555 1_555
H15_2 C23_2 1_555 1_555
C24_2 C23_2 1_555 1_555
H16_2 C24_2 1_555 1_555
C27_2 H19_2 1_555 1_555
N8_2 C24_2 1_555 1_555
O5_2 Cu1_7 1_555 1_555
O6_2 Cu6 1_555 1_555
C15_2 O5_2 1_555 1_555
C15_2 O6_2 1_555 1_555
C27_2 N8_2 1_555 1_555
H3_2 C6_2 1_555 1_555
H4_2 C7_2 1_555 1_555
O8 C14_2 1_555 1_555
O4_2 C14_2 1_555 1_555
N9_2 Cu1_8 1_555 1_555
N10_2 N9_2 1_555 1_555
N11_2 N10_2 1_555 1_555
C6_2 C7_2 1_555 1_555

#END
