
###############################################################################
#
# This file contains modified crystal structure data generated from the
# MOF subset of the Cambridge Structural Database (CSD) v543 
# hosted by the Cambridge Crystallographic Data Centre (CCDC).
#
# This work is licensed under the Creative Commons
# Attribution-NonCommercial-ShareAlike 4.0 International License.
# To view a copy of this license, visit
# http://creativecommons.org/licenses/by-nc-sa/4.0/
# or send a letter to
# Creative Commons, PO Box 1866, Mountain View, CA 94042, USA.
#
# CIF created using the CSD Python API on 29 September 2022
# The structure has been converted into the P1 space group
# The structure has a 3D framework
# The original CSD entry XEKMIL is in the monoclinic crystal system
# The framework has been calculated to contain at least 10.0% void space
# The void calculation uses a probe of radius 1.32A, grid spacing 0.4
#
###############################################################################

data_XEKMIL
_chemical_formula_moiety         '(C56 H56 Eu8 N16 O60)n'
_symmetry_cell_setting           triclinic
_symmetry_space_group_name_H-M   'P 1'
_symmetry_Int_Tables_number      1
_space_group_name_Hall           'P 1'
loop_
_symmetry_equiv_pos_site_id
_symmetry_equiv_pos_as_xyz
1 x,y,z
_cell_length_a                   10.2370(9)
_cell_length_b                   11.2579(9)
_cell_length_c                   22.1898(19)
_cell_angle_alpha                90
_cell_angle_beta                 97.2700(10)
_cell_angle_gamma                90
_cell_volume                     2536.75
loop_
_atom_site_label
_atom_site_type_symbol
_atom_site_fract_x
_atom_site_fract_y
_atom_site_fract_z
Eu4 Eu 0.110285(18) 0.815483(16) 0.225881(8)
Eu1 Eu 0.389715(18) 0.315483(16) 0.274119(8)
Eu2 Eu 0.259420(19) 0.410250(19) 0.564080(9)
O1 O 0.4023(3) 0.3246(2) 0.38353(12)
O2 O 0.3200(3) 0.3727(3) 0.46744(13)
O3 O 0.0600(3) 0.3621(3) 0.50070(13)
O7 O 0.6245(4) 0.1675(3) 0.13079(14)
O8 O 0.4756(3) 0.2475(3) 0.18180(13)
O9 O 0.1573(3) 0.6161(3) 0.18437(13)
O10 O 0.2711(3) 0.4471(2) 0.19920(13)
O11 O 0.3667(3) 0.5226(2) 0.31152(13)
O12 O 0.2690(3) 0.6980(2) 0.29178(13)
O13 O 0.3941(3) 0.5749(3) 0.53460(15)
H1 H 0.4448 0.6250 0.5544
H2 H 0.3375 0.6045 0.5074
O14 O 0.4829(3) 0.3535(4) 0.59781(17)
H3 H 0.5221 0.3973 0.6257
H4 H 0.5192 0.2856 0.5981
O15 O 0.2718(4) 0.1922(3) 0.5570(2)
H5 H 0.2989 0.1443 0.5317
H6 H 0.2081 0.1552 0.5695
N1 N 0.1630(3) 0.3407(3) 0.31367(15)
N3 N 0.6086(4) 0.1896(3) 0.29105(16)
N4 N 0.7815(4) 0.0741(3) 0.31423(16)
H8 H 0.8436 0.0357 0.3356
C1 C 0.1732(4) 0.3521(4) 0.37611(18)
C2 C 0.0502(4) 0.3712(4) 0.39360(18)
C3 C 0.0360(4) 0.3533(4) 0.29315(19)
C4 C 0.3065(4) 0.3490(4) 0.41183(18)
H11 H 0.0150 0.2869 0.2078
C7 C 0.7592(4) 0.0768(4) 0.25153(19)
C8 C 0.6523(4) 0.1498(4) 0.23800(18)
C9 C 0.6901(4) 0.1416(4) 0.33643(19)
C11 C 0.5811(4) 0.1902(4) 0.17920(19)
C12 C 0.6823(6) 0.1547(5) 0.4026(2)
H12 H 0.7216 0.2288 0.4167
H13 H 0.7285 0.0904 0.4243
H14 H 0.5917 0.1536 0.4097
C13 C 0.2358(4) 0.5481(4) 0.21492(18)
C14 C 0.2951(4) 0.5932(4) 0.27846(19)
Eu6 Eu 0.759420(19) 0.089750(19) 0.064080(9)
O16 O 0.1261(3) 0.5837(3) 0.55438(15)
O17 O 0.5699(3) 0.4428(3) 0.25146(13)
O18 O 0.3150(3) 0.5113(3) 0.65994(13)
O19 O 0.1245(4) 0.3325(3) 0.63079(14)
O20 O 0.3427(3) 0.1161(3) 0.31563(13)
O21 O 0.2310(3) 0.1980(2) 0.20822(13)
O5 O 0.9301(3) 0.9428(3) 0.24854(13)
O6 O 0.8150(3) 0.9887(3) 0.15994(13)
C10 C 0.8423(4) 0.9985(4) 0.21652(19)
O4 O 0.8739(3) 0.4163(3) 0.44562(15)
N2 N 0.9654(3) 0.3712(3) 0.34009(16)
H7 H 0.8815 0.3810 0.3370
C5 C 0.9929(4) 0.3856(4) 0.45118(19)
C6 C 0.9741(5) 0.3484(5) 0.2288(2)
H9 H 0.9854 0.4234 0.2095
H10 H 0.8818 0.3317 0.2275
Eu5 Eu 0.740580(19) 0.589750(19) 0.435920(9)
O11_2 O 0.1333(3) 0.0226(2) 0.18848(13)
C13_2 C 0.2642(4) 0.0481(4) 0.28508(18)
C14_2 C 0.2049(4) 0.0932(4) 0.22154(19)
O13_2 O 0.1059(3) 0.0749(3) 0.96540(15)
H1_2 H 0.0552 0.1250 0.9456
H2_2 H 0.1625 0.1045 0.9926
O16_2 O 0.3739(3) 0.0837(3) 0.94562(15)
O18_2 O 0.1850(3) 0.0113(3) 0.84006(13)
O1_2 O 0.0977(3) 0.8246(2) 0.11647(12)
O2_2 O 0.1800(3) 0.8727(3) 0.03256(13)
O4_2 O 0.6261(3) 0.9163(3) 0.05438(15)
O8_2 O 0.0244(3) 0.7475(3) 0.31820(13)
O10_2 O 0.2289(3) 0.9471(2) 0.30080(13)
N1_2 N 0.3370(3) 0.8407(3) 0.18633(15)
N2_2 N 0.5346(3) 0.8712(3) 0.15991(16)
H7_2 H 0.6185 0.8810 0.1630
C1_2 C 0.3268(4) 0.8521(4) 0.12389(18)
C2_2 C 0.4498(4) 0.8712(4) 0.10640(18)
C3_2 C 0.4640(4) 0.8533(4) 0.20685(19)
C4_2 C 0.1935(4) 0.8490(4) 0.08817(18)
C5_2 C 0.5071(4) 0.8856(4) 0.04882(19)
C6_2 C 0.5259(5) 0.8484(5) 0.2712(2)
H9_2 H 0.5146 0.9234 0.2905
H10_2 H 0.6182 0.8317 0.2725
H11_2 H 0.4850 0.7869 0.2922
Eu2_2 Eu 0.240580(19) 0.910250(19) 0.935920(9)
O3_2 O 0.4400(3) 0.8621(3) 0.99930(13)
O14_2 O 0.0171(3) 0.8535(4) 0.90219(17)
O15_2 O 0.2282(4) 0.6922(3) 0.9430(2)
H5_2 H 0.2011 0.6443 0.9683
H6_2 H 0.2919 0.6552 0.9305
O19_2 O 0.3755(4) 0.8325(3) 0.86921(14)
O6_2 O 0.6850(3) 0.4887(3) 0.34006(13)
O7_2 O 0.8755(4) 0.6675(3) 0.36921(14)
N3_2 N 0.8914(4) 0.6896(3) 0.20895(16)
N4_2 N 0.7185(4) 0.5741(3) 0.18577(16)
H8_2 H 0.6564 0.5357 0.1644
C7_2 C 0.7408(4) 0.5768(4) 0.24847(19)
C8_2 C 0.8477(4) 0.6498(4) 0.26200(18)
C9_2 C 0.8099(4) 0.6416(4) 0.16357(19)
C10_2 C 0.6577(4) 0.4985(4) 0.28348(19)
C11_2 C 0.9189(4) 0.6902(4) 0.32080(19)
C12_2 C 0.8177(6) 0.6547(5) 0.0974(2)
H12_2 H 0.7784 0.7288 0.0833
H13_2 H 0.7715 0.5904 0.0757
H14_2 H 0.9083 0.6536 0.0903
N2_3 N 0.0346(3) 0.6288(3) 0.65991(16)
H7_3 H 0.1185 0.6190 0.6630
C5_3 C 0.0071(4) 0.6144(4) 0.54882(19)
C6_3 C 0.0259(5) 0.6516(5) 0.7712(2)
H9_3 H 0.0146 0.5766 0.7905
H10_3 H 0.1182 0.6683 0.7725
O5_2 O 0.0699(3) 0.0572(3) 0.75146(13)
C10_3 C 0.1577(4) 0.0015(4) 0.78348(19)
Eu1_2 Eu 0.610285(18) 0.684517(16) 0.725881(8)
O1_3 O 0.5977(3) 0.6754(2) 0.61647(12)
O2_3 O 0.6800(3) 0.6273(3) 0.53256(13)
O3_3 O 0.9400(3) 0.6379(3) 0.49930(13)
O8_3 O 0.5244(3) 0.7525(3) 0.81820(13)
O9_2 O 0.8427(3) 0.3839(3) 0.81563(13)
O10_3 O 0.7289(3) 0.5529(2) 0.80080(13)
O11_3 O 0.6333(3) 0.4774(2) 0.68848(13)
O12_2 O 0.7310(3) 0.3020(2) 0.70822(13)
O13_3 O 0.6059(3) 0.4251(3) 0.46540(15)
H1_3 H 0.5552 0.3750 0.4456
H2_3 H 0.6625 0.3955 0.4926
O14_3 O 0.5171(3) 0.6465(4) 0.40219(17)
H3_2 H 0.4779 0.6027 0.3743
H4_2 H 0.4808 0.7144 0.4019
O15_3 O 0.7282(4) 0.8078(3) 0.4430(2)
H5_3 H 0.7011 0.8557 0.4683
H6_3 H 0.7919 0.8448 0.4305
N1_3 N 0.8370(3) 0.6593(3) 0.68633(15)
N3_3 N 0.3914(4) 0.8104(3) 0.70895(16)
N4_3 N 0.2185(4) 0.9259(3) 0.68577(16)
H8_3 H 0.1564 0.9643 0.6644
C1_3 C 0.8268(4) 0.6479(4) 0.62389(18)
C2_3 C 0.9498(4) 0.6288(4) 0.60640(18)
C3_3 C 0.9640(4) 0.6467(4) 0.70685(19)
C4_3 C 0.6935(4) 0.6510(4) 0.58817(18)
H11_3 H 0.9850 0.7131 0.7922
C7_3 C 0.2408(4) 0.9232(4) 0.74847(19)
C8_3 C 0.3477(4) 0.8502(4) 0.76200(18)
C9_3 C 0.3099(4) 0.8584(4) 0.66357(19)
C11_3 C 0.4189(4) 0.8098(4) 0.82080(19)
C12_3 C 0.3177(6) 0.8453(5) 0.5974(2)
H12_3 H 0.2784 0.7712 0.5833
H13_3 H 0.2715 0.9096 0.5757
H14_3 H 0.4083 0.8464 0.5903
C13_3 C 0.7642(4) 0.4519(4) 0.78508(18)
C14_3 C 0.7049(4) 0.4068(4) 0.72154(19)
Eu3 Eu 0.889715(18) 0.184517(16) 0.774119(8)
O17_2 O 0.4301(3) 0.5572(3) 0.74854(13)
O20_2 O 0.6573(3) 0.8839(3) 0.68437(13)
O21_2 O 0.7690(3) 0.8020(2) 0.79178(13)
N3_4 N 0.1086(4) 0.3104(3) 0.79105(16)
N4_4 N 0.2815(4) 0.4259(3) 0.81423(16)
H8_4 H 0.3436 0.4643 0.8356
C7_4 C 0.2592(4) 0.4232(4) 0.75153(19)
C8_4 C 0.1523(4) 0.3502(4) 0.73800(18)
C9_4 C 0.1901(4) 0.3584(4) 0.83643(19)
C10_4 C 0.3423(4) 0.5015(4) 0.71652(19)
C11_4 C 0.0811(4) 0.3098(4) 0.67920(19)
C12_4 C 0.1823(6) 0.3453(5) 0.9026(2)
H12_4 H 0.2216 0.2712 0.9167
H13_4 H 0.2285 0.4096 0.9243
H14_4 H 0.0917 0.3464 0.9097
O3_4 O 0.5600(3) 0.1379(3) 0.00070(13)
O14_4 O 0.9829(3) 0.1465(4) 0.09781(17)
O15_4 O 0.7718(4) 0.3078(3) 0.0570(2)
H5_4 H 0.7989 0.3557 0.0317
H6_4 H 0.7081 0.3448 0.0695
O1_4 O 0.9023(3) 0.1754(2) 0.88353(12)
O2_4 O 0.8200(3) 0.1273(3) 0.96744(13)
O8_4 O 0.9756(3) 0.2525(3) 0.68180(13)
O10_4 O 0.7711(3) 0.0529(2) 0.69920(13)
N1_4 N 0.6630(3) 0.1593(3) 0.81367(15)
N2_4 N 0.4654(3) 0.1288(3) 0.84009(16)
H7_4 H 0.3815 0.1190 0.8370
C1_4 C 0.6732(4) 0.1479(4) 0.87611(18)
C2_4 C 0.5502(4) 0.1288(4) 0.89360(18)
C3_4 C 0.5360(4) 0.1467(4) 0.79315(19)
C4_4 C 0.8065(4) 0.1510(4) 0.91183(18)
C5_4 C 0.4929(4) 0.1144(4) 0.95118(19)
C6_4 C 0.4741(5) 0.1516(5) 0.7288(2)
H9_4 H 0.4854 0.0766 0.7095
H10_4 H 0.3818 0.1683 0.7275
H11_4 H 0.5150 0.2131 0.7078
O13_4 O 0.8941(3) 0.9251(3) 0.03460(15)
H1_4 H 0.9448 0.8750 0.0544
H2_4 H 0.8375 0.8955 0.0074
O11_4 O 0.8667(3) 0.9774(2) 0.81152(13)
C13_4 C 0.7358(4) 0.9519(4) 0.71492(18)
C14_4 C 0.7951(4) 0.9068(4) 0.77846(19)
H3_3 H 0.9779 0.8973 0.8743
H4_3 H 0.9808 0.7856 0.9019
H3_4 H 0.0221 0.1027 0.1257
H4_4 H 0.0192 0.2144 0.0981
loop_
_geom_bond_atom_site_label_1
_geom_bond_atom_site_label_2
_geom_bond_site_symmetry_1
_geom_bond_site_symmetry_2
Eu1 O1 1_555 1_555
Eu2 O2 1_555 1_555
O1 C4 1_555 1_555
O2 C4 1_555 1_555
O3 Eu2 1_555 1_555
O7 C11 1_555 1_555
O8 Eu1 1_555 1_555
O9 C13 1_555 1_555
O10 Eu1 1_555 1_555
O11 Eu1 1_555 1_555
O12 C14 1_555 1_555
O13 Eu2 1_555 1_555
H1 O13 1_555 1_555
H2 O13 1_555 1_555
O14 Eu2 1_555 1_555
H3 O14 1_555 1_555
H4 O14 1_555 1_555
O15 Eu2 1_555 1_555
H5 O15 1_555 1_555
H6 O15 1_555 1_555
N1 Eu1 1_555 1_555
N3 Eu1 1_555 1_555
N4 H8 1_555 1_555
C1 N1 1_555 1_555
C3 N1 1_555 1_555
C4 C1 1_555 1_555
C7 N4 1_555 1_555
C8 N3 1_555 1_555
C9 N3 1_555 1_555
C11 O8 1_555 1_555
C12 C9 1_555 1_555
H12 C12 1_555 1_555
H13 C12 1_555 1_555
H14 C12 1_555 1_555
C13 O10 1_555 1_555
C14 O11 1_555 1_555
Eu4 O9 1_555 1_555
O16 Eu2 1_555 1_555
O17 Eu1 1_555 1_555
O18 Eu2 1_555 1_555
O19 Eu2 1_555 1_555
O20 Eu1 1_555 1_555
O21 Eu1 1_555 1_555
O7 Eu6 1_555 1_555
O12 Eu4 1_555 1_555
N4 C9 1_555 1_555
C1 C2 1_555 1_555
C7 C8 1_555 1_555
C8 C11 1_555 1_555
C13 C14 1_555 1_555
O5 C10 1_555 1_555
O6 C10 1_555 1_555
O4 C5 1_555 1_555
N2 H7 1_555 1_555
H9 C6 1_555 1_555
H10 C6 1_555 1_555
Eu5 O4 1_555 1_555
O20 C13_2 1_555 1_555
O21 C14_2 1_555 1_555
C14_2 O11_2 1_555 1_555
C13_2 C14_2 1_555 1_555
H1_2 O13_2 1_555 1_555
H2_2 O13_2 1_555 1_555
Eu4 O1_2 1_555 1_555
O1_2 C4_2 1_555 1_555
O2_2 C4_2 1_555 1_555
O4_2 C5_2 1_555 1_555
O8_2 Eu4 1_555 1_555
O10_2 Eu4 1_555 1_555
N1_2 Eu4 1_555 1_555
N2_2 H7_2 1_555 1_555
C1_2 N1_2 1_555 1_555
C2_2 N2_2 1_555 1_555
C3_2 N1_2 1_555 1_555
C4_2 C1_2 1_555 1_555
C6_2 C3_2 1_555 1_555
H9_2 C6_2 1_555 1_555
H10_2 C6_2 1_555 1_555
H11_2 C6_2 1_555 1_555
N2_2 C3_2 1_555 1_555
C1_2 C2_2 1_555 1_555
C2_2 C5_2 1_555 1_555
O3_2 Eu2_2 1_555 1_555
O14_2 Eu2_2 1_555 1_555
O15_2 Eu2_2 1_555 1_555
H5_2 O15_2 1_555 1_555
H6_2 O15_2 1_555 1_555
O19_2 Eu2_2 1_555 1_555
O17 C10_2 1_555 1_555
O6_2 C10_2 1_555 1_555
O7_2 C11_2 1_555 1_555
N4_2 H8_2 1_555 1_555
C7_2 N4_2 1_555 1_555
C8_2 N3_2 1_555 1_555
C9_2 N3_2 1_555 1_555
C10_2 C7_2 1_555 1_555
C12_2 C9_2 1_555 1_555
H12_2 C12_2 1_555 1_555
H13_2 C12_2 1_555 1_555
H14_2 C12_2 1_555 1_555
Eu5 O6_2 1_555 1_555
O7_2 Eu5 1_555 1_555
N4_2 C9_2 1_555 1_555
C7_2 C8_2 1_555 1_555
C8_2 C11_2 1_555 1_555
O16 C5_3 1_555 1_555
N2_3 H7_3 1_555 1_555
H9_3 C6_3 1_555 1_555
H10_3 C6_3 1_555 1_555
O5_2 C10_3 1_555 1_555
O18_2 C10_3 1_555 1_555
Eu1_2 O1_3 1_555 1_555
Eu5 O2_3 1_555 1_555
O1_3 C4_3 1_555 1_555
O2_3 C4_3 1_555 1_555
O3_3 Eu5 1_555 1_555
O19_2 C11_3 1_555 1_555
O8_3 Eu1_2 1_555 1_555
O9_2 C13_3 1_555 1_555
O10_3 Eu1_2 1_555 1_555
O11_3 Eu1_2 1_555 1_555
O12_2 C14_3 1_555 1_555
O13_3 Eu5 1_555 1_555
H1_3 O13_3 1_555 1_555
H2_3 O13_3 1_555 1_555
O14_3 Eu5 1_555 1_555
H3_2 O14_3 1_555 1_555
H4_2 O14_3 1_555 1_555
O15_3 Eu5 1_555 1_555
H5_3 O15_3 1_555 1_555
H6_3 O15_3 1_555 1_555
N1_3 Eu1_2 1_555 1_555
N3_3 Eu1_2 1_555 1_555
N4_3 H8_3 1_555 1_555
C1_3 N1_3 1_555 1_555
C3_3 N1_3 1_555 1_555
C4_3 C1_3 1_555 1_555
C7_3 N4_3 1_555 1_555
C8_3 N3_3 1_555 1_555
C9_3 N3_3 1_555 1_555
C11_3 O8_3 1_555 1_555
C12_3 C9_3 1_555 1_555
H12_3 C12_3 1_555 1_555
H13_3 C12_3 1_555 1_555
H14_3 C12_3 1_555 1_555
C13_3 O10_3 1_555 1_555
C14_3 O11_3 1_555 1_555
Eu3 O9_2 1_555 1_555
O17_2 Eu1_2 1_555 1_555
O20_2 Eu1_2 1_555 1_555
O21_2 Eu1_2 1_555 1_555
O12_2 Eu3 1_555 1_555
N4_3 C9_3 1_555 1_555
C1_3 C2_3 1_555 1_555
C7_3 C8_3 1_555 1_555
C8_3 C11_3 1_555 1_555
C13_3 C14_3 1_555 1_555
O17_2 C10_4 1_555 1_555
O18 C10_4 1_555 1_555
O19 C11_4 1_555 1_555
N4_4 H8_4 1_555 1_555
C7_4 N4_4 1_555 1_555
C8_4 N3_4 1_555 1_555
C9_4 N3_4 1_555 1_555
C10_4 C7_4 1_555 1_555
C12_4 C9_4 1_555 1_555
H12_4 C12_4 1_555 1_555
H13_4 C12_4 1_555 1_555
H14_4 C12_4 1_555 1_555
N4_4 C9_4 1_555 1_555
C7_4 C8_4 1_555 1_555
C8_4 C11_4 1_555 1_555
O3_4 Eu6 1_555 1_555
O14_4 Eu6 1_555 1_555
O15_4 Eu6 1_555 1_555
H5_4 O15_4 1_555 1_555
H6_4 O15_4 1_555 1_555
Eu3 O1_4 1_555 1_555
O1_4 C4_4 1_555 1_555
O2_4 C4_4 1_555 1_555
O16_2 C5_4 1_555 1_555
O8_4 Eu3 1_555 1_555
O10_4 Eu3 1_555 1_555
N1_4 Eu3 1_555 1_555
N2_4 H7_4 1_555 1_555
C1_4 N1_4 1_555 1_555
C2_4 N2_4 1_555 1_555
C3_4 N1_4 1_555 1_555
C4_4 C1_4 1_555 1_555
C6_4 C3_4 1_555 1_555
H9_4 C6_4 1_555 1_555
H10_4 C6_4 1_555 1_555
H11_4 C6_4 1_555 1_555
N2_4 C3_4 1_555 1_555
C1_4 C2_4 1_555 1_555
C2_4 C5_4 1_555 1_555
H1_4 O13_4 1_555 1_555
H2_4 O13_4 1_555 1_555
O20_2 C13_4 1_555 1_555
O21_2 C14_4 1_555 1_555
C14_4 O11_4 1_555 1_555
C13_4 C14_4 1_555 1_555

#END
