
###############################################################################
#
# This file contains modified crystal structure data generated from the
# MOF subset of the Cambridge Structural Database (CSD) v543 
# hosted by the Cambridge Crystallographic Data Centre (CCDC).
#
# This work is licensed under the Creative Commons
# Attribution-NonCommercial-ShareAlike 4.0 International License.
# To view a copy of this license, visit
# http://creativecommons.org/licenses/by-nc-sa/4.0/
# or send a letter to
# Creative Commons, PO Box 1866, Mountain View, CA 94042, USA.
#
# CIF created using the CSD Python API on 29 September 2022
# The structure has been converted into the P1 space group
# The structure has a 3D framework
# The original CSD entry XEMNUB is in the monoclinic crystal system
# The framework has been calculated to contain at least 10.0% void space
# The void calculation uses a probe of radius 1.32A, grid spacing 0.4
# H atom positions have been added when not included in the experimental data
# Generated hydrogen atom positions removed from atoms on special positions
#
###############################################################################

data_XEMNUB
_chemical_formula_moiety         '(C312 H280 N32 O88 Zn18)n'
_symmetry_cell_setting           triclinic
_symmetry_space_group_name_H-M   'P 1'
_symmetry_Int_Tables_number      1
_space_group_name_Hall           'P 1'
loop_
_symmetry_equiv_pos_site_id
_symmetry_equiv_pos_as_xyz
1 x,y,z
_cell_length_a                   19.249(3)
_cell_length_b                   18.938(3)
_cell_length_c                   25.079(4)
_cell_angle_alpha                90
_cell_angle_beta                 102.070(2)
_cell_angle_gamma                90
_cell_volume                     8940.13
loop_
_atom_site_label
_atom_site_type_symbol
_atom_site_fract_x
_atom_site_fract_y
_atom_site_fract_z
Zn1 Zn 0.0000 0.15852(4) 0.2500
C1 C 0.0635(3) 0.0819(2) 0.1926(2)
C2 C 0.0939(2) 0.0398(2) 0.1517(2)
C6 C 0.1023(3) 0.0177(3) 0.0591(2)
C7 C 0.0737(2) 0.0555(3) 0.0971(2)
H3 H 0.0410 0.0914 0.0855
O1 O 0.01659(18) 0.12791(19) 0.17517(15)
O2 O 0.0838(2) 0.0698(2) 0.24196(15)
O3 O 0.0788(2) 0.0385(2) 0.00686(15)
N6 N 0.0826(2) 0.2319(2) 0.27380(18)
Zn2 Zn 0.0000 0.17869(7) 0.7500
C14 C 0.1041(3) 0.0043(3) 0.9643(2)
H11 H 0.1556 0.0052 0.9718
C15 C 0.0748(3) 0.0426(3) 0.9128(2)
C16 C 0.0267(3) 0.0970(3) 0.9107(2)
H12 H 0.0112 0.1102 0.9420
C17 C 0.0017(4) 0.1315(3) 0.8626(2)
C18 C 0.0690(4) 0.0606(4) 0.8178(3)
H14 H 0.0835 0.0478 0.7860
C19 C 0.0941(4) 0.0233(3) 0.8645(3)
N2 N 0.0246(4) 0.1147(3) 0.8165(2)
H28 H 0.0317 0.1672 0.6385
O10 O 0.0973(7) 0.2428(5) 0.7455(4)
C3 C 0.1422(3) 0.9867(3) 0.1702(2)
H1 H 0.1551 0.9761 0.2072
C4 C 0.1713(2) 0.9492(3) 0.1320(2)
C5 C 0.1512(3) 0.9645(3) 0.0765(2)
H2 H 0.1706 0.9391 0.0513
C8 C 0.2455(3) 0.8812(3) 0.2004(3)
H4 H 0.2070 0.8615 0.2152
H5 H 0.2615 0.9242 0.2202
C9 C 0.3065(3) 0.8286(3) 0.2077(2)
C10 C 0.3548(5) 0.8278(5) 0.2538(3)
H6 H 0.3514 0.8597 0.2813
C11 C 0.4095(5) 0.7804(5) 0.2612(3)
H7 H 0.4434 0.7831 0.2935
C12 C 0.3153(4) 0.7808(5) 0.1689(3)
H8 H 0.2835 0.7802 0.1354
C13 C 0.3723(4) 0.7323(5) 0.1790(3)
H9 H 0.3779 0.7004 0.1520
N1 N 0.4174(2) 0.7319(2) 0.22620(18)
O4 O 0.2209(2) 0.8969(2) 0.14484(17)
Zn5 Zn 0.5000 0.65852(4) 0.2500
Zn1_2 Zn 1.0000 0.15852(4) 0.2500
N5 N 0.9174(2) 0.2319(2) 0.22620(18)
O11 O 0.98341(18) 0.12791(19) 0.32483(15)
O12 O 0.9162(2) 0.0698(2) 0.25804(15)
Zn2_2 Zn 1.0000 0.17869(7) 0.7500
H13 H 0.9683 0.1672 0.8615
O5 O 0.9027(7) 0.2428(5) 0.7545(4)
C20 C 0.9365(3) 0.0819(2) 0.3074(2)
C21 C 0.9061(2) 0.0398(2) 0.3483(2)
C25 C 0.8977(3) 0.0177(3) 0.4409(2)
C26 C 0.9263(2) 0.0555(3) 0.4029(2)
H18 H 0.9590 0.0914 0.4145
C33 C 0.8959(3) 0.0043(3) 0.5357(2)
H26 H 0.8444 0.0052 0.5282
C34 C 0.9252(3) 0.0426(3) 0.5872(2)
C35 C 0.9733(3) 0.0970(3) 0.5893(2)
H27 H 0.9888 0.1102 0.5580
C36 C 0.9983(4) 0.1315(3) 0.6374(2)
C37 C 0.9310(4) 0.0606(4) 0.6822(3)
H29 H 0.9165 0.0478 0.7140
C38 C 0.9059(4) 0.0233(3) 0.6355(3)
N4 N 0.9754(4) 0.1147(3) 0.6835(2)
O8 O 0.9212(2) 0.0385(2) 0.49314(15)
C22 C 0.8578(3) 0.9867(3) 0.3298(2)
H16 H 0.8449 0.9761 0.2928
C23 C 0.8287(2) 0.9492(3) 0.3680(2)
C24 C 0.8488(3) 0.9645(3) 0.4235(2)
H17 H 0.8294 0.9391 0.4487
C27 C 0.7545(3) 0.8812(3) 0.2996(3)
H19 H 0.7930 0.8615 0.2848
H20 H 0.7385 0.9242 0.2798
C28 C 0.6935(3) 0.8286(3) 0.2923(2)
C29 C 0.6452(5) 0.8278(5) 0.2462(3)
H21 H 0.6486 0.8597 0.2187
C30 C 0.5905(5) 0.7804(5) 0.2388(3)
H22 H 0.5566 0.7831 0.2065
C31 C 0.6847(4) 0.7808(5) 0.3311(3)
H23 H 0.7165 0.7802 0.3646
C32 C 0.6277(4) 0.7323(5) 0.3210(3)
H24 H 0.6221 0.7004 0.3480
H25 H 0.9114 0.9554 0.5386
H30 H 0.8760 0.9849 0.6361
N3 N 0.5826(2) 0.7319(2) 0.27380(18)
O9 O 0.7791(2) 0.8969(2) 0.35516(17)
C1_2 C 0.5635(3) 0.5819(2) 0.1926(2)
C2_2 C 0.5939(2) 0.5398(2) 0.1517(2)
C3_2 C 0.6422(3) 0.4867(3) 0.1702(2)
H1_2 H 0.6551 0.4761 0.2072
C4_2 C 0.6713(2) 0.4492(3) 0.1320(2)
C5_2 C 0.6512(3) 0.4645(3) 0.0765(2)
H2_2 H 0.6706 0.4391 0.0513
C6_2 C 0.6023(3) 0.5177(3) 0.0591(2)
C7_2 C 0.5737(2) 0.5555(3) 0.0971(2)
H3_2 H 0.5410 0.5914 0.0855
C8_2 C 0.7455(3) 0.3812(3) 0.2004(3)
H4_2 H 0.7070 0.3615 0.2152
H5_2 H 0.7615 0.4242 0.2202
C9_2 C 0.8065(3) 0.3286(3) 0.2077(2)
C10_2 C 0.8548(5) 0.3278(5) 0.2538(3)
H6_2 H 0.8514 0.3597 0.2813
C11_2 C 0.9095(5) 0.2804(5) 0.2612(3)
H7_2 H 0.9434 0.2831 0.2935
C12_2 C 0.8153(4) 0.2808(5) 0.1689(3)
H8_2 H 0.7835 0.2802 0.1354
C13_2 C 0.8723(4) 0.2323(5) 0.1790(3)
H9_2 H 0.8779 0.2004 0.1520
O1_2 O 0.51659(18) 0.62791(19) 0.17517(15)
O2_2 O 0.5838(2) 0.5698(2) 0.24196(15)
O3_2 O 0.5788(2) 0.5385(2) 0.00686(15)
O4_2 O 0.7209(2) 0.3969(2) 0.14484(17)
O11_2 O 0.48341(18) 0.62791(19) 0.32483(15)
O12_2 O 0.4162(2) 0.5698(2) 0.25804(15)
Zn2_3 Zn 0.5000 0.67869(7) 0.7500
C14_2 C 0.6041(3) 0.5043(3) 0.9643(2)
H10 H 0.5886 0.4554 0.9614
H11_2 H 0.6556 0.5052 0.9718
C15_2 C 0.5748(3) 0.5426(3) 0.9128(2)
C16_2 C 0.5267(3) 0.5970(3) 0.9107(2)
H12_2 H 0.5112 0.6102 0.9420
C17_2 C 0.5017(4) 0.6315(3) 0.8626(2)
H13_2 H 0.4683 0.6672 0.8615
C18_2 C 0.5690(4) 0.5606(4) 0.8178(3)
H14_2 H 0.5835 0.5478 0.7860
C19_2 C 0.5941(4) 0.5233(3) 0.8645(3)
H15 H 0.6240 0.4849 0.8639
N2_2 N 0.5246(4) 0.6147(3) 0.8165(2)
O5_2 O 0.4027(7) 0.7428(5) 0.7545(4)
C20_2 C 0.4365(3) 0.5819(2) 0.3074(2)
C21_2 C 0.4061(2) 0.5398(2) 0.3483(2)
C22_2 C 0.3578(3) 0.4867(3) 0.3298(2)
H16_2 H 0.3449 0.4761 0.2928
C23_2 C 0.3287(2) 0.4492(3) 0.3680(2)
C24_2 C 0.3488(3) 0.4645(3) 0.4235(2)
H17_2 H 0.3294 0.4391 0.4487
C25_2 C 0.3977(3) 0.5177(3) 0.4409(2)
C26_2 C 0.4263(2) 0.5555(3) 0.4029(2)
H18_2 H 0.4590 0.5914 0.4145
C27_2 C 0.2545(3) 0.3812(3) 0.2996(3)
H19_2 H 0.2930 0.3615 0.2848
H20_2 H 0.2385 0.4242 0.2798
C28_2 C 0.1935(3) 0.3286(3) 0.2923(2)
C29_2 C 0.1452(5) 0.3278(5) 0.2462(3)
H21_2 H 0.1486 0.3597 0.2187
C30_2 C 0.0905(5) 0.2804(5) 0.2388(3)
H22_2 H 0.0566 0.2831 0.2065
C31_2 C 0.1847(4) 0.2808(5) 0.3311(3)
H23_2 H 0.2165 0.2802 0.3646
C32_2 C 0.1277(4) 0.2323(5) 0.3210(3)
H24_2 H 0.1221 0.2004 0.3480
C33_2 C 0.3959(3) 0.5043(3) 0.5357(2)
H25_2 H 0.4114 0.4554 0.5386
H26_2 H 0.3444 0.5052 0.5282
C34_2 C 0.4252(3) 0.5426(3) 0.5872(2)
C35_2 C 0.4733(3) 0.5970(3) 0.5893(2)
H27_2 H 0.4888 0.6102 0.5580
C36_2 C 0.4983(4) 0.6315(3) 0.6374(2)
H28_2 H 0.5317 0.6672 0.6385
C37_2 C 0.4310(4) 0.5606(4) 0.6822(3)
H29_2 H 0.4165 0.5478 0.7140
C38_2 C 0.4059(4) 0.5233(3) 0.6355(3)
H30_2 H 0.3760 0.4849 0.6361
N4_2 N 0.4754(4) 0.6147(3) 0.6835(2)
O8_2 O 0.4212(2) 0.5385(2) 0.49314(15)
O9_2 O 0.2791(2) 0.3969(2) 0.35516(17)
O10_2 O 0.5973(7) 0.7428(5) 0.7455(4)
H10_2 H 0.0886 0.9554 0.9614
H15_2 H 0.1240 0.9849 0.8639
C22_3 C 0.1422(3) 0.0133(3) 0.6702(2)
H16_3 H 0.1551 0.0239 0.7072
C23_3 C 0.1713(2) 0.0508(3) 0.6320(2)
C24_3 C 0.1512(3) 0.0355(3) 0.5765(2)
H17_3 H 0.1706 0.0609 0.5513
C27_3 C 0.2455(3) 0.1188(3) 0.7004(3)
H19_3 H 0.2070 0.1385 0.7152
H20_3 H 0.2615 0.0758 0.7202
C28_3 C 0.3065(3) 0.1714(3) 0.7077(2)
C29_3 C 0.3548(5) 0.1722(5) 0.7538(3)
H21_3 H 0.3514 0.1403 0.7813
C30_3 C 0.4095(5) 0.2196(5) 0.7612(3)
H22_3 H 0.4434 0.2169 0.7935
C31_3 C 0.3153(4) 0.2192(5) 0.6689(3)
H23_3 H 0.2835 0.2198 0.6354
C32_3 C 0.3723(4) 0.2677(5) 0.6790(3)
H24_3 H 0.3779 0.2996 0.6520
H25_3 H 0.0886 0.0446 0.4614
H30_3 H 0.1240 0.0151 0.3639
N3_2 N 0.4174(2) 0.2681(2) 0.72620(18)
O9_3 O 0.2209(2) 0.1031(2) 0.64484(17)
Zn4 Zn 0.5000 0.34148(4) 0.7500
Zn2_4 Zn 0.0000 0.82131(7) 0.2500
H13_3 H 0.0317 0.8328 0.1385
O5_3 O 0.0973(7) 0.7572(5) 0.2455(4)
C20_3 C 0.0635(3) 0.9181(2) 0.6926(2)
C21_3 C 0.0939(2) 0.9602(2) 0.6517(2)
C25_3 C 0.1023(3) 0.9823(3) 0.5591(2)
C26_3 C 0.0737(2) 0.9445(3) 0.5971(2)
H18_3 H 0.0410 0.9086 0.5855
C33_3 C 0.1041(3) 0.9957(3) 0.4643(2)
H26_3 H 0.1556 0.9948 0.4718
C34_3 C 0.0748(3) 0.9574(3) 0.4128(2)
C35_3 C 0.0267(3) 0.9030(3) 0.4107(2)
H27_3 H 0.0112 0.8898 0.4420
C36_3 C 0.0017(4) 0.8685(3) 0.3626(2)
C37_3 C 0.0690(4) 0.9394(4) 0.3178(3)
H29_3 H 0.0835 0.9522 0.2860
C38_3 C 0.0941(4) 0.9767(3) 0.3645(3)
N4_3 N 0.0246(4) 0.8853(3) 0.3165(2)
O6 O 0.01659(18) 0.87209(19) 0.67517(15)
O7 O 0.0838(2) 0.9302(2) 0.74196(15)
O8_3 O 0.0788(2) 0.9615(2) 0.50686(15)
Zn3 Zn 0.0000 0.84148(4) 0.7500
N5_2 N 0.0826(2) 0.7681(2) 0.77380(18)
C3_3 C 0.8578(3) 0.0133(3) 0.8298(2)
H1_3 H 0.8449 0.0239 0.7928
C4_3 C 0.8287(2) 0.0508(3) 0.8680(2)
C5_3 C 0.8488(3) 0.0355(3) 0.9235(2)
H2_3 H 0.8294 0.0609 0.9487
C8_3 C 0.7545(3) 0.1188(3) 0.7996(3)
H4_3 H 0.7930 0.1385 0.7848
H5_3 H 0.7385 0.0758 0.7798
C9_3 C 0.6935(3) 0.1714(3) 0.7923(2)
C10_3 C 0.6452(5) 0.1722(5) 0.7462(3)
H6_3 H 0.6486 0.1403 0.7187
C11_3 C 0.5905(5) 0.2196(5) 0.7388(3)
H7_3 H 0.5566 0.2169 0.7065
C12_3 C 0.6847(4) 0.2192(5) 0.8311(3)
H8_3 H 0.7165 0.2198 0.8646
C13_3 C 0.6277(4) 0.2677(5) 0.8210(3)
H9_3 H 0.6221 0.2996 0.8480
N1_2 N 0.5826(2) 0.2681(2) 0.77380(18)
O4_3 O 0.7791(2) 0.1031(2) 0.85516(17)
Zn2_5 Zn 1.0000 0.82131(7) 0.2500
C14_3 C 0.8959(3) 0.9957(3) 0.0357(2)
H11_3 H 0.8444 0.9948 0.0282
C15_3 C 0.9252(3) 0.9574(3) 0.0872(2)
C16_3 C 0.9733(3) 0.9030(3) 0.0893(2)
H12_3 H 0.9888 0.8898 0.0580
C17_3 C 0.9983(4) 0.8685(3) 0.1374(2)
C18_3 C 0.9310(4) 0.9394(4) 0.1822(3)
H14_3 H 0.9165 0.9522 0.2140
C19_3 C 0.9059(4) 0.9767(3) 0.1355(3)
N2_3 N 0.9754(4) 0.8853(3) 0.1835(2)
H28_3 H 0.9683 0.8328 0.3615
O10_3 O 0.9027(7) 0.7572(5) 0.2545(4)
Zn3_2 Zn 1.0000 0.84148(4) 0.7500
C1_3 C 0.9365(3) 0.9181(2) 0.8074(2)
C2_3 C 0.9061(2) 0.9602(2) 0.8483(2)
C6_3 C 0.8977(3) 0.9823(3) 0.9409(2)
C7_3 C 0.9263(2) 0.9445(3) 0.9029(2)
H3_3 H 0.9590 0.9086 0.9145
O1_3 O 0.98341(18) 0.87209(19) 0.82483(15)
O2_3 O 0.9162(2) 0.9302(2) 0.75804(15)
O3_3 O 0.9212(2) 0.9615(2) 0.99314(15)
N6_2 N 0.9174(2) 0.7681(2) 0.72620(18)
Zn2_6 Zn 0.5000 0.32131(7) 0.2500
C14_4 C 0.3959(3) 0.4957(3) 0.0357(2)
H10_3 H 0.4114 0.5446 0.0386
H11_4 H 0.3444 0.4948 0.0282
C15_4 C 0.4252(3) 0.4574(3) 0.0872(2)
C16_4 C 0.4733(3) 0.4030(3) 0.0893(2)
H12_4 H 0.4888 0.3898 0.0580
C17_4 C 0.4983(4) 0.3685(3) 0.1374(2)
H13_4 H 0.5317 0.3328 0.1385
C18_4 C 0.4310(4) 0.4394(4) 0.1822(3)
H14_4 H 0.4165 0.4522 0.2140
C19_4 C 0.4059(4) 0.4767(3) 0.1355(3)
H15_3 H 0.3760 0.5151 0.1361
N2_4 N 0.4754(4) 0.3853(3) 0.1835(2)
O5_4 O 0.5973(7) 0.2572(5) 0.2455(4)
C20_4 C 0.5635(3) 0.4181(2) 0.6926(2)
C21_4 C 0.5939(2) 0.4602(2) 0.6517(2)
C22_4 C 0.6422(3) 0.5133(3) 0.6702(2)
H16_4 H 0.6551 0.5239 0.7072
C23_4 C 0.6713(2) 0.5508(3) 0.6320(2)
C24_4 C 0.6512(3) 0.5355(3) 0.5765(2)
H17_4 H 0.6706 0.5609 0.5513
C25_4 C 0.6023(3) 0.4823(3) 0.5591(2)
C26_4 C 0.5737(2) 0.4445(3) 0.5971(2)
H18_4 H 0.5410 0.4086 0.5855
C27_4 C 0.7455(3) 0.6188(3) 0.7004(3)
H19_4 H 0.7070 0.6385 0.7152
H20_4 H 0.7615 0.5758 0.7202
C28_4 C 0.8065(3) 0.6714(3) 0.7077(2)
C29_4 C 0.8548(5) 0.6722(5) 0.7538(3)
H21_4 H 0.8514 0.6403 0.7813
C30_4 C 0.9095(5) 0.7196(5) 0.7612(3)
H22_4 H 0.9434 0.7169 0.7935
C31_4 C 0.8153(4) 0.7192(5) 0.6689(3)
H23_4 H 0.7835 0.7198 0.6354
C32_4 C 0.8723(4) 0.7677(5) 0.6790(3)
H24_4 H 0.8779 0.7996 0.6520
C33_4 C 0.6041(3) 0.4957(3) 0.4643(2)
H25_4 H 0.5886 0.5446 0.4614
H26_4 H 0.6556 0.4948 0.4718
C34_4 C 0.5748(3) 0.4574(3) 0.4128(2)
C35_4 C 0.5267(3) 0.4030(3) 0.4107(2)
H27_4 H 0.5112 0.3898 0.4420
C36_4 C 0.5017(4) 0.3685(3) 0.3626(2)
H28_4 H 0.4683 0.3328 0.3615
C37_4 C 0.5690(4) 0.4394(4) 0.3178(3)
H29_4 H 0.5835 0.4522 0.2860
C38_4 C 0.5941(4) 0.4767(3) 0.3645(3)
H30_4 H 0.6240 0.5151 0.3639
N4_4 N 0.5246(4) 0.3853(3) 0.3165(2)
O6_2 O 0.51659(18) 0.37209(19) 0.67517(15)
O7_2 O 0.5838(2) 0.4302(2) 0.74196(15)
O8_4 O 0.5788(2) 0.4615(2) 0.50686(15)
O9_4 O 0.7209(2) 0.6031(2) 0.64484(17)
O10_4 O 0.4027(7) 0.2572(5) 0.2545(4)
C1_4 C 0.4365(3) 0.4181(2) 0.8074(2)
C2_4 C 0.4061(2) 0.4602(2) 0.8483(2)
C3_4 C 0.3578(3) 0.5133(3) 0.8298(2)
H1_4 H 0.3449 0.5239 0.7928
C4_4 C 0.3287(2) 0.5508(3) 0.8680(2)
C5_4 C 0.3488(3) 0.5355(3) 0.9235(2)
H2_4 H 0.3294 0.5609 0.9487
C6_4 C 0.3977(3) 0.4823(3) 0.9409(2)
C7_4 C 0.4263(2) 0.4445(3) 0.9029(2)
H3_4 H 0.4590 0.4086 0.9145
C8_4 C 0.2545(3) 0.6188(3) 0.7996(3)
H4_4 H 0.2930 0.6385 0.7848
H5_4 H 0.2385 0.5758 0.7798
C9_4 C 0.1935(3) 0.6714(3) 0.7923(2)
C10_4 C 0.1452(5) 0.6722(5) 0.7462(3)
H6_4 H 0.1486 0.6403 0.7187
C11_4 C 0.0905(5) 0.7196(5) 0.7388(3)
H7_4 H 0.0566 0.7169 0.7065
C12_4 C 0.1847(4) 0.7192(5) 0.8311(3)
H8_4 H 0.2165 0.7198 0.8646
C13_4 C 0.1277(4) 0.7677(5) 0.8210(3)
H9_4 H 0.1221 0.7996 0.8480
O1_4 O 0.48341(18) 0.37209(19) 0.82483(15)
O2_4 O 0.4162(2) 0.4302(2) 0.75804(15)
O3_4 O 0.4212(2) 0.4615(2) 0.99314(15)
O4_4 O 0.2791(2) 0.6031(2) 0.85516(17)
H10_4 H 0.9114 0.0446 0.0386
H15_4 H 0.8760 0.0151 0.1361
H31 H 0.3346 0.0374 0.0045
C42 C 0.2687(2) 0.1041(2) 0.03262(18)
C43 C 0.2163(2) 0.1551(2) 0.01748(18)
H32 H 0.1942 0.1756 0.0432
H33 H 0.1443 0.2787 0.0100
H35 H 0.0355 0.3559 0.0153
C52 C 0.2660(3) 0.1167(3) 0.12671(19)
H40 H 0.2150 0.1107 0.1211
H41 H 0.2762 0.1667 0.1257
C53 C 0.3010(3) 0.0869(3) 0.18046(19)
C54 C 0.3603(3) 0.0439(3) 0.1876(2)
H42 H 0.3791 0.0312 0.1577
C55 C 0.3913(3) 0.0199(3) 0.2381(2)
C56 C 0.3086(3) 0.0764(3) 0.2761(2)
H44 H 0.2903 0.0875 0.3066
C57 C 0.2752(3) 0.1019(3) 0.2267(2)
H45 H 0.2347 0.1296 0.2240
N7 N 0.3674(2) 0.0354(2) 0.28277(16)
O18 O 0.29176(19) 0.08123(18) 0.08509(13)
Zn6 Zn 0.41838(3) 0.00036(3) 0.85754(2)
C39 C 0.3216(3) 0.0655(3) 0.8991(2)
C40 C 0.2824(2) 0.0943(2) 0.94033(18)
C41 C 0.3009(2) 0.0726(2) 0.99426(19)
C44 C 0.1979(2) 0.1747(2) 0.96299(18)
C45 C 0.1108(2) 0.2566(3) 0.98048(19)
H34 H 0.0837 0.2217 0.9959
C46 C 0.0621(2) 0.3108(2) 0.94912(18)
C47 C 0.0291(3) 0.3587(3) 0.9776(2)
C49 C 0.0047(3) 0.3683(3) 0.8675(2)
C50 C 0.0496(3) 0.3161(3) 0.89355(19)
H38 H 0.0710 0.2849 0.8734
C51 C 0.2307(2) 0.1451(2) 0.92455(18)
H39 H 0.2183 0.1593 0.8883
C58 C 0.5219(6) 0.0959(5) 0.8658(5)
H46 H 0.5536 0.1266 0.8544
O13 O 0.3604(2) 0.0136(2) 0.91201(17)
O14 O 0.3154(4) 0.0938(3) 0.8546(2)
O15 O 0.5202(10) 0.0961(11) 0.9128(6)
O16 O 0.4880(3) 0.0610(3) 0.8335(2)
O17 O 0.14738(17) 0.22393(18) 0.94318(13)
H43 H 0.4312 0.9913 0.2416
Zn8 Zn 0.41838(3) 0.99964(3) 0.35754(2)
N9 N 0.3674(2) 0.9646(2) 0.78277(16)
N10 N 0.4741(2) 0.9155(2) 0.89457(16)
C48 C 0.9866(3) 0.4103(3) 0.9491(2)
H36 H 0.9656 0.4429 0.9685
H37 H 0.9955 0.3705 0.8297
N8 N 0.9741(2) 0.4155(2) 0.89457(16)
Zn7 Zn 0.91838(3) 0.50036(3) 0.85754(2)
H31_2 H 0.8346 0.5374 0.0045
C42_2 C 0.7687(2) 0.6041(2) 0.03262(18)
C43_2 C 0.7163(2) 0.6551(2) 0.01748(18)
H32_2 H 0.6942 0.6756 0.0432
H33_2 H 0.6443 0.7787 0.0100
H35_2 H 0.5355 0.8559 0.0153
C52_2 C 0.7660(3) 0.6167(3) 0.12671(19)
H40_2 H 0.7150 0.6107 0.1211
H41_2 H 0.7762 0.6667 0.1257
C53_2 C 0.8010(3) 0.5869(3) 0.18046(19)
C54_2 C 0.8603(3) 0.5439(3) 0.1876(2)
H42_2 H 0.8791 0.5312 0.1577
C55_2 C 0.8913(3) 0.5199(3) 0.2381(2)
H43_2 H 0.9312 0.4913 0.2416
C56_2 C 0.8086(3) 0.5764(3) 0.2761(2)
H44_2 H 0.7903 0.5875 0.3066
C57_2 C 0.7752(3) 0.6019(3) 0.2267(2)
H45_2 H 0.7347 0.6296 0.2240
N7_2 N 0.8674(2) 0.5354(2) 0.28277(16)
O18_2 O 0.79176(19) 0.58123(18) 0.08509(13)
Zn8_2 Zn 0.91838(3) 0.49964(3) 0.35754(2)
C39_2 C 0.8216(3) 0.5655(3) 0.8991(2)
C40_2 C 0.7824(2) 0.5943(2) 0.94033(18)
C41_2 C 0.8009(2) 0.5726(2) 0.99426(19)
C44_2 C 0.6979(2) 0.6747(2) 0.96299(18)
C45_2 C 0.6108(2) 0.7566(3) 0.98048(19)
H34_2 H 0.5837 0.7217 0.9959
C46_2 C 0.5621(2) 0.8108(2) 0.94912(18)
C47_2 C 0.5291(3) 0.8587(3) 0.9776(2)
C48_2 C 0.4866(3) 0.9103(3) 0.9491(2)
H36_2 H 0.4656 0.9429 0.9685
C49_2 C 0.5047(3) 0.8683(3) 0.8675(2)
H37_2 H 0.4955 0.8705 0.8297
C50_2 C 0.5496(3) 0.8161(3) 0.89355(19)
H38_2 H 0.5710 0.7849 0.8734
C51_2 C 0.7307(2) 0.6451(2) 0.92455(18)
H39_2 H 0.7183 0.6593 0.8883
O13_2 O 0.8604(2) 0.5136(2) 0.91201(17)
O14_2 O 0.8154(4) 0.5938(3) 0.8546(2)
O16_2 O 0.9880(3) 0.5610(3) 0.8335(2)
O17_2 O 0.64738(17) 0.72393(18) 0.94318(13)
N9_2 N 0.8674(2) 0.4646(2) 0.78277(16)
H43_3 H 0.4312 0.0087 0.7416
N10_2 N 0.4741(2) 0.0845(2) 0.39457(16)
C39_3 C 0.3216(3) 0.9345(3) 0.3991(2)
C40_3 C 0.2824(2) 0.9057(2) 0.44033(18)
C41_3 C 0.3009(2) 0.9274(2) 0.49426(19)
H31_3 H 0.3346 0.9626 0.5045
C42_3 C 0.2687(2) 0.8959(2) 0.53262(18)
C43_3 C 0.2163(2) 0.8449(2) 0.51748(18)
H32_3 H 0.1942 0.8244 0.5432
C44_3 C 0.1979(2) 0.8253(2) 0.46299(18)
C45_3 C 0.1108(2) 0.7434(3) 0.48048(19)
H33_3 H 0.1443 0.7213 0.5100
H34_3 H 0.0837 0.7783 0.4959
C46_3 C 0.0621(2) 0.6892(2) 0.44912(18)
C47_3 C 0.0291(3) 0.6413(3) 0.4776(2)
H35_3 H 0.0355 0.6441 0.5153
C49_3 C 0.0047(3) 0.6317(3) 0.3675(2)
C50_3 C 0.0496(3) 0.6839(3) 0.39355(19)
H38_3 H 0.0710 0.7151 0.3734
C51_3 C 0.2307(2) 0.8549(2) 0.42455(18)
H39_3 H 0.2183 0.8407 0.3883
C52_3 C 0.2660(3) 0.8833(3) 0.62671(19)
H40_3 H 0.2150 0.8893 0.6211
H41_3 H 0.2762 0.8333 0.6257
C53_3 C 0.3010(3) 0.9131(3) 0.68046(19)
C54_3 C 0.3603(3) 0.9561(3) 0.6876(2)
H42_3 H 0.3791 0.9688 0.6577
C55_3 C 0.3913(3) 0.9801(3) 0.7381(2)
C56_3 C 0.3086(3) 0.9236(3) 0.7761(2)
H44_3 H 0.2903 0.9125 0.8066
C57_3 C 0.2752(3) 0.8981(3) 0.7267(2)
H45_3 H 0.2347 0.8704 0.7240
C58_2 C 0.5219(6) 0.9041(5) 0.3658(5)
H46_2 H 0.5536 0.8734 0.3544
O13_3 O 0.3604(2) 0.9864(2) 0.41201(17)
O14_3 O 0.3154(4) 0.9062(3) 0.3546(2)
O15_2 O 0.5202(10) 0.9039(11) 0.4128(6)
O16_3 O 0.4880(3) 0.9390(3) 0.3335(2)
O17_3 O 0.14738(17) 0.77607(18) 0.44318(13)
O18_3 O 0.29176(19) 0.91877(18) 0.58509(13)
C48_3 C 0.9866(3) 0.5897(3) 0.4491(2)
H36_3 H 0.9656 0.5571 0.4685
H37_3 H 0.9955 0.6295 0.3297
N8_2 N 0.9741(2) 0.5845(2) 0.39457(16)
C39_4 C 0.8216(3) 0.4345(3) 0.3991(2)
C40_4 C 0.7824(2) 0.4057(2) 0.44033(18)
C41_4 C 0.8009(2) 0.4274(2) 0.49426(19)
H31_4 H 0.8346 0.4626 0.5045
C42_4 C 0.7687(2) 0.3959(2) 0.53262(18)
C43_4 C 0.7163(2) 0.3449(2) 0.51748(18)
H32_4 H 0.6942 0.3244 0.5432
C44_4 C 0.6979(2) 0.3253(2) 0.46299(18)
C45_4 C 0.6108(2) 0.2434(3) 0.48048(19)
H33_4 H 0.6443 0.2213 0.5100
H34_4 H 0.5837 0.2783 0.4959
C46_4 C 0.5621(2) 0.1892(2) 0.44912(18)
C47_4 C 0.5291(3) 0.1413(3) 0.4776(2)
H35_4 H 0.5355 0.1441 0.5153
C48_4 C 0.4866(3) 0.0897(3) 0.4491(2)
H36_4 H 0.4656 0.0571 0.4685
C49_4 C 0.5047(3) 0.1317(3) 0.3675(2)
H37_4 H 0.4955 0.1295 0.3297
C50_4 C 0.5496(3) 0.1839(3) 0.39355(19)
H38_4 H 0.5710 0.2151 0.3734
C51_4 C 0.7307(2) 0.3549(2) 0.42455(18)
H39_4 H 0.7183 0.3407 0.3883
C52_4 C 0.7660(3) 0.3833(3) 0.62671(19)
H40_4 H 0.7150 0.3893 0.6211
H41_4 H 0.7762 0.3333 0.6257
C53_4 C 0.8010(3) 0.4131(3) 0.68046(19)
C54_4 C 0.8603(3) 0.4561(3) 0.6876(2)
H42_4 H 0.8791 0.4688 0.6577
C55_4 C 0.8913(3) 0.4801(3) 0.7381(2)
H43_4 H 0.9312 0.5087 0.7416
C56_4 C 0.8086(3) 0.4236(3) 0.7761(2)
H44_4 H 0.7903 0.4125 0.8066
C57_4 C 0.7752(3) 0.3981(3) 0.7267(2)
H45_4 H 0.7347 0.3704 0.7240
O13_4 O 0.8604(2) 0.4864(2) 0.41201(17)
O14_4 O 0.8154(4) 0.4062(3) 0.3546(2)
O16_4 O 0.9880(3) 0.4390(3) 0.3335(2)
O17_4 O 0.64738(17) 0.27607(18) 0.44318(13)
O18_4 O 0.79176(19) 0.41877(18) 0.58509(13)
C48_5 C 0.0134(3) 0.4103(3) 0.5509(2)
H36_5 H 0.0344 0.4429 0.5315
H37_5 H 0.0045 0.3705 0.6703
N8_3 N 0.0259(2) 0.4155(2) 0.60543(16)
Zn7_2 Zn 0.08162(3) 0.50036(3) 0.64246(2)
Zn6_2 Zn 0.58162(3) 0.00036(3) 0.64246(2)
C39_5 C 0.6784(3) 0.0655(3) 0.6009(2)
C40_5 C 0.7176(2) 0.0943(2) 0.55967(18)
C41_5 C 0.6991(2) 0.0726(2) 0.50574(19)
H31_5 H 0.6654 0.0374 0.4955
C42_5 C 0.7313(2) 0.1041(2) 0.46738(18)
C43_5 C 0.7837(2) 0.1551(2) 0.48252(18)
H32_5 H 0.8058 0.1756 0.4568
C44_5 C 0.8021(2) 0.1747(2) 0.53701(18)
C45_5 C 0.8892(2) 0.2566(3) 0.51952(19)
H33_5 H 0.8557 0.2787 0.4900
H34_5 H 0.9163 0.2217 0.5041
C46_5 C 0.9379(2) 0.3108(2) 0.55088(18)
C47_5 C 0.9709(3) 0.3587(3) 0.5224(2)
H35_5 H 0.9645 0.3559 0.4847
C49_5 C 0.9953(3) 0.3683(3) 0.6325(2)
C50_5 C 0.9504(3) 0.3161(3) 0.60645(19)
H38_5 H 0.9290 0.2849 0.6266
C51_5 C 0.7693(2) 0.1451(2) 0.57545(18)
H39_5 H 0.7817 0.1593 0.6117
C52_5 C 0.7340(3) 0.1167(3) 0.37329(19)
H40_5 H 0.7850 0.1107 0.3789
H41_5 H 0.7238 0.1667 0.3743
C53_5 C 0.6990(3) 0.0869(3) 0.31954(19)
C54_5 C 0.6397(3) 0.0439(3) 0.3124(2)
H42_5 H 0.6209 0.0312 0.3423
C55_5 C 0.6087(3) 0.0199(3) 0.2619(2)
C56_5 C 0.6914(3) 0.0764(3) 0.2239(2)
H44_5 H 0.7097 0.0875 0.1934
C57_5 C 0.7248(3) 0.1019(3) 0.2733(2)
H45_5 H 0.7653 0.1296 0.2760
C58_3 C 0.4781(6) 0.0959(5) 0.6342(5)
H46_3 H 0.4464 0.1266 0.6456
N7_3 N 0.6326(2) 0.0354(2) 0.21723(16)
O13_5 O 0.6396(2) 0.0136(2) 0.58799(17)
O14_5 O 0.6846(4) 0.0938(3) 0.6454(2)
O15_3 O 0.4798(10) 0.0961(11) 0.5872(6)
O16_5 O 0.5120(3) 0.0610(3) 0.6665(2)
O17_5 O 0.85262(17) 0.22393(18) 0.55682(13)
O18_5 O 0.70824(19) 0.08123(18) 0.41491(13)
H43_5 H 0.5688 0.9913 0.2584
Zn8_3 Zn 0.58162(3) 0.99964(3) 0.14246(2)
N9_3 N 0.6326(2) 0.9646(2) 0.71723(16)
N10_3 N 0.5259(2) 0.9155(2) 0.60543(16)
C39_6 C 0.1784(3) 0.5655(3) 0.6009(2)
C40_6 C 0.2176(2) 0.5943(2) 0.55967(18)
C41_6 C 0.1991(2) 0.5726(2) 0.50574(19)
H31_6 H 0.1654 0.5374 0.4955
C42_6 C 0.2313(2) 0.6041(2) 0.46738(18)
C43_6 C 0.2837(2) 0.6551(2) 0.48252(18)
H32_6 H 0.3058 0.6756 0.4568
C44_6 C 0.3021(2) 0.6747(2) 0.53701(18)
C45_6 C 0.3892(2) 0.7566(3) 0.51952(19)
H33_6 H 0.3557 0.7787 0.4900
H34_6 H 0.4163 0.7217 0.5041
C46_6 C 0.4379(2) 0.8108(2) 0.55088(18)
C47_6 C 0.4709(3) 0.8587(3) 0.5224(2)
H35_6 H 0.4645 0.8559 0.4847
C48_6 C 0.5134(3) 0.9103(3) 0.5509(2)
H36_6 H 0.5344 0.9429 0.5315
C49_6 C 0.4953(3) 0.8683(3) 0.6325(2)
H37_6 H 0.5045 0.8705 0.6703
C50_6 C 0.4504(3) 0.8161(3) 0.60645(19)
H38_6 H 0.4290 0.7849 0.6266
C51_6 C 0.2693(2) 0.6451(2) 0.57545(18)
H39_6 H 0.2817 0.6593 0.6117
C52_6 C 0.2340(3) 0.6167(3) 0.37329(19)
H40_6 H 0.2850 0.6107 0.3789
H41_6 H 0.2238 0.6667 0.3743
C53_6 C 0.1990(3) 0.5869(3) 0.31954(19)
C54_6 C 0.1397(3) 0.5439(3) 0.3124(2)
H42_6 H 0.1209 0.5312 0.3423
C55_6 C 0.1087(3) 0.5199(3) 0.2619(2)
H43_6 H 0.0688 0.4913 0.2584
C56_6 C 0.1914(3) 0.5764(3) 0.2239(2)
H44_6 H 0.2097 0.5875 0.1934
C57_6 C 0.2248(3) 0.6019(3) 0.2733(2)
H45_6 H 0.2653 0.6296 0.2760
N7_4 N 0.1326(2) 0.5354(2) 0.21723(16)
O13_6 O 0.1396(2) 0.5136(2) 0.58799(17)
O14_6 O 0.1846(4) 0.5938(3) 0.6454(2)
O16_6 O 0.0120(3) 0.5610(3) 0.6665(2)
O17_6 O 0.35262(17) 0.72393(18) 0.55682(13)
O18_6 O 0.20824(19) 0.58123(18) 0.41491(13)
Zn8_4 Zn 0.08162(3) 0.49964(3) 0.14246(2)
N9_4 N 0.1326(2) 0.4646(2) 0.71723(16)
C48_7 C 0.0134(3) 0.5897(3) 0.0509(2)
H36_7 H 0.0344 0.5571 0.0315
H37_7 H 0.0045 0.6295 0.1703
N8_4 N 0.0259(2) 0.5845(2) 0.10543(16)
N10_4 N 0.5259(2) 0.0845(2) 0.10543(16)
H43_7 H 0.5688 0.0087 0.7584
C39_7 C 0.6784(3) 0.9345(3) 0.1009(2)
C40_7 C 0.7176(2) 0.9057(2) 0.05967(18)
C41_7 C 0.6991(2) 0.9274(2) 0.00574(19)
C44_7 C 0.8021(2) 0.8253(2) 0.03701(18)
C45_7 C 0.8892(2) 0.7434(3) 0.01952(19)
H34_7 H 0.9163 0.7783 0.0041
C46_7 C 0.9379(2) 0.6892(2) 0.05088(18)
C47_7 C 0.9709(3) 0.6413(3) 0.0224(2)
C49_7 C 0.9953(3) 0.6317(3) 0.1325(2)
C50_7 C 0.9504(3) 0.6839(3) 0.10645(19)
H38_7 H 0.9290 0.7151 0.1266
C51_7 C 0.7693(2) 0.8549(2) 0.07545(18)
H39_7 H 0.7817 0.8407 0.1117
C58_4 C 0.4781(6) 0.9041(5) 0.1342(5)
H46_4 H 0.4464 0.8734 0.1456
O13_7 O 0.6396(2) 0.9864(2) 0.08799(17)
O14_7 O 0.6846(4) 0.9062(3) 0.1454(2)
O15_4 O 0.4798(10) 0.9039(11) 0.0872(6)
O16_7 O 0.5120(3) 0.9390(3) 0.1665(2)
O17_7 O 0.85262(17) 0.77607(18) 0.05682(13)
H31_7 H 0.6654 0.9626 0.9955
C42_7 C 0.7313(2) 0.8959(2) 0.96738(18)
C43_7 C 0.7837(2) 0.8449(2) 0.98252(18)
H32_7 H 0.8058 0.8244 0.9568
H33_7 H 0.8557 0.7213 0.9900
H35_7 H 0.9645 0.6441 0.9847
C52_7 C 0.7340(3) 0.8833(3) 0.87329(19)
H40_7 H 0.7850 0.8893 0.8789
H41_7 H 0.7238 0.8333 0.8743
C53_7 C 0.6990(3) 0.9131(3) 0.81954(19)
C54_7 C 0.6397(3) 0.9561(3) 0.8124(2)
H42_7 H 0.6209 0.9688 0.8423
C55_7 C 0.6087(3) 0.9801(3) 0.7619(2)
C56_7 C 0.6914(3) 0.9236(3) 0.7239(2)
H44_7 H 0.7097 0.9125 0.6934
C57_7 C 0.7248(3) 0.8981(3) 0.7733(2)
H45_7 H 0.7653 0.8704 0.7760
O18_7 O 0.70824(19) 0.91877(18) 0.91491(13)
C39_8 C 0.1784(3) 0.4345(3) 0.1009(2)
C40_8 C 0.2176(2) 0.4057(2) 0.05967(18)
C41_8 C 0.1991(2) 0.4274(2) 0.00574(19)
C44_8 C 0.3021(2) 0.3253(2) 0.03701(18)
C45_8 C 0.3892(2) 0.2434(3) 0.01952(19)
H34_8 H 0.4163 0.2783 0.0041
C46_8 C 0.4379(2) 0.1892(2) 0.05088(18)
C47_8 C 0.4709(3) 0.1413(3) 0.0224(2)
C48_8 C 0.5134(3) 0.0897(3) 0.0509(2)
H36_8 H 0.5344 0.0571 0.0315
C49_8 C 0.4953(3) 0.1317(3) 0.1325(2)
H37_8 H 0.5045 0.1295 0.1703
C50_8 C 0.4504(3) 0.1839(3) 0.10645(19)
H38_8 H 0.4290 0.2151 0.1266
C51_8 C 0.2693(2) 0.3549(2) 0.07545(18)
H39_8 H 0.2817 0.3407 0.1117
O13_8 O 0.1396(2) 0.4864(2) 0.08799(17)
O14_8 O 0.1846(4) 0.4062(3) 0.1454(2)
O16_8 O 0.0120(3) 0.4390(3) 0.1665(2)
O17_8 O 0.35262(17) 0.27607(18) 0.05682(13)
H31_8 H 0.1654 0.4626 0.9955
C42_8 C 0.2313(2) 0.3959(2) 0.96738(18)
C43_8 C 0.2837(2) 0.3449(2) 0.98252(18)
H32_8 H 0.3058 0.3244 0.9568
H33_8 H 0.3557 0.2213 0.9900
H35_8 H 0.4645 0.1441 0.9847
C52_8 C 0.2340(3) 0.3833(3) 0.87329(19)
H40_8 H 0.2850 0.3893 0.8789
H41_8 H 0.2238 0.3333 0.8743
C53_8 C 0.1990(3) 0.4131(3) 0.81954(19)
C54_8 C 0.1397(3) 0.4561(3) 0.8124(2)
H42_8 H 0.1209 0.4688 0.8423
C55_8 C 0.1087(3) 0.4801(3) 0.7619(2)
H43_8 H 0.0688 0.5087 0.7584
C56_8 C 0.1914(3) 0.4236(3) 0.7239(2)
H44_8 H 0.2097 0.4125 0.6934
C57_8 C 0.2248(3) 0.3981(3) 0.7733(2)
H45_8 H 0.2653 0.3704 0.7760
O18_8 O 0.20824(19) 0.41877(18) 0.91491(13)
C58_5 C 0.0219(6) 0.5959(5) 0.8658(5)
H46_5 H 0.0536 0.6266 0.8544
O15_5 O 0.0202(10) 0.5961(11) 0.9128(6)
C58_6 C 0.9781(6) 0.5959(5) 0.6342(5)
H46_6 H 0.9464 0.6266 0.6456
O15_6 O 0.9798(10) 0.5961(11) 0.5872(6)
C58_7 C 0.9781(6) 0.4041(5) 0.1342(5)
H46_7 H 0.9464 0.3734 0.1456
O15_7 O 0.9798(10) 0.4039(11) 0.0872(6)
C58_8 C 0.0219(6) 0.4041(5) 0.3658(5)
H46_8 H 0.0536 0.3734 0.3544
O15_8 O 0.0202(10) 0.4039(11) 0.4128(6)
loop_
_geom_bond_atom_site_label_1
_geom_bond_atom_site_label_2
_geom_bond_site_symmetry_1
_geom_bond_site_symmetry_2
Zn1 O1 1_555 1_555
C1 C2 1_555 1_555
C7 C2 1_555 1_555
H3 C7 1_555 1_555
O1 C1 1_555 1_555
O2 Zn1 1_555 1_555
O3 C6 1_555 1_555
N6 Zn1 1_555 1_555
C1 O2 1_555 1_555
C6 C7 1_555 1_555
Zn2 N2 1_555 1_555
H11 C14 1_555 1_555
C15 C14 1_555 1_555
C16 C15 1_555 1_555
H12 C16 1_555 1_555
C17 C16 1_555 1_555
C18 H14 1_555 1_555
C19 C15 1_555 1_555
N2 C17 1_555 1_555
O10 Zn2 1_555 1_555
C18 C19 1_555 1_555
C18 N2 1_555 1_555
C3 H1 1_555 1_555
C4 C3 1_555 1_555
C5 C4 1_555 1_555
H2 C5 1_555 1_555
C8 H4 1_555 1_555
H5 C8 1_555 1_555
C9 C8 1_555 1_555
C10 C9 1_555 1_555
H6 C10 1_555 1_555
C11 C10 1_555 1_555
H7 C11 1_555 1_555
C12 C9 1_555 1_555
H8 C12 1_555 1_555
C13 C12 1_555 1_555
H9 C13 1_555 1_555
N1 C11 1_555 1_555
O4 C4 1_555 1_555
Zn5 N1 1_555 1_555
C8 O4 1_555 1_555
C13 N1 1_555 1_555
N5 Zn1_2 1_555 1_555
O11 Zn1_2 1_555 1_555
O12 Zn1_2 1_555 1_555
O5 Zn2_2 1_555 1_555
C20 C21 1_555 1_555
C26 C21 1_555 1_555
H18 C26 1_555 1_555
H26 C33 1_555 1_555
C34 C33 1_555 1_555
C35 C34 1_555 1_555
H27 C35 1_555 1_555
C36 C35 1_555 1_555
C37 H29 1_555 1_555
C38 C34 1_555 1_555
N4 Zn2_2 1_555 1_555
O11 C20 1_555 1_555
O12 C20 1_555 1_555
O8 C25 1_555 1_555
C25 C26 1_555 1_555
C33 O8 1_555 1_555
C36 N4 1_555 1_555
C37 C38 1_555 1_555
C37 N4 1_555 1_555
C22 H16 1_555 1_555
C23 C22 1_555 1_555
C24 C23 1_555 1_555
H17 C24 1_555 1_555
C27 H19 1_555 1_555
H20 C27 1_555 1_555
C28 C27 1_555 1_555
C29 C28 1_555 1_555
H21 C29 1_555 1_555
C30 C29 1_555 1_555
H22 C30 1_555 1_555
C31 C28 1_555 1_555
H23 C31 1_555 1_555
C32 C31 1_555 1_555
H24 C32 1_555 1_555
N3 C30 1_555 1_555
O9 C23 1_555 1_555
Zn5 N3 1_555 1_555
C27 O9 1_555 1_555
C32 N3 1_555 1_555
Zn5 O1_2 1_555 1_555
C1_2 C2_2 1_555 1_555
C2_2 C3_2 1_555 1_555
C3_2 H1_2 1_555 1_555
C4_2 C3_2 1_555 1_555
C5_2 C4_2 1_555 1_555
H2_2 C5_2 1_555 1_555
C6_2 C5_2 1_555 1_555
C7_2 C2_2 1_555 1_555
H3_2 C7_2 1_555 1_555
C8_2 H4_2 1_555 1_555
H5_2 C8_2 1_555 1_555
C9_2 C8_2 1_555 1_555
C10_2 C9_2 1_555 1_555
H6_2 C10_2 1_555 1_555
C11_2 C10_2 1_555 1_555
H7_2 C11_2 1_555 1_555
C12_2 C9_2 1_555 1_555
H8_2 C12_2 1_555 1_555
C13_2 C12_2 1_555 1_555
H9_2 C13_2 1_555 1_555
N5 C11_2 1_555 1_555
O1_2 C1_2 1_555 1_555
O2_2 Zn5 1_555 1_555
O3_2 C6_2 1_555 1_555
O4_2 C4_2 1_555 1_555
O11_2 Zn5 1_555 1_555
O12_2 Zn5 1_555 1_555
C1_2 O2_2 1_555 1_555
C6_2 C7_2 1_555 1_555
C8_2 O4_2 1_555 1_555
C13_2 N5 1_555 1_555
Zn2_3 N2_2 1_555 1_555
C14_2 H10 1_555 1_555
H11_2 C14_2 1_555 1_555
C15_2 C14_2 1_555 1_555
C16_2 C15_2 1_555 1_555
H12_2 C16_2 1_555 1_555
C17_2 C16_2 1_555 1_555
H13_2 C17_2 1_555 1_555
C18_2 H14_2 1_555 1_555
C19_2 C15_2 1_555 1_555
H15 C19_2 1_555 1_555
N2_2 C17_2 1_555 1_555
O5_2 Zn2_3 1_555 1_555
C20_2 C21_2 1_555 1_555
C21_2 C22_2 1_555 1_555
C22_2 H16_2 1_555 1_555
C23_2 C22_2 1_555 1_555
C24_2 C23_2 1_555 1_555
H17_2 C24_2 1_555 1_555
C25_2 C24_2 1_555 1_555
C26_2 C21_2 1_555 1_555
H18_2 C26_2 1_555 1_555
C27_2 H19_2 1_555 1_555
H20_2 C27_2 1_555 1_555
C28_2 C27_2 1_555 1_555
C29_2 C28_2 1_555 1_555
H21_2 C29_2 1_555 1_555
C30_2 C29_2 1_555 1_555
H22_2 C30_2 1_555 1_555
C31_2 C28_2 1_555 1_555
H23_2 C31_2 1_555 1_555
C32_2 C31_2 1_555 1_555
H24_2 C32_2 1_555 1_555
C33_2 H25_2 1_555 1_555
H26_2 C33_2 1_555 1_555
C34_2 C33_2 1_555 1_555
C35_2 C34_2 1_555 1_555
H27_2 C35_2 1_555 1_555
C36_2 C35_2 1_555 1_555
H28_2 C36_2 1_555 1_555
C37_2 H29_2 1_555 1_555
C38_2 C34_2 1_555 1_555
H30_2 C38_2 1_555 1_555
N6 C30_2 1_555 1_555
N4_2 Zn2_3 1_555 1_555
O11_2 C20_2 1_555 1_555
O12_2 C20_2 1_555 1_555
O8_2 C25_2 1_555 1_555
O9_2 C23_2 1_555 1_555
O10_2 Zn2_3 1_555 1_555
C18_2 C19_2 1_555 1_555
C18_2 N2_2 1_555 1_555
C25_2 C26_2 1_555 1_555
C27_2 O9_2 1_555 1_555
C32_2 N6 1_555 1_555
C33_2 O8_2 1_555 1_555
C36_2 N4_2 1_555 1_555
C37_2 C38_2 1_555 1_555
C37_2 N4_2 1_555 1_555
C22_3 H16_3 1_555 1_555
C23_3 C22_3 1_555 1_555
C24_3 C23_3 1_555 1_555
H17_3 C24_3 1_555 1_555
C27_3 H19_3 1_555 1_555
H20_3 C27_3 1_555 1_555
C28_3 C27_3 1_555 1_555
C29_3 C28_3 1_555 1_555
H21_3 C29_3 1_555 1_555
C30_3 C29_3 1_555 1_555
H22_3 C30_3 1_555 1_555
C31_3 C28_3 1_555 1_555
H23_3 C31_3 1_555 1_555
C32_3 C31_3 1_555 1_555
H24_3 C32_3 1_555 1_555
N3_2 C30_3 1_555 1_555
O9_3 C23_3 1_555 1_555
Zn4 N3_2 1_555 1_555
C27_3 O9_3 1_555 1_555
C32_3 N3_2 1_555 1_555
O5_3 Zn2_4 1_555 1_555
C20_3 C21_3 1_555 1_555
C26_3 C21_3 1_555 1_555
H18_3 C26_3 1_555 1_555
H26_3 C33_3 1_555 1_555
C34_3 C33_3 1_555 1_555
C35_3 C34_3 1_555 1_555
H27_3 C35_3 1_555 1_555
C36_3 C35_3 1_555 1_555
C37_3 H29_3 1_555 1_555
C38_3 C34_3 1_555 1_555
N4_3 Zn2_4 1_555 1_555
O6 C20_3 1_555 1_555
O7 C20_3 1_555 1_555
O8_3 C25_3 1_555 1_555
Zn3 O6 1_555 1_555
C25_3 C26_3 1_555 1_555
C33_3 O8_3 1_555 1_555
C36_3 N4_3 1_555 1_555
C37_3 C38_3 1_555 1_555
C37_3 N4_3 1_555 1_555
O7 Zn3 1_555 1_555
N5_2 Zn3 1_555 1_555
C3_3 H1_3 1_555 1_555
C4_3 C3_3 1_555 1_555
C5_3 C4_3 1_555 1_555
H2_3 C5_3 1_555 1_555
C8_3 H4_3 1_555 1_555
H5_3 C8_3 1_555 1_555
C9_3 C8_3 1_555 1_555
C10_3 C9_3 1_555 1_555
H6_3 C10_3 1_555 1_555
C11_3 C10_3 1_555 1_555
H7_3 C11_3 1_555 1_555
C12_3 C9_3 1_555 1_555
H8_3 C12_3 1_555 1_555
C13_3 C12_3 1_555 1_555
H9_3 C13_3 1_555 1_555
N1_2 C11_3 1_555 1_555
O4_3 C4_3 1_555 1_555
Zn4 N1_2 1_555 1_555
C8_3 O4_3 1_555 1_555
C13_3 N1_2 1_555 1_555
Zn2_5 N2_3 1_555 1_555
H11_3 C14_3 1_555 1_555
C15_3 C14_3 1_555 1_555
C16_3 C15_3 1_555 1_555
H12_3 C16_3 1_555 1_555
C17_3 C16_3 1_555 1_555
C18_3 H14_3 1_555 1_555
C19_3 C15_3 1_555 1_555
N2_3 C17_3 1_555 1_555
O10_3 Zn2_5 1_555 1_555
C18_3 C19_3 1_555 1_555
C18_3 N2_3 1_555 1_555
Zn3_2 O1_3 1_555 1_555
C1_3 C2_3 1_555 1_555
C7_3 C2_3 1_555 1_555
H3_3 C7_3 1_555 1_555
O1_3 C1_3 1_555 1_555
O2_3 Zn3_2 1_555 1_555
O3_3 C6_3 1_555 1_555
N6_2 Zn3_2 1_555 1_555
C1_3 O2_3 1_555 1_555
C6_3 C7_3 1_555 1_555
Zn2_6 N2_4 1_555 1_555
C14_4 H10_3 1_555 1_555
H11_4 C14_4 1_555 1_555
C15_4 C14_4 1_555 1_555
C16_4 C15_4 1_555 1_555
H12_4 C16_4 1_555 1_555
C17_4 C16_4 1_555 1_555
H13_4 C17_4 1_555 1_555
C18_4 H14_4 1_555 1_555
C19_4 C15_4 1_555 1_555
H15_3 C19_4 1_555 1_555
N2_4 C17_4 1_555 1_555
O5_4 Zn2_6 1_555 1_555
C20_4 C21_4 1_555 1_555
C21_4 C22_4 1_555 1_555
C22_4 H16_4 1_555 1_555
C23_4 C22_4 1_555 1_555
C24_4 C23_4 1_555 1_555
H17_4 C24_4 1_555 1_555
C25_4 C24_4 1_555 1_555
C26_4 C21_4 1_555 1_555
H18_4 C26_4 1_555 1_555
C27_4 H19_4 1_555 1_555
H20_4 C27_4 1_555 1_555
C28_4 C27_4 1_555 1_555
C29_4 C28_4 1_555 1_555
H21_4 C29_4 1_555 1_555
C30_4 C29_4 1_555 1_555
H22_4 C30_4 1_555 1_555
C31_4 C28_4 1_555 1_555
H23_4 C31_4 1_555 1_555
C32_4 C31_4 1_555 1_555
H24_4 C32_4 1_555 1_555
C33_4 H25_4 1_555 1_555
H26_4 C33_4 1_555 1_555
C34_4 C33_4 1_555 1_555
C35_4 C34_4 1_555 1_555
H27_4 C35_4 1_555 1_555
C36_4 C35_4 1_555 1_555
H28_4 C36_4 1_555 1_555
C37_4 H29_4 1_555 1_555
C38_4 C34_4 1_555 1_555
H30_4 C38_4 1_555 1_555
N6_2 C30_4 1_555 1_555
N4_4 Zn2_6 1_555 1_555
O6_2 C20_4 1_555 1_555
O7_2 C20_4 1_555 1_555
O8_4 C25_4 1_555 1_555
O9_4 C23_4 1_555 1_555
O10_4 Zn2_6 1_555 1_555
Zn4 O6_2 1_555 1_555
C18_4 C19_4 1_555 1_555
C18_4 N2_4 1_555 1_555
C25_4 C26_4 1_555 1_555
C27_4 O9_4 1_555 1_555
C32_4 N6_2 1_555 1_555
C33_4 O8_4 1_555 1_555
C36_4 N4_4 1_555 1_555
C37_4 C38_4 1_555 1_555
C37_4 N4_4 1_555 1_555
O7_2 Zn4 1_555 1_555
Zn4 O1_4 1_555 1_555
C1_4 C2_4 1_555 1_555
C2_4 C3_4 1_555 1_555
C3_4 H1_4 1_555 1_555
C4_4 C3_4 1_555 1_555
C5_4 C4_4 1_555 1_555
H2_4 C5_4 1_555 1_555
C6_4 C5_4 1_555 1_555
C7_4 C2_4 1_555 1_555
H3_4 C7_4 1_555 1_555
C8_4 H4_4 1_555 1_555
H5_4 C8_4 1_555 1_555
C9_4 C8_4 1_555 1_555
C10_4 C9_4 1_555 1_555
H6_4 C10_4 1_555 1_555
C11_4 C10_4 1_555 1_555
H7_4 C11_4 1_555 1_555
C12_4 C9_4 1_555 1_555
H8_4 C12_4 1_555 1_555
C13_4 C12_4 1_555 1_555
H9_4 C13_4 1_555 1_555
N5_2 C11_4 1_555 1_555
O1_4 C1_4 1_555 1_555
O2_4 Zn4 1_555 1_555
O3_4 C6_4 1_555 1_555
O4_4 C4_4 1_555 1_555
C1_4 O2_4 1_555 1_555
C6_4 C7_4 1_555 1_555
C8_4 O4_4 1_555 1_555
C13_4 N5_2 1_555 1_555
C43 C42 1_555 1_555
H32 C43 1_555 1_555
C52 H40 1_555 1_555
H41 C52 1_555 1_555
C53 C52 1_555 1_555
C54 C53 1_555 1_555
H42 C54 1_555 1_555
C55 C54 1_555 1_555
C56 H44 1_555 1_555
C57 C53 1_555 1_555
H45 C57 1_555 1_555
N7 C55 1_555 1_555
O18 C42 1_555 1_555
C52 O18 1_555 1_555
C56 C57 1_555 1_555
C56 N7 1_555 1_555
Zn6 O13 1_555 1_555
C39 C40 1_555 1_555
C40 C41 1_555 1_555
H34 C45 1_555 1_555
C46 C45 1_555 1_555
C47 C46 1_555 1_555
C50 C46 1_555 1_555
H38 C50 1_555 1_555
C51 C40 1_555 1_555
H39 C51 1_555 1_555
C58 H46 1_555 1_555
O13 C39 1_555 1_555
O14 C39 1_555 1_555
O15 C58 1_555 1_555
O16 Zn6 1_555 1_555
O17 C44 1_555 1_555
C44 C51 1_555 1_555
C45 O17 1_555 1_555
C49 C50 1_555 1_555
C58 O16 1_555 1_555
H36 C48 1_555 1_555
N8 C48 1_555 1_555
Zn7 N8 1_555 1_555
C43_2 C42_2 1_555 1_555
H32_2 C43_2 1_555 1_555
C52_2 H40_2 1_555 1_555
H41_2 C52_2 1_555 1_555
C53_2 C52_2 1_555 1_555
C54_2 C53_2 1_555 1_555
H42_2 C54_2 1_555 1_555
C55_2 C54_2 1_555 1_555
H43_2 C55_2 1_555 1_555
C56_2 H44_2 1_555 1_555
C57_2 C53_2 1_555 1_555
H45_2 C57_2 1_555 1_555
N7_2 C55_2 1_555 1_555
O18_2 C42_2 1_555 1_555
Zn8_2 N7_2 1_555 1_555
C52_2 O18_2 1_555 1_555
C56_2 C57_2 1_555 1_555
C56_2 N7_2 1_555 1_555
Zn7 O13_2 1_555 1_555
C39_2 C40_2 1_555 1_555
C40_2 C41_2 1_555 1_555
H34_2 C45_2 1_555 1_555
C46_2 C45_2 1_555 1_555
C47_2 C46_2 1_555 1_555
C48_2 C47_2 1_555 1_555
H36_2 C48_2 1_555 1_555
C49_2 H37_2 1_555 1_555
C50_2 C46_2 1_555 1_555
H38_2 C50_2 1_555 1_555
C51_2 C40_2 1_555 1_555
H39_2 C51_2 1_555 1_555
N10 C48_2 1_555 1_555
O13_2 C39_2 1_555 1_555
O14_2 C39_2 1_555 1_555
O16_2 Zn7 1_555 1_555
O17_2 C44_2 1_555 1_555
N9_2 Zn7 1_555 1_555
C44_2 C51_2 1_555 1_555
C45_2 O17_2 1_555 1_555
C49_2 C50_2 1_555 1_555
C49_2 N10 1_555 1_555
Zn8 O13_3 1_555 1_555
C39_3 C40_3 1_555 1_555
C40_3 C41_3 1_555 1_555
C41_3 H31_3 1_555 1_555
C42_3 C41_3 1_555 1_555
C43_3 C42_3 1_555 1_555
H32_3 C43_3 1_555 1_555
C44_3 C43_3 1_555 1_555
C45_3 H33_3 1_555 1_555
H34_3 C45_3 1_555 1_555
C46_3 C45_3 1_555 1_555
C47_3 C46_3 1_555 1_555
H35_3 C47_3 1_555 1_555
C50_3 C46_3 1_555 1_555
H38_3 C50_3 1_555 1_555
C51_3 C40_3 1_555 1_555
H39_3 C51_3 1_555 1_555
C52_3 H40_3 1_555 1_555
H41_3 C52_3 1_555 1_555
C53_3 C52_3 1_555 1_555
C54_3 C53_3 1_555 1_555
H42_3 C54_3 1_555 1_555
C55_3 C54_3 1_555 1_555
C56_3 H44_3 1_555 1_555
C57_3 C53_3 1_555 1_555
H45_3 C57_3 1_555 1_555
C58_2 H46_2 1_555 1_555
N9 C55_3 1_555 1_555
O13_3 C39_3 1_555 1_555
O14_3 C39_3 1_555 1_555
O15_2 C58_2 1_555 1_555
O16_3 Zn8 1_555 1_555
O17_3 C44_3 1_555 1_555
O18_3 C42_3 1_555 1_555
C44_3 C51_3 1_555 1_555
C45_3 O17_3 1_555 1_555
C49_3 C50_3 1_555 1_555
C52_3 O18_3 1_555 1_555
C56_3 C57_3 1_555 1_555
C56_3 N9 1_555 1_555
C58_2 O16_3 1_555 1_555
H36_3 C48_3 1_555 1_555
N8_2 C48_3 1_555 1_555
Zn8_2 N8_2 1_555 1_555
Zn8_2 O13_4 1_555 1_555
C39_4 C40_4 1_555 1_555
C40_4 C41_4 1_555 1_555
C41_4 H31_4 1_555 1_555
C42_4 C41_4 1_555 1_555
C43_4 C42_4 1_555 1_555
H32_4 C43_4 1_555 1_555
C44_4 C43_4 1_555 1_555
C45_4 H33_4 1_555 1_555
H34_4 C45_4 1_555 1_555
C46_4 C45_4 1_555 1_555
C47_4 C46_4 1_555 1_555
H35_4 C47_4 1_555 1_555
C48_4 C47_4 1_555 1_555
H36_4 C48_4 1_555 1_555
C49_4 H37_4 1_555 1_555
C50_4 C46_4 1_555 1_555
H38_4 C50_4 1_555 1_555
C51_4 C40_4 1_555 1_555
H39_4 C51_4 1_555 1_555
C52_4 H40_4 1_555 1_555
H41_4 C52_4 1_555 1_555
C53_4 C52_4 1_555 1_555
C54_4 C53_4 1_555 1_555
H42_4 C54_4 1_555 1_555
C55_4 C54_4 1_555 1_555
H43_4 C55_4 1_555 1_555
C56_4 H44_4 1_555 1_555
C57_4 C53_4 1_555 1_555
H45_4 C57_4 1_555 1_555
N9_2 C55_4 1_555 1_555
N10_2 C48_4 1_555 1_555
O13_4 C39_4 1_555 1_555
O14_4 C39_4 1_555 1_555
O16_4 Zn8_2 1_555 1_555
O17_4 C44_4 1_555 1_555
O18_4 C42_4 1_555 1_555
C44_4 C51_4 1_555 1_555
C45_4 O17_4 1_555 1_555
C49_4 C50_4 1_555 1_555
C49_4 N10_2 1_555 1_555
C52_4 O18_4 1_555 1_555
C56_4 C57_4 1_555 1_555
C56_4 N9_2 1_555 1_555
H36_5 C48_5 1_555 1_555
N8_3 C48_5 1_555 1_555
Zn7_2 N8_3 1_555 1_555
Zn6_2 O13_5 1_555 1_555
C39_5 C40_5 1_555 1_555
C40_5 C41_5 1_555 1_555
C41_5 H31_5 1_555 1_555
C42_5 C41_5 1_555 1_555
C43_5 C42_5 1_555 1_555
H32_5 C43_5 1_555 1_555
C44_5 C43_5 1_555 1_555
C45_5 H33_5 1_555 1_555
H34_5 C45_5 1_555 1_555
C46_5 C45_5 1_555 1_555
C47_5 C46_5 1_555 1_555
H35_5 C47_5 1_555 1_555
C50_5 C46_5 1_555 1_555
H38_5 C50_5 1_555 1_555
C51_5 C40_5 1_555 1_555
H39_5 C51_5 1_555 1_555
C52_5 H40_5 1_555 1_555
H41_5 C52_5 1_555 1_555
C53_5 C52_5 1_555 1_555
C54_5 C53_5 1_555 1_555
H42_5 C54_5 1_555 1_555
C55_5 C54_5 1_555 1_555
C56_5 H44_5 1_555 1_555
C57_5 C53_5 1_555 1_555
H45_5 C57_5 1_555 1_555
C58_3 H46_3 1_555 1_555
N7_3 C55_5 1_555 1_555
O13_5 C39_5 1_555 1_555
O14_5 C39_5 1_555 1_555
O15_3 C58_3 1_555 1_555
O16_5 Zn6_2 1_555 1_555
O17_5 C44_5 1_555 1_555
O18_5 C42_5 1_555 1_555
C44_5 C51_5 1_555 1_555
C45_5 O17_5 1_555 1_555
C49_5 C50_5 1_555 1_555
C52_5 O18_5 1_555 1_555
C56_5 C57_5 1_555 1_555
C56_5 N7_3 1_555 1_555
C58_3 O16_5 1_555 1_555
Zn7_2 O13_6 1_555 1_555
C39_6 C40_6 1_555 1_555
C40_6 C41_6 1_555 1_555
C41_6 H31_6 1_555 1_555
C42_6 C41_6 1_555 1_555
C43_6 C42_6 1_555 1_555
H32_6 C43_6 1_555 1_555
C44_6 C43_6 1_555 1_555
C45_6 H33_6 1_555 1_555
H34_6 C45_6 1_555 1_555
C46_6 C45_6 1_555 1_555
C47_6 C46_6 1_555 1_555
H35_6 C47_6 1_555 1_555
C48_6 C47_6 1_555 1_555
H36_6 C48_6 1_555 1_555
C49_6 H37_6 1_555 1_555
C50_6 C46_6 1_555 1_555
H38_6 C50_6 1_555 1_555
C51_6 C40_6 1_555 1_555
H39_6 C51_6 1_555 1_555
C52_6 H40_6 1_555 1_555
H41_6 C52_6 1_555 1_555
C53_6 C52_6 1_555 1_555
C54_6 C53_6 1_555 1_555
H42_6 C54_6 1_555 1_555
C55_6 C54_6 1_555 1_555
H43_6 C55_6 1_555 1_555
C56_6 H44_6 1_555 1_555
C57_6 C53_6 1_555 1_555
H45_6 C57_6 1_555 1_555
N7_4 C55_6 1_555 1_555
N10_3 C48_6 1_555 1_555
O13_6 C39_6 1_555 1_555
O14_6 C39_6 1_555 1_555
O16_6 Zn7_2 1_555 1_555
O17_6 C44_6 1_555 1_555
O18_6 C42_6 1_555 1_555
Zn8_4 N7_4 1_555 1_555
N9_4 Zn7_2 1_555 1_555
C44_6 C51_6 1_555 1_555
C45_6 O17_6 1_555 1_555
C49_6 C50_6 1_555 1_555
C49_6 N10_3 1_555 1_555
C52_6 O18_6 1_555 1_555
C56_6 C57_6 1_555 1_555
C56_6 N7_4 1_555 1_555
H36_7 C48_7 1_555 1_555
N8_4 C48_7 1_555 1_555
Zn8_4 N8_4 1_555 1_555
Zn8_3 O13_7 1_555 1_555
C39_7 C40_7 1_555 1_555
C40_7 C41_7 1_555 1_555
H34_7 C45_7 1_555 1_555
C46_7 C45_7 1_555 1_555
C47_7 C46_7 1_555 1_555
C50_7 C46_7 1_555 1_555
H38_7 C50_7 1_555 1_555
C51_7 C40_7 1_555 1_555
H39_7 C51_7 1_555 1_555
C58_4 H46_4 1_555 1_555
O13_7 C39_7 1_555 1_555
O14_7 C39_7 1_555 1_555
O15_4 C58_4 1_555 1_555
O16_7 Zn8_3 1_555 1_555
O17_7 C44_7 1_555 1_555
C44_7 C51_7 1_555 1_555
C45_7 O17_7 1_555 1_555
C49_7 C50_7 1_555 1_555
C58_4 O16_7 1_555 1_555
C43_7 C42_7 1_555 1_555
H32_7 C43_7 1_555 1_555
C52_7 H40_7 1_555 1_555
H41_7 C52_7 1_555 1_555
C53_7 C52_7 1_555 1_555
C54_7 C53_7 1_555 1_555
H42_7 C54_7 1_555 1_555
C55_7 C54_7 1_555 1_555
C56_7 H44_7 1_555 1_555
C57_7 C53_7 1_555 1_555
H45_7 C57_7 1_555 1_555
N9_3 C55_7 1_555 1_555
O18_7 C42_7 1_555 1_555
C52_7 O18_7 1_555 1_555
C56_7 C57_7 1_555 1_555
C56_7 N9_3 1_555 1_555
Zn8_4 O13_8 1_555 1_555
C39_8 C40_8 1_555 1_555
C40_8 C41_8 1_555 1_555
H34_8 C45_8 1_555 1_555
C46_8 C45_8 1_555 1_555
C47_8 C46_8 1_555 1_555
C48_8 C47_8 1_555 1_555
H36_8 C48_8 1_555 1_555
C49_8 H37_8 1_555 1_555
C50_8 C46_8 1_555 1_555
H38_8 C50_8 1_555 1_555
C51_8 C40_8 1_555 1_555
H39_8 C51_8 1_555 1_555
N10_4 C48_8 1_555 1_555
O13_8 C39_8 1_555 1_555
O14_8 C39_8 1_555 1_555
O16_8 Zn8_4 1_555 1_555
O17_8 C44_8 1_555 1_555
C44_8 C51_8 1_555 1_555
C45_8 O17_8 1_555 1_555
C49_8 C50_8 1_555 1_555
C49_8 N10_4 1_555 1_555
C43_8 C42_8 1_555 1_555
H32_8 C43_8 1_555 1_555
C52_8 H40_8 1_555 1_555
H41_8 C52_8 1_555 1_555
C53_8 C52_8 1_555 1_555
C54_8 C53_8 1_555 1_555
H42_8 C54_8 1_555 1_555
C55_8 C54_8 1_555 1_555
H43_8 C55_8 1_555 1_555
C56_8 H44_8 1_555 1_555
C57_8 C53_8 1_555 1_555
H45_8 C57_8 1_555 1_555
N9_4 C55_8 1_555 1_555
O18_8 C42_8 1_555 1_555
C52_8 O18_8 1_555 1_555
C56_8 C57_8 1_555 1_555
C56_8 N9_4 1_555 1_555
C58_5 H46_5 1_555 1_555
O15_5 C58_5 1_555 1_555
C58_6 H46_6 1_555 1_555
O15_6 C58_6 1_555 1_555
C58_7 H46_7 1_555 1_555
O15_7 C58_7 1_555 1_555
C58_8 H46_8 1_555 1_555
O15_8 C58_8 1_555 1_555

#END
