
###############################################################################
#
# This file contains modified crystal structure data generated from the
# MOF subset of the Cambridge Structural Database (CSD) v543 
# hosted by the Cambridge Crystallographic Data Centre (CCDC).
#
# This work is licensed under the Creative Commons
# Attribution-NonCommercial-ShareAlike 4.0 International License.
# To view a copy of this license, visit
# http://creativecommons.org/licenses/by-nc-sa/4.0/
# or send a letter to
# Creative Commons, PO Box 1866, Mountain View, CA 94042, USA.
#
# CIF created using the CSD Python API on 29 September 2022
# The structure has been converted into the P1 space group
# The structure has a 3D framework
# The original CSD entry XEMRUF is in the monoclinic crystal system
# The framework has been calculated to contain at least 10.0% void space
# The void calculation uses a probe of radius 1.32A, grid spacing 0.4
#
###############################################################################

data_XEMRUF
_chemical_formula_moiety         '(C168 H112 Mn8 N40 O36)n'
_symmetry_cell_setting           triclinic
_symmetry_space_group_name_H-M   'P 1'
_symmetry_Int_Tables_number      1
_space_group_name_Hall           'P 1'
loop_
_symmetry_equiv_pos_site_id
_symmetry_equiv_pos_as_xyz
1 x,y,z
_cell_length_a                   10.108(3)
_cell_length_b                   36.981(10)
_cell_length_c                   15.237(4)
_cell_angle_alpha                90
_cell_angle_beta                 100.592(5)
_cell_angle_gamma                90
_cell_volume                     5598.6
loop_
_atom_site_label
_atom_site_type_symbol
_atom_site_fract_x
_atom_site_fract_y
_atom_site_fract_z
Mn2 Mn 0.28336(3) 0.09875(2) 0.28996(2)
O1 O 0.28232(14) 0.15466(3) 0.31746(9)
O2 O 0.16036(12) 0.20376(3) 0.31091(9)
O3 O 0.10590(13) 0.06775(3) 0.26544(9)
O4 O 0.00283(14) 0.11165(3) 0.32391(10)
O7 O 0.77483(15) 0.16662(4) 0.31831(12)
O8 O 0.86256(13) 0.21978(4) 0.31547(11)
N5 N 0.35639(16) 0.32454(4) 0.28073(10)
N6 N 0.18344(17) 0.35539(4) 0.30576(11)
C2 C 0.2752(2) 0.35000(5) 0.38073(13)
N8 N 0.26312(18) 0.38645(5) 0.64405(11)
C3 C 0.00595(18) 0.08083(5) 0.29124(12)
C4 C 0.62440(18) 0.21626(5) 0.30001(12)
C8 C 0.38809(17) 0.21027(5) 0.29891(11)
C9 C 0.26883(18) 0.18800(5) 0.30960(11)
N10 N 0.38199(17) 0.33167(4) 0.36893(10)
C11 C 0.51535(17) 0.19507(5) 0.30868(12)
H2 H 0.5272 0.1705 0.3211
C12 C 0.47985(18) 0.26798(5) 0.26872(12)
C14 C 0.37138(18) 0.24660(5) 0.27905(11)
H3 H 0.2861 0.2568 0.2725
C16 C 0.76270(19) 0.20008(5) 0.31181(14)
C17 C 0.2367(2) 0.33842(5) 0.24360(13)
C19 C 0.60622(18) 0.25272(5) 0.27998(12)
H6 H 0.6799 0.2670 0.2741
C20 C 0.0958(2) 0.36339(5) 0.10811(13)
H7 H 0.0795 0.3838 0.1402
C21 C 0.4621(2) 0.30732(5) 0.24309(13)
H8 H 0.5461 0.3200 0.2635
H9 H 0.4409 0.3093 0.1785
C22 C 0.1711(2) 0.38673(6) 0.48829(14)
H10 H 0.1062 0.3958 0.4423
C23 C 0.1742(2) 0.33532(5) 0.14975(12)
C25 C 0.0428(2) 0.36063(5) 0.01896(13)
C27 C 0.2647(2) 0.36270(5) 0.47026(13)
C30 C 0.1316(2) 0.30478(5) 0.01034(13)
C31 C 0.1879(2) 0.30514(5) 0.09889(13)
H16 H 0.2354 0.2851 0.1249
C34 C 0.3578(3) 0.35044(7) 0.54205(14)
H19 H 0.4229 0.3337 0.5333
C41 C 0.1731(2) 0.39753(6) 0.57518(14)
H25 H 0.1071 0.4136 0.5859
C42 C 0.3540(3) 0.36295(7) 0.62568(15)
H26 H 0.4187 0.3546 0.6727
Mn3 Mn 0.99514(3) 0.16854(2) 0.31806(2)
Mn7 Mn 0.28336(3) 0.40125(2) 0.78996(2)
O10 O 0.50876(14) 0.10117(3) 0.30270(11)
O11 O 0.41275(13) 0.04857(4) 0.28074(11)
N11 N 0.30881(16) 0.09043(4) 0.43832(10)
N12 N 0.06121(17) 0.16770(4) 0.46906(10)
N13 N 0.26312(18) 0.11355(5) 0.14405(11)
N7 N 0.06121(17) 0.33230(4) 0.96906(10)
H15 H 0.1429 0.2843 0.9772
C6 C 0.88363(17) 0.05770(5) 0.28483(11)
C7 C 0.76221(18) 0.07261(5) 0.29472(12)
H1 H 0.7572 0.0970 0.3081
C10 C 0.51522(19) 0.06791(5) 0.29034(13)
C13 C 0.64810(18) 0.05137(5) 0.28483(12)
C15 C 0.65716(18) 0.01480(5) 0.26728(12)
H4 H 0.5805 0.0004 0.2610
C18 C 0.89083(18) 0.02124(5) 0.26716(12)
H5 H 0.9728 0.0112 0.2607
O9 O 0.97043(19) 0.16558(6) 0.17619(11)
H27 H 0.8985 0.1558 0.1560
H28 H 0.9874(18) 0.1807(5) 0.1402(14)
H11 H 0.9909 0.3797 0.9918
Mn4 Mn 0.99514(3) 0.33146(2) 0.81806(2)
N1 N 0.30881(16) 0.40957(4) 0.93832(10)
C29 C 0.2589(2) 0.43729(5) 0.97662(14)
H14 H 0.2040 0.4535 0.9401
C32 C 0.3861(2) 0.38665(6) 0.99177(14)
H17 H 0.4215 0.3669 0.9663
N3 N 0.39634(18) 0.06420(4) 0.86029(10)
C1 C 0.3985(2) 0.07774(5) 0.71909(12)
N4 N 0.50503(17) 0.09371(4) 0.76555(11)
C5 C 0.22191(18) 0.00053(4) 0.74101(12)
N9 N 0.33117(17) 0.06021(4) 0.77492(10)
C24 C 0.5989(2) 0.09789(5) 0.92553(14)
C26 C 0.4993(2) 0.08469(5) 0.85038(13)
C28 C 0.20600(19) 0.04031(5) 0.75839(14)
H12 H 0.1623 0.0430 0.8096
H13 H 0.1474 0.0509 0.7073
C29_2 C 0.2589(2) 0.06271(5) 0.47662(14)
H14_2 H 0.2040 0.0465 0.4401
C32_2 C 0.3861(2) 0.11335(6) 0.49177(14)
H17_2 H 0.4215 0.1331 0.4663
C36 C 0.7048(2) 0.11833(6) 0.90985(15)
H21 H 0.7159 0.1232 0.8517
C37 C 0.7945(3) 0.13155(7) 0.98115(17)
H22 H 0.8677 0.1447 0.9695
C38 C 0.2830(2) 0.05653(5) 0.56669(13)
H23 H 0.2461 0.0365 0.5902
C39 C 0.4165(2) 0.10936(5) 0.58247(13)
H24 H 0.4725 0.1259 0.6172
C40 C 0.3634(2) 0.08060(5) 0.62210(12)
C34_2 C 0.3578(3) 0.14956(7) 0.04205(14)
H19_2 H 0.4229 0.1663 0.0333
C41_2 C 0.1731(2) 0.10247(6) 0.07518(14)
H25_2 H 0.1071 0.0864 0.0859
C42_2 C 0.3540(3) 0.13705(7) 0.12568(15)
H26_2 H 0.4187 0.1454 0.1727
O1_2 O 0.28232(14) 0.34534(3) 0.81746(9)
O2_2 O 0.16036(12) 0.29624(3) 0.81091(9)
O3_2 O 0.10590(13) 0.43225(3) 0.76544(9)
O4_2 O 0.00283(14) 0.38835(3) 0.82391(10)
O7_2 O 0.77483(15) 0.33338(4) 0.81831(12)
O8_2 O 0.86256(13) 0.28022(4) 0.81547(11)
N5_2 N 0.35639(16) 0.17546(4) 0.78073(10)
N6_2 N 0.18344(17) 0.14461(4) 0.80576(11)
C2_2 C 0.2752(2) 0.15000(5) 0.88073(13)
C3_2 C 0.00595(18) 0.41917(5) 0.79124(12)
C4_2 C 0.62440(18) 0.28374(5) 0.80001(12)
C8_2 C 0.38809(17) 0.28973(5) 0.79891(11)
C9_2 C 0.26883(18) 0.31200(5) 0.80960(11)
N10_2 N 0.38199(17) 0.16833(4) 0.86893(10)
C11_2 C 0.51535(17) 0.30493(5) 0.80868(12)
H2_2 H 0.5272 0.3295 0.8211
C12_2 C 0.47985(18) 0.23202(5) 0.76872(12)
C14_2 C 0.37138(18) 0.25340(5) 0.77905(11)
H3_2 H 0.2861 0.2432 0.7725
C16_2 C 0.76270(19) 0.29992(5) 0.81181(14)
C17_2 C 0.2367(2) 0.16158(5) 0.74360(13)
C19_2 C 0.60622(18) 0.24728(5) 0.77998(12)
H6_2 H 0.6799 0.2330 0.7741
C20_2 C 0.0958(2) 0.13661(5) 0.60811(13)
H7_2 H 0.0795 0.1162 0.6402
C21_2 C 0.4621(2) 0.19268(5) 0.74309(13)
H8_2 H 0.5461 0.1800 0.7635
H9_2 H 0.4409 0.1907 0.6785
C22_2 C 0.1711(2) 0.11327(6) 0.98829(14)
H10_2 H 0.1062 0.1042 0.9423
C23_2 C 0.1742(2) 0.16468(5) 0.64975(12)
C25_2 C 0.0428(2) 0.13937(5) 0.51896(13)
C27_2 C 0.2647(2) 0.13730(5) 0.97026(13)
C30_2 C 0.1316(2) 0.19522(5) 0.51034(13)
H15_2 H 0.1429 0.2157 0.4772
C31_2 C 0.1879(2) 0.19486(5) 0.59889(13)
H16_2 H 0.2354 0.2149 0.6249
O10_2 O 0.50876(14) 0.39883(3) 0.80270(11)
O11_2 O 0.41275(13) 0.45143(4) 0.78074(11)
N2 N 0.2167(3) 0.62678(7) 0.43550(15)
N3_2 N 0.60366(18) 0.56420(4) 0.63971(10)
C1_2 C 0.6015(2) 0.57774(5) 0.78091(12)
N4_2 N 0.49497(17) 0.59371(4) 0.73445(11)
C5_2 C 0.77809(18) 0.50053(4) 0.75899(12)
C6_2 C 0.88363(17) 0.44230(5) 0.78483(11)
C7_2 C 0.76221(18) 0.42739(5) 0.79472(12)
H1_2 H 0.7572 0.4030 0.8081
C10_2 C 0.51522(19) 0.43209(5) 0.79034(13)
N9_2 N 0.66883(17) 0.56021(4) 0.72508(10)
C13_2 C 0.64810(18) 0.44863(5) 0.78483(12)
C15_2 C 0.65716(18) 0.48520(5) 0.76728(12)
H4_2 H 0.5805 0.4996 0.7610
C18_2 C 0.89083(18) 0.47876(5) 0.76716(12)
H5_2 H 0.9728 0.4888 0.7607
C24_2 C 0.4011(2) 0.59789(5) 0.57447(14)
H11_2 H 0.9909 0.1203 0.4918
C26_2 C 0.5007(2) 0.58469(5) 0.64962(13)
C28_2 C 0.79400(19) 0.54031(5) 0.74161(14)
H12_2 H 0.8377 0.5430 0.6904
H13_2 H 0.8526 0.5509 0.7927
C33 C 0.3205(4) 0.60767(9) 0.42092(18)
H18 H 0.3313 0.6044 0.3621
C35 C 0.4138(3) 0.59226(7) 0.48730(16)
H20 H 0.4839 0.5783 0.4736
C36_2 C 0.2952(2) 0.61833(6) 0.59015(15)
H21_2 H 0.2841 0.6232 0.6483
C37_2 C 0.2055(3) 0.63155(7) 0.51885(17)
H22_2 H 0.1323 0.6447 0.5305
C38_2 C 0.7170(2) 0.55653(5) 0.93331(13)
H23_2 H 0.7539 0.5365 0.9098
C39_2 C 0.5835(2) 0.60936(5) 0.91753(13)
H24_2 H 0.5275 0.6259 0.8828
C40_2 C 0.6366(2) 0.58060(5) 0.87790(12)
O9_2 O 0.97043(19) 0.33442(6) 0.67619(11)
H27_2 H 0.8985 0.3442 0.6560
H28_2 H 0.9874(18) 0.3193(5) 0.6402(14)
N1_2 N 0.69119(16) 0.90957(4) 0.56168(10)
N3_3 N 0.60366(18) 0.93580(4) 0.13971(10)
C1_3 C 0.6015(2) 0.92226(5) 0.28091(12)
N4_3 N 0.49497(17) 0.90629(4) 0.23445(11)
C5_3 C 0.77809(18) 0.99947(4) 0.25899(12)
N9_3 N 0.66883(17) 0.93979(4) 0.22508(10)
C24_3 C 0.4011(2) 0.90211(5) 0.07447(14)
C26_3 C 0.5007(2) 0.91531(5) 0.14962(13)
C28_3 C 0.79400(19) 0.95969(5) 0.24161(14)
H12_3 H 0.8377 0.9570 0.1904
H13_3 H 0.8526 0.9491 0.2927
C29_3 C 0.7411(2) 0.93729(5) 0.52338(14)
H14_3 H 0.7960 0.9535 0.5599
C32_3 C 0.6139(2) 0.88665(6) 0.50823(14)
H17_3 H 0.5785 0.8669 0.5337
C36_3 C 0.2952(2) 0.88167(6) 0.09015(15)
H21_3 H 0.2841 0.8768 0.1483
C37_3 C 0.2055(3) 0.86845(7) 0.01885(17)
H22_3 H 0.1323 0.8553 0.0305
C38_3 C 0.7170(2) 0.94347(5) 0.43331(13)
H23_3 H 0.7539 0.9635 0.4098
C39_3 C 0.5835(2) 0.89064(5) 0.41753(13)
H24_3 H 0.5275 0.8741 0.3828
C40_3 C 0.6366(2) 0.91940(5) 0.37790(12)
Mn6 Mn 0.71664(3) 0.90125(2) 0.71004(2)
Mn1 Mn 0.00486(3) 0.66854(2) 0.18194(2)
O5 O 0.49124(14) 0.60117(3) 0.19730(11)
O6 O 0.58725(13) 0.54857(4) 0.21926(11)
N2_2 N 0.7833(3) 0.37322(7) 0.56450(15)
N3_4 N 0.39634(18) 0.43580(4) 0.36029(10)
C1_4 C 0.3985(2) 0.42226(5) 0.21909(12)
N4_4 N 0.50503(17) 0.40629(4) 0.26555(11)
C5_4 C 0.22191(18) 0.49947(4) 0.24101(12)
C6_3 C 0.11637(17) 0.55770(5) 0.21517(11)
C7_3 C 0.23779(18) 0.57261(5) 0.20528(12)
H1_3 H 0.2428 0.5970 0.1919
C10_3 C 0.48478(19) 0.56791(5) 0.20966(13)
N9_4 N 0.33117(17) 0.43979(4) 0.27492(10)
C13_3 C 0.35190(18) 0.55137(5) 0.21517(12)
C15_3 C 0.34284(18) 0.51480(5) 0.23272(12)
H4_3 H 0.4195 0.5004 0.2390
C18_3 C 0.10917(18) 0.52124(5) 0.23284(12)
H5_3 H 0.0272 0.5112 0.2393
C24_4 C 0.5989(2) 0.40211(5) 0.42553(14)
H11_3 H 0.0091 0.8797 0.5082
C26_4 C 0.4993(2) 0.41531(5) 0.35038(13)
C28_4 C 0.20600(19) 0.45969(5) 0.25839(14)
H12_4 H 0.1623 0.4570 0.3096
H13_4 H 0.1474 0.4491 0.2073
C33_2 C 0.6795(4) 0.39233(9) 0.57908(18)
H18_2 H 0.6687 0.3956 0.6379
C35_2 C 0.5862(3) 0.40774(7) 0.51270(16)
H20_2 H 0.5161 0.4217 0.5264
C36_4 C 0.7048(2) 0.38167(6) 0.40985(15)
H21_4 H 0.7159 0.3768 0.3517
C37_4 C 0.7945(3) 0.36845(7) 0.48115(17)
H22_4 H 0.8677 0.3553 0.4695
C38_4 C 0.2830(2) 0.44347(5) 0.06669(13)
H23_4 H 0.2461 0.4635 0.0902
C39_4 C 0.4165(2) 0.39064(5) 0.08247(13)
H24_4 H 0.4725 0.3741 0.1172
C40_4 C 0.3634(2) 0.41940(5) 0.12210(12)
O9_3 O 0.02957(19) 0.66558(6) 0.32381(11)
H27_3 H 0.1015 0.6558 0.3440
H28_3 H 0.0126(18) 0.6807(5) 0.3598(14)
Mn4_2 Mn 0.00486(3) 0.83146(2) 0.68194(2)
Mn5 Mn 0.71664(3) 0.59875(2) 0.21004(2)
O12 O 0.22517(15) 0.66662(4) 0.18169(12)
O13 O 0.13744(13) 0.71978(4) 0.18453(11)
O1_3 O 0.71768(14) 0.65466(3) 0.18254(9)
O2_3 O 0.83964(12) 0.70376(3) 0.18909(9)
O3_3 O 0.89410(13) 0.56775(3) 0.23456(9)
O4_3 O 0.99717(14) 0.61165(3) 0.17609(10)
N5_3 N 0.64361(16) 0.82454(4) 0.21927(10)
N6_3 N 0.81656(17) 0.85539(4) 0.19424(11)
C2_3 C 0.7248(2) 0.85000(5) 0.11927(13)
N7_2 N 0.93879(17) 0.83230(4) 0.53094(10)
C3_3 C 0.99405(18) 0.58083(5) 0.20876(12)
C4_3 C 0.37560(18) 0.71626(5) 0.19999(12)
C8_3 C 0.61191(17) 0.71027(5) 0.20109(11)
C9_3 C 0.73117(18) 0.68800(5) 0.19040(11)
N10_3 N 0.61801(17) 0.83167(4) 0.13107(10)
C11_3 C 0.48465(17) 0.69507(5) 0.19132(12)
H2_3 H 0.4728 0.6705 0.1789
C12_3 C 0.52015(18) 0.76798(5) 0.23128(12)
C14_3 C 0.62862(18) 0.74660(5) 0.22095(11)
H3_3 H 0.7139 0.7568 0.2275
C16_3 C 0.23730(19) 0.70008(5) 0.18819(14)
C17_3 C 0.7633(2) 0.83842(5) 0.25640(13)
C19_3 C 0.39378(18) 0.75272(5) 0.22002(12)
H6_3 H 0.3201 0.7670 0.2259
C20_3 C 0.9042(2) 0.86339(5) 0.39189(13)
H7_3 H 0.9205 0.8838 0.3598
C21_3 C 0.5379(2) 0.80732(5) 0.25691(13)
H8_3 H 0.4539 0.8200 0.2365
H9_3 H 0.5591 0.8093 0.3215
C22_3 C 0.8289(2) 0.88673(6) 0.01171(14)
H10_3 H 0.8938 0.8958 0.0577
C23_3 C 0.8258(2) 0.83532(5) 0.35025(12)
C25_3 C 0.9572(2) 0.86063(5) 0.48104(13)
C27_3 C 0.7353(2) 0.86270(5) 0.02974(13)
C30_3 C 0.8684(2) 0.80478(5) 0.48966(13)
H15_3 H 0.8571 0.7843 0.5228
C31_3 C 0.8121(2) 0.80514(5) 0.40111(13)
H16_3 H 0.7646 0.7851 0.3751
N11_2 N 0.69119(16) 0.59043(4) 0.06168(10)
N12_2 N 0.93879(17) 0.66770(4) 0.03094(10)
N13_2 N 0.73688(18) 0.61355(5) 0.35595(11)
N8_2 N 0.73688(18) 0.88645(5) 0.85595(11)
C34_3 C 0.6422(3) 0.85044(7) 0.95795(14)
H19_3 H 0.5771 0.8337 0.9667
C41_3 C 0.8269(2) 0.89753(6) 0.92482(14)
H25_3 H 0.8929 0.9136 0.9141
C42_3 C 0.6460(3) 0.86295(7) 0.87432(15)
H26_3 H 0.5813 0.8546 0.8273
H11_4 H 0.0091 0.6203 0.0082
O5_2 O 0.49124(14) 0.89883(3) 0.69730(11)
O6_2 O 0.58725(13) 0.95143(4) 0.71926(11)
C6_4 C 0.11637(17) 0.94230(5) 0.71517(11)
C7_4 C 0.23779(18) 0.92739(5) 0.70528(12)
H1_4 H 0.2428 0.9030 0.6919
C10_4 C 0.48478(19) 0.93209(5) 0.70966(13)
C13_4 C 0.35190(18) 0.94863(5) 0.71517(12)
C15_4 C 0.34284(18) 0.98520(5) 0.73272(12)
H4_4 H 0.4195 0.9996 0.7390
C18_4 C 0.10917(18) 0.97876(5) 0.73284(12)
H5_4 H 0.0272 0.9888 0.7393
O9_4 O 0.02957(19) 0.83442(6) 0.82381(11)
H27_4 H 0.1015 0.8442 0.8440
H28_4 H 0.0126(18) 0.8193(5) 0.8598(14)
O12_2 O 0.22517(15) 0.83338(4) 0.68169(12)
O13_2 O 0.13744(13) 0.78022(4) 0.68453(11)
H15_4 H 0.8571 0.7157 0.0228
O1_4 O 0.71768(14) 0.84534(3) 0.68254(9)
O2_4 O 0.83964(12) 0.79624(3) 0.68909(9)
O3_4 O 0.89410(13) 0.93225(3) 0.73456(9)
O4_4 O 0.99717(14) 0.88835(3) 0.67609(10)
N5_4 N 0.64361(16) 0.67546(4) 0.71927(10)
N6_4 N 0.81656(17) 0.64461(4) 0.69424(11)
C2_4 C 0.7248(2) 0.65000(5) 0.61927(13)
C3_4 C 0.99405(18) 0.91917(5) 0.70876(12)
C4_4 C 0.37560(18) 0.78374(5) 0.69999(12)
C8_4 C 0.61191(17) 0.78973(5) 0.70109(11)
C9_4 C 0.73117(18) 0.81200(5) 0.69040(11)
N10_4 N 0.61801(17) 0.66833(4) 0.63107(10)
C11_4 C 0.48465(17) 0.80493(5) 0.69132(12)
H2_4 H 0.4728 0.8295 0.6789
C12_4 C 0.52015(18) 0.73202(5) 0.73128(12)
C14_4 C 0.62862(18) 0.75340(5) 0.72095(11)
H3_4 H 0.7139 0.7432 0.7275
C16_4 C 0.23730(19) 0.79992(5) 0.68819(14)
C17_4 C 0.7633(2) 0.66158(5) 0.75640(13)
C19_4 C 0.39378(18) 0.74728(5) 0.72002(12)
H6_4 H 0.3201 0.7330 0.7259
C20_4 C 0.9042(2) 0.63661(5) 0.89189(13)
H7_4 H 0.9205 0.6162 0.8598
C21_4 C 0.5379(2) 0.69268(5) 0.75691(13)
H8_4 H 0.4539 0.6800 0.7365
H9_4 H 0.5591 0.6907 0.8215
C22_4 C 0.8289(2) 0.61327(6) 0.51171(14)
H10_4 H 0.8938 0.6042 0.5577
C23_4 C 0.8258(2) 0.66468(5) 0.85025(12)
C25_4 C 0.9572(2) 0.63937(5) 0.98104(13)
C27_4 C 0.7353(2) 0.63730(5) 0.52974(13)
C30_4 C 0.8684(2) 0.69522(5) 0.98966(13)
C31_4 C 0.8121(2) 0.69486(5) 0.90111(13)
H16_4 H 0.7646 0.7149 0.8751
C34_4 C 0.6422(3) 0.64956(7) 0.45795(14)
H19_4 H 0.5771 0.6663 0.4667
C41_4 C 0.8269(2) 0.60247(6) 0.42482(14)
H25_4 H 0.8929 0.5864 0.4141
C42_4 C 0.6460(3) 0.63705(7) 0.37432(15)
H26_4 H 0.5813 0.6454 0.3273
C29_4 C 0.7411(2) 0.56271(5) 0.02338(14)
H14_4 H 0.7960 0.5465 0.0599
C32_4 C 0.6139(2) 0.61335(6) 0.00823(14)
H17_4 H 0.5785 0.6331 0.0337
N2_3 N 0.2167(3) 0.87322(7) 0.93550(15)
C33_3 C 0.3205(4) 0.89233(9) 0.92092(18)
H18_3 H 0.3313 0.8956 0.8621
C35_3 C 0.4138(3) 0.90774(7) 0.98730(16)
H20_3 H 0.4839 0.9217 0.9736
N2_4 N 0.7833(3) 0.12678(7) 0.06450(15)
C33_4 C 0.6795(4) 0.10767(9) 0.07908(18)
H18_4 H 0.6687 0.1044 0.1379
C35_4 C 0.5862(3) 0.09226(7) 0.01270(16)
H20_4 H 0.5161 0.0783 0.0264
loop_
_geom_bond_atom_site_label_1
_geom_bond_atom_site_label_2
_geom_bond_site_symmetry_1
_geom_bond_site_symmetry_2
Mn2 O1 1_555 1_555
O1 C9 1_555 1_555
O2 C9 1_555 1_555
O3 Mn2 1_555 1_555
O7 C16 1_555 1_555
O8 C16 1_555 1_555
N5 N10 1_555 1_555
N6 C2 1_555 1_555
C2 N10 1_555 1_555
N8 C41 1_555 1_555
C3 O3 1_555 1_555
C4 C11 1_555 1_555
C8 C9 1_555 1_555
C11 C8 1_555 1_555
H2 C11 1_555 1_555
C12 C14 1_555 1_555
C14 C8 1_555 1_555
H3 C14 1_555 1_555
C16 C4 1_555 1_555
C17 N5 1_555 1_555
C19 C4 1_555 1_555
H6 C19 1_555 1_555
C20 H7 1_555 1_555
C21 N5 1_555 1_555
H8 C21 1_555 1_555
H9 C21 1_555 1_555
C22 H10 1_555 1_555
C23 C17 1_555 1_555
C25 C20 1_555 1_555
C27 C2 1_555 1_555
C31 C23 1_555 1_555
H16 C31 1_555 1_555
C34 C27 1_555 1_555
H19 C34 1_555 1_555
C41 C22 1_555 1_555
H25 C41 1_555 1_555
C42 N8 1_555 1_555
H26 C42 1_555 1_555
Mn3 O7 1_555 1_555
Mn7 N8 1_555 1_555
O10 Mn2 1_555 1_555
O11 Mn2 1_555 1_555
N11 Mn2 1_555 1_555
N13 Mn2 1_555 1_555
O4 C3 1_555 1_555
O8 Mn3 1_555 1_555
N6 C17 1_555 1_555
C12 C19 1_555 1_555
C12 C21 1_555 1_555
C20 C23 1_555 1_555
C22 C27 1_555 1_555
C30 C31 1_555 1_555
C34 C42 1_555 1_555
O10 C10 1_555 1_555
O11 C10 1_555 1_555
C7 C6 1_555 1_555
H1 C7 1_555 1_555
C10 C13 1_555 1_555
C13 C7 1_555 1_555
C15 C13 1_555 1_555
H4 C15 1_555 1_555
H5 C18 1_555 1_555
O9 Mn3 1_555 1_555
H27 O9 1_555 1_555
H28 O9 1_555 1_555
C6 C18 1_555 1_555
N1 C29 1_555 1_555
C29 H14 1_555 1_555
C32 N1 1_555 1_555
H17 C32 1_555 1_555
Mn7 N1 1_555 1_555
N11 C29_2 1_555 1_555
N3 N9 1_555 1_555
C1 N4 1_555 1_555
N4 C26 1_555 1_555
N9 C1 1_555 1_555
C24 C26 1_555 1_555
C26 N3 1_555 1_555
C28 C5 1_555 1_555
H12 C28 1_555 1_555
H13 C28 1_555 1_555
C29_2 H14_2 1_555 1_555
C32_2 N11 1_555 1_555
H17_2 C32_2 1_555 1_555
C36 C24 1_555 1_555
H21 C36 1_555 1_555
H22 C37 1_555 1_555
C38 C29_2 1_555 1_555
H23 C38 1_555 1_555
C39 C32_2 1_555 1_555
H24 C39 1_555 1_555
C40 C1 1_555 1_555
N9 C28 1_555 1_555
C36 C37 1_555 1_555
C38 C40 1_555 1_555
C39 C40 1_555 1_555
N13 C41_2 1_555 1_555
H19_2 C34_2 1_555 1_555
H25_2 C41_2 1_555 1_555
C42_2 N13 1_555 1_555
H26_2 C42_2 1_555 1_555
C34_2 C42_2 1_555 1_555
Mn7 O1_2 1_555 1_555
O1_2 C9_2 1_555 1_555
O2_2 C9_2 1_555 1_555
O3_2 Mn7 1_555 1_555
O7_2 C16_2 1_555 1_555
O8_2 C16_2 1_555 1_555
N5_2 N10_2 1_555 1_555
N6_2 C2_2 1_555 1_555
C2_2 N10_2 1_555 1_555
N12 C25_2 1_555 1_555
C3_2 O3_2 1_555 1_555
C4_2 C11_2 1_555 1_555
C8_2 C9_2 1_555 1_555
C11_2 C8_2 1_555 1_555
H2_2 C11_2 1_555 1_555
C12_2 C14_2 1_555 1_555
C14_2 C8_2 1_555 1_555
H3_2 C14_2 1_555 1_555
C16_2 C4_2 1_555 1_555
C17_2 N5_2 1_555 1_555
C19_2 C4_2 1_555 1_555
H6_2 C19_2 1_555 1_555
C20_2 H7_2 1_555 1_555
C21_2 N5_2 1_555 1_555
H8_2 C21_2 1_555 1_555
H9_2 C21_2 1_555 1_555
C22_2 H10_2 1_555 1_555
C23_2 C17_2 1_555 1_555
C25_2 C20_2 1_555 1_555
C27_2 C2_2 1_555 1_555
C30_2 N12 1_555 1_555
H15_2 C30_2 1_555 1_555
C31_2 C23_2 1_555 1_555
H16_2 C31_2 1_555 1_555
Mn4 O7_2 1_555 1_555
O10_2 Mn7 1_555 1_555
O11_2 Mn7 1_555 1_555
O4_2 C3_2 1_555 1_555
O8_2 Mn4 1_555 1_555
N6_2 C17_2 1_555 1_555
C12_2 C19_2 1_555 1_555
C12_2 C21_2 1_555 1_555
C20_2 C23_2 1_555 1_555
C22_2 C27_2 1_555 1_555
C30_2 C31_2 1_555 1_555
O10_2 C10_2 1_555 1_555
O11_2 C10_2 1_555 1_555
N2 C33 1_555 1_555
N3_2 N9_2 1_555 1_555
C1_2 N4_2 1_555 1_555
N4_2 C26_2 1_555 1_555
C5_2 C15_2 1_555 1_555
C7_2 C6_2 1_555 1_555
H1_2 C7_2 1_555 1_555
C10_2 C13_2 1_555 1_555
N9_2 C1_2 1_555 1_555
C13_2 C7_2 1_555 1_555
C15_2 C13_2 1_555 1_555
H4_2 C15_2 1_555 1_555
C18_2 C5_2 1_555 1_555
H5_2 C18_2 1_555 1_555
C24_2 C26_2 1_555 1_555
C26_2 N3_2 1_555 1_555
C28_2 C5_2 1_555 1_555
H12_2 C28_2 1_555 1_555
H13_2 C28_2 1_555 1_555
C33 H18 1_555 1_555
C35 C24_2 1_555 1_555
H20 C35 1_555 1_555
C36_2 C24_2 1_555 1_555
H21_2 C36_2 1_555 1_555
C37_2 N2 1_555 1_555
H22_2 C37_2 1_555 1_555
H23_2 C38_2 1_555 1_555
H24_2 C39_2 1_555 1_555
C40_2 C1_2 1_555 1_555
O9_2 Mn4 1_555 1_555
H27_2 O9_2 1_555 1_555
H28_2 O9_2 1_555 1_555
C6_2 C18_2 1_555 1_555
N9_2 C28_2 1_555 1_555
C33 C35 1_555 1_555
C36_2 C37_2 1_555 1_555
C38_2 C40_2 1_555 1_555
C39_2 C40_2 1_555 1_555
N1_2 C29_3 1_555 1_555
N3_3 N9_3 1_555 1_555
C1_3 N4_3 1_555 1_555
N4_3 C26_3 1_555 1_555
N9_3 C1_3 1_555 1_555
C24_3 C26_3 1_555 1_555
C26_3 N3_3 1_555 1_555
C28_3 C5_3 1_555 1_555
H12_3 C28_3 1_555 1_555
H13_3 C28_3 1_555 1_555
C29_3 H14_3 1_555 1_555
C32_3 N1_2 1_555 1_555
H17_3 C32_3 1_555 1_555
C36_3 C24_3 1_555 1_555
H21_3 C36_3 1_555 1_555
H22_3 C37_3 1_555 1_555
C38_3 C29_3 1_555 1_555
H23_3 C38_3 1_555 1_555
C39_3 C32_3 1_555 1_555
H24_3 C39_3 1_555 1_555
C40_3 C1_3 1_555 1_555
Mn6 N1_2 1_555 1_555
N9_3 C28_3 1_555 1_555
C36_3 C37_3 1_555 1_555
C38_3 C40_3 1_555 1_555
C39_3 C40_3 1_555 1_555
O5 C10_3 1_555 1_555
O6 C10_3 1_555 1_555
N2_2 C33_2 1_555 1_555
N3_4 N9_4 1_555 1_555
C1_4 N4_4 1_555 1_555
N4_4 C26_4 1_555 1_555
C5_4 C15_3 1_555 1_555
C7_3 C6_3 1_555 1_555
H1_3 C7_3 1_555 1_555
C10_3 C13_3 1_555 1_555
N9_4 C1_4 1_555 1_555
C13_3 C7_3 1_555 1_555
C15_3 C13_3 1_555 1_555
H4_3 C15_3 1_555 1_555
C18_3 C5_4 1_555 1_555
H5_3 C18_3 1_555 1_555
C24_4 C26_4 1_555 1_555
C26_4 N3_4 1_555 1_555
C28_4 C5_4 1_555 1_555
H12_4 C28_4 1_555 1_555
H13_4 C28_4 1_555 1_555
C33_2 H18_2 1_555 1_555
C35_2 C24_4 1_555 1_555
H20_2 C35_2 1_555 1_555
C36_4 C24_4 1_555 1_555
H21_4 C36_4 1_555 1_555
C37_4 N2_2 1_555 1_555
H22_4 C37_4 1_555 1_555
H23_4 C38_4 1_555 1_555
H24_4 C39_4 1_555 1_555
C40_4 C1_4 1_555 1_555
O9_3 Mn1 1_555 1_555
H27_3 O9_3 1_555 1_555
H28_3 O9_3 1_555 1_555
Mn5 O5 1_555 1_555
O12 Mn1 1_555 1_555
O13 Mn1 1_555 1_555
O6 Mn5 1_555 1_555
C6_3 C18_3 1_555 1_555
N9_4 C28_4 1_555 1_555
C33_2 C35_2 1_555 1_555
C36_4 C37_4 1_555 1_555
C38_4 C40_4 1_555 1_555
C39_4 C40_4 1_555 1_555
Mn5 O1_3 1_555 1_555
O1_3 C9_3 1_555 1_555
O2_3 C9_3 1_555 1_555
O3_3 Mn5 1_555 1_555
O12 C16_3 1_555 1_555
O13 C16_3 1_555 1_555
N5_3 N10_3 1_555 1_555
N6_3 C2_3 1_555 1_555
C2_3 N10_3 1_555 1_555
N7_2 C25_3 1_555 1_555
C3_3 O3_3 1_555 1_555
C4_3 C11_3 1_555 1_555
C8_3 C9_3 1_555 1_555
C11_3 C8_3 1_555 1_555
H2_3 C11_3 1_555 1_555
C12_3 C14_3 1_555 1_555
C14_3 C8_3 1_555 1_555
H3_3 C14_3 1_555 1_555
C16_3 C4_3 1_555 1_555
C17_3 N5_3 1_555 1_555
C19_3 C4_3 1_555 1_555
H6_3 C19_3 1_555 1_555
C20_3 H7_3 1_555 1_555
C21_3 N5_3 1_555 1_555
H8_3 C21_3 1_555 1_555
H9_3 C21_3 1_555 1_555
C22_3 H10_3 1_555 1_555
C23_3 C17_3 1_555 1_555
C25_3 C20_3 1_555 1_555
C27_3 C2_3 1_555 1_555
C30_3 N7_2 1_555 1_555
H15_3 C30_3 1_555 1_555
C31_3 C23_3 1_555 1_555
H16_3 C31_3 1_555 1_555
N11_2 Mn5 1_555 1_555
N13_2 Mn5 1_555 1_555
O4_3 C3_3 1_555 1_555
N6_3 C17_3 1_555 1_555
C12_3 C19_3 1_555 1_555
C12_3 C21_3 1_555 1_555
C20_3 C23_3 1_555 1_555
C22_3 C27_3 1_555 1_555
C30_3 C31_3 1_555 1_555
N8_2 C41_3 1_555 1_555
H19_3 C34_3 1_555 1_555
H25_3 C41_3 1_555 1_555
C42_3 N8_2 1_555 1_555
H26_3 C42_3 1_555 1_555
Mn6 N8_2 1_555 1_555
C34_3 C42_3 1_555 1_555
O5_2 C10_4 1_555 1_555
O6_2 C10_4 1_555 1_555
C7_4 C6_4 1_555 1_555
H1_4 C7_4 1_555 1_555
C10_4 C13_4 1_555 1_555
C13_4 C7_4 1_555 1_555
C15_4 C13_4 1_555 1_555
H4_4 C15_4 1_555 1_555
H5_4 C18_4 1_555 1_555
O9_4 Mn4_2 1_555 1_555
H27_4 O9_4 1_555 1_555
H28_4 O9_4 1_555 1_555
Mn6 O5_2 1_555 1_555
O12_2 Mn4_2 1_555 1_555
O13_2 Mn4_2 1_555 1_555
O6_2 Mn6 1_555 1_555
C6_4 C18_4 1_555 1_555
Mn6 O1_4 1_555 1_555
O1_4 C9_4 1_555 1_555
O2_4 C9_4 1_555 1_555
O3_4 Mn6 1_555 1_555
O12_2 C16_4 1_555 1_555
O13_2 C16_4 1_555 1_555
N5_4 N10_4 1_555 1_555
N6_4 C2_4 1_555 1_555
C2_4 N10_4 1_555 1_555
N13_2 C41_4 1_555 1_555
C3_4 O3_4 1_555 1_555
C4_4 C11_4 1_555 1_555
C8_4 C9_4 1_555 1_555
C11_4 C8_4 1_555 1_555
H2_4 C11_4 1_555 1_555
C12_4 C14_4 1_555 1_555
C14_4 C8_4 1_555 1_555
H3_4 C14_4 1_555 1_555
C16_4 C4_4 1_555 1_555
C17_4 N5_4 1_555 1_555
C19_4 C4_4 1_555 1_555
H6_4 C19_4 1_555 1_555
C20_4 H7_4 1_555 1_555
C21_4 N5_4 1_555 1_555
H8_4 C21_4 1_555 1_555
H9_4 C21_4 1_555 1_555
C22_4 H10_4 1_555 1_555
C23_4 C17_4 1_555 1_555
C25_4 C20_4 1_555 1_555
C27_4 C2_4 1_555 1_555
C31_4 C23_4 1_555 1_555
H16_4 C31_4 1_555 1_555
C34_4 C27_4 1_555 1_555
H19_4 C34_4 1_555 1_555
C41_4 C22_4 1_555 1_555
H25_4 C41_4 1_555 1_555
C42_4 N13_2 1_555 1_555
H26_4 C42_4 1_555 1_555
O4_4 C3_4 1_555 1_555
N6_4 C17_4 1_555 1_555
C12_4 C19_4 1_555 1_555
C12_4 C21_4 1_555 1_555
C20_4 C23_4 1_555 1_555
C22_4 C27_4 1_555 1_555
C30_4 C31_4 1_555 1_555
C34_4 C42_4 1_555 1_555
N11_2 C29_4 1_555 1_555
C29_4 H14_4 1_555 1_555
C32_4 N11_2 1_555 1_555
H17_4 C32_4 1_555 1_555
N2_3 C33_3 1_555 1_555
C33_3 H18_3 1_555 1_555
H20_3 C35_3 1_555 1_555
C33_3 C35_3 1_555 1_555
N2_4 C33_4 1_555 1_555
C33_4 H18_4 1_555 1_555
H20_4 C35_4 1_555 1_555
C33_4 C35_4 1_555 1_555

#END
