
###############################################################################
#
# This file contains modified crystal structure data generated from the
# MOF subset of the Cambridge Structural Database (CSD) v543 
# hosted by the Cambridge Crystallographic Data Centre (CCDC).
#
# This work is licensed under the Creative Commons
# Attribution-NonCommercial-ShareAlike 4.0 International License.
# To view a copy of this license, visit
# http://creativecommons.org/licenses/by-nc-sa/4.0/
# or send a letter to
# Creative Commons, PO Box 1866, Mountain View, CA 94042, USA.
#
# CIF created using the CSD Python API on 29 September 2022
# The structure has been converted into the P1 space group
# The structure has a 3D framework
# The original CSD entry XENCAU is in the tetragonal crystal system
# The framework has been calculated to contain at least 10.0% void space
# The void calculation uses a probe of radius 1.32A, grid spacing 0.4
#
###############################################################################

data_XENCAU
_chemical_formula_moiety         '(C272 H304 Co15 N64 O32)n'
_symmetry_cell_setting           triclinic
_symmetry_space_group_name_H-M   'P 1'
_symmetry_Int_Tables_number      1
_space_group_name_Hall           'P 1'
loop_
_symmetry_equiv_pos_site_id
_symmetry_equiv_pos_as_xyz
1 x,y,z
_cell_length_a                   22.3175(7)
_cell_length_b                   22.3175(7)
_cell_length_c                   21.0429(10)
_cell_angle_alpha                90
_cell_angle_beta                 90
_cell_angle_gamma                90
_cell_volume                     10480.9
loop_
_atom_site_label
_atom_site_type_symbol
_atom_site_fract_x
_atom_site_fract_y
_atom_site_fract_z
Co1 Co 0.0000 0.5000 0.0000
O1 O 0.06421(12) 0.55780(12) 0.03992(15)
O2 O 0.0354(2) 0.60896(13) 0.1251(2)
C8 C 0.1052(2) 0.4099(2) 0.0462(2)
C9 C 0.1252(2) 0.4494(2) 0.0989(2)
H9 H 0.1044(2) 0.4869(2) 0.0958(2)
H10 H 0.1676(2) 0.4563(2) 0.0961(2)
H11 H 0.1160(2) 0.4307(2) 0.1387(2)
C11 C 0.0739(2) 0.5935(2) 0.0845(2)
C12 C 0.1354(2) 0.6210(2) 0.0879(3)
C13 C 0.1754(3) 0.6152(3) 0.0386(3)
H15 H 0.1657(3) 0.5912(3) 0.0022(3)
C14 C 0.2295(3) 0.6446(4) 0.0416(6)
H16 H 0.2569(3) 0.6424(4) 0.0065(6)
C15 C 0.2456(4) 0.6766(4) 0.0929(8)
H17 H 0.2846(4) 0.6948(4) 0.0938(8)
C16 C 0.2085(5) 0.6807(3) 0.1426(6)
H18 H 0.2211(5) 0.7038(3) 0.1786(6)
C17 C 0.1517(3) 0.6543(2) 0.1418(4)
H19 H 0.1243(3) 0.6582(2) 0.1767(4)
Co3 Co 0.2500 0.2500 0.2500
N6 N 0.21622(14) 0.27657(14) 0.1565(2)
N7 N 0.2547(2) 0.2807(2) 0.1066(2)
H25 H 0.2888(27) 0.2654(23) 0.1117(24)
C25 C 0.2295(2) 0.3055(2) 0.0548(2)
C26 C 0.1707(2) 0.3188(2) 0.0716(2)
C27 C 0.1644(2) 0.2994(2) 0.1346(2)
C28 C 0.1082(2) 0.3005(2) 0.1727(2)
H26 H 0.1155(2) 0.2845(2) 0.2143(2)
H27 H 0.0781(2) 0.2771(2) 0.1518(2)
H28 H 0.0948(2) 0.3412(2) 0.1764(2)
C29 C 0.1257(2) 0.3514(2) 0.0331(2)
N9 N 0.06481(14) 0.42658(15) 0.0022(2)
H37 H 0.0077(2) 0.3352(3) 0.2778(2)
Co1_2 Co 0.0000 0.5000 1.0000
H2 H 0.0357(27) 0.3836(22) 0.9358(30)
C10 C 0.0957(3) 0.2749(2) 0.9447(2)
H12 H 0.0678(3) 0.2768(2) 0.9100(2)
H13 H 0.0852(3) 0.2423(2) 0.9722(2)
H14 H 0.1354(3) 0.2688(2) 0.9284(2)
C30 C 0.0952(2) 0.3327(2) 0.9804(2)
N8 N 0.05970(15) 0.3787(2) 0.9628(2)
N10 N 0.02657(14) 0.53378(14) 0.9065(2)
C31 C 0.2629(2) 0.3155(2) 0.9947(2)
H29 H 0.3027(2) 0.2999(2) 0.9989(2)
H30 H 0.2648(2) 0.3578(2) 0.9867(2)
H31 H 0.2430(2) 0.2960(2) 0.9600(2)
Co1_3 Co 1.0000 0.5000 0.0000
N1 N 0.97343(14) 0.46622(14) 0.0935(2)
N2 N 0.9693(2) 0.5047(2) 0.1434(2)
H1 H 0.9846(23) 0.5388(27) 0.1383(24)
N3 N 0.82342(15) 0.31481(14) 0.2478(2)
N4 N 0.8713(2) 0.30970(15) 0.2872(2)
C1 C 0.9506(2) 0.4144(2) 0.1154(2)
C2 C 0.9312(2) 0.4207(2) 0.1784(2)
C3 C 0.9445(2) 0.4795(2) 0.1952(2)
C4 C 0.9345(2) 0.5129(2) 0.2553(2)
H3 H 0.9501(2) 0.5527(2) 0.2511(2)
H4 H 0.8922(2) 0.5148(2) 0.2633(2)
H5 H 0.9540(2) 0.4930(2) 0.2900(2)
C5 C 0.9495(2) 0.3582(2) 0.0773(2)
H6 H 0.9655(2) 0.3655(2) 0.0357(2)
H7 H 0.9729(2) 0.3281(2) 0.0982(2)
H8 H 0.9088(2) 0.3448(2) 0.0736(2)
C6 C 0.9173(2) 0.3452(2) 0.2696(2)
C7 C 0.8986(2) 0.3757(2) 0.2169(2)
Co2 Co 0.7500 0.2500 0.2500
C32 C 0.8401(2) 0.3552(2) 0.2038(2)
C33 C 0.8006(2) 0.3752(2) 0.1511(2)
H32 H 0.7631(2) 0.3544(2) 0.1542(2)
H33 H 0.7937(2) 0.4176(2) 0.1539(2)
H34 H 0.8193(2) 0.3660(2) 0.1113(2)
H35 H 0.8664(22) 0.2857(27) 0.3142(30)
C34 C 0.9751(2) 0.3457(3) 0.3053(2)
H36 H 0.9732(2) 0.3178(3) 0.3400(2)
H38 H 0.9812(2) 0.3854(3) 0.3216(2)
Co1_4 Co 1.0000 0.5000 1.0000
O3 O 0.93579(12) 0.44220(12) 0.96008(15)
C18 C 0.9261(2) 0.4065(2) 0.9155(2)
O4 O 0.9646(2) 0.39104(13) 0.8749(2)
C19 C 0.8646(2) 0.3790(2) 0.9121(3)
C20 C 0.8246(3) 0.3848(3) 0.9614(3)
H20 H 0.8343(3) 0.4088(3) 0.9978(3)
C21 C 0.7705(3) 0.3554(4) 0.9584(6)
H21 H 0.7431(3) 0.3576(4) 0.9935(6)
C22 C 0.7544(4) 0.3234(4) 0.9071(8)
H22 H 0.7154(4) 0.3052(4) 0.9062(8)
C23 C 0.7915(5) 0.3193(3) 0.8574(6)
H23 H 0.7789(5) 0.2962(3) 0.8214(6)
C24 C 0.8483(3) 0.3457(2) 0.8582(4)
H24 H 0.8757(3) 0.3418(2) 0.8233(4)
N5 N 0.93519(14) 0.57342(15) 0.9978(2)
O1_2 O 0.19220(12) 0.31421(12) 0.28992(15)
O2_2 O 0.14104(13) 0.2854(2) 0.3751(2)
N1_2 N 0.28378(14) 0.22343(14) 0.3435(2)
N2_2 N 0.2453(2) 0.2193(2) 0.3934(2)
H1_2 H 0.2112(27) 0.2346(23) 0.3883(24)
N3_2 N 0.43519(14) 0.07342(15) 0.4978(2)
N4_2 N 0.44030(15) 0.1213(2) 0.5372(2)
H2_2 H 0.3664(22) 0.2857(27) 0.1858(30)
C1_2 C 0.3356(2) 0.2006(2) 0.3654(2)
C2_2 C 0.3293(2) 0.1812(2) 0.4284(2)
C3_2 C 0.2705(2) 0.1945(2) 0.4452(2)
C4_2 C 0.2371(2) 0.1845(2) 0.5053(2)
H3_2 H 0.1973(2) 0.2001(2) 0.5011(2)
H4_2 H 0.2352(2) 0.1422(2) 0.5133(2)
H5_2 H 0.2570(2) 0.2040(2) 0.5400(2)
C5_2 C 0.3918(2) 0.1995(2) 0.3273(2)
H6_2 H 0.3845(2) 0.2155(2) 0.2857(2)
H7_2 H 0.4219(2) 0.2229(2) 0.3482(2)
H8_2 H 0.4052(2) 0.1588(2) 0.3236(2)
C6_2 C 0.4048(2) 0.1673(2) 0.5196(2)
C7_2 C 0.3743(2) 0.1486(2) 0.4669(2)
C8_2 C 0.3401(2) 0.3552(2) 0.2962(2)
C9_2 C 0.3006(2) 0.3752(2) 0.3489(2)
H9_2 H 0.2631(2) 0.3544(2) 0.3458(2)
H10_2 H 0.2937(2) 0.4176(2) 0.3461(2)
H11_2 H 0.3193(2) 0.3660(2) 0.3887(2)
C10_2 C 0.4751(2) 0.3457(3) 0.1947(2)
H12_2 H 0.4732(2) 0.3178(3) 0.1600(2)
H13_2 H 0.5077(2) 0.3352(3) 0.2222(2)
H14_2 H 0.4812(2) 0.3854(3) 0.1784(2)
C11_2 C 0.1565(2) 0.3239(2) 0.3345(2)
C12_2 C 0.1290(2) 0.3854(2) 0.3379(3)
C13_2 C 0.1348(3) 0.4254(3) 0.2886(3)
H15_2 H 0.1588(3) 0.4157(3) 0.2522(3)
C14_2 C 0.1054(4) 0.4795(3) 0.2916(6)
H16_2 H 0.1076(4) 0.5069(3) 0.2565(6)
C15_2 C 0.0734(4) 0.4956(4) 0.3429(8)
H17_2 H 0.0552(4) 0.5346(4) 0.3438(8)
C16_2 C 0.0693(3) 0.4585(5) 0.3926(6)
H18_2 H 0.0462(3) 0.4711(5) 0.4286(6)
C17_2 C 0.0957(2) 0.4017(3) 0.3918(4)
H19_2 H 0.0918(2) 0.3743(3) 0.4267(4)
O3_2 O 0.30780(12) 0.18579(12) 0.21008(15)
C18_2 C 0.3435(2) 0.1761(2) 0.1655(2)
O4_2 O 0.35896(13) 0.2146(2) 0.1249(2)
C19_2 C 0.3710(2) 0.1146(2) 0.1621(3)
C20_2 C 0.3652(3) 0.0746(3) 0.2114(3)
H20_2 H 0.3412(3) 0.0843(3) 0.2478(3)
C21_2 C 0.3946(4) 0.0205(3) 0.2084(6)
C22_2 C 0.4266(4) 0.0044(4) 0.1571(8)
C23_2 C 0.4307(3) 0.0415(5) 0.1074(6)
H23_2 H 0.4538(3) 0.0289(5) 0.0714(6)
C24_2 C 0.4043(2) 0.0983(3) 0.1082(4)
H24_2 H 0.4082(2) 0.1257(3) 0.0733(4)
N5_2 N 0.17658(15) 0.18519(14) 0.2478(2)
Co2_2 Co 0.5000 0.0000 0.5000
Co3_2 Co 0.5000 0.5000 0.5000
N6_2 N 0.47343(14) 0.46622(14) 0.4065(2)
N7_2 N 0.4693(2) 0.5047(2) 0.3566(2)
H25_2 H 0.4846(23) 0.5388(27) 0.3617(24)
C25_2 C 0.4445(2) 0.4795(2) 0.3048(2)
C26_2 C 0.4312(2) 0.4207(2) 0.3216(2)
C27_2 C 0.4506(2) 0.4144(2) 0.3846(2)
C28_2 C 0.4495(2) 0.3582(2) 0.4227(2)
H26_2 H 0.4655(2) 0.3655(2) 0.4643(2)
H27_2 H 0.4729(2) 0.3281(2) 0.4018(2)
H28_2 H 0.4088(2) 0.3448(2) 0.4264(2)
C29_2 C 0.3986(2) 0.3757(2) 0.2831(2)
C30_2 C 0.4173(2) 0.3452(2) 0.2304(2)
N8_2 N 0.3713(2) 0.30970(15) 0.2128(2)
N9_2 N 0.32342(15) 0.31481(14) 0.2522(2)
C31_2 C 0.4345(2) 0.5129(2) 0.2447(2)
H29_2 H 0.4501(2) 0.5527(2) 0.2489(2)
H30_2 H 0.3922(2) 0.5148(2) 0.2367(2)
H31_2 H 0.4540(2) 0.4930(2) 0.2100(2)
C32_2 C 0.3948(2) 0.0901(2) 0.4538(2)
C33_2 C 0.3748(2) 0.0506(2) 0.4011(2)
H32_2 H 0.3956(2) 0.0131(2) 0.4042(2)
H33_2 H 0.3324(2) 0.0437(2) 0.4039(2)
H34_2 H 0.3840(2) 0.0693(2) 0.3613(2)
H35_2 H 0.4643(27) 0.1164(22) 0.5642(30)
C34_2 C 0.4043(3) 0.2251(2) 0.5553(2)
H36_2 H 0.4322(3) 0.2232(2) 0.5900(2)
H37_2 H 0.4148(3) 0.2577(2) 0.5278(2)
H38_2 H 0.3646(3) 0.2312(2) 0.5716(2)
H21_2 H 0.3924(4) 0.9931(3) 0.2435(6)
H22_2 H 0.4448(4) 0.9654(4) 0.1562(8)
Co2_3 Co 0.5000 1.0000 0.5000
O1_3 O 0.56421(12) 0.05780(12) 0.53992(15)
O2_3 O 0.5354(2) 0.10896(13) 0.6251(2)
N2_3 N 0.4693(2) 0.0047(2) 0.6434(2)
H1_3 H 0.4846(23) 0.0388(27) 0.6383(24)
C4_3 C 0.4345(2) 0.0129(2) 0.7553(2)
H3_3 H 0.4501(2) 0.0527(2) 0.7511(2)
H4_3 H 0.3922(2) 0.0148(2) 0.7633(2)
C11_3 C 0.5739(2) 0.0935(2) 0.5845(2)
C12_3 C 0.6354(2) 0.1210(2) 0.5879(3)
C13_3 C 0.6754(3) 0.1152(3) 0.5386(3)
H15_3 H 0.6657(3) 0.0912(3) 0.5022(3)
C14_3 C 0.7295(3) 0.1446(4) 0.5416(6)
H16_3 H 0.7569(3) 0.1424(4) 0.5065(6)
C15_3 C 0.7456(4) 0.1766(4) 0.5929(8)
H17_3 H 0.7846(4) 0.1948(4) 0.5938(8)
C16_3 C 0.7085(5) 0.1807(3) 0.6426(6)
H18_3 H 0.7211(5) 0.2038(3) 0.6786(6)
C17_3 C 0.6517(3) 0.1543(2) 0.6418(4)
H19_3 H 0.6243(3) 0.1582(2) 0.6767(4)
N10_2 N 0.52657(14) 0.03378(14) 0.4065(2)
N1_3 N 0.47343(14) 0.96622(14) 0.5935(2)
N3_3 N 0.32342(15) 0.81481(14) 0.7478(2)
N4_3 N 0.3713(2) 0.80970(15) 0.7872(2)
H2_3 H 0.5357(27) 0.8836(22) 0.4358(30)
C1_3 C 0.4506(2) 0.9144(2) 0.6154(2)
C2_3 C 0.4312(2) 0.9207(2) 0.6784(2)
C3_3 C 0.4445(2) 0.9795(2) 0.6952(2)
H5_3 H 0.4540(2) 0.9930(2) 0.7900(2)
C5_3 C 0.4495(2) 0.8582(2) 0.5773(2)
H6_3 H 0.4655(2) 0.8655(2) 0.5357(2)
H7_3 H 0.4729(2) 0.8281(2) 0.5982(2)
H8_3 H 0.4088(2) 0.8448(2) 0.5736(2)
C6_3 C 0.4173(2) 0.8452(2) 0.7696(2)
C7_3 C 0.3986(2) 0.8757(2) 0.7169(2)
C8_3 C 0.6052(2) 0.9099(2) 0.5462(2)
C9_3 C 0.6252(2) 0.9494(2) 0.5989(2)
H9_3 H 0.6044(2) 0.9869(2) 0.5958(2)
H10_3 H 0.6676(2) 0.9563(2) 0.5961(2)
H11_3 H 0.6160(2) 0.9307(2) 0.6387(2)
C10_3 C 0.5957(3) 0.7749(2) 0.4447(2)
H12_3 H 0.5678(3) 0.7768(2) 0.4100(2)
H13_3 H 0.5852(3) 0.7423(2) 0.4722(2)
H14_3 H 0.6354(3) 0.7688(2) 0.4284(2)
O3_3 O 0.43579(12) 0.94220(12) 0.46008(15)
C18_3 C 0.4261(2) 0.9065(2) 0.4155(2)
O4_3 O 0.4646(2) 0.89104(13) 0.3749(2)
C19_3 C 0.3646(2) 0.8790(2) 0.4121(3)
C20_3 C 0.3246(3) 0.8848(3) 0.4614(3)
H20_3 H 0.3343(3) 0.9088(3) 0.4978(3)
C21_3 C 0.2705(3) 0.8554(4) 0.4584(6)
H21_3 H 0.2431(3) 0.8576(4) 0.4935(6)
C22_3 C 0.2544(4) 0.8234(4) 0.4071(8)
H22_3 H 0.2154(4) 0.8052(4) 0.4062(8)
C23_3 C 0.2915(5) 0.8193(3) 0.3574(6)
H23_3 H 0.2789(5) 0.7962(3) 0.3214(6)
C24_3 C 0.3483(3) 0.8457(2) 0.3582(4)
H24_3 H 0.3757(3) 0.8418(2) 0.3233(4)
Co2_4 Co 0.2500 0.7500 0.7500
Co3_3 Co 0.7500 0.7500 0.7500
N6_3 N 0.71622(14) 0.77657(14) 0.6565(2)
N7_3 N 0.7547(2) 0.7807(2) 0.6066(2)
H25_3 H 0.7888(27) 0.7654(23) 0.6117(24)
C25_3 C 0.7295(2) 0.8055(2) 0.5548(2)
C26_3 C 0.6707(2) 0.8188(2) 0.5716(2)
C27_3 C 0.6644(2) 0.7994(2) 0.6346(2)
C28_3 C 0.6082(2) 0.8005(2) 0.6727(2)
H26_3 H 0.6155(2) 0.7845(2) 0.7143(2)
H27_3 H 0.5781(2) 0.7771(2) 0.6518(2)
H28_3 H 0.5948(2) 0.8412(2) 0.6764(2)
C29_3 C 0.6257(2) 0.8514(2) 0.5331(2)
C30_3 C 0.5952(2) 0.8327(2) 0.4804(2)
N8_3 N 0.55970(15) 0.8787(2) 0.4628(2)
N9_3 N 0.56481(14) 0.92658(15) 0.5022(2)
C31_3 C 0.7629(2) 0.8155(2) 0.4947(2)
H29_3 H 0.8027(2) 0.7999(2) 0.4989(2)
H30_3 H 0.7648(2) 0.8578(2) 0.4867(2)
H31_3 H 0.7430(2) 0.7960(2) 0.4600(2)
C32_3 C 0.3401(2) 0.8552(2) 0.7038(2)
C33_3 C 0.3006(2) 0.8752(2) 0.6511(2)
H32_3 H 0.2631(2) 0.8544(2) 0.6542(2)
H33_3 H 0.2937(2) 0.9176(2) 0.6539(2)
H34_3 H 0.3193(2) 0.8660(2) 0.6113(2)
H35_3 H 0.3664(22) 0.7857(27) 0.8142(30)
C34_3 C 0.4751(2) 0.8457(3) 0.8053(2)
H36_3 H 0.4732(2) 0.8178(3) 0.8400(2)
H37_3 H 0.5077(2) 0.8352(3) 0.7778(2)
H38_3 H 0.4812(2) 0.8854(3) 0.8216(2)
Co3_4 Co 0.0000 -0.0000 -0.0000
Co3_5 Co 0.0000 -0.0000 1.0000
Co3_6 Co 0.0000 1.0000 -0.0000
H13_4 H 0.0077(2) 0.8352(3) 0.7222(2)
Co3_7 Co 0.0000 1.0000 1.0000
Co3_8 Co 1.0000 -0.0000 -0.0000
H16_4 H 0.6076(4) 0.0069(3) 0.7565(6)
H17_4 H 0.5552(4) 0.0346(4) 0.8438(8)
Co3_9 Co 1.0000 -0.0000 1.0000
N7_4 N 0.9693(2) 0.0047(2) 0.8566(2)
H25_4 H 0.9846(23) 0.0388(27) 0.8617(24)
C31_4 C 0.9345(2) 0.0129(2) 0.7447(2)
H29_4 H 0.9501(2) 0.0527(2) 0.7489(2)
H30_4 H 0.8922(2) 0.0148(2) 0.7367(2)
N4_4 N 0.94030(15) 0.6213(2) 0.0372(2)
C4_4 C 0.7371(2) 0.6845(2) 0.0053(2)
H3_4 H 0.6973(2) 0.7001(2) 0.0011(2)
H4_4 H 0.7352(2) 0.6422(2) 0.0133(2)
H5_4 H 0.7570(2) 0.7040(2) 0.0400(2)
C6_4 C 0.9048(2) 0.6673(2) 0.0196(2)
Co3_10 Co 1.0000 1.0000 -0.0000
H35_4 H 0.9643(27) 0.6164(22) 0.0642(30)
C34_4 C 0.9043(3) 0.7251(2) 0.0553(2)
H36_4 H 0.9322(3) 0.7232(2) 0.0900(2)
H37_4 H 0.9148(3) 0.7577(2) 0.0278(2)
H38_4 H 0.8646(3) 0.7312(2) 0.0716(2)
O1_4 O 0.69220(12) 0.81421(12) 0.78992(15)
O2_4 O 0.64104(13) 0.7854(2) 0.8751(2)
N1_4 N 0.78378(14) 0.72343(14) 0.8435(2)
N2_4 N 0.7453(2) 0.7193(2) 0.8934(2)
H1_4 H 0.7112(27) 0.7346(23) 0.8883(24)
H2_4 H 0.8664(22) 0.7857(27) 0.6858(30)
C1_4 C 0.8356(2) 0.7006(2) 0.8654(2)
C2_4 C 0.8293(2) 0.6812(2) 0.9284(2)
C3_4 C 0.7705(2) 0.6945(2) 0.9452(2)
C5_4 C 0.8918(2) 0.6995(2) 0.8273(2)
H6_4 H 0.8845(2) 0.7155(2) 0.7857(2)
H7_4 H 0.9219(2) 0.7229(2) 0.8482(2)
H8_4 H 0.9052(2) 0.6588(2) 0.8236(2)
C7_4 C 0.8743(2) 0.6486(2) 0.9669(2)
C8_4 C 0.8401(2) 0.8552(2) 0.7962(2)
C9_4 C 0.8006(2) 0.8752(2) 0.8489(2)
H9_4 H 0.7631(2) 0.8544(2) 0.8458(2)
H10_4 H 0.7937(2) 0.9176(2) 0.8461(2)
H11_4 H 0.8193(2) 0.8660(2) 0.8887(2)
C10_4 C 0.9751(2) 0.8457(3) 0.6947(2)
H12_4 H 0.9732(2) 0.8178(3) 0.6600(2)
H14_4 H 0.9812(2) 0.8854(3) 0.6784(2)
C11_4 C 0.6565(2) 0.8239(2) 0.8345(2)
C12_4 C 0.6290(2) 0.8854(2) 0.8379(3)
C13_4 C 0.6348(3) 0.9254(3) 0.7886(3)
H15_4 H 0.6588(3) 0.9157(3) 0.7522(3)
C14_4 C 0.6054(4) 0.9795(3) 0.7916(6)
C15_4 C 0.5734(4) 0.9956(4) 0.8429(8)
C16_4 C 0.5693(3) 0.9585(5) 0.8926(6)
H18_4 H 0.5462(3) 0.9711(5) 0.9286(6)
C17_4 C 0.5957(2) 0.9017(3) 0.8918(4)
H19_4 H 0.5918(2) 0.8743(3) 0.9267(4)
O3_4 O 0.80780(12) 0.68579(12) 0.71008(15)
C18_4 C 0.8435(2) 0.6761(2) 0.6655(2)
O4_4 O 0.85896(13) 0.7146(2) 0.6249(2)
C19_4 C 0.8710(2) 0.6146(2) 0.6621(3)
C20_4 C 0.8652(3) 0.5746(3) 0.7114(3)
H20_4 H 0.8412(3) 0.5843(3) 0.7478(3)
C21_4 C 0.8946(4) 0.5205(3) 0.7084(6)
H21_4 H 0.8924(4) 0.4931(3) 0.7435(6)
C22_4 C 0.9266(4) 0.5044(4) 0.6571(8)
H22_4 H 0.9448(4) 0.4654(4) 0.6562(8)
C23_4 C 0.9307(3) 0.5415(5) 0.6074(6)
H23_4 H 0.9538(3) 0.5289(5) 0.5714(6)
C24_4 C 0.9043(2) 0.5983(3) 0.6082(4)
H24_4 H 0.9082(2) 0.6257(3) 0.5733(4)
N5_3 N 0.67658(15) 0.68519(14) 0.7478(2)
Co3_11 Co 1.0000 1.0000 1.0000
N6_4 N 0.97343(14) 0.96622(14) 0.9065(2)
C25_4 C 0.9445(2) 0.9795(2) 0.8048(2)
C26_4 C 0.9312(2) 0.9207(2) 0.8216(2)
C27_4 C 0.9506(2) 0.9144(2) 0.8846(2)
C28_4 C 0.9495(2) 0.8582(2) 0.9227(2)
H26_4 H 0.9655(2) 0.8655(2) 0.9643(2)
H27_4 H 0.9729(2) 0.8281(2) 0.9018(2)
H28_4 H 0.9088(2) 0.8448(2) 0.9264(2)
C29_4 C 0.8986(2) 0.8757(2) 0.7831(2)
C30_4 C 0.9173(2) 0.8452(2) 0.7304(2)
N8_4 N 0.8713(2) 0.80970(15) 0.7128(2)
N9_4 N 0.82342(15) 0.81481(14) 0.7522(2)
H31_4 H 0.9540(2) 0.9930(2) 0.7100(2)
C32_4 C 0.8948(2) 0.5901(2) 0.9538(2)
C33_4 C 0.8748(2) 0.5506(2) 0.9011(2)
H32_4 H 0.8956(2) 0.5131(2) 0.9042(2)
H33_4 H 0.8324(2) 0.5437(2) 0.9039(2)
H34_4 H 0.8840(2) 0.5693(2) 0.8613(2)
O1_5 O 0.80780(12) 0.18579(12) 0.28992(15)
O2_5 O 0.85896(13) 0.2146(2) 0.3751(2)
N1_5 N 0.71622(14) 0.27657(14) 0.3435(2)
N2_5 N 0.7547(2) 0.2807(2) 0.3934(2)
H1_5 H 0.7888(27) 0.2654(23) 0.3883(24)
N3_4 N 0.56481(14) 0.42658(15) 0.4978(2)
N4_5 N 0.55970(15) 0.3787(2) 0.5372(2)
H2_5 H 0.6336(22) 0.2143(27) 0.1858(30)
C1_5 C 0.6644(2) 0.2994(2) 0.3654(2)
C2_5 C 0.6707(2) 0.3188(2) 0.4284(2)
C3_5 C 0.7295(2) 0.3055(2) 0.4452(2)
C4_5 C 0.7629(2) 0.3155(2) 0.5053(2)
H3_5 H 0.8027(2) 0.2999(2) 0.5011(2)
H4_5 H 0.7648(2) 0.3578(2) 0.5133(2)
H5_5 H 0.7430(2) 0.2960(2) 0.5400(2)
C5_5 C 0.6082(2) 0.3005(2) 0.3273(2)
H6_5 H 0.6155(2) 0.2845(2) 0.2857(2)
H7_5 H 0.5781(2) 0.2771(2) 0.3482(2)
H8_5 H 0.5948(2) 0.3412(2) 0.3236(2)
C6_5 C 0.5952(2) 0.3327(2) 0.5196(2)
C7_5 C 0.6257(2) 0.3514(2) 0.4669(2)
C8_5 C 0.6599(2) 0.1448(2) 0.2962(2)
C9_5 C 0.6994(2) 0.1248(2) 0.3489(2)
H9_5 H 0.7369(2) 0.1456(2) 0.3458(2)
H10_5 H 0.7063(2) 0.0824(2) 0.3461(2)
H11_5 H 0.6807(2) 0.1340(2) 0.3887(2)
C10_5 C 0.5249(2) 0.1543(3) 0.1947(2)
H12_5 H 0.5268(2) 0.1822(3) 0.1600(2)
H13_5 H 0.4923(2) 0.1648(3) 0.2222(2)
H14_5 H 0.5188(2) 0.1146(3) 0.1784(2)
C11_5 C 0.8435(2) 0.1761(2) 0.3345(2)
C12_5 C 0.8710(2) 0.1146(2) 0.3379(3)
C13_5 C 0.8652(3) 0.0746(3) 0.2886(3)
H15_5 H 0.8412(3) 0.0843(3) 0.2522(3)
C14_5 C 0.8946(4) 0.0205(3) 0.2916(6)
C15_5 C 0.9266(4) 0.0044(4) 0.3429(8)
C16_5 C 0.9307(3) 0.0415(5) 0.3926(6)
H18_5 H 0.9538(3) 0.0289(5) 0.4286(6)
C17_5 C 0.9043(2) 0.0983(3) 0.3918(4)
H19_5 H 0.9082(2) 0.1257(3) 0.4267(4)
O3_5 O 0.69220(12) 0.31421(12) 0.21008(15)
C18_5 C 0.6565(2) 0.3239(2) 0.1655(2)
O4_5 O 0.64104(13) 0.2854(2) 0.1249(2)
C19_5 C 0.6290(2) 0.3854(2) 0.1621(3)
C20_5 C 0.6348(3) 0.4254(3) 0.2114(3)
H20_5 H 0.6588(3) 0.4157(3) 0.2478(3)
C21_5 C 0.6054(4) 0.4795(3) 0.2084(6)
H21_5 H 0.6076(4) 0.5069(3) 0.2435(6)
C22_5 C 0.5734(4) 0.4956(4) 0.1571(8)
H22_5 H 0.5552(4) 0.5346(4) 0.1562(8)
C23_5 C 0.5693(3) 0.4585(5) 0.1074(6)
H23_5 H 0.5462(3) 0.4711(5) 0.0714(6)
C24_5 C 0.5957(2) 0.4017(3) 0.1082(4)
H24_5 H 0.5918(2) 0.3743(3) 0.0733(4)
C25_5 C 0.5555(2) 0.0205(2) 0.3048(2)
C26_5 C 0.5688(2) 0.0793(2) 0.3216(2)
C27_5 C 0.5494(2) 0.0856(2) 0.3846(2)
C28_5 C 0.5505(2) 0.1418(2) 0.4227(2)
H26_5 H 0.5345(2) 0.1345(2) 0.4643(2)
H27_5 H 0.5271(2) 0.1719(2) 0.4018(2)
H28_5 H 0.5912(2) 0.1552(2) 0.4264(2)
C29_5 C 0.6014(2) 0.1243(2) 0.2831(2)
C30_5 C 0.5827(2) 0.1548(2) 0.2304(2)
N8_5 N 0.6287(2) 0.19030(15) 0.2128(2)
N9_5 N 0.67658(15) 0.18519(14) 0.2522(2)
N10_3 N 0.78378(14) 0.22343(14) 0.1565(2)
H31_5 H 0.5460(2) 0.0070(2) 0.2100(2)
C32_5 C 0.6052(2) 0.4099(2) 0.4538(2)
C33_5 C 0.6252(2) 0.4494(2) 0.4011(2)
H32_5 H 0.6044(2) 0.4869(2) 0.4042(2)
H33_5 H 0.6676(2) 0.4563(2) 0.4039(2)
H34_5 H 0.6160(2) 0.4307(2) 0.3613(2)
H35_5 H 0.5357(27) 0.3836(22) 0.5642(30)
C34_5 C 0.5957(3) 0.2749(2) 0.5553(2)
H36_5 H 0.5678(3) 0.2768(2) 0.5900(2)
H37_5 H 0.5852(3) 0.2423(2) 0.5278(2)
H38_5 H 0.6354(3) 0.2688(2) 0.5716(2)
H16_5 H 0.8924(4) 0.9931(3) 0.2565(6)
H17_5 H 0.9448(4) 0.9654(4) 0.3438(8)
N7_5 N 0.5307(2) 0.9953(2) 0.3566(2)
H25_5 H 0.5154(23) 0.9612(27) 0.3617(24)
C31_5 C 0.5655(2) 0.9871(2) 0.2447(2)
H29_5 H 0.5499(2) 0.9473(2) 0.2489(2)
H30_5 H 0.6078(2) 0.9852(2) 0.2367(2)
O1_6 O 0.56421(12) 0.55780(12) 0.46008(15)
O2_6 O 0.5354(2) 0.60896(13) 0.3749(2)
C11_6 C 0.5739(2) 0.5935(2) 0.4155(2)
C12_6 C 0.6354(2) 0.6210(2) 0.4121(3)
C13_6 C 0.6754(3) 0.6152(3) 0.4614(3)
H15_6 H 0.6657(3) 0.5912(3) 0.4978(3)
C14_6 C 0.7295(3) 0.6446(4) 0.4584(6)
H16_6 H 0.7569(3) 0.6424(4) 0.4935(6)
C15_6 C 0.7456(4) 0.6766(4) 0.4071(8)
H17_6 H 0.7846(4) 0.6948(4) 0.4062(8)
C16_6 C 0.7085(5) 0.6807(3) 0.3574(6)
H18_6 H 0.7211(5) 0.7038(3) 0.3214(6)
C17_6 C 0.6517(3) 0.6543(2) 0.3582(4)
H19_6 H 0.6243(3) 0.6582(2) 0.3233(4)
O3_6 O 0.43579(12) 0.44220(12) 0.53992(15)
C18_6 C 0.4261(2) 0.4065(2) 0.5845(2)
O4_6 O 0.4646(2) 0.39104(13) 0.6251(2)
C19_6 C 0.3646(2) 0.3790(2) 0.5879(3)
C20_6 C 0.3246(3) 0.3848(3) 0.5386(3)
H20_6 H 0.3343(3) 0.4088(3) 0.5022(3)
C21_6 C 0.2705(3) 0.3554(4) 0.5416(6)
H21_6 H 0.2431(3) 0.3576(4) 0.5065(6)
C22_6 C 0.2544(4) 0.3234(4) 0.5929(8)
H22_6 H 0.2154(4) 0.3052(4) 0.5938(8)
C23_6 C 0.2915(5) 0.3193(3) 0.6426(6)
H23_6 H 0.2789(5) 0.2962(3) 0.6786(6)
C24_6 C 0.3483(3) 0.3457(2) 0.6418(4)
H24_6 H 0.3757(3) 0.3418(2) 0.6767(4)
N5_4 N 0.43519(14) 0.57342(15) 0.5022(2)
N10_4 N 0.52657(14) 0.53378(14) 0.5935(2)
N2_6 N 0.7453(2) 0.2193(2) 0.1066(2)
H1_6 H 0.7112(27) 0.2346(23) 0.1117(24)
N3_5 N 0.93519(14) 0.07342(15) 0.0022(2)
C1_6 C 0.8356(2) 0.2006(2) 0.1346(2)
C2_6 C 0.8293(2) 0.1812(2) 0.0716(2)
C3_6 C 0.7705(2) 0.1945(2) 0.0548(2)
C5_6 C 0.8918(2) 0.1995(2) 0.1727(2)
H6_6 H 0.8845(2) 0.2155(2) 0.2143(2)
H7_6 H 0.9219(2) 0.2229(2) 0.1518(2)
H8_6 H 0.9052(2) 0.1588(2) 0.1764(2)
C7_6 C 0.8743(2) 0.1486(2) 0.0331(2)
C32_6 C 0.8948(2) 0.0901(2) 0.0462(2)
C33_6 C 0.8748(2) 0.0506(2) 0.0989(2)
H32_6 H 0.8956(2) 0.0131(2) 0.0958(2)
H33_6 H 0.8324(2) 0.0437(2) 0.0961(2)
H34_6 H 0.8840(2) 0.0693(2) 0.1387(2)
N4_6 N 0.94030(15) 0.1213(2) 0.9628(2)
C4_6 C 0.7371(2) 0.1845(2) 0.9947(2)
H3_6 H 0.6973(2) 0.2001(2) 0.9989(2)
H4_6 H 0.7352(2) 0.1422(2) 0.9867(2)
H5_6 H 0.7570(2) 0.2040(2) 0.9600(2)
C6_6 C 0.9048(2) 0.1673(2) 0.9804(2)
H35_6 H 0.9643(27) 0.1164(22) 0.9358(30)
C34_6 C 0.9043(3) 0.2251(2) 0.9447(2)
H36_6 H 0.9322(3) 0.2232(2) 0.9100(2)
H37_6 H 0.9148(3) 0.2577(2) 0.9722(2)
H38_6 H 0.8646(3) 0.2312(2) 0.9284(2)
N10_5 N 0.02657(14) 0.03378(14) 0.0935(2)
O1_7 O 0.06421(12) 0.05780(12) 0.96008(15)
O2_7 O 0.0354(2) 0.10896(13) 0.8749(2)
C11_7 C 0.0739(2) 0.0935(2) 0.9155(2)
C12_7 C 0.1354(2) 0.1210(2) 0.9121(3)
C13_7 C 0.1754(3) 0.1152(3) 0.9614(3)
H15_7 H 0.1657(3) 0.0912(3) 0.9978(3)
C14_7 C 0.2295(3) 0.1446(4) 0.9584(6)
H16_7 H 0.2569(3) 0.1424(4) 0.9935(6)
C15_7 C 0.2456(4) 0.1766(4) 0.9071(8)
H17_7 H 0.2846(4) 0.1948(4) 0.9062(8)
C16_7 C 0.2085(5) 0.1807(3) 0.8574(6)
H18_7 H 0.2211(5) 0.2038(3) 0.8214(6)
C17_7 C 0.1517(3) 0.1543(2) 0.8582(4)
H19_7 H 0.1243(3) 0.1582(2) 0.8233(4)
H2_6 H 0.0357(27) 0.8836(22) 0.0642(30)
C10_6 C 0.0957(3) 0.7749(2) 0.0553(2)
H12_6 H 0.0678(3) 0.7768(2) 0.0900(2)
H13_6 H 0.0852(3) 0.7423(2) 0.0278(2)
H14_6 H 0.1354(3) 0.7688(2) 0.0716(2)
C30_6 C 0.0952(2) 0.8327(2) 0.0196(2)
N8_6 N 0.05970(15) 0.8787(2) 0.0372(2)
C31_6 C 0.2629(2) 0.8155(2) 0.0053(2)
H29_6 H 0.3027(2) 0.7999(2) 0.0011(2)
H30_6 H 0.2648(2) 0.8578(2) 0.0133(2)
H31_6 H 0.2430(2) 0.7960(2) 0.0400(2)
C8_6 C 0.1052(2) 0.9099(2) 0.9538(2)
C9_6 C 0.1252(2) 0.9494(2) 0.9011(2)
H9_6 H 0.1044(2) 0.9869(2) 0.9042(2)
H10_6 H 0.1676(2) 0.9563(2) 0.9039(2)
H11_6 H 0.1160(2) 0.9307(2) 0.8613(2)
N6_5 N 0.21622(14) 0.77657(14) 0.8435(2)
N7_6 N 0.2547(2) 0.7807(2) 0.8934(2)
H25_6 H 0.2888(27) 0.7654(23) 0.8883(24)
C25_6 C 0.2295(2) 0.8055(2) 0.9452(2)
C26_6 C 0.1707(2) 0.8188(2) 0.9284(2)
C27_6 C 0.1644(2) 0.7994(2) 0.8654(2)
C28_6 C 0.1082(2) 0.8005(2) 0.8273(2)
H26_6 H 0.1155(2) 0.7845(2) 0.7857(2)
H27_6 H 0.0781(2) 0.7771(2) 0.8482(2)
H28_6 H 0.0948(2) 0.8412(2) 0.8236(2)
C29_6 C 0.1257(2) 0.8514(2) 0.9669(2)
N9_6 N 0.06481(14) 0.92658(15) 0.9978(2)
O3_7 O 0.93579(12) 0.94220(12) 0.03992(15)
C18_7 C 0.9261(2) 0.9065(2) 0.0845(2)
O4_7 O 0.9646(2) 0.89104(13) 0.1251(2)
C19_7 C 0.8646(2) 0.8790(2) 0.0879(3)
C20_7 C 0.8246(3) 0.8848(3) 0.0386(3)
H20_7 H 0.8343(3) 0.9088(3) 0.0022(3)
C21_7 C 0.7705(3) 0.8554(4) 0.0416(6)
H21_7 H 0.7431(3) 0.8576(4) 0.0065(6)
C22_7 C 0.7544(4) 0.8234(4) 0.0929(8)
H22_7 H 0.7154(4) 0.8052(4) 0.0938(8)
C23_7 C 0.7915(5) 0.8193(3) 0.1426(6)
H23_7 H 0.7789(5) 0.7962(3) 0.1786(6)
C24_7 C 0.8483(3) 0.8457(2) 0.1418(4)
H24_7 H 0.8757(3) 0.8418(2) 0.1767(4)
N2_7 N 0.0307(2) 0.4953(2) 0.8566(2)
H1_7 H 0.0154(23) 0.4612(27) 0.8617(24)
N3_6 N 0.17658(15) 0.68519(14) 0.7522(2)
N4_7 N 0.1287(2) 0.69030(15) 0.7128(2)
C1_7 C 0.0494(2) 0.5856(2) 0.8846(2)
C2_7 C 0.0688(2) 0.5793(2) 0.8216(2)
C3_7 C 0.0555(2) 0.5205(2) 0.8048(2)
C4_7 C 0.0655(2) 0.4871(2) 0.7447(2)
H3_7 H 0.0499(2) 0.4473(2) 0.7489(2)
H4_7 H 0.1078(2) 0.4852(2) 0.7367(2)
H5_7 H 0.0460(2) 0.5070(2) 0.7100(2)
C5_7 C 0.0505(2) 0.6418(2) 0.9227(2)
H6_7 H 0.0345(2) 0.6345(2) 0.9643(2)
H7_7 H 0.0271(2) 0.6719(2) 0.9018(2)
H8_7 H 0.0912(2) 0.6552(2) 0.9264(2)
C6_7 C 0.0827(2) 0.6548(2) 0.7304(2)
C7_7 C 0.1014(2) 0.6243(2) 0.7831(2)
C32_7 C 0.1599(2) 0.6448(2) 0.7962(2)
C33_7 C 0.1994(2) 0.6248(2) 0.8489(2)
H32_7 H 0.2369(2) 0.6456(2) 0.8458(2)
H33_7 H 0.2063(2) 0.5824(2) 0.8461(2)
H34_7 H 0.1807(2) 0.6340(2) 0.8887(2)
H35_7 H 0.1336(22) 0.7143(27) 0.6858(30)
C34_7 C 0.0249(2) 0.6543(3) 0.6947(2)
H36_7 H 0.0268(2) 0.6822(3) 0.6600(2)
H38_7 H 0.0188(2) 0.6146(3) 0.6784(2)
H37_7 H 0.9923(2) 0.6648(3) 0.7222(2)
H2_7 H 0.6336(22) 0.7143(27) 0.8142(30)
C8_7 C 0.6599(2) 0.6448(2) 0.7038(2)
C9_7 C 0.6994(2) 0.6248(2) 0.6511(2)
H9_7 H 0.7369(2) 0.6456(2) 0.6542(2)
H10_7 H 0.7063(2) 0.5824(2) 0.6539(2)
H11_7 H 0.6807(2) 0.6340(2) 0.6113(2)
C10_7 C 0.5249(2) 0.6543(3) 0.8053(2)
H12_7 H 0.5268(2) 0.6822(3) 0.8400(2)
H13_7 H 0.4923(2) 0.6648(3) 0.7778(2)
H14_7 H 0.5188(2) 0.6146(3) 0.8216(2)
N7_7 N 0.5307(2) 0.4953(2) 0.6434(2)
H25_7 H 0.5154(23) 0.4612(27) 0.6383(24)
C25_7 C 0.5555(2) 0.5205(2) 0.6952(2)
C26_7 C 0.5688(2) 0.5793(2) 0.6784(2)
C27_7 C 0.5494(2) 0.5856(2) 0.6154(2)
C28_7 C 0.5505(2) 0.6418(2) 0.5773(2)
H26_7 H 0.5345(2) 0.6345(2) 0.5357(2)
H27_7 H 0.5271(2) 0.6719(2) 0.5982(2)
H28_7 H 0.5912(2) 0.6552(2) 0.5736(2)
C29_7 C 0.6014(2) 0.6243(2) 0.7169(2)
C30_7 C 0.5827(2) 0.6548(2) 0.7696(2)
N8_7 N 0.6287(2) 0.69030(15) 0.7872(2)
C31_7 C 0.5655(2) 0.4871(2) 0.7553(2)
H29_7 H 0.5499(2) 0.4473(2) 0.7511(2)
H30_7 H 0.6078(2) 0.4852(2) 0.7633(2)
H31_7 H 0.5460(2) 0.5070(2) 0.7900(2)
H2_8 H 0.1336(22) 0.2143(27) 0.3142(30)
C8_8 C 0.1599(2) 0.1448(2) 0.2038(2)
C9_8 C 0.1994(2) 0.1248(2) 0.1511(2)
H9_8 H 0.2369(2) 0.1456(2) 0.1542(2)
H10_8 H 0.2063(2) 0.0824(2) 0.1539(2)
H11_8 H 0.1807(2) 0.1340(2) 0.1113(2)
C10_8 C 0.0249(2) 0.1543(3) 0.3053(2)
H12_8 H 0.0268(2) 0.1822(3) 0.3400(2)
H14_8 H 0.0188(2) 0.1146(3) 0.3216(2)
C25_8 C 0.0555(2) 0.0205(2) 0.1952(2)
C26_8 C 0.0688(2) 0.0793(2) 0.1784(2)
C27_8 C 0.0494(2) 0.0856(2) 0.1154(2)
C28_8 C 0.0505(2) 0.1418(2) 0.0773(2)
H26_8 H 0.0345(2) 0.1345(2) 0.0357(2)
H27_8 H 0.0271(2) 0.1719(2) 0.0982(2)
H28_8 H 0.0912(2) 0.1552(2) 0.0736(2)
C29_8 C 0.1014(2) 0.1243(2) 0.2169(2)
C30_8 C 0.0827(2) 0.1548(2) 0.2696(2)
N8_8 N 0.1287(2) 0.19030(15) 0.2872(2)
H31_8 H 0.0460(2) 0.0070(2) 0.2900(2)
N7_8 N 0.0307(2) 0.9953(2) 0.1434(2)
H25_8 H 0.0154(23) 0.9612(27) 0.1383(24)
C31_8 C 0.0655(2) 0.9871(2) 0.2553(2)
H29_8 H 0.0499(2) 0.9473(2) 0.2511(2)
H30_8 H 0.1078(2) 0.9852(2) 0.2633(2)
H13_8 H 0.9923(2) 0.1648(3) 0.2778(2)
H16_8 H 0.1076(4) 0.0069(3) 0.7435(6)
H17_8 H 0.0552(4) 0.0346(4) 0.6562(8)
O1_8 O 0.19220(12) 0.81421(12) 0.71008(15)
O2_8 O 0.14104(13) 0.7854(2) 0.6249(2)
N1_6 N 0.28378(14) 0.72343(14) 0.6565(2)
N2_8 N 0.2453(2) 0.7193(2) 0.6066(2)
H1_8 H 0.2112(27) 0.7346(23) 0.6117(24)
N4_8 N 0.44030(15) 0.6213(2) 0.4628(2)
C1_8 C 0.3356(2) 0.7006(2) 0.6346(2)
C2_8 C 0.3293(2) 0.6812(2) 0.5716(2)
C3_8 C 0.2705(2) 0.6945(2) 0.5548(2)
C4_8 C 0.2371(2) 0.6845(2) 0.4947(2)
H3_8 H 0.1973(2) 0.7001(2) 0.4989(2)
H4_8 H 0.2352(2) 0.6422(2) 0.4867(2)
H5_8 H 0.2570(2) 0.7040(2) 0.4600(2)
C5_8 C 0.3918(2) 0.6995(2) 0.6727(2)
H6_8 H 0.3845(2) 0.7155(2) 0.7143(2)
H7_8 H 0.4219(2) 0.7229(2) 0.6518(2)
H8_8 H 0.4052(2) 0.6588(2) 0.6764(2)
C6_8 C 0.4048(2) 0.6673(2) 0.4804(2)
C7_8 C 0.3743(2) 0.6486(2) 0.5331(2)
C11_8 C 0.1565(2) 0.8239(2) 0.6655(2)
C12_8 C 0.1290(2) 0.8854(2) 0.6621(3)
C13_8 C 0.1348(3) 0.9254(3) 0.7114(3)
H15_8 H 0.1588(3) 0.9157(3) 0.7478(3)
C14_8 C 0.1054(4) 0.9795(3) 0.7084(6)
C15_8 C 0.0734(4) 0.9956(4) 0.6571(8)
C16_8 C 0.0693(3) 0.9585(5) 0.6074(6)
H18_8 H 0.0462(3) 0.9711(5) 0.5714(6)
C17_8 C 0.0957(2) 0.9017(3) 0.6082(4)
H19_8 H 0.0918(2) 0.8743(3) 0.5733(4)
O3_8 O 0.30780(12) 0.68579(12) 0.78992(15)
C18_8 C 0.3435(2) 0.6761(2) 0.8345(2)
O4_8 O 0.35896(13) 0.7146(2) 0.8751(2)
C19_8 C 0.3710(2) 0.6146(2) 0.8379(3)
C20_8 C 0.3652(3) 0.5746(3) 0.7886(3)
H20_8 H 0.3412(3) 0.5843(3) 0.7522(3)
C21_8 C 0.3946(4) 0.5205(3) 0.7916(6)
H21_8 H 0.3924(4) 0.4931(3) 0.7565(6)
C22_8 C 0.4266(4) 0.5044(4) 0.8429(8)
H22_8 H 0.4448(4) 0.4654(4) 0.8438(8)
C23_8 C 0.4307(3) 0.5415(5) 0.8926(6)
H23_8 H 0.4538(3) 0.5289(5) 0.9286(6)
C24_8 C 0.4043(2) 0.5983(3) 0.8918(4)
H24_8 H 0.4082(2) 0.6257(3) 0.9267(4)
C32_8 C 0.3948(2) 0.5901(2) 0.5462(2)
C33_8 C 0.3748(2) 0.5506(2) 0.5989(2)
H32_8 H 0.3956(2) 0.5131(2) 0.5958(2)
H33_8 H 0.3324(2) 0.5437(2) 0.5961(2)
H34_8 H 0.3840(2) 0.5693(2) 0.6387(2)
H35_8 H 0.4643(27) 0.6164(22) 0.4358(30)
C34_8 C 0.4043(3) 0.7251(2) 0.4447(2)
H36_8 H 0.4322(3) 0.7232(2) 0.4100(2)
H37_8 H 0.4148(3) 0.7577(2) 0.4722(2)
H38_8 H 0.3646(3) 0.7312(2) 0.4284(2)
loop_
_geom_bond_atom_site_label_1
_geom_bond_atom_site_label_2
_geom_bond_site_symmetry_1
_geom_bond_site_symmetry_2
Co1 O1 1_555 1_555
O1 C11 1_555 1_555
O2 C11 1_555 1_555
C8 C9 1_555 1_555
C9 H9 1_555 1_555
H10 C9 1_555 1_555
H11 C9 1_555 1_555
C11 C12 1_555 1_555
C12 C13 1_555 1_555
C13 H15 1_555 1_555
C14 C13 1_555 1_555
H16 C14 1_555 1_555
C15 C14 1_555 1_555
H17 C15 1_555 1_555
C16 C15 1_555 1_555
H18 C16 1_555 1_555
C17 C12 1_555 1_555
H19 C17 1_555 1_555
Co3 N6 1_555 1_555
N6 N7 1_555 1_555
N7 H25 1_555 1_555
C25 N7 1_555 1_555
C26 C25 1_555 1_555
C27 N6 1_555 1_555
C28 C27 1_555 1_555
H26 C28 1_555 1_555
H27 C28 1_555 1_555
H28 C28 1_555 1_555
C29 C8 1_555 1_555
N9 Co1 1_555 1_555
C8 N9 1_555 1_555
C16 C17 1_555 1_555
C26 C27 1_555 1_555
C26 C29 1_555 1_555
H2 N8 1_555 1_555
C10 H12 1_555 1_555
H13 C10 1_555 1_555
H14 C10 1_555 1_555
C30 C10 1_555 1_555
N8 C30 1_555 1_555
N10 Co1_2 1_555 1_555
H29 C31 1_555 1_555
H30 C31 1_555 1_555
H31 C31 1_555 1_555
N1 Co1_3 1_555 1_555
N2 N1 1_555 1_555
H1 N2 1_555 1_555
N3 N4 1_555 1_555
N4 C6 1_555 1_555
C1 N1 1_555 1_555
C2 C1 1_555 1_555
C3 N2 1_555 1_555
C4 C3 1_555 1_555
H3 C4 1_555 1_555
H4 C4 1_555 1_555
H5 C4 1_555 1_555
C5 C1 1_555 1_555
H6 C5 1_555 1_555
H7 C5 1_555 1_555
H8 C5 1_555 1_555
C6 C7 1_555 1_555
C7 C2 1_555 1_555
Co2 N3 1_555 1_555
C32 N3 1_555 1_555
C33 C32 1_555 1_555
H32 C33 1_555 1_555
H33 C33 1_555 1_555
H34 C33 1_555 1_555
H35 N4 1_555 1_555
C34 C6 1_555 1_555
H36 C34 1_555 1_555
H38 C34 1_555 1_555
C2 C3 1_555 1_555
C7 C32 1_555 1_555
O3 Co1_4 1_555 1_555
C18 O3 1_555 1_555
O4 C18 1_555 1_555
C19 C18 1_555 1_555
C20 C19 1_555 1_555
H20 C20 1_555 1_555
C21 C20 1_555 1_555
H21 C21 1_555 1_555
C22 C21 1_555 1_555
H22 C22 1_555 1_555
C23 C22 1_555 1_555
H23 C23 1_555 1_555
C24 C19 1_555 1_555
H24 C24 1_555 1_555
N5 Co1_4 1_555 1_555
C23 C24 1_555 1_555
Co3 O1_2 1_555 1_555
O1_2 C11_2 1_555 1_555
O2_2 C11_2 1_555 1_555
N1_2 Co3 1_555 1_555
N2_2 N1_2 1_555 1_555
H1_2 N2_2 1_555 1_555
N3_2 N4_2 1_555 1_555
N4_2 C6_2 1_555 1_555
H2_2 N8_2 1_555 1_555
C1_2 N1_2 1_555 1_555
C2_2 C1_2 1_555 1_555
C3_2 N2_2 1_555 1_555
C4_2 C3_2 1_555 1_555
H3_2 C4_2 1_555 1_555
H4_2 C4_2 1_555 1_555
H5_2 C4_2 1_555 1_555
C5_2 C1_2 1_555 1_555
H6_2 C5_2 1_555 1_555
H7_2 C5_2 1_555 1_555
H8_2 C5_2 1_555 1_555
C6_2 C7_2 1_555 1_555
C7_2 C2_2 1_555 1_555
C8_2 C9_2 1_555 1_555
C9_2 H9_2 1_555 1_555
H10_2 C9_2 1_555 1_555
H11_2 C9_2 1_555 1_555
C10_2 H12_2 1_555 1_555
H13_2 C10_2 1_555 1_555
H14_2 C10_2 1_555 1_555
C11_2 C12_2 1_555 1_555
C12_2 C13_2 1_555 1_555
C13_2 H15_2 1_555 1_555
C14_2 C13_2 1_555 1_555
H16_2 C14_2 1_555 1_555
C15_2 C14_2 1_555 1_555
H17_2 C15_2 1_555 1_555
C16_2 C15_2 1_555 1_555
H18_2 C16_2 1_555 1_555
C17_2 C12_2 1_555 1_555
H19_2 C17_2 1_555 1_555
O3_2 Co3 1_555 1_555
C18_2 O3_2 1_555 1_555
O4_2 C18_2 1_555 1_555
C19_2 C18_2 1_555 1_555
C20_2 C19_2 1_555 1_555
H20_2 C20_2 1_555 1_555
C21_2 C20_2 1_555 1_555
C22_2 C21_2 1_555 1_555
C23_2 C22_2 1_555 1_555
H23_2 C23_2 1_555 1_555
C24_2 C19_2 1_555 1_555
H24_2 C24_2 1_555 1_555
N5_2 Co3 1_555 1_555
Co2_2 N3_2 1_555 1_555
Co3_2 N6_2 1_555 1_555
N6_2 N7_2 1_555 1_555
N7_2 H25_2 1_555 1_555
C25_2 N7_2 1_555 1_555
C26_2 C25_2 1_555 1_555
C27_2 N6_2 1_555 1_555
C28_2 C27_2 1_555 1_555
H26_2 C28_2 1_555 1_555
H27_2 C28_2 1_555 1_555
H28_2 C28_2 1_555 1_555
C29_2 C8_2 1_555 1_555
C30_2 C10_2 1_555 1_555
N8_2 C30_2 1_555 1_555
N9_2 Co3 1_555 1_555
C31_2 C25_2 1_555 1_555
H29_2 C31_2 1_555 1_555
H30_2 C31_2 1_555 1_555
H31_2 C31_2 1_555 1_555
C32_2 N3_2 1_555 1_555
C33_2 C32_2 1_555 1_555
H32_2 C33_2 1_555 1_555
H33_2 C33_2 1_555 1_555
H34_2 C33_2 1_555 1_555
H35_2 N4_2 1_555 1_555
C34_2 C6_2 1_555 1_555
H36_2 C34_2 1_555 1_555
H37_2 C34_2 1_555 1_555
H38_2 C34_2 1_555 1_555
C2_2 C3_2 1_555 1_555
C7_2 C32_2 1_555 1_555
C8_2 N9_2 1_555 1_555
C16_2 C17_2 1_555 1_555
C23_2 C24_2 1_555 1_555
C26_2 C27_2 1_555 1_555
C26_2 C29_2 1_555 1_555
C29_2 C30_2 1_555 1_555
N8_2 N9_2 1_555 1_555
Co2_2 O1_3 1_555 1_555
O1_3 C11_3 1_555 1_555
O2_3 C11_3 1_555 1_555
H1_3 N2_3 1_555 1_555
H3_3 C4_3 1_555 1_555
H4_3 C4_3 1_555 1_555
C11_3 C12_3 1_555 1_555
C12_3 C13_3 1_555 1_555
C13_3 H15_3 1_555 1_555
C14_3 C13_3 1_555 1_555
H16_3 C14_3 1_555 1_555
C15_3 C14_3 1_555 1_555
H17_3 C15_3 1_555 1_555
C16_3 C15_3 1_555 1_555
H18_3 C16_3 1_555 1_555
C17_3 C12_3 1_555 1_555
H19_3 C17_3 1_555 1_555
N10_2 Co2_2 1_555 1_555
C16_3 C17_3 1_555 1_555
N1_3 Co2_3 1_555 1_555
N3_3 N4_3 1_555 1_555
N4_3 C6_3 1_555 1_555
H2_3 N8_3 1_555 1_555
C1_3 N1_3 1_555 1_555
C2_3 C1_3 1_555 1_555
C5_3 C1_3 1_555 1_555
H6_3 C5_3 1_555 1_555
H7_3 C5_3 1_555 1_555
H8_3 C5_3 1_555 1_555
C6_3 C7_3 1_555 1_555
C7_3 C2_3 1_555 1_555
C8_3 C9_3 1_555 1_555
C9_3 H9_3 1_555 1_555
H10_3 C9_3 1_555 1_555
H11_3 C9_3 1_555 1_555
C10_3 H12_3 1_555 1_555
H13_3 C10_3 1_555 1_555
H14_3 C10_3 1_555 1_555
O3_3 Co2_3 1_555 1_555
C18_3 O3_3 1_555 1_555
O4_3 C18_3 1_555 1_555
C19_3 C18_3 1_555 1_555
C20_3 C19_3 1_555 1_555
H20_3 C20_3 1_555 1_555
C21_3 C20_3 1_555 1_555
H21_3 C21_3 1_555 1_555
C22_3 C21_3 1_555 1_555
H22_3 C22_3 1_555 1_555
C23_3 C22_3 1_555 1_555
H23_3 C23_3 1_555 1_555
C24_3 C19_3 1_555 1_555
H24_3 C24_3 1_555 1_555
Co2_4 N3_3 1_555 1_555
Co3_3 N6_3 1_555 1_555
N6_3 N7_3 1_555 1_555
N7_3 H25_3 1_555 1_555
C25_3 N7_3 1_555 1_555
C26_3 C25_3 1_555 1_555
C27_3 N6_3 1_555 1_555
C28_3 C27_3 1_555 1_555
H26_3 C28_3 1_555 1_555
H27_3 C28_3 1_555 1_555
H28_3 C28_3 1_555 1_555
C29_3 C8_3 1_555 1_555
C30_3 C10_3 1_555 1_555
N8_3 C30_3 1_555 1_555
N9_3 Co2_3 1_555 1_555
C31_3 C25_3 1_555 1_555
H29_3 C31_3 1_555 1_555
H30_3 C31_3 1_555 1_555
H31_3 C31_3 1_555 1_555
C32_3 N3_3 1_555 1_555
C33_3 C32_3 1_555 1_555
H32_3 C33_3 1_555 1_555
H33_3 C33_3 1_555 1_555
H34_3 C33_3 1_555 1_555
H35_3 N4_3 1_555 1_555
C34_3 C6_3 1_555 1_555
H36_3 C34_3 1_555 1_555
H37_3 C34_3 1_555 1_555
H38_3 C34_3 1_555 1_555
C2_3 C3_3 1_555 1_555
C7_3 C32_3 1_555 1_555
C8_3 N9_3 1_555 1_555
C23_3 C24_3 1_555 1_555
C26_3 C27_3 1_555 1_555
C26_3 C29_3 1_555 1_555
C29_3 C30_3 1_555 1_555
N8_3 N9_3 1_555 1_555
N7_4 H25_4 1_555 1_555
H29_4 C31_4 1_555 1_555
H30_4 C31_4 1_555 1_555
N4_4 C6_4 1_555 1_555
H3_4 C4_4 1_555 1_555
H4_4 C4_4 1_555 1_555
H5_4 C4_4 1_555 1_555
H35_4 N4_4 1_555 1_555
C34_4 C6_4 1_555 1_555
H36_4 C34_4 1_555 1_555
H37_4 C34_4 1_555 1_555
H38_4 C34_4 1_555 1_555
Co3_3 O1_4 1_555 1_555
O1_4 C11_4 1_555 1_555
O2_4 C11_4 1_555 1_555
N1_4 Co3_3 1_555 1_555
N2_4 N1_4 1_555 1_555
H1_4 N2_4 1_555 1_555
H2_4 N8_4 1_555 1_555
C1_4 N1_4 1_555 1_555
C2_4 C1_4 1_555 1_555
C3_4 N2_4 1_555 1_555
C5_4 C1_4 1_555 1_555
H6_4 C5_4 1_555 1_555
H7_4 C5_4 1_555 1_555
H8_4 C5_4 1_555 1_555
C7_4 C2_4 1_555 1_555
C8_4 C9_4 1_555 1_555
C9_4 H9_4 1_555 1_555
H10_4 C9_4 1_555 1_555
H11_4 C9_4 1_555 1_555
C10_4 H12_4 1_555 1_555
H14_4 C10_4 1_555 1_555
C11_4 C12_4 1_555 1_555
C12_4 C13_4 1_555 1_555
C13_4 H15_4 1_555 1_555
C14_4 C13_4 1_555 1_555
C15_4 C14_4 1_555 1_555
C16_4 C15_4 1_555 1_555
H18_4 C16_4 1_555 1_555
C17_4 C12_4 1_555 1_555
H19_4 C17_4 1_555 1_555
O3_4 Co3_3 1_555 1_555
C18_4 O3_4 1_555 1_555
O4_4 C18_4 1_555 1_555
C19_4 C18_4 1_555 1_555
C20_4 C19_4 1_555 1_555
H20_4 C20_4 1_555 1_555
C21_4 C20_4 1_555 1_555
H21_4 C21_4 1_555 1_555
C22_4 C21_4 1_555 1_555
H22_4 C22_4 1_555 1_555
C23_4 C22_4 1_555 1_555
H23_4 C23_4 1_555 1_555
C24_4 C19_4 1_555 1_555
H24_4 C24_4 1_555 1_555
N5_3 Co3_3 1_555 1_555
Co3_11 N6_4 1_555 1_555
C26_4 C25_4 1_555 1_555
C27_4 N6_4 1_555 1_555
C28_4 C27_4 1_555 1_555
H26_4 C28_4 1_555 1_555
H27_4 C28_4 1_555 1_555
H28_4 C28_4 1_555 1_555
C29_4 C8_4 1_555 1_555
C30_4 C10_4 1_555 1_555
N8_4 C30_4 1_555 1_555
N9_4 Co3_3 1_555 1_555
C32_4 N5 1_555 1_555
C33_4 C32_4 1_555 1_555
H32_4 C33_4 1_555 1_555
H33_4 C33_4 1_555 1_555
H34_4 C33_4 1_555 1_555
C2_4 C3_4 1_555 1_555
C7_4 C32_4 1_555 1_555
C8_4 N9_4 1_555 1_555
C16_4 C17_4 1_555 1_555
C23_4 C24_4 1_555 1_555
C26_4 C27_4 1_555 1_555
C26_4 C29_4 1_555 1_555
C29_4 C30_4 1_555 1_555
N8_4 N9_4 1_555 1_555
Co2 O1_5 1_555 1_555
O1_5 C11_5 1_555 1_555
O2_5 C11_5 1_555 1_555
N1_5 Co2 1_555 1_555
N2_5 N1_5 1_555 1_555
H1_5 N2_5 1_555 1_555
N3_4 N4_5 1_555 1_555
N4_5 C6_5 1_555 1_555
H2_5 N8_5 1_555 1_555
C1_5 N1_5 1_555 1_555
C2_5 C1_5 1_555 1_555
C3_5 N2_5 1_555 1_555
C4_5 C3_5 1_555 1_555
H3_5 C4_5 1_555 1_555
H4_5 C4_5 1_555 1_555
H5_5 C4_5 1_555 1_555
C5_5 C1_5 1_555 1_555
H6_5 C5_5 1_555 1_555
H7_5 C5_5 1_555 1_555
H8_5 C5_5 1_555 1_555
C6_5 C7_5 1_555 1_555
C7_5 C2_5 1_555 1_555
C8_5 C9_5 1_555 1_555
C9_5 H9_5 1_555 1_555
H10_5 C9_5 1_555 1_555
H11_5 C9_5 1_555 1_555
C10_5 H12_5 1_555 1_555
H13_5 C10_5 1_555 1_555
H14_5 C10_5 1_555 1_555
C11_5 C12_5 1_555 1_555
C12_5 C13_5 1_555 1_555
C13_5 H15_5 1_555 1_555
C14_5 C13_5 1_555 1_555
C15_5 C14_5 1_555 1_555
C16_5 C15_5 1_555 1_555
H18_5 C16_5 1_555 1_555
C17_5 C12_5 1_555 1_555
H19_5 C17_5 1_555 1_555
O3_5 Co2 1_555 1_555
C18_5 O3_5 1_555 1_555
O4_5 C18_5 1_555 1_555
C19_5 C18_5 1_555 1_555
C20_5 C19_5 1_555 1_555
H20_5 C20_5 1_555 1_555
C21_5 C20_5 1_555 1_555
H21_5 C21_5 1_555 1_555
C22_5 C21_5 1_555 1_555
H22_5 C22_5 1_555 1_555
C23_5 C22_5 1_555 1_555
H23_5 C23_5 1_555 1_555
C24_5 C19_5 1_555 1_555
H24_5 C24_5 1_555 1_555
Co3_2 N3_4 1_555 1_555
C26_5 C25_5 1_555 1_555
C27_5 N10_2 1_555 1_555
C28_5 C27_5 1_555 1_555
H26_5 C28_5 1_555 1_555
H27_5 C28_5 1_555 1_555
H28_5 C28_5 1_555 1_555
C29_5 C8_5 1_555 1_555
C30_5 C10_5 1_555 1_555
N8_5 C30_5 1_555 1_555
N9_5 Co2 1_555 1_555
N10_3 Co2 1_555 1_555
C32_5 N3_4 1_555 1_555
C33_5 C32_5 1_555 1_555
H32_5 C33_5 1_555 1_555
H33_5 C33_5 1_555 1_555
H34_5 C33_5 1_555 1_555
H35_5 N4_5 1_555 1_555
C34_5 C6_5 1_555 1_555
H36_5 C34_5 1_555 1_555
H37_5 C34_5 1_555 1_555
H38_5 C34_5 1_555 1_555
C2_5 C3_5 1_555 1_555
C7_5 C32_5 1_555 1_555
C8_5 N9_5 1_555 1_555
C16_5 C17_5 1_555 1_555
C23_5 C24_5 1_555 1_555
C26_5 C27_5 1_555 1_555
C26_5 C29_5 1_555 1_555
C29_5 C30_5 1_555 1_555
N8_5 N9_5 1_555 1_555
N7_5 H25_5 1_555 1_555
H29_5 C31_5 1_555 1_555
H30_5 C31_5 1_555 1_555
Co3_2 O1_6 1_555 1_555
O1_6 C11_6 1_555 1_555
O2_6 C11_6 1_555 1_555
C11_6 C12_6 1_555 1_555
C12_6 C13_6 1_555 1_555
C13_6 H15_6 1_555 1_555
C14_6 C13_6 1_555 1_555
H16_6 C14_6 1_555 1_555
C15_6 C14_6 1_555 1_555
H17_6 C15_6 1_555 1_555
C16_6 C15_6 1_555 1_555
H18_6 C16_6 1_555 1_555
C17_6 C12_6 1_555 1_555
H19_6 C17_6 1_555 1_555
O3_6 Co3_2 1_555 1_555
C18_6 O3_6 1_555 1_555
O4_6 C18_6 1_555 1_555
C19_6 C18_6 1_555 1_555
C20_6 C19_6 1_555 1_555
H20_6 C20_6 1_555 1_555
C21_6 C20_6 1_555 1_555
H21_6 C21_6 1_555 1_555
C22_6 C21_6 1_555 1_555
H22_6 C22_6 1_555 1_555
C23_6 C22_6 1_555 1_555
H23_6 C23_6 1_555 1_555
C24_6 C19_6 1_555 1_555
H24_6 C24_6 1_555 1_555
N5_4 Co3_2 1_555 1_555
N10_4 Co3_2 1_555 1_555
C16_6 C17_6 1_555 1_555
C23_6 C24_6 1_555 1_555
N2_6 N10_3 1_555 1_555
H1_6 N2_6 1_555 1_555
C1_6 N10_3 1_555 1_555
C2_6 C1_6 1_555 1_555
C3_6 N2_6 1_555 1_555
C5_6 C1_6 1_555 1_555
H6_6 C5_6 1_555 1_555
H7_6 C5_6 1_555 1_555
H8_6 C5_6 1_555 1_555
C7_6 C2_6 1_555 1_555
Co3_8 N3_5 1_555 1_555
C32_6 N3_5 1_555 1_555
C33_6 C32_6 1_555 1_555
H32_6 C33_6 1_555 1_555
H33_6 C33_6 1_555 1_555
H34_6 C33_6 1_555 1_555
C2_6 C3_6 1_555 1_555
C7_6 C32_6 1_555 1_555
N4_6 C6_6 1_555 1_555
H3_6 C4_6 1_555 1_555
H4_6 C4_6 1_555 1_555
H5_6 C4_6 1_555 1_555
H35_6 N4_6 1_555 1_555
C34_6 C6_6 1_555 1_555
H36_6 C34_6 1_555 1_555
H37_6 C34_6 1_555 1_555
H38_6 C34_6 1_555 1_555
N10_5 Co3_4 1_555 1_555
Co3_5 O1_7 1_555 1_555
O1_7 C11_7 1_555 1_555
O2_7 C11_7 1_555 1_555
C11_7 C12_7 1_555 1_555
C12_7 C13_7 1_555 1_555
C13_7 H15_7 1_555 1_555
C14_7 C13_7 1_555 1_555
H16_7 C14_7 1_555 1_555
C15_7 C14_7 1_555 1_555
H17_7 C15_7 1_555 1_555
C16_7 C15_7 1_555 1_555
H18_7 C16_7 1_555 1_555
C17_7 C12_7 1_555 1_555
H19_7 C17_7 1_555 1_555
C16_7 C17_7 1_555 1_555
H2_6 N8_6 1_555 1_555
C10_6 H12_6 1_555 1_555
H13_6 C10_6 1_555 1_555
H14_6 C10_6 1_555 1_555
C30_6 C10_6 1_555 1_555
N8_6 C30_6 1_555 1_555
H29_6 C31_6 1_555 1_555
H30_6 C31_6 1_555 1_555
H31_6 C31_6 1_555 1_555
C8_6 C9_6 1_555 1_555
C9_6 H9_6 1_555 1_555
H10_6 C9_6 1_555 1_555
H11_6 C9_6 1_555 1_555
Co2_4 N6_5 1_555 1_555
N6_5 N7_6 1_555 1_555
N7_6 H25_6 1_555 1_555
C25_6 N7_6 1_555 1_555
C26_6 C25_6 1_555 1_555
C27_6 N6_5 1_555 1_555
C28_6 C27_6 1_555 1_555
H26_6 C28_6 1_555 1_555
H27_6 C28_6 1_555 1_555
H28_6 C28_6 1_555 1_555
C29_6 C8_6 1_555 1_555
N9_6 Co3_7 1_555 1_555
C8_6 N9_6 1_555 1_555
C26_6 C27_6 1_555 1_555
C26_6 C29_6 1_555 1_555
O3_7 Co3_10 1_555 1_555
C18_7 O3_7 1_555 1_555
O4_7 C18_7 1_555 1_555
C19_7 C18_7 1_555 1_555
C20_7 C19_7 1_555 1_555
H20_7 C20_7 1_555 1_555
C21_7 C20_7 1_555 1_555
H21_7 C21_7 1_555 1_555
C22_7 C21_7 1_555 1_555
H22_7 C22_7 1_555 1_555
C23_7 C22_7 1_555 1_555
H23_7 C23_7 1_555 1_555
C24_7 C19_7 1_555 1_555
H24_7 C24_7 1_555 1_555
C23_7 C24_7 1_555 1_555
N2_7 N10 1_555 1_555
H1_7 N2_7 1_555 1_555
N3_6 N4_7 1_555 1_555
N4_7 C6_7 1_555 1_555
C1_7 N10 1_555 1_555
C2_7 C1_7 1_555 1_555
C3_7 N2_7 1_555 1_555
C4_7 C3_7 1_555 1_555
H3_7 C4_7 1_555 1_555
H4_7 C4_7 1_555 1_555
H5_7 C4_7 1_555 1_555
C5_7 C1_7 1_555 1_555
H6_7 C5_7 1_555 1_555
H7_7 C5_7 1_555 1_555
H8_7 C5_7 1_555 1_555
C6_7 C7_7 1_555 1_555
C7_7 C2_7 1_555 1_555
Co2_4 N3_6 1_555 1_555
C32_7 N3_6 1_555 1_555
C33_7 C32_7 1_555 1_555
H32_7 C33_7 1_555 1_555
H33_7 C33_7 1_555 1_555
H34_7 C33_7 1_555 1_555
H35_7 N4_7 1_555 1_555
C34_7 C6_7 1_555 1_555
H36_7 C34_7 1_555 1_555
H38_7 C34_7 1_555 1_555
C2_7 C3_7 1_555 1_555
C7_7 C32_7 1_555 1_555
H2_7 N8_7 1_555 1_555
C8_7 C9_7 1_555 1_555
C9_7 H9_7 1_555 1_555
H10_7 C9_7 1_555 1_555
H11_7 C9_7 1_555 1_555
C10_7 H12_7 1_555 1_555
H13_7 C10_7 1_555 1_555
H14_7 C10_7 1_555 1_555
N10_4 N7_7 1_555 1_555
N7_7 H25_7 1_555 1_555
C25_7 N7_7 1_555 1_555
C26_7 C25_7 1_555 1_555
C27_7 N10_4 1_555 1_555
C28_7 C27_7 1_555 1_555
H26_7 C28_7 1_555 1_555
H27_7 C28_7 1_555 1_555
H28_7 C28_7 1_555 1_555
C29_7 C8_7 1_555 1_555
C30_7 C10_7 1_555 1_555
N8_7 C30_7 1_555 1_555
C31_7 C25_7 1_555 1_555
H29_7 C31_7 1_555 1_555
H30_7 C31_7 1_555 1_555
H31_7 C31_7 1_555 1_555
C8_7 N5_3 1_555 1_555
C26_7 C27_7 1_555 1_555
C26_7 C29_7 1_555 1_555
C29_7 C30_7 1_555 1_555
N8_7 N5_3 1_555 1_555
H2_8 N8_8 1_555 1_555
C8_8 C9_8 1_555 1_555
C9_8 H9_8 1_555 1_555
H10_8 C9_8 1_555 1_555
H11_8 C9_8 1_555 1_555
C10_8 H12_8 1_555 1_555
H14_8 C10_8 1_555 1_555
C26_8 C25_8 1_555 1_555
C27_8 N10_5 1_555 1_555
C28_8 C27_8 1_555 1_555
H26_8 C28_8 1_555 1_555
H27_8 C28_8 1_555 1_555
H28_8 C28_8 1_555 1_555
C29_8 C8_8 1_555 1_555
C30_8 C10_8 1_555 1_555
N8_8 C30_8 1_555 1_555
C8_8 N5_2 1_555 1_555
C26_8 C27_8 1_555 1_555
C26_8 C29_8 1_555 1_555
C29_8 C30_8 1_555 1_555
N8_8 N5_2 1_555 1_555
N7_8 H25_8 1_555 1_555
H29_8 C31_8 1_555 1_555
H30_8 C31_8 1_555 1_555
Co2_4 O1_8 1_555 1_555
O1_8 C11_8 1_555 1_555
O2_8 C11_8 1_555 1_555
N1_6 Co2_4 1_555 1_555
N2_8 N1_6 1_555 1_555
H1_8 N2_8 1_555 1_555
N5_4 N4_8 1_555 1_555
N4_8 C6_8 1_555 1_555
C1_8 N1_6 1_555 1_555
C2_8 C1_8 1_555 1_555
C3_8 N2_8 1_555 1_555
C4_8 C3_8 1_555 1_555
H3_8 C4_8 1_555 1_555
H4_8 C4_8 1_555 1_555
H5_8 C4_8 1_555 1_555
C5_8 C1_8 1_555 1_555
H6_8 C5_8 1_555 1_555
H7_8 C5_8 1_555 1_555
H8_8 C5_8 1_555 1_555
C6_8 C7_8 1_555 1_555
C7_8 C2_8 1_555 1_555
C11_8 C12_8 1_555 1_555
C12_8 C13_8 1_555 1_555
C13_8 H15_8 1_555 1_555
C14_8 C13_8 1_555 1_555
C15_8 C14_8 1_555 1_555
C16_8 C15_8 1_555 1_555
H18_8 C16_8 1_555 1_555
C17_8 C12_8 1_555 1_555
H19_8 C17_8 1_555 1_555
O3_8 Co2_4 1_555 1_555
C18_8 O3_8 1_555 1_555
O4_8 C18_8 1_555 1_555
C19_8 C18_8 1_555 1_555
C20_8 C19_8 1_555 1_555
H20_8 C20_8 1_555 1_555
C21_8 C20_8 1_555 1_555
H21_8 C21_8 1_555 1_555
C22_8 C21_8 1_555 1_555
H22_8 C22_8 1_555 1_555
C23_8 C22_8 1_555 1_555
H23_8 C23_8 1_555 1_555
C24_8 C19_8 1_555 1_555
H24_8 C24_8 1_555 1_555
C32_8 N5_4 1_555 1_555
C33_8 C32_8 1_555 1_555
H32_8 C33_8 1_555 1_555
H33_8 C33_8 1_555 1_555
H34_8 C33_8 1_555 1_555
H35_8 N4_8 1_555 1_555
C34_8 C6_8 1_555 1_555
H36_8 C34_8 1_555 1_555
H37_8 C34_8 1_555 1_555
H38_8 C34_8 1_555 1_555
C2_8 C3_8 1_555 1_555
C7_8 C32_8 1_555 1_555
C16_8 C17_8 1_555 1_555
C23_8 C24_8 1_555 1_555

#END
