
###############################################################################
#
# This file contains modified crystal structure data generated from the
# MOF subset of the Cambridge Structural Database (CSD) v543 
# hosted by the Cambridge Crystallographic Data Centre (CCDC).
#
# This work is licensed under the Creative Commons
# Attribution-NonCommercial-ShareAlike 4.0 International License.
# To view a copy of this license, visit
# http://creativecommons.org/licenses/by-nc-sa/4.0/
# or send a letter to
# Creative Commons, PO Box 1866, Mountain View, CA 94042, USA.
#
# CIF created using the CSD Python API on 29 September 2022
# The structure has been converted into the P1 space group
# The structure has a 3D framework
# The original CSD entry XENKIM is in the tetragonal crystal system
# The framework has been calculated to contain at least 10.0% void space
# The void calculation uses a probe of radius 1.32A, grid spacing 0.4
#
###############################################################################

data_XENKIM
_chemical_formula_moiety         '(C336 H304 Ca16 N48 O124)n'
_symmetry_cell_setting           triclinic
_symmetry_space_group_name_H-M   'P 1'
_symmetry_Int_Tables_number      1
_space_group_name_Hall           'P 1'
loop_
_symmetry_equiv_pos_site_id
_symmetry_equiv_pos_as_xyz
1 x,y,z
_cell_length_a                   28.2810(8)
_cell_length_b                   28.2810(8)
_cell_length_c                   13.5488(7)
_cell_angle_alpha                90
_cell_angle_beta                 90
_cell_angle_gamma                90
_cell_volume                     10836.5
loop_
_atom_site_label
_atom_site_type_symbol
_atom_site_fract_x
_atom_site_fract_y
_atom_site_fract_z
O1 O 0.20341(12) 0.00244(13) 0.4239(3)
O2 O 0.16589(13) 0.05590(14) 0.5102(3)
O3 O 0.24182(13) 0.04691(12) 0.0685(2)
O5 O 0.14404(17) 0.21669(14) 0.2600(4)
O6 O 0.02956(15) 0.10554(17) 0.2595(4)
O8 O 0.12285(17) 0.03137(18) 0.7040(3)
N1 N 0.08709(17) 0.16164(17) 0.2550(4)
N3 N 0.0778(2) 0.0117(2) 0.8382(4)
C1 C 0.18026(18) 0.04020(19) 0.4305(4)
C2 C 0.20148(18) 0.06617(17) 0.0652(4)
C3 C 0.16854(17) 0.06609(18) 0.3382(4)
C4 C 0.19091(18) 0.05451(17) 0.2482(4)
H1 H 0.2148 0.0309 0.2468
C5 C 0.17798(18) 0.07755(17) 0.1613(4)
C6 C 0.14273(19) 0.11169(19) 0.1648(4)
H2 H 0.1323 0.1265 0.1058
C7 C 0.12284(19) 0.1241(2) 0.2545(4)
C8 C 0.13483(19) 0.10175(18) 0.3402(4)
H3 H 0.1202 0.1105 0.4006
C9 C 0.1024(2) 0.2078(2) 0.2582(4)
C10 C 0.0394(2) 0.1466(2) 0.2586(5)
C12 C 0.00357(19) 0.18476(19) 0.2587(4)
C13 C 0.0777(2) 0.2909(2) 0.2587(5)
H5 H 0.1102 0.2992 0.2572
C14 C 0.0658(2) 0.2441(2) 0.2584(4)
C15 C 0.0181(2) 0.2321(2) 0.2575(4)
C17 C 0.0576(3) 0.0019(4) 0.4409(8)
H7 H 0.0643 0.0035 0.5118
H9 H 0.0636 0.0329 0.4109
C19 C 0.1116(3) 0.0358(2) 0.7910(6)
H13 H 0.1286 0.0585 0.8285
C21 C 0.0676(2) 0.0209(3) 0.9414(4)
H17 H 0.0917 0.0422 0.9685
H19 H 0.0364 0.0356 0.9473
Ca7 Ca 0.30977(3) 0.00490(4) 0.12304(9)
O11 O 0.25244(13) 0.04659(12) 0.6739(3)
C32 C 0.0439(2) 0.3269(2) 0.2612(5)
H23 H 0.0535 0.3590 0.2645
O4 O 0.18158(13) 0.07738(14) 0.9879(3)
Ca4 Ca 0.24510(4) 0.05977(3) 0.87304(9)
Ca1 Ca 0.19023(3) 0.99510(4) 0.62304(9)
O7 O 0.13003(16) 0.94882(18) 0.5376(3)
N2 N 0.0877(3) 0.9670(3) 0.3959(6)
C16 C 0.1219(3) 0.9431(3) 0.4493(7)
H6 H 0.1405 0.9204 0.4150
H8 H 0.0245 0.9931 0.4307
C18 C 0.0812(4) 0.9623(4) 0.2893(6)
H10 H 0.0546 0.9821 0.2681
H11 H 0.0745 0.9291 0.2732
H12 H 0.1100 0.9723 0.2552
C20 C 0.0521(3) 0.9765(3) 0.7874(7)
H14 H 0.0681 0.9691 0.7251
H15 H 0.0201 0.9881 0.7737
H16 H 0.0503 0.9480 0.8282
H18 H 0.0680 0.9910 0.9781
Ca6 Ca 0.25490(4) 0.94023(3) 0.37304(9)
O15 O 0.20309(12) 0.99182(13) 0.8185(2)
O16 O 0.25818(13) 0.95309(12) 0.5685(2)
O19 O 0.17262(14) 0.93158(13) 0.7379(3)
C11 C 0.9561(2) 0.1731(2) 0.2612(5)
H4 H 0.9465 0.1410 0.2645
Ca2 Ca 0.80977(3) 0.50490(4) 0.62304(9)
Ca5 Ca 0.69023(3) 0.49510(4) 0.12304(9)
Ca8 Ca 0.74510(4) 0.55977(3) 0.37304(9)
O9 O 0.79659(12) 0.49756(13) 0.4239(3)
O10 O 0.74756(13) 0.45341(12) 0.6739(3)
O12 O 0.83411(13) 0.44410(14) 0.5102(3)
O13 O 0.75818(13) 0.45309(12) 0.0685(2)
O14 O 0.74182(13) 0.54691(12) 0.5685(2)
O17 O 0.79691(12) 0.50818(13) 0.8185(2)
O20 O 0.82738(14) 0.56842(13) 0.7379(3)
O21 O 0.85596(17) 0.28331(14) 0.2600(4)
O22 O 0.97044(15) 0.39446(17) 0.2595(4)
O23 O 0.86997(16) 0.55118(18) 0.5376(3)
O24 O 0.87715(17) 0.46863(18) 0.7040(3)
N4 N 0.91291(17) 0.33836(17) 0.2550(4)
N5 N 0.9123(3) 0.5330(3) 0.3959(6)
N6 N 0.9222(2) 0.4883(2) 0.8382(4)
C22 C 0.81974(18) 0.45980(19) 0.4305(4)
C23 C 0.79852(18) 0.43383(17) 0.0652(4)
C24 C 0.83146(17) 0.43391(18) 0.3382(4)
C25 C 0.80909(18) 0.44549(17) 0.2482(4)
H20 H 0.7852 0.4691 0.2468
C26 C 0.82202(18) 0.42245(17) 0.1613(4)
C27 C 0.85727(19) 0.38831(19) 0.1648(4)
H21 H 0.8677 0.3735 0.1058
C28 C 0.87716(19) 0.3759(2) 0.2545(4)
C29 C 0.86517(19) 0.39825(18) 0.3402(4)
H22 H 0.8798 0.3895 0.4006
C30 C 0.8976(2) 0.2922(2) 0.2582(4)
C31 C 0.9606(2) 0.3534(2) 0.2586(5)
C33 C 0.99643(19) 0.31524(19) 0.2587(4)
C34 C 0.9223(2) 0.2091(2) 0.2587(5)
H24 H 0.8898 0.2008 0.2572
C35 C 0.9342(2) 0.2559(2) 0.2584(4)
C36 C 0.9819(2) 0.2679(2) 0.2575(4)
C37 C 0.8781(3) 0.5569(3) 0.4493(7)
H25 H 0.8595 0.5796 0.4150
C38 C 0.9424(3) 0.4981(4) 0.4409(8)
H26 H 0.9357 0.4965 0.5118
H27 H 0.9755 0.5069 0.4307
H28 H 0.9364 0.4671 0.4109
C39 C 0.9188(4) 0.5377(4) 0.2893(6)
H29 H 0.9454 0.5179 0.2681
H30 H 0.9255 0.5709 0.2732
H31 H 0.8900 0.5277 0.2552
C40 C 0.8884(3) 0.4642(2) 0.7910(6)
H32 H 0.8714 0.4415 0.8285
C41 C 0.9479(3) 0.5235(3) 0.7874(7)
H33 H 0.9319 0.5309 0.7251
H34 H 0.9799 0.5119 0.7737
H35 H 0.9497 0.5520 0.8282
C42 C 0.9324(2) 0.4791(3) 0.9414(4)
H36 H 0.9083 0.4578 0.9685
H37 H 0.9320 0.5090 0.9781
H38 H 0.9636 0.4644 0.9473
Ca3 Ca 0.75490(4) 0.44023(3) 0.87304(9)
O18 O 0.81842(13) 0.42262(14) 0.9879(3)
N3_2 N 0.7383(2) 0.3278(2) 0.0882(4)
C19_2 C 0.7142(2) 0.3616(3) 0.0410(6)
H13_2 H 0.6915 0.3786 0.0785
C20_2 C 0.7735(3) 0.3021(3) 0.0374(7)
H15_2 H 0.7619 0.2701 0.0237
H16_2 H 0.8020 0.3003 0.0782
C21_2 C 0.7291(3) 0.3176(2) 0.1914(4)
H17_2 H 0.7078 0.3417 0.2185
H18_2 H 0.7590 0.3180 0.2281
H19_2 H 0.7144 0.2864 0.1973
N6_2 N 0.2617(2) 0.1722(2) 0.0882(4)
C40_2 C 0.2858(2) 0.1384(3) 0.0410(6)
H32_2 H 0.3085 0.1214 0.0785
C41_2 C 0.2265(3) 0.1979(3) 0.0374(7)
H34_2 H 0.2381 0.2299 0.0237
H35_2 H 0.1980 0.1997 0.0782
C42_2 C 0.2709(3) 0.1824(2) 0.1914(4)
H36_2 H 0.2922 0.1583 0.2185
H37_2 H 0.2410 0.1820 0.2281
H38_2 H 0.2856 0.2136 0.1973
O2_2 O 0.69410(14) 0.41589(13) 0.7602(3)
O3_2 O 0.70309(12) 0.49182(13) 0.3185(2)
O4_2 O 0.67262(14) 0.43158(13) 0.2379(3)
O5_2 O 0.53331(14) 0.39404(17) 0.5100(4)
O6_2 O 0.64446(17) 0.27956(15) 0.5095(4)
O7_2 O 0.80118(18) 0.38003(16) 0.7876(3)
O8_2 O 0.71863(18) 0.37285(17) 0.9540(3)
N1_2 N 0.58836(17) 0.33709(17) 0.5050(4)
N2_2 N 0.7830(3) 0.3377(3) 0.6459(6)
C1_2 C 0.70980(19) 0.43026(18) 0.6805(4)
C2_2 C 0.68383(17) 0.45148(18) 0.3152(4)
C3_2 C 0.68391(18) 0.41854(17) 0.5882(4)
C4_2 C 0.69549(17) 0.44091(18) 0.4982(4)
H1_2 H 0.7191 0.4648 0.4968
C5_2 C 0.67245(17) 0.42798(18) 0.4113(4)
C6_2 C 0.63831(19) 0.39273(19) 0.4148(4)
H2_2 H 0.6235 0.3823 0.3558
C7_2 C 0.6259(2) 0.37284(19) 0.5045(4)
C8_2 C 0.64825(18) 0.38483(19) 0.5902(4)
H3_2 H 0.6395 0.3702 0.6506
C9_2 C 0.5422(2) 0.3524(2) 0.5082(4)
C10_2 C 0.6034(2) 0.2894(2) 0.5086(5)
C11_2 C 0.5769(2) 0.2061(2) 0.5112(5)
H4_2 H 0.6090 0.1965 0.5145
C12_2 C 0.56524(19) 0.25357(19) 0.5087(4)
C13_2 C 0.4591(2) 0.3277(2) 0.5087(5)
H5_2 H 0.4508 0.3602 0.5072
C14_2 C 0.5059(2) 0.3158(2) 0.5084(4)
C15_2 C 0.5179(2) 0.2681(2) 0.5075(4)
C16_2 C 0.8069(3) 0.3719(3) 0.6993(7)
H6_2 H 0.8296 0.3905 0.6650
C17_2 C 0.7481(4) 0.3076(3) 0.6909(8)
H7_2 H 0.7465 0.3143 0.7618
H8_2 H 0.7569 0.2745 0.6807
H9_2 H 0.7171 0.3136 0.6609
C18_2 C 0.7877(4) 0.3312(4) 0.5393(6)
H10_2 H 0.7679 0.3046 0.5181
H11_2 H 0.8209 0.3245 0.5232
H12_2 H 0.7777 0.3600 0.5052
H14_2 H 0.7809 0.3181 0.9751
O11_2 O 0.70341(12) 0.50244(13) 0.9239(3)
O12_2 O 0.30590(14) 0.08411(13) 0.7602(3)
O13_2 O 0.29691(12) 0.00818(13) 0.3185(2)
O18_2 O 0.32738(14) 0.06842(13) 0.2379(3)
O21_2 O 0.46669(14) 0.10596(17) 0.5100(4)
O22_2 O 0.35554(17) 0.22044(15) 0.5095(4)
O23_2 O 0.19882(18) 0.11997(16) 0.7876(3)
O24_2 O 0.28137(18) 0.12715(17) 0.9540(3)
N4_2 N 0.41164(17) 0.16291(17) 0.5050(4)
N5_2 N 0.2170(3) 0.1623(3) 0.6459(6)
C22_2 C 0.29020(19) 0.06974(18) 0.6805(4)
C23_2 C 0.31617(17) 0.04852(18) 0.3152(4)
C24_2 C 0.31609(18) 0.08146(17) 0.5882(4)
C25_2 C 0.30451(17) 0.05909(18) 0.4982(4)
H20_2 H 0.2809 0.0352 0.4968
C26_2 C 0.32755(17) 0.07202(18) 0.4113(4)
C27_2 C 0.36169(19) 0.10727(19) 0.4148(4)
H21_2 H 0.3765 0.1177 0.3558
C28_2 C 0.3741(2) 0.12716(19) 0.5045(4)
C29_2 C 0.35175(18) 0.11517(19) 0.5902(4)
H22_2 H 0.3605 0.1298 0.6506
C30_2 C 0.4578(2) 0.1476(2) 0.5082(4)
C31_2 C 0.3966(2) 0.2106(2) 0.5086(5)
C32_2 C 0.4231(2) 0.2939(2) 0.5112(5)
H23_2 H 0.3910 0.3035 0.5145
C33_2 C 0.43476(19) 0.24643(19) 0.5087(4)
C34_2 C 0.5409(2) 0.1723(2) 0.5087(5)
H24_2 H 0.5492 0.1398 0.5072
C35_2 C 0.4941(2) 0.1842(2) 0.5084(4)
C36_2 C 0.4821(2) 0.2319(2) 0.5075(4)
C37_2 C 0.1931(3) 0.1281(3) 0.6993(7)
H25_2 H 0.1704 0.1095 0.6650
C38_2 C 0.2519(4) 0.1924(3) 0.6909(8)
H26_2 H 0.2535 0.1857 0.7618
H27_2 H 0.2431 0.2255 0.6807
H28_2 H 0.2829 0.1864 0.6609
C39_2 C 0.2123(4) 0.1688(4) 0.5393(6)
H29_2 H 0.2321 0.1954 0.5181
H30_2 H 0.1791 0.1755 0.5232
H31_2 H 0.2223 0.1400 0.5052
H33_2 H 0.2191 0.1819 0.9751
O10_2 O 0.29659(12) 0.99756(13) 0.9239(3)
O23_3 O 0.36997(16) 0.05118(18) 0.0376(3)
C41_3 C 0.4479(3) 0.0235(3) 0.2874(7)
H33_3 H 0.4319 0.0309 0.2251
H34_3 H 0.4799 0.0119 0.2737
H35_3 H 0.4497 0.0520 0.3282
H37_3 H 0.4320 0.0090 0.4781
N5_3 N 0.4123(3) 0.0330(3) 0.8959(6)
C37_3 C 0.3781(3) 0.0569(3) 0.9493(7)
H25_3 H 0.3595 0.0796 0.9150
H27_3 H 0.4755 0.0069 0.9307
C39_3 C 0.4188(4) 0.0377(4) 0.7893(6)
H29_3 H 0.4454 0.0179 0.7681
H30_3 H 0.4255 0.0709 0.7732
H31_3 H 0.3900 0.0277 0.7552
O2_3 O 0.66589(13) 0.55590(14) 0.0102(3)
O7_3 O 0.63003(16) 0.44882(18) 0.0376(3)
O8_3 O 0.62285(17) 0.53137(18) 0.2040(3)
N3_3 N 0.5778(2) 0.5117(2) 0.3382(4)
H7_3 H 0.5643 0.5035 0.0118
C19_3 C 0.6116(3) 0.5358(2) 0.2910(6)
H13_3 H 0.6286 0.5585 0.3285
C20_3 C 0.5521(3) 0.4765(3) 0.2874(7)
H14_3 H 0.5681 0.4691 0.2251
H15_3 H 0.5201 0.4881 0.2737
H16_3 H 0.5503 0.4480 0.3282
C21_3 C 0.5676(2) 0.5209(3) 0.4414(4)
H17_3 H 0.5917 0.5422 0.4685
H18_3 H 0.5680 0.4910 0.4781
H19_3 H 0.5364 0.5356 0.4473
O10_3 O 0.24756(13) 0.95341(12) 0.1739(3)
O11_3 O 0.75244(13) 0.54659(12) 0.1739(3)
O12_3 O 0.33411(13) 0.94410(14) 0.0102(3)
O24_3 O 0.37715(17) 0.96863(18) 0.2040(3)
N6_3 N 0.4222(2) 0.9883(2) 0.3382(4)
H26_3 H 0.4357 0.9965 0.0118
C40_3 C 0.3884(3) 0.9642(2) 0.2910(6)
H32_3 H 0.3714 0.9415 0.3285
C42_3 C 0.4324(2) 0.9791(3) 0.4414(4)
H36_3 H 0.4083 0.9578 0.4685
H38_3 H 0.4636 0.9644 0.4473
O4_3 O 0.68158(13) 0.57738(14) 0.4879(3)
O5_3 O 0.64404(17) 0.71669(14) 0.7600(4)
O6_3 O 0.52956(15) 0.60554(17) 0.7595(4)
N1_3 N 0.58709(17) 0.66164(17) 0.7550(4)
N2_3 N 0.5877(3) 0.4670(3) 0.8959(6)
C1_3 C 0.68026(18) 0.54020(19) 0.9305(4)
C2_3 C 0.70148(18) 0.56617(17) 0.5652(4)
C3_3 C 0.66854(17) 0.56609(18) 0.8382(4)
C4_3 C 0.69091(18) 0.55451(17) 0.7482(4)
H1_3 H 0.7148 0.5309 0.7468
C5_3 C 0.67798(18) 0.57755(17) 0.6613(4)
C6_3 C 0.64273(19) 0.61169(19) 0.6648(4)
H2_3 H 0.6323 0.6265 0.6058
C7_3 C 0.62284(19) 0.6241(2) 0.7545(4)
C8_3 C 0.63483(19) 0.60175(18) 0.8402(4)
H3_3 H 0.6202 0.6105 0.9006
C9_3 C 0.6024(2) 0.7078(2) 0.7582(4)
C10_3 C 0.5394(2) 0.6466(2) 0.7586(5)
C11_3 C 0.4561(2) 0.6731(2) 0.7612(5)
H4_3 H 0.4465 0.6410 0.7645
C12_3 C 0.50357(19) 0.68476(19) 0.7587(4)
C13_3 C 0.5777(2) 0.7909(2) 0.7587(5)
H5_3 H 0.6102 0.7992 0.7572
C14_3 C 0.5658(2) 0.7441(2) 0.7584(4)
C15_3 C 0.5181(2) 0.7321(2) 0.7575(4)
C16_3 C 0.6219(3) 0.4431(3) 0.9493(7)
H6_3 H 0.6405 0.4204 0.9150
C17_3 C 0.5576(3) 0.5019(4) 0.9409(8)
H8_3 H 0.5245 0.4931 0.9307
H9_3 H 0.5636 0.5329 0.9109
C18_3 C 0.5812(4) 0.4623(4) 0.7893(6)
H10_3 H 0.5546 0.4821 0.7681
H11_3 H 0.5745 0.4291 0.7732
H12_3 H 0.6100 0.4723 0.7552
O18_3 O 0.31842(13) 0.92262(14) 0.4879(3)
O21_3 O 0.35596(17) 0.78331(14) 0.7600(4)
O22_3 O 0.47044(15) 0.89446(17) 0.7595(4)
N4_3 N 0.41291(17) 0.83836(17) 0.7550(4)
C22_3 C 0.31974(18) 0.95980(19) 0.9305(4)
C23_3 C 0.29852(18) 0.93383(17) 0.5652(4)
C24_3 C 0.33146(17) 0.93391(18) 0.8382(4)
C25_3 C 0.30909(18) 0.94549(17) 0.7482(4)
H20_3 H 0.2852 0.9691 0.7468
C26_3 C 0.32202(18) 0.92245(17) 0.6613(4)
C27_3 C 0.35727(19) 0.88831(19) 0.6648(4)
H21_3 H 0.3677 0.8735 0.6058
C28_3 C 0.37716(19) 0.8759(2) 0.7545(4)
C29_3 C 0.36517(19) 0.89825(18) 0.8402(4)
H22_3 H 0.3798 0.8895 0.9006
C30_3 C 0.3976(2) 0.7922(2) 0.7582(4)
C31_3 C 0.4606(2) 0.8534(2) 0.7586(5)
C32_3 C 0.5439(2) 0.8269(2) 0.7612(5)
H23_3 H 0.5535 0.8590 0.7645
C33_3 C 0.49643(19) 0.81524(19) 0.7587(4)
C34_3 C 0.4223(2) 0.7091(2) 0.7587(5)
H24_3 H 0.3898 0.7008 0.7572
C35_3 C 0.4342(2) 0.7559(2) 0.7584(4)
C36_3 C 0.4819(2) 0.7679(2) 0.7575(4)
C38_3 C 0.4424(3) 0.9981(4) 0.9409(8)
H28_3 H 0.4364 0.9671 0.9109
O2_4 O 0.19410(14) 0.91589(13) 0.2602(3)
O5_4 O 0.03331(14) 0.89404(17) 0.0100(4)
O6_4 O 0.14446(17) 0.77956(15) 0.0095(4)
O7_4 O 0.30118(18) 0.88003(16) 0.2876(3)
O8_4 O 0.21863(18) 0.87285(17) 0.4540(3)
N1_4 N 0.08836(17) 0.83709(17) 0.0050(4)
N2_4 N 0.2830(3) 0.8377(3) 0.1459(6)
N3_4 N 0.2383(2) 0.8278(2) 0.5882(4)
C1_4 C 0.20980(19) 0.93026(18) 0.1805(4)
C3_4 C 0.18391(18) 0.91854(17) 0.0882(4)
C7_4 C 0.1259(2) 0.87284(19) 0.0045(4)
C8_4 C 0.14825(18) 0.88483(19) 0.0902(4)
H3_4 H 0.1395 0.8702 0.1506
C9_4 C 0.0422(2) 0.8524(2) 0.0082(4)
C10_4 C 0.1034(2) 0.7894(2) 0.0086(5)
C11_4 C 0.0769(2) 0.7061(2) 0.0112(5)
H4_4 H 0.1090 0.6965 0.0145
C12_4 C 0.06524(19) 0.75357(19) 0.0087(4)
C14_4 C 0.0059(2) 0.8158(2) 0.0084(4)
C15_4 C 0.0179(2) 0.7681(2) 0.0075(4)
C16_4 C 0.3069(3) 0.8719(3) 0.1993(7)
H6_4 H 0.3296 0.8905 0.1650
C17_4 C 0.2481(4) 0.8076(3) 0.1909(8)
H7_4 H 0.2465 0.8143 0.2618
H8_4 H 0.2569 0.7745 0.1807
H9_4 H 0.2171 0.8136 0.1609
C18_4 C 0.2877(4) 0.8312(4) 0.0393(6)
H10_4 H 0.2679 0.8046 0.0181
H11_4 H 0.3209 0.8245 0.0232
H12_4 H 0.2777 0.8600 0.0052
C19_4 C 0.2142(2) 0.8616(3) 0.5410(6)
H13_4 H 0.1915 0.8786 0.5785
C20_4 C 0.2735(3) 0.8021(3) 0.5374(7)
H14_4 H 0.2809 0.8181 0.4751
H15_4 H 0.2619 0.7701 0.5237
H16_4 H 0.3020 0.8003 0.5782
C21_4 C 0.2291(3) 0.8176(2) 0.6914(4)
H17_4 H 0.2078 0.8417 0.7185
H18_4 H 0.2590 0.8180 0.7281
H19_4 H 0.2144 0.7864 0.6973
C34_4 C 0.0409(2) 0.6723(2) 0.0087(5)
H24_4 H 0.0492 0.6398 0.0072
C2_4 C 0.18383(17) 0.95148(18) 0.8152(4)
C4_4 C 0.19549(17) 0.94091(18) 0.9982(4)
H1_4 H 0.2191 0.9648 0.9968
C5_4 C 0.17245(17) 0.92798(18) 0.9113(4)
C6_4 C 0.13831(19) 0.89273(19) 0.9148(4)
H2_4 H 0.1235 0.8823 0.8558
C13_4 C 0.9591(2) 0.8277(2) 0.0087(5)
H5_4 H 0.9508 0.8602 0.0072
O12_4 O 0.80590(14) 0.58411(13) 0.2602(3)
O21_4 O 0.96669(14) 0.60596(17) 0.0100(4)
O22_4 O 0.85554(17) 0.72044(15) 0.0095(4)
O23_4 O 0.69882(18) 0.61997(16) 0.2876(3)
O24_4 O 0.78137(18) 0.62715(17) 0.4540(3)
N4_4 N 0.91164(17) 0.66291(17) 0.0050(4)
N5_4 N 0.7170(3) 0.6623(3) 0.1459(6)
N6_4 N 0.7617(2) 0.6722(2) 0.5882(4)
C22_4 C 0.79020(19) 0.56974(18) 0.1805(4)
C24_4 C 0.81609(18) 0.58146(17) 0.0882(4)
C28_4 C 0.8741(2) 0.62716(19) 0.0045(4)
C29_4 C 0.85175(18) 0.61517(19) 0.0902(4)
H22_4 H 0.8605 0.6298 0.1506
C30_4 C 0.9578(2) 0.6476(2) 0.0082(4)
C31_4 C 0.8966(2) 0.7106(2) 0.0086(5)
C32_4 C 0.9231(2) 0.7939(2) 0.0112(5)
H23_4 H 0.8910 0.8035 0.0145
C33_4 C 0.93476(19) 0.74643(19) 0.0087(4)
C35_4 C 0.9941(2) 0.6842(2) 0.0084(4)
C36_4 C 0.9821(2) 0.7319(2) 0.0075(4)
C37_4 C 0.6931(3) 0.6281(3) 0.1993(7)
H25_4 H 0.6704 0.6095 0.1650
C38_4 C 0.7519(4) 0.6924(3) 0.1909(8)
H26_4 H 0.7535 0.6857 0.2618
H27_4 H 0.7431 0.7255 0.1807
H28_4 H 0.7829 0.6864 0.1609
C39_4 C 0.7123(4) 0.6688(4) 0.0393(6)
H29_4 H 0.7321 0.6954 0.0181
H30_4 H 0.6791 0.6755 0.0232
H31_4 H 0.7223 0.6400 0.0052
C40_4 C 0.7858(2) 0.6384(3) 0.5410(6)
H32_4 H 0.8085 0.6214 0.5785
C41_4 C 0.7265(3) 0.6979(3) 0.5374(7)
H33_4 H 0.7191 0.6819 0.4751
H34_4 H 0.7381 0.7299 0.5237
H35_4 H 0.6980 0.6997 0.5782
C42_4 C 0.7709(3) 0.6824(2) 0.6914(4)
H36_4 H 0.7922 0.6583 0.7185
H37_4 H 0.7410 0.6820 0.7281
H38_4 H 0.7856 0.7136 0.6973
C23_4 C 0.81617(17) 0.54852(18) 0.8152(4)
C25_4 C 0.80451(17) 0.55909(18) 0.9982(4)
H20_4 H 0.7809 0.5352 0.9968
C26_4 C 0.82755(17) 0.57202(18) 0.9113(4)
C27_4 C 0.86169(19) 0.60727(19) 0.9148(4)
H21_4 H 0.8765 0.6177 0.8558
Ca3_2 Ca 0.24510(4) 0.55977(3) 0.12696(9)
O18_4 O 0.18158(13) 0.57738(14) 0.0121(3)
C11_5 C 0.0439(2) 0.8269(2) 0.7388(5)
H4_5 H 0.0535 0.8590 0.7355
Ca2_2 Ca 0.19023(3) 0.49510(4) 0.37696(9)
Ca5_2 Ca 0.30977(3) 0.50490(4) 0.87696(9)
Ca8_2 Ca 0.25490(4) 0.44023(3) 0.62696(9)
O9_2 O 0.20341(12) 0.50244(13) 0.5761(3)
O10_4 O 0.25244(13) 0.54659(12) 0.3261(3)
O12_5 O 0.16589(13) 0.55590(14) 0.4898(3)
O13_3 O 0.24182(13) 0.54691(12) 0.9315(2)
O14_2 O 0.25818(13) 0.45309(12) 0.4315(2)
O17_2 O 0.20309(12) 0.49182(13) 0.1815(2)
O20_2 O 0.17262(14) 0.43158(13) 0.2621(3)
O21_5 O 0.14404(17) 0.71669(14) 0.7400(4)
O22_5 O 0.02956(15) 0.60554(17) 0.7405(4)
O23_5 O 0.13003(16) 0.44882(18) 0.4624(3)
O24_5 O 0.12285(17) 0.53137(18) 0.2960(3)
N4_5 N 0.08709(17) 0.66164(17) 0.7450(4)
N5_5 N 0.0877(3) 0.4670(3) 0.6041(6)
N6_5 N 0.0778(2) 0.5117(2) 0.1618(4)
C22_5 C 0.18026(18) 0.54020(19) 0.5695(4)
C23_5 C 0.20148(18) 0.56617(17) 0.9348(4)
C24_5 C 0.16854(17) 0.56609(18) 0.6618(4)
C25_5 C 0.19091(18) 0.55451(17) 0.7518(4)
H20_5 H 0.2148 0.5309 0.7532
C26_5 C 0.17798(18) 0.57755(17) 0.8387(4)
C27_5 C 0.14273(19) 0.61169(19) 0.8352(4)
H21_5 H 0.1323 0.6265 0.8942
C28_5 C 0.12284(19) 0.6241(2) 0.7455(4)
C29_5 C 0.13483(19) 0.60175(18) 0.6598(4)
H22_5 H 0.1202 0.6105 0.5994
C30_5 C 0.1024(2) 0.7078(2) 0.7418(4)
C31_5 C 0.0394(2) 0.6466(2) 0.7414(5)
C33_5 C 0.00357(19) 0.68476(19) 0.7413(4)
C34_5 C 0.0777(2) 0.7909(2) 0.7413(5)
H24_5 H 0.1102 0.7992 0.7428
C35_5 C 0.0658(2) 0.7441(2) 0.7416(4)
C36_5 C 0.0181(2) 0.7321(2) 0.7425(4)
C37_5 C 0.1219(3) 0.4431(3) 0.5507(7)
H25_5 H 0.1405 0.4204 0.5850
C38_5 C 0.0576(3) 0.5019(4) 0.5591(8)
H26_5 H 0.0643 0.5035 0.4882
H27_5 H 0.0245 0.4931 0.5693
H28_5 H 0.0636 0.5329 0.5891
C39_5 C 0.0812(4) 0.4623(4) 0.7107(6)
H29_5 H 0.0546 0.4821 0.7319
H30_5 H 0.0745 0.4291 0.7268
H31_5 H 0.1100 0.4723 0.7448
C40_5 C 0.1116(3) 0.5358(2) 0.2090(6)
H32_5 H 0.1286 0.5585 0.1715
C41_5 C 0.0521(3) 0.4765(3) 0.2126(7)
H33_5 H 0.0681 0.4691 0.2749
H34_5 H 0.0201 0.4881 0.2263
H35_5 H 0.0503 0.4480 0.1718
C42_5 C 0.0676(2) 0.5209(3) 0.0586(4)
H36_5 H 0.0917 0.5422 0.0315
H37_5 H 0.0680 0.4910 0.0219
H38_5 H 0.0364 0.5356 0.0527
Ca1_2 Ca 0.80977(3) 0.00490(4) 0.37696(9)
O7_5 O 0.86997(16) 0.05118(18) 0.4624(3)
N2_5 N 0.9123(3) 0.0330(3) 0.6041(6)
C16_5 C 0.8781(3) 0.0569(3) 0.5507(7)
H6_5 H 0.8595 0.0796 0.5850
H8_5 H 0.9755 0.0069 0.5693
C18_5 C 0.9188(4) 0.0377(4) 0.7107(6)
H10_5 H 0.9454 0.0179 0.7319
H11_5 H 0.9255 0.0709 0.7268
H12_5 H 0.8900 0.0277 0.7448
C20_5 C 0.9479(3) 0.0235(3) 0.2126(7)
H14_5 H 0.9319 0.0309 0.2749
H15_5 H 0.9799 0.0119 0.2263
H16_5 H 0.9497 0.0520 0.1718
H18_5 H 0.9320 0.0090 0.0219
Ca6_2 Ca 0.74510(4) 0.05977(3) 0.62696(9)
O15_2 O 0.79691(12) 0.00818(13) 0.1815(2)
O16_2 O 0.74182(13) 0.04691(12) 0.4315(2)
O19_2 O 0.82738(14) 0.06842(13) 0.2621(3)
O4_4 O 0.81842(13) 0.92262(14) 0.0121(3)
Ca4_2 Ca 0.75490(4) 0.94023(3) 0.12696(9)
O1_2 O 0.79659(12) 0.99756(13) 0.5761(3)
O2_5 O 0.83411(13) 0.94410(14) 0.4898(3)
O3_3 O 0.75818(13) 0.95309(12) 0.9315(2)
O5_5 O 0.85596(17) 0.78331(14) 0.7400(4)
O6_5 O 0.97044(15) 0.89446(17) 0.7405(4)
O8_5 O 0.87715(17) 0.96863(18) 0.2960(3)
N1_5 N 0.91291(17) 0.83836(17) 0.7450(4)
N3_5 N 0.9222(2) 0.9883(2) 0.1618(4)
C1_5 C 0.81974(18) 0.95980(19) 0.5695(4)
C2_5 C 0.79852(18) 0.93383(17) 0.9348(4)
C3_5 C 0.83146(17) 0.93391(18) 0.6618(4)
C4_5 C 0.80909(18) 0.94549(17) 0.7518(4)
H1_5 H 0.7852 0.9691 0.7532
C5_5 C 0.82202(18) 0.92245(17) 0.8387(4)
C6_5 C 0.85727(19) 0.88831(19) 0.8352(4)
H2_5 H 0.8677 0.8735 0.8942
C7_5 C 0.87716(19) 0.8759(2) 0.7455(4)
C8_5 C 0.86517(19) 0.89825(18) 0.6598(4)
H3_5 H 0.8798 0.8895 0.5994
C9_5 C 0.8976(2) 0.7922(2) 0.7418(4)
C10_5 C 0.9606(2) 0.8534(2) 0.7414(5)
C12_5 C 0.99643(19) 0.81524(19) 0.7413(4)
C13_5 C 0.9223(2) 0.7091(2) 0.7413(5)
H5_5 H 0.8898 0.7008 0.7428
C14_5 C 0.9342(2) 0.7559(2) 0.7416(4)
C15_5 C 0.9819(2) 0.7679(2) 0.7425(4)
C17_5 C 0.9424(3) 0.9981(4) 0.5591(8)
H7_5 H 0.9357 0.9965 0.4882
H9_5 H 0.9364 0.9671 0.5891
C19_5 C 0.8884(3) 0.9642(2) 0.2090(6)
H13_5 H 0.8714 0.9415 0.1715
C21_5 C 0.9324(2) 0.9791(3) 0.0586(4)
H17_5 H 0.9083 0.9578 0.0315
H19_5 H 0.9636 0.9644 0.0527
Ca7_2 Ca 0.69023(3) 0.99510(4) 0.87696(9)
O11_4 O 0.74756(13) 0.95341(12) 0.3261(3)
C32_5 C 0.9561(2) 0.6731(2) 0.7388(5)
H23_5 H 0.9465 0.6410 0.7355
O10_5 O 0.70341(12) 0.00244(13) 0.0761(3)
O2_6 O 0.30590(14) 0.58411(13) 0.2398(3)
O3_4 O 0.29691(12) 0.50818(13) 0.6815(2)
O4_5 O 0.32738(14) 0.56842(13) 0.7621(3)
O5_6 O 0.46669(14) 0.60596(17) 0.4900(4)
O6_6 O 0.35554(17) 0.72044(15) 0.4905(4)
O7_6 O 0.19882(18) 0.61997(16) 0.2124(3)
O8_6 O 0.28137(18) 0.62715(17) 0.0460(3)
N1_6 N 0.41164(17) 0.66291(17) 0.4950(4)
N2_6 N 0.2170(3) 0.6623(3) 0.3541(6)
C1_6 C 0.29020(19) 0.56974(18) 0.3195(4)
C2_6 C 0.31617(17) 0.54852(18) 0.6848(4)
C3_6 C 0.31609(18) 0.58146(17) 0.4118(4)
C4_6 C 0.30451(17) 0.55909(18) 0.5018(4)
H1_6 H 0.2809 0.5352 0.5032
C5_6 C 0.32755(17) 0.57202(18) 0.5887(4)
C6_6 C 0.36169(19) 0.60727(19) 0.5852(4)
H2_6 H 0.3765 0.6177 0.6442
C7_6 C 0.3741(2) 0.62716(19) 0.4955(4)
C8_6 C 0.35175(18) 0.61517(19) 0.4098(4)
H3_6 H 0.3605 0.6298 0.3494
C9_6 C 0.4578(2) 0.6476(2) 0.4918(4)
C10_6 C 0.3966(2) 0.7106(2) 0.4914(5)
C11_6 C 0.4231(2) 0.7939(2) 0.4888(5)
H4_6 H 0.3910 0.8035 0.4855
C12_6 C 0.43476(19) 0.74643(19) 0.4913(4)
C13_6 C 0.5409(2) 0.6723(2) 0.4913(5)
H5_6 H 0.5492 0.6398 0.4928
C14_6 C 0.4941(2) 0.6842(2) 0.4916(4)
C15_6 C 0.4821(2) 0.7319(2) 0.4925(4)
C16_6 C 0.1931(3) 0.6281(3) 0.3007(7)
H6_6 H 0.1704 0.6095 0.3350
C17_6 C 0.2519(4) 0.6924(3) 0.3091(8)
H7_6 H 0.2535 0.6857 0.2382
H8_6 H 0.2431 0.7255 0.3193
H9_6 H 0.2829 0.6864 0.3391
C18_6 C 0.2123(4) 0.6688(4) 0.4607(6)
H10_6 H 0.2321 0.6954 0.4819
H11_6 H 0.1791 0.6755 0.4768
H12_6 H 0.2223 0.6400 0.4948
H14_6 H 0.2191 0.6819 0.0249
O11_5 O 0.29659(12) 0.49756(13) 0.0761(3)
O12_6 O 0.69410(14) 0.91589(13) 0.2398(3)
O13_4 O 0.70309(12) 0.99182(13) 0.6815(2)
O18_5 O 0.67262(14) 0.93158(13) 0.7621(3)
O21_6 O 0.53331(14) 0.89404(17) 0.4900(4)
O22_6 O 0.64446(17) 0.77956(15) 0.4905(4)
O23_6 O 0.80118(18) 0.88003(16) 0.2124(3)
O24_6 O 0.71863(18) 0.87285(17) 0.0460(3)
N4_6 N 0.58836(17) 0.83709(17) 0.4950(4)
N5_6 N 0.7830(3) 0.8377(3) 0.3541(6)
C22_6 C 0.70980(19) 0.93026(18) 0.3195(4)
C23_6 C 0.68383(17) 0.95148(18) 0.6848(4)
C24_6 C 0.68391(18) 0.91854(17) 0.4118(4)
C25_6 C 0.69549(17) 0.94091(18) 0.5018(4)
H20_6 H 0.7191 0.9648 0.5032
C26_6 C 0.67245(17) 0.92798(18) 0.5887(4)
C27_6 C 0.63831(19) 0.89273(19) 0.5852(4)
H21_6 H 0.6235 0.8823 0.6442
C28_6 C 0.6259(2) 0.87284(19) 0.4955(4)
C29_6 C 0.64825(18) 0.88483(19) 0.4098(4)
H22_6 H 0.6395 0.8702 0.3494
C30_6 C 0.5422(2) 0.8524(2) 0.4918(4)
C31_6 C 0.6034(2) 0.7894(2) 0.4914(5)
C32_6 C 0.5769(2) 0.7061(2) 0.4888(5)
H23_6 H 0.6090 0.6965 0.4855
C33_6 C 0.56524(19) 0.75357(19) 0.4913(4)
C34_6 C 0.4591(2) 0.8277(2) 0.4913(5)
H24_6 H 0.4508 0.8602 0.4928
C35_6 C 0.5059(2) 0.8158(2) 0.4916(4)
C36_6 C 0.5179(2) 0.7681(2) 0.4925(4)
C37_6 C 0.8069(3) 0.8719(3) 0.3007(7)
H25_6 H 0.8296 0.8905 0.3350
C38_6 C 0.7481(4) 0.8076(3) 0.3091(8)
H26_6 H 0.7465 0.8143 0.2382
H27_6 H 0.7569 0.7745 0.3193
H28_6 H 0.7171 0.8136 0.3391
C39_6 C 0.7877(4) 0.8312(4) 0.4607(6)
H29_6 H 0.7679 0.8046 0.4819
H30_6 H 0.8209 0.8245 0.4768
H31_6 H 0.7777 0.8600 0.4948
H33_6 H 0.7809 0.8181 0.0249
N3_6 N 0.2617(2) 0.6722(2) 0.9118(4)
C19_6 C 0.2858(2) 0.6384(3) 0.9590(6)
H13_6 H 0.3085 0.6214 0.9215
C20_6 C 0.2265(3) 0.6979(3) 0.9626(7)
H15_6 H 0.2381 0.7299 0.9763
H16_6 H 0.1980 0.6997 0.9218
C21_6 C 0.2709(3) 0.6824(2) 0.8086(4)
H17_6 H 0.2922 0.6583 0.7815
H18_6 H 0.2410 0.6820 0.7719
H19_6 H 0.2856 0.7136 0.8027
N6_6 N 0.7383(2) 0.8278(2) 0.9118(4)
C40_6 C 0.7142(2) 0.8616(3) 0.9590(6)
H32_6 H 0.6915 0.8786 0.9215
C41_6 C 0.7735(3) 0.8021(3) 0.9626(7)
H34_6 H 0.7619 0.7701 0.9763
H35_6 H 0.8020 0.8003 0.9218
C42_6 C 0.7291(3) 0.8176(2) 0.8086(4)
H36_6 H 0.7078 0.8417 0.7815
H37_6 H 0.7590 0.8180 0.7719
H38_6 H 0.7144 0.7864 0.8027
O4_6 O 0.31842(13) 0.42262(14) 0.5121(3)
O5_7 O 0.35596(17) 0.28331(14) 0.2400(4)
O6_7 O 0.47044(15) 0.39446(17) 0.2405(4)
N1_7 N 0.41291(17) 0.33836(17) 0.2450(4)
N2_7 N 0.4123(3) 0.5330(3) 0.1041(6)
C1_7 C 0.31974(18) 0.45980(19) 0.0695(4)
C2_7 C 0.29852(18) 0.43383(17) 0.4348(4)
C3_7 C 0.33146(17) 0.43391(18) 0.1618(4)
C4_7 C 0.30909(18) 0.44549(17) 0.2518(4)
H1_7 H 0.2852 0.4691 0.2532
C5_7 C 0.32202(18) 0.42245(17) 0.3387(4)
C6_7 C 0.35727(19) 0.38831(19) 0.3352(4)
H2_7 H 0.3677 0.3735 0.3942
C7_7 C 0.37716(19) 0.3759(2) 0.2455(4)
C8_7 C 0.36517(19) 0.39825(18) 0.1598(4)
H3_7 H 0.3798 0.3895 0.0994
C9_7 C 0.3976(2) 0.2922(2) 0.2418(4)
C10_7 C 0.4606(2) 0.3534(2) 0.2414(5)
C11_7 C 0.5439(2) 0.3269(2) 0.2388(5)
H4_7 H 0.5535 0.3590 0.2355
C12_7 C 0.49643(19) 0.31524(19) 0.2413(4)
C13_7 C 0.4223(2) 0.2091(2) 0.2413(5)
H5_7 H 0.3898 0.2008 0.2428
C14_7 C 0.4342(2) 0.2559(2) 0.2416(4)
C15_7 C 0.4819(2) 0.2679(2) 0.2425(4)
C16_7 C 0.3781(3) 0.5569(3) 0.0507(7)
H6_7 H 0.3595 0.5796 0.0850
C17_7 C 0.4424(3) 0.4981(4) 0.0591(8)
H8_7 H 0.4755 0.5069 0.0693
H9_7 H 0.4364 0.4671 0.0891
C18_7 C 0.4188(4) 0.5377(4) 0.2107(6)
H10_7 H 0.4454 0.5179 0.2319
H11_7 H 0.4255 0.5709 0.2268
H12_7 H 0.3900 0.5277 0.2448
O18_6 O 0.68158(13) 0.07738(14) 0.5121(3)
O21_7 O 0.64404(17) 0.21669(14) 0.2400(4)
O22_7 O 0.52956(15) 0.10554(17) 0.2405(4)
N4_7 N 0.58709(17) 0.16164(17) 0.2450(4)
C22_7 C 0.68026(18) 0.04020(19) 0.0695(4)
C23_7 C 0.70148(18) 0.06617(17) 0.4348(4)
C24_7 C 0.66854(17) 0.06609(18) 0.1618(4)
C25_7 C 0.69091(18) 0.05451(17) 0.2518(4)
H20_7 H 0.7148 0.0309 0.2532
C26_7 C 0.67798(18) 0.07755(17) 0.3387(4)
C27_7 C 0.64273(19) 0.11169(19) 0.3352(4)
H21_7 H 0.6323 0.1265 0.3942
C28_7 C 0.62284(19) 0.1241(2) 0.2455(4)
C29_7 C 0.63483(19) 0.10175(18) 0.1598(4)
H22_7 H 0.6202 0.1105 0.0994
C30_7 C 0.6024(2) 0.2078(2) 0.2418(4)
C31_7 C 0.5394(2) 0.1466(2) 0.2414(5)
C32_7 C 0.4561(2) 0.1731(2) 0.2388(5)
H23_7 H 0.4465 0.1410 0.2355
C33_7 C 0.50357(19) 0.18476(19) 0.2413(4)
C34_7 C 0.5777(2) 0.2909(2) 0.2413(5)
H24_7 H 0.6102 0.2992 0.2428
C35_7 C 0.5658(2) 0.2441(2) 0.2416(4)
C36_7 C 0.5181(2) 0.2321(2) 0.2425(4)
C38_7 C 0.5576(3) 0.0019(4) 0.0591(8)
H28_7 H 0.5636 0.0329 0.0891
O2_7 O 0.33411(13) 0.44410(14) 0.9898(3)
O7_7 O 0.36997(16) 0.55118(18) 0.9624(3)
O8_7 O 0.37715(17) 0.46863(18) 0.7960(3)
N3_7 N 0.4222(2) 0.4883(2) 0.6618(4)
H7_7 H 0.4357 0.4965 0.9882
C19_7 C 0.3884(3) 0.4642(2) 0.7090(6)
H13_7 H 0.3714 0.4415 0.6715
C20_7 C 0.4479(3) 0.5235(3) 0.7126(7)
H14_7 H 0.4319 0.5309 0.7749
H15_7 H 0.4799 0.5119 0.7263
H16_7 H 0.4497 0.5520 0.6718
C21_7 C 0.4324(2) 0.4791(3) 0.5586(4)
H17_7 H 0.4083 0.4578 0.5315
H18_7 H 0.4320 0.5090 0.5219
H19_7 H 0.4636 0.4644 0.5527
O10_6 O 0.75244(13) 0.04659(12) 0.8261(3)
O11_6 O 0.24756(13) 0.45341(12) 0.8261(3)
O12_7 O 0.66589(13) 0.05590(14) 0.9898(3)
O24_7 O 0.62285(17) 0.03137(18) 0.7960(3)
N6_7 N 0.5778(2) 0.0117(2) 0.6618(4)
H26_7 H 0.5643 0.0035 0.9882
C40_7 C 0.6116(3) 0.0358(2) 0.7090(6)
H32_7 H 0.6286 0.0585 0.6715
C42_7 C 0.5676(2) 0.0209(3) 0.5586(4)
H36_7 H 0.5917 0.0422 0.5315
H38_7 H 0.5364 0.0356 0.5527
N5_7 N 0.5877(3) 0.9670(3) 0.1041(6)
C37_7 C 0.6219(3) 0.9431(3) 0.0507(7)
H25_7 H 0.6405 0.9204 0.0850
H27_7 H 0.5245 0.9931 0.0693
C39_7 C 0.5812(4) 0.9623(4) 0.2107(6)
H29_7 H 0.5546 0.9821 0.2319
H30_7 H 0.5745 0.9291 0.2268
H31_7 H 0.6100 0.9723 0.2448
O23_7 O 0.63003(16) 0.94882(18) 0.9624(3)
C41_7 C 0.5521(3) 0.9765(3) 0.7126(7)
H33_7 H 0.5681 0.9691 0.7749
H34_7 H 0.5201 0.9881 0.7263
H35_7 H 0.5503 0.9480 0.6718
H37_7 H 0.5680 0.9910 0.5219
C23_8 C 0.18383(17) 0.45148(18) 0.1848(4)
C25_8 C 0.19549(17) 0.44091(18) 0.0018(4)
H20_8 H 0.2191 0.4648 0.0032
C26_8 C 0.17245(17) 0.42798(18) 0.0887(4)
C27_8 C 0.13831(19) 0.39273(19) 0.0852(4)
H21_8 H 0.1235 0.3823 0.1442
C13_8 C 0.0409(2) 0.1723(2) 0.9913(5)
H5_8 H 0.0492 0.1398 0.9928
O12_8 O 0.19410(14) 0.41589(13) 0.7398(3)
O21_8 O 0.03331(14) 0.39404(17) 0.9900(4)
O22_8 O 0.14446(17) 0.27956(15) 0.9905(4)
O23_8 O 0.30118(18) 0.38003(16) 0.7124(3)
O24_8 O 0.21863(18) 0.37285(17) 0.5460(3)
N4_8 N 0.08836(17) 0.33709(17) 0.9950(4)
N5_8 N 0.2830(3) 0.3377(3) 0.8541(6)
N6_8 N 0.2383(2) 0.3278(2) 0.4118(4)
C22_8 C 0.20980(19) 0.43026(18) 0.8195(4)
C24_8 C 0.18391(18) 0.41854(17) 0.9118(4)
C28_8 C 0.1259(2) 0.37284(19) 0.9955(4)
C29_8 C 0.14825(18) 0.38483(19) 0.9098(4)
H22_8 H 0.1395 0.3702 0.8494
C30_8 C 0.0422(2) 0.3524(2) 0.9918(4)
C31_8 C 0.1034(2) 0.2894(2) 0.9914(5)
C32_8 C 0.0769(2) 0.2061(2) 0.9888(5)
H23_8 H 0.1090 0.1965 0.9855
C33_8 C 0.06524(19) 0.25357(19) 0.9913(4)
C35_8 C 0.0059(2) 0.3158(2) 0.9916(4)
C36_8 C 0.0179(2) 0.2681(2) 0.9925(4)
C37_8 C 0.3069(3) 0.3719(3) 0.8007(7)
H25_8 H 0.3296 0.3905 0.8350
C38_8 C 0.2481(4) 0.3076(3) 0.8091(8)
H26_8 H 0.2465 0.3143 0.7382
H27_8 H 0.2569 0.2745 0.8193
H28_8 H 0.2171 0.3136 0.8391
C39_8 C 0.2877(4) 0.3312(4) 0.9607(6)
H29_8 H 0.2679 0.3046 0.9819
H30_8 H 0.3209 0.3245 0.9768
H31_8 H 0.2777 0.3600 0.9948
C40_8 C 0.2142(2) 0.3616(3) 0.4590(6)
H32_8 H 0.1915 0.3786 0.4215
C41_8 C 0.2735(3) 0.3021(3) 0.4626(7)
H33_8 H 0.2809 0.3181 0.5249
H34_8 H 0.2619 0.2701 0.4763
H35_8 H 0.3020 0.3003 0.4218
C42_8 C 0.2291(3) 0.3176(2) 0.3086(4)
H36_8 H 0.2078 0.3417 0.2815
H37_8 H 0.2590 0.3180 0.2719
H38_8 H 0.2144 0.2864 0.3027
C2_8 C 0.81617(17) 0.04852(18) 0.1848(4)
C4_8 C 0.80451(17) 0.05909(18) 0.0018(4)
H1_8 H 0.7809 0.0352 0.0032
C5_8 C 0.82755(17) 0.07202(18) 0.0887(4)
C6_8 C 0.86169(19) 0.10727(19) 0.0852(4)
H2_8 H 0.8765 0.1177 0.1442
O2_8 O 0.80590(14) 0.08411(13) 0.7398(3)
O5_8 O 0.96669(14) 0.10596(17) 0.9900(4)
O6_8 O 0.85554(17) 0.22044(15) 0.9905(4)
O7_8 O 0.69882(18) 0.11997(16) 0.7124(3)
O8_8 O 0.78137(18) 0.12715(17) 0.5460(3)
N1_8 N 0.91164(17) 0.16291(17) 0.9950(4)
N2_8 N 0.7170(3) 0.1623(3) 0.8541(6)
N3_8 N 0.7617(2) 0.1722(2) 0.4118(4)
C1_8 C 0.79020(19) 0.06974(18) 0.8195(4)
C3_8 C 0.81609(18) 0.08146(17) 0.9118(4)
C7_8 C 0.8741(2) 0.12716(19) 0.9955(4)
C8_8 C 0.85175(18) 0.11517(19) 0.9098(4)
H3_8 H 0.8605 0.1298 0.8494
C9_8 C 0.9578(2) 0.1476(2) 0.9918(4)
C10_8 C 0.8966(2) 0.2106(2) 0.9914(5)
C11_8 C 0.9231(2) 0.2939(2) 0.9888(5)
H4_8 H 0.8910 0.3035 0.9855
C12_8 C 0.93476(19) 0.24643(19) 0.9913(4)
C14_8 C 0.9941(2) 0.1842(2) 0.9916(4)
C15_8 C 0.9821(2) 0.2319(2) 0.9925(4)
C16_8 C 0.6931(3) 0.1281(3) 0.8007(7)
H6_8 H 0.6704 0.1095 0.8350
C17_8 C 0.7519(4) 0.1924(3) 0.8091(8)
H7_8 H 0.7535 0.1857 0.7382
H8_8 H 0.7431 0.2255 0.8193
H9_8 H 0.7829 0.1864 0.8391
C18_8 C 0.7123(4) 0.1688(4) 0.9607(6)
H10_8 H 0.7321 0.1954 0.9819
H11_8 H 0.6791 0.1755 0.9768
H12_8 H 0.7223 0.1400 0.9948
C19_8 C 0.7858(2) 0.1384(3) 0.4590(6)
H13_8 H 0.8085 0.1214 0.4215
C20_8 C 0.7265(3) 0.1979(3) 0.4626(7)
H14_8 H 0.7191 0.1819 0.5249
H15_8 H 0.7381 0.2299 0.4763
H16_8 H 0.6980 0.1997 0.4218
C21_8 C 0.7709(3) 0.1824(2) 0.3086(4)
H17_8 H 0.7922 0.1583 0.2815
H18_8 H 0.7410 0.1820 0.2719
H19_8 H 0.7856 0.2136 0.3027
C34_8 C 0.9591(2) 0.3277(2) 0.9913(5)
H24_8 H 0.9508 0.3602 0.9928
loop_
_geom_bond_atom_site_label_1
_geom_bond_atom_site_label_2
_geom_bond_site_symmetry_1
_geom_bond_site_symmetry_2
O1 C1 1_555 1_555
O3 C2 1_555 1_555
O5 C9 1_555 1_555
O6 C10 1_555 1_555
N1 C7 1_555 1_555
N3 C19 1_555 1_555
C1 O2 1_555 1_555
C2 C5 1_555 1_555
C3 C1 1_555 1_555
C4 C3 1_555 1_555
H1 C4 1_555 1_555
C5 C4 1_555 1_555
C6 C5 1_555 1_555
H2 C6 1_555 1_555
C7 C6 1_555 1_555
C8 C3 1_555 1_555
H3 C8 1_555 1_555
C9 N1 1_555 1_555
C10 N1 1_555 1_555
C12 C10 1_555 1_555
C13 H5 1_555 1_555
C14 C9 1_555 1_555
C15 C12 1_555 1_555
H7 C17 1_555 1_555
H9 C17 1_555 1_555
C19 O8 1_555 1_555
H13 C19 1_555 1_555
C21 N3 1_555 1_555
H17 C21 1_555 1_555
H19 C21 1_555 1_555
Ca7 O3 1_555 1_555
C32 C13 1_555 1_555
H23 C32 1_555 1_555
C7 C8 1_555 1_555
C13 C14 1_555 1_555
C14 C15 1_555 1_555
O4 Ca4 1_555 1_555
O7 Ca1 1_555 1_555
N2 C16 1_555 1_555
C16 O7 1_555 1_555
H6 C16 1_555 1_555
C18 N2 1_555 1_555
H10 C18 1_555 1_555
H11 C18 1_555 1_555
H12 C18 1_555 1_555
H14 C20 1_555 1_555
H15 C20 1_555 1_555
H16 C20 1_555 1_555
O15 Ca1 1_555 1_555
O16 Ca1 1_555 1_555
O19 Ca1 1_555 1_555
Ca6 O16 1_555 1_555
C11 H4 1_555 1_555
Ca2 O9 1_555 1_555
Ca5 O13 1_555 1_555
Ca8 O9 1_555 1_555
O9 C22 1_555 1_555
O10 Ca2 1_555 1_555
O12 Ca2 1_555 1_555
O13 C23 1_555 1_555
O14 Ca2 1_555 1_555
O17 Ca2 1_555 1_555
O20 Ca2 1_555 1_555
O21 C30 1_555 1_555
O22 C31 1_555 1_555
O23 Ca2 1_555 1_555
O24 Ca2 1_555 1_555
N4 C28 1_555 1_555
N5 C37 1_555 1_555
N6 C40 1_555 1_555
C22 O12 1_555 1_555
C24 C22 1_555 1_555
C25 C24 1_555 1_555
H20 C25 1_555 1_555
C26 C23 1_555 1_555
C27 C26 1_555 1_555
H21 C27 1_555 1_555
C28 C27 1_555 1_555
C29 C24 1_555 1_555
H22 C29 1_555 1_555
C30 N4 1_555 1_555
C31 N4 1_555 1_555
C33 C31 1_555 1_555
C34 C11 1_555 1_555
H24 C34 1_555 1_555
C35 C30 1_555 1_555
C37 O23 1_555 1_555
H25 C37 1_555 1_555
C38 N5 1_555 1_555
H26 C38 1_555 1_555
H27 C38 1_555 1_555
H28 C38 1_555 1_555
C39 N5 1_555 1_555
H29 C39 1_555 1_555
H30 C39 1_555 1_555
H31 C39 1_555 1_555
C40 O24 1_555 1_555
H32 C40 1_555 1_555
C41 N6 1_555 1_555
H33 C41 1_555 1_555
H34 C41 1_555 1_555
H35 C41 1_555 1_555
C42 N6 1_555 1_555
H36 C42 1_555 1_555
H37 C42 1_555 1_555
H38 C42 1_555 1_555
Ca8 O14 1_555 1_555
C25 C26 1_555 1_555
C28 C29 1_555 1_555
C33 C36 1_555 1_555
C34 C35 1_555 1_555
C35 C36 1_555 1_555
O18 Ca3 1_555 1_555
N3_2 C19_2 1_555 1_555
H13_2 C19_2 1_555 1_555
C20_2 N3_2 1_555 1_555
H15_2 C20_2 1_555 1_555
H16_2 C20_2 1_555 1_555
C21_2 N3_2 1_555 1_555
H17_2 C21_2 1_555 1_555
H18_2 C21_2 1_555 1_555
H19_2 C21_2 1_555 1_555
N6_2 C40_2 1_555 1_555
H32_2 C40_2 1_555 1_555
C41_2 N6_2 1_555 1_555
H34_2 C41_2 1_555 1_555
H35_2 C41_2 1_555 1_555
C42_2 N6_2 1_555 1_555
H36_2 C42_2 1_555 1_555
H37_2 C42_2 1_555 1_555
H38_2 C42_2 1_555 1_555
Ca3 O10 1_555 1_555
O10 C1_2 1_555 1_555
O2_2 Ca3 1_555 1_555
O3_2 C2_2 1_555 1_555
O4_2 C2_2 1_555 1_555
O5_2 C9_2 1_555 1_555
O6_2 C10_2 1_555 1_555
O7_2 Ca3 1_555 1_555
O8_2 Ca3 1_555 1_555
N1_2 C7_2 1_555 1_555
N2_2 C16_2 1_555 1_555
C1_2 O2_2 1_555 1_555
C2_2 C5_2 1_555 1_555
C3_2 C1_2 1_555 1_555
C4_2 C3_2 1_555 1_555
H1_2 C4_2 1_555 1_555
C5_2 C4_2 1_555 1_555
C6_2 C5_2 1_555 1_555
H2_2 C6_2 1_555 1_555
C7_2 C6_2 1_555 1_555
C8_2 C3_2 1_555 1_555
H3_2 C8_2 1_555 1_555
C9_2 N1_2 1_555 1_555
C10_2 N1_2 1_555 1_555
C11_2 H4_2 1_555 1_555
C12_2 C10_2 1_555 1_555
C13_2 H5_2 1_555 1_555
C14_2 C9_2 1_555 1_555
C15_2 C12_2 1_555 1_555
C16_2 O7_2 1_555 1_555
H6_2 C16_2 1_555 1_555
C17_2 N2_2 1_555 1_555
H7_2 C17_2 1_555 1_555
H8_2 C17_2 1_555 1_555
H9_2 C17_2 1_555 1_555
C18_2 N2_2 1_555 1_555
H10_2 C18_2 1_555 1_555
H11_2 C18_2 1_555 1_555
H12_2 C18_2 1_555 1_555
Ca4 O11 1_555 1_555
Ca7 O13_2 1_555 1_555
Ca5 O3_2 1_555 1_555
Ca8 O3_2 1_555 1_555
O11 C22_2 1_555 1_555
O11_2 Ca3 1_555 1_555
O12_2 Ca4 1_555 1_555
O13_2 C23_2 1_555 1_555
O17 Ca3 1_555 1_555
O18_2 Ca7 1_555 1_555
O21_2 C30_2 1_555 1_555
O22_2 C31_2 1_555 1_555
O23_2 Ca4 1_555 1_555
O24_2 Ca4 1_555 1_555
N4_2 C28_2 1_555 1_555
N5_2 C37_2 1_555 1_555
C22_2 O12_2 1_555 1_555
C23_2 O18_2 1_555 1_555
C24_2 C22_2 1_555 1_555
C25_2 C24_2 1_555 1_555
H20_2 C25_2 1_555 1_555
C26_2 C23_2 1_555 1_555
C27_2 C26_2 1_555 1_555
H21_2 C27_2 1_555 1_555
C28_2 C27_2 1_555 1_555
C29_2 C24_2 1_555 1_555
H22_2 C29_2 1_555 1_555
C30_2 N4_2 1_555 1_555
C31_2 N4_2 1_555 1_555
C32_2 C13_2 1_555 1_555
H23_2 C32_2 1_555 1_555
C33_2 C31_2 1_555 1_555
C34_2 C11_2 1_555 1_555
H24_2 C34_2 1_555 1_555
C35_2 C30_2 1_555 1_555
C36_2 C15_2 1_555 1_555
C37_2 O23_2 1_555 1_555
H25_2 C37_2 1_555 1_555
C38_2 N5_2 1_555 1_555
H26_2 C38_2 1_555 1_555
H27_2 C38_2 1_555 1_555
H28_2 C38_2 1_555 1_555
C39_2 N5_2 1_555 1_555
H29_2 C39_2 1_555 1_555
H30_2 C39_2 1_555 1_555
H31_2 C39_2 1_555 1_555
O4_2 Ca5 1_555 1_555
C7_2 C8_2 1_555 1_555
C11_2 C12_2 1_555 1_555
C13_2 C14_2 1_555 1_555
C14_2 C15_2 1_555 1_555
C25_2 C26_2 1_555 1_555
C28_2 C29_2 1_555 1_555
C32_2 C33_2 1_555 1_555
C33_2 C36_2 1_555 1_555
C34_2 C35_2 1_555 1_555
C35_2 C36_2 1_555 1_555
O23_3 Ca7 1_555 1_555
H33_3 C41_3 1_555 1_555
H34_3 C41_3 1_555 1_555
H35_3 C41_3 1_555 1_555
N5_3 C37_3 1_555 1_555
H25_3 C37_3 1_555 1_555
C39_3 N5_3 1_555 1_555
H29_3 C39_3 1_555 1_555
H30_3 C39_3 1_555 1_555
H31_3 C39_3 1_555 1_555
O2_3 Ca5 1_555 1_555
O7_3 Ca5 1_555 1_555
O8_3 Ca5 1_555 1_555
N3_3 C19_3 1_555 1_555
C19_3 O8_3 1_555 1_555
H13_3 C19_3 1_555 1_555
C20_3 N3_3 1_555 1_555
H14_3 C20_3 1_555 1_555
H15_3 C20_3 1_555 1_555
H16_3 C20_3 1_555 1_555
C21_3 N3_3 1_555 1_555
H17_3 C21_3 1_555 1_555
H18_3 C21_3 1_555 1_555
H19_3 C21_3 1_555 1_555
O11_3 Ca5 1_555 1_555
N6_3 C40_3 1_555 1_555
C40_3 O24_3 1_555 1_555
H32_3 C40_3 1_555 1_555
C42_3 N6_3 1_555 1_555
H36_3 C42_3 1_555 1_555
H38_3 C42_3 1_555 1_555
O11_2 C1_3 1_555 1_555
O14 C2_3 1_555 1_555
O4_3 C2_3 1_555 1_555
O5_3 C9_3 1_555 1_555
O6_3 C10_3 1_555 1_555
N1_3 C7_3 1_555 1_555
N2_3 C16_3 1_555 1_555
C2_3 C5_3 1_555 1_555
C3_3 C1_3 1_555 1_555
C4_3 C3_3 1_555 1_555
H1_3 C4_3 1_555 1_555
C5_3 C4_3 1_555 1_555
C6_3 C5_3 1_555 1_555
H2_3 C6_3 1_555 1_555
C7_3 C6_3 1_555 1_555
C8_3 C3_3 1_555 1_555
H3_3 C8_3 1_555 1_555
C9_3 N1_3 1_555 1_555
C10_3 N1_3 1_555 1_555
C11_3 H4_3 1_555 1_555
C12_3 C10_3 1_555 1_555
C13_3 H5_3 1_555 1_555
C14_3 C9_3 1_555 1_555
C15_3 C12_3 1_555 1_555
H6_3 C16_3 1_555 1_555
C17_3 N2_3 1_555 1_555
H8_3 C17_3 1_555 1_555
H9_3 C17_3 1_555 1_555
C18_3 N2_3 1_555 1_555
H10_3 C18_3 1_555 1_555
H11_3 C18_3 1_555 1_555
H12_3 C18_3 1_555 1_555
O10_2 C22_3 1_555 1_555
O16 C23_3 1_555 1_555
O18_3 Ca6 1_555 1_555
O21_3 C30_3 1_555 1_555
O22_3 C31_3 1_555 1_555
N4_3 C28_3 1_555 1_555
C23_3 O18_3 1_555 1_555
C24_3 C22_3 1_555 1_555
C25_3 C24_3 1_555 1_555
H20_3 C25_3 1_555 1_555
C26_3 C23_3 1_555 1_555
C27_3 C26_3 1_555 1_555
H21_3 C27_3 1_555 1_555
C28_3 C27_3 1_555 1_555
C29_3 C24_3 1_555 1_555
H22_3 C29_3 1_555 1_555
C30_3 N4_3 1_555 1_555
C31_3 N4_3 1_555 1_555
C32_3 C13_3 1_555 1_555
H23_3 C32_3 1_555 1_555
C33_3 C31_3 1_555 1_555
C34_3 C11_3 1_555 1_555
H24_3 C34_3 1_555 1_555
C35_3 C30_3 1_555 1_555
C36_3 C15_3 1_555 1_555
H28_3 C38_3 1_555 1_555
O4_3 Ca8 1_555 1_555
C7_3 C8_3 1_555 1_555
C11_3 C12_3 1_555 1_555
C13_3 C14_3 1_555 1_555
C14_3 C15_3 1_555 1_555
C25_3 C26_3 1_555 1_555
C28_3 C29_3 1_555 1_555
C32_3 C33_3 1_555 1_555
C33_3 C36_3 1_555 1_555
C34_3 C35_3 1_555 1_555
C35_3 C36_3 1_555 1_555
Ca6 O10_3 1_555 1_555
O10_3 C1_4 1_555 1_555
O2_4 Ca6 1_555 1_555
O5_4 C9_4 1_555 1_555
O6_4 C10_4 1_555 1_555
O7_4 Ca6 1_555 1_555
O8_4 Ca6 1_555 1_555
N1_4 C7_4 1_555 1_555
N2_4 C16_4 1_555 1_555
N3_4 C19_4 1_555 1_555
C1_4 O2_4 1_555 1_555
C3_4 C1_4 1_555 1_555
C8_4 C3_4 1_555 1_555
H3_4 C8_4 1_555 1_555
C9_4 N1_4 1_555 1_555
C10_4 N1_4 1_555 1_555
C11_4 H4_4 1_555 1_555
C12_4 C10_4 1_555 1_555
C14_4 C9_4 1_555 1_555
C15_4 C12_4 1_555 1_555
C16_4 O7_4 1_555 1_555
H6_4 C16_4 1_555 1_555
C17_4 N2_4 1_555 1_555
H7_4 C17_4 1_555 1_555
H8_4 C17_4 1_555 1_555
H9_4 C17_4 1_555 1_555
C18_4 N2_4 1_555 1_555
H10_4 C18_4 1_555 1_555
H11_4 C18_4 1_555 1_555
H12_4 C18_4 1_555 1_555
C19_4 O8_4 1_555 1_555
H13_4 C19_4 1_555 1_555
C20_4 N3_4 1_555 1_555
H14_4 C20_4 1_555 1_555
H15_4 C20_4 1_555 1_555
H16_4 C20_4 1_555 1_555
C21_4 N3_4 1_555 1_555
H17_4 C21_4 1_555 1_555
H18_4 C21_4 1_555 1_555
H19_4 C21_4 1_555 1_555
C34_4 C11_4 1_555 1_555
H24_4 C34_4 1_555 1_555
C7_4 C8_4 1_555 1_555
C11_4 C12_4 1_555 1_555
C14_4 C15_4 1_555 1_555
O15 C2_4 1_555 1_555
O19 C2_4 1_555 1_555
C2_4 C5_4 1_555 1_555
H1_4 C4_4 1_555 1_555
C5_4 C4_4 1_555 1_555
C6_4 C5_4 1_555 1_555
H2_4 C6_4 1_555 1_555
C13_4 H5_4 1_555 1_555
Ca8 O11_3 1_555 1_555
O11_3 C22_4 1_555 1_555
O12_4 Ca8 1_555 1_555
O21_4 C30_4 1_555 1_555
O22_4 C31_4 1_555 1_555
O23_4 Ca8 1_555 1_555
O24_4 Ca8 1_555 1_555
N4_4 C28_4 1_555 1_555
N5_4 C37_4 1_555 1_555
N6_4 C40_4 1_555 1_555
C22_4 O12_4 1_555 1_555
C24_4 C22_4 1_555 1_555
C29_4 C24_4 1_555 1_555
H22_4 C29_4 1_555 1_555
C30_4 N4_4 1_555 1_555
C31_4 N4_4 1_555 1_555
C32_4 C13_4 1_555 1_555
H23_4 C32_4 1_555 1_555
C33_4 C31_4 1_555 1_555
C35_4 C30_4 1_555 1_555
C37_4 O23_4 1_555 1_555
H25_4 C37_4 1_555 1_555
C38_4 N5_4 1_555 1_555
H26_4 C38_4 1_555 1_555
H27_4 C38_4 1_555 1_555
H28_4 C38_4 1_555 1_555
C39_4 N5_4 1_555 1_555
H29_4 C39_4 1_555 1_555
H30_4 C39_4 1_555 1_555
H31_4 C39_4 1_555 1_555
C40_4 O24_4 1_555 1_555
H32_4 C40_4 1_555 1_555
C41_4 N6_4 1_555 1_555
H33_4 C41_4 1_555 1_555
H34_4 C41_4 1_555 1_555
H35_4 C41_4 1_555 1_555
C42_4 N6_4 1_555 1_555
H36_4 C42_4 1_555 1_555
H37_4 C42_4 1_555 1_555
H38_4 C42_4 1_555 1_555
C28_4 C29_4 1_555 1_555
C32_4 C33_4 1_555 1_555
C33_4 C36_4 1_555 1_555
C35_4 C36_4 1_555 1_555
O17 C23_4 1_555 1_555
C23_4 O20 1_555 1_555
H20_4 C25_4 1_555 1_555
C26_4 C23_4 1_555 1_555
C27_4 C26_4 1_555 1_555
H21_4 C27_4 1_555 1_555
C25_4 C26_4 1_555 1_555
O18_4 Ca3_2 1_555 1_555
C11_5 H4_5 1_555 1_555
Ca2_2 O9_2 1_555 1_555
Ca5_2 O13_3 1_555 1_555
Ca8_2 O9_2 1_555 1_555
O9_2 C22_5 1_555 1_555
O10_4 Ca2_2 1_555 1_555
O12_5 Ca2_2 1_555 1_555
O13_3 C23_5 1_555 1_555
O14_2 Ca2_2 1_555 1_555
O17_2 Ca2_2 1_555 1_555
O20_2 Ca2_2 1_555 1_555
O21_5 C30_5 1_555 1_555
O22_5 C31_5 1_555 1_555
O23_5 Ca2_2 1_555 1_555
O24_5 Ca2_2 1_555 1_555
N4_5 C28_5 1_555 1_555
N5_5 C37_5 1_555 1_555
N6_5 C40_5 1_555 1_555
C22_5 O12_5 1_555 1_555
C24_5 C22_5 1_555 1_555
C25_5 C24_5 1_555 1_555
H20_5 C25_5 1_555 1_555
C26_5 C23_5 1_555 1_555
C27_5 C26_5 1_555 1_555
H21_5 C27_5 1_555 1_555
C28_5 C27_5 1_555 1_555
C29_5 C24_5 1_555 1_555
H22_5 C29_5 1_555 1_555
C30_5 N4_5 1_555 1_555
C31_5 N4_5 1_555 1_555
C33_5 C31_5 1_555 1_555
C34_5 C11_5 1_555 1_555
H24_5 C34_5 1_555 1_555
C35_5 C30_5 1_555 1_555
C37_5 O23_5 1_555 1_555
H25_5 C37_5 1_555 1_555
C38_5 N5_5 1_555 1_555
H26_5 C38_5 1_555 1_555
H27_5 C38_5 1_555 1_555
H28_5 C38_5 1_555 1_555
C39_5 N5_5 1_555 1_555
H29_5 C39_5 1_555 1_555
H30_5 C39_5 1_555 1_555
H31_5 C39_5 1_555 1_555
C40_5 O24_5 1_555 1_555
H32_5 C40_5 1_555 1_555
C41_5 N6_5 1_555 1_555
H33_5 C41_5 1_555 1_555
H34_5 C41_5 1_555 1_555
H35_5 C41_5 1_555 1_555
C42_5 N6_5 1_555 1_555
H36_5 C42_5 1_555 1_555
H37_5 C42_5 1_555 1_555
H38_5 C42_5 1_555 1_555
Ca8_2 O14_2 1_555 1_555
C25_5 C26_5 1_555 1_555
C28_5 C29_5 1_555 1_555
C33_5 C36_5 1_555 1_555
C34_5 C35_5 1_555 1_555
C35_5 C36_5 1_555 1_555
O7_5 Ca1_2 1_555 1_555
N2_5 C16_5 1_555 1_555
C16_5 O7_5 1_555 1_555
H6_5 C16_5 1_555 1_555
C18_5 N2_5 1_555 1_555
H10_5 C18_5 1_555 1_555
H11_5 C18_5 1_555 1_555
H12_5 C18_5 1_555 1_555
H14_5 C20_5 1_555 1_555
H15_5 C20_5 1_555 1_555
H16_5 C20_5 1_555 1_555
O15_2 Ca1_2 1_555 1_555
O16_2 Ca1_2 1_555 1_555
O19_2 Ca1_2 1_555 1_555
Ca6_2 O16_2 1_555 1_555
O4_4 Ca4_2 1_555 1_555
O1_2 C1_5 1_555 1_555
O3_3 C2_5 1_555 1_555
O5_5 C9_5 1_555 1_555
O6_5 C10_5 1_555 1_555
N1_5 C7_5 1_555 1_555
N3_5 C19_5 1_555 1_555
C1_5 O2_5 1_555 1_555
C2_5 C5_5 1_555 1_555
C3_5 C1_5 1_555 1_555
C4_5 C3_5 1_555 1_555
H1_5 C4_5 1_555 1_555
C5_5 C4_5 1_555 1_555
C6_5 C5_5 1_555 1_555
H2_5 C6_5 1_555 1_555
C7_5 C6_5 1_555 1_555
C8_5 C3_5 1_555 1_555
H3_5 C8_5 1_555 1_555
C9_5 N1_5 1_555 1_555
C10_5 N1_5 1_555 1_555
C12_5 C10_5 1_555 1_555
C13_5 H5_5 1_555 1_555
C14_5 C9_5 1_555 1_555
C15_5 C12_5 1_555 1_555
H7_5 C17_5 1_555 1_555
H9_5 C17_5 1_555 1_555
C19_5 O8_5 1_555 1_555
H13_5 C19_5 1_555 1_555
C21_5 N3_5 1_555 1_555
H17_5 C21_5 1_555 1_555
H19_5 C21_5 1_555 1_555
Ca7_2 O3_3 1_555 1_555
C32_5 C13_5 1_555 1_555
H23_5 C32_5 1_555 1_555
C7_5 C8_5 1_555 1_555
C13_5 C14_5 1_555 1_555
C14_5 C15_5 1_555 1_555
Ca3_2 O10_4 1_555 1_555
O10_4 C1_6 1_555 1_555
O2_6 Ca3_2 1_555 1_555
O3_4 C2_6 1_555 1_555
O4_5 C2_6 1_555 1_555
O5_6 C9_6 1_555 1_555
O6_6 C10_6 1_555 1_555
O7_6 Ca3_2 1_555 1_555
O8_6 Ca3_2 1_555 1_555
N1_6 C7_6 1_555 1_555
N2_6 C16_6 1_555 1_555
C1_6 O2_6 1_555 1_555
C2_6 C5_6 1_555 1_555
C3_6 C1_6 1_555 1_555
C4_6 C3_6 1_555 1_555
H1_6 C4_6 1_555 1_555
C5_6 C4_6 1_555 1_555
C6_6 C5_6 1_555 1_555
H2_6 C6_6 1_555 1_555
C7_6 C6_6 1_555 1_555
C8_6 C3_6 1_555 1_555
H3_6 C8_6 1_555 1_555
C9_6 N1_6 1_555 1_555
C10_6 N1_6 1_555 1_555
C11_6 H4_6 1_555 1_555
C12_6 C10_6 1_555 1_555
C13_6 H5_6 1_555 1_555
C14_6 C9_6 1_555 1_555
C15_6 C12_6 1_555 1_555
C16_6 O7_6 1_555 1_555
H6_6 C16_6 1_555 1_555
C17_6 N2_6 1_555 1_555
H7_6 C17_6 1_555 1_555
H8_6 C17_6 1_555 1_555
H9_6 C17_6 1_555 1_555
C18_6 N2_6 1_555 1_555
H10_6 C18_6 1_555 1_555
H11_6 C18_6 1_555 1_555
H12_6 C18_6 1_555 1_555
Ca4_2 O11_4 1_555 1_555
Ca7_2 O13_4 1_555 1_555
Ca5_2 O3_4 1_555 1_555
Ca8_2 O3_4 1_555 1_555
O11_4 C22_6 1_555 1_555
O11_5 Ca3_2 1_555 1_555
O12_6 Ca4_2 1_555 1_555
O13_4 C23_6 1_555 1_555
O17_2 Ca3_2 1_555 1_555
O18_5 Ca7_2 1_555 1_555
O21_6 C30_6 1_555 1_555
O22_6 C31_6 1_555 1_555
O23_6 Ca4_2 1_555 1_555
O24_6 Ca4_2 1_555 1_555
N4_6 C28_6 1_555 1_555
N5_6 C37_6 1_555 1_555
C22_6 O12_6 1_555 1_555
C23_6 O18_5 1_555 1_555
C24_6 C22_6 1_555 1_555
C25_6 C24_6 1_555 1_555
H20_6 C25_6 1_555 1_555
C26_6 C23_6 1_555 1_555
C27_6 C26_6 1_555 1_555
H21_6 C27_6 1_555 1_555
C28_6 C27_6 1_555 1_555
C29_6 C24_6 1_555 1_555
H22_6 C29_6 1_555 1_555
C30_6 N4_6 1_555 1_555
C31_6 N4_6 1_555 1_555
C32_6 C13_6 1_555 1_555
H23_6 C32_6 1_555 1_555
C33_6 C31_6 1_555 1_555
C34_6 C11_6 1_555 1_555
H24_6 C34_6 1_555 1_555
C35_6 C30_6 1_555 1_555
C36_6 C15_6 1_555 1_555
C37_6 O23_6 1_555 1_555
H25_6 C37_6 1_555 1_555
C38_6 N5_6 1_555 1_555
H26_6 C38_6 1_555 1_555
H27_6 C38_6 1_555 1_555
H28_6 C38_6 1_555 1_555
C39_6 N5_6 1_555 1_555
H29_6 C39_6 1_555 1_555
H30_6 C39_6 1_555 1_555
H31_6 C39_6 1_555 1_555
O4_5 Ca5_2 1_555 1_555
C7_6 C8_6 1_555 1_555
C11_6 C12_6 1_555 1_555
C13_6 C14_6 1_555 1_555
C14_6 C15_6 1_555 1_555
C25_6 C26_6 1_555 1_555
C28_6 C29_6 1_555 1_555
C32_6 C33_6 1_555 1_555
C33_6 C36_6 1_555 1_555
C34_6 C35_6 1_555 1_555
C35_6 C36_6 1_555 1_555
N3_6 C19_6 1_555 1_555
H13_6 C19_6 1_555 1_555
C20_6 N3_6 1_555 1_555
H15_6 C20_6 1_555 1_555
H16_6 C20_6 1_555 1_555
C21_6 N3_6 1_555 1_555
H17_6 C21_6 1_555 1_555
H18_6 C21_6 1_555 1_555
H19_6 C21_6 1_555 1_555
N6_6 C40_6 1_555 1_555
H32_6 C40_6 1_555 1_555
C41_6 N6_6 1_555 1_555
H34_6 C41_6 1_555 1_555
H35_6 C41_6 1_555 1_555
C42_6 N6_6 1_555 1_555
H36_6 C42_6 1_555 1_555
H37_6 C42_6 1_555 1_555
H38_6 C42_6 1_555 1_555
O11_5 C1_7 1_555 1_555
O14_2 C2_7 1_555 1_555
O4_6 C2_7 1_555 1_555
O5_7 C9_7 1_555 1_555
O6_7 C10_7 1_555 1_555
N1_7 C7_7 1_555 1_555
N2_7 C16_7 1_555 1_555
C2_7 C5_7 1_555 1_555
C3_7 C1_7 1_555 1_555
C4_7 C3_7 1_555 1_555
H1_7 C4_7 1_555 1_555
C5_7 C4_7 1_555 1_555
C6_7 C5_7 1_555 1_555
H2_7 C6_7 1_555 1_555
C7_7 C6_7 1_555 1_555
C8_7 C3_7 1_555 1_555
H3_7 C8_7 1_555 1_555
C9_7 N1_7 1_555 1_555
C10_7 N1_7 1_555 1_555
C11_7 H4_7 1_555 1_555
C12_7 C10_7 1_555 1_555
C13_7 H5_7 1_555 1_555
C14_7 C9_7 1_555 1_555
C15_7 C12_7 1_555 1_555
H6_7 C16_7 1_555 1_555
C17_7 N2_7 1_555 1_555
H8_7 C17_7 1_555 1_555
H9_7 C17_7 1_555 1_555
C18_7 N2_7 1_555 1_555
H10_7 C18_7 1_555 1_555
H11_7 C18_7 1_555 1_555
H12_7 C18_7 1_555 1_555
O10_5 C22_7 1_555 1_555
O16_2 C23_7 1_555 1_555
O18_6 Ca6_2 1_555 1_555
O21_7 C30_7 1_555 1_555
O22_7 C31_7 1_555 1_555
N4_7 C28_7 1_555 1_555
C23_7 O18_6 1_555 1_555
C24_7 C22_7 1_555 1_555
C25_7 C24_7 1_555 1_555
H20_7 C25_7 1_555 1_555
C26_7 C23_7 1_555 1_555
C27_7 C26_7 1_555 1_555
H21_7 C27_7 1_555 1_555
C28_7 C27_7 1_555 1_555
C29_7 C24_7 1_555 1_555
H22_7 C29_7 1_555 1_555
C30_7 N4_7 1_555 1_555
C31_7 N4_7 1_555 1_555
C32_7 C13_7 1_555 1_555
H23_7 C32_7 1_555 1_555
C33_7 C31_7 1_555 1_555
C34_7 C11_7 1_555 1_555
H24_7 C34_7 1_555 1_555
C35_7 C30_7 1_555 1_555
C36_7 C15_7 1_555 1_555
H28_7 C38_7 1_555 1_555
O4_6 Ca8_2 1_555 1_555
C7_7 C8_7 1_555 1_555
C11_7 C12_7 1_555 1_555
C13_7 C14_7 1_555 1_555
C14_7 C15_7 1_555 1_555
C25_7 C26_7 1_555 1_555
C28_7 C29_7 1_555 1_555
C32_7 C33_7 1_555 1_555
C33_7 C36_7 1_555 1_555
C34_7 C35_7 1_555 1_555
C35_7 C36_7 1_555 1_555
O2_7 Ca5_2 1_555 1_555
O7_7 Ca5_2 1_555 1_555
O8_7 Ca5_2 1_555 1_555
N3_7 C19_7 1_555 1_555
C19_7 O8_7 1_555 1_555
H13_7 C19_7 1_555 1_555
C20_7 N3_7 1_555 1_555
H14_7 C20_7 1_555 1_555
H15_7 C20_7 1_555 1_555
H16_7 C20_7 1_555 1_555
C21_7 N3_7 1_555 1_555
H17_7 C21_7 1_555 1_555
H18_7 C21_7 1_555 1_555
H19_7 C21_7 1_555 1_555
O11_6 Ca5_2 1_555 1_555
N6_7 C40_7 1_555 1_555
C40_7 O24_7 1_555 1_555
H32_7 C40_7 1_555 1_555
C42_7 N6_7 1_555 1_555
H36_7 C42_7 1_555 1_555
H38_7 C42_7 1_555 1_555
N5_7 C37_7 1_555 1_555
H25_7 C37_7 1_555 1_555
C39_7 N5_7 1_555 1_555
H29_7 C39_7 1_555 1_555
H30_7 C39_7 1_555 1_555
H31_7 C39_7 1_555 1_555
O23_7 Ca7_2 1_555 1_555
H33_7 C41_7 1_555 1_555
H34_7 C41_7 1_555 1_555
H35_7 C41_7 1_555 1_555
O17_2 C23_8 1_555 1_555
C23_8 O20_2 1_555 1_555
H20_8 C25_8 1_555 1_555
C26_8 C23_8 1_555 1_555
C27_8 C26_8 1_555 1_555
H21_8 C27_8 1_555 1_555
C25_8 C26_8 1_555 1_555
C13_8 H5_8 1_555 1_555
Ca8_2 O11_6 1_555 1_555
O11_6 C22_8 1_555 1_555
O12_8 Ca8_2 1_555 1_555
O21_8 C30_8 1_555 1_555
O22_8 C31_8 1_555 1_555
O23_8 Ca8_2 1_555 1_555
O24_8 Ca8_2 1_555 1_555
N4_8 C28_8 1_555 1_555
N5_8 C37_8 1_555 1_555
N6_8 C40_8 1_555 1_555
C22_8 O12_8 1_555 1_555
C24_8 C22_8 1_555 1_555
C29_8 C24_8 1_555 1_555
H22_8 C29_8 1_555 1_555
C30_8 N4_8 1_555 1_555
C31_8 N4_8 1_555 1_555
C32_8 C13_8 1_555 1_555
H23_8 C32_8 1_555 1_555
C33_8 C31_8 1_555 1_555
C35_8 C30_8 1_555 1_555
C37_8 O23_8 1_555 1_555
H25_8 C37_8 1_555 1_555
C38_8 N5_8 1_555 1_555
H26_8 C38_8 1_555 1_555
H27_8 C38_8 1_555 1_555
H28_8 C38_8 1_555 1_555
C39_8 N5_8 1_555 1_555
H29_8 C39_8 1_555 1_555
H30_8 C39_8 1_555 1_555
H31_8 C39_8 1_555 1_555
C40_8 O24_8 1_555 1_555
H32_8 C40_8 1_555 1_555
C41_8 N6_8 1_555 1_555
H33_8 C41_8 1_555 1_555
H34_8 C41_8 1_555 1_555
H35_8 C41_8 1_555 1_555
C42_8 N6_8 1_555 1_555
H36_8 C42_8 1_555 1_555
H37_8 C42_8 1_555 1_555
H38_8 C42_8 1_555 1_555
C28_8 C29_8 1_555 1_555
C32_8 C33_8 1_555 1_555
C33_8 C36_8 1_555 1_555
C35_8 C36_8 1_555 1_555
O15_2 C2_8 1_555 1_555
O19_2 C2_8 1_555 1_555
C2_8 C5_8 1_555 1_555
H1_8 C4_8 1_555 1_555
C5_8 C4_8 1_555 1_555
C6_8 C5_8 1_555 1_555
H2_8 C6_8 1_555 1_555
Ca6_2 O10_6 1_555 1_555
O10_6 C1_8 1_555 1_555
O2_8 Ca6_2 1_555 1_555
O5_8 C9_8 1_555 1_555
O6_8 C10_8 1_555 1_555
O7_8 Ca6_2 1_555 1_555
O8_8 Ca6_2 1_555 1_555
N1_8 C7_8 1_555 1_555
N2_8 C16_8 1_555 1_555
N3_8 C19_8 1_555 1_555
C1_8 O2_8 1_555 1_555
C3_8 C1_8 1_555 1_555
C8_8 C3_8 1_555 1_555
H3_8 C8_8 1_555 1_555
C9_8 N1_8 1_555 1_555
C10_8 N1_8 1_555 1_555
C11_8 H4_8 1_555 1_555
C12_8 C10_8 1_555 1_555
C14_8 C9_8 1_555 1_555
C15_8 C12_8 1_555 1_555
C16_8 O7_8 1_555 1_555
H6_8 C16_8 1_555 1_555
C17_8 N2_8 1_555 1_555
H7_8 C17_8 1_555 1_555
H8_8 C17_8 1_555 1_555
H9_8 C17_8 1_555 1_555
C18_8 N2_8 1_555 1_555
H10_8 C18_8 1_555 1_555
H11_8 C18_8 1_555 1_555
H12_8 C18_8 1_555 1_555
C19_8 O8_8 1_555 1_555
H13_8 C19_8 1_555 1_555
C20_8 N3_8 1_555 1_555
H14_8 C20_8 1_555 1_555
H15_8 C20_8 1_555 1_555
H16_8 C20_8 1_555 1_555
C21_8 N3_8 1_555 1_555
H17_8 C21_8 1_555 1_555
H18_8 C21_8 1_555 1_555
H19_8 C21_8 1_555 1_555
C34_8 C11_8 1_555 1_555
H24_8 C34_8 1_555 1_555
C7_8 C8_8 1_555 1_555
C11_8 C12_8 1_555 1_555
C14_8 C15_8 1_555 1_555

#END
