
###############################################################################
#
# This file contains modified crystal structure data generated from the
# MOF subset of the Cambridge Structural Database (CSD) v543 
# hosted by the Cambridge Crystallographic Data Centre (CCDC).
#
# This work is licensed under the Creative Commons
# Attribution-NonCommercial-ShareAlike 4.0 International License.
# To view a copy of this license, visit
# http://creativecommons.org/licenses/by-nc-sa/4.0/
# or send a letter to
# Creative Commons, PO Box 1866, Mountain View, CA 94042, USA.
#
# CIF created using the CSD Python API on 29 September 2022
# The structure has been converted into the P1 space group
# The structure has a 3D framework
# The original CSD entry XENKIM01 is in the tetragonal crystal system
# The framework has been calculated to contain at least 10.0% void space
# The void calculation uses a probe of radius 1.32A, grid spacing 0.4
#
###############################################################################

data_XENKIM01
_chemical_formula_moiety         '(C336 H304 Ca16 N48 O122)n'
_symmetry_cell_setting           triclinic
_symmetry_space_group_name_H-M   'P 1'
_symmetry_Int_Tables_number      1
_space_group_name_Hall           'P 1'
loop_
_symmetry_equiv_pos_site_id
_symmetry_equiv_pos_as_xyz
1 x,y,z
_cell_length_a                   28.1585(17)
_cell_length_b                   28.1585(17)
_cell_length_c                   13.4560(16)
_cell_angle_alpha                90
_cell_angle_beta                 90
_cell_angle_gamma                90
_cell_volume                     10669.3
loop_
_atom_site_label
_atom_site_type_symbol
_atom_site_fract_x
_atom_site_fract_y
_atom_site_fract_z
Ca2 Ca 0.74602(4) 0.05999(3) 0.62243(8)
O15 O 0.70050(17) 0.12086(15) 0.7103(4)
O16 O 0.78360(16) 0.12726(14) 0.5408(3)
N5 N 0.76436(18) 0.17234(17) 0.4076(4)
C37 C 0.7885(2) 0.1387(2) 0.4536(6)
H25 H 0.811077 0.122290 0.416667
C38 C 0.6959(3) 0.1300(3) 0.7986(7)
H26 H 0.674211 0.111676 0.833863
N6 N 0.7185(3) 0.1629(3) 0.8485(6)
C39 C 0.7284(3) 0.1991(3) 0.4548(7)
H27 H 0.726394 0.189972 0.523439
H28 H 0.698544 0.193107 0.422773
H29 H 0.735886 0.232250 0.450287
C40 C 0.7710(3) 0.1808(3) 0.2998(6)
H30 H 0.780543 0.213152 0.289254
H31 H 0.741680 0.174923 0.265605
H32 H 0.795094 0.159858 0.274836
C41 C 0.7554(5) 0.1905(3) 0.7981(8)
H33 H 0.784017 0.189860 0.836912
H34 H 0.744951 0.222747 0.790507
H35 H 0.761491 0.177007 0.733822
C42 C 0.7144(5) 0.1693(3) 0.9579(7)
H36 H 0.697074 0.197916 0.971725
H37 H 0.745572 0.171502 0.986487
H38 H 0.697946 0.142671 0.986030
Ca7 Ca 0.80999(3) 0.00398(4) 0.37243(8)
O18 O 0.68267(13) 0.07797(13) 0.5091(3)
O20 O 0.74275(11) 0.04739(11) 0.4273(2)
O23 O 0.75279(12) 0.04630(11) 0.8199(3)
O26 O 0.80846(14) 0.08203(13) 0.7341(3)
Ca1 Ca 0.25398(4) 0.44001(3) 0.62243(8)
O1 O 0.32797(13) 0.56733(13) 0.7591(3)
O2 O 0.29739(11) 0.50725(11) 0.6773(2)
O3 O 0.25279(12) 0.54630(11) 0.3199(3)
O4 O 0.30846(14) 0.58203(13) 0.2341(3)
N1 N 0.41149(15) 0.66274(14) 0.4911(3)
O5 O 0.35514(15) 0.71991(14) 0.4868(4)
O6 O 0.46739(13) 0.60575(16) 0.4870(4)
C1 C 0.36248(16) 0.60691(17) 0.5820(4)
H1 H 0.377180 0.616608 0.640442
O7 O 0.29950(17) 0.37914(15) 0.7103(4)
C2 C 0.48237(17) 0.73237(17) 0.4892(4)
C3 C 0.32839(16) 0.57180(16) 0.5839(4)
C4 C 0.30593(16) 0.55901(16) 0.4968(4)
H2 H 0.282692 0.535556 0.498054
C5 C 0.31690(16) 0.54775(18) 0.6803(4)
C6 C 0.29116(19) 0.56913(17) 0.3141(4)
C7 C 0.45880(19) 0.6475(2) 0.4890(4)
C8 C 0.37449(17) 0.62740(17) 0.4930(4)
C9 C 0.31732(17) 0.58026(16) 0.4090(4)
O8 O 0.21640(16) 0.37274(14) 0.5408(3)
C10 C 0.35286(17) 0.61447(16) 0.4060(4)
H3 H 0.361764 0.628308 0.346026
C11 C 0.49521(19) 0.68429(18) 0.4882(4)
C12 C 0.43478(18) 0.74644(19) 0.4880(4)
N2 N 0.23564(18) 0.32766(17) 0.4076(4)
C13 C 0.5421(2) 0.67179(19) 0.4893(4)
H4 H 0.550542 0.639871 0.491708
C14 C 0.4226(2) 0.7937(2) 0.4868(5)
H5 H 0.390812 0.802552 0.484343
C15 C 0.3965(2) 0.7100(2) 0.4887(4)
C16 C 0.2115(2) 0.3613(2) 0.4536(6)
H6 H 0.188923 0.377710 0.416667
C17 C 0.3041(3) 0.3700(3) 0.7986(7)
H7 H 0.325789 0.388324 0.833863
N3 N 0.2815(3) 0.3371(3) 0.8485(6)
C18 C 0.2716(3) 0.3009(3) 0.4548(7)
H8 H 0.273606 0.310028 0.523439
H9 H 0.301456 0.306893 0.422773
H10 H 0.264114 0.267750 0.450287
C19 C 0.2290(3) 0.3192(3) 0.2998(6)
H11 H 0.219457 0.286848 0.289254
H12 H 0.258320 0.325077 0.265605
H13 H 0.204906 0.340142 0.274836
C20 C 0.2446(5) 0.3095(3) 0.7981(8)
H14 H 0.215983 0.310140 0.836912
H15 H 0.255049 0.277253 0.790507
H16 H 0.238509 0.322993 0.733822
C21 C 0.2856(5) 0.3307(3) 0.9579(7)
H17 H 0.302926 0.302084 0.971725
H18 H 0.254428 0.328498 0.986487
H19 H 0.302054 0.357329 0.986030
O9 O 0.67203(13) 0.93267(13) 0.7591(3)
O10 O 0.70261(11) 0.99275(11) 0.6773(2)
O11 O 0.74721(12) 0.95370(11) 0.3199(3)
O12 O 0.69154(14) 0.91797(13) 0.2341(3)
N4 N 0.58851(15) 0.83726(14) 0.4911(3)
O13 O 0.64486(15) 0.78009(14) 0.4868(4)
O14 O 0.53261(13) 0.89425(16) 0.4870(4)
C22 C 0.63752(16) 0.89309(17) 0.5820(4)
H20 H 0.622820 0.883392 0.640442
C23 C 0.51763(17) 0.76763(17) 0.4892(4)
C24 C 0.67161(16) 0.92820(16) 0.5839(4)
C25 C 0.69407(16) 0.94099(16) 0.4968(4)
H21 H 0.717308 0.964444 0.498054
C26 C 0.68310(16) 0.95225(18) 0.6803(4)
C27 C 0.70884(19) 0.93087(17) 0.3141(4)
C28 C 0.54120(19) 0.8525(2) 0.4890(4)
C29 C 0.62551(17) 0.87260(17) 0.4930(4)
C30 C 0.68268(17) 0.91974(16) 0.4090(4)
C31 C 0.64714(17) 0.88553(16) 0.4060(4)
H22 H 0.638236 0.871692 0.346026
C32 C 0.50479(19) 0.81571(18) 0.4882(4)
C33 C 0.56522(18) 0.75356(19) 0.4880(4)
C34 C 0.4579(2) 0.82821(19) 0.4893(4)
H23 H 0.449458 0.860129 0.491708
C35 C 0.5774(2) 0.7063(2) 0.4868(5)
H24 H 0.609188 0.697448 0.484343
C36 C 0.6035(2) 0.7900(2) 0.4887(4)
Ca3 Ca 0.24602(4) 0.55999(3) 0.12243(8)
Ca4 Ca 0.30999(3) 0.50398(4) 0.87243(8)
Ca5 Ca 0.19001(3) 0.49602(4) 0.37243(8)
Ca6 Ca 0.75398(4) 0.94001(3) 0.12243(8)
Ca8 Ca 0.69001(3) 0.99602(4) 0.87243(8)
O17 O 0.31733(13) 0.42203(13) 0.5091(3)
O19 O 0.25725(11) 0.45261(11) 0.4273(2)
O21 O 0.24721(12) 0.45370(11) 0.8199(3)
O22 O 0.20370(11) 0.50279(12) 0.5699(3)
O24 O 0.79630(11) 0.99721(12) 0.5699(3)
O25 O 0.19154(14) 0.41797(13) 0.7341(3)
O1_2 O 0.17203(13) 0.43267(13) 0.2591(3)
O2_2 O 0.20261(11) 0.49275(11) 0.1773(2)
C1_2 C 0.13752(16) 0.39309(17) 0.0820(4)
H1_2 H 0.122820 0.383392 0.140442
O7_2 O 0.20050(17) 0.62086(15) 0.2103(4)
C3_2 C 0.17161(16) 0.42820(16) 0.0839(4)
C5_2 C 0.18310(16) 0.45225(18) 0.1803(4)
O8_2 O 0.28360(16) 0.62726(14) 0.0408(3)
C17_2 C 0.1959(3) 0.6300(3) 0.2986(7)
H7_2 H 0.174211 0.611676 0.333863
N3_2 N 0.2185(3) 0.6629(3) 0.3485(6)
H8_2 H 0.226394 0.689972 0.023439
C20_2 C 0.2554(5) 0.6905(3) 0.2981(8)
H14_2 H 0.284017 0.689860 0.336912
H15_2 H 0.244951 0.722747 0.290507
H16_2 H 0.261491 0.677007 0.233822
C21_2 C 0.2144(5) 0.6693(3) 0.4579(7)
H17_2 H 0.197074 0.697916 0.471725
H18_2 H 0.245572 0.671502 0.486487
H19_2 H 0.197946 0.642671 0.486030
O17_2 O 0.18267(13) 0.57797(13) 0.0091(3)
O22_2 O 0.29630(11) 0.49721(12) 0.0699(3)
N1_2 N 0.08851(15) 0.33726(14) 0.9911(3)
O5_2 O 0.14486(15) 0.28009(14) 0.9868(4)
O6_2 O 0.03261(13) 0.39425(16) 0.9870(4)
C2_2 C 0.01763(17) 0.26763(17) 0.9892(4)
C4_2 C 0.19407(16) 0.44099(16) 0.9968(4)
H2_2 H 0.217308 0.464444 0.998054
C6_2 C 0.20884(19) 0.43087(17) 0.8141(4)
C7_2 C 0.04120(19) 0.3525(2) 0.9890(4)
C8_2 C 0.12551(17) 0.37260(17) 0.9930(4)
C9_2 C 0.18268(17) 0.41974(16) 0.9090(4)
C10_2 C 0.14714(17) 0.38553(16) 0.9060(4)
H3_2 H 0.138236 0.371692 0.846026
C11_2 C 0.00479(19) 0.31571(18) 0.9882(4)
C12_2 C 0.06522(18) 0.25356(19) 0.9880(4)
N2_2 N 0.26436(18) 0.67234(17) 0.9076(4)
C14_2 C 0.0774(2) 0.2063(2) 0.9868(5)
H5_2 H 0.109188 0.197448 0.984343
C15_2 C 0.1035(2) 0.2900(2) 0.9887(4)
C16_2 C 0.2885(2) 0.6387(2) 0.9536(6)
H6_2 H 0.311077 0.622290 0.916667
C18_2 C 0.2284(3) 0.6991(3) 0.9548(7)
H9_2 H 0.198544 0.693107 0.922773
H10_2 H 0.235886 0.732250 0.950287
C19_2 C 0.2710(3) 0.6808(3) 0.7998(6)
H11_2 H 0.280543 0.713152 0.789254
H12_2 H 0.241680 0.674923 0.765605
H13_2 H 0.295094 0.659858 0.774836
C34_2 C 0.0421(2) 0.17179(19) 0.9893(4)
H23_2 H 0.050542 0.139871 0.991708
O19_2 O 0.24275(11) 0.54739(11) 0.9273(2)
O9_2 O 0.82797(13) 0.06733(13) 0.2591(3)
O10_2 O 0.79739(11) 0.00725(11) 0.1773(2)
C22_2 C 0.86248(16) 0.10691(17) 0.0820(4)
H20_2 H 0.877180 0.116608 0.140442
C24_2 C 0.82839(16) 0.07180(16) 0.0839(4)
C26_2 C 0.81690(16) 0.04775(18) 0.1803(4)
O24_2 O 0.70370(11) 0.00279(12) 0.0699(3)
C13_2 C 0.9579(2) 0.32821(19) 0.9893(4)
H4_2 H 0.949458 0.360129 0.991708
N4_2 N 0.91149(15) 0.16274(14) 0.9911(3)
O13_2 O 0.85514(15) 0.21991(14) 0.9868(4)
O14_2 O 0.96739(13) 0.10575(16) 0.9870(4)
C23_2 C 0.98237(17) 0.23237(17) 0.9892(4)
C25_2 C 0.80593(16) 0.05901(16) 0.9968(4)
H21_2 H 0.782692 0.035556 0.998054
C27_2 C 0.79116(19) 0.06913(17) 0.8141(4)
C28_2 C 0.95880(19) 0.1475(2) 0.9890(4)
C29_2 C 0.87449(17) 0.12740(17) 0.9930(4)
C30_2 C 0.81732(17) 0.08026(16) 0.9090(4)
C31_2 C 0.85286(17) 0.11447(16) 0.9060(4)
H22_2 H 0.861764 0.128308 0.846026
C32_2 C 0.99521(19) 0.18429(18) 0.9882(4)
C33_2 C 0.93478(18) 0.24644(19) 0.9880(4)
C35_2 C 0.9226(2) 0.2937(2) 0.9868(5)
H24_2 H 0.890812 0.302552 0.984343
C36_2 C 0.8965(2) 0.2100(2) 0.9887(4)
O15_2 O 0.79950(17) 0.87914(15) 0.2103(4)
O16_2 O 0.71640(16) 0.87274(14) 0.0408(3)
C38_2 C 0.8041(3) 0.8700(3) 0.2986(7)
H26_2 H 0.825789 0.888324 0.333863
N6_2 N 0.7815(3) 0.8371(3) 0.3485(6)
H27_2 H 0.773606 0.810028 0.023439
C41_2 C 0.7446(5) 0.8095(3) 0.2981(8)
H33_2 H 0.715983 0.810140 0.336912
H34_2 H 0.755049 0.777253 0.290507
H35_2 H 0.738509 0.822993 0.233822
C42_2 C 0.7856(5) 0.8307(3) 0.4579(7)
H36_2 H 0.802926 0.802084 0.471725
H37_2 H 0.754428 0.828498 0.486487
H38_2 H 0.802054 0.857329 0.486030
O18_2 O 0.81733(13) 0.92203(13) 0.0091(3)
N5_2 N 0.73564(18) 0.82766(17) 0.9076(4)
C37_2 C 0.7115(2) 0.8613(2) 0.9536(6)
H25_2 H 0.688923 0.877710 0.916667
C39_2 C 0.7716(3) 0.8009(3) 0.9548(7)
H28_2 H 0.801456 0.806893 0.922773
H29_2 H 0.764114 0.767750 0.950287
C40_2 C 0.7290(3) 0.8192(3) 0.7998(6)
H30_2 H 0.719457 0.786848 0.789254
H31_2 H 0.758320 0.825077 0.765605
H32_2 H 0.704906 0.840142 0.774836
O20_2 O 0.75725(11) 0.95261(11) 0.9273(2)
C17_3 C 0.3800(3) 0.5541(3) 0.0486(7)
H7_3 H 0.361676 0.575789 0.083863
N3_3 N 0.4129(3) 0.5315(3) 0.0985(6)
C20_3 C 0.4405(3) 0.4946(5) 0.0481(8)
H14_3 H 0.439860 0.465983 0.086912
H15_3 H 0.472747 0.505049 0.040507
C21_3 C 0.4193(3) 0.5356(5) 0.2079(7)
H17_3 H 0.447916 0.552926 0.221725
H18_3 H 0.421502 0.504428 0.236487
H19_3 H 0.392671 0.552054 0.236030
O4_2 O 0.16797(13) 0.55846(14) 0.4841(3)
N1_3 N 0.08726(14) 0.66149(15) 0.7411(3)
O5_3 O 0.03009(14) 0.60514(15) 0.7368(4)
O6_3 O 0.14425(16) 0.71739(13) 0.7370(4)
C1_3 C 0.14309(17) 0.61248(16) 0.8320(4)
H1_3 H 0.133392 0.627180 0.890442
O7_3 O 0.37086(15) 0.54950(17) 0.9603(4)
C2_3 C 0.01763(17) 0.73237(17) 0.7392(4)
C3_3 C 0.17820(16) 0.57839(16) 0.8339(4)
C4_3 C 0.19099(16) 0.55593(16) 0.7468(4)
H2_3 H 0.214444 0.532692 0.748054
C5_3 C 0.20225(18) 0.56690(16) 0.9303(4)
C6_3 C 0.18087(17) 0.54116(19) 0.5641(4)
C7_3 C 0.1025(2) 0.70880(19) 0.7390(4)
C8_3 C 0.12260(17) 0.62449(17) 0.7430(4)
C9_3 C 0.16974(16) 0.56732(17) 0.6590(4)
O8_3 O 0.37726(14) 0.46640(16) 0.7908(3)
C10_3 C 0.13553(16) 0.60286(17) 0.6560(4)
H3_3 H 0.121692 0.611764 0.596026
C11_3 C 0.06571(18) 0.74521(19) 0.7382(4)
C12_3 C 0.00356(19) 0.68478(18) 0.7380(4)
N2_3 N 0.42234(17) 0.48564(18) 0.6576(4)
C13_3 C 0.07821(19) 0.7921(2) 0.7393(4)
H4_3 H 0.110129 0.800542 0.741708
C15_3 C 0.0400(2) 0.6465(2) 0.7387(4)
C16_3 C 0.3887(2) 0.4615(2) 0.7036(6)
H6_3 H 0.372290 0.438923 0.666667
C18_3 C 0.4491(3) 0.5216(3) 0.7048(7)
H8_3 H 0.439972 0.523606 0.773439
H9_3 H 0.443107 0.551456 0.672773
H10_3 H 0.482250 0.514114 0.700287
C19_3 C 0.4308(3) 0.4790(3) 0.5498(6)
H11_3 H 0.463152 0.469457 0.539254
H12_3 H 0.424923 0.508320 0.515605
H13_3 H 0.409858 0.454906 0.524836
H16_3 H 0.427007 0.488509 0.983822
C35_3 C 0.0437(2) 0.8274(2) 0.7368(5)
H24_3 H 0.052552 0.859188 0.734343
O25_2 O 0.33203(13) 0.44154(14) 0.9841(3)
C41_3 C 0.5595(3) 0.0054(5) 0.0481(8)
H33_3 H 0.560140 0.034017 0.086912
O16_3 O 0.62274(14) 0.03360(16) 0.7908(3)
N5_3 N 0.57766(17) 0.01436(18) 0.6576(4)
C37_3 C 0.6113(2) 0.0385(2) 0.7036(6)
H25_3 H 0.627710 0.061077 0.666667
C40_3 C 0.5692(3) 0.0210(3) 0.5498(6)
H30_3 H 0.536848 0.030543 0.539254
H32_3 H 0.590142 0.045094 0.524836
H35_3 H 0.572993 0.011491 0.983822
O26_2 O 0.66797(13) 0.05846(14) 0.9841(3)
C38_3 C 0.6200(3) 0.9459(3) 0.0486(7)
H26_3 H 0.638324 0.924211 0.083863
N6_3 N 0.5871(3) 0.9685(3) 0.0985(6)
H34_3 H 0.527253 0.994951 0.040507
C42_3 C 0.5807(3) 0.9644(5) 0.2079(7)
H36_3 H 0.552084 0.947074 0.221725
H37_3 H 0.578498 0.995572 0.236487
H38_3 H 0.607329 0.947946 0.236030
C14_3 C 0.9563(2) 0.6726(2) 0.7368(5)
H5_3 H 0.947448 0.640812 0.734343
O12_2 O 0.83203(13) 0.94154(14) 0.4841(3)
N4_3 N 0.91274(14) 0.83851(15) 0.7411(3)
O13_3 O 0.96991(14) 0.89486(15) 0.7368(4)
O14_3 O 0.85575(16) 0.78261(13) 0.7370(4)
C22_3 C 0.85691(17) 0.88752(16) 0.8320(4)
H20_3 H 0.866608 0.872820 0.890442
C23_3 C 0.98237(17) 0.76763(17) 0.7392(4)
C24_3 C 0.82180(16) 0.92161(16) 0.8339(4)
C25_3 C 0.80901(16) 0.94407(16) 0.7468(4)
H21_3 H 0.785556 0.967308 0.748054
C26_3 C 0.79775(18) 0.93310(16) 0.9303(4)
C27_3 C 0.81913(17) 0.95884(19) 0.5641(4)
C28_3 C 0.8975(2) 0.79120(19) 0.7390(4)
C29_3 C 0.87740(17) 0.87551(17) 0.7430(4)
C30_3 C 0.83026(16) 0.93268(17) 0.6590(4)
C31_3 C 0.86447(16) 0.89714(17) 0.6560(4)
H22_3 H 0.878308 0.888236 0.596026
C32_3 C 0.93429(18) 0.75479(19) 0.7382(4)
C33_3 C 0.99644(19) 0.81522(18) 0.7380(4)
C34_3 C 0.92179(19) 0.7079(2) 0.7393(4)
H23_3 H 0.889871 0.699458 0.741708
C36_3 C 0.9600(2) 0.8535(2) 0.7387(4)
O15_3 O 0.62914(15) 0.95050(17) 0.9603(4)
C39_3 C 0.5509(3) 0.9784(3) 0.7048(7)
H27_3 H 0.560028 0.976394 0.773439
H28_3 H 0.556893 0.948544 0.672773
H29_3 H 0.517750 0.985886 0.700287
H31_3 H 0.575077 0.991680 0.515605
N1_4 N 0.41274(14) 0.33851(15) 0.2411(3)
O5_4 O 0.46991(14) 0.39486(15) 0.2368(4)
O6_4 O 0.35575(16) 0.28261(13) 0.2370(4)
C1_4 C 0.35691(17) 0.38752(16) 0.3320(4)
H1_4 H 0.366608 0.372820 0.390442
O7_4 O 0.12914(15) 0.45050(17) 0.4603(4)
C2_4 C 0.48237(17) 0.26763(17) 0.2392(4)
C3_4 C 0.32180(16) 0.42161(16) 0.3339(4)
C4_4 C 0.30901(16) 0.44407(16) 0.2468(4)
H2_4 H 0.285556 0.467308 0.248054
C5_4 C 0.29775(18) 0.43310(16) 0.4303(4)
C6_4 C 0.31913(17) 0.45884(19) 0.0641(4)
C7_4 C 0.3975(2) 0.29120(19) 0.2390(4)
C8_4 C 0.37740(17) 0.37551(17) 0.2430(4)
C9_4 C 0.33026(16) 0.43268(17) 0.1590(4)
O8_4 O 0.12274(14) 0.53360(16) 0.2908(3)
C10_4 C 0.36447(16) 0.39714(17) 0.1560(4)
H3_4 H 0.378308 0.388236 0.096026
C11_4 C 0.43429(18) 0.25479(19) 0.2382(4)
C12_4 C 0.49644(19) 0.31522(18) 0.2380(4)
N2_4 N 0.07766(17) 0.51436(18) 0.1576(4)
C13_4 C 0.42179(19) 0.2079(2) 0.2393(4)
H4_4 H 0.389871 0.199458 0.241708
C14_4 C 0.5437(2) 0.3274(2) 0.2368(5)
H5_4 H 0.552552 0.359188 0.234343
C15_4 C 0.4600(2) 0.3535(2) 0.2387(4)
C16_4 C 0.1113(2) 0.5385(2) 0.2036(6)
H6_4 H 0.127710 0.561077 0.166667
C17_4 C 0.1200(3) 0.4459(3) 0.5486(7)
H7_4 H 0.138324 0.424211 0.583863
N3_4 N 0.0871(3) 0.4685(3) 0.5985(6)
C18_4 C 0.0509(3) 0.4784(3) 0.2048(7)
H8_4 H 0.060028 0.476394 0.273439
H9_4 H 0.056893 0.448544 0.172773
H10_4 H 0.017750 0.485886 0.200287
C19_4 C 0.0692(3) 0.5210(3) 0.0498(6)
H11_4 H 0.036848 0.530543 0.039254
H12_4 H 0.075077 0.491680 0.015605
H13_4 H 0.090142 0.545094 0.024836
C20_4 C 0.0595(3) 0.5054(5) 0.5481(8)
H14_4 H 0.060140 0.534017 0.586912
H15_4 H 0.027253 0.494951 0.540507
H16_4 H 0.072993 0.511491 0.483822
C21_4 C 0.0807(3) 0.4644(5) 0.7079(7)
H17_4 H 0.052084 0.447074 0.721725
H18_4 H 0.078498 0.495572 0.736487
H19_4 H 0.107329 0.447946 0.736030
N4_4 N 0.58726(14) 0.16149(15) 0.2411(3)
O13_4 O 0.53009(14) 0.10514(15) 0.2368(4)
O14_4 O 0.64425(16) 0.21739(13) 0.2370(4)
C22_4 C 0.64309(17) 0.11248(16) 0.3320(4)
H20_4 H 0.633392 0.127180 0.390442
C23_4 C 0.51763(17) 0.23237(17) 0.2392(4)
C24_4 C 0.67820(16) 0.07839(16) 0.3339(4)
C25_4 C 0.69099(16) 0.05593(16) 0.2468(4)
H21_4 H 0.714444 0.032692 0.248054
C26_4 C 0.70225(18) 0.06690(16) 0.4303(4)
C27_4 C 0.68087(17) 0.04116(19) 0.0641(4)
C28_4 C 0.6025(2) 0.20880(19) 0.2390(4)
C29_4 C 0.62260(17) 0.12449(17) 0.2430(4)
C30_4 C 0.66974(16) 0.06732(17) 0.1590(4)
C31_4 C 0.63553(16) 0.10286(17) 0.1560(4)
H22_4 H 0.621692 0.111764 0.096026
C32_4 C 0.56571(18) 0.24521(19) 0.2382(4)
C33_4 C 0.50356(19) 0.18478(18) 0.2380(4)
C34_4 C 0.57821(19) 0.2921(2) 0.2393(4)
H23_4 H 0.610129 0.300542 0.241708
C35_4 C 0.4563(2) 0.1726(2) 0.2368(5)
H24_4 H 0.447448 0.140812 0.234343
C36_4 C 0.5400(2) 0.1465(2) 0.2387(4)
O15_4 O 0.87086(15) 0.04950(17) 0.4603(4)
C38_4 C 0.8800(3) 0.0541(3) 0.5486(7)
H26_4 H 0.861676 0.075789 0.583863
N6_4 N 0.9129(3) 0.0315(3) 0.5985(6)
C39_4 C 0.9491(3) 0.0216(3) 0.2048(7)
H27_4 H 0.939972 0.023606 0.273439
H28_4 H 0.943107 0.051456 0.172773
H29_4 H 0.982250 0.014114 0.200287
H31_4 H 0.924923 0.008320 0.015605
H34_4 H 0.972747 0.005049 0.540507
C42_4 C 0.9193(3) 0.0356(5) 0.7079(7)
H36_4 H 0.947916 0.052926 0.721725
H37_4 H 0.921502 0.004428 0.736487
H38_4 H 0.892671 0.052054 0.736030
O16_4 O 0.87726(14) 0.96640(16) 0.2908(3)
N5_4 N 0.92234(17) 0.98564(18) 0.1576(4)
C37_4 C 0.8887(2) 0.9615(2) 0.2036(6)
H25_4 H 0.872290 0.938923 0.166667
C40_4 C 0.9308(3) 0.9790(3) 0.0498(6)
H30_4 H 0.963152 0.969457 0.039254
H32_4 H 0.909858 0.954906 0.024836
C41_4 C 0.9405(3) 0.9946(5) 0.5481(8)
H33_4 H 0.939860 0.965983 0.586912
H35_4 H 0.927007 0.988509 0.483822
Ca1_2 Ca 0.74602(4) 0.55999(3) 0.37757(8)
O1_3 O 0.67203(13) 0.43267(13) 0.2409(3)
O2_3 O 0.70261(11) 0.49275(11) 0.3227(2)
O3_2 O 0.74721(12) 0.45370(11) 0.6801(3)
O4_3 O 0.69154(14) 0.41797(13) 0.7659(3)
N1_5 N 0.58851(15) 0.33726(14) 0.5089(3)
O5_5 O 0.64486(15) 0.28009(14) 0.5132(4)
O6_5 O 0.53261(13) 0.39425(16) 0.5130(4)
C1_5 C 0.63752(16) 0.39309(17) 0.4180(4)
H1_5 H 0.622820 0.383392 0.359558
O7_5 O 0.70050(17) 0.62086(15) 0.2897(4)
C2_5 C 0.51763(17) 0.26763(17) 0.5108(4)
C3_5 C 0.67161(16) 0.42820(16) 0.4161(4)
C4_5 C 0.69407(16) 0.44099(16) 0.5032(4)
H2_5 H 0.717308 0.464444 0.501946
C5_5 C 0.68310(16) 0.45225(18) 0.3197(4)
C6_5 C 0.70884(19) 0.43087(17) 0.6859(4)
C7_5 C 0.54120(19) 0.3525(2) 0.5110(4)
C8_5 C 0.62551(17) 0.37260(17) 0.5070(4)
C9_5 C 0.68268(17) 0.41974(16) 0.5910(4)
O8_5 O 0.78360(16) 0.62726(14) 0.4592(3)
C10_5 C 0.64714(17) 0.38553(16) 0.5940(4)
H3_5 H 0.638236 0.371692 0.653974
C11_5 C 0.50479(19) 0.31571(18) 0.5118(4)
C12_5 C 0.56522(18) 0.25356(19) 0.5120(4)
N2_5 N 0.76436(18) 0.67234(17) 0.5924(4)
C13_5 C 0.4579(2) 0.32821(19) 0.5107(4)
H4_5 H 0.449458 0.360129 0.508292
C14_5 C 0.5774(2) 0.2063(2) 0.5132(5)
H5_5 H 0.609188 0.197448 0.515657
C15_5 C 0.6035(2) 0.2900(2) 0.5113(4)
C16_5 C 0.7885(2) 0.6387(2) 0.5464(6)
H6_5 H 0.811077 0.622290 0.583333
C17_5 C 0.6959(3) 0.6300(3) 0.2014(7)
H7_5 H 0.674211 0.611676 0.166137
N3_5 N 0.7185(3) 0.6629(3) 0.1515(6)
C18_5 C 0.7284(3) 0.6991(3) 0.5452(7)
H8_5 H 0.726394 0.689972 0.476561
H9_5 H 0.698544 0.693107 0.577227
H10_5 H 0.735886 0.732250 0.549713
C19_5 C 0.7710(3) 0.6808(3) 0.7002(6)
H11_5 H 0.780543 0.713152 0.710746
H12_5 H 0.741680 0.674923 0.734395
H13_5 H 0.795094 0.659858 0.725164
C20_5 C 0.7554(5) 0.6905(3) 0.2019(8)
H14_5 H 0.784017 0.689860 0.163088
H15_5 H 0.744951 0.722747 0.209493
H16_5 H 0.761491 0.677007 0.266178
C21_5 C 0.7144(5) 0.6693(3) 0.0421(7)
H17_5 H 0.697074 0.697916 0.028275
H18_5 H 0.745572 0.671502 0.013513
H19_5 H 0.697946 0.642671 0.013970
O9_3 O 0.32797(13) 0.06733(13) 0.2409(3)
O10_3 O 0.29739(11) 0.00725(11) 0.3227(2)
O11_2 O 0.25279(12) 0.04630(11) 0.6801(3)
O12_3 O 0.30846(14) 0.08203(13) 0.7659(3)
N4_5 N 0.41149(15) 0.16274(14) 0.5089(3)
O13_5 O 0.35514(15) 0.21991(14) 0.5132(4)
O14_5 O 0.46739(13) 0.10575(16) 0.5130(4)
C22_5 C 0.36248(16) 0.10691(17) 0.4180(4)
H20_5 H 0.377180 0.116608 0.359558
C23_5 C 0.48237(17) 0.23237(17) 0.5108(4)
C24_5 C 0.32839(16) 0.07180(16) 0.4161(4)
C25_5 C 0.30593(16) 0.05901(16) 0.5032(4)
H21_5 H 0.282692 0.035556 0.501946
C26_5 C 0.31690(16) 0.04775(18) 0.3197(4)
C27_5 C 0.29116(19) 0.06913(17) 0.6859(4)
C28_5 C 0.45880(19) 0.1475(2) 0.5110(4)
C29_5 C 0.37449(17) 0.12740(17) 0.5070(4)
C30_5 C 0.31732(17) 0.08026(16) 0.5910(4)
C31_5 C 0.35286(17) 0.11447(16) 0.5940(4)
H22_5 H 0.361764 0.128308 0.653974
C32_5 C 0.49521(19) 0.18429(18) 0.5118(4)
C33_5 C 0.43478(18) 0.24644(19) 0.5120(4)
C34_5 C 0.5421(2) 0.17179(19) 0.5107(4)
H23_5 H 0.550542 0.139871 0.508292
C35_5 C 0.4226(2) 0.2937(2) 0.5132(5)
H24_5 H 0.390812 0.302552 0.515657
C36_5 C 0.3965(2) 0.2100(2) 0.5113(4)
Ca3_2 Ca 0.75398(4) 0.44001(3) 0.87757(8)
Ca4_2 Ca 0.69001(3) 0.49602(4) 0.12757(8)
Ca5_2 Ca 0.80999(3) 0.50398(4) 0.62757(8)
Ca6_2 Ca 0.24602(4) 0.05999(3) 0.87757(8)
Ca8_2 Ca 0.30999(3) 0.00398(4) 0.12757(8)
O17_3 O 0.68267(13) 0.57797(13) 0.4909(3)
O19_3 O 0.74275(11) 0.54739(11) 0.5727(2)
O21_2 O 0.75279(12) 0.54630(11) 0.1801(3)
O22_3 O 0.79630(11) 0.49721(12) 0.4301(3)
O24_3 O 0.20370(11) 0.00279(12) 0.4301(3)
O25_3 O 0.80846(14) 0.58203(13) 0.2659(3)
Ca2_2 Ca 0.25398(4) 0.94001(3) 0.37757(8)
O15_5 O 0.29950(17) 0.87914(15) 0.2897(4)
O16_5 O 0.21640(16) 0.87274(14) 0.4592(3)
N5_5 N 0.23564(18) 0.82766(17) 0.5924(4)
C37_5 C 0.2115(2) 0.8613(2) 0.5464(6)
H25_5 H 0.188923 0.877710 0.583333
C38_5 C 0.3041(3) 0.8700(3) 0.2014(7)
H26_5 H 0.325789 0.888324 0.166137
N6_5 N 0.2815(3) 0.8371(3) 0.1515(6)
C39_5 C 0.2716(3) 0.8009(3) 0.5452(7)
H27_5 H 0.273606 0.810028 0.476561
H28_5 H 0.301456 0.806893 0.577227
H29_5 H 0.264114 0.767750 0.549713
C40_5 C 0.2290(3) 0.8192(3) 0.7002(6)
H30_5 H 0.219457 0.786848 0.710746
H31_5 H 0.258320 0.825077 0.734395
H32_5 H 0.204906 0.840142 0.725164
C41_5 C 0.2446(5) 0.8095(3) 0.2019(8)
H33_5 H 0.215983 0.810140 0.163088
H34_5 H 0.255049 0.777253 0.209493
H35_5 H 0.238509 0.822993 0.266178
C42_5 C 0.2856(5) 0.8307(3) 0.0421(7)
H36_5 H 0.302926 0.802084 0.028275
H37_5 H 0.254428 0.828498 0.013513
H38_5 H 0.302054 0.857329 0.013970
Ca7_2 Ca 0.19001(3) 0.99602(4) 0.62757(8)
O18_3 O 0.31733(13) 0.92203(13) 0.4909(3)
O20_3 O 0.25725(11) 0.95261(11) 0.5727(2)
O23_2 O 0.24721(12) 0.95370(11) 0.1801(3)
O26_3 O 0.19154(14) 0.91797(13) 0.2659(3)
N5_6 N 0.26436(18) 0.17234(17) 0.0924(4)
C37_6 C 0.2885(2) 0.1387(2) 0.0464(6)
H25_6 H 0.311077 0.122290 0.083333
C39_6 C 0.2284(3) 0.1991(3) 0.0452(7)
H28_6 H 0.198544 0.193107 0.077227
H29_6 H 0.235886 0.232250 0.049713
C40_6 C 0.2710(3) 0.1808(3) 0.2002(6)
H30_6 H 0.280543 0.213152 0.210746
H31_6 H 0.241680 0.174923 0.234395
H32_6 H 0.295094 0.159858 0.225164
O20_4 O 0.24275(11) 0.04739(11) 0.0727(2)
O15_6 O 0.20050(17) 0.12086(15) 0.7897(4)
O16_6 O 0.28360(16) 0.12726(14) 0.9592(3)
C38_6 C 0.1959(3) 0.1300(3) 0.7014(7)
H26_6 H 0.174211 0.111676 0.666137
N6_6 N 0.2185(3) 0.1629(3) 0.6515(6)
H27_6 H 0.226394 0.189972 0.976561
C41_6 C 0.2554(5) 0.1905(3) 0.7019(8)
H33_6 H 0.284017 0.189860 0.663088
H34_6 H 0.244951 0.222747 0.709493
H35_6 H 0.261491 0.177007 0.766178
C42_6 C 0.2144(5) 0.1693(3) 0.5421(7)
H36_6 H 0.197074 0.197916 0.528275
H37_6 H 0.245572 0.171502 0.513513
H38_6 H 0.197946 0.142671 0.513970
O18_4 O 0.18267(13) 0.07797(13) 0.9909(3)
C13_6 C 0.0421(2) 0.67179(19) 0.0107(4)
H4_6 H 0.050542 0.639871 0.008292
N4_6 N 0.08851(15) 0.83726(14) 0.0089(3)
O13_6 O 0.14486(15) 0.78009(14) 0.0132(4)
O14_6 O 0.03261(13) 0.89425(16) 0.0130(4)
C23_6 C 0.01763(17) 0.76763(17) 0.0108(4)
C25_6 C 0.19407(16) 0.94099(16) 0.0032(4)
H21_6 H 0.217308 0.964444 0.001946
C27_6 C 0.20884(19) 0.93087(17) 0.1859(4)
C28_6 C 0.04120(19) 0.8525(2) 0.0110(4)
C29_6 C 0.12551(17) 0.87260(17) 0.0070(4)
C30_6 C 0.18268(17) 0.91974(16) 0.0910(4)
C31_6 C 0.14714(17) 0.88553(16) 0.0940(4)
H22_6 H 0.138236 0.871692 0.153974
C32_6 C 0.00479(19) 0.81571(18) 0.0118(4)
C33_6 C 0.06522(18) 0.75356(19) 0.0120(4)
C35_6 C 0.0774(2) 0.7063(2) 0.0132(5)
H24_6 H 0.109188 0.697448 0.015657
C36_6 C 0.1035(2) 0.7900(2) 0.0113(4)
O9_4 O 0.17203(13) 0.93267(13) 0.7409(3)
O10_4 O 0.20261(11) 0.99275(11) 0.8227(2)
C22_6 C 0.13752(16) 0.89309(17) 0.9180(4)
H20_6 H 0.122820 0.883392 0.859558
C24_6 C 0.17161(16) 0.92820(16) 0.9161(4)
C26_6 C 0.18310(16) 0.95225(18) 0.8197(4)
O24_4 O 0.29630(11) 0.99721(12) 0.9301(3)
N1_6 N 0.91149(15) 0.66274(14) 0.0089(3)
O5_6 O 0.85514(15) 0.71991(14) 0.0132(4)
O6_6 O 0.96739(13) 0.60575(16) 0.0130(4)
C2_6 C 0.98237(17) 0.73237(17) 0.0108(4)
C4_6 C 0.80593(16) 0.55901(16) 0.0032(4)
H2_6 H 0.782692 0.535556 0.001946
C6_6 C 0.79116(19) 0.56913(17) 0.1859(4)
C7_6 C 0.95880(19) 0.6475(2) 0.0110(4)
C8_6 C 0.87449(17) 0.62740(17) 0.0070(4)
C9_6 C 0.81732(17) 0.58026(16) 0.0910(4)
C10_6 C 0.85286(17) 0.61447(16) 0.0940(4)
H3_6 H 0.861764 0.628308 0.153974
C11_6 C 0.99521(19) 0.68429(18) 0.0118(4)
C12_6 C 0.93478(18) 0.74644(19) 0.0120(4)
N2_6 N 0.73564(18) 0.32766(17) 0.0924(4)
C14_6 C 0.9226(2) 0.7937(2) 0.0132(5)
H5_6 H 0.890812 0.802552 0.015657
C15_6 C 0.8965(2) 0.7100(2) 0.0113(4)
C16_6 C 0.7115(2) 0.3613(2) 0.0464(6)
H6_6 H 0.688923 0.377710 0.083333
C18_6 C 0.7716(3) 0.3009(3) 0.0452(7)
H9_6 H 0.801456 0.306893 0.077227
H10_6 H 0.764114 0.267750 0.049713
C19_6 C 0.7290(3) 0.3192(3) 0.2002(6)
H11_6 H 0.719457 0.286848 0.210746
H12_6 H 0.758320 0.325077 0.234395
H13_6 H 0.704906 0.340142 0.225164
C34_6 C 0.9579(2) 0.82821(19) 0.0107(4)
H23_6 H 0.949458 0.860129 0.008292
O19_4 O 0.75725(11) 0.45261(11) 0.0727(2)
O1_4 O 0.82797(13) 0.56733(13) 0.7409(3)
O2_4 O 0.79739(11) 0.50725(11) 0.8227(2)
C1_6 C 0.86248(16) 0.60691(17) 0.9180(4)
H1_6 H 0.877180 0.616608 0.859558
O7_6 O 0.79950(17) 0.37914(15) 0.7897(4)
C3_6 C 0.82839(16) 0.57180(16) 0.9161(4)
C5_6 C 0.81690(16) 0.54775(18) 0.8197(4)
O8_6 O 0.71640(16) 0.37274(14) 0.9592(3)
C17_6 C 0.8041(3) 0.3700(3) 0.7014(7)
H7_6 H 0.825789 0.388324 0.666137
N3_6 N 0.7815(3) 0.3371(3) 0.6515(6)
H8_6 H 0.773606 0.310028 0.976561
C20_6 C 0.7446(5) 0.3095(3) 0.7019(8)
H14_6 H 0.715983 0.310140 0.663088
H15_6 H 0.755049 0.277253 0.709493
H16_6 H 0.738509 0.322993 0.766178
C21_6 C 0.7856(5) 0.3307(3) 0.5421(7)
H17_6 H 0.802926 0.302084 0.528275
H18_6 H 0.754428 0.328498 0.513513
H19_6 H 0.802054 0.357329 0.513970
O17_4 O 0.81733(13) 0.42203(13) 0.9909(3)
O22_4 O 0.70370(11) 0.50279(12) 0.9301(3)
C14_7 C 0.0437(2) 0.3274(2) 0.2632(5)
H5_7 H 0.052552 0.359188 0.265657
O12_4 O 0.16797(13) 0.05846(14) 0.5159(3)
N4_7 N 0.08726(14) 0.16149(15) 0.2589(3)
O13_7 O 0.03009(14) 0.10514(15) 0.2632(4)
O14_7 O 0.14425(16) 0.21739(13) 0.2630(4)
C22_7 C 0.14309(17) 0.11248(16) 0.1680(4)
H20_7 H 0.133392 0.127180 0.109558
C23_7 C 0.01763(17) 0.23237(17) 0.2608(4)
C24_7 C 0.17820(16) 0.07839(16) 0.1661(4)
C25_7 C 0.19099(16) 0.05593(16) 0.2532(4)
H21_7 H 0.214444 0.032692 0.251946
C26_7 C 0.20225(18) 0.06690(16) 0.0697(4)
C27_7 C 0.18087(17) 0.04116(19) 0.4359(4)
C28_7 C 0.1025(2) 0.20880(19) 0.2610(4)
C29_7 C 0.12260(17) 0.12449(17) 0.2570(4)
C30_7 C 0.16974(16) 0.06732(17) 0.3410(4)
C31_7 C 0.13553(16) 0.10286(17) 0.3440(4)
H22_7 H 0.121692 0.111764 0.403974
C32_7 C 0.06571(18) 0.24521(19) 0.2618(4)
C33_7 C 0.00356(19) 0.18478(18) 0.2620(4)
C34_7 C 0.07821(19) 0.2921(2) 0.2607(4)
H23_7 H 0.110129 0.300542 0.258292
C36_7 C 0.0400(2) 0.1465(2) 0.2613(4)
O15_7 O 0.37086(15) 0.04950(17) 0.0397(4)
C39_7 C 0.4491(3) 0.0216(3) 0.2952(7)
H27_7 H 0.439972 0.023606 0.226561
H28_7 H 0.443107 0.051456 0.327227
H29_7 H 0.482250 0.014114 0.299713
H31_7 H 0.424923 0.008320 0.484395
C38_7 C 0.3800(3) 0.0541(3) 0.9514(7)
H26_7 H 0.361676 0.075789 0.916137
N6_7 N 0.4129(3) 0.0315(3) 0.9015(6)
H34_7 H 0.472747 0.005049 0.959493
C42_7 C 0.4193(3) 0.0356(5) 0.7921(7)
H36_7 H 0.447916 0.052926 0.778275
H37_7 H 0.421502 0.004428 0.763513
H38_7 H 0.392671 0.052054 0.763970
O16_7 O 0.37726(14) 0.96640(16) 0.2092(3)
N5_7 N 0.42234(17) 0.98564(18) 0.3424(4)
C37_7 C 0.3887(2) 0.9615(2) 0.2964(6)
H25_7 H 0.372290 0.938923 0.333333
C40_7 C 0.4308(3) 0.9790(3) 0.4502(6)
H30_7 H 0.463152 0.969457 0.460746
H32_7 H 0.409858 0.954906 0.475164
H35_7 H 0.427007 0.988509 0.016178
O26_4 O 0.33203(13) 0.94154(14) 0.0159(3)
C41_7 C 0.4405(3) 0.9946(5) 0.9519(8)
H33_7 H 0.439860 0.965983 0.913088
O4_4 O 0.83203(13) 0.44154(14) 0.5159(3)
N1_7 N 0.91274(14) 0.33851(15) 0.2589(3)
O5_7 O 0.96991(14) 0.39486(15) 0.2632(4)
O6_7 O 0.85575(16) 0.28261(13) 0.2630(4)
C1_7 C 0.85691(17) 0.38752(16) 0.1680(4)
H1_7 H 0.866608 0.372820 0.109558
O7_7 O 0.62914(15) 0.45050(17) 0.0397(4)
C2_7 C 0.98237(17) 0.26763(17) 0.2608(4)
C3_7 C 0.82180(16) 0.42161(16) 0.1661(4)
C4_7 C 0.80901(16) 0.44407(16) 0.2532(4)
H2_7 H 0.785556 0.467308 0.251946
C5_7 C 0.79775(18) 0.43310(16) 0.0697(4)
C6_7 C 0.81913(17) 0.45884(19) 0.4359(4)
C7_7 C 0.8975(2) 0.29120(19) 0.2610(4)
C8_7 C 0.87740(17) 0.37551(17) 0.2570(4)
C9_7 C 0.83026(16) 0.43268(17) 0.3410(4)
O8_7 O 0.62274(14) 0.53360(16) 0.2092(3)
C10_7 C 0.86447(16) 0.39714(17) 0.3440(4)
H3_7 H 0.878308 0.388236 0.403974
C11_7 C 0.93429(18) 0.25479(19) 0.2618(4)
C12_7 C 0.99644(19) 0.31522(18) 0.2620(4)
N2_7 N 0.57766(17) 0.51436(18) 0.3424(4)
C13_7 C 0.92179(19) 0.2079(2) 0.2607(4)
H4_7 H 0.889871 0.199458 0.258292
C15_7 C 0.9600(2) 0.3535(2) 0.2613(4)
C16_7 C 0.6113(2) 0.5385(2) 0.2964(6)
H6_7 H 0.627710 0.561077 0.333333
C18_7 C 0.5509(3) 0.4784(3) 0.2952(7)
H8_7 H 0.560028 0.476394 0.226561
H9_7 H 0.556893 0.448544 0.327227
H10_7 H 0.517750 0.485886 0.299713
C19_7 C 0.5692(3) 0.5210(3) 0.4502(6)
H11_7 H 0.536848 0.530543 0.460746
H12_7 H 0.575077 0.491680 0.484395
H13_7 H 0.590142 0.545094 0.475164
H16_7 H 0.572993 0.511491 0.016178
C35_7 C 0.9563(2) 0.1726(2) 0.2632(5)
H24_7 H 0.947448 0.140812 0.265657
O25_4 O 0.66797(13) 0.55846(14) 0.0159(3)
C17_7 C 0.6200(3) 0.4459(3) 0.9514(7)
H7_7 H 0.638324 0.424211 0.916137
N3_7 N 0.5871(3) 0.4685(3) 0.9015(6)
C20_7 C 0.5595(3) 0.5054(5) 0.9519(8)
H14_7 H 0.560140 0.534017 0.913088
H15_7 H 0.527253 0.494951 0.959493
C21_7 C 0.5807(3) 0.4644(5) 0.7921(7)
H17_7 H 0.552084 0.447074 0.778275
H18_7 H 0.578498 0.495572 0.763513
H19_7 H 0.607329 0.447946 0.763970
O16_8 O 0.12274(14) 0.03360(16) 0.7092(3)
N5_8 N 0.07766(17) 0.01436(18) 0.8424(4)
C37_8 C 0.1113(2) 0.0385(2) 0.7964(6)
H25_8 H 0.127710 0.061077 0.833333
C40_8 C 0.0692(3) 0.0210(3) 0.9502(6)
H30_8 H 0.036848 0.030543 0.960746
H32_8 H 0.090142 0.045094 0.975164
C41_8 C 0.0595(3) 0.0054(5) 0.4519(8)
H33_8 H 0.060140 0.034017 0.413088
H35_8 H 0.072993 0.011491 0.516178
N1_8 N 0.58726(14) 0.66149(15) 0.7589(3)
O5_8 O 0.53009(14) 0.60514(15) 0.7632(4)
O6_8 O 0.64425(16) 0.71739(13) 0.7630(4)
C1_8 C 0.64309(17) 0.61248(16) 0.6680(4)
H1_8 H 0.633392 0.627180 0.609558
O7_8 O 0.87086(15) 0.54950(17) 0.5397(4)
C2_8 C 0.51763(17) 0.73237(17) 0.7608(4)
C3_8 C 0.67820(16) 0.57839(16) 0.6661(4)
C4_8 C 0.69099(16) 0.55593(16) 0.7532(4)
H2_8 H 0.714444 0.532692 0.751946
C5_8 C 0.70225(18) 0.56690(16) 0.5697(4)
C6_8 C 0.68087(17) 0.54116(19) 0.9359(4)
C7_8 C 0.6025(2) 0.70880(19) 0.7610(4)
C8_8 C 0.62260(17) 0.62449(17) 0.7570(4)
C9_8 C 0.66974(16) 0.56732(17) 0.8410(4)
O8_8 O 0.87726(14) 0.46640(16) 0.7092(3)
C10_8 C 0.63553(16) 0.60286(17) 0.8440(4)
H3_8 H 0.621692 0.611764 0.903974
C11_8 C 0.56571(18) 0.74521(19) 0.7618(4)
C12_8 C 0.50356(19) 0.68478(18) 0.7620(4)
N2_8 N 0.92234(17) 0.48564(18) 0.8424(4)
C13_8 C 0.57821(19) 0.7921(2) 0.7607(4)
H4_8 H 0.610129 0.800542 0.758292
C14_8 C 0.4563(2) 0.6726(2) 0.7632(5)
H5_8 H 0.447448 0.640812 0.765657
C15_8 C 0.5400(2) 0.6465(2) 0.7613(4)
C16_8 C 0.8887(2) 0.4615(2) 0.7964(6)
H6_8 H 0.872290 0.438923 0.833333
C17_8 C 0.8800(3) 0.5541(3) 0.4514(7)
H7_8 H 0.861676 0.575789 0.416137
N3_8 N 0.9129(3) 0.5315(3) 0.4015(6)
C18_8 C 0.9491(3) 0.5216(3) 0.7952(7)
H8_8 H 0.939972 0.523606 0.726561
H9_8 H 0.943107 0.551456 0.827227
H10_8 H 0.982250 0.514114 0.799713
C19_8 C 0.9308(3) 0.4790(3) 0.9502(6)
H11_8 H 0.963152 0.469457 0.960746
H12_8 H 0.924923 0.508320 0.984395
H13_8 H 0.909858 0.454906 0.975164
C20_8 C 0.9405(3) 0.4946(5) 0.4519(8)
H14_8 H 0.939860 0.465983 0.413088
H15_8 H 0.972747 0.505049 0.459493
H16_8 H 0.927007 0.488509 0.516178
C21_8 C 0.9193(3) 0.5356(5) 0.2921(7)
H17_8 H 0.947916 0.552926 0.278275
H18_8 H 0.921502 0.504428 0.263513
H19_8 H 0.892671 0.552054 0.263970
N4_8 N 0.41274(14) 0.83851(15) 0.7589(3)
O13_8 O 0.46991(14) 0.89486(15) 0.7632(4)
O14_8 O 0.35575(16) 0.78261(13) 0.7630(4)
C22_8 C 0.35691(17) 0.88752(16) 0.6680(4)
H20_8 H 0.366608 0.872820 0.609558
C23_8 C 0.48237(17) 0.76763(17) 0.7608(4)
C24_8 C 0.32180(16) 0.92161(16) 0.6661(4)
C25_8 C 0.30901(16) 0.94407(16) 0.7532(4)
H21_8 H 0.285556 0.967308 0.751946
C26_8 C 0.29775(18) 0.93310(16) 0.5697(4)
C27_8 C 0.31913(17) 0.95884(19) 0.9359(4)
C28_8 C 0.3975(2) 0.79120(19) 0.7610(4)
C29_8 C 0.37740(17) 0.87551(17) 0.7570(4)
C30_8 C 0.33026(16) 0.93268(17) 0.8410(4)
C31_8 C 0.36447(16) 0.89714(17) 0.8440(4)
H22_8 H 0.378308 0.888236 0.903974
C32_8 C 0.43429(18) 0.75479(19) 0.7618(4)
C33_8 C 0.49644(19) 0.81522(18) 0.7620(4)
C34_8 C 0.42179(19) 0.7079(2) 0.7607(4)
H23_8 H 0.389871 0.699458 0.758292
C35_8 C 0.5437(2) 0.8274(2) 0.7632(5)
H24_8 H 0.552552 0.859188 0.765657
C36_8 C 0.4600(2) 0.8535(2) 0.7613(4)
O15_8 O 0.12914(15) 0.95050(17) 0.5397(4)
C38_8 C 0.1200(3) 0.9459(3) 0.4514(7)
H26_8 H 0.138324 0.924211 0.416137
N6_8 N 0.0871(3) 0.9685(3) 0.4015(6)
C39_8 C 0.0509(3) 0.9784(3) 0.7952(7)
H27_8 H 0.060028 0.976394 0.726561
H28_8 H 0.056893 0.948544 0.827227
H29_8 H 0.017750 0.985886 0.799713
H31_8 H 0.075077 0.991680 0.984395
H34_8 H 0.027253 0.994951 0.459493
C42_8 C 0.0807(3) 0.9644(5) 0.2921(7)
H36_8 H 0.052084 0.947074 0.278275
H37_8 H 0.078498 0.995572 0.263513
H38_8 H 0.107329 0.947946 0.263970
loop_
_geom_bond_atom_site_label_1
_geom_bond_atom_site_label_2
_geom_bond_site_symmetry_1
_geom_bond_site_symmetry_2
O15 Ca2 1_555 1_555
O16 Ca2 1_555 1_555
N5 C37 1_555 1_555
C37 O16 1_555 1_555
H25 C37 1_555 1_555
C38 O15 1_555 1_555
H26 C38 1_555 1_555
N6 C38 1_555 1_555
C39 N5 1_555 1_555
H27 C39 1_555 1_555
H28 C39 1_555 1_555
H29 C39 1_555 1_555
C40 N5 1_555 1_555
H30 C40 1_555 1_555
H31 C40 1_555 1_555
H32 C40 1_555 1_555
C41 N6 1_555 1_555
H33 C41 1_555 1_555
H34 C41 1_555 1_555
H35 C41 1_555 1_555
C42 N6 1_555 1_555
H36 C42 1_555 1_555
H37 C42 1_555 1_555
H38 C42 1_555 1_555
O18 Ca2 1_555 1_555
O20 Ca2 1_555 1_555
O23 Ca2 1_555 1_555
O26 Ca2 1_555 1_555
Ca7 O20 1_555 1_555
Ca1 O2 1_555 1_555
O1 C5 1_555 1_555
O2 C5 1_555 1_555
O3 C6 1_555 1_555
O4 C6 1_555 1_555
N1 C7 1_555 1_555
O5 C15 1_555 1_555
O6 C7 1_555 1_555
C1 H1 1_555 1_555
O7 Ca1 1_555 1_555
C2 C11 1_555 1_555
C3 C1 1_555 1_555
C4 C3 1_555 1_555
H2 C4 1_555 1_555
C5 C3 1_555 1_555
C6 C9 1_555 1_555
C7 C11 1_555 1_555
C8 N1 1_555 1_555
C9 C4 1_555 1_555
O8 Ca1 1_555 1_555
C10 C8 1_555 1_555
H3 C10 1_555 1_555
C11 C13 1_555 1_555
C12 C2 1_555 1_555
N2 C16 1_555 1_555
C13 H4 1_555 1_555
C14 C12 1_555 1_555
H5 C14 1_555 1_555
C15 N1 1_555 1_555
C16 O8 1_555 1_555
H6 C16 1_555 1_555
C17 O7 1_555 1_555
H7 C17 1_555 1_555
N3 C17 1_555 1_555
C18 N2 1_555 1_555
H8 C18 1_555 1_555
H9 C18 1_555 1_555
H10 C18 1_555 1_555
C19 N2 1_555 1_555
H11 C19 1_555 1_555
H12 C19 1_555 1_555
H13 C19 1_555 1_555
C20 N3 1_555 1_555
H14 C20 1_555 1_555
H15 C20 1_555 1_555
H16 C20 1_555 1_555
C21 N3 1_555 1_555
H17 C21 1_555 1_555
H18 C21 1_555 1_555
H19 C21 1_555 1_555
O9 C26 1_555 1_555
O10 C26 1_555 1_555
O11 C27 1_555 1_555
O12 C27 1_555 1_555
N4 C28 1_555 1_555
O13 C36 1_555 1_555
O14 C28 1_555 1_555
C22 H20 1_555 1_555
C23 C2 1_555 1_555
C24 C22 1_555 1_555
C25 C24 1_555 1_555
H21 C25 1_555 1_555
C26 C24 1_555 1_555
C27 C30 1_555 1_555
C28 C32 1_555 1_555
C29 N4 1_555 1_555
C30 C25 1_555 1_555
C31 C29 1_555 1_555
H22 C31 1_555 1_555
C32 C23 1_555 1_555
C33 C23 1_555 1_555
C34 C14 1_555 1_555
H23 C34 1_555 1_555
C35 C13 1_555 1_555
H24 C35 1_555 1_555
C36 N4 1_555 1_555
Ca3 O3 1_555 1_555
Ca4 O1 1_555 1_555
Ca5 O3 1_555 1_555
Ca6 O11 1_555 1_555
Ca8 O9 1_555 1_555
O17 Ca1 1_555 1_555
O19 Ca1 1_555 1_555
O21 Ca1 1_555 1_555
O22 Ca1 1_555 1_555
O25 Ca1 1_555 1_555
O2 Ca4 1_555 1_555
O4 Ca3 1_555 1_555
C1 C8 1_555 1_555
C9 C10 1_555 1_555
C12 C15 1_555 1_555
O10 Ca8 1_555 1_555
O12 Ca6 1_555 1_555
C22 C29 1_555 1_555
C30 C31 1_555 1_555
C32 C34 1_555 1_555
C33 C35 1_555 1_555
C33 C36 1_555 1_555
Ca4 O21 1_555 1_555
Ca5 O19 1_555 1_555
Ca5 O22 1_555 1_555
Ca3 O2_2 1_555 1_555
O1_2 C5_2 1_555 1_555
O2_2 C5_2 1_555 1_555
C1_2 H1_2 1_555 1_555
O7_2 Ca3 1_555 1_555
C3_2 C1_2 1_555 1_555
C5_2 C3_2 1_555 1_555
O8_2 Ca3 1_555 1_555
C17_2 O7_2 1_555 1_555
H7_2 C17_2 1_555 1_555
N3_2 C17_2 1_555 1_555
C20_2 N3_2 1_555 1_555
H14_2 C20_2 1_555 1_555
H15_2 C20_2 1_555 1_555
H16_2 C20_2 1_555 1_555
C21_2 N3_2 1_555 1_555
H17_2 C21_2 1_555 1_555
H18_2 C21_2 1_555 1_555
H19_2 C21_2 1_555 1_555
Ca5 O1_2 1_555 1_555
O17_2 Ca3 1_555 1_555
O22_2 Ca3 1_555 1_555
O2_2 Ca5 1_555 1_555
O21 C6_2 1_555 1_555
O25 C6_2 1_555 1_555
N1_2 C7_2 1_555 1_555
O5_2 C15_2 1_555 1_555
O6_2 C7_2 1_555 1_555
C2_2 C11_2 1_555 1_555
H2_2 C4_2 1_555 1_555
C6_2 C9_2 1_555 1_555
C7_2 C11_2 1_555 1_555
C8_2 N1_2 1_555 1_555
C9_2 C4_2 1_555 1_555
C10_2 C8_2 1_555 1_555
H3_2 C10_2 1_555 1_555
C12_2 C2_2 1_555 1_555
N2_2 C16_2 1_555 1_555
C14_2 C12_2 1_555 1_555
H5_2 C14_2 1_555 1_555
C15_2 N1_2 1_555 1_555
H6_2 C16_2 1_555 1_555
C18_2 N2_2 1_555 1_555
H9_2 C18_2 1_555 1_555
H10_2 C18_2 1_555 1_555
C19_2 N2_2 1_555 1_555
H11_2 C19_2 1_555 1_555
H12_2 C19_2 1_555 1_555
H13_2 C19_2 1_555 1_555
C34_2 C14_2 1_555 1_555
H23_2 C34_2 1_555 1_555
C9_2 C10_2 1_555 1_555
C12_2 C15_2 1_555 1_555
Ca4 O19_2 1_555 1_555
O9_2 C26_2 1_555 1_555
O10_2 C26_2 1_555 1_555
C22_2 H20_2 1_555 1_555
C24_2 C22_2 1_555 1_555
C26_2 C24_2 1_555 1_555
Ca7 O9_2 1_555 1_555
O10_2 Ca7 1_555 1_555
C13_2 H4_2 1_555 1_555
O23 C27_2 1_555 1_555
O26 C27_2 1_555 1_555
N4_2 C28_2 1_555 1_555
O13_2 C36_2 1_555 1_555
O14_2 C28_2 1_555 1_555
H21_2 C25_2 1_555 1_555
C27_2 C30_2 1_555 1_555
C28_2 C32_2 1_555 1_555
C29_2 N4_2 1_555 1_555
C30_2 C25_2 1_555 1_555
C31_2 C29_2 1_555 1_555
H22_2 C31_2 1_555 1_555
C32_2 C23_2 1_555 1_555
C33_2 C23_2 1_555 1_555
C35_2 C13_2 1_555 1_555
H24_2 C35_2 1_555 1_555
C36_2 N4_2 1_555 1_555
C30_2 C31_2 1_555 1_555
C33_2 C35_2 1_555 1_555
C33_2 C36_2 1_555 1_555
O15_2 Ca6 1_555 1_555
O16_2 Ca6 1_555 1_555
C38_2 O15_2 1_555 1_555
H26_2 C38_2 1_555 1_555
N6_2 C38_2 1_555 1_555
C41_2 N6_2 1_555 1_555
H33_2 C41_2 1_555 1_555
H34_2 C41_2 1_555 1_555
H35_2 C41_2 1_555 1_555
C42_2 N6_2 1_555 1_555
H36_2 C42_2 1_555 1_555
H37_2 C42_2 1_555 1_555
H38_2 C42_2 1_555 1_555
O18_2 Ca6 1_555 1_555
N5_2 C37_2 1_555 1_555
H25_2 C37_2 1_555 1_555
C39_2 N5_2 1_555 1_555
H28_2 C39_2 1_555 1_555
H29_2 C39_2 1_555 1_555
C40_2 N5_2 1_555 1_555
H30_2 C40_2 1_555 1_555
H31_2 C40_2 1_555 1_555
H32_2 C40_2 1_555 1_555
Ca8 O20_2 1_555 1_555
H7_3 C17_3 1_555 1_555
N3_3 C17_3 1_555 1_555
C20_3 N3_3 1_555 1_555
H14_3 C20_3 1_555 1_555
H15_3 C20_3 1_555 1_555
C21_3 N3_3 1_555 1_555
H17_3 C21_3 1_555 1_555
H18_3 C21_3 1_555 1_555
H19_3 C21_3 1_555 1_555
O19_2 C5_3 1_555 1_555
O22 C6_3 1_555 1_555
O4_2 C6_3 1_555 1_555
N1_3 C7_3 1_555 1_555
O5_3 C15_3 1_555 1_555
O6_3 C7_3 1_555 1_555
C1_3 H1_3 1_555 1_555
O7_3 Ca4 1_555 1_555
C2_3 C11_3 1_555 1_555
C3_3 C1_3 1_555 1_555
C4_3 C3_3 1_555 1_555
H2_3 C4_3 1_555 1_555
C5_3 C3_3 1_555 1_555
C6_3 C9_3 1_555 1_555
C7_3 C11_3 1_555 1_555
C8_3 N1_3 1_555 1_555
C9_3 C4_3 1_555 1_555
O8_3 Ca4 1_555 1_555
C10_3 C8_3 1_555 1_555
H3_3 C10_3 1_555 1_555
C11_3 C13_3 1_555 1_555
C12_3 C2_3 1_555 1_555
N2_3 C16_3 1_555 1_555
C13_3 H4_3 1_555 1_555
C15_3 N1_3 1_555 1_555
C16_3 O8_3 1_555 1_555
H6_3 C16_3 1_555 1_555
C18_3 N2_3 1_555 1_555
H8_3 C18_3 1_555 1_555
H9_3 C18_3 1_555 1_555
H10_3 C18_3 1_555 1_555
C19_3 N2_3 1_555 1_555
H11_3 C19_3 1_555 1_555
H12_3 C19_3 1_555 1_555
H13_3 C19_3 1_555 1_555
C35_3 C13_3 1_555 1_555
H24_3 C35_3 1_555 1_555
O25_2 Ca4 1_555 1_555
O4_2 Ca5 1_555 1_555
C1_3 C8_3 1_555 1_555
C9_3 C10_3 1_555 1_555
C12_3 C15_3 1_555 1_555
H33_3 C41_3 1_555 1_555
N5_3 C37_3 1_555 1_555
C37_3 O16_3 1_555 1_555
H25_3 C37_3 1_555 1_555
C40_3 N5_3 1_555 1_555
H30_3 C40_3 1_555 1_555
H32_3 C40_3 1_555 1_555
H26_3 C38_3 1_555 1_555
N6_3 C38_3 1_555 1_555
C42_3 N6_3 1_555 1_555
H36_3 C42_3 1_555 1_555
H37_3 C42_3 1_555 1_555
H38_3 C42_3 1_555 1_555
H5_3 C14_3 1_555 1_555
O20_2 C26_3 1_555 1_555
O24 C27_3 1_555 1_555
O12_2 C27_3 1_555 1_555
N4_3 C28_3 1_555 1_555
O13_3 C36_3 1_555 1_555
O14_3 C28_3 1_555 1_555
C22_3 H20_3 1_555 1_555
C24_3 C22_3 1_555 1_555
C25_3 C24_3 1_555 1_555
H21_3 C25_3 1_555 1_555
C26_3 C24_3 1_555 1_555
C27_3 C30_3 1_555 1_555
C28_3 C32_3 1_555 1_555
C29_3 N4_3 1_555 1_555
C30_3 C25_3 1_555 1_555
C31_3 C29_3 1_555 1_555
H22_3 C31_3 1_555 1_555
C32_3 C23_3 1_555 1_555
C33_3 C23_3 1_555 1_555
C34_3 C14_3 1_555 1_555
H23_3 C34_3 1_555 1_555
C36_3 N4_3 1_555 1_555
O15_3 Ca8 1_555 1_555
H27_3 C39_3 1_555 1_555
H28_3 C39_3 1_555 1_555
H29_3 C39_3 1_555 1_555
C22_3 C29_3 1_555 1_555
C30_3 C31_3 1_555 1_555
C32_3 C34_3 1_555 1_555
C33_3 C36_3 1_555 1_555
O17 C5_4 1_555 1_555
O19 C5_4 1_555 1_555
O22_2 C6_4 1_555 1_555
N1_4 C7_4 1_555 1_555
O5_4 C15_4 1_555 1_555
O6_4 C7_4 1_555 1_555
C1_4 H1_4 1_555 1_555
O7_4 Ca5 1_555 1_555
C2_4 C11_4 1_555 1_555
C3_4 C1_4 1_555 1_555
C4_4 C3_4 1_555 1_555
H2_4 C4_4 1_555 1_555
C5_4 C3_4 1_555 1_555
C6_4 C9_4 1_555 1_555
C7_4 C11_4 1_555 1_555
C8_4 N1_4 1_555 1_555
C9_4 C4_4 1_555 1_555
O8_4 Ca5 1_555 1_555
C10_4 C8_4 1_555 1_555
H3_4 C10_4 1_555 1_555
C11_4 C13_4 1_555 1_555
C12_4 C2_4 1_555 1_555
N2_4 C16_4 1_555 1_555
C13_4 H4_4 1_555 1_555
C14_4 C12_4 1_555 1_555
H5_4 C14_4 1_555 1_555
C15_4 N1_4 1_555 1_555
C16_4 O8_4 1_555 1_555
H6_4 C16_4 1_555 1_555
C17_4 O7_4 1_555 1_555
H7_4 C17_4 1_555 1_555
N3_4 C17_4 1_555 1_555
C18_4 N2_4 1_555 1_555
H8_4 C18_4 1_555 1_555
H9_4 C18_4 1_555 1_555
H10_4 C18_4 1_555 1_555
C19_4 N2_4 1_555 1_555
H11_4 C19_4 1_555 1_555
H12_4 C19_4 1_555 1_555
H13_4 C19_4 1_555 1_555
C20_4 N3_4 1_555 1_555
H14_4 C20_4 1_555 1_555
H15_4 C20_4 1_555 1_555
H16_4 C20_4 1_555 1_555
C21_4 N3_4 1_555 1_555
H17_4 C21_4 1_555 1_555
H18_4 C21_4 1_555 1_555
H19_4 C21_4 1_555 1_555
O18 C26_4 1_555 1_555
O20 C26_4 1_555 1_555
O24_2 C27_4 1_555 1_555
N4_4 C28_4 1_555 1_555
O13_4 C36_4 1_555 1_555
O14_4 C28_4 1_555 1_555
C22_4 H20_4 1_555 1_555
C23_4 C2_4 1_555 1_555
C24_4 C22_4 1_555 1_555
C25_4 C24_4 1_555 1_555
H21_4 C25_4 1_555 1_555
C26_4 C24_4 1_555 1_555
C27_4 C30_4 1_555 1_555
C28_4 C32_4 1_555 1_555
C29_4 N4_4 1_555 1_555
C30_4 C25_4 1_555 1_555
C31_4 C29_4 1_555 1_555
H22_4 C31_4 1_555 1_555
C32_4 C23_4 1_555 1_555
C33_4 C23_4 1_555 1_555
C34_4 C14_4 1_555 1_555
H23_4 C34_4 1_555 1_555
C35_4 C13_4 1_555 1_555
H24_4 C35_4 1_555 1_555
C36_4 N4_4 1_555 1_555
O15_4 Ca7 1_555 1_555
C38_4 O15_4 1_555 1_555
H26_4 C38_4 1_555 1_555
N6_4 C38_4 1_555 1_555
H27_4 C39_4 1_555 1_555
H28_4 C39_4 1_555 1_555
H29_4 C39_4 1_555 1_555
C42_4 N6_4 1_555 1_555
H36_4 C42_4 1_555 1_555
H37_4 C42_4 1_555 1_555
H38_4 C42_4 1_555 1_555
C1_4 C8_4 1_555 1_555
C9_4 C10_4 1_555 1_555
C12_4 C15_4 1_555 1_555
C22_4 C29_4 1_555 1_555
C30_4 C31_4 1_555 1_555
C32_4 C34_4 1_555 1_555
C33_4 C35_4 1_555 1_555
C33_4 C36_4 1_555 1_555
N5_4 C37_4 1_555 1_555
C37_4 O16_4 1_555 1_555
H25_4 C37_4 1_555 1_555
C40_4 N5_4 1_555 1_555
H30_4 C40_4 1_555 1_555
H32_4 C40_4 1_555 1_555
H33_4 C41_4 1_555 1_555
H35_4 C41_4 1_555 1_555
Ca1_2 O2_3 1_555 1_555
O1_3 C5_5 1_555 1_555
O2_3 C5_5 1_555 1_555
O3_2 C6_5 1_555 1_555
O4_3 C6_5 1_555 1_555
N1_5 C7_5 1_555 1_555
O5_5 C15_5 1_555 1_555
O6_5 C7_5 1_555 1_555
C1_5 H1_5 1_555 1_555
O7_5 Ca1_2 1_555 1_555
C2_5 C11_5 1_555 1_555
C3_5 C1_5 1_555 1_555
C4_5 C3_5 1_555 1_555
H2_5 C4_5 1_555 1_555
C5_5 C3_5 1_555 1_555
C6_5 C9_5 1_555 1_555
C7_5 C11_5 1_555 1_555
C8_5 N1_5 1_555 1_555
C9_5 C4_5 1_555 1_555
O8_5 Ca1_2 1_555 1_555
C10_5 C8_5 1_555 1_555
H3_5 C10_5 1_555 1_555
C11_5 C13_5 1_555 1_555
C12_5 C2_5 1_555 1_555
N2_5 C16_5 1_555 1_555
C13_5 H4_5 1_555 1_555
C14_5 C12_5 1_555 1_555
H5_5 C14_5 1_555 1_555
C15_5 N1_5 1_555 1_555
C16_5 O8_5 1_555 1_555
H6_5 C16_5 1_555 1_555
C17_5 O7_5 1_555 1_555
H7_5 C17_5 1_555 1_555
N3_5 C17_5 1_555 1_555
C18_5 N2_5 1_555 1_555
H8_5 C18_5 1_555 1_555
H9_5 C18_5 1_555 1_555
H10_5 C18_5 1_555 1_555
C19_5 N2_5 1_555 1_555
H11_5 C19_5 1_555 1_555
H12_5 C19_5 1_555 1_555
H13_5 C19_5 1_555 1_555
C20_5 N3_5 1_555 1_555
H14_5 C20_5 1_555 1_555
H15_5 C20_5 1_555 1_555
H16_5 C20_5 1_555 1_555
C21_5 N3_5 1_555 1_555
H17_5 C21_5 1_555 1_555
H18_5 C21_5 1_555 1_555
H19_5 C21_5 1_555 1_555
O9_3 C26_5 1_555 1_555
O10_3 C26_5 1_555 1_555
O11_2 C27_5 1_555 1_555
O12_3 C27_5 1_555 1_555
N4_5 C28_5 1_555 1_555
O13_5 C36_5 1_555 1_555
O14_5 C28_5 1_555 1_555
C22_5 H20_5 1_555 1_555
C23_5 C2_5 1_555 1_555
C24_5 C22_5 1_555 1_555
C25_5 C24_5 1_555 1_555
H21_5 C25_5 1_555 1_555
C26_5 C24_5 1_555 1_555
C27_5 C30_5 1_555 1_555
C28_5 C32_5 1_555 1_555
C29_5 N4_5 1_555 1_555
C30_5 C25_5 1_555 1_555
C31_5 C29_5 1_555 1_555
H22_5 C31_5 1_555 1_555
C32_5 C23_5 1_555 1_555
C33_5 C23_5 1_555 1_555
C34_5 C14_5 1_555 1_555
H23_5 C34_5 1_555 1_555
C35_5 C13_5 1_555 1_555
H24_5 C35_5 1_555 1_555
C36_5 N4_5 1_555 1_555
Ca3_2 O3_2 1_555 1_555
Ca4_2 O1_3 1_555 1_555
Ca5_2 O3_2 1_555 1_555
Ca6_2 O11_2 1_555 1_555
Ca8_2 O9_3 1_555 1_555
O17_3 Ca1_2 1_555 1_555
O19_3 Ca1_2 1_555 1_555
O21_2 Ca1_2 1_555 1_555
O22_3 Ca1_2 1_555 1_555
O25_3 Ca1_2 1_555 1_555
O2_3 Ca4_2 1_555 1_555
O4_3 Ca3_2 1_555 1_555
C1_5 C8_5 1_555 1_555
C9_5 C10_5 1_555 1_555
C12_5 C15_5 1_555 1_555
O10_3 Ca8_2 1_555 1_555
O12_3 Ca6_2 1_555 1_555
C22_5 C29_5 1_555 1_555
C30_5 C31_5 1_555 1_555
C32_5 C34_5 1_555 1_555
C33_5 C35_5 1_555 1_555
C33_5 C36_5 1_555 1_555
Ca4_2 O21_2 1_555 1_555
Ca5_2 O19_3 1_555 1_555
Ca5_2 O22_3 1_555 1_555
O15_5 Ca2_2 1_555 1_555
O16_5 Ca2_2 1_555 1_555
N5_5 C37_5 1_555 1_555
C37_5 O16_5 1_555 1_555
H25_5 C37_5 1_555 1_555
C38_5 O15_5 1_555 1_555
H26_5 C38_5 1_555 1_555
N6_5 C38_5 1_555 1_555
C39_5 N5_5 1_555 1_555
H27_5 C39_5 1_555 1_555
H28_5 C39_5 1_555 1_555
H29_5 C39_5 1_555 1_555
C40_5 N5_5 1_555 1_555
H30_5 C40_5 1_555 1_555
H31_5 C40_5 1_555 1_555
H32_5 C40_5 1_555 1_555
C41_5 N6_5 1_555 1_555
H33_5 C41_5 1_555 1_555
H34_5 C41_5 1_555 1_555
H35_5 C41_5 1_555 1_555
C42_5 N6_5 1_555 1_555
H36_5 C42_5 1_555 1_555
H37_5 C42_5 1_555 1_555
H38_5 C42_5 1_555 1_555
O18_3 Ca2_2 1_555 1_555
O20_3 Ca2_2 1_555 1_555
O23_2 Ca2_2 1_555 1_555
O26_3 Ca2_2 1_555 1_555
Ca7_2 O20_3 1_555 1_555
N5_6 C37_6 1_555 1_555
H25_6 C37_6 1_555 1_555
C39_6 N5_6 1_555 1_555
H28_6 C39_6 1_555 1_555
H29_6 C39_6 1_555 1_555
C40_6 N5_6 1_555 1_555
H30_6 C40_6 1_555 1_555
H31_6 C40_6 1_555 1_555
H32_6 C40_6 1_555 1_555
Ca8_2 O20_4 1_555 1_555
O15_6 Ca6_2 1_555 1_555
O16_6 Ca6_2 1_555 1_555
C38_6 O15_6 1_555 1_555
H26_6 C38_6 1_555 1_555
N6_6 C38_6 1_555 1_555
C41_6 N6_6 1_555 1_555
H33_6 C41_6 1_555 1_555
H34_6 C41_6 1_555 1_555
H35_6 C41_6 1_555 1_555
C42_6 N6_6 1_555 1_555
H36_6 C42_6 1_555 1_555
H37_6 C42_6 1_555 1_555
H38_6 C42_6 1_555 1_555
O18_4 Ca6_2 1_555 1_555
C13_6 H4_6 1_555 1_555
O23_2 C27_6 1_555 1_555
O26_3 C27_6 1_555 1_555
N4_6 C28_6 1_555 1_555
O13_6 C36_6 1_555 1_555
O14_6 C28_6 1_555 1_555
H21_6 C25_6 1_555 1_555
C27_6 C30_6 1_555 1_555
C28_6 C32_6 1_555 1_555
C29_6 N4_6 1_555 1_555
C30_6 C25_6 1_555 1_555
C31_6 C29_6 1_555 1_555
H22_6 C31_6 1_555 1_555
C32_6 C23_6 1_555 1_555
C33_6 C23_6 1_555 1_555
C35_6 C13_6 1_555 1_555
H24_6 C35_6 1_555 1_555
C36_6 N4_6 1_555 1_555
C30_6 C31_6 1_555 1_555
C33_6 C35_6 1_555 1_555
C33_6 C36_6 1_555 1_555
O9_4 C26_6 1_555 1_555
O10_4 C26_6 1_555 1_555
C22_6 H20_6 1_555 1_555
C24_6 C22_6 1_555 1_555
C26_6 C24_6 1_555 1_555
Ca7_2 O9_4 1_555 1_555
O10_4 Ca7_2 1_555 1_555
O21_2 C6_6 1_555 1_555
O25_3 C6_6 1_555 1_555
N1_6 C7_6 1_555 1_555
O5_6 C15_6 1_555 1_555
O6_6 C7_6 1_555 1_555
C2_6 C11_6 1_555 1_555
H2_6 C4_6 1_555 1_555
C6_6 C9_6 1_555 1_555
C7_6 C11_6 1_555 1_555
C8_6 N1_6 1_555 1_555
C9_6 C4_6 1_555 1_555
C10_6 C8_6 1_555 1_555
H3_6 C10_6 1_555 1_555
C12_6 C2_6 1_555 1_555
N2_6 C16_6 1_555 1_555
C14_6 C12_6 1_555 1_555
H5_6 C14_6 1_555 1_555
C15_6 N1_6 1_555 1_555
H6_6 C16_6 1_555 1_555
C18_6 N2_6 1_555 1_555
H9_6 C18_6 1_555 1_555
H10_6 C18_6 1_555 1_555
C19_6 N2_6 1_555 1_555
H11_6 C19_6 1_555 1_555
H12_6 C19_6 1_555 1_555
H13_6 C19_6 1_555 1_555
C34_6 C14_6 1_555 1_555
H23_6 C34_6 1_555 1_555
C9_6 C10_6 1_555 1_555
C12_6 C15_6 1_555 1_555
Ca4_2 O19_4 1_555 1_555
Ca3_2 O2_4 1_555 1_555
O1_4 C5_6 1_555 1_555
O2_4 C5_6 1_555 1_555
C1_6 H1_6 1_555 1_555
O7_6 Ca3_2 1_555 1_555
C3_6 C1_6 1_555 1_555
C5_6 C3_6 1_555 1_555
O8_6 Ca3_2 1_555 1_555
C17_6 O7_6 1_555 1_555
H7_6 C17_6 1_555 1_555
N3_6 C17_6 1_555 1_555
C20_6 N3_6 1_555 1_555
H14_6 C20_6 1_555 1_555
H15_6 C20_6 1_555 1_555
H16_6 C20_6 1_555 1_555
C21_6 N3_6 1_555 1_555
H17_6 C21_6 1_555 1_555
H18_6 C21_6 1_555 1_555
H19_6 C21_6 1_555 1_555
Ca5_2 O1_4 1_555 1_555
O17_4 Ca3_2 1_555 1_555
O22_4 Ca3_2 1_555 1_555
O2_4 Ca5_2 1_555 1_555
H5_7 C14_7 1_555 1_555
O20_4 C26_7 1_555 1_555
O24_3 C27_7 1_555 1_555
O12_4 C27_7 1_555 1_555
N4_7 C28_7 1_555 1_555
O13_7 C36_7 1_555 1_555
O14_7 C28_7 1_555 1_555
C22_7 H20_7 1_555 1_555
C24_7 C22_7 1_555 1_555
C25_7 C24_7 1_555 1_555
H21_7 C25_7 1_555 1_555
C26_7 C24_7 1_555 1_555
C27_7 C30_7 1_555 1_555
C28_7 C32_7 1_555 1_555
C29_7 N4_7 1_555 1_555
C30_7 C25_7 1_555 1_555
C31_7 C29_7 1_555 1_555
H22_7 C31_7 1_555 1_555
C32_7 C23_7 1_555 1_555
C33_7 C23_7 1_555 1_555
C34_7 C14_7 1_555 1_555
H23_7 C34_7 1_555 1_555
C36_7 N4_7 1_555 1_555
O15_7 Ca8_2 1_555 1_555
H27_7 C39_7 1_555 1_555
H28_7 C39_7 1_555 1_555
H29_7 C39_7 1_555 1_555
C22_7 C29_7 1_555 1_555
C30_7 C31_7 1_555 1_555
C32_7 C34_7 1_555 1_555
C33_7 C36_7 1_555 1_555
H26_7 C38_7 1_555 1_555
N6_7 C38_7 1_555 1_555
C42_7 N6_7 1_555 1_555
H36_7 C42_7 1_555 1_555
H37_7 C42_7 1_555 1_555
H38_7 C42_7 1_555 1_555
N5_7 C37_7 1_555 1_555
C37_7 O16_7 1_555 1_555
H25_7 C37_7 1_555 1_555
C40_7 N5_7 1_555 1_555
H30_7 C40_7 1_555 1_555
H32_7 C40_7 1_555 1_555
H33_7 C41_7 1_555 1_555
O19_4 C5_7 1_555 1_555
O22_3 C6_7 1_555 1_555
O4_4 C6_7 1_555 1_555
N1_7 C7_7 1_555 1_555
O5_7 C15_7 1_555 1_555
O6_7 C7_7 1_555 1_555
C1_7 H1_7 1_555 1_555
O7_7 Ca4_2 1_555 1_555
C2_7 C11_7 1_555 1_555
C3_7 C1_7 1_555 1_555
C4_7 C3_7 1_555 1_555
H2_7 C4_7 1_555 1_555
C5_7 C3_7 1_555 1_555
C6_7 C9_7 1_555 1_555
C7_7 C11_7 1_555 1_555
C8_7 N1_7 1_555 1_555
C9_7 C4_7 1_555 1_555
O8_7 Ca4_2 1_555 1_555
C10_7 C8_7 1_555 1_555
H3_7 C10_7 1_555 1_555
C11_7 C13_7 1_555 1_555
C12_7 C2_7 1_555 1_555
N2_7 C16_7 1_555 1_555
C13_7 H4_7 1_555 1_555
C15_7 N1_7 1_555 1_555
C16_7 O8_7 1_555 1_555
H6_7 C16_7 1_555 1_555
C18_7 N2_7 1_555 1_555
H8_7 C18_7 1_555 1_555
H9_7 C18_7 1_555 1_555
H10_7 C18_7 1_555 1_555
C19_7 N2_7 1_555 1_555
H11_7 C19_7 1_555 1_555
H12_7 C19_7 1_555 1_555
H13_7 C19_7 1_555 1_555
C35_7 C13_7 1_555 1_555
H24_7 C35_7 1_555 1_555
O25_4 Ca4_2 1_555 1_555
O4_4 Ca5_2 1_555 1_555
C1_7 C8_7 1_555 1_555
C9_7 C10_7 1_555 1_555
C12_7 C15_7 1_555 1_555
H7_7 C17_7 1_555 1_555
N3_7 C17_7 1_555 1_555
C20_7 N3_7 1_555 1_555
H14_7 C20_7 1_555 1_555
H15_7 C20_7 1_555 1_555
C21_7 N3_7 1_555 1_555
H17_7 C21_7 1_555 1_555
H18_7 C21_7 1_555 1_555
H19_7 C21_7 1_555 1_555
N5_8 C37_8 1_555 1_555
C37_8 O16_8 1_555 1_555
H25_8 C37_8 1_555 1_555
C40_8 N5_8 1_555 1_555
H30_8 C40_8 1_555 1_555
H32_8 C40_8 1_555 1_555
H33_8 C41_8 1_555 1_555
H35_8 C41_8 1_555 1_555
O17_3 C5_8 1_555 1_555
O19_3 C5_8 1_555 1_555
O22_4 C6_8 1_555 1_555
N1_8 C7_8 1_555 1_555
O5_8 C15_8 1_555 1_555
O6_8 C7_8 1_555 1_555
C1_8 H1_8 1_555 1_555
O7_8 Ca5_2 1_555 1_555
C2_8 C11_8 1_555 1_555
C3_8 C1_8 1_555 1_555
C4_8 C3_8 1_555 1_555
H2_8 C4_8 1_555 1_555
C5_8 C3_8 1_555 1_555
C6_8 C9_8 1_555 1_555
C7_8 C11_8 1_555 1_555
C8_8 N1_8 1_555 1_555
C9_8 C4_8 1_555 1_555
O8_8 Ca5_2 1_555 1_555
C10_8 C8_8 1_555 1_555
H3_8 C10_8 1_555 1_555
C11_8 C13_8 1_555 1_555
C12_8 C2_8 1_555 1_555
N2_8 C16_8 1_555 1_555
C13_8 H4_8 1_555 1_555
C14_8 C12_8 1_555 1_555
H5_8 C14_8 1_555 1_555
C15_8 N1_8 1_555 1_555
C16_8 O8_8 1_555 1_555
H6_8 C16_8 1_555 1_555
C17_8 O7_8 1_555 1_555
H7_8 C17_8 1_555 1_555
N3_8 C17_8 1_555 1_555
C18_8 N2_8 1_555 1_555
H8_8 C18_8 1_555 1_555
H9_8 C18_8 1_555 1_555
H10_8 C18_8 1_555 1_555
C19_8 N2_8 1_555 1_555
H11_8 C19_8 1_555 1_555
H12_8 C19_8 1_555 1_555
H13_8 C19_8 1_555 1_555
C20_8 N3_8 1_555 1_555
H14_8 C20_8 1_555 1_555
H15_8 C20_8 1_555 1_555
H16_8 C20_8 1_555 1_555
C21_8 N3_8 1_555 1_555
H17_8 C21_8 1_555 1_555
H18_8 C21_8 1_555 1_555
H19_8 C21_8 1_555 1_555
O18_3 C26_8 1_555 1_555
O20_3 C26_8 1_555 1_555
O24_4 C27_8 1_555 1_555
N4_8 C28_8 1_555 1_555
O13_8 C36_8 1_555 1_555
O14_8 C28_8 1_555 1_555
C22_8 H20_8 1_555 1_555
C23_8 C2_8 1_555 1_555
C24_8 C22_8 1_555 1_555
C25_8 C24_8 1_555 1_555
H21_8 C25_8 1_555 1_555
C26_8 C24_8 1_555 1_555
C27_8 C30_8 1_555 1_555
C28_8 C32_8 1_555 1_555
C29_8 N4_8 1_555 1_555
C30_8 C25_8 1_555 1_555
C31_8 C29_8 1_555 1_555
H22_8 C31_8 1_555 1_555
C32_8 C23_8 1_555 1_555
C33_8 C23_8 1_555 1_555
C34_8 C14_8 1_555 1_555
H23_8 C34_8 1_555 1_555
C35_8 C13_8 1_555 1_555
H24_8 C35_8 1_555 1_555
C36_8 N4_8 1_555 1_555
O15_8 Ca7_2 1_555 1_555
C38_8 O15_8 1_555 1_555
H26_8 C38_8 1_555 1_555
N6_8 C38_8 1_555 1_555
H27_8 C39_8 1_555 1_555
H28_8 C39_8 1_555 1_555
H29_8 C39_8 1_555 1_555
C42_8 N6_8 1_555 1_555
H36_8 C42_8 1_555 1_555
H37_8 C42_8 1_555 1_555
H38_8 C42_8 1_555 1_555
C1_8 C8_8 1_555 1_555
C9_8 C10_8 1_555 1_555
C12_8 C15_8 1_555 1_555
C22_8 C29_8 1_555 1_555
C30_8 C31_8 1_555 1_555
C32_8 C34_8 1_555 1_555
C33_8 C35_8 1_555 1_555
C33_8 C36_8 1_555 1_555

#END
