
###############################################################################
#
# This file contains modified crystal structure data generated from the
# MOF subset of the Cambridge Structural Database (CSD) v543 
# hosted by the Cambridge Crystallographic Data Centre (CCDC).
#
# This work is licensed under the Creative Commons
# Attribution-NonCommercial-ShareAlike 4.0 International License.
# To view a copy of this license, visit
# http://creativecommons.org/licenses/by-nc-sa/4.0/
# or send a letter to
# Creative Commons, PO Box 1866, Mountain View, CA 94042, USA.
#
# CIF created using the CSD Python API on 29 September 2022
# The structure has been converted into the P1 space group
# The structure has a 3D framework
# The original CSD entry XENLEL is in the cubic crystal system
# The framework has been calculated to contain at least 10.0% void space
# The void calculation uses a probe of radius 1.32A, grid spacing 0.4
# The framework is charged, counterions have been retained in the structure
#
###############################################################################

data_XENLEL
_chemical_formula_moiety         '(C144 H48 Cu16 O96 24-)n'
_symmetry_cell_setting           triclinic
_symmetry_space_group_name_H-M   'P 1'
_symmetry_Int_Tables_number      1
_space_group_name_Hall           'P 1'
loop_
_symmetry_equiv_pos_site_id
_symmetry_equiv_pos_as_xyz
1 x,y,z
_cell_length_a                   22.1195(4)
_cell_length_b                   22.1195(4)
_cell_length_c                   22.1195(4)
_cell_angle_alpha                90
_cell_angle_beta                 90
_cell_angle_gamma                90
_cell_volume                     10822.5
loop_
_atom_site_label
_atom_site_type_symbol
_atom_site_fract_x
_atom_site_fract_y
_atom_site_fract_z
Cu1 Cu 0.37968(3) 0.62032(3) 0.12032(3)
O1 O 0.36647(19) 0.6178(3) 0.0304(2)
C1 C 0.3115(3) 0.6188(3) 0.0124(2)
O4 O 0.2862(2) 0.6224(3) 0.11710(19)
C5 C 0.2024(3) 0.6227(5) 0.0448(3)
H2 H 0.172462 0.627878 0.073928
C6 C 0.2675(2) 0.6187(3) 0.0625(2)
O5 O 0.4696(2) 0.63353(19) 0.1178(3)
O6 O 0.61710(19) 0.7862(2) 0.1224(3)
C7 C 0.4876(2) 0.6885(3) 0.1188(3)
C8 C 0.5448(3) 0.7024(3) 0.1227(5)
H3 H 0.573928 0.672462 0.127878
C9 C 0.5625(2) 0.7675(2) 0.1187(3)
O7 O 0.5304(2) 0.86647(19) 0.1178(3)
O8 O 0.38290(19) 0.7138(2) 0.1224(3)
C10 C 0.5124(2) 0.8115(3) 0.1188(3)
C11 C 0.4552(3) 0.7976(3) 0.1227(5)
H4 H 0.426072 0.827538 0.127878
C12 C 0.4375(2) 0.7325(2) 0.1187(3)
O9 O 0.3822(3) 0.5304(2) 0.13353(19)
O10 O 0.3776(3) 0.38290(19) 0.2862(2)
C13 C 0.3812(3) 0.5124(2) 0.1885(3)
C14 C 0.3773(5) 0.4552(3) 0.2024(3)
H5 H 0.372122 0.426072 0.172462
C15 C 0.3813(3) 0.4375(2) 0.2675(2)
O11 O 0.3822(3) 0.4696(2) 0.36647(19)
O12 O 0.3776(3) 0.61710(19) 0.2138(2)
C16 C 0.3812(3) 0.4876(2) 0.3115(3)
C17 C 0.3773(5) 0.5448(3) 0.2976(3)
H6 H 0.372122 0.573928 0.327538
C18 C 0.3813(3) 0.5625(2) 0.2325(2)
Cu3 Cu 0.62032(3) 0.87968(3) 0.12032(3)
Cu4 Cu 0.37968(3) 0.37968(3) 0.37968(3)
O2 O 0.2138(2) 0.6224(3) 0.88290(19)
C2 C 0.2976(3) 0.6227(5) 0.9552(3)
H1 H 0.327538 0.627878 0.926072
C3 C 0.2325(2) 0.6187(3) 0.9375(2)
O3 O 0.13353(19) 0.6178(3) 0.9696(2)
C4 C 0.1885(3) 0.6188(3) 0.9876(2)
Cu2 Cu 0.12032(3) 0.62032(3) 0.87968(3)
O13 O 0.0304(2) 0.63353(19) 0.8822(3)
O14 O 0.1178(3) 0.5304(2) 0.86647(19)
O15 O 0.11710(19) 0.7138(2) 0.8776(3)
O16 O 0.1224(3) 0.61710(19) 0.7862(2)
Cu1_2 Cu 0.12032(3) 0.37968(3) 0.62032(3)
O1_2 O 0.13353(19) 0.3822(3) 0.5304(2)
O2_2 O 0.2862(2) 0.3776(3) 0.38290(19)
C1_2 C 0.1885(3) 0.3812(3) 0.5124(2)
C2_2 C 0.2024(3) 0.3773(5) 0.4552(3)
H1_2 H 0.172462 0.372122 0.426072
C3_2 C 0.2675(2) 0.3813(3) 0.4375(2)
O3_2 O 0.36647(19) 0.3822(3) 0.4696(2)
O4_2 O 0.2138(2) 0.3776(3) 0.61710(19)
C4_2 C 0.3115(3) 0.3812(3) 0.4876(2)
C5_2 C 0.2976(3) 0.3773(5) 0.5448(3)
H2_2 H 0.327538 0.372122 0.573928
C6_2 C 0.2325(2) 0.3813(3) 0.5625(2)
O5_2 O 0.0304(2) 0.36647(19) 0.6178(3)
C7_2 C 0.0124(2) 0.3115(3) 0.6188(3)
O8_2 O 0.11710(19) 0.2862(2) 0.6224(3)
C11_2 C 0.0448(3) 0.2024(3) 0.6227(5)
H4_2 H 0.073928 0.172462 0.627878
C12_2 C 0.0625(2) 0.2675(2) 0.6187(3)
O9_2 O 0.1178(3) 0.4696(2) 0.63353(19)
C13_2 C 0.1188(3) 0.4876(2) 0.6885(3)
C14_2 C 0.1227(5) 0.5448(3) 0.7024(3)
H5_2 H 0.127878 0.573928 0.672462
C15_2 C 0.1187(3) 0.5625(2) 0.7675(2)
O12_2 O 0.1224(3) 0.38290(19) 0.7138(2)
C16_2 C 0.1188(3) 0.5124(2) 0.8115(3)
C17_2 C 0.1227(5) 0.4552(3) 0.7976(3)
H6_2 H 0.127878 0.426072 0.827538
C18_2 C 0.1187(3) 0.4375(2) 0.7325(2)
O13_2 O 0.4696(2) 0.36647(19) 0.3822(3)
O15_2 O 0.38290(19) 0.2862(2) 0.3776(3)
O6_2 O 0.88290(19) 0.2138(2) 0.6224(3)
C8_2 C 0.9552(3) 0.2976(3) 0.6227(5)
H3_2 H 0.926072 0.327538 0.627878
C9_2 C 0.9375(2) 0.2325(2) 0.6187(3)
O7_2 O 0.9696(2) 0.13353(19) 0.6178(3)
C10_2 C 0.9876(2) 0.1885(3) 0.6188(3)
Cu3_2 Cu 0.87968(3) 0.12032(3) 0.62032(3)
Cu1_3 Cu 0.62032(3) 0.12032(3) 0.37968(3)
O1_3 O 0.63353(19) 0.1178(3) 0.4696(2)
O2_3 O 0.7862(2) 0.1224(3) 0.61710(19)
C1_3 C 0.6885(3) 0.1188(3) 0.4876(2)
C2_3 C 0.7024(3) 0.1227(5) 0.5448(3)
H1_3 H 0.672462 0.127878 0.573928
C3_3 C 0.7675(2) 0.1187(3) 0.5625(2)
O3_3 O 0.86647(19) 0.1178(3) 0.5304(2)
O4_3 O 0.7138(2) 0.1224(3) 0.38290(19)
C4_3 C 0.8115(3) 0.1188(3) 0.5124(2)
C5_3 C 0.7976(3) 0.1227(5) 0.4552(3)
H2_3 H 0.827538 0.127878 0.426072
C6_3 C 0.7325(2) 0.1187(3) 0.4375(2)
O5_3 O 0.5304(2) 0.13353(19) 0.3822(3)
C7_3 C 0.5124(2) 0.1885(3) 0.3812(3)
C8_3 C 0.4552(3) 0.2024(3) 0.3773(5)
H3_3 H 0.426072 0.172462 0.372122
C9_3 C 0.4375(2) 0.2675(2) 0.3813(3)
O8_3 O 0.61710(19) 0.2138(2) 0.3776(3)
C10_3 C 0.4876(2) 0.3115(3) 0.3812(3)
C11_3 C 0.5448(3) 0.2976(3) 0.3773(5)
H4_3 H 0.573928 0.327538 0.372122
C12_3 C 0.5625(2) 0.2325(2) 0.3813(3)
O9_3 O 0.6178(3) 0.0304(2) 0.36647(19)
C13_3 C 0.6188(3) 0.0124(2) 0.3115(3)
O12_3 O 0.6224(3) 0.11710(19) 0.2862(2)
C17_3 C 0.6227(5) 0.0448(3) 0.2024(3)
H6_3 H 0.627878 0.073928 0.172462
C18_3 C 0.6187(3) 0.0625(2) 0.2675(2)
O14_2 O 0.8822(3) 0.0304(2) 0.63353(19)
O16_2 O 0.8776(3) 0.11710(19) 0.7138(2)
O10_2 O 0.6224(3) 0.88290(19) 0.2138(2)
C14_3 C 0.6227(5) 0.9552(3) 0.2976(3)
H5_3 H 0.627878 0.926072 0.327538
C15_3 C 0.6187(3) 0.9375(2) 0.2325(2)
O11_2 O 0.6178(3) 0.9696(2) 0.13353(19)
C16_3 C 0.6188(3) 0.9876(2) 0.1885(3)
C8_4 C 0.0448(3) 0.7976(3) 0.8773(5)
H3_4 H 0.073928 0.827538 0.872122
C9_4 C 0.0625(2) 0.7325(2) 0.8813(3)
C10_4 C 0.0124(2) 0.6885(3) 0.8812(3)
C14_4 C 0.8773(5) 0.0448(3) 0.7976(3)
H5_4 H 0.872122 0.073928 0.827538
C15_4 C 0.8813(3) 0.0625(2) 0.7325(2)
C16_4 C 0.8812(3) 0.0124(2) 0.6885(3)
O2_4 O 0.7138(2) 0.8776(3) 0.11710(19)
C2_4 C 0.7976(3) 0.8773(5) 0.0448(3)
H1_4 H 0.827538 0.872122 0.073928
C3_4 C 0.7325(2) 0.8813(3) 0.0625(2)
O3_4 O 0.63353(19) 0.8822(3) 0.0304(2)
C4_4 C 0.6885(3) 0.8812(3) 0.0124(2)
Cu1_4 Cu 0.87968(3) 0.87968(3) 0.87968(3)
O1_4 O 0.86647(19) 0.8822(3) 0.9696(2)
C1_4 C 0.8115(3) 0.8812(3) 0.9876(2)
O4_4 O 0.7862(2) 0.8776(3) 0.88290(19)
C5_4 C 0.7024(3) 0.8773(5) 0.9552(3)
H2_4 H 0.672462 0.872122 0.926072
C6_4 C 0.7675(2) 0.8813(3) 0.9375(2)
O5_4 O 0.9696(2) 0.86647(19) 0.8822(3)
C7_4 C 0.9876(2) 0.8115(3) 0.8812(3)
O8_4 O 0.88290(19) 0.7862(2) 0.8776(3)
C11_4 C 0.9552(3) 0.7024(3) 0.8773(5)
H4_4 H 0.926072 0.672462 0.872122
C12_4 C 0.9375(2) 0.7675(2) 0.8813(3)
O9_4 O 0.8822(3) 0.9696(2) 0.86647(19)
C13_4 C 0.8812(3) 0.9876(2) 0.8115(3)
O12_4 O 0.8776(3) 0.88290(19) 0.7862(2)
C17_4 C 0.8773(5) 0.9552(3) 0.7024(3)
H6_4 H 0.872122 0.926072 0.672462
C18_4 C 0.8813(3) 0.9375(2) 0.7675(2)
O6_3 O 0.0362(2) 0.86710(19) 0.3724(3)
C9_5 C 0.0175(2) 0.8125(2) 0.3687(3)
O7_3 O 0.11647(19) 0.7804(2) 0.3678(3)
C10_5 C 0.0615(3) 0.7624(2) 0.3688(3)
C11_5 C 0.0476(3) 0.7052(3) 0.3727(5)
H4_5 H 0.077538 0.676072 0.377878
Cu3_3 Cu 0.12968(3) 0.87032(3) 0.37032(3)
Cu1_5 Cu 0.87032(3) 0.62968(3) 0.37032(3)
O1_5 O 0.8678(3) 0.61647(19) 0.2804(2)
O2_5 O 0.8724(3) 0.4638(2) 0.13290(19)
C1_5 C 0.8688(3) 0.5615(3) 0.2624(2)
C2_5 C 0.8727(5) 0.5476(3) 0.2052(3)
H1_5 H 0.877878 0.577538 0.176072
C3_5 C 0.8687(3) 0.4825(2) 0.1875(2)
O3_5 O 0.8678(3) 0.38353(19) 0.2196(2)
O4_5 O 0.8724(3) 0.5362(2) 0.36710(19)
C4_5 C 0.8688(3) 0.4385(3) 0.2376(2)
C5_5 C 0.8727(5) 0.4524(3) 0.2948(3)
H2_5 H 0.877878 0.422462 0.323928
C6_5 C 0.8687(3) 0.5175(2) 0.3125(2)
O5_5 O 0.88353(19) 0.7196(2) 0.3678(3)
C7_5 C 0.9385(3) 0.7376(2) 0.3688(3)
C8_5 C 0.9524(3) 0.7948(3) 0.3727(5)
H3_5 H 0.922462 0.823928 0.377878
O8_5 O 0.9638(2) 0.63290(19) 0.3724(3)
C12_5 C 0.9825(2) 0.6875(2) 0.3687(3)
O9_5 O 0.7804(2) 0.6322(3) 0.38353(19)
O10_3 O 0.63290(19) 0.6276(3) 0.5362(2)
C13_5 C 0.7624(2) 0.6312(3) 0.4385(3)
C14_5 C 0.7052(3) 0.6273(5) 0.4524(3)
H5_5 H 0.676072 0.622122 0.422462
C15_5 C 0.6875(2) 0.6313(3) 0.5175(2)
O11_3 O 0.7196(2) 0.6322(3) 0.61647(19)
O12_5 O 0.86710(19) 0.6276(3) 0.4638(2)
C16_5 C 0.7376(2) 0.6312(3) 0.5615(3)
C17_5 C 0.7948(3) 0.6273(5) 0.5476(3)
H6_5 H 0.823928 0.622122 0.577538
C18_5 C 0.8125(2) 0.6313(3) 0.4825(2)
Cu2_2 Cu 0.87032(3) 0.37032(3) 0.12968(3)
Cu4_2 Cu 0.62968(3) 0.62968(3) 0.62968(3)
O13_3 O 0.88353(19) 0.2804(2) 0.1322(3)
O14_3 O 0.7804(2) 0.3678(3) 0.11647(19)
O15_3 O 0.9638(2) 0.36710(19) 0.1276(3)
O16_3 O 0.86710(19) 0.3724(3) 0.0362(2)
C15_6 C 0.8125(2) 0.3687(3) 0.0175(2)
C16_6 C 0.7624(2) 0.3688(3) 0.0615(3)
C17_6 C 0.7052(3) 0.3727(5) 0.0476(3)
H6_6 H 0.676072 0.377878 0.077538
Cu1_6 Cu 0.62968(3) 0.37032(3) 0.87032(3)
O1_6 O 0.6322(3) 0.38353(19) 0.7804(2)
O2_6 O 0.6276(3) 0.5362(2) 0.63290(19)
C1_6 C 0.6312(3) 0.4385(3) 0.7624(2)
C2_6 C 0.6273(5) 0.4524(3) 0.7052(3)
H1_6 H 0.622122 0.422462 0.676072
C3_6 C 0.6313(3) 0.5175(2) 0.6875(2)
O3_6 O 0.6322(3) 0.61647(19) 0.7196(2)
O4_6 O 0.6276(3) 0.4638(2) 0.86710(19)
C4_6 C 0.6312(3) 0.5615(3) 0.7376(2)
C5_6 C 0.6273(5) 0.5476(3) 0.7948(3)
H2_6 H 0.622122 0.577538 0.823928
C6_6 C 0.6313(3) 0.4825(2) 0.8125(2)
O5_6 O 0.61647(19) 0.2804(2) 0.8678(3)
O6_4 O 0.4638(2) 0.13290(19) 0.8724(3)
C7_6 C 0.5615(3) 0.2624(2) 0.8688(3)
C8_6 C 0.5476(3) 0.2052(3) 0.8727(5)
H3_6 H 0.577538 0.176072 0.877878
C9_6 C 0.4825(2) 0.1875(2) 0.8687(3)
O7_4 O 0.38353(19) 0.2196(2) 0.8678(3)
O8_6 O 0.5362(2) 0.36710(19) 0.8724(3)
C10_6 C 0.4385(3) 0.2376(2) 0.8688(3)
C11_6 C 0.4524(3) 0.2948(3) 0.8727(5)
H4_6 H 0.422462 0.323928 0.877878
C12_6 C 0.5175(2) 0.3125(2) 0.8687(3)
O9_6 O 0.7196(2) 0.3678(3) 0.88353(19)
C13_6 C 0.7376(2) 0.3688(3) 0.9385(3)
C14_6 C 0.7948(3) 0.3727(5) 0.9524(3)
H5_6 H 0.823928 0.377878 0.922462
O12_6 O 0.63290(19) 0.3724(3) 0.9638(2)
C18_6 C 0.6875(2) 0.3687(3) 0.9825(2)
Cu3_4 Cu 0.37032(3) 0.12968(3) 0.87032(3)
O13_4 O 0.61647(19) 0.7196(2) 0.6322(3)
O15_4 O 0.5362(2) 0.63290(19) 0.6276(3)
O2_7 O 0.3724(3) 0.0362(2) 0.86710(19)
C3_7 C 0.3687(3) 0.0175(2) 0.8125(2)
O3_7 O 0.3678(3) 0.11647(19) 0.7804(2)
C4_7 C 0.3688(3) 0.0615(3) 0.7624(2)
C5_7 C 0.3727(5) 0.0476(3) 0.7052(3)
H2_7 H 0.377878 0.077538 0.676072
O14_4 O 0.2804(2) 0.1322(3) 0.88353(19)
O16_4 O 0.36710(19) 0.1276(3) 0.9638(2)
Cu1_7 Cu 0.37032(3) 0.87032(3) 0.62968(3)
O1_7 O 0.3678(3) 0.88353(19) 0.7196(2)
C1_7 C 0.3688(3) 0.9385(3) 0.7376(2)
C2_7 C 0.3727(5) 0.9524(3) 0.7948(3)
H1_7 H 0.377878 0.922462 0.823928
O4_7 O 0.3724(3) 0.9638(2) 0.63290(19)
C6_7 C 0.3687(3) 0.9825(2) 0.6875(2)
O5_7 O 0.38353(19) 0.7804(2) 0.6322(3)
C7_7 C 0.4385(3) 0.7624(2) 0.6312(3)
C8_7 C 0.4524(3) 0.7052(3) 0.6273(5)
H3_7 H 0.422462 0.676072 0.622122
C9_7 C 0.5175(2) 0.6875(2) 0.6313(3)
O8_7 O 0.4638(2) 0.86710(19) 0.6276(3)
C10_7 C 0.5615(3) 0.7376(2) 0.6312(3)
C11_7 C 0.5476(3) 0.7948(3) 0.6273(5)
H4_7 H 0.577538 0.823928 0.622122
C12_7 C 0.4825(2) 0.8125(2) 0.6313(3)
O9_7 O 0.2804(2) 0.8678(3) 0.61647(19)
O10_4 O 0.13290(19) 0.8724(3) 0.4638(2)
C13_7 C 0.2624(2) 0.8688(3) 0.5615(3)
C14_7 C 0.2052(3) 0.8727(5) 0.5476(3)
H5_7 H 0.176072 0.877878 0.577538
C15_7 C 0.1875(2) 0.8687(3) 0.4825(2)
O11_4 O 0.2196(2) 0.8678(3) 0.38353(19)
O12_7 O 0.36710(19) 0.8724(3) 0.5362(2)
C16_7 C 0.2376(2) 0.8688(3) 0.4385(3)
C17_7 C 0.2948(3) 0.8727(5) 0.4524(3)
H6_7 H 0.323928 0.877878 0.422462
C18_7 C 0.3125(2) 0.8687(3) 0.5175(2)
C15_8 C 0.3125(2) 0.1313(3) 0.9825(2)
C16_8 C 0.2624(2) 0.1312(3) 0.9385(3)
C17_8 C 0.2052(3) 0.1273(5) 0.9524(3)
H6_8 H 0.176072 0.122122 0.922462
O2_8 O 0.1276(3) 0.9638(2) 0.36710(19)
C3_8 C 0.1313(3) 0.9825(2) 0.3125(2)
O3_8 O 0.1322(3) 0.88353(19) 0.2804(2)
C4_8 C 0.1312(3) 0.9385(3) 0.2624(2)
C5_8 C 0.1273(5) 0.9524(3) 0.2052(3)
H2_8 H 0.122122 0.922462 0.176072
C9_8 C 0.9825(2) 0.3125(2) 0.1313(3)
C10_8 C 0.9385(3) 0.2624(2) 0.1312(3)
C11_8 C 0.9524(3) 0.2052(3) 0.1273(5)
H4_8 H 0.922462 0.176072 0.122122
Cu1_8 Cu 0.12968(3) 0.12968(3) 0.12968(3)
O1_8 O 0.1322(3) 0.11647(19) 0.2196(2)
C1_8 C 0.1312(3) 0.0615(3) 0.2376(2)
C2_8 C 0.1273(5) 0.0476(3) 0.2948(3)
H1_8 H 0.122122 0.077538 0.323928
O4_8 O 0.1276(3) 0.0362(2) 0.13290(19)
C6_8 C 0.1313(3) 0.0175(2) 0.1875(2)
O5_8 O 0.11647(19) 0.2196(2) 0.1322(3)
C7_8 C 0.0615(3) 0.2376(2) 0.1312(3)
C8_8 C 0.0476(3) 0.2948(3) 0.1273(5)
H3_8 H 0.077538 0.323928 0.122122
O8_8 O 0.0362(2) 0.13290(19) 0.1276(3)
C12_8 C 0.0175(2) 0.1875(2) 0.1313(3)
O9_8 O 0.2196(2) 0.1322(3) 0.11647(19)
C13_8 C 0.2376(2) 0.1312(3) 0.0615(3)
C14_8 C 0.2948(3) 0.1273(5) 0.0476(3)
H5_8 H 0.323928 0.122122 0.077538
O12_8 O 0.13290(19) 0.1276(3) 0.0362(2)
C18_8 C 0.1875(2) 0.1313(3) 0.0175(2)
loop_
_geom_bond_atom_site_label_1
_geom_bond_atom_site_label_2
_geom_bond_site_symmetry_1
_geom_bond_site_symmetry_2
Cu1 O1 1_555 1_555
O1 C1 1_555 1_555
O4 Cu1 1_555 1_555
H2 C5 1_555 1_555
C6 C1 1_555 1_555
O5 Cu1 1_555 1_555
O6 C9 1_555 1_555
C7 O5 1_555 1_555
C8 C7 1_555 1_555
H3 C8 1_555 1_555
C9 C8 1_555 1_555
O7 C10 1_555 1_555
O8 Cu1 1_555 1_555
C10 C9 1_555 1_555
C11 C10 1_555 1_555
H4 C11 1_555 1_555
C12 C7 1_555 1_555
O9 Cu1 1_555 1_555
O10 C15 1_555 1_555
C13 O9 1_555 1_555
C14 C13 1_555 1_555
H5 C14 1_555 1_555
C15 C14 1_555 1_555
O11 C16 1_555 1_555
O12 Cu1 1_555 1_555
C16 C15 1_555 1_555
C17 C16 1_555 1_555
H6 C17 1_555 1_555
C18 C13 1_555 1_555
Cu3 O6 1_555 1_555
Cu4 O10 1_555 1_555
O4 C6 1_555 1_555
C5 C6 1_555 1_555
O7 Cu3 1_555 1_555
O8 C12 1_555 1_555
C11 C12 1_555 1_555
O11 Cu4 1_555 1_555
O12 C18 1_555 1_555
C17 C18 1_555 1_555
O2 C3 1_555 1_555
C2 H1 1_555 1_555
C3 C2 1_555 1_555
O3 C4 1_555 1_555
C4 C3 1_555 1_555
Cu2 O2 1_555 1_555
O13 Cu2 1_555 1_555
O14 Cu2 1_555 1_555
O15 Cu2 1_555 1_555
O16 Cu2 1_555 1_555
O3 Cu2 1_555 1_555
Cu1_2 O1_2 1_555 1_555
O1_2 C1_2 1_555 1_555
O2_2 C3_2 1_555 1_555
C1_2 C2_2 1_555 1_555
C2_2 H1_2 1_555 1_555
C3_2 C2_2 1_555 1_555
O3_2 C4_2 1_555 1_555
O4_2 Cu1_2 1_555 1_555
C4_2 C3_2 1_555 1_555
C5_2 C4_2 1_555 1_555
H2_2 C5_2 1_555 1_555
C6_2 C1_2 1_555 1_555
O5_2 Cu1_2 1_555 1_555
C7_2 O5_2 1_555 1_555
O8_2 Cu1_2 1_555 1_555
H4_2 C11_2 1_555 1_555
C12_2 C7_2 1_555 1_555
O9_2 Cu1_2 1_555 1_555
O16 C15_2 1_555 1_555
C13_2 O9_2 1_555 1_555
C14_2 C13_2 1_555 1_555
H5_2 C14_2 1_555 1_555
C15_2 C14_2 1_555 1_555
O14 C16_2 1_555 1_555
O12_2 Cu1_2 1_555 1_555
C16_2 C15_2 1_555 1_555
C17_2 C16_2 1_555 1_555
H6_2 C17_2 1_555 1_555
C18_2 C13_2 1_555 1_555
Cu4 O2_2 1_555 1_555
O13_2 Cu4 1_555 1_555
O15_2 Cu4 1_555 1_555
O3_2 Cu4 1_555 1_555
O4_2 C6_2 1_555 1_555
C5_2 C6_2 1_555 1_555
O8_2 C12_2 1_555 1_555
C11_2 C12_2 1_555 1_555
O12_2 C18_2 1_555 1_555
C17_2 C18_2 1_555 1_555
O6_2 C9_2 1_555 1_555
H3_2 C8_2 1_555 1_555
C9_2 C8_2 1_555 1_555
O7_2 C10_2 1_555 1_555
C10_2 C9_2 1_555 1_555
Cu3_2 O6_2 1_555 1_555
O7_2 Cu3_2 1_555 1_555
Cu1_3 O1_3 1_555 1_555
O1_3 C1_3 1_555 1_555
O2_3 C3_3 1_555 1_555
C1_3 C2_3 1_555 1_555
C2_3 H1_3 1_555 1_555
C3_3 C2_3 1_555 1_555
O3_3 C4_3 1_555 1_555
O4_3 Cu1_3 1_555 1_555
C4_3 C3_3 1_555 1_555
C5_3 C4_3 1_555 1_555
H2_3 C5_3 1_555 1_555
C6_3 C1_3 1_555 1_555
O5_3 Cu1_3 1_555 1_555
O15_2 C9_3 1_555 1_555
C7_3 O5_3 1_555 1_555
C8_3 C7_3 1_555 1_555
H3_3 C8_3 1_555 1_555
C9_3 C8_3 1_555 1_555
O13_2 C10_3 1_555 1_555
O8_3 Cu1_3 1_555 1_555
C10_3 C9_3 1_555 1_555
C11_3 C10_3 1_555 1_555
H4_3 C11_3 1_555 1_555
C12_3 C7_3 1_555 1_555
O9_3 Cu1_3 1_555 1_555
C13_3 O9_3 1_555 1_555
O12_3 Cu1_3 1_555 1_555
H6_3 C17_3 1_555 1_555
C18_3 C13_3 1_555 1_555
Cu3_2 O2_3 1_555 1_555
O14_2 Cu3_2 1_555 1_555
O16_2 Cu3_2 1_555 1_555
O3_3 Cu3_2 1_555 1_555
O4_3 C6_3 1_555 1_555
C5_3 C6_3 1_555 1_555
O8_3 C12_3 1_555 1_555
C11_3 C12_3 1_555 1_555
O12_3 C18_3 1_555 1_555
C17_3 C18_3 1_555 1_555
O10_2 C15_3 1_555 1_555
H5_3 C14_3 1_555 1_555
C15_3 C14_3 1_555 1_555
O11_2 C16_3 1_555 1_555
C16_3 C15_3 1_555 1_555
Cu3 O10_2 1_555 1_555
O11_2 Cu3 1_555 1_555
O15 C9_4 1_555 1_555
H3_4 C8_4 1_555 1_555
C9_4 C8_4 1_555 1_555
O13 C10_4 1_555 1_555
C10_4 C9_4 1_555 1_555
O16_2 C15_4 1_555 1_555
H5_4 C14_4 1_555 1_555
C15_4 C14_4 1_555 1_555
O14_2 C16_4 1_555 1_555
C16_4 C15_4 1_555 1_555
O2_4 C3_4 1_555 1_555
C2_4 H1_4 1_555 1_555
C3_4 C2_4 1_555 1_555
O3_4 C4_4 1_555 1_555
C4_4 C3_4 1_555 1_555
Cu3 O2_4 1_555 1_555
O3_4 Cu3 1_555 1_555
Cu1_4 O1_4 1_555 1_555
O1_4 C1_4 1_555 1_555
O4_4 Cu1_4 1_555 1_555
H2_4 C5_4 1_555 1_555
C6_4 C1_4 1_555 1_555
O5_4 Cu1_4 1_555 1_555
C7_4 O5_4 1_555 1_555
O8_4 Cu1_4 1_555 1_555
H4_4 C11_4 1_555 1_555
C12_4 C7_4 1_555 1_555
O9_4 Cu1_4 1_555 1_555
C13_4 O9_4 1_555 1_555
O12_4 Cu1_4 1_555 1_555
H6_4 C17_4 1_555 1_555
C18_4 C13_4 1_555 1_555
O4_4 C6_4 1_555 1_555
C5_4 C6_4 1_555 1_555
O8_4 C12_4 1_555 1_555
C11_4 C12_4 1_555 1_555
O12_4 C18_4 1_555 1_555
C17_4 C18_4 1_555 1_555
O6_3 C9_5 1_555 1_555
O7_3 C10_5 1_555 1_555
C10_5 C9_5 1_555 1_555
C11_5 C10_5 1_555 1_555
H4_5 C11_5 1_555 1_555
Cu3_3 O6_3 1_555 1_555
O7_3 Cu3_3 1_555 1_555
Cu1_5 O1_5 1_555 1_555
O1_5 C1_5 1_555 1_555
O2_5 C3_5 1_555 1_555
C1_5 C2_5 1_555 1_555
C2_5 H1_5 1_555 1_555
C3_5 C2_5 1_555 1_555
O3_5 C4_5 1_555 1_555
O4_5 Cu1_5 1_555 1_555
C4_5 C3_5 1_555 1_555
C5_5 C4_5 1_555 1_555
H2_5 C5_5 1_555 1_555
C6_5 C1_5 1_555 1_555
O5_5 Cu1_5 1_555 1_555
C7_5 O5_5 1_555 1_555
C8_5 C7_5 1_555 1_555
H3_5 C8_5 1_555 1_555
O8_5 Cu1_5 1_555 1_555
C12_5 C7_5 1_555 1_555
O9_5 Cu1_5 1_555 1_555
O10_3 C15_5 1_555 1_555
C13_5 O9_5 1_555 1_555
C14_5 C13_5 1_555 1_555
H5_5 C14_5 1_555 1_555
C15_5 C14_5 1_555 1_555
O11_3 C16_5 1_555 1_555
O12_5 Cu1_5 1_555 1_555
C16_5 C15_5 1_555 1_555
C17_5 C16_5 1_555 1_555
H6_5 C17_5 1_555 1_555
C18_5 C13_5 1_555 1_555
Cu2_2 O2_5 1_555 1_555
Cu4_2 O10_3 1_555 1_555
O13_3 Cu2_2 1_555 1_555
O14_3 Cu2_2 1_555 1_555
O15_3 Cu2_2 1_555 1_555
O16_3 Cu2_2 1_555 1_555
O3_5 Cu2_2 1_555 1_555
O4_5 C6_5 1_555 1_555
C5_5 C6_5 1_555 1_555
O8_5 C12_5 1_555 1_555
O11_3 Cu4_2 1_555 1_555
O12_5 C18_5 1_555 1_555
C17_5 C18_5 1_555 1_555
O16_3 C15_6 1_555 1_555
O14_3 C16_6 1_555 1_555
C16_6 C15_6 1_555 1_555
C17_6 C16_6 1_555 1_555
H6_6 C17_6 1_555 1_555
Cu1_6 O1_6 1_555 1_555
O1_6 C1_6 1_555 1_555
O2_6 C3_6 1_555 1_555
C1_6 C2_6 1_555 1_555
C2_6 H1_6 1_555 1_555
C3_6 C2_6 1_555 1_555
O3_6 C4_6 1_555 1_555
O4_6 Cu1_6 1_555 1_555
C4_6 C3_6 1_555 1_555
C5_6 C4_6 1_555 1_555
H2_6 C5_6 1_555 1_555
C6_6 C1_6 1_555 1_555
O5_6 Cu1_6 1_555 1_555
O6_4 C9_6 1_555 1_555
C7_6 O5_6 1_555 1_555
C8_6 C7_6 1_555 1_555
H3_6 C8_6 1_555 1_555
C9_6 C8_6 1_555 1_555
O7_4 C10_6 1_555 1_555
O8_6 Cu1_6 1_555 1_555
C10_6 C9_6 1_555 1_555
C11_6 C10_6 1_555 1_555
H4_6 C11_6 1_555 1_555
C12_6 C7_6 1_555 1_555
O9_6 Cu1_6 1_555 1_555
C13_6 O9_6 1_555 1_555
C14_6 C13_6 1_555 1_555
H5_6 C14_6 1_555 1_555
O12_6 Cu1_6 1_555 1_555
C18_6 C13_6 1_555 1_555
Cu4_2 O2_6 1_555 1_555
Cu3_4 O6_4 1_555 1_555
O13_4 Cu4_2 1_555 1_555
O15_4 Cu4_2 1_555 1_555
O3_6 Cu4_2 1_555 1_555
O4_6 C6_6 1_555 1_555
C5_6 C6_6 1_555 1_555
O7_4 Cu3_4 1_555 1_555
O8_6 C12_6 1_555 1_555
C11_6 C12_6 1_555 1_555
O12_6 C18_6 1_555 1_555
O2_7 C3_7 1_555 1_555
O3_7 C4_7 1_555 1_555
C4_7 C3_7 1_555 1_555
C5_7 C4_7 1_555 1_555
H2_7 C5_7 1_555 1_555
Cu3_4 O2_7 1_555 1_555
O14_4 Cu3_4 1_555 1_555
O16_4 Cu3_4 1_555 1_555
O3_7 Cu3_4 1_555 1_555
Cu1_7 O1_7 1_555 1_555
O1_7 C1_7 1_555 1_555
C1_7 C2_7 1_555 1_555
C2_7 H1_7 1_555 1_555
O4_7 Cu1_7 1_555 1_555
C6_7 C1_7 1_555 1_555
O5_7 Cu1_7 1_555 1_555
O15_4 C9_7 1_555 1_555
C7_7 O5_7 1_555 1_555
C8_7 C7_7 1_555 1_555
H3_7 C8_7 1_555 1_555
C9_7 C8_7 1_555 1_555
O13_4 C10_7 1_555 1_555
O8_7 Cu1_7 1_555 1_555
C10_7 C9_7 1_555 1_555
C11_7 C10_7 1_555 1_555
H4_7 C11_7 1_555 1_555
C12_7 C7_7 1_555 1_555
O9_7 Cu1_7 1_555 1_555
O10_4 C15_7 1_555 1_555
C13_7 O9_7 1_555 1_555
C14_7 C13_7 1_555 1_555
H5_7 C14_7 1_555 1_555
C15_7 C14_7 1_555 1_555
O11_4 C16_7 1_555 1_555
O12_7 Cu1_7 1_555 1_555
C16_7 C15_7 1_555 1_555
C17_7 C16_7 1_555 1_555
H6_7 C17_7 1_555 1_555
C18_7 C13_7 1_555 1_555
Cu3_3 O10_4 1_555 1_555
O4_7 C6_7 1_555 1_555
O8_7 C12_7 1_555 1_555
C11_7 C12_7 1_555 1_555
O11_4 Cu3_3 1_555 1_555
O12_7 C18_7 1_555 1_555
C17_7 C18_7 1_555 1_555
O16_4 C15_8 1_555 1_555
O14_4 C16_8 1_555 1_555
C16_8 C15_8 1_555 1_555
C17_8 C16_8 1_555 1_555
H6_8 C17_8 1_555 1_555
O2_8 C3_8 1_555 1_555
O3_8 C4_8 1_555 1_555
C4_8 C3_8 1_555 1_555
C5_8 C4_8 1_555 1_555
H2_8 C5_8 1_555 1_555
Cu3_3 O2_8 1_555 1_555
O3_8 Cu3_3 1_555 1_555
O15_3 C9_8 1_555 1_555
O13_3 C10_8 1_555 1_555
C10_8 C9_8 1_555 1_555
C11_8 C10_8 1_555 1_555
H4_8 C11_8 1_555 1_555
Cu1_8 O1_8 1_555 1_555
O1_8 C1_8 1_555 1_555
C1_8 C2_8 1_555 1_555
C2_8 H1_8 1_555 1_555
O4_8 Cu1_8 1_555 1_555
C6_8 C1_8 1_555 1_555
O5_8 Cu1_8 1_555 1_555
C7_8 O5_8 1_555 1_555
C8_8 C7_8 1_555 1_555
H3_8 C8_8 1_555 1_555
O8_8 Cu1_8 1_555 1_555
C12_8 C7_8 1_555 1_555
O9_8 Cu1_8 1_555 1_555
C13_8 O9_8 1_555 1_555
C14_8 C13_8 1_555 1_555
H5_8 C14_8 1_555 1_555
O12_8 Cu1_8 1_555 1_555
C18_8 C13_8 1_555 1_555
O4_8 C6_8 1_555 1_555
O8_8 C12_8 1_555 1_555
O12_8 C18_8 1_555 1_555

#END
