
###############################################################################
#
# This file contains modified crystal structure data generated from the
# MOF subset of the Cambridge Structural Database (CSD) v543 
# hosted by the Cambridge Crystallographic Data Centre (CCDC).
#
# This work is licensed under the Creative Commons
# Attribution-NonCommercial-ShareAlike 4.0 International License.
# To view a copy of this license, visit
# http://creativecommons.org/licenses/by-nc-sa/4.0/
# or send a letter to
# Creative Commons, PO Box 1866, Mountain View, CA 94042, USA.
#
# CIF created using the CSD Python API on 29 September 2022
# The structure has been converted into the P1 space group
# The structure has a 3D framework
# The original CSD entry XENZUN is in the rhombohedral crystal system
# The framework has been calculated to contain at least 10.0% void space
# The void calculation uses a probe of radius 1.32A, grid spacing 0.4
# The framework is charged, counterions have been retained in the structure
#
###############################################################################

data_XENZUN
_chemical_formula_moiety         '(C216 H72 Na18 O162 V18 21-)n'
_symmetry_cell_setting           triclinic
_symmetry_space_group_name_H-M   'P 1'
_symmetry_Int_Tables_number      1
_space_group_name_Hall           'P 1'
loop_
_symmetry_equiv_pos_site_id
_symmetry_equiv_pos_as_xyz
1 x,y,z
_cell_length_a                   20.463(4)
_cell_length_b                   20.463(4)
_cell_length_c                   27.880(7)
_cell_angle_alpha                90
_cell_angle_beta                 90
_cell_angle_gamma                120
_cell_volume                     10110.3
loop_
_atom_site_label
_atom_site_type_symbol
_atom_site_fract_x
_atom_site_fract_y
_atom_site_fract_z
Na1 Na 0.39915(5) 0.28033(5) 0.13472(3)
Na1_2 Na 0.71967(5) 0.11882(7) 0.13472(3)
Na1_3 Na 0.88118(7) 0.60085(5) 0.13472(3)
Na1_4 Na 0.06582(5) 0.61366(5) 0.46805(3)
Na1_5 Na 0.38634(5) 0.45215(7) 0.46805(3)
Na1_6 Na 0.54785(7) 0.93418(5) 0.46805(3)
Na1_7 Na 0.73248(5) 0.94700(5) 0.80139(3)
Na1_8 Na 0.05300(5) 0.78549(7) 0.80139(3)
Na1_9 Na 0.21451(7) 0.26752(5) 0.80139(3)
Na1_10 Na 0.60085(5) 0.71967(5) 0.86528(3)
Na1_11 Na 0.28033(5) 0.88118(7) 0.86528(3)
Na1_12 Na 0.11882(7) 0.39915(5) 0.86528(3)
Na1_13 Na 0.93418(5) 0.38634(5) 0.53195(3)
Na1_14 Na 0.61366(5) 0.54785(7) 0.53195(3)
Na1_15 Na 0.45215(7) 0.06582(5) 0.53195(3)
Na1_16 Na 0.26752(5) 0.05300(5) 0.19861(3)
Na1_17 Na 0.94700(5) 0.21451(7) 0.19861(3)
Na1_18 Na 0.78549(7) 0.73248(5) 0.19861(3)
V1 V 0.411901(18) 0.098582(18) 0.120184(12)
C6 C 0.58324(11) 0.17007(11) 0.11739(7)
C7 C 0.58875(11) 0.29575(11) 0.12075(8)
H3 H 0.5363 0.2703 0.1204
C8 C 0.62643(11) 0.25484(10) 0.12099(8)
O1 O 0.61340(8) 0.13323(8) 0.12818(6)
O2 O 0.30009(7) 0.01197(8) 0.12355(5)
O3 O 0.51607(7) 0.14182(7) 0.09999(5)
O5 O 0.40076(8) 0.15778(8) 0.15147(5)
V2 V 0.765249(18) 0.020014(25) 0.213149(12)
V6 V 0.686681(25) 0.588099(18) 0.120184(12)
V7 V 0.901418(18) 0.313319(25) 0.120184(12)
C23 C 0.58683(16) 0.41676(11) 0.11739(7)
C24 C 0.82993(11) 0.41317(16) 0.11739(7)
C25 C 0.70700(16) 0.41125(11) 0.12075(8)
C26 C 0.70425(11) 0.29300(16) 0.12075(8)
H9 H 0.7340 0.4637 0.1204
H10 H 0.7297 0.2660 0.1204
C27 C 0.62841(15) 0.37357(11) 0.12099(8)
C28 C 0.74516(10) 0.37159(15) 0.12099(8)
C29 C 0.41381(12) 0.03003(17) 0.21416(7)
C31 C 0.52533(11) 0.01283(16) 0.22825(7)
H11 H 0.5432 0.0326 0.1979
C33 C 0.45883(11) 0.00726(16) 0.24513(7)
C36 C 0.39783(17) 0.18459(12) 0.03856(7)
O10 O 0.51983(11) 0.38660(8) 0.12818(6)
O11 O 0.86677(8) 0.48017(11) 0.12818(6)
O12 O 0.67864(8) 0.04521(11) 0.20978(5)
O14 O 0.62575(10) 0.48393(7) 0.09999(5)
O15 O 0.85818(7) 0.37425(10) 0.09999(5)
O20 O 0.82445(8) 0.09035(11) 0.18186(5)
O22 O 0.43980(8) 0.05025(11) 0.17174(5)
O26 O 0.35743(9) 0.02910(13) 0.23043(6)
O29 O 0.38989(11) 0.12235(8) 0.05443(5)
O30 O 0.78902(8) 0.06579(8) 0.27890(5)
O33 O 0.42232(13) 0.24333(9) 0.06147(5)
V3 V 0.313319(25) 0.411901(18) 0.879816(12)
C14 C 0.37190(17) 0.24457(12) 0.96897(7)
H6 H 0.3893 0.2879 0.9875
C16 C 0.34020(16) 0.30926(11) 0.90562(7)
C18 C 0.35138(17) 0.11975(12) 0.95839(7)
H8 H 0.3532 0.0782 0.9702
C20 C 0.37386(16) 0.18264(11) 0.98747(7)
C22 C 0.34441(16) 0.24282(11) 0.92325(7)
C30 C 0.30330(17) 0.05044(12) 0.88083(7)
C32 C 0.32050(16) 0.17916(11) 0.89492(7)
H12 H 0.3007 0.1772 0.8646
C34 C 0.32607(16) 0.11823(11) 0.91180(7)
O13 O 0.28812(11) 0.30009(7) 0.87645(5)
O17 O 0.37425(10) 0.51607(7) 0.90001(5)
O19 O 0.38573(11) 0.37403(8) 0.92024(5)
O21 O 0.24298(11) 0.40076(8) 0.84853(5)
O23 O 0.28308(11) 0.05621(7) 0.83841(5)
O25 O 0.38954(7) 0.43980(8) 0.82826(5)
O31 O 0.26754(8) 0.38989(11) 0.94557(5)
C1 C 0.24457(12) 0.87267(12) 0.03103(7)
H1 H 0.2879 0.8986 0.0125
C2 C 0.30926(11) 0.96906(11) 0.09438(7)
C3 C 0.11975(12) 0.76837(12) 0.04161(7)
H2 H 0.0782 0.7250 0.0298
C4 C 0.18264(11) 0.80878(11) 0.01253(7)
C5 C 0.24282(11) 0.89841(11) 0.07675(7)
C9 C 0.05044(12) 0.74714(12) 0.11917(7)
C10 C 0.17916(11) 0.85866(11) 0.10508(7)
H4 H 0.1772 0.8765 0.1354
C11 C 0.11823(11) 0.79216(11) 0.08820(7)
O4 O 0.37403(8) 0.98830(8) 0.07976(5)
O6 O 0.05621(7) 0.77313(8) 0.16159(5)
V8 V 0.353348(25) 0.921432(18) 0.453517(12)
C13 C 0.53934(12) 0.96143(17) 0.30230(7)
H5 H 0.5653 0.9440 0.3208
C15 C 0.63573(11) 0.99313(16) 0.23895(7)
C17 C 0.43504(12) 0.98195(17) 0.29172(7)
H7 H 0.3917 0.9801 0.3035
C19 C 0.47545(11) 0.95947(16) 0.32080(7)
C21 C 0.56508(11) 0.98892(16) 0.25658(7)
C35 C 0.45343(12) 0.93550(17) 0.37189(7)
O16 O 0.80849(7) 0.95908(10) 0.23334(5)
O18 O 0.65497(8) 0.94760(11) 0.25357(5)
O24 O 0.71692(11) 0.94379(7) 0.16159(5)
O28 O 0.39913(8) 0.94344(11) 0.38776(5)
O32 O 0.48768(9) 0.91101(13) 0.39480(5)
C12 C 0.18459(12) 0.78676(12) 0.96144(7)
O8 O 0.12235(8) 0.73246(8) 0.94557(5)
O9 O 0.24333(9) 0.82101(9) 0.93853(5)
V5 V 0.098582(18) 0.686681(25) 0.879816(12)
V9 V 0.234751(18) 0.979986(25) 0.786851(12)
O27 O 0.30423(13) 0.99499(9) 0.89710(6)
O7 O 0.99499(9) 0.69076(9) 0.10290(6)
V4 V 0.979986(25) 0.745234(18) 0.213149(12)
C1_2 C 0.12733(12) 0.37190(17) 0.03103(7)
H1_2 H 0.1014 0.3893 0.0125
C2_2 C 0.03094(11) 0.34020(16) 0.09438(7)
C3_2 C 0.23163(12) 0.35138(17) 0.04161(7)
H2_2 H 0.2750 0.3532 0.0298
C4_2 C 0.19122(11) 0.37386(16) 0.01253(7)
C5_2 C 0.10159(11) 0.34441(16) 0.07675(7)
C9_2 C 0.25286(12) 0.30330(17) 0.11917(7)
C10_2 C 0.14134(11) 0.32050(16) 0.10508(7)
H4_2 H 0.1235 0.3007 0.1354
C11_2 C 0.20784(11) 0.32607(16) 0.08820(7)
O4_2 O 0.01170(8) 0.38573(11) 0.07976(5)
O6_2 O 0.22687(8) 0.28308(11) 0.16159(5)
O7_2 O 0.30924(9) 0.30423(13) 0.10290(6)
V4_2 V 0.254766(18) 0.234751(31) 0.213149(12)
V8_2 V 0.078568(18) 0.431915(31) 0.453517(12)
C13_2 C 0.03857(17) 0.57790(21) 0.30230(7)
H5_2 H 0.0560 0.6212 0.3208
C15_2 C 0.00687(16) 0.64259(19) 0.23895(7)
C17_2 C 0.01805(17) 0.45308(21) 0.29172(7)
H7_2 H 0.0199 0.4115 0.3035
C19_2 C 0.04053(16) 0.51597(19) 0.32080(7)
C21_2 C 0.01108(16) 0.57615(19) 0.25658(7)
C35_2 C 0.06450(17) 0.51792(21) 0.37189(7)
O16_2 O 0.04092(10) 0.84940(12) 0.23334(5)
O18_2 O 0.05240(11) 0.70736(14) 0.25357(5)
O28_2 O 0.05656(11) 0.45568(14) 0.38776(5)
O32_2 O 0.08899(13) 0.57666(16) 0.39480(5)
C12_2 C 0.21324(12) 0.39783(17) 0.96144(7)
O9_2 O 0.17899(9) 0.42232(13) 0.93853(5)
V9_2 V 0.020014(25) 0.254766(31) 0.786851(12)
O27_2 O 0.00501(9) 0.30924(16) 0.89710(6)
O2_2 O 0.98803(8) 0.28812(11) 0.12355(5)
O5_2 O 0.84222(8) 0.24298(11) 0.15147(5)
C29_2 C 0.96997(17) 0.38377(21) 0.21416(7)
C31_2 C 0.98717(16) 0.51249(19) 0.22825(7)
H11_2 H 0.9674 0.5105 0.1979
C33_2 C 0.99274(16) 0.45156(19) 0.24513(7)
C36_2 C 0.81541(12) 0.21324(21) 0.03856(7)
O12_2 O 0.95479(11) 0.63342(14) 0.20978(5)
O20_2 O 0.90965(11) 0.73409(14) 0.18186(5)
O22_2 O 0.94975(11) 0.38954(14) 0.17174(5)
O26_2 O 0.97090(13) 0.32832(16) 0.23043(6)
O29_2 O 0.87765(8) 0.26754(14) 0.05443(5)
O30_2 O 0.93421(8) 0.72322(11) 0.27890(5)
O33_2 O 0.75667(9) 0.17899(16) 0.06147(5)
C14_2 C 0.75543(12) 0.12733(21) 0.96897(7)
H6_2 H 0.7121 0.1014 0.9875
C16_2 C 0.69074(11) 0.03094(19) 0.90562(7)
C18_2 C 0.88025(12) 0.23163(21) 0.95839(7)
H8_2 H 0.9218 0.2750 0.9702
C20_2 C 0.81736(11) 0.19122(19) 0.98747(7)
C22_2 C 0.75718(11) 0.10159(19) 0.92325(7)
C30_2 C 0.94956(12) 0.25286(21) 0.88083(7)
C32_2 C 0.82084(11) 0.14134(19) 0.89492(7)
H12_2 H 0.8228 0.1235 0.8646
C34_2 C 0.88177(11) 0.20784(19) 0.91180(7)
O19_2 O 0.62597(8) 0.01170(14) 0.92024(5)
O23_2 O 0.94379(7) 0.22687(13) 0.83841(5)
V3_2 V 0.588099(18) 0.901418(31) 0.879816(12)
O13_2 O 0.69991(7) 0.98803(13) 0.87645(5)
O17_2 O 0.48393(7) 0.85818(12) 0.90001(5)
O21_2 O 0.59924(8) 0.84222(14) 0.84853(5)
O25_2 O 0.56020(8) 0.94975(11) 0.82826(5)
O31_2 O 0.61011(11) 0.87765(14) 0.94557(5)
O13_3 O 0.01197(13) 0.71188(11) 0.87645(5)
O17_3 O 0.14182(12) 0.62575(10) 0.90001(5)
O21_3 O 0.15778(14) 0.75702(11) 0.84853(5)
O25_3 O 0.05025(11) 0.61046(7) 0.82826(5)
O7_3 O 0.69577(13) 0.00501(9) 0.10290(6)
C1_3 C 0.62810(17) 0.75543(12) 0.03103(7)
H1_3 H 0.6107 0.7121 0.0125
C2_3 C 0.65980(16) 0.69074(11) 0.09438(7)
C3_3 C 0.64862(17) 0.88025(12) 0.04161(7)
H2_3 H 0.6468 0.9218 0.0298
C4_3 C 0.62614(16) 0.81736(11) 0.01253(7)
C5_3 C 0.65559(16) 0.75718(11) 0.07675(7)
C9_3 C 0.69670(17) 0.94956(12) 0.11917(7)
C10_3 C 0.67950(16) 0.82084(11) 0.10508(7)
H4_3 H 0.6993 0.8228 0.1354
C11_3 C 0.67393(16) 0.88177(11) 0.08820(7)
O2_3 O 0.71188(11) 0.69991(7) 0.12355(5)
O4_3 O 0.61427(11) 0.62597(8) 0.07976(5)
O5_3 O 0.75702(11) 0.59924(8) 0.15147(5)
V8_3 V 0.568085(31) 0.646652(25) 0.453517(12)
C13_3 C 0.42210(21) 0.46066(12) 0.30230(7)
H5_3 H 0.3788 0.4347 0.3208
C15_3 C 0.35741(19) 0.36427(11) 0.23895(7)
C17_3 C 0.54692(21) 0.56496(12) 0.29172(7)
H7_3 H 0.5885 0.6083 0.3035
C19_3 C 0.48403(19) 0.52455(11) 0.32080(7)
C21_3 C 0.42385(19) 0.43492(11) 0.25658(7)
C29_3 C 0.61623(21) 0.58619(12) 0.21416(7)
C31_3 C 0.48751(19) 0.47467(11) 0.22825(7)
H11_3 H 0.4895 0.4568 0.1979
C33_3 C 0.54844(19) 0.54117(11) 0.24513(7)
C35_3 C 0.48208(21) 0.54657(12) 0.37189(7)
C36_3 C 0.78676(21) 0.60217(17) 0.03856(7)
O12_3 O 0.36658(14) 0.32136(8) 0.20978(5)
O16_3 O 0.15060(12) 0.19151(7) 0.23334(5)
O18_3 O 0.29264(14) 0.34503(8) 0.25357(5)
O20_3 O 0.26591(14) 0.17555(8) 0.18186(5)
O22_3 O 0.61046(14) 0.56020(8) 0.17174(5)
O26_3 O 0.67168(16) 0.64257(9) 0.23043(6)
O28_3 O 0.54432(14) 0.60087(8) 0.38776(5)
O29_3 O 0.73246(14) 0.61011(11) 0.05443(5)
O30_3 O 0.27678(11) 0.21098(8) 0.27890(5)
O32_3 O 0.42334(16) 0.51232(9) 0.39480(5)
O33_3 O 0.82101(16) 0.57768(13) 0.06147(5)
C12_3 C 0.60217(17) 0.81541(12) 0.96144(7)
O9_3 O 0.57768(13) 0.75667(9) 0.93853(5)
V9_3 V 0.745234(31) 0.765249(18) 0.786851(12)
C14_3 C 0.87267(21) 0.62810(17) 0.96897(7)
H6_3 H 0.8986 0.6107 0.9875
C16_3 C 0.96906(19) 0.65980(16) 0.90562(7)
C18_3 C 0.76837(21) 0.64862(17) 0.95839(7)
H8_3 H 0.7250 0.6468 0.9702
C20_3 C 0.80878(19) 0.62614(16) 0.98747(7)
C22_3 C 0.89841(19) 0.65559(16) 0.92325(7)
C30_3 C 0.74714(21) 0.69670(17) 0.88083(7)
C32_3 C 0.85866(19) 0.67950(16) 0.89492(7)
H12_3 H 0.8765 0.6993 0.8646
C34_3 C 0.79216(19) 0.67393(16) 0.91180(7)
O19_3 O 0.98830(14) 0.61427(11) 0.92024(5)
O23_3 O 0.77313(13) 0.71692(11) 0.83841(5)
O27_3 O 0.69076(16) 0.69577(13) 0.89710(6)
C6_2 C 0.24991(11) 0.50340(11) 0.45072(7)
C7_2 C 0.25542(11) 0.62908(11) 0.45408(8)
H3_2 H 0.2030 0.6036 0.4537
C8_2 C 0.29310(11) 0.58817(10) 0.45432(8)
O1_2 O 0.28007(8) 0.46656(8) 0.46151(6)
O3_2 O 0.18274(7) 0.47515(7) 0.43332(5)
O4_4 O 0.04070(8) 0.32163(8) 0.41309(5)
O5_4 O 0.06743(8) 0.49111(8) 0.48480(5)
V2_2 V 0.431915(18) 0.353348(25) 0.546483(12)
C13_4 C 0.20600(12) 0.29477(17) 0.63564(7)
H5_4 H 0.2319 0.2774 0.6542
C15_4 C 0.30239(11) 0.32647(16) 0.57229(7)
C17_4 C 0.10170(12) 0.31529(17) 0.62506(7)
H7_4 H 0.0583 0.3135 0.6369
C19_4 C 0.14211(11) 0.29281(16) 0.65414(7)
C21_4 C 0.23174(11) 0.32226(16) 0.58992(7)
C23_2 C 0.25350(16) 0.75009(11) 0.45072(7)
C24_2 C 0.49660(11) 0.74650(16) 0.45072(7)
C25_2 C 0.37367(16) 0.74458(11) 0.45408(8)
C26_2 C 0.37092(11) 0.62633(16) 0.45408(8)
H9_2 H 0.4007 0.7970 0.4537
H10_2 H 0.3964 0.5993 0.4537
C27_2 C 0.29508(15) 0.70690(11) 0.45432(8)
C28_2 C 0.41183(10) 0.70492(15) 0.45432(8)
C29_4 C 0.08047(12) 0.36337(17) 0.54750(7)
C31_4 C 0.19199(11) 0.34617(16) 0.56159(7)
H11_4 H 0.2098 0.3660 0.5313
C33_4 C 0.12549(11) 0.34060(16) 0.57847(7)
C35_4 C 0.12009(12) 0.26884(17) 0.70523(7)
O10_2 O 0.18650(11) 0.71993(8) 0.46151(6)
O11_2 O 0.53344(8) 0.81350(11) 0.46151(6)
O12_4 O 0.34530(8) 0.37855(11) 0.54312(5)
O14_2 O 0.29242(10) 0.81726(7) 0.43332(5)
O15_2 O 0.52485(7) 0.70758(10) 0.43332(5)
O16_4 O 0.47515(7) 0.29242(10) 0.56668(5)
O18_4 O 0.32163(8) 0.28094(11) 0.58691(5)
O20_4 O 0.49111(8) 0.42369(11) 0.51520(5)
O22_4 O 0.10646(8) 0.38359(11) 0.50508(5)
O24_2 O 0.38359(11) 0.27712(7) 0.49492(5)
O26_4 O 0.02409(9) 0.36244(13) 0.56377(6)
O28_4 O 0.06579(8) 0.27678(11) 0.72110(5)
O30_4 O 0.45568(8) 0.39913(8) 0.61224(5)
O32_4 O 0.15434(9) 0.24435(13) 0.72814(5)
C1_4 C 0.91124(12) 0.20600(12) 0.36436(7)
H1_4 H 0.9546 0.2319 0.3458
C2_4 C 0.97593(11) 0.30239(11) 0.42771(7)
C3_4 C 0.78642(12) 0.10170(12) 0.37494(7)
H2_4 H 0.7449 0.0583 0.3631
C4_4 C 0.84931(11) 0.14211(11) 0.34586(7)
C5_4 C 0.90949(11) 0.23174(11) 0.41008(7)
C9_4 C 0.71711(12) 0.08047(12) 0.45250(7)
C10_4 C 0.84583(11) 0.19199(11) 0.43841(7)
H4_4 H 0.8439 0.2098 0.4687
C11_4 C 0.78490(11) 0.12549(11) 0.42153(7)
C12_4 C 0.85126(12) 0.12009(12) 0.29477(7)
O2_4 O 0.96676(7) 0.34530(8) 0.45688(5)
O6_3 O 0.72288(7) 0.10646(8) 0.49492(5)
O7_4 O 0.66166(9) 0.02409(9) 0.43623(6)
O9_4 O 0.91000(9) 0.15434(9) 0.27186(5)
V4_3 V 0.646652(25) 0.078568(18) 0.546483(12)
O16_5 O 0.70758(10) 0.18274(12) 0.56668(5)
O18_5 O 0.71906(11) 0.04070(14) 0.58691(5)
O20_5 O 0.57631(11) 0.06743(14) 0.51520(5)
O30_5 O 0.60087(8) 0.05656(11) 0.61224(5)
C1_5 C 0.79400(12) 0.70523(17) 0.36436(7)
H1_5 H 0.7681 0.7226 0.3458
C2_5 C 0.69761(11) 0.67353(16) 0.42771(7)
C3_5 C 0.89830(12) 0.68471(17) 0.37494(7)
H2_5 H 0.9417 0.6865 0.3631
C4_5 C 0.85789(11) 0.70719(16) 0.34586(7)
C5_5 C 0.76826(11) 0.67774(16) 0.41008(7)
C9_5 C 0.91953(12) 0.63663(17) 0.45250(7)
C10_5 C 0.80801(11) 0.65383(16) 0.43841(7)
H4_5 H 0.7902 0.6340 0.4687
C11_5 C 0.87451(11) 0.65940(16) 0.42153(7)
C12_5 C 0.87991(12) 0.73116(17) 0.29477(7)
O2_5 O 0.65470(8) 0.62145(11) 0.45688(5)
O4_5 O 0.67837(8) 0.71906(11) 0.41309(5)
O5_5 O 0.50889(8) 0.57631(11) 0.48480(5)
O6_4 O 0.89354(8) 0.61641(11) 0.49492(5)
O7_5 O 0.97591(9) 0.63756(13) 0.43623(6)
O9_5 O 0.84566(9) 0.75565(13) 0.27186(5)
V4_4 V 0.921432(18) 0.568085(31) 0.546483(12)
C13_5 C 0.70523(17) 0.91124(21) 0.63564(7)
H5_5 H 0.7226 0.9546 0.6542
C15_5 C 0.67353(16) 0.97593(19) 0.57229(7)
C17_5 C 0.68471(17) 0.78642(21) 0.62506(7)
H7_5 H 0.6865 0.7449 0.6369
C19_5 C 0.70719(16) 0.84931(19) 0.65414(7)
C21_5 C 0.67774(16) 0.90949(19) 0.58992(7)
C29_5 C 0.63663(17) 0.71711(21) 0.54750(7)
C31_5 C 0.65383(16) 0.84583(19) 0.56159(7)
H11_5 H 0.6340 0.8439 0.5313
C33_5 C 0.65940(16) 0.78490(19) 0.57847(7)
C35_5 C 0.73116(17) 0.85126(21) 0.70523(7)
O12_5 O 0.62145(11) 0.96676(14) 0.54312(5)
O22_5 O 0.61641(11) 0.72288(14) 0.50508(5)
O26_5 O 0.63756(13) 0.66166(16) 0.56377(6)
O28_5 O 0.72322(11) 0.78902(14) 0.72110(5)
O32_5 O 0.75565(13) 0.91000(16) 0.72814(5)
C1_6 C 0.29477(17) 0.08876(12) 0.36436(7)
H1_6 H 0.2774 0.0454 0.3458
C2_6 C 0.32647(16) 0.02407(11) 0.42771(7)
C3_6 C 0.31529(17) 0.21358(12) 0.37494(7)
H2_6 H 0.3135 0.2551 0.3631
C4_6 C 0.29281(16) 0.15069(11) 0.34586(7)
C5_6 C 0.32226(16) 0.09051(11) 0.41008(7)
C9_6 C 0.36337(17) 0.28289(12) 0.45250(7)
C10_6 C 0.34617(16) 0.15417(11) 0.43841(7)
H4_6 H 0.3660 0.1561 0.4687
C11_6 C 0.34060(16) 0.21510(11) 0.42153(7)
C12_6 C 0.26884(17) 0.14874(12) 0.29477(7)
O2_6 O 0.37855(11) 0.03324(7) 0.45688(5)
O7_6 O 0.36244(13) 0.33834(9) 0.43623(6)
O9_6 O 0.24435(13) 0.09000(9) 0.27186(5)
O4_6 O 0.28094(11) 0.95930(8) 0.41309(5)
O5_6 O 0.42369(11) 0.93257(8) 0.48480(5)
C13_6 C 0.08876(21) 0.79400(12) 0.63564(7)
H5_6 H 0.0454 0.7681 0.6542
C15_6 C 0.02407(19) 0.69761(11) 0.57229(7)
C17_6 C 0.21358(21) 0.89830(12) 0.62506(7)
H7_6 H 0.2551 0.9417 0.6369
C19_6 C 0.15069(19) 0.85789(11) 0.65414(7)
C21_6 C 0.09051(19) 0.76826(11) 0.58992(7)
C29_6 C 0.28289(21) 0.91953(12) 0.54750(7)
C31_6 C 0.15417(19) 0.80801(11) 0.56159(7)
H11_6 H 0.1561 0.7902 0.5313
C33_6 C 0.21510(19) 0.87451(11) 0.57847(7)
C35_6 C 0.14874(21) 0.87991(12) 0.70523(7)
O12_6 O 0.03324(14) 0.65470(8) 0.54312(5)
O22_6 O 0.27712(14) 0.89354(8) 0.50508(5)
O26_6 O 0.33834(16) 0.97591(9) 0.56377(6)
O28_6 O 0.21098(14) 0.93421(8) 0.72110(5)
O32_6 O 0.09000(16) 0.84566(9) 0.72814(5)
O16_6 O 0.81726(12) 0.52485(7) 0.56668(5)
O18_6 O 0.95930(14) 0.67837(8) 0.58691(5)
O20_6 O 0.93257(14) 0.50889(8) 0.51520(5)
O30_6 O 0.94344(11) 0.54432(8) 0.61224(5)
C24_3 C 0.16326(11) 0.07984(16) 0.78406(7)
C25_3 C 0.04033(16) 0.07792(11) 0.78742(8)
H9_3 H 0.0673 0.1304 0.7871
C28_3 C 0.07849(10) 0.03826(15) 0.78766(8)
O11_3 O 0.20010(8) 0.14684(11) 0.79485(6)
O15_3 O 0.19151(7) 0.04092(10) 0.76666(5)
C26_3 C 0.03758(11) 0.95967(16) 0.78742(8)
H10_3 H 0.0630 0.9327 0.7871
C23_3 C 0.92016(16) 0.08343(11) 0.78406(7)
C27_3 C 0.96174(15) 0.04024(11) 0.78766(8)
O10_3 O 0.85316(11) 0.05327(8) 0.79485(6)
O14_3 O 0.95908(10) 0.15060(7) 0.76666(5)
C1_7 C 0.57790(12) 0.53934(12) 0.69770(7)
H1_7 H 0.6212 0.5653 0.6792
C2_7 C 0.64259(11) 0.63573(11) 0.76105(7)
C3_7 C 0.45308(12) 0.43504(12) 0.70828(7)
H2_7 H 0.4115 0.3917 0.6965
C4_7 C 0.51597(11) 0.47545(11) 0.67920(7)
C5_7 C 0.57615(11) 0.56508(11) 0.74342(7)
C6_3 C 0.91657(11) 0.83674(11) 0.78406(7)
C7_3 C 0.92208(11) 0.96242(11) 0.78742(8)
H3_3 H 0.8696 0.9370 0.7871
C8_3 C 0.95976(11) 0.92151(10) 0.78766(8)
C9_7 C 0.38377(12) 0.41381(12) 0.78584(7)
C10_7 C 0.51249(11) 0.52533(11) 0.77175(7)
H4_7 H 0.5105 0.5432 0.8021
C11_7 C 0.45156(11) 0.45883(11) 0.75487(7)
C12_7 C 0.51792(12) 0.45343(12) 0.62811(7)
O1_3 O 0.94673(8) 0.79990(8) 0.79485(6)
O2_7 O 0.63342(7) 0.67864(8) 0.79022(5)
O3_3 O 0.84940(7) 0.80849(7) 0.76666(5)
O4_7 O 0.70736(8) 0.65497(8) 0.74643(5)
O5_7 O 0.73409(8) 0.82445(8) 0.81814(5)
O7_7 O 0.32832(9) 0.35743(9) 0.76957(6)
O9_7 O 0.57666(9) 0.48768(9) 0.60520(5)
C1_8 C 0.46066(12) 0.03857(17) 0.69770(7)
H1_8 H 0.4347 0.0560 0.6792
C2_8 C 0.36427(11) 0.00687(16) 0.76105(7)
C3_8 C 0.56496(12) 0.01805(17) 0.70828(7)
H2_8 H 0.6083 0.0199 0.6965
C4_8 C 0.52455(11) 0.04053(16) 0.67920(7)
C5_8 C 0.43492(11) 0.01108(16) 0.74342(7)
C12_8 C 0.54657(12) 0.06450(17) 0.62811(7)
O4_8 O 0.34503(8) 0.05240(11) 0.74643(5)
O9_8 O 0.51232(9) 0.08899(13) 0.60520(5)
C9_8 C 0.58619(12) 0.96997(17) 0.78584(7)
C10_8 C 0.47467(11) 0.98717(16) 0.77175(7)
H4_8 H 0.4568 0.9674 0.8021
C11_8 C 0.54117(11) 0.99274(16) 0.75487(7)
O2_8 O 0.32136(8) 0.95479(11) 0.79022(5)
O5_8 O 0.17555(8) 0.90965(11) 0.81814(5)
O7_8 O 0.64257(9) 0.97090(13) 0.76957(6)
C9_9 C 0.03003(17) 0.61623(12) 0.78584(7)
C10_9 C 0.01283(16) 0.48751(11) 0.77175(7)
H4_9 H 0.0326 0.4895 0.8021
C11_9 C 0.00726(16) 0.54844(11) 0.75487(7)
O2_9 O 0.04521(11) 0.36658(7) 0.79022(5)
O5_9 O 0.09035(11) 0.26591(8) 0.81814(5)
O7_9 O 0.02910(13) 0.67168(9) 0.76957(6)
C1_9 C 0.96143(17) 0.42210(12) 0.69770(7)
H1_9 H 0.9440 0.3788 0.6792
C2_9 C 0.99313(16) 0.35741(11) 0.76105(7)
C3_9 C 0.98195(17) 0.54692(12) 0.70828(7)
H2_9 H 0.9801 0.5885 0.6965
C4_9 C 0.95947(16) 0.48403(11) 0.67920(7)
C5_9 C 0.98892(16) 0.42385(11) 0.74342(7)
C12_9 C 0.93550(17) 0.48208(12) 0.62811(7)
O4_9 O 0.94760(11) 0.29264(8) 0.74643(5)
O9_9 O 0.91101(13) 0.42334(9) 0.60520(5)
C6_4 C 0.41676(11) 0.82993(11) 0.88261(7)
C7_4 C 0.41125(11) 0.70425(11) 0.87925(8)
H3_4 H 0.4637 0.7297 0.8796
C8_4 C 0.37357(11) 0.74516(10) 0.87901(8)
O1_4 O 0.38660(8) 0.86677(8) 0.87182(6)
C23_4 C 0.41317(16) 0.58324(11) 0.88261(7)
C24_4 C 0.17007(11) 0.58683(16) 0.88261(7)
C25_4 C 0.29300(16) 0.58875(11) 0.87925(8)
C26_4 C 0.29575(11) 0.70700(16) 0.87925(8)
H9_4 H 0.2660 0.5363 0.8796
H10_4 H 0.2703 0.7340 0.8796
C27_4 C 0.37159(15) 0.62643(11) 0.87901(8)
C28_4 C 0.25484(10) 0.62841(15) 0.87901(8)
O10_4 O 0.48017(11) 0.61340(8) 0.87182(6)
O11_4 O 0.13323(8) 0.51983(11) 0.87182(6)
C6_5 C 0.75009(11) 0.49660(11) 0.54928(7)
C7_5 C 0.74458(11) 0.37092(11) 0.54592(8)
H3_5 H 0.7970 0.3964 0.5463
C8_5 C 0.70690(11) 0.41183(10) 0.54568(8)
O1_5 O 0.71993(8) 0.53344(8) 0.53849(6)
C23_5 C 0.74650(16) 0.24991(11) 0.54928(7)
C24_5 C 0.50340(11) 0.25350(16) 0.54928(7)
C25_5 C 0.62633(16) 0.25542(11) 0.54592(8)
C26_5 C 0.62908(11) 0.37367(16) 0.54592(8)
H9_5 H 0.5993 0.2030 0.5463
H10_5 H 0.6036 0.4007 0.5463
C27_5 C 0.70492(15) 0.29310(11) 0.54568(8)
C28_5 C 0.58817(10) 0.29508(15) 0.54568(8)
O10_5 O 0.81350(11) 0.28007(8) 0.53849(6)
O11_5 O 0.46656(8) 0.18650(11) 0.53849(6)
C6_6 C 0.08343(11) 0.16326(11) 0.21594(7)
C7_6 C 0.07792(11) 0.03758(11) 0.21258(8)
H3_6 H 0.1304 0.0630 0.2129
C8_6 C 0.04024(11) 0.07849(10) 0.21234(8)
O1_6 O 0.05327(8) 0.20010(8) 0.20515(6)
C23_6 C 0.07984(16) 0.91657(11) 0.21594(7)
C27_6 C 0.03826(15) 0.95976(11) 0.21234(8)
O10_6 O 0.14684(11) 0.94673(8) 0.20515(6)
C26_6 C 0.96242(11) 0.04033(16) 0.21258(8)
H10_6 H 0.9370 0.0673 0.2129
C24_6 C 0.83674(11) 0.92016(16) 0.21594(7)
C25_6 C 0.95967(16) 0.92208(11) 0.21258(8)
H9_6 H 0.9327 0.8696 0.2129
C28_6 C 0.92151(10) 0.96174(15) 0.21234(8)
O11_6 O 0.79990(8) 0.85316(11) 0.20515(6)
loop_
_geom_bond_atom_site_label_1
_geom_bond_atom_site_label_2
_geom_bond_site_symmetry_1
_geom_bond_site_symmetry_2
V1 O2 1_555 1_555
C6 C8 1_555 1_555
C7 H3 1_555 1_555
C8 C7 1_555 1_555
O1 C6 1_555 1_555
O3 V1 1_555 1_555
O5 V1 1_555 1_555
V2 O12 1_555 1_555
V6 O14 1_555 1_555
V7 O15 1_555 1_555
C23 C27 1_555 1_555
C24 C28 1_555 1_555
C25 H9 1_555 1_555
C26 C8 1_555 1_555
H10 C26 1_555 1_555
C27 C7 1_555 1_555
C28 C25 1_555 1_555
C29 C33 1_555 1_555
H11 C31 1_555 1_555
O10 C23 1_555 1_555
O11 C24 1_555 1_555
O14 C23 1_555 1_555
O15 C24 1_555 1_555
O20 V2 1_555 1_555
O22 V1 1_555 1_555
O26 C29 1_555 1_555
O29 V1 1_555 1_555
O30 V2 1_555 1_555
O33 C36 1_555 1_555
C6 O3 1_555 1_555
C25 C27 1_555 1_555
C26 C28 1_555 1_555
C29 O22 1_555 1_555
C31 C33 1_555 1_555
C36 O29 1_555 1_555
V3 O13 1_555 1_555
C14 H6 1_555 1_555
C16 C22 1_555 1_555
C18 H8 1_555 1_555
C20 C14 1_555 1_555
C22 C14 1_555 1_555
C30 C34 1_555 1_555
C32 C22 1_555 1_555
H12 C32 1_555 1_555
C34 C18 1_555 1_555
O13 C16 1_555 1_555
O17 V3 1_555 1_555
O19 V3 1_555 1_555
O21 V3 1_555 1_555
O23 C30 1_555 1_555
O25 V3 1_555 1_555
O31 V3 1_555 1_555
C16 O19 1_555 1_555
C18 C20 1_555 1_555
C32 C34 1_555 1_555
C1 H1 1_555 1_555
C2 C5 1_555 1_555
C3 H2 1_555 1_555
C4 C1 1_555 1_555
C5 C1 1_555 1_555
C9 C11 1_555 1_555
C10 C5 1_555 1_555
H4 C10 1_555 1_555
C11 C3 1_555 1_555
O6 C9 1_555 1_555
V8 O28 1_555 1_555
C13 H5 1_555 1_555
C15 C21 1_555 1_555
C17 H7 1_555 1_555
C19 C13 1_555 1_555
C21 C13 1_555 1_555
C35 C19 1_555 1_555
O28 C35 1_555 1_555
O32 C35 1_555 1_555
C2 O4 1_555 1_555
C3 C4 1_555 1_555
C10 C11 1_555 1_555
C15 O18 1_555 1_555
C17 C19 1_555 1_555
O8 C12 1_555 1_555
O9 C12 1_555 1_555
V5 O8 1_555 1_555
C1_2 H1_2 1_555 1_555
C2_2 C5_2 1_555 1_555
C3_2 H2_2 1_555 1_555
C4_2 C1_2 1_555 1_555
C5_2 C1_2 1_555 1_555
C9_2 C11_2 1_555 1_555
C10_2 C5_2 1_555 1_555
H4_2 C10_2 1_555 1_555
C11_2 C3_2 1_555 1_555
O6_2 C9_2 1_555 1_555
O7_2 C9_2 1_555 1_555
V4_2 O6_2 1_555 1_555
V8_2 O28_2 1_555 1_555
C13_2 H5_2 1_555 1_555
C15_2 C21_2 1_555 1_555
C17_2 H7_2 1_555 1_555
C19_2 C13_2 1_555 1_555
C21_2 C13_2 1_555 1_555
C35_2 C19_2 1_555 1_555
O28_2 C35_2 1_555 1_555
O32_2 C35_2 1_555 1_555
C2_2 O4_2 1_555 1_555
C3_2 C4_2 1_555 1_555
C10_2 C11_2 1_555 1_555
C15_2 O18_2 1_555 1_555
C17_2 C19_2 1_555 1_555
O31 C12_2 1_555 1_555
O9_2 C12_2 1_555 1_555
V7 O2_2 1_555 1_555
O5_2 V7 1_555 1_555
V4 O12_2 1_555 1_555
C29_2 C33_2 1_555 1_555
H11_2 C31_2 1_555 1_555
O20_2 V4 1_555 1_555
O22_2 V7 1_555 1_555
O26_2 C29_2 1_555 1_555
O29_2 V7 1_555 1_555
O30_2 V4 1_555 1_555
O33_2 C36_2 1_555 1_555
C29_2 O22_2 1_555 1_555
C31_2 C33_2 1_555 1_555
C36_2 O29_2 1_555 1_555
C14_2 H6_2 1_555 1_555
C16_2 C22_2 1_555 1_555
C18_2 H8_2 1_555 1_555
C20_2 C14_2 1_555 1_555
C22_2 C14_2 1_555 1_555
C30_2 C34_2 1_555 1_555
C32_2 C22_2 1_555 1_555
H12_2 C32_2 1_555 1_555
C34_2 C18_2 1_555 1_555
O23_2 C30_2 1_555 1_555
C16_2 O19_2 1_555 1_555
C18_2 C20_2 1_555 1_555
C32_2 C34_2 1_555 1_555
V3_2 O13_2 1_555 1_555
O17_2 V3_2 1_555 1_555
O21_2 V3_2 1_555 1_555
O25_2 V3_2 1_555 1_555
O31_2 V3_2 1_555 1_555
V5 O13_3 1_555 1_555
O17_3 V5 1_555 1_555
O21_3 V5 1_555 1_555
O25_3 V5 1_555 1_555
V6 O2_3 1_555 1_555
C1_3 H1_3 1_555 1_555
C2_3 C5_3 1_555 1_555
C3_3 H2_3 1_555 1_555
C4_3 C1_3 1_555 1_555
C5_3 C1_3 1_555 1_555
C9_3 C11_3 1_555 1_555
C10_3 C5_3 1_555 1_555
H4_3 C10_3 1_555 1_555
C11_3 C3_3 1_555 1_555
O2_3 C2_3 1_555 1_555
O4_3 V6 1_555 1_555
O5_3 V6 1_555 1_555
O24 C9_3 1_555 1_555
V4_2 O12_3 1_555 1_555
V8_3 O28_3 1_555 1_555
C13_3 H5_3 1_555 1_555
C15_3 C21_3 1_555 1_555
C17_3 H7_3 1_555 1_555
C19_3 C13_3 1_555 1_555
C21_3 C13_3 1_555 1_555
C29_3 C33_3 1_555 1_555
C31_3 C21_3 1_555 1_555
H11_3 C31_3 1_555 1_555
C33_3 C17_3 1_555 1_555
C35_3 C19_3 1_555 1_555
O12_3 C15_3 1_555 1_555
O16_3 V4_2 1_555 1_555
O18_3 V4_2 1_555 1_555
O20_3 V4_2 1_555 1_555
O22_3 V6 1_555 1_555
O26_3 C29_3 1_555 1_555
O28_3 C35_3 1_555 1_555
O29_3 V6 1_555 1_555
O30_3 V4_2 1_555 1_555
O32_3 C35_3 1_555 1_555
O33_3 C36_3 1_555 1_555
C2_3 O4_3 1_555 1_555
C3_3 C4_3 1_555 1_555
C10_3 C11_3 1_555 1_555
C15_3 O18_3 1_555 1_555
C17_3 C19_3 1_555 1_555
C29_3 O22_3 1_555 1_555
C31_3 C33_3 1_555 1_555
C36_3 O29_3 1_555 1_555
O31_2 C12_3 1_555 1_555
O9_3 C12_3 1_555 1_555
V9_3 O23_3 1_555 1_555
C14_3 H6_3 1_555 1_555
C16_3 C22_3 1_555 1_555
C18_3 H8_3 1_555 1_555
C20_3 C14_3 1_555 1_555
C22_3 C14_3 1_555 1_555
C30_3 C34_3 1_555 1_555
C32_3 C22_3 1_555 1_555
H12_3 C32_3 1_555 1_555
C34_3 C18_3 1_555 1_555
O23_3 C30_3 1_555 1_555
O27_3 C30_3 1_555 1_555
C16_3 O19_3 1_555 1_555
C18_3 C20_3 1_555 1_555
C32_3 C34_3 1_555 1_555
C6_2 C8_2 1_555 1_555
C7_2 H3_2 1_555 1_555
C8_2 C7_2 1_555 1_555
O1_2 C6_2 1_555 1_555
O3_2 V8_2 1_555 1_555
O4_4 V8_2 1_555 1_555
O5_4 V8_2 1_555 1_555
V2_2 O12_4 1_555 1_555
V8 O14_2 1_555 1_555
V8_3 O15_2 1_555 1_555
V9_2 O28_4 1_555 1_555
C13_4 H5_4 1_555 1_555
C15_4 C21_4 1_555 1_555
C17_4 H7_4 1_555 1_555
C19_4 C13_4 1_555 1_555
C21_4 C13_4 1_555 1_555
C23_2 C27_2 1_555 1_555
C24_2 C28_2 1_555 1_555
C25_2 H9_2 1_555 1_555
C26_2 C8_2 1_555 1_555
H10_2 C26_2 1_555 1_555
C27_2 C7_2 1_555 1_555
C28_2 C25_2 1_555 1_555
C29_4 C33_4 1_555 1_555
C31_4 C21_4 1_555 1_555
H11_4 C31_4 1_555 1_555
C33_4 C17_4 1_555 1_555
C35_4 C19_4 1_555 1_555
O10_2 C23_2 1_555 1_555
O11_2 C24_2 1_555 1_555
O12_4 C15_4 1_555 1_555
O14_2 C23_2 1_555 1_555
O15_2 C24_2 1_555 1_555
O16_4 V2_2 1_555 1_555
O18_4 V2_2 1_555 1_555
O20_4 V2_2 1_555 1_555
O22_4 V8_2 1_555 1_555
O24_2 V2_2 1_555 1_555
O26_4 C29_4 1_555 1_555
O28_4 C35_4 1_555 1_555
O30_4 V2_2 1_555 1_555
O32_4 C35_4 1_555 1_555
C6_2 O3_2 1_555 1_555
C15_4 O18_4 1_555 1_555
C17_4 C19_4 1_555 1_555
C25_2 C27_2 1_555 1_555
C26_2 C28_2 1_555 1_555
C29_4 O22_4 1_555 1_555
C31_4 C33_4 1_555 1_555
C1_4 H1_4 1_555 1_555
C2_4 C5_4 1_555 1_555
C3_4 H2_4 1_555 1_555
C4_4 C1_4 1_555 1_555
C5_4 C1_4 1_555 1_555
C9_4 C11_4 1_555 1_555
C10_4 C5_4 1_555 1_555
H4_4 C10_4 1_555 1_555
C11_4 C3_4 1_555 1_555
C12_4 C4_4 1_555 1_555
O2_4 C2_4 1_555 1_555
O6_3 C9_4 1_555 1_555
O7_4 C9_4 1_555 1_555
O30 C12_4 1_555 1_555
O9_4 C12_4 1_555 1_555
V4_3 O6_3 1_555 1_555
C3_4 C4_4 1_555 1_555
C10_4 C11_4 1_555 1_555
O16_5 V4_3 1_555 1_555
O18_5 V4_3 1_555 1_555
O20_5 V4_3 1_555 1_555
O30_5 V4_3 1_555 1_555
V8_3 O2_5 1_555 1_555
C1_5 H1_5 1_555 1_555
C2_5 C5_5 1_555 1_555
C3_5 H2_5 1_555 1_555
C4_5 C1_5 1_555 1_555
C5_5 C1_5 1_555 1_555
C9_5 C11_5 1_555 1_555
C10_5 C5_5 1_555 1_555
H4_5 C10_5 1_555 1_555
C11_5 C3_5 1_555 1_555
C12_5 C4_5 1_555 1_555
O2_5 C2_5 1_555 1_555
O4_5 V8_3 1_555 1_555
O5_5 V8_3 1_555 1_555
O6_4 C9_5 1_555 1_555
O7_5 C9_5 1_555 1_555
O30_2 C12_5 1_555 1_555
O9_5 C12_5 1_555 1_555
V4_4 O6_4 1_555 1_555
V9_3 O28_5 1_555 1_555
C13_5 H5_5 1_555 1_555
C15_5 C21_5 1_555 1_555
C17_5 H7_5 1_555 1_555
C19_5 C13_5 1_555 1_555
C21_5 C13_5 1_555 1_555
C29_5 C33_5 1_555 1_555
C31_5 C21_5 1_555 1_555
H11_5 C31_5 1_555 1_555
C33_5 C17_5 1_555 1_555
C35_5 C19_5 1_555 1_555
O12_5 C15_5 1_555 1_555
O22_5 V8_3 1_555 1_555
O26_5 C29_5 1_555 1_555
O28_5 C35_5 1_555 1_555
O32_5 C35_5 1_555 1_555
C2_5 O4_5 1_555 1_555
C3_5 C4_5 1_555 1_555
C10_5 C11_5 1_555 1_555
C17_5 C19_5 1_555 1_555
C29_5 O22_5 1_555 1_555
C31_5 C33_5 1_555 1_555
C1_6 H1_6 1_555 1_555
C2_6 C5_6 1_555 1_555
C3_6 H2_6 1_555 1_555
C4_6 C1_6 1_555 1_555
C5_6 C1_6 1_555 1_555
C9_6 C11_6 1_555 1_555
C10_6 C5_6 1_555 1_555
H4_6 C10_6 1_555 1_555
C11_6 C3_6 1_555 1_555
C12_6 C4_6 1_555 1_555
O2_6 C2_6 1_555 1_555
O24_2 C9_6 1_555 1_555
O7_6 C9_6 1_555 1_555
O30_3 C12_6 1_555 1_555
O9_6 C12_6 1_555 1_555
C3_6 C4_6 1_555 1_555
C10_6 C11_6 1_555 1_555
O4_6 V8 1_555 1_555
O5_6 V8 1_555 1_555
V9 O28_6 1_555 1_555
C13_6 H5_6 1_555 1_555
C15_6 C21_6 1_555 1_555
C17_6 H7_6 1_555 1_555
C19_6 C13_6 1_555 1_555
C21_6 C13_6 1_555 1_555
C29_6 C33_6 1_555 1_555
C31_6 C21_6 1_555 1_555
H11_6 C31_6 1_555 1_555
C33_6 C17_6 1_555 1_555
C35_6 C19_6 1_555 1_555
O12_6 C15_6 1_555 1_555
O22_6 V8 1_555 1_555
O26_6 C29_6 1_555 1_555
O28_6 C35_6 1_555 1_555
O32_6 C35_6 1_555 1_555
C17_6 C19_6 1_555 1_555
C29_6 O22_6 1_555 1_555
C31_6 C33_6 1_555 1_555
O16_6 V4_4 1_555 1_555
O18_6 V4_4 1_555 1_555
O20_6 V4_4 1_555 1_555
O30_6 V4_4 1_555 1_555
C24_3 C28_3 1_555 1_555
C25_3 H9_3 1_555 1_555
C28_3 C25_3 1_555 1_555
O11_3 C24_3 1_555 1_555
O15_3 C24_3 1_555 1_555
H10_3 C26_3 1_555 1_555
C23_3 C27_3 1_555 1_555
O10_3 C23_3 1_555 1_555
O14_3 C23_3 1_555 1_555
V9_3 O2_7 1_555 1_555
C1_7 H1_7 1_555 1_555
C2_7 C5_7 1_555 1_555
C3_7 H2_7 1_555 1_555
C4_7 C1_7 1_555 1_555
C5_7 C1_7 1_555 1_555
C6_3 C8_3 1_555 1_555
C7_3 H3_3 1_555 1_555
C8_3 C7_3 1_555 1_555
C9_7 C11_7 1_555 1_555
C10_7 C5_7 1_555 1_555
H4_7 C10_7 1_555 1_555
C11_7 C3_7 1_555 1_555
C12_7 C4_7 1_555 1_555
O1_3 C6_3 1_555 1_555
O2_7 C2_7 1_555 1_555
O3_3 V9_3 1_555 1_555
O4_7 V9_3 1_555 1_555
O5_7 V9_3 1_555 1_555
O25 C9_7 1_555 1_555
O7_7 C9_7 1_555 1_555
O30_4 C12_7 1_555 1_555
O9_7 C12_7 1_555 1_555
C2_7 O4_7 1_555 1_555
C3_7 C4_7 1_555 1_555
C6_3 O3_3 1_555 1_555
C10_7 C11_7 1_555 1_555
C1_8 H1_8 1_555 1_555
C2_8 C5_8 1_555 1_555
C3_8 H2_8 1_555 1_555
C4_8 C1_8 1_555 1_555
C5_8 C1_8 1_555 1_555
C12_8 C4_8 1_555 1_555
O30_5 C12_8 1_555 1_555
O9_8 C12_8 1_555 1_555
C2_8 O4_8 1_555 1_555
C3_8 C4_8 1_555 1_555
V9 O2_8 1_555 1_555
C9_8 C11_8 1_555 1_555
H4_8 C10_8 1_555 1_555
O5_8 V9 1_555 1_555
O25_2 C9_8 1_555 1_555
O7_8 C9_8 1_555 1_555
C10_8 C11_8 1_555 1_555
V9_2 O2_9 1_555 1_555
C9_9 C11_9 1_555 1_555
H4_9 C10_9 1_555 1_555
O5_9 V9_2 1_555 1_555
O25_3 C9_9 1_555 1_555
O7_9 C9_9 1_555 1_555
C10_9 C11_9 1_555 1_555
C1_9 H1_9 1_555 1_555
C2_9 C5_9 1_555 1_555
C3_9 H2_9 1_555 1_555
C4_9 C1_9 1_555 1_555
C5_9 C1_9 1_555 1_555
C12_9 C4_9 1_555 1_555
O30_6 C12_9 1_555 1_555
O9_9 C12_9 1_555 1_555
C2_9 O4_9 1_555 1_555
C3_9 C4_9 1_555 1_555
C6_4 C8_4 1_555 1_555
C7_4 H3_4 1_555 1_555
C8_4 C7_4 1_555 1_555
O1_4 C6_4 1_555 1_555
C23_4 C27_4 1_555 1_555
C24_4 C28_4 1_555 1_555
C25_4 H9_4 1_555 1_555
C26_4 C8_4 1_555 1_555
H10_4 C26_4 1_555 1_555
C27_4 C7_4 1_555 1_555
C28_4 C25_4 1_555 1_555
O10_4 C23_4 1_555 1_555
O11_4 C24_4 1_555 1_555
O17 C23_4 1_555 1_555
O17_3 C24_4 1_555 1_555
C6_4 O17_2 1_555 1_555
C25_4 C27_4 1_555 1_555
C26_4 C28_4 1_555 1_555
C6_5 C8_5 1_555 1_555
C7_5 H3_5 1_555 1_555
C8_5 C7_5 1_555 1_555
O1_5 C6_5 1_555 1_555
C23_5 C27_5 1_555 1_555
C24_5 C28_5 1_555 1_555
C25_5 H9_5 1_555 1_555
C26_5 C8_5 1_555 1_555
H10_5 C26_5 1_555 1_555
C27_5 C7_5 1_555 1_555
C28_5 C25_5 1_555 1_555
O10_5 C23_5 1_555 1_555
O11_5 C24_5 1_555 1_555
O16_5 C23_5 1_555 1_555
O16_4 C24_5 1_555 1_555
C6_5 O16_6 1_555 1_555
C25_5 C27_5 1_555 1_555
C26_5 C28_5 1_555 1_555
C6_6 C8_6 1_555 1_555
C7_6 H3_6 1_555 1_555
C8_6 C7_6 1_555 1_555
O1_6 C6_6 1_555 1_555
C6_6 O16_3 1_555 1_555
C23_6 C27_6 1_555 1_555
O10_6 C23_6 1_555 1_555
O16_2 C23_6 1_555 1_555
H10_6 C26_6 1_555 1_555
C24_6 C28_6 1_555 1_555
C25_6 H9_6 1_555 1_555
C28_6 C25_6 1_555 1_555
O11_6 C24_6 1_555 1_555
O16 C24_6 1_555 1_555

#END
