
###############################################################################
#
# This file contains modified crystal structure data generated from the
# MOF subset of the Cambridge Structural Database (CSD) v543 
# hosted by the Cambridge Crystallographic Data Centre (CCDC).
#
# This work is licensed under the Creative Commons
# Attribution-NonCommercial-ShareAlike 4.0 International License.
# To view a copy of this license, visit
# http://creativecommons.org/licenses/by-nc-sa/4.0/
# or send a letter to
# Creative Commons, PO Box 1866, Mountain View, CA 94042, USA.
#
# CIF created using the CSD Python API on 29 September 2022
# The structure has been converted into the P1 space group
# The structure has a 3D framework
# The original CSD entry XEQGEH is in the monoclinic crystal system
# The framework has been calculated to contain at least 10.0% void space
# The void calculation uses a probe of radius 1.32A, grid spacing 0.4
#
###############################################################################

data_XEQGEH
_chemical_formula_moiety         '(C152 H108 N20 O16 Zn4)n'
_symmetry_cell_setting           triclinic
_symmetry_space_group_name_H-M   'P 1'
_symmetry_Int_Tables_number      1
_space_group_name_Hall           'P 1'
loop_
_symmetry_equiv_pos_site_id
_symmetry_equiv_pos_as_xyz
1 x,y,z
_cell_length_a                   11.972(3)
_cell_length_b                   12.043(4)
_cell_length_c                   27.792(8)
_cell_angle_alpha                90
_cell_angle_beta                 99.959(4)
_cell_angle_gamma                90
_cell_volume                     3946.64
loop_
_atom_site_label
_atom_site_type_symbol
_atom_site_fract_x
_atom_site_fract_y
_atom_site_fract_z
N1 N 0.0896(3) 0.5619(3) 0.57562(14)
C1 C 0.0318(4) 0.4877(4) 0.59888(19)
H1 H 0.0548 0.4152 0.6066
C2 C 0.5801(6) 0.8876(7) 0.2470(3)
H2 H 0.6513 0.9079 0.2410
C3 C 0.5418(6) 0.9282(7) 0.2871(3)
H3 H 0.5873 0.9766 0.3080
C4 C 0.4361(6) 0.8986(6) 0.2971(2)
H4 H 0.4104 0.9264 0.3244
C5 C 0.3686(4) 0.8255(5) 0.2647(2)
C6 C 0.4068(5) 0.7853(6) 0.2254(2)
H5 H 0.3617 0.7363 0.2046
C7 C 0.5125(6) 0.8157(7) 0.2153(2)
H6 H 0.5375 0.7884 0.1877
C8 C 0.1654(4) 0.8139(4) 0.23418(19)
C9 C 0.0743(5) 0.7406(5) 0.2275(2)
H7 H 0.0734 0.6820 0.2492
C12 C 0.0697(5) 0.9128(5) 0.1641(2)
H9 H 0.0665 0.9742 0.1436
C13 C 0.1659(5) 0.9006(5) 0.20155(19)
H10 H 0.2271 0.9491 0.2040
C15 C 0.2409(4) 0.7664(4) 0.31994(18)
C16 C 0.1478(4) 0.8032(4) 0.33852(19)
H11 H 0.0942 0.8481 0.3195
C17 C 0.1337(4) 0.7739(4) 0.38508(18)
H12 H 0.0715 0.8011 0.3973
C18 C 0.2098(4) 0.7048(4) 0.41412(16)
C19 C 0.3021(4) 0.6650(4) 0.39428(18)
H13 H 0.3537 0.6172 0.4127
C20 C 0.3180(4) 0.6955(4) 0.34780(18)
H14 H 0.3799 0.6685 0.3353
C21 C 0.1931(4) 0.6733(4) 0.46478(17)
C37 C 0.0292(4) 0.6541(4) 0.57219(17)
H26 H 0.0497 0.7196 0.5583
N2 N 0.2568(4) 0.7977(4) 0.27288(16)
O1 O 0.2545(3) 0.5927(3) 0.48450(13)
O2 O 0.1246(3) 0.7243(3) 0.48449(13)
Zn1 Zn 0.23402(4) 0.54213(4) 0.54878(2)
N6 N 0.2450(3) 0.3728(3) 0.54451(14)
O5 O 0.3790(4) 0.5554(4) 0.59304(19)
C22 C 0.3417(4) 0.3202(4) 0.55210(19)
H15 H 0.4121 0.3547 0.5591
C23 C 0.2114(4) 0.1914(4) 0.53756(18)
H16 H 0.1750 0.1231 0.5327
C24 C 0.1617(4) 0.2915(4) 0.53526(18)
H17 H 0.0839 0.3044 0.5286
C25 C 0.4134(4) 0.1261(4) 0.55603(18)
C26 C 0.5193(4) 0.1475(4) 0.54251(19)
H18 H 0.5330 0.2150 0.5284
C27 C 0.6020(4) 0.0679(4) 0.5504(2)
H19 H 0.6719 0.0819 0.5413
C30 C 0.3928(4) 0.0250(4) 0.5766(2)
H21 H 0.3226 0.0104 0.5853
N4 N 0.3265(3) 0.2090(3) 0.54843(15)
C4_2 C 0.9361(6) 0.6014(6) 0.7971(2)
H4_2 H 0.9104 0.5736 0.8244
C5_2 C 0.8686(4) 0.6745(5) 0.7647(2)
C6_2 C 0.9068(5) 0.7147(6) 0.7254(2)
H5_2 H 0.8617 0.7637 0.7046
C8_2 C 0.6654(4) 0.6861(4) 0.73418(19)
C9_2 C 0.5743(5) 0.7594(5) 0.7275(2)
H7_2 H 0.5734 0.8180 0.7492
C10 C 0.4845(5) 0.7463(5) 0.6887(2)
H8 H 0.4248 0.7968 0.6843
C11 C 0.4842(5) 0.6586(4) 0.6569(2)
C12_2 C 0.5697(5) 0.5872(5) 0.6641(2)
H9_2 H 0.5665 0.5258 0.6436
C13_2 C 0.6659(5) 0.5994(5) 0.70155(19)
H10_2 H 0.7271 0.5509 0.7040
C14 C 0.3798(6) 0.6442(5) 0.6156(2)
C15_2 C 0.7409(4) 0.7336(4) 0.81994(18)
C16_2 C 0.6478(4) 0.6968(4) 0.83852(19)
H11_2 H 0.5942 0.6519 0.8195
C17_2 C 0.6337(4) 0.7261(4) 0.88508(18)
H12_2 H 0.5715 0.6989 0.8973
C18_2 C 0.7098(4) 0.7952(4) 0.91412(16)
C19_2 C 0.8021(4) 0.8350(4) 0.89428(18)
H13_2 H 0.8537 0.8828 0.9127
C20_2 C 0.8180(4) 0.8045(4) 0.84780(18)
H14_2 H 0.8799 0.8315 0.8353
C21_2 C 0.6931(4) 0.8267(4) 0.96478(17)
N2_2 N 0.7568(4) 0.7023(4) 0.77288(16)
O1_2 O 0.7545(3) 0.9073(3) 0.98450(13)
O2_2 O 0.6246(3) 0.7757(3) 0.98449(13)
O3 O 0.3110(4) 0.7185(4) 0.6057(2)
C10_2 C 0.9845(5) 0.7537(5) 0.1887(2)
H8_2 H 0.9248 0.7032 0.1843
C11_2 C 0.9842(5) 0.8414(4) 0.1569(2)
C14_2 C 0.8798(6) 0.8558(5) 0.1156(2)
C28 C 0.5841(4) 0.9662(4) 0.57172(18)
C29 C 0.4788(4) 0.9457(4) 0.5842(2)
H20 H 0.4653 0.8776 0.5979
C31 C 0.6746(4) 0.8805(4) 0.57977(18)
C32 C 0.7886(4) 0.9115(4) 0.59219(19)
H22 H 0.8075 0.9860 0.5970
C33 C 0.8739(4) 0.8320(4) 0.59737(19)
H23 H 0.9494 0.8530 0.6062
C34 C 0.8457(4) 0.7214(4) 0.58930(17)
C35 C 0.7351(4) 0.6872(4) 0.57806(17)
H24 H 0.7175 0.6123 0.5735
C36 C 0.6491(4) 0.7672(4) 0.57353(18)
H25 H 0.5737 0.7449 0.5662
C38 C 0.9359(4) 0.5344(4) 0.60922(19)
H27 H 0.8820 0.5016 0.6251
N5 N 0.9354(3) 0.6413(3) 0.59113(13)
O3_2 O 0.8110(4) 0.7815(4) 0.1057(2)
O4 O 0.8790(4) 0.9446(4) 0.09304(19)
Zn3 Zn 0.73402(4) 0.95787(4) 0.04878(2)
N1_2 N 0.5896(3) 0.9381(3) 0.07562(14)
C26_2 C 0.0193(4) 0.3525(4) 0.04251(19)
H18_2 H 0.0330 0.2850 0.0284
C27_2 C 0.1020(4) 0.4321(4) 0.0504(2)
H19_2 H 0.1719 0.4181 0.0413
C28_2 C 0.0841(4) 0.5338(4) 0.07172(18)
C31_2 C 0.1746(4) 0.6195(4) 0.07977(18)
C32_2 C 0.2886(4) 0.5885(4) 0.09219(19)
H22_2 H 0.3075 0.5140 0.0970
C33_2 C 0.3739(4) 0.6680(4) 0.09737(19)
H23_2 H 0.4494 0.6470 0.1062
C34_2 C 0.3457(4) 0.7786(4) 0.08930(17)
C35_2 C 0.2351(4) 0.8128(4) 0.07806(17)
H24_2 H 0.2175 0.8877 0.0735
C36_2 C 0.1491(4) 0.7328(4) 0.07353(18)
H25_2 H 0.0737 0.7551 0.0662
C37_2 C 0.5292(4) 0.8459(4) 0.07219(17)
H26_2 H 0.5497 0.7804 0.0583
C38_2 C 0.4359(4) 0.9656(4) 0.10922(19)
H27_2 H 0.3820 0.9984 0.1251
N5_2 N 0.4354(3) 0.8587(3) 0.09113(13)
Zn2 Zn 0.26598(4) 0.04213(4) 0.95122(2)
N1_3 N 0.4104(3) 0.0619(3) 0.92438(14)
C26_3 C 0.9807(4) 0.6475(4) 0.95749(19)
H18_3 H 0.9670 0.7150 0.9716
C27_3 C 0.8980(4) 0.5679(4) 0.9496(2)
H19_3 H 0.8281 0.5819 0.9587
C28_3 C 0.9159(4) 0.4662(4) 0.92828(18)
C31_3 C 0.8254(4) 0.3805(4) 0.92023(18)
C32_3 C 0.7114(4) 0.4115(4) 0.90781(19)
H22_3 H 0.6925 0.4860 0.9030
C33_3 C 0.6261(4) 0.3320(4) 0.90263(19)
H23_3 H 0.5506 0.3530 0.8938
C34_3 C 0.6543(4) 0.2214(4) 0.91070(17)
C35_3 C 0.7649(4) 0.1872(4) 0.92194(17)
H24_3 H 0.7825 0.1123 0.9265
C36_3 C 0.8509(4) 0.2672(4) 0.92647(18)
H25_3 H 0.9263 0.2449 0.9338
C37_3 C 0.4708(4) 0.1541(4) 0.92781(17)
H26_3 H 0.4503 0.2196 0.9417
C38_3 C 0.5641(4) 0.0344(4) 0.89078(19)
H27_3 H 0.6180 0.0016 0.8749
N5_3 N 0.5646(3) 0.1413(3) 0.90887(13)
O5_2 O 0.1210(4) 0.0554(4) 0.90696(19)
C10_3 C 0.0155(5) 0.2463(5) 0.8113(2)
H8_3 H 0.0752 0.2968 0.8157
C11_3 C 0.0158(5) 0.1586(4) 0.8431(2)
C14_3 C 0.1202(6) 0.1442(5) 0.8844(2)
C28_4 C 0.4159(4) 0.0338(4) 0.42828(18)
C29_2 C 0.5212(4) 0.0543(4) 0.4158(2)
H20_2 H 0.5347 0.1224 0.4021
C31_4 C 0.3254(4) 0.1195(4) 0.42023(18)
C32_4 C 0.2114(4) 0.0885(4) 0.40781(19)
H22_4 H 0.1925 0.0140 0.4030
C33_4 C 0.1261(4) 0.1680(4) 0.40263(19)
H23_4 H 0.0506 0.1470 0.3938
C34_4 C 0.1543(4) 0.2786(4) 0.41070(17)
C35_4 C 0.2649(4) 0.3128(4) 0.42194(17)
H24_4 H 0.2825 0.3877 0.4265
C36_4 C 0.3509(4) 0.2328(4) 0.42647(18)
H25_4 H 0.4263 0.2551 0.4338
C38_4 C 0.0641(4) 0.4656(4) 0.39078(19)
H27_4 H 0.1180 0.4984 0.3749
N5_4 N 0.0646(3) 0.3587(3) 0.40887(13)
O3_3 O 0.1890(4) 0.2185(4) 0.8943(2)
C22_2 C 0.1583(4) 0.8202(4) 0.94790(19)
H15_2 H 0.0879 0.8547 0.9409
C23_2 C 0.2886(4) 0.6914(4) 0.96244(18)
H16_2 H 0.3250 0.6231 0.9673
C24_2 C 0.3383(4) 0.7915(4) 0.96474(18)
H17_2 H 0.4161 0.8044 0.9714
C25_2 C 0.0866(4) 0.6261(4) 0.94397(18)
C29_3 C 0.0212(4) 0.4457(4) 0.9158(2)
H20_3 H 0.0347 0.3776 0.9021
C30_2 C 0.1072(4) 0.5250(4) 0.9234(2)
H21_2 H 0.1774 0.5104 0.9147
N3 N 0.2550(3) 0.8728(3) 0.95549(14)
N4_2 N 0.1735(3) 0.7090(3) 0.95157(15)
C1_2 C 0.4682(4) 0.9877(4) 0.90112(19)
H1_2 H 0.4452 0.9152 0.8934
C4_3 C 0.0639(6) 0.3986(6) 0.2029(2)
H4_3 H 0.0896 0.4264 0.1756
C5_3 C 0.1314(4) 0.3255(5) 0.2353(2)
C6_3 C 0.0932(5) 0.2853(6) 0.2746(2)
H5_3 H 0.1383 0.2363 0.2954
C8_3 C 0.3346(4) 0.3139(4) 0.26582(19)
C9_3 C 0.4257(5) 0.2406(5) 0.2725(2)
H7_3 H 0.4266 0.1820 0.2508
C10_4 C 0.5155(5) 0.2537(5) 0.3113(2)
H8_4 H 0.5752 0.2032 0.3157
C11_4 C 0.5158(5) 0.3414(4) 0.3431(2)
C12_3 C 0.4303(5) 0.4128(5) 0.3359(2)
H9_3 H 0.4335 0.4742 0.3564
C13_3 C 0.3341(5) 0.4006(5) 0.29845(19)
H10_3 H 0.2729 0.4491 0.2960
C14_4 C 0.6202(6) 0.3558(5) 0.3844(2)
C15_3 C 0.2591(4) 0.2664(4) 0.18006(18)
C16_3 C 0.3522(4) 0.3032(4) 0.16148(19)
H11_3 H 0.4058 0.3481 0.1805
C17_3 C 0.3663(4) 0.2739(4) 0.11492(18)
H12_3 H 0.4285 0.3011 0.1027
C18_3 C 0.2902(4) 0.2048(4) 0.08588(16)
C19_3 C 0.1979(4) 0.1650(4) 0.10572(18)
H13_3 H 0.1463 0.1172 0.0873
C20_3 C 0.1820(4) 0.1955(4) 0.15220(18)
H14_3 H 0.1201 0.1685 0.1647
C21_3 C 0.3069(4) 0.1733(4) 0.03522(17)
N2_3 N 0.2432(4) 0.2977(4) 0.22712(16)
O1_3 O 0.2455(3) 0.0927(3) 0.01550(13)
O2_3 O 0.3754(3) 0.2243(3) 0.01551(13)
O3_4 O 0.6890(4) 0.2815(4) 0.3943(2)
O4_2 O 0.6210(4) 0.4446(4) 0.40696(19)
Zn3_2 Zn 0.76598(4) 0.45787(4) 0.45122(2)
C22_3 C 0.6583(4) 0.6798(4) 0.44790(19)
H15_3 H 0.5879 0.6453 0.4409
C23_3 C 0.7886(4) 0.8086(4) 0.46244(18)
H16_3 H 0.8250 0.8769 0.4673
C24_3 C 0.8383(4) 0.7085(4) 0.46474(18)
H17_3 H 0.9161 0.6956 0.4714
C25_3 C 0.5866(4) 0.8739(4) 0.44397(18)
C26_4 C 0.4807(4) 0.8525(4) 0.45749(19)
H18_4 H 0.4670 0.7850 0.4716
C27_4 C 0.3980(4) 0.9321(4) 0.4496(2)
H19_4 H 0.3281 0.9181 0.4587
C30_3 C 0.6072(4) 0.9750(4) 0.4234(2)
H21_3 H 0.6774 0.9896 0.4147
N3_2 N 0.7550(3) 0.6272(3) 0.45549(14)
N4_3 N 0.6735(3) 0.7910(3) 0.45157(15)
N1_4 N 0.9104(3) 0.4381(3) 0.42438(14)
C1_3 C 0.9682(4) 0.5123(4) 0.40112(19)
H1_3 H 0.9452 0.5848 0.3934
C2_2 C 0.4199(6) 0.1124(7) 0.7530(3)
H2_2 H 0.3487 0.0921 0.7590
C3_2 C 0.4582(6) 0.0718(7) 0.7129(3)
H3_2 H 0.4127 0.0234 0.6920
C4_4 C 0.5639(6) 0.1014(6) 0.7029(2)
H4_4 H 0.5896 0.0736 0.6756
C5_4 C 0.6314(4) 0.1745(5) 0.7353(2)
C6_4 C 0.5932(5) 0.2147(6) 0.7746(2)
H5_4 H 0.6383 0.2637 0.7954
C7_2 C 0.4875(6) 0.1843(7) 0.7847(2)
H6_2 H 0.4625 0.2116 0.8123
C8_4 C 0.8346(4) 0.1861(4) 0.76582(19)
C9_4 C 0.9257(5) 0.2594(5) 0.7725(2)
H7_4 H 0.9266 0.3180 0.7508
C12_4 C 0.9303(5) 0.0872(5) 0.8359(2)
H9_4 H 0.9335 0.0258 0.8564
C13_4 C 0.8341(5) 0.0994(5) 0.79845(19)
H10_4 H 0.7729 0.0509 0.7960
C15_4 C 0.7591(4) 0.2336(4) 0.68006(18)
C16_4 C 0.8522(4) 0.1968(4) 0.66148(19)
H11_4 H 0.9058 0.1519 0.6805
C17_4 C 0.8663(4) 0.2261(4) 0.61492(18)
H12_4 H 0.9285 0.1989 0.6027
C18_4 C 0.7902(4) 0.2952(4) 0.58588(16)
C19_4 C 0.6979(4) 0.3350(4) 0.60572(18)
H13_4 H 0.6463 0.3828 0.5873
C20_4 C 0.6820(4) 0.3045(4) 0.65220(18)
H14_4 H 0.6201 0.3315 0.6647
C21_4 C 0.8069(4) 0.3267(4) 0.53522(17)
C37_4 C 0.9708(4) 0.3459(4) 0.42781(17)
H26_4 H 0.9503 0.2804 0.4417
N2_4 N 0.7432(4) 0.2023(4) 0.72712(16)
O1_4 O 0.7455(3) 0.4073(3) 0.51550(13)
O2_4 O 0.8754(3) 0.2757(3) 0.51551(13)
C2_3 C 0.9199(6) 0.3876(7) 0.2530(3)
H2_3 H 0.8487 0.4079 0.2590
C3_3 C 0.9582(6) 0.4282(7) 0.2129(3)
H3_3 H 0.9127 0.4766 0.1920
C7_3 C 0.9875(6) 0.3157(7) 0.2847(2)
H6_3 H 0.9625 0.2884 0.3123
C2_4 C 0.0801(6) 0.6124(7) 0.7470(3)
H2_4 H 0.1513 0.5921 0.7410
C3_4 C 0.0418(6) 0.5718(7) 0.7871(3)
H3_4 H 0.0873 0.5234 0.8080
C7_4 C 0.0125(6) 0.6843(7) 0.7153(2)
H6_4 H 0.0375 0.7116 0.6877
C1_4 C 0.5318(4) 0.0123(4) 0.09888(19)
H1_4 H 0.5548 0.0848 0.1066
N6_2 N 0.7450(3) 0.1272(3) 0.04451(14)
C22_4 C 0.8417(4) 0.1798(4) 0.05210(19)
H15_4 H 0.9121 0.1453 0.0591
C23_4 C 0.7114(4) 0.3086(4) 0.03756(18)
H16_4 H 0.6750 0.3769 0.0327
C24_4 C 0.6617(4) 0.2085(4) 0.03526(18)
H17_4 H 0.5839 0.1956 0.0286
C25_4 C 0.9134(4) 0.3739(4) 0.05603(18)
C29_4 C 0.9788(4) 0.5543(4) 0.0842(2)
H20_4 H 0.9653 0.6224 0.0979
C30_4 C 0.8928(4) 0.4750(4) 0.0766(2)
H21_4 H 0.8226 0.4896 0.0853
N4_4 N 0.8265(3) 0.2910(3) 0.04843(15)
loop_
_geom_bond_atom_site_label_1
_geom_bond_atom_site_label_2
_geom_bond_site_symmetry_1
_geom_bond_site_symmetry_2
N1 C1 1_555 1_555
C1 H1 1_555 1_555
C2 H2 1_555 1_555
C3 C2 1_555 1_555
H3 C3 1_555 1_555
C4 C3 1_555 1_555
H4 C4 1_555 1_555
C5 C4 1_555 1_555
C6 C5 1_555 1_555
H5 C6 1_555 1_555
C7 C2 1_555 1_555
H6 C7 1_555 1_555
C8 C9 1_555 1_555
C9 H7 1_555 1_555
H9 C12 1_555 1_555
C13 C8 1_555 1_555
H10 C13 1_555 1_555
C15 C16 1_555 1_555
C16 H11 1_555 1_555
C17 C16 1_555 1_555
H12 C17 1_555 1_555
C18 C17 1_555 1_555
C19 C18 1_555 1_555
H13 C19 1_555 1_555
C20 C15 1_555 1_555
H14 C20 1_555 1_555
C21 C18 1_555 1_555
C37 N1 1_555 1_555
H26 C37 1_555 1_555
N2 C5 1_555 1_555
O1 C21 1_555 1_555
O2 C21 1_555 1_555
Zn1 N1 1_555 1_555
N6 Zn1 1_555 1_555
O5 Zn1 1_555 1_555
C6 C7 1_555 1_555
C8 N2 1_555 1_555
C12 C13 1_555 1_555
C15 N2 1_555 1_555
C19 C20 1_555 1_555
O1 Zn1 1_555 1_555
C22 H15 1_555 1_555
C23 H16 1_555 1_555
C24 C23 1_555 1_555
H17 C24 1_555 1_555
C25 C26 1_555 1_555
C26 H18 1_555 1_555
C27 C26 1_555 1_555
H19 C27 1_555 1_555
C30 C25 1_555 1_555
H21 C30 1_555 1_555
N6 C22 1_555 1_555
N4 C22 1_555 1_555
C23 N4 1_555 1_555
C24 N6 1_555 1_555
C25 N4 1_555 1_555
H4_2 C4_2 1_555 1_555
C5_2 C4_2 1_555 1_555
C6_2 C5_2 1_555 1_555
H5_2 C6_2 1_555 1_555
C8_2 C9_2 1_555 1_555
C9_2 H7_2 1_555 1_555
C10 C9_2 1_555 1_555
H8 C10 1_555 1_555
C11 C10 1_555 1_555
C12_2 C11 1_555 1_555
H9_2 C12_2 1_555 1_555
C13_2 C8_2 1_555 1_555
H10_2 C13_2 1_555 1_555
C14 C11 1_555 1_555
C15_2 C16_2 1_555 1_555
C16_2 H11_2 1_555 1_555
C17_2 C16_2 1_555 1_555
H12_2 C17_2 1_555 1_555
C18_2 C17_2 1_555 1_555
C19_2 C18_2 1_555 1_555
H13_2 C19_2 1_555 1_555
C20_2 C15_2 1_555 1_555
H14_2 C20_2 1_555 1_555
C21_2 C18_2 1_555 1_555
N2_2 C5_2 1_555 1_555
O1_2 C21_2 1_555 1_555
O2_2 C21_2 1_555 1_555
O3 C14 1_555 1_555
O5 C14 1_555 1_555
C8_2 N2_2 1_555 1_555
C12_2 C13_2 1_555 1_555
C15_2 N2_2 1_555 1_555
C19_2 C20_2 1_555 1_555
H8_2 C10_2 1_555 1_555
C11_2 C10_2 1_555 1_555
C14_2 C11_2 1_555 1_555
C29 C28 1_555 1_555
H20 C29 1_555 1_555
C31 C28 1_555 1_555
C32 C31 1_555 1_555
H22 C32 1_555 1_555
C33 C32 1_555 1_555
H23 C33 1_555 1_555
C34 C33 1_555 1_555
C35 C34 1_555 1_555
H24 C35 1_555 1_555
C36 C31 1_555 1_555
H25 C36 1_555 1_555
H27 C38 1_555 1_555
N5 C34 1_555 1_555
O3_2 C14_2 1_555 1_555
O4 C14_2 1_555 1_555
Zn3 O4 1_555 1_555
C35 C36 1_555 1_555
C38 N5 1_555 1_555
C26_2 H18_2 1_555 1_555
C27_2 C26_2 1_555 1_555
H19_2 C27_2 1_555 1_555
C28_2 C27_2 1_555 1_555
C31_2 C28_2 1_555 1_555
C32_2 C31_2 1_555 1_555
H22_2 C32_2 1_555 1_555
C33_2 C32_2 1_555 1_555
H23_2 C33_2 1_555 1_555
C34_2 C33_2 1_555 1_555
C35_2 C34_2 1_555 1_555
H24_2 C35_2 1_555 1_555
C36_2 C31_2 1_555 1_555
H25_2 C36_2 1_555 1_555
C37_2 N1_2 1_555 1_555
H26_2 C37_2 1_555 1_555
H27_2 C38_2 1_555 1_555
N5_2 C34_2 1_555 1_555
Zn3 N1_2 1_555 1_555
C35_2 C36_2 1_555 1_555
C37_2 N5_2 1_555 1_555
C38_2 N5_2 1_555 1_555
C26_3 H18_3 1_555 1_555
C27_3 C26_3 1_555 1_555
H19_3 C27_3 1_555 1_555
C28_3 C27_3 1_555 1_555
C31_3 C28_3 1_555 1_555
C32_3 C31_3 1_555 1_555
H22_3 C32_3 1_555 1_555
C33_3 C32_3 1_555 1_555
H23_3 C33_3 1_555 1_555
C34_3 C33_3 1_555 1_555
C35_3 C34_3 1_555 1_555
H24_3 C35_3 1_555 1_555
C36_3 C31_3 1_555 1_555
H25_3 C36_3 1_555 1_555
C37_3 N1_3 1_555 1_555
H26_3 C37_3 1_555 1_555
H27_3 C38_3 1_555 1_555
N5_3 C34_3 1_555 1_555
Zn2 N1_3 1_555 1_555
O5_2 Zn2 1_555 1_555
C35_3 C36_3 1_555 1_555
C37_3 N5_3 1_555 1_555
C38_3 N5_3 1_555 1_555
H8_3 C10_3 1_555 1_555
C11_3 C10_3 1_555 1_555
C14_3 C11_3 1_555 1_555
C29_2 C28_4 1_555 1_555
H20_2 C29_2 1_555 1_555
C31_4 C28_4 1_555 1_555
C32_4 C31_4 1_555 1_555
H22_4 C32_4 1_555 1_555
C33_4 C32_4 1_555 1_555
H23_4 C33_4 1_555 1_555
C34_4 C33_4 1_555 1_555
C35_4 C34_4 1_555 1_555
H24_4 C35_4 1_555 1_555
C36_4 C31_4 1_555 1_555
H25_4 C36_4 1_555 1_555
H27_4 C38_4 1_555 1_555
N5_4 C34_4 1_555 1_555
O3_3 C14_3 1_555 1_555
O5_2 C14_3 1_555 1_555
C35_4 C36_4 1_555 1_555
C38_4 N5_4 1_555 1_555
C22_2 H15_2 1_555 1_555
C23_2 H16_2 1_555 1_555
C24_2 C23_2 1_555 1_555
H17_2 C24_2 1_555 1_555
H20_3 C29_3 1_555 1_555
C30_2 C25_2 1_555 1_555
H21_2 C30_2 1_555 1_555
N3 C22_2 1_555 1_555
N4_2 C22_2 1_555 1_555
C23_2 N4_2 1_555 1_555
C24_2 N3 1_555 1_555
C25_2 N4_2 1_555 1_555
C29_3 C30_2 1_555 1_555
C1_2 H1_2 1_555 1_555
H4_3 C4_3 1_555 1_555
C5_3 C4_3 1_555 1_555
C6_3 C5_3 1_555 1_555
H5_3 C6_3 1_555 1_555
C8_3 C9_3 1_555 1_555
C9_3 H7_3 1_555 1_555
C10_4 C9_3 1_555 1_555
H8_4 C10_4 1_555 1_555
C11_4 C10_4 1_555 1_555
C12_3 C11_4 1_555 1_555
H9_3 C12_3 1_555 1_555
C13_3 C8_3 1_555 1_555
H10_3 C13_3 1_555 1_555
C14_4 C11_4 1_555 1_555
C15_3 C16_3 1_555 1_555
C16_3 H11_3 1_555 1_555
C17_3 C16_3 1_555 1_555
H12_3 C17_3 1_555 1_555
C18_3 C17_3 1_555 1_555
C19_3 C18_3 1_555 1_555
H13_3 C19_3 1_555 1_555
C20_3 C15_3 1_555 1_555
H14_3 C20_3 1_555 1_555
C21_3 C18_3 1_555 1_555
N2_3 C5_3 1_555 1_555
O1_3 C21_3 1_555 1_555
O2_3 C21_3 1_555 1_555
O3_4 C14_4 1_555 1_555
O4_2 C14_4 1_555 1_555
Zn3_2 O4_2 1_555 1_555
C8_3 N2_3 1_555 1_555
C12_3 C13_3 1_555 1_555
C15_3 N2_3 1_555 1_555
C19_3 C20_3 1_555 1_555
C22_3 H15_3 1_555 1_555
C23_3 H16_3 1_555 1_555
C24_3 C23_3 1_555 1_555
H17_3 C24_3 1_555 1_555
C25_3 C26_4 1_555 1_555
C26_4 H18_4 1_555 1_555
C27_4 C26_4 1_555 1_555
H19_4 C27_4 1_555 1_555
C30_3 C25_3 1_555 1_555
H21_3 C30_3 1_555 1_555
N3_2 C22_3 1_555 1_555
N4_3 C22_3 1_555 1_555
Zn3_2 N3_2 1_555 1_555
C23_3 N4_3 1_555 1_555
C24_3 N3_2 1_555 1_555
C25_3 N4_3 1_555 1_555
N1_4 C1_3 1_555 1_555
C1_3 H1_3 1_555 1_555
C2_2 H2_2 1_555 1_555
C3_2 C2_2 1_555 1_555
H3_2 C3_2 1_555 1_555
C4_4 C3_2 1_555 1_555
H4_4 C4_4 1_555 1_555
C5_4 C4_4 1_555 1_555
C6_4 C5_4 1_555 1_555
H5_4 C6_4 1_555 1_555
C7_2 C2_2 1_555 1_555
H6_2 C7_2 1_555 1_555
C8_4 C9_4 1_555 1_555
C9_4 H7_4 1_555 1_555
H9_4 C12_4 1_555 1_555
C13_4 C8_4 1_555 1_555
H10_4 C13_4 1_555 1_555
C15_4 C16_4 1_555 1_555
C16_4 H11_4 1_555 1_555
C17_4 C16_4 1_555 1_555
H12_4 C17_4 1_555 1_555
C18_4 C17_4 1_555 1_555
C19_4 C18_4 1_555 1_555
H13_4 C19_4 1_555 1_555
C20_4 C15_4 1_555 1_555
H14_4 C20_4 1_555 1_555
C21_4 C18_4 1_555 1_555
C37_4 N1_4 1_555 1_555
H26_4 C37_4 1_555 1_555
N2_4 C5_4 1_555 1_555
O1_4 C21_4 1_555 1_555
O2_4 C21_4 1_555 1_555
Zn3_2 N1_4 1_555 1_555
C6_4 C7_2 1_555 1_555
C8_4 N2_4 1_555 1_555
C12_4 C13_4 1_555 1_555
C15_4 N2_4 1_555 1_555
C19_4 C20_4 1_555 1_555
O1_4 Zn3_2 1_555 1_555
C2_3 H2_3 1_555 1_555
C3_3 C2_3 1_555 1_555
H3_3 C3_3 1_555 1_555
C7_3 C2_3 1_555 1_555
H6_3 C7_3 1_555 1_555
C2_4 H2_4 1_555 1_555
C3_4 C2_4 1_555 1_555
H3_4 C3_4 1_555 1_555
C7_4 C2_4 1_555 1_555
H6_4 C7_4 1_555 1_555
C1_4 H1_4 1_555 1_555
C22_4 H15_4 1_555 1_555
C23_4 H16_4 1_555 1_555
C24_4 C23_4 1_555 1_555
H17_4 C24_4 1_555 1_555
H20_4 C29_4 1_555 1_555
C30_4 C25_4 1_555 1_555
H21_4 C30_4 1_555 1_555
N6_2 C22_4 1_555 1_555
N4_4 C22_4 1_555 1_555
C23_4 N4_4 1_555 1_555
C24_4 N6_2 1_555 1_555
C25_4 N4_4 1_555 1_555
C29_4 C30_4 1_555 1_555

#END
