
###############################################################################
#
# This file contains modified crystal structure data generated from the
# MOF subset of the Cambridge Structural Database (CSD) v543 
# hosted by the Cambridge Crystallographic Data Centre (CCDC).
#
# This work is licensed under the Creative Commons
# Attribution-NonCommercial-ShareAlike 4.0 International License.
# To view a copy of this license, visit
# http://creativecommons.org/licenses/by-nc-sa/4.0/
# or send a letter to
# Creative Commons, PO Box 1866, Mountain View, CA 94042, USA.
#
# CIF created using the CSD Python API on 29 September 2022
# The structure has been converted into the P1 space group
# The structure has a 3D framework
# The original CSD entry XEQGIL is in the monoclinic crystal system
# The framework has been calculated to contain at least 10.0% void space
# The void calculation uses a probe of radius 1.32A, grid spacing 0.4
#
###############################################################################

data_XEQGIL
_chemical_formula_moiety         '(C224 H152 Co8 N16 O32)n'
_symmetry_cell_setting           triclinic
_symmetry_space_group_name_H-M   'P 1'
_symmetry_Int_Tables_number      1
_space_group_name_Hall           'P 1'
loop_
_symmetry_equiv_pos_site_id
_symmetry_equiv_pos_as_xyz
1 x,y,z
_cell_length_a                   25.0837(11)
_cell_length_b                   8.7814(4)
_cell_length_c                   22.6654(10)
_cell_angle_alpha                90
_cell_angle_beta                 91.8530(10)
_cell_angle_gamma                90
_cell_volume                     4989.9
loop_
_atom_site_label
_atom_site_type_symbol
_atom_site_fract_x
_atom_site_fract_y
_atom_site_fract_z
H5 H 0.2322 0.0398 0.1491
Co4 Co 0.041359(14) 0.09999(4) 0.510055(17)
C23 C 0.17396(12) 0.4966(3) 0.00308(14)
C24 C 0.18424(12) 0.6326(3) 0.03219(16)
H16 H 0.2170 0.6481 0.0517
C25 C 0.14595(12) 0.7452(3) 0.03232(15)
H17 H 0.1536 0.8348 0.0528
C26 C 0.21301(12) 0.3698(3) 0.00178(15)
C27 C 0.26739(13) 0.3969(3) 0.00273(18)
H18 H 0.2795 0.4968 0.0048
Co1 Co 0.041359(14) 0.90001(4) 0.010055(17)
N1 N 0.09849(9) 0.7321(3) 0.00461(11)
C50 C 0.37545(13) 0.0159(4) 0.02624(16)
H34 H 0.3842 0.1040 0.0472
C56 C 0.30383(12) 0.2811(3) 0.00077(17)
H38 H 0.3401 0.3034 0.0011
C21 C 0.08857(13) 0.6022(3) 0.97586(17)
H14 H 0.0557 0.5908 0.9562
C22 C 0.12455(13) 0.4841(4) 0.97376(16)
H15 H 0.1158 0.3960 0.9528
C28 C 0.19617(12) 0.2189(3) 0.99923(17)
H19 H 0.1599 0.1966 0.9989
C51 C 0.32604(12) 0.0034(3) 0.99692(14)
C54 C 0.28699(12) 0.1302(3) 0.99822(15)
C55 C 0.23261(13) 0.1031(3) 0.99727(18)
H37 H 0.2205 0.0032 0.9952
C49 C 0.41143(13) 0.8978(3) 0.02414(17)
H33 H 0.4443 0.9092 0.0438
Co8 Co 0.541359(14) 0.40001(4) 0.010055(17)
O8 O 0.51126(8) 0.7070(2) 0.05042(10)
O11 O 0.43016(9) 0.4716(2) 0.05591(10)
C52 C 0.31576(12) 0.8674(3) 0.96781(16)
H35 H 0.2830 0.8519 0.9483
C53 C 0.35405(12) 0.7548(3) 0.96768(15)
H36 H 0.3464 0.6652 0.9472
Co2 Co 0.458641(14) 0.59999(4) 0.989945(17)
N3 N 0.40151(9) 0.7679(3) 0.99539(11)
O6 O 0.42204(8) 0.4545(2) 0.93105(10)
O14 O 0.50270(8) 0.6910(2) 0.92594(10)
Co5 Co 0.958641(14) 0.90001(4) 0.489945(17)
Co3 Co 0.958641(14) 0.09999(4) 0.989945(17)
H24 H 0.7678 0.9602 0.8509
C21_2 C 0.91143(13) 0.6022(3) 0.52414(17)
H14_2 H 0.9443 0.5908 0.5438
C22_2 C 0.87545(13) 0.4841(4) 0.52624(16)
H15_2 H 0.8842 0.3960 0.5472
C23_2 C 0.82604(12) 0.4966(3) 0.49692(14)
C24_2 C 0.81576(12) 0.6326(3) 0.46781(16)
H16_2 H 0.7830 0.6481 0.4483
C25_2 C 0.85405(12) 0.7452(3) 0.46768(15)
H17_2 H 0.8464 0.8348 0.4472
C26_2 C 0.78699(12) 0.3698(3) 0.49822(15)
C27_2 C 0.73261(13) 0.3969(3) 0.49727(18)
H18_2 H 0.7205 0.4968 0.4952
C28_2 C 0.80383(12) 0.2189(3) 0.50077(17)
H19_2 H 0.8401 0.1966 0.5011
N1_2 N 0.90151(9) 0.7321(3) 0.49539(11)
C50_2 C 0.62455(13) 0.0159(4) 0.47376(16)
H34_2 H 0.6158 0.1040 0.4528
C51_2 C 0.67396(12) 0.0034(3) 0.50308(14)
C54_2 C 0.71301(12) 0.1302(3) 0.50178(15)
C55_2 C 0.76739(13) 0.1031(3) 0.50273(18)
H37_2 H 0.7795 0.0032 0.5048
C56_2 C 0.69617(12) 0.2811(3) 0.49923(17)
H38_2 H 0.6599 0.3034 0.4989
C49_2 C 0.58857(13) 0.8978(3) 0.47586(17)
H33_2 H 0.5557 0.9092 0.4562
C52_2 C 0.68424(12) 0.8674(3) 0.53219(16)
H35_2 H 0.7170 0.8519 0.5517
C53_2 C 0.64595(12) 0.7548(3) 0.53232(15)
H36_2 H 0.6536 0.6652 0.5528
Co2_2 Co 0.541359(14) 0.59999(4) 0.510055(17)
Co8_2 Co 0.458641(14) 0.40001(4) 0.489945(17)
N3_2 N 0.59849(9) 0.7679(3) 0.50461(11)
O6_2 O 0.57796(8) 0.4545(2) 0.56895(10)
O8_2 O 0.48874(8) 0.7070(2) 0.44958(10)
O11_2 O 0.56984(9) 0.4716(2) 0.44409(10)
O14_2 O 0.49730(8) 0.6910(2) 0.57406(10)
C1 C 0.78362(17) 0.3686(5) 0.14694(19)
H1 H 0.8111 0.4234 0.1304
C2 C 0.79019(16) 0.2188(5) 0.1601(2)
H2 H 0.8224 0.1708 0.1527
C3 C 0.74935(14) 0.1377(4) 0.1843(2)
H3 H 0.7539 0.0345 0.1921
C4 C 0.70244(11) 0.2057(3) 0.19690(13)
C5 C 0.69631(16) 0.3560(4) 0.18262(19)
H4 H 0.6641 0.4043 0.1896
C6 C 0.73695(18) 0.4373(5) 0.1581(2)
H5_2 H 0.7322 0.5398 0.1491
C7 C 0.63342(11) 0.1745(3) 0.27100(13)
C8 C 0.65737(12) 0.2806(3) 0.30927(15)
H6 H 0.6920 0.3129 0.3028
C9 C 0.63079(13) 0.3379(3) 0.35629(15)
H7 H 0.6477 0.4084 0.3811
C10 C 0.57833(12) 0.2918(3) 0.36762(14)
C11 C 0.55724(12) 0.1770(3) 0.33227(15)
H8 H 0.5242 0.1367 0.3413
C12 C 0.58287(13) 0.1202(3) 0.28461(15)
H9 H 0.5666 0.0453 0.2612
C13 C 0.54808(13) 0.3615(3) 0.41534(14)
C14 C 0.63442(12) 0.0071(3) 0.18426(14)
C15 C 0.59244(13) 0.0486(3) 0.14603(15)
H10 H 0.5817 0.1498 0.1439
N2 N 0.66008(11) 0.1198(3) 0.22216(13)
O4 O 0.50270(8) 0.3090(2) 0.42594(10)
C16 C 0.56676(12) 0.9411(3) 0.11140(15)
H11 H 0.5382 0.9697 0.0867
C17 C 0.58320(12) 0.7901(3) 0.11299(14)
C18 C 0.62561(13) 0.7504(3) 0.14956(16)
H12 H 0.6379 0.6504 0.1497
C19 C 0.65048(13) 0.8570(4) 0.18629(16)
H13 H 0.6780 0.8273 0.2123
C20 C 0.55569(11) 0.6717(3) 0.07490(13)
C24_3 C 0.68424(12) 0.1326(3) 0.03219(16)
H16_3 H 0.7170 0.1481 0.0517
C25_3 C 0.64595(12) 0.2452(3) 0.03232(15)
H17_3 H 0.6536 0.3348 0.0528
N1_3 N 0.59849(9) 0.2321(3) 0.00461(11)
O1 O 0.57796(8) 0.5455(2) 0.06895(10)
O13 O 0.49730(8) 0.3090(2) 0.07406(10)
C21_3 C 0.58857(13) 0.1022(3) 0.97586(17)
H14_3 H 0.5557 0.0908 0.9562
C44 C 0.43324(12) 0.0589(3) 0.88860(15)
H30 H 0.4618 0.0303 0.9133
C45 C 0.41680(12) 0.2099(3) 0.88701(14)
C46 C 0.37439(13) 0.2496(3) 0.85044(16)
H31 H 0.3621 0.3496 0.8503
C47 C 0.34952(13) 0.1430(4) 0.81371(16)
H32 H 0.3220 0.1727 0.7877
C48 C 0.44431(11) 0.3283(3) 0.92510(13)
O7 O 0.48874(8) 0.2930(2) 0.94958(10)
O10 O 0.56984(9) 0.5284(2) 0.94409(10)
C23_3 C 0.67396(12) 0.9966(3) 0.00308(14)
C26_3 C 0.71301(12) 0.8698(3) 0.00178(15)
C27_3 C 0.76739(13) 0.8969(3) 0.00273(18)
H18_3 H 0.7795 0.9968 0.0048
C49_3 C 0.91143(13) 0.3978(3) 0.02414(17)
H33_3 H 0.9443 0.4092 0.0438
C50_3 C 0.87545(13) 0.5159(4) 0.02624(16)
H34_3 H 0.8842 0.6040 0.0472
C56_3 C 0.80383(12) 0.7811(3) 0.00077(17)
H38_3 H 0.8401 0.8034 0.0011
C22_3 C 0.62455(13) 0.9841(4) 0.97376(16)
H15_3 H 0.6158 0.8960 0.9528
C28_3 C 0.69617(12) 0.7189(3) 0.99923(17)
H19_3 H 0.6599 0.6966 0.9989
C29 C 0.21638(17) 0.6314(5) 0.85306(19)
H20 H 0.1889 0.5766 0.8696
C30 C 0.20981(16) 0.7812(5) 0.8399(2)
H21 H 0.1776 0.8292 0.8473
C31 C 0.25065(14) 0.8623(4) 0.8157(2)
H22 H 0.2461 0.9655 0.8079
C32 C 0.29756(11) 0.7943(3) 0.80310(13)
C33 C 0.30369(16) 0.6440(4) 0.81738(19)
H23 H 0.3359 0.5957 0.8104
C34 C 0.26305(18) 0.5627(5) 0.8419(2)
H24_2 H 0.2678 0.4602 0.8509
C35 C 0.36658(11) 0.8255(3) 0.72900(13)
C36 C 0.34263(12) 0.7194(3) 0.69073(15)
H25 H 0.3080 0.6871 0.6972
C37 C 0.36921(13) 0.6621(3) 0.64371(15)
H26 H 0.3523 0.5916 0.6189
C38 C 0.42167(12) 0.7082(3) 0.63238(14)
C39 C 0.44276(12) 0.8230(3) 0.66773(15)
H27 H 0.4758 0.8633 0.6587
C40 C 0.41713(13) 0.8798(3) 0.71539(15)
H28 H 0.4334 0.9547 0.7388
C41 C 0.45192(13) 0.6385(3) 0.58466(14)
C42 C 0.36558(12) 0.9929(3) 0.81574(14)
C43 C 0.40756(13) 0.9514(3) 0.85397(15)
H29 H 0.4183 0.8502 0.8561
C51_3 C 0.82604(12) 0.5034(3) 0.99692(14)
C52_3 C 0.81576(12) 0.3674(3) 0.96781(16)
H35_3 H 0.7830 0.3519 0.9483
C53_3 C 0.85405(12) 0.2548(3) 0.96768(15)
H36_3 H 0.8464 0.1652 0.9472
C54_3 C 0.78699(12) 0.6302(3) 0.99822(15)
C55_3 C 0.73261(13) 0.6031(3) 0.99727(18)
H37_3 H 0.7205 0.5032 0.9952
N3_3 N 0.90151(9) 0.2679(3) 0.99539(11)
N4 N 0.33992(11) 0.8802(3) 0.77784(13)
O9 O 0.43016(9) 0.5284(2) 0.55591(10)
C1_2 C 0.21638(17) 0.3686(5) 0.35306(19)
H1_2 H 0.1889 0.4234 0.3696
C2_2 C 0.20981(16) 0.2188(5) 0.3399(2)
H2_2 H 0.1776 0.1708 0.3473
C3_2 C 0.25065(14) 0.1377(4) 0.3157(2)
H3_2 H 0.2461 0.0345 0.3079
C4_2 C 0.29756(11) 0.2057(3) 0.30310(13)
C5_2 C 0.30369(16) 0.3560(4) 0.31738(19)
H4_2 H 0.3359 0.4043 0.3104
C6_2 C 0.26305(18) 0.4373(5) 0.3419(2)
H5_3 H 0.2678 0.5398 0.3509
C7_2 C 0.36658(11) 0.1745(3) 0.22900(13)
C8_2 C 0.34263(12) 0.2806(3) 0.19073(15)
H6_2 H 0.3080 0.3129 0.1972
C9_2 C 0.36921(13) 0.3379(3) 0.14371(15)
H7_2 H 0.3523 0.4084 0.1189
C10_2 C 0.42167(12) 0.2918(3) 0.13238(14)
C11_2 C 0.44276(12) 0.1770(3) 0.16773(15)
H8_2 H 0.4758 0.1367 0.1587
C12_2 C 0.41713(13) 0.1202(3) 0.21539(15)
H9_2 H 0.4334 0.0453 0.2388
C13_2 C 0.45192(13) 0.3615(3) 0.08466(14)
C14_2 C 0.36558(12) 0.0071(3) 0.31574(14)
C15_2 C 0.40756(13) 0.0486(3) 0.35397(15)
H10_2 H 0.4183 0.1498 0.3561
N2_2 N 0.33992(11) 0.1198(3) 0.27784(13)
C16_2 C 0.43324(12) 0.9411(3) 0.38860(15)
H11_2 H 0.4618 0.9697 0.4133
C17_2 C 0.41680(12) 0.7901(3) 0.38701(14)
C18_2 C 0.37439(13) 0.7504(3) 0.35044(16)
H12_2 H 0.3621 0.6504 0.3503
C19_2 C 0.34952(13) 0.8570(4) 0.31371(16)
H13_2 H 0.3220 0.8273 0.2877
C20_2 C 0.44431(11) 0.6717(3) 0.42510(13)
C21_4 C 0.41143(13) 0.1022(3) 0.52414(17)
H14_4 H 0.4443 0.0908 0.5438
C24_4 C 0.31576(12) 0.1326(3) 0.46781(16)
H16_4 H 0.2830 0.1481 0.4483
C25_4 C 0.35405(12) 0.2452(3) 0.46768(15)
H17_4 H 0.3464 0.3348 0.4472
N1_4 N 0.40151(9) 0.2321(3) 0.49539(11)
O1_2 O 0.42204(8) 0.5455(2) 0.43105(10)
C44_2 C 0.56676(12) 0.0589(3) 0.61140(15)
H30_2 H 0.5382 0.0303 0.5867
C45_2 C 0.58320(12) 0.2099(3) 0.61299(14)
C46_2 C 0.62561(13) 0.2496(3) 0.64956(16)
H31_2 H 0.6379 0.3496 0.6497
C47_2 C 0.65048(13) 0.1430(4) 0.68629(16)
H32_2 H 0.6780 0.1727 0.7123
C48_2 C 0.55569(11) 0.3283(3) 0.57490(13)
O7_2 O 0.51126(8) 0.2930(2) 0.55042(10)
C22_4 C 0.37545(13) 0.9841(4) 0.52624(16)
H15_4 H 0.3842 0.8960 0.5472
C23_4 C 0.32604(12) 0.9966(3) 0.49692(14)
C26_4 C 0.28699(12) 0.8698(3) 0.49822(15)
C27_4 C 0.23261(13) 0.8969(3) 0.49727(18)
H18_4 H 0.2205 0.9968 0.4952
C28_4 C 0.30383(12) 0.7189(3) 0.50077(17)
H19_4 H 0.3401 0.6966 0.5011
C29_2 C 0.78362(17) 0.6314(5) 0.64694(19)
H20_2 H 0.8111 0.5766 0.6304
C30_2 C 0.79019(16) 0.7812(5) 0.6601(2)
H21_2 H 0.8224 0.8292 0.6527
C31_2 C 0.74935(14) 0.8623(4) 0.6843(2)
H22_2 H 0.7539 0.9655 0.6921
C32_2 C 0.70244(11) 0.7943(3) 0.69690(13)
C33_2 C 0.69631(16) 0.6440(4) 0.68262(19)
H23_2 H 0.6641 0.5957 0.6896
C34_2 C 0.73695(18) 0.5627(5) 0.6581(2)
H24_3 H 0.7322 0.4602 0.6491
C35_2 C 0.63342(11) 0.8255(3) 0.77100(13)
C36_2 C 0.65737(12) 0.7194(3) 0.80927(15)
H25_2 H 0.6920 0.6871 0.8028
C37_2 C 0.63079(13) 0.6621(3) 0.85629(15)
H26_2 H 0.6477 0.5916 0.8811
C38_2 C 0.57833(12) 0.7082(3) 0.86762(14)
C39_2 C 0.55724(12) 0.8230(3) 0.83227(15)
H27_2 H 0.5242 0.8633 0.8413
C40_2 C 0.58287(13) 0.8798(3) 0.78461(15)
H28_2 H 0.5666 0.9547 0.7612
C41_2 C 0.54808(13) 0.6385(3) 0.91534(14)
C42_2 C 0.63442(12) 0.9929(3) 0.68426(14)
C43_2 C 0.59244(13) 0.9514(3) 0.64603(15)
H29_2 H 0.5817 0.8502 0.6439
C49_4 C 0.08857(13) 0.3978(3) 0.47586(17)
H33_4 H 0.0557 0.4092 0.4562
C50_4 C 0.12455(13) 0.5159(4) 0.47376(16)
H34_4 H 0.1158 0.6040 0.4528
C51_4 C 0.17396(12) 0.5034(3) 0.50308(14)
C52_4 C 0.18424(12) 0.3674(3) 0.53219(16)
H35_4 H 0.2170 0.3519 0.5517
C53_4 C 0.14595(12) 0.2548(3) 0.53232(15)
H36_4 H 0.1536 0.1652 0.5528
C54_4 C 0.21301(12) 0.6302(3) 0.50178(15)
C55_4 C 0.26739(13) 0.6031(3) 0.50273(18)
H37_4 H 0.2795 0.5032 0.5048
C56_4 C 0.19617(12) 0.7811(3) 0.49923(17)
H38_4 H 0.1599 0.8034 0.4989
N3_4 N 0.09849(9) 0.2679(3) 0.50461(11)
N4_2 N 0.66008(11) 0.8802(3) 0.72216(13)
C1_3 C 0.28362(17) 0.8686(5) 0.14694(19)
H1_3 H 0.3111 0.9234 0.1304
C2_3 C 0.29019(16) 0.7188(5) 0.1601(2)
H2_3 H 0.3224 0.6708 0.1527
C3_3 C 0.24935(14) 0.6377(4) 0.1843(2)
H3_3 H 0.2539 0.5345 0.1921
C4_3 C 0.20244(11) 0.7057(3) 0.19690(13)
C5_3 C 0.19631(16) 0.8560(4) 0.18262(19)
H4_3 H 0.1641 0.9043 0.1896
C6_3 C 0.23695(18) 0.9373(5) 0.1581(2)
C7_3 C 0.13342(11) 0.6745(3) 0.27100(13)
C8_3 C 0.15737(12) 0.7806(3) 0.30927(15)
H6_3 H 0.1920 0.8129 0.3028
C9_3 C 0.13079(13) 0.8379(3) 0.35629(15)
H7_3 H 0.1477 0.9084 0.3811
C10_3 C 0.07833(12) 0.7918(3) 0.36762(14)
C11_3 C 0.05724(12) 0.6770(3) 0.33227(15)
H8_3 H 0.0242 0.6367 0.3413
C12_3 C 0.08287(13) 0.6202(3) 0.28461(15)
H9_3 H 0.0666 0.5453 0.2612
C13_3 C 0.04808(13) 0.8615(3) 0.41534(14)
C14_3 C 0.13442(12) 0.5071(3) 0.18426(14)
C15_3 C 0.09244(13) 0.5486(3) 0.14603(15)
H10_3 H 0.0817 0.6498 0.1439
C16_3 C 0.06676(12) 0.4411(3) 0.11140(15)
H11_3 H 0.0382 0.4697 0.0867
C17_3 C 0.08320(12) 0.2901(3) 0.11299(14)
C18_3 C 0.12561(13) 0.2504(3) 0.14956(16)
H12_3 H 0.1379 0.1504 0.1497
C19_3 C 0.15048(13) 0.3570(4) 0.18629(16)
H13_3 H 0.1780 0.3273 0.2123
C20_3 C 0.05569(11) 0.1717(3) 0.07490(13)
N2_3 N 0.16008(11) 0.6198(3) 0.22216(13)
O1_3 O 0.07796(8) 0.0455(2) 0.06895(10)
O2 O 0.01126(8) 0.2070(2) 0.05042(10)
O3 O 0.06984(9) 0.9716(2) 0.44409(10)
O4_2 O 0.00270(8) 0.8090(2) 0.42594(10)
O10_2 O 0.06984(9) 0.0284(2) 0.94409(10)
C29_3 C 0.28362(17) 0.1314(5) 0.64694(19)
H20_3 H 0.3111 0.0766 0.6304
C30_3 C 0.29019(16) 0.2812(5) 0.6601(2)
H21_3 H 0.3224 0.3292 0.6527
C31_3 C 0.24935(14) 0.3623(4) 0.6843(2)
H22_3 H 0.2539 0.4655 0.6921
C32_3 C 0.20244(11) 0.2943(3) 0.69690(13)
C33_3 C 0.19631(16) 0.1440(4) 0.68262(19)
H23_3 H 0.1641 0.0957 0.6896
C34_3 C 0.23695(18) 0.0627(5) 0.6581(2)
C35_3 C 0.13342(11) 0.3255(3) 0.77100(13)
C36_3 C 0.15737(12) 0.2194(3) 0.80927(15)
H25_3 H 0.1920 0.1871 0.8028
C37_3 C 0.13079(13) 0.1621(3) 0.85629(15)
H26_3 H 0.1477 0.0916 0.8811
C38_3 C 0.07833(12) 0.2082(3) 0.86762(14)
C39_3 C 0.05724(12) 0.3230(3) 0.83227(15)
H27_3 H 0.0242 0.3633 0.8413
C40_3 C 0.08287(13) 0.3798(3) 0.78461(15)
H28_3 H 0.0666 0.4547 0.7612
C41_3 C 0.04808(13) 0.1385(3) 0.91534(14)
C42_3 C 0.13442(12) 0.4929(3) 0.68426(14)
C43_3 C 0.09244(13) 0.4514(3) 0.64603(15)
H29_3 H 0.0817 0.3502 0.6439
C44_3 C 0.06676(12) 0.5589(3) 0.61140(15)
H30_3 H 0.0382 0.5303 0.5867
C45_3 C 0.08320(12) 0.7099(3) 0.61299(14)
C46_3 C 0.12561(13) 0.7496(3) 0.64956(16)
H31_3 H 0.1379 0.8496 0.6497
C47_3 C 0.15048(13) 0.6430(4) 0.68629(16)
H32_3 H 0.1780 0.6727 0.7123
C48_3 C 0.05569(11) 0.8283(3) 0.57490(13)
N4_3 N 0.16008(11) 0.3802(3) 0.72216(13)
O5 O 0.07796(8) 0.9545(2) 0.56895(10)
O7_3 O 0.01126(8) 0.7930(2) 0.55042(10)
O12 O 0.00270(8) 0.1910(2) 0.92594(10)
O13_2 O 0.99730(8) 0.8090(2) 0.07406(10)
C29_4 C 0.71638(17) 0.1314(5) 0.85306(19)
H20_4 H 0.6889 0.0766 0.8696
C30_4 C 0.70981(16) 0.2812(5) 0.8399(2)
H21_4 H 0.6776 0.3292 0.8473
C31_4 C 0.75065(14) 0.3623(4) 0.8157(2)
H22_4 H 0.7461 0.4655 0.8079
C32_4 C 0.79756(11) 0.2943(3) 0.80310(13)
C33_4 C 0.80369(16) 0.1440(4) 0.81738(19)
H23_4 H 0.8359 0.0957 0.8104
C34_4 C 0.76305(18) 0.0627(5) 0.8419(2)
C35_4 C 0.86658(11) 0.3255(3) 0.72900(13)
C36_4 C 0.84263(12) 0.2194(3) 0.69073(15)
H25_4 H 0.8080 0.1871 0.6972
C37_4 C 0.86921(13) 0.1621(3) 0.64371(15)
H26_4 H 0.8523 0.0916 0.6189
C38_4 C 0.92167(12) 0.2082(3) 0.63238(14)
C39_4 C 0.94276(12) 0.3230(3) 0.66773(15)
H27_4 H 0.9758 0.3633 0.6587
C40_4 C 0.91713(13) 0.3798(3) 0.71539(15)
H28_4 H 0.9334 0.4547 0.7388
C41_4 C 0.95192(13) 0.1385(3) 0.58466(14)
C42_4 C 0.86558(12) 0.4929(3) 0.81574(14)
C43_4 C 0.90756(13) 0.4514(3) 0.85397(15)
H29_4 H 0.9183 0.3502 0.8561
C44_4 C 0.93324(12) 0.5589(3) 0.88860(15)
H30_4 H 0.9618 0.5303 0.9133
C45_4 C 0.91680(12) 0.7099(3) 0.88701(14)
C46_4 C 0.87439(13) 0.7496(3) 0.85044(16)
H31_4 H 0.8621 0.8496 0.8503
C47_4 C 0.84952(13) 0.6430(4) 0.81371(16)
H32_4 H 0.8220 0.6727 0.7877
C48_4 C 0.94431(11) 0.8283(3) 0.92510(13)
N4_4 N 0.83992(11) 0.3802(3) 0.77784(13)
O5_2 O 0.92204(8) 0.9545(2) 0.93105(10)
O7_4 O 0.98874(8) 0.7930(2) 0.94958(10)
O9_2 O 0.93016(9) 0.0284(2) 0.55591(10)
O12_2 O 0.99730(8) 0.1910(2) 0.57406(10)
C1_4 C 0.71638(17) 0.8686(5) 0.35306(19)
H1_4 H 0.6889 0.9234 0.3696
C2_4 C 0.70981(16) 0.7188(5) 0.3399(2)
H2_4 H 0.6776 0.6708 0.3473
C3_4 C 0.75065(14) 0.6377(4) 0.3157(2)
H3_4 H 0.7461 0.5345 0.3079
C4_4 C 0.79756(11) 0.7057(3) 0.30310(13)
C5_4 C 0.80369(16) 0.8560(4) 0.31738(19)
H4_4 H 0.8359 0.9043 0.3104
C6_4 C 0.76305(18) 0.9373(5) 0.3419(2)
C7_4 C 0.86658(11) 0.6745(3) 0.22900(13)
C8_4 C 0.84263(12) 0.7806(3) 0.19073(15)
H6_4 H 0.8080 0.8129 0.1972
C9_4 C 0.86921(13) 0.8379(3) 0.14371(15)
H7_4 H 0.8523 0.9084 0.1189
C10_4 C 0.92167(12) 0.7918(3) 0.13238(14)
C11_4 C 0.94276(12) 0.6770(3) 0.16773(15)
H8_4 H 0.9758 0.6367 0.1587
C12_4 C 0.91713(13) 0.6202(3) 0.21539(15)
H9_4 H 0.9334 0.5453 0.2388
C13_4 C 0.95192(13) 0.8615(3) 0.08466(14)
C14_4 C 0.86558(12) 0.5071(3) 0.31574(14)
C15_4 C 0.90756(13) 0.5486(3) 0.35397(15)
H10_4 H 0.9183 0.6498 0.3561
C16_4 C 0.93324(12) 0.4411(3) 0.38860(15)
H11_4 H 0.9618 0.4697 0.4133
C17_4 C 0.91680(12) 0.2901(3) 0.38701(14)
C18_4 C 0.87439(13) 0.2504(3) 0.35044(16)
H12_4 H 0.8621 0.1504 0.3503
C19_4 C 0.84952(13) 0.3570(4) 0.31371(16)
H13_4 H 0.8220 0.3273 0.2877
C20_4 C 0.94431(11) 0.1717(3) 0.42510(13)
N2_4 N 0.83992(11) 0.6198(3) 0.27784(13)
O1_4 O 0.92204(8) 0.0455(2) 0.43105(10)
O2_2 O 0.98874(8) 0.2070(2) 0.44958(10)
O3_2 O 0.93016(9) 0.9716(2) 0.05591(10)
H24_4 H 0.2322 0.9602 0.6491
H5_4 H 0.7678 0.0398 0.3509
loop_
_geom_bond_atom_site_label_1
_geom_bond_atom_site_label_2
_geom_bond_site_symmetry_1
_geom_bond_site_symmetry_2
C24 C23 1_555 1_555
H16 C24 1_555 1_555
C25 C24 1_555 1_555
H17 C25 1_555 1_555
C26 C23 1_555 1_555
C27 C26 1_555 1_555
H18 C27 1_555 1_555
Co1 N1 1_555 1_555
H34 C50 1_555 1_555
C56 C27 1_555 1_555
H38 C56 1_555 1_555
C25 N1 1_555 1_555
C21 H14 1_555 1_555
C22 C21 1_555 1_555
H15 C22 1_555 1_555
H19 C28 1_555 1_555
C54 C51 1_555 1_555
C55 C28 1_555 1_555
H37 C55 1_555 1_555
C54 C55 1_555 1_555
C49 H33 1_555 1_555
H35 C52 1_555 1_555
C53 C52 1_555 1_555
H36 C53 1_555 1_555
O6 Co2 1_555 1_555
O14 Co2 1_555 1_555
C53 N3 1_555 1_555
Co2 N3 1_555 1_555
C21_2 H14_2 1_555 1_555
C22_2 C21_2 1_555 1_555
H15_2 C22_2 1_555 1_555
C23_2 C22_2 1_555 1_555
C24_2 C23_2 1_555 1_555
H16_2 C24_2 1_555 1_555
C25_2 C24_2 1_555 1_555
H17_2 C25_2 1_555 1_555
C26_2 C23_2 1_555 1_555
C27_2 C26_2 1_555 1_555
H18_2 C27_2 1_555 1_555
C28_2 C26_2 1_555 1_555
H19_2 C28_2 1_555 1_555
Co5 N1_2 1_555 1_555
N1_2 C21_2 1_555 1_555
H34_2 C50_2 1_555 1_555
C51_2 C50_2 1_555 1_555
C54_2 C51_2 1_555 1_555
C55_2 C28_2 1_555 1_555
H37_2 C55_2 1_555 1_555
C56_2 C27_2 1_555 1_555
H38_2 C56_2 1_555 1_555
C25_2 N1_2 1_555 1_555
C54_2 C55_2 1_555 1_555
C54_2 C56_2 1_555 1_555
C49_2 H33_2 1_555 1_555
H35_2 C52_2 1_555 1_555
C53_2 C52_2 1_555 1_555
H36_2 C53_2 1_555 1_555
Co2_2 Co8_2 1_555 1_555
N3_2 C49_2 1_555 1_555
O6_2 Co2_2 1_555 1_555
O8_2 Co2_2 1_555 1_555
O11_2 Co2_2 1_555 1_555
O14_2 Co2_2 1_555 1_555
C53_2 N3_2 1_555 1_555
Co2_2 N3_2 1_555 1_555
C1 H1 1_555 1_555
C2 C1 1_555 1_555
H2 C2 1_555 1_555
C3 C2 1_555 1_555
H3 C3 1_555 1_555
C4 C3 1_555 1_555
C5 C4 1_555 1_555
H4 C5 1_555 1_555
C6 C1 1_555 1_555
H5_2 C6 1_555 1_555
C7 C8 1_555 1_555
C8 H6 1_555 1_555
C9 C8 1_555 1_555
H7 C9 1_555 1_555
C10 C9 1_555 1_555
C11 C10 1_555 1_555
H8 C11 1_555 1_555
C12 C7 1_555 1_555
H9 C12 1_555 1_555
C13 C10 1_555 1_555
C14 C15 1_555 1_555
C15 H10 1_555 1_555
N2 C4 1_555 1_555
O11_2 C13 1_555 1_555
O4 C13 1_555 1_555
Co8_2 O4 1_555 1_555
C5 C6 1_555 1_555
C7 N2 1_555 1_555
C11 C12 1_555 1_555
C14 N2 1_555 1_555
H11 C16 1_555 1_555
C17 C16 1_555 1_555
C18 C17 1_555 1_555
H12 C18 1_555 1_555
H13 C19 1_555 1_555
C20 C17 1_555 1_555
H16_3 C24_3 1_555 1_555
C25_3 C24_3 1_555 1_555
H17_3 C25_3 1_555 1_555
Co8 N1_3 1_555 1_555
O1 C20 1_555 1_555
O8 C20 1_555 1_555
O13 Co8 1_555 1_555
C18 C19 1_555 1_555
C25_3 N1_3 1_555 1_555
Co8 O1 1_555 1_555
C21_3 H14_3 1_555 1_555
H30 C44 1_555 1_555
C45 C44 1_555 1_555
C46 C45 1_555 1_555
H31 C46 1_555 1_555
H32 C47 1_555 1_555
C48 C45 1_555 1_555
O6 C48 1_555 1_555
C46 C47 1_555 1_555
C48 O7 1_555 1_555
C26_3 C23_3 1_555 1_555
C27_3 C26_3 1_555 1_555
H18_3 C27_3 1_555 1_555
C49_3 H33_3 1_555 1_555
C50_3 C49_3 1_555 1_555
H34_3 C50_3 1_555 1_555
C56_3 C27_3 1_555 1_555
H38_3 C56_3 1_555 1_555
H15_3 C22_3 1_555 1_555
H19_3 C28_3 1_555 1_555
C29 H20 1_555 1_555
C30 C29 1_555 1_555
H21 C30 1_555 1_555
C31 C30 1_555 1_555
H22 C31 1_555 1_555
C32 C31 1_555 1_555
C33 C32 1_555 1_555
H23 C33 1_555 1_555
C34 C29 1_555 1_555
H24_2 C34 1_555 1_555
C35 C36 1_555 1_555
C36 H25 1_555 1_555
C37 C36 1_555 1_555
H26 C37 1_555 1_555
C38 C37 1_555 1_555
C39 C38 1_555 1_555
H27 C39 1_555 1_555
C40 C35 1_555 1_555
H28 C40 1_555 1_555
C41 C38 1_555 1_555
C42 C43 1_555 1_555
C43 H29 1_555 1_555
C52_3 C51_3 1_555 1_555
H35_3 C52_3 1_555 1_555
C53_3 C52_3 1_555 1_555
H36_3 C53_3 1_555 1_555
C54_3 C51_3 1_555 1_555
C55_3 C28_3 1_555 1_555
H37_3 C55_3 1_555 1_555
N4 C32 1_555 1_555
O9 C41 1_555 1_555
O14_2 C41 1_555 1_555
C33 C34 1_555 1_555
C35 N4 1_555 1_555
C39 C40 1_555 1_555
C42 N4 1_555 1_555
C53_3 N3_3 1_555 1_555
C54_3 C55_3 1_555 1_555
Co3 N3_3 1_555 1_555
Co8_2 O9 1_555 1_555
C1_2 H1_2 1_555 1_555
C2_2 C1_2 1_555 1_555
H2_2 C2_2 1_555 1_555
C3_2 C2_2 1_555 1_555
H3_2 C3_2 1_555 1_555
C4_2 C3_2 1_555 1_555
C5_2 C4_2 1_555 1_555
H4_2 C5_2 1_555 1_555
C6_2 C1_2 1_555 1_555
H5_3 C6_2 1_555 1_555
C7_2 C8_2 1_555 1_555
C8_2 H6_2 1_555 1_555
C9_2 C8_2 1_555 1_555
H7_2 C9_2 1_555 1_555
C10_2 C9_2 1_555 1_555
C11_2 C10_2 1_555 1_555
H8_2 C11_2 1_555 1_555
C12_2 C7_2 1_555 1_555
H9_2 C12_2 1_555 1_555
C13_2 C10_2 1_555 1_555
C14_2 C15_2 1_555 1_555
C15_2 H10_2 1_555 1_555
N2_2 C4_2 1_555 1_555
O11 C13_2 1_555 1_555
O13 C13_2 1_555 1_555
C5_2 C6_2 1_555 1_555
C7_2 N2_2 1_555 1_555
C11_2 C12_2 1_555 1_555
C14_2 N2_2 1_555 1_555
H11_2 C16_2 1_555 1_555
C17_2 C16_2 1_555 1_555
C18_2 C17_2 1_555 1_555
H12_2 C18_2 1_555 1_555
H13_2 C19_2 1_555 1_555
C20_2 C17_2 1_555 1_555
C21_4 H14_4 1_555 1_555
H16_4 C24_4 1_555 1_555
C25_4 C24_4 1_555 1_555
H17_4 C25_4 1_555 1_555
Co8_2 N1_4 1_555 1_555
N1_4 C21_4 1_555 1_555
O1_2 C20_2 1_555 1_555
O8_2 C20_2 1_555 1_555
H30_2 C44_2 1_555 1_555
C45_2 C44_2 1_555 1_555
C46_2 C45_2 1_555 1_555
H31_2 C46_2 1_555 1_555
H32_2 C47_2 1_555 1_555
C48_2 C45_2 1_555 1_555
O6_2 C48_2 1_555 1_555
O7_2 Co8_2 1_555 1_555
C18_2 C19_2 1_555 1_555
C25_4 N1_4 1_555 1_555
Co8_2 O1_2 1_555 1_555
C46_2 C47_2 1_555 1_555
C48_2 O7_2 1_555 1_555
H15_4 C22_4 1_555 1_555
C23_4 C22_4 1_555 1_555
C26_4 C23_4 1_555 1_555
C27_4 C26_4 1_555 1_555
H18_4 C27_4 1_555 1_555
C28_4 C26_4 1_555 1_555
H19_4 C28_4 1_555 1_555
C29_2 H20_2 1_555 1_555
C30_2 C29_2 1_555 1_555
H21_2 C30_2 1_555 1_555
C31_2 C30_2 1_555 1_555
H22_2 C31_2 1_555 1_555
C32_2 C31_2 1_555 1_555
C33_2 C32_2 1_555 1_555
H23_2 C33_2 1_555 1_555
C34_2 C29_2 1_555 1_555
H24_3 C34_2 1_555 1_555
C35_2 C36_2 1_555 1_555
C36_2 H25_2 1_555 1_555
C37_2 C36_2 1_555 1_555
H26_2 C37_2 1_555 1_555
C38_2 C37_2 1_555 1_555
C39_2 C38_2 1_555 1_555
H27_2 C39_2 1_555 1_555
C40_2 C35_2 1_555 1_555
H28_2 C40_2 1_555 1_555
C41_2 C38_2 1_555 1_555
C42_2 C43_2 1_555 1_555
C43_2 H29_2 1_555 1_555
C49_4 H33_4 1_555 1_555
C50_4 C49_4 1_555 1_555
H34_4 C50_4 1_555 1_555
C51_4 C50_4 1_555 1_555
C52_4 C51_4 1_555 1_555
H35_4 C52_4 1_555 1_555
C53_4 C52_4 1_555 1_555
H36_4 C53_4 1_555 1_555
C54_4 C51_4 1_555 1_555
C55_4 C28_4 1_555 1_555
H37_4 C55_4 1_555 1_555
C56_4 C27_4 1_555 1_555
H38_4 C56_4 1_555 1_555
N3_4 C49_4 1_555 1_555
N4_2 C32_2 1_555 1_555
O10 C41_2 1_555 1_555
O14 C41_2 1_555 1_555
C33_2 C34_2 1_555 1_555
C35_2 N4_2 1_555 1_555
C39_2 C40_2 1_555 1_555
C42_2 N4_2 1_555 1_555
C53_4 N3_4 1_555 1_555
C54_4 C55_4 1_555 1_555
C54_4 C56_4 1_555 1_555
Co4 N3_4 1_555 1_555
C1_3 H1_3 1_555 1_555
C2_3 C1_3 1_555 1_555
H2_3 C2_3 1_555 1_555
C3_3 C2_3 1_555 1_555
H3_3 C3_3 1_555 1_555
C4_3 C3_3 1_555 1_555
C5_3 C4_3 1_555 1_555
H4_3 C5_3 1_555 1_555
C6_3 C1_3 1_555 1_555
C7_3 C8_3 1_555 1_555
C8_3 H6_3 1_555 1_555
C9_3 C8_3 1_555 1_555
H7_3 C9_3 1_555 1_555
C10_3 C9_3 1_555 1_555
C11_3 C10_3 1_555 1_555
H8_3 C11_3 1_555 1_555
C12_3 C7_3 1_555 1_555
H9_3 C12_3 1_555 1_555
C13_3 C10_3 1_555 1_555
C14_3 C15_3 1_555 1_555
C15_3 H10_3 1_555 1_555
C16_3 C15_3 1_555 1_555
H11_3 C16_3 1_555 1_555
C17_3 C16_3 1_555 1_555
C18_3 C17_3 1_555 1_555
H12_3 C18_3 1_555 1_555
C19_3 C14_3 1_555 1_555
H13_3 C19_3 1_555 1_555
C20_3 C17_3 1_555 1_555
N2_3 C4_3 1_555 1_555
O1_3 C20_3 1_555 1_555
O2 C20_3 1_555 1_555
O3 C13_3 1_555 1_555
O4_2 C13_3 1_555 1_555
C5_3 C6_3 1_555 1_555
C7_3 N2_3 1_555 1_555
C11_3 C12_3 1_555 1_555
C14_3 N2_3 1_555 1_555
C18_3 C19_3 1_555 1_555
C29_3 H20_3 1_555 1_555
C30_3 C29_3 1_555 1_555
H21_3 C30_3 1_555 1_555
C31_3 C30_3 1_555 1_555
H22_3 C31_3 1_555 1_555
C32_3 C31_3 1_555 1_555
C33_3 C32_3 1_555 1_555
H23_3 C33_3 1_555 1_555
C34_3 C29_3 1_555 1_555
C35_3 C36_3 1_555 1_555
C36_3 H25_3 1_555 1_555
C37_3 C36_3 1_555 1_555
H26_3 C37_3 1_555 1_555
C38_3 C37_3 1_555 1_555
C39_3 C38_3 1_555 1_555
H27_3 C39_3 1_555 1_555
C40_3 C35_3 1_555 1_555
H28_3 C40_3 1_555 1_555
C41_3 C38_3 1_555 1_555
C42_3 C43_3 1_555 1_555
C43_3 H29_3 1_555 1_555
C44_3 C43_3 1_555 1_555
H30_3 C44_3 1_555 1_555
C45_3 C44_3 1_555 1_555
C46_3 C45_3 1_555 1_555
H31_3 C46_3 1_555 1_555
C47_3 C42_3 1_555 1_555
H32_3 C47_3 1_555 1_555
C48_3 C45_3 1_555 1_555
N4_3 C32_3 1_555 1_555
O5 C48_3 1_555 1_555
O10_2 C41_3 1_555 1_555
O12 C41_3 1_555 1_555
C33_3 C34_3 1_555 1_555
C35_3 N4_3 1_555 1_555
C39_3 C40_3 1_555 1_555
C42_3 N4_3 1_555 1_555
C46_3 C47_3 1_555 1_555
C48_3 O7_3 1_555 1_555
C29_4 H20_4 1_555 1_555
C30_4 C29_4 1_555 1_555
H21_4 C30_4 1_555 1_555
C31_4 C30_4 1_555 1_555
H22_4 C31_4 1_555 1_555
C32_4 C31_4 1_555 1_555
C33_4 C32_4 1_555 1_555
H23_4 C33_4 1_555 1_555
C34_4 C29_4 1_555 1_555
C35_4 C36_4 1_555 1_555
C36_4 H25_4 1_555 1_555
C37_4 C36_4 1_555 1_555
H26_4 C37_4 1_555 1_555
C38_4 C37_4 1_555 1_555
C39_4 C38_4 1_555 1_555
H27_4 C39_4 1_555 1_555
C40_4 C35_4 1_555 1_555
H28_4 C40_4 1_555 1_555
C41_4 C38_4 1_555 1_555
C42_4 C43_4 1_555 1_555
C43_4 H29_4 1_555 1_555
C44_4 C43_4 1_555 1_555
H30_4 C44_4 1_555 1_555
C45_4 C44_4 1_555 1_555
C46_4 C45_4 1_555 1_555
H31_4 C46_4 1_555 1_555
C47_4 C42_4 1_555 1_555
H32_4 C47_4 1_555 1_555
C48_4 C45_4 1_555 1_555
N4_4 C32_4 1_555 1_555
O5_2 C48_4 1_555 1_555
O9_2 C41_4 1_555 1_555
O12_2 C41_4 1_555 1_555
C33_4 C34_4 1_555 1_555
C35_4 N4_4 1_555 1_555
C39_4 C40_4 1_555 1_555
C42_4 N4_4 1_555 1_555
C46_4 C47_4 1_555 1_555
C48_4 O7_4 1_555 1_555
C1_4 H1_4 1_555 1_555
C2_4 C1_4 1_555 1_555
H2_4 C2_4 1_555 1_555
C3_4 C2_4 1_555 1_555
H3_4 C3_4 1_555 1_555
C4_4 C3_4 1_555 1_555
C5_4 C4_4 1_555 1_555
H4_4 C5_4 1_555 1_555
C6_4 C1_4 1_555 1_555
C7_4 C8_4 1_555 1_555
C8_4 H6_4 1_555 1_555
C9_4 C8_4 1_555 1_555
H7_4 C9_4 1_555 1_555
C10_4 C9_4 1_555 1_555
C11_4 C10_4 1_555 1_555
H8_4 C11_4 1_555 1_555
C12_4 C7_4 1_555 1_555
H9_4 C12_4 1_555 1_555
C13_4 C10_4 1_555 1_555
C14_4 C15_4 1_555 1_555
C15_4 H10_4 1_555 1_555
C16_4 C15_4 1_555 1_555
H11_4 C16_4 1_555 1_555
C17_4 C16_4 1_555 1_555
C18_4 C17_4 1_555 1_555
H12_4 C18_4 1_555 1_555
C19_4 C14_4 1_555 1_555
H13_4 C19_4 1_555 1_555
C20_4 C17_4 1_555 1_555
N2_4 C4_4 1_555 1_555
O1_4 C20_4 1_555 1_555
O2_2 C20_4 1_555 1_555
O3_2 C13_4 1_555 1_555
O13_2 C13_4 1_555 1_555
C5_4 C6_4 1_555 1_555
C7_4 N2_4 1_555 1_555
C11_4 C12_4 1_555 1_555
C14_4 N2_4 1_555 1_555
C18_4 C19_4 1_555 1_555

#END
