
###############################################################################
#
# This file contains modified crystal structure data generated from the
# MOF subset of the Cambridge Structural Database (CSD) v543 
# hosted by the Cambridge Crystallographic Data Centre (CCDC).
#
# This work is licensed under the Creative Commons
# Attribution-NonCommercial-ShareAlike 4.0 International License.
# To view a copy of this license, visit
# http://creativecommons.org/licenses/by-nc-sa/4.0/
# or send a letter to
# Creative Commons, PO Box 1866, Mountain View, CA 94042, USA.
#
# CIF created using the CSD Python API on 29 September 2022
# The structure has been converted into the P1 space group
# The structure has a 3D framework
# The original CSD entry XEQLEM is in the monoclinic crystal system
# The original CSD entry XEQLEM is in a Sohncke space group
# The framework has been calculated to contain at least 10.0% void space
# The void calculation uses a probe of radius 1.32A, grid spacing 0.4
#
###############################################################################

data_XEQLEM
_chemical_formula_moiety         '(C48 H32 Mg4 N8 O16)n'
_symmetry_cell_setting           triclinic
_symmetry_space_group_name_H-M   'P 1'
_symmetry_Int_Tables_number      1
_space_group_name_Hall           'P 1'
loop_
_symmetry_equiv_pos_site_id
_symmetry_equiv_pos_as_xyz
1 x,y,z
_cell_length_a                   9.8836(4)
_cell_length_b                   12.8681(4)
_cell_length_c                   10.9817(4)
_cell_angle_alpha                90
_cell_angle_beta                 99.384(3)
_cell_angle_gamma                90
_cell_volume                     1378
loop_
_atom_site_label
_atom_site_type_symbol
_atom_site_fract_x
_atom_site_fract_y
_atom_site_fract_z
Mg1 Mg 0.3721(3) 0.2349(3) 0.2503(3)
O1 O 0.2040(5) 0.2805(6) 0.1337(5)
O3 O 0.2646(6) 0.1491(6) 0.3576(5)
O4 O 0.0503(6) 0.1936(6) 0.3713(5)
O5 O 0.5471(6) 0.1927(6) 0.3700(6)
O6 O 0.7638(6) 0.1542(6) 0.3590(6)
O7 O 0.4850(6) 0.3246(6) 0.1460(5)
O8 O 0.6974(5) 0.2725(6) 0.1288(5)
C1 C 0.0965(8) 0.3339(9) 0.1010(7)
C2 C 0.1043(8) 0.4236(9) 0.0159(7)
H3 H 0.3066 0.4179 0.0029
C7 C 0.1529(8) 0.1410(8) 0.3971(7)
C8 C 0.1509(8) 0.0521(8) 0.4879(7)
C9 C 0.0286(7) 0.0274(8) 0.5286(7)
H7 H 0.3464 0.0074 0.5018
C13 C 0.6518(8) 0.1407(8) 0.3930(7)
C14 C 0.6495(8) 0.0477(8) 0.4779(8)
C15 C 0.6296(9) 0.0586(8) 0.5953(7)
H9 H 0.6161 0.1243 0.6264
C19 C 0.5964(8) 0.3345(9) 0.1065(7)
C20 C 0.6077(8) 0.4257(8) 0.0241(8)
C21 C 0.6096(10) 0.5267(8) 0.0694(7)
H13 H 0.6071 0.5389 0.1524
H14 H 0.6185 0.6774 0.0195
Mg5 Mg 0.8750(3) 0.2357(3) 0.2474(3)
N7 N 0.3636(7) 0.3758(7) 0.3678(6)
N8 N 0.3835(8) 0.0976(7) 0.1305(7)
N1 N 0.1119(8) 0.5949(7) 0.8602(7)
N4 N 0.6165(8) 0.5976(7) 0.8695(7)
C5 C 0.2255(8) 0.4541(8) 0.9774(7)
C6 C 0.2233(8) 0.5387(8) 0.9012(7)
H4 H 0.3052 0.5582 0.8764
C22 C 0.6154(9) 0.6102(8) 0.9880(7)
C23 C 0.6068(9) 0.4153(8) 0.9001(7)
H15 H 0.6018 0.3494 0.8649
C24 C 0.6133(8) 0.5023(8) 0.8257(7)
H16 H 0.6155 0.4927 0.7421
Mg4 Mg 0.6279(3) 0.7349(3) 0.7497(3)
Mg6 Mg 0.1250(3) 0.7357(3) 0.7526(3)
N2 N 0.1364(7) 0.8809(7) 0.6445(6)
N3 N 0.6364(7) 0.8758(7) 0.6322(6)
C10 C 0.0278(8) 0.9426(8) 0.6075(8)
C11 C 0.2635(7) 0.9925(8) 0.5276(7)
C12 C 0.2542(8) 0.9097(8) 0.6065(7)
H8 H 0.3333 0.8719 0.6348
C16 C 0.6292(9) 0.9714(8) 0.6706(8)
H10 H 0.6234 0.9819 0.7534
C17 C 0.6564(9) 0.9463(8) 0.4328(7)
H11 H 0.6669 0.9352 0.3512
C18 C 0.6478(9) 0.8654(8) 0.5081(7)
H12 H 0.6495 0.7987 0.4756
O2 O 0.9824(6) 0.3168(6) 0.1353(6)
H5 H 0.9496 0.0663 0.5039
N5 N 0.8881(8) 0.0949(7) 0.1398(7)
N6 N 0.8636(7) 0.3809(7) 0.3555(6)
O2_2 O 0.0176(6) 0.8168(6) 0.8647(6)
H5_2 H 0.0504 0.5663 0.4961
H6 H 0.0534 0.4278 0.3635
O9 O 0.2362(6) 0.6542(6) 0.6410(6)
O10 O 0.3026(5) 0.7725(6) 0.8712(5)
C6_2 C 0.7767(8) 0.0387(8) 0.0988(7)
H4_2 H 0.6948 0.0582 0.1236
C22_2 C 0.3846(9) 0.1102(8) 0.0120(7)
C24_2 C 0.3867(8) 0.0023(8) 0.1743(7)
O1_2 O 0.7960(5) 0.7805(6) 0.8663(5)
O3_2 O 0.7354(6) 0.6491(6) 0.6424(5)
O4_2 O 0.9497(6) 0.6936(6) 0.6287(5)
O5_2 O 0.4529(6) 0.6927(6) 0.6300(6)
O7_2 O 0.5150(6) 0.8246(6) 0.8540(5)
C1_2 C 0.9035(8) 0.8339(9) 0.8990(7)
C2_2 C 0.8957(8) 0.9236(9) 0.9841(7)
H3_2 H 0.6934 0.9179 0.9971
C7_2 C 0.8471(8) 0.6410(8) 0.6029(7)
C8_2 C 0.8491(8) 0.5521(8) 0.5121(7)
C9_2 C 0.9714(7) 0.5274(8) 0.4714(7)
C10_2 C 0.9722(8) 0.4426(8) 0.3925(8)
C11_2 C 0.7365(7) 0.4925(8) 0.4724(7)
H7_2 H 0.6536 0.5074 0.4982
C12_2 C 0.7458(8) 0.4097(8) 0.3935(7)
H8_2 H 0.6667 0.3719 0.3652
C13_2 C 0.3482(8) 0.6407(8) 0.6070(7)
C14_2 C 0.3505(8) 0.5477(8) 0.5221(8)
C15_2 C 0.3704(9) 0.5586(8) 0.4047(7)
H9_2 H 0.3839 0.6243 0.3736
C16_2 C 0.3708(9) 0.4714(8) 0.3294(8)
H10_2 H 0.3766 0.4819 0.2466
C17_2 C 0.3436(9) 0.4463(8) 0.5672(7)
H11_2 H 0.3331 0.4352 0.6488
C18_2 C 0.3522(9) 0.3654(8) 0.4919(7)
H12_2 H 0.3505 0.2987 0.5244
C19_2 C 0.4036(8) 0.8345(9) 0.8935(7)
C20_2 C 0.3923(8) 0.9257(8) 0.9759(8)
C3 C 0.9847(7) 0.4804(8) 0.9682(7)
H1 H 0.9005 0.4612 0.9885
C4 C 0.9931(8) 0.5638(8) 0.8921(7)
H2 H 0.9135 0.6001 0.8614
H6_2 H 0.9466 0.9278 0.6365
C4_2 C 0.0069(8) 0.0638(8) 0.1079(7)
H2_2 H 0.0865 0.1001 0.1386
C3_2 C 0.0153(7) 0.9804(8) 0.0318(7)
H1_2 H 0.0995 0.9612 0.0115
C21_2 C 0.3904(10) 0.0267(8) 0.9306(7)
H13_2 H 0.3929 0.0389 0.8476
H14_2 H 0.3815 0.1774 0.9805
C5_2 C 0.7745(8) 0.9541(8) 0.0226(7)
C23_2 C 0.3932(9) 0.9153(8) 0.0999(7)
H15_2 H 0.3982 0.8494 0.1351
H16_2 H 0.3845 0.9927 0.2579
loop_
_geom_bond_atom_site_label_1
_geom_bond_atom_site_label_2
_geom_bond_site_symmetry_1
_geom_bond_site_symmetry_2
Mg1 O1 1_555 1_555
O1 C1 1_555 1_555
O3 Mg1 1_555 1_555
O5 Mg1 1_555 1_555
O6 C13 1_555 1_555
O7 Mg1 1_555 1_555
O8 C19 1_555 1_555
C1 C2 1_555 1_555
C7 O3 1_555 1_555
C8 C7 1_555 1_555
C9 C8 1_555 1_555
C13 O5 1_555 1_555
C14 C13 1_555 1_555
C15 C14 1_555 1_555
H9 C15 1_555 1_555
C19 O7 1_555 1_555
C20 C19 1_555 1_555
C21 C20 1_555 1_555
H13 C21 1_555 1_555
Mg5 O6 1_555 1_555
N7 Mg1 1_555 1_555
N8 Mg1 1_555 1_555
O4 C7 1_555 1_555
O8 Mg5 1_555 1_555
N4 C22 1_555 1_555
C6 N1 1_555 1_555
H4 C6 1_555 1_555
H15 C23 1_555 1_555
C24 N4 1_555 1_555
H16 C24 1_555 1_555
Mg4 N4 1_555 1_555
Mg6 N1 1_555 1_555
C5 C6 1_555 1_555
C23 C24 1_555 1_555
N2 C10 1_555 1_555
N3 C16 1_555 1_555
C12 N2 1_555 1_555
H8 C12 1_555 1_555
H10 C16 1_555 1_555
H11 C17 1_555 1_555
C18 N3 1_555 1_555
H12 C18 1_555 1_555
Mg4 N3 1_555 1_555
Mg6 N2 1_555 1_555
C11 C12 1_555 1_555
C17 C18 1_555 1_555
Mg5 O2 1_555 1_555
N5 Mg5 1_555 1_555
N6 Mg5 1_555 1_555
Mg6 O2_2 1_555 1_555
O9 Mg6 1_555 1_555
O10 Mg6 1_555 1_555
N8 C22_2 1_555 1_555
C6_2 N5 1_555 1_555
H4_2 C6_2 1_555 1_555
C24_2 N8 1_555 1_555
Mg4 O1_2 1_555 1_555
O1_2 C1_2 1_555 1_555
O3_2 Mg4 1_555 1_555
O5_2 Mg4 1_555 1_555
O9 C13_2 1_555 1_555
O7_2 Mg4 1_555 1_555
O10 C19_2 1_555 1_555
N6 C10_2 1_555 1_555
N7 C16_2 1_555 1_555
C1_2 C2_2 1_555 1_555
C7_2 O3_2 1_555 1_555
C8_2 C7_2 1_555 1_555
C9_2 C8_2 1_555 1_555
C10_2 C9_2 1_555 1_555
C11_2 C8_2 1_555 1_555
H7_2 C11_2 1_555 1_555
C12_2 N6 1_555 1_555
H8_2 C12_2 1_555 1_555
C13_2 O5_2 1_555 1_555
C14_2 C13_2 1_555 1_555
C15_2 C14_2 1_555 1_555
H9_2 C15_2 1_555 1_555
C16_2 C15_2 1_555 1_555
H10_2 C16_2 1_555 1_555
C17_2 C14_2 1_555 1_555
H11_2 C17_2 1_555 1_555
C18_2 N7 1_555 1_555
H12_2 C18_2 1_555 1_555
C19_2 O7_2 1_555 1_555
C20_2 C19_2 1_555 1_555
O4_2 C7_2 1_555 1_555
C11_2 C12_2 1_555 1_555
C17_2 C18_2 1_555 1_555
C3 H1 1_555 1_555
C4 C3 1_555 1_555
H2 C4 1_555 1_555
H2_2 C4_2 1_555 1_555
C3_2 H1_2 1_555 1_555
H13_2 C21_2 1_555 1_555
H15_2 C23_2 1_555 1_555

#END
