
###############################################################################
#
# This file contains modified crystal structure data generated from the
# MOF subset of the Cambridge Structural Database (CSD) v543 
# hosted by the Cambridge Crystallographic Data Centre (CCDC).
#
# This work is licensed under the Creative Commons
# Attribution-NonCommercial-ShareAlike 4.0 International License.
# To view a copy of this license, visit
# http://creativecommons.org/licenses/by-nc-sa/4.0/
# or send a letter to
# Creative Commons, PO Box 1866, Mountain View, CA 94042, USA.
#
# CIF created using the CSD Python API on 29 September 2022
# The structure has been converted into the P1 space group
# The structure has a 3D framework
# The original CSD entry XEQLEM01 is in the monoclinic crystal system
# The original CSD entry XEQLEM01 is in a Sohncke space group
# The framework has been calculated to contain at least 10.0% void space
# The void calculation uses a probe of radius 1.32A, grid spacing 0.4
#
###############################################################################

data_XEQLEM01
_chemical_formula_moiety         '(C48 H32 Mg4 N8 O16)n'
_symmetry_cell_setting           triclinic
_symmetry_space_group_name_H-M   'P 1'
_symmetry_Int_Tables_number      1
_space_group_name_Hall           'P 1'
loop_
_symmetry_equiv_pos_site_id
_symmetry_equiv_pos_as_xyz
1 x,y,z
_cell_length_a                   9.8460(12)
_cell_length_b                   12.8415(13)
_cell_length_c                   10.9975(13)
_cell_angle_alpha                90
_cell_angle_beta                 99.390(12)
_cell_angle_gamma                90
_cell_volume                     1371.86
loop_
_atom_site_label
_atom_site_type_symbol
_atom_site_fract_x
_atom_site_fract_y
_atom_site_fract_z
C5 C 0.0066(5) 0.1176(4) 0.1077(4)
H3 H 0.0862 0.0805 0.1376
C6 C 0.0164(4) 0.2008(4) 0.0323(4)
H4 H 0.1014 0.2207 0.0135
C10 C 0.3858(6) 0.0712(4) 0.0107(5)
C11 C 0.3878(5) 0.1792(5) 0.1740(4)
H7 H 0.3869 0.1895 0.2575
C12 C 0.3919(6) 0.2653(4) 0.0998(5)
H8 H 0.3930 0.3318 0.1334
N2 N 0.3851(5) 0.0828(4) 0.1321(5)
Mg1 Mg 0.1241(2) 0.4421(2) 0.75210(19)
Mg2 Mg 0.6276(2) 0.4427(2) 0.74904(19)
C7 C 0.4028(6) 0.3458(5) 0.8916(5)
C8 C 0.3945(6) 0.2527(5) 0.9747(6)
C9 C 0.3922(6) 0.1526(5) 0.9310(5)
H5 H 0.3949 0.1400 0.8482
H6 H 0.3817 0.0040 0.9789
C13 C 0.3476(5) 0.5395(5) 0.6074(5)
C14 C 0.3542(5) 0.6313(4) 0.5230(5)
C15 C 0.3707(6) 0.6210(5) 0.4033(5)
H9 H 0.3810 0.5552 0.3709
C16 C 0.3723(5) 0.7078(4) 0.3298(4)
H10 H 0.3793 0.6977 0.2473
C17 C 0.3530(6) 0.8160(4) 0.4906(5)
H11 H 0.3506 0.8827 0.5232
C18 C 0.3448(6) 0.7324(5) 0.5668(5)
H12 H 0.3330 0.7433 0.6480
C19 C 0.1539(6) 0.0390(4) 0.3977(5)
C20 C 0.1485(6) 0.1280(4) 0.4888(5)
C21 C 0.0279(5) 0.1536(4) 0.5294(5)
C22 C 0.0266(5) 0.2382(5) 0.6062(5)
C23 C 0.2528(5) 0.2715(4) 0.6053(4)
H15 H 0.3322 0.3093 0.6336
C24 C 0.2622(4) 0.1880(4) 0.5275(4)
H16 H 0.3453 0.1727 0.5017
N3 N 0.3643(5) 0.8057(4) 0.3700(5)
N4 N 0.1353(5) 0.3006(4) 0.6419(4)
O2 O 0.0154(4) 0.3621(4) 0.8652(4)
O3 O 0.3033(4) 0.4059(4) 0.8724(4)
O4 O 0.5138(4) 0.3540(4) 0.8539(4)
O5 O 0.4532(4) 0.4871(4) 0.6322(4)
O6 O 0.2352(4) 0.5254(4) 0.6429(4)
O7 O 0.2662(4) 0.0295(4) 0.3579(4)
Mg8 Mg 0.3724(2) 0.9427(2) 0.25096(19)
N5 N 0.1117(5) 0.5869(4) 0.8593(4)
N6 N 0.6149(5) 0.5828(4) 0.8679(5)
N7 N 0.6357(5) 0.3057(4) 0.6300(5)
O9 O 0.7961(4) 0.3986(4) 0.8682(4)
O10 O 0.7338(4) 0.5295(4) 0.6421(4)
O8 O 0.0494(4) 0.9863(4) 0.3695(3)
C3 C 0.7761(5) 0.2253(4) 0.0202(4)
C4 C 0.7771(5) 0.1413(4) 0.0974(4)
H2 H 0.6942 0.1213 0.1206
N1 N 0.8883(5) 0.0869(4) 0.1407(4)
C1 C 0.9035(6) 0.3458(5) 0.8977(5)
C2 C 0.8980(6) 0.2553(5) 0.9839(5)
H1 H 0.6949 0.2614 0.9929
H13 H 0.9486 0.1145 0.5054
H14 H 0.9451 0.2530 0.6352
O11 O 0.9506(4) 0.4863(4) 0.6305(3)
Mg4 Mg 0.8759(2) 0.9421(2) 0.24790(19)
C1_2 C 0.0965(6) 0.8458(5) 0.1023(5)
C2_2 C 0.1020(6) 0.7553(5) 0.0161(5)
H1_2 H 0.3051 0.7614 0.0071
H13_2 H 0.0514 0.6145 0.4946
H14_2 H 0.0549 0.7530 0.3648
O1 O 0.2039(4) 0.8986(4) 0.1318(4)
C3_2 C 0.2239(5) 0.7253(4) 0.9798(4)
C4_2 C 0.2229(5) 0.6413(4) 0.9026(4)
H2_2 H 0.3058 0.6213 0.8794
C13_2 C 0.6524(5) 0.0395(5) 0.3926(5)
C14_2 C 0.6458(5) 0.1313(4) 0.4770(5)
C15_2 C 0.6293(6) 0.1210(5) 0.5967(5)
H9_2 H 0.6190 0.0552 0.6291
C16_2 C 0.6277(5) 0.2078(4) 0.6702(4)
H10_2 H 0.6207 0.1977 0.7527
C17_2 C 0.6470(6) 0.3160(4) 0.5094(5)
H11_2 H 0.6494 0.3827 0.4768
C18_2 C 0.6552(6) 0.2324(5) 0.4332(5)
H12_2 H 0.6670 0.2433 0.3520
O6_2 O 0.7648(4) 0.0254(4) 0.3571(4)
C7_2 C 0.5972(6) 0.8458(5) 0.1084(5)
C8_2 C 0.6055(6) 0.7527(5) 0.0253(6)
C9_2 C 0.6078(6) 0.6526(5) 0.0690(5)
H5_2 H 0.6051 0.6400 0.1518
H6_2 H 0.6183 0.5040 0.0211
C19_2 C 0.8461(6) 0.5390(4) 0.6023(5)
C20_2 C 0.8515(6) 0.6280(4) 0.5112(5)
C21_2 C 0.9721(5) 0.6536(4) 0.4706(5)
C22_2 C 0.9734(5) 0.7382(5) 0.3938(5)
C23_2 C 0.7472(5) 0.7715(4) 0.3947(4)
H15_2 H 0.6678 0.8093 0.3664
C24_2 C 0.7378(4) 0.6880(4) 0.4725(4)
H16_2 H 0.6547 0.6727 0.4983
N4_2 N 0.8647(5) 0.8006(4) 0.3581(4)
O2_2 O 0.9846(4) 0.8621(4) 0.1348(4)
O3_2 O 0.6967(4) 0.9059(4) 0.1276(4)
O4_2 O 0.4862(4) 0.8540(4) 0.1461(4)
O5_2 O 0.5468(4) 0.9871(4) 0.3678(4)
C5_2 C 0.9934(5) 0.6176(4) 0.8923(4)
H3_2 H 0.9138 0.5805 0.8624
C6_2 C 0.9836(4) 0.7008(4) 0.9677(4)
H4_2 H 0.8986 0.7207 0.9865
C10_2 C 0.6142(6) 0.5712(4) 0.9893(5)
C11_2 C 0.6122(5) 0.6792(5) 0.8260(4)
H7_2 H 0.6131 0.6895 0.7425
C12_2 C 0.6081(6) 0.7653(4) 0.9002(5)
H8_2 H 0.6070 0.8318 0.8666
loop_
_geom_bond_atom_site_label_1
_geom_bond_atom_site_label_2
_geom_bond_site_symmetry_1
_geom_bond_site_symmetry_2
C5 H3 1_555 1_555
H4 C6 1_555 1_555
C11 H7 1_555 1_555
H8 C12 1_555 1_555
N2 C10 1_555 1_555
C5 C6 1_555 1_555
C11 C12 1_555 1_555
C11 N2 1_555 1_555
Mg1 N4 1_555 1_555
Mg2 O4 1_555 1_555
C7 C8 1_555 1_555
C8 C9 1_555 1_555
C9 H5 1_555 1_555
C13 C14 1_555 1_555
C14 C15 1_555 1_555
C15 H9 1_555 1_555
C16 C15 1_555 1_555
H10 C16 1_555 1_555
C17 H11 1_555 1_555
C18 C14 1_555 1_555
H12 C18 1_555 1_555
C19 C20 1_555 1_555
C20 C21 1_555 1_555
C22 C21 1_555 1_555
C23 H15 1_555 1_555
C24 C20 1_555 1_555
H16 C24 1_555 1_555
N3 C16 1_555 1_555
N4 C22 1_555 1_555
O2 Mg1 1_555 1_555
O3 Mg1 1_555 1_555
O4 C7 1_555 1_555
O5 Mg2 1_555 1_555
O6 Mg1 1_555 1_555
O7 C19 1_555 1_555
Mg8 N3 1_555 1_555
N5 Mg1 1_555 1_555
N6 Mg2 1_555 1_555
N7 Mg2 1_555 1_555
O9 Mg2 1_555 1_555
O10 Mg2 1_555 1_555
C7 O3 1_555 1_555
C13 O5 1_555 1_555
C13 O6 1_555 1_555
C17 C18 1_555 1_555
C17 N3 1_555 1_555
C23 C24 1_555 1_555
C23 N4 1_555 1_555
C4 C3 1_555 1_555
H2 C4 1_555 1_555
N1 C4 1_555 1_555
C1 C2 1_555 1_555
O9 C1 1_555 1_555
C1_2 C2_2 1_555 1_555
O1 C1_2 1_555 1_555
Mg8 O1 1_555 1_555
C4_2 C3_2 1_555 1_555
H2_2 C4_2 1_555 1_555
N5 C4_2 1_555 1_555
C13_2 C14_2 1_555 1_555
C14_2 C15_2 1_555 1_555
C15_2 H9_2 1_555 1_555
C16_2 C15_2 1_555 1_555
H10_2 C16_2 1_555 1_555
C17_2 H11_2 1_555 1_555
C18_2 C14_2 1_555 1_555
H12_2 C18_2 1_555 1_555
N7 C16_2 1_555 1_555
C13_2 O6_2 1_555 1_555
C17_2 C18_2 1_555 1_555
C17_2 N7 1_555 1_555
Mg4 N4_2 1_555 1_555
Mg8 O4_2 1_555 1_555
C7_2 C8_2 1_555 1_555
C8_2 C9_2 1_555 1_555
C9_2 H5_2 1_555 1_555
C19_2 C20_2 1_555 1_555
C20_2 C21_2 1_555 1_555
C22_2 C21_2 1_555 1_555
C23_2 H15_2 1_555 1_555
C24_2 C20_2 1_555 1_555
H16_2 C24_2 1_555 1_555
N4_2 C22_2 1_555 1_555
O2_2 Mg4 1_555 1_555
O3_2 Mg4 1_555 1_555
O4_2 C7_2 1_555 1_555
O5_2 Mg8 1_555 1_555
O10 C19_2 1_555 1_555
O11 C19_2 1_555 1_555
C7_2 O3_2 1_555 1_555
C23_2 C24_2 1_555 1_555
C23_2 N4_2 1_555 1_555
C5_2 H3_2 1_555 1_555
H4_2 C6_2 1_555 1_555
C11_2 H7_2 1_555 1_555
H8_2 C12_2 1_555 1_555
N6 C10_2 1_555 1_555
C5_2 C6_2 1_555 1_555
C11_2 C12_2 1_555 1_555
C11_2 N6 1_555 1_555

#END
