
###############################################################################
#
# This file contains modified crystal structure data generated from the
# MOF subset of the Cambridge Structural Database (CSD) v543 
# hosted by the Cambridge Crystallographic Data Centre (CCDC).
#
# This work is licensed under the Creative Commons
# Attribution-NonCommercial-ShareAlike 4.0 International License.
# To view a copy of this license, visit
# http://creativecommons.org/licenses/by-nc-sa/4.0/
# or send a letter to
# Creative Commons, PO Box 1866, Mountain View, CA 94042, USA.
#
# CIF created using the CSD Python API on 29 September 2022
# The structure has been converted into the P1 space group
# The structure has a 3D framework
# The original CSD entry XEQRAO is in the monoclinic crystal system
# The framework has been calculated to contain at least 10.0% void space
# The void calculation uses a probe of radius 1.32A, grid spacing 0.4
#
###############################################################################

data_XEQRAO
_chemical_formula_moiety         '(C112 H72 Cd5 O14)n'
_symmetry_cell_setting           triclinic
_symmetry_space_group_name_H-M   'P 1'
_symmetry_Int_Tables_number      1
_space_group_name_Hall           'P 1'
loop_
_symmetry_equiv_pos_site_id
_symmetry_equiv_pos_as_xyz
1 x,y,z
_cell_length_a                   33.321(7)
_cell_length_b                   9.807(2)
_cell_length_c                   7.8951(16)
_cell_angle_alpha                90
_cell_angle_beta                 96.68(3)
_cell_angle_gamma                90
_cell_volume                     2562.44
loop_
_atom_site_label
_atom_site_type_symbol
_atom_site_fract_x
_atom_site_fract_y
_atom_site_fract_z
Cd1 Cd 0.5000 0.02921(5) 0.7500
O1 O 0.45233(9) 0.1684(4) 0.6120(4)
C1 C 0.43880(11) 0.0865(5) 0.4959(6)
C2 C 0.40065(11) 0.1219(5) 0.3854(5)
C3 C 0.37893(12) 0.0202(5) 0.2954(6)
C4 C 0.34218(12) 0.0492(4) 0.2007(6)
C5 C 0.32712(11) 0.1804(4) 0.1940(5)
C6 C 0.34940(13) 0.2822(5) 0.2813(6)
H4 H 0.3398 0.3713 0.2758
C7 C 0.38591(12) 0.2531(5) 0.3772(6)
H5 H 0.4005 0.3226 0.4363
C8 C 0.28725(11) 0.2139(4) 0.0931(5)
C10 C 0.25133(11) 0.1883(4) 0.1625(5)
C11 C 0.25036(13) 0.1274(5) 0.3258(6)
H6 H 0.2746 0.1026 0.3891
C12 C 0.21528(14) 0.1045(5) 0.3914(6)
H7 H 0.2157 0.0647 0.4984
C13 C 0.17811(13) 0.1407(5) 0.2987(6)
H8 H 0.1541 0.1248 0.3449
O5 O 0.54767(9) 0.1684(4) 0.8880(4)
O8 O 0.54396(9) 0.0249(3) 0.5263(5)
O9 O 0.45604(9) 0.0249(3) 0.9737(5)
C23 C 0.21324(11) 0.2251(4) 0.0673(5)
C28 C 0.17722(12) 0.1985(4) 0.1426(6)
H18 H 0.1524 0.2214 0.0829
H11 H 0.6110 0.0683 0.7018
H12 H 0.6724 0.0203 0.8585
H11_2 H 0.3890 0.0683 0.7982
H12_2 H 0.3276 0.0203 0.6415
O2 O 0.5000 0.2005(5) 0.2500
H1 H 0.4832 0.2284 0.1736
H10 H 0.5168 0.2284 0.3264
C9 C 0.28676(11) 0.2749(4) 0.9327(5)
C14 C 0.32278(12) 0.3015(4) 0.8574(6)
H9 H 0.3476 0.2786 0.9171
Cd3 Cd -0.0000 0.47079(5) 0.2500
Cd4 Cd -0.0000 0.52921(5) 0.7500
O4 O 0.04767(9) 0.3316(4) 0.3880(4)
O6 O 0.04396(9) 0.5249(3) 0.5263(5)
C15 C 0.06120(11) 0.4135(5) 0.5041(6)
C16 C 0.09935(11) 0.3781(5) 0.6146(5)
C17 C 0.12107(12) 0.4798(5) 0.7046(6)
H11_3 H 0.1110 0.5683 0.7018
C18 C 0.15782(12) 0.4508(4) 0.7993(6)
H12_3 H 0.1724 0.5203 0.8585
C19 C 0.17288(11) 0.3196(4) 0.8060(5)
C20 C 0.15060(13) 0.2178(5) 0.7187(6)
H13 H 0.1602 0.1287 0.7242
C21 C 0.11409(12) 0.2469(5) 0.6228(6)
H14 H 0.0995 0.1774 0.5637
C22 C 0.21275(11) 0.2861(4) 0.9069(5)
C24 C 0.24867(11) 0.3117(4) 0.8375(5)
C25 C 0.24964(13) 0.3726(5) 0.6742(6)
H15 H 0.2254 0.3974 0.6109
C26 C 0.28472(14) 0.3955(5) 0.6086(6)
H16 H 0.2843 0.4353 0.5016
C27 C 0.32189(13) 0.3593(5) 0.7013(6)
H17 H 0.3459 0.3752 0.6551
O7 O 0.04396(9) 0.4751(3) 0.0263(5)
O2_2 O -0.0000 0.2995(5) 0.7500
H1_2 H 0.0168 0.2716 0.8264
O5_2 O 0.04767(9) 0.6684(4) 0.8880(4)
C1_2 C 0.06120(11) 0.5865(5) 0.0041(6)
C2_2 C 0.09935(11) 0.6219(5) 0.1146(5)
C3_2 C 0.12107(12) 0.5202(5) 0.2046(6)
H2 H 0.1110 0.4317 0.2018
C4_2 C 0.15782(12) 0.5492(4) 0.2993(6)
H3 H 0.1724 0.4797 0.3585
C5_2 C 0.17288(11) 0.6804(4) 0.3060(5)
C6_2 C 0.15060(13) 0.7822(5) 0.2187(6)
H4_2 H 0.1602 0.8713 0.2242
C7_2 C 0.11409(12) 0.7531(5) 0.1228(6)
H5_2 H 0.0995 0.8226 0.0637
C8_2 C 0.21275(11) 0.7139(4) 0.4069(5)
C9_2 C 0.21324(11) 0.7749(4) 0.5673(5)
C10_2 C 0.24867(11) 0.6883(4) 0.3375(5)
C11_2 C 0.24964(13) 0.6274(5) 0.1742(6)
H6_2 H 0.2254 0.6026 0.1109
C12_2 C 0.28472(14) 0.6045(5) 0.1086(6)
H7_2 H 0.2843 0.5647 0.0016
C13_2 C 0.32189(13) 0.6407(5) 0.2013(6)
H8_2 H 0.3459 0.6248 0.1551
C14_2 C 0.17722(12) 0.8015(4) 0.6426(6)
H9_2 H 0.1524 0.7786 0.5829
C15_2 C 0.43880(11) 0.9135(5) 0.9959(6)
C16_2 C 0.40065(11) 0.8781(5) 0.8854(5)
C17_2 C 0.37893(12) 0.9798(5) 0.7954(6)
C18_2 C 0.34218(12) 0.9508(4) 0.7007(6)
C19_2 C 0.32712(11) 0.8196(4) 0.6940(5)
C20_2 C 0.34940(13) 0.7178(5) 0.7813(6)
H13_2 H 0.3398 0.6287 0.7758
C21_2 C 0.38591(12) 0.7469(5) 0.8772(6)
H14_2 H 0.4005 0.6774 0.9363
C22_2 C 0.28725(11) 0.7861(4) 0.5931(5)
C23_2 C 0.28676(11) 0.7251(4) 0.4327(5)
C24_2 C 0.25133(11) 0.8117(4) 0.6625(5)
C25_2 C 0.25036(13) 0.8726(5) 0.8258(6)
H15_2 H 0.2746 0.8974 0.8891
C26_2 C 0.21528(14) 0.8955(5) 0.8914(6)
H16_2 H 0.2157 0.9353 0.9984
C27_2 C 0.17811(13) 0.8593(5) 0.7987(6)
H17_2 H 0.1541 0.8752 0.8449
C28_2 C 0.32278(12) 0.6985(4) 0.3574(6)
H18_2 H 0.3476 0.7214 0.4171
O2_3 O -0.0000 0.7005(5) 0.2500
H10_2 H 0.0168 0.7284 0.3264
O7_2 O 0.54396(9) 0.9751(3) 0.0263(5)
O2_4 O 0.5000 0.7995(5) 0.7500
H1_3 H 0.5168 0.7716 0.8264
O3 O 0.45604(9) 0.9751(3) 0.4737(5)
H2_2 H 0.3890 0.9317 0.2982
H3_2 H 0.3276 0.9797 0.1415
Cd2 Cd 0.5000 0.97079(5) 0.2500
H10_3 H 0.4832 0.7716 0.6736
H2_3 H 0.6110 0.9317 0.2018
H3_3 H 0.6724 0.9797 0.3585
C9_3 C 0.78676(11) 0.7749(4) 0.9327(5)
C14_3 C 0.82278(12) 0.8015(4) 0.8574(6)
H9_3 H 0.8476 0.7786 0.9171
O4_2 O 0.54767(9) 0.8316(4) 0.3880(4)
C15_3 C 0.56120(11) 0.9135(5) 0.5041(6)
C16_3 C 0.59935(11) 0.8781(5) 0.6146(5)
C17_3 C 0.62107(12) 0.9798(5) 0.7046(6)
C18_3 C 0.65782(12) 0.9508(4) 0.7993(6)
C19_3 C 0.67288(11) 0.8196(4) 0.8060(5)
C20_3 C 0.65060(13) 0.7178(5) 0.7187(6)
H13_3 H 0.6602 0.6287 0.7242
C21_3 C 0.61409(12) 0.7469(5) 0.6228(6)
H14_3 H 0.5995 0.6774 0.5637
C22_3 C 0.71275(11) 0.7861(4) 0.9069(5)
C24_3 C 0.74867(11) 0.8117(4) 0.8375(5)
C25_3 C 0.74964(13) 0.8726(5) 0.6742(6)
H15_3 H 0.7254 0.8974 0.6109
C26_3 C 0.78472(14) 0.8955(5) 0.6086(6)
H16_3 H 0.7843 0.9353 0.5016
C27_3 C 0.82189(13) 0.8593(5) 0.7013(6)
H17_3 H 0.8459 0.8752 0.6551
O4_3 O 0.45233(9) 0.8316(4) 0.1120(4)
Cd3_2 Cd 1.0000 0.47079(5) 0.2500
Cd4_2 Cd 1.0000 0.52921(5) 0.7500
O4_4 O 0.95233(9) 0.3316(4) 0.1120(4)
C1_3 C 0.56120(11) 0.0865(5) 0.0041(6)
C2_3 C 0.59935(11) 0.1219(5) 0.1146(5)
C3_3 C 0.62107(12) 0.0202(5) 0.2046(6)
C4_3 C 0.65782(12) 0.0492(4) 0.2993(6)
C5_3 C 0.67288(11) 0.1804(4) 0.3060(5)
C6_3 C 0.65060(13) 0.2822(5) 0.2187(6)
H4_3 H 0.6602 0.3713 0.2242
C7_3 C 0.61409(12) 0.2531(5) 0.1228(6)
H5_3 H 0.5995 0.3226 0.0637
C8_3 C 0.71275(11) 0.2139(4) 0.4069(5)
C9_4 C 0.71324(11) 0.2749(4) 0.5673(5)
C10_3 C 0.74867(11) 0.1883(4) 0.3375(5)
C11_3 C 0.74964(13) 0.1274(5) 0.1742(6)
H6_3 H 0.7254 0.1026 0.1109
C12_3 C 0.78472(14) 0.1045(5) 0.1086(6)
H7_3 H 0.7843 0.0647 0.0016
C13_3 C 0.82189(13) 0.1407(5) 0.2013(6)
H8_3 H 0.8459 0.1248 0.1551
C14_4 C 0.67722(12) 0.3015(4) 0.6426(6)
H9_4 H 0.6524 0.2786 0.5829
O6_2 O 0.95604(9) 0.5249(3) 0.9737(5)
C15_4 C 0.93880(11) 0.4135(5) 0.9959(6)
C16_4 C 0.90065(11) 0.3781(5) 0.8854(5)
C17_4 C 0.87893(12) 0.4798(5) 0.7954(6)
H11_4 H 0.8890 0.5683 0.7982
C18_4 C 0.84218(12) 0.4508(4) 0.7007(6)
H12_4 H 0.8276 0.5203 0.6415
C19_4 C 0.82712(11) 0.3196(4) 0.6940(5)
C20_4 C 0.84940(13) 0.2178(5) 0.7813(6)
H13_4 H 0.8398 0.1287 0.7758
C21_4 C 0.88591(12) 0.2469(5) 0.8772(6)
H14_4 H 0.9005 0.1774 0.9363
C22_4 C 0.78725(11) 0.2861(4) 0.5931(5)
C23_3 C 0.78676(11) 0.2251(4) 0.4327(5)
C24_4 C 0.75133(11) 0.3117(4) 0.6625(5)
C25_4 C 0.75036(13) 0.3726(5) 0.8258(6)
H15_4 H 0.7746 0.3974 0.8891
C26_4 C 0.71528(14) 0.3955(5) 0.8914(6)
H16_4 H 0.7157 0.4353 0.9984
C27_4 C 0.67811(13) 0.3593(5) 0.7987(6)
H17_4 H 0.6541 0.3752 0.8449
C28_3 C 0.82278(12) 0.1985(4) 0.3574(6)
H18_3 H 0.8476 0.2214 0.4171
O1_2 O 0.95233(9) 0.6684(4) 0.6120(4)
O2_5 O 1.0000 0.2995(5) 0.7500
O3_2 O 0.95604(9) 0.4751(3) 0.4737(5)
C1_4 C 0.93880(11) 0.5865(5) 0.4959(6)
C2_4 C 0.90065(11) 0.6219(5) 0.3854(5)
C3_4 C 0.87893(12) 0.5202(5) 0.2954(6)
H2_4 H 0.8890 0.4317 0.2982
C4_4 C 0.84218(12) 0.5492(4) 0.2007(6)
H3_4 H 0.8276 0.4797 0.1415
C5_4 C 0.82712(11) 0.6804(4) 0.1940(5)
C6_4 C 0.84940(13) 0.7822(5) 0.2813(6)
H4_4 H 0.8398 0.8713 0.2758
C7_4 C 0.88591(12) 0.7531(5) 0.3772(6)
H5_4 H 0.9005 0.8226 0.4363
C8_4 C 0.78725(11) 0.7139(4) 0.0931(5)
C10_4 C 0.75133(11) 0.6883(4) 0.1625(5)
C11_4 C 0.75036(13) 0.6274(5) 0.3258(6)
H6_4 H 0.7746 0.6026 0.3891
C12_4 C 0.71528(14) 0.6045(5) 0.3914(6)
H7_4 H 0.7157 0.5647 0.4984
C13_4 C 0.67811(13) 0.6407(5) 0.2987(6)
H8_4 H 0.6541 0.6248 0.3449
H10_4 H 0.9832 0.2716 0.6736
C23_4 C 0.71324(11) 0.7251(4) 0.0673(5)
C28_4 C 0.67722(12) 0.6985(4) 0.1426(6)
H18_4 H 0.6524 0.7214 0.0829
O2_6 O 1.0000 0.7005(5) 0.2500
H1_4 H 0.9832 0.7284 0.1736
loop_
_geom_bond_atom_site_label_1
_geom_bond_atom_site_label_2
_geom_bond_site_symmetry_1
_geom_bond_site_symmetry_2
Cd1 O1 1_555 1_555
O1 C1 1_555 1_555
C2 C1 1_555 1_555
C3 C2 1_555 1_555
C4 C3 1_555 1_555
C5 C4 1_555 1_555
C6 C5 1_555 1_555
H4 C6 1_555 1_555
C7 C2 1_555 1_555
H5 C7 1_555 1_555
C8 C5 1_555 1_555
C10 C8 1_555 1_555
C11 C10 1_555 1_555
H6 C11 1_555 1_555
C12 C11 1_555 1_555
H7 C12 1_555 1_555
C13 C12 1_555 1_555
H8 C13 1_555 1_555
O5 Cd1 1_555 1_555
O8 Cd1 1_555 1_555
O9 Cd1 1_555 1_555
C23 C10 1_555 1_555
C28 C13 1_555 1_555
H18 C28 1_555 1_555
C6 C7 1_555 1_555
C23 C28 1_555 1_555
H1 O2 1_555 1_555
H10 O2 1_555 1_555
C14 C9 1_555 1_555
H9 C14 1_555 1_555
Cd3 O4 1_555 1_555
Cd4 O6 1_555 1_555
O4 C15 1_555 1_555
O6 Cd3 1_555 1_555
C15 O6 1_555 1_555
C16 C15 1_555 1_555
C17 C16 1_555 1_555
H11_3 C17 1_555 1_555
C18 C17 1_555 1_555
H12_3 C18 1_555 1_555
C19 C18 1_555 1_555
C20 C19 1_555 1_555
H13 C20 1_555 1_555
C21 C16 1_555 1_555
H14 C21 1_555 1_555
C22 C19 1_555 1_555
C24 C9 1_555 1_555
C25 C24 1_555 1_555
H15 C25 1_555 1_555
C26 C25 1_555 1_555
H16 C26 1_555 1_555
C27 C14 1_555 1_555
H17 C27 1_555 1_555
C20 C21 1_555 1_555
C22 C24 1_555 1_555
C26 C27 1_555 1_555
O2_2 Cd4 1_555 1_555
H1_2 O2_2 1_555 1_555
O5_2 Cd4 1_555 1_555
C1_2 O7 1_555 1_555
C2_2 C1_2 1_555 1_555
C3_2 C2_2 1_555 1_555
H2 C3_2 1_555 1_555
C4_2 C3_2 1_555 1_555
H3 C4_2 1_555 1_555
C5_2 C4_2 1_555 1_555
C6_2 C5_2 1_555 1_555
H4_2 C6_2 1_555 1_555
C7_2 C2_2 1_555 1_555
H5_2 C7_2 1_555 1_555
C8_2 C5_2 1_555 1_555
C9_2 C8_2 1_555 1_555
C10_2 C8_2 1_555 1_555
C11_2 C10_2 1_555 1_555
H6_2 C11_2 1_555 1_555
C12_2 C11_2 1_555 1_555
H7_2 C12_2 1_555 1_555
C13_2 C12_2 1_555 1_555
H8_2 C13_2 1_555 1_555
C14_2 C9_2 1_555 1_555
H9_2 C14_2 1_555 1_555
Cd3 O7 1_555 1_555
C16_2 C15_2 1_555 1_555
C17_2 C16_2 1_555 1_555
C18_2 C17_2 1_555 1_555
C19_2 C18_2 1_555 1_555
C20_2 C19_2 1_555 1_555
H13_2 C20_2 1_555 1_555
C21_2 C16_2 1_555 1_555
H14_2 C21_2 1_555 1_555
C22_2 C19_2 1_555 1_555
C23_2 C10_2 1_555 1_555
C24_2 C9_2 1_555 1_555
C25_2 C24_2 1_555 1_555
H15_2 C25_2 1_555 1_555
C26_2 C25_2 1_555 1_555
H16_2 C26_2 1_555 1_555
C27_2 C14_2 1_555 1_555
H17_2 C27_2 1_555 1_555
C28_2 C13_2 1_555 1_555
H18_2 C28_2 1_555 1_555
C6_2 C7_2 1_555 1_555
C20_2 C21_2 1_555 1_555
C22_2 C23_2 1_555 1_555
C22_2 C24_2 1_555 1_555
C23_2 C28_2 1_555 1_555
C26_2 C27_2 1_555 1_555
O2_3 Cd3 1_555 1_555
H10_2 O2_3 1_555 1_555
H1_3 O2_4 1_555 1_555
Cd2 O3 1_555 1_555
H10_3 O2_4 1_555 1_555
Cd2 O7_2 1_555 1_555
C14_3 C9_3 1_555 1_555
H9_3 C14_3 1_555 1_555
Cd2 O4_2 1_555 1_555
O4_2 C15_3 1_555 1_555
C16_3 C15_3 1_555 1_555
C17_3 C16_3 1_555 1_555
C18_3 C17_3 1_555 1_555
C19_3 C18_3 1_555 1_555
C20_3 C19_3 1_555 1_555
H13_3 C20_3 1_555 1_555
C21_3 C16_3 1_555 1_555
H14_3 C21_3 1_555 1_555
C22_3 C19_3 1_555 1_555
C24_3 C9_3 1_555 1_555
C25_3 C24_3 1_555 1_555
H15_3 C25_3 1_555 1_555
C26_3 C25_3 1_555 1_555
H16_3 C26_3 1_555 1_555
C27_3 C14_3 1_555 1_555
H17_3 C27_3 1_555 1_555
C20_3 C21_3 1_555 1_555
C22_3 C24_3 1_555 1_555
C26_3 C27_3 1_555 1_555
Cd2 O4_3 1_555 1_555
Cd3_2 O4_4 1_555 1_555
C2_3 C1_3 1_555 1_555
C3_3 C2_3 1_555 1_555
C4_3 C3_3 1_555 1_555
C5_3 C4_3 1_555 1_555
C6_3 C5_3 1_555 1_555
H4_3 C6_3 1_555 1_555
C7_3 C2_3 1_555 1_555
H5_3 C7_3 1_555 1_555
C8_3 C5_3 1_555 1_555
C9_4 C8_3 1_555 1_555
C10_3 C8_3 1_555 1_555
C11_3 C10_3 1_555 1_555
H6_3 C11_3 1_555 1_555
C12_3 C11_3 1_555 1_555
H7_3 C12_3 1_555 1_555
C13_3 C12_3 1_555 1_555
H8_3 C13_3 1_555 1_555
C14_4 C9_4 1_555 1_555
H9_4 C14_4 1_555 1_555
Cd4_2 O6_2 1_555 1_555
C15_4 O6_2 1_555 1_555
C16_4 C15_4 1_555 1_555
C17_4 C16_4 1_555 1_555
H11_4 C17_4 1_555 1_555
C18_4 C17_4 1_555 1_555
H12_4 C18_4 1_555 1_555
C19_4 C18_4 1_555 1_555
C20_4 C19_4 1_555 1_555
H13_4 C20_4 1_555 1_555
C21_4 C16_4 1_555 1_555
H14_4 C21_4 1_555 1_555
C22_4 C19_4 1_555 1_555
C23_3 C10_3 1_555 1_555
C24_4 C9_4 1_555 1_555
C25_4 C24_4 1_555 1_555
H15_4 C25_4 1_555 1_555
C26_4 C25_4 1_555 1_555
H16_4 C26_4 1_555 1_555
C27_4 C14_4 1_555 1_555
H17_4 C27_4 1_555 1_555
C28_3 C13_3 1_555 1_555
H18_3 C28_3 1_555 1_555
C6_3 C7_3 1_555 1_555
C20_4 C21_4 1_555 1_555
C22_4 C23_3 1_555 1_555
C22_4 C24_4 1_555 1_555
C23_3 C28_3 1_555 1_555
C26_4 C27_4 1_555 1_555
Cd4_2 O1_2 1_555 1_555
O1_2 C1_4 1_555 1_555
O2_5 Cd4_2 1_555 1_555
O3_2 Cd4_2 1_555 1_555
C1_4 O3_2 1_555 1_555
C2_4 C1_4 1_555 1_555
C3_4 C2_4 1_555 1_555
H2_4 C3_4 1_555 1_555
C4_4 C3_4 1_555 1_555
H3_4 C4_4 1_555 1_555
C5_4 C4_4 1_555 1_555
C6_4 C5_4 1_555 1_555
H4_4 C6_4 1_555 1_555
C7_4 C2_4 1_555 1_555
H5_4 C7_4 1_555 1_555
C8_4 C5_4 1_555 1_555
C10_4 C8_4 1_555 1_555
C11_4 C10_4 1_555 1_555
H6_4 C11_4 1_555 1_555
C12_4 C11_4 1_555 1_555
H7_4 C12_4 1_555 1_555
C13_4 C12_4 1_555 1_555
H8_4 C13_4 1_555 1_555
Cd3_2 O3_2 1_555 1_555
H10_4 O2_5 1_555 1_555
C23_4 C10_4 1_555 1_555
C28_4 C13_4 1_555 1_555
H18_4 C28_4 1_555 1_555
C6_4 C7_4 1_555 1_555
C23_4 C28_4 1_555 1_555
O2_6 Cd3_2 1_555 1_555
H1_4 O2_6 1_555 1_555

#END
