
###############################################################################
#
# This file contains modified crystal structure data generated from the
# MOF subset of the Cambridge Structural Database (CSD) v543 
# hosted by the Cambridge Crystallographic Data Centre (CCDC).
#
# This work is licensed under the Creative Commons
# Attribution-NonCommercial-ShareAlike 4.0 International License.
# To view a copy of this license, visit
# http://creativecommons.org/licenses/by-nc-sa/4.0/
# or send a letter to
# Creative Commons, PO Box 1866, Mountain View, CA 94042, USA.
#
# CIF created using the CSD Python API on 29 September 2022
# The structure has been converted into the P1 space group
# The structure has a 3D framework
# The original CSD entry XESCOO is in the rhombohedral crystal system
# The framework has been calculated to contain at least 10.0% void space
# The void calculation uses a probe of radius 1.32A, grid spacing 0.4
# H atom positions have been added when not included in the experimental data
#
###############################################################################

data_XESCOO
_chemical_formula_moiety         '(C270 H324 Hg54 N108 O108)n'
_symmetry_cell_setting           triclinic
_symmetry_space_group_name_H-M   'P 1'
_symmetry_Int_Tables_number      1
_space_group_name_Hall           'P 1'
loop_
_symmetry_equiv_pos_site_id
_symmetry_equiv_pos_as_xyz
1 x,y,z
_cell_length_a                   28.9170(24)
_cell_length_b                   28.9170(24)
_cell_length_c                   16.6994(19)
_cell_angle_alpha                90
_cell_angle_beta                 90
_cell_angle_gamma                120.0
_cell_volume                     12093.1
loop_
_atom_site_label
_atom_site_type_symbol
_atom_site_fract_x
_atom_site_fract_y
_atom_site_fract_z
_atom_site_U_iso_or_equiv
_atom_site_thermal_displace_type
H2 H 0.754536 0.021425 0.178493 0.1078 Uiso
C13 C 0.904000 0.003830 0.405390 0.1078 Uiso
Hg5 Hg 0.809711 0.024209 0.588994 0.0825 Uiso
H16 H 0.905133 0.00799959 0.340499 . .
H17 H 0.922314 0.0431987 0.432984 . .
Hg1 Hg 0.813088 0.888134 0.247962 0.0825 Uiso
Hg2 Hg 0.723598 0.881344 0.386375 0.0825 Uiso
Hg3 Hg 0.785502 0.809711 0.411006 0.0825 Uiso
C1 C 0.784360 0.969111 0.183577 0.1078 Uiso
H1 H 0.806391 0.978167 0.138890 0.1078 Uiso
C2 C 0.755435 0.993397 0.204330 0.1078 Uiso
C3 C 0.728293 0.966563 0.271825 0.1078 Uiso
H3 H 0.704292 0.972944 0.300032 0.1078 Uiso
C4 C 0.668410 0.817904 0.537654 0.1078 Uiso
H4 H 0.648187 0.834133 0.547716 0.1078 Uiso
C5 C 0.666963 0.776848 0.581477 0.1078 Uiso
H5 H 0.645791 0.759805 0.625850 0.1078 Uiso
C6 C 0.703290 0.766564 0.545767 0.1078 Uiso
H6 H 0.711217 0.740674 0.562631 0.1078 Uiso
C7 C 0.879050 0.802314 0.337574 0.1078 Uiso
H7 H 0.882083 0.782222 0.378548 0.1078 Uiso
C8 C 0.909136 0.817983 0.269237 0.1078 Uiso
H8 H 0.936645 0.811744 0.255085 0.1078 Uiso
C9 C 0.88982 0.844739 0.226663 0.1078 Uiso
H9 H 0.902044 0.859516 0.176256 0.1078 Uiso
N1 N 0.776765 0.931181 0.235560 0.1078 Uiso
N2 N 0.741837 0.929127 0.291558 0.1078 Uiso
N3 N 0.703853 0.830545 0.478265 0.1078 Uiso
N4 N 0.725553 0.798329 0.483987 0.1078 Uiso
N5 N 0.844503 0.820426 0.336155 0.1078 Uiso
N6 N 0.851519 0.847064 0.265953 0.1078 Uiso
C10 C 0.620090 0.909110 0.416960 0.1078 Uiso
C11 C 0.585080 0.904020 0.482690 0.1078 Uiso
O1 O 0.656630 0.900230 0.427870 0.1078 Uiso
O2 O 0.613000 0.922260 0.350750 0.1078 Uiso
C12 C 0.848990 0.972490 0.431680 0.1078 Uiso
O3 O 0.821180 0.926880 0.407580 0.1078 Uiso
O4 O 0.830520 0.991720 0.47788 0.1078 Uiso
C14 C 0.860870 0.952550 0.090010 0.1078 Uiso
C15 C 0.815550 0.913680 0.043840 0.1078 Uiso
O5 O 0.885950 0.998880 0.067760 0.1078 Uiso
O6 O 0.873920 0.938920 0.151100 0.1078 Uiso
Hg4 Hg 0.547831 0.856956 0.255661 0.0825 Uiso
O7 O 0.720333 0.744407 0.315917 0.1078 Uiso
O8 O 0.838800 0.830520 0.52212 0.1078 Uiso
H10 H 0.608422 0.931517 0.5304 . .
H11 H 0.555103 0.913461 0.461661 . .
H12 H 0.565421 0.863259 0.505375 . .
H14 H 0.798356 0.874803 0.0727958 . .
H15 H 0.78562 0.925961 0.0403485 . .
H18 H 0.925864 0.983827 0.422943 . .
C7_2 C 0.197686 0.076736 0.337574 0.1078 Uiso
H7_2 H 0.217778 0.099861 0.378548 0.1078 Uiso
C8_2 C 0.182017 0.091153 0.269237 0.1078 Uiso
H8_2 H 0.188256 0.124901 0.255085 0.1078 Uiso
C9_2 C 0.155261 0.045081 0.226663 0.1078 Uiso
H9_2 H 0.140484 0.042528 0.176256 0.1078 Uiso
N5_2 N 0.179574 0.024077 0.336155 0.1078 Uiso
N6_2 N 0.152936 0.004455 0.265953 0.1078 Uiso
O8_2 O 0.169480 0.008280 0.52212 0.1078 Uiso
Hg1_2 Hg 0.111866 0.924954 0.247962 0.0825 Uiso
Hg2_2 Hg 0.118656 0.842254 0.386375 0.0825 Uiso
Hg3_2 Hg 0.190289 0.975791 0.411006 0.0825 Uiso
C1_2 C 0.030889 0.815249 0.183577 0.1078 Uiso
H1_2 H 0.021833 0.828224 0.138890 0.1078 Uiso
C2_2 C 0.006603 0.762038 0.204330 0.1078 Uiso
C3_2 C 0.033437 0.761730 0.271825 0.1078 Uiso
H3_2 H 0.027056 0.731348 0.300032 0.1078 Uiso
C4_2 C 0.182096 0.850506 0.537654 0.1078 Uiso
H4_2 H 0.165867 0.814054 0.547716 0.1078 Uiso
C5_2 C 0.223152 0.890115 0.581477 0.1078 Uiso
H5_2 H 0.240195 0.885986 0.625850 0.1078 Uiso
C6_2 C 0.233436 0.936726 0.545767 0.1078 Uiso
H6_2 H 0.259326 0.970543 0.562631 0.1078 Uiso
N1_2 N 0.068819 0.845584 0.235560 0.1078 Uiso
N2_2 N 0.070873 0.812710 0.291558 0.1078 Uiso
N3_2 N 0.169455 0.873308 0.478265 0.1078 Uiso
N4_2 N 0.201671 0.927224 0.483987 0.1078 Uiso
C10_2 C 0.090890 0.710980 0.416960 0.1078 Uiso
C11_2 C 0.095980 0.681060 0.482690 0.1078 Uiso
O1_2 O 0.099770 0.756400 0.427870 0.1078 Uiso
O2_2 O 0.077740 0.690740 0.350750 0.1078 Uiso
C12_2 C 0.027510 0.876500 0.431680 0.1078 Uiso
O3_2 O 0.073120 0.894300 0.407580 0.1078 Uiso
O4_2 O 0.008280 0.838800 0.47788 0.1078 Uiso
C14_2 C 0.047450 0.908320 0.090010 0.1078 Uiso
C15_2 C 0.086320 0.901870 0.043840 0.1078 Uiso
O5_2 O 0.001120 0.887070 0.067760 0.1078 Uiso
O6_2 O 0.061080 0.935000 0.151100 0.1078 Uiso
Hg4_2 Hg 0.143044 0.690876 0.255661 0.0825 Uiso
O7_2 O 0.255593 0.975927 0.315917 0.1078 Uiso
H10_2 H 0.0684827 0.676904 0.5304 . .
H11_2 H 0.0865391 0.641642 0.461661 . .
H12_2 H 0.136741 0.702162 0.505375 . .
H14_2 H 0.125197 0.923553 0.0727958 . .
H15_2 H 0.0740393 0.859659 0.0403485 . .
H18_2 H 0.0161728 0.942037 0.422943 . .
H2_2 H 0.978575 0.733111 0.178493 0.1078 Uiso
C13_2 C 0.996170 0.900170 0.405390 0.1078 Uiso
Hg5_2 Hg 0.975791 0.785502 0.588994 0.0825 Uiso
H16_2 H 0.992 0.897134 0.340499 . .
H17_2 H 0.956801 0.879115 0.432984 . .
Hg1_3 Hg 0.075046 0.186912 0.247962 0.0825 Uiso
Hg2_3 Hg 0.157746 0.276402 0.386375 0.0825 Uiso
Hg3_3 Hg 0.024209 0.214498 0.411006 0.0825 Uiso
C1_3 C 0.184751 0.215640 0.183577 0.1078 Uiso
H1_3 H 0.171776 0.193609 0.138890 0.1078 Uiso
C2_3 C 0.237962 0.244565 0.204330 0.1078 Uiso
H2_3 H 0.266889 0.245464 0.178493 0.1078 Uiso
C3_3 C 0.238270 0.271707 0.271825 0.1078 Uiso
H3_3 H 0.268652 0.295708 0.300032 0.1078 Uiso
C4_3 C 0.149494 0.331590 0.537654 0.1078 Uiso
H4_3 H 0.185946 0.351813 0.547716 0.1078 Uiso
C5_3 C 0.109885 0.333037 0.581477 0.1078 Uiso
H5_3 H 0.114014 0.354209 0.625850 0.1078 Uiso
C6_3 C 0.063274 0.296710 0.545767 0.1078 Uiso
H6_3 H 0.029457 0.288783 0.562631 0.1078 Uiso
N1_3 N 0.154416 0.223235 0.235560 0.1078 Uiso
N2_3 N 0.187290 0.258163 0.291558 0.1078 Uiso
N3_3 N 0.126692 0.296147 0.478265 0.1078 Uiso
N4_3 N 0.072776 0.274447 0.483987 0.1078 Uiso
C10_3 C 0.289020 0.379910 0.416960 0.1078 Uiso
C11_3 C 0.318940 0.414920 0.482690 0.1078 Uiso
O1_3 O 0.243600 0.343370 0.427870 0.1078 Uiso
O2_3 O 0.309260 0.387000 0.350750 0.1078 Uiso
C12_3 C 0.123500 0.151010 0.431680 0.1078 Uiso
C13_3 C 0.099830 0.096000 0.405390 0.1078 Uiso
O3_3 O 0.105700 0.178820 0.407580 0.1078 Uiso
O4_3 O 0.161200 0.169480 0.47788 0.1078 Uiso
C14_3 C 0.091680 0.139130 0.090010 0.1078 Uiso
C15_3 C 0.098130 0.184450 0.043840 0.1078 Uiso
O5_3 O 0.112930 0.114050 0.067760 0.1078 Uiso
O6_3 O 0.065000 0.126080 0.151100 0.1078 Uiso
Hg4_3 Hg 0.309124 0.452169 0.255661 0.0825 Uiso
Hg5_3 Hg 0.214498 0.190289 0.588994 0.0825 Uiso
O7_3 O 0.024073 0.279667 0.315917 0.1078 Uiso
H10_3 H 0.323096 0.391578 0.5304 . .
H11_3 H 0.358358 0.444897 0.461661 . .
H12_3 H 0.297838 0.434579 0.505375 . .
H14_3 H 0.0764471 0.201644 0.0727958 . .
H15_3 H 0.140341 0.21438 0.0403485 . .
H16_3 H 0.102866 0.0948668 0.340499 . .
H17_3 H 0.120885 0.0776861 0.432984 . .
H18_3 H 0.0579633 0.0741361 0.422943 . .
C7_3 C 0.923264 0.120950 0.337574 0.1078 Uiso
H7_3 H 0.900139 0.117917 0.378548 0.1078 Uiso
C8_3 C 0.908847 0.090864 0.269237 0.1078 Uiso
H8_3 H 0.875099 0.063355 0.255085 0.1078 Uiso
C9_3 C 0.954919 0.11018 0.226663 0.1078 Uiso
H9_3 H 0.957472 0.097956 0.176256 0.1078 Uiso
N5_3 N 0.975923 0.155497 0.336155 0.1078 Uiso
N6_3 N 0.995545 0.148481 0.265953 0.1078 Uiso
O8_3 O 0.991720 0.161200 0.52212 0.1078 Uiso
Hg2_4 Hg 0.056931 0.548011 0.053042 0.0825 Uiso
Hg3_4 Hg 0.118835 0.476378 0.077673 0.0825 Uiso
C4_4 C 0.001743 0.484571 0.204321 0.1078 Uiso
C5_4 C 0.000296 0.443515 0.248144 0.1078 Uiso
C6_4 C 0.036623 0.433231 0.212434 0.1078 Uiso
H6_4 H 0.044550 0.407341 0.229298 0.1078 Uiso
C7_4 C 0.212383 0.468981 0.004241 0.1078 Uiso
H7_4 H 0.215416 0.448889 0.045215 0.1078 Uiso
N3_4 N 0.037186 0.497212 0.144932 0.1078 Uiso
N4_4 N 0.058886 0.464996 0.150654 0.1078 Uiso
N5_4 N 0.177836 0.487093 0.002822 0.1078 Uiso
C12_4 C 0.182323 0.639157 0.098347 0.1078 Uiso
C13_4 C 0.237333 0.670497 0.072057 0.1078 Uiso
O3_4 O 0.154513 0.593547 0.074247 0.1078 Uiso
O4_4 O 0.163853 0.658387 0.14455 0.1078 Uiso
O8_4 O 0.172133 0.497187 0.18879 0.1078 Uiso
H16_4 H 0.238467 0.674666 0.00716613 . .
H17_4 H 0.255647 0.709865 0.0996508 . .
H18_4 H 0.259197 0.650494 0.08961 . .
Hg4_4 Hg 0.881165 0.523622 0.922327 0.0825 Uiso
Hg2_5 Hg 0.451989 0.508921 0.053042 0.0825 Uiso
Hg3_5 Hg 0.523622 0.642458 0.077673 0.0825 Uiso
C4_5 C 0.515429 0.517173 0.204321 0.1078 Uiso
H4_4 H 0.499200 0.480721 0.214383 0.1078 Uiso
C5_5 C 0.556485 0.556782 0.248144 0.1078 Uiso
H5_4 H 0.573528 0.552653 0.292517 0.1078 Uiso
C6_5 C 0.566769 0.603393 0.212434 0.1078 Uiso
H6_5 H 0.592659 0.637210 0.229298 0.1078 Uiso
C7_5 C 0.531019 0.743403 0.004241 0.1078 Uiso
H7_5 H 0.551111 0.766528 0.045215 0.1078 Uiso
N3_5 N 0.502788 0.539975 0.144932 0.1078 Uiso
N4_5 N 0.535004 0.593891 0.150654 0.1078 Uiso
N5_5 N 0.512907 0.690744 0.002822 0.1078 Uiso
C10_4 C 0.424223 0.377647 0.083627 0.1078 Uiso
C11_4 C 0.429313 0.347727 0.149357 0.1078 Uiso
O1_4 O 0.433103 0.423067 0.094537 0.1078 Uiso
O2_4 O 0.411073 0.357407 0.017417 0.1078 Uiso
C12_5 C 0.360843 0.543167 0.098347 0.1078 Uiso
C13_5 C 0.329503 0.566837 0.072057 0.1078 Uiso
O3_5 O 0.406453 0.560967 0.074247 0.1078 Uiso
O4_5 O 0.341613 0.505467 0.14455 0.1078 Uiso
O8_5 O 0.502813 0.674947 0.18879 0.1078 Uiso
H10_4 H 0.401816 0.343571 0.197067 . .
H11_4 H 0.419872 0.308309 0.128328 . .
H12_4 H 0.470074 0.368829 0.172041 . .
H16_5 H 0.325334 0.5638 0.00716613 . .
H17_5 H 0.290135 0.545782 0.0996508 . .
H18_5 H 0.349506 0.608703 0.08961 . .
Hg1_4 Hg 0.445199 0.591621 0.914629 0.0825 Uiso
C1_4 C 0.364222 0.481916 0.850244 0.1078 Uiso
H1_4 H 0.355166 0.494891 0.805557 0.1078 Uiso
C2_4 C 0.339936 0.428705 0.870997 0.1078 Uiso
H2_4 H 0.311908 0.399778 0.845160 0.1078 Uiso
C3_4 C 0.366770 0.428397 0.938492 0.1078 Uiso
H3_4 H 0.360389 0.398015 0.966699 0.1078 Uiso
C8_4 C 0.515350 0.757820 0.935904 0.1078 Uiso
H8_4 H 0.521589 0.791568 0.921752 0.1078 Uiso
C9_4 C 0.488594 0.711748 0.893330 0.1078 Uiso
H9_4 H 0.473817 0.709195 0.842923 0.1078 Uiso
N1_4 N 0.402152 0.512251 0.902227 0.1078 Uiso
N2_4 N 0.404206 0.479377 0.958225 0.1078 Uiso
N6_4 N 0.486269 0.671122 0.932620 0.1078 Uiso
C14_4 C 0.380783 0.574987 0.756677 0.1078 Uiso
C15_4 C 0.419653 0.568537 0.710507 0.1078 Uiso
O5_4 O 0.334453 0.553737 0.734427 0.1078 Uiso
O6_4 O 0.394413 0.601667 0.817767 0.1078 Uiso
Hg4_5 Hg 0.476378 0.357542 0.922327 0.0825 Uiso
O7_4 O 0.588927 0.642593 0.982583 0.1078 Uiso
H13 H 0.422251 0.58422 0.650365 . .
H14_4 H 0.458531 0.59022 0.739462 . .
H15_4 H 0.407373 0.526326 0.707015 . .
Hg4_6 Hg 0.642458 0.118835 0.922327 0.0825 Uiso
Hg2_6 Hg 0.491079 0.943069 0.053042 0.0825 Uiso
Hg3_6 Hg 0.357542 0.881165 0.077673 0.0825 Uiso
C4_6 C 0.482827 0.998257 0.204321 0.1078 Uiso
C5_6 C 0.443218 0.999704 0.248144 0.1078 Uiso
C6_6 C 0.396607 0.963377 0.212434 0.1078 Uiso
H6_6 H 0.362790 0.955450 0.229298 0.1078 Uiso
C7_6 C 0.256597 0.787617 0.004241 0.1078 Uiso
H7_6 H 0.233472 0.784584 0.045215 0.1078 Uiso
N3_6 N 0.460025 0.962814 0.144932 0.1078 Uiso
N4_6 N 0.406109 0.941114 0.150654 0.1078 Uiso
N5_6 N 0.309256 0.822164 0.002822 0.1078 Uiso
C12_6 C 0.456833 0.817677 0.098347 0.1078 Uiso
C13_6 C 0.433163 0.762667 0.072057 0.1078 Uiso
O3_6 O 0.439033 0.845487 0.074247 0.1078 Uiso
O4_6 O 0.494533 0.836147 0.14455 0.1078 Uiso
O8_6 O 0.325053 0.827867 0.18879 0.1078 Uiso
H16_6 H 0.4362 0.761533 0.00716613 . .
H17_6 H 0.454218 0.744353 0.0996508 . .
H18_6 H 0.391297 0.740803 0.08961 . .
Hg1_5 Hg 0.479755 0.221467 0.581295 0.0825 Uiso
Hg2_7 Hg 0.390265 0.214677 0.719708 0.0825 Uiso
Hg3_7 Hg 0.452169 0.143044 0.744339 0.0825 Uiso
C1_5 C 0.451027 0.302444 0.516910 0.1078 Uiso
H1_5 H 0.473058 0.311500 0.472223 0.1078 Uiso
C2_5 C 0.422102 0.326730 0.537663 0.1078 Uiso
H2_5 H 0.421203 0.354758 0.511826 0.1078 Uiso
C3_5 C 0.394960 0.299896 0.605158 0.1078 Uiso
H3_5 H 0.370959 0.306277 0.633365 0.1078 Uiso
C4_7 C 0.335077 0.151237 0.870987 0.1078 Uiso
H4_5 H 0.314854 0.167466 0.881049 0.1078 Uiso
C5_7 C 0.333630 0.110181 0.914810 0.1078 Uiso
H5_5 H 0.312458 0.093138 0.959183 0.1078 Uiso
C6_7 C 0.369957 0.099897 0.879100 0.1078 Uiso
H6_7 H 0.377884 0.074007 0.895964 0.1078 Uiso
C7_7 C 0.545717 0.135647 0.670907 0.1078 Uiso
H7_7 H 0.548750 0.115555 0.711881 0.1078 Uiso
C8_5 C 0.575803 0.151316 0.602570 0.1078 Uiso
H8_5 H 0.603312 0.145077 0.588418 0.1078 Uiso
C9_5 C 0.55649 0.178072 0.559996 0.1078 Uiso
H9_5 H 0.568711 0.192849 0.509589 0.1078 Uiso
N1_5 N 0.443432 0.264514 0.568893 0.1078 Uiso
N2_5 N 0.408504 0.262460 0.624891 0.1078 Uiso
N3_7 N 0.370520 0.163878 0.811598 0.1078 Uiso
N4_7 N 0.392220 0.131662 0.817320 0.1078 Uiso
N5_7 N 0.511170 0.153759 0.669488 0.1078 Uiso
N6_5 N 0.518186 0.180397 0.599286 0.1078 Uiso
C10_5 C 0.286757 0.242443 0.750293 0.1078 Uiso
C11_5 C 0.251747 0.237353 0.816023 0.1078 Uiso
O1_5 O 0.323297 0.233563 0.761203 0.1078 Uiso
O2_5 O 0.279667 0.255593 0.684083 0.1078 Uiso
C12_7 C 0.515657 0.305823 0.765013 0.1078 Uiso
C13_7 C 0.570667 0.337163 0.738723 0.1078 Uiso
O3_7 O 0.487847 0.260213 0.740913 0.1078 Uiso
O4_7 O 0.497187 0.325053 0.81121 0.1078 Uiso
C14_5 C 0.527537 0.285883 0.423343 0.1078 Uiso
C15_5 C 0.482217 0.247013 0.377173 0.1078 Uiso
O5_5 O 0.552617 0.332213 0.401093 0.1078 Uiso
O6_5 O 0.540587 0.272253 0.484433 0.1078 Uiso
O7_5 O 0.387000 0.077740 0.649250 0.1078 Uiso
O8_7 O 0.505467 0.163853 0.85545 0.1078 Uiso
H10_5 H 0.275088 0.264851 0.863734 . .
H11_5 H 0.22177 0.246794 0.794995 . .
H12_5 H 0.232088 0.196592 0.838708 . .
H13_2 H 0.495302 0.244416 0.317032 . .
H14_5 H 0.465022 0.208136 0.406129 . .
H15_5 H 0.452287 0.259294 0.373682 . .
H16_7 H 0.5718 0.341333 0.673833 . .
H17_7 H 0.588981 0.376532 0.766317 . .
H18_7 H 0.592531 0.317161 0.756277 . .
Hg1_6 Hg 0.778533 0.258287 0.581295 0.0825 Uiso
Hg2_8 Hg 0.785323 0.175587 0.719708 0.0825 Uiso
Hg3_8 Hg 0.856956 0.309124 0.744339 0.0825 Uiso
C1_6 C 0.697556 0.148582 0.516910 0.1078 Uiso
H1_6 H 0.688500 0.161557 0.472223 0.1078 Uiso
C2_6 C 0.673270 0.095371 0.537663 0.1078 Uiso
H2_6 H 0.645242 0.066444 0.511826 0.1078 Uiso
C3_6 C 0.700104 0.095063 0.605158 0.1078 Uiso
H3_6 H 0.693723 0.064681 0.633365 0.1078 Uiso
C4_8 C 0.848763 0.183839 0.870987 0.1078 Uiso
H4_6 H 0.832534 0.147387 0.881049 0.1078 Uiso
C5_8 C 0.889819 0.223448 0.914810 0.1078 Uiso
H5_6 H 0.906862 0.219319 0.959183 0.1078 Uiso
C6_8 C 0.900103 0.270059 0.879100 0.1078 Uiso
H6_8 H 0.925993 0.303876 0.895964 0.1078 Uiso
C7_8 C 0.864353 0.410069 0.670907 0.1078 Uiso
H7_8 H 0.884445 0.433194 0.711881 0.1078 Uiso
C8_6 C 0.848684 0.424486 0.602570 0.1078 Uiso
H8_6 H 0.854923 0.458234 0.588418 0.1078 Uiso
C9_6 C 0.821928 0.378414 0.559996 0.1078 Uiso
H9_6 H 0.807151 0.375861 0.509589 0.1078 Uiso
N1_6 N 0.735486 0.178917 0.568893 0.1078 Uiso
N2_6 N 0.737540 0.146043 0.624891 0.1078 Uiso
N3_8 N 0.836122 0.206641 0.811598 0.1078 Uiso
N4_8 N 0.868338 0.260557 0.817320 0.1078 Uiso
N5_8 N 0.846241 0.357410 0.669488 0.1078 Uiso
N6_6 N 0.819603 0.337788 0.599286 0.1078 Uiso
C10_6 C 0.757557 0.044313 0.750293 0.1078 Uiso
C11_6 C 0.762647 0.014393 0.816023 0.1078 Uiso
O1_6 O 0.766437 0.089733 0.761203 0.1078 Uiso
O2_6 O 0.744407 0.024073 0.684083 0.1078 Uiso
C12_8 C 0.694177 0.209833 0.765013 0.1078 Uiso
C13_8 C 0.662837 0.233503 0.738723 0.1078 Uiso
O3_8 O 0.739787 0.227633 0.740913 0.1078 Uiso
O4_8 O 0.674947 0.172133 0.81121 0.1078 Uiso
C14_6 C 0.714117 0.241653 0.423343 0.1078 Uiso
C15_6 C 0.752987 0.235203 0.377173 0.1078 Uiso
O5_6 O 0.667787 0.220403 0.401093 0.1078 Uiso
O6_6 O 0.727747 0.268333 0.484433 0.1078 Uiso
O7_6 O 0.922260 0.309260 0.649250 0.1078 Uiso
O8_8 O 0.836147 0.341613 0.85545 0.1078 Uiso
H10_6 H 0.735149 0.0102377 0.863734 . .
H12_6 H 0.803408 0.0354956 0.838708 . .
H13_3 H 0.755584 0.250887 0.317032 . .
H14_6 H 0.791864 0.256886 0.406129 . .
H15_6 H 0.740706 0.192993 0.373682 . .
H16_8 H 0.658667 0.230467 0.673833 . .
H17_8 H 0.623468 0.212449 0.766317 . .
H18_8 H 0.682839 0.27537 0.756277 . .
Hg1_7 Hg 0.741713 0.520245 0.581295 0.0825 Uiso
Hg2_9 Hg 0.824413 0.609735 0.719708 0.0825 Uiso
Hg3_9 Hg 0.690876 0.547831 0.744339 0.0825 Uiso
C1_7 C 0.851418 0.548973 0.516910 0.1078 Uiso
H1_7 H 0.838443 0.526942 0.472223 0.1078 Uiso
C2_7 C 0.904629 0.577898 0.537663 0.1078 Uiso
H2_7 H 0.933556 0.578797 0.511826 0.1078 Uiso
C3_7 C 0.904937 0.605040 0.605158 0.1078 Uiso
H3_7 H 0.935319 0.629041 0.633365 0.1078 Uiso
C4_9 C 0.816161 0.664923 0.870987 0.1078 Uiso
H4_7 H 0.852613 0.685146 0.881049 0.1078 Uiso
C5_9 C 0.776552 0.666370 0.914810 0.1078 Uiso
H5_7 H 0.780681 0.687542 0.959183 0.1078 Uiso
C6_9 C 0.729941 0.630043 0.879100 0.1078 Uiso
H6_9 H 0.696124 0.622116 0.895964 0.1078 Uiso
C7_9 C 0.589931 0.454283 0.670907 0.1078 Uiso
H7_9 H 0.566806 0.451250 0.711881 0.1078 Uiso
C8_7 C 0.575514 0.424197 0.602570 0.1078 Uiso
H8_7 H 0.541766 0.396688 0.588418 0.1078 Uiso
C9_7 C 0.621586 0.44351 0.559996 0.1078 Uiso
H9_7 H 0.624139 0.431289 0.509589 0.1078 Uiso
N1_7 N 0.821083 0.556568 0.568893 0.1078 Uiso
N2_7 N 0.853957 0.591496 0.624891 0.1078 Uiso
N3_9 N 0.793359 0.629480 0.811598 0.1078 Uiso
N4_9 N 0.739443 0.607780 0.817320 0.1078 Uiso
N5_9 N 0.642590 0.488830 0.669488 0.1078 Uiso
N6_7 N 0.662212 0.481814 0.599286 0.1078 Uiso
C10_7 C 0.955687 0.713243 0.750293 0.1078 Uiso
C11_7 C 0.985607 0.748253 0.816023 0.1078 Uiso
O1_7 O 0.910267 0.676703 0.761203 0.1078 Uiso
O2_7 O 0.975927 0.720333 0.684083 0.1078 Uiso
C12_9 C 0.790167 0.484343 0.765013 0.1078 Uiso
C13_9 C 0.766497 0.429333 0.738723 0.1078 Uiso
O3_9 O 0.772367 0.512153 0.740913 0.1078 Uiso
O4_9 O 0.827867 0.502813 0.81121 0.1078 Uiso
C14_7 C 0.758347 0.472463 0.423343 0.1078 Uiso
C15_7 C 0.764797 0.517783 0.377173 0.1078 Uiso
O5_7 O 0.779597 0.447383 0.401093 0.1078 Uiso
O6_7 O 0.731667 0.459413 0.484433 0.1078 Uiso
O7_7 O 0.690740 0.613000 0.649250 0.1078 Uiso
O8_9 O 0.658387 0.494533 0.85545 0.1078 Uiso
H10_7 H 0.989762 0.724912 0.863734 . .
H12_7 H 0.964504 0.767912 0.838708 . .
H13_4 H 0.749113 0.504698 0.317032 . .
H14_7 H 0.743114 0.534978 0.406129 . .
H15_7 H 0.807007 0.547713 0.373682 . .
H16_9 H 0.769533 0.4282 0.673833 . .
H17_9 H 0.787551 0.411019 0.766317 . .
H18_9 H 0.72463 0.407469 0.756277 . .
Hg1_8 Hg 0.186912 0.111866 0.752038 0.0825 Uiso
Hg2_10 Hg 0.276402 0.118656 0.613625 0.0825 Uiso
C1_8 C 0.215640 0.030889 0.816423 0.1078 Uiso
H1_8 H 0.193609 0.021833 0.861110 0.1078 Uiso
C2_8 C 0.244565 0.006603 0.795670 0.1078 Uiso
C3_8 C 0.271707 0.033437 0.728175 0.1078 Uiso
H3_8 H 0.295708 0.027056 0.699968 0.1078 Uiso
C4_10 C 0.331590 0.182096 0.462346 0.1078 Uiso
H4_8 H 0.351813 0.165867 0.452284 0.1078 Uiso
C5_10 C 0.333037 0.223152 0.418523 0.1078 Uiso
H5_8 H 0.354209 0.240195 0.374150 0.1078 Uiso
C6_10 C 0.296710 0.233436 0.454233 0.1078 Uiso
H6_10 H 0.288783 0.259326 0.437369 0.1078 Uiso
C7_10 C 0.120950 0.197686 0.662426 0.1078 Uiso
H7_10 H 0.117917 0.217778 0.621452 0.1078 Uiso
C8_8 C 0.090864 0.182017 0.730763 0.1078 Uiso
H8_8 H 0.063355 0.188256 0.744915 0.1078 Uiso
C9_8 C 0.11018 0.155261 0.773337 0.1078 Uiso
H9_8 H 0.097956 0.140484 0.823744 0.1078 Uiso
N1_8 N 0.223235 0.068819 0.764440 0.1078 Uiso
N2_8 N 0.258163 0.070873 0.708442 0.1078 Uiso
N3_10 N 0.296147 0.169455 0.521735 0.1078 Uiso
N4_10 N 0.274447 0.201671 0.516013 0.1078 Uiso
N5_10 N 0.155497 0.179574 0.663845 0.1078 Uiso
N6_8 N 0.148481 0.152936 0.734047 0.1078 Uiso
C10_8 C 0.379910 0.090890 0.583040 0.1078 Uiso
C11_8 C 0.414920 0.095980 0.517310 0.1078 Uiso
O1_8 O 0.343370 0.099770 0.572130 0.1078 Uiso
C12_10 C 0.151010 0.027510 0.568320 0.1078 Uiso
O3_10 O 0.178820 0.073120 0.592420 0.1078 Uiso
C14_8 C 0.139130 0.047450 0.909990 0.1078 Uiso
C15_8 C 0.184450 0.086320 0.956160 0.1078 Uiso
O5_8 O 0.114050 0.001120 0.932240 0.1078 Uiso
O6_8 O 0.126080 0.061080 0.848900 0.1078 Uiso
H10_8 H 0.391578 0.0684827 0.4696 . .
H11_6 H 0.444897 0.0865391 0.538339 . .
H12_8 H 0.434579 0.136741 0.494625 . .
H14_8 H 0.201644 0.125197 0.927204 . .
H15_8 H 0.21438 0.0740393 0.959651 . .
H18_10 H 0.0741361 0.0161728 0.577057 . .
H2_8 H 0.245464 0.978575 0.821507 0.1078 Uiso
C13_10 C 0.096000 0.996170 0.594610 0.1078 Uiso
H16_10 H 0.0948668 0.992 0.659501 . .
H17_10 H 0.0776861 0.956801 0.567016 . .
H2_9 H 0.021425 0.266889 0.821507 0.1078 Uiso
C13_11 C 0.003830 0.099830 0.594610 0.1078 Uiso
H16_11 H 0.00799959 0.102866 0.659501 . .
H17_11 H 0.0431987 0.120885 0.567016 . .
Hg1_9 Hg 0.888134 0.075046 0.752038 0.0825 Uiso
Hg2_11 Hg 0.881344 0.157746 0.613625 0.0825 Uiso
C1_9 C 0.969111 0.184751 0.816423 0.1078 Uiso
H1_9 H 0.978167 0.171776 0.861110 0.1078 Uiso
C2_9 C 0.993397 0.237962 0.795670 0.1078 Uiso
C3_9 C 0.966563 0.238270 0.728175 0.1078 Uiso
H3_9 H 0.972944 0.268652 0.699968 0.1078 Uiso
C4_11 C 0.817904 0.149494 0.462346 0.1078 Uiso
H4_9 H 0.834133 0.185946 0.452284 0.1078 Uiso
C5_11 C 0.776848 0.109885 0.418523 0.1078 Uiso
H5_9 H 0.759805 0.114014 0.374150 0.1078 Uiso
C6_11 C 0.766564 0.063274 0.454233 0.1078 Uiso
H6_11 H 0.740674 0.029457 0.437369 0.1078 Uiso
N1_9 N 0.931181 0.154416 0.764440 0.1078 Uiso
N2_9 N 0.929127 0.187290 0.708442 0.1078 Uiso
N3_11 N 0.830545 0.126692 0.521735 0.1078 Uiso
N4_11 N 0.798329 0.072776 0.516013 0.1078 Uiso
C10_9 C 0.909110 0.289020 0.583040 0.1078 Uiso
C11_9 C 0.904020 0.318940 0.517310 0.1078 Uiso
O1_9 O 0.900230 0.243600 0.572130 0.1078 Uiso
C12_11 C 0.972490 0.123500 0.568320 0.1078 Uiso
O3_11 O 0.926880 0.105700 0.592420 0.1078 Uiso
C14_9 C 0.952550 0.091680 0.909990 0.1078 Uiso
C15_9 C 0.913680 0.098130 0.956160 0.1078 Uiso
O5_9 O 0.998880 0.112930 0.932240 0.1078 Uiso
O6_9 O 0.938920 0.065000 0.848900 0.1078 Uiso
H10_9 H 0.931517 0.323096 0.4696 . .
H11_7 H 0.913461 0.358358 0.538339 . .
H12_9 H 0.863259 0.297838 0.494625 . .
H14_9 H 0.874803 0.0764471 0.927204 . .
H15_9 H 0.925961 0.140341 0.959651 . .
H18_11 H 0.983827 0.0579633 0.577057 . .
C7_11 C 0.802314 0.923264 0.662426 0.1078 Uiso
H7_11 H 0.782222 0.900139 0.621452 0.1078 Uiso
C8_9 C 0.817983 0.908847 0.730763 0.1078 Uiso
H8_9 H 0.811744 0.875099 0.744915 0.1078 Uiso
C9_9 C 0.844739 0.954919 0.773337 0.1078 Uiso
H9_9 H 0.859516 0.957472 0.823744 0.1078 Uiso
N5_11 N 0.820426 0.975923 0.663845 0.1078 Uiso
N6_9 N 0.847064 0.995545 0.734047 0.1078 Uiso
C7_12 C 0.076736 0.879050 0.662426 0.1078 Uiso
H7_12 H 0.099861 0.882083 0.621452 0.1078 Uiso
C8_10 C 0.091153 0.909136 0.730763 0.1078 Uiso
H8_10 H 0.124901 0.936645 0.744915 0.1078 Uiso
C9_10 C 0.045081 0.88982 0.773337 0.1078 Uiso
H9_10 H 0.042528 0.902044 0.823744 0.1078 Uiso
N5_12 N 0.024077 0.844503 0.663845 0.1078 Uiso
N6_10 N 0.004455 0.851519 0.734047 0.1078 Uiso
Hg1_10 Hg 0.924954 0.813088 0.752038 0.0825 Uiso
Hg2_12 Hg 0.842254 0.723598 0.613625 0.0825 Uiso
C1_10 C 0.815249 0.784360 0.816423 0.1078 Uiso
H1_10 H 0.828224 0.806391 0.861110 0.1078 Uiso
C2_10 C 0.762038 0.755435 0.795670 0.1078 Uiso
H2_10 H 0.733111 0.754536 0.821507 0.1078 Uiso
C3_10 C 0.761730 0.728293 0.728175 0.1078 Uiso
H3_10 H 0.731348 0.704292 0.699968 0.1078 Uiso
C4_12 C 0.850506 0.668410 0.462346 0.1078 Uiso
H4_10 H 0.814054 0.648187 0.452284 0.1078 Uiso
C5_12 C 0.890115 0.666963 0.418523 0.1078 Uiso
H5_10 H 0.885986 0.645791 0.374150 0.1078 Uiso
C6_12 C 0.936726 0.703290 0.454233 0.1078 Uiso
H6_12 H 0.970543 0.711217 0.437369 0.1078 Uiso
N1_10 N 0.845584 0.776765 0.764440 0.1078 Uiso
N2_10 N 0.812710 0.741837 0.708442 0.1078 Uiso
N3_12 N 0.873308 0.703853 0.521735 0.1078 Uiso
N4_12 N 0.927224 0.725553 0.516013 0.1078 Uiso
C10_10 C 0.710980 0.620090 0.583040 0.1078 Uiso
C11_10 C 0.681060 0.585080 0.517310 0.1078 Uiso
O1_10 O 0.756400 0.656630 0.572130 0.1078 Uiso
C12_12 C 0.876500 0.848990 0.568320 0.1078 Uiso
C13_12 C 0.900170 0.904000 0.594610 0.1078 Uiso
O3_12 O 0.894300 0.821180 0.592420 0.1078 Uiso
C14_10 C 0.908320 0.860870 0.909990 0.1078 Uiso
C15_10 C 0.901870 0.815550 0.956160 0.1078 Uiso
O5_10 O 0.887070 0.885950 0.932240 0.1078 Uiso
O6_10 O 0.935000 0.873920 0.848900 0.1078 Uiso
H10_10 H 0.676904 0.608422 0.4696 . .
H11_8 H 0.641642 0.555103 0.538339 . .
H12_10 H 0.702162 0.565421 0.494625 . .
H14_10 H 0.923553 0.798356 0.927204 . .
H15_10 H 0.859659 0.78562 0.959651 . .
H16_12 H 0.897134 0.905133 0.659501 . .
H17_12 H 0.879115 0.922314 0.567016 . .
H18_12 H 0.942037 0.925864 0.577057 . .
Hg2_13 Hg 0.943069 0.451989 0.946958 0.0825 Uiso
C4_13 C 0.998257 0.515429 0.795679 0.1078 Uiso
C5_13 C 0.999704 0.556485 0.751856 0.1078 Uiso
C6_13 C 0.963377 0.566769 0.787566 0.1078 Uiso
H6_13 H 0.955450 0.592659 0.770702 0.1078 Uiso
C7_13 C 0.787617 0.531019 0.995759 0.1078 Uiso
H7_13 H 0.784584 0.551111 0.954785 0.1078 Uiso
N3_13 N 0.962814 0.502788 0.855068 0.1078 Uiso
N4_13 N 0.941114 0.535004 0.849346 0.1078 Uiso
N5_13 N 0.822164 0.512907 0.997178 0.1078 Uiso
C12_13 C 0.817677 0.360843 0.901653 0.1078 Uiso
C13_13 C 0.762667 0.329503 0.927943 0.1078 Uiso
O3_13 O 0.845487 0.406453 0.925753 0.1078 Uiso
H16_13 H 0.761533 0.325334 0.992834 . .
H17_13 H 0.744353 0.290135 0.900349 . .
H18_13 H 0.740803 0.349506 0.91039 . .
Hg1_11 Hg 0.554801 0.408379 0.085371 0.0825 Uiso
C1_11 C 0.635778 0.518084 0.149756 0.1078 Uiso
H1_11 H 0.644834 0.505109 0.194443 0.1078 Uiso
C2_11 C 0.660064 0.571295 0.129003 0.1078 Uiso
H2_11 H 0.688092 0.600222 0.154840 0.1078 Uiso
C3_11 C 0.633230 0.571603 0.061508 0.1078 Uiso
H3_11 H 0.639611 0.601985 0.033301 0.1078 Uiso
C8_11 C 0.484650 0.242180 0.064096 0.1078 Uiso
H8_11 H 0.478411 0.208432 0.078248 0.1078 Uiso
C9_11 C 0.511406 0.288252 0.106670 0.1078 Uiso
H9_11 H 0.526183 0.290805 0.157077 0.1078 Uiso
N1_11 N 0.597848 0.487749 0.097773 0.1078 Uiso
N2_11 N 0.595794 0.520623 0.041775 0.1078 Uiso
N6_11 N 0.513731 0.328878 0.067380 0.1078 Uiso
C14_11 C 0.619217 0.425013 0.243323 0.1078 Uiso
C15_11 C 0.580347 0.431463 0.289493 0.1078 Uiso
O5_11 O 0.665547 0.446263 0.265573 0.1078 Uiso
O6_11 O 0.605587 0.398333 0.182233 0.1078 Uiso
H13_5 H 0.577749 0.41578 0.349635 . .
H14_11 H 0.541469 0.40978 0.260538 . .
H15_11 H 0.592627 0.473674 0.292985 . .
Hg2_14 Hg 0.548011 0.491079 0.946958 0.0825 Uiso
C4_14 C 0.484571 0.482827 0.795679 0.1078 Uiso
H4_11 H 0.500800 0.519279 0.785617 0.1078 Uiso
C5_14 C 0.443515 0.443218 0.751856 0.1078 Uiso
H5_11 H 0.426472 0.447347 0.707483 0.1078 Uiso
C6_14 C 0.433231 0.396607 0.787566 0.1078 Uiso
H6_14 H 0.407341 0.362790 0.770702 0.1078 Uiso
C7_14 C 0.468981 0.256597 0.995759 0.1078 Uiso
H7_14 H 0.448889 0.233472 0.954785 0.1078 Uiso
N3_14 N 0.497212 0.460025 0.855068 0.1078 Uiso
N4_14 N 0.464996 0.406109 0.849346 0.1078 Uiso
N5_14 N 0.487093 0.309256 0.997178 0.1078 Uiso
C10_11 C 0.575777 0.622353 0.916373 0.1078 Uiso
C11_11 C 0.570687 0.652273 0.850643 0.1078 Uiso
O1_11 O 0.566897 0.576933 0.905463 0.1078 Uiso
C12_14 C 0.639157 0.456833 0.901653 0.1078 Uiso
C13_14 C 0.670497 0.433163 0.927943 0.1078 Uiso
O3_14 O 0.593547 0.439033 0.925753 0.1078 Uiso
H10_11 H 0.598184 0.656429 0.802933 . .
H11_9 H 0.580128 0.691691 0.871672 . .
H12_11 H 0.529926 0.631171 0.827959 . .
H16_14 H 0.674666 0.4362 0.992834 . .
H17_14 H 0.709865 0.454218 0.900349 . .
H18_14 H 0.650494 0.391297 0.91039 . .
Hg2_15 Hg 0.508921 0.056931 0.946958 0.0825 Uiso
C4_15 C 0.517173 0.001743 0.795679 0.1078 Uiso
C5_15 C 0.556782 0.000296 0.751856 0.1078 Uiso
C6_15 C 0.603393 0.036623 0.787566 0.1078 Uiso
H6_15 H 0.637210 0.044550 0.770702 0.1078 Uiso
C7_15 C 0.743403 0.212383 0.995759 0.1078 Uiso
H7_15 H 0.766528 0.215416 0.954785 0.1078 Uiso
N3_15 N 0.539975 0.037186 0.855068 0.1078 Uiso
N4_15 N 0.593891 0.058886 0.849346 0.1078 Uiso
N5_15 N 0.690744 0.177836 0.997178 0.1078 Uiso
C12_15 C 0.543167 0.182323 0.901653 0.1078 Uiso
C13_15 C 0.566837 0.237333 0.927943 0.1078 Uiso
O3_15 O 0.560967 0.154513 0.925753 0.1078 Uiso
H16_15 H 0.5638 0.238467 0.992834 . .
H17_15 H 0.545782 0.255647 0.900349 . .
H18_15 H 0.608703 0.259197 0.91039 . .
Hg1_12 Hg 0.520245 0.778533 0.418705 0.0825 Uiso
Hg2_16 Hg 0.609735 0.785323 0.280292 0.0825 Uiso
C1_12 C 0.548973 0.697556 0.483090 0.1078 Uiso
H1_12 H 0.526942 0.688500 0.527777 0.1078 Uiso
C2_12 C 0.577898 0.673270 0.462337 0.1078 Uiso
H2_12 H 0.578797 0.645242 0.488174 0.1078 Uiso
C3_12 C 0.605040 0.700104 0.394842 0.1078 Uiso
H3_12 H 0.629041 0.693723 0.366635 0.1078 Uiso
C4_16 C 0.664923 0.848763 0.129013 0.1078 Uiso
H4_12 H 0.685146 0.832534 0.118951 0.1078 Uiso
C5_16 C 0.666370 0.889819 0.085190 0.1078 Uiso
H5_12 H 0.687542 0.906862 0.040817 0.1078 Uiso
C6_16 C 0.630043 0.900103 0.120900 0.1078 Uiso
H6_16 H 0.622116 0.925993 0.104036 0.1078 Uiso
C7_16 C 0.454283 0.864353 0.329093 0.1078 Uiso
H7_16 H 0.451250 0.884445 0.288119 0.1078 Uiso
C8_12 C 0.424197 0.848684 0.397430 0.1078 Uiso
H8_12 H 0.396688 0.854923 0.411582 0.1078 Uiso
C9_12 C 0.44351 0.821928 0.440004 0.1078 Uiso
H9_12 H 0.431289 0.807151 0.490411 0.1078 Uiso
N1_12 N 0.556568 0.735486 0.431107 0.1078 Uiso
N2_12 N 0.591496 0.737540 0.375109 0.1078 Uiso
N3_16 N 0.629480 0.836122 0.188402 0.1078 Uiso
N4_16 N 0.607780 0.868338 0.182680 0.1078 Uiso
N5_16 N 0.488830 0.846241 0.330512 0.1078 Uiso
N6_12 N 0.481814 0.819603 0.400714 0.1078 Uiso
C10_12 C 0.713243 0.757557 0.249707 0.1078 Uiso
C11_12 C 0.748253 0.762647 0.183977 0.1078 Uiso
O1_12 O 0.676703 0.766437 0.238797 0.1078 Uiso
C12_16 C 0.484343 0.694177 0.234987 0.1078 Uiso
C13_16 C 0.429333 0.662837 0.261277 0.1078 Uiso
O3_16 O 0.512153 0.739787 0.259087 0.1078 Uiso
C14_12 C 0.472463 0.714117 0.576657 0.1078 Uiso
C15_12 C 0.517783 0.752987 0.622827 0.1078 Uiso
O5_12 O 0.447383 0.667787 0.598907 0.1078 Uiso
O6_12 O 0.459413 0.727747 0.515567 0.1078 Uiso
H10_12 H 0.724912 0.735149 0.136266 . .
H11_10 H 0.77823 0.753206 0.205005 . .
H12_12 H 0.767912 0.803408 0.161292 . .
H13_6 H 0.504698 0.755584 0.682968 . .
H14_12 H 0.534978 0.791864 0.593871 . .
H15_12 H 0.547713 0.740706 0.626318 . .
H16_16 H 0.4282 0.658667 0.326167 . .
H17_16 H 0.411019 0.623468 0.233683 . .
H18_16 H 0.407469 0.682839 0.243723 . .
Hg1_13 Hg 0.221467 0.741713 0.418705 0.0825 Uiso
Hg2_17 Hg 0.214677 0.824413 0.280292 0.0825 Uiso
C1_13 C 0.302444 0.851418 0.483090 0.1078 Uiso
H1_13 H 0.311500 0.838443 0.527777 0.1078 Uiso
C2_13 C 0.326730 0.904629 0.462337 0.1078 Uiso
H2_13 H 0.354758 0.933556 0.488174 0.1078 Uiso
C3_13 C 0.299896 0.904937 0.394842 0.1078 Uiso
H3_13 H 0.306277 0.935319 0.366635 0.1078 Uiso
C4_17 C 0.151237 0.816161 0.129013 0.1078 Uiso
H4_13 H 0.167466 0.852613 0.118951 0.1078 Uiso
C5_17 C 0.110181 0.776552 0.085190 0.1078 Uiso
H5_13 H 0.093138 0.780681 0.040817 0.1078 Uiso
C6_17 C 0.099897 0.729941 0.120900 0.1078 Uiso
H6_17 H 0.074007 0.696124 0.104036 0.1078 Uiso
C7_17 C 0.135647 0.589931 0.329093 0.1078 Uiso
H7_17 H 0.115555 0.566806 0.288119 0.1078 Uiso
C8_13 C 0.151316 0.575514 0.397430 0.1078 Uiso
H8_13 H 0.145077 0.541766 0.411582 0.1078 Uiso
C9_13 C 0.178072 0.621586 0.440004 0.1078 Uiso
H9_13 H 0.192849 0.624139 0.490411 0.1078 Uiso
N1_13 N 0.264514 0.821083 0.431107 0.1078 Uiso
N2_13 N 0.262460 0.853957 0.375109 0.1078 Uiso
N3_17 N 0.163878 0.793359 0.188402 0.1078 Uiso
N4_17 N 0.131662 0.739443 0.182680 0.1078 Uiso
N5_17 N 0.153759 0.642590 0.330512 0.1078 Uiso
N6_13 N 0.180397 0.662212 0.400714 0.1078 Uiso
C10_13 C 0.242443 0.955687 0.249707 0.1078 Uiso
C11_13 C 0.237353 0.985607 0.183977 0.1078 Uiso
O1_13 O 0.233563 0.910267 0.238797 0.1078 Uiso
C12_17 C 0.305823 0.790167 0.234987 0.1078 Uiso
C13_17 C 0.337163 0.766497 0.261277 0.1078 Uiso
O3_17 O 0.260213 0.772367 0.259087 0.1078 Uiso
C14_13 C 0.285883 0.758347 0.576657 0.1078 Uiso
C15_13 C 0.247013 0.764797 0.622827 0.1078 Uiso
O5_13 O 0.332213 0.779597 0.598907 0.1078 Uiso
O6_13 O 0.272253 0.731667 0.515567 0.1078 Uiso
H10_13 H 0.264851 0.989762 0.136266 . .
H12_13 H 0.196592 0.964504 0.161292 . .
H13_7 H 0.244416 0.749113 0.682968 . .
H14_13 H 0.208136 0.743114 0.593871 . .
H15_13 H 0.259294 0.807007 0.626318 . .
H16_17 H 0.341333 0.769533 0.326167 . .
H17_17 H 0.376532 0.787551 0.233683 . .
H18_17 H 0.317161 0.72463 0.243723 . .
Hg1_14 Hg 0.258287 0.479755 0.418705 0.0825 Uiso
Hg2_18 Hg 0.175587 0.390265 0.280292 0.0825 Uiso
C1_14 C 0.148582 0.451027 0.483090 0.1078 Uiso
H1_14 H 0.161557 0.473058 0.527777 0.1078 Uiso
C2_14 C 0.095371 0.422102 0.462337 0.1078 Uiso
H2_14 H 0.066444 0.421203 0.488174 0.1078 Uiso
C3_14 C 0.095063 0.394960 0.394842 0.1078 Uiso
H3_14 H 0.064681 0.370959 0.366635 0.1078 Uiso
C4_18 C 0.183839 0.335077 0.129013 0.1078 Uiso
H4_14 H 0.147387 0.314854 0.118951 0.1078 Uiso
C5_18 C 0.223448 0.333630 0.085190 0.1078 Uiso
H5_14 H 0.219319 0.312458 0.040817 0.1078 Uiso
C6_18 C 0.270059 0.369957 0.120900 0.1078 Uiso
H6_18 H 0.303876 0.377884 0.104036 0.1078 Uiso
C7_18 C 0.410069 0.545717 0.329093 0.1078 Uiso
H7_18 H 0.433194 0.548750 0.288119 0.1078 Uiso
C8_14 C 0.424486 0.575803 0.397430 0.1078 Uiso
H8_14 H 0.458234 0.603312 0.411582 0.1078 Uiso
C9_14 C 0.378414 0.55649 0.440004 0.1078 Uiso
H9_14 H 0.375861 0.568711 0.490411 0.1078 Uiso
N1_14 N 0.178917 0.443432 0.431107 0.1078 Uiso
N2_14 N 0.146043 0.408504 0.375109 0.1078 Uiso
N3_18 N 0.206641 0.370520 0.188402 0.1078 Uiso
N4_18 N 0.260557 0.392220 0.182680 0.1078 Uiso
N5_18 N 0.357410 0.511170 0.330512 0.1078 Uiso
N6_14 N 0.337788 0.518186 0.400714 0.1078 Uiso
C10_14 C 0.044313 0.286757 0.249707 0.1078 Uiso
C11_14 C 0.014393 0.251747 0.183977 0.1078 Uiso
O1_14 O 0.089733 0.323297 0.238797 0.1078 Uiso
C12_18 C 0.209833 0.515657 0.234987 0.1078 Uiso
C13_18 C 0.233503 0.570667 0.261277 0.1078 Uiso
O3_18 O 0.227633 0.487847 0.259087 0.1078 Uiso
C14_14 C 0.241653 0.527537 0.576657 0.1078 Uiso
C15_14 C 0.235203 0.482217 0.622827 0.1078 Uiso
O5_14 O 0.220403 0.552617 0.598907 0.1078 Uiso
O6_14 O 0.268333 0.540587 0.515567 0.1078 Uiso
H10_14 H 0.0102377 0.275088 0.136266 . .
H12_14 H 0.0354956 0.232088 0.161292 . .
H13_8 H 0.250887 0.495302 0.682968 . .
H14_14 H 0.256886 0.465022 0.593871 . .
H15_14 H 0.192993 0.452287 0.626318 . .
H16_18 H 0.230467 0.5718 0.326167 . .
H17_18 H 0.212449 0.588981 0.233683 . .
H18_18 H 0.27537 0.592531 0.243723 . .
H13_9 H 0.828636 0.911082 0.983699 . .
H13_10 H 0.0889177 0.917553 0.983699 . .
H13_11 H 0.0824468 0.171364 0.983699 . .
Hg1_15 Hg 0.146421 0.554801 0.914629 0.0825 Uiso
C1_15 C 0.117693 0.635778 0.850244 0.1078 Uiso
H1_15 H 0.139724 0.644834 0.805557 0.1078 Uiso
C2_15 C 0.088768 0.660064 0.870997 0.1078 Uiso
H2_15 H 0.087869 0.688092 0.845160 0.1078 Uiso
C3_15 C 0.061626 0.633230 0.938492 0.1078 Uiso
H3_15 H 0.037625 0.639611 0.966699 0.1078 Uiso
C8_15 C 0.242469 0.484650 0.935904 0.1078 Uiso
H8_15 H 0.269978 0.478411 0.921752 0.1078 Uiso
C9_15 C 0.22315 0.511406 0.893330 0.1078 Uiso
H9_15 H 0.235377 0.526183 0.842923 0.1078 Uiso
N1_15 N 0.110098 0.597848 0.902227 0.1078 Uiso
N2_15 N 0.075170 0.595794 0.958225 0.1078 Uiso
N6_15 N 0.184852 0.513731 0.932620 0.1078 Uiso
C14_15 C 0.194203 0.619217 0.756677 0.1078 Uiso
C15_15 C 0.148883 0.580347 0.710507 0.1078 Uiso
O5_15 O 0.219283 0.665547 0.734427 0.1078 Uiso
O6_15 O 0.207253 0.605587 0.817767 0.1078 Uiso
O7_8 O 0.053667 0.411073 0.982583 0.1078 Uiso
H13_12 H 0.161969 0.577749 0.650365 . .
H14_15 H 0.131689 0.541469 0.739462 . .
H15_15 H 0.118953 0.592627 0.707015 . .
H4_15 H 0.018480 0.499200 0.785617 0.1078 Uiso
H5_15 H 0.020876 0.573528 0.707483 0.1078 Uiso
C10_15 C 0.046577 0.424223 0.916373 0.1078 Uiso
C11_15 C 0.081587 0.429313 0.850643 0.1078 Uiso
O1_15 O 0.010037 0.433103 0.905463 0.1078 Uiso
H10_15 H 0.058245 0.401816 0.802933 . .
H11_11 H 0.111564 0.419872 0.871672 . .
H12_15 H 0.101246 0.470074 0.827959 . .
H4_16 H 0.981520 0.500800 0.214383 0.1078 Uiso
H5_16 H 0.979124 0.426472 0.292517 0.1078 Uiso
C10_16 C 0.953423 0.575777 0.083627 0.1078 Uiso
C11_16 C 0.918413 0.570687 0.149357 0.1078 Uiso
O1_16 O 0.989963 0.566897 0.094537 0.1078 Uiso
O2_8 O 0.946333 0.588927 0.017417 0.1078 Uiso
H10_16 H 0.941755 0.598184 0.197067 . .
H11_12 H 0.888436 0.580128 0.128328 . .
H12_16 H 0.898754 0.529926 0.172041 . .
Hg1_16 Hg 0.853579 0.445199 0.085371 0.0825 Uiso
C1_16 C 0.882307 0.364222 0.149756 0.1078 Uiso
H1_16 H 0.860276 0.355166 0.194443 0.1078 Uiso
C2_16 C 0.911232 0.339936 0.129003 0.1078 Uiso
H2_16 H 0.912131 0.311908 0.154840 0.1078 Uiso
C3_16 C 0.938374 0.366770 0.061508 0.1078 Uiso
H3_16 H 0.962375 0.360389 0.033301 0.1078 Uiso
C8_16 C 0.757531 0.515350 0.064096 0.1078 Uiso
H8_16 H 0.730022 0.521589 0.078248 0.1078 Uiso
C9_16 C 0.77685 0.488594 0.106670 0.1078 Uiso
H9_16 H 0.764623 0.473817 0.157077 0.1078 Uiso
N1_16 N 0.889902 0.402152 0.097773 0.1078 Uiso
N2_16 N 0.924830 0.404206 0.041775 0.1078 Uiso
N6_16 N 0.815148 0.486269 0.067380 0.1078 Uiso
C14_16 C 0.805797 0.380783 0.243323 0.1078 Uiso
C15_16 C 0.851117 0.419653 0.289493 0.1078 Uiso
O5_16 O 0.780717 0.334453 0.265573 0.1078 Uiso
O6_16 O 0.792747 0.394413 0.182233 0.1078 Uiso
H13_13 H 0.838031 0.422251 0.349635 . .
H14_16 H 0.868311 0.458531 0.260538 . .
H15_16 H 0.881047 0.407373 0.292985 . .
H4_17 H 0.519279 0.018480 0.214383 0.1078 Uiso
H5_17 H 0.447347 0.020876 0.292517 0.1078 Uiso
C10_17 C 0.622353 0.046577 0.083627 0.1078 Uiso
C11_17 C 0.652273 0.081587 0.149357 0.1078 Uiso
O1_17 O 0.576933 0.010037 0.094537 0.1078 Uiso
O2_9 O 0.642593 0.053667 0.017417 0.1078 Uiso
H10_17 H 0.656429 0.058245 0.197067 . .
H11_13 H 0.691691 0.111564 0.128328 . .
H12_17 H 0.631171 0.101246 0.172041 . .
Hg1_17 Hg 0.591621 0.146421 0.085371 0.0825 Uiso
C1_17 C 0.481916 0.117693 0.149756 0.1078 Uiso
H1_17 H 0.494891 0.139724 0.194443 0.1078 Uiso
C2_17 C 0.428705 0.088768 0.129003 0.1078 Uiso
H2_17 H 0.399778 0.087869 0.154840 0.1078 Uiso
C3_17 C 0.428397 0.061626 0.061508 0.1078 Uiso
H3_17 H 0.398015 0.037625 0.033301 0.1078 Uiso
C8_17 C 0.757820 0.242469 0.064096 0.1078 Uiso
H8_17 H 0.791568 0.269978 0.078248 0.1078 Uiso
C9_17 C 0.711748 0.22315 0.106670 0.1078 Uiso
H9_17 H 0.709195 0.235377 0.157077 0.1078 Uiso
N1_17 N 0.512251 0.110098 0.097773 0.1078 Uiso
N2_17 N 0.479377 0.075170 0.041775 0.1078 Uiso
N6_17 N 0.671122 0.184852 0.067380 0.1078 Uiso
C14_17 C 0.574987 0.194203 0.243323 0.1078 Uiso
C15_17 C 0.568537 0.148883 0.289493 0.1078 Uiso
O5_17 O 0.553737 0.219283 0.265573 0.1078 Uiso
O6_17 O 0.601667 0.207253 0.182233 0.1078 Uiso
H13_14 H 0.58422 0.161969 0.349635 . .
H14_17 H 0.59022 0.131689 0.260538 . .
H15_17 H 0.526326 0.118953 0.292985 . .
Hg1_18 Hg 0.408379 0.853579 0.914629 0.0825 Uiso
C1_18 C 0.518084 0.882307 0.850244 0.1078 Uiso
H1_18 H 0.505109 0.860276 0.805557 0.1078 Uiso
C2_18 C 0.571295 0.911232 0.870997 0.1078 Uiso
H2_18 H 0.600222 0.912131 0.845160 0.1078 Uiso
C3_18 C 0.571603 0.938374 0.938492 0.1078 Uiso
H3_18 H 0.601985 0.962375 0.966699 0.1078 Uiso
C8_18 C 0.242180 0.757531 0.935904 0.1078 Uiso
H8_18 H 0.208432 0.730022 0.921752 0.1078 Uiso
C9_18 C 0.288252 0.77685 0.893330 0.1078 Uiso
H9_18 H 0.290805 0.764623 0.842923 0.1078 Uiso
N1_18 N 0.487749 0.889902 0.902227 0.1078 Uiso
N2_18 N 0.520623 0.924830 0.958225 0.1078 Uiso
N6_18 N 0.328878 0.815148 0.932620 0.1078 Uiso
C14_18 C 0.425013 0.805797 0.756677 0.1078 Uiso
C15_18 C 0.431463 0.851117 0.710507 0.1078 Uiso
O5_18 O 0.446263 0.780717 0.734427 0.1078 Uiso
O6_18 O 0.398333 0.792747 0.817767 0.1078 Uiso
O7_9 O 0.357407 0.946333 0.982583 0.1078 Uiso
H13_15 H 0.41578 0.838031 0.650365 . .
H14_18 H 0.40978 0.868311 0.739462 . .
H15_18 H 0.473674 0.881047 0.707015 . .
H4_18 H 0.480721 0.981520 0.785617 0.1078 Uiso
H5_18 H 0.552653 0.979124 0.707483 0.1078 Uiso
C10_18 C 0.377647 0.953423 0.916373 0.1078 Uiso
C11_18 C 0.347727 0.918413 0.850643 0.1078 Uiso
O1_18 O 0.423067 0.989963 0.905463 0.1078 Uiso
H10_18 H 0.343571 0.941755 0.802933 . .
H11_14 H 0.308309 0.888436 0.871672 . .
H12_18 H 0.368829 0.898754 0.827959 . .
H11_15 H 0.753206 0.974975 0.794995 . .
H11_16 H 0.0250246 0.77823 0.794995 . .
H13_16 H 0.171364 0.0889177 0.0163015 . .
H13_17 H 0.911082 0.0824468 0.0163015 . .
H13_18 H 0.917553 0.828636 0.0163015 . .
H11_17 H 0.246794 0.0250246 0.205005 . .
H11_18 H 0.974975 0.22177 0.205005 . .
loop_
_geom_bond_atom_site_label_1
_geom_bond_atom_site_label_2
_geom_bond_site_symmetry_1
_geom_bond_site_symmetry_2
C13 H16 1_555 1_555
C13 H17 1_555 1_555
Hg1 N1 1_555 1_555
Hg2 N2 1_555 1_555
Hg3 N4 1_555 1_555
C1 H1 1_555 1_555
C2 C1 1_555 1_555
C3 C2 1_555 1_555
H3 C3 1_555 1_555
C4 H4 1_555 1_555
C5 C4 1_555 1_555
H5 C5 1_555 1_555
C6 C5 1_555 1_555
H6 C6 1_555 1_555
C7 H7 1_555 1_555
C8 C7 1_555 1_555
H8 C8 1_555 1_555
C9 C8 1_555 1_555
H9 C9 1_555 1_555
N1 C1 1_555 1_555
N2 C3 1_555 1_555
N3 Hg2 1_555 1_555
N4 C6 1_555 1_555
N5 Hg3 1_555 1_555
N6 Hg1 1_555 1_555
C10 C11 1_555 1_555
O1 Hg2 1_555 1_555
O2 C10 1_555 1_555
O3 Hg2 1_555 1_555
O4 C12 1_555 1_555
C14 C15 1_555 1_555
O5 C14 1_555 1_555
O6 Hg1 1_555 1_555
Hg4 O2 1_555 1_555
O7 Hg3 1_555 1_555
O8 Hg3 1_555 1_555
C4 N3 1_555 1_555
C7 N5 1_555 1_555
C9 N6 1_555 1_555
N1 N2 1_555 1_555
N3 N4 1_555 1_555
N5 N6 1_555 1_555
C10 O1 1_555 1_555
C12 O3 1_555 1_555
C14 O6 1_555 1_555
C11 H10 1_555 1_555
C11 H11 1_555 1_555
C11 H12 1_555 1_555
C15 H14 1_555 1_555
C15 H15 1_555 1_555
C7_2 H7_2 1_555 1_555
C8_2 C7_2 1_555 1_555
H8_2 C8_2 1_555 1_555
C9_2 C8_2 1_555 1_555
H9_2 C9_2 1_555 1_555
C7_2 N5_2 1_555 1_555
C9_2 N6_2 1_555 1_555
N5_2 N6_2 1_555 1_555
Hg1_2 N1_2 1_555 1_555
Hg2_2 N2_2 1_555 1_555
Hg3_2 N4_2 1_555 1_555
C1_2 H1_2 1_555 1_555
C2_2 C1_2 1_555 1_555
C3_2 C2_2 1_555 1_555
H3_2 C3_2 1_555 1_555
C4_2 H4_2 1_555 1_555
C5_2 C4_2 1_555 1_555
H5_2 C5_2 1_555 1_555
C6_2 C5_2 1_555 1_555
H6_2 C6_2 1_555 1_555
N1_2 C1_2 1_555 1_555
N2_2 C3_2 1_555 1_555
N3_2 Hg2_2 1_555 1_555
N4_2 C6_2 1_555 1_555
C10_2 C11_2 1_555 1_555
O1_2 Hg2_2 1_555 1_555
O2_2 C10_2 1_555 1_555
O3_2 Hg2_2 1_555 1_555
O4_2 C12_2 1_555 1_555
C14_2 C15_2 1_555 1_555
O5_2 C14_2 1_555 1_555
O6_2 Hg1_2 1_555 1_555
Hg4_2 O2_2 1_555 1_555
O7_2 Hg3_2 1_555 1_555
C4_2 N3_2 1_555 1_555
N1_2 N2_2 1_555 1_555
N3_2 N4_2 1_555 1_555
C10_2 O1_2 1_555 1_555
C12_2 O3_2 1_555 1_555
C14_2 O6_2 1_555 1_555
C11_2 H10_2 1_555 1_555
C11_2 H11_2 1_555 1_555
C11_2 H12_2 1_555 1_555
C15_2 H14_2 1_555 1_555
C15_2 H15_2 1_555 1_555
C13_2 H16_2 1_555 1_555
C13_2 H17_2 1_555 1_555
Hg1_3 N1_3 1_555 1_555
Hg2_3 N2_3 1_555 1_555
Hg3_3 N4_3 1_555 1_555
C1_3 H1_3 1_555 1_555
C2_3 C1_3 1_555 1_555
H2_3 C2_3 1_555 1_555
C3_3 C2_3 1_555 1_555
H3_3 C3_3 1_555 1_555
C4_3 H4_3 1_555 1_555
C5_3 C4_3 1_555 1_555
H5_3 C5_3 1_555 1_555
C6_3 C5_3 1_555 1_555
H6_3 C6_3 1_555 1_555
N1_3 C1_3 1_555 1_555
N2_3 C3_3 1_555 1_555
N3_3 Hg2_3 1_555 1_555
N4_3 C6_3 1_555 1_555
C10_3 C11_3 1_555 1_555
O1_3 Hg2_3 1_555 1_555
O2_3 C10_3 1_555 1_555
C12_3 C13_3 1_555 1_555
O3_3 Hg2_3 1_555 1_555
O4_3 C12_3 1_555 1_555
C14_3 C15_3 1_555 1_555
O5_3 C14_3 1_555 1_555
O6_3 Hg1_3 1_555 1_555
Hg4_3 O2_3 1_555 1_555
Hg5_3 O4_3 1_555 1_555
O7_3 Hg3_3 1_555 1_555
C4_3 N3_3 1_555 1_555
N1_3 N2_3 1_555 1_555
N3_3 N4_3 1_555 1_555
C10_3 O1_3 1_555 1_555
C12_3 O3_3 1_555 1_555
C14_3 O6_3 1_555 1_555
C11_3 H10_3 1_555 1_555
C11_3 H11_3 1_555 1_555
C11_3 H12_3 1_555 1_555
C15_3 H14_3 1_555 1_555
C15_3 H15_3 1_555 1_555
C13_3 H16_3 1_555 1_555
C13_3 H17_3 1_555 1_555
C13_3 H18_3 1_555 1_555
C7_3 H7_3 1_555 1_555
C8_3 C7_3 1_555 1_555
H8_3 C8_3 1_555 1_555
C9_3 C8_3 1_555 1_555
H9_3 C9_3 1_555 1_555
C7_3 N5_3 1_555 1_555
C9_3 N6_3 1_555 1_555
N5_3 N6_3 1_555 1_555
Hg3_4 N4_4 1_555 1_555
C5_4 C4_4 1_555 1_555
C6_4 C5_4 1_555 1_555
H6_4 C6_4 1_555 1_555
C7_4 H7_4 1_555 1_555
N3_4 Hg2_4 1_555 1_555
N4_4 C6_4 1_555 1_555
N5_4 Hg3_4 1_555 1_555
C12_4 C13_4 1_555 1_555
O3_4 Hg2_4 1_555 1_555
O4_4 C12_4 1_555 1_555
Hg4_2 O4_4 1_555 1_555
O8_4 Hg3_4 1_555 1_555
C4_4 N3_4 1_555 1_555
C7_4 N5_4 1_555 1_555
N3_4 N4_4 1_555 1_555
C12_4 O3_4 1_555 1_555
C13_4 H16_4 1_555 1_555
C13_4 H17_4 1_555 1_555
C13_4 H18_4 1_555 1_555
Hg3_5 N4_5 1_555 1_555
C4_5 H4_4 1_555 1_555
C5_5 C4_5 1_555 1_555
H5_4 C5_5 1_555 1_555
C6_5 C5_5 1_555 1_555
H6_5 C6_5 1_555 1_555
C7_5 H7_5 1_555 1_555
N3_5 Hg2_5 1_555 1_555
N4_5 C6_5 1_555 1_555
N5_5 Hg3_5 1_555 1_555
C10_4 C11_4 1_555 1_555
O1_4 Hg2_5 1_555 1_555
O2_4 C10_4 1_555 1_555
C12_5 C13_5 1_555 1_555
O3_5 Hg2_5 1_555 1_555
O4_5 C12_5 1_555 1_555
Hg4_3 O4_5 1_555 1_555
O8_5 Hg3_5 1_555 1_555
C4_5 N3_5 1_555 1_555
C7_5 N5_5 1_555 1_555
N3_5 N4_5 1_555 1_555
C10_4 O1_4 1_555 1_555
C12_5 O3_5 1_555 1_555
C11_4 H10_4 1_555 1_555
C11_4 H11_4 1_555 1_555
C11_4 H12_4 1_555 1_555
C13_5 H16_5 1_555 1_555
C13_5 H17_5 1_555 1_555
C13_5 H18_5 1_555 1_555
Hg1_4 N1_4 1_555 1_555
C1_4 H1_4 1_555 1_555
C2_4 C1_4 1_555 1_555
H2_4 C2_4 1_555 1_555
C3_4 C2_4 1_555 1_555
H3_4 C3_4 1_555 1_555
H8_4 C8_4 1_555 1_555
C9_4 C8_4 1_555 1_555
H9_4 C9_4 1_555 1_555
N1_4 C1_4 1_555 1_555
N2_4 C3_4 1_555 1_555
N6_4 Hg1_4 1_555 1_555
C14_4 C15_4 1_555 1_555
O5_4 C14_4 1_555 1_555
O6_4 Hg1_4 1_555 1_555
C9_4 N6_4 1_555 1_555
N1_4 N2_4 1_555 1_555
C14_4 O6_4 1_555 1_555
C15_4 H13 1_555 1_555
C15_4 H14_4 1_555 1_555
C15_4 H15_4 1_555 1_555
Hg3_6 N4_6 1_555 1_555
C5_6 C4_6 1_555 1_555
C6_6 C5_6 1_555 1_555
H6_6 C6_6 1_555 1_555
C7_6 H7_6 1_555 1_555
N3_6 Hg2_6 1_555 1_555
N4_6 C6_6 1_555 1_555
N5_6 Hg3_6 1_555 1_555
C12_6 C13_6 1_555 1_555
O3_6 Hg2_6 1_555 1_555
O4_6 C12_6 1_555 1_555
Hg4 O4_6 1_555 1_555
O8_6 Hg3_6 1_555 1_555
C4_6 N3_6 1_555 1_555
C7_6 N5_6 1_555 1_555
N3_6 N4_6 1_555 1_555
C12_6 O3_6 1_555 1_555
C13_6 H16_6 1_555 1_555
C13_6 H17_6 1_555 1_555
C13_6 H18_6 1_555 1_555
Hg1_5 N1_5 1_555 1_555
Hg2_7 N2_5 1_555 1_555
Hg3_7 N4_7 1_555 1_555
C1_5 H1_5 1_555 1_555
C2_5 C1_5 1_555 1_555
H2_5 C2_5 1_555 1_555
C3_5 C2_5 1_555 1_555
H3_5 C3_5 1_555 1_555
C4_7 H4_5 1_555 1_555
C5_7 C4_7 1_555 1_555
H5_5 C5_7 1_555 1_555
C6_7 C5_7 1_555 1_555
H6_7 C6_7 1_555 1_555
C7_7 H7_7 1_555 1_555
C8_5 C7_7 1_555 1_555
H8_5 C8_5 1_555 1_555
C9_5 C8_5 1_555 1_555
H9_5 C9_5 1_555 1_555
N1_5 C1_5 1_555 1_555
N2_5 C3_5 1_555 1_555
N3_7 Hg2_7 1_555 1_555
N4_7 C6_7 1_555 1_555
N5_7 Hg3_7 1_555 1_555
N6_5 Hg1_5 1_555 1_555
C10_5 C11_5 1_555 1_555
O1_5 Hg2_7 1_555 1_555
O2_5 C10_5 1_555 1_555
C12_7 C13_7 1_555 1_555
O3_7 Hg2_7 1_555 1_555
O4_7 C12_7 1_555 1_555
C14_5 C15_5 1_555 1_555
O5_5 C14_5 1_555 1_555
O6_5 Hg1_5 1_555 1_555
Hg5_3 O2_5 1_555 1_555
Hg4_5 O4_7 1_555 1_555
O7_5 Hg3_7 1_555 1_555
O8_7 Hg3_7 1_555 1_555
C4_7 N3_7 1_555 1_555
C7_7 N5_7 1_555 1_555
C9_5 N6_5 1_555 1_555
N1_5 N2_5 1_555 1_555
N3_7 N4_7 1_555 1_555
N5_7 N6_5 1_555 1_555
C10_5 O1_5 1_555 1_555
C12_7 O3_7 1_555 1_555
C14_5 O6_5 1_555 1_555
C11_5 H10_5 1_555 1_555
C11_5 H11_5 1_555 1_555
C11_5 H12_5 1_555 1_555
C15_5 H13_2 1_555 1_555
C15_5 H14_5 1_555 1_555
C15_5 H15_5 1_555 1_555
C13_7 H16_7 1_555 1_555
C13_7 H17_7 1_555 1_555
C13_7 H18_7 1_555 1_555
Hg1_6 N1_6 1_555 1_555
Hg2_8 N2_6 1_555 1_555
Hg3_8 N4_8 1_555 1_555
C1_6 H1_6 1_555 1_555
C2_6 C1_6 1_555 1_555
H2_6 C2_6 1_555 1_555
C3_6 C2_6 1_555 1_555
H3_6 C3_6 1_555 1_555
C4_8 H4_6 1_555 1_555
C5_8 C4_8 1_555 1_555
H5_6 C5_8 1_555 1_555
C6_8 C5_8 1_555 1_555
H6_8 C6_8 1_555 1_555
C7_8 H7_8 1_555 1_555
C8_6 C7_8 1_555 1_555
H8_6 C8_6 1_555 1_555
C9_6 C8_6 1_555 1_555
H9_6 C9_6 1_555 1_555
N1_6 C1_6 1_555 1_555
N2_6 C3_6 1_555 1_555
N3_8 Hg2_8 1_555 1_555
N4_8 C6_8 1_555 1_555
N5_8 Hg3_8 1_555 1_555
N6_6 Hg1_6 1_555 1_555
C10_6 C11_6 1_555 1_555
O1_6 Hg2_8 1_555 1_555
O2_6 C10_6 1_555 1_555
C12_8 C13_8 1_555 1_555
O3_8 Hg2_8 1_555 1_555
O4_8 C12_8 1_555 1_555
C14_6 C15_6 1_555 1_555
O5_6 C14_6 1_555 1_555
O6_6 Hg1_6 1_555 1_555
Hg5 O2_6 1_555 1_555
Hg4_6 O4_8 1_555 1_555
O7_6 Hg3_8 1_555 1_555
O8_8 Hg3_8 1_555 1_555
C4_8 N3_8 1_555 1_555
C7_8 N5_8 1_555 1_555
C9_6 N6_6 1_555 1_555
N1_6 N2_6 1_555 1_555
N3_8 N4_8 1_555 1_555
N5_8 N6_6 1_555 1_555
C10_6 O1_6 1_555 1_555
C12_8 O3_8 1_555 1_555
C14_6 O6_6 1_555 1_555
C11_6 H10_6 1_555 1_555
C11_6 H12_6 1_555 1_555
C15_6 H13_3 1_555 1_555
C15_6 H14_6 1_555 1_555
C15_6 H15_6 1_555 1_555
C13_8 H16_8 1_555 1_555
C13_8 H17_8 1_555 1_555
C13_8 H18_8 1_555 1_555
Hg1_7 N1_7 1_555 1_555
Hg2_9 N2_7 1_555 1_555
Hg3_9 N4_9 1_555 1_555
C1_7 H1_7 1_555 1_555
C2_7 C1_7 1_555 1_555
H2_7 C2_7 1_555 1_555
C3_7 C2_7 1_555 1_555
H3_7 C3_7 1_555 1_555
C4_9 H4_7 1_555 1_555
C5_9 C4_9 1_555 1_555
H5_7 C5_9 1_555 1_555
C6_9 C5_9 1_555 1_555
H6_9 C6_9 1_555 1_555
C7_9 H7_9 1_555 1_555
C8_7 C7_9 1_555 1_555
H8_7 C8_7 1_555 1_555
C9_7 C8_7 1_555 1_555
H9_7 C9_7 1_555 1_555
N1_7 C1_7 1_555 1_555
N2_7 C3_7 1_555 1_555
N3_9 Hg2_9 1_555 1_555
N4_9 C6_9 1_555 1_555
N5_9 Hg3_9 1_555 1_555
N6_7 Hg1_7 1_555 1_555
C10_7 C11_7 1_555 1_555
O1_7 Hg2_9 1_555 1_555
O2_7 C10_7 1_555 1_555
C12_9 C13_9 1_555 1_555
O3_9 Hg2_9 1_555 1_555
O4_9 C12_9 1_555 1_555
C14_7 C15_7 1_555 1_555
O5_7 C14_7 1_555 1_555
O6_7 Hg1_7 1_555 1_555
Hg5_2 O2_7 1_555 1_555
Hg4_4 O4_9 1_555 1_555
O7_7 Hg3_9 1_555 1_555
O8_9 Hg3_9 1_555 1_555
C4_9 N3_9 1_555 1_555
C7_9 N5_9 1_555 1_555
C9_7 N6_7 1_555 1_555
N1_7 N2_7 1_555 1_555
N3_9 N4_9 1_555 1_555
N5_9 N6_7 1_555 1_555
C10_7 O1_7 1_555 1_555
C12_9 O3_9 1_555 1_555
C14_7 O6_7 1_555 1_555
C11_7 H10_7 1_555 1_555
C11_7 H12_7 1_555 1_555
C15_7 H13_4 1_555 1_555
C15_7 H14_7 1_555 1_555
C15_7 H15_7 1_555 1_555
C13_9 H16_9 1_555 1_555
C13_9 H17_9 1_555 1_555
C13_9 H18_9 1_555 1_555
Hg1_8 N1_8 1_555 1_555
Hg2_10 N2_8 1_555 1_555
Hg5_3 N4_10 1_555 1_555
C1_8 H1_8 1_555 1_555
C2_8 C1_8 1_555 1_555
C3_8 C2_8 1_555 1_555
H3_8 C3_8 1_555 1_555
C4_10 H4_8 1_555 1_555
C5_10 C4_10 1_555 1_555
H5_8 C5_10 1_555 1_555
C6_10 C5_10 1_555 1_555
H6_10 C6_10 1_555 1_555
C7_10 H7_10 1_555 1_555
C8_8 C7_10 1_555 1_555
H8_8 C8_8 1_555 1_555
C9_8 C8_8 1_555 1_555
H9_8 C9_8 1_555 1_555
N1_8 C1_8 1_555 1_555
N2_8 C3_8 1_555 1_555
N3_10 Hg2_10 1_555 1_555
N4_10 C6_10 1_555 1_555
N5_10 Hg5_3 1_555 1_555
N6_8 Hg1_8 1_555 1_555
C10_8 C11_8 1_555 1_555
O1_8 Hg2_10 1_555 1_555
O7_5 C10_8 1_555 1_555
O3_10 Hg2_10 1_555 1_555
O8_2 C12_10 1_555 1_555
C14_8 C15_8 1_555 1_555
O5_8 C14_8 1_555 1_555
O6_8 Hg1_8 1_555 1_555
C4_10 N3_10 1_555 1_555
C7_10 N5_10 1_555 1_555
C9_8 N6_8 1_555 1_555
N1_8 N2_8 1_555 1_555
N3_10 N4_10 1_555 1_555
N5_10 N6_8 1_555 1_555
C10_8 O1_8 1_555 1_555
C12_10 O3_10 1_555 1_555
C14_8 O6_8 1_555 1_555
C11_8 H10_8 1_555 1_555
C11_8 H11_6 1_555 1_555
C11_8 H12_8 1_555 1_555
C15_8 H14_8 1_555 1_555
C15_8 H15_8 1_555 1_555
C13_10 H16_10 1_555 1_555
C13_10 H17_10 1_555 1_555
C13_11 H16_11 1_555 1_555
C13_11 H17_11 1_555 1_555
Hg1_9 N1_9 1_555 1_555
Hg2_11 N2_9 1_555 1_555
Hg5 N4_11 1_555 1_555
C1_9 H1_9 1_555 1_555
C2_9 C1_9 1_555 1_555
C3_9 C2_9 1_555 1_555
H3_9 C3_9 1_555 1_555
C4_11 H4_9 1_555 1_555
C5_11 C4_11 1_555 1_555
H5_9 C5_11 1_555 1_555
C6_11 C5_11 1_555 1_555
H6_11 C6_11 1_555 1_555
N1_9 C1_9 1_555 1_555
N2_9 C3_9 1_555 1_555
N3_11 Hg2_11 1_555 1_555
N4_11 C6_11 1_555 1_555
C10_9 C11_9 1_555 1_555
O1_9 Hg2_11 1_555 1_555
O7_6 C10_9 1_555 1_555
O3_11 Hg2_11 1_555 1_555
O8_3 C12_11 1_555 1_555
C14_9 C15_9 1_555 1_555
O5_9 C14_9 1_555 1_555
O6_9 Hg1_9 1_555 1_555
C4_11 N3_11 1_555 1_555
N1_9 N2_9 1_555 1_555
N3_11 N4_11 1_555 1_555
C10_9 O1_9 1_555 1_555
C12_11 O3_11 1_555 1_555
C14_9 O6_9 1_555 1_555
C11_9 H10_9 1_555 1_555
C11_9 H11_7 1_555 1_555
C11_9 H12_9 1_555 1_555
C15_9 H14_9 1_555 1_555
C15_9 H15_9 1_555 1_555
C7_11 H7_11 1_555 1_555
C8_9 C7_11 1_555 1_555
H8_9 C8_9 1_555 1_555
C9_9 C8_9 1_555 1_555
H9_9 C9_9 1_555 1_555
C7_11 N5_11 1_555 1_555
C9_9 N6_9 1_555 1_555
N5_11 N6_9 1_555 1_555
C7_12 H7_12 1_555 1_555
C8_10 C7_12 1_555 1_555
H8_10 C8_10 1_555 1_555
C9_10 C8_10 1_555 1_555
H9_10 C9_10 1_555 1_555
C7_12 N5_12 1_555 1_555
C9_10 N6_10 1_555 1_555
N5_12 N6_10 1_555 1_555
Hg1_10 N1_10 1_555 1_555
Hg2_12 N2_10 1_555 1_555
Hg5_2 N4_12 1_555 1_555
C1_10 H1_10 1_555 1_555
C2_10 C1_10 1_555 1_555
H2_10 C2_10 1_555 1_555
C3_10 C2_10 1_555 1_555
H3_10 C3_10 1_555 1_555
C4_12 H4_10 1_555 1_555
C5_12 C4_12 1_555 1_555
H5_10 C5_12 1_555 1_555
C6_12 C5_12 1_555 1_555
H6_12 C6_12 1_555 1_555
N1_10 C1_10 1_555 1_555
N2_10 C3_10 1_555 1_555
N3_12 Hg2_12 1_555 1_555
N4_12 C6_12 1_555 1_555
C10_10 C11_10 1_555 1_555
O1_10 Hg2_12 1_555 1_555
O7_7 C10_10 1_555 1_555
C12_12 C13_12 1_555 1_555
O3_12 Hg2_12 1_555 1_555
O8 C12_12 1_555 1_555
C14_10 C15_10 1_555 1_555
O5_10 C14_10 1_555 1_555
O6_10 Hg1_10 1_555 1_555
C4_12 N3_12 1_555 1_555
N1_10 N2_10 1_555 1_555
N3_12 N4_12 1_555 1_555
C10_10 O1_10 1_555 1_555
C12_12 O3_12 1_555 1_555
C14_10 O6_10 1_555 1_555
C11_10 H10_10 1_555 1_555
C11_10 H11_8 1_555 1_555
C11_10 H12_10 1_555 1_555
C15_10 H14_10 1_555 1_555
C15_10 H15_10 1_555 1_555
C13_12 H16_12 1_555 1_555
C13_12 H17_12 1_555 1_555
C13_12 H18_12 1_555 1_555
Hg4_4 N4_13 1_555 1_555
C5_13 C4_13 1_555 1_555
C6_13 C5_13 1_555 1_555
H6_13 C6_13 1_555 1_555
C7_13 H7_13 1_555 1_555
N3_13 Hg2_13 1_555 1_555
N4_13 C6_13 1_555 1_555
N5_13 Hg4_4 1_555 1_555
C12_13 C13_13 1_555 1_555
O3_13 Hg2_13 1_555 1_555
O8_8 C12_13 1_555 1_555
C4_13 N3_13 1_555 1_555
C7_13 N5_13 1_555 1_555
N3_13 N4_13 1_555 1_555
C12_13 O3_13 1_555 1_555
C13_13 H16_13 1_555 1_555
C13_13 H17_13 1_555 1_555
C13_13 H18_13 1_555 1_555
Hg1_11 N1_11 1_555 1_555
C1_11 H1_11 1_555 1_555
C2_11 C1_11 1_555 1_555
H2_11 C2_11 1_555 1_555
C3_11 C2_11 1_555 1_555
H3_11 C3_11 1_555 1_555
H8_11 C8_11 1_555 1_555
C9_11 C8_11 1_555 1_555
H9_11 C9_11 1_555 1_555
N1_11 C1_11 1_555 1_555
N2_11 C3_11 1_555 1_555
N6_11 Hg1_11 1_555 1_555
C14_11 C15_11 1_555 1_555
O5_11 C14_11 1_555 1_555
O6_11 Hg1_11 1_555 1_555
C9_11 N6_11 1_555 1_555
N1_11 N2_11 1_555 1_555
C14_11 O6_11 1_555 1_555
C15_11 H13_5 1_555 1_555
C15_11 H14_11 1_555 1_555
C15_11 H15_11 1_555 1_555
Hg4_5 N4_14 1_555 1_555
C4_14 H4_11 1_555 1_555
C5_14 C4_14 1_555 1_555
H5_11 C5_14 1_555 1_555
C6_14 C5_14 1_555 1_555
H6_14 C6_14 1_555 1_555
C7_14 H7_14 1_555 1_555
N3_14 Hg2_14 1_555 1_555
N4_14 C6_14 1_555 1_555
N5_14 Hg4_5 1_555 1_555
C10_11 C11_11 1_555 1_555
O1_11 Hg2_14 1_555 1_555
O7_4 C10_11 1_555 1_555
C12_14 C13_14 1_555 1_555
O3_14 Hg2_14 1_555 1_555
O8_9 C12_14 1_555 1_555
C4_14 N3_14 1_555 1_555
C7_14 N5_14 1_555 1_555
N3_14 N4_14 1_555 1_555
C10_11 O1_11 1_555 1_555
C12_14 O3_14 1_555 1_555
C11_11 H10_11 1_555 1_555
C11_11 H11_9 1_555 1_555
C11_11 H12_11 1_555 1_555
C13_14 H16_14 1_555 1_555
C13_14 H17_14 1_555 1_555
C13_14 H18_14 1_555 1_555
Hg4_6 N4_15 1_555 1_555
C5_15 C4_15 1_555 1_555
C6_15 C5_15 1_555 1_555
H6_15 C6_15 1_555 1_555
C7_15 H7_15 1_555 1_555
N3_15 Hg2_15 1_555 1_555
N4_15 C6_15 1_555 1_555
N5_15 Hg4_6 1_555 1_555
C12_15 C13_15 1_555 1_555
O3_15 Hg2_15 1_555 1_555
O8_7 C12_15 1_555 1_555
C4_15 N3_15 1_555 1_555
C7_15 N5_15 1_555 1_555
N3_15 N4_15 1_555 1_555
C12_15 O3_15 1_555 1_555
C13_15 H16_15 1_555 1_555
C13_15 H17_15 1_555 1_555
C13_15 H18_15 1_555 1_555
Hg1_12 N1_12 1_555 1_555
Hg2_16 N2_12 1_555 1_555
Hg4 N4_16 1_555 1_555
C1_12 H1_12 1_555 1_555
C2_12 C1_12 1_555 1_555
H2_12 C2_12 1_555 1_555
C3_12 C2_12 1_555 1_555
H3_12 C3_12 1_555 1_555
C4_16 H4_12 1_555 1_555
C5_16 C4_16 1_555 1_555
H5_12 C5_16 1_555 1_555
C6_16 C5_16 1_555 1_555
H6_16 C6_16 1_555 1_555
C7_16 H7_16 1_555 1_555
C8_12 C7_16 1_555 1_555
H8_12 C8_12 1_555 1_555
C9_12 C8_12 1_555 1_555
H9_12 C9_12 1_555 1_555
N1_12 C1_12 1_555 1_555
N2_12 C3_12 1_555 1_555
N3_16 Hg2_16 1_555 1_555
N4_16 C6_16 1_555 1_555
N5_16 Hg4 1_555 1_555
N6_12 Hg1_12 1_555 1_555
C10_12 C11_12 1_555 1_555
O1_12 Hg2_16 1_555 1_555
O7 C10_12 1_555 1_555
C12_16 C13_16 1_555 1_555
O3_16 Hg2_16 1_555 1_555
O8_5 C12_16 1_555 1_555
C14_12 C15_12 1_555 1_555
O5_12 C14_12 1_555 1_555
O6_12 Hg1_12 1_555 1_555
C4_16 N3_16 1_555 1_555
C7_16 N5_16 1_555 1_555
C9_12 N6_12 1_555 1_555
N1_12 N2_12 1_555 1_555
N3_16 N4_16 1_555 1_555
N5_16 N6_12 1_555 1_555
C10_12 O1_12 1_555 1_555
C12_16 O3_16 1_555 1_555
C14_12 O6_12 1_555 1_555
C11_12 H10_12 1_555 1_555
C11_12 H11_10 1_555 1_555
C11_12 H12_12 1_555 1_555
C15_12 H13_6 1_555 1_555
C15_12 H14_12 1_555 1_555
C15_12 H15_12 1_555 1_555
C13_16 H16_16 1_555 1_555
C13_16 H17_16 1_555 1_555
C13_16 H18_16 1_555 1_555
Hg1_13 N1_13 1_555 1_555
Hg2_17 N2_13 1_555 1_555
Hg4_2 N4_17 1_555 1_555
C1_13 H1_13 1_555 1_555
C2_13 C1_13 1_555 1_555
H2_13 C2_13 1_555 1_555
C3_13 C2_13 1_555 1_555
H3_13 C3_13 1_555 1_555
C4_17 H4_13 1_555 1_555
C5_17 C4_17 1_555 1_555
H5_13 C5_17 1_555 1_555
C6_17 C5_17 1_555 1_555
H6_17 C6_17 1_555 1_555
C7_17 H7_17 1_555 1_555
C8_13 C7_17 1_555 1_555
H8_13 C8_13 1_555 1_555
C9_13 C8_13 1_555 1_555
H9_13 C9_13 1_555 1_555
N1_13 C1_13 1_555 1_555
N2_13 C3_13 1_555 1_555
N3_17 Hg2_17 1_555 1_555
N4_17 C6_17 1_555 1_555
N5_17 Hg4_2 1_555 1_555
N6_13 Hg1_13 1_555 1_555
C10_13 C11_13 1_555 1_555
O1_13 Hg2_17 1_555 1_555
O7_2 C10_13 1_555 1_555
C12_17 C13_17 1_555 1_555
O3_17 Hg2_17 1_555 1_555
O8_6 C12_17 1_555 1_555
C14_13 C15_13 1_555 1_555
O5_13 C14_13 1_555 1_555
O6_13 Hg1_13 1_555 1_555
C4_17 N3_17 1_555 1_555
C7_17 N5_17 1_555 1_555
C9_13 N6_13 1_555 1_555
N1_13 N2_13 1_555 1_555
N3_17 N4_17 1_555 1_555
N5_17 N6_13 1_555 1_555
C10_13 O1_13 1_555 1_555
C12_17 O3_17 1_555 1_555
C14_13 O6_13 1_555 1_555
C11_13 H10_13 1_555 1_555
C11_13 H12_13 1_555 1_555
C15_13 H13_7 1_555 1_555
C15_13 H14_13 1_555 1_555
C15_13 H15_13 1_555 1_555
C13_17 H16_17 1_555 1_555
C13_17 H17_17 1_555 1_555
C13_17 H18_17 1_555 1_555
Hg1_14 N1_14 1_555 1_555
Hg2_18 N2_14 1_555 1_555
Hg4_3 N4_18 1_555 1_555
C1_14 H1_14 1_555 1_555
C2_14 C1_14 1_555 1_555
H2_14 C2_14 1_555 1_555
C3_14 C2_14 1_555 1_555
H3_14 C3_14 1_555 1_555
C4_18 H4_14 1_555 1_555
C5_18 C4_18 1_555 1_555
H5_14 C5_18 1_555 1_555
C6_18 C5_18 1_555 1_555
H6_18 C6_18 1_555 1_555
C7_18 H7_18 1_555 1_555
C8_14 C7_18 1_555 1_555
H8_14 C8_14 1_555 1_555
C9_14 C8_14 1_555 1_555
H9_14 C9_14 1_555 1_555
N1_14 C1_14 1_555 1_555
N2_14 C3_14 1_555 1_555
N3_18 Hg2_18 1_555 1_555
N4_18 C6_18 1_555 1_555
N5_18 Hg4_3 1_555 1_555
N6_14 Hg1_14 1_555 1_555
C10_14 C11_14 1_555 1_555
O1_14 Hg2_18 1_555 1_555
O7_3 C10_14 1_555 1_555
C12_18 C13_18 1_555 1_555
O3_18 Hg2_18 1_555 1_555
O8_4 C12_18 1_555 1_555
C14_14 C15_14 1_555 1_555
O5_14 C14_14 1_555 1_555
O6_14 Hg1_14 1_555 1_555
C4_18 N3_18 1_555 1_555
C7_18 N5_18 1_555 1_555
C9_14 N6_14 1_555 1_555
N1_14 N2_14 1_555 1_555
N3_18 N4_18 1_555 1_555
N5_18 N6_14 1_555 1_555
C10_14 O1_14 1_555 1_555
C12_18 O3_18 1_555 1_555
C14_14 O6_14 1_555 1_555
C11_14 H10_14 1_555 1_555
C11_14 H12_14 1_555 1_555
C15_14 H13_8 1_555 1_555
C15_14 H14_14 1_555 1_555
C15_14 H15_14 1_555 1_555
C13_18 H16_18 1_555 1_555
C13_18 H17_18 1_555 1_555
C13_18 H18_18 1_555 1_555
Hg1_15 N1_15 1_555 1_555
C1_15 H1_15 1_555 1_555
C2_15 C1_15 1_555 1_555
H2_15 C2_15 1_555 1_555
C3_15 C2_15 1_555 1_555
H3_15 C3_15 1_555 1_555
H8_15 C8_15 1_555 1_555
C9_15 C8_15 1_555 1_555
H9_15 C9_15 1_555 1_555
N1_15 C1_15 1_555 1_555
N2_15 C3_15 1_555 1_555
N6_15 Hg1_15 1_555 1_555
C14_15 C15_15 1_555 1_555
O5_15 C14_15 1_555 1_555
O6_15 Hg1_15 1_555 1_555
C9_15 N6_15 1_555 1_555
N1_15 N2_15 1_555 1_555
C14_15 O6_15 1_555 1_555
C15_15 H13_12 1_555 1_555
C15_15 H14_15 1_555 1_555
C15_15 H15_15 1_555 1_555
C10_15 C11_15 1_555 1_555
O7_8 C10_15 1_555 1_555
C10_15 O1_15 1_555 1_555
C11_15 H10_15 1_555 1_555
C11_15 H11_11 1_555 1_555
C11_15 H12_15 1_555 1_555
C10_16 C11_16 1_555 1_555
O2_8 C10_16 1_555 1_555
C10_16 O1_16 1_555 1_555
C11_16 H10_16 1_555 1_555
C11_16 H11_12 1_555 1_555
C11_16 H12_16 1_555 1_555
Hg1_16 N1_16 1_555 1_555
C1_16 H1_16 1_555 1_555
C2_16 C1_16 1_555 1_555
H2_16 C2_16 1_555 1_555
C3_16 C2_16 1_555 1_555
H3_16 C3_16 1_555 1_555
H8_16 C8_16 1_555 1_555
C9_16 C8_16 1_555 1_555
H9_16 C9_16 1_555 1_555
N1_16 C1_16 1_555 1_555
N2_16 C3_16 1_555 1_555
N6_16 Hg1_16 1_555 1_555
C14_16 C15_16 1_555 1_555
O5_16 C14_16 1_555 1_555
O6_16 Hg1_16 1_555 1_555
C9_16 N6_16 1_555 1_555
N1_16 N2_16 1_555 1_555
C14_16 O6_16 1_555 1_555
C15_16 H13_13 1_555 1_555
C15_16 H14_16 1_555 1_555
C15_16 H15_16 1_555 1_555
C10_17 C11_17 1_555 1_555
O2_9 C10_17 1_555 1_555
C10_17 O1_17 1_555 1_555
C11_17 H10_17 1_555 1_555
C11_17 H11_13 1_555 1_555
C11_17 H12_17 1_555 1_555
Hg1_17 N1_17 1_555 1_555
C1_17 H1_17 1_555 1_555
C2_17 C1_17 1_555 1_555
H2_17 C2_17 1_555 1_555
C3_17 C2_17 1_555 1_555
H3_17 C3_17 1_555 1_555
H8_17 C8_17 1_555 1_555
C9_17 C8_17 1_555 1_555
H9_17 C9_17 1_555 1_555
N1_17 C1_17 1_555 1_555
N2_17 C3_17 1_555 1_555
N6_17 Hg1_17 1_555 1_555
C14_17 C15_17 1_555 1_555
O5_17 C14_17 1_555 1_555
O6_17 Hg1_17 1_555 1_555
C9_17 N6_17 1_555 1_555
N1_17 N2_17 1_555 1_555
C14_17 O6_17 1_555 1_555
C15_17 H13_14 1_555 1_555
C15_17 H14_17 1_555 1_555
C15_17 H15_17 1_555 1_555
Hg1_18 N1_18 1_555 1_555
C1_18 H1_18 1_555 1_555
C2_18 C1_18 1_555 1_555
H2_18 C2_18 1_555 1_555
C3_18 C2_18 1_555 1_555
H3_18 C3_18 1_555 1_555
H8_18 C8_18 1_555 1_555
C9_18 C8_18 1_555 1_555
H9_18 C9_18 1_555 1_555
N1_18 C1_18 1_555 1_555
N2_18 C3_18 1_555 1_555
N6_18 Hg1_18 1_555 1_555
C14_18 C15_18 1_555 1_555
O5_18 C14_18 1_555 1_555
O6_18 Hg1_18 1_555 1_555
C9_18 N6_18 1_555 1_555
N1_18 N2_18 1_555 1_555
C14_18 O6_18 1_555 1_555
C15_18 H13_15 1_555 1_555
C15_18 H14_18 1_555 1_555
C15_18 H15_18 1_555 1_555
C10_18 C11_18 1_555 1_555
O7_9 C10_18 1_555 1_555
C10_18 O1_18 1_555 1_555
C11_18 H10_18 1_555 1_555
C11_18 H11_14 1_555 1_555
C11_18 H12_18 1_555 1_555

#END
