
###############################################################################
#
# This file contains modified crystal structure data generated from the
# MOF subset of the Cambridge Structural Database (CSD) v543 
# hosted by the Cambridge Crystallographic Data Centre (CCDC).
#
# This work is licensed under the Creative Commons
# Attribution-NonCommercial-ShareAlike 4.0 International License.
# To view a copy of this license, visit
# http://creativecommons.org/licenses/by-nc-sa/4.0/
# or send a letter to
# Creative Commons, PO Box 1866, Mountain View, CA 94042, USA.
#
# CIF created using the CSD Python API on 29 September 2022
# The structure has been converted into the P1 space group
# The structure has a 3D framework
# The original CSD entry XESKUD is in the rhombohedral crystal system
# The framework has been calculated to contain at least 10.0% void space
# The void calculation uses a probe of radius 1.32A, grid spacing 0.4
# H atom positions have been added when not included in the experimental data
# Generated hydrogen atom positions removed from atoms on special positions
#
###############################################################################

data_XESKUD
_chemical_formula_moiety         '(C54 H162 Fe18 N18 O67 P18)n'
_symmetry_cell_setting           triclinic
_symmetry_space_group_name_H-M   'P 1'
_symmetry_Int_Tables_number      1
_space_group_name_Hall           'P 1'
loop_
_symmetry_equiv_pos_site_id
_symmetry_equiv_pos_as_xyz
1 x,y,z
_cell_length_a                   28.0103(21)
_cell_length_b                   28.0103(21)
_cell_length_c                   6.4044(5)
_cell_angle_alpha                90
_cell_angle_beta                 90
_cell_angle_gamma                120
_cell_volume                     4351.56
loop_
_atom_site_label
_atom_site_type_symbol
_atom_site_fract_x
_atom_site_fract_y
_atom_site_fract_z
_atom_site_U_iso_or_equiv
_atom_site_thermal_displace_type
Fe3 Fe 0.3923(6) 0.0311(5) 0.0446(16) 0.0314 Uiso
Fe8 Fe 0.6945(4) 0.0589(6) 0.6220(16) 0.0314 Uiso
O10 O 0.3215(5) 0.0439(7) 0.0630(18) 0.0314 Uiso
O13 O 0.7105(7) 0.0557(5) 0.2704(18) 0.0314 Uiso
O14 O 0.7905(8) 0.0092(9) 0.214(4) 0.0385 Uiso
C4 C 0.55484(35) 0.00542(25) 0.2798(8) 0.0314 Uiso
H3 H 0.807199 0.0492505 0.185423 . .
H4 H 0.809336 0.00367063 0.335149 . .
H9 H 0.534316 0.0740665 0.113266 . .
H11 H 0.589988 0.0471177 0.272169 . .
H12 H 0.520623 0.00610392 0.357653 . .
Fe1 Fe 0.3022(5) 0.0278(4) 0.7113(16) 0.0314 Uiso
P1 P 0.42628(27) 0.04033(28) 0.5786(13) 0.0314 Uiso
O1 O 0.4774(4) 0.0910(5) 0.5179(28) 0.0314 Uiso
O2 O 0.3916(5) 0.0561(6) 0.7164(18) 0.0314 Uiso
O3 O 0.3890(5) 0.0118(5) 0.3963(18) 0.0314 Uiso
N1 N 0.46191(15) 0.01835(19) 0.9370(8) 0.0314 Uiso
C2 C 0.52392(17) 0.05833(11) 0.9544(16) 0.0314 Uiso
O7 O 0.2772(6) 0.0022(8) 0.3831(18) 0.0314 Uiso
N3 N 0.31498(19) 0.11023(24) 0.6037(8) 0.0314 Uiso
C6 C 0.55351(17) 0.02662(21) 0.8986(9) 0.0314 Uiso
H1 H 0.205252 0.00944263 0.910629 . .
H10 H 0.536136 0.0925749 0.846563 . .
H15 H 0.597927 0.0544772 0.898855 . .
H16 H 0.540496 0.00802642 0.744687 . .
C3 C 0.44649(17) 0.97338(21) 0.1014(9) 0.0314 Uiso
Fe2 Fe 0.6978(5) 0.9722(4) 0.2887(16) 0.0314 Uiso
Fe7 Fe 0.6077(6) 0.9689(5) 0.9554(16) 0.0314 Uiso
P2 P 0.57372(27) 0.95967(28) 0.4214(13) 0.0314 Uiso
O5 O 0.5226(4) 0.9090(5) 0.4821(28) 0.0314 Uiso
O6 O 0.6084(5) 0.9439(6) 0.2836(18) 0.0314 Uiso
O8 O 0.7228(6) 0.9978(8) 0.6169(18) 0.0314 Uiso
O9 O 0.6110(5) 0.9882(5) 0.6037(18) 0.0314 Uiso
N2 N 0.53809(15) 0.98165(19) 0.0630(8) 0.0314 Uiso
N4 N 0.68502(19) 0.88977(24) 0.3963(8) 0.0314 Uiso
C5 C 0.47608(17) 0.94167(11) 0.0456(16) 0.0314 Uiso
H7 H 0.402073 0.945523 0.101145 . .
H8 H 0.459504 0.991974 0.255313 . .
H14 H 0.463864 0.907425 0.153437 . .
O4 O 0.2095(8) 0.9908(9) 0.786(4) 0.0385 Uiso
C1 C 0.44516(35) 0.99458(25) 0.7202(8) 0.0314 Uiso
Fe5 Fe 0.3055(4) 0.9411(6) 0.3780(16) 0.0314 Uiso
O11 O 0.2895(7) 0.9443(5) 0.7296(18) 0.0314 Uiso
O12 O 0.6785(5) 0.9561(7) 0.9370(18) 0.0314 Uiso
H2 H 0.190664 0.996329 0.664851 . .
H5 H 0.479377 0.993896 0.642347 . .
H6 H 0.410012 0.952882 0.727831 . .
H13 H 0.465684 0.925934 0.886734 . .
C3_2 C 0.02662(21) 0.47311(27) 0.1014(9) 0.0314 Uiso
Fe2_2 Fe 0.0278(4) 0.7256(6) 0.2887(16) 0.0314 Uiso
Fe7_2 Fe 0.0311(5) 0.6389(8) 0.9554(16) 0.0314 Uiso
P2_2 P 0.04033(28) 0.61405(39) 0.4214(13) 0.0314 Uiso
O5_2 O 0.0910(5) 0.6136(6) 0.4821(28) 0.0314 Uiso
O6_2 O 0.0561(6) 0.6645(8) 0.2836(18) 0.0314 Uiso
O8_2 O 0.0022(8) 0.7249(10) 0.6169(18) 0.0314 Uiso
O9_2 O 0.0118(5) 0.6228(7) 0.6037(18) 0.0314 Uiso
N2_2 N 0.01835(19) 0.55644(24) 0.0630(8) 0.0314 Uiso
N4_2 N 0.11023(24) 0.79524(31) 0.3963(8) 0.0314 Uiso
C5_2 C 0.05833(11) 0.53441(20) 0.0456(16) 0.0314 Uiso
H7_2 H 0.0544772 0.456551 0.101145 . .
H8_2 H 0.00802642 0.46753 0.255313 . .
H14_2 H 0.0925749 0.556439 0.153437 . .
O4_2 O 0.0092(9) 0.2187(12) 0.786(4) 0.0385 Uiso
C1_2 C 0.00542(25) 0.45058(43) 0.7202(8) 0.0314 Uiso
Fe5_2 Fe 0.0589(6) 0.3645(7) 0.3780(16) 0.0314 Uiso
O11_2 O 0.0557(5) 0.3451(9) 0.7296(18) 0.0314 Uiso
O12_2 O 0.0439(7) 0.7223(9) 0.9370(18) 0.0314 Uiso
H2_2 H 0.00367063 0.194335 0.664851 . .
H5_2 H 0.00610392 0.485481 0.642347 . .
H6_2 H 0.0471177 0.457129 0.727831 . .
H13_2 H 0.0740665 0.53975 0.886734 . .
Fe3_2 Fe 0.9689(5) 0.3611(8) 0.0446(16) 0.0314 Uiso
Fe8_2 Fe 0.9411(6) 0.6355(7) 0.6220(16) 0.0314 Uiso
O10_2 O 0.9561(7) 0.2777(9) 0.0630(18) 0.0314 Uiso
O13_2 O 0.9443(5) 0.6549(9) 0.2704(18) 0.0314 Uiso
O14_2 O 0.9908(9) 0.7813(12) 0.214(4) 0.0385 Uiso
C4_2 C 0.99458(25) 0.54942(43) 0.2798(8) 0.0314 Uiso
H3_2 H 0.950749 0.757948 0.185423 . .
H4_2 H 0.996329 0.805665 0.335149 . .
H9_2 H 0.925934 0.46025 0.113266 . .
H11_2 H 0.952882 0.542871 0.272169 . .
H12_2 H 0.993896 0.514519 0.357653 . .
Fe1_2 Fe 0.9722(4) 0.2744(6) 0.7113(16) 0.0314 Uiso
P1_2 P 0.95967(28) 0.38595(39) 0.5786(13) 0.0314 Uiso
O1_2 O 0.9090(5) 0.3864(6) 0.5179(28) 0.0314 Uiso
O2_2 O 0.9439(6) 0.3355(8) 0.7164(18) 0.0314 Uiso
O3_2 O 0.9882(5) 0.3772(7) 0.3963(18) 0.0314 Uiso
N1_2 N 0.98165(19) 0.44356(24) 0.9370(8) 0.0314 Uiso
C2_2 C 0.94167(11) 0.46559(20) 0.9544(16) 0.0314 Uiso
O7_2 O 0.9978(8) 0.2751(10) 0.3831(18) 0.0314 Uiso
N3_2 N 0.88977(24) 0.20476(31) 0.6037(8) 0.0314 Uiso
C6_2 C 0.97338(21) 0.52689(27) 0.8986(9) 0.0314 Uiso
H1_2 H 0.990557 0.19581 0.910629 . .
H10_2 H 0.907425 0.443561 0.846563 . .
H15_2 H 0.945523 0.543449 0.898855 . .
H16_2 H 0.991974 0.53247 0.744687 . .
C3_3 C 0.52689(27) 0.55351(17) 0.1014(9) 0.0314 Uiso
Fe2_3 Fe 0.2744(6) 0.3022(5) 0.2887(16) 0.0314 Uiso
Fe3_3 Fe 0.6389(8) 0.6077(6) 0.0446(16) 0.0314 Uiso
Fe7_3 Fe 0.3611(8) 0.3923(6) 0.9554(16) 0.0314 Uiso
Fe8_3 Fe 0.3645(7) 0.3055(4) 0.6220(16) 0.0314 Uiso
P2_3 P 0.38595(39) 0.42628(27) 0.4214(13) 0.0314 Uiso
O5_3 O 0.3864(6) 0.4774(4) 0.4821(28) 0.0314 Uiso
O6_3 O 0.3355(8) 0.3916(5) 0.2836(18) 0.0314 Uiso
O8_3 O 0.2751(10) 0.2772(6) 0.6169(18) 0.0314 Uiso
O9_3 O 0.3772(7) 0.3890(5) 0.6037(18) 0.0314 Uiso
O10_3 O 0.7223(9) 0.6785(5) 0.0630(18) 0.0314 Uiso
O13_3 O 0.3451(9) 0.2895(7) 0.2704(18) 0.0314 Uiso
O14_3 O 0.2187(12) 0.2095(8) 0.214(4) 0.0385 Uiso
N2_3 N 0.44356(24) 0.46191(15) 0.0630(8) 0.0314 Uiso
N4_3 N 0.20476(31) 0.31498(19) 0.3963(8) 0.0314 Uiso
C4_3 C 0.45058(43) 0.44516(35) 0.2798(8) 0.0314 Uiso
C5_3 C 0.46559(20) 0.52392(17) 0.0456(16) 0.0314 Uiso
H7_3 H 0.543449 0.597927 0.101145 . .
H8_3 H 0.53247 0.540496 0.255313 . .
H9_3 H 0.53975 0.465684 0.113266 . .
H11_3 H 0.457129 0.410012 0.272169 . .
H12_3 H 0.485481 0.479377 0.357653 . .
H14_3 H 0.443561 0.536136 0.153437 . .
Fe1_3 Fe 0.7256(6) 0.6978(5) 0.7113(16) 0.0314 Uiso
P1_3 P 0.61405(39) 0.57372(27) 0.5786(13) 0.0314 Uiso
O1_3 O 0.6136(6) 0.5226(4) 0.5179(28) 0.0314 Uiso
O2_3 O 0.6645(8) 0.6084(5) 0.7164(18) 0.0314 Uiso
O3_3 O 0.6228(7) 0.6110(5) 0.3963(18) 0.0314 Uiso
O4_3 O 0.7813(12) 0.7905(8) 0.786(4) 0.0385 Uiso
N1_3 N 0.55644(24) 0.53809(15) 0.9370(8) 0.0314 Uiso
C1_3 C 0.54942(43) 0.55484(35) 0.7202(8) 0.0314 Uiso
C2_3 C 0.53441(20) 0.47608(17) 0.9544(16) 0.0314 Uiso
Fe5_3 Fe 0.6355(7) 0.6945(4) 0.3780(16) 0.0314 Uiso
O7_3 O 0.7249(10) 0.7228(6) 0.3831(18) 0.0314 Uiso
O11_3 O 0.6549(9) 0.7105(7) 0.7296(18) 0.0314 Uiso
O12_3 O 0.2777(9) 0.3215(5) 0.9370(18) 0.0314 Uiso
N3_3 N 0.79524(31) 0.68502(19) 0.6037(8) 0.0314 Uiso
C6_3 C 0.47311(27) 0.44649(17) 0.8986(9) 0.0314 Uiso
H5_3 H 0.514519 0.520623 0.642347 . .
H6_3 H 0.542871 0.589988 0.727831 . .
H10_3 H 0.556439 0.463864 0.846563 . .
H13_3 H 0.46025 0.534316 0.886734 . .
H15_3 H 0.456551 0.402073 0.898855 . .
H16_3 H 0.46753 0.459504 0.744687 . .
H4_3 H 0.142669 0.670337 0.00181551 . .
O14_4 O 0.1238(8) 0.6759(9) 0.881(4) 0.0385 Uiso
H3_3 H 0.140532 0.715917 0.85209 . .
P2_4 P 0.90705(27) 0.62634(28) 0.0881(13) 0.0314 Uiso
O5_4 O 0.8559(4) 0.5757(5) 0.1488(28) 0.0314 Uiso
H12_4 H 0.853956 0.672771 0.0243194 . .
P1_4 P 0.75961(27) 0.70700(28) 0.2453(13) 0.0314 Uiso
O1_4 O 0.8107(4) 0.7577(5) 0.1846(28) 0.0314 Uiso
O4_4 O 0.5428(8) 0.6575(9) 0.453(4) 0.0385 Uiso
C1_4 C 0.77849(35) 0.66125(25) 0.3869(8) 0.0314 Uiso
C2_4 C 0.85725(17) 0.72500(11) 0.6211(16) 0.0314 Uiso
C3_4 C 0.77982(17) 0.64005(21) 0.7681(9) 0.0314 Uiso
O6_4 O 0.9417(5) 0.6106(6) 0.9503(18) 0.0314 Uiso
O7_4 O 0.6106(6) 0.6688(8) 0.0497(18) 0.0314 Uiso
N2_4 N 0.87142(15) 0.64832(19) 0.7297(8) 0.0314 Uiso
N3_4 N 0.64832(19) 0.77689(24) 0.2703(8) 0.0314 Uiso
C4_4 C 0.88817(35) 0.67209(25) 0.9465(8) 0.0314 Uiso
C5_4 C 0.80941(17) 0.60834(11) 0.7123(16) 0.0314 Uiso
C6_4 C 0.88684(17) 0.69329(21) 0.5653(9) 0.0314 Uiso
H5_4 H 0.81271 0.660563 0.309014 . .
H6_4 H 0.743345 0.619549 0.394498 . .
H7_4 H 0.735407 0.61219 0.767811 . .
H8_4 H 0.792837 0.65864 0.92198 . .
H9_4 H 0.867649 0.740733 0.779933 . .
H10_4 H 0.86947 0.759242 0.513229 . .
H11_4 H 0.923322 0.713784 0.938835 . .
H13_4 H 0.799017 0.5926 0.5534 . .
H14_4 H 0.797197 0.574092 0.820104 . .
H15_4 H 0.93126 0.721144 0.565522 . .
H16_4 H 0.87383 0.674693 0.411353 . .
P2_5 P 0.37366(28) 0.28072(39) 0.0881(13) 0.0314 Uiso
O5_5 O 0.4243(5) 0.2803(6) 0.1488(28) 0.0314 Uiso
H4_4 H 0.329663 0.472332 0.00181551 . .
H12_5 H 0.327229 0.181186 0.0243194 . .
P1_5 P 0.29300(28) 0.05262(39) 0.2453(13) 0.0314 Uiso
O1_5 O 0.2423(5) 0.0531(6) 0.1846(28) 0.0314 Uiso
C1_5 C 0.33875(25) 0.11725(43) 0.3869(8) 0.0314 Uiso
C2_5 C 0.27500(11) 0.13226(20) 0.6211(16) 0.0314 Uiso
C3_5 C 0.35995(21) 0.13978(27) 0.7681(9) 0.0314 Uiso
O6_5 O 0.3894(6) 0.3312(8) 0.9503(18) 0.0314 Uiso
O14_5 O 0.3241(9) 0.4480(12) 0.881(4) 0.0385 Uiso
N2_5 N 0.35168(19) 0.22311(24) 0.7297(8) 0.0314 Uiso
C4_5 C 0.32791(25) 0.21609(43) 0.9465(8) 0.0314 Uiso
C5_5 C 0.39166(11) 0.20108(20) 0.7123(16) 0.0314 Uiso
C6_5 C 0.30671(21) 0.19356(27) 0.5653(9) 0.0314 Uiso
H3_4 H 0.284083 0.424615 0.85209 . .
H5_5 H 0.339437 0.152148 0.309014 . .
H6_5 H 0.380451 0.123796 0.394498 . .
H7_5 H 0.38781 0.123217 0.767811 . .
H8_5 H 0.34136 0.134197 0.92198 . .
H9_5 H 0.259267 0.126916 0.779933 . .
H10_5 H 0.240758 0.110228 0.513229 . .
H11_5 H 0.286216 0.209537 0.938835 . .
H13_5 H 0.4074 0.206417 0.5534 . .
H14_5 H 0.425908 0.223105 0.820104 . .
H15_5 H 0.278856 0.210116 0.565522 . .
H16_5 H 0.325307 0.199137 0.411353 . .
O4_5 O 0.3425(9) 0.8854(12) 0.453(4) 0.0385 Uiso
O7_5 O 0.3312(8) 0.9417(10) 0.0497(18) 0.0314 Uiso
N3_5 N 0.22311(24) 0.87142(31) 0.2703(8) 0.0314 Uiso
O4_6 O 0.1146(12) 0.4572(8) 0.453(4) 0.0385 Uiso
O7_6 O 0.0583(10) 0.3894(6) 0.0497(18) 0.0314 Uiso
N3_6 N 0.12858(31) 0.35168(19) 0.2703(8) 0.0314 Uiso
P2_6 P 0.71928(39) 0.09295(27) 0.0881(13) 0.0314 Uiso
O5_6 O 0.7197(6) 0.1441(4) 0.1488(28) 0.0314 Uiso
H12_6 H 0.818814 0.146044 0.0243194 . .
P1_6 P 0.94738(39) 0.24039(27) 0.2453(13) 0.0314 Uiso
O1_6 O 0.9469(6) 0.1893(4) 0.1846(28) 0.0314 Uiso
C1_6 C 0.88275(43) 0.22151(35) 0.3869(8) 0.0314 Uiso
C2_6 C 0.86774(20) 0.14275(17) 0.6211(16) 0.0314 Uiso
C3_6 C 0.86022(27) 0.22018(17) 0.7681(9) 0.0314 Uiso
O6_6 O 0.6688(8) 0.0583(5) 0.9503(18) 0.0314 Uiso
N2_6 N 0.77689(24) 0.12858(15) 0.7297(8) 0.0314 Uiso
C4_6 C 0.78391(43) 0.11183(35) 0.9465(8) 0.0314 Uiso
C5_6 C 0.79892(20) 0.19059(17) 0.7123(16) 0.0314 Uiso
C6_6 C 0.80644(27) 0.11316(17) 0.5653(9) 0.0314 Uiso
H5_6 H 0.847852 0.18729 0.309014 . .
H6_6 H 0.876204 0.256655 0.394498 . .
H7_6 H 0.876783 0.264593 0.767811 . .
H8_6 H 0.865803 0.207163 0.92198 . .
H9_6 H 0.873084 0.132351 0.779933 . .
H10_6 H 0.889772 0.13053 0.513229 . .
H11_6 H 0.790463 0.0766784 0.938835 . .
H13_6 H 0.793583 0.200983 0.5534 . .
H14_6 H 0.776895 0.202803 0.820104 . .
H15_6 H 0.789884 0.06874 0.565522 . .
H16_6 H 0.800863 0.12617 0.411353 . .
H4_5 H 0.527668 0.857331 0.00181551 . .
O14_6 O 0.5520(12) 0.8762(8) 0.881(4) 0.0385 Uiso
H3_5 H 0.575385 0.859468 0.85209 . .
C1_7 C 0.11183(35) 0.32791(25) 0.0535(8) 0.0314 Uiso
C2_7 C 0.19059(17) 0.39166(11) 0.2877(16) 0.0314 Uiso
C3_7 C 0.11316(17) 0.30671(21) 0.4347(9) 0.0314 Uiso
P2_7 P 0.24039(27) 0.29300(28) 0.7547(13) 0.0314 Uiso
O5_7 O 0.1893(4) 0.2423(5) 0.8154(28) 0.0314 Uiso
O14_7 O 0.4572(8) 0.3425(9) 0.547(4) 0.0385 Uiso
C4_7 C 0.22151(35) 0.33875(25) 0.6131(8) 0.0314 Uiso
C5_7 C 0.14275(17) 0.27500(11) 0.3789(16) 0.0314 Uiso
C6_7 C 0.22018(17) 0.35995(21) 0.2319(9) 0.0314 Uiso
H6_7 H 0.0766784 0.286216 0.0611646 . .
H7_7 H 0.06874 0.278856 0.434478 . .
H8_7 H 0.12617 0.325307 0.588647 . .
H9_7 H 0.200983 0.4074 0.4466 . .
H10_7 H 0.202803 0.425908 0.179896 . .
H11_7 H 0.256655 0.380451 0.605502 . .
H12_7 H 0.18729 0.339437 0.690986 . .
H13_7 H 0.132351 0.259267 0.220067 . .
H14_7 H 0.13053 0.240758 0.486771 . .
H15_7 H 0.264593 0.38781 0.232189 . .
H16_7 H 0.207163 0.34136 0.0780201 . .
P1_7 P 0.09295(27) 0.37366(28) 0.9119(13) 0.0314 Uiso
O1_7 O 0.1441(4) 0.4243(5) 0.8512(28) 0.0314 Uiso
H5_7 H 0.146044 0.327229 0.975681 . .
O4_7 O 0.8762(8) 0.3241(9) 0.119(4) 0.0385 Uiso
H1_3 H 0.871919 0.342776 0.243963 . .
H2_3 H 0.857331 0.329663 0.998184 . .
O14_8 O 0.6575(9) 0.1146(12) 0.547(4) 0.0385 Uiso
O4_8 O 0.6759(9) 0.5520(12) 0.119(4) 0.0385 Uiso
C1_8 C 0.67209(25) 0.78391(43) 0.0535(8) 0.0314 Uiso
C2_8 C 0.60834(11) 0.79892(20) 0.2877(16) 0.0314 Uiso
C3_8 C 0.69329(21) 0.80644(27) 0.4347(9) 0.0314 Uiso
P2_8 P 0.70700(28) 0.94738(39) 0.7547(13) 0.0314 Uiso
O5_8 O 0.7577(5) 0.9469(6) 0.8154(28) 0.0314 Uiso
C4_8 C 0.66125(25) 0.88275(43) 0.6131(8) 0.0314 Uiso
C5_8 C 0.72500(11) 0.86774(20) 0.3789(16) 0.0314 Uiso
C6_8 C 0.64005(21) 0.86022(27) 0.2319(9) 0.0314 Uiso
H1_4 H 0.657224 0.529143 0.243963 . .
H6_8 H 0.713784 0.790463 0.0611646 . .
H7_8 H 0.721144 0.789884 0.434478 . .
H8_8 H 0.674693 0.800863 0.588647 . .
H9_8 H 0.5926 0.793583 0.4466 . .
H10_8 H 0.574092 0.776895 0.179896 . .
H11_8 H 0.619549 0.876204 0.605502 . .
H12_8 H 0.660563 0.847852 0.690986 . .
H13_8 H 0.740733 0.873084 0.220067 . .
H14_8 H 0.759242 0.889772 0.486771 . .
H15_8 H 0.61219 0.876783 0.232189 . .
H16_8 H 0.65864 0.865803 0.0780201 . .
P1_8 P 0.62634(28) 0.71928(39) 0.9119(13) 0.0314 Uiso
O1_8 O 0.5757(5) 0.7197(6) 0.8512(28) 0.0314 Uiso
H2_4 H 0.670337 0.527668 0.998184 . .
H5_8 H 0.672771 0.818814 0.975681 . .
O4_9 O 0.4480(12) 0.1238(8) 0.119(4) 0.0385 Uiso
H1_5 H 0.470857 0.128081 0.243963 . .
H2_5 H 0.472332 0.142669 0.998184 . .
C1_9 C 0.21609(43) 0.88817(35) 0.0535(8) 0.0314 Uiso
C2_9 C 0.20108(20) 0.80941(17) 0.2877(16) 0.0314 Uiso
C3_9 C 0.19356(27) 0.88684(17) 0.4347(9) 0.0314 Uiso
P2_9 P 0.05262(39) 0.75961(27) 0.7547(13) 0.0314 Uiso
O5_9 O 0.0531(6) 0.8107(4) 0.8154(28) 0.0314 Uiso
C4_9 C 0.11725(43) 0.77849(35) 0.6131(8) 0.0314 Uiso
C5_9 C 0.13226(20) 0.85725(17) 0.3789(16) 0.0314 Uiso
C6_9 C 0.13978(27) 0.77982(17) 0.2319(9) 0.0314 Uiso
H6_9 H 0.209537 0.923322 0.0611646 . .
H7_9 H 0.210116 0.93126 0.434478 . .
H8_9 H 0.199137 0.87383 0.588647 . .
H9_9 H 0.206417 0.799017 0.4466 . .
H10_9 H 0.223105 0.797197 0.179896 . .
H11_9 H 0.123796 0.743345 0.605502 . .
H12_9 H 0.152148 0.81271 0.690986 . .
H13_9 H 0.126916 0.867649 0.220067 . .
H14_9 H 0.110228 0.86947 0.486771 . .
H15_9 H 0.123217 0.735407 0.232189 . .
H16_9 H 0.134197 0.792837 0.0780201 . .
P1_9 P 0.28072(39) 0.90705(27) 0.9119(13) 0.0314 Uiso
O1_9 O 0.2803(6) 0.8559(4) 0.8512(28) 0.0314 Uiso
H5_9 H 0.181186 0.853956 0.975681 . .
O14_9 O 0.8854(12) 0.5428(8) 0.547(4) 0.0385 Uiso
H1_6 H 0.794748 0.990557 0.0893705 . .
H3_6 H 0.192801 0.950749 0.814577 . .
H1_7 H 0.00944263 0.80419 0.0893705 . .
H3_7 H 0.0492505 0.242052 0.814577 . .
H3_8 H 0.859468 0.284083 0.14791 . .
H3_9 H 0.715917 0.575385 0.14791 . .
H3_10 H 0.424615 0.140532 0.14791 . .
H1_8 H 0.128081 0.657224 0.756037 . .
H1_9 H 0.342776 0.470857 0.756037 . .
H1_10 H 0.529143 0.871919 0.756037 . .
loop_
_geom_bond_atom_site_label_1
_geom_bond_atom_site_label_2
_geom_bond_site_symmetry_1
_geom_bond_site_symmetry_2
Fe3 O10 1_555 1_555
Fe8 O13 1_555 1_555
O14 H3 1_555 1_555
O14 H4 1_555 1_555
C4 H11 1_555 1_555
C4 H12 1_555 1_555
Fe1 O2 1_555 1_555
P1 O1 1_555 1_555
O2 P1 1_555 1_555
O3 P1 1_555 1_555
C2 N1 1_555 1_555
Fe3 O3 1_555 1_555
O7 Fe1 1_555 1_555
N3 Fe1 1_555 1_555
C6 C2 1_555 1_555
C2 H10 1_555 1_555
C6 H15 1_555 1_555
C6 H16 1_555 1_555
Fe2 O6 1_555 1_555
Fe7 O9 1_555 1_555
P2 O5 1_555 1_555
O6 P2 1_555 1_555
O8 Fe2 1_555 1_555
N4 Fe2 1_555 1_555
C5 C3 1_555 1_555
P2 O9 1_555 1_555
N2 C5 1_555 1_555
C3 H7 1_555 1_555
C3 H8 1_555 1_555
C5 H14 1_555 1_555
Fe5 O11 1_555 1_555
Fe7 O12 1_555 1_555
O4 H2 1_555 1_555
C1 H5 1_555 1_555
C1 H6 1_555 1_555
Fe2_2 O6_2 1_555 1_555
Fe7_2 O9_2 1_555 1_555
P2_2 O5_2 1_555 1_555
O6_2 P2_2 1_555 1_555
O8_2 Fe2_2 1_555 1_555
N4_2 Fe2_2 1_555 1_555
C5_2 C3_2 1_555 1_555
P2_2 O9_2 1_555 1_555
N2_2 C5_2 1_555 1_555
C3_2 H7_2 1_555 1_555
C3_2 H8_2 1_555 1_555
C5_2 H14_2 1_555 1_555
Fe5_2 O11_2 1_555 1_555
Fe7_2 O12_2 1_555 1_555
O4_2 H2_2 1_555 1_555
C1_2 H5_2 1_555 1_555
C1_2 H6_2 1_555 1_555
Fe3_2 O10_2 1_555 1_555
Fe8_2 O13_2 1_555 1_555
O14_2 H3_2 1_555 1_555
O14_2 H4_2 1_555 1_555
C4_2 H11_2 1_555 1_555
C4_2 H12_2 1_555 1_555
Fe1_2 O2_2 1_555 1_555
P1_2 O1_2 1_555 1_555
O2_2 P1_2 1_555 1_555
O3_2 P1_2 1_555 1_555
C2_2 N1_2 1_555 1_555
Fe3_2 O3_2 1_555 1_555
O7_2 Fe1_2 1_555 1_555
N3_2 Fe1_2 1_555 1_555
C6_2 C2_2 1_555 1_555
C2_2 H10_2 1_555 1_555
C6_2 H15_2 1_555 1_555
C6_2 H16_2 1_555 1_555
Fe2_3 O6_3 1_555 1_555
Fe7_3 O9_3 1_555 1_555
Fe8_3 O8_3 1_555 1_555
P2_3 O5_3 1_555 1_555
O6_3 P2_3 1_555 1_555
O8_3 Fe2_3 1_555 1_555
O9_3 Fe8_3 1_555 1_555
O13_3 Fe2_3 1_555 1_555
O14_3 Fe2_3 1_555 1_555
N4_3 Fe2_3 1_555 1_555
C4_3 P2_3 1_555 1_555
C5_3 C3_3 1_555 1_555
Fe3_3 O10_3 1_555 1_555
Fe8_3 O13_3 1_555 1_555
P2_3 O9_3 1_555 1_555
N2_3 C4_3 1_555 1_555
N2_3 C5_3 1_555 1_555
C3_3 H7_3 1_555 1_555
C3_3 H8_3 1_555 1_555
C4_3 H11_3 1_555 1_555
C4_3 H12_3 1_555 1_555
C5_3 H14_3 1_555 1_555
Fe1_3 O2_3 1_555 1_555
P1_3 O1_3 1_555 1_555
O2_3 P1_3 1_555 1_555
O3_3 P1_3 1_555 1_555
O4_3 Fe1_3 1_555 1_555
N1_3 C1_3 1_555 1_555
C1_3 P1_3 1_555 1_555
C2_3 N1_3 1_555 1_555
Fe3_3 O3_3 1_555 1_555
Fe5_3 O3_3 1_555 1_555
O7_3 Fe1_3 1_555 1_555
O11_3 Fe1_3 1_555 1_555
N3_3 Fe1_3 1_555 1_555
C6_3 C2_3 1_555 1_555
Fe5_3 O7_3 1_555 1_555
Fe5_3 O11_3 1_555 1_555
Fe7_3 O12_3 1_555 1_555
C1_3 H5_3 1_555 1_555
C1_3 H6_3 1_555 1_555
C2_3 H10_3 1_555 1_555
C6_3 H15_3 1_555 1_555
C6_3 H16_3 1_555 1_555
O14_4 Fe7_2 1_555 1_555
O14_4 H3_3 1_555 1_555
P2_4 O5_4 1_555 1_555
P2_4 O13_2 1_555 1_555
P1_4 O1_4 1_555 1_555
O7_3 P1_4 1_555 1_555
O10_3 P1_4 1_555 1_555
O4_4 Fe5_3 1_555 1_555
N3_3 C1_4 1_555 1_555
C1_4 P1_4 1_555 1_555
C2_4 N3_3 1_555 1_555
C3_4 N3_3 1_555 1_555
Fe8_2 O6_4 1_555 1_555
O7_4 Fe5_3 1_555 1_555
N2_4 Fe8_2 1_555 1_555
N3_4 Fe5_3 1_555 1_555
C5_4 C3_4 1_555 1_555
C6_4 C2_4 1_555 1_555
Fe3_3 O7_4 1_555 1_555
N2_4 C4_4 1_555 1_555
N2_4 C5_4 1_555 1_555
N2_4 C6_4 1_555 1_555
C1_4 H5_4 1_555 1_555
C1_4 H6_4 1_555 1_555
C3_4 H7_4 1_555 1_555
C3_4 H8_4 1_555 1_555
C2_4 H9_4 1_555 1_555
C2_4 H10_4 1_555 1_555
C4_4 H11_4 1_555 1_555
C5_4 H13_4 1_555 1_555
C5_4 H14_4 1_555 1_555
C6_4 H15_4 1_555 1_555
C6_4 H16_4 1_555 1_555
P2_5 O5_5 1_555 1_555
P2_5 O13_3 1_555 1_555
P1_5 O1_5 1_555 1_555
O7 P1_5 1_555 1_555
O10 P1_5 1_555 1_555
N3 C1_5 1_555 1_555
C1_5 P1_5 1_555 1_555
C2_5 N3 1_555 1_555
C3_5 N3 1_555 1_555
Fe7_3 O6_5 1_555 1_555
Fe8_3 O6_5 1_555 1_555
O14_5 Fe7_3 1_555 1_555
N2_5 Fe8_3 1_555 1_555
C5_5 C3_5 1_555 1_555
C6_5 C2_5 1_555 1_555
N2_5 C4_5 1_555 1_555
N2_5 C5_5 1_555 1_555
N2_5 C6_5 1_555 1_555
O14_5 H3_4 1_555 1_555
C1_5 H5_5 1_555 1_555
C1_5 H6_5 1_555 1_555
C3_5 H7_5 1_555 1_555
C3_5 H8_5 1_555 1_555
C2_5 H9_5 1_555 1_555
C2_5 H10_5 1_555 1_555
C4_5 H11_5 1_555 1_555
C5_5 H13_5 1_555 1_555
C5_5 H14_5 1_555 1_555
C6_5 H15_5 1_555 1_555
C6_5 H16_5 1_555 1_555
O4_5 Fe5 1_555 1_555
O7_5 Fe5 1_555 1_555
N3_5 Fe5 1_555 1_555
O4_6 Fe5_2 1_555 1_555
O7_6 Fe5_2 1_555 1_555
N3_6 Fe5_2 1_555 1_555
P2_6 O5_6 1_555 1_555
P2_6 O13 1_555 1_555
P1_6 O1_6 1_555 1_555
O7_2 P1_6 1_555 1_555
O10_2 P1_6 1_555 1_555
N3_2 C1_6 1_555 1_555
C1_6 P1_6 1_555 1_555
C2_6 N3_2 1_555 1_555
C3_6 N3_2 1_555 1_555
Fe8 O6_6 1_555 1_555
N2_6 Fe8 1_555 1_555
C5_6 C3_6 1_555 1_555
C6_6 C2_6 1_555 1_555
N2_6 C4_6 1_555 1_555
N2_6 C5_6 1_555 1_555
N2_6 C6_6 1_555 1_555
C1_6 H5_6 1_555 1_555
C1_6 H6_6 1_555 1_555
C3_6 H7_6 1_555 1_555
C3_6 H8_6 1_555 1_555
C2_6 H9_6 1_555 1_555
C2_6 H10_6 1_555 1_555
C4_6 H11_6 1_555 1_555
C5_6 H13_6 1_555 1_555
C5_6 H14_6 1_555 1_555
C6_6 H15_6 1_555 1_555
C6_6 H16_6 1_555 1_555
O14_6 Fe7 1_555 1_555
O14_6 H3_5 1_555 1_555
N3_6 C1_7 1_555 1_555
C2_7 N3_6 1_555 1_555
C3_7 N3_6 1_555 1_555
P2_7 O5_7 1_555 1_555
O8_3 P2_7 1_555 1_555
O14_7 Fe8_3 1_555 1_555
C4_7 P2_7 1_555 1_555
C5_7 C3_7 1_555 1_555
C6_7 C2_7 1_555 1_555
P2_7 O12_3 1_555 1_555
N4_3 C4_7 1_555 1_555
N4_3 C5_7 1_555 1_555
N4_3 C6_7 1_555 1_555
C1_7 H6_7 1_555 1_555
C3_7 H7_7 1_555 1_555
C3_7 H8_7 1_555 1_555
C2_7 H9_7 1_555 1_555
C2_7 H10_7 1_555 1_555
C4_7 H11_7 1_555 1_555
C4_7 H12_7 1_555 1_555
C5_7 H13_7 1_555 1_555
C5_7 H14_7 1_555 1_555
C6_7 H15_7 1_555 1_555
C6_7 H16_7 1_555 1_555
P1_7 O1_7 1_555 1_555
O11_2 P1_7 1_555 1_555
O4_7 Fe3_2 1_555 1_555
O4_7 H1_3 1_555 1_555
O14_8 Fe8 1_555 1_555
O4_8 Fe3_3 1_555 1_555
N3_4 C1_8 1_555 1_555
C2_8 N3_4 1_555 1_555
C3_8 N3_4 1_555 1_555
P2_8 O5_8 1_555 1_555
O8 P2_8 1_555 1_555
C4_8 P2_8 1_555 1_555
C5_8 C3_8 1_555 1_555
C6_8 C2_8 1_555 1_555
P2_8 O12 1_555 1_555
N4 C4_8 1_555 1_555
N4 C5_8 1_555 1_555
N4 C6_8 1_555 1_555
O4_8 H1_4 1_555 1_555
C1_8 H6_8 1_555 1_555
C3_8 H7_8 1_555 1_555
C3_8 H8_8 1_555 1_555
C2_8 H9_8 1_555 1_555
C2_8 H10_8 1_555 1_555
C4_8 H11_8 1_555 1_555
C4_8 H12_8 1_555 1_555
C5_8 H13_8 1_555 1_555
C5_8 H14_8 1_555 1_555
C6_8 H15_8 1_555 1_555
C6_8 H16_8 1_555 1_555
P1_8 O1_8 1_555 1_555
O11_3 P1_8 1_555 1_555
O4_9 Fe3 1_555 1_555
O4_9 H1_5 1_555 1_555
N3_5 C1_9 1_555 1_555
C2_9 N3_5 1_555 1_555
C3_9 N3_5 1_555 1_555
P2_9 O5_9 1_555 1_555
O8_2 P2_9 1_555 1_555
C4_9 P2_9 1_555 1_555
C5_9 C3_9 1_555 1_555
C6_9 C2_9 1_555 1_555
P2_9 O12_2 1_555 1_555
N4_2 C4_9 1_555 1_555
N4_2 C5_9 1_555 1_555
N4_2 C6_9 1_555 1_555
C1_9 H6_9 1_555 1_555
C3_9 H7_9 1_555 1_555
C3_9 H8_9 1_555 1_555
C2_9 H9_9 1_555 1_555
C2_9 H10_9 1_555 1_555
C4_9 H11_9 1_555 1_555
C4_9 H12_9 1_555 1_555
C5_9 H13_9 1_555 1_555
C5_9 H14_9 1_555 1_555
C6_9 H15_9 1_555 1_555
C6_9 H16_9 1_555 1_555
P1_9 O1_9 1_555 1_555
O11 P1_9 1_555 1_555
O14_9 Fe8_2 1_555 1_555
O4 H3_6 1_555 1_555
O4_2 H3_7 1_555 1_555
O4_7 H3_8 1_555 1_555
O4_8 H3_9 1_555 1_555
O4_9 H3_10 1_555 1_555
O14_4 H1_8 1_555 1_555
O14_5 H1_9 1_555 1_555
O14_6 H1_10 1_555 1_555

#END
