
###############################################################################
#
# This file contains modified crystal structure data generated from the
# MOF subset of the Cambridge Structural Database (CSD) v543 
# hosted by the Cambridge Crystallographic Data Centre (CCDC).
#
# This work is licensed under the Creative Commons
# Attribution-NonCommercial-ShareAlike 4.0 International License.
# To view a copy of this license, visit
# http://creativecommons.org/licenses/by-nc-sa/4.0/
# or send a letter to
# Creative Commons, PO Box 1866, Mountain View, CA 94042, USA.
#
# CIF created using the CSD Python API on 29 September 2022
# The structure has been converted into the P1 space group
# The structure has a 3D framework
# The original CSD entry XESKEN is in the rhombohedral crystal system
# The framework has been calculated to contain at least 10.0% void space
# The void calculation uses a probe of radius 1.32A, grid spacing 0.4
# H atom positions have been added when not included in the experimental data
# Generated hydrogen atom positions removed from atoms on special positions
#
###############################################################################

data_XESKEN
_chemical_formula_moiety         '(C54 H180 Mg18 N18 O69 P18)n'
_symmetry_cell_setting           triclinic
_symmetry_space_group_name_H-M   'P 1'
_symmetry_Int_Tables_number      1
_space_group_name_Hall           'P 1'
loop_
_symmetry_equiv_pos_site_id
_symmetry_equiv_pos_as_xyz
1 x,y,z
_cell_length_a                   28.2453(10)
_cell_length_b                   28.2453(10)
_cell_length_c                   6.22022(17)
_cell_angle_alpha                90
_cell_angle_beta                 90
_cell_angle_gamma                120
_cell_volume                     4297.63
loop_
_atom_site_label
_atom_site_type_symbol
_atom_site_fract_x
_atom_site_fract_y
_atom_site_fract_z
_atom_site_U_iso_or_equiv
_atom_site_thermal_displace_type
P1 P 0.04042(21) 0.61565(20) 0.4133(7) 0.0246 Uiso
O1 O 0.09566(27) 0.62349(34) 0.4717(14) 0.0246 Uiso
O2 O 0.0499(4) 0.66230(26) 0.2638(11) 0.0246 Uiso
O3 O 0.01245(29) 0.6195(4) 0.6146(10) 0.0246 Uiso
N1 N 0.0036(5) 0.55181(26) 0.0439(13) 0.0246 Uiso
C3 C 0.05540(27) 0.5479(4) 0.0081(19) 0.0246 Uiso
Mg3 Mg 0.03103(27) 0.64076(25) 0.9327(10) 0.0246 Uiso
Mg7 Mg 0.02591(25) 0.72360(37) 0.2660(10) 0.0246 Uiso
C5 C 0.0458(4) 0.4926(5) 0.0753(15) 0.0246 Uiso
H5 H 0.0887312 0.579316 0.102885 . .
H13 H 0.0382857 0.487503 0.247755 . .
H14 H 0.0817238 0.489419 0.0368749 . .
O4 O 0.1143(4) 0.66541(32) 0.8507(15) 0.0320 Uiso
Mg6 Mg 0.05694(37) 0.36436(27) 0.4006(10) 0.0246 Uiso
O8 O 0.05427(48) 0.3832(4) 0.0695(11) 0.0246 Uiso
O12 O 0.0472(4) 0.72628(49) 0.9479(10) 0.0246 Uiso
C4 C 0.0069(4) 0.45088(29) 0.7170(12) 0.0246 Uiso
H6 H 0.066269 0.554216 0.838371 . .
H9 H 0.000726866 0.482701 0.646742 . .
H10 H 0.0488948 0.460583 0.689654 . .
C1 C 0.9931(4) 0.54912(29) 0.2830(12) 0.0246 Uiso
Mg4 Mg 0.96897(27) 0.35924(25) 0.0673(10) 0.0246 Uiso
Mg5 Mg 0.94306(37) 0.63564(27) 0.5994(10) 0.0246 Uiso
H11 H 0.951105 0.539417 0.310346 . .
H12 H 0.999273 0.517299 0.353258 . .
H16 H 0.933731 0.445784 0.161629 . .
C2 C 0.9542(4) 0.5074(5) 0.9247(15) 0.0246 Uiso
Mg8 Mg 0.97409(25) 0.27640(37) 0.7340(10) 0.0246 Uiso
P2 P 0.95958(21) 0.38435(20) 0.5867(7) 0.0246 Uiso
O5 O 0.90434(27) 0.37651(34) 0.5283(14) 0.0246 Uiso
O6 O 0.9501(4) 0.33770(26) 0.7362(11) 0.0246 Uiso
O7 O 0.94573(48) 0.6168(4) 0.9305(11) 0.0246 Uiso
O10 O 0.98755(29) 0.3805(4) 0.3854(10) 0.0246 Uiso
O13 O 0.9528(4) 0.27372(49) 0.0521(10) 0.0246 Uiso
O14 O 0.8857(4) 0.33459(32) 0.1493(15) 0.0320 Uiso
N2 N 0.9964(5) 0.44819(26) 0.9561(13) 0.0246 Uiso
C6 C 0.94460(27) 0.4521(4) 0.9919(19) 0.0246 Uiso
H3 H 0.961714 0.512497 0.752245 . .
H4 H 0.918276 0.510581 0.963125 . .
H15 H 0.911269 0.420684 0.897115 . .
P1_2 P 0.38435(20) 0.42477(29) 0.4133(7) 0.0246 Uiso
O1_2 O 0.37651(34) 0.47217(43) 0.4717(14) 0.0246 Uiso
O2_2 O 0.33770(26) 0.38760(48) 0.2638(11) 0.0246 Uiso
O3_2 O 0.3805(4) 0.39295(49) 0.6146(10) 0.0246 Uiso
N1_2 N 0.44819(26) 0.45179(56) 0.0439(13) 0.0246 Uiso
C1_2 C 0.45088(29) 0.44398(49) 0.2830(12) 0.0246 Uiso
C3_2 C 0.4521(4) 0.50750(48) 0.0081(19) 0.0246 Uiso
Mg3_2 Mg 0.35924(25) 0.39027(37) 0.9327(10) 0.0246 Uiso
Mg4_2 Mg 0.64076(25) 0.60973(37) 0.0673(10) 0.0246 Uiso
Mg5_2 Mg 0.36436(27) 0.30743(46) 0.5994(10) 0.0246 Uiso
Mg7_2 Mg 0.27640(37) 0.30230(45) 0.2660(10) 0.0246 Uiso
C5_2 C 0.5074(5) 0.5532(6) 0.0753(15) 0.0246 Uiso
H5_2 H 0.420684 0.509416 0.102885 . .
H11_2 H 0.460583 0.411689 0.310346 . .
H12_2 H 0.482701 0.481974 0.353258 . .
H13_2 H 0.512497 0.550783 0.247755 . .
H14_2 H 0.510581 0.592304 0.0368749 . .
H16_2 H 0.554216 0.487947 0.161629 . .
O4_2 O 0.33459(32) 0.44889(51) 0.8507(15) 0.0320 Uiso
C2_2 C 0.4926(5) 0.4468(6) 0.9247(15) 0.0246 Uiso
Mg6_2 Mg 0.63564(27) 0.69257(46) 0.4006(10) 0.0246 Uiso
Mg8_2 Mg 0.72360(37) 0.69770(45) 0.7340(10) 0.0246 Uiso
P2_2 P 0.61565(20) 0.57523(29) 0.5867(7) 0.0246 Uiso
O5_2 O 0.62349(34) 0.52783(43) 0.5283(14) 0.0246 Uiso
O6_2 O 0.66230(26) 0.61240(48) 0.7362(11) 0.0246 Uiso
O7_2 O 0.3832(4) 0.32897(62) 0.9305(11) 0.0246 Uiso
O8_2 O 0.6168(4) 0.67103(62) 0.0695(11) 0.0246 Uiso
O10_2 O 0.6195(4) 0.60705(49) 0.3854(10) 0.0246 Uiso
O12_2 O 0.27372(49) 0.32088(63) 0.9479(10) 0.0246 Uiso
O13_2 O 0.72628(49) 0.67912(63) 0.0521(10) 0.0246 Uiso
O14_2 O 0.66541(32) 0.55111(51) 0.1493(15) 0.0320 Uiso
N2_2 N 0.55181(26) 0.54821(56) 0.9561(13) 0.0246 Uiso
C4_2 C 0.54912(29) 0.55602(49) 0.7170(12) 0.0246 Uiso
C6_2 C 0.5479(4) 0.49250(48) 0.9919(19) 0.0246 Uiso
H3_2 H 0.487503 0.449217 0.752245 . .
H4_2 H 0.489419 0.407696 0.963125 . .
H6_2 H 0.445784 0.512053 0.838371 . .
H9_2 H 0.517299 0.518026 0.646742 . .
H10_2 H 0.539417 0.588311 0.689654 . .
H15_2 H 0.579316 0.490584 0.897115 . .
C1_3 C 0.55602(49) 0.0069(4) 0.2830(12) 0.0246 Uiso
Mg4_3 Mg 0.39027(37) 0.03103(27) 0.0673(10) 0.0246 Uiso
Mg5_3 Mg 0.69257(46) 0.05694(37) 0.5994(10) 0.0246 Uiso
H11_3 H 0.588311 0.0488948 0.310346 . .
H12_3 H 0.518026 0.000726866 0.353258 . .
H16_3 H 0.512053 0.066269 0.161629 . .
C2_3 C 0.5532(6) 0.0458(4) 0.9247(15) 0.0246 Uiso
Mg8_3 Mg 0.30230(45) 0.02591(25) 0.7340(10) 0.0246 Uiso
P2_3 P 0.42477(29) 0.04042(21) 0.5867(7) 0.0246 Uiso
O5_3 O 0.47217(43) 0.09566(27) 0.5283(14) 0.0246 Uiso
O6_3 O 0.38760(48) 0.0499(4) 0.7362(11) 0.0246 Uiso
O7_3 O 0.67103(62) 0.05427(48) 0.9305(11) 0.0246 Uiso
O10_3 O 0.39295(49) 0.01245(29) 0.3854(10) 0.0246 Uiso
O13_3 O 0.32088(63) 0.0472(4) 0.0521(10) 0.0246 Uiso
O14_3 O 0.44889(51) 0.1143(4) 0.1493(15) 0.0320 Uiso
N2_3 N 0.45179(56) 0.0036(5) 0.9561(13) 0.0246 Uiso
C6_3 C 0.50750(48) 0.05540(27) 0.9919(19) 0.0246 Uiso
H3_3 H 0.550783 0.0382857 0.752245 . .
H4_3 H 0.592304 0.0817238 0.963125 . .
H15_3 H 0.509416 0.0887312 0.897115 . .
P1_3 P 0.57523(29) 0.95958(21) 0.4133(7) 0.0246 Uiso
O1_3 O 0.52783(43) 0.90434(27) 0.4717(14) 0.0246 Uiso
O2_3 O 0.61240(48) 0.9501(4) 0.2638(11) 0.0246 Uiso
O3_3 O 0.60705(49) 0.98755(29) 0.6146(10) 0.0246 Uiso
N1_3 N 0.54821(56) 0.9964(5) 0.0439(13) 0.0246 Uiso
C3_3 C 0.49250(48) 0.94460(27) 0.0081(19) 0.0246 Uiso
Mg3_3 Mg 0.60973(37) 0.96897(27) 0.9327(10) 0.0246 Uiso
Mg7_3 Mg 0.69770(45) 0.97409(25) 0.2660(10) 0.0246 Uiso
C5_3 C 0.4468(6) 0.9542(4) 0.0753(15) 0.0246 Uiso
H5_3 H 0.490584 0.911269 0.102885 . .
H13_3 H 0.449217 0.961714 0.247755 . .
H14_3 H 0.407696 0.918276 0.0368749 . .
O4_3 O 0.55111(51) 0.8857(4) 0.8507(15) 0.0320 Uiso
Mg6_3 Mg 0.30743(46) 0.94306(37) 0.4006(10) 0.0246 Uiso
O8_3 O 0.32897(62) 0.94573(48) 0.0695(11) 0.0246 Uiso
O12_3 O 0.67912(63) 0.9528(4) 0.9479(10) 0.0246 Uiso
C4_3 C 0.44398(49) 0.9931(4) 0.7170(12) 0.0246 Uiso
H6_3 H 0.487947 0.933731 0.838371 . .
H9_3 H 0.481974 0.999273 0.646742 . .
H10_3 H 0.411689 0.951105 0.689654 . .
P1_4 P 0.37375(21) 0.28232(20) 0.0800(7) 0.0246 Uiso
O1_4 O 0.42899(27) 0.29016(34) 0.1384(14) 0.0246 Uiso
O3_4 O 0.34578(29) 0.2862(4) 0.2813(10) 0.0246 Uiso
H12_4 H 0.332606 0.183966 0.0199245 . .
O4_4 O 0.4476(4) 0.33208(32) 0.5174(15) 0.0320 Uiso
N1_4 N 0.3369(5) 0.21848(26) 0.7106(13) 0.0246 Uiso
C1_4 C 0.3264(4) 0.21579(29) 0.9497(12) 0.0246 Uiso
C2_4 C 0.2875(4) 0.1741(5) 0.5914(15) 0.0246 Uiso
C3_4 C 0.38873(27) 0.2146(4) 0.6748(19) 0.0246 Uiso
P2_4 P 0.29291(21) 0.05102(20) 0.2534(7) 0.0246 Uiso
O5_4 O 0.23767(27) 0.04318(34) 0.1950(14) 0.0246 Uiso
O6_4 O 0.2834(4) 0.00437(26) 0.4029(11) 0.0246 Uiso
O7_4 O 0.27907(48) 0.2834(4) 0.5971(11) 0.0246 Uiso
N2_4 N 0.3297(5) 0.11486(26) 0.6228(13) 0.0246 Uiso
C4_4 C 0.3402(4) 0.11755(29) 0.3837(12) 0.0246 Uiso
C5_4 C 0.3791(4) 0.1593(5) 0.7420(15) 0.0246 Uiso
C6_4 C 0.27793(27) 0.1188(4) 0.6586(19) 0.0246 Uiso
H3_4 H 0.295048 0.179164 0.418912 . .
H4_4 H 0.25161 0.177247 0.629792 . .
H5_4 H 0.422065 0.245982 0.769551 . .
H6_4 H 0.399602 0.220883 0.505037 . .
H9_4 H 0.33406 0.149367 0.313409 . .
H10_4 H 0.382228 0.12725 0.356321 . .
H11_4 H 0.284439 0.206083 0.977012 . .
H13_4 H 0.371619 0.154169 0.914422 . .
H14_4 H 0.415057 0.156086 0.703542 . .
H15_4 H 0.244602 0.0873512 0.563782 . .
H16_4 H 0.267064 0.11245 0.828296 . .
O14_4 O 0.2190(4) 0.00126(32) 0.8160(15) 0.0320 Uiso
O13_4 O 0.2862(4) 0.94038(49) 0.7187(10) 0.0246 Uiso
H8 H 0.198012 0.997278 0.682657 . .
O13_5 O 0.05962(49) 0.34578(63) 0.7187(10) 0.0246 Uiso
H8_2 H 0.00272174 0.200734 0.682657 . .
P1_5 P 0.71768(20) 0.09144(29) 0.0800(7) 0.0246 Uiso
O1_5 O 0.70984(34) 0.13884(43) 0.1384(14) 0.0246 Uiso
O3_5 O 0.7138(4) 0.05962(49) 0.2813(10) 0.0246 Uiso
H12_5 H 0.816034 0.148641 0.0199245 . .
O4_5 O 0.66792(32) 0.11556(51) 0.5174(15) 0.0320 Uiso
N1_5 N 0.78152(26) 0.11846(56) 0.7106(13) 0.0246 Uiso
C1_5 C 0.78421(29) 0.11065(49) 0.9497(12) 0.0246 Uiso
C2_5 C 0.8259(5) 0.1135(6) 0.5914(15) 0.0246 Uiso
C3_5 C 0.7854(4) 0.17417(48) 0.6748(19) 0.0246 Uiso
P2_5 P 0.94898(20) 0.24190(29) 0.2534(7) 0.0246 Uiso
O5_5 O 0.95682(34) 0.19450(43) 0.1950(14) 0.0246 Uiso
O6_5 O 0.99563(26) 0.27907(48) 0.4029(11) 0.0246 Uiso
N2_5 N 0.88514(26) 0.21488(56) 0.6228(13) 0.0246 Uiso
C4_5 C 0.88245(29) 0.22269(49) 0.3837(12) 0.0246 Uiso
C5_5 C 0.8407(5) 0.2199(6) 0.7420(15) 0.0246 Uiso
C6_5 C 0.8812(4) 0.15917(48) 0.6586(19) 0.0246 Uiso
H3_5 H 0.820836 0.115884 0.418912 . .
H4_5 H 0.822753 0.0743624 0.629792 . .
H5_5 H 0.754018 0.176082 0.769551 . .
H6_5 H 0.779117 0.178719 0.505037 . .
H9_5 H 0.850633 0.184693 0.313409 . .
H10_5 H 0.87275 0.254978 0.356321 . .
H11_5 H 0.793917 0.0783552 0.977012 . .
H13_5 H 0.845831 0.21745 0.914422 . .
H14_5 H 0.843914 0.258971 0.703542 . .
H15_5 H 0.912649 0.157251 0.563782 . .
H16_5 H 0.88755 0.154614 0.828296 . .
O14_5 O 0.99874(32) 0.21778(51) 0.8160(15) 0.0320 Uiso
O7_5 O 0.7166(4) 0.99563(62) 0.5971(11) 0.0246 Uiso
O7_6 O 0.00437(62) 0.72093(48) 0.5971(11) 0.0246 Uiso
P1_6 P 0.90856(29) 0.62625(21) 0.0800(7) 0.0246 Uiso
O1_6 O 0.86116(43) 0.57101(27) 0.1384(14) 0.0246 Uiso
O3_6 O 0.94038(49) 0.65422(29) 0.2813(10) 0.0246 Uiso
H12_6 H 0.851359 0.667394 0.0199245 . .
O4_6 O 0.88444(51) 0.5524(4) 0.5174(15) 0.0320 Uiso
N1_6 N 0.88154(56) 0.6631(5) 0.7106(13) 0.0246 Uiso
C1_6 C 0.88935(49) 0.6736(4) 0.9497(12) 0.0246 Uiso
C2_6 C 0.8865(6) 0.7125(4) 0.5914(15) 0.0246 Uiso
C3_6 C 0.82583(48) 0.61127(27) 0.6748(19) 0.0246 Uiso
P2_6 P 0.75810(29) 0.70709(21) 0.2534(7) 0.0246 Uiso
O5_6 O 0.80550(43) 0.76233(27) 0.1950(14) 0.0246 Uiso
O6_6 O 0.72093(48) 0.7166(4) 0.4029(11) 0.0246 Uiso
N2_6 N 0.78512(56) 0.6703(5) 0.6228(13) 0.0246 Uiso
C4_6 C 0.77731(49) 0.6598(4) 0.3837(12) 0.0246 Uiso
C5_6 C 0.7801(6) 0.6209(4) 0.7420(15) 0.0246 Uiso
C6_6 C 0.84083(48) 0.72207(27) 0.6586(19) 0.0246 Uiso
H3_6 H 0.884116 0.704952 0.418912 . .
H4_6 H 0.925638 0.74839 0.629792 . .
H5_6 H 0.823918 0.577935 0.769551 . .
H6_6 H 0.821281 0.600398 0.505037 . .
H9_6 H 0.815307 0.66594 0.313409 . .
H10_6 H 0.745022 0.617772 0.356321 . .
H11_6 H 0.921645 0.715561 0.977012 . .
H13_6 H 0.78255 0.628381 0.914422 . .
H14_6 H 0.741029 0.584943 0.703542 . .
H15_6 H 0.842749 0.755398 0.563782 . .
H16_6 H 0.845386 0.732936 0.828296 . .
O13_6 O 0.65422(63) 0.7138(4) 0.7187(10) 0.0246 Uiso
O14_6 O 0.78222(51) 0.7810(4) 0.8160(15) 0.0320 Uiso
P1_7 P 0.70709(21) 0.94898(20) 0.7466(7) 0.0246 Uiso
O1_7 O 0.76233(27) 0.95682(34) 0.8050(14) 0.0246 Uiso
O4_7 O 0.7810(4) 0.99874(32) 0.1840(15) 0.0320 Uiso
N1_7 N 0.6703(5) 0.88514(26) 0.3772(13) 0.0246 Uiso
C1_7 C 0.6598(4) 0.88245(29) 0.6163(12) 0.0246 Uiso
C2_7 C 0.6209(4) 0.8407(5) 0.2580(15) 0.0246 Uiso
C3_7 C 0.72207(27) 0.8812(4) 0.3414(19) 0.0246 Uiso
N2_7 N 0.6631(5) 0.78152(26) 0.2894(13) 0.0246 Uiso
C4_7 C 0.6736(4) 0.78421(29) 0.0503(12) 0.0246 Uiso
C5_7 C 0.7125(4) 0.8259(5) 0.4086(15) 0.0246 Uiso
C6_7 C 0.61127(27) 0.7854(4) 0.3252(19) 0.0246 Uiso
H3_7 H 0.628381 0.845831 0.0855783 . .
H4_7 H 0.584943 0.843914 0.296458 . .
H5_7 H 0.755398 0.912649 0.436218 . .
H6_7 H 0.732936 0.88755 0.171704 . .
H10_7 H 0.715561 0.793917 0.0229877 . .
H11_7 H 0.617772 0.87275 0.643679 . .
H12_7 H 0.66594 0.850633 0.686591 . .
H13_7 H 0.704952 0.820836 0.581088 . .
H14_7 H 0.74839 0.822753 0.370208 . .
H15_7 H 0.577935 0.754018 0.230449 . .
H16_7 H 0.600398 0.779117 0.494963 . .
P2_7 P 0.62625(21) 0.71768(20) 0.9200(7) 0.0246 Uiso
O5_7 O 0.57101(27) 0.70984(34) 0.8616(14) 0.0246 Uiso
O14_7 O 0.5524(4) 0.66792(32) 0.4826(15) 0.0320 Uiso
H9_7 H 0.667394 0.816034 0.980076 . .
P1_8 P 0.05102(20) 0.75810(29) 0.7466(7) 0.0246 Uiso
O1_8 O 0.04318(34) 0.80550(43) 0.8050(14) 0.0246 Uiso
O4_8 O 0.00126(32) 0.78222(51) 0.1840(15) 0.0320 Uiso
N1_8 N 0.11486(26) 0.78512(56) 0.3772(13) 0.0246 Uiso
C1_8 C 0.11755(29) 0.77731(49) 0.6163(12) 0.0246 Uiso
C2_8 C 0.1593(5) 0.7801(6) 0.2580(15) 0.0246 Uiso
C3_8 C 0.1188(4) 0.84083(48) 0.3414(19) 0.0246 Uiso
N2_8 N 0.21848(26) 0.88154(56) 0.2894(13) 0.0246 Uiso
C4_8 C 0.21579(29) 0.88935(49) 0.0503(12) 0.0246 Uiso
C5_8 C 0.1741(5) 0.8865(6) 0.4086(15) 0.0246 Uiso
C6_8 C 0.2146(4) 0.82583(48) 0.3252(19) 0.0246 Uiso
H3_8 H 0.154169 0.78255 0.0855783 . .
H4_8 H 0.156086 0.741029 0.296458 . .
H5_8 H 0.0873512 0.842749 0.436218 . .
H6_8 H 0.11245 0.845386 0.171704 . .
H10_8 H 0.206083 0.921645 0.0229877 . .
H11_8 H 0.12725 0.745022 0.643679 . .
H12_8 H 0.149367 0.815307 0.686591 . .
H13_8 H 0.179164 0.884116 0.581088 . .
H14_8 H 0.177247 0.925638 0.370208 . .
H15_8 H 0.245982 0.823918 0.230449 . .
H16_8 H 0.220883 0.821281 0.494963 . .
P2_8 P 0.28232(20) 0.90856(29) 0.9200(7) 0.0246 Uiso
O5_8 O 0.29016(34) 0.86116(43) 0.8616(14) 0.0246 Uiso
O14_8 O 0.33208(32) 0.88444(51) 0.4826(15) 0.0320 Uiso
H9_8 H 0.183966 0.851359 0.980076 . .
P1_9 P 0.24190(29) 0.29291(21) 0.7466(7) 0.0246 Uiso
O1_9 O 0.19450(43) 0.23767(27) 0.8050(14) 0.0246 Uiso
O4_9 O 0.21778(51) 0.2190(4) 0.1840(15) 0.0320 Uiso
N1_9 N 0.21488(56) 0.3297(5) 0.3772(13) 0.0246 Uiso
C1_9 C 0.22269(49) 0.3402(4) 0.6163(12) 0.0246 Uiso
C2_9 C 0.2199(6) 0.3791(4) 0.2580(15) 0.0246 Uiso
C3_9 C 0.15917(48) 0.27793(27) 0.3414(19) 0.0246 Uiso
N2_9 N 0.11846(56) 0.3369(5) 0.2894(13) 0.0246 Uiso
C4_9 C 0.11065(49) 0.3264(4) 0.0503(12) 0.0246 Uiso
C5_9 C 0.1135(6) 0.2875(4) 0.4086(15) 0.0246 Uiso
C6_9 C 0.17417(48) 0.38873(27) 0.3252(19) 0.0246 Uiso
H3_9 H 0.21745 0.371619 0.0855783 . .
H4_9 H 0.258971 0.415057 0.296458 . .
H5_9 H 0.157251 0.244602 0.436218 . .
H6_9 H 0.154614 0.267064 0.171704 . .
H10_9 H 0.0783552 0.284439 0.0229877 . .
H11_9 H 0.254978 0.382228 0.643679 . .
H12_9 H 0.184693 0.33406 0.686591 . .
H13_9 H 0.115884 0.295048 0.581088 . .
H14_9 H 0.0743624 0.25161 0.370208 . .
H15_9 H 0.176082 0.422065 0.230449 . .
H16_9 H 0.178719 0.399602 0.494963 . .
P2_9 P 0.09144(29) 0.37375(21) 0.9200(7) 0.0246 Uiso
O5_9 O 0.13884(43) 0.42899(27) 0.8616(14) 0.0246 Uiso
O14_9 O 0.11556(51) 0.4476(4) 0.4826(15) 0.0320 Uiso
H9_9 H 0.148641 0.332606 0.980076 . .
H8_3 H 0.801988 0.00272174 0.317343 . .
H8_4 H 0.997278 0.799266 0.317343 . .
loop_
_geom_bond_atom_site_label_1
_geom_bond_atom_site_label_2
_geom_bond_site_symmetry_1
_geom_bond_site_symmetry_2
P1 O1 1_555 1_555
O2 P1 1_555 1_555
O3 P1 1_555 1_555
C3 N1 1_555 1_555
Mg3 O3 1_555 1_555
Mg7 O2 1_555 1_555
C5 C3 1_555 1_555
C3 H5 1_555 1_555
C5 H13 1_555 1_555
C5 H14 1_555 1_555
O4 Mg3 1_555 1_555
Mg6 O8 1_555 1_555
O12 Mg3 1_555 1_555
C4 H9 1_555 1_555
C4 H10 1_555 1_555
C1 H11 1_555 1_555
C1 H12 1_555 1_555
Mg8 O6 1_555 1_555
P2 O5 1_555 1_555
O6 P2 1_555 1_555
O10 Mg4 1_555 1_555
O13 Mg4 1_555 1_555
O14 Mg4 1_555 1_555
C6 C2 1_555 1_555
P2 O10 1_555 1_555
N2 C6 1_555 1_555
C2 H3 1_555 1_555
C2 H4 1_555 1_555
C6 H15 1_555 1_555
P1_2 O1_2 1_555 1_555
O2_2 P1_2 1_555 1_555
O3_2 P1_2 1_555 1_555
C1_2 P1_2 1_555 1_555
C3_2 N1_2 1_555 1_555
Mg3_2 O3_2 1_555 1_555
Mg5_2 O3_2 1_555 1_555
Mg7_2 O2_2 1_555 1_555
C5_2 C3_2 1_555 1_555
N1_2 C1_2 1_555 1_555
C3_2 H5_2 1_555 1_555
C1_2 H11_2 1_555 1_555
C1_2 H12_2 1_555 1_555
C5_2 H13_2 1_555 1_555
C5_2 H14_2 1_555 1_555
O4_2 Mg3_2 1_555 1_555
Mg4_2 O8_2 1_555 1_555
Mg6_2 O8_2 1_555 1_555
Mg8_2 O6_2 1_555 1_555
P2_2 O5_2 1_555 1_555
O6_2 P2_2 1_555 1_555
O7_2 Mg3_2 1_555 1_555
O10_2 Mg4_2 1_555 1_555
O12_2 Mg3_2 1_555 1_555
O13_2 Mg4_2 1_555 1_555
O14_2 Mg4_2 1_555 1_555
C4_2 P2_2 1_555 1_555
C6_2 C2_2 1_555 1_555
Mg6_2 O10_2 1_555 1_555
P2_2 O10_2 1_555 1_555
N2_2 C4_2 1_555 1_555
N2_2 C6_2 1_555 1_555
C2_2 H3_2 1_555 1_555
C2_2 H4_2 1_555 1_555
C4_2 H9_2 1_555 1_555
C4_2 H10_2 1_555 1_555
C6_2 H15_2 1_555 1_555
C1_3 H11_3 1_555 1_555
C1_3 H12_3 1_555 1_555
Mg8_3 O6_3 1_555 1_555
P2_3 O5_3 1_555 1_555
O6_3 P2_3 1_555 1_555
O10_3 Mg4_3 1_555 1_555
O13_3 Mg4_3 1_555 1_555
O14_3 Mg4_3 1_555 1_555
C6_3 C2_3 1_555 1_555
P2_3 O10_3 1_555 1_555
N2_3 C6_3 1_555 1_555
C2_3 H3_3 1_555 1_555
C2_3 H4_3 1_555 1_555
C6_3 H15_3 1_555 1_555
P1_3 O1_3 1_555 1_555
O2_3 P1_3 1_555 1_555
O3_3 P1_3 1_555 1_555
C3_3 N1_3 1_555 1_555
Mg3_3 O3_3 1_555 1_555
Mg7_3 O2_3 1_555 1_555
C5_3 C3_3 1_555 1_555
C3_3 H5_3 1_555 1_555
C5_3 H13_3 1_555 1_555
C5_3 H14_3 1_555 1_555
O4_3 Mg3_3 1_555 1_555
Mg6_3 O8_3 1_555 1_555
O12_3 Mg3_3 1_555 1_555
C4_3 H9_3 1_555 1_555
C4_3 H10_3 1_555 1_555
P1_4 O1_4 1_555 1_555
O3_4 P1_4 1_555 1_555
Mg5_2 O3_4 1_555 1_555
Mg7_2 O3_4 1_555 1_555
Mg5_2 O7_2 1_555 1_555
O4_4 Mg5_2 1_555 1_555
N1_4 Mg5_2 1_555 1_555
C2_4 N1_4 1_555 1_555
C3_4 N1_4 1_555 1_555
Mg8_3 O6_4 1_555 1_555
P2_4 O5_4 1_555 1_555
O6_4 P2_4 1_555 1_555
O7_4 Mg5_2 1_555 1_555
N2_4 Mg8_3 1_555 1_555
C4_4 P2_4 1_555 1_555
C5_4 C3_4 1_555 1_555
C6_4 C2_4 1_555 1_555
N1_4 C1_4 1_555 1_555
P2_4 O13_3 1_555 1_555
N2_4 C4_4 1_555 1_555
N2_4 C5_4 1_555 1_555
N2_4 C6_4 1_555 1_555
C2_4 H3_4 1_555 1_555
C2_4 H4_4 1_555 1_555
C3_4 H5_4 1_555 1_555
C3_4 H6_4 1_555 1_555
C4_4 H9_4 1_555 1_555
C4_4 H10_4 1_555 1_555
C1_4 H11_4 1_555 1_555
C5_4 H13_4 1_555 1_555
C5_4 H14_4 1_555 1_555
C6_4 H15_4 1_555 1_555
C6_4 H16_4 1_555 1_555
O14_4 Mg8_3 1_555 1_555
P1_5 O1_5 1_555 1_555
O3_5 P1_5 1_555 1_555
Mg5_3 O3_5 1_555 1_555
Mg5_3 O7_3 1_555 1_555
O4_5 Mg5_3 1_555 1_555
N1_5 Mg5_3 1_555 1_555
C2_5 N1_5 1_555 1_555
C3_5 N1_5 1_555 1_555
Mg8 O6_5 1_555 1_555
P2_5 O5_5 1_555 1_555
O6_5 P2_5 1_555 1_555
N2_5 Mg8 1_555 1_555
C4_5 P2_5 1_555 1_555
C5_5 C3_5 1_555 1_555
C6_5 C2_5 1_555 1_555
N1_5 C1_5 1_555 1_555
P2_5 O13 1_555 1_555
N2_5 C4_5 1_555 1_555
N2_5 C5_5 1_555 1_555
N2_5 C6_5 1_555 1_555
C2_5 H3_5 1_555 1_555
C2_5 H4_5 1_555 1_555
C3_5 H5_5 1_555 1_555
C3_5 H6_5 1_555 1_555
C4_5 H9_5 1_555 1_555
C4_5 H10_5 1_555 1_555
C1_5 H11_5 1_555 1_555
C5_5 H13_5 1_555 1_555
C5_5 H14_5 1_555 1_555
C6_5 H15_5 1_555 1_555
C6_5 H16_5 1_555 1_555
O14_5 Mg8 1_555 1_555
P1_6 O1_6 1_555 1_555
O3_6 P1_6 1_555 1_555
Mg5 O3_6 1_555 1_555
Mg5 O7 1_555 1_555
O4_6 Mg5 1_555 1_555
N1_6 Mg5 1_555 1_555
C2_6 N1_6 1_555 1_555
C3_6 N1_6 1_555 1_555
Mg8_2 O6_6 1_555 1_555
Mg6_2 O6_6 1_555 1_555
P2_6 O5_6 1_555 1_555
O6_6 P2_6 1_555 1_555
N2_6 Mg8_2 1_555 1_555
C4_6 P2_6 1_555 1_555
C5_6 C3_6 1_555 1_555
C6_6 C2_6 1_555 1_555
N1_6 C1_6 1_555 1_555
P2_6 O13_2 1_555 1_555
N2_6 C4_6 1_555 1_555
N2_6 C5_6 1_555 1_555
N2_6 C6_6 1_555 1_555
C2_6 H3_6 1_555 1_555
C2_6 H4_6 1_555 1_555
C3_6 H5_6 1_555 1_555
C3_6 H6_6 1_555 1_555
C4_6 H9_6 1_555 1_555
C4_6 H10_6 1_555 1_555
C1_6 H11_6 1_555 1_555
C5_6 H13_6 1_555 1_555
C5_6 H14_6 1_555 1_555
C6_6 H15_6 1_555 1_555
C6_6 H16_6 1_555 1_555
O13_6 Mg8_2 1_555 1_555
O14_6 Mg8_2 1_555 1_555
Mg7_3 O7_5 1_555 1_555
P1_7 O1_7 1_555 1_555
O7_5 P1_7 1_555 1_555
O12_3 P1_7 1_555 1_555
O4_7 Mg7_3 1_555 1_555
N1_7 Mg7_3 1_555 1_555
C1_7 P1_7 1_555 1_555
C2_7 N1_7 1_555 1_555
C3_7 N1_7 1_555 1_555
N2_7 Mg6_2 1_555 1_555
C5_7 C3_7 1_555 1_555
C6_7 C2_7 1_555 1_555
N1_7 C1_7 1_555 1_555
N2_7 C4_7 1_555 1_555
N2_7 C5_7 1_555 1_555
N2_7 C6_7 1_555 1_555
C2_7 H3_7 1_555 1_555
C2_7 H4_7 1_555 1_555
C3_7 H5_7 1_555 1_555
C3_7 H6_7 1_555 1_555
C4_7 H10_7 1_555 1_555
C1_7 H11_7 1_555 1_555
C1_7 H12_7 1_555 1_555
C5_7 H13_7 1_555 1_555
C5_7 H14_7 1_555 1_555
C6_7 H15_7 1_555 1_555
C6_7 H16_7 1_555 1_555
P2_7 O5_7 1_555 1_555
O13_6 Mg6_2 1_555 1_555
O14_7 Mg6_2 1_555 1_555
P2_7 O13_6 1_555 1_555
Mg7 O7_6 1_555 1_555
P1_8 O1_8 1_555 1_555
O7_6 P1_8 1_555 1_555
O12 P1_8 1_555 1_555
O4_8 Mg7 1_555 1_555
N1_8 Mg7 1_555 1_555
C1_8 P1_8 1_555 1_555
C2_8 N1_8 1_555 1_555
C3_8 N1_8 1_555 1_555
N2_8 Mg6_3 1_555 1_555
C5_8 C3_8 1_555 1_555
C6_8 C2_8 1_555 1_555
N1_8 C1_8 1_555 1_555
N2_8 C4_8 1_555 1_555
N2_8 C5_8 1_555 1_555
N2_8 C6_8 1_555 1_555
C2_8 H3_8 1_555 1_555
C2_8 H4_8 1_555 1_555
C3_8 H5_8 1_555 1_555
C3_8 H6_8 1_555 1_555
C4_8 H10_8 1_555 1_555
C1_8 H11_8 1_555 1_555
C1_8 H12_8 1_555 1_555
C5_8 H13_8 1_555 1_555
C5_8 H14_8 1_555 1_555
C6_8 H15_8 1_555 1_555
C6_8 H16_8 1_555 1_555
P2_8 O5_8 1_555 1_555
O13_4 Mg6_3 1_555 1_555
O14_8 Mg6_3 1_555 1_555
P2_8 O13_4 1_555 1_555
Mg7_2 O7_4 1_555 1_555
P1_9 O1_9 1_555 1_555
O7_4 P1_9 1_555 1_555
O12_2 P1_9 1_555 1_555
O4_9 Mg7_2 1_555 1_555
N1_9 Mg7_2 1_555 1_555
C1_9 P1_9 1_555 1_555
C2_9 N1_9 1_555 1_555
C3_9 N1_9 1_555 1_555
N2_9 Mg6 1_555 1_555
C5_9 C3_9 1_555 1_555
C6_9 C2_9 1_555 1_555
N1_9 C1_9 1_555 1_555
N2_9 C4_9 1_555 1_555
N2_9 C5_9 1_555 1_555
N2_9 C6_9 1_555 1_555
C2_9 H3_9 1_555 1_555
C2_9 H4_9 1_555 1_555
C3_9 H5_9 1_555 1_555
C3_9 H6_9 1_555 1_555
C4_9 H10_9 1_555 1_555
C1_9 H11_9 1_555 1_555
C1_9 H12_9 1_555 1_555
C5_9 H13_9 1_555 1_555
C5_9 H14_9 1_555 1_555
C6_9 H15_9 1_555 1_555
C6_9 H16_9 1_555 1_555
P2_9 O5_9 1_555 1_555
O13_5 Mg6 1_555 1_555
O14_9 Mg6 1_555 1_555
P2_9 O13_5 1_555 1_555

#END
