
###############################################################################
#
# This file contains modified crystal structure data generated from the
# MOF subset of the Cambridge Structural Database (CSD) v543 
# hosted by the Cambridge Crystallographic Data Centre (CCDC).
#
# This work is licensed under the Creative Commons
# Attribution-NonCommercial-ShareAlike 4.0 International License.
# To view a copy of this license, visit
# http://creativecommons.org/licenses/by-nc-sa/4.0/
# or send a letter to
# Creative Commons, PO Box 1866, Mountain View, CA 94042, USA.
#
# CIF created using the CSD Python API on 29 September 2022
# The structure has been converted into the P1 space group
# The structure has a 3D framework
# The original CSD entry XESKIR is in the rhombohedral crystal system
# The framework has been calculated to contain at least 10.0% void space
# The void calculation uses a probe of radius 1.32A, grid spacing 0.4
# H atom positions have been added when not included in the experimental data
# Generated hydrogen atom positions removed from atoms on special positions
#
###############################################################################

data_XESKIR
_chemical_formula_moiety         '(C54 H162 Mn18 N18 O67 P18)n'
_symmetry_cell_setting           triclinic
_symmetry_space_group_name_H-M   'P 1'
_symmetry_Int_Tables_number      1
_space_group_name_Hall           'P 1'
loop_
_symmetry_equiv_pos_site_id
_symmetry_equiv_pos_as_xyz
1 x,y,z
_cell_length_a                   28.5814(10)
_cell_length_b                   28.5814(10)
_cell_length_c                   6.4264(4)
_cell_angle_alpha                90
_cell_angle_beta                 90
_cell_angle_gamma                120
_cell_volume                     4546.38
loop_
_atom_site_label
_atom_site_type_symbol
_atom_site_fract_x
_atom_site_fract_y
_atom_site_fract_z
_atom_site_U_iso_or_equiv
_atom_site_thermal_displace_type
C3 C 0.49519(6) 0.04658(7) 0.0562(4) 0.0111 Uiso
Mn4 Mn 0.69672(18) 0.05914(26) 0.5856(10) 0.0111 Uiso
Mn6 Mn 0.39248(26) 0.02909(19) 0.0810(10) 0.0111 Uiso
O10 O 0.32599(25) 0.04364(28) 0.08979(32) 0.0111 Uiso
O13 O 0.71030(28) 0.05098(12) 0.24355(32) 0.0111 Uiso
N2 N 0.55328(6) 0.00669(5) 0.01566(21) 0.0111 Uiso
C4 C 0.55438(8) 0.00467(7) 0.25042(21) 0.0111 Uiso
H3 H 0.797622 0.0361446 0.160979 . .
H9 H 0.500883 0.0455971 0.223367 . .
H10 H 0.48891 0.0802005 0.018769 . .
H13 H 0.579402 0.0463462 0.301432 . .
Mn1 Mn 0.30424(19) 0.03005(18) 0.7477(10) 0.0111 Uiso
P1 P 0.42130(5) 0.03487(5) 0.60367(22) 0.0111 Uiso
O1 O 0.46901(13) 0.08703(10) 0.5337(8) 0.0111 Uiso
O2 O 0.38994(8) 0.04880(10) 0.7539(4) 0.0111 Uiso
O3 O 0.38431(12) 0.00734(25) 0.42312(32) 0.0111 Uiso
O4 O 0.2222(5) 0.0036(6) 0.818(4) 0.0505 Uiso
O7 O 0.28453(10) 0.00781(13) 0.4206(4) 0.0111 Uiso
N3 N 0.34002(5) 0.12008(8) 0.65101(21) 0.0111 Uiso
C5 C 0.54450(5) 0.05243(5) 0.9396(4) 0.0111 Uiso
H1 H 0.220192 0.0216749 0.946904 . .
H2 H 0.205631 0.01289 0.700979 . .
H7 H 0.487107 0.01044 0.69904 . .
H11 H 0.579852 0.0914227 0.974051 . .
H12 H 0.537026 0.0489323 0.772609 . .
C2 C 0.45550(5) 0.94757(5) 0.0604(4) 0.0111 Uiso
Mn2 Mn 0.69576(19) 0.96995(18) 0.2523(10) 0.0111 Uiso
Mn8 Mn 0.60752(26) 0.97091(19) 0.9190(10) 0.0111 Uiso
P2 P 0.57870(5) 0.96513(5) 0.39633(22) 0.0111 Uiso
O5 O 0.53099(13) 0.91297(10) 0.4663(8) 0.0111 Uiso
O6 O 0.61006(8) 0.95120(10) 0.2461(4) 0.0111 Uiso
O8 O 0.71547(10) 0.99219(13) 0.5794(4) 0.0111 Uiso
O9 O 0.61569(12) 0.99266(25) 0.57688(32) 0.0111 Uiso
O14 O 0.7778(5) 0.9964(6) 0.182(4) 0.0505 Uiso
N4 N 0.65998(5) 0.87992(8) 0.34899(21) 0.0111 Uiso
H4 H 0.794369 0.98711 0.299021 . .
H5 H 0.420148 0.908577 0.0259485 . .
H6 H 0.462974 0.951068 0.227391 . .
H14 H 0.512893 0.98956 0.30096 . .
N1 N 0.44672(6) 0.99331(5) 0.98434(21) 0.0111 Uiso
C1 C 0.44562(8) 0.99533(7) 0.74958(21) 0.0111 Uiso
Mn3 Mn 0.30328(18) 0.94086(26) 0.4144(10) 0.0111 Uiso
O11 O 0.67401(25) 0.95636(28) 0.91021(32) 0.0111 Uiso
O12 O 0.28970(28) 0.94902(12) 0.75645(32) 0.0111 Uiso
C6 C 0.50481(6) 0.95342(7) 0.9438(4) 0.0111 Uiso
H8 H 0.420598 0.953654 0.698568 . .
H15 H 0.499117 0.954403 0.776633 . .
H16 H 0.51109 0.919799 0.981231 . .
C2_2 C 0.05243(5) 0.50793(7) 0.0604(4) 0.0111 Uiso
Mn2_2 Mn 0.03005(18) 0.72581(26) 0.2523(10) 0.0111 Uiso
Mn8_2 Mn 0.02909(19) 0.63662(32) 0.9190(10) 0.0111 Uiso
P2_2 P 0.03487(5) 0.61357(7) 0.39633(22) 0.0111 Uiso
O5_2 O 0.08703(10) 0.61802(16) 0.4663(8) 0.0111 Uiso
O6_2 O 0.04880(10) 0.65886(13) 0.2461(4) 0.0111 Uiso
O8_2 O 0.00781(13) 0.72327(16) 0.5794(4) 0.0111 Uiso
O9_2 O 0.00734(25) 0.62303(28) 0.57688(32) 0.0111 Uiso
O14_2 O 0.0036(6) 0.7814(8) 0.182(4) 0.0505 Uiso
N4_2 N 0.12008(8) 0.78005(9) 0.34899(21) 0.0111 Uiso
H4_2 H 0.01289 0.807259 0.299021 . .
H5_2 H 0.0914227 0.51157 0.0259485 . .
H6_2 H 0.0489323 0.511906 0.227391 . .
H14_2 H 0.01044 0.523333 0.30096 . .
N1_2 N 0.00669(5) 0.45341(8) 0.98434(21) 0.0111 Uiso
C1_2 C 0.00467(7) 0.45029(11) 0.74958(21) 0.0111 Uiso
Mn3_2 Mn 0.05914(26) 0.36243(32) 0.4144(10) 0.0111 Uiso
O11_2 O 0.04364(28) 0.71764(38) 0.91021(32) 0.0111 Uiso
O12_2 O 0.05098(12) 0.34067(30) 0.75645(32) 0.0111 Uiso
C6_2 C 0.04658(7) 0.55139(9) 0.9438(4) 0.0111 Uiso
H8_2 H 0.0463462 0.466945 0.698568 . .
H15_2 H 0.0455971 0.544714 0.776633 . .
H16_2 H 0.0802005 0.59129 0.981231 . .
C3_2 C 0.95342(7) 0.44861(9) 0.0562(4) 0.0111 Uiso
Mn4_2 Mn 0.94086(26) 0.63757(32) 0.5856(10) 0.0111 Uiso
Mn6_2 Mn 0.97091(19) 0.36338(32) 0.0810(10) 0.0111 Uiso
O10_2 O 0.95636(28) 0.28236(38) 0.08979(32) 0.0111 Uiso
O13_2 O 0.94902(12) 0.65933(30) 0.24355(32) 0.0111 Uiso
N2_2 N 0.99331(5) 0.54659(8) 0.01566(21) 0.0111 Uiso
C4_2 C 0.99533(7) 0.54971(11) 0.25042(21) 0.0111 Uiso
H3_2 H 0.963855 0.761477 0.160979 . .
H9_2 H 0.954403 0.455286 0.223367 . .
H10_2 H 0.919799 0.40871 0.018769 . .
H13_2 H 0.953654 0.533055 0.301432 . .
Mn1_2 Mn 0.96995(18) 0.27419(26) 0.7477(10) 0.0111 Uiso
P1_2 P 0.96513(5) 0.38643(7) 0.60367(22) 0.0111 Uiso
O1_2 O 0.91297(10) 0.38198(16) 0.5337(8) 0.0111 Uiso
O2_2 O 0.95120(10) 0.34114(13) 0.7539(4) 0.0111 Uiso
O3_2 O 0.99266(25) 0.37697(28) 0.42312(32) 0.0111 Uiso
O4_2 O 0.9964(6) 0.2186(8) 0.818(4) 0.0505 Uiso
O7_2 O 0.99219(13) 0.27673(16) 0.4206(4) 0.0111 Uiso
N3_2 N 0.87992(8) 0.21995(9) 0.65101(21) 0.0111 Uiso
C5_2 C 0.94757(5) 0.49207(7) 0.9396(4) 0.0111 Uiso
H1_2 H 0.978325 0.198517 0.946904 . .
H2_2 H 0.98711 0.192741 0.700979 . .
H7_2 H 0.98956 0.476667 0.69904 . .
H11_2 H 0.908577 0.48843 0.974051 . .
H12_2 H 0.951068 0.488094 0.772609 . .
C2_3 C 0.49207(7) 0.54450(5) 0.0604(4) 0.0111 Uiso
C3_3 C 0.55139(9) 0.50481(6) 0.0562(4) 0.0111 Uiso
Mn2_3 Mn 0.27419(26) 0.30424(19) 0.2523(10) 0.0111 Uiso
Mn4_3 Mn 0.36243(32) 0.30328(18) 0.5856(10) 0.0111 Uiso
Mn6_3 Mn 0.63662(32) 0.60752(26) 0.0810(10) 0.0111 Uiso
Mn8_3 Mn 0.36338(32) 0.39248(26) 0.9190(10) 0.0111 Uiso
P2_3 P 0.38643(7) 0.42130(5) 0.39633(22) 0.0111 Uiso
O5_3 O 0.38198(16) 0.46901(13) 0.4663(8) 0.0111 Uiso
O6_3 O 0.34114(13) 0.38994(8) 0.2461(4) 0.0111 Uiso
O8_3 O 0.27673(16) 0.28453(10) 0.5794(4) 0.0111 Uiso
O9_3 O 0.37697(28) 0.38431(12) 0.57688(32) 0.0111 Uiso
O10_3 O 0.71764(38) 0.67401(25) 0.08979(32) 0.0111 Uiso
O13_3 O 0.34067(30) 0.28970(28) 0.24355(32) 0.0111 Uiso
O14_3 O 0.2186(8) 0.2222(5) 0.182(4) 0.0505 Uiso
N2_3 N 0.45341(8) 0.44672(6) 0.01566(21) 0.0111 Uiso
N4_3 N 0.21995(9) 0.34002(5) 0.34899(21) 0.0111 Uiso
C4_3 C 0.45029(11) 0.44562(8) 0.25042(21) 0.0111 Uiso
H5_3 H 0.48843 0.579852 0.0259485 . .
H6_3 H 0.488094 0.537026 0.227391 . .
H9_3 H 0.544714 0.499117 0.223367 . .
H10_3 H 0.59129 0.51109 0.018769 . .
H13_3 H 0.466945 0.420598 0.301432 . .
H14_3 H 0.476667 0.487107 0.30096 . .
Mn1_3 Mn 0.72581(26) 0.69576(19) 0.7477(10) 0.0111 Uiso
P1_3 P 0.61357(7) 0.57870(5) 0.60367(22) 0.0111 Uiso
O1_3 O 0.61802(16) 0.53099(13) 0.5337(8) 0.0111 Uiso
O2_3 O 0.65886(13) 0.61006(8) 0.7539(4) 0.0111 Uiso
O3_3 O 0.62303(28) 0.61569(12) 0.42312(32) 0.0111 Uiso
O4_3 O 0.7814(8) 0.7778(5) 0.818(4) 0.0505 Uiso
N1_3 N 0.54659(8) 0.55328(6) 0.98434(21) 0.0111 Uiso
C1_3 C 0.54971(11) 0.55438(8) 0.74958(21) 0.0111 Uiso
Mn3_3 Mn 0.63757(32) 0.69672(18) 0.4144(10) 0.0111 Uiso
O7_3 O 0.72327(16) 0.71547(10) 0.4206(4) 0.0111 Uiso
O11_3 O 0.28236(38) 0.32599(25) 0.91021(32) 0.0111 Uiso
O12_3 O 0.65933(30) 0.71030(28) 0.75645(32) 0.0111 Uiso
N3_3 N 0.78005(9) 0.65998(5) 0.65101(21) 0.0111 Uiso
C5_3 C 0.50793(7) 0.45550(5) 0.9396(4) 0.0111 Uiso
C6_3 C 0.44861(9) 0.49519(6) 0.9438(4) 0.0111 Uiso
H7_3 H 0.523333 0.512893 0.69904 . .
H8_3 H 0.533055 0.579402 0.698568 . .
H11_3 H 0.51157 0.420148 0.974051 . .
H12_3 H 0.511906 0.462974 0.772609 . .
H15_3 H 0.455286 0.500883 0.776633 . .
H16_3 H 0.40871 0.48891 0.981231 . .
O14_4 O 0.1111(5) 0.6631(6) 0.849(4) 0.0505 Uiso
P2_4 P 0.91203(5) 0.63180(5) 0.06300(22) 0.0111 Uiso
O5_4 O 0.86432(13) 0.57964(10) 0.1330(8) 0.0111 Uiso
P1_4 P 0.75463(5) 0.70154(5) 0.27034(22) 0.0111 Uiso
O1_4 O 0.80234(13) 0.75370(10) 0.2004(8) 0.0111 Uiso
O4_4 O 0.5555(5) 0.6703(6) 0.485(4) 0.0505 Uiso
C1_4 C 0.77895(8) 0.66200(7) 0.41625(21) 0.0111 Uiso
C2_4 C 0.78883(5) 0.61424(5) 0.7271(4) 0.0111 Uiso
C3_4 C 0.82852(6) 0.71325(7) 0.7229(4) 0.0111 Uiso
O6_4 O 0.94339(8) 0.61787(10) 0.9128(4) 0.0111 Uiso
O7_4 O 0.61787(10) 0.67447(13) 0.0872(4) 0.0111 Uiso
N2_4 N 0.88661(6) 0.67336(5) 0.68233(21) 0.0111 Uiso
N3_4 N 0.67336(5) 0.78674(8) 0.31767(21) 0.0111 Uiso
C4_4 C 0.88771(8) 0.67134(7) 0.91709(21) 0.0111 Uiso
C5_4 C 0.87783(5) 0.71910(5) 0.6063(4) 0.0111 Uiso
C6_4 C 0.83814(6) 0.62009(7) 0.6105(4) 0.0111 Uiso
H5_4 H 0.753481 0.575244 0.692615 . .
H6_4 H 0.796307 0.617734 0.894058 . .
H7_4 H 0.82044 0.677107 0.365707 . .
H8_4 H 0.753932 0.62032 0.365234 . .
H9_4 H 0.834216 0.712264 0.890034 . .
H10_4 H 0.822243 0.746867 0.685436 . .
H11_4 H 0.913186 0.758089 0.640718 . .
H12_4 H 0.87036 0.715599 0.439276 . .
H13_4 H 0.912735 0.713013 0.968099 . .
H14_4 H 0.846226 0.656227 0.967626 . .
H15_4 H 0.832451 0.62107 0.443299 . .
H16_4 H 0.844423 0.586466 0.647898 . .
P2_5 P 0.36820(5) 0.28024(7) 0.06300(22) 0.0111 Uiso
O5_5 O 0.42036(10) 0.28469(16) 0.1330(8) 0.0111 Uiso
P1_5 P 0.29846(5) 0.05310(7) 0.27034(22) 0.0111 Uiso
O1_5 O 0.24630(10) 0.04865(16) 0.2004(8) 0.0111 Uiso
C1_5 C 0.33800(7) 0.11696(11) 0.41625(21) 0.0111 Uiso
C2_5 C 0.38576(5) 0.17460(7) 0.7271(4) 0.0111 Uiso
C3_5 C 0.28675(7) 0.11528(9) 0.7229(4) 0.0111 Uiso
O6_5 O 0.38213(10) 0.32553(13) 0.9128(4) 0.0111 Uiso
O14_5 O 0.3369(6) 0.4481(8) 0.849(4) 0.0505 Uiso
N2_5 N 0.32664(5) 0.21326(8) 0.68233(21) 0.0111 Uiso
C4_5 C 0.32866(7) 0.21638(11) 0.91709(21) 0.0111 Uiso
C5_5 C 0.28090(5) 0.15874(7) 0.6063(4) 0.0111 Uiso
C6_5 C 0.37991(7) 0.21806(9) 0.6105(4) 0.0111 Uiso
H5_5 H 0.424756 0.178237 0.692615 . .
H6_5 H 0.382266 0.178573 0.894058 . .
H7_5 H 0.322893 0.143334 0.365707 . .
H8_5 H 0.37968 0.133611 0.365234 . .
H9_5 H 0.287736 0.121952 0.890034 . .
H10_5 H 0.253133 0.0753763 0.685436 . .
H11_5 H 0.241911 0.155096 0.640718 . .
H12_5 H 0.284401 0.154761 0.439276 . .
H13_5 H 0.286987 0.199722 0.968099 . .
H14_5 H 0.343773 0.19 0.967626 . .
H15_5 H 0.37893 0.211381 0.443299 . .
H16_5 H 0.413534 0.257957 0.647898 . .
O4_5 O 0.3297(6) 0.8853(8) 0.485(4) 0.0505 Uiso
O7_5 O 0.32553(13) 0.94339(16) 0.0872(4) 0.0111 Uiso
N3_5 N 0.21326(8) 0.88661(9) 0.31767(21) 0.0111 Uiso
O4_6 O 0.1147(8) 0.4445(5) 0.485(4) 0.0505 Uiso
O7_6 O 0.05661(16) 0.38213(10) 0.0872(4) 0.0111 Uiso
N3_6 N 0.11339(9) 0.32664(5) 0.31767(21) 0.0111 Uiso
P2_6 P 0.71976(7) 0.08797(5) 0.06300(22) 0.0111 Uiso
O5_6 O 0.71531(16) 0.13568(13) 0.1330(8) 0.0111 Uiso
P1_6 P 0.94690(7) 0.24537(5) 0.27034(22) 0.0111 Uiso
O1_6 O 0.95135(16) 0.19766(13) 0.2004(8) 0.0111 Uiso
C1_6 C 0.88304(11) 0.22105(8) 0.41625(21) 0.0111 Uiso
C2_6 C 0.82540(7) 0.21117(5) 0.7271(4) 0.0111 Uiso
C3_6 C 0.88472(9) 0.17148(6) 0.7229(4) 0.0111 Uiso
O6_6 O 0.67447(13) 0.05661(8) 0.9128(4) 0.0111 Uiso
N2_6 N 0.78674(8) 0.11339(6) 0.68233(21) 0.0111 Uiso
C4_6 C 0.78362(11) 0.11229(8) 0.91709(21) 0.0111 Uiso
C5_6 C 0.84126(7) 0.12217(5) 0.6063(4) 0.0111 Uiso
C6_6 C 0.78194(9) 0.16186(6) 0.6105(4) 0.0111 Uiso
H5_6 H 0.821763 0.246519 0.692615 . .
H6_6 H 0.821427 0.203693 0.894058 . .
H7_6 H 0.856666 0.17956 0.365707 . .
H8_6 H 0.866389 0.246068 0.365234 . .
H9_6 H 0.878048 0.165784 0.890034 . .
H10_6 H 0.924624 0.177757 0.685436 . .
H11_6 H 0.844904 0.0868143 0.640718 . .
H12_6 H 0.845239 0.12964 0.439276 . .
H13_6 H 0.800278 0.087265 0.968099 . .
H14_6 H 0.81 0.153774 0.967626 . .
H15_6 H 0.788619 0.167549 0.443299 . .
H16_6 H 0.742043 0.155577 0.647898 . .
O14_6 O 0.5519(8) 0.8889(5) 0.849(4) 0.0505 Uiso
C1_7 C 0.11229(8) 0.32866(7) 0.08291(21) 0.0111 Uiso
C2_7 C 0.12217(5) 0.28090(5) 0.3937(4) 0.0111 Uiso
C3_7 C 0.16186(6) 0.37991(7) 0.3895(4) 0.0111 Uiso
P2_7 P 0.24537(5) 0.29846(5) 0.72966(22) 0.0111 Uiso
O5_7 O 0.19766(13) 0.24630(10) 0.7996(8) 0.0111 Uiso
O14_7 O 0.4445(5) 0.3297(6) 0.515(4) 0.0505 Uiso
C4_7 C 0.22105(8) 0.33800(7) 0.58375(21) 0.0111 Uiso
C5_7 C 0.21117(5) 0.38576(5) 0.2729(4) 0.0111 Uiso
C6_7 C 0.17148(6) 0.28675(7) 0.2771(4) 0.0111 Uiso
H5_7 H 0.0868143 0.241911 0.359282 . .
H6_7 H 0.12964 0.284401 0.560724 . .
H7_7 H 0.153774 0.343773 0.0323736 . .
H8_7 H 0.087265 0.286987 0.0319011 . .
H9_7 H 0.167549 0.37893 0.556701 . .
H10_7 H 0.155577 0.413534 0.352102 . .
H11_7 H 0.246519 0.424756 0.307385 . .
H12_7 H 0.203693 0.382266 0.105942 . .
H13_7 H 0.246068 0.37968 0.634766 . .
H14_7 H 0.17956 0.322893 0.634293 . .
H15_7 H 0.165784 0.287736 0.109966 . .
H16_7 H 0.177757 0.253133 0.314564 . .
P1_7 P 0.08797(5) 0.36820(5) 0.93700(22) 0.0111 Uiso
O1_7 O 0.13568(13) 0.42036(10) 0.8670(8) 0.0111 Uiso
O4_7 O 0.8889(5) 0.3369(6) 0.151(4) 0.0505 Uiso
O14_8 O 0.6703(6) 0.1147(8) 0.515(4) 0.0505 Uiso
O4_8 O 0.6631(6) 0.5519(8) 0.151(4) 0.0505 Uiso
C1_8 C 0.67134(7) 0.78362(11) 0.08291(21) 0.0111 Uiso
C2_8 C 0.71910(5) 0.84126(7) 0.3937(4) 0.0111 Uiso
C3_8 C 0.62009(7) 0.78194(9) 0.3895(4) 0.0111 Uiso
P2_8 P 0.70154(5) 0.94690(7) 0.72966(22) 0.0111 Uiso
O5_8 O 0.75370(10) 0.95135(16) 0.7996(8) 0.0111 Uiso
C4_8 C 0.66200(7) 0.88304(11) 0.58375(21) 0.0111 Uiso
C5_8 C 0.61424(5) 0.82540(7) 0.2729(4) 0.0111 Uiso
C6_8 C 0.71325(7) 0.88472(9) 0.2771(4) 0.0111 Uiso
H5_8 H 0.758089 0.844904 0.359282 . .
H6_8 H 0.715599 0.845239 0.560724 . .
H7_8 H 0.656227 0.81 0.0323736 . .
H8_8 H 0.713013 0.800278 0.0319011 . .
H9_8 H 0.62107 0.788619 0.556701 . .
H10_8 H 0.586466 0.742043 0.352102 . .
H11_8 H 0.575244 0.821763 0.307385 . .
H12_8 H 0.617734 0.821427 0.105942 . .
H13_8 H 0.62032 0.866389 0.634766 . .
H14_8 H 0.677107 0.856666 0.634293 . .
H15_8 H 0.712264 0.878048 0.109966 . .
H16_8 H 0.746867 0.924624 0.314564 . .
P1_8 P 0.63180(5) 0.71976(7) 0.93700(22) 0.0111 Uiso
O1_8 O 0.57964(10) 0.71531(16) 0.8670(8) 0.0111 Uiso
O4_9 O 0.4481(8) 0.1111(5) 0.151(4) 0.0505 Uiso
C1_9 C 0.21638(11) 0.88771(8) 0.08291(21) 0.0111 Uiso
C2_9 C 0.15874(7) 0.87783(5) 0.3937(4) 0.0111 Uiso
C3_9 C 0.21806(9) 0.83814(6) 0.3895(4) 0.0111 Uiso
P2_9 P 0.05310(7) 0.75463(5) 0.72966(22) 0.0111 Uiso
O5_9 O 0.04865(16) 0.80234(13) 0.7996(8) 0.0111 Uiso
C4_9 C 0.11696(11) 0.77895(8) 0.58375(21) 0.0111 Uiso
C5_9 C 0.17460(7) 0.78883(5) 0.2729(4) 0.0111 Uiso
C6_9 C 0.11528(9) 0.82852(6) 0.2771(4) 0.0111 Uiso
H5_9 H 0.155096 0.913186 0.359282 . .
H6_9 H 0.154761 0.87036 0.560724 . .
H7_9 H 0.19 0.846226 0.0323736 . .
H8_9 H 0.199722 0.912735 0.0319011 . .
H9_9 H 0.211381 0.832451 0.556701 . .
H10_9 H 0.257957 0.844423 0.352102 . .
H11_9 H 0.178237 0.753481 0.307385 . .
H12_9 H 0.178573 0.796307 0.105942 . .
H13_9 H 0.133611 0.753932 0.634766 . .
H14_9 H 0.143334 0.82044 0.634293 . .
H15_9 H 0.121952 0.834216 0.109966 . .
H16_9 H 0.0753763 0.822243 0.314564 . .
P1_9 P 0.28024(7) 0.91203(5) 0.93700(22) 0.0111 Uiso
O1_9 O 0.28469(16) 0.86432(13) 0.8670(8) 0.0111 Uiso
O14_9 O 0.8853(8) 0.5555(5) 0.515(4) 0.0505 Uiso
H1_3 H 0.779808 0.978325 0.0530959 . .
H3_3 H 0.202378 0.963855 0.839021 . .
H1_4 H 0.0216749 0.801483 0.0530959 . .
H3_4 H 0.0361446 0.238523 0.839021 . .
loop_
_geom_bond_atom_site_label_1
_geom_bond_atom_site_label_2
_geom_bond_site_symmetry_1
_geom_bond_site_symmetry_2
Mn4 O13 1_555 1_555
Mn6 O10 1_555 1_555
N2 C4 1_555 1_555
C3 H9 1_555 1_555
C3 H10 1_555 1_555
C4 H13 1_555 1_555
Mn1 O2 1_555 1_555
P1 O1 1_555 1_555
O2 P1 1_555 1_555
O3 P1 1_555 1_555
O4 Mn1 1_555 1_555
Mn6 O3 1_555 1_555
O7 Mn1 1_555 1_555
N3 Mn1 1_555 1_555
O4 H1 1_555 1_555
O4 H2 1_555 1_555
C5 H11 1_555 1_555
C5 H12 1_555 1_555
Mn2 O6 1_555 1_555
Mn8 O9 1_555 1_555
P2 O5 1_555 1_555
O6 P2 1_555 1_555
O8 Mn2 1_555 1_555
O14 Mn2 1_555 1_555
N4 Mn2 1_555 1_555
P2 O9 1_555 1_555
O14 H4 1_555 1_555
C2 H5 1_555 1_555
C2 H6 1_555 1_555
N1 C1 1_555 1_555
Mn3 O12 1_555 1_555
Mn8 O11 1_555 1_555
C1 H8 1_555 1_555
C6 H15 1_555 1_555
C6 H16 1_555 1_555
Mn2_2 O6_2 1_555 1_555
Mn8_2 O9_2 1_555 1_555
P2_2 O5_2 1_555 1_555
O6_2 P2_2 1_555 1_555
O8_2 Mn2_2 1_555 1_555
O14_2 Mn2_2 1_555 1_555
N4_2 Mn2_2 1_555 1_555
P2_2 O9_2 1_555 1_555
O14_2 H4_2 1_555 1_555
C2_2 H5_2 1_555 1_555
C2_2 H6_2 1_555 1_555
N1_2 C1_2 1_555 1_555
Mn3_2 O12_2 1_555 1_555
Mn8_2 O11_2 1_555 1_555
C1_2 H8_2 1_555 1_555
C6_2 H15_2 1_555 1_555
C6_2 H16_2 1_555 1_555
Mn4_2 O13_2 1_555 1_555
Mn6_2 O10_2 1_555 1_555
N2_2 C4_2 1_555 1_555
C3_2 H9_2 1_555 1_555
C3_2 H10_2 1_555 1_555
C4_2 H13_2 1_555 1_555
Mn1_2 O2_2 1_555 1_555
P1_2 O1_2 1_555 1_555
O2_2 P1_2 1_555 1_555
O3_2 P1_2 1_555 1_555
O4_2 Mn1_2 1_555 1_555
Mn6_2 O3_2 1_555 1_555
O7_2 Mn1_2 1_555 1_555
N3_2 Mn1_2 1_555 1_555
O4_2 H1_2 1_555 1_555
O4_2 H2_2 1_555 1_555
C5_2 H11_2 1_555 1_555
C5_2 H12_2 1_555 1_555
Mn2_3 O6_3 1_555 1_555
Mn4_3 O8_3 1_555 1_555
Mn8_3 O9_3 1_555 1_555
P2_3 O5_3 1_555 1_555
O6_3 P2_3 1_555 1_555
O8_3 Mn2_3 1_555 1_555
O9_3 Mn4_3 1_555 1_555
O13_3 Mn2_3 1_555 1_555
O14_3 Mn2_3 1_555 1_555
N4_3 Mn2_3 1_555 1_555
C4_3 P2_3 1_555 1_555
Mn4_3 O13_3 1_555 1_555
Mn6_3 O10_3 1_555 1_555
P2_3 O9_3 1_555 1_555
N2_3 C4_3 1_555 1_555
C2_3 H5_3 1_555 1_555
C2_3 H6_3 1_555 1_555
C3_3 H9_3 1_555 1_555
C3_3 H10_3 1_555 1_555
C4_3 H13_3 1_555 1_555
C4_3 H14_3 1_555 1_555
Mn1_3 O2_3 1_555 1_555
P1_3 O1_3 1_555 1_555
O2_3 P1_3 1_555 1_555
O3_3 P1_3 1_555 1_555
O4_3 Mn1_3 1_555 1_555
N1_3 C1_3 1_555 1_555
C1_3 P1_3 1_555 1_555
Mn3_3 O3_3 1_555 1_555
Mn6_3 O3_3 1_555 1_555
O7_3 Mn1_3 1_555 1_555
O12_3 Mn1_3 1_555 1_555
N3_3 Mn1_3 1_555 1_555
Mn3_3 O7_3 1_555 1_555
Mn3_3 O12_3 1_555 1_555
Mn8_3 O11_3 1_555 1_555
C1_3 H7_3 1_555 1_555
C1_3 H8_3 1_555 1_555
C5_3 H11_3 1_555 1_555
C5_3 H12_3 1_555 1_555
C6_3 H15_3 1_555 1_555
C6_3 H16_3 1_555 1_555
O14_4 Mn8_2 1_555 1_555
P2_4 O5_4 1_555 1_555
P2_4 O13_2 1_555 1_555
P1_4 O1_4 1_555 1_555
O7_3 P1_4 1_555 1_555
O10_3 P1_4 1_555 1_555
O4_4 Mn3_3 1_555 1_555
N3_3 C1_4 1_555 1_555
C1_4 P1_4 1_555 1_555
C2_4 N3_3 1_555 1_555
C3_4 N3_3 1_555 1_555
Mn4_2 O6_4 1_555 1_555
O7_4 Mn3_3 1_555 1_555
N2_4 Mn4_2 1_555 1_555
N3_4 Mn3_3 1_555 1_555
C5_4 C3_4 1_555 1_555
C6_4 C2_4 1_555 1_555
Mn6_3 O7_4 1_555 1_555
N2_4 C4_4 1_555 1_555
N2_4 C5_4 1_555 1_555
N2_4 C6_4 1_555 1_555
C2_4 H5_4 1_555 1_555
C2_4 H6_4 1_555 1_555
C1_4 H7_4 1_555 1_555
C1_4 H8_4 1_555 1_555
C3_4 H9_4 1_555 1_555
C3_4 H10_4 1_555 1_555
C5_4 H11_4 1_555 1_555
C5_4 H12_4 1_555 1_555
C4_4 H13_4 1_555 1_555
C4_4 H14_4 1_555 1_555
C6_4 H15_4 1_555 1_555
C6_4 H16_4 1_555 1_555
P2_5 O5_5 1_555 1_555
P2_5 O13_3 1_555 1_555
P1_5 O1_5 1_555 1_555
O7 P1_5 1_555 1_555
O10 P1_5 1_555 1_555
N3 C1_5 1_555 1_555
C1_5 P1_5 1_555 1_555
C2_5 N3 1_555 1_555
C3_5 N3 1_555 1_555
Mn8_3 O6_5 1_555 1_555
Mn4_3 O6_5 1_555 1_555
O14_5 Mn8_3 1_555 1_555
N2_5 Mn4_3 1_555 1_555
C5_5 C3_5 1_555 1_555
C6_5 C2_5 1_555 1_555
N2_5 C4_5 1_555 1_555
N2_5 C5_5 1_555 1_555
N2_5 C6_5 1_555 1_555
C2_5 H5_5 1_555 1_555
C2_5 H6_5 1_555 1_555
C1_5 H7_5 1_555 1_555
C1_5 H8_5 1_555 1_555
C3_5 H9_5 1_555 1_555
C3_5 H10_5 1_555 1_555
C5_5 H11_5 1_555 1_555
C5_5 H12_5 1_555 1_555
C4_5 H13_5 1_555 1_555
C4_5 H14_5 1_555 1_555
C6_5 H15_5 1_555 1_555
C6_5 H16_5 1_555 1_555
O4_5 Mn3 1_555 1_555
O7_5 Mn3 1_555 1_555
N3_5 Mn3 1_555 1_555
O4_6 Mn3_2 1_555 1_555
O7_6 Mn3_2 1_555 1_555
N3_6 Mn3_2 1_555 1_555
P2_6 O5_6 1_555 1_555
P2_6 O13 1_555 1_555
P1_6 O1_6 1_555 1_555
O7_2 P1_6 1_555 1_555
O10_2 P1_6 1_555 1_555
N3_2 C1_6 1_555 1_555
C1_6 P1_6 1_555 1_555
C2_6 N3_2 1_555 1_555
C3_6 N3_2 1_555 1_555
Mn4 O6_6 1_555 1_555
N2_6 Mn4 1_555 1_555
C5_6 C3_6 1_555 1_555
C6_6 C2_6 1_555 1_555
N2_6 C4_6 1_555 1_555
N2_6 C5_6 1_555 1_555
N2_6 C6_6 1_555 1_555
C2_6 H5_6 1_555 1_555
C2_6 H6_6 1_555 1_555
C1_6 H7_6 1_555 1_555
C1_6 H8_6 1_555 1_555
C3_6 H9_6 1_555 1_555
C3_6 H10_6 1_555 1_555
C5_6 H11_6 1_555 1_555
C5_6 H12_6 1_555 1_555
C4_6 H13_6 1_555 1_555
C4_6 H14_6 1_555 1_555
C6_6 H15_6 1_555 1_555
C6_6 H16_6 1_555 1_555
O14_6 Mn8 1_555 1_555
N3_6 C1_7 1_555 1_555
C2_7 N3_6 1_555 1_555
C3_7 N3_6 1_555 1_555
P2_7 O5_7 1_555 1_555
O8_3 P2_7 1_555 1_555
O14_7 Mn4_3 1_555 1_555
C4_7 P2_7 1_555 1_555
C5_7 C3_7 1_555 1_555
C6_7 C2_7 1_555 1_555
P2_7 O11_3 1_555 1_555
N4_3 C4_7 1_555 1_555
N4_3 C5_7 1_555 1_555
N4_3 C6_7 1_555 1_555
C2_7 H5_7 1_555 1_555
C2_7 H6_7 1_555 1_555
C1_7 H7_7 1_555 1_555
C1_7 H8_7 1_555 1_555
C3_7 H9_7 1_555 1_555
C3_7 H10_7 1_555 1_555
C5_7 H11_7 1_555 1_555
C5_7 H12_7 1_555 1_555
C4_7 H13_7 1_555 1_555
C4_7 H14_7 1_555 1_555
C6_7 H15_7 1_555 1_555
C6_7 H16_7 1_555 1_555
P1_7 O1_7 1_555 1_555
O12_2 P1_7 1_555 1_555
O4_7 Mn6_2 1_555 1_555
O14_8 Mn4 1_555 1_555
O4_8 Mn6_3 1_555 1_555
N3_4 C1_8 1_555 1_555
C2_8 N3_4 1_555 1_555
C3_8 N3_4 1_555 1_555
P2_8 O5_8 1_555 1_555
O8 P2_8 1_555 1_555
C4_8 P2_8 1_555 1_555
C5_8 C3_8 1_555 1_555
C6_8 C2_8 1_555 1_555
P2_8 O11 1_555 1_555
N4 C4_8 1_555 1_555
N4 C5_8 1_555 1_555
N4 C6_8 1_555 1_555
C2_8 H5_8 1_555 1_555
C2_8 H6_8 1_555 1_555
C1_8 H7_8 1_555 1_555
C1_8 H8_8 1_555 1_555
C3_8 H9_8 1_555 1_555
C3_8 H10_8 1_555 1_555
C5_8 H11_8 1_555 1_555
C5_8 H12_8 1_555 1_555
C4_8 H13_8 1_555 1_555
C4_8 H14_8 1_555 1_555
C6_8 H15_8 1_555 1_555
C6_8 H16_8 1_555 1_555
P1_8 O1_8 1_555 1_555
O12_3 P1_8 1_555 1_555
O4_9 Mn6 1_555 1_555
N3_5 C1_9 1_555 1_555
C2_9 N3_5 1_555 1_555
C3_9 N3_5 1_555 1_555
P2_9 O5_9 1_555 1_555
O8_2 P2_9 1_555 1_555
C4_9 P2_9 1_555 1_555
C5_9 C3_9 1_555 1_555
C6_9 C2_9 1_555 1_555
P2_9 O11_2 1_555 1_555
N4_2 C4_9 1_555 1_555
N4_2 C5_9 1_555 1_555
N4_2 C6_9 1_555 1_555
C2_9 H5_9 1_555 1_555
C2_9 H6_9 1_555 1_555
C1_9 H7_9 1_555 1_555
C1_9 H8_9 1_555 1_555
C3_9 H9_9 1_555 1_555
C3_9 H10_9 1_555 1_555
C5_9 H11_9 1_555 1_555
C5_9 H12_9 1_555 1_555
C4_9 H13_9 1_555 1_555
C4_9 H14_9 1_555 1_555
C6_9 H15_9 1_555 1_555
C6_9 H16_9 1_555 1_555
P1_9 O1_9 1_555 1_555
O12 P1_9 1_555 1_555
O14_9 Mn4_2 1_555 1_555
O14 H1_3 1_555 1_555
O14_2 H1_4 1_555 1_555

#END
