
###############################################################################
#
# This file contains modified crystal structure data generated from the
# MOF subset of the Cambridge Structural Database (CSD) v543 
# hosted by the Cambridge Crystallographic Data Centre (CCDC).
#
# This work is licensed under the Creative Commons
# Attribution-NonCommercial-ShareAlike 4.0 International License.
# To view a copy of this license, visit
# http://creativecommons.org/licenses/by-nc-sa/4.0/
# or send a letter to
# Creative Commons, PO Box 1866, Mountain View, CA 94042, USA.
#
# CIF created using the CSD Python API on 29 September 2022
# The structure has been converted into the P1 space group
# The structure has a 3D framework
# The original CSD entry XESKAJ is in the rhombohedral crystal system
# The framework has been calculated to contain at least 10.0% void space
# The void calculation uses a probe of radius 1.32A, grid spacing 0.4
#
###############################################################################

data_XESKAJ
_chemical_formula_moiety         '(C54 H144 Mg18 N18 O69 P18)n'
_symmetry_cell_setting           triclinic
_symmetry_space_group_name_H-M   'P 1'
_symmetry_Int_Tables_number      1
_space_group_name_Hall           'P 1'
loop_
_symmetry_equiv_pos_site_id
_symmetry_equiv_pos_as_xyz
1 x,y,z
_cell_length_a                   28.1046(8)
_cell_length_b                   28.1046(8)
_cell_length_c                   6.2967(3)
_cell_angle_alpha                90
_cell_angle_beta                 90
_cell_angle_gamma                120
_cell_volume                     4307.23
loop_
_atom_site_label
_atom_site_type_symbol
_atom_site_fract_x
_atom_site_fract_y
_atom_site_fract_z
P1 P 0.04165(4) 0.61889(4) 0.41403(14)
O1 O 0.09501(12) 0.62121(13) 0.4684(4)
O2 O 0.01155(10) 0.62170(10) 0.6131(4)
O3 O 0.04772(10) 0.66238(10) 0.2526(4)
N1 N 0.00818(13) 0.55615(13) 0.0489(5)
C2 C 0.05432(16) 0.54545(15) 0.0149(6)
H3 H 0.0852 0.5708 0.1017
Mg3 Mg 0.03070(5) 0.64192(5) 0.93355(18)
Mg4 Mg 0.02475(5) 0.72211(7) 0.26688(18)
C6 C 0.04054(16) 0.48687(15) 0.0679(6)
H13 H 0.0337 0.4809 0.2192
H14 H 0.0721 0.4829 0.0347
H4 H 0.0657 0.5529 0.8675
O4 O 0.11026(11) 0.66405(11) 0.8618(4)
H7 H 0.1134 0.6514 0.7338
H8 H 0.1435 0.6877 0.8891
Mg7 Mg 0.05545(7) 0.36403(5) 0.39978(18)
O8 O 0.04497(10) 0.72318(14) 0.9464(4)
O12 O 0.05201(14) 0.38105(10) 0.0807(4)
C4 C 0.00545(16) 0.44536(15) 0.7201(6)
H9 H 0.0037 0.4754 0.6521
H10 H 0.0427 0.4522 0.7060
C1 C 0.99455(16) 0.55464(15) 0.2799(6)
H1 H 0.9963 0.5246 0.3479
H2 H 0.9573 0.5478 0.2940
Mg5 Mg 0.94455(7) 0.63597(5) 0.60022(18)
Mg6 Mg 0.96930(5) 0.35808(5) 0.06645(18)
H12 H 0.9343 0.4471 0.1325
C3 C 0.95946(16) 0.51313(15) 0.9321(6)
H5 H 0.9663 0.5191 0.7808
H6 H 0.9279 0.5171 0.9653
Mg8 Mg 0.97525(5) 0.27789(7) 0.73312(18)
P2 P 0.95835(4) 0.38111(4) 0.58597(14)
O5 O 0.90499(12) 0.37879(13) 0.5316(4)
O6 O 0.98845(10) 0.37830(10) 0.3869(4)
O9 O 0.95503(10) 0.27682(14) 0.0536(4)
O10 O 0.95228(10) 0.33762(10) 0.7474(4)
O11 O 0.94799(14) 0.61895(10) 0.9193(4)
N2 N 0.99182(13) 0.44385(13) 0.9511(5)
C5 C 0.94568(16) 0.45455(15) 0.9851(6)
H11 H 0.9148 0.4292 0.8983
O14 O 0.88974(11) 0.33595(11) 0.1382(4)
H15 H 0.8866 0.3486 0.2662
H16 H 0.8565 0.3123 0.1109
P1_2 P 0.38111(4) 0.42276(6) 0.41403(14)
O1_2 O 0.37879(13) 0.47380(18) 0.4684(4)
O2_2 O 0.37830(10) 0.38985(14) 0.6131(4)
O3_2 O 0.33762(10) 0.38534(14) 0.2526(4)
N1_2 N 0.44385(13) 0.45203(18) 0.0489(5)
C1_2 C 0.44536(15) 0.43991(22) 0.2799(6)
H1_2 H 0.4754 0.4717 0.3479
H2_2 H 0.4522 0.4095 0.2940
C2_2 C 0.45455(15) 0.50887(22) 0.0149(6)
H3_2 H 0.4292 0.5144 0.1017
Mg3_2 Mg 0.35808(5) 0.38878(7) 0.93355(18)
Mg4_2 Mg 0.27789(7) 0.30263(9) 0.26688(18)
Mg5_2 Mg 0.36403(5) 0.30859(9) 0.60022(18)
Mg6_2 Mg 0.64192(5) 0.61122(7) 0.06645(18)
H12_2 H 0.5529 0.4872 0.1325
C6_2 C 0.51313(15) 0.55367(22) 0.0679(6)
H13_2 H 0.5191 0.5528 0.2192
H14_2 H 0.5171 0.5892 0.0347
H4_2 H 0.4471 0.5128 0.8675
C3_2 C 0.48687(15) 0.44633(22) 0.9321(6)
H5_2 H 0.4809 0.4472 0.7808
H6_2 H 0.4829 0.4108 0.9653
O4_2 O 0.33595(11) 0.44621(16) 0.8618(4)
H7_2 H 0.3486 0.4620 0.7338
H8_2 H 0.3123 0.4558 0.8891
Mg7_2 Mg 0.63597(5) 0.69141(9) 0.39978(18)
Mg8_2 Mg 0.72211(7) 0.69737(9) 0.73312(18)
P2_2 P 0.61889(4) 0.57724(6) 0.58597(14)
O5_2 O 0.62121(13) 0.52620(18) 0.5316(4)
O6_2 O 0.62170(10) 0.61015(14) 0.3869(4)
O8_2 O 0.27682(14) 0.32178(17) 0.9464(4)
O9_2 O 0.72318(14) 0.67822(17) 0.0536(4)
O10_2 O 0.66238(10) 0.61466(14) 0.7474(4)
O11_2 O 0.38105(10) 0.32905(17) 0.9193(4)
O12_2 O 0.61895(10) 0.67095(17) 0.0807(4)
N2_2 N 0.55615(13) 0.54797(18) 0.9511(5)
C4_2 C 0.55464(15) 0.56009(22) 0.7201(6)
H9_2 H 0.5246 0.5283 0.6521
H10_2 H 0.5478 0.5905 0.7060
C5_2 C 0.54545(15) 0.49113(22) 0.9851(6)
H11_2 H 0.5708 0.4856 0.8983
O14_2 O 0.66405(11) 0.55379(16) 0.1382(4)
H15_2 H 0.6514 0.5380 0.2662
H16_2 H 0.6877 0.5442 0.1109
C1_3 C 0.56009(22) 0.00545(16) 0.2799(6)
H1_3 H 0.5283 0.0037 0.3479
H2_3 H 0.5905 0.0427 0.2940
Mg5_3 Mg 0.69141(9) 0.05545(7) 0.60022(18)
Mg6_3 Mg 0.38878(7) 0.03070(5) 0.06645(18)
H12_3 H 0.5128 0.0657 0.1325
C3_3 C 0.55367(22) 0.04054(16) 0.9321(6)
H5_3 H 0.5528 0.0337 0.7808
H6_3 H 0.5892 0.0721 0.9653
Mg8_3 Mg 0.30263(9) 0.02475(5) 0.73312(18)
P2_3 P 0.42276(6) 0.04165(4) 0.58597(14)
O5_3 O 0.47380(18) 0.09501(12) 0.5316(4)
O6_3 O 0.38985(14) 0.01155(10) 0.3869(4)
O9_3 O 0.32178(17) 0.04497(10) 0.0536(4)
O10_3 O 0.38534(14) 0.04772(10) 0.7474(4)
O11_3 O 0.67095(17) 0.05201(14) 0.9193(4)
N2_3 N 0.45203(18) 0.00818(13) 0.9511(5)
C5_3 C 0.50887(22) 0.05432(16) 0.9851(6)
H11_3 H 0.5144 0.0852 0.8983
O14_3 O 0.44621(16) 0.11026(11) 0.1382(4)
H15_3 H 0.4620 0.1134 0.2662
H16_3 H 0.4558 0.1435 0.1109
P1_3 P 0.57724(6) 0.95835(4) 0.41403(14)
O1_3 O 0.52620(18) 0.90499(12) 0.4684(4)
O2_3 O 0.61015(14) 0.98845(10) 0.6131(4)
O3_3 O 0.61466(14) 0.95228(10) 0.2526(4)
N1_3 N 0.54797(18) 0.99182(13) 0.0489(5)
C2_3 C 0.49113(22) 0.94568(16) 0.0149(6)
H3_3 H 0.4856 0.9148 0.1017
Mg3_3 Mg 0.61122(7) 0.96930(5) 0.93355(18)
Mg4_3 Mg 0.69737(9) 0.97525(5) 0.26688(18)
C6_3 C 0.44633(22) 0.95946(16) 0.0679(6)
H13_3 H 0.4472 0.9663 0.2192
H14_3 H 0.4108 0.9279 0.0347
H4_3 H 0.4872 0.9343 0.8675
O4_3 O 0.55379(16) 0.88974(11) 0.8618(4)
H7_3 H 0.5380 0.8866 0.7338
H8_3 H 0.5442 0.8565 0.8891
Mg7_3 Mg 0.30859(9) 0.94455(7) 0.39978(18)
O8_3 O 0.67822(17) 0.95503(10) 0.9464(4)
O12_3 O 0.32905(17) 0.94799(14) 0.0807(4)
C4_3 C 0.43991(22) 0.99455(16) 0.7201(6)
H9_3 H 0.4717 0.9963 0.6521
H10_3 H 0.4095 0.9573 0.7060
H8_4 H 0.8102 0.0210 0.2224
O8_4 O 0.71163(10) 0.05652(14) 0.2798(4)
P1_4 P 0.70832(4) 0.95222(4) 0.74736(14)
O1_4 O 0.76168(12) 0.95454(13) 0.8017(4)
O3_4 O 0.71439(10) 0.99571(10) 0.5859(4)
N1_4 N 0.67485(13) 0.88948(13) 0.3822(5)
C1_4 C 0.66122(16) 0.88797(15) 0.6132(6)
H1_4 H 0.6630 0.8579 0.6812
H2_4 H 0.6240 0.8811 0.6273
C2_4 C 0.72099(16) 0.87878(15) 0.3482(6)
H3_4 H 0.7519 0.9041 0.4350
H4_4 H 0.7324 0.8862 0.2008
C3_4 C 0.62613(16) 0.84646(15) 0.2654(6)
H5_4 H 0.6330 0.8524 0.1141
H6_4 H 0.5946 0.8504 0.2986
O4_4 O 0.77693(11) 0.99738(11) 0.1951(4)
H7_4 H 0.7801 0.9847 0.0671
N2_4 N 0.65849(13) 0.77718(13) 0.2844(5)
C4_4 C 0.67212(16) 0.77869(15) 0.0534(6)
H10_4 H 0.7094 0.7855 0.0393
C5_4 C 0.61235(16) 0.78788(15) 0.3184(6)
H11_4 H 0.5815 0.7625 0.2316
H12_4 H 0.6010 0.7804 0.4658
C6_4 C 0.70721(16) 0.82020(15) 0.4012(6)
H13_4 H 0.7004 0.8142 0.5525
H14_4 H 0.7388 0.8162 0.3680
P2_4 P 0.62502(4) 0.71444(4) 0.91930(14)
O5_4 O 0.57166(12) 0.71212(13) 0.8649(4)
O6_4 O 0.65512(10) 0.71163(10) 0.7202(4)
O12_4 O 0.71867(14) 0.71439(10) 0.4141(4)
H9_4 H 0.6704 0.8087 0.9854
O14_4 O 0.55641(11) 0.66928(11) 0.4715(4)
H15_4 H 0.5533 0.6819 0.5995
H16_4 H 0.5232 0.6456 0.4442
O12_5 O 0.28561(10) 0.00429(17) 0.4141(4)
P1_5 P 0.04778(4) 0.75609(6) 0.74736(14)
O1_5 O 0.04546(13) 0.80713(18) 0.8017(4)
O3_5 O 0.00429(10) 0.71867(14) 0.5859(4)
N1_5 N 0.11052(13) 0.78536(18) 0.3822(5)
C1_5 C 0.11203(15) 0.77324(22) 0.6132(6)
H1_5 H 0.1421 0.8050 0.6812
H2_5 H 0.1189 0.7428 0.6273
C2_5 C 0.12122(15) 0.84220(22) 0.3482(6)
H3_5 H 0.0959 0.8477 0.4350
H4_5 H 0.1138 0.8461 0.2008
C3_5 C 0.15354(15) 0.77966(22) 0.2654(6)
H5_5 H 0.1476 0.7805 0.1141
H6_5 H 0.1496 0.7441 0.2986
O4_5 O 0.00262(11) 0.77954(16) 0.1951(4)
H7_5 H 0.0153 0.7953 0.0671
N2_5 N 0.22282(13) 0.88130(18) 0.2844(5)
C4_5 C 0.22131(15) 0.89342(22) 0.0534(6)
H10_5 H 0.2145 0.9238 0.0393
C5_5 C 0.21212(15) 0.82446(22) 0.3184(6)
H11_5 H 0.2375 0.8189 0.2316
H12_5 H 0.2196 0.8205 0.4658
C6_5 C 0.17980(15) 0.88700(22) 0.4012(6)
H13_5 H 0.1858 0.8861 0.5525
H14_5 H 0.1838 0.9225 0.3680
P2_5 P 0.28556(4) 0.91057(6) 0.91930(14)
O5_5 O 0.28788(13) 0.85953(18) 0.8649(4)
O6_5 O 0.28837(10) 0.94348(14) 0.7202(4)
H9_5 H 0.1913 0.8616 0.9854
O14_5 O 0.33072(11) 0.88712(16) 0.4715(4)
H15_5 H 0.3181 0.8713 0.5995
H16_5 H 0.3544 0.8775 0.4442
H8_5 H 0.9790 0.7891 0.2224
O8_5 O 0.94348(14) 0.65512(17) 0.2798(4)
P1_6 P 0.24391(6) 0.29168(4) 0.74736(14)
O1_6 O 0.19287(18) 0.23832(12) 0.8017(4)
O3_6 O 0.28133(14) 0.28561(10) 0.5859(4)
N1_6 N 0.21464(18) 0.32515(13) 0.3822(5)
C1_6 C 0.22676(22) 0.33878(16) 0.6132(6)
H1_6 H 0.1950 0.3370 0.6812
H2_6 H 0.2572 0.3760 0.6273
C2_6 C 0.15780(22) 0.27901(16) 0.3482(6)
H3_6 H 0.1523 0.2481 0.4350
H4_6 H 0.1539 0.2676 0.2008
C3_6 C 0.22034(22) 0.37387(16) 0.2654(6)
H5_6 H 0.2195 0.3670 0.1141
H6_6 H 0.2559 0.4054 0.2986
O4_6 O 0.22046(16) 0.22307(11) 0.1951(4)
H7_6 H 0.2047 0.2199 0.0671
H8_6 H 0.2109 0.1898 0.2224
O8_6 O 0.34488(17) 0.28837(10) 0.2798(4)
N2_6 N 0.11870(18) 0.34151(13) 0.2844(5)
C4_6 C 0.10658(22) 0.32788(16) 0.0534(6)
H10_6 H 0.0762 0.2906 0.0393
C5_6 C 0.17554(22) 0.38765(16) 0.3184(6)
H11_6 H 0.1811 0.4185 0.2316
H12_6 H 0.1795 0.3990 0.4658
C6_6 C 0.11300(22) 0.29279(16) 0.4012(6)
H13_6 H 0.1139 0.2996 0.5525
H14_6 H 0.0775 0.2612 0.3680
P2_6 P 0.08943(6) 0.37498(4) 0.91930(14)
O5_6 O 0.14047(18) 0.42834(12) 0.8649(4)
O6_6 O 0.05652(14) 0.34488(10) 0.7202(4)
H9_6 H 0.1384 0.3296 0.9854
O14_6 O 0.11288(16) 0.44359(11) 0.4715(4)
H15_6 H 0.1287 0.4467 0.5995
H16_6 H 0.1225 0.4768 0.4442
O12_6 O 0.99571(17) 0.28133(14) 0.4141(4)
P1_7 P 0.37498(4) 0.28556(4) 0.08070(14)
O1_7 O 0.42834(12) 0.28788(13) 0.1351(4)
H1_7 H 0.3296 0.1913 0.0146
N1_7 N 0.34151(13) 0.22282(13) 0.7156(5)
C1_7 C 0.32788(16) 0.22131(15) 0.9466(6)
H2_7 H 0.2906 0.2145 0.9607
C2_7 C 0.38765(16) 0.21212(15) 0.6816(6)
H3_7 H 0.4185 0.2375 0.7684
H4_7 H 0.3990 0.2196 0.5342
C3_7 C 0.29279(16) 0.17980(15) 0.5988(6)
H5_7 H 0.2996 0.1858 0.4475
H6_7 H 0.2612 0.1838 0.6320
O4_7 O 0.44359(11) 0.33072(11) 0.5285(4)
H7_7 H 0.4467 0.3181 0.4005
H8_7 H 0.4768 0.3544 0.5558
P2_7 P 0.29168(4) 0.04778(4) 0.25264(14)
O5_7 O 0.23832(12) 0.04546(13) 0.1983(4)
N2_7 N 0.32515(13) 0.11052(13) 0.6178(5)
C4_7 C 0.33878(16) 0.11203(15) 0.3868(6)
H9_7 H 0.3370 0.1421 0.3188
H10_7 H 0.3760 0.1189 0.3727
C5_7 C 0.27901(16) 0.12122(15) 0.6518(6)
H11_7 H 0.2481 0.0959 0.5650
H12_7 H 0.2676 0.1138 0.7992
C6_7 C 0.37387(16) 0.15354(15) 0.7346(6)
H13_7 H 0.3670 0.1476 0.8859
H14_7 H 0.4054 0.1496 0.7014
O14_7 O 0.22307(11) 0.00262(11) 0.8049(4)
H15_7 H 0.2199 0.0153 0.9329
H16_7 H 0.1898 0.9790 0.7776
H16_8 H 0.0210 0.2109 0.7776
P1_8 P 0.71444(4) 0.08943(6) 0.08070(14)
O1_8 O 0.71212(13) 0.14047(18) 0.1351(4)
H1_8 H 0.8087 0.1384 0.0146
N1_8 N 0.77718(13) 0.11870(18) 0.7156(5)
C1_8 C 0.77869(15) 0.10658(22) 0.9466(6)
H2_8 H 0.7855 0.0762 0.9607
C2_8 C 0.78788(15) 0.17554(22) 0.6816(6)
H3_8 H 0.7625 0.1811 0.7684
H4_8 H 0.7804 0.1795 0.5342
C3_8 C 0.82020(15) 0.11300(22) 0.5988(6)
H5_8 H 0.8142 0.1139 0.4475
H6_8 H 0.8162 0.0775 0.6320
O4_8 O 0.66928(11) 0.11288(16) 0.5285(4)
H7_8 H 0.6819 0.1287 0.4005
H8_8 H 0.6456 0.1225 0.5558
P2_8 P 0.95222(4) 0.24391(6) 0.25264(14)
O5_8 O 0.95454(13) 0.19287(18) 0.1983(4)
N2_8 N 0.88948(13) 0.21464(18) 0.6178(5)
C4_8 C 0.88797(15) 0.22676(22) 0.3868(6)
H9_8 H 0.8579 0.1950 0.3188
H10_8 H 0.8811 0.2572 0.3727
C5_8 C 0.87878(15) 0.15780(22) 0.6518(6)
H11_8 H 0.9041 0.1523 0.5650
H12_8 H 0.8862 0.1539 0.7992
C6_8 C 0.84646(15) 0.22034(22) 0.7346(6)
H13_8 H 0.8524 0.2195 0.8859
H14_8 H 0.8504 0.2559 0.7014
O14_8 O 0.99738(11) 0.22046(16) 0.8049(4)
H15_8 H 0.9847 0.2047 0.9329
P1_9 P 0.91057(6) 0.62502(4) 0.08070(14)
O1_9 O 0.85953(18) 0.57166(12) 0.1351(4)
H1_9 H 0.8616 0.6704 0.0146
N1_9 N 0.88130(18) 0.65849(13) 0.7156(5)
C1_9 C 0.89342(22) 0.67212(16) 0.9466(6)
H2_9 H 0.9238 0.7094 0.9607
C2_9 C 0.82446(22) 0.61235(16) 0.6816(6)
H3_9 H 0.8189 0.5815 0.7684
H4_9 H 0.8205 0.6010 0.5342
C3_9 C 0.88700(22) 0.70721(16) 0.5988(6)
H5_9 H 0.8861 0.7004 0.4475
H6_9 H 0.9225 0.7388 0.6320
O4_9 O 0.88712(16) 0.55641(11) 0.5285(4)
H7_9 H 0.8713 0.5533 0.4005
H8_9 H 0.8775 0.5232 0.5558
P2_9 P 0.75609(6) 0.70832(4) 0.25264(14)
O5_9 O 0.80713(18) 0.76168(12) 0.1983(4)
N2_9 N 0.78536(18) 0.67485(13) 0.6178(5)
C4_9 C 0.77324(22) 0.66122(16) 0.3868(6)
H9_9 H 0.8050 0.6630 0.3188
H10_9 H 0.7428 0.6240 0.3727
C5_9 C 0.84220(22) 0.72099(16) 0.6518(6)
H11_9 H 0.8477 0.7519 0.5650
H12_9 H 0.8461 0.7324 0.7992
C6_9 C 0.77966(22) 0.62613(16) 0.7346(6)
H13_9 H 0.7805 0.6330 0.8859
H14_9 H 0.7441 0.5946 0.7014
O14_9 O 0.77954(16) 0.77693(11) 0.8049(4)
H15_9 H 0.7953 0.7801 0.9329
H16_9 H 0.7891 0.8102 0.7776
loop_
_geom_bond_atom_site_label_1
_geom_bond_atom_site_label_2
_geom_bond_site_symmetry_1
_geom_bond_site_symmetry_2
P1 O1 1_555 1_555
O2 P1 1_555 1_555
O3 P1 1_555 1_555
C2 N1 1_555 1_555
H3 C2 1_555 1_555
Mg3 O2 1_555 1_555
Mg4 O3 1_555 1_555
C6 C2 1_555 1_555
H13 C6 1_555 1_555
H14 C6 1_555 1_555
O4 Mg3 1_555 1_555
H7 O4 1_555 1_555
H8 O4 1_555 1_555
O8 Mg3 1_555 1_555
H9 C4 1_555 1_555
H10 C4 1_555 1_555
Mg7 O12 1_555 1_555
H1 C1 1_555 1_555
H2 C1 1_555 1_555
H5 C3 1_555 1_555
H6 C3 1_555 1_555
Mg6 O6 1_555 1_555
Mg8 O10 1_555 1_555
P2 O5 1_555 1_555
O6 P2 1_555 1_555
O9 Mg6 1_555 1_555
O10 P2 1_555 1_555
C5 C3 1_555 1_555
H11 C5 1_555 1_555
O14 Mg6 1_555 1_555
H15 O14 1_555 1_555
H16 O14 1_555 1_555
N2 C5 1_555 1_555
P1_2 O1_2 1_555 1_555
O2_2 P1_2 1_555 1_555
O3_2 P1_2 1_555 1_555
C1_2 P1_2 1_555 1_555
H1_2 C1_2 1_555 1_555
H2_2 C1_2 1_555 1_555
C2_2 N1_2 1_555 1_555
H3_2 C2_2 1_555 1_555
Mg3_2 O2_2 1_555 1_555
Mg4_2 O3_2 1_555 1_555
Mg5_2 O2_2 1_555 1_555
C6_2 C2_2 1_555 1_555
H13_2 C6_2 1_555 1_555
H14_2 C6_2 1_555 1_555
N1_2 C1_2 1_555 1_555
H5_2 C3_2 1_555 1_555
H6_2 C3_2 1_555 1_555
O4_2 Mg3_2 1_555 1_555
H7_2 O4_2 1_555 1_555
H8_2 O4_2 1_555 1_555
Mg6_2 O6_2 1_555 1_555
Mg7_2 O6_2 1_555 1_555
Mg8_2 O10_2 1_555 1_555
P2_2 O5_2 1_555 1_555
O6_2 P2_2 1_555 1_555
O8_2 Mg3_2 1_555 1_555
O9_2 Mg6_2 1_555 1_555
O10_2 P2_2 1_555 1_555
O11_2 Mg3_2 1_555 1_555
O12_2 Mg6_2 1_555 1_555
C4_2 P2_2 1_555 1_555
H9_2 C4_2 1_555 1_555
H10_2 C4_2 1_555 1_555
C5_2 C3_2 1_555 1_555
H11_2 C5_2 1_555 1_555
O14_2 Mg6_2 1_555 1_555
H15_2 O14_2 1_555 1_555
H16_2 O14_2 1_555 1_555
Mg7_2 O12_2 1_555 1_555
N2_2 C4_2 1_555 1_555
N2_2 C5_2 1_555 1_555
H1_3 C1_3 1_555 1_555
H2_3 C1_3 1_555 1_555
H5_3 C3_3 1_555 1_555
H6_3 C3_3 1_555 1_555
Mg6_3 O6_3 1_555 1_555
Mg8_3 O10_3 1_555 1_555
P2_3 O5_3 1_555 1_555
O6_3 P2_3 1_555 1_555
O9_3 Mg6_3 1_555 1_555
O10_3 P2_3 1_555 1_555
C5_3 C3_3 1_555 1_555
H11_3 C5_3 1_555 1_555
O14_3 Mg6_3 1_555 1_555
H15_3 O14_3 1_555 1_555
H16_3 O14_3 1_555 1_555
N2_3 C5_3 1_555 1_555
P1_3 O1_3 1_555 1_555
O2_3 P1_3 1_555 1_555
O3_3 P1_3 1_555 1_555
C2_3 N1_3 1_555 1_555
H3_3 C2_3 1_555 1_555
Mg3_3 O2_3 1_555 1_555
Mg4_3 O3_3 1_555 1_555
C6_3 C2_3 1_555 1_555
H13_3 C6_3 1_555 1_555
H14_3 C6_3 1_555 1_555
O4_3 Mg3_3 1_555 1_555
H7_3 O4_3 1_555 1_555
H8_3 O4_3 1_555 1_555
O8_3 Mg3_3 1_555 1_555
H9_3 C4_3 1_555 1_555
H10_3 C4_3 1_555 1_555
Mg7_3 O12_3 1_555 1_555
Mg5_3 O8_4 1_555 1_555
Mg4_3 O3_4 1_555 1_555
P1_4 O1_4 1_555 1_555
O8_3 P1_4 1_555 1_555
O3_4 P1_4 1_555 1_555
N1_4 Mg4_3 1_555 1_555
C1_4 P1_4 1_555 1_555
H1_4 C1_4 1_555 1_555
H2_4 C1_4 1_555 1_555
C2_4 N1_4 1_555 1_555
H3_4 C2_4 1_555 1_555
H4_4 C2_4 1_555 1_555
C3_4 N1_4 1_555 1_555
H5_4 C3_4 1_555 1_555
H6_4 C3_4 1_555 1_555
O4_4 Mg4_3 1_555 1_555
H7_4 O4_4 1_555 1_555
N2_4 Mg7_2 1_555 1_555
H10_4 C4_4 1_555 1_555
C5_4 C3_4 1_555 1_555
H11_4 C5_4 1_555 1_555
H12_4 C5_4 1_555 1_555
C6_4 C2_4 1_555 1_555
H13_4 C6_4 1_555 1_555
H14_4 C6_4 1_555 1_555
N1_4 C1_4 1_555 1_555
N2_4 C4_4 1_555 1_555
N2_4 C5_4 1_555 1_555
N2_4 C6_4 1_555 1_555
Mg7_2 O6_4 1_555 1_555
Mg8_2 O6_4 1_555 1_555
P2_4 O5_4 1_555 1_555
O6_4 P2_4 1_555 1_555
O12_4 Mg7_2 1_555 1_555
O14_4 Mg7_2 1_555 1_555
H15_4 O14_4 1_555 1_555
H16_4 O14_4 1_555 1_555
Mg8_2 O12_4 1_555 1_555
Mg8_3 O12_5 1_555 1_555
Mg4 O3_5 1_555 1_555
P1_5 O1_5 1_555 1_555
O8 P1_5 1_555 1_555
O3_5 P1_5 1_555 1_555
N1_5 Mg4 1_555 1_555
C1_5 P1_5 1_555 1_555
H1_5 C1_5 1_555 1_555
H2_5 C1_5 1_555 1_555
C2_5 N1_5 1_555 1_555
H3_5 C2_5 1_555 1_555
H4_5 C2_5 1_555 1_555
C3_5 N1_5 1_555 1_555
H5_5 C3_5 1_555 1_555
H6_5 C3_5 1_555 1_555
O4_5 Mg4 1_555 1_555
H7_5 O4_5 1_555 1_555
N2_5 Mg7_3 1_555 1_555
H10_5 C4_5 1_555 1_555
C5_5 C3_5 1_555 1_555
H11_5 C5_5 1_555 1_555
H12_5 C5_5 1_555 1_555
C6_5 C2_5 1_555 1_555
H13_5 C6_5 1_555 1_555
H14_5 C6_5 1_555 1_555
N1_5 C1_5 1_555 1_555
N2_5 C4_5 1_555 1_555
N2_5 C5_5 1_555 1_555
N2_5 C6_5 1_555 1_555
Mg7_3 O6_5 1_555 1_555
P2_5 O5_5 1_555 1_555
O6_5 P2_5 1_555 1_555
O14_5 Mg7_3 1_555 1_555
H15_5 O14_5 1_555 1_555
H16_5 O14_5 1_555 1_555
Mg5 O8_5 1_555 1_555
Mg4_2 O3_6 1_555 1_555
P1_6 O1_6 1_555 1_555
O8_2 P1_6 1_555 1_555
O3_6 P1_6 1_555 1_555
N1_6 Mg4_2 1_555 1_555
C1_6 P1_6 1_555 1_555
H1_6 C1_6 1_555 1_555
H2_6 C1_6 1_555 1_555
C2_6 N1_6 1_555 1_555
H3_6 C2_6 1_555 1_555
H4_6 C2_6 1_555 1_555
C3_6 N1_6 1_555 1_555
H5_6 C3_6 1_555 1_555
H6_6 C3_6 1_555 1_555
O4_6 Mg4_2 1_555 1_555
H7_6 O4_6 1_555 1_555
H8_6 O4_6 1_555 1_555
Mg5_2 O3_6 1_555 1_555
O8_6 Mg4_2 1_555 1_555
N2_6 Mg7 1_555 1_555
H10_6 C4_6 1_555 1_555
C5_6 C3_6 1_555 1_555
H11_6 C5_6 1_555 1_555
H12_6 C5_6 1_555 1_555
C6_6 C2_6 1_555 1_555
H13_6 C6_6 1_555 1_555
H14_6 C6_6 1_555 1_555
N1_6 C1_6 1_555 1_555
Mg5_2 O8_6 1_555 1_555
N2_6 C4_6 1_555 1_555
N2_6 C5_6 1_555 1_555
N2_6 C6_6 1_555 1_555
Mg7 O6_6 1_555 1_555
P2_6 O5_6 1_555 1_555
O6_6 P2_6 1_555 1_555
O14_6 Mg7 1_555 1_555
H15_6 O14_6 1_555 1_555
H16_6 O14_6 1_555 1_555
Mg8 O12_6 1_555 1_555
P1_7 O1_7 1_555 1_555
O8_6 P1_7 1_555 1_555
Mg5_2 O11_2 1_555 1_555
N1_7 Mg5_2 1_555 1_555
H2_7 C1_7 1_555 1_555
C2_7 N1_7 1_555 1_555
H3_7 C2_7 1_555 1_555
H4_7 C2_7 1_555 1_555
C3_7 N1_7 1_555 1_555
H5_7 C3_7 1_555 1_555
H6_7 C3_7 1_555 1_555
O4_7 Mg5_2 1_555 1_555
H7_7 O4_7 1_555 1_555
H8_7 O4_7 1_555 1_555
P2_7 O5_7 1_555 1_555
O9_3 P2_7 1_555 1_555
O12_5 P2_7 1_555 1_555
N2_7 Mg8_3 1_555 1_555
C4_7 P2_7 1_555 1_555
H9_7 C4_7 1_555 1_555
H10_7 C4_7 1_555 1_555
C5_7 C3_7 1_555 1_555
H11_7 C5_7 1_555 1_555
H12_7 C5_7 1_555 1_555
C6_7 C2_7 1_555 1_555
H13_7 C6_7 1_555 1_555
H14_7 C6_7 1_555 1_555
N1_7 C1_7 1_555 1_555
N2_7 C4_7 1_555 1_555
N2_7 C5_7 1_555 1_555
N2_7 C6_7 1_555 1_555
O14_7 Mg8_3 1_555 1_555
H15_7 O14_7 1_555 1_555
P1_8 O1_8 1_555 1_555
O8_4 P1_8 1_555 1_555
Mg5_3 O11_3 1_555 1_555
N1_8 Mg5_3 1_555 1_555
H2_8 C1_8 1_555 1_555
C2_8 N1_8 1_555 1_555
H3_8 C2_8 1_555 1_555
H4_8 C2_8 1_555 1_555
C3_8 N1_8 1_555 1_555
H5_8 C3_8 1_555 1_555
H6_8 C3_8 1_555 1_555
O4_8 Mg5_3 1_555 1_555
H7_8 O4_8 1_555 1_555
H8_8 O4_8 1_555 1_555
P2_8 O5_8 1_555 1_555
O9 P2_8 1_555 1_555
O12_6 P2_8 1_555 1_555
N2_8 Mg8 1_555 1_555
C4_8 P2_8 1_555 1_555
H9_8 C4_8 1_555 1_555
H10_8 C4_8 1_555 1_555
C5_8 C3_8 1_555 1_555
H11_8 C5_8 1_555 1_555
H12_8 C5_8 1_555 1_555
C6_8 C2_8 1_555 1_555
H13_8 C6_8 1_555 1_555
H14_8 C6_8 1_555 1_555
N1_8 C1_8 1_555 1_555
N2_8 C4_8 1_555 1_555
N2_8 C5_8 1_555 1_555
N2_8 C6_8 1_555 1_555
O14_8 Mg8 1_555 1_555
H15_8 O14_8 1_555 1_555
P1_9 O1_9 1_555 1_555
O8_5 P1_9 1_555 1_555
Mg5 O11 1_555 1_555
N1_9 Mg5 1_555 1_555
H2_9 C1_9 1_555 1_555
C2_9 N1_9 1_555 1_555
H3_9 C2_9 1_555 1_555
H4_9 C2_9 1_555 1_555
C3_9 N1_9 1_555 1_555
H5_9 C3_9 1_555 1_555
H6_9 C3_9 1_555 1_555
O4_9 Mg5 1_555 1_555
H7_9 O4_9 1_555 1_555
H8_9 O4_9 1_555 1_555
P2_9 O5_9 1_555 1_555
O9_2 P2_9 1_555 1_555
O12_4 P2_9 1_555 1_555
N2_9 Mg8_2 1_555 1_555
C4_9 P2_9 1_555 1_555
H9_9 C4_9 1_555 1_555
H10_9 C4_9 1_555 1_555
C5_9 C3_9 1_555 1_555
H11_9 C5_9 1_555 1_555
H12_9 C5_9 1_555 1_555
C6_9 C2_9 1_555 1_555
H13_9 C6_9 1_555 1_555
H14_9 C6_9 1_555 1_555
N1_9 C1_9 1_555 1_555
N2_9 C4_9 1_555 1_555
N2_9 C5_9 1_555 1_555
N2_9 C6_9 1_555 1_555
O14_9 Mg8_2 1_555 1_555
H15_9 O14_9 1_555 1_555
H16_9 O14_9 1_555 1_555

#END
