
###############################################################################
#
# This file contains modified crystal structure data generated from the
# MOF subset of the Cambridge Structural Database (CSD) v543 
# hosted by the Cambridge Crystallographic Data Centre (CCDC).
#
# This work is licensed under the Creative Commons
# Attribution-NonCommercial-ShareAlike 4.0 International License.
# To view a copy of this license, visit
# http://creativecommons.org/licenses/by-nc-sa/4.0/
# or send a letter to
# Creative Commons, PO Box 1866, Mountain View, CA 94042, USA.
#
# CIF created using the CSD Python API on 29 September 2022
# The structure has been converted into the P1 space group
# The structure has a 3D framework
# The original CSD entry XESLAK is in the rhombohedral crystal system
# The framework has been calculated to contain at least 10.0% void space
# The void calculation uses a probe of radius 1.32A, grid spacing 0.4
# H atom positions have been added when not included in the experimental data
# Generated hydrogen atom positions removed from atoms on special positions
#
###############################################################################

data_XESLAK
_chemical_formula_moiety         '(C54 H162 Co18 N18 O67 P18)n'
_symmetry_cell_setting           triclinic
_symmetry_space_group_name_H-M   'P 1'
_symmetry_Int_Tables_number      1
_space_group_name_Hall           'P 1'
loop_
_symmetry_equiv_pos_site_id
_symmetry_equiv_pos_as_xyz
1 x,y,z
_cell_length_a                   28.0942(19)
_cell_length_b                   28.0942(19)
_cell_length_c                   6.28460(34)
_cell_angle_alpha                90
_cell_angle_beta                 90
_cell_angle_gamma                120
_cell_volume                     4295.78
loop_
_atom_site_label
_atom_site_type_symbol
_atom_site_fract_x
_atom_site_fract_y
_atom_site_fract_z
_atom_site_U_iso_or_equiv
_atom_site_thermal_displace_type
C2 C 0.4975(8) 0.0508(5) 0.001(5) 0.0117 Uiso
Co3 Co 0.39235(52) 0.0265(4) 0.0501(15) 0.0117 Uiso
Co8 Co 0.69915(34) 0.05901(52) 0.6165(15) 0.0117 Uiso
O10 O 0.3304(4) 0.0488(6) 0.0509(18) 0.0117 Uiso
O13 O 0.7154(6) 0.0517(4) 0.2825(18) 0.0117 Uiso
N2 N 0.55221(34) 0.0056(6) 0.0443(26) 0.0117 Uiso
C4 C 0.5606(13) 0.0153(10) 0.2827(27) 0.0117 Uiso
H5 H 0.501064 0.0588581 0.171437 . .
H7 H 0.79491 0.0207639 0.168836 . .
H15 H 0.593981 0.0572245 0.30721 . .
H16 H 0.522816 0.0107877 0.349756 . .
Co1 Co 0.3068(4) 0.03248(34) 0.7168(15) 0.0117 Uiso
P1 P 0.4224(5) 0.0310(7) 0.5705(19) 0.0117 Uiso
O1 O 0.4747(6) 0.0825(8) 0.522(4) 0.0117 Uiso
O2 O 0.3896(4) 0.0445(5) 0.7185(19) 0.0117 Uiso
O3 O 0.3850(4) 0.0029(4) 0.3842(18) 0.0117 Uiso
O4 O 0.2281(7) 0.0175(7) 0.779(4) 0.0240 Uiso
O7 O 0.2888(5) 0.0118(6) 0.3852(19) 0.0117 Uiso
N3 N 0.3389(6) 0.12006(69) 0.6224(26) 0.0117 Uiso
C6 C 0.5485(6) 0.0503(7) 0.920(4) 0.0117 Uiso
H6 H 0.493059 0.0824764 0.918724 . .
H9 H 0.229645 0.0435817 0.889132 . .
H10 H 0.211826 0.0224987 0.646532 . .
H11 H 0.585047 0.0900666 0.947852 . .
H12 H 0.544566 0.0410389 0.750498 . .
C3 C 0.4515(6) 0.9497(7) 0.080(4) 0.0117 Uiso
Co2 Co 0.6932(4) 0.96752(34) 0.2832(15) 0.0117 Uiso
Co7 Co 0.60765(52) 0.9735(4) 0.9499(15) 0.0117 Uiso
P2 P 0.5776(5) 0.9690(7) 0.4295(19) 0.0117 Uiso
O5 O 0.5253(6) 0.9175(8) 0.478(4) 0.0117 Uiso
O6 O 0.6104(4) 0.9555(5) 0.2815(19) 0.0117 Uiso
O8 O 0.7112(5) 0.9882(6) 0.6148(19) 0.0117 Uiso
O9 O 0.6150(4) 0.9971(4) 0.6158(18) 0.0117 Uiso
O14 O 0.7719(7) 0.9825(7) 0.221(4) 0.0240 Uiso
N4 N 0.6611(6) 0.87994(69) 0.3776(26) 0.0117 Uiso
H1 H 0.414953 0.909933 0.0521485 . .
H2 H 0.455434 0.958961 0.249502 . .
H8 H 0.788174 0.977501 0.353468 . .
H14 H 0.506941 0.917524 0.0812763 . .
N1 N 0.44779(34) 0.9944(6) 0.9557(26) 0.0117 Uiso
C1 C 0.4394(13) 0.9847(10) 0.7173(27) 0.0117 Uiso
Co5 Co 0.30085(34) 0.94099(52) 0.3835(15) 0.0117 Uiso
O11 O 0.2846(6) 0.9483(4) 0.7175(18) 0.0117 Uiso
O12 O 0.6696(4) 0.9512(6) 0.9491(18) 0.0117 Uiso
C5 C 0.5025(8) 0.9492(5) 0.999(5) 0.0117 Uiso
H3 H 0.477184 0.989212 0.650244 . .
H4 H 0.406019 0.942775 0.69279 . .
H13 H 0.498936 0.941142 0.828563 . .
C3_2 C 0.0503(7) 0.5018(9) 0.080(4) 0.0117 Uiso
Co2_2 Co 0.03248(34) 0.72568(52) 0.2832(15) 0.0117 Uiso
Co7_2 Co 0.0265(4) 0.63419(66) 0.9499(15) 0.0117 Uiso
P2_2 P 0.0310(7) 0.6086(9) 0.4295(19) 0.0117 Uiso
O5_2 O 0.0825(8) 0.6078(10) 0.478(4) 0.0117 Uiso
O6_2 O 0.0445(5) 0.6549(6) 0.2815(19) 0.0117 Uiso
O8_2 O 0.0118(6) 0.7229(8) 0.6148(19) 0.0117 Uiso
O9_2 O 0.0029(4) 0.6179(6) 0.6158(18) 0.0117 Uiso
O14_2 O 0.0175(7) 0.7894(10) 0.221(4) 0.0240 Uiso
N4_2 N 0.12006(69) 0.78112(91) 0.3776(26) 0.0117 Uiso
H1_2 H 0.0900666 0.50502 0.0521485 . .
H2_2 H 0.0410389 0.496473 0.249502 . .
H8_2 H 0.0224987 0.810673 0.353468 . .
H14_2 H 0.0824764 0.589417 0.0812763 . .
N1_2 N 0.0056(6) 0.45339(69) 0.9557(26) 0.0117 Uiso
C1_2 C 0.0153(10) 0.4547(16) 0.7173(27) 0.0117 Uiso
Co5_2 Co 0.05901(52) 0.35987(62) 0.3835(15) 0.0117 Uiso
O11_2 O 0.0517(4) 0.3362(7) 0.7175(18) 0.0117 Uiso
O12_2 O 0.0488(6) 0.7183(7) 0.9491(18) 0.0117 Uiso
C5_2 C 0.0508(5) 0.5533(9) 0.999(5) 0.0117 Uiso
H3_2 H 0.0107877 0.487972 0.650244 . .
H4_2 H 0.0572245 0.463244 0.69279 . .
H13_2 H 0.0588581 0.557794 0.828563 . .
C2_2 C 0.9492(5) 0.4467(9) 0.001(5) 0.0117 Uiso
Co3_2 Co 0.9735(4) 0.36581(66) 0.0501(15) 0.0117 Uiso
Co8_2 Co 0.94099(52) 0.64013(62) 0.6165(15) 0.0117 Uiso
O10_2 O 0.9512(6) 0.2817(7) 0.0509(18) 0.0117 Uiso
O13_2 O 0.9483(4) 0.6638(7) 0.2825(18) 0.0117 Uiso
N2_2 N 0.9944(6) 0.54661(69) 0.0443(26) 0.0117 Uiso
C4_2 C 0.9847(10) 0.5453(16) 0.2827(27) 0.0117 Uiso
H5_2 H 0.941142 0.442206 0.171437 . .
H7_2 H 0.979236 0.774146 0.168836 . .
H15_2 H 0.942775 0.536756 0.30721 . .
H16_2 H 0.989212 0.512028 0.349756 . .
Co1_2 Co 0.96752(34) 0.27432(52) 0.7168(15) 0.0117 Uiso
P1_2 P 0.9690(7) 0.3914(9) 0.5705(19) 0.0117 Uiso
O1_2 O 0.9175(8) 0.3922(10) 0.522(4) 0.0117 Uiso
O2_2 O 0.9555(5) 0.3451(6) 0.7185(19) 0.0117 Uiso
O3_2 O 0.9971(4) 0.3821(6) 0.3842(18) 0.0117 Uiso
O4_2 O 0.9825(7) 0.2106(10) 0.779(4) 0.0240 Uiso
O7_2 O 0.9882(6) 0.2771(8) 0.3852(19) 0.0117 Uiso
N3_2 N 0.87994(69) 0.21888(91) 0.6224(26) 0.0117 Uiso
C6_2 C 0.9497(7) 0.4982(9) 0.920(4) 0.0117 Uiso
H6_2 H 0.917524 0.410583 0.918724 . .
H9_2 H 0.956418 0.186063 0.889132 . .
H10_2 H 0.977501 0.189327 0.646532 . .
H11_2 H 0.909933 0.49498 0.947852 . .
H12_2 H 0.958961 0.503527 0.750498 . .
C2_3 C 0.5533(9) 0.5025(8) 0.001(5) 0.0117 Uiso
C3_3 C 0.4982(9) 0.5485(6) 0.080(4) 0.0117 Uiso
Co2_3 Co 0.27432(52) 0.3068(4) 0.2832(15) 0.0117 Uiso
Co3_3 Co 0.63419(66) 0.60765(52) 0.0501(15) 0.0117 Uiso
Co7_3 Co 0.36581(66) 0.39235(52) 0.9499(15) 0.0117 Uiso
Co8_3 Co 0.35987(62) 0.30085(34) 0.6165(15) 0.0117 Uiso
P2_3 P 0.3914(9) 0.4224(5) 0.4295(19) 0.0117 Uiso
O5_3 O 0.3922(10) 0.4747(6) 0.478(4) 0.0117 Uiso
O6_3 O 0.3451(6) 0.3896(4) 0.2815(19) 0.0117 Uiso
O8_3 O 0.2771(8) 0.2888(5) 0.6148(19) 0.0117 Uiso
O9_3 O 0.3821(6) 0.3850(4) 0.6158(18) 0.0117 Uiso
O10_3 O 0.7183(7) 0.6696(4) 0.0509(18) 0.0117 Uiso
O13_3 O 0.3362(7) 0.2846(6) 0.2825(18) 0.0117 Uiso
O14_3 O 0.2106(10) 0.2281(7) 0.221(4) 0.0240 Uiso
N2_3 N 0.45339(69) 0.44779(34) 0.0443(26) 0.0117 Uiso
N4_3 N 0.21888(91) 0.3389(6) 0.3776(26) 0.0117 Uiso
C4_3 C 0.4547(16) 0.4394(13) 0.2827(27) 0.0117 Uiso
H1_3 H 0.49498 0.585047 0.0521485 . .
H2_3 H 0.503527 0.544566 0.249502 . .
H5_3 H 0.557794 0.498936 0.171437 . .
H14_3 H 0.410583 0.493059 0.0812763 . .
H15_3 H 0.463244 0.406019 0.30721 . .
H16_3 H 0.487972 0.477184 0.349756 . .
Co1_3 Co 0.72568(52) 0.6932(4) 0.7168(15) 0.0117 Uiso
P1_3 P 0.6086(9) 0.5776(5) 0.5705(19) 0.0117 Uiso
O1_3 O 0.6078(10) 0.5253(6) 0.522(4) 0.0117 Uiso
O2_3 O 0.6549(6) 0.6104(4) 0.7185(19) 0.0117 Uiso
O3_3 O 0.6179(6) 0.6150(4) 0.3842(18) 0.0117 Uiso
O4_3 O 0.7894(10) 0.7719(7) 0.779(4) 0.0240 Uiso
N1_3 N 0.54661(69) 0.55221(34) 0.9557(26) 0.0117 Uiso
C1_3 C 0.5453(16) 0.5606(13) 0.7173(27) 0.0117 Uiso
Co5_3 Co 0.64013(62) 0.69915(34) 0.3835(15) 0.0117 Uiso
O7_3 O 0.7229(8) 0.7112(5) 0.3852(19) 0.0117 Uiso
O11_3 O 0.6638(7) 0.7154(6) 0.7175(18) 0.0117 Uiso
O12_3 O 0.2817(7) 0.3304(4) 0.9491(18) 0.0117 Uiso
N3_3 N 0.78112(91) 0.6611(6) 0.6224(26) 0.0117 Uiso
C5_3 C 0.4467(9) 0.4975(8) 0.999(5) 0.0117 Uiso
C6_3 C 0.5018(9) 0.4515(6) 0.920(4) 0.0117 Uiso
H3_3 H 0.512028 0.522816 0.650244 . .
H4_3 H 0.536756 0.593981 0.69279 . .
H6_3 H 0.589417 0.506941 0.918724 . .
H11_3 H 0.50502 0.414953 0.947852 . .
H12_3 H 0.496473 0.455434 0.750498 . .
H13_3 H 0.442206 0.501064 0.828563 . .
H8_3 H 0.121508 0.644168 0.020135 . .
O14_4 O 0.1052(7) 0.6492(7) 0.888(4) 0.0240 Uiso
H7_3 H 0.128243 0.687431 0.835503 . .
P2_4 P 0.9109(5) 0.6357(7) 0.0962(19) 0.0117 Uiso
O5_4 O 0.8586(6) 0.5842(8) 0.145(4) 0.0117 Uiso
H16_4 H 0.856149 0.677454 0.0164225 . .
P1_4 P 0.7557(5) 0.6977(7) 0.2372(19) 0.0117 Uiso
O1_4 O 0.8080(6) 0.7492(8) 0.189(4) 0.0117 Uiso
O4_4 O 0.5614(7) 0.6842(7) 0.446(4) 0.0240 Uiso
C1_4 C 0.7727(13) 0.6514(10) 0.3840(27) 0.0117 Uiso
C2_4 C 0.8308(8) 0.7175(5) 0.668(5) 0.0117 Uiso
C3_4 C 0.7848(6) 0.6164(7) 0.747(4) 0.0117 Uiso
O6_4 O 0.9437(4) 0.6222(5) 0.9482(19) 0.0117 Uiso
O7_4 O 0.6222(5) 0.6784(6) 0.0518(19) 0.0117 Uiso
N2_4 N 0.88554(34) 0.6723(6) 0.7110(26) 0.0117 Uiso
N3_4 N 0.6723(6) 0.78672(69) 0.2890(26) 0.0117 Uiso
C4_4 C 0.8939(13) 0.6820(10) 0.9494(27) 0.0117 Uiso
C5_4 C 0.8358(8) 0.6159(5) 0.666(5) 0.0117 Uiso
C6_4 C 0.8818(6) 0.7170(7) 0.587(4) 0.0117 Uiso
H1_4 H 0.748286 0.5766 0.718815 . .
H2_4 H 0.788767 0.625628 0.916169 . .
H3_4 H 0.810518 0.655879 0.316911 . .
H4_4 H 0.739353 0.609442 0.359457 . .
H5_4 H 0.834397 0.725525 0.838103 . .
H6_4 H 0.826393 0.749143 0.58539 . .
H11_4 H 0.91838 0.756733 0.614518 . .
H12_4 H 0.877899 0.707706 0.417164 . .
H13_4 H 0.832269 0.607809 0.49523 . .
H14_4 H 0.840274 0.58419 0.747943 . .
H15_4 H 0.927314 0.723891 0.973877 . .
P2_5 P 0.3643(7) 0.2753(9) 0.0962(19) 0.0117 Uiso
O5_5 O 0.4158(8) 0.2745(10) 0.145(4) 0.0117 Uiso
H8_4 H 0.355832 0.47734 0.020135 . .
H16_5 H 0.322546 0.178695 0.0164225 . .
P1_5 P 0.3023(7) 0.0581(9) 0.2372(19) 0.0117 Uiso
O1_5 O 0.2508(8) 0.0589(10) 0.189(4) 0.0117 Uiso
C1_5 C 0.3486(10) 0.1214(16) 0.3840(27) 0.0117 Uiso
C2_5 C 0.2825(5) 0.1134(9) 0.668(5) 0.0117 Uiso
C3_5 C 0.3836(7) 0.1685(9) 0.747(4) 0.0117 Uiso
O6_5 O 0.3778(5) 0.3216(6) 0.9482(19) 0.0117 Uiso
O14_5 O 0.3508(7) 0.4561(10) 0.888(4) 0.0240 Uiso
N2_5 N 0.3277(6) 0.21328(69) 0.7110(26) 0.0117 Uiso
C4_5 C 0.3180(10) 0.2120(16) 0.9494(27) 0.0117 Uiso
C5_5 C 0.3841(5) 0.2200(9) 0.666(5) 0.0117 Uiso
C6_5 C 0.2830(7) 0.1649(9) 0.587(4) 0.0117 Uiso
H1_5 H 0.4234 0.171686 0.718815 . .
H2_5 H 0.374372 0.16314 0.916169 . .
H3_5 H 0.344121 0.154639 0.316911 . .
H4_5 H 0.390558 0.12991 0.359457 . .
H5_5 H 0.274475 0.108872 0.838103 . .
H6_5 H 0.250857 0.0772495 0.58539 . .
H7_4 H 0.312569 0.440813 0.835503 . .
H11_5 H 0.243267 0.161647 0.614518 . .
H12_5 H 0.292294 0.170194 0.417164 . .
H13_5 H 0.392191 0.224461 0.49523 . .
H14_5 H 0.41581 0.256084 0.747943 . .
H15_5 H 0.276109 0.203423 0.973877 . .
O4_5 O 0.3158(7) 0.8773(10) 0.446(4) 0.0240 Uiso
O7_5 O 0.3216(6) 0.9437(8) 0.0518(19) 0.0117 Uiso
N3_5 N 0.21328(69) 0.88554(91) 0.2890(26) 0.0117 Uiso
O4_6 O 0.1227(10) 0.4386(7) 0.446(4) 0.0240 Uiso
O7_6 O 0.0563(8) 0.3778(5) 0.0518(19) 0.0117 Uiso
N3_6 N 0.11446(91) 0.3277(6) 0.2890(26) 0.0117 Uiso
P2_6 P 0.7247(9) 0.0891(5) 0.0962(19) 0.0117 Uiso
O5_6 O 0.7255(10) 0.1414(6) 0.145(4) 0.0117 Uiso
H16_6 H 0.821305 0.143851 0.0164225 . .
P1_6 P 0.9419(9) 0.2443(5) 0.2372(19) 0.0117 Uiso
O1_6 O 0.9411(10) 0.1920(6) 0.189(4) 0.0117 Uiso
C1_6 C 0.8786(16) 0.2273(13) 0.3840(27) 0.0117 Uiso
C2_6 C 0.8866(9) 0.1692(8) 0.668(5) 0.0117 Uiso
C3_6 C 0.8315(9) 0.2152(6) 0.747(4) 0.0117 Uiso
O6_6 O 0.6784(6) 0.0563(4) 0.9482(19) 0.0117 Uiso
N2_6 N 0.78672(69) 0.11446(34) 0.7110(26) 0.0117 Uiso
C4_6 C 0.7880(16) 0.1061(13) 0.9494(27) 0.0117 Uiso
C5_6 C 0.7800(9) 0.1642(8) 0.666(5) 0.0117 Uiso
C6_6 C 0.8351(9) 0.1182(6) 0.587(4) 0.0117 Uiso
H1_6 H 0.828314 0.251714 0.718815 . .
H2_6 H 0.83686 0.211233 0.916169 . .
H3_6 H 0.845361 0.189482 0.316911 . .
H4_6 H 0.87009 0.260647 0.359457 . .
H5_6 H 0.891128 0.165603 0.838103 . .
H6_6 H 0.922751 0.173607 0.58539 . .
H11_6 H 0.838353 0.0816198 0.614518 . .
H12_6 H 0.829806 0.122101 0.417164 . .
H13_6 H 0.775539 0.167731 0.49523 . .
H14_6 H 0.743916 0.159726 0.747943 . .
H15_6 H 0.796577 0.072686 0.973877 . .
H8_5 H 0.52266 0.878492 0.020135 . .
O14_6 O 0.5439(10) 0.8948(7) 0.888(4) 0.0240 Uiso
H7_5 H 0.559187 0.871757 0.835503 . .
C1_7 C 0.1061(13) 0.3180(10) 0.0506(27) 0.0117 Uiso
C2_7 C 0.1642(8) 0.3841(5) 0.334(5) 0.0117 Uiso
C3_7 C 0.1182(6) 0.2830(7) 0.413(4) 0.0117 Uiso
P2_7 P 0.2443(5) 0.3023(7) 0.7628(19) 0.0117 Uiso
O5_7 O 0.1920(6) 0.2508(8) 0.811(4) 0.0117 Uiso
O14_7 O 0.4386(7) 0.3158(7) 0.554(4) 0.0240 Uiso
C4_7 C 0.2273(13) 0.3486(10) 0.6160(27) 0.0117 Uiso
C5_7 C 0.1692(8) 0.2825(5) 0.332(5) 0.0117 Uiso
C6_7 C 0.2152(6) 0.3836(7) 0.253(4) 0.0117 Uiso
H1_7 H 0.0816198 0.243267 0.385482 . .
H2_7 H 0.122101 0.292294 0.582836 . .
H4_7 H 0.072686 0.276109 0.0261234 . .
H5_7 H 0.167731 0.392191 0.50477 . .
H6_7 H 0.159726 0.41581 0.252057 . .
H11_7 H 0.251714 0.4234 0.281185 . .
H12_7 H 0.211233 0.374372 0.083831 . .
H13_7 H 0.165603 0.274475 0.161897 . .
H14_7 H 0.173607 0.250857 0.41461 . .
H15_7 H 0.260647 0.390558 0.640543 . .
H16_7 H 0.189482 0.344121 0.683089 . .
P1_7 P 0.0891(5) 0.3643(7) 0.9038(19) 0.0117 Uiso
O1_7 O 0.1414(6) 0.4158(8) 0.855(4) 0.0117 Uiso
H3_7 H 0.143851 0.322546 0.983577 . .
O4_7 O 0.8948(7) 0.3508(7) 0.112(4) 0.0240 Uiso
H9_3 H 0.896311 0.376915 0.222465 . .
H10_3 H 0.878492 0.355832 0.979865 . .
O14_8 O 0.6842(7) 0.1227(10) 0.554(4) 0.0240 Uiso
O4_8 O 0.6492(7) 0.5439(10) 0.112(4) 0.0240 Uiso
C1_8 C 0.6820(10) 0.7880(16) 0.0506(27) 0.0117 Uiso
C2_8 C 0.6159(5) 0.7800(9) 0.334(5) 0.0117 Uiso
C3_8 C 0.7170(7) 0.8351(9) 0.413(4) 0.0117 Uiso
P2_8 P 0.6977(7) 0.9419(9) 0.7628(19) 0.0117 Uiso
O5_8 O 0.7492(8) 0.9411(10) 0.811(4) 0.0117 Uiso
C4_8 C 0.6514(10) 0.8786(16) 0.6160(27) 0.0117 Uiso
C5_8 C 0.7175(5) 0.8866(9) 0.332(5) 0.0117 Uiso
C6_8 C 0.6164(7) 0.8315(9) 0.253(4) 0.0117 Uiso
H1_8 H 0.756733 0.838353 0.385482 . .
H2_8 H 0.707706 0.829806 0.582836 . .
H4_8 H 0.723891 0.796577 0.0261234 . .
H5_8 H 0.607809 0.775539 0.50477 . .
H6_8 H 0.58419 0.743916 0.252057 . .
H9_4 H 0.623085 0.519396 0.222465 . .
H11_8 H 0.5766 0.828314 0.281185 . .
H12_8 H 0.625628 0.83686 0.083831 . .
H13_8 H 0.725525 0.891128 0.161897 . .
H14_8 H 0.749143 0.922751 0.41461 . .
H15_8 H 0.609442 0.87009 0.640543 . .
H16_8 H 0.655879 0.845361 0.683089 . .
P1_8 P 0.6357(7) 0.7247(9) 0.9038(19) 0.0117 Uiso
O1_8 O 0.5842(8) 0.7255(10) 0.855(4) 0.0117 Uiso
H3_8 H 0.677454 0.821305 0.983577 . .
H10_4 H 0.644168 0.52266 0.979865 . .
O4_9 O 0.4561(10) 0.1052(7) 0.112(4) 0.0240 Uiso
H9_5 H 0.480604 0.103689 0.222465 . .
H10_5 H 0.47734 0.121508 0.979865 . .
C1_9 C 0.2120(16) 0.8939(13) 0.0506(27) 0.0117 Uiso
C2_9 C 0.2200(9) 0.8358(8) 0.334(5) 0.0117 Uiso
C3_9 C 0.1649(9) 0.8818(6) 0.413(4) 0.0117 Uiso
P2_9 P 0.0581(9) 0.7557(5) 0.7628(19) 0.0117 Uiso
O5_9 O 0.0589(10) 0.8080(6) 0.811(4) 0.0117 Uiso
C4_9 C 0.1214(16) 0.7727(13) 0.6160(27) 0.0117 Uiso
C5_9 C 0.1134(9) 0.8308(8) 0.332(5) 0.0117 Uiso
C6_9 C 0.1685(9) 0.7848(6) 0.253(4) 0.0117 Uiso
H1_9 H 0.161647 0.91838 0.385482 . .
H2_9 H 0.170194 0.877899 0.582836 . .
H4_9 H 0.203423 0.927314 0.0261234 . .
H5_9 H 0.224461 0.832269 0.50477 . .
H6_9 H 0.256084 0.840274 0.252057 . .
H11_9 H 0.171686 0.748286 0.281185 . .
H12_9 H 0.16314 0.788767 0.083831 . .
H13_9 H 0.108872 0.834397 0.161897 . .
H14_9 H 0.0772495 0.826393 0.41461 . .
H15_9 H 0.12991 0.739353 0.640543 . .
H16_9 H 0.154639 0.810518 0.683089 . .
P1_9 P 0.2753(9) 0.9109(5) 0.9038(19) 0.0117 Uiso
O1_9 O 0.2745(10) 0.8586(6) 0.855(4) 0.0117 Uiso
H3_9 H 0.178695 0.856149 0.983577 . .
O14_9 O 0.8773(10) 0.5614(7) 0.554(4) 0.0240 Uiso
H9_6 H 0.770355 0.956418 0.110868 . .
H7_6 H 0.20509 0.979236 0.831164 . .
H9_7 H 0.0435817 0.813937 0.110868 . .
H7_7 H 0.0207639 0.225854 0.831164 . .
H7_8 H 0.871757 0.312569 0.164497 . .
H7_9 H 0.687431 0.559187 0.164497 . .
H7_10 H 0.440813 0.128243 0.164497 . .
H9_8 H 0.103689 0.623085 0.777535 . .
H9_9 H 0.376915 0.480604 0.777535 . .
H9_10 H 0.519396 0.896311 0.777535 . .
loop_
_geom_bond_atom_site_label_1
_geom_bond_atom_site_label_2
_geom_bond_site_symmetry_1
_geom_bond_site_symmetry_2
Co3 O10 1_555 1_555
Co8 O13 1_555 1_555
N2 C4 1_555 1_555
C2 H5 1_555 1_555
C4 H15 1_555 1_555
C4 H16 1_555 1_555
Co1 O2 1_555 1_555
P1 O1 1_555 1_555
O2 P1 1_555 1_555
O3 P1 1_555 1_555
O4 Co1 1_555 1_555
Co3 O3 1_555 1_555
O7 Co1 1_555 1_555
N3 Co1 1_555 1_555
O4 H9 1_555 1_555
O4 H10 1_555 1_555
C6 H11 1_555 1_555
C6 H12 1_555 1_555
Co2 O6 1_555 1_555
Co7 O9 1_555 1_555
P2 O5 1_555 1_555
O6 P2 1_555 1_555
O8 Co2 1_555 1_555
O14 Co2 1_555 1_555
N4 Co2 1_555 1_555
P2 O9 1_555 1_555
C3 H1 1_555 1_555
C3 H2 1_555 1_555
O14 H8 1_555 1_555
N1 C1 1_555 1_555
Co5 O11 1_555 1_555
Co7 O12 1_555 1_555
C1 H3 1_555 1_555
C1 H4 1_555 1_555
C5 H13 1_555 1_555
Co2_2 O6_2 1_555 1_555
Co7_2 O9_2 1_555 1_555
P2_2 O5_2 1_555 1_555
O6_2 P2_2 1_555 1_555
O8_2 Co2_2 1_555 1_555
O14_2 Co2_2 1_555 1_555
N4_2 Co2_2 1_555 1_555
P2_2 O9_2 1_555 1_555
C3_2 H1_2 1_555 1_555
C3_2 H2_2 1_555 1_555
O14_2 H8_2 1_555 1_555
N1_2 C1_2 1_555 1_555
Co5_2 O11_2 1_555 1_555
Co7_2 O12_2 1_555 1_555
C1_2 H3_2 1_555 1_555
C1_2 H4_2 1_555 1_555
C5_2 H13_2 1_555 1_555
Co3_2 O10_2 1_555 1_555
Co8_2 O13_2 1_555 1_555
N2_2 C4_2 1_555 1_555
C2_2 H5_2 1_555 1_555
C4_2 H15_2 1_555 1_555
C4_2 H16_2 1_555 1_555
Co1_2 O2_2 1_555 1_555
P1_2 O1_2 1_555 1_555
O2_2 P1_2 1_555 1_555
O3_2 P1_2 1_555 1_555
O4_2 Co1_2 1_555 1_555
Co3_2 O3_2 1_555 1_555
O7_2 Co1_2 1_555 1_555
N3_2 Co1_2 1_555 1_555
O4_2 H9_2 1_555 1_555
O4_2 H10_2 1_555 1_555
C6_2 H11_2 1_555 1_555
C6_2 H12_2 1_555 1_555
Co2_3 O6_3 1_555 1_555
Co7_3 O9_3 1_555 1_555
Co8_3 O8_3 1_555 1_555
P2_3 O5_3 1_555 1_555
O6_3 P2_3 1_555 1_555
O8_3 Co2_3 1_555 1_555
O9_3 Co8_3 1_555 1_555
O13_3 Co2_3 1_555 1_555
O14_3 Co2_3 1_555 1_555
N4_3 Co2_3 1_555 1_555
C4_3 P2_3 1_555 1_555
Co3_3 O10_3 1_555 1_555
Co8_3 O13_3 1_555 1_555
P2_3 O9_3 1_555 1_555
N2_3 C4_3 1_555 1_555
C3_3 H1_3 1_555 1_555
C3_3 H2_3 1_555 1_555
C2_3 H5_3 1_555 1_555
C4_3 H15_3 1_555 1_555
C4_3 H16_3 1_555 1_555
Co1_3 O2_3 1_555 1_555
P1_3 O1_3 1_555 1_555
O2_3 P1_3 1_555 1_555
O3_3 P1_3 1_555 1_555
O4_3 Co1_3 1_555 1_555
N1_3 C1_3 1_555 1_555
C1_3 P1_3 1_555 1_555
Co3_3 O3_3 1_555 1_555
Co5_3 O3_3 1_555 1_555
O7_3 Co1_3 1_555 1_555
O11_3 Co1_3 1_555 1_555
N3_3 Co1_3 1_555 1_555
Co5_3 O7_3 1_555 1_555
Co5_3 O11_3 1_555 1_555
Co7_3 O12_3 1_555 1_555
C1_3 H3_3 1_555 1_555
C1_3 H4_3 1_555 1_555
C6_3 H11_3 1_555 1_555
C6_3 H12_3 1_555 1_555
C5_3 H13_3 1_555 1_555
O14_4 Co7_2 1_555 1_555
O14_4 H7_3 1_555 1_555
P2_4 O5_4 1_555 1_555
P2_4 O13_2 1_555 1_555
P1_4 O1_4 1_555 1_555
O7_3 P1_4 1_555 1_555
O10_3 P1_4 1_555 1_555
O4_4 Co5_3 1_555 1_555
N3_3 C1_4 1_555 1_555
C1_4 P1_4 1_555 1_555
C2_4 N3_3 1_555 1_555
C3_4 N3_3 1_555 1_555
Co8_2 O6_4 1_555 1_555
O7_4 Co5_3 1_555 1_555
N2_4 Co8_2 1_555 1_555
N3_4 Co5_3 1_555 1_555
C5_4 C3_4 1_555 1_555
C6_4 C2_4 1_555 1_555
Co3_3 O7_4 1_555 1_555
N2_4 C4_4 1_555 1_555
N2_4 C5_4 1_555 1_555
N2_4 C6_4 1_555 1_555
C3_4 H1_4 1_555 1_555
C3_4 H2_4 1_555 1_555
C1_4 H3_4 1_555 1_555
C1_4 H4_4 1_555 1_555
C2_4 H5_4 1_555 1_555
C2_4 H6_4 1_555 1_555
C6_4 H11_4 1_555 1_555
C6_4 H12_4 1_555 1_555
C5_4 H13_4 1_555 1_555
C5_4 H14_4 1_555 1_555
C4_4 H15_4 1_555 1_555
P2_5 O5_5 1_555 1_555
P2_5 O13_3 1_555 1_555
P1_5 O1_5 1_555 1_555
O7 P1_5 1_555 1_555
O10 P1_5 1_555 1_555
N3 C1_5 1_555 1_555
C1_5 P1_5 1_555 1_555
C2_5 N3 1_555 1_555
C3_5 N3 1_555 1_555
Co7_3 O6_5 1_555 1_555
Co8_3 O6_5 1_555 1_555
O14_5 Co7_3 1_555 1_555
N2_5 Co8_3 1_555 1_555
C5_5 C3_5 1_555 1_555
C6_5 C2_5 1_555 1_555
N2_5 C4_5 1_555 1_555
N2_5 C5_5 1_555 1_555
N2_5 C6_5 1_555 1_555
C3_5 H1_5 1_555 1_555
C3_5 H2_5 1_555 1_555
C1_5 H3_5 1_555 1_555
C1_5 H4_5 1_555 1_555
C2_5 H5_5 1_555 1_555
C2_5 H6_5 1_555 1_555
O14_5 H7_4 1_555 1_555
C6_5 H11_5 1_555 1_555
C6_5 H12_5 1_555 1_555
C5_5 H13_5 1_555 1_555
C5_5 H14_5 1_555 1_555
C4_5 H15_5 1_555 1_555
O4_5 Co5 1_555 1_555
O7_5 Co5 1_555 1_555
N3_5 Co5 1_555 1_555
O4_6 Co5_2 1_555 1_555
O7_6 Co5_2 1_555 1_555
N3_6 Co5_2 1_555 1_555
P2_6 O5_6 1_555 1_555
P2_6 O13 1_555 1_555
P1_6 O1_6 1_555 1_555
O7_2 P1_6 1_555 1_555
O10_2 P1_6 1_555 1_555
N3_2 C1_6 1_555 1_555
C1_6 P1_6 1_555 1_555
C2_6 N3_2 1_555 1_555
C3_6 N3_2 1_555 1_555
Co8 O6_6 1_555 1_555
N2_6 Co8 1_555 1_555
C5_6 C3_6 1_555 1_555
C6_6 C2_6 1_555 1_555
N2_6 C4_6 1_555 1_555
N2_6 C5_6 1_555 1_555
N2_6 C6_6 1_555 1_555
C3_6 H1_6 1_555 1_555
C3_6 H2_6 1_555 1_555
C1_6 H3_6 1_555 1_555
C1_6 H4_6 1_555 1_555
C2_6 H5_6 1_555 1_555
C2_6 H6_6 1_555 1_555
C6_6 H11_6 1_555 1_555
C6_6 H12_6 1_555 1_555
C5_6 H13_6 1_555 1_555
C5_6 H14_6 1_555 1_555
C4_6 H15_6 1_555 1_555
O14_6 Co7 1_555 1_555
O14_6 H7_5 1_555 1_555
N3_6 C1_7 1_555 1_555
C2_7 N3_6 1_555 1_555
C3_7 N3_6 1_555 1_555
P2_7 O5_7 1_555 1_555
O8_3 P2_7 1_555 1_555
O14_7 Co8_3 1_555 1_555
C4_7 P2_7 1_555 1_555
C5_7 C3_7 1_555 1_555
C6_7 C2_7 1_555 1_555
P2_7 O12_3 1_555 1_555
N4_3 C4_7 1_555 1_555
N4_3 C5_7 1_555 1_555
N4_3 C6_7 1_555 1_555
C3_7 H1_7 1_555 1_555
C3_7 H2_7 1_555 1_555
C1_7 H4_7 1_555 1_555
C2_7 H5_7 1_555 1_555
C2_7 H6_7 1_555 1_555
C6_7 H11_7 1_555 1_555
C6_7 H12_7 1_555 1_555
C5_7 H13_7 1_555 1_555
C5_7 H14_7 1_555 1_555
C4_7 H15_7 1_555 1_555
C4_7 H16_7 1_555 1_555
P1_7 O1_7 1_555 1_555
O11_2 P1_7 1_555 1_555
O4_7 Co3_2 1_555 1_555
O4_7 H9_3 1_555 1_555
O14_8 Co8 1_555 1_555
O4_8 Co3_3 1_555 1_555
N3_4 C1_8 1_555 1_555
C2_8 N3_4 1_555 1_555
C3_8 N3_4 1_555 1_555
P2_8 O5_8 1_555 1_555
O8 P2_8 1_555 1_555
C4_8 P2_8 1_555 1_555
C5_8 C3_8 1_555 1_555
C6_8 C2_8 1_555 1_555
P2_8 O12 1_555 1_555
N4 C4_8 1_555 1_555
N4 C5_8 1_555 1_555
N4 C6_8 1_555 1_555
C3_8 H1_8 1_555 1_555
C3_8 H2_8 1_555 1_555
C1_8 H4_8 1_555 1_555
C2_8 H5_8 1_555 1_555
C2_8 H6_8 1_555 1_555
O4_8 H9_4 1_555 1_555
C6_8 H11_8 1_555 1_555
C6_8 H12_8 1_555 1_555
C5_8 H13_8 1_555 1_555
C5_8 H14_8 1_555 1_555
C4_8 H15_8 1_555 1_555
C4_8 H16_8 1_555 1_555
P1_8 O1_8 1_555 1_555
O11_3 P1_8 1_555 1_555
O4_9 Co3 1_555 1_555
O4_9 H9_5 1_555 1_555
N3_5 C1_9 1_555 1_555
C2_9 N3_5 1_555 1_555
C3_9 N3_5 1_555 1_555
P2_9 O5_9 1_555 1_555
O8_2 P2_9 1_555 1_555
C4_9 P2_9 1_555 1_555
C5_9 C3_9 1_555 1_555
C6_9 C2_9 1_555 1_555
P2_9 O12_2 1_555 1_555
N4_2 C4_9 1_555 1_555
N4_2 C5_9 1_555 1_555
N4_2 C6_9 1_555 1_555
C3_9 H1_9 1_555 1_555
C3_9 H2_9 1_555 1_555
C1_9 H4_9 1_555 1_555
C2_9 H5_9 1_555 1_555
C2_9 H6_9 1_555 1_555
C6_9 H11_9 1_555 1_555
C6_9 H12_9 1_555 1_555
C5_9 H13_9 1_555 1_555
C5_9 H14_9 1_555 1_555
C4_9 H15_9 1_555 1_555
C4_9 H16_9 1_555 1_555
P1_9 O1_9 1_555 1_555
O11 P1_9 1_555 1_555
O14_9 Co8_2 1_555 1_555
O14 H9_6 1_555 1_555
O14_2 H9_7 1_555 1_555
O4_7 H7_8 1_555 1_555
O4_8 H7_9 1_555 1_555
O4_9 H7_10 1_555 1_555
O14_4 H9_8 1_555 1_555
O14_5 H9_9 1_555 1_555
O14_6 H9_10 1_555 1_555

#END
