
###############################################################################
#
# This file contains modified crystal structure data generated from the
# MOF subset of the Cambridge Structural Database (CSD) v543 
# hosted by the Cambridge Crystallographic Data Centre (CCDC).
#
# This work is licensed under the Creative Commons
# Attribution-NonCommercial-ShareAlike 4.0 International License.
# To view a copy of this license, visit
# http://creativecommons.org/licenses/by-nc-sa/4.0/
# or send a letter to
# Creative Commons, PO Box 1866, Mountain View, CA 94042, USA.
#
# CIF created using the CSD Python API on 29 September 2022
# The structure has been converted into the P1 space group
# The structure has a 3D framework
# The original CSD entry XEVSIB01 is in the triclinic crystal system
# The framework has been calculated to contain at least 10.0% void space
# The void calculation uses a probe of radius 1.32A, grid spacing 0.4
#
###############################################################################

data_XEVSIB01
_chemical_formula_moiety         '(C18 H16 Co4 O18)n'
_symmetry_cell_setting           triclinic
_symmetry_space_group_name_H-M   'P 1'
_symmetry_Int_Tables_number      1
_space_group_name_Hall           'P 1'
loop_
_symmetry_equiv_pos_site_id
_symmetry_equiv_pos_as_xyz
1 x,y,z
_cell_length_a                   6.5223(9)
_cell_length_b                   9.0150(15)
_cell_length_c                   10.9537(18)
_cell_angle_alpha                111.467(7)
_cell_angle_beta                 92.152(4)
_cell_angle_gamma                94.949(6)
_cell_volume                     595.486
loop_
_atom_site_label
_atom_site_type_symbol
_atom_site_fract_x
_atom_site_fract_y
_atom_site_fract_z
O2 O 0.4388(4) 0.3750(3) 0.2067(2)
O3 O 0.2519(4) 0.1742(3) 0.2365(2)
C1 C 0.3367(5) 0.2376(4) 0.1654(3)
C2 C 0.3135(5) 0.1420(4) 0.0205(3)
Co3 Co 0.40341(6) 0.55287(5) 0.38754(4)
Co6 Co 0.25469(6) 0.18564(5) 0.42042(4)
Co1 Co 0.59659(6) 0.44713(5) 0.61246(4)
O1 O 0.3173(3) 0.4299(3) 0.5116(2)
O4 O 0.5208(4) 0.2992(3) 0.7186(2)
O5 O 0.2389(4) 0.1515(3) 0.5989(2)
C7 C 0.3360(5) 0.1161(4) 0.7943(3)
C8 C 0.3694(5) 0.1951(4) 0.6959(3)
C9 C 0.3641(5) 0.2090(4) 0.9283(3)
H3 H 0.4181 0.3185 0.9567
H4 H 0.2277 0.4778 0.5615
H5 H 0.9263 0.3688 0.5998
H6 H 0.9753 0.4646 0.7385
O8 O 0.9123(4) 0.4529(3) 0.6659(2)
O10 O 0.6827(3) 0.5701(3) 0.4884(2)
O11 O 0.5612(4) 0.6250(3) 0.7933(2)
O14 O 0.5969(3) 0.2079(3) 0.4444(2)
H9 H 0.7723 0.5222 0.4385
O6 O 0.0655(3) 0.7888(3) 0.5570(2)
O7 O 0.4031(3) 0.7921(3) 0.5556(2)
C3 C 0.2357(5) 0.9821(4) 0.9783(3)
C4 C 0.2144(5) 0.8876(4) 0.8455(3)
H2 H 0.1653 0.7771 0.8176
C5 C 0.2649(5) 0.9541(4) 0.7532(3)
C6 C 0.2429(5) 0.8409(4) 0.6121(3)
H7 H 0.0564 0.9150 0.3641
H8 H 0.2283 0.8553 0.3414
O9 O 0.1721(4) 0.9354(3) 0.3375(3)
Co8 Co 0.74531(6) 0.81436(5) 0.57958(4)
O13 O 0.9345(3) 0.2112(3) 0.4430(2)
C3_2 C 0.7643(5) 0.0179(4) 0.0217(3)
C4_2 C 0.7856(5) 0.1124(4) 0.1545(3)
H2_2 H 0.8347 0.2229 0.1824
C5_2 C 0.7351(5) 0.0459(4) 0.2468(3)
C6_2 C 0.7571(5) 0.1591(4) 0.3879(3)
H7_2 H 0.9436 0.0850 0.6359
H8_2 H 0.7717 0.1447 0.6586
O9_2 O 0.8279(4) 0.0646(3) 0.6625(3)
O4_2 O 0.4792(4) 0.7008(3) 0.2814(2)
O5_2 O 0.7611(4) 0.8485(3) 0.4011(2)
C7_2 C 0.6640(5) 0.8839(4) 0.2057(3)
C8_2 C 0.6306(5) 0.8049(4) 0.3041(3)
C9_2 C 0.6359(5) 0.7910(4) 0.0717(3)
H3_2 H 0.5819 0.6815 0.0433
H5_2 H 0.0737 0.6312 0.4002
H6_2 H 0.0247 0.5354 0.2615
O8_2 O 0.0877(4) 0.5471(3) 0.3341(2)
O12 O 0.7481(4) 0.8258(3) 0.7635(2)
C1_2 C 0.6633(5) 0.7624(4) 0.8346(3)
C2_2 C 0.6865(5) 0.8580(4) 0.9795(3)
H1 H 0.1965 0.9368 0.0409
H1_2 H 0.8035 0.0632 0.9591
loop_
_geom_bond_atom_site_label_1
_geom_bond_atom_site_label_2
_geom_bond_site_symmetry_1
_geom_bond_site_symmetry_2
O2 C1 1_555 1_555
O3 C1 1_555 1_555
C1 C2 1_555 1_555
Co3 O2 1_555 1_555
Co6 O3 1_555 1_555
Co1 O1 1_555 1_555
Co6 O1 1_555 1_555
O1 H4 1_555 1_555
O4 Co1 1_555 1_555
O5 Co6 1_555 1_555
C8 O4 1_555 1_555
H3 C9 1_555 1_555
H5 O8 1_555 1_555
H6 O8 1_555 1_555
O8 Co1 1_555 1_555
Co3 O1 1_555 1_555
O10 Co1 1_555 1_555
O11 Co1 1_555 1_555
O14 Co1 1_555 1_555
H9 O10 1_555 1_555
Co6 O14 1_555 1_555
O5 C8 1_555 1_555
C7 C8 1_555 1_555
C7 C9 1_555 1_555
Co3 O10 1_555 1_555
O6 C6 1_555 1_555
O7 C6 1_555 1_555
C4 C3 1_555 1_555
H2 C4 1_555 1_555
C5 C4 1_555 1_555
C6 C5 1_555 1_555
H7 O9 1_555 1_555
H8 O9 1_555 1_555
Co3 O7 1_555 1_555
Co8 O7 1_555 1_555
O13 C6_2 1_555 1_555
O14 C6_2 1_555 1_555
C4_2 C3_2 1_555 1_555
H2_2 C4_2 1_555 1_555
C5_2 C4_2 1_555 1_555
C6_2 C5_2 1_555 1_555
H7_2 O9_2 1_555 1_555
H8_2 O9_2 1_555 1_555
Co8 O10 1_555 1_555
O4_2 Co3 1_555 1_555
O5_2 Co8 1_555 1_555
C8_2 O4_2 1_555 1_555
H3_2 C9_2 1_555 1_555
H5_2 O8_2 1_555 1_555
H6_2 O8_2 1_555 1_555
O8_2 Co3 1_555 1_555
O12 Co8 1_555 1_555
O5_2 C8_2 1_555 1_555
C7_2 C8_2 1_555 1_555
C7_2 C9_2 1_555 1_555
O11 C1_2 1_555 1_555
O12 C1_2 1_555 1_555
C1_2 C2_2 1_555 1_555

#END
