
###############################################################################
#
# This file contains modified crystal structure data generated from the
# MOF subset of the Cambridge Structural Database (CSD) v543 
# hosted by the Cambridge Crystallographic Data Centre (CCDC).
#
# This work is licensed under the Creative Commons
# Attribution-NonCommercial-ShareAlike 4.0 International License.
# To view a copy of this license, visit
# http://creativecommons.org/licenses/by-nc-sa/4.0/
# or send a letter to
# Creative Commons, PO Box 1866, Mountain View, CA 94042, USA.
#
# CIF created using the CSD Python API on 29 September 2022
# The structure has been converted into the P1 space group
# The structure has a 3D framework
# The original CSD entry XEVXUT is in the orthorhombic crystal system
# The framework has been calculated to contain at least 10.0% void space
# The void calculation uses a probe of radius 1.32A, grid spacing 0.4
#
###############################################################################

data_XEVXUT
_chemical_formula_moiety         '(C192 H128 Co8 N12 O30)n'
_symmetry_cell_setting           triclinic
_symmetry_space_group_name_H-M   'P 1'
_symmetry_Int_Tables_number      1
_space_group_name_Hall           'P 1'
loop_
_symmetry_equiv_pos_site_id
_symmetry_equiv_pos_as_xyz
1 x,y,z
_cell_length_a                   18.0941(7)
_cell_length_b                   14.3903(6)
_cell_length_c                   19.1497(8)
_cell_angle_alpha                90
_cell_angle_beta                 90
_cell_angle_gamma                90
_cell_volume                     4986.19
loop_
_atom_site_label
_atom_site_type_symbol
_atom_site_fract_x
_atom_site_fract_y
_atom_site_fract_z
Co1 Co 0.094406(12) 0.023321(16) 0.059706(13)
O2 O 0.15870(7) 0.14979(9) 0.07108(7)
O3 O 0.17743(7) 0.03574(9) 0.14483(8)
C1 C 0.39810(9) 0.16192(13) 0.29436(10)
C4 C 0.33873(9) 0.20111(13) 0.24969(10)
N2 N 0.51295(8) 0.08764(10) 0.37560(8)
C5 C 0.18938(9) 0.11789(12) 0.12490(10)
C6 C 0.29289(9) 0.14310(12) 0.21090(10)
H2 H 0.2980 0.0776 0.2149
C10 C 0.23969(10) 0.17985(12) 0.16628(10)
C12 C 0.49052(10) 0.04567(13) 0.31652(10)
C13 C 0.43367(10) 0.07955(13) 0.27563(10)
H5 H 0.4188 0.0469 0.2349
C14 C 0.42267(10) 0.20609(14) 0.35450(11)
H6 H 0.4008 0.2629 0.3690
C15 C 0.27622(11) 0.33438(13) 0.20051(11)
H7 H 0.2701 0.3998 0.1973
C20 C 0.32932(10) 0.29744(13) 0.24453(11)
H12 H 0.3596 0.3378 0.2714
C22 C 0.47931(10) 0.16668(13) 0.39319(11)
H14 H 0.4950 0.1976 0.4344
C23 C 0.23208(10) 0.27571(13) 0.16123(11)
H15 H 0.1962 0.3013 0.1305
Co3 Co 0.594406(12) 0.023321(16) 0.440294(13)
N3 N 0.01295(8) 0.08764(10) 0.12440(8)
H8 H 0.1944 0.0526 0.9296
O6 O 0.05001(7) 0.07763(9) 0.97203(7)
H4 H 0.5148 0.9903 0.3023
C18 C 0.19125(10) 0.86360(13) 0.01119(11)
H10 H 0.1663 0.8335 0.0485
Co4 Co 0.405594(12) 0.523321(16) 0.059706(13)
O5 O 0.05064(6) 0.89781(8) 0.09168(7)
O1 O 0.55064(6) 0.60219(8) 0.90832(7)
C2 C 0.48450(9) 0.61952(12) 0.92548(9)
C3 C 0.38445(9) 0.73842(12) 0.91875(10)
H1 H 0.3712 0.7216 0.9651
N1 N 0.17265(8) 0.95123(11) 0.99576(9)
C7 C 0.34410(9) 0.80730(12) 0.88380(10)
C8 C 0.28293(9) 0.85621(13) 0.92050(10)
C9 C 0.44381(9) 0.69430(12) 0.88630(10)
C11 C 0.42109(10) 0.78319(14) 0.78197(11)
H3 H 0.4324 0.7970 0.7347
C16 C 0.20775(11) 0.99105(14) 0.94216(12)
C17 C 0.46262(10) 0.71738(13) 0.81778(10)
H9 H 0.5036 0.6883 0.7957
C19 C 0.24514(10) 0.81475(13) 0.97520(11)
H11 H 0.2562 0.7526 0.9881
C21 C 0.36325(10) 0.82876(13) 0.81499(10)
H13 H 0.3363 0.8751 0.7905
C24 C 0.26256(11) 0.94721(14) 0.90406(12)
H16 H 0.2863 0.9789 0.8668
O4 O 0.44999(7) 0.57763(9) 0.97203(7)
Co2 Co 0.594406(12) 0.476679(16) 0.940294(13)
C2_2 C 0.01550(9) 0.38048(12) 0.42548(9)
C3_2 C 0.11555(9) 0.26158(12) 0.41875(10)
H1_2 H 0.1288 0.2784 0.4651
N1_2 N 0.32735(8) 0.04877(11) 0.49576(9)
C7_2 C 0.15590(9) 0.19270(12) 0.38380(10)
C8_2 C 0.21707(9) 0.14379(13) 0.42050(10)
C9_2 C 0.05619(9) 0.30570(12) 0.38630(10)
C11_2 C 0.07891(10) 0.21681(14) 0.28197(11)
H3_2 H 0.0676 0.2030 0.2347
C16_2 C 0.29225(11) 0.00895(14) 0.44216(12)
C17_2 C 0.03738(10) 0.28262(13) 0.31778(10)
C18_2 C 0.30875(10) 0.13640(13) 0.51119(11)
H10_2 H 0.3337 0.1665 0.5485
C19_2 C 0.25486(10) 0.18525(13) 0.47520(11)
H11_2 H 0.2438 0.2474 0.4881
C21_2 C 0.13675(10) 0.17124(13) 0.31499(10)
H13_2 H 0.1637 0.1249 0.2905
C24_2 C 0.23744(11) 0.05279(14) 0.40406(12)
H16_2 H 0.2137 0.0211 0.3668
O4_2 O 0.05001(7) 0.42237(9) 0.47203(7)
Co4_2 Co 0.094406(12) 0.476679(16) 0.559706(13)
O5_2 O 0.44936(6) 0.10219(8) 0.59168(7)
Co1_2 Co 0.405594(12) 0.976679(16) 0.559706(13)
O2_2 O 0.34130(7) 0.85021(9) 0.57108(7)
O3_2 O 0.32257(7) 0.96426(9) 0.64483(8)
C1_2 C 0.10190(9) 0.83808(13) 0.79436(10)
C4_2 C 0.16127(9) 0.79889(13) 0.74969(10)
C5_2 C 0.31062(9) 0.88211(12) 0.62490(10)
C6_2 C 0.20711(9) 0.85690(12) 0.71090(10)
H2_2 H 0.2020 0.9224 0.7149
C10_2 C 0.26031(10) 0.82015(12) 0.66628(10)
C12_2 C 0.00948(10) 0.95433(13) 0.81652(10)
C13_2 C 0.06633(10) 0.92045(13) 0.77563(10)
H5_2 H 0.0812 0.9531 0.7349
C14_2 C 0.07733(10) 0.79391(14) 0.85450(11)
H6_2 H 0.0992 0.7371 0.8690
C15_2 C 0.22378(11) 0.66562(13) 0.70051(11)
H7_2 H 0.2299 0.6002 0.6973
H8_2 H 0.3056 0.9474 0.4296
C20_2 C 0.17068(10) 0.70256(13) 0.74453(11)
H12_2 H 0.1404 0.6622 0.7714
C22_2 C 0.02069(10) 0.83332(13) 0.89319(11)
H14_2 H 0.0050 0.8024 0.9344
C23_2 C 0.26792(10) 0.72429(13) 0.66123(11)
H15_2 H 0.3038 0.6987 0.6305
N3_2 N 0.48705(8) 0.91236(10) 0.62440(8)
O6_2 O 0.44999(7) 0.92237(9) 0.47203(7)
O1_2 O 0.94936(6) 0.39781(8) 0.40832(7)
H4_2 H 0.9852 0.0097 0.8023
H9_2 H 0.9964 0.3117 0.2957
Co2_2 Co 0.905594(12) 0.523321(16) 0.440294(13)
N2_2 N 0.98705(8) 0.91236(10) 0.87560(8)
Co3_2 Co 0.905594(12) 0.976679(16) 0.940294(13)
H9_3 H 0.0036 0.8117 0.2043
N2_3 N 0.01295(8) 0.41236(10) 0.62440(8)
H4_3 H 0.0148 0.5097 0.6977
C2_3 C 0.98450(9) 0.88048(12) 0.07452(9)
C3_3 C 0.88445(9) 0.76158(12) 0.08125(10)
H1_3 H 0.8712 0.7784 0.0349
N1_3 N 0.67265(8) 0.54877(11) 0.00424(9)
C7_3 C 0.84410(9) 0.69270(12) 0.11620(10)
C8_3 C 0.78293(9) 0.64379(13) 0.07950(10)
C9_3 C 0.94381(9) 0.80570(12) 0.11370(10)
C11_3 C 0.92109(10) 0.71681(14) 0.21803(11)
H3_3 H 0.9324 0.7030 0.2653
C16_3 C 0.70775(11) 0.50895(14) 0.05784(12)
H8_3 H 0.6944 0.4474 0.0704
C17_3 C 0.96262(10) 0.78262(13) 0.18222(10)
C19_3 C 0.74514(10) 0.68525(13) 0.02480(11)
H11_3 H 0.7562 0.7474 0.0119
C21_3 C 0.86325(10) 0.67124(13) 0.18501(10)
H13_3 H 0.8363 0.6249 0.2095
C24_3 C 0.76256(11) 0.55279(14) 0.09594(12)
H16_3 H 0.7863 0.5211 0.1332
O4_3 O 0.94999(7) 0.92237(9) 0.02797(7)
O6_3 O 0.55001(7) 0.42237(9) 0.02797(7)
O2_3 O 0.65870(7) 0.35021(9) 0.92892(7)
O3_3 O 0.67743(7) 0.46426(9) 0.85517(8)
C1_3 C 0.89810(9) 0.33808(13) 0.70564(10)
C4_3 C 0.83873(9) 0.29889(13) 0.75031(10)
C5_3 C 0.68938(9) 0.38211(12) 0.87510(10)
C6_3 C 0.79289(9) 0.35690(12) 0.78910(10)
H2_3 H 0.7980 0.4224 0.7851
C10_3 C 0.73969(10) 0.32015(12) 0.83372(10)
C12_3 C 0.99052(10) 0.45433(13) 0.68348(10)
C13_3 C 0.93367(10) 0.42045(13) 0.72437(10)
H5_3 H 0.9188 0.4531 0.7651
C14_3 C 0.92267(10) 0.29391(14) 0.64550(11)
H6_3 H 0.9008 0.2371 0.6310
C15_3 C 0.77622(11) 0.16562(13) 0.79949(11)
H7_3 H 0.7701 0.1002 0.8027
C18_3 C 0.69125(10) 0.63640(13) 0.98881(11)
H10_3 H 0.6663 0.6665 0.9515
C20_3 C 0.82932(10) 0.20256(13) 0.75547(11)
H12_3 H 0.8596 0.1622 0.7286
C22_3 C 0.97931(10) 0.33332(13) 0.60681(11)
H14_3 H 0.9950 0.3024 0.5656
C23_3 C 0.73208(10) 0.22429(13) 0.83877(11)
H15_3 H 0.6962 0.1987 0.8695
N3_3 N 0.51295(8) 0.41236(10) 0.87560(8)
O2_4 O 0.84130(7) 0.64979(9) 0.42892(7)
O3_4 O 0.82257(7) 0.53574(9) 0.35517(8)
C1_4 C 0.60190(9) 0.66192(13) 0.20564(10)
C2_4 C 0.51550(9) 0.11952(12) 0.57452(9)
C3_4 C 0.61555(9) 0.23842(12) 0.58125(10)
H1_4 H 0.6288 0.2216 0.5349
C4_4 C 0.66127(9) 0.70111(13) 0.25031(10)
N1_4 N 0.82735(8) 0.45123(11) 0.50424(9)
N2_4 N 0.48705(8) 0.58764(10) 0.12440(8)
C5_4 C 0.81062(9) 0.61789(12) 0.37510(10)
C6_4 C 0.70711(9) 0.64310(12) 0.28910(10)
H2_4 H 0.7020 0.5776 0.2851
C7_4 C 0.65590(9) 0.30730(12) 0.61620(10)
C8_4 C 0.71707(9) 0.35621(13) 0.57950(10)
C9_4 C 0.55619(9) 0.19430(12) 0.61370(10)
C10_4 C 0.76031(10) 0.67985(12) 0.33372(10)
C11_4 C 0.57891(10) 0.28319(14) 0.71803(11)
H3_4 H 0.5676 0.2970 0.7653
C12_4 C 0.50948(10) 0.54567(13) 0.18348(10)
H4_4 H 0.4852 0.4903 0.1977
C13_4 C 0.56633(10) 0.57955(13) 0.22437(10)
H5_4 H 0.5812 0.5469 0.2651
C14_4 C 0.57733(10) 0.70609(14) 0.14550(11)
H6_4 H 0.5992 0.7629 0.1310
C15_4 C 0.72378(11) 0.83438(13) 0.29949(11)
H7_4 H 0.7299 0.8998 0.3027
C16_4 C 0.79225(11) 0.49105(14) 0.55784(12)
H8_4 H 0.8056 0.5526 0.5704
C17_4 C 0.53738(10) 0.21738(13) 0.68222(10)
H9_4 H 0.4964 0.1883 0.7043
C18_4 C 0.80875(10) 0.36360(13) 0.48881(11)
H10_4 H 0.8337 0.3335 0.4515
C19_4 C 0.75486(10) 0.31475(13) 0.52480(11)
H11_4 H 0.7438 0.2526 0.5119
C20_4 C 0.67068(10) 0.79744(13) 0.25547(11)
H12_4 H 0.6404 0.8378 0.2286
C21_4 C 0.63675(10) 0.32876(13) 0.68501(10)
H13_4 H 0.6637 0.3751 0.7095
C22_4 C 0.52069(10) 0.66668(13) 0.10681(11)
H14_4 H 0.5050 0.6976 0.0656
C23_4 C 0.76792(10) 0.77571(13) 0.33877(11)
H15_4 H 0.8038 0.8013 0.3695
C24_4 C 0.73744(11) 0.44721(14) 0.59594(12)
H16_4 H 0.7137 0.4789 0.6332
O4_4 O 0.55001(7) 0.07763(9) 0.52797(7)
N3_4 N 0.98705(8) 0.58764(10) 0.37560(8)
O6_4 O 0.94999(7) 0.57763(9) 0.52797(7)
O1_3 O 0.44936(6) 0.39781(8) 0.09168(7)
C2_5 C 0.51550(9) 0.38048(12) 0.07452(9)
C3_5 C 0.61555(9) 0.26158(12) 0.08125(10)
H1_5 H 0.6288 0.2784 0.0349
N1_5 N 0.82735(8) 0.04877(11) 0.00424(9)
C7_5 C 0.65590(9) 0.19270(12) 0.11620(10)
C8_5 C 0.71707(9) 0.14379(13) 0.07950(10)
C9_5 C 0.55619(9) 0.30570(12) 0.11370(10)
C11_5 C 0.57891(10) 0.21681(14) 0.21803(11)
H3_5 H 0.5676 0.2030 0.2653
C16_5 C 0.79225(11) 0.00895(14) 0.05784(12)
C17_5 C 0.53738(10) 0.28262(13) 0.18222(10)
H9_5 H 0.4964 0.3117 0.2043
C19_5 C 0.75486(10) 0.18525(13) 0.02480(11)
H11_5 H 0.7438 0.2474 0.0119
C21_5 C 0.63675(10) 0.17124(13) 0.18501(10)
H13_5 H 0.6637 0.1249 0.2095
C24_5 C 0.73744(11) 0.05279(14) 0.09594(12)
H16_5 H 0.7137 0.0211 0.1332
H4_5 H 0.4852 0.0097 0.6977
C18_5 C 0.80875(10) 0.13640(13) 0.98881(11)
H10_5 H 0.8337 0.1665 0.9515
O5_3 O 0.94936(6) 0.10219(8) 0.90832(7)
H8_5 H 0.8056 0.9474 0.0704
O2_5 O 0.84130(7) 0.85021(9) 0.92892(7)
O3_5 O 0.82257(7) 0.96426(9) 0.85517(8)
C1_5 C 0.60190(9) 0.83808(13) 0.70564(10)
C4_5 C 0.66127(9) 0.79889(13) 0.75031(10)
C5_5 C 0.81062(9) 0.88211(12) 0.87510(10)
C6_5 C 0.70711(9) 0.85690(12) 0.78910(10)
H2_5 H 0.7020 0.9224 0.7851
C10_5 C 0.76031(10) 0.82015(12) 0.83372(10)
C12_5 C 0.50948(10) 0.95433(13) 0.68348(10)
C13_5 C 0.56633(10) 0.92045(13) 0.72437(10)
H5_5 H 0.5812 0.9531 0.7651
C14_5 C 0.57733(10) 0.79391(14) 0.64550(11)
H6_5 H 0.5992 0.7371 0.6310
C15_5 C 0.72378(11) 0.66562(13) 0.79949(11)
H7_5 H 0.7299 0.6002 0.8027
C20_5 C 0.67068(10) 0.70256(13) 0.75547(11)
H12_5 H 0.6404 0.6622 0.7286
C22_5 C 0.52069(10) 0.83332(13) 0.60681(11)
H14_5 H 0.5050 0.8024 0.5656
C23_5 C 0.76792(10) 0.72429(13) 0.83877(11)
H15_5 H 0.8038 0.6987 0.8695
O1_4 O 0.05064(6) 0.60219(8) 0.59168(7)
H4_6 H 0.0148 0.9903 0.1977
H9_6 H 0.0036 0.6883 0.7043
O2_6 O 0.65870(7) 0.14979(9) 0.42892(7)
O3_6 O 0.67743(7) 0.03574(9) 0.35517(8)
C1_6 C 0.89810(9) 0.16192(13) 0.20564(10)
C4_6 C 0.83873(9) 0.20111(13) 0.25031(10)
C5_6 C 0.68938(9) 0.11789(12) 0.37510(10)
C6_6 C 0.79289(9) 0.14310(12) 0.28910(10)
H2_6 H 0.7980 0.0776 0.2851
C10_6 C 0.73969(10) 0.17985(12) 0.33372(10)
C12_6 C 0.99052(10) 0.04567(13) 0.18348(10)
C13_6 C 0.93367(10) 0.07955(13) 0.22437(10)
H5_6 H 0.9188 0.0469 0.2651
C14_6 C 0.92267(10) 0.20609(14) 0.14550(11)
H6_6 H 0.9008 0.2629 0.1310
C15_6 C 0.77622(11) 0.33438(13) 0.29949(11)
H7_6 H 0.7701 0.3998 0.3027
H8_6 H 0.6944 0.0526 0.5704
C20_6 C 0.82932(10) 0.29744(13) 0.25547(11)
H12_6 H 0.8596 0.3378 0.2286
C22_6 C 0.97931(10) 0.16668(13) 0.10681(11)
H14_6 H 0.9950 0.1976 0.0656
C23_6 C 0.73208(10) 0.27571(13) 0.33877(11)
H15_6 H 0.6962 0.3013 0.3695
C2_6 C 0.98450(9) 0.61952(12) 0.57452(9)
C3_6 C 0.88445(9) 0.73842(12) 0.58125(10)
H1_6 H 0.8712 0.7216 0.5349
N1_6 N 0.67265(8) 0.95123(11) 0.50424(9)
C7_6 C 0.84410(9) 0.80730(12) 0.61620(10)
C8_6 C 0.78293(9) 0.85621(13) 0.57950(10)
C9_6 C 0.94381(9) 0.69430(12) 0.61370(10)
C11_6 C 0.92109(10) 0.78319(14) 0.71803(11)
H3_6 H 0.9324 0.7970 0.7653
C16_6 C 0.70775(11) 0.99105(14) 0.55784(12)
C17_6 C 0.96262(10) 0.71738(13) 0.68222(10)
C18_6 C 0.69125(10) 0.86360(13) 0.48881(11)
H10_6 H 0.6663 0.8335 0.4515
C19_6 C 0.74514(10) 0.81475(13) 0.52480(11)
H11_6 H 0.7562 0.7526 0.5119
C21_6 C 0.86325(10) 0.82876(13) 0.68501(10)
H13_6 H 0.8363 0.8751 0.7095
C24_6 C 0.76256(11) 0.94721(14) 0.59594(12)
H16_6 H 0.7863 0.9789 0.6332
O5_4 O 0.55064(6) 0.89781(8) 0.40832(7)
O2_7 O 0.34130(7) 0.64979(9) 0.07108(7)
O3_7 O 0.32257(7) 0.53574(9) 0.14483(8)
C1_7 C 0.10190(9) 0.66192(13) 0.29436(10)
C4_7 C 0.16127(9) 0.70111(13) 0.24969(10)
C5_7 C 0.31062(9) 0.61789(12) 0.12490(10)
C6_7 C 0.20711(9) 0.64310(12) 0.21090(10)
H2_7 H 0.2020 0.5776 0.2149
C10_7 C 0.26031(10) 0.67985(12) 0.16628(10)
C12_7 C 0.00948(10) 0.54567(13) 0.31652(10)
C13_7 C 0.06633(10) 0.57955(13) 0.27563(10)
H5_7 H 0.0812 0.5469 0.2349
C14_7 C 0.07733(10) 0.70609(14) 0.35450(11)
H6_7 H 0.0992 0.7629 0.3690
C15_7 C 0.22378(11) 0.83438(13) 0.20051(11)
H7_7 H 0.2299 0.8998 0.1973
C18_7 C 0.30875(10) 0.36360(13) 0.01119(11)
H10_7 H 0.3337 0.3335 0.0485
C20_7 C 0.17068(10) 0.79744(13) 0.24453(11)
H12_7 H 0.1404 0.8378 0.2714
C22_7 C 0.02069(10) 0.66668(13) 0.39319(11)
H14_7 H 0.0050 0.6976 0.4344
C23_7 C 0.26792(10) 0.77571(13) 0.16123(11)
H15_7 H 0.3038 0.8013 0.1305
C2_7 C 0.01550(9) 0.11952(12) 0.92548(9)
C3_7 C 0.11555(9) 0.23842(12) 0.91875(10)
H1_7 H 0.1288 0.2216 0.9651
N1_7 N 0.32735(8) 0.45123(11) 0.99576(9)
C7_7 C 0.15590(9) 0.30730(12) 0.88380(10)
C8_7 C 0.21707(9) 0.35621(13) 0.92050(10)
C9_7 C 0.05619(9) 0.19430(12) 0.88630(10)
C11_7 C 0.07891(10) 0.28319(14) 0.78197(11)
H3_7 H 0.0676 0.2970 0.7347
C16_7 C 0.29225(11) 0.49105(14) 0.94216(12)
H8_7 H 0.3056 0.5526 0.9296
C17_7 C 0.03738(10) 0.21738(13) 0.81778(10)
C19_7 C 0.25486(10) 0.31475(13) 0.97520(11)
H11_7 H 0.2438 0.2526 0.9881
C21_7 C 0.13675(10) 0.32876(13) 0.81499(10)
H13_7 H 0.1637 0.3751 0.7905
C24_7 C 0.23744(11) 0.44721(14) 0.90406(12)
H16_7 H 0.2137 0.4789 0.8668
H4_7 H 0.9852 0.4903 0.3023
H9_7 H 0.9964 0.1883 0.7957
O2_8 O 0.15870(7) 0.35021(9) 0.57108(7)
O3_8 O 0.17743(7) 0.46426(9) 0.64483(8)
C1_8 C 0.39810(9) 0.33808(13) 0.79436(10)
C2_8 C 0.48450(9) 0.88048(12) 0.42548(9)
C3_8 C 0.38445(9) 0.76158(12) 0.41875(10)
H1_8 H 0.3712 0.7784 0.4651
C4_8 C 0.33873(9) 0.29889(13) 0.74969(10)
N1_8 N 0.17265(8) 0.54877(11) 0.49576(9)
C5_8 C 0.18938(9) 0.38211(12) 0.62490(10)
C6_8 C 0.29289(9) 0.35690(12) 0.71090(10)
H2_8 H 0.2980 0.4224 0.7149
C7_8 C 0.34410(9) 0.69270(12) 0.38380(10)
C8_8 C 0.28293(9) 0.64379(13) 0.42050(10)
C9_8 C 0.44381(9) 0.80570(12) 0.38630(10)
C10_8 C 0.23969(10) 0.32015(12) 0.66628(10)
C11_8 C 0.42109(10) 0.71681(14) 0.28197(11)
H3_8 H 0.4324 0.7030 0.2347
C12_8 C 0.49052(10) 0.45433(13) 0.81652(10)
H4_8 H 0.5148 0.5097 0.8023
C13_8 C 0.43367(10) 0.42045(13) 0.77563(10)
H5_8 H 0.4188 0.4531 0.7349
C14_8 C 0.42267(10) 0.29391(14) 0.85450(11)
H6_8 H 0.4008 0.2371 0.8690
C15_8 C 0.27622(11) 0.16562(13) 0.70051(11)
H7_8 H 0.2701 0.1002 0.6973
C16_8 C 0.20775(11) 0.50895(14) 0.44216(12)
H8_8 H 0.1944 0.4474 0.4296
C17_8 C 0.46262(10) 0.78262(13) 0.31778(10)
H9_8 H 0.5036 0.8117 0.2957
C18_8 C 0.19125(10) 0.63640(13) 0.51119(11)
H10_8 H 0.1663 0.6665 0.5485
C19_8 C 0.24514(10) 0.68525(13) 0.47520(11)
H11_8 H 0.2562 0.7474 0.4881
C20_8 C 0.32932(10) 0.20256(13) 0.74453(11)
H12_8 H 0.3596 0.1622 0.7714
C21_8 C 0.36325(10) 0.67124(13) 0.31499(10)
H13_8 H 0.3363 0.6249 0.2905
C22_8 C 0.47931(10) 0.33332(13) 0.89319(11)
H14_8 H 0.4950 0.3024 0.9344
C23_8 C 0.23208(10) 0.22429(13) 0.66123(11)
H15_8 H 0.1962 0.1987 0.6305
C24_8 C 0.26256(11) 0.55279(14) 0.40406(12)
H16_8 H 0.2863 0.5211 0.3668
loop_
_geom_bond_atom_site_label_1
_geom_bond_atom_site_label_2
_geom_bond_site_symmetry_1
_geom_bond_site_symmetry_2
Co1 O2 1_555 1_555
O2 C5 1_555 1_555
O3 Co1 1_555 1_555
C1 C4 1_555 1_555
C4 C6 1_555 1_555
N2 C12 1_555 1_555
C5 O3 1_555 1_555
C6 H2 1_555 1_555
C10 C5 1_555 1_555
C13 C1 1_555 1_555
H5 C13 1_555 1_555
C14 C1 1_555 1_555
H6 C14 1_555 1_555
C15 H7 1_555 1_555
C20 C4 1_555 1_555
H12 C20 1_555 1_555
C22 N2 1_555 1_555
H14 C22 1_555 1_555
C23 C10 1_555 1_555
H15 C23 1_555 1_555
Co3 N2 1_555 1_555
N3 Co1 1_555 1_555
C6 C10 1_555 1_555
C12 C13 1_555 1_555
C14 C22 1_555 1_555
C15 C20 1_555 1_555
C15 C23 1_555 1_555
H10 C18 1_555 1_555
O1 C2 1_555 1_555
C2 C9 1_555 1_555
C3 H1 1_555 1_555
C7 C3 1_555 1_555
C8 C7 1_555 1_555
C9 C3 1_555 1_555
C11 H3 1_555 1_555
C16 N1 1_555 1_555
C17 C9 1_555 1_555
H9 C17 1_555 1_555
C19 C8 1_555 1_555
H11 C19 1_555 1_555
C21 C7 1_555 1_555
H13 C21 1_555 1_555
C24 C8 1_555 1_555
H16 C24 1_555 1_555
O4 C2 1_555 1_555
Co2 O1 1_555 1_555
C11 C17 1_555 1_555
C11 C21 1_555 1_555
C16 C24 1_555 1_555
C2_2 C9_2 1_555 1_555
C3_2 H1_2 1_555 1_555
C7_2 C3_2 1_555 1_555
C8_2 C7_2 1_555 1_555
C9_2 C3_2 1_555 1_555
C11_2 H3_2 1_555 1_555
C16_2 N1_2 1_555 1_555
C17_2 C9_2 1_555 1_555
C18_2 N1_2 1_555 1_555
H10_2 C18_2 1_555 1_555
C19_2 C8_2 1_555 1_555
H11_2 C19_2 1_555 1_555
C21_2 C7_2 1_555 1_555
H13_2 C21_2 1_555 1_555
C24_2 C8_2 1_555 1_555
H16_2 C24_2 1_555 1_555
O4_2 C2_2 1_555 1_555
Co4_2 O4_2 1_555 1_555
C11_2 C17_2 1_555 1_555
C11_2 C21_2 1_555 1_555
C16_2 C24_2 1_555 1_555
C18_2 C19_2 1_555 1_555
Co1_2 O2_2 1_555 1_555
O2_2 C5_2 1_555 1_555
O3_2 Co1_2 1_555 1_555
C1_2 C4_2 1_555 1_555
C4_2 C6_2 1_555 1_555
C5_2 O3_2 1_555 1_555
C6_2 H2_2 1_555 1_555
C10_2 C5_2 1_555 1_555
C13_2 C1_2 1_555 1_555
H5_2 C13_2 1_555 1_555
C14_2 C1_2 1_555 1_555
H6_2 C14_2 1_555 1_555
C15_2 H7_2 1_555 1_555
C20_2 C4_2 1_555 1_555
H12_2 C20_2 1_555 1_555
H14_2 C22_2 1_555 1_555
C23_2 C10_2 1_555 1_555
H15_2 C23_2 1_555 1_555
N3_2 Co1_2 1_555 1_555
O6_2 Co1_2 1_555 1_555
C6_2 C10_2 1_555 1_555
C12_2 C13_2 1_555 1_555
C14_2 C22_2 1_555 1_555
C15_2 C20_2 1_555 1_555
C15_2 C23_2 1_555 1_555
Co2_2 O1_2 1_555 1_555
Co3_2 N2_2 1_555 1_555
Co4_2 N2_3 1_555 1_555
C2_3 C9_3 1_555 1_555
C3_3 H1_3 1_555 1_555
C7_3 C3_3 1_555 1_555
C8_3 C7_3 1_555 1_555
C9_3 C3_3 1_555 1_555
C11_3 H3_3 1_555 1_555
C16_3 N1_3 1_555 1_555
H8_3 C16_3 1_555 1_555
C17_3 C9_3 1_555 1_555
C19_3 C8_3 1_555 1_555
H11_3 C19_3 1_555 1_555
C21_3 C7_3 1_555 1_555
H13_3 C21_3 1_555 1_555
C24_3 C8_3 1_555 1_555
H16_3 C24_3 1_555 1_555
O4_3 C2_3 1_555 1_555
C11_3 C17_3 1_555 1_555
C11_3 C21_3 1_555 1_555
C16_3 C24_3 1_555 1_555
Co2 O2_3 1_555 1_555
O2_3 C5_3 1_555 1_555
O3_3 Co2 1_555 1_555
C1_3 C4_3 1_555 1_555
C4_3 C6_3 1_555 1_555
C5_3 O3_3 1_555 1_555
C6_3 H2_3 1_555 1_555
C10_3 C5_3 1_555 1_555
C13_3 C1_3 1_555 1_555
H5_3 C13_3 1_555 1_555
C14_3 C1_3 1_555 1_555
H6_3 C14_3 1_555 1_555
C15_3 H7_3 1_555 1_555
H10_3 C18_3 1_555 1_555
C20_3 C4_3 1_555 1_555
H12_3 C20_3 1_555 1_555
H14_3 C22_3 1_555 1_555
C23_3 C10_3 1_555 1_555
H15_3 C23_3 1_555 1_555
N3_3 Co2 1_555 1_555
C6_3 C10_3 1_555 1_555
C12_3 C13_3 1_555 1_555
C14_3 C22_3 1_555 1_555
C15_3 C20_3 1_555 1_555
C15_3 C23_3 1_555 1_555
Co2_2 O2_4 1_555 1_555
O5_2 C2_4 1_555 1_555
O2_4 C5_4 1_555 1_555
O3_4 Co2_2 1_555 1_555
C1_4 C4_4 1_555 1_555
C2_4 C9_4 1_555 1_555
C3_4 H1_4 1_555 1_555
C4_4 C6_4 1_555 1_555
N1_4 Co2_2 1_555 1_555
N2_4 C12_4 1_555 1_555
C5_4 O3_4 1_555 1_555
C6_4 H2_4 1_555 1_555
C7_4 C3_4 1_555 1_555
C8_4 C7_4 1_555 1_555
C9_4 C3_4 1_555 1_555
C10_4 C5_4 1_555 1_555
C11_4 H3_4 1_555 1_555
C12_4 H4_4 1_555 1_555
C13_4 C1_4 1_555 1_555
H5_4 C13_4 1_555 1_555
C14_4 C1_4 1_555 1_555
H6_4 C14_4 1_555 1_555
C15_4 H7_4 1_555 1_555
C16_4 N1_4 1_555 1_555
H8_4 C16_4 1_555 1_555
C17_4 C9_4 1_555 1_555
H9_4 C17_4 1_555 1_555
C18_4 N1_4 1_555 1_555
H10_4 C18_4 1_555 1_555
C19_4 C8_4 1_555 1_555
H11_4 C19_4 1_555 1_555
C20_4 C4_4 1_555 1_555
H12_4 C20_4 1_555 1_555
C21_4 C7_4 1_555 1_555
H13_4 C21_4 1_555 1_555
C22_4 N2_4 1_555 1_555
H14_4 C22_4 1_555 1_555
C23_4 C10_4 1_555 1_555
H15_4 C23_4 1_555 1_555
C24_4 C8_4 1_555 1_555
H16_4 C24_4 1_555 1_555
O4_4 C2_4 1_555 1_555
Co4 N2_4 1_555 1_555
Co3 O4_4 1_555 1_555
N3_4 Co2_2 1_555 1_555
O6_4 Co2_2 1_555 1_555
C6_4 C10_4 1_555 1_555
C11_4 C17_4 1_555 1_555
C11_4 C21_4 1_555 1_555
C12_4 C13_4 1_555 1_555
C14_4 C22_4 1_555 1_555
C15_4 C20_4 1_555 1_555
C15_4 C23_4 1_555 1_555
C16_4 C24_4 1_555 1_555
C18_4 C19_4 1_555 1_555
O1_3 C2_5 1_555 1_555
C2_5 C9_5 1_555 1_555
C3_5 H1_5 1_555 1_555
C7_5 C3_5 1_555 1_555
C8_5 C7_5 1_555 1_555
C9_5 C3_5 1_555 1_555
C11_5 H3_5 1_555 1_555
C16_5 N1_5 1_555 1_555
C17_5 C9_5 1_555 1_555
H9_5 C17_5 1_555 1_555
C19_5 C8_5 1_555 1_555
H11_5 C19_5 1_555 1_555
C21_5 C7_5 1_555 1_555
H13_5 C21_5 1_555 1_555
C24_5 C8_5 1_555 1_555
H16_5 C24_5 1_555 1_555
O6_3 C2_5 1_555 1_555
Co4 O1_3 1_555 1_555
C11_5 C17_5 1_555 1_555
C11_5 C21_5 1_555 1_555
C16_5 C24_5 1_555 1_555
H10_5 C18_5 1_555 1_555
Co3_2 O2_5 1_555 1_555
O2_5 C5_5 1_555 1_555
O3_5 Co3_2 1_555 1_555
C1_5 C4_5 1_555 1_555
C4_5 C6_5 1_555 1_555
N3_2 C12_5 1_555 1_555
C5_5 O3_5 1_555 1_555
C6_5 H2_5 1_555 1_555
C10_5 C5_5 1_555 1_555
C13_5 C1_5 1_555 1_555
H5_5 C13_5 1_555 1_555
C14_5 C1_5 1_555 1_555
H6_5 C14_5 1_555 1_555
C15_5 H7_5 1_555 1_555
C20_5 C4_5 1_555 1_555
H12_5 C20_5 1_555 1_555
C22_5 N3_2 1_555 1_555
H14_5 C22_5 1_555 1_555
C23_5 C10_5 1_555 1_555
H15_5 C23_5 1_555 1_555
C6_5 C10_5 1_555 1_555
C12_5 C13_5 1_555 1_555
C14_5 C22_5 1_555 1_555
C15_5 C20_5 1_555 1_555
C15_5 C23_5 1_555 1_555
Co4_2 O1_4 1_555 1_555
Co3 O2_6 1_555 1_555
O2_6 C5_6 1_555 1_555
O3_6 Co3 1_555 1_555
C1_6 C4_6 1_555 1_555
C4_6 C6_6 1_555 1_555
C5_6 O3_6 1_555 1_555
C6_6 H2_6 1_555 1_555
C10_6 C5_6 1_555 1_555
C13_6 C1_6 1_555 1_555
H5_6 C13_6 1_555 1_555
C14_6 C1_6 1_555 1_555
H6_6 C14_6 1_555 1_555
C15_6 H7_6 1_555 1_555
C20_6 C4_6 1_555 1_555
H12_6 C20_6 1_555 1_555
H14_6 C22_6 1_555 1_555
C23_6 C10_6 1_555 1_555
H15_6 C23_6 1_555 1_555
C6_6 C10_6 1_555 1_555
C12_6 C13_6 1_555 1_555
C14_6 C22_6 1_555 1_555
C15_6 C20_6 1_555 1_555
C15_6 C23_6 1_555 1_555
C2_6 C9_6 1_555 1_555
C3_6 H1_6 1_555 1_555
C7_6 C3_6 1_555 1_555
C8_6 C7_6 1_555 1_555
C9_6 C3_6 1_555 1_555
C11_6 H3_6 1_555 1_555
C16_6 N1_6 1_555 1_555
C17_6 C9_6 1_555 1_555
C18_6 N1_6 1_555 1_555
H10_6 C18_6 1_555 1_555
C19_6 C8_6 1_555 1_555
H11_6 C19_6 1_555 1_555
C21_6 C7_6 1_555 1_555
H13_6 C21_6 1_555 1_555
C24_6 C8_6 1_555 1_555
H16_6 C24_6 1_555 1_555
O6_4 C2_6 1_555 1_555
C11_6 C17_6 1_555 1_555
C11_6 C21_6 1_555 1_555
C16_6 C24_6 1_555 1_555
C18_6 C19_6 1_555 1_555
Co4 O2_7 1_555 1_555
O2_7 C5_7 1_555 1_555
O3_7 Co4 1_555 1_555
C1_7 C4_7 1_555 1_555
C4_7 C6_7 1_555 1_555
C5_7 O3_7 1_555 1_555
C6_7 H2_7 1_555 1_555
C10_7 C5_7 1_555 1_555
C13_7 C1_7 1_555 1_555
H5_7 C13_7 1_555 1_555
C14_7 C1_7 1_555 1_555
H6_7 C14_7 1_555 1_555
C15_7 H7_7 1_555 1_555
H10_7 C18_7 1_555 1_555
C20_7 C4_7 1_555 1_555
H12_7 C20_7 1_555 1_555
H14_7 C22_7 1_555 1_555
C23_7 C10_7 1_555 1_555
H15_7 C23_7 1_555 1_555
C6_7 C10_7 1_555 1_555
C12_7 C13_7 1_555 1_555
C14_7 C22_7 1_555 1_555
C15_7 C20_7 1_555 1_555
C15_7 C23_7 1_555 1_555
C2_7 C9_7 1_555 1_555
C3_7 H1_7 1_555 1_555
C7_7 C3_7 1_555 1_555
C8_7 C7_7 1_555 1_555
C9_7 C3_7 1_555 1_555
C11_7 H3_7 1_555 1_555
C16_7 N1_7 1_555 1_555
H8_7 C16_7 1_555 1_555
C17_7 C9_7 1_555 1_555
C19_7 C8_7 1_555 1_555
H11_7 C19_7 1_555 1_555
C21_7 C7_7 1_555 1_555
H13_7 C21_7 1_555 1_555
C24_7 C8_7 1_555 1_555
H16_7 C24_7 1_555 1_555
O6 C2_7 1_555 1_555
C11_7 C17_7 1_555 1_555
C11_7 C21_7 1_555 1_555
C16_7 C24_7 1_555 1_555
Co4_2 O2_8 1_555 1_555
O5_4 C2_8 1_555 1_555
O2_8 C5_8 1_555 1_555
O3_8 Co4_2 1_555 1_555
C1_8 C4_8 1_555 1_555
C2_8 C9_8 1_555 1_555
C3_8 H1_8 1_555 1_555
C4_8 C6_8 1_555 1_555
N1_8 Co4_2 1_555 1_555
N3_3 C12_8 1_555 1_555
C5_8 O3_8 1_555 1_555
C6_8 H2_8 1_555 1_555
C7_8 C3_8 1_555 1_555
C8_8 C7_8 1_555 1_555
C9_8 C3_8 1_555 1_555
C10_8 C5_8 1_555 1_555
C11_8 H3_8 1_555 1_555
C12_8 H4_8 1_555 1_555
C13_8 C1_8 1_555 1_555
H5_8 C13_8 1_555 1_555
C14_8 C1_8 1_555 1_555
H6_8 C14_8 1_555 1_555
C15_8 H7_8 1_555 1_555
C16_8 N1_8 1_555 1_555
H8_8 C16_8 1_555 1_555
C17_8 C9_8 1_555 1_555
H9_8 C17_8 1_555 1_555
C18_8 N1_8 1_555 1_555
H10_8 C18_8 1_555 1_555
C19_8 C8_8 1_555 1_555
H11_8 C19_8 1_555 1_555
C20_8 C4_8 1_555 1_555
H12_8 C20_8 1_555 1_555
C21_8 C7_8 1_555 1_555
H13_8 C21_8 1_555 1_555
C22_8 N3_3 1_555 1_555
H14_8 C22_8 1_555 1_555
C23_8 C10_8 1_555 1_555
H15_8 C23_8 1_555 1_555
C24_8 C8_8 1_555 1_555
H16_8 C24_8 1_555 1_555
O6_2 C2_8 1_555 1_555
C6_8 C10_8 1_555 1_555
C11_8 C17_8 1_555 1_555
C11_8 C21_8 1_555 1_555
C12_8 C13_8 1_555 1_555
C14_8 C22_8 1_555 1_555
C15_8 C20_8 1_555 1_555
C15_8 C23_8 1_555 1_555
C16_8 C24_8 1_555 1_555
C18_8 C19_8 1_555 1_555

#END
