
###############################################################################
#
# This file contains modified crystal structure data generated from the
# MOF subset of the Cambridge Structural Database (CSD) v543 
# hosted by the Cambridge Crystallographic Data Centre (CCDC).
#
# This work is licensed under the Creative Commons
# Attribution-NonCommercial-ShareAlike 4.0 International License.
# To view a copy of this license, visit
# http://creativecommons.org/licenses/by-nc-sa/4.0/
# or send a letter to
# Creative Commons, PO Box 1866, Mountain View, CA 94042, USA.
#
# CIF created using the CSD Python API on 29 September 2022
# The structure has been converted into the P1 space group
# The structure has a 3D framework
# The original CSD entry XEWYOQ is in the cubic crystal system
# The original CSD entry XEWYOQ is in a Sohncke space group
# The framework has been calculated to contain at least 10.0% void space
# The void calculation uses a probe of radius 1.32A, grid spacing 0.4
# The framework is charged, counterions have been retained in the structure
#
###############################################################################

data_XEWYOQ
_chemical_formula_moiety         '(C144 H276 Co28 N28 O108)n'
_symmetry_cell_setting           triclinic
_symmetry_space_group_name_H-M   'P 1'
_symmetry_Int_Tables_number      1
_space_group_name_Hall           'P 1'
loop_
_symmetry_equiv_pos_site_id
_symmetry_equiv_pos_as_xyz
1 x,y,z
_cell_length_a                   18.470
_cell_length_b                   18.470
_cell_length_c                   18.470
_cell_angle_alpha                90
_cell_angle_beta                 90
_cell_angle_gamma                90
_cell_volume                     6300.87
loop_
_atom_site_label
_atom_site_type_symbol
_atom_site_fract_x
_atom_site_fract_y
_atom_site_fract_z
O1 O 0.4086(6) 0.5142(8) 0.0074(7)
N1 N 0.4606(7) 0.5394(7) 0.0394(7)
O2 O 0.4926(7) 0.5914(6) 0.0142(8)
O3 O 0.4858(8) 0.5074(7) 0.0914(6)
O1_2 O 0.0914(6) 0.4858(8) 0.5074(7)
N1_2 N 0.0394(7) 0.4606(7) 0.5394(7)
O2_2 O 0.0074(7) 0.4086(6) 0.5142(8)
O3_2 O 0.0142(8) 0.4926(7) 0.5914(6)
O1_3 O 0.9086(6) 0.9858(8) 0.9926(7)
N1_3 N 0.9606(7) 0.9606(7) 0.9606(7)
O2_3 O 0.9926(7) 0.9086(6) 0.9858(8)
O3_3 O 0.9858(8) 0.9926(7) 0.9086(6)
O1_4 O 0.5914(6) 0.0142(8) 0.4926(7)
N1_4 N 0.5394(7) 0.0394(7) 0.4606(7)
O2_4 O 0.5074(7) 0.0914(6) 0.4858(8)
O3_4 O 0.5142(8) 0.0074(7) 0.4086(6)
Co1 Co 0.51898(6) 0.35214(6) 0.75384(6)
Co2 Co 0.63785(6) 0.36215(6) 0.86215(6)
O4 O 0.5797(3) 0.3941(3) 0.6838(3)
O5 O 0.5937(3) 0.2881(3) 0.7885(3)
O6 O 0.5532(5) 0.1471(4) 0.6185(5)
H1 H 0.5407 0.1258 0.5817
O7 O 0.5539(3) 0.4248(3) 0.8186(3)
O8 O 0.4582(3) 0.3084(3) 0.8243(3)
O9 O 0.3678(5) 0.5489(4) 0.7875(5)
H2 H 0.4037 0.5710 0.8014
N2 N 0.5018(4) 0.2760(4) 0.6836(4)
H3 H 0.4876 0.2318 0.7094
N3 N 0.4404(4) 0.4190(4) 0.7380(4)
H4 H 0.4617 0.4637 0.7191
C1 C 0.6046(6) 0.3436(5) 0.6323(5)
H5 H 0.6570 0.3450 0.6292
H6 H 0.5847 0.3544 0.5849
C2 C 0.6216(5) 0.2476(5) 0.7283(5)
H7 H 0.6169 0.1961 0.7378
H8 H 0.6726 0.2584 0.7217
C3 C 0.5882(6) 0.2124(5) 0.5996(5)
H9 H 0.5681 0.2308 0.5547
H10 H 0.6394 0.2033 0.5921
C4 C 0.5788(5) 0.2679(5) 0.6584(5)
C5 C 0.4465(6) 0.2925(7) 0.6288(6)
H11 H 0.4654 0.3281 0.5951
H12 H 0.4351 0.2490 0.6018
C6 C 0.3806(9) 0.3207(11) 0.6625(11)
H13 H 0.3691 0.2903 0.7038
H14 H 0.3412 0.3159 0.6281
C7 C 0.3828(6) 0.3980(6) 0.6878(7)
H15 H 0.3866 0.4287 0.6454
H16 H 0.3368 0.4088 0.7107
C8 C 0.4216(4) 0.4329(5) 0.8162(5)
C9 C 0.4928(5) 0.4608(5) 0.8511(5)
H17 H 0.4969 0.5127 0.8440
H18 H 0.4920 0.4513 0.9028
C10 C 0.4042(4) 0.3576(5) 0.8487(6)
H19 H 0.4043 0.3601 0.9012
H20 H 0.3567 0.3416 0.8330
C11 C 0.3598(5) 0.4859(6) 0.8278(6)
H21 H 0.3146 0.4627 0.8146
H22 H 0.3573 0.4984 0.8788
O10 O 0.7152(4) 0.5430(4) 0.5456(4)
O11 O 0.6964(4) 0.5035(4) 0.6560(4)
C12 C 0.6889(8) 0.5318(9) 0.6034(7)
H23 H 0.6449 0.5563 0.6052
Co3 Co 0.62620(6) 0.47724(6) 0.73776(6)
Co4 Co 0.75384(6) 0.51898(6) 0.35214(6)
O12 O 0.6838(3) 0.5797(3) 0.3941(3)
O13 O 0.7885(3) 0.5937(3) 0.2881(3)
O14 O 0.6185(5) 0.5532(5) 0.1471(4)
H24 H 0.5817 0.5407 0.1258
O15 O 0.8186(3) 0.5539(3) 0.4248(3)
O16 O 0.8243(3) 0.4582(3) 0.3084(3)
O17 O 0.7875(5) 0.3678(5) 0.5489(4)
H25 H 0.8014 0.4037 0.5710
N4 N 0.6836(4) 0.5018(4) 0.2760(4)
H26 H 0.7094 0.4876 0.2318
N5 N 0.7380(4) 0.4404(4) 0.4190(4)
H27 H 0.7191 0.4617 0.4637
C13 C 0.6323(5) 0.6046(6) 0.3436(5)
H28 H 0.6292 0.6570 0.3450
H29 H 0.5849 0.5847 0.3544
C14 C 0.7283(5) 0.6216(5) 0.2476(5)
H30 H 0.7378 0.6169 0.1961
H31 H 0.7217 0.6726 0.2584
C15 C 0.5996(5) 0.5882(6) 0.2124(5)
H32 H 0.5547 0.5681 0.2308
H33 H 0.5921 0.6394 0.2033
C16 C 0.6584(5) 0.5788(5) 0.2679(5)
C17 C 0.6288(6) 0.4465(6) 0.2925(7)
H34 H 0.5951 0.4654 0.3281
H35 H 0.6018 0.4351 0.2490
C18 C 0.6625(11) 0.3806(9) 0.3207(11)
H36 H 0.7038 0.3691 0.2903
H37 H 0.6281 0.3412 0.3159
C19 C 0.6878(7) 0.3828(6) 0.3980(6)
H38 H 0.6454 0.3866 0.4287
H39 H 0.7107 0.3368 0.4088
C20 C 0.8162(5) 0.4216(4) 0.4329(5)
C21 C 0.8511(5) 0.4928(5) 0.4608(5)
H40 H 0.8440 0.4969 0.5127
H41 H 0.9028 0.4920 0.4513
C22 C 0.8487(6) 0.4042(4) 0.3576(5)
H42 H 0.9012 0.4043 0.3601
H43 H 0.8330 0.3567 0.3416
C23 C 0.8278(6) 0.3598(5) 0.4859(6)
H44 H 0.8146 0.3146 0.4627
H45 H 0.8788 0.3573 0.4984
O18 O 0.5456(4) 0.7152(4) 0.5430(4)
O19 O 0.6560(4) 0.6964(4) 0.5035(4)
C24 C 0.6034(7) 0.6889(8) 0.5318(9)
H46 H 0.6052 0.6449 0.5563
Co5 Co 0.73776(6) 0.62620(6) 0.47724(6)
Co6 Co 0.35214(6) 0.75384(6) 0.51898(6)
O20 O 0.3941(3) 0.6838(3) 0.5797(3)
O21 O 0.2881(3) 0.7885(3) 0.5937(3)
O22 O 0.1471(4) 0.6185(5) 0.5532(5)
H47 H 0.1258 0.5817 0.5407
O23 O 0.4248(3) 0.8186(3) 0.5539(3)
O24 O 0.3084(3) 0.8243(3) 0.4582(3)
O25 O 0.5489(4) 0.7875(5) 0.3678(5)
H48 H 0.5710 0.8014 0.4037
N6 N 0.2760(4) 0.6836(4) 0.5018(4)
H49 H 0.2318 0.7094 0.4876
N7 N 0.4190(4) 0.7380(4) 0.4404(4)
H50 H 0.4637 0.7191 0.4617
C25 C 0.3436(5) 0.6323(5) 0.6046(6)
H51 H 0.3450 0.6292 0.6570
H52 H 0.3544 0.5849 0.5847
C26 C 0.2476(5) 0.7283(5) 0.6216(5)
H53 H 0.1961 0.7378 0.6169
H54 H 0.2584 0.7217 0.6726
C27 C 0.2124(5) 0.5996(5) 0.5882(6)
H55 H 0.2308 0.5547 0.5681
H56 H 0.2033 0.5921 0.6394
C28 C 0.2679(5) 0.6584(5) 0.5788(5)
C29 C 0.2925(7) 0.6288(6) 0.4465(6)
H57 H 0.3281 0.5951 0.4654
H58 H 0.2490 0.6018 0.4351
C30 C 0.3207(11) 0.6625(11) 0.3806(9)
H59 H 0.2903 0.7038 0.3691
H60 H 0.3159 0.6281 0.3412
C31 C 0.3980(6) 0.6878(7) 0.3828(6)
H61 H 0.4287 0.6454 0.3866
H62 H 0.4088 0.7107 0.3368
C32 C 0.4329(5) 0.8162(5) 0.4216(4)
C33 C 0.4608(5) 0.8511(5) 0.4928(5)
H63 H 0.5127 0.8440 0.4969
H64 H 0.4513 0.9028 0.4920
C34 C 0.3576(5) 0.8487(6) 0.4042(4)
H65 H 0.3601 0.9012 0.4043
H66 H 0.3416 0.8330 0.3567
C35 C 0.4859(6) 0.8278(6) 0.3598(5)
H67 H 0.4627 0.8146 0.3146
H68 H 0.4984 0.8788 0.3573
O26 O 0.5430(4) 0.5456(4) 0.7152(4)
O27 O 0.5035(4) 0.6560(4) 0.6964(4)
C36 C 0.5318(9) 0.6034(7) 0.6889(8)
H69 H 0.5563 0.6052 0.6449
Co7 Co 0.47724(6) 0.73776(6) 0.62620(6)
Co8 Co 0.86215(6) 0.63785(6) 0.36215(6)
Co9 Co 0.36215(6) 0.86215(6) 0.63785(6)
O28 O 0.4063(3) 0.7881(3) 0.7115(3)
O29 O 0.7115(3) 0.4063(3) 0.7881(3)
O30 O 0.7119(3) 0.2885(3) 0.9063(3)
O31 O 0.7881(3) 0.7115(3) 0.4063(3)
O32 O 0.6814(3) 0.4461(3) 0.9248(3)
O33 O 0.5752(3) 0.3186(3) 0.9461(3)
O34 O 0.5418(3) 0.8084(3) 0.6757(3)
O35 O 0.6757(3) 0.5418(3) 0.8084(3)
O36 O 0.8084(3) 0.6757(3) 0.5418(3)
Co10 Co 0.87380(6) 0.52276(6) 0.23776(6)
Co11 Co 0.52276(6) 0.23776(6) 0.87380(6)
Co12 Co 0.23776(6) 0.87380(6) 0.52276(6)
O8_2 O 0.0418(3) 0.6916(3) 0.3243(3)
O9_2 O 0.1322(5) 0.4511(4) 0.2875(5)
H2_2 H 0.0963 0.4290 0.3014
H3_2 H 0.0124 0.7682 0.2094
N3_2 N 0.0596(4) 0.5810(4) 0.2380(4)
H4_2 H 0.0383 0.5363 0.2191
C5_2 C 0.0535(6) 0.7075(7) 0.1288(6)
H11_2 H 0.0346 0.6719 0.0951
H12_2 H 0.0649 0.7510 0.1018
C6_2 C 0.1194(9) 0.6793(11) 0.1625(11)
H13_2 H 0.1309 0.7097 0.2038
H14_2 H 0.1588 0.6841 0.1281
C7_2 C 0.1172(6) 0.6020(6) 0.1878(7)
H15_2 H 0.1134 0.5713 0.1454
H16_2 H 0.1632 0.5912 0.2107
C8_2 C 0.0784(4) 0.5671(5) 0.3162(5)
C9_2 C 0.0072(5) 0.5392(5) 0.3511(5)
H17_2 H 0.0031 0.4873 0.3440
H18_2 H 0.0080 0.5487 0.4028
C10_2 C 0.0958(4) 0.6424(5) 0.3487(6)
H19_2 H 0.0957 0.6399 0.4012
H20_2 H 0.1433 0.6584 0.3330
C11_2 C 0.1402(5) 0.5141(6) 0.3278(6)
H21_2 H 0.1854 0.5373 0.3146
H22_2 H 0.1427 0.5016 0.3788
Co6_2 Co 0.14786(6) 0.24616(6) 0.01898(6)
O20_2 O 0.1059(3) 0.3162(3) 0.0797(3)
O21_2 O 0.2119(3) 0.2115(3) 0.0937(3)
O22_2 O 0.3529(4) 0.3815(5) 0.0532(5)
H47_2 H 0.3742 0.4183 0.0407
O23_2 O 0.0752(3) 0.1814(3) 0.0539(3)
N6_2 N 0.2240(4) 0.3164(4) 0.0018(4)
C25_2 C 0.1564(5) 0.3677(5) 0.1046(6)
H51_2 H 0.1550 0.3708 0.1570
H52_2 H 0.1456 0.4151 0.0847
C26_2 C 0.2524(5) 0.2717(5) 0.1216(5)
H53_2 H 0.3039 0.2622 0.1169
H54_2 H 0.2416 0.2783 0.1726
C27_2 C 0.2876(5) 0.4004(5) 0.0882(6)
H55_2 H 0.2692 0.4453 0.0681
H56_2 H 0.2967 0.4079 0.1394
C28_2 C 0.2321(5) 0.3416(5) 0.0788(5)
Co7_2 Co 0.02276(6) 0.26224(6) 0.12620(6)
Co9_2 Co 0.13785(6) 0.13785(6) 0.13785(6)
O28_2 O 0.0937(3) 0.2119(3) 0.2115(3)
Co12_2 Co 0.26224(6) 0.12620(6) 0.02276(6)
O24_2 O 0.1916(3) 0.1757(3) 0.9582(3)
H49_2 H 0.2682 0.2906 0.9876
N7_2 N 0.0810(4) 0.2620(4) 0.9404(4)
H50_2 H 0.0363 0.2809 0.9617
C29_2 C 0.2075(7) 0.3712(6) 0.9465(6)
H57_2 H 0.1719 0.4049 0.9654
H58_2 H 0.2510 0.3982 0.9351
C30_2 C 0.1793(11) 0.3375(11) 0.8806(9)
H59_2 H 0.2097 0.2962 0.8691
H60_2 H 0.1841 0.3719 0.8412
C31_2 C 0.1020(6) 0.3122(7) 0.8828(6)
H61_2 H 0.0713 0.3546 0.8866
H62_2 H 0.0912 0.2893 0.8368
C32_2 C 0.0671(5) 0.1838(5) 0.9216(4)
C33_2 C 0.0392(5) 0.1489(5) 0.9928(5)
H64_2 H 0.0487 0.0972 0.9920
C34_2 C 0.1424(5) 0.1513(6) 0.9042(4)
H65_2 H 0.1399 0.0988 0.9043
H66_2 H 0.1584 0.1670 0.8567
C35_2 C 0.0141(6) 0.1722(6) 0.8598(5)
H67_2 H 0.0373 0.1854 0.8146
H68_2 H 0.0016 0.1212 0.8573
Co1_2 Co 0.98102(6) 0.64786(6) 0.25384(6)
O4_2 O 0.9203(3) 0.6059(3) 0.1838(3)
O5_2 O 0.9063(3) 0.7119(3) 0.2885(3)
O6_2 O 0.9468(5) 0.8529(4) 0.1185(5)
H1_2 H 0.9593 0.8742 0.0817
O7_2 O 0.9461(3) 0.5752(3) 0.3186(3)
N2_2 N 0.9982(4) 0.7240(4) 0.1836(4)
C1_2 C 0.8954(6) 0.6564(5) 0.1323(5)
H5_2 H 0.8430 0.6550 0.1292
H6_2 H 0.9153 0.6456 0.0849
C2_2 C 0.8784(5) 0.7524(5) 0.2283(5)
H7_2 H 0.8831 0.8039 0.2378
H8_2 H 0.8274 0.7416 0.2217
C3_2 C 0.9118(6) 0.7876(5) 0.0996(5)
H9_2 H 0.9319 0.7692 0.0547
H10_2 H 0.8606 0.7967 0.0921
C4_2 C 0.9212(5) 0.7321(5) 0.1584(5)
O10_2 O 0.7848(4) 0.4570(4) 0.0456(4)
O11_2 O 0.8036(4) 0.4965(4) 0.1560(4)
C12_2 C 0.8111(8) 0.4682(9) 0.1034(7)
H23_2 H 0.8551 0.4437 0.1052
O17_2 O 0.7125(5) 0.6322(5) 0.0489(4)
H25_2 H 0.6986 0.5963 0.0710
H40_2 H 0.6560 0.5031 0.0127
O18_2 O 0.9544(4) 0.2848(4) 0.0430(4)
O19_2 O 0.8440(4) 0.3036(4) 0.0035(4)
C24_2 C 0.8966(7) 0.3111(8) 0.0318(9)
H46_2 H 0.8948 0.3551 0.0563
O26_2 O 0.9570(4) 0.4544(4) 0.2152(4)
O27_2 O 0.9965(4) 0.3440(4) 0.1964(4)
C36_2 C 0.9682(9) 0.3966(7) 0.1889(8)
H69_2 H 0.9437 0.3948 0.1449
O33_2 O 0.9248(3) 0.6814(3) 0.4461(3)
O34_2 O 0.9582(3) 0.1916(3) 0.1757(3)
O36_2 O 0.6916(3) 0.3243(3) 0.0418(3)
Co11_2 Co 0.97724(6) 0.76224(6) 0.37380(6)
Co4_2 Co 0.74616(6) 0.48102(6) 0.85214(6)
O12_2 O 0.8162(3) 0.4203(3) 0.8941(3)
O14_2 O 0.8815(5) 0.4468(5) 0.6471(4)
H24_2 H 0.9183 0.4593 0.6258
N4_2 N 0.8164(4) 0.4982(4) 0.7760(4)
H26_2 H 0.7906 0.5124 0.7318
N5_2 N 0.7620(4) 0.5596(4) 0.9190(4)
H27_2 H 0.7809 0.5383 0.9637
C13_2 C 0.8677(5) 0.3954(6) 0.8436(5)
H28_2 H 0.8708 0.3430 0.8450
H29_2 H 0.9151 0.4153 0.8544
C14_2 C 0.7717(5) 0.3784(5) 0.7476(5)
H30_2 H 0.7622 0.3831 0.6961
H31_2 H 0.7783 0.3274 0.7584
C15_2 C 0.9004(5) 0.4118(6) 0.7124(5)
H32_2 H 0.9453 0.4319 0.7308
H33_2 H 0.9079 0.3606 0.7033
C16_2 C 0.8416(5) 0.4212(5) 0.7679(5)
C17_2 C 0.8712(6) 0.5535(6) 0.7925(7)
H34_2 H 0.9049 0.5346 0.8281
H35_2 H 0.8982 0.5649 0.7490
C18_2 C 0.8375(11) 0.6194(9) 0.8207(11)
H36_2 H 0.7962 0.6309 0.7903
H37_2 H 0.8719 0.6588 0.8159
C19_2 C 0.8122(7) 0.6172(6) 0.8980(6)
H38_2 H 0.8546 0.6134 0.9287
H39_2 H 0.7893 0.6632 0.9088
C20_2 C 0.6838(5) 0.5784(4) 0.9329(5)
C21_2 C 0.6489(5) 0.5072(5) 0.9608(5)
H41_2 H 0.5972 0.5080 0.9513
C22_2 C 0.6513(6) 0.5958(4) 0.8576(5)
H42_2 H 0.5988 0.5957 0.8601
H43_2 H 0.6670 0.6433 0.8416
C23_2 C 0.6722(6) 0.6402(5) 0.9859(6)
H44_2 H 0.6854 0.6854 0.9627
H45_2 H 0.6212 0.6427 0.9984
Co5_2 Co 0.76224(6) 0.37380(6) 0.97724(6)
O25_2 O 0.9511(4) 0.2125(5) 0.8678(5)
H48_2 H 0.9290 0.1986 0.9037
H63_2 H 0.9873 0.1560 0.9969
Co1_3 Co 0.01898(6) 0.14786(6) 0.24616(6)
O4_3 O 0.0797(3) 0.1059(3) 0.3162(3)
O6_3 O 0.0532(5) 0.3529(4) 0.3815(5)
H1_3 H 0.0407 0.3742 0.4183
O7_3 O 0.0539(3) 0.0752(3) 0.1814(3)
N2_3 N 0.0018(4) 0.2240(4) 0.3164(4)
C1_3 C 0.1046(6) 0.1564(5) 0.3677(5)
H5_3 H 0.1570 0.1550 0.3708
H6_3 H 0.0847 0.1456 0.4151
C2_3 C 0.1216(5) 0.2524(5) 0.2717(5)
H7_3 H 0.1169 0.3039 0.2622
H8_3 H 0.1726 0.2416 0.2783
C3_3 C 0.0882(6) 0.2876(5) 0.4004(5)
H9_3 H 0.0681 0.2692 0.4453
H10_3 H 0.1394 0.2967 0.4079
C4_3 C 0.0788(5) 0.2321(5) 0.3416(5)
Co3_2 Co 0.12620(6) 0.02276(6) 0.26224(6)
O16_2 O 0.3243(3) 0.0418(3) 0.6916(3)
O17_3 O 0.2875(5) 0.1322(5) 0.4511(4)
H25_3 H 0.3014 0.0963 0.4290
H26_3 H 0.2094 0.0124 0.7682
N5_3 N 0.2380(4) 0.0596(4) 0.5810(4)
H27_3 H 0.2191 0.0383 0.5363
C17_3 C 0.1288(6) 0.0535(6) 0.7075(7)
H34_3 H 0.0951 0.0346 0.6719
H35_3 H 0.1018 0.0649 0.7510
C18_3 C 0.1625(11) 0.1194(9) 0.6793(11)
H36_3 H 0.2038 0.1309 0.7097
H37_3 H 0.1281 0.1588 0.6841
C19_3 C 0.1878(7) 0.1172(6) 0.6020(6)
H38_3 H 0.1454 0.1134 0.5713
H39_3 H 0.2107 0.1632 0.5912
C20_3 C 0.3162(5) 0.0784(4) 0.5671(5)
C21_3 C 0.3511(5) 0.0072(5) 0.5392(5)
H40_3 H 0.3440 0.0031 0.4873
H41_3 H 0.4028 0.0080 0.5487
C22_3 C 0.3487(6) 0.0958(4) 0.6424(5)
H42_3 H 0.4012 0.0957 0.6399
H43_3 H 0.3330 0.1433 0.6584
C23_3 C 0.3278(6) 0.1402(5) 0.5141(6)
H44_3 H 0.3146 0.1854 0.5373
H45_3 H 0.3788 0.1427 0.5016
O29_2 O 0.2115(3) 0.0937(3) 0.2119(3)
O32_2 O 0.1814(3) 0.0539(3) 0.0752(3)
O10_3 O 0.2152(4) 0.9570(4) 0.4544(4)
O11_3 O 0.1964(4) 0.9965(4) 0.3440(4)
C12_3 C 0.1889(8) 0.9682(9) 0.3966(7)
H23_3 H 0.1449 0.9437 0.3948
Co4_3 Co 0.25384(6) 0.98102(6) 0.64786(6)
O12_3 O 0.1838(3) 0.9203(3) 0.6059(3)
O13_2 O 0.2885(3) 0.9063(3) 0.7119(3)
O14_3 O 0.1185(5) 0.9468(5) 0.8529(4)
H24_3 H 0.0817 0.9593 0.8742
O15_2 O 0.3186(3) 0.9461(3) 0.5752(3)
N4_3 N 0.1836(4) 0.9982(4) 0.7240(4)
C13_3 C 0.1323(5) 0.8954(6) 0.6564(5)
H28_3 H 0.1292 0.8430 0.6550
H29_3 H 0.0849 0.9153 0.6456
C14_3 C 0.2283(5) 0.8784(5) 0.7524(5)
H30_3 H 0.2378 0.8831 0.8039
H31_3 H 0.2217 0.8274 0.7416
C15_3 C 0.0996(5) 0.9118(6) 0.7876(5)
H32_3 H 0.0547 0.9319 0.7692
H33_3 H 0.0921 0.8606 0.7967
C16_3 C 0.1584(5) 0.9212(5) 0.7321(5)
O18_3 O 0.0456(4) 0.7848(4) 0.4570(4)
O19_3 O 0.1560(4) 0.8036(4) 0.4965(4)
C24_3 C 0.1034(7) 0.8111(8) 0.4682(9)
H46_3 H 0.1052 0.8551 0.4437
O25_3 O 0.0489(4) 0.7125(5) 0.6322(5)
H48_3 H 0.0710 0.6986 0.5963
H63_3 H 0.0127 0.6560 0.5031
O26_3 O 0.0430(4) 0.9544(4) 0.2848(4)
O27_3 O 0.0035(4) 0.8440(4) 0.3036(4)
C36_3 C 0.0318(9) 0.8966(7) 0.3111(8)
H69_3 H 0.0563 0.8948 0.3551
O35_2 O 0.1757(3) 0.9582(3) 0.1916(3)
Co10_2 Co 0.37380(6) 0.97724(6) 0.76224(6)
H3_3 H 0.9876 0.2682 0.2906
N3_3 N 0.9404(4) 0.0810(4) 0.2620(4)
H4_3 H 0.9617 0.0363 0.2809
C5_3 C 0.9465(6) 0.2075(7) 0.3712(6)
H11_3 H 0.9654 0.1719 0.4049
H12_3 H 0.9351 0.2510 0.3982
C6_3 C 0.8806(9) 0.1793(11) 0.3375(11)
H13_3 H 0.8691 0.2097 0.2962
H14_3 H 0.8412 0.1841 0.3719
C7_3 C 0.8828(6) 0.1020(6) 0.3122(7)
H15_3 H 0.8866 0.0713 0.3546
H16_3 H 0.8368 0.0912 0.2893
C8_3 C 0.9216(4) 0.0671(5) 0.1838(5)
C9_3 C 0.9928(5) 0.0392(5) 0.1489(5)
H18_3 H 0.9920 0.0487 0.0972
C10_3 C 0.9042(4) 0.1424(5) 0.1513(6)
H19_3 H 0.9043 0.1399 0.0988
H20_3 H 0.8567 0.1584 0.1670
C11_3 C 0.8598(5) 0.0141(6) 0.1722(6)
H21_3 H 0.8146 0.0373 0.1854
H22_3 H 0.8573 0.0016 0.1212
O9_3 O 0.8678(5) 0.9511(4) 0.2125(5)
H2_3 H 0.9037 0.9290 0.1986
H17_3 H 0.9969 0.9873 0.1560
Co6_3 Co 0.85214(6) 0.74616(6) 0.48102(6)
O20_3 O 0.8941(3) 0.8162(3) 0.4203(3)
O22_3 O 0.6471(4) 0.8815(5) 0.4468(5)
H47_3 H 0.6258 0.9183 0.4593
N6_3 N 0.7760(4) 0.8164(4) 0.4982(4)
H49_3 H 0.7318 0.7906 0.5124
N7_3 N 0.9190(4) 0.7620(4) 0.5596(4)
H50_3 H 0.9637 0.7809 0.5383
C25_3 C 0.8436(5) 0.8677(5) 0.3954(6)
H51_3 H 0.8450 0.8708 0.3430
H52_3 H 0.8544 0.9151 0.4153
C26_3 C 0.7476(5) 0.7717(5) 0.3784(5)
H53_3 H 0.6961 0.7622 0.3831
H54_3 H 0.7584 0.7783 0.3274
C27_3 C 0.7124(5) 0.9004(5) 0.4118(6)
H55_3 H 0.7308 0.9453 0.4319
H56_3 H 0.7033 0.9079 0.3606
C28_3 C 0.7679(5) 0.8416(5) 0.4212(5)
C29_3 C 0.7925(7) 0.8712(6) 0.5535(6)
H57_3 H 0.8281 0.9049 0.5346
H58_3 H 0.7490 0.8982 0.5649
C30_3 C 0.8207(11) 0.8375(11) 0.6194(9)
H59_3 H 0.7903 0.7962 0.6309
H60_3 H 0.8159 0.8719 0.6588
C31_3 C 0.8980(6) 0.8122(7) 0.6172(6)
H61_3 H 0.9287 0.8546 0.6134
H62_3 H 0.9088 0.7893 0.6632
C32_3 C 0.9329(5) 0.6838(5) 0.5784(4)
C33_3 C 0.9608(5) 0.6489(5) 0.5072(5)
H64_3 H 0.9513 0.5972 0.5080
C34_3 C 0.8576(5) 0.6513(6) 0.5958(4)
H65_3 H 0.8601 0.5988 0.5957
H66_3 H 0.8416 0.6670 0.6433
C35_3 C 0.9859(6) 0.6722(6) 0.6402(5)
H67_3 H 0.9627 0.6854 0.6854
H68_3 H 0.9984 0.6212 0.6427
Co4_4 Co 0.24616(6) 0.01898(6) 0.14786(6)
O12_4 O 0.3162(3) 0.0797(3) 0.1059(3)
O14_4 O 0.3815(5) 0.0532(5) 0.3529(4)
H24_4 H 0.4183 0.0407 0.3742
N4_4 N 0.3164(4) 0.0018(4) 0.2240(4)
C13_4 C 0.3677(5) 0.1046(6) 0.1564(5)
H28_4 H 0.3708 0.1570 0.1550
H29_4 H 0.4151 0.0847 0.1456
C14_4 C 0.2717(5) 0.1216(5) 0.2524(5)
H30_4 H 0.2622 0.1169 0.3039
H31_4 H 0.2783 0.1726 0.2416
C15_4 C 0.4004(5) 0.0882(6) 0.2876(5)
H32_4 H 0.4453 0.0681 0.2692
H33_4 H 0.4079 0.1394 0.2967
C16_4 C 0.3416(5) 0.0788(5) 0.2321(5)
O25_4 O 0.4511(4) 0.2875(5) 0.1322(5)
H48_4 H 0.4290 0.3014 0.0963
H49_4 H 0.7682 0.2094 0.0124
N7_4 N 0.5810(4) 0.2380(4) 0.0596(4)
H50_4 H 0.5363 0.2191 0.0383
C29_4 C 0.7075(7) 0.1288(6) 0.0535(6)
H57_4 H 0.6719 0.0951 0.0346
H58_4 H 0.7510 0.1018 0.0649
C30_4 C 0.6793(11) 0.1625(11) 0.1194(9)
H59_4 H 0.7097 0.2038 0.1309
H60_4 H 0.6841 0.1281 0.1588
C31_4 C 0.6020(6) 0.1878(7) 0.1172(6)
H61_4 H 0.5713 0.1454 0.1134
H62_4 H 0.5912 0.2107 0.1632
C32_4 C 0.5671(5) 0.3162(5) 0.0784(4)
C33_4 C 0.5392(5) 0.3511(5) 0.0072(5)
H63_4 H 0.4873 0.3440 0.0031
H64_4 H 0.5487 0.4028 0.0080
C34_4 C 0.6424(5) 0.3487(6) 0.0958(4)
H65_4 H 0.6399 0.4012 0.0957
H66_4 H 0.6584 0.3330 0.1433
C35_4 C 0.5141(6) 0.3278(6) 0.1402(5)
H67_4 H 0.5373 0.3146 0.1854
H68_4 H 0.5016 0.3788 0.1427
O9_4 O 0.6322(5) 0.0489(4) 0.7125(5)
H2_4 H 0.5963 0.0710 0.6986
H17_4 H 0.5031 0.0127 0.6560
O10_4 O 0.2848(4) 0.0430(4) 0.9544(4)
O11_4 O 0.3036(4) 0.0035(4) 0.8440(4)
C12_4 C 0.3111(8) 0.0318(9) 0.8966(7)
H23_4 H 0.3551 0.0563 0.8948
O18_4 O 0.4544(4) 0.2152(4) 0.9570(4)
O19_4 O 0.3440(4) 0.1964(4) 0.9965(4)
C24_4 C 0.3966(7) 0.1889(8) 0.9682(9)
H46_4 H 0.3948 0.1449 0.9437
Co6_4 Co 0.64786(6) 0.25384(6) 0.98102(6)
O20_4 O 0.6059(3) 0.1838(3) 0.9203(3)
O22_4 O 0.8529(4) 0.1185(5) 0.9468(5)
H47_4 H 0.8742 0.0817 0.9593
N6_4 N 0.7240(4) 0.1836(4) 0.9982(4)
C25_4 C 0.6564(5) 0.1323(5) 0.8954(6)
H51_4 H 0.6550 0.1292 0.8430
H52_4 H 0.6456 0.0849 0.9153
C26_4 C 0.7524(5) 0.2283(5) 0.8784(5)
H53_4 H 0.8039 0.2378 0.8831
H54_4 H 0.7416 0.2217 0.8274
C27_4 C 0.7876(5) 0.0996(5) 0.9118(6)
H55_4 H 0.7692 0.0547 0.9319
H56_4 H 0.7967 0.0921 0.8606
C28_4 C 0.7321(5) 0.1584(5) 0.9212(5)
O26_4 O 0.4570(4) 0.0456(4) 0.7848(4)
O27_4 O 0.4965(4) 0.1560(4) 0.8036(4)
C36_4 C 0.4682(9) 0.1034(7) 0.8111(8)
H69_4 H 0.4437 0.1052 0.8551
H26_4 H 0.2906 0.9876 0.2682
N5_4 N 0.2620(4) 0.9404(4) 0.0810(4)
H27_4 H 0.2809 0.9617 0.0363
C17_4 C 0.3712(6) 0.9465(6) 0.2075(7)
H34_4 H 0.4049 0.9654 0.1719
H35_4 H 0.3982 0.9351 0.2510
C18_4 C 0.3375(11) 0.8806(9) 0.1793(11)
H36_4 H 0.2962 0.8691 0.2097
H37_4 H 0.3719 0.8412 0.1841
C19_4 C 0.3122(7) 0.8828(6) 0.1020(6)
H38_4 H 0.3546 0.8866 0.0713
H39_4 H 0.2893 0.8368 0.0912
C20_4 C 0.1838(5) 0.9216(4) 0.0671(5)
C21_4 C 0.1489(5) 0.9928(5) 0.0392(5)
H41_4 H 0.0972 0.9920 0.0487
C22_4 C 0.1513(6) 0.9042(4) 0.1424(5)
H42_4 H 0.0988 0.9043 0.1399
H43_4 H 0.1670 0.8567 0.1584
C23_4 C 0.1722(6) 0.8598(5) 0.0141(6)
H44_4 H 0.1854 0.8146 0.0373
H45_4 H 0.1212 0.8573 0.0016
Co1_4 Co 0.48102(6) 0.85214(6) 0.74616(6)
O4_4 O 0.4203(3) 0.8941(3) 0.8162(3)
O6_4 O 0.4468(5) 0.6471(4) 0.8815(5)
H1_4 H 0.4593 0.6258 0.9183
O7_4 O 0.4461(3) 0.9248(3) 0.6814(3)
N2_4 N 0.4982(4) 0.7760(4) 0.8164(4)
H3_4 H 0.5124 0.7318 0.7906
N3_4 N 0.5596(4) 0.9190(4) 0.7620(4)
H4_4 H 0.5383 0.9637 0.7809
C1_4 C 0.3954(6) 0.8436(5) 0.8677(5)
H5_4 H 0.3430 0.8450 0.8708
H6_4 H 0.4153 0.8544 0.9151
C2_4 C 0.3784(5) 0.7476(5) 0.7717(5)
H7_4 H 0.3831 0.6961 0.7622
H8_4 H 0.3274 0.7584 0.7783
C3_4 C 0.4118(6) 0.7124(5) 0.9004(5)
H9_4 H 0.4319 0.7308 0.9453
H10_4 H 0.3606 0.7033 0.9079
C4_4 C 0.4212(5) 0.7679(5) 0.8416(5)
C5_4 C 0.5535(6) 0.7925(7) 0.8712(6)
H11_4 H 0.5346 0.8281 0.9049
H12_4 H 0.5649 0.7490 0.8982
C6_4 C 0.6194(9) 0.8207(11) 0.8375(11)
H13_4 H 0.6309 0.7903 0.7962
H14_4 H 0.6588 0.8159 0.8719
C7_4 C 0.6172(6) 0.8980(6) 0.8122(7)
H15_4 H 0.6134 0.9287 0.8546
H16_4 H 0.6632 0.9088 0.7893
C8_4 C 0.5784(4) 0.9329(5) 0.6838(5)
C9_4 C 0.5072(5) 0.9608(5) 0.6489(5)
H18_4 H 0.5080 0.9513 0.5972
C10_4 C 0.5958(4) 0.8576(5) 0.6513(6)
H19_4 H 0.5957 0.8601 0.5988
H20_4 H 0.6433 0.8416 0.6670
C11_4 C 0.6402(5) 0.9859(6) 0.6722(6)
H21_4 H 0.6854 0.9627 0.6854
H22_4 H 0.6427 0.9984 0.6212
O17_4 O 0.2125(5) 0.8678(5) 0.9511(4)
H25_4 H 0.1986 0.9037 0.9290
H40_4 H 0.1560 0.9969 0.9873
loop_
_geom_bond_atom_site_label_1
_geom_bond_atom_site_label_2
_geom_bond_site_symmetry_1
_geom_bond_site_symmetry_2
O1 N1 1_555 1_555
N1 O2 1_555 1_555
O3 N1 1_555 1_555
O1_2 N1_2 1_555 1_555
N1_2 O2_2 1_555 1_555
O3_2 N1_2 1_555 1_555
O1_3 N1_3 1_555 1_555
N1_3 O2_3 1_555 1_555
O3_3 N1_3 1_555 1_555
O1_4 N1_4 1_555 1_555
N1_4 O2_4 1_555 1_555
O3_4 N1_4 1_555 1_555
Co1 O4 1_555 1_555
Co2 O5 1_555 1_555
O4 C1 1_555 1_555
O5 Co1 1_555 1_555
O6 H1 1_555 1_555
O7 Co1 1_555 1_555
O8 Co1 1_555 1_555
O9 H2 1_555 1_555
N2 Co1 1_555 1_555
H3 N2 1_555 1_555
N3 Co1 1_555 1_555
H4 N3 1_555 1_555
C1 H5 1_555 1_555
H6 C1 1_555 1_555
C2 O5 1_555 1_555
H7 C2 1_555 1_555
H8 C2 1_555 1_555
C3 O6 1_555 1_555
H9 C3 1_555 1_555
H10 C3 1_555 1_555
C4 N2 1_555 1_555
C5 N2 1_555 1_555
H11 C5 1_555 1_555
H12 C5 1_555 1_555
C6 C5 1_555 1_555
H13 C6 1_555 1_555
H14 C6 1_555 1_555
C7 N3 1_555 1_555
H15 C7 1_555 1_555
H16 C7 1_555 1_555
C8 N3 1_555 1_555
C9 O7 1_555 1_555
H17 C9 1_555 1_555
H18 C9 1_555 1_555
C10 O8 1_555 1_555
H19 C10 1_555 1_555
H20 C10 1_555 1_555
C11 O9 1_555 1_555
H21 C11 1_555 1_555
H22 C11 1_555 1_555
O10 C12 1_555 1_555
O11 C12 1_555 1_555
C12 H23 1_555 1_555
Co3 O4 1_555 1_555
Co4 O12 1_555 1_555
O12 C13 1_555 1_555
O13 Co4 1_555 1_555
O14 H24 1_555 1_555
O15 Co4 1_555 1_555
O16 Co4 1_555 1_555
O17 H25 1_555 1_555
N4 Co4 1_555 1_555
H26 N4 1_555 1_555
N5 Co4 1_555 1_555
H27 N5 1_555 1_555
C13 H28 1_555 1_555
H29 C13 1_555 1_555
C14 O13 1_555 1_555
H30 C14 1_555 1_555
H31 C14 1_555 1_555
C15 O14 1_555 1_555
H32 C15 1_555 1_555
H33 C15 1_555 1_555
C16 N4 1_555 1_555
C17 N4 1_555 1_555
H34 C17 1_555 1_555
H35 C17 1_555 1_555
C18 C17 1_555 1_555
H36 C18 1_555 1_555
H37 C18 1_555 1_555
C19 N5 1_555 1_555
H38 C19 1_555 1_555
H39 C19 1_555 1_555
C20 N5 1_555 1_555
C21 O15 1_555 1_555
H40 C21 1_555 1_555
H41 C21 1_555 1_555
C22 O16 1_555 1_555
H42 C22 1_555 1_555
H43 C22 1_555 1_555
C23 O17 1_555 1_555
H44 C23 1_555 1_555
H45 C23 1_555 1_555
O18 C24 1_555 1_555
O19 C24 1_555 1_555
C24 H46 1_555 1_555
Co5 O10 1_555 1_555
Co6 O20 1_555 1_555
O20 C25 1_555 1_555
O21 Co6 1_555 1_555
O22 H47 1_555 1_555
O23 Co6 1_555 1_555
O24 Co6 1_555 1_555
O25 H48 1_555 1_555
N6 Co6 1_555 1_555
H49 N6 1_555 1_555
N7 Co6 1_555 1_555
H50 N7 1_555 1_555
C25 H51 1_555 1_555
H52 C25 1_555 1_555
C26 O21 1_555 1_555
H53 C26 1_555 1_555
H54 C26 1_555 1_555
C27 O22 1_555 1_555
H55 C27 1_555 1_555
H56 C27 1_555 1_555
C28 N6 1_555 1_555
C29 N6 1_555 1_555
H57 C29 1_555 1_555
H58 C29 1_555 1_555
C30 C29 1_555 1_555
H59 C30 1_555 1_555
H60 C30 1_555 1_555
C31 N7 1_555 1_555
H61 C31 1_555 1_555
H62 C31 1_555 1_555
C32 N7 1_555 1_555
C33 O23 1_555 1_555
H63 C33 1_555 1_555
H64 C33 1_555 1_555
C34 O24 1_555 1_555
H65 C34 1_555 1_555
H66 C34 1_555 1_555
C35 O25 1_555 1_555
H67 C35 1_555 1_555
H68 C35 1_555 1_555
O26 Co3 1_555 1_555
O27 C36 1_555 1_555
C36 O26 1_555 1_555
H69 C36 1_555 1_555
Co7 O18 1_555 1_555
Co8 O13 1_555 1_555
Co9 O21 1_555 1_555
O28 Co7 1_555 1_555
O29 Co2 1_555 1_555
O30 Co2 1_555 1_555
O31 Co5 1_555 1_555
O32 Co2 1_555 1_555
O33 Co2 1_555 1_555
O34 Co7 1_555 1_555
O35 Co3 1_555 1_555
O36 Co5 1_555 1_555
Co10 O13 1_555 1_555
Co11 O5 1_555 1_555
Co12 O21 1_555 1_555
Co2 O7 1_555 1_555
O7 Co3 1_555 1_555
O8 Co11 1_555 1_555
C1 C4 1_555 1_555
C2 C4 1_555 1_555
C3 C4 1_555 1_555
C6 C7 1_555 1_555
C8 C9 1_555 1_555
C8 C10 1_555 1_555
C8 C11 1_555 1_555
O11 Co3 1_555 1_555
Co3 O29 1_555 1_555
O12 Co5 1_555 1_555
O15 Co5 1_555 1_555
O15 Co8 1_555 1_555
O16 Co10 1_555 1_555
C13 C16 1_555 1_555
C14 C16 1_555 1_555
C15 C16 1_555 1_555
C18 C19 1_555 1_555
C20 C21 1_555 1_555
C20 C22 1_555 1_555
C20 C23 1_555 1_555
O19 Co5 1_555 1_555
O20 Co7 1_555 1_555
O23 Co7 1_555 1_555
O23 Co9 1_555 1_555
O24 Co12 1_555 1_555
C25 C28 1_555 1_555
C26 C28 1_555 1_555
C27 C28 1_555 1_555
C30 C31 1_555 1_555
C32 C33 1_555 1_555
C32 C34 1_555 1_555
C32 C35 1_555 1_555
O27 Co7 1_555 1_555
Co8 O31 1_555 1_555
Co9 O28 1_555 1_555
O33 Co11 1_555 1_555
O9_2 H2_2 1_555 1_555
H4_2 N3_2 1_555 1_555
H11_2 C5_2 1_555 1_555
H12_2 C5_2 1_555 1_555
C6_2 C5_2 1_555 1_555
H13_2 C6_2 1_555 1_555
H14_2 C6_2 1_555 1_555
C7_2 N3_2 1_555 1_555
H15_2 C7_2 1_555 1_555
H16_2 C7_2 1_555 1_555
C8_2 N3_2 1_555 1_555
H17_2 C9_2 1_555 1_555
H18_2 C9_2 1_555 1_555
C10_2 O8_2 1_555 1_555
H19_2 C10_2 1_555 1_555
H20_2 C10_2 1_555 1_555
C11_2 O9_2 1_555 1_555
H21_2 C11_2 1_555 1_555
H22_2 C11_2 1_555 1_555
Co6_2 O20_2 1_555 1_555
O20_2 C25_2 1_555 1_555
O21_2 Co6_2 1_555 1_555
O22_2 H47_2 1_555 1_555
O23_2 Co6_2 1_555 1_555
N6_2 Co6_2 1_555 1_555
C25_2 H51_2 1_555 1_555
H52_2 C25_2 1_555 1_555
C26_2 O21_2 1_555 1_555
H53_2 C26_2 1_555 1_555
H54_2 C26_2 1_555 1_555
C27_2 O22_2 1_555 1_555
H55_2 C27_2 1_555 1_555
H56_2 C27_2 1_555 1_555
C28_2 N6_2 1_555 1_555
Co9_2 O21_2 1_555 1_555
O28_2 Co7_2 1_555 1_555
Co12_2 O21_2 1_555 1_555
C6_2 C7_2 1_555 1_555
C8_2 C9_2 1_555 1_555
C8_2 C10_2 1_555 1_555
C8_2 C11_2 1_555 1_555
O20_2 Co7_2 1_555 1_555
O23_2 Co7_2 1_555 1_555
O23_2 Co9_2 1_555 1_555
C25_2 C28_2 1_555 1_555
C26_2 C28_2 1_555 1_555
C27_2 C28_2 1_555 1_555
Co9_2 O28_2 1_555 1_555
H50_2 N7_2 1_555 1_555
H57_2 C29_2 1_555 1_555
H58_2 C29_2 1_555 1_555
C30_2 C29_2 1_555 1_555
H59_2 C30_2 1_555 1_555
H60_2 C30_2 1_555 1_555
C31_2 N7_2 1_555 1_555
H61_2 C31_2 1_555 1_555
H62_2 C31_2 1_555 1_555
C32_2 N7_2 1_555 1_555
H64_2 C33_2 1_555 1_555
C34_2 O24_2 1_555 1_555
H65_2 C34_2 1_555 1_555
H66_2 C34_2 1_555 1_555
H67_2 C35_2 1_555 1_555
H68_2 C35_2 1_555 1_555
C30_2 C31_2 1_555 1_555
C32_2 C33_2 1_555 1_555
C32_2 C34_2 1_555 1_555
C32_2 C35_2 1_555 1_555
Co1_2 O4_2 1_555 1_555
Co8 O5_2 1_555 1_555
O4_2 C1_2 1_555 1_555
O5_2 Co1_2 1_555 1_555
O6_2 H1_2 1_555 1_555
O7_2 Co1_2 1_555 1_555
N2_2 Co1_2 1_555 1_555
C1_2 H5_2 1_555 1_555
H6_2 C1_2 1_555 1_555
C2_2 O5_2 1_555 1_555
H7_2 C2_2 1_555 1_555
H8_2 C2_2 1_555 1_555
C3_2 O6_2 1_555 1_555
H9_2 C3_2 1_555 1_555
H10_2 C3_2 1_555 1_555
C4_2 N2_2 1_555 1_555
O10_2 C12_2 1_555 1_555
O11_2 C12_2 1_555 1_555
C12_2 H23_2 1_555 1_555
Co10 O4_2 1_555 1_555
O17_2 H25_2 1_555 1_555
O18_2 C24_2 1_555 1_555
O19_2 C24_2 1_555 1_555
C24_2 H46_2 1_555 1_555
O26_2 Co10 1_555 1_555
O27_2 C36_2 1_555 1_555
C36_2 O26_2 1_555 1_555
H69_2 C36_2 1_555 1_555
O33_2 Co8 1_555 1_555
Co11_2 O5_2 1_555 1_555
Co8 O7_2 1_555 1_555
O7_2 Co10 1_555 1_555
C1_2 C4_2 1_555 1_555
C2_2 C4_2 1_555 1_555
C3_2 C4_2 1_555 1_555
O11_2 Co10 1_555 1_555
O33_2 Co11_2 1_555 1_555
Co4_2 O12_2 1_555 1_555
O12_2 C13_2 1_555 1_555
O29 Co4_2 1_555 1_555
O14_2 H24_2 1_555 1_555
O32 Co4_2 1_555 1_555
O35 Co4_2 1_555 1_555
N4_2 Co4_2 1_555 1_555
H26_2 N4_2 1_555 1_555
N5_2 Co4_2 1_555 1_555
H27_2 N5_2 1_555 1_555
C13_2 H28_2 1_555 1_555
H29_2 C13_2 1_555 1_555
C14_2 O29 1_555 1_555
H30_2 C14_2 1_555 1_555
H31_2 C14_2 1_555 1_555
C15_2 O14_2 1_555 1_555
H32_2 C15_2 1_555 1_555
H33_2 C15_2 1_555 1_555
C16_2 N4_2 1_555 1_555
C17_2 N4_2 1_555 1_555
H34_2 C17_2 1_555 1_555
H35_2 C17_2 1_555 1_555
C18_2 C17_2 1_555 1_555
H36_2 C18_2 1_555 1_555
H37_2 C18_2 1_555 1_555
C19_2 N5_2 1_555 1_555
H38_2 C19_2 1_555 1_555
H39_2 C19_2 1_555 1_555
C20_2 N5_2 1_555 1_555
C21_2 O32 1_555 1_555
H41_2 C21_2 1_555 1_555
C22_2 O35 1_555 1_555
H42_2 C22_2 1_555 1_555
H43_2 C22_2 1_555 1_555
H44_2 C23_2 1_555 1_555
H45_2 C23_2 1_555 1_555
O25_2 H48_2 1_555 1_555
O30 Co5_2 1_555 1_555
O12_2 Co5_2 1_555 1_555
O32 Co5_2 1_555 1_555
C13_2 C16_2 1_555 1_555
C14_2 C16_2 1_555 1_555
C15_2 C16_2 1_555 1_555
C18_2 C19_2 1_555 1_555
C20_2 C21_2 1_555 1_555
C20_2 C22_2 1_555 1_555
C20_2 C23_2 1_555 1_555
Co1_3 O4_3 1_555 1_555
O4_3 C1_3 1_555 1_555
O28_2 Co1_3 1_555 1_555
O6_3 H1_3 1_555 1_555
O7_3 Co1_3 1_555 1_555
N2_3 Co1_3 1_555 1_555
C1_3 H5_3 1_555 1_555
H6_3 C1_3 1_555 1_555
C2_3 O28_2 1_555 1_555
H7_3 C2_3 1_555 1_555
H8_3 C2_3 1_555 1_555
C3_3 O6_3 1_555 1_555
H9_3 C3_3 1_555 1_555
H10_3 C3_3 1_555 1_555
C4_3 N2_3 1_555 1_555
Co3_2 O4_3 1_555 1_555
O17_3 H25_3 1_555 1_555
H27_3 N5_3 1_555 1_555
H34_3 C17_3 1_555 1_555
H35_3 C17_3 1_555 1_555
C18_3 C17_3 1_555 1_555
H36_3 C18_3 1_555 1_555
H37_3 C18_3 1_555 1_555
C19_3 N5_3 1_555 1_555
H38_3 C19_3 1_555 1_555
H39_3 C19_3 1_555 1_555
C20_3 N5_3 1_555 1_555
H40_3 C21_3 1_555 1_555
H41_3 C21_3 1_555 1_555
C22_3 O16_2 1_555 1_555
H42_3 C22_3 1_555 1_555
H43_3 C22_3 1_555 1_555
C23_3 O17_3 1_555 1_555
H44_3 C23_3 1_555 1_555
H45_3 C23_3 1_555 1_555
O29_2 Co9_2 1_555 1_555
O32_2 Co9_2 1_555 1_555
Co9_2 O7_3 1_555 1_555
O7_3 Co3_2 1_555 1_555
C1_3 C4_3 1_555 1_555
C2_3 C4_3 1_555 1_555
C3_3 C4_3 1_555 1_555
Co3_2 O29_2 1_555 1_555
C18_3 C19_3 1_555 1_555
C20_3 C21_3 1_555 1_555
C20_3 C22_3 1_555 1_555
C20_3 C23_3 1_555 1_555
O10_3 C12_3 1_555 1_555
O11_3 C12_3 1_555 1_555
C12_3 H23_3 1_555 1_555
Co4_3 O12_3 1_555 1_555
O12_3 C13_3 1_555 1_555
O13_2 Co4_3 1_555 1_555
O14_3 H24_3 1_555 1_555
O15_2 Co4_3 1_555 1_555
N4_3 Co4_3 1_555 1_555
C13_3 H28_3 1_555 1_555
H29_3 C13_3 1_555 1_555
C14_3 O13_2 1_555 1_555
H30_3 C14_3 1_555 1_555
H31_3 C14_3 1_555 1_555
C15_3 O14_3 1_555 1_555
H32_3 C15_3 1_555 1_555
H33_3 C15_3 1_555 1_555
C16_3 N4_3 1_555 1_555
O18_3 C24_3 1_555 1_555
O19_3 C24_3 1_555 1_555
C24_3 H46_3 1_555 1_555
Co12 O10_3 1_555 1_555
O25_3 H48_3 1_555 1_555
O27_3 C36_3 1_555 1_555
C36_3 O26_3 1_555 1_555
H69_3 C36_3 1_555 1_555
Co9 O13_2 1_555 1_555
Co10_2 O13_2 1_555 1_555
O12_3 Co12 1_555 1_555
O15_2 Co12 1_555 1_555
O15_2 Co9 1_555 1_555
C13_3 C16_3 1_555 1_555
C14_3 C16_3 1_555 1_555
C15_3 C16_3 1_555 1_555
O19_3 Co12 1_555 1_555
H4_3 N3_3 1_555 1_555
H11_3 C5_3 1_555 1_555
H12_3 C5_3 1_555 1_555
C6_3 C5_3 1_555 1_555
H13_3 C6_3 1_555 1_555
H14_3 C6_3 1_555 1_555
C7_3 N3_3 1_555 1_555
H15_3 C7_3 1_555 1_555
H16_3 C7_3 1_555 1_555
C8_3 N3_3 1_555 1_555
H18_3 C9_3 1_555 1_555
C10_3 O34_2 1_555 1_555
H19_3 C10_3 1_555 1_555
H20_3 C10_3 1_555 1_555
H21_3 C11_3 1_555 1_555
H22_3 C11_3 1_555 1_555
C6_3 C7_3 1_555 1_555
C8_3 C9_3 1_555 1_555
C8_3 C10_3 1_555 1_555
C8_3 C11_3 1_555 1_555
O9_3 H2_3 1_555 1_555
Co6_3 O20_3 1_555 1_555
O20_3 C25_3 1_555 1_555
O31 Co6_3 1_555 1_555
O22_3 H47_3 1_555 1_555
O33_2 Co6_3 1_555 1_555
O36 Co6_3 1_555 1_555
N6_3 Co6_3 1_555 1_555
H49_3 N6_3 1_555 1_555
N7_3 Co6_3 1_555 1_555
H50_3 N7_3 1_555 1_555
C25_3 H51_3 1_555 1_555
H52_3 C25_3 1_555 1_555
C26_3 O31 1_555 1_555
H53_3 C26_3 1_555 1_555
H54_3 C26_3 1_555 1_555
C27_3 O22_3 1_555 1_555
H55_3 C27_3 1_555 1_555
H56_3 C27_3 1_555 1_555
C28_3 N6_3 1_555 1_555
C29_3 N6_3 1_555 1_555
H57_3 C29_3 1_555 1_555
H58_3 C29_3 1_555 1_555
C30_3 C29_3 1_555 1_555
H59_3 C30_3 1_555 1_555
H60_3 C30_3 1_555 1_555
C31_3 N7_3 1_555 1_555
H61_3 C31_3 1_555 1_555
H62_3 C31_3 1_555 1_555
C32_3 N7_3 1_555 1_555
C33_3 O33_2 1_555 1_555
H64_3 C33_3 1_555 1_555
C34_3 O36 1_555 1_555
H65_3 C34_3 1_555 1_555
H66_3 C34_3 1_555 1_555
H67_3 C35_3 1_555 1_555
H68_3 C35_3 1_555 1_555
O20_3 Co11_2 1_555 1_555
C25_3 C28_3 1_555 1_555
C26_3 C28_3 1_555 1_555
C27_3 C28_3 1_555 1_555
C30_3 C31_3 1_555 1_555
C32_3 C33_3 1_555 1_555
C32_3 C34_3 1_555 1_555
C32_3 C35_3 1_555 1_555
Co4_4 O12_4 1_555 1_555
O12_4 C13_4 1_555 1_555
O29_2 Co4_4 1_555 1_555
O14_4 H24_4 1_555 1_555
O32_2 Co4_4 1_555 1_555
N4_4 Co4_4 1_555 1_555
C13_4 H28_4 1_555 1_555
H29_4 C13_4 1_555 1_555
C14_4 O29_2 1_555 1_555
H30_4 C14_4 1_555 1_555
H31_4 C14_4 1_555 1_555
C15_4 O14_4 1_555 1_555
H32_4 C15_4 1_555 1_555
H33_4 C15_4 1_555 1_555
C16_4 N4_4 1_555 1_555
O25_4 H48_4 1_555 1_555
H50_4 N7_4 1_555 1_555
H57_4 C29_4 1_555 1_555
H58_4 C29_4 1_555 1_555
C30_4 C29_4 1_555 1_555
H59_4 C30_4 1_555 1_555
H60_4 C30_4 1_555 1_555
C31_4 N7_4 1_555 1_555
H61_4 C31_4 1_555 1_555
H62_4 C31_4 1_555 1_555
C32_4 N7_4 1_555 1_555
H63_4 C33_4 1_555 1_555
H64_4 C33_4 1_555 1_555
C34_4 O36_2 1_555 1_555
H65_4 C34_4 1_555 1_555
H66_4 C34_4 1_555 1_555
C35_4 O25_4 1_555 1_555
H67_4 C35_4 1_555 1_555
H68_4 C35_4 1_555 1_555
O12_4 Co12_2 1_555 1_555
O32_2 Co12_2 1_555 1_555
C13_4 C16_4 1_555 1_555
C14_4 C16_4 1_555 1_555
C15_4 C16_4 1_555 1_555
C30_4 C31_4 1_555 1_555
C32_4 C33_4 1_555 1_555
C32_4 C34_4 1_555 1_555
C32_4 C35_4 1_555 1_555
O9_4 H2_4 1_555 1_555
O10_4 C12_4 1_555 1_555
O11_4 C12_4 1_555 1_555
C12_4 H23_4 1_555 1_555
O18_4 C24_4 1_555 1_555
O19_4 C24_4 1_555 1_555
C24_4 H46_4 1_555 1_555
Co6_4 O20_4 1_555 1_555
O20_4 C25_4 1_555 1_555
O30 Co6_4 1_555 1_555
O22_4 H47_4 1_555 1_555
O33 Co6_4 1_555 1_555
N6_4 Co6_4 1_555 1_555
C25_4 H51_4 1_555 1_555
H52_4 C25_4 1_555 1_555
C26_4 O30 1_555 1_555
H53_4 C26_4 1_555 1_555
H54_4 C26_4 1_555 1_555
C27_4 O22_4 1_555 1_555
H55_4 C27_4 1_555 1_555
H56_4 C27_4 1_555 1_555
C28_4 N6_4 1_555 1_555
O27_4 C36_4 1_555 1_555
C36_4 O26_4 1_555 1_555
H69_4 C36_4 1_555 1_555
Co11 O18_4 1_555 1_555
O20_4 Co11 1_555 1_555
C25_4 C28_4 1_555 1_555
C26_4 C28_4 1_555 1_555
C27_4 C28_4 1_555 1_555
O27_4 Co11 1_555 1_555
H27_4 N5_4 1_555 1_555
H34_4 C17_4 1_555 1_555
H35_4 C17_4 1_555 1_555
C18_4 C17_4 1_555 1_555
H36_4 C18_4 1_555 1_555
H37_4 C18_4 1_555 1_555
C19_4 N5_4 1_555 1_555
H38_4 C19_4 1_555 1_555
H39_4 C19_4 1_555 1_555
C20_4 N5_4 1_555 1_555
H41_4 C21_4 1_555 1_555
C22_4 O35_2 1_555 1_555
H42_4 C22_4 1_555 1_555
H43_4 C22_4 1_555 1_555
H44_4 C23_4 1_555 1_555
H45_4 C23_4 1_555 1_555
C18_4 C19_4 1_555 1_555
C20_4 C21_4 1_555 1_555
C20_4 C22_4 1_555 1_555
C20_4 C23_4 1_555 1_555
Co1_4 O4_4 1_555 1_555
O4_4 C1_4 1_555 1_555
O28 Co1_4 1_555 1_555
O6_4 H1_4 1_555 1_555
O7_4 Co1_4 1_555 1_555
O34 Co1_4 1_555 1_555
N2_4 Co1_4 1_555 1_555
H3_4 N2_4 1_555 1_555
N3_4 Co1_4 1_555 1_555
H4_4 N3_4 1_555 1_555
C1_4 H5_4 1_555 1_555
H6_4 C1_4 1_555 1_555
C2_4 O28 1_555 1_555
H7_4 C2_4 1_555 1_555
H8_4 C2_4 1_555 1_555
C3_4 O6_4 1_555 1_555
H9_4 C3_4 1_555 1_555
H10_4 C3_4 1_555 1_555
C4_4 N2_4 1_555 1_555
C5_4 N2_4 1_555 1_555
H11_4 C5_4 1_555 1_555
H12_4 C5_4 1_555 1_555
C6_4 C5_4 1_555 1_555
H13_4 C6_4 1_555 1_555
H14_4 C6_4 1_555 1_555
C7_4 N3_4 1_555 1_555
H15_4 C7_4 1_555 1_555
H16_4 C7_4 1_555 1_555
C8_4 N3_4 1_555 1_555
C9_4 O7_4 1_555 1_555
H18_4 C9_4 1_555 1_555
C10_4 O34 1_555 1_555
H19_4 C10_4 1_555 1_555
H20_4 C10_4 1_555 1_555
H21_4 C11_4 1_555 1_555
H22_4 C11_4 1_555 1_555
Co10_2 O4_4 1_555 1_555
O17_4 H25_4 1_555 1_555
Co9 O7_4 1_555 1_555
O7_4 Co10_2 1_555 1_555
C1_4 C4_4 1_555 1_555
C2_4 C4_4 1_555 1_555
C3_4 C4_4 1_555 1_555
C6_4 C7_4 1_555 1_555
C8_4 C9_4 1_555 1_555
C8_4 C10_4 1_555 1_555
C8_4 C11_4 1_555 1_555

#END
