
###############################################################################
#
# This file contains modified crystal structure data generated from the
# MOF subset of the Cambridge Structural Database (CSD) v543 
# hosted by the Cambridge Crystallographic Data Centre (CCDC).
#
# This work is licensed under the Creative Commons
# Attribution-NonCommercial-ShareAlike 4.0 International License.
# To view a copy of this license, visit
# http://creativecommons.org/licenses/by-nc-sa/4.0/
# or send a letter to
# Creative Commons, PO Box 1866, Mountain View, CA 94042, USA.
#
# CIF created using the CSD Python API on 29 September 2022
# The structure has been converted into the P1 space group
# The structure has a 3D framework
# The original CSD entry XEXLET is in the monoclinic crystal system
# The framework has been calculated to contain at least 10.0% void space
# The void calculation uses a probe of radius 1.32A, grid spacing 0.4
#
###############################################################################

data_XEXLET
_chemical_formula_moiety         '(C76 H32 Cd2 N8 O22)n'
_symmetry_cell_setting           triclinic
_symmetry_space_group_name_H-M   'P 1'
_symmetry_Int_Tables_number      1
_space_group_name_Hall           'P 1'
loop_
_symmetry_equiv_pos_site_id
_symmetry_equiv_pos_as_xyz
1 x,y,z
_cell_length_a                   4.9738(5)
_cell_length_b                   24.836(3)
_cell_length_c                   20.663(2)
_cell_angle_alpha                90
_cell_angle_beta                 95.903(3)
_cell_angle_gamma                90
_cell_volume                     2538.95
loop_
_atom_site_label
_atom_site_type_symbol
_atom_site_fract_x
_atom_site_fract_y
_atom_site_fract_z
O3 O 0.2822(7) 0.04105(13) 0.48795(16)
O6 O 0.4831(9) 0.25722(17) 0.2697(2)
N1 N 0.1278(9) 0.37373(17) 0.1013(2)
C3 C 0.1139(11) 0.2781(2) 0.1682(3)
C4 C 0.2773(15) 0.2830(3) 0.1199(4)
H3 H 0.3865 0.2540 0.1081
C5 C 0.2785(15) 0.3324(2) 0.0883(3)
H4 H 0.3959 0.3365 0.0551
N2 N 0.1094(9) 0.22919(18) 0.2059(2)
C8 C 0.0476(10) 0.14263(19) 0.2923(3)
C9 C 0.2578(10) 0.1808(2) 0.3067(3)
C10 C 0.2993(11) 0.2244(2) 0.2611(3)
C14 C 0.0049(10) 0.10150(19) 0.3384(2)
C15 C 0.1665(9) 0.10281(19) 0.3997(2)
C16 C 0.3724(10) 0.1399(2) 0.4113(3)
H7 H 0.4821 0.1395 0.4518
C17 C 0.4214(11) 0.1783(2) 0.3641(3)
H8 H 0.5686 0.2026 0.3720
C19 C 0.1012(9) 0.07073(19) 0.4580(2)
Cd3 Cd 0.17720(7) 0.457638(13) 0.059495(17)
Cd5 Cd 0.67720(7) 0.042362(13) 0.559495(17)
O7 O 0.5026(7) 0.00155(14) 0.36211(18)
Cd1 Cd 0.32280(7) 0.957638(13) 0.440505(17)
O8 O 0.7178(7) 0.95895(13) 0.51205(16)
O9 O 0.1286(7) 0.92128(14) 0.52405(17)
N3 N 0.3722(9) 0.87373(17) 0.3987(2)
O4 O 0.8714(7) 0.07872(14) 0.47595(17)
O5 O 0.7637(9) 0.19706(17) 0.1366(2)
C1 C 0.9600(15) 0.3666(3) 0.1464(4)
H1 H 0.8434 0.3953 0.1554
C2 C 0.9471(15) 0.3193(3) 0.1810(4)
H2 H 0.8244 0.3156 0.2130
C6 C 0.9077(11) 0.1913(2) 0.1873(3)
C7 C 0.8812(11) 0.1460(2) 0.2328(3)
C11 C 0.6808(12) 0.1090(2) 0.2173(3)
H5 H 0.5689 0.1118 0.1773
C12 C 0.6410(11) 0.0669(2) 0.2606(3)
H6 H 0.5023 0.0412 0.2494
C13 C 0.7999(10) 0.0620(2) 0.3196(3)
C18 C 0.7472(10) 0.01195(19) 0.3576(2)
O1 O 0.9432(7) 0.98257(14) 0.37813(18)
O1_2 O 0.5568(7) 0.48257(14) 0.12187(18)
O2 O 0.9974(7) 0.50155(14) 0.13789(18)
O3_2 O 0.2178(7) 0.54105(13) 0.01205(16)
O4_2 O 0.6286(7) 0.57872(14) 0.02405(17)
O5_2 O 0.7363(9) 0.69706(17) 0.3634(2)
O6_2 O 0.0169(9) 0.75722(17) 0.2303(2)
C1_2 C 0.5400(15) 0.8666(3) 0.3536(4)
H1_2 H 0.6566 0.8953 0.3446
C2_2 C 0.5529(15) 0.8193(3) 0.3190(4)
H2_2 H 0.6756 0.8156 0.2870
C3_2 C 0.3861(11) 0.7781(2) 0.3318(3)
C4_2 C 0.2227(15) 0.7830(3) 0.3801(4)
H3_2 H 0.1135 0.7540 0.3919
C5_2 C 0.2215(15) 0.8324(2) 0.4117(3)
H4_2 H 0.1041 0.8365 0.4449
N2_2 N 0.3906(9) 0.72919(18) 0.2941(2)
C6_2 C 0.5923(11) 0.6913(2) 0.3127(3)
C7_2 C 0.6188(11) 0.6460(2) 0.2672(3)
C8_2 C 0.4524(10) 0.64263(19) 0.2077(3)
C9_2 C 0.2422(10) 0.6808(2) 0.1933(3)
C10_2 C 0.2007(11) 0.7244(2) 0.2389(3)
C11_2 C 0.8192(12) 0.6090(2) 0.2827(3)
H5_2 H 0.9311 0.6118 0.3227
C12_2 C 0.8590(11) 0.5669(2) 0.2394(3)
H6_2 H 0.9977 0.5412 0.2506
C13_2 C 0.7001(10) 0.5620(2) 0.1804(3)
C14_2 C 0.4951(10) 0.60150(19) 0.1616(2)
C15_2 C 0.3335(9) 0.60281(19) 0.1003(2)
C16_2 C 0.1276(10) 0.6399(2) 0.0887(3)
H7_2 H 0.0179 0.6395 0.0482
C17_2 C 0.0786(11) 0.6783(2) 0.1359(3)
C18_2 C 0.7528(10) 0.51195(19) 0.1424(2)
C19_2 C 0.3988(9) 0.57073(19) 0.0420(2)
Cd4 Cd 0.82280(7) 0.542362(13) 0.940505(17)
O9_2 O 0.3714(7) 0.42128(14) 0.97595(17)
H8_2 H 0.9314 0.7026 0.1280
O8_2 O 0.7822(7) 0.45895(13) 0.98795(16)
O1_3 O 0.0568(7) 0.01743(14) 0.62187(18)
O2_2 O 0.4974(7) 0.99845(14) 0.63789(18)
O5_3 O 0.2363(9) 0.80294(17) 0.8634(2)
C1_3 C 0.0400(15) 0.6334(3) 0.8536(4)
H1_3 H 0.1566 0.6047 0.8446
C2_3 C 0.0529(15) 0.6807(3) 0.8190(4)
H2_3 H 0.1756 0.6844 0.7870
C6_3 C 0.0923(11) 0.8087(2) 0.8127(3)
C7_3 C 0.1188(11) 0.8540(2) 0.7672(3)
C11_3 C 0.3192(12) 0.8910(2) 0.7827(3)
H5_3 H 0.4311 0.8882 0.8227
C12_3 C 0.3590(11) 0.9331(2) 0.7394(3)
H6_3 H 0.4977 0.9588 0.7506
C13_3 C 0.2001(10) 0.9380(2) 0.6804(3)
C18_3 C 0.2528(10) 0.98805(19) 0.6424(2)
N3_2 N 0.6278(9) 0.12627(17) 0.6013(2)
O6_3 O 0.5169(9) 0.74278(17) 0.7303(2)
N1_2 N 0.8722(9) 0.62627(17) 0.8987(2)
C3_3 C 0.8861(11) 0.7219(2) 0.8318(3)
C4_3 C 0.7227(15) 0.7170(3) 0.8801(4)
H3_3 H 0.6135 0.7460 0.8919
C5_3 C 0.7215(15) 0.6676(2) 0.9117(3)
H4_3 H 0.6041 0.6635 0.9449
N2_3 N 0.8906(9) 0.77081(18) 0.7941(2)
C8_3 C 0.9524(10) 0.85737(19) 0.7077(3)
C9_3 C 0.7422(10) 0.8192(2) 0.6933(3)
C10_3 C 0.7007(11) 0.7756(2) 0.7389(3)
C14_3 C 0.9951(10) 0.89850(19) 0.6616(2)
C15_3 C 0.8335(9) 0.89719(19) 0.6003(2)
C16_3 C 0.6276(10) 0.8601(2) 0.5887(3)
H7_3 H 0.5179 0.8605 0.5482
C17_3 C 0.5786(11) 0.8217(2) 0.6359(3)
H8_3 H 0.4314 0.7974 0.6280
C19_3 C 0.8988(9) 0.92927(19) 0.5420(2)
H8_4 H 0.0686 0.2974 0.8720
O7_2 O 0.0026(7) 0.49845(14) 0.86211(18)
O1_4 O 0.4432(7) 0.51743(14) 0.87813(18)
O5_4 O 0.2637(9) 0.30294(17) 0.6366(2)
O6_4 O 0.9831(9) 0.24278(17) 0.7697(2)
C1_4 C 0.4600(15) 0.1334(3) 0.6464(4)
H1_4 H 0.3434 0.1047 0.6554
C2_4 C 0.4471(15) 0.1807(3) 0.6810(4)
H2_4 H 0.3244 0.1844 0.7130
C3_4 C 0.6139(11) 0.2219(2) 0.6682(3)
C4_4 C 0.7773(15) 0.2170(3) 0.6199(4)
H3_4 H 0.8865 0.2460 0.6081
C5_4 C 0.7785(15) 0.1676(2) 0.5883(3)
H4_4 H 0.8959 0.1635 0.5551
N2_4 N 0.6094(9) 0.27081(18) 0.7059(2)
C6_4 C 0.4077(11) 0.3087(2) 0.6873(3)
C7_4 C 0.3812(11) 0.3540(2) 0.7328(3)
C8_4 C 0.5476(10) 0.35737(19) 0.7923(3)
C9_4 C 0.7578(10) 0.3192(2) 0.8067(3)
C10_4 C 0.7993(11) 0.2756(2) 0.7611(3)
C11_4 C 0.1808(12) 0.3910(2) 0.7173(3)
H5_4 H 0.0689 0.3882 0.6773
C12_4 C 0.1410(11) 0.4331(2) 0.7606(3)
H6_4 H 0.0023 0.4588 0.7494
C13_4 C 0.2999(10) 0.4380(2) 0.8196(3)
C14_4 C 0.5049(10) 0.39850(19) 0.8384(2)
C15_4 C 0.6665(9) 0.39719(19) 0.8997(2)
C16_4 C 0.8724(10) 0.3601(2) 0.9113(3)
H7_4 H 0.9821 0.3605 0.9518
C17_4 C 0.9214(11) 0.3217(2) 0.8641(3)
C18_4 C 0.2472(10) 0.48805(19) 0.8576(2)
C19_4 C 0.6012(9) 0.42927(19) 0.9580(2)
loop_
_geom_bond_atom_site_label_1
_geom_bond_atom_site_label_2
_geom_bond_site_symmetry_1
_geom_bond_site_symmetry_2
O6 C10 1_555 1_555
C4 C3 1_555 1_555
H3 C4 1_555 1_555
C5 N1 1_555 1_555
H4 C5 1_555 1_555
N2 C3 1_555 1_555
C9 C8 1_555 1_555
C10 N2 1_555 1_555
C14 C8 1_555 1_555
C15 C14 1_555 1_555
C16 C15 1_555 1_555
H7 C16 1_555 1_555
C17 C9 1_555 1_555
H8 C17 1_555 1_555
C19 O3 1_555 1_555
Cd3 N1 1_555 1_555
Cd5 O3 1_555 1_555
C4 C5 1_555 1_555
C9 C10 1_555 1_555
C15 C19 1_555 1_555
C16 C17 1_555 1_555
O8 Cd1 1_555 1_555
O9 Cd1 1_555 1_555
N3 Cd1 1_555 1_555
O7 C18 1_555 1_555
O5 C6 1_555 1_555
C1 H1 1_555 1_555
C2 C1 1_555 1_555
H2 C2 1_555 1_555
C7 C6 1_555 1_555
C11 C7 1_555 1_555
H5 C11 1_555 1_555
C12 C11 1_555 1_555
H6 C12 1_555 1_555
C13 C12 1_555 1_555
C18 C13 1_555 1_555
Cd5 O4 1_555 1_555
Cd3 O1_2 1_555 1_555
O1_2 C18_2 1_555 1_555
O2 C18_2 1_555 1_555
O3_2 Cd3 1_555 1_555
O4_2 C19_2 1_555 1_555
O5_2 C6_2 1_555 1_555
O6_2 C10_2 1_555 1_555
N3 C1_2 1_555 1_555
C1_2 H1_2 1_555 1_555
C2_2 C1_2 1_555 1_555
H2_2 C2_2 1_555 1_555
C3_2 C2_2 1_555 1_555
C4_2 C3_2 1_555 1_555
H3_2 C4_2 1_555 1_555
C5_2 N3 1_555 1_555
H4_2 C5_2 1_555 1_555
N2_2 C3_2 1_555 1_555
C6_2 N2_2 1_555 1_555
C7_2 C6_2 1_555 1_555
C8_2 C7_2 1_555 1_555
C9_2 C8_2 1_555 1_555
C10_2 N2_2 1_555 1_555
C11_2 C7_2 1_555 1_555
H5_2 C11_2 1_555 1_555
C12_2 C11_2 1_555 1_555
H6_2 C12_2 1_555 1_555
C13_2 C12_2 1_555 1_555
C14_2 C8_2 1_555 1_555
C15_2 C14_2 1_555 1_555
C16_2 C15_2 1_555 1_555
H7_2 C16_2 1_555 1_555
C17_2 C9_2 1_555 1_555
C18_2 C13_2 1_555 1_555
C19_2 O3_2 1_555 1_555
C4_2 C5_2 1_555 1_555
C9_2 C10_2 1_555 1_555
C13_2 C14_2 1_555 1_555
C15_2 C19_2 1_555 1_555
C16_2 C17_2 1_555 1_555
Cd4 O8_2 1_555 1_555
O2_2 C18_3 1_555 1_555
O5_3 C6_3 1_555 1_555
C1_3 H1_3 1_555 1_555
C2_3 C1_3 1_555 1_555
H2_3 C2_3 1_555 1_555
C7_3 C6_3 1_555 1_555
C11_3 C7_3 1_555 1_555
H5_3 C11_3 1_555 1_555
C12_3 C11_3 1_555 1_555
H6_3 C12_3 1_555 1_555
C13_3 C12_3 1_555 1_555
C18_3 C13_3 1_555 1_555
N3_2 Cd5 1_555 1_555
O6_3 C10_3 1_555 1_555
C4_3 C3_3 1_555 1_555
H3_3 C4_3 1_555 1_555
C5_3 N1_2 1_555 1_555
H4_3 C5_3 1_555 1_555
N2_3 C3_3 1_555 1_555
C9_3 C8_3 1_555 1_555
C10_3 N2_3 1_555 1_555
C14_3 C8_3 1_555 1_555
C15_3 C14_3 1_555 1_555
C16_3 C15_3 1_555 1_555
H7_3 C16_3 1_555 1_555
C17_3 C9_3 1_555 1_555
H8_3 C17_3 1_555 1_555
C19_3 O8 1_555 1_555
Cd4 N1_2 1_555 1_555
C4_3 C5_3 1_555 1_555
C9_3 C10_3 1_555 1_555
C15_3 C19_3 1_555 1_555
C16_3 C17_3 1_555 1_555
Cd4 O1_4 1_555 1_555
O1_4 C18_4 1_555 1_555
O7_2 C18_4 1_555 1_555
O9_2 C19_4 1_555 1_555
O5_4 C6_4 1_555 1_555
O6_4 C10_4 1_555 1_555
N3_2 C1_4 1_555 1_555
C1_4 H1_4 1_555 1_555
C2_4 C1_4 1_555 1_555
H2_4 C2_4 1_555 1_555
C3_4 C2_4 1_555 1_555
C4_4 C3_4 1_555 1_555
H3_4 C4_4 1_555 1_555
C5_4 N3_2 1_555 1_555
H4_4 C5_4 1_555 1_555
N2_4 C3_4 1_555 1_555
C6_4 N2_4 1_555 1_555
C7_4 C6_4 1_555 1_555
C8_4 C7_4 1_555 1_555
C9_4 C8_4 1_555 1_555
C10_4 N2_4 1_555 1_555
C11_4 C7_4 1_555 1_555
H5_4 C11_4 1_555 1_555
C12_4 C11_4 1_555 1_555
H6_4 C12_4 1_555 1_555
C13_4 C12_4 1_555 1_555
C14_4 C8_4 1_555 1_555
C15_4 C14_4 1_555 1_555
C16_4 C15_4 1_555 1_555
H7_4 C16_4 1_555 1_555
C17_4 C9_4 1_555 1_555
C18_4 C13_4 1_555 1_555
C19_4 O8_2 1_555 1_555
C4_4 C5_4 1_555 1_555
C9_4 C10_4 1_555 1_555
C13_4 C14_4 1_555 1_555
C15_4 C19_4 1_555 1_555
C16_4 C17_4 1_555 1_555

#END
