
###############################################################################
#
# This file contains modified crystal structure data generated from the
# MOF subset of the Cambridge Structural Database (CSD) v543 
# hosted by the Cambridge Crystallographic Data Centre (CCDC).
#
# This work is licensed under the Creative Commons
# Attribution-NonCommercial-ShareAlike 4.0 International License.
# To view a copy of this license, visit
# http://creativecommons.org/licenses/by-nc-sa/4.0/
# or send a letter to
# Creative Commons, PO Box 1866, Mountain View, CA 94042, USA.
#
# CIF created using the CSD Python API on 29 September 2022
# The structure has been converted into the P1 space group
# The structure has a 3D framework
# The original CSD entry XEXLOD is in the monoclinic crystal system
# The framework has been calculated to contain at least 10.0% void space
# The void calculation uses a probe of radius 1.32A, grid spacing 0.4
#
###############################################################################

data_XEXLOD
_chemical_formula_moiety         '(C76 H32 N8 O24 Zn2)n'
_symmetry_cell_setting           triclinic
_symmetry_space_group_name_H-M   'P 1'
_symmetry_Int_Tables_number      1
_space_group_name_Hall           'P 1'
loop_
_symmetry_equiv_pos_site_id
_symmetry_equiv_pos_as_xyz
1 x,y,z
_cell_length_a                   5.5797(4)
_cell_length_b                   25.9231(19)
_cell_length_c                   16.7931(12)
_cell_angle_alpha                90
_cell_angle_beta                 98.575(4)
_cell_angle_gamma                90
_cell_volume                     2401.85
loop_
_atom_site_label
_atom_site_type_symbol
_atom_site_fract_x
_atom_site_fract_y
_atom_site_fract_z
Zn5 Zn 0.11923(7) 0.520869(14) 0.57962(2)
O7 O 0.1548(4) 0.42625(9) 0.45465(14)
O9 O 0.1376(4) 0.51989(9) 0.36994(14)
Zn1 Zn 0.88077(7) 0.479131(14) 0.42038(2)
O1 O 0.7109(4) 0.54758(9) 0.42007(14)
O2 O 0.8452(4) 0.57375(9) 0.54535(14)
O3 O 0.2721(4) 0.55599(9) 0.48946(14)
O5 O 0.7010(5) 0.82044(10) 0.37413(18)
N1 N 0.2605(5) 0.93415(11) 0.17313(17)
N2 N 0.3479(6) 0.79542(11) 0.30035(19)
C1 C 0.4453(7) 0.90254(15) 0.1649(2)
H1 H 0.5521 0.9116 0.1281
C2 C 0.4856(7) 0.85719(15) 0.2083(2)
H2 H 0.6179 0.8353 0.2018
C3 C 0.3277(7) 0.84472(14) 0.2611(2)
C4 C 0.1456(7) 0.87840(15) 0.2739(2)
H3 H 0.0435 0.8714 0.3131
C5 C 0.1168(7) 0.92253(14) 0.2278(2)
C6 C 0.5539(7) 0.78659(14) 0.3574(2)
C7 C 0.5755(7) 0.73406(14) 0.3931(2)
C8 C 0.4024(6) 0.69579(13) 0.3678(2)
C9 C 0.1978(7) 0.70752(14) 0.3108(2)
C10 C 0.1636(7) 0.76002(15) 0.2759(2)
C11 C 0.7715(7) 0.72368(14) 0.4501(2)
H5 H 0.8831 0.7503 0.4688
C12 C 0.8062(7) 0.67328(14) 0.4808(2)
H6 H 0.9414 0.6662 0.5208
C13 C 0.6482(6) 0.63425(13) 0.4541(2)
C14 C 0.4344(6) 0.64465(13) 0.39936(19)
C15 C 0.2499(6) 0.60768(13) 0.3732(2)
C16 C 0.0557(7) 0.62079(15) 0.3168(2)
C17 C 0.0296(7) 0.67044(15) 0.2851(2)
C18 C 0.7361(6) 0.58029(13) 0.4761(2)
C19 C 0.2261(6) 0.55627(13) 0.4140(2)
Zn3 Zn 0.11923(7) 0.979131(14) 0.07962(2)
O8 O 0.7279(4) 0.44401(9) 0.51054(14)
N3 N 0.7395(5) 0.43415(11) 0.32687(17)
O6 O 0.9892(5) 0.77167(11) 0.22665(19)
H4 H 0.9900 0.9457 0.2351
H7 H 0.9366 0.5955 0.2989
H8 H 0.8948 0.6786 0.2456
O1_2 O 0.2891(4) 0.04758(9) 0.07993(14)
O3_2 O 0.7279(4) 0.05599(9) 0.01054(14)
O4 O 0.8624(4) 0.01989(9) 0.13006(14)
O5_2 O 0.2990(5) 0.32044(10) 0.12587(18)
N2_2 N 0.6521(6) 0.29542(11) 0.19965(19)
C1_2 C 0.5547(7) 0.40254(15) 0.3351(2)
H1_2 H 0.4479 0.4116 0.3719
C2_2 C 0.5144(7) 0.35719(15) 0.2917(2)
H2_2 H 0.3821 0.3353 0.2982
C3_2 C 0.6723(7) 0.34472(14) 0.2389(2)
C4_2 C 0.8544(7) 0.37840(15) 0.2261(2)
H3_2 H 0.9565 0.3714 0.1869
C5_2 C 0.8832(7) 0.42253(14) 0.2722(2)
C6_2 C 0.4461(7) 0.28659(14) 0.1426(2)
C7_2 C 0.4245(7) 0.23406(14) 0.1069(2)
C8_2 C 0.5976(6) 0.19579(13) 0.1322(2)
C9_2 C 0.8022(7) 0.20752(14) 0.1892(2)
C10_2 C 0.8364(7) 0.26002(15) 0.2241(2)
C11_2 C 0.2285(7) 0.22368(14) 0.0499(2)
H5_2 H 0.1169 0.2503 0.0312
C12_2 C 0.1938(7) 0.17328(14) 0.0192(2)
C13_2 C 0.3518(6) 0.13425(13) 0.0459(2)
C14_2 C 0.5656(6) 0.14465(13) 0.10064(19)
C15_2 C 0.7501(6) 0.10768(13) 0.1268(2)
C16_2 C 0.9443(7) 0.12079(15) 0.1832(2)
C17_2 C 0.9704(7) 0.17044(15) 0.2149(2)
C18_2 C 0.2639(6) 0.08029(13) 0.0239(2)
C19_2 C 0.7739(6) 0.05627(13) 0.0860(2)
O2_2 O 0.1548(4) 0.07375(9) 0.95465(14)
H6_2 H 0.0586 0.1662 0.9792
Zn4 Zn 0.88077(7) 0.020869(14) 0.92038(2)
O8_2 O 0.2721(4) 0.94401(9) 0.98946(14)
O7_2 O 0.8452(4) 0.92625(9) 0.04535(14)
O6_2 O 0.0108(5) 0.22833(11) 0.77335(19)
H4_2 H 0.0100 0.0543 0.7649
H7_2 H 0.0634 0.4045 0.7011
H8_2 H 0.1052 0.3214 0.7544
O1_3 O 0.2891(4) 0.45242(9) 0.57993(14)
O4_2 O 0.8624(4) 0.48011(9) 0.63006(14)
O5_3 O 0.2990(5) 0.17956(10) 0.62587(18)
N1_2 N 0.7395(5) 0.06585(11) 0.82687(17)
N2_3 N 0.6521(6) 0.20458(11) 0.69965(19)
C1_3 C 0.5547(7) 0.09746(15) 0.8351(2)
H1_3 H 0.4479 0.0884 0.8719
C2_3 C 0.5144(7) 0.14281(15) 0.7917(2)
H2_3 H 0.3821 0.1647 0.7982
C3_3 C 0.6723(7) 0.15528(14) 0.7389(2)
C4_3 C 0.8544(7) 0.12160(15) 0.7261(2)
H3_3 H 0.9565 0.1286 0.6869
C5_3 C 0.8832(7) 0.07747(14) 0.7722(2)
C6_3 C 0.4461(7) 0.21341(14) 0.6426(2)
C7_3 C 0.4245(7) 0.26594(14) 0.6069(2)
C8_3 C 0.5976(6) 0.30421(13) 0.6322(2)
C9_3 C 0.8022(7) 0.29248(14) 0.6892(2)
C10_3 C 0.8364(7) 0.23998(15) 0.7241(2)
C11_3 C 0.2285(7) 0.27632(14) 0.5499(2)
H5_3 H 0.1169 0.2497 0.5312
C12_3 C 0.1938(7) 0.32672(14) 0.5192(2)
H6_3 H 0.0586 0.3338 0.4792
C13_3 C 0.3518(6) 0.36575(13) 0.5459(2)
C14_3 C 0.5656(6) 0.35535(13) 0.60064(19)
C15_3 C 0.7501(6) 0.39232(13) 0.6268(2)
C16_3 C 0.9443(7) 0.37921(15) 0.6832(2)
C17_3 C 0.9704(7) 0.32956(15) 0.7149(2)
C18_3 C 0.2639(6) 0.41971(13) 0.5239(2)
C19_3 C 0.7739(6) 0.44373(13) 0.5860(2)
N3_2 N 0.2605(5) 0.56585(11) 0.67313(17)
O9_2 O 0.1376(4) 0.98011(9) 0.86994(14)
H6_4 H 0.9414 0.8338 0.0208
O1_4 O 0.7109(4) 0.95242(9) 0.92007(14)
O5_4 O 0.7010(5) 0.67956(10) 0.87413(18)
N2_4 N 0.3479(6) 0.70458(11) 0.80035(19)
C1_4 C 0.4453(7) 0.59746(15) 0.6649(2)
H1_4 H 0.5521 0.5884 0.6281
C2_4 C 0.4856(7) 0.64281(15) 0.7083(2)
H2_4 H 0.6179 0.6647 0.7018
C3_4 C 0.3277(7) 0.65528(14) 0.7611(2)
C4_4 C 0.1456(7) 0.62160(15) 0.7739(2)
H3_4 H 0.0435 0.6286 0.8131
C5_4 C 0.1168(7) 0.57747(14) 0.7278(2)
C6_4 C 0.5539(7) 0.71341(14) 0.8574(2)
C7_4 C 0.5755(7) 0.76594(14) 0.8931(2)
C8_4 C 0.4024(6) 0.80421(13) 0.8678(2)
C9_4 C 0.1978(7) 0.79248(14) 0.8108(2)
C10_4 C 0.1636(7) 0.73998(15) 0.7759(2)
C11_4 C 0.7715(7) 0.77632(14) 0.9501(2)
H5_4 H 0.8831 0.7497 0.9688
C12_4 C 0.8062(7) 0.82672(14) 0.9808(2)
C13_4 C 0.6482(6) 0.86575(13) 0.9541(2)
C14_4 C 0.4344(6) 0.85535(13) 0.89936(19)
C15_4 C 0.2499(6) 0.89232(13) 0.8732(2)
C16_4 C 0.0557(7) 0.87921(15) 0.8168(2)
C17_4 C 0.0296(7) 0.82956(15) 0.7851(2)
C18_4 C 0.7361(6) 0.91971(13) 0.9761(2)
C19_4 C 0.2261(6) 0.94373(13) 0.9140(2)
O6_3 O 0.0108(5) 0.27167(11) 0.27335(19)
H4_3 H 0.0100 0.4457 0.2649
H7_3 H 0.0634 0.0955 0.2011
H8_3 H 0.1052 0.1786 0.2544
O6_4 O 0.9892(5) 0.72833(11) 0.72665(19)
H4_4 H 0.9900 0.5543 0.7351
H7_4 H 0.9366 0.9045 0.7989
H8_4 H 0.8948 0.8214 0.7456
loop_
_geom_bond_atom_site_label_1
_geom_bond_atom_site_label_2
_geom_bond_site_symmetry_1
_geom_bond_site_symmetry_2
Zn1 O1 1_555 1_555
O1 C18 1_555 1_555
O2 C18 1_555 1_555
O3 C19 1_555 1_555
O9 C19 1_555 1_555
O5 C6 1_555 1_555
N1 C1 1_555 1_555
N2 C3 1_555 1_555
C1 H1 1_555 1_555
C2 C1 1_555 1_555
H2 C2 1_555 1_555
C3 C2 1_555 1_555
C4 C3 1_555 1_555
H3 C4 1_555 1_555
C5 N1 1_555 1_555
C6 N2 1_555 1_555
C7 C6 1_555 1_555
C8 C7 1_555 1_555
C9 C8 1_555 1_555
C10 N2 1_555 1_555
C11 C7 1_555 1_555
H5 C11 1_555 1_555
C12 C11 1_555 1_555
H6 C12 1_555 1_555
C13 C12 1_555 1_555
C14 C8 1_555 1_555
C15 C14 1_555 1_555
C16 C15 1_555 1_555
C17 C9 1_555 1_555
C18 C13 1_555 1_555
C19 C15 1_555 1_555
Zn3 N1 1_555 1_555
Zn5 O3 1_555 1_555
O8 Zn1 1_555 1_555
N3 Zn1 1_555 1_555
C4 C5 1_555 1_555
C9 C10 1_555 1_555
C13 C14 1_555 1_555
C16 C17 1_555 1_555
O1_2 C18_2 1_555 1_555
O3_2 C19_2 1_555 1_555
O4 C19_2 1_555 1_555
O5_2 C6_2 1_555 1_555
N3 C1_2 1_555 1_555
N2_2 C3_2 1_555 1_555
C1_2 H1_2 1_555 1_555
C2_2 C1_2 1_555 1_555
H2_2 C2_2 1_555 1_555
C3_2 C2_2 1_555 1_555
C4_2 C3_2 1_555 1_555
H3_2 C4_2 1_555 1_555
C5_2 N3 1_555 1_555
C6_2 N2_2 1_555 1_555
C7_2 C6_2 1_555 1_555
C8_2 C7_2 1_555 1_555
C9_2 C8_2 1_555 1_555
C10_2 N2_2 1_555 1_555
C11_2 C7_2 1_555 1_555
H5_2 C11_2 1_555 1_555
C12_2 C11_2 1_555 1_555
C13_2 C12_2 1_555 1_555
C14_2 C8_2 1_555 1_555
C15_2 C14_2 1_555 1_555
C16_2 C15_2 1_555 1_555
C17_2 C9_2 1_555 1_555
C18_2 C13_2 1_555 1_555
C19_2 C15_2 1_555 1_555
C4_2 C5_2 1_555 1_555
C9_2 C10_2 1_555 1_555
C13_2 C14_2 1_555 1_555
C16_2 C17_2 1_555 1_555
Zn5 O1_3 1_555 1_555
O1_3 C18_3 1_555 1_555
O7 C18_3 1_555 1_555
O8 C19_3 1_555 1_555
O4_2 C19_3 1_555 1_555
O5_3 C6_3 1_555 1_555
N1_2 C1_3 1_555 1_555
N2_3 C3_3 1_555 1_555
C1_3 H1_3 1_555 1_555
C2_3 C1_3 1_555 1_555
H2_3 C2_3 1_555 1_555
C3_3 C2_3 1_555 1_555
C4_3 C3_3 1_555 1_555
H3_3 C4_3 1_555 1_555
C5_3 N1_2 1_555 1_555
C6_3 N2_3 1_555 1_555
C7_3 C6_3 1_555 1_555
C8_3 C7_3 1_555 1_555
C9_3 C8_3 1_555 1_555
C10_3 N2_3 1_555 1_555
C11_3 C7_3 1_555 1_555
H5_3 C11_3 1_555 1_555
C12_3 C11_3 1_555 1_555
H6_3 C12_3 1_555 1_555
C13_3 C12_3 1_555 1_555
C14_3 C8_3 1_555 1_555
C15_3 C14_3 1_555 1_555
C16_3 C15_3 1_555 1_555
C17_3 C9_3 1_555 1_555
C18_3 C13_3 1_555 1_555
C19_3 C15_3 1_555 1_555
Zn4 N1_2 1_555 1_555
N3_2 Zn5 1_555 1_555
C4_3 C5_3 1_555 1_555
C9_3 C10_3 1_555 1_555
C13_3 C14_3 1_555 1_555
C16_3 C17_3 1_555 1_555
O1_4 C18_4 1_555 1_555
O8_2 C19_4 1_555 1_555
O9_2 C19_4 1_555 1_555
O5_4 C6_4 1_555 1_555
N3_2 C1_4 1_555 1_555
N2_4 C3_4 1_555 1_555
C1_4 H1_4 1_555 1_555
C2_4 C1_4 1_555 1_555
H2_4 C2_4 1_555 1_555
C3_4 C2_4 1_555 1_555
C4_4 C3_4 1_555 1_555
H3_4 C4_4 1_555 1_555
C5_4 N3_2 1_555 1_555
C6_4 N2_4 1_555 1_555
C7_4 C6_4 1_555 1_555
C8_4 C7_4 1_555 1_555
C9_4 C8_4 1_555 1_555
C10_4 N2_4 1_555 1_555
C11_4 C7_4 1_555 1_555
H5_4 C11_4 1_555 1_555
C12_4 C11_4 1_555 1_555
C13_4 C12_4 1_555 1_555
C14_4 C8_4 1_555 1_555
C15_4 C14_4 1_555 1_555
C16_4 C15_4 1_555 1_555
C17_4 C9_4 1_555 1_555
C18_4 C13_4 1_555 1_555
C19_4 C15_4 1_555 1_555
C4_4 C5_4 1_555 1_555
C9_4 C10_4 1_555 1_555
C13_4 C14_4 1_555 1_555
C16_4 C17_4 1_555 1_555

#END
