
###############################################################################
#
# This file contains modified crystal structure data generated from the
# MOF subset of the Cambridge Structural Database (CSD) v543 
# hosted by the Cambridge Crystallographic Data Centre (CCDC).
#
# This work is licensed under the Creative Commons
# Attribution-NonCommercial-ShareAlike 4.0 International License.
# To view a copy of this license, visit
# http://creativecommons.org/licenses/by-nc-sa/4.0/
# or send a letter to
# Creative Commons, PO Box 1866, Mountain View, CA 94042, USA.
#
# CIF created using the CSD Python API on 29 September 2022
# The structure has been converted into the P1 space group
# The structure has a 3D framework
# The original CSD entry XEXMEU is in the monoclinic crystal system
# The framework has been calculated to contain at least 10.0% void space
# The void calculation uses a probe of radius 1.32A, grid spacing 0.4
#
###############################################################################

data_XEXMEU
_chemical_formula_moiety         '(C76 H32 N8 O24 Zn2)n'
_symmetry_cell_setting           triclinic
_symmetry_space_group_name_H-M   'P 1'
_symmetry_Int_Tables_number      1
_space_group_name_Hall           'P 1'
loop_
_symmetry_equiv_pos_site_id
_symmetry_equiv_pos_as_xyz
1 x,y,z
_cell_length_a                   5.6364(6)
_cell_length_b                   25.301(3)
_cell_length_c                   18.8863(19)
_cell_angle_alpha                90
_cell_angle_beta                 95.470(2)
_cell_angle_gamma                90
_cell_volume                     2681.05
loop_
_atom_site_label
_atom_site_type_symbol
_atom_site_fract_x
_atom_site_fract_y
_atom_site_fract_z
Zn5 Zn 0.10300(7) 0.533319(17) 0.56025(2)
O7 O 0.1786(5) 0.42084(11) 0.48232(14)
O9 O 0.1451(5) 0.50285(11) 0.38170(15)
Zn1 Zn 0.89700(7) 0.466681(17) 0.43975(2)
O1 O 0.7098(5) 0.53365(10) 0.41800(16)
O2 O 0.8214(5) 0.57916(11) 0.51768(14)
O3 O 0.2588(5) 0.55707(12) 0.47230(14)
O5 O 0.6846(5) 0.80517(12) 0.30578(18)
O6 O 0.0126(7) 0.73812(14) 0.1881(2)
N1 N 0.2241(6) 0.91048(13) 0.13055(18)
N2 N 0.3488(6) 0.77097(15) 0.2471(2)
C1 C 0.4187(7) 0.88139(18) 0.1226(2)
H1 H 0.5247 0.8926 0.0894
C2 C 0.4701(7) 0.83587(18) 0.1610(2)
H2 H 0.6092 0.8158 0.1547
C3 C 0.3127(7) 0.82024(18) 0.2089(2)
C4 C 0.1170(7) 0.85091(18) 0.2198(2)
H3 H 0.0130 0.8417 0.2546
C5 C 0.0788(7) 0.89490(17) 0.1787(2)
C6 C 0.5491(7) 0.76791(18) 0.2978(2)
C7 C 0.5761(7) 0.71830(16) 0.3389(2)
C8 C 0.4113(7) 0.67678(16) 0.3266(2)
C9 C 0.2153(7) 0.68183(17) 0.2732(2)
C10 C 0.1794(8) 0.73119(19) 0.2328(3)
C11 C 0.7653(7) 0.71441(17) 0.3905(2)
H5 H 0.8730 0.7431 0.3992
C12 C 0.7966(7) 0.66790(17) 0.4300(2)
H6 H 0.9272 0.6652 0.4656
C13 C 0.6427(7) 0.62572(16) 0.4187(2)
C14 C 0.4388(7) 0.62974(16) 0.3678(2)
C15 C 0.2615(6) 0.59002(16) 0.3560(2)
C16 C 0.0815(7) 0.59549(17) 0.3020(2)
C17 C 0.0589(8) 0.64129(18) 0.2609(2)
C18 C 0.7248(6) 0.57517(17) 0.4552(2)
C19 C 0.2256(6) 0.54539(16) 0.4071(2)
Zn3 Zn 0.10300(7) 0.966681(17) 0.06025(2)
O8 O 0.7412(5) 0.44293(12) 0.52770(14)
N3 N 0.7759(6) 0.41048(13) 0.36945(18)
H4 H 0.9416 0.9157 0.1845
H7 H 0.9705 0.5675 0.2926
H8 H 0.9329 0.6442 0.2239
O1_2 O 0.2902(5) 0.03365(10) 0.08200(16)
O3_2 O 0.7412(5) 0.05707(12) 0.02770(14)
O4 O 0.8549(5) 0.00285(11) 0.11830(15)
O5_2 O 0.3154(5) 0.30517(12) 0.19422(18)
O6_2 O 0.9874(7) 0.23812(14) 0.3119(2)
N2_2 N 0.6512(6) 0.27097(15) 0.2529(2)
C1_2 C 0.5813(7) 0.38139(18) 0.3774(2)
H1_2 H 0.4753 0.3926 0.4106
C2_2 C 0.5299(7) 0.33587(18) 0.3390(2)
H2_2 H 0.3908 0.3158 0.3453
C3_2 C 0.6873(7) 0.32024(18) 0.2911(2)
C4_2 C 0.8830(7) 0.35091(18) 0.2802(2)
H3_2 H 0.9870 0.3417 0.2454
C5_2 C 0.9212(7) 0.39490(17) 0.3213(2)
C6_2 C 0.4509(7) 0.26791(18) 0.2022(2)
C7_2 C 0.4239(7) 0.21830(16) 0.1611(2)
C8_2 C 0.5887(7) 0.17678(16) 0.1734(2)
C9_2 C 0.7847(7) 0.18183(17) 0.2268(2)
C10_2 C 0.8206(8) 0.23119(19) 0.2672(3)
C11_2 C 0.2347(7) 0.21441(17) 0.1095(2)
H5_2 H 0.1270 0.2431 0.1008
C12_2 C 0.2034(7) 0.16790(17) 0.0700(2)
H6_2 H 0.0728 0.1652 0.0344
C13_2 C 0.3573(7) 0.12572(16) 0.0813(2)
C14_2 C 0.5612(7) 0.12974(16) 0.1322(2)
C15_2 C 0.7385(6) 0.09002(16) 0.1440(2)
C16_2 C 0.9185(7) 0.09549(17) 0.1980(2)
C17_2 C 0.9411(8) 0.14129(18) 0.2391(2)
C18_2 C 0.2752(6) 0.07517(17) 0.0448(2)
C19_2 C 0.7744(6) 0.04539(16) 0.0929(2)
O2_2 O 0.1786(5) 0.07916(11) 0.98232(14)
Zn4 Zn 0.89700(7) 0.033319(17) 0.93975(2)
O8_2 O 0.2588(5) 0.94293(12) 0.97230(14)
O7_2 O 0.8214(5) 0.92084(11) 0.01768(14)
H4_2 H 0.0584 0.0843 0.8155
H7_2 H 0.0295 0.4325 0.7074
H8_2 H 0.0671 0.3558 0.7761
O1_3 O 0.2902(5) 0.46635(10) 0.58200(16)
O4_2 O 0.8549(5) 0.49715(11) 0.61830(15)
O5_3 O 0.3154(5) 0.19483(12) 0.69422(18)
O6_3 O 0.9874(7) 0.26188(14) 0.8119(2)
N1_2 N 0.7759(6) 0.08952(13) 0.86945(18)
N2_3 N 0.6512(6) 0.22903(15) 0.7529(2)
C1_3 C 0.5813(7) 0.11861(18) 0.8774(2)
H1_3 H 0.4753 0.1074 0.9106
C2_3 C 0.5299(7) 0.16413(18) 0.8390(2)
H2_3 H 0.3908 0.1842 0.8453
C3_3 C 0.6873(7) 0.17976(18) 0.7911(2)
C4_3 C 0.8830(7) 0.14909(18) 0.7802(2)
H3_3 H 0.9870 0.1583 0.7454
C5_3 C 0.9212(7) 0.10510(17) 0.8213(2)
C6_3 C 0.4509(7) 0.23209(18) 0.7022(2)
C7_3 C 0.4239(7) 0.28170(16) 0.6611(2)
C8_3 C 0.5887(7) 0.32322(16) 0.6734(2)
C9_3 C 0.7847(7) 0.31817(17) 0.7268(2)
C10_3 C 0.8206(8) 0.26881(19) 0.7672(3)
C11_3 C 0.2347(7) 0.28559(17) 0.6095(2)
H5_3 H 0.1270 0.2569 0.6008
C12_3 C 0.2034(7) 0.33210(17) 0.5700(2)
H6_3 H 0.0728 0.3348 0.5344
C13_3 C 0.3573(7) 0.37428(16) 0.5813(2)
C14_3 C 0.5612(7) 0.37026(16) 0.6322(2)
C15_3 C 0.7385(6) 0.40998(16) 0.6440(2)
C16_3 C 0.9185(7) 0.40451(17) 0.6980(2)
C17_3 C 0.9411(8) 0.35871(18) 0.7391(2)
C18_3 C 0.2752(6) 0.42483(17) 0.5448(2)
C19_3 C 0.7744(6) 0.45461(16) 0.5929(2)
N3_2 N 0.2241(6) 0.58952(13) 0.63055(18)
O9_2 O 0.1451(5) 0.99715(11) 0.88170(15)
O1_4 O 0.7098(5) 0.96635(10) 0.91800(16)
O5_4 O 0.6846(5) 0.69483(12) 0.80578(18)
O6_4 O 0.0126(7) 0.76188(14) 0.6881(2)
N2_4 N 0.3488(6) 0.72903(15) 0.7471(2)
C1_4 C 0.4187(7) 0.61861(18) 0.6226(2)
H1_4 H 0.5247 0.6074 0.5894
C2_4 C 0.4701(7) 0.66413(18) 0.6610(2)
H2_4 H 0.6092 0.6842 0.6547
C3_4 C 0.3127(7) 0.67976(18) 0.7089(2)
C4_4 C 0.1170(7) 0.64909(18) 0.7198(2)
H3_4 H 0.0130 0.6583 0.7546
C5_4 C 0.0788(7) 0.60510(17) 0.6787(2)
C6_4 C 0.5491(7) 0.73209(18) 0.7978(2)
C7_4 C 0.5761(7) 0.78170(16) 0.8389(2)
C8_4 C 0.4113(7) 0.82322(16) 0.8266(2)
C9_4 C 0.2153(7) 0.81817(17) 0.7732(2)
C10_4 C 0.1794(8) 0.76881(19) 0.7328(3)
C11_4 C 0.7653(7) 0.78559(17) 0.8905(2)
H5_4 H 0.8730 0.7569 0.8992
C12_4 C 0.7966(7) 0.83210(17) 0.9300(2)
H6_4 H 0.9272 0.8348 0.9656
C13_4 C 0.6427(7) 0.87428(16) 0.9187(2)
C14_4 C 0.4388(7) 0.87026(16) 0.8678(2)
C15_4 C 0.2615(6) 0.90998(16) 0.8560(2)
C16_4 C 0.0815(7) 0.90451(17) 0.8020(2)
C17_4 C 0.0589(8) 0.85871(18) 0.7609(2)
C18_4 C 0.7248(6) 0.92483(17) 0.9552(2)
C19_4 C 0.2256(6) 0.95461(16) 0.9071(2)
H4_3 H 0.0584 0.4157 0.3155
H7_3 H 0.0295 0.0675 0.2074
H8_3 H 0.0671 0.1442 0.2761
H4_4 H 0.9416 0.5843 0.6845
H7_4 H 0.9705 0.9325 0.7926
H8_4 H 0.9329 0.8558 0.7239
loop_
_geom_bond_atom_site_label_1
_geom_bond_atom_site_label_2
_geom_bond_site_symmetry_1
_geom_bond_site_symmetry_2
Zn1 O1 1_555 1_555
O1 C18 1_555 1_555
O2 C18 1_555 1_555
O3 C19 1_555 1_555
O9 C19 1_555 1_555
O5 C6 1_555 1_555
O6 C10 1_555 1_555
N1 C1 1_555 1_555
N2 C3 1_555 1_555
C1 H1 1_555 1_555
C2 C1 1_555 1_555
H2 C2 1_555 1_555
C3 C2 1_555 1_555
C4 C3 1_555 1_555
H3 C4 1_555 1_555
C5 N1 1_555 1_555
C6 N2 1_555 1_555
C7 C6 1_555 1_555
C8 C7 1_555 1_555
C9 C8 1_555 1_555
C10 N2 1_555 1_555
C11 C7 1_555 1_555
H5 C11 1_555 1_555
C12 C11 1_555 1_555
H6 C12 1_555 1_555
C13 C12 1_555 1_555
C14 C8 1_555 1_555
C15 C14 1_555 1_555
C16 C15 1_555 1_555
C17 C9 1_555 1_555
C18 C13 1_555 1_555
C19 C15 1_555 1_555
Zn3 N1 1_555 1_555
Zn5 O3 1_555 1_555
O8 Zn1 1_555 1_555
N3 Zn1 1_555 1_555
C4 C5 1_555 1_555
C9 C10 1_555 1_555
C13 C14 1_555 1_555
C16 C17 1_555 1_555
O1_2 C18_2 1_555 1_555
O3_2 C19_2 1_555 1_555
O4 C19_2 1_555 1_555
O5_2 C6_2 1_555 1_555
O6_2 C10_2 1_555 1_555
N3 C1_2 1_555 1_555
N2_2 C3_2 1_555 1_555
C1_2 H1_2 1_555 1_555
C2_2 C1_2 1_555 1_555
H2_2 C2_2 1_555 1_555
C3_2 C2_2 1_555 1_555
C4_2 C3_2 1_555 1_555
H3_2 C4_2 1_555 1_555
C5_2 N3 1_555 1_555
C6_2 N2_2 1_555 1_555
C7_2 C6_2 1_555 1_555
C8_2 C7_2 1_555 1_555
C9_2 C8_2 1_555 1_555
C10_2 N2_2 1_555 1_555
C11_2 C7_2 1_555 1_555
H5_2 C11_2 1_555 1_555
C12_2 C11_2 1_555 1_555
H6_2 C12_2 1_555 1_555
C13_2 C12_2 1_555 1_555
C14_2 C8_2 1_555 1_555
C15_2 C14_2 1_555 1_555
C16_2 C15_2 1_555 1_555
C17_2 C9_2 1_555 1_555
C18_2 C13_2 1_555 1_555
C19_2 C15_2 1_555 1_555
C4_2 C5_2 1_555 1_555
C9_2 C10_2 1_555 1_555
C13_2 C14_2 1_555 1_555
C16_2 C17_2 1_555 1_555
Zn5 O1_3 1_555 1_555
O1_3 C18_3 1_555 1_555
O7 C18_3 1_555 1_555
O8 C19_3 1_555 1_555
O4_2 C19_3 1_555 1_555
O5_3 C6_3 1_555 1_555
O6_3 C10_3 1_555 1_555
N1_2 C1_3 1_555 1_555
N2_3 C3_3 1_555 1_555
C1_3 H1_3 1_555 1_555
C2_3 C1_3 1_555 1_555
H2_3 C2_3 1_555 1_555
C3_3 C2_3 1_555 1_555
C4_3 C3_3 1_555 1_555
H3_3 C4_3 1_555 1_555
C5_3 N1_2 1_555 1_555
C6_3 N2_3 1_555 1_555
C7_3 C6_3 1_555 1_555
C8_3 C7_3 1_555 1_555
C9_3 C8_3 1_555 1_555
C10_3 N2_3 1_555 1_555
C11_3 C7_3 1_555 1_555
H5_3 C11_3 1_555 1_555
C12_3 C11_3 1_555 1_555
H6_3 C12_3 1_555 1_555
C13_3 C12_3 1_555 1_555
C14_3 C8_3 1_555 1_555
C15_3 C14_3 1_555 1_555
C16_3 C15_3 1_555 1_555
C17_3 C9_3 1_555 1_555
C18_3 C13_3 1_555 1_555
C19_3 C15_3 1_555 1_555
Zn4 N1_2 1_555 1_555
N3_2 Zn5 1_555 1_555
C4_3 C5_3 1_555 1_555
C9_3 C10_3 1_555 1_555
C13_3 C14_3 1_555 1_555
C16_3 C17_3 1_555 1_555
O1_4 C18_4 1_555 1_555
O8_2 C19_4 1_555 1_555
O9_2 C19_4 1_555 1_555
O5_4 C6_4 1_555 1_555
O6_4 C10_4 1_555 1_555
N3_2 C1_4 1_555 1_555
N2_4 C3_4 1_555 1_555
C1_4 H1_4 1_555 1_555
C2_4 C1_4 1_555 1_555
H2_4 C2_4 1_555 1_555
C3_4 C2_4 1_555 1_555
C4_4 C3_4 1_555 1_555
H3_4 C4_4 1_555 1_555
C5_4 N3_2 1_555 1_555
C6_4 N2_4 1_555 1_555
C7_4 C6_4 1_555 1_555
C8_4 C7_4 1_555 1_555
C9_4 C8_4 1_555 1_555
C10_4 N2_4 1_555 1_555
C11_4 C7_4 1_555 1_555
H5_4 C11_4 1_555 1_555
C12_4 C11_4 1_555 1_555
H6_4 C12_4 1_555 1_555
C13_4 C12_4 1_555 1_555
C14_4 C8_4 1_555 1_555
C15_4 C14_4 1_555 1_555
C16_4 C15_4 1_555 1_555
C17_4 C9_4 1_555 1_555
C18_4 C13_4 1_555 1_555
C19_4 C15_4 1_555 1_555
C4_4 C5_4 1_555 1_555
C9_4 C10_4 1_555 1_555
C13_4 C14_4 1_555 1_555
C16_4 C17_4 1_555 1_555

#END
