
###############################################################################
#
# This file contains modified crystal structure data generated from the
# MOF subset of the Cambridge Structural Database (CSD) v543 
# hosted by the Cambridge Crystallographic Data Centre (CCDC).
#
# This work is licensed under the Creative Commons
# Attribution-NonCommercial-ShareAlike 4.0 International License.
# To view a copy of this license, visit
# http://creativecommons.org/licenses/by-nc-sa/4.0/
# or send a letter to
# Creative Commons, PO Box 1866, Mountain View, CA 94042, USA.
#
# CIF created using the CSD Python API on 29 September 2022
# The structure has been converted into the P1 space group
# The structure has a 3D framework
# The original CSD entry XEXMAQ is in the monoclinic crystal system
# The framework has been calculated to contain at least 10.0% void space
# The void calculation uses a probe of radius 1.32A, grid spacing 0.4
#
###############################################################################

data_XEXMAQ
_chemical_formula_moiety         '(C76 H32 N8 O24 Zn2)n'
_symmetry_cell_setting           triclinic
_symmetry_space_group_name_H-M   'P 1'
_symmetry_Int_Tables_number      1
_space_group_name_Hall           'P 1'
loop_
_symmetry_equiv_pos_site_id
_symmetry_equiv_pos_as_xyz
1 x,y,z
_cell_length_a                   5.5871(2)
_cell_length_b                   25.9462(9)
_cell_length_c                   17.4983(7)
_cell_angle_alpha                90
_cell_angle_beta                 96.031(2)
_cell_angle_gamma                90
_cell_volume                     2522.58
loop_
_atom_site_label
_atom_site_type_symbol
_atom_site_fract_x
_atom_site_fract_y
_atom_site_fract_z
Zn5 Zn 0.10794(7) 0.526774(13) 0.57193(2)
O7 O 0.1701(5) 0.42445(9) 0.46761(16)
O9 O 0.1466(5) 0.51183(9) 0.37262(16)
Zn1 Zn 0.89206(7) 0.473226(13) 0.42807(2)
O1 O 0.7130(5) 0.54098(9) 0.41684(16)
O2 O 0.8299(5) 0.57555(9) 0.53239(16)
O3 O 0.2642(5) 0.55616(9) 0.48002(15)
O5 O 0.6855(5) 0.81304(10) 0.34467(19)
N1 N 0.2338(5) 0.92238(11) 0.15426(19)
N2 N 0.3430(6) 0.78447(11) 0.2776(2)
C1 C 0.4278(7) 0.89310(15) 0.1459(2)
H1 H 0.5346 0.9033 0.1115
C2 C 0.4723(7) 0.84804(15) 0.1875(2)
H2 H 0.6066 0.8280 0.1808
C3 C 0.3144(7) 0.83331(14) 0.2389(2)
C4 C 0.1220(7) 0.86450(15) 0.2503(3)
H3 H 0.0184 0.8562 0.2867
C5 C 0.0871(7) 0.90847(14) 0.2063(2)
C6 C 0.5455(7) 0.77753(14) 0.3301(2)
C7 C 0.5737(7) 0.72632(13) 0.3674(2)
C8 C 0.4083(6) 0.68654(13) 0.3465(2)
C9 C 0.2088(7) 0.69565(14) 0.2915(2)
C10 C 0.1674(7) 0.74703(15) 0.2564(3)
C11 C 0.7639(7) 0.71831(14) 0.4215(2)
H5 H 0.8704 0.7451 0.4355
C12 C 0.7991(7) 0.66982(13) 0.4560(2)
H6 H 0.9284 0.6648 0.4932
C13 C 0.6448(6) 0.62939(13) 0.4356(2)
C14 C 0.4385(6) 0.63706(13) 0.3819(2)
C15 C 0.2597(6) 0.59885(13) 0.3615(2)
C16 C 0.0768(7) 0.60826(14) 0.3052(2)
C17 C 0.0502(7) 0.65699(15) 0.2692(3)
C18 C 0.7297(6) 0.57693(13) 0.4650(2)
C19 C 0.2301(6) 0.55090(13) 0.4084(2)
Zn3 Zn 0.10794(7) 0.973226(13) 0.07193(2)
O8 O 0.7358(5) 0.44384(9) 0.51998(15)
N3 N 0.7662(5) 0.42238(11) 0.34574(19)
O6 O 0.9938(6) 0.75740(11) 0.2113(2)
H4 H 0.9558 0.9294 0.2130
H7 H 0.9679 0.5821 0.2902
H8 H 0.9254 0.6627 0.2307
O1_2 O 0.2870(5) 0.04098(9) 0.08316(16)
O3_2 O 0.7358(5) 0.05616(9) 0.01998(15)
O4 O 0.8534(5) 0.01183(9) 0.12738(16)
O5_2 O 0.3145(5) 0.31304(10) 0.15533(19)
N2_2 N 0.6570(6) 0.28447(11) 0.2224(2)
C1_2 C 0.5722(7) 0.39310(15) 0.3541(2)
H1_2 H 0.4654 0.4033 0.3885
C2_2 C 0.5277(7) 0.34804(15) 0.3125(2)
H2_2 H 0.3934 0.3280 0.3192
C3_2 C 0.6856(7) 0.33331(14) 0.2611(2)
C4_2 C 0.8780(7) 0.36450(15) 0.2497(3)
H3_2 H 0.9816 0.3562 0.2133
C5_2 C 0.9129(7) 0.40847(14) 0.2937(2)
C6_2 C 0.4545(7) 0.27753(14) 0.1699(2)
C7_2 C 0.4263(7) 0.22632(13) 0.1326(2)
C8_2 C 0.5917(6) 0.18654(13) 0.1535(2)
C9_2 C 0.7912(7) 0.19565(14) 0.2085(2)
C10_2 C 0.8326(7) 0.24703(15) 0.2436(3)
C11_2 C 0.2361(7) 0.21831(14) 0.0785(2)
H5_2 H 0.1296 0.2451 0.0645
C12_2 C 0.2009(7) 0.16982(13) 0.0440(2)
H6_2 H 0.0716 0.1648 0.0068
C13_2 C 0.3552(6) 0.12939(13) 0.0644(2)
C14_2 C 0.5615(6) 0.13706(13) 0.1181(2)
C15_2 C 0.7403(6) 0.09885(13) 0.1385(2)
C16_2 C 0.9232(7) 0.10826(14) 0.1948(2)
C17_2 C 0.9498(7) 0.15699(15) 0.2308(3)
C18_2 C 0.2703(6) 0.07693(13) 0.0350(2)
C19_2 C 0.7699(6) 0.05090(13) 0.0916(2)
O2_2 O 0.1701(5) 0.07555(9) 0.96761(16)
Zn4 Zn 0.89206(7) 0.026774(13) 0.92807(2)
O8_2 O 0.2642(5) 0.94384(9) 0.98002(15)
O7_2 O 0.8299(5) 0.92445(9) 0.03239(16)
O6_2 O 0.0062(6) 0.24260(11) 0.7887(2)
H4_2 H 0.0442 0.0706 0.7870
H7_2 H 0.0321 0.4179 0.7098
H8_2 H 0.0746 0.3373 0.7693
O1_3 O 0.2870(5) 0.45902(9) 0.58316(16)
O4_2 O 0.8534(5) 0.48817(9) 0.62738(16)
O5_3 O 0.3145(5) 0.18696(10) 0.65533(19)
N1_2 N 0.7662(5) 0.07762(11) 0.84574(19)
N2_3 N 0.6570(6) 0.21553(11) 0.7224(2)
C1_3 C 0.5722(7) 0.10690(15) 0.8541(2)
H1_3 H 0.4654 0.0967 0.8885
C2_3 C 0.5277(7) 0.15196(15) 0.8125(2)
H2_3 H 0.3934 0.1720 0.8192
C3_3 C 0.6856(7) 0.16669(14) 0.7611(2)
C4_3 C 0.8780(7) 0.13550(15) 0.7497(3)
H3_3 H 0.9816 0.1438 0.7133
C5_3 C 0.9129(7) 0.09153(14) 0.7937(2)
C6_3 C 0.4545(7) 0.22247(14) 0.6699(2)
C7_3 C 0.4263(7) 0.27368(13) 0.6326(2)
C8_3 C 0.5917(6) 0.31346(13) 0.6535(2)
C9_3 C 0.7912(7) 0.30435(14) 0.7085(2)
C10_3 C 0.8326(7) 0.25297(15) 0.7436(3)
C11_3 C 0.2361(7) 0.28169(14) 0.5785(2)
H5_3 H 0.1296 0.2549 0.5645
C12_3 C 0.2009(7) 0.33018(13) 0.5440(2)
H6_3 H 0.0716 0.3352 0.5068
C13_3 C 0.3552(6) 0.37061(13) 0.5644(2)
C14_3 C 0.5615(6) 0.36294(13) 0.6181(2)
C15_3 C 0.7403(6) 0.40115(13) 0.6385(2)
C16_3 C 0.9232(7) 0.39174(14) 0.6948(2)
C17_3 C 0.9498(7) 0.34301(15) 0.7308(3)
C18_3 C 0.2703(6) 0.42307(13) 0.5350(2)
C19_3 C 0.7699(6) 0.44910(13) 0.5916(2)
N3_2 N 0.2338(5) 0.57762(11) 0.65426(19)
O9_2 O 0.1466(5) 0.98817(9) 0.87262(16)
O1_4 O 0.7130(5) 0.95902(9) 0.91684(16)
O5_4 O 0.6855(5) 0.68696(10) 0.84467(19)
N2_4 N 0.3430(6) 0.71553(11) 0.7776(2)
C1_4 C 0.4278(7) 0.60690(15) 0.6459(2)
H1_4 H 0.5346 0.5967 0.6115
C2_4 C 0.4723(7) 0.65196(15) 0.6875(2)
H2_4 H 0.6066 0.6720 0.6808
C3_4 C 0.3144(7) 0.66669(14) 0.7389(2)
C4_4 C 0.1220(7) 0.63550(15) 0.7503(3)
H3_4 H 0.0184 0.6438 0.7867
C5_4 C 0.0871(7) 0.59153(14) 0.7063(2)
C6_4 C 0.5455(7) 0.72247(14) 0.8301(2)
C7_4 C 0.5737(7) 0.77368(13) 0.8674(2)
C8_4 C 0.4083(6) 0.81346(13) 0.8465(2)
C9_4 C 0.2088(7) 0.80435(14) 0.7915(2)
C10_4 C 0.1674(7) 0.75297(15) 0.7564(3)
C11_4 C 0.7639(7) 0.78169(14) 0.9215(2)
H5_4 H 0.8704 0.7549 0.9355
C12_4 C 0.7991(7) 0.83018(13) 0.9560(2)
H6_4 H 0.9284 0.8352 0.9932
C13_4 C 0.6448(6) 0.87061(13) 0.9356(2)
C14_4 C 0.4385(6) 0.86294(13) 0.8819(2)
C15_4 C 0.2597(6) 0.90115(13) 0.8615(2)
C16_4 C 0.0768(7) 0.89174(14) 0.8052(2)
C17_4 C 0.0502(7) 0.84301(15) 0.7692(3)
C18_4 C 0.7297(6) 0.92307(13) 0.9650(2)
C19_4 C 0.2301(6) 0.94910(13) 0.9084(2)
O6_3 O 0.0062(6) 0.25740(11) 0.2887(2)
H4_3 H 0.0442 0.4294 0.2870
H7_3 H 0.0321 0.0821 0.2098
H8_3 H 0.0746 0.1627 0.2693
O6_4 O 0.9938(6) 0.74260(11) 0.7113(2)
H4_4 H 0.9558 0.5706 0.7130
H7_4 H 0.9679 0.9179 0.7902
H8_4 H 0.9254 0.8373 0.7307
loop_
_geom_bond_atom_site_label_1
_geom_bond_atom_site_label_2
_geom_bond_site_symmetry_1
_geom_bond_site_symmetry_2
Zn1 O1 1_555 1_555
O1 C18 1_555 1_555
O2 C18 1_555 1_555
O3 C19 1_555 1_555
O9 C19 1_555 1_555
O5 C6 1_555 1_555
N1 C1 1_555 1_555
N2 C3 1_555 1_555
C1 H1 1_555 1_555
C2 C1 1_555 1_555
H2 C2 1_555 1_555
C3 C2 1_555 1_555
C4 C3 1_555 1_555
H3 C4 1_555 1_555
C5 N1 1_555 1_555
C6 N2 1_555 1_555
C7 C6 1_555 1_555
C8 C7 1_555 1_555
C9 C8 1_555 1_555
C10 N2 1_555 1_555
C11 C7 1_555 1_555
H5 C11 1_555 1_555
C12 C11 1_555 1_555
H6 C12 1_555 1_555
C13 C12 1_555 1_555
C14 C8 1_555 1_555
C15 C14 1_555 1_555
C16 C15 1_555 1_555
C17 C9 1_555 1_555
C18 C13 1_555 1_555
C19 C15 1_555 1_555
Zn3 N1 1_555 1_555
Zn5 O3 1_555 1_555
O8 Zn1 1_555 1_555
N3 Zn1 1_555 1_555
C4 C5 1_555 1_555
C9 C10 1_555 1_555
C13 C14 1_555 1_555
C16 C17 1_555 1_555
O1_2 C18_2 1_555 1_555
O3_2 C19_2 1_555 1_555
O4 C19_2 1_555 1_555
O5_2 C6_2 1_555 1_555
N3 C1_2 1_555 1_555
N2_2 C3_2 1_555 1_555
C1_2 H1_2 1_555 1_555
C2_2 C1_2 1_555 1_555
H2_2 C2_2 1_555 1_555
C3_2 C2_2 1_555 1_555
C4_2 C3_2 1_555 1_555
H3_2 C4_2 1_555 1_555
C5_2 N3 1_555 1_555
C6_2 N2_2 1_555 1_555
C7_2 C6_2 1_555 1_555
C8_2 C7_2 1_555 1_555
C9_2 C8_2 1_555 1_555
C10_2 N2_2 1_555 1_555
C11_2 C7_2 1_555 1_555
H5_2 C11_2 1_555 1_555
C12_2 C11_2 1_555 1_555
H6_2 C12_2 1_555 1_555
C13_2 C12_2 1_555 1_555
C14_2 C8_2 1_555 1_555
C15_2 C14_2 1_555 1_555
C16_2 C15_2 1_555 1_555
C17_2 C9_2 1_555 1_555
C18_2 C13_2 1_555 1_555
C19_2 C15_2 1_555 1_555
C4_2 C5_2 1_555 1_555
C9_2 C10_2 1_555 1_555
C13_2 C14_2 1_555 1_555
C16_2 C17_2 1_555 1_555
Zn5 O1_3 1_555 1_555
O1_3 C18_3 1_555 1_555
O7 C18_3 1_555 1_555
O8 C19_3 1_555 1_555
O4_2 C19_3 1_555 1_555
O5_3 C6_3 1_555 1_555
N1_2 C1_3 1_555 1_555
N2_3 C3_3 1_555 1_555
C1_3 H1_3 1_555 1_555
C2_3 C1_3 1_555 1_555
H2_3 C2_3 1_555 1_555
C3_3 C2_3 1_555 1_555
C4_3 C3_3 1_555 1_555
H3_3 C4_3 1_555 1_555
C5_3 N1_2 1_555 1_555
C6_3 N2_3 1_555 1_555
C7_3 C6_3 1_555 1_555
C8_3 C7_3 1_555 1_555
C9_3 C8_3 1_555 1_555
C10_3 N2_3 1_555 1_555
C11_3 C7_3 1_555 1_555
H5_3 C11_3 1_555 1_555
C12_3 C11_3 1_555 1_555
H6_3 C12_3 1_555 1_555
C13_3 C12_3 1_555 1_555
C14_3 C8_3 1_555 1_555
C15_3 C14_3 1_555 1_555
C16_3 C15_3 1_555 1_555
C17_3 C9_3 1_555 1_555
C18_3 C13_3 1_555 1_555
C19_3 C15_3 1_555 1_555
Zn4 N1_2 1_555 1_555
N3_2 Zn5 1_555 1_555
C4_3 C5_3 1_555 1_555
C9_3 C10_3 1_555 1_555
C13_3 C14_3 1_555 1_555
C16_3 C17_3 1_555 1_555
O1_4 C18_4 1_555 1_555
O8_2 C19_4 1_555 1_555
O9_2 C19_4 1_555 1_555
O5_4 C6_4 1_555 1_555
N3_2 C1_4 1_555 1_555
N2_4 C3_4 1_555 1_555
C1_4 H1_4 1_555 1_555
C2_4 C1_4 1_555 1_555
H2_4 C2_4 1_555 1_555
C3_4 C2_4 1_555 1_555
C4_4 C3_4 1_555 1_555
H3_4 C4_4 1_555 1_555
C5_4 N3_2 1_555 1_555
C6_4 N2_4 1_555 1_555
C7_4 C6_4 1_555 1_555
C8_4 C7_4 1_555 1_555
C9_4 C8_4 1_555 1_555
C10_4 N2_4 1_555 1_555
C11_4 C7_4 1_555 1_555
H5_4 C11_4 1_555 1_555
C12_4 C11_4 1_555 1_555
H6_4 C12_4 1_555 1_555
C13_4 C12_4 1_555 1_555
C14_4 C8_4 1_555 1_555
C15_4 C14_4 1_555 1_555
C16_4 C15_4 1_555 1_555
C17_4 C9_4 1_555 1_555
C18_4 C13_4 1_555 1_555
C19_4 C15_4 1_555 1_555
C4_4 C5_4 1_555 1_555
C9_4 C10_4 1_555 1_555
C13_4 C14_4 1_555 1_555
C16_4 C17_4 1_555 1_555

#END
