
###############################################################################
#
# This file contains modified crystal structure data generated from the
# MOF subset of the Cambridge Structural Database (CSD) v543 
# hosted by the Cambridge Crystallographic Data Centre (CCDC).
#
# This work is licensed under the Creative Commons
# Attribution-NonCommercial-ShareAlike 4.0 International License.
# To view a copy of this license, visit
# http://creativecommons.org/licenses/by-nc-sa/4.0/
# or send a letter to
# Creative Commons, PO Box 1866, Mountain View, CA 94042, USA.
#
# CIF created using the CSD Python API on 29 September 2022
# The structure has been converted into the P1 space group
# The structure has a 3D framework
# The original CSD entry XEYMAR is in the monoclinic crystal system
# The framework has been calculated to contain at least 10.0% void space
# The void calculation uses a probe of radius 1.32A, grid spacing 0.4
# H atom positions have been added when not included in the experimental data
#
###############################################################################

data_XEYMAR
_chemical_formula_moiety         '(C108 H108 Cu16 I16 Mn6 N20 O44)n'
_symmetry_cell_setting           triclinic
_symmetry_space_group_name_H-M   'P 1'
_symmetry_Int_Tables_number      1
_space_group_name_Hall           'P 1'
loop_
_symmetry_equiv_pos_site_id
_symmetry_equiv_pos_as_xyz
1 x,y,z
_cell_length_a                   18.0043(8)
_cell_length_b                   21.1164(9)
_cell_length_c                   18.1594(14)
_cell_angle_alpha                90
_cell_angle_beta                 93.344(5)
_cell_angle_gamma                90
_cell_volume                     6892.19
loop_
_atom_site_label
_atom_site_type_symbol
_atom_site_fract_x
_atom_site_fract_y
_atom_site_fract_z
Mn2 Mn 0.34604(9) 0.31497(9) 0.64740(12)
N5 N 0.5605(11) 0.2702(11) 0.7463(12)
O1 O 0.3615(5) 0.2148(5) 0.6068(7)
H1 H 0.3763 0.2157 0.5649
O2 O 0.3097(6) 0.2705(5) 0.7517(6)
H2 H 0.2989 0.2983 0.7807
O3 O 0.4597(4) 0.3177(5) 0.6906(6)
O4 O 0.2374(4) 0.3077(5) 0.5989(6)
O10 O 0.2103(4) 0.3838(5) 0.5169(6)
C1 C 0.5896(19) 0.2307(17) 0.796(2)
H3 H 0.5506 0.2111 0.8217
H4 H 0.6222 0.2533 0.8303
H5 H 0.6173 0.1986 0.7719
C2 C 0.6065(15) 0.3200(14) 0.7212(18)
H6 H 0.5808 0.3416 0.6808
H7 H 0.6520 0.3025 0.7052
H8 H 0.6174 0.3493 0.7607
C3 C 0.4885(15) 0.2796(11) 0.7265(15)
C5 C 0.0749(8) 0.3212(8) 0.4790(10)
H10 H 0.0894 0.3536 0.4483
C7 C 0.0052(7) 0.2927(8) 0.4668(10)
C12 C 0.0291(8) 0.2261(7) 0.5567(9)
H16 H 0.0151 0.1918 0.5850
C22 C 0.0988(7) 0.2518(6) 0.5726(8)
H22 H 0.1304 0.2344 0.6095
C24 C 0.1976(6) 0.3350(8) 0.5496(9)
C27 C 0.1203(6) 0.3016(7) 0.5348(8)
Mn5 Mn 0.30523(8) 0.43726(8) 0.51426(10)
O13 O 0.3244(5) 0.4060(5) 0.6929(6)
O16 O 0.3811(4) 0.3572(4) 0.5434(5)
H25 H 0.450957 0.244856 0.748479
H26 H 0.313273 0.191942 0.606282
H27 H 0.350844 0.244333 0.774226
I1 I 0.80872(4) 0.26045(4) 0.37244(5)
I2 I 0.81538(5) 0.24517(4) 0.61466(5)
I3 I 0.90610(4) 0.08198(4) 0.49038(5)
I4 I 0.66760(5) 0.11056(5) 0.47037(6)
Cu1 Cu 0.73132(8) 0.23000(8) 0.48801(11)
Cu2 Cu 0.79499(8) 0.13660(8) 0.40871(9)
Cu3 Cu 0.79197(9) 0.12981(8) 0.55948(10)
Cu4 Cu 0.88018(7) 0.20922(7) 0.49051(9)
N1 N 0.9825(6) 0.2459(5) 0.5061(7)
N2 N 0.7841(6) 0.0891(6) 0.3130(7)
N3 N 0.7672(6) 0.0749(5) 0.6473(7)
N4 N 0.6376(6) 0.2845(7) 0.5001(7)
O8 O 0.4317(4) 0.4424(5) 0.5015(6)
O9 O 0.7286(5) 0.0183(4) 0.0526(6)
C4 C 0.7603(10) 0.0292(9) 0.3134(9)
H9 H 0.7571 0.0089 0.3585
C6 C 0.5758(9) 0.2583(8) 0.5128(13)
H11 H 0.5755 0.2143 0.5151
H12 H 0.9734 0.3080 0.4287
C9 C 0.7715(8) 0.0841(7) 0.1816(8)
H14 H 0.7773 0.1046 0.1370
C10 C 0.4371(7) 0.3851(8) 0.5235(8)
C11 C 0.6369(7) 0.3473(8) 0.4951(9)
H15 H 0.6813 0.3679 0.4870
C14 C 0.7512(10) 0.0157(8) 0.6395(8)
C15 C 0.7622(9) 0.1001(8) 0.7129(9)
H18 H 0.7747 0.1424 0.7206
C16 C 0.7379(8) 0.0631(7) 0.7722(8)
H19 H 0.7319 0.0817 0.8179
C19 C 0.7455(7) 0.0232(7) 0.1817(8)
C20 C 0.7235(7) 0.0008(7) 0.7621(8)
C21 C 0.5747(7) 0.3829(7) 0.5012(8)
H21 H 0.5766 0.4268 0.4967
C23 C 0.5097(7) 0.2883(8) 0.5233(10)
H23 H 0.4675 0.2663 0.5359
C25 C 0.7891(8) 0.1156(7) 0.2469(9)
H24 H 0.8052 0.1573 0.2446
C26 C 0.5096(6) 0.3532(7) 0.5140(8)
O5 O 0.7014(5) 0.9850(4) 0.8862(6)
O6 O 0.7048(5) 0.9325(5) 0.1137(5)
O7 O 0.6756(5) 0.9060(5) 0.8071(6)
C8 C 0.7400(9) 0.9960(6) 0.2496(10)
H13 H 0.7225 0.9548 0.2529
C13 C 0.6971(7) 0.9592(8) 0.8245(9)
H17 H 0.7545 0.9980 0.5929
C17 C 0.7246(7) 0.9894(8) 0.1102(10)
C18 C 0.7295(8) 0.9768(7) 0.6949(8)
H20 H 0.7192 0.9343 0.6856
Mn3 Mn 0.69477(8) 0.93726(8) 0.98574(10)
Mn7 Mn 0.65396(9) 0.81497(9) 0.85260(12)
O14 O 0.5683(4) 0.9424(5) 0.9985(6)
O15 O 0.7897(4) 0.8838(5) 0.9831(6)
O17 O 0.6189(4) 0.8572(4) 0.9566(5)
I1_2 I 0.19128(4) 0.76045(4) 0.12756(5)
I3_2 I 0.09390(4) 0.58198(4) 0.00962(5)
I4_2 I 0.33240(5) 0.61056(5) 0.02963(6)
Cu1_2 Cu 0.26868(8) 0.73000(8) 0.01199(11)
Cu2_2 Cu 0.20501(8) 0.63660(8) 0.09129(9)
Cu4_2 Cu 0.11982(7) 0.70922(7) 0.00949(9)
N2_2 N 0.2159(6) 0.5891(6) 0.1870(7)
O6_2 O 0.2952(5) 0.4325(5) 0.3863(5)
O9_2 O 0.2714(5) 0.5183(4) 0.4474(6)
C4_2 C 0.2397(10) 0.5292(9) 0.1866(9)
H9_2 H 0.2429 0.5089 0.1415
H12_2 H 0.0266 0.8080 0.0713
C8_2 C 0.2600(9) 0.4960(6) 0.2504(10)
H13_2 H 0.2775 0.4548 0.2471
C9_2 C 0.2285(8) 0.5841(7) 0.3184(8)
H14_2 H 0.2227 0.6046 0.3630
C11_2 C 0.3631(7) 0.8473(8) 0.0049(9)
H15_2 H 0.3187 0.8679 0.0130
C17_2 C 0.2754(7) 0.4894(8) 0.3898(10)
C19_2 C 0.2545(7) 0.5232(7) 0.3183(8)
H21_2 H 0.4234 0.9268 0.0033
C25_2 C 0.2109(8) 0.6156(7) 0.2531(9)
H24_2 H 0.1948 0.6573 0.2554
O12 O 0.2986(5) 0.4850(4) 0.6138(6)
I2_2 I 0.18462(5) 0.74517(4) 0.88534(5)
Cu3_2 Cu 0.20803(9) 0.62981(8) 0.94052(10)
N1_2 N 0.0175(6) 0.7459(5) 0.9939(7)
N3_2 N 0.2328(6) 0.5749(5) 0.8527(7)
N4_2 N 0.3624(6) 0.7845(7) 0.9999(7)
C6_2 C 0.4242(9) 0.7583(8) 0.9872(13)
H11_2 H 0.4245 0.7143 0.9849
C10_2 C 0.5629(7) 0.8851(8) 0.9765(8)
C13_2 C 0.3029(7) 0.4592(8) 0.6755(9)
C14_2 C 0.2488(10) 0.5157(8) 0.8605(8)
H17_2 H 0.2455 0.4980 0.9071
C15_2 C 0.2378(9) 0.6001(8) 0.7871(9)
H18_2 H 0.2253 0.6424 0.7794
C16_2 C 0.2621(8) 0.5631(7) 0.7278(8)
H19_2 H 0.2681 0.5817 0.6821
C18_2 C 0.2705(8) 0.4768(7) 0.8051(8)
H20_2 H 0.2808 0.4343 0.8144
C20_2 C 0.2765(7) 0.5008(7) 0.7379(8)
C21_2 C 0.4253(7) 0.8829(7) 0.9988(8)
C23_2 C 0.4903(7) 0.7883(8) 0.9767(10)
H23_2 H 0.5325 0.7663 0.9641
C26_2 C 0.4904(6) 0.8532(7) 0.9860(8)
N5_2 N 0.4395(11) 0.7702(11) 0.7537(12)
O1_2 O 0.6385(5) 0.7148(5) 0.8932(7)
H1_2 H 0.6237 0.7157 0.9351
O2_2 O 0.6903(6) 0.7705(5) 0.7483(6)
H2_2 H 0.7011 0.7983 0.7193
O3_2 O 0.5403(4) 0.8177(5) 0.8094(6)
O4_2 O 0.7626(4) 0.8077(5) 0.9011(6)
C1_2 C 0.4104(19) 0.7307(17) 0.704(2)
H3_2 H 0.4494 0.7111 0.6783
H4_2 H 0.3778 0.7533 0.6697
H5_2 H 0.3827 0.6986 0.7281
C2_2 C 0.3935(15) 0.8200(14) 0.7788(18)
H6_2 H 0.4192 0.8416 0.8192
H7_2 H 0.3480 0.8025 0.7948
H8_2 H 0.3826 0.8493 0.7393
C3_2 C 0.5115(15) 0.7796(11) 0.7735(15)
C12_2 C 0.9709(8) 0.7261(7) 0.9433(9)
H16_2 H 0.9849 0.6918 0.9150
C22_2 C 0.9012(7) 0.7518(6) 0.9274(8)
H22_2 H 0.8696 0.7344 0.8905
C24_2 C 0.8024(6) 0.8350(8) 0.9504(9)
C27_2 C 0.8797(6) 0.8016(7) 0.9652(8)
H25_2 H 0.549043 0.744856 0.751521
H26_2 H 0.686727 0.691942 0.893718
H27_2 H 0.649156 0.744333 0.725774
C5_2 C 0.9251(8) 0.8212(8) 0.0210(10)
H10_2 H 0.9106 0.8536 0.0517
C7_2 C 0.9948(7) 0.7927(8) 0.0332(10)
Mn1 Mn 0.30523(8) 0.06274(8) 0.01426(10)
O12_2 O 0.2986(5) 0.0150(4) 0.1138(6)
O14_2 O 0.4317(4) 0.0576(5) 0.0015(6)
O15_2 O 0.2103(4) 0.1162(5) 0.0169(6)
O17_2 O 0.3811(4) 0.1428(4) 0.0434(5)
O6_3 O 0.2952(5) 0.0675(5) 0.8863(5)
O7_2 O 0.3244(5) 0.0940(5) 0.1929(6)
C8_3 C 0.2600(9) 0.0040(6) 0.7504(10)
H13_3 H 0.2775 0.0452 0.7471
C13_3 C 0.3029(7) 0.0408(8) 0.1755(9)
H17_3 H 0.2455 0.0020 0.4071
C17_3 C 0.2754(7) 0.0106(8) 0.8898(10)
C18_3 C 0.2705(8) 0.0232(7) 0.3051(8)
H20_3 H 0.2808 0.0657 0.3144
Mn7_2 Mn 0.34604(9) 0.18503(9) 0.14740(12)
I1_3 I 0.19128(4) 0.73955(4) 0.62756(5)
I2_3 I 0.18462(5) 0.75483(4) 0.38534(5)
I3_3 I 0.09390(4) 0.91802(4) 0.50962(5)
I4_3 I 0.33240(5) 0.88944(5) 0.52963(6)
Cu1_3 Cu 0.26868(8) 0.77000(8) 0.51199(11)
Cu2_3 Cu 0.20501(8) 0.86340(8) 0.59129(9)
Cu3_3 Cu 0.20803(9) 0.87019(8) 0.44052(10)
Cu4_3 Cu 0.11982(7) 0.79078(7) 0.50949(9)
N1_3 N 0.0175(6) 0.7541(5) 0.4939(7)
N2_3 N 0.2159(6) 0.9109(6) 0.6870(7)
N3_3 N 0.2328(6) 0.9251(5) 0.3527(7)
N4_3 N 0.3624(6) 0.7155(7) 0.4999(7)
O8_2 O 0.5683(4) 0.5576(5) 0.4985(6)
O9_3 O 0.2714(5) 0.9817(4) 0.9474(6)
O11 O 0.6189(4) 0.6428(4) 0.4566(5)
C4_3 C 0.2397(10) 0.9708(9) 0.6866(9)
H9_3 H 0.2429 0.9911 0.6415
C6_3 C 0.4242(9) 0.7417(8) 0.4872(13)
H11_3 H 0.4245 0.7857 0.4849
H12_3 H 0.0266 0.6920 0.5713
C9_3 C 0.2285(8) 0.9159(7) 0.8184(8)
H14_3 H 0.2227 0.8954 0.8630
C10_3 C 0.5629(7) 0.6149(8) 0.4765(8)
C11_3 C 0.3631(7) 0.6527(8) 0.5049(9)
H15_3 H 0.3187 0.6321 0.5130
C14_3 C 0.2488(10) 0.9843(8) 0.3605(8)
C15_3 C 0.2378(9) 0.8999(8) 0.2871(9)
H18_3 H 0.2253 0.8576 0.2794
C16_3 C 0.2621(8) 0.9369(7) 0.2278(8)
H19_3 H 0.2681 0.9183 0.1821
C19_3 C 0.2545(7) 0.9768(7) 0.8183(8)
C20_3 C 0.2765(7) 0.9992(7) 0.2379(8)
C21_3 C 0.4253(7) 0.6171(7) 0.4988(8)
H21_3 H 0.4234 0.5732 0.5033
C23_3 C 0.4903(7) 0.7117(8) 0.4767(10)
H23_3 H 0.5325 0.7337 0.4641
C25_3 C 0.2109(8) 0.8844(7) 0.7531(9)
H24_3 H 0.1948 0.8427 0.7554
C26_3 C 0.4904(6) 0.6468(7) 0.4860(8)
Mn4 Mn 0.69477(8) 0.56274(8) 0.48574(10)
Mn6 Mn 0.65396(9) 0.68503(9) 0.35260(12)
N5_3 N 0.4395(11) 0.7298(11) 0.2537(12)
O1_3 O 0.6385(5) 0.7852(5) 0.3932(7)
H1_3 H 0.6237 0.7843 0.4351
O2_3 O 0.6903(6) 0.7295(5) 0.2483(6)
H2_3 H 0.7011 0.7017 0.2193
O3_3 O 0.5403(4) 0.6823(5) 0.3094(6)
O4_3 O 0.7626(4) 0.6923(5) 0.4011(6)
O10_2 O 0.7897(4) 0.6162(5) 0.4831(6)
C1_3 C 0.4104(19) 0.7693(17) 0.204(2)
H3_3 H 0.4494 0.7889 0.1783
H4_3 H 0.3778 0.7467 0.1697
H5_3 H 0.3827 0.8014 0.2281
C2_3 C 0.3935(15) 0.6800(14) 0.2788(18)
H6_3 H 0.4192 0.6584 0.3192
H7_3 H 0.3480 0.6975 0.2948
H8_3 H 0.3826 0.6507 0.2393
C3_3 C 0.5115(15) 0.7204(11) 0.2735(15)
C5_3 C 0.9251(8) 0.6788(8) 0.5210(10)
H10_3 H 0.9106 0.6464 0.5517
C7_3 C 0.9948(7) 0.7073(8) 0.5332(10)
C12_3 C 0.9709(8) 0.7739(7) 0.4433(9)
H16_3 H 0.9849 0.8082 0.4150
C22_3 C 0.9012(7) 0.7482(6) 0.4274(8)
H22_3 H 0.8696 0.7656 0.3905
C24_3 C 0.8024(6) 0.6650(8) 0.4504(9)
C27_3 C 0.8797(6) 0.6984(7) 0.4652(8)
O13_2 O 0.6756(5) 0.5940(5) 0.3071(6)
H25_3 H 0.549043 0.755144 0.251521
H26_3 H 0.686727 0.808058 0.393718
H27_3 H 0.649156 0.755667 0.225774
N5_4 N 0.5605(11) 0.2298(11) 0.2463(12)
O1_4 O 0.3615(5) 0.2852(5) 0.1068(7)
H1_4 H 0.3763 0.2843 0.0649
O2_4 O 0.3097(6) 0.2295(5) 0.2517(6)
H2_4 H 0.2989 0.2017 0.2807
O3_4 O 0.4597(4) 0.1823(5) 0.1906(6)
O4_4 O 0.2374(4) 0.1923(5) 0.0989(6)
C1_4 C 0.5896(19) 0.2693(17) 0.296(2)
H3_4 H 0.5506 0.2889 0.3217
H4_4 H 0.6222 0.2467 0.3303
H5_4 H 0.6173 0.3014 0.2719
C2_4 C 0.6065(15) 0.1800(14) 0.2212(18)
H6_4 H 0.5808 0.1584 0.1808
H7_4 H 0.6520 0.1975 0.2052
H8_4 H 0.6174 0.1507 0.2607
C3_4 C 0.4885(15) 0.2204(11) 0.2265(15)
C12_4 C 0.0291(8) 0.2739(7) 0.0567(9)
H16_4 H 0.0151 0.3082 0.0850
C22_4 C 0.0988(7) 0.2482(6) 0.0726(8)
H22_4 H 0.1304 0.2656 0.1095
C24_4 C 0.1976(6) 0.1650(8) 0.0496(9)
C27_4 C 0.1203(6) 0.1984(7) 0.0348(8)
H25_4 H 0.450957 0.255144 0.248479
H26_4 H 0.313273 0.308058 0.106282
H27_4 H 0.350844 0.255667 0.274226
I2_4 I 0.81538(5) 0.25483(4) 0.11466(5)
Cu3_4 Cu 0.79197(9) 0.37019(8) 0.05948(10)
N1_4 N 0.9825(6) 0.2541(5) 0.0061(7)
N3_4 N 0.7672(6) 0.4251(5) 0.1473(7)
N4_4 N 0.6376(6) 0.2155(7) 0.0001(7)
O5_2 O 0.7014(5) 0.5150(4) 0.3862(6)
C6_4 C 0.5758(9) 0.2417(8) 0.0128(13)
H11_4 H 0.5755 0.2857 0.0151
C10_4 C 0.4371(7) 0.1149(8) 0.0235(8)
C13_4 C 0.6971(7) 0.5408(8) 0.3245(9)
C14_4 C 0.7512(10) 0.4843(8) 0.1395(8)
H17_4 H 0.7545 0.5020 0.0929
C15_4 C 0.7622(9) 0.3999(8) 0.2129(9)
H18_4 H 0.7747 0.3576 0.2206
C16_4 C 0.7379(8) 0.4369(7) 0.2722(8)
H19_4 H 0.7319 0.4183 0.3179
C18_4 C 0.7295(8) 0.5232(7) 0.1949(8)
H20_4 H 0.7192 0.5657 0.1856
C20_4 C 0.7235(7) 0.4992(7) 0.2621(8)
C21_4 C 0.5747(7) 0.1171(7) 0.0012(8)
C23_4 C 0.5097(7) 0.2117(8) 0.0233(10)
H23_4 H 0.4675 0.2337 0.0359
C26_4 C 0.5096(6) 0.1468(7) 0.0140(8)
I1_4 I 0.80872(4) 0.23955(4) 0.87244(5)
I3_4 I 0.90610(4) 0.41802(4) 0.99038(5)
I4_4 I 0.66760(5) 0.38944(5) 0.97037(6)
Cu1_4 Cu 0.73132(8) 0.27000(8) 0.98801(11)
Cu2_4 Cu 0.79499(8) 0.36340(8) 0.90871(9)
Cu4_4 Cu 0.88018(7) 0.29078(7) 0.99051(9)
N2_4 N 0.7841(6) 0.4109(6) 0.8130(7)
O6_4 O 0.7048(5) 0.5675(5) 0.6137(5)
O9_4 O 0.7286(5) 0.4817(4) 0.5526(6)
C4_4 C 0.7603(10) 0.4708(9) 0.8134(9)
H9_4 H 0.7571 0.4911 0.8585
H12_4 H 0.9734 0.1920 0.9287
C8_4 C 0.7400(9) 0.5040(6) 0.7496(10)
H13_4 H 0.7225 0.5452 0.7529
C9_4 C 0.7715(8) 0.4159(7) 0.6816(8)
H14_4 H 0.7773 0.3954 0.6370
C11_4 C 0.6369(7) 0.1527(8) 0.9951(9)
H15_4 H 0.6813 0.1321 0.9870
C17_4 C 0.7246(7) 0.5106(8) 0.6102(10)
C19_4 C 0.7455(7) 0.4768(7) 0.6817(8)
H21_4 H 0.5766 0.0732 0.9967
C25_4 C 0.7891(8) 0.3844(7) 0.7469(9)
H24_4 H 0.8052 0.3427 0.7446
C5_4 C 0.0749(8) 0.1788(8) 0.9790(10)
H10_4 H 0.0894 0.1464 0.9483
C7_4 C 0.0052(7) 0.2073(8) 0.9668(10)
loop_
_geom_bond_atom_site_label_1
_geom_bond_atom_site_label_2
_geom_bond_site_symmetry_1
_geom_bond_site_symmetry_2
Mn2 O1 1_555 1_555
N5 C1 1_555 1_555
O1 H1 1_555 1_555
O2 Mn2 1_555 1_555
H2 O2 1_555 1_555
O3 Mn2 1_555 1_555
O4 Mn2 1_555 1_555
O10 C24 1_555 1_555
C1 H3 1_555 1_555
H4 C1 1_555 1_555
H5 C1 1_555 1_555
C2 N5 1_555 1_555
H6 C2 1_555 1_555
H7 C2 1_555 1_555
H8 C2 1_555 1_555
C3 N5 1_555 1_555
C5 H10 1_555 1_555
H16 C12 1_555 1_555
C22 C12 1_555 1_555
H22 C22 1_555 1_555
C24 O4 1_555 1_555
C27 C5 1_555 1_555
Mn5 O10 1_555 1_555
O13 Mn2 1_555 1_555
O16 Mn2 1_555 1_555
O3 C3 1_555 1_555
C5 C7 1_555 1_555
C22 C27 1_555 1_555
C24 C27 1_555 1_555
Mn5 O16 1_555 1_555
C3 H25 1_555 1_555
O1 H26 1_555 1_555
O2 H27 1_555 1_555
I1 Cu1 1_555 1_555
I2 Cu1 1_555 1_555
I3 Cu2 1_555 1_555
I4 Cu1 1_555 1_555
Cu1 Cu2 1_555 1_555
Cu2 I1 1_555 1_555
Cu3 I2 1_555 1_555
Cu4 I1 1_555 1_555
N1 Cu4 1_555 1_555
N2 Cu2 1_555 1_555
N3 Cu3 1_555 1_555
N4 Cu1 1_555 1_555
O8 C10 1_555 1_555
O16 C10 1_555 1_555
C4 N2 1_555 1_555
H9 C4 1_555 1_555
C6 N4 1_555 1_555
H11 C6 1_555 1_555
C9 H14 1_555 1_555
C10 C26 1_555 1_555
C11 N4 1_555 1_555
H15 C11 1_555 1_555
C14 N3 1_555 1_555
C15 N3 1_555 1_555
H18 C15 1_555 1_555
C16 C15 1_555 1_555
H19 C16 1_555 1_555
C20 C16 1_555 1_555
C21 C11 1_555 1_555
H21 C21 1_555 1_555
C23 C6 1_555 1_555
H23 C23 1_555 1_555
C25 N2 1_555 1_555
H24 C25 1_555 1_555
C26 C21 1_555 1_555
Mn5 O8 1_555 1_555
I2 Cu4 1_555 1_555
I3 Cu3 1_555 1_555
I3 Cu4 1_555 1_555
I4 Cu2 1_555 1_555
I4 Cu3 1_555 1_555
Cu1 Cu3 1_555 1_555
Cu1 Cu4 1_555 1_555
Cu2 Cu3 1_555 1_555
Cu2 Cu4 1_555 1_555
Cu3 Cu4 1_555 1_555
C9 C19 1_555 1_555
C9 C25 1_555 1_555
C23 C26 1_555 1_555
O5 C13 1_555 1_555
O6 C17 1_555 1_555
O7 C13 1_555 1_555
H13 C8 1_555 1_555
H20 C18 1_555 1_555
Mn3 O5 1_555 1_555
Mn7 O7 1_555 1_555
O14 Mn3 1_555 1_555
O15 Mn3 1_555 1_555
O17 Mn3 1_555 1_555
I1_2 Cu1_2 1_555 1_555
I3_2 Cu2_2 1_555 1_555
I4_2 Cu1_2 1_555 1_555
Cu1_2 Cu2_2 1_555 1_555
Cu2_2 I1_2 1_555 1_555
Cu4_2 I1_2 1_555 1_555
Mn5 O6_2 1_555 1_555
N2_2 Cu2_2 1_555 1_555
O6_2 C17_2 1_555 1_555
O9_2 Mn5 1_555 1_555
C4_2 N2_2 1_555 1_555
H9_2 C4_2 1_555 1_555
C8_2 C4_2 1_555 1_555
H13_2 C8_2 1_555 1_555
C9_2 H14_2 1_555 1_555
H15_2 C11_2 1_555 1_555
C17_2 O9_2 1_555 1_555
C19_2 C8_2 1_555 1_555
C25_2 N2_2 1_555 1_555
H24_2 C25_2 1_555 1_555
O12 Mn5 1_555 1_555
I3_2 Cu4_2 1_555 1_555
I4_2 Cu2_2 1_555 1_555
Cu1_2 Cu4_2 1_555 1_555
Cu2_2 Cu4_2 1_555 1_555
C9_2 C19_2 1_555 1_555
C9_2 C25_2 1_555 1_555
C17_2 C19_2 1_555 1_555
Cu3_2 I2_2 1_555 1_555
N3_2 Cu3_2 1_555 1_555
O12 C13_2 1_555 1_555
O13 C13_2 1_555 1_555
O14 C10_2 1_555 1_555
O17 C10_2 1_555 1_555
C6_2 N4_2 1_555 1_555
H11_2 C6_2 1_555 1_555
C10_2 C26_2 1_555 1_555
C13_2 C20_2 1_555 1_555
C14_2 N3_2 1_555 1_555
H17_2 C14_2 1_555 1_555
C15_2 N3_2 1_555 1_555
H18_2 C15_2 1_555 1_555
C16_2 C15_2 1_555 1_555
H19_2 C16_2 1_555 1_555
C18_2 C14_2 1_555 1_555
H20_2 C18_2 1_555 1_555
C20_2 C16_2 1_555 1_555
C23_2 C6_2 1_555 1_555
H23_2 C23_2 1_555 1_555
C26_2 C21_2 1_555 1_555
Mn7 O17 1_555 1_555
C18_2 C20_2 1_555 1_555
C23_2 C26_2 1_555 1_555
Mn7 O1_2 1_555 1_555
N5_2 C1_2 1_555 1_555
O1_2 H1_2 1_555 1_555
O2_2 Mn7 1_555 1_555
H2_2 O2_2 1_555 1_555
O3_2 Mn7 1_555 1_555
O4_2 Mn7 1_555 1_555
O15 C24_2 1_555 1_555
C1_2 H3_2 1_555 1_555
H4_2 C1_2 1_555 1_555
H5_2 C1_2 1_555 1_555
C2_2 N5_2 1_555 1_555
H6_2 C2_2 1_555 1_555
H7_2 C2_2 1_555 1_555
H8_2 C2_2 1_555 1_555
C3_2 N5_2 1_555 1_555
H16_2 C12_2 1_555 1_555
C22_2 C12_2 1_555 1_555
H22_2 C22_2 1_555 1_555
C24_2 O4_2 1_555 1_555
O3_2 C3_2 1_555 1_555
C22_2 C27_2 1_555 1_555
C24_2 C27_2 1_555 1_555
C3_2 H25_2 1_555 1_555
O1_2 H26_2 1_555 1_555
O2_2 H27_2 1_555 1_555
C5_2 H10_2 1_555 1_555
C5_2 C7_2 1_555 1_555
O12_2 Mn1 1_555 1_555
O14_2 Mn1 1_555 1_555
O15_2 Mn1 1_555 1_555
O17_2 Mn1 1_555 1_555
O12_2 C13_3 1_555 1_555
O6_3 C17_3 1_555 1_555
O7_2 C13_3 1_555 1_555
H13_3 C8_3 1_555 1_555
H20_3 C18_3 1_555 1_555
Mn7_2 O7_2 1_555 1_555
I1_3 Cu1_3 1_555 1_555
I2_3 Cu1_3 1_555 1_555
I3_3 Cu2_3 1_555 1_555
I4_3 Cu1_3 1_555 1_555
Cu1_3 Cu2_3 1_555 1_555
Cu2_3 I1_3 1_555 1_555
Cu3_3 I2_3 1_555 1_555
Cu4_3 I1_3 1_555 1_555
N1_3 Cu4_3 1_555 1_555
N2_3 Cu2_3 1_555 1_555
N3_3 Cu3_3 1_555 1_555
N4_3 Cu1_3 1_555 1_555
O8_2 C10_3 1_555 1_555
O11 C10_3 1_555 1_555
C4_3 N2_3 1_555 1_555
H9_3 C4_3 1_555 1_555
C6_3 N4_3 1_555 1_555
H11_3 C6_3 1_555 1_555
C9_3 H14_3 1_555 1_555
C10_3 C26_3 1_555 1_555
C11_3 N4_3 1_555 1_555
H15_3 C11_3 1_555 1_555
C14_3 N3_3 1_555 1_555
C15_3 N3_3 1_555 1_555
H18_3 C15_3 1_555 1_555
C16_3 C15_3 1_555 1_555
H19_3 C16_3 1_555 1_555
C20_3 C16_3 1_555 1_555
C21_3 C11_3 1_555 1_555
H21_3 C21_3 1_555 1_555
C23_3 C6_3 1_555 1_555
H23_3 C23_3 1_555 1_555
C25_3 N2_3 1_555 1_555
H24_3 C25_3 1_555 1_555
C26_3 C21_3 1_555 1_555
Mn4 O8_2 1_555 1_555
Mn6 O11 1_555 1_555
I2_3 Cu4_3 1_555 1_555
I3_3 Cu3_3 1_555 1_555
I3_3 Cu4_3 1_555 1_555
I4_3 Cu2_3 1_555 1_555
I4_3 Cu3_3 1_555 1_555
Cu1_3 Cu3_3 1_555 1_555
Cu1_3 Cu4_3 1_555 1_555
Cu2_3 Cu3_3 1_555 1_555
Cu2_3 Cu4_3 1_555 1_555
Cu3_3 Cu4_3 1_555 1_555
O11 Mn4 1_555 1_555
C9_3 C19_3 1_555 1_555
C9_3 C25_3 1_555 1_555
C23_3 C26_3 1_555 1_555
Mn6 O1_3 1_555 1_555
N5_3 C1_3 1_555 1_555
O1_3 H1_3 1_555 1_555
O2_3 Mn6 1_555 1_555
H2_3 O2_3 1_555 1_555
O3_3 Mn6 1_555 1_555
O4_3 Mn6 1_555 1_555
O10_2 C24_3 1_555 1_555
C1_3 H3_3 1_555 1_555
H4_3 C1_3 1_555 1_555
H5_3 C1_3 1_555 1_555
C2_3 N5_3 1_555 1_555
H6_3 C2_3 1_555 1_555
H7_3 C2_3 1_555 1_555
H8_3 C2_3 1_555 1_555
C3_3 N5_3 1_555 1_555
C5_3 H10_3 1_555 1_555
H16_3 C12_3 1_555 1_555
C22_3 C12_3 1_555 1_555
H22_3 C22_3 1_555 1_555
C24_3 O4_3 1_555 1_555
C27_3 C5_3 1_555 1_555
Mn4 O10_2 1_555 1_555
O13_2 Mn6 1_555 1_555
O3_3 C3_3 1_555 1_555
C5_3 C7_3 1_555 1_555
C22_3 C27_3 1_555 1_555
C24_3 C27_3 1_555 1_555
C3_3 H25_3 1_555 1_555
O1_3 H26_3 1_555 1_555
O2_3 H27_3 1_555 1_555
Mn7_2 O1_4 1_555 1_555
N5_4 C1_4 1_555 1_555
O1_4 H1_4 1_555 1_555
O2_4 Mn7_2 1_555 1_555
H2_4 O2_4 1_555 1_555
O3_4 Mn7_2 1_555 1_555
O4_4 Mn7_2 1_555 1_555
O15_2 C24_4 1_555 1_555
C1_4 H3_4 1_555 1_555
H4_4 C1_4 1_555 1_555
H5_4 C1_4 1_555 1_555
C2_4 N5_4 1_555 1_555
H6_4 C2_4 1_555 1_555
H7_4 C2_4 1_555 1_555
H8_4 C2_4 1_555 1_555
C3_4 N5_4 1_555 1_555
H16_4 C12_4 1_555 1_555
C22_4 C12_4 1_555 1_555
H22_4 C22_4 1_555 1_555
C24_4 O4_4 1_555 1_555
O17_2 Mn7_2 1_555 1_555
O3_4 C3_4 1_555 1_555
C22_4 C27_4 1_555 1_555
C24_4 C27_4 1_555 1_555
C3_4 H25_4 1_555 1_555
O1_4 H26_4 1_555 1_555
O2_4 H27_4 1_555 1_555
Cu3_4 I2_4 1_555 1_555
N3_4 Cu3_4 1_555 1_555
O5_2 C13_4 1_555 1_555
O13_2 C13_4 1_555 1_555
O14_2 C10_4 1_555 1_555
O17_2 C10_4 1_555 1_555
C6_4 N4_4 1_555 1_555
H11_4 C6_4 1_555 1_555
C10_4 C26_4 1_555 1_555
C13_4 C20_4 1_555 1_555
C14_4 N3_4 1_555 1_555
H17_4 C14_4 1_555 1_555
C15_4 N3_4 1_555 1_555
H18_4 C15_4 1_555 1_555
C16_4 C15_4 1_555 1_555
H19_4 C16_4 1_555 1_555
C18_4 C14_4 1_555 1_555
H20_4 C18_4 1_555 1_555
C20_4 C16_4 1_555 1_555
C23_4 C6_4 1_555 1_555
H23_4 C23_4 1_555 1_555
C26_4 C21_4 1_555 1_555
Mn4 O5_2 1_555 1_555
C18_4 C20_4 1_555 1_555
C23_4 C26_4 1_555 1_555
I1_4 Cu1_4 1_555 1_555
I3_4 Cu2_4 1_555 1_555
I4_4 Cu1_4 1_555 1_555
Cu1_4 Cu2_4 1_555 1_555
Cu2_4 I1_4 1_555 1_555
Cu4_4 I1_4 1_555 1_555
Mn4 O6_4 1_555 1_555
N2_4 Cu2_4 1_555 1_555
O6_4 C17_4 1_555 1_555
O9_4 Mn4 1_555 1_555
C4_4 N2_4 1_555 1_555
H9_4 C4_4 1_555 1_555
C8_4 C4_4 1_555 1_555
H13_4 C8_4 1_555 1_555
C9_4 H14_4 1_555 1_555
H15_4 C11_4 1_555 1_555
C17_4 O9_4 1_555 1_555
C19_4 C8_4 1_555 1_555
C25_4 N2_4 1_555 1_555
H24_4 C25_4 1_555 1_555
I3_4 Cu4_4 1_555 1_555
I4_4 Cu2_4 1_555 1_555
Cu1_4 Cu4_4 1_555 1_555
Cu2_4 Cu4_4 1_555 1_555
C9_4 C19_4 1_555 1_555
C9_4 C25_4 1_555 1_555
C17_4 C19_4 1_555 1_555
C5_4 H10_4 1_555 1_555
C5_4 C7_4 1_555 1_555

#END
