
###############################################################################
#
# This file contains modified crystal structure data generated from the
# MOF subset of the Cambridge Structural Database (CSD) v543 
# hosted by the Cambridge Crystallographic Data Centre (CCDC).
#
# This work is licensed under the Creative Commons
# Attribution-NonCommercial-ShareAlike 4.0 International License.
# To view a copy of this license, visit
# http://creativecommons.org/licenses/by-nc-sa/4.0/
# or send a letter to
# Creative Commons, PO Box 1866, Mountain View, CA 94042, USA.
#
# CIF created using the CSD Python API on 29 September 2022
# The structure has been converted into the P1 space group
# The structure has a 3D framework
# The original CSD entry XEYMIZ is in the cubic crystal system
# The framework has been calculated to contain at least 10.0% void space
# The void calculation uses a probe of radius 1.32A, grid spacing 0.4
# The framework is charged, counterions have been retained in the structure
# H atom positions have been added when not included in the experimental data
# Generated hydrogen atom positions removed from atoms on special positions
#
###############################################################################

data_XEYMIZ
_chemical_formula_moiety         '(C144 H120 Cu24 I6 N24 O65 Zn16 4+)n'
_symmetry_cell_setting           triclinic
_symmetry_space_group_name_H-M   'P 1'
_symmetry_Int_Tables_number      1
_space_group_name_Hall           'P 1'
loop_
_symmetry_equiv_pos_site_id
_symmetry_equiv_pos_as_xyz
1 x,y,z
_cell_length_a                   18.9120(3)
_cell_length_b                   18.9120(3)
_cell_length_c                   18.9120(3)
_cell_angle_alpha                90
_cell_angle_beta                 90
_cell_angle_gamma                90
_cell_volume                     6764.14
loop_
_atom_site_label
_atom_site_type_symbol
_atom_site_fract_x
_atom_site_fract_y
_atom_site_fract_z
O3 O -0.0000 -0.0000 0.0000
Cu3 Cu 0.43933(18) 0.20043(19) 0.0370(2)
I3 I 0.55506(11) 0.16841(9) 0.10843(13)
N3 N 0.3632(14) 0.1311(11) 0.0637(12)
C13 C 0.3769(16) 0.070(2) 0.085(3)
H9 H 0.4248 0.0597 0.0905
C14 C 0.3304(16) 0.0128(19) 0.103(4)
C15 C 0.2590(12) 0.0366(15) 0.0924(13)
C16 C 0.2421(13) 0.0986(14) 0.0701(13)
H11 H 0.1952 0.1109 0.0619
C17 C 0.2943(13) 0.1446(14) 0.0592(15)
H12 H 0.2813 0.1905 0.0473
Cu7 Cu 0.0370(2) 0.43933(18) 0.20043(19)
I7 I 0.10843(13) 0.55506(11) 0.16841(9)
N7 N 0.0637(12) 0.3632(14) 0.1311(11)
C37 C 0.085(3) 0.3769(16) 0.070(2)
H25 H 0.0905 0.4248 0.0597
C38 C 0.103(4) 0.3304(16) 0.0128(19)
C39 C 0.0924(13) 0.2590(12) 0.0366(15)
C40 C 0.0701(13) 0.2421(13) 0.0986(14)
H27 H 0.0619 0.1952 0.1109
C41 C 0.0592(15) 0.2943(13) 0.1446(14)
H28 H 0.0473 0.2813 0.1905
Cu11 Cu 0.20043(19) 0.0370(2) 0.43933(18)
I11 I 0.16841(9) 0.10843(13) 0.55506(11)
N11 N 0.1311(11) 0.0637(12) 0.3632(14)
C61 C 0.070(2) 0.085(3) 0.3769(16)
H41 H 0.0597 0.0905 0.4248
C62 C 0.0128(19) 0.103(4) 0.3304(16)
C63 C 0.0366(15) 0.0924(13) 0.2590(12)
C64 C 0.0986(14) 0.0701(13) 0.2421(13)
H43 H 0.1109 0.0619 0.1952
C65 C 0.1446(14) 0.0592(15) 0.2943(13)
H44 H 0.1905 0.0473 0.2813
Cu32 Cu 0.29957(19) 0.06067(18) 0.5370(2)
Cu40 Cu 0.06067(18) 0.5370(2) 0.29957(19)
Cu48 Cu 0.5370(2) 0.29957(19) 0.06067(18)
I26 I 0.33159(9) 0.05506(11) 0.39157(13)
I30 I 0.05506(11) 0.39157(13) 0.33159(9)
I34 I 0.39157(13) 0.33159(9) 0.05506(11)
O3_2 O -0.0000 -0.0000 1.0000
Zn3 Zn 0.05983(15) 0.05983(15) 0.94017(15)
Zn4 Zn 0.1619(2) 0.1619(2) 0.8381(2)
O5 O 0.2207(10) 0.0806(13) 0.8741(13)
O6 O 0.1432(8) 0.0042(9) 0.9160(8)
H6 H 0.3440 0.0317 0.8809
C12 C 0.2052(14) 0.0233(15) 0.8983(13)
O7 O 0.225(3) 0.225(3) 0.775(3)
O18 O 0.1259(13) 0.2207(10) 0.9194(13)
O19 O 0.0840(8) 0.1432(8) 0.9958(9)
H26 H 0.1191 0.3440 0.9683
C42 C 0.1017(13) 0.2052(14) 0.9767(15)
O28 O 0.0806(13) 0.1259(13) 0.7793(10)
O29 O 0.0042(9) 0.0840(8) 0.8568(8)
H46 H 0.0317 0.1191 0.6560
C72 C 0.0233(15) 0.1017(13) 0.7948(14)
Cu13 Cu 0.56067(18) 0.20043(19) 0.9630(2)
Cu20 Cu 0.0370(2) 0.56067(18) 0.79957(19)
Cu34 Cu 0.06067(18) 0.4630(2) 0.70043(19)
Cu44 Cu 0.4630(2) 0.29957(19) 0.93933(18)
I13 I 0.44494(11) 0.16841(9) 0.89157(13)
I20 I 0.10843(13) 0.44494(11) 0.83159(9)
O3_3 O -0.0000 1.0000 0.0000
Zn5 Zn 0.05983(15) 0.94017(15) 0.05983(15)
Zn6 Zn 0.1619(2) 0.8381(2) 0.1619(2)
O8 O 0.2207(10) 0.9194(13) 0.1259(13)
O9 O 0.1432(8) 0.9958(9) 0.0840(8)
H10 H 0.3440 0.9683 0.1191
C18 C 0.2052(14) 0.9767(15) 0.1017(13)
O10 O 0.225(3) 0.775(3) 0.225(3)
O20 O 0.1259(13) 0.7793(10) 0.0806(13)
O21 O 0.0840(8) 0.8568(8) 0.0042(9)
H30 H 0.1191 0.6560 0.0317
C48 C 0.1017(13) 0.7948(14) 0.0233(15)
O24 O 0.0806(13) 0.8741(13) 0.2207(10)
O25 O 0.0042(9) 0.9160(8) 0.1432(8)
H38 H 0.0317 0.8809 0.3440
C60 C 0.0233(15) 0.8983(13) 0.2052(14)
Cu16 Cu 0.56067(18) 0.79957(19) 0.0370(2)
Cu21 Cu 0.20043(19) 0.9630(2) 0.56067(18)
Cu28 Cu 0.29957(19) 0.93933(18) 0.4630(2)
Cu42 Cu 0.4630(2) 0.70043(19) 0.06067(18)
I16 I 0.44494(11) 0.83159(9) 0.10843(13)
I21 I 0.16841(9) 0.89157(13) 0.44494(11)
O3_4 O -0.0000 1.0000 1.0000
Cu2 Cu 0.43933(18) 0.79957(19) 0.9630(2)
I2 I 0.55506(11) 0.83159(9) 0.89157(13)
N2 N 0.3632(14) 0.8689(11) 0.9363(12)
C7 C 0.3769(16) 0.930(2) 0.915(3)
H5 H 0.4248 0.9403 0.9095
C8 C 0.3304(16) 0.9872(19) 0.897(4)
C9 C 0.2590(12) 0.9634(15) 0.9076(13)
C10 C 0.2421(13) 0.9014(14) 0.9299(13)
H7 H 0.1952 0.8891 0.9381
C11 C 0.2943(13) 0.8554(14) 0.9408(15)
H8 H 0.2813 0.8095 0.9527
N8 N 0.0637(12) 0.6368(14) 0.8689(11)
C43 C 0.085(3) 0.6231(16) 0.930(2)
H29 H 0.0905 0.5752 0.9403
C44 C 0.103(4) 0.6696(16) 0.9872(19)
C45 C 0.0924(13) 0.7410(12) 0.9634(15)
C46 C 0.0701(13) 0.7579(13) 0.9014(14)
H31 H 0.0619 0.8048 0.8891
C47 C 0.0592(15) 0.7057(13) 0.8554(14)
H32 H 0.0473 0.7187 0.8095
N9 N 0.1311(11) 0.9363(12) 0.6368(14)
C49 C 0.070(2) 0.915(3) 0.6231(16)
H33 H 0.0597 0.9095 0.5752
C50 C 0.0128(19) 0.897(4) 0.6696(16)
C51 C 0.0366(15) 0.9076(13) 0.7410(12)
C52 C 0.0986(14) 0.9299(13) 0.7579(13)
H35 H 0.1109 0.9381 0.8048
C53 C 0.1446(14) 0.9408(15) 0.7057(13)
H36 H 0.1905 0.9527 0.7187
Cu46 Cu 0.5370(2) 0.70043(19) 0.93933(18)
I28 I 0.33159(9) 0.94494(11) 0.60843(13)
I31 I 0.05506(11) 0.60843(13) 0.66841(9)
I33 I 0.39157(13) 0.66841(9) 0.94494(11)
O3_5 O 1.0000 -0.0000 0.0000
Zn7 Zn 0.94017(15) 0.05983(15) 0.05983(15)
Zn8 Zn 0.8381(2) 0.1619(2) 0.1619(2)
O11 O 0.7793(10) 0.0806(13) 0.1259(13)
O12 O 0.8568(8) 0.0042(9) 0.0840(8)
H14 H 0.6560 0.0317 0.1191
C24 C 0.7948(14) 0.0233(15) 0.1017(13)
O13 O 0.775(3) 0.225(3) 0.225(3)
O16 O 0.8741(13) 0.2207(10) 0.0806(13)
O17 O 0.9160(8) 0.1432(8) 0.0042(9)
H22 H 0.8809 0.3440 0.0317
C36 C 0.8983(13) 0.2052(14) 0.0233(15)
O26 O 0.9194(13) 0.1259(13) 0.2207(10)
O27 O 0.9958(9) 0.0840(8) 0.1432(8)
H42 H 0.9683 0.1191 0.3440
C66 C 0.9767(15) 0.1017(13) 0.2052(14)
Cu17 Cu 0.9630(2) 0.56067(18) 0.20043(19)
Cu24 Cu 0.79957(19) 0.0370(2) 0.56067(18)
Cu26 Cu 0.70043(19) 0.06067(18) 0.4630(2)
Cu36 Cu 0.93933(18) 0.4630(2) 0.29957(19)
I17 I 0.89157(13) 0.44494(11) 0.16841(9)
I24 I 0.83159(9) 0.10843(13) 0.44494(11)
O3_6 O 1.0000 -0.0000 1.0000
N1 N 0.6368(14) 0.1311(11) 0.9363(12)
C1 C 0.6231(16) 0.070(2) 0.915(3)
H1 H 0.5752 0.0597 0.9095
C2 C 0.6696(16) 0.0128(19) 0.897(4)
C3 C 0.7410(12) 0.0366(15) 0.9076(13)
C4 C 0.7579(13) 0.0986(14) 0.9299(13)
H3 H 0.8048 0.1109 0.9381
C5 C 0.7057(13) 0.1446(14) 0.9408(15)
H4 H 0.7187 0.1905 0.9527
Cu6 Cu 0.9630(2) 0.43933(18) 0.79957(19)
I6 I 0.89157(13) 0.55506(11) 0.83159(9)
N6 N 0.9363(12) 0.3632(14) 0.8689(11)
C31 C 0.915(3) 0.3769(16) 0.930(2)
H21 H 0.9095 0.4248 0.9403
C32 C 0.897(4) 0.3304(16) 0.9872(19)
C33 C 0.9076(13) 0.2590(12) 0.9634(15)
C34 C 0.9299(13) 0.2421(13) 0.9014(14)
H23 H 0.9381 0.1952 0.8891
C35 C 0.9408(15) 0.2943(13) 0.8554(14)
H24 H 0.9527 0.2813 0.8095
N12 N 0.8689(11) 0.0637(12) 0.6368(14)
C67 C 0.930(2) 0.085(3) 0.6231(16)
H45 H 0.9403 0.0905 0.5752
C68 C 0.9872(19) 0.103(4) 0.6696(16)
C69 C 0.9634(15) 0.0924(13) 0.7410(12)
C70 C 0.9014(14) 0.0701(13) 0.7579(13)
H47 H 0.8891 0.0619 0.8048
C71 C 0.8554(14) 0.0592(15) 0.7057(13)
H48 H 0.8095 0.0473 0.7187
Cu38 Cu 0.93933(18) 0.5370(2) 0.70043(19)
I27 I 0.66841(9) 0.05506(11) 0.60843(13)
I29 I 0.94494(11) 0.39157(13) 0.66841(9)
I36 I 0.60843(13) 0.33159(9) 0.94494(11)
O3_7 O 1.0000 1.0000 0.0000
N4 N 0.6368(14) 0.8689(11) 0.0637(12)
C19 C 0.6231(16) 0.930(2) 0.085(3)
H13 H 0.5752 0.9403 0.0905
C20 C 0.6696(16) 0.9872(19) 0.103(4)
C21 C 0.7410(12) 0.9634(15) 0.0924(13)
C22 C 0.7579(13) 0.9014(14) 0.0701(13)
H15 H 0.8048 0.8891 0.0619
C23 C 0.7057(13) 0.8554(14) 0.0592(15)
H16 H 0.7187 0.8095 0.0473
N5 N 0.9363(12) 0.6368(14) 0.1311(11)
C25 C 0.915(3) 0.6231(16) 0.070(2)
H17 H 0.9095 0.5752 0.0597
C26 C 0.897(4) 0.6696(16) 0.0128(19)
C27 C 0.9076(13) 0.7410(12) 0.0366(15)
C28 C 0.9299(13) 0.7579(13) 0.0986(14)
H19 H 0.9381 0.8048 0.1109
C29 C 0.9408(15) 0.7057(13) 0.1446(14)
H20 H 0.9527 0.7187 0.1905
Cu10 Cu 0.79957(19) 0.9630(2) 0.43933(18)
I10 I 0.83159(9) 0.89157(13) 0.55506(11)
N10 N 0.8689(11) 0.9363(12) 0.3632(14)
C55 C 0.930(2) 0.915(3) 0.3769(16)
H37 H 0.9403 0.9095 0.4248
C56 C 0.9872(19) 0.897(4) 0.3304(16)
C57 C 0.9634(15) 0.9076(13) 0.2590(12)
C58 C 0.9014(14) 0.9299(13) 0.2421(13)
H39 H 0.8891 0.9381 0.1952
C59 C 0.8554(14) 0.9408(15) 0.2943(13)
H40 H 0.8095 0.9527 0.2813
Cu30 Cu 0.70043(19) 0.93933(18) 0.5370(2)
I25 I 0.66841(9) 0.94494(11) 0.39157(13)
I32 I 0.94494(11) 0.60843(13) 0.33159(9)
I35 I 0.60843(13) 0.66841(9) 0.05506(11)
Zn1 Zn 0.94017(15) 0.94017(15) 0.94017(15)
Zn2 Zn 0.8381(2) 0.8381(2) 0.8381(2)
O1 O 0.7793(10) 0.9194(13) 0.8741(13)
O2 O 0.8568(8) 0.9958(9) 0.9160(8)
O3_8 O 1.0000 1.0000 1.0000
H2 H 0.6560 0.9683 0.8809
C6 C 0.7948(14) 0.9767(15) 0.8983(13)
O4 O 0.775(3) 0.775(3) 0.775(3)
O14 O 0.8741(13) 0.7793(10) 0.9194(13)
O15 O 0.9160(8) 0.8568(8) 0.9958(9)
H18 H 0.8809 0.6560 0.9683
C30 C 0.8983(13) 0.7948(14) 0.9767(15)
O22 O 0.9194(13) 0.8741(13) 0.7793(10)
O23 O 0.9958(9) 0.9160(8) 0.8568(8)
H34 H 0.9683 0.8809 0.6560
C54 C 0.9767(15) 0.8983(13) 0.7948(14)
Zn1_2 Zn 0.44017(15) 0.44017(15) 0.44017(15)
Zn2_2 Zn 0.3381(2) 0.3381(2) 0.3381(2)
O1_2 O 0.4194(13) 0.2793(10) 0.3741(13)
O2_2 O 0.4958(9) 0.3568(8) 0.4160(8)
O3_9 O 0.5000 0.5000 0.5000
N1_2 N 0.6311(11) 0.1368(14) 0.4363(12)
C1_2 C 0.570(2) 0.1231(16) 0.415(3)
H1_2 H 0.5597 0.0752 0.4095
C2_2 C 0.5128(19) 0.1696(16) 0.397(4)
H2_2 H 0.4683 0.1560 0.3809
C3_2 C 0.5366(15) 0.2410(12) 0.4076(13)
C4_2 C 0.5986(14) 0.2579(13) 0.4299(13)
H3_2 H 0.6109 0.3048 0.4381
C5_2 C 0.6446(14) 0.2057(13) 0.4408(15)
H4_2 H 0.6905 0.2187 0.4527
C6_2 C 0.4767(15) 0.2948(14) 0.3983(13)
O4_2 O 0.275(3) 0.275(3) 0.275(3)
Zn3_2 Zn 0.55983(15) 0.55983(15) 0.44017(15)
Zn4_2 Zn 0.6619(2) 0.6619(2) 0.3381(2)
O5_2 O 0.5806(13) 0.7207(10) 0.3741(13)
O6_2 O 0.5042(9) 0.6432(8) 0.4160(8)
N2_2 N 0.3689(11) 0.8632(14) 0.4363(12)
C7_2 C 0.430(2) 0.8769(16) 0.415(3)
H5_2 H 0.4403 0.9248 0.4095
C8_2 C 0.4872(19) 0.8304(16) 0.397(4)
H6_2 H 0.5317 0.8440 0.3809
C9_2 C 0.4634(15) 0.7590(12) 0.4076(13)
C10_2 C 0.4014(14) 0.7421(13) 0.4299(13)
H7_2 H 0.3891 0.6952 0.4381
C11_2 C 0.3554(14) 0.7943(13) 0.4408(15)
H8_2 H 0.3095 0.7813 0.4527
C12_2 C 0.5233(15) 0.7052(14) 0.3983(13)
O7_2 O 0.725(3) 0.725(3) 0.275(3)
Zn5_2 Zn 0.44017(15) 0.55983(15) 0.55983(15)
Zn6_2 Zn 0.3381(2) 0.6619(2) 0.6619(2)
O8_2 O 0.4194(13) 0.7207(10) 0.6259(13)
O9_2 O 0.4958(9) 0.6432(8) 0.5840(8)
N3_2 N 0.6311(11) 0.8632(14) 0.5637(12)
C13_2 C 0.570(2) 0.8769(16) 0.585(3)
H9_2 H 0.5597 0.9248 0.5905
C14_2 C 0.5128(19) 0.8304(16) 0.603(4)
H10_2 H 0.4683 0.8440 0.6191
C15_2 C 0.5366(15) 0.7590(12) 0.5924(13)
C16_2 C 0.5986(14) 0.7421(13) 0.5701(13)
H11_2 H 0.6109 0.6952 0.5619
C17_2 C 0.6446(14) 0.7943(13) 0.5592(15)
H12_2 H 0.6905 0.7813 0.5473
C18_2 C 0.4767(15) 0.7052(14) 0.6017(13)
O10_2 O 0.275(3) 0.725(3) 0.725(3)
Zn7_2 Zn 0.55983(15) 0.44017(15) 0.55983(15)
Zn8_2 Zn 0.6619(2) 0.3381(2) 0.6619(2)
O11_2 O 0.5806(13) 0.2793(10) 0.6259(13)
O12_2 O 0.5042(9) 0.3568(8) 0.5840(8)
N4_2 N 0.3689(11) 0.1368(14) 0.5637(12)
C19_2 C 0.430(2) 0.1231(16) 0.585(3)
H13_2 H 0.4403 0.0752 0.5905
C20_2 C 0.4872(19) 0.1696(16) 0.603(4)
H14_2 H 0.5317 0.1560 0.6191
C21_2 C 0.4634(15) 0.2410(12) 0.5924(13)
C22_2 C 0.4014(14) 0.2579(13) 0.5701(13)
H15_2 H 0.3891 0.3048 0.5619
C23_2 C 0.3554(14) 0.2057(13) 0.5592(15)
H16_2 H 0.3095 0.2187 0.5473
C24_2 C 0.5233(15) 0.2948(14) 0.6017(13)
O13_2 O 0.725(3) 0.275(3) 0.725(3)
O14_2 O 0.2793(10) 0.3741(13) 0.4194(13)
O15_2 O 0.3568(8) 0.4160(8) 0.4958(9)
N5_2 N 0.1368(14) 0.4363(12) 0.6311(11)
C25_2 C 0.1231(16) 0.415(3) 0.570(2)
H17_2 H 0.0752 0.4095 0.5597
C26_2 C 0.1696(16) 0.397(4) 0.5128(19)
H18_2 H 0.1560 0.3809 0.4683
C27_2 C 0.2410(12) 0.4076(13) 0.5366(15)
C28_2 C 0.2579(13) 0.4299(13) 0.5986(14)
H19_2 H 0.3048 0.4381 0.6109
C29_2 C 0.2057(13) 0.4408(15) 0.6446(14)
H20_2 H 0.2187 0.4527 0.6905
C30_2 C 0.2948(14) 0.3983(13) 0.4767(15)
O16_2 O 0.7207(10) 0.3741(13) 0.5806(13)
O17_2 O 0.6432(8) 0.4160(8) 0.5042(9)
N6_2 N 0.8632(14) 0.4363(12) 0.3689(11)
C31_2 C 0.8769(16) 0.415(3) 0.430(2)
H21_2 H 0.9248 0.4095 0.4403
C32_2 C 0.8304(16) 0.397(4) 0.4872(19)
H22_2 H 0.8440 0.3809 0.5317
C33_2 C 0.7590(12) 0.4076(13) 0.4634(15)
C34_2 C 0.7421(13) 0.4299(13) 0.4014(14)
H23_2 H 0.6952 0.4381 0.3891
C35_2 C 0.7943(13) 0.4408(15) 0.3554(14)
H24_2 H 0.7813 0.4527 0.3095
C36_2 C 0.7052(14) 0.3983(13) 0.5233(15)
O18_2 O 0.7207(10) 0.6259(13) 0.4194(13)
O19_2 O 0.6432(8) 0.5840(8) 0.4958(9)
N7_2 N 0.8632(14) 0.5637(12) 0.6311(11)
C37_2 C 0.8769(16) 0.585(3) 0.570(2)
H25_2 H 0.9248 0.5905 0.5597
C38_2 C 0.8304(16) 0.603(4) 0.5128(19)
H26_2 H 0.8440 0.6191 0.4683
C39_2 C 0.7590(12) 0.5924(13) 0.5366(15)
C40_2 C 0.7421(13) 0.5701(13) 0.5986(14)
H27_2 H 0.6952 0.5619 0.6109
C41_2 C 0.7943(13) 0.5592(15) 0.6446(14)
H28_2 H 0.7813 0.5473 0.6905
C42_2 C 0.7052(14) 0.6017(13) 0.4767(15)
O20_2 O 0.2793(10) 0.6259(13) 0.5806(13)
O21_2 O 0.3568(8) 0.5840(8) 0.5042(9)
N8_2 N 0.1368(14) 0.5637(12) 0.3689(11)
C43_2 C 0.1231(16) 0.585(3) 0.430(2)
H29_2 H 0.0752 0.5905 0.4403
C44_2 C 0.1696(16) 0.603(4) 0.4872(19)
H30_2 H 0.1560 0.6191 0.5317
C45_2 C 0.2410(12) 0.5924(13) 0.4634(15)
C46_2 C 0.2579(13) 0.5701(13) 0.4014(14)
H31_2 H 0.3048 0.5619 0.3891
C47_2 C 0.2057(13) 0.5592(15) 0.3554(14)
H32_2 H 0.2187 0.5473 0.3095
C48_2 C 0.2948(14) 0.6017(13) 0.5233(15)
O22_2 O 0.3741(13) 0.4194(13) 0.2793(10)
O23_2 O 0.4160(8) 0.4958(9) 0.3568(8)
N9_2 N 0.4363(12) 0.6311(11) 0.1368(14)
C49_2 C 0.415(3) 0.570(2) 0.1231(16)
H33_2 H 0.4095 0.5597 0.0752
C50_2 C 0.397(4) 0.5128(19) 0.1696(16)
H34_2 H 0.3809 0.4683 0.1560
C51_2 C 0.4076(13) 0.5366(15) 0.2410(12)
C52_2 C 0.4299(13) 0.5986(14) 0.2579(13)
H35_2 H 0.4381 0.6109 0.3048
C53_2 C 0.4408(15) 0.6446(14) 0.2057(13)
H36_2 H 0.4527 0.6905 0.2187
C54_2 C 0.3983(13) 0.4767(15) 0.2948(14)
O24_2 O 0.3741(13) 0.5806(13) 0.7207(10)
O25_2 O 0.4160(8) 0.5042(9) 0.6432(8)
N10_2 N 0.4363(12) 0.3689(11) 0.8632(14)
C55_2 C 0.415(3) 0.430(2) 0.8769(16)
H37_2 H 0.4095 0.4403 0.9248
C56_2 C 0.397(4) 0.4872(19) 0.8304(16)
H38_2 H 0.3809 0.5317 0.8440
C57_2 C 0.4076(13) 0.4634(15) 0.7590(12)
C58_2 C 0.4299(13) 0.4014(14) 0.7421(13)
H39_2 H 0.4381 0.3891 0.6952
C59_2 C 0.4408(15) 0.3554(14) 0.7943(13)
H40_2 H 0.4527 0.3095 0.7813
C60_2 C 0.3983(13) 0.5233(15) 0.7052(14)
O26_2 O 0.6259(13) 0.4194(13) 0.7207(10)
O27_2 O 0.5840(8) 0.4958(9) 0.6432(8)
N11_2 N 0.5637(12) 0.6311(11) 0.8632(14)
C61_2 C 0.585(3) 0.570(2) 0.8769(16)
H41_2 H 0.5905 0.5597 0.9248
C62_2 C 0.603(4) 0.5128(19) 0.8304(16)
H42_2 H 0.6191 0.4683 0.8440
C63_2 C 0.5924(13) 0.5366(15) 0.7590(12)
C64_2 C 0.5701(13) 0.5986(14) 0.7421(13)
H43_2 H 0.5619 0.6109 0.6952
C65_2 C 0.5592(15) 0.6446(14) 0.7943(13)
H44_2 H 0.5473 0.6905 0.7813
C66_2 C 0.6017(13) 0.4767(15) 0.7052(14)
O28_2 O 0.6259(13) 0.5806(13) 0.2793(10)
O29_2 O 0.5840(8) 0.5042(9) 0.3568(8)
N12_2 N 0.5637(12) 0.3689(11) 0.1368(14)
C67_2 C 0.585(3) 0.430(2) 0.1231(16)
H45_2 H 0.5905 0.4403 0.0752
C68_2 C 0.603(4) 0.4872(19) 0.1696(16)
H46_2 H 0.6191 0.5317 0.1560
C69_2 C 0.5924(13) 0.4634(15) 0.2410(12)
C70_2 C 0.5701(13) 0.4014(14) 0.2579(13)
H47_2 H 0.5619 0.3891 0.3048
C71_2 C 0.5592(15) 0.3554(14) 0.2057(13)
H48_2 H 0.5473 0.3095 0.2187
C72_2 C 0.6017(13) 0.5233(15) 0.2948(14)
loop_
_geom_bond_atom_site_label_1
_geom_bond_atom_site_label_2
_geom_bond_site_symmetry_1
_geom_bond_site_symmetry_2
Cu3 I3 1_555 1_555
N3 Cu3 1_555 1_555
C13 N3 1_555 1_555
H9 C13 1_555 1_555
C14 C13 1_555 1_555
C15 C14 1_555 1_555
C16 C15 1_555 1_555
H11 C16 1_555 1_555
C17 N3 1_555 1_555
H12 C17 1_555 1_555
Cu7 I7 1_555 1_555
N7 Cu7 1_555 1_555
C37 N7 1_555 1_555
H25 C37 1_555 1_555
C38 C37 1_555 1_555
C39 C38 1_555 1_555
C40 C39 1_555 1_555
H27 C40 1_555 1_555
C41 N7 1_555 1_555
H28 C41 1_555 1_555
Cu11 I11 1_555 1_555
N11 Cu11 1_555 1_555
C61 N11 1_555 1_555
H41 C61 1_555 1_555
C62 C61 1_555 1_555
C63 C62 1_555 1_555
C64 C63 1_555 1_555
H43 C64 1_555 1_555
C65 N11 1_555 1_555
H44 C65 1_555 1_555
Cu32 Cu11 1_555 1_555
Cu40 Cu7 1_555 1_555
Cu48 Cu3 1_555 1_555
I26 Cu11 1_555 1_555
I30 Cu7 1_555 1_555
I34 Cu3 1_555 1_555
I3 Cu48 1_555 1_555
C16 C17 1_555 1_555
I7 Cu40 1_555 1_555
C40 C41 1_555 1_555
I11 Cu32 1_555 1_555
C64 C65 1_555 1_555
Cu32 I26 1_555 1_555
Cu40 I30 1_555 1_555
Cu48 I34 1_555 1_555
Zn3 O3_2 1_555 1_555
Zn4 O5 1_555 1_555
O5 C12 1_555 1_555
O6 Zn3 1_555 1_555
C12 O6 1_555 1_555
O7 Zn4 1_555 1_555
O18 Zn4 1_555 1_555
O19 Zn3 1_555 1_555
C42 O18 1_555 1_555
O28 Zn4 1_555 1_555
O29 Zn3 1_555 1_555
C72 O28 1_555 1_555
O19 C42 1_555 1_555
O29 C72 1_555 1_555
Cu13 Cu44 1_555 1_555
Cu13 I13 1_555 1_555
Cu20 Cu34 1_555 1_555
Cu20 I20 1_555 1_555
Cu34 I20 1_555 1_555
Cu44 I13 1_555 1_555
Zn5 O3_3 1_555 1_555
Zn6 O8 1_555 1_555
O8 C18 1_555 1_555
O9 Zn5 1_555 1_555
C18 O9 1_555 1_555
O10 Zn6 1_555 1_555
O20 Zn6 1_555 1_555
O21 Zn5 1_555 1_555
C48 O20 1_555 1_555
O24 Zn6 1_555 1_555
O25 Zn5 1_555 1_555
C60 O24 1_555 1_555
O21 C48 1_555 1_555
O25 C60 1_555 1_555
Cu16 Cu42 1_555 1_555
Cu16 I16 1_555 1_555
Cu21 Cu28 1_555 1_555
Cu21 I21 1_555 1_555
Cu28 I21 1_555 1_555
Cu42 I16 1_555 1_555
Cu2 I2 1_555 1_555
N2 Cu2 1_555 1_555
C7 N2 1_555 1_555
H5 C7 1_555 1_555
C8 C7 1_555 1_555
C9 C8 1_555 1_555
C10 C9 1_555 1_555
H7 C10 1_555 1_555
C11 N2 1_555 1_555
H8 C11 1_555 1_555
N8 Cu20 1_555 1_555
C43 N8 1_555 1_555
H29 C43 1_555 1_555
C44 C43 1_555 1_555
C45 C44 1_555 1_555
C46 C45 1_555 1_555
H31 C46 1_555 1_555
C47 N8 1_555 1_555
H32 C47 1_555 1_555
N9 Cu21 1_555 1_555
C49 N9 1_555 1_555
H33 C49 1_555 1_555
C50 C49 1_555 1_555
C51 C50 1_555 1_555
C52 C51 1_555 1_555
H35 C52 1_555 1_555
C53 N9 1_555 1_555
H36 C53 1_555 1_555
Cu46 Cu2 1_555 1_555
I28 Cu21 1_555 1_555
I31 Cu20 1_555 1_555
I33 Cu2 1_555 1_555
I2 Cu46 1_555 1_555
C10 C11 1_555 1_555
C46 C47 1_555 1_555
C52 C53 1_555 1_555
Cu28 I28 1_555 1_555
Cu34 I31 1_555 1_555
Cu46 I33 1_555 1_555
Zn7 O3_5 1_555 1_555
Zn8 O11 1_555 1_555
O11 C24 1_555 1_555
O12 Zn7 1_555 1_555
C24 O12 1_555 1_555
O13 Zn8 1_555 1_555
O16 Zn8 1_555 1_555
O17 Zn7 1_555 1_555
C36 O16 1_555 1_555
O26 Zn8 1_555 1_555
O27 Zn7 1_555 1_555
C66 O26 1_555 1_555
O17 C36 1_555 1_555
O27 C66 1_555 1_555
Cu17 Cu36 1_555 1_555
Cu17 I17 1_555 1_555
Cu24 Cu26 1_555 1_555
Cu24 I24 1_555 1_555
Cu26 I24 1_555 1_555
Cu36 I17 1_555 1_555
N1 Cu13 1_555 1_555
C1 N1 1_555 1_555
H1 C1 1_555 1_555
C2 C1 1_555 1_555
C3 C2 1_555 1_555
C4 C3 1_555 1_555
H3 C4 1_555 1_555
C5 N1 1_555 1_555
H4 C5 1_555 1_555
Cu6 I6 1_555 1_555
N6 Cu6 1_555 1_555
C31 N6 1_555 1_555
H21 C31 1_555 1_555
C32 C31 1_555 1_555
C33 C32 1_555 1_555
C34 C33 1_555 1_555
H23 C34 1_555 1_555
C35 N6 1_555 1_555
H24 C35 1_555 1_555
N12 Cu24 1_555 1_555
C67 N12 1_555 1_555
H45 C67 1_555 1_555
C68 C67 1_555 1_555
C69 C68 1_555 1_555
C70 C69 1_555 1_555
H47 C70 1_555 1_555
C71 N12 1_555 1_555
H48 C71 1_555 1_555
Cu38 Cu6 1_555 1_555
I27 Cu24 1_555 1_555
I29 Cu6 1_555 1_555
I36 Cu13 1_555 1_555
C4 C5 1_555 1_555
I6 Cu38 1_555 1_555
C34 C35 1_555 1_555
C70 C71 1_555 1_555
Cu26 I27 1_555 1_555
Cu38 I29 1_555 1_555
Cu44 I36 1_555 1_555
N4 Cu16 1_555 1_555
C19 N4 1_555 1_555
H13 C19 1_555 1_555
C20 C19 1_555 1_555
C21 C20 1_555 1_555
C22 C21 1_555 1_555
H15 C22 1_555 1_555
C23 N4 1_555 1_555
H16 C23 1_555 1_555
N5 Cu17 1_555 1_555
C25 N5 1_555 1_555
H17 C25 1_555 1_555
C26 C25 1_555 1_555
C27 C26 1_555 1_555
C28 C27 1_555 1_555
H19 C28 1_555 1_555
C29 N5 1_555 1_555
H20 C29 1_555 1_555
Cu10 I10 1_555 1_555
N10 Cu10 1_555 1_555
C55 N10 1_555 1_555
H37 C55 1_555 1_555
C56 C55 1_555 1_555
C57 C56 1_555 1_555
C58 C57 1_555 1_555
H39 C58 1_555 1_555
C59 N10 1_555 1_555
H40 C59 1_555 1_555
Cu30 Cu10 1_555 1_555
I25 Cu10 1_555 1_555
I32 Cu17 1_555 1_555
I35 Cu16 1_555 1_555
C22 C23 1_555 1_555
C28 C29 1_555 1_555
I10 Cu30 1_555 1_555
C58 C59 1_555 1_555
Cu30 I25 1_555 1_555
Cu36 I32 1_555 1_555
Cu42 I35 1_555 1_555
Zn1 O2 1_555 1_555
Zn2 O1 1_555 1_555
O1 C6 1_555 1_555
O2 C6 1_555 1_555
O3_8 Zn1 1_555 1_555
O4 Zn2 1_555 1_555
O14 Zn2 1_555 1_555
O15 Zn1 1_555 1_555
C30 O14 1_555 1_555
O22 Zn2 1_555 1_555
O23 Zn1 1_555 1_555
C54 O22 1_555 1_555
O15 C30 1_555 1_555
O23 C54 1_555 1_555
Zn1_2 O2_2 1_555 1_555
Zn2_2 O1_2 1_555 1_555
O1_2 C6_2 1_555 1_555
O2_2 C6_2 1_555 1_555
O3_9 Zn1_2 1_555 1_555
N1_2 Cu26 1_555 1_555
C1_2 N1_2 1_555 1_555
H1_2 C1_2 1_555 1_555
C2_2 C1_2 1_555 1_555
H2_2 C2_2 1_555 1_555
C3_2 C2_2 1_555 1_555
C4_2 C3_2 1_555 1_555
H3_2 C4_2 1_555 1_555
C5_2 N1_2 1_555 1_555
H4_2 C5_2 1_555 1_555
C6_2 C3_2 1_555 1_555
O4_2 Zn2_2 1_555 1_555
Zn3_2 O3_9 1_555 1_555
Zn4_2 O5_2 1_555 1_555
O5_2 C12_2 1_555 1_555
O6_2 Zn3_2 1_555 1_555
N2_2 Cu28 1_555 1_555
C7_2 N2_2 1_555 1_555
H5_2 C7_2 1_555 1_555
C8_2 C7_2 1_555 1_555
H6_2 C8_2 1_555 1_555
C9_2 C8_2 1_555 1_555
C10_2 C9_2 1_555 1_555
H7_2 C10_2 1_555 1_555
C11_2 N2_2 1_555 1_555
H8_2 C11_2 1_555 1_555
C12_2 O6_2 1_555 1_555
O7_2 Zn4_2 1_555 1_555
Zn5_2 O3_9 1_555 1_555
Zn6_2 O8_2 1_555 1_555
O8_2 C18_2 1_555 1_555
O9_2 Zn5_2 1_555 1_555
N3_2 Cu30 1_555 1_555
C13_2 N3_2 1_555 1_555
H9_2 C13_2 1_555 1_555
C14_2 C13_2 1_555 1_555
H10_2 C14_2 1_555 1_555
C15_2 C14_2 1_555 1_555
C16_2 C15_2 1_555 1_555
H11_2 C16_2 1_555 1_555
C17_2 N3_2 1_555 1_555
H12_2 C17_2 1_555 1_555
C18_2 O9_2 1_555 1_555
O10_2 Zn6_2 1_555 1_555
Zn7_2 O3_9 1_555 1_555
Zn8_2 O11_2 1_555 1_555
O11_2 C24_2 1_555 1_555
O12_2 Zn7_2 1_555 1_555
N4_2 Cu32 1_555 1_555
C19_2 N4_2 1_555 1_555
H13_2 C19_2 1_555 1_555
C20_2 C19_2 1_555 1_555
H14_2 C20_2 1_555 1_555
C21_2 C20_2 1_555 1_555
C22_2 C21_2 1_555 1_555
H15_2 C22_2 1_555 1_555
C23_2 N4_2 1_555 1_555
H16_2 C23_2 1_555 1_555
C24_2 O12_2 1_555 1_555
O13_2 Zn8_2 1_555 1_555
O14_2 Zn2_2 1_555 1_555
O15_2 Zn1_2 1_555 1_555
N5_2 Cu34 1_555 1_555
C25_2 N5_2 1_555 1_555
H17_2 C25_2 1_555 1_555
C26_2 C25_2 1_555 1_555
H18_2 C26_2 1_555 1_555
C27_2 C26_2 1_555 1_555
C28_2 C27_2 1_555 1_555
H19_2 C28_2 1_555 1_555
C29_2 N5_2 1_555 1_555
H20_2 C29_2 1_555 1_555
C30_2 O14_2 1_555 1_555
O16_2 Zn8_2 1_555 1_555
O17_2 Zn7_2 1_555 1_555
N6_2 Cu36 1_555 1_555
C31_2 N6_2 1_555 1_555
H21_2 C31_2 1_555 1_555
C32_2 C31_2 1_555 1_555
H22_2 C32_2 1_555 1_555
C33_2 C32_2 1_555 1_555
C34_2 C33_2 1_555 1_555
H23_2 C34_2 1_555 1_555
C35_2 N6_2 1_555 1_555
H24_2 C35_2 1_555 1_555
C36_2 O16_2 1_555 1_555
O18_2 Zn4_2 1_555 1_555
O19_2 Zn3_2 1_555 1_555
N7_2 Cu38 1_555 1_555
C37_2 N7_2 1_555 1_555
H25_2 C37_2 1_555 1_555
C38_2 C37_2 1_555 1_555
H26_2 C38_2 1_555 1_555
C39_2 C38_2 1_555 1_555
C40_2 C39_2 1_555 1_555
H27_2 C40_2 1_555 1_555
C41_2 N7_2 1_555 1_555
H28_2 C41_2 1_555 1_555
C42_2 O18_2 1_555 1_555
O20_2 Zn6_2 1_555 1_555
O21_2 Zn5_2 1_555 1_555
N8_2 Cu40 1_555 1_555
C43_2 N8_2 1_555 1_555
H29_2 C43_2 1_555 1_555
C44_2 C43_2 1_555 1_555
H30_2 C44_2 1_555 1_555
C45_2 C44_2 1_555 1_555
C46_2 C45_2 1_555 1_555
H31_2 C46_2 1_555 1_555
C47_2 N8_2 1_555 1_555
H32_2 C47_2 1_555 1_555
C48_2 O20_2 1_555 1_555
O22_2 Zn2_2 1_555 1_555
O23_2 Zn1_2 1_555 1_555
N9_2 Cu42 1_555 1_555
C49_2 N9_2 1_555 1_555
H33_2 C49_2 1_555 1_555
C50_2 C49_2 1_555 1_555
H34_2 C50_2 1_555 1_555
C51_2 C50_2 1_555 1_555
C52_2 C51_2 1_555 1_555
H35_2 C52_2 1_555 1_555
C53_2 N9_2 1_555 1_555
H36_2 C53_2 1_555 1_555
C54_2 O22_2 1_555 1_555
O24_2 Zn6_2 1_555 1_555
O25_2 Zn5_2 1_555 1_555
N10_2 Cu44 1_555 1_555
C55_2 N10_2 1_555 1_555
H37_2 C55_2 1_555 1_555
C56_2 C55_2 1_555 1_555
H38_2 C56_2 1_555 1_555
C57_2 C56_2 1_555 1_555
C58_2 C57_2 1_555 1_555
H39_2 C58_2 1_555 1_555
C59_2 N10_2 1_555 1_555
H40_2 C59_2 1_555 1_555
C60_2 O24_2 1_555 1_555
O26_2 Zn8_2 1_555 1_555
O27_2 Zn7_2 1_555 1_555
N11_2 Cu46 1_555 1_555
C61_2 N11_2 1_555 1_555
H41_2 C61_2 1_555 1_555
C62_2 C61_2 1_555 1_555
H42_2 C62_2 1_555 1_555
C63_2 C62_2 1_555 1_555
C64_2 C63_2 1_555 1_555
H43_2 C64_2 1_555 1_555
C65_2 N11_2 1_555 1_555
H44_2 C65_2 1_555 1_555
C66_2 O26_2 1_555 1_555
O28_2 Zn4_2 1_555 1_555
O29_2 Zn3_2 1_555 1_555
N12_2 Cu48 1_555 1_555
C67_2 N12_2 1_555 1_555
H45_2 C67_2 1_555 1_555
C68_2 C67_2 1_555 1_555
H46_2 C68_2 1_555 1_555
C69_2 C68_2 1_555 1_555
C70_2 C69_2 1_555 1_555
H47_2 C70_2 1_555 1_555
C71_2 N12_2 1_555 1_555
H48_2 C71_2 1_555 1_555
C72_2 O28_2 1_555 1_555
C4_2 C5_2 1_555 1_555
C9_2 C12_2 1_555 1_555
C10_2 C11_2 1_555 1_555
C15_2 C18_2 1_555 1_555
C16_2 C17_2 1_555 1_555
C21_2 C24_2 1_555 1_555
C22_2 C23_2 1_555 1_555
O15_2 C30_2 1_555 1_555
C27_2 C30_2 1_555 1_555
C28_2 C29_2 1_555 1_555
O17_2 C36_2 1_555 1_555
C33_2 C36_2 1_555 1_555
C34_2 C35_2 1_555 1_555
O19_2 C42_2 1_555 1_555
C39_2 C42_2 1_555 1_555
C40_2 C41_2 1_555 1_555
O21_2 C48_2 1_555 1_555
C45_2 C48_2 1_555 1_555
C46_2 C47_2 1_555 1_555
O23_2 C54_2 1_555 1_555
C51_2 C54_2 1_555 1_555
C52_2 C53_2 1_555 1_555
O25_2 C60_2 1_555 1_555
C57_2 C60_2 1_555 1_555
C58_2 C59_2 1_555 1_555
O27_2 C66_2 1_555 1_555
C63_2 C66_2 1_555 1_555
C64_2 C65_2 1_555 1_555
O29_2 C72_2 1_555 1_555
C69_2 C72_2 1_555 1_555
C70_2 C71_2 1_555 1_555

#END
