
###############################################################################
#
# This file contains modified crystal structure data generated from the
# MOF subset of the Cambridge Structural Database (CSD) v543 
# hosted by the Cambridge Crystallographic Data Centre (CCDC).
#
# This work is licensed under the Creative Commons
# Attribution-NonCommercial-ShareAlike 4.0 International License.
# To view a copy of this license, visit
# http://creativecommons.org/licenses/by-nc-sa/4.0/
# or send a letter to
# Creative Commons, PO Box 1866, Mountain View, CA 94042, USA.
#
# CIF created using the CSD Python API on 29 September 2022
# The structure has been converted into the P1 space group
# The structure has a 3D framework
# The original CSD entry XEZNEY is in the rhombohedral crystal system
# The framework has been calculated to contain at least 10.0% void space
# The void calculation uses a probe of radius 1.32A, grid spacing 0.4
#
###############################################################################

data_XEZNEY
_chemical_formula_moiety         '(C180 H162 N54 O36 Zn18)n'
_symmetry_cell_setting           triclinic
_symmetry_space_group_name_H-M   'P 1'
_symmetry_Int_Tables_number      1
_space_group_name_Hall           'P 1'
loop_
_symmetry_equiv_pos_site_id
_symmetry_equiv_pos_as_xyz
1 x,y,z
_cell_length_a                   27.5934(13)
_cell_length_b                   27.5934(13)
_cell_length_c                   10.7913(4)
_cell_angle_alpha                90
_cell_angle_beta                 90
_cell_angle_gamma                120
_cell_volume                     7115.65
loop_
_atom_site_label
_atom_site_type_symbol
_atom_site_fract_x
_atom_site_fract_y
_atom_site_fract_z
Zn1 Zn 0.49003(4) 0.53805(3) 0.12918(8)
O1 O 0.4505(2) 0.5791(2) 0.1560(5)
O2 O 0.4165(3) 0.5160(3) 0.3011(6)
N1 N 0.4568(2) 0.4548(2) 0.1171(5)
N2 N 0.4724(2) 0.4276(2) 0.0349(5)
N3 N 0.3295(2) 0.2229(2) 0.4158(5)
C1 C 0.4519(3) 0.3747(3) 0.0741(6)
H1 H 0.4575 0.3472 0.0339
C2 C 0.4207(3) 0.3662(3) 0.1848(6)
C3 C 0.4261(3) 0.4187(3) 0.2066(6)
H2 H 0.4102 0.4275 0.2751
C4 C 0.3567(4) 0.2205(3) 0.3166(7)
H3 H 0.3544 0.1858 0.2970
C5 C 0.3880(3) 0.2656(3) 0.2411(7)
H4 H 0.4083 0.2623 0.1738
C6 C 0.3900(3) 0.3163(3) 0.2633(6)
C7 C 0.3606(4) 0.3175(3) 0.3642(8)
H5 H 0.3600 0.3508 0.3830
C8 C 0.3320(4) 0.2714(3) 0.4387(8)
H6 H 0.3132 0.2744 0.5095
C9 C 0.4179(3) 0.5549(3) 0.2458(8)
C10 C 0.3780(4) 0.5756(4) 0.2819(11)
H7 H 0.3933 0.6143 0.2541
H8 H 0.3735 0.5738 0.3722
H9 H 0.3416 0.5519 0.2428
Zn3 Zn 0.28531(5) 0.15670(4) 0.53749(8)
N5 N 0.5562(2) 0.5601(3) 0.2509(5)
N1_2 N 0.9980(3) 0.5432(2) 0.1171(5)
N2_2 N 0.9552(3) 0.5276(2) 0.0349(5)
N3_2 N 0.8934(3) 0.6705(2) 0.4158(5)
C1_2 C 0.9228(4) 0.5481(3) 0.0741(6)
H1_2 H 0.8897 0.5425 0.0339
C2_2 C 0.9455(4) 0.5793(3) 0.1848(6)
C3_2 C 0.9926(4) 0.5739(3) 0.2066(6)
C4_2 C 0.8638(5) 0.6433(4) 0.3166(7)
H3_2 H 0.8314 0.6456 0.2970
C5_2 C 0.8776(4) 0.6120(3) 0.2411(7)
H4_2 H 0.8540 0.5917 0.1738
C6_2 C 0.9263(4) 0.6100(3) 0.2633(6)
C7_2 C 0.9569(5) 0.6394(4) 0.3642(8)
H5_2 H 0.9908 0.6400 0.3830
C8_2 C 0.9394(5) 0.6680(4) 0.4387(8)
H6_2 H 0.9612 0.6868 0.5095
Zn3_2 Zn 0.87138(6) 0.71469(5) 0.53749(8)
Zn1_2 Zn 0.79528(3) 0.61865(5) 0.79585(8)
O1_2 O 0.7542(2) 0.5381(3) 0.8227(5)
O2_2 O 0.8173(3) 0.5672(4) 0.9678(6)
N1_3 N 0.8785(2) 0.6687(3) 0.7838(5)
N2_3 N 0.9057(2) 0.7115(3) 0.7016(5)
C1_3 C 0.9586(3) 0.7439(4) 0.7408(6)
H1_3 H 0.9861 0.7770 0.7006
C2_3 C 0.9671(3) 0.7212(4) 0.8515(6)
C3_3 C 0.9146(3) 0.6741(4) 0.8733(6)
H2_2 H 0.9058 0.6494 0.9418
C9_2 C 0.7784(3) 0.5297(4) 0.9125(8)
C10_2 C 0.7577(4) 0.4691(6) 0.9486(11)
H7_2 H 0.7190 0.4457 0.9208
H9_2 H 0.7814 0.4564 0.9095
N4 N 0.7609(2) 0.6219(3) 0.6318(5)
N5_2 N 0.7733(3) 0.6628(4) 0.9175(5)
Zn1_3 Zn 0.38135(5) 0.17664(4) 0.79585(8)
O1_3 O 0.4619(3) 0.2162(2) 0.8227(5)
O2_3 O 0.4328(4) 0.2502(3) 0.9678(6)
N1_4 N 0.3313(3) 0.2099(2) 0.7838(5)
N2_4 N 0.2885(3) 0.1943(2) 0.7016(5)
C1_4 C 0.2561(4) 0.2148(3) 0.7408(6)
H1_4 H 0.2230 0.2092 0.7006
C2_4 C 0.2788(4) 0.2460(3) 0.8515(6)
C3_4 C 0.3259(4) 0.2406(3) 0.8733(6)
H2_3 H 0.3506 0.2565 0.9418
C4_3 C 0.1971(5) 0.3100(4) 0.9833(7)
H3_3 H 0.1647 0.3123 0.9637
C5_3 C 0.2109(4) 0.2787(3) 0.9078(7)
H4_3 H 0.1873 0.2584 0.8405
C6_3 C 0.2596(4) 0.2767(3) 0.9300(6)
C9_3 C 0.4703(4) 0.2488(3) 0.9125(8)
C10_3 C 0.5309(6) 0.2887(4) 0.9486(11)
H7_3 H 0.5543 0.2734 0.9208
H9_3 H 0.5436 0.3251 0.9095
N4_2 N 0.3781(3) 0.1391(2) 0.6318(5)
N5_3 N 0.3372(4) 0.1104(2) 0.9175(5)
O1_4 O 0.9124(2) 0.7953(3) 0.5107(5)
O2_4 O 0.8493(3) 0.7662(4) 0.3656(6)
N1_5 N 0.7881(2) 0.6647(3) 0.5496(5)
C1_5 C 0.7080(3) 0.5895(4) 0.5926(6)
H1_5 H 0.6805 0.5564 0.6328
C2_5 C 0.6995(3) 0.6122(4) 0.4819(6)
C3_5 C 0.7520(3) 0.6593(4) 0.4601(6)
H2_4 H 0.7608 0.6840 0.3916
C4_4 C 0.5538(3) 0.5305(5) 0.3501(7)
H3_4 H 0.5191 0.4981 0.3697
C5_4 C 0.5989(3) 0.5443(4) 0.4256(7)
H4_4 H 0.5956 0.5207 0.4929
C6_4 C 0.6496(3) 0.5930(4) 0.4034(6)
C7_3 C 0.6508(3) 0.6236(5) 0.3025(8)
H5_3 H 0.6841 0.6575 0.2837
C8_3 C 0.6047(3) 0.6061(5) 0.2280(8)
H6_3 H 0.6077 0.6279 0.1572
C9_4 C 0.8882(3) 0.8037(4) 0.4209(8)
C10_4 C 0.9089(4) 0.8643(6) 0.3848(11)
H7_4 H 0.9476 0.8877 0.4126
H8_2 H 0.9071 0.8670 0.2945
H9_4 H 0.8852 0.8770 0.4239
O1_5 O 0.2047(3) 0.1172(2) 0.5107(5)
O2_5 O 0.2338(4) 0.0832(3) 0.3656(6)
N1_6 N 0.3353(3) 0.1235(2) 0.5496(5)
C1_6 C 0.4105(4) 0.1186(3) 0.5926(6)
H1_6 H 0.4436 0.1242 0.6328
C2_6 C 0.3878(4) 0.0874(3) 0.4819(6)
C3_6 C 0.3407(4) 0.0928(3) 0.4601(6)
H2_5 H 0.3160 0.0769 0.3916
C4_5 C 0.4695(5) 0.0234(4) 0.3501(7)
H3_5 H 0.5019 0.0211 0.3697
C5_5 C 0.4557(4) 0.0547(3) 0.4256(7)
H4_5 H 0.4793 0.0750 0.4929
C6_5 C 0.4070(4) 0.0567(3) 0.4034(6)
C7_4 C 0.3764(5) 0.0273(4) 0.3025(8)
H5_4 H 0.3425 0.0267 0.2837
C9_5 C 0.1963(4) 0.0846(3) 0.4209(8)
C10_5 C 0.1357(6) 0.0447(4) 0.3848(11)
H7_5 H 0.1123 0.0600 0.4126
H8_3 H 0.1330 0.0402 0.2945
H9_5 H 0.1230 0.0083 0.4239
C7_5 C 0.3061(4) 0.0158(3) 0.9691(8)
C8_4 C 0.3347(4) 0.0619(3) 0.8946(8)
H6_4 H 0.3535 0.0589 0.8238
C7_6 C 0.7098(5) 0.6939(4) 0.9691(8)
H5_5 H 0.6759 0.6933 0.9503
C8_5 C 0.7273(5) 0.6653(4) 0.8946(8)
H6_5 H 0.7055 0.6465 0.8238
H8_4 H 0.4664 0.7068 0.9611
Zn2 Zn 0.50997(4) 0.46195(3) 0.87082(8)
N4_3 N 0.5276(2) 0.5724(2) 0.9651(5)
N4_4 N 0.0448(3) 0.4724(2) 0.9651(5)
Zn1_4 Zn 0.12862(3) 0.28531(5) 0.46251(8)
O1_6 O 0.0876(2) 0.2047(3) 0.4893(5)
O2_6 O 0.1507(3) 0.2338(4) 0.6344(6)
N1_7 N 0.2119(2) 0.3353(3) 0.4504(5)
N2_5 N 0.2391(2) 0.3781(3) 0.3682(5)
N3_3 N 0.4438(2) 0.4399(3) 0.7491(5)
C1_7 C 0.2920(3) 0.4105(4) 0.4074(6)
H1_7 H 0.3195 0.4436 0.3672
C2_7 C 0.3005(3) 0.3878(4) 0.5181(6)
C3_7 C 0.2480(3) 0.3407(4) 0.5399(6)
H2_6 H 0.2392 0.3160 0.6084
C4_6 C 0.4462(3) 0.4695(5) 0.6499(7)
H3_6 H 0.4809 0.5019 0.6303
C5_6 C 0.4011(3) 0.4557(4) 0.5744(7)
H4_6 H 0.4044 0.4793 0.5071
C6_6 C 0.3504(3) 0.4070(4) 0.5966(6)
C7_7 C 0.3492(3) 0.3764(5) 0.6975(8)
H5_6 H 0.3159 0.3425 0.7163
C8_6 C 0.3953(3) 0.3939(5) 0.7720(8)
H6_6 H 0.3923 0.3721 0.8428
C9_6 C 0.1118(3) 0.1963(4) 0.5791(8)
C10_6 C 0.0911(4) 0.1357(6) 0.6152(11)
H7_6 H 0.0524 0.1123 0.5874
H8_5 H 0.0929 0.1330 0.7055
H9_6 H 0.1148 0.1230 0.5761
Zn2_2 Zn 0.20472(3) 0.38135(5) 0.20415(8)
N4_5 N 0.0943(2) 0.2885(3) 0.2984(5)
N5_4 N 0.1066(3) 0.3295(4) 0.5842(5)
Zn1_5 Zn 0.71469(5) 0.84330(4) 0.46251(8)
O1_7 O 0.7953(3) 0.8828(2) 0.4893(5)
O2_7 O 0.7662(4) 0.9168(3) 0.6344(6)
N1_8 N 0.6647(3) 0.8765(2) 0.4504(5)
N2_6 N 0.6219(3) 0.8609(2) 0.3682(5)
C1_8 C 0.5895(4) 0.8814(3) 0.4074(6)
H1_8 H 0.5564 0.8758 0.3672
C2_8 C 0.6122(4) 0.9126(3) 0.5181(6)
C3_8 C 0.6593(4) 0.9072(3) 0.5399(6)
H2_7 H 0.6840 0.9231 0.6084
C4_7 C 0.5305(5) 0.9766(4) 0.6499(7)
H3_7 H 0.4981 0.9789 0.6303
C5_7 C 0.5443(4) 0.9453(3) 0.5744(7)
H4_7 H 0.5207 0.9250 0.5071
C6_7 C 0.5930(4) 0.9433(3) 0.5966(6)
C7_8 C 0.6236(5) 0.9727(4) 0.6975(8)
H5_7 H 0.6575 0.9733 0.7163
C9_7 C 0.8037(4) 0.9154(3) 0.5791(8)
C10_7 C 0.8643(6) 0.9553(4) 0.6152(11)
H7_7 H 0.8877 0.9400 0.5874
H8_6 H 0.8670 0.9598 0.7055
H9_7 H 0.8770 0.9917 0.5761
Zn2_3 Zn 0.61865(5) 0.82336(4) 0.20415(8)
N4_6 N 0.7115(3) 0.8057(2) 0.2984(5)
N5_5 N 0.6705(4) 0.7771(2) 0.5842(5)
N3_4 N 0.6628(2) 0.8896(2) 0.0825(5)
C7_9 C 0.6939(4) 0.9842(3) 0.0309(8)
C8_7 C 0.6653(4) 0.9381(3) 0.1054(8)
H6_7 H 0.6465 0.9411 0.1762
N3_5 N 0.2267(3) 0.3372(2) 0.0825(5)
C7_10 C 0.2902(5) 0.3061(4) 0.0309(8)
H5_8 H 0.3241 0.3067 0.0497
C8_8 C 0.2727(5) 0.3347(4) 0.1054(8)
H6_8 H 0.2945 0.3535 0.1762
H8_7 H 0.5336 0.2932 0.0389
O1_8 O 0.5495(2) 0.4209(2) 0.8440(5)
O2_8 O 0.5835(3) 0.4840(3) 0.6989(6)
N1_9 N 0.5432(2) 0.5452(2) 0.8829(5)
C1_9 C 0.5481(3) 0.6253(3) 0.9259(6)
H1_9 H 0.5425 0.6528 0.9661
C2_9 C 0.5793(3) 0.6338(3) 0.8152(6)
C3_9 C 0.5739(3) 0.5813(3) 0.7934(6)
H2_8 H 0.5898 0.5725 0.7249
C4_8 C 0.6433(4) 0.7795(3) 0.6834(7)
H3_8 H 0.6456 0.8142 0.7030
C5_8 C 0.6120(3) 0.7344(3) 0.7589(7)
H4_8 H 0.5917 0.7377 0.8262
C6_8 C 0.6100(3) 0.6837(3) 0.7367(6)
C7_11 C 0.6394(4) 0.6825(3) 0.6358(8)
H5_9 H 0.6400 0.6492 0.6170
C8_9 C 0.6680(4) 0.7286(3) 0.5613(8)
H6_9 H 0.6868 0.7256 0.4905
C9_8 C 0.5821(3) 0.4451(3) 0.7542(8)
C10_8 C 0.6220(4) 0.4244(4) 0.7181(11)
H7_8 H 0.6067 0.3857 0.7459
H8_8 H 0.6265 0.4262 0.6278
H9_8 H 0.6584 0.4481 0.7572
N1_10 N 0.0020(3) 0.4568(2) 0.8829(5)
C1_10 C 0.0772(4) 0.4519(3) 0.9259(6)
H1_10 H 0.1103 0.4575 0.9661
C2_10 C 0.0545(4) 0.4207(3) 0.8152(6)
C3_10 C 0.0074(4) 0.4261(3) 0.7934(6)
C4_9 C 0.1362(5) 0.3567(4) 0.6834(7)
H3_9 H 0.1686 0.3544 0.7030
C5_9 C 0.1224(4) 0.3880(3) 0.7589(7)
H4_9 H 0.1460 0.4083 0.8262
C6_9 C 0.0737(4) 0.3900(3) 0.7367(6)
C7_12 C 0.0431(5) 0.3606(4) 0.6358(8)
H5_10 H 0.0092 0.3600 0.6170
C8_10 C 0.0606(5) 0.3320(4) 0.5613(8)
H6_10 H 0.0388 0.3132 0.4905
O1_9 O 0.2458(2) 0.4619(3) 0.1773(5)
O2_9 O 0.1827(3) 0.4328(4) 0.0322(6)
N1_11 N 0.1215(2) 0.3313(3) 0.2162(5)
C1_11 C 0.0414(3) 0.2561(4) 0.2592(6)
H1_11 H 0.0139 0.2230 0.2994
C2_11 C 0.0329(3) 0.2788(4) 0.1485(6)
C3_11 C 0.0854(3) 0.3259(4) 0.1267(6)
H2_9 H 0.0942 0.3506 0.0582
C9_9 C 0.2216(3) 0.4703(4) 0.0875(8)
C10_9 C 0.2423(4) 0.5309(6) 0.0514(11)
H7_9 H 0.2810 0.5543 0.0792
H9_9 H 0.2186 0.5436 0.0905
O1_10 O 0.5381(3) 0.7838(2) 0.1773(5)
O2_10 O 0.5672(4) 0.7498(3) 0.0322(6)
N1_12 N 0.6687(3) 0.7901(2) 0.2162(5)
C1_12 C 0.7439(4) 0.7852(3) 0.2592(6)
H1_12 H 0.7770 0.7908 0.2994
C2_12 C 0.7212(4) 0.7540(3) 0.1485(6)
C3_12 C 0.6741(4) 0.7594(3) 0.1267(6)
H2_10 H 0.6494 0.7435 0.0582
C4_10 C 0.8029(5) 0.6900(4) 0.0167(7)
H3_10 H 0.8353 0.6877 0.0363
C5_10 C 0.7891(4) 0.7213(3) 0.0922(7)
H4_10 H 0.8127 0.7416 0.1595
C6_10 C 0.7404(4) 0.7233(3) 0.0700(6)
C9_10 C 0.5297(4) 0.7512(3) 0.0875(8)
C10_10 C 0.4691(6) 0.7113(4) 0.0514(11)
H7_10 H 0.4457 0.7266 0.0792
H9_10 H 0.4564 0.6749 0.0905
N1_13 N 0.5452(2) 0.0020(3) 0.1171(5)
N2_7 N 0.5724(2) 0.0448(3) 0.0349(5)
N3_6 N 0.7771(2) 0.1066(3) 0.4158(5)
C1_13 C 0.6253(3) 0.0772(4) 0.0741(6)
H1_13 H 0.6528 0.1103 0.0339
C2_13 C 0.6338(3) 0.0545(4) 0.1848(6)
C3_13 C 0.5813(3) 0.0074(4) 0.2066(6)
C4_11 C 0.7795(3) 0.1362(5) 0.3166(7)
H3_11 H 0.8142 0.1686 0.2970
C5_11 C 0.7344(3) 0.1224(4) 0.2411(7)
H4_11 H 0.7377 0.1460 0.1738
C6_11 C 0.6837(3) 0.0737(4) 0.2633(6)
C7_13 C 0.6825(3) 0.0431(5) 0.3642(8)
H5_11 H 0.6492 0.0092 0.3830
C8_11 C 0.7286(3) 0.0606(5) 0.4387(8)
H6_11 H 0.7256 0.0388 0.5095
Zn3_3 Zn 0.84330(4) 0.12862(6) 0.53749(8)
Zn1_6 Zn 0.82336(4) 0.20472(3) 0.79585(8)
O1_11 O 0.7838(2) 0.2458(2) 0.8227(5)
O2_11 O 0.7498(3) 0.1827(3) 0.9678(6)
N1_14 N 0.7901(2) 0.1215(2) 0.7838(5)
N2_8 N 0.8057(2) 0.0943(2) 0.7016(5)
C1_14 C 0.7852(3) 0.0414(3) 0.7408(6)
H1_14 H 0.7908 0.0139 0.7006
C2_14 C 0.7540(3) 0.0329(3) 0.8515(6)
C3_14 C 0.7594(3) 0.0854(3) 0.8733(6)
H2_11 H 0.7435 0.0942 0.9418
C9_11 C 0.7512(3) 0.2216(3) 0.9125(8)
C10_11 C 0.7113(4) 0.2423(4) 0.9486(11)
H7_11 H 0.7266 0.2810 0.9208
H9_11 H 0.6749 0.2186 0.9095
N4_7 N 0.8609(2) 0.2391(2) 0.6318(5)
N5_6 N 0.8896(2) 0.2267(3) 0.9175(5)
O1_12 O 0.8828(2) 0.0876(2) 0.5107(5)
O2_12 O 0.9168(3) 0.1507(3) 0.3656(6)
N1_15 N 0.8765(2) 0.2119(2) 0.5496(5)
C1_15 C 0.8814(3) 0.2920(3) 0.5926(6)
H1_15 H 0.8758 0.3195 0.6328
C2_15 C 0.9126(3) 0.3005(3) 0.4819(6)
C3_15 C 0.9072(3) 0.2480(3) 0.4601(6)
H2_12 H 0.9231 0.2392 0.3916
C4_12 C 0.9766(4) 0.4462(3) 0.3501(7)
H3_12 H 0.9789 0.4809 0.3697
C5_12 C 0.9453(3) 0.4011(3) 0.4256(7)
H4_12 H 0.9250 0.4044 0.4929
C6_12 C 0.9433(3) 0.3504(3) 0.4034(6)
C7_14 C 0.9727(4) 0.3492(3) 0.3025(8)
H5_12 H 0.9733 0.3159 0.2837
C9_12 C 0.9154(3) 0.1118(3) 0.4209(8)
C10_12 C 0.9553(4) 0.0911(4) 0.3848(11)
H7_12 H 0.9400 0.0524 0.4126
H8_9 H 0.9598 0.0929 0.2945
H9_12 H 0.9917 0.1148 0.4239
C7_15 C 0.9842(3) 0.2902(5) 0.9691(8)
C8_12 C 0.9381(3) 0.2727(5) 0.8946(8)
H6_12 H 0.9411 0.2945 0.8238
Zn2_4 Zn 0.53805(3) 0.04802(5) 0.87082(8)
N3_7 N 0.5601(3) 0.0038(2) 0.7491(5)
C8_13 C 0.6061(5) 0.0013(4) 0.7720(8)
H6_13 H 0.6279 0.0201 0.8428
O1_13 O 0.5791(2) 0.1286(3) 0.8440(5)
O2_13 O 0.5160(3) 0.0995(4) 0.6989(6)
H2_13 H 0.4275 0.0173 0.7249
C9_13 C 0.5549(3) 0.1370(4) 0.7542(8)
C10_13 C 0.5756(4) 0.1976(6) 0.7181(11)
H7_13 H 0.6143 0.2210 0.7459
H8_10 H 0.5738 0.2003 0.6278
H9_13 H 0.5519 0.2103 0.7572
Zn1_7 Zn 0.46195(3) 0.95198(5) 0.12918(8)
O1_14 O 0.4209(2) 0.8714(3) 0.1560(5)
O2_14 O 0.4840(3) 0.9005(4) 0.3011(6)
H2_14 H 0.5725 0.9827 0.2751
C9_14 C 0.4451(3) 0.8630(4) 0.2458(8)
C10_14 C 0.4244(4) 0.8024(6) 0.2819(11)
H7_14 H 0.3857 0.7790 0.2541
H8_11 H 0.4262 0.7997 0.3722
H9_14 H 0.4481 0.7897 0.2428
N5_7 N 0.4399(3) 0.9962(4) 0.2509(5)
C8_14 C 0.3939(5) 0.9987(4) 0.2280(8)
H6_14 H 0.3721 0.9799 0.1572
N4_8 N 0.4276(2) 0.9552(3) 0.9651(5)
Zn1_8 Zn 0.15670(4) 0.87138(3) 0.46251(8)
O1_15 O 0.1172(2) 0.9124(2) 0.4893(5)
O2_15 O 0.0832(3) 0.8493(3) 0.6344(6)
N1_16 N 0.1235(2) 0.7881(2) 0.4504(5)
N2_9 N 0.1391(2) 0.7609(2) 0.3682(5)
C1_16 C 0.1186(3) 0.7080(3) 0.4074(6)
H1_16 H 0.1242 0.6805 0.3672
C2_16 C 0.0874(3) 0.6995(3) 0.5181(6)
C3_16 C 0.0928(3) 0.7520(3) 0.5399(6)
H2_15 H 0.0769 0.7608 0.6084
C4_13 C 0.0234(4) 0.5538(3) 0.6499(7)
H3_13 H 0.0211 0.5191 0.6303
C5_13 C 0.0547(3) 0.5989(3) 0.5744(7)
H4_13 H 0.0750 0.5956 0.5071
C6_13 C 0.0567(3) 0.6496(3) 0.5966(6)
C7_16 C 0.0273(4) 0.6508(3) 0.6975(8)
H5_13 H 0.0267 0.6841 0.7163
C9_15 C 0.0846(3) 0.8882(3) 0.5791(8)
C10_15 C 0.0447(4) 0.9089(4) 0.6152(11)
H7_15 H 0.0600 0.9476 0.5874
H8_12 H 0.0402 0.9071 0.7055
H9_15 H 0.0083 0.8852 0.5761
Zn2_5 Zn 0.17664(4) 0.79528(3) 0.20415(8)
N4_9 N 0.1943(2) 0.9057(2) 0.2984(5)
N5_8 N 0.2229(2) 0.8934(3) 0.5842(5)
N3_8 N 0.1104(2) 0.7733(3) 0.0825(5)
C7_17 C 0.0158(3) 0.7098(5) 0.0309(8)
C8_15 C 0.0619(3) 0.7273(5) 0.1054(8)
H6_15 H 0.0589 0.7055 0.1762
N1_17 N 0.4548(2) 0.9980(3) 0.8829(5)
C1_17 C 0.3747(3) 0.9228(4) 0.9259(6)
H1_17 H 0.3472 0.8897 0.9661
C2_17 C 0.3662(3) 0.9455(4) 0.8152(6)
C3_17 C 0.4187(3) 0.9926(4) 0.7934(6)
C4_14 C 0.2205(3) 0.8638(5) 0.6834(7)
H3_14 H 0.1858 0.8314 0.7030
C5_14 C 0.2656(3) 0.8776(4) 0.7589(7)
H4_14 H 0.2623 0.8540 0.8262
C6_14 C 0.3163(3) 0.9263(4) 0.7367(6)
C7_18 C 0.3175(3) 0.9569(5) 0.6358(8)
H5_14 H 0.3508 0.9908 0.6170
C8_16 C 0.2714(3) 0.9394(5) 0.5613(8)
H6_16 H 0.2744 0.9612 0.4905
O1_16 O 0.2162(2) 0.7542(2) 0.1773(5)
O2_16 O 0.2502(3) 0.8173(3) 0.0322(6)
N1_18 N 0.2099(2) 0.8785(2) 0.2162(5)
C1_18 C 0.2148(3) 0.9586(3) 0.2592(6)
H1_18 H 0.2092 0.9861 0.2994
C2_18 C 0.2460(3) 0.9671(3) 0.1485(6)
C3_18 C 0.2406(3) 0.9146(3) 0.1267(6)
H2_16 H 0.2565 0.9058 0.0582
C9_16 C 0.2488(3) 0.7784(3) 0.0875(8)
C10_16 C 0.2887(4) 0.7577(4) 0.0514(11)
H7_16 H 0.2734 0.7190 0.0792
H9_16 H 0.3251 0.7814 0.0905
Zn1_9 Zn 0.04802(5) 0.50997(4) 0.12918(8)
O1_17 O 0.1286(3) 0.5495(2) 0.1560(5)
O2_17 O 0.0995(4) 0.5835(3) 0.3011(6)
H2_17 H 0.0173 0.5898 0.2751
C9_17 C 0.1370(4) 0.5821(3) 0.2458(8)
C10_17 C 0.1976(6) 0.6220(4) 0.2819(11)
H7_17 H 0.2210 0.6067 0.2541
H8_13 H 0.2003 0.6265 0.3722
H9_17 H 0.2103 0.6584 0.2428
N5_9 N 0.0038(4) 0.4438(2) 0.2509(5)
C8_17 C 0.0013(4) 0.3953(3) 0.2280(8)
H6_17 H 0.0201 0.3923 0.1572
Zn2_6 Zn 0.95198(5) 0.49003(4) 0.87082(8)
N3_9 N 0.9962(2) 0.5562(2) 0.7491(5)
C8_18 C 0.9987(4) 0.6047(3) 0.7720(8)
H6_18 H 0.9799 0.6077 0.8428
O1_18 O 0.8714(3) 0.4505(2) 0.8440(5)
O2_18 O 0.9005(4) 0.4165(3) 0.6989(6)
H2_18 H 0.9827 0.4102 0.7249
C9_18 C 0.8630(4) 0.4179(3) 0.7542(8)
C10_18 C 0.8024(6) 0.3780(4) 0.7181(11)
H7_18 H 0.7790 0.3933 0.7459
H8_14 H 0.7997 0.3735 0.6278
H9_18 H 0.7897 0.3416 0.7572
H5_15 H 0.6933 0.0175 0.0497
H8_15 H 0.7068 0.2405 0.0389
C4_15 C 0.6900(4) 0.8872(3) 0.9833(7)
H3_15 H 0.6877 0.8525 0.9637
C5_15 C 0.7213(3) 0.9323(3) 0.9078(7)
H4_15 H 0.7416 0.9290 0.8405
C6_15 C 0.7233(3) 0.9830(3) 0.9300(6)
C4_16 C 0.1128(3) 0.8029(5) 0.9833(7)
H3_16 H 0.1475 0.8353 0.9637
C5_16 C 0.0677(3) 0.7891(4) 0.9078(7)
H4_16 H 0.0710 0.8127 0.8405
C6_16 C 0.0170(3) 0.7404(4) 0.9300(6)
H5_16 H 0.9825 0.6759 0.0497
H8_16 H 0.7595 0.4664 0.0389
C4_17 C 0.3100(4) 0.1128(3) 0.0167(7)
H3_17 H 0.3123 0.1475 0.0363
C5_17 C 0.2787(3) 0.0677(3) 0.0922(7)
H4_17 H 0.2584 0.0710 0.1595
C6_17 C 0.2767(3) 0.0170(3) 0.0700(6)
H5_17 H 0.3067 0.9825 0.9503
H8_17 H 0.2932 0.7595 0.9611
H5_18 H 0.0175 0.3241 0.9503
H8_18 H 0.2405 0.5336 0.9611
C4_18 C 0.8872(3) 0.1971(5) 0.0167(7)
H3_18 H 0.8525 0.1647 0.0363
C5_18 C 0.9323(3) 0.2109(4) 0.0922(7)
H4_18 H 0.9290 0.1873 0.1595
C6_18 C 0.9830(3) 0.2596(4) 0.0700(6)
loop_
_geom_bond_atom_site_label_1
_geom_bond_atom_site_label_2
_geom_bond_site_symmetry_1
_geom_bond_site_symmetry_2
Zn1 O1 1_555 1_555
O1 C9 1_555 1_555
O2 C9 1_555 1_555
N1 Zn1 1_555 1_555
N2 N1 1_555 1_555
N3 C4 1_555 1_555
C1 N2 1_555 1_555
H1 C1 1_555 1_555
C2 C1 1_555 1_555
C3 N1 1_555 1_555
H2 C3 1_555 1_555
C4 H3 1_555 1_555
C5 C4 1_555 1_555
H4 C5 1_555 1_555
C6 C2 1_555 1_555
C7 C6 1_555 1_555
H5 C7 1_555 1_555
C8 N3 1_555 1_555
H6 C8 1_555 1_555
C9 C10 1_555 1_555
C10 H7 1_555 1_555
H8 C10 1_555 1_555
H9 C10 1_555 1_555
Zn3 N3 1_555 1_555
N5 Zn1 1_555 1_555
C2 C3 1_555 1_555
C5 C6 1_555 1_555
C7 C8 1_555 1_555
N2_2 N1_2 1_555 1_555
N3_2 C4_2 1_555 1_555
C1_2 N2_2 1_555 1_555
H1_2 C1_2 1_555 1_555
C2_2 C1_2 1_555 1_555
C3_2 N1_2 1_555 1_555
C4_2 H3_2 1_555 1_555
C5_2 C4_2 1_555 1_555
H4_2 C5_2 1_555 1_555
C6_2 C2_2 1_555 1_555
C7_2 C6_2 1_555 1_555
H5_2 C7_2 1_555 1_555
C8_2 N3_2 1_555 1_555
H6_2 C8_2 1_555 1_555
Zn3_2 N3_2 1_555 1_555
C2_2 C3_2 1_555 1_555
C5_2 C6_2 1_555 1_555
C7_2 C8_2 1_555 1_555
Zn1_2 O1_2 1_555 1_555
O1_2 C9_2 1_555 1_555
O2_2 C9_2 1_555 1_555
N1_3 Zn1_2 1_555 1_555
N2_3 N1_3 1_555 1_555
C1_3 N2_3 1_555 1_555
H1_3 C1_3 1_555 1_555
C2_3 C1_3 1_555 1_555
C3_3 N1_3 1_555 1_555
H2_2 C3_3 1_555 1_555
C9_2 C10_2 1_555 1_555
C10_2 H7_2 1_555 1_555
H9_2 C10_2 1_555 1_555
Zn3_2 N2_3 1_555 1_555
N4 Zn1_2 1_555 1_555
N5_2 Zn1_2 1_555 1_555
C2_3 C3_3 1_555 1_555
Zn1_3 O1_3 1_555 1_555
O1_3 C9_3 1_555 1_555
O2_3 C9_3 1_555 1_555
N1_4 Zn1_3 1_555 1_555
N2_4 N1_4 1_555 1_555
C1_4 N2_4 1_555 1_555
H1_4 C1_4 1_555 1_555
C2_4 C1_4 1_555 1_555
C3_4 N1_4 1_555 1_555
H2_3 C3_4 1_555 1_555
C4_3 H3_3 1_555 1_555
C5_3 C4_3 1_555 1_555
H4_3 C5_3 1_555 1_555
C6_3 C2_4 1_555 1_555
C9_3 C10_3 1_555 1_555
C10_3 H7_3 1_555 1_555
H9_3 C10_3 1_555 1_555
Zn3 N2_4 1_555 1_555
N4_2 Zn1_3 1_555 1_555
N5_3 Zn1_3 1_555 1_555
C2_4 C3_4 1_555 1_555
C5_3 C6_3 1_555 1_555
Zn3_2 O1_4 1_555 1_555
O1_4 C9_4 1_555 1_555
O2_4 C9_4 1_555 1_555
N1_5 Zn3_2 1_555 1_555
N4 N1_5 1_555 1_555
N5 C4_4 1_555 1_555
C1_5 N4 1_555 1_555
H1_5 C1_5 1_555 1_555
C2_5 C1_5 1_555 1_555
C3_5 N1_5 1_555 1_555
H2_4 C3_5 1_555 1_555
C4_4 H3_4 1_555 1_555
C5_4 C4_4 1_555 1_555
H4_4 C5_4 1_555 1_555
C6_4 C2_5 1_555 1_555
C7_3 C6_4 1_555 1_555
H5_3 C7_3 1_555 1_555
C8_3 N5 1_555 1_555
H6_3 C8_3 1_555 1_555
C9_4 C10_4 1_555 1_555
C10_4 H7_4 1_555 1_555
H8_2 C10_4 1_555 1_555
H9_4 C10_4 1_555 1_555
C2_5 C3_5 1_555 1_555
C5_4 C6_4 1_555 1_555
C7_3 C8_3 1_555 1_555
Zn3 O1_5 1_555 1_555
O1_5 C9_5 1_555 1_555
O2_5 C9_5 1_555 1_555
N1_6 Zn3 1_555 1_555
N4_2 N1_6 1_555 1_555
C1_6 N4_2 1_555 1_555
H1_6 C1_6 1_555 1_555
C2_6 C1_6 1_555 1_555
C3_6 N1_6 1_555 1_555
H2_5 C3_6 1_555 1_555
C4_5 H3_5 1_555 1_555
C5_5 C4_5 1_555 1_555
H4_5 C5_5 1_555 1_555
C6_5 C2_6 1_555 1_555
C7_4 C6_5 1_555 1_555
H5_4 C7_4 1_555 1_555
C9_5 C10_5 1_555 1_555
C10_5 H7_5 1_555 1_555
H8_3 C10_5 1_555 1_555
H9_5 C10_5 1_555 1_555
C2_6 C3_6 1_555 1_555
C5_5 C6_5 1_555 1_555
C8_4 N5_3 1_555 1_555
H6_4 C8_4 1_555 1_555
C7_5 C8_4 1_555 1_555
H5_5 C7_6 1_555 1_555
C8_5 N5_2 1_555 1_555
H6_5 C8_5 1_555 1_555
C7_6 C8_5 1_555 1_555
Zn1_4 O1_6 1_555 1_555
O1_6 C9_6 1_555 1_555
O2_6 C9_6 1_555 1_555
N1_7 Zn1_4 1_555 1_555
N2_5 N1_7 1_555 1_555
N3_3 C4_6 1_555 1_555
C1_7 N2_5 1_555 1_555
H1_7 C1_7 1_555 1_555
C2_7 C1_7 1_555 1_555
C3_7 N1_7 1_555 1_555
H2_6 C3_7 1_555 1_555
C4_6 H3_6 1_555 1_555
C5_6 C4_6 1_555 1_555
H4_6 C5_6 1_555 1_555
C6_6 C2_7 1_555 1_555
C7_7 C6_6 1_555 1_555
H5_6 C7_7 1_555 1_555
C8_6 N3_3 1_555 1_555
H6_6 C8_6 1_555 1_555
C9_6 C10_6 1_555 1_555
C10_6 H7_6 1_555 1_555
H8_5 C10_6 1_555 1_555
H9_6 C10_6 1_555 1_555
Zn2_2 N2_5 1_555 1_555
Zn2 N3_3 1_555 1_555
N4_5 Zn1_4 1_555 1_555
N5_4 Zn1_4 1_555 1_555
C2_7 C3_7 1_555 1_555
C5_6 C6_6 1_555 1_555
C7_7 C8_6 1_555 1_555
Zn1_5 O1_7 1_555 1_555
O1_7 C9_7 1_555 1_555
O2_7 C9_7 1_555 1_555
N1_8 Zn1_5 1_555 1_555
N2_6 N1_8 1_555 1_555
C1_8 N2_6 1_555 1_555
H1_8 C1_8 1_555 1_555
C2_8 C1_8 1_555 1_555
C3_8 N1_8 1_555 1_555
H2_7 C3_8 1_555 1_555
C4_7 H3_7 1_555 1_555
C5_7 C4_7 1_555 1_555
H4_7 C5_7 1_555 1_555
C6_7 C2_8 1_555 1_555
C7_8 C6_7 1_555 1_555
H5_7 C7_8 1_555 1_555
C9_7 C10_7 1_555 1_555
C10_7 H7_7 1_555 1_555
H8_6 C10_7 1_555 1_555
H9_7 C10_7 1_555 1_555
Zn2_3 N2_6 1_555 1_555
N4_6 Zn1_5 1_555 1_555
N5_5 Zn1_5 1_555 1_555
C2_8 C3_8 1_555 1_555
C5_7 C6_7 1_555 1_555
C8_7 N3_4 1_555 1_555
H6_7 C8_7 1_555 1_555
Zn2_3 N3_4 1_555 1_555
C7_9 C8_7 1_555 1_555
H5_8 C7_10 1_555 1_555
C8_8 N3_5 1_555 1_555
H6_8 C8_8 1_555 1_555
Zn2_2 N3_5 1_555 1_555
C7_10 C8_8 1_555 1_555
Zn2 O1_8 1_555 1_555
O1_8 C9_8 1_555 1_555
O2_8 C9_8 1_555 1_555
N1_9 Zn2 1_555 1_555
N4_3 N1_9 1_555 1_555
N5_5 C4_8 1_555 1_555
C1_9 N4_3 1_555 1_555
H1_9 C1_9 1_555 1_555
C2_9 C1_9 1_555 1_555
C3_9 N1_9 1_555 1_555
H2_8 C3_9 1_555 1_555
C4_8 H3_8 1_555 1_555
C5_8 C4_8 1_555 1_555
H4_8 C5_8 1_555 1_555
C6_8 C2_9 1_555 1_555
C7_11 C6_8 1_555 1_555
H5_9 C7_11 1_555 1_555
C8_9 N5_5 1_555 1_555
H6_9 C8_9 1_555 1_555
C9_8 C10_8 1_555 1_555
C10_8 H7_8 1_555 1_555
H8_8 C10_8 1_555 1_555
H9_8 C10_8 1_555 1_555
C2_9 C3_9 1_555 1_555
C5_8 C6_8 1_555 1_555
C7_11 C8_9 1_555 1_555
N4_4 N1_10 1_555 1_555
N5_4 C4_9 1_555 1_555
C1_10 N4_4 1_555 1_555
H1_10 C1_10 1_555 1_555
C2_10 C1_10 1_555 1_555
C3_10 N1_10 1_555 1_555
C4_9 H3_9 1_555 1_555
C5_9 C4_9 1_555 1_555
H4_9 C5_9 1_555 1_555
C6_9 C2_10 1_555 1_555
C7_12 C6_9 1_555 1_555
H5_10 C7_12 1_555 1_555
C8_10 N5_4 1_555 1_555
H6_10 C8_10 1_555 1_555
C2_10 C3_10 1_555 1_555
C5_9 C6_9 1_555 1_555
C7_12 C8_10 1_555 1_555
Zn2_2 O1_9 1_555 1_555
O1_9 C9_9 1_555 1_555
O2_9 C9_9 1_555 1_555
N1_11 Zn2_2 1_555 1_555
N4_5 N1_11 1_555 1_555
C1_11 N4_5 1_555 1_555
H1_11 C1_11 1_555 1_555
C2_11 C1_11 1_555 1_555
C3_11 N1_11 1_555 1_555
H2_9 C3_11 1_555 1_555
C9_9 C10_9 1_555 1_555
C10_9 H7_9 1_555 1_555
H9_9 C10_9 1_555 1_555
C2_11 C3_11 1_555 1_555
Zn2_3 O1_10 1_555 1_555
O1_10 C9_10 1_555 1_555
O2_10 C9_10 1_555 1_555
N1_12 Zn2_3 1_555 1_555
N4_6 N1_12 1_555 1_555
C1_12 N4_6 1_555 1_555
H1_12 C1_12 1_555 1_555
C2_12 C1_12 1_555 1_555
C3_12 N1_12 1_555 1_555
H2_10 C3_12 1_555 1_555
C4_10 H3_10 1_555 1_555
C5_10 C4_10 1_555 1_555
H4_10 C5_10 1_555 1_555
C6_10 C2_12 1_555 1_555
C9_10 C10_10 1_555 1_555
C10_10 H7_10 1_555 1_555
H9_10 C10_10 1_555 1_555
C2_12 C3_12 1_555 1_555
C5_10 C6_10 1_555 1_555
N2_7 N1_13 1_555 1_555
N3_6 C4_11 1_555 1_555
C1_13 N2_7 1_555 1_555
H1_13 C1_13 1_555 1_555
C2_13 C1_13 1_555 1_555
C3_13 N1_13 1_555 1_555
C4_11 H3_11 1_555 1_555
C5_11 C4_11 1_555 1_555
H4_11 C5_11 1_555 1_555
C6_11 C2_13 1_555 1_555
C7_13 C6_11 1_555 1_555
H5_11 C7_13 1_555 1_555
C8_11 N3_6 1_555 1_555
H6_11 C8_11 1_555 1_555
Zn3_3 N3_6 1_555 1_555
C2_13 C3_13 1_555 1_555
C5_11 C6_11 1_555 1_555
C7_13 C8_11 1_555 1_555
Zn1_6 O1_11 1_555 1_555
O1_11 C9_11 1_555 1_555
O2_11 C9_11 1_555 1_555
N1_14 Zn1_6 1_555 1_555
N2_8 N1_14 1_555 1_555
C1_14 N2_8 1_555 1_555
H1_14 C1_14 1_555 1_555
C2_14 C1_14 1_555 1_555
C3_14 N1_14 1_555 1_555
H2_11 C3_14 1_555 1_555
C9_11 C10_11 1_555 1_555
C10_11 H7_11 1_555 1_555
H9_11 C10_11 1_555 1_555
Zn3_3 N2_8 1_555 1_555
N4_7 Zn1_6 1_555 1_555
N5_6 Zn1_6 1_555 1_555
C2_14 C3_14 1_555 1_555
Zn3_3 O1_12 1_555 1_555
O1_12 C9_12 1_555 1_555
O2_12 C9_12 1_555 1_555
N1_15 Zn3_3 1_555 1_555
N4_7 N1_15 1_555 1_555
C1_15 N4_7 1_555 1_555
H1_15 C1_15 1_555 1_555
C2_15 C1_15 1_555 1_555
C3_15 N1_15 1_555 1_555
H2_12 C3_15 1_555 1_555
C4_12 H3_12 1_555 1_555
C5_12 C4_12 1_555 1_555
H4_12 C5_12 1_555 1_555
C6_12 C2_15 1_555 1_555
C7_14 C6_12 1_555 1_555
H5_12 C7_14 1_555 1_555
C9_12 C10_12 1_555 1_555
C10_12 H7_12 1_555 1_555
H8_9 C10_12 1_555 1_555
H9_12 C10_12 1_555 1_555
C2_15 C3_15 1_555 1_555
C5_12 C6_12 1_555 1_555
C8_12 N5_6 1_555 1_555
H6_12 C8_12 1_555 1_555
C7_15 C8_12 1_555 1_555
C8_13 N3_7 1_555 1_555
H6_13 C8_13 1_555 1_555
Zn2_4 N3_7 1_555 1_555
Zn2_4 O1_13 1_555 1_555
O1_13 C9_13 1_555 1_555
O2_13 C9_13 1_555 1_555
C9_13 C10_13 1_555 1_555
C10_13 H7_13 1_555 1_555
H8_10 C10_13 1_555 1_555
H9_13 C10_13 1_555 1_555
Zn1_7 O1_14 1_555 1_555
O1_14 C9_14 1_555 1_555
O2_14 C9_14 1_555 1_555
C9_14 C10_14 1_555 1_555
C10_14 H7_14 1_555 1_555
H8_11 C10_14 1_555 1_555
H9_14 C10_14 1_555 1_555
N5_7 Zn1_7 1_555 1_555
C8_14 N5_7 1_555 1_555
H6_14 C8_14 1_555 1_555
Zn1_8 O1_15 1_555 1_555
O1_15 C9_15 1_555 1_555
O2_15 C9_15 1_555 1_555
N1_16 Zn1_8 1_555 1_555
N2_9 N1_16 1_555 1_555
C1_16 N2_9 1_555 1_555
H1_16 C1_16 1_555 1_555
C2_16 C1_16 1_555 1_555
C3_16 N1_16 1_555 1_555
H2_15 C3_16 1_555 1_555
C4_13 H3_13 1_555 1_555
C5_13 C4_13 1_555 1_555
H4_13 C5_13 1_555 1_555
C6_13 C2_16 1_555 1_555
C7_16 C6_13 1_555 1_555
H5_13 C7_16 1_555 1_555
C9_15 C10_15 1_555 1_555
C10_15 H7_15 1_555 1_555
H8_12 C10_15 1_555 1_555
H9_15 C10_15 1_555 1_555
Zn2_5 N2_9 1_555 1_555
N4_9 Zn1_8 1_555 1_555
N5_8 Zn1_8 1_555 1_555
C2_16 C3_16 1_555 1_555
C5_13 C6_13 1_555 1_555
C8_15 N3_8 1_555 1_555
H6_15 C8_15 1_555 1_555
Zn2_5 N3_8 1_555 1_555
C7_17 C8_15 1_555 1_555
N4_8 N1_17 1_555 1_555
N5_8 C4_14 1_555 1_555
C1_17 N4_8 1_555 1_555
H1_17 C1_17 1_555 1_555
C2_17 C1_17 1_555 1_555
C3_17 N1_17 1_555 1_555
C4_14 H3_14 1_555 1_555
C5_14 C4_14 1_555 1_555
H4_14 C5_14 1_555 1_555
C6_14 C2_17 1_555 1_555
C7_18 C6_14 1_555 1_555
H5_14 C7_18 1_555 1_555
C8_16 N5_8 1_555 1_555
H6_16 C8_16 1_555 1_555
C2_17 C3_17 1_555 1_555
C5_14 C6_14 1_555 1_555
C7_18 C8_16 1_555 1_555
Zn2_5 O1_16 1_555 1_555
O1_16 C9_16 1_555 1_555
O2_16 C9_16 1_555 1_555
N1_18 Zn2_5 1_555 1_555
N4_9 N1_18 1_555 1_555
C1_18 N4_9 1_555 1_555
H1_18 C1_18 1_555 1_555
C2_18 C1_18 1_555 1_555
C3_18 N1_18 1_555 1_555
H2_16 C3_18 1_555 1_555
C9_16 C10_16 1_555 1_555
C10_16 H7_16 1_555 1_555
H9_16 C10_16 1_555 1_555
C2_18 C3_18 1_555 1_555
Zn1_9 O1_17 1_555 1_555
O1_17 C9_17 1_555 1_555
O2_17 C9_17 1_555 1_555
C9_17 C10_17 1_555 1_555
C10_17 H7_17 1_555 1_555
H8_13 C10_17 1_555 1_555
H9_17 C10_17 1_555 1_555
N5_9 Zn1_9 1_555 1_555
C8_17 N5_9 1_555 1_555
H6_17 C8_17 1_555 1_555
C8_18 N3_9 1_555 1_555
H6_18 C8_18 1_555 1_555
Zn2_6 N3_9 1_555 1_555
Zn2_6 O1_18 1_555 1_555
O1_18 C9_18 1_555 1_555
O2_18 C9_18 1_555 1_555
C9_18 C10_18 1_555 1_555
C10_18 H7_18 1_555 1_555
H8_14 C10_18 1_555 1_555
H9_18 C10_18 1_555 1_555
C4_15 H3_15 1_555 1_555
C5_15 C4_15 1_555 1_555
H4_15 C5_15 1_555 1_555
C5_15 C6_15 1_555 1_555
C4_16 H3_16 1_555 1_555
C5_16 C4_16 1_555 1_555
H4_16 C5_16 1_555 1_555
C5_16 C6_16 1_555 1_555
C4_17 H3_17 1_555 1_555
C5_17 C4_17 1_555 1_555
H4_17 C5_17 1_555 1_555
C5_17 C6_17 1_555 1_555
C4_18 H3_18 1_555 1_555
C5_18 C4_18 1_555 1_555
H4_18 C5_18 1_555 1_555
C5_18 C6_18 1_555 1_555

#END
