
###############################################################################
#
# This file contains modified crystal structure data generated from the
# MOF subset of the Cambridge Structural Database (CSD) v543 
# hosted by the Cambridge Crystallographic Data Centre (CCDC).
#
# This work is licensed under the Creative Commons
# Attribution-NonCommercial-ShareAlike 4.0 International License.
# To view a copy of this license, visit
# http://creativecommons.org/licenses/by-nc-sa/4.0/
# or send a letter to
# Creative Commons, PO Box 1866, Mountain View, CA 94042, USA.
#
# CIF created using the CSD Python API on 29 September 2022
# The structure has been converted into the P1 space group
# The structure has a 3D framework
# The original CSD entry XEZRIG is in the monoclinic crystal system
# The framework has been calculated to contain at least 10.0% void space
# The void calculation uses a probe of radius 1.32A, grid spacing 0.4
# H atom positions have been added when not included in the experimental data
#
###############################################################################

data_XEZRIG
_chemical_formula_moiety         '(C224 H184 N32 O60 Tb4)n'
_symmetry_cell_setting           triclinic
_symmetry_space_group_name_H-M   'P 1'
_symmetry_Int_Tables_number      1
_space_group_name_Hall           'P 1'
loop_
_symmetry_equiv_pos_site_id
_symmetry_equiv_pos_as_xyz
1 x,y,z
_cell_length_a                   33.4472(10)
_cell_length_b                   9.8343(3)
_cell_length_c                   27.7879(10)
_cell_angle_alpha                90
_cell_angle_beta                 109.401(3)
_cell_angle_gamma                90
_cell_volume                     8621.26
loop_
_atom_site_label
_atom_site_type_symbol
_atom_site_fract_x
_atom_site_fract_y
_atom_site_fract_z
O9 O 0.05968(8) 0.0387(3) 0.07512(10)
O12 O 0.02558(10) 0.0870(3) 0.96892(11)
Tb1 Tb 0.05340(2) 0.88699(2) 0.00869(2)
H2 H 0.1656 0.6465 0.0216
C2 C 0.0595(3) 0.4641(8) 0.0405(3)
H4 H 0.0321 0.5057 0.0331
H5 H 0.0730 0.4580 0.0768
H6 H 0.0562 0.3745 0.0259
C17 C 0.1348(3) 0.3708(10) 0.0474(4)
H14 H 0.1210 0.2948 0.0269
H15 H 0.1310 0.3662 0.0801
H16 H 0.1645 0.3686 0.0519
C21 C 0.0872(4) 0.5515(11) 0.0173(4)
N4 N 0.1162(3) 0.4991(10) 0.0215(3)
O10 O 0.12143(8) 0.9897(4) 0.01981(12)
O11 O 0.02422(9) 0.7600(3) 0.06115(12)
O13 O 0.12055(8) 0.8320(3) 0.07506(11)
C1 C 0.1455(3) 0.5938(9) 0.9955(4)
H1 H 0.1605 0.5353 0.9796
H3 H 0.1274 0.6537 0.9704
H9 H 0.0061 0.3931 0.6234
O1 O 0.07104(17) 0.8840(5) 0.9273(2)
O3 O 0.07267(10) 0.6671(3) 0.99308(13)
O5 O 0.02422(9) 0.2400(3) 0.56115(12)
Tb4 Tb 0.05340(2) 0.11301(2) 0.50869(2)
H22 H 0.0517295 0.82016 0.902671
H23 H 0.0675134 0.976788 0.912376
Tb3 Tb 0.94660(2) 0.11301(2) 0.99131(2)
C3 C 0.93891(11) 0.7956(4) 0.86345(14)
C4 C 0.75403(13) 0.4701(7) 0.5886(2)
H7 H 0.7696 0.4122 0.5751
C5 C 0.75074(14) 0.6303(6) 0.6503(2)
H8 H 0.7640 0.6825 0.6791
C6 C 0.88512(11) 0.4688(5) 0.65562(15)
C7 C 0.97809(13) 0.3663(4) 0.61695(18)
C8 C 0.94182(12) 0.6368(5) 0.79892(17)
H10 H 0.9571 0.5735 0.7872
C9 C 0.77448(11) 0.5460(5) 0.63112(16)
C10 C 0.90028(11) 0.6691(5) 0.76956(14)
N1 N 0.84311(9) 0.4671(4) 0.63245(13)
C11 C 0.88014(11) 0.5998(4) 0.71989(16)
C12 C 0.91957(12) 0.2251(5) 0.57297(17)
H11 H 0.9080 0.1546 0.5503
C13 C 0.91160(11) 0.3964(4) 0.63087(15)
C14 C 0.71055(13) 0.4787(6) 0.5656(2)
H12 H 0.6971 0.4256 0.5372
C15 C 0.70725(14) 0.6386(6) 0.6272(2)
H13 H 0.6916 0.6950 0.6411
C16 C 0.95961(12) 0.8642(4) 0.91411(14)
N2 N 0.90523(9) 0.5322(4) 0.69946(13)
C18 C 0.68698(11) 0.5650(5) 0.58439(16)
C19 C 0.98897(13) 0.1911(4) 0.55715(14)
C20 C 0.96152(11) 0.2612(4) 0.58308(15)
O2 O 0.94032(8) 0.9613(3) 0.92488(10)
C22 C 0.64019(12) 0.5812(5) 0.55832(16)
N3 N 0.83805(10) 0.6088(4) 0.69899(13)
O4 O 0.62143(8) 0.5103(4) 0.51981(12)
O6 O 0.99493(8) 0.8171(3) 0.94121(10)
O7 O 0.97442(10) 0.0870(3) 0.53108(11)
O8 O 0.62055(8) 0.6680(3) 0.57506(11)
C23 C 0.96013(12) 0.6996(5) 0.84550(16)
H17 H 0.9876 0.6760 0.8653
C24 C 0.87840(11) 0.7644(5) 0.78815(15)
H18 H 0.8505 0.7860 0.7692
C25 C 0.95368(13) 0.4318(5) 0.64123(19)
H19 H 0.9656 0.5003 0.6647
C26 C 0.89763(12) 0.8270(5) 0.83428(15)
H20 H 0.8827 0.8913 0.8461
C27 C 0.89461(12) 0.2919(5) 0.59609(17)
H21 H 0.8663 0.2673 0.5885
C28 C 0.82112(11) 0.5391(5) 0.65557(15)
Tb5 Tb 0.55340(2) 0.61301(2) 0.50869(2)
Tb2 Tb 0.94660(2) 0.88699(2) 0.49131(2)
C3_2 C 0.06109(11) 0.7956(4) 0.63655(14)
C4_2 C 0.24597(13) 0.4701(7) 0.9114(2)
H7_2 H 0.2304 0.4122 0.9249
C5_2 C 0.24926(14) 0.6303(6) 0.8497(2)
H8_2 H 0.2360 0.6825 0.8209
C6_2 C 0.11488(11) 0.4688(5) 0.84438(15)
C7_2 C 0.02191(13) 0.3663(4) 0.88305(18)
C8_2 C 0.05818(12) 0.6368(5) 0.70108(17)
H10_2 H 0.0429 0.5735 0.7128
C9_2 C 0.22552(11) 0.5460(5) 0.86888(16)
C10_2 C 0.09972(11) 0.6691(5) 0.73044(14)
N1_2 N 0.15689(9) 0.4671(4) 0.86755(13)
C11_2 C 0.11986(11) 0.5998(4) 0.78011(16)
C12_2 C 0.08043(12) 0.2251(5) 0.92703(17)
H11_2 H 0.0920 0.1546 0.9497
C13_2 C 0.08840(11) 0.3964(4) 0.86913(15)
C14_2 C 0.28945(13) 0.4787(6) 0.9344(2)
H12_2 H 0.3029 0.4256 0.9628
C15_2 C 0.29275(14) 0.6386(6) 0.8728(2)
H13_2 H 0.3084 0.6950 0.8589
C16_2 C 0.04039(12) 0.8642(4) 0.58589(14)
N2_2 N 0.09477(9) 0.5322(4) 0.80054(13)
C18_2 C 0.31302(11) 0.5650(5) 0.91561(16)
C19_2 C 0.01103(13) 0.1911(4) 0.94285(14)
C20_2 C 0.03848(11) 0.2612(4) 0.91692(15)
O2_2 O 0.05968(8) 0.9613(3) 0.57512(10)
C22_2 C 0.35981(12) 0.5812(5) 0.94168(16)
N3_2 N 0.16195(10) 0.6088(4) 0.80101(13)
O4_2 O 0.37857(8) 0.5103(4) 0.98019(12)
O6_2 O 0.00507(8) 0.8171(3) 0.55879(10)
O8_2 O 0.37945(8) 0.6680(3) 0.92494(11)
C23_2 C 0.03987(12) 0.6996(5) 0.65450(16)
H17_2 H 0.0124 0.6760 0.6347
C24_2 C 0.12160(11) 0.7644(5) 0.71185(15)
H18_2 H 0.1495 0.7860 0.7308
C25_2 C 0.04632(13) 0.4318(5) 0.85877(19)
H19_2 H 0.0344 0.5003 0.8353
C26_2 C 0.10237(12) 0.8270(5) 0.66572(15)
H20_2 H 0.1173 0.8913 0.6539
C27_2 C 0.10539(12) 0.2919(5) 0.90391(17)
H21_2 H 0.1337 0.2673 0.9115
C28_2 C 0.17888(11) 0.5391(5) 0.84443(15)
Tb5_2 Tb 0.44660(2) 0.61301(2) 0.99131(2)
O9_2 O 0.94032(8) 0.0387(3) 0.42488(10)
C1_2 C 0.8545(3) 0.5938(9) 0.5045(4)
H1_2 H 0.8395 0.5353 0.5204
H2_2 H 0.8344 0.6465 0.4784
H3_2 H 0.8726 0.6537 0.5296
C2_2 C 0.9405(3) 0.4641(8) 0.4595(3)
H4_2 H 0.9679 0.5057 0.4669
H5_2 H 0.9270 0.4580 0.4232
H6_2 H 0.9438 0.3745 0.4741
H9_2 H 0.9939 0.3931 0.8766
C17_2 C 0.8652(3) 0.3708(10) 0.4526(4)
H14_2 H 0.8790 0.2948 0.4731
H15_2 H 0.8690 0.3662 0.4199
H16_2 H 0.8355 0.3686 0.4481
O1_2 O 0.92896(17) 0.8840(5) 0.5727(2)
C21_2 C 0.9128(4) 0.5515(11) 0.4827(4)
O3_2 O 0.92733(10) 0.6671(3) 0.50692(13)
N4_2 N 0.8838(3) 0.4991(10) 0.4785(3)
O5_2 O 0.97578(9) 0.2400(3) 0.93885(12)
O10_2 O 0.87857(8) 0.9897(4) 0.48019(12)
O11_2 O 0.97578(9) 0.7600(3) 0.43885(12)
O13_2 O 0.87945(8) 0.8320(3) 0.42494(11)
H22_2 H 0.948271 0.82016 0.597329
H23_2 H 0.932487 0.976788 0.587624
Tb1_2 Tb 0.55340(2) 0.38699(2) 0.00869(2)
H2_3 H 0.6656 0.1465 0.0216
H4_3 H 0.5321 0.0057 0.0331
C21_3 C 0.5872(4) 0.0515(11) 0.0173(4)
O9_3 O 0.55968(8) 0.5387(3) 0.07512(10)
O10_3 O 0.62143(8) 0.4897(4) 0.01981(12)
O11_3 O 0.52422(9) 0.2600(3) 0.06115(12)
O13_3 O 0.62055(8) 0.3320(3) 0.07506(11)
C1_3 C 0.6455(3) 0.0938(9) 0.9955(4)
H1_3 H 0.6605 0.0353 0.9796
H3_3 H 0.6274 0.1537 0.9704
C3_3 C 0.43891(11) 0.2956(4) 0.86345(14)
C5_3 C 0.25074(14) 0.1303(6) 0.6503(2)
H8_3 H 0.2640 0.1825 0.6791
C8_3 C 0.44182(12) 0.1368(5) 0.79892(17)
H10_3 H 0.4571 0.0735 0.7872
C9_3 C 0.27448(11) 0.0460(5) 0.63112(16)
C10_3 C 0.40028(11) 0.1691(5) 0.76956(14)
C11_3 C 0.38014(11) 0.0998(4) 0.71989(16)
C15_3 C 0.20725(14) 0.1386(6) 0.6272(2)
H13_3 H 0.1916 0.1950 0.6411
C16_3 C 0.45961(12) 0.3642(4) 0.91411(14)
N2_3 N 0.40523(9) 0.0322(4) 0.69946(13)
C18_3 C 0.18698(11) 0.0650(5) 0.58439(16)
O1_3 O 0.57104(17) 0.3840(5) 0.9273(2)
O2_3 O 0.44032(8) 0.4613(3) 0.92488(10)
C22_3 C 0.14019(12) 0.0812(5) 0.55832(16)
N3_3 N 0.33805(10) 0.1088(4) 0.69899(13)
O3_3 O 0.57267(10) 0.1671(3) 0.99308(13)
O4_3 O 0.12143(8) 0.0103(4) 0.51981(12)
O6_3 O 0.49493(8) 0.3171(3) 0.94121(10)
O8_3 O 0.12055(8) 0.1680(3) 0.57506(11)
C23_3 C 0.46013(12) 0.1996(5) 0.84550(16)
H17_3 H 0.4876 0.1760 0.8653
C24_3 C 0.37840(11) 0.2644(5) 0.78815(15)
H18_3 H 0.3505 0.2860 0.7692
H19_3 H 0.4656 0.0003 0.6647
C26_3 C 0.39763(12) 0.3270(5) 0.83428(15)
H20_3 H 0.3827 0.3913 0.8461
C28_3 C 0.32112(11) 0.0391(5) 0.65557(15)
O12_2 O 0.52558(10) 0.5870(3) 0.96892(11)
H22_3 H 0.551729 0.32016 0.902671
H23_3 H 0.567513 0.476788 0.912376
C4_3 C 0.25403(13) 0.9701(7) 0.5886(2)
H7_3 H 0.2696 0.9122 0.5751
C6_3 C 0.38512(11) 0.9688(5) 0.65562(15)
C7_3 C 0.47809(13) 0.8663(4) 0.61695(18)
H9_3 H 0.5061 0.8931 0.6234
N1_3 N 0.34311(9) 0.9671(4) 0.63245(13)
C12_3 C 0.41957(12) 0.7251(5) 0.57297(17)
H11_3 H 0.4080 0.6546 0.5503
C13_3 C 0.41160(11) 0.8964(4) 0.63087(15)
C14_3 C 0.21055(13) 0.9787(6) 0.5656(2)
H12_3 H 0.1971 0.9256 0.5372
C19_3 C 0.48897(13) 0.6911(4) 0.55715(14)
C20_3 C 0.46152(11) 0.7612(4) 0.58308(15)
O5_3 O 0.52422(9) 0.7400(3) 0.56115(12)
O7_2 O 0.47442(10) 0.5870(3) 0.53108(11)
C25_3 C 0.45368(13) 0.9318(5) 0.64123(19)
C27_3 C 0.39461(12) 0.7919(5) 0.59609(17)
H21_3 H 0.3663 0.7673 0.5885
Tb2_2 Tb 0.44660(2) 0.38699(2) 0.49131(2)
C1_4 C 0.3545(3) 0.0938(9) 0.5045(4)
H1_4 H 0.3395 0.0353 0.5204
H2_4 H 0.3344 0.1465 0.4784
H3_4 H 0.3726 0.1537 0.5296
H4_4 H 0.4679 0.0057 0.4669
C3_4 C 0.56109(11) 0.2956(4) 0.63655(14)
C5_4 C 0.74926(14) 0.1303(6) 0.8497(2)
H8_4 H 0.7360 0.1825 0.8209
C8_4 C 0.55818(12) 0.1368(5) 0.70108(17)
H10_4 H 0.5429 0.0735 0.7128
C9_4 C 0.72552(11) 0.0460(5) 0.86888(16)
C10_4 C 0.59972(11) 0.1691(5) 0.73044(14)
C11_4 C 0.61986(11) 0.0998(4) 0.78011(16)
C15_4 C 0.79275(14) 0.1386(6) 0.8728(2)
H13_4 H 0.8084 0.1950 0.8589
C16_4 C 0.54039(12) 0.3642(4) 0.58589(14)
N2_4 N 0.59477(9) 0.0322(4) 0.80054(13)
C18_4 C 0.81302(11) 0.0650(5) 0.91561(16)
O1_4 O 0.42896(17) 0.3840(5) 0.5727(2)
O2_4 O 0.55968(8) 0.4613(3) 0.57512(10)
C21_4 C 0.4128(4) 0.0515(11) 0.4827(4)
C22_4 C 0.85981(12) 0.0812(5) 0.94168(16)
N3_4 N 0.66195(10) 0.1088(4) 0.80101(13)
O3_4 O 0.42733(10) 0.1671(3) 0.50692(13)
O4_4 O 0.87857(8) 0.0103(4) 0.98019(12)
O6_4 O 0.50507(8) 0.3171(3) 0.55879(10)
O8_4 O 0.87945(8) 0.1680(3) 0.92494(11)
C23_4 C 0.53987(12) 0.1996(5) 0.65450(16)
H17_4 H 0.5124 0.1760 0.6347
C24_4 C 0.62160(11) 0.2644(5) 0.71185(15)
H18_4 H 0.6495 0.2860 0.7308
H19_4 H 0.5344 0.0003 0.8353
C26_4 C 0.60237(12) 0.3270(5) 0.66572(15)
H20_4 H 0.6173 0.3913 0.6539
C28_4 C 0.67888(11) 0.0391(5) 0.84443(15)
O9_4 O 0.44032(8) 0.5387(3) 0.42488(10)
O10_4 O 0.37857(8) 0.4897(4) 0.48019(12)
O11_4 O 0.47578(9) 0.2600(3) 0.43885(12)
O13_4 O 0.37945(8) 0.3320(3) 0.42494(11)
H22_4 H 0.448271 0.32016 0.597329
H23_4 H 0.432487 0.476788 0.587624
C2_3 C 0.4405(3) 0.9641(8) 0.4595(3)
H5_3 H 0.4270 0.9580 0.4232
H6_3 H 0.4438 0.8745 0.4741
C4_4 C 0.74597(13) 0.9701(7) 0.9114(2)
H7_4 H 0.7304 0.9122 0.9249
C6_4 C 0.61488(11) 0.9688(5) 0.84438(15)
C7_4 C 0.52191(13) 0.8663(4) 0.88305(18)
H9_4 H 0.4939 0.8931 0.8766
N1_4 N 0.65689(9) 0.9671(4) 0.86755(13)
C12_4 C 0.58043(12) 0.7251(5) 0.92703(17)
H11_4 H 0.5920 0.6546 0.9497
C13_4 C 0.58840(11) 0.8964(4) 0.86913(15)
C14_4 C 0.78945(13) 0.9787(6) 0.9344(2)
H12_4 H 0.8029 0.9256 0.9628
C17_3 C 0.3652(3) 0.8708(10) 0.4526(4)
H14_3 H 0.3790 0.7948 0.4731
H15_3 H 0.3690 0.8662 0.4199
H16_3 H 0.3355 0.8686 0.4481
C19_4 C 0.51103(13) 0.6911(4) 0.94285(14)
C20_4 C 0.53848(11) 0.7612(4) 0.91692(15)
N4_3 N 0.3838(3) 0.9991(10) 0.4785(3)
O5_4 O 0.47578(9) 0.7400(3) 0.93885(12)
C25_4 C 0.54632(13) 0.9318(5) 0.85877(19)
C27_4 C 0.60539(12) 0.7919(5) 0.90391(17)
H21_4 H 0.6337 0.7673 0.9115
C3_5 C 0.06109(11) 0.2044(4) 0.13655(14)
C4_5 C 0.24597(13) 0.5299(7) 0.4114(2)
H7_5 H 0.2304 0.5878 0.4249
C5_5 C 0.24926(14) 0.3697(6) 0.3497(2)
H8_5 H 0.2360 0.3175 0.3209
C6_5 C 0.11488(11) 0.5312(5) 0.34438(15)
C7_5 C 0.02191(13) 0.6337(4) 0.38305(18)
C8_5 C 0.05818(12) 0.3632(5) 0.20108(17)
H10_5 H 0.0429 0.4265 0.2128
C9_5 C 0.22552(11) 0.4540(5) 0.36888(16)
C10_5 C 0.09972(11) 0.3309(5) 0.23044(14)
N1_5 N 0.15689(9) 0.5329(4) 0.36755(13)
C11_5 C 0.11986(11) 0.4002(4) 0.28011(16)
C12_5 C 0.08043(12) 0.7749(5) 0.42703(17)
H11_5 H 0.0920 0.8454 0.4497
C13_5 C 0.08840(11) 0.6036(4) 0.36913(15)
C14_5 C 0.28945(13) 0.5213(6) 0.4344(2)
H12_5 H 0.3029 0.5744 0.4628
C15_5 C 0.29275(14) 0.3614(6) 0.3728(2)
H13_5 H 0.3084 0.3050 0.3589
C16_5 C 0.04039(12) 0.1358(4) 0.08589(14)
N2_5 N 0.09477(9) 0.4678(4) 0.30054(13)
C18_5 C 0.31302(11) 0.4350(5) 0.41561(16)
C19_5 C 0.01103(13) 0.8089(4) 0.44285(14)
C20_5 C 0.03848(11) 0.7388(4) 0.41692(15)
C22_5 C 0.35981(12) 0.4188(5) 0.44168(16)
N3_5 N 0.16195(10) 0.3912(4) 0.30101(13)
O6_5 O 0.00507(8) 0.1829(3) 0.05879(10)
O7_3 O 0.02558(10) 0.9130(3) 0.46892(11)
C23_5 C 0.03987(12) 0.3004(5) 0.15450(16)
H17_5 H 0.0124 0.3240 0.1347
C24_5 C 0.12160(11) 0.2356(5) 0.21185(15)
H18_5 H 0.1495 0.2140 0.2308
C25_5 C 0.04632(13) 0.5682(5) 0.35877(19)
H19_5 H 0.0344 0.4997 0.3353
C26_5 C 0.10237(12) 0.1730(5) 0.16572(15)
H20_5 H 0.1173 0.1087 0.1539
C27_5 C 0.10539(12) 0.7081(5) 0.40391(17)
H21_5 H 0.1337 0.7327 0.4115
C28_5 C 0.17888(11) 0.4609(5) 0.34443(15)
C1_5 C 0.8545(3) 0.4062(9) 0.0045(4)
H1_5 H 0.8395 0.4647 0.0204
H3_5 H 0.8726 0.3463 0.0296
H9_5 H 0.9939 0.6069 0.3766
O1_5 O 0.92896(17) 0.1160(5) 0.0727(2)
O3_5 O 0.92733(10) 0.3329(3) 0.00692(13)
H22_5 H 0.948271 0.17984 0.097329
H23_5 H 0.932487 0.0232123 0.0876236
H2_5 H 0.8344 0.3535 0.9784
C2_4 C 0.9405(3) 0.5359(8) 0.9595(3)
H4_5 H 0.9679 0.4943 0.9669
H5_4 H 0.9270 0.5420 0.9232
H6_4 H 0.9438 0.6255 0.9741
C17_4 C 0.8652(3) 0.6292(10) 0.9526(4)
H14_4 H 0.8790 0.7052 0.9731
H15_4 H 0.8690 0.6338 0.9199
H16_4 H 0.8355 0.6314 0.9481
C21_5 C 0.9128(4) 0.4485(11) 0.9827(4)
N4_4 N 0.8838(3) 0.5009(10) 0.9785(3)
O12_3 O 0.97442(10) 0.9130(3) 0.03108(11)
C1_6 C 0.1455(3) 0.4062(9) 0.4955(4)
H1_6 H 0.1605 0.4647 0.4796
H2_6 H 0.1656 0.3535 0.5216
H3_6 H 0.1274 0.3463 0.4704
C2_5 C 0.0595(3) 0.5359(8) 0.5405(3)
H4_6 H 0.0321 0.4943 0.5331
H5_5 H 0.0730 0.5420 0.5768
H6_5 H 0.0562 0.6255 0.5259
H9_6 H 0.0061 0.6069 0.1234
C17_5 C 0.1348(3) 0.6292(10) 0.5474(4)
H14_5 H 0.1210 0.7052 0.5269
H15_5 H 0.1310 0.6338 0.5801
H16_5 H 0.1645 0.6314 0.5519
O1_6 O 0.07104(17) 0.1160(5) 0.4273(2)
C21_6 C 0.0872(4) 0.4485(11) 0.5173(4)
O3_6 O 0.07267(10) 0.3329(3) 0.49308(13)
N4_5 N 0.1162(3) 0.5009(10) 0.5215(3)
H22_6 H 0.0517295 0.17984 0.402671
H23_6 H 0.0675134 0.0232123 0.412376
C3_6 C 0.93891(11) 0.2044(4) 0.36345(14)
C4_6 C 0.75403(13) 0.5299(7) 0.0886(2)
H7_6 H 0.7696 0.5878 0.0751
C5_6 C 0.75074(14) 0.3697(6) 0.1503(2)
H8_6 H 0.7640 0.3175 0.1791
C6_6 C 0.88512(11) 0.5312(5) 0.15562(15)
C7_6 C 0.97809(13) 0.6337(4) 0.11695(18)
C8_6 C 0.94182(12) 0.3632(5) 0.29892(17)
H10_6 H 0.9571 0.4265 0.2872
C9_6 C 0.77448(11) 0.4540(5) 0.13112(16)
C10_6 C 0.90028(11) 0.3309(5) 0.26956(14)
N1_6 N 0.84311(9) 0.5329(4) 0.13245(13)
C11_6 C 0.88014(11) 0.4002(4) 0.21989(16)
C12_6 C 0.91957(12) 0.7749(5) 0.07297(17)
H11_6 H 0.9080 0.8454 0.0503
C13_6 C 0.91160(11) 0.6036(4) 0.13087(15)
C14_6 C 0.71055(13) 0.5213(6) 0.0656(2)
H12_6 H 0.6971 0.5744 0.0372
C15_6 C 0.70725(14) 0.3614(6) 0.1272(2)
H13_6 H 0.6916 0.3050 0.1411
C16_6 C 0.95961(12) 0.1358(4) 0.41411(14)
N2_6 N 0.90523(9) 0.4678(4) 0.19946(13)
C18_6 C 0.68698(11) 0.4350(5) 0.08439(16)
C19_6 C 0.98897(13) 0.8089(4) 0.05715(14)
C20_6 C 0.96152(11) 0.7388(4) 0.08308(15)
C22_6 C 0.64019(12) 0.4188(5) 0.05832(16)
N3_6 N 0.83805(10) 0.3912(4) 0.19899(13)
O6_6 O 0.99493(8) 0.1829(3) 0.44121(10)
C23_6 C 0.96013(12) 0.3004(5) 0.34550(16)
H17_6 H 0.9876 0.3240 0.3653
C24_6 C 0.87840(11) 0.2356(5) 0.28815(15)
H18_6 H 0.8505 0.2140 0.2692
C25_6 C 0.95368(13) 0.5682(5) 0.14123(19)
H19_6 H 0.9656 0.4997 0.1647
C26_6 C 0.89763(12) 0.1730(5) 0.33428(15)
H20_6 H 0.8827 0.1087 0.3461
C27_6 C 0.89461(12) 0.7081(5) 0.09609(17)
H21_6 H 0.8663 0.7327 0.0885
C28_6 C 0.82112(11) 0.4609(5) 0.15557(15)
C4_7 C 0.74597(13) 0.0299(7) 0.4114(2)
H7_7 H 0.7304 0.0878 0.4249
C6_7 C 0.61488(11) 0.0312(5) 0.34438(15)
C7_7 C 0.52191(13) 0.1337(4) 0.38305(18)
H9_7 H 0.4939 0.1069 0.3766
N1_7 N 0.65689(9) 0.0329(4) 0.36755(13)
C12_7 C 0.58043(12) 0.2749(5) 0.42703(17)
H11_7 H 0.5920 0.3454 0.4497
C13_7 C 0.58840(11) 0.1036(4) 0.36913(15)
C14_7 C 0.78945(13) 0.0213(6) 0.4344(2)
H12_7 H 0.8029 0.0744 0.4628
C19_7 C 0.51103(13) 0.3089(4) 0.44285(14)
C20_7 C 0.53848(11) 0.2388(4) 0.41692(15)
O7_4 O 0.52558(10) 0.4130(3) 0.46892(11)
C25_7 C 0.54632(13) 0.0682(5) 0.35877(19)
C27_7 C 0.60539(12) 0.2081(5) 0.40391(17)
H21_7 H 0.6337 0.2327 0.4115
C1_7 C 0.3545(3) 0.9062(9) 0.0045(4)
H1_7 H 0.3395 0.9647 0.0204
H3_7 H 0.3726 0.8463 0.0296
C3_7 C 0.56109(11) 0.7044(4) 0.13655(14)
C5_7 C 0.74926(14) 0.8697(6) 0.3497(2)
H8_7 H 0.7360 0.8175 0.3209
C8_7 C 0.55818(12) 0.8632(5) 0.20108(17)
H10_7 H 0.5429 0.9265 0.2128
C9_7 C 0.72552(11) 0.9540(5) 0.36888(16)
C10_7 C 0.59972(11) 0.8309(5) 0.23044(14)
C11_7 C 0.61986(11) 0.9002(4) 0.28011(16)
C15_7 C 0.79275(14) 0.8614(6) 0.3728(2)
H13_7 H 0.8084 0.8050 0.3589
C16_7 C 0.54039(12) 0.6358(4) 0.08589(14)
N2_7 N 0.59477(9) 0.9678(4) 0.30054(13)
C18_7 C 0.81302(11) 0.9350(5) 0.41561(16)
O1_7 O 0.42896(17) 0.6160(5) 0.0727(2)
C22_7 C 0.85981(12) 0.9188(5) 0.44168(16)
N3_7 N 0.66195(10) 0.8912(4) 0.30101(13)
O3_7 O 0.42733(10) 0.8329(3) 0.00692(13)
O6_7 O 0.50507(8) 0.6829(3) 0.05879(10)
C23_7 C 0.53987(12) 0.8004(5) 0.15450(16)
H17_7 H 0.5124 0.8240 0.1347
C24_7 C 0.62160(11) 0.7356(5) 0.21185(15)
H18_7 H 0.6495 0.7140 0.2308
H19_7 H 0.5344 0.9997 0.3353
C26_7 C 0.60237(12) 0.6730(5) 0.16572(15)
H20_7 H 0.6173 0.6087 0.1539
C28_7 C 0.67888(11) 0.9609(5) 0.34443(15)
O12_4 O 0.47442(10) 0.4130(3) 0.03108(11)
H22_7 H 0.448271 0.67984 0.097329
H23_7 H 0.432487 0.523212 0.0876236
H2_7 H 0.3344 0.8535 0.9784
H4_7 H 0.4679 0.9943 0.9669
C21_7 C 0.4128(4) 0.9485(11) 0.9827(4)
C2_6 C 0.5595(3) 0.0359(8) 0.5405(3)
H5_6 H 0.5730 0.0420 0.5768
H6_6 H 0.5562 0.1255 0.5259
C4_8 C 0.25403(13) 0.0299(7) 0.0886(2)
H7_8 H 0.2696 0.0878 0.0751
C6_8 C 0.38512(11) 0.0312(5) 0.15562(15)
C7_8 C 0.47809(13) 0.1337(4) 0.11695(18)
H9_8 H 0.5061 0.1069 0.1234
N1_8 N 0.34311(9) 0.0329(4) 0.13245(13)
C12_8 C 0.41957(12) 0.2749(5) 0.07297(17)
H11_8 H 0.4080 0.3454 0.0503
C13_8 C 0.41160(11) 0.1036(4) 0.13087(15)
C14_8 C 0.21055(13) 0.0213(6) 0.0656(2)
H12_8 H 0.1971 0.0744 0.0372
C17_6 C 0.6348(3) 0.1292(10) 0.5474(4)
H14_6 H 0.6210 0.2052 0.5269
H15_6 H 0.6310 0.1338 0.5801
H16_6 H 0.6645 0.1314 0.5519
C19_8 C 0.48897(13) 0.3089(4) 0.05715(14)
C20_8 C 0.46152(11) 0.2388(4) 0.08308(15)
N4_6 N 0.6162(3) 0.0009(10) 0.5215(3)
C25_8 C 0.45368(13) 0.0682(5) 0.14123(19)
C27_8 C 0.39461(12) 0.2081(5) 0.09609(17)
H21_8 H 0.3663 0.2327 0.0885
C1_8 C 0.6455(3) 0.9062(9) 0.4955(4)
H1_8 H 0.6605 0.9647 0.4796
H2_8 H 0.6656 0.8535 0.5216
H3_8 H 0.6274 0.8463 0.4704
H4_8 H 0.5321 0.9943 0.5331
C3_8 C 0.43891(11) 0.7044(4) 0.36345(14)
C5_8 C 0.25074(14) 0.8697(6) 0.1503(2)
H8_8 H 0.2640 0.8175 0.1791
C8_8 C 0.44182(12) 0.8632(5) 0.29892(17)
H10_8 H 0.4571 0.9265 0.2872
C9_8 C 0.27448(11) 0.9540(5) 0.13112(16)
C10_8 C 0.40028(11) 0.8309(5) 0.26956(14)
C11_8 C 0.38014(11) 0.9002(4) 0.21989(16)
C15_8 C 0.20725(14) 0.8614(6) 0.1272(2)
H13_8 H 0.1916 0.8050 0.1411
C16_8 C 0.45961(12) 0.6358(4) 0.41411(14)
N2_8 N 0.40523(9) 0.9678(4) 0.19946(13)
C18_8 C 0.18698(11) 0.9350(5) 0.08439(16)
O1_8 O 0.57104(17) 0.6160(5) 0.4273(2)
C21_8 C 0.5872(4) 0.9485(11) 0.5173(4)
C22_8 C 0.14019(12) 0.9188(5) 0.05832(16)
N3_8 N 0.33805(10) 0.8912(4) 0.19899(13)
O3_8 O 0.57267(10) 0.8329(3) 0.49308(13)
O6_8 O 0.49493(8) 0.6829(3) 0.44121(10)
C23_8 C 0.46013(12) 0.8004(5) 0.34550(16)
H17_8 H 0.4876 0.8240 0.3653
C24_8 C 0.37840(11) 0.7356(5) 0.28815(15)
H18_8 H 0.3505 0.7140 0.2692
H19_8 H 0.4656 0.9997 0.1647
C26_8 C 0.39763(12) 0.6730(5) 0.33428(15)
H20_8 H 0.3827 0.6087 0.3461
C28_8 C 0.32112(11) 0.9609(5) 0.15557(15)
H22_8 H 0.551729 0.67984 0.402671
H23_8 H 0.567513 0.523212 0.412376
C2_7 C 0.5595(3) 0.9641(8) 0.0405(3)
H5_7 H 0.5730 0.9580 0.0768
H6_7 H 0.5562 0.8745 0.0259
C17_7 C 0.6348(3) 0.8708(10) 0.0474(4)
H14_7 H 0.6210 0.7948 0.0269
H15_7 H 0.6310 0.8662 0.0801
H16_7 H 0.6645 0.8686 0.0519
N4_7 N 0.6162(3) 0.9991(10) 0.0215(3)
C2_8 C 0.4405(3) 0.0359(8) 0.9595(3)
H5_8 H 0.4270 0.0420 0.9232
H6_8 H 0.4438 0.1255 0.9741
C17_8 C 0.3652(3) 0.1292(10) 0.9526(4)
H14_8 H 0.3790 0.2052 0.9731
H15_8 H 0.3690 0.1338 0.9199
H16_8 H 0.3355 0.1314 0.9481
N4_8 N 0.3838(3) 0.0009(10) 0.9785(3)
loop_
_geom_bond_atom_site_label_1
_geom_bond_atom_site_label_2
_geom_bond_site_symmetry_1
_geom_bond_site_symmetry_2
C2 H4 1_555 1_555
H5 C2 1_555 1_555
H6 C2 1_555 1_555
C17 H14 1_555 1_555
H15 C17 1_555 1_555
H16 C17 1_555 1_555
C21 C2 1_555 1_555
O10 Tb1 1_555 1_555
O11 Tb1 1_555 1_555
O13 Tb1 1_555 1_555
C17 N4 1_555 1_555
C21 N4 1_555 1_555
C1 H1 1_555 1_555
H3 C1 1_555 1_555
Tb4 O5 1_555 1_555
O1 H22 1_555 1_555
O1 H23 1_555 1_555
C3 C16 1_555 1_555
C4 H7 1_555 1_555
C5 H8 1_555 1_555
C6 N1 1_555 1_555
C8 H10 1_555 1_555
C9 C4 1_555 1_555
C10 C8 1_555 1_555
N1 C28 1_555 1_555
C11 C10 1_555 1_555
C12 H11 1_555 1_555
C13 C6 1_555 1_555
C14 C4 1_555 1_555
H12 C14 1_555 1_555
C15 C5 1_555 1_555
H13 C15 1_555 1_555
C16 O2 1_555 1_555
N2 C6 1_555 1_555
C18 C14 1_555 1_555
C19 C20 1_555 1_555
C20 C7 1_555 1_555
C22 C18 1_555 1_555
N3 C11 1_555 1_555
O4 C22 1_555 1_555
O7 C19 1_555 1_555
O8 C22 1_555 1_555
C23 C3 1_555 1_555
H17 C23 1_555 1_555
C24 C10 1_555 1_555
H18 C24 1_555 1_555
C25 C7 1_555 1_555
H19 C25 1_555 1_555
C26 C3 1_555 1_555
H20 C26 1_555 1_555
C27 C12 1_555 1_555
H21 C27 1_555 1_555
C28 C9 1_555 1_555
Tb5 O4 1_555 1_555
C5 C9 1_555 1_555
C8 C23 1_555 1_555
C11 N2 1_555 1_555
C12 C20 1_555 1_555
C13 C25 1_555 1_555
C13 C27 1_555 1_555
C15 C18 1_555 1_555
C16 O6 1_555 1_555
N3 C28 1_555 1_555
O8 Tb5 1_555 1_555
C24 C26 1_555 1_555
C3_2 C16_2 1_555 1_555
C4_2 H7_2 1_555 1_555
C5_2 H8_2 1_555 1_555
C6_2 N1_2 1_555 1_555
C8_2 H10_2 1_555 1_555
C9_2 C4_2 1_555 1_555
C10_2 C8_2 1_555 1_555
N1_2 C28_2 1_555 1_555
C11_2 C10_2 1_555 1_555
C12_2 H11_2 1_555 1_555
C13_2 C6_2 1_555 1_555
C14_2 C4_2 1_555 1_555
H12_2 C14_2 1_555 1_555
C15_2 C5_2 1_555 1_555
H13_2 C15_2 1_555 1_555
C16_2 O2_2 1_555 1_555
N2_2 C6_2 1_555 1_555
C18_2 C14_2 1_555 1_555
C19_2 C20_2 1_555 1_555
C20_2 C7_2 1_555 1_555
C22_2 C18_2 1_555 1_555
N3_2 C11_2 1_555 1_555
O4_2 C22_2 1_555 1_555
O12 C19_2 1_555 1_555
O8_2 C22_2 1_555 1_555
C23_2 C3_2 1_555 1_555
H17_2 C23_2 1_555 1_555
C24_2 C10_2 1_555 1_555
H18_2 C24_2 1_555 1_555
C25_2 C7_2 1_555 1_555
H19_2 C25_2 1_555 1_555
C26_2 C3_2 1_555 1_555
H20_2 C26_2 1_555 1_555
C27_2 C12_2 1_555 1_555
H21_2 C27_2 1_555 1_555
C28_2 C9_2 1_555 1_555
Tb5_2 O4_2 1_555 1_555
C5_2 C9_2 1_555 1_555
C8_2 C23_2 1_555 1_555
C11_2 N2_2 1_555 1_555
C12_2 C20_2 1_555 1_555
C13_2 C25_2 1_555 1_555
C13_2 C27_2 1_555 1_555
C15_2 C18_2 1_555 1_555
C16_2 O6_2 1_555 1_555
N3_2 C28_2 1_555 1_555
O8_2 Tb5_2 1_555 1_555
C24_2 C26_2 1_555 1_555
Tb2 O1_2 1_555 1_555
C1_2 H1_2 1_555 1_555
H2_2 C1_2 1_555 1_555
H3_2 C1_2 1_555 1_555
C2_2 H4_2 1_555 1_555
H5_2 C2_2 1_555 1_555
H6_2 C2_2 1_555 1_555
C17_2 H14_2 1_555 1_555
H15_2 C17_2 1_555 1_555
H16_2 C17_2 1_555 1_555
C21_2 C2_2 1_555 1_555
O3_2 Tb2 1_555 1_555
N4_2 C1_2 1_555 1_555
Tb3 O5_2 1_555 1_555
O10_2 Tb2 1_555 1_555
O11_2 Tb2 1_555 1_555
O13_2 Tb2 1_555 1_555
C17_2 N4_2 1_555 1_555
C21_2 O3_2 1_555 1_555
C21_2 N4_2 1_555 1_555
O1_2 H22_2 1_555 1_555
O1_2 H23_2 1_555 1_555
O9_3 Tb1_2 1_555 1_555
O10_3 Tb1_2 1_555 1_555
O11_3 Tb1_2 1_555 1_555
O13_3 Tb1_2 1_555 1_555
C1_3 H1_3 1_555 1_555
H3_3 C1_3 1_555 1_555
C3_3 C16_3 1_555 1_555
C5_3 H8_3 1_555 1_555
C8_3 H10_3 1_555 1_555
C10_3 C8_3 1_555 1_555
C11_3 C10_3 1_555 1_555
C15_3 C5_3 1_555 1_555
H13_3 C15_3 1_555 1_555
C16_3 O2_3 1_555 1_555
O2_3 Tb5_2 1_555 1_555
C22_3 C18_3 1_555 1_555
N3_3 C11_3 1_555 1_555
O4_3 C22_3 1_555 1_555
O8_3 C22_3 1_555 1_555
C23_3 C3_3 1_555 1_555
H17_3 C23_3 1_555 1_555
C24_3 C10_3 1_555 1_555
H18_3 C24_3 1_555 1_555
C26_3 C3_3 1_555 1_555
H20_3 C26_3 1_555 1_555
C28_3 C9_3 1_555 1_555
Tb4 O4_3 1_555 1_555
C5_3 C9_3 1_555 1_555
C8_3 C23_3 1_555 1_555
C11_3 N2_3 1_555 1_555
C15_3 C18_3 1_555 1_555
C16_3 O6_3 1_555 1_555
N3_3 C28_3 1_555 1_555
O8_3 Tb4 1_555 1_555
C24_3 C26_3 1_555 1_555
O1_3 H22_3 1_555 1_555
O1_3 H23_3 1_555 1_555
C4_3 H7_3 1_555 1_555
C6_3 N1_3 1_555 1_555
C7_3 H9_3 1_555 1_555
C12_3 H11_3 1_555 1_555
C13_3 C6_3 1_555 1_555
C14_3 C4_3 1_555 1_555
H12_3 C14_3 1_555 1_555
C19_3 C20_3 1_555 1_555
C20_3 C7_3 1_555 1_555
O5_3 C19_3 1_555 1_555
O7_2 C19_3 1_555 1_555
C25_3 C7_3 1_555 1_555
C27_3 C12_3 1_555 1_555
H21_3 C27_3 1_555 1_555
Tb2_2 O7_2 1_555 1_555
Tb5 O5_3 1_555 1_555
C12_3 C20_3 1_555 1_555
C13_3 C25_3 1_555 1_555
C13_3 C27_3 1_555 1_555
Tb2_2 O1_4 1_555 1_555
C1_4 H1_4 1_555 1_555
H2_4 C1_4 1_555 1_555
H3_4 C1_4 1_555 1_555
C3_4 C16_4 1_555 1_555
C5_4 H8_4 1_555 1_555
C8_4 H10_4 1_555 1_555
C10_4 C8_4 1_555 1_555
C11_4 C10_4 1_555 1_555
C15_4 C5_4 1_555 1_555
H13_4 C15_4 1_555 1_555
C16_4 O2_4 1_555 1_555
O2_4 Tb5 1_555 1_555
C22_4 C18_4 1_555 1_555
N3_4 C11_4 1_555 1_555
O3_4 Tb2_2 1_555 1_555
O4_4 C22_4 1_555 1_555
O6_4 Tb2_2 1_555 1_555
O8_4 C22_4 1_555 1_555
C23_4 C3_4 1_555 1_555
H17_4 C23_4 1_555 1_555
C24_4 C10_4 1_555 1_555
H18_4 C24_4 1_555 1_555
C26_4 C3_4 1_555 1_555
H20_4 C26_4 1_555 1_555
C28_4 C9_4 1_555 1_555
Tb3 O4_4 1_555 1_555
O9_4 Tb2_2 1_555 1_555
O10_4 Tb2_2 1_555 1_555
O11_4 Tb2_2 1_555 1_555
O13_4 Tb2_2 1_555 1_555
C5_4 C9_4 1_555 1_555
C8_4 C23_4 1_555 1_555
C11_4 N2_4 1_555 1_555
C15_4 C18_4 1_555 1_555
C16_4 O6_4 1_555 1_555
C21_4 O3_4 1_555 1_555
N3_4 C28_4 1_555 1_555
O8_4 Tb3 1_555 1_555
C24_4 C26_4 1_555 1_555
O1_4 H22_4 1_555 1_555
O1_4 H23_4 1_555 1_555
H5_3 C2_3 1_555 1_555
H6_3 C2_3 1_555 1_555
C4_4 H7_4 1_555 1_555
C6_4 N1_4 1_555 1_555
C7_4 H9_4 1_555 1_555
C12_4 H11_4 1_555 1_555
C13_4 C6_4 1_555 1_555
C14_4 C4_4 1_555 1_555
H12_4 C14_4 1_555 1_555
C17_3 H14_3 1_555 1_555
H15_3 C17_3 1_555 1_555
H16_3 C17_3 1_555 1_555
C19_4 C20_4 1_555 1_555
C20_4 C7_4 1_555 1_555
O5_4 C19_4 1_555 1_555
O12_2 C19_4 1_555 1_555
C25_4 C7_4 1_555 1_555
C27_4 C12_4 1_555 1_555
H21_4 C27_4 1_555 1_555
Tb5_2 O5_4 1_555 1_555
C12_4 C20_4 1_555 1_555
C13_4 C25_4 1_555 1_555
C13_4 C27_4 1_555 1_555
C17_3 N4_3 1_555 1_555
C3_5 C16_5 1_555 1_555
C4_5 H7_5 1_555 1_555
C5_5 H8_5 1_555 1_555
C6_5 N1_5 1_555 1_555
C8_5 H10_5 1_555 1_555
C9_5 C4_5 1_555 1_555
C10_5 C8_5 1_555 1_555
N1_5 C28_5 1_555 1_555
C11_5 C10_5 1_555 1_555
C12_5 H11_5 1_555 1_555
C13_5 C6_5 1_555 1_555
C14_5 C4_5 1_555 1_555
H12_5 C14_5 1_555 1_555
C15_5 C5_5 1_555 1_555
H13_5 C15_5 1_555 1_555
C16_5 O9 1_555 1_555
N2_5 C6_5 1_555 1_555
C18_5 C14_5 1_555 1_555
C19_5 C20_5 1_555 1_555
C20_5 C7_5 1_555 1_555
C22_5 C18_5 1_555 1_555
N3_5 C11_5 1_555 1_555
O10_4 C22_5 1_555 1_555
O7_3 C19_5 1_555 1_555
O13_4 C22_5 1_555 1_555
C23_5 C3_5 1_555 1_555
H17_5 C23_5 1_555 1_555
C24_5 C10_5 1_555 1_555
H18_5 C24_5 1_555 1_555
C25_5 C7_5 1_555 1_555
H19_5 C25_5 1_555 1_555
C26_5 C3_5 1_555 1_555
H20_5 C26_5 1_555 1_555
C27_5 C12_5 1_555 1_555
H21_5 C27_5 1_555 1_555
C28_5 C9_5 1_555 1_555
C5_5 C9_5 1_555 1_555
C8_5 C23_5 1_555 1_555
C11_5 N2_5 1_555 1_555
C12_5 C20_5 1_555 1_555
C13_5 C25_5 1_555 1_555
C13_5 C27_5 1_555 1_555
C15_5 C18_5 1_555 1_555
C16_5 O6_5 1_555 1_555
N3_5 C28_5 1_555 1_555
C24_5 C26_5 1_555 1_555
C1_5 H1_5 1_555 1_555
H3_5 C1_5 1_555 1_555
O1_5 H22_5 1_555 1_555
O1_5 H23_5 1_555 1_555
C2_4 H4_5 1_555 1_555
H5_4 C2_4 1_555 1_555
H6_4 C2_4 1_555 1_555
C17_4 H14_4 1_555 1_555
H15_4 C17_4 1_555 1_555
H16_4 C17_4 1_555 1_555
C21_5 C2_4 1_555 1_555
C17_4 N4_4 1_555 1_555
C21_5 N4_4 1_555 1_555
Tb4 O1_6 1_555 1_555
C1_6 H1_6 1_555 1_555
H2_6 C1_6 1_555 1_555
H3_6 C1_6 1_555 1_555
C2_5 H4_6 1_555 1_555
H5_5 C2_5 1_555 1_555
H6_5 C2_5 1_555 1_555
C17_5 H14_5 1_555 1_555
H15_5 C17_5 1_555 1_555
H16_5 C17_5 1_555 1_555
C21_6 C2_5 1_555 1_555
O3_6 Tb4 1_555 1_555
N4_5 C1_6 1_555 1_555
C17_5 N4_5 1_555 1_555
C21_6 O3_6 1_555 1_555
C21_6 N4_5 1_555 1_555
O1_6 H22_6 1_555 1_555
O1_6 H23_6 1_555 1_555
C3_6 C16_6 1_555 1_555
C4_6 H7_6 1_555 1_555
C5_6 H8_6 1_555 1_555
C6_6 N1_6 1_555 1_555
C8_6 H10_6 1_555 1_555
C9_6 C4_6 1_555 1_555
C10_6 C8_6 1_555 1_555
N1_6 C28_6 1_555 1_555
C11_6 C10_6 1_555 1_555
C12_6 H11_6 1_555 1_555
C13_6 C6_6 1_555 1_555
C14_6 C4_6 1_555 1_555
H12_6 C14_6 1_555 1_555
C15_6 C5_6 1_555 1_555
H13_6 C15_6 1_555 1_555
C16_6 O9_2 1_555 1_555
N2_6 C6_6 1_555 1_555
C18_6 C14_6 1_555 1_555
C19_6 C20_6 1_555 1_555
C20_6 C7_6 1_555 1_555
C22_6 C18_6 1_555 1_555
N3_6 C11_6 1_555 1_555
O10_3 C22_6 1_555 1_555
O12_3 C19_6 1_555 1_555
O13_3 C22_6 1_555 1_555
C23_6 C3_6 1_555 1_555
H17_6 C23_6 1_555 1_555
C24_6 C10_6 1_555 1_555
H18_6 C24_6 1_555 1_555
C25_6 C7_6 1_555 1_555
H19_6 C25_6 1_555 1_555
C26_6 C3_6 1_555 1_555
H20_6 C26_6 1_555 1_555
C27_6 C12_6 1_555 1_555
H21_6 C27_6 1_555 1_555
C28_6 C9_6 1_555 1_555
C5_6 C9_6 1_555 1_555
C8_6 C23_6 1_555 1_555
C11_6 N2_6 1_555 1_555
C12_6 C20_6 1_555 1_555
C13_6 C25_6 1_555 1_555
C13_6 C27_6 1_555 1_555
C15_6 C18_6 1_555 1_555
C16_6 O6_6 1_555 1_555
N3_6 C28_6 1_555 1_555
C24_6 C26_6 1_555 1_555
C4_7 H7_7 1_555 1_555
C6_7 N1_7 1_555 1_555
C7_7 H9_7 1_555 1_555
C12_7 H11_7 1_555 1_555
C13_7 C6_7 1_555 1_555
C14_7 C4_7 1_555 1_555
H12_7 C14_7 1_555 1_555
C19_7 C20_7 1_555 1_555
C20_7 C7_7 1_555 1_555
O11_4 C19_7 1_555 1_555
O7_4 C19_7 1_555 1_555
C25_7 C7_7 1_555 1_555
C27_7 C12_7 1_555 1_555
H21_7 C27_7 1_555 1_555
Tb5 O7_4 1_555 1_555
C12_7 C20_7 1_555 1_555
C13_7 C25_7 1_555 1_555
C13_7 C27_7 1_555 1_555
C1_7 H1_7 1_555 1_555
H3_7 C1_7 1_555 1_555
C3_7 C16_7 1_555 1_555
C5_7 H8_7 1_555 1_555
C8_7 H10_7 1_555 1_555
C10_7 C8_7 1_555 1_555
C11_7 C10_7 1_555 1_555
C15_7 C5_7 1_555 1_555
H13_7 C15_7 1_555 1_555
C16_7 O9_3 1_555 1_555
C22_7 C18_7 1_555 1_555
N3_7 C11_7 1_555 1_555
O10_2 C22_7 1_555 1_555
O13_2 C22_7 1_555 1_555
C23_7 C3_7 1_555 1_555
H17_7 C23_7 1_555 1_555
C24_7 C10_7 1_555 1_555
H18_7 C24_7 1_555 1_555
C26_7 C3_7 1_555 1_555
H20_7 C26_7 1_555 1_555
C28_7 C9_7 1_555 1_555
C5_7 C9_7 1_555 1_555
C8_7 C23_7 1_555 1_555
C11_7 N2_7 1_555 1_555
C15_7 C18_7 1_555 1_555
C16_7 O6_7 1_555 1_555
N3_7 C28_7 1_555 1_555
C24_7 C26_7 1_555 1_555
O1_7 H22_7 1_555 1_555
O1_7 H23_7 1_555 1_555
H5_6 C2_6 1_555 1_555
H6_6 C2_6 1_555 1_555
C4_8 H7_8 1_555 1_555
C6_8 N1_8 1_555 1_555
C7_8 H9_8 1_555 1_555
C12_8 H11_8 1_555 1_555
C13_8 C6_8 1_555 1_555
C14_8 C4_8 1_555 1_555
H12_8 C14_8 1_555 1_555
C17_6 H14_6 1_555 1_555
H15_6 C17_6 1_555 1_555
H16_6 C17_6 1_555 1_555
C19_8 C20_8 1_555 1_555
C20_8 C7_8 1_555 1_555
O11_3 C19_8 1_555 1_555
O12_4 C19_8 1_555 1_555
C25_8 C7_8 1_555 1_555
C27_8 C12_8 1_555 1_555
H21_8 C27_8 1_555 1_555
C12_8 C20_8 1_555 1_555
C13_8 C25_8 1_555 1_555
C13_8 C27_8 1_555 1_555
C17_6 N4_6 1_555 1_555
Tb5 O1_8 1_555 1_555
C1_8 H1_8 1_555 1_555
H2_8 C1_8 1_555 1_555
H3_8 C1_8 1_555 1_555
C3_8 C16_8 1_555 1_555
C5_8 H8_8 1_555 1_555
C8_8 H10_8 1_555 1_555
C10_8 C8_8 1_555 1_555
C11_8 C10_8 1_555 1_555
C15_8 C5_8 1_555 1_555
H13_8 C15_8 1_555 1_555
C16_8 O9_4 1_555 1_555
C22_8 C18_8 1_555 1_555
N3_8 C11_8 1_555 1_555
O3_8 Tb5 1_555 1_555
O10 C22_8 1_555 1_555
O6_8 Tb5 1_555 1_555
O13 C22_8 1_555 1_555
C23_8 C3_8 1_555 1_555
H17_8 C23_8 1_555 1_555
C24_8 C10_8 1_555 1_555
H18_8 C24_8 1_555 1_555
C26_8 C3_8 1_555 1_555
H20_8 C26_8 1_555 1_555
C28_8 C9_8 1_555 1_555
C5_8 C9_8 1_555 1_555
C8_8 C23_8 1_555 1_555
C11_8 N2_8 1_555 1_555
C15_8 C18_8 1_555 1_555
C16_8 O6_8 1_555 1_555
C21_8 O3_8 1_555 1_555
N3_8 C28_8 1_555 1_555
C24_8 C26_8 1_555 1_555
O1_8 H22_8 1_555 1_555
O1_8 H23_8 1_555 1_555
H5_7 C2_7 1_555 1_555
H6_7 C2_7 1_555 1_555
C17_7 H14_7 1_555 1_555
H15_7 C17_7 1_555 1_555
H16_7 C17_7 1_555 1_555
C17_7 N4_7 1_555 1_555
H5_8 C2_8 1_555 1_555
H6_8 C2_8 1_555 1_555
C17_8 H14_8 1_555 1_555
H15_8 C17_8 1_555 1_555
H16_8 C17_8 1_555 1_555
C17_8 N4_8 1_555 1_555

#END
