
###############################################################################
#
# This file contains modified crystal structure data generated from the
# MOF subset of the Cambridge Structural Database (CSD) v543 
# hosted by the Cambridge Crystallographic Data Centre (CCDC).
#
# This work is licensed under the Creative Commons
# Attribution-NonCommercial-ShareAlike 4.0 International License.
# To view a copy of this license, visit
# http://creativecommons.org/licenses/by-nc-sa/4.0/
# or send a letter to
# Creative Commons, PO Box 1866, Mountain View, CA 94042, USA.
#
# CIF created using the CSD Python API on 29 September 2022
# The structure has been converted into the P1 space group
# The structure has a 3D framework
# The original CSD entry XIBZUF is in the orthorhombic crystal system
# The original CSD entry XIBZUF is in a Sohncke space group
# The framework has been calculated to contain at least 10.0% void space
# The void calculation uses a probe of radius 1.32A, grid spacing 0.4
# H atom positions have been added when not included in the experimental data
#
###############################################################################

data_XIBZUF
_chemical_formula_moiety         '(C134 H76 N12 O66 Y6)n'
_symmetry_cell_setting           triclinic
_symmetry_space_group_name_H-M   'P 1'
_symmetry_Int_Tables_number      1
_space_group_name_Hall           'P 1'
loop_
_symmetry_equiv_pos_site_id
_symmetry_equiv_pos_as_xyz
1 x,y,z
_cell_length_a                   14.4590(15)
_cell_length_b                   20.2430(10)
_cell_length_c                   21.109(2)
_cell_angle_alpha                90
_cell_angle_beta                 90
_cell_angle_gamma                90
_cell_volume                     6178.47
loop_
_atom_site_label
_atom_site_type_symbol
_atom_site_fract_x
_atom_site_fract_y
_atom_site_fract_z
N1 N 0.3264(6) 0.0396(4) 0.0475(4)
H1 H 0.3058 0.0535 0.0833
N2 N 0.4267(6) 0.2000(4) 0.2247(3)
H2 H 0.4435 0.1619 0.2108
O6 O 0.6547(4) 0.1679(3) 0.4023(3)
O7 O 0.5695(4) 0.1734(3) 0.4906(3)
O8 O 0.2848(4) 0.3190(4) 0.4659(3)
O9 O 0.1985(4) 0.2913(3) 0.3820(3)
O10 O 0.3792(7) 0.3044(4) 0.1999(4)
C9 C 0.3591(7) 0.0840(4) 0.0061(4)
C10 C 0.3709(7) 0.1518(4) 0.0316(4)
C12 C 0.4002(9) 0.2649(5) 0.0051(5)
C13 C 0.4048(8) 0.2792(5) 0.0723(4)
H8 H 0.4146 0.3223 0.0860
C14 C 0.3947(8) 0.2297(4) 0.1156(4)
C15 C 0.3809(7) 0.1644(4) 0.0949(4)
H9 H 0.3786 0.1300 0.1241
C16 C 0.4020(8) 0.2465(5) 0.1835(4)
C17 C 0.4259(7) 0.2115(5) 0.2918(4)
C18 C 0.5005(7) 0.1905(5) 0.3269(4)
H10 H 0.5502 0.1694 0.3075
C19 C 0.5000(6) 0.2019(5) 0.3935(4)
C20 C 0.5819(6) 0.1774(5) 0.4311(5)
C21 C 0.4267(6) 0.2325(4) 0.4197(4)
H11 H 0.4266 0.2399 0.4632
C22 C 0.3531(6) 0.2529(4) 0.3850(4)
C23 C 0.2723(6) 0.2915(4) 0.4124(4)
C24 C 0.3538(7) 0.2421(5) 0.3187(4)
H12 H 0.3043 0.2561 0.2939
Y3 Y 0.55131(5) 0.18107(4) 0.59695(4)
Y6 Y 0.05131(5) 0.31893(4) 0.40305(4)
Y8 Y 0.30211(5) 0.34888(4) 0.56614(4)
Y10 Y 0.80211(5) 0.15112(4) 0.43386(4)
N3 N 0.3745(7) 0.3218(4) 0.9087(4)
H3 H 0.3503 0.2850 0.8969
O5 O 0.3792(8) 0.0684(4) 0.9543(4)
O11 O 0.3221(5) 0.4324(3) 0.6455(3)
O12 O 0.3527(5) 0.3289(3) 0.6705(3)
O13 O 0.4295(5) 0.6040(3) 0.8182(3)
O14 O 0.3944(5) 0.5716(3) 0.9163(3)
O15 O 0.4658(8) 0.3722(5) 0.9821(4)
C11 C 0.3776(7) 0.2033(4) 0.9868(4)
H7 H 0.3662 0.1946 0.9442
C25 C 0.4082(10) 0.3239(5) 0.9655(5)
C26 C 0.3733(6) 0.3760(2) 0.8626(2)
C27 C 0.3620(5) 0.35978(19) 0.7991(2)
H13 H 0.3545 0.3159 0.7871
C28 C 0.3619(5) 0.4092(2) 0.75336(19)
C29 C 0.3731(5) 0.4748(2) 0.7712(2)
H14 H 0.3731 0.5079 0.7406
C30 C 0.3845(5) 0.4910(2) 0.8347(2)
C31 C 0.3845(5) 0.4416(3) 0.88041(18)
H15 H 0.3921 0.4524 0.9229
C32 C 0.3424(7) 0.3903(4) 0.6872(4)
C33 C 0.4034(7) 0.5588(5) 0.8578(4)
Y5 Y 0.44869(5) 0.68107(4) 0.90305(4)
Y2 Y 0.19789(5) 0.65112(4) 0.06614(4)
O1 O 0.0952(4) 0.8538(4) 0.0811(3)
O2 O 0.1795(4) 0.7606(3) 0.0703(3)
O16 O 0.0066(6) 0.7639(3) 0.1872(3)
O17 O 0.2576(5) 0.5571(3) 0.0143(3)
C1 C 0.1692(6) 0.8233(4) 0.0674(4)
C2 C 0.2493(3) 0.8642(2) 0.0446(3)
C3 C 0.3226(4) 0.83448(18) 0.0129(3)
H4 H 0.3221 0.7892 0.0056
C5 C 0.3974(3) 0.9402(2) 0.0030(3)
C6 C 0.3241(4) 0.96992(19) 0.0347(3)
C7 C 0.2501(3) 0.9319(2) 0.0555(3)
H6 H 0.2010 0.9518 0.0767
O19 O 0.0504(5) 0.6268(3) 0.0416(3)
O20 O 0.3453(4) 0.6679(3) 0.0977(3)
O24 O 0.1779(5) 0.5676(3) 0.1455(3)
O25 O 0.1473(5) 0.6711(3) 0.1705(3)
H16 H 0.034156 0.796652 0.216698
H18 H 0.325971 0.560672 0.0114874
H19 H 0.240859 0.516837 0.0386028
O3 O 0.4653(4) 0.7863(3) 0.9351(4)
O4 O 0.5504(5) 0.8732(3) 0.9584(3)
C4 C 0.3967(3) 0.8725(3) 0.9921(3)
H5 H 0.4470 0.9657 0.9890
C8 C 0.4755(6) 0.8427(4) 0.9593(4)
Y9 Y 0.69789(5) 0.84888(4) 0.93386(4)
O22 O 0.2152(4) 0.6810(4) 0.9659(3)
Y1 Y 0.94869(5) 0.81893(4) 0.09695(4)
O18 O 0.9653(4) 0.7137(3) 0.0649(4)
O23 O 0.8015(4) 0.7913(3) 0.1180(3)
O26 O 0.9295(5) 0.8960(3) 0.1818(3)
O27 O 0.8944(5) 0.9284(3) 0.0837(3)
H17 H 0.955351 0.740256 0.208799
O21 O 0.9305(4) 0.8266(3) 0.9906(3)
O1_2 O 0.4048(4) 0.1462(4) 0.5811(3)
O2_2 O 0.3205(4) 0.2394(3) 0.5703(3)
O3_2 O 0.0347(4) 0.2137(3) 0.4351(4)
O16_2 O 0.4934(6) 0.2361(3) 0.6872(3)
O17_2 O 0.2424(5) 0.4429(3) 0.5143(3)
C1_2 C 0.3308(6) 0.1767(4) 0.5674(4)
C2_2 C 0.2507(3) 0.1358(2) 0.5446(3)
C3_2 C 0.1774(4) 0.16552(18) 0.5129(3)
H4_2 H 0.1779 0.2108 0.5056
C4_2 C 0.1033(3) 0.1275(3) 0.4921(3)
C5_2 C 0.1026(3) 0.0598(2) 0.5030(3)
H5_2 H 0.0530 0.0343 0.4890
C6_2 C 0.1759(4) 0.03008(19) 0.5347(3)
C7_2 C 0.2499(3) 0.0681(2) 0.5555(3)
H6_2 H 0.2990 0.0482 0.5767
C8_2 C 0.0245(6) 0.1573(4) 0.4593(4)
O18_2 O 0.5347(4) 0.2863(3) 0.5649(4)
O19_2 O 0.4496(5) 0.3732(3) 0.5416(3)
O20_2 O 0.1547(4) 0.3321(3) 0.5977(3)
O23_2 O 0.6985(4) 0.2087(3) 0.6180(3)
O26_2 O 0.5705(5) 0.1040(3) 0.6818(3)
O27_2 O 0.6056(5) 0.0716(3) 0.5837(3)
H16_2 H 0.465844 0.203348 0.716698
H17_2 H 0.544649 0.259744 0.708799
H18_2 H 0.174029 0.439328 0.511487
H19_2 H 0.259141 0.483163 0.538603
N1_2 N 0.1736(6) 0.9604(4) 0.5475(4)
H1_2 H 0.1942 0.9465 0.5833
N2_2 N 0.0733(6) 0.8000(4) 0.7247(3)
H2_2 H 0.0565 0.8381 0.7108
N3_2 N 0.1255(7) 0.6782(4) 0.4087(4)
H3_2 H 0.1497 0.7150 0.3969
O5_2 O 0.1208(8) 0.9316(4) 0.4543(4)
O9_2 O 0.3015(4) 0.7087(3) 0.8820(3)
O10_2 O 0.1208(7) 0.6956(4) 0.6999(4)
O13_2 O 0.0705(5) 0.3960(3) 0.3182(3)
O14_2 O 0.1056(5) 0.4284(3) 0.4163(3)
O15_2 O 0.0342(8) 0.6278(5) 0.4821(4)
C9_2 C 0.1409(7) 0.9160(4) 0.5061(4)
C10_2 C 0.1291(7) 0.8482(4) 0.5316(4)
C11_2 C 0.1224(7) 0.7967(4) 0.4868(4)
H7_2 H 0.1338 0.8054 0.4442
C12_2 C 0.0998(9) 0.7351(5) 0.5051(5)
C13_2 C 0.0952(8) 0.7208(5) 0.5723(4)
H8_2 H 0.0854 0.6777 0.5860
C14_2 C 0.1053(8) 0.7703(4) 0.6156(4)
C15_2 C 0.1191(7) 0.8356(4) 0.5949(4)
H9_2 H 0.1214 0.8700 0.6241
C16_2 C 0.0980(8) 0.7535(5) 0.6835(4)
C17_2 C 0.0741(7) 0.7885(5) 0.7918(4)
C19_2 C 0.0000(6) 0.7981(5) 0.8935(4)
C21_2 C 0.0733(6) 0.7675(4) 0.9197(4)
H11_2 H 0.0734 0.7601 0.9632
C22_2 C 0.1469(6) 0.7471(4) 0.8850(4)
C23_2 C 0.2277(6) 0.7085(4) 0.9124(4)
C24_2 C 0.1462(7) 0.7579(5) 0.8187(4)
H12_2 H 0.1957 0.7439 0.7939
C25_2 C 0.0918(10) 0.6761(5) 0.4655(5)
C26_2 C 0.1267(6) 0.6240(2) 0.3626(2)
C27_2 C 0.1380(5) 0.64022(19) 0.2991(2)
H13_2 H 0.1455 0.6841 0.2871
C28_2 C 0.1381(5) 0.5908(2) 0.25336(19)
C29_2 C 0.1269(5) 0.5252(2) 0.2712(2)
H14_2 H 0.1269 0.4921 0.2406
C30_2 C 0.1155(5) 0.5090(2) 0.3347(2)
C31_2 C 0.1155(5) 0.5584(3) 0.38041(18)
H15_2 H 0.1079 0.5476 0.4229
C32_2 C 0.1576(7) 0.6097(4) 0.1872(4)
C33_2 C 0.0966(7) 0.4412(5) 0.3578(4)
O4_2 O 0.9496(5) 0.1268(3) 0.4584(3)
O6_2 O 0.8453(4) 0.8321(3) 0.9023(3)
C18_2 C 0.9995(7) 0.8095(5) 0.8269(4)
H10_2 H 0.9498 0.8306 0.8075
C19_3 C 1.0000(6) 0.7981(5) 0.8935(4)
C20_2 C 0.9181(6) 0.8226(5) 0.9311(5)
O7_2 O 0.0695(4) 0.3266(3) 0.5094(3)
C18_3 C 0.0005(7) 0.3095(5) 0.6731(4)
H10_3 H 0.0502 0.3306 0.6925
C19_4 C -0.0000(6) 0.2981(5) 0.6065(4)
C20_3 C 0.0819(6) 0.3226(5) 0.5689(5)
N3_3 N 0.8745(7) 0.1782(4) 0.0913(4)
H3_3 H 0.8503 0.2150 0.1031
O5_3 O 0.8792(8) 0.4316(4) 0.0457(4)
O11_2 O 0.8221(5) 0.0676(3) 0.3545(3)
O12_2 O 0.8527(5) 0.1711(3) 0.3295(3)
O15_3 O 0.9658(8) 0.1278(5) 0.0179(4)
C4_3 C 0.8967(3) 0.6275(3) 0.0079(3)
H5_3 H 0.9470 0.5343 0.0110
C8_3 C 0.9755(6) 0.6573(4) 0.0407(4)
C11_3 C 0.8776(7) 0.2967(4) 0.0132(4)
H7_3 H 0.8662 0.3054 0.0558
C25_3 C 0.9082(10) 0.1761(5) 0.0345(5)
C26_3 C 0.8733(6) 0.1240(2) 0.1374(2)
C27_3 C 0.8620(5) 0.14022(19) 0.2009(2)
H13_3 H 0.8545 0.1841 0.2129
C28_3 C 0.8619(5) 0.0908(2) 0.24664(19)
C29_3 C 0.8731(5) 0.0252(2) 0.2288(2)
C30_3 C 0.8845(5) 0.0090(2) 0.1653(2)
C31_3 C 0.8845(5) 0.0584(3) 0.11959(18)
H15_3 H 0.8921 0.0476 0.0771
C32_3 C 0.8424(7) 0.1097(4) 0.3128(4)
O21_2 O 0.4305(4) 0.6734(3) 0.0094(3)
O22_2 O 0.7152(4) 0.8190(4) 0.0341(3)
N1_3 N 0.8264(6) 0.4604(4) 0.9525(4)
H1_3 H 0.8058 0.4465 0.9167
N2_3 N 0.9267(6) 0.3000(4) 0.7753(3)
H2_3 H 0.9435 0.3381 0.7892
O1_3 O 0.5952(4) 0.6462(4) 0.9189(3)
O2_3 O 0.6795(4) 0.7394(3) 0.9297(3)
O8_2 O 0.7848(4) 0.1810(4) 0.5341(3)
O10_3 O 0.8792(7) 0.1956(4) 0.8001(4)
O16_3 O 0.5066(6) 0.7361(3) 0.8128(3)
O17_3 O 0.7576(5) 0.9429(3) 0.9857(3)
C1_3 C 0.6692(6) 0.6767(4) 0.9326(4)
C2_3 C 0.7493(3) 0.6358(2) 0.9554(3)
C3_3 C 0.8226(4) 0.66552(18) 0.9871(3)
H4_3 H 0.8221 0.7108 0.9944
C5_3 C 0.8974(3) 0.5598(2) 0.9970(3)
C6_3 C 0.8241(4) 0.53008(19) 0.9653(3)
C7_3 C 0.7501(3) 0.5681(2) 0.9445(3)
H6_3 H 0.7010 0.5482 0.9233
C9_3 C 0.8591(7) 0.4160(4) 0.9939(4)
C10_3 C 0.8709(7) 0.3482(4) 0.9684(4)
C12_3 C 0.9002(9) 0.2351(5) 0.9949(5)
C13_3 C 0.9048(8) 0.2208(5) 0.9277(4)
H8_3 H 0.9146 0.1777 0.9140
C14_3 C 0.8947(8) 0.2703(4) 0.8844(4)
C15_3 C 0.8809(7) 0.3356(4) 0.9051(4)
H9_3 H 0.8786 0.3700 0.8759
C16_3 C 0.9020(8) 0.2535(5) 0.8165(4)
C17_3 C 0.9259(7) 0.2885(5) 0.7082(4)
C19_5 C 1.0000(6) 0.2981(5) 0.6065(4)
C21_3 C 0.9267(6) 0.2675(4) 0.5803(4)
H11_3 H 0.9266 0.2601 0.5368
C22_3 C 0.8531(6) 0.2471(4) 0.6150(4)
C23_3 C 0.7723(6) 0.2085(4) 0.5876(4)
C24_3 C 0.8538(7) 0.2579(5) 0.6813(4)
H12_3 H 0.8043 0.2439 0.7061
O24_2 O 0.6779(5) 0.9324(3) 0.8545(3)
O25_2 O 0.6473(5) 0.8289(3) 0.8295(3)
H16_3 H 0.534156 0.703348 0.783302
H17_3 H 0.455351 0.759744 0.791201
H18_3 H 0.825971 0.939328 0.988513
H19_3 H 0.740859 0.983163 0.961397
H14_3 H 0.8731 0.9921 0.2594
C33_3 C 0.9034(7) 0.9412(5) 0.1422(4)
H17_4 H 0.0446493 0.240256 0.291201
H14_4 H 0.6269 0.0079 0.7594
C33_4 C 0.5966(7) 0.0588(5) 0.6422(4)
N1_4 N 0.6736(6) 0.5396(4) 0.4525(4)
H1_4 H 0.6942 0.5535 0.4167
N2_4 N 0.5733(6) 0.7000(4) 0.2753(3)
H2_4 H 0.5565 0.6619 0.2892
N3_4 N 0.6255(7) 0.8218(4) 0.5913(4)
H3_4 H 0.6497 0.7850 0.6031
O1_4 O 0.9048(4) 0.3538(4) 0.4189(3)
O2_4 O 0.8205(4) 0.2606(3) 0.4297(3)
O5_4 O 0.6208(8) 0.5684(4) 0.5457(4)
O10_4 O 0.6208(7) 0.8044(4) 0.3001(4)
O15_4 O 0.5342(8) 0.8722(5) 0.5179(4)
O16_4 O 0.9934(6) 0.2639(3) 0.3128(3)
O17_4 O 0.7424(5) 0.0571(3) 0.4857(3)
C1_4 C 0.8308(6) 0.3233(4) 0.4326(4)
C2_4 C 0.7507(3) 0.3642(2) 0.4554(3)
C3_4 C 0.6774(4) 0.33448(18) 0.4871(3)
H4_4 H 0.6779 0.2892 0.4944
C4_4 C 0.6033(3) 0.3725(3) 0.5079(3)
C5_4 C 0.6026(3) 0.4402(2) 0.4970(3)
H5_4 H 0.5530 0.4657 0.5110
C6_4 C 0.6759(4) 0.46992(19) 0.4653(3)
C7_4 C 0.7499(3) 0.4319(2) 0.4445(3)
H6_4 H 0.7990 0.4518 0.4233
C8_4 C 0.5245(6) 0.3427(4) 0.5407(4)
C9_4 C 0.6409(7) 0.5840(4) 0.4939(4)
C10_4 C 0.6291(7) 0.6518(4) 0.4684(4)
C11_4 C 0.6224(7) 0.7033(4) 0.5132(4)
H7_4 H 0.6338 0.6946 0.5558
C12_4 C 0.5998(9) 0.7649(5) 0.4949(5)
C13_4 C 0.5952(8) 0.7792(5) 0.4277(4)
H8_4 H 0.5854 0.8223 0.4140
C14_4 C 0.6053(8) 0.7297(4) 0.3844(4)
C15_4 C 0.6191(7) 0.6644(4) 0.4051(4)
H9_4 H 0.6214 0.6300 0.3759
C16_4 C 0.5980(8) 0.7465(5) 0.3165(4)
C17_4 C 0.5741(7) 0.7115(5) 0.2082(4)
C18_4 C 0.4995(7) 0.6905(5) 0.1731(4)
H10_4 H 0.4498 0.6694 0.1925
C19_6 C 0.5000(6) 0.7019(5) 0.1065(4)
C20_4 C 0.4181(6) 0.6774(5) 0.0689(5)
C21_4 C 0.5733(6) 0.7325(4) 0.0803(4)
H11_4 H 0.5734 0.7399 0.0368
C22_4 C 0.6469(6) 0.7529(4) 0.1150(4)
C23_4 C 0.7277(6) 0.7915(4) 0.0876(4)
C24_4 C 0.6462(7) 0.7421(5) 0.1813(4)
H12_4 H 0.6957 0.7561 0.2061
C25_4 C 0.5918(10) 0.8239(5) 0.5345(5)
C26_4 C 0.6267(6) 0.8760(2) 0.6374(2)
C27_4 C 0.6380(5) 0.85978(19) 0.7009(2)
H13_4 H 0.6455 0.8159 0.7129
C28_4 C 0.6381(5) 0.9092(2) 0.74664(19)
C29_4 C 0.6269(5) 0.9748(2) 0.7288(2)
C30_4 C 0.6155(5) 0.9910(2) 0.6653(2)
C31_4 C 0.6155(5) 0.9416(3) 0.61959(18)
H15_4 H 0.6079 0.9524 0.5771
C32_4 C 0.6576(7) 0.8903(4) 0.8128(4)
H16_4 H 0.965844 0.296652 0.283302
H18_4 H 0.674029 0.0606717 0.488513
H19_4 H 0.759141 0.0168375 0.461397
loop_
_geom_bond_atom_site_label_1
_geom_bond_atom_site_label_2
_geom_bond_site_symmetry_1
_geom_bond_site_symmetry_2
N1 H1 1_555 1_555
N2 H2 1_555 1_555
O6 C20 1_555 1_555
O7 C20 1_555 1_555
O8 C23 1_555 1_555
O9 C23 1_555 1_555
O10 C16 1_555 1_555
C9 N1 1_555 1_555
C10 C9 1_555 1_555
C13 C12 1_555 1_555
H8 C13 1_555 1_555
C14 C13 1_555 1_555
C15 C10 1_555 1_555
H9 C15 1_555 1_555
C16 N2 1_555 1_555
C17 N2 1_555 1_555
C18 C17 1_555 1_555
H10 C18 1_555 1_555
C19 C18 1_555 1_555
C20 C19 1_555 1_555
C21 C19 1_555 1_555
H11 C21 1_555 1_555
C22 C21 1_555 1_555
C23 C22 1_555 1_555
C24 C17 1_555 1_555
H12 C24 1_555 1_555
Y3 O7 1_555 1_555
Y6 O9 1_555 1_555
Y8 O8 1_555 1_555
Y10 O6 1_555 1_555
C14 C15 1_555 1_555
C14 C16 1_555 1_555
C22 C24 1_555 1_555
N3 H3 1_555 1_555
O11 C32 1_555 1_555
O12 C32 1_555 1_555
O13 C33 1_555 1_555
O14 C33 1_555 1_555
O15 C25 1_555 1_555
H7 C11 1_555 1_555
C25 N3 1_555 1_555
C26 N3 1_555 1_555
C27 C26 1_555 1_555
H13 C27 1_555 1_555
C28 C27 1_555 1_555
C29 C28 1_555 1_555
H14 C29 1_555 1_555
C30 C29 1_555 1_555
C31 C26 1_555 1_555
H15 C31 1_555 1_555
C32 C28 1_555 1_555
C33 C30 1_555 1_555
Y5 O13 1_555 1_555
Y8 O11 1_555 1_555
O12 Y8 1_555 1_555
O14 Y5 1_555 1_555
C30 C31 1_555 1_555
Y2 O2 1_555 1_555
O1 C1 1_555 1_555
O2 C1 1_555 1_555
O17 Y2 1_555 1_555
C1 C2 1_555 1_555
C2 C3 1_555 1_555
C3 H4 1_555 1_555
C7 C2 1_555 1_555
H6 C7 1_555 1_555
O19 Y2 1_555 1_555
O20 Y2 1_555 1_555
O24 Y2 1_555 1_555
O25 Y2 1_555 1_555
C5 C6 1_555 1_555
C6 C7 1_555 1_555
O16 H16 1_555 1_555
O17 H18 1_555 1_555
O17 H19 1_555 1_555
O3 C8 1_555 1_555
O4 C8 1_555 1_555
C8 C4 1_555 1_555
Y5 O3 1_555 1_555
Y9 O4 1_555 1_555
O18 Y1 1_555 1_555
O23 Y1 1_555 1_555
O26 Y1 1_555 1_555
O27 Y1 1_555 1_555
Y3 O1_2 1_555 1_555
Y8 O2_2 1_555 1_555
O1_2 C1_2 1_555 1_555
O2_2 C1_2 1_555 1_555
O3_2 C8_2 1_555 1_555
O16_2 Y3 1_555 1_555
O17_2 Y8 1_555 1_555
C1_2 C2_2 1_555 1_555
C2_2 C3_2 1_555 1_555
C3_2 H4_2 1_555 1_555
C4_2 C3_2 1_555 1_555
C5_2 C4_2 1_555 1_555
H5_2 C5_2 1_555 1_555
C7_2 C2_2 1_555 1_555
H6_2 C7_2 1_555 1_555
C8_2 C4_2 1_555 1_555
Y6 O3_2 1_555 1_555
O18_2 Y3 1_555 1_555
O19_2 Y8 1_555 1_555
O20_2 Y8 1_555 1_555
O23_2 Y3 1_555 1_555
O26_2 Y3 1_555 1_555
O27_2 Y3 1_555 1_555
C5_2 C6_2 1_555 1_555
C6_2 C7_2 1_555 1_555
O16_2 H16_2 1_555 1_555
O16_2 H17_2 1_555 1_555
O17_2 H18_2 1_555 1_555
O17_2 H19_2 1_555 1_555
N1_2 H1_2 1_555 1_555
N2_2 H2_2 1_555 1_555
N3_2 H3_2 1_555 1_555
O5_2 C9_2 1_555 1_555
O22 C23_2 1_555 1_555
O9_2 C23_2 1_555 1_555
O10_2 C16_2 1_555 1_555
O24 C32_2 1_555 1_555
O25 C32_2 1_555 1_555
O13_2 C33_2 1_555 1_555
O14_2 C33_2 1_555 1_555
O15_2 C25_2 1_555 1_555
C9_2 N1_2 1_555 1_555
C10_2 C9_2 1_555 1_555
C11_2 C10_2 1_555 1_555
H7_2 C11_2 1_555 1_555
C12_2 C11_2 1_555 1_555
C13_2 C12_2 1_555 1_555
H8_2 C13_2 1_555 1_555
C14_2 C13_2 1_555 1_555
C15_2 C10_2 1_555 1_555
H9_2 C15_2 1_555 1_555
C16_2 N2_2 1_555 1_555
C17_2 N2_2 1_555 1_555
C21_2 C19_2 1_555 1_555
H11_2 C21_2 1_555 1_555
C22_2 C21_2 1_555 1_555
C23_2 C22_2 1_555 1_555
C24_2 C17_2 1_555 1_555
H12_2 C24_2 1_555 1_555
C25_2 N3_2 1_555 1_555
C26_2 N3_2 1_555 1_555
C27_2 C26_2 1_555 1_555
H13_2 C27_2 1_555 1_555
C28_2 C27_2 1_555 1_555
C29_2 C28_2 1_555 1_555
H14_2 C29_2 1_555 1_555
C30_2 C29_2 1_555 1_555
C31_2 C26_2 1_555 1_555
H15_2 C31_2 1_555 1_555
C32_2 C28_2 1_555 1_555
C33_2 C30_2 1_555 1_555
Y6 O13_2 1_555 1_555
Y5 O9_2 1_555 1_555
O14_2 Y6 1_555 1_555
C12_2 C25_2 1_555 1_555
C14_2 C15_2 1_555 1_555
C14_2 C16_2 1_555 1_555
C22_2 C24_2 1_555 1_555
C30_2 C31_2 1_555 1_555
Y10 O4_2 1_555 1_555
O6_2 C20_2 1_555 1_555
O21 C20_2 1_555 1_555
H10_2 C18_2 1_555 1_555
C19_3 C18_2 1_555 1_555
C20_2 C19_3 1_555 1_555
Y9 O6_2 1_555 1_555
O20_2 C20_3 1_555 1_555
O7_2 C20_3 1_555 1_555
H10_3 C18_3 1_555 1_555
C19_4 C18_3 1_555 1_555
C20_3 C19_4 1_555 1_555
Y6 O7_2 1_555 1_555
N3_3 H3_3 1_555 1_555
O18 C8_3 1_555 1_555
O11_2 C32_3 1_555 1_555
O12_2 C32_3 1_555 1_555
O15_3 C25_3 1_555 1_555
C8_3 C4_3 1_555 1_555
H7_3 C11_3 1_555 1_555
C25_3 N3_3 1_555 1_555
C26_3 N3_3 1_555 1_555
C27_3 C26_3 1_555 1_555
H13_3 C27_3 1_555 1_555
C28_3 C27_3 1_555 1_555
C29_3 C28_3 1_555 1_555
C30_3 C29_3 1_555 1_555
C31_3 C26_3 1_555 1_555
H15_3 C31_3 1_555 1_555
C32_3 C28_3 1_555 1_555
Y10 O11_2 1_555 1_555
O12_2 Y10 1_555 1_555
C30_3 C31_3 1_555 1_555
Y5 O1_3 1_555 1_555
Y9 O2_3 1_555 1_555
N1_3 H1_3 1_555 1_555
N2_3 H2_3 1_555 1_555
O1_3 C1_3 1_555 1_555
O2_3 C1_3 1_555 1_555
O8_2 C23_3 1_555 1_555
O23_2 C23_3 1_555 1_555
O10_3 C16_3 1_555 1_555
O16_3 Y5 1_555 1_555
O17_3 Y9 1_555 1_555
C1_3 C2_3 1_555 1_555
C2_3 C3_3 1_555 1_555
C3_3 H4_3 1_555 1_555
C6_3 N1_3 1_555 1_555
C7_3 C2_3 1_555 1_555
H6_3 C7_3 1_555 1_555
C9_3 N1_3 1_555 1_555
C10_3 C9_3 1_555 1_555
C13_3 C12_3 1_555 1_555
H8_3 C13_3 1_555 1_555
C14_3 C13_3 1_555 1_555
C15_3 C10_3 1_555 1_555
H9_3 C15_3 1_555 1_555
C16_3 N2_3 1_555 1_555
C17_3 N2_3 1_555 1_555
C21_3 C19_5 1_555 1_555
H11_3 C21_3 1_555 1_555
C22_3 C21_3 1_555 1_555
C23_3 C22_3 1_555 1_555
C24_3 C17_3 1_555 1_555
H12_3 C24_3 1_555 1_555
Y10 O8_2 1_555 1_555
O24_2 Y9 1_555 1_555
O25_2 Y9 1_555 1_555
C5_3 C6_3 1_555 1_555
C6_3 C7_3 1_555 1_555
C14_3 C15_3 1_555 1_555
C14_3 C16_3 1_555 1_555
C22_3 C24_3 1_555 1_555
O16_3 H16_3 1_555 1_555
O16_3 H17_3 1_555 1_555
O17_3 H18_3 1_555 1_555
O17_3 H19_3 1_555 1_555
O26 C33_3 1_555 1_555
O27 C33_3 1_555 1_555
O26_2 C33_4 1_555 1_555
O27_2 C33_4 1_555 1_555
Y10 O2_4 1_555 1_555
N1_4 H1_4 1_555 1_555
N2_4 H2_4 1_555 1_555
N3_4 H3_4 1_555 1_555
O1_4 C1_4 1_555 1_555
O2_4 C1_4 1_555 1_555
O18_2 C8_4 1_555 1_555
O19_2 C8_4 1_555 1_555
O5_4 C9_4 1_555 1_555
O20 C20_4 1_555 1_555
O21_2 C20_4 1_555 1_555
O22_2 C23_4 1_555 1_555
O23 C23_4 1_555 1_555
O10_4 C16_4 1_555 1_555
O24_2 C32_4 1_555 1_555
O25_2 C32_4 1_555 1_555
O15_4 C25_4 1_555 1_555
O17_4 Y10 1_555 1_555
C1_4 C2_4 1_555 1_555
C2_4 C3_4 1_555 1_555
C3_4 H4_4 1_555 1_555
C4_4 C3_4 1_555 1_555
C5_4 C4_4 1_555 1_555
H5_4 C5_4 1_555 1_555
C6_4 N1_4 1_555 1_555
C7_4 C2_4 1_555 1_555
H6_4 C7_4 1_555 1_555
C8_4 C4_4 1_555 1_555
C9_4 N1_4 1_555 1_555
C10_4 C9_4 1_555 1_555
C11_4 C10_4 1_555 1_555
H7_4 C11_4 1_555 1_555
C12_4 C11_4 1_555 1_555
C13_4 C12_4 1_555 1_555
H8_4 C13_4 1_555 1_555
C14_4 C13_4 1_555 1_555
C15_4 C10_4 1_555 1_555
H9_4 C15_4 1_555 1_555
C16_4 N2_4 1_555 1_555
C17_4 N2_4 1_555 1_555
C18_4 C17_4 1_555 1_555
H10_4 C18_4 1_555 1_555
C19_6 C18_4 1_555 1_555
C20_4 C19_6 1_555 1_555
C21_4 C19_6 1_555 1_555
H11_4 C21_4 1_555 1_555
C22_4 C21_4 1_555 1_555
C23_4 C22_4 1_555 1_555
C24_4 C17_4 1_555 1_555
H12_4 C24_4 1_555 1_555
C25_4 N3_4 1_555 1_555
C26_4 N3_4 1_555 1_555
C27_4 C26_4 1_555 1_555
H13_4 C27_4 1_555 1_555
C28_4 C27_4 1_555 1_555
C29_4 C28_4 1_555 1_555
C30_4 C29_4 1_555 1_555
C31_4 C26_4 1_555 1_555
H15_4 C31_4 1_555 1_555
C32_4 C28_4 1_555 1_555
C5_4 C6_4 1_555 1_555
C6_4 C7_4 1_555 1_555
C12_4 C25_4 1_555 1_555
C14_4 C15_4 1_555 1_555
C14_4 C16_4 1_555 1_555
C22_4 C24_4 1_555 1_555
C30_4 C31_4 1_555 1_555
O16_4 H16_4 1_555 1_555
O17_4 H18_4 1_555 1_555
O17_4 H19_4 1_555 1_555

#END
