
###############################################################################
#
# This file contains modified crystal structure data generated from the
# MOF subset of the Cambridge Structural Database (CSD) v543 
# hosted by the Cambridge Crystallographic Data Centre (CCDC).
#
# This work is licensed under the Creative Commons
# Attribution-NonCommercial-ShareAlike 4.0 International License.
# To view a copy of this license, visit
# http://creativecommons.org/licenses/by-nc-sa/4.0/
# or send a letter to
# Creative Commons, PO Box 1866, Mountain View, CA 94042, USA.
#
# CIF created using the CSD Python API on 29 September 2022
# The structure has been converted into the P1 space group
# The structure has a 3D framework
# The original CSD entry XICDUI is in the orthorhombic crystal system
# The framework has been calculated to contain at least 10.0% void space
# The void calculation uses a probe of radius 1.32A, grid spacing 0.4
# The framework is charged, counterions have been retained in the structure
#
###############################################################################

data_XICDUI
_chemical_formula_moiety         '(C136 H88 B8 Cu8 F32 N40)n'
_symmetry_cell_setting           triclinic
_symmetry_space_group_name_H-M   'P 1'
_symmetry_Int_Tables_number      1
_space_group_name_Hall           'P 1'
loop_
_symmetry_equiv_pos_site_id
_symmetry_equiv_pos_as_xyz
1 x,y,z
_cell_length_a                   8.9646(3)
_cell_length_b                   22.8924(9)
_cell_length_c                   23.9497(9)
_cell_angle_alpha                90
_cell_angle_beta                 90
_cell_angle_gamma                90
_cell_volume                     4914.99
loop_
_atom_site_label
_atom_site_type_symbol
_atom_site_fract_x
_atom_site_fract_y
_atom_site_fract_z
Cu1 Cu 0.49722(8) 0.72061(3) 0.42177(3)
N1 N 0.1553(6) 0.72717(19) 0.54161(18)
N2 N 0.3467(5) 0.7072(2) 0.48444(19)
N3 N 0.2193(5) 0.67459(18) 0.55536(17)
N4 N 0.4027(6) 0.7508(2) 0.8552(2)
N5 N 0.4005(7) 0.3564(2) 0.5836(2)
C1 C 0.2358(7) 0.7444(3) 0.4990(2)
H1 H 0.2178 0.7801 0.4799
C2 C 0.3337(6) 0.6643(3) 0.5210(2)
H2 H 0.3965 0.6309 0.5226
C3 C 0.1640(7) 0.6406(2) 0.6036(2)
H3 H 0.0525 0.6408 0.6021
C4 C 0.2118(6) 0.6695(2) 0.6589(2)
C5 C 0.3145(7) 0.7139(3) 0.6614(2)
H4 H 0.3547 0.7299 0.6280
C6 C 0.3590(8) 0.7353(3) 0.7131(3)
H5 H 0.4305 0.7659 0.7151
C7 C 0.2996(7) 0.7123(3) 0.7614(2)
C8 C 0.1955(8) 0.6678(3) 0.7592(2)
H6 H 0.1553 0.6522 0.7927
C9 C 0.1498(7) 0.6460(3) 0.7082(2)
H7 H 0.0778 0.6156 0.7063
C10 C 0.2155(6) 0.5776(2) 0.5993(2)
C11 C 0.3464(7) 0.5597(3) 0.6237(3)
H8 H 0.4049 0.5866 0.6444
C12 C 0.3935(8) 0.5019(3) 0.6181(3)
H9 H 0.4839 0.4893 0.6349
C13 C 0.3081(7) 0.4635(2) 0.5880(2)
C14 C 0.1794(8) 0.4802(3) 0.5632(3)
H10 H 0.1224 0.4530 0.5422
C15 C 0.1308(8) 0.5382(3) 0.5686(3)
H11 H 0.0406 0.5504 0.5514
C16 C 0.3542(7) 0.7336(3) 0.8142(3)
C17 C 0.3576(8) 0.4029(3) 0.5844(3)
Cu3 Cu 0.49722(8) 0.77939(3) 0.92177(3)
Cu4 Cu 0.50278(8) 0.27939(3) 0.57823(3)
N6 N 0.6553(6) 0.77283(19) 0.45839(18)
N7 N 0.4027(6) 0.7492(2) 0.3552(2)
N8 N 0.5995(7) 0.6436(2) 0.4164(2)
Cu2 Cu 0.99722(8) 0.77939(3) 0.57823(3)
N6_2 N 0.1553(6) 0.77283(19) 0.04161(18)
N8_2 N 0.0995(7) 0.6436(2) 0.0836(2)
Cu4_2 Cu 0.00278(8) 0.27939(3) 0.92177(3)
Cu1_2 Cu 0.99722(8) 0.72061(3) 0.07823(3)
N2_2 N 0.8467(5) 0.7072(2) 0.01556(19)
C1_2 C 0.7358(7) 0.7444(3) 0.0010(2)
H1_2 H 0.7178 0.7801 0.0201
N7_2 N 0.9027(6) 0.7492(2) 0.1448(2)
N1_2 N 0.6553(6) 0.72717(19) 0.95839(18)
N3_2 N 0.7193(5) 0.67459(18) 0.94464(17)
N4_2 N 0.9027(6) 0.7508(2) 0.6448(2)
N5_2 N 0.9005(7) 0.3564(2) 0.9164(2)
C2_2 C 0.8337(6) 0.6643(3) 0.9790(2)
H2_2 H 0.8965 0.6309 0.9774
C3_2 C 0.6640(7) 0.6406(2) 0.8964(2)
H3_2 H 0.5525 0.6408 0.8979
C4_2 C 0.7118(6) 0.6695(2) 0.8411(2)
C5_2 C 0.8145(7) 0.7139(3) 0.8386(2)
H4_2 H 0.8547 0.7299 0.8720
C6_2 C 0.8590(8) 0.7353(3) 0.7869(3)
H5_2 H 0.9305 0.7659 0.7849
C7_2 C 0.7996(7) 0.7123(3) 0.7386(2)
C8_2 C 0.6955(8) 0.6678(3) 0.7408(2)
H6_2 H 0.6553 0.6522 0.7073
C9_2 C 0.6498(7) 0.6460(3) 0.7918(2)
H7_2 H 0.5778 0.6156 0.7937
C10_2 C 0.7155(6) 0.5776(2) 0.9007(2)
C11_2 C 0.8464(7) 0.5597(3) 0.8763(3)
H8_2 H 0.9049 0.5866 0.8556
C12_2 C 0.8935(8) 0.5019(3) 0.8819(3)
H9_2 H 0.9839 0.4893 0.8651
C13_2 C 0.8081(7) 0.4635(2) 0.9120(2)
C14_2 C 0.6794(8) 0.4802(3) 0.9368(3)
H10_2 H 0.6224 0.4530 0.9578
C15_2 C 0.6308(8) 0.5382(3) 0.9314(3)
H11_2 H 0.5406 0.5504 0.9486
C16_2 C 0.8542(7) 0.7336(3) 0.6858(3)
C17_2 C 0.8576(8) 0.4029(3) 0.9156(3)
N5_3 N 0.4005(7) 0.1436(2) 0.0836(2)
H9_3 H 0.4839 0.0107 0.1349
C13_3 C 0.3081(7) 0.0365(2) 0.0880(2)
C14_3 C 0.1794(8) 0.0198(3) 0.0632(3)
H10_3 H 0.1224 0.0470 0.0422
C17_3 C 0.3576(8) 0.0971(3) 0.0844(3)
Cu4_3 Cu 0.50278(8) 0.22061(3) 0.07823(3)
N3_3 N 0.2193(5) 0.82541(18) 0.05536(17)
C2_3 C 0.3337(6) 0.8357(3) 0.0210(2)
H2_3 H 0.3965 0.8691 0.0226
C3_3 C 0.1640(7) 0.8594(2) 0.1036(2)
H3_3 H 0.0525 0.8592 0.1021
C4_3 C 0.2118(6) 0.8305(2) 0.1589(2)
C5_3 C 0.3145(7) 0.7861(3) 0.1614(2)
H4_3 H 0.3547 0.7701 0.1280
C6_3 C 0.3590(8) 0.7647(3) 0.2131(3)
H5_3 H 0.4305 0.7341 0.2151
C7_3 C 0.2996(7) 0.7877(3) 0.2614(2)
C8_3 C 0.1955(8) 0.8322(3) 0.2592(2)
H6_3 H 0.1553 0.8478 0.2927
C9_3 C 0.1498(7) 0.8540(3) 0.2082(2)
H7_3 H 0.0778 0.8844 0.2063
C10_3 C 0.2155(6) 0.9224(2) 0.0993(2)
C11_3 C 0.3464(7) 0.9403(3) 0.1237(3)
H8_3 H 0.4049 0.9134 0.1444
C12_3 C 0.3935(8) 0.9981(3) 0.1181(3)
C15_3 C 0.1308(8) 0.9618(3) 0.0686(3)
H11_3 H 0.0406 0.9496 0.0514
C16_3 C 0.3542(7) 0.7664(3) 0.3142(3)
N2_3 N 0.3467(5) 0.7928(2) 0.98444(19)
C1_3 C 0.2358(7) 0.7556(3) 0.9990(2)
H1_3 H 0.2178 0.7199 0.9799
N8_3 N 0.5995(7) 0.8564(2) 0.9164(2)
Cu1_3 Cu 0.00278(8) 0.22061(3) 0.42177(3)
N1_3 N 0.3447(6) 0.22717(19) 0.54161(18)
N2_4 N 0.1533(5) 0.2072(2) 0.48444(19)
N3_4 N 0.2807(5) 0.17459(18) 0.55536(17)
N4_3 N 0.0973(6) 0.2508(2) 0.8552(2)
C1_4 C 0.2642(7) 0.2444(3) 0.4990(2)
H1_4 H 0.2822 0.2801 0.4799
C2_4 C 0.1663(6) 0.1643(3) 0.5210(2)
H2_4 H 0.1035 0.1309 0.5226
C3_4 C 0.3360(7) 0.1406(2) 0.6036(2)
H3_4 H 0.4475 0.1408 0.6021
C4_4 C 0.2882(6) 0.1695(2) 0.6589(2)
C5_4 C 0.1855(7) 0.2139(3) 0.6614(2)
H4_4 H 0.1453 0.2299 0.6280
C6_4 C 0.1410(8) 0.2353(3) 0.7131(3)
H5_4 H 0.0695 0.2659 0.7151
C7_4 C 0.2004(7) 0.2123(3) 0.7614(2)
C8_4 C 0.3045(8) 0.1678(3) 0.7592(2)
H6_4 H 0.3447 0.1522 0.7927
C9_4 C 0.3502(7) 0.1460(3) 0.7082(2)
H7_4 H 0.4222 0.1156 0.7063
C10_4 C 0.2845(6) 0.0776(2) 0.5993(2)
C11_4 C 0.1536(7) 0.0597(3) 0.6237(3)
H8_4 H 0.0951 0.0866 0.6444
C12_4 C 0.1065(8) 0.0019(3) 0.6181(3)
C15_4 C 0.3692(8) 0.0382(3) 0.5686(3)
H11_4 H 0.4594 0.0504 0.5514
C16_4 C 0.1458(7) 0.2336(3) 0.8142(3)
N7_3 N 0.0973(6) 0.2492(2) 0.3552(2)
N5_4 N 0.0995(7) 0.8564(2) 0.5836(2)
H9_4 H 0.0161 0.9893 0.6349
C13_4 C 0.1919(7) 0.9635(2) 0.5880(2)
C14_4 C 0.3206(8) 0.9802(3) 0.5632(3)
H10_4 H 0.3776 0.9530 0.5422
C17_4 C 0.1424(8) 0.9029(3) 0.5844(3)
N6_3 N 0.8447(6) 0.27283(19) 0.45839(18)
N8_4 N 0.9005(7) 0.1436(2) 0.4164(2)
N2_5 N 0.6533(5) 0.2928(2) 0.51556(19)
N3_5 N 0.7807(5) 0.32541(18) 0.44464(17)
N4_4 N 0.5973(6) 0.2492(2) 0.1448(2)
C1_5 C 0.7642(7) 0.2556(3) 0.5010(2)
H1_5 H 0.7822 0.2199 0.5201
C2_5 C 0.6663(6) 0.3357(3) 0.4790(2)
H2_5 H 0.6035 0.3691 0.4774
C3_5 C 0.8360(7) 0.3594(2) 0.3964(2)
H3_5 H 0.9475 0.3592 0.3979
C4_5 C 0.7882(6) 0.3305(2) 0.3411(2)
C5_5 C 0.6855(7) 0.2861(3) 0.3386(2)
H4_5 H 0.6453 0.2701 0.3720
C6_5 C 0.6410(8) 0.2647(3) 0.2869(3)
H5_5 H 0.5695 0.2341 0.2849
C7_5 C 0.7004(7) 0.2877(3) 0.2386(2)
C8_5 C 0.8045(8) 0.3322(3) 0.2408(2)
H6_5 H 0.8447 0.3478 0.2073
C9_5 C 0.8502(7) 0.3540(3) 0.2918(2)
H7_5 H 0.9222 0.3844 0.2937
C10_5 C 0.7845(6) 0.4224(2) 0.4007(2)
C11_5 C 0.6536(7) 0.4403(3) 0.3763(3)
H8_5 H 0.5951 0.4134 0.3556
C12_5 C 0.6065(8) 0.4981(3) 0.3819(3)
H9_5 H 0.5161 0.5107 0.3651
C13_5 C 0.6919(7) 0.5365(2) 0.4120(2)
C14_5 C 0.8206(8) 0.5198(3) 0.4368(3)
H10_5 H 0.8776 0.5470 0.4578
C15_5 C 0.8692(8) 0.4618(3) 0.4314(3)
H11_5 H 0.9594 0.4496 0.4486
C16_5 C 0.6458(7) 0.2664(3) 0.1858(3)
C17_5 C 0.6424(8) 0.5971(3) 0.4156(3)
N7_4 N 0.5973(6) 0.2508(2) 0.6448(2)
N1_4 N 0.3447(6) 0.27283(19) 0.04161(18)
N3_6 N 0.2807(5) 0.32541(18) 0.05536(17)
C2_6 C 0.1663(6) 0.3357(3) 0.0210(2)
H2_6 H 0.1035 0.3691 0.0226
C3_6 C 0.3360(7) 0.3594(2) 0.1036(2)
H3_6 H 0.4475 0.3592 0.1021
C4_6 C 0.2882(6) 0.3305(2) 0.1589(2)
C5_6 C 0.1855(7) 0.2861(3) 0.1614(2)
H4_6 H 0.1453 0.2701 0.1280
C6_6 C 0.1410(8) 0.2647(3) 0.2131(3)
H5_6 H 0.0695 0.2341 0.2151
C7_6 C 0.2004(7) 0.2877(3) 0.2614(2)
C8_6 C 0.3045(8) 0.3322(3) 0.2592(2)
H6_6 H 0.3447 0.3478 0.2927
C9_6 C 0.3502(7) 0.3540(3) 0.2082(2)
H7_6 H 0.4222 0.3844 0.2063
C10_6 C 0.2845(6) 0.4224(2) 0.0993(2)
C11_6 C 0.1536(7) 0.4403(3) 0.1237(3)
H8_6 H 0.0951 0.4134 0.1444
C12_6 C 0.1065(8) 0.4981(3) 0.1181(3)
H9_6 H 0.0161 0.5107 0.1349
C13_6 C 0.1919(7) 0.5365(2) 0.0880(2)
C14_6 C 0.3206(8) 0.5198(3) 0.0632(3)
H10_6 H 0.3776 0.5470 0.0422
C15_6 C 0.3692(8) 0.4618(3) 0.0686(3)
H11_6 H 0.4594 0.4496 0.0514
C16_6 C 0.1458(7) 0.2664(3) 0.3142(3)
C17_6 C 0.1424(8) 0.5971(3) 0.0844(3)
N2_6 N 0.1533(5) 0.2928(2) 0.98444(19)
C1_6 C 0.2642(7) 0.2556(3) 0.9990(2)
H1_6 H 0.2822 0.2199 0.9799
N6_4 N 0.8447(6) 0.22717(19) 0.95839(18)
N2_7 N 0.6533(5) 0.2072(2) 0.01556(19)
C1_7 C 0.7642(7) 0.2444(3) 0.0010(2)
H1_7 H 0.7822 0.2801 0.0201
N3_7 N 0.7807(5) 0.17459(18) 0.94464(17)
C2_7 C 0.6663(6) 0.1643(3) 0.9790(2)
H2_7 H 0.6035 0.1309 0.9774
C3_7 C 0.8360(7) 0.1406(2) 0.8964(2)
H3_7 H 0.9475 0.1408 0.8979
C4_7 C 0.7882(6) 0.1695(2) 0.8411(2)
C5_7 C 0.6855(7) 0.2139(3) 0.8386(2)
H4_7 H 0.6453 0.2299 0.8720
C6_7 C 0.6410(8) 0.2353(3) 0.7869(3)
H5_7 H 0.5695 0.2659 0.7849
C7_7 C 0.7004(7) 0.2123(3) 0.7386(2)
C8_7 C 0.8045(8) 0.1678(3) 0.7408(2)
H6_7 H 0.8447 0.1522 0.7073
C9_7 C 0.8502(7) 0.1460(3) 0.7918(2)
H7_7 H 0.9222 0.1156 0.7937
C10_7 C 0.7845(6) 0.0776(2) 0.9007(2)
C11_7 C 0.6536(7) 0.0597(3) 0.8763(3)
H8_7 H 0.5951 0.0866 0.8556
C12_7 C 0.6065(8) 0.0019(3) 0.8819(3)
C15_7 C 0.8692(8) 0.0382(3) 0.9314(3)
H11_7 H 0.9594 0.0504 0.9486
C16_7 C 0.6458(7) 0.2336(3) 0.6858(3)
H9_7 H 0.5161 0.9893 0.8651
C13_7 C 0.6919(7) 0.9635(2) 0.9120(2)
C14_7 C 0.8206(8) 0.9802(3) 0.9368(3)
H10_7 H 0.8776 0.9530 0.9578
C17_7 C 0.6424(8) 0.9029(3) 0.9156(3)
H9_8 H 0.9839 0.0107 0.3651
C13_8 C 0.8081(7) 0.0365(2) 0.4120(2)
C14_8 C 0.6794(8) 0.0198(3) 0.4368(3)
H10_8 H 0.6224 0.0470 0.4578
C17_8 C 0.8576(8) 0.0971(3) 0.4156(3)
N2_8 N 0.8467(5) 0.7928(2) 0.51556(19)
N3_8 N 0.7193(5) 0.82541(18) 0.44464(17)
C1_8 C 0.7358(7) 0.7556(3) 0.5010(2)
H1_8 H 0.7178 0.7199 0.5201
C2_8 C 0.8337(6) 0.8357(3) 0.4790(2)
H2_8 H 0.8965 0.8691 0.4774
C3_8 C 0.6640(7) 0.8594(2) 0.3964(2)
H3_8 H 0.5525 0.8592 0.3979
C4_8 C 0.7118(6) 0.8305(2) 0.3411(2)
C5_8 C 0.8145(7) 0.7861(3) 0.3386(2)
H4_8 H 0.8547 0.7701 0.3720
C6_8 C 0.8590(8) 0.7647(3) 0.2869(3)
H5_8 H 0.9305 0.7341 0.2849
C7_8 C 0.7996(7) 0.7877(3) 0.2386(2)
C8_8 C 0.6955(8) 0.8322(3) 0.2408(2)
H6_8 H 0.6553 0.8478 0.2073
C9_8 C 0.6498(7) 0.8540(3) 0.2918(2)
H7_8 H 0.5778 0.8844 0.2937
C10_8 C 0.7155(6) 0.9224(2) 0.4007(2)
C11_8 C 0.8464(7) 0.9403(3) 0.3763(3)
H8_8 H 0.9049 0.9134 0.3556
C12_8 C 0.8935(8) 0.9981(3) 0.3819(3)
C15_8 C 0.6308(8) 0.9618(3) 0.4314(3)
H11_8 H 0.5406 0.9496 0.4486
C16_8 C 0.8542(7) 0.7664(3) 0.1858(3)
B1 B 0.2761(12) 0.3897(4) 0.4202(3)
F1 F 0.1621(4) 0.37070(18) 0.45615(17)
F2 F 0.3712(5) 0.3459(2) 0.40737(19)
F3 F 0.3472(9) 0.4351(3) 0.4453(3)
F4 F 0.2025(8) 0.4066(3) 0.3709(2)
B1_2 B 0.7761(12) 0.3897(4) 0.0798(3)
F1_2 F 0.6621(4) 0.37070(18) 0.04385(17)
F2_2 F 0.8712(5) 0.3459(2) 0.09263(19)
F3_2 F 0.8472(9) 0.4351(3) 0.0547(3)
F4_2 F 0.7025(8) 0.4066(3) 0.1291(2)
B1_3 B 0.2761(12) 0.1103(4) 0.9202(3)
F1_3 F 0.1621(4) 0.12930(18) 0.95615(17)
F2_3 F 0.3712(5) 0.1541(2) 0.90737(19)
F3_3 F 0.3472(9) 0.0649(3) 0.9453(3)
F4_3 F 0.2025(8) 0.0934(3) 0.8709(2)
B1_4 B 0.2239(12) 0.8897(4) 0.4202(3)
F1_4 F 0.3379(4) 0.87070(18) 0.45615(17)
F2_4 F 0.1288(5) 0.8459(2) 0.40737(19)
F3_4 F 0.1528(9) 0.9351(3) 0.4453(3)
F4_4 F 0.2975(8) 0.9066(3) 0.3709(2)
B1_5 B 0.7239(12) 0.6103(4) 0.5798(3)
F1_5 F 0.8379(4) 0.62930(18) 0.54385(17)
F2_5 F 0.6288(5) 0.6541(2) 0.59263(19)
F3_5 F 0.6528(9) 0.5649(3) 0.5547(3)
F4_5 F 0.7975(8) 0.5934(3) 0.6291(2)
B1_6 B 0.2239(12) 0.6103(4) 0.9202(3)
F1_6 F 0.3379(4) 0.62930(18) 0.95615(17)
F2_6 F 0.1288(5) 0.6541(2) 0.90737(19)
F3_6 F 0.1528(9) 0.5649(3) 0.9453(3)
F4_6 F 0.2975(8) 0.5934(3) 0.8709(2)
B1_7 B 0.7239(12) 0.8897(4) 0.0798(3)
F1_7 F 0.8379(4) 0.87070(18) 0.04385(17)
F2_7 F 0.6288(5) 0.8459(2) 0.09263(19)
F3_7 F 0.6528(9) 0.9351(3) 0.0547(3)
F4_7 F 0.7975(8) 0.9066(3) 0.1291(2)
B1_8 B 0.7761(12) 0.1103(4) 0.5798(3)
F1_8 F 0.6621(4) 0.12930(18) 0.54385(17)
F2_8 F 0.8712(5) 0.1541(2) 0.59263(19)
F3_8 F 0.8472(9) 0.0649(3) 0.5547(3)
F4_8 F 0.7025(8) 0.0934(3) 0.6291(2)
loop_
_geom_bond_atom_site_label_1
_geom_bond_atom_site_label_2
_geom_bond_site_symmetry_1
_geom_bond_site_symmetry_2
Cu1 N2 1_555 1_555
N1 N3 1_555 1_555
N2 C1 1_555 1_555
N3 C2 1_555 1_555
N4 C16 1_555 1_555
N5 C17 1_555 1_555
C1 N1 1_555 1_555
H1 C1 1_555 1_555
C2 N2 1_555 1_555
H2 C2 1_555 1_555
C3 N3 1_555 1_555
H3 C3 1_555 1_555
C4 C3 1_555 1_555
C5 C4 1_555 1_555
H4 C5 1_555 1_555
C6 C5 1_555 1_555
H5 C6 1_555 1_555
C7 C6 1_555 1_555
C8 C7 1_555 1_555
H6 C8 1_555 1_555
C9 C4 1_555 1_555
H7 C9 1_555 1_555
C10 C3 1_555 1_555
C11 C10 1_555 1_555
H8 C11 1_555 1_555
C12 C11 1_555 1_555
H9 C12 1_555 1_555
C13 C12 1_555 1_555
C14 C13 1_555 1_555
H10 C14 1_555 1_555
C15 C10 1_555 1_555
H11 C15 1_555 1_555
C16 C7 1_555 1_555
C17 C13 1_555 1_555
Cu3 N4 1_555 1_555
Cu4 N5 1_555 1_555
N6 Cu1 1_555 1_555
N7 Cu1 1_555 1_555
N8 Cu1 1_555 1_555
C8 C9 1_555 1_555
C14 C15 1_555 1_555
Cu1_2 N2_2 1_555 1_555
N2_2 C1_2 1_555 1_555
H1_2 C1_2 1_555 1_555
N7_2 Cu1_2 1_555 1_555
N1_2 N3_2 1_555 1_555
N3_2 C2_2 1_555 1_555
N4_2 C16_2 1_555 1_555
N5_2 C17_2 1_555 1_555
H2_2 C2_2 1_555 1_555
C3_2 N3_2 1_555 1_555
H3_2 C3_2 1_555 1_555
C4_2 C3_2 1_555 1_555
C5_2 C4_2 1_555 1_555
H4_2 C5_2 1_555 1_555
C6_2 C5_2 1_555 1_555
H5_2 C6_2 1_555 1_555
C7_2 C6_2 1_555 1_555
C8_2 C7_2 1_555 1_555
H6_2 C8_2 1_555 1_555
C9_2 C4_2 1_555 1_555
H7_2 C9_2 1_555 1_555
C10_2 C3_2 1_555 1_555
C11_2 C10_2 1_555 1_555
H8_2 C11_2 1_555 1_555
C12_2 C11_2 1_555 1_555
H9_2 C12_2 1_555 1_555
C13_2 C12_2 1_555 1_555
C14_2 C13_2 1_555 1_555
H10_2 C14_2 1_555 1_555
C15_2 C10_2 1_555 1_555
H11_2 C15_2 1_555 1_555
C16_2 C7_2 1_555 1_555
C17_2 C13_2 1_555 1_555
Cu3 N1_2 1_555 1_555
Cu2 N4_2 1_555 1_555
C8_2 C9_2 1_555 1_555
C14_2 C15_2 1_555 1_555
N5_3 C17_3 1_555 1_555
C14_3 C13_3 1_555 1_555
H10_3 C14_3 1_555 1_555
C17_3 C13_3 1_555 1_555
Cu4_3 N5_3 1_555 1_555
N6_2 N3_3 1_555 1_555
N3_3 C2_3 1_555 1_555
N7 C16_3 1_555 1_555
H2_3 C2_3 1_555 1_555
C3_3 N3_3 1_555 1_555
H3_3 C3_3 1_555 1_555
C4_3 C3_3 1_555 1_555
C5_3 C4_3 1_555 1_555
H4_3 C5_3 1_555 1_555
C6_3 C5_3 1_555 1_555
H5_3 C6_3 1_555 1_555
C7_3 C6_3 1_555 1_555
C8_3 C7_3 1_555 1_555
H6_3 C8_3 1_555 1_555
C9_3 C4_3 1_555 1_555
H7_3 C9_3 1_555 1_555
C10_3 C3_3 1_555 1_555
C11_3 C10_3 1_555 1_555
H8_3 C11_3 1_555 1_555
C12_3 C11_3 1_555 1_555
C15_3 C10_3 1_555 1_555
H11_3 C15_3 1_555 1_555
C16_3 C7_3 1_555 1_555
C8_3 C9_3 1_555 1_555
Cu3 N2_3 1_555 1_555
N2_3 C1_3 1_555 1_555
H1_3 C1_3 1_555 1_555
N8_3 Cu3 1_555 1_555
Cu1_3 N2_4 1_555 1_555
N1_3 N3_4 1_555 1_555
N2_4 C1_4 1_555 1_555
N3_4 C2_4 1_555 1_555
N4_3 C16_4 1_555 1_555
C1_4 N1_3 1_555 1_555
H1_4 C1_4 1_555 1_555
C2_4 N2_4 1_555 1_555
H2_4 C2_4 1_555 1_555
C3_4 N3_4 1_555 1_555
H3_4 C3_4 1_555 1_555
C4_4 C3_4 1_555 1_555
C5_4 C4_4 1_555 1_555
H4_4 C5_4 1_555 1_555
C6_4 C5_4 1_555 1_555
H5_4 C6_4 1_555 1_555
C7_4 C6_4 1_555 1_555
C8_4 C7_4 1_555 1_555
H6_4 C8_4 1_555 1_555
C9_4 C4_4 1_555 1_555
H7_4 C9_4 1_555 1_555
C10_4 C3_4 1_555 1_555
C11_4 C10_4 1_555 1_555
H8_4 C11_4 1_555 1_555
C12_4 C11_4 1_555 1_555
C15_4 C10_4 1_555 1_555
H11_4 C15_4 1_555 1_555
C16_4 C7_4 1_555 1_555
Cu4 N1_3 1_555 1_555
Cu4_2 N4_3 1_555 1_555
N7_3 Cu1_3 1_555 1_555
C8_4 C9_4 1_555 1_555
N5_4 C17_4 1_555 1_555
C14_4 C13_4 1_555 1_555
H10_4 C14_4 1_555 1_555
C17_4 C13_4 1_555 1_555
Cu4 N2_5 1_555 1_555
N6_3 N3_5 1_555 1_555
N2_5 C1_5 1_555 1_555
N3_5 C2_5 1_555 1_555
N4_4 C16_5 1_555 1_555
N8 C17_5 1_555 1_555
C1_5 N6_3 1_555 1_555
H1_5 C1_5 1_555 1_555
C2_5 N2_5 1_555 1_555
H2_5 C2_5 1_555 1_555
C3_5 N3_5 1_555 1_555
H3_5 C3_5 1_555 1_555
C4_5 C3_5 1_555 1_555
C5_5 C4_5 1_555 1_555
H4_5 C5_5 1_555 1_555
C6_5 C5_5 1_555 1_555
H5_5 C6_5 1_555 1_555
C7_5 C6_5 1_555 1_555
C8_5 C7_5 1_555 1_555
H6_5 C8_5 1_555 1_555
C9_5 C4_5 1_555 1_555
H7_5 C9_5 1_555 1_555
C10_5 C3_5 1_555 1_555
C11_5 C10_5 1_555 1_555
H8_5 C11_5 1_555 1_555
C12_5 C11_5 1_555 1_555
H9_5 C12_5 1_555 1_555
C13_5 C12_5 1_555 1_555
C14_5 C13_5 1_555 1_555
H10_5 C14_5 1_555 1_555
C15_5 C10_5 1_555 1_555
H11_5 C15_5 1_555 1_555
C16_5 C7_5 1_555 1_555
C17_5 C13_5 1_555 1_555
Cu4_3 N4_4 1_555 1_555
N7_4 Cu4 1_555 1_555
C8_5 C9_5 1_555 1_555
C14_5 C15_5 1_555 1_555
N1_4 N3_6 1_555 1_555
N3_6 C2_6 1_555 1_555
N7_3 C16_6 1_555 1_555
N8_2 C17_6 1_555 1_555
H2_6 C2_6 1_555 1_555
C3_6 N3_6 1_555 1_555
H3_6 C3_6 1_555 1_555
C4_6 C3_6 1_555 1_555
C5_6 C4_6 1_555 1_555
H4_6 C5_6 1_555 1_555
C6_6 C5_6 1_555 1_555
H5_6 C6_6 1_555 1_555
C7_6 C6_6 1_555 1_555
C8_6 C7_6 1_555 1_555
H6_6 C8_6 1_555 1_555
C9_6 C4_6 1_555 1_555
H7_6 C9_6 1_555 1_555
C10_6 C3_6 1_555 1_555
C11_6 C10_6 1_555 1_555
H8_6 C11_6 1_555 1_555
C12_6 C11_6 1_555 1_555
H9_6 C12_6 1_555 1_555
C13_6 C12_6 1_555 1_555
C14_6 C13_6 1_555 1_555
H10_6 C14_6 1_555 1_555
C15_6 C10_6 1_555 1_555
H11_6 C15_6 1_555 1_555
C16_6 C7_6 1_555 1_555
C17_6 C13_6 1_555 1_555
Cu4_3 N1_4 1_555 1_555
C8_6 C9_6 1_555 1_555
C14_6 C15_6 1_555 1_555
Cu4_2 N2_6 1_555 1_555
N2_6 C1_6 1_555 1_555
H1_6 C1_6 1_555 1_555
Cu4_3 N2_7 1_555 1_555
N2_7 C1_7 1_555 1_555
H1_7 C1_7 1_555 1_555
N6_4 N3_7 1_555 1_555
N3_7 C2_7 1_555 1_555
N7_4 C16_7 1_555 1_555
H2_7 C2_7 1_555 1_555
C3_7 N3_7 1_555 1_555
H3_7 C3_7 1_555 1_555
C4_7 C3_7 1_555 1_555
C5_7 C4_7 1_555 1_555
H4_7 C5_7 1_555 1_555
C6_7 C5_7 1_555 1_555
H5_7 C6_7 1_555 1_555
C7_7 C6_7 1_555 1_555
C8_7 C7_7 1_555 1_555
H6_7 C8_7 1_555 1_555
C9_7 C4_7 1_555 1_555
H7_7 C9_7 1_555 1_555
C10_7 C3_7 1_555 1_555
C11_7 C10_7 1_555 1_555
H8_7 C11_7 1_555 1_555
C12_7 C11_7 1_555 1_555
C15_7 C10_7 1_555 1_555
H11_7 C15_7 1_555 1_555
C16_7 C7_7 1_555 1_555
C8_7 C9_7 1_555 1_555
N8_3 C17_7 1_555 1_555
C14_7 C13_7 1_555 1_555
H10_7 C14_7 1_555 1_555
C17_7 C13_7 1_555 1_555
N8_4 C17_8 1_555 1_555
C14_8 C13_8 1_555 1_555
H10_8 C14_8 1_555 1_555
C17_8 C13_8 1_555 1_555
Cu2 N2_8 1_555 1_555
N6 N3_8 1_555 1_555
N2_8 C1_8 1_555 1_555
N3_8 C2_8 1_555 1_555
N7_2 C16_8 1_555 1_555
C1_8 N6 1_555 1_555
H1_8 C1_8 1_555 1_555
C2_8 N2_8 1_555 1_555
H2_8 C2_8 1_555 1_555
C3_8 N3_8 1_555 1_555
H3_8 C3_8 1_555 1_555
C4_8 C3_8 1_555 1_555
C5_8 C4_8 1_555 1_555
H4_8 C5_8 1_555 1_555
C6_8 C5_8 1_555 1_555
H5_8 C6_8 1_555 1_555
C7_8 C6_8 1_555 1_555
C8_8 C7_8 1_555 1_555
H6_8 C8_8 1_555 1_555
C9_8 C4_8 1_555 1_555
H7_8 C9_8 1_555 1_555
C10_8 C3_8 1_555 1_555
C11_8 C10_8 1_555 1_555
H8_8 C11_8 1_555 1_555
C12_8 C11_8 1_555 1_555
C15_8 C10_8 1_555 1_555
H11_8 C15_8 1_555 1_555
C16_8 C7_8 1_555 1_555
C8_8 C9_8 1_555 1_555
B1 F1 1_555 1_555
F2 B1 1_555 1_555
F3 B1 1_555 1_555
F4 B1 1_555 1_555
B1_2 F1_2 1_555 1_555
F2_2 B1_2 1_555 1_555
F3_2 B1_2 1_555 1_555
F4_2 B1_2 1_555 1_555
B1_3 F1_3 1_555 1_555
F2_3 B1_3 1_555 1_555
F3_3 B1_3 1_555 1_555
F4_3 B1_3 1_555 1_555
B1_4 F1_4 1_555 1_555
F2_4 B1_4 1_555 1_555
F3_4 B1_4 1_555 1_555
F4_4 B1_4 1_555 1_555
B1_5 F1_5 1_555 1_555
F2_5 B1_5 1_555 1_555
F3_5 B1_5 1_555 1_555
F4_5 B1_5 1_555 1_555
B1_6 F1_6 1_555 1_555
F2_6 B1_6 1_555 1_555
F3_6 B1_6 1_555 1_555
F4_6 B1_6 1_555 1_555
B1_7 F1_7 1_555 1_555
F2_7 B1_7 1_555 1_555
F3_7 B1_7 1_555 1_555
F4_7 B1_7 1_555 1_555
B1_8 F1_8 1_555 1_555
F2_8 B1_8 1_555 1_555
F3_8 B1_8 1_555 1_555
F4_8 B1_8 1_555 1_555

#END
