
###############################################################################
#
# This file contains modified crystal structure data generated from the
# MOF subset of the Cambridge Structural Database (CSD) v543 
# hosted by the Cambridge Crystallographic Data Centre (CCDC).
#
# This work is licensed under the Creative Commons
# Attribution-NonCommercial-ShareAlike 4.0 International License.
# To view a copy of this license, visit
# http://creativecommons.org/licenses/by-nc-sa/4.0/
# or send a letter to
# Creative Commons, PO Box 1866, Mountain View, CA 94042, USA.
#
# CIF created using the CSD Python API on 29 September 2022
# The structure has been converted into the P1 space group
# The structure has a 3D framework
# The original CSD entry XICHEY is in the orthorhombic crystal system
# The framework has been calculated to contain at least 10.0% void space
# The void calculation uses a probe of radius 1.32A, grid spacing 0.4
#
###############################################################################

data_XICHEY
_chemical_formula_moiety         '(C168 H128 Cd8 N16 O48)n'
_symmetry_cell_setting           triclinic
_symmetry_space_group_name_H-M   'P 1'
_symmetry_Int_Tables_number      1
_space_group_name_Hall           'P 1'
loop_
_symmetry_equiv_pos_site_id
_symmetry_equiv_pos_as_xyz
1 x,y,z
_cell_length_a                   16.811(3)
_cell_length_b                   13.891(3)
_cell_length_c                   20.743(4)
_cell_angle_alpha                90
_cell_angle_beta                 90
_cell_angle_gamma                90
_cell_volume                     4843.94
loop_
_atom_site_label
_atom_site_type_symbol
_atom_site_fract_x
_atom_site_fract_y
_atom_site_fract_z
C1 C 0.14722(16) 0.7641(2) 0.00756(14)
C10 C 0.0401(3) 0.5568(3) 0.1912(2)
H4 H 0.0057 0.5956 0.2166
C11 C 0.0364(2) 0.4582(3) 0.1992(2)
C12 C 0.08475(19) 0.4001(2) 0.16488(17)
C13 C 0.1349(3) 0.4453(3) 0.1222(3)
H6 H 0.1698 0.4081 0.0961
C14 C 0.1350(3) 0.5447(3) 0.1169(2)
H7 H 0.1707 0.5737 0.0872
C15 C 0.0832(2) 0.2911(3) 0.17438(18)
H8 H 0.1175 0.2744 0.2116
H9 H 0.0282 0.2711 0.1850
C16 C 0.1103(3) 0.2369(2) 0.1177(2)
H10 H 0.1664 0.2536 0.1084
H11 H 0.0779 0.2555 0.0798
C17 C 0.1037(2) 0.1291(3) 0.12803(18)
C18 C 0.1568(2) 0.0796(3) 0.1662(2)
H12 H 0.1972 0.1136 0.1888
C21 C 0.0448(3) 0.0755(3) 0.09879(19)
H15 H 0.0057 0.1061 0.0729
N1 N 0.08824(14) 0.60055(18) 0.15064(12)
O1 O 0.18049(13) 0.75666(15) 0.06098(10)
Cd1 Cd 0.101594(11) 0.764625(14) 0.149312(9)
N3 N 0.09553(14) 0.92931(18) 0.14314(12)
O7 O 0.09697(11) 0.76330(15) 0.26320(10)
O8 O 0.21577(12) 0.76073(14) 0.21746(9)
C2 C 0.19757(17) 0.7604(2) 0.94779(14)
C3 C 0.16326(17) 0.75468(19) 0.88697(14)
H1 H 0.1070 0.7556 0.8831
C4 C 0.20916(17) 0.7477(2) 0.83224(14)
C5 C 0.29217(18) 0.7476(2) 0.83802(14)
H2 H 0.3245 0.7431 0.8006
C6 C 0.32714(18) 0.7542(2) 0.89833(14)
C7 C 0.28003(17) 0.7605(2) 0.95310(15)
H3 H 0.3042 0.7649 0.9944
C8 C 0.17188(17) 0.74069(19) 0.76627(14)
C9 C 0.41554(19) 0.7510(2) 0.90445(15)
O2 O 0.07360(13) 0.77539(19) 0.99975(12)
O3 O 0.09697(11) 0.73670(15) 0.76320(10)
O4 O 0.21577(12) 0.73927(14) 0.71746(9)
O5 O 0.45919(11) 0.73327(14) 0.85915(10)
O6 O 0.44044(15) 0.7704(3) 0.96214(12)
H16 H 0.490(4) 0.746(4) 0.969(4)
Cd3 Cd 0.601594(11) 0.735375(14) 0.850688(9)
Cd4 Cd 0.101594(11) 0.735375(14) 0.649312(9)
C19 C 0.1514(2) 0.9810(2) 0.1717(2)
H13 H 0.1898 0.9485 0.1973
C20 C 0.0433(2) 0.9769(2) 0.10750(19)
H14 H 0.0024 0.9412 0.0868
H5 H 0.9998 0.4313 0.2290
O9 O 0.95919(11) 0.76673(14) 0.14085(10)
C11_2 C 0.5364(2) 0.0418(3) 0.8008(2)
H5_2 H 0.4998 0.0687 0.7710
C12_2 C 0.58475(19) 0.0999(2) 0.83512(17)
C13_2 C 0.6349(3) 0.0547(3) 0.8778(3)
H6_2 H 0.6698 0.0919 0.9039
C15_2 C 0.5832(2) 0.2089(3) 0.82562(18)
H8_2 H 0.6175 0.2256 0.7884
H9_2 H 0.5282 0.2289 0.8150
C16_2 C 0.6103(3) 0.2631(2) 0.8823(2)
H10_2 H 0.6664 0.2464 0.8916
H11_2 H 0.5779 0.2445 0.9202
C17_2 C 0.6037(2) 0.3709(3) 0.87197(18)
C18_2 C 0.6568(2) 0.4204(3) 0.8338(2)
H12_2 H 0.6972 0.3864 0.8112
C19_2 C 0.6514(2) 0.5190(2) 0.8283(2)
H13_2 H 0.6898 0.5515 0.8027
C20_2 C 0.5433(2) 0.5231(2) 0.89250(19)
H14_2 H 0.5024 0.5588 0.9132
C21_2 C 0.5448(3) 0.4245(3) 0.90121(19)
H15_2 H 0.5057 0.3939 0.9271
N2 N 0.59553(14) 0.57069(18) 0.85686(12)
C2_2 C 0.69757(17) 0.7396(2) 0.05221(14)
C3_2 C 0.66326(17) 0.74532(19) 0.11303(14)
H1_2 H 0.6070 0.7444 0.1169
C4_2 C 0.70916(17) 0.7523(2) 0.16776(14)
C5_2 C 0.79217(18) 0.7524(2) 0.16198(14)
H2_2 H 0.8245 0.7569 0.1994
C6_2 C 0.82714(18) 0.7458(2) 0.10167(14)
C7_2 C 0.78003(17) 0.7395(2) 0.04690(15)
H3_2 H 0.8042 0.7351 0.0056
C8_2 C 0.67188(17) 0.75931(19) 0.23373(14)
C9_2 C 0.91554(19) 0.7490(2) 0.09555(15)
O2_2 O 0.57360(13) 0.72461(19) 0.00025(12)
O3_2 O 0.59697(11) 0.76330(15) 0.23680(10)
O4_2 O 0.71577(12) 0.76073(14) 0.28254(9)
O6_2 O 0.94044(15) 0.7296(3) 0.03786(12)
H16_2 H 0.990(4) 0.754(4) 0.031(4)
Cd4_2 Cd 0.601594(11) 0.764625(14) 0.350688(9)
C1_2 C 0.64722(16) 0.7359(2) 0.99244(14)
C10_2 C 0.5401(3) 0.9432(3) 0.8088(2)
H4_2 H 0.5057 0.9044 0.7834
C14_2 C 0.6350(3) 0.9553(3) 0.8831(2)
H7_2 H 0.6707 0.9263 0.9128
N1_2 N 0.58824(14) 0.89945(18) 0.84936(12)
O1_2 O 0.68049(13) 0.74334(15) 0.93902(10)
O7_2 O 0.59697(11) 0.73670(15) 0.73680(10)
O8_2 O 0.71577(12) 0.73927(14) 0.78254(9)
C1_3 C 0.64722(16) 0.7641(2) 0.49244(14)
C2_3 C 0.69757(17) 0.7604(2) 0.55221(14)
C3_3 C 0.66326(17) 0.75468(19) 0.61303(14)
H1_3 H 0.6070 0.7556 0.6169
C4_3 C 0.70916(17) 0.7477(2) 0.66776(14)
C5_3 C 0.79217(18) 0.7476(2) 0.66198(14)
H2_3 H 0.8245 0.7431 0.6994
C6_3 C 0.82714(18) 0.7542(2) 0.60167(14)
C7_3 C 0.78003(17) 0.7605(2) 0.54690(15)
H3_3 H 0.8042 0.7649 0.5056
C8_3 C 0.67188(17) 0.74069(19) 0.73373(14)
C9_3 C 0.91554(19) 0.7510(2) 0.59555(15)
C10_3 C 0.5401(3) 0.5568(3) 0.3088(2)
H4_3 H 0.5057 0.5956 0.2834
C11_3 C 0.5364(2) 0.4582(3) 0.3008(2)
H5_3 H 0.4998 0.4313 0.2710
C12_3 C 0.58475(19) 0.4001(2) 0.33512(17)
C13_3 C 0.6349(3) 0.4453(3) 0.3778(3)
H6_3 H 0.6698 0.4081 0.4039
C14_3 C 0.6350(3) 0.5447(3) 0.3831(2)
H7_3 H 0.6707 0.5737 0.4128
C15_3 C 0.5832(2) 0.2911(3) 0.32562(18)
H8_3 H 0.6175 0.2744 0.2884
H9_3 H 0.5282 0.2711 0.3150
C16_3 C 0.6103(3) 0.2369(2) 0.3823(2)
H10_3 H 0.6664 0.2536 0.3916
H11_3 H 0.5779 0.2555 0.4202
C17_3 C 0.6037(2) 0.1291(3) 0.37197(18)
C18_3 C 0.6568(2) 0.0796(3) 0.3338(2)
H12_3 H 0.6972 0.1136 0.3112
C21_3 C 0.5448(3) 0.0755(3) 0.40121(19)
H15_3 H 0.5057 0.1061 0.4271
N1_3 N 0.58824(14) 0.60055(18) 0.34936(12)
O1_3 O 0.68049(13) 0.75666(15) 0.43902(10)
O2_3 O 0.57360(13) 0.77539(19) 0.50025(12)
O5_2 O 0.95919(11) 0.73327(14) 0.64085(10)
O6_3 O 0.94044(15) 0.7704(3) 0.53786(12)
H16_3 H 0.990(4) 0.746(4) 0.531(4)
N3_2 N 0.59553(14) 0.92931(18) 0.35686(12)
O9_2 O 0.45919(11) 0.76673(14) 0.35915(10)
C19_3 C 0.6514(2) 0.9810(2) 0.3283(2)
H13_3 H 0.6898 0.9485 0.3027
C20_3 C 0.5433(2) 0.9769(2) 0.39250(19)
H14_3 H 0.5024 0.9412 0.4132
C11_4 C 0.0364(2) 0.0418(3) 0.6992(2)
C12_4 C 0.08475(19) 0.0999(2) 0.66488(17)
C13_4 C 0.1349(3) 0.0547(3) 0.6222(3)
H6_4 H 0.1698 0.0919 0.5961
C15_4 C 0.0832(2) 0.2089(3) 0.67438(18)
H8_4 H 0.1175 0.2256 0.7116
H9_4 H 0.0282 0.2289 0.6850
C16_4 C 0.1103(3) 0.2631(2) 0.6177(2)
H10_4 H 0.1664 0.2464 0.6084
H11_4 H 0.0779 0.2445 0.5798
C17_4 C 0.1037(2) 0.3709(3) 0.62803(18)
C18_4 C 0.1568(2) 0.4204(3) 0.6662(2)
H12_4 H 0.1972 0.3864 0.6888
C19_4 C 0.1514(2) 0.5190(2) 0.6717(2)
H13_4 H 0.1898 0.5515 0.6973
C20_4 C 0.0433(2) 0.5231(2) 0.60750(19)
H14_4 H 0.0024 0.5588 0.5868
C21_4 C 0.0448(3) 0.4245(3) 0.59879(19)
H15_4 H 0.0057 0.3939 0.5729
N2_2 N 0.09553(14) 0.57069(18) 0.64314(12)
C1_4 C 0.14722(16) 0.7359(2) 0.50756(14)
C2_4 C 0.19757(17) 0.7396(2) 0.44779(14)
C3_4 C 0.16326(17) 0.74532(19) 0.38697(14)
H1_4 H 0.1070 0.7444 0.3831
C4_4 C 0.20916(17) 0.7523(2) 0.33224(14)
C5_4 C 0.29217(18) 0.7524(2) 0.33802(14)
H2_4 H 0.3245 0.7569 0.3006
C6_4 C 0.32714(18) 0.7458(2) 0.39833(14)
C7_4 C 0.28003(17) 0.7395(2) 0.45310(15)
H3_4 H 0.3042 0.7351 0.4944
C8_4 C 0.17188(17) 0.75931(19) 0.26627(14)
C9_4 C 0.41554(19) 0.7490(2) 0.40445(15)
C10_4 C 0.0401(3) 0.9432(3) 0.6912(2)
H4_4 H 0.0057 0.9044 0.7166
C14_4 C 0.1350(3) 0.9553(3) 0.6169(2)
H7_4 H 0.1707 0.9263 0.5872
N1_4 N 0.08824(14) 0.89945(18) 0.65064(12)
O1_4 O 0.18049(13) 0.74334(15) 0.56098(10)
O2_4 O 0.07360(13) 0.72461(19) 0.49975(12)
O6_4 O 0.44044(15) 0.7296(3) 0.46214(12)
H16_4 H 0.490(4) 0.754(4) 0.469(4)
C19_5 C 0.3486(2) 0.0190(2) 0.6717(2)
H13_5 H 0.3102 0.0515 0.6973
C20_5 C 0.4567(2) 0.0231(2) 0.60750(19)
H14_5 H 0.4976 0.0588 0.5868
N2_3 N 0.40447(14) 0.07069(18) 0.64314(12)
Cd2 Cd 0.398406(11) 0.235375(14) 0.649312(9)
C1_5 C 0.35278(16) 0.2359(2) 0.50756(14)
C2_5 C 0.30243(17) 0.2396(2) 0.44779(14)
C3_5 C 0.33674(17) 0.24532(19) 0.38697(14)
H1_5 H 0.3930 0.2444 0.3831
C4_5 C 0.29084(17) 0.2523(2) 0.33224(14)
C5_5 C 0.20783(18) 0.2524(2) 0.33802(14)
H2_5 H 0.1755 0.2569 0.3006
C6_5 C 0.17286(18) 0.2458(2) 0.39833(14)
C7_5 C 0.21997(17) 0.2395(2) 0.45310(15)
H3_5 H 0.1958 0.2351 0.4944
C8_5 C 0.32812(17) 0.25931(19) 0.26627(14)
C9_5 C 0.08446(19) 0.2490(2) 0.40445(15)
C10_5 C 0.4599(3) 0.4432(3) 0.6912(2)
H4_5 H 0.4943 0.4044 0.7166
C11_5 C 0.4636(2) 0.5418(3) 0.6992(2)
H5_4 H 0.5002 0.5687 0.7290
C12_5 C 0.41525(19) 0.5999(2) 0.66488(17)
C13_5 C 0.3651(3) 0.5547(3) 0.6222(3)
H6_5 H 0.3302 0.5919 0.5961
C14_5 C 0.3650(3) 0.4553(3) 0.6169(2)
H7_5 H 0.3293 0.4263 0.5872
C15_5 C 0.4168(2) 0.7089(3) 0.67438(18)
H8_5 H 0.3825 0.7256 0.7116
H9_5 H 0.4718 0.7289 0.6850
C16_5 C 0.3897(3) 0.7631(2) 0.6177(2)
H10_5 H 0.3336 0.7464 0.6084
H11_5 H 0.4221 0.7445 0.5798
C17_5 C 0.3963(2) 0.8709(3) 0.62803(18)
C18_5 C 0.3432(2) 0.9204(3) 0.6662(2)
H12_5 H 0.3028 0.8864 0.6888
C21_5 C 0.4552(3) 0.9245(3) 0.59879(19)
H15_5 H 0.4943 0.8939 0.5729
N1_5 N 0.41176(14) 0.39945(18) 0.65064(12)
O1_5 O 0.31951(13) 0.24334(15) 0.56098(10)
O2_5 O 0.42640(13) 0.22461(19) 0.49975(12)
O3_3 O 0.40303(11) 0.26330(15) 0.26320(10)
O4_3 O 0.28423(12) 0.26073(14) 0.21746(9)
O5_3 O 0.04081(11) 0.26673(14) 0.35915(10)
O6_5 O 0.05956(15) 0.2296(3) 0.46214(12)
H16_5 H 0.010(4) 0.254(4) 0.469(4)
O7_3 O 0.40303(11) 0.23670(15) 0.76320(10)
O8_3 O 0.28423(12) 0.23927(14) 0.71746(9)
O9_3 O 0.54081(11) 0.23327(14) 0.64085(10)
Cd4_3 Cd 0.398406(11) 0.264625(14) 0.149312(9)
Cd3_2 Cd 0.898406(11) 0.264625(14) 0.350688(9)
C1_6 C 0.85278(16) 0.2641(2) 0.49244(14)
C2_6 C 0.80243(17) 0.2604(2) 0.55221(14)
C3_6 C 0.83674(17) 0.25468(19) 0.61303(14)
H1_6 H 0.8930 0.2556 0.6169
C4_6 C 0.79084(17) 0.2477(2) 0.66776(14)
C5_6 C 0.70783(18) 0.2476(2) 0.66198(14)
H2_6 H 0.6755 0.2431 0.6994
C6_6 C 0.67286(18) 0.2542(2) 0.60167(14)
C7_6 C 0.71997(17) 0.2605(2) 0.54690(15)
H3_6 H 0.6958 0.2649 0.5056
C8_6 C 0.82812(17) 0.24069(19) 0.73373(14)
C9_6 C 0.58446(19) 0.2510(2) 0.59555(15)
C10_6 C 0.9599(3) 0.0568(3) 0.3088(2)
H4_6 H 0.9943 0.0956 0.2834
C14_6 C 0.8650(3) 0.0447(3) 0.3831(2)
H7_6 H 0.8293 0.0737 0.4128
N1_6 N 0.91176(14) 0.10055(18) 0.34936(12)
O1_6 O 0.81951(13) 0.25666(15) 0.43902(10)
O2_6 O 0.92640(13) 0.27539(19) 0.50025(12)
O3_4 O 0.90303(11) 0.23670(15) 0.73680(10)
O4_4 O 0.78423(12) 0.23927(14) 0.78254(9)
O6_6 O 0.55956(15) 0.2704(3) 0.53786(12)
H16_6 H 0.510(4) 0.246(4) 0.531(4)
N3_3 N 0.90447(14) 0.42931(18) 0.35686(12)
O7_4 O 0.90303(11) 0.26330(15) 0.23680(10)
O8_4 O 0.78423(12) 0.26073(14) 0.28254(9)
Cd4_4 Cd 0.898406(11) 0.235375(14) 0.850688(9)
C11_6 C 0.9636(2) 0.9582(3) 0.3008(2)
C12_6 C 0.91525(19) 0.9001(2) 0.33512(17)
C13_6 C 0.8651(3) 0.9453(3) 0.3778(3)
H6_6 H 0.8302 0.9081 0.4039
C15_6 C 0.9168(2) 0.7911(3) 0.32562(18)
H8_6 H 0.8825 0.7744 0.2884
H9_6 H 0.9718 0.7711 0.3150
C16_6 C 0.8897(3) 0.7369(2) 0.3823(2)
H10_6 H 0.8336 0.7536 0.3916
H11_6 H 0.9221 0.7555 0.4202
C17_6 C 0.8963(2) 0.6291(3) 0.37197(18)
C18_6 C 0.8432(2) 0.5796(3) 0.3338(2)
H12_6 H 0.8028 0.6136 0.3112
C19_6 C 0.8486(2) 0.4810(2) 0.3283(2)
H13_6 H 0.8102 0.4485 0.3027
C20_6 C 0.9567(2) 0.4769(2) 0.39250(19)
H14_6 H 0.9976 0.4412 0.4132
C21_6 C 0.9552(3) 0.5755(3) 0.40121(19)
H15_6 H 0.9943 0.6061 0.4271
H5_5 H 0.0002 0.5687 0.7710
O9_4 O 0.04081(11) 0.23327(14) 0.85915(10)
C19_7 C 0.8486(2) 0.0190(2) 0.8283(2)
H13_7 H 0.8102 0.0515 0.8027
C20_7 C 0.9567(2) 0.0231(2) 0.89250(19)
H14_7 H 0.9976 0.0588 0.9132
N2_4 N 0.90447(14) 0.07069(18) 0.85686(12)
C2_7 C 0.80243(17) 0.2396(2) 0.05221(14)
C3_7 C 0.83674(17) 0.24532(19) 0.11303(14)
H1_7 H 0.8930 0.2444 0.1169
C4_7 C 0.79084(17) 0.2523(2) 0.16776(14)
C5_7 C 0.70783(18) 0.2524(2) 0.16198(14)
H2_7 H 0.6755 0.2569 0.1994
C6_7 C 0.67286(18) 0.2458(2) 0.10167(14)
C7_7 C 0.71997(17) 0.2395(2) 0.04690(15)
H3_7 H 0.6958 0.2351 0.0056
C8_7 C 0.82812(17) 0.25931(19) 0.23373(14)
C9_7 C 0.58446(19) 0.2490(2) 0.09555(15)
O2_7 O 0.92640(13) 0.22461(19) 0.00025(12)
O5_4 O 0.54081(11) 0.26673(14) 0.14085(10)
O6_7 O 0.55956(15) 0.2296(3) 0.03786(12)
H16_7 H 0.510(4) 0.254(4) 0.031(4)
C1_7 C 0.85278(16) 0.2359(2) 0.99244(14)
C10_7 C 0.9599(3) 0.4432(3) 0.8088(2)
H4_7 H 0.9943 0.4044 0.7834
C11_7 C 0.9636(2) 0.5418(3) 0.8008(2)
C12_7 C 0.91525(19) 0.5999(2) 0.83512(17)
C13_7 C 0.8651(3) 0.5547(3) 0.8778(3)
H6_7 H 0.8302 0.5919 0.9039
C14_7 C 0.8650(3) 0.4553(3) 0.8831(2)
H7_7 H 0.8293 0.4263 0.9128
C15_7 C 0.9168(2) 0.7089(3) 0.82562(18)
H8_7 H 0.8825 0.7256 0.7884
H9_7 H 0.9718 0.7289 0.8150
C16_7 C 0.8897(3) 0.7631(2) 0.8823(2)
H10_7 H 0.8336 0.7464 0.8916
H11_7 H 0.9221 0.7445 0.9202
C17_7 C 0.8963(2) 0.8709(3) 0.87197(18)
C18_7 C 0.8432(2) 0.9204(3) 0.8338(2)
H12_7 H 0.8028 0.8864 0.8112
C21_7 C 0.9552(3) 0.9245(3) 0.90121(19)
H15_7 H 0.9943 0.8939 0.9271
N1_7 N 0.91176(14) 0.39945(18) 0.84936(12)
O1_7 O 0.81951(13) 0.24334(15) 0.93902(10)
C1_8 C 0.35278(16) 0.2641(2) 0.00756(14)
C10_8 C 0.4599(3) 0.0568(3) 0.1912(2)
H4_8 H 0.4943 0.0956 0.2166
C14_8 C 0.3650(3) 0.0447(3) 0.1169(2)
H7_8 H 0.3293 0.0737 0.0872
N1_8 N 0.41176(14) 0.10055(18) 0.15064(12)
O1_8 O 0.31951(13) 0.25666(15) 0.06098(10)
N3_4 N 0.40447(14) 0.42931(18) 0.14314(12)
C2_8 C 0.30243(17) 0.2604(2) 0.94779(14)
C3_8 C 0.33674(17) 0.25468(19) 0.88697(14)
H1_8 H 0.3930 0.2556 0.8831
C4_8 C 0.29084(17) 0.2477(2) 0.83224(14)
C5_8 C 0.20783(18) 0.2476(2) 0.83802(14)
H2_8 H 0.1755 0.2431 0.8006
C6_8 C 0.17286(18) 0.2542(2) 0.89833(14)
C7_8 C 0.21997(17) 0.2605(2) 0.95310(15)
H3_8 H 0.1958 0.2649 0.9944
C8_8 C 0.32812(17) 0.24069(19) 0.76627(14)
C9_8 C 0.08446(19) 0.2510(2) 0.90445(15)
O2_8 O 0.42640(13) 0.27539(19) 0.99975(12)
O6_8 O 0.05956(15) 0.2704(3) 0.96214(12)
H16_8 H 0.010(4) 0.246(4) 0.969(4)
C11_8 C 0.4636(2) 0.9582(3) 0.1992(2)
H5_6 H 0.5002 0.9313 0.2290
C12_8 C 0.41525(19) 0.9001(2) 0.16488(17)
C13_8 C 0.3651(3) 0.9453(3) 0.1222(3)
H6_8 H 0.3302 0.9081 0.0961
C15_8 C 0.4168(2) 0.7911(3) 0.17438(18)
H8_8 H 0.3825 0.7744 0.2116
H9_8 H 0.4718 0.7711 0.1850
C16_8 C 0.3897(3) 0.7369(2) 0.1177(2)
H10_8 H 0.3336 0.7536 0.1084
H11_8 H 0.4221 0.7555 0.0798
C17_8 C 0.3963(2) 0.6291(3) 0.12803(18)
C18_8 C 0.3432(2) 0.5796(3) 0.1662(2)
H12_8 H 0.3028 0.6136 0.1888
C19_8 C 0.3486(2) 0.4810(2) 0.1717(2)
H13_8 H 0.3102 0.4485 0.1973
C20_8 C 0.4567(2) 0.4769(2) 0.10750(19)
H14_8 H 0.4976 0.4412 0.0868
C21_8 C 0.4552(3) 0.5755(3) 0.09879(19)
H15_8 H 0.4943 0.6061 0.0729
H5_7 H 0.0002 0.9313 0.2710
H5_8 H 0.9998 0.0687 0.7290
loop_
_geom_bond_atom_site_label_1
_geom_bond_atom_site_label_2
_geom_bond_site_symmetry_1
_geom_bond_site_symmetry_2
C10 H4 1_555 1_555
C11 C10 1_555 1_555
C12 C11 1_555 1_555
C13 C12 1_555 1_555
H6 C13 1_555 1_555
C14 C13 1_555 1_555
H7 C14 1_555 1_555
C15 C12 1_555 1_555
H8 C15 1_555 1_555
H9 C15 1_555 1_555
C16 C15 1_555 1_555
H10 C16 1_555 1_555
H11 C16 1_555 1_555
C17 C16 1_555 1_555
C18 C17 1_555 1_555
H12 C18 1_555 1_555
C21 C17 1_555 1_555
H15 C21 1_555 1_555
N1 C10 1_555 1_555
O1 C1 1_555 1_555
Cd1 N1 1_555 1_555
N3 Cd1 1_555 1_555
O7 Cd1 1_555 1_555
O8 Cd1 1_555 1_555
C14 N1 1_555 1_555
O1 Cd1 1_555 1_555
C2 C3 1_555 1_555
C3 H1 1_555 1_555
C4 C3 1_555 1_555
C5 C4 1_555 1_555
H2 C5 1_555 1_555
C6 C5 1_555 1_555
C7 C2 1_555 1_555
H3 C7 1_555 1_555
C8 C4 1_555 1_555
C9 C6 1_555 1_555
O3 C8 1_555 1_555
O4 C8 1_555 1_555
O5 C9 1_555 1_555
O6 C9 1_555 1_555
H16 O6 1_555 1_555
Cd3 O5 1_555 1_555
Cd4 O3 1_555 1_555
C6 C7 1_555 1_555
O4 Cd4 1_555 1_555
H13 C19 1_555 1_555
C20 H14 1_555 1_555
N3 C19 1_555 1_555
C20 N3 1_555 1_555
H5_2 C11_2 1_555 1_555
C12_2 C11_2 1_555 1_555
C13_2 C12_2 1_555 1_555
H6_2 C13_2 1_555 1_555
C15_2 C12_2 1_555 1_555
H8_2 C15_2 1_555 1_555
H9_2 C15_2 1_555 1_555
C16_2 C15_2 1_555 1_555
H10_2 C16_2 1_555 1_555
H11_2 C16_2 1_555 1_555
C17_2 C16_2 1_555 1_555
C18_2 C17_2 1_555 1_555
H12_2 C18_2 1_555 1_555
C19_2 C18_2 1_555 1_555
H13_2 C19_2 1_555 1_555
C20_2 H14_2 1_555 1_555
C21_2 C17_2 1_555 1_555
H15_2 C21_2 1_555 1_555
N2 C19_2 1_555 1_555
Cd3 N2 1_555 1_555
C20_2 C21_2 1_555 1_555
C20_2 N2 1_555 1_555
C2_2 C3_2 1_555 1_555
C3_2 H1_2 1_555 1_555
C4_2 C3_2 1_555 1_555
C5_2 C4_2 1_555 1_555
H2_2 C5_2 1_555 1_555
C6_2 C5_2 1_555 1_555
C7_2 C2_2 1_555 1_555
H3_2 C7_2 1_555 1_555
C8_2 C4_2 1_555 1_555
C9_2 C6_2 1_555 1_555
O3_2 C8_2 1_555 1_555
O4_2 C8_2 1_555 1_555
O9 C9_2 1_555 1_555
O6_2 C9_2 1_555 1_555
H16_2 O6_2 1_555 1_555
Cd4_2 O3_2 1_555 1_555
C6_2 C7_2 1_555 1_555
O4_2 Cd4_2 1_555 1_555
C10_2 H4_2 1_555 1_555
H7_2 C14_2 1_555 1_555
N1_2 C10_2 1_555 1_555
O1_2 C1_2 1_555 1_555
Cd3 N1_2 1_555 1_555
O7_2 Cd3 1_555 1_555
O8_2 Cd3 1_555 1_555
C14_2 N1_2 1_555 1_555
O1_2 Cd3 1_555 1_555
C1_3 C2_3 1_555 1_555
C2_3 C3_3 1_555 1_555
C3_3 H1_3 1_555 1_555
C4_3 C3_3 1_555 1_555
C5_3 C4_3 1_555 1_555
H2_3 C5_3 1_555 1_555
C6_3 C5_3 1_555 1_555
C7_3 C2_3 1_555 1_555
H3_3 C7_3 1_555 1_555
C8_3 C4_3 1_555 1_555
C9_3 C6_3 1_555 1_555
C10_3 H4_3 1_555 1_555
C11_3 C10_3 1_555 1_555
H5_3 C11_3 1_555 1_555
C12_3 C11_3 1_555 1_555
C13_3 C12_3 1_555 1_555
H6_3 C13_3 1_555 1_555
C14_3 C13_3 1_555 1_555
H7_3 C14_3 1_555 1_555
C15_3 C12_3 1_555 1_555
H8_3 C15_3 1_555 1_555
H9_3 C15_3 1_555 1_555
C16_3 C15_3 1_555 1_555
H10_3 C16_3 1_555 1_555
H11_3 C16_3 1_555 1_555
C17_3 C16_3 1_555 1_555
C18_3 C17_3 1_555 1_555
H12_3 C18_3 1_555 1_555
C21_3 C17_3 1_555 1_555
H15_3 C21_3 1_555 1_555
N1_3 C10_3 1_555 1_555
O1_3 C1_3 1_555 1_555
O2_3 C1_3 1_555 1_555
O7_2 C8_3 1_555 1_555
O8_2 C8_3 1_555 1_555
O5_2 C9_3 1_555 1_555
O6_3 C9_3 1_555 1_555
Cd4_2 N1_3 1_555 1_555
H16_3 O6_3 1_555 1_555
N3_2 Cd4_2 1_555 1_555
O9_2 Cd4_2 1_555 1_555
C6_3 C7_3 1_555 1_555
C14_3 N1_3 1_555 1_555
O1_3 Cd4_2 1_555 1_555
H13_3 C19_3 1_555 1_555
C20_3 H14_3 1_555 1_555
N3_2 C19_3 1_555 1_555
C20_3 N3_2 1_555 1_555
C12_4 C11_4 1_555 1_555
C13_4 C12_4 1_555 1_555
H6_4 C13_4 1_555 1_555
C15_4 C12_4 1_555 1_555
H8_4 C15_4 1_555 1_555
H9_4 C15_4 1_555 1_555
C16_4 C15_4 1_555 1_555
H10_4 C16_4 1_555 1_555
H11_4 C16_4 1_555 1_555
C17_4 C16_4 1_555 1_555
C18_4 C17_4 1_555 1_555
H12_4 C18_4 1_555 1_555
C19_4 C18_4 1_555 1_555
H13_4 C19_4 1_555 1_555
C20_4 H14_4 1_555 1_555
C21_4 C17_4 1_555 1_555
H15_4 C21_4 1_555 1_555
N2_2 C19_4 1_555 1_555
Cd4 N2_2 1_555 1_555
C20_4 C21_4 1_555 1_555
C20_4 N2_2 1_555 1_555
C1_4 C2_4 1_555 1_555
C2_4 C3_4 1_555 1_555
C3_4 H1_4 1_555 1_555
C4_4 C3_4 1_555 1_555
C5_4 C4_4 1_555 1_555
H2_4 C5_4 1_555 1_555
C6_4 C5_4 1_555 1_555
C7_4 C2_4 1_555 1_555
H3_4 C7_4 1_555 1_555
C8_4 C4_4 1_555 1_555
C9_4 C6_4 1_555 1_555
C10_4 H4_4 1_555 1_555
H7_4 C14_4 1_555 1_555
N1_4 C10_4 1_555 1_555
O1_4 C1_4 1_555 1_555
O2_4 C1_4 1_555 1_555
O7 C8_4 1_555 1_555
O8 C8_4 1_555 1_555
O9_2 C9_4 1_555 1_555
O6_4 C9_4 1_555 1_555
Cd4 N1_4 1_555 1_555
H16_4 O6_4 1_555 1_555
C6_4 C7_4 1_555 1_555
C14_4 N1_4 1_555 1_555
O1_4 Cd4 1_555 1_555
H13_5 C19_5 1_555 1_555
C20_5 H14_5 1_555 1_555
N2_3 C19_5 1_555 1_555
Cd2 N2_3 1_555 1_555
C20_5 N2_3 1_555 1_555
C1_5 C2_5 1_555 1_555
C2_5 C3_5 1_555 1_555
C3_5 H1_5 1_555 1_555
C4_5 C3_5 1_555 1_555
C5_5 C4_5 1_555 1_555
H2_5 C5_5 1_555 1_555
C6_5 C5_5 1_555 1_555
C7_5 C2_5 1_555 1_555
H3_5 C7_5 1_555 1_555
C8_5 C4_5 1_555 1_555
C9_5 C6_5 1_555 1_555
C10_5 H4_5 1_555 1_555
C11_5 C10_5 1_555 1_555
H5_4 C11_5 1_555 1_555
C12_5 C11_5 1_555 1_555
C13_5 C12_5 1_555 1_555
H6_5 C13_5 1_555 1_555
C14_5 C13_5 1_555 1_555
H7_5 C14_5 1_555 1_555
C15_5 C12_5 1_555 1_555
H8_5 C15_5 1_555 1_555
H9_5 C15_5 1_555 1_555
C16_5 C15_5 1_555 1_555
H10_5 C16_5 1_555 1_555
H11_5 C16_5 1_555 1_555
C17_5 C16_5 1_555 1_555
C18_5 C17_5 1_555 1_555
H12_5 C18_5 1_555 1_555
C21_5 C17_5 1_555 1_555
H15_5 C21_5 1_555 1_555
N1_5 C10_5 1_555 1_555
O1_5 C1_5 1_555 1_555
O2_5 C1_5 1_555 1_555
O3_3 C8_5 1_555 1_555
O4_3 C8_5 1_555 1_555
O5_3 C9_5 1_555 1_555
O6_5 C9_5 1_555 1_555
Cd2 N1_5 1_555 1_555
H16_5 O6_5 1_555 1_555
O7_3 Cd2 1_555 1_555
O8_3 Cd2 1_555 1_555
O9_3 Cd2 1_555 1_555
Cd4_3 O3_3 1_555 1_555
C6_5 C7_5 1_555 1_555
C14_5 N1_5 1_555 1_555
O1_5 Cd2 1_555 1_555
O4_3 Cd4_3 1_555 1_555
C1_6 C2_6 1_555 1_555
C2_6 C3_6 1_555 1_555
C3_6 H1_6 1_555 1_555
C4_6 C3_6 1_555 1_555
C5_6 C4_6 1_555 1_555
H2_6 C5_6 1_555 1_555
C6_6 C5_6 1_555 1_555
C7_6 C2_6 1_555 1_555
H3_6 C7_6 1_555 1_555
C8_6 C4_6 1_555 1_555
C9_6 C6_6 1_555 1_555
C10_6 H4_6 1_555 1_555
H7_6 C14_6 1_555 1_555
N1_6 C10_6 1_555 1_555
O1_6 C1_6 1_555 1_555
O2_6 C1_6 1_555 1_555
O3_4 C8_6 1_555 1_555
O4_4 C8_6 1_555 1_555
O9_3 C9_6 1_555 1_555
O6_6 C9_6 1_555 1_555
Cd3_2 N1_6 1_555 1_555
H16_6 O6_6 1_555 1_555
N3_3 Cd3_2 1_555 1_555
O7_4 Cd3_2 1_555 1_555
O8_4 Cd3_2 1_555 1_555
Cd4_4 O3_4 1_555 1_555
C6_6 C7_6 1_555 1_555
C14_6 N1_6 1_555 1_555
O1_6 Cd3_2 1_555 1_555
O4_4 Cd4_4 1_555 1_555
C12_6 C11_6 1_555 1_555
C13_6 C12_6 1_555 1_555
H6_6 C13_6 1_555 1_555
C15_6 C12_6 1_555 1_555
H8_6 C15_6 1_555 1_555
H9_6 C15_6 1_555 1_555
C16_6 C15_6 1_555 1_555
H10_6 C16_6 1_555 1_555
H11_6 C16_6 1_555 1_555
C17_6 C16_6 1_555 1_555
C18_6 C17_6 1_555 1_555
H12_6 C18_6 1_555 1_555
C19_6 C18_6 1_555 1_555
H13_6 C19_6 1_555 1_555
C20_6 H14_6 1_555 1_555
C21_6 C17_6 1_555 1_555
H15_6 C21_6 1_555 1_555
N3_3 C19_6 1_555 1_555
C20_6 C21_6 1_555 1_555
C20_6 N3_3 1_555 1_555
H13_7 C19_7 1_555 1_555
C20_7 H14_7 1_555 1_555
N2_4 C19_7 1_555 1_555
Cd4_4 N2_4 1_555 1_555
C20_7 N2_4 1_555 1_555
C2_7 C3_7 1_555 1_555
C3_7 H1_7 1_555 1_555
C4_7 C3_7 1_555 1_555
C5_7 C4_7 1_555 1_555
H2_7 C5_7 1_555 1_555
C6_7 C5_7 1_555 1_555
C7_7 C2_7 1_555 1_555
H3_7 C7_7 1_555 1_555
C8_7 C4_7 1_555 1_555
C9_7 C6_7 1_555 1_555
O7_4 C8_7 1_555 1_555
O8_4 C8_7 1_555 1_555
O5_4 C9_7 1_555 1_555
O6_7 C9_7 1_555 1_555
H16_7 O6_7 1_555 1_555
Cd4_3 O5_4 1_555 1_555
C6_7 C7_7 1_555 1_555
C10_7 H4_7 1_555 1_555
C11_7 C10_7 1_555 1_555
C12_7 C11_7 1_555 1_555
C13_7 C12_7 1_555 1_555
H6_7 C13_7 1_555 1_555
C14_7 C13_7 1_555 1_555
H7_7 C14_7 1_555 1_555
C15_7 C12_7 1_555 1_555
H8_7 C15_7 1_555 1_555
H9_7 C15_7 1_555 1_555
C16_7 C15_7 1_555 1_555
H10_7 C16_7 1_555 1_555
H11_7 C16_7 1_555 1_555
C17_7 C16_7 1_555 1_555
C18_7 C17_7 1_555 1_555
H12_7 C18_7 1_555 1_555
C21_7 C17_7 1_555 1_555
H15_7 C21_7 1_555 1_555
N1_7 C10_7 1_555 1_555
O1_7 C1_7 1_555 1_555
Cd4_4 N1_7 1_555 1_555
C14_7 N1_7 1_555 1_555
O1_7 Cd4_4 1_555 1_555
C10_8 H4_8 1_555 1_555
H7_8 C14_8 1_555 1_555
N1_8 C10_8 1_555 1_555
O1_8 C1_8 1_555 1_555
Cd4_3 N1_8 1_555 1_555
N3_4 Cd4_3 1_555 1_555
C14_8 N1_8 1_555 1_555
O1_8 Cd4_3 1_555 1_555
C2_8 C3_8 1_555 1_555
C3_8 H1_8 1_555 1_555
C4_8 C3_8 1_555 1_555
C5_8 C4_8 1_555 1_555
H2_8 C5_8 1_555 1_555
C6_8 C5_8 1_555 1_555
C7_8 C2_8 1_555 1_555
H3_8 C7_8 1_555 1_555
C8_8 C4_8 1_555 1_555
C9_8 C6_8 1_555 1_555
O7_3 C8_8 1_555 1_555
O8_3 C8_8 1_555 1_555
O9_4 C9_8 1_555 1_555
O6_8 C9_8 1_555 1_555
H16_8 O6_8 1_555 1_555
C6_8 C7_8 1_555 1_555
H5_6 C11_8 1_555 1_555
C12_8 C11_8 1_555 1_555
C13_8 C12_8 1_555 1_555
H6_8 C13_8 1_555 1_555
C15_8 C12_8 1_555 1_555
H8_8 C15_8 1_555 1_555
H9_8 C15_8 1_555 1_555
C16_8 C15_8 1_555 1_555
H10_8 C16_8 1_555 1_555
H11_8 C16_8 1_555 1_555
C17_8 C16_8 1_555 1_555
C18_8 C17_8 1_555 1_555
H12_8 C18_8 1_555 1_555
C19_8 C18_8 1_555 1_555
H13_8 C19_8 1_555 1_555
C20_8 H14_8 1_555 1_555
C21_8 C17_8 1_555 1_555
H15_8 C21_8 1_555 1_555
N3_4 C19_8 1_555 1_555
C20_8 C21_8 1_555 1_555
C20_8 N3_4 1_555 1_555

#END
