
###############################################################################
#
# This file contains modified crystal structure data generated from the
# MOF subset of the Cambridge Structural Database (CSD) v543 
# hosted by the Cambridge Crystallographic Data Centre (CCDC).
#
# This work is licensed under the Creative Commons
# Attribution-NonCommercial-ShareAlike 4.0 International License.
# To view a copy of this license, visit
# http://creativecommons.org/licenses/by-nc-sa/4.0/
# or send a letter to
# Creative Commons, PO Box 1866, Mountain View, CA 94042, USA.
#
# CIF created using the CSD Python API on 29 September 2022
# The structure has been converted into the P1 space group
# The structure has a 3D framework
# The original CSD entry XICJUR is in the trigonal crystal system
# The framework has been calculated to contain at least 10.0% void space
# The void calculation uses a probe of radius 1.32A, grid spacing 0.4
# The framework is charged, counterions have been retained in the structure
#
###############################################################################

data_XICJUR
_chemical_formula_moiety         '(C12 H12 Fe2 Ga4 O17 1-)n'
_symmetry_cell_setting           triclinic
_symmetry_space_group_name_H-M   'P 1'
_symmetry_Int_Tables_number      1
_space_group_name_Hall           'P 1'
loop_
_symmetry_equiv_pos_site_id
_symmetry_equiv_pos_as_xyz
1 x,y,z
_cell_length_a                   8.215(2)
_cell_length_b                   8.215(2)
_cell_length_c                   13.616(5)
_cell_angle_alpha                90
_cell_angle_beta                 90
_cell_angle_gamma                120
_cell_volume                     795.784
loop_
_atom_site_label
_atom_site_type_symbol
_atom_site_fract_x
_atom_site_fract_y
_atom_site_fract_z
Ga3 Ga 0.0000 0.0000 0.0000
Ga3_2 Ga 0.0000 0.0000 1.0000
O6 O 0.01638(17) 0.81080(25) 0.08188(9)
O9 O 0.4546(3) 0.3415(2) 0.16563(10)
O10 O 0.18920(25) 0.20558(19) 0.08188(9)
C5 C 0.3334(4) 0.2093(3) 0.11683(13)
H5 H 0.3494 0.1066 0.1052
O12 O 0.01638(17) 0.20558(19) 0.41812(9)
Fe3 Fe 0.6667 0.3333 0.2500
Ga3_3 Ga -0.0000 1.0000 0.0000
Ga4 Ga -0.0000 0.0000 0.5000
Ga3_4 Ga -0.0000 1.0000 1.0000
O15 O 0.20558(19) 0.01638(17) 0.91812(9)
Ga4_2 Ga -0.0000 1.0000 0.5000
Ga3_5 Ga 1.0000 0.0000 0.0000
Ga3_6 Ga 1.0000 0.0000 1.0000
O1 O 0.6585(2) 0.1131(2) 0.16563(10)
C1 C 0.7907(3) 0.1241(3) 0.11683(13)
H1 H 0.8934 0.2428 0.1052
O5 O 0.8869(2) 0.5454(3) 0.16563(10)
C3 C 0.8759(3) 0.6666(4) 0.11683(13)
H3 H 0.7572 0.6506 0.1052
O11 O 0.8869(2) 0.3415(2) 0.33437(10)
C6 C 0.8759(3) 0.2093(3) 0.38317(13)
H6 H 0.7572 0.1066 0.3948
Ga3_7 Ga 1.0000 1.0000 0.0000
Ga4_3 Ga 1.0000 0.0000 0.5000
O13 O 0.4546(3) 0.1131(2) 0.33437(10)
O14 O 0.6585(2) 0.5454(3) 0.33437(10)
Ga3_8 Ga 1.0000 1.0000 1.0000
O16 O 0.98362(17) 0.18920(25) 0.91812(9)
O2 O 0.79442(19) 0.98362(17) 0.08188(9)
Ga4_4 Ga 1.0000 1.0000 0.5000
O17 O 0.81080(25) 0.79442(19) 0.91812(9)
O12_2 O 0.79442(19) 0.81080(25) 0.41812(9)
C6_2 C 0.7907(3) 0.6666(4) 0.38317(13)
H6_2 H 0.8934 0.6506 0.3948
C6_3 C 0.3334(4) 0.1241(3) 0.38317(13)
H6_3 H 0.3494 0.2428 0.3948
O12_3 O 0.18920(25) 0.98362(17) 0.41812(9)
O17_2 O 0.20558(19) 0.18920(25) 0.58188(9)
O16_2 O 0.81080(25) 0.01638(17) 0.58188(9)
O15_2 O 0.98362(17) 0.79442(19) 0.58188(9)
O3 O 0.1131(2) 0.4546(3) 0.83437(10)
C2 C 0.1241(3) 0.3334(4) 0.88317(13)
H2 H 0.2428 0.3494 0.8948
Fe2 Fe 0.3333 0.6667 0.7500
O1_2 O 0.3415(2) 0.8869(2) 0.83437(10)
C1_2 C 0.2093(3) 0.8759(3) 0.88317(13)
H1_2 H 0.1066 0.7572 0.8948
O7 O 0.5454(3) 0.6585(2) 0.83437(10)
C4 C 0.6666(4) 0.7907(3) 0.88317(13)
H4 H 0.6506 0.8934 0.8948
O11_2 O 0.1131(2) 0.6585(2) 0.66563(10)
C6_4 C 0.1241(3) 0.7907(3) 0.61683(13)
H6_4 H 0.2428 0.8934 0.6052
O13_2 O 0.5454(3) 0.8869(2) 0.66563(10)
O14_2 O 0.3415(2) 0.4546(3) 0.66563(10)
C6_5 C 0.2093(3) 0.3334(4) 0.61683(13)
H6_5 H 0.1066 0.3494 0.6052
C6_6 C 0.6666(4) 0.8759(3) 0.61683(13)
H6_6 H 0.6506 0.7572 0.6052
loop_
_geom_bond_atom_site_label_1
_geom_bond_atom_site_label_2
_geom_bond_site_symmetry_1
_geom_bond_site_symmetry_2
O9 C5 1_555 1_555
O10 Ga3 1_555 1_555
C5 O10 1_555 1_555
H5 C5 1_555 1_555
Fe3 O9 1_555 1_555
Ga3_3 O6 1_555 1_555
Ga4 O12 1_555 1_555
O15 Ga3_2 1_555 1_555
Fe3 O1 1_555 1_555
O1 C1 1_555 1_555
C1 H1 1_555 1_555
O5 Fe3 1_555 1_555
C3 O5 1_555 1_555
H3 C3 1_555 1_555
O11 Fe3 1_555 1_555
C6 O11 1_555 1_555
H6 C6 1_555 1_555
O13 Fe3 1_555 1_555
O14 Fe3 1_555 1_555
O16 Ga3_6 1_555 1_555
Ga3_7 O2 1_555 1_555
O17 Ga3_8 1_555 1_555
O12_2 C6_2 1_555 1_555
C6_2 O14 1_555 1_555
H6_2 C6_2 1_555 1_555
Ga4_4 O12_2 1_555 1_555
C6_3 O13 1_555 1_555
H6_3 C6_3 1_555 1_555
Ga4_2 O12_3 1_555 1_555
O17_2 Ga4 1_555 1_555
O16_2 Ga4_3 1_555 1_555
O15_2 Ga4_4 1_555 1_555
O3 C2 1_555 1_555
H2 C2 1_555 1_555
Fe2 O3 1_555 1_555
Fe2 O1_2 1_555 1_555
O1_2 C1_2 1_555 1_555
C1_2 H1_2 1_555 1_555
O7 Fe2 1_555 1_555
O17 C4 1_555 1_555
C4 O7 1_555 1_555
H4 C4 1_555 1_555
O11_2 Fe2 1_555 1_555
C6_4 O11_2 1_555 1_555
H6_4 C6_4 1_555 1_555
O13_2 Fe2 1_555 1_555
O14_2 Fe2 1_555 1_555
O17_2 C6_5 1_555 1_555
C6_5 O14_2 1_555 1_555
H6_5 C6_5 1_555 1_555
C6_6 O13_2 1_555 1_555
H6_6 C6_6 1_555 1_555

#END
