
###############################################################################
#
# This file contains modified crystal structure data generated from the
# MOF subset of the Cambridge Structural Database (CSD) v543 
# hosted by the Cambridge Crystallographic Data Centre (CCDC).
#
# This work is licensed under the Creative Commons
# Attribution-NonCommercial-ShareAlike 4.0 International License.
# To view a copy of this license, visit
# http://creativecommons.org/licenses/by-nc-sa/4.0/
# or send a letter to
# Creative Commons, PO Box 1866, Mountain View, CA 94042, USA.
#
# CIF created using the CSD Python API on 29 September 2022
# The structure has been converted into the P1 space group
# The structure has a 3D framework
# The original CSD entry XICJUR01 is in the trigonal crystal system
# The framework has been calculated to contain at least 10.0% void space
# The void calculation uses a probe of radius 1.32A, grid spacing 0.4
# The framework is charged, counterions have been retained in the structure
#
###############################################################################

data_XICJUR01
_chemical_formula_moiety         '(C12 H12 Fe1 Ga9 O22 1-)n'
_symmetry_cell_setting           triclinic
_symmetry_space_group_name_H-M   'P 1'
_symmetry_Int_Tables_number      1
_space_group_name_Hall           'P 1'
loop_
_symmetry_equiv_pos_site_id
_symmetry_equiv_pos_as_xyz
1 x,y,z
_cell_length_a                   8.242(5)
_cell_length_b                   8.242(5)
_cell_length_c                   13.674(6)
_cell_angle_alpha                90
_cell_angle_beta                 90
_cell_angle_gamma                120
_cell_volume                     804.436
loop_
_atom_site_label
_atom_site_type_symbol
_atom_site_fract_x
_atom_site_fract_y
_atom_site_fract_z
Ga1 Ga 0.0000 0.0000 0.0000
Fe1 Fe 0.6667 0.3333 0.2500
O1 O 0.4540(3) 0.1149(3) 0.16566(13)
C1 C 0.3331(3) 0.1248(3) 0.11724(17)
H1 H 0.3485 0.2430 0.1064
O4 O 0.0138(2) 0.2040(3) 0.08144(13)
O7 O 0.4540(3) 0.3391(4) 0.33434(13)
O8 O 0.1902(2) 0.2040(3) 0.41856(13)
C4 C 0.3331(3) 0.2083(4) 0.38276(17)
H4 H 0.3485 0.1055 0.3936
Ga2 Ga 0.0000 -0.0000 0.5000
O13 O 0.8851(3) 0.3391(4) 0.16566(13)
O14 O 0.6609(4) 0.5460(3) 0.16566(13)
O15 O 0.8851(3) 0.5460(3) 0.33434(13)
O16 O 0.6609(4) 0.1149(3) 0.33434(13)
Ga1_2 Ga 0.0000 -0.0000 1.0000
O17 O 0.2040(3) 0.1902(2) 0.91856(13)
Ga1_3 Ga -0.0000 1.0000 0.0000
O2 O 0.1902(2) 0.9862(2) 0.08144(13)
Ga2_2 Ga -0.0000 1.0000 0.5000
Ga1_4 Ga -0.0000 1.0000 1.0000
O11 O 0.1149(3) 0.6609(4) 0.83434(13)
C6 C 0.1248(3) 0.7917(4) 0.88276(17)
H6 H 0.2430 0.8945 0.8936
Fe5 Fe 0.3333 0.6667 0.7500
Ga1_5 Ga 1.0000 0.0000 0.0000
C2 C 0.8752(3) 0.2083(4) 0.11724(17)
H2 H 0.7570 0.1055 0.1064
Ga2_3 Ga 1.0000 -0.0000 0.5000
Ga1_6 Ga 1.0000 -0.0000 1.0000
O10 O 0.8098(2) 0.0138(2) 0.91856(13)
Ga1_7 Ga 1.0000 1.0000 0.0000
O6 O 0.7960(3) 0.8098(2) 0.08144(13)
C3 C 0.7917(4) 0.6669(3) 0.11724(17)
H3 H 0.8945 0.6515 0.1064
Ga2_4 Ga 1.0000 1.0000 0.5000
Ga1_8 Ga 1.0000 1.0000 1.0000
O9 O 0.5460(3) 0.8851(3) 0.83434(13)
C5 C 0.6669(3) 0.8752(3) 0.88276(17)
H5 H 0.6515 0.7570 0.8936
O12 O 0.9862(2) 0.7960(3) 0.91856(13)
O11_2 O 0.3391(4) 0.4540(5) 0.83434(13)
C6_2 C 0.2083(4) 0.3331(5) 0.88276(17)
H6_2 H 0.1055 0.3485 0.8936
C4_2 C 0.7917(4) 0.1248(5) 0.38276(17)
H4_2 H 0.8945 0.2430 0.3936
O8_2 O 0.7960(3) 0.9862(4) 0.41856(13)
O8_3 O 0.0138(4) 0.8098(2) 0.41856(13)
C4_3 C 0.8752(5) 0.6669(3) 0.38276(17)
H4_3 H 0.7570 0.6515 0.3936
O9_2 O 0.1149(3) 0.4540(3) 0.66566(13)
C5_2 C 0.1248(3) 0.3331(3) 0.61724(17)
H5_2 H 0.2430 0.3485 0.6064
O12_2 O 0.2040(3) 0.0138(2) 0.58144(13)
O11_3 O 0.3391(4) 0.8851(3) 0.66566(13)
C6_3 C 0.2083(4) 0.8752(3) 0.61724(17)
H6_3 H 0.1055 0.7570 0.6064
O10_2 O 0.9862(2) 0.1902(2) 0.58144(13)
O17_2 O 0.8098(2) 0.7960(3) 0.58144(13)
O9_3 O 0.5460(3) 0.6609(4) 0.66566(13)
C5_3 C 0.6669(3) 0.7917(4) 0.61724(17)
H5_3 H 0.6515 0.8945 0.6064
loop_
_geom_bond_atom_site_label_1
_geom_bond_atom_site_label_2
_geom_bond_site_symmetry_1
_geom_bond_site_symmetry_2
Fe1 O1 1_555 1_555
O1 C1 1_555 1_555
C1 H1 1_555 1_555
O4 Ga1 1_555 1_555
O7 Fe1 1_555 1_555
O8 C4 1_555 1_555
C4 O7 1_555 1_555
H4 C4 1_555 1_555
Ga2 O8 1_555 1_555
O13 Fe1 1_555 1_555
O14 Fe1 1_555 1_555
O15 Fe1 1_555 1_555
O16 Fe1 1_555 1_555
O17 Ga1_2 1_555 1_555
Ga1_3 O2 1_555 1_555
O11 C6 1_555 1_555
H6 C6 1_555 1_555
Fe5 O11 1_555 1_555
O13 C2 1_555 1_555
H2 C2 1_555 1_555
O10 Ga1_6 1_555 1_555
O14 C3 1_555 1_555
O6 Ga1_7 1_555 1_555
C3 O6 1_555 1_555
H3 C3 1_555 1_555
O9 C5 1_555 1_555
H5 C5 1_555 1_555
O12 Ga1_8 1_555 1_555
Fe5 O9 1_555 1_555
O11_2 C6_2 1_555 1_555
C6_2 O17 1_555 1_555
H6_2 C6_2 1_555 1_555
Fe5 O11_2 1_555 1_555
C4_2 O16 1_555 1_555
H4_2 C4_2 1_555 1_555
Ga2_4 O8_2 1_555 1_555
Ga2_2 O8_3 1_555 1_555
C4_3 O15 1_555 1_555
H4_3 C4_3 1_555 1_555
O9_2 C5_2 1_555 1_555
H5_2 C5_2 1_555 1_555
O12_2 Ga2 1_555 1_555
Fe5 O9_2 1_555 1_555
O11_3 C6_3 1_555 1_555
H6_3 C6_3 1_555 1_555
Fe5 O11_3 1_555 1_555
O10_2 Ga2_3 1_555 1_555
O17_2 Ga2_4 1_555 1_555
O9_3 C5_3 1_555 1_555
C5_3 O17_2 1_555 1_555
H5_3 C5_3 1_555 1_555
Fe5 O9_3 1_555 1_555

#END
