
###############################################################################
#
# This file contains modified crystal structure data generated from the
# MOF subset of the Cambridge Structural Database (CSD) v543 
# hosted by the Cambridge Crystallographic Data Centre (CCDC).
#
# This work is licensed under the Creative Commons
# Attribution-NonCommercial-ShareAlike 4.0 International License.
# To view a copy of this license, visit
# http://creativecommons.org/licenses/by-nc-sa/4.0/
# or send a letter to
# Creative Commons, PO Box 1866, Mountain View, CA 94042, USA.
#
# CIF created using the CSD Python API on 29 September 2022
# The structure has been converted into the P1 space group
# The structure has a 3D framework
# The original CSD entry XICJIF is in the cubic crystal system
# The framework has been calculated to contain at least 10.0% void space
# The void calculation uses a probe of radius 1.32A, grid spacing 0.4
# The framework is charged, counterions have been retained in the structure
#
###############################################################################

data_XICJIF
_chemical_formula_moiety         '(C2496 H1536 N672 O576 Zn112 52-)n'
_symmetry_cell_setting           triclinic
_symmetry_space_group_name_H-M   'P 1'
_symmetry_Int_Tables_number      1
_space_group_name_Hall           'P 1'
loop_
_symmetry_equiv_pos_site_id
_symmetry_equiv_pos_as_xyz
1 x,y,z
_cell_length_a                   51.4591(16)
_cell_length_b                   51.4591(16)
_cell_length_c                   51.4591(16)
_cell_angle_alpha                90
_cell_angle_beta                 90
_cell_angle_gamma                90
_cell_volume                     136266
loop_
_atom_site_label
_atom_site_type_symbol
_atom_site_fract_x
_atom_site_fract_y
_atom_site_fract_z
Zn14 Zn 0.000000 0.500000 0.500000
Zn16 Zn 0.000000 0.250000 0.250000
Zn1 Zn 0.86294(2) 0.57651(2) 0.49857(2)
Zn2 Zn 0.750000 0.500000 0.250000
O1 O 0.83344(8) 0.56643(10) 0.47793(9)
O2 O 0.60086(10) 0.35114(9) 0.47564(9)
O3 O 0.64150(9) 0.34578(9) 0.46106(9)
N1 N 0.61920(10) 0.43853(11) 0.36358(10)
N2 N 0.73586(11) 0.55234(10) 0.37658(10)
O4 O 0.72448(11) 0.42897(10) 0.28426(10)
N3 N 0.70680(10) 0.52338(10) 0.38115(10)
O5 O 0.85716(10) 0.54880(12) 0.44607(10)
N4 N 0.68842(10) 0.48598(10) 0.35162(10)
N5 N 0.71669(11) 0.54395(10) 0.39256(10)
N6 N 0.64600(10) 0.46888(10) 0.37288(10)
N7 N 0.62403(11) 0.45815(11) 0.38046(11)
O6 O 0.73946(12) 0.46654(12) 0.26998(13)
C1 C 0.71940(12) 0.51892(12) 0.35873(11)
C2 C 0.67830(12) 0.46525(11) 0.33954(12)
C3 C 0.68987(13) 0.45407(12) 0.31771(13)
H1 H 0.682480 0.439097 0.309832
C4 C 0.60366(13) 0.40444(12) 0.39423(13)
C5 C 0.63770(12) 0.43589(13) 0.34552(13)
H2 H 0.639048 0.423354 0.332027
C6 C 0.71235(13) 0.46514(14) 0.30766(13)
C7 C 0.73870(12) 0.53779(13) 0.35541(14)
H3 H 0.750761 0.539715 0.341562
C8 C 0.71080(12) 0.49714(12) 0.34194(12)
C9 C 0.72265(14) 0.48766(13) 0.31947(12)
H4 H 0.737346 0.496195 0.312262
C10 C 0.83612(14) 0.55807(16) 0.45425(14)
C11 C 0.62859(13) 0.39728(14) 0.39940(14)
H5 H 0.642363 0.402905 0.388481
C12 C 0.65446(13) 0.45618(12) 0.35155(12)
C13 C 0.61289(13) 0.37327(14) 0.43682(14)
C14 C 0.61956(14) 0.35566(13) 0.45894(13)
C15 C 0.75119(13) 0.57529(14) 0.38303(14)
H6 H 0.739533 0.588744 0.390326
H7 H 0.758960 0.582354 0.366918
C16 C 0.59758(13) 0.42056(14) 0.36995(13)
H8 H 0.594501 0.408765 0.355066
H9 H 0.581508 0.430720 0.372898
C17 C 0.77240(13) 0.56979(13) 0.40214(14)
C18 C 0.81396(14) 0.56159(14) 0.43658(14)
C19 C 0.58396(13) 0.39686(14) 0.41035(14)
H10 H 0.566752 0.402504 0.406763
C20 C 0.63368(13) 0.38162(13) 0.42088(14)
H11 H 0.651003 0.376574 0.424807
C21 C 0.72637(15) 0.45319(16) 0.28493(16)
C22 C 0.58840(14) 0.38125(15) 0.43169(14)
H12 H 0.574420 0.376166 0.442626
C23 C 0.79393(14) 0.55436(15) 0.39454(14)
H13 H 0.794116 0.546499 0.377840
C24 C 0.81502(15) 0.55061(15) 0.41152(14)
H14 H 0.829740 0.540821 0.406188
C25 C 0.77306(18) 0.5812(2) 0.42689(18)
H15 H 0.759479 0.592679 0.431829
C26 C 0.79224(18) 0.5764(2) 0.44371(16)
H16 H 0.791122 0.583096 0.460866
Zn3 Zn 0.75143(2) 0.38706(2) 0.57651(2)
O7 O 0.77207(9) 0.41656(8) 0.56643(10)
O8 O 0.77436(9) 0.64914(10) 0.35114(9)
O9 O 0.78894(9) 0.60850(9) 0.34578(9)
N8 N 0.88642(10) 0.63080(10) 0.43853(11)
N9 N 0.87342(10) 0.51414(11) 0.55234(10)
O10 O 0.96574(10) 0.52552(11) 0.42897(10)
N10 N 0.86885(10) 0.54320(10) 0.52338(10)
O11 O 0.80393(10) 0.39284(10) 0.54880(12)
N11 N 0.89838(10) 0.56158(10) 0.48598(10)
N12 N 0.85744(10) 0.53331(11) 0.54395(10)
N13 N 0.87712(10) 0.60400(10) 0.46888(10)
N14 N 0.86954(11) 0.62597(11) 0.45815(11)
O12 O 0.98002(13) 0.51054(12) 0.46654(12)
C27 C 0.89127(11) 0.53060(12) 0.51892(12)
C28 C 0.91046(12) 0.57170(12) 0.46525(11)
C29 C 0.93229(13) 0.56013(13) 0.45407(12)
H17 H 0.940168 0.567520 0.439097
C30 C 0.85577(13) 0.64634(13) 0.40444(12)
C31 C 0.90448(13) 0.61230(12) 0.43589(13)
H18 H 0.917973 0.610952 0.423354
C32 C 0.94234(13) 0.53765(13) 0.46514(14)
C33 C 0.89459(14) 0.51130(12) 0.53779(13)
H19 H 0.908438 0.499239 0.539715
C34 C 0.90806(12) 0.53920(12) 0.49714(12)
C35 C 0.93053(12) 0.52735(14) 0.48766(13)
H20 H 0.937738 0.512654 0.496195
C36 C 0.79575(14) 0.41388(14) 0.55807(16)
C37 C 0.85060(14) 0.62141(13) 0.39728(14)
H21 H 0.861519 0.607637 0.402905
C38 C 0.89845(12) 0.59554(13) 0.45618(12)
C39 C 0.81318(14) 0.63711(13) 0.37327(14)
C40 C 0.79106(13) 0.63044(14) 0.35566(13)
C41 C 0.86697(14) 0.49881(13) 0.57529(14)
H22 H 0.859674 0.510467 0.588744
H23 H 0.883082 0.491040 0.582354
C42 C 0.88005(13) 0.65242(13) 0.42056(14)
H24 H 0.894934 0.655499 0.408765
H25 H 0.877102 0.668492 0.430720
C43 C 0.84786(14) 0.47760(13) 0.56979(13)
C44 C 0.81342(14) 0.43604(14) 0.56159(14)
C45 C 0.83965(14) 0.66604(13) 0.39686(14)
H26 H 0.843237 0.683248 0.402504
C46 C 0.82912(14) 0.61632(13) 0.38162(13)
H27 H 0.825193 0.598997 0.376574
C47 C 0.96507(16) 0.52363(15) 0.45319(16)
C48 C 0.81831(14) 0.66160(14) 0.38125(15)
H28 H 0.807374 0.675580 0.376166
C49 C 0.85546(14) 0.45607(14) 0.55436(15)
H29 H 0.872160 0.455884 0.546499
C50 C 0.83848(14) 0.43498(15) 0.55061(15)
H30 H 0.843812 0.420260 0.540821
C51 C 0.82311(18) 0.47694(18) 0.5812(2)
H31 H 0.818171 0.490521 0.592679
C52 C 0.80629(16) 0.45776(18) 0.5764(2)
H32 H 0.789134 0.458878 0.583096
Zn4 Zn 0.67349(2) 0.49857(2) 0.38706(2)
O13 O 0.68357(10) 0.47793(9) 0.41656(8)
O14 O 0.89886(9) 0.47564(9) 0.64914(10)
O15 O 0.90422(9) 0.46106(9) 0.60850(9)
N15 N 0.81147(11) 0.36358(10) 0.63080(10)
N16 N 0.69766(10) 0.37658(10) 0.51414(11)
O16 O 0.82103(10) 0.28426(10) 0.52552(11)
N17 N 0.72662(10) 0.38115(10) 0.54320(10)
O17 O 0.70120(12) 0.44607(10) 0.39284(10)
N18 N 0.76402(10) 0.35162(10) 0.56158(10)
N19 N 0.70605(10) 0.39256(10) 0.53331(11)
N20 N 0.78112(10) 0.37288(10) 0.60400(10)
N21 N 0.79185(11) 0.38046(11) 0.62597(11)
O18 O 0.78346(12) 0.26998(13) 0.51054(12)
C53 C 0.73108(12) 0.35873(11) 0.53060(12)
C54 C 0.78475(11) 0.33954(12) 0.57170(12)
C55 C 0.79593(12) 0.31771(13) 0.56013(13)
H33 H 0.810903 0.309832 0.567520
C56 C 0.84556(12) 0.39423(13) 0.64634(13)
C57 C 0.81411(13) 0.34552(13) 0.61230(12)
H34 H 0.826646 0.332027 0.610952
C58 C 0.78486(14) 0.30766(13) 0.53765(13)
C59 C 0.71221(13) 0.35541(14) 0.51130(12)
H35 H 0.710285 0.341562 0.499239
C60 C 0.75286(12) 0.34194(12) 0.53920(12)
C61 C 0.76234(13) 0.31947(12) 0.52735(14)
H36 H 0.753805 0.312262 0.512654
C62 C 0.69193(16) 0.45425(14) 0.41388(14)
C63 C 0.85272(14) 0.39940(14) 0.62141(13)
H37 H 0.847095 0.388481 0.607637
C64 C 0.79382(12) 0.35155(12) 0.59554(13)
C65 C 0.87673(14) 0.43682(14) 0.63711(13)
C66 C 0.89434(13) 0.45894(13) 0.63044(14)
C67 C 0.67471(14) 0.38303(14) 0.49881(13)
H38 H 0.661256 0.390326 0.510467
H39 H 0.667646 0.366918 0.491040
C68 C 0.82944(14) 0.36995(13) 0.65242(13)
H40 H 0.841235 0.355066 0.655499
H41 H 0.819280 0.372898 0.668492
C69 C 0.68021(13) 0.40214(14) 0.47760(13)
C70 C 0.68841(14) 0.43658(14) 0.43604(14)
C71 C 0.85314(14) 0.41035(14) 0.66604(13)
H42 H 0.847496 0.406763 0.683248
C72 C 0.86838(13) 0.42088(14) 0.61632(13)
H43 H 0.873426 0.424807 0.598997
C73 C 0.79681(16) 0.28493(16) 0.52363(15)
C74 C 0.86875(15) 0.43169(14) 0.66160(14)
H44 H 0.873834 0.442626 0.675580
C75 C 0.69564(15) 0.39454(14) 0.45607(14)
H45 H 0.703501 0.377840 0.455884
C76 C 0.69939(15) 0.41152(14) 0.43498(15)
H46 H 0.709179 0.406188 0.420260
C77 C 0.6688(2) 0.42689(18) 0.47694(18)
H47 H 0.657321 0.431829 0.490521
C78 C 0.6736(2) 0.44371(16) 0.45776(18)
H48 H 0.666904 0.460866 0.458878
Zn5 Zn 0.86294(2) 0.17349(2) 0.25143(2)
O19 O 0.83344(8) 0.18357(10) 0.27207(9)
O20 O 0.60086(10) 0.39886(9) 0.27436(9)
O21 O 0.64150(9) 0.40422(9) 0.28894(9)
N22 N 0.61920(10) 0.31147(11) 0.38642(10)
N23 N 0.73586(11) 0.19766(10) 0.37342(10)
O22 O 0.72448(11) 0.32103(10) 0.46574(10)
N24 N 0.70680(10) 0.22662(10) 0.36885(10)
O23 O 0.85716(10) 0.20120(12) 0.30393(10)
N25 N 0.68842(10) 0.26402(10) 0.39838(10)
N26 N 0.71669(11) 0.20605(10) 0.35744(10)
N27 N 0.64600(10) 0.28112(10) 0.37712(10)
N28 N 0.62403(11) 0.29185(11) 0.36954(11)
O24 O 0.73946(12) 0.28346(12) 0.48002(13)
C79 C 0.71940(12) 0.23108(12) 0.39127(11)
C80 C 0.67830(12) 0.28475(11) 0.41046(12)
C81 C 0.68987(13) 0.29593(12) 0.43229(13)
H49 H 0.682480 0.310903 0.440168
C82 C 0.60366(13) 0.34556(12) 0.35577(13)
C83 C 0.63770(12) 0.31411(13) 0.40448(13)
H50 H 0.639048 0.326646 0.417973
C84 C 0.71235(13) 0.28486(14) 0.44234(13)
C85 C 0.73870(12) 0.21221(13) 0.39459(14)
H51 H 0.750761 0.210285 0.408438
C86 C 0.71080(12) 0.25286(12) 0.40806(12)
C87 C 0.72265(14) 0.26234(13) 0.43053(12)
H52 H 0.737346 0.253805 0.437738
C88 C 0.83612(14) 0.19193(16) 0.29575(14)
C89 C 0.62859(13) 0.35272(14) 0.35060(14)
H53 H 0.642363 0.347095 0.361519
C90 C 0.65446(13) 0.29382(12) 0.39845(12)
C91 C 0.61289(13) 0.37673(14) 0.31318(14)
C92 C 0.61956(14) 0.39434(13) 0.29106(13)
C93 C 0.75119(13) 0.17471(14) 0.36697(14)
H54 H 0.739533 0.161256 0.359674
H55 H 0.758960 0.167646 0.383082
C94 C 0.59758(13) 0.32944(14) 0.38005(13)
H56 H 0.594501 0.341235 0.394934
H57 H 0.581508 0.319280 0.377102
C95 C 0.77240(13) 0.18021(13) 0.34786(14)
C96 C 0.81396(14) 0.18841(14) 0.31342(14)
C97 C 0.58396(13) 0.35314(14) 0.33965(14)
H58 H 0.566752 0.347496 0.343237
C98 C 0.63368(13) 0.36838(13) 0.32912(14)
H59 H 0.651003 0.373426 0.325193
C99 C 0.72637(15) 0.29681(16) 0.46507(16)
C100 C 0.58840(14) 0.36875(15) 0.31831(14)
H60 H 0.574420 0.373834 0.307374
C101 C 0.79393(14) 0.19564(15) 0.35546(14)
H61 H 0.794116 0.203501 0.372160
C102 C 0.81502(15) 0.19939(15) 0.33848(14)
H62 H 0.829740 0.209179 0.343812
C103 C 0.77306(18) 0.1688(2) 0.32311(18)
H63 H 0.759479 0.157321 0.318171
C104 C 0.79224(18) 0.1736(2) 0.30629(16)
H64 H 0.791122 0.166904 0.289134
Zn6 Zn 0.75143(2) 0.36294(2) 0.17349(2)
O25 O 0.77207(9) 0.33344(8) 0.18357(10)
O26 O 0.77436(9) 0.10086(10) 0.39886(9)
O27 O 0.78894(9) 0.14150(9) 0.40422(9)
N29 N 0.88642(10) 0.11920(10) 0.31147(11)
N30 N 0.87342(10) 0.23586(11) 0.19766(10)
O28 O 0.96574(10) 0.22448(11) 0.32103(10)
N31 N 0.86885(10) 0.20680(10) 0.22662(10)
O29 O 0.80393(10) 0.35716(10) 0.20120(12)
N32 N 0.89838(10) 0.18842(10) 0.26402(10)
N33 N 0.85744(10) 0.21669(11) 0.20605(10)
N34 N 0.87712(10) 0.14600(10) 0.28112(10)
N35 N 0.86954(11) 0.12403(11) 0.29185(11)
O30 O 0.98002(13) 0.23946(12) 0.28346(12)
C105 C 0.89127(11) 0.21940(12) 0.23108(12)
C106 C 0.91046(12) 0.17830(12) 0.28475(11)
C107 C 0.93229(13) 0.18987(13) 0.29593(12)
H65 H 0.940168 0.182480 0.310903
C108 C 0.85577(13) 0.10366(13) 0.34556(12)
C109 C 0.90448(13) 0.13770(12) 0.31411(13)
H66 H 0.917973 0.139048 0.326646
C110 C 0.94234(13) 0.21235(13) 0.28486(14)
C111 C 0.89459(14) 0.23870(12) 0.21221(13)
H67 H 0.908438 0.250761 0.210285
C112 C 0.90806(12) 0.21080(12) 0.25286(12)
C113 C 0.93053(12) 0.22265(14) 0.26234(13)
H68 H 0.937738 0.237346 0.253805
C114 C 0.79575(14) 0.33612(14) 0.19193(16)
C115 C 0.85060(14) 0.12859(13) 0.35272(14)
H69 H 0.861519 0.142363 0.347095
C116 C 0.89845(12) 0.15446(13) 0.29382(12)
C117 C 0.81318(14) 0.11289(13) 0.37673(14)
C118 C 0.79106(13) 0.11956(14) 0.39434(13)
C119 C 0.86697(14) 0.25119(13) 0.17471(14)
H70 H 0.859674 0.239533 0.161256
H71 H 0.883082 0.258960 0.167646
C120 C 0.88005(13) 0.09758(13) 0.32944(14)
H72 H 0.894934 0.094501 0.341235
H73 H 0.877102 0.081508 0.319280
C121 C 0.84786(14) 0.27240(13) 0.18021(13)
C122 C 0.81342(14) 0.31396(14) 0.18841(14)
C123 C 0.83965(14) 0.08396(13) 0.35314(14)
H74 H 0.843237 0.066752 0.347496
C124 C 0.82912(14) 0.13368(13) 0.36838(13)
H75 H 0.825193 0.151003 0.373426
C125 C 0.96507(16) 0.22637(15) 0.29681(16)
C126 C 0.81831(14) 0.08840(14) 0.36875(15)
H76 H 0.807374 0.074420 0.373834
C127 C 0.85546(14) 0.29393(14) 0.19564(15)
H77 H 0.872160 0.294116 0.203501
C128 C 0.83848(14) 0.31502(15) 0.19939(15)
H78 H 0.843812 0.329740 0.209179
C129 C 0.82311(18) 0.27306(18) 0.1688(2)
H79 H 0.818171 0.259479 0.157321
C130 C 0.80629(16) 0.29224(18) 0.1736(2)
H80 H 0.789134 0.291122 0.166904
Zn7 Zn 0.67349(2) 0.25143(2) 0.36294(2)
O31 O 0.68357(10) 0.27207(9) 0.33344(8)
O32 O 0.89886(9) 0.27436(9) 0.10086(10)
O33 O 0.90422(9) 0.28894(9) 0.14150(9)
N36 N 0.81147(11) 0.38642(10) 0.11920(10)
N37 N 0.69766(10) 0.37342(10) 0.23586(11)
O34 O 0.82103(10) 0.46574(10) 0.22448(11)
N38 N 0.72662(10) 0.36885(10) 0.20680(10)
O35 O 0.70120(12) 0.30393(10) 0.35716(10)
N39 N 0.76402(10) 0.39838(10) 0.18842(10)
N40 N 0.70605(10) 0.35744(10) 0.21669(11)
N41 N 0.78112(10) 0.37712(10) 0.14600(10)
N42 N 0.79185(11) 0.36954(11) 0.12403(11)
O36 O 0.78346(12) 0.48002(13) 0.23946(12)
C131 C 0.73108(12) 0.39127(11) 0.21940(12)
C132 C 0.78475(11) 0.41046(12) 0.17830(12)
C133 C 0.79593(12) 0.43229(13) 0.18987(13)
H81 H 0.810903 0.440168 0.182480
C134 C 0.84556(12) 0.35577(13) 0.10366(13)
C135 C 0.81411(13) 0.40448(13) 0.13770(12)
H82 H 0.826646 0.417973 0.139048
C136 C 0.78486(14) 0.44234(13) 0.21235(13)
C137 C 0.71221(13) 0.39459(14) 0.23870(12)
H83 H 0.710285 0.408438 0.250761
C138 C 0.75286(12) 0.40806(12) 0.21080(12)
C139 C 0.76234(13) 0.43053(12) 0.22265(14)
H84 H 0.753805 0.437738 0.237346
C140 C 0.69193(16) 0.29575(14) 0.33612(14)
C141 C 0.85272(14) 0.35060(14) 0.12859(13)
H85 H 0.847095 0.361519 0.142363
C142 C 0.79382(12) 0.39845(12) 0.15446(13)
C143 C 0.87673(14) 0.31318(14) 0.11289(13)
C144 C 0.89434(13) 0.29106(13) 0.11956(14)
C145 C 0.67471(14) 0.36697(14) 0.25119(13)
H86 H 0.661256 0.359674 0.239533
H87 H 0.667646 0.383082 0.258960
C146 C 0.82944(14) 0.38005(13) 0.09758(13)
H88 H 0.841235 0.394934 0.094501
H89 H 0.819280 0.377102 0.081508
C147 C 0.68021(13) 0.34786(14) 0.27240(13)
C148 C 0.68841(14) 0.31342(14) 0.31396(14)
C149 C 0.85314(14) 0.33965(14) 0.08396(13)
H90 H 0.847496 0.343237 0.066752
C150 C 0.86838(13) 0.32912(14) 0.13368(13)
H91 H 0.873426 0.325193 0.151003
C151 C 0.79681(16) 0.46507(16) 0.22637(15)
C152 C 0.86875(15) 0.31831(14) 0.08840(14)
H92 H 0.873834 0.307374 0.074420
C153 C 0.69564(15) 0.35546(14) 0.29393(14)
H93 H 0.703501 0.372160 0.294116
C154 C 0.69939(15) 0.33848(14) 0.31502(15)
H94 H 0.709179 0.343812 0.329740
C155 C 0.6688(2) 0.32311(18) 0.27306(18)
H95 H 0.657321 0.318171 0.259479
C156 C 0.6736(2) 0.30629(16) 0.29224(18)
H96 H 0.666904 0.289134 0.291122
Zn8 Zn 0.61294(2) 0.32651(2) 0.50143(2)
Zn9 Zn 0.61294(2) 0.42349(2) 0.24857(2)
Zn10 Zn 0.92349(2) 0.50143(2) 0.63706(2)
Zn11 Zn 0.92349(2) 0.24857(2) 0.11294(2)
Zn12 Zn 0.74857(2) 0.11294(2) 0.42349(2)
Zn13 Zn 0.74857(2) 0.63706(2) 0.32651(2)
Zn14_2 Zn 1.000000 0.500000 0.500000
Zn15 Zn 0.750000 0.250000 0.500000
Zn16_2 Zn 1.000000 0.250000 0.250000
O37 O 0.64886(9) 0.52436(9) 0.39914(10)
O38 O 0.64886(9) 0.22564(9) 0.35086(10)
O39 O 0.72564(9) 0.35086(10) 0.14886(9)
O40 O 0.72564(9) 0.39914(10) 0.60114(9)
O41 O 0.85086(10) 0.60114(9) 0.52436(9)
O42 O 0.85086(10) 0.14886(9) 0.22564(9)
O43 O 0.76998(13) 0.51054(12) 0.28346(12)
O44 O 0.73002(13) 0.48946(12) 0.21654(12)
O45 O 0.76054(12) 0.53346(12) 0.23002(13)
O46 O 0.71654(12) 0.51998(13) 0.26054(12)
Zn5_2 Zn 0.38706(2) 0.07651(2) 0.25143(2)
O19_2 O 0.41656(8) 0.06643(10) 0.27207(9)
N23_2 N 0.51414(11) 0.05234(10) 0.37342(10)
N24_2 N 0.54320(10) 0.02338(10) 0.36885(10)
O23_2 O 0.39284(10) 0.04880(12) 0.30393(10)
N26_2 N 0.53331(11) 0.04395(10) 0.35744(10)
C79_2 C 0.53060(12) 0.01892(12) 0.39127(11)
C85_2 C 0.51130(12) 0.03779(13) 0.39459(14)
H51_2 H 0.499239 0.039715 0.408438
C88_2 C 0.41388(14) 0.05807(16) 0.29575(14)
C93_2 C 0.49881(13) 0.07529(14) 0.36697(14)
H54_2 H 0.510467 0.088744 0.359674
H55_2 H 0.491040 0.082354 0.383082
C95_2 C 0.47760(13) 0.06979(13) 0.34786(14)
C96_2 C 0.43604(14) 0.06159(14) 0.31342(14)
C101_2 C 0.45607(14) 0.05436(15) 0.35546(14)
H61_2 H 0.455884 0.046499 0.372160
C102_2 C 0.43498(15) 0.05061(15) 0.33848(14)
H62_2 H 0.420260 0.040821 0.343812
C103_2 C 0.47694(18) 0.0812(2) 0.32311(18)
H63_2 H 0.490521 0.092679 0.318171
C104_2 C 0.45776(18) 0.0764(2) 0.30629(16)
H64_2 H 0.458878 0.083096 0.289134
O26_2 O 0.47564(9) 0.14914(10) 0.39886(9)
O27_2 O 0.46106(9) 0.10850(9) 0.40422(9)
N29_2 N 0.36358(10) 0.13080(10) 0.31147(11)
N30_2 N 0.37658(10) 0.01414(11) 0.19766(10)
O28_2 O 0.28426(10) 0.02552(11) 0.32103(10)
N31_2 N 0.38115(10) 0.04320(10) 0.22662(10)
N32_2 N 0.35162(10) 0.06158(10) 0.26402(10)
N33_2 N 0.39256(10) 0.03331(11) 0.20605(10)
N34_2 N 0.37288(10) 0.10400(10) 0.28112(10)
N35_2 N 0.38046(11) 0.12597(11) 0.29185(11)
O30_2 O 0.26998(13) 0.01054(12) 0.28346(12)
C105_2 C 0.35873(11) 0.03060(12) 0.23108(12)
C106_2 C 0.33954(12) 0.07170(12) 0.28475(11)
C107_2 C 0.31771(13) 0.06013(13) 0.29593(12)
H65_2 H 0.309832 0.067520 0.310903
C108_2 C 0.39423(13) 0.14634(13) 0.34556(12)
C109_2 C 0.34552(13) 0.11230(12) 0.31411(13)
H66_2 H 0.332027 0.110952 0.326646
C110_2 C 0.30766(13) 0.03765(13) 0.28486(14)
C111_2 C 0.35541(14) 0.01130(12) 0.21221(13)
C112_2 C 0.34194(12) 0.03920(12) 0.25286(12)
C113_2 C 0.31947(12) 0.02735(14) 0.26234(13)
H68_2 H 0.312262 0.012654 0.253805
C115_2 C 0.39940(14) 0.12141(13) 0.35272(14)
H69_2 H 0.388481 0.107637 0.347095
C116_2 C 0.35155(12) 0.09554(13) 0.29382(12)
C117_2 C 0.43682(14) 0.13711(13) 0.37673(14)
C118_2 C 0.45894(13) 0.13044(14) 0.39434(13)
H70_2 H 0.390326 0.010467 0.161256
C120_2 C 0.36995(13) 0.15242(13) 0.32944(14)
H72_2 H 0.355066 0.155499 0.341235
H73_2 H 0.372898 0.168492 0.319280
C123_2 C 0.41035(14) 0.16604(13) 0.35314(14)
H74_2 H 0.406763 0.183248 0.347496
C124_2 C 0.42088(14) 0.11632(13) 0.36838(13)
H75_2 H 0.424807 0.098997 0.373426
C125_2 C 0.28493(16) 0.02363(15) 0.29681(16)
C126_2 C 0.43169(14) 0.16160(14) 0.36875(15)
H76_2 H 0.442626 0.175580 0.373834
Zn11_2 Zn 0.32651(2) 0.00143(2) 0.11294(2)
Zn12_2 Zn 0.50143(2) 0.13706(2) 0.42349(2)
Zn15_2 Zn 0.500000 0.000000 0.500000
Zn16_3 Zn 0.250000 0.000000 0.250000
O38_2 O 0.60114(9) 0.02436(9) 0.35086(10)
O42_2 O 0.39914(10) 0.10114(9) 0.22564(9)
Zn1_2 Zn 0.38706(2) 0.67349(2) 0.49857(2)
Zn2_2 Zn 0.500000 0.750000 0.250000
O1_2 O 0.41656(8) 0.68357(10) 0.47793(9)
O2_2 O 0.64914(10) 0.89886(9) 0.47564(9)
O3_2 O 0.60850(9) 0.90422(9) 0.46106(9)
N1_2 N 0.63080(10) 0.81147(11) 0.36358(10)
N2_2 N 0.51414(11) 0.69766(10) 0.37658(10)
O4_2 O 0.52552(11) 0.82103(10) 0.28426(10)
N3_2 N 0.54320(10) 0.72662(10) 0.38115(10)
O5_2 O 0.39284(10) 0.70120(12) 0.44607(10)
N4_2 N 0.56158(10) 0.76402(10) 0.35162(10)
N5_2 N 0.53331(11) 0.70605(10) 0.39256(10)
N6_2 N 0.60400(10) 0.78112(10) 0.37288(10)
N7_2 N 0.62597(11) 0.79185(11) 0.38046(11)
O6_2 O 0.51054(12) 0.78346(12) 0.26998(13)
C1_2 C 0.53060(12) 0.73108(12) 0.35873(11)
C2_2 C 0.57170(12) 0.78475(11) 0.33954(12)
C3_2 C 0.56013(13) 0.79593(12) 0.31771(13)
H1_2 H 0.567520 0.810903 0.309832
C4_2 C 0.64634(13) 0.84556(12) 0.39423(13)
C5_2 C 0.61230(12) 0.81411(13) 0.34552(13)
H2_2 H 0.610952 0.826646 0.332027
C6_2 C 0.53765(13) 0.78486(14) 0.30766(13)
C7_2 C 0.51130(12) 0.71221(13) 0.35541(14)
H3_2 H 0.499239 0.710285 0.341562
C8_2 C 0.53920(12) 0.75286(12) 0.34194(12)
C9_2 C 0.52735(14) 0.76234(13) 0.31947(12)
H4_2 H 0.512654 0.753805 0.312262
C10_2 C 0.41388(14) 0.69193(16) 0.45425(14)
C11_2 C 0.62141(13) 0.85272(14) 0.39940(14)
H5_2 H 0.607637 0.847095 0.388481
C12_2 C 0.59554(13) 0.79382(12) 0.35155(12)
C13_2 C 0.63711(13) 0.87673(14) 0.43682(14)
C14_2 C 0.63044(14) 0.89434(13) 0.45894(13)
C15_2 C 0.49881(13) 0.67471(14) 0.38303(14)
H6_2 H 0.510467 0.661256 0.390326
H7_2 H 0.491040 0.667646 0.366918
C16_2 C 0.65242(13) 0.82944(14) 0.36995(13)
H8_2 H 0.655499 0.841235 0.355066
H9_2 H 0.668492 0.819280 0.372898
C17_2 C 0.47760(13) 0.68021(13) 0.40214(14)
C18_2 C 0.43604(14) 0.68841(14) 0.43658(14)
C19_2 C 0.66604(13) 0.85314(14) 0.41035(14)
H10_2 H 0.683248 0.847496 0.406763
C20_2 C 0.61632(13) 0.86838(13) 0.42088(14)
H11_2 H 0.598997 0.873426 0.424807
C21_2 C 0.52363(15) 0.79681(16) 0.28493(16)
C22_2 C 0.66160(14) 0.86875(15) 0.43169(14)
H12_2 H 0.675580 0.873834 0.442626
C23_2 C 0.45607(14) 0.69564(15) 0.39454(14)
H13_2 H 0.455884 0.703501 0.377840
C24_2 C 0.43498(15) 0.69939(15) 0.41152(14)
H14_2 H 0.420260 0.709179 0.406188
C25_2 C 0.47694(18) 0.6688(2) 0.42689(18)
H15_2 H 0.490521 0.657321 0.431829
C26_2 C 0.45776(18) 0.6736(2) 0.44371(16)
H16_2 H 0.458878 0.666904 0.460866
Zn3_2 Zn 0.49857(2) 0.86294(2) 0.57651(2)
O7_2 O 0.47793(9) 0.83344(8) 0.56643(10)
O8_2 O 0.47564(9) 0.60086(10) 0.35114(9)
O9_2 O 0.46106(9) 0.64150(9) 0.34578(9)
N8_2 N 0.36358(10) 0.61920(10) 0.43853(11)
N9_2 N 0.37658(10) 0.73586(11) 0.55234(10)
O10_2 O 0.28426(10) 0.72448(11) 0.42897(10)
N10_2 N 0.38115(10) 0.70680(10) 0.52338(10)
O11_2 O 0.44607(10) 0.85716(10) 0.54880(12)
N11_2 N 0.35162(10) 0.68842(10) 0.48598(10)
N12_2 N 0.39256(10) 0.71669(11) 0.54395(10)
N13_2 N 0.37288(10) 0.64600(10) 0.46888(10)
N14_2 N 0.38046(11) 0.62403(11) 0.45815(11)
O12_2 O 0.26998(13) 0.73946(12) 0.46654(12)
C27_2 C 0.35873(11) 0.71940(12) 0.51892(12)
C28_2 C 0.33954(12) 0.67830(12) 0.46525(11)
C29_2 C 0.31771(13) 0.68987(13) 0.45407(12)
H17_2 H 0.309832 0.682480 0.439097
C30_2 C 0.39423(13) 0.60366(13) 0.40444(12)
C31_2 C 0.34552(13) 0.63770(12) 0.43589(13)
H18_2 H 0.332027 0.639048 0.423354
C32_2 C 0.30766(13) 0.71235(13) 0.46514(14)
C33_2 C 0.35541(14) 0.73870(12) 0.53779(13)
H19_2 H 0.341562 0.750761 0.539715
C34_2 C 0.34194(12) 0.71080(12) 0.49714(12)
C35_2 C 0.31947(12) 0.72265(14) 0.48766(13)
H20_2 H 0.312262 0.737346 0.496195
C36_2 C 0.45425(14) 0.83612(14) 0.55807(16)
C37_2 C 0.39940(14) 0.62859(13) 0.39728(14)
H21_2 H 0.388481 0.642363 0.402905
C38_2 C 0.35155(12) 0.65446(13) 0.45618(12)
C39_2 C 0.43682(14) 0.61289(13) 0.37327(14)
C40_2 C 0.45894(13) 0.61956(14) 0.35566(13)
C41_2 C 0.38303(14) 0.75119(13) 0.57529(14)
H22_2 H 0.390326 0.739533 0.588744
H23_2 H 0.366918 0.758960 0.582354
C42_2 C 0.36995(13) 0.59758(13) 0.42056(14)
H24_2 H 0.355066 0.594501 0.408765
H25_2 H 0.372898 0.581508 0.430720
C43_2 C 0.40214(14) 0.77240(13) 0.56979(13)
C44_2 C 0.43658(14) 0.81396(14) 0.56159(14)
C45_2 C 0.41035(14) 0.58396(13) 0.39686(14)
H26_2 H 0.406763 0.566752 0.402504
C46_2 C 0.42088(14) 0.63368(13) 0.38162(13)
H27_2 H 0.424807 0.651003 0.376574
C47_2 C 0.28493(16) 0.72637(15) 0.45319(16)
C48_2 C 0.43169(14) 0.58840(14) 0.38125(15)
H28_2 H 0.442626 0.574420 0.376166
C49_2 C 0.39454(14) 0.79393(14) 0.55436(15)
H29_2 H 0.377840 0.794116 0.546499
C50_2 C 0.41152(14) 0.81502(15) 0.55061(15)
H30_2 H 0.406188 0.829740 0.540821
C51_2 C 0.42689(18) 0.77306(18) 0.5812(2)
H31_2 H 0.431829 0.759479 0.592679
C52_2 C 0.44371(16) 0.79224(18) 0.5764(2)
H32_2 H 0.460866 0.791122 0.583096
Zn4_2 Zn 0.57651(2) 0.75143(2) 0.38706(2)
O13_2 O 0.56643(10) 0.77207(9) 0.41656(8)
O14_2 O 0.35114(9) 0.77436(9) 0.64914(10)
O15_2 O 0.34578(9) 0.78894(9) 0.60850(9)
N15_2 N 0.43853(11) 0.88642(10) 0.63080(10)
N16_2 N 0.55234(10) 0.87342(10) 0.51414(11)
O16_2 O 0.42897(10) 0.96574(10) 0.52552(11)
N17_2 N 0.52338(10) 0.86885(10) 0.54320(10)
O17_2 O 0.54880(12) 0.80393(10) 0.39284(10)
N18_2 N 0.48598(10) 0.89838(10) 0.56158(10)
N19_2 N 0.54395(10) 0.85744(10) 0.53331(11)
N20_2 N 0.46888(10) 0.87712(10) 0.60400(10)
N21_2 N 0.45815(11) 0.86954(11) 0.62597(11)
O18_2 O 0.46654(12) 0.98002(13) 0.51054(12)
C53_2 C 0.51892(12) 0.89127(11) 0.53060(12)
C54_2 C 0.46525(11) 0.91046(12) 0.57170(12)
C55_2 C 0.45407(12) 0.93229(13) 0.56013(13)
H33_2 H 0.439097 0.940168 0.567520
C56_2 C 0.40444(12) 0.85577(13) 0.64634(13)
C57_2 C 0.43589(13) 0.90448(13) 0.61230(12)
H34_2 H 0.423354 0.917973 0.610952
C58_2 C 0.46514(14) 0.94234(13) 0.53765(13)
C59_2 C 0.53779(13) 0.89459(14) 0.51130(12)
H35_2 H 0.539715 0.908438 0.499239
C60_2 C 0.49714(12) 0.90806(12) 0.53920(12)
C61_2 C 0.48766(13) 0.93053(12) 0.52735(14)
H36_2 H 0.496195 0.937738 0.512654
C62_2 C 0.55807(16) 0.79575(14) 0.41388(14)
C63_2 C 0.39728(14) 0.85060(14) 0.62141(13)
H37_2 H 0.402905 0.861519 0.607637
C64_2 C 0.45618(12) 0.89845(12) 0.59554(13)
C65_2 C 0.37327(14) 0.81318(14) 0.63711(13)
C66_2 C 0.35566(13) 0.79106(13) 0.63044(14)
C67_2 C 0.57529(14) 0.86697(14) 0.49881(13)
H38_2 H 0.588744 0.859674 0.510467
H39_2 H 0.582354 0.883082 0.491040
C68_2 C 0.42056(14) 0.88005(13) 0.65242(13)
H40_2 H 0.408765 0.894934 0.655499
H41_2 H 0.430720 0.877102 0.668492
C69_2 C 0.56979(13) 0.84786(14) 0.47760(13)
C70_2 C 0.56159(14) 0.81342(14) 0.43604(14)
C71_2 C 0.39686(14) 0.83965(14) 0.66604(13)
H42_2 H 0.402504 0.843237 0.683248
C72_2 C 0.38162(13) 0.82912(14) 0.61632(13)
H43_2 H 0.376574 0.825193 0.598997
C73_2 C 0.45319(16) 0.96507(16) 0.52363(15)
C74_2 C 0.38125(15) 0.81831(14) 0.66160(14)
H44_2 H 0.376166 0.807374 0.675580
C75_2 C 0.55436(15) 0.85546(14) 0.45607(14)
H45_2 H 0.546499 0.872160 0.455884
C76_2 C 0.55061(15) 0.83848(14) 0.43498(15)
H46_2 H 0.540821 0.843812 0.420260
C77_2 C 0.5812(2) 0.82311(18) 0.47694(18)
H47_2 H 0.592679 0.818171 0.490521
C78_2 C 0.5764(2) 0.80629(16) 0.45776(18)
H48_2 H 0.583096 0.789134 0.458878
O20_2 O 0.64914(10) 0.85114(9) 0.27436(9)
O21_2 O 0.60850(9) 0.84578(9) 0.28894(9)
N22_2 N 0.63080(10) 0.93853(11) 0.38642(10)
O22_2 O 0.52552(11) 0.92897(10) 0.46574(10)
N25_2 N 0.56158(10) 0.98598(10) 0.39838(10)
N27_2 N 0.60400(10) 0.96888(10) 0.37712(10)
N28_2 N 0.62597(11) 0.95815(11) 0.36954(11)
O24_2 O 0.51054(12) 0.96654(12) 0.48002(13)
C80_2 C 0.57170(12) 0.96525(11) 0.41046(12)
C81_2 C 0.56013(13) 0.95407(12) 0.43229(13)
H49_2 H 0.567520 0.939097 0.440168
C82_2 C 0.64634(13) 0.90444(12) 0.35577(13)
C83_2 C 0.61230(12) 0.93589(13) 0.40448(13)
H50_2 H 0.610952 0.923354 0.417973
C84_2 C 0.53765(13) 0.96514(14) 0.44234(13)
C86_2 C 0.53920(12) 0.99714(12) 0.40806(12)
C87_2 C 0.52735(14) 0.98766(13) 0.43053(12)
H52_2 H 0.512654 0.996195 0.437738
C89_2 C 0.62141(13) 0.89728(14) 0.35060(14)
H53_2 H 0.607637 0.902905 0.361519
C90_2 C 0.59554(13) 0.95618(12) 0.39845(12)
C91_2 C 0.63711(13) 0.87327(14) 0.31318(14)
C92_2 C 0.63044(14) 0.85566(13) 0.29106(13)
C94_2 C 0.65242(13) 0.92056(14) 0.38005(13)
H56_2 H 0.655499 0.908765 0.394934
H57_2 H 0.668492 0.930720 0.377102
C97_2 C 0.66604(13) 0.89686(14) 0.33965(14)
H58_2 H 0.683248 0.902504 0.343237
C98_2 C 0.61632(13) 0.88162(13) 0.32912(14)
H59_2 H 0.598997 0.876574 0.325193
C99_2 C 0.52363(15) 0.95319(16) 0.46507(16)
C100_2 C 0.66160(14) 0.88125(15) 0.31831(14)
H60_2 H 0.675580 0.876166 0.307374
Zn6_2 Zn 0.49857(2) 0.88706(2) 0.17349(2)
O25_2 O 0.47793(9) 0.91656(8) 0.18357(10)
O29_2 O 0.44607(10) 0.89284(10) 0.20120(12)
H67_2 H 0.341562 0.999239 0.210285
C114_2 C 0.45425(14) 0.91388(14) 0.19193(16)
C119_2 C 0.38303(14) 0.99881(13) 0.17471(14)
H71_2 H 0.366918 0.991040 0.167646
C121_2 C 0.40214(14) 0.97760(13) 0.18021(13)
C122_2 C 0.43658(14) 0.93604(14) 0.18841(14)
C127_2 C 0.39454(14) 0.95607(14) 0.19564(15)
H77_2 H 0.377840 0.955884 0.203501
C128_2 C 0.41152(14) 0.93498(15) 0.19939(15)
H78_2 H 0.406188 0.920260 0.209179
C129_2 C 0.42689(18) 0.97694(18) 0.1688(2)
H79_2 H 0.431829 0.990521 0.157321
C130_2 C 0.44371(16) 0.95776(18) 0.1736(2)
H80_2 H 0.460866 0.958878 0.166904
Zn7_2 Zn 0.57651(2) 0.99857(2) 0.36294(2)
O31_2 O 0.56643(10) 0.97793(9) 0.33344(8)
O32_2 O 0.35114(9) 0.97564(9) 0.10086(10)
O33_2 O 0.34578(9) 0.96106(9) 0.14150(9)
N36_2 N 0.43853(11) 0.86358(10) 0.11920(10)
N37_2 N 0.55234(10) 0.87658(10) 0.23586(11)
O34_2 O 0.42897(10) 0.78426(10) 0.22448(11)
N38_2 N 0.52338(10) 0.88115(10) 0.20680(10)
O35_2 O 0.54880(12) 0.94607(10) 0.35716(10)
N39_2 N 0.48598(10) 0.85162(10) 0.18842(10)
N40_2 N 0.54395(10) 0.89256(10) 0.21669(11)
N41_2 N 0.46888(10) 0.87288(10) 0.14600(10)
N42_2 N 0.45815(11) 0.88046(11) 0.12403(11)
O36_2 O 0.46654(12) 0.76998(13) 0.23946(12)
C131_2 C 0.51892(12) 0.85873(11) 0.21940(12)
C132_2 C 0.46525(11) 0.83954(12) 0.17830(12)
C133_2 C 0.45407(12) 0.81771(13) 0.18987(13)
H81_2 H 0.439097 0.809832 0.182480
C134_2 C 0.40444(12) 0.89423(13) 0.10366(13)
C135_2 C 0.43589(13) 0.84552(13) 0.13770(12)
H82_2 H 0.423354 0.832027 0.139048
C136_2 C 0.46514(14) 0.80766(13) 0.21235(13)
C137_2 C 0.53779(13) 0.85541(14) 0.23870(12)
H83_2 H 0.539715 0.841562 0.250761
C138_2 C 0.49714(12) 0.84194(12) 0.21080(12)
C139_2 C 0.48766(13) 0.81947(12) 0.22265(14)
H84_2 H 0.496195 0.812262 0.237346
C140_2 C 0.55807(16) 0.95425(14) 0.33612(14)
C141_2 C 0.39728(14) 0.89940(14) 0.12859(13)
H85_2 H 0.402905 0.888481 0.142363
C142_2 C 0.45618(12) 0.85155(12) 0.15446(13)
C143_2 C 0.37327(14) 0.93682(14) 0.11289(13)
C144_2 C 0.35566(13) 0.95894(13) 0.11956(14)
C145_2 C 0.57529(14) 0.88303(14) 0.25119(13)
H86_2 H 0.588744 0.890326 0.239533
H87_2 H 0.582354 0.866918 0.258960
C146_2 C 0.42056(14) 0.86995(13) 0.09758(13)
H88_2 H 0.408765 0.855066 0.094501
H89_2 H 0.430720 0.872898 0.081508
C147_2 C 0.56979(13) 0.90214(14) 0.27240(13)
C148_2 C 0.56159(14) 0.93658(14) 0.31396(14)
C149_2 C 0.39686(14) 0.91035(14) 0.08396(13)
H90_2 H 0.402504 0.906763 0.066752
C150_2 C 0.38162(13) 0.92088(14) 0.13368(13)
H91_2 H 0.376574 0.924807 0.151003
C151_2 C 0.45319(16) 0.78493(16) 0.22637(15)
C152_2 C 0.38125(15) 0.93169(14) 0.08840(14)
H92_2 H 0.376166 0.942626 0.074420
C153_2 C 0.55436(15) 0.89454(14) 0.29393(14)
H93_2 H 0.546499 0.877840 0.294116
C154_2 C 0.55061(15) 0.91152(14) 0.31502(15)
H94_2 H 0.540821 0.906188 0.329740
C155_2 C 0.5812(2) 0.92689(18) 0.27306(18)
H95_2 H 0.592679 0.931829 0.259479
C156_2 C 0.5764(2) 0.94371(16) 0.29224(18)
H96_2 H 0.583096 0.960866 0.291122
Zn8_2 Zn 0.63706(2) 0.92349(2) 0.50143(2)
Zn9_2 Zn 0.63706(2) 0.82651(2) 0.24857(2)
Zn10_2 Zn 0.32651(2) 0.74857(2) 0.63706(2)
Zn13_2 Zn 0.50143(2) 0.61294(2) 0.32651(2)
Zn14_3 Zn 0.250000 0.750000 0.500000
Zn15_3 Zn 0.500000 1.000000 0.500000
Zn16_4 Zn 0.250000 1.000000 0.250000
O37_2 O 0.60114(9) 0.72564(9) 0.39914(10)
O39_2 O 0.52436(9) 0.89914(10) 0.14886(9)
O40_2 O 0.52436(9) 0.85086(10) 0.60114(9)
O41_2 O 0.39914(10) 0.64886(9) 0.52436(9)
O43_2 O 0.48002(13) 0.73946(12) 0.28346(12)
O44_2 O 0.51998(13) 0.76054(12) 0.21654(12)
O45_2 O 0.48946(12) 0.71654(12) 0.23002(13)
O46_2 O 0.53346(12) 0.73002(13) 0.26054(12)
Zn2_3 Zn 0.500000 0.500000 0.000000
Zn6_3 Zn 0.49857(2) 0.36294(2) 0.07651(2)
O25_3 O 0.47793(9) 0.33344(8) 0.06643(10)
N30_3 N 0.37658(10) 0.23586(11) 0.05234(10)
N31_3 N 0.38115(10) 0.20680(10) 0.02338(10)
O29_3 O 0.44607(10) 0.35716(10) 0.04880(12)
N33_3 N 0.39256(10) 0.21669(11) 0.04395(10)
C105_3 C 0.35873(11) 0.21940(12) 0.01892(12)
C111_3 C 0.35541(14) 0.23870(12) 0.03779(13)
H67_3 H 0.341562 0.250761 0.039715
C114_3 C 0.45425(14) 0.33612(14) 0.05807(16)
C119_3 C 0.38303(14) 0.25119(13) 0.07529(14)
H70_3 H 0.390326 0.239533 0.088744
H71_3 H 0.366918 0.258960 0.082354
C121_3 C 0.40214(14) 0.27240(13) 0.06979(13)
C122_3 C 0.43658(14) 0.31396(14) 0.06159(14)
C127_3 C 0.39454(14) 0.29393(14) 0.05436(15)
H77_3 H 0.377840 0.294116 0.046499
C128_3 C 0.41152(14) 0.31502(15) 0.05061(15)
H78_3 H 0.406188 0.329740 0.040821
C129_3 C 0.42689(18) 0.27306(18) 0.0812(2)
H79_3 H 0.431829 0.259479 0.092679
C130_3 C 0.44371(16) 0.29224(18) 0.0764(2)
H80_3 H 0.460866 0.291122 0.083096
O32_3 O 0.35114(9) 0.27436(9) 0.14914(10)
O33_3 O 0.34578(9) 0.28894(9) 0.10850(9)
N36_3 N 0.43853(11) 0.38642(10) 0.13080(10)
N37_3 N 0.55234(10) 0.37342(10) 0.01414(11)
O34_3 O 0.42897(10) 0.46574(10) 0.02552(11)
N38_3 N 0.52338(10) 0.36885(10) 0.04320(10)
N39_3 N 0.48598(10) 0.39838(10) 0.06158(10)
N40_3 N 0.54395(10) 0.35744(10) 0.03331(11)
N41_3 N 0.46888(10) 0.37712(10) 0.10400(10)
N42_3 N 0.45815(11) 0.36954(11) 0.12597(11)
O36_3 O 0.46654(12) 0.48002(13) 0.01054(12)
C131_3 C 0.51892(12) 0.39127(11) 0.03060(12)
C132_3 C 0.46525(11) 0.41046(12) 0.07170(12)
C133_3 C 0.45407(12) 0.43229(13) 0.06013(13)
H81_3 H 0.439097 0.440168 0.067520
C134_3 C 0.40444(12) 0.35577(13) 0.14634(13)
C135_3 C 0.43589(13) 0.40448(13) 0.11230(12)
H82_3 H 0.423354 0.417973 0.110952
C136_3 C 0.46514(14) 0.44234(13) 0.03765(13)
C137_3 C 0.53779(13) 0.39459(14) 0.01130(12)
C138_3 C 0.49714(12) 0.40806(12) 0.03920(12)
C139_3 C 0.48766(13) 0.43053(12) 0.02735(14)
H84_3 H 0.496195 0.437738 0.012654
C141_3 C 0.39728(14) 0.35060(14) 0.12141(13)
H85_3 H 0.402905 0.361519 0.107637
C142_3 C 0.45618(12) 0.39845(12) 0.09554(13)
C143_3 C 0.37327(14) 0.31318(14) 0.13711(13)
C144_3 C 0.35566(13) 0.29106(13) 0.13044(14)
H86_3 H 0.588744 0.359674 0.010467
C146_3 C 0.42056(14) 0.38005(13) 0.15242(13)
H88_3 H 0.408765 0.394934 0.155499
H89_3 H 0.430720 0.377102 0.168492
C149_3 C 0.39686(14) 0.33965(14) 0.16604(13)
H90_3 H 0.402504 0.343237 0.183248
C150_3 C 0.38162(13) 0.32912(14) 0.11632(13)
H91_3 H 0.376574 0.325193 0.098997
C151_3 C 0.45319(16) 0.46507(16) 0.02363(15)
C152_3 C 0.38125(15) 0.31831(14) 0.16160(14)
H92_3 H 0.376166 0.307374 0.175580
Zn9_3 Zn 0.63706(2) 0.42349(2) 0.00143(2)
Zn11_3 Zn 0.32651(2) 0.24857(2) 0.13706(2)
Zn16_5 Zn 0.250000 0.250000 0.000000
O39_3 O 0.52436(9) 0.35086(10) 0.10114(9)
O42_3 O 0.39914(10) 0.14886(9) 0.02436(9)
O44_3 O 0.51998(13) 0.48946(12) 0.03346(12)
O45_3 O 0.48946(12) 0.53346(12) 0.01998(13)
Zn1_3 Zn 0.38706(2) 0.57651(2) 0.75143(2)
Zn2_4 Zn 0.500000 0.500000 1.000000
O1_3 O 0.41656(8) 0.56643(10) 0.77207(9)
O2_3 O 0.64914(10) 0.35114(9) 0.77436(9)
O3_3 O 0.60850(9) 0.34578(9) 0.78894(9)
N1_3 N 0.63080(10) 0.43853(11) 0.88642(10)
N2_3 N 0.51414(11) 0.55234(10) 0.87342(10)
O4_3 O 0.52552(11) 0.42897(10) 0.96574(10)
N3_3 N 0.54320(10) 0.52338(10) 0.86885(10)
O5_3 O 0.39284(10) 0.54880(12) 0.80393(10)
N4_3 N 0.56158(10) 0.48598(10) 0.89838(10)
N5_3 N 0.53331(11) 0.54395(10) 0.85744(10)
N6_3 N 0.60400(10) 0.46888(10) 0.87712(10)
N7_3 N 0.62597(11) 0.45815(11) 0.86954(11)
O6_3 O 0.51054(12) 0.46654(12) 0.98002(13)
C1_3 C 0.53060(12) 0.51892(12) 0.89127(11)
C2_3 C 0.57170(12) 0.46525(11) 0.91046(12)
C3_3 C 0.56013(13) 0.45407(12) 0.93229(13)
H1_3 H 0.567520 0.439097 0.940168
C4_3 C 0.64634(13) 0.40444(12) 0.85577(13)
C5_3 C 0.61230(12) 0.43589(13) 0.90448(13)
H2_3 H 0.610952 0.423354 0.917973
C6_3 C 0.53765(13) 0.46514(14) 0.94234(13)
C7_3 C 0.51130(12) 0.53779(13) 0.89459(14)
H3_3 H 0.499239 0.539715 0.908438
C8_3 C 0.53920(12) 0.49714(12) 0.90806(12)
C9_3 C 0.52735(14) 0.48766(13) 0.93053(12)
H4_3 H 0.512654 0.496195 0.937738
C10_3 C 0.41388(14) 0.55807(16) 0.79575(14)
C11_3 C 0.62141(13) 0.39728(14) 0.85060(14)
H5_3 H 0.607637 0.402905 0.861519
C12_3 C 0.59554(13) 0.45618(12) 0.89845(12)
C13_3 C 0.63711(13) 0.37327(14) 0.81318(14)
C14_3 C 0.63044(14) 0.35566(13) 0.79106(13)
C15_3 C 0.49881(13) 0.57529(14) 0.86697(14)
H6_3 H 0.510467 0.588744 0.859674
H7_3 H 0.491040 0.582354 0.883082
C16_3 C 0.65242(13) 0.42056(14) 0.88005(13)
H8_3 H 0.655499 0.408765 0.894934
H9_3 H 0.668492 0.430720 0.877102
C17_3 C 0.47760(13) 0.56979(13) 0.84786(14)
C18_3 C 0.43604(14) 0.56159(14) 0.81342(14)
C19_3 C 0.66604(13) 0.39686(14) 0.83965(14)
H10_3 H 0.683248 0.402504 0.843237
C20_3 C 0.61632(13) 0.38162(13) 0.82912(14)
H11_3 H 0.598997 0.376574 0.825193
C21_3 C 0.52363(15) 0.45319(16) 0.96507(16)
C22_3 C 0.66160(14) 0.38125(15) 0.81831(14)
H12_3 H 0.675580 0.376166 0.807374
C23_3 C 0.45607(14) 0.55436(15) 0.85546(14)
H13_3 H 0.455884 0.546499 0.872160
C24_3 C 0.43498(15) 0.55061(15) 0.83848(14)
H14_3 H 0.420260 0.540821 0.843812
C25_3 C 0.47694(18) 0.5812(2) 0.82311(18)
H15_3 H 0.490521 0.592679 0.818171
C26_3 C 0.45776(18) 0.5764(2) 0.80629(16)
H16_3 H 0.458878 0.583096 0.789134
Zn3_3 Zn 0.49857(2) 0.38706(2) 0.67349(2)
O7_3 O 0.47793(9) 0.41656(8) 0.68357(10)
O8_3 O 0.47564(9) 0.64914(10) 0.89886(9)
O9_3 O 0.46106(9) 0.60850(9) 0.90422(9)
N8_3 N 0.36358(10) 0.63080(10) 0.81147(11)
N9_3 N 0.37658(10) 0.51414(11) 0.69766(10)
O10_3 O 0.28426(10) 0.52552(11) 0.82103(10)
N10_3 N 0.38115(10) 0.54320(10) 0.72662(10)
O11_3 O 0.44607(10) 0.39284(10) 0.70120(12)
N11_3 N 0.35162(10) 0.56158(10) 0.76402(10)
N12_3 N 0.39256(10) 0.53331(11) 0.70605(10)
N13_3 N 0.37288(10) 0.60400(10) 0.78112(10)
N14_3 N 0.38046(11) 0.62597(11) 0.79185(11)
O12_3 O 0.26998(13) 0.51054(12) 0.78346(12)
C27_3 C 0.35873(11) 0.53060(12) 0.73108(12)
C28_3 C 0.33954(12) 0.57170(12) 0.78475(11)
C29_3 C 0.31771(13) 0.56013(13) 0.79593(12)
H17_3 H 0.309832 0.567520 0.810903
C30_3 C 0.39423(13) 0.64634(13) 0.84556(12)
C31_3 C 0.34552(13) 0.61230(12) 0.81411(13)
H18_3 H 0.332027 0.610952 0.826646
C32_3 C 0.30766(13) 0.53765(13) 0.78486(14)
C33_3 C 0.35541(14) 0.51130(12) 0.71221(13)
H19_3 H 0.341562 0.499239 0.710285
C34_3 C 0.34194(12) 0.53920(12) 0.75286(12)
C35_3 C 0.31947(12) 0.52735(14) 0.76234(13)
H20_3 H 0.312262 0.512654 0.753805
C36_3 C 0.45425(14) 0.41388(14) 0.69193(16)
C37_3 C 0.39940(14) 0.62141(13) 0.85272(14)
H21_3 H 0.388481 0.607637 0.847095
C38_3 C 0.35155(12) 0.59554(13) 0.79382(12)
C39_3 C 0.43682(14) 0.63711(13) 0.87673(14)
C40_3 C 0.45894(13) 0.63044(14) 0.89434(13)
C41_3 C 0.38303(14) 0.49881(13) 0.67471(14)
H22_3 H 0.390326 0.510467 0.661256
H23_3 H 0.366918 0.491040 0.667646
C42_3 C 0.36995(13) 0.65242(13) 0.82944(14)
H24_3 H 0.355066 0.655499 0.841235
H25_3 H 0.372898 0.668492 0.819280
C43_3 C 0.40214(14) 0.47760(13) 0.68021(13)
C44_3 C 0.43658(14) 0.43604(14) 0.68841(14)
C45_3 C 0.41035(14) 0.66604(13) 0.85314(14)
H26_3 H 0.406763 0.683248 0.847496
C46_3 C 0.42088(14) 0.61632(13) 0.86838(13)
H27_3 H 0.424807 0.598997 0.873426
C47_3 C 0.28493(16) 0.52363(15) 0.79681(16)
C48_3 C 0.43169(14) 0.66160(14) 0.86875(15)
H28_3 H 0.442626 0.675580 0.873834
C49_3 C 0.39454(14) 0.45607(14) 0.69564(15)
H29_3 H 0.377840 0.455884 0.703501
C50_3 C 0.41152(14) 0.43498(15) 0.69939(15)
H30_3 H 0.406188 0.420260 0.709179
C51_3 C 0.42689(18) 0.47694(18) 0.6688(2)
H31_3 H 0.431829 0.490521 0.657321
C52_3 C 0.44371(16) 0.45776(18) 0.6736(2)
H32_3 H 0.460866 0.458878 0.666904
Zn4_3 Zn 0.57651(2) 0.49857(2) 0.86294(2)
O13_3 O 0.56643(10) 0.47793(9) 0.83344(8)
O14_3 O 0.35114(9) 0.47564(9) 0.60086(10)
O15_3 O 0.34578(9) 0.46106(9) 0.64150(9)
N15_3 N 0.43853(11) 0.36358(10) 0.61920(10)
N16_3 N 0.55234(10) 0.37658(10) 0.73586(11)
O16_3 O 0.42897(10) 0.28426(10) 0.72448(11)
N17_3 N 0.52338(10) 0.38115(10) 0.70680(10)
O17_3 O 0.54880(12) 0.44607(10) 0.85716(10)
N18_3 N 0.48598(10) 0.35162(10) 0.68842(10)
N19_3 N 0.54395(10) 0.39256(10) 0.71669(11)
N20_3 N 0.46888(10) 0.37288(10) 0.64600(10)
N21_3 N 0.45815(11) 0.38046(11) 0.62403(11)
O18_3 O 0.46654(12) 0.26998(13) 0.73946(12)
C53_3 C 0.51892(12) 0.35873(11) 0.71940(12)
C54_3 C 0.46525(11) 0.33954(12) 0.67830(12)
C55_3 C 0.45407(12) 0.31771(13) 0.68987(13)
H33_3 H 0.439097 0.309832 0.682480
C56_3 C 0.40444(12) 0.39423(13) 0.60366(13)
C57_3 C 0.43589(13) 0.34552(13) 0.63770(12)
H34_3 H 0.423354 0.332027 0.639048
C58_3 C 0.46514(14) 0.30766(13) 0.71235(13)
C59_3 C 0.53779(13) 0.35541(14) 0.73870(12)
H35_3 H 0.539715 0.341562 0.750761
C60_3 C 0.49714(12) 0.34194(12) 0.71080(12)
C61_3 C 0.48766(13) 0.31947(12) 0.72265(14)
H36_3 H 0.496195 0.312262 0.737346
C62_3 C 0.55807(16) 0.45425(14) 0.83612(14)
C63_3 C 0.39728(14) 0.39940(14) 0.62859(13)
H37_3 H 0.402905 0.388481 0.642363
C64_3 C 0.45618(12) 0.35155(12) 0.65446(13)
C65_3 C 0.37327(14) 0.43682(14) 0.61289(13)
C66_3 C 0.35566(13) 0.45894(13) 0.61956(14)
C67_3 C 0.57529(14) 0.38303(14) 0.75119(13)
H38_3 H 0.588744 0.390326 0.739533
H39_3 H 0.582354 0.366918 0.758960
C68_3 C 0.42056(14) 0.36995(13) 0.59758(13)
H40_3 H 0.408765 0.355066 0.594501
H41_3 H 0.430720 0.372898 0.581508
C69_3 C 0.56979(13) 0.40214(14) 0.77240(13)
C70_3 C 0.56159(14) 0.43658(14) 0.81396(14)
C71_3 C 0.39686(14) 0.41035(14) 0.58396(13)
H42_3 H 0.402504 0.406763 0.566752
C72_3 C 0.38162(13) 0.42088(14) 0.63368(13)
H43_3 H 0.376574 0.424807 0.651003
C73_3 C 0.45319(16) 0.28493(16) 0.72637(15)
C74_3 C 0.38125(15) 0.43169(14) 0.58840(14)
H44_3 H 0.376166 0.442626 0.574420
C75_3 C 0.55436(15) 0.39454(14) 0.79393(14)
H45_3 H 0.546499 0.377840 0.794116
C76_3 C 0.55061(15) 0.41152(14) 0.81502(15)
H46_3 H 0.540821 0.406188 0.829740
C77_3 C 0.5812(2) 0.42689(18) 0.77306(18)
H47_3 H 0.592679 0.431829 0.759479
C78_3 C 0.5764(2) 0.44371(16) 0.79224(18)
H48_3 H 0.583096 0.460866 0.791122
Zn5_3 Zn 0.38706(2) 0.17349(2) 0.99857(2)
O19_3 O 0.41656(8) 0.18357(10) 0.97793(9)
O20_3 O 0.64914(10) 0.39886(9) 0.97564(9)
O21_3 O 0.60850(9) 0.40422(9) 0.96106(9)
N22_3 N 0.63080(10) 0.31147(11) 0.86358(10)
N23_3 N 0.51414(11) 0.19766(10) 0.87658(10)
O22_3 O 0.52552(11) 0.32103(10) 0.78426(10)
N24_3 N 0.54320(10) 0.22662(10) 0.88115(10)
O23_3 O 0.39284(10) 0.20120(12) 0.94607(10)
N25_3 N 0.56158(10) 0.26402(10) 0.85162(10)
N26_3 N 0.53331(11) 0.20605(10) 0.89256(10)
N27_3 N 0.60400(10) 0.28112(10) 0.87288(10)
N28_3 N 0.62597(11) 0.29185(11) 0.88046(11)
O24_3 O 0.51054(12) 0.28346(12) 0.76998(13)
C79_3 C 0.53060(12) 0.23108(12) 0.85873(11)
C80_3 C 0.57170(12) 0.28475(11) 0.83954(12)
C81_3 C 0.56013(13) 0.29593(12) 0.81771(13)
H49_3 H 0.567520 0.310903 0.809832
C82_3 C 0.64634(13) 0.34556(12) 0.89423(13)
C83_3 C 0.61230(12) 0.31411(13) 0.84552(13)
H50_3 H 0.610952 0.326646 0.832027
C84_3 C 0.53765(13) 0.28486(14) 0.80766(13)
C85_3 C 0.51130(12) 0.21221(13) 0.85541(14)
H51_3 H 0.499239 0.210285 0.841562
C86_3 C 0.53920(12) 0.25286(12) 0.84194(12)
C87_3 C 0.52735(14) 0.26234(13) 0.81947(12)
H52_3 H 0.512654 0.253805 0.812262
C88_3 C 0.41388(14) 0.19193(16) 0.95425(14)
C89_3 C 0.62141(13) 0.35272(14) 0.89940(14)
H53_3 H 0.607637 0.347095 0.888481
C90_3 C 0.59554(13) 0.29382(12) 0.85155(12)
C91_3 C 0.63711(13) 0.37673(14) 0.93682(14)
C92_3 C 0.63044(14) 0.39434(13) 0.95894(13)
C93_3 C 0.49881(13) 0.17471(14) 0.88303(14)
H54_3 H 0.510467 0.161256 0.890326
H55_3 H 0.491040 0.167646 0.866918
C94_3 C 0.65242(13) 0.32944(14) 0.86995(13)
H56_3 H 0.655499 0.341235 0.855066
H57_3 H 0.668492 0.319280 0.872898
C95_3 C 0.47760(13) 0.18021(13) 0.90214(14)
C96_3 C 0.43604(14) 0.18841(14) 0.93658(14)
C97_3 C 0.66604(13) 0.35314(14) 0.91035(14)
H58_3 H 0.683248 0.347496 0.906763
C98_3 C 0.61632(13) 0.36838(13) 0.92088(14)
H59_3 H 0.598997 0.373426 0.924807
C99_3 C 0.52363(15) 0.29681(16) 0.78493(16)
C100_3 C 0.66160(14) 0.36875(15) 0.93169(14)
H60_3 H 0.675580 0.373834 0.942626
C101_3 C 0.45607(14) 0.19564(15) 0.89454(14)
H61_3 H 0.455884 0.203501 0.877840
C102_3 C 0.43498(15) 0.19939(15) 0.91152(14)
H62_3 H 0.420260 0.209179 0.906188
C103_3 C 0.47694(18) 0.1688(2) 0.92689(18)
H63_3 H 0.490521 0.157321 0.931829
C104_3 C 0.45776(18) 0.1736(2) 0.94371(16)
H64_3 H 0.458878 0.166904 0.960866
O26_3 O 0.47564(9) 0.10086(10) 0.85114(9)
O27_3 O 0.46106(9) 0.14150(9) 0.84578(9)
N29_3 N 0.36358(10) 0.11920(10) 0.93853(11)
O28_3 O 0.28426(10) 0.22448(11) 0.92897(10)
N32_3 N 0.35162(10) 0.18842(10) 0.98598(10)
N34_3 N 0.37288(10) 0.14600(10) 0.96888(10)
N35_3 N 0.38046(11) 0.12403(11) 0.95815(11)
O30_3 O 0.26998(13) 0.23946(12) 0.96654(12)
C106_3 C 0.33954(12) 0.17830(12) 0.96525(11)
C107_3 C 0.31771(13) 0.18987(13) 0.95407(12)
H65_3 H 0.309832 0.182480 0.939097
C108_3 C 0.39423(13) 0.10366(13) 0.90444(12)
C109_3 C 0.34552(13) 0.13770(12) 0.93589(13)
H66_3 H 0.332027 0.139048 0.923354
C110_3 C 0.30766(13) 0.21235(13) 0.96514(14)
C112_3 C 0.34194(12) 0.21080(12) 0.99714(12)
C113_3 C 0.31947(12) 0.22265(14) 0.98766(13)
H68_3 H 0.312262 0.237346 0.996195
C115_3 C 0.39940(14) 0.12859(13) 0.89728(14)
H69_3 H 0.388481 0.142363 0.902905
C116_3 C 0.35155(12) 0.15446(13) 0.95618(12)
C117_3 C 0.43682(14) 0.11289(13) 0.87327(14)
C118_3 C 0.45894(13) 0.11956(14) 0.85566(13)
C120_3 C 0.36995(13) 0.09758(13) 0.92056(14)
H72_3 H 0.355066 0.094501 0.908765
H73_3 H 0.372898 0.081508 0.930720
C123_3 C 0.41035(14) 0.08396(13) 0.89686(14)
H74_3 H 0.406763 0.066752 0.902504
C124_3 C 0.42088(14) 0.13368(13) 0.88162(13)
H75_3 H 0.424807 0.151003 0.876574
C125_3 C 0.28493(16) 0.22637(15) 0.95319(16)
C126_3 C 0.43169(14) 0.08840(14) 0.88125(15)
H76_3 H 0.442626 0.074420 0.876166
Zn7_3 Zn 0.57651(2) 0.25143(2) 0.88706(2)
O31_3 O 0.56643(10) 0.27207(9) 0.91656(8)
O35_3 O 0.54880(12) 0.30393(10) 0.89284(10)
H83_3 H 0.539715 0.408438 0.999239
C140_3 C 0.55807(16) 0.29575(14) 0.91388(14)
C145_3 C 0.57529(14) 0.36697(14) 0.99881(13)
H87_3 H 0.582354 0.383082 0.991040
C147_3 C 0.56979(13) 0.34786(14) 0.97760(13)
C148_3 C 0.56159(14) 0.31342(14) 0.93604(14)
C153_3 C 0.55436(15) 0.35546(14) 0.95607(14)
H93_3 H 0.546499 0.372160 0.955884
C154_3 C 0.55061(15) 0.33848(14) 0.93498(15)
H94_3 H 0.540821 0.343812 0.920260
C155_3 C 0.5812(2) 0.32311(18) 0.97694(18)
H95_3 H 0.592679 0.318171 0.990521
C156_3 C 0.5764(2) 0.30629(16) 0.95776(18)
H96_3 H 0.583096 0.289134 0.958878
Zn8_3 Zn 0.63706(2) 0.32651(2) 0.74857(2)
Zn10_3 Zn 0.32651(2) 0.50143(2) 0.61294(2)
Zn12_3 Zn 0.50143(2) 0.11294(2) 0.82651(2)
Zn13_3 Zn 0.50143(2) 0.63706(2) 0.92349(2)
Zn14_4 Zn 0.250000 0.500000 0.750000
Zn15_4 Zn 0.500000 0.250000 0.750000
Zn16_6 Zn 0.250000 0.250000 1.000000
O37_3 O 0.60114(9) 0.52436(9) 0.85086(10)
O38_3 O 0.60114(9) 0.22564(9) 0.89914(10)
O40_3 O 0.52436(9) 0.39914(10) 0.64886(9)
O41_3 O 0.39914(10) 0.60114(9) 0.72564(9)
O43_3 O 0.48002(13) 0.51054(12) 0.96654(12)
O46_3 O 0.53346(12) 0.51998(13) 0.98946(12)
Zn16_7 Zn 0.000000 0.000000 0.000000
Zn16_8 Zn 0.000000 0.000000 1.000000
Zn16_9 Zn 0.000000 1.000000 0.000000
Zn14_5 Zn 0.000000 0.750000 0.750000
Zn16_10 Zn 0.000000 1.000000 1.000000
N30_4 N 0.87342(10) 0.01414(11) 0.05234(10)
N31_4 N 0.86885(10) 0.04320(10) 0.02338(10)
N33_4 N 0.85744(10) 0.03331(11) 0.04395(10)
C105_4 C 0.89127(11) 0.03060(12) 0.01892(12)
C111_4 C 0.89459(14) 0.01130(12) 0.03779(13)
H70_4 H 0.859674 0.010467 0.088744
Zn11_4 Zn 0.92349(2) 0.00143(2) 0.13706(2)
Zn16_11 Zn 1.000000 0.000000 0.000000
O42_4 O 0.85086(10) 0.10114(9) 0.02436(9)
Zn5_4 Zn 0.86294(2) 0.07651(2) 0.99857(2)
O19_4 O 0.83344(8) 0.06643(10) 0.97793(9)
N23_4 N 0.73586(11) 0.05234(10) 0.87658(10)
N24_4 N 0.70680(10) 0.02338(10) 0.88115(10)
O23_4 O 0.85716(10) 0.04880(12) 0.94607(10)
N26_4 N 0.71669(11) 0.04395(10) 0.89256(10)
C79_4 C 0.71940(12) 0.01892(12) 0.85873(11)
C85_4 C 0.73870(12) 0.03779(13) 0.85541(14)
H51_4 H 0.750761 0.039715 0.841562
C88_4 C 0.83612(14) 0.05807(16) 0.95425(14)
C93_4 C 0.75119(13) 0.07529(14) 0.88303(14)
H54_4 H 0.739533 0.088744 0.890326
H55_4 H 0.758960 0.082354 0.866918
C95_4 C 0.77240(13) 0.06979(13) 0.90214(14)
C96_4 C 0.81396(14) 0.06159(14) 0.93658(14)
C101_4 C 0.79393(14) 0.05436(15) 0.89454(14)
H61_4 H 0.794116 0.046499 0.877840
C102_4 C 0.81502(15) 0.05061(15) 0.91152(14)
H62_4 H 0.829740 0.040821 0.906188
C103_4 C 0.77306(18) 0.0812(2) 0.92689(18)
H63_4 H 0.759479 0.092679 0.931829
C104_4 C 0.79224(18) 0.0764(2) 0.94371(16)
H64_4 H 0.791122 0.083096 0.960866
O26_4 O 0.77436(9) 0.14914(10) 0.85114(9)
O27_4 O 0.78894(9) 0.10850(9) 0.84578(9)
N29_4 N 0.88642(10) 0.13080(10) 0.93853(11)
O28_4 O 0.96574(10) 0.02552(11) 0.92897(10)
N32_4 N 0.89838(10) 0.06158(10) 0.98598(10)
N34_4 N 0.87712(10) 0.10400(10) 0.96888(10)
N35_4 N 0.86954(11) 0.12597(11) 0.95815(11)
O30_4 O 0.98002(13) 0.01054(12) 0.96654(12)
C106_4 C 0.91046(12) 0.07170(12) 0.96525(11)
C107_4 C 0.93229(13) 0.06013(13) 0.95407(12)
H65_4 H 0.940168 0.067520 0.939097
C108_4 C 0.85577(13) 0.14634(13) 0.90444(12)
C109_4 C 0.90448(13) 0.11230(12) 0.93589(13)
H66_4 H 0.917973 0.110952 0.923354
C110_4 C 0.94234(13) 0.03765(13) 0.96514(14)
C112_4 C 0.90806(12) 0.03920(12) 0.99714(12)
C113_4 C 0.93053(12) 0.02735(14) 0.98766(13)
H68_4 H 0.937738 0.012654 0.996195
C115_4 C 0.85060(14) 0.12141(13) 0.89728(14)
H69_4 H 0.861519 0.107637 0.902905
C116_4 C 0.89845(12) 0.09554(13) 0.95618(12)
C117_4 C 0.81318(14) 0.13711(13) 0.87327(14)
C118_4 C 0.79106(13) 0.13044(14) 0.85566(13)
C120_4 C 0.88005(13) 0.15242(13) 0.92056(14)
H72_4 H 0.894934 0.155499 0.908765
H73_4 H 0.877102 0.168492 0.930720
C123_4 C 0.83965(14) 0.16604(13) 0.89686(14)
H74_4 H 0.843237 0.183248 0.902504
C124_4 C 0.82912(14) 0.11632(13) 0.88162(13)
H75_4 H 0.825193 0.098997 0.876574
C125_4 C 0.96507(16) 0.02363(15) 0.95319(16)
C126_4 C 0.81831(14) 0.16160(14) 0.88125(15)
H76_4 H 0.807374 0.175580 0.876166
Zn12_4 Zn 0.74857(2) 0.13706(2) 0.82651(2)
Zn15_5 Zn 0.750000 0.000000 0.750000
Zn16_12 Zn 1.000000 0.000000 1.000000
O38_4 O 0.64886(9) 0.02436(9) 0.89914(10)
Zn2_5 Zn 0.750000 0.750000 0.000000
Zn6_4 Zn 0.75143(2) 0.88706(2) 0.07651(2)
O25_4 O 0.77207(9) 0.91656(8) 0.06643(10)
O29_4 O 0.80393(10) 0.89284(10) 0.04880(12)
H67_4 H 0.908438 0.999239 0.039715
C114_4 C 0.79575(14) 0.91388(14) 0.05807(16)
C119_4 C 0.86697(14) 0.99881(13) 0.07529(14)
H71_4 H 0.883082 0.991040 0.082354
C121_4 C 0.84786(14) 0.97760(13) 0.06979(13)
C122_4 C 0.81342(14) 0.93604(14) 0.06159(14)
C127_4 C 0.85546(14) 0.95607(14) 0.05436(15)
H77_4 H 0.872160 0.955884 0.046499
C128_4 C 0.83848(14) 0.93498(15) 0.05061(15)
H78_4 H 0.843812 0.920260 0.040821
C129_4 C 0.82311(18) 0.97694(18) 0.0812(2)
H79_4 H 0.818171 0.990521 0.092679
C130_4 C 0.80629(16) 0.95776(18) 0.0764(2)
H80_4 H 0.789134 0.958878 0.083096
O32_4 O 0.89886(9) 0.97564(9) 0.14914(10)
O33_4 O 0.90422(9) 0.96106(9) 0.10850(9)
N36_4 N 0.81147(11) 0.86358(10) 0.13080(10)
N37_4 N 0.69766(10) 0.87658(10) 0.01414(11)
O34_4 O 0.82103(10) 0.78426(10) 0.02552(11)
N38_4 N 0.72662(10) 0.88115(10) 0.04320(10)
N39_4 N 0.76402(10) 0.85162(10) 0.06158(10)
N40_4 N 0.70605(10) 0.89256(10) 0.03331(11)
N41_4 N 0.78112(10) 0.87288(10) 0.10400(10)
N42_4 N 0.79185(11) 0.88046(11) 0.12597(11)
O36_4 O 0.78346(12) 0.76998(13) 0.01054(12)
C131_4 C 0.73108(12) 0.85873(11) 0.03060(12)
C132_4 C 0.78475(11) 0.83954(12) 0.07170(12)
C133_4 C 0.79593(12) 0.81771(13) 0.06013(13)
H81_4 H 0.810903 0.809832 0.067520
C134_4 C 0.84556(12) 0.89423(13) 0.14634(13)
C135_4 C 0.81411(13) 0.84552(13) 0.11230(12)
H82_4 H 0.826646 0.832027 0.110952
C136_4 C 0.78486(14) 0.80766(13) 0.03765(13)
C137_4 C 0.71221(13) 0.85541(14) 0.01130(12)
C138_4 C 0.75286(12) 0.84194(12) 0.03920(12)
C139_4 C 0.76234(13) 0.81947(12) 0.02735(14)
H84_4 H 0.753805 0.812262 0.012654
C141_4 C 0.85272(14) 0.89940(14) 0.12141(13)
H85_4 H 0.847095 0.888481 0.107637
C142_4 C 0.79382(12) 0.85155(12) 0.09554(13)
C143_4 C 0.87673(14) 0.93682(14) 0.13711(13)
C144_4 C 0.89434(13) 0.95894(13) 0.13044(14)
H86_4 H 0.661256 0.890326 0.010467
C146_4 C 0.82944(14) 0.86995(13) 0.15242(13)
H88_4 H 0.841235 0.855066 0.155499
H89_4 H 0.819280 0.872898 0.168492
C149_4 C 0.85314(14) 0.91035(14) 0.16604(13)
H90_4 H 0.847496 0.906763 0.183248
C150_4 C 0.86838(13) 0.92088(14) 0.11632(13)
H91_4 H 0.873426 0.924807 0.098997
C151_4 C 0.79681(16) 0.78493(16) 0.02363(15)
C152_4 C 0.86875(15) 0.93169(14) 0.16160(14)
H92_4 H 0.873834 0.942626 0.175580
Zn9_4 Zn 0.61294(2) 0.82651(2) 0.00143(2)
Zn16_13 Zn 1.000000 1.000000 0.000000
O39_4 O 0.72564(9) 0.89914(10) 0.10114(9)
O44_4 O 0.73002(13) 0.76054(12) 0.03346(12)
O45_4 O 0.76054(12) 0.71654(12) 0.01998(13)
Zn1_4 Zn 0.86294(2) 0.67349(2) 0.75143(2)
Zn2_6 Zn 0.750000 0.750000 1.000000
O1_4 O 0.83344(8) 0.68357(10) 0.77207(9)
O2_4 O 0.60086(10) 0.89886(9) 0.77436(9)
O3_4 O 0.64150(9) 0.90422(9) 0.78894(9)
N1_4 N 0.61920(10) 0.81147(11) 0.88642(10)
N2_4 N 0.73586(11) 0.69766(10) 0.87342(10)
O4_4 O 0.72448(11) 0.82103(10) 0.96574(10)
N3_4 N 0.70680(10) 0.72662(10) 0.86885(10)
O5_4 O 0.85716(10) 0.70120(12) 0.80393(10)
N4_4 N 0.68842(10) 0.76402(10) 0.89838(10)
N5_4 N 0.71669(11) 0.70605(10) 0.85744(10)
N6_4 N 0.64600(10) 0.78112(10) 0.87712(10)
N7_4 N 0.62403(11) 0.79185(11) 0.86954(11)
O6_4 O 0.73946(12) 0.78346(12) 0.98002(13)
C1_4 C 0.71940(12) 0.73108(12) 0.89127(11)
C2_4 C 0.67830(12) 0.78475(11) 0.91046(12)
C3_4 C 0.68987(13) 0.79593(12) 0.93229(13)
H1_4 H 0.682480 0.810903 0.940168
C4_4 C 0.60366(13) 0.84556(12) 0.85577(13)
C5_4 C 0.63770(12) 0.81411(13) 0.90448(13)
H2_4 H 0.639048 0.826646 0.917973
C6_4 C 0.71235(13) 0.78486(14) 0.94234(13)
C7_4 C 0.73870(12) 0.71221(13) 0.89459(14)
H3_4 H 0.750761 0.710285 0.908438
C8_4 C 0.71080(12) 0.75286(12) 0.90806(12)
C9_4 C 0.72265(14) 0.76234(13) 0.93053(12)
H4_4 H 0.737346 0.753805 0.937738
C10_4 C 0.83612(14) 0.69193(16) 0.79575(14)
C11_4 C 0.62859(13) 0.85272(14) 0.85060(14)
H5_4 H 0.642363 0.847095 0.861519
C12_4 C 0.65446(13) 0.79382(12) 0.89845(12)
C13_4 C 0.61289(13) 0.87673(14) 0.81318(14)
C14_4 C 0.61956(14) 0.89434(13) 0.79106(13)
C15_4 C 0.75119(13) 0.67471(14) 0.86697(14)
H6_4 H 0.739533 0.661256 0.859674
H7_4 H 0.758960 0.667646 0.883082
C16_4 C 0.59758(13) 0.82944(14) 0.88005(13)
H8_4 H 0.594501 0.841235 0.894934
H9_4 H 0.581508 0.819280 0.877102
C17_4 C 0.77240(13) 0.68021(13) 0.84786(14)
C18_4 C 0.81396(14) 0.68841(14) 0.81342(14)
C19_4 C 0.58396(13) 0.85314(14) 0.83965(14)
H10_4 H 0.566752 0.847496 0.843237
C20_4 C 0.63368(13) 0.86838(13) 0.82912(14)
H11_4 H 0.651003 0.873426 0.825193
C21_4 C 0.72637(15) 0.79681(16) 0.96507(16)
C22_4 C 0.58840(14) 0.86875(15) 0.81831(14)
H12_4 H 0.574420 0.873834 0.807374
C23_4 C 0.79393(14) 0.69564(15) 0.85546(14)
H13_4 H 0.794116 0.703501 0.872160
C24_4 C 0.81502(15) 0.69939(15) 0.83848(14)
H14_4 H 0.829740 0.709179 0.843812
C25_4 C 0.77306(18) 0.6688(2) 0.82311(18)
H15_4 H 0.759479 0.657321 0.818171
C26_4 C 0.79224(18) 0.6736(2) 0.80629(16)
H16_4 H 0.791122 0.666904 0.789134
Zn3_4 Zn 0.75143(2) 0.86294(2) 0.67349(2)
O7_4 O 0.77207(9) 0.83344(8) 0.68357(10)
O8_4 O 0.77436(9) 0.60086(10) 0.89886(9)
O9_4 O 0.78894(9) 0.64150(9) 0.90422(9)
N8_4 N 0.88642(10) 0.61920(10) 0.81147(11)
N9_4 N 0.87342(10) 0.73586(11) 0.69766(10)
O10_4 O 0.96574(10) 0.72448(11) 0.82103(10)
N10_4 N 0.86885(10) 0.70680(10) 0.72662(10)
O11_4 O 0.80393(10) 0.85716(10) 0.70120(12)
N11_4 N 0.89838(10) 0.68842(10) 0.76402(10)
N12_4 N 0.85744(10) 0.71669(11) 0.70605(10)
N13_4 N 0.87712(10) 0.64600(10) 0.78112(10)
N14_4 N 0.86954(11) 0.62403(11) 0.79185(11)
O12_4 O 0.98002(13) 0.73946(12) 0.78346(12)
C27_4 C 0.89127(11) 0.71940(12) 0.73108(12)
C28_4 C 0.91046(12) 0.67830(12) 0.78475(11)
C29_4 C 0.93229(13) 0.68987(13) 0.79593(12)
H17_4 H 0.940168 0.682480 0.810903
C30_4 C 0.85577(13) 0.60366(13) 0.84556(12)
C31_4 C 0.90448(13) 0.63770(12) 0.81411(13)
H18_4 H 0.917973 0.639048 0.826646
C32_4 C 0.94234(13) 0.71235(13) 0.78486(14)
C33_4 C 0.89459(14) 0.73870(12) 0.71221(13)
H19_4 H 0.908438 0.750761 0.710285
C34_4 C 0.90806(12) 0.71080(12) 0.75286(12)
C35_4 C 0.93053(12) 0.72265(14) 0.76234(13)
H20_4 H 0.937738 0.737346 0.753805
C36_4 C 0.79575(14) 0.83612(14) 0.69193(16)
C37_4 C 0.85060(14) 0.62859(13) 0.85272(14)
H21_4 H 0.861519 0.642363 0.847095
C38_4 C 0.89845(12) 0.65446(13) 0.79382(12)
C39_4 C 0.81318(14) 0.61289(13) 0.87673(14)
C40_4 C 0.79106(13) 0.61956(14) 0.89434(13)
C41_4 C 0.86697(14) 0.75119(13) 0.67471(14)
H22_4 H 0.859674 0.739533 0.661256
H23_4 H 0.883082 0.758960 0.667646
C42_4 C 0.88005(13) 0.59758(13) 0.82944(14)
H24_4 H 0.894934 0.594501 0.841235
H25_4 H 0.877102 0.581508 0.819280
C43_4 C 0.84786(14) 0.77240(13) 0.68021(13)
C44_4 C 0.81342(14) 0.81396(14) 0.68841(14)
C45_4 C 0.83965(14) 0.58396(13) 0.85314(14)
H26_4 H 0.843237 0.566752 0.847496
C46_4 C 0.82912(14) 0.63368(13) 0.86838(13)
H27_4 H 0.825193 0.651003 0.873426
C47_4 C 0.96507(16) 0.72637(15) 0.79681(16)
C48_4 C 0.81831(14) 0.58840(14) 0.86875(15)
H28_4 H 0.807374 0.574420 0.873834
C49_4 C 0.85546(14) 0.79393(14) 0.69564(15)
H29_4 H 0.872160 0.794116 0.703501
C50_4 C 0.83848(14) 0.81502(15) 0.69939(15)
H30_4 H 0.843812 0.829740 0.709179
C51_4 C 0.82311(18) 0.77306(18) 0.6688(2)
H31_4 H 0.818171 0.759479 0.657321
C52_4 C 0.80629(16) 0.79224(18) 0.6736(2)
H32_4 H 0.789134 0.791122 0.666904
Zn4_4 Zn 0.67349(2) 0.75143(2) 0.86294(2)
O13_4 O 0.68357(10) 0.77207(9) 0.83344(8)
O14_4 O 0.89886(9) 0.77436(9) 0.60086(10)
O15_4 O 0.90422(9) 0.78894(9) 0.64150(9)
N15_4 N 0.81147(11) 0.88642(10) 0.61920(10)
N16_4 N 0.69766(10) 0.87342(10) 0.73586(11)
O16_4 O 0.82103(10) 0.96574(10) 0.72448(11)
N17_4 N 0.72662(10) 0.86885(10) 0.70680(10)
O17_4 O 0.70120(12) 0.80393(10) 0.85716(10)
N18_4 N 0.76402(10) 0.89838(10) 0.68842(10)
N19_4 N 0.70605(10) 0.85744(10) 0.71669(11)
N20_4 N 0.78112(10) 0.87712(10) 0.64600(10)
N21_4 N 0.79185(11) 0.86954(11) 0.62403(11)
O18_4 O 0.78346(12) 0.98002(13) 0.73946(12)
C53_4 C 0.73108(12) 0.89127(11) 0.71940(12)
C54_4 C 0.78475(11) 0.91046(12) 0.67830(12)
C55_4 C 0.79593(12) 0.93229(13) 0.68987(13)
H33_4 H 0.810903 0.940168 0.682480
C56_4 C 0.84556(12) 0.85577(13) 0.60366(13)
C57_4 C 0.81411(13) 0.90448(13) 0.63770(12)
H34_4 H 0.826646 0.917973 0.639048
C58_4 C 0.78486(14) 0.94234(13) 0.71235(13)
C59_4 C 0.71221(13) 0.89459(14) 0.73870(12)
H35_4 H 0.710285 0.908438 0.750761
C60_4 C 0.75286(12) 0.90806(12) 0.71080(12)
C61_4 C 0.76234(13) 0.93053(12) 0.72265(14)
H36_4 H 0.753805 0.937738 0.737346
C62_4 C 0.69193(16) 0.79575(14) 0.83612(14)
C63_4 C 0.85272(14) 0.85060(14) 0.62859(13)
H37_4 H 0.847095 0.861519 0.642363
C64_4 C 0.79382(12) 0.89845(12) 0.65446(13)
C65_4 C 0.87673(14) 0.81318(14) 0.61289(13)
C66_4 C 0.89434(13) 0.79106(13) 0.61956(14)
C67_4 C 0.67471(14) 0.86697(14) 0.75119(13)
H38_4 H 0.661256 0.859674 0.739533
H39_4 H 0.667646 0.883082 0.758960
C68_4 C 0.82944(14) 0.88005(13) 0.59758(13)
H40_4 H 0.841235 0.894934 0.594501
H41_4 H 0.819280 0.877102 0.581508
C69_4 C 0.68021(13) 0.84786(14) 0.77240(13)
C70_4 C 0.68841(14) 0.81342(14) 0.81396(14)
C71_4 C 0.85314(14) 0.83965(14) 0.58396(13)
H42_4 H 0.847496 0.843237 0.566752
C72_4 C 0.86838(13) 0.82912(14) 0.63368(13)
H43_4 H 0.873426 0.825193 0.651003
C73_4 C 0.79681(16) 0.96507(16) 0.72637(15)
C74_4 C 0.86875(15) 0.81831(14) 0.58840(14)
H44_4 H 0.873834 0.807374 0.574420
C75_4 C 0.69564(15) 0.85546(14) 0.79393(14)
H45_4 H 0.703501 0.872160 0.794116
C76_4 C 0.69939(15) 0.83848(14) 0.81502(15)
H46_4 H 0.709179 0.843812 0.829740
C77_4 C 0.6688(2) 0.82311(18) 0.77306(18)
H47_4 H 0.657321 0.818171 0.759479
C78_4 C 0.6736(2) 0.80629(16) 0.79224(18)
H48_4 H 0.666904 0.789134 0.791122
O20_4 O 0.60086(10) 0.85114(9) 0.97564(9)
O21_4 O 0.64150(9) 0.84578(9) 0.96106(9)
N22_4 N 0.61920(10) 0.93853(11) 0.86358(10)
O22_4 O 0.72448(11) 0.92897(10) 0.78426(10)
N25_4 N 0.68842(10) 0.98598(10) 0.85162(10)
N27_4 N 0.64600(10) 0.96888(10) 0.87288(10)
N28_4 N 0.62403(11) 0.95815(11) 0.88046(11)
O24_4 O 0.73946(12) 0.96654(12) 0.76998(13)
C80_4 C 0.67830(12) 0.96525(11) 0.83954(12)
C81_4 C 0.68987(13) 0.95407(12) 0.81771(13)
H49_4 H 0.682480 0.939097 0.809832
C82_4 C 0.60366(13) 0.90444(12) 0.89423(13)
C83_4 C 0.63770(12) 0.93589(13) 0.84552(13)
H50_4 H 0.639048 0.923354 0.832027
C84_4 C 0.71235(13) 0.96514(14) 0.80766(13)
C86_4 C 0.71080(12) 0.99714(12) 0.84194(12)
C87_4 C 0.72265(14) 0.98766(13) 0.81947(12)
H52_4 H 0.737346 0.996195 0.812262
C89_4 C 0.62859(13) 0.89728(14) 0.89940(14)
H53_4 H 0.642363 0.902905 0.888481
C90_4 C 0.65446(13) 0.95618(12) 0.85155(12)
C91_4 C 0.61289(13) 0.87327(14) 0.93682(14)
C92_4 C 0.61956(14) 0.85566(13) 0.95894(13)
C94_4 C 0.59758(13) 0.92056(14) 0.86995(13)
H56_4 H 0.594501 0.908765 0.855066
H57_4 H 0.581508 0.930720 0.872898
C97_4 C 0.58396(13) 0.89686(14) 0.91035(14)
H58_4 H 0.566752 0.902504 0.906763
C98_4 C 0.63368(13) 0.88162(13) 0.92088(14)
H59_4 H 0.651003 0.876574 0.924807
C99_4 C 0.72637(15) 0.95319(16) 0.78493(16)
C100_4 C 0.58840(14) 0.88125(15) 0.93169(14)
H60_4 H 0.574420 0.876166 0.942626
Zn7_4 Zn 0.67349(2) 0.99857(2) 0.88706(2)
O31_4 O 0.68357(10) 0.97793(9) 0.91656(8)
O35_4 O 0.70120(12) 0.94607(10) 0.89284(10)
H83_4 H 0.710285 0.841562 0.999239
C140_4 C 0.69193(16) 0.95425(14) 0.91388(14)
C145_4 C 0.67471(14) 0.88303(14) 0.99881(13)
H87_4 H 0.667646 0.866918 0.991040
C147_4 C 0.68021(13) 0.90214(14) 0.97760(13)
C148_4 C 0.68841(14) 0.93658(14) 0.93604(14)
C153_4 C 0.69564(15) 0.89454(14) 0.95607(14)
H93_4 H 0.703501 0.877840 0.955884
C154_4 C 0.69939(15) 0.91152(14) 0.93498(15)
H94_4 H 0.709179 0.906188 0.920260
C155_4 C 0.6688(2) 0.92689(18) 0.97694(18)
H95_4 H 0.657321 0.931829 0.990521
C156_4 C 0.6736(2) 0.94371(16) 0.95776(18)
H96_4 H 0.666904 0.960866 0.958878
Zn8_4 Zn 0.61294(2) 0.92349(2) 0.74857(2)
Zn10_4 Zn 0.92349(2) 0.74857(2) 0.61294(2)
Zn13_4 Zn 0.74857(2) 0.61294(2) 0.92349(2)
Zn14_6 Zn 1.000000 0.750000 0.750000
Zn15_6 Zn 0.750000 1.000000 0.750000
Zn16_14 Zn 1.000000 1.000000 1.000000
O37_4 O 0.64886(9) 0.72564(9) 0.85086(10)
O40_4 O 0.72564(9) 0.85086(10) 0.64886(9)
O41_4 O 0.85086(10) 0.64886(9) 0.72564(9)
O43_4 O 0.76998(13) 0.73946(12) 0.96654(12)
O46_4 O 0.71654(12) 0.73002(13) 0.98946(12)
Zn5_5 Zn 0.25143(2) 0.86294(2) 0.17349(2)
O19_5 O 0.27207(9) 0.83344(8) 0.18357(10)
O20_5 O 0.27436(9) 0.60086(10) 0.39886(9)
O21_5 O 0.28894(9) 0.64150(9) 0.40422(9)
N22_5 N 0.38642(10) 0.61920(10) 0.31147(11)
N23_5 N 0.37342(10) 0.73586(11) 0.19766(10)
O22_5 O 0.46574(10) 0.72448(11) 0.32103(10)
N24_5 N 0.36885(10) 0.70680(10) 0.22662(10)
O23_5 O 0.30393(10) 0.85716(10) 0.20120(12)
N25_5 N 0.39838(10) 0.68842(10) 0.26402(10)
N26_5 N 0.35744(10) 0.71669(11) 0.20605(10)
N27_5 N 0.37712(10) 0.64600(10) 0.28112(10)
N28_5 N 0.36954(11) 0.62403(11) 0.29185(11)
C79_5 C 0.39127(11) 0.71940(12) 0.23108(12)
C80_5 C 0.41046(12) 0.67830(12) 0.28475(11)
C81_5 C 0.43229(13) 0.68987(13) 0.29593(12)
H49_5 H 0.440168 0.682480 0.310903
C82_5 C 0.35577(13) 0.60366(13) 0.34556(12)
C83_5 C 0.40448(13) 0.63770(12) 0.31411(13)
H50_5 H 0.417973 0.639048 0.326646
C84_5 C 0.44234(13) 0.71235(13) 0.28486(14)
C85_5 C 0.39459(14) 0.73870(12) 0.21221(13)
H51_5 H 0.408438 0.750761 0.210285
C86_5 C 0.40806(12) 0.71080(12) 0.25286(12)
C87_5 C 0.43053(12) 0.72265(14) 0.26234(13)
H52_5 H 0.437738 0.737346 0.253805
C88_5 C 0.29575(14) 0.83612(14) 0.19193(16)
C89_5 C 0.35060(14) 0.62859(13) 0.35272(14)
H53_5 H 0.361519 0.642363 0.347095
C90_5 C 0.39845(12) 0.65446(13) 0.29382(12)
C91_5 C 0.31318(14) 0.61289(13) 0.37673(14)
C92_5 C 0.29106(13) 0.61956(14) 0.39434(13)
C93_5 C 0.36697(14) 0.75119(13) 0.17471(14)
H54_5 H 0.359674 0.739533 0.161256
H55_5 H 0.383082 0.758960 0.167646
C94_5 C 0.38005(13) 0.59758(13) 0.32944(14)
H56_5 H 0.394934 0.594501 0.341235
H57_5 H 0.377102 0.581508 0.319280
C95_5 C 0.34786(14) 0.77240(13) 0.18021(13)
C96_5 C 0.31342(14) 0.81396(14) 0.18841(14)
C97_5 C 0.33965(14) 0.58396(13) 0.35314(14)
H58_5 H 0.343237 0.566752 0.347496
C98_5 C 0.32912(14) 0.63368(13) 0.36838(13)
H59_5 H 0.325193 0.651003 0.373426
C99_5 C 0.46507(16) 0.72637(15) 0.29681(16)
C100_5 C 0.31831(14) 0.58840(14) 0.36875(15)
H60_5 H 0.307374 0.574420 0.373834
C101_5 C 0.35546(14) 0.79393(14) 0.19564(15)
H61_5 H 0.372160 0.794116 0.203501
C102_5 C 0.33848(14) 0.81502(15) 0.19939(15)
H62_5 H 0.343812 0.829740 0.209179
C103_5 C 0.32311(18) 0.77306(18) 0.1688(2)
H63_5 H 0.318171 0.759479 0.157321
C104_5 C 0.30629(16) 0.79224(18) 0.1736(2)
H64_5 H 0.289134 0.791122 0.166904
Zn6_5 Zn 0.17349(2) 0.75143(2) 0.36294(2)
O25_5 O 0.18357(10) 0.77207(9) 0.33344(8)
O26_5 O 0.39886(9) 0.77436(9) 0.10086(10)
O27_5 O 0.40422(9) 0.78894(9) 0.14150(9)
N29_5 N 0.31147(11) 0.88642(10) 0.11920(10)
N30_5 N 0.19766(10) 0.87342(10) 0.23586(11)
O28_5 O 0.32103(10) 0.96574(10) 0.22448(11)
N31_5 N 0.22662(10) 0.86885(10) 0.20680(10)
O29_5 O 0.20120(12) 0.80393(10) 0.35716(10)
N32_5 N 0.26402(10) 0.89838(10) 0.18842(10)
N33_5 N 0.20605(10) 0.85744(10) 0.21669(11)
N34_5 N 0.28112(10) 0.87712(10) 0.14600(10)
N35_5 N 0.29185(11) 0.86954(11) 0.12403(11)
O30_5 O 0.28346(12) 0.98002(13) 0.23946(12)
C105_5 C 0.23108(12) 0.89127(11) 0.21940(12)
C106_5 C 0.28475(11) 0.91046(12) 0.17830(12)
C107_5 C 0.29593(12) 0.93229(13) 0.18987(13)
H65_5 H 0.310903 0.940168 0.182480
C108_5 C 0.34556(12) 0.85577(13) 0.10366(13)
C109_5 C 0.31411(13) 0.90448(13) 0.13770(12)
H66_5 H 0.326646 0.917973 0.139048
C110_5 C 0.28486(14) 0.94234(13) 0.21235(13)
C111_5 C 0.21221(13) 0.89459(14) 0.23870(12)
H67_5 H 0.210285 0.908438 0.250761
C112_5 C 0.25286(12) 0.90806(12) 0.21080(12)
C113_5 C 0.26234(13) 0.93053(12) 0.22265(14)
H68_5 H 0.253805 0.937738 0.237346
C114_5 C 0.19193(16) 0.79575(14) 0.33612(14)
C115_5 C 0.35272(14) 0.85060(14) 0.12859(13)
H69_5 H 0.347095 0.861519 0.142363
C116_5 C 0.29382(12) 0.89845(12) 0.15446(13)
C117_5 C 0.37673(14) 0.81318(14) 0.11289(13)
C118_5 C 0.39434(13) 0.79106(13) 0.11956(14)
C119_5 C 0.17471(14) 0.86697(14) 0.25119(13)
H70_5 H 0.161256 0.859674 0.239533
H71_5 H 0.167646 0.883082 0.258960
C120_5 C 0.32944(14) 0.88005(13) 0.09758(13)
H72_5 H 0.341235 0.894934 0.094501
H73_5 H 0.319280 0.877102 0.081508
C121_5 C 0.18021(13) 0.84786(14) 0.27240(13)
C122_5 C 0.18841(14) 0.81342(14) 0.31396(14)
C123_5 C 0.35314(14) 0.83965(14) 0.08396(13)
H74_5 H 0.347496 0.843237 0.066752
C124_5 C 0.36838(13) 0.82912(14) 0.13368(13)
H75_5 H 0.373426 0.825193 0.151003
C125_5 C 0.29681(16) 0.96507(16) 0.22637(15)
C126_5 C 0.36875(15) 0.81831(14) 0.08840(14)
H76_5 H 0.373834 0.807374 0.074420
C127_5 C 0.19564(15) 0.85546(14) 0.29393(14)
H77_5 H 0.203501 0.872160 0.294116
C128_5 C 0.19939(15) 0.83848(14) 0.31502(15)
H78_5 H 0.209179 0.843812 0.329740
C129_5 C 0.1688(2) 0.82311(18) 0.27306(18)
H79_5 H 0.157321 0.818171 0.259479
C130_5 C 0.1736(2) 0.80629(16) 0.29224(18)
H80_5 H 0.166904 0.789134 0.291122
Zn7_5 Zn 0.36294(2) 0.67349(2) 0.25143(2)
O31_5 O 0.33344(8) 0.68357(10) 0.27207(9)
O32_5 O 0.10086(10) 0.89886(9) 0.27436(9)
O33_5 O 0.14150(9) 0.90422(9) 0.28894(9)
N36_5 N 0.11920(10) 0.81147(11) 0.38642(10)
N37_5 N 0.23586(11) 0.69766(10) 0.37342(10)
O34_5 O 0.22448(11) 0.82103(10) 0.46574(10)
N38_5 N 0.20680(10) 0.72662(10) 0.36885(10)
O35_5 O 0.35716(10) 0.70120(12) 0.30393(10)
N39_5 N 0.18842(10) 0.76402(10) 0.39838(10)
N40_5 N 0.21669(11) 0.70605(10) 0.35744(10)
N41_5 N 0.14600(10) 0.78112(10) 0.37712(10)
N42_5 N 0.12403(11) 0.79185(11) 0.36954(11)
O36_5 O 0.23946(12) 0.78346(12) 0.48002(13)
C131_5 C 0.21940(12) 0.73108(12) 0.39127(11)
C132_5 C 0.17830(12) 0.78475(11) 0.41046(12)
C133_5 C 0.18987(13) 0.79593(12) 0.43229(13)
H81_5 H 0.182480 0.810903 0.440168
C134_5 C 0.10366(13) 0.84556(12) 0.35577(13)
C135_5 C 0.13770(12) 0.81411(13) 0.40448(13)
H82_5 H 0.139048 0.826646 0.417973
C136_5 C 0.21235(13) 0.78486(14) 0.44234(13)
C137_5 C 0.23870(12) 0.71221(13) 0.39459(14)
H83_5 H 0.250761 0.710285 0.408438
C138_5 C 0.21080(12) 0.75286(12) 0.40806(12)
C139_5 C 0.22265(14) 0.76234(13) 0.43053(12)
H84_5 H 0.237346 0.753805 0.437738
C140_5 C 0.33612(14) 0.69193(16) 0.29575(14)
C141_5 C 0.12859(13) 0.85272(14) 0.35060(14)
H85_5 H 0.142363 0.847095 0.361519
C142_5 C 0.15446(13) 0.79382(12) 0.39845(12)
C143_5 C 0.11289(13) 0.87673(14) 0.31318(14)
C144_5 C 0.11956(14) 0.89434(13) 0.29106(13)
C145_5 C 0.25119(13) 0.67471(14) 0.36697(14)
H86_5 H 0.239533 0.661256 0.359674
H87_5 H 0.258960 0.667646 0.383082
C146_5 C 0.09758(13) 0.82944(14) 0.38005(13)
H88_5 H 0.094501 0.841235 0.394934
H89_5 H 0.081508 0.819280 0.377102
C147_5 C 0.27240(13) 0.68021(13) 0.34786(14)
C148_5 C 0.31396(14) 0.68841(14) 0.31342(14)
C149_5 C 0.08396(13) 0.85314(14) 0.33965(14)
H90_5 H 0.066752 0.847496 0.343237
C150_5 C 0.13368(13) 0.86838(13) 0.32912(14)
H91_5 H 0.151003 0.873426 0.325193
C151_5 C 0.22637(15) 0.79681(16) 0.46507(16)
C152_5 C 0.08840(14) 0.86875(15) 0.31831(14)
H92_5 H 0.074420 0.873834 0.307374
C153_5 C 0.29393(14) 0.69564(15) 0.35546(14)
H93_5 H 0.294116 0.703501 0.372160
C154_5 C 0.31502(15) 0.69939(15) 0.33848(14)
H94_5 H 0.329740 0.709179 0.343812
C155_5 C 0.27306(18) 0.6688(2) 0.32311(18)
H95_5 H 0.259479 0.657321 0.318171
C156_5 C 0.29224(18) 0.6736(2) 0.30629(16)
H96_5 H 0.291122 0.666904 0.289134
Zn9_5 Zn 0.24857(2) 0.61294(2) 0.42349(2)
Zn11_5 Zn 0.11294(2) 0.92349(2) 0.24857(2)
Zn12_5 Zn 0.42349(2) 0.74857(2) 0.11294(2)
O38_5 O 0.35086(10) 0.64886(9) 0.22564(9)
O39_5 O 0.14886(9) 0.72564(9) 0.35086(10)
O42_5 O 0.22564(9) 0.85086(10) 0.14886(9)
O43_5 O 0.28346(12) 0.76998(13) 0.51054(12)
O44_5 O 0.21654(12) 0.73002(13) 0.48946(12)
O45_5 O 0.23002(13) 0.76054(12) 0.53346(12)
O46_5 O 0.26054(12) 0.71654(12) 0.51998(13)
Zn5_6 Zn 0.25143(2) 0.38706(2) 0.07651(2)
O19_6 O 0.27207(9) 0.41656(8) 0.06643(10)
N23_6 N 0.37342(10) 0.51414(11) 0.05234(10)
N24_6 N 0.36885(10) 0.54320(10) 0.02338(10)
O23_6 O 0.30393(10) 0.39284(10) 0.04880(12)
N26_6 N 0.35744(10) 0.53331(11) 0.04395(10)
C79_6 C 0.39127(11) 0.53060(12) 0.01892(12)
C85_6 C 0.39459(14) 0.51130(12) 0.03779(13)
H51_6 H 0.408438 0.499239 0.039715
C88_6 C 0.29575(14) 0.41388(14) 0.05807(16)
C93_6 C 0.36697(14) 0.49881(13) 0.07529(14)
H54_6 H 0.359674 0.510467 0.088744
H55_6 H 0.383082 0.491040 0.082354
C95_6 C 0.34786(14) 0.47760(13) 0.06979(13)
C96_6 C 0.31342(14) 0.43604(14) 0.06159(14)
C101_6 C 0.35546(14) 0.45607(14) 0.05436(15)
H61_6 H 0.372160 0.455884 0.046499
C102_6 C 0.33848(14) 0.43498(15) 0.05061(15)
H62_6 H 0.343812 0.420260 0.040821
C103_6 C 0.32311(18) 0.47694(18) 0.0812(2)
H63_6 H 0.318171 0.490521 0.092679
C104_6 C 0.30629(16) 0.45776(18) 0.0764(2)
H64_6 H 0.289134 0.458878 0.083096
O26_6 O 0.39886(9) 0.47564(9) 0.14914(10)
O27_6 O 0.40422(9) 0.46106(9) 0.10850(9)
N29_6 N 0.31147(11) 0.36358(10) 0.13080(10)
N30_6 N 0.19766(10) 0.37658(10) 0.01414(11)
O28_6 O 0.32103(10) 0.28426(10) 0.02552(11)
N31_6 N 0.22662(10) 0.38115(10) 0.04320(10)
N32_6 N 0.26402(10) 0.35162(10) 0.06158(10)
N33_6 N 0.20605(10) 0.39256(10) 0.03331(11)
N34_6 N 0.28112(10) 0.37288(10) 0.10400(10)
N35_6 N 0.29185(11) 0.38046(11) 0.12597(11)
O30_6 O 0.28346(12) 0.26998(13) 0.01054(12)
C105_6 C 0.23108(12) 0.35873(11) 0.03060(12)
C106_6 C 0.28475(11) 0.33954(12) 0.07170(12)
C107_6 C 0.29593(12) 0.31771(13) 0.06013(13)
H65_6 H 0.310903 0.309832 0.067520
C108_6 C 0.34556(12) 0.39423(13) 0.14634(13)
C109_6 C 0.31411(13) 0.34552(13) 0.11230(12)
H66_6 H 0.326646 0.332027 0.110952
C110_6 C 0.28486(14) 0.30766(13) 0.03765(13)
C111_6 C 0.21221(13) 0.35541(14) 0.01130(12)
C112_6 C 0.25286(12) 0.34194(12) 0.03920(12)
C113_6 C 0.26234(13) 0.31947(12) 0.02735(14)
H68_6 H 0.253805 0.312262 0.012654
C115_6 C 0.35272(14) 0.39940(14) 0.12141(13)
H69_6 H 0.347095 0.388481 0.107637
C116_6 C 0.29382(12) 0.35155(12) 0.09554(13)
C117_6 C 0.37673(14) 0.43682(14) 0.13711(13)
C118_6 C 0.39434(13) 0.45894(13) 0.13044(14)
H70_6 H 0.161256 0.390326 0.010467
C120_6 C 0.32944(14) 0.36995(13) 0.15242(13)
H72_6 H 0.341235 0.355066 0.155499
H73_6 H 0.319280 0.372898 0.168492
C123_6 C 0.35314(14) 0.41035(14) 0.16604(13)
H74_6 H 0.347496 0.406763 0.183248
C124_6 C 0.36838(13) 0.42088(14) 0.11632(13)
H75_6 H 0.373426 0.424807 0.098997
C125_6 C 0.29681(16) 0.28493(16) 0.02363(15)
C126_6 C 0.36875(15) 0.43169(14) 0.16160(14)
H76_6 H 0.373834 0.442626 0.175580
Zn11_6 Zn 0.11294(2) 0.32651(2) 0.00143(2)
Zn12_6 Zn 0.42349(2) 0.50143(2) 0.13706(2)
O38_6 O 0.35086(10) 0.60114(9) 0.02436(9)
O42_6 O 0.22564(9) 0.39914(10) 0.10114(9)
O20_6 O 0.27436(9) 0.64914(10) 0.85114(9)
O21_6 O 0.28894(9) 0.60850(9) 0.84578(9)
N22_6 N 0.38642(10) 0.63080(10) 0.93853(11)
O22_6 O 0.46574(10) 0.52552(11) 0.92897(10)
N25_6 N 0.39838(10) 0.56158(10) 0.98598(10)
N27_6 N 0.37712(10) 0.60400(10) 0.96888(10)
N28_6 N 0.36954(11) 0.62597(11) 0.95815(11)
C80_6 C 0.41046(12) 0.57170(12) 0.96525(11)
C81_6 C 0.43229(13) 0.56013(13) 0.95407(12)
H49_6 H 0.440168 0.567520 0.939097
C82_6 C 0.35577(13) 0.64634(13) 0.90444(12)
C83_6 C 0.40448(13) 0.61230(12) 0.93589(13)
H50_6 H 0.417973 0.610952 0.923354
C84_6 C 0.44234(13) 0.53765(13) 0.96514(14)
C86_6 C 0.40806(12) 0.53920(12) 0.99714(12)
C87_6 C 0.43053(12) 0.52735(14) 0.98766(13)
H52_6 H 0.437738 0.512654 0.996195
C89_6 C 0.35060(14) 0.62141(13) 0.89728(14)
H53_6 H 0.361519 0.607637 0.902905
C90_6 C 0.39845(12) 0.59554(13) 0.95618(12)
C91_6 C 0.31318(14) 0.63711(13) 0.87327(14)
C92_6 C 0.29106(13) 0.63044(14) 0.85566(13)
C94_6 C 0.38005(13) 0.65242(13) 0.92056(14)
H56_6 H 0.394934 0.655499 0.908765
H57_6 H 0.377102 0.668492 0.930720
C97_6 C 0.33965(14) 0.66604(13) 0.89686(14)
H58_6 H 0.343237 0.683248 0.902504
C98_6 C 0.32912(14) 0.61632(13) 0.88162(13)
H59_6 H 0.325193 0.598997 0.876574
C99_6 C 0.46507(16) 0.52363(15) 0.95319(16)
C100_6 C 0.31831(14) 0.66160(14) 0.88125(15)
H60_6 H 0.307374 0.675580 0.876166
Zn6_6 Zn 0.17349(2) 0.49857(2) 0.88706(2)
O25_6 O 0.18357(10) 0.47793(9) 0.91656(8)
O29_6 O 0.20120(12) 0.44607(10) 0.89284(10)
H67_6 H 0.210285 0.341562 0.999239
C114_6 C 0.19193(16) 0.45425(14) 0.91388(14)
C119_6 C 0.17471(14) 0.38303(14) 0.99881(13)
H71_6 H 0.167646 0.366918 0.991040
C121_6 C 0.18021(13) 0.40214(14) 0.97760(13)
C122_6 C 0.18841(14) 0.43658(14) 0.93604(14)
C127_6 C 0.19564(15) 0.39454(14) 0.95607(14)
H77_6 H 0.203501 0.377840 0.955884
C128_6 C 0.19939(15) 0.41152(14) 0.93498(15)
H78_6 H 0.209179 0.406188 0.920260
C129_6 C 0.1688(2) 0.42689(18) 0.97694(18)
H79_6 H 0.157321 0.431829 0.990521
C130_6 C 0.1736(2) 0.44371(16) 0.95776(18)
H80_6 H 0.166904 0.460866 0.958878
Zn7_6 Zn 0.36294(2) 0.57651(2) 0.99857(2)
O31_6 O 0.33344(8) 0.56643(10) 0.97793(9)
O32_6 O 0.10086(10) 0.35114(9) 0.97564(9)
O33_6 O 0.14150(9) 0.34578(9) 0.96106(9)
N36_6 N 0.11920(10) 0.43853(11) 0.86358(10)
N37_6 N 0.23586(11) 0.55234(10) 0.87658(10)
O34_6 O 0.22448(11) 0.42897(10) 0.78426(10)
N38_6 N 0.20680(10) 0.52338(10) 0.88115(10)
O35_6 O 0.35716(10) 0.54880(12) 0.94607(10)
N39_6 N 0.18842(10) 0.48598(10) 0.85162(10)
N40_6 N 0.21669(11) 0.54395(10) 0.89256(10)
N41_6 N 0.14600(10) 0.46888(10) 0.87288(10)
N42_6 N 0.12403(11) 0.45815(11) 0.88046(11)
O36_6 O 0.23946(12) 0.46654(12) 0.76998(13)
C131_6 C 0.21940(12) 0.51892(12) 0.85873(11)
C132_6 C 0.17830(12) 0.46525(11) 0.83954(12)
C133_6 C 0.18987(13) 0.45407(12) 0.81771(13)
H81_6 H 0.182480 0.439097 0.809832
C134_6 C 0.10366(13) 0.40444(12) 0.89423(13)
C135_6 C 0.13770(12) 0.43589(13) 0.84552(13)
H82_6 H 0.139048 0.423354 0.832027
C136_6 C 0.21235(13) 0.46514(14) 0.80766(13)
C137_6 C 0.23870(12) 0.53779(13) 0.85541(14)
H83_6 H 0.250761 0.539715 0.841562
C138_6 C 0.21080(12) 0.49714(12) 0.84194(12)
C139_6 C 0.22265(14) 0.48766(13) 0.81947(12)
H84_6 H 0.237346 0.496195 0.812262
C140_6 C 0.33612(14) 0.55807(16) 0.95425(14)
C141_6 C 0.12859(13) 0.39728(14) 0.89940(14)
H85_6 H 0.142363 0.402905 0.888481
C142_6 C 0.15446(13) 0.45618(12) 0.85155(12)
C143_6 C 0.11289(13) 0.37327(14) 0.93682(14)
C144_6 C 0.11956(14) 0.35566(13) 0.95894(13)
C145_6 C 0.25119(13) 0.57529(14) 0.88303(14)
H86_6 H 0.239533 0.588744 0.890326
H87_6 H 0.258960 0.582354 0.866918
C146_6 C 0.09758(13) 0.42056(14) 0.86995(13)
H88_6 H 0.094501 0.408765 0.855066
H89_6 H 0.081508 0.430720 0.872898
C147_6 C 0.27240(13) 0.56979(13) 0.90214(14)
C148_6 C 0.31396(14) 0.56159(14) 0.93658(14)
C149_6 C 0.08396(13) 0.39686(14) 0.91035(14)
H90_6 H 0.066752 0.402504 0.906763
C150_6 C 0.13368(13) 0.38162(13) 0.92088(14)
H91_6 H 0.151003 0.376574 0.924807
C151_6 C 0.22637(15) 0.45319(16) 0.78493(16)
C152_6 C 0.08840(14) 0.38125(15) 0.93169(14)
H92_6 H 0.074420 0.376166 0.942626
C153_6 C 0.29393(14) 0.55436(15) 0.89454(14)
H93_6 H 0.294116 0.546499 0.877840
C154_6 C 0.31502(15) 0.55061(15) 0.91152(14)
H94_6 H 0.329740 0.540821 0.906188
C155_6 C 0.27306(18) 0.5812(2) 0.92689(18)
H95_6 H 0.259479 0.592679 0.931829
C156_6 C 0.29224(18) 0.5764(2) 0.94371(16)
H96_6 H 0.291122 0.583096 0.960866
Zn9_6 Zn 0.24857(2) 0.63706(2) 0.82651(2)
O39_6 O 0.14886(9) 0.52436(9) 0.89914(10)
O43_6 O 0.28346(12) 0.48002(13) 0.73946(12)
O44_6 O 0.21654(12) 0.51998(13) 0.76054(12)
O45_6 O 0.23002(13) 0.48946(12) 0.71654(12)
O46_6 O 0.26054(12) 0.53346(12) 0.73002(13)
Zn6_7 Zn 0.07651(2) 0.49857(2) 0.36294(2)
O25_7 O 0.06643(10) 0.47793(9) 0.33344(8)
N30_7 N 0.05234(10) 0.37658(10) 0.23586(11)
N31_7 N 0.02338(10) 0.38115(10) 0.20680(10)
O29_7 O 0.04880(12) 0.44607(10) 0.35716(10)
N33_7 N 0.04395(10) 0.39256(10) 0.21669(11)
C105_7 C 0.01892(12) 0.35873(11) 0.21940(12)
C111_7 C 0.03779(13) 0.35541(14) 0.23870(12)
H67_7 H 0.039715 0.341562 0.250761
C114_7 C 0.05807(16) 0.45425(14) 0.33612(14)
C119_7 C 0.07529(14) 0.38303(14) 0.25119(13)
H70_7 H 0.088744 0.390326 0.239533
H71_7 H 0.082354 0.366918 0.258960
C121_7 C 0.06979(13) 0.40214(14) 0.27240(13)
C122_7 C 0.06159(14) 0.43658(14) 0.31396(14)
C127_7 C 0.05436(15) 0.39454(14) 0.29393(14)
H77_7 H 0.046499 0.377840 0.294116
C128_7 C 0.05061(15) 0.41152(14) 0.31502(15)
H78_7 H 0.040821 0.406188 0.329740
C129_7 C 0.0812(2) 0.42689(18) 0.27306(18)
H79_7 H 0.092679 0.431829 0.259479
C130_7 C 0.0764(2) 0.44371(16) 0.29224(18)
H80_7 H 0.083096 0.460866 0.291122
O32_7 O 0.14914(10) 0.35114(9) 0.27436(9)
O33_7 O 0.10850(9) 0.34578(9) 0.28894(9)
N36_7 N 0.13080(10) 0.43853(11) 0.38642(10)
N37_7 N 0.01414(11) 0.55234(10) 0.37342(10)
O34_7 O 0.02552(11) 0.42897(10) 0.46574(10)
N38_7 N 0.04320(10) 0.52338(10) 0.36885(10)
N39_7 N 0.06158(10) 0.48598(10) 0.39838(10)
N40_7 N 0.03331(11) 0.54395(10) 0.35744(10)
N41_7 N 0.10400(10) 0.46888(10) 0.37712(10)
N42_7 N 0.12597(11) 0.45815(11) 0.36954(11)
O36_7 O 0.01054(12) 0.46654(12) 0.48002(13)
C131_7 C 0.03060(12) 0.51892(12) 0.39127(11)
C132_7 C 0.07170(12) 0.46525(11) 0.41046(12)
C133_7 C 0.06013(13) 0.45407(12) 0.43229(13)
H81_7 H 0.067520 0.439097 0.440168
C134_7 C 0.14634(13) 0.40444(12) 0.35577(13)
C135_7 C 0.11230(12) 0.43589(13) 0.40448(13)
H82_7 H 0.110952 0.423354 0.417973
C136_7 C 0.03765(13) 0.46514(14) 0.44234(13)
C137_7 C 0.01130(12) 0.53779(13) 0.39459(14)
C138_7 C 0.03920(12) 0.49714(12) 0.40806(12)
C139_7 C 0.02735(14) 0.48766(13) 0.43053(12)
H84_7 H 0.012654 0.496195 0.437738
C141_7 C 0.12141(13) 0.39728(14) 0.35060(14)
H85_7 H 0.107637 0.402905 0.361519
C142_7 C 0.09554(13) 0.45618(12) 0.39845(12)
C143_7 C 0.13711(13) 0.37327(14) 0.31318(14)
C144_7 C 0.13044(14) 0.35566(13) 0.29106(13)
H86_7 H 0.010467 0.588744 0.359674
C146_7 C 0.15242(13) 0.42056(14) 0.38005(13)
H88_7 H 0.155499 0.408765 0.394934
H89_7 H 0.168492 0.430720 0.377102
C149_7 C 0.16604(13) 0.39686(14) 0.33965(14)
H90_7 H 0.183248 0.402504 0.343237
C150_7 C 0.11632(13) 0.38162(13) 0.32912(14)
H91_7 H 0.098997 0.376574 0.325193
C151_7 C 0.02363(15) 0.45319(16) 0.46507(16)
C152_7 C 0.16160(14) 0.38125(15) 0.31831(14)
H92_7 H 0.175580 0.376166 0.307374
Zn9_7 Zn 0.00143(2) 0.63706(2) 0.42349(2)
Zn11_7 Zn 0.13706(2) 0.32651(2) 0.24857(2)
O39_7 O 0.10114(9) 0.52436(9) 0.35086(10)
O42_7 O 0.02436(9) 0.39914(10) 0.14886(9)
O44_7 O 0.03346(12) 0.51998(13) 0.48946(12)
O45_7 O 0.01998(13) 0.48946(12) 0.53346(12)
Zn5_7 Zn 0.99857(2) 0.38706(2) 0.17349(2)
O19_7 O 0.97793(9) 0.41656(8) 0.18357(10)
O20_7 O 0.97564(9) 0.64914(10) 0.39886(9)
O21_7 O 0.96106(9) 0.60850(9) 0.40422(9)
N22_7 N 0.86358(10) 0.63080(10) 0.31147(11)
N23_7 N 0.87658(10) 0.51414(11) 0.19766(10)
O22_7 O 0.78426(10) 0.52552(11) 0.32103(10)
N24_7 N 0.88115(10) 0.54320(10) 0.22662(10)
O23_7 O 0.94607(10) 0.39284(10) 0.20120(12)
N25_7 N 0.85162(10) 0.56158(10) 0.26402(10)
N26_7 N 0.89256(10) 0.53331(11) 0.20605(10)
N27_7 N 0.87288(10) 0.60400(10) 0.28112(10)
N28_7 N 0.88046(11) 0.62597(11) 0.29185(11)
C79_7 C 0.85873(11) 0.53060(12) 0.23108(12)
C80_7 C 0.83954(12) 0.57170(12) 0.28475(11)
C81_7 C 0.81771(13) 0.56013(13) 0.29593(12)
H49_7 H 0.809832 0.567520 0.310903
C82_7 C 0.89423(13) 0.64634(13) 0.34556(12)
C83_7 C 0.84552(13) 0.61230(12) 0.31411(13)
H50_7 H 0.832027 0.610952 0.326646
C84_7 C 0.80766(13) 0.53765(13) 0.28486(14)
C85_7 C 0.85541(14) 0.51130(12) 0.21221(13)
H51_7 H 0.841562 0.499239 0.210285
C86_7 C 0.84194(12) 0.53920(12) 0.25286(12)
C87_7 C 0.81947(12) 0.52735(14) 0.26234(13)
H52_7 H 0.812262 0.512654 0.253805
C88_7 C 0.95425(14) 0.41388(14) 0.19193(16)
C89_7 C 0.89940(14) 0.62141(13) 0.35272(14)
H53_7 H 0.888481 0.607637 0.347095
C90_7 C 0.85155(12) 0.59554(13) 0.29382(12)
C91_7 C 0.93682(14) 0.63711(13) 0.37673(14)
C92_7 C 0.95894(13) 0.63044(14) 0.39434(13)
C93_7 C 0.88303(14) 0.49881(13) 0.17471(14)
H54_7 H 0.890326 0.510467 0.161256
H55_7 H 0.866918 0.491040 0.167646
C94_7 C 0.86995(13) 0.65242(13) 0.32944(14)
H56_7 H 0.855066 0.655499 0.341235
H57_7 H 0.872898 0.668492 0.319280
C95_7 C 0.90214(14) 0.47760(13) 0.18021(13)
C96_7 C 0.93658(14) 0.43604(14) 0.18841(14)
C97_7 C 0.91035(14) 0.66604(13) 0.35314(14)
H58_7 H 0.906763 0.683248 0.347496
C98_7 C 0.92088(14) 0.61632(13) 0.36838(13)
H59_7 H 0.924807 0.598997 0.373426
C99_7 C 0.78493(16) 0.52363(15) 0.29681(16)
C100_7 C 0.93169(14) 0.66160(14) 0.36875(15)
H60_7 H 0.942626 0.675580 0.373834
C101_7 C 0.89454(14) 0.45607(14) 0.19564(15)
H61_7 H 0.877840 0.455884 0.203501
C102_7 C 0.91152(14) 0.43498(15) 0.19939(15)
H62_7 H 0.906188 0.420260 0.209179
C103_7 C 0.92689(18) 0.47694(18) 0.1688(2)
H63_7 H 0.931829 0.490521 0.157321
C104_7 C 0.94371(16) 0.45776(18) 0.1736(2)
H64_7 H 0.960866 0.458878 0.166904
O26_7 O 0.85114(9) 0.47564(9) 0.10086(10)
O27_7 O 0.84578(9) 0.46106(9) 0.14150(9)
N29_7 N 0.93853(11) 0.36358(10) 0.11920(10)
O28_7 O 0.92897(10) 0.28426(10) 0.22448(11)
N32_7 N 0.98598(10) 0.35162(10) 0.18842(10)
N34_7 N 0.96888(10) 0.37288(10) 0.14600(10)
N35_7 N 0.95815(11) 0.38046(11) 0.12403(11)
O30_7 O 0.96654(12) 0.26998(13) 0.23946(12)
C106_7 C 0.96525(11) 0.33954(12) 0.17830(12)
C107_7 C 0.95407(12) 0.31771(13) 0.18987(13)
H65_7 H 0.939097 0.309832 0.182480
C108_7 C 0.90444(12) 0.39423(13) 0.10366(13)
C109_7 C 0.93589(13) 0.34552(13) 0.13770(12)
H66_7 H 0.923354 0.332027 0.139048
C110_7 C 0.96514(14) 0.30766(13) 0.21235(13)
C112_7 C 0.99714(12) 0.34194(12) 0.21080(12)
C113_7 C 0.98766(13) 0.31947(12) 0.22265(14)
H68_7 H 0.996195 0.312262 0.237346
C115_7 C 0.89728(14) 0.39940(14) 0.12859(13)
H69_7 H 0.902905 0.388481 0.142363
C116_7 C 0.95618(12) 0.35155(12) 0.15446(13)
C117_7 C 0.87327(14) 0.43682(14) 0.11289(13)
C118_7 C 0.85566(13) 0.45894(13) 0.11956(14)
C120_7 C 0.92056(14) 0.36995(13) 0.09758(13)
H72_7 H 0.908765 0.355066 0.094501
H73_7 H 0.930720 0.372898 0.081508
C123_7 C 0.89686(14) 0.41035(14) 0.08396(13)
H74_7 H 0.902504 0.406763 0.066752
C124_7 C 0.88162(13) 0.42088(14) 0.13368(13)
H75_7 H 0.876574 0.424807 0.151003
C125_7 C 0.95319(16) 0.28493(16) 0.22637(15)
C126_7 C 0.88125(15) 0.43169(14) 0.08840(14)
H76_7 H 0.876166 0.442626 0.074420
Zn7_7 Zn 0.88706(2) 0.57651(2) 0.25143(2)
O31_7 O 0.91656(8) 0.56643(10) 0.27207(9)
O35_7 O 0.89284(10) 0.54880(12) 0.30393(10)
H83_7 H 0.999239 0.539715 0.408438
C140_7 C 0.91388(14) 0.55807(16) 0.29575(14)
C145_7 C 0.99881(13) 0.57529(14) 0.36697(14)
H87_7 H 0.991040 0.582354 0.383082
C147_7 C 0.97760(13) 0.56979(13) 0.34786(14)
C148_7 C 0.93604(14) 0.56159(14) 0.31342(14)
C153_7 C 0.95607(14) 0.55436(15) 0.35546(14)
H93_7 H 0.955884 0.546499 0.372160
C154_7 C 0.93498(15) 0.55061(15) 0.33848(14)
H94_7 H 0.920260 0.540821 0.343812
C155_7 C 0.97694(18) 0.5812(2) 0.32311(18)
H95_7 H 0.990521 0.592679 0.318171
C156_7 C 0.95776(18) 0.5764(2) 0.30629(16)
H96_7 H 0.958878 0.583096 0.289134
Zn12_7 Zn 0.82651(2) 0.50143(2) 0.11294(2)
O38_7 O 0.89914(10) 0.60114(9) 0.22564(9)
O43_7 O 0.96654(12) 0.48002(13) 0.51054(12)
O46_7 O 0.98946(12) 0.53346(12) 0.51998(13)
N30_8 N 0.05234(10) 0.87342(10) 0.01414(11)
N31_8 N 0.02338(10) 0.86885(10) 0.04320(10)
N33_8 N 0.04395(10) 0.85744(10) 0.03331(11)
C105_8 C 0.01892(12) 0.89127(11) 0.03060(12)
C111_8 C 0.03779(13) 0.89459(14) 0.01130(12)
H70_8 H 0.088744 0.859674 0.010467
Zn11_8 Zn 0.13706(2) 0.92349(2) 0.00143(2)
O42_8 O 0.02436(9) 0.85086(10) 0.10114(9)
Zn6_8 Zn 0.07651(2) 0.75143(2) 0.88706(2)
O25_8 O 0.06643(10) 0.77207(9) 0.91656(8)
O29_8 O 0.04880(12) 0.80393(10) 0.89284(10)
H67_8 H 0.039715 0.908438 0.999239
C114_8 C 0.05807(16) 0.79575(14) 0.91388(14)
C119_8 C 0.07529(14) 0.86697(14) 0.99881(13)
H71_8 H 0.082354 0.883082 0.991040
C121_8 C 0.06979(13) 0.84786(14) 0.97760(13)
C122_8 C 0.06159(14) 0.81342(14) 0.93604(14)
C127_8 C 0.05436(15) 0.85546(14) 0.95607(14)
H77_8 H 0.046499 0.872160 0.955884
C128_8 C 0.05061(15) 0.83848(14) 0.93498(15)
H78_8 H 0.040821 0.843812 0.920260
C129_8 C 0.0812(2) 0.82311(18) 0.97694(18)
H79_8 H 0.092679 0.818171 0.990521
C130_8 C 0.0764(2) 0.80629(16) 0.95776(18)
H80_8 H 0.083096 0.789134 0.958878
O32_8 O 0.14914(10) 0.89886(9) 0.97564(9)
O33_8 O 0.10850(9) 0.90422(9) 0.96106(9)
N36_8 N 0.13080(10) 0.81147(11) 0.86358(10)
N37_8 N 0.01414(11) 0.69766(10) 0.87658(10)
O34_8 O 0.02552(11) 0.82103(10) 0.78426(10)
N38_8 N 0.04320(10) 0.72662(10) 0.88115(10)
N39_8 N 0.06158(10) 0.76402(10) 0.85162(10)
N40_8 N 0.03331(11) 0.70605(10) 0.89256(10)
N41_8 N 0.10400(10) 0.78112(10) 0.87288(10)
N42_8 N 0.12597(11) 0.79185(11) 0.88046(11)
O36_8 O 0.01054(12) 0.78346(12) 0.76998(13)
C131_8 C 0.03060(12) 0.73108(12) 0.85873(11)
C132_8 C 0.07170(12) 0.78475(11) 0.83954(12)
C133_8 C 0.06013(13) 0.79593(12) 0.81771(13)
H81_8 H 0.067520 0.810903 0.809832
C134_8 C 0.14634(13) 0.84556(12) 0.89423(13)
C135_8 C 0.11230(12) 0.81411(13) 0.84552(13)
H82_8 H 0.110952 0.826646 0.832027
C136_8 C 0.03765(13) 0.78486(14) 0.80766(13)
C137_8 C 0.01130(12) 0.71221(13) 0.85541(14)
C138_8 C 0.03920(12) 0.75286(12) 0.84194(12)
C139_8 C 0.02735(14) 0.76234(13) 0.81947(12)
H84_8 H 0.012654 0.753805 0.812262
C141_8 C 0.12141(13) 0.85272(14) 0.89940(14)
H85_8 H 0.107637 0.847095 0.888481
C142_8 C 0.09554(13) 0.79382(12) 0.85155(12)
C143_8 C 0.13711(13) 0.87673(14) 0.93682(14)
C144_8 C 0.13044(14) 0.89434(13) 0.95894(13)
H86_8 H 0.010467 0.661256 0.890326
C146_8 C 0.15242(13) 0.82944(14) 0.86995(13)
H88_8 H 0.155499 0.841235 0.855066
H89_8 H 0.168492 0.819280 0.872898
C149_8 C 0.16604(13) 0.85314(14) 0.91035(14)
H90_8 H 0.183248 0.847496 0.906763
C150_8 C 0.11632(13) 0.86838(13) 0.92088(14)
H91_8 H 0.098997 0.873426 0.924807
C151_8 C 0.02363(15) 0.79681(16) 0.78493(16)
C152_8 C 0.16160(14) 0.86875(15) 0.93169(14)
H92_8 H 0.175580 0.873834 0.942626
Zn9_8 Zn 0.00143(2) 0.61294(2) 0.82651(2)
O39_8 O 0.10114(9) 0.72564(9) 0.89914(10)
O44_8 O 0.03346(12) 0.73002(13) 0.76054(12)
O45_8 O 0.01998(13) 0.76054(12) 0.71654(12)
Zn5_8 Zn 0.99857(2) 0.86294(2) 0.07651(2)
O19_8 O 0.97793(9) 0.83344(8) 0.06643(10)
N23_8 N 0.87658(10) 0.73586(11) 0.05234(10)
N24_8 N 0.88115(10) 0.70680(10) 0.02338(10)
O23_8 O 0.94607(10) 0.85716(10) 0.04880(12)
N26_8 N 0.89256(10) 0.71669(11) 0.04395(10)
C79_8 C 0.85873(11) 0.71940(12) 0.01892(12)
C85_8 C 0.85541(14) 0.73870(12) 0.03779(13)
H51_8 H 0.841562 0.750761 0.039715
C88_8 C 0.95425(14) 0.83612(14) 0.05807(16)
C93_8 C 0.88303(14) 0.75119(13) 0.07529(14)
H54_8 H 0.890326 0.739533 0.088744
H55_8 H 0.866918 0.758960 0.082354
C95_8 C 0.90214(14) 0.77240(13) 0.06979(13)
C96_8 C 0.93658(14) 0.81396(14) 0.06159(14)
C101_8 C 0.89454(14) 0.79393(14) 0.05436(15)
H61_8 H 0.877840 0.794116 0.046499
C102_8 C 0.91152(14) 0.81502(15) 0.05061(15)
H62_8 H 0.906188 0.829740 0.040821
C103_8 C 0.92689(18) 0.77306(18) 0.0812(2)
H63_8 H 0.931829 0.759479 0.092679
C104_8 C 0.94371(16) 0.79224(18) 0.0764(2)
H64_8 H 0.960866 0.791122 0.083096
O26_8 O 0.85114(9) 0.77436(9) 0.14914(10)
O27_8 O 0.84578(9) 0.78894(9) 0.10850(9)
N29_8 N 0.93853(11) 0.88642(10) 0.13080(10)
O28_8 O 0.92897(10) 0.96574(10) 0.02552(11)
N32_8 N 0.98598(10) 0.89838(10) 0.06158(10)
N34_8 N 0.96888(10) 0.87712(10) 0.10400(10)
N35_8 N 0.95815(11) 0.86954(11) 0.12597(11)
O30_8 O 0.96654(12) 0.98002(13) 0.01054(12)
C106_8 C 0.96525(11) 0.91046(12) 0.07170(12)
C107_8 C 0.95407(12) 0.93229(13) 0.06013(13)
H65_8 H 0.939097 0.940168 0.067520
C108_8 C 0.90444(12) 0.85577(13) 0.14634(13)
C109_8 C 0.93589(13) 0.90448(13) 0.11230(12)
H66_8 H 0.923354 0.917973 0.110952
C110_8 C 0.96514(14) 0.94234(13) 0.03765(13)
C112_8 C 0.99714(12) 0.90806(12) 0.03920(12)
C113_8 C 0.98766(13) 0.93053(12) 0.02735(14)
H68_8 H 0.996195 0.937738 0.012654
C115_8 C 0.89728(14) 0.85060(14) 0.12141(13)
H69_8 H 0.902905 0.861519 0.107637
C116_8 C 0.95618(12) 0.89845(12) 0.09554(13)
C117_8 C 0.87327(14) 0.81318(14) 0.13711(13)
C118_8 C 0.85566(13) 0.79106(13) 0.13044(14)
C120_8 C 0.92056(14) 0.88005(13) 0.15242(13)
H72_8 H 0.908765 0.894934 0.155499
H73_8 H 0.930720 0.877102 0.168492
C123_8 C 0.89686(14) 0.83965(14) 0.16604(13)
H74_8 H 0.902504 0.843237 0.183248
C124_8 C 0.88162(13) 0.82912(14) 0.11632(13)
H75_8 H 0.876574 0.825193 0.098997
C125_8 C 0.95319(16) 0.96507(16) 0.02363(15)
C126_8 C 0.88125(15) 0.81831(14) 0.16160(14)
H76_8 H 0.876166 0.807374 0.175580
Zn12_8 Zn 0.82651(2) 0.74857(2) 0.13706(2)
O38_8 O 0.89914(10) 0.64886(9) 0.02436(9)
O20_8 O 0.97564(9) 0.60086(10) 0.85114(9)
O21_8 O 0.96106(9) 0.64150(9) 0.84578(9)
N22_8 N 0.86358(10) 0.61920(10) 0.93853(11)
O22_8 O 0.78426(10) 0.72448(11) 0.92897(10)
N25_8 N 0.85162(10) 0.68842(10) 0.98598(10)
N27_8 N 0.87288(10) 0.64600(10) 0.96888(10)
N28_8 N 0.88046(11) 0.62403(11) 0.95815(11)
C80_8 C 0.83954(12) 0.67830(12) 0.96525(11)
C81_8 C 0.81771(13) 0.68987(13) 0.95407(12)
H49_8 H 0.809832 0.682480 0.939097
C82_8 C 0.89423(13) 0.60366(13) 0.90444(12)
C83_8 C 0.84552(13) 0.63770(12) 0.93589(13)
H50_8 H 0.832027 0.639048 0.923354
C84_8 C 0.80766(13) 0.71235(13) 0.96514(14)
C86_8 C 0.84194(12) 0.71080(12) 0.99714(12)
C87_8 C 0.81947(12) 0.72265(14) 0.98766(13)
H52_8 H 0.812262 0.737346 0.996195
C89_8 C 0.89940(14) 0.62859(13) 0.89728(14)
H53_8 H 0.888481 0.642363 0.902905
C90_8 C 0.85155(12) 0.65446(13) 0.95618(12)
C91_8 C 0.93682(14) 0.61289(13) 0.87327(14)
C92_8 C 0.95894(13) 0.61956(14) 0.85566(13)
C94_8 C 0.86995(13) 0.59758(13) 0.92056(14)
H56_8 H 0.855066 0.594501 0.908765
H57_8 H 0.872898 0.581508 0.930720
C97_8 C 0.91035(14) 0.58396(13) 0.89686(14)
H58_8 H 0.906763 0.566752 0.902504
C98_8 C 0.92088(14) 0.63368(13) 0.88162(13)
H59_8 H 0.924807 0.651003 0.876574
C99_8 C 0.78493(16) 0.72637(15) 0.95319(16)
C100_8 C 0.93169(14) 0.58840(14) 0.88125(15)
H60_8 H 0.942626 0.574420 0.876166
Zn7_8 Zn 0.88706(2) 0.67349(2) 0.99857(2)
O31_8 O 0.91656(8) 0.68357(10) 0.97793(9)
O35_8 O 0.89284(10) 0.70120(12) 0.94607(10)
H83_8 H 0.999239 0.710285 0.841562
C140_8 C 0.91388(14) 0.69193(16) 0.95425(14)
C145_8 C 0.99881(13) 0.67471(14) 0.88303(14)
H87_8 H 0.991040 0.667646 0.866918
C147_8 C 0.97760(13) 0.68021(13) 0.90214(14)
C148_8 C 0.93604(14) 0.68841(14) 0.93658(14)
C153_8 C 0.95607(14) 0.69564(15) 0.89454(14)
H93_8 H 0.955884 0.703501 0.877840
C154_8 C 0.93498(15) 0.69939(15) 0.91152(14)
H94_8 H 0.920260 0.709179 0.906188
C155_8 C 0.97694(18) 0.6688(2) 0.92689(18)
H95_8 H 0.990521 0.657321 0.931829
C156_8 C 0.95776(18) 0.6736(2) 0.94371(16)
H96_8 H 0.958878 0.666904 0.960866
O43_8 O 0.96654(12) 0.76998(13) 0.73946(12)
O46_8 O 0.98946(12) 0.71654(12) 0.73002(13)
Zn5_9 Zn 0.17349(2) 0.25143(2) 0.86294(2)
O19_9 O 0.18357(10) 0.27207(9) 0.83344(8)
O20_9 O 0.39886(9) 0.27436(9) 0.60086(10)
O21_9 O 0.40422(9) 0.28894(9) 0.64150(9)
N22_9 N 0.31147(11) 0.38642(10) 0.61920(10)
N23_9 N 0.19766(10) 0.37342(10) 0.73586(11)
O22_9 O 0.32103(10) 0.46574(10) 0.72448(11)
N24_9 N 0.22662(10) 0.36885(10) 0.70680(10)
O23_9 O 0.20120(12) 0.30393(10) 0.85716(10)
N25_9 N 0.26402(10) 0.39838(10) 0.68842(10)
N26_9 N 0.20605(10) 0.35744(10) 0.71669(11)
N27_9 N 0.28112(10) 0.37712(10) 0.64600(10)
N28_9 N 0.29185(11) 0.36954(11) 0.62403(11)
C79_9 C 0.23108(12) 0.39127(11) 0.71940(12)
C80_9 C 0.28475(11) 0.41046(12) 0.67830(12)
C81_9 C 0.29593(12) 0.43229(13) 0.68987(13)
H49_9 H 0.310903 0.440168 0.682480
C82_9 C 0.34556(12) 0.35577(13) 0.60366(13)
C83_9 C 0.31411(13) 0.40448(13) 0.63770(12)
H50_9 H 0.326646 0.417973 0.639048
C84_9 C 0.28486(14) 0.44234(13) 0.71235(13)
C85_9 C 0.21221(13) 0.39459(14) 0.73870(12)
H51_9 H 0.210285 0.408438 0.750761
C86_9 C 0.25286(12) 0.40806(12) 0.71080(12)
C87_9 C 0.26234(13) 0.43053(12) 0.72265(14)
H52_9 H 0.253805 0.437738 0.737346
C88_9 C 0.19193(16) 0.29575(14) 0.83612(14)
C89_9 C 0.35272(14) 0.35060(14) 0.62859(13)
H53_9 H 0.347095 0.361519 0.642363
C90_9 C 0.29382(12) 0.39845(12) 0.65446(13)
C91_9 C 0.37673(14) 0.31318(14) 0.61289(13)
C92_9 C 0.39434(13) 0.29106(13) 0.61956(14)
C93_9 C 0.17471(14) 0.36697(14) 0.75119(13)
H54_9 H 0.161256 0.359674 0.739533
H55_9 H 0.167646 0.383082 0.758960
C94_9 C 0.32944(14) 0.38005(13) 0.59758(13)
H56_9 H 0.341235 0.394934 0.594501
H57_9 H 0.319280 0.377102 0.581508
C95_9 C 0.18021(13) 0.34786(14) 0.77240(13)
C96_9 C 0.18841(14) 0.31342(14) 0.81396(14)
C97_9 C 0.35314(14) 0.33965(14) 0.58396(13)
H58_9 H 0.347496 0.343237 0.566752
C98_9 C 0.36838(13) 0.32912(14) 0.63368(13)
H59_9 H 0.373426 0.325193 0.651003
C99_9 C 0.29681(16) 0.46507(16) 0.72637(15)
C100_9 C 0.36875(15) 0.31831(14) 0.58840(14)
H60_9 H 0.373834 0.307374 0.574420
C101_9 C 0.19564(15) 0.35546(14) 0.79393(14)
H61_9 H 0.203501 0.372160 0.794116
C102_9 C 0.19939(15) 0.33848(14) 0.81502(15)
H62_9 H 0.209179 0.343812 0.829740
C103_9 C 0.1688(2) 0.32311(18) 0.77306(18)
H63_9 H 0.157321 0.318171 0.759479
C104_9 C 0.1736(2) 0.30629(16) 0.79224(18)
H64_9 H 0.166904 0.289134 0.791122
Zn6_9 Zn 0.36294(2) 0.17349(2) 0.75143(2)
O25_9 O 0.33344(8) 0.18357(10) 0.77207(9)
O26_9 O 0.10086(10) 0.39886(9) 0.77436(9)
O27_9 O 0.14150(9) 0.40422(9) 0.78894(9)
N29_9 N 0.11920(10) 0.31147(11) 0.88642(10)
N30_9 N 0.23586(11) 0.19766(10) 0.87342(10)
O28_9 O 0.22448(11) 0.32103(10) 0.96574(10)
N31_9 N 0.20680(10) 0.22662(10) 0.86885(10)
O29_9 O 0.35716(10) 0.20120(12) 0.80393(10)
N32_9 N 0.18842(10) 0.26402(10) 0.89838(10)
N33_9 N 0.21669(11) 0.20605(10) 0.85744(10)
N34_9 N 0.14600(10) 0.28112(10) 0.87712(10)
N35_9 N 0.12403(11) 0.29185(11) 0.86954(11)
O30_9 O 0.23946(12) 0.28346(12) 0.98002(13)
C105_9 C 0.21940(12) 0.23108(12) 0.89127(11)
C106_9 C 0.17830(12) 0.28475(11) 0.91046(12)
C107_9 C 0.18987(13) 0.29593(12) 0.93229(13)
H65_9 H 0.182480 0.310903 0.940168
C108_9 C 0.10366(13) 0.34556(12) 0.85577(13)
C109_9 C 0.13770(12) 0.31411(13) 0.90448(13)
H66_9 H 0.139048 0.326646 0.917973
C110_9 C 0.21235(13) 0.28486(14) 0.94234(13)
C111_9 C 0.23870(12) 0.21221(13) 0.89459(14)
H67_9 H 0.250761 0.210285 0.908438
C112_9 C 0.21080(12) 0.25286(12) 0.90806(12)
C113_9 C 0.22265(14) 0.26234(13) 0.93053(12)
H68_9 H 0.237346 0.253805 0.937738
C114_9 C 0.33612(14) 0.19193(16) 0.79575(14)
C115_9 C 0.12859(13) 0.35272(14) 0.85060(14)
H69_9 H 0.142363 0.347095 0.861519
C116_9 C 0.15446(13) 0.29382(12) 0.89845(12)
C117_9 C 0.11289(13) 0.37673(14) 0.81318(14)
C118_9 C 0.11956(14) 0.39434(13) 0.79106(13)
C119_9 C 0.25119(13) 0.17471(14) 0.86697(14)
H70_9 H 0.239533 0.161256 0.859674
H71_9 H 0.258960 0.167646 0.883082
C120_9 C 0.09758(13) 0.32944(14) 0.88005(13)
H72_9 H 0.094501 0.341235 0.894934
H73_9 H 0.081508 0.319280 0.877102
C121_9 C 0.27240(13) 0.18021(13) 0.84786(14)
C122_9 C 0.31396(14) 0.18841(14) 0.81342(14)
C123_9 C 0.08396(13) 0.35314(14) 0.83965(14)
H74_9 H 0.066752 0.347496 0.843237
C124_9 C 0.13368(13) 0.36838(13) 0.82912(14)
H75_9 H 0.151003 0.373426 0.825193
C125_9 C 0.22637(15) 0.29681(16) 0.96507(16)
C126_9 C 0.08840(14) 0.36875(15) 0.81831(14)
H76_9 H 0.074420 0.373834 0.807374
C127_9 C 0.29393(14) 0.19564(15) 0.85546(14)
H77_9 H 0.294116 0.203501 0.872160
C128_9 C 0.31502(15) 0.19939(15) 0.83848(14)
H78_9 H 0.329740 0.209179 0.843812
C129_9 C 0.27306(18) 0.1688(2) 0.82311(18)
H79_9 H 0.259479 0.157321 0.818171
C130_9 C 0.29224(18) 0.1736(2) 0.80629(16)
H80_9 H 0.291122 0.166904 0.789134
Zn7_9 Zn 0.25143(2) 0.36294(2) 0.67349(2)
O31_9 O 0.27207(9) 0.33344(8) 0.68357(10)
O32_9 O 0.27436(9) 0.10086(10) 0.89886(9)
O33_9 O 0.28894(9) 0.14150(9) 0.90422(9)
N36_9 N 0.38642(10) 0.11920(10) 0.81147(11)
N37_9 N 0.37342(10) 0.23586(11) 0.69766(10)
O34_9 O 0.46574(10) 0.22448(11) 0.82103(10)
N38_9 N 0.36885(10) 0.20680(10) 0.72662(10)
O35_9 O 0.30393(10) 0.35716(10) 0.70120(12)
N39_9 N 0.39838(10) 0.18842(10) 0.76402(10)
N40_9 N 0.35744(10) 0.21669(11) 0.70605(10)
N41_9 N 0.37712(10) 0.14600(10) 0.78112(10)
N42_9 N 0.36954(11) 0.12403(11) 0.79185(11)
O36_9 O 0.48002(13) 0.23946(12) 0.78346(12)
C131_9 C 0.39127(11) 0.21940(12) 0.73108(12)
C132_9 C 0.41046(12) 0.17830(12) 0.78475(11)
C133_9 C 0.43229(13) 0.18987(13) 0.79593(12)
H81_9 H 0.440168 0.182480 0.810903
C134_9 C 0.35577(13) 0.10366(13) 0.84556(12)
C135_9 C 0.40448(13) 0.13770(12) 0.81411(13)
H82_9 H 0.417973 0.139048 0.826646
C136_9 C 0.44234(13) 0.21235(13) 0.78486(14)
C137_9 C 0.39459(14) 0.23870(12) 0.71221(13)
H83_9 H 0.408438 0.250761 0.710285
C138_9 C 0.40806(12) 0.21080(12) 0.75286(12)
C139_9 C 0.43053(12) 0.22265(14) 0.76234(13)
H84_9 H 0.437738 0.237346 0.753805
C140_9 C 0.29575(14) 0.33612(14) 0.69193(16)
C141_9 C 0.35060(14) 0.12859(13) 0.85272(14)
H85_9 H 0.361519 0.142363 0.847095
C142_9 C 0.39845(12) 0.15446(13) 0.79382(12)
C143_9 C 0.31318(14) 0.11289(13) 0.87673(14)
C144_9 C 0.29106(13) 0.11956(14) 0.89434(13)
C145_9 C 0.36697(14) 0.25119(13) 0.67471(14)
H86_9 H 0.359674 0.239533 0.661256
H87_9 H 0.383082 0.258960 0.667646
C146_9 C 0.38005(13) 0.09758(13) 0.82944(14)
H88_9 H 0.394934 0.094501 0.841235
H89_9 H 0.377102 0.081508 0.819280
C147_9 C 0.34786(14) 0.27240(13) 0.68021(13)
C148_9 C 0.31342(14) 0.31396(14) 0.68841(14)
C149_9 C 0.33965(14) 0.08396(13) 0.85314(14)
H90_9 H 0.343237 0.066752 0.847496
C150_9 C 0.32912(14) 0.13368(13) 0.86838(13)
H91_9 H 0.325193 0.151003 0.873426
C151_9 C 0.46507(16) 0.22637(15) 0.79681(16)
C152_9 C 0.31831(14) 0.08840(14) 0.86875(15)
H92_9 H 0.307374 0.074420 0.873834
C153_9 C 0.35546(14) 0.29393(14) 0.69564(15)
H93_9 H 0.372160 0.294116 0.703501
C154_9 C 0.33848(14) 0.31502(15) 0.69939(15)
H94_9 H 0.343812 0.329740 0.709179
C155_9 C 0.32311(18) 0.27306(18) 0.6688(2)
H95_9 H 0.318171 0.259479 0.657321
C156_9 C 0.30629(16) 0.29224(18) 0.6736(2)
H96_9 H 0.289134 0.291122 0.666904
Zn9_9 Zn 0.42349(2) 0.24857(2) 0.61294(2)
Zn11_9 Zn 0.24857(2) 0.11294(2) 0.92349(2)
Zn12_9 Zn 0.11294(2) 0.42349(2) 0.74857(2)
O38_9 O 0.22564(9) 0.35086(10) 0.64886(9)
O39_9 O 0.35086(10) 0.14886(9) 0.72564(9)
O42_9 O 0.14886(9) 0.22564(9) 0.85086(10)
O44_9 O 0.48946(12) 0.21654(12) 0.73002(13)
O45_9 O 0.53346(12) 0.23002(13) 0.76054(12)
O46_9 O 0.51998(13) 0.26054(12) 0.71654(12)
Zn5_10 Zn 0.07651(2) 0.25143(2) 0.38706(2)
O19_10 O 0.06643(10) 0.27207(9) 0.41656(8)
N23_10 N 0.05234(10) 0.37342(10) 0.51414(11)
N24_10 N 0.02338(10) 0.36885(10) 0.54320(10)
O23_10 O 0.04880(12) 0.30393(10) 0.39284(10)
N26_10 N 0.04395(10) 0.35744(10) 0.53331(11)
C79_10 C 0.01892(12) 0.39127(11) 0.53060(12)
C85_10 C 0.03779(13) 0.39459(14) 0.51130(12)
H51_10 H 0.039715 0.408438 0.499239
C88_10 C 0.05807(16) 0.29575(14) 0.41388(14)
C93_10 C 0.07529(14) 0.36697(14) 0.49881(13)
H54_10 H 0.088744 0.359674 0.510467
H55_10 H 0.082354 0.383082 0.491040
C95_10 C 0.06979(13) 0.34786(14) 0.47760(13)
C96_10 C 0.06159(14) 0.31342(14) 0.43604(14)
C101_10 C 0.05436(15) 0.35546(14) 0.45607(14)
H61_10 H 0.046499 0.372160 0.455884
C102_10 C 0.05061(15) 0.33848(14) 0.43498(15)
H62_10 H 0.040821 0.343812 0.420260
C103_10 C 0.0812(2) 0.32311(18) 0.47694(18)
H63_10 H 0.092679 0.318171 0.490521
C104_10 C 0.0764(2) 0.30629(16) 0.45776(18)
H64_10 H 0.083096 0.289134 0.458878
O26_10 O 0.14914(10) 0.39886(9) 0.47564(9)
O27_10 O 0.10850(9) 0.40422(9) 0.46106(9)
N29_10 N 0.13080(10) 0.31147(11) 0.36358(10)
N30_10 N 0.01414(11) 0.19766(10) 0.37658(10)
O28_10 O 0.02552(11) 0.32103(10) 0.28426(10)
N31_10 N 0.04320(10) 0.22662(10) 0.38115(10)
N32_10 N 0.06158(10) 0.26402(10) 0.35162(10)
N33_10 N 0.03331(11) 0.20605(10) 0.39256(10)
N34_10 N 0.10400(10) 0.28112(10) 0.37288(10)
N35_10 N 0.12597(11) 0.29185(11) 0.38046(11)
O30_10 O 0.01054(12) 0.28346(12) 0.26998(13)
C105_10 C 0.03060(12) 0.23108(12) 0.35873(11)
C106_10 C 0.07170(12) 0.28475(11) 0.33954(12)
C107_10 C 0.06013(13) 0.29593(12) 0.31771(13)
H65_10 H 0.067520 0.310903 0.309832
C108_10 C 0.14634(13) 0.34556(12) 0.39423(13)
C109_10 C 0.11230(12) 0.31411(13) 0.34552(13)
H66_10 H 0.110952 0.326646 0.332027
C110_10 C 0.03765(13) 0.28486(14) 0.30766(13)
C111_10 C 0.01130(12) 0.21221(13) 0.35541(14)
C112_10 C 0.03920(12) 0.25286(12) 0.34194(12)
C113_10 C 0.02735(14) 0.26234(13) 0.31947(12)
H68_10 H 0.012654 0.253805 0.312262
C115_10 C 0.12141(13) 0.35272(14) 0.39940(14)
H69_10 H 0.107637 0.347095 0.388481
C116_10 C 0.09554(13) 0.29382(12) 0.35155(12)
C117_10 C 0.13711(13) 0.37673(14) 0.43682(14)
C118_10 C 0.13044(14) 0.39434(13) 0.45894(13)
H70_10 H 0.010467 0.161256 0.390326
C120_10 C 0.15242(13) 0.32944(14) 0.36995(13)
H72_10 H 0.155499 0.341235 0.355066
H73_10 H 0.168492 0.319280 0.372898
C123_10 C 0.16604(13) 0.35314(14) 0.41035(14)
H74_10 H 0.183248 0.347496 0.406763
C124_10 C 0.11632(13) 0.36838(13) 0.42088(14)
H75_10 H 0.098997 0.373426 0.424807
C125_10 C 0.02363(15) 0.29681(16) 0.28493(16)
C126_10 C 0.16160(14) 0.36875(15) 0.43169(14)
H76_10 H 0.175580 0.373834 0.442626
Zn11_10 Zn 0.00143(2) 0.11294(2) 0.32651(2)
Zn12_10 Zn 0.13706(2) 0.42349(2) 0.50143(2)
O38_10 O 0.02436(9) 0.35086(10) 0.60114(9)
O42_10 O 0.10114(9) 0.22564(9) 0.39914(10)
O20_10 O 0.85114(9) 0.27436(9) 0.64914(10)
O21_10 O 0.84578(9) 0.28894(9) 0.60850(9)
N22_10 N 0.93853(11) 0.38642(10) 0.63080(10)
O22_10 O 0.92897(10) 0.46574(10) 0.52552(11)
N25_10 N 0.98598(10) 0.39838(10) 0.56158(10)
N27_10 N 0.96888(10) 0.37712(10) 0.60400(10)
N28_10 N 0.95815(11) 0.36954(11) 0.62597(11)
C80_10 C 0.96525(11) 0.41046(12) 0.57170(12)
C81_10 C 0.95407(12) 0.43229(13) 0.56013(13)
H49_10 H 0.939097 0.440168 0.567520
C82_10 C 0.90444(12) 0.35577(13) 0.64634(13)
C83_10 C 0.93589(13) 0.40448(13) 0.61230(12)
H50_10 H 0.923354 0.417973 0.610952
C84_10 C 0.96514(14) 0.44234(13) 0.53765(13)
C86_10 C 0.99714(12) 0.40806(12) 0.53920(12)
C87_10 C 0.98766(13) 0.43053(12) 0.52735(14)
H52_10 H 0.996195 0.437738 0.512654
C89_10 C 0.89728(14) 0.35060(14) 0.62141(13)
H53_10 H 0.902905 0.361519 0.607637
C90_10 C 0.95618(12) 0.39845(12) 0.59554(13)
C91_10 C 0.87327(14) 0.31318(14) 0.63711(13)
C92_10 C 0.85566(13) 0.29106(13) 0.63044(14)
C94_10 C 0.92056(14) 0.38005(13) 0.65242(13)
H56_10 H 0.908765 0.394934 0.655499
H57_10 H 0.930720 0.377102 0.668492
C97_10 C 0.89686(14) 0.33965(14) 0.66604(13)
H58_10 H 0.902504 0.343237 0.683248
C98_10 C 0.88162(13) 0.32912(14) 0.61632(13)
H59_10 H 0.876574 0.325193 0.598997
C99_10 C 0.95319(16) 0.46507(16) 0.52363(15)
C100_10 C 0.88125(15) 0.31831(14) 0.66160(14)
H60_10 H 0.876166 0.307374 0.675580
Zn6_10 Zn 0.88706(2) 0.17349(2) 0.49857(2)
O25_10 O 0.91656(8) 0.18357(10) 0.47793(9)
O29_10 O 0.89284(10) 0.20120(12) 0.44607(10)
H67_10 H 0.999239 0.210285 0.341562
C114_10 C 0.91388(14) 0.19193(16) 0.45425(14)
C119_10 C 0.99881(13) 0.17471(14) 0.38303(14)
H71_10 H 0.991040 0.167646 0.366918
C121_10 C 0.97760(13) 0.18021(13) 0.40214(14)
C122_10 C 0.93604(14) 0.18841(14) 0.43658(14)
C127_10 C 0.95607(14) 0.19564(15) 0.39454(14)
H77_10 H 0.955884 0.203501 0.377840
C128_10 C 0.93498(15) 0.19939(15) 0.41152(14)
H78_10 H 0.920260 0.209179 0.406188
C129_10 C 0.97694(18) 0.1688(2) 0.42689(18)
H79_10 H 0.990521 0.157321 0.431829
C130_10 C 0.95776(18) 0.1736(2) 0.44371(16)
H80_10 H 0.958878 0.166904 0.460866
Zn7_10 Zn 0.99857(2) 0.36294(2) 0.57651(2)
O31_10 O 0.97793(9) 0.33344(8) 0.56643(10)
O32_10 O 0.97564(9) 0.10086(10) 0.35114(9)
O33_10 O 0.96106(9) 0.14150(9) 0.34578(9)
N36_10 N 0.86358(10) 0.11920(10) 0.43853(11)
N37_10 N 0.87658(10) 0.23586(11) 0.55234(10)
O34_10 O 0.78426(10) 0.22448(11) 0.42897(10)
N38_10 N 0.88115(10) 0.20680(10) 0.52338(10)
O35_10 O 0.94607(10) 0.35716(10) 0.54880(12)
N39_10 N 0.85162(10) 0.18842(10) 0.48598(10)
N40_10 N 0.89256(10) 0.21669(11) 0.54395(10)
N41_10 N 0.87288(10) 0.14600(10) 0.46888(10)
N42_10 N 0.88046(11) 0.12403(11) 0.45815(11)
O36_10 O 0.76998(13) 0.23946(12) 0.46654(12)
C131_10 C 0.85873(11) 0.21940(12) 0.51892(12)
C132_10 C 0.83954(12) 0.17830(12) 0.46525(11)
C133_10 C 0.81771(13) 0.18987(13) 0.45407(12)
H81_10 H 0.809832 0.182480 0.439097
C134_10 C 0.89423(13) 0.10366(13) 0.40444(12)
C135_10 C 0.84552(13) 0.13770(12) 0.43589(13)
H82_10 H 0.832027 0.139048 0.423354
C136_10 C 0.80766(13) 0.21235(13) 0.46514(14)
C137_10 C 0.85541(14) 0.23870(12) 0.53779(13)
H83_10 H 0.841562 0.250761 0.539715
C138_10 C 0.84194(12) 0.21080(12) 0.49714(12)
C139_10 C 0.81947(12) 0.22265(14) 0.48766(13)
H84_10 H 0.812262 0.237346 0.496195
C140_10 C 0.95425(14) 0.33612(14) 0.55807(16)
C141_10 C 0.89940(14) 0.12859(13) 0.39728(14)
H85_10 H 0.888481 0.142363 0.402905
C142_10 C 0.85155(12) 0.15446(13) 0.45618(12)
C143_10 C 0.93682(14) 0.11289(13) 0.37327(14)
C144_10 C 0.95894(13) 0.11956(14) 0.35566(13)
C145_10 C 0.88303(14) 0.25119(13) 0.57529(14)
H86_10 H 0.890326 0.239533 0.588744
H87_10 H 0.866918 0.258960 0.582354
C146_10 C 0.86995(13) 0.09758(13) 0.42056(14)
H88_10 H 0.855066 0.094501 0.408765
H89_10 H 0.872898 0.081508 0.430720
C147_10 C 0.90214(14) 0.27240(13) 0.56979(13)
C148_10 C 0.93658(14) 0.31396(14) 0.56159(14)
C149_10 C 0.91035(14) 0.08396(13) 0.39686(14)
H90_10 H 0.906763 0.066752 0.402504
C150_10 C 0.92088(14) 0.13368(13) 0.38162(13)
H91_10 H 0.924807 0.151003 0.376574
C151_10 C 0.78493(16) 0.22637(15) 0.45319(16)
C152_10 C 0.93169(14) 0.08840(14) 0.38125(15)
H92_10 H 0.942626 0.074420 0.376166
C153_10 C 0.89454(14) 0.29393(14) 0.55436(15)
H93_10 H 0.877840 0.294116 0.546499
C154_10 C 0.91152(14) 0.31502(15) 0.55061(15)
H94_10 H 0.906188 0.329740 0.540821
C155_10 C 0.92689(18) 0.27306(18) 0.5812(2)
H95_10 H 0.931829 0.259479 0.592679
C156_10 C 0.94371(16) 0.29224(18) 0.5764(2)
H96_10 H 0.960866 0.291122 0.583096
Zn9_10 Zn 0.82651(2) 0.24857(2) 0.63706(2)
O39_10 O 0.89914(10) 0.14886(9) 0.52436(9)
O44_10 O 0.76054(12) 0.21654(12) 0.51998(13)
O45_10 O 0.71654(12) 0.23002(13) 0.48946(12)
O46_10 O 0.73002(13) 0.26054(12) 0.53346(12)
Zn6_11 Zn 0.36294(2) 0.07651(2) 0.49857(2)
O25_11 O 0.33344(8) 0.06643(10) 0.47793(9)
N30_11 N 0.23586(11) 0.05234(10) 0.37658(10)
N31_11 N 0.20680(10) 0.02338(10) 0.38115(10)
O29_11 O 0.35716(10) 0.04880(12) 0.44607(10)
N33_11 N 0.21669(11) 0.04395(10) 0.39256(10)
C105_11 C 0.21940(12) 0.01892(12) 0.35873(11)
C111_11 C 0.23870(12) 0.03779(13) 0.35541(14)
H67_11 H 0.250761 0.039715 0.341562
C114_11 C 0.33612(14) 0.05807(16) 0.45425(14)
C119_11 C 0.25119(13) 0.07529(14) 0.38303(14)
H70_11 H 0.239533 0.088744 0.390326
H71_11 H 0.258960 0.082354 0.366918
C121_11 C 0.27240(13) 0.06979(13) 0.40214(14)
C122_11 C 0.31396(14) 0.06159(14) 0.43658(14)
C127_11 C 0.29393(14) 0.05436(15) 0.39454(14)
H77_11 H 0.294116 0.046499 0.377840
C128_11 C 0.31502(15) 0.05061(15) 0.41152(14)
H78_11 H 0.329740 0.040821 0.406188
C129_11 C 0.27306(18) 0.0812(2) 0.42689(18)
H79_11 H 0.259479 0.092679 0.431829
C130_11 C 0.29224(18) 0.0764(2) 0.44371(16)
H80_11 H 0.291122 0.083096 0.460866
O32_11 O 0.27436(9) 0.14914(10) 0.35114(9)
O33_11 O 0.28894(9) 0.10850(9) 0.34578(9)
N36_11 N 0.38642(10) 0.13080(10) 0.43853(11)
N37_11 N 0.37342(10) 0.01414(11) 0.55234(10)
O34_11 O 0.46574(10) 0.02552(11) 0.42897(10)
N38_11 N 0.36885(10) 0.04320(10) 0.52338(10)
N39_11 N 0.39838(10) 0.06158(10) 0.48598(10)
N40_11 N 0.35744(10) 0.03331(11) 0.54395(10)
N41_11 N 0.37712(10) 0.10400(10) 0.46888(10)
N42_11 N 0.36954(11) 0.12597(11) 0.45815(11)
O36_11 O 0.48002(13) 0.01054(12) 0.46654(12)
C131_11 C 0.39127(11) 0.03060(12) 0.51892(12)
C132_11 C 0.41046(12) 0.07170(12) 0.46525(11)
C133_11 C 0.43229(13) 0.06013(13) 0.45407(12)
H81_11 H 0.440168 0.067520 0.439097
C134_11 C 0.35577(13) 0.14634(13) 0.40444(12)
C135_11 C 0.40448(13) 0.11230(12) 0.43589(13)
H82_11 H 0.417973 0.110952 0.423354
C136_11 C 0.44234(13) 0.03765(13) 0.46514(14)
C137_11 C 0.39459(14) 0.01130(12) 0.53779(13)
C138_11 C 0.40806(12) 0.03920(12) 0.49714(12)
C139_11 C 0.43053(12) 0.02735(14) 0.48766(13)
H84_11 H 0.437738 0.012654 0.496195
C141_11 C 0.35060(14) 0.12141(13) 0.39728(14)
H85_11 H 0.361519 0.107637 0.402905
C142_11 C 0.39845(12) 0.09554(13) 0.45618(12)
C143_11 C 0.31318(14) 0.13711(13) 0.37327(14)
C144_11 C 0.29106(13) 0.13044(14) 0.35566(13)
H86_11 H 0.359674 0.010467 0.588744
C146_11 C 0.38005(13) 0.15242(13) 0.42056(14)
H88_11 H 0.394934 0.155499 0.408765
H89_11 H 0.377102 0.168492 0.430720
C149_11 C 0.33965(14) 0.16604(13) 0.39686(14)
H90_11 H 0.343237 0.183248 0.402504
C150_11 C 0.32912(14) 0.11632(13) 0.38162(13)
H91_11 H 0.325193 0.098997 0.376574
C151_11 C 0.46507(16) 0.02363(15) 0.45319(16)
C152_11 C 0.31831(14) 0.16160(14) 0.38125(15)
H92_11 H 0.307374 0.175580 0.376166
Zn9_11 Zn 0.42349(2) 0.00143(2) 0.63706(2)
Zn11_11 Zn 0.24857(2) 0.13706(2) 0.32651(2)
O39_11 O 0.35086(10) 0.10114(9) 0.52436(9)
O42_11 O 0.14886(9) 0.02436(9) 0.39914(10)
O44_11 O 0.48946(12) 0.03346(12) 0.51998(13)
O45_11 O 0.53346(12) 0.01998(13) 0.48946(12)
Zn5_11 Zn 0.17349(2) 0.99857(2) 0.38706(2)
O19_11 O 0.18357(10) 0.97793(9) 0.41656(8)
O20_11 O 0.39886(9) 0.97564(9) 0.64914(10)
O21_11 O 0.40422(9) 0.96106(9) 0.60850(9)
N22_11 N 0.31147(11) 0.86358(10) 0.63080(10)
N23_11 N 0.19766(10) 0.87658(10) 0.51414(11)
O22_11 O 0.32103(10) 0.78426(10) 0.52552(11)
N24_11 N 0.22662(10) 0.88115(10) 0.54320(10)
O23_11 O 0.20120(12) 0.94607(10) 0.39284(10)
N25_11 N 0.26402(10) 0.85162(10) 0.56158(10)
N26_11 N 0.20605(10) 0.89256(10) 0.53331(11)
N27_11 N 0.28112(10) 0.87288(10) 0.60400(10)
N28_11 N 0.29185(11) 0.88046(11) 0.62597(11)
C79_11 C 0.23108(12) 0.85873(11) 0.53060(12)
C80_11 C 0.28475(11) 0.83954(12) 0.57170(12)
C81_11 C 0.29593(12) 0.81771(13) 0.56013(13)
H49_11 H 0.310903 0.809832 0.567520
C82_11 C 0.34556(12) 0.89423(13) 0.64634(13)
C83_11 C 0.31411(13) 0.84552(13) 0.61230(12)
H50_11 H 0.326646 0.832027 0.610952
C84_11 C 0.28486(14) 0.80766(13) 0.53765(13)
C85_11 C 0.21221(13) 0.85541(14) 0.51130(12)
H51_11 H 0.210285 0.841562 0.499239
C86_11 C 0.25286(12) 0.84194(12) 0.53920(12)
C87_11 C 0.26234(13) 0.81947(12) 0.52735(14)
H52_11 H 0.253805 0.812262 0.512654
C88_11 C 0.19193(16) 0.95425(14) 0.41388(14)
C89_11 C 0.35272(14) 0.89940(14) 0.62141(13)
H53_11 H 0.347095 0.888481 0.607637
C90_11 C 0.29382(12) 0.85155(12) 0.59554(13)
C91_11 C 0.37673(14) 0.93682(14) 0.63711(13)
C92_11 C 0.39434(13) 0.95894(13) 0.63044(14)
C93_11 C 0.17471(14) 0.88303(14) 0.49881(13)
H54_11 H 0.161256 0.890326 0.510467
H55_11 H 0.167646 0.866918 0.491040
C94_11 C 0.32944(14) 0.86995(13) 0.65242(13)
H56_11 H 0.341235 0.855066 0.655499
H57_11 H 0.319280 0.872898 0.668492
C95_11 C 0.18021(13) 0.90214(14) 0.47760(13)
C96_11 C 0.18841(14) 0.93658(14) 0.43604(14)
C97_11 C 0.35314(14) 0.91035(14) 0.66604(13)
H58_11 H 0.347496 0.906763 0.683248
C98_11 C 0.36838(13) 0.92088(14) 0.61632(13)
H59_11 H 0.373426 0.924807 0.598997
C99_11 C 0.29681(16) 0.78493(16) 0.52363(15)
C100_11 C 0.36875(15) 0.93169(14) 0.66160(14)
H60_11 H 0.373834 0.942626 0.675580
C101_11 C 0.19564(15) 0.89454(14) 0.45607(14)
H61_11 H 0.203501 0.877840 0.455884
C102_11 C 0.19939(15) 0.91152(14) 0.43498(15)
H62_11 H 0.209179 0.906188 0.420260
C103_11 C 0.1688(2) 0.92689(18) 0.47694(18)
H63_11 H 0.157321 0.931829 0.490521
C104_11 C 0.1736(2) 0.94371(16) 0.45776(18)
H64_11 H 0.166904 0.960866 0.458878
O26_11 O 0.10086(10) 0.85114(9) 0.47564(9)
O27_11 O 0.14150(9) 0.84578(9) 0.46106(9)
N29_11 N 0.11920(10) 0.93853(11) 0.36358(10)
O28_11 O 0.22448(11) 0.92897(10) 0.28426(10)
N32_11 N 0.18842(10) 0.98598(10) 0.35162(10)
N34_11 N 0.14600(10) 0.96888(10) 0.37288(10)
N35_11 N 0.12403(11) 0.95815(11) 0.38046(11)
O30_11 O 0.23946(12) 0.96654(12) 0.26998(13)
C106_11 C 0.17830(12) 0.96525(11) 0.33954(12)
C107_11 C 0.18987(13) 0.95407(12) 0.31771(13)
H65_11 H 0.182480 0.939097 0.309832
C108_11 C 0.10366(13) 0.90444(12) 0.39423(13)
C109_11 C 0.13770(12) 0.93589(13) 0.34552(13)
H66_11 H 0.139048 0.923354 0.332027
C110_11 C 0.21235(13) 0.96514(14) 0.30766(13)
C112_11 C 0.21080(12) 0.99714(12) 0.34194(12)
C113_11 C 0.22265(14) 0.98766(13) 0.31947(12)
H68_11 H 0.237346 0.996195 0.312262
C115_11 C 0.12859(13) 0.89728(14) 0.39940(14)
H69_11 H 0.142363 0.902905 0.388481
C116_11 C 0.15446(13) 0.95618(12) 0.35155(12)
C117_11 C 0.11289(13) 0.87327(14) 0.43682(14)
C118_11 C 0.11956(14) 0.85566(13) 0.45894(13)
C120_11 C 0.09758(13) 0.92056(14) 0.36995(13)
H72_11 H 0.094501 0.908765 0.355066
H73_11 H 0.081508 0.930720 0.372898
C123_11 C 0.08396(13) 0.89686(14) 0.41035(14)
H74_11 H 0.066752 0.902504 0.406763
C124_11 C 0.13368(13) 0.88162(13) 0.42088(14)
H75_11 H 0.151003 0.876574 0.424807
C125_11 C 0.22637(15) 0.95319(16) 0.28493(16)
C126_11 C 0.08840(14) 0.88125(15) 0.43169(14)
H76_11 H 0.074420 0.876166 0.442626
Zn7_11 Zn 0.25143(2) 0.88706(2) 0.57651(2)
O31_11 O 0.27207(9) 0.91656(8) 0.56643(10)
O35_11 O 0.30393(10) 0.89284(10) 0.54880(12)
H83_11 H 0.408438 0.999239 0.539715
C140_11 C 0.29575(14) 0.91388(14) 0.55807(16)
C145_11 C 0.36697(14) 0.99881(13) 0.57529(14)
H87_11 H 0.383082 0.991040 0.582354
C147_11 C 0.34786(14) 0.97760(13) 0.56979(13)
C148_11 C 0.31342(14) 0.93604(14) 0.56159(14)
C153_11 C 0.35546(14) 0.95607(14) 0.55436(15)
H93_11 H 0.372160 0.955884 0.546499
C154_11 C 0.33848(14) 0.93498(15) 0.55061(15)
H94_11 H 0.343812 0.920260 0.540821
C155_11 C 0.32311(18) 0.97694(18) 0.5812(2)
H95_11 H 0.318171 0.990521 0.592679
C156_11 C 0.30629(16) 0.95776(18) 0.5764(2)
H96_11 H 0.289134 0.958878 0.583096
Zn12_11 Zn 0.11294(2) 0.82651(2) 0.50143(2)
O38_11 O 0.22564(9) 0.89914(10) 0.60114(9)
O46_11 O 0.51998(13) 0.98946(12) 0.53346(12)
N30_12 N 0.01414(11) 0.05234(10) 0.87342(10)
N31_12 N 0.04320(10) 0.02338(10) 0.86885(10)
N33_12 N 0.03331(11) 0.04395(10) 0.85744(10)
C105_12 C 0.03060(12) 0.01892(12) 0.89127(11)
C111_12 C 0.01130(12) 0.03779(13) 0.89459(14)
H70_12 H 0.010467 0.088744 0.859674
Zn11_12 Zn 0.00143(2) 0.13706(2) 0.92349(2)
O42_12 O 0.10114(9) 0.02436(9) 0.85086(10)
Zn5_12 Zn 0.07651(2) 0.99857(2) 0.86294(2)
O19_12 O 0.06643(10) 0.97793(9) 0.83344(8)
N23_12 N 0.05234(10) 0.87658(10) 0.73586(11)
N24_12 N 0.02338(10) 0.88115(10) 0.70680(10)
O23_12 O 0.04880(12) 0.94607(10) 0.85716(10)
N26_12 N 0.04395(10) 0.89256(10) 0.71669(11)
C79_12 C 0.01892(12) 0.85873(11) 0.71940(12)
C85_12 C 0.03779(13) 0.85541(14) 0.73870(12)
H51_12 H 0.039715 0.841562 0.750761
C88_12 C 0.05807(16) 0.95425(14) 0.83612(14)
C93_12 C 0.07529(14) 0.88303(14) 0.75119(13)
H54_12 H 0.088744 0.890326 0.739533
H55_12 H 0.082354 0.866918 0.758960
C95_12 C 0.06979(13) 0.90214(14) 0.77240(13)
C96_12 C 0.06159(14) 0.93658(14) 0.81396(14)
C101_12 C 0.05436(15) 0.89454(14) 0.79393(14)
H61_12 H 0.046499 0.877840 0.794116
C102_12 C 0.05061(15) 0.91152(14) 0.81502(15)
H62_12 H 0.040821 0.906188 0.829740
C103_12 C 0.0812(2) 0.92689(18) 0.77306(18)
H63_12 H 0.092679 0.931829 0.759479
C104_12 C 0.0764(2) 0.94371(16) 0.79224(18)
H64_12 H 0.083096 0.960866 0.791122
O26_12 O 0.14914(10) 0.85114(9) 0.77436(9)
O27_12 O 0.10850(9) 0.84578(9) 0.78894(9)
N29_12 N 0.13080(10) 0.93853(11) 0.88642(10)
O28_12 O 0.02552(11) 0.92897(10) 0.96574(10)
N32_12 N 0.06158(10) 0.98598(10) 0.89838(10)
N34_12 N 0.10400(10) 0.96888(10) 0.87712(10)
N35_12 N 0.12597(11) 0.95815(11) 0.86954(11)
O30_12 O 0.01054(12) 0.96654(12) 0.98002(13)
C106_12 C 0.07170(12) 0.96525(11) 0.91046(12)
C107_12 C 0.06013(13) 0.95407(12) 0.93229(13)
H65_12 H 0.067520 0.939097 0.940168
C108_12 C 0.14634(13) 0.90444(12) 0.85577(13)
C109_12 C 0.11230(12) 0.93589(13) 0.90448(13)
H66_12 H 0.110952 0.923354 0.917973
C110_12 C 0.03765(13) 0.96514(14) 0.94234(13)
C112_12 C 0.03920(12) 0.99714(12) 0.90806(12)
C113_12 C 0.02735(14) 0.98766(13) 0.93053(12)
H68_12 H 0.012654 0.996195 0.937738
C115_12 C 0.12141(13) 0.89728(14) 0.85060(14)
H69_12 H 0.107637 0.902905 0.861519
C116_12 C 0.09554(13) 0.95618(12) 0.89845(12)
C117_12 C 0.13711(13) 0.87327(14) 0.81318(14)
C118_12 C 0.13044(14) 0.85566(13) 0.79106(13)
C120_12 C 0.15242(13) 0.92056(14) 0.88005(13)
H72_12 H 0.155499 0.908765 0.894934
H73_12 H 0.168492 0.930720 0.877102
C123_12 C 0.16604(13) 0.89686(14) 0.83965(14)
H74_12 H 0.183248 0.902504 0.843237
C124_12 C 0.11632(13) 0.88162(13) 0.82912(14)
H75_12 H 0.098997 0.876574 0.825193
C125_12 C 0.02363(15) 0.95319(16) 0.96507(16)
C126_12 C 0.16160(14) 0.88125(15) 0.81831(14)
H76_12 H 0.175580 0.876166 0.807374
Zn12_12 Zn 0.13706(2) 0.82651(2) 0.74857(2)
O38_12 O 0.02436(9) 0.89914(10) 0.64886(9)
Zn6_12 Zn 0.88706(2) 0.07651(2) 0.75143(2)
O25_12 O 0.91656(8) 0.06643(10) 0.77207(9)
O29_12 O 0.89284(10) 0.04880(12) 0.80393(10)
H67_12 H 0.999239 0.039715 0.908438
C114_12 C 0.91388(14) 0.05807(16) 0.79575(14)
C119_12 C 0.99881(13) 0.07529(14) 0.86697(14)
H71_12 H 0.991040 0.082354 0.883082
C121_12 C 0.97760(13) 0.06979(13) 0.84786(14)
C122_12 C 0.93604(14) 0.06159(14) 0.81342(14)
C127_12 C 0.95607(14) 0.05436(15) 0.85546(14)
H77_12 H 0.955884 0.046499 0.872160
C128_12 C 0.93498(15) 0.05061(15) 0.83848(14)
H78_12 H 0.920260 0.040821 0.843812
C129_12 C 0.97694(18) 0.0812(2) 0.82311(18)
H79_12 H 0.990521 0.092679 0.818171
C130_12 C 0.95776(18) 0.0764(2) 0.80629(16)
H80_12 H 0.958878 0.083096 0.789134
O32_12 O 0.97564(9) 0.14914(10) 0.89886(9)
O33_12 O 0.96106(9) 0.10850(9) 0.90422(9)
N36_12 N 0.86358(10) 0.13080(10) 0.81147(11)
N37_12 N 0.87658(10) 0.01414(11) 0.69766(10)
O34_12 O 0.78426(10) 0.02552(11) 0.82103(10)
N38_12 N 0.88115(10) 0.04320(10) 0.72662(10)
N39_12 N 0.85162(10) 0.06158(10) 0.76402(10)
N40_12 N 0.89256(10) 0.03331(11) 0.70605(10)
N41_12 N 0.87288(10) 0.10400(10) 0.78112(10)
N42_12 N 0.88046(11) 0.12597(11) 0.79185(11)
O36_12 O 0.76998(13) 0.01054(12) 0.78346(12)
C131_12 C 0.85873(11) 0.03060(12) 0.73108(12)
C132_12 C 0.83954(12) 0.07170(12) 0.78475(11)
C133_12 C 0.81771(13) 0.06013(13) 0.79593(12)
H81_12 H 0.809832 0.067520 0.810903
C134_12 C 0.89423(13) 0.14634(13) 0.84556(12)
C135_12 C 0.84552(13) 0.11230(12) 0.81411(13)
H82_12 H 0.832027 0.110952 0.826646
C136_12 C 0.80766(13) 0.03765(13) 0.78486(14)
C137_12 C 0.85541(14) 0.01130(12) 0.71221(13)
C138_12 C 0.84194(12) 0.03920(12) 0.75286(12)
C139_12 C 0.81947(12) 0.02735(14) 0.76234(13)
H84_12 H 0.812262 0.012654 0.753805
C141_12 C 0.89940(14) 0.12141(13) 0.85272(14)
H85_12 H 0.888481 0.107637 0.847095
C142_12 C 0.85155(12) 0.09554(13) 0.79382(12)
C143_12 C 0.93682(14) 0.13711(13) 0.87673(14)
C144_12 C 0.95894(13) 0.13044(14) 0.89434(13)
H86_12 H 0.890326 0.010467 0.661256
C146_12 C 0.86995(13) 0.15242(13) 0.82944(14)
H88_12 H 0.855066 0.155499 0.841235
H89_12 H 0.872898 0.168492 0.819280
C149_12 C 0.91035(14) 0.16604(13) 0.85314(14)
H90_12 H 0.906763 0.183248 0.847496
C150_12 C 0.92088(14) 0.11632(13) 0.86838(13)
H91_12 H 0.924807 0.098997 0.873426
C151_12 C 0.78493(16) 0.02363(15) 0.79681(16)
C152_12 C 0.93169(14) 0.16160(14) 0.86875(15)
H92_12 H 0.942626 0.175580 0.873834
Zn9_12 Zn 0.82651(2) 0.00143(2) 0.61294(2)
O39_12 O 0.89914(10) 0.10114(9) 0.72564(9)
O44_12 O 0.76054(12) 0.03346(12) 0.73002(13)
O45_12 O 0.71654(12) 0.01998(13) 0.76054(12)
O20_12 O 0.85114(9) 0.97564(9) 0.60086(10)
O21_12 O 0.84578(9) 0.96106(9) 0.64150(9)
N22_12 N 0.93853(11) 0.86358(10) 0.61920(10)
O22_12 O 0.92897(10) 0.78426(10) 0.72448(11)
N25_12 N 0.98598(10) 0.85162(10) 0.68842(10)
N27_12 N 0.96888(10) 0.87288(10) 0.64600(10)
N28_12 N 0.95815(11) 0.88046(11) 0.62403(11)
C80_12 C 0.96525(11) 0.83954(12) 0.67830(12)
C81_12 C 0.95407(12) 0.81771(13) 0.68987(13)
H49_12 H 0.939097 0.809832 0.682480
C82_12 C 0.90444(12) 0.89423(13) 0.60366(13)
C83_12 C 0.93589(13) 0.84552(13) 0.63770(12)
H50_12 H 0.923354 0.832027 0.639048
C84_12 C 0.96514(14) 0.80766(13) 0.71235(13)
C86_12 C 0.99714(12) 0.84194(12) 0.71080(12)
C87_12 C 0.98766(13) 0.81947(12) 0.72265(14)
H52_12 H 0.996195 0.812262 0.737346
C89_12 C 0.89728(14) 0.89940(14) 0.62859(13)
H53_12 H 0.902905 0.888481 0.642363
C90_12 C 0.95618(12) 0.85155(12) 0.65446(13)
C91_12 C 0.87327(14) 0.93682(14) 0.61289(13)
C92_12 C 0.85566(13) 0.95894(13) 0.61956(14)
C94_12 C 0.92056(14) 0.86995(13) 0.59758(13)
H56_12 H 0.908765 0.855066 0.594501
H57_12 H 0.930720 0.872898 0.581508
C97_12 C 0.89686(14) 0.91035(14) 0.58396(13)
H58_12 H 0.902504 0.906763 0.566752
C98_12 C 0.88162(13) 0.92088(14) 0.63368(13)
H59_12 H 0.876574 0.924807 0.651003
C99_12 C 0.95319(16) 0.78493(16) 0.72637(15)
C100_12 C 0.88125(15) 0.93169(14) 0.58840(14)
H60_12 H 0.876166 0.942626 0.574420
Zn7_12 Zn 0.99857(2) 0.88706(2) 0.67349(2)
O31_12 O 0.97793(9) 0.91656(8) 0.68357(10)
O35_12 O 0.94607(10) 0.89284(10) 0.70120(12)
H83_12 H 0.841562 0.999239 0.710285
C140_12 C 0.95425(14) 0.91388(14) 0.69193(16)
C145_12 C 0.88303(14) 0.99881(13) 0.67471(14)
H87_12 H 0.866918 0.991040 0.667646
C147_12 C 0.90214(14) 0.97760(13) 0.68021(13)
C148_12 C 0.93658(14) 0.93604(14) 0.68841(14)
C153_12 C 0.89454(14) 0.95607(14) 0.69564(15)
H93_12 H 0.877840 0.955884 0.703501
C154_12 C 0.91152(14) 0.93498(15) 0.69939(15)
H94_12 H 0.906188 0.920260 0.709179
C155_12 C 0.92689(18) 0.97694(18) 0.6688(2)
H95_12 H 0.931829 0.990521 0.657321
C156_12 C 0.94371(16) 0.95776(18) 0.6736(2)
H96_12 H 0.960866 0.958878 0.666904
O46_12 O 0.73002(13) 0.98946(12) 0.71654(12)
O45_13 O 0.23002(13) 0.26054(12) 0.03346(12)
O46_13 O 0.26054(12) 0.21654(12) 0.01998(13)
O44_13 O 0.21654(12) 0.23002(13) 0.98946(12)
O44_14 O 0.21654(12) 0.01998(13) 0.26054(12)
O46_14 O 0.26054(12) 0.03346(12) 0.23002(13)
O45_14 O 0.23002(13) 0.98946(12) 0.21654(12)
O44_15 O 0.03346(12) 0.01998(13) 0.98946(12)
O45_15 O 0.01998(13) 0.98946(12) 0.03346(12)
O46_15 O 0.98946(12) 0.03346(12) 0.01998(13)
O44_16 O 0.03346(12) 0.23002(13) 0.26054(12)
O45_16 O 0.01998(13) 0.26054(12) 0.21654(12)
O46_16 O 0.98946(12) 0.21654(12) 0.23002(13)
O1_5 O 0.16656(8) 0.43357(10) 0.52207(9)
O3_5 O 0.35850(9) 0.65422(9) 0.53894(9)
N1_5 N 0.38080(10) 0.56147(11) 0.63642(10)
N2_5 N 0.26414(11) 0.44766(10) 0.62342(10)
O4_5 O 0.27552(11) 0.57103(10) 0.71574(10)
N3_5 N 0.29320(10) 0.47662(10) 0.61885(10)
O5_5 O 0.14284(10) 0.45120(12) 0.55393(10)
N4_5 N 0.31158(10) 0.51402(10) 0.64838(10)
N5_5 N 0.28331(11) 0.45605(10) 0.60744(10)
N6_5 N 0.35400(10) 0.53112(10) 0.62712(10)
N7_5 N 0.37597(11) 0.54185(11) 0.61954(11)
C1_5 C 0.28060(12) 0.48108(12) 0.64127(11)
C2_5 C 0.32170(12) 0.53475(11) 0.66046(12)
C3_5 C 0.31013(13) 0.54593(12) 0.68229(13)
H1_5 H 0.317520 0.560903 0.690168
C4_5 C 0.39634(13) 0.59556(12) 0.60577(13)
C5_5 C 0.36230(12) 0.56411(13) 0.65448(13)
H2_5 H 0.360952 0.576646 0.667973
C6_5 C 0.28765(13) 0.53486(14) 0.69234(13)
C7_5 C 0.26130(12) 0.46221(13) 0.64459(14)
H3_5 H 0.249239 0.460285 0.658438
C8_5 C 0.28920(12) 0.50286(12) 0.65806(12)
C9_5 C 0.27735(14) 0.51234(13) 0.68053(12)
H4_5 H 0.262654 0.503805 0.687738
C10_5 C 0.16388(14) 0.44193(16) 0.54575(14)
C11_5 C 0.37141(13) 0.60272(14) 0.60060(14)
H5_5 H 0.357637 0.597095 0.611519
C12_5 C 0.34554(13) 0.54382(12) 0.64845(12)
C13_5 C 0.38711(13) 0.62673(14) 0.56318(14)
C14_5 C 0.38044(14) 0.64434(13) 0.54106(13)
C15_5 C 0.24881(13) 0.42471(14) 0.61697(14)
H6_5 H 0.260467 0.411256 0.609674
H7_5 H 0.241040 0.417646 0.633082
C16_5 C 0.40242(13) 0.57944(14) 0.63005(13)
H8_5 H 0.405499 0.591235 0.644934
H9_5 H 0.418492 0.569280 0.627102
C17_5 C 0.22760(13) 0.43021(13) 0.59786(14)
C18_5 C 0.18604(14) 0.43841(14) 0.56342(14)
C19_5 C 0.41604(13) 0.60314(14) 0.58965(14)
H10_5 H 0.433248 0.597496 0.593237
C20_5 C 0.36632(13) 0.61838(13) 0.57912(14)
H11_5 H 0.348997 0.623426 0.575193
C21_5 C 0.27363(15) 0.54681(16) 0.71507(16)
C22_5 C 0.41160(14) 0.61875(15) 0.56831(14)
H12_5 H 0.425580 0.623834 0.557374
C23_5 C 0.20607(14) 0.44564(15) 0.60546(14)
H13_5 H 0.205884 0.453501 0.622160
C24_5 C 0.18498(15) 0.44939(15) 0.58848(14)
H14_5 H 0.170260 0.459179 0.593812
C25_5 C 0.22694(18) 0.4188(2) 0.57311(18)
H15_5 H 0.240521 0.407321 0.568171
C26_5 C 0.20776(18) 0.4236(2) 0.55629(16)
H16_5 H 0.208878 0.416904 0.539134
O7_5 O 0.22793(9) 0.58344(8) 0.43357(10)
O9_5 O 0.21106(9) 0.39150(9) 0.65422(9)
N8_5 N 0.11358(10) 0.36920(10) 0.56147(11)
N9_5 N 0.12658(10) 0.48586(11) 0.44766(10)
O10_5 O 0.03426(10) 0.47448(11) 0.57103(10)
N10_5 N 0.13115(10) 0.45680(10) 0.47662(10)
O11_5 O 0.19607(10) 0.60716(10) 0.45120(12)
N11_5 N 0.10162(10) 0.43842(10) 0.51402(10)
N12_5 N 0.14256(10) 0.46669(11) 0.45605(10)
N13_5 N 0.12288(10) 0.39600(10) 0.53112(10)
N14_5 N 0.13046(11) 0.37403(11) 0.54185(11)
C27_5 C 0.10873(11) 0.46940(12) 0.48108(12)
C28_5 C 0.08954(12) 0.42830(12) 0.53475(11)
C29_5 C 0.06771(13) 0.43987(13) 0.54593(12)
H17_5 H 0.059832 0.432480 0.560903
C30_5 C 0.14423(13) 0.35366(13) 0.59556(12)
C31_5 C 0.09552(13) 0.38770(12) 0.56411(13)
H18_5 H 0.082027 0.389048 0.576646
C32_5 C 0.05766(13) 0.46235(13) 0.53486(14)
C33_5 C 0.10541(14) 0.48870(12) 0.46221(13)
H19_5 H 0.091562 0.500761 0.460285
C34_5 C 0.09194(12) 0.46080(12) 0.50286(12)
C35_5 C 0.06947(12) 0.47265(14) 0.51234(13)
H20_5 H 0.062262 0.487346 0.503805
C36_5 C 0.20425(14) 0.58612(14) 0.44193(16)
C37_5 C 0.14940(14) 0.37859(13) 0.60272(14)
H21_5 H 0.138481 0.392363 0.597095
C38_5 C 0.10155(12) 0.40446(13) 0.54382(12)
C39_5 C 0.18682(14) 0.36289(13) 0.62673(14)
C40_5 C 0.20894(13) 0.36956(14) 0.64434(13)
C41_5 C 0.13303(14) 0.50119(13) 0.42471(14)
H22_5 H 0.140326 0.489533 0.411256
H23_5 H 0.116918 0.508960 0.417646
C42_5 C 0.11995(13) 0.34758(13) 0.57944(14)
H24_5 H 0.105066 0.344501 0.591235
H25_5 H 0.122898 0.331508 0.569280
C43_5 C 0.15214(14) 0.52240(13) 0.43021(13)
C44_5 C 0.18658(14) 0.56396(14) 0.43841(14)
C45_5 C 0.16035(14) 0.33396(13) 0.60314(14)
H26_5 H 0.156763 0.316752 0.597496
C46_5 C 0.17088(14) 0.38368(13) 0.61838(13)
H27_5 H 0.174807 0.401003 0.623426
C47_5 C 0.03493(16) 0.47637(15) 0.54681(16)
C48_5 C 0.18169(14) 0.33840(14) 0.61875(15)
H28_5 H 0.192626 0.324420 0.623834
C49_5 C 0.14454(14) 0.54393(14) 0.44564(15)
H29_5 H 0.127840 0.544116 0.453501
C50_5 C 0.16152(14) 0.56502(15) 0.44939(15)
H30_5 H 0.156188 0.579740 0.459179
C51_5 C 0.17689(18) 0.52306(18) 0.4188(2)
H31_5 H 0.181829 0.509479 0.407321
C52_5 C 0.19371(16) 0.54224(18) 0.4236(2)
H32_5 H 0.210866 0.541122 0.416904
O13_5 O 0.31643(10) 0.52207(9) 0.58344(8)
O15_5 O 0.09578(9) 0.53894(9) 0.39150(9)
N15_5 N 0.18853(11) 0.63642(10) 0.36920(10)
N16_5 N 0.30234(10) 0.62342(10) 0.48586(11)
O16_5 O 0.17897(10) 0.71574(10) 0.47448(11)
N17_5 N 0.27338(10) 0.61885(10) 0.45680(10)
O17_5 O 0.29880(12) 0.55393(10) 0.60716(10)
N18_5 N 0.23598(10) 0.64838(10) 0.43842(10)
N19_5 N 0.29395(10) 0.60744(10) 0.46669(11)
N20_5 N 0.21888(10) 0.62712(10) 0.39600(10)
N21_5 N 0.20815(11) 0.61954(11) 0.37403(11)
C53_5 C 0.26892(12) 0.64127(11) 0.46940(12)
C54_5 C 0.21525(11) 0.66046(12) 0.42830(12)
C55_5 C 0.20407(12) 0.68229(13) 0.43987(13)
H33_5 H 0.189097 0.690168 0.432480
C56_5 C 0.15444(12) 0.60577(13) 0.35366(13)
C57_5 C 0.18589(13) 0.65448(13) 0.38770(12)
H34_5 H 0.173354 0.667973 0.389048
C58_5 C 0.21514(14) 0.69234(13) 0.46235(13)
C59_5 C 0.28779(13) 0.64459(14) 0.48870(12)
H35_5 H 0.289715 0.658438 0.500761
C60_5 C 0.24714(12) 0.65806(12) 0.46080(12)
C61_5 C 0.23766(13) 0.68053(12) 0.47265(14)
H36_5 H 0.246195 0.687738 0.487346
C62_5 C 0.30807(16) 0.54575(14) 0.58612(14)
C63_5 C 0.14728(14) 0.60060(14) 0.37859(13)
H37_5 H 0.152905 0.611519 0.392363
C64_5 C 0.20618(12) 0.64845(12) 0.40446(13)
C65_5 C 0.12327(14) 0.56318(14) 0.36289(13)
C66_5 C 0.10566(13) 0.54106(13) 0.36956(14)
C67_5 C 0.32529(14) 0.61697(14) 0.50119(13)
H38_5 H 0.338744 0.609674 0.489533
H39_5 H 0.332354 0.633082 0.508960
C68_5 C 0.17056(14) 0.63005(13) 0.34758(13)
H40_5 H 0.158765 0.644934 0.344501
H41_5 H 0.180720 0.627102 0.331508
C69_5 C 0.31979(13) 0.59786(14) 0.52240(13)
C70_5 C 0.31159(14) 0.56342(14) 0.56396(14)
C71_5 C 0.14686(14) 0.58965(14) 0.33396(13)
H42_5 H 0.152504 0.593237 0.316752
C72_5 C 0.13162(13) 0.57912(14) 0.38368(13)
H43_5 H 0.126574 0.575193 0.401003
C73_5 C 0.20319(16) 0.71507(16) 0.47637(15)
C74_5 C 0.13125(15) 0.56831(14) 0.33840(14)
H44_5 H 0.126166 0.557374 0.324420
C75_5 C 0.30436(15) 0.60546(14) 0.54393(14)
H45_5 H 0.296499 0.622160 0.544116
C76_5 C 0.30061(15) 0.58848(14) 0.56502(15)
H46_5 H 0.290821 0.593812 0.579740
C77_5 C 0.3312(2) 0.57311(18) 0.52306(18)
H47_5 H 0.342679 0.568171 0.509479
C78_5 C 0.3264(2) 0.55629(16) 0.54224(18)
H48_5 H 0.333096 0.539134 0.541122
O19_13 O 0.16656(8) 0.81643(10) 0.72793(9)
O21_13 O 0.35850(9) 0.59578(9) 0.71106(9)
N22_13 N 0.38080(10) 0.68853(11) 0.61358(10)
N23_13 N 0.26414(11) 0.80234(10) 0.62658(10)
O22_13 O 0.27552(11) 0.67897(10) 0.53426(10)
N24_13 N 0.29320(10) 0.77338(10) 0.63115(10)
O23_13 O 0.14284(10) 0.79880(12) 0.69607(10)
N25_13 N 0.31158(10) 0.73598(10) 0.60162(10)
N26_13 N 0.28331(11) 0.79395(10) 0.64256(10)
N27_13 N 0.35400(10) 0.71888(10) 0.62288(10)
N28_13 N 0.37597(11) 0.70815(11) 0.63046(11)
C79_13 C 0.28060(12) 0.76892(12) 0.60873(11)
C80_13 C 0.32170(12) 0.71525(11) 0.58954(12)
C81_13 C 0.31013(13) 0.70407(12) 0.56771(13)
H49_13 H 0.317520 0.689097 0.559832
C82_13 C 0.39634(13) 0.65444(12) 0.64423(13)
C83_13 C 0.36230(12) 0.68589(13) 0.59552(13)
H50_13 H 0.360952 0.673354 0.582027
C84_13 C 0.28765(13) 0.71514(14) 0.55766(13)
C85_13 C 0.26130(12) 0.78779(13) 0.60541(14)
H51_13 H 0.249239 0.789715 0.591562
C86_13 C 0.28920(12) 0.74714(12) 0.59194(12)
C87_13 C 0.27735(14) 0.73766(13) 0.56947(12)
H52_13 H 0.262654 0.746195 0.562262
C88_13 C 0.16388(14) 0.80807(16) 0.70425(14)
C89_13 C 0.37141(13) 0.64728(14) 0.64940(14)
H53_13 H 0.357637 0.652905 0.638481
C90_13 C 0.34554(13) 0.70618(12) 0.60155(12)
C91_13 C 0.38711(13) 0.62327(14) 0.68682(14)
C92_13 C 0.38044(14) 0.60566(13) 0.70894(13)
C93_13 C 0.24881(13) 0.82529(14) 0.63303(14)
H54_13 H 0.260467 0.838744 0.640326
H55_13 H 0.241040 0.832354 0.616918
C94_13 C 0.40242(13) 0.67056(14) 0.61995(13)
H56_13 H 0.405499 0.658765 0.605066
H57_13 H 0.418492 0.680720 0.622898
C95_13 C 0.22760(13) 0.81979(13) 0.65214(14)
C96_13 C 0.18604(14) 0.81159(14) 0.68658(14)
C97_13 C 0.41604(13) 0.64686(14) 0.66035(14)
H58_13 H 0.433248 0.652504 0.656763
C98_13 C 0.36632(13) 0.63162(13) 0.67088(14)
H59_13 H 0.348997 0.626574 0.674807
C99_13 C 0.27363(15) 0.70319(16) 0.53493(16)
C100_13 C 0.41160(14) 0.63125(15) 0.68169(14)
H60_13 H 0.425580 0.626166 0.692626
C101_13 C 0.20607(14) 0.80436(15) 0.64454(14)
H61_13 H 0.205884 0.796499 0.627840
C102_13 C 0.18498(15) 0.80061(15) 0.66152(14)
H62_13 H 0.170260 0.790821 0.656188
C103_13 C 0.22694(18) 0.8312(2) 0.67689(18)
H63_13 H 0.240521 0.842679 0.681829
C104_13 C 0.20776(18) 0.8264(2) 0.69371(16)
H64_13 H 0.208878 0.833096 0.710866
O25_13 O 0.22793(9) 0.66656(8) 0.81643(10)
O27_13 O 0.21106(9) 0.85850(9) 0.59578(9)
N29_13 N 0.11358(10) 0.88080(10) 0.68853(11)
N30_13 N 0.12658(10) 0.76414(11) 0.80234(10)
O28_13 O 0.03426(10) 0.77552(11) 0.67897(10)
N31_13 N 0.13115(10) 0.79320(10) 0.77338(10)
O29_13 O 0.19607(10) 0.64284(10) 0.79880(12)
N32_13 N 0.10162(10) 0.81158(10) 0.73598(10)
N33_13 N 0.14256(10) 0.78331(11) 0.79395(10)
N34_13 N 0.12288(10) 0.85400(10) 0.71888(10)
N35_13 N 0.13046(11) 0.87597(11) 0.70815(11)
C105_13 C 0.10873(11) 0.78060(12) 0.76892(12)
C106_13 C 0.08954(12) 0.82170(12) 0.71525(11)
C107_13 C 0.06771(13) 0.81013(13) 0.70407(12)
H65_13 H 0.059832 0.817520 0.689097
C108_13 C 0.14423(13) 0.89634(13) 0.65444(12)
C109_13 C 0.09552(13) 0.86230(12) 0.68589(13)
H66_13 H 0.082027 0.860952 0.673354
C110_13 C 0.05766(13) 0.78765(13) 0.71514(14)
C111_13 C 0.10541(14) 0.76130(12) 0.78779(13)
H67_13 H 0.091562 0.749239 0.789715
C112_13 C 0.09194(12) 0.78920(12) 0.74714(12)
C113_13 C 0.06947(12) 0.77735(14) 0.73766(13)
H68_13 H 0.062262 0.762654 0.746195
C114_13 C 0.20425(14) 0.66388(14) 0.80807(16)
C115_13 C 0.14940(14) 0.87141(13) 0.64728(14)
H69_13 H 0.138481 0.857637 0.652905
C116_13 C 0.10155(12) 0.84554(13) 0.70618(12)
C117_13 C 0.18682(14) 0.88711(13) 0.62327(14)
C118_13 C 0.20894(13) 0.88044(14) 0.60566(13)
C119_13 C 0.13303(14) 0.74881(13) 0.82529(14)
H70_13 H 0.140326 0.760467 0.838744
H71_13 H 0.116918 0.741040 0.832354
C120_13 C 0.11995(13) 0.90242(13) 0.67056(14)
H72_13 H 0.105066 0.905499 0.658765
H73_13 H 0.122898 0.918492 0.680720
C121_13 C 0.15214(14) 0.72760(13) 0.81979(13)
C122_13 C 0.18658(14) 0.68604(14) 0.81159(14)
C123_13 C 0.16035(14) 0.91604(13) 0.64686(14)
H74_13 H 0.156763 0.933248 0.652504
C124_13 C 0.17088(14) 0.86632(13) 0.63162(13)
H75_13 H 0.174807 0.848997 0.626574
C125_13 C 0.03493(16) 0.77363(15) 0.70319(16)
C126_13 C 0.18169(14) 0.91160(14) 0.63125(15)
H76_13 H 0.192626 0.925580 0.626166
C127_13 C 0.14454(14) 0.70607(14) 0.80436(15)
H77_13 H 0.127840 0.705884 0.796499
C128_13 C 0.16152(14) 0.68498(15) 0.80061(15)
H78_13 H 0.156188 0.670260 0.790821
C129_13 C 0.17689(18) 0.72694(18) 0.8312(2)
H79_13 H 0.181829 0.740521 0.842679
C130_13 C 0.19371(16) 0.70776(18) 0.8264(2)
H80_13 H 0.210866 0.708878 0.833096
O31_13 O 0.31643(10) 0.72793(9) 0.66656(8)
O33_13 O 0.09578(9) 0.71106(9) 0.85850(9)
N36_13 N 0.18853(11) 0.61358(10) 0.88080(10)
N37_13 N 0.30234(10) 0.62658(10) 0.76414(11)
O34_13 O 0.17897(10) 0.53426(10) 0.77552(11)
N38_13 N 0.27338(10) 0.63115(10) 0.79320(10)
O35_13 O 0.29880(12) 0.69607(10) 0.64284(10)
N39_13 N 0.23598(10) 0.60162(10) 0.81158(10)
N40_13 N 0.29395(10) 0.64256(10) 0.78331(11)
N41_13 N 0.21888(10) 0.62288(10) 0.85400(10)
N42_13 N 0.20815(11) 0.63046(11) 0.87597(11)
C131_13 C 0.26892(12) 0.60873(11) 0.78060(12)
C132_13 C 0.21525(11) 0.58954(12) 0.82170(12)
C133_13 C 0.20407(12) 0.56771(13) 0.81013(13)
H81_13 H 0.189097 0.559832 0.817520
C134_13 C 0.15444(12) 0.64423(13) 0.89634(13)
C135_13 C 0.18589(13) 0.59552(13) 0.86230(12)
H82_13 H 0.173354 0.582027 0.860952
C136_13 C 0.21514(14) 0.55766(13) 0.78765(13)
C137_13 C 0.28779(13) 0.60541(14) 0.76130(12)
H83_13 H 0.289715 0.591562 0.749239
C138_13 C 0.24714(12) 0.59194(12) 0.78920(12)
C139_13 C 0.23766(13) 0.56947(12) 0.77735(14)
H84_13 H 0.246195 0.562262 0.762654
C140_13 C 0.30807(16) 0.70425(14) 0.66388(14)
C141_13 C 0.14728(14) 0.64940(14) 0.87141(13)
H85_13 H 0.152905 0.638481 0.857637
C142_13 C 0.20618(12) 0.60155(12) 0.84554(13)
C143_13 C 0.12327(14) 0.68682(14) 0.88711(13)
C144_13 C 0.10566(13) 0.70894(13) 0.88044(14)
C145_13 C 0.32529(14) 0.63303(14) 0.74881(13)
H86_13 H 0.338744 0.640326 0.760467
H87_13 H 0.332354 0.616918 0.741040
C146_13 C 0.17056(14) 0.61995(13) 0.90242(13)
H88_13 H 0.158765 0.605066 0.905499
H89_13 H 0.180720 0.622898 0.918492
C147_13 C 0.31979(13) 0.65214(14) 0.72760(13)
C148_13 C 0.31159(14) 0.68658(14) 0.68604(14)
C149_13 C 0.14686(14) 0.66035(14) 0.91604(13)
H90_13 H 0.152504 0.656763 0.933248
C150_13 C 0.13162(13) 0.67088(14) 0.86632(13)
H91_13 H 0.126574 0.674807 0.848997
C151_13 C 0.20319(16) 0.53493(16) 0.77363(15)
C152_13 C 0.13125(15) 0.68169(14) 0.91160(14)
H92_13 H 0.126166 0.692626 0.925580
C153_13 C 0.30436(15) 0.64454(14) 0.70607(14)
H93_13 H 0.296499 0.627840 0.705884
C154_13 C 0.30061(15) 0.66152(14) 0.68498(15)
H94_13 H 0.290821 0.656188 0.670260
C155_13 C 0.3312(2) 0.67689(18) 0.72694(18)
H95_13 H 0.342679 0.681829 0.740521
C156_13 C 0.3264(2) 0.69371(16) 0.70776(18)
H96_13 H 0.333096 0.710866 0.708878
O1_6 O 0.58344(8) 0.31643(10) 0.52207(9)
O3_6 O 0.39150(9) 0.09578(9) 0.53894(9)
N1_6 N 0.36920(10) 0.18853(11) 0.63642(10)
N2_6 N 0.48586(11) 0.30234(10) 0.62342(10)
O4_6 O 0.47448(11) 0.17897(10) 0.71574(10)
N3_6 N 0.45680(10) 0.27338(10) 0.61885(10)
O5_6 O 0.60716(10) 0.29880(12) 0.55393(10)
N4_6 N 0.43842(10) 0.23598(10) 0.64838(10)
N5_6 N 0.46669(11) 0.29395(10) 0.60744(10)
N6_6 N 0.39600(10) 0.21888(10) 0.62712(10)
N7_6 N 0.37403(11) 0.20815(11) 0.61954(11)
C1_6 C 0.46940(12) 0.26892(12) 0.64127(11)
C2_6 C 0.42830(12) 0.21525(11) 0.66046(12)
C3_6 C 0.43987(13) 0.20407(12) 0.68229(13)
H1_6 H 0.432480 0.189097 0.690168
C4_6 C 0.35366(13) 0.15444(12) 0.60577(13)
C5_6 C 0.38770(12) 0.18589(13) 0.65448(13)
H2_6 H 0.389048 0.173354 0.667973
C6_6 C 0.46235(13) 0.21514(14) 0.69234(13)
C7_6 C 0.48870(12) 0.28779(13) 0.64459(14)
H3_6 H 0.500761 0.289715 0.658438
C8_6 C 0.46080(12) 0.24714(12) 0.65806(12)
C9_6 C 0.47265(14) 0.23766(13) 0.68053(12)
H4_6 H 0.487346 0.246195 0.687738
C10_6 C 0.58612(14) 0.30807(16) 0.54575(14)
C11_6 C 0.37859(13) 0.14728(14) 0.60060(14)
H5_6 H 0.392363 0.152905 0.611519
C12_6 C 0.40446(13) 0.20618(12) 0.64845(12)
C13_6 C 0.36289(13) 0.12327(14) 0.56318(14)
C14_6 C 0.36956(14) 0.10566(13) 0.54106(13)
C15_6 C 0.50119(13) 0.32529(14) 0.61697(14)
H6_6 H 0.489533 0.338744 0.609674
H7_6 H 0.508960 0.332354 0.633082
C16_6 C 0.34758(13) 0.17056(14) 0.63005(13)
H8_6 H 0.344501 0.158765 0.644934
H9_6 H 0.331508 0.180720 0.627102
C17_6 C 0.52240(13) 0.31979(13) 0.59786(14)
C18_6 C 0.56396(14) 0.31159(14) 0.56342(14)
C19_6 C 0.33396(13) 0.14686(14) 0.58965(14)
H10_6 H 0.316752 0.152504 0.593237
C20_6 C 0.38368(13) 0.13162(13) 0.57912(14)
H11_6 H 0.401003 0.126574 0.575193
C21_6 C 0.47637(15) 0.20319(16) 0.71507(16)
C22_6 C 0.33840(14) 0.13125(15) 0.56831(14)
H12_6 H 0.324420 0.126166 0.557374
C23_6 C 0.54393(14) 0.30436(15) 0.60546(14)
H13_6 H 0.544116 0.296499 0.622160
C24_6 C 0.56502(15) 0.30061(15) 0.58848(14)
H14_6 H 0.579740 0.290821 0.593812
C25_6 C 0.52306(18) 0.3312(2) 0.57311(18)
H15_6 H 0.509479 0.342679 0.568171
C26_6 C 0.54224(18) 0.3264(2) 0.55629(16)
H16_6 H 0.541122 0.333096 0.539134
O7_6 O 0.52207(9) 0.16656(8) 0.43357(10)
O9_6 O 0.53894(9) 0.35850(9) 0.65422(9)
N8_6 N 0.63642(10) 0.38080(10) 0.56147(11)
N9_6 N 0.62342(10) 0.26414(11) 0.44766(10)
O10_6 O 0.71574(10) 0.27552(11) 0.57103(10)
N10_6 N 0.61885(10) 0.29320(10) 0.47662(10)
O11_6 O 0.55393(10) 0.14284(10) 0.45120(12)
N11_6 N 0.64838(10) 0.31158(10) 0.51402(10)
N12_6 N 0.60744(10) 0.28331(11) 0.45605(10)
N13_6 N 0.62712(10) 0.35400(10) 0.53112(10)
N14_6 N 0.61954(11) 0.37597(11) 0.54185(11)
C27_6 C 0.64127(11) 0.28060(12) 0.48108(12)
C28_6 C 0.66046(12) 0.32170(12) 0.53475(11)
C29_6 C 0.68229(13) 0.31013(13) 0.54593(12)
H17_6 H 0.690168 0.317520 0.560903
C30_6 C 0.60577(13) 0.39634(13) 0.59556(12)
C31_6 C 0.65448(13) 0.36230(12) 0.56411(13)
H18_6 H 0.667973 0.360952 0.576646
C32_6 C 0.69234(13) 0.28765(13) 0.53486(14)
C33_6 C 0.64459(14) 0.26130(12) 0.46221(13)
H19_6 H 0.658438 0.249239 0.460285
C34_6 C 0.65806(12) 0.28920(12) 0.50286(12)
C35_6 C 0.68053(12) 0.27735(14) 0.51234(13)
H20_6 H 0.687738 0.262654 0.503805
C36_6 C 0.54575(14) 0.16388(14) 0.44193(16)
C37_6 C 0.60060(14) 0.37141(13) 0.60272(14)
H21_6 H 0.611519 0.357637 0.597095
C38_6 C 0.64845(12) 0.34554(13) 0.54382(12)
C39_6 C 0.56318(14) 0.38711(13) 0.62673(14)
C40_6 C 0.54106(13) 0.38044(14) 0.64434(13)
C41_6 C 0.61697(14) 0.24881(13) 0.42471(14)
H22_6 H 0.609674 0.260467 0.411256
H23_6 H 0.633082 0.241040 0.417646
C42_6 C 0.63005(13) 0.40242(13) 0.57944(14)
H24_6 H 0.644934 0.405499 0.591235
H25_6 H 0.627102 0.418492 0.569280
C43_6 C 0.59786(14) 0.22760(13) 0.43021(13)
C44_6 C 0.56342(14) 0.18604(14) 0.43841(14)
C45_6 C 0.58965(14) 0.41604(13) 0.60314(14)
H26_6 H 0.593237 0.433248 0.597496
C46_6 C 0.57912(14) 0.36632(13) 0.61838(13)
H27_6 H 0.575193 0.348997 0.623426
C47_6 C 0.71507(16) 0.27363(15) 0.54681(16)
C48_6 C 0.56831(14) 0.41160(14) 0.61875(15)
H28_6 H 0.557374 0.425580 0.623834
C49_6 C 0.60546(14) 0.20607(14) 0.44564(15)
H29_6 H 0.622160 0.205884 0.453501
C50_6 C 0.58848(14) 0.18498(15) 0.44939(15)
H30_6 H 0.593812 0.170260 0.459179
C51_6 C 0.57311(18) 0.22694(18) 0.4188(2)
H31_6 H 0.568171 0.240521 0.407321
C52_6 C 0.55629(16) 0.20776(18) 0.4236(2)
H32_6 H 0.539134 0.208878 0.416904
O13_6 O 0.43357(10) 0.22793(9) 0.58344(8)
O15_6 O 0.65422(9) 0.21106(9) 0.39150(9)
N15_6 N 0.56147(11) 0.11358(10) 0.36920(10)
N16_6 N 0.44766(10) 0.12658(10) 0.48586(11)
O16_6 O 0.57103(10) 0.03426(10) 0.47448(11)
N17_6 N 0.47662(10) 0.13115(10) 0.45680(10)
O17_6 O 0.45120(12) 0.19607(10) 0.60716(10)
N18_6 N 0.51402(10) 0.10162(10) 0.43842(10)
N19_6 N 0.45605(10) 0.14256(10) 0.46669(11)
N20_6 N 0.53112(10) 0.12288(10) 0.39600(10)
N21_6 N 0.54185(11) 0.13046(11) 0.37403(11)
C53_6 C 0.48108(12) 0.10873(11) 0.46940(12)
C54_6 C 0.53475(11) 0.08954(12) 0.42830(12)
C55_6 C 0.54593(12) 0.06771(13) 0.43987(13)
H33_6 H 0.560903 0.059832 0.432480
C56_6 C 0.59556(12) 0.14423(13) 0.35366(13)
C57_6 C 0.56411(13) 0.09552(13) 0.38770(12)
H34_6 H 0.576646 0.082027 0.389048
C58_6 C 0.53486(14) 0.05766(13) 0.46235(13)
C59_6 C 0.46221(13) 0.10541(14) 0.48870(12)
H35_6 H 0.460285 0.091562 0.500761
C60_6 C 0.50286(12) 0.09194(12) 0.46080(12)
C61_6 C 0.51234(13) 0.06947(12) 0.47265(14)
H36_6 H 0.503805 0.062262 0.487346
C62_6 C 0.44193(16) 0.20425(14) 0.58612(14)
C63_6 C 0.60272(14) 0.14940(14) 0.37859(13)
H37_6 H 0.597095 0.138481 0.392363
C64_6 C 0.54382(12) 0.10155(12) 0.40446(13)
C65_6 C 0.62673(14) 0.18682(14) 0.36289(13)
C66_6 C 0.64434(13) 0.20894(13) 0.36956(14)
C67_6 C 0.42471(14) 0.13303(14) 0.50119(13)
H38_6 H 0.411256 0.140326 0.489533
H39_6 H 0.417646 0.116918 0.508960
C68_6 C 0.57944(14) 0.11995(13) 0.34758(13)
H40_6 H 0.591235 0.105066 0.344501
H41_6 H 0.569280 0.122898 0.331508
C69_6 C 0.43021(13) 0.15214(14) 0.52240(13)
C70_6 C 0.43841(14) 0.18658(14) 0.56396(14)
C71_6 C 0.60314(14) 0.16035(14) 0.33396(13)
H42_6 H 0.597496 0.156763 0.316752
C72_6 C 0.61838(13) 0.17088(14) 0.38368(13)
H43_6 H 0.623426 0.174807 0.401003
C73_6 C 0.54681(16) 0.03493(16) 0.47637(15)
C74_6 C 0.61875(15) 0.18169(14) 0.33840(14)
H44_6 H 0.623834 0.192626 0.324420
C75_6 C 0.44564(15) 0.14454(14) 0.54393(14)
H45_6 H 0.453501 0.127840 0.544116
C76_6 C 0.44939(15) 0.16152(14) 0.56502(15)
H46_6 H 0.459179 0.156188 0.579740
C77_6 C 0.4188(2) 0.17689(18) 0.52306(18)
H47_6 H 0.407321 0.181829 0.509479
C78_6 C 0.4236(2) 0.19371(16) 0.54224(18)
H48_6 H 0.416904 0.210866 0.541122
O21_14 O 0.39150(9) 0.15422(9) 0.71106(9)
N22_14 N 0.36920(10) 0.06147(11) 0.61358(10)
O22_14 O 0.47448(11) 0.07103(10) 0.53426(10)
N25_14 N 0.43842(10) 0.01402(10) 0.60162(10)
N27_14 N 0.39600(10) 0.03112(10) 0.62288(10)
N28_14 N 0.37403(11) 0.04185(11) 0.63046(11)
C80_14 C 0.42830(12) 0.03475(11) 0.58954(12)
C81_14 C 0.43987(13) 0.04593(12) 0.56771(13)
H49_14 H 0.432480 0.060903 0.559832
C82_14 C 0.35366(13) 0.09556(12) 0.64423(13)
C83_14 C 0.38770(12) 0.06411(13) 0.59552(13)
H50_14 H 0.389048 0.076646 0.582027
C84_14 C 0.46235(13) 0.03486(14) 0.55766(13)
C86_14 C 0.46080(12) 0.00286(12) 0.59194(12)
C87_14 C 0.47265(14) 0.01234(13) 0.56947(12)
H52_14 H 0.487346 0.003805 0.562262
C89_14 C 0.37859(13) 0.10272(14) 0.64940(14)
H53_14 H 0.392363 0.097095 0.638481
C90_14 C 0.40446(13) 0.04382(12) 0.60155(12)
C91_14 C 0.36289(13) 0.12673(14) 0.68682(14)
C92_14 C 0.36956(14) 0.14434(13) 0.70894(13)
C94_14 C 0.34758(13) 0.07944(14) 0.61995(13)
H56_14 H 0.344501 0.091235 0.605066
H57_14 H 0.331508 0.069280 0.622898
C97_14 C 0.33396(13) 0.10314(14) 0.66035(14)
H58_14 H 0.316752 0.097496 0.656763
C98_14 C 0.38368(13) 0.11838(13) 0.67088(14)
H59_14 H 0.401003 0.123426 0.674807
C99_14 C 0.47637(15) 0.04681(16) 0.53493(16)
C100_14 C 0.33840(14) 0.11875(15) 0.68169(14)
H60_14 H 0.324420 0.123834 0.692626
O25_14 O 0.52207(9) 0.08344(8) 0.81643(10)
O29_14 O 0.55393(10) 0.10716(10) 0.79880(12)
H67_14 H 0.658438 0.000761 0.789715
C114_14 C 0.54575(14) 0.08612(14) 0.80807(16)
C119_14 C 0.61697(14) 0.00119(13) 0.82529(14)
H71_14 H 0.633082 0.008960 0.832354
C121_14 C 0.59786(14) 0.02240(13) 0.81979(13)
C122_14 C 0.56342(14) 0.06396(14) 0.81159(14)
C127_14 C 0.60546(14) 0.04393(14) 0.80436(15)
H77_14 H 0.622160 0.044116 0.796499
C128_14 C 0.58848(14) 0.06502(15) 0.80061(15)
H78_14 H 0.593812 0.079740 0.790821
C129_14 C 0.57311(18) 0.02306(18) 0.8312(2)
H79_14 H 0.568171 0.009479 0.842679
C130_14 C 0.55629(16) 0.04224(18) 0.8264(2)
H80_14 H 0.539134 0.041122 0.833096
O31_14 O 0.43357(10) 0.02207(9) 0.66656(8)
O33_14 O 0.65422(9) 0.03894(9) 0.85850(9)
N36_14 N 0.56147(11) 0.13642(10) 0.88080(10)
N37_14 N 0.44766(10) 0.12342(10) 0.76414(11)
O34_14 O 0.57103(10) 0.21574(10) 0.77552(11)
N38_14 N 0.47662(10) 0.11885(10) 0.79320(10)
O35_14 O 0.45120(12) 0.05393(10) 0.64284(10)
N39_14 N 0.51402(10) 0.14838(10) 0.81158(10)
N40_14 N 0.45605(10) 0.10744(10) 0.78331(11)
N41_14 N 0.53112(10) 0.12712(10) 0.85400(10)
N42_14 N 0.54185(11) 0.11954(11) 0.87597(11)
C131_14 C 0.48108(12) 0.14127(11) 0.78060(12)
C132_14 C 0.53475(11) 0.16046(12) 0.82170(12)
C133_14 C 0.54593(12) 0.18229(13) 0.81013(13)
H81_14 H 0.560903 0.190168 0.817520
C134_14 C 0.59556(12) 0.10577(13) 0.89634(13)
C135_14 C 0.56411(13) 0.15448(13) 0.86230(12)
H82_14 H 0.576646 0.167973 0.860952
C136_14 C 0.53486(14) 0.19234(13) 0.78765(13)
C137_14 C 0.46221(13) 0.14459(14) 0.76130(12)
H83_14 H 0.460285 0.158438 0.749239
C138_14 C 0.50286(12) 0.15806(12) 0.78920(12)
C139_14 C 0.51234(13) 0.18053(12) 0.77735(14)
H84_14 H 0.503805 0.187738 0.762654
C140_14 C 0.44193(16) 0.04575(14) 0.66388(14)
C141_14 C 0.60272(14) 0.10060(14) 0.87141(13)
H85_14 H 0.597095 0.111519 0.857637
C142_14 C 0.54382(12) 0.14845(12) 0.84554(13)
C143_14 C 0.62673(14) 0.06318(14) 0.88711(13)
C144_14 C 0.64434(13) 0.04106(13) 0.88044(14)
C145_14 C 0.42471(14) 0.11697(14) 0.74881(13)
H86_14 H 0.411256 0.109674 0.760467
H87_14 H 0.417646 0.133082 0.741040
C146_14 C 0.57944(14) 0.13005(13) 0.90242(13)
H88_14 H 0.591235 0.144934 0.905499
H89_14 H 0.569280 0.127102 0.918492
C147_14 C 0.43021(13) 0.09786(14) 0.72760(13)
C148_14 C 0.43841(14) 0.06342(14) 0.68604(14)
C149_14 C 0.60314(14) 0.08965(14) 0.91604(13)
H90_14 H 0.597496 0.093237 0.933248
C150_14 C 0.61838(13) 0.07912(14) 0.86632(13)
H91_14 H 0.623426 0.075193 0.848997
C151_14 C 0.54681(16) 0.21507(16) 0.77363(15)
C152_14 C 0.61875(15) 0.06831(14) 0.91160(14)
H92_14 H 0.623834 0.057374 0.925580
C153_14 C 0.44564(15) 0.10546(14) 0.70607(14)
H93_14 H 0.453501 0.122160 0.705884
C154_14 C 0.44939(15) 0.08848(14) 0.68498(15)
H94_14 H 0.459179 0.093812 0.670260
C155_14 C 0.4188(2) 0.07311(18) 0.72694(18)
H95_14 H 0.407321 0.068171 0.740521
C156_14 C 0.4236(2) 0.05629(16) 0.70776(18)
H96_14 H 0.416904 0.039134 0.708878
O19_14 O 0.58344(8) 0.93357(10) 0.72793(9)
N23_14 N 0.48586(11) 0.94766(10) 0.62658(10)
N24_14 N 0.45680(10) 0.97662(10) 0.63115(10)
O23_14 O 0.60716(10) 0.95120(12) 0.69607(10)
N26_14 N 0.46669(11) 0.95605(10) 0.64256(10)
C79_14 C 0.46940(12) 0.98108(12) 0.60873(11)
C85_14 C 0.48870(12) 0.96221(13) 0.60541(14)
H51_14 H 0.500761 0.960285 0.591562
C88_14 C 0.58612(14) 0.94193(16) 0.70425(14)
C93_14 C 0.50119(13) 0.92471(14) 0.63303(14)
H54_14 H 0.489533 0.911256 0.640326
H55_14 H 0.508960 0.917646 0.616918
C95_14 C 0.52240(13) 0.93021(13) 0.65214(14)
C96_14 C 0.56396(14) 0.93841(14) 0.68658(14)
C101_14 C 0.54393(14) 0.94564(15) 0.64454(14)
H61_14 H 0.544116 0.953501 0.627840
C102_14 C 0.56502(15) 0.94939(15) 0.66152(14)
H62_14 H 0.579740 0.959179 0.656188
C103_14 C 0.52306(18) 0.9188(2) 0.67689(18)
H63_14 H 0.509479 0.907321 0.681829
C104_14 C 0.54224(18) 0.9236(2) 0.69371(16)
H64_14 H 0.541122 0.916904 0.710866
O27_14 O 0.53894(9) 0.89150(9) 0.59578(9)
N29_14 N 0.63642(10) 0.86920(10) 0.68853(11)
N30_14 N 0.62342(10) 0.98586(11) 0.80234(10)
O28_14 O 0.71574(10) 0.97448(11) 0.67897(10)
N31_14 N 0.61885(10) 0.95680(10) 0.77338(10)
N32_14 N 0.64838(10) 0.93842(10) 0.73598(10)
N33_14 N 0.60744(10) 0.96669(11) 0.79395(10)
N34_14 N 0.62712(10) 0.89600(10) 0.71888(10)
N35_14 N 0.61954(11) 0.87403(11) 0.70815(11)
C105_14 C 0.64127(11) 0.96940(12) 0.76892(12)
C106_14 C 0.66046(12) 0.92830(12) 0.71525(11)
C107_14 C 0.68229(13) 0.93987(13) 0.70407(12)
H65_14 H 0.690168 0.932480 0.689097
C108_14 C 0.60577(13) 0.85366(13) 0.65444(12)
C109_14 C 0.65448(13) 0.88770(12) 0.68589(13)
H66_14 H 0.667973 0.889048 0.673354
C110_14 C 0.69234(13) 0.96235(13) 0.71514(14)
C111_14 C 0.64459(14) 0.98870(12) 0.78779(13)
C112_14 C 0.65806(12) 0.96080(12) 0.74714(12)
C113_14 C 0.68053(12) 0.97265(14) 0.73766(13)
H68_14 H 0.687738 0.987346 0.746195
C115_14 C 0.60060(14) 0.87859(13) 0.64728(14)
H69_14 H 0.611519 0.892363 0.652905
C116_14 C 0.64845(12) 0.90446(13) 0.70618(12)
C117_14 C 0.56318(14) 0.86289(13) 0.62327(14)
C118_14 C 0.54106(13) 0.86956(14) 0.60566(13)
H70_14 H 0.609674 0.989533 0.838744
C120_14 C 0.63005(13) 0.84758(13) 0.67056(14)
H72_14 H 0.644934 0.844501 0.658765
H73_14 H 0.627102 0.831508 0.680720
C123_14 C 0.58965(14) 0.83396(13) 0.64686(14)
H74_14 H 0.593237 0.816752 0.652504
C124_14 C 0.57912(14) 0.88368(13) 0.63162(13)
H75_14 H 0.575193 0.901003 0.626574
C125_14 C 0.71507(16) 0.97637(15) 0.70319(16)
C126_14 C 0.56831(14) 0.83840(14) 0.63125(15)
H76_14 H 0.557374 0.824420 0.626166
O1_7 O 0.58344(8) 0.43357(10) 0.22793(9)
O3_7 O 0.39150(9) 0.65422(9) 0.21106(9)
N1_7 N 0.36920(10) 0.56147(11) 0.11358(10)
N2_7 N 0.48586(11) 0.44766(10) 0.12658(10)
O4_7 O 0.47448(11) 0.57103(10) 0.03426(10)
N3_7 N 0.45680(10) 0.47662(10) 0.13115(10)
O5_7 O 0.60716(10) 0.45120(12) 0.19607(10)
N4_7 N 0.43842(10) 0.51402(10) 0.10162(10)
N5_7 N 0.46669(11) 0.45605(10) 0.14256(10)
N6_7 N 0.39600(10) 0.53112(10) 0.12288(10)
N7_7 N 0.37403(11) 0.54185(11) 0.13046(11)
C1_7 C 0.46940(12) 0.48108(12) 0.10873(11)
C2_7 C 0.42830(12) 0.53475(11) 0.08954(12)
C3_7 C 0.43987(13) 0.54593(12) 0.06771(13)
H1_7 H 0.432480 0.560903 0.059832
C4_7 C 0.35366(13) 0.59556(12) 0.14423(13)
C5_7 C 0.38770(12) 0.56411(13) 0.09552(13)
H2_7 H 0.389048 0.576646 0.082027
C6_7 C 0.46235(13) 0.53486(14) 0.05766(13)
C7_7 C 0.48870(12) 0.46221(13) 0.10541(14)
H3_7 H 0.500761 0.460285 0.091562
C8_7 C 0.46080(12) 0.50286(12) 0.09194(12)
C9_7 C 0.47265(14) 0.51234(13) 0.06947(12)
H4_7 H 0.487346 0.503805 0.062262
C10_7 C 0.58612(14) 0.44193(16) 0.20425(14)
C11_7 C 0.37859(13) 0.60272(14) 0.14940(14)
H5_7 H 0.392363 0.597095 0.138481
C12_7 C 0.40446(13) 0.54382(12) 0.10155(12)
C13_7 C 0.36289(13) 0.62673(14) 0.18682(14)
C14_7 C 0.36956(14) 0.64434(13) 0.20894(13)
C15_7 C 0.50119(13) 0.42471(14) 0.13303(14)
H6_7 H 0.489533 0.411256 0.140326
H7_7 H 0.508960 0.417646 0.116918
C16_7 C 0.34758(13) 0.57944(14) 0.11995(13)
H8_7 H 0.344501 0.591235 0.105066
H9_7 H 0.331508 0.569280 0.122898
C17_7 C 0.52240(13) 0.43021(13) 0.15214(14)
C18_7 C 0.56396(14) 0.43841(14) 0.18658(14)
C19_7 C 0.33396(13) 0.60314(14) 0.16035(14)
H10_7 H 0.316752 0.597496 0.156763
C20_7 C 0.38368(13) 0.61838(13) 0.17088(14)
H11_7 H 0.401003 0.623426 0.174807
C21_7 C 0.47637(15) 0.54681(16) 0.03493(16)
C22_7 C 0.33840(14) 0.61875(15) 0.18169(14)
H12_7 H 0.324420 0.623834 0.192626
C23_7 C 0.54393(14) 0.44564(15) 0.14454(14)
H13_7 H 0.544116 0.453501 0.127840
C24_7 C 0.56502(15) 0.44939(15) 0.16152(14)
H14_7 H 0.579740 0.459179 0.156188
C25_7 C 0.52306(18) 0.4188(2) 0.17689(18)
H15_7 H 0.509479 0.407321 0.181829
C26_7 C 0.54224(18) 0.4236(2) 0.19371(16)
H16_7 H 0.541122 0.416904 0.210866
O7_7 O 0.52207(9) 0.58344(8) 0.31643(10)
O9_7 O 0.53894(9) 0.39150(9) 0.09578(9)
N8_7 N 0.63642(10) 0.36920(10) 0.18853(11)
N9_7 N 0.62342(10) 0.48586(11) 0.30234(10)
O10_7 O 0.71574(10) 0.47448(11) 0.17897(10)
N10_7 N 0.61885(10) 0.45680(10) 0.27338(10)
O11_7 O 0.55393(10) 0.60716(10) 0.29880(12)
N11_7 N 0.64838(10) 0.43842(10) 0.23598(10)
N12_7 N 0.60744(10) 0.46669(11) 0.29395(10)
N13_7 N 0.62712(10) 0.39600(10) 0.21888(10)
N14_7 N 0.61954(11) 0.37403(11) 0.20815(11)
C27_7 C 0.64127(11) 0.46940(12) 0.26892(12)
C28_7 C 0.66046(12) 0.42830(12) 0.21525(11)
C29_7 C 0.68229(13) 0.43987(13) 0.20407(12)
H17_7 H 0.690168 0.432480 0.189097
C30_7 C 0.60577(13) 0.35366(13) 0.15444(12)
C31_7 C 0.65448(13) 0.38770(12) 0.18589(13)
H18_7 H 0.667973 0.389048 0.173354
C32_7 C 0.69234(13) 0.46235(13) 0.21514(14)
C33_7 C 0.64459(14) 0.48870(12) 0.28779(13)
H19_7 H 0.658438 0.500761 0.289715
C34_7 C 0.65806(12) 0.46080(12) 0.24714(12)
C35_7 C 0.68053(12) 0.47265(14) 0.23766(13)
H20_7 H 0.687738 0.487346 0.246195
C36_7 C 0.54575(14) 0.58612(14) 0.30807(16)
C37_7 C 0.60060(14) 0.37859(13) 0.14728(14)
H21_7 H 0.611519 0.392363 0.152905
C38_7 C 0.64845(12) 0.40446(13) 0.20618(12)
C39_7 C 0.56318(14) 0.36289(13) 0.12327(14)
C40_7 C 0.54106(13) 0.36956(14) 0.10566(13)
C41_7 C 0.61697(14) 0.50119(13) 0.32529(14)
H22_7 H 0.609674 0.489533 0.338744
H23_7 H 0.633082 0.508960 0.332354
C42_7 C 0.63005(13) 0.34758(13) 0.17056(14)
H24_7 H 0.644934 0.344501 0.158765
H25_7 H 0.627102 0.331508 0.180720
C43_7 C 0.59786(14) 0.52240(13) 0.31979(13)
C44_7 C 0.56342(14) 0.56396(14) 0.31159(14)
C45_7 C 0.58965(14) 0.33396(13) 0.14686(14)
H26_7 H 0.593237 0.316752 0.152504
C46_7 C 0.57912(14) 0.38368(13) 0.13162(13)
H27_7 H 0.575193 0.401003 0.126574
C47_7 C 0.71507(16) 0.47637(15) 0.20319(16)
C48_7 C 0.56831(14) 0.33840(14) 0.13125(15)
H28_7 H 0.557374 0.324420 0.126166
C49_7 C 0.60546(14) 0.54393(14) 0.30436(15)
H29_7 H 0.622160 0.544116 0.296499
C50_7 C 0.58848(14) 0.56502(15) 0.30061(15)
H30_7 H 0.593812 0.579740 0.290821
C51_7 C 0.57311(18) 0.52306(18) 0.3312(2)
H31_7 H 0.568171 0.509479 0.342679
C52_7 C 0.55629(16) 0.54224(18) 0.3264(2)
H32_7 H 0.539134 0.541122 0.333096
O13_7 O 0.43357(10) 0.52207(9) 0.16656(8)
O15_7 O 0.65422(9) 0.53894(9) 0.35850(9)
N15_7 N 0.56147(11) 0.63642(10) 0.38080(10)
N16_7 N 0.44766(10) 0.62342(10) 0.26414(11)
O16_7 O 0.57103(10) 0.71574(10) 0.27552(11)
N17_7 N 0.47662(10) 0.61885(10) 0.29320(10)
O17_7 O 0.45120(12) 0.55393(10) 0.14284(10)
N18_7 N 0.51402(10) 0.64838(10) 0.31158(10)
N19_7 N 0.45605(10) 0.60744(10) 0.28331(11)
N20_7 N 0.53112(10) 0.62712(10) 0.35400(10)
N21_7 N 0.54185(11) 0.61954(11) 0.37597(11)
C53_7 C 0.48108(12) 0.64127(11) 0.28060(12)
C54_7 C 0.53475(11) 0.66046(12) 0.32170(12)
C55_7 C 0.54593(12) 0.68229(13) 0.31013(13)
H33_7 H 0.560903 0.690168 0.317520
C56_7 C 0.59556(12) 0.60577(13) 0.39634(13)
C57_7 C 0.56411(13) 0.65448(13) 0.36230(12)
H34_7 H 0.576646 0.667973 0.360952
C58_7 C 0.53486(14) 0.69234(13) 0.28765(13)
C59_7 C 0.46221(13) 0.64459(14) 0.26130(12)
H35_7 H 0.460285 0.658438 0.249239
C60_7 C 0.50286(12) 0.65806(12) 0.28920(12)
C61_7 C 0.51234(13) 0.68053(12) 0.27735(14)
H36_7 H 0.503805 0.687738 0.262654
C62_7 C 0.44193(16) 0.54575(14) 0.16388(14)
C63_7 C 0.60272(14) 0.60060(14) 0.37141(13)
H37_7 H 0.597095 0.611519 0.357637
C64_7 C 0.54382(12) 0.64845(12) 0.34554(13)
C65_7 C 0.62673(14) 0.56318(14) 0.38711(13)
C66_7 C 0.64434(13) 0.54106(13) 0.38044(14)
C67_7 C 0.42471(14) 0.61697(14) 0.24881(13)
H38_7 H 0.411256 0.609674 0.260467
H39_7 H 0.417646 0.633082 0.241040
C68_7 C 0.57944(14) 0.63005(13) 0.40242(13)
H40_7 H 0.591235 0.644934 0.405499
H41_7 H 0.569280 0.627102 0.418492
C69_7 C 0.43021(13) 0.59786(14) 0.22760(13)
C70_7 C 0.43841(14) 0.56342(14) 0.18604(14)
C71_7 C 0.60314(14) 0.58965(14) 0.41604(13)
H42_7 H 0.597496 0.593237 0.433248
C72_7 C 0.61838(13) 0.57912(14) 0.36632(13)
H43_7 H 0.623426 0.575193 0.348997
C73_7 C 0.54681(16) 0.71507(16) 0.27363(15)
C74_7 C 0.61875(15) 0.56831(14) 0.41160(14)
H44_7 H 0.623834 0.557374 0.425580
C75_7 C 0.44564(15) 0.60546(14) 0.20607(14)
H45_7 H 0.453501 0.622160 0.205884
C76_7 C 0.44939(15) 0.58848(14) 0.18498(15)
H46_7 H 0.459179 0.593812 0.170260
C77_7 C 0.4188(2) 0.57311(18) 0.22694(18)
H47_7 H 0.407321 0.568171 0.240521
C78_7 C 0.4236(2) 0.55629(16) 0.20776(18)
H48_7 H 0.416904 0.539134 0.208878
O19_15 O 0.58344(8) 0.81643(10) 0.02207(9)
O21_15 O 0.39150(9) 0.59578(9) 0.03894(9)
N22_15 N 0.36920(10) 0.68853(11) 0.13642(10)
N23_15 N 0.48586(11) 0.80234(10) 0.12342(10)
O22_15 O 0.47448(11) 0.67897(10) 0.21574(10)
N24_15 N 0.45680(10) 0.77338(10) 0.11885(10)
O23_15 O 0.60716(10) 0.79880(12) 0.05393(10)
N25_15 N 0.43842(10) 0.73598(10) 0.14838(10)
N26_15 N 0.46669(11) 0.79395(10) 0.10744(10)
N27_15 N 0.39600(10) 0.71888(10) 0.12712(10)
N28_15 N 0.37403(11) 0.70815(11) 0.11954(11)
C79_15 C 0.46940(12) 0.76892(12) 0.14127(11)
C80_15 C 0.42830(12) 0.71525(11) 0.16046(12)
C81_15 C 0.43987(13) 0.70407(12) 0.18229(13)
H49_15 H 0.432480 0.689097 0.190168
C82_15 C 0.35366(13) 0.65444(12) 0.10577(13)
C83_15 C 0.38770(12) 0.68589(13) 0.15448(13)
H50_15 H 0.389048 0.673354 0.167973
C84_15 C 0.46235(13) 0.71514(14) 0.19234(13)
C85_15 C 0.48870(12) 0.78779(13) 0.14459(14)
H51_15 H 0.500761 0.789715 0.158438
C86_15 C 0.46080(12) 0.74714(12) 0.15806(12)
C87_15 C 0.47265(14) 0.73766(13) 0.18053(12)
H52_15 H 0.487346 0.746195 0.187738
C88_15 C 0.58612(14) 0.80807(16) 0.04575(14)
C89_15 C 0.37859(13) 0.64728(14) 0.10060(14)
H53_15 H 0.392363 0.652905 0.111519
C90_15 C 0.40446(13) 0.70618(12) 0.14845(12)
C91_15 C 0.36289(13) 0.62327(14) 0.06318(14)
C92_15 C 0.36956(14) 0.60566(13) 0.04106(13)
C93_15 C 0.50119(13) 0.82529(14) 0.11697(14)
H54_15 H 0.489533 0.838744 0.109674
H55_15 H 0.508960 0.832354 0.133082
C94_15 C 0.34758(13) 0.67056(14) 0.13005(13)
H56_15 H 0.344501 0.658765 0.144934
H57_15 H 0.331508 0.680720 0.127102
C95_15 C 0.52240(13) 0.81979(13) 0.09786(14)
C96_15 C 0.56396(14) 0.81159(14) 0.06342(14)
C97_15 C 0.33396(13) 0.64686(14) 0.08965(14)
H58_15 H 0.316752 0.652504 0.093237
C98_15 C 0.38368(13) 0.63162(13) 0.07912(14)
H59_15 H 0.401003 0.626574 0.075193
C99_15 C 0.47637(15) 0.70319(16) 0.21507(16)
C100_15 C 0.33840(14) 0.63125(15) 0.06831(14)
H60_15 H 0.324420 0.626166 0.057374
C101_15 C 0.54393(14) 0.80436(15) 0.10546(14)
H61_15 H 0.544116 0.796499 0.122160
C102_15 C 0.56502(15) 0.80061(15) 0.08848(14)
H62_15 H 0.579740 0.790821 0.093812
C103_15 C 0.52306(18) 0.8312(2) 0.07311(18)
H63_15 H 0.509479 0.842679 0.068171
C104_15 C 0.54224(18) 0.8264(2) 0.05629(16)
H64_15 H 0.541122 0.833096 0.039134
O27_15 O 0.53894(9) 0.85850(9) 0.15422(9)
N29_15 N 0.63642(10) 0.88080(10) 0.06147(11)
O28_15 O 0.71574(10) 0.77552(11) 0.07103(10)
N32_15 N 0.64838(10) 0.81158(10) 0.01402(10)
N34_15 N 0.62712(10) 0.85400(10) 0.03112(10)
N35_15 N 0.61954(11) 0.87597(11) 0.04185(11)
C106_15 C 0.66046(12) 0.82170(12) 0.03475(11)
C107_15 C 0.68229(13) 0.81013(13) 0.04593(12)
H65_15 H 0.690168 0.817520 0.060903
C108_15 C 0.60577(13) 0.89634(13) 0.09556(12)
C109_15 C 0.65448(13) 0.86230(12) 0.06411(13)
H66_15 H 0.667973 0.860952 0.076646
C110_15 C 0.69234(13) 0.78765(13) 0.03486(14)
C112_15 C 0.65806(12) 0.78920(12) 0.00286(12)
C113_15 C 0.68053(12) 0.77735(14) 0.01234(13)
H68_15 H 0.687738 0.762654 0.003805
C115_15 C 0.60060(14) 0.87141(13) 0.10272(14)
H69_15 H 0.611519 0.857637 0.097095
C116_15 C 0.64845(12) 0.84554(13) 0.04382(12)
C117_15 C 0.56318(14) 0.88711(13) 0.12673(14)
C118_15 C 0.54106(13) 0.88044(14) 0.14434(13)
C120_15 C 0.63005(13) 0.90242(13) 0.07944(14)
H72_15 H 0.644934 0.905499 0.091235
H73_15 H 0.627102 0.918492 0.069280
C123_15 C 0.58965(14) 0.91604(13) 0.10314(14)
H74_15 H 0.593237 0.933248 0.097496
C124_15 C 0.57912(14) 0.86632(13) 0.11838(13)
H75_15 H 0.575193 0.848997 0.123426
C125_15 C 0.71507(16) 0.77363(15) 0.04681(16)
C126_15 C 0.56831(14) 0.91160(14) 0.11875(15)
H76_15 H 0.557374 0.925580 0.123834
O31_15 O 0.43357(10) 0.72793(9) 0.08344(8)
O35_15 O 0.45120(12) 0.69607(10) 0.10716(10)
H83_15 H 0.460285 0.591562 0.000761
C140_15 C 0.44193(16) 0.70425(14) 0.08612(14)
C145_15 C 0.42471(14) 0.63303(14) 0.00119(13)
H87_15 H 0.417646 0.616918 0.008960
C147_15 C 0.43021(13) 0.65214(14) 0.02240(13)
C148_15 C 0.43841(14) 0.68658(14) 0.06396(14)
C153_15 C 0.44564(15) 0.64454(14) 0.04393(14)
H93_15 H 0.453501 0.627840 0.044116
C154_15 C 0.44939(15) 0.66152(14) 0.06502(15)
H94_15 H 0.459179 0.656188 0.079740
C155_15 C 0.4188(2) 0.67689(18) 0.02306(18)
H95_15 H 0.407321 0.681829 0.009479
C156_15 C 0.4236(2) 0.69371(16) 0.04224(18)
H96_15 H 0.416904 0.710866 0.041122
O25_15 O 0.52207(9) 0.66656(8) 0.93357(10)
N30_15 N 0.62342(10) 0.76414(11) 0.94766(10)
N31_15 N 0.61885(10) 0.79320(10) 0.97662(10)
O29_15 O 0.55393(10) 0.64284(10) 0.95120(12)
N33_15 N 0.60744(10) 0.78331(11) 0.95605(10)
C105_15 C 0.64127(11) 0.78060(12) 0.98108(12)
C111_15 C 0.64459(14) 0.76130(12) 0.96221(13)
H67_15 H 0.658438 0.749239 0.960285
C114_15 C 0.54575(14) 0.66388(14) 0.94193(16)
C119_15 C 0.61697(14) 0.74881(13) 0.92471(14)
H70_15 H 0.609674 0.760467 0.911256
H71_15 H 0.633082 0.741040 0.917646
C121_15 C 0.59786(14) 0.72760(13) 0.93021(13)
C122_15 C 0.56342(14) 0.68604(14) 0.93841(14)
C127_15 C 0.60546(14) 0.70607(14) 0.94564(15)
H77_15 H 0.622160 0.705884 0.953501
C128_15 C 0.58848(14) 0.68498(15) 0.94939(15)
H78_15 H 0.593812 0.670260 0.959179
C129_15 C 0.57311(18) 0.72694(18) 0.9188(2)
H79_15 H 0.568171 0.740521 0.907321
C130_15 C 0.55629(16) 0.70776(18) 0.9236(2)
H80_15 H 0.539134 0.708878 0.916904
O33_15 O 0.65422(9) 0.71106(9) 0.89150(9)
N36_15 N 0.56147(11) 0.61358(10) 0.86920(10)
N37_15 N 0.44766(10) 0.62658(10) 0.98586(11)
O34_15 O 0.57103(10) 0.53426(10) 0.97448(11)
N38_15 N 0.47662(10) 0.63115(10) 0.95680(10)
N39_15 N 0.51402(10) 0.60162(10) 0.93842(10)
N40_15 N 0.45605(10) 0.64256(10) 0.96669(11)
N41_15 N 0.53112(10) 0.62288(10) 0.89600(10)
N42_15 N 0.54185(11) 0.63046(11) 0.87403(11)
C131_15 C 0.48108(12) 0.60873(11) 0.96940(12)
C132_15 C 0.53475(11) 0.58954(12) 0.92830(12)
C133_15 C 0.54593(12) 0.56771(13) 0.93987(13)
H81_15 H 0.560903 0.559832 0.932480
C134_15 C 0.59556(12) 0.64423(13) 0.85366(13)
C135_15 C 0.56411(13) 0.59552(13) 0.88770(12)
H82_15 H 0.576646 0.582027 0.889048
C136_15 C 0.53486(14) 0.55766(13) 0.96235(13)
C137_15 C 0.46221(13) 0.60541(14) 0.98870(12)
C138_15 C 0.50286(12) 0.59194(12) 0.96080(12)
C139_15 C 0.51234(13) 0.56947(12) 0.97265(14)
H84_15 H 0.503805 0.562262 0.987346
C141_15 C 0.60272(14) 0.64940(14) 0.87859(13)
H85_15 H 0.597095 0.638481 0.892363
C142_15 C 0.54382(12) 0.60155(12) 0.90446(13)
C143_15 C 0.62673(14) 0.68682(14) 0.86289(13)
C144_15 C 0.64434(13) 0.70894(13) 0.86956(14)
H86_15 H 0.411256 0.640326 0.989533
C146_15 C 0.57944(14) 0.61995(13) 0.84758(13)
H88_15 H 0.591235 0.605066 0.844501
H89_15 H 0.569280 0.622898 0.831508
C149_15 C 0.60314(14) 0.66035(14) 0.83396(13)
H90_15 H 0.597496 0.656763 0.816752
C150_15 C 0.61838(13) 0.67088(14) 0.88368(13)
H91_15 H 0.623426 0.674807 0.901003
C151_15 C 0.54681(16) 0.53493(16) 0.97637(15)
C152_15 C 0.61875(15) 0.68169(14) 0.83840(14)
H92_15 H 0.623834 0.692626 0.824420
O1_8 O 0.16656(8) 0.31643(10) 0.22793(9)
O3_8 O 0.35850(9) 0.09578(9) 0.21106(9)
N1_8 N 0.38080(10) 0.18853(11) 0.11358(10)
N2_8 N 0.26414(11) 0.30234(10) 0.12658(10)
O4_8 O 0.27552(11) 0.17897(10) 0.03426(10)
N3_8 N 0.29320(10) 0.27338(10) 0.13115(10)
O5_8 O 0.14284(10) 0.29880(12) 0.19607(10)
N4_8 N 0.31158(10) 0.23598(10) 0.10162(10)
N5_8 N 0.28331(11) 0.29395(10) 0.14256(10)
N6_8 N 0.35400(10) 0.21888(10) 0.12288(10)
N7_8 N 0.37597(11) 0.20815(11) 0.13046(11)
C1_8 C 0.28060(12) 0.26892(12) 0.10873(11)
C2_8 C 0.32170(12) 0.21525(11) 0.08954(12)
C3_8 C 0.31013(13) 0.20407(12) 0.06771(13)
H1_8 H 0.317520 0.189097 0.059832
C4_8 C 0.39634(13) 0.15444(12) 0.14423(13)
C5_8 C 0.36230(12) 0.18589(13) 0.09552(13)
H2_8 H 0.360952 0.173354 0.082027
C6_8 C 0.28765(13) 0.21514(14) 0.05766(13)
C7_8 C 0.26130(12) 0.28779(13) 0.10541(14)
H3_8 H 0.249239 0.289715 0.091562
C8_8 C 0.28920(12) 0.24714(12) 0.09194(12)
C9_8 C 0.27735(14) 0.23766(13) 0.06947(12)
H4_8 H 0.262654 0.246195 0.062262
C10_8 C 0.16388(14) 0.30807(16) 0.20425(14)
C11_8 C 0.37141(13) 0.14728(14) 0.14940(14)
H5_8 H 0.357637 0.152905 0.138481
C12_8 C 0.34554(13) 0.20618(12) 0.10155(12)
C13_8 C 0.38711(13) 0.12327(14) 0.18682(14)
C14_8 C 0.38044(14) 0.10566(13) 0.20894(13)
C15_8 C 0.24881(13) 0.32529(14) 0.13303(14)
H6_8 H 0.260467 0.338744 0.140326
H7_8 H 0.241040 0.332354 0.116918
C16_8 C 0.40242(13) 0.17056(14) 0.11995(13)
H8_8 H 0.405499 0.158765 0.105066
H9_8 H 0.418492 0.180720 0.122898
C17_8 C 0.22760(13) 0.31979(13) 0.15214(14)
C18_8 C 0.18604(14) 0.31159(14) 0.18658(14)
C19_8 C 0.41604(13) 0.14686(14) 0.16035(14)
H10_8 H 0.433248 0.152504 0.156763
C20_8 C 0.36632(13) 0.13162(13) 0.17088(14)
H11_8 H 0.348997 0.126574 0.174807
C21_8 C 0.27363(15) 0.20319(16) 0.03493(16)
C22_8 C 0.41160(14) 0.13125(15) 0.18169(14)
H12_8 H 0.425580 0.126166 0.192626
C23_8 C 0.20607(14) 0.30436(15) 0.14454(14)
H13_8 H 0.205884 0.296499 0.127840
C24_8 C 0.18498(15) 0.30061(15) 0.16152(14)
H14_8 H 0.170260 0.290821 0.156188
C25_8 C 0.22694(18) 0.3312(2) 0.17689(18)
H15_8 H 0.240521 0.342679 0.181829
C26_8 C 0.20776(18) 0.3264(2) 0.19371(16)
H16_8 H 0.208878 0.333096 0.210866
O7_8 O 0.22793(9) 0.16656(8) 0.31643(10)
O9_8 O 0.21106(9) 0.35850(9) 0.09578(9)
N8_8 N 0.11358(10) 0.38080(10) 0.18853(11)
N9_8 N 0.12658(10) 0.26414(11) 0.30234(10)
O10_8 O 0.03426(10) 0.27552(11) 0.17897(10)
N10_8 N 0.13115(10) 0.29320(10) 0.27338(10)
O11_8 O 0.19607(10) 0.14284(10) 0.29880(12)
N11_8 N 0.10162(10) 0.31158(10) 0.23598(10)
N12_8 N 0.14256(10) 0.28331(11) 0.29395(10)
N13_8 N 0.12288(10) 0.35400(10) 0.21888(10)
N14_8 N 0.13046(11) 0.37597(11) 0.20815(11)
C27_8 C 0.10873(11) 0.28060(12) 0.26892(12)
C28_8 C 0.08954(12) 0.32170(12) 0.21525(11)
C29_8 C 0.06771(13) 0.31013(13) 0.20407(12)
H17_8 H 0.059832 0.317520 0.189097
C30_8 C 0.14423(13) 0.39634(13) 0.15444(12)
C31_8 C 0.09552(13) 0.36230(12) 0.18589(13)
H18_8 H 0.082027 0.360952 0.173354
C32_8 C 0.05766(13) 0.28765(13) 0.21514(14)
C33_8 C 0.10541(14) 0.26130(12) 0.28779(13)
H19_8 H 0.091562 0.249239 0.289715
C34_8 C 0.09194(12) 0.28920(12) 0.24714(12)
C35_8 C 0.06947(12) 0.27735(14) 0.23766(13)
H20_8 H 0.062262 0.262654 0.246195
C36_8 C 0.20425(14) 0.16388(14) 0.30807(16)
C37_8 C 0.14940(14) 0.37141(13) 0.14728(14)
H21_8 H 0.138481 0.357637 0.152905
C38_8 C 0.10155(12) 0.34554(13) 0.20618(12)
C39_8 C 0.18682(14) 0.38711(13) 0.12327(14)
C40_8 C 0.20894(13) 0.38044(14) 0.10566(13)
C41_8 C 0.13303(14) 0.24881(13) 0.32529(14)
H22_8 H 0.140326 0.260467 0.338744
H23_8 H 0.116918 0.241040 0.332354
C42_8 C 0.11995(13) 0.40242(13) 0.17056(14)
H24_8 H 0.105066 0.405499 0.158765
H25_8 H 0.122898 0.418492 0.180720
C43_8 C 0.15214(14) 0.22760(13) 0.31979(13)
C44_8 C 0.18658(14) 0.18604(14) 0.31159(14)
C45_8 C 0.16035(14) 0.41604(13) 0.14686(14)
H26_8 H 0.156763 0.433248 0.152504
C46_8 C 0.17088(14) 0.36632(13) 0.13162(13)
H27_8 H 0.174807 0.348997 0.126574
C47_8 C 0.03493(16) 0.27363(15) 0.20319(16)
C48_8 C 0.18169(14) 0.41160(14) 0.13125(15)
H28_8 H 0.192626 0.425580 0.126166
C49_8 C 0.14454(14) 0.20607(14) 0.30436(15)
H29_8 H 0.127840 0.205884 0.296499
C50_8 C 0.16152(14) 0.18498(15) 0.30061(15)
H30_8 H 0.156188 0.170260 0.290821
C51_8 C 0.17689(18) 0.22694(18) 0.3312(2)
H31_8 H 0.181829 0.240521 0.342679
C52_8 C 0.19371(16) 0.20776(18) 0.3264(2)
H32_8 H 0.210866 0.208878 0.333096
O13_8 O 0.31643(10) 0.22793(9) 0.16656(8)
O15_8 O 0.09578(9) 0.21106(9) 0.35850(9)
N15_8 N 0.18853(11) 0.11358(10) 0.38080(10)
N16_8 N 0.30234(10) 0.12658(10) 0.26414(11)
O16_8 O 0.17897(10) 0.03426(10) 0.27552(11)
N17_8 N 0.27338(10) 0.13115(10) 0.29320(10)
O17_8 O 0.29880(12) 0.19607(10) 0.14284(10)
N18_8 N 0.23598(10) 0.10162(10) 0.31158(10)
N19_8 N 0.29395(10) 0.14256(10) 0.28331(11)
N20_8 N 0.21888(10) 0.12288(10) 0.35400(10)
N21_8 N 0.20815(11) 0.13046(11) 0.37597(11)
C53_8 C 0.26892(12) 0.10873(11) 0.28060(12)
C54_8 C 0.21525(11) 0.08954(12) 0.32170(12)
C55_8 C 0.20407(12) 0.06771(13) 0.31013(13)
H33_8 H 0.189097 0.059832 0.317520
C56_8 C 0.15444(12) 0.14423(13) 0.39634(13)
C57_8 C 0.18589(13) 0.09552(13) 0.36230(12)
H34_8 H 0.173354 0.082027 0.360952
C58_8 C 0.21514(14) 0.05766(13) 0.28765(13)
C59_8 C 0.28779(13) 0.10541(14) 0.26130(12)
H35_8 H 0.289715 0.091562 0.249239
C60_8 C 0.24714(12) 0.09194(12) 0.28920(12)
C61_8 C 0.23766(13) 0.06947(12) 0.27735(14)
H36_8 H 0.246195 0.062262 0.262654
C62_8 C 0.30807(16) 0.20425(14) 0.16388(14)
C63_8 C 0.14728(14) 0.14940(14) 0.37141(13)
H37_8 H 0.152905 0.138481 0.357637
C64_8 C 0.20618(12) 0.10155(12) 0.34554(13)
C65_8 C 0.12327(14) 0.18682(14) 0.38711(13)
C66_8 C 0.10566(13) 0.20894(13) 0.38044(14)
C67_8 C 0.32529(14) 0.13303(14) 0.24881(13)
H38_8 H 0.338744 0.140326 0.260467
H39_8 H 0.332354 0.116918 0.241040
C68_8 C 0.17056(14) 0.11995(13) 0.40242(13)
H40_8 H 0.158765 0.105066 0.405499
H41_8 H 0.180720 0.122898 0.418492
C69_8 C 0.31979(13) 0.15214(14) 0.22760(13)
C70_8 C 0.31159(14) 0.18658(14) 0.18604(14)
C71_8 C 0.14686(14) 0.16035(14) 0.41604(13)
H42_8 H 0.152504 0.156763 0.433248
C72_8 C 0.13162(13) 0.17088(14) 0.36632(13)
H43_8 H 0.126574 0.174807 0.348997
C73_8 C 0.20319(16) 0.03493(16) 0.27363(15)
C74_8 C 0.13125(15) 0.18169(14) 0.41160(14)
H44_8 H 0.126166 0.192626 0.425580
C75_8 C 0.30436(15) 0.14454(14) 0.20607(14)
H45_8 H 0.296499 0.127840 0.205884
C76_8 C 0.30061(15) 0.16152(14) 0.18498(15)
H46_8 H 0.290821 0.156188 0.170260
C77_8 C 0.3312(2) 0.17689(18) 0.22694(18)
H47_8 H 0.342679 0.181829 0.240521
C78_8 C 0.3264(2) 0.19371(16) 0.20776(18)
H48_8 H 0.333096 0.210866 0.208878
O21_16 O 0.35850(9) 0.15422(9) 0.03894(9)
N22_16 N 0.38080(10) 0.06147(11) 0.13642(10)
O22_16 O 0.27552(11) 0.07103(10) 0.21574(10)
N25_16 N 0.31158(10) 0.01402(10) 0.14838(10)
N27_16 N 0.35400(10) 0.03112(10) 0.12712(10)
N28_16 N 0.37597(11) 0.04185(11) 0.11954(11)
C80_16 C 0.32170(12) 0.03475(11) 0.16046(12)
C81_16 C 0.31013(13) 0.04593(12) 0.18229(13)
H49_16 H 0.317520 0.060903 0.190168
C82_16 C 0.39634(13) 0.09556(12) 0.10577(13)
C83_16 C 0.36230(12) 0.06411(13) 0.15448(13)
H50_16 H 0.360952 0.076646 0.167973
C84_16 C 0.28765(13) 0.03486(14) 0.19234(13)
C86_16 C 0.28920(12) 0.00286(12) 0.15806(12)
C87_16 C 0.27735(14) 0.01234(13) 0.18053(12)
H52_16 H 0.262654 0.003805 0.187738
C89_16 C 0.37141(13) 0.10272(14) 0.10060(14)
H53_16 H 0.357637 0.097095 0.111519
C90_16 C 0.34554(13) 0.04382(12) 0.14845(12)
C91_16 C 0.38711(13) 0.12673(14) 0.06318(14)
C92_16 C 0.38044(14) 0.14434(13) 0.04106(13)
C94_16 C 0.40242(13) 0.07944(14) 0.13005(13)
H56_16 H 0.405499 0.091235 0.144934
H57_16 H 0.418492 0.069280 0.127102
C97_16 C 0.41604(13) 0.10314(14) 0.08965(14)
H58_16 H 0.433248 0.097496 0.093237
C98_16 C 0.36632(13) 0.11838(13) 0.07912(14)
H59_16 H 0.348997 0.123426 0.075193
C99_16 C 0.27363(15) 0.04681(16) 0.21507(16)
C100_16 C 0.41160(14) 0.11875(15) 0.06831(14)
H60_16 H 0.425580 0.123834 0.057374
O31_16 O 0.31643(10) 0.02207(9) 0.08344(8)
O35_16 O 0.29880(12) 0.05393(10) 0.10716(10)
H83_16 H 0.289715 0.158438 0.000761
C140_16 C 0.30807(16) 0.04575(14) 0.08612(14)
C145_16 C 0.32529(14) 0.11697(14) 0.00119(13)
H87_16 H 0.332354 0.133082 0.008960
C147_16 C 0.31979(13) 0.09786(14) 0.02240(13)
C148_16 C 0.31159(14) 0.06342(14) 0.06396(14)
C153_16 C 0.30436(15) 0.10546(14) 0.04393(14)
H93_16 H 0.296499 0.122160 0.044116
C154_16 C 0.30061(15) 0.08848(14) 0.06502(15)
H94_16 H 0.290821 0.093812 0.079740
C155_16 C 0.3312(2) 0.07311(18) 0.02306(18)
H95_16 H 0.342679 0.068171 0.009479
C156_16 C 0.3264(2) 0.05629(16) 0.04224(18)
H96_16 H 0.333096 0.039134 0.041122
O25_16 O 0.22793(9) 0.08344(8) 0.93357(10)
O29_16 O 0.19607(10) 0.10716(10) 0.95120(12)
H67_16 H 0.091562 0.000761 0.960285
C114_16 C 0.20425(14) 0.08612(14) 0.94193(16)
C119_16 C 0.13303(14) 0.00119(13) 0.92471(14)
H71_16 H 0.116918 0.008960 0.917646
C121_16 C 0.15214(14) 0.02240(13) 0.93021(13)
C122_16 C 0.18658(14) 0.06396(14) 0.93841(14)
C127_16 C 0.14454(14) 0.04393(14) 0.94564(15)
H77_16 H 0.127840 0.044116 0.953501
C128_16 C 0.16152(14) 0.06502(15) 0.94939(15)
H78_16 H 0.156188 0.079740 0.959179
C129_16 C 0.17689(18) 0.02306(18) 0.9188(2)
H79_16 H 0.181829 0.009479 0.907321
C130_16 C 0.19371(16) 0.04224(18) 0.9236(2)
H80_16 H 0.210866 0.041122 0.916904
O33_16 O 0.09578(9) 0.03894(9) 0.89150(9)
N36_16 N 0.18853(11) 0.13642(10) 0.86920(10)
N37_16 N 0.30234(10) 0.12342(10) 0.98586(11)
O34_16 O 0.17897(10) 0.21574(10) 0.97448(11)
N38_16 N 0.27338(10) 0.11885(10) 0.95680(10)
N39_16 N 0.23598(10) 0.14838(10) 0.93842(10)
N40_16 N 0.29395(10) 0.10744(10) 0.96669(11)
N41_16 N 0.21888(10) 0.12712(10) 0.89600(10)
N42_16 N 0.20815(11) 0.11954(11) 0.87403(11)
C131_16 C 0.26892(12) 0.14127(11) 0.96940(12)
C132_16 C 0.21525(11) 0.16046(12) 0.92830(12)
C133_16 C 0.20407(12) 0.18229(13) 0.93987(13)
H81_16 H 0.189097 0.190168 0.932480
C134_16 C 0.15444(12) 0.10577(13) 0.85366(13)
C135_16 C 0.18589(13) 0.15448(13) 0.88770(12)
H82_16 H 0.173354 0.167973 0.889048
C136_16 C 0.21514(14) 0.19234(13) 0.96235(13)
C137_16 C 0.28779(13) 0.14459(14) 0.98870(12)
C138_16 C 0.24714(12) 0.15806(12) 0.96080(12)
C139_16 C 0.23766(13) 0.18053(12) 0.97265(14)
H84_16 H 0.246195 0.187738 0.987346
C141_16 C 0.14728(14) 0.10060(14) 0.87859(13)
H85_16 H 0.152905 0.111519 0.892363
C142_16 C 0.20618(12) 0.14845(12) 0.90446(13)
C143_16 C 0.12327(14) 0.06318(14) 0.86289(13)
C144_16 C 0.10566(13) 0.04106(13) 0.86956(14)
H86_16 H 0.338744 0.109674 0.989533
C146_16 C 0.17056(14) 0.13005(13) 0.84758(13)
H88_16 H 0.158765 0.144934 0.844501
H89_16 H 0.180720 0.127102 0.831508
C149_16 C 0.14686(14) 0.08965(14) 0.83396(13)
H90_16 H 0.152504 0.093237 0.816752
C150_16 C 0.13162(13) 0.07912(14) 0.88368(13)
H91_16 H 0.126574 0.075193 0.901003
C151_16 C 0.20319(16) 0.21507(16) 0.97637(15)
C152_16 C 0.13125(15) 0.06831(14) 0.83840(14)
H92_16 H 0.126166 0.057374 0.824420
O19_16 O 0.16656(8) 0.93357(10) 0.02207(9)
N23_16 N 0.26414(11) 0.94766(10) 0.12342(10)
N24_16 N 0.29320(10) 0.97662(10) 0.11885(10)
O23_16 O 0.14284(10) 0.95120(12) 0.05393(10)
N26_16 N 0.28331(11) 0.95605(10) 0.10744(10)
C79_16 C 0.28060(12) 0.98108(12) 0.14127(11)
C85_16 C 0.26130(12) 0.96221(13) 0.14459(14)
H51_16 H 0.249239 0.960285 0.158438
C88_16 C 0.16388(14) 0.94193(16) 0.04575(14)
C93_16 C 0.24881(13) 0.92471(14) 0.11697(14)
H54_16 H 0.260467 0.911256 0.109674
H55_16 H 0.241040 0.917646 0.133082
C95_16 C 0.22760(13) 0.93021(13) 0.09786(14)
C96_16 C 0.18604(14) 0.93841(14) 0.06342(14)
C101_16 C 0.20607(14) 0.94564(15) 0.10546(14)
H61_16 H 0.205884 0.953501 0.122160
C102_16 C 0.18498(15) 0.94939(15) 0.08848(14)
H62_16 H 0.170260 0.959179 0.093812
C103_16 C 0.22694(18) 0.9188(2) 0.07311(18)
H63_16 H 0.240521 0.907321 0.068171
C104_16 C 0.20776(18) 0.9236(2) 0.05629(16)
H64_16 H 0.208878 0.916904 0.039134
O27_16 O 0.21106(9) 0.89150(9) 0.15422(9)
N29_16 N 0.11358(10) 0.86920(10) 0.06147(11)
O28_16 O 0.03426(10) 0.97448(11) 0.07103(10)
N32_16 N 0.10162(10) 0.93842(10) 0.01402(10)
N34_16 N 0.12288(10) 0.89600(10) 0.03112(10)
N35_16 N 0.13046(11) 0.87403(11) 0.04185(11)
C106_16 C 0.08954(12) 0.92830(12) 0.03475(11)
C107_16 C 0.06771(13) 0.93987(13) 0.04593(12)
H65_16 H 0.059832 0.932480 0.060903
C108_16 C 0.14423(13) 0.85366(13) 0.09556(12)
C109_16 C 0.09552(13) 0.88770(12) 0.06411(13)
H66_16 H 0.082027 0.889048 0.076646
C110_16 C 0.05766(13) 0.96235(13) 0.03486(14)
C112_16 C 0.09194(12) 0.96080(12) 0.00286(12)
C113_16 C 0.06947(12) 0.97265(14) 0.01234(13)
H68_16 H 0.062262 0.987346 0.003805
C115_16 C 0.14940(14) 0.87859(13) 0.10272(14)
H69_16 H 0.138481 0.892363 0.097095
C116_16 C 0.10155(12) 0.90446(13) 0.04382(12)
C117_16 C 0.18682(14) 0.86289(13) 0.12673(14)
C118_16 C 0.20894(13) 0.86956(14) 0.14434(13)
C120_16 C 0.11995(13) 0.84758(13) 0.07944(14)
H72_16 H 0.105066 0.844501 0.091235
H73_16 H 0.122898 0.831508 0.069280
C123_16 C 0.16035(14) 0.83396(13) 0.10314(14)
H74_16 H 0.156763 0.816752 0.097496
C124_16 C 0.17088(14) 0.88368(13) 0.11838(13)
H75_16 H 0.174807 0.901003 0.123426
C125_16 C 0.03493(16) 0.97637(15) 0.04681(16)
C126_16 C 0.18169(14) 0.83840(14) 0.11875(15)
H76_16 H 0.192626 0.824420 0.123834
N30_16 N 0.12658(10) 0.98586(11) 0.94766(10)
N31_16 N 0.13115(10) 0.95680(10) 0.97662(10)
N33_16 N 0.14256(10) 0.96669(11) 0.95605(10)
C105_16 C 0.10873(11) 0.96940(12) 0.98108(12)
C111_16 C 0.10541(14) 0.98870(12) 0.96221(13)
H70_16 H 0.140326 0.989533 0.911256
O19_17 O 0.72793(9) 0.16656(8) 0.81643(10)
O21_17 O 0.71106(9) 0.35850(9) 0.59578(9)
N22_17 N 0.61358(10) 0.38080(10) 0.68853(11)
N23_17 N 0.62658(10) 0.26414(11) 0.80234(10)
O22_17 O 0.53426(10) 0.27552(11) 0.67897(10)
N24_17 N 0.63115(10) 0.29320(10) 0.77338(10)
O23_17 O 0.69607(10) 0.14284(10) 0.79880(12)
N25_17 N 0.60162(10) 0.31158(10) 0.73598(10)
N26_17 N 0.64256(10) 0.28331(11) 0.79395(10)
N27_17 N 0.62288(10) 0.35400(10) 0.71888(10)
N28_17 N 0.63046(11) 0.37597(11) 0.70815(11)
C79_17 C 0.60873(11) 0.28060(12) 0.76892(12)
C80_17 C 0.58954(12) 0.32170(12) 0.71525(11)
C81_17 C 0.56771(13) 0.31013(13) 0.70407(12)
H49_17 H 0.559832 0.317520 0.689097
C82_17 C 0.64423(13) 0.39634(13) 0.65444(12)
C83_17 C 0.59552(13) 0.36230(12) 0.68589(13)
H50_17 H 0.582027 0.360952 0.673354
C84_17 C 0.55766(13) 0.28765(13) 0.71514(14)
C85_17 C 0.60541(14) 0.26130(12) 0.78779(13)
H51_17 H 0.591562 0.249239 0.789715
C86_17 C 0.59194(12) 0.28920(12) 0.74714(12)
C87_17 C 0.56947(12) 0.27735(14) 0.73766(13)
H52_17 H 0.562262 0.262654 0.746195
C88_17 C 0.70425(14) 0.16388(14) 0.80807(16)
C89_17 C 0.64940(14) 0.37141(13) 0.64728(14)
H53_17 H 0.638481 0.357637 0.652905
C90_17 C 0.60155(12) 0.34554(13) 0.70618(12)
C91_17 C 0.68682(14) 0.38711(13) 0.62327(14)
C92_17 C 0.70894(13) 0.38044(14) 0.60566(13)
C93_17 C 0.63303(14) 0.24881(13) 0.82529(14)
H54_17 H 0.640326 0.260467 0.838744
H55_17 H 0.616918 0.241040 0.832354
C94_17 C 0.61995(13) 0.40242(13) 0.67056(14)
H56_17 H 0.605066 0.405499 0.658765
H57_17 H 0.622898 0.418492 0.680720
C95_17 C 0.65214(14) 0.22760(13) 0.81979(13)
C96_17 C 0.68658(14) 0.18604(14) 0.81159(14)
C97_17 C 0.66035(14) 0.41604(13) 0.64686(14)
H58_17 H 0.656763 0.433248 0.652504
C98_17 C 0.67088(14) 0.36632(13) 0.63162(13)
H59_17 H 0.674807 0.348997 0.626574
C99_17 C 0.53493(16) 0.27363(15) 0.70319(16)
C100_17 C 0.68169(14) 0.41160(14) 0.63125(15)
H60_17 H 0.692626 0.425580 0.626166
C101_17 C 0.64454(14) 0.20607(14) 0.80436(15)
H61_17 H 0.627840 0.205884 0.796499
C102_17 C 0.66152(14) 0.18498(15) 0.80061(15)
H62_17 H 0.656188 0.170260 0.790821
C103_17 C 0.67689(18) 0.22694(18) 0.8312(2)
H63_17 H 0.681829 0.240521 0.842679
C104_17 C 0.69371(16) 0.20776(18) 0.8264(2)
H64_17 H 0.710866 0.208878 0.833096
O25_17 O 0.81643(10) 0.22793(9) 0.66656(8)
O27_17 O 0.59578(9) 0.21106(9) 0.85850(9)
N29_17 N 0.68853(11) 0.11358(10) 0.88080(10)
N30_17 N 0.80234(10) 0.12658(10) 0.76414(11)
O28_17 O 0.67897(10) 0.03426(10) 0.77552(11)
N31_17 N 0.77338(10) 0.13115(10) 0.79320(10)
O29_17 O 0.79880(12) 0.19607(10) 0.64284(10)
N32_17 N 0.73598(10) 0.10162(10) 0.81158(10)
N33_17 N 0.79395(10) 0.14256(10) 0.78331(11)
N34_17 N 0.71888(10) 0.12288(10) 0.85400(10)
N35_17 N 0.70815(11) 0.13046(11) 0.87597(11)
C105_17 C 0.76892(12) 0.10873(11) 0.78060(12)
C106_17 C 0.71525(11) 0.08954(12) 0.82170(12)
C107_17 C 0.70407(12) 0.06771(13) 0.81013(13)
H65_17 H 0.689097 0.059832 0.817520
C108_17 C 0.65444(12) 0.14423(13) 0.89634(13)
C109_17 C 0.68589(13) 0.09552(13) 0.86230(12)
H66_17 H 0.673354 0.082027 0.860952
C110_17 C 0.71514(14) 0.05766(13) 0.78765(13)
C111_17 C 0.78779(13) 0.10541(14) 0.76130(12)
H67_17 H 0.789715 0.091562 0.749239
C112_17 C 0.74714(12) 0.09194(12) 0.78920(12)
C113_17 C 0.73766(13) 0.06947(12) 0.77735(14)
H68_17 H 0.746195 0.062262 0.762654
C114_17 C 0.80807(16) 0.20425(14) 0.66388(14)
C115_17 C 0.64728(14) 0.14940(14) 0.87141(13)
H69_17 H 0.652905 0.138481 0.857637
C116_17 C 0.70618(12) 0.10155(12) 0.84554(13)
C117_17 C 0.62327(14) 0.18682(14) 0.88711(13)
C118_17 C 0.60566(13) 0.20894(13) 0.88044(14)
C119_17 C 0.82529(14) 0.13303(14) 0.74881(13)
H70_17 H 0.838744 0.140326 0.760467
H71_17 H 0.832354 0.116918 0.741040
C120_17 C 0.67056(14) 0.11995(13) 0.90242(13)
H72_17 H 0.658765 0.105066 0.905499
H73_17 H 0.680720 0.122898 0.918492
C121_17 C 0.81979(13) 0.15214(14) 0.72760(13)
C122_17 C 0.81159(14) 0.18658(14) 0.68604(14)
C123_17 C 0.64686(14) 0.16035(14) 0.91604(13)
H74_17 H 0.652504 0.156763 0.933248
C124_17 C 0.63162(13) 0.17088(14) 0.86632(13)
H75_17 H 0.626574 0.174807 0.848997
C125_17 C 0.70319(16) 0.03493(16) 0.77363(15)
C126_17 C 0.63125(15) 0.18169(14) 0.91160(14)
H76_17 H 0.626166 0.192626 0.925580
C127_17 C 0.80436(15) 0.14454(14) 0.70607(14)
H77_17 H 0.796499 0.127840 0.705884
C128_17 C 0.80061(15) 0.16152(14) 0.68498(15)
H78_17 H 0.790821 0.156188 0.670260
C129_17 C 0.8312(2) 0.17689(18) 0.72694(18)
H79_17 H 0.842679 0.181829 0.740521
C130_17 C 0.8264(2) 0.19371(16) 0.70776(18)
H80_17 H 0.833096 0.210866 0.708878
O31_17 O 0.66656(8) 0.31643(10) 0.72793(9)
O33_17 O 0.85850(9) 0.09578(9) 0.71106(9)
N36_17 N 0.88080(10) 0.18853(11) 0.61358(10)
N37_17 N 0.76414(11) 0.30234(10) 0.62658(10)
O34_17 O 0.77552(11) 0.17897(10) 0.53426(10)
N38_17 N 0.79320(10) 0.27338(10) 0.63115(10)
O35_17 O 0.64284(10) 0.29880(12) 0.69607(10)
N39_17 N 0.81158(10) 0.23598(10) 0.60162(10)
N40_17 N 0.78331(11) 0.29395(10) 0.64256(10)
N41_17 N 0.85400(10) 0.21888(10) 0.62288(10)
N42_17 N 0.87597(11) 0.20815(11) 0.63046(11)
C131_17 C 0.78060(12) 0.26892(12) 0.60873(11)
C132_17 C 0.82170(12) 0.21525(11) 0.58954(12)
C133_17 C 0.81013(13) 0.20407(12) 0.56771(13)
H81_17 H 0.817520 0.189097 0.559832
C134_17 C 0.89634(13) 0.15444(12) 0.64423(13)
C135_17 C 0.86230(12) 0.18589(13) 0.59552(13)
H82_17 H 0.860952 0.173354 0.582027
C136_17 C 0.78765(13) 0.21514(14) 0.55766(13)
C137_17 C 0.76130(12) 0.28779(13) 0.60541(14)
H83_17 H 0.749239 0.289715 0.591562
C138_17 C 0.78920(12) 0.24714(12) 0.59194(12)
C139_17 C 0.77735(14) 0.23766(13) 0.56947(12)
H84_17 H 0.762654 0.246195 0.562262
C140_17 C 0.66388(14) 0.30807(16) 0.70425(14)
C141_17 C 0.87141(13) 0.14728(14) 0.64940(14)
H85_17 H 0.857637 0.152905 0.638481
C142_17 C 0.84554(13) 0.20618(12) 0.60155(12)
C143_17 C 0.88711(13) 0.12327(14) 0.68682(14)
C144_17 C 0.88044(14) 0.10566(13) 0.70894(13)
C145_17 C 0.74881(13) 0.32529(14) 0.63303(14)
H86_17 H 0.760467 0.338744 0.640326
H87_17 H 0.741040 0.332354 0.616918
C146_17 C 0.90242(13) 0.17056(14) 0.61995(13)
H88_17 H 0.905499 0.158765 0.605066
H89_17 H 0.918492 0.180720 0.622898
C147_17 C 0.72760(13) 0.31979(13) 0.65214(14)
C148_17 C 0.68604(14) 0.31159(14) 0.68658(14)
C149_17 C 0.91604(13) 0.14686(14) 0.66035(14)
H90_17 H 0.933248 0.152504 0.656763
C150_17 C 0.86632(13) 0.13162(13) 0.67088(14)
H91_17 H 0.848997 0.126574 0.674807
C151_17 C 0.77363(15) 0.20319(16) 0.53493(16)
C152_17 C 0.91160(14) 0.13125(15) 0.68169(14)
H92_17 H 0.925580 0.126166 0.692626
C153_17 C 0.70607(14) 0.30436(15) 0.64454(14)
H93_17 H 0.705884 0.296499 0.627840
C154_17 C 0.68498(15) 0.30061(15) 0.66152(14)
H94_17 H 0.670260 0.290821 0.656188
C155_17 C 0.72694(18) 0.3312(2) 0.67689(18)
H95_17 H 0.740521 0.342679 0.681829
C156_17 C 0.70776(18) 0.3264(2) 0.69371(16)
H96_17 H 0.708878 0.333096 0.710866
O21_18 O 0.71106(9) 0.39150(9) 0.15422(9)
N22_18 N 0.61358(10) 0.36920(10) 0.06147(11)
O22_18 O 0.53426(10) 0.47448(11) 0.07103(10)
N25_18 N 0.60162(10) 0.43842(10) 0.01402(10)
N27_18 N 0.62288(10) 0.39600(10) 0.03112(10)
N28_18 N 0.63046(11) 0.37403(11) 0.04185(11)
C80_18 C 0.58954(12) 0.42830(12) 0.03475(11)
C81_18 C 0.56771(13) 0.43987(13) 0.04593(12)
H49_18 H 0.559832 0.432480 0.060903
C82_18 C 0.64423(13) 0.35366(13) 0.09556(12)
C83_18 C 0.59552(13) 0.38770(12) 0.06411(13)
H50_18 H 0.582027 0.389048 0.076646
C84_18 C 0.55766(13) 0.46235(13) 0.03486(14)
C86_18 C 0.59194(12) 0.46080(12) 0.00286(12)
C87_18 C 0.56947(12) 0.47265(14) 0.01234(13)
H52_18 H 0.562262 0.487346 0.003805
C89_18 C 0.64940(14) 0.37859(13) 0.10272(14)
H53_18 H 0.638481 0.392363 0.097095
C90_18 C 0.60155(12) 0.40446(13) 0.04382(12)
C91_18 C 0.68682(14) 0.36289(13) 0.12673(14)
C92_18 C 0.70894(13) 0.36956(14) 0.14434(13)
C94_18 C 0.61995(13) 0.34758(13) 0.07944(14)
H56_18 H 0.605066 0.344501 0.091235
H57_18 H 0.622898 0.331508 0.069280
C97_18 C 0.66035(14) 0.33396(13) 0.10314(14)
H58_18 H 0.656763 0.316752 0.097496
C98_18 C 0.67088(14) 0.38368(13) 0.11838(13)
H59_18 H 0.674807 0.401003 0.123426
C99_18 C 0.53493(16) 0.47637(15) 0.04681(16)
C100_18 C 0.68169(14) 0.33840(14) 0.11875(15)
H60_18 H 0.692626 0.324420 0.123834
O25_18 O 0.81643(10) 0.52207(9) 0.08344(8)
O29_18 O 0.79880(12) 0.55393(10) 0.10716(10)
H67_18 H 0.789715 0.658438 0.000761
C114_18 C 0.80807(16) 0.54575(14) 0.08612(14)
C119_18 C 0.82529(14) 0.61697(14) 0.00119(13)
H71_18 H 0.832354 0.633082 0.008960
C121_18 C 0.81979(13) 0.59786(14) 0.02240(13)
C122_18 C 0.81159(14) 0.56342(14) 0.06396(14)
C127_18 C 0.80436(15) 0.60546(14) 0.04393(14)
H77_18 H 0.796499 0.622160 0.044116
C128_18 C 0.80061(15) 0.58848(14) 0.06502(15)
H78_18 H 0.790821 0.593812 0.079740
C129_18 C 0.8312(2) 0.57311(18) 0.02306(18)
H79_18 H 0.842679 0.568171 0.009479
C130_18 C 0.8264(2) 0.55629(16) 0.04224(18)
H80_18 H 0.833096 0.539134 0.041122
O31_18 O 0.66656(8) 0.43357(10) 0.02207(9)
O33_18 O 0.85850(9) 0.65422(9) 0.03894(9)
N36_18 N 0.88080(10) 0.56147(11) 0.13642(10)
N37_18 N 0.76414(11) 0.44766(10) 0.12342(10)
O34_18 O 0.77552(11) 0.57103(10) 0.21574(10)
N38_18 N 0.79320(10) 0.47662(10) 0.11885(10)
O35_18 O 0.64284(10) 0.45120(12) 0.05393(10)
N39_18 N 0.81158(10) 0.51402(10) 0.14838(10)
N40_18 N 0.78331(11) 0.45605(10) 0.10744(10)
N41_18 N 0.85400(10) 0.53112(10) 0.12712(10)
N42_18 N 0.87597(11) 0.54185(11) 0.11954(11)
C131_18 C 0.78060(12) 0.48108(12) 0.14127(11)
C132_18 C 0.82170(12) 0.53475(11) 0.16046(12)
C133_18 C 0.81013(13) 0.54593(12) 0.18229(13)
H81_18 H 0.817520 0.560903 0.190168
C134_18 C 0.89634(13) 0.59556(12) 0.10577(13)
C135_18 C 0.86230(12) 0.56411(13) 0.15448(13)
H82_18 H 0.860952 0.576646 0.167973
C136_18 C 0.78765(13) 0.53486(14) 0.19234(13)
C137_18 C 0.76130(12) 0.46221(13) 0.14459(14)
H83_18 H 0.749239 0.460285 0.158438
C138_18 C 0.78920(12) 0.50286(12) 0.15806(12)
C139_18 C 0.77735(14) 0.51234(13) 0.18053(12)
H84_18 H 0.762654 0.503805 0.187738
C140_18 C 0.66388(14) 0.44193(16) 0.04575(14)
C141_18 C 0.87141(13) 0.60272(14) 0.10060(14)
H85_18 H 0.857637 0.597095 0.111519
C142_18 C 0.84554(13) 0.54382(12) 0.14845(12)
C143_18 C 0.88711(13) 0.62673(14) 0.06318(14)
C144_18 C 0.88044(14) 0.64434(13) 0.04106(13)
C145_18 C 0.74881(13) 0.42471(14) 0.11697(14)
H86_18 H 0.760467 0.411256 0.109674
H87_18 H 0.741040 0.417646 0.133082
C146_18 C 0.90242(13) 0.57944(14) 0.13005(13)
H88_18 H 0.905499 0.591235 0.144934
H89_18 H 0.918492 0.569280 0.127102
C147_18 C 0.72760(13) 0.43021(13) 0.09786(14)
C148_18 C 0.68604(14) 0.43841(14) 0.06342(14)
C149_18 C 0.91604(13) 0.60314(14) 0.08965(14)
H90_18 H 0.933248 0.597496 0.093237
C150_18 C 0.86632(13) 0.61838(13) 0.07912(14)
H91_18 H 0.848997 0.623426 0.075193
C151_18 C 0.77363(15) 0.54681(16) 0.21507(16)
C152_18 C 0.91160(14) 0.61875(15) 0.06831(14)
H92_18 H 0.925580 0.623834 0.057374
C153_18 C 0.70607(14) 0.44564(15) 0.10546(14)
H93_18 H 0.705884 0.453501 0.122160
C154_18 C 0.68498(15) 0.44939(15) 0.08848(14)
H94_18 H 0.670260 0.459179 0.093812
C155_18 C 0.72694(18) 0.4188(2) 0.07311(18)
H95_18 H 0.740521 0.407321 0.068171
C156_18 C 0.70776(18) 0.4236(2) 0.05629(16)
H96_18 H 0.708878 0.416904 0.039134
O19_18 O 0.72793(9) 0.58344(8) 0.93357(10)
N23_18 N 0.62658(10) 0.48586(11) 0.94766(10)
N24_18 N 0.63115(10) 0.45680(10) 0.97662(10)
O23_18 O 0.69607(10) 0.60716(10) 0.95120(12)
N26_18 N 0.64256(10) 0.46669(11) 0.95605(10)
C79_18 C 0.60873(11) 0.46940(12) 0.98108(12)
C85_18 C 0.60541(14) 0.48870(12) 0.96221(13)
H51_18 H 0.591562 0.500761 0.960285
C88_18 C 0.70425(14) 0.58612(14) 0.94193(16)
C93_18 C 0.63303(14) 0.50119(13) 0.92471(14)
H54_18 H 0.640326 0.489533 0.911256
H55_18 H 0.616918 0.508960 0.917646
C95_18 C 0.65214(14) 0.52240(13) 0.93021(13)
C96_18 C 0.68658(14) 0.56396(14) 0.93841(14)
C101_18 C 0.64454(14) 0.54393(14) 0.94564(15)
H61_18 H 0.627840 0.544116 0.953501
C102_18 C 0.66152(14) 0.56502(15) 0.94939(15)
H62_18 H 0.656188 0.579740 0.959179
C103_18 C 0.67689(18) 0.52306(18) 0.9188(2)
H63_18 H 0.681829 0.509479 0.907321
C104_18 C 0.69371(16) 0.54224(18) 0.9236(2)
H64_18 H 0.710866 0.541122 0.916904
O27_18 O 0.59578(9) 0.53894(9) 0.89150(9)
N29_18 N 0.68853(11) 0.63642(10) 0.86920(10)
N30_18 N 0.80234(10) 0.62342(10) 0.98586(11)
O28_18 O 0.67897(10) 0.71574(10) 0.97448(11)
N31_18 N 0.77338(10) 0.61885(10) 0.95680(10)
N32_18 N 0.73598(10) 0.64838(10) 0.93842(10)
N33_18 N 0.79395(10) 0.60744(10) 0.96669(11)
N34_18 N 0.71888(10) 0.62712(10) 0.89600(10)
N35_18 N 0.70815(11) 0.61954(11) 0.87403(11)
C105_18 C 0.76892(12) 0.64127(11) 0.96940(12)
C106_18 C 0.71525(11) 0.66046(12) 0.92830(12)
C107_18 C 0.70407(12) 0.68229(13) 0.93987(13)
H65_18 H 0.689097 0.690168 0.932480
C108_18 C 0.65444(12) 0.60577(13) 0.85366(13)
C109_18 C 0.68589(13) 0.65448(13) 0.88770(12)
H66_18 H 0.673354 0.667973 0.889048
C110_18 C 0.71514(14) 0.69234(13) 0.96235(13)
C111_18 C 0.78779(13) 0.64459(14) 0.98870(12)
C112_18 C 0.74714(12) 0.65806(12) 0.96080(12)
C113_18 C 0.73766(13) 0.68053(12) 0.97265(14)
H68_18 H 0.746195 0.687738 0.987346
C115_18 C 0.64728(14) 0.60060(14) 0.87859(13)
H69_18 H 0.652905 0.611519 0.892363
C116_18 C 0.70618(12) 0.64845(12) 0.90446(13)
C117_18 C 0.62327(14) 0.56318(14) 0.86289(13)
C118_18 C 0.60566(13) 0.54106(13) 0.86956(14)
H70_18 H 0.838744 0.609674 0.989533
C120_18 C 0.67056(14) 0.63005(13) 0.84758(13)
H72_18 H 0.658765 0.644934 0.844501
H73_18 H 0.680720 0.627102 0.831508
C123_18 C 0.64686(14) 0.58965(14) 0.83396(13)
H74_18 H 0.652504 0.593237 0.816752
C124_18 C 0.63162(13) 0.57912(14) 0.88368(13)
H75_18 H 0.626574 0.575193 0.901003
C125_18 C 0.70319(16) 0.71507(16) 0.97637(15)
C126_18 C 0.63125(15) 0.56831(14) 0.83840(14)
H76_18 H 0.626166 0.557374 0.824420
O19_19 O 0.02207(9) 0.58344(8) 0.81643(10)
O21_19 O 0.03894(9) 0.39150(9) 0.59578(9)
N22_19 N 0.13642(10) 0.36920(10) 0.68853(11)
N23_19 N 0.12342(10) 0.48586(11) 0.80234(10)
O22_19 O 0.21574(10) 0.47448(11) 0.67897(10)
N24_19 N 0.11885(10) 0.45680(10) 0.77338(10)
O23_19 O 0.05393(10) 0.60716(10) 0.79880(12)
N25_19 N 0.14838(10) 0.43842(10) 0.73598(10)
N26_19 N 0.10744(10) 0.46669(11) 0.79395(10)
N27_19 N 0.12712(10) 0.39600(10) 0.71888(10)
N28_19 N 0.11954(11) 0.37403(11) 0.70815(11)
C79_19 C 0.14127(11) 0.46940(12) 0.76892(12)
C80_19 C 0.16046(12) 0.42830(12) 0.71525(11)
C81_19 C 0.18229(13) 0.43987(13) 0.70407(12)
H49_19 H 0.190168 0.432480 0.689097
C82_19 C 0.10577(13) 0.35366(13) 0.65444(12)
C83_19 C 0.15448(13) 0.38770(12) 0.68589(13)
H50_19 H 0.167973 0.389048 0.673354
C84_19 C 0.19234(13) 0.46235(13) 0.71514(14)
C85_19 C 0.14459(14) 0.48870(12) 0.78779(13)
H51_19 H 0.158438 0.500761 0.789715
C86_19 C 0.15806(12) 0.46080(12) 0.74714(12)
C87_19 C 0.18053(12) 0.47265(14) 0.73766(13)
H52_19 H 0.187738 0.487346 0.746195
C88_19 C 0.04575(14) 0.58612(14) 0.80807(16)
C89_19 C 0.10060(14) 0.37859(13) 0.64728(14)
H53_19 H 0.111519 0.392363 0.652905
C90_19 C 0.14845(12) 0.40446(13) 0.70618(12)
C91_19 C 0.06318(14) 0.36289(13) 0.62327(14)
C92_19 C 0.04106(13) 0.36956(14) 0.60566(13)
C93_19 C 0.11697(14) 0.50119(13) 0.82529(14)
H54_19 H 0.109674 0.489533 0.838744
H55_19 H 0.133082 0.508960 0.832354
C94_19 C 0.13005(13) 0.34758(13) 0.67056(14)
H56_19 H 0.144934 0.344501 0.658765
H57_19 H 0.127102 0.331508 0.680720
C95_19 C 0.09786(14) 0.52240(13) 0.81979(13)
C96_19 C 0.06342(14) 0.56396(14) 0.81159(14)
C97_19 C 0.08965(14) 0.33396(13) 0.64686(14)
H58_19 H 0.093237 0.316752 0.652504
C98_19 C 0.07912(14) 0.38368(13) 0.63162(13)
H59_19 H 0.075193 0.401003 0.626574
C99_19 C 0.21507(16) 0.47637(15) 0.70319(16)
C100_19 C 0.06831(14) 0.33840(14) 0.63125(15)
H60_19 H 0.057374 0.324420 0.626166
C101_19 C 0.10546(14) 0.54393(14) 0.80436(15)
H61_19 H 0.122160 0.544116 0.796499
C102_19 C 0.08848(14) 0.56502(15) 0.80061(15)
H62_19 H 0.093812 0.579740 0.790821
C103_19 C 0.07311(18) 0.52306(18) 0.8312(2)
H63_19 H 0.068171 0.509479 0.842679
C104_19 C 0.05629(16) 0.54224(18) 0.8264(2)
H64_19 H 0.039134 0.541122 0.833096
O27_19 O 0.15422(9) 0.53894(9) 0.85850(9)
N29_19 N 0.06147(11) 0.63642(10) 0.88080(10)
O28_19 O 0.07103(10) 0.71574(10) 0.77552(11)
N32_19 N 0.01402(10) 0.64838(10) 0.81158(10)
N34_19 N 0.03112(10) 0.62712(10) 0.85400(10)
N35_19 N 0.04185(11) 0.61954(11) 0.87597(11)
C106_19 C 0.03475(11) 0.66046(12) 0.82170(12)
C107_19 C 0.04593(12) 0.68229(13) 0.81013(13)
H65_19 H 0.060903 0.690168 0.817520
C108_19 C 0.09556(12) 0.60577(13) 0.89634(13)
C109_19 C 0.06411(13) 0.65448(13) 0.86230(12)
H66_19 H 0.076646 0.667973 0.860952
C110_19 C 0.03486(14) 0.69234(13) 0.78765(13)
C112_19 C 0.00286(12) 0.65806(12) 0.78920(12)
C113_19 C 0.01234(13) 0.68053(12) 0.77735(14)
H68_19 H 0.003805 0.687738 0.762654
C115_19 C 0.10272(14) 0.60060(14) 0.87141(13)
H69_19 H 0.097095 0.611519 0.857637
C116_19 C 0.04382(12) 0.64845(12) 0.84554(13)
C117_19 C 0.12673(14) 0.56318(14) 0.88711(13)
C118_19 C 0.14434(13) 0.54106(13) 0.88044(14)
C120_19 C 0.07944(14) 0.63005(13) 0.90242(13)
H72_19 H 0.091235 0.644934 0.905499
H73_19 H 0.069280 0.627102 0.918492
C123_19 C 0.10314(14) 0.58965(14) 0.91604(13)
H74_19 H 0.097496 0.593237 0.933248
C124_19 C 0.11838(13) 0.57912(14) 0.86632(13)
H75_19 H 0.123426 0.575193 0.848997
C125_19 C 0.04681(16) 0.71507(16) 0.77363(15)
C126_19 C 0.11875(15) 0.56831(14) 0.91160(14)
H76_19 H 0.123834 0.557374 0.925580
O31_19 O 0.08344(8) 0.43357(10) 0.72793(9)
O35_19 O 0.10716(10) 0.45120(12) 0.69607(10)
H83_19 H 0.000761 0.460285 0.591562
C140_19 C 0.08612(14) 0.44193(16) 0.70425(14)
C145_19 C 0.00119(13) 0.42471(14) 0.63303(14)
H87_19 H 0.008960 0.417646 0.616918
C147_19 C 0.02240(13) 0.43021(13) 0.65214(14)
C148_19 C 0.06396(14) 0.43841(14) 0.68658(14)
C153_19 C 0.04393(14) 0.44564(15) 0.64454(14)
H93_19 H 0.044116 0.453501 0.627840
C154_19 C 0.06502(15) 0.44939(15) 0.66152(14)
H94_19 H 0.079740 0.459179 0.656188
C155_19 C 0.02306(18) 0.4188(2) 0.67689(18)
H95_19 H 0.009479 0.407321 0.681829
C156_19 C 0.04224(18) 0.4236(2) 0.69371(16)
H96_19 H 0.041122 0.416904 0.710866
O25_19 O 0.93357(10) 0.52207(9) 0.66656(8)
N30_19 N 0.94766(10) 0.62342(10) 0.76414(11)
N31_19 N 0.97662(10) 0.61885(10) 0.79320(10)
O29_19 O 0.95120(12) 0.55393(10) 0.64284(10)
N33_19 N 0.95605(10) 0.60744(10) 0.78331(11)
C105_19 C 0.98108(12) 0.64127(11) 0.78060(12)
C111_19 C 0.96221(13) 0.64459(14) 0.76130(12)
H67_19 H 0.960285 0.658438 0.749239
C114_19 C 0.94193(16) 0.54575(14) 0.66388(14)
C119_19 C 0.92471(14) 0.61697(14) 0.74881(13)
H70_19 H 0.911256 0.609674 0.760467
H71_19 H 0.917646 0.633082 0.741040
C121_19 C 0.93021(13) 0.59786(14) 0.72760(13)
C122_19 C 0.93841(14) 0.56342(14) 0.68604(14)
C127_19 C 0.94564(15) 0.60546(14) 0.70607(14)
H77_19 H 0.953501 0.622160 0.705884
C128_19 C 0.94939(15) 0.58848(14) 0.68498(15)
H78_19 H 0.959179 0.593812 0.670260
C129_19 C 0.9188(2) 0.57311(18) 0.72694(18)
H79_19 H 0.907321 0.568171 0.740521
C130_19 C 0.9236(2) 0.55629(16) 0.70776(18)
H80_19 H 0.916904 0.539134 0.708878
O33_19 O 0.89150(9) 0.65422(9) 0.71106(9)
N36_19 N 0.86920(10) 0.56147(11) 0.61358(10)
N37_19 N 0.98586(11) 0.44766(10) 0.62658(10)
O34_19 O 0.97448(11) 0.57103(10) 0.53426(10)
N38_19 N 0.95680(10) 0.47662(10) 0.63115(10)
N39_19 N 0.93842(10) 0.51402(10) 0.60162(10)
N40_19 N 0.96669(11) 0.45605(10) 0.64256(10)
N41_19 N 0.89600(10) 0.53112(10) 0.62288(10)
N42_19 N 0.87403(11) 0.54185(11) 0.63046(11)
C131_19 C 0.96940(12) 0.48108(12) 0.60873(11)
C132_19 C 0.92830(12) 0.53475(11) 0.58954(12)
C133_19 C 0.93987(13) 0.54593(12) 0.56771(13)
H81_19 H 0.932480 0.560903 0.559832
C134_19 C 0.85366(13) 0.59556(12) 0.64423(13)
C135_19 C 0.88770(12) 0.56411(13) 0.59552(13)
H82_19 H 0.889048 0.576646 0.582027
C136_19 C 0.96235(13) 0.53486(14) 0.55766(13)
C137_19 C 0.98870(12) 0.46221(13) 0.60541(14)
C138_19 C 0.96080(12) 0.50286(12) 0.59194(12)
C139_19 C 0.97265(14) 0.51234(13) 0.56947(12)
H84_19 H 0.987346 0.503805 0.562262
C141_19 C 0.87859(13) 0.60272(14) 0.64940(14)
H85_19 H 0.892363 0.597095 0.638481
C142_19 C 0.90446(13) 0.54382(12) 0.60155(12)
C143_19 C 0.86289(13) 0.62673(14) 0.68682(14)
C144_19 C 0.86956(14) 0.64434(13) 0.70894(13)
H86_19 H 0.989533 0.411256 0.640326
C146_19 C 0.84758(13) 0.57944(14) 0.61995(13)
H88_19 H 0.844501 0.591235 0.605066
H89_19 H 0.831508 0.569280 0.622898
C149_19 C 0.83396(13) 0.60314(14) 0.66035(14)
H90_19 H 0.816752 0.597496 0.656763
C150_19 C 0.88368(13) 0.61838(13) 0.67088(14)
H91_19 H 0.901003 0.623426 0.674807
C151_19 C 0.97637(15) 0.54681(16) 0.53493(16)
C152_19 C 0.83840(14) 0.61875(15) 0.68169(14)
H92_19 H 0.824420 0.623834 0.692626
O21_20 O 0.03894(9) 0.35850(9) 0.15422(9)
N22_20 N 0.13642(10) 0.38080(10) 0.06147(11)
O22_20 O 0.21574(10) 0.27552(11) 0.07103(10)
N25_20 N 0.14838(10) 0.31158(10) 0.01402(10)
N27_20 N 0.12712(10) 0.35400(10) 0.03112(10)
N28_20 N 0.11954(11) 0.37597(11) 0.04185(11)
C80_20 C 0.16046(12) 0.32170(12) 0.03475(11)
C81_20 C 0.18229(13) 0.31013(13) 0.04593(12)
H49_20 H 0.190168 0.317520 0.060903
C82_20 C 0.10577(13) 0.39634(13) 0.09556(12)
C83_20 C 0.15448(13) 0.36230(12) 0.06411(13)
H50_20 H 0.167973 0.360952 0.076646
C84_20 C 0.19234(13) 0.28765(13) 0.03486(14)
C86_20 C 0.15806(12) 0.28920(12) 0.00286(12)
C87_20 C 0.18053(12) 0.27735(14) 0.01234(13)
H52_20 H 0.187738 0.262654 0.003805
C89_20 C 0.10060(14) 0.37141(13) 0.10272(14)
H53_20 H 0.111519 0.357637 0.097095
C90_20 C 0.14845(12) 0.34554(13) 0.04382(12)
C91_20 C 0.06318(14) 0.38711(13) 0.12673(14)
C92_20 C 0.04106(13) 0.38044(14) 0.14434(13)
C94_20 C 0.13005(13) 0.40242(13) 0.07944(14)
H56_20 H 0.144934 0.405499 0.091235
H57_20 H 0.127102 0.418492 0.069280
C97_20 C 0.08965(14) 0.41604(13) 0.10314(14)
H58_20 H 0.093237 0.433248 0.097496
C98_20 C 0.07912(14) 0.36632(13) 0.11838(13)
H59_20 H 0.075193 0.348997 0.123426
C99_20 C 0.21507(16) 0.27363(15) 0.04681(16)
C100_20 C 0.06831(14) 0.41160(14) 0.11875(15)
H60_20 H 0.057374 0.425580 0.123834
O31_20 O 0.08344(8) 0.31643(10) 0.02207(9)
O35_20 O 0.10716(10) 0.29880(12) 0.05393(10)
H83_20 H 0.000761 0.289715 0.158438
C140_20 C 0.08612(14) 0.30807(16) 0.04575(14)
C145_20 C 0.00119(13) 0.32529(14) 0.11697(14)
H87_20 H 0.008960 0.332354 0.133082
C147_20 C 0.02240(13) 0.31979(13) 0.09786(14)
C148_20 C 0.06396(14) 0.31159(14) 0.06342(14)
C153_20 C 0.04393(14) 0.30436(15) 0.10546(14)
H93_20 H 0.044116 0.296499 0.122160
C154_20 C 0.06502(15) 0.30061(15) 0.08848(14)
H94_20 H 0.079740 0.290821 0.093812
C155_20 C 0.02306(18) 0.3312(2) 0.07311(18)
H95_20 H 0.009479 0.342679 0.068171
C156_20 C 0.04224(18) 0.3264(2) 0.05629(16)
H96_20 H 0.041122 0.333096 0.039134
O19_20 O 0.02207(9) 0.16656(8) 0.93357(10)
N23_20 N 0.12342(10) 0.26414(11) 0.94766(10)
N24_20 N 0.11885(10) 0.29320(10) 0.97662(10)
O23_20 O 0.05393(10) 0.14284(10) 0.95120(12)
N26_20 N 0.10744(10) 0.28331(11) 0.95605(10)
C79_20 C 0.14127(11) 0.28060(12) 0.98108(12)
C85_20 C 0.14459(14) 0.26130(12) 0.96221(13)
H51_20 H 0.158438 0.249239 0.960285
C88_20 C 0.04575(14) 0.16388(14) 0.94193(16)
C93_20 C 0.11697(14) 0.24881(13) 0.92471(14)
H54_20 H 0.109674 0.260467 0.911256
H55_20 H 0.133082 0.241040 0.917646
C95_20 C 0.09786(14) 0.22760(13) 0.93021(13)
C96_20 C 0.06342(14) 0.18604(14) 0.93841(14)
C101_20 C 0.10546(14) 0.20607(14) 0.94564(15)
H61_20 H 0.122160 0.205884 0.953501
C102_20 C 0.08848(14) 0.18498(15) 0.94939(15)
H62_20 H 0.093812 0.170260 0.959179
C103_20 C 0.07311(18) 0.22694(18) 0.9188(2)
H63_20 H 0.068171 0.240521 0.907321
C104_20 C 0.05629(16) 0.20776(18) 0.9236(2)
H64_20 H 0.039134 0.208878 0.916904
O27_20 O 0.15422(9) 0.21106(9) 0.89150(9)
N29_20 N 0.06147(11) 0.11358(10) 0.86920(10)
O28_20 O 0.07103(10) 0.03426(10) 0.97448(11)
N32_20 N 0.01402(10) 0.10162(10) 0.93842(10)
N34_20 N 0.03112(10) 0.12288(10) 0.89600(10)
N35_20 N 0.04185(11) 0.13046(11) 0.87403(11)
C106_20 C 0.03475(11) 0.08954(12) 0.92830(12)
C107_20 C 0.04593(12) 0.06771(13) 0.93987(13)
H65_20 H 0.060903 0.059832 0.932480
C108_20 C 0.09556(12) 0.14423(13) 0.85366(13)
C109_20 C 0.06411(13) 0.09552(13) 0.88770(12)
H66_20 H 0.076646 0.082027 0.889048
C110_20 C 0.03486(14) 0.05766(13) 0.96235(13)
C112_20 C 0.00286(12) 0.09194(12) 0.96080(12)
C113_20 C 0.01234(13) 0.06947(12) 0.97265(14)
H68_20 H 0.003805 0.062262 0.987346
C115_20 C 0.10272(14) 0.14940(14) 0.87859(13)
H69_20 H 0.097095 0.138481 0.892363
C116_20 C 0.04382(12) 0.10155(12) 0.90446(13)
C117_20 C 0.12673(14) 0.18682(14) 0.86289(13)
C118_20 C 0.14434(13) 0.20894(13) 0.86956(14)
C120_20 C 0.07944(14) 0.11995(13) 0.84758(13)
H72_20 H 0.091235 0.105066 0.844501
H73_20 H 0.069280 0.122898 0.831508
C123_20 C 0.10314(14) 0.16035(14) 0.83396(13)
H74_20 H 0.097496 0.156763 0.816752
C124_20 C 0.11838(13) 0.17088(14) 0.88368(13)
H75_20 H 0.123426 0.174807 0.901003
C125_20 C 0.04681(16) 0.03493(16) 0.97637(15)
C126_20 C 0.11875(15) 0.18169(14) 0.83840(14)
H76_20 H 0.123834 0.192626 0.824420
O25_20 O 0.93357(10) 0.22793(9) 0.08344(8)
O29_20 O 0.95120(12) 0.19607(10) 0.10716(10)
H67_20 H 0.960285 0.091562 0.000761
C114_20 C 0.94193(16) 0.20425(14) 0.08612(14)
C119_20 C 0.92471(14) 0.13303(14) 0.00119(13)
H71_20 H 0.917646 0.116918 0.008960
C121_20 C 0.93021(13) 0.15214(14) 0.02240(13)
C122_20 C 0.93841(14) 0.18658(14) 0.06396(14)
C127_20 C 0.94564(15) 0.14454(14) 0.04393(14)
H77_20 H 0.953501 0.127840 0.044116
C128_20 C 0.94939(15) 0.16152(14) 0.06502(15)
H78_20 H 0.959179 0.156188 0.079740
C129_20 C 0.9188(2) 0.17689(18) 0.02306(18)
H79_20 H 0.907321 0.181829 0.009479
C130_20 C 0.9236(2) 0.19371(16) 0.04224(18)
H80_20 H 0.916904 0.210866 0.041122
O33_20 O 0.89150(9) 0.09578(9) 0.03894(9)
N36_20 N 0.86920(10) 0.18853(11) 0.13642(10)
N37_20 N 0.98586(11) 0.30234(10) 0.12342(10)
O34_20 O 0.97448(11) 0.17897(10) 0.21574(10)
N38_20 N 0.95680(10) 0.27338(10) 0.11885(10)
N39_20 N 0.93842(10) 0.23598(10) 0.14838(10)
N40_20 N 0.96669(11) 0.29395(10) 0.10744(10)
N41_20 N 0.89600(10) 0.21888(10) 0.12712(10)
N42_20 N 0.87403(11) 0.20815(11) 0.11954(11)
C131_20 C 0.96940(12) 0.26892(12) 0.14127(11)
C132_20 C 0.92830(12) 0.21525(11) 0.16046(12)
C133_20 C 0.93987(13) 0.20407(12) 0.18229(13)
H81_20 H 0.932480 0.189097 0.190168
C134_20 C 0.85366(13) 0.15444(12) 0.10577(13)
C135_20 C 0.88770(12) 0.18589(13) 0.15448(13)
H82_20 H 0.889048 0.173354 0.167973
C136_20 C 0.96235(13) 0.21514(14) 0.19234(13)
C137_20 C 0.98870(12) 0.28779(13) 0.14459(14)
C138_20 C 0.96080(12) 0.24714(12) 0.15806(12)
C139_20 C 0.97265(14) 0.23766(13) 0.18053(12)
H84_20 H 0.987346 0.246195 0.187738
C141_20 C 0.87859(13) 0.14728(14) 0.10060(14)
H85_20 H 0.892363 0.152905 0.111519
C142_20 C 0.90446(13) 0.20618(12) 0.14845(12)
C143_20 C 0.86289(13) 0.12327(14) 0.06318(14)
C144_20 C 0.86956(14) 0.10566(13) 0.04106(13)
H86_20 H 0.989533 0.338744 0.109674
C146_20 C 0.84758(13) 0.17056(14) 0.13005(13)
H88_20 H 0.844501 0.158765 0.144934
H89_20 H 0.831508 0.180720 0.127102
C149_20 C 0.83396(13) 0.14686(14) 0.08965(14)
H90_20 H 0.816752 0.152504 0.093237
C150_20 C 0.88368(13) 0.13162(13) 0.07912(14)
H91_20 H 0.901003 0.126574 0.075193
C151_20 C 0.97637(15) 0.20319(16) 0.21507(16)
C152_20 C 0.83840(14) 0.13125(15) 0.06831(14)
H92_20 H 0.824420 0.126166 0.057374
N30_20 N 0.94766(10) 0.12658(10) 0.98586(11)
N31_20 N 0.97662(10) 0.13115(10) 0.95680(10)
N33_20 N 0.95605(10) 0.14256(10) 0.96669(11)
C105_20 C 0.98108(12) 0.10873(11) 0.96940(12)
C111_20 C 0.96221(13) 0.10541(14) 0.98870(12)
H70_20 H 0.911256 0.140326 0.989533
O19_21 O 0.81643(10) 0.72793(9) 0.16656(8)
O21_21 O 0.59578(9) 0.71106(9) 0.35850(9)
N22_21 N 0.68853(11) 0.61358(10) 0.38080(10)
N23_21 N 0.80234(10) 0.62658(10) 0.26414(11)
O22_21 O 0.67897(10) 0.53426(10) 0.27552(11)
N24_21 N 0.77338(10) 0.63115(10) 0.29320(10)
O23_21 O 0.79880(12) 0.69607(10) 0.14284(10)
N25_21 N 0.73598(10) 0.60162(10) 0.31158(10)
N26_21 N 0.79395(10) 0.64256(10) 0.28331(11)
N27_21 N 0.71888(10) 0.62288(10) 0.35400(10)
N28_21 N 0.70815(11) 0.63046(11) 0.37597(11)
C79_21 C 0.76892(12) 0.60873(11) 0.28060(12)
C80_21 C 0.71525(11) 0.58954(12) 0.32170(12)
C81_21 C 0.70407(12) 0.56771(13) 0.31013(13)
H49_21 H 0.689097 0.559832 0.317520
C82_21 C 0.65444(12) 0.64423(13) 0.39634(13)
C83_21 C 0.68589(13) 0.59552(13) 0.36230(12)
H50_21 H 0.673354 0.582027 0.360952
C84_21 C 0.71514(14) 0.55766(13) 0.28765(13)
C85_21 C 0.78779(13) 0.60541(14) 0.26130(12)
H51_21 H 0.789715 0.591562 0.249239
C86_21 C 0.74714(12) 0.59194(12) 0.28920(12)
C87_21 C 0.73766(13) 0.56947(12) 0.27735(14)
H52_21 H 0.746195 0.562262 0.262654
C88_21 C 0.80807(16) 0.70425(14) 0.16388(14)
C89_21 C 0.64728(14) 0.64940(14) 0.37141(13)
H53_21 H 0.652905 0.638481 0.357637
C90_21 C 0.70618(12) 0.60155(12) 0.34554(13)
C91_21 C 0.62327(14) 0.68682(14) 0.38711(13)
C92_21 C 0.60566(13) 0.70894(13) 0.38044(14)
C93_21 C 0.82529(14) 0.63303(14) 0.24881(13)
H54_21 H 0.838744 0.640326 0.260467
H55_21 H 0.832354 0.616918 0.241040
C94_21 C 0.67056(14) 0.61995(13) 0.40242(13)
H56_21 H 0.658765 0.605066 0.405499
H57_21 H 0.680720 0.622898 0.418492
C95_21 C 0.81979(13) 0.65214(14) 0.22760(13)
C96_21 C 0.81159(14) 0.68658(14) 0.18604(14)
C97_21 C 0.64686(14) 0.66035(14) 0.41604(13)
H58_21 H 0.652504 0.656763 0.433248
C98_21 C 0.63162(13) 0.67088(14) 0.36632(13)
H59_21 H 0.626574 0.674807 0.348997
C99_21 C 0.70319(16) 0.53493(16) 0.27363(15)
C100_21 C 0.63125(15) 0.68169(14) 0.41160(14)
H60_21 H 0.626166 0.692626 0.425580
C101_21 C 0.80436(15) 0.64454(14) 0.20607(14)
H61_21 H 0.796499 0.627840 0.205884
C102_21 C 0.80061(15) 0.66152(14) 0.18498(15)
H62_21 H 0.790821 0.656188 0.170260
C103_21 C 0.8312(2) 0.67689(18) 0.22694(18)
H63_21 H 0.842679 0.681829 0.240521
C104_21 C 0.8264(2) 0.69371(16) 0.20776(18)
H64_21 H 0.833096 0.710866 0.208878
O25_21 O 0.66656(8) 0.81643(10) 0.22793(9)
O27_21 O 0.85850(9) 0.59578(9) 0.21106(9)
N29_21 N 0.88080(10) 0.68853(11) 0.11358(10)
N30_21 N 0.76414(11) 0.80234(10) 0.12658(10)
O28_21 O 0.77552(11) 0.67897(10) 0.03426(10)
N31_21 N 0.79320(10) 0.77338(10) 0.13115(10)
O29_21 O 0.64284(10) 0.79880(12) 0.19607(10)
N32_21 N 0.81158(10) 0.73598(10) 0.10162(10)
N33_21 N 0.78331(11) 0.79395(10) 0.14256(10)
N34_21 N 0.85400(10) 0.71888(10) 0.12288(10)
N35_21 N 0.87597(11) 0.70815(11) 0.13046(11)
C105_21 C 0.78060(12) 0.76892(12) 0.10873(11)
C106_21 C 0.82170(12) 0.71525(11) 0.08954(12)
C107_21 C 0.81013(13) 0.70407(12) 0.06771(13)
H65_21 H 0.817520 0.689097 0.059832
C108_21 C 0.89634(13) 0.65444(12) 0.14423(13)
C109_21 C 0.86230(12) 0.68589(13) 0.09552(13)
H66_21 H 0.860952 0.673354 0.082027
C110_21 C 0.78765(13) 0.71514(14) 0.05766(13)
C111_21 C 0.76130(12) 0.78779(13) 0.10541(14)
H67_21 H 0.749239 0.789715 0.091562
C112_21 C 0.78920(12) 0.74714(12) 0.09194(12)
C113_21 C 0.77735(14) 0.73766(13) 0.06947(12)
H68_21 H 0.762654 0.746195 0.062262
C114_21 C 0.66388(14) 0.80807(16) 0.20425(14)
C115_21 C 0.87141(13) 0.64728(14) 0.14940(14)
H69_21 H 0.857637 0.652905 0.138481
C116_21 C 0.84554(13) 0.70618(12) 0.10155(12)
C117_21 C 0.88711(13) 0.62327(14) 0.18682(14)
C118_21 C 0.88044(14) 0.60566(13) 0.20894(13)
C119_21 C 0.74881(13) 0.82529(14) 0.13303(14)
H70_21 H 0.760467 0.838744 0.140326
H71_21 H 0.741040 0.832354 0.116918
C120_21 C 0.90242(13) 0.67056(14) 0.11995(13)
H72_21 H 0.905499 0.658765 0.105066
H73_21 H 0.918492 0.680720 0.122898
C121_21 C 0.72760(13) 0.81979(13) 0.15214(14)
C122_21 C 0.68604(14) 0.81159(14) 0.18658(14)
C123_21 C 0.91604(13) 0.64686(14) 0.16035(14)
H74_21 H 0.933248 0.652504 0.156763
C124_21 C 0.86632(13) 0.63162(13) 0.17088(14)
H75_21 H 0.848997 0.626574 0.174807
C125_21 C 0.77363(15) 0.70319(16) 0.03493(16)
C126_21 C 0.91160(14) 0.63125(15) 0.18169(14)
H76_21 H 0.925580 0.626166 0.192626
C127_21 C 0.70607(14) 0.80436(15) 0.14454(14)
H77_21 H 0.705884 0.796499 0.127840
C128_21 C 0.68498(15) 0.80061(15) 0.16152(14)
H78_21 H 0.670260 0.790821 0.156188
C129_21 C 0.72694(18) 0.8312(2) 0.17689(18)
H79_21 H 0.740521 0.842679 0.181829
C130_21 C 0.70776(18) 0.8264(2) 0.19371(16)
H80_21 H 0.708878 0.833096 0.210866
O31_21 O 0.72793(9) 0.66656(8) 0.31643(10)
O33_21 O 0.71106(9) 0.85850(9) 0.09578(9)
N36_21 N 0.61358(10) 0.88080(10) 0.18853(11)
N37_21 N 0.62658(10) 0.76414(11) 0.30234(10)
O34_21 O 0.53426(10) 0.77552(11) 0.17897(10)
N38_21 N 0.63115(10) 0.79320(10) 0.27338(10)
O35_21 O 0.69607(10) 0.64284(10) 0.29880(12)
N39_21 N 0.60162(10) 0.81158(10) 0.23598(10)
N40_21 N 0.64256(10) 0.78331(11) 0.29395(10)
N41_21 N 0.62288(10) 0.85400(10) 0.21888(10)
N42_21 N 0.63046(11) 0.87597(11) 0.20815(11)
C131_21 C 0.60873(11) 0.78060(12) 0.26892(12)
C132_21 C 0.58954(12) 0.82170(12) 0.21525(11)
C133_21 C 0.56771(13) 0.81013(13) 0.20407(12)
H81_21 H 0.559832 0.817520 0.189097
C134_21 C 0.64423(13) 0.89634(13) 0.15444(12)
C135_21 C 0.59552(13) 0.86230(12) 0.18589(13)
H82_21 H 0.582027 0.860952 0.173354
C136_21 C 0.55766(13) 0.78765(13) 0.21514(14)
C137_21 C 0.60541(14) 0.76130(12) 0.28779(13)
H83_21 H 0.591562 0.749239 0.289715
C138_21 C 0.59194(12) 0.78920(12) 0.24714(12)
C139_21 C 0.56947(12) 0.77735(14) 0.23766(13)
H84_21 H 0.562262 0.762654 0.246195
C140_21 C 0.70425(14) 0.66388(14) 0.30807(16)
C141_21 C 0.64940(14) 0.87141(13) 0.14728(14)
H85_21 H 0.638481 0.857637 0.152905
C142_21 C 0.60155(12) 0.84554(13) 0.20618(12)
C143_21 C 0.68682(14) 0.88711(13) 0.12327(14)
C144_21 C 0.70894(13) 0.88044(14) 0.10566(13)
C145_21 C 0.63303(14) 0.74881(13) 0.32529(14)
H86_21 H 0.640326 0.760467 0.338744
H87_21 H 0.616918 0.741040 0.332354
C146_21 C 0.61995(13) 0.90242(13) 0.17056(14)
H88_21 H 0.605066 0.905499 0.158765
H89_21 H 0.622898 0.918492 0.180720
C147_21 C 0.65214(14) 0.72760(13) 0.31979(13)
C148_21 C 0.68658(14) 0.68604(14) 0.31159(14)
C149_21 C 0.66035(14) 0.91604(13) 0.14686(14)
H90_21 H 0.656763 0.933248 0.152504
C150_21 C 0.67088(14) 0.86632(13) 0.13162(13)
H91_21 H 0.674807 0.848997 0.126574
C151_21 C 0.53493(16) 0.77363(15) 0.20319(16)
C152_21 C 0.68169(14) 0.91160(14) 0.13125(15)
H92_21 H 0.692626 0.925580 0.126166
C153_21 C 0.64454(14) 0.70607(14) 0.30436(15)
H93_21 H 0.627840 0.705884 0.296499
C154_21 C 0.66152(14) 0.68498(15) 0.30061(15)
H94_21 H 0.656188 0.670260 0.290821
C155_21 C 0.67689(18) 0.72694(18) 0.3312(2)
H95_21 H 0.681829 0.740521 0.342679
C156_21 C 0.69371(16) 0.70776(18) 0.3264(2)
H96_21 H 0.710866 0.708878 0.333096
O21_22 O 0.15422(9) 0.71106(9) 0.39150(9)
N22_22 N 0.06147(11) 0.61358(10) 0.36920(10)
O22_22 O 0.07103(10) 0.53426(10) 0.47448(11)
N25_22 N 0.01402(10) 0.60162(10) 0.43842(10)
N27_22 N 0.03112(10) 0.62288(10) 0.39600(10)
N28_22 N 0.04185(11) 0.63046(11) 0.37403(11)
C80_22 C 0.03475(11) 0.58954(12) 0.42830(12)
C81_22 C 0.04593(12) 0.56771(13) 0.43987(13)
H49_22 H 0.060903 0.559832 0.432480
C82_22 C 0.09556(12) 0.64423(13) 0.35366(13)
C83_22 C 0.06411(13) 0.59552(13) 0.38770(12)
H50_22 H 0.076646 0.582027 0.389048
C84_22 C 0.03486(14) 0.55766(13) 0.46235(13)
C86_22 C 0.00286(12) 0.59194(12) 0.46080(12)
C87_22 C 0.01234(13) 0.56947(12) 0.47265(14)
H52_22 H 0.003805 0.562262 0.487346
C89_22 C 0.10272(14) 0.64940(14) 0.37859(13)
H53_22 H 0.097095 0.638481 0.392363
C90_22 C 0.04382(12) 0.60155(12) 0.40446(13)
C91_22 C 0.12673(14) 0.68682(14) 0.36289(13)
C92_22 C 0.14434(13) 0.70894(13) 0.36956(14)
C94_22 C 0.07944(14) 0.61995(13) 0.34758(13)
H56_22 H 0.091235 0.605066 0.344501
H57_22 H 0.069280 0.622898 0.331508
C97_22 C 0.10314(14) 0.66035(14) 0.33396(13)
H58_22 H 0.097496 0.656763 0.316752
C98_22 C 0.11838(13) 0.67088(14) 0.38368(13)
H59_22 H 0.123426 0.674807 0.401003
C99_22 C 0.04681(16) 0.53493(16) 0.47637(15)
C100_22 C 0.11875(15) 0.68169(14) 0.33840(14)
H60_22 H 0.123834 0.692626 0.324420
O25_22 O 0.08344(8) 0.81643(10) 0.52207(9)
O29_22 O 0.10716(10) 0.79880(12) 0.55393(10)
H67_22 H 0.000761 0.789715 0.658438
C114_22 C 0.08612(14) 0.80807(16) 0.54575(14)
C119_22 C 0.00119(13) 0.82529(14) 0.61697(14)
H71_22 H 0.008960 0.832354 0.633082
C121_22 C 0.02240(13) 0.81979(13) 0.59786(14)
C122_22 C 0.06396(14) 0.81159(14) 0.56342(14)
C127_22 C 0.04393(14) 0.80436(15) 0.60546(14)
H77_22 H 0.044116 0.796499 0.622160
C128_22 C 0.06502(15) 0.80061(15) 0.58848(14)
H78_22 H 0.079740 0.790821 0.593812
C129_22 C 0.02306(18) 0.8312(2) 0.57311(18)
H79_22 H 0.009479 0.842679 0.568171
C130_22 C 0.04224(18) 0.8264(2) 0.55629(16)
H80_22 H 0.041122 0.833096 0.539134
O31_22 O 0.02207(9) 0.66656(8) 0.43357(10)
O33_22 O 0.03894(9) 0.85850(9) 0.65422(9)
N36_22 N 0.13642(10) 0.88080(10) 0.56147(11)
N37_22 N 0.12342(10) 0.76414(11) 0.44766(10)
O34_22 O 0.21574(10) 0.77552(11) 0.57103(10)
N38_22 N 0.11885(10) 0.79320(10) 0.47662(10)
O35_22 O 0.05393(10) 0.64284(10) 0.45120(12)
N39_22 N 0.14838(10) 0.81158(10) 0.51402(10)
N40_22 N 0.10744(10) 0.78331(11) 0.45605(10)
N41_22 N 0.12712(10) 0.85400(10) 0.53112(10)
N42_22 N 0.11954(11) 0.87597(11) 0.54185(11)
C131_22 C 0.14127(11) 0.78060(12) 0.48108(12)
C132_22 C 0.16046(12) 0.82170(12) 0.53475(11)
C133_22 C 0.18229(13) 0.81013(13) 0.54593(12)
H81_22 H 0.190168 0.817520 0.560903
C134_22 C 0.10577(13) 0.89634(13) 0.59556(12)
C135_22 C 0.15448(13) 0.86230(12) 0.56411(13)
H82_22 H 0.167973 0.860952 0.576646
C136_22 C 0.19234(13) 0.78765(13) 0.53486(14)
C137_22 C 0.14459(14) 0.76130(12) 0.46221(13)
H83_22 H 0.158438 0.749239 0.460285
C138_22 C 0.15806(12) 0.78920(12) 0.50286(12)
C139_22 C 0.18053(12) 0.77735(14) 0.51234(13)
H84_22 H 0.187738 0.762654 0.503805
C140_22 C 0.04575(14) 0.66388(14) 0.44193(16)
C141_22 C 0.10060(14) 0.87141(13) 0.60272(14)
H85_22 H 0.111519 0.857637 0.597095
C142_22 C 0.14845(12) 0.84554(13) 0.54382(12)
C143_22 C 0.06318(14) 0.88711(13) 0.62673(14)
C144_22 C 0.04106(13) 0.88044(14) 0.64434(13)
C145_22 C 0.11697(14) 0.74881(13) 0.42471(14)
H86_22 H 0.109674 0.760467 0.411256
H87_22 H 0.133082 0.741040 0.417646
C146_22 C 0.13005(13) 0.90242(13) 0.57944(14)
H88_22 H 0.144934 0.905499 0.591235
H89_22 H 0.127102 0.918492 0.569280
C147_22 C 0.09786(14) 0.72760(13) 0.43021(13)
C148_22 C 0.06342(14) 0.68604(14) 0.43841(14)
C149_22 C 0.08965(14) 0.91604(13) 0.60314(14)
H90_22 H 0.093237 0.933248 0.597496
C150_22 C 0.07912(14) 0.86632(13) 0.61838(13)
H91_22 H 0.075193 0.848997 0.623426
C151_22 C 0.21507(16) 0.77363(15) 0.54681(16)
C152_22 C 0.06831(14) 0.91160(14) 0.61875(15)
H92_22 H 0.057374 0.925580 0.623834
C153_22 C 0.10546(14) 0.70607(14) 0.44564(15)
H93_22 H 0.122160 0.705884 0.453501
C154_22 C 0.08848(14) 0.68498(15) 0.44939(15)
H94_22 H 0.093812 0.670260 0.459179
C155_22 C 0.07311(18) 0.72694(18) 0.4188(2)
H95_22 H 0.068171 0.740521 0.407321
C156_22 C 0.05629(16) 0.70776(18) 0.4236(2)
H96_22 H 0.039134 0.708878 0.416904
O19_22 O 0.93357(10) 0.72793(9) 0.58344(8)
N23_22 N 0.94766(10) 0.62658(10) 0.48586(11)
N24_22 N 0.97662(10) 0.63115(10) 0.45680(10)
O23_22 O 0.95120(12) 0.69607(10) 0.60716(10)
N26_22 N 0.95605(10) 0.64256(10) 0.46669(11)
C79_22 C 0.98108(12) 0.60873(11) 0.46940(12)
C85_22 C 0.96221(13) 0.60541(14) 0.48870(12)
H51_22 H 0.960285 0.591562 0.500761
C88_22 C 0.94193(16) 0.70425(14) 0.58612(14)
C93_22 C 0.92471(14) 0.63303(14) 0.50119(13)
H54_22 H 0.911256 0.640326 0.489533
H55_22 H 0.917646 0.616918 0.508960
C95_22 C 0.93021(13) 0.65214(14) 0.52240(13)
C96_22 C 0.93841(14) 0.68658(14) 0.56396(14)
C101_22 C 0.94564(15) 0.64454(14) 0.54393(14)
H61_22 H 0.953501 0.627840 0.544116
C102_22 C 0.94939(15) 0.66152(14) 0.56502(15)
H62_22 H 0.959179 0.656188 0.579740
C103_22 C 0.9188(2) 0.67689(18) 0.52306(18)
H63_22 H 0.907321 0.681829 0.509479
C104_22 C 0.9236(2) 0.69371(16) 0.54224(18)
H64_22 H 0.916904 0.710866 0.541122
O27_22 O 0.89150(9) 0.59578(9) 0.53894(9)
N29_22 N 0.86920(10) 0.68853(11) 0.63642(10)
N30_22 N 0.98586(11) 0.80234(10) 0.62342(10)
O28_22 O 0.97448(11) 0.67897(10) 0.71574(10)
N31_22 N 0.95680(10) 0.77338(10) 0.61885(10)
N32_22 N 0.93842(10) 0.73598(10) 0.64838(10)
N33_22 N 0.96669(11) 0.79395(10) 0.60744(10)
N34_22 N 0.89600(10) 0.71888(10) 0.62712(10)
N35_22 N 0.87403(11) 0.70815(11) 0.61954(11)
C105_22 C 0.96940(12) 0.76892(12) 0.64127(11)
C106_22 C 0.92830(12) 0.71525(11) 0.66046(12)
C107_22 C 0.93987(13) 0.70407(12) 0.68229(13)
H65_22 H 0.932480 0.689097 0.690168
C108_22 C 0.85366(13) 0.65444(12) 0.60577(13)
C109_22 C 0.88770(12) 0.68589(13) 0.65448(13)
H66_22 H 0.889048 0.673354 0.667973
C110_22 C 0.96235(13) 0.71514(14) 0.69234(13)
C111_22 C 0.98870(12) 0.78779(13) 0.64459(14)
C112_22 C 0.96080(12) 0.74714(12) 0.65806(12)
C113_22 C 0.97265(14) 0.73766(13) 0.68053(12)
H68_22 H 0.987346 0.746195 0.687738
C115_22 C 0.87859(13) 0.64728(14) 0.60060(14)
H69_22 H 0.892363 0.652905 0.611519
C116_22 C 0.90446(13) 0.70618(12) 0.64845(12)
C117_22 C 0.86289(13) 0.62327(14) 0.56318(14)
C118_22 C 0.86956(14) 0.60566(13) 0.54106(13)
H70_22 H 0.989533 0.838744 0.609674
C120_22 C 0.84758(13) 0.67056(14) 0.63005(13)
H72_22 H 0.844501 0.658765 0.644934
H73_22 H 0.831508 0.680720 0.627102
C123_22 C 0.83396(13) 0.64686(14) 0.58965(14)
H74_22 H 0.816752 0.652504 0.593237
C124_22 C 0.88368(13) 0.63162(13) 0.57912(14)
H75_22 H 0.901003 0.626574 0.575193
C125_22 C 0.97637(15) 0.70319(16) 0.71507(16)
C126_22 C 0.83840(14) 0.63125(15) 0.56831(14)
H76_22 H 0.824420 0.626166 0.557374
O19_23 O 0.81643(10) 0.02207(9) 0.58344(8)
O21_23 O 0.59578(9) 0.03894(9) 0.39150(9)
N22_23 N 0.68853(11) 0.13642(10) 0.36920(10)
N23_23 N 0.80234(10) 0.12342(10) 0.48586(11)
O22_23 O 0.67897(10) 0.21574(10) 0.47448(11)
N24_23 N 0.77338(10) 0.11885(10) 0.45680(10)
O23_23 O 0.79880(12) 0.05393(10) 0.60716(10)
N25_23 N 0.73598(10) 0.14838(10) 0.43842(10)
N26_23 N 0.79395(10) 0.10744(10) 0.46669(11)
N27_23 N 0.71888(10) 0.12712(10) 0.39600(10)
N28_23 N 0.70815(11) 0.11954(11) 0.37403(11)
C79_23 C 0.76892(12) 0.14127(11) 0.46940(12)
C80_23 C 0.71525(11) 0.16046(12) 0.42830(12)
C81_23 C 0.70407(12) 0.18229(13) 0.43987(13)
H49_23 H 0.689097 0.190168 0.432480
C82_23 C 0.65444(12) 0.10577(13) 0.35366(13)
C83_23 C 0.68589(13) 0.15448(13) 0.38770(12)
H50_23 H 0.673354 0.167973 0.389048
C84_23 C 0.71514(14) 0.19234(13) 0.46235(13)
C85_23 C 0.78779(13) 0.14459(14) 0.48870(12)
H51_23 H 0.789715 0.158438 0.500761
C86_23 C 0.74714(12) 0.15806(12) 0.46080(12)
C87_23 C 0.73766(13) 0.18053(12) 0.47265(14)
H52_23 H 0.746195 0.187738 0.487346
C88_23 C 0.80807(16) 0.04575(14) 0.58612(14)
C89_23 C 0.64728(14) 0.10060(14) 0.37859(13)
H53_23 H 0.652905 0.111519 0.392363
C90_23 C 0.70618(12) 0.14845(12) 0.40446(13)
C91_23 C 0.62327(14) 0.06318(14) 0.36289(13)
C92_23 C 0.60566(13) 0.04106(13) 0.36956(14)
C93_23 C 0.82529(14) 0.11697(14) 0.50119(13)
H54_23 H 0.838744 0.109674 0.489533
H55_23 H 0.832354 0.133082 0.508960
C94_23 C 0.67056(14) 0.13005(13) 0.34758(13)
H56_23 H 0.658765 0.144934 0.344501
H57_23 H 0.680720 0.127102 0.331508
C95_23 C 0.81979(13) 0.09786(14) 0.52240(13)
C96_23 C 0.81159(14) 0.06342(14) 0.56396(14)
C97_23 C 0.64686(14) 0.08965(14) 0.33396(13)
H58_23 H 0.652504 0.093237 0.316752
C98_23 C 0.63162(13) 0.07912(14) 0.38368(13)
H59_23 H 0.626574 0.075193 0.401003
C99_23 C 0.70319(16) 0.21507(16) 0.47637(15)
C100_23 C 0.63125(15) 0.06831(14) 0.33840(14)
H60_23 H 0.626166 0.057374 0.324420
C101_23 C 0.80436(15) 0.10546(14) 0.54393(14)
H61_23 H 0.796499 0.122160 0.544116
C102_23 C 0.80061(15) 0.08848(14) 0.56502(15)
H62_23 H 0.790821 0.093812 0.579740
C103_23 C 0.8312(2) 0.07311(18) 0.52306(18)
H63_23 H 0.842679 0.068171 0.509479
C104_23 C 0.8264(2) 0.05629(16) 0.54224(18)
H64_23 H 0.833096 0.039134 0.541122
O27_23 O 0.85850(9) 0.15422(9) 0.53894(9)
N29_23 N 0.88080(10) 0.06147(11) 0.63642(10)
O28_23 O 0.77552(11) 0.07103(10) 0.71574(10)
N32_23 N 0.81158(10) 0.01402(10) 0.64838(10)
N34_23 N 0.85400(10) 0.03112(10) 0.62712(10)
N35_23 N 0.87597(11) 0.04185(11) 0.61954(11)
C106_23 C 0.82170(12) 0.03475(11) 0.66046(12)
C107_23 C 0.81013(13) 0.04593(12) 0.68229(13)
H65_23 H 0.817520 0.060903 0.690168
C108_23 C 0.89634(13) 0.09556(12) 0.60577(13)
C109_23 C 0.86230(12) 0.06411(13) 0.65448(13)
H66_23 H 0.860952 0.076646 0.667973
C110_23 C 0.78765(13) 0.03486(14) 0.69234(13)
C112_23 C 0.78920(12) 0.00286(12) 0.65806(12)
C113_23 C 0.77735(14) 0.01234(13) 0.68053(12)
H68_23 H 0.762654 0.003805 0.687738
C115_23 C 0.87141(13) 0.10272(14) 0.60060(14)
H69_23 H 0.857637 0.097095 0.611519
C116_23 C 0.84554(13) 0.04382(12) 0.64845(12)
C117_23 C 0.88711(13) 0.12673(14) 0.56318(14)
C118_23 C 0.88044(14) 0.14434(13) 0.54106(13)
C120_23 C 0.90242(13) 0.07944(14) 0.63005(13)
H72_23 H 0.905499 0.091235 0.644934
H73_23 H 0.918492 0.069280 0.627102
C123_23 C 0.91604(13) 0.10314(14) 0.58965(14)
H74_23 H 0.933248 0.097496 0.593237
C124_23 C 0.86632(13) 0.11838(13) 0.57912(14)
H75_23 H 0.848997 0.123426 0.575193
C125_23 C 0.77363(15) 0.04681(16) 0.71507(16)
C126_23 C 0.91160(14) 0.11875(15) 0.56831(14)
H76_23 H 0.925580 0.123834 0.557374
O31_23 O 0.72793(9) 0.08344(8) 0.43357(10)
O35_23 O 0.69607(10) 0.10716(10) 0.45120(12)
H83_23 H 0.591562 0.000761 0.460285
C140_23 C 0.70425(14) 0.08612(14) 0.44193(16)
C145_23 C 0.63303(14) 0.00119(13) 0.42471(14)
H87_23 H 0.616918 0.008960 0.417646
C147_23 C 0.65214(14) 0.02240(13) 0.43021(13)
C148_23 C 0.68658(14) 0.06396(14) 0.43841(14)
C153_23 C 0.64454(14) 0.04393(14) 0.44564(15)
H93_23 H 0.627840 0.044116 0.453501
C154_23 C 0.66152(14) 0.06502(15) 0.44939(15)
H94_23 H 0.656188 0.079740 0.459179
C155_23 C 0.67689(18) 0.02306(18) 0.4188(2)
H95_23 H 0.681829 0.009479 0.407321
C156_23 C 0.69371(16) 0.04224(18) 0.4236(2)
H96_23 H 0.710866 0.041122 0.416904
O25_23 O 0.66656(8) 0.93357(10) 0.52207(9)
N30_23 N 0.76414(11) 0.94766(10) 0.62342(10)
N31_23 N 0.79320(10) 0.97662(10) 0.61885(10)
O29_23 O 0.64284(10) 0.95120(12) 0.55393(10)
N33_23 N 0.78331(11) 0.95605(10) 0.60744(10)
C105_23 C 0.78060(12) 0.98108(12) 0.64127(11)
C111_23 C 0.76130(12) 0.96221(13) 0.64459(14)
H67_23 H 0.749239 0.960285 0.658438
C114_23 C 0.66388(14) 0.94193(16) 0.54575(14)
C119_23 C 0.74881(13) 0.92471(14) 0.61697(14)
H70_23 H 0.760467 0.911256 0.609674
H71_23 H 0.741040 0.917646 0.633082
C121_23 C 0.72760(13) 0.93021(13) 0.59786(14)
C122_23 C 0.68604(14) 0.93841(14) 0.56342(14)
C127_23 C 0.70607(14) 0.94564(15) 0.60546(14)
H77_23 H 0.705884 0.953501 0.622160
C128_23 C 0.68498(15) 0.94939(15) 0.58848(14)
H78_23 H 0.670260 0.959179 0.593812
C129_23 C 0.72694(18) 0.9188(2) 0.57311(18)
H79_23 H 0.740521 0.907321 0.568171
C130_23 C 0.70776(18) 0.9236(2) 0.55629(16)
H80_23 H 0.708878 0.916904 0.539134
O33_23 O 0.71106(9) 0.89150(9) 0.65422(9)
N36_23 N 0.61358(10) 0.86920(10) 0.56147(11)
N37_23 N 0.62658(10) 0.98586(11) 0.44766(10)
O34_23 O 0.53426(10) 0.97448(11) 0.57103(10)
N38_23 N 0.63115(10) 0.95680(10) 0.47662(10)
N39_23 N 0.60162(10) 0.93842(10) 0.51402(10)
N40_23 N 0.64256(10) 0.96669(11) 0.45605(10)
N41_23 N 0.62288(10) 0.89600(10) 0.53112(10)
N42_23 N 0.63046(11) 0.87403(11) 0.54185(11)
C131_23 C 0.60873(11) 0.96940(12) 0.48108(12)
C132_23 C 0.58954(12) 0.92830(12) 0.53475(11)
C133_23 C 0.56771(13) 0.93987(13) 0.54593(12)
H81_23 H 0.559832 0.932480 0.560903
C134_23 C 0.64423(13) 0.85366(13) 0.59556(12)
C135_23 C 0.59552(13) 0.88770(12) 0.56411(13)
H82_23 H 0.582027 0.889048 0.576646
C136_23 C 0.55766(13) 0.96235(13) 0.53486(14)
C137_23 C 0.60541(14) 0.98870(12) 0.46221(13)
C138_23 C 0.59194(12) 0.96080(12) 0.50286(12)
C139_23 C 0.56947(12) 0.97265(14) 0.51234(13)
H84_23 H 0.562262 0.987346 0.503805
C141_23 C 0.64940(14) 0.87859(13) 0.60272(14)
H85_23 H 0.638481 0.892363 0.597095
C142_23 C 0.60155(12) 0.90446(13) 0.54382(12)
C143_23 C 0.68682(14) 0.86289(13) 0.62673(14)
C144_23 C 0.70894(13) 0.86956(14) 0.64434(13)
H86_23 H 0.640326 0.989533 0.411256
C146_23 C 0.61995(13) 0.84758(13) 0.57944(14)
H88_23 H 0.605066 0.844501 0.591235
H89_23 H 0.622898 0.831508 0.569280
C149_23 C 0.66035(14) 0.83396(13) 0.60314(14)
H90_23 H 0.656763 0.816752 0.597496
C150_23 C 0.67088(14) 0.88368(13) 0.61838(13)
H91_23 H 0.674807 0.901003 0.623426
C151_23 C 0.53493(16) 0.97637(15) 0.54681(16)
C152_23 C 0.68169(14) 0.83840(14) 0.61875(15)
H92_23 H 0.692626 0.824420 0.623834
O21_24 O 0.15422(9) 0.03894(9) 0.35850(9)
N22_24 N 0.06147(11) 0.13642(10) 0.38080(10)
O22_24 O 0.07103(10) 0.21574(10) 0.27552(11)
N25_24 N 0.01402(10) 0.14838(10) 0.31158(10)
N27_24 N 0.03112(10) 0.12712(10) 0.35400(10)
N28_24 N 0.04185(11) 0.11954(11) 0.37597(11)
C80_24 C 0.03475(11) 0.16046(12) 0.32170(12)
C81_24 C 0.04593(12) 0.18229(13) 0.31013(13)
H49_24 H 0.060903 0.190168 0.317520
C82_24 C 0.09556(12) 0.10577(13) 0.39634(13)
C83_24 C 0.06411(13) 0.15448(13) 0.36230(12)
H50_24 H 0.076646 0.167973 0.360952
C84_24 C 0.03486(14) 0.19234(13) 0.28765(13)
C86_24 C 0.00286(12) 0.15806(12) 0.28920(12)
C87_24 C 0.01234(13) 0.18053(12) 0.27735(14)
H52_24 H 0.003805 0.187738 0.262654
C89_24 C 0.10272(14) 0.10060(14) 0.37141(13)
H53_24 H 0.097095 0.111519 0.357637
C90_24 C 0.04382(12) 0.14845(12) 0.34554(13)
C91_24 C 0.12673(14) 0.06318(14) 0.38711(13)
C92_24 C 0.14434(13) 0.04106(13) 0.38044(14)
C94_24 C 0.07944(14) 0.13005(13) 0.40242(13)
H56_24 H 0.091235 0.144934 0.405499
H57_24 H 0.069280 0.127102 0.418492
C97_24 C 0.10314(14) 0.08965(14) 0.41604(13)
H58_24 H 0.097496 0.093237 0.433248
C98_24 C 0.11838(13) 0.07912(14) 0.36632(13)
H59_24 H 0.123426 0.075193 0.348997
C99_24 C 0.04681(16) 0.21507(16) 0.27363(15)
C100_24 C 0.11875(15) 0.06831(14) 0.41160(14)
H60_24 H 0.123834 0.057374 0.425580
O31_24 O 0.02207(9) 0.08344(8) 0.31643(10)
O35_24 O 0.05393(10) 0.10716(10) 0.29880(12)
H83_24 H 0.158438 0.000761 0.289715
C140_24 C 0.04575(14) 0.08612(14) 0.30807(16)
C145_24 C 0.11697(14) 0.00119(13) 0.32529(14)
H87_24 H 0.133082 0.008960 0.332354
C147_24 C 0.09786(14) 0.02240(13) 0.31979(13)
C148_24 C 0.06342(14) 0.06396(14) 0.31159(14)
C153_24 C 0.10546(14) 0.04393(14) 0.30436(15)
H93_24 H 0.122160 0.044116 0.296499
C154_24 C 0.08848(14) 0.06502(15) 0.30061(15)
H94_24 H 0.093812 0.079740 0.290821
C155_24 C 0.07311(18) 0.02306(18) 0.3312(2)
H95_24 H 0.068171 0.009479 0.342679
C156_24 C 0.05629(16) 0.04224(18) 0.3264(2)
H96_24 H 0.039134 0.041122 0.333096
O25_24 O 0.08344(8) 0.93357(10) 0.22793(9)
O29_24 O 0.10716(10) 0.95120(12) 0.19607(10)
H67_24 H 0.000761 0.960285 0.091562
C114_24 C 0.08612(14) 0.94193(16) 0.20425(14)
C119_24 C 0.00119(13) 0.92471(14) 0.13303(14)
H71_24 H 0.008960 0.917646 0.116918
C121_24 C 0.02240(13) 0.93021(13) 0.15214(14)
C122_24 C 0.06396(14) 0.93841(14) 0.18658(14)
C127_24 C 0.04393(14) 0.94564(15) 0.14454(14)
H77_24 H 0.044116 0.953501 0.127840
C128_24 C 0.06502(15) 0.94939(15) 0.16152(14)
H78_24 H 0.079740 0.959179 0.156188
C129_24 C 0.02306(18) 0.9188(2) 0.17689(18)
H79_24 H 0.009479 0.907321 0.181829
C130_24 C 0.04224(18) 0.9236(2) 0.19371(16)
H80_24 H 0.041122 0.916904 0.210866
O33_24 O 0.03894(9) 0.89150(9) 0.09578(9)
N36_24 N 0.13642(10) 0.86920(10) 0.18853(11)
N37_24 N 0.12342(10) 0.98586(11) 0.30234(10)
O34_24 O 0.21574(10) 0.97448(11) 0.17897(10)
N38_24 N 0.11885(10) 0.95680(10) 0.27338(10)
N39_24 N 0.14838(10) 0.93842(10) 0.23598(10)
N40_24 N 0.10744(10) 0.96669(11) 0.29395(10)
N41_24 N 0.12712(10) 0.89600(10) 0.21888(10)
N42_24 N 0.11954(11) 0.87403(11) 0.20815(11)
C131_24 C 0.14127(11) 0.96940(12) 0.26892(12)
C132_24 C 0.16046(12) 0.92830(12) 0.21525(11)
C133_24 C 0.18229(13) 0.93987(13) 0.20407(12)
H81_24 H 0.190168 0.932480 0.189097
C134_24 C 0.10577(13) 0.85366(13) 0.15444(12)
C135_24 C 0.15448(13) 0.88770(12) 0.18589(13)
H82_24 H 0.167973 0.889048 0.173354
C136_24 C 0.19234(13) 0.96235(13) 0.21514(14)
C137_24 C 0.14459(14) 0.98870(12) 0.28779(13)
C138_24 C 0.15806(12) 0.96080(12) 0.24714(12)
C139_24 C 0.18053(12) 0.97265(14) 0.23766(13)
H84_24 H 0.187738 0.987346 0.246195
C141_24 C 0.10060(14) 0.87859(13) 0.14728(14)
H85_24 H 0.111519 0.892363 0.152905
C142_24 C 0.14845(12) 0.90446(13) 0.20618(12)
C143_24 C 0.06318(14) 0.86289(13) 0.12327(14)
C144_24 C 0.04106(13) 0.86956(14) 0.10566(13)
H86_24 H 0.109674 0.989533 0.338744
C146_24 C 0.13005(13) 0.84758(13) 0.17056(14)
H88_24 H 0.144934 0.844501 0.158765
H89_24 H 0.127102 0.831508 0.180720
C149_24 C 0.08965(14) 0.83396(13) 0.14686(14)
H90_24 H 0.093237 0.816752 0.152504
C150_24 C 0.07912(14) 0.88368(13) 0.13162(13)
H91_24 H 0.075193 0.901003 0.126574
C151_24 C 0.21507(16) 0.97637(15) 0.20319(16)
C152_24 C 0.06831(14) 0.83840(14) 0.13125(15)
H92_24 H 0.057374 0.824420 0.126166
O19_24 O 0.93357(10) 0.02207(9) 0.16656(8)
N23_24 N 0.94766(10) 0.12342(10) 0.26414(11)
N24_24 N 0.97662(10) 0.11885(10) 0.29320(10)
O23_24 O 0.95120(12) 0.05393(10) 0.14284(10)
N26_24 N 0.95605(10) 0.10744(10) 0.28331(11)
C79_24 C 0.98108(12) 0.14127(11) 0.28060(12)
C85_24 C 0.96221(13) 0.14459(14) 0.26130(12)
H51_24 H 0.960285 0.158438 0.249239
C88_24 C 0.94193(16) 0.04575(14) 0.16388(14)
C93_24 C 0.92471(14) 0.11697(14) 0.24881(13)
H54_24 H 0.911256 0.109674 0.260467
H55_24 H 0.917646 0.133082 0.241040
C95_24 C 0.93021(13) 0.09786(14) 0.22760(13)
C96_24 C 0.93841(14) 0.06342(14) 0.18604(14)
C101_24 C 0.94564(15) 0.10546(14) 0.20607(14)
H61_24 H 0.953501 0.122160 0.205884
C102_24 C 0.94939(15) 0.08848(14) 0.18498(15)
H62_24 H 0.959179 0.093812 0.170260
C103_24 C 0.9188(2) 0.07311(18) 0.22694(18)
H63_24 H 0.907321 0.068171 0.240521
C104_24 C 0.9236(2) 0.05629(16) 0.20776(18)
H64_24 H 0.916904 0.039134 0.208878
O27_24 O 0.89150(9) 0.15422(9) 0.21106(9)
N29_24 N 0.86920(10) 0.06147(11) 0.11358(10)
O28_24 O 0.97448(11) 0.07103(10) 0.03426(10)
N32_24 N 0.93842(10) 0.01402(10) 0.10162(10)
N34_24 N 0.89600(10) 0.03112(10) 0.12288(10)
N35_24 N 0.87403(11) 0.04185(11) 0.13046(11)
C106_24 C 0.92830(12) 0.03475(11) 0.08954(12)
C107_24 C 0.93987(13) 0.04593(12) 0.06771(13)
H65_24 H 0.932480 0.060903 0.059832
C108_24 C 0.85366(13) 0.09556(12) 0.14423(13)
C109_24 C 0.88770(12) 0.06411(13) 0.09552(13)
H66_24 H 0.889048 0.076646 0.082027
C110_24 C 0.96235(13) 0.03486(14) 0.05766(13)
C112_24 C 0.96080(12) 0.00286(12) 0.09194(12)
C113_24 C 0.97265(14) 0.01234(13) 0.06947(12)
H68_24 H 0.987346 0.003805 0.062262
C115_24 C 0.87859(13) 0.10272(14) 0.14940(14)
H69_24 H 0.892363 0.097095 0.138481
C116_24 C 0.90446(13) 0.04382(12) 0.10155(12)
C117_24 C 0.86289(13) 0.12673(14) 0.18682(14)
C118_24 C 0.86956(14) 0.14434(13) 0.20894(13)
C120_24 C 0.84758(13) 0.07944(14) 0.11995(13)
H72_24 H 0.844501 0.091235 0.105066
H73_24 H 0.831508 0.069280 0.122898
C123_24 C 0.83396(13) 0.10314(14) 0.16035(14)
H74_24 H 0.816752 0.097496 0.156763
C124_24 C 0.88368(13) 0.11838(13) 0.17088(14)
H75_24 H 0.901003 0.123426 0.174807
C125_24 C 0.97637(15) 0.04681(16) 0.03493(16)
C126_24 C 0.83840(14) 0.11875(15) 0.18169(14)
H76_24 H 0.824420 0.123834 0.192626
N30_24 N 0.98586(11) 0.94766(10) 0.12658(10)
N31_24 N 0.95680(10) 0.97662(10) 0.13115(10)
N33_24 N 0.96669(11) 0.95605(10) 0.14256(10)
C105_24 C 0.96940(12) 0.98108(12) 0.10873(11)
C111_24 C 0.98870(12) 0.96221(13) 0.10541(14)
H70_24 H 0.989533 0.911256 0.140326
loop_
_geom_bond_atom_site_label_1
_geom_bond_atom_site_label_2
_geom_bond_site_symmetry_1
_geom_bond_site_symmetry_2
Zn1 O1 1_555 1_555
Zn2 O6 1_555 1_555
O1 C10 1_555 1_555
O2 C14 1_555 1_555
O3 C14 1_555 1_555
N1 N7 1_555 1_555
N2 N5 1_555 1_555
O4 C21 1_555 1_555
N3 N5 1_555 1_555
O5 C10 1_555 1_555
N4 C2 1_555 1_555
N6 N7 1_555 1_555
O6 C21 1_555 1_555
C1 N3 1_555 1_555
C2 C3 1_555 1_555
C3 H1 1_555 1_555
C4 C11 1_555 1_555
C5 N1 1_555 1_555
H2 C5 1_555 1_555
C6 C3 1_555 1_555
C7 N2 1_555 1_555
H3 C7 1_555 1_555
C8 N4 1_555 1_555
C9 C6 1_555 1_555
H4 C9 1_555 1_555
C10 C18 1_555 1_555
C11 H5 1_555 1_555
C12 N6 1_555 1_555
C13 C14 1_555 1_555
C15 N2 1_555 1_555
H6 C15 1_555 1_555
H7 C15 1_555 1_555
C16 N1 1_555 1_555
H8 C16 1_555 1_555
H9 C16 1_555 1_555
C17 C15 1_555 1_555
C18 C24 1_555 1_555
C19 C4 1_555 1_555
H10 C19 1_555 1_555
C20 C11 1_555 1_555
H11 C20 1_555 1_555
C21 C6 1_555 1_555
C22 C13 1_555 1_555
H12 C22 1_555 1_555
C23 C17 1_555 1_555
H13 C23 1_555 1_555
C24 C23 1_555 1_555
H14 C24 1_555 1_555
C25 C17 1_555 1_555
H15 C25 1_555 1_555
C26 C18 1_555 1_555
H16 C26 1_555 1_555
Zn3 O7 1_555 1_555
O7 C36 1_555 1_555
O8 C40 1_555 1_555
O9 C40 1_555 1_555
N8 N14 1_555 1_555
N9 N12 1_555 1_555
O10 C47 1_555 1_555
N10 Zn1 1_555 1_555
O11 C36 1_555 1_555
N11 Zn1 1_555 1_555
N12 N10 1_555 1_555
N13 Zn1 1_555 1_555
N14 N13 1_555 1_555
O12 C47 1_555 1_555
C27 N10 1_555 1_555
C28 N11 1_555 1_555
C29 C28 1_555 1_555
H17 C29 1_555 1_555
C30 C37 1_555 1_555
C31 N8 1_555 1_555
H18 C31 1_555 1_555
C32 C29 1_555 1_555
C33 N9 1_555 1_555
H19 C33 1_555 1_555
C34 N11 1_555 1_555
C35 C32 1_555 1_555
H20 C35 1_555 1_555
C36 C44 1_555 1_555
C37 H21 1_555 1_555
C38 N13 1_555 1_555
C39 C40 1_555 1_555
C41 N9 1_555 1_555
H22 C41 1_555 1_555
H23 C41 1_555 1_555
C42 N8 1_555 1_555
H24 C42 1_555 1_555
H25 C42 1_555 1_555
C43 C41 1_555 1_555
C44 C50 1_555 1_555
C45 C30 1_555 1_555
H26 C45 1_555 1_555
C46 C37 1_555 1_555
H27 C46 1_555 1_555
C47 C32 1_555 1_555
C48 C39 1_555 1_555
H28 C48 1_555 1_555
C49 C43 1_555 1_555
H29 C49 1_555 1_555
C50 C49 1_555 1_555
H30 C50 1_555 1_555
C51 C43 1_555 1_555
H31 C51 1_555 1_555
C52 C44 1_555 1_555
H32 C52 1_555 1_555
Zn4 N3 1_555 1_555
O13 Zn4 1_555 1_555
O14 C66 1_555 1_555
O15 C66 1_555 1_555
N15 N21 1_555 1_555
N16 N19 1_555 1_555
O16 C73 1_555 1_555
N17 Zn3 1_555 1_555
O17 C62 1_555 1_555
N18 Zn3 1_555 1_555
N19 N17 1_555 1_555
N20 Zn3 1_555 1_555
N21 N20 1_555 1_555
O18 C73 1_555 1_555
C53 N17 1_555 1_555
C54 N18 1_555 1_555
C55 C54 1_555 1_555
H33 C55 1_555 1_555
C56 C63 1_555 1_555
C57 N15 1_555 1_555
H34 C57 1_555 1_555
C58 C55 1_555 1_555
C59 N16 1_555 1_555
H35 C59 1_555 1_555
C60 N18 1_555 1_555
C61 C58 1_555 1_555
H36 C61 1_555 1_555
C62 O13 1_555 1_555
C63 H37 1_555 1_555
C64 N20 1_555 1_555
C65 C66 1_555 1_555
C67 N16 1_555 1_555
H38 C67 1_555 1_555
H39 C67 1_555 1_555
C68 N15 1_555 1_555
H40 C68 1_555 1_555
H41 C68 1_555 1_555
C69 C67 1_555 1_555
C70 C62 1_555 1_555
C71 C56 1_555 1_555
H42 C71 1_555 1_555
C72 C63 1_555 1_555
H43 C72 1_555 1_555
C73 C58 1_555 1_555
C74 C65 1_555 1_555
H44 C74 1_555 1_555
C75 C69 1_555 1_555
H45 C75 1_555 1_555
C76 C70 1_555 1_555
H46 C76 1_555 1_555
C77 C69 1_555 1_555
H47 C77 1_555 1_555
C78 C70 1_555 1_555
H48 C78 1_555 1_555
Zn5 O19 1_555 1_555
O19 C88 1_555 1_555
O20 C92 1_555 1_555
O21 C92 1_555 1_555
N22 N28 1_555 1_555
N23 N26 1_555 1_555
O22 C99 1_555 1_555
N24 N26 1_555 1_555
O23 C88 1_555 1_555
N25 C80 1_555 1_555
N27 N28 1_555 1_555
O24 C99 1_555 1_555
C79 N24 1_555 1_555
C80 C81 1_555 1_555
C81 H49 1_555 1_555
C82 C89 1_555 1_555
C83 N22 1_555 1_555
H50 C83 1_555 1_555
C84 C81 1_555 1_555
C85 N23 1_555 1_555
H51 C85 1_555 1_555
C86 N25 1_555 1_555
C87 C84 1_555 1_555
H52 C87 1_555 1_555
C88 C96 1_555 1_555
C89 H53 1_555 1_555
C90 N27 1_555 1_555
C91 C92 1_555 1_555
C93 N23 1_555 1_555
H54 C93 1_555 1_555
H55 C93 1_555 1_555
C94 N22 1_555 1_555
H56 C94 1_555 1_555
H57 C94 1_555 1_555
C95 C93 1_555 1_555
C96 C102 1_555 1_555
C97 C82 1_555 1_555
H58 C97 1_555 1_555
C98 C89 1_555 1_555
H59 C98 1_555 1_555
C99 C84 1_555 1_555
C100 C91 1_555 1_555
H60 C100 1_555 1_555
C101 C95 1_555 1_555
H61 C101 1_555 1_555
C102 C101 1_555 1_555
H62 C102 1_555 1_555
C103 C95 1_555 1_555
H63 C103 1_555 1_555
C104 C96 1_555 1_555
H64 C104 1_555 1_555
Zn6 O25 1_555 1_555
O25 C114 1_555 1_555
O26 C118 1_555 1_555
O27 C118 1_555 1_555
N29 N35 1_555 1_555
N30 N33 1_555 1_555
O28 C125 1_555 1_555
N31 Zn5 1_555 1_555
O29 C114 1_555 1_555
N32 Zn5 1_555 1_555
N33 N31 1_555 1_555
N34 Zn5 1_555 1_555
N35 N34 1_555 1_555
O30 C125 1_555 1_555
C105 N31 1_555 1_555
C106 N32 1_555 1_555
C107 C106 1_555 1_555
H65 C107 1_555 1_555
C108 C115 1_555 1_555
C109 N29 1_555 1_555
H66 C109 1_555 1_555
C110 C107 1_555 1_555
C111 N30 1_555 1_555
H67 C111 1_555 1_555
C112 N32 1_555 1_555
C113 C110 1_555 1_555
H68 C113 1_555 1_555
C114 C122 1_555 1_555
C115 H69 1_555 1_555
C116 N34 1_555 1_555
C117 C118 1_555 1_555
C119 N30 1_555 1_555
H70 C119 1_555 1_555
H71 C119 1_555 1_555
C120 N29 1_555 1_555
H72 C120 1_555 1_555
H73 C120 1_555 1_555
C121 C119 1_555 1_555
C122 C128 1_555 1_555
C123 C108 1_555 1_555
H74 C123 1_555 1_555
C124 C115 1_555 1_555
H75 C124 1_555 1_555
C125 C110 1_555 1_555
C126 C117 1_555 1_555
H76 C126 1_555 1_555
C127 C121 1_555 1_555
H77 C127 1_555 1_555
C128 C127 1_555 1_555
H78 C128 1_555 1_555
C129 C121 1_555 1_555
H79 C129 1_555 1_555
C130 C122 1_555 1_555
H80 C130 1_555 1_555
Zn7 N24 1_555 1_555
O31 Zn7 1_555 1_555
O32 C144 1_555 1_555
O33 C144 1_555 1_555
N36 N42 1_555 1_555
N37 N40 1_555 1_555
O34 C151 1_555 1_555
N38 Zn6 1_555 1_555
O35 C140 1_555 1_555
N39 Zn6 1_555 1_555
N40 N38 1_555 1_555
N41 Zn6 1_555 1_555
N42 N41 1_555 1_555
O36 Zn2 1_555 1_555
C131 N38 1_555 1_555
C132 N39 1_555 1_555
C133 C132 1_555 1_555
H81 C133 1_555 1_555
C134 C141 1_555 1_555
C135 N36 1_555 1_555
H82 C135 1_555 1_555
C136 C133 1_555 1_555
C137 N37 1_555 1_555
H83 C137 1_555 1_555
C138 N39 1_555 1_555
C139 C136 1_555 1_555
H84 C139 1_555 1_555
C140 O31 1_555 1_555
C141 H85 1_555 1_555
C142 N41 1_555 1_555
C143 C144 1_555 1_555
C145 N37 1_555 1_555
H86 C145 1_555 1_555
H87 C145 1_555 1_555
C146 N36 1_555 1_555
H88 C146 1_555 1_555
H89 C146 1_555 1_555
C147 C145 1_555 1_555
C148 C140 1_555 1_555
C149 C134 1_555 1_555
H90 C149 1_555 1_555
C150 C141 1_555 1_555
H91 C150 1_555 1_555
C151 O36 1_555 1_555
C152 C143 1_555 1_555
H92 C152 1_555 1_555
C153 C147 1_555 1_555
H93 C153 1_555 1_555
C154 C148 1_555 1_555
H94 C154 1_555 1_555
C155 C147 1_555 1_555
H95 C155 1_555 1_555
C156 C148 1_555 1_555
H96 C156 1_555 1_555
Zn8 O2 1_555 1_555
Zn9 O20 1_555 1_555
Zn10 O14 1_555 1_555
Zn11 O32 1_555 1_555
Zn12 O26 1_555 1_555
Zn13 O8 1_555 1_555
Zn14_2 O12 1_555 1_555
Zn15 O18 1_555 1_555
Zn16_2 O30 1_555 1_555
O37 Zn4 1_555 1_555
O38 Zn7 1_555 1_555
O39 Zn6 1_555 1_555
O40 Zn3 1_555 1_555
O41 Zn1 1_555 1_555
O42 Zn5 1_555 1_555
O43 Zn2 1_555 1_555
O44 Zn2 1_555 1_555
O45 Zn2 1_555 1_555
O46 Zn2 1_555 1_555
N4 Zn4 1_555 1_555
N6 Zn4 1_555 1_555
C1 C7 1_555 1_555
C1 C8 1_555 1_555
C2 C12 1_555 1_555
C4 C16 1_555 1_555
C5 C12 1_555 1_555
C8 C9 1_555 1_555
C13 C20 1_555 1_555
C19 C22 1_555 1_555
C25 C26 1_555 1_555
C27 C33 1_555 1_555
C27 C34 1_555 1_555
C28 C38 1_555 1_555
C30 C42 1_555 1_555
C31 C38 1_555 1_555
C34 C35 1_555 1_555
C39 C46 1_555 1_555
C45 C48 1_555 1_555
C51 C52 1_555 1_555
C53 C59 1_555 1_555
C53 C60 1_555 1_555
C54 C64 1_555 1_555
C56 C68 1_555 1_555
C57 C64 1_555 1_555
C60 C61 1_555 1_555
C65 C72 1_555 1_555
C71 C74 1_555 1_555
C75 C76 1_555 1_555
C77 C78 1_555 1_555
N25 Zn7 1_555 1_555
N27 Zn7 1_555 1_555
O24 Zn15 1_555 1_555
C79 C85 1_555 1_555
C79 C86 1_555 1_555
C80 C90 1_555 1_555
C82 C94 1_555 1_555
C83 C90 1_555 1_555
C86 C87 1_555 1_555
C91 C98 1_555 1_555
C97 C100 1_555 1_555
C103 C104 1_555 1_555
C105 C111 1_555 1_555
C105 C112 1_555 1_555
C106 C116 1_555 1_555
C108 C120 1_555 1_555
C109 C116 1_555 1_555
C112 C113 1_555 1_555
C117 C124 1_555 1_555
C123 C126 1_555 1_555
C129 C130 1_555 1_555
C131 C137 1_555 1_555
C131 C138 1_555 1_555
C132 C142 1_555 1_555
C134 C146 1_555 1_555
C135 C142 1_555 1_555
C136 C151 1_555 1_555
C138 C139 1_555 1_555
C143 C150 1_555 1_555
C149 C152 1_555 1_555
C153 C154 1_555 1_555
C155 C156 1_555 1_555
Zn5_2 O19_2 1_555 1_555
O19_2 C88_2 1_555 1_555
N23_2 N26_2 1_555 1_555
N24_2 N26_2 1_555 1_555
O23_2 C88_2 1_555 1_555
C79_2 N24_2 1_555 1_555
C85_2 N23_2 1_555 1_555
H51_2 C85_2 1_555 1_555
C88_2 C96_2 1_555 1_555
C93_2 N23_2 1_555 1_555
H54_2 C93_2 1_555 1_555
H55_2 C93_2 1_555 1_555
C95_2 C93_2 1_555 1_555
C96_2 C102_2 1_555 1_555
C101_2 C95_2 1_555 1_555
H61_2 C101_2 1_555 1_555
C102_2 C101_2 1_555 1_555
H62_2 C102_2 1_555 1_555
C103_2 C95_2 1_555 1_555
H63_2 C103_2 1_555 1_555
C104_2 C96_2 1_555 1_555
H64_2 C104_2 1_555 1_555
O26_2 C118_2 1_555 1_555
O27_2 C118_2 1_555 1_555
N29_2 N35_2 1_555 1_555
N30_2 N33_2 1_555 1_555
O28_2 C125_2 1_555 1_555
N31_2 Zn5_2 1_555 1_555
N32_2 Zn5_2 1_555 1_555
N33_2 N31_2 1_555 1_555
N34_2 Zn5_2 1_555 1_555
N35_2 N34_2 1_555 1_555
O30_2 C125_2 1_555 1_555
C105_2 N31_2 1_555 1_555
C106_2 N32_2 1_555 1_555
C107_2 C106_2 1_555 1_555
H65_2 C107_2 1_555 1_555
C108_2 C115_2 1_555 1_555
C109_2 N29_2 1_555 1_555
H66_2 C109_2 1_555 1_555
C110_2 C107_2 1_555 1_555
C111_2 N30_2 1_555 1_555
C112_2 N32_2 1_555 1_555
C113_2 C110_2 1_555 1_555
H68_2 C113_2 1_555 1_555
C115_2 H69_2 1_555 1_555
C116_2 N34_2 1_555 1_555
C117_2 C118_2 1_555 1_555
C120_2 N29_2 1_555 1_555
H72_2 C120_2 1_555 1_555
H73_2 C120_2 1_555 1_555
C123_2 C108_2 1_555 1_555
H74_2 C123_2 1_555 1_555
C124_2 C115_2 1_555 1_555
H75_2 C124_2 1_555 1_555
C125_2 C110_2 1_555 1_555
C126_2 C117_2 1_555 1_555
H76_2 C126_2 1_555 1_555
Zn12_2 O26_2 1_555 1_555
Zn16_3 O30_2 1_555 1_555
O42_2 Zn5_2 1_555 1_555
C79_2 C85_2 1_555 1_555
C103_2 C104_2 1_555 1_555
C105_2 C111_2 1_555 1_555
C105_2 C112_2 1_555 1_555
C106_2 C116_2 1_555 1_555
C108_2 C120_2 1_555 1_555
C109_2 C116_2 1_555 1_555
C112_2 C113_2 1_555 1_555
C117_2 C124_2 1_555 1_555
C123_2 C126_2 1_555 1_555
Zn1_2 O1_2 1_555 1_555
Zn2_2 O6_2 1_555 1_555
O1_2 C10_2 1_555 1_555
O2_2 C14_2 1_555 1_555
O3_2 C14_2 1_555 1_555
N1_2 N7_2 1_555 1_555
N2_2 N5_2 1_555 1_555
O4_2 C21_2 1_555 1_555
N3_2 N5_2 1_555 1_555
O5_2 C10_2 1_555 1_555
N4_2 C2_2 1_555 1_555
N6_2 N7_2 1_555 1_555
O6_2 C21_2 1_555 1_555
C1_2 N3_2 1_555 1_555
C2_2 C3_2 1_555 1_555
C3_2 H1_2 1_555 1_555
C4_2 C11_2 1_555 1_555
C5_2 N1_2 1_555 1_555
H2_2 C5_2 1_555 1_555
C6_2 C3_2 1_555 1_555
C7_2 N2_2 1_555 1_555
H3_2 C7_2 1_555 1_555
C8_2 N4_2 1_555 1_555
C9_2 C6_2 1_555 1_555
H4_2 C9_2 1_555 1_555
C10_2 C18_2 1_555 1_555
C11_2 H5_2 1_555 1_555
C12_2 N6_2 1_555 1_555
C13_2 C14_2 1_555 1_555
C15_2 N2_2 1_555 1_555
H6_2 C15_2 1_555 1_555
H7_2 C15_2 1_555 1_555
C16_2 N1_2 1_555 1_555
H8_2 C16_2 1_555 1_555
H9_2 C16_2 1_555 1_555
C17_2 C15_2 1_555 1_555
C18_2 C24_2 1_555 1_555
C19_2 C4_2 1_555 1_555
H10_2 C19_2 1_555 1_555
C20_2 C11_2 1_555 1_555
H11_2 C20_2 1_555 1_555
C21_2 C6_2 1_555 1_555
C22_2 C13_2 1_555 1_555
H12_2 C22_2 1_555 1_555
C23_2 C17_2 1_555 1_555
H13_2 C23_2 1_555 1_555
C24_2 C23_2 1_555 1_555
H14_2 C24_2 1_555 1_555
C25_2 C17_2 1_555 1_555
H15_2 C25_2 1_555 1_555
C26_2 C18_2 1_555 1_555
H16_2 C26_2 1_555 1_555
Zn3_2 O7_2 1_555 1_555
O7_2 C36_2 1_555 1_555
O8_2 C40_2 1_555 1_555
O9_2 C40_2 1_555 1_555
N8_2 N14_2 1_555 1_555
N9_2 N12_2 1_555 1_555
O10_2 C47_2 1_555 1_555
N10_2 Zn1_2 1_555 1_555
O11_2 C36_2 1_555 1_555
N11_2 Zn1_2 1_555 1_555
N12_2 N10_2 1_555 1_555
N13_2 Zn1_2 1_555 1_555
N14_2 N13_2 1_555 1_555
O12_2 C47_2 1_555 1_555
C27_2 N10_2 1_555 1_555
C28_2 N11_2 1_555 1_555
C29_2 C28_2 1_555 1_555
H17_2 C29_2 1_555 1_555
C30_2 C37_2 1_555 1_555
C31_2 N8_2 1_555 1_555
H18_2 C31_2 1_555 1_555
C32_2 C29_2 1_555 1_555
C33_2 N9_2 1_555 1_555
H19_2 C33_2 1_555 1_555
C34_2 N11_2 1_555 1_555
C35_2 C32_2 1_555 1_555
H20_2 C35_2 1_555 1_555
C36_2 C44_2 1_555 1_555
C37_2 H21_2 1_555 1_555
C38_2 N13_2 1_555 1_555
C39_2 C40_2 1_555 1_555
C41_2 N9_2 1_555 1_555
H22_2 C41_2 1_555 1_555
H23_2 C41_2 1_555 1_555
C42_2 N8_2 1_555 1_555
H24_2 C42_2 1_555 1_555
H25_2 C42_2 1_555 1_555
C43_2 C41_2 1_555 1_555
C44_2 C50_2 1_555 1_555
C45_2 C30_2 1_555 1_555
H26_2 C45_2 1_555 1_555
C46_2 C37_2 1_555 1_555
H27_2 C46_2 1_555 1_555
C47_2 C32_2 1_555 1_555
C48_2 C39_2 1_555 1_555
H28_2 C48_2 1_555 1_555
C49_2 C43_2 1_555 1_555
H29_2 C49_2 1_555 1_555
C50_2 C49_2 1_555 1_555
H30_2 C50_2 1_555 1_555
C51_2 C43_2 1_555 1_555
H31_2 C51_2 1_555 1_555
C52_2 C44_2 1_555 1_555
H32_2 C52_2 1_555 1_555
Zn4_2 N3_2 1_555 1_555
O13_2 Zn4_2 1_555 1_555
O14_2 C66_2 1_555 1_555
O15_2 C66_2 1_555 1_555
N15_2 N21_2 1_555 1_555
N16_2 N19_2 1_555 1_555
O16_2 C73_2 1_555 1_555
N17_2 Zn3_2 1_555 1_555
O17_2 C62_2 1_555 1_555
N18_2 Zn3_2 1_555 1_555
N19_2 N17_2 1_555 1_555
N20_2 Zn3_2 1_555 1_555
N21_2 N20_2 1_555 1_555
O18_2 C73_2 1_555 1_555
C53_2 N17_2 1_555 1_555
C54_2 N18_2 1_555 1_555
C55_2 C54_2 1_555 1_555
H33_2 C55_2 1_555 1_555
C56_2 C63_2 1_555 1_555
C57_2 N15_2 1_555 1_555
H34_2 C57_2 1_555 1_555
C58_2 C55_2 1_555 1_555
C59_2 N16_2 1_555 1_555
H35_2 C59_2 1_555 1_555
C60_2 N18_2 1_555 1_555
C61_2 C58_2 1_555 1_555
H36_2 C61_2 1_555 1_555
C62_2 O13_2 1_555 1_555
C63_2 H37_2 1_555 1_555
C64_2 N20_2 1_555 1_555
C65_2 C66_2 1_555 1_555
C67_2 N16_2 1_555 1_555
H38_2 C67_2 1_555 1_555
H39_2 C67_2 1_555 1_555
C68_2 N15_2 1_555 1_555
H40_2 C68_2 1_555 1_555
H41_2 C68_2 1_555 1_555
C69_2 C67_2 1_555 1_555
C70_2 C62_2 1_555 1_555
C71_2 C56_2 1_555 1_555
H42_2 C71_2 1_555 1_555
C72_2 C63_2 1_555 1_555
H43_2 C72_2 1_555 1_555
C73_2 C58_2 1_555 1_555
C74_2 C65_2 1_555 1_555
H44_2 C74_2 1_555 1_555
C75_2 C69_2 1_555 1_555
H45_2 C75_2 1_555 1_555
C76_2 C70_2 1_555 1_555
H46_2 C76_2 1_555 1_555
C77_2 C69_2 1_555 1_555
H47_2 C77_2 1_555 1_555
C78_2 C70_2 1_555 1_555
H48_2 C78_2 1_555 1_555
O20_2 C92_2 1_555 1_555
O21_2 C92_2 1_555 1_555
N22_2 N28_2 1_555 1_555
O22_2 C99_2 1_555 1_555
N25_2 C80_2 1_555 1_555
N27_2 N28_2 1_555 1_555
O24_2 C99_2 1_555 1_555
C80_2 C81_2 1_555 1_555
C81_2 H49_2 1_555 1_555
C82_2 C89_2 1_555 1_555
C83_2 N22_2 1_555 1_555
H50_2 C83_2 1_555 1_555
C84_2 C81_2 1_555 1_555
C86_2 N25_2 1_555 1_555
C87_2 C84_2 1_555 1_555
H52_2 C87_2 1_555 1_555
C89_2 H53_2 1_555 1_555
C90_2 N27_2 1_555 1_555
C91_2 C92_2 1_555 1_555
C94_2 N22_2 1_555 1_555
H56_2 C94_2 1_555 1_555
H57_2 C94_2 1_555 1_555
C97_2 C82_2 1_555 1_555
H58_2 C97_2 1_555 1_555
C98_2 C89_2 1_555 1_555
H59_2 C98_2 1_555 1_555
C99_2 C84_2 1_555 1_555
C100_2 C91_2 1_555 1_555
H60_2 C100_2 1_555 1_555
Zn6_2 O25_2 1_555 1_555
O25_2 C114_2 1_555 1_555
O29_2 C114_2 1_555 1_555
C114_2 C122_2 1_555 1_555
H71_2 C119_2 1_555 1_555
C121_2 C119_2 1_555 1_555
C122_2 C128_2 1_555 1_555
C127_2 C121_2 1_555 1_555
H77_2 C127_2 1_555 1_555
C128_2 C127_2 1_555 1_555
H78_2 C128_2 1_555 1_555
C129_2 C121_2 1_555 1_555
H79_2 C129_2 1_555 1_555
C130_2 C122_2 1_555 1_555
H80_2 C130_2 1_555 1_555
O31_2 Zn7_2 1_555 1_555
O32_2 C144_2 1_555 1_555
O33_2 C144_2 1_555 1_555
N36_2 N42_2 1_555 1_555
N37_2 N40_2 1_555 1_555
O34_2 C151_2 1_555 1_555
N38_2 Zn6_2 1_555 1_555
O35_2 C140_2 1_555 1_555
N39_2 Zn6_2 1_555 1_555
N40_2 N38_2 1_555 1_555
N41_2 Zn6_2 1_555 1_555
N42_2 N41_2 1_555 1_555
O36_2 Zn2_2 1_555 1_555
C131_2 N38_2 1_555 1_555
C132_2 N39_2 1_555 1_555
C133_2 C132_2 1_555 1_555
H81_2 C133_2 1_555 1_555
C134_2 C141_2 1_555 1_555
C135_2 N36_2 1_555 1_555
H82_2 C135_2 1_555 1_555
C136_2 C133_2 1_555 1_555
C137_2 N37_2 1_555 1_555
H83_2 C137_2 1_555 1_555
C138_2 N39_2 1_555 1_555
C139_2 C136_2 1_555 1_555
H84_2 C139_2 1_555 1_555
C140_2 O31_2 1_555 1_555
C141_2 H85_2 1_555 1_555
C142_2 N41_2 1_555 1_555
C143_2 C144_2 1_555 1_555
C145_2 N37_2 1_555 1_555
H86_2 C145_2 1_555 1_555
H87_2 C145_2 1_555 1_555
C146_2 N36_2 1_555 1_555
H88_2 C146_2 1_555 1_555
H89_2 C146_2 1_555 1_555
C147_2 C145_2 1_555 1_555
C148_2 C140_2 1_555 1_555
C149_2 C134_2 1_555 1_555
H90_2 C149_2 1_555 1_555
C150_2 C141_2 1_555 1_555
H91_2 C150_2 1_555 1_555
C151_2 O36_2 1_555 1_555
C152_2 C143_2 1_555 1_555
H92_2 C152_2 1_555 1_555
C153_2 C147_2 1_555 1_555
H93_2 C153_2 1_555 1_555
C154_2 C148_2 1_555 1_555
H94_2 C154_2 1_555 1_555
C155_2 C147_2 1_555 1_555
H95_2 C155_2 1_555 1_555
C156_2 C148_2 1_555 1_555
H96_2 C156_2 1_555 1_555
Zn8_2 O2_2 1_555 1_555
Zn9_2 O20_2 1_555 1_555
Zn10_2 O14_2 1_555 1_555
Zn13_2 O8_2 1_555 1_555
Zn14_3 O12_2 1_555 1_555
Zn15_3 O18_2 1_555 1_555
O37_2 Zn4_2 1_555 1_555
O39_2 Zn6_2 1_555 1_555
O40_2 Zn3_2 1_555 1_555
O41_2 Zn1_2 1_555 1_555
O43_2 Zn2_2 1_555 1_555
O44_2 Zn2_2 1_555 1_555
O45_2 Zn2_2 1_555 1_555
O46_2 Zn2_2 1_555 1_555
N4_2 Zn4_2 1_555 1_555
N6_2 Zn4_2 1_555 1_555
C1_2 C7_2 1_555 1_555
C1_2 C8_2 1_555 1_555
C2_2 C12_2 1_555 1_555
C4_2 C16_2 1_555 1_555
C5_2 C12_2 1_555 1_555
C8_2 C9_2 1_555 1_555
C13_2 C20_2 1_555 1_555
C19_2 C22_2 1_555 1_555
C25_2 C26_2 1_555 1_555
C27_2 C33_2 1_555 1_555
C27_2 C34_2 1_555 1_555
C28_2 C38_2 1_555 1_555
C30_2 C42_2 1_555 1_555
C31_2 C38_2 1_555 1_555
C34_2 C35_2 1_555 1_555
C39_2 C46_2 1_555 1_555
C45_2 C48_2 1_555 1_555
C51_2 C52_2 1_555 1_555
C53_2 C59_2 1_555 1_555
C53_2 C60_2 1_555 1_555
C54_2 C64_2 1_555 1_555
C56_2 C68_2 1_555 1_555
C57_2 C64_2 1_555 1_555
C60_2 C61_2 1_555 1_555
C65_2 C72_2 1_555 1_555
C71_2 C74_2 1_555 1_555
C75_2 C76_2 1_555 1_555
C77_2 C78_2 1_555 1_555
N25_2 Zn7_2 1_555 1_555
N27_2 Zn7_2 1_555 1_555
O24_2 Zn15_3 1_555 1_555
C80_2 C90_2 1_555 1_555
C82_2 C94_2 1_555 1_555
C83_2 C90_2 1_555 1_555
C86_2 C87_2 1_555 1_555
C91_2 C98_2 1_555 1_555
C97_2 C100_2 1_555 1_555
C129_2 C130_2 1_555 1_555
C131_2 C137_2 1_555 1_555
C131_2 C138_2 1_555 1_555
C132_2 C142_2 1_555 1_555
C134_2 C146_2 1_555 1_555
C135_2 C142_2 1_555 1_555
C136_2 C151_2 1_555 1_555
C138_2 C139_2 1_555 1_555
C143_2 C150_2 1_555 1_555
C149_2 C152_2 1_555 1_555
C153_2 C154_2 1_555 1_555
C155_2 C156_2 1_555 1_555
Zn6_3 O25_3 1_555 1_555
O25_3 C114_3 1_555 1_555
N30_3 N33_3 1_555 1_555
O29_3 C114_3 1_555 1_555
N33_3 N31_3 1_555 1_555
C105_3 N31_3 1_555 1_555
C111_3 N30_3 1_555 1_555
H67_3 C111_3 1_555 1_555
C114_3 C122_3 1_555 1_555
C119_3 N30_3 1_555 1_555
H70_3 C119_3 1_555 1_555
H71_3 C119_3 1_555 1_555
C121_3 C119_3 1_555 1_555
C122_3 C128_3 1_555 1_555
C127_3 C121_3 1_555 1_555
H77_3 C127_3 1_555 1_555
C128_3 C127_3 1_555 1_555
H78_3 C128_3 1_555 1_555
C129_3 C121_3 1_555 1_555
H79_3 C129_3 1_555 1_555
C130_3 C122_3 1_555 1_555
H80_3 C130_3 1_555 1_555
O32_3 C144_3 1_555 1_555
O33_3 C144_3 1_555 1_555
N36_3 N42_3 1_555 1_555
N37_3 N40_3 1_555 1_555
O34_3 C151_3 1_555 1_555
N38_3 Zn6_3 1_555 1_555
N39_3 Zn6_3 1_555 1_555
N40_3 N38_3 1_555 1_555
N41_3 Zn6_3 1_555 1_555
N42_3 N41_3 1_555 1_555
O36_3 Zn2_3 1_555 1_555
C131_3 N38_3 1_555 1_555
C132_3 N39_3 1_555 1_555
C133_3 C132_3 1_555 1_555
H81_3 C133_3 1_555 1_555
C134_3 C141_3 1_555 1_555
C135_3 N36_3 1_555 1_555
H82_3 C135_3 1_555 1_555
C136_3 C133_3 1_555 1_555
C137_3 N37_3 1_555 1_555
C138_3 N39_3 1_555 1_555
C139_3 C136_3 1_555 1_555
H84_3 C139_3 1_555 1_555
C141_3 H85_3 1_555 1_555
C142_3 N41_3 1_555 1_555
C143_3 C144_3 1_555 1_555
C146_3 N36_3 1_555 1_555
H88_3 C146_3 1_555 1_555
H89_3 C146_3 1_555 1_555
C149_3 C134_3 1_555 1_555
H90_3 C149_3 1_555 1_555
C150_3 C141_3 1_555 1_555
H91_3 C150_3 1_555 1_555
C151_3 O36_3 1_555 1_555
C152_3 C143_3 1_555 1_555
H92_3 C152_3 1_555 1_555
Zn11_3 O32_3 1_555 1_555
O39_3 Zn6_3 1_555 1_555
O44_3 Zn2_3 1_555 1_555
O45_3 Zn2_3 1_555 1_555
C105_3 C111_3 1_555 1_555
C129_3 C130_3 1_555 1_555
C131_3 C137_3 1_555 1_555
C131_3 C138_3 1_555 1_555
C132_3 C142_3 1_555 1_555
C134_3 C146_3 1_555 1_555
C135_3 C142_3 1_555 1_555
C136_3 C151_3 1_555 1_555
C138_3 C139_3 1_555 1_555
C143_3 C150_3 1_555 1_555
C149_3 C152_3 1_555 1_555
Zn1_3 O1_3 1_555 1_555
Zn2_4 O6_3 1_555 1_555
O1_3 C10_3 1_555 1_555
O2_3 C14_3 1_555 1_555
O3_3 C14_3 1_555 1_555
N1_3 N7_3 1_555 1_555
N2_3 N5_3 1_555 1_555
O4_3 C21_3 1_555 1_555
N3_3 N5_3 1_555 1_555
O5_3 C10_3 1_555 1_555
N4_3 C2_3 1_555 1_555
N6_3 N7_3 1_555 1_555
O6_3 C21_3 1_555 1_555
C1_3 N3_3 1_555 1_555
C2_3 C3_3 1_555 1_555
C3_3 H1_3 1_555 1_555
C4_3 C11_3 1_555 1_555
C5_3 N1_3 1_555 1_555
H2_3 C5_3 1_555 1_555
C6_3 C3_3 1_555 1_555
C7_3 N2_3 1_555 1_555
H3_3 C7_3 1_555 1_555
C8_3 N4_3 1_555 1_555
C9_3 C6_3 1_555 1_555
H4_3 C9_3 1_555 1_555
C10_3 C18_3 1_555 1_555
C11_3 H5_3 1_555 1_555
C12_3 N6_3 1_555 1_555
C13_3 C14_3 1_555 1_555
C15_3 N2_3 1_555 1_555
H6_3 C15_3 1_555 1_555
H7_3 C15_3 1_555 1_555
C16_3 N1_3 1_555 1_555
H8_3 C16_3 1_555 1_555
H9_3 C16_3 1_555 1_555
C17_3 C15_3 1_555 1_555
C18_3 C24_3 1_555 1_555
C19_3 C4_3 1_555 1_555
H10_3 C19_3 1_555 1_555
C20_3 C11_3 1_555 1_555
H11_3 C20_3 1_555 1_555
C21_3 C6_3 1_555 1_555
C22_3 C13_3 1_555 1_555
H12_3 C22_3 1_555 1_555
C23_3 C17_3 1_555 1_555
H13_3 C23_3 1_555 1_555
C24_3 C23_3 1_555 1_555
H14_3 C24_3 1_555 1_555
C25_3 C17_3 1_555 1_555
H15_3 C25_3 1_555 1_555
C26_3 C18_3 1_555 1_555
H16_3 C26_3 1_555 1_555
Zn3_3 O7_3 1_555 1_555
O7_3 C36_3 1_555 1_555
O8_3 C40_3 1_555 1_555
O9_3 C40_3 1_555 1_555
N8_3 N14_3 1_555 1_555
N9_3 N12_3 1_555 1_555
O10_3 C47_3 1_555 1_555
N10_3 Zn1_3 1_555 1_555
O11_3 C36_3 1_555 1_555
N11_3 Zn1_3 1_555 1_555
N12_3 N10_3 1_555 1_555
N13_3 Zn1_3 1_555 1_555
N14_3 N13_3 1_555 1_555
O12_3 C47_3 1_555 1_555
C27_3 N10_3 1_555 1_555
C28_3 N11_3 1_555 1_555
C29_3 C28_3 1_555 1_555
H17_3 C29_3 1_555 1_555
C30_3 C37_3 1_555 1_555
C31_3 N8_3 1_555 1_555
H18_3 C31_3 1_555 1_555
C32_3 C29_3 1_555 1_555
C33_3 N9_3 1_555 1_555
H19_3 C33_3 1_555 1_555
C34_3 N11_3 1_555 1_555
C35_3 C32_3 1_555 1_555
H20_3 C35_3 1_555 1_555
C36_3 C44_3 1_555 1_555
C37_3 H21_3 1_555 1_555
C38_3 N13_3 1_555 1_555
C39_3 C40_3 1_555 1_555
C41_3 N9_3 1_555 1_555
H22_3 C41_3 1_555 1_555
H23_3 C41_3 1_555 1_555
C42_3 N8_3 1_555 1_555
H24_3 C42_3 1_555 1_555
H25_3 C42_3 1_555 1_555
C43_3 C41_3 1_555 1_555
C44_3 C50_3 1_555 1_555
C45_3 C30_3 1_555 1_555
H26_3 C45_3 1_555 1_555
C46_3 C37_3 1_555 1_555
H27_3 C46_3 1_555 1_555
C47_3 C32_3 1_555 1_555
C48_3 C39_3 1_555 1_555
H28_3 C48_3 1_555 1_555
C49_3 C43_3 1_555 1_555
H29_3 C49_3 1_555 1_555
C50_3 C49_3 1_555 1_555
H30_3 C50_3 1_555 1_555
C51_3 C43_3 1_555 1_555
H31_3 C51_3 1_555 1_555
C52_3 C44_3 1_555 1_555
H32_3 C52_3 1_555 1_555
Zn4_3 N3_3 1_555 1_555
O13_3 Zn4_3 1_555 1_555
O14_3 C66_3 1_555 1_555
O15_3 C66_3 1_555 1_555
N15_3 N21_3 1_555 1_555
N16_3 N19_3 1_555 1_555
O16_3 C73_3 1_555 1_555
N17_3 Zn3_3 1_555 1_555
O17_3 C62_3 1_555 1_555
N18_3 Zn3_3 1_555 1_555
N19_3 N17_3 1_555 1_555
N20_3 Zn3_3 1_555 1_555
N21_3 N20_3 1_555 1_555
O18_3 C73_3 1_555 1_555
C53_3 N17_3 1_555 1_555
C54_3 N18_3 1_555 1_555
C55_3 C54_3 1_555 1_555
H33_3 C55_3 1_555 1_555
C56_3 C63_3 1_555 1_555
C57_3 N15_3 1_555 1_555
H34_3 C57_3 1_555 1_555
C58_3 C55_3 1_555 1_555
C59_3 N16_3 1_555 1_555
H35_3 C59_3 1_555 1_555
C60_3 N18_3 1_555 1_555
C61_3 C58_3 1_555 1_555
H36_3 C61_3 1_555 1_555
C62_3 O13_3 1_555 1_555
C63_3 H37_3 1_555 1_555
C64_3 N20_3 1_555 1_555
C65_3 C66_3 1_555 1_555
C67_3 N16_3 1_555 1_555
H38_3 C67_3 1_555 1_555
H39_3 C67_3 1_555 1_555
C68_3 N15_3 1_555 1_555
H40_3 C68_3 1_555 1_555
H41_3 C68_3 1_555 1_555
C69_3 C67_3 1_555 1_555
C70_3 C62_3 1_555 1_555
C71_3 C56_3 1_555 1_555
H42_3 C71_3 1_555 1_555
C72_3 C63_3 1_555 1_555
H43_3 C72_3 1_555 1_555
C73_3 C58_3 1_555 1_555
C74_3 C65_3 1_555 1_555
H44_3 C74_3 1_555 1_555
C75_3 C69_3 1_555 1_555
H45_3 C75_3 1_555 1_555
C76_3 C70_3 1_555 1_555
H46_3 C76_3 1_555 1_555
C77_3 C69_3 1_555 1_555
H47_3 C77_3 1_555 1_555
C78_3 C70_3 1_555 1_555
H48_3 C78_3 1_555 1_555
Zn5_3 O19_3 1_555 1_555
O19_3 C88_3 1_555 1_555
O20_3 C92_3 1_555 1_555
O21_3 C92_3 1_555 1_555
N22_3 N28_3 1_555 1_555
N23_3 N26_3 1_555 1_555
O22_3 C99_3 1_555 1_555
N24_3 N26_3 1_555 1_555
O23_3 C88_3 1_555 1_555
N25_3 C80_3 1_555 1_555
N27_3 N28_3 1_555 1_555
O24_3 C99_3 1_555 1_555
C79_3 N24_3 1_555 1_555
C80_3 C81_3 1_555 1_555
C81_3 H49_3 1_555 1_555
C82_3 C89_3 1_555 1_555
C83_3 N22_3 1_555 1_555
H50_3 C83_3 1_555 1_555
C84_3 C81_3 1_555 1_555
C85_3 N23_3 1_555 1_555
H51_3 C85_3 1_555 1_555
C86_3 N25_3 1_555 1_555
C87_3 C84_3 1_555 1_555
H52_3 C87_3 1_555 1_555
C88_3 C96_3 1_555 1_555
C89_3 H53_3 1_555 1_555
C90_3 N27_3 1_555 1_555
C91_3 C92_3 1_555 1_555
C93_3 N23_3 1_555 1_555
H54_3 C93_3 1_555 1_555
H55_3 C93_3 1_555 1_555
C94_3 N22_3 1_555 1_555
H56_3 C94_3 1_555 1_555
H57_3 C94_3 1_555 1_555
C95_3 C93_3 1_555 1_555
C96_3 C102_3 1_555 1_555
C97_3 C82_3 1_555 1_555
H58_3 C97_3 1_555 1_555
C98_3 C89_3 1_555 1_555
H59_3 C98_3 1_555 1_555
C99_3 C84_3 1_555 1_555
C100_3 C91_3 1_555 1_555
H60_3 C100_3 1_555 1_555
C101_3 C95_3 1_555 1_555
H61_3 C101_3 1_555 1_555
C102_3 C101_3 1_555 1_555
H62_3 C102_3 1_555 1_555
C103_3 C95_3 1_555 1_555
H63_3 C103_3 1_555 1_555
C104_3 C96_3 1_555 1_555
H64_3 C104_3 1_555 1_555
O26_3 C118_3 1_555 1_555
O27_3 C118_3 1_555 1_555
N29_3 N35_3 1_555 1_555
O28_3 C125_3 1_555 1_555
N32_3 Zn5_3 1_555 1_555
N34_3 Zn5_3 1_555 1_555
N35_3 N34_3 1_555 1_555
O30_3 C125_3 1_555 1_555
C106_3 N32_3 1_555 1_555
C107_3 C106_3 1_555 1_555
H65_3 C107_3 1_555 1_555
C108_3 C115_3 1_555 1_555
C109_3 N29_3 1_555 1_555
H66_3 C109_3 1_555 1_555
C110_3 C107_3 1_555 1_555
C112_3 N32_3 1_555 1_555
C113_3 C110_3 1_555 1_555
H68_3 C113_3 1_555 1_555
C115_3 H69_3 1_555 1_555
C116_3 N34_3 1_555 1_555
C117_3 C118_3 1_555 1_555
C120_3 N29_3 1_555 1_555
H72_3 C120_3 1_555 1_555
H73_3 C120_3 1_555 1_555
C123_3 C108_3 1_555 1_555
H74_3 C123_3 1_555 1_555
C124_3 C115_3 1_555 1_555
H75_3 C124_3 1_555 1_555
C125_3 C110_3 1_555 1_555
C126_3 C117_3 1_555 1_555
H76_3 C126_3 1_555 1_555
Zn7_3 N24_3 1_555 1_555
O31_3 Zn7_3 1_555 1_555
O35_3 C140_3 1_555 1_555
C140_3 O31_3 1_555 1_555
H87_3 C145_3 1_555 1_555
C147_3 C145_3 1_555 1_555
C148_3 C140_3 1_555 1_555
C153_3 C147_3 1_555 1_555
H93_3 C153_3 1_555 1_555
C154_3 C148_3 1_555 1_555
H94_3 C154_3 1_555 1_555
C155_3 C147_3 1_555 1_555
H95_3 C155_3 1_555 1_555
C156_3 C148_3 1_555 1_555
H96_3 C156_3 1_555 1_555
Zn8_3 O2_3 1_555 1_555
Zn10_3 O14_3 1_555 1_555
Zn12_3 O26_3 1_555 1_555
Zn13_3 O8_3 1_555 1_555
Zn14_4 O12_3 1_555 1_555
Zn15_4 O18_3 1_555 1_555
Zn16_6 O30_3 1_555 1_555
O37_3 Zn4_3 1_555 1_555
O38_3 Zn7_3 1_555 1_555
O40_3 Zn3_3 1_555 1_555
O41_3 Zn1_3 1_555 1_555
O43_3 Zn2_4 1_555 1_555
O46_3 Zn2_4 1_555 1_555
N4_3 Zn4_3 1_555 1_555
N6_3 Zn4_3 1_555 1_555
C1_3 C7_3 1_555 1_555
C1_3 C8_3 1_555 1_555
C2_3 C12_3 1_555 1_555
C4_3 C16_3 1_555 1_555
C5_3 C12_3 1_555 1_555
C8_3 C9_3 1_555 1_555
C13_3 C20_3 1_555 1_555
C19_3 C22_3 1_555 1_555
C25_3 C26_3 1_555 1_555
C27_3 C33_3 1_555 1_555
C27_3 C34_3 1_555 1_555
C28_3 C38_3 1_555 1_555
C30_3 C42_3 1_555 1_555
C31_3 C38_3 1_555 1_555
C34_3 C35_3 1_555 1_555
C39_3 C46_3 1_555 1_555
C45_3 C48_3 1_555 1_555
C51_3 C52_3 1_555 1_555
C53_3 C59_3 1_555 1_555
C53_3 C60_3 1_555 1_555
C54_3 C64_3 1_555 1_555
C56_3 C68_3 1_555 1_555
C57_3 C64_3 1_555 1_555
C60_3 C61_3 1_555 1_555
C65_3 C72_3 1_555 1_555
C71_3 C74_3 1_555 1_555
C75_3 C76_3 1_555 1_555
C77_3 C78_3 1_555 1_555
N25_3 Zn7_3 1_555 1_555
N27_3 Zn7_3 1_555 1_555
O24_3 Zn15_4 1_555 1_555
C79_3 C85_3 1_555 1_555
C79_3 C86_3 1_555 1_555
C80_3 C90_3 1_555 1_555
C82_3 C94_3 1_555 1_555
C83_3 C90_3 1_555 1_555
C86_3 C87_3 1_555 1_555
C91_3 C98_3 1_555 1_555
C97_3 C100_3 1_555 1_555
C103_3 C104_3 1_555 1_555
C106_3 C116_3 1_555 1_555
C108_3 C120_3 1_555 1_555
C109_3 C116_3 1_555 1_555
C112_3 C113_3 1_555 1_555
C117_3 C124_3 1_555 1_555
C123_3 C126_3 1_555 1_555
C153_3 C154_3 1_555 1_555
C155_3 C156_3 1_555 1_555
N30_4 N33_4 1_555 1_555
N33_4 N31_4 1_555 1_555
C105_4 N31_4 1_555 1_555
C111_4 N30_4 1_555 1_555
C105_4 C111_4 1_555 1_555
Zn5_4 O19_4 1_555 1_555
O19_4 C88_4 1_555 1_555
N23_4 N26_4 1_555 1_555
N24_4 N26_4 1_555 1_555
O23_4 C88_4 1_555 1_555
C79_4 N24_4 1_555 1_555
C85_4 N23_4 1_555 1_555
H51_4 C85_4 1_555 1_555
C88_4 C96_4 1_555 1_555
C93_4 N23_4 1_555 1_555
H54_4 C93_4 1_555 1_555
H55_4 C93_4 1_555 1_555
C95_4 C93_4 1_555 1_555
C96_4 C102_4 1_555 1_555
C101_4 C95_4 1_555 1_555
H61_4 C101_4 1_555 1_555
C102_4 C101_4 1_555 1_555
H62_4 C102_4 1_555 1_555
C103_4 C95_4 1_555 1_555
H63_4 C103_4 1_555 1_555
C104_4 C96_4 1_555 1_555
H64_4 C104_4 1_555 1_555
O26_4 C118_4 1_555 1_555
O27_4 C118_4 1_555 1_555
N29_4 N35_4 1_555 1_555
O28_4 C125_4 1_555 1_555
N32_4 Zn5_4 1_555 1_555
N34_4 Zn5_4 1_555 1_555
N35_4 N34_4 1_555 1_555
O30_4 C125_4 1_555 1_555
C106_4 N32_4 1_555 1_555
C107_4 C106_4 1_555 1_555
H65_4 C107_4 1_555 1_555
C108_4 C115_4 1_555 1_555
C109_4 N29_4 1_555 1_555
H66_4 C109_4 1_555 1_555
C110_4 C107_4 1_555 1_555
C112_4 N32_4 1_555 1_555
C113_4 C110_4 1_555 1_555
H68_4 C113_4 1_555 1_555
C115_4 H69_4 1_555 1_555
C116_4 N34_4 1_555 1_555
C117_4 C118_4 1_555 1_555
C120_4 N29_4 1_555 1_555
H72_4 C120_4 1_555 1_555
H73_4 C120_4 1_555 1_555
C123_4 C108_4 1_555 1_555
H74_4 C123_4 1_555 1_555
C124_4 C115_4 1_555 1_555
H75_4 C124_4 1_555 1_555
C125_4 C110_4 1_555 1_555
C126_4 C117_4 1_555 1_555
H76_4 C126_4 1_555 1_555
Zn12_4 O26_4 1_555 1_555
Zn16_12 O30_4 1_555 1_555
C79_4 C85_4 1_555 1_555
C103_4 C104_4 1_555 1_555
C106_4 C116_4 1_555 1_555
C108_4 C120_4 1_555 1_555
C109_4 C116_4 1_555 1_555
C112_4 C113_4 1_555 1_555
C117_4 C124_4 1_555 1_555
C123_4 C126_4 1_555 1_555
Zn6_4 O25_4 1_555 1_555
O25_4 C114_4 1_555 1_555
O29_4 C114_4 1_555 1_555
C114_4 C122_4 1_555 1_555
H71_4 C119_4 1_555 1_555
C121_4 C119_4 1_555 1_555
C122_4 C128_4 1_555 1_555
C127_4 C121_4 1_555 1_555
H77_4 C127_4 1_555 1_555
C128_4 C127_4 1_555 1_555
H78_4 C128_4 1_555 1_555
C129_4 C121_4 1_555 1_555
H79_4 C129_4 1_555 1_555
C130_4 C122_4 1_555 1_555
H80_4 C130_4 1_555 1_555
O32_4 C144_4 1_555 1_555
O33_4 C144_4 1_555 1_555
N36_4 N42_4 1_555 1_555
N37_4 N40_4 1_555 1_555
O34_4 C151_4 1_555 1_555
N38_4 Zn6_4 1_555 1_555
N39_4 Zn6_4 1_555 1_555
N40_4 N38_4 1_555 1_555
N41_4 Zn6_4 1_555 1_555
N42_4 N41_4 1_555 1_555
O36_4 Zn2_5 1_555 1_555
C131_4 N38_4 1_555 1_555
C132_4 N39_4 1_555 1_555
C133_4 C132_4 1_555 1_555
H81_4 C133_4 1_555 1_555
C134_4 C141_4 1_555 1_555
C135_4 N36_4 1_555 1_555
H82_4 C135_4 1_555 1_555
C136_4 C133_4 1_555 1_555
C137_4 N37_4 1_555 1_555
C138_4 N39_4 1_555 1_555
C139_4 C136_4 1_555 1_555
H84_4 C139_4 1_555 1_555
C141_4 H85_4 1_555 1_555
C142_4 N41_4 1_555 1_555
C143_4 C144_4 1_555 1_555
C146_4 N36_4 1_555 1_555
H88_4 C146_4 1_555 1_555
H89_4 C146_4 1_555 1_555
C149_4 C134_4 1_555 1_555
H90_4 C149_4 1_555 1_555
C150_4 C141_4 1_555 1_555
H91_4 C150_4 1_555 1_555
C151_4 O36_4 1_555 1_555
C152_4 C143_4 1_555 1_555
H92_4 C152_4 1_555 1_555
O39_4 Zn6_4 1_555 1_555
O44_4 Zn2_5 1_555 1_555
O45_4 Zn2_5 1_555 1_555
C129_4 C130_4 1_555 1_555
C131_4 C137_4 1_555 1_555
C131_4 C138_4 1_555 1_555
C132_4 C142_4 1_555 1_555
C134_4 C146_4 1_555 1_555
C135_4 C142_4 1_555 1_555
C136_4 C151_4 1_555 1_555
C138_4 C139_4 1_555 1_555
C143_4 C150_4 1_555 1_555
C149_4 C152_4 1_555 1_555
Zn1_4 O1_4 1_555 1_555
Zn2_6 O6_4 1_555 1_555
O1_4 C10_4 1_555 1_555
O2_4 C14_4 1_555 1_555
O3_4 C14_4 1_555 1_555
N1_4 N7_4 1_555 1_555
N2_4 N5_4 1_555 1_555
O4_4 C21_4 1_555 1_555
N3_4 N5_4 1_555 1_555
O5_4 C10_4 1_555 1_555
N4_4 C2_4 1_555 1_555
N6_4 N7_4 1_555 1_555
O6_4 C21_4 1_555 1_555
C1_4 N3_4 1_555 1_555
C2_4 C3_4 1_555 1_555
C3_4 H1_4 1_555 1_555
C4_4 C11_4 1_555 1_555
C5_4 N1_4 1_555 1_555
H2_4 C5_4 1_555 1_555
C6_4 C3_4 1_555 1_555
C7_4 N2_4 1_555 1_555
H3_4 C7_4 1_555 1_555
C8_4 N4_4 1_555 1_555
C9_4 C6_4 1_555 1_555
H4_4 C9_4 1_555 1_555
C10_4 C18_4 1_555 1_555
C11_4 H5_4 1_555 1_555
C12_4 N6_4 1_555 1_555
C13_4 C14_4 1_555 1_555
C15_4 N2_4 1_555 1_555
H6_4 C15_4 1_555 1_555
H7_4 C15_4 1_555 1_555
C16_4 N1_4 1_555 1_555
H8_4 C16_4 1_555 1_555
H9_4 C16_4 1_555 1_555
C17_4 C15_4 1_555 1_555
C18_4 C24_4 1_555 1_555
C19_4 C4_4 1_555 1_555
H10_4 C19_4 1_555 1_555
C20_4 C11_4 1_555 1_555
H11_4 C20_4 1_555 1_555
C21_4 C6_4 1_555 1_555
C22_4 C13_4 1_555 1_555
H12_4 C22_4 1_555 1_555
C23_4 C17_4 1_555 1_555
H13_4 C23_4 1_555 1_555
C24_4 C23_4 1_555 1_555
H14_4 C24_4 1_555 1_555
C25_4 C17_4 1_555 1_555
H15_4 C25_4 1_555 1_555
C26_4 C18_4 1_555 1_555
H16_4 C26_4 1_555 1_555
Zn3_4 O7_4 1_555 1_555
O7_4 C36_4 1_555 1_555
O8_4 C40_4 1_555 1_555
O9_4 C40_4 1_555 1_555
N8_4 N14_4 1_555 1_555
N9_4 N12_4 1_555 1_555
O10_4 C47_4 1_555 1_555
N10_4 Zn1_4 1_555 1_555
O11_4 C36_4 1_555 1_555
N11_4 Zn1_4 1_555 1_555
N12_4 N10_4 1_555 1_555
N13_4 Zn1_4 1_555 1_555
N14_4 N13_4 1_555 1_555
O12_4 C47_4 1_555 1_555
C27_4 N10_4 1_555 1_555
C28_4 N11_4 1_555 1_555
C29_4 C28_4 1_555 1_555
H17_4 C29_4 1_555 1_555
C30_4 C37_4 1_555 1_555
C31_4 N8_4 1_555 1_555
H18_4 C31_4 1_555 1_555
C32_4 C29_4 1_555 1_555
C33_4 N9_4 1_555 1_555
H19_4 C33_4 1_555 1_555
C34_4 N11_4 1_555 1_555
C35_4 C32_4 1_555 1_555
H20_4 C35_4 1_555 1_555
C36_4 C44_4 1_555 1_555
C37_4 H21_4 1_555 1_555
C38_4 N13_4 1_555 1_555
C39_4 C40_4 1_555 1_555
C41_4 N9_4 1_555 1_555
H22_4 C41_4 1_555 1_555
H23_4 C41_4 1_555 1_555
C42_4 N8_4 1_555 1_555
H24_4 C42_4 1_555 1_555
H25_4 C42_4 1_555 1_555
C43_4 C41_4 1_555 1_555
C44_4 C50_4 1_555 1_555
C45_4 C30_4 1_555 1_555
H26_4 C45_4 1_555 1_555
C46_4 C37_4 1_555 1_555
H27_4 C46_4 1_555 1_555
C47_4 C32_4 1_555 1_555
C48_4 C39_4 1_555 1_555
H28_4 C48_4 1_555 1_555
C49_4 C43_4 1_555 1_555
H29_4 C49_4 1_555 1_555
C50_4 C49_4 1_555 1_555
H30_4 C50_4 1_555 1_555
C51_4 C43_4 1_555 1_555
H31_4 C51_4 1_555 1_555
C52_4 C44_4 1_555 1_555
H32_4 C52_4 1_555 1_555
Zn4_4 N3_4 1_555 1_555
O13_4 Zn4_4 1_555 1_555
O14_4 C66_4 1_555 1_555
O15_4 C66_4 1_555 1_555
N15_4 N21_4 1_555 1_555
N16_4 N19_4 1_555 1_555
O16_4 C73_4 1_555 1_555
N17_4 Zn3_4 1_555 1_555
O17_4 C62_4 1_555 1_555
N18_4 Zn3_4 1_555 1_555
N19_4 N17_4 1_555 1_555
N20_4 Zn3_4 1_555 1_555
N21_4 N20_4 1_555 1_555
O18_4 C73_4 1_555 1_555
C53_4 N17_4 1_555 1_555
C54_4 N18_4 1_555 1_555
C55_4 C54_4 1_555 1_555
H33_4 C55_4 1_555 1_555
C56_4 C63_4 1_555 1_555
C57_4 N15_4 1_555 1_555
H34_4 C57_4 1_555 1_555
C58_4 C55_4 1_555 1_555
C59_4 N16_4 1_555 1_555
H35_4 C59_4 1_555 1_555
C60_4 N18_4 1_555 1_555
C61_4 C58_4 1_555 1_555
H36_4 C61_4 1_555 1_555
C62_4 O13_4 1_555 1_555
C63_4 H37_4 1_555 1_555
C64_4 N20_4 1_555 1_555
C65_4 C66_4 1_555 1_555
C67_4 N16_4 1_555 1_555
H38_4 C67_4 1_555 1_555
H39_4 C67_4 1_555 1_555
C68_4 N15_4 1_555 1_555
H40_4 C68_4 1_555 1_555
H41_4 C68_4 1_555 1_555
C69_4 C67_4 1_555 1_555
C70_4 C62_4 1_555 1_555
C71_4 C56_4 1_555 1_555
H42_4 C71_4 1_555 1_555
C72_4 C63_4 1_555 1_555
H43_4 C72_4 1_555 1_555
C73_4 C58_4 1_555 1_555
C74_4 C65_4 1_555 1_555
H44_4 C74_4 1_555 1_555
C75_4 C69_4 1_555 1_555
H45_4 C75_4 1_555 1_555
C76_4 C70_4 1_555 1_555
H46_4 C76_4 1_555 1_555
C77_4 C69_4 1_555 1_555
H47_4 C77_4 1_555 1_555
C78_4 C70_4 1_555 1_555
H48_4 C78_4 1_555 1_555
O20_4 C92_4 1_555 1_555
O21_4 C92_4 1_555 1_555
N22_4 N28_4 1_555 1_555
O22_4 C99_4 1_555 1_555
N25_4 C80_4 1_555 1_555
N27_4 N28_4 1_555 1_555
O24_4 C99_4 1_555 1_555
C80_4 C81_4 1_555 1_555
C81_4 H49_4 1_555 1_555
C82_4 C89_4 1_555 1_555
C83_4 N22_4 1_555 1_555
H50_4 C83_4 1_555 1_555
C84_4 C81_4 1_555 1_555
C86_4 N25_4 1_555 1_555
C87_4 C84_4 1_555 1_555
H52_4 C87_4 1_555 1_555
C89_4 H53_4 1_555 1_555
C90_4 N27_4 1_555 1_555
C91_4 C92_4 1_555 1_555
C94_4 N22_4 1_555 1_555
H56_4 C94_4 1_555 1_555
H57_4 C94_4 1_555 1_555
C97_4 C82_4 1_555 1_555
H58_4 C97_4 1_555 1_555
C98_4 C89_4 1_555 1_555
H59_4 C98_4 1_555 1_555
C99_4 C84_4 1_555 1_555
C100_4 C91_4 1_555 1_555
H60_4 C100_4 1_555 1_555
O31_4 Zn7_4 1_555 1_555
O35_4 C140_4 1_555 1_555
C140_4 O31_4 1_555 1_555
H87_4 C145_4 1_555 1_555
C147_4 C145_4 1_555 1_555
C148_4 C140_4 1_555 1_555
C153_4 C147_4 1_555 1_555
H93_4 C153_4 1_555 1_555
C154_4 C148_4 1_555 1_555
H94_4 C154_4 1_555 1_555
C155_4 C147_4 1_555 1_555
H95_4 C155_4 1_555 1_555
C156_4 C148_4 1_555 1_555
H96_4 C156_4 1_555 1_555
Zn8_4 O2_4 1_555 1_555
Zn10_4 O14_4 1_555 1_555
Zn13_4 O8_4 1_555 1_555
Zn14_6 O12_4 1_555 1_555
Zn15_6 O18_4 1_555 1_555
O37_4 Zn4_4 1_555 1_555
O40_4 Zn3_4 1_555 1_555
O41_4 Zn1_4 1_555 1_555
O43_4 Zn2_6 1_555 1_555
O46_4 Zn2_6 1_555 1_555
N4_4 Zn4_4 1_555 1_555
N6_4 Zn4_4 1_555 1_555
C1_4 C7_4 1_555 1_555
C1_4 C8_4 1_555 1_555
C2_4 C12_4 1_555 1_555
C4_4 C16_4 1_555 1_555
C5_4 C12_4 1_555 1_555
C8_4 C9_4 1_555 1_555
C13_4 C20_4 1_555 1_555
C19_4 C22_4 1_555 1_555
C25_4 C26_4 1_555 1_555
C27_4 C33_4 1_555 1_555
C27_4 C34_4 1_555 1_555
C28_4 C38_4 1_555 1_555
C30_4 C42_4 1_555 1_555
C31_4 C38_4 1_555 1_555
C34_4 C35_4 1_555 1_555
C39_4 C46_4 1_555 1_555
C45_4 C48_4 1_555 1_555
C51_4 C52_4 1_555 1_555
C53_4 C59_4 1_555 1_555
C53_4 C60_4 1_555 1_555
C54_4 C64_4 1_555 1_555
C56_4 C68_4 1_555 1_555
C57_4 C64_4 1_555 1_555
C60_4 C61_4 1_555 1_555
C65_4 C72_4 1_555 1_555
C71_4 C74_4 1_555 1_555
C75_4 C76_4 1_555 1_555
C77_4 C78_4 1_555 1_555
N25_4 Zn7_4 1_555 1_555
N27_4 Zn7_4 1_555 1_555
O24_4 Zn15_6 1_555 1_555
C80_4 C90_4 1_555 1_555
C82_4 C94_4 1_555 1_555
C83_4 C90_4 1_555 1_555
C86_4 C87_4 1_555 1_555
C91_4 C98_4 1_555 1_555
C97_4 C100_4 1_555 1_555
C153_4 C154_4 1_555 1_555
C155_4 C156_4 1_555 1_555
Zn5_5 O19_5 1_555 1_555
O19_5 C88_5 1_555 1_555
O20_5 C92_5 1_555 1_555
O21_5 C92_5 1_555 1_555
N22_5 N28_5 1_555 1_555
N23_5 N26_5 1_555 1_555
O22_5 C99_5 1_555 1_555
N24_5 N26_5 1_555 1_555
O23_5 C88_5 1_555 1_555
N25_5 C80_5 1_555 1_555
N27_5 N28_5 1_555 1_555
O43_2 C99_5 1_555 1_555
C79_5 N24_5 1_555 1_555
C80_5 C81_5 1_555 1_555
C81_5 H49_5 1_555 1_555
C82_5 C89_5 1_555 1_555
C83_5 N22_5 1_555 1_555
H50_5 C83_5 1_555 1_555
C84_5 C81_5 1_555 1_555
C85_5 N23_5 1_555 1_555
H51_5 C85_5 1_555 1_555
C86_5 N25_5 1_555 1_555
C87_5 C84_5 1_555 1_555
H52_5 C87_5 1_555 1_555
C88_5 C96_5 1_555 1_555
C89_5 H53_5 1_555 1_555
C90_5 N27_5 1_555 1_555
C91_5 C92_5 1_555 1_555
C93_5 N23_5 1_555 1_555
H54_5 C93_5 1_555 1_555
H55_5 C93_5 1_555 1_555
C94_5 N22_5 1_555 1_555
H56_5 C94_5 1_555 1_555
H57_5 C94_5 1_555 1_555
C95_5 C93_5 1_555 1_555
C96_5 C102_5 1_555 1_555
C97_5 C82_5 1_555 1_555
H58_5 C97_5 1_555 1_555
C98_5 C89_5 1_555 1_555
H59_5 C98_5 1_555 1_555
C99_5 C84_5 1_555 1_555
C100_5 C91_5 1_555 1_555
H60_5 C100_5 1_555 1_555
C101_5 C95_5 1_555 1_555
H61_5 C101_5 1_555 1_555
C102_5 C101_5 1_555 1_555
H62_5 C102_5 1_555 1_555
C103_5 C95_5 1_555 1_555
H63_5 C103_5 1_555 1_555
C104_5 C96_5 1_555 1_555
H64_5 C104_5 1_555 1_555
Zn6_5 O25_5 1_555 1_555
O25_5 C114_5 1_555 1_555
O26_5 C118_5 1_555 1_555
O27_5 C118_5 1_555 1_555
N29_5 N35_5 1_555 1_555
N30_5 N33_5 1_555 1_555
O28_5 C125_5 1_555 1_555
N31_5 Zn5_5 1_555 1_555
O29_5 C114_5 1_555 1_555
N32_5 Zn5_5 1_555 1_555
N33_5 N31_5 1_555 1_555
N34_5 Zn5_5 1_555 1_555
N35_5 N34_5 1_555 1_555
O30_5 C125_5 1_555 1_555
C105_5 N31_5 1_555 1_555
C106_5 N32_5 1_555 1_555
C107_5 C106_5 1_555 1_555
H65_5 C107_5 1_555 1_555
C108_5 C115_5 1_555 1_555
C109_5 N29_5 1_555 1_555
H66_5 C109_5 1_555 1_555
C110_5 C107_5 1_555 1_555
C111_5 N30_5 1_555 1_555
H67_5 C111_5 1_555 1_555
C112_5 N32_5 1_555 1_555
C113_5 C110_5 1_555 1_555
H68_5 C113_5 1_555 1_555
C114_5 C122_5 1_555 1_555
C115_5 H69_5 1_555 1_555
C116_5 N34_5 1_555 1_555
C117_5 C118_5 1_555 1_555
C119_5 N30_5 1_555 1_555
H70_5 C119_5 1_555 1_555
H71_5 C119_5 1_555 1_555
C120_5 N29_5 1_555 1_555
H72_5 C120_5 1_555 1_555
H73_5 C120_5 1_555 1_555
C121_5 C119_5 1_555 1_555
C122_5 C128_5 1_555 1_555
C123_5 C108_5 1_555 1_555
H74_5 C123_5 1_555 1_555
C124_5 C115_5 1_555 1_555
H75_5 C124_5 1_555 1_555
C125_5 C110_5 1_555 1_555
C126_5 C117_5 1_555 1_555
H76_5 C126_5 1_555 1_555
C127_5 C121_5 1_555 1_555
H77_5 C127_5 1_555 1_555
C128_5 C127_5 1_555 1_555
H78_5 C128_5 1_555 1_555
C129_5 C121_5 1_555 1_555
H79_5 C129_5 1_555 1_555
C130_5 C122_5 1_555 1_555
H80_5 C130_5 1_555 1_555
Zn7_5 N24_5 1_555 1_555
O31_5 Zn7_5 1_555 1_555
O32_5 C144_5 1_555 1_555
O33_5 C144_5 1_555 1_555
N36_5 N42_5 1_555 1_555
N37_5 N40_5 1_555 1_555
O34_5 C151_5 1_555 1_555
N38_5 Zn6_5 1_555 1_555
O35_5 C140_5 1_555 1_555
N39_5 Zn6_5 1_555 1_555
N40_5 N38_5 1_555 1_555
N41_5 Zn6_5 1_555 1_555
N42_5 N41_5 1_555 1_555
O36_5 Zn14_3 1_555 1_555
C131_5 N38_5 1_555 1_555
C132_5 N39_5 1_555 1_555
C133_5 C132_5 1_555 1_555
H81_5 C133_5 1_555 1_555
C134_5 C141_5 1_555 1_555
C135_5 N36_5 1_555 1_555
H82_5 C135_5 1_555 1_555
C136_5 C133_5 1_555 1_555
C137_5 N37_5 1_555 1_555
H83_5 C137_5 1_555 1_555
C138_5 N39_5 1_555 1_555
C139_5 C136_5 1_555 1_555
H84_5 C139_5 1_555 1_555
C140_5 O31_5 1_555 1_555
C141_5 H85_5 1_555 1_555
C142_5 N41_5 1_555 1_555
C143_5 C144_5 1_555 1_555
C145_5 N37_5 1_555 1_555
H86_5 C145_5 1_555 1_555
H87_5 C145_5 1_555 1_555
C146_5 N36_5 1_555 1_555
H88_5 C146_5 1_555 1_555
H89_5 C146_5 1_555 1_555
C147_5 C145_5 1_555 1_555
C148_5 C140_5 1_555 1_555
C149_5 C134_5 1_555 1_555
H90_5 C149_5 1_555 1_555
C150_5 C141_5 1_555 1_555
H91_5 C150_5 1_555 1_555
C151_5 O36_5 1_555 1_555
C152_5 C143_5 1_555 1_555
H92_5 C152_5 1_555 1_555
C153_5 C147_5 1_555 1_555
H93_5 C153_5 1_555 1_555
C154_5 C148_5 1_555 1_555
H94_5 C154_5 1_555 1_555
C155_5 C147_5 1_555 1_555
H95_5 C155_5 1_555 1_555
C156_5 C148_5 1_555 1_555
H96_5 C156_5 1_555 1_555
Zn9_5 O20_5 1_555 1_555
Zn11_5 O32_5 1_555 1_555
Zn12_5 O26_5 1_555 1_555
Zn16_4 O30_5 1_555 1_555
O38_5 Zn7_5 1_555 1_555
O39_5 Zn6_5 1_555 1_555
O42_5 Zn5_5 1_555 1_555
O43_5 Zn14_3 1_555 1_555
O44_5 Zn14_3 1_555 1_555
O45_5 Zn14_3 1_555 1_555
O46_5 Zn14_3 1_555 1_555
N25_5 Zn7_5 1_555 1_555
N27_5 Zn7_5 1_555 1_555
C79_5 C85_5 1_555 1_555
C79_5 C86_5 1_555 1_555
C80_5 C90_5 1_555 1_555
C82_5 C94_5 1_555 1_555
C83_5 C90_5 1_555 1_555
C86_5 C87_5 1_555 1_555
C91_5 C98_5 1_555 1_555
C97_5 C100_5 1_555 1_555
C103_5 C104_5 1_555 1_555
C105_5 C111_5 1_555 1_555
C105_5 C112_5 1_555 1_555
C106_5 C116_5 1_555 1_555
C108_5 C120_5 1_555 1_555
C109_5 C116_5 1_555 1_555
C112_5 C113_5 1_555 1_555
C117_5 C124_5 1_555 1_555
C123_5 C126_5 1_555 1_555
C129_5 C130_5 1_555 1_555
C131_5 C137_5 1_555 1_555
C131_5 C138_5 1_555 1_555
C132_5 C142_5 1_555 1_555
C134_5 C146_5 1_555 1_555
C135_5 C142_5 1_555 1_555
C136_5 C151_5 1_555 1_555
C138_5 C139_5 1_555 1_555
C143_5 C150_5 1_555 1_555
C149_5 C152_5 1_555 1_555
C153_5 C154_5 1_555 1_555
C155_5 C156_5 1_555 1_555
Zn5_6 O19_6 1_555 1_555
O19_6 C88_6 1_555 1_555
N23_6 N26_6 1_555 1_555
N24_6 N26_6 1_555 1_555
O23_6 C88_6 1_555 1_555
C79_6 N24_6 1_555 1_555
C85_6 N23_6 1_555 1_555
H51_6 C85_6 1_555 1_555
C88_6 C96_6 1_555 1_555
C93_6 N23_6 1_555 1_555
H54_6 C93_6 1_555 1_555
H55_6 C93_6 1_555 1_555
C95_6 C93_6 1_555 1_555
C96_6 C102_6 1_555 1_555
C101_6 C95_6 1_555 1_555
H61_6 C101_6 1_555 1_555
C102_6 C101_6 1_555 1_555
H62_6 C102_6 1_555 1_555
C103_6 C95_6 1_555 1_555
H63_6 C103_6 1_555 1_555
C104_6 C96_6 1_555 1_555
H64_6 C104_6 1_555 1_555
O26_6 C118_6 1_555 1_555
O27_6 C118_6 1_555 1_555
N29_6 N35_6 1_555 1_555
N30_6 N33_6 1_555 1_555
O28_6 C125_6 1_555 1_555
N31_6 Zn5_6 1_555 1_555
N32_6 Zn5_6 1_555 1_555
N33_6 N31_6 1_555 1_555
N34_6 Zn5_6 1_555 1_555
N35_6 N34_6 1_555 1_555
O30_6 C125_6 1_555 1_555
C105_6 N31_6 1_555 1_555
C106_6 N32_6 1_555 1_555
C107_6 C106_6 1_555 1_555
H65_6 C107_6 1_555 1_555
C108_6 C115_6 1_555 1_555
C109_6 N29_6 1_555 1_555
H66_6 C109_6 1_555 1_555
C110_6 C107_6 1_555 1_555
C111_6 N30_6 1_555 1_555
C112_6 N32_6 1_555 1_555
C113_6 C110_6 1_555 1_555
H68_6 C113_6 1_555 1_555
C115_6 H69_6 1_555 1_555
C116_6 N34_6 1_555 1_555
C117_6 C118_6 1_555 1_555
C120_6 N29_6 1_555 1_555
H72_6 C120_6 1_555 1_555
H73_6 C120_6 1_555 1_555
C123_6 C108_6 1_555 1_555
H74_6 C123_6 1_555 1_555
C124_6 C115_6 1_555 1_555
H75_6 C124_6 1_555 1_555
C125_6 C110_6 1_555 1_555
C126_6 C117_6 1_555 1_555
H76_6 C126_6 1_555 1_555
Zn12_6 O26_6 1_555 1_555
Zn16_5 O30_6 1_555 1_555
O42_6 Zn5_6 1_555 1_555
C79_6 C85_6 1_555 1_555
C103_6 C104_6 1_555 1_555
C105_6 C111_6 1_555 1_555
C105_6 C112_6 1_555 1_555
C106_6 C116_6 1_555 1_555
C108_6 C120_6 1_555 1_555
C109_6 C116_6 1_555 1_555
C112_6 C113_6 1_555 1_555
C117_6 C124_6 1_555 1_555
C123_6 C126_6 1_555 1_555
O20_6 C92_6 1_555 1_555
O21_6 C92_6 1_555 1_555
N22_6 N28_6 1_555 1_555
O22_6 C99_6 1_555 1_555
N25_6 C80_6 1_555 1_555
N27_6 N28_6 1_555 1_555
O43_3 C99_6 1_555 1_555
C80_6 C81_6 1_555 1_555
C81_6 H49_6 1_555 1_555
C82_6 C89_6 1_555 1_555
C83_6 N22_6 1_555 1_555
H50_6 C83_6 1_555 1_555
C84_6 C81_6 1_555 1_555
C86_6 N25_6 1_555 1_555
C87_6 C84_6 1_555 1_555
H52_6 C87_6 1_555 1_555
C89_6 H53_6 1_555 1_555
C90_6 N27_6 1_555 1_555
C91_6 C92_6 1_555 1_555
C94_6 N22_6 1_555 1_555
H56_6 C94_6 1_555 1_555
H57_6 C94_6 1_555 1_555
C97_6 C82_6 1_555 1_555
H58_6 C97_6 1_555 1_555
C98_6 C89_6 1_555 1_555
H59_6 C98_6 1_555 1_555
C99_6 C84_6 1_555 1_555
C100_6 C91_6 1_555 1_555
H60_6 C100_6 1_555 1_555
Zn6_6 O25_6 1_555 1_555
O25_6 C114_6 1_555 1_555
O29_6 C114_6 1_555 1_555
C114_6 C122_6 1_555 1_555
H71_6 C119_6 1_555 1_555
C121_6 C119_6 1_555 1_555
C122_6 C128_6 1_555 1_555
C127_6 C121_6 1_555 1_555
H77_6 C127_6 1_555 1_555
C128_6 C127_6 1_555 1_555
H78_6 C128_6 1_555 1_555
C129_6 C121_6 1_555 1_555
H79_6 C129_6 1_555 1_555
C130_6 C122_6 1_555 1_555
H80_6 C130_6 1_555 1_555
O31_6 Zn7_6 1_555 1_555
O32_6 C144_6 1_555 1_555
O33_6 C144_6 1_555 1_555
N36_6 N42_6 1_555 1_555
N37_6 N40_6 1_555 1_555
O34_6 C151_6 1_555 1_555
N38_6 Zn6_6 1_555 1_555
O35_6 C140_6 1_555 1_555
N39_6 Zn6_6 1_555 1_555
N40_6 N38_6 1_555 1_555
N41_6 Zn6_6 1_555 1_555
N42_6 N41_6 1_555 1_555
O36_6 Zn14_4 1_555 1_555
C131_6 N38_6 1_555 1_555
C132_6 N39_6 1_555 1_555
C133_6 C132_6 1_555 1_555
H81_6 C133_6 1_555 1_555
C134_6 C141_6 1_555 1_555
C135_6 N36_6 1_555 1_555
H82_6 C135_6 1_555 1_555
C136_6 C133_6 1_555 1_555
C137_6 N37_6 1_555 1_555
H83_6 C137_6 1_555 1_555
C138_6 N39_6 1_555 1_555
C139_6 C136_6 1_555 1_555
H84_6 C139_6 1_555 1_555
C140_6 O31_6 1_555 1_555
C141_6 H85_6 1_555 1_555
C142_6 N41_6 1_555 1_555
C143_6 C144_6 1_555 1_555
C145_6 N37_6 1_555 1_555
H86_6 C145_6 1_555 1_555
H87_6 C145_6 1_555 1_555
C146_6 N36_6 1_555 1_555
H88_6 C146_6 1_555 1_555
H89_6 C146_6 1_555 1_555
C147_6 C145_6 1_555 1_555
C148_6 C140_6 1_555 1_555
C149_6 C134_6 1_555 1_555
H90_6 C149_6 1_555 1_555
C150_6 C141_6 1_555 1_555
H91_6 C150_6 1_555 1_555
C151_6 O36_6 1_555 1_555
C152_6 C143_6 1_555 1_555
H92_6 C152_6 1_555 1_555
C153_6 C147_6 1_555 1_555
H93_6 C153_6 1_555 1_555
C154_6 C148_6 1_555 1_555
H94_6 C154_6 1_555 1_555
C155_6 C147_6 1_555 1_555
H95_6 C155_6 1_555 1_555
C156_6 C148_6 1_555 1_555
H96_6 C156_6 1_555 1_555
Zn9_6 O20_6 1_555 1_555
O39_6 Zn6_6 1_555 1_555
O43_6 Zn14_4 1_555 1_555
O44_6 Zn14_4 1_555 1_555
O45_6 Zn14_4 1_555 1_555
O46_6 Zn14_4 1_555 1_555
N25_6 Zn7_6 1_555 1_555
N27_6 Zn7_6 1_555 1_555
C80_6 C90_6 1_555 1_555
C82_6 C94_6 1_555 1_555
C83_6 C90_6 1_555 1_555
C86_6 C87_6 1_555 1_555
C91_6 C98_6 1_555 1_555
C97_6 C100_6 1_555 1_555
C129_6 C130_6 1_555 1_555
C131_6 C137_6 1_555 1_555
C131_6 C138_6 1_555 1_555
C132_6 C142_6 1_555 1_555
C134_6 C146_6 1_555 1_555
C135_6 C142_6 1_555 1_555
C136_6 C151_6 1_555 1_555
C138_6 C139_6 1_555 1_555
C143_6 C150_6 1_555 1_555
C149_6 C152_6 1_555 1_555
C153_6 C154_6 1_555 1_555
C155_6 C156_6 1_555 1_555
Zn6_7 O25_7 1_555 1_555
O25_7 C114_7 1_555 1_555
N30_7 N33_7 1_555 1_555
O29_7 C114_7 1_555 1_555
N33_7 N31_7 1_555 1_555
C105_7 N31_7 1_555 1_555
C111_7 N30_7 1_555 1_555
H67_7 C111_7 1_555 1_555
C114_7 C122_7 1_555 1_555
C119_7 N30_7 1_555 1_555
H70_7 C119_7 1_555 1_555
H71_7 C119_7 1_555 1_555
C121_7 C119_7 1_555 1_555
C122_7 C128_7 1_555 1_555
C127_7 C121_7 1_555 1_555
H77_7 C127_7 1_555 1_555
C128_7 C127_7 1_555 1_555
H78_7 C128_7 1_555 1_555
C129_7 C121_7 1_555 1_555
H79_7 C129_7 1_555 1_555
C130_7 C122_7 1_555 1_555
H80_7 C130_7 1_555 1_555
O32_7 C144_7 1_555 1_555
O33_7 C144_7 1_555 1_555
N36_7 N42_7 1_555 1_555
N37_7 N40_7 1_555 1_555
O34_7 C151_7 1_555 1_555
N38_7 Zn6_7 1_555 1_555
N39_7 Zn6_7 1_555 1_555
N40_7 N38_7 1_555 1_555
N41_7 Zn6_7 1_555 1_555
N42_7 N41_7 1_555 1_555
O36_7 Zn14 1_555 1_555
C131_7 N38_7 1_555 1_555
C132_7 N39_7 1_555 1_555
C133_7 C132_7 1_555 1_555
H81_7 C133_7 1_555 1_555
C134_7 C141_7 1_555 1_555
C135_7 N36_7 1_555 1_555
H82_7 C135_7 1_555 1_555
C136_7 C133_7 1_555 1_555
C137_7 N37_7 1_555 1_555
C138_7 N39_7 1_555 1_555
C139_7 C136_7 1_555 1_555
H84_7 C139_7 1_555 1_555
C141_7 H85_7 1_555 1_555
C142_7 N41_7 1_555 1_555
C143_7 C144_7 1_555 1_555
C146_7 N36_7 1_555 1_555
H88_7 C146_7 1_555 1_555
H89_7 C146_7 1_555 1_555
C149_7 C134_7 1_555 1_555
H90_7 C149_7 1_555 1_555
C150_7 C141_7 1_555 1_555
H91_7 C150_7 1_555 1_555
C151_7 O36_7 1_555 1_555
C152_7 C143_7 1_555 1_555
H92_7 C152_7 1_555 1_555
Zn11_7 O32_7 1_555 1_555
O39_7 Zn6_7 1_555 1_555
O44_7 Zn14 1_555 1_555
O45_7 Zn14 1_555 1_555
C105_7 C111_7 1_555 1_555
C129_7 C130_7 1_555 1_555
C131_7 C137_7 1_555 1_555
C131_7 C138_7 1_555 1_555
C132_7 C142_7 1_555 1_555
C134_7 C146_7 1_555 1_555
C135_7 C142_7 1_555 1_555
C136_7 C151_7 1_555 1_555
C138_7 C139_7 1_555 1_555
C143_7 C150_7 1_555 1_555
C149_7 C152_7 1_555 1_555
Zn5_7 O19_7 1_555 1_555
O19_7 C88_7 1_555 1_555
O20_7 C92_7 1_555 1_555
O21_7 C92_7 1_555 1_555
N22_7 N28_7 1_555 1_555
N23_7 N26_7 1_555 1_555
O22_7 C99_7 1_555 1_555
N24_7 N26_7 1_555 1_555
O23_7 C88_7 1_555 1_555
N25_7 C80_7 1_555 1_555
N27_7 N28_7 1_555 1_555
O43 C99_7 1_555 1_555
C79_7 N24_7 1_555 1_555
C80_7 C81_7 1_555 1_555
C81_7 H49_7 1_555 1_555
C82_7 C89_7 1_555 1_555
C83_7 N22_7 1_555 1_555
H50_7 C83_7 1_555 1_555
C84_7 C81_7 1_555 1_555
C85_7 N23_7 1_555 1_555
H51_7 C85_7 1_555 1_555
C86_7 N25_7 1_555 1_555
C87_7 C84_7 1_555 1_555
H52_7 C87_7 1_555 1_555
C88_7 C96_7 1_555 1_555
C89_7 H53_7 1_555 1_555
C90_7 N27_7 1_555 1_555
C91_7 C92_7 1_555 1_555
C93_7 N23_7 1_555 1_555
H54_7 C93_7 1_555 1_555
H55_7 C93_7 1_555 1_555
C94_7 N22_7 1_555 1_555
H56_7 C94_7 1_555 1_555
H57_7 C94_7 1_555 1_555
C95_7 C93_7 1_555 1_555
C96_7 C102_7 1_555 1_555
C97_7 C82_7 1_555 1_555
H58_7 C97_7 1_555 1_555
C98_7 C89_7 1_555 1_555
H59_7 C98_7 1_555 1_555
C99_7 C84_7 1_555 1_555
C100_7 C91_7 1_555 1_555
H60_7 C100_7 1_555 1_555
C101_7 C95_7 1_555 1_555
H61_7 C101_7 1_555 1_555
C102_7 C101_7 1_555 1_555
H62_7 C102_7 1_555 1_555
C103_7 C95_7 1_555 1_555
H63_7 C103_7 1_555 1_555
C104_7 C96_7 1_555 1_555
H64_7 C104_7 1_555 1_555
O26_7 C118_7 1_555 1_555
O27_7 C118_7 1_555 1_555
N29_7 N35_7 1_555 1_555
O28_7 C125_7 1_555 1_555
N32_7 Zn5_7 1_555 1_555
N34_7 Zn5_7 1_555 1_555
N35_7 N34_7 1_555 1_555
O30_7 C125_7 1_555 1_555
C106_7 N32_7 1_555 1_555
C107_7 C106_7 1_555 1_555
H65_7 C107_7 1_555 1_555
C108_7 C115_7 1_555 1_555
C109_7 N29_7 1_555 1_555
H66_7 C109_7 1_555 1_555
C110_7 C107_7 1_555 1_555
C112_7 N32_7 1_555 1_555
C113_7 C110_7 1_555 1_555
H68_7 C113_7 1_555 1_555
C115_7 H69_7 1_555 1_555
C116_7 N34_7 1_555 1_555
C117_7 C118_7 1_555 1_555
C120_7 N29_7 1_555 1_555
H72_7 C120_7 1_555 1_555
H73_7 C120_7 1_555 1_555
C123_7 C108_7 1_555 1_555
H74_7 C123_7 1_555 1_555
C124_7 C115_7 1_555 1_555
H75_7 C124_7 1_555 1_555
C125_7 C110_7 1_555 1_555
C126_7 C117_7 1_555 1_555
H76_7 C126_7 1_555 1_555
Zn7_7 N24_7 1_555 1_555
O31_7 Zn7_7 1_555 1_555
O35_7 C140_7 1_555 1_555
C140_7 O31_7 1_555 1_555
H87_7 C145_7 1_555 1_555
C147_7 C145_7 1_555 1_555
C148_7 C140_7 1_555 1_555
C153_7 C147_7 1_555 1_555
H93_7 C153_7 1_555 1_555
C154_7 C148_7 1_555 1_555
H94_7 C154_7 1_555 1_555
C155_7 C147_7 1_555 1_555
H95_7 C155_7 1_555 1_555
C156_7 C148_7 1_555 1_555
H96_7 C156_7 1_555 1_555
Zn12_7 O26_7 1_555 1_555
Zn16_2 O30_7 1_555 1_555
O38_7 Zn7_7 1_555 1_555
O43_7 Zn14_2 1_555 1_555
O46_7 Zn14_2 1_555 1_555
N25_7 Zn7_7 1_555 1_555
N27_7 Zn7_7 1_555 1_555
C79_7 C85_7 1_555 1_555
C79_7 C86_7 1_555 1_555
C80_7 C90_7 1_555 1_555
C82_7 C94_7 1_555 1_555
C83_7 C90_7 1_555 1_555
C86_7 C87_7 1_555 1_555
C91_7 C98_7 1_555 1_555
C97_7 C100_7 1_555 1_555
C103_7 C104_7 1_555 1_555
C106_7 C116_7 1_555 1_555
C108_7 C120_7 1_555 1_555
C109_7 C116_7 1_555 1_555
C112_7 C113_7 1_555 1_555
C117_7 C124_7 1_555 1_555
C123_7 C126_7 1_555 1_555
C153_7 C154_7 1_555 1_555
C155_7 C156_7 1_555 1_555
N30_8 N33_8 1_555 1_555
N33_8 N31_8 1_555 1_555
C105_8 N31_8 1_555 1_555
C111_8 N30_8 1_555 1_555
C105_8 C111_8 1_555 1_555
Zn6_8 O25_8 1_555 1_555
O25_8 C114_8 1_555 1_555
O29_8 C114_8 1_555 1_555
C114_8 C122_8 1_555 1_555
H71_8 C119_8 1_555 1_555
C121_8 C119_8 1_555 1_555
C122_8 C128_8 1_555 1_555
C127_8 C121_8 1_555 1_555
H77_8 C127_8 1_555 1_555
C128_8 C127_8 1_555 1_555
H78_8 C128_8 1_555 1_555
C129_8 C121_8 1_555 1_555
H79_8 C129_8 1_555 1_555
C130_8 C122_8 1_555 1_555
H80_8 C130_8 1_555 1_555
O32_8 C144_8 1_555 1_555
O33_8 C144_8 1_555 1_555
N36_8 N42_8 1_555 1_555
N37_8 N40_8 1_555 1_555
O34_8 C151_8 1_555 1_555
N38_8 Zn6_8 1_555 1_555
N39_8 Zn6_8 1_555 1_555
N40_8 N38_8 1_555 1_555
N41_8 Zn6_8 1_555 1_555
N42_8 N41_8 1_555 1_555
O36_8 Zn14_5 1_555 1_555
C131_8 N38_8 1_555 1_555
C132_8 N39_8 1_555 1_555
C133_8 C132_8 1_555 1_555
H81_8 C133_8 1_555 1_555
C134_8 C141_8 1_555 1_555
C135_8 N36_8 1_555 1_555
H82_8 C135_8 1_555 1_555
C136_8 C133_8 1_555 1_555
C137_8 N37_8 1_555 1_555
C138_8 N39_8 1_555 1_555
C139_8 C136_8 1_555 1_555
H84_8 C139_8 1_555 1_555
C141_8 H85_8 1_555 1_555
C142_8 N41_8 1_555 1_555
C143_8 C144_8 1_555 1_555
C146_8 N36_8 1_555 1_555
H88_8 C146_8 1_555 1_555
H89_8 C146_8 1_555 1_555
C149_8 C134_8 1_555 1_555
H90_8 C149_8 1_555 1_555
C150_8 C141_8 1_555 1_555
H91_8 C150_8 1_555 1_555
C151_8 O36_8 1_555 1_555
C152_8 C143_8 1_555 1_555
H92_8 C152_8 1_555 1_555
O39_8 Zn6_8 1_555 1_555
O44_8 Zn14_5 1_555 1_555
O45_8 Zn14_5 1_555 1_555
C129_8 C130_8 1_555 1_555
C131_8 C137_8 1_555 1_555
C131_8 C138_8 1_555 1_555
C132_8 C142_8 1_555 1_555
C134_8 C146_8 1_555 1_555
C135_8 C142_8 1_555 1_555
C136_8 C151_8 1_555 1_555
C138_8 C139_8 1_555 1_555
C143_8 C150_8 1_555 1_555
C149_8 C152_8 1_555 1_555
Zn5_8 O19_8 1_555 1_555
O19_8 C88_8 1_555 1_555
N23_8 N26_8 1_555 1_555
N24_8 N26_8 1_555 1_555
O23_8 C88_8 1_555 1_555
C79_8 N24_8 1_555 1_555
C85_8 N23_8 1_555 1_555
H51_8 C85_8 1_555 1_555
C88_8 C96_8 1_555 1_555
C93_8 N23_8 1_555 1_555
H54_8 C93_8 1_555 1_555
H55_8 C93_8 1_555 1_555
C95_8 C93_8 1_555 1_555
C96_8 C102_8 1_555 1_555
C101_8 C95_8 1_555 1_555
H61_8 C101_8 1_555 1_555
C102_8 C101_8 1_555 1_555
H62_8 C102_8 1_555 1_555
C103_8 C95_8 1_555 1_555
H63_8 C103_8 1_555 1_555
C104_8 C96_8 1_555 1_555
H64_8 C104_8 1_555 1_555
O26_8 C118_8 1_555 1_555
O27_8 C118_8 1_555 1_555
N29_8 N35_8 1_555 1_555
O28_8 C125_8 1_555 1_555
N32_8 Zn5_8 1_555 1_555
N34_8 Zn5_8 1_555 1_555
N35_8 N34_8 1_555 1_555
O30_8 C125_8 1_555 1_555
C106_8 N32_8 1_555 1_555
C107_8 C106_8 1_555 1_555
H65_8 C107_8 1_555 1_555
C108_8 C115_8 1_555 1_555
C109_8 N29_8 1_555 1_555
H66_8 C109_8 1_555 1_555
C110_8 C107_8 1_555 1_555
C112_8 N32_8 1_555 1_555
C113_8 C110_8 1_555 1_555
H68_8 C113_8 1_555 1_555
C115_8 H69_8 1_555 1_555
C116_8 N34_8 1_555 1_555
C117_8 C118_8 1_555 1_555
C120_8 N29_8 1_555 1_555
H72_8 C120_8 1_555 1_555
H73_8 C120_8 1_555 1_555
C123_8 C108_8 1_555 1_555
H74_8 C123_8 1_555 1_555
C124_8 C115_8 1_555 1_555
H75_8 C124_8 1_555 1_555
C125_8 C110_8 1_555 1_555
C126_8 C117_8 1_555 1_555
H76_8 C126_8 1_555 1_555
Zn12_8 O26_8 1_555 1_555
Zn16_13 O30_8 1_555 1_555
C79_8 C85_8 1_555 1_555
C103_8 C104_8 1_555 1_555
C106_8 C116_8 1_555 1_555
C108_8 C120_8 1_555 1_555
C109_8 C116_8 1_555 1_555
C112_8 C113_8 1_555 1_555
C117_8 C124_8 1_555 1_555
C123_8 C126_8 1_555 1_555
O20_8 C92_8 1_555 1_555
O21_8 C92_8 1_555 1_555
N22_8 N28_8 1_555 1_555
O22_8 C99_8 1_555 1_555
N25_8 C80_8 1_555 1_555
N27_8 N28_8 1_555 1_555
O43_4 C99_8 1_555 1_555
C80_8 C81_8 1_555 1_555
C81_8 H49_8 1_555 1_555
C82_8 C89_8 1_555 1_555
C83_8 N22_8 1_555 1_555
H50_8 C83_8 1_555 1_555
C84_8 C81_8 1_555 1_555
C86_8 N25_8 1_555 1_555
C87_8 C84_8 1_555 1_555
H52_8 C87_8 1_555 1_555
C89_8 H53_8 1_555 1_555
C90_8 N27_8 1_555 1_555
C91_8 C92_8 1_555 1_555
C94_8 N22_8 1_555 1_555
H56_8 C94_8 1_555 1_555
H57_8 C94_8 1_555 1_555
C97_8 C82_8 1_555 1_555
H58_8 C97_8 1_555 1_555
C98_8 C89_8 1_555 1_555
H59_8 C98_8 1_555 1_555
C99_8 C84_8 1_555 1_555
C100_8 C91_8 1_555 1_555
H60_8 C100_8 1_555 1_555
O31_8 Zn7_8 1_555 1_555
O35_8 C140_8 1_555 1_555
C140_8 O31_8 1_555 1_555
H87_8 C145_8 1_555 1_555
C147_8 C145_8 1_555 1_555
C148_8 C140_8 1_555 1_555
C153_8 C147_8 1_555 1_555
H93_8 C153_8 1_555 1_555
C154_8 C148_8 1_555 1_555
H94_8 C154_8 1_555 1_555
C155_8 C147_8 1_555 1_555
H95_8 C155_8 1_555 1_555
C156_8 C148_8 1_555 1_555
H96_8 C156_8 1_555 1_555
O43_8 Zn14_6 1_555 1_555
O46_8 Zn14_6 1_555 1_555
N25_8 Zn7_8 1_555 1_555
N27_8 Zn7_8 1_555 1_555
C80_8 C90_8 1_555 1_555
C82_8 C94_8 1_555 1_555
C83_8 C90_8 1_555 1_555
C86_8 C87_8 1_555 1_555
C91_8 C98_8 1_555 1_555
C97_8 C100_8 1_555 1_555
C153_8 C154_8 1_555 1_555
C155_8 C156_8 1_555 1_555
Zn5_9 O19_9 1_555 1_555
O19_9 C88_9 1_555 1_555
O20_9 C92_9 1_555 1_555
O21_9 C92_9 1_555 1_555
N22_9 N28_9 1_555 1_555
N23_9 N26_9 1_555 1_555
O22_9 C99_9 1_555 1_555
N24_9 N26_9 1_555 1_555
O23_9 C88_9 1_555 1_555
N25_9 C80_9 1_555 1_555
N27_9 N28_9 1_555 1_555
O43_6 C99_9 1_555 1_555
C79_9 N24_9 1_555 1_555
C80_9 C81_9 1_555 1_555
C81_9 H49_9 1_555 1_555
C82_9 C89_9 1_555 1_555
C83_9 N22_9 1_555 1_555
H50_9 C83_9 1_555 1_555
C84_9 C81_9 1_555 1_555
C85_9 N23_9 1_555 1_555
H51_9 C85_9 1_555 1_555
C86_9 N25_9 1_555 1_555
C87_9 C84_9 1_555 1_555
H52_9 C87_9 1_555 1_555
C88_9 C96_9 1_555 1_555
C89_9 H53_9 1_555 1_555
C90_9 N27_9 1_555 1_555
C91_9 C92_9 1_555 1_555
C93_9 N23_9 1_555 1_555
H54_9 C93_9 1_555 1_555
H55_9 C93_9 1_555 1_555
C94_9 N22_9 1_555 1_555
H56_9 C94_9 1_555 1_555
H57_9 C94_9 1_555 1_555
C95_9 C93_9 1_555 1_555
C96_9 C102_9 1_555 1_555
C97_9 C82_9 1_555 1_555
H58_9 C97_9 1_555 1_555
C98_9 C89_9 1_555 1_555
H59_9 C98_9 1_555 1_555
C99_9 C84_9 1_555 1_555
C100_9 C91_9 1_555 1_555
H60_9 C100_9 1_555 1_555
C101_9 C95_9 1_555 1_555
H61_9 C101_9 1_555 1_555
C102_9 C101_9 1_555 1_555
H62_9 C102_9 1_555 1_555
C103_9 C95_9 1_555 1_555
H63_9 C103_9 1_555 1_555
C104_9 C96_9 1_555 1_555
H64_9 C104_9 1_555 1_555
Zn6_9 O25_9 1_555 1_555
O25_9 C114_9 1_555 1_555
O26_9 C118_9 1_555 1_555
O27_9 C118_9 1_555 1_555
N29_9 N35_9 1_555 1_555
N30_9 N33_9 1_555 1_555
O28_9 C125_9 1_555 1_555
N31_9 Zn5_9 1_555 1_555
O29_9 C114_9 1_555 1_555
N32_9 Zn5_9 1_555 1_555
N33_9 N31_9 1_555 1_555
N34_9 Zn5_9 1_555 1_555
N35_9 N34_9 1_555 1_555
O30_9 C125_9 1_555 1_555
C105_9 N31_9 1_555 1_555
C106_9 N32_9 1_555 1_555
C107_9 C106_9 1_555 1_555
H65_9 C107_9 1_555 1_555
C108_9 C115_9 1_555 1_555
C109_9 N29_9 1_555 1_555
H66_9 C109_9 1_555 1_555
C110_9 C107_9 1_555 1_555
C111_9 N30_9 1_555 1_555
H67_9 C111_9 1_555 1_555
C112_9 N32_9 1_555 1_555
C113_9 C110_9 1_555 1_555
H68_9 C113_9 1_555 1_555
C114_9 C122_9 1_555 1_555
C115_9 H69_9 1_555 1_555
C116_9 N34_9 1_555 1_555
C117_9 C118_9 1_555 1_555
C119_9 N30_9 1_555 1_555
H70_9 C119_9 1_555 1_555
H71_9 C119_9 1_555 1_555
C120_9 N29_9 1_555 1_555
H72_9 C120_9 1_555 1_555
H73_9 C120_9 1_555 1_555
C121_9 C119_9 1_555 1_555
C122_9 C128_9 1_555 1_555
C123_9 C108_9 1_555 1_555
H74_9 C123_9 1_555 1_555
C124_9 C115_9 1_555 1_555
H75_9 C124_9 1_555 1_555
C125_9 C110_9 1_555 1_555
C126_9 C117_9 1_555 1_555
H76_9 C126_9 1_555 1_555
C127_9 C121_9 1_555 1_555
H77_9 C127_9 1_555 1_555
C128_9 C127_9 1_555 1_555
H78_9 C128_9 1_555 1_555
C129_9 C121_9 1_555 1_555
H79_9 C129_9 1_555 1_555
C130_9 C122_9 1_555 1_555
H80_9 C130_9 1_555 1_555
Zn7_9 N24_9 1_555 1_555
O31_9 Zn7_9 1_555 1_555
O32_9 C144_9 1_555 1_555
O33_9 C144_9 1_555 1_555
N36_9 N42_9 1_555 1_555
N37_9 N40_9 1_555 1_555
O34_9 C151_9 1_555 1_555
N38_9 Zn6_9 1_555 1_555
O35_9 C140_9 1_555 1_555
N39_9 Zn6_9 1_555 1_555
N40_9 N38_9 1_555 1_555
N41_9 Zn6_9 1_555 1_555
N42_9 N41_9 1_555 1_555
O36_9 Zn15_4 1_555 1_555
C131_9 N38_9 1_555 1_555
C132_9 N39_9 1_555 1_555
C133_9 C132_9 1_555 1_555
H81_9 C133_9 1_555 1_555
C134_9 C141_9 1_555 1_555
C135_9 N36_9 1_555 1_555
H82_9 C135_9 1_555 1_555
C136_9 C133_9 1_555 1_555
C137_9 N37_9 1_555 1_555
H83_9 C137_9 1_555 1_555
C138_9 N39_9 1_555 1_555
C139_9 C136_9 1_555 1_555
H84_9 C139_9 1_555 1_555
C140_9 O31_9 1_555 1_555
C141_9 H85_9 1_555 1_555
C142_9 N41_9 1_555 1_555
C143_9 C144_9 1_555 1_555
C145_9 N37_9 1_555 1_555
H86_9 C145_9 1_555 1_555
H87_9 C145_9 1_555 1_555
C146_9 N36_9 1_555 1_555
H88_9 C146_9 1_555 1_555
H89_9 C146_9 1_555 1_555
C147_9 C145_9 1_555 1_555
C148_9 C140_9 1_555 1_555
C149_9 C134_9 1_555 1_555
H90_9 C149_9 1_555 1_555
C150_9 C141_9 1_555 1_555
H91_9 C150_9 1_555 1_555
C151_9 O36_9 1_555 1_555
C152_9 C143_9 1_555 1_555
H92_9 C152_9 1_555 1_555
C153_9 C147_9 1_555 1_555
H93_9 C153_9 1_555 1_555
C154_9 C148_9 1_555 1_555
H94_9 C154_9 1_555 1_555
C155_9 C147_9 1_555 1_555
H95_9 C155_9 1_555 1_555
C156_9 C148_9 1_555 1_555
H96_9 C156_9 1_555 1_555
Zn9_9 O20_9 1_555 1_555
Zn11_9 O32_9 1_555 1_555
Zn12_9 O26_9 1_555 1_555
Zn16_6 O30_9 1_555 1_555
O38_9 Zn7_9 1_555 1_555
O39_9 Zn6_9 1_555 1_555
O42_9 Zn5_9 1_555 1_555
O44_9 Zn15_4 1_555 1_555
O45_9 Zn15_4 1_555 1_555
O46_9 Zn15_4 1_555 1_555
N25_9 Zn7_9 1_555 1_555
N27_9 Zn7_9 1_555 1_555
C79_9 C85_9 1_555 1_555
C79_9 C86_9 1_555 1_555
C80_9 C90_9 1_555 1_555
C82_9 C94_9 1_555 1_555
C83_9 C90_9 1_555 1_555
C86_9 C87_9 1_555 1_555
C91_9 C98_9 1_555 1_555
C97_9 C100_9 1_555 1_555
C103_9 C104_9 1_555 1_555
C105_9 C111_9 1_555 1_555
C105_9 C112_9 1_555 1_555
C106_9 C116_9 1_555 1_555
C108_9 C120_9 1_555 1_555
C109_9 C116_9 1_555 1_555
C112_9 C113_9 1_555 1_555
C117_9 C124_9 1_555 1_555
C123_9 C126_9 1_555 1_555
C129_9 C130_9 1_555 1_555
C131_9 C137_9 1_555 1_555
C131_9 C138_9 1_555 1_555
C132_9 C142_9 1_555 1_555
C134_9 C146_9 1_555 1_555
C135_9 C142_9 1_555 1_555
C136_9 C151_9 1_555 1_555
C138_9 C139_9 1_555 1_555
C143_9 C150_9 1_555 1_555
C149_9 C152_9 1_555 1_555
C153_9 C154_9 1_555 1_555
C155_9 C156_9 1_555 1_555
Zn5_10 O19_10 1_555 1_555
O19_10 C88_10 1_555 1_555
N23_10 N26_10 1_555 1_555
N24_10 N26_10 1_555 1_555
O23_10 C88_10 1_555 1_555
C79_10 N24_10 1_555 1_555
C85_10 N23_10 1_555 1_555
H51_10 C85_10 1_555 1_555
C88_10 C96_10 1_555 1_555
C93_10 N23_10 1_555 1_555
H54_10 C93_10 1_555 1_555
H55_10 C93_10 1_555 1_555
C95_10 C93_10 1_555 1_555
C96_10 C102_10 1_555 1_555
C101_10 C95_10 1_555 1_555
H61_10 C101_10 1_555 1_555
C102_10 C101_10 1_555 1_555
H62_10 C102_10 1_555 1_555
C103_10 C95_10 1_555 1_555
H63_10 C103_10 1_555 1_555
C104_10 C96_10 1_555 1_555
H64_10 C104_10 1_555 1_555
O26_10 C118_10 1_555 1_555
O27_10 C118_10 1_555 1_555
N29_10 N35_10 1_555 1_555
N30_10 N33_10 1_555 1_555
O28_10 C125_10 1_555 1_555
N31_10 Zn5_10 1_555 1_555
N32_10 Zn5_10 1_555 1_555
N33_10 N31_10 1_555 1_555
N34_10 Zn5_10 1_555 1_555
N35_10 N34_10 1_555 1_555
O30_10 C125_10 1_555 1_555
C105_10 N31_10 1_555 1_555
C106_10 N32_10 1_555 1_555
C107_10 C106_10 1_555 1_555
H65_10 C107_10 1_555 1_555
C108_10 C115_10 1_555 1_555
C109_10 N29_10 1_555 1_555
H66_10 C109_10 1_555 1_555
C110_10 C107_10 1_555 1_555
C111_10 N30_10 1_555 1_555
C112_10 N32_10 1_555 1_555
C113_10 C110_10 1_555 1_555
H68_10 C113_10 1_555 1_555
C115_10 H69_10 1_555 1_555
C116_10 N34_10 1_555 1_555
C117_10 C118_10 1_555 1_555
C120_10 N29_10 1_555 1_555
H72_10 C120_10 1_555 1_555
H73_10 C120_10 1_555 1_555
C123_10 C108_10 1_555 1_555
H74_10 C123_10 1_555 1_555
C124_10 C115_10 1_555 1_555
H75_10 C124_10 1_555 1_555
C125_10 C110_10 1_555 1_555
C126_10 C117_10 1_555 1_555
H76_10 C126_10 1_555 1_555
Zn12_10 O26_10 1_555 1_555
Zn16 O30_10 1_555 1_555
O42_10 Zn5_10 1_555 1_555
C79_10 C85_10 1_555 1_555
C103_10 C104_10 1_555 1_555
C105_10 C111_10 1_555 1_555
C105_10 C112_10 1_555 1_555
C106_10 C116_10 1_555 1_555
C108_10 C120_10 1_555 1_555
C109_10 C116_10 1_555 1_555
C112_10 C113_10 1_555 1_555
C117_10 C124_10 1_555 1_555
C123_10 C126_10 1_555 1_555
O20_10 C92_10 1_555 1_555
O21_10 C92_10 1_555 1_555
N22_10 N28_10 1_555 1_555
O22_10 C99_10 1_555 1_555
N25_10 C80_10 1_555 1_555
N27_10 N28_10 1_555 1_555
O43_7 C99_10 1_555 1_555
C80_10 C81_10 1_555 1_555
C81_10 H49_10 1_555 1_555
C82_10 C89_10 1_555 1_555
C83_10 N22_10 1_555 1_555
H50_10 C83_10 1_555 1_555
C84_10 C81_10 1_555 1_555
C86_10 N25_10 1_555 1_555
C87_10 C84_10 1_555 1_555
H52_10 C87_10 1_555 1_555
C89_10 H53_10 1_555 1_555
C90_10 N27_10 1_555 1_555
C91_10 C92_10 1_555 1_555
C94_10 N22_10 1_555 1_555
H56_10 C94_10 1_555 1_555
H57_10 C94_10 1_555 1_555
C97_10 C82_10 1_555 1_555
H58_10 C97_10 1_555 1_555
C98_10 C89_10 1_555 1_555
H59_10 C98_10 1_555 1_555
C99_10 C84_10 1_555 1_555
C100_10 C91_10 1_555 1_555
H60_10 C100_10 1_555 1_555
Zn6_10 O25_10 1_555 1_555
O25_10 C114_10 1_555 1_555
O29_10 C114_10 1_555 1_555
C114_10 C122_10 1_555 1_555
H71_10 C119_10 1_555 1_555
C121_10 C119_10 1_555 1_555
C122_10 C128_10 1_555 1_555
C127_10 C121_10 1_555 1_555
H77_10 C127_10 1_555 1_555
C128_10 C127_10 1_555 1_555
H78_10 C128_10 1_555 1_555
C129_10 C121_10 1_555 1_555
H79_10 C129_10 1_555 1_555
C130_10 C122_10 1_555 1_555
H80_10 C130_10 1_555 1_555
O31_10 Zn7_10 1_555 1_555
O32_10 C144_10 1_555 1_555
O33_10 C144_10 1_555 1_555
N36_10 N42_10 1_555 1_555
N37_10 N40_10 1_555 1_555
O34_10 C151_10 1_555 1_555
N38_10 Zn6_10 1_555 1_555
O35_10 C140_10 1_555 1_555
N39_10 Zn6_10 1_555 1_555
N40_10 N38_10 1_555 1_555
N41_10 Zn6_10 1_555 1_555
N42_10 N41_10 1_555 1_555
O36_10 Zn15 1_555 1_555
C131_10 N38_10 1_555 1_555
C132_10 N39_10 1_555 1_555
C133_10 C132_10 1_555 1_555
H81_10 C133_10 1_555 1_555
C134_10 C141_10 1_555 1_555
C135_10 N36_10 1_555 1_555
H82_10 C135_10 1_555 1_555
C136_10 C133_10 1_555 1_555
C137_10 N37_10 1_555 1_555
H83_10 C137_10 1_555 1_555
C138_10 N39_10 1_555 1_555
C139_10 C136_10 1_555 1_555
H84_10 C139_10 1_555 1_555
C140_10 O31_10 1_555 1_555
C141_10 H85_10 1_555 1_555
C142_10 N41_10 1_555 1_555
C143_10 C144_10 1_555 1_555
C145_10 N37_10 1_555 1_555
H86_10 C145_10 1_555 1_555
H87_10 C145_10 1_555 1_555
C146_10 N36_10 1_555 1_555
H88_10 C146_10 1_555 1_555
H89_10 C146_10 1_555 1_555
C147_10 C145_10 1_555 1_555
C148_10 C140_10 1_555 1_555
C149_10 C134_10 1_555 1_555
H90_10 C149_10 1_555 1_555
C150_10 C141_10 1_555 1_555
H91_10 C150_10 1_555 1_555
C151_10 O36_10 1_555 1_555
C152_10 C143_10 1_555 1_555
H92_10 C152_10 1_555 1_555
C153_10 C147_10 1_555 1_555
H93_10 C153_10 1_555 1_555
C154_10 C148_10 1_555 1_555
H94_10 C154_10 1_555 1_555
C155_10 C147_10 1_555 1_555
H95_10 C155_10 1_555 1_555
C156_10 C148_10 1_555 1_555
H96_10 C156_10 1_555 1_555
Zn9_10 O20_10 1_555 1_555
O39_10 Zn6_10 1_555 1_555
O44_10 Zn15 1_555 1_555
O45_10 Zn15 1_555 1_555
O46_10 Zn15 1_555 1_555
N25_10 Zn7_10 1_555 1_555
N27_10 Zn7_10 1_555 1_555
C80_10 C90_10 1_555 1_555
C82_10 C94_10 1_555 1_555
C83_10 C90_10 1_555 1_555
C86_10 C87_10 1_555 1_555
C91_10 C98_10 1_555 1_555
C97_10 C100_10 1_555 1_555
C129_10 C130_10 1_555 1_555
C131_10 C137_10 1_555 1_555
C131_10 C138_10 1_555 1_555
C132_10 C142_10 1_555 1_555
C134_10 C146_10 1_555 1_555
C135_10 C142_10 1_555 1_555
C136_10 C151_10 1_555 1_555
C138_10 C139_10 1_555 1_555
C143_10 C150_10 1_555 1_555
C149_10 C152_10 1_555 1_555
C153_10 C154_10 1_555 1_555
C155_10 C156_10 1_555 1_555
Zn6_11 O25_11 1_555 1_555
O25_11 C114_11 1_555 1_555
N30_11 N33_11 1_555 1_555
O29_11 C114_11 1_555 1_555
N33_11 N31_11 1_555 1_555
C105_11 N31_11 1_555 1_555
C111_11 N30_11 1_555 1_555
H67_11 C111_11 1_555 1_555
C114_11 C122_11 1_555 1_555
C119_11 N30_11 1_555 1_555
H70_11 C119_11 1_555 1_555
H71_11 C119_11 1_555 1_555
C121_11 C119_11 1_555 1_555
C122_11 C128_11 1_555 1_555
C127_11 C121_11 1_555 1_555
H77_11 C127_11 1_555 1_555
C128_11 C127_11 1_555 1_555
H78_11 C128_11 1_555 1_555
C129_11 C121_11 1_555 1_555
H79_11 C129_11 1_555 1_555
C130_11 C122_11 1_555 1_555
H80_11 C130_11 1_555 1_555
O32_11 C144_11 1_555 1_555
O33_11 C144_11 1_555 1_555
N36_11 N42_11 1_555 1_555
N37_11 N40_11 1_555 1_555
O34_11 C151_11 1_555 1_555
N38_11 Zn6_11 1_555 1_555
N39_11 Zn6_11 1_555 1_555
N40_11 N38_11 1_555 1_555
N41_11 Zn6_11 1_555 1_555
N42_11 N41_11 1_555 1_555
O36_11 Zn15_2 1_555 1_555
C131_11 N38_11 1_555 1_555
C132_11 N39_11 1_555 1_555
C133_11 C132_11 1_555 1_555
H81_11 C133_11 1_555 1_555
C134_11 C141_11 1_555 1_555
C135_11 N36_11 1_555 1_555
H82_11 C135_11 1_555 1_555
C136_11 C133_11 1_555 1_555
C137_11 N37_11 1_555 1_555
C138_11 N39_11 1_555 1_555
C139_11 C136_11 1_555 1_555
H84_11 C139_11 1_555 1_555
C141_11 H85_11 1_555 1_555
C142_11 N41_11 1_555 1_555
C143_11 C144_11 1_555 1_555
C146_11 N36_11 1_555 1_555
H88_11 C146_11 1_555 1_555
H89_11 C146_11 1_555 1_555
C149_11 C134_11 1_555 1_555
H90_11 C149_11 1_555 1_555
C150_11 C141_11 1_555 1_555
H91_11 C150_11 1_555 1_555
C151_11 O36_11 1_555 1_555
C152_11 C143_11 1_555 1_555
H92_11 C152_11 1_555 1_555
Zn11_11 O32_11 1_555 1_555
O39_11 Zn6_11 1_555 1_555
O44_11 Zn15_2 1_555 1_555
O45_11 Zn15_2 1_555 1_555
C105_11 C111_11 1_555 1_555
C129_11 C130_11 1_555 1_555
C131_11 C137_11 1_555 1_555
C131_11 C138_11 1_555 1_555
C132_11 C142_11 1_555 1_555
C134_11 C146_11 1_555 1_555
C135_11 C142_11 1_555 1_555
C136_11 C151_11 1_555 1_555
C138_11 C139_11 1_555 1_555
C143_11 C150_11 1_555 1_555
C149_11 C152_11 1_555 1_555
Zn5_11 O19_11 1_555 1_555
O19_11 C88_11 1_555 1_555
O20_11 C92_11 1_555 1_555
O21_11 C92_11 1_555 1_555
N22_11 N28_11 1_555 1_555
N23_11 N26_11 1_555 1_555
O22_11 C99_11 1_555 1_555
N24_11 N26_11 1_555 1_555
O23_11 C88_11 1_555 1_555
N25_11 C80_11 1_555 1_555
N27_11 N28_11 1_555 1_555
O43_5 C99_11 1_555 1_555
C79_11 N24_11 1_555 1_555
C80_11 C81_11 1_555 1_555
C81_11 H49_11 1_555 1_555
C82_11 C89_11 1_555 1_555
C83_11 N22_11 1_555 1_555
H50_11 C83_11 1_555 1_555
C84_11 C81_11 1_555 1_555
C85_11 N23_11 1_555 1_555
H51_11 C85_11 1_555 1_555
C86_11 N25_11 1_555 1_555
C87_11 C84_11 1_555 1_555
H52_11 C87_11 1_555 1_555
C88_11 C96_11 1_555 1_555
C89_11 H53_11 1_555 1_555
C90_11 N27_11 1_555 1_555
C91_11 C92_11 1_555 1_555
C93_11 N23_11 1_555 1_555
H54_11 C93_11 1_555 1_555
H55_11 C93_11 1_555 1_555
C94_11 N22_11 1_555 1_555
H56_11 C94_11 1_555 1_555
H57_11 C94_11 1_555 1_555
C95_11 C93_11 1_555 1_555
C96_11 C102_11 1_555 1_555
C97_11 C82_11 1_555 1_555
H58_11 C97_11 1_555 1_555
C98_11 C89_11 1_555 1_555
H59_11 C98_11 1_555 1_555
C99_11 C84_11 1_555 1_555
C100_11 C91_11 1_555 1_555
H60_11 C100_11 1_555 1_555
C101_11 C95_11 1_555 1_555
H61_11 C101_11 1_555 1_555
C102_11 C101_11 1_555 1_555
H62_11 C102_11 1_555 1_555
C103_11 C95_11 1_555 1_555
H63_11 C103_11 1_555 1_555
C104_11 C96_11 1_555 1_555
H64_11 C104_11 1_555 1_555
O26_11 C118_11 1_555 1_555
O27_11 C118_11 1_555 1_555
N29_11 N35_11 1_555 1_555
O28_11 C125_11 1_555 1_555
N32_11 Zn5_11 1_555 1_555
N34_11 Zn5_11 1_555 1_555
N35_11 N34_11 1_555 1_555
O30_11 C125_11 1_555 1_555
C106_11 N32_11 1_555 1_555
C107_11 C106_11 1_555 1_555
H65_11 C107_11 1_555 1_555
C108_11 C115_11 1_555 1_555
C109_11 N29_11 1_555 1_555
H66_11 C109_11 1_555 1_555
C110_11 C107_11 1_555 1_555
C112_11 N32_11 1_555 1_555
C113_11 C110_11 1_555 1_555
H68_11 C113_11 1_555 1_555
C115_11 H69_11 1_555 1_555
C116_11 N34_11 1_555 1_555
C117_11 C118_11 1_555 1_555
C120_11 N29_11 1_555 1_555
H72_11 C120_11 1_555 1_555
H73_11 C120_11 1_555 1_555
C123_11 C108_11 1_555 1_555
H74_11 C123_11 1_555 1_555
C124_11 C115_11 1_555 1_555
H75_11 C124_11 1_555 1_555
C125_11 C110_11 1_555 1_555
C126_11 C117_11 1_555 1_555
H76_11 C126_11 1_555 1_555
Zn7_11 N24_11 1_555 1_555
O31_11 Zn7_11 1_555 1_555
O35_11 C140_11 1_555 1_555
C140_11 O31_11 1_555 1_555
H87_11 C145_11 1_555 1_555
C147_11 C145_11 1_555 1_555
C148_11 C140_11 1_555 1_555
C153_11 C147_11 1_555 1_555
H93_11 C153_11 1_555 1_555
C154_11 C148_11 1_555 1_555
H94_11 C154_11 1_555 1_555
C155_11 C147_11 1_555 1_555
H95_11 C155_11 1_555 1_555
C156_11 C148_11 1_555 1_555
H96_11 C156_11 1_555 1_555
Zn12_11 O26_11 1_555 1_555
Zn16_4 O30_11 1_555 1_555
O38_11 Zn7_11 1_555 1_555
O46_11 Zn15_3 1_555 1_555
N25_11 Zn7_11 1_555 1_555
N27_11 Zn7_11 1_555 1_555
C79_11 C85_11 1_555 1_555
C79_11 C86_11 1_555 1_555
C80_11 C90_11 1_555 1_555
C82_11 C94_11 1_555 1_555
C83_11 C90_11 1_555 1_555
C86_11 C87_11 1_555 1_555
C91_11 C98_11 1_555 1_555
C97_11 C100_11 1_555 1_555
C103_11 C104_11 1_555 1_555
C106_11 C116_11 1_555 1_555
C108_11 C120_11 1_555 1_555
C109_11 C116_11 1_555 1_555
C112_11 C113_11 1_555 1_555
C117_11 C124_11 1_555 1_555
C123_11 C126_11 1_555 1_555
C153_11 C154_11 1_555 1_555
C155_11 C156_11 1_555 1_555
N30_12 N33_12 1_555 1_555
N33_12 N31_12 1_555 1_555
C105_12 N31_12 1_555 1_555
C111_12 N30_12 1_555 1_555
C105_12 C111_12 1_555 1_555
Zn5_12 O19_12 1_555 1_555
O19_12 C88_12 1_555 1_555
N23_12 N26_12 1_555 1_555
N24_12 N26_12 1_555 1_555
O23_12 C88_12 1_555 1_555
C79_12 N24_12 1_555 1_555
C85_12 N23_12 1_555 1_555
H51_12 C85_12 1_555 1_555
C88_12 C96_12 1_555 1_555
C93_12 N23_12 1_555 1_555
H54_12 C93_12 1_555 1_555
H55_12 C93_12 1_555 1_555
C95_12 C93_12 1_555 1_555
C96_12 C102_12 1_555 1_555
C101_12 C95_12 1_555 1_555
H61_12 C101_12 1_555 1_555
C102_12 C101_12 1_555 1_555
H62_12 C102_12 1_555 1_555
C103_12 C95_12 1_555 1_555
H63_12 C103_12 1_555 1_555
C104_12 C96_12 1_555 1_555
H64_12 C104_12 1_555 1_555
O26_12 C118_12 1_555 1_555
O27_12 C118_12 1_555 1_555
N29_12 N35_12 1_555 1_555
O28_12 C125_12 1_555 1_555
N32_12 Zn5_12 1_555 1_555
N34_12 Zn5_12 1_555 1_555
N35_12 N34_12 1_555 1_555
O30_12 C125_12 1_555 1_555
C106_12 N32_12 1_555 1_555
C107_12 C106_12 1_555 1_555
H65_12 C107_12 1_555 1_555
C108_12 C115_12 1_555 1_555
C109_12 N29_12 1_555 1_555
H66_12 C109_12 1_555 1_555
C110_12 C107_12 1_555 1_555
C112_12 N32_12 1_555 1_555
C113_12 C110_12 1_555 1_555
H68_12 C113_12 1_555 1_555
C115_12 H69_12 1_555 1_555
C116_12 N34_12 1_555 1_555
C117_12 C118_12 1_555 1_555
C120_12 N29_12 1_555 1_555
H72_12 C120_12 1_555 1_555
H73_12 C120_12 1_555 1_555
C123_12 C108_12 1_555 1_555
H74_12 C123_12 1_555 1_555
C124_12 C115_12 1_555 1_555
H75_12 C124_12 1_555 1_555
C125_12 C110_12 1_555 1_555
C126_12 C117_12 1_555 1_555
H76_12 C126_12 1_555 1_555
Zn12_12 O26_12 1_555 1_555
Zn16_10 O30_12 1_555 1_555
C79_12 C85_12 1_555 1_555
C103_12 C104_12 1_555 1_555
C106_12 C116_12 1_555 1_555
C108_12 C120_12 1_555 1_555
C109_12 C116_12 1_555 1_555
C112_12 C113_12 1_555 1_555
C117_12 C124_12 1_555 1_555
C123_12 C126_12 1_555 1_555
Zn6_12 O25_12 1_555 1_555
O25_12 C114_12 1_555 1_555
O29_12 C114_12 1_555 1_555
C114_12 C122_12 1_555 1_555
H71_12 C119_12 1_555 1_555
C121_12 C119_12 1_555 1_555
C122_12 C128_12 1_555 1_555
C127_12 C121_12 1_555 1_555
H77_12 C127_12 1_555 1_555
C128_12 C127_12 1_555 1_555
H78_12 C128_12 1_555 1_555
C129_12 C121_12 1_555 1_555
H79_12 C129_12 1_555 1_555
C130_12 C122_12 1_555 1_555
H80_12 C130_12 1_555 1_555
O32_12 C144_12 1_555 1_555
O33_12 C144_12 1_555 1_555
N36_12 N42_12 1_555 1_555
N37_12 N40_12 1_555 1_555
O34_12 C151_12 1_555 1_555
N38_12 Zn6_12 1_555 1_555
N39_12 Zn6_12 1_555 1_555
N40_12 N38_12 1_555 1_555
N41_12 Zn6_12 1_555 1_555
N42_12 N41_12 1_555 1_555
O36_12 Zn15_5 1_555 1_555
C131_12 N38_12 1_555 1_555
C132_12 N39_12 1_555 1_555
C133_12 C132_12 1_555 1_555
H81_12 C133_12 1_555 1_555
C134_12 C141_12 1_555 1_555
C135_12 N36_12 1_555 1_555
H82_12 C135_12 1_555 1_555
C136_12 C133_12 1_555 1_555
C137_12 N37_12 1_555 1_555
C138_12 N39_12 1_555 1_555
C139_12 C136_12 1_555 1_555
H84_12 C139_12 1_555 1_555
C141_12 H85_12 1_555 1_555
C142_12 N41_12 1_555 1_555
C143_12 C144_12 1_555 1_555
C146_12 N36_12 1_555 1_555
H88_12 C146_12 1_555 1_555
H89_12 C146_12 1_555 1_555
C149_12 C134_12 1_555 1_555
H90_12 C149_12 1_555 1_555
C150_12 C141_12 1_555 1_555
H91_12 C150_12 1_555 1_555
C151_12 O36_12 1_555 1_555
C152_12 C143_12 1_555 1_555
H92_12 C152_12 1_555 1_555
O39_12 Zn6_12 1_555 1_555
O44_12 Zn15_5 1_555 1_555
O45_12 Zn15_5 1_555 1_555
C129_12 C130_12 1_555 1_555
C131_12 C137_12 1_555 1_555
C131_12 C138_12 1_555 1_555
C132_12 C142_12 1_555 1_555
C134_12 C146_12 1_555 1_555
C135_12 C142_12 1_555 1_555
C136_12 C151_12 1_555 1_555
C138_12 C139_12 1_555 1_555
C143_12 C150_12 1_555 1_555
C149_12 C152_12 1_555 1_555
O20_12 C92_12 1_555 1_555
O21_12 C92_12 1_555 1_555
N22_12 N28_12 1_555 1_555
O22_12 C99_12 1_555 1_555
N25_12 C80_12 1_555 1_555
N27_12 N28_12 1_555 1_555
O43_8 C99_12 1_555 1_555
C80_12 C81_12 1_555 1_555
C81_12 H49_12 1_555 1_555
C82_12 C89_12 1_555 1_555
C83_12 N22_12 1_555 1_555
H50_12 C83_12 1_555 1_555
C84_12 C81_12 1_555 1_555
C86_12 N25_12 1_555 1_555
C87_12 C84_12 1_555 1_555
H52_12 C87_12 1_555 1_555
C89_12 H53_12 1_555 1_555
C90_12 N27_12 1_555 1_555
C91_12 C92_12 1_555 1_555
C94_12 N22_12 1_555 1_555
H56_12 C94_12 1_555 1_555
H57_12 C94_12 1_555 1_555
C97_12 C82_12 1_555 1_555
H58_12 C97_12 1_555 1_555
C98_12 C89_12 1_555 1_555
H59_12 C98_12 1_555 1_555
C99_12 C84_12 1_555 1_555
C100_12 C91_12 1_555 1_555
H60_12 C100_12 1_555 1_555
O31_12 Zn7_12 1_555 1_555
O35_12 C140_12 1_555 1_555
C140_12 O31_12 1_555 1_555
H87_12 C145_12 1_555 1_555
C147_12 C145_12 1_555 1_555
C148_12 C140_12 1_555 1_555
C153_12 C147_12 1_555 1_555
H93_12 C153_12 1_555 1_555
C154_12 C148_12 1_555 1_555
H94_12 C154_12 1_555 1_555
C155_12 C147_12 1_555 1_555
H95_12 C155_12 1_555 1_555
C156_12 C148_12 1_555 1_555
H96_12 C156_12 1_555 1_555
O46_12 Zn15_6 1_555 1_555
N25_12 Zn7_12 1_555 1_555
N27_12 Zn7_12 1_555 1_555
C80_12 C90_12 1_555 1_555
C82_12 C94_12 1_555 1_555
C83_12 C90_12 1_555 1_555
C86_12 C87_12 1_555 1_555
C91_12 C98_12 1_555 1_555
C97_12 C100_12 1_555 1_555
C153_12 C154_12 1_555 1_555
C155_12 C156_12 1_555 1_555
O45_13 Zn16_5 1_555 1_555
O46_13 Zn16_5 1_555 1_555
O44_13 Zn16_6 1_555 1_555
O44_14 Zn16_3 1_555 1_555
O46_14 Zn16_3 1_555 1_555
O45_14 Zn16_4 1_555 1_555
O44_15 Zn16_8 1_555 1_555
O45_15 Zn16_9 1_555 1_555
O46_15 Zn16_11 1_555 1_555
O44_16 Zn16 1_555 1_555
O45_16 Zn16 1_555 1_555
O46_16 Zn16_2 1_555 1_555
Zn12_10 O1_5 1_555 1_555
O1_5 C10_5 1_555 1_555
O41_2 C14_5 1_555 1_555
O3_5 C14_5 1_555 1_555
N1_5 N7_5 1_555 1_555
N2_5 N5_5 1_555 1_555
O4_5 C21_5 1_555 1_555
N3_5 N5_5 1_555 1_555
O5_5 C10_5 1_555 1_555
N4_5 C2_5 1_555 1_555
N6_5 N7_5 1_555 1_555
O46_6 C21_5 1_555 1_555
C1_5 N3_5 1_555 1_555
C2_5 C3_5 1_555 1_555
C3_5 H1_5 1_555 1_555
C4_5 C11_5 1_555 1_555
C5_5 N1_5 1_555 1_555
H2_5 C5_5 1_555 1_555
C6_5 C3_5 1_555 1_555
C7_5 N2_5 1_555 1_555
H3_5 C7_5 1_555 1_555
C8_5 N4_5 1_555 1_555
C9_5 C6_5 1_555 1_555
H4_5 C9_5 1_555 1_555
C10_5 C18_5 1_555 1_555
C11_5 H5_5 1_555 1_555
C12_5 N6_5 1_555 1_555
C13_5 C14_5 1_555 1_555
C15_5 N2_5 1_555 1_555
H6_5 C15_5 1_555 1_555
H7_5 C15_5 1_555 1_555
C16_5 N1_5 1_555 1_555
H8_5 C16_5 1_555 1_555
H9_5 C16_5 1_555 1_555
C17_5 C15_5 1_555 1_555
C18_5 C24_5 1_555 1_555
C19_5 C4_5 1_555 1_555
H10_5 C19_5 1_555 1_555
C20_5 C11_5 1_555 1_555
H11_5 C20_5 1_555 1_555
C21_5 C6_5 1_555 1_555
C22_5 C13_5 1_555 1_555
H12_5 C22_5 1_555 1_555
C23_5 C17_5 1_555 1_555
H13_5 C23_5 1_555 1_555
C24_5 C23_5 1_555 1_555
H14_5 C24_5 1_555 1_555
C25_5 C17_5 1_555 1_555
H15_5 C25_5 1_555 1_555
C26_5 C18_5 1_555 1_555
H16_5 C26_5 1_555 1_555
Zn9_5 O7_5 1_555 1_555
O7_5 C36_5 1_555 1_555
O38_9 C40_5 1_555 1_555
O9_5 C40_5 1_555 1_555
N8_5 N14_5 1_555 1_555
N9_5 N12_5 1_555 1_555
O10_5 C47_5 1_555 1_555
N10_5 Zn12_10 1_555 1_555
O11_5 C36_5 1_555 1_555
N11_5 Zn12_10 1_555 1_555
N12_5 N10_5 1_555 1_555
N13_5 Zn12_10 1_555 1_555
N14_5 N13_5 1_555 1_555
O45_7 C47_5 1_555 1_555
C27_5 N10_5 1_555 1_555
C28_5 N11_5 1_555 1_555
C29_5 C28_5 1_555 1_555
H17_5 C29_5 1_555 1_555
C30_5 C37_5 1_555 1_555
C31_5 N8_5 1_555 1_555
H18_5 C31_5 1_555 1_555
C32_5 C29_5 1_555 1_555
C33_5 N9_5 1_555 1_555
H19_5 C33_5 1_555 1_555
C34_5 N11_5 1_555 1_555
C35_5 C32_5 1_555 1_555
H20_5 C35_5 1_555 1_555
C36_5 C44_5 1_555 1_555
C37_5 H21_5 1_555 1_555
C38_5 N13_5 1_555 1_555
C39_5 C40_5 1_555 1_555
C41_5 N9_5 1_555 1_555
H22_5 C41_5 1_555 1_555
H23_5 C41_5 1_555 1_555
C42_5 N8_5 1_555 1_555
H24_5 C42_5 1_555 1_555
H25_5 C42_5 1_555 1_555
C43_5 C41_5 1_555 1_555
C44_5 C50_5 1_555 1_555
C45_5 C30_5 1_555 1_555
H26_5 C45_5 1_555 1_555
C46_5 C37_5 1_555 1_555
H27_5 C46_5 1_555 1_555
C47_5 C32_5 1_555 1_555
C48_5 C39_5 1_555 1_555
H28_5 C48_5 1_555 1_555
C49_5 C43_5 1_555 1_555
H29_5 C49_5 1_555 1_555
C50_5 C49_5 1_555 1_555
H30_5 C50_5 1_555 1_555
C51_5 C43_5 1_555 1_555
H31_5 C51_5 1_555 1_555
C52_5 C44_5 1_555 1_555
H32_5 C52_5 1_555 1_555
Zn10_3 N3_5 1_555 1_555
O13_5 Zn10_3 1_555 1_555
O39_7 C66_5 1_555 1_555
O15_5 C66_5 1_555 1_555
N15_5 N21_5 1_555 1_555
N16_5 N19_5 1_555 1_555
O16_5 C73_5 1_555 1_555
N17_5 Zn9_5 1_555 1_555
O17_5 C62_5 1_555 1_555
N18_5 Zn9_5 1_555 1_555
N19_5 N17_5 1_555 1_555
N20_5 Zn9_5 1_555 1_555
N21_5 N20_5 1_555 1_555
O44_5 C73_5 1_555 1_555
C53_5 N17_5 1_555 1_555
C54_5 N18_5 1_555 1_555
C55_5 C54_5 1_555 1_555
H33_5 C55_5 1_555 1_555
C56_5 C63_5 1_555 1_555
C57_5 N15_5 1_555 1_555
H34_5 C57_5 1_555 1_555
C58_5 C55_5 1_555 1_555
C59_5 N16_5 1_555 1_555
H35_5 C59_5 1_555 1_555
C60_5 N18_5 1_555 1_555
C61_5 C58_5 1_555 1_555
H36_5 C61_5 1_555 1_555
C62_5 O13_5 1_555 1_555
C63_5 H37_5 1_555 1_555
C64_5 N20_5 1_555 1_555
C65_5 C66_5 1_555 1_555
C67_5 N16_5 1_555 1_555
H38_5 C67_5 1_555 1_555
H39_5 C67_5 1_555 1_555
C68_5 N15_5 1_555 1_555
H40_5 C68_5 1_555 1_555
H41_5 C68_5 1_555 1_555
C69_5 C67_5 1_555 1_555
C70_5 C62_5 1_555 1_555
C71_5 C56_5 1_555 1_555
H42_5 C71_5 1_555 1_555
C72_5 C63_5 1_555 1_555
H43_5 C72_5 1_555 1_555
C73_5 C58_5 1_555 1_555
C74_5 C65_5 1_555 1_555
H44_5 C74_5 1_555 1_555
C75_5 C69_5 1_555 1_555
H45_5 C75_5 1_555 1_555
C76_5 C70_5 1_555 1_555
H46_5 C76_5 1_555 1_555
C77_5 C69_5 1_555 1_555
H47_5 C77_5 1_555 1_555
C78_5 C70_5 1_555 1_555
H48_5 C78_5 1_555 1_555
Zn12_12 O19_13 1_555 1_555
O19_13 C88_13 1_555 1_555
O41_3 C92_13 1_555 1_555
O21_13 C92_13 1_555 1_555
N22_13 N28_13 1_555 1_555
N23_13 N26_13 1_555 1_555
O22_13 C99_13 1_555 1_555
N24_13 N26_13 1_555 1_555
O23_13 C88_13 1_555 1_555
N25_13 C80_13 1_555 1_555
N27_13 N28_13 1_555 1_555
O46_5 C99_13 1_555 1_555
C79_13 N24_13 1_555 1_555
C80_13 C81_13 1_555 1_555
C81_13 H49_13 1_555 1_555
C82_13 C89_13 1_555 1_555
C83_13 N22_13 1_555 1_555
H50_13 C83_13 1_555 1_555
C84_13 C81_13 1_555 1_555
C85_13 N23_13 1_555 1_555
H51_13 C85_13 1_555 1_555
C86_13 N25_13 1_555 1_555
C87_13 C84_13 1_555 1_555
H52_13 C87_13 1_555 1_555
C88_13 C96_13 1_555 1_555
C89_13 H53_13 1_555 1_555
C90_13 N27_13 1_555 1_555
C91_13 C92_13 1_555 1_555
C93_13 N23_13 1_555 1_555
H54_13 C93_13 1_555 1_555
H55_13 C93_13 1_555 1_555
C94_13 N22_13 1_555 1_555
H56_13 C94_13 1_555 1_555
H57_13 C94_13 1_555 1_555
C95_13 C93_13 1_555 1_555
C96_13 C102_13 1_555 1_555
C97_13 C82_13 1_555 1_555
H58_13 C97_13 1_555 1_555
C98_13 C89_13 1_555 1_555
H59_13 C98_13 1_555 1_555
C99_13 C84_13 1_555 1_555
C100_13 C91_13 1_555 1_555
H60_13 C100_13 1_555 1_555
C101_13 C95_13 1_555 1_555
H61_13 C101_13 1_555 1_555
C102_13 C101_13 1_555 1_555
H62_13 C102_13 1_555 1_555
C103_13 C95_13 1_555 1_555
H63_13 C103_13 1_555 1_555
C104_13 C96_13 1_555 1_555
H64_13 C104_13 1_555 1_555
Zn9_6 O25_13 1_555 1_555
O25_13 C114_13 1_555 1_555
O38_11 C118_13 1_555 1_555
O27_13 C118_13 1_555 1_555
N29_13 N35_13 1_555 1_555
N30_13 N33_13 1_555 1_555
O28_13 C125_13 1_555 1_555
N31_13 Zn12_12 1_555 1_555
O29_13 C114_13 1_555 1_555
N32_13 Zn12_12 1_555 1_555
N33_13 N31_13 1_555 1_555
N34_13 Zn12_12 1_555 1_555
N35_13 N34_13 1_555 1_555
O45_8 C125_13 1_555 1_555
C105_13 N31_13 1_555 1_555
C106_13 N32_13 1_555 1_555
C107_13 C106_13 1_555 1_555
H65_13 C107_13 1_555 1_555
C108_13 C115_13 1_555 1_555
C109_13 N29_13 1_555 1_555
H66_13 C109_13 1_555 1_555
C110_13 C107_13 1_555 1_555
C111_13 N30_13 1_555 1_555
H67_13 C111_13 1_555 1_555
C112_13 N32_13 1_555 1_555
C113_13 C110_13 1_555 1_555
H68_13 C113_13 1_555 1_555
C114_13 C122_13 1_555 1_555
C115_13 H69_13 1_555 1_555
C116_13 N34_13 1_555 1_555
C117_13 C118_13 1_555 1_555
C119_13 N30_13 1_555 1_555
H70_13 C119_13 1_555 1_555
H71_13 C119_13 1_555 1_555
C120_13 N29_13 1_555 1_555
H72_13 C120_13 1_555 1_555
H73_13 C120_13 1_555 1_555
C121_13 C119_13 1_555 1_555
C122_13 C128_13 1_555 1_555
C123_13 C108_13 1_555 1_555
H74_13 C123_13 1_555 1_555
C124_13 C115_13 1_555 1_555
H75_13 C124_13 1_555 1_555
C125_13 C110_13 1_555 1_555
C126_13 C117_13 1_555 1_555
H76_13 C126_13 1_555 1_555
C127_13 C121_13 1_555 1_555
H77_13 C127_13 1_555 1_555
C128_13 C127_13 1_555 1_555
H78_13 C128_13 1_555 1_555
C129_13 C121_13 1_555 1_555
H79_13 C129_13 1_555 1_555
C130_13 C122_13 1_555 1_555
H80_13 C130_13 1_555 1_555
Zn10_2 N24_13 1_555 1_555
O31_13 Zn10_2 1_555 1_555
O39_8 C144_13 1_555 1_555
O33_13 C144_13 1_555 1_555
N36_13 N42_13 1_555 1_555
N37_13 N40_13 1_555 1_555
O34_13 C151_13 1_555 1_555
N38_13 Zn9_6 1_555 1_555
O35_13 C140_13 1_555 1_555
N39_13 Zn9_6 1_555 1_555
N40_13 N38_13 1_555 1_555
N41_13 Zn9_6 1_555 1_555
N42_13 N41_13 1_555 1_555
C131_13 N38_13 1_555 1_555
C132_13 N39_13 1_555 1_555
C133_13 C132_13 1_555 1_555
H81_13 C133_13 1_555 1_555
C134_13 C141_13 1_555 1_555
C135_13 N36_13 1_555 1_555
H82_13 C135_13 1_555 1_555
C136_13 C133_13 1_555 1_555
C137_13 N37_13 1_555 1_555
H83_13 C137_13 1_555 1_555
C138_13 N39_13 1_555 1_555
C139_13 C136_13 1_555 1_555
H84_13 C139_13 1_555 1_555
C140_13 O31_13 1_555 1_555
C141_13 H85_13 1_555 1_555
C142_13 N41_13 1_555 1_555
C143_13 C144_13 1_555 1_555
C145_13 N37_13 1_555 1_555
H86_13 C145_13 1_555 1_555
H87_13 C145_13 1_555 1_555
C146_13 N36_13 1_555 1_555
H88_13 C146_13 1_555 1_555
H89_13 C146_13 1_555 1_555
C147_13 C145_13 1_555 1_555
C148_13 C140_13 1_555 1_555
C149_13 C134_13 1_555 1_555
H90_13 C149_13 1_555 1_555
C150_13 C141_13 1_555 1_555
H91_13 C150_13 1_555 1_555
C151_13 O44_6 1_555 1_555
C152_13 C143_13 1_555 1_555
H92_13 C152_13 1_555 1_555
C153_13 C147_13 1_555 1_555
H93_13 C153_13 1_555 1_555
C154_13 C148_13 1_555 1_555
H94_13 C154_13 1_555 1_555
C155_13 C147_13 1_555 1_555
H95_13 C155_13 1_555 1_555
C156_13 C148_13 1_555 1_555
H96_13 C156_13 1_555 1_555
N4_5 Zn10_3 1_555 1_555
N6_5 Zn10_3 1_555 1_555
C1_5 C7_5 1_555 1_555
C1_5 C8_5 1_555 1_555
C2_5 C12_5 1_555 1_555
C4_5 C16_5 1_555 1_555
C5_5 C12_5 1_555 1_555
C8_5 C9_5 1_555 1_555
C13_5 C20_5 1_555 1_555
C19_5 C22_5 1_555 1_555
C25_5 C26_5 1_555 1_555
C27_5 C33_5 1_555 1_555
C27_5 C34_5 1_555 1_555
C28_5 C38_5 1_555 1_555
C30_5 C42_5 1_555 1_555
C31_5 C38_5 1_555 1_555
C34_5 C35_5 1_555 1_555
C39_5 C46_5 1_555 1_555
C45_5 C48_5 1_555 1_555
C51_5 C52_5 1_555 1_555
C53_5 C59_5 1_555 1_555
C53_5 C60_5 1_555 1_555
C54_5 C64_5 1_555 1_555
C56_5 C68_5 1_555 1_555
C57_5 C64_5 1_555 1_555
C60_5 C61_5 1_555 1_555
C65_5 C72_5 1_555 1_555
C71_5 C74_5 1_555 1_555
C75_5 C76_5 1_555 1_555
C77_5 C78_5 1_555 1_555
N25_13 Zn10_2 1_555 1_555
N27_13 Zn10_2 1_555 1_555
C79_13 C85_13 1_555 1_555
C79_13 C86_13 1_555 1_555
C80_13 C90_13 1_555 1_555
C82_13 C94_13 1_555 1_555
C83_13 C90_13 1_555 1_555
C86_13 C87_13 1_555 1_555
C91_13 C98_13 1_555 1_555
C97_13 C100_13 1_555 1_555
C103_13 C104_13 1_555 1_555
C105_13 C111_13 1_555 1_555
C105_13 C112_13 1_555 1_555
C106_13 C116_13 1_555 1_555
C108_13 C120_13 1_555 1_555
C109_13 C116_13 1_555 1_555
C112_13 C113_13 1_555 1_555
C117_13 C124_13 1_555 1_555
C123_13 C126_13 1_555 1_555
C129_13 C130_13 1_555 1_555
C131_13 C137_13 1_555 1_555
C131_13 C138_13 1_555 1_555
C132_13 C142_13 1_555 1_555
C134_13 C146_13 1_555 1_555
C135_13 C142_13 1_555 1_555
C136_13 C151_13 1_555 1_555
C138_13 C139_13 1_555 1_555
C143_13 C150_13 1_555 1_555
C149_13 C152_13 1_555 1_555
C153_13 C154_13 1_555 1_555
C155_13 C156_13 1_555 1_555
Zn8 O1_6 1_555 1_555
O1_6 C10_6 1_555 1_555
O39_11 C14_6 1_555 1_555
O3_6 C14_6 1_555 1_555
N1_6 N7_6 1_555 1_555
N2_6 N5_6 1_555 1_555
O4_6 C21_6 1_555 1_555
N3_6 N5_6 1_555 1_555
O5_6 C10_6 1_555 1_555
N4_6 C2_6 1_555 1_555
N6_6 N7_6 1_555 1_555
O44_9 C21_6 1_555 1_555
C1_6 N3_6 1_555 1_555
C2_6 C3_6 1_555 1_555
C3_6 H1_6 1_555 1_555
C4_6 C11_6 1_555 1_555
C5_6 N1_6 1_555 1_555
H2_6 C5_6 1_555 1_555
C6_6 C3_6 1_555 1_555
C7_6 N2_6 1_555 1_555
H3_6 C7_6 1_555 1_555
C8_6 N4_6 1_555 1_555
C9_6 C6_6 1_555 1_555
H4_6 C9_6 1_555 1_555
C10_6 C18_6 1_555 1_555
C11_6 H5_6 1_555 1_555
C12_6 N6_6 1_555 1_555
C13_6 C14_6 1_555 1_555
C15_6 N2_6 1_555 1_555
H6_6 C15_6 1_555 1_555
H7_6 C15_6 1_555 1_555
C16_6 N1_6 1_555 1_555
H8_6 C16_6 1_555 1_555
H9_6 C16_6 1_555 1_555
C17_6 C15_6 1_555 1_555
C18_6 C24_6 1_555 1_555
C19_6 C4_6 1_555 1_555
H10_6 C19_6 1_555 1_555
C20_6 C11_6 1_555 1_555
H11_6 C20_6 1_555 1_555
C21_6 C6_6 1_555 1_555
C22_6 C13_6 1_555 1_555
H12_6 C22_6 1_555 1_555
C23_6 C17_6 1_555 1_555
H13_6 C23_6 1_555 1_555
C24_6 C23_6 1_555 1_555
H14_6 C24_6 1_555 1_555
C25_6 C17_6 1_555 1_555
H15_6 C25_6 1_555 1_555
C26_6 C18_6 1_555 1_555
H16_6 C26_6 1_555 1_555
Zn12_2 O7_6 1_555 1_555
O7_6 C36_6 1_555 1_555
O40_3 C40_6 1_555 1_555
O9_6 C40_6 1_555 1_555
N8_6 N14_6 1_555 1_555
N9_6 N12_6 1_555 1_555
O10_6 C47_6 1_555 1_555
N10_6 Zn8 1_555 1_555
O11_6 C36_6 1_555 1_555
N11_6 Zn8 1_555 1_555
N12_6 N10_6 1_555 1_555
N13_6 Zn8 1_555 1_555
N14_6 N13_6 1_555 1_555
O46_10 C47_6 1_555 1_555
C27_6 N10_6 1_555 1_555
C28_6 N11_6 1_555 1_555
C29_6 C28_6 1_555 1_555
H17_6 C29_6 1_555 1_555
C30_6 C37_6 1_555 1_555
C31_6 N8_6 1_555 1_555
H18_6 C31_6 1_555 1_555
C32_6 C29_6 1_555 1_555
C33_6 N9_6 1_555 1_555
H19_6 C33_6 1_555 1_555
C34_6 N11_6 1_555 1_555
C35_6 C32_6 1_555 1_555
H20_6 C35_6 1_555 1_555
C36_6 C44_6 1_555 1_555
C37_6 H21_6 1_555 1_555
C38_6 N13_6 1_555 1_555
C39_6 C40_6 1_555 1_555
C41_6 N9_6 1_555 1_555
H22_6 C41_6 1_555 1_555
H23_6 C41_6 1_555 1_555
C42_6 N8_6 1_555 1_555
H24_6 C42_6 1_555 1_555
H25_6 C42_6 1_555 1_555
C43_6 C41_6 1_555 1_555
C44_6 C50_6 1_555 1_555
C45_6 C30_6 1_555 1_555
H26_6 C45_6 1_555 1_555
C46_6 C37_6 1_555 1_555
H27_6 C46_6 1_555 1_555
C47_6 C32_6 1_555 1_555
C48_6 C39_6 1_555 1_555
H28_6 C48_6 1_555 1_555
C49_6 C43_6 1_555 1_555
H29_6 C49_6 1_555 1_555
C50_6 C49_6 1_555 1_555
H30_6 C50_6 1_555 1_555
C51_6 C43_6 1_555 1_555
H31_6 C51_6 1_555 1_555
C52_6 C44_6 1_555 1_555
H32_6 C52_6 1_555 1_555
Zn9_9 N3_6 1_555 1_555
O13_6 Zn9_9 1_555 1_555
O38 C66_6 1_555 1_555
O15_6 C66_6 1_555 1_555
N15_6 N21_6 1_555 1_555
N16_6 N19_6 1_555 1_555
O16_6 C73_6 1_555 1_555
N17_6 Zn12_2 1_555 1_555
O17_6 C62_6 1_555 1_555
N18_6 Zn12_2 1_555 1_555
N19_6 N17_6 1_555 1_555
N20_6 Zn12_2 1_555 1_555
N21_6 N20_6 1_555 1_555
O45_11 C73_6 1_555 1_555
C53_6 N17_6 1_555 1_555
C54_6 N18_6 1_555 1_555
C55_6 C54_6 1_555 1_555
H33_6 C55_6 1_555 1_555
C56_6 C63_6 1_555 1_555
C57_6 N15_6 1_555 1_555
H34_6 C57_6 1_555 1_555
C58_6 C55_6 1_555 1_555
C59_6 N16_6 1_555 1_555
H35_6 C59_6 1_555 1_555
C60_6 N18_6 1_555 1_555
C61_6 C58_6 1_555 1_555
H36_6 C61_6 1_555 1_555
C62_6 O13_6 1_555 1_555
C63_6 H37_6 1_555 1_555
C64_6 N20_6 1_555 1_555
C65_6 C66_6 1_555 1_555
C67_6 N16_6 1_555 1_555
H38_6 C67_6 1_555 1_555
H39_6 C67_6 1_555 1_555
C68_6 N15_6 1_555 1_555
H40_6 C68_6 1_555 1_555
H41_6 C68_6 1_555 1_555
C69_6 C67_6 1_555 1_555
C70_6 C62_6 1_555 1_555
C71_6 C56_6 1_555 1_555
H42_6 C71_6 1_555 1_555
C72_6 C63_6 1_555 1_555
H43_6 C72_6 1_555 1_555
C73_6 C58_6 1_555 1_555
C74_6 C65_6 1_555 1_555
H44_6 C74_6 1_555 1_555
C75_6 C69_6 1_555 1_555
H45_6 C75_6 1_555 1_555
C76_6 C70_6 1_555 1_555
H46_6 C76_6 1_555 1_555
C77_6 C69_6 1_555 1_555
H47_6 C77_6 1_555 1_555
C78_6 C70_6 1_555 1_555
H48_6 C78_6 1_555 1_555
O39_9 C92_14 1_555 1_555
O21_14 C92_14 1_555 1_555
N22_14 N28_14 1_555 1_555
O22_14 C99_14 1_555 1_555
N25_14 C80_14 1_555 1_555
N27_14 N28_14 1_555 1_555
O44_11 C99_14 1_555 1_555
C80_14 C81_14 1_555 1_555
C81_14 H49_14 1_555 1_555
C82_14 C89_14 1_555 1_555
C83_14 N22_14 1_555 1_555
H50_14 C83_14 1_555 1_555
C84_14 C81_14 1_555 1_555
C86_14 N25_14 1_555 1_555
C87_14 C84_14 1_555 1_555
H52_14 C87_14 1_555 1_555
C89_14 H53_14 1_555 1_555
C90_14 N27_14 1_555 1_555
C91_14 C92_14 1_555 1_555
C94_14 N22_14 1_555 1_555
H56_14 C94_14 1_555 1_555
H57_14 C94_14 1_555 1_555
C97_14 C82_14 1_555 1_555
H58_14 C97_14 1_555 1_555
C98_14 C89_14 1_555 1_555
H59_14 C98_14 1_555 1_555
C99_14 C84_14 1_555 1_555
C100_14 C91_14 1_555 1_555
H60_14 C100_14 1_555 1_555
Zn12_3 O25_14 1_555 1_555
O25_14 C114_14 1_555 1_555
O29_14 C114_14 1_555 1_555
C114_14 C122_14 1_555 1_555
H71_14 C119_14 1_555 1_555
C121_14 C119_14 1_555 1_555
C122_14 C128_14 1_555 1_555
C127_14 C121_14 1_555 1_555
H77_14 C127_14 1_555 1_555
C128_14 C127_14 1_555 1_555
H78_14 C128_14 1_555 1_555
C129_14 C121_14 1_555 1_555
H79_14 C129_14 1_555 1_555
C130_14 C122_14 1_555 1_555
H80_14 C130_14 1_555 1_555
O31_14 Zn9_11 1_555 1_555
O38_4 C144_14 1_555 1_555
O33_14 C144_14 1_555 1_555
N36_14 N42_14 1_555 1_555
N37_14 N40_14 1_555 1_555
O34_14 C151_14 1_555 1_555
N38_14 Zn12_3 1_555 1_555
O35_14 C140_14 1_555 1_555
N39_14 Zn12_3 1_555 1_555
N40_14 N38_14 1_555 1_555
N41_14 Zn12_3 1_555 1_555
N42_14 N41_14 1_555 1_555
C131_14 N38_14 1_555 1_555
C132_14 N39_14 1_555 1_555
C133_14 C132_14 1_555 1_555
H81_14 C133_14 1_555 1_555
C134_14 C141_14 1_555 1_555
C135_14 N36_14 1_555 1_555
H82_14 C135_14 1_555 1_555
C136_14 C133_14 1_555 1_555
C137_14 N37_14 1_555 1_555
H83_14 C137_14 1_555 1_555
C138_14 N39_14 1_555 1_555
C139_14 C136_14 1_555 1_555
H84_14 C139_14 1_555 1_555
C140_14 O31_14 1_555 1_555
C141_14 H85_14 1_555 1_555
C142_14 N41_14 1_555 1_555
C143_14 C144_14 1_555 1_555
C145_14 N37_14 1_555 1_555
H86_14 C145_14 1_555 1_555
H87_14 C145_14 1_555 1_555
C146_14 N36_14 1_555 1_555
H88_14 C146_14 1_555 1_555
H89_14 C146_14 1_555 1_555
C147_14 C145_14 1_555 1_555
C148_14 C140_14 1_555 1_555
C149_14 C134_14 1_555 1_555
H90_14 C149_14 1_555 1_555
C150_14 C141_14 1_555 1_555
H91_14 C150_14 1_555 1_555
C151_14 O45_9 1_555 1_555
C152_14 C143_14 1_555 1_555
H92_14 C152_14 1_555 1_555
C153_14 C147_14 1_555 1_555
H93_14 C153_14 1_555 1_555
C154_14 C148_14 1_555 1_555
H94_14 C154_14 1_555 1_555
C155_14 C147_14 1_555 1_555
H95_14 C155_14 1_555 1_555
C156_14 C148_14 1_555 1_555
H96_14 C156_14 1_555 1_555
N4_6 Zn9_9 1_555 1_555
N6_6 Zn9_9 1_555 1_555
C1_6 C7_6 1_555 1_555
C1_6 C8_6 1_555 1_555
C2_6 C12_6 1_555 1_555
C4_6 C16_6 1_555 1_555
C5_6 C12_6 1_555 1_555
C8_6 C9_6 1_555 1_555
C13_6 C20_6 1_555 1_555
C19_6 C22_6 1_555 1_555
C25_6 C26_6 1_555 1_555
C27_6 C33_6 1_555 1_555
C27_6 C34_6 1_555 1_555
C28_6 C38_6 1_555 1_555
C30_6 C42_6 1_555 1_555
C31_6 C38_6 1_555 1_555
C34_6 C35_6 1_555 1_555
C39_6 C46_6 1_555 1_555
C45_6 C48_6 1_555 1_555
C51_6 C52_6 1_555 1_555
C53_6 C59_6 1_555 1_555
C53_6 C60_6 1_555 1_555
C54_6 C64_6 1_555 1_555
C56_6 C68_6 1_555 1_555
C57_6 C64_6 1_555 1_555
C60_6 C61_6 1_555 1_555
C65_6 C72_6 1_555 1_555
C71_6 C74_6 1_555 1_555
C75_6 C76_6 1_555 1_555
C77_6 C78_6 1_555 1_555
N25_14 Zn9_11 1_555 1_555
N27_14 Zn9_11 1_555 1_555
C80_14 C90_14 1_555 1_555
C82_14 C94_14 1_555 1_555
C83_14 C90_14 1_555 1_555
C86_14 C87_14 1_555 1_555
C91_14 C98_14 1_555 1_555
C97_14 C100_14 1_555 1_555
C129_14 C130_14 1_555 1_555
C131_14 C137_14 1_555 1_555
C131_14 C138_14 1_555 1_555
C132_14 C142_14 1_555 1_555
C134_14 C146_14 1_555 1_555
C135_14 C142_14 1_555 1_555
C136_14 C151_14 1_555 1_555
C138_14 C139_14 1_555 1_555
C143_14 C150_14 1_555 1_555
C149_14 C152_14 1_555 1_555
C153_14 C154_14 1_555 1_555
C155_14 C156_14 1_555 1_555
Zn8_4 O19_14 1_555 1_555
O19_14 C88_14 1_555 1_555
N23_14 N26_14 1_555 1_555
N24_14 N26_14 1_555 1_555
O23_14 C88_14 1_555 1_555
C79_14 N24_14 1_555 1_555
C85_14 N23_14 1_555 1_555
H51_14 C85_14 1_555 1_555
C88_14 C96_14 1_555 1_555
C93_14 N23_14 1_555 1_555
H54_14 C93_14 1_555 1_555
H55_14 C93_14 1_555 1_555
C95_14 C93_14 1_555 1_555
C96_14 C102_14 1_555 1_555
C101_14 C95_14 1_555 1_555
H61_14 C101_14 1_555 1_555
C102_14 C101_14 1_555 1_555
H62_14 C102_14 1_555 1_555
C103_14 C95_14 1_555 1_555
H63_14 C103_14 1_555 1_555
C104_14 C96_14 1_555 1_555
H64_14 C104_14 1_555 1_555
O40_2 C118_14 1_555 1_555
O27_14 C118_14 1_555 1_555
N29_14 N35_14 1_555 1_555
N30_14 N33_14 1_555 1_555
O28_14 C125_14 1_555 1_555
N31_14 Zn8_4 1_555 1_555
N32_14 Zn8_4 1_555 1_555
N33_14 N31_14 1_555 1_555
N34_14 Zn8_4 1_555 1_555
N35_14 N34_14 1_555 1_555
O46_12 C125_14 1_555 1_555
C105_14 N31_14 1_555 1_555
C106_14 N32_14 1_555 1_555
C107_14 C106_14 1_555 1_555
H65_14 C107_14 1_555 1_555
C108_14 C115_14 1_555 1_555
C109_14 N29_14 1_555 1_555
H66_14 C109_14 1_555 1_555
C110_14 C107_14 1_555 1_555
C111_14 N30_14 1_555 1_555
C112_14 N32_14 1_555 1_555
C113_14 C110_14 1_555 1_555
H68_14 C113_14 1_555 1_555
C115_14 H69_14 1_555 1_555
C116_14 N34_14 1_555 1_555
C117_14 C118_14 1_555 1_555
C120_14 N29_14 1_555 1_555
H72_14 C120_14 1_555 1_555
H73_14 C120_14 1_555 1_555
C123_14 C108_14 1_555 1_555
H74_14 C123_14 1_555 1_555
C124_14 C115_14 1_555 1_555
H75_14 C124_14 1_555 1_555
C125_14 C110_14 1_555 1_555
C126_14 C117_14 1_555 1_555
H76_14 C126_14 1_555 1_555
C79_14 C85_14 1_555 1_555
C103_14 C104_14 1_555 1_555
C105_14 C111_14 1_555 1_555
C105_14 C112_14 1_555 1_555
C106_14 C116_14 1_555 1_555
C108_14 C120_14 1_555 1_555
C109_14 C116_14 1_555 1_555
C112_14 C113_14 1_555 1_555
C117_14 C124_14 1_555 1_555
C123_14 C126_14 1_555 1_555
Zn9 O1_7 1_555 1_555
O1_7 C10_7 1_555 1_555
O38_5 C14_7 1_555 1_555
O3_7 C14_7 1_555 1_555
N1_7 N7_7 1_555 1_555
N2_7 N5_7 1_555 1_555
O4_7 C21_7 1_555 1_555
N3_7 N5_7 1_555 1_555
O5_7 C10_7 1_555 1_555
N4_7 C2_7 1_555 1_555
N6_7 N7_7 1_555 1_555
O45_3 C21_7 1_555 1_555
C1_7 N3_7 1_555 1_555
C2_7 C3_7 1_555 1_555
C3_7 H1_7 1_555 1_555
C4_7 C11_7 1_555 1_555
C5_7 N1_7 1_555 1_555
H2_7 C5_7 1_555 1_555
C6_7 C3_7 1_555 1_555
C7_7 N2_7 1_555 1_555
H3_7 C7_7 1_555 1_555
C8_7 N4_7 1_555 1_555
C9_7 C6_7 1_555 1_555
H4_7 C9_7 1_555 1_555
C10_7 C18_7 1_555 1_555
C11_7 H5_7 1_555 1_555
C12_7 N6_7 1_555 1_555
C13_7 C14_7 1_555 1_555
C15_7 N2_7 1_555 1_555
H6_7 C15_7 1_555 1_555
H7_7 C15_7 1_555 1_555
C16_7 N1_7 1_555 1_555
H8_7 C16_7 1_555 1_555
H9_7 C16_7 1_555 1_555
C17_7 C15_7 1_555 1_555
C18_7 C24_7 1_555 1_555
C19_7 C4_7 1_555 1_555
H10_7 C19_7 1_555 1_555
C20_7 C11_7 1_555 1_555
H11_7 C20_7 1_555 1_555
C21_7 C6_7 1_555 1_555
C22_7 C13_7 1_555 1_555
H12_7 C22_7 1_555 1_555
C23_7 C17_7 1_555 1_555
H13_7 C23_7 1_555 1_555
C24_7 C23_7 1_555 1_555
H14_7 C24_7 1_555 1_555
C25_7 C17_7 1_555 1_555
H15_7 C25_7 1_555 1_555
C26_7 C18_7 1_555 1_555
H16_7 C26_7 1_555 1_555
Zn13_2 O7_7 1_555 1_555
O7_7 C36_7 1_555 1_555
O39_3 C40_7 1_555 1_555
O9_7 C40_7 1_555 1_555
N8_7 N14_7 1_555 1_555
N9_7 N12_7 1_555 1_555
O10_7 C47_7 1_555 1_555
N10_7 Zn9 1_555 1_555
O11_7 C36_7 1_555 1_555
N11_7 Zn9 1_555 1_555
N12_7 N10_7 1_555 1_555
N13_7 Zn9 1_555 1_555
N14_7 N13_7 1_555 1_555
O44 C47_7 1_555 1_555
C27_7 N10_7 1_555 1_555
C28_7 N11_7 1_555 1_555
C29_7 C28_7 1_555 1_555
H17_7 C29_7 1_555 1_555
C30_7 C37_7 1_555 1_555
C31_7 N8_7 1_555 1_555
H18_7 C31_7 1_555 1_555
C32_7 C29_7 1_555 1_555
C33_7 N9_7 1_555 1_555
H19_7 C33_7 1_555 1_555
C34_7 N11_7 1_555 1_555
C35_7 C32_7 1_555 1_555
H20_7 C35_7 1_555 1_555
C36_7 C44_7 1_555 1_555
C37_7 H21_7 1_555 1_555
C38_7 N13_7 1_555 1_555
C39_7 C40_7 1_555 1_555
C41_7 N9_7 1_555 1_555
H22_7 C41_7 1_555 1_555
H23_7 C41_7 1_555 1_555
C42_7 N8_7 1_555 1_555
H24_7 C42_7 1_555 1_555
H25_7 C42_7 1_555 1_555
C43_7 C41_7 1_555 1_555
C44_7 C50_7 1_555 1_555
C45_7 C30_7 1_555 1_555
H26_7 C45_7 1_555 1_555
C46_7 C37_7 1_555 1_555
H27_7 C46_7 1_555 1_555
C47_7 C32_7 1_555 1_555
C48_7 C39_7 1_555 1_555
H28_7 C48_7 1_555 1_555
C49_7 C43_7 1_555 1_555
H29_7 C49_7 1_555 1_555
C50_7 C49_7 1_555 1_555
H30_7 C50_7 1_555 1_555
C51_7 C43_7 1_555 1_555
H31_7 C51_7 1_555 1_555
C52_7 C44_7 1_555 1_555
H32_7 C52_7 1_555 1_555
Zn12_6 N3_7 1_555 1_555
O13_7 Zn12_6 1_555 1_555
O37 C66_7 1_555 1_555
O15_7 C66_7 1_555 1_555
N15_7 N21_7 1_555 1_555
N16_7 N19_7 1_555 1_555
O16_7 C73_7 1_555 1_555
N17_7 Zn13_2 1_555 1_555
O17_7 C62_7 1_555 1_555
N18_7 Zn13_2 1_555 1_555
N19_7 N17_7 1_555 1_555
N20_7 Zn13_2 1_555 1_555
N21_7 N20_7 1_555 1_555
O46_2 C73_7 1_555 1_555
C53_7 N17_7 1_555 1_555
C54_7 N18_7 1_555 1_555
C55_7 C54_7 1_555 1_555
H33_7 C55_7 1_555 1_555
C56_7 C63_7 1_555 1_555
C57_7 N15_7 1_555 1_555
H34_7 C57_7 1_555 1_555
C58_7 C55_7 1_555 1_555
C59_7 N16_7 1_555 1_555
H35_7 C59_7 1_555 1_555
C60_7 N18_7 1_555 1_555
C61_7 C58_7 1_555 1_555
H36_7 C61_7 1_555 1_555
C62_7 O13_7 1_555 1_555
C63_7 H37_7 1_555 1_555
C64_7 N20_7 1_555 1_555
C65_7 C66_7 1_555 1_555
C67_7 N16_7 1_555 1_555
H38_7 C67_7 1_555 1_555
H39_7 C67_7 1_555 1_555
C68_7 N15_7 1_555 1_555
H40_7 C68_7 1_555 1_555
H41_7 C68_7 1_555 1_555
C69_7 C67_7 1_555 1_555
C70_7 C62_7 1_555 1_555
C71_7 C56_7 1_555 1_555
H42_7 C71_7 1_555 1_555
C72_7 C63_7 1_555 1_555
H43_7 C72_7 1_555 1_555
C73_7 C58_7 1_555 1_555
C74_7 C65_7 1_555 1_555
H44_7 C74_7 1_555 1_555
C75_7 C69_7 1_555 1_555
H45_7 C75_7 1_555 1_555
C76_7 C70_7 1_555 1_555
H46_7 C76_7 1_555 1_555
C77_7 C69_7 1_555 1_555
H47_7 C77_7 1_555 1_555
C78_7 C70_7 1_555 1_555
H48_7 C78_7 1_555 1_555
Zn9_4 O19_15 1_555 1_555
O19_15 C88_15 1_555 1_555
O38_6 C92_15 1_555 1_555
O21_15 C92_15 1_555 1_555
N22_15 N28_15 1_555 1_555
N23_15 N26_15 1_555 1_555
O22_15 C99_15 1_555 1_555
N24_15 N26_15 1_555 1_555
O23_15 C88_15 1_555 1_555
N25_15 C80_15 1_555 1_555
N27_15 N28_15 1_555 1_555
O45_2 C99_15 1_555 1_555
C79_15 N24_15 1_555 1_555
C80_15 C81_15 1_555 1_555
C81_15 H49_15 1_555 1_555
C82_15 C89_15 1_555 1_555
C83_15 N22_15 1_555 1_555
H50_15 C83_15 1_555 1_555
C84_15 C81_15 1_555 1_555
C85_15 N23_15 1_555 1_555
H51_15 C85_15 1_555 1_555
C86_15 N25_15 1_555 1_555
C87_15 C84_15 1_555 1_555
H52_15 C87_15 1_555 1_555
C88_15 C96_15 1_555 1_555
C89_15 H53_15 1_555 1_555
C90_15 N27_15 1_555 1_555
C91_15 C92_15 1_555 1_555
C93_15 N23_15 1_555 1_555
H54_15 C93_15 1_555 1_555
H55_15 C93_15 1_555 1_555
C94_15 N22_15 1_555 1_555
H56_15 C94_15 1_555 1_555
H57_15 C94_15 1_555 1_555
C95_15 C93_15 1_555 1_555
C96_15 C102_15 1_555 1_555
C97_15 C82_15 1_555 1_555
H58_15 C97_15 1_555 1_555
C98_15 C89_15 1_555 1_555
H59_15 C98_15 1_555 1_555
C99_15 C84_15 1_555 1_555
C100_15 C91_15 1_555 1_555
H60_15 C100_15 1_555 1_555
C101_15 C95_15 1_555 1_555
H61_15 C101_15 1_555 1_555
C102_15 C101_15 1_555 1_555
H62_15 C102_15 1_555 1_555
C103_15 C95_15 1_555 1_555
H63_15 C103_15 1_555 1_555
C104_15 C96_15 1_555 1_555
H64_15 C104_15 1_555 1_555
O39_2 C118_15 1_555 1_555
O27_15 C118_15 1_555 1_555
N29_15 N35_15 1_555 1_555
O28_15 C125_15 1_555 1_555
N32_15 Zn9_4 1_555 1_555
N34_15 Zn9_4 1_555 1_555
N35_15 N34_15 1_555 1_555
O44_4 C125_15 1_555 1_555
C106_15 N32_15 1_555 1_555
C107_15 C106_15 1_555 1_555
H65_15 C107_15 1_555 1_555
C108_15 C115_15 1_555 1_555
C109_15 N29_15 1_555 1_555
H66_15 C109_15 1_555 1_555
C110_15 C107_15 1_555 1_555
C112_15 N32_15 1_555 1_555
C113_15 C110_15 1_555 1_555
H68_15 C113_15 1_555 1_555
C115_15 H69_15 1_555 1_555
C116_15 N34_15 1_555 1_555
C117_15 C118_15 1_555 1_555
C120_15 N29_15 1_555 1_555
H72_15 C120_15 1_555 1_555
H73_15 C120_15 1_555 1_555
C123_15 C108_15 1_555 1_555
H74_15 C123_15 1_555 1_555
C124_15 C115_15 1_555 1_555
H75_15 C124_15 1_555 1_555
C125_15 C110_15 1_555 1_555
C126_15 C117_15 1_555 1_555
H76_15 C126_15 1_555 1_555
Zn12_5 N24_15 1_555 1_555
O31_15 Zn12_5 1_555 1_555
O35_15 C140_15 1_555 1_555
C140_15 O31_15 1_555 1_555
H87_15 C145_15 1_555 1_555
C147_15 C145_15 1_555 1_555
C148_15 C140_15 1_555 1_555
C153_15 C147_15 1_555 1_555
H93_15 C153_15 1_555 1_555
C154_15 C148_15 1_555 1_555
H94_15 C154_15 1_555 1_555
C155_15 C147_15 1_555 1_555
H95_15 C155_15 1_555 1_555
C156_15 C148_15 1_555 1_555
H96_15 C156_15 1_555 1_555
N4_7 Zn12_6 1_555 1_555
N6_7 Zn12_6 1_555 1_555
C1_7 C7_7 1_555 1_555
C1_7 C8_7 1_555 1_555
C2_7 C12_7 1_555 1_555
C4_7 C16_7 1_555 1_555
C5_7 C12_7 1_555 1_555
C8_7 C9_7 1_555 1_555
C13_7 C20_7 1_555 1_555
C19_7 C22_7 1_555 1_555
C25_7 C26_7 1_555 1_555
C27_7 C33_7 1_555 1_555
C27_7 C34_7 1_555 1_555
C28_7 C38_7 1_555 1_555
C30_7 C42_7 1_555 1_555
C31_7 C38_7 1_555 1_555
C34_7 C35_7 1_555 1_555
C39_7 C46_7 1_555 1_555
C45_7 C48_7 1_555 1_555
C51_7 C52_7 1_555 1_555
C53_7 C59_7 1_555 1_555
C53_7 C60_7 1_555 1_555
C54_7 C64_7 1_555 1_555
C56_7 C68_7 1_555 1_555
C57_7 C64_7 1_555 1_555
C60_7 C61_7 1_555 1_555
C65_7 C72_7 1_555 1_555
C71_7 C74_7 1_555 1_555
C75_7 C76_7 1_555 1_555
C77_7 C78_7 1_555 1_555
N25_15 Zn12_5 1_555 1_555
N27_15 Zn12_5 1_555 1_555
C79_15 C85_15 1_555 1_555
C79_15 C86_15 1_555 1_555
C80_15 C90_15 1_555 1_555
C82_15 C94_15 1_555 1_555
C83_15 C90_15 1_555 1_555
C86_15 C87_15 1_555 1_555
C91_15 C98_15 1_555 1_555
C97_15 C100_15 1_555 1_555
C103_15 C104_15 1_555 1_555
C106_15 C116_15 1_555 1_555
C108_15 C120_15 1_555 1_555
C109_15 C116_15 1_555 1_555
C112_15 C113_15 1_555 1_555
C117_15 C124_15 1_555 1_555
C123_15 C126_15 1_555 1_555
C153_15 C154_15 1_555 1_555
C155_15 C156_15 1_555 1_555
Zn13_3 O25_15 1_555 1_555
O25_15 C114_15 1_555 1_555
N30_15 N33_15 1_555 1_555
O29_15 C114_15 1_555 1_555
N33_15 N31_15 1_555 1_555
C105_15 N31_15 1_555 1_555
C111_15 N30_15 1_555 1_555
H67_15 C111_15 1_555 1_555
C114_15 C122_15 1_555 1_555
C119_15 N30_15 1_555 1_555
H70_15 C119_15 1_555 1_555
H71_15 C119_15 1_555 1_555
C121_15 C119_15 1_555 1_555
C122_15 C128_15 1_555 1_555
C127_15 C121_15 1_555 1_555
H77_15 C127_15 1_555 1_555
C128_15 C127_15 1_555 1_555
H78_15 C128_15 1_555 1_555
C129_15 C121_15 1_555 1_555
H79_15 C129_15 1_555 1_555
C130_15 C122_15 1_555 1_555
H80_15 C130_15 1_555 1_555
O37_4 C144_15 1_555 1_555
O33_15 C144_15 1_555 1_555
N36_15 N42_15 1_555 1_555
N37_15 N40_15 1_555 1_555
O34_15 C151_15 1_555 1_555
N38_15 Zn13_3 1_555 1_555
N39_15 Zn13_3 1_555 1_555
N40_15 N38_15 1_555 1_555
N41_15 Zn13_3 1_555 1_555
N42_15 N41_15 1_555 1_555
C131_15 N38_15 1_555 1_555
C132_15 N39_15 1_555 1_555
C133_15 C132_15 1_555 1_555
H81_15 C133_15 1_555 1_555
C134_15 C141_15 1_555 1_555
C135_15 N36_15 1_555 1_555
H82_15 C135_15 1_555 1_555
C136_15 C133_15 1_555 1_555
C137_15 N37_15 1_555 1_555
C138_15 N39_15 1_555 1_555
C139_15 C136_15 1_555 1_555
H84_15 C139_15 1_555 1_555
C141_15 H85_15 1_555 1_555
C142_15 N41_15 1_555 1_555
C143_15 C144_15 1_555 1_555
C146_15 N36_15 1_555 1_555
H88_15 C146_15 1_555 1_555
H89_15 C146_15 1_555 1_555
C149_15 C134_15 1_555 1_555
H90_15 C149_15 1_555 1_555
C150_15 C141_15 1_555 1_555
H91_15 C150_15 1_555 1_555
C151_15 O46_3 1_555 1_555
C152_15 C143_15 1_555 1_555
H92_15 C152_15 1_555 1_555
C105_15 C111_15 1_555 1_555
C129_15 C130_15 1_555 1_555
C131_15 C137_15 1_555 1_555
C131_15 C138_15 1_555 1_555
C132_15 C142_15 1_555 1_555
C134_15 C146_15 1_555 1_555
C135_15 C142_15 1_555 1_555
C136_15 C151_15 1_555 1_555
C138_15 C139_15 1_555 1_555
C143_15 C150_15 1_555 1_555
C149_15 C152_15 1_555 1_555
Zn11_7 O1_8 1_555 1_555
O1_8 C10_8 1_555 1_555
O42_2 C14_8 1_555 1_555
O3_8 C14_8 1_555 1_555
N1_8 N7_8 1_555 1_555
N2_8 N5_8 1_555 1_555
O4_8 C21_8 1_555 1_555
N3_8 N5_8 1_555 1_555
O5_8 C10_8 1_555 1_555
N4_8 C2_8 1_555 1_555
N6_8 N7_8 1_555 1_555
O46_13 C21_8 1_555 1_555
C1_8 N3_8 1_555 1_555
C2_8 C3_8 1_555 1_555
C3_8 H1_8 1_555 1_555
C4_8 C11_8 1_555 1_555
C5_8 N1_8 1_555 1_555
H2_8 C5_8 1_555 1_555
C6_8 C3_8 1_555 1_555
C7_8 N2_8 1_555 1_555
H3_8 C7_8 1_555 1_555
C8_8 N4_8 1_555 1_555
C9_8 C6_8 1_555 1_555
H4_8 C9_8 1_555 1_555
C10_8 C18_8 1_555 1_555
C11_8 H5_8 1_555 1_555
C12_8 N6_8 1_555 1_555
C13_8 C14_8 1_555 1_555
C15_8 N2_8 1_555 1_555
H6_8 C15_8 1_555 1_555
H7_8 C15_8 1_555 1_555
C16_8 N1_8 1_555 1_555
H8_8 C16_8 1_555 1_555
H9_8 C16_8 1_555 1_555
C17_8 C15_8 1_555 1_555
C18_8 C24_8 1_555 1_555
C19_8 C4_8 1_555 1_555
H10_8 C19_8 1_555 1_555
C20_8 C11_8 1_555 1_555
H11_8 C20_8 1_555 1_555
C21_8 C6_8 1_555 1_555
C22_8 C13_8 1_555 1_555
H12_8 C22_8 1_555 1_555
C23_8 C17_8 1_555 1_555
H13_8 C23_8 1_555 1_555
C24_8 C23_8 1_555 1_555
H14_8 C24_8 1_555 1_555
C25_8 C17_8 1_555 1_555
H15_8 C25_8 1_555 1_555
C26_8 C18_8 1_555 1_555
H16_8 C26_8 1_555 1_555
Zn11_11 O7_8 1_555 1_555
O7_8 C36_8 1_555 1_555
O42_6 C40_8 1_555 1_555
O9_8 C40_8 1_555 1_555
N8_8 N14_8 1_555 1_555
N9_8 N12_8 1_555 1_555
O10_8 C47_8 1_555 1_555
N10_8 Zn11_7 1_555 1_555
O11_8 C36_8 1_555 1_555
N11_8 Zn11_7 1_555 1_555
N12_8 N10_8 1_555 1_555
N13_8 Zn11_7 1_555 1_555
N14_8 N13_8 1_555 1_555
O45_16 C47_8 1_555 1_555
C27_8 N10_8 1_555 1_555
C28_8 N11_8 1_555 1_555
C29_8 C28_8 1_555 1_555
H17_8 C29_8 1_555 1_555
C30_8 C37_8 1_555 1_555
C31_8 N8_8 1_555 1_555
H18_8 C31_8 1_555 1_555
C32_8 C29_8 1_555 1_555
C33_8 N9_8 1_555 1_555
H19_8 C33_8 1_555 1_555
C34_8 N11_8 1_555 1_555
C35_8 C32_8 1_555 1_555
H20_8 C35_8 1_555 1_555
C36_8 C44_8 1_555 1_555
C37_8 H21_8 1_555 1_555
C38_8 N13_8 1_555 1_555
C39_8 C40_8 1_555 1_555
C41_8 N9_8 1_555 1_555
H22_8 C41_8 1_555 1_555
H23_8 C41_8 1_555 1_555
C42_8 N8_8 1_555 1_555
H24_8 C42_8 1_555 1_555
H25_8 C42_8 1_555 1_555
C43_8 C41_8 1_555 1_555
C44_8 C50_8 1_555 1_555
C45_8 C30_8 1_555 1_555
H26_8 C45_8 1_555 1_555
C46_8 C37_8 1_555 1_555
H27_8 C46_8 1_555 1_555
C47_8 C32_8 1_555 1_555
C48_8 C39_8 1_555 1_555
H28_8 C48_8 1_555 1_555
C49_8 C43_8 1_555 1_555
H29_8 C49_8 1_555 1_555
C50_8 C49_8 1_555 1_555
H30_8 C50_8 1_555 1_555
C51_8 C43_8 1_555 1_555
H31_8 C51_8 1_555 1_555
C52_8 C44_8 1_555 1_555
H32_8 C52_8 1_555 1_555
Zn11_3 N3_8 1_555 1_555
O13_8 Zn11_3 1_555 1_555
O42_10 C66_8 1_555 1_555
O15_8 C66_8 1_555 1_555
N15_8 N21_8 1_555 1_555
N16_8 N19_8 1_555 1_555
O16_8 C73_8 1_555 1_555
N17_8 Zn11_11 1_555 1_555
O17_8 C62_8 1_555 1_555
N18_8 Zn11_11 1_555 1_555
N19_8 N17_8 1_555 1_555
N20_8 Zn11_11 1_555 1_555
N21_8 N20_8 1_555 1_555
O44_14 C73_8 1_555 1_555
C53_8 N17_8 1_555 1_555
C54_8 N18_8 1_555 1_555
C55_8 C54_8 1_555 1_555
H33_8 C55_8 1_555 1_555
C56_8 C63_8 1_555 1_555
C57_8 N15_8 1_555 1_555
H34_8 C57_8 1_555 1_555
C58_8 C55_8 1_555 1_555
C59_8 N16_8 1_555 1_555
H35_8 C59_8 1_555 1_555
C60_8 N18_8 1_555 1_555
C61_8 C58_8 1_555 1_555
H36_8 C61_8 1_555 1_555
C62_8 O13_8 1_555 1_555
C63_8 H37_8 1_555 1_555
C64_8 N20_8 1_555 1_555
C65_8 C66_8 1_555 1_555
C67_8 N16_8 1_555 1_555
H38_8 C67_8 1_555 1_555
H39_8 C67_8 1_555 1_555
C68_8 N15_8 1_555 1_555
H40_8 C68_8 1_555 1_555
H41_8 C68_8 1_555 1_555
C69_8 C67_8 1_555 1_555
C70_8 C62_8 1_555 1_555
C71_8 C56_8 1_555 1_555
H42_8 C71_8 1_555 1_555
C72_8 C63_8 1_555 1_555
H43_8 C72_8 1_555 1_555
C73_8 C58_8 1_555 1_555
C74_8 C65_8 1_555 1_555
H44_8 C74_8 1_555 1_555
C75_8 C69_8 1_555 1_555
H45_8 C75_8 1_555 1_555
C76_8 C70_8 1_555 1_555
H46_8 C76_8 1_555 1_555
C77_8 C69_8 1_555 1_555
H47_8 C77_8 1_555 1_555
C78_8 C70_8 1_555 1_555
H48_8 C78_8 1_555 1_555
O42_3 C92_16 1_555 1_555
O21_16 C92_16 1_555 1_555
N22_16 N28_16 1_555 1_555
O22_16 C99_16 1_555 1_555
N25_16 C80_16 1_555 1_555
N27_16 N28_16 1_555 1_555
O46_14 C99_16 1_555 1_555
C80_16 C81_16 1_555 1_555
C81_16 H49_16 1_555 1_555
C82_16 C89_16 1_555 1_555
C83_16 N22_16 1_555 1_555
H50_16 C83_16 1_555 1_555
C84_16 C81_16 1_555 1_555
C86_16 N25_16 1_555 1_555
C87_16 C84_16 1_555 1_555
H52_16 C87_16 1_555 1_555
C89_16 H53_16 1_555 1_555
C90_16 N27_16 1_555 1_555
C91_16 C92_16 1_555 1_555
C94_16 N22_16 1_555 1_555
H56_16 C94_16 1_555 1_555
H57_16 C94_16 1_555 1_555
C97_16 C82_16 1_555 1_555
H58_16 C97_16 1_555 1_555
C98_16 C89_16 1_555 1_555
H59_16 C98_16 1_555 1_555
C99_16 C84_16 1_555 1_555
C100_16 C91_16 1_555 1_555
H60_16 C100_16 1_555 1_555
O31_16 Zn11_2 1_555 1_555
O35_16 C140_16 1_555 1_555
C140_16 O31_16 1_555 1_555
H87_16 C145_16 1_555 1_555
C147_16 C145_16 1_555 1_555
C148_16 C140_16 1_555 1_555
C153_16 C147_16 1_555 1_555
H93_16 C153_16 1_555 1_555
C154_16 C148_16 1_555 1_555
H94_16 C154_16 1_555 1_555
C155_16 C147_16 1_555 1_555
H95_16 C155_16 1_555 1_555
C156_16 C148_16 1_555 1_555
H96_16 C156_16 1_555 1_555
N4_8 Zn11_3 1_555 1_555
N6_8 Zn11_3 1_555 1_555
C1_8 C7_8 1_555 1_555
C1_8 C8_8 1_555 1_555
C2_8 C12_8 1_555 1_555
C4_8 C16_8 1_555 1_555
C5_8 C12_8 1_555 1_555
C8_8 C9_8 1_555 1_555
C13_8 C20_8 1_555 1_555
C19_8 C22_8 1_555 1_555
C25_8 C26_8 1_555 1_555
C27_8 C33_8 1_555 1_555
C27_8 C34_8 1_555 1_555
C28_8 C38_8 1_555 1_555
C30_8 C42_8 1_555 1_555
C31_8 C38_8 1_555 1_555
C34_8 C35_8 1_555 1_555
C39_8 C46_8 1_555 1_555
C45_8 C48_8 1_555 1_555
C51_8 C52_8 1_555 1_555
C53_8 C59_8 1_555 1_555
C53_8 C60_8 1_555 1_555
C54_8 C64_8 1_555 1_555
C56_8 C68_8 1_555 1_555
C57_8 C64_8 1_555 1_555
C60_8 C61_8 1_555 1_555
C65_8 C72_8 1_555 1_555
C71_8 C74_8 1_555 1_555
C75_8 C76_8 1_555 1_555
C77_8 C78_8 1_555 1_555
N25_16 Zn11_2 1_555 1_555
N27_16 Zn11_2 1_555 1_555
C80_16 C90_16 1_555 1_555
C82_16 C94_16 1_555 1_555
C83_16 C90_16 1_555 1_555
C86_16 C87_16 1_555 1_555
C91_16 C98_16 1_555 1_555
C97_16 C100_16 1_555 1_555
C153_16 C154_16 1_555 1_555
C155_16 C156_16 1_555 1_555
Zn11_9 O25_16 1_555 1_555
O25_16 C114_16 1_555 1_555
O29_16 C114_16 1_555 1_555
C114_16 C122_16 1_555 1_555
H71_16 C119_16 1_555 1_555
C121_16 C119_16 1_555 1_555
C122_16 C128_16 1_555 1_555
C127_16 C121_16 1_555 1_555
H77_16 C127_16 1_555 1_555
C128_16 C127_16 1_555 1_555
H78_16 C128_16 1_555 1_555
C129_16 C121_16 1_555 1_555
H79_16 C129_16 1_555 1_555
C130_16 C122_16 1_555 1_555
H80_16 C130_16 1_555 1_555
O42_12 C144_16 1_555 1_555
O33_16 C144_16 1_555 1_555
N36_16 N42_16 1_555 1_555
N37_16 N40_16 1_555 1_555
O34_16 C151_16 1_555 1_555
N38_16 Zn11_9 1_555 1_555
N39_16 Zn11_9 1_555 1_555
N40_16 N38_16 1_555 1_555
N41_16 Zn11_9 1_555 1_555
N42_16 N41_16 1_555 1_555
C131_16 N38_16 1_555 1_555
C132_16 N39_16 1_555 1_555
C133_16 C132_16 1_555 1_555
H81_16 C133_16 1_555 1_555
C134_16 C141_16 1_555 1_555
C135_16 N36_16 1_555 1_555
H82_16 C135_16 1_555 1_555
C136_16 C133_16 1_555 1_555
C137_16 N37_16 1_555 1_555
C138_16 N39_16 1_555 1_555
C139_16 C136_16 1_555 1_555
H84_16 C139_16 1_555 1_555
C141_16 H85_16 1_555 1_555
C142_16 N41_16 1_555 1_555
C143_16 C144_16 1_555 1_555
C146_16 N36_16 1_555 1_555
H88_16 C146_16 1_555 1_555
H89_16 C146_16 1_555 1_555
C149_16 C134_16 1_555 1_555
H90_16 C149_16 1_555 1_555
C150_16 C141_16 1_555 1_555
H91_16 C150_16 1_555 1_555
C151_16 O44_13 1_555 1_555
C152_16 C143_16 1_555 1_555
H92_16 C152_16 1_555 1_555
C129_16 C130_16 1_555 1_555
C131_16 C137_16 1_555 1_555
C131_16 C138_16 1_555 1_555
C132_16 C142_16 1_555 1_555
C134_16 C146_16 1_555 1_555
C135_16 C142_16 1_555 1_555
C136_16 C151_16 1_555 1_555
C138_16 C139_16 1_555 1_555
C143_16 C150_16 1_555 1_555
C149_16 C152_16 1_555 1_555
Zn11_8 O19_16 1_555 1_555
O19_16 C88_16 1_555 1_555
N23_16 N26_16 1_555 1_555
N24_16 N26_16 1_555 1_555
O23_16 C88_16 1_555 1_555
C79_16 N24_16 1_555 1_555
C85_16 N23_16 1_555 1_555
H51_16 C85_16 1_555 1_555
C88_16 C96_16 1_555 1_555
C93_16 N23_16 1_555 1_555
H54_16 C93_16 1_555 1_555
H55_16 C93_16 1_555 1_555
C95_16 C93_16 1_555 1_555
C96_16 C102_16 1_555 1_555
C101_16 C95_16 1_555 1_555
H61_16 C101_16 1_555 1_555
C102_16 C101_16 1_555 1_555
H62_16 C102_16 1_555 1_555
C103_16 C95_16 1_555 1_555
H63_16 C103_16 1_555 1_555
C104_16 C96_16 1_555 1_555
H64_16 C104_16 1_555 1_555
O42_5 C118_16 1_555 1_555
O27_16 C118_16 1_555 1_555
N29_16 N35_16 1_555 1_555
O28_16 C125_16 1_555 1_555
N32_16 Zn11_8 1_555 1_555
N34_16 Zn11_8 1_555 1_555
N35_16 N34_16 1_555 1_555
O45_15 C125_16 1_555 1_555
C106_16 N32_16 1_555 1_555
C107_16 C106_16 1_555 1_555
H65_16 C107_16 1_555 1_555
C108_16 C115_16 1_555 1_555
C109_16 N29_16 1_555 1_555
H66_16 C109_16 1_555 1_555
C110_16 C107_16 1_555 1_555
C112_16 N32_16 1_555 1_555
C113_16 C110_16 1_555 1_555
H68_16 C113_16 1_555 1_555
C115_16 H69_16 1_555 1_555
C116_16 N34_16 1_555 1_555
C117_16 C118_16 1_555 1_555
C120_16 N29_16 1_555 1_555
H72_16 C120_16 1_555 1_555
H73_16 C120_16 1_555 1_555
C123_16 C108_16 1_555 1_555
H74_16 C123_16 1_555 1_555
C124_16 C115_16 1_555 1_555
H75_16 C124_16 1_555 1_555
C125_16 C110_16 1_555 1_555
C126_16 C117_16 1_555 1_555
H76_16 C126_16 1_555 1_555
C79_16 C85_16 1_555 1_555
C103_16 C104_16 1_555 1_555
C106_16 C116_16 1_555 1_555
C108_16 C120_16 1_555 1_555
C109_16 C116_16 1_555 1_555
C112_16 C113_16 1_555 1_555
C117_16 C124_16 1_555 1_555
C123_16 C126_16 1_555 1_555
N30_16 N33_16 1_555 1_555
N33_16 N31_16 1_555 1_555
C105_16 N31_16 1_555 1_555
C111_16 N30_16 1_555 1_555
C105_16 C111_16 1_555 1_555
Zn12_4 O19_17 1_555 1_555
O19_17 C88_17 1_555 1_555
O40 C92_17 1_555 1_555
O21_17 C92_17 1_555 1_555
N22_17 N28_17 1_555 1_555
N23_17 N26_17 1_555 1_555
O22_17 C99_17 1_555 1_555
N24_17 N26_17 1_555 1_555
O23_17 C88_17 1_555 1_555
N25_17 C80_17 1_555 1_555
N27_17 N28_17 1_555 1_555
O46_9 C99_17 1_555 1_555
C79_17 N24_17 1_555 1_555
C80_17 C81_17 1_555 1_555
C81_17 H49_17 1_555 1_555
C82_17 C89_17 1_555 1_555
C83_17 N22_17 1_555 1_555
H50_17 C83_17 1_555 1_555
C84_17 C81_17 1_555 1_555
C85_17 N23_17 1_555 1_555
H51_17 C85_17 1_555 1_555
C86_17 N25_17 1_555 1_555
C87_17 C84_17 1_555 1_555
H52_17 C87_17 1_555 1_555
C88_17 C96_17 1_555 1_555
C89_17 H53_17 1_555 1_555
C90_17 N27_17 1_555 1_555
C91_17 C92_17 1_555 1_555
C93_17 N23_17 1_555 1_555
H54_17 C93_17 1_555 1_555
H55_17 C93_17 1_555 1_555
C94_17 N22_17 1_555 1_555
H56_17 C94_17 1_555 1_555
H57_17 C94_17 1_555 1_555
C95_17 C93_17 1_555 1_555
C96_17 C102_17 1_555 1_555
C97_17 C82_17 1_555 1_555
H58_17 C97_17 1_555 1_555
C98_17 C89_17 1_555 1_555
H59_17 C98_17 1_555 1_555
C99_17 C84_17 1_555 1_555
C100_17 C91_17 1_555 1_555
H60_17 C100_17 1_555 1_555
C101_17 C95_17 1_555 1_555
H61_17 C101_17 1_555 1_555
C102_17 C101_17 1_555 1_555
H62_17 C102_17 1_555 1_555
C103_17 C95_17 1_555 1_555
H63_17 C103_17 1_555 1_555
C104_17 C96_17 1_555 1_555
H64_17 C104_17 1_555 1_555
Zn9_10 O25_17 1_555 1_555
O25_17 C114_17 1_555 1_555
O38_3 C118_17 1_555 1_555
O27_17 C118_17 1_555 1_555
N29_17 N35_17 1_555 1_555
N30_17 N33_17 1_555 1_555
O28_17 C125_17 1_555 1_555
N31_17 Zn12_4 1_555 1_555
O29_17 C114_17 1_555 1_555
N32_17 Zn12_4 1_555 1_555
N33_17 N31_17 1_555 1_555
N34_17 Zn12_4 1_555 1_555
N35_17 N34_17 1_555 1_555
O45_12 C125_17 1_555 1_555
C105_17 N31_17 1_555 1_555
C106_17 N32_17 1_555 1_555
C107_17 C106_17 1_555 1_555
H65_17 C107_17 1_555 1_555
C108_17 C115_17 1_555 1_555
C109_17 N29_17 1_555 1_555
H66_17 C109_17 1_555 1_555
C110_17 C107_17 1_555 1_555
C111_17 N30_17 1_555 1_555
H67_17 C111_17 1_555 1_555
C112_17 N32_17 1_555 1_555
C113_17 C110_17 1_555 1_555
H68_17 C113_17 1_555 1_555
C114_17 C122_17 1_555 1_555
C115_17 H69_17 1_555 1_555
C116_17 N34_17 1_555 1_555
C117_17 C118_17 1_555 1_555
C119_17 N30_17 1_555 1_555
H70_17 C119_17 1_555 1_555
H71_17 C119_17 1_555 1_555
C120_17 N29_17 1_555 1_555
H72_17 C120_17 1_555 1_555
H73_17 C120_17 1_555 1_555
C121_17 C119_17 1_555 1_555
C122_17 C128_17 1_555 1_555
C123_17 C108_17 1_555 1_555
H74_17 C123_17 1_555 1_555
C124_17 C115_17 1_555 1_555
H75_17 C124_17 1_555 1_555
C125_17 C110_17 1_555 1_555
C126_17 C117_17 1_555 1_555
H76_17 C126_17 1_555 1_555
C127_17 C121_17 1_555 1_555
H77_17 C127_17 1_555 1_555
C128_17 C127_17 1_555 1_555
H78_17 C128_17 1_555 1_555
C129_17 C121_17 1_555 1_555
H79_17 C129_17 1_555 1_555
C130_17 C122_17 1_555 1_555
H80_17 C130_17 1_555 1_555
Zn8_3 N24_17 1_555 1_555
O31_17 Zn8_3 1_555 1_555
O39_12 C144_17 1_555 1_555
O33_17 C144_17 1_555 1_555
N36_17 N42_17 1_555 1_555
N37_17 N40_17 1_555 1_555
O34_17 C151_17 1_555 1_555
N38_17 Zn9_10 1_555 1_555
O35_17 C140_17 1_555 1_555
N39_17 Zn9_10 1_555 1_555
N40_17 N38_17 1_555 1_555
N41_17 Zn9_10 1_555 1_555
N42_17 N41_17 1_555 1_555
C131_17 N38_17 1_555 1_555
C132_17 N39_17 1_555 1_555
C133_17 C132_17 1_555 1_555
H81_17 C133_17 1_555 1_555
C134_17 C141_17 1_555 1_555
C135_17 N36_17 1_555 1_555
H82_17 C135_17 1_555 1_555
C136_17 C133_17 1_555 1_555
C137_17 N37_17 1_555 1_555
H83_17 C137_17 1_555 1_555
C138_17 N39_17 1_555 1_555
C139_17 C136_17 1_555 1_555
H84_17 C139_17 1_555 1_555
C140_17 O31_17 1_555 1_555
C141_17 H85_17 1_555 1_555
C142_17 N41_17 1_555 1_555
C143_17 C144_17 1_555 1_555
C145_17 N37_17 1_555 1_555
H86_17 C145_17 1_555 1_555
H87_17 C145_17 1_555 1_555
C146_17 N36_17 1_555 1_555
H88_17 C146_17 1_555 1_555
H89_17 C146_17 1_555 1_555
C147_17 C145_17 1_555 1_555
C148_17 C140_17 1_555 1_555
C149_17 C134_17 1_555 1_555
H90_17 C149_17 1_555 1_555
C150_17 C141_17 1_555 1_555
H91_17 C150_17 1_555 1_555
C151_17 O44_10 1_555 1_555
C152_17 C143_17 1_555 1_555
H92_17 C152_17 1_555 1_555
C153_17 C147_17 1_555 1_555
H93_17 C153_17 1_555 1_555
C154_17 C148_17 1_555 1_555
H94_17 C154_17 1_555 1_555
C155_17 C147_17 1_555 1_555
H95_17 C155_17 1_555 1_555
C156_17 C148_17 1_555 1_555
H96_17 C156_17 1_555 1_555
N25_17 Zn8_3 1_555 1_555
N27_17 Zn8_3 1_555 1_555
C79_17 C85_17 1_555 1_555
C79_17 C86_17 1_555 1_555
C80_17 C90_17 1_555 1_555
C82_17 C94_17 1_555 1_555
C83_17 C90_17 1_555 1_555
C86_17 C87_17 1_555 1_555
C91_17 C98_17 1_555 1_555
C97_17 C100_17 1_555 1_555
C103_17 C104_17 1_555 1_555
C105_17 C111_17 1_555 1_555
C105_17 C112_17 1_555 1_555
C106_17 C116_17 1_555 1_555
C108_17 C120_17 1_555 1_555
C109_17 C116_17 1_555 1_555
C112_17 C113_17 1_555 1_555
C117_17 C124_17 1_555 1_555
C123_17 C126_17 1_555 1_555
C129_17 C130_17 1_555 1_555
C131_17 C137_17 1_555 1_555
C131_17 C138_17 1_555 1_555
C132_17 C142_17 1_555 1_555
C134_17 C146_17 1_555 1_555
C135_17 C142_17 1_555 1_555
C136_17 C151_17 1_555 1_555
C138_17 C139_17 1_555 1_555
C143_17 C150_17 1_555 1_555
C149_17 C152_17 1_555 1_555
C153_17 C154_17 1_555 1_555
C155_17 C156_17 1_555 1_555
O39 C92_18 1_555 1_555
O21_18 C92_18 1_555 1_555
N22_18 N28_18 1_555 1_555
O22_18 C99_18 1_555 1_555
N25_18 C80_18 1_555 1_555
N27_18 N28_18 1_555 1_555
O44_3 C99_18 1_555 1_555
C80_18 C81_18 1_555 1_555
C81_18 H49_18 1_555 1_555
C82_18 C89_18 1_555 1_555
C83_18 N22_18 1_555 1_555
H50_18 C83_18 1_555 1_555
C84_18 C81_18 1_555 1_555
C86_18 N25_18 1_555 1_555
C87_18 C84_18 1_555 1_555
H52_18 C87_18 1_555 1_555
C89_18 H53_18 1_555 1_555
C90_18 N27_18 1_555 1_555
C91_18 C92_18 1_555 1_555
C94_18 N22_18 1_555 1_555
H56_18 C94_18 1_555 1_555
H57_18 C94_18 1_555 1_555
C97_18 C82_18 1_555 1_555
H58_18 C97_18 1_555 1_555
C98_18 C89_18 1_555 1_555
H59_18 C98_18 1_555 1_555
C99_18 C84_18 1_555 1_555
C100_18 C91_18 1_555 1_555
H60_18 C100_18 1_555 1_555
Zn12_7 O25_18 1_555 1_555
O25_18 C114_18 1_555 1_555
O29_18 C114_18 1_555 1_555
C114_18 C122_18 1_555 1_555
H71_18 C119_18 1_555 1_555
C121_18 C119_18 1_555 1_555
C122_18 C128_18 1_555 1_555
C127_18 C121_18 1_555 1_555
H77_18 C127_18 1_555 1_555
C128_18 C127_18 1_555 1_555
H78_18 C128_18 1_555 1_555
C129_18 C121_18 1_555 1_555
H79_18 C129_18 1_555 1_555
C130_18 C122_18 1_555 1_555
H80_18 C130_18 1_555 1_555
O31_18 Zn9_3 1_555 1_555
O38_8 C144_18 1_555 1_555
O33_18 C144_18 1_555 1_555
N36_18 N42_18 1_555 1_555
N37_18 N40_18 1_555 1_555
O34_18 C151_18 1_555 1_555
N38_18 Zn12_7 1_555 1_555
O35_18 C140_18 1_555 1_555
N39_18 Zn12_7 1_555 1_555
N40_18 N38_18 1_555 1_555
N41_18 Zn12_7 1_555 1_555
N42_18 N41_18 1_555 1_555
C131_18 N38_18 1_555 1_555
C132_18 N39_18 1_555 1_555
C133_18 C132_18 1_555 1_555
H81_18 C133_18 1_555 1_555
C134_18 C141_18 1_555 1_555
C135_18 N36_18 1_555 1_555
H82_18 C135_18 1_555 1_555
C136_18 C133_18 1_555 1_555
C137_18 N37_18 1_555 1_555
H83_18 C137_18 1_555 1_555
C138_18 N39_18 1_555 1_555
C139_18 C136_18 1_555 1_555
H84_18 C139_18 1_555 1_555
C140_18 O31_18 1_555 1_555
C141_18 H85_18 1_555 1_555
C142_18 N41_18 1_555 1_555
C143_18 C144_18 1_555 1_555
C145_18 N37_18 1_555 1_555
H86_18 C145_18 1_555 1_555
H87_18 C145_18 1_555 1_555
C146_18 N36_18 1_555 1_555
H88_18 C146_18 1_555 1_555
H89_18 C146_18 1_555 1_555
C147_18 C145_18 1_555 1_555
C148_18 C140_18 1_555 1_555
C149_18 C134_18 1_555 1_555
H90_18 C149_18 1_555 1_555
C150_18 C141_18 1_555 1_555
H91_18 C150_18 1_555 1_555
C151_18 O45 1_555 1_555
C152_18 C143_18 1_555 1_555
H92_18 C152_18 1_555 1_555
C153_18 C147_18 1_555 1_555
H93_18 C153_18 1_555 1_555
C154_18 C148_18 1_555 1_555
H94_18 C154_18 1_555 1_555
C155_18 C147_18 1_555 1_555
H95_18 C155_18 1_555 1_555
C156_18 C148_18 1_555 1_555
H96_18 C156_18 1_555 1_555
N25_18 Zn9_3 1_555 1_555
N27_18 Zn9_3 1_555 1_555
C80_18 C90_18 1_555 1_555
C82_18 C94_18 1_555 1_555
C83_18 C90_18 1_555 1_555
C86_18 C87_18 1_555 1_555
C91_18 C98_18 1_555 1_555
C97_18 C100_18 1_555 1_555
C129_18 C130_18 1_555 1_555
C131_18 C137_18 1_555 1_555
C131_18 C138_18 1_555 1_555
C132_18 C142_18 1_555 1_555
C134_18 C146_18 1_555 1_555
C135_18 C142_18 1_555 1_555
C136_18 C151_18 1_555 1_555
C138_18 C139_18 1_555 1_555
C143_18 C150_18 1_555 1_555
C149_18 C152_18 1_555 1_555
C153_18 C154_18 1_555 1_555
C155_18 C156_18 1_555 1_555
Zn13_4 O19_18 1_555 1_555
O19_18 C88_18 1_555 1_555
N23_18 N26_18 1_555 1_555
N24_18 N26_18 1_555 1_555
O23_18 C88_18 1_555 1_555
C79_18 N24_18 1_555 1_555
C85_18 N23_18 1_555 1_555
H51_18 C85_18 1_555 1_555
C88_18 C96_18 1_555 1_555
C93_18 N23_18 1_555 1_555
H54_18 C93_18 1_555 1_555
H55_18 C93_18 1_555 1_555
C95_18 C93_18 1_555 1_555
C96_18 C102_18 1_555 1_555
C101_18 C95_18 1_555 1_555
H61_18 C101_18 1_555 1_555
C102_18 C101_18 1_555 1_555
H62_18 C102_18 1_555 1_555
C103_18 C95_18 1_555 1_555
H63_18 C103_18 1_555 1_555
C104_18 C96_18 1_555 1_555
H64_18 C104_18 1_555 1_555
O37_3 C118_18 1_555 1_555
O27_18 C118_18 1_555 1_555
N29_18 N35_18 1_555 1_555
N30_18 N33_18 1_555 1_555
O28_18 C125_18 1_555 1_555
N31_18 Zn13_4 1_555 1_555
N32_18 Zn13_4 1_555 1_555
N33_18 N31_18 1_555 1_555
N34_18 Zn13_4 1_555 1_555
N35_18 N34_18 1_555 1_555
O46_4 C125_18 1_555 1_555
C105_18 N31_18 1_555 1_555
C106_18 N32_18 1_555 1_555
C107_18 C106_18 1_555 1_555
H65_18 C107_18 1_555 1_555
C108_18 C115_18 1_555 1_555
C109_18 N29_18 1_555 1_555
H66_18 C109_18 1_555 1_555
C110_18 C107_18 1_555 1_555
C111_18 N30_18 1_555 1_555
C112_18 N32_18 1_555 1_555
C113_18 C110_18 1_555 1_555
H68_18 C113_18 1_555 1_555
C115_18 H69_18 1_555 1_555
C116_18 N34_18 1_555 1_555
C117_18 C118_18 1_555 1_555
C120_18 N29_18 1_555 1_555
H72_18 C120_18 1_555 1_555
H73_18 C120_18 1_555 1_555
C123_18 C108_18 1_555 1_555
H74_18 C123_18 1_555 1_555
C124_18 C115_18 1_555 1_555
H75_18 C124_18 1_555 1_555
C125_18 C110_18 1_555 1_555
C126_18 C117_18 1_555 1_555
H76_18 C126_18 1_555 1_555
C79_18 C85_18 1_555 1_555
C103_18 C104_18 1_555 1_555
C105_18 C111_18 1_555 1_555
C105_18 C112_18 1_555 1_555
C106_18 C116_18 1_555 1_555
C108_18 C120_18 1_555 1_555
C109_18 C116_18 1_555 1_555
C112_18 C113_18 1_555 1_555
C117_18 C124_18 1_555 1_555
C123_18 C126_18 1_555 1_555
Zn9_8 O19_19 1_555 1_555
O19_19 C88_19 1_555 1_555
O38_10 C92_19 1_555 1_555
O21_19 C92_19 1_555 1_555
N22_19 N28_19 1_555 1_555
N23_19 N26_19 1_555 1_555
O22_19 C99_19 1_555 1_555
N24_19 N26_19 1_555 1_555
O23_19 C88_19 1_555 1_555
N25_19 C80_19 1_555 1_555
N27_19 N28_19 1_555 1_555
O45_6 C99_19 1_555 1_555
C79_19 N24_19 1_555 1_555
C80_19 C81_19 1_555 1_555
C81_19 H49_19 1_555 1_555
C82_19 C89_19 1_555 1_555
C83_19 N22_19 1_555 1_555
H50_19 C83_19 1_555 1_555
C84_19 C81_19 1_555 1_555
C85_19 N23_19 1_555 1_555
H51_19 C85_19 1_555 1_555
C86_19 N25_19 1_555 1_555
C87_19 C84_19 1_555 1_555
H52_19 C87_19 1_555 1_555
C88_19 C96_19 1_555 1_555
C89_19 H53_19 1_555 1_555
C90_19 N27_19 1_555 1_555
C91_19 C92_19 1_555 1_555
C93_19 N23_19 1_555 1_555
H54_19 C93_19 1_555 1_555
H55_19 C93_19 1_555 1_555
C94_19 N22_19 1_555 1_555
H56_19 C94_19 1_555 1_555
H57_19 C94_19 1_555 1_555
C95_19 C93_19 1_555 1_555
C96_19 C102_19 1_555 1_555
C97_19 C82_19 1_555 1_555
H58_19 C97_19 1_555 1_555
C98_19 C89_19 1_555 1_555
H59_19 C98_19 1_555 1_555
C99_19 C84_19 1_555 1_555
C100_19 C91_19 1_555 1_555
H60_19 C100_19 1_555 1_555
C101_19 C95_19 1_555 1_555
H61_19 C101_19 1_555 1_555
C102_19 C101_19 1_555 1_555
H62_19 C102_19 1_555 1_555
C103_19 C95_19 1_555 1_555
H63_19 C103_19 1_555 1_555
C104_19 C96_19 1_555 1_555
H64_19 C104_19 1_555 1_555
O39_6 C118_19 1_555 1_555
O27_19 C118_19 1_555 1_555
N29_19 N35_19 1_555 1_555
O28_19 C125_19 1_555 1_555
N32_19 Zn9_8 1_555 1_555
N34_19 Zn9_8 1_555 1_555
N35_19 N34_19 1_555 1_555
O44_8 C125_19 1_555 1_555
C106_19 N32_19 1_555 1_555
C107_19 C106_19 1_555 1_555
H65_19 C107_19 1_555 1_555
C108_19 C115_19 1_555 1_555
C109_19 N29_19 1_555 1_555
H66_19 C109_19 1_555 1_555
C110_19 C107_19 1_555 1_555
C112_19 N32_19 1_555 1_555
C113_19 C110_19 1_555 1_555
H68_19 C113_19 1_555 1_555
C115_19 H69_19 1_555 1_555
C116_19 N34_19 1_555 1_555
C117_19 C118_19 1_555 1_555
C120_19 N29_19 1_555 1_555
H72_19 C120_19 1_555 1_555
H73_19 C120_19 1_555 1_555
C123_19 C108_19 1_555 1_555
H74_19 C123_19 1_555 1_555
C124_19 C115_19 1_555 1_555
H75_19 C124_19 1_555 1_555
C125_19 C110_19 1_555 1_555
C126_19 C117_19 1_555 1_555
H76_19 C126_19 1_555 1_555
Zn12_9 N24_19 1_555 1_555
O31_19 Zn12_9 1_555 1_555
O35_19 C140_19 1_555 1_555
C140_19 O31_19 1_555 1_555
H87_19 C145_19 1_555 1_555
C147_19 C145_19 1_555 1_555
C148_19 C140_19 1_555 1_555
C153_19 C147_19 1_555 1_555
H93_19 C153_19 1_555 1_555
C154_19 C148_19 1_555 1_555
H94_19 C154_19 1_555 1_555
C155_19 C147_19 1_555 1_555
H95_19 C155_19 1_555 1_555
C156_19 C148_19 1_555 1_555
H96_19 C156_19 1_555 1_555
N25_19 Zn12_9 1_555 1_555
N27_19 Zn12_9 1_555 1_555
C79_19 C85_19 1_555 1_555
C79_19 C86_19 1_555 1_555
C80_19 C90_19 1_555 1_555
C82_19 C94_19 1_555 1_555
C83_19 C90_19 1_555 1_555
C86_19 C87_19 1_555 1_555
C91_19 C98_19 1_555 1_555
C97_19 C100_19 1_555 1_555
C103_19 C104_19 1_555 1_555
C106_19 C116_19 1_555 1_555
C108_19 C120_19 1_555 1_555
C109_19 C116_19 1_555 1_555
C112_19 C113_19 1_555 1_555
C117_19 C124_19 1_555 1_555
C123_19 C126_19 1_555 1_555
C153_19 C154_19 1_555 1_555
C155_19 C156_19 1_555 1_555
Zn10 O25_19 1_555 1_555
O25_19 C114_19 1_555 1_555
N30_19 N33_19 1_555 1_555
O29_19 C114_19 1_555 1_555
N33_19 N31_19 1_555 1_555
C105_19 N31_19 1_555 1_555
C111_19 N30_19 1_555 1_555
H67_19 C111_19 1_555 1_555
C114_19 C122_19 1_555 1_555
C119_19 N30_19 1_555 1_555
H70_19 C119_19 1_555 1_555
H71_19 C119_19 1_555 1_555
C121_19 C119_19 1_555 1_555
C122_19 C128_19 1_555 1_555
C127_19 C121_19 1_555 1_555
H77_19 C127_19 1_555 1_555
C128_19 C127_19 1_555 1_555
H78_19 C128_19 1_555 1_555
C129_19 C121_19 1_555 1_555
H79_19 C129_19 1_555 1_555
C130_19 C122_19 1_555 1_555
H80_19 C130_19 1_555 1_555
O41_4 C144_19 1_555 1_555
O33_19 C144_19 1_555 1_555
N36_19 N42_19 1_555 1_555
N37_19 N40_19 1_555 1_555
O34_19 C151_19 1_555 1_555
N38_19 Zn10 1_555 1_555
N39_19 Zn10 1_555 1_555
N40_19 N38_19 1_555 1_555
N41_19 Zn10 1_555 1_555
N42_19 N41_19 1_555 1_555
C131_19 N38_19 1_555 1_555
C132_19 N39_19 1_555 1_555
C133_19 C132_19 1_555 1_555
H81_19 C133_19 1_555 1_555
C134_19 C141_19 1_555 1_555
C135_19 N36_19 1_555 1_555
H82_19 C135_19 1_555 1_555
C136_19 C133_19 1_555 1_555
C137_19 N37_19 1_555 1_555
C138_19 N39_19 1_555 1_555
C139_19 C136_19 1_555 1_555
H84_19 C139_19 1_555 1_555
C141_19 H85_19 1_555 1_555
C142_19 N41_19 1_555 1_555
C143_19 C144_19 1_555 1_555
C146_19 N36_19 1_555 1_555
H88_19 C146_19 1_555 1_555
H89_19 C146_19 1_555 1_555
C149_19 C134_19 1_555 1_555
H90_19 C149_19 1_555 1_555
C150_19 C141_19 1_555 1_555
H91_19 C150_19 1_555 1_555
C151_19 O46_7 1_555 1_555
C152_19 C143_19 1_555 1_555
H92_19 C152_19 1_555 1_555
C105_19 C111_19 1_555 1_555
C129_19 C130_19 1_555 1_555
C131_19 C137_19 1_555 1_555
C131_19 C138_19 1_555 1_555
C132_19 C142_19 1_555 1_555
C134_19 C146_19 1_555 1_555
C135_19 C142_19 1_555 1_555
C136_19 C151_19 1_555 1_555
C138_19 C139_19 1_555 1_555
C143_19 C150_19 1_555 1_555
C149_19 C152_19 1_555 1_555
O42_7 C92_20 1_555 1_555
O21_20 C92_20 1_555 1_555
N22_20 N28_20 1_555 1_555
O22_20 C99_20 1_555 1_555
N25_20 C80_20 1_555 1_555
N27_20 N28_20 1_555 1_555
O45_13 C99_20 1_555 1_555
C80_20 C81_20 1_555 1_555
C81_20 H49_20 1_555 1_555
C82_20 C89_20 1_555 1_555
C83_20 N22_20 1_555 1_555
H50_20 C83_20 1_555 1_555
C84_20 C81_20 1_555 1_555
C86_20 N25_20 1_555 1_555
C87_20 C84_20 1_555 1_555
H52_20 C87_20 1_555 1_555
C89_20 H53_20 1_555 1_555
C90_20 N27_20 1_555 1_555
C91_20 C92_20 1_555 1_555
C94_20 N22_20 1_555 1_555
H56_20 C94_20 1_555 1_555
H57_20 C94_20 1_555 1_555
C97_20 C82_20 1_555 1_555
H58_20 C97_20 1_555 1_555
C98_20 C89_20 1_555 1_555
H59_20 C98_20 1_555 1_555
C99_20 C84_20 1_555 1_555
C100_20 C91_20 1_555 1_555
H60_20 C100_20 1_555 1_555
O31_20 Zn11_6 1_555 1_555
O35_20 C140_20 1_555 1_555
C140_20 O31_20 1_555 1_555
H87_20 C145_20 1_555 1_555
C147_20 C145_20 1_555 1_555
C148_20 C140_20 1_555 1_555
C153_20 C147_20 1_555 1_555
H93_20 C153_20 1_555 1_555
C154_20 C148_20 1_555 1_555
H94_20 C154_20 1_555 1_555
C155_20 C147_20 1_555 1_555
H95_20 C155_20 1_555 1_555
C156_20 C148_20 1_555 1_555
H96_20 C156_20 1_555 1_555
N25_20 Zn11_6 1_555 1_555
N27_20 Zn11_6 1_555 1_555
C80_20 C90_20 1_555 1_555
C82_20 C94_20 1_555 1_555
C83_20 C90_20 1_555 1_555
C86_20 C87_20 1_555 1_555
C91_20 C98_20 1_555 1_555
C97_20 C100_20 1_555 1_555
C153_20 C154_20 1_555 1_555
C155_20 C156_20 1_555 1_555
Zn11_12 O19_20 1_555 1_555
O19_20 C88_20 1_555 1_555
N23_20 N26_20 1_555 1_555
N24_20 N26_20 1_555 1_555
O23_20 C88_20 1_555 1_555
C79_20 N24_20 1_555 1_555
C85_20 N23_20 1_555 1_555
H51_20 C85_20 1_555 1_555
C88_20 C96_20 1_555 1_555
C93_20 N23_20 1_555 1_555
H54_20 C93_20 1_555 1_555
H55_20 C93_20 1_555 1_555
C95_20 C93_20 1_555 1_555
C96_20 C102_20 1_555 1_555
C101_20 C95_20 1_555 1_555
H61_20 C101_20 1_555 1_555
C102_20 C101_20 1_555 1_555
H62_20 C102_20 1_555 1_555
C103_20 C95_20 1_555 1_555
H63_20 C103_20 1_555 1_555
C104_20 C96_20 1_555 1_555
H64_20 C104_20 1_555 1_555
O42_9 C118_20 1_555 1_555
O27_20 C118_20 1_555 1_555
N29_20 N35_20 1_555 1_555
O28_20 C125_20 1_555 1_555
N32_20 Zn11_12 1_555 1_555
N34_20 Zn11_12 1_555 1_555
N35_20 N34_20 1_555 1_555
O44_15 C125_20 1_555 1_555
C106_20 N32_20 1_555 1_555
C107_20 C106_20 1_555 1_555
H65_20 C107_20 1_555 1_555
C108_20 C115_20 1_555 1_555
C109_20 N29_20 1_555 1_555
H66_20 C109_20 1_555 1_555
C110_20 C107_20 1_555 1_555
C112_20 N32_20 1_555 1_555
C113_20 C110_20 1_555 1_555
H68_20 C113_20 1_555 1_555
C115_20 H69_20 1_555 1_555
C116_20 N34_20 1_555 1_555
C117_20 C118_20 1_555 1_555
C120_20 N29_20 1_555 1_555
H72_20 C120_20 1_555 1_555
H73_20 C120_20 1_555 1_555
C123_20 C108_20 1_555 1_555
H74_20 C123_20 1_555 1_555
C124_20 C115_20 1_555 1_555
H75_20 C124_20 1_555 1_555
C125_20 C110_20 1_555 1_555
C126_20 C117_20 1_555 1_555
H76_20 C126_20 1_555 1_555
C79_20 C85_20 1_555 1_555
C103_20 C104_20 1_555 1_555
C106_20 C116_20 1_555 1_555
C108_20 C120_20 1_555 1_555
C109_20 C116_20 1_555 1_555
C112_20 C113_20 1_555 1_555
C117_20 C124_20 1_555 1_555
C123_20 C126_20 1_555 1_555
Zn11 O25_20 1_555 1_555
O25_20 C114_20 1_555 1_555
O29_20 C114_20 1_555 1_555
C114_20 C122_20 1_555 1_555
H71_20 C119_20 1_555 1_555
C121_20 C119_20 1_555 1_555
C122_20 C128_20 1_555 1_555
C127_20 C121_20 1_555 1_555
H77_20 C127_20 1_555 1_555
C128_20 C127_20 1_555 1_555
H78_20 C128_20 1_555 1_555
C129_20 C121_20 1_555 1_555
H79_20 C129_20 1_555 1_555
C130_20 C122_20 1_555 1_555
H80_20 C130_20 1_555 1_555
O42_4 C144_20 1_555 1_555
O33_20 C144_20 1_555 1_555
N36_20 N42_20 1_555 1_555
N37_20 N40_20 1_555 1_555
O34_20 C151_20 1_555 1_555
N38_20 Zn11 1_555 1_555
N39_20 Zn11 1_555 1_555
N40_20 N38_20 1_555 1_555
N41_20 Zn11 1_555 1_555
N42_20 N41_20 1_555 1_555
C131_20 N38_20 1_555 1_555
C132_20 N39_20 1_555 1_555
C133_20 C132_20 1_555 1_555
H81_20 C133_20 1_555 1_555
C134_20 C141_20 1_555 1_555
C135_20 N36_20 1_555 1_555
H82_20 C135_20 1_555 1_555
C136_20 C133_20 1_555 1_555
C137_20 N37_20 1_555 1_555
C138_20 N39_20 1_555 1_555
C139_20 C136_20 1_555 1_555
H84_20 C139_20 1_555 1_555
C141_20 H85_20 1_555 1_555
C142_20 N41_20 1_555 1_555
C143_20 C144_20 1_555 1_555
C146_20 N36_20 1_555 1_555
H88_20 C146_20 1_555 1_555
H89_20 C146_20 1_555 1_555
C149_20 C134_20 1_555 1_555
H90_20 C149_20 1_555 1_555
C150_20 C141_20 1_555 1_555
H91_20 C150_20 1_555 1_555
C151_20 O46_16 1_555 1_555
C152_20 C143_20 1_555 1_555
H92_20 C152_20 1_555 1_555
C129_20 C130_20 1_555 1_555
C131_20 C137_20 1_555 1_555
C131_20 C138_20 1_555 1_555
C132_20 C142_20 1_555 1_555
C134_20 C146_20 1_555 1_555
C135_20 C142_20 1_555 1_555
C136_20 C151_20 1_555 1_555
C138_20 C139_20 1_555 1_555
C143_20 C150_20 1_555 1_555
C149_20 C152_20 1_555 1_555
N30_20 N33_20 1_555 1_555
N33_20 N31_20 1_555 1_555
C105_20 N31_20 1_555 1_555
C111_20 N30_20 1_555 1_555
C105_20 C111_20 1_555 1_555
Zn12_8 O19_21 1_555 1_555
O19_21 C88_21 1_555 1_555
O37_2 C92_21 1_555 1_555
O21_21 C92_21 1_555 1_555
N22_21 N28_21 1_555 1_555
N23_21 N26_21 1_555 1_555
O22_21 C99_21 1_555 1_555
N24_21 N26_21 1_555 1_555
O23_21 C88_21 1_555 1_555
N25_21 C80_21 1_555 1_555
N27_21 N28_21 1_555 1_555
O46 C99_21 1_555 1_555
C79_21 N24_21 1_555 1_555
C80_21 C81_21 1_555 1_555
C81_21 H49_21 1_555 1_555
C82_21 C89_21 1_555 1_555
C83_21 N22_21 1_555 1_555
H50_21 C83_21 1_555 1_555
C84_21 C81_21 1_555 1_555
C85_21 N23_21 1_555 1_555
H51_21 C85_21 1_555 1_555
C86_21 N25_21 1_555 1_555
C87_21 C84_21 1_555 1_555
H52_21 C87_21 1_555 1_555
C88_21 C96_21 1_555 1_555
C89_21 H53_21 1_555 1_555
C90_21 N27_21 1_555 1_555
C91_21 C92_21 1_555 1_555
C93_21 N23_21 1_555 1_555
H54_21 C93_21 1_555 1_555
H55_21 C93_21 1_555 1_555
C94_21 N22_21 1_555 1_555
H56_21 C94_21 1_555 1_555
H57_21 C94_21 1_555 1_555
C95_21 C93_21 1_555 1_555
C96_21 C102_21 1_555 1_555
C97_21 C82_21 1_555 1_555
H58_21 C97_21 1_555 1_555
C98_21 C89_21 1_555 1_555
H59_21 C98_21 1_555 1_555
C99_21 C84_21 1_555 1_555
C100_21 C91_21 1_555 1_555
H60_21 C100_21 1_555 1_555
C101_21 C95_21 1_555 1_555
H61_21 C101_21 1_555 1_555
C102_21 C101_21 1_555 1_555
H62_21 C102_21 1_555 1_555
C103_21 C95_21 1_555 1_555
H63_21 C103_21 1_555 1_555
C104_21 C96_21 1_555 1_555
H64_21 C104_21 1_555 1_555
Zn9_2 O25_21 1_555 1_555
O25_21 C114_21 1_555 1_555
O38_7 C118_21 1_555 1_555
O27_21 C118_21 1_555 1_555
N29_21 N35_21 1_555 1_555
N30_21 N33_21 1_555 1_555
O28_21 C125_21 1_555 1_555
N31_21 Zn12_8 1_555 1_555
O29_21 C114_21 1_555 1_555
N32_21 Zn12_8 1_555 1_555
N33_21 N31_21 1_555 1_555
N34_21 Zn12_8 1_555 1_555
N35_21 N34_21 1_555 1_555
O45_4 C125_21 1_555 1_555
C105_21 N31_21 1_555 1_555
C106_21 N32_21 1_555 1_555
C107_21 C106_21 1_555 1_555
H65_21 C107_21 1_555 1_555
C108_21 C115_21 1_555 1_555
C109_21 N29_21 1_555 1_555
H66_21 C109_21 1_555 1_555
C110_21 C107_21 1_555 1_555
C111_21 N30_21 1_555 1_555
H67_21 C111_21 1_555 1_555
C112_21 N32_21 1_555 1_555
C113_21 C110_21 1_555 1_555
H68_21 C113_21 1_555 1_555
C114_21 C122_21 1_555 1_555
C115_21 H69_21 1_555 1_555
C116_21 N34_21 1_555 1_555
C117_21 C118_21 1_555 1_555
C119_21 N30_21 1_555 1_555
H70_21 C119_21 1_555 1_555
H71_21 C119_21 1_555 1_555
C120_21 N29_21 1_555 1_555
H72_21 C120_21 1_555 1_555
H73_21 C120_21 1_555 1_555
C121_21 C119_21 1_555 1_555
C122_21 C128_21 1_555 1_555
C123_21 C108_21 1_555 1_555
H74_21 C123_21 1_555 1_555
C124_21 C115_21 1_555 1_555
H75_21 C124_21 1_555 1_555
C125_21 C110_21 1_555 1_555
C126_21 C117_21 1_555 1_555
H76_21 C126_21 1_555 1_555
C127_21 C121_21 1_555 1_555
H77_21 C127_21 1_555 1_555
C128_21 C127_21 1_555 1_555
H78_21 C128_21 1_555 1_555
C129_21 C121_21 1_555 1_555
H79_21 C129_21 1_555 1_555
C130_21 C122_21 1_555 1_555
H80_21 C130_21 1_555 1_555
Zn13 N24_21 1_555 1_555
O31_21 Zn13 1_555 1_555
O39_4 C144_21 1_555 1_555
O33_21 C144_21 1_555 1_555
N36_21 N42_21 1_555 1_555
N37_21 N40_21 1_555 1_555
O34_21 C151_21 1_555 1_555
N38_21 Zn9_2 1_555 1_555
O35_21 C140_21 1_555 1_555
N39_21 Zn9_2 1_555 1_555
N40_21 N38_21 1_555 1_555
N41_21 Zn9_2 1_555 1_555
N42_21 N41_21 1_555 1_555
C131_21 N38_21 1_555 1_555
C132_21 N39_21 1_555 1_555
C133_21 C132_21 1_555 1_555
H81_21 C133_21 1_555 1_555
C134_21 C141_21 1_555 1_555
C135_21 N36_21 1_555 1_555
H82_21 C135_21 1_555 1_555
C136_21 C133_21 1_555 1_555
C137_21 N37_21 1_555 1_555
H83_21 C137_21 1_555 1_555
C138_21 N39_21 1_555 1_555
C139_21 C136_21 1_555 1_555
H84_21 C139_21 1_555 1_555
C140_21 O31_21 1_555 1_555
C141_21 H85_21 1_555 1_555
C142_21 N41_21 1_555 1_555
C143_21 C144_21 1_555 1_555
C145_21 N37_21 1_555 1_555
H86_21 C145_21 1_555 1_555
H87_21 C145_21 1_555 1_555
C146_21 N36_21 1_555 1_555
H88_21 C146_21 1_555 1_555
H89_21 C146_21 1_555 1_555
C147_21 C145_21 1_555 1_555
C148_21 C140_21 1_555 1_555
C149_21 C134_21 1_555 1_555
H90_21 C149_21 1_555 1_555
C150_21 C141_21 1_555 1_555
H91_21 C150_21 1_555 1_555
C151_21 O44_2 1_555 1_555
C152_21 C143_21 1_555 1_555
H92_21 C152_21 1_555 1_555
C153_21 C147_21 1_555 1_555
H93_21 C153_21 1_555 1_555
C154_21 C148_21 1_555 1_555
H94_21 C154_21 1_555 1_555
C155_21 C147_21 1_555 1_555
H95_21 C155_21 1_555 1_555
C156_21 C148_21 1_555 1_555
H96_21 C156_21 1_555 1_555
N25_21 Zn13 1_555 1_555
N27_21 Zn13 1_555 1_555
C79_21 C85_21 1_555 1_555
C79_21 C86_21 1_555 1_555
C80_21 C90_21 1_555 1_555
C82_21 C94_21 1_555 1_555
C83_21 C90_21 1_555 1_555
C86_21 C87_21 1_555 1_555
C91_21 C98_21 1_555 1_555
C97_21 C100_21 1_555 1_555
C103_21 C104_21 1_555 1_555
C105_21 C111_21 1_555 1_555
C105_21 C112_21 1_555 1_555
C106_21 C116_21 1_555 1_555
C108_21 C120_21 1_555 1_555
C109_21 C116_21 1_555 1_555
C112_21 C113_21 1_555 1_555
C117_21 C124_21 1_555 1_555
C123_21 C126_21 1_555 1_555
C129_21 C130_21 1_555 1_555
C131_21 C137_21 1_555 1_555
C131_21 C138_21 1_555 1_555
C132_21 C142_21 1_555 1_555
C134_21 C146_21 1_555 1_555
C135_21 C142_21 1_555 1_555
C136_21 C151_21 1_555 1_555
C138_21 C139_21 1_555 1_555
C143_21 C150_21 1_555 1_555
C149_21 C152_21 1_555 1_555
C153_21 C154_21 1_555 1_555
C155_21 C156_21 1_555 1_555
O39_5 C92_22 1_555 1_555
O21_22 C92_22 1_555 1_555
N22_22 N28_22 1_555 1_555
O22_22 C99_22 1_555 1_555
N25_22 C80_22 1_555 1_555
N27_22 N28_22 1_555 1_555
O44_7 C99_22 1_555 1_555
C80_22 C81_22 1_555 1_555
C81_22 H49_22 1_555 1_555
C82_22 C89_22 1_555 1_555
C83_22 N22_22 1_555 1_555
H50_22 C83_22 1_555 1_555
C84_22 C81_22 1_555 1_555
C86_22 N25_22 1_555 1_555
C87_22 C84_22 1_555 1_555
H52_22 C87_22 1_555 1_555
C89_22 H53_22 1_555 1_555
C90_22 N27_22 1_555 1_555
C91_22 C92_22 1_555 1_555
C94_22 N22_22 1_555 1_555
H56_22 C94_22 1_555 1_555
H57_22 C94_22 1_555 1_555
C97_22 C82_22 1_555 1_555
H58_22 C97_22 1_555 1_555
C98_22 C89_22 1_555 1_555
H59_22 C98_22 1_555 1_555
C99_22 C84_22 1_555 1_555
C100_22 C91_22 1_555 1_555
H60_22 C100_22 1_555 1_555
Zn12_11 O25_22 1_555 1_555
O25_22 C114_22 1_555 1_555
O29_22 C114_22 1_555 1_555
C114_22 C122_22 1_555 1_555
H71_22 C119_22 1_555 1_555
C121_22 C119_22 1_555 1_555
C122_22 C128_22 1_555 1_555
C127_22 C121_22 1_555 1_555
H77_22 C127_22 1_555 1_555
C128_22 C127_22 1_555 1_555
H78_22 C128_22 1_555 1_555
C129_22 C121_22 1_555 1_555
H79_22 C129_22 1_555 1_555
C130_22 C122_22 1_555 1_555
H80_22 C130_22 1_555 1_555
O31_22 Zn9_7 1_555 1_555
O38_12 C144_22 1_555 1_555
O33_22 C144_22 1_555 1_555
N36_22 N42_22 1_555 1_555
N37_22 N40_22 1_555 1_555
O34_22 C151_22 1_555 1_555
N38_22 Zn12_11 1_555 1_555
O35_22 C140_22 1_555 1_555
N39_22 Zn12_11 1_555 1_555
N40_22 N38_22 1_555 1_555
N41_22 Zn12_11 1_555 1_555
N42_22 N41_22 1_555 1_555
C131_22 N38_22 1_555 1_555
C132_22 N39_22 1_555 1_555
C133_22 C132_22 1_555 1_555
H81_22 C133_22 1_555 1_555
C134_22 C141_22 1_555 1_555
C135_22 N36_22 1_555 1_555
H82_22 C135_22 1_555 1_555
C136_22 C133_22 1_555 1_555
C137_22 N37_22 1_555 1_555
H83_22 C137_22 1_555 1_555
C138_22 N39_22 1_555 1_555
C139_22 C136_22 1_555 1_555
H84_22 C139_22 1_555 1_555
C140_22 O31_22 1_555 1_555
C141_22 H85_22 1_555 1_555
C142_22 N41_22 1_555 1_555
C143_22 C144_22 1_555 1_555
C145_22 N37_22 1_555 1_555
H86_22 C145_22 1_555 1_555
H87_22 C145_22 1_555 1_555
C146_22 N36_22 1_555 1_555
H88_22 C146_22 1_555 1_555
H89_22 C146_22 1_555 1_555
C147_22 C145_22 1_555 1_555
C148_22 C140_22 1_555 1_555
C149_22 C134_22 1_555 1_555
H90_22 C149_22 1_555 1_555
C150_22 C141_22 1_555 1_555
H91_22 C150_22 1_555 1_555
C151_22 O45_5 1_555 1_555
C152_22 C143_22 1_555 1_555
H92_22 C152_22 1_555 1_555
C153_22 C147_22 1_555 1_555
H93_22 C153_22 1_555 1_555
C154_22 C148_22 1_555 1_555
H94_22 C154_22 1_555 1_555
C155_22 C147_22 1_555 1_555
H95_22 C155_22 1_555 1_555
C156_22 C148_22 1_555 1_555
H96_22 C156_22 1_555 1_555
N25_22 Zn9_7 1_555 1_555
N27_22 Zn9_7 1_555 1_555
C80_22 C90_22 1_555 1_555
C82_22 C94_22 1_555 1_555
C83_22 C90_22 1_555 1_555
C86_22 C87_22 1_555 1_555
C91_22 C98_22 1_555 1_555
C97_22 C100_22 1_555 1_555
C129_22 C130_22 1_555 1_555
C131_22 C137_22 1_555 1_555
C131_22 C138_22 1_555 1_555
C132_22 C142_22 1_555 1_555
C134_22 C146_22 1_555 1_555
C135_22 C142_22 1_555 1_555
C136_22 C151_22 1_555 1_555
C138_22 C139_22 1_555 1_555
C143_22 C150_22 1_555 1_555
C149_22 C152_22 1_555 1_555
C153_22 C154_22 1_555 1_555
C155_22 C156_22 1_555 1_555
Zn10_4 O19_22 1_555 1_555
O19_22 C88_22 1_555 1_555
N23_22 N26_22 1_555 1_555
N24_22 N26_22 1_555 1_555
O23_22 C88_22 1_555 1_555
C79_22 N24_22 1_555 1_555
C85_22 N23_22 1_555 1_555
H51_22 C85_22 1_555 1_555
C88_22 C96_22 1_555 1_555
C93_22 N23_22 1_555 1_555
H54_22 C93_22 1_555 1_555
H55_22 C93_22 1_555 1_555
C95_22 C93_22 1_555 1_555
C96_22 C102_22 1_555 1_555
C101_22 C95_22 1_555 1_555
H61_22 C101_22 1_555 1_555
C102_22 C101_22 1_555 1_555
H62_22 C102_22 1_555 1_555
C103_22 C95_22 1_555 1_555
H63_22 C103_22 1_555 1_555
C104_22 C96_22 1_555 1_555
H64_22 C104_22 1_555 1_555
O41 C118_22 1_555 1_555
O27_22 C118_22 1_555 1_555
N29_22 N35_22 1_555 1_555
N30_22 N33_22 1_555 1_555
O28_22 C125_22 1_555 1_555
N31_22 Zn10_4 1_555 1_555
N32_22 Zn10_4 1_555 1_555
N33_22 N31_22 1_555 1_555
N34_22 Zn10_4 1_555 1_555
N35_22 N34_22 1_555 1_555
O46_8 C125_22 1_555 1_555
C105_22 N31_22 1_555 1_555
C106_22 N32_22 1_555 1_555
C107_22 C106_22 1_555 1_555
H65_22 C107_22 1_555 1_555
C108_22 C115_22 1_555 1_555
C109_22 N29_22 1_555 1_555
H66_22 C109_22 1_555 1_555
C110_22 C107_22 1_555 1_555
C111_22 N30_22 1_555 1_555
C112_22 N32_22 1_555 1_555
C113_22 C110_22 1_555 1_555
H68_22 C113_22 1_555 1_555
C115_22 H69_22 1_555 1_555
C116_22 N34_22 1_555 1_555
C117_22 C118_22 1_555 1_555
C120_22 N29_22 1_555 1_555
H72_22 C120_22 1_555 1_555
H73_22 C120_22 1_555 1_555
C123_22 C108_22 1_555 1_555
H74_22 C123_22 1_555 1_555
C124_22 C115_22 1_555 1_555
H75_22 C124_22 1_555 1_555
C125_22 C110_22 1_555 1_555
C126_22 C117_22 1_555 1_555
H76_22 C126_22 1_555 1_555
C79_22 C85_22 1_555 1_555
C103_22 C104_22 1_555 1_555
C105_22 C111_22 1_555 1_555
C105_22 C112_22 1_555 1_555
C106_22 C116_22 1_555 1_555
C108_22 C120_22 1_555 1_555
C109_22 C116_22 1_555 1_555
C112_22 C113_22 1_555 1_555
C117_22 C124_22 1_555 1_555
C123_22 C126_22 1_555 1_555
Zn9_12 O19_23 1_555 1_555
O19_23 C88_23 1_555 1_555
O38_2 C92_23 1_555 1_555
O21_23 C92_23 1_555 1_555
N22_23 N28_23 1_555 1_555
N23_23 N26_23 1_555 1_555
O22_23 C99_23 1_555 1_555
N24_23 N26_23 1_555 1_555
O23_23 C88_23 1_555 1_555
N25_23 C80_23 1_555 1_555
N27_23 N28_23 1_555 1_555
O45_10 C99_23 1_555 1_555
C79_23 N24_23 1_555 1_555
C80_23 C81_23 1_555 1_555
C81_23 H49_23 1_555 1_555
C82_23 C89_23 1_555 1_555
C83_23 N22_23 1_555 1_555
H50_23 C83_23 1_555 1_555
C84_23 C81_23 1_555 1_555
C85_23 N23_23 1_555 1_555
H51_23 C85_23 1_555 1_555
C86_23 N25_23 1_555 1_555
C87_23 C84_23 1_555 1_555
H52_23 C87_23 1_555 1_555
C88_23 C96_23 1_555 1_555
C89_23 H53_23 1_555 1_555
C90_23 N27_23 1_555 1_555
C91_23 C92_23 1_555 1_555
C93_23 N23_23 1_555 1_555
H54_23 C93_23 1_555 1_555
H55_23 C93_23 1_555 1_555
C94_23 N22_23 1_555 1_555
H56_23 C94_23 1_555 1_555
H57_23 C94_23 1_555 1_555
C95_23 C93_23 1_555 1_555
C96_23 C102_23 1_555 1_555
C97_23 C82_23 1_555 1_555
H58_23 C97_23 1_555 1_555
C98_23 C89_23 1_555 1_555
H59_23 C98_23 1_555 1_555
C99_23 C84_23 1_555 1_555
C100_23 C91_23 1_555 1_555
H60_23 C100_23 1_555 1_555
C101_23 C95_23 1_555 1_555
H61_23 C101_23 1_555 1_555
C102_23 C101_23 1_555 1_555
H62_23 C102_23 1_555 1_555
C103_23 C95_23 1_555 1_555
H63_23 C103_23 1_555 1_555
C104_23 C96_23 1_555 1_555
H64_23 C104_23 1_555 1_555
O39_10 C118_23 1_555 1_555
O27_23 C118_23 1_555 1_555
N29_23 N35_23 1_555 1_555
O28_23 C125_23 1_555 1_555
N32_23 Zn9_12 1_555 1_555
N34_23 Zn9_12 1_555 1_555
N35_23 N34_23 1_555 1_555
O44_12 C125_23 1_555 1_555
C106_23 N32_23 1_555 1_555
C107_23 C106_23 1_555 1_555
H65_23 C107_23 1_555 1_555
C108_23 C115_23 1_555 1_555
C109_23 N29_23 1_555 1_555
H66_23 C109_23 1_555 1_555
C110_23 C107_23 1_555 1_555
C112_23 N32_23 1_555 1_555
C113_23 C110_23 1_555 1_555
H68_23 C113_23 1_555 1_555
C115_23 H69_23 1_555 1_555
C116_23 N34_23 1_555 1_555
C117_23 C118_23 1_555 1_555
C120_23 N29_23 1_555 1_555
H72_23 C120_23 1_555 1_555
H73_23 C120_23 1_555 1_555
C123_23 C108_23 1_555 1_555
H74_23 C123_23 1_555 1_555
C124_23 C115_23 1_555 1_555
H75_23 C124_23 1_555 1_555
C125_23 C110_23 1_555 1_555
C126_23 C117_23 1_555 1_555
H76_23 C126_23 1_555 1_555
Zn12 N24_23 1_555 1_555
O31_23 Zn12 1_555 1_555
O35_23 C140_23 1_555 1_555
C140_23 O31_23 1_555 1_555
H87_23 C145_23 1_555 1_555
C147_23 C145_23 1_555 1_555
C148_23 C140_23 1_555 1_555
C153_23 C147_23 1_555 1_555
H93_23 C153_23 1_555 1_555
C154_23 C148_23 1_555 1_555
H94_23 C154_23 1_555 1_555
C155_23 C147_23 1_555 1_555
H95_23 C155_23 1_555 1_555
C156_23 C148_23 1_555 1_555
H96_23 C156_23 1_555 1_555
N25_23 Zn12 1_555 1_555
N27_23 Zn12 1_555 1_555
C79_23 C85_23 1_555 1_555
C79_23 C86_23 1_555 1_555
C80_23 C90_23 1_555 1_555
C82_23 C94_23 1_555 1_555
C83_23 C90_23 1_555 1_555
C86_23 C87_23 1_555 1_555
C91_23 C98_23 1_555 1_555
C97_23 C100_23 1_555 1_555
C103_23 C104_23 1_555 1_555
C106_23 C116_23 1_555 1_555
C108_23 C120_23 1_555 1_555
C109_23 C116_23 1_555 1_555
C112_23 C113_23 1_555 1_555
C117_23 C124_23 1_555 1_555
C123_23 C126_23 1_555 1_555
C153_23 C154_23 1_555 1_555
C155_23 C156_23 1_555 1_555
Zn8_2 O25_23 1_555 1_555
O25_23 C114_23 1_555 1_555
N30_23 N33_23 1_555 1_555
O29_23 C114_23 1_555 1_555
N33_23 N31_23 1_555 1_555
C105_23 N31_23 1_555 1_555
C111_23 N30_23 1_555 1_555
H67_23 C111_23 1_555 1_555
C114_23 C122_23 1_555 1_555
C119_23 N30_23 1_555 1_555
H70_23 C119_23 1_555 1_555
H71_23 C119_23 1_555 1_555
C121_23 C119_23 1_555 1_555
C122_23 C128_23 1_555 1_555
C127_23 C121_23 1_555 1_555
H77_23 C127_23 1_555 1_555
C128_23 C127_23 1_555 1_555
H78_23 C128_23 1_555 1_555
C129_23 C121_23 1_555 1_555
H79_23 C129_23 1_555 1_555
C130_23 C122_23 1_555 1_555
H80_23 C130_23 1_555 1_555
O40_4 C144_23 1_555 1_555
O33_23 C144_23 1_555 1_555
N36_23 N42_23 1_555 1_555
N37_23 N40_23 1_555 1_555
O34_23 C151_23 1_555 1_555
N38_23 Zn8_2 1_555 1_555
N39_23 Zn8_2 1_555 1_555
N40_23 N38_23 1_555 1_555
N41_23 Zn8_2 1_555 1_555
N42_23 N41_23 1_555 1_555
C131_23 N38_23 1_555 1_555
C132_23 N39_23 1_555 1_555
C133_23 C132_23 1_555 1_555
H81_23 C133_23 1_555 1_555
C134_23 C141_23 1_555 1_555
C135_23 N36_23 1_555 1_555
H82_23 C135_23 1_555 1_555
C136_23 C133_23 1_555 1_555
C137_23 N37_23 1_555 1_555
C138_23 N39_23 1_555 1_555
C139_23 C136_23 1_555 1_555
H84_23 C139_23 1_555 1_555
C141_23 H85_23 1_555 1_555
C142_23 N41_23 1_555 1_555
C143_23 C144_23 1_555 1_555
C146_23 N36_23 1_555 1_555
H88_23 C146_23 1_555 1_555
H89_23 C146_23 1_555 1_555
C149_23 C134_23 1_555 1_555
H90_23 C149_23 1_555 1_555
C150_23 C141_23 1_555 1_555
H91_23 C150_23 1_555 1_555
C151_23 O46_11 1_555 1_555
C152_23 C143_23 1_555 1_555
H92_23 C152_23 1_555 1_555
C105_23 C111_23 1_555 1_555
C129_23 C130_23 1_555 1_555
C131_23 C137_23 1_555 1_555
C131_23 C138_23 1_555 1_555
C132_23 C142_23 1_555 1_555
C134_23 C146_23 1_555 1_555
C135_23 C142_23 1_555 1_555
C136_23 C151_23 1_555 1_555
C138_23 C139_23 1_555 1_555
C143_23 C150_23 1_555 1_555
C149_23 C152_23 1_555 1_555
O42_11 C92_24 1_555 1_555
O21_24 C92_24 1_555 1_555
N22_24 N28_24 1_555 1_555
O22_24 C99_24 1_555 1_555
N25_24 C80_24 1_555 1_555
N27_24 N28_24 1_555 1_555
O44_16 C99_24 1_555 1_555
C80_24 C81_24 1_555 1_555
C81_24 H49_24 1_555 1_555
C82_24 C89_24 1_555 1_555
C83_24 N22_24 1_555 1_555
H50_24 C83_24 1_555 1_555
C84_24 C81_24 1_555 1_555
C86_24 N25_24 1_555 1_555
C87_24 C84_24 1_555 1_555
H52_24 C87_24 1_555 1_555
C89_24 H53_24 1_555 1_555
C90_24 N27_24 1_555 1_555
C91_24 C92_24 1_555 1_555
C94_24 N22_24 1_555 1_555
H56_24 C94_24 1_555 1_555
H57_24 C94_24 1_555 1_555
C97_24 C82_24 1_555 1_555
H58_24 C97_24 1_555 1_555
C98_24 C89_24 1_555 1_555
H59_24 C98_24 1_555 1_555
C99_24 C84_24 1_555 1_555
C100_24 C91_24 1_555 1_555
H60_24 C100_24 1_555 1_555
O31_24 Zn11_10 1_555 1_555
O35_24 C140_24 1_555 1_555
C140_24 O31_24 1_555 1_555
H87_24 C145_24 1_555 1_555
C147_24 C145_24 1_555 1_555
C148_24 C140_24 1_555 1_555
C153_24 C147_24 1_555 1_555
H93_24 C153_24 1_555 1_555
C154_24 C148_24 1_555 1_555
H94_24 C154_24 1_555 1_555
C155_24 C147_24 1_555 1_555
H95_24 C155_24 1_555 1_555
C156_24 C148_24 1_555 1_555
H96_24 C156_24 1_555 1_555
N25_24 Zn11_10 1_555 1_555
N27_24 Zn11_10 1_555 1_555
C80_24 C90_24 1_555 1_555
C82_24 C94_24 1_555 1_555
C83_24 C90_24 1_555 1_555
C86_24 C87_24 1_555 1_555
C91_24 C98_24 1_555 1_555
C97_24 C100_24 1_555 1_555
C153_24 C154_24 1_555 1_555
C155_24 C156_24 1_555 1_555
Zn11_5 O25_24 1_555 1_555
O25_24 C114_24 1_555 1_555
O29_24 C114_24 1_555 1_555
C114_24 C122_24 1_555 1_555
H71_24 C119_24 1_555 1_555
C121_24 C119_24 1_555 1_555
C122_24 C128_24 1_555 1_555
C127_24 C121_24 1_555 1_555
H77_24 C127_24 1_555 1_555
C128_24 C127_24 1_555 1_555
H78_24 C128_24 1_555 1_555
C129_24 C121_24 1_555 1_555
H79_24 C129_24 1_555 1_555
C130_24 C122_24 1_555 1_555
H80_24 C130_24 1_555 1_555
O42_8 C144_24 1_555 1_555
O33_24 C144_24 1_555 1_555
N36_24 N42_24 1_555 1_555
N37_24 N40_24 1_555 1_555
O34_24 C151_24 1_555 1_555
N38_24 Zn11_5 1_555 1_555
N39_24 Zn11_5 1_555 1_555
N40_24 N38_24 1_555 1_555
N41_24 Zn11_5 1_555 1_555
N42_24 N41_24 1_555 1_555
C131_24 N38_24 1_555 1_555
C132_24 N39_24 1_555 1_555
C133_24 C132_24 1_555 1_555
H81_24 C133_24 1_555 1_555
C134_24 C141_24 1_555 1_555
C135_24 N36_24 1_555 1_555
H82_24 C135_24 1_555 1_555
C136_24 C133_24 1_555 1_555
C137_24 N37_24 1_555 1_555
C138_24 N39_24 1_555 1_555
C139_24 C136_24 1_555 1_555
H84_24 C139_24 1_555 1_555
C141_24 H85_24 1_555 1_555
C142_24 N41_24 1_555 1_555
C143_24 C144_24 1_555 1_555
C146_24 N36_24 1_555 1_555
H88_24 C146_24 1_555 1_555
H89_24 C146_24 1_555 1_555
C149_24 C134_24 1_555 1_555
H90_24 C149_24 1_555 1_555
C150_24 C141_24 1_555 1_555
H91_24 C150_24 1_555 1_555
C151_24 O45_14 1_555 1_555
C152_24 C143_24 1_555 1_555
H92_24 C152_24 1_555 1_555
C129_24 C130_24 1_555 1_555
C131_24 C137_24 1_555 1_555
C131_24 C138_24 1_555 1_555
C132_24 C142_24 1_555 1_555
C134_24 C146_24 1_555 1_555
C135_24 C142_24 1_555 1_555
C136_24 C151_24 1_555 1_555
C138_24 C139_24 1_555 1_555
C143_24 C150_24 1_555 1_555
C149_24 C152_24 1_555 1_555
Zn11_4 O19_24 1_555 1_555
O19_24 C88_24 1_555 1_555
N23_24 N26_24 1_555 1_555
N24_24 N26_24 1_555 1_555
O23_24 C88_24 1_555 1_555
C79_24 N24_24 1_555 1_555
C85_24 N23_24 1_555 1_555
H51_24 C85_24 1_555 1_555
C88_24 C96_24 1_555 1_555
C93_24 N23_24 1_555 1_555
H54_24 C93_24 1_555 1_555
H55_24 C93_24 1_555 1_555
C95_24 C93_24 1_555 1_555
C96_24 C102_24 1_555 1_555
C101_24 C95_24 1_555 1_555
H61_24 C101_24 1_555 1_555
C102_24 C101_24 1_555 1_555
H62_24 C102_24 1_555 1_555
C103_24 C95_24 1_555 1_555
H63_24 C103_24 1_555 1_555
C104_24 C96_24 1_555 1_555
H64_24 C104_24 1_555 1_555
O42 C118_24 1_555 1_555
O27_24 C118_24 1_555 1_555
N29_24 N35_24 1_555 1_555
O28_24 C125_24 1_555 1_555
N32_24 Zn11_4 1_555 1_555
N34_24 Zn11_4 1_555 1_555
N35_24 N34_24 1_555 1_555
O46_15 C125_24 1_555 1_555
C106_24 N32_24 1_555 1_555
C107_24 C106_24 1_555 1_555
H65_24 C107_24 1_555 1_555
C108_24 C115_24 1_555 1_555
C109_24 N29_24 1_555 1_555
H66_24 C109_24 1_555 1_555
C110_24 C107_24 1_555 1_555
C112_24 N32_24 1_555 1_555
C113_24 C110_24 1_555 1_555
H68_24 C113_24 1_555 1_555
C115_24 H69_24 1_555 1_555
C116_24 N34_24 1_555 1_555
C117_24 C118_24 1_555 1_555
C120_24 N29_24 1_555 1_555
H72_24 C120_24 1_555 1_555
H73_24 C120_24 1_555 1_555
C123_24 C108_24 1_555 1_555
H74_24 C123_24 1_555 1_555
C124_24 C115_24 1_555 1_555
H75_24 C124_24 1_555 1_555
C125_24 C110_24 1_555 1_555
C126_24 C117_24 1_555 1_555
H76_24 C126_24 1_555 1_555
C79_24 C85_24 1_555 1_555
C103_24 C104_24 1_555 1_555
C106_24 C116_24 1_555 1_555
C108_24 C120_24 1_555 1_555
C109_24 C116_24 1_555 1_555
C112_24 C113_24 1_555 1_555
C117_24 C124_24 1_555 1_555
C123_24 C126_24 1_555 1_555
N30_24 N33_24 1_555 1_555
N33_24 N31_24 1_555 1_555
C105_24 N31_24 1_555 1_555
C111_24 N30_24 1_555 1_555
C105_24 C111_24 1_555 1_555

#END
