
###############################################################################
#
# This file contains modified crystal structure data generated from the
# MOF subset of the Cambridge Structural Database (CSD) v543 
# hosted by the Cambridge Crystallographic Data Centre (CCDC).
#
# This work is licensed under the Creative Commons
# Attribution-NonCommercial-ShareAlike 4.0 International License.
# To view a copy of this license, visit
# http://creativecommons.org/licenses/by-nc-sa/4.0/
# or send a letter to
# Creative Commons, PO Box 1866, Mountain View, CA 94042, USA.
#
# CIF created using the CSD Python API on 29 September 2022
# The structure has been converted into the P1 space group
# The structure has a 3D framework
# The original CSD entry XICKOL is in the tetragonal crystal system
# The framework has been calculated to contain at least 10.0% void space
# The void calculation uses a probe of radius 1.32A, grid spacing 0.4
# The framework is charged, counterions have been retained in the structure
#
###############################################################################

data_XICKOL
_chemical_formula_moiety         '(C224 H176 Cu17 N24 O58 2+)n'
_symmetry_cell_setting           triclinic
_symmetry_space_group_name_H-M   'P 1'
_symmetry_Int_Tables_number      1
_space_group_name_Hall           'P 1'
loop_
_symmetry_equiv_pos_site_id
_symmetry_equiv_pos_as_xyz
1 x,y,z
_cell_length_a                   21.2737(14)
_cell_length_b                   21.2737(14)
_cell_length_c                   30.086(2)
_cell_angle_alpha                90
_cell_angle_beta                 90
_cell_angle_gamma                90
_cell_volume                     13616
loop_
_atom_site_label
_atom_site_type_symbol
_atom_site_fract_x
_atom_site_fract_y
_atom_site_fract_z
Cu2 Cu -0.0000 0.0000 0.0000
Cu9 Cu 0.5000 0.0000 0.0000
Cu2_2 Cu -0.0000 0.0000 1.0000
Cu9_2 Cu 0.5000 0.0000 1.0000
C14 C 0.0091(2) 0.8624(2) 0.0075(1)
C15 C 0.0254(2) 0.8098(2) 0.0254(1)
H9 H 0.0134 0.7726 0.0116
C16 C 0.0615(2) 0.8064(2) 0.0658(1)
C17 C 0.0798(2) 0.8684(2) 0.0837(1)
H10 H 0.1043 0.8705 0.1093
C18 C 0.0625(2) 0.9194(2) 0.0644(1)
H11 H 0.0761 0.9577 0.0758
C19 C 0.0815(2) 0.7483(2) 0.0863(1)
C20 C 0.0583(2) 0.6897(2) 0.0724(1)
H12 H 0.0265 0.6892 0.0512
C21 C 0.0792(2) 0.6347(2) 0.0878(1)
C22 C 0.1208(2) 0.6347(2) 0.1243(1)
H13 H 0.1334 0.5967 0.1367
C23 C 0.1430(2) 0.6905(2) 0.1420(1)
C24 C 0.1227(2) 0.7467(2) 0.1247(1)
H14 H 0.1356 0.7842 0.1377
C25 C 0.0617(2) 0.5759(2) 0.0697(1)
C26 C 0.1782(2) 0.6920(2) 0.1807(1)
Cu1 Cu 0.2500 0.7500 0.2484
Cu2_3 Cu -0.0000 1.0000 0.0000
Cu3 Cu 0.0000 0.5000 0.0000
N2 N 0.0241(1) 0.9193(1) 0.0271(1)
O5 O 0.0227(1) 0.5728(1) 0.0369(1)
O6 O 0.0760(1) 0.5228(1) 0.0856(1)
O7 O 0.1927(1) 0.6439(1) 0.2029(1)
O8 O 0.1954(1) 0.7438(1) 0.1974(1)
C40 C 0.4909(2) 0.6376(2) 0.0075(1)
C41 C 0.4746(2) 0.6902(2) 0.0254(1)
H23 H 0.4866 0.7274 0.0116
C42 C 0.4385(2) 0.6936(2) 0.0658(1)
C43 C 0.4202(2) 0.6316(2) 0.0837(1)
H24 H 0.3957 0.6295 0.1093
C44 C 0.4375(2) 0.5806(2) 0.0644(1)
H25 H 0.4239 0.5423 0.0758
C45 C 0.4185(2) 0.7517(2) 0.0863(1)
C46 C 0.4417(2) 0.8103(2) 0.0724(1)
H26 H 0.4735 0.8108 0.0512
C47 C 0.4208(2) 0.8653(2) 0.0878(1)
C48 C 0.3792(2) 0.8653(2) 0.1243(1)
H27 H 0.3666 0.9033 0.1367
C49 C 0.3570(2) 0.8095(2) 0.1420(1)
C50 C 0.3773(2) 0.7533(2) 0.1247(1)
H28 H 0.3644 0.7158 0.1377
C51 C 0.4383(2) 0.9241(2) 0.0697(1)
C52 C 0.3218(2) 0.8080(2) 0.1807(1)
N4 N 0.4759(1) 0.5807(1) 0.0271(1)
O13 O 0.4773(1) 0.9272(1) 0.0369(1)
O14 O 0.4240(1) 0.9772(1) 0.0856(1)
O15 O 0.3073(1) 0.8561(1) 0.2029(1)
O16 O 0.3046(1) 0.7562(1) 0.1974(1)
Cu7 Cu 0.5000 0.5000 0.0000
Cu9_3 Cu 0.5000 1.0000 0.0000
N5 N 0.1932(1) 0.7555(1) 0.3018(1)
N6 N 0.3068(1) 0.7445(1) 0.3018(1)
Cu2_4 Cu -0.0000 1.0000 1.0000
Cu3_2 Cu 0.0000 0.5000 1.0000
H22 H 0.5132 0.6379 0.9809
Cu7_2 Cu 0.5000 0.5000 1.0000
Cu9_4 Cu 0.5000 1.0000 1.0000
O17 O 0.0783(1) 0.5144(1) 0.9658(1)
O18 O 0.0869(1) 0.9833(1) 0.9797(1)
C1 C 0.6867(2) 0.1752(2) 0.1786(1)
H1 H 0.6488 0.1887 0.1907
C2 C 0.6872(2) 0.1393(2) 0.1434(1)
H2 H 0.6493 0.1290 0.1299
C3 C 0.7465(2) 0.1145(2) 0.1242(1)
C4 C 0.8022(2) 0.1353(2) 0.1431(1)
H3 H 0.8405 0.1239 0.1305
C5 C 0.8013(2) 0.1731(2) 0.1807(1)
H4 H 0.8388 0.1849 0.1942
C6 C 0.7496(2) 0.0721(2) 0.0862(1)
C7 C 0.6920(2) 0.0451(2) 0.0697(1)
H5 H 0.6553 0.0523 0.0857
C8 C 0.6881(2) 0.0112(2) 0.0339(1)
C10 C 0.8006(2) 0.0128(2) 0.0283(1)
C11 C 0.8043(2) 0.0524(2) 0.0657(1)
H7 H 0.8432 0.0653 0.0765
Cu2_5 Cu 1.0000 0.0000 0.0000
N1 N 0.7445(1) 0.1932(1) 0.1982(1)
O1 O 0.5783(1) 0.0144(1) 0.0342(1)
O4 O 0.9131(1) 0.0167(1) 0.0203(1)
Cu5 Cu 0.7500 0.2500 0.2516
Cu2_6 Cu 1.0000 0.0000 1.0000
N7 N 0.9759(1) 0.0807(1) 0.9729(1)
C9 C 0.7435(2) 0.9915(2) 0.0129(1)
C12 C 0.6259(2) 0.9863(2) 0.0187(1)
C13 C 0.8607(2) 0.9934(2) 0.0076(1)
Cu2_7 Cu 1.0000 1.0000 0.0000
Cu3_3 Cu 1.0000 0.5000 0.0000
C27 C 0.8133(2) 0.3248(2) 0.1786(1)
H15 H 0.8512 0.3113 0.1907
C28 C 0.8128(2) 0.3607(2) 0.1434(1)
H16 H 0.8507 0.3710 0.1299
C29 C 0.7535(2) 0.3855(2) 0.1242(1)
C30 C 0.6978(2) 0.3647(2) 0.1431(1)
H17 H 0.6595 0.3761 0.1305
C31 C 0.6987(2) 0.3269(2) 0.1807(1)
H18 H 0.6612 0.3151 0.1942
C32 C 0.7504(2) 0.4279(2) 0.0862(1)
C33 C 0.8080(2) 0.4549(2) 0.0697(1)
H19 H 0.8447 0.4477 0.0857
C34 C 0.8119(2) 0.4888(2) 0.0339(1)
C35 C 0.7565(2) 0.5085(2) 0.0129(1)
C36 C 0.6994(2) 0.4872(2) 0.0283(1)
C37 C 0.6957(2) 0.4476(2) 0.0657(1)
H21 H 0.6568 0.4347 0.0765
C38 C 0.8741(2) 0.5137(2) 0.0187(1)
C39 C 0.6393(2) 0.5066(2) 0.0076(1)
N3 N 0.7555(1) 0.3068(1) 0.1982(1)
O9 O 0.9217(1) 0.4856(1) 0.0342(1)
O12 O 0.5869(1) 0.4833(1) 0.0203(1)
H6 H 0.7418 0.9642 0.9888
H8 H 0.9868 0.8621 0.9809
Cu2_8 Cu 1.0000 1.0000 1.0000
Cu3_4 Cu 1.0000 0.5000 1.0000
O2 O 0.6251(1) 0.9331(1) 0.9992(1)
O3 O 0.8592(1) 0.9541(1) 0.9766(1)
H20 H 0.7582 0.5358 0.9888
O10 O 0.8749(1) 0.5669(1) 0.9992(1)
O11 O 0.6408(1) 0.5459(1) 0.9766(1)
O19 O 0.9773(1) 0.4272(1) 0.9631(1)
H22_2 H 0.3621 0.0132 0.4809
Cu7_3 Cu 0.5000 0.0000 0.5000
Cu9_5 Cu 0.0000 0.0000 0.5000
C9_2 C 0.0085(2) 0.2435(2) 0.5129(1)
H6_2 H 0.0358 0.2418 0.4888
C12_2 C 0.0137(2) 0.1259(2) 0.5187(1)
C13_2 C 0.0066(2) 0.3607(2) 0.5076(1)
C14_2 C 0.1376(2) 0.5091(2) 0.5075(1)
H8_2 H 0.1379 0.4868 0.4809
C15_2 C 0.1902(2) 0.5254(2) 0.5254(1)
H9_2 H 0.2274 0.5134 0.5116
C16_2 C 0.1936(2) 0.5615(2) 0.5658(1)
C17_2 C 0.1316(2) 0.5798(2) 0.5837(1)
H10_2 H 0.1295 0.6043 0.6093
C18_2 C 0.0806(2) 0.5625(2) 0.5644(1)
H11_2 H 0.0423 0.5761 0.5758
C19_2 C 0.2517(2) 0.5815(2) 0.5863(1)
C20_2 C 0.3103(2) 0.5583(2) 0.5724(1)
H12_2 H 0.3108 0.5265 0.5512
C21_2 C 0.3653(2) 0.5792(2) 0.5878(1)
C22_2 C 0.3653(2) 0.6208(2) 0.6243(1)
H13_2 H 0.4033 0.6334 0.6367
C23_2 C 0.3095(2) 0.6430(2) 0.6420(1)
C24_2 C 0.2533(2) 0.6227(2) 0.6247(1)
H14_2 H 0.2158 0.6356 0.6377
C25_2 C 0.4241(2) 0.5617(2) 0.5697(1)
C26_2 C 0.3080(2) 0.6782(2) 0.6807(1)
Cu1_2 Cu 0.2500 0.7500 0.7484
Cu2_9 Cu 0.0000 0.5000 0.5000
Cu3_5 Cu 0.5000 0.5000 0.5000
N2_2 N 0.0807(1) 0.5241(1) 0.5271(1)
O2_2 O 0.0669(1) 0.1251(1) 0.4992(1)
O3_2 O 0.0459(1) 0.3592(1) 0.4766(1)
O5_2 O 0.4272(1) 0.5227(1) 0.5369(1)
O6_2 O 0.4772(1) 0.5760(1) 0.5856(1)
O7_2 O 0.3561(1) 0.6927(1) 0.7029(1)
O8_2 O 0.2562(1) 0.6954(1) 0.6974(1)
C27_2 C 0.6752(2) 0.3133(2) 0.6786(1)
H15_2 H 0.6887 0.3512 0.6907
C28_2 C 0.6393(2) 0.3128(2) 0.6434(1)
H16_2 H 0.6290 0.3507 0.6299
C29_2 C 0.6145(2) 0.2535(2) 0.6242(1)
C30_2 C 0.6353(2) 0.1978(2) 0.6431(1)
H17_2 H 0.6239 0.1595 0.6305
C31_2 C 0.6731(2) 0.1987(2) 0.6807(1)
H18_2 H 0.6849 0.1612 0.6942
C32_2 C 0.5721(2) 0.2504(2) 0.5862(1)
C33_2 C 0.5451(2) 0.3080(2) 0.5697(1)
H19_2 H 0.5523 0.3447 0.5857
C34_2 C 0.5112(2) 0.3119(2) 0.5339(1)
C35_2 C 0.4915(2) 0.2565(2) 0.5129(1)
H20_2 H 0.4642 0.2582 0.4888
C36_2 C 0.5128(2) 0.1994(2) 0.5283(1)
C37_2 C 0.5524(2) 0.1957(2) 0.5657(1)
H21_2 H 0.5653 0.1568 0.5765
C38_2 C 0.4863(2) 0.3741(2) 0.5187(1)
C39_2 C 0.4934(2) 0.1393(2) 0.5076(1)
N3_2 N 0.6932(1) 0.2555(1) 0.6982(1)
O9_2 O 0.5144(1) 0.4217(1) 0.5342(1)
O10_2 O 0.4331(1) 0.3749(1) 0.4992(1)
O11_2 O 0.4541(1) 0.1408(1) 0.4766(1)
O12_2 O 0.5167(1) 0.0869(1) 0.5203(1)
C40_2 C 0.3624(2) 0.9909(2) 0.5075(1)
C41_2 C 0.3098(2) 0.9746(2) 0.5254(1)
H23_2 H 0.2726 0.9866 0.5116
C42_2 C 0.3064(2) 0.9385(2) 0.5658(1)
C43_2 C 0.3684(2) 0.9202(2) 0.5837(1)
H24_2 H 0.3705 0.8957 0.6093
C44_2 C 0.4194(2) 0.9375(2) 0.5644(1)
H25_2 H 0.4577 0.9239 0.5758
C45_2 C 0.2483(2) 0.9185(2) 0.5863(1)
C46_2 C 0.1897(2) 0.9417(2) 0.5724(1)
H26_2 H 0.1892 0.9735 0.5512
C47_2 C 0.1347(2) 0.9208(2) 0.5878(1)
C48_2 C 0.1347(2) 0.8792(2) 0.6243(1)
H27_2 H 0.0967 0.8666 0.6367
C49_2 C 0.1905(2) 0.8570(2) 0.6420(1)
C50_2 C 0.2467(2) 0.8773(2) 0.6247(1)
H28_2 H 0.2842 0.8644 0.6377
C51_2 C 0.0759(2) 0.9383(2) 0.5697(1)
C52_2 C 0.1920(2) 0.8218(2) 0.6807(1)
N4_2 N 0.4193(1) 0.9759(1) 0.5271(1)
O13_2 O 0.0728(1) 0.9773(1) 0.5369(1)
O14_2 O 0.0228(1) 0.9240(1) 0.5856(1)
O15_2 O 0.1439(1) 0.8073(1) 0.7029(1)
O16_2 O 0.2438(1) 0.8046(1) 0.6974(1)
Cu4 Cu 0.7500 0.2500 0.7516
Cu7_4 Cu 0.5000 1.0000 0.5000
Cu9_6 Cu 0.0000 1.0000 0.5000
N5_2 N 0.2445(1) 0.6932(1) 0.8018(1)
N6_2 N 0.2555(1) 0.8068(1) 0.8018(1)
O17_2 O 0.4856(1) 0.5783(1) 0.4658(1)
O18_2 O 0.0167(1) 0.5869(1) 0.4797(1)
O19_2 O 0.5728(1) 0.4773(1) 0.4631(1)
Cu9_7 Cu 1.0000 0.0000 0.5000
C1_2 C 0.8248(2) 0.1867(2) 0.6786(1)
H1_2 H 0.8113 0.1488 0.6907
C2_2 C 0.8607(2) 0.1872(2) 0.6434(1)
H2_2 H 0.8710 0.1493 0.6299
C3_2 C 0.8855(2) 0.2465(2) 0.6242(1)
C4_2 C 0.8647(2) 0.3022(2) 0.6431(1)
H3_2 H 0.8761 0.3405 0.6305
C5_2 C 0.8269(2) 0.3013(2) 0.6807(1)
H4_2 H 0.8151 0.3388 0.6942
C6_2 C 0.9279(2) 0.2496(2) 0.5862(1)
C7_2 C 0.9549(2) 0.1920(2) 0.5697(1)
H5_2 H 0.9477 0.1553 0.5857
C8_2 C 0.9888(2) 0.1881(2) 0.5339(1)
C10_2 C 0.9872(2) 0.3006(2) 0.5283(1)
C11_2 C 0.9476(2) 0.3043(2) 0.5657(1)
H7_2 H 0.9347 0.3432 0.5765
Cu2_10 Cu 1.0000 0.5000 0.5000
N1_2 N 0.8068(1) 0.2445(1) 0.6982(1)
O1_2 O 0.9856(1) 0.0783(1) 0.5342(1)
O4_2 O 0.9833(1) 0.4131(1) 0.5203(1)
Cu9_8 Cu 1.0000 1.0000 0.5000
N7_2 N 0.9193(1) 0.4759(1) 0.4729(1)
O19_3 O 0.5227(1) 0.0728(1) 0.9631(1)
N7_3 N 0.5241(1) 0.4193(1) 0.9729(1)
O17_3 O 0.4217(1) 0.9856(1) 0.9658(1)
O18_3 O 0.4131(1) 0.5167(1) 0.9797(1)
N7_4 N 0.5807(1) 0.0241(1) 0.4729(1)
O17_4 O 0.0144(1) 0.9217(1) 0.4658(1)
O18_4 O 0.4833(1) 0.9131(1) 0.4797(1)
O19_4 O 0.9272(1) 0.0227(1) 0.4631(1)
H6_3 H 0.2582 0.0358 0.0112
H8_3 H 0.0132 0.1379 0.0191
O2_3 O 0.3749(1) 0.0669(1) 0.0008(1)
O3_3 O 0.1408(1) 0.0459(1) 0.0234(1)
H20_3 H 0.2418 0.4642 0.0112
O10_3 O 0.1251(1) 0.4331(1) 0.0008(1)
O11_3 O 0.3592(1) 0.4541(1) 0.0234(1)
C9_3 C 0.2565(2) 0.0085(2) 0.9871(1)
C12_3 C 0.3741(2) 0.0137(2) 0.9813(1)
C13_3 C 0.1393(2) 0.0066(2) 0.9924(1)
C27_3 C 0.1867(2) 0.6752(2) 0.8214(1)
H15_3 H 0.1488 0.6887 0.8093
C28_3 C 0.1872(2) 0.6393(2) 0.8566(1)
H16_3 H 0.1493 0.6290 0.8701
C29_3 C 0.2465(2) 0.6145(2) 0.8758(1)
C30_3 C 0.3022(2) 0.6353(2) 0.8569(1)
H17_3 H 0.3405 0.6239 0.8695
C31_3 C 0.3013(2) 0.6731(2) 0.8193(1)
H18_3 H 0.3388 0.6849 0.8058
C32_3 C 0.2496(2) 0.5721(2) 0.9138(1)
C33_3 C 0.1920(2) 0.5451(2) 0.9303(1)
H19_3 H 0.1553 0.5523 0.9143
C34_3 C 0.1881(2) 0.5112(2) 0.9661(1)
C35_3 C 0.2435(2) 0.4915(2) 0.9871(1)
C36_3 C 0.3006(2) 0.5128(2) 0.9717(1)
C37_3 C 0.3043(2) 0.5524(2) 0.9343(1)
H21_3 H 0.3432 0.5653 0.9235
C38_3 C 0.1259(2) 0.4863(2) 0.9813(1)
C39_3 C 0.3607(2) 0.4934(2) 0.9924(1)
C1_3 C 0.3133(2) 0.8248(2) 0.8214(1)
H1_3 H 0.3512 0.8113 0.8093
C2_3 C 0.3128(2) 0.8607(2) 0.8566(1)
H2_3 H 0.3507 0.8710 0.8701
C3_3 C 0.2535(2) 0.8855(2) 0.8758(1)
C4_3 C 0.1978(2) 0.8647(2) 0.8569(1)
H3_3 H 0.1595 0.8761 0.8695
C5_3 C 0.1987(2) 0.8269(2) 0.8193(1)
H4_3 H 0.1612 0.8151 0.8058
C6_3 C 0.2504(2) 0.9279(2) 0.9138(1)
C7_3 C 0.3080(2) 0.9549(2) 0.9303(1)
H5_3 H 0.3447 0.9477 0.9143
C8_3 C 0.3119(2) 0.9888(2) 0.9661(1)
C10_3 C 0.1994(2) 0.9872(2) 0.9717(1)
C11_3 C 0.1957(2) 0.9476(2) 0.9343(1)
H7_3 H 0.1568 0.9347 0.9235
H22_3 H 0.4868 0.3621 0.0191
C14_3 C 0.9909(2) 0.1376(2) 0.9925(1)
C15_3 C 0.9746(2) 0.1902(2) 0.9746(1)
H9_3 H 0.9866 0.2274 0.9884
C16_3 C 0.9385(2) 0.1936(2) 0.9342(1)
C17_3 C 0.9202(2) 0.1316(2) 0.9163(1)
H10_3 H 0.8957 0.1295 0.8907
C18_3 C 0.9375(2) 0.0806(2) 0.9356(1)
H11_3 H 0.9239 0.0423 0.9242
C19_3 C 0.9185(2) 0.2517(2) 0.9137(1)
C20_3 C 0.9417(2) 0.3103(2) 0.9276(1)
H12_3 H 0.9735 0.3108 0.9488
C21_3 C 0.9208(2) 0.3653(2) 0.9122(1)
C22_3 C 0.8792(2) 0.3653(2) 0.8757(1)
H13_3 H 0.8666 0.4033 0.8633
C23_3 C 0.8570(2) 0.3095(2) 0.8580(1)
C24_3 C 0.8773(2) 0.2533(2) 0.8753(1)
H14_3 H 0.8644 0.2158 0.8623
C25_3 C 0.9383(2) 0.4241(2) 0.9303(1)
C26_3 C 0.8218(2) 0.3080(2) 0.8193(1)
O6_3 O 0.9240(1) 0.4772(1) 0.9144(1)
O7_3 O 0.8073(1) 0.3561(1) 0.7971(1)
O8_3 O 0.8046(1) 0.2562(1) 0.8026(1)
C40_3 C 0.5091(2) 0.3624(2) 0.9925(1)
C41_3 C 0.5254(2) 0.3098(2) 0.9746(1)
H23_3 H 0.5134 0.2726 0.9884
C42_3 C 0.5615(2) 0.3064(2) 0.9342(1)
C43_3 C 0.5798(2) 0.3684(2) 0.9163(1)
H24_3 H 0.6043 0.3705 0.8907
C44_3 C 0.5625(2) 0.4194(2) 0.9356(1)
H25_3 H 0.5761 0.4577 0.9242
C45_3 C 0.5815(2) 0.2483(2) 0.9137(1)
C46_3 C 0.5583(2) 0.1897(2) 0.9276(1)
H26_3 H 0.5265 0.1892 0.9488
C47_3 C 0.5792(2) 0.1347(2) 0.9122(1)
C48_3 C 0.6208(2) 0.1347(2) 0.8757(1)
H27_3 H 0.6334 0.0967 0.8633
C49_3 C 0.6430(2) 0.1905(2) 0.8580(1)
C50_3 C 0.6227(2) 0.2467(2) 0.8753(1)
H28_3 H 0.6356 0.2842 0.8623
C51_3 C 0.5617(2) 0.0759(2) 0.9303(1)
C52_3 C 0.6782(2) 0.1920(2) 0.8193(1)
O14_3 O 0.5760(1) 0.0228(1) 0.9144(1)
O15_3 O 0.6927(1) 0.1439(1) 0.7971(1)
O16_3 O 0.6954(1) 0.2438(1) 0.8026(1)
C1_4 C 0.1752(2) 0.8133(2) 0.3214(1)
H1_4 H 0.1887 0.8512 0.3093
C2_4 C 0.1393(2) 0.8128(2) 0.3566(1)
H2_4 H 0.1290 0.8507 0.3701
C3_4 C 0.1145(2) 0.7535(2) 0.3758(1)
C4_4 C 0.1353(2) 0.6978(2) 0.3569(1)
H3_4 H 0.1239 0.6595 0.3695
C5_4 C 0.1731(2) 0.6987(2) 0.3193(1)
H4_4 H 0.1849 0.6612 0.3058
C6_4 C 0.0721(2) 0.7504(2) 0.4138(1)
C7_4 C 0.0451(2) 0.8080(2) 0.4303(1)
H5_4 H 0.0523 0.8447 0.4143
C8_4 C 0.0112(2) 0.8119(2) 0.4661(1)
C10_4 C 0.0128(2) 0.6994(2) 0.4717(1)
C11_4 C 0.0524(2) 0.6957(2) 0.4343(1)
H7_4 H 0.0653 0.6568 0.4235
C9_4 C 0.9915(2) 0.7565(2) 0.4871(1)
H6_4 H 0.9642 0.7582 0.5112
C12_4 C 0.9863(2) 0.8741(2) 0.4813(1)
C13_4 C 0.9934(2) 0.6393(2) 0.4924(1)
C14_4 C 0.8624(2) 0.4909(2) 0.4925(1)
H8_4 H 0.8621 0.5132 0.5191
C15_4 C 0.8098(2) 0.4746(2) 0.4746(1)
H9_4 H 0.7726 0.4866 0.4884
C16_4 C 0.8064(2) 0.4385(2) 0.4342(1)
C17_4 C 0.8684(2) 0.4202(2) 0.4163(1)
H10_4 H 0.8705 0.3957 0.3907
C18_4 C 0.9194(2) 0.4375(2) 0.4356(1)
H11_4 H 0.9577 0.4239 0.4242
C19_4 C 0.7483(2) 0.4185(2) 0.4137(1)
C20_4 C 0.6897(2) 0.4417(2) 0.4276(1)
H12_4 H 0.6892 0.4735 0.4488
C21_4 C 0.6347(2) 0.4208(2) 0.4122(1)
C22_4 C 0.6347(2) 0.3792(2) 0.3757(1)
H13_4 H 0.5967 0.3666 0.3633
C23_4 C 0.6905(2) 0.3570(2) 0.3580(1)
C24_4 C 0.7467(2) 0.3773(2) 0.3753(1)
H14_4 H 0.7842 0.3644 0.3623
C25_4 C 0.5759(2) 0.4383(2) 0.4303(1)
C26_4 C 0.6920(2) 0.3218(2) 0.3193(1)
O2_4 O 0.9331(1) 0.8749(1) 0.5008(1)
O3_4 O 0.9541(1) 0.6408(1) 0.5234(1)
O6_4 O 0.5228(1) 0.4240(1) 0.4144(1)
O7_4 O 0.6439(1) 0.3073(1) 0.2971(1)
O8_4 O 0.7438(1) 0.3046(1) 0.3026(1)
C27_4 C 0.3248(2) 0.6867(2) 0.3214(1)
H15_4 H 0.3113 0.6488 0.3093
C28_4 C 0.3607(2) 0.6872(2) 0.3566(1)
H16_4 H 0.3710 0.6493 0.3701
C29_4 C 0.3855(2) 0.7465(2) 0.3758(1)
C30_4 C 0.3647(2) 0.8022(2) 0.3569(1)
H17_4 H 0.3761 0.8405 0.3695
C31_4 C 0.3269(2) 0.8013(2) 0.3193(1)
H18_4 H 0.3151 0.8388 0.3058
C32_4 C 0.4279(2) 0.7496(2) 0.4138(1)
C33_4 C 0.4549(2) 0.6920(2) 0.4303(1)
H19_4 H 0.4477 0.6553 0.4143
C34_4 C 0.4888(2) 0.6881(2) 0.4661(1)
C35_4 C 0.5085(2) 0.7435(2) 0.4871(1)
H20_4 H 0.5358 0.7418 0.5112
C36_4 C 0.4872(2) 0.8006(2) 0.4717(1)
C37_4 C 0.4476(2) 0.8043(2) 0.4343(1)
H21_4 H 0.4347 0.8432 0.4235
C38_4 C 0.5137(2) 0.6259(2) 0.4813(1)
C39_4 C 0.5066(2) 0.8607(2) 0.4924(1)
O10_4 O 0.5669(1) 0.6251(1) 0.5008(1)
O11_4 O 0.5459(1) 0.8592(1) 0.5234(1)
C40_4 C 0.6376(2) 0.0091(2) 0.4925(1)
C41_4 C 0.6902(2) 0.0254(2) 0.4746(1)
H23_4 H 0.7274 0.0134 0.4884
C42_4 C 0.6936(2) 0.0615(2) 0.4342(1)
C43_4 C 0.6316(2) 0.0798(2) 0.4163(1)
H24_4 H 0.6295 0.1043 0.3907
C44_4 C 0.5806(2) 0.0625(2) 0.4356(1)
H25_4 H 0.5423 0.0761 0.4242
C45_4 C 0.7517(2) 0.0815(2) 0.4137(1)
C46_4 C 0.8103(2) 0.0583(2) 0.4276(1)
H26_4 H 0.8108 0.0265 0.4488
C47_4 C 0.8653(2) 0.0792(2) 0.4122(1)
C48_4 C 0.8653(2) 0.1208(2) 0.3757(1)
H27_4 H 0.9033 0.1334 0.3633
C49_4 C 0.8095(2) 0.1430(2) 0.3580(1)
C50_4 C 0.7533(2) 0.1227(2) 0.3753(1)
H28_4 H 0.7158 0.1356 0.3623
C51_4 C 0.9241(2) 0.0617(2) 0.4303(1)
C52_4 C 0.8080(2) 0.1782(2) 0.3193(1)
O14_4 O 0.9772(1) 0.0760(1) 0.4144(1)
O15_4 O 0.8561(1) 0.1927(1) 0.2971(1)
O16_4 O 0.7562(1) 0.1954(1) 0.3026(1)
H22_4 H 0.6379 0.9868 0.5191
C53 C 0.6362(2) 0.7003(2) 0.3525(1)
H29 H 0.6314 0.7369 0.3708
H30 H 0.6625 0.6703 0.3673
H31 H 0.5957 0.6820 0.3469
C54 C 0.6386(2) 0.7764(2) 0.2897(1)
H32 H 0.6122 0.7651 0.2650
H33 H 0.6722 0.8027 0.2794
H34 H 0.6142 0.7987 0.3114
N8 N 0.6652(2) 0.7182(2) 0.3102(1)
H35 H 0.6607 0.6862 0.2909
H36 H 0.7066 0.7240 0.3147
C53_2 C 0.2997(2) 0.1362(2) 0.8525(1)
H29_2 H 0.2631 0.1314 0.8708
H30_2 H 0.3297 0.1625 0.8673
H31_2 H 0.3180 0.0957 0.8469
C54_2 C 0.2236(2) 0.1386(2) 0.7897(1)
H32_2 H 0.2349 0.1122 0.7650
H33_2 H 0.1973 0.1722 0.7794
H34_2 H 0.2013 0.1142 0.8114
N8_2 N 0.2818(2) 0.1652(2) 0.8102(1)
H35_2 H 0.3138 0.1607 0.7909
H36_2 H 0.2760 0.2066 0.8147
C53_3 C 0.8638(2) 0.7997(2) 0.3525(1)
H29_3 H 0.8686 0.7631 0.3708
H30_3 H 0.8375 0.8297 0.3673
H31_3 H 0.9043 0.8180 0.3469
C54_3 C 0.8614(2) 0.7236(2) 0.2897(1)
H32_3 H 0.8878 0.7349 0.2650
H33_3 H 0.8278 0.6973 0.2794
H34_3 H 0.8858 0.7013 0.3114
N8_3 N 0.8348(2) 0.7818(2) 0.3102(1)
H35_3 H 0.8393 0.8138 0.2909
H36_3 H 0.7934 0.7760 0.3147
C53_4 C 0.2003(2) 0.3638(2) 0.8525(1)
H29_4 H 0.2369 0.3686 0.8708
H30_4 H 0.1703 0.3375 0.8673
H31_4 H 0.1820 0.4043 0.8469
C54_4 C 0.2764(2) 0.3614(2) 0.7897(1)
H32_4 H 0.2651 0.3878 0.7650
H33_4 H 0.3027 0.3278 0.7794
H34_4 H 0.2987 0.3858 0.8114
N8_4 N 0.2182(2) 0.3348(2) 0.8102(1)
H35_4 H 0.1862 0.3393 0.7909
H36_4 H 0.2240 0.2934 0.8147
C53_5 C 0.3638(2) 0.2997(2) 0.6475(1)
H29_5 H 0.3686 0.2631 0.6292
H30_5 H 0.3375 0.3297 0.6327
H31_5 H 0.4043 0.3180 0.6531
C54_5 C 0.3614(2) 0.2236(2) 0.7103(1)
H32_5 H 0.3878 0.2349 0.7350
H33_5 H 0.3278 0.1973 0.7206
H34_5 H 0.3858 0.2013 0.6886
N8_5 N 0.3348(2) 0.2818(2) 0.6898(1)
H35_5 H 0.3393 0.3138 0.7091
H36_5 H 0.2934 0.2760 0.6853
C53_6 C 0.7003(2) 0.8638(2) 0.1475(1)
H29_6 H 0.7369 0.8686 0.1292
H30_6 H 0.6703 0.8375 0.1327
H31_6 H 0.6820 0.9043 0.1531
C54_6 C 0.7764(2) 0.8614(2) 0.2103(1)
H32_6 H 0.7651 0.8878 0.2350
H33_6 H 0.8027 0.8278 0.2206
H34_6 H 0.7987 0.8858 0.1886
N8_6 N 0.7182(2) 0.8348(2) 0.1898(1)
H35_6 H 0.6862 0.8393 0.2091
H36_6 H 0.7240 0.7934 0.1853
C53_7 C 0.1362(2) 0.2003(2) 0.6475(1)
H29_7 H 0.1314 0.2369 0.6292
H30_7 H 0.1625 0.1703 0.6327
H31_7 H 0.0957 0.1820 0.6531
C54_7 C 0.1386(2) 0.2764(2) 0.7103(1)
H32_7 H 0.1122 0.2651 0.7350
H33_7 H 0.1722 0.3027 0.7206
H34_7 H 0.1142 0.2987 0.6886
N8_7 N 0.1652(2) 0.2182(2) 0.6898(1)
H35_7 H 0.1607 0.1862 0.7091
H36_7 H 0.2066 0.2240 0.6853
C53_8 C 0.7997(2) 0.6362(2) 0.1475(1)
H29_8 H 0.7631 0.6314 0.1292
H30_8 H 0.8297 0.6625 0.1327
H31_8 H 0.8180 0.5957 0.1531
C54_8 C 0.7236(2) 0.6386(2) 0.2103(1)
H32_8 H 0.7349 0.6122 0.2350
H33_8 H 0.6973 0.6722 0.2206
H34_8 H 0.7013 0.6142 0.1886
N8_8 N 0.7818(2) 0.6652(2) 0.1898(1)
H35_8 H 0.8138 0.6607 0.2091
H36_8 H 0.7760 0.7066 0.1853
loop_
_geom_bond_atom_site_label_1
_geom_bond_atom_site_label_2
_geom_bond_site_symmetry_1
_geom_bond_site_symmetry_2
C15 C14 1_555 1_555
H9 C15 1_555 1_555
C16 C15 1_555 1_555
C17 C16 1_555 1_555
H10 C17 1_555 1_555
C18 C17 1_555 1_555
H11 C18 1_555 1_555
C19 C16 1_555 1_555
C20 C19 1_555 1_555
H12 C20 1_555 1_555
C21 C20 1_555 1_555
C22 C21 1_555 1_555
H13 C22 1_555 1_555
C23 C22 1_555 1_555
C24 C19 1_555 1_555
H14 C24 1_555 1_555
C25 C21 1_555 1_555
C26 C23 1_555 1_555
Cu1 O8 1_555 1_555
Cu2_3 N2 1_555 1_555
Cu3 O5 1_555 1_555
N2 C14 1_555 1_555
O5 C25 1_555 1_555
O6 C25 1_555 1_555
O7 C26 1_555 1_555
O8 C26 1_555 1_555
C41 C40 1_555 1_555
H23 C41 1_555 1_555
C42 C41 1_555 1_555
C43 C42 1_555 1_555
H24 C43 1_555 1_555
C44 C43 1_555 1_555
H25 C44 1_555 1_555
C45 C42 1_555 1_555
C46 C45 1_555 1_555
H26 C46 1_555 1_555
C47 C46 1_555 1_555
C48 C47 1_555 1_555
H27 C48 1_555 1_555
C49 C48 1_555 1_555
C50 C45 1_555 1_555
H28 C50 1_555 1_555
C51 C47 1_555 1_555
C52 C49 1_555 1_555
N4 C40 1_555 1_555
O13 C51 1_555 1_555
O14 C51 1_555 1_555
O15 C52 1_555 1_555
O16 Cu1 1_555 1_555
Cu7 N4 1_555 1_555
Cu9_3 O13 1_555 1_555
N5 Cu1 1_555 1_555
N6 Cu1 1_555 1_555
C18 N2 1_555 1_555
C23 C24 1_555 1_555
C44 N4 1_555 1_555
C49 C50 1_555 1_555
C52 O16 1_555 1_555
O17 Cu3_2 1_555 1_555
O18 Cu2_4 1_555 1_555
C1 H1 1_555 1_555
C2 C1 1_555 1_555
H2 C2 1_555 1_555
C3 C2 1_555 1_555
C4 C3 1_555 1_555
H3 C4 1_555 1_555
C5 C4 1_555 1_555
H4 C5 1_555 1_555
C6 C3 1_555 1_555
C7 C6 1_555 1_555
H5 C7 1_555 1_555
C8 C7 1_555 1_555
C11 C6 1_555 1_555
H7 C11 1_555 1_555
N1 C1 1_555 1_555
Cu5 N1 1_555 1_555
Cu9 O1 1_555 1_555
C5 N1 1_555 1_555
C10 C11 1_555 1_555
Cu2_5 O4 1_555 1_555
N7 Cu2_6 1_555 1_555
C27 H15 1_555 1_555
C28 C27 1_555 1_555
H16 C28 1_555 1_555
C29 C28 1_555 1_555
C30 C29 1_555 1_555
H17 C30 1_555 1_555
C31 C30 1_555 1_555
H18 C31 1_555 1_555
C32 C29 1_555 1_555
C33 C32 1_555 1_555
H19 C33 1_555 1_555
C34 C33 1_555 1_555
C35 C34 1_555 1_555
C36 C35 1_555 1_555
C37 C32 1_555 1_555
H21 C37 1_555 1_555
C38 C34 1_555 1_555
C39 C36 1_555 1_555
N3 C27 1_555 1_555
O9 Cu3_3 1_555 1_555
O12 C39 1_555 1_555
Cu5 N3 1_555 1_555
Cu7 O12 1_555 1_555
C31 N3 1_555 1_555
C36 C37 1_555 1_555
C38 O9 1_555 1_555
O19 Cu3_4 1_555 1_555
H6_2 C9_2 1_555 1_555
C14_2 H8_2 1_555 1_555
C15_2 C14_2 1_555 1_555
H9_2 C15_2 1_555 1_555
C16_2 C15_2 1_555 1_555
C17_2 C16_2 1_555 1_555
H10_2 C17_2 1_555 1_555
C18_2 C17_2 1_555 1_555
H11_2 C18_2 1_555 1_555
C19_2 C16_2 1_555 1_555
C20_2 C19_2 1_555 1_555
H12_2 C20_2 1_555 1_555
C21_2 C20_2 1_555 1_555
C22_2 C21_2 1_555 1_555
H13_2 C22_2 1_555 1_555
C23_2 C22_2 1_555 1_555
C24_2 C19_2 1_555 1_555
H14_2 C24_2 1_555 1_555
C25_2 C21_2 1_555 1_555
C26_2 C23_2 1_555 1_555
Cu1_2 O8_2 1_555 1_555
Cu2_9 N2_2 1_555 1_555
Cu3_5 O5_2 1_555 1_555
N2_2 C14_2 1_555 1_555
O2_2 C12_2 1_555 1_555
O3_2 C13_2 1_555 1_555
O5_2 C25_2 1_555 1_555
O6_2 C25_2 1_555 1_555
O7_2 C26_2 1_555 1_555
O8_2 C26_2 1_555 1_555
C27_2 H15_2 1_555 1_555
C28_2 C27_2 1_555 1_555
H16_2 C28_2 1_555 1_555
C29_2 C28_2 1_555 1_555
C30_2 C29_2 1_555 1_555
H17_2 C30_2 1_555 1_555
C31_2 C30_2 1_555 1_555
H18_2 C31_2 1_555 1_555
C32_2 C29_2 1_555 1_555
C33_2 C32_2 1_555 1_555
H19_2 C33_2 1_555 1_555
C34_2 C33_2 1_555 1_555
C35_2 C34_2 1_555 1_555
H20_2 C35_2 1_555 1_555
C36_2 C35_2 1_555 1_555
C37_2 C32_2 1_555 1_555
H21_2 C37_2 1_555 1_555
C38_2 C34_2 1_555 1_555
C39_2 C36_2 1_555 1_555
N3_2 C27_2 1_555 1_555
O9_2 Cu3_5 1_555 1_555
O10_2 C38_2 1_555 1_555
O11_2 C39_2 1_555 1_555
O12_2 C39_2 1_555 1_555
C41_2 C40_2 1_555 1_555
H23_2 C41_2 1_555 1_555
C42_2 C41_2 1_555 1_555
C43_2 C42_2 1_555 1_555
H24_2 C43_2 1_555 1_555
C44_2 C43_2 1_555 1_555
H25_2 C44_2 1_555 1_555
C45_2 C42_2 1_555 1_555
C46_2 C45_2 1_555 1_555
H26_2 C46_2 1_555 1_555
C47_2 C46_2 1_555 1_555
C48_2 C47_2 1_555 1_555
H27_2 C48_2 1_555 1_555
C49_2 C48_2 1_555 1_555
C50_2 C45_2 1_555 1_555
H28_2 C50_2 1_555 1_555
C51_2 C47_2 1_555 1_555
C52_2 C49_2 1_555 1_555
N4_2 C40_2 1_555 1_555
O13_2 C51_2 1_555 1_555
O14_2 C51_2 1_555 1_555
O15_2 C52_2 1_555 1_555
O16_2 Cu1_2 1_555 1_555
Cu4 N3_2 1_555 1_555
Cu7_3 O12_2 1_555 1_555
Cu7_4 N4_2 1_555 1_555
Cu9_6 O13_2 1_555 1_555
N5_2 Cu1_2 1_555 1_555
N6_2 Cu1_2 1_555 1_555
O17_2 Cu3_5 1_555 1_555
O18_2 Cu2_9 1_555 1_555
O19_2 Cu3_5 1_555 1_555
C18_2 N2_2 1_555 1_555
C23_2 C24_2 1_555 1_555
C31_2 N3_2 1_555 1_555
C36_2 C37_2 1_555 1_555
C38_2 O9_2 1_555 1_555
C44_2 N4_2 1_555 1_555
C49_2 C50_2 1_555 1_555
C52_2 O16_2 1_555 1_555
C1_2 H1_2 1_555 1_555
C2_2 C1_2 1_555 1_555
H2_2 C2_2 1_555 1_555
C3_2 C2_2 1_555 1_555
C4_2 C3_2 1_555 1_555
H3_2 C4_2 1_555 1_555
C5_2 C4_2 1_555 1_555
H4_2 C5_2 1_555 1_555
C6_2 C3_2 1_555 1_555
C7_2 C6_2 1_555 1_555
H5_2 C7_2 1_555 1_555
C8_2 C7_2 1_555 1_555
C11_2 C6_2 1_555 1_555
H7_2 C11_2 1_555 1_555
N1_2 C1_2 1_555 1_555
Cu4 N1_2 1_555 1_555
Cu9_7 O1_2 1_555 1_555
N7_2 Cu2_10 1_555 1_555
C5_2 N1_2 1_555 1_555
C10_2 C11_2 1_555 1_555
Cu2_10 O4_2 1_555 1_555
O19_3 Cu9_2 1_555 1_555
N7_3 Cu7_2 1_555 1_555
O17_3 Cu9_4 1_555 1_555
O18_3 Cu7_2 1_555 1_555
N7_4 Cu7_3 1_555 1_555
O17_4 Cu9_6 1_555 1_555
O18_4 Cu7_4 1_555 1_555
O19_4 Cu9_7 1_555 1_555
C27_3 H15_3 1_555 1_555
C28_3 C27_3 1_555 1_555
H16_3 C28_3 1_555 1_555
C29_3 C28_3 1_555 1_555
C30_3 C29_3 1_555 1_555
H17_3 C30_3 1_555 1_555
C31_3 C30_3 1_555 1_555
H18_3 C31_3 1_555 1_555
C32_3 C29_3 1_555 1_555
C33_3 C32_3 1_555 1_555
H19_3 C33_3 1_555 1_555
C34_3 C33_3 1_555 1_555
C35_3 C34_3 1_555 1_555
C36_3 C35_3 1_555 1_555
C37_3 C32_3 1_555 1_555
H21_3 C37_3 1_555 1_555
C38_3 C34_3 1_555 1_555
C39_3 C36_3 1_555 1_555
N5_2 C27_3 1_555 1_555
O18_3 C39_3 1_555 1_555
C31_3 N5_2 1_555 1_555
C36_3 C37_3 1_555 1_555
C38_3 O17 1_555 1_555
C1_3 H1_3 1_555 1_555
C2_3 C1_3 1_555 1_555
H2_3 C2_3 1_555 1_555
C3_3 C2_3 1_555 1_555
C4_3 C3_3 1_555 1_555
H3_3 C4_3 1_555 1_555
C5_3 C4_3 1_555 1_555
H4_3 C5_3 1_555 1_555
C6_3 C3_3 1_555 1_555
C7_3 C6_3 1_555 1_555
H5_3 C7_3 1_555 1_555
C8_3 C7_3 1_555 1_555
C11_3 C6_3 1_555 1_555
H7_3 C11_3 1_555 1_555
N6_2 C1_3 1_555 1_555
C5_3 N6_2 1_555 1_555
C10_3 C11_3 1_555 1_555
C15_3 C14_3 1_555 1_555
H9_3 C15_3 1_555 1_555
C16_3 C15_3 1_555 1_555
C17_3 C16_3 1_555 1_555
H10_3 C17_3 1_555 1_555
C18_3 C17_3 1_555 1_555
H11_3 C18_3 1_555 1_555
C19_3 C16_3 1_555 1_555
C20_3 C19_3 1_555 1_555
H12_3 C20_3 1_555 1_555
C21_3 C20_3 1_555 1_555
C22_3 C21_3 1_555 1_555
H13_3 C22_3 1_555 1_555
C23_3 C22_3 1_555 1_555
C24_3 C19_3 1_555 1_555
H14_3 C24_3 1_555 1_555
C25_3 C21_3 1_555 1_555
C26_3 C23_3 1_555 1_555
Cu4 O8_3 1_555 1_555
N7 C14_3 1_555 1_555
O19 C25_3 1_555 1_555
O6_3 C25_3 1_555 1_555
O7_3 C26_3 1_555 1_555
O8_3 C26_3 1_555 1_555
C41_3 C40_3 1_555 1_555
H23_3 C41_3 1_555 1_555
C42_3 C41_3 1_555 1_555
C43_3 C42_3 1_555 1_555
H24_3 C43_3 1_555 1_555
C44_3 C43_3 1_555 1_555
H25_3 C44_3 1_555 1_555
C45_3 C42_3 1_555 1_555
C46_3 C45_3 1_555 1_555
H26_3 C46_3 1_555 1_555
C47_3 C46_3 1_555 1_555
C48_3 C47_3 1_555 1_555
H27_3 C48_3 1_555 1_555
C49_3 C48_3 1_555 1_555
C50_3 C45_3 1_555 1_555
H28_3 C50_3 1_555 1_555
C51_3 C47_3 1_555 1_555
C52_3 C49_3 1_555 1_555
N7_3 C40_3 1_555 1_555
O19_3 C51_3 1_555 1_555
O14_3 C51_3 1_555 1_555
O15_3 C52_3 1_555 1_555
O16_3 Cu4 1_555 1_555
C18_3 N7 1_555 1_555
C23_3 C24_3 1_555 1_555
C44_3 N7_3 1_555 1_555
C49_3 C50_3 1_555 1_555
C52_3 O16_3 1_555 1_555
C1_4 H1_4 1_555 1_555
C2_4 C1_4 1_555 1_555
H2_4 C2_4 1_555 1_555
C3_4 C2_4 1_555 1_555
C4_4 C3_4 1_555 1_555
H3_4 C4_4 1_555 1_555
C5_4 C4_4 1_555 1_555
H4_4 C5_4 1_555 1_555
C6_4 C3_4 1_555 1_555
C7_4 C6_4 1_555 1_555
H5_4 C7_4 1_555 1_555
C8_4 C7_4 1_555 1_555
C11_4 C6_4 1_555 1_555
H7_4 C11_4 1_555 1_555
N5 C1_4 1_555 1_555
C5_4 N5 1_555 1_555
C10_4 C11_4 1_555 1_555
H6_4 C9_4 1_555 1_555
C14_4 H8_4 1_555 1_555
C15_4 C14_4 1_555 1_555
H9_4 C15_4 1_555 1_555
C16_4 C15_4 1_555 1_555
C17_4 C16_4 1_555 1_555
H10_4 C17_4 1_555 1_555
C18_4 C17_4 1_555 1_555
H11_4 C18_4 1_555 1_555
C19_4 C16_4 1_555 1_555
C20_4 C19_4 1_555 1_555
H12_4 C20_4 1_555 1_555
C21_4 C20_4 1_555 1_555
C22_4 C21_4 1_555 1_555
H13_4 C22_4 1_555 1_555
C23_4 C22_4 1_555 1_555
C24_4 C19_4 1_555 1_555
H14_4 C24_4 1_555 1_555
C25_4 C21_4 1_555 1_555
C26_4 C23_4 1_555 1_555
Cu5 O8_4 1_555 1_555
N7_2 C14_4 1_555 1_555
O2_4 C12_4 1_555 1_555
O3_4 C13_4 1_555 1_555
O19_2 C25_4 1_555 1_555
O6_4 C25_4 1_555 1_555
O7_4 C26_4 1_555 1_555
O8_4 C26_4 1_555 1_555
C27_4 H15_4 1_555 1_555
C28_4 C27_4 1_555 1_555
H16_4 C28_4 1_555 1_555
C29_4 C28_4 1_555 1_555
C30_4 C29_4 1_555 1_555
H17_4 C30_4 1_555 1_555
C31_4 C30_4 1_555 1_555
H18_4 C31_4 1_555 1_555
C32_4 C29_4 1_555 1_555
C33_4 C32_4 1_555 1_555
H19_4 C33_4 1_555 1_555
C34_4 C33_4 1_555 1_555
C35_4 C34_4 1_555 1_555
H20_4 C35_4 1_555 1_555
C36_4 C35_4 1_555 1_555
C37_4 C32_4 1_555 1_555
H21_4 C37_4 1_555 1_555
C38_4 C34_4 1_555 1_555
C39_4 C36_4 1_555 1_555
N6 C27_4 1_555 1_555
O10_4 C38_4 1_555 1_555
O11_4 C39_4 1_555 1_555
O18_4 C39_4 1_555 1_555
C41_4 C40_4 1_555 1_555
H23_4 C41_4 1_555 1_555
C42_4 C41_4 1_555 1_555
C43_4 C42_4 1_555 1_555
H24_4 C43_4 1_555 1_555
C44_4 C43_4 1_555 1_555
H25_4 C44_4 1_555 1_555
C45_4 C42_4 1_555 1_555
C46_4 C45_4 1_555 1_555
H26_4 C46_4 1_555 1_555
C47_4 C46_4 1_555 1_555
C48_4 C47_4 1_555 1_555
H27_4 C48_4 1_555 1_555
C49_4 C48_4 1_555 1_555
C50_4 C45_4 1_555 1_555
H28_4 C50_4 1_555 1_555
C51_4 C47_4 1_555 1_555
C52_4 C49_4 1_555 1_555
N7_4 C40_4 1_555 1_555
O19_4 C51_4 1_555 1_555
O14_4 C51_4 1_555 1_555
O15_4 C52_4 1_555 1_555
O16_4 Cu5 1_555 1_555
C18_4 N7_2 1_555 1_555
C23_4 C24_4 1_555 1_555
C31_4 N6 1_555 1_555
C36_4 C37_4 1_555 1_555
C38_4 O17_2 1_555 1_555
C44_4 N7_4 1_555 1_555
C49_4 C50_4 1_555 1_555
C52_4 O16_4 1_555 1_555
C53 H29 1_555 1_555
H30 C53 1_555 1_555
H31 C53 1_555 1_555
C54 H32 1_555 1_555
H33 C54 1_555 1_555
H34 C54 1_555 1_555
N8 C53 1_555 1_555
H35 N8 1_555 1_555
H36 N8 1_555 1_555
C54 N8 1_555 1_555
C53_2 H29_2 1_555 1_555
H30_2 C53_2 1_555 1_555
H31_2 C53_2 1_555 1_555
C54_2 H32_2 1_555 1_555
H33_2 C54_2 1_555 1_555
H34_2 C54_2 1_555 1_555
N8_2 C53_2 1_555 1_555
H35_2 N8_2 1_555 1_555
H36_2 N8_2 1_555 1_555
C54_2 N8_2 1_555 1_555
C53_3 H29_3 1_555 1_555
H30_3 C53_3 1_555 1_555
H31_3 C53_3 1_555 1_555
C54_3 H32_3 1_555 1_555
H33_3 C54_3 1_555 1_555
H34_3 C54_3 1_555 1_555
N8_3 C53_3 1_555 1_555
H35_3 N8_3 1_555 1_555
H36_3 N8_3 1_555 1_555
C54_3 N8_3 1_555 1_555
C53_4 H29_4 1_555 1_555
H30_4 C53_4 1_555 1_555
H31_4 C53_4 1_555 1_555
C54_4 H32_4 1_555 1_555
H33_4 C54_4 1_555 1_555
H34_4 C54_4 1_555 1_555
N8_4 C53_4 1_555 1_555
H35_4 N8_4 1_555 1_555
H36_4 N8_4 1_555 1_555
C54_4 N8_4 1_555 1_555
C53_5 H29_5 1_555 1_555
H30_5 C53_5 1_555 1_555
H31_5 C53_5 1_555 1_555
C54_5 H32_5 1_555 1_555
H33_5 C54_5 1_555 1_555
H34_5 C54_5 1_555 1_555
N8_5 C53_5 1_555 1_555
H35_5 N8_5 1_555 1_555
H36_5 N8_5 1_555 1_555
C54_5 N8_5 1_555 1_555
C53_6 H29_6 1_555 1_555
H30_6 C53_6 1_555 1_555
H31_6 C53_6 1_555 1_555
C54_6 H32_6 1_555 1_555
H33_6 C54_6 1_555 1_555
H34_6 C54_6 1_555 1_555
N8_6 C53_6 1_555 1_555
H35_6 N8_6 1_555 1_555
H36_6 N8_6 1_555 1_555
C54_6 N8_6 1_555 1_555
C53_7 H29_7 1_555 1_555
H30_7 C53_7 1_555 1_555
H31_7 C53_7 1_555 1_555
C54_7 H32_7 1_555 1_555
H33_7 C54_7 1_555 1_555
H34_7 C54_7 1_555 1_555
N8_7 C53_7 1_555 1_555
H35_7 N8_7 1_555 1_555
H36_7 N8_7 1_555 1_555
C54_7 N8_7 1_555 1_555
C53_8 H29_8 1_555 1_555
H30_8 C53_8 1_555 1_555
H31_8 C53_8 1_555 1_555
C54_8 H32_8 1_555 1_555
H33_8 C54_8 1_555 1_555
H34_8 C54_8 1_555 1_555
N8_8 C53_8 1_555 1_555
H35_8 N8_8 1_555 1_555
H36_8 N8_8 1_555 1_555
C54_8 N8_8 1_555 1_555

#END
