
###############################################################################
#
# This file contains modified crystal structure data generated from the
# MOF subset of the Cambridge Structural Database (CSD) v543 
# hosted by the Cambridge Crystallographic Data Centre (CCDC).
#
# This work is licensed under the Creative Commons
# Attribution-NonCommercial-ShareAlike 4.0 International License.
# To view a copy of this license, visit
# http://creativecommons.org/licenses/by-nc-sa/4.0/
# or send a letter to
# Creative Commons, PO Box 1866, Mountain View, CA 94042, USA.
#
# CIF created using the CSD Python API on 29 September 2022
# The structure has been converted into the P1 space group
# The structure has a 3D framework
# The original CSD entry XICKOM01 is in the trigonal crystal system
# The framework has been calculated to contain at least 10.0% void space
# The void calculation uses a probe of radius 1.32A, grid spacing 0.4
# The framework is charged, counterions have been retained in the structure
#
###############################################################################

data_XICKOM01
_chemical_formula_moiety         '(C12 H12 Ga4 Ni2 O17 1-)n'
_symmetry_cell_setting           triclinic
_symmetry_space_group_name_H-M   'P 1'
_symmetry_Int_Tables_number      1
_space_group_name_Hall           'P 1'
loop_
_symmetry_equiv_pos_site_id
_symmetry_equiv_pos_as_xyz
1 x,y,z
_cell_length_a                   8.0926(2)
_cell_length_b                   8.0926(2)
_cell_length_c                   13.7165(4)
_cell_angle_alpha                90
_cell_angle_beta                 90
_cell_angle_gamma                120
_cell_volume                     777.947
loop_
_atom_site_label
_atom_site_type_symbol
_atom_site_fract_x
_atom_site_fract_y
_atom_site_fract_z
Ga3 Ga 0.0000 -0.0000 0.0000
Ga3_2 Ga -0.0000 -0.0000 1.0000
Ga3_3 Ga 0.0000 1.0000 0.0000
Ga3_4 Ga 0.0000 1.0000 1.0000
O5 O 0.3405(5) 0.4578(8) 0.1680(3)
O6 O 0.2075(6) 0.1963(8) 0.0811(3)
C3 C 0.2077(9) 0.3381(13) 0.1200(4)
H3 H 0.1011 0.3517 0.1115
O10 O 0.8037(8) 0.0112(5) 0.0811(3)
O12 O 0.2075(6) 0.0112(5) 0.4189(3)
Ni3 Ni 0.3333 0.6667 0.2500
Ga3_5 Ga 1.0000 -0.0000 0.0000
Ga4 Ga 0.0000 -0.0000 0.5000
Ga3_6 Ga 1.0000 -0.0000 1.0000
O15 O 0.0112(5) 0.2075(6) 0.9189(3)
O1 O 0.1173(6) 0.6595(5) 0.1680(3)
C1 C 0.1304(9) 0.7923(9) 0.1200(4)
H1 H 0.2506 0.8989 0.1115
O9 O 0.5422(8) 0.8827(6) 0.1680(3)
C5 C 0.6619(13) 0.8696(9) 0.1200(4)
H5 H 0.6483 0.7494 0.1115
O11 O 0.3405(5) 0.8827(6) 0.3320(3)
C6 C 0.2077(9) 0.8696(9) 0.3800(4)
H6 H 0.1011 0.7494 0.3885
Ga3_7 Ga 1.0000 1.0000 0.0000
Ga4_2 Ga 0.0000 1.0000 0.5000
O13 O 0.5422(8) 0.6595(5) 0.3320(3)
O14 O 0.1173(6) 0.4578(8) 0.3320(3)
Ga3_8 Ga 1.0000 1.0000 1.0000
O17 O 0.1963(8) 0.9888(5) 0.9189(3)
Ga4_3 Ga 1.0000 -0.0000 0.5000
O2 O 0.9888(5) 0.7925(6) 0.0811(3)
Ga4_4 Ga 1.0000 1.0000 0.5000
O16 O 0.7925(6) 0.8037(8) 0.9189(3)
C6_2 C 0.1304(9) 0.3381(13) 0.3800(4)
H6_2 H 0.2506 0.3517 0.3885
O12_2 O 0.9888(5) 0.1963(8) 0.4189(3)
O12_3 O 0.8037(8) 0.7925(6) 0.4189(3)
C6_3 C 0.6619(13) 0.7923(9) 0.3800(4)
H6_3 H 0.6483 0.8989 0.3885
O16_2 O 0.1963(8) 0.2075(6) 0.5811(3)
O17_2 O 0.0112(5) 0.8037(8) 0.5811(3)
O15_2 O 0.7925(6) 0.9888(5) 0.5811(3)
O7 O 0.4578(8) 0.1173(6) 0.8320(3)
C4 C 0.3381(13) 0.1304(9) 0.8800(4)
H4 H 0.3517 0.2506 0.8885
Ni2 Ni 0.6667 0.3333 0.7500
O1_2 O 0.8827(6) 0.3405(5) 0.8320(3)
C1_2 C 0.8696(9) 0.2077(9) 0.8800(4)
H1_2 H 0.7494 0.1011 0.8885
O3 O 0.6595(5) 0.5422(8) 0.8320(3)
C2 C 0.7923(9) 0.6619(13) 0.8800(4)
H2 H 0.8989 0.6483 0.8885
O11_2 O 0.6595(5) 0.1173(6) 0.6680(3)
C6_4 C 0.7923(9) 0.1304(9) 0.6200(4)
H6_4 H 0.8989 0.2506 0.6115
O13_2 O 0.4578(8) 0.3405(5) 0.6680(3)
O14_2 O 0.8827(6) 0.5422(8) 0.6680(3)
C6_5 C 0.8696(9) 0.6619(13) 0.6200(4)
H6_5 H 0.7494 0.6483 0.6115
C6_6 C 0.3381(13) 0.2077(9) 0.6200(4)
H6_6 H 0.3517 0.1011 0.6115
loop_
_geom_bond_atom_site_label_1
_geom_bond_atom_site_label_2
_geom_bond_site_symmetry_1
_geom_bond_site_symmetry_2
O5 C3 1_555 1_555
O6 Ga3 1_555 1_555
C3 O6 1_555 1_555
H3 C3 1_555 1_555
Ni3 O5 1_555 1_555
Ga3_5 O10 1_555 1_555
Ga4 O12 1_555 1_555
O15 Ga3_2 1_555 1_555
Ni3 O1 1_555 1_555
O1 C1 1_555 1_555
C1 H1 1_555 1_555
O9 Ni3 1_555 1_555
C5 O9 1_555 1_555
H5 C5 1_555 1_555
O11 Ni3 1_555 1_555
C6 O11 1_555 1_555
H6 C6 1_555 1_555
O13 Ni3 1_555 1_555
O14 Ni3 1_555 1_555
O17 Ga3_4 1_555 1_555
Ga3_7 O2 1_555 1_555
O16 Ga3_8 1_555 1_555
C6_2 O14 1_555 1_555
H6_2 C6_2 1_555 1_555
Ga4_3 O12_2 1_555 1_555
O12_3 C6_3 1_555 1_555
C6_3 O13 1_555 1_555
H6_3 C6_3 1_555 1_555
Ga4_4 O12_3 1_555 1_555
O16_2 Ga4 1_555 1_555
O17_2 Ga4_2 1_555 1_555
O15_2 Ga4_4 1_555 1_555
O7 C4 1_555 1_555
H4 C4 1_555 1_555
Ni2 O7 1_555 1_555
Ni2 O1_2 1_555 1_555
O1_2 C1_2 1_555 1_555
C1_2 H1_2 1_555 1_555
O3 Ni2 1_555 1_555
O16 C2 1_555 1_555
C2 O3 1_555 1_555
H2 C2 1_555 1_555
O11_2 Ni2 1_555 1_555
C6_4 O11_2 1_555 1_555
H6_4 C6_4 1_555 1_555
O13_2 Ni2 1_555 1_555
O14_2 Ni2 1_555 1_555
C6_5 O14_2 1_555 1_555
H6_5 C6_5 1_555 1_555
O16_2 C6_6 1_555 1_555
C6_6 O13_2 1_555 1_555
H6_6 C6_6 1_555 1_555

#END
