
###############################################################################
#
# This file contains modified crystal structure data generated from the
# MOF subset of the Cambridge Structural Database (CSD) v543 
# hosted by the Cambridge Crystallographic Data Centre (CCDC).
#
# This work is licensed under the Creative Commons
# Attribution-NonCommercial-ShareAlike 4.0 International License.
# To view a copy of this license, visit
# http://creativecommons.org/licenses/by-nc-sa/4.0/
# or send a letter to
# Creative Commons, PO Box 1866, Mountain View, CA 94042, USA.
#
# CIF created using the CSD Python API on 29 September 2022
# The structure has been converted into the P1 space group
# The structure has a 3D framework
# The original CSD entry XICKOM is in the trigonal crystal system
# The framework has been calculated to contain at least 10.0% void space
# The void calculation uses a probe of radius 1.32A, grid spacing 0.4
# The framework is charged, counterions have been retained in the structure
#
###############################################################################

data_XICKOM
_chemical_formula_moiety         '(C12 H12 Ga5 Ni2 O18 2-)n'
_symmetry_cell_setting           triclinic
_symmetry_space_group_name_H-M   'P 1'
_symmetry_Int_Tables_number      1
_space_group_name_Hall           'P 1'
loop_
_symmetry_equiv_pos_site_id
_symmetry_equiv_pos_as_xyz
1 x,y,z
_cell_length_a                   8.0822(9)
_cell_length_b                   8.0822(9)
_cell_length_c                   13.701(2)
_cell_angle_alpha                90
_cell_angle_beta                 90
_cell_angle_gamma                120
_cell_volume                     775.072
loop_
_atom_site_label
_atom_site_type_symbol
_atom_site_fract_x
_atom_site_fract_y
_atom_site_fract_z
Ga4 Ga -0.0000 0.0000 0.5000
Ga4_2 Ga -0.0000 1.0000 0.5000
O12 O 0.2080(3) 0.0131(4) 0.41869(16)
Ga4_3 Ga 1.0000 0.0000 0.5000
Ni1 Ni 0.3333 0.6667 0.2500
Ga1 Ga 0.0000 0.0000 0.0000
O1 O 0.3424(3) 0.4594(3) 0.16895(16)
O2 O 0.2080(3) 0.1949(3) 0.08131(16)
C1 C 0.2087(5) 0.3379(5) 0.1187(2)
H1 H 0.1035 0.3533 0.1080
O7 O 0.1170(4) 0.4594(3) 0.33105(16)
C4 C 0.1292(7) 0.3379(5) 0.3813(2)
H4 H 0.2498 0.3533 0.3920
O9 O 0.5406(3) 0.6576(3) 0.33105(16)
O10 O 0.8051(3) 0.7920(3) 0.41869(16)
C5 C 0.6621(5) 0.7913(5) 0.3813(2)
H5 H 0.6467 0.8965 0.3920
O11 O 0.3424(3) 0.8830(4) 0.33105(16)
C6 C 0.2087(5) 0.8708(7) 0.3813(2)
H6 H 0.1035 0.7502 0.3920
Ga4_4 Ga 1.0000 1.0000 0.5000
O13 O 0.5406(3) 0.8830(4) 0.16895(16)
O14 O 0.1170(4) 0.6576(3) 0.16895(16)
Ga1_2 Ga 0.0000 0.0000 1.0000
O17 O 0.0131(4) 0.2080(3) 0.91869(16)
Ga1_3 Ga 0.0000 1.0000 0.0000
C3 C 0.1292(7) 0.7913(5) 0.1187(2)
H3 H 0.2498 0.8965 0.1080
Ga1_4 Ga 0.0000 1.0000 1.0000
O16 O 0.1949(3) 0.9869(4) 0.91869(16)
Ga1_5 Ga 1.0000 0.0000 0.0000
O4 O 0.8051(3) 0.0131(4) 0.08131(16)
O8 O 0.9869(4) 0.1949(3) 0.41869(16)
Ga1_6 Ga 1.0000 0.0000 1.0000
Ga1_7 Ga 1.0000 1.0000 0.0000
C2 C 0.6621(5) 0.8708(7) 0.1187(2)
H2 H 0.6467 0.7502 0.1080
O6 O 0.9869(4) 0.7920(3) 0.08131(16)
Ga1_8 Ga 1.0000 1.0000 1.0000
O15 O 0.7920(3) 0.8051(3) 0.91869(16)
O15_2 O 0.1949(3) 0.2080(3) 0.58131(16)
O16_2 O 0.0131(4) 0.8051(3) 0.58131(16)
O17_2 O 0.7920(3) 0.9869(4) 0.58131(16)
O3 O 0.4594(3) 0.1170(4) 0.83105(16)
C2_2 C 0.3379(5) 0.1292(7) 0.8813(2)
H2_2 H 0.3533 0.2498 0.8920
Ni2 Ni 0.6667 0.3333 0.7500
O5 O 0.8830(4) 0.3424(3) 0.83105(16)
C3_2 C 0.8708(7) 0.2087(5) 0.8813(2)
H3_2 H 0.7502 0.1035 0.8920
O1_2 O 0.6576(3) 0.5406(3) 0.83105(16)
C1_2 C 0.7913(5) 0.6621(5) 0.8813(2)
H1_2 H 0.8965 0.6467 0.8920
O7_2 O 0.8830(4) 0.5406(3) 0.66895(16)
C4_2 C 0.8708(7) 0.6621(5) 0.6187(2)
H4_2 H 0.7502 0.6467 0.6080
O9_2 O 0.4594(3) 0.3424(3) 0.66895(16)
C5_2 C 0.3379(5) 0.2087(5) 0.6187(2)
H5_2 H 0.3533 0.1035 0.6080
O11_2 O 0.6576(3) 0.1170(4) 0.66895(16)
C6_2 C 0.7913(5) 0.1292(7) 0.6187(2)
H6_2 H 0.8965 0.2498 0.6080
loop_
_geom_bond_atom_site_label_1
_geom_bond_atom_site_label_2
_geom_bond_site_symmetry_1
_geom_bond_site_symmetry_2
Ga4 O12 1_555 1_555
Ni1 O1 1_555 1_555
Ga1 O2 1_555 1_555
O1 C1 1_555 1_555
O2 C1 1_555 1_555
C1 H1 1_555 1_555
O7 Ni1 1_555 1_555
C4 O7 1_555 1_555
H4 C4 1_555 1_555
O9 Ni1 1_555 1_555
O10 C5 1_555 1_555
C5 O9 1_555 1_555
H5 C5 1_555 1_555
O11 Ni1 1_555 1_555
C6 O11 1_555 1_555
H6 C6 1_555 1_555
Ga4_4 O10 1_555 1_555
O13 Ni1 1_555 1_555
O14 Ni1 1_555 1_555
O17 Ga1_2 1_555 1_555
O14 C3 1_555 1_555
H3 C3 1_555 1_555
O16 Ga1_4 1_555 1_555
O4 Ga1_5 1_555 1_555
Ga4_3 O8 1_555 1_555
O13 C2 1_555 1_555
H2 C2 1_555 1_555
O6 Ga1_7 1_555 1_555
O15 Ga1_8 1_555 1_555
O15_2 Ga4 1_555 1_555
O16_2 Ga4_2 1_555 1_555
O17_2 Ga4_4 1_555 1_555
O3 C2_2 1_555 1_555
H2_2 C2_2 1_555 1_555
Ni2 O3 1_555 1_555
O5 C3_2 1_555 1_555
H3_2 C3_2 1_555 1_555
Ni2 O5 1_555 1_555
Ni2 O1_2 1_555 1_555
O1_2 C1_2 1_555 1_555
O15 C1_2 1_555 1_555
C1_2 H1_2 1_555 1_555
O7_2 Ni2 1_555 1_555
C4_2 O7_2 1_555 1_555
H4_2 C4_2 1_555 1_555
O9_2 Ni2 1_555 1_555
O15_2 C5_2 1_555 1_555
C5_2 O9_2 1_555 1_555
H5_2 C5_2 1_555 1_555
O11_2 Ni2 1_555 1_555
C6_2 O11_2 1_555 1_555
H6_2 C6_2 1_555 1_555

#END
