
###############################################################################
#
# This file contains modified crystal structure data generated from the
# MOF subset of the Cambridge Structural Database (CSD) v543 
# hosted by the Cambridge Crystallographic Data Centre (CCDC).
#
# This work is licensed under the Creative Commons
# Attribution-NonCommercial-ShareAlike 4.0 International License.
# To view a copy of this license, visit
# http://creativecommons.org/licenses/by-nc-sa/4.0/
# or send a letter to
# Creative Commons, PO Box 1866, Mountain View, CA 94042, USA.
#
# CIF created using the CSD Python API on 29 September 2022
# The structure has been converted into the P1 space group
# The structure has a 3D framework
# The original CSD entry XICNOO01 is in the cubic crystal system
# The framework has been calculated to contain at least 10.0% void space
# The void calculation uses a probe of radius 1.32A, grid spacing 0.4
#
###############################################################################

data_XICNOO01
_chemical_formula_moiety         '(C576 H192 O708 S96 Zr148)n'
_symmetry_cell_setting           triclinic
_symmetry_space_group_name_H-M   'P 1'
_symmetry_Int_Tables_number      1
_space_group_name_Hall           'P 1'
loop_
_symmetry_equiv_pos_site_id
_symmetry_equiv_pos_as_xyz
1 x,y,z
_cell_length_a                   39.030(5)
_cell_length_b                   39.030(5)
_cell_length_c                   39.030(5)
_cell_angle_alpha                90
_cell_angle_beta                 90
_cell_angle_gamma                90
_cell_volume                     59456
loop_
_atom_site_label
_atom_site_type_symbol
_atom_site_fract_x
_atom_site_fract_y
_atom_site_fract_z
Zr1 Zr 0.217965(13) 0.282035(13) 0.045343(18)
Zr2 Zr 0.205533(13) 0.205533(13) 0.0000
S1 S 0.24891(7) 0.11092(7) 0.11092(7)
C1 C 0.23006(17) 0.15311(17) 0.05738(16)
C2 C 0.22103(19) 0.12401(18) 0.07992(19)
C3 C 0.1923(2) 0.1045(2) 0.0793(2)
H1 H 0.1746 0.1076 0.0637
O1 O 0.20887(10) 0.16071(10) 0.03417(10)
O2 O 0.22866(16) 0.22866(16) 0.0444(3)
O3 O 0.25758(13) 0.16863(14) 0.06383(15)
O4 O 0.2206(2) 0.2794(2) 0.10099(19)
O5 O 0.17860(13) 0.32140(13) 0.0446(3)
O6 O 0.24008(17) 0.3032(3) 0.0000
C4 C 0.23006(17) 0.05738(16) 0.15311(17)
C5 C 0.22103(19) 0.07992(19) 0.12401(18)
C6 C 0.1923(2) 0.0793(2) 0.1045(2)
H2 H 0.1746 0.0637 0.1076
O7 O 0.20887(10) 0.03417(10) 0.16071(10)
O8 O 0.25758(13) 0.06383(15) 0.16863(14)
S2 S 0.11092(7) 0.24891(7) 0.11092(7)
C7 C 0.05738(16) 0.23006(17) 0.15311(17)
C8 C 0.07992(19) 0.22103(19) 0.12401(18)
C9 C 0.0793(2) 0.1923(2) 0.1045(2)
H3 H 0.0637 0.1746 0.1076
O9 O 0.03417(10) 0.20887(10) 0.16071(10)
O10 O 0.06383(15) 0.25758(13) 0.16863(14)
C10 C 0.15311(17) 0.23006(17) 0.05738(16)
C11 C 0.12401(18) 0.22103(19) 0.07992(19)
C12 C 0.1045(2) 0.1923(2) 0.0793(2)
H4 H 0.1076 0.1746 0.0637
O11 O 0.16071(10) 0.20887(10) 0.03417(10)
O12 O 0.16863(14) 0.25758(13) 0.06383(15)
Zr3 Zr 0.282035(13) 0.217965(13) 0.045343(18)
O13 O 0.27134(16) 0.27134(16) 0.0444(3)
O14 O 0.2794(2) 0.2206(2) 0.10099(19)
O15 O 0.32140(13) 0.17860(13) 0.0446(3)
O16 O 0.25992(17) 0.1968(3) 0.0000
Zr4 Zr 0.282035(13) 0.045343(18) 0.217965(13)
Zr6 Zr 0.045343(18) 0.282035(13) 0.217965(13)
Zr8 Zr 0.0000 0.205533(13) 0.205533(13)
Zr9 Zr 0.205533(13) 0.0000 0.205533(13)
Zr10 Zr 0.294467(13) 0.294467(13) 0.0000
O20 O 0.24242(13) 0.33137(14) 0.06383(15)
O21 O 0.33137(14) 0.24242(13) 0.06383(15)
O22 O 0.3032(3) 0.24008(17) 0.0000
O23 O 0.1968(3) 0.25992(17) 0.0000
Zr2_2 Zr 0.205533(13) 0.205533(13) 1.0000
O6_2 O 0.24008(17) 0.3032(3) 1.0000
O16_2 O 0.25992(17) 0.1968(3) 1.0000
Zr5 Zr 0.282035(13) 0.217965(13) 0.954657(18)
Zr7 Zr 0.217965(13) 0.282035(13) 0.954657(18)
Zr10_2 Zr 0.294467(13) 0.294467(13) 1.0000
O17 O 0.16071(10) 0.20887(10) 0.96583(10)
O18 O 0.20887(10) 0.16071(10) 0.96583(10)
O19 O 0.22866(16) 0.22866(16) 0.9556(3)
O22_2 O 0.3032(3) 0.24008(17) 1.0000
O23_2 O 0.1968(3) 0.25992(17) 1.0000
Zr9_2 Zr 0.205533(13) 1.0000 0.205533(13)
Zr8_2 Zr 1.0000 0.205533(13) 0.205533(13)
Zr8_3 Zr 0.0000 0.794467(13) 0.205533(13)
Zr9_3 Zr 0.794467(13) 0.0000 0.205533(13)
Zr1_2 Zr 0.782035(13) 0.717965(13) 0.045343(18)
Zr2_3 Zr 0.794467(13) 0.794467(13) 0.0000
S1_2 S 0.75109(7) 0.88908(7) 0.11092(7)
C1_2 C 0.76994(17) 0.84689(17) 0.05738(16)
C2_2 C 0.77897(19) 0.87599(18) 0.07992(19)
C3_2 C 0.8077(2) 0.8955(2) 0.0793(2)
H1_2 H 0.8254 0.8924 0.0637
O1_2 O 0.79113(10) 0.83929(10) 0.03417(10)
O2_2 O 0.77134(16) 0.77134(16) 0.0444(3)
O3_2 O 0.74242(13) 0.83137(14) 0.06383(15)
O4_2 O 0.7794(2) 0.7206(2) 0.10099(19)
O5_2 O 0.82140(13) 0.67860(13) 0.0446(3)
O6_3 O 0.75992(17) 0.6968(3) 0.0000
C4_2 C 0.76994(17) 0.94262(16) 0.15311(17)
C5_2 C 0.77897(19) 0.92008(19) 0.12401(18)
C6_2 C 0.8077(2) 0.9207(2) 0.1045(2)
H2_2 H 0.8254 0.9363 0.1076
O7_2 O 0.79113(10) 0.96583(10) 0.16071(10)
O8_2 O 0.74242(13) 0.93617(15) 0.16863(14)
S2_2 S 0.88908(7) 0.75109(7) 0.11092(7)
C7_2 C 0.94262(16) 0.76994(17) 0.15311(17)
C8_2 C 0.92008(19) 0.77897(19) 0.12401(18)
C9_2 C 0.9207(2) 0.8077(2) 0.1045(2)
H3_2 H 0.9363 0.8254 0.1076
O9_2 O 0.96583(10) 0.79113(10) 0.16071(10)
O10_2 O 0.93617(15) 0.74242(13) 0.16863(14)
C10_2 C 0.84689(17) 0.76994(17) 0.05738(16)
C11_2 C 0.87599(18) 0.77897(19) 0.07992(19)
C12_2 C 0.8955(2) 0.8077(2) 0.0793(2)
H4_2 H 0.8924 0.8254 0.0637
O11_2 O 0.83929(10) 0.79113(10) 0.03417(10)
O12_2 O 0.83137(14) 0.74242(13) 0.06383(15)
Zr3_2 Zr 0.717965(13) 0.782035(13) 0.045343(18)
O13_2 O 0.72866(16) 0.72866(16) 0.0444(3)
O14_2 O 0.7206(2) 0.7794(2) 0.10099(19)
O15_2 O 0.67860(13) 0.82140(13) 0.0446(3)
O16_3 O 0.74008(17) 0.8032(3) 0.0000
Zr4_2 Zr 0.717965(13) 0.954657(18) 0.217965(13)
Zr6_2 Zr 0.954657(18) 0.717965(13) 0.217965(13)
Zr8_4 Zr 1.0000 0.794467(13) 0.205533(13)
Zr9_4 Zr 0.794467(13) 1.0000 0.205533(13)
Zr10_3 Zr 0.705533(13) 0.705533(13) 0.0000
O20_2 O 0.75758(13) 0.66863(14) 0.06383(15)
O21_2 O 0.66863(14) 0.75758(13) 0.06383(15)
O22_3 O 0.6968(3) 0.75992(17) 0.0000
O23_3 O 0.8032(3) 0.74008(17) 0.0000
Zr2_4 Zr 0.794467(13) 0.794467(13) 1.0000
O6_4 O 0.75992(17) 0.6968(3) 1.0000
O16_4 O 0.74008(17) 0.8032(3) 1.0000
Zr5_2 Zr 0.717965(13) 0.782035(13) 0.954657(18)
Zr7_2 Zr 0.782035(13) 0.717965(13) 0.954657(18)
Zr10_4 Zr 0.705533(13) 0.705533(13) 1.0000
O17_2 O 0.83929(10) 0.79113(10) 0.96583(10)
O18_2 O 0.79113(10) 0.83929(10) 0.96583(10)
O19_2 O 0.77134(16) 0.77134(16) 0.9556(3)
O22_4 O 0.6968(3) 0.75992(17) 1.0000
O23_4 O 0.8032(3) 0.74008(17) 1.0000
Zr8_5 Zr 0.0000 0.205533(13) 0.794467(13)
Zr2_5 Zr 0.794467(13) 0.205533(13) 0.0000
O6_5 O 0.75992(17) 0.3032(3) 0.0000
O16_5 O 0.74008(17) 0.1968(3) 0.0000
Zr5_3 Zr 0.717965(13) 0.217965(13) 0.045343(18)
Zr7_3 Zr 0.782035(13) 0.282035(13) 0.045343(18)
Zr10_5 Zr 0.705533(13) 0.294467(13) 0.0000
O17_3 O 0.83929(10) 0.20887(10) 0.03417(10)
O18_3 O 0.79113(10) 0.16071(10) 0.03417(10)
O19_3 O 0.77134(16) 0.22866(16) 0.0444(3)
O22_5 O 0.6968(3) 0.24008(17) 0.0000
O23_5 O 0.8032(3) 0.25992(17) 0.0000
Zr1_3 Zr 0.782035(13) 0.282035(13) 0.954657(18)
Zr2_6 Zr 0.794467(13) 0.205533(13) 1.0000
S1_3 S 0.75109(7) 0.11092(7) 0.88908(7)
C1_3 C 0.76994(17) 0.15311(17) 0.94262(16)
C2_3 C 0.77897(19) 0.12401(18) 0.92008(19)
C3_3 C 0.8077(2) 0.1045(2) 0.9207(2)
H1_3 H 0.8254 0.1076 0.9363
O1_3 O 0.79113(10) 0.16071(10) 0.96583(10)
O2_3 O 0.77134(16) 0.22866(16) 0.9556(3)
O3_3 O 0.74242(13) 0.16863(14) 0.93617(15)
O4_3 O 0.7794(2) 0.2794(2) 0.89901(19)
O5_3 O 0.82140(13) 0.32140(13) 0.9554(3)
O6_6 O 0.75992(17) 0.3032(3) 1.0000
C4_3 C 0.76994(17) 0.05738(16) 0.84689(17)
C5_3 C 0.77897(19) 0.07992(19) 0.87599(18)
C6_3 C 0.8077(2) 0.0793(2) 0.8955(2)
H2_3 H 0.8254 0.0637 0.8924
O7_3 O 0.79113(10) 0.03417(10) 0.83929(10)
O8_3 O 0.74242(13) 0.06383(15) 0.83137(14)
S2_3 S 0.88908(7) 0.24891(7) 0.88908(7)
C7_3 C 0.94262(16) 0.23006(17) 0.84689(17)
C8_3 C 0.92008(19) 0.22103(19) 0.87599(18)
C9_3 C 0.9207(2) 0.1923(2) 0.8955(2)
H3_3 H 0.9363 0.1746 0.8924
O9_3 O 0.96583(10) 0.20887(10) 0.83929(10)
O10_3 O 0.93617(15) 0.25758(13) 0.83137(14)
C10_3 C 0.84689(17) 0.23006(17) 0.94262(16)
C11_3 C 0.87599(18) 0.22103(19) 0.92008(19)
C12_3 C 0.8955(2) 0.1923(2) 0.9207(2)
H4_3 H 0.8924 0.1746 0.9363
O11_3 O 0.83929(10) 0.20887(10) 0.96583(10)
O12_3 O 0.83137(14) 0.25758(13) 0.93617(15)
Zr3_3 Zr 0.717965(13) 0.217965(13) 0.954657(18)
O13_3 O 0.72866(16) 0.27134(16) 0.9556(3)
O14_3 O 0.7206(2) 0.2206(2) 0.89901(19)
O15_3 O 0.67860(13) 0.17860(13) 0.9554(3)
O16_6 O 0.74008(17) 0.1968(3) 1.0000
Zr4_3 Zr 0.717965(13) 0.045343(18) 0.782035(13)
Zr6_3 Zr 0.954657(18) 0.282035(13) 0.782035(13)
Zr8_6 Zr 1.0000 0.205533(13) 0.794467(13)
Zr9_5 Zr 0.794467(13) 0.0000 0.794467(13)
Zr10_6 Zr 0.705533(13) 0.294467(13) 1.0000
O20_3 O 0.75758(13) 0.33137(14) 0.93617(15)
O21_3 O 0.66863(14) 0.24242(13) 0.93617(15)
O22_6 O 0.6968(3) 0.24008(17) 1.0000
O23_6 O 0.8032(3) 0.25992(17) 1.0000
Zr9_6 Zr 0.794467(13) 1.0000 0.794467(13)
Zr9_7 Zr 0.205533(13) 0.0000 0.794467(13)
Zr2_7 Zr 0.205533(13) 0.794467(13) 0.0000
O6_7 O 0.24008(17) 0.6968(3) 0.0000
O16_7 O 0.25992(17) 0.8032(3) 0.0000
Zr5_4 Zr 0.282035(13) 0.782035(13) 0.045343(18)
Zr7_4 Zr 0.217965(13) 0.717965(13) 0.045343(18)
Zr10_7 Zr 0.294467(13) 0.705533(13) 0.0000
O17_4 O 0.16071(10) 0.79113(10) 0.03417(10)
O18_4 O 0.20887(10) 0.83929(10) 0.03417(10)
O19_4 O 0.22866(16) 0.77134(16) 0.0444(3)
O22_7 O 0.3032(3) 0.75992(17) 0.0000
O23_7 O 0.1968(3) 0.74008(17) 0.0000
Zr1_4 Zr 0.217965(13) 0.717965(13) 0.954657(18)
Zr2_8 Zr 0.205533(13) 0.794467(13) 1.0000
S1_4 S 0.24891(7) 0.88908(7) 0.88908(7)
C1_4 C 0.23006(17) 0.84689(17) 0.94262(16)
C2_4 C 0.22103(19) 0.87599(18) 0.92008(19)
C3_4 C 0.1923(2) 0.8955(2) 0.9207(2)
H1_4 H 0.1746 0.8924 0.9363
O1_4 O 0.20887(10) 0.83929(10) 0.96583(10)
O2_4 O 0.22866(16) 0.77134(16) 0.9556(3)
O3_4 O 0.25758(13) 0.83137(14) 0.93617(15)
O4_4 O 0.2206(2) 0.7206(2) 0.89901(19)
O5_4 O 0.17860(13) 0.67860(13) 0.9554(3)
O6_8 O 0.24008(17) 0.6968(3) 1.0000
C4_4 C 0.23006(17) 0.94262(16) 0.84689(17)
C5_4 C 0.22103(19) 0.92008(19) 0.87599(18)
C6_4 C 0.1923(2) 0.9207(2) 0.8955(2)
H2_4 H 0.1746 0.9363 0.8924
O7_4 O 0.20887(10) 0.96583(10) 0.83929(10)
O8_4 O 0.25758(13) 0.93617(15) 0.83137(14)
S2_4 S 0.11092(7) 0.75109(7) 0.88908(7)
C7_4 C 0.05738(16) 0.76994(17) 0.84689(17)
C8_4 C 0.07992(19) 0.77897(19) 0.87599(18)
C9_4 C 0.0793(2) 0.8077(2) 0.8955(2)
H3_4 H 0.0637 0.8254 0.8924
O9_4 O 0.03417(10) 0.79113(10) 0.83929(10)
O10_4 O 0.06383(15) 0.74242(13) 0.83137(14)
C10_4 C 0.15311(17) 0.76994(17) 0.94262(16)
C11_4 C 0.12401(18) 0.77897(19) 0.92008(19)
C12_4 C 0.1045(2) 0.8077(2) 0.9207(2)
H4_4 H 0.1076 0.8254 0.9363
O11_4 O 0.16071(10) 0.79113(10) 0.96583(10)
O12_4 O 0.16863(14) 0.74242(13) 0.93617(15)
Zr3_4 Zr 0.282035(13) 0.782035(13) 0.954657(18)
O13_4 O 0.27134(16) 0.72866(16) 0.9556(3)
O14_4 O 0.2794(2) 0.7794(2) 0.89901(19)
O15_4 O 0.32140(13) 0.82140(13) 0.9554(3)
O16_8 O 0.25992(17) 0.8032(3) 1.0000
Zr4_4 Zr 0.282035(13) 0.954657(18) 0.782035(13)
Zr6_4 Zr 0.045343(18) 0.717965(13) 0.782035(13)
Zr8_7 Zr 0.0000 0.794467(13) 0.794467(13)
Zr9_8 Zr 0.205533(13) 1.0000 0.794467(13)
Zr10_8 Zr 0.294467(13) 0.705533(13) 1.0000
O20_4 O 0.24242(13) 0.66863(14) 0.93617(15)
O21_4 O 0.33137(14) 0.75758(13) 0.93617(15)
O22_8 O 0.3032(3) 0.75992(17) 1.0000
O23_8 O 0.1968(3) 0.74008(17) 1.0000
Zr8_8 Zr 1.0000 0.794467(13) 0.794467(13)
Zr1_5 Zr 0.045343(18) 0.217965(13) 0.282035(13)
O2_5 O 0.0444(3) 0.22866(16) 0.22866(16)
O4_5 O 0.10099(19) 0.2206(2) 0.2794(2)
O5_5 O 0.0446(3) 0.17860(13) 0.32140(13)
O6_9 O -0.0000 0.24008(17) 0.3032(3)
S2_5 S 0.11092(7) 0.11092(7) 0.24891(7)
C7_5 C 0.15311(17) 0.05738(16) 0.23006(17)
C8_5 C 0.12401(18) 0.07992(19) 0.22103(19)
C9_5 C 0.1045(2) 0.0793(2) 0.1923(2)
H3_5 H 0.1076 0.0637 0.1746
O9_5 O 0.16071(10) 0.03417(10) 0.20887(10)
O10_5 O 0.16863(14) 0.06383(15) 0.25758(13)
C10_5 C 0.05738(16) 0.15311(17) 0.23006(17)
C11_5 C 0.07992(19) 0.12401(18) 0.22103(19)
C12_5 C 0.0793(2) 0.1045(2) 0.1923(2)
H4_5 H 0.0637 0.1076 0.1746
O11_5 O 0.03417(10) 0.16071(10) 0.20887(10)
O12_5 O 0.06383(15) 0.16863(14) 0.25758(13)
O13_5 O 0.0444(3) 0.27134(16) 0.27134(16)
O14_5 O 0.10099(19) 0.2794(2) 0.2206(2)
O15_5 O 0.0446(3) 0.32140(13) 0.17860(13)
O16_9 O 0.0000 0.25992(17) 0.1968(3)
Zr6_5 Zr 0.217965(13) 0.045343(18) 0.282035(13)
Zr10_9 Zr 0.0000 0.294467(13) 0.294467(13)
O20_5 O 0.06383(15) 0.24242(13) 0.33137(14)
O21_5 O 0.06383(15) 0.33137(14) 0.24242(13)
O22_9 O 0.0000 0.3032(3) 0.24008(17)
O23_9 O 0.0000 0.1968(3) 0.25992(17)
O6_10 O 1.0000 0.24008(17) 0.3032(3)
O16_10 O 1.0000 0.25992(17) 0.1968(3)
Zr5_5 Zr 0.954657(18) 0.282035(13) 0.217965(13)
Zr7_5 Zr 0.954657(18) 0.217965(13) 0.282035(13)
Zr10_10 Zr 1.0000 0.294467(13) 0.294467(13)
O17_5 O 0.96583(10) 0.16071(10) 0.20887(10)
O18_5 O 0.96583(10) 0.20887(10) 0.16071(10)
O19_5 O 0.9556(3) 0.22866(16) 0.22866(16)
O22_10 O 1.0000 0.3032(3) 0.24008(17)
O23_10 O 1.0000 0.1968(3) 0.25992(17)
Zr1_6 Zr 0.045343(18) 0.782035(13) 0.717965(13)
O2_6 O 0.0444(3) 0.77134(16) 0.77134(16)
O4_6 O 0.10099(19) 0.7794(2) 0.7206(2)
O5_6 O 0.0446(3) 0.82140(13) 0.67860(13)
O6_11 O 0.0000 0.75992(17) 0.6968(3)
S2_6 S 0.11092(7) 0.88908(7) 0.75109(7)
C7_6 C 0.15311(17) 0.94262(16) 0.76994(17)
C8_6 C 0.12401(18) 0.92008(19) 0.77897(19)
C9_6 C 0.1045(2) 0.9207(2) 0.8077(2)
H3_6 H 0.1076 0.9363 0.8254
O9_6 O 0.16071(10) 0.96583(10) 0.79113(10)
O10_6 O 0.16863(14) 0.93617(15) 0.74242(13)
C10_6 C 0.05738(16) 0.84689(17) 0.76994(17)
C11_6 C 0.07992(19) 0.87599(18) 0.77897(19)
C12_6 C 0.0793(2) 0.8955(2) 0.8077(2)
H4_6 H 0.0637 0.8924 0.8254
O11_6 O 0.03417(10) 0.83929(10) 0.79113(10)
O12_6 O 0.06383(15) 0.83137(14) 0.74242(13)
O13_6 O 0.0444(3) 0.72866(16) 0.72866(16)
O14_6 O 0.10099(19) 0.7206(2) 0.7794(2)
O15_6 O 0.0446(3) 0.67860(13) 0.82140(13)
O16_11 O 0.0000 0.74008(17) 0.8032(3)
Zr6_6 Zr 0.217965(13) 0.954657(18) 0.717965(13)
Zr10_11 Zr 0.0000 0.705533(13) 0.705533(13)
O20_6 O 0.06383(15) 0.75758(13) 0.66863(14)
O21_6 O 0.06383(15) 0.66863(14) 0.75758(13)
O22_11 O 0.0000 0.6968(3) 0.75992(17)
O23_11 O 0.0000 0.8032(3) 0.74008(17)
O6_12 O 1.0000 0.75992(17) 0.6968(3)
O16_12 O 1.0000 0.74008(17) 0.8032(3)
Zr5_6 Zr 0.954657(18) 0.717965(13) 0.782035(13)
Zr7_6 Zr 0.954657(18) 0.782035(13) 0.717965(13)
Zr10_12 Zr 1.0000 0.705533(13) 0.705533(13)
O17_6 O 0.96583(10) 0.83929(10) 0.79113(10)
O18_6 O 0.96583(10) 0.79113(10) 0.83929(10)
O19_6 O 0.9556(3) 0.77134(16) 0.77134(16)
O22_12 O 1.0000 0.6968(3) 0.75992(17)
O23_12 O 1.0000 0.8032(3) 0.74008(17)
O6_13 O 0.0000 0.75992(17) 0.3032(3)
O16_13 O 0.0000 0.74008(17) 0.1968(3)
Zr5_7 Zr 0.045343(18) 0.717965(13) 0.217965(13)
Zr7_7 Zr 0.045343(18) 0.782035(13) 0.282035(13)
Zr10_13 Zr 0.0000 0.705533(13) 0.294467(13)
O17_7 O 0.03417(10) 0.83929(10) 0.20887(10)
O18_7 O 0.03417(10) 0.79113(10) 0.16071(10)
O19_7 O 0.0444(3) 0.77134(16) 0.22866(16)
O22_13 O 0.0000 0.6968(3) 0.24008(17)
O23_13 O 0.0000 0.8032(3) 0.25992(17)
Zr1_7 Zr 0.954657(18) 0.782035(13) 0.282035(13)
O2_7 O 0.9556(3) 0.77134(16) 0.22866(16)
O4_7 O 0.89901(19) 0.7794(2) 0.2794(2)
O5_7 O 0.9554(3) 0.82140(13) 0.32140(13)
O6_14 O 1.0000 0.75992(17) 0.3032(3)
S2_7 S 0.88908(7) 0.88908(7) 0.24891(7)
C7_7 C 0.84689(17) 0.94262(16) 0.23006(17)
C8_7 C 0.87599(18) 0.92008(19) 0.22103(19)
C9_7 C 0.8955(2) 0.9207(2) 0.1923(2)
H3_7 H 0.8924 0.9363 0.1746
O9_7 O 0.83929(10) 0.96583(10) 0.20887(10)
O10_7 O 0.83137(14) 0.93617(15) 0.25758(13)
C10_7 C 0.94262(16) 0.84689(17) 0.23006(17)
C11_7 C 0.92008(19) 0.87599(18) 0.22103(19)
C12_7 C 0.9207(2) 0.8955(2) 0.1923(2)
H4_7 H 0.9363 0.8924 0.1746
O11_7 O 0.96583(10) 0.83929(10) 0.20887(10)
O12_7 O 0.93617(15) 0.83137(14) 0.25758(13)
O13_7 O 0.9556(3) 0.72866(16) 0.27134(16)
O14_7 O 0.89901(19) 0.7206(2) 0.2206(2)
O15_7 O 0.9554(3) 0.67860(13) 0.17860(13)
O16_14 O 1.0000 0.74008(17) 0.1968(3)
Zr6_7 Zr 0.782035(13) 0.954657(18) 0.282035(13)
Zr10_14 Zr 1.0000 0.705533(13) 0.294467(13)
O20_7 O 0.93617(15) 0.75758(13) 0.33137(14)
O21_7 O 0.93617(15) 0.66863(14) 0.24242(13)
O22_14 O 1.0000 0.6968(3) 0.24008(17)
O23_14 O 1.0000 0.8032(3) 0.25992(17)
O6_15 O 0.0000 0.24008(17) 0.6968(3)
O16_15 O 0.0000 0.25992(17) 0.8032(3)
Zr5_8 Zr 0.045343(18) 0.282035(13) 0.782035(13)
Zr7_8 Zr 0.045343(18) 0.217965(13) 0.717965(13)
Zr10_15 Zr 0.0000 0.294467(13) 0.705533(13)
O17_8 O 0.03417(10) 0.16071(10) 0.79113(10)
O18_8 O 0.03417(10) 0.20887(10) 0.83929(10)
O19_8 O 0.0444(3) 0.22866(16) 0.77134(16)
O22_15 O 0.0000 0.3032(3) 0.75992(17)
O23_15 O 0.0000 0.1968(3) 0.74008(17)
Zr1_8 Zr 0.954657(18) 0.217965(13) 0.717965(13)
O2_8 O 0.9556(3) 0.22866(16) 0.77134(16)
O4_8 O 0.89901(19) 0.2206(2) 0.7206(2)
O5_8 O 0.9554(3) 0.17860(13) 0.67860(13)
O6_16 O 1.0000 0.24008(17) 0.6968(3)
S2_8 S 0.88908(7) 0.11092(7) 0.75109(7)
C7_8 C 0.84689(17) 0.05738(16) 0.76994(17)
C8_8 C 0.87599(18) 0.07992(19) 0.77897(19)
C9_8 C 0.8955(2) 0.0793(2) 0.8077(2)
H3_8 H 0.8924 0.0637 0.8254
O9_8 O 0.83929(10) 0.03417(10) 0.79113(10)
O10_8 O 0.83137(14) 0.06383(15) 0.74242(13)
C10_8 C 0.94262(16) 0.15311(17) 0.76994(17)
C11_8 C 0.92008(19) 0.12401(18) 0.77897(19)
C12_8 C 0.9207(2) 0.1045(2) 0.8077(2)
H4_8 H 0.9363 0.1076 0.8254
O11_8 O 0.96583(10) 0.16071(10) 0.79113(10)
O12_8 O 0.93617(15) 0.16863(14) 0.74242(13)
O13_8 O 0.9556(3) 0.27134(16) 0.72866(16)
O14_8 O 0.89901(19) 0.2794(2) 0.7794(2)
O15_8 O 0.9554(3) 0.32140(13) 0.82140(13)
O16_16 O 1.0000 0.25992(17) 0.8032(3)
Zr6_8 Zr 0.782035(13) 0.045343(18) 0.717965(13)
Zr10_16 Zr 1.0000 0.294467(13) 0.705533(13)
O20_8 O 0.93617(15) 0.24242(13) 0.66863(14)
O21_8 O 0.93617(15) 0.33137(14) 0.75758(13)
O22_16 O 1.0000 0.3032(3) 0.75992(17)
O23_16 O 1.0000 0.1968(3) 0.74008(17)
O2_9 O 0.22866(16) 0.0444(3) 0.22866(16)
O4_9 O 0.2794(2) 0.10099(19) 0.2206(2)
O5_9 O 0.32140(13) 0.0446(3) 0.17860(13)
O6_17 O 0.3032(3) 0.0000 0.24008(17)
O13_9 O 0.27134(16) 0.0444(3) 0.27134(16)
O14_9 O 0.2206(2) 0.10099(19) 0.2794(2)
O15_9 O 0.17860(13) 0.0446(3) 0.32140(13)
O16_17 O 0.1968(3) 0.0000 0.25992(17)
Zr10_17 Zr 0.294467(13) 0.0000 0.294467(13)
O20_9 O 0.33137(14) 0.06383(15) 0.24242(13)
O21_9 O 0.24242(13) 0.06383(15) 0.33137(14)
O22_17 O 0.24008(17) 0.0000 0.3032(3)
O23_17 O 0.25992(17) 0.0000 0.1968(3)
O6_18 O 0.3032(3) 1.0000 0.24008(17)
O16_18 O 0.1968(3) 1.0000 0.25992(17)
Zr5_9 Zr 0.217965(13) 0.954657(18) 0.282035(13)
Zr7_9 Zr 0.282035(13) 0.954657(18) 0.217965(13)
Zr10_18 Zr 0.294467(13) 1.0000 0.294467(13)
O17_9 O 0.20887(10) 0.96583(10) 0.16071(10)
O18_9 O 0.16071(10) 0.96583(10) 0.20887(10)
O19_9 O 0.22866(16) 0.9556(3) 0.22866(16)
O22_18 O 0.24008(17) 1.0000 0.3032(3)
O23_18 O 0.25992(17) 1.0000 0.1968(3)
O2_10 O 0.77134(16) 0.0444(3) 0.77134(16)
O4_10 O 0.7206(2) 0.10099(19) 0.7794(2)
O5_10 O 0.67860(13) 0.0446(3) 0.82140(13)
O6_19 O 0.6968(3) 0.0000 0.75992(17)
O13_10 O 0.72866(16) 0.0444(3) 0.72866(16)
O14_10 O 0.7794(2) 0.10099(19) 0.7206(2)
O15_10 O 0.82140(13) 0.0446(3) 0.67860(13)
O16_19 O 0.8032(3) 0.0000 0.74008(17)
Zr10_19 Zr 0.705533(13) 0.0000 0.705533(13)
O20_10 O 0.66863(14) 0.06383(15) 0.75758(13)
O21_10 O 0.75758(13) 0.06383(15) 0.66863(14)
O22_19 O 0.75992(17) 0.0000 0.6968(3)
O23_19 O 0.74008(17) 0.0000 0.8032(3)
O6_20 O 0.6968(3) 1.0000 0.75992(17)
O16_20 O 0.8032(3) 1.0000 0.74008(17)
Zr5_10 Zr 0.782035(13) 0.954657(18) 0.717965(13)
Zr7_10 Zr 0.717965(13) 0.954657(18) 0.782035(13)
Zr10_20 Zr 0.705533(13) 1.0000 0.705533(13)
O17_10 O 0.79113(10) 0.96583(10) 0.83929(10)
O18_10 O 0.83929(10) 0.96583(10) 0.79113(10)
O19_10 O 0.77134(16) 0.9556(3) 0.77134(16)
O22_20 O 0.75992(17) 1.0000 0.6968(3)
O23_20 O 0.74008(17) 1.0000 0.8032(3)
O6_21 O 0.3032(3) 0.0000 0.75992(17)
O16_21 O 0.1968(3) 0.0000 0.74008(17)
Zr5_11 Zr 0.217965(13) 0.045343(18) 0.717965(13)
Zr7_11 Zr 0.282035(13) 0.045343(18) 0.782035(13)
Zr10_21 Zr 0.294467(13) 0.0000 0.705533(13)
O17_11 O 0.20887(10) 0.03417(10) 0.83929(10)
O18_11 O 0.16071(10) 0.03417(10) 0.79113(10)
O19_11 O 0.22866(16) 0.0444(3) 0.77134(16)
O22_21 O 0.24008(17) 0.0000 0.6968(3)
O23_21 O 0.25992(17) 0.0000 0.8032(3)
O2_11 O 0.22866(16) 0.9556(3) 0.77134(16)
O4_11 O 0.2794(2) 0.89901(19) 0.7794(2)
O5_11 O 0.32140(13) 0.9554(3) 0.82140(13)
O6_22 O 0.3032(3) 1.0000 0.75992(17)
O13_11 O 0.27134(16) 0.9556(3) 0.72866(16)
O14_11 O 0.2206(2) 0.89901(19) 0.7206(2)
O15_11 O 0.17860(13) 0.9554(3) 0.67860(13)
O16_22 O 0.1968(3) 1.0000 0.74008(17)
Zr10_22 Zr 0.294467(13) 1.0000 0.705533(13)
O20_11 O 0.33137(14) 0.93617(15) 0.75758(13)
O21_11 O 0.24242(13) 0.93617(15) 0.66863(14)
O22_22 O 0.24008(17) 1.0000 0.6968(3)
O23_22 O 0.25992(17) 1.0000 0.8032(3)
O6_23 O 0.6968(3) 0.0000 0.24008(17)
O16_23 O 0.8032(3) 0.0000 0.25992(17)
Zr5_12 Zr 0.782035(13) 0.045343(18) 0.282035(13)
Zr7_12 Zr 0.717965(13) 0.045343(18) 0.217965(13)
Zr10_23 Zr 0.705533(13) 0.0000 0.294467(13)
O17_12 O 0.79113(10) 0.03417(10) 0.16071(10)
O18_12 O 0.83929(10) 0.03417(10) 0.20887(10)
O19_12 O 0.77134(16) 0.0444(3) 0.22866(16)
O22_23 O 0.75992(17) 0.0000 0.3032(3)
O23_23 O 0.74008(17) 0.0000 0.1968(3)
O2_12 O 0.77134(16) 0.9556(3) 0.22866(16)
O4_12 O 0.7206(2) 0.89901(19) 0.2206(2)
O5_12 O 0.67860(13) 0.9554(3) 0.17860(13)
O6_24 O 0.6968(3) 1.0000 0.24008(17)
O13_12 O 0.72866(16) 0.9556(3) 0.27134(16)
O14_12 O 0.7794(2) 0.89901(19) 0.2794(2)
O15_12 O 0.82140(13) 0.9554(3) 0.32140(13)
O16_24 O 0.8032(3) 1.0000 0.25992(17)
Zr10_24 Zr 0.705533(13) 1.0000 0.294467(13)
O20_12 O 0.66863(14) 0.93617(15) 0.24242(13)
O21_12 O 0.75758(13) 0.93617(15) 0.33137(14)
O22_24 O 0.75992(17) 1.0000 0.3032(3)
O23_24 O 0.74008(17) 1.0000 0.1968(3)
S1_5 S 0.11092(7) 0.24891(7) 0.88908(7)
C1_5 C 0.15311(17) 0.23006(17) 0.94262(16)
C2_5 C 0.12401(18) 0.22103(19) 0.92008(19)
C3_5 C 0.1045(2) 0.1923(2) 0.9207(2)
H1_5 H 0.1076 0.1746 0.9363
O3_5 O 0.16863(14) 0.25758(13) 0.93617(15)
O4_13 O 0.2794(2) 0.2206(2) 0.89901(19)
O5_13 O 0.32140(13) 0.17860(13) 0.9554(3)
C4_5 C 0.05738(16) 0.23006(17) 0.84689(17)
C5_5 C 0.07992(19) 0.22103(19) 0.87599(18)
C6_5 C 0.0793(2) 0.1923(2) 0.8955(2)
H2_5 H 0.0637 0.1746 0.8924
O8_5 O 0.06383(15) 0.25758(13) 0.83137(14)
S2_9 S 0.24891(7) 0.11092(7) 0.88908(7)
C7_9 C 0.23006(17) 0.05738(16) 0.84689(17)
C8_9 C 0.22103(19) 0.07992(19) 0.87599(18)
C9_9 C 0.1923(2) 0.0793(2) 0.8955(2)
H3_9 H 0.1746 0.0637 0.8924
O10_9 O 0.25758(13) 0.06383(15) 0.83137(14)
C10_9 C 0.23006(17) 0.15311(17) 0.94262(16)
C11_9 C 0.22103(19) 0.12401(18) 0.92008(19)
C12_9 C 0.1923(2) 0.1045(2) 0.9207(2)
H4_9 H 0.1746 0.1076 0.9363
O12_9 O 0.25758(13) 0.16863(14) 0.93617(15)
O13_13 O 0.27134(16) 0.27134(16) 0.9556(3)
O14_13 O 0.2206(2) 0.2794(2) 0.89901(19)
O15_13 O 0.17860(13) 0.32140(13) 0.9554(3)
O20_13 O 0.33137(14) 0.24242(13) 0.93617(15)
O21_13 O 0.24242(13) 0.33137(14) 0.93617(15)
S1_6 S 0.88908(7) 0.75109(7) 0.88908(7)
C1_6 C 0.84689(17) 0.76994(17) 0.94262(16)
C2_6 C 0.87599(18) 0.77897(19) 0.92008(19)
C3_6 C 0.8955(2) 0.8077(2) 0.9207(2)
H1_6 H 0.8924 0.8254 0.9363
O3_6 O 0.83137(14) 0.74242(13) 0.93617(15)
O4_14 O 0.7206(2) 0.7794(2) 0.89901(19)
O5_14 O 0.67860(13) 0.82140(13) 0.9554(3)
C4_6 C 0.94262(16) 0.76994(17) 0.84689(17)
C5_6 C 0.92008(19) 0.77897(19) 0.87599(18)
C6_6 C 0.9207(2) 0.8077(2) 0.8955(2)
H2_6 H 0.9363 0.8254 0.8924
O8_6 O 0.93617(15) 0.74242(13) 0.83137(14)
S2_10 S 0.75109(7) 0.88908(7) 0.88908(7)
C7_10 C 0.76994(17) 0.94262(16) 0.84689(17)
C8_10 C 0.77897(19) 0.92008(19) 0.87599(18)
C9_10 C 0.8077(2) 0.9207(2) 0.8955(2)
H3_10 H 0.8254 0.9363 0.8924
O10_10 O 0.74242(13) 0.93617(15) 0.83137(14)
C10_10 C 0.76994(17) 0.84689(17) 0.94262(16)
C11_10 C 0.77897(19) 0.87599(18) 0.92008(19)
C12_10 C 0.8077(2) 0.8955(2) 0.9207(2)
H4_10 H 0.8254 0.8924 0.9363
O12_10 O 0.74242(13) 0.83137(14) 0.93617(15)
O13_14 O 0.72866(16) 0.72866(16) 0.9556(3)
O14_14 O 0.7794(2) 0.7206(2) 0.89901(19)
O15_14 O 0.82140(13) 0.67860(13) 0.9554(3)
O20_14 O 0.66863(14) 0.75758(13) 0.93617(15)
O21_14 O 0.75758(13) 0.66863(14) 0.93617(15)
S1_7 S 0.11092(7) 0.75109(7) 0.11092(7)
C1_7 C 0.15311(17) 0.76994(17) 0.05738(16)
C2_7 C 0.12401(18) 0.77897(19) 0.07992(19)
C3_7 C 0.1045(2) 0.8077(2) 0.0793(2)
H1_7 H 0.1076 0.8254 0.0637
O3_7 O 0.16863(14) 0.74242(13) 0.06383(15)
O4_15 O 0.2794(2) 0.7794(2) 0.10099(19)
O5_15 O 0.32140(13) 0.82140(13) 0.0446(3)
C4_7 C 0.05738(16) 0.76994(17) 0.15311(17)
C5_7 C 0.07992(19) 0.77897(19) 0.12401(18)
C6_7 C 0.0793(2) 0.8077(2) 0.1045(2)
H2_7 H 0.0637 0.8254 0.1076
O8_7 O 0.06383(15) 0.74242(13) 0.16863(14)
S2_11 S 0.24891(7) 0.88908(7) 0.11092(7)
C7_11 C 0.23006(17) 0.94262(16) 0.15311(17)
C8_11 C 0.22103(19) 0.92008(19) 0.12401(18)
C9_11 C 0.1923(2) 0.9207(2) 0.1045(2)
H3_11 H 0.1746 0.9363 0.1076
O10_11 O 0.25758(13) 0.93617(15) 0.16863(14)
C10_11 C 0.23006(17) 0.84689(17) 0.05738(16)
C11_11 C 0.22103(19) 0.87599(18) 0.07992(19)
C12_11 C 0.1923(2) 0.8955(2) 0.0793(2)
H4_11 H 0.1746 0.8924 0.0637
O12_11 O 0.25758(13) 0.83137(14) 0.06383(15)
O13_15 O 0.27134(16) 0.72866(16) 0.0444(3)
O14_15 O 0.2206(2) 0.7206(2) 0.10099(19)
O15_15 O 0.17860(13) 0.67860(13) 0.0446(3)
O20_15 O 0.33137(14) 0.75758(13) 0.06383(15)
O21_15 O 0.24242(13) 0.66863(14) 0.06383(15)
S1_8 S 0.88908(7) 0.24891(7) 0.11092(7)
C1_8 C 0.84689(17) 0.23006(17) 0.05738(16)
C2_8 C 0.87599(18) 0.22103(19) 0.07992(19)
C3_8 C 0.8955(2) 0.1923(2) 0.0793(2)
H1_8 H 0.8924 0.1746 0.0637
O3_8 O 0.83137(14) 0.25758(13) 0.06383(15)
O4_16 O 0.7206(2) 0.2206(2) 0.10099(19)
O5_16 O 0.67860(13) 0.17860(13) 0.0446(3)
C4_8 C 0.94262(16) 0.23006(17) 0.15311(17)
C5_8 C 0.92008(19) 0.22103(19) 0.12401(18)
C6_8 C 0.9207(2) 0.1923(2) 0.1045(2)
H2_8 H 0.9363 0.1746 0.1076
O8_8 O 0.93617(15) 0.25758(13) 0.16863(14)
S2_12 S 0.75109(7) 0.11092(7) 0.11092(7)
C7_12 C 0.76994(17) 0.05738(16) 0.15311(17)
C8_12 C 0.77897(19) 0.07992(19) 0.12401(18)
C9_12 C 0.8077(2) 0.0793(2) 0.1045(2)
H3_12 H 0.8254 0.0637 0.1076
O10_12 O 0.74242(13) 0.06383(15) 0.16863(14)
C10_12 C 0.76994(17) 0.15311(17) 0.05738(16)
C11_12 C 0.77897(19) 0.12401(18) 0.07992(19)
C12_12 C 0.8077(2) 0.1045(2) 0.0793(2)
H4_12 H 0.8254 0.1076 0.0637
O12_12 O 0.74242(13) 0.16863(14) 0.06383(15)
O13_16 O 0.72866(16) 0.27134(16) 0.0444(3)
O14_16 O 0.7794(2) 0.2794(2) 0.10099(19)
O15_16 O 0.82140(13) 0.32140(13) 0.0446(3)
O20_16 O 0.66863(14) 0.24242(13) 0.06383(15)
O21_16 O 0.75758(13) 0.33137(14) 0.06383(15)
O4_17 O 0.2206(2) 0.10099(19) 0.7206(2)
O5_17 O 0.17860(13) 0.0446(3) 0.67860(13)
S2_13 S 0.11092(7) 0.11092(7) 0.75109(7)
C7_13 C 0.05738(16) 0.15311(17) 0.76994(17)
C8_13 C 0.07992(19) 0.12401(18) 0.77897(19)
C9_13 C 0.0793(2) 0.1045(2) 0.8077(2)
H3_13 H 0.0637 0.1076 0.8254
O10_13 O 0.06383(15) 0.16863(14) 0.74242(13)
C10_13 C 0.15311(17) 0.05738(16) 0.76994(17)
C11_13 C 0.12401(18) 0.07992(19) 0.77897(19)
C12_13 C 0.1045(2) 0.0793(2) 0.8077(2)
H4_13 H 0.1076 0.0637 0.8254
O12_13 O 0.16863(14) 0.06383(15) 0.74242(13)
O13_17 O 0.27134(16) 0.0444(3) 0.72866(16)
O14_17 O 0.2794(2) 0.10099(19) 0.7794(2)
O15_17 O 0.32140(13) 0.0446(3) 0.82140(13)
O20_17 O 0.24242(13) 0.06383(15) 0.66863(14)
O21_17 O 0.33137(14) 0.06383(15) 0.75758(13)
O4_18 O 0.7794(2) 0.10099(19) 0.2794(2)
O5_18 O 0.82140(13) 0.0446(3) 0.32140(13)
S2_14 S 0.88908(7) 0.11092(7) 0.24891(7)
C7_14 C 0.94262(16) 0.15311(17) 0.23006(17)
C8_14 C 0.92008(19) 0.12401(18) 0.22103(19)
C9_14 C 0.9207(2) 0.1045(2) 0.1923(2)
H3_14 H 0.9363 0.1076 0.1746
O10_14 O 0.93617(15) 0.16863(14) 0.25758(13)
C10_14 C 0.84689(17) 0.05738(16) 0.23006(17)
C11_14 C 0.87599(18) 0.07992(19) 0.22103(19)
C12_14 C 0.8955(2) 0.0793(2) 0.1923(2)
H4_14 H 0.8924 0.0637 0.1746
O12_14 O 0.83137(14) 0.06383(15) 0.25758(13)
O13_18 O 0.72866(16) 0.0444(3) 0.27134(16)
O14_18 O 0.7206(2) 0.10099(19) 0.2206(2)
O15_18 O 0.67860(13) 0.0446(3) 0.17860(13)
O20_18 O 0.75758(13) 0.06383(15) 0.33137(14)
O21_18 O 0.66863(14) 0.06383(15) 0.24242(13)
O4_19 O 0.7794(2) 0.89901(19) 0.7206(2)
O5_19 O 0.82140(13) 0.9554(3) 0.67860(13)
S2_15 S 0.88908(7) 0.88908(7) 0.75109(7)
C7_15 C 0.94262(16) 0.84689(17) 0.76994(17)
C8_15 C 0.92008(19) 0.87599(18) 0.77897(19)
C9_15 C 0.9207(2) 0.8955(2) 0.8077(2)
H3_15 H 0.9363 0.8924 0.8254
O10_15 O 0.93617(15) 0.83137(14) 0.74242(13)
C10_15 C 0.84689(17) 0.94262(16) 0.76994(17)
C11_15 C 0.87599(18) 0.92008(19) 0.77897(19)
C12_15 C 0.8955(2) 0.9207(2) 0.8077(2)
H4_15 H 0.8924 0.9363 0.8254
O12_15 O 0.83137(14) 0.93617(15) 0.74242(13)
O13_19 O 0.72866(16) 0.9556(3) 0.72866(16)
O14_19 O 0.7206(2) 0.89901(19) 0.7794(2)
O15_19 O 0.67860(13) 0.9554(3) 0.82140(13)
O20_19 O 0.75758(13) 0.93617(15) 0.66863(14)
O21_19 O 0.66863(14) 0.93617(15) 0.75758(13)
O4_20 O 0.2206(2) 0.89901(19) 0.2794(2)
O5_20 O 0.17860(13) 0.9554(3) 0.32140(13)
S2_16 S 0.11092(7) 0.88908(7) 0.24891(7)
C7_16 C 0.05738(16) 0.84689(17) 0.23006(17)
C8_16 C 0.07992(19) 0.87599(18) 0.22103(19)
C9_16 C 0.0793(2) 0.8955(2) 0.1923(2)
H3_16 H 0.0637 0.8924 0.1746
O10_16 O 0.06383(15) 0.83137(14) 0.25758(13)
C10_16 C 0.15311(17) 0.94262(16) 0.23006(17)
C11_16 C 0.12401(18) 0.92008(19) 0.22103(19)
C12_16 C 0.1045(2) 0.9207(2) 0.1923(2)
H4_16 H 0.1076 0.9363 0.1746
O12_16 O 0.16863(14) 0.93617(15) 0.25758(13)
O13_20 O 0.27134(16) 0.9556(3) 0.27134(16)
O14_20 O 0.2794(2) 0.89901(19) 0.2206(2)
O15_20 O 0.32140(13) 0.9554(3) 0.17860(13)
O20_20 O 0.24242(13) 0.93617(15) 0.33137(14)
O21_20 O 0.33137(14) 0.93617(15) 0.24242(13)
O4_21 O 0.10099(19) 0.2794(2) 0.7794(2)
O5_21 O 0.0446(3) 0.32140(13) 0.82140(13)
O13_21 O 0.0444(3) 0.27134(16) 0.72866(16)
O14_21 O 0.10099(19) 0.2206(2) 0.7206(2)
O15_21 O 0.0446(3) 0.17860(13) 0.67860(13)
O20_21 O 0.06383(15) 0.33137(14) 0.75758(13)
O21_21 O 0.06383(15) 0.24242(13) 0.66863(14)
O4_22 O 0.10099(19) 0.7206(2) 0.2206(2)
O5_22 O 0.0446(3) 0.67860(13) 0.17860(13)
O13_22 O 0.0444(3) 0.72866(16) 0.27134(16)
O14_22 O 0.10099(19) 0.7794(2) 0.2794(2)
O15_22 O 0.0446(3) 0.82140(13) 0.32140(13)
O20_22 O 0.06383(15) 0.66863(14) 0.24242(13)
O21_22 O 0.06383(15) 0.75758(13) 0.33137(14)
O4_23 O 0.89901(19) 0.2794(2) 0.2206(2)
O5_23 O 0.9554(3) 0.32140(13) 0.17860(13)
O13_23 O 0.9556(3) 0.27134(16) 0.27134(16)
O14_23 O 0.89901(19) 0.2206(2) 0.2794(2)
O15_23 O 0.9554(3) 0.17860(13) 0.32140(13)
O20_23 O 0.93617(15) 0.33137(14) 0.24242(13)
O21_23 O 0.93617(15) 0.24242(13) 0.33137(14)
O4_24 O 0.89901(19) 0.7206(2) 0.7794(2)
O5_24 O 0.9554(3) 0.67860(13) 0.82140(13)
O13_24 O 0.9556(3) 0.72866(16) 0.72866(16)
O14_24 O 0.89901(19) 0.7794(2) 0.7206(2)
O15_24 O 0.9554(3) 0.82140(13) 0.67860(13)
O20_24 O 0.93617(15) 0.66863(14) 0.75758(13)
O21_24 O 0.93617(15) 0.75758(13) 0.66863(14)
Zr1_9 Zr 0.217965(13) 0.782035(13) 0.545343(18)
Zr2_9 Zr 0.205533(13) 0.705533(13) 0.5000
S1_9 S 0.24891(7) 0.61092(7) 0.61092(7)
C1_9 C 0.23006(17) 0.65311(17) 0.55738(16)
C2_9 C 0.22103(19) 0.62401(18) 0.57992(19)
C3_9 C 0.1923(2) 0.6045(2) 0.5793(2)
H1_9 H 0.1746 0.6076 0.5637
O1_5 O 0.20887(10) 0.66071(10) 0.53417(10)
O2_13 O 0.22866(16) 0.72866(16) 0.5444(3)
O3_9 O 0.25758(13) 0.66863(14) 0.56383(15)
O4_25 O 0.2206(2) 0.7794(2) 0.60099(19)
O5_25 O 0.17860(13) 0.82140(13) 0.5446(3)
O6_25 O 0.24008(17) 0.8032(3) 0.5000
C4_9 C 0.23006(17) 0.55738(16) 0.65311(17)
C5_9 C 0.22103(19) 0.57992(19) 0.62401(18)
C6_9 C 0.1923(2) 0.5793(2) 0.6045(2)
H2_9 H 0.1746 0.5637 0.6076
O7_5 O 0.20887(10) 0.53417(10) 0.66071(10)
O8_9 O 0.25758(13) 0.56383(15) 0.66863(14)
S2_17 S 0.11092(7) 0.74891(7) 0.61092(7)
C7_17 C 0.05738(16) 0.73006(17) 0.65311(17)
C8_17 C 0.07992(19) 0.72103(19) 0.62401(18)
C9_17 C 0.0793(2) 0.6923(2) 0.6045(2)
H3_17 H 0.0637 0.6746 0.6076
O9_9 O 0.03417(10) 0.70887(10) 0.66071(10)
C10_17 C 0.15311(17) 0.73006(17) 0.55738(16)
C11_17 C 0.12401(18) 0.72103(19) 0.57992(19)
C12_17 C 0.1045(2) 0.6923(2) 0.5793(2)
H4_17 H 0.1076 0.6746 0.5637
O11_9 O 0.16071(10) 0.70887(10) 0.53417(10)
O12_17 O 0.16863(14) 0.75758(13) 0.56383(15)
Zr3_5 Zr 0.282035(13) 0.717965(13) 0.545343(18)
O13_25 O 0.27134(16) 0.77134(16) 0.5444(3)
O14_25 O 0.2794(2) 0.7206(2) 0.60099(19)
O15_25 O 0.32140(13) 0.67860(13) 0.5446(3)
O16_25 O 0.25992(17) 0.6968(3) 0.5000
Zr4_5 Zr 0.282035(13) 0.545343(18) 0.717965(13)
Zr5_13 Zr 0.282035(13) 0.717965(13) 0.454657(18)
Zr7_13 Zr 0.217965(13) 0.782035(13) 0.454657(18)
Zr9_9 Zr 0.205533(13) 0.5000 0.705533(13)
Zr10_25 Zr 0.294467(13) 0.794467(13) 0.5000
O17_13 O 0.16071(10) 0.70887(10) 0.46583(10)
O18_13 O 0.20887(10) 0.66071(10) 0.46583(10)
O19_13 O 0.22866(16) 0.72866(16) 0.4556(3)
O20_25 O 0.24242(13) 0.83137(14) 0.56383(15)
O21_25 O 0.33137(14) 0.74242(13) 0.56383(15)
O22_25 O 0.3032(3) 0.74008(17) 0.5000
O23_25 O 0.1968(3) 0.75992(17) 0.5000
Zr1_10 Zr 0.782035(13) 0.217965(13) 0.545343(18)
Zr2_10 Zr 0.794467(13) 0.294467(13) 0.5000
S1_10 S 0.75109(7) 0.38908(7) 0.61092(7)
C1_10 C 0.76994(17) 0.34689(17) 0.55738(16)
C2_10 C 0.77897(19) 0.37599(18) 0.57992(19)
C3_10 C 0.8077(2) 0.3955(2) 0.5793(2)
H1_10 H 0.8254 0.3924 0.5637
O1_6 O 0.79113(10) 0.33929(10) 0.53417(10)
O2_14 O 0.77134(16) 0.27134(16) 0.5444(3)
O3_10 O 0.74242(13) 0.33137(14) 0.56383(15)
O4_26 O 0.7794(2) 0.2206(2) 0.60099(19)
O5_26 O 0.82140(13) 0.17860(13) 0.5446(3)
O6_26 O 0.75992(17) 0.1968(3) 0.5000
C4_10 C 0.76994(17) 0.44262(16) 0.65311(17)
C5_10 C 0.77897(19) 0.42008(19) 0.62401(18)
C6_10 C 0.8077(2) 0.4207(2) 0.6045(2)
H2_10 H 0.8254 0.4363 0.6076
O7_6 O 0.79113(10) 0.46583(10) 0.66071(10)
O8_10 O 0.74242(13) 0.43617(15) 0.66863(14)
S2_18 S 0.88908(7) 0.25109(7) 0.61092(7)
C7_18 C 0.94262(16) 0.26994(17) 0.65311(17)
C8_18 C 0.92008(19) 0.27897(19) 0.62401(18)
C9_18 C 0.9207(2) 0.3077(2) 0.6045(2)
H3_18 H 0.9363 0.3254 0.6076
O9_10 O 0.96583(10) 0.29113(10) 0.66071(10)
C10_18 C 0.84689(17) 0.26994(17) 0.55738(16)
C11_18 C 0.87599(18) 0.27897(19) 0.57992(19)
C12_18 C 0.8955(2) 0.3077(2) 0.5793(2)
H4_18 H 0.8924 0.3254 0.5637
O11_10 O 0.83929(10) 0.29113(10) 0.53417(10)
O12_18 O 0.83137(14) 0.24242(13) 0.56383(15)
Zr3_6 Zr 0.717965(13) 0.282035(13) 0.545343(18)
O13_26 O 0.72866(16) 0.22866(16) 0.5444(3)
O14_26 O 0.7206(2) 0.2794(2) 0.60099(19)
O15_26 O 0.67860(13) 0.32140(13) 0.5446(3)
O16_26 O 0.74008(17) 0.3032(3) 0.5000
Zr4_6 Zr 0.717965(13) 0.454657(18) 0.717965(13)
Zr5_14 Zr 0.717965(13) 0.282035(13) 0.454657(18)
Zr7_14 Zr 0.782035(13) 0.217965(13) 0.454657(18)
Zr9_10 Zr 0.794467(13) 0.5000 0.705533(13)
Zr10_26 Zr 0.705533(13) 0.205533(13) 0.5000
O17_14 O 0.83929(10) 0.29113(10) 0.46583(10)
O18_14 O 0.79113(10) 0.33929(10) 0.46583(10)
O19_14 O 0.77134(16) 0.27134(16) 0.4556(3)
O20_26 O 0.75758(13) 0.16863(14) 0.56383(15)
O21_26 O 0.66863(14) 0.25758(13) 0.56383(15)
O22_26 O 0.6968(3) 0.25992(17) 0.5000
O23_26 O 0.8032(3) 0.24008(17) 0.5000
Zr1_11 Zr 0.782035(13) 0.782035(13) 0.454657(18)
Zr2_11 Zr 0.794467(13) 0.705533(13) 0.5000
S1_11 S 0.75109(7) 0.61092(7) 0.38908(7)
C1_11 C 0.76994(17) 0.65311(17) 0.44262(16)
C2_11 C 0.77897(19) 0.62401(18) 0.42008(19)
C3_11 C 0.8077(2) 0.6045(2) 0.4207(2)
H1_11 H 0.8254 0.6076 0.4363
O1_7 O 0.79113(10) 0.66071(10) 0.46583(10)
O2_15 O 0.77134(16) 0.72866(16) 0.4556(3)
O3_11 O 0.74242(13) 0.66863(14) 0.43617(15)
O4_27 O 0.7794(2) 0.7794(2) 0.39901(19)
O5_27 O 0.82140(13) 0.82140(13) 0.4554(3)
O6_27 O 0.75992(17) 0.8032(3) 0.5000
C4_11 C 0.76994(17) 0.55738(16) 0.34689(17)
C5_11 C 0.77897(19) 0.57992(19) 0.37599(18)
C6_11 C 0.8077(2) 0.5793(2) 0.3955(2)
H2_11 H 0.8254 0.5637 0.3924
O7_7 O 0.79113(10) 0.53417(10) 0.33929(10)
O8_11 O 0.74242(13) 0.56383(15) 0.33137(14)
S2_19 S 0.88908(7) 0.74891(7) 0.38908(7)
C7_19 C 0.94262(16) 0.73006(17) 0.34689(17)
C8_19 C 0.92008(19) 0.72103(19) 0.37599(18)
C9_19 C 0.9207(2) 0.6923(2) 0.3955(2)
H3_19 H 0.9363 0.6746 0.3924
O9_11 O 0.96583(10) 0.70887(10) 0.33929(10)
C10_19 C 0.84689(17) 0.73006(17) 0.44262(16)
C11_19 C 0.87599(18) 0.72103(19) 0.42008(19)
C12_19 C 0.8955(2) 0.6923(2) 0.4207(2)
H4_19 H 0.8924 0.6746 0.4363
O11_11 O 0.83929(10) 0.70887(10) 0.46583(10)
O12_19 O 0.83137(14) 0.75758(13) 0.43617(15)
Zr3_7 Zr 0.717965(13) 0.717965(13) 0.454657(18)
O13_27 O 0.72866(16) 0.77134(16) 0.4556(3)
O14_27 O 0.7206(2) 0.7206(2) 0.39901(19)
O15_27 O 0.67860(13) 0.67860(13) 0.4554(3)
O16_27 O 0.74008(17) 0.6968(3) 0.5000
Zr4_7 Zr 0.717965(13) 0.545343(18) 0.282035(13)
Zr5_15 Zr 0.717965(13) 0.717965(13) 0.545343(18)
Zr7_15 Zr 0.782035(13) 0.782035(13) 0.545343(18)
Zr9_11 Zr 0.794467(13) 0.5000 0.294467(13)
Zr10_27 Zr 0.705533(13) 0.794467(13) 0.5000
O17_15 O 0.83929(10) 0.70887(10) 0.53417(10)
O18_15 O 0.79113(10) 0.66071(10) 0.53417(10)
O19_15 O 0.77134(16) 0.72866(16) 0.5444(3)
O20_27 O 0.75758(13) 0.83137(14) 0.43617(15)
O21_27 O 0.66863(14) 0.74242(13) 0.43617(15)
O22_27 O 0.6968(3) 0.74008(17) 0.5000
O23_27 O 0.8032(3) 0.75992(17) 0.5000
Zr1_12 Zr 0.217965(13) 0.217965(13) 0.454657(18)
Zr2_12 Zr 0.205533(13) 0.294467(13) 0.5000
S1_12 S 0.24891(7) 0.38908(7) 0.38908(7)
C1_12 C 0.23006(17) 0.34689(17) 0.44262(16)
C2_12 C 0.22103(19) 0.37599(18) 0.42008(19)
C3_12 C 0.1923(2) 0.3955(2) 0.4207(2)
H1_12 H 0.1746 0.3924 0.4363
O1_8 O 0.20887(10) 0.33929(10) 0.46583(10)
O2_16 O 0.22866(16) 0.27134(16) 0.4556(3)
O3_12 O 0.25758(13) 0.33137(14) 0.43617(15)
O4_28 O 0.2206(2) 0.2206(2) 0.39901(19)
O5_28 O 0.17860(13) 0.17860(13) 0.4554(3)
O6_28 O 0.24008(17) 0.1968(3) 0.5000
C4_12 C 0.23006(17) 0.44262(16) 0.34689(17)
C5_12 C 0.22103(19) 0.42008(19) 0.37599(18)
C6_12 C 0.1923(2) 0.4207(2) 0.3955(2)
H2_12 H 0.1746 0.4363 0.3924
O7_8 O 0.20887(10) 0.46583(10) 0.33929(10)
O8_12 O 0.25758(13) 0.43617(15) 0.33137(14)
S2_20 S 0.11092(7) 0.25109(7) 0.38908(7)
C7_20 C 0.05738(16) 0.26994(17) 0.34689(17)
C8_20 C 0.07992(19) 0.27897(19) 0.37599(18)
C9_20 C 0.0793(2) 0.3077(2) 0.3955(2)
H3_20 H 0.0637 0.3254 0.3924
O9_12 O 0.03417(10) 0.29113(10) 0.33929(10)
C10_20 C 0.15311(17) 0.26994(17) 0.44262(16)
C11_20 C 0.12401(18) 0.27897(19) 0.42008(19)
C12_20 C 0.1045(2) 0.3077(2) 0.4207(2)
H4_20 H 0.1076 0.3254 0.4363
O11_12 O 0.16071(10) 0.29113(10) 0.46583(10)
O12_20 O 0.16863(14) 0.24242(13) 0.43617(15)
Zr3_8 Zr 0.282035(13) 0.282035(13) 0.454657(18)
O13_28 O 0.27134(16) 0.22866(16) 0.4556(3)
O14_28 O 0.2794(2) 0.2794(2) 0.39901(19)
O15_28 O 0.32140(13) 0.32140(13) 0.4554(3)
O16_28 O 0.25992(17) 0.3032(3) 0.5000
Zr4_8 Zr 0.282035(13) 0.454657(18) 0.282035(13)
Zr5_16 Zr 0.282035(13) 0.282035(13) 0.545343(18)
Zr7_16 Zr 0.217965(13) 0.217965(13) 0.545343(18)
Zr9_12 Zr 0.205533(13) 0.5000 0.294467(13)
Zr10_28 Zr 0.294467(13) 0.205533(13) 0.5000
O17_16 O 0.16071(10) 0.29113(10) 0.53417(10)
O18_16 O 0.20887(10) 0.33929(10) 0.53417(10)
O19_16 O 0.22866(16) 0.27134(16) 0.5444(3)
O20_28 O 0.24242(13) 0.16863(14) 0.43617(15)
O21_28 O 0.33137(14) 0.25758(13) 0.43617(15)
O22_28 O 0.3032(3) 0.25992(17) 0.5000
O23_28 O 0.1968(3) 0.24008(17) 0.5000
S2_21 S 0.11092(7) 0.61092(7) 0.74891(7)
C7_21 C 0.15311(17) 0.55738(16) 0.73006(17)
C8_21 C 0.12401(18) 0.57992(19) 0.72103(19)
C9_21 C 0.1045(2) 0.5793(2) 0.6923(2)
H3_21 H 0.1076 0.5637 0.6746
O9_13 O 0.16071(10) 0.53417(10) 0.70887(10)
O10_17 O 0.16863(14) 0.56383(15) 0.75758(13)
C10_21 C 0.05738(16) 0.65311(17) 0.73006(17)
C11_21 C 0.07992(19) 0.62401(18) 0.72103(19)
C12_21 C 0.0793(2) 0.6045(2) 0.6923(2)
H4_21 H 0.0637 0.6076 0.6746
O11_13 O 0.03417(10) 0.66071(10) 0.70887(10)
Zr6_9 Zr 0.217965(13) 0.545343(18) 0.782035(13)
O17_17 O 0.96583(10) 0.66071(10) 0.70887(10)
O18_17 O 0.96583(10) 0.70887(10) 0.66071(10)
S2_22 S 0.11092(7) 0.38908(7) 0.25109(7)
C7_22 C 0.15311(17) 0.44262(16) 0.26994(17)
C8_22 C 0.12401(18) 0.42008(19) 0.27897(19)
C9_22 C 0.1045(2) 0.4207(2) 0.3077(2)
H3_22 H 0.1076 0.4363 0.3254
O9_14 O 0.16071(10) 0.46583(10) 0.29113(10)
O10_18 O 0.16863(14) 0.43617(15) 0.24242(13)
C10_22 C 0.05738(16) 0.34689(17) 0.26994(17)
C11_22 C 0.07992(19) 0.37599(18) 0.27897(19)
C12_22 C 0.0793(2) 0.3955(2) 0.3077(2)
H4_22 H 0.0637 0.3924 0.3254
O11_14 O 0.03417(10) 0.33929(10) 0.29113(10)
Zr6_10 Zr 0.217965(13) 0.454657(18) 0.217965(13)
O17_18 O 0.96583(10) 0.33929(10) 0.29113(10)
O18_18 O 0.96583(10) 0.29113(10) 0.33929(10)
O17_19 O 0.03417(10) 0.33929(10) 0.70887(10)
O18_19 O 0.03417(10) 0.29113(10) 0.66071(10)
S2_23 S 0.88908(7) 0.38908(7) 0.74891(7)
C7_23 C 0.84689(17) 0.44262(16) 0.73006(17)
C8_23 C 0.87599(18) 0.42008(19) 0.72103(19)
C9_23 C 0.8955(2) 0.4207(2) 0.6923(2)
H3_23 H 0.8924 0.4363 0.6746
O9_15 O 0.83929(10) 0.46583(10) 0.70887(10)
O10_19 O 0.83137(14) 0.43617(15) 0.75758(13)
C10_23 C 0.94262(16) 0.34689(17) 0.73006(17)
C11_23 C 0.92008(19) 0.37599(18) 0.72103(19)
C12_23 C 0.9207(2) 0.3955(2) 0.6923(2)
H4_23 H 0.9363 0.3924 0.6746
O11_15 O 0.96583(10) 0.33929(10) 0.70887(10)
Zr6_11 Zr 0.782035(13) 0.454657(18) 0.782035(13)
O17_20 O 0.03417(10) 0.66071(10) 0.29113(10)
O18_20 O 0.03417(10) 0.70887(10) 0.33929(10)
S2_24 S 0.88908(7) 0.61092(7) 0.25109(7)
C7_24 C 0.84689(17) 0.55738(16) 0.26994(17)
C8_24 C 0.87599(18) 0.57992(19) 0.27897(19)
C9_24 C 0.8955(2) 0.5793(2) 0.3077(2)
H3_24 H 0.8924 0.5637 0.3254
O9_16 O 0.83929(10) 0.53417(10) 0.29113(10)
O10_20 O 0.83137(14) 0.56383(15) 0.24242(13)
C10_24 C 0.94262(16) 0.65311(17) 0.26994(17)
C11_24 C 0.92008(19) 0.62401(18) 0.27897(19)
C12_24 C 0.9207(2) 0.6045(2) 0.3077(2)
H4_24 H 0.9363 0.6076 0.3254
O11_16 O 0.96583(10) 0.66071(10) 0.29113(10)
Zr6_12 Zr 0.782035(13) 0.545343(18) 0.217965(13)
O2_17 O 0.22866(16) 0.5444(3) 0.72866(16)
O4_29 O 0.2794(2) 0.60099(19) 0.7206(2)
O5_29 O 0.32140(13) 0.5446(3) 0.67860(13)
O6_29 O 0.3032(3) 0.5000 0.74008(17)
O13_29 O 0.27134(16) 0.5444(3) 0.77134(16)
O14_29 O 0.2206(2) 0.60099(19) 0.7794(2)
O15_29 O 0.17860(13) 0.5446(3) 0.82140(13)
O16_29 O 0.1968(3) 0.5000 0.75992(17)
Zr5_17 Zr 0.217965(13) 0.454657(18) 0.782035(13)
Zr7_17 Zr 0.282035(13) 0.454657(18) 0.717965(13)
Zr10_29 Zr 0.294467(13) 0.5000 0.794467(13)
O17_21 O 0.20887(10) 0.46583(10) 0.66071(10)
O18_21 O 0.16071(10) 0.46583(10) 0.70887(10)
O19_17 O 0.22866(16) 0.4556(3) 0.72866(16)
O20_29 O 0.33137(14) 0.56383(15) 0.74242(13)
O21_29 O 0.24242(13) 0.56383(15) 0.83137(14)
O22_29 O 0.24008(17) 0.5000 0.8032(3)
O23_29 O 0.25992(17) 0.5000 0.6968(3)
O2_18 O 0.77134(16) 0.5444(3) 0.27134(16)
O4_30 O 0.7206(2) 0.60099(19) 0.2794(2)
O5_30 O 0.67860(13) 0.5446(3) 0.32140(13)
O6_30 O 0.6968(3) 0.5000 0.25992(17)
O13_30 O 0.72866(16) 0.5444(3) 0.22866(16)
O14_30 O 0.7794(2) 0.60099(19) 0.2206(2)
O15_30 O 0.82140(13) 0.5446(3) 0.17860(13)
O16_30 O 0.8032(3) 0.5000 0.24008(17)
Zr5_18 Zr 0.782035(13) 0.454657(18) 0.217965(13)
Zr7_18 Zr 0.717965(13) 0.454657(18) 0.282035(13)
Zr10_30 Zr 0.705533(13) 0.5000 0.205533(13)
O17_22 O 0.79113(10) 0.46583(10) 0.33929(10)
O18_22 O 0.83929(10) 0.46583(10) 0.29113(10)
O19_18 O 0.77134(16) 0.4556(3) 0.27134(16)
O20_30 O 0.66863(14) 0.56383(15) 0.25758(13)
O21_30 O 0.75758(13) 0.56383(15) 0.16863(14)
O22_30 O 0.75992(17) 0.5000 0.1968(3)
O23_30 O 0.74008(17) 0.5000 0.3032(3)
O2_19 O 0.22866(16) 0.4556(3) 0.27134(16)
O4_31 O 0.2794(2) 0.39901(19) 0.2794(2)
O5_31 O 0.32140(13) 0.4554(3) 0.32140(13)
O6_31 O 0.3032(3) 0.5000 0.25992(17)
O13_31 O 0.27134(16) 0.4556(3) 0.22866(16)
O14_31 O 0.2206(2) 0.39901(19) 0.2206(2)
O15_31 O 0.17860(13) 0.4554(3) 0.17860(13)
O16_31 O 0.1968(3) 0.5000 0.24008(17)
Zr5_19 Zr 0.217965(13) 0.545343(18) 0.217965(13)
Zr7_19 Zr 0.282035(13) 0.545343(18) 0.282035(13)
Zr10_31 Zr 0.294467(13) 0.5000 0.205533(13)
O17_23 O 0.20887(10) 0.53417(10) 0.33929(10)
O18_23 O 0.16071(10) 0.53417(10) 0.29113(10)
O19_19 O 0.22866(16) 0.5444(3) 0.27134(16)
O20_31 O 0.33137(14) 0.43617(15) 0.25758(13)
O21_31 O 0.24242(13) 0.43617(15) 0.16863(14)
O22_31 O 0.24008(17) 0.5000 0.1968(3)
O23_31 O 0.25992(17) 0.5000 0.3032(3)
O2_20 O 0.77134(16) 0.4556(3) 0.72866(16)
O4_32 O 0.7206(2) 0.39901(19) 0.7206(2)
O5_32 O 0.67860(13) 0.4554(3) 0.67860(13)
O6_32 O 0.6968(3) 0.5000 0.74008(17)
O13_32 O 0.72866(16) 0.4556(3) 0.77134(16)
O14_32 O 0.7794(2) 0.39901(19) 0.7794(2)
O15_32 O 0.82140(13) 0.4554(3) 0.82140(13)
O16_32 O 0.8032(3) 0.5000 0.75992(17)
Zr5_20 Zr 0.782035(13) 0.545343(18) 0.782035(13)
Zr7_20 Zr 0.717965(13) 0.545343(18) 0.717965(13)
Zr10_32 Zr 0.705533(13) 0.5000 0.794467(13)
O17_24 O 0.79113(10) 0.53417(10) 0.66071(10)
O18_24 O 0.83929(10) 0.53417(10) 0.70887(10)
O19_20 O 0.77134(16) 0.5444(3) 0.72866(16)
O20_32 O 0.66863(14) 0.43617(15) 0.74242(13)
O21_32 O 0.75758(13) 0.43617(15) 0.83137(14)
O22_32 O 0.75992(17) 0.5000 0.8032(3)
O23_32 O 0.74008(17) 0.5000 0.6968(3)
S1_13 S 0.11092(7) 0.74891(7) 0.38908(7)
C1_13 C 0.15311(17) 0.73006(17) 0.44262(16)
C2_13 C 0.12401(18) 0.72103(19) 0.42008(19)
C3_13 C 0.1045(2) 0.6923(2) 0.4207(2)
H1_13 H 0.1076 0.6746 0.4363
O3_13 O 0.16863(14) 0.75758(13) 0.43617(15)
O4_33 O 0.2794(2) 0.7206(2) 0.39901(19)
O5_33 O 0.32140(13) 0.67860(13) 0.4554(3)
C4_13 C 0.05738(16) 0.73006(17) 0.34689(17)
C5_13 C 0.07992(19) 0.72103(19) 0.37599(18)
C6_13 C 0.0793(2) 0.6923(2) 0.3955(2)
H2_13 H 0.0637 0.6746 0.3924
S2_25 S 0.24891(7) 0.61092(7) 0.38908(7)
C7_25 C 0.23006(17) 0.55738(16) 0.34689(17)
C8_25 C 0.22103(19) 0.57992(19) 0.37599(18)
C9_25 C 0.1923(2) 0.5793(2) 0.3955(2)
H3_25 H 0.1746 0.5637 0.3924
O10_21 O 0.25758(13) 0.56383(15) 0.33137(14)
C10_25 C 0.23006(17) 0.65311(17) 0.44262(16)
C11_25 C 0.22103(19) 0.62401(18) 0.42008(19)
C12_25 C 0.1923(2) 0.6045(2) 0.4207(2)
H4_25 H 0.1746 0.6076 0.4363
O12_21 O 0.25758(13) 0.66863(14) 0.43617(15)
O13_33 O 0.27134(16) 0.77134(16) 0.4556(3)
O14_33 O 0.2206(2) 0.7794(2) 0.39901(19)
O15_33 O 0.17860(13) 0.82140(13) 0.4554(3)
O20_33 O 0.33137(14) 0.74242(13) 0.43617(15)
O21_33 O 0.24242(13) 0.83137(14) 0.43617(15)
S1_14 S 0.88908(7) 0.25109(7) 0.38908(7)
C1_14 C 0.84689(17) 0.26994(17) 0.44262(16)
C2_14 C 0.87599(18) 0.27897(19) 0.42008(19)
C3_14 C 0.8955(2) 0.3077(2) 0.4207(2)
H1_14 H 0.8924 0.3254 0.4363
O3_14 O 0.83137(14) 0.24242(13) 0.43617(15)
O4_34 O 0.7206(2) 0.2794(2) 0.39901(19)
O5_34 O 0.67860(13) 0.32140(13) 0.4554(3)
C4_14 C 0.94262(16) 0.26994(17) 0.34689(17)
C5_14 C 0.92008(19) 0.27897(19) 0.37599(18)
C6_14 C 0.9207(2) 0.3077(2) 0.3955(2)
H2_14 H 0.9363 0.3254 0.3924
S2_26 S 0.75109(7) 0.38908(7) 0.38908(7)
C7_26 C 0.76994(17) 0.44262(16) 0.34689(17)
C8_26 C 0.77897(19) 0.42008(19) 0.37599(18)
C9_26 C 0.8077(2) 0.4207(2) 0.3955(2)
H3_26 H 0.8254 0.4363 0.3924
O10_22 O 0.74242(13) 0.43617(15) 0.33137(14)
C10_26 C 0.76994(17) 0.34689(17) 0.44262(16)
C11_26 C 0.77897(19) 0.37599(18) 0.42008(19)
C12_26 C 0.8077(2) 0.3955(2) 0.4207(2)
H4_26 H 0.8254 0.3924 0.4363
O12_22 O 0.74242(13) 0.33137(14) 0.43617(15)
O13_34 O 0.72866(16) 0.22866(16) 0.4556(3)
O14_34 O 0.7794(2) 0.2206(2) 0.39901(19)
O15_34 O 0.82140(13) 0.17860(13) 0.4554(3)
O20_34 O 0.66863(14) 0.25758(13) 0.43617(15)
O21_34 O 0.75758(13) 0.16863(14) 0.43617(15)
S1_15 S 0.11092(7) 0.25109(7) 0.61092(7)
C1_15 C 0.15311(17) 0.26994(17) 0.55738(16)
C2_15 C 0.12401(18) 0.27897(19) 0.57992(19)
C3_15 C 0.1045(2) 0.3077(2) 0.5793(2)
H1_15 H 0.1076 0.3254 0.5637
O3_15 O 0.16863(14) 0.24242(13) 0.56383(15)
O4_35 O 0.2794(2) 0.2794(2) 0.60099(19)
O5_35 O 0.32140(13) 0.32140(13) 0.5446(3)
C4_15 C 0.05738(16) 0.26994(17) 0.65311(17)
C5_15 C 0.07992(19) 0.27897(19) 0.62401(18)
C6_15 C 0.0793(2) 0.3077(2) 0.6045(2)
H2_15 H 0.0637 0.3254 0.6076
S2_27 S 0.24891(7) 0.38908(7) 0.61092(7)
C7_27 C 0.23006(17) 0.44262(16) 0.65311(17)
C8_27 C 0.22103(19) 0.42008(19) 0.62401(18)
C9_27 C 0.1923(2) 0.4207(2) 0.6045(2)
H3_27 H 0.1746 0.4363 0.6076
O10_23 O 0.25758(13) 0.43617(15) 0.66863(14)
C10_27 C 0.23006(17) 0.34689(17) 0.55738(16)
C11_27 C 0.22103(19) 0.37599(18) 0.57992(19)
C12_27 C 0.1923(2) 0.3955(2) 0.5793(2)
H4_27 H 0.1746 0.3924 0.5637
O12_23 O 0.25758(13) 0.33137(14) 0.56383(15)
O13_35 O 0.27134(16) 0.22866(16) 0.5444(3)
O14_35 O 0.2206(2) 0.2206(2) 0.60099(19)
O15_35 O 0.17860(13) 0.17860(13) 0.5446(3)
O20_35 O 0.33137(14) 0.25758(13) 0.56383(15)
O21_35 O 0.24242(13) 0.16863(14) 0.56383(15)
S1_16 S 0.88908(7) 0.74891(7) 0.61092(7)
C1_16 C 0.84689(17) 0.73006(17) 0.55738(16)
C2_16 C 0.87599(18) 0.72103(19) 0.57992(19)
C3_16 C 0.8955(2) 0.6923(2) 0.5793(2)
H1_16 H 0.8924 0.6746 0.5637
O3_16 O 0.83137(14) 0.75758(13) 0.56383(15)
O4_36 O 0.7206(2) 0.7206(2) 0.60099(19)
O5_36 O 0.67860(13) 0.67860(13) 0.5446(3)
C4_16 C 0.94262(16) 0.73006(17) 0.65311(17)
C5_16 C 0.92008(19) 0.72103(19) 0.62401(18)
C6_16 C 0.9207(2) 0.6923(2) 0.6045(2)
H2_16 H 0.9363 0.6746 0.6076
S2_28 S 0.75109(7) 0.61092(7) 0.61092(7)
C7_28 C 0.76994(17) 0.55738(16) 0.65311(17)
C8_28 C 0.77897(19) 0.57992(19) 0.62401(18)
C9_28 C 0.8077(2) 0.5793(2) 0.6045(2)
H3_28 H 0.8254 0.5637 0.6076
O10_24 O 0.74242(13) 0.56383(15) 0.66863(14)
C10_28 C 0.76994(17) 0.65311(17) 0.55738(16)
C11_28 C 0.77897(19) 0.62401(18) 0.57992(19)
C12_28 C 0.8077(2) 0.6045(2) 0.5793(2)
H4_28 H 0.8254 0.6076 0.5637
O12_24 O 0.74242(13) 0.66863(14) 0.56383(15)
O13_36 O 0.72866(16) 0.77134(16) 0.5444(3)
O14_36 O 0.7794(2) 0.7794(2) 0.60099(19)
O15_36 O 0.82140(13) 0.82140(13) 0.5446(3)
O20_36 O 0.66863(14) 0.74242(13) 0.56383(15)
O21_36 O 0.75758(13) 0.83137(14) 0.56383(15)
O4_37 O 0.2206(2) 0.60099(19) 0.2206(2)
O5_37 O 0.17860(13) 0.5446(3) 0.17860(13)
S2_29 S 0.11092(7) 0.61092(7) 0.25109(7)
C7_29 C 0.05738(16) 0.65311(17) 0.26994(17)
C8_29 C 0.07992(19) 0.62401(18) 0.27897(19)
C9_29 C 0.0793(2) 0.6045(2) 0.3077(2)
H3_29 H 0.0637 0.6076 0.3254
C10_29 C 0.15311(17) 0.55738(16) 0.26994(17)
C11_29 C 0.12401(18) 0.57992(19) 0.27897(19)
C12_29 C 0.1045(2) 0.5793(2) 0.3077(2)
H4_29 H 0.1076 0.5637 0.3254
O12_25 O 0.16863(14) 0.56383(15) 0.24242(13)
O13_37 O 0.27134(16) 0.5444(3) 0.22866(16)
O14_37 O 0.2794(2) 0.60099(19) 0.2794(2)
O15_37 O 0.32140(13) 0.5446(3) 0.32140(13)
O20_37 O 0.24242(13) 0.56383(15) 0.16863(14)
O21_37 O 0.33137(14) 0.56383(15) 0.25758(13)
O4_38 O 0.7794(2) 0.60099(19) 0.7794(2)
O5_38 O 0.82140(13) 0.5446(3) 0.82140(13)
S2_30 S 0.88908(7) 0.61092(7) 0.74891(7)
C7_30 C 0.94262(16) 0.65311(17) 0.73006(17)
C8_30 C 0.92008(19) 0.62401(18) 0.72103(19)
C9_30 C 0.9207(2) 0.6045(2) 0.6923(2)
H3_30 H 0.9363 0.6076 0.6746
C10_30 C 0.84689(17) 0.55738(16) 0.73006(17)
C11_30 C 0.87599(18) 0.57992(19) 0.72103(19)
C12_30 C 0.8955(2) 0.5793(2) 0.6923(2)
H4_30 H 0.8924 0.5637 0.6746
O12_26 O 0.83137(14) 0.56383(15) 0.75758(13)
O13_38 O 0.72866(16) 0.5444(3) 0.77134(16)
O14_38 O 0.7206(2) 0.60099(19) 0.7206(2)
O15_38 O 0.67860(13) 0.5446(3) 0.67860(13)
O20_38 O 0.75758(13) 0.56383(15) 0.83137(14)
O21_38 O 0.66863(14) 0.56383(15) 0.74242(13)
O4_39 O 0.7794(2) 0.39901(19) 0.2206(2)
O5_39 O 0.82140(13) 0.4554(3) 0.17860(13)
S2_31 S 0.88908(7) 0.38908(7) 0.25109(7)
C7_31 C 0.94262(16) 0.34689(17) 0.26994(17)
C8_31 C 0.92008(19) 0.37599(18) 0.27897(19)
C9_31 C 0.9207(2) 0.3955(2) 0.3077(2)
H3_31 H 0.9363 0.3924 0.3254
C10_31 C 0.84689(17) 0.44262(16) 0.26994(17)
C11_31 C 0.87599(18) 0.42008(19) 0.27897(19)
C12_31 C 0.8955(2) 0.4207(2) 0.3077(2)
H4_31 H 0.8924 0.4363 0.3254
O12_27 O 0.83137(14) 0.43617(15) 0.24242(13)
O13_39 O 0.72866(16) 0.4556(3) 0.22866(16)
O14_39 O 0.7206(2) 0.39901(19) 0.2794(2)
O15_39 O 0.67860(13) 0.4554(3) 0.32140(13)
O20_39 O 0.75758(13) 0.43617(15) 0.16863(14)
O21_39 O 0.66863(14) 0.43617(15) 0.25758(13)
O4_40 O 0.2206(2) 0.39901(19) 0.7794(2)
O5_40 O 0.17860(13) 0.4554(3) 0.82140(13)
S2_32 S 0.11092(7) 0.38908(7) 0.74891(7)
C7_32 C 0.05738(16) 0.34689(17) 0.73006(17)
C8_32 C 0.07992(19) 0.37599(18) 0.72103(19)
C9_32 C 0.0793(2) 0.3955(2) 0.6923(2)
H3_32 H 0.0637 0.3924 0.6746
C10_32 C 0.15311(17) 0.44262(16) 0.73006(17)
C11_32 C 0.12401(18) 0.42008(19) 0.72103(19)
C12_32 C 0.1045(2) 0.4207(2) 0.6923(2)
H4_32 H 0.1076 0.4363 0.6746
O12_28 O 0.16863(14) 0.43617(15) 0.75758(13)
O13_40 O 0.27134(16) 0.4556(3) 0.77134(16)
O14_40 O 0.2794(2) 0.39901(19) 0.7206(2)
O15_40 O 0.32140(13) 0.4554(3) 0.67860(13)
O20_40 O 0.24242(13) 0.43617(15) 0.83137(14)
O21_40 O 0.33137(14) 0.43617(15) 0.74242(13)
S1_17 S 0.74891(7) 0.11092(7) 0.61092(7)
C1_17 C 0.73006(17) 0.15311(17) 0.55738(16)
C2_17 C 0.72103(19) 0.12401(18) 0.57992(19)
C3_17 C 0.6923(2) 0.1045(2) 0.5793(2)
H1_17 H 0.6746 0.1076 0.5637
O1_9 O 0.70887(10) 0.16071(10) 0.53417(10)
C4_17 C 0.73006(17) 0.05738(16) 0.65311(17)
C5_17 C 0.72103(19) 0.07992(19) 0.62401(18)
C6_17 C 0.6923(2) 0.0793(2) 0.6045(2)
H2_17 H 0.6746 0.0637 0.6076
O7_9 O 0.70887(10) 0.03417(10) 0.66071(10)
S2_33 S 0.61092(7) 0.24891(7) 0.61092(7)
C7_33 C 0.55738(16) 0.23006(17) 0.65311(17)
C8_33 C 0.57992(19) 0.22103(19) 0.62401(18)
C9_33 C 0.5793(2) 0.1923(2) 0.6045(2)
H3_33 H 0.5637 0.1746 0.6076
O9_17 O 0.53417(10) 0.20887(10) 0.66071(10)
O10_25 O 0.56383(15) 0.25758(13) 0.66863(14)
C10_33 C 0.65311(17) 0.23006(17) 0.55738(16)
C11_33 C 0.62401(18) 0.22103(19) 0.57992(19)
C12_33 C 0.6045(2) 0.1923(2) 0.5793(2)
H4_33 H 0.6076 0.1746 0.5637
O11_17 O 0.66071(10) 0.20887(10) 0.53417(10)
Zr6_13 Zr 0.545343(18) 0.282035(13) 0.717965(13)
Zr8_9 Zr 0.5000 0.205533(13) 0.705533(13)
O17_25 O 0.66071(10) 0.20887(10) 0.46583(10)
O18_25 O 0.70887(10) 0.16071(10) 0.46583(10)
S1_18 S 0.25109(7) 0.88908(7) 0.61092(7)
C1_18 C 0.26994(17) 0.84689(17) 0.55738(16)
C2_18 C 0.27897(19) 0.87599(18) 0.57992(19)
C3_18 C 0.3077(2) 0.8955(2) 0.5793(2)
H1_18 H 0.3254 0.8924 0.5637
O1_10 O 0.29113(10) 0.83929(10) 0.53417(10)
C4_18 C 0.26994(17) 0.94262(16) 0.65311(17)
C5_18 C 0.27897(19) 0.92008(19) 0.62401(18)
C6_18 C 0.3077(2) 0.9207(2) 0.6045(2)
H2_18 H 0.3254 0.9363 0.6076
O7_10 O 0.29113(10) 0.96583(10) 0.66071(10)
S2_34 S 0.38908(7) 0.75109(7) 0.61092(7)
C7_34 C 0.44262(16) 0.76994(17) 0.65311(17)
C8_34 C 0.42008(19) 0.77897(19) 0.62401(18)
C9_34 C 0.4207(2) 0.8077(2) 0.6045(2)
H3_34 H 0.4363 0.8254 0.6076
O9_18 O 0.46583(10) 0.79113(10) 0.66071(10)
O10_26 O 0.43617(15) 0.74242(13) 0.66863(14)
C10_34 C 0.34689(17) 0.76994(17) 0.55738(16)
C11_34 C 0.37599(18) 0.77897(19) 0.57992(19)
C12_34 C 0.3955(2) 0.8077(2) 0.5793(2)
H4_34 H 0.3924 0.8254 0.5637
O11_18 O 0.33929(10) 0.79113(10) 0.53417(10)
Zr6_14 Zr 0.454657(18) 0.717965(13) 0.717965(13)
Zr8_10 Zr 0.5000 0.794467(13) 0.705533(13)
O17_26 O 0.33929(10) 0.79113(10) 0.46583(10)
O18_26 O 0.29113(10) 0.83929(10) 0.46583(10)
S1_19 S 0.25109(7) 0.11092(7) 0.38908(7)
C1_19 C 0.26994(17) 0.15311(17) 0.44262(16)
C2_19 C 0.27897(19) 0.12401(18) 0.42008(19)
C3_19 C 0.3077(2) 0.1045(2) 0.4207(2)
H1_19 H 0.3254 0.1076 0.4363
O1_11 O 0.29113(10) 0.16071(10) 0.46583(10)
C4_19 C 0.26994(17) 0.05738(16) 0.34689(17)
C5_19 C 0.27897(19) 0.07992(19) 0.37599(18)
C6_19 C 0.3077(2) 0.0793(2) 0.3955(2)
H2_19 H 0.3254 0.0637 0.3924
O7_11 O 0.29113(10) 0.03417(10) 0.33929(10)
S2_35 S 0.38908(7) 0.24891(7) 0.38908(7)
C7_35 C 0.44262(16) 0.23006(17) 0.34689(17)
C8_35 C 0.42008(19) 0.22103(19) 0.37599(18)
C9_35 C 0.4207(2) 0.1923(2) 0.3955(2)
H3_35 H 0.4363 0.1746 0.3924
O9_19 O 0.46583(10) 0.20887(10) 0.33929(10)
O10_27 O 0.43617(15) 0.25758(13) 0.33137(14)
C10_35 C 0.34689(17) 0.23006(17) 0.44262(16)
C11_35 C 0.37599(18) 0.22103(19) 0.42008(19)
C12_35 C 0.3955(2) 0.1923(2) 0.4207(2)
H4_35 H 0.3924 0.1746 0.4363
O11_19 O 0.33929(10) 0.20887(10) 0.46583(10)
Zr6_15 Zr 0.454657(18) 0.282035(13) 0.282035(13)
Zr8_11 Zr 0.5000 0.205533(13) 0.294467(13)
O17_27 O 0.33929(10) 0.20887(10) 0.53417(10)
O18_27 O 0.29113(10) 0.16071(10) 0.53417(10)
S1_20 S 0.74891(7) 0.88908(7) 0.38908(7)
C1_20 C 0.73006(17) 0.84689(17) 0.44262(16)
C2_20 C 0.72103(19) 0.87599(18) 0.42008(19)
C3_20 C 0.6923(2) 0.8955(2) 0.4207(2)
H1_20 H 0.6746 0.8924 0.4363
O1_12 O 0.70887(10) 0.83929(10) 0.46583(10)
C4_20 C 0.73006(17) 0.94262(16) 0.34689(17)
C5_20 C 0.72103(19) 0.92008(19) 0.37599(18)
C6_20 C 0.6923(2) 0.9207(2) 0.3955(2)
H2_20 H 0.6746 0.9363 0.3924
O7_12 O 0.70887(10) 0.96583(10) 0.33929(10)
S2_36 S 0.61092(7) 0.75109(7) 0.38908(7)
C7_36 C 0.55738(16) 0.76994(17) 0.34689(17)
C8_36 C 0.57992(19) 0.77897(19) 0.37599(18)
C9_36 C 0.5793(2) 0.8077(2) 0.3955(2)
H3_36 H 0.5637 0.8254 0.3924
O9_20 O 0.53417(10) 0.79113(10) 0.33929(10)
O10_28 O 0.56383(15) 0.74242(13) 0.33137(14)
C10_36 C 0.65311(17) 0.76994(17) 0.44262(16)
C11_36 C 0.62401(18) 0.77897(19) 0.42008(19)
C12_36 C 0.6045(2) 0.8077(2) 0.4207(2)
H4_36 H 0.6076 0.8254 0.4363
O11_20 O 0.66071(10) 0.79113(10) 0.46583(10)
Zr6_16 Zr 0.545343(18) 0.717965(13) 0.282035(13)
Zr8_12 Zr 0.5000 0.794467(13) 0.294467(13)
O17_28 O 0.66071(10) 0.79113(10) 0.53417(10)
O18_28 O 0.70887(10) 0.83929(10) 0.53417(10)
Zr1_13 Zr 0.545343(18) 0.217965(13) 0.782035(13)
O2_21 O 0.5444(3) 0.22866(16) 0.72866(16)
O4_41 O 0.60099(19) 0.2206(2) 0.7794(2)
O5_41 O 0.5446(3) 0.17860(13) 0.82140(13)
O6_33 O 0.5000 0.24008(17) 0.8032(3)
S2_37 S 0.61092(7) 0.11092(7) 0.74891(7)
C7_37 C 0.65311(17) 0.05738(16) 0.73006(17)
C8_37 C 0.62401(18) 0.07992(19) 0.72103(19)
C9_37 C 0.6045(2) 0.0793(2) 0.6923(2)
H3_37 H 0.6076 0.0637 0.6746
O9_21 O 0.66071(10) 0.03417(10) 0.70887(10)
C10_37 C 0.55738(16) 0.15311(17) 0.73006(17)
C11_37 C 0.57992(19) 0.12401(18) 0.72103(19)
C12_37 C 0.5793(2) 0.1045(2) 0.6923(2)
H4_37 H 0.5637 0.1076 0.6746
O11_21 O 0.53417(10) 0.16071(10) 0.70887(10)
O12_29 O 0.56383(15) 0.16863(14) 0.75758(13)
O13_41 O 0.5444(3) 0.27134(16) 0.77134(16)
O14_41 O 0.60099(19) 0.2794(2) 0.7206(2)
O15_41 O 0.5446(3) 0.32140(13) 0.67860(13)
O16_33 O 0.5000 0.25992(17) 0.6968(3)
Zr5_21 Zr 0.454657(18) 0.282035(13) 0.717965(13)
Zr7_21 Zr 0.454657(18) 0.217965(13) 0.782035(13)
Zr10_33 Zr 0.5000 0.294467(13) 0.794467(13)
O17_29 O 0.46583(10) 0.16071(10) 0.70887(10)
O18_29 O 0.46583(10) 0.20887(10) 0.66071(10)
O19_21 O 0.4556(3) 0.22866(16) 0.72866(16)
O20_41 O 0.56383(15) 0.24242(13) 0.83137(14)
O21_41 O 0.56383(15) 0.33137(14) 0.74242(13)
O22_33 O 0.5000 0.3032(3) 0.74008(17)
O23_33 O 0.5000 0.1968(3) 0.75992(17)
Zr1_14 Zr 0.545343(18) 0.782035(13) 0.217965(13)
O2_22 O 0.5444(3) 0.77134(16) 0.27134(16)
O4_42 O 0.60099(19) 0.7794(2) 0.2206(2)
O5_42 O 0.5446(3) 0.82140(13) 0.17860(13)
O6_34 O 0.5000 0.75992(17) 0.1968(3)
S2_38 S 0.61092(7) 0.88908(7) 0.25109(7)
C7_38 C 0.65311(17) 0.94262(16) 0.26994(17)
C8_38 C 0.62401(18) 0.92008(19) 0.27897(19)
C9_38 C 0.6045(2) 0.9207(2) 0.3077(2)
H3_38 H 0.6076 0.9363 0.3254
O9_22 O 0.66071(10) 0.96583(10) 0.29113(10)
C10_38 C 0.55738(16) 0.84689(17) 0.26994(17)
C11_38 C 0.57992(19) 0.87599(18) 0.27897(19)
C12_38 C 0.5793(2) 0.8955(2) 0.3077(2)
H4_38 H 0.5637 0.8924 0.3254
O11_22 O 0.53417(10) 0.83929(10) 0.29113(10)
O12_30 O 0.56383(15) 0.83137(14) 0.24242(13)
O13_42 O 0.5444(3) 0.72866(16) 0.22866(16)
O14_42 O 0.60099(19) 0.7206(2) 0.2794(2)
O15_42 O 0.5446(3) 0.67860(13) 0.32140(13)
O16_34 O 0.5000 0.74008(17) 0.3032(3)
Zr5_22 Zr 0.454657(18) 0.717965(13) 0.282035(13)
Zr7_22 Zr 0.454657(18) 0.782035(13) 0.217965(13)
Zr10_34 Zr 0.5000 0.705533(13) 0.205533(13)
O17_30 O 0.46583(10) 0.83929(10) 0.29113(10)
O18_30 O 0.46583(10) 0.79113(10) 0.33929(10)
O19_22 O 0.4556(3) 0.77134(16) 0.27134(16)
O20_42 O 0.56383(15) 0.75758(13) 0.16863(14)
O21_42 O 0.56383(15) 0.66863(14) 0.25758(13)
O22_34 O 0.5000 0.6968(3) 0.25992(17)
O23_34 O 0.5000 0.8032(3) 0.24008(17)
Zr1_15 Zr 0.454657(18) 0.782035(13) 0.782035(13)
O2_23 O 0.4556(3) 0.77134(16) 0.72866(16)
O4_43 O 0.39901(19) 0.7794(2) 0.7794(2)
O5_43 O 0.4554(3) 0.82140(13) 0.82140(13)
O6_35 O 0.5000 0.75992(17) 0.8032(3)
S2_39 S 0.38908(7) 0.88908(7) 0.74891(7)
C7_39 C 0.34689(17) 0.94262(16) 0.73006(17)
C8_39 C 0.37599(18) 0.92008(19) 0.72103(19)
C9_39 C 0.3955(2) 0.9207(2) 0.6923(2)
H3_39 H 0.3924 0.9363 0.6746
O9_23 O 0.33929(10) 0.96583(10) 0.70887(10)
C10_39 C 0.44262(16) 0.84689(17) 0.73006(17)
C11_39 C 0.42008(19) 0.87599(18) 0.72103(19)
C12_39 C 0.4207(2) 0.8955(2) 0.6923(2)
H4_39 H 0.4363 0.8924 0.6746
O11_23 O 0.46583(10) 0.83929(10) 0.70887(10)
O12_31 O 0.43617(15) 0.83137(14) 0.75758(13)
O13_43 O 0.4556(3) 0.72866(16) 0.77134(16)
O14_43 O 0.39901(19) 0.7206(2) 0.7206(2)
O15_43 O 0.4554(3) 0.67860(13) 0.67860(13)
O16_35 O 0.5000 0.74008(17) 0.6968(3)
Zr5_23 Zr 0.545343(18) 0.717965(13) 0.717965(13)
Zr7_23 Zr 0.545343(18) 0.782035(13) 0.782035(13)
Zr10_35 Zr 0.5000 0.705533(13) 0.794467(13)
O17_31 O 0.53417(10) 0.83929(10) 0.70887(10)
O18_31 O 0.53417(10) 0.79113(10) 0.66071(10)
O19_23 O 0.5444(3) 0.77134(16) 0.72866(16)
O20_43 O 0.43617(15) 0.75758(13) 0.83137(14)
O21_43 O 0.43617(15) 0.66863(14) 0.74242(13)
O22_35 O 0.5000 0.6968(3) 0.74008(17)
O23_35 O 0.5000 0.8032(3) 0.75992(17)
Zr1_16 Zr 0.454657(18) 0.217965(13) 0.217965(13)
O2_24 O 0.4556(3) 0.22866(16) 0.27134(16)
O4_44 O 0.39901(19) 0.2206(2) 0.2206(2)
O5_44 O 0.4554(3) 0.17860(13) 0.17860(13)
O6_36 O 0.5000 0.24008(17) 0.1968(3)
S2_40 S 0.38908(7) 0.11092(7) 0.25109(7)
C7_40 C 0.34689(17) 0.05738(16) 0.26994(17)
C8_40 C 0.37599(18) 0.07992(19) 0.27897(19)
C9_40 C 0.3955(2) 0.0793(2) 0.3077(2)
H3_40 H 0.3924 0.0637 0.3254
O9_24 O 0.33929(10) 0.03417(10) 0.29113(10)
C10_40 C 0.44262(16) 0.15311(17) 0.26994(17)
C11_40 C 0.42008(19) 0.12401(18) 0.27897(19)
C12_40 C 0.4207(2) 0.1045(2) 0.3077(2)
H4_40 H 0.4363 0.1076 0.3254
O11_24 O 0.46583(10) 0.16071(10) 0.29113(10)
O12_32 O 0.43617(15) 0.16863(14) 0.24242(13)
O13_44 O 0.4556(3) 0.27134(16) 0.22866(16)
O14_44 O 0.39901(19) 0.2794(2) 0.2794(2)
O15_44 O 0.4554(3) 0.32140(13) 0.32140(13)
O16_36 O 0.5000 0.25992(17) 0.3032(3)
Zr5_24 Zr 0.545343(18) 0.282035(13) 0.282035(13)
Zr7_24 Zr 0.545343(18) 0.217965(13) 0.217965(13)
Zr10_36 Zr 0.5000 0.294467(13) 0.205533(13)
O17_32 O 0.53417(10) 0.16071(10) 0.29113(10)
O18_32 O 0.53417(10) 0.20887(10) 0.33929(10)
O19_24 O 0.5444(3) 0.22866(16) 0.27134(16)
O20_44 O 0.43617(15) 0.24242(13) 0.16863(14)
O21_44 O 0.43617(15) 0.33137(14) 0.25758(13)
O22_36 O 0.5000 0.3032(3) 0.25992(17)
O23_36 O 0.5000 0.1968(3) 0.24008(17)
O17_33 O 0.70887(10) 0.96583(10) 0.66071(10)
O18_33 O 0.66071(10) 0.96583(10) 0.70887(10)
O17_34 O 0.29113(10) 0.96583(10) 0.33929(10)
O18_34 O 0.33929(10) 0.96583(10) 0.29113(10)
O17_35 O 0.70887(10) 0.03417(10) 0.33929(10)
O18_35 O 0.66071(10) 0.03417(10) 0.29113(10)
O17_36 O 0.29113(10) 0.03417(10) 0.66071(10)
O18_36 O 0.33929(10) 0.03417(10) 0.70887(10)
S1_21 S 0.61092(7) 0.24891(7) 0.38908(7)
C1_21 C 0.65311(17) 0.23006(17) 0.44262(16)
C2_21 C 0.62401(18) 0.22103(19) 0.42008(19)
C3_21 C 0.6045(2) 0.1923(2) 0.4207(2)
H1_21 H 0.6076 0.1746 0.4363
C4_21 C 0.55738(16) 0.23006(17) 0.34689(17)
C5_21 C 0.57992(19) 0.22103(19) 0.37599(18)
C6_21 C 0.5793(2) 0.1923(2) 0.3955(2)
H2_21 H 0.5637 0.1746 0.3924
O8_13 O 0.56383(15) 0.25758(13) 0.33137(14)
S2_41 S 0.74891(7) 0.11092(7) 0.38908(7)
C7_41 C 0.73006(17) 0.05738(16) 0.34689(17)
C8_41 C 0.72103(19) 0.07992(19) 0.37599(18)
C9_41 C 0.6923(2) 0.0793(2) 0.3955(2)
H3_41 H 0.6746 0.0637 0.3924
C10_41 C 0.73006(17) 0.15311(17) 0.44262(16)
C11_41 C 0.72103(19) 0.12401(18) 0.42008(19)
C12_41 C 0.6923(2) 0.1045(2) 0.4207(2)
H4_41 H 0.6746 0.1076 0.4363
S1_22 S 0.38908(7) 0.75109(7) 0.38908(7)
C1_22 C 0.34689(17) 0.76994(17) 0.44262(16)
C2_22 C 0.37599(18) 0.77897(19) 0.42008(19)
C3_22 C 0.3955(2) 0.8077(2) 0.4207(2)
H1_22 H 0.3924 0.8254 0.4363
C4_22 C 0.44262(16) 0.76994(17) 0.34689(17)
C5_22 C 0.42008(19) 0.77897(19) 0.37599(18)
C6_22 C 0.4207(2) 0.8077(2) 0.3955(2)
H2_22 H 0.4363 0.8254 0.3924
O8_14 O 0.43617(15) 0.74242(13) 0.33137(14)
S2_42 S 0.25109(7) 0.88908(7) 0.38908(7)
C7_42 C 0.26994(17) 0.94262(16) 0.34689(17)
C8_42 C 0.27897(19) 0.92008(19) 0.37599(18)
C9_42 C 0.3077(2) 0.9207(2) 0.3955(2)
H3_42 H 0.3254 0.9363 0.3924
C10_42 C 0.26994(17) 0.84689(17) 0.44262(16)
C11_42 C 0.27897(19) 0.87599(18) 0.42008(19)
C12_42 C 0.3077(2) 0.8955(2) 0.4207(2)
H4_42 H 0.3254 0.8924 0.4363
S1_23 S 0.61092(7) 0.75109(7) 0.61092(7)
C1_23 C 0.65311(17) 0.76994(17) 0.55738(16)
C2_23 C 0.62401(18) 0.77897(19) 0.57992(19)
C3_23 C 0.6045(2) 0.8077(2) 0.5793(2)
H1_23 H 0.6076 0.8254 0.5637
C4_23 C 0.55738(16) 0.76994(17) 0.65311(17)
C5_23 C 0.57992(19) 0.77897(19) 0.62401(18)
C6_23 C 0.5793(2) 0.8077(2) 0.6045(2)
H2_23 H 0.5637 0.8254 0.6076
O8_15 O 0.56383(15) 0.74242(13) 0.66863(14)
S2_43 S 0.74891(7) 0.88908(7) 0.61092(7)
C7_43 C 0.73006(17) 0.94262(16) 0.65311(17)
C8_43 C 0.72103(19) 0.92008(19) 0.62401(18)
C9_43 C 0.6923(2) 0.9207(2) 0.6045(2)
H3_43 H 0.6746 0.9363 0.6076
C10_43 C 0.73006(17) 0.84689(17) 0.55738(16)
C11_43 C 0.72103(19) 0.87599(18) 0.57992(19)
C12_43 C 0.6923(2) 0.8955(2) 0.5793(2)
H4_43 H 0.6746 0.8924 0.5637
S1_24 S 0.38908(7) 0.24891(7) 0.61092(7)
C1_24 C 0.34689(17) 0.23006(17) 0.55738(16)
C2_24 C 0.37599(18) 0.22103(19) 0.57992(19)
C3_24 C 0.3955(2) 0.1923(2) 0.5793(2)
H1_24 H 0.3924 0.1746 0.5637
C4_24 C 0.44262(16) 0.23006(17) 0.65311(17)
C5_24 C 0.42008(19) 0.22103(19) 0.62401(18)
C6_24 C 0.4207(2) 0.1923(2) 0.6045(2)
H2_24 H 0.4363 0.1746 0.6076
O8_16 O 0.43617(15) 0.25758(13) 0.66863(14)
S2_44 S 0.25109(7) 0.11092(7) 0.61092(7)
C7_44 C 0.26994(17) 0.05738(16) 0.65311(17)
C8_44 C 0.27897(19) 0.07992(19) 0.62401(18)
C9_44 C 0.3077(2) 0.0793(2) 0.6045(2)
H3_44 H 0.3254 0.0637 0.6076
C10_44 C 0.26994(17) 0.15311(17) 0.55738(16)
C11_44 C 0.27897(19) 0.12401(18) 0.57992(19)
C12_44 C 0.3077(2) 0.1045(2) 0.5793(2)
H4_44 H 0.3254 0.1076 0.5637
S2_45 S 0.61092(7) 0.11092(7) 0.25109(7)
C7_45 C 0.55738(16) 0.15311(17) 0.26994(17)
C8_45 C 0.57992(19) 0.12401(18) 0.27897(19)
C9_45 C 0.5793(2) 0.1045(2) 0.3077(2)
H3_45 H 0.5637 0.1076 0.3254
O10_29 O 0.56383(15) 0.16863(14) 0.24242(13)
C10_45 C 0.65311(17) 0.05738(16) 0.26994(17)
C11_45 C 0.62401(18) 0.07992(19) 0.27897(19)
C12_45 C 0.6045(2) 0.0793(2) 0.3077(2)
H4_45 H 0.6076 0.0637 0.3254
S2_46 S 0.38908(7) 0.11092(7) 0.74891(7)
C7_46 C 0.44262(16) 0.15311(17) 0.73006(17)
C8_46 C 0.42008(19) 0.12401(18) 0.72103(19)
C9_46 C 0.4207(2) 0.1045(2) 0.6923(2)
H3_46 H 0.4363 0.1076 0.6746
O10_30 O 0.43617(15) 0.16863(14) 0.75758(13)
C10_46 C 0.34689(17) 0.05738(16) 0.73006(17)
C11_46 C 0.37599(18) 0.07992(19) 0.72103(19)
C12_46 C 0.3955(2) 0.0793(2) 0.6923(2)
H4_46 H 0.3924 0.0637 0.6746
S2_47 S 0.38908(7) 0.88908(7) 0.25109(7)
C7_47 C 0.44262(16) 0.84689(17) 0.26994(17)
C8_47 C 0.42008(19) 0.87599(18) 0.27897(19)
C9_47 C 0.4207(2) 0.8955(2) 0.3077(2)
H3_47 H 0.4363 0.8924 0.3254
O10_31 O 0.43617(15) 0.83137(14) 0.24242(13)
C10_47 C 0.34689(17) 0.94262(16) 0.26994(17)
C11_47 C 0.37599(18) 0.92008(19) 0.27897(19)
C12_47 C 0.3955(2) 0.9207(2) 0.3077(2)
H4_47 H 0.3924 0.9363 0.3254
S2_48 S 0.61092(7) 0.88908(7) 0.74891(7)
C7_48 C 0.55738(16) 0.84689(17) 0.73006(17)
C8_48 C 0.57992(19) 0.87599(18) 0.72103(19)
C9_48 C 0.5793(2) 0.8955(2) 0.6923(2)
H3_48 H 0.5637 0.8924 0.6746
O10_32 O 0.56383(15) 0.83137(14) 0.75758(13)
C10_48 C 0.65311(17) 0.94262(16) 0.73006(17)
C11_48 C 0.62401(18) 0.92008(19) 0.72103(19)
C12_48 C 0.6045(2) 0.9207(2) 0.6923(2)
H4_48 H 0.6076 0.9363 0.6746
O4_45 O 0.60099(19) 0.2794(2) 0.2794(2)
O5_45 O 0.5446(3) 0.32140(13) 0.32140(13)
O13_45 O 0.5444(3) 0.27134(16) 0.22866(16)
O14_45 O 0.60099(19) 0.2206(2) 0.2206(2)
O15_45 O 0.5446(3) 0.17860(13) 0.17860(13)
O20_45 O 0.56383(15) 0.33137(14) 0.25758(13)
O21_45 O 0.56383(15) 0.24242(13) 0.16863(14)
O4_46 O 0.60099(19) 0.7206(2) 0.7206(2)
O5_46 O 0.5446(3) 0.67860(13) 0.67860(13)
O13_46 O 0.5444(3) 0.72866(16) 0.77134(16)
O14_46 O 0.60099(19) 0.7794(2) 0.7794(2)
O15_46 O 0.5446(3) 0.82140(13) 0.82140(13)
O20_46 O 0.56383(15) 0.66863(14) 0.74242(13)
O21_46 O 0.56383(15) 0.75758(13) 0.83137(14)
O4_47 O 0.39901(19) 0.2794(2) 0.7206(2)
O5_47 O 0.4554(3) 0.32140(13) 0.67860(13)
O13_47 O 0.4556(3) 0.27134(16) 0.77134(16)
O14_47 O 0.39901(19) 0.2206(2) 0.7794(2)
O15_47 O 0.4554(3) 0.17860(13) 0.82140(13)
O20_47 O 0.43617(15) 0.33137(14) 0.74242(13)
O21_47 O 0.43617(15) 0.24242(13) 0.83137(14)
O4_48 O 0.39901(19) 0.7206(2) 0.2794(2)
O5_48 O 0.4554(3) 0.67860(13) 0.32140(13)
O13_48 O 0.4556(3) 0.72866(16) 0.22866(16)
O14_48 O 0.39901(19) 0.7794(2) 0.2206(2)
O15_48 O 0.4554(3) 0.82140(13) 0.17860(13)
O20_48 O 0.43617(15) 0.66863(14) 0.25758(13)
O21_48 O 0.43617(15) 0.75758(13) 0.16863(14)
S1_25 S 0.74891(7) 0.61092(7) 0.11092(7)
C1_25 C 0.73006(17) 0.65311(17) 0.05738(16)
C2_25 C 0.72103(19) 0.62401(18) 0.07992(19)
C3_25 C 0.6923(2) 0.6045(2) 0.0793(2)
H1_25 H 0.6746 0.6076 0.0637
O1_13 O 0.70887(10) 0.66071(10) 0.03417(10)
C4_25 C 0.73006(17) 0.55738(16) 0.15311(17)
C5_25 C 0.72103(19) 0.57992(19) 0.12401(18)
C6_25 C 0.6923(2) 0.5793(2) 0.1045(2)
H2_25 H 0.6746 0.5637 0.1076
O7_13 O 0.70887(10) 0.53417(10) 0.16071(10)
S2_49 S 0.61092(7) 0.74891(7) 0.11092(7)
C7_49 C 0.55738(16) 0.73006(17) 0.15311(17)
C8_49 C 0.57992(19) 0.72103(19) 0.12401(18)
C9_49 C 0.5793(2) 0.6923(2) 0.1045(2)
H3_49 H 0.5637 0.6746 0.1076
O9_25 O 0.53417(10) 0.70887(10) 0.16071(10)
C10_49 C 0.65311(17) 0.73006(17) 0.05738(16)
C11_49 C 0.62401(18) 0.72103(19) 0.07992(19)
C12_49 C 0.6045(2) 0.6923(2) 0.0793(2)
H4_49 H 0.6076 0.6746 0.0637
O11_25 O 0.66071(10) 0.70887(10) 0.03417(10)
O17_37 O 0.66071(10) 0.70887(10) 0.96583(10)
O18_37 O 0.70887(10) 0.66071(10) 0.96583(10)
S1_26 S 0.25109(7) 0.38908(7) 0.11092(7)
C1_26 C 0.26994(17) 0.34689(17) 0.05738(16)
C2_26 C 0.27897(19) 0.37599(18) 0.07992(19)
C3_26 C 0.3077(2) 0.3955(2) 0.0793(2)
H1_26 H 0.3254 0.3924 0.0637
O1_14 O 0.29113(10) 0.33929(10) 0.03417(10)
C4_26 C 0.26994(17) 0.44262(16) 0.15311(17)
C5_26 C 0.27897(19) 0.42008(19) 0.12401(18)
C6_26 C 0.3077(2) 0.4207(2) 0.1045(2)
H2_26 H 0.3254 0.4363 0.1076
O7_14 O 0.29113(10) 0.46583(10) 0.16071(10)
S2_50 S 0.38908(7) 0.25109(7) 0.11092(7)
C7_50 C 0.44262(16) 0.26994(17) 0.15311(17)
C8_50 C 0.42008(19) 0.27897(19) 0.12401(18)
C9_50 C 0.4207(2) 0.3077(2) 0.1045(2)
H3_50 H 0.4363 0.3254 0.1076
O9_26 O 0.46583(10) 0.29113(10) 0.16071(10)
C10_50 C 0.34689(17) 0.26994(17) 0.05738(16)
C11_50 C 0.37599(18) 0.27897(19) 0.07992(19)
C12_50 C 0.3955(2) 0.3077(2) 0.0793(2)
H4_50 H 0.3924 0.3254 0.0637
O11_26 O 0.33929(10) 0.29113(10) 0.03417(10)
O17_38 O 0.33929(10) 0.29113(10) 0.96583(10)
O18_38 O 0.29113(10) 0.33929(10) 0.96583(10)
O17_39 O 0.33929(10) 0.70887(10) 0.03417(10)
O18_39 O 0.29113(10) 0.66071(10) 0.03417(10)
S1_27 S 0.25109(7) 0.61092(7) 0.88908(7)
C1_27 C 0.26994(17) 0.65311(17) 0.94262(16)
C2_27 C 0.27897(19) 0.62401(18) 0.92008(19)
C3_27 C 0.3077(2) 0.6045(2) 0.9207(2)
H1_27 H 0.3254 0.6076 0.9363
O1_15 O 0.29113(10) 0.66071(10) 0.96583(10)
C4_27 C 0.26994(17) 0.55738(16) 0.84689(17)
C5_27 C 0.27897(19) 0.57992(19) 0.87599(18)
C6_27 C 0.3077(2) 0.5793(2) 0.8955(2)
H2_27 H 0.3254 0.5637 0.8924
O7_15 O 0.29113(10) 0.53417(10) 0.83929(10)
S2_51 S 0.38908(7) 0.74891(7) 0.88908(7)
C7_51 C 0.44262(16) 0.73006(17) 0.84689(17)
C8_51 C 0.42008(19) 0.72103(19) 0.87599(18)
C9_51 C 0.4207(2) 0.6923(2) 0.8955(2)
H3_51 H 0.4363 0.6746 0.8924
O9_27 O 0.46583(10) 0.70887(10) 0.83929(10)
C10_51 C 0.34689(17) 0.73006(17) 0.94262(16)
C11_51 C 0.37599(18) 0.72103(19) 0.92008(19)
C12_51 C 0.3955(2) 0.6923(2) 0.9207(2)
H4_51 H 0.3924 0.6746 0.9363
O11_27 O 0.33929(10) 0.70887(10) 0.96583(10)
O17_40 O 0.66071(10) 0.29113(10) 0.03417(10)
O18_40 O 0.70887(10) 0.33929(10) 0.03417(10)
S1_28 S 0.74891(7) 0.38908(7) 0.88908(7)
C1_28 C 0.73006(17) 0.34689(17) 0.94262(16)
C2_28 C 0.72103(19) 0.37599(18) 0.92008(19)
C3_28 C 0.6923(2) 0.3955(2) 0.9207(2)
H1_28 H 0.6746 0.3924 0.9363
O1_16 O 0.70887(10) 0.33929(10) 0.96583(10)
C4_28 C 0.73006(17) 0.44262(16) 0.84689(17)
C5_28 C 0.72103(19) 0.42008(19) 0.87599(18)
C6_28 C 0.6923(2) 0.4207(2) 0.8955(2)
H2_28 H 0.6746 0.4363 0.8924
O7_16 O 0.70887(10) 0.46583(10) 0.83929(10)
S2_52 S 0.61092(7) 0.25109(7) 0.88908(7)
C7_52 C 0.55738(16) 0.26994(17) 0.84689(17)
C8_52 C 0.57992(19) 0.27897(19) 0.87599(18)
C9_52 C 0.5793(2) 0.3077(2) 0.8955(2)
H3_52 H 0.5637 0.3254 0.8924
O9_28 O 0.53417(10) 0.29113(10) 0.83929(10)
C10_52 C 0.65311(17) 0.26994(17) 0.94262(16)
C11_52 C 0.62401(18) 0.27897(19) 0.92008(19)
C12_52 C 0.6045(2) 0.3077(2) 0.9207(2)
H4_52 H 0.6076 0.3254 0.9363
O11_28 O 0.66071(10) 0.29113(10) 0.96583(10)
S2_53 S 0.61092(7) 0.61092(7) 0.24891(7)
C7_53 C 0.65311(17) 0.55738(16) 0.23006(17)
C8_53 C 0.62401(18) 0.57992(19) 0.22103(19)
C9_53 C 0.6045(2) 0.5793(2) 0.1923(2)
H3_53 H 0.6076 0.5637 0.1746
O9_29 O 0.66071(10) 0.53417(10) 0.20887(10)
C10_53 C 0.55738(16) 0.65311(17) 0.23006(17)
C11_53 C 0.57992(19) 0.62401(18) 0.22103(19)
C12_53 C 0.5793(2) 0.6045(2) 0.1923(2)
H4_53 H 0.5637 0.6076 0.1746
O11_29 O 0.53417(10) 0.66071(10) 0.20887(10)
O17_41 O 0.46583(10) 0.66071(10) 0.20887(10)
O18_41 O 0.46583(10) 0.70887(10) 0.16071(10)
S2_54 S 0.61092(7) 0.38908(7) 0.75109(7)
C7_54 C 0.65311(17) 0.44262(16) 0.76994(17)
C8_54 C 0.62401(18) 0.42008(19) 0.77897(19)
C9_54 C 0.6045(2) 0.4207(2) 0.8077(2)
H3_54 H 0.6076 0.4363 0.8254
O9_30 O 0.66071(10) 0.46583(10) 0.79113(10)
C10_54 C 0.55738(16) 0.34689(17) 0.76994(17)
C11_54 C 0.57992(19) 0.37599(18) 0.77897(19)
C12_54 C 0.5793(2) 0.3955(2) 0.8077(2)
H4_54 H 0.5637 0.3924 0.8254
O11_30 O 0.53417(10) 0.33929(10) 0.79113(10)
O17_42 O 0.46583(10) 0.33929(10) 0.79113(10)
O18_42 O 0.46583(10) 0.29113(10) 0.83929(10)
S2_55 S 0.38908(7) 0.38908(7) 0.24891(7)
C7_55 C 0.34689(17) 0.44262(16) 0.23006(17)
C8_55 C 0.37599(18) 0.42008(19) 0.22103(19)
C9_55 C 0.3955(2) 0.4207(2) 0.1923(2)
H3_55 H 0.3924 0.4363 0.1746
O9_31 O 0.33929(10) 0.46583(10) 0.20887(10)
C10_55 C 0.44262(16) 0.34689(17) 0.23006(17)
C11_55 C 0.42008(19) 0.37599(18) 0.22103(19)
C12_55 C 0.4207(2) 0.3955(2) 0.1923(2)
H4_55 H 0.4363 0.3924 0.1746
O11_31 O 0.46583(10) 0.33929(10) 0.20887(10)
O17_43 O 0.53417(10) 0.33929(10) 0.20887(10)
O18_43 O 0.53417(10) 0.29113(10) 0.16071(10)
S2_56 S 0.38908(7) 0.61092(7) 0.75109(7)
C7_56 C 0.34689(17) 0.55738(16) 0.76994(17)
C8_56 C 0.37599(18) 0.57992(19) 0.77897(19)
C9_56 C 0.3955(2) 0.5793(2) 0.8077(2)
H3_56 H 0.3924 0.5637 0.8254
O9_32 O 0.33929(10) 0.53417(10) 0.79113(10)
C10_56 C 0.44262(16) 0.65311(17) 0.76994(17)
C11_56 C 0.42008(19) 0.62401(18) 0.77897(19)
C12_56 C 0.4207(2) 0.6045(2) 0.8077(2)
H4_56 H 0.4363 0.6076 0.8254
O11_32 O 0.46583(10) 0.66071(10) 0.79113(10)
O17_44 O 0.53417(10) 0.66071(10) 0.79113(10)
O18_44 O 0.53417(10) 0.70887(10) 0.83929(10)
O17_45 O 0.70887(10) 0.46583(10) 0.16071(10)
O18_45 O 0.66071(10) 0.46583(10) 0.20887(10)
O17_46 O 0.29113(10) 0.46583(10) 0.83929(10)
O18_46 O 0.33929(10) 0.46583(10) 0.79113(10)
O17_47 O 0.70887(10) 0.53417(10) 0.83929(10)
O18_47 O 0.66071(10) 0.53417(10) 0.79113(10)
O17_48 O 0.29113(10) 0.53417(10) 0.16071(10)
O18_48 O 0.33929(10) 0.53417(10) 0.20887(10)
S1_29 S 0.61092(7) 0.74891(7) 0.88908(7)
C1_29 C 0.65311(17) 0.73006(17) 0.94262(16)
C2_29 C 0.62401(18) 0.72103(19) 0.92008(19)
C3_29 C 0.6045(2) 0.6923(2) 0.9207(2)
H1_29 H 0.6076 0.6746 0.9363
C4_29 C 0.55738(16) 0.73006(17) 0.84689(17)
C5_29 C 0.57992(19) 0.72103(19) 0.87599(18)
C6_29 C 0.5793(2) 0.6923(2) 0.8955(2)
H2_29 H 0.5637 0.6746 0.8924
S2_57 S 0.74891(7) 0.61092(7) 0.88908(7)
C7_57 C 0.73006(17) 0.55738(16) 0.84689(17)
C8_57 C 0.72103(19) 0.57992(19) 0.87599(18)
C9_57 C 0.6923(2) 0.5793(2) 0.8955(2)
H3_57 H 0.6746 0.5637 0.8924
C10_57 C 0.73006(17) 0.65311(17) 0.94262(16)
C11_57 C 0.72103(19) 0.62401(18) 0.92008(19)
C12_57 C 0.6923(2) 0.6045(2) 0.9207(2)
H4_57 H 0.6746 0.6076 0.9363
S1_30 S 0.38908(7) 0.25109(7) 0.88908(7)
C1_30 C 0.34689(17) 0.26994(17) 0.94262(16)
C2_30 C 0.37599(18) 0.27897(19) 0.92008(19)
C3_30 C 0.3955(2) 0.3077(2) 0.9207(2)
H1_30 H 0.3924 0.3254 0.9363
C4_30 C 0.44262(16) 0.26994(17) 0.84689(17)
C5_30 C 0.42008(19) 0.27897(19) 0.87599(18)
C6_30 C 0.4207(2) 0.3077(2) 0.8955(2)
H2_30 H 0.4363 0.3254 0.8924
S2_58 S 0.25109(7) 0.38908(7) 0.88908(7)
C7_58 C 0.26994(17) 0.44262(16) 0.84689(17)
C8_58 C 0.27897(19) 0.42008(19) 0.87599(18)
C9_58 C 0.3077(2) 0.4207(2) 0.8955(2)
H3_58 H 0.3254 0.4363 0.8924
C10_58 C 0.26994(17) 0.34689(17) 0.94262(16)
C11_58 C 0.27897(19) 0.37599(18) 0.92008(19)
C12_58 C 0.3077(2) 0.3955(2) 0.9207(2)
H4_58 H 0.3254 0.3924 0.9363
S1_31 S 0.61092(7) 0.25109(7) 0.11092(7)
C1_31 C 0.65311(17) 0.26994(17) 0.05738(16)
C2_31 C 0.62401(18) 0.27897(19) 0.07992(19)
C3_31 C 0.6045(2) 0.3077(2) 0.0793(2)
H1_31 H 0.6076 0.3254 0.0637
C4_31 C 0.55738(16) 0.26994(17) 0.15311(17)
C5_31 C 0.57992(19) 0.27897(19) 0.12401(18)
C6_31 C 0.5793(2) 0.3077(2) 0.1045(2)
H2_31 H 0.5637 0.3254 0.1076
S2_59 S 0.74891(7) 0.38908(7) 0.11092(7)
C7_59 C 0.73006(17) 0.44262(16) 0.15311(17)
C8_59 C 0.72103(19) 0.42008(19) 0.12401(18)
C9_59 C 0.6923(2) 0.4207(2) 0.1045(2)
H3_59 H 0.6746 0.4363 0.1076
C10_59 C 0.73006(17) 0.34689(17) 0.05738(16)
C11_59 C 0.72103(19) 0.37599(18) 0.07992(19)
C12_59 C 0.6923(2) 0.3955(2) 0.0793(2)
H4_59 H 0.6746 0.3924 0.0637
S1_32 S 0.38908(7) 0.74891(7) 0.11092(7)
C1_32 C 0.34689(17) 0.73006(17) 0.05738(16)
C2_32 C 0.37599(18) 0.72103(19) 0.07992(19)
C3_32 C 0.3955(2) 0.6923(2) 0.0793(2)
H1_32 H 0.3924 0.6746 0.0637
C4_32 C 0.44262(16) 0.73006(17) 0.15311(17)
C5_32 C 0.42008(19) 0.72103(19) 0.12401(18)
C6_32 C 0.4207(2) 0.6923(2) 0.1045(2)
H2_32 H 0.4363 0.6746 0.1076
S2_60 S 0.25109(7) 0.61092(7) 0.11092(7)
C7_60 C 0.26994(17) 0.55738(16) 0.15311(17)
C8_60 C 0.27897(19) 0.57992(19) 0.12401(18)
C9_60 C 0.3077(2) 0.5793(2) 0.1045(2)
H3_60 H 0.3254 0.5637 0.1076
C10_60 C 0.26994(17) 0.65311(17) 0.05738(16)
C11_60 C 0.27897(19) 0.62401(18) 0.07992(19)
C12_60 C 0.3077(2) 0.6045(2) 0.0793(2)
H4_60 H 0.3254 0.6076 0.0637
S2_61 S 0.61092(7) 0.61092(7) 0.75109(7)
C7_61 C 0.55738(16) 0.65311(17) 0.76994(17)
C8_61 C 0.57992(19) 0.62401(18) 0.77897(19)
C9_61 C 0.5793(2) 0.6045(2) 0.8077(2)
H3_61 H 0.5637 0.6076 0.8254
C10_61 C 0.65311(17) 0.55738(16) 0.76994(17)
C11_61 C 0.62401(18) 0.57992(19) 0.77897(19)
C12_61 C 0.6045(2) 0.5793(2) 0.8077(2)
H4_61 H 0.6076 0.5637 0.8254
S2_62 S 0.38908(7) 0.61092(7) 0.24891(7)
C7_62 C 0.44262(16) 0.65311(17) 0.23006(17)
C8_62 C 0.42008(19) 0.62401(18) 0.22103(19)
C9_62 C 0.4207(2) 0.6045(2) 0.1923(2)
H3_62 H 0.4363 0.6076 0.1746
C10_62 C 0.34689(17) 0.55738(16) 0.23006(17)
C11_62 C 0.37599(18) 0.57992(19) 0.22103(19)
C12_62 C 0.3955(2) 0.5793(2) 0.1923(2)
H4_62 H 0.3924 0.5637 0.1746
S2_63 S 0.38908(7) 0.38908(7) 0.75109(7)
C7_63 C 0.44262(16) 0.34689(17) 0.76994(17)
C8_63 C 0.42008(19) 0.37599(18) 0.77897(19)
C9_63 C 0.4207(2) 0.3955(2) 0.8077(2)
H3_63 H 0.4363 0.3924 0.8254
C10_63 C 0.34689(17) 0.44262(16) 0.76994(17)
C11_63 C 0.37599(18) 0.42008(19) 0.77897(19)
C12_63 C 0.3955(2) 0.4207(2) 0.8077(2)
H4_63 H 0.3924 0.4363 0.8254
S2_64 S 0.61092(7) 0.38908(7) 0.24891(7)
C7_64 C 0.55738(16) 0.34689(17) 0.23006(17)
C8_64 C 0.57992(19) 0.37599(18) 0.22103(19)
C9_64 C 0.5793(2) 0.3955(2) 0.1923(2)
H3_64 H 0.5637 0.3924 0.1746
C10_64 C 0.65311(17) 0.44262(16) 0.23006(17)
C11_64 C 0.62401(18) 0.42008(19) 0.22103(19)
C12_64 C 0.6045(2) 0.4207(2) 0.1923(2)
H4_64 H 0.6076 0.4363 0.1746
loop_
_geom_bond_atom_site_label_1
_geom_bond_atom_site_label_2
_geom_bond_site_symmetry_1
_geom_bond_site_symmetry_2
Zr1 O2 1_555 1_555
Zr2 O1 1_555 1_555
S1 C2 1_555 1_555
C1 C2 1_555 1_555
C2 C3 1_555 1_555
C3 H1 1_555 1_555
O1 C1 1_555 1_555
O2 Zr2 1_555 1_555
O3 C1 1_555 1_555
O4 Zr1 1_555 1_555
O5 Zr1 1_555 1_555
O6 Zr1 1_555 1_555
C4 C5 1_555 1_555
C5 S1 1_555 1_555
C6 C3 1_555 1_555
H2 C6 1_555 1_555
O7 C4 1_555 1_555
O8 C4 1_555 1_555
S2 C8 1_555 1_555
C7 C8 1_555 1_555
C8 C9 1_555 1_555
C9 H3 1_555 1_555
O9 C7 1_555 1_555
O10 C7 1_555 1_555
C10 C11 1_555 1_555
C11 S2 1_555 1_555
C12 C9 1_555 1_555
H4 C12 1_555 1_555
O11 Zr2 1_555 1_555
O12 Zr1 1_555 1_555
Zr3 O2 1_555 1_555
O13 Zr1 1_555 1_555
O14 Zr3 1_555 1_555
O15 Zr3 1_555 1_555
O16 Zr2 1_555 1_555
Zr4 O8 1_555 1_555
Zr6 O10 1_555 1_555
Zr8 O9 1_555 1_555
Zr9 O7 1_555 1_555
Zr10 O6 1_555 1_555
O20 Zr1 1_555 1_555
O21 Zr3 1_555 1_555
O22 Zr3 1_555 1_555
O23 Zr1 1_555 1_555
Zr2 O23 1_555 1_555
O3 Zr3 1_555 1_555
C5 C6 1_555 1_555
C10 O11 1_555 1_555
C10 O12 1_555 1_555
C11 C12 1_555 1_555
Zr3 O13 1_555 1_555
Zr3 O16 1_555 1_555
O13 Zr10 1_555 1_555
Zr10 O22 1_555 1_555
O16_2 Zr2_2 1_555 1_555
Zr5 O16_2 1_555 1_555
Zr7 O6_2 1_555 1_555
Zr10_2 O6_2 1_555 1_555
O17 Zr2_2 1_555 1_555
O18 Zr2_2 1_555 1_555
O19 Zr2_2 1_555 1_555
Zr2_2 O23_2 1_555 1_555
Zr5 O19 1_555 1_555
Zr5 O22_2 1_555 1_555
Zr7 O19 1_555 1_555
Zr7 O23_2 1_555 1_555
Zr10_2 O22_2 1_555 1_555
Zr1_2 O2_2 1_555 1_555
Zr2_3 O1_2 1_555 1_555
S1_2 C2_2 1_555 1_555
C1_2 C2_2 1_555 1_555
C2_2 C3_2 1_555 1_555
C3_2 H1_2 1_555 1_555
O1_2 C1_2 1_555 1_555
O2_2 Zr2_3 1_555 1_555
O3_2 C1_2 1_555 1_555
O4_2 Zr1_2 1_555 1_555
O5_2 Zr1_2 1_555 1_555
O6_3 Zr1_2 1_555 1_555
C4_2 C5_2 1_555 1_555
C5_2 S1_2 1_555 1_555
C6_2 C3_2 1_555 1_555
H2_2 C6_2 1_555 1_555
O7_2 C4_2 1_555 1_555
O8_2 C4_2 1_555 1_555
S2_2 C8_2 1_555 1_555
C7_2 C8_2 1_555 1_555
C8_2 C9_2 1_555 1_555
C9_2 H3_2 1_555 1_555
O9_2 C7_2 1_555 1_555
O10_2 C7_2 1_555 1_555
C10_2 C11_2 1_555 1_555
C11_2 S2_2 1_555 1_555
C12_2 C9_2 1_555 1_555
H4_2 C12_2 1_555 1_555
O11_2 Zr2_3 1_555 1_555
O12_2 Zr1_2 1_555 1_555
Zr3_2 O2_2 1_555 1_555
O13_2 Zr1_2 1_555 1_555
O14_2 Zr3_2 1_555 1_555
O15_2 Zr3_2 1_555 1_555
O16_3 Zr2_3 1_555 1_555
Zr4_2 O8_2 1_555 1_555
Zr6_2 O10_2 1_555 1_555
Zr8_4 O9_2 1_555 1_555
Zr9_4 O7_2 1_555 1_555
Zr10_3 O6_3 1_555 1_555
O20_2 Zr1_2 1_555 1_555
O21_2 Zr3_2 1_555 1_555
O22_3 Zr3_2 1_555 1_555
O23_3 Zr1_2 1_555 1_555
Zr2_3 O23_3 1_555 1_555
O3_2 Zr3_2 1_555 1_555
C5_2 C6_2 1_555 1_555
C10_2 O11_2 1_555 1_555
C10_2 O12_2 1_555 1_555
C11_2 C12_2 1_555 1_555
Zr3_2 O13_2 1_555 1_555
Zr3_2 O16_3 1_555 1_555
O13_2 Zr10_3 1_555 1_555
Zr10_3 O22_3 1_555 1_555
O16_4 Zr2_4 1_555 1_555
Zr5_2 O16_4 1_555 1_555
Zr7_2 O6_4 1_555 1_555
Zr10_4 O6_4 1_555 1_555
O17_2 Zr2_4 1_555 1_555
O18_2 Zr2_4 1_555 1_555
O19_2 Zr2_4 1_555 1_555
Zr2_4 O23_4 1_555 1_555
Zr5_2 O19_2 1_555 1_555
Zr5_2 O22_4 1_555 1_555
Zr7_2 O19_2 1_555 1_555
Zr7_2 O23_4 1_555 1_555
Zr10_4 O22_4 1_555 1_555
O16_5 Zr2_5 1_555 1_555
Zr5_3 O16_5 1_555 1_555
Zr7_3 O6_5 1_555 1_555
Zr10_5 O6_5 1_555 1_555
O17_3 Zr2_5 1_555 1_555
O18_3 Zr2_5 1_555 1_555
O19_3 Zr2_5 1_555 1_555
Zr2_5 O23_5 1_555 1_555
Zr5_3 O19_3 1_555 1_555
Zr5_3 O22_5 1_555 1_555
Zr7_3 O19_3 1_555 1_555
Zr7_3 O23_5 1_555 1_555
Zr10_5 O22_5 1_555 1_555
Zr1_3 O2_3 1_555 1_555
Zr2_6 O1_3 1_555 1_555
S1_3 C2_3 1_555 1_555
C1_3 C2_3 1_555 1_555
C2_3 C3_3 1_555 1_555
C3_3 H1_3 1_555 1_555
O1_3 C1_3 1_555 1_555
O2_3 Zr2_6 1_555 1_555
O3_3 C1_3 1_555 1_555
O4_3 Zr1_3 1_555 1_555
O5_3 Zr1_3 1_555 1_555
O6_6 Zr1_3 1_555 1_555
C4_3 C5_3 1_555 1_555
C5_3 S1_3 1_555 1_555
C6_3 C3_3 1_555 1_555
H2_3 C6_3 1_555 1_555
O7_3 C4_3 1_555 1_555
O8_3 C4_3 1_555 1_555
S2_3 C8_3 1_555 1_555
C7_3 C8_3 1_555 1_555
C8_3 C9_3 1_555 1_555
C9_3 H3_3 1_555 1_555
O9_3 C7_3 1_555 1_555
O10_3 C7_3 1_555 1_555
C10_3 C11_3 1_555 1_555
C11_3 S2_3 1_555 1_555
C12_3 C9_3 1_555 1_555
H4_3 C12_3 1_555 1_555
O11_3 Zr2_6 1_555 1_555
O12_3 Zr1_3 1_555 1_555
Zr3_3 O2_3 1_555 1_555
O13_3 Zr1_3 1_555 1_555
O14_3 Zr3_3 1_555 1_555
O15_3 Zr3_3 1_555 1_555
O16_6 Zr2_6 1_555 1_555
Zr4_3 O8_3 1_555 1_555
Zr6_3 O10_3 1_555 1_555
Zr8_6 O9_3 1_555 1_555
Zr9_5 O7_3 1_555 1_555
Zr10_6 O6_6 1_555 1_555
O20_3 Zr1_3 1_555 1_555
O21_3 Zr3_3 1_555 1_555
O22_6 Zr3_3 1_555 1_555
O23_6 Zr1_3 1_555 1_555
Zr2_6 O23_6 1_555 1_555
O3_3 Zr3_3 1_555 1_555
C5_3 C6_3 1_555 1_555
C10_3 O11_3 1_555 1_555
C10_3 O12_3 1_555 1_555
C11_3 C12_3 1_555 1_555
Zr3_3 O13_3 1_555 1_555
Zr3_3 O16_6 1_555 1_555
O13_3 Zr10_6 1_555 1_555
Zr10_6 O22_6 1_555 1_555
O16_7 Zr2_7 1_555 1_555
Zr5_4 O16_7 1_555 1_555
Zr7_4 O6_7 1_555 1_555
Zr10_7 O6_7 1_555 1_555
O17_4 Zr2_7 1_555 1_555
O18_4 Zr2_7 1_555 1_555
O19_4 Zr2_7 1_555 1_555
Zr2_7 O23_7 1_555 1_555
Zr5_4 O19_4 1_555 1_555
Zr5_4 O22_7 1_555 1_555
Zr7_4 O19_4 1_555 1_555
Zr7_4 O23_7 1_555 1_555
Zr10_7 O22_7 1_555 1_555
Zr1_4 O2_4 1_555 1_555
Zr2_8 O1_4 1_555 1_555
S1_4 C2_4 1_555 1_555
C1_4 C2_4 1_555 1_555
C2_4 C3_4 1_555 1_555
C3_4 H1_4 1_555 1_555
O1_4 C1_4 1_555 1_555
O2_4 Zr2_8 1_555 1_555
O3_4 C1_4 1_555 1_555
O4_4 Zr1_4 1_555 1_555
O5_4 Zr1_4 1_555 1_555
O6_8 Zr1_4 1_555 1_555
C4_4 C5_4 1_555 1_555
C5_4 S1_4 1_555 1_555
C6_4 C3_4 1_555 1_555
H2_4 C6_4 1_555 1_555
O7_4 C4_4 1_555 1_555
O8_4 C4_4 1_555 1_555
S2_4 C8_4 1_555 1_555
C7_4 C8_4 1_555 1_555
C8_4 C9_4 1_555 1_555
C9_4 H3_4 1_555 1_555
O9_4 C7_4 1_555 1_555
O10_4 C7_4 1_555 1_555
C10_4 C11_4 1_555 1_555
C11_4 S2_4 1_555 1_555
C12_4 C9_4 1_555 1_555
H4_4 C12_4 1_555 1_555
O11_4 Zr2_8 1_555 1_555
O12_4 Zr1_4 1_555 1_555
Zr3_4 O2_4 1_555 1_555
O13_4 Zr1_4 1_555 1_555
O14_4 Zr3_4 1_555 1_555
O15_4 Zr3_4 1_555 1_555
O16_8 Zr2_8 1_555 1_555
Zr4_4 O8_4 1_555 1_555
Zr6_4 O10_4 1_555 1_555
Zr8_7 O9_4 1_555 1_555
Zr9_8 O7_4 1_555 1_555
Zr10_8 O6_8 1_555 1_555
O20_4 Zr1_4 1_555 1_555
O21_4 Zr3_4 1_555 1_555
O22_8 Zr3_4 1_555 1_555
O23_8 Zr1_4 1_555 1_555
Zr2_8 O23_8 1_555 1_555
O3_4 Zr3_4 1_555 1_555
C5_4 C6_4 1_555 1_555
C10_4 O11_4 1_555 1_555
C10_4 O12_4 1_555 1_555
C11_4 C12_4 1_555 1_555
Zr3_4 O13_4 1_555 1_555
Zr3_4 O16_8 1_555 1_555
O13_4 Zr10_8 1_555 1_555
Zr10_8 O22_8 1_555 1_555
Zr1_5 O2_5 1_555 1_555
O2_5 Zr8 1_555 1_555
O4_5 Zr1_5 1_555 1_555
O5_5 Zr1_5 1_555 1_555
O6_9 Zr1_5 1_555 1_555
S2_5 C8_5 1_555 1_555
C7_5 C8_5 1_555 1_555
C8_5 C9_5 1_555 1_555
C9_5 H3_5 1_555 1_555
O9_5 C7_5 1_555 1_555
O10_5 C7_5 1_555 1_555
C10_5 C11_5 1_555 1_555
C11_5 S2_5 1_555 1_555
C12_5 C9_5 1_555 1_555
H4_5 C12_5 1_555 1_555
O11_5 Zr8 1_555 1_555
O12_5 Zr1_5 1_555 1_555
Zr6 O2_5 1_555 1_555
O13_5 Zr1_5 1_555 1_555
O14_5 Zr6 1_555 1_555
O15_5 Zr6 1_555 1_555
O16_9 Zr8 1_555 1_555
Zr6_5 O10_5 1_555 1_555
Zr9 O9_5 1_555 1_555
Zr10_9 O6_9 1_555 1_555
O20_5 Zr1_5 1_555 1_555
O21_5 Zr6 1_555 1_555
O22_9 Zr6 1_555 1_555
O23_9 Zr1_5 1_555 1_555
Zr8 O23_9 1_555 1_555
C10_5 O11_5 1_555 1_555
C10_5 O12_5 1_555 1_555
C11_5 C12_5 1_555 1_555
Zr6 O13_5 1_555 1_555
Zr6 O16_9 1_555 1_555
O13_5 Zr10_9 1_555 1_555
Zr10_9 O22_9 1_555 1_555
O16_10 Zr8_2 1_555 1_555
Zr5_5 O16_10 1_555 1_555
Zr7_5 O6_10 1_555 1_555
Zr10_10 O6_10 1_555 1_555
O17_5 Zr8_2 1_555 1_555
O18_5 Zr8_2 1_555 1_555
O19_5 Zr8_2 1_555 1_555
Zr8_2 O23_10 1_555 1_555
Zr5_5 O19_5 1_555 1_555
Zr5_5 O22_10 1_555 1_555
Zr7_5 O19_5 1_555 1_555
Zr7_5 O23_10 1_555 1_555
Zr10_10 O22_10 1_555 1_555
Zr1_6 O2_6 1_555 1_555
O2_6 Zr8_7 1_555 1_555
O4_6 Zr1_6 1_555 1_555
O5_6 Zr1_6 1_555 1_555
O6_11 Zr1_6 1_555 1_555
S2_6 C8_6 1_555 1_555
C7_6 C8_6 1_555 1_555
C8_6 C9_6 1_555 1_555
C9_6 H3_6 1_555 1_555
O9_6 C7_6 1_555 1_555
O10_6 C7_6 1_555 1_555
C10_6 C11_6 1_555 1_555
C11_6 S2_6 1_555 1_555
C12_6 C9_6 1_555 1_555
H4_6 C12_6 1_555 1_555
O11_6 Zr8_7 1_555 1_555
O12_6 Zr1_6 1_555 1_555
Zr6_4 O2_6 1_555 1_555
O13_6 Zr1_6 1_555 1_555
O14_6 Zr6_4 1_555 1_555
O15_6 Zr6_4 1_555 1_555
O16_11 Zr8_7 1_555 1_555
Zr6_6 O10_6 1_555 1_555
Zr9_8 O9_6 1_555 1_555
Zr10_11 O6_11 1_555 1_555
O20_6 Zr1_6 1_555 1_555
O21_6 Zr6_4 1_555 1_555
O22_11 Zr6_4 1_555 1_555
O23_11 Zr1_6 1_555 1_555
Zr8_7 O23_11 1_555 1_555
C10_6 O11_6 1_555 1_555
C10_6 O12_6 1_555 1_555
C11_6 C12_6 1_555 1_555
Zr6_4 O13_6 1_555 1_555
Zr6_4 O16_11 1_555 1_555
O13_6 Zr10_11 1_555 1_555
Zr10_11 O22_11 1_555 1_555
O16_12 Zr8_8 1_555 1_555
Zr5_6 O16_12 1_555 1_555
Zr7_6 O6_12 1_555 1_555
Zr10_12 O6_12 1_555 1_555
O17_6 Zr8_8 1_555 1_555
O18_6 Zr8_8 1_555 1_555
O19_6 Zr8_8 1_555 1_555
Zr8_8 O23_12 1_555 1_555
Zr5_6 O19_6 1_555 1_555
Zr5_6 O22_12 1_555 1_555
Zr7_6 O19_6 1_555 1_555
Zr7_6 O23_12 1_555 1_555
Zr10_12 O22_12 1_555 1_555
O16_13 Zr8_3 1_555 1_555
Zr5_7 O16_13 1_555 1_555
Zr7_7 O6_13 1_555 1_555
Zr10_13 O6_13 1_555 1_555
O17_7 Zr8_3 1_555 1_555
O18_7 Zr8_3 1_555 1_555
O19_7 Zr8_3 1_555 1_555
Zr8_3 O23_13 1_555 1_555
Zr5_7 O19_7 1_555 1_555
Zr5_7 O22_13 1_555 1_555
Zr7_7 O19_7 1_555 1_555
Zr7_7 O23_13 1_555 1_555
Zr10_13 O22_13 1_555 1_555
Zr1_7 O2_7 1_555 1_555
O2_7 Zr8_4 1_555 1_555
O4_7 Zr1_7 1_555 1_555
O5_7 Zr1_7 1_555 1_555
O6_14 Zr1_7 1_555 1_555
S2_7 C8_7 1_555 1_555
C7_7 C8_7 1_555 1_555
C8_7 C9_7 1_555 1_555
C9_7 H3_7 1_555 1_555
O9_7 C7_7 1_555 1_555
O10_7 C7_7 1_555 1_555
C10_7 C11_7 1_555 1_555
C11_7 S2_7 1_555 1_555
C12_7 C9_7 1_555 1_555
H4_7 C12_7 1_555 1_555
O11_7 Zr8_4 1_555 1_555
O12_7 Zr1_7 1_555 1_555
Zr6_2 O2_7 1_555 1_555
O13_7 Zr1_7 1_555 1_555
O14_7 Zr6_2 1_555 1_555
O15_7 Zr6_2 1_555 1_555
O16_14 Zr8_4 1_555 1_555
Zr6_7 O10_7 1_555 1_555
Zr9_4 O9_7 1_555 1_555
Zr10_14 O6_14 1_555 1_555
O20_7 Zr1_7 1_555 1_555
O21_7 Zr6_2 1_555 1_555
O22_14 Zr6_2 1_555 1_555
O23_14 Zr1_7 1_555 1_555
Zr8_4 O23_14 1_555 1_555
C10_7 O11_7 1_555 1_555
C10_7 O12_7 1_555 1_555
C11_7 C12_7 1_555 1_555
Zr6_2 O13_7 1_555 1_555
Zr6_2 O16_14 1_555 1_555
O13_7 Zr10_14 1_555 1_555
Zr10_14 O22_14 1_555 1_555
O16_15 Zr8_5 1_555 1_555
Zr5_8 O16_15 1_555 1_555
Zr7_8 O6_15 1_555 1_555
Zr10_15 O6_15 1_555 1_555
O17_8 Zr8_5 1_555 1_555
O18_8 Zr8_5 1_555 1_555
O19_8 Zr8_5 1_555 1_555
Zr8_5 O23_15 1_555 1_555
Zr5_8 O19_8 1_555 1_555
Zr5_8 O22_15 1_555 1_555
Zr7_8 O19_8 1_555 1_555
Zr7_8 O23_15 1_555 1_555
Zr10_15 O22_15 1_555 1_555
Zr1_8 O2_8 1_555 1_555
O2_8 Zr8_6 1_555 1_555
O4_8 Zr1_8 1_555 1_555
O5_8 Zr1_8 1_555 1_555
O6_16 Zr1_8 1_555 1_555
S2_8 C8_8 1_555 1_555
C7_8 C8_8 1_555 1_555
C8_8 C9_8 1_555 1_555
C9_8 H3_8 1_555 1_555
O9_8 C7_8 1_555 1_555
O10_8 C7_8 1_555 1_555
C10_8 C11_8 1_555 1_555
C11_8 S2_8 1_555 1_555
C12_8 C9_8 1_555 1_555
H4_8 C12_8 1_555 1_555
O11_8 Zr8_6 1_555 1_555
O12_8 Zr1_8 1_555 1_555
Zr6_3 O2_8 1_555 1_555
O13_8 Zr1_8 1_555 1_555
O14_8 Zr6_3 1_555 1_555
O15_8 Zr6_3 1_555 1_555
O16_16 Zr8_6 1_555 1_555
Zr6_8 O10_8 1_555 1_555
Zr9_5 O9_8 1_555 1_555
Zr10_16 O6_16 1_555 1_555
O20_8 Zr1_8 1_555 1_555
O21_8 Zr6_3 1_555 1_555
O22_16 Zr6_3 1_555 1_555
O23_16 Zr1_8 1_555 1_555
Zr8_6 O23_16 1_555 1_555
C10_8 O11_8 1_555 1_555
C10_8 O12_8 1_555 1_555
C11_8 C12_8 1_555 1_555
Zr6_3 O13_8 1_555 1_555
Zr6_3 O16_16 1_555 1_555
O13_8 Zr10_16 1_555 1_555
Zr10_16 O22_16 1_555 1_555
Zr4 O2_9 1_555 1_555
O2_9 Zr9 1_555 1_555
O4_9 Zr4 1_555 1_555
O5_9 Zr4 1_555 1_555
O6_17 Zr4 1_555 1_555
Zr6_5 O2_9 1_555 1_555
O13_9 Zr4 1_555 1_555
O14_9 Zr6_5 1_555 1_555
O15_9 Zr6_5 1_555 1_555
O16_17 Zr9 1_555 1_555
Zr10_17 O6_17 1_555 1_555
O20_9 Zr4 1_555 1_555
O21_9 Zr6_5 1_555 1_555
O22_17 Zr6_5 1_555 1_555
O23_17 Zr4 1_555 1_555
Zr9 O23_17 1_555 1_555
Zr6_5 O13_9 1_555 1_555
Zr6_5 O16_17 1_555 1_555
O13_9 Zr10_17 1_555 1_555
Zr10_17 O22_17 1_555 1_555
O16_18 Zr9_2 1_555 1_555
Zr5_9 O16_18 1_555 1_555
Zr7_9 O6_18 1_555 1_555
Zr10_18 O6_18 1_555 1_555
O17_9 Zr9_2 1_555 1_555
O18_9 Zr9_2 1_555 1_555
O19_9 Zr9_2 1_555 1_555
Zr9_2 O23_18 1_555 1_555
Zr5_9 O19_9 1_555 1_555
Zr5_9 O22_18 1_555 1_555
Zr7_9 O19_9 1_555 1_555
Zr7_9 O23_18 1_555 1_555
Zr10_18 O22_18 1_555 1_555
Zr4_3 O2_10 1_555 1_555
O2_10 Zr9_5 1_555 1_555
O4_10 Zr4_3 1_555 1_555
O5_10 Zr4_3 1_555 1_555
O6_19 Zr4_3 1_555 1_555
Zr6_8 O2_10 1_555 1_555
O13_10 Zr4_3 1_555 1_555
O14_10 Zr6_8 1_555 1_555
O15_10 Zr6_8 1_555 1_555
O16_19 Zr9_5 1_555 1_555
Zr10_19 O6_19 1_555 1_555
O20_10 Zr4_3 1_555 1_555
O21_10 Zr6_8 1_555 1_555
O22_19 Zr6_8 1_555 1_555
O23_19 Zr4_3 1_555 1_555
Zr9_5 O23_19 1_555 1_555
Zr6_8 O13_10 1_555 1_555
Zr6_8 O16_19 1_555 1_555
O13_10 Zr10_19 1_555 1_555
Zr10_19 O22_19 1_555 1_555
O16_20 Zr9_6 1_555 1_555
Zr5_10 O16_20 1_555 1_555
Zr7_10 O6_20 1_555 1_555
Zr10_20 O6_20 1_555 1_555
O17_10 Zr9_6 1_555 1_555
O18_10 Zr9_6 1_555 1_555
O19_10 Zr9_6 1_555 1_555
Zr9_6 O23_20 1_555 1_555
Zr5_10 O19_10 1_555 1_555
Zr5_10 O22_20 1_555 1_555
Zr7_10 O19_10 1_555 1_555
Zr7_10 O23_20 1_555 1_555
Zr10_20 O22_20 1_555 1_555
O16_21 Zr9_7 1_555 1_555
Zr5_11 O16_21 1_555 1_555
Zr7_11 O6_21 1_555 1_555
Zr10_21 O6_21 1_555 1_555
O17_11 Zr9_7 1_555 1_555
O18_11 Zr9_7 1_555 1_555
O19_11 Zr9_7 1_555 1_555
Zr9_7 O23_21 1_555 1_555
Zr5_11 O19_11 1_555 1_555
Zr5_11 O22_21 1_555 1_555
Zr7_11 O19_11 1_555 1_555
Zr7_11 O23_21 1_555 1_555
Zr10_21 O22_21 1_555 1_555
Zr4_4 O2_11 1_555 1_555
O2_11 Zr9_8 1_555 1_555
O4_11 Zr4_4 1_555 1_555
O5_11 Zr4_4 1_555 1_555
O6_22 Zr4_4 1_555 1_555
Zr6_6 O2_11 1_555 1_555
O13_11 Zr4_4 1_555 1_555
O14_11 Zr6_6 1_555 1_555
O15_11 Zr6_6 1_555 1_555
O16_22 Zr9_8 1_555 1_555
Zr10_22 O6_22 1_555 1_555
O20_11 Zr4_4 1_555 1_555
O21_11 Zr6_6 1_555 1_555
O22_22 Zr6_6 1_555 1_555
O23_22 Zr4_4 1_555 1_555
Zr9_8 O23_22 1_555 1_555
Zr6_6 O13_11 1_555 1_555
Zr6_6 O16_22 1_555 1_555
O13_11 Zr10_22 1_555 1_555
Zr10_22 O22_22 1_555 1_555
O16_23 Zr9_3 1_555 1_555
Zr5_12 O16_23 1_555 1_555
Zr7_12 O6_23 1_555 1_555
Zr10_23 O6_23 1_555 1_555
O17_12 Zr9_3 1_555 1_555
O18_12 Zr9_3 1_555 1_555
O19_12 Zr9_3 1_555 1_555
Zr9_3 O23_23 1_555 1_555
Zr5_12 O19_12 1_555 1_555
Zr5_12 O22_23 1_555 1_555
Zr7_12 O19_12 1_555 1_555
Zr7_12 O23_23 1_555 1_555
Zr10_23 O22_23 1_555 1_555
Zr4_2 O2_12 1_555 1_555
O2_12 Zr9_4 1_555 1_555
O4_12 Zr4_2 1_555 1_555
O5_12 Zr4_2 1_555 1_555
O6_24 Zr4_2 1_555 1_555
Zr6_7 O2_12 1_555 1_555
O13_12 Zr4_2 1_555 1_555
O14_12 Zr6_7 1_555 1_555
O15_12 Zr6_7 1_555 1_555
O16_24 Zr9_4 1_555 1_555
Zr10_24 O6_24 1_555 1_555
O20_12 Zr4_2 1_555 1_555
O21_12 Zr6_7 1_555 1_555
O22_24 Zr6_7 1_555 1_555
O23_24 Zr4_2 1_555 1_555
Zr9_4 O23_24 1_555 1_555
Zr6_7 O13_12 1_555 1_555
Zr6_7 O16_24 1_555 1_555
O13_12 Zr10_24 1_555 1_555
Zr10_24 O22_24 1_555 1_555
S1_5 C2_5 1_555 1_555
C1_5 C2_5 1_555 1_555
C2_5 C3_5 1_555 1_555
C3_5 H1_5 1_555 1_555
O17 C1_5 1_555 1_555
O3_5 C1_5 1_555 1_555
O4_13 Zr5 1_555 1_555
O5_13 Zr5 1_555 1_555
C4_5 C5_5 1_555 1_555
C5_5 S1_5 1_555 1_555
C6_5 C3_5 1_555 1_555
H2_5 C6_5 1_555 1_555
O18_8 C4_5 1_555 1_555
O8_5 C4_5 1_555 1_555
S2_9 C8_9 1_555 1_555
C7_9 C8_9 1_555 1_555
C8_9 C9_9 1_555 1_555
C9_9 H3_9 1_555 1_555
O17_11 C7_9 1_555 1_555
O10_9 C7_9 1_555 1_555
C10_9 C11_9 1_555 1_555
C11_9 S2_9 1_555 1_555
C12_9 C9_9 1_555 1_555
H4_9 C12_9 1_555 1_555
O12_9 Zr5 1_555 1_555
O13_13 Zr5 1_555 1_555
O14_13 Zr7 1_555 1_555
O15_13 Zr7 1_555 1_555
Zr5_8 O8_5 1_555 1_555
Zr7_11 O10_9 1_555 1_555
O20_13 Zr5 1_555 1_555
O21_13 Zr7 1_555 1_555
O3_5 Zr7 1_555 1_555
C5_5 C6_5 1_555 1_555
C10_9 O18 1_555 1_555
C10_9 O12_9 1_555 1_555
C11_9 C12_9 1_555 1_555
Zr7 O13_13 1_555 1_555
O13_13 Zr10_2 1_555 1_555
S1_6 C2_6 1_555 1_555
C1_6 C2_6 1_555 1_555
C2_6 C3_6 1_555 1_555
C3_6 H1_6 1_555 1_555
O17_2 C1_6 1_555 1_555
O3_6 C1_6 1_555 1_555
O4_14 Zr5_2 1_555 1_555
O5_14 Zr5_2 1_555 1_555
C4_6 C5_6 1_555 1_555
C5_6 S1_6 1_555 1_555
C6_6 C3_6 1_555 1_555
H2_6 C6_6 1_555 1_555
O18_6 C4_6 1_555 1_555
O8_6 C4_6 1_555 1_555
S2_10 C8_10 1_555 1_555
C7_10 C8_10 1_555 1_555
C8_10 C9_10 1_555 1_555
C9_10 H3_10 1_555 1_555
O17_10 C7_10 1_555 1_555
O10_10 C7_10 1_555 1_555
C10_10 C11_10 1_555 1_555
C11_10 S2_10 1_555 1_555
C12_10 C9_10 1_555 1_555
H4_10 C12_10 1_555 1_555
O12_10 Zr5_2 1_555 1_555
O13_14 Zr5_2 1_555 1_555
O14_14 Zr7_2 1_555 1_555
O15_14 Zr7_2 1_555 1_555
Zr5_6 O8_6 1_555 1_555
Zr7_10 O10_10 1_555 1_555
O20_14 Zr5_2 1_555 1_555
O21_14 Zr7_2 1_555 1_555
O3_6 Zr7_2 1_555 1_555
C5_6 C6_6 1_555 1_555
C10_10 O18_2 1_555 1_555
C10_10 O12_10 1_555 1_555
C11_10 C12_10 1_555 1_555
Zr7_2 O13_14 1_555 1_555
O13_14 Zr10_4 1_555 1_555
S1_7 C2_7 1_555 1_555
C1_7 C2_7 1_555 1_555
C2_7 C3_7 1_555 1_555
C3_7 H1_7 1_555 1_555
O17_4 C1_7 1_555 1_555
O3_7 C1_7 1_555 1_555
O4_15 Zr5_4 1_555 1_555
O5_15 Zr5_4 1_555 1_555
C4_7 C5_7 1_555 1_555
C5_7 S1_7 1_555 1_555
C6_7 C3_7 1_555 1_555
H2_7 C6_7 1_555 1_555
O18_7 C4_7 1_555 1_555
O8_7 C4_7 1_555 1_555
S2_11 C8_11 1_555 1_555
C7_11 C8_11 1_555 1_555
C8_11 C9_11 1_555 1_555
C9_11 H3_11 1_555 1_555
O17_9 C7_11 1_555 1_555
O10_11 C7_11 1_555 1_555
C10_11 C11_11 1_555 1_555
C11_11 S2_11 1_555 1_555
C12_11 C9_11 1_555 1_555
H4_11 C12_11 1_555 1_555
O12_11 Zr5_4 1_555 1_555
O13_15 Zr5_4 1_555 1_555
O14_15 Zr7_4 1_555 1_555
O15_15 Zr7_4 1_555 1_555
Zr5_7 O8_7 1_555 1_555
Zr7_9 O10_11 1_555 1_555
O20_15 Zr5_4 1_555 1_555
O21_15 Zr7_4 1_555 1_555
O3_7 Zr7_4 1_555 1_555
C5_7 C6_7 1_555 1_555
C10_11 O18_4 1_555 1_555
C10_11 O12_11 1_555 1_555
C11_11 C12_11 1_555 1_555
Zr7_4 O13_15 1_555 1_555
O13_15 Zr10_7 1_555 1_555
S1_8 C2_8 1_555 1_555
C1_8 C2_8 1_555 1_555
C2_8 C3_8 1_555 1_555
C3_8 H1_8 1_555 1_555
O17_3 C1_8 1_555 1_555
O3_8 C1_8 1_555 1_555
O4_16 Zr5_3 1_555 1_555
O5_16 Zr5_3 1_555 1_555
C4_8 C5_8 1_555 1_555
C5_8 S1_8 1_555 1_555
C6_8 C3_8 1_555 1_555
H2_8 C6_8 1_555 1_555
O18_5 C4_8 1_555 1_555
O8_8 C4_8 1_555 1_555
S2_12 C8_12 1_555 1_555
C7_12 C8_12 1_555 1_555
C8_12 C9_12 1_555 1_555
C9_12 H3_12 1_555 1_555
O17_12 C7_12 1_555 1_555
O10_12 C7_12 1_555 1_555
C10_12 C11_12 1_555 1_555
C11_12 S2_12 1_555 1_555
C12_12 C9_12 1_555 1_555
H4_12 C12_12 1_555 1_555
O12_12 Zr5_3 1_555 1_555
O13_16 Zr5_3 1_555 1_555
O14_16 Zr7_3 1_555 1_555
O15_16 Zr7_3 1_555 1_555
Zr5_5 O8_8 1_555 1_555
Zr7_12 O10_12 1_555 1_555
O20_16 Zr5_3 1_555 1_555
O21_16 Zr7_3 1_555 1_555
O3_8 Zr7_3 1_555 1_555
C5_8 C6_8 1_555 1_555
C10_12 O18_3 1_555 1_555
C10_12 O12_12 1_555 1_555
C11_12 C12_12 1_555 1_555
Zr7_3 O13_16 1_555 1_555
O13_16 Zr10_5 1_555 1_555
O4_17 Zr5_11 1_555 1_555
O5_17 Zr5_11 1_555 1_555
S2_13 C8_13 1_555 1_555
C7_13 C8_13 1_555 1_555
C8_13 C9_13 1_555 1_555
C9_13 H3_13 1_555 1_555
O17_8 C7_13 1_555 1_555
O10_13 C7_13 1_555 1_555
C10_13 C11_13 1_555 1_555
C11_13 S2_13 1_555 1_555
C12_13 C9_13 1_555 1_555
H4_13 C12_13 1_555 1_555
O12_13 Zr5_11 1_555 1_555
O13_17 Zr5_11 1_555 1_555
O14_17 Zr7_11 1_555 1_555
O15_17 Zr7_11 1_555 1_555
Zr7_8 O10_13 1_555 1_555
O20_17 Zr5_11 1_555 1_555
O21_17 Zr7_11 1_555 1_555
C10_13 O18_11 1_555 1_555
C10_13 O12_13 1_555 1_555
C11_13 C12_13 1_555 1_555
Zr7_11 O13_17 1_555 1_555
O13_17 Zr10_21 1_555 1_555
O4_18 Zr5_12 1_555 1_555
O5_18 Zr5_12 1_555 1_555
S2_14 C8_14 1_555 1_555
C7_14 C8_14 1_555 1_555
C8_14 C9_14 1_555 1_555
C9_14 H3_14 1_555 1_555
O17_5 C7_14 1_555 1_555
O10_14 C7_14 1_555 1_555
C10_14 C11_14 1_555 1_555
C11_14 S2_14 1_555 1_555
C12_14 C9_14 1_555 1_555
H4_14 C12_14 1_555 1_555
O12_14 Zr5_12 1_555 1_555
O13_18 Zr5_12 1_555 1_555
O14_18 Zr7_12 1_555 1_555
O15_18 Zr7_12 1_555 1_555
Zr7_5 O10_14 1_555 1_555
O20_18 Zr5_12 1_555 1_555
O21_18 Zr7_12 1_555 1_555
C10_14 O18_12 1_555 1_555
C10_14 O12_14 1_555 1_555
C11_14 C12_14 1_555 1_555
Zr7_12 O13_18 1_555 1_555
O13_18 Zr10_23 1_555 1_555
O4_19 Zr5_10 1_555 1_555
O5_19 Zr5_10 1_555 1_555
S2_15 C8_15 1_555 1_555
C7_15 C8_15 1_555 1_555
C8_15 C9_15 1_555 1_555
C9_15 H3_15 1_555 1_555
O17_6 C7_15 1_555 1_555
O10_15 C7_15 1_555 1_555
C10_15 C11_15 1_555 1_555
C11_15 S2_15 1_555 1_555
C12_15 C9_15 1_555 1_555
H4_15 C12_15 1_555 1_555
O12_15 Zr5_10 1_555 1_555
O13_19 Zr5_10 1_555 1_555
O14_19 Zr7_10 1_555 1_555
O15_19 Zr7_10 1_555 1_555
Zr7_6 O10_15 1_555 1_555
O20_19 Zr5_10 1_555 1_555
O21_19 Zr7_10 1_555 1_555
C10_15 O18_10 1_555 1_555
C10_15 O12_15 1_555 1_555
C11_15 C12_15 1_555 1_555
Zr7_10 O13_19 1_555 1_555
O13_19 Zr10_20 1_555 1_555
O4_20 Zr5_9 1_555 1_555
O5_20 Zr5_9 1_555 1_555
S2_16 C8_16 1_555 1_555
C7_16 C8_16 1_555 1_555
C8_16 C9_16 1_555 1_555
C9_16 H3_16 1_555 1_555
O17_7 C7_16 1_555 1_555
O10_16 C7_16 1_555 1_555
C10_16 C11_16 1_555 1_555
C11_16 S2_16 1_555 1_555
C12_16 C9_16 1_555 1_555
H4_16 C12_16 1_555 1_555
O12_16 Zr5_9 1_555 1_555
O13_20 Zr5_9 1_555 1_555
O14_20 Zr7_9 1_555 1_555
O15_20 Zr7_9 1_555 1_555
Zr7_7 O10_16 1_555 1_555
O20_20 Zr5_9 1_555 1_555
O21_20 Zr7_9 1_555 1_555
C10_16 O18_9 1_555 1_555
C10_16 O12_16 1_555 1_555
C11_16 C12_16 1_555 1_555
Zr7_9 O13_20 1_555 1_555
O13_20 Zr10_18 1_555 1_555
O4_21 Zr5_8 1_555 1_555
O5_21 Zr5_8 1_555 1_555
O13_21 Zr5_8 1_555 1_555
O14_21 Zr7_8 1_555 1_555
O15_21 Zr7_8 1_555 1_555
O20_21 Zr5_8 1_555 1_555
O21_21 Zr7_8 1_555 1_555
Zr7_8 O13_21 1_555 1_555
O13_21 Zr10_15 1_555 1_555
O4_22 Zr5_7 1_555 1_555
O5_22 Zr5_7 1_555 1_555
O13_22 Zr5_7 1_555 1_555
O14_22 Zr7_7 1_555 1_555
O15_22 Zr7_7 1_555 1_555
O20_22 Zr5_7 1_555 1_555
O21_22 Zr7_7 1_555 1_555
Zr7_7 O13_22 1_555 1_555
O13_22 Zr10_13 1_555 1_555
O4_23 Zr5_5 1_555 1_555
O5_23 Zr5_5 1_555 1_555
O13_23 Zr5_5 1_555 1_555
O14_23 Zr7_5 1_555 1_555
O15_23 Zr7_5 1_555 1_555
O20_23 Zr5_5 1_555 1_555
O21_23 Zr7_5 1_555 1_555
Zr7_5 O13_23 1_555 1_555
O13_23 Zr10_10 1_555 1_555
O4_24 Zr5_6 1_555 1_555
O5_24 Zr5_6 1_555 1_555
O13_24 Zr5_6 1_555 1_555
O14_24 Zr7_6 1_555 1_555
O15_24 Zr7_6 1_555 1_555
O20_24 Zr5_6 1_555 1_555
O21_24 Zr7_6 1_555 1_555
Zr7_6 O13_24 1_555 1_555
O13_24 Zr10_12 1_555 1_555
Zr1_9 O2_13 1_555 1_555
Zr2_9 O1_5 1_555 1_555
S1_9 C2_9 1_555 1_555
C1_9 C2_9 1_555 1_555
C2_9 C3_9 1_555 1_555
C3_9 H1_9 1_555 1_555
O1_5 C1_9 1_555 1_555
O2_13 Zr2_9 1_555 1_555
O3_9 C1_9 1_555 1_555
O4_25 Zr1_9 1_555 1_555
O5_25 Zr1_9 1_555 1_555
O6_25 Zr1_9 1_555 1_555
C4_9 C5_9 1_555 1_555
C5_9 S1_9 1_555 1_555
C6_9 C3_9 1_555 1_555
H2_9 C6_9 1_555 1_555
O7_5 C4_9 1_555 1_555
O8_9 C4_9 1_555 1_555
S2_17 C8_17 1_555 1_555
C7_17 C8_17 1_555 1_555
C8_17 C9_17 1_555 1_555
C9_17 H3_17 1_555 1_555
O9_9 C7_17 1_555 1_555
O20_6 C7_17 1_555 1_555
C10_17 C11_17 1_555 1_555
C11_17 S2_17 1_555 1_555
C12_17 C9_17 1_555 1_555
H4_17 C12_17 1_555 1_555
O11_9 Zr2_9 1_555 1_555
O12_17 Zr1_9 1_555 1_555
Zr3_5 O2_13 1_555 1_555
O13_25 Zr1_9 1_555 1_555
O14_25 Zr3_5 1_555 1_555
O15_25 Zr3_5 1_555 1_555
O16_25 Zr2_9 1_555 1_555
Zr4_5 O8_9 1_555 1_555
Zr5_13 O16_25 1_555 1_555
Zr7_13 O6_25 1_555 1_555
Zr10_11 O9_9 1_555 1_555
Zr9_9 O7_5 1_555 1_555
Zr10_25 O6_25 1_555 1_555
O17_13 Zr2_9 1_555 1_555
O18_13 Zr2_9 1_555 1_555
O19_13 Zr2_9 1_555 1_555
O20_25 Zr1_9 1_555 1_555
O21_25 Zr3_5 1_555 1_555
O22_25 Zr3_5 1_555 1_555
O23_25 Zr1_9 1_555 1_555
Zr2_9 O23_25 1_555 1_555
O3_9 Zr3_5 1_555 1_555
C5_9 C6_9 1_555 1_555
C10_17 O11_9 1_555 1_555
C10_17 O12_17 1_555 1_555
C11_17 C12_17 1_555 1_555
Zr3_5 O13_25 1_555 1_555
Zr3_5 O16_25 1_555 1_555
O13_25 Zr10_25 1_555 1_555
Zr5_13 O19_13 1_555 1_555
Zr5_13 O22_25 1_555 1_555
Zr7_13 O19_13 1_555 1_555
Zr7_13 O23_25 1_555 1_555
Zr10_25 O22_25 1_555 1_555
Zr1_10 O2_14 1_555 1_555
Zr2_10 O1_6 1_555 1_555
S1_10 C2_10 1_555 1_555
C1_10 C2_10 1_555 1_555
C2_10 C3_10 1_555 1_555
C3_10 H1_10 1_555 1_555
O1_6 C1_10 1_555 1_555
O2_14 Zr2_10 1_555 1_555
O3_10 C1_10 1_555 1_555
O4_26 Zr1_10 1_555 1_555
O5_26 Zr1_10 1_555 1_555
O6_26 Zr1_10 1_555 1_555
C4_10 C5_10 1_555 1_555
C5_10 S1_10 1_555 1_555
C6_10 C3_10 1_555 1_555
H2_10 C6_10 1_555 1_555
O7_6 C4_10 1_555 1_555
O8_10 C4_10 1_555 1_555
S2_18 C8_18 1_555 1_555
C7_18 C8_18 1_555 1_555
C8_18 C9_18 1_555 1_555
C9_18 H3_18 1_555 1_555
O9_10 C7_18 1_555 1_555
O20_8 C7_18 1_555 1_555
C10_18 C11_18 1_555 1_555
C11_18 S2_18 1_555 1_555
C12_18 C9_18 1_555 1_555
H4_18 C12_18 1_555 1_555
O11_10 Zr2_10 1_555 1_555
O12_18 Zr1_10 1_555 1_555
Zr3_6 O2_14 1_555 1_555
O13_26 Zr1_10 1_555 1_555
O14_26 Zr3_6 1_555 1_555
O15_26 Zr3_6 1_555 1_555
O16_26 Zr2_10 1_555 1_555
Zr4_6 O8_10 1_555 1_555
Zr5_14 O16_26 1_555 1_555
Zr7_14 O6_26 1_555 1_555
Zr10_16 O9_10 1_555 1_555
Zr9_10 O7_6 1_555 1_555
Zr10_26 O6_26 1_555 1_555
O17_14 Zr2_10 1_555 1_555
O18_14 Zr2_10 1_555 1_555
O19_14 Zr2_10 1_555 1_555
O20_26 Zr1_10 1_555 1_555
O21_26 Zr3_6 1_555 1_555
O22_26 Zr3_6 1_555 1_555
O23_26 Zr1_10 1_555 1_555
Zr2_10 O23_26 1_555 1_555
O3_10 Zr3_6 1_555 1_555
C5_10 C6_10 1_555 1_555
C10_18 O11_10 1_555 1_555
C10_18 O12_18 1_555 1_555
C11_18 C12_18 1_555 1_555
Zr3_6 O13_26 1_555 1_555
Zr3_6 O16_26 1_555 1_555
O13_26 Zr10_26 1_555 1_555
Zr5_14 O19_14 1_555 1_555
Zr5_14 O22_26 1_555 1_555
Zr7_14 O19_14 1_555 1_555
Zr7_14 O23_26 1_555 1_555
Zr10_26 O22_26 1_555 1_555
Zr1_11 O2_15 1_555 1_555
Zr2_11 O1_7 1_555 1_555
S1_11 C2_11 1_555 1_555
C1_11 C2_11 1_555 1_555
C2_11 C3_11 1_555 1_555
C3_11 H1_11 1_555 1_555
O1_7 C1_11 1_555 1_555
O2_15 Zr2_11 1_555 1_555
O3_11 C1_11 1_555 1_555
O4_27 Zr1_11 1_555 1_555
O5_27 Zr1_11 1_555 1_555
O6_27 Zr1_11 1_555 1_555
C4_11 C5_11 1_555 1_555
C5_11 S1_11 1_555 1_555
C6_11 C3_11 1_555 1_555
H2_11 C6_11 1_555 1_555
O7_7 C4_11 1_555 1_555
O8_11 C4_11 1_555 1_555
S2_19 C8_19 1_555 1_555
C7_19 C8_19 1_555 1_555
C8_19 C9_19 1_555 1_555
C9_19 H3_19 1_555 1_555
O9_11 C7_19 1_555 1_555
O20_7 C7_19 1_555 1_555
C10_19 C11_19 1_555 1_555
C11_19 S2_19 1_555 1_555
C12_19 C9_19 1_555 1_555
H4_19 C12_19 1_555 1_555
O11_11 Zr2_11 1_555 1_555
O12_19 Zr1_11 1_555 1_555
Zr3_7 O2_15 1_555 1_555
O13_27 Zr1_11 1_555 1_555
O14_27 Zr3_7 1_555 1_555
O15_27 Zr3_7 1_555 1_555
O16_27 Zr2_11 1_555 1_555
Zr4_7 O8_11 1_555 1_555
Zr5_15 O16_27 1_555 1_555
Zr7_15 O6_27 1_555 1_555
Zr10_14 O9_11 1_555 1_555
Zr9_11 O7_7 1_555 1_555
Zr10_27 O6_27 1_555 1_555
O17_15 Zr2_11 1_555 1_555
O18_15 Zr2_11 1_555 1_555
O19_15 Zr2_11 1_555 1_555
O20_27 Zr1_11 1_555 1_555
O21_27 Zr3_7 1_555 1_555
O22_27 Zr3_7 1_555 1_555
O23_27 Zr1_11 1_555 1_555
Zr2_11 O23_27 1_555 1_555
O3_11 Zr3_7 1_555 1_555
C5_11 C6_11 1_555 1_555
C10_19 O11_11 1_555 1_555
C10_19 O12_19 1_555 1_555
C11_19 C12_19 1_555 1_555
Zr3_7 O13_27 1_555 1_555
Zr3_7 O16_27 1_555 1_555
O13_27 Zr10_27 1_555 1_555
Zr5_15 O19_15 1_555 1_555
Zr5_15 O22_27 1_555 1_555
Zr7_15 O19_15 1_555 1_555
Zr7_15 O23_27 1_555 1_555
Zr10_27 O22_27 1_555 1_555
Zr1_12 O2_16 1_555 1_555
Zr2_12 O1_8 1_555 1_555
S1_12 C2_12 1_555 1_555
C1_12 C2_12 1_555 1_555
C2_12 C3_12 1_555 1_555
C3_12 H1_12 1_555 1_555
O1_8 C1_12 1_555 1_555
O2_16 Zr2_12 1_555 1_555
O3_12 C1_12 1_555 1_555
O4_28 Zr1_12 1_555 1_555
O5_28 Zr1_12 1_555 1_555
O6_28 Zr1_12 1_555 1_555
C4_12 C5_12 1_555 1_555
C5_12 S1_12 1_555 1_555
C6_12 C3_12 1_555 1_555
H2_12 C6_12 1_555 1_555
O7_8 C4_12 1_555 1_555
O8_12 C4_12 1_555 1_555
S2_20 C8_20 1_555 1_555
C7_20 C8_20 1_555 1_555
C8_20 C9_20 1_555 1_555
C9_20 H3_20 1_555 1_555
O9_12 C7_20 1_555 1_555
O20_5 C7_20 1_555 1_555
C10_20 C11_20 1_555 1_555
C11_20 S2_20 1_555 1_555
C12_20 C9_20 1_555 1_555
H4_20 C12_20 1_555 1_555
O11_12 Zr2_12 1_555 1_555
O12_20 Zr1_12 1_555 1_555
Zr3_8 O2_16 1_555 1_555
O13_28 Zr1_12 1_555 1_555
O14_28 Zr3_8 1_555 1_555
O15_28 Zr3_8 1_555 1_555
O16_28 Zr2_12 1_555 1_555
Zr4_8 O8_12 1_555 1_555
Zr5_16 O16_28 1_555 1_555
Zr7_16 O6_28 1_555 1_555
Zr10_9 O9_12 1_555 1_555
Zr9_12 O7_8 1_555 1_555
Zr10_28 O6_28 1_555 1_555
O17_16 Zr2_12 1_555 1_555
O18_16 Zr2_12 1_555 1_555
O19_16 Zr2_12 1_555 1_555
O20_28 Zr1_12 1_555 1_555
O21_28 Zr3_8 1_555 1_555
O22_28 Zr3_8 1_555 1_555
O23_28 Zr1_12 1_555 1_555
Zr2_12 O23_28 1_555 1_555
O3_12 Zr3_8 1_555 1_555
C5_12 C6_12 1_555 1_555
C10_20 O11_12 1_555 1_555
C10_20 O12_20 1_555 1_555
C11_20 C12_20 1_555 1_555
Zr3_8 O13_28 1_555 1_555
Zr3_8 O16_28 1_555 1_555
O13_28 Zr10_28 1_555 1_555
Zr5_16 O19_16 1_555 1_555
Zr5_16 O22_28 1_555 1_555
Zr7_16 O19_16 1_555 1_555
Zr7_16 O23_28 1_555 1_555
Zr10_28 O22_28 1_555 1_555
S2_21 C8_21 1_555 1_555
C7_21 C8_21 1_555 1_555
C8_21 C9_21 1_555 1_555
C9_21 H3_21 1_555 1_555
O9_13 C7_21 1_555 1_555
O10_17 C7_21 1_555 1_555
C10_21 C11_21 1_555 1_555
C11_21 S2_21 1_555 1_555
C12_21 C9_21 1_555 1_555
H4_21 C12_21 1_555 1_555
O11_13 Zr10_11 1_555 1_555
Zr6_9 O10_17 1_555 1_555
Zr9_9 O9_13 1_555 1_555
C10_21 O11_13 1_555 1_555
C10_21 O21_6 1_555 1_555
C11_21 C12_21 1_555 1_555
O17_17 Zr10_12 1_555 1_555
O18_17 Zr10_12 1_555 1_555
S2_22 C8_22 1_555 1_555
C7_22 C8_22 1_555 1_555
C8_22 C9_22 1_555 1_555
C9_22 H3_22 1_555 1_555
O9_14 C7_22 1_555 1_555
O10_18 C7_22 1_555 1_555
C10_22 C11_22 1_555 1_555
C11_22 S2_22 1_555 1_555
C12_22 C9_22 1_555 1_555
H4_22 C12_22 1_555 1_555
O11_14 Zr10_9 1_555 1_555
Zr6_10 O10_18 1_555 1_555
Zr9_12 O9_14 1_555 1_555
C10_22 O11_14 1_555 1_555
C10_22 O21_5 1_555 1_555
C11_22 C12_22 1_555 1_555
O17_18 Zr10_10 1_555 1_555
O18_18 Zr10_10 1_555 1_555
O17_19 Zr10_15 1_555 1_555
O18_19 Zr10_15 1_555 1_555
S2_23 C8_23 1_555 1_555
C7_23 C8_23 1_555 1_555
C8_23 C9_23 1_555 1_555
C9_23 H3_23 1_555 1_555
O9_15 C7_23 1_555 1_555
O10_19 C7_23 1_555 1_555
C10_23 C11_23 1_555 1_555
C11_23 S2_23 1_555 1_555
C12_23 C9_23 1_555 1_555
H4_23 C12_23 1_555 1_555
O11_15 Zr10_16 1_555 1_555
Zr6_11 O10_19 1_555 1_555
Zr9_10 O9_15 1_555 1_555
C10_23 O11_15 1_555 1_555
C10_23 O21_8 1_555 1_555
C11_23 C12_23 1_555 1_555
O17_20 Zr10_13 1_555 1_555
O18_20 Zr10_13 1_555 1_555
S2_24 C8_24 1_555 1_555
C7_24 C8_24 1_555 1_555
C8_24 C9_24 1_555 1_555
C9_24 H3_24 1_555 1_555
O9_16 C7_24 1_555 1_555
O10_20 C7_24 1_555 1_555
C10_24 C11_24 1_555 1_555
C11_24 S2_24 1_555 1_555
C12_24 C9_24 1_555 1_555
H4_24 C12_24 1_555 1_555
O11_16 Zr10_14 1_555 1_555
Zr6_12 O10_20 1_555 1_555
Zr9_11 O9_16 1_555 1_555
C10_24 O11_16 1_555 1_555
C10_24 O21_7 1_555 1_555
C11_24 C12_24 1_555 1_555
Zr4_5 O2_17 1_555 1_555
O2_17 Zr9_9 1_555 1_555
O4_29 Zr4_5 1_555 1_555
O5_29 Zr4_5 1_555 1_555
O6_29 Zr4_5 1_555 1_555
Zr6_9 O2_17 1_555 1_555
O13_29 Zr4_5 1_555 1_555
O14_29 Zr6_9 1_555 1_555
O15_29 Zr6_9 1_555 1_555
O16_29 Zr9_9 1_555 1_555
Zr5_17 O16_29 1_555 1_555
Zr7_17 O6_29 1_555 1_555
Zr10_29 O6_29 1_555 1_555
O17_21 Zr9_9 1_555 1_555
O18_21 Zr9_9 1_555 1_555
O19_17 Zr9_9 1_555 1_555
O20_29 Zr4_5 1_555 1_555
O21_29 Zr6_9 1_555 1_555
O22_29 Zr6_9 1_555 1_555
O23_29 Zr4_5 1_555 1_555
Zr9_9 O23_29 1_555 1_555
Zr6_9 O13_29 1_555 1_555
Zr6_9 O16_29 1_555 1_555
O13_29 Zr10_29 1_555 1_555
Zr5_17 O19_17 1_555 1_555
Zr5_17 O22_29 1_555 1_555
Zr7_17 O19_17 1_555 1_555
Zr7_17 O23_29 1_555 1_555
Zr10_29 O22_29 1_555 1_555
Zr4_7 O2_18 1_555 1_555
O2_18 Zr9_11 1_555 1_555
O4_30 Zr4_7 1_555 1_555
O5_30 Zr4_7 1_555 1_555
O6_30 Zr4_7 1_555 1_555
Zr6_12 O2_18 1_555 1_555
O13_30 Zr4_7 1_555 1_555
O14_30 Zr6_12 1_555 1_555
O15_30 Zr6_12 1_555 1_555
O16_30 Zr9_11 1_555 1_555
Zr5_18 O16_30 1_555 1_555
Zr7_18 O6_30 1_555 1_555
Zr10_30 O6_30 1_555 1_555
O17_22 Zr9_11 1_555 1_555
O18_22 Zr9_11 1_555 1_555
O19_18 Zr9_11 1_555 1_555
O20_30 Zr4_7 1_555 1_555
O21_30 Zr6_12 1_555 1_555
O22_30 Zr6_12 1_555 1_555
O23_30 Zr4_7 1_555 1_555
Zr9_11 O23_30 1_555 1_555
Zr6_12 O13_30 1_555 1_555
Zr6_12 O16_30 1_555 1_555
O13_30 Zr10_30 1_555 1_555
Zr5_18 O19_18 1_555 1_555
Zr5_18 O22_30 1_555 1_555
Zr7_18 O19_18 1_555 1_555
Zr7_18 O23_30 1_555 1_555
Zr10_30 O22_30 1_555 1_555
Zr4_8 O2_19 1_555 1_555
O2_19 Zr9_12 1_555 1_555
O4_31 Zr4_8 1_555 1_555
O5_31 Zr4_8 1_555 1_555
O6_31 Zr4_8 1_555 1_555
Zr6_10 O2_19 1_555 1_555
O13_31 Zr4_8 1_555 1_555
O14_31 Zr6_10 1_555 1_555
O15_31 Zr6_10 1_555 1_555
O16_31 Zr9_12 1_555 1_555
Zr5_19 O16_31 1_555 1_555
Zr7_19 O6_31 1_555 1_555
Zr10_31 O6_31 1_555 1_555
O17_23 Zr9_12 1_555 1_555
O18_23 Zr9_12 1_555 1_555
O19_19 Zr9_12 1_555 1_555
O20_31 Zr4_8 1_555 1_555
O21_31 Zr6_10 1_555 1_555
O22_31 Zr6_10 1_555 1_555
O23_31 Zr4_8 1_555 1_555
Zr9_12 O23_31 1_555 1_555
Zr6_10 O13_31 1_555 1_555
Zr6_10 O16_31 1_555 1_555
O13_31 Zr10_31 1_555 1_555
Zr5_19 O19_19 1_555 1_555
Zr5_19 O22_31 1_555 1_555
Zr7_19 O19_19 1_555 1_555
Zr7_19 O23_31 1_555 1_555
Zr10_31 O22_31 1_555 1_555
Zr4_6 O2_20 1_555 1_555
O2_20 Zr9_10 1_555 1_555
O4_32 Zr4_6 1_555 1_555
O5_32 Zr4_6 1_555 1_555
O6_32 Zr4_6 1_555 1_555
Zr6_11 O2_20 1_555 1_555
O13_32 Zr4_6 1_555 1_555
O14_32 Zr6_11 1_555 1_555
O15_32 Zr6_11 1_555 1_555
O16_32 Zr9_10 1_555 1_555
Zr5_20 O16_32 1_555 1_555
Zr7_20 O6_32 1_555 1_555
Zr10_32 O6_32 1_555 1_555
O17_24 Zr9_10 1_555 1_555
O18_24 Zr9_10 1_555 1_555
O19_20 Zr9_10 1_555 1_555
O20_32 Zr4_6 1_555 1_555
O21_32 Zr6_11 1_555 1_555
O22_32 Zr6_11 1_555 1_555
O23_32 Zr4_6 1_555 1_555
Zr9_10 O23_32 1_555 1_555
Zr6_11 O13_32 1_555 1_555
Zr6_11 O16_32 1_555 1_555
O13_32 Zr10_32 1_555 1_555
Zr5_20 O19_20 1_555 1_555
Zr5_20 O22_32 1_555 1_555
Zr7_20 O19_20 1_555 1_555
Zr7_20 O23_32 1_555 1_555
Zr10_32 O22_32 1_555 1_555
S1_13 C2_13 1_555 1_555
C1_13 C2_13 1_555 1_555
C2_13 C3_13 1_555 1_555
C3_13 H1_13 1_555 1_555
O17_13 C1_13 1_555 1_555
O3_13 C1_13 1_555 1_555
O4_33 Zr5_13 1_555 1_555
O5_33 Zr5_13 1_555 1_555
C4_13 C5_13 1_555 1_555
C5_13 S1_13 1_555 1_555
C6_13 C3_13 1_555 1_555
H2_13 C6_13 1_555 1_555
O18_20 C4_13 1_555 1_555
O21_22 C4_13 1_555 1_555
S2_25 C8_25 1_555 1_555
C7_25 C8_25 1_555 1_555
C8_25 C9_25 1_555 1_555
C9_25 H3_25 1_555 1_555
O17_23 C7_25 1_555 1_555
O10_21 C7_25 1_555 1_555
C10_25 C11_25 1_555 1_555
C11_25 S2_25 1_555 1_555
C12_25 C9_25 1_555 1_555
H4_25 C12_25 1_555 1_555
O12_21 Zr5_13 1_555 1_555
O13_33 Zr5_13 1_555 1_555
O14_33 Zr7_13 1_555 1_555
O15_33 Zr7_13 1_555 1_555
Zr7_19 O10_21 1_555 1_555
O20_33 Zr5_13 1_555 1_555
O21_33 Zr7_13 1_555 1_555
O3_13 Zr7_13 1_555 1_555
C5_13 C6_13 1_555 1_555
C10_25 O18_13 1_555 1_555
C10_25 O12_21 1_555 1_555
C11_25 C12_25 1_555 1_555
Zr7_13 O13_33 1_555 1_555
O13_33 Zr10_25 1_555 1_555
S1_14 C2_14 1_555 1_555
C1_14 C2_14 1_555 1_555
C2_14 C3_14 1_555 1_555
C3_14 H1_14 1_555 1_555
O17_14 C1_14 1_555 1_555
O3_14 C1_14 1_555 1_555
O4_34 Zr5_14 1_555 1_555
O5_34 Zr5_14 1_555 1_555
C4_14 C5_14 1_555 1_555
C5_14 S1_14 1_555 1_555
C6_14 C3_14 1_555 1_555
H2_14 C6_14 1_555 1_555
O18_18 C4_14 1_555 1_555
O21_23 C4_14 1_555 1_555
S2_26 C8_26 1_555 1_555
C7_26 C8_26 1_555 1_555
C8_26 C9_26 1_555 1_555
C9_26 H3_26 1_555 1_555
O17_22 C7_26 1_555 1_555
O10_22 C7_26 1_555 1_555
C10_26 C11_26 1_555 1_555
C11_26 S2_26 1_555 1_555
C12_26 C9_26 1_555 1_555
H4_26 C12_26 1_555 1_555
O12_22 Zr5_14 1_555 1_555
O13_34 Zr5_14 1_555 1_555
O14_34 Zr7_14 1_555 1_555
O15_34 Zr7_14 1_555 1_555
Zr7_18 O10_22 1_555 1_555
O20_34 Zr5_14 1_555 1_555
O21_34 Zr7_14 1_555 1_555
O3_14 Zr7_14 1_555 1_555
C5_14 C6_14 1_555 1_555
C10_26 O18_14 1_555 1_555
C10_26 O12_22 1_555 1_555
C11_26 C12_26 1_555 1_555
Zr7_14 O13_34 1_555 1_555
O13_34 Zr10_26 1_555 1_555
S1_15 C2_15 1_555 1_555
C1_15 C2_15 1_555 1_555
C2_15 C3_15 1_555 1_555
C3_15 H1_15 1_555 1_555
O17_16 C1_15 1_555 1_555
O3_15 C1_15 1_555 1_555
O4_35 Zr5_16 1_555 1_555
O5_35 Zr5_16 1_555 1_555
C4_15 C5_15 1_555 1_555
C5_15 S1_15 1_555 1_555
C6_15 C3_15 1_555 1_555
H2_15 C6_15 1_555 1_555
O18_19 C4_15 1_555 1_555
O21_21 C4_15 1_555 1_555
S2_27 C8_27 1_555 1_555
C7_27 C8_27 1_555 1_555
C8_27 C9_27 1_555 1_555
C9_27 H3_27 1_555 1_555
O17_21 C7_27 1_555 1_555
O10_23 C7_27 1_555 1_555
C10_27 C11_27 1_555 1_555
C11_27 S2_27 1_555 1_555
C12_27 C9_27 1_555 1_555
H4_27 C12_27 1_555 1_555
O12_23 Zr5_16 1_555 1_555
O13_35 Zr5_16 1_555 1_555
O14_35 Zr7_16 1_555 1_555
O15_35 Zr7_16 1_555 1_555
Zr7_17 O10_23 1_555 1_555
O20_35 Zr5_16 1_555 1_555
O21_35 Zr7_16 1_555 1_555
O3_15 Zr7_16 1_555 1_555
C5_15 C6_15 1_555 1_555
C10_27 O18_16 1_555 1_555
C10_27 O12_23 1_555 1_555
C11_27 C12_27 1_555 1_555
Zr7_16 O13_35 1_555 1_555
O13_35 Zr10_28 1_555 1_555
S1_16 C2_16 1_555 1_555
C1_16 C2_16 1_555 1_555
C2_16 C3_16 1_555 1_555
C3_16 H1_16 1_555 1_555
O17_15 C1_16 1_555 1_555
O3_16 C1_16 1_555 1_555
O4_36 Zr5_15 1_555 1_555
O5_36 Zr5_15 1_555 1_555
C4_16 C5_16 1_555 1_555
C5_16 S1_16 1_555 1_555
C6_16 C3_16 1_555 1_555
H2_16 C6_16 1_555 1_555
O18_17 C4_16 1_555 1_555
O21_24 C4_16 1_555 1_555
S2_28 C8_28 1_555 1_555
C7_28 C8_28 1_555 1_555
C8_28 C9_28 1_555 1_555
C9_28 H3_28 1_555 1_555
O17_24 C7_28 1_555 1_555
O10_24 C7_28 1_555 1_555
C10_28 C11_28 1_555 1_555
C11_28 S2_28 1_555 1_555
C12_28 C9_28 1_555 1_555
H4_28 C12_28 1_555 1_555
O12_24 Zr5_15 1_555 1_555
O13_36 Zr5_15 1_555 1_555
O14_36 Zr7_15 1_555 1_555
O15_36 Zr7_15 1_555 1_555
Zr7_20 O10_24 1_555 1_555
O20_36 Zr5_15 1_555 1_555
O21_36 Zr7_15 1_555 1_555
O3_16 Zr7_15 1_555 1_555
C5_16 C6_16 1_555 1_555
C10_28 O18_15 1_555 1_555
C10_28 O12_24 1_555 1_555
C11_28 C12_28 1_555 1_555
Zr7_15 O13_36 1_555 1_555
O13_36 Zr10_27 1_555 1_555
O4_37 Zr5_19 1_555 1_555
O5_37 Zr5_19 1_555 1_555
S2_29 C8_29 1_555 1_555
C7_29 C8_29 1_555 1_555
C8_29 C9_29 1_555 1_555
C9_29 H3_29 1_555 1_555
O17_20 C7_29 1_555 1_555
O20_22 C7_29 1_555 1_555
C10_29 C11_29 1_555 1_555
C11_29 S2_29 1_555 1_555
C12_29 C9_29 1_555 1_555
H4_29 C12_29 1_555 1_555
O12_25 Zr5_19 1_555 1_555
O13_37 Zr5_19 1_555 1_555
O14_37 Zr7_19 1_555 1_555
O15_37 Zr7_19 1_555 1_555
O20_37 Zr5_19 1_555 1_555
O21_37 Zr7_19 1_555 1_555
C10_29 O18_23 1_555 1_555
C10_29 O12_25 1_555 1_555
C11_29 C12_29 1_555 1_555
Zr7_19 O13_37 1_555 1_555
O13_37 Zr10_31 1_555 1_555
O4_38 Zr5_20 1_555 1_555
O5_38 Zr5_20 1_555 1_555
S2_30 C8_30 1_555 1_555
C7_30 C8_30 1_555 1_555
C8_30 C9_30 1_555 1_555
C9_30 H3_30 1_555 1_555
O17_17 C7_30 1_555 1_555
O20_24 C7_30 1_555 1_555
C10_30 C11_30 1_555 1_555
C11_30 S2_30 1_555 1_555
C12_30 C9_30 1_555 1_555
H4_30 C12_30 1_555 1_555
O12_26 Zr5_20 1_555 1_555
O13_38 Zr5_20 1_555 1_555
O14_38 Zr7_20 1_555 1_555
O15_38 Zr7_20 1_555 1_555
O20_38 Zr5_20 1_555 1_555
O21_38 Zr7_20 1_555 1_555
C10_30 O18_24 1_555 1_555
C10_30 O12_26 1_555 1_555
C11_30 C12_30 1_555 1_555
Zr7_20 O13_38 1_555 1_555
O13_38 Zr10_32 1_555 1_555
O4_39 Zr5_18 1_555 1_555
O5_39 Zr5_18 1_555 1_555
S2_31 C8_31 1_555 1_555
C7_31 C8_31 1_555 1_555
C8_31 C9_31 1_555 1_555
C9_31 H3_31 1_555 1_555
O17_18 C7_31 1_555 1_555
O20_23 C7_31 1_555 1_555
C10_31 C11_31 1_555 1_555
C11_31 S2_31 1_555 1_555
C12_31 C9_31 1_555 1_555
H4_31 C12_31 1_555 1_555
O12_27 Zr5_18 1_555 1_555
O13_39 Zr5_18 1_555 1_555
O14_39 Zr7_18 1_555 1_555
O15_39 Zr7_18 1_555 1_555
O20_39 Zr5_18 1_555 1_555
O21_39 Zr7_18 1_555 1_555
C10_31 O18_22 1_555 1_555
C10_31 O12_27 1_555 1_555
C11_31 C12_31 1_555 1_555
Zr7_18 O13_39 1_555 1_555
O13_39 Zr10_30 1_555 1_555
O4_40 Zr5_17 1_555 1_555
O5_40 Zr5_17 1_555 1_555
S2_32 C8_32 1_555 1_555
C7_32 C8_32 1_555 1_555
C8_32 C9_32 1_555 1_555
C9_32 H3_32 1_555 1_555
O17_19 C7_32 1_555 1_555
O20_21 C7_32 1_555 1_555
C10_32 C11_32 1_555 1_555
C11_32 S2_32 1_555 1_555
C12_32 C9_32 1_555 1_555
H4_32 C12_32 1_555 1_555
O12_28 Zr5_17 1_555 1_555
O13_40 Zr5_17 1_555 1_555
O14_40 Zr7_17 1_555 1_555
O15_40 Zr7_17 1_555 1_555
O20_40 Zr5_17 1_555 1_555
O21_40 Zr7_17 1_555 1_555
C10_32 O18_21 1_555 1_555
C10_32 O12_28 1_555 1_555
C11_32 C12_32 1_555 1_555
Zr7_17 O13_40 1_555 1_555
O13_40 Zr10_29 1_555 1_555
Zr10_26 O1_9 1_555 1_555
S1_17 C2_17 1_555 1_555
C1_17 C2_17 1_555 1_555
C2_17 C3_17 1_555 1_555
C3_17 H1_17 1_555 1_555
O1_9 C1_17 1_555 1_555
O20_26 C1_17 1_555 1_555
C4_17 C5_17 1_555 1_555
C5_17 S1_17 1_555 1_555
C6_17 C3_17 1_555 1_555
H2_17 C6_17 1_555 1_555
O7_9 C4_17 1_555 1_555
O21_10 C4_17 1_555 1_555
S2_33 C8_33 1_555 1_555
C7_33 C8_33 1_555 1_555
C8_33 C9_33 1_555 1_555
C9_33 H3_33 1_555 1_555
O9_17 C7_33 1_555 1_555
O10_25 C7_33 1_555 1_555
C10_33 C11_33 1_555 1_555
C11_33 S2_33 1_555 1_555
C12_33 C9_33 1_555 1_555
H4_33 C12_33 1_555 1_555
O11_17 Zr10_26 1_555 1_555
Zr6_13 O10_25 1_555 1_555
Zr8_9 O9_17 1_555 1_555
Zr10_19 O7_9 1_555 1_555
O17_25 Zr10_26 1_555 1_555
O18_25 Zr10_26 1_555 1_555
C5_17 C6_17 1_555 1_555
C10_33 O11_17 1_555 1_555
C10_33 O21_26 1_555 1_555
C11_33 C12_33 1_555 1_555
Zr10_25 O1_10 1_555 1_555
S1_18 C2_18 1_555 1_555
C1_18 C2_18 1_555 1_555
C2_18 C3_18 1_555 1_555
C3_18 H1_18 1_555 1_555
O1_10 C1_18 1_555 1_555
O20_25 C1_18 1_555 1_555
C4_18 C5_18 1_555 1_555
C5_18 S1_18 1_555 1_555
C6_18 C3_18 1_555 1_555
H2_18 C6_18 1_555 1_555
O7_10 C4_18 1_555 1_555
O21_11 C4_18 1_555 1_555
S2_34 C8_34 1_555 1_555
C7_34 C8_34 1_555 1_555
C8_34 C9_34 1_555 1_555
C9_34 H3_34 1_555 1_555
O9_18 C7_34 1_555 1_555
O10_26 C7_34 1_555 1_555
C10_34 C11_34 1_555 1_555
C11_34 S2_34 1_555 1_555
C12_34 C9_34 1_555 1_555
H4_34 C12_34 1_555 1_555
O11_18 Zr10_25 1_555 1_555
Zr6_14 O10_26 1_555 1_555
Zr8_10 O9_18 1_555 1_555
Zr10_22 O7_10 1_555 1_555
O17_26 Zr10_25 1_555 1_555
O18_26 Zr10_25 1_555 1_555
C5_18 C6_18 1_555 1_555
C10_34 O11_18 1_555 1_555
C10_34 O21_25 1_555 1_555
C11_34 C12_34 1_555 1_555
Zr10_28 O1_11 1_555 1_555
S1_19 C2_19 1_555 1_555
C1_19 C2_19 1_555 1_555
C2_19 C3_19 1_555 1_555
C3_19 H1_19 1_555 1_555
O1_11 C1_19 1_555 1_555
O20_28 C1_19 1_555 1_555
C4_19 C5_19 1_555 1_555
C5_19 S1_19 1_555 1_555
C6_19 C3_19 1_555 1_555
H2_19 C6_19 1_555 1_555
O7_11 C4_19 1_555 1_555
O21_9 C4_19 1_555 1_555
S2_35 C8_35 1_555 1_555
C7_35 C8_35 1_555 1_555
C8_35 C9_35 1_555 1_555
C9_35 H3_35 1_555 1_555
O9_19 C7_35 1_555 1_555
O10_27 C7_35 1_555 1_555
C10_35 C11_35 1_555 1_555
C11_35 S2_35 1_555 1_555
C12_35 C9_35 1_555 1_555
H4_35 C12_35 1_555 1_555
O11_19 Zr10_28 1_555 1_555
Zr6_15 O10_27 1_555 1_555
Zr8_11 O9_19 1_555 1_555
Zr10_17 O7_11 1_555 1_555
O17_27 Zr10_28 1_555 1_555
O18_27 Zr10_28 1_555 1_555
C5_19 C6_19 1_555 1_555
C10_35 O11_19 1_555 1_555
C10_35 O21_28 1_555 1_555
C11_35 C12_35 1_555 1_555
Zr10_27 O1_12 1_555 1_555
S1_20 C2_20 1_555 1_555
C1_20 C2_20 1_555 1_555
C2_20 C3_20 1_555 1_555
C3_20 H1_20 1_555 1_555
O1_12 C1_20 1_555 1_555
O20_27 C1_20 1_555 1_555
C4_20 C5_20 1_555 1_555
C5_20 S1_20 1_555 1_555
C6_20 C3_20 1_555 1_555
H2_20 C6_20 1_555 1_555
O7_12 C4_20 1_555 1_555
O21_12 C4_20 1_555 1_555
S2_36 C8_36 1_555 1_555
C7_36 C8_36 1_555 1_555
C8_36 C9_36 1_555 1_555
C9_36 H3_36 1_555 1_555
O9_20 C7_36 1_555 1_555
O10_28 C7_36 1_555 1_555
C10_36 C11_36 1_555 1_555
C11_36 S2_36 1_555 1_555
C12_36 C9_36 1_555 1_555
H4_36 C12_36 1_555 1_555
O11_20 Zr10_27 1_555 1_555
Zr6_16 O10_28 1_555 1_555
Zr8_12 O9_20 1_555 1_555
Zr10_24 O7_12 1_555 1_555
O17_28 Zr10_27 1_555 1_555
O18_28 Zr10_27 1_555 1_555
C5_20 C6_20 1_555 1_555
C10_36 O11_20 1_555 1_555
C10_36 O21_27 1_555 1_555
C11_36 C12_36 1_555 1_555
Zr1_13 O2_21 1_555 1_555
O2_21 Zr8_9 1_555 1_555
O4_41 Zr1_13 1_555 1_555
O5_41 Zr1_13 1_555 1_555
O6_33 Zr1_13 1_555 1_555
S2_37 C8_37 1_555 1_555
C7_37 C8_37 1_555 1_555
C8_37 C9_37 1_555 1_555
C9_37 H3_37 1_555 1_555
O9_21 C7_37 1_555 1_555
O20_10 C7_37 1_555 1_555
C10_37 C11_37 1_555 1_555
C11_37 S2_37 1_555 1_555
C12_37 C9_37 1_555 1_555
H4_37 C12_37 1_555 1_555
O11_21 Zr8_9 1_555 1_555
O12_29 Zr1_13 1_555 1_555
Zr6_13 O2_21 1_555 1_555
O13_41 Zr1_13 1_555 1_555
O14_41 Zr6_13 1_555 1_555
O15_41 Zr6_13 1_555 1_555
O16_33 Zr8_9 1_555 1_555
Zr5_21 O16_33 1_555 1_555
Zr7_21 O6_33 1_555 1_555
Zr10_19 O9_21 1_555 1_555
Zr10_33 O6_33 1_555 1_555
O17_29 Zr8_9 1_555 1_555
O18_29 Zr8_9 1_555 1_555
O19_21 Zr8_9 1_555 1_555
O20_41 Zr1_13 1_555 1_555
O21_41 Zr6_13 1_555 1_555
O22_33 Zr6_13 1_555 1_555
O23_33 Zr1_13 1_555 1_555
Zr8_9 O23_33 1_555 1_555
C10_37 O11_21 1_555 1_555
C10_37 O12_29 1_555 1_555
C11_37 C12_37 1_555 1_555
Zr6_13 O13_41 1_555 1_555
Zr6_13 O16_33 1_555 1_555
O13_41 Zr10_33 1_555 1_555
Zr5_21 O19_21 1_555 1_555
Zr5_21 O22_33 1_555 1_555
Zr7_21 O19_21 1_555 1_555
Zr7_21 O23_33 1_555 1_555
Zr10_33 O22_33 1_555 1_555
Zr1_14 O2_22 1_555 1_555
O2_22 Zr8_12 1_555 1_555
O4_42 Zr1_14 1_555 1_555
O5_42 Zr1_14 1_555 1_555
O6_34 Zr1_14 1_555 1_555
S2_38 C8_38 1_555 1_555
C7_38 C8_38 1_555 1_555
C8_38 C9_38 1_555 1_555
C9_38 H3_38 1_555 1_555
O9_22 C7_38 1_555 1_555
O20_12 C7_38 1_555 1_555
C10_38 C11_38 1_555 1_555
C11_38 S2_38 1_555 1_555
C12_38 C9_38 1_555 1_555
H4_38 C12_38 1_555 1_555
O11_22 Zr8_12 1_555 1_555
O12_30 Zr1_14 1_555 1_555
Zr6_16 O2_22 1_555 1_555
O13_42 Zr1_14 1_555 1_555
O14_42 Zr6_16 1_555 1_555
O15_42 Zr6_16 1_555 1_555
O16_34 Zr8_12 1_555 1_555
Zr5_22 O16_34 1_555 1_555
Zr7_22 O6_34 1_555 1_555
Zr10_24 O9_22 1_555 1_555
Zr10_34 O6_34 1_555 1_555
O17_30 Zr8_12 1_555 1_555
O18_30 Zr8_12 1_555 1_555
O19_22 Zr8_12 1_555 1_555
O20_42 Zr1_14 1_555 1_555
O21_42 Zr6_16 1_555 1_555
O22_34 Zr6_16 1_555 1_555
O23_34 Zr1_14 1_555 1_555
Zr8_12 O23_34 1_555 1_555
C10_38 O11_22 1_555 1_555
C10_38 O12_30 1_555 1_555
C11_38 C12_38 1_555 1_555
Zr6_16 O13_42 1_555 1_555
Zr6_16 O16_34 1_555 1_555
O13_42 Zr10_34 1_555 1_555
Zr5_22 O19_22 1_555 1_555
Zr5_22 O22_34 1_555 1_555
Zr7_22 O19_22 1_555 1_555
Zr7_22 O23_34 1_555 1_555
Zr10_34 O22_34 1_555 1_555
Zr1_15 O2_23 1_555 1_555
O2_23 Zr8_10 1_555 1_555
O4_43 Zr1_15 1_555 1_555
O5_43 Zr1_15 1_555 1_555
O6_35 Zr1_15 1_555 1_555
S2_39 C8_39 1_555 1_555
C7_39 C8_39 1_555 1_555
C8_39 C9_39 1_555 1_555
C9_39 H3_39 1_555 1_555
O9_23 C7_39 1_555 1_555
O20_11 C7_39 1_555 1_555
C10_39 C11_39 1_555 1_555
C11_39 S2_39 1_555 1_555
C12_39 C9_39 1_555 1_555
H4_39 C12_39 1_555 1_555
O11_23 Zr8_10 1_555 1_555
O12_31 Zr1_15 1_555 1_555
Zr6_14 O2_23 1_555 1_555
O13_43 Zr1_15 1_555 1_555
O14_43 Zr6_14 1_555 1_555
O15_43 Zr6_14 1_555 1_555
O16_35 Zr8_10 1_555 1_555
Zr5_23 O16_35 1_555 1_555
Zr7_23 O6_35 1_555 1_555
Zr10_22 O9_23 1_555 1_555
Zr10_35 O6_35 1_555 1_555
O17_31 Zr8_10 1_555 1_555
O18_31 Zr8_10 1_555 1_555
O19_23 Zr8_10 1_555 1_555
O20_43 Zr1_15 1_555 1_555
O21_43 Zr6_14 1_555 1_555
O22_35 Zr6_14 1_555 1_555
O23_35 Zr1_15 1_555 1_555
Zr8_10 O23_35 1_555 1_555
C10_39 O11_23 1_555 1_555
C10_39 O12_31 1_555 1_555
C11_39 C12_39 1_555 1_555
Zr6_14 O13_43 1_555 1_555
Zr6_14 O16_35 1_555 1_555
O13_43 Zr10_35 1_555 1_555
Zr5_23 O19_23 1_555 1_555
Zr5_23 O22_35 1_555 1_555
Zr7_23 O19_23 1_555 1_555
Zr7_23 O23_35 1_555 1_555
Zr10_35 O22_35 1_555 1_555
Zr1_16 O2_24 1_555 1_555
O2_24 Zr8_11 1_555 1_555
O4_44 Zr1_16 1_555 1_555
O5_44 Zr1_16 1_555 1_555
O6_36 Zr1_16 1_555 1_555
S2_40 C8_40 1_555 1_555
C7_40 C8_40 1_555 1_555
C8_40 C9_40 1_555 1_555
C9_40 H3_40 1_555 1_555
O9_24 C7_40 1_555 1_555
O20_9 C7_40 1_555 1_555
C10_40 C11_40 1_555 1_555
C11_40 S2_40 1_555 1_555
C12_40 C9_40 1_555 1_555
H4_40 C12_40 1_555 1_555
O11_24 Zr8_11 1_555 1_555
O12_32 Zr1_16 1_555 1_555
Zr6_15 O2_24 1_555 1_555
O13_44 Zr1_16 1_555 1_555
O14_44 Zr6_15 1_555 1_555
O15_44 Zr6_15 1_555 1_555
O16_36 Zr8_11 1_555 1_555
Zr5_24 O16_36 1_555 1_555
Zr7_24 O6_36 1_555 1_555
Zr10_17 O9_24 1_555 1_555
Zr10_36 O6_36 1_555 1_555
O17_32 Zr8_11 1_555 1_555
O18_32 Zr8_11 1_555 1_555
O19_24 Zr8_11 1_555 1_555
O20_44 Zr1_16 1_555 1_555
O21_44 Zr6_15 1_555 1_555
O22_36 Zr6_15 1_555 1_555
O23_36 Zr1_16 1_555 1_555
Zr8_11 O23_36 1_555 1_555
C10_40 O11_24 1_555 1_555
C10_40 O12_32 1_555 1_555
C11_40 C12_40 1_555 1_555
Zr6_15 O13_44 1_555 1_555
Zr6_15 O16_36 1_555 1_555
O13_44 Zr10_36 1_555 1_555
Zr5_24 O19_24 1_555 1_555
Zr5_24 O22_36 1_555 1_555
Zr7_24 O19_24 1_555 1_555
Zr7_24 O23_36 1_555 1_555
Zr10_36 O22_36 1_555 1_555
O17_33 Zr10_20 1_555 1_555
O18_33 Zr10_20 1_555 1_555
O17_34 Zr10_18 1_555 1_555
O18_34 Zr10_18 1_555 1_555
O17_35 Zr10_23 1_555 1_555
O18_35 Zr10_23 1_555 1_555
O17_36 Zr10_21 1_555 1_555
O18_36 Zr10_21 1_555 1_555
S1_21 C2_21 1_555 1_555
C1_21 C2_21 1_555 1_555
C2_21 C3_21 1_555 1_555
C3_21 H1_21 1_555 1_555
O17_25 C1_21 1_555 1_555
O20_34 C1_21 1_555 1_555
C4_21 C5_21 1_555 1_555
C5_21 S1_21 1_555 1_555
C6_21 C3_21 1_555 1_555
H2_21 C6_21 1_555 1_555
O18_32 C4_21 1_555 1_555
O8_13 C4_21 1_555 1_555
S2_41 C8_41 1_555 1_555
C7_41 C8_41 1_555 1_555
C8_41 C9_41 1_555 1_555
C9_41 H3_41 1_555 1_555
O17_35 C7_41 1_555 1_555
O20_18 C7_41 1_555 1_555
C10_41 C11_41 1_555 1_555
C11_41 S2_41 1_555 1_555
C12_41 C9_41 1_555 1_555
H4_41 C12_41 1_555 1_555
Zr5_24 O8_13 1_555 1_555
C5_21 C6_21 1_555 1_555
C10_41 O18_25 1_555 1_555
C10_41 O21_34 1_555 1_555
C11_41 C12_41 1_555 1_555
S1_22 C2_22 1_555 1_555
C1_22 C2_22 1_555 1_555
C2_22 C3_22 1_555 1_555
C3_22 H1_22 1_555 1_555
O17_26 C1_22 1_555 1_555
O20_33 C1_22 1_555 1_555
C4_22 C5_22 1_555 1_555
C5_22 S1_22 1_555 1_555
C6_22 C3_22 1_555 1_555
H2_22 C6_22 1_555 1_555
O18_30 C4_22 1_555 1_555
O8_14 C4_22 1_555 1_555
S2_42 C8_42 1_555 1_555
C7_42 C8_42 1_555 1_555
C8_42 C9_42 1_555 1_555
C9_42 H3_42 1_555 1_555
O17_34 C7_42 1_555 1_555
O20_20 C7_42 1_555 1_555
C10_42 C11_42 1_555 1_555
C11_42 S2_42 1_555 1_555
C12_42 C9_42 1_555 1_555
H4_42 C12_42 1_555 1_555
Zr5_22 O8_14 1_555 1_555
C5_22 C6_22 1_555 1_555
C10_42 O18_26 1_555 1_555
C10_42 O21_33 1_555 1_555
C11_42 C12_42 1_555 1_555
S1_23 C2_23 1_555 1_555
C1_23 C2_23 1_555 1_555
C2_23 C3_23 1_555 1_555
C3_23 H1_23 1_555 1_555
O17_28 C1_23 1_555 1_555
O20_36 C1_23 1_555 1_555
C4_23 C5_23 1_555 1_555
C5_23 S1_23 1_555 1_555
C6_23 C3_23 1_555 1_555
H2_23 C6_23 1_555 1_555
O18_31 C4_23 1_555 1_555
O8_15 C4_23 1_555 1_555
S2_43 C8_43 1_555 1_555
C7_43 C8_43 1_555 1_555
C8_43 C9_43 1_555 1_555
C9_43 H3_43 1_555 1_555
O17_33 C7_43 1_555 1_555
O20_19 C7_43 1_555 1_555
C10_43 C11_43 1_555 1_555
C11_43 S2_43 1_555 1_555
C12_43 C9_43 1_555 1_555
H4_43 C12_43 1_555 1_555
Zr5_23 O8_15 1_555 1_555
C5_23 C6_23 1_555 1_555
C10_43 O18_28 1_555 1_555
C10_43 O21_36 1_555 1_555
C11_43 C12_43 1_555 1_555
S1_24 C2_24 1_555 1_555
C1_24 C2_24 1_555 1_555
C2_24 C3_24 1_555 1_555
C3_24 H1_24 1_555 1_555
O17_27 C1_24 1_555 1_555
O20_35 C1_24 1_555 1_555
C4_24 C5_24 1_555 1_555
C5_24 S1_24 1_555 1_555
C6_24 C3_24 1_555 1_555
H2_24 C6_24 1_555 1_555
O18_29 C4_24 1_555 1_555
O8_16 C4_24 1_555 1_555
S2_44 C8_44 1_555 1_555
C7_44 C8_44 1_555 1_555
C8_44 C9_44 1_555 1_555
C9_44 H3_44 1_555 1_555
O17_36 C7_44 1_555 1_555
O20_17 C7_44 1_555 1_555
C10_44 C11_44 1_555 1_555
C11_44 S2_44 1_555 1_555
C12_44 C9_44 1_555 1_555
H4_44 C12_44 1_555 1_555
Zr5_21 O8_16 1_555 1_555
C5_24 C6_24 1_555 1_555
C10_44 O18_27 1_555 1_555
C10_44 O21_35 1_555 1_555
C11_44 C12_44 1_555 1_555
S2_45 C8_45 1_555 1_555
C7_45 C8_45 1_555 1_555
C8_45 C9_45 1_555 1_555
C9_45 H3_45 1_555 1_555
O17_32 C7_45 1_555 1_555
O10_29 C7_45 1_555 1_555
C10_45 C11_45 1_555 1_555
C11_45 S2_45 1_555 1_555
C12_45 C9_45 1_555 1_555
H4_45 C12_45 1_555 1_555
Zr7_24 O10_29 1_555 1_555
C10_45 O18_35 1_555 1_555
C10_45 O21_18 1_555 1_555
C11_45 C12_45 1_555 1_555
S2_46 C8_46 1_555 1_555
C7_46 C8_46 1_555 1_555
C8_46 C9_46 1_555 1_555
C9_46 H3_46 1_555 1_555
O17_29 C7_46 1_555 1_555
O10_30 C7_46 1_555 1_555
C10_46 C11_46 1_555 1_555
C11_46 S2_46 1_555 1_555
C12_46 C9_46 1_555 1_555
H4_46 C12_46 1_555 1_555
Zr7_21 O10_30 1_555 1_555
C10_46 O18_36 1_555 1_555
C10_46 O21_17 1_555 1_555
C11_46 C12_46 1_555 1_555
S2_47 C8_47 1_555 1_555
C7_47 C8_47 1_555 1_555
C8_47 C9_47 1_555 1_555
C9_47 H3_47 1_555 1_555
O17_30 C7_47 1_555 1_555
O10_31 C7_47 1_555 1_555
C10_47 C11_47 1_555 1_555
C11_47 S2_47 1_555 1_555
C12_47 C9_47 1_555 1_555
H4_47 C12_47 1_555 1_555
Zr7_22 O10_31 1_555 1_555
C10_47 O18_34 1_555 1_555
C10_47 O21_20 1_555 1_555
C11_47 C12_47 1_555 1_555
S2_48 C8_48 1_555 1_555
C7_48 C8_48 1_555 1_555
C8_48 C9_48 1_555 1_555
C9_48 H3_48 1_555 1_555
O17_31 C7_48 1_555 1_555
O10_32 C7_48 1_555 1_555
C10_48 C11_48 1_555 1_555
C11_48 S2_48 1_555 1_555
C12_48 C9_48 1_555 1_555
H4_48 C12_48 1_555 1_555
Zr7_23 O10_32 1_555 1_555
C10_48 O18_33 1_555 1_555
C10_48 O21_19 1_555 1_555
C11_48 C12_48 1_555 1_555
O4_45 Zr5_24 1_555 1_555
O5_45 Zr5_24 1_555 1_555
O13_45 Zr5_24 1_555 1_555
O14_45 Zr7_24 1_555 1_555
O15_45 Zr7_24 1_555 1_555
O20_45 Zr5_24 1_555 1_555
O21_45 Zr7_24 1_555 1_555
Zr7_24 O13_45 1_555 1_555
O13_45 Zr10_36 1_555 1_555
O4_46 Zr5_23 1_555 1_555
O5_46 Zr5_23 1_555 1_555
O13_46 Zr5_23 1_555 1_555
O14_46 Zr7_23 1_555 1_555
O15_46 Zr7_23 1_555 1_555
O20_46 Zr5_23 1_555 1_555
O21_46 Zr7_23 1_555 1_555
Zr7_23 O13_46 1_555 1_555
O13_46 Zr10_35 1_555 1_555
O4_47 Zr5_21 1_555 1_555
O5_47 Zr5_21 1_555 1_555
O13_47 Zr5_21 1_555 1_555
O14_47 Zr7_21 1_555 1_555
O15_47 Zr7_21 1_555 1_555
O20_47 Zr5_21 1_555 1_555
O21_47 Zr7_21 1_555 1_555
Zr7_21 O13_47 1_555 1_555
O13_47 Zr10_33 1_555 1_555
O4_48 Zr5_22 1_555 1_555
O5_48 Zr5_22 1_555 1_555
O13_48 Zr5_22 1_555 1_555
O14_48 Zr7_22 1_555 1_555
O15_48 Zr7_22 1_555 1_555
O20_48 Zr5_22 1_555 1_555
O21_48 Zr7_22 1_555 1_555
Zr7_22 O13_48 1_555 1_555
O13_48 Zr10_34 1_555 1_555
Zr10_3 O1_13 1_555 1_555
S1_25 C2_25 1_555 1_555
C1_25 C2_25 1_555 1_555
C2_25 C3_25 1_555 1_555
C3_25 H1_25 1_555 1_555
O1_13 C1_25 1_555 1_555
O20_2 C1_25 1_555 1_555
C4_25 C5_25 1_555 1_555
C5_25 S1_25 1_555 1_555
C6_25 C3_25 1_555 1_555
H2_25 C6_25 1_555 1_555
O7_13 C4_25 1_555 1_555
O21_30 C4_25 1_555 1_555
S2_49 C8_49 1_555 1_555
C7_49 C8_49 1_555 1_555
C8_49 C9_49 1_555 1_555
C9_49 H3_49 1_555 1_555
O9_25 C7_49 1_555 1_555
O20_42 C7_49 1_555 1_555
C10_49 C11_49 1_555 1_555
C11_49 S2_49 1_555 1_555
C12_49 C9_49 1_555 1_555
H4_49 C12_49 1_555 1_555
O11_25 Zr10_3 1_555 1_555
Zr10_34 O9_25 1_555 1_555
Zr10_30 O7_13 1_555 1_555
C5_25 C6_25 1_555 1_555
C10_49 O11_25 1_555 1_555
C10_49 O21_2 1_555 1_555
C11_49 C12_49 1_555 1_555
O17_37 Zr10_4 1_555 1_555
O18_37 Zr10_4 1_555 1_555
Zr10 O1_14 1_555 1_555
S1_26 C2_26 1_555 1_555
C1_26 C2_26 1_555 1_555
C2_26 C3_26 1_555 1_555
C3_26 H1_26 1_555 1_555
O1_14 C1_26 1_555 1_555
O20 C1_26 1_555 1_555
C4_26 C5_26 1_555 1_555
C5_26 S1_26 1_555 1_555
C6_26 C3_26 1_555 1_555
H2_26 C6_26 1_555 1_555
O7_14 C4_26 1_555 1_555
O21_31 C4_26 1_555 1_555
S2_50 C8_50 1_555 1_555
C7_50 C8_50 1_555 1_555
C8_50 C9_50 1_555 1_555
C9_50 H3_50 1_555 1_555
O9_26 C7_50 1_555 1_555
O20_44 C7_50 1_555 1_555
C10_50 C11_50 1_555 1_555
C11_50 S2_50 1_555 1_555
C12_50 C9_50 1_555 1_555
H4_50 C12_50 1_555 1_555
O11_26 Zr10 1_555 1_555
Zr10_36 O9_26 1_555 1_555
Zr10_31 O7_14 1_555 1_555
C5_26 C6_26 1_555 1_555
C10_50 O11_26 1_555 1_555
C10_50 O21 1_555 1_555
C11_50 C12_50 1_555 1_555
O17_38 Zr10_2 1_555 1_555
O18_38 Zr10_2 1_555 1_555
O17_39 Zr10_7 1_555 1_555
O18_39 Zr10_7 1_555 1_555
Zr10_8 O1_15 1_555 1_555
S1_27 C2_27 1_555 1_555
C1_27 C2_27 1_555 1_555
C2_27 C3_27 1_555 1_555
C3_27 H1_27 1_555 1_555
O1_15 C1_27 1_555 1_555
O20_4 C1_27 1_555 1_555
C4_27 C5_27 1_555 1_555
C5_27 S1_27 1_555 1_555
C6_27 C3_27 1_555 1_555
H2_27 C6_27 1_555 1_555
O7_15 C4_27 1_555 1_555
O21_29 C4_27 1_555 1_555
S2_51 C8_51 1_555 1_555
C7_51 C8_51 1_555 1_555
C8_51 C9_51 1_555 1_555
C9_51 H3_51 1_555 1_555
O9_27 C7_51 1_555 1_555
O20_43 C7_51 1_555 1_555
C10_51 C11_51 1_555 1_555
C11_51 S2_51 1_555 1_555
C12_51 C9_51 1_555 1_555
H4_51 C12_51 1_555 1_555
O11_27 Zr10_8 1_555 1_555
Zr10_35 O9_27 1_555 1_555
Zr10_29 O7_15 1_555 1_555
C5_27 C6_27 1_555 1_555
C10_51 O11_27 1_555 1_555
C10_51 O21_4 1_555 1_555
C11_51 C12_51 1_555 1_555
O17_40 Zr10_5 1_555 1_555
O18_40 Zr10_5 1_555 1_555
Zr10_6 O1_16 1_555 1_555
S1_28 C2_28 1_555 1_555
C1_28 C2_28 1_555 1_555
C2_28 C3_28 1_555 1_555
C3_28 H1_28 1_555 1_555
O1_16 C1_28 1_555 1_555
O20_3 C1_28 1_555 1_555
C4_28 C5_28 1_555 1_555
C5_28 S1_28 1_555 1_555
C6_28 C3_28 1_555 1_555
H2_28 C6_28 1_555 1_555
O7_16 C4_28 1_555 1_555
O21_32 C4_28 1_555 1_555
S2_52 C8_52 1_555 1_555
C7_52 C8_52 1_555 1_555
C8_52 C9_52 1_555 1_555
C9_52 H3_52 1_555 1_555
O9_28 C7_52 1_555 1_555
O20_41 C7_52 1_555 1_555
C10_52 C11_52 1_555 1_555
C11_52 S2_52 1_555 1_555
C12_52 C9_52 1_555 1_555
H4_52 C12_52 1_555 1_555
O11_28 Zr10_6 1_555 1_555
Zr10_33 O9_28 1_555 1_555
Zr10_32 O7_16 1_555 1_555
C5_28 C6_28 1_555 1_555
C10_52 O11_28 1_555 1_555
C10_52 O21_3 1_555 1_555
C11_52 C12_52 1_555 1_555
S2_53 C8_53 1_555 1_555
C7_53 C8_53 1_555 1_555
C8_53 C9_53 1_555 1_555
C9_53 H3_53 1_555 1_555
O9_29 C7_53 1_555 1_555
O20_30 C7_53 1_555 1_555
C10_53 C11_53 1_555 1_555
C11_53 S2_53 1_555 1_555
C12_53 C9_53 1_555 1_555
H4_53 C12_53 1_555 1_555
O11_29 Zr10_34 1_555 1_555
Zr10_30 O9_29 1_555 1_555
O17_41 Zr10_34 1_555 1_555
O18_41 Zr10_34 1_555 1_555
C10_53 O11_29 1_555 1_555
C10_53 O21_42 1_555 1_555
C11_53 C12_53 1_555 1_555
S2_54 C8_54 1_555 1_555
C7_54 C8_54 1_555 1_555
C8_54 C9_54 1_555 1_555
C9_54 H3_54 1_555 1_555
O9_30 C7_54 1_555 1_555
O20_32 C7_54 1_555 1_555
C10_54 C11_54 1_555 1_555
C11_54 S2_54 1_555 1_555
C12_54 C9_54 1_555 1_555
H4_54 C12_54 1_555 1_555
O11_30 Zr10_33 1_555 1_555
Zr10_32 O9_30 1_555 1_555
O17_42 Zr10_33 1_555 1_555
O18_42 Zr10_33 1_555 1_555
C10_54 O11_30 1_555 1_555
C10_54 O21_41 1_555 1_555
C11_54 C12_54 1_555 1_555
S2_55 C8_55 1_555 1_555
C7_55 C8_55 1_555 1_555
C8_55 C9_55 1_555 1_555
C9_55 H3_55 1_555 1_555
O9_31 C7_55 1_555 1_555
O20_31 C7_55 1_555 1_555
C10_55 C11_55 1_555 1_555
C11_55 S2_55 1_555 1_555
C12_55 C9_55 1_555 1_555
H4_55 C12_55 1_555 1_555
O11_31 Zr10_36 1_555 1_555
Zr10_31 O9_31 1_555 1_555
O17_43 Zr10_36 1_555 1_555
O18_43 Zr10_36 1_555 1_555
C10_55 O11_31 1_555 1_555
C10_55 O21_44 1_555 1_555
C11_55 C12_55 1_555 1_555
S2_56 C8_56 1_555 1_555
C7_56 C8_56 1_555 1_555
C8_56 C9_56 1_555 1_555
C9_56 H3_56 1_555 1_555
O9_32 C7_56 1_555 1_555
O20_29 C7_56 1_555 1_555
C10_56 C11_56 1_555 1_555
C11_56 S2_56 1_555 1_555
C12_56 C9_56 1_555 1_555
H4_56 C12_56 1_555 1_555
O11_32 Zr10_35 1_555 1_555
Zr10_29 O9_32 1_555 1_555
O17_44 Zr10_35 1_555 1_555
O18_44 Zr10_35 1_555 1_555
C10_56 O11_32 1_555 1_555
C10_56 O21_43 1_555 1_555
C11_56 C12_56 1_555 1_555
O17_45 Zr10_30 1_555 1_555
O18_45 Zr10_30 1_555 1_555
O17_46 Zr10_29 1_555 1_555
O18_46 Zr10_29 1_555 1_555
O17_47 Zr10_32 1_555 1_555
O18_47 Zr10_32 1_555 1_555
O17_48 Zr10_31 1_555 1_555
O18_48 Zr10_31 1_555 1_555
S1_29 C2_29 1_555 1_555
C1_29 C2_29 1_555 1_555
C2_29 C3_29 1_555 1_555
C3_29 H1_29 1_555 1_555
O17_37 C1_29 1_555 1_555
O20_14 C1_29 1_555 1_555
C4_29 C5_29 1_555 1_555
C5_29 S1_29 1_555 1_555
C6_29 C3_29 1_555 1_555
H2_29 C6_29 1_555 1_555
O18_44 C4_29 1_555 1_555
O21_46 C4_29 1_555 1_555
S2_57 C8_57 1_555 1_555
C7_57 C8_57 1_555 1_555
C8_57 C9_57 1_555 1_555
C9_57 H3_57 1_555 1_555
O17_47 C7_57 1_555 1_555
O20_38 C7_57 1_555 1_555
C10_57 C11_57 1_555 1_555
C11_57 S2_57 1_555 1_555
C12_57 C9_57 1_555 1_555
H4_57 C12_57 1_555 1_555
C5_29 C6_29 1_555 1_555
C10_57 O18_37 1_555 1_555
C10_57 O21_14 1_555 1_555
C11_57 C12_57 1_555 1_555
S1_30 C2_30 1_555 1_555
C1_30 C2_30 1_555 1_555
C2_30 C3_30 1_555 1_555
C3_30 H1_30 1_555 1_555
O17_38 C1_30 1_555 1_555
O20_13 C1_30 1_555 1_555
C4_30 C5_30 1_555 1_555
C5_30 S1_30 1_555 1_555
C6_30 C3_30 1_555 1_555
H2_30 C6_30 1_555 1_555
O18_42 C4_30 1_555 1_555
O21_47 C4_30 1_555 1_555
S2_58 C8_58 1_555 1_555
C7_58 C8_58 1_555 1_555
C8_58 C9_58 1_555 1_555
C9_58 H3_58 1_555 1_555
O17_46 C7_58 1_555 1_555
O20_40 C7_58 1_555 1_555
C10_58 C11_58 1_555 1_555
C11_58 S2_58 1_555 1_555
C12_58 C9_58 1_555 1_555
H4_58 C12_58 1_555 1_555
C5_30 C6_30 1_555 1_555
C10_58 O18_38 1_555 1_555
C10_58 O21_13 1_555 1_555
C11_58 C12_58 1_555 1_555
S1_31 C2_31 1_555 1_555
C1_31 C2_31 1_555 1_555
C2_31 C3_31 1_555 1_555
C3_31 H1_31 1_555 1_555
O17_40 C1_31 1_555 1_555
O20_16 C1_31 1_555 1_555
C4_31 C5_31 1_555 1_555
C5_31 S1_31 1_555 1_555
C6_31 C3_31 1_555 1_555
H2_31 C6_31 1_555 1_555
O18_43 C4_31 1_555 1_555
O21_45 C4_31 1_555 1_555
S2_59 C8_59 1_555 1_555
C7_59 C8_59 1_555 1_555
C8_59 C9_59 1_555 1_555
C9_59 H3_59 1_555 1_555
O17_45 C7_59 1_555 1_555
O20_39 C7_59 1_555 1_555
C10_59 C11_59 1_555 1_555
C11_59 S2_59 1_555 1_555
C12_59 C9_59 1_555 1_555
H4_59 C12_59 1_555 1_555
C5_31 C6_31 1_555 1_555
C10_59 O18_40 1_555 1_555
C10_59 O21_16 1_555 1_555
C11_59 C12_59 1_555 1_555
S1_32 C2_32 1_555 1_555
C1_32 C2_32 1_555 1_555
C2_32 C3_32 1_555 1_555
C3_32 H1_32 1_555 1_555
O17_39 C1_32 1_555 1_555
O20_15 C1_32 1_555 1_555
C4_32 C5_32 1_555 1_555
C5_32 S1_32 1_555 1_555
C6_32 C3_32 1_555 1_555
H2_32 C6_32 1_555 1_555
O18_41 C4_32 1_555 1_555
O21_48 C4_32 1_555 1_555
S2_60 C8_60 1_555 1_555
C7_60 C8_60 1_555 1_555
C8_60 C9_60 1_555 1_555
C9_60 H3_60 1_555 1_555
O17_48 C7_60 1_555 1_555
O20_37 C7_60 1_555 1_555
C10_60 C11_60 1_555 1_555
C11_60 S2_60 1_555 1_555
C12_60 C9_60 1_555 1_555
H4_60 C12_60 1_555 1_555
C5_32 C6_32 1_555 1_555
C10_60 O18_39 1_555 1_555
C10_60 O21_15 1_555 1_555
C11_60 C12_60 1_555 1_555
S2_61 C8_61 1_555 1_555
C7_61 C8_61 1_555 1_555
C8_61 C9_61 1_555 1_555
C9_61 H3_61 1_555 1_555
O17_44 C7_61 1_555 1_555
O20_46 C7_61 1_555 1_555
C10_61 C11_61 1_555 1_555
C11_61 S2_61 1_555 1_555
C12_61 C9_61 1_555 1_555
H4_61 C12_61 1_555 1_555
C10_61 O18_47 1_555 1_555
C10_61 O21_38 1_555 1_555
C11_61 C12_61 1_555 1_555
S2_62 C8_62 1_555 1_555
C7_62 C8_62 1_555 1_555
C8_62 C9_62 1_555 1_555
C9_62 H3_62 1_555 1_555
O17_41 C7_62 1_555 1_555
O20_48 C7_62 1_555 1_555
C10_62 C11_62 1_555 1_555
C11_62 S2_62 1_555 1_555
C12_62 C9_62 1_555 1_555
H4_62 C12_62 1_555 1_555
C10_62 O18_48 1_555 1_555
C10_62 O21_37 1_555 1_555
C11_62 C12_62 1_555 1_555
S2_63 C8_63 1_555 1_555
C7_63 C8_63 1_555 1_555
C8_63 C9_63 1_555 1_555
C9_63 H3_63 1_555 1_555
O17_42 C7_63 1_555 1_555
O20_47 C7_63 1_555 1_555
C10_63 C11_63 1_555 1_555
C11_63 S2_63 1_555 1_555
C12_63 C9_63 1_555 1_555
H4_63 C12_63 1_555 1_555
C10_63 O18_46 1_555 1_555
C10_63 O21_40 1_555 1_555
C11_63 C12_63 1_555 1_555
S2_64 C8_64 1_555 1_555
C7_64 C8_64 1_555 1_555
C8_64 C9_64 1_555 1_555
C9_64 H3_64 1_555 1_555
O17_43 C7_64 1_555 1_555
O20_45 C7_64 1_555 1_555
C10_64 C11_64 1_555 1_555
C11_64 S2_64 1_555 1_555
C12_64 C9_64 1_555 1_555
H4_64 C12_64 1_555 1_555
C10_64 O18_45 1_555 1_555
C10_64 O21_39 1_555 1_555
C11_64 C12_64 1_555 1_555

#END
