
###############################################################################
#
# This file contains modified crystal structure data generated from the
# MOF subset of the Cambridge Structural Database (CSD) v543 
# hosted by the Cambridge Crystallographic Data Centre (CCDC).
#
# This work is licensed under the Creative Commons
# Attribution-NonCommercial-ShareAlike 4.0 International License.
# To view a copy of this license, visit
# http://creativecommons.org/licenses/by-nc-sa/4.0/
# or send a letter to
# Creative Commons, PO Box 1866, Mountain View, CA 94042, USA.
#
# CIF created using the CSD Python API on 29 September 2022
# The structure has been converted into the P1 space group
# The structure has a 3D framework
# The original CSD entry XICTAH is in the monoclinic crystal system
# The framework has been calculated to contain at least 10.0% void space
# The void calculation uses a probe of radius 1.32A, grid spacing 0.4
#
###############################################################################

data_XICTAH
_chemical_formula_moiety         '(C264 H160 N8 O62 Zn10)n'
_symmetry_cell_setting           triclinic
_symmetry_space_group_name_H-M   'P 1'
_symmetry_Int_Tables_number      1
_space_group_name_Hall           'P 1'
loop_
_symmetry_equiv_pos_site_id
_symmetry_equiv_pos_as_xyz
1 x,y,z
_cell_length_a                   34.926(7)
_cell_length_b                   9.2682(19)
_cell_length_c                   27.293(6)
_cell_angle_alpha                90
_cell_angle_beta                 123.19(3)
_cell_angle_gamma                90
_cell_volume                     7393.47
loop_
_atom_site_label
_atom_site_type_symbol
_atom_site_fract_x
_atom_site_fract_y
_atom_site_fract_z
Zn1 Zn 0.2500 0.2500 0.5000
Zn2 Zn 0.172030(14) 0.00627(5) 0.490090(19)
H1 H 0.2914 0.0137 0.4587
C15 C 0.14255(14) 0.2742(4) 0.42860(17)
C16 C 0.10506(13) 0.3706(5) 0.38452(17)
C17 C 0.11387(16) 0.4916(5) 0.3638(2)
H9 H 0.1440 0.5202 0.3801
C18 C 0.07883(17) 0.5727(5) 0.3192(2)
H10 H 0.0852 0.6548 0.3053
C19 C 0.03470(16) 0.5301(5) 0.2959(2)
C20 C 0.02473(15) 0.4164(6) 0.3182(2)
C21 C 0.05976(15) 0.3342(5) 0.3621(2)
H12 H 0.0530 0.2543 0.3766
O1 O 0.22983(10) 0.0273(3) 0.48214(12)
O6 O 0.18238(9) 0.3192(3) 0.45456(13)
O7 O 0.13020(10) 0.1529(3) 0.43616(14)
O8 O -0.0000 0.6117(5) 0.2500
H23 H 0.0056 0.3938 0.1959
O16 O 0.27017(10) 0.4727(3) 0.51786(12)
O18 O 0.20090(10) 0.0806(3) 0.56948(12)
O19 O 0.24583(10) 0.2692(3) 0.42285(11)
O20 O 0.25417(10) 0.2308(3) 0.57715(11)
O21 O 0.31762(9) 0.1808(3) 0.54544(13)
C1 C 0.21501(15) 0.9223(5) 0.44661(18)
C2 C 0.23882(14) 0.8757(4) 0.41793(18)
C3 C 0.27841(15) 0.9413(5) 0.43059(19)
C4 C 0.29922(14) 0.9009(5) 0.40194(19)
H2 H 0.3258 0.9464 0.4101
C5 C 0.27986(14) 0.7917(5) 0.36099(17)
C6 C 0.24121(18) 0.7246(6) 0.3488(2)
H3 H 0.2286 0.6504 0.3214
C7 C 0.22069(17) 0.7674(6) 0.3775(2)
H4 H 0.1940 0.7218 0.3691
C8 C 0.23420(13) 0.8326(4) 0.09706(16)
C9 C 0.25121(13) 0.8066(4) 0.16005(16)
C10 C 0.23099(15) 0.8752(5) 0.18520(18)
H5 H 0.2060 0.9350 0.1622
C11 C 0.24690(15) 0.8574(5) 0.24358(18)
H6 H 0.2334 0.9057 0.2602
C12 C 0.28328(13) 0.7663(5) 0.27640(16)
C13 C 0.30385(15) 0.6952(5) 0.25240(18)
H7 H 0.3286 0.6342 0.2753
C14 C 0.28743(15) 0.7154(5) 0.19416(17)
H8 H 0.3010 0.6668 0.1776
C22 C 0.10136(16) 0.7784(5) 0.4491(2)
H13 H 0.1045 0.7785 0.4174
C23 C 0.06926(17) 0.6869(6) 0.4472(2)
H14 H 0.0510 0.6286 0.4147
C24 C 0.06485(14) 0.6838(4) 0.4945(2)
C25 C 0.09316(14) 0.7718(4) 0.54108(19)
H15 H 0.0917 0.7711 0.5741
C26 C 0.12362(13) 0.8608(4) 0.53896(18)
H16 H 0.1422 0.9203 0.5709
C27 C 0.03114(14) 0.5881(5) 0.4959(2)
H17 H 0.0015 0.8554 0.4733
C30 C 0.03946(15) 0.4409(5) 0.5060(2)
C31 C 0.07940(17) 0.3730(5) 0.5139(3)
H18 H 0.0998 0.4285 0.5102
C32 C 0.0884(2) 0.2325(6) 0.5266(3)
H19 H 0.1145 0.1919 0.5313
C33 C 0.0580(2) 0.1462(6) 0.5328(4)
H20 H 0.0647 0.0494 0.5427
N1 N 0.12781(11) 0.8659(3) 0.49345(14)
O2 O 0.17996(13) 0.8584(4) 0.43572(18)
O3 O 0.30335(10) 0.7460(4) 0.33589(12)
O4 O 0.20090(10) 0.9194(3) 0.06948(12)
O5 O 0.25417(10) 0.7692(3) 0.07715(11)
C47 C 0.00833(15) 0.3521(5) 0.5116(2)
C48 C 0.01881(18) 0.2041(5) 0.5242(3)
Zn6 Zn 0.2500 0.7500 0.0000
Zn6_2 Zn 0.2500 0.7500 1.0000
Zn9 Zn 0.172030(14) 0.99373(5) 0.990090(19)
H11 H 0.9944 0.3938 0.3041
O8_2 O 1.0000 0.6117(5) 0.2500
C34 C 0.85745(14) 0.2742(4) 0.07140(17)
C35 C 0.89494(13) 0.3706(5) 0.11548(17)
C36 C 0.88613(16) 0.4916(5) 0.1362(2)
H21 H 0.8560 0.5202 0.1199
C37 C 0.92117(17) 0.5727(5) 0.1808(2)
H22 H 0.9148 0.6548 0.1947
C38 C 0.96530(16) 0.5301(5) 0.2041(2)
C39 C 0.97527(15) 0.4164(6) 0.1818(2)
C40 C 0.94024(15) 0.3342(5) 0.1379(2)
H24 H 0.9470 0.2543 0.1234
O9 O 0.81762(9) 0.3192(3) 0.04544(13)
O10 O 0.86980(10) 0.1529(3) 0.06384(14)
Zn3 Zn 0.827970(14) 0.00627(5) 0.009910(19)
H33 H 0.7086 0.0137 0.0413
O11 O 0.77017(10) 0.0273(3) 0.01786(12)
Zn4 Zn 0.7500 0.2500 0.0000
Zn4_2 Zn 0.7500 0.2500 1.0000
O17 O 0.79910(10) 0.0806(3) 0.93052(12)
C28 C 0.99167(15) 0.6479(5) 0.4884(2)
C29 C 0.98119(18) 0.7959(5) 0.4758(3)
C41 C 0.89864(16) 0.2216(5) 0.5509(2)
H25 H 0.8955 0.2215 0.5826
C42 C 0.93074(17) 0.3131(6) 0.5528(2)
H26 H 0.9490 0.3714 0.5853
C43 C 0.93515(14) 0.3162(4) 0.5055(2)
C44 C 0.90684(14) 0.2282(4) 0.45892(19)
H27 H 0.9083 0.2289 0.4259
C45 C 0.87638(13) 0.1392(4) 0.46104(18)
H28 H 0.8578 0.0797 0.4291
C46 C 0.96886(14) 0.4119(5) 0.5041(2)
H29 H 0.9985 0.1446 0.5267
C49 C 0.96054(15) 0.5591(5) 0.4940(2)
C50 C 0.92060(17) 0.6270(5) 0.4861(3)
H30 H 0.9002 0.5715 0.4898
C51 C 0.9116(2) 0.7675(6) 0.4734(3)
H31 H 0.8855 0.8081 0.4687
C52 C 0.9420(2) 0.8538(6) 0.4672(4)
H32 H 0.9353 0.9506 0.4573
N2 N 0.87219(11) 0.1341(3) 0.50655(14)
C53 C 0.78499(15) 0.9223(5) 0.05339(18)
C54 C 0.76118(14) 0.8757(4) 0.08207(18)
C55 C 0.72159(15) 0.9413(5) 0.06941(19)
C56 C 0.70078(14) 0.9009(5) 0.09806(19)
H34 H 0.6742 0.9464 0.0899
C57 C 0.72014(14) 0.7917(5) 0.13901(17)
C58 C 0.75879(18) 0.7246(6) 0.1512(2)
H35 H 0.7714 0.6504 0.1786
C59 C 0.77931(17) 0.7674(6) 0.1225(2)
H36 H 0.8060 0.7218 0.1309
C60 C 0.76580(13) 0.8326(4) 0.40294(16)
C61 C 0.74879(13) 0.8066(4) 0.33995(16)
C62 C 0.76901(15) 0.8752(5) 0.31480(18)
H37 H 0.7940 0.9350 0.3378
C63 C 0.75310(15) 0.8574(5) 0.25642(18)
H38 H 0.7666 0.9057 0.2398
C64 C 0.71672(13) 0.7663(5) 0.22360(16)
C65 C 0.69615(15) 0.6952(5) 0.24760(18)
H39 H 0.6714 0.6342 0.2247
C66 C 0.71257(15) 0.7154(5) 0.30584(17)
H40 H 0.6990 0.6668 0.3224
O12 O 0.82004(13) 0.8584(4) 0.06428(18)
O13 O 0.69665(10) 0.7460(4) 0.16411(12)
O14 O 0.79910(10) 0.9194(3) 0.43052(12)
O15 O 0.74583(10) 0.7692(3) 0.42285(11)
Zn5 Zn 0.7500 0.7500 0.5000
Zn8 Zn 0.827970(14) 0.99373(5) 0.509910(19)
N3 N 0.87219(11) 0.8659(3) 0.00655(14)
C28_2 C 0.00833(15) 0.6479(5) 0.0116(2)
C29_2 C 0.01881(18) 0.7959(5) 0.0242(3)
C44_2 C 0.09316(14) 0.2282(4) 0.04108(19)
H27_2 H 0.0917 0.2289 0.0741
C45_2 C 0.12362(13) 0.1392(4) 0.03896(18)
H28_2 H 0.1422 0.0797 0.0709
C49_2 C 0.03946(15) 0.5591(5) 0.0060(2)
C50_2 C 0.07940(17) 0.6270(5) 0.0139(3)
H30_2 H 0.0998 0.5715 0.0102
C51_2 C 0.0884(2) 0.7675(6) 0.0266(3)
H31_2 H 0.1145 0.8081 0.0313
C52_2 C 0.0580(2) 0.8538(6) 0.0328(4)
H32_2 H 0.0647 0.9506 0.0427
C41_2 C 0.10136(16) 0.2216(5) 0.9491(2)
H25_2 H 0.1045 0.2215 0.9174
C42_2 C 0.06926(17) 0.3131(6) 0.9472(2)
H26_2 H 0.0510 0.3714 0.9147
C43_2 C 0.06485(14) 0.3162(4) 0.9945(2)
C46_2 C 0.03114(14) 0.4119(5) 0.9959(2)
H29_2 H 0.0015 0.1446 0.9733
N2_2 N 0.12781(11) 0.1341(3) 0.99345(14)
O19_2 O 0.75417(10) 0.2692(3) 0.07715(11)
O16_2 O 0.72983(10) 0.4727(3) 0.98214(12)
O20_2 O 0.74583(10) 0.2308(3) 0.92285(11)
O21_2 O 0.68238(9) 0.1808(3) 0.95456(13)
C22_2 C 0.89864(16) 0.7784(5) 0.0509(2)
H13_2 H 0.8955 0.7785 0.0826
C23_2 C 0.93074(17) 0.6869(6) 0.0528(2)
H14_2 H 0.9490 0.6286 0.0853
C24_2 C 0.93515(14) 0.6838(4) 0.0055(2)
C27_2 C 0.96886(14) 0.5881(5) 0.0041(2)
H17_2 H 0.9985 0.8554 0.0267
C25_2 C 0.90684(14) 0.7718(4) 0.95892(19)
H15_2 H 0.9083 0.7711 0.9259
C26_2 C 0.87638(13) 0.8608(4) 0.96104(18)
H16_2 H 0.8578 0.9203 0.9291
C30_2 C 0.96054(15) 0.4409(5) 0.9940(2)
C31_2 C 0.92060(17) 0.3730(5) 0.9861(3)
H18_2 H 0.9002 0.4285 0.9898
C32_2 C 0.9116(2) 0.2325(6) 0.9734(3)
H19_2 H 0.8855 0.1919 0.9687
C33_2 C 0.9420(2) 0.1462(6) 0.9672(4)
H20_2 H 0.9353 0.0494 0.9573
C47_2 C 0.99167(15) 0.3521(5) 0.9884(2)
C48_2 C 0.98119(18) 0.2041(5) 0.9758(3)
Zn2_2 Zn 0.672030(14) 0.50627(5) 0.490090(19)
C1_2 C 0.71501(15) 0.4223(5) 0.44661(18)
C2_2 C 0.73882(14) 0.3757(4) 0.41793(18)
C3_2 C 0.77841(15) 0.4413(5) 0.43059(19)
H1_2 H 0.7914 0.5137 0.4587
C4_2 C 0.79922(14) 0.4009(5) 0.40194(19)
H2_2 H 0.8258 0.4464 0.4101
C5_2 C 0.77986(14) 0.2917(5) 0.36099(17)
C6_2 C 0.74121(18) 0.2246(6) 0.3488(2)
H3_2 H 0.7286 0.1504 0.3214
C7_2 C 0.72069(17) 0.2674(6) 0.3775(2)
H4_2 H 0.6940 0.2218 0.3691
C8_2 C 0.73420(13) 0.3326(4) 0.09706(16)
C9_2 C 0.75121(13) 0.3066(4) 0.16005(16)
C10_2 C 0.73099(15) 0.3752(5) 0.18520(18)
H5_2 H 0.7060 0.4350 0.1622
C11_2 C 0.74690(15) 0.3574(5) 0.24358(18)
H6_2 H 0.7334 0.4057 0.2602
C12_2 C 0.78328(13) 0.2663(5) 0.27640(16)
C13_2 C 0.80385(15) 0.1952(5) 0.25240(18)
H7_2 H 0.8286 0.1342 0.2753
C14_2 C 0.78743(15) 0.2154(5) 0.19416(17)
H8_2 H 0.8010 0.1668 0.1776
C15_2 C 0.64255(14) 0.7742(4) 0.42860(17)
C16_2 C 0.60506(13) 0.8706(5) 0.38452(17)
C17_2 C 0.61387(16) 0.9916(5) 0.3638(2)
C20_2 C 0.52473(15) 0.9164(6) 0.3182(2)
H11_2 H 0.4944 0.8938 0.3041
C21_2 C 0.55976(15) 0.8342(5) 0.3621(2)
H12_2 H 0.5530 0.7543 0.3766
C22_3 C 0.60136(16) 0.2784(5) 0.4491(2)
H13_3 H 0.6045 0.2785 0.4174
C23_3 C 0.56926(17) 0.1869(6) 0.4472(2)
H14_3 H 0.5510 0.1286 0.4147
C24_3 C 0.56485(14) 0.1838(4) 0.4945(2)
C25_3 C 0.59316(14) 0.2718(4) 0.54108(19)
H15_3 H 0.5917 0.2711 0.5741
C26_3 C 0.62362(13) 0.3608(4) 0.53896(18)
H16_3 H 0.6422 0.4203 0.5709
C27_3 C 0.53114(14) 0.0881(5) 0.4959(2)
C28_3 C 0.49167(15) 0.1479(5) 0.4884(2)
C29_3 C 0.48119(18) 0.2959(5) 0.4758(3)
H17_3 H 0.5015 0.3554 0.4733
N1_2 N 0.62781(11) 0.3659(3) 0.49345(14)
O1_2 O 0.72983(10) 0.5273(3) 0.48214(12)
O2_2 O 0.67996(13) 0.3584(4) 0.43572(18)
O3_2 O 0.80335(10) 0.2460(4) 0.33589(12)
O4_2 O 0.70090(10) 0.4194(3) 0.06948(12)
O6_2 O 0.68238(9) 0.8192(3) 0.45456(13)
O7_2 O 0.63020(10) 0.6529(3) 0.43616(14)
C34_2 C 0.35745(14) 0.7742(4) 0.07140(17)
C35_2 C 0.39494(13) 0.8706(5) 0.11548(17)
C36_2 C 0.38613(16) 0.9916(5) 0.1362(2)
C39_2 C 0.47527(15) 0.9164(6) 0.1818(2)
H23_2 H 0.5056 0.8938 0.1959
C40_2 C 0.44024(15) 0.8342(5) 0.1379(2)
H24_2 H 0.4470 0.7543 0.1234
O9_2 O 0.31762(9) 0.8192(3) 0.04544(13)
O10_2 O 0.36980(10) 0.6529(3) 0.06384(14)
C49_3 C 0.46054(15) 0.0591(5) 0.4940(2)
C50_3 C 0.42060(17) 0.1270(5) 0.4861(3)
H30_3 H 0.4002 0.0715 0.4898
C51_3 C 0.4116(2) 0.2675(6) 0.4734(3)
H31_3 H 0.3855 0.3081 0.4687
C52_3 C 0.4420(2) 0.3538(6) 0.4672(4)
H32_3 H 0.4353 0.4506 0.4573
Zn3_2 Zn 0.327970(14) 0.50627(5) 0.009910(19)
C53_2 C 0.28499(15) 0.4223(5) 0.05339(18)
C54_2 C 0.26118(14) 0.3757(4) 0.08207(18)
C55_2 C 0.22159(15) 0.4413(5) 0.06941(19)
H33_2 H 0.2086 0.5137 0.0413
C56_2 C 0.20078(14) 0.4009(5) 0.09806(19)
H34_2 H 0.1742 0.4464 0.0899
C57_2 C 0.22014(14) 0.2917(5) 0.13901(17)
C58_2 C 0.25879(18) 0.2246(6) 0.1512(2)
H35_2 H 0.2714 0.1504 0.1786
C59_2 C 0.27931(17) 0.2674(6) 0.1225(2)
H36_2 H 0.3060 0.2218 0.1309
C60_2 C 0.26580(13) 0.3326(4) 0.40294(16)
C61_2 C 0.24879(13) 0.3066(4) 0.33995(16)
C62_2 C 0.26901(15) 0.3752(5) 0.31480(18)
H37_2 H 0.2940 0.4350 0.3378
C63_2 C 0.25310(15) 0.3574(5) 0.25642(18)
H38_2 H 0.2666 0.4057 0.2398
C64_2 C 0.21672(13) 0.2663(5) 0.22360(16)
C65_2 C 0.19615(15) 0.1952(5) 0.24760(18)
H39_2 H 0.1714 0.1342 0.2247
C66_2 C 0.21257(15) 0.2154(5) 0.30584(17)
H40_2 H 0.1990 0.1668 0.3224
O11_2 O 0.27017(10) 0.5273(3) 0.01786(12)
O12_2 O 0.32004(13) 0.3584(4) 0.06428(18)
O13_2 O 0.19665(10) 0.2460(4) 0.16411(12)
O14_2 O 0.29910(10) 0.4194(3) 0.43052(12)
Zn8_2 Zn 0.327970(14) 0.49373(5) 0.509910(19)
N3_2 N 0.37219(11) 0.3659(3) 0.00655(14)
O16_3 O 0.77017(10) 0.9727(3) 0.51786(12)
O18_2 O 0.70090(10) 0.5806(3) 0.56948(12)
O20_3 O 0.75417(10) 0.7308(3) 0.57715(11)
O21_3 O 0.81762(9) 0.6808(3) 0.54544(13)
Zn9_2 Zn 0.672030(14) 0.49373(5) 0.990090(19)
O17_2 O 0.29910(10) 0.5806(3) 0.93052(12)
C30_3 C 0.53946(15) 0.9409(5) 0.5060(2)
C31_3 C 0.57940(17) 0.8730(5) 0.5139(3)
H18_3 H 0.5998 0.9285 0.5102
C32_3 C 0.5884(2) 0.7325(6) 0.5266(3)
H19_3 H 0.6145 0.6919 0.5313
C33_3 C 0.5580(2) 0.6462(6) 0.5328(4)
H20_3 H 0.5647 0.5494 0.5427
C41_3 C 0.39864(16) 0.7216(5) 0.5509(2)
H25_3 H 0.3955 0.7215 0.5826
C42_3 C 0.43074(17) 0.8131(6) 0.5528(2)
H26_3 H 0.4490 0.8714 0.5853
C43_3 C 0.43515(14) 0.8162(4) 0.5055(2)
C44_3 C 0.40684(14) 0.7282(4) 0.45892(19)
H27_3 H 0.4083 0.7289 0.4259
C45_3 C 0.37638(13) 0.6392(4) 0.46104(18)
H28_3 H 0.3578 0.5797 0.4291
C46_3 C 0.46886(14) 0.9119(5) 0.5041(2)
C47_3 C 0.50833(15) 0.8521(5) 0.5116(2)
C48_3 C 0.51881(18) 0.7041(5) 0.5242(3)
H29_3 H 0.4985 0.6446 0.5267
N2_3 N 0.37219(11) 0.6341(3) 0.50655(14)
C22_4 C 0.39864(16) 0.2784(5) 0.0509(2)
H13_4 H 0.3955 0.2785 0.0826
C23_4 C 0.43074(17) 0.1869(6) 0.0528(2)
H14_4 H 0.4490 0.1286 0.0853
C24_4 C 0.43515(14) 0.1838(4) 0.0055(2)
C27_4 C 0.46886(14) 0.0881(5) 0.0041(2)
C28_4 C 0.50833(15) 0.1479(5) 0.0116(2)
C29_4 C 0.51881(18) 0.2959(5) 0.0242(3)
H17_4 H 0.4985 0.3554 0.0267
C49_4 C 0.53946(15) 0.0591(5) 0.0060(2)
C50_4 C 0.57940(17) 0.1270(5) 0.0139(3)
H30_4 H 0.5998 0.0715 0.0102
C51_4 C 0.5884(2) 0.2675(6) 0.0266(3)
H31_4 H 0.6145 0.3081 0.0313
C52_4 C 0.5580(2) 0.3538(6) 0.0328(4)
H32_4 H 0.5647 0.4506 0.0427
C25_4 C 0.40684(14) 0.2718(4) 0.95892(19)
H15_4 H 0.4083 0.2711 0.9259
C26_4 C 0.37638(13) 0.3608(4) 0.96104(18)
H16_4 H 0.3578 0.4203 0.9291
O16_4 O 0.22983(10) 0.9727(3) 0.98214(12)
O20_4 O 0.24583(10) 0.7308(3) 0.92285(11)
O21_4 O 0.18238(9) 0.6808(3) 0.95456(13)
C44_4 C 0.59316(14) 0.7282(4) 0.04108(19)
H27_4 H 0.5917 0.7289 0.0741
C45_4 C 0.62362(13) 0.6392(4) 0.03896(18)
H28_4 H 0.6422 0.5797 0.0709
C30_4 C 0.46054(15) 0.9409(5) 0.9940(2)
C31_4 C 0.42060(17) 0.8730(5) 0.9861(3)
H18_4 H 0.4002 0.9285 0.9898
C32_4 C 0.4116(2) 0.7325(6) 0.9734(3)
H19_4 H 0.3855 0.6919 0.9687
C33_4 C 0.4420(2) 0.6462(6) 0.9672(4)
H20_4 H 0.4353 0.5494 0.9573
C41_4 C 0.60136(16) 0.7216(5) 0.9491(2)
H25_4 H 0.6045 0.7215 0.9174
C42_4 C 0.56926(17) 0.8131(6) 0.9472(2)
H26_4 H 0.5510 0.8714 0.9147
C43_4 C 0.56485(14) 0.8162(4) 0.9945(2)
C46_4 C 0.53114(14) 0.9119(5) 0.9959(2)
C47_4 C 0.49167(15) 0.8521(5) 0.9884(2)
C48_4 C 0.48119(18) 0.7041(5) 0.9758(3)
H29_4 H 0.5015 0.6446 0.9733
N2_4 N 0.62781(11) 0.6341(3) 0.99345(14)
C53_3 C 0.21501(15) 0.0777(5) 0.94661(18)
C54_3 C 0.23882(14) 0.1243(4) 0.91793(18)
C55_3 C 0.27841(15) 0.0587(5) 0.93059(19)
C56_3 C 0.29922(14) 0.0991(5) 0.90194(19)
H34_3 H 0.3258 0.0536 0.9101
C57_3 C 0.27986(14) 0.2083(5) 0.86099(17)
C58_3 C 0.24121(18) 0.2754(6) 0.8488(2)
H35_3 H 0.2286 0.3496 0.8214
C59_3 C 0.22069(17) 0.2326(6) 0.8775(2)
H36_3 H 0.1940 0.2782 0.8691
C60_3 C 0.23420(13) 0.1674(4) 0.59706(16)
C61_3 C 0.25121(13) 0.1934(4) 0.66005(16)
C62_3 C 0.23099(15) 0.1248(5) 0.68520(18)
H37_3 H 0.2060 0.0650 0.6622
C63_3 C 0.24690(15) 0.1426(5) 0.74358(18)
H38_3 H 0.2334 0.0943 0.7602
C64_3 C 0.28328(13) 0.2337(5) 0.77640(16)
C65_3 C 0.30385(15) 0.3048(5) 0.75240(18)
H39_3 H 0.3286 0.3658 0.7753
C66_3 C 0.28743(15) 0.2846(5) 0.69416(17)
H40_3 H 0.3010 0.3332 0.6776
O12_3 O 0.17996(13) 0.1416(4) 0.93572(18)
O13_3 O 0.30335(10) 0.2540(4) 0.83589(12)
H11_3 H 0.0056 0.6062 0.6959
O8_3 O 0.0000 0.3883(5) 0.7500
C34_3 C 0.14255(14) 0.7258(4) 0.92860(17)
C35_3 C 0.10506(13) 0.6294(5) 0.88452(17)
C36_3 C 0.11387(16) 0.5084(5) 0.8638(2)
H21_2 H 0.1440 0.4798 0.8801
C37_2 C 0.07883(17) 0.4273(5) 0.8192(2)
H22_2 H 0.0852 0.3452 0.8053
C38_2 C 0.03470(16) 0.4699(5) 0.7959(2)
C39_3 C 0.02473(15) 0.5836(6) 0.8182(2)
C40_3 C 0.05976(15) 0.6658(5) 0.8621(2)
H24_3 H 0.0530 0.7457 0.8766
O10_3 O 0.13020(10) 0.8471(3) 0.93616(14)
H33_3 H 0.2914 0.9863 0.9587
C1_3 C 0.78499(15) 0.0777(5) 0.55339(18)
C2_3 C 0.76118(14) 0.1243(4) 0.58207(18)
C3_3 C 0.72159(15) 0.0587(5) 0.56941(19)
C4_3 C 0.70078(14) 0.0991(5) 0.59806(19)
H2_3 H 0.6742 0.0536 0.5899
C5_3 C 0.72014(14) 0.2083(5) 0.63901(17)
C6_3 C 0.75879(18) 0.2754(6) 0.6512(2)
H3_3 H 0.7714 0.3496 0.6786
C7_3 C 0.77931(17) 0.2326(6) 0.6225(2)
H4_3 H 0.8060 0.2782 0.6309
C8_3 C 0.76580(13) 0.1674(4) 0.90294(16)
C9_3 C 0.74879(13) 0.1934(4) 0.83995(16)
C10_3 C 0.76901(15) 0.1248(5) 0.81480(18)
H5_3 H 0.7940 0.0650 0.8378
C11_3 C 0.75310(15) 0.1426(5) 0.75642(18)
H6_3 H 0.7666 0.0943 0.7398
C12_3 C 0.71672(13) 0.2337(5) 0.72360(16)
C13_3 C 0.69615(15) 0.3048(5) 0.74760(18)
H7_3 H 0.6714 0.3658 0.7247
C14_3 C 0.71257(15) 0.2846(5) 0.80584(17)
H8_3 H 0.6990 0.3332 0.8224
O2_3 O 0.82004(13) 0.1416(4) 0.56428(18)
O3_3 O 0.69665(10) 0.2540(4) 0.66411(12)
H1_3 H 0.7086 0.9863 0.5413
C15_3 C 0.85745(14) 0.7258(4) 0.57140(17)
C16_3 C 0.89494(13) 0.6294(5) 0.61548(17)
C17_3 C 0.88613(16) 0.5084(5) 0.6362(2)
H9_2 H 0.8560 0.4798 0.6199
C18_2 C 0.92117(17) 0.4273(5) 0.6808(2)
H10_2 H 0.9148 0.3452 0.6947
C19_2 C 0.96530(16) 0.4699(5) 0.7041(2)
C20_3 C 0.97527(15) 0.5836(6) 0.6818(2)
C21_3 C 0.94024(15) 0.6658(5) 0.6379(2)
H12_3 H 0.9470 0.7457 0.6234
O7_3 O 0.86980(10) 0.8471(3) 0.56384(14)
O8_4 O 1.0000 0.3883(5) 0.7500
H23_3 H 0.9944 0.6062 0.8041
C1_4 C 0.28499(15) 0.5777(5) 0.55339(18)
C2_4 C 0.26118(14) 0.6243(4) 0.58207(18)
C3_4 C 0.22159(15) 0.5587(5) 0.56941(19)
H1_4 H 0.2086 0.4863 0.5413
C4_4 C 0.20078(14) 0.5991(5) 0.59806(19)
H2_4 H 0.1742 0.5536 0.5899
C5_4 C 0.22014(14) 0.7083(5) 0.63901(17)
C6_4 C 0.25879(18) 0.7754(6) 0.6512(2)
H3_4 H 0.2714 0.8496 0.6786
C7_4 C 0.27931(17) 0.7326(6) 0.6225(2)
H4_4 H 0.3060 0.7782 0.6309
C8_4 C 0.26580(13) 0.6674(4) 0.90294(16)
C9_4 C 0.24879(13) 0.6934(4) 0.83995(16)
C10_4 C 0.26901(15) 0.6248(5) 0.81480(18)
H5_4 H 0.2940 0.5650 0.8378
C11_4 C 0.25310(15) 0.6426(5) 0.75642(18)
H6_4 H 0.2666 0.5943 0.7398
C12_4 C 0.21672(13) 0.7337(5) 0.72360(16)
C13_4 C 0.19615(15) 0.8048(5) 0.74760(18)
H7_4 H 0.1714 0.8658 0.7247
C14_4 C 0.21257(15) 0.7846(5) 0.80584(17)
H8_4 H 0.1990 0.8332 0.8224
C15_4 C 0.35745(14) 0.2258(4) 0.57140(17)
C16_4 C 0.39494(13) 0.1294(5) 0.61548(17)
C17_4 C 0.38613(16) 0.0084(5) 0.6362(2)
C20_4 C 0.47527(15) 0.0836(6) 0.6818(2)
H11_4 H 0.5056 0.1062 0.6959
C21_4 C 0.44024(15) 0.1658(5) 0.6379(2)
H12_4 H 0.4470 0.2457 0.6234
O2_4 O 0.32004(13) 0.6416(4) 0.56428(18)
O3_4 O 0.19665(10) 0.7540(4) 0.66411(12)
O7_4 O 0.36980(10) 0.3471(3) 0.56384(14)
C34_4 C 0.64255(14) 0.2258(4) 0.92860(17)
C35_4 C 0.60506(13) 0.1294(5) 0.88452(17)
C36_4 C 0.61387(16) 0.0084(5) 0.8638(2)
C39_4 C 0.52473(15) 0.0836(6) 0.8182(2)
H23_4 H 0.4944 0.1062 0.8041
C40_4 C 0.55976(15) 0.1658(5) 0.8621(2)
H24_4 H 0.5530 0.2457 0.8766
O10_4 O 0.63020(10) 0.3471(3) 0.93616(14)
C53_4 C 0.71501(15) 0.5777(5) 0.94661(18)
C54_4 C 0.73882(14) 0.6243(4) 0.91793(18)
C55_4 C 0.77841(15) 0.5587(5) 0.93059(19)
H33_4 H 0.7914 0.4863 0.9587
C56_4 C 0.79922(14) 0.5991(5) 0.90194(19)
H34_4 H 0.8258 0.5536 0.9101
C57_4 C 0.77986(14) 0.7083(5) 0.86099(17)
C58_4 C 0.74121(18) 0.7754(6) 0.8488(2)
H35_4 H 0.7286 0.8496 0.8214
C59_4 C 0.72069(17) 0.7326(6) 0.8775(2)
H36_4 H 0.6940 0.7782 0.8691
C60_4 C 0.73420(13) 0.6674(4) 0.59706(16)
C61_4 C 0.75121(13) 0.6934(4) 0.66005(16)
C62_4 C 0.73099(15) 0.6248(5) 0.68520(18)
H37_4 H 0.7060 0.5650 0.6622
C63_4 C 0.74690(15) 0.6426(5) 0.74358(18)
H38_4 H 0.7334 0.5943 0.7602
C64_4 C 0.78328(13) 0.7337(5) 0.77640(16)
C65_4 C 0.80385(15) 0.8048(5) 0.75240(18)
H39_4 H 0.8286 0.8658 0.7753
C66_4 C 0.78743(15) 0.7846(5) 0.69416(17)
H40_4 H 0.8010 0.8332 0.6776
O12_4 O 0.67996(13) 0.6416(4) 0.93572(18)
O13_4 O 0.80335(10) 0.7540(4) 0.83589(12)
H9_3 H 0.6440 0.0202 0.3801
C18_3 C 0.57883(17) 0.0727(5) 0.3192(2)
H10_3 H 0.5852 0.1548 0.3053
C19_3 C 0.53470(16) 0.0301(5) 0.2959(2)
O8_5 O 0.5000 0.1117(5) 0.2500
H21_3 H 0.3560 0.0202 0.1199
C37_3 C 0.42117(17) 0.0727(5) 0.1808(2)
H22_3 H 0.4148 0.1548 0.1947
C38_3 C 0.46530(16) 0.0301(5) 0.2041(2)
H9_4 H 0.3560 0.9798 0.6199
C18_4 C 0.42117(17) 0.9273(5) 0.6808(2)
H10_4 H 0.4148 0.8452 0.6947
C19_4 C 0.46530(16) 0.9699(5) 0.7041(2)
O8_6 O 0.5000 0.8883(5) 0.7500
H21_4 H 0.6440 0.9798 0.8801
C37_4 C 0.57883(17) 0.9273(5) 0.8192(2)
H22_4 H 0.5852 0.8452 0.8053
C38_4 C 0.53470(16) 0.9699(5) 0.7959(2)
loop_
_geom_bond_atom_site_label_1
_geom_bond_atom_site_label_2
_geom_bond_site_symmetry_1
_geom_bond_site_symmetry_2
Zn1 O1 1_555 1_555
C15 C16 1_555 1_555
C16 C17 1_555 1_555
C17 H9 1_555 1_555
C18 C17 1_555 1_555
H10 C18 1_555 1_555
C19 C18 1_555 1_555
C20 C19 1_555 1_555
C21 C16 1_555 1_555
H12 C21 1_555 1_555
O1 Zn2 1_555 1_555
O6 Zn1 1_555 1_555
O7 Zn2 1_555 1_555
O8 C19 1_555 1_555
O16 Zn1 1_555 1_555
O18 Zn2 1_555 1_555
O19 Zn1 1_555 1_555
O20 Zn1 1_555 1_555
O21 Zn1 1_555 1_555
C15 O6 1_555 1_555
C15 O7 1_555 1_555
C20 C21 1_555 1_555
C1 C2 1_555 1_555
C2 C3 1_555 1_555
C4 C3 1_555 1_555
H2 C4 1_555 1_555
C5 C4 1_555 1_555
C6 C5 1_555 1_555
H3 C6 1_555 1_555
C7 C2 1_555 1_555
H4 C7 1_555 1_555
C8 C9 1_555 1_555
C9 C10 1_555 1_555
C10 H5 1_555 1_555
C11 C10 1_555 1_555
H6 C11 1_555 1_555
C12 C11 1_555 1_555
C13 C12 1_555 1_555
H7 C13 1_555 1_555
C14 C9 1_555 1_555
H8 C14 1_555 1_555
C22 H13 1_555 1_555
C23 C22 1_555 1_555
H14 C23 1_555 1_555
C24 C23 1_555 1_555
C25 C24 1_555 1_555
H15 C25 1_555 1_555
C26 C25 1_555 1_555
H16 C26 1_555 1_555
C27 C24 1_555 1_555
C30 C27 1_555 1_555
C31 C30 1_555 1_555
H18 C31 1_555 1_555
C32 C31 1_555 1_555
H19 C32 1_555 1_555
C33 C32 1_555 1_555
H20 C33 1_555 1_555
N1 C22 1_555 1_555
O3 C5 1_555 1_555
O4 C8 1_555 1_555
O5 C8 1_555 1_555
C47 C30 1_555 1_555
C48 C33 1_555 1_555
Zn6 O5 1_555 1_555
C1 O2 1_555 1_555
C6 C7 1_555 1_555
C12 O3 1_555 1_555
C13 C14 1_555 1_555
C26 N1 1_555 1_555
C47 C48 1_555 1_555
C34 C35 1_555 1_555
C35 C36 1_555 1_555
C36 H21 1_555 1_555
C37 C36 1_555 1_555
H22 C37 1_555 1_555
C38 O8_2 1_555 1_555
C39 C38 1_555 1_555
C40 C35 1_555 1_555
H24 C40 1_555 1_555
O9 C34 1_555 1_555
O10 C34 1_555 1_555
Zn3 O10 1_555 1_555
O11 Zn3 1_555 1_555
Zn4 O9 1_555 1_555
C37 C38 1_555 1_555
C39 C40 1_555 1_555
O11 Zn4 1_555 1_555
C29 C28 1_555 1_555
C41 H25 1_555 1_555
C42 C41 1_555 1_555
H26 C42 1_555 1_555
C43 C42 1_555 1_555
C44 C43 1_555 1_555
H27 C44 1_555 1_555
C45 C44 1_555 1_555
H28 C45 1_555 1_555
C46 C43 1_555 1_555
C49 C28 1_555 1_555
C50 C49 1_555 1_555
H30 C50 1_555 1_555
C51 C50 1_555 1_555
H31 C51 1_555 1_555
C52 C29 1_555 1_555
H32 C52 1_555 1_555
N2 C41 1_555 1_555
C53 C54 1_555 1_555
C54 C55 1_555 1_555
C56 C55 1_555 1_555
H34 C56 1_555 1_555
C57 C56 1_555 1_555
C58 C57 1_555 1_555
H35 C58 1_555 1_555
C59 C54 1_555 1_555
H36 C59 1_555 1_555
C60 C61 1_555 1_555
C61 C62 1_555 1_555
C62 H37 1_555 1_555
C63 C62 1_555 1_555
H38 C63 1_555 1_555
C64 C63 1_555 1_555
C65 C64 1_555 1_555
H39 C65 1_555 1_555
C66 C61 1_555 1_555
H40 C66 1_555 1_555
O13 C57 1_555 1_555
O14 C60 1_555 1_555
O15 C60 1_555 1_555
Zn5 O15 1_555 1_555
Zn8 O14 1_555 1_555
C45 N2 1_555 1_555
C46 C49 1_555 1_555
C51 C52 1_555 1_555
C53 O12 1_555 1_555
C58 C59 1_555 1_555
C64 O13 1_555 1_555
C65 C66 1_555 1_555
C29_2 C28_2 1_555 1_555
H27_2 C44_2 1_555 1_555
C45_2 C44_2 1_555 1_555
H28_2 C45_2 1_555 1_555
C49_2 C28_2 1_555 1_555
C50_2 C49_2 1_555 1_555
H30_2 C50_2 1_555 1_555
C51_2 C50_2 1_555 1_555
H31_2 C51_2 1_555 1_555
C52_2 C29_2 1_555 1_555
H32_2 C52_2 1_555 1_555
C51_2 C52_2 1_555 1_555
C41_2 H25_2 1_555 1_555
C42_2 C41_2 1_555 1_555
H26_2 C42_2 1_555 1_555
C43_2 C42_2 1_555 1_555
C46_2 C43_2 1_555 1_555
N2_2 C41_2 1_555 1_555
O19_2 Zn4 1_555 1_555
O16_2 Zn4_2 1_555 1_555
O20_2 Zn4_2 1_555 1_555
O21_2 Zn4_2 1_555 1_555
C22_2 H13_2 1_555 1_555
C23_2 C22_2 1_555 1_555
H14_2 C23_2 1_555 1_555
C24_2 C23_2 1_555 1_555
C27_2 C24_2 1_555 1_555
N3 C22_2 1_555 1_555
H15_2 C25_2 1_555 1_555
C26_2 C25_2 1_555 1_555
H16_2 C26_2 1_555 1_555
C31_2 C30_2 1_555 1_555
H18_2 C31_2 1_555 1_555
C32_2 C31_2 1_555 1_555
H19_2 C32_2 1_555 1_555
C33_2 C32_2 1_555 1_555
H20_2 C33_2 1_555 1_555
C47_2 C30_2 1_555 1_555
C48_2 C33_2 1_555 1_555
C47_2 C48_2 1_555 1_555
Zn5 O1_2 1_555 1_555
Zn2_2 N1_2 1_555 1_555
C1_2 C2_2 1_555 1_555
C2_2 C3_2 1_555 1_555
C3_2 H1_2 1_555 1_555
C4_2 C3_2 1_555 1_555
H2_2 C4_2 1_555 1_555
C5_2 C4_2 1_555 1_555
C6_2 C5_2 1_555 1_555
H3_2 C6_2 1_555 1_555
C7_2 C2_2 1_555 1_555
H4_2 C7_2 1_555 1_555
C8_2 C9_2 1_555 1_555
C9_2 C10_2 1_555 1_555
C10_2 H5_2 1_555 1_555
C11_2 C10_2 1_555 1_555
H6_2 C11_2 1_555 1_555
C12_2 C11_2 1_555 1_555
C13_2 C12_2 1_555 1_555
H7_2 C13_2 1_555 1_555
C14_2 C9_2 1_555 1_555
H8_2 C14_2 1_555 1_555
C15_2 C16_2 1_555 1_555
C16_2 C17_2 1_555 1_555
H11_2 C20_2 1_555 1_555
C21_2 C16_2 1_555 1_555
H12_2 C21_2 1_555 1_555
C22_3 H13_3 1_555 1_555
C23_3 C22_3 1_555 1_555
H14_3 C23_3 1_555 1_555
C24_3 C23_3 1_555 1_555
C25_3 C24_3 1_555 1_555
H15_3 C25_3 1_555 1_555
C26_3 C25_3 1_555 1_555
H16_3 C26_3 1_555 1_555
C27_3 C24_3 1_555 1_555
C28_3 C27_3 1_555 1_555
C29_3 C28_3 1_555 1_555
H17_3 C29_3 1_555 1_555
N1_2 C22_3 1_555 1_555
O1_2 Zn2_2 1_555 1_555
O2_2 Zn2_2 1_555 1_555
O3_2 C5_2 1_555 1_555
O4_2 C8_2 1_555 1_555
O19_2 C8_2 1_555 1_555
O6_2 Zn5 1_555 1_555
O7_2 Zn2_2 1_555 1_555
C34_2 C35_2 1_555 1_555
C35_2 C36_2 1_555 1_555
H23_2 C39_2 1_555 1_555
C40_2 C35_2 1_555 1_555
H24_2 C40_2 1_555 1_555
O9_2 C34_2 1_555 1_555
O10_2 C34_2 1_555 1_555
C49_3 C28_3 1_555 1_555
C50_3 C49_3 1_555 1_555
H30_3 C50_3 1_555 1_555
C51_3 C50_3 1_555 1_555
H31_3 C51_3 1_555 1_555
C52_3 C29_3 1_555 1_555
H32_3 C52_3 1_555 1_555
Zn3_2 O10_2 1_555 1_555
C53_2 C54_2 1_555 1_555
C54_2 C55_2 1_555 1_555
C55_2 H33_2 1_555 1_555
C56_2 C55_2 1_555 1_555
H34_2 C56_2 1_555 1_555
C57_2 C56_2 1_555 1_555
C58_2 C57_2 1_555 1_555
H35_2 C58_2 1_555 1_555
C59_2 C54_2 1_555 1_555
H36_2 C59_2 1_555 1_555
C60_2 C61_2 1_555 1_555
C61_2 C62_2 1_555 1_555
C62_2 H37_2 1_555 1_555
C63_2 C62_2 1_555 1_555
H38_2 C63_2 1_555 1_555
C64_2 C63_2 1_555 1_555
C65_2 C64_2 1_555 1_555
H39_2 C65_2 1_555 1_555
C66_2 C61_2 1_555 1_555
H40_2 C66_2 1_555 1_555
O11_2 Zn3_2 1_555 1_555
O12_2 Zn3_2 1_555 1_555
O13_2 C57_2 1_555 1_555
O14_2 C60_2 1_555 1_555
O19 C60_2 1_555 1_555
Zn6 O9_2 1_555 1_555
Zn8_2 O14_2 1_555 1_555
N3_2 Zn3_2 1_555 1_555
O16_3 Zn5 1_555 1_555
O18_2 Zn2_2 1_555 1_555
O20_3 Zn5 1_555 1_555
O21_3 Zn5 1_555 1_555
C1_2 O1_2 1_555 1_555
C1_2 O2_2 1_555 1_555
C6_2 C7_2 1_555 1_555
C12_2 O3_2 1_555 1_555
C13_2 C14_2 1_555 1_555
C15_2 O6_2 1_555 1_555
C15_2 O7_2 1_555 1_555
C20_2 C21_2 1_555 1_555
C26_3 N1_2 1_555 1_555
C39_2 C40_2 1_555 1_555
C51_3 C52_3 1_555 1_555
C53_2 O11_2 1_555 1_555
C53_2 O12_2 1_555 1_555
C58_2 C59_2 1_555 1_555
C64_2 O13_2 1_555 1_555
C65_2 C66_2 1_555 1_555
O11_2 Zn6 1_555 1_555
C31_3 C30_3 1_555 1_555
H18_3 C31_3 1_555 1_555
C32_3 C31_3 1_555 1_555
H19_3 C32_3 1_555 1_555
C33_3 C32_3 1_555 1_555
H20_3 C33_3 1_555 1_555
C41_3 H25_3 1_555 1_555
C42_3 C41_3 1_555 1_555
H26_3 C42_3 1_555 1_555
C43_3 C42_3 1_555 1_555
C44_3 C43_3 1_555 1_555
H27_3 C44_3 1_555 1_555
C45_3 C44_3 1_555 1_555
H28_3 C45_3 1_555 1_555
C46_3 C43_3 1_555 1_555
C47_3 C30_3 1_555 1_555
C48_3 C33_3 1_555 1_555
H29_3 C48_3 1_555 1_555
N2_3 C41_3 1_555 1_555
Zn8_2 N2_3 1_555 1_555
C45_3 N2_3 1_555 1_555
C46_3 C47_3 1_555 1_555
C47_3 C48_3 1_555 1_555
C22_4 H13_4 1_555 1_555
C23_4 C22_4 1_555 1_555
H14_4 C23_4 1_555 1_555
C24_4 C23_4 1_555 1_555
C27_4 C24_4 1_555 1_555
C28_4 C27_4 1_555 1_555
C29_4 C28_4 1_555 1_555
H17_4 C29_4 1_555 1_555
N3_2 C22_4 1_555 1_555
C49_4 C28_4 1_555 1_555
C50_4 C49_4 1_555 1_555
H30_4 C50_4 1_555 1_555
C51_4 C50_4 1_555 1_555
H31_4 C51_4 1_555 1_555
C52_4 C29_4 1_555 1_555
H32_4 C52_4 1_555 1_555
C51_4 C52_4 1_555 1_555
H15_4 C25_4 1_555 1_555
C26_4 C25_4 1_555 1_555
H16_4 C26_4 1_555 1_555
O16_4 Zn6_2 1_555 1_555
O20_4 Zn6_2 1_555 1_555
O21_4 Zn6_2 1_555 1_555
H27_4 C44_4 1_555 1_555
C45_4 C44_4 1_555 1_555
H28_4 C45_4 1_555 1_555
C31_4 C30_4 1_555 1_555
H18_4 C31_4 1_555 1_555
C32_4 C31_4 1_555 1_555
H19_4 C32_4 1_555 1_555
C33_4 C32_4 1_555 1_555
H20_4 C33_4 1_555 1_555
C41_4 H25_4 1_555 1_555
C42_4 C41_4 1_555 1_555
H26_4 C42_4 1_555 1_555
C43_4 C42_4 1_555 1_555
C46_4 C43_4 1_555 1_555
C47_4 C30_4 1_555 1_555
C48_4 C33_4 1_555 1_555
H29_4 C48_4 1_555 1_555
N2_4 C41_4 1_555 1_555
Zn9_2 N2_4 1_555 1_555
C46_4 C47_4 1_555 1_555
C47_4 C48_4 1_555 1_555
C53_3 C54_3 1_555 1_555
C54_3 C55_3 1_555 1_555
C56_3 C55_3 1_555 1_555
H34_3 C56_3 1_555 1_555
C57_3 C56_3 1_555 1_555
C58_3 C57_3 1_555 1_555
H35_3 C58_3 1_555 1_555
C59_3 C54_3 1_555 1_555
H36_3 C59_3 1_555 1_555
C60_3 C61_3 1_555 1_555
C61_3 C62_3 1_555 1_555
C62_3 H37_3 1_555 1_555
C63_3 C62_3 1_555 1_555
H38_3 C63_3 1_555 1_555
C64_3 C63_3 1_555 1_555
C65_3 C64_3 1_555 1_555
H39_3 C65_3 1_555 1_555
C66_3 C61_3 1_555 1_555
H40_3 C66_3 1_555 1_555
O13_3 C57_3 1_555 1_555
O18 C60_3 1_555 1_555
O20 C60_3 1_555 1_555
C53_3 O12_3 1_555 1_555
C58_3 C59_3 1_555 1_555
C64_3 O13_3 1_555 1_555
C65_3 C66_3 1_555 1_555
C34_3 C35_3 1_555 1_555
C35_3 C36_3 1_555 1_555
C36_3 H21_2 1_555 1_555
C37_2 C36_3 1_555 1_555
H22_2 C37_2 1_555 1_555
C38_2 O8_3 1_555 1_555
C39_3 C38_2 1_555 1_555
C40_3 C35_3 1_555 1_555
H24_3 C40_3 1_555 1_555
O21_4 C34_3 1_555 1_555
O10_3 C34_3 1_555 1_555
Zn9 O10_3 1_555 1_555
O16_4 Zn9 1_555 1_555
C37_2 C38_2 1_555 1_555
C39_3 C40_3 1_555 1_555
C1_3 C2_3 1_555 1_555
C2_3 C3_3 1_555 1_555
C4_3 C3_3 1_555 1_555
H2_3 C4_3 1_555 1_555
C5_3 C4_3 1_555 1_555
C6_3 C5_3 1_555 1_555
H3_3 C6_3 1_555 1_555
C7_3 C2_3 1_555 1_555
H4_3 C7_3 1_555 1_555
C8_3 C9_3 1_555 1_555
C9_3 C10_3 1_555 1_555
C10_3 H5_3 1_555 1_555
C11_3 C10_3 1_555 1_555
H6_3 C11_3 1_555 1_555
C12_3 C11_3 1_555 1_555
C13_3 C12_3 1_555 1_555
H7_3 C13_3 1_555 1_555
C14_3 C9_3 1_555 1_555
H8_3 C14_3 1_555 1_555
O3_3 C5_3 1_555 1_555
O17 C8_3 1_555 1_555
O20_2 C8_3 1_555 1_555
C1_3 O2_3 1_555 1_555
C6_3 C7_3 1_555 1_555
C12_3 O3_3 1_555 1_555
C13_3 C14_3 1_555 1_555
C15_3 C16_3 1_555 1_555
C16_3 C17_3 1_555 1_555
C17_3 H9_2 1_555 1_555
C18_2 C17_3 1_555 1_555
H10_2 C18_2 1_555 1_555
C19_2 C18_2 1_555 1_555
C20_3 C19_2 1_555 1_555
C21_3 C16_3 1_555 1_555
H12_3 C21_3 1_555 1_555
O16_3 Zn8 1_555 1_555
O7_3 Zn8 1_555 1_555
O8_4 C19_2 1_555 1_555
C15_3 O21_3 1_555 1_555
C15_3 O7_3 1_555 1_555
C20_3 C21_3 1_555 1_555
C1_4 C2_4 1_555 1_555
C2_4 C3_4 1_555 1_555
C3_4 H1_4 1_555 1_555
C4_4 C3_4 1_555 1_555
H2_4 C4_4 1_555 1_555
C5_4 C4_4 1_555 1_555
C6_4 C5_4 1_555 1_555
H3_4 C6_4 1_555 1_555
C7_4 C2_4 1_555 1_555
H4_4 C7_4 1_555 1_555
C8_4 C9_4 1_555 1_555
C9_4 C10_4 1_555 1_555
C10_4 H5_4 1_555 1_555
C11_4 C10_4 1_555 1_555
H6_4 C11_4 1_555 1_555
C12_4 C11_4 1_555 1_555
C13_4 C12_4 1_555 1_555
H7_4 C13_4 1_555 1_555
C14_4 C9_4 1_555 1_555
H8_4 C14_4 1_555 1_555
C15_4 C16_4 1_555 1_555
C16_4 C17_4 1_555 1_555
H11_4 C20_4 1_555 1_555
C21_4 C16_4 1_555 1_555
H12_4 C21_4 1_555 1_555
O16 Zn8_2 1_555 1_555
O2_4 Zn8_2 1_555 1_555
O3_4 C5_4 1_555 1_555
O17_2 C8_4 1_555 1_555
O20_4 C8_4 1_555 1_555
O7_4 Zn8_2 1_555 1_555
C34_4 C35_4 1_555 1_555
C35_4 C36_4 1_555 1_555
H23_4 C39_4 1_555 1_555
C40_4 C35_4 1_555 1_555
H24_4 C40_4 1_555 1_555
O21_2 C34_4 1_555 1_555
O10_4 C34_4 1_555 1_555
Zn9_2 O10_4 1_555 1_555
C53_4 C54_4 1_555 1_555
C54_4 C55_4 1_555 1_555
C55_4 H33_4 1_555 1_555
C56_4 C55_4 1_555 1_555
H34_4 C56_4 1_555 1_555
C57_4 C56_4 1_555 1_555
C58_4 C57_4 1_555 1_555
H35_4 C58_4 1_555 1_555
C59_4 C54_4 1_555 1_555
H36_4 C59_4 1_555 1_555
C60_4 C61_4 1_555 1_555
C61_4 C62_4 1_555 1_555
C62_4 H37_4 1_555 1_555
C63_4 C62_4 1_555 1_555
H38_4 C63_4 1_555 1_555
C64_4 C63_4 1_555 1_555
C65_4 C64_4 1_555 1_555
H39_4 C65_4 1_555 1_555
C66_4 C61_4 1_555 1_555
H40_4 C66_4 1_555 1_555
O16_2 Zn9_2 1_555 1_555
O12_4 Zn9_2 1_555 1_555
O13_4 C57_4 1_555 1_555
O18_2 C60_4 1_555 1_555
O20_3 C60_4 1_555 1_555
C1_4 O16 1_555 1_555
C1_4 O2_4 1_555 1_555
C6_4 C7_4 1_555 1_555
C12_4 O3_4 1_555 1_555
C13_4 C14_4 1_555 1_555
C15_4 O21 1_555 1_555
C15_4 O7_4 1_555 1_555
C20_4 C21_4 1_555 1_555
C39_4 C40_4 1_555 1_555
C53_4 O16_2 1_555 1_555
C53_4 O12_4 1_555 1_555
C58_4 C59_4 1_555 1_555
C64_4 O13_4 1_555 1_555
C65_4 C66_4 1_555 1_555
H10_3 C18_3 1_555 1_555
C19_3 C18_3 1_555 1_555
O8_5 C19_3 1_555 1_555
H22_3 C37_3 1_555 1_555
C38_3 O8_5 1_555 1_555
C37_3 C38_3 1_555 1_555
H10_4 C18_4 1_555 1_555
C19_4 C18_4 1_555 1_555
O8_6 C19_4 1_555 1_555
H22_4 C37_4 1_555 1_555
C38_4 O8_6 1_555 1_555
C37_4 C38_4 1_555 1_555

#END
