
###############################################################################
#
# This file contains modified crystal structure data generated from the
# MOF subset of the Cambridge Structural Database (CSD) v543 
# hosted by the Cambridge Crystallographic Data Centre (CCDC).
#
# This work is licensed under the Creative Commons
# Attribution-NonCommercial-ShareAlike 4.0 International License.
# To view a copy of this license, visit
# http://creativecommons.org/licenses/by-nc-sa/4.0/
# or send a letter to
# Creative Commons, PO Box 1866, Mountain View, CA 94042, USA.
#
# CIF created using the CSD Python API on 29 September 2022
# The structure has been converted into the P1 space group
# The structure has a 3D framework
# The original CSD entry XIDHID is in the monoclinic crystal system
# The framework has been calculated to contain at least 10.0% void space
# The void calculation uses a probe of radius 1.32A, grid spacing 0.4
# The framework is charged, counterions have been retained in the structure
#
###############################################################################

data_XIDHID
_chemical_formula_moiety         '(C104 H96 Cd8 N24 O32)n'
_symmetry_cell_setting           triclinic
_symmetry_space_group_name_H-M   'P 1'
_symmetry_Int_Tables_number      1
_space_group_name_Hall           'P 1'
loop_
_symmetry_equiv_pos_site_id
_symmetry_equiv_pos_as_xyz
1 x,y,z
_cell_length_a                   13.0090(5)
_cell_length_b                   13.9830(5)
_cell_length_c                   18.5070(6)
_cell_angle_alpha                90
_cell_angle_beta                 105.133(4)
_cell_angle_gamma                90
_cell_volume                     3249.77
loop_
_atom_site_label
_atom_site_type_symbol
_atom_site_fract_x
_atom_site_fract_y
_atom_site_fract_z
Cd6 Cd 0.301281(16) 0.372471(13) 0.028436(10)
O16 O 0.18717(17) 0.04076(13) 0.07471(10)
O18 O 0.23725(19) 0.23655(14) 0.06782(10)
Cd1 Cd 0.801281(16) 0.127529(13) 0.528436(10)
C1 C 0.5095(2) 0.6023(2) 0.60263(15)
C2 C 0.6246(2) 0.59978(19) 0.64889(16)
H1 H 0.6707 0.6158 0.6171
H2 H 0.6348 0.6477 0.6880
C3 C 0.6449(2) 0.4891(2) 0.75306(15)
H3 H 0.6229 0.5386 0.7791
C4 C 0.6656(3) 0.4031(2) 0.78556(16)
H4 H 0.6571 0.3921 0.8332
C5 C 0.7002(2) 0.3304(2) 0.74590(15)
H5 H 0.7162 0.2708 0.7683
C6 C 0.7113(2) 0.34418(19) 0.67498(14)
C7 C 0.6846(2) 0.43540(19) 0.63930(14)
C8 C 0.7525(2) 0.26263(19) 0.63850(15)
C9 C 0.6149(2) 0.0380(2) 0.59060(17)
H6 H 0.6056 0.0961 0.6125
H11 H 0.5853 0.0004 0.7387
N1 N 0.65519(18) 0.50562(15) 0.68314(12)
N3 N 0.68050(19) 0.02463(17) 0.54828(13)
O1 O 0.48043(16) 0.67711(14) 0.56547(11)
O2 O 0.44878(15) 0.53448(14) 0.60436(11)
O3 O 0.68717(17) 0.45924(13) 0.57471(10)
O4 O 0.73725(19) 0.26345(14) 0.56782(10)
O5 O 0.7977(2) 0.19623(16) 0.67652(12)
C14 C 0.3851(2) 0.0380(2) 0.90940(17)
H13 H 0.3944 0.0961 0.8875
H18 H 0.4147 0.0004 0.7613
N5 N 0.31950(19) 0.02463(17) 0.95172(13)
Cd2 Cd 0.198719(16) 0.127529(13) 0.971564(10)
C19 C 0.4905(2) 0.6023(2) 0.89737(15)
C20 C 0.3754(2) 0.59978(19) 0.85111(16)
H20 H 0.3293 0.6158 0.8829
H21 H 0.3652 0.6477 0.8120
C21 C 0.3551(2) 0.4891(2) 0.74694(15)
H22 H 0.3771 0.5386 0.7209
C22 C 0.3344(3) 0.4031(2) 0.71444(16)
H23 H 0.3429 0.3921 0.6668
C23 C 0.2998(2) 0.3304(2) 0.75410(15)
H24 H 0.2838 0.2708 0.7317
C24 C 0.2887(2) 0.34418(19) 0.82502(14)
C25 C 0.3154(2) 0.43540(19) 0.86070(14)
C26 C 0.2475(2) 0.26263(19) 0.86150(15)
N6 N 0.34481(18) 0.50562(15) 0.81686(12)
O6 O 0.51957(16) 0.67711(14) 0.93453(11)
O7 O 0.55122(15) 0.53448(14) 0.89564(11)
O8 O 0.31283(17) 0.45924(13) 0.92529(10)
O9 O 0.26275(19) 0.26345(14) 0.93218(10)
O10 O 0.2023(2) 0.19623(16) 0.82348(12)
Cd3 Cd 0.301281(16) 0.627529(13) 0.528436(10)
Cd4 Cd 0.698719(16) 0.627529(13) 0.971564(10)
Cd5 Cd 0.698719(16) 0.372471(13) 0.471564(10)
O11 O 0.98043(16) 0.17711(14) 0.56547(11)
O12 O 0.01957(16) 0.17711(14) 0.93453(11)
O13 O 0.94878(15) 0.03448(14) 0.60436(11)
O14 O 0.05122(15) 0.03448(14) 0.89564(11)
O15 O 0.81283(17) 0.04076(13) 0.42529(10)
O17 O 0.76275(19) 0.23655(14) 0.43218(10)
C1_2 C 0.0095(2) 0.1023(2) 0.60263(15)
C2_2 C 0.1246(2) 0.09978(19) 0.64889(16)
H1_2 H 0.1707 0.1158 0.6171
H2_2 H 0.1348 0.1477 0.6880
H3_2 H 0.1229 0.0386 0.7791
N1_2 N 0.15519(18) 0.00562(15) 0.68314(12)
C3_2 C 0.1449(2) 0.9891(2) 0.75306(15)
C4_2 C 0.1656(3) 0.9031(2) 0.78556(16)
H4_2 H 0.1571 0.8921 0.8332
C5_2 C 0.2002(2) 0.8304(2) 0.74590(15)
H5_2 H 0.2162 0.7708 0.7683
C6_2 C 0.2113(2) 0.84418(19) 0.67498(14)
C7_2 C 0.1846(2) 0.93540(19) 0.63930(14)
C8_2 C 0.2525(2) 0.76263(19) 0.63850(15)
C9_2 C 0.1149(2) 0.5380(2) 0.59060(17)
H6_2 H 0.1056 0.5961 0.6125
C10 C 0.0983(3) 0.3877(2) 0.55911(19)
H7 H 0.0773 0.3240 0.5547
C11 C 0.1697(3) 0.4295(2) 0.52819(17)
H8 H 0.2062 0.3989 0.4978
C13 C 0.0395(3) 0.4448(3) 0.72617(17)
H11_2 H 0.0853 0.5004 0.7387
H12 H 0.0841 0.3883 0.7379
N2 N 0.0630(2) 0.45740(19) 0.59815(13)
N3_2 N 0.18050(19) 0.52463(17) 0.54828(13)
O3_2 O 0.18717(17) 0.95924(13) 0.57471(10)
O4_2 O 0.23725(19) 0.76345(14) 0.56782(10)
O5_2 O 0.2977(2) 0.69623(16) 0.67652(12)
C17 C 0.0139(3) 0.4460(3) 0.85637(17)
H16 H 0.0528 0.3867 0.8701
H17 H 0.0648 0.4981 0.8672
Cd5_2 Cd 0.198719(16) 0.872471(13) 0.471564(10)
O15_2 O 0.31283(17) 0.54076(13) 0.42529(10)
O17_2 O 0.26275(19) 0.73655(14) 0.43218(10)
C19_2 C 0.9905(2) 0.1023(2) 0.89737(15)
C20_2 C 0.8754(2) 0.09978(19) 0.85111(16)
H20_2 H 0.8293 0.1158 0.8829
H21_2 H 0.8652 0.1477 0.8120
H22_2 H 0.8771 0.0386 0.7209
N6_2 N 0.84481(18) 0.00562(15) 0.81686(12)
H15 H 0.7938 0.3989 0.0022
Cd6_2 Cd 0.801281(16) 0.872471(13) 0.028436(10)
O16_2 O 0.68717(17) 0.54076(13) 0.07471(10)
O18_2 O 0.73725(19) 0.73655(14) 0.06782(10)
C12 C 0.9861(3) 0.4460(3) 0.64363(17)
H9 H 0.9472 0.3867 0.6299
H10 H 0.9352 0.4981 0.6328
C14_2 C 0.8851(2) 0.5380(2) 0.90940(17)
H13_2 H 0.8944 0.5961 0.8875
C15 C 0.9017(3) 0.3877(2) 0.94089(19)
H14 H 0.9227 0.3240 0.9453
C16 C 0.8303(3) 0.4295(2) 0.97181(17)
C18 C 0.9605(3) 0.4448(3) 0.77383(17)
H18_2 H 0.9147 0.5004 0.7613
H19 H 0.9159 0.3883 0.7621
N4 N 0.9370(2) 0.45740(19) 0.90185(13)
N5_2 N 0.81950(19) 0.52463(17) 0.95172(13)
C21_2 C 0.8551(2) 0.9891(2) 0.74694(15)
C22_2 C 0.8344(3) 0.9031(2) 0.71444(16)
H23_2 H 0.8429 0.8921 0.6668
C23_2 C 0.7998(2) 0.8304(2) 0.75410(15)
H24_2 H 0.7838 0.7708 0.7317
C24_2 C 0.7887(2) 0.84418(19) 0.82502(14)
C25_2 C 0.8154(2) 0.93540(19) 0.86070(14)
C26_2 C 0.7475(2) 0.76263(19) 0.86150(15)
O8_2 O 0.81283(17) 0.95924(13) 0.92529(10)
O9_2 O 0.76275(19) 0.76345(14) 0.93218(10)
O10_2 O 0.7023(2) 0.69623(16) 0.82348(12)
C1_3 C 0.4905(2) 0.3977(2) 0.39737(15)
C2_3 C 0.3754(2) 0.40022(19) 0.35111(16)
H1_3 H 0.3293 0.3842 0.3829
H2_3 H 0.3652 0.3523 0.3120
C3_3 C 0.3551(2) 0.5109(2) 0.24694(15)
H3_3 H 0.3771 0.4614 0.2209
C4_3 C 0.3344(3) 0.5969(2) 0.21444(16)
H4_3 H 0.3429 0.6079 0.1668
C5_3 C 0.2998(2) 0.6696(2) 0.25410(15)
H5_3 H 0.2838 0.7292 0.2317
C6_3 C 0.2887(2) 0.65582(19) 0.32502(14)
C7_3 C 0.3154(2) 0.56460(19) 0.36070(14)
C8_3 C 0.2475(2) 0.73737(19) 0.36150(15)
C9_3 C 0.3851(2) 0.9620(2) 0.40940(17)
H6_3 H 0.3944 0.9039 0.3875
H11_3 H 0.4147 0.9996 0.2613
N1_3 N 0.34481(18) 0.49438(15) 0.31686(12)
N3_3 N 0.31950(19) 0.97537(17) 0.45172(13)
O1_2 O 0.51957(16) 0.32289(14) 0.43453(11)
O2_2 O 0.55122(15) 0.46552(14) 0.39564(11)
O5_3 O 0.2023(2) 0.80377(16) 0.32348(12)
C14_3 C 0.6149(2) 0.9620(2) 0.09060(17)
H13_3 H 0.6056 0.9039 0.1125
H18_3 H 0.5853 0.9996 0.2387
N5_3 N 0.68050(19) 0.97537(17) 0.04828(13)
C19_3 C 0.5095(2) 0.3977(2) 0.10263(15)
C20_3 C 0.6246(2) 0.40022(19) 0.14889(16)
H20_3 H 0.6707 0.3842 0.1171
H21_3 H 0.6348 0.3523 0.1880
C21_3 C 0.6449(2) 0.5109(2) 0.25306(15)
H22_3 H 0.6229 0.4614 0.2791
C22_3 C 0.6656(3) 0.5969(2) 0.28556(16)
H23_3 H 0.6571 0.6079 0.3332
C23_3 C 0.7002(2) 0.6696(2) 0.24590(15)
H24_3 H 0.7162 0.7292 0.2683
C24_3 C 0.7113(2) 0.65582(19) 0.17498(14)
C25_3 C 0.6846(2) 0.56460(19) 0.13930(14)
C26_3 C 0.7525(2) 0.73737(19) 0.13850(15)
N6_3 N 0.65519(18) 0.49438(15) 0.18314(12)
O6_2 O 0.48043(16) 0.32289(14) 0.06547(11)
O7_2 O 0.44878(15) 0.46552(14) 0.10436(11)
O10_3 O 0.7977(2) 0.80377(16) 0.17652(12)
O11_2 O 0.01957(16) 0.82289(14) 0.43453(11)
O12_2 O 0.98043(16) 0.82289(14) 0.06547(11)
O13_2 O 0.05122(15) 0.96552(14) 0.39564(11)
O14_2 O 0.94878(15) 0.96552(14) 0.10436(11)
C12_2 C 0.0139(3) 0.5540(3) 0.35637(17)
H9_2 H 0.0528 0.6133 0.3701
H10_2 H 0.0648 0.5019 0.3672
C14_4 C 0.1149(2) 0.4620(2) 0.09060(17)
H13_4 H 0.1056 0.4039 0.1125
C15_2 C 0.0983(3) 0.6123(2) 0.05911(19)
H14_2 H 0.0773 0.6760 0.0547
C16_2 C 0.1697(3) 0.5705(2) 0.02819(17)
C18_2 C 0.0395(3) 0.5552(3) 0.22617(17)
H18_4 H 0.0853 0.4996 0.2387
H19_2 H 0.0841 0.6117 0.2379
N4_2 N 0.0630(2) 0.54260(19) 0.09815(13)
N5_4 N 0.18050(19) 0.47537(17) 0.04828(13)
C21_4 C 0.1449(2) 0.0109(2) 0.25306(15)
C22_4 C 0.1656(3) 0.0969(2) 0.28556(16)
H23_4 H 0.1571 0.1079 0.3332
C23_4 C 0.2002(2) 0.1696(2) 0.24590(15)
H24_4 H 0.2162 0.2292 0.2683
C24_4 C 0.2113(2) 0.15582(19) 0.17498(14)
C25_4 C 0.1846(2) 0.06460(19) 0.13930(14)
C26_4 C 0.2525(2) 0.23737(19) 0.13850(15)
O10_4 O 0.2977(2) 0.30377(16) 0.17652(12)
H15_2 H 0.2062 0.6011 0.9978
C19_4 C 0.0095(2) 0.8977(2) 0.10263(15)
C20_4 C 0.1246(2) 0.90022(19) 0.14889(16)
H20_4 H 0.1707 0.8842 0.1171
H21_4 H 0.1348 0.8523 0.1880
H22_4 H 0.1229 0.9614 0.2791
N6_4 N 0.15519(18) 0.99438(15) 0.18314(12)
C3_4 C 0.8551(2) 0.0109(2) 0.24694(15)
C4_4 C 0.8344(3) 0.0969(2) 0.21444(16)
H4_4 H 0.8429 0.1079 0.1668
C5_4 C 0.7998(2) 0.1696(2) 0.25410(15)
H5_4 H 0.7838 0.2292 0.2317
C6_4 C 0.7887(2) 0.15582(19) 0.32502(14)
C7_4 C 0.8154(2) 0.06460(19) 0.36070(14)
C8_4 C 0.7475(2) 0.23737(19) 0.36150(15)
C9_4 C 0.8851(2) 0.4620(2) 0.40940(17)
H6_4 H 0.8944 0.4039 0.3875
C10_2 C 0.9017(3) 0.6123(2) 0.44089(19)
H7_2 H 0.9227 0.6760 0.4453
C11_2 C 0.8303(3) 0.5705(2) 0.47181(17)
H8_2 H 0.7938 0.6011 0.5022
C13_2 C 0.9605(3) 0.5552(3) 0.27383(17)
H11_4 H 0.9147 0.4996 0.2613
H12_2 H 0.9159 0.6117 0.2621
N2_2 N 0.9370(2) 0.54260(19) 0.40185(13)
N3_4 N 0.81950(19) 0.47537(17) 0.45172(13)
O5_4 O 0.7023(2) 0.30377(16) 0.32348(12)
C17_2 C 0.9861(3) 0.5540(3) 0.14363(17)
H16_2 H 0.9472 0.6133 0.1299
H17_2 H 0.9352 0.5019 0.1328
C1_4 C 0.9905(2) 0.8977(2) 0.39737(15)
C2_4 C 0.8754(2) 0.90022(19) 0.35111(16)
H1_4 H 0.8293 0.8842 0.3829
H2_4 H 0.8652 0.8523 0.3120
H3_4 H 0.8771 0.9614 0.2209
N1_4 N 0.84481(18) 0.99438(15) 0.31686(12)
H15_3 H 0.2938 0.8989 0.0022
C10_3 C 0.5983(3) 0.8877(2) 0.55911(19)
H7_3 H 0.5773 0.8240 0.5547
C11_3 C 0.6697(3) 0.9295(2) 0.52819(17)
H8_3 H 0.7062 0.8989 0.4978
C12_3 C 0.4861(3) 0.9460(3) 0.64363(17)
H9_3 H 0.4472 0.8867 0.6299
H10_3 H 0.4352 0.9981 0.6328
C13_3 C 0.5395(3) 0.9448(3) 0.72617(17)
H12_3 H 0.5841 0.8883 0.7379
N2_3 N 0.5630(2) 0.95740(19) 0.59815(13)
C15_3 C 0.4017(3) 0.8877(2) 0.94089(19)
H14_3 H 0.4227 0.8240 0.9453
C16_3 C 0.3303(3) 0.9295(2) 0.97181(17)
C17_3 C 0.5139(3) 0.9460(3) 0.85637(17)
H16_3 H 0.5528 0.8867 0.8701
H17_3 H 0.5648 0.9981 0.8672
C18_3 C 0.4605(3) 0.9448(3) 0.77383(17)
H19_3 H 0.4159 0.8883 0.7621
N4_3 N 0.4370(2) 0.95740(19) 0.90185(13)
C10_4 C 0.4017(3) 0.1123(2) 0.44089(19)
H7_4 H 0.4227 0.1760 0.4453
C11_4 C 0.3303(3) 0.0705(2) 0.47181(17)
H8_4 H 0.2938 0.1011 0.5022
C12_4 C 0.5139(3) 0.0540(3) 0.35637(17)
H9_4 H 0.5528 0.1133 0.3701
H10_4 H 0.5648 0.0019 0.3672
C13_4 C 0.4605(3) 0.0552(3) 0.27383(17)
H12_4 H 0.4159 0.1117 0.2621
N2_4 N 0.4370(2) 0.04260(19) 0.40185(13)
C15_4 C 0.5983(3) 0.1123(2) 0.05911(19)
H14_4 H 0.5773 0.1760 0.0547
C16_4 C 0.6697(3) 0.0705(2) 0.02819(17)
C17_4 C 0.4861(3) 0.0540(3) 0.14363(17)
H16_4 H 0.4472 0.1133 0.1299
H17_4 H 0.4352 0.0019 0.1328
C18_4 C 0.5395(3) 0.0552(3) 0.22617(17)
H19_4 H 0.5841 0.1117 0.2379
N4_4 N 0.5630(2) 0.04260(19) 0.09815(13)
H15_4 H 0.7062 0.1011 0.9978
loop_
_geom_bond_atom_site_label_1
_geom_bond_atom_site_label_2
_geom_bond_site_symmetry_1
_geom_bond_site_symmetry_2
Cd6 O18 1_555 1_555
Cd1 N3 1_555 1_555
C1 C2 1_555 1_555
C2 H1 1_555 1_555
H2 C2 1_555 1_555
C3 H3 1_555 1_555
C4 C3 1_555 1_555
H4 C4 1_555 1_555
C5 C4 1_555 1_555
H5 C5 1_555 1_555
C6 C5 1_555 1_555
C7 C6 1_555 1_555
C8 C6 1_555 1_555
C9 H6 1_555 1_555
N1 C2 1_555 1_555
N3 C9 1_555 1_555
O1 C1 1_555 1_555
O2 C1 1_555 1_555
O3 C7 1_555 1_555
O4 Cd1 1_555 1_555
O5 C8 1_555 1_555
C14 H13 1_555 1_555
N5 C14 1_555 1_555
Cd2 N5 1_555 1_555
C19 C20 1_555 1_555
C20 H20 1_555 1_555
H21 C20 1_555 1_555
C21 H22 1_555 1_555
C22 C21 1_555 1_555
H23 C22 1_555 1_555
C23 C22 1_555 1_555
H24 C23 1_555 1_555
C24 C23 1_555 1_555
C25 C24 1_555 1_555
C26 C24 1_555 1_555
N6 C20 1_555 1_555
O6 C19 1_555 1_555
O7 C19 1_555 1_555
O8 C25 1_555 1_555
O9 Cd2 1_555 1_555
O10 C26 1_555 1_555
Cd3 O1 1_555 1_555
Cd4 O6 1_555 1_555
Cd5 O3 1_555 1_555
O11 Cd1 1_555 1_555
O12 Cd2 1_555 1_555
O13 Cd1 1_555 1_555
O14 Cd2 1_555 1_555
O15 Cd1 1_555 1_555
O17 Cd1 1_555 1_555
C3 N1 1_555 1_555
C7 N1 1_555 1_555
C8 O4 1_555 1_555
O2 Cd3 1_555 1_555
O4 Cd5 1_555 1_555
C21 N6 1_555 1_555
C25 N6 1_555 1_555
C26 O9 1_555 1_555
O7 Cd4 1_555 1_555
Cd5 O17 1_555 1_555
C1_2 C2_2 1_555 1_555
C2_2 H1_2 1_555 1_555
H2_2 C2_2 1_555 1_555
N1_2 C2_2 1_555 1_555
Cd3 N3_2 1_555 1_555
C4_2 C3_2 1_555 1_555
H4_2 C4_2 1_555 1_555
C5_2 C4_2 1_555 1_555
H5_2 C5_2 1_555 1_555
C6_2 C5_2 1_555 1_555
C7_2 C6_2 1_555 1_555
C8_2 C6_2 1_555 1_555
C9_2 H6_2 1_555 1_555
C10 H7 1_555 1_555
C11 C10 1_555 1_555
H8 C11 1_555 1_555
H11_2 C13 1_555 1_555
H12 C13 1_555 1_555
N2 C9_2 1_555 1_555
N3_2 C9_2 1_555 1_555
O3_2 C7_2 1_555 1_555
O4_2 Cd3 1_555 1_555
O5_2 C8_2 1_555 1_555
C17 H16 1_555 1_555
H17 C17 1_555 1_555
Cd5_2 O3_2 1_555 1_555
O15_2 Cd3 1_555 1_555
O17_2 Cd3 1_555 1_555
C8_2 O4_2 1_555 1_555
C10 N2 1_555 1_555
C11 N3_2 1_555 1_555
O4_2 Cd5_2 1_555 1_555
Cd5_2 O17_2 1_555 1_555
C19_2 C20_2 1_555 1_555
C20_2 H20_2 1_555 1_555
H21_2 C20_2 1_555 1_555
N6_2 C20_2 1_555 1_555
Cd6_2 O18_2 1_555 1_555
C12 H9 1_555 1_555
H10 C12 1_555 1_555
C14_2 H13_2 1_555 1_555
C15 H14 1_555 1_555
C16 C15 1_555 1_555
H18_2 C18 1_555 1_555
H19 C18 1_555 1_555
N4 C14_2 1_555 1_555
N5_2 C14_2 1_555 1_555
Cd4 N5_2 1_555 1_555
C22_2 C21_2 1_555 1_555
H23_2 C22_2 1_555 1_555
C23_2 C22_2 1_555 1_555
H24_2 C23_2 1_555 1_555
C24_2 C23_2 1_555 1_555
C25_2 C24_2 1_555 1_555
C26_2 C24_2 1_555 1_555
O8_2 C25_2 1_555 1_555
O9_2 Cd4 1_555 1_555
O10_2 C26_2 1_555 1_555
C15 N4 1_555 1_555
C16 N5_2 1_555 1_555
C26_2 O9_2 1_555 1_555
Cd5_2 N3_3 1_555 1_555
C1_3 C2_3 1_555 1_555
C2_3 H1_3 1_555 1_555
H2_3 C2_3 1_555 1_555
C3_3 H3_3 1_555 1_555
C4_3 C3_3 1_555 1_555
H4_3 C4_3 1_555 1_555
C5_3 C4_3 1_555 1_555
H5_3 C5_3 1_555 1_555
C6_3 C5_3 1_555 1_555
C7_3 C6_3 1_555 1_555
C8_3 C6_3 1_555 1_555
C9_3 H6_3 1_555 1_555
N1_3 C2_3 1_555 1_555
N3_3 C9_3 1_555 1_555
O1_2 C1_3 1_555 1_555
O2_2 C1_3 1_555 1_555
O15_2 C7_3 1_555 1_555
O5_3 C8_3 1_555 1_555
C14_3 H13_3 1_555 1_555
N5_3 C14_3 1_555 1_555
Cd6_2 N5_3 1_555 1_555
C19_3 C20_3 1_555 1_555
C20_3 H20_3 1_555 1_555
H21_3 C20_3 1_555 1_555
C21_3 H22_3 1_555 1_555
C22_3 C21_3 1_555 1_555
H23_3 C22_3 1_555 1_555
C23_3 C22_3 1_555 1_555
H24_3 C23_3 1_555 1_555
C24_3 C23_3 1_555 1_555
C25_3 C24_3 1_555 1_555
C26_3 C24_3 1_555 1_555
N6_3 C20_3 1_555 1_555
O6_2 C19_3 1_555 1_555
O7_2 C19_3 1_555 1_555
O16_2 C25_3 1_555 1_555
O10_3 C26_3 1_555 1_555
Cd5 O1_2 1_555 1_555
Cd6 O6_2 1_555 1_555
O11_2 Cd5_2 1_555 1_555
O12_2 Cd6_2 1_555 1_555
O13_2 Cd5_2 1_555 1_555
O14_2 Cd6_2 1_555 1_555
C3_3 N1_3 1_555 1_555
C7_3 N1_3 1_555 1_555
C8_3 O17_2 1_555 1_555
O2_2 Cd5 1_555 1_555
C21_3 N6_3 1_555 1_555
C25_3 N6_3 1_555 1_555
C26_3 O18_2 1_555 1_555
O7_2 Cd6 1_555 1_555
C12_2 H9_2 1_555 1_555
H10_2 C12_2 1_555 1_555
C14_4 H13_4 1_555 1_555
C15_2 H14_2 1_555 1_555
C16_2 C15_2 1_555 1_555
H18_4 C18_2 1_555 1_555
H19_2 C18_2 1_555 1_555
N4_2 C14_4 1_555 1_555
N5_4 C14_4 1_555 1_555
Cd6 N5_4 1_555 1_555
C22_4 C21_4 1_555 1_555
H23_4 C22_4 1_555 1_555
C23_4 C22_4 1_555 1_555
H24_4 C23_4 1_555 1_555
C24_4 C23_4 1_555 1_555
C25_4 C24_4 1_555 1_555
C26_4 C24_4 1_555 1_555
O16 C25_4 1_555 1_555
O10_4 C26_4 1_555 1_555
C15_2 N4_2 1_555 1_555
C16_2 N5_4 1_555 1_555
C26_4 O18 1_555 1_555
C19_4 C20_4 1_555 1_555
C20_4 H20_4 1_555 1_555
H21_4 C20_4 1_555 1_555
N6_4 C20_4 1_555 1_555
Cd5 N3_4 1_555 1_555
C4_4 C3_4 1_555 1_555
H4_4 C4_4 1_555 1_555
C5_4 C4_4 1_555 1_555
H5_4 C5_4 1_555 1_555
C6_4 C5_4 1_555 1_555
C7_4 C6_4 1_555 1_555
C8_4 C6_4 1_555 1_555
C9_4 H6_4 1_555 1_555
C10_2 H7_2 1_555 1_555
C11_2 C10_2 1_555 1_555
H8_2 C11_2 1_555 1_555
H11_4 C13_2 1_555 1_555
H12_2 C13_2 1_555 1_555
N2_2 C9_4 1_555 1_555
N3_4 C9_4 1_555 1_555
O15 C7_4 1_555 1_555
O5_4 C8_4 1_555 1_555
C17_2 H16_2 1_555 1_555
H17_2 C17_2 1_555 1_555
C8_4 O17 1_555 1_555
C10_2 N2_2 1_555 1_555
C11_2 N3_4 1_555 1_555
C1_4 C2_4 1_555 1_555
C2_4 H1_4 1_555 1_555
H2_4 C2_4 1_555 1_555
N1_4 C2_4 1_555 1_555
C10_3 H7_3 1_555 1_555
C11_3 C10_3 1_555 1_555
H8_3 C11_3 1_555 1_555
C12_3 H9_3 1_555 1_555
H10_3 C12_3 1_555 1_555
C13_3 C12_3 1_555 1_555
H12_3 C13_3 1_555 1_555
C15_3 H14_3 1_555 1_555
C16_3 C15_3 1_555 1_555
C17_3 H16_3 1_555 1_555
H17_3 C17_3 1_555 1_555
C18_3 C13_3 1_555 1_555
H19_3 C18_3 1_555 1_555
C10_3 N2_3 1_555 1_555
C12_3 N2_3 1_555 1_555
C15_3 N4_3 1_555 1_555
C17_3 C18_3 1_555 1_555
C17_3 N4_3 1_555 1_555
C10_4 H7_4 1_555 1_555
C11_4 C10_4 1_555 1_555
H8_4 C11_4 1_555 1_555
C12_4 H9_4 1_555 1_555
H10_4 C12_4 1_555 1_555
C13_4 C12_4 1_555 1_555
H12_4 C13_4 1_555 1_555
C15_4 H14_4 1_555 1_555
C16_4 C15_4 1_555 1_555
C17_4 H16_4 1_555 1_555
H17_4 C17_4 1_555 1_555
C18_4 C13_4 1_555 1_555
H19_4 C18_4 1_555 1_555
C10_4 N2_4 1_555 1_555
C12_4 N2_4 1_555 1_555
C15_4 N4_4 1_555 1_555
C17_4 C18_4 1_555 1_555
C17_4 N4_4 1_555 1_555

#END
