
###############################################################################
#
# This file contains modified crystal structure data generated from the
# MOF subset of the Cambridge Structural Database (CSD) v543 
# hosted by the Cambridge Crystallographic Data Centre (CCDC).
#
# This work is licensed under the Creative Commons
# Attribution-NonCommercial-ShareAlike 4.0 International License.
# To view a copy of this license, visit
# http://creativecommons.org/licenses/by-nc-sa/4.0/
# or send a letter to
# Creative Commons, PO Box 1866, Mountain View, CA 94042, USA.
#
# CIF created using the CSD Python API on 29 September 2022
# The structure has been converted into the P1 space group
# The structure has a 3D framework
# The original CSD entry XIFHIF is in the orthorhombic crystal system
# The framework has been calculated to contain at least 10.0% void space
# The void calculation uses a probe of radius 1.32A, grid spacing 0.4
#
###############################################################################

data_XIFHIF
_chemical_formula_moiety         '(C96 H80 N8 O68 Tb8)n'
_symmetry_cell_setting           triclinic
_symmetry_space_group_name_H-M   'P 1'
_symmetry_Int_Tables_number      1
_space_group_name_Hall           'P 1'
loop_
_symmetry_equiv_pos_site_id
_symmetry_equiv_pos_as_xyz
1 x,y,z
_cell_length_a                   8.5851(2)
_cell_length_b                   28.0467(8)
_cell_length_c                   15.4118(5)
_cell_angle_alpha                90
_cell_angle_beta                 90
_cell_angle_gamma                90
_cell_volume                     3710.91
loop_
_atom_site_label
_atom_site_type_symbol
_atom_site_fract_x
_atom_site_fract_y
_atom_site_fract_z
N2 N 0.0646(10) 0.3985(3) 0.0896(5)
C16 C 0.0700(11) 0.4141(4) 0.0133(6)
H12 H 0.0542 0.4467 0.0066
C17 C 0.0368(12) 0.4255(4) 0.1671(6)
H14 H 0.0992 0.4129 0.2135
H15 H 0.0640 0.4582 0.1573
C18 C 0.1395(13) 0.3505(4) 0.1051(6)
H16 H 0.2105 0.3436 0.0587
H17 H 0.1952 0.3512 0.1591
H18 H 0.0604 0.3264 0.1075
O7 O 0.0498(5) 0.66257(17) 0.2096(3)
O8 O 0.2068(5) 0.62736(15) 0.3037(3)
O9 O 0.1342(7) 0.7500 0.2631(4)
C7 C 0.0131(8) 0.5765(2) 0.5097(4)
H8 H 0.0862 0.5968 0.4848
C8 C 0.0298(7) 0.5510(3) 0.5876(4)
H9 H 0.1157 0.5514 0.6243
C9 C 0.1479(7) 0.6641(2) 0.2701(4)
C10 C 0.1940(7) 0.7112(2) 0.3044(4)
C11 C 0.2886(7) 0.7248(2) 0.3691(4)
H10 H 0.3434 0.7049 0.4066
O10 O 0.0498(5) 0.83743(17) 0.2096(3)
O11 O 0.2068(5) 0.87264(15) 0.3037(3)
C13 C 0.1479(7) 0.8359(2) 0.2701(4)
C14 C 0.1940(7) 0.7888(2) 0.3044(4)
C15 C 0.2886(7) 0.7752(2) 0.3691(4)
H11 H 0.3434 0.7951 0.4066
Tb2 Tb 0.05160(3) 0.413859(10) 0.797581(18)
O12 O 0.0939(8) 0.3914(2) 0.9465(4)
O13 O 0.2846(5) 0.52580(16) 0.3386(3)
O14 O 0.0437(5) 0.52197(17) 0.2831(3)
O15 O 0.2044(4) 0.46535(15) 0.4671(3)
O16 O 0.1244(5) 0.39699(18) 0.6556(3)
O17 O 0.3368(5) 0.43894(17) 0.6206(3)
C19 C 0.1479(7) 0.5102(2) 0.3352(4)
C20 C 0.2039(7) 0.4225(2) 0.6058(4)
C21 C 0.1024(7) 0.4742(2) 0.4011(4)
C24 C 0.1301(7) 0.4342(2) 0.5224(4)
Tb4 Tb 0.55160(3) 0.413859(10) 0.702419(18)
Tb5 Tb 0.44840(3) 0.913859(10) 0.297581(18)
Tb7 Tb 0.44840(3) 0.586141(10) 0.297581(18)
O19 O 0.2154(5) 0.47420(16) 0.8386(3)
O21 O 0.1632(5) 0.56106(17) 0.1206(3)
O23 O 0.2932(5) 0.37264(15) 0.8037(3)
Tb1 Tb 0.94840(3) 0.586141(10) 0.202419(18)
O1 O 0.9061(8) 0.6086(2) 0.0535(4)
O2 O 0.7154(5) 0.47420(16) 0.6614(3)
O3 O 0.9563(5) 0.47803(17) 0.7169(3)
O4 O 0.7956(4) 0.53465(15) 0.5329(3)
O5 O 0.8756(5) 0.60301(18) 0.3444(3)
O6 O 0.6632(5) 0.56106(17) 0.3794(3)
C4 C 0.8521(7) 0.4898(2) 0.6648(4)
C5 C 0.7961(7) 0.5775(2) 0.3942(4)
C6 C 0.8976(7) 0.5258(2) 0.5989(4)
C12 C 0.8699(7) 0.5658(2) 0.4776(4)
C22 C 0.9869(8) 0.4235(2) 0.4903(4)
H19 H 0.9138 0.4032 0.5152
C23 C 0.9702(7) 0.4490(3) 0.4124(4)
H20 H 0.8843 0.4486 0.3757
Tb8 Tb 0.94840(3) 0.913859(10) 0.202419(18)
O18 O 0.7846(5) 0.52580(16) 0.1614(3)
O20 O 0.8368(5) 0.43894(17) 0.8794(3)
O22 O 0.9502(5) 0.33743(17) 0.7904(3)
O24 O 0.7068(5) 0.62736(15) 0.1963(3)
O3_2 O 0.5437(5) 0.52197(17) 0.2169(3)
O4_2 O 0.7044(4) 0.46535(15) 0.0329(3)
C4_2 C 0.6479(7) 0.5102(2) 0.1648(4)
C6_2 C 0.6024(7) 0.4742(2) 0.0989(4)
C7_2 C 0.4869(8) 0.4235(2) 0.0097(4)
C8_2 C 0.4702(7) 0.4490(3) 0.0876(4)
H9_2 H 0.3843 0.4486 0.1243
O12_2 O 0.4061(8) 0.6086(2) 0.4465(4)
O16_2 O 0.3756(5) 0.60301(18) 0.1556(3)
N2_2 N 0.4354(10) 0.6015(3) 0.5896(5)
C16_2 C 0.4300(11) 0.5859(4) 0.5133(6)
H12_2 H 0.4458 0.5533 0.5066
C17_2 C 0.4632(12) 0.5745(4) 0.6671(6)
H13 H 0.5713 0.5767 0.6825
H14_2 H 0.4008 0.5871 0.7135
H15_2 H 0.4360 0.5418 0.6573
C18_2 C 0.3605(13) 0.6495(4) 0.6051(6)
H16_2 H 0.2895 0.6564 0.5587
H17_2 H 0.3048 0.6488 0.6591
H18_2 H 0.4396 0.6736 0.6075
C20_2 C 0.2961(7) 0.5775(2) 0.1058(4)
H19_2 H 0.5862 0.5968 0.0152
C24_2 C 0.3699(7) 0.5658(2) 0.0224(4)
O22_2 O 0.5498(5) 0.66257(17) 0.2904(3)
O1_2 O 0.5939(8) 0.3914(2) 0.5535(4)
O5_2 O 0.6244(5) 0.39699(18) 0.8444(3)
O7_2 O 0.4502(5) 0.33743(17) 0.7096(3)
O9_2 O 0.3658(7) 0.2500 0.7631(4)
N1 N 0.5646(10) 0.3985(3) 0.4104(5)
C1 C 0.5700(11) 0.4141(4) 0.4867(6)
H1 H 0.5542 0.4467 0.4934
C2 C 0.5368(12) 0.4255(4) 0.3329(6)
H2 H 0.4287 0.4233 0.3175
H3 H 0.5992 0.4129 0.2865
H4 H 0.5640 0.4582 0.3427
C3 C 0.6395(13) 0.3505(4) 0.3949(6)
H5 H 0.7105 0.3436 0.4413
H6 H 0.6952 0.3512 0.3409
H7 H 0.5604 0.3264 0.3925
C5_2 C 0.7039(7) 0.4225(2) 0.8942(4)
H8_2 H 0.4138 0.4032 0.9848
C9_2 C 0.3521(7) 0.3359(2) 0.7701(4)
C10_2 C 0.3060(7) 0.2888(2) 0.8044(4)
C11_2 C 0.2114(7) 0.2752(2) 0.8691(4)
H10_2 H 0.1566 0.2951 0.9066
C12_2 C 0.6301(7) 0.4342(2) 0.9776(4)
O10_2 O 0.4502(5) 0.16257(17) 0.7096(3)
O11_2 O 0.2932(5) 0.12736(15) 0.8037(3)
C13_2 C 0.3521(7) 0.1641(2) 0.7701(4)
C14_2 C 0.3060(7) 0.2112(2) 0.8044(4)
C15_2 C 0.2114(7) 0.2248(2) 0.8691(4)
H11_2 H 0.1566 0.2049 0.9066
O14_2 O 0.4563(5) 0.47803(17) 0.7831(3)
O15_2 O 0.2956(4) 0.53465(15) 0.9671(3)
C19_2 C 0.3521(7) 0.4898(2) 0.8352(4)
C21_2 C 0.3976(7) 0.5258(2) 0.9011(4)
C22_2 C 0.5131(8) 0.5765(2) 0.9903(4)
C23_2 C 0.5298(7) 0.5510(3) 0.9124(4)
H20_2 H 0.6157 0.5514 0.8757
Tb5_2 Tb 0.05160(3) 0.086141(10) 0.797581(18)
Tb8_2 Tb 0.55160(3) 0.086141(10) 0.702419(18)
O24_2 O 0.7932(5) 0.37264(15) 0.6963(3)
O2_2 O 0.2154(5) 0.02580(16) 0.8386(3)
O3_3 O 0.4563(5) 0.02197(17) 0.7831(3)
C4_3 C 0.3521(7) 0.0102(2) 0.8352(4)
O12_3 O 0.5939(8) 0.1086(2) 0.5535(4)
O16_3 O 0.6244(5) 0.10301(18) 0.8444(3)
O17_2 O 0.8368(5) 0.06106(17) 0.8794(3)
N2_3 N 0.5646(10) 0.1015(3) 0.4104(5)
C16_3 C 0.5700(11) 0.0859(4) 0.4867(6)
H12_3 H 0.5542 0.0533 0.4934
C17_3 C 0.5368(12) 0.0745(4) 0.3329(6)
H13_2 H 0.4287 0.0767 0.3175
H14_3 H 0.5992 0.0871 0.2865
H15_3 H 0.5640 0.0418 0.3427
C18_3 C 0.6395(13) 0.1495(4) 0.3949(6)
H16_3 H 0.7105 0.1564 0.4413
H17_3 H 0.6952 0.1488 0.3409
H18_3 H 0.5604 0.1736 0.3925
C20_3 C 0.7039(7) 0.0775(2) 0.8942(4)
H19_3 H 0.4138 0.0968 0.9848
C24_3 C 0.6301(7) 0.0658(2) 0.9776(4)
O19_2 O 0.7154(5) 0.02580(16) 0.6614(3)
O20_2 O 0.3368(5) 0.06106(17) 0.6206(3)
O23_2 O 0.7932(5) 0.12736(15) 0.6963(3)
O1_3 O 0.4061(8) 0.8914(2) 0.4465(4)
O5_3 O 0.3756(5) 0.89699(18) 0.1556(3)
O6_2 O 0.1632(5) 0.93894(17) 0.1206(3)
O7_3 O 0.5498(5) 0.83743(17) 0.2904(3)
O8_2 O 0.7068(5) 0.87264(15) 0.1963(3)
O9_3 O 0.6342(7) 0.7500 0.2369(4)
N1_2 N 0.4354(10) 0.8985(3) 0.5896(5)
C1_2 C 0.4300(11) 0.9141(4) 0.5133(6)
H1_2 H 0.4458 0.9467 0.5066
C2_2 C 0.4632(12) 0.9255(4) 0.6671(6)
H2_2 H 0.5713 0.9233 0.6825
H3_2 H 0.4008 0.9129 0.7135
H4_2 H 0.4360 0.9582 0.6573
C3_2 C 0.3605(13) 0.8505(4) 0.6051(6)
H5_2 H 0.2895 0.8436 0.5587
H6_2 H 0.3048 0.8512 0.6591
H7_2 H 0.4396 0.8264 0.6075
C5_3 C 0.2961(7) 0.9225(2) 0.1058(4)
H8_3 H 0.5862 0.9032 0.0152
C9_3 C 0.6479(7) 0.8359(2) 0.2299(4)
C10_3 C 0.6940(7) 0.7888(2) 0.1956(4)
C11_3 C 0.7886(7) 0.7752(2) 0.1309(4)
H10_3 H 0.8434 0.7951 0.0934
C12_3 C 0.3699(7) 0.9342(2) 0.0224(4)
C13_3 C 0.6479(7) 0.6641(2) 0.2299(4)
C14_3 C 0.6940(7) 0.7112(2) 0.1956(4)
C15_3 C 0.7886(7) 0.7248(2) 0.1309(4)
H11_3 H 0.8434 0.7049 0.0934
O13_2 O 0.7846(5) 0.97420(16) 0.1614(3)
O14_3 O 0.5437(5) 0.97803(17) 0.2169(3)
C19_3 C 0.6479(7) 0.9898(2) 0.1648(4)
O18_2 O 0.2846(5) 0.97420(16) 0.3386(3)
O21_2 O 0.6632(5) 0.93894(17) 0.3794(3)
O1_4 O 0.0939(8) 0.1086(2) 0.9465(4)
O4_3 O 0.2044(4) 0.03465(15) 0.4671(3)
O5_4 O 0.1244(5) 0.10301(18) 0.6556(3)
C5_4 C 0.2039(7) 0.0775(2) 0.6058(4)
C6_3 C 0.1024(7) 0.0258(2) 0.4011(4)
C12_4 C 0.1301(7) 0.0658(2) 0.5224(4)
O3_4 O 0.0437(5) 0.97803(17) 0.2831(3)
C4_4 C 0.1479(7) 0.9898(2) 0.3352(4)
C22_3 C 0.0131(8) 0.9235(2) 0.5097(4)
H19_4 H 0.0862 0.9032 0.4848
C23_3 C 0.0298(7) 0.9490(3) 0.5876(4)
H20_3 H 0.1157 0.9486 0.6243
O7_4 O 0.9502(5) 0.16257(17) 0.7904(3)
O9_4 O 0.8658(7) 0.2500 0.7369(4)
C7_3 C 0.9869(8) 0.0765(2) 0.4903(4)
H8_4 H 0.9138 0.0968 0.5152
C8_3 C 0.9702(7) 0.0510(3) 0.4124(4)
H9_3 H 0.8843 0.0514 0.3757
C9_4 C 0.8521(7) 0.1641(2) 0.7299(4)
C10_4 C 0.8060(7) 0.2112(2) 0.6956(4)
C11_4 C 0.7114(7) 0.2248(2) 0.6309(4)
H10_4 H 0.6566 0.2049 0.5934
C13_4 C 0.8521(7) 0.3359(2) 0.7299(4)
C14_4 C 0.8060(7) 0.2888(2) 0.6956(4)
C15_4 C 0.7114(7) 0.2752(2) 0.6309(4)
H11_4 H 0.6566 0.2951 0.5934
O14_4 O 0.9563(5) 0.02197(17) 0.7169(3)
C19_4 C 0.8521(7) 0.0102(2) 0.6648(4)
O12_4 O 0.9061(8) 0.8914(2) 0.0535(4)
O15_3 O 0.7956(4) 0.96535(15) 0.5329(3)
O16_4 O 0.8756(5) 0.89699(18) 0.3444(3)
C20_4 C 0.7961(7) 0.9225(2) 0.3942(4)
C21_3 C 0.8976(7) 0.9742(2) 0.5989(4)
C24_4 C 0.8699(7) 0.9342(2) 0.4776(4)
H2_3 H 0.0713 0.5767 0.8175
H13_3 H 0.9287 0.4233 0.1825
N1_3 N 0.9354(10) 0.6015(3) 0.9104(5)
C1_3 C 0.9300(11) 0.5859(4) 0.9867(6)
H1_3 H 0.9458 0.5533 0.9934
C2_3 C 0.9632(12) 0.5745(4) 0.8329(6)
H3_3 H 0.9008 0.5871 0.7865
H4_3 H 0.9360 0.5418 0.8427
C3_3 C 0.8605(13) 0.6495(4) 0.8949(6)
H5_3 H 0.7895 0.6564 0.9413
H6_3 H 0.8048 0.6488 0.8409
H7_3 H 0.9396 0.6736 0.8925
O15_4 O 0.7044(4) 0.03465(15) 0.0329(3)
C21_4 C 0.6024(7) 0.0258(2) 0.0989(4)
C22_4 C 0.4869(8) 0.0765(2) 0.0097(4)
C23_4 C 0.4702(7) 0.0510(3) 0.0876(4)
H20_4 H 0.3843 0.0514 0.1243
O4_4 O 0.2956(4) 0.96535(15) 0.9671(3)
C6_4 C 0.3976(7) 0.9742(2) 0.9011(4)
C7_4 C 0.5131(8) 0.9235(2) 0.9903(4)
C8_4 C 0.5298(7) 0.9490(3) 0.9124(4)
H9_4 H 0.6157 0.9486 0.8757
N1_4 N 0.0646(10) 0.1015(3) 0.0896(5)
C1_4 C 0.0700(11) 0.0859(4) 0.0133(6)
H1_4 H 0.0542 0.0533 0.0066
C2_4 C 0.0368(12) 0.0745(4) 0.1671(6)
H3_4 H 0.0992 0.0871 0.2135
H4_4 H 0.0640 0.0418 0.1573
C3_4 C 0.1395(13) 0.1495(4) 0.1051(6)
H5_4 H 0.2105 0.1564 0.0587
H6_4 H 0.1952 0.1488 0.1591
H7_4 H 0.0604 0.1736 0.1075
H13_4 H 0.0713 0.9233 0.8175
H2_4 H 0.9287 0.0767 0.1825
N2_4 N 0.9354(10) 0.8985(3) 0.9104(5)
C16_4 C 0.9300(11) 0.9141(4) 0.9867(6)
H12_4 H 0.9458 0.9467 0.9934
C17_4 C 0.9632(12) 0.9255(4) 0.8329(6)
H14_4 H 0.9008 0.9129 0.7865
H15_4 H 0.9360 0.9582 0.8427
C18_4 C 0.8605(13) 0.8505(4) 0.8949(6)
H16_4 H 0.7895 0.8436 0.9413
H17_4 H 0.8048 0.8512 0.8409
H18_4 H 0.9396 0.8264 0.8925
loop_
_geom_bond_atom_site_label_1
_geom_bond_atom_site_label_2
_geom_bond_site_symmetry_1
_geom_bond_site_symmetry_2
N2 C16 1_555 1_555
H12 C16 1_555 1_555
C17 N2 1_555 1_555
H14 C17 1_555 1_555
H15 C17 1_555 1_555
C18 N2 1_555 1_555
H16 C18 1_555 1_555
H17 C18 1_555 1_555
H18 C18 1_555 1_555
O8 C9 1_555 1_555
O9 C10 1_555 1_555
C7 H8 1_555 1_555
C8 C7 1_555 1_555
H9 C8 1_555 1_555
C9 O7 1_555 1_555
C10 C9 1_555 1_555
C11 C10 1_555 1_555
H10 C11 1_555 1_555
O10 C13 1_555 1_555
O11 C13 1_555 1_555
C13 C14 1_555 1_555
C14 O9 1_555 1_555
C15 C11 1_555 1_555
H11 C15 1_555 1_555
O12 Tb2 1_555 1_555
O13 C19 1_555 1_555
O15 C21 1_555 1_555
O16 Tb2 1_555 1_555
O17 C20 1_555 1_555
C19 O14 1_555 1_555
C20 O16 1_555 1_555
C21 C19 1_555 1_555
C24 O15 1_555 1_555
Tb4 O17 1_555 1_555
Tb5 O11 1_555 1_555
Tb7 O8 1_555 1_555
O19 Tb2 1_555 1_555
O23 Tb2 1_555 1_555
C14 C15 1_555 1_555
O13 Tb7 1_555 1_555
C20 C24 1_555 1_555
Tb1 O1 1_555 1_555
O2 C4 1_555 1_555
O3 C4 1_555 1_555
O4 C6 1_555 1_555
O5 Tb1 1_555 1_555
O6 C5 1_555 1_555
C4 C6 1_555 1_555
C5 O5 1_555 1_555
C12 O4 1_555 1_555
C22 H19 1_555 1_555
H20 C23 1_555 1_555
Tb4 O2 1_555 1_555
Tb7 O6 1_555 1_555
O18 Tb1 1_555 1_555
O24 Tb1 1_555 1_555
C5 C12 1_555 1_555
C22 C23 1_555 1_555
O18 C4_2 1_555 1_555
O3_2 C4_2 1_555 1_555
O4_2 C6_2 1_555 1_555
C4_2 C6_2 1_555 1_555
C6_2 C8_2 1_555 1_555
C8_2 C7_2 1_555 1_555
H9_2 C8_2 1_555 1_555
Tb7 O3_2 1_555 1_555
O12_2 Tb7 1_555 1_555
O16_2 Tb7 1_555 1_555
O21 C20_2 1_555 1_555
N2_2 C16_2 1_555 1_555
C16_2 O12_2 1_555 1_555
H12_2 C16_2 1_555 1_555
C17_2 N2_2 1_555 1_555
H13 C17_2 1_555 1_555
H14_2 C17_2 1_555 1_555
H15_2 C17_2 1_555 1_555
C18_2 N2_2 1_555 1_555
H16_2 C18_2 1_555 1_555
H17_2 C18_2 1_555 1_555
H18_2 C18_2 1_555 1_555
C20_2 O16_2 1_555 1_555
O22_2 Tb7 1_555 1_555
C20_2 C24_2 1_555 1_555
Tb4 O1_2 1_555 1_555
O1_2 C1 1_555 1_555
O5_2 Tb4 1_555 1_555
O20 C5_2 1_555 1_555
O7_2 Tb4 1_555 1_555
O23 C9_2 1_555 1_555
O9_2 C10_2 1_555 1_555
N1 C1 1_555 1_555
C1 H1 1_555 1_555
C2 N1 1_555 1_555
H2 C2 1_555 1_555
H3 C2 1_555 1_555
H4 C2 1_555 1_555
C3 N1 1_555 1_555
H5 C3 1_555 1_555
H6 C3 1_555 1_555
H7 C3 1_555 1_555
C5_2 O5_2 1_555 1_555
C9_2 O7_2 1_555 1_555
C10_2 C9_2 1_555 1_555
C11_2 C10_2 1_555 1_555
H10_2 C11_2 1_555 1_555
O10_2 C13_2 1_555 1_555
O11_2 C13_2 1_555 1_555
C13_2 C14_2 1_555 1_555
C14_2 O9_2 1_555 1_555
C15_2 C11_2 1_555 1_555
H11_2 C15_2 1_555 1_555
O19 C19_2 1_555 1_555
O14_2 Tb4 1_555 1_555
O15_2 C21_2 1_555 1_555
C19_2 O14_2 1_555 1_555
C21_2 C19_2 1_555 1_555
C23_2 C21_2 1_555 1_555
H20_2 C23_2 1_555 1_555
Tb5_2 O11_2 1_555 1_555
Tb8_2 O10_2 1_555 1_555
O24_2 Tb4 1_555 1_555
C5_2 C12_2 1_555 1_555
C14_2 C15_2 1_555 1_555
C22_2 C23_2 1_555 1_555
O2_2 C4_3 1_555 1_555
O3_3 C4_3 1_555 1_555
Tb8_2 O3_3 1_555 1_555
O12_3 Tb8_2 1_555 1_555
O16_3 Tb8_2 1_555 1_555
O17_2 C20_3 1_555 1_555
N2_3 C16_3 1_555 1_555
C16_3 O12_3 1_555 1_555
H12_3 C16_3 1_555 1_555
C17_3 N2_3 1_555 1_555
H13_2 C17_3 1_555 1_555
H14_3 C17_3 1_555 1_555
H15_3 C17_3 1_555 1_555
C18_3 N2_3 1_555 1_555
H16_3 C18_3 1_555 1_555
H17_3 C18_3 1_555 1_555
H18_3 C18_3 1_555 1_555
C20_3 O16_3 1_555 1_555
Tb5_2 O2_2 1_555 1_555
O19_2 Tb8_2 1_555 1_555
O20_2 Tb8_2 1_555 1_555
O23_2 Tb8_2 1_555 1_555
C20_3 C24_3 1_555 1_555
Tb5 O1_3 1_555 1_555
O1_3 C1_2 1_555 1_555
O5_3 Tb5 1_555 1_555
O6_2 C5_3 1_555 1_555
O7_3 Tb5 1_555 1_555
O8_2 C9_3 1_555 1_555
O9_3 C10_3 1_555 1_555
N1_2 C1_2 1_555 1_555
C1_2 H1_2 1_555 1_555
C2_2 N1_2 1_555 1_555
H2_2 C2_2 1_555 1_555
H3_2 C2_2 1_555 1_555
H4_2 C2_2 1_555 1_555
C3_2 N1_2 1_555 1_555
H5_2 C3_2 1_555 1_555
H6_2 C3_2 1_555 1_555
H7_2 C3_2 1_555 1_555
C5_3 O5_3 1_555 1_555
C9_3 O7_3 1_555 1_555
C10_3 C9_3 1_555 1_555
C11_3 C10_3 1_555 1_555
H10_3 C11_3 1_555 1_555
O22_2 C13_3 1_555 1_555
O24 C13_3 1_555 1_555
C13_3 C14_3 1_555 1_555
C14_3 O9_3 1_555 1_555
C15_3 C11_3 1_555 1_555
H11_3 C15_3 1_555 1_555
O13_2 C19_3 1_555 1_555
O14_3 Tb5 1_555 1_555
C19_3 O14_3 1_555 1_555
Tb8 O8_2 1_555 1_555
O18_2 Tb5 1_555 1_555
O21_2 Tb5 1_555 1_555
C5_3 C12_3 1_555 1_555
C14_3 C15_3 1_555 1_555
O13_2 Tb8 1_555 1_555
Tb5_2 O1_4 1_555 1_555
O4_3 C6_3 1_555 1_555
O5_4 Tb5_2 1_555 1_555
O20_2 C5_4 1_555 1_555
C5_4 O5_4 1_555 1_555
C12_4 O4_3 1_555 1_555
C5_4 C12_4 1_555 1_555
O18_2 C4_4 1_555 1_555
O3_4 C4_4 1_555 1_555
C22_3 H19_4 1_555 1_555
H20_3 C23_3 1_555 1_555
C22_3 C23_3 1_555 1_555
O23_2 C9_4 1_555 1_555
O9_4 C10_4 1_555 1_555
C7_3 H8_4 1_555 1_555
C8_3 C7_3 1_555 1_555
H9_3 C8_3 1_555 1_555
C9_4 O7_4 1_555 1_555
C10_4 C9_4 1_555 1_555
C11_4 C10_4 1_555 1_555
H10_4 C11_4 1_555 1_555
O22 C13_4 1_555 1_555
O24_2 C13_4 1_555 1_555
C13_4 C14_4 1_555 1_555
C14_4 O9_4 1_555 1_555
C15_4 C11_4 1_555 1_555
H11_4 C15_4 1_555 1_555
O19_2 C19_4 1_555 1_555
C19_4 O14_4 1_555 1_555
C14_4 C15_4 1_555 1_555
O12_4 Tb8 1_555 1_555
O15_3 C21_3 1_555 1_555
O16_4 Tb8 1_555 1_555
O21_2 C20_4 1_555 1_555
C20_4 O16_4 1_555 1_555
C24_4 O15_3 1_555 1_555
C20_4 C24_4 1_555 1_555
N1_3 C1_3 1_555 1_555
C1_3 H1_3 1_555 1_555
C2_3 N1_3 1_555 1_555
H3_3 C2_3 1_555 1_555
H4_3 C2_3 1_555 1_555
C3_3 N1_3 1_555 1_555
H5_3 C3_3 1_555 1_555
H6_3 C3_3 1_555 1_555
H7_3 C3_3 1_555 1_555
O15_4 C21_4 1_555 1_555
C23_4 C21_4 1_555 1_555
H20_4 C23_4 1_555 1_555
C22_4 C23_4 1_555 1_555
O4_4 C6_4 1_555 1_555
C6_4 C8_4 1_555 1_555
C8_4 C7_4 1_555 1_555
H9_4 C8_4 1_555 1_555
N1_4 C1_4 1_555 1_555
C1_4 H1_4 1_555 1_555
C2_4 N1_4 1_555 1_555
H3_4 C2_4 1_555 1_555
H4_4 C2_4 1_555 1_555
C3_4 N1_4 1_555 1_555
H5_4 C3_4 1_555 1_555
H6_4 C3_4 1_555 1_555
H7_4 C3_4 1_555 1_555
N2_4 C16_4 1_555 1_555
H12_4 C16_4 1_555 1_555
C17_4 N2_4 1_555 1_555
H14_4 C17_4 1_555 1_555
H15_4 C17_4 1_555 1_555
C18_4 N2_4 1_555 1_555
H16_4 C18_4 1_555 1_555
H17_4 C18_4 1_555 1_555
H18_4 C18_4 1_555 1_555

#END
