
###############################################################################
#
# This file contains modified crystal structure data generated from the
# MOF subset of the Cambridge Structural Database (CSD) v543 
# hosted by the Cambridge Crystallographic Data Centre (CCDC).
#
# This work is licensed under the Creative Commons
# Attribution-NonCommercial-ShareAlike 4.0 International License.
# To view a copy of this license, visit
# http://creativecommons.org/licenses/by-nc-sa/4.0/
# or send a letter to
# Creative Commons, PO Box 1866, Mountain View, CA 94042, USA.
#
# CIF created using the CSD Python API on 29 September 2022
# The structure has been converted into the P1 space group
# The structure has a 3D framework
# The original CSD entry XIGGIG is in the monoclinic crystal system
# The framework has been calculated to contain at least 10.0% void space
# The void calculation uses a probe of radius 1.32A, grid spacing 0.4
#
###############################################################################

data_XIGGIG
_chemical_formula_moiety         '(C232 H168 N8 O48 Zn8)n'
_symmetry_cell_setting           triclinic
_symmetry_space_group_name_H-M   'P 1'
_symmetry_Int_Tables_number      1
_space_group_name_Hall           'P 1'
loop_
_symmetry_equiv_pos_site_id
_symmetry_equiv_pos_as_xyz
1 x,y,z
_cell_length_a                   13.8237(9)
_cell_length_b                   25.7839(10)
_cell_length_c                   16.4412(9)
_cell_angle_alpha                90
_cell_angle_beta                 111.467(7)
_cell_angle_gamma                90
_cell_volume                     5453.59
loop_
_atom_site_label
_atom_site_type_symbol
_atom_site_fract_x
_atom_site_fract_y
_atom_site_fract_z
C31 C 0.5826(3) 0.42119(19) 0.2510(3)
H27 H 0.6406 0.4348 0.2950
C32 C 0.5625(3) 0.43314(15) 0.1639(3)
C33 C 0.6363(3) 0.51396(15) 0.1415(3)
C34 C 0.5630(3) 0.54401(17) 0.1573(3)
H28 H 0.5090 0.5286 0.1695
C35 C 0.5706(3) 0.59768(16) 0.1547(3)
H29 H 0.5221 0.6182 0.1668
C36 C 0.6488(3) 0.62113(15) 0.1345(2)
C37 C 0.7221(3) 0.59003(15) 0.1198(3)
H30 H 0.7761 0.6052 0.1074
C38 C 0.7161(3) 0.53675(15) 0.1234(3)
H31 H 0.7660 0.5162 0.1136
C39 C 0.6559(3) 0.67895(16) 0.1298(3)
C44 C 0.3564(3) 0.33217(13) 0.2292(2)
C45 C 0.5150(3) 0.38868(18) 0.2712(3)
H34 H 0.5284 0.3801 0.3293
C46 C 0.4277(3) 0.36876(14) 0.2064(2)
C47 C 0.4078(3) 0.38253(17) 0.1207(3)
H35 H 0.3484 0.3701 0.0767
C48 C 0.4756(4) 0.41474(18) 0.0994(3)
H36 H 0.4618 0.4237 0.0414
C49 C 0.1116(3) 0.31994(13) 0.3035(2)
C50 C 0.0360(3) 0.35345(14) 0.3229(2)
C51 C 0.0548(4) 0.36978(19) 0.4079(3)
H37 H 0.1124 0.3571 0.4535
H38 H 0.0020 0.4149 0.4827
N1 N 0.0636(2) 0.28953(13) 0.03485(19)
O3 O 0.0929(2) 0.30977(13) 0.22496(19)
O4 O 0.1905(2) 0.30553(12) 0.36591(18)
O6 O 0.5969(3) 0.70723(13) 0.1519(2)
O7 O 0.7204(3) 0.69859(12) 0.1032(3)
O8 O 0.6363(2) 0.46037(11) 0.1414(2)
O9 O 0.3731(2) 0.32497(11) 0.30872(18)
O10 O 0.2849(2) 0.31199(11) 0.16701(18)
Zn1 Zn 0.16059(4) 0.271387(19) 0.15894(3)
Zn2 Zn 0.32643(4) 0.274047(18) 0.37871(3)
N3 N 0.4198(2) 0.29774(12) 0.5024(2)
O13 O 0.1990(3) 0.20012(12) 0.1625(3)
O14 O 0.4031(3) 0.20723(13) 0.3481(2)
O15 O 0.2796(3) 0.19859(12) 0.3968(3)
Zn5 Zn 0.67357(4) 0.774047(18) 0.12129(3)
C24 C 0.9619(3) 0.29432(19) 0.0149(3)
H21 H 0.9361 0.2906 0.0595
C40 C 0.7845(4) 0.59557(18) 0.3628(3)
H32 H 0.7338 0.6176 0.3679
C41 C 0.8657(4) 0.61610(17) 0.3456(3)
C42 C 0.9388(5) 0.58350(18) 0.3359(3)
H33 H 0.9943 0.5971 0.3235
C43 C 0.8764(4) 0.6747(2) 0.3373(3)
C52 C 0.9894(4) 0.4044(2) 0.4256(3)
C53 C 0.9050(3) 0.42323(15) 0.3577(3)
C54 C 0.8821(3) 0.40654(17) 0.2736(3)
H39 H 0.8232 0.4186 0.2287
C55 C 0.9477(3) 0.37169(17) 0.2568(3)
H40 H 0.9324 0.3601 0.1999
C56 C 0.7757(3) 0.54209(18) 0.3729(3)
H41 H 0.7204 0.5286 0.3857
C57 C 0.8500(3) 0.50985(15) 0.3636(3)
C58 C 0.9306(4) 0.52997(17) 0.3444(3)
H42 H 0.9801 0.5080 0.3370
O1 O 0.9593(4) 0.69337(15) 0.3364(3)
O2 O 0.8010(3) 0.70012(12) 0.3375(3)
O5 O 0.8379(3) 0.45738(11) 0.3767(2)
Zn3 Zn 0.83941(4) 0.771387(19) 0.34106(3)
C1 C 0.7745(8) 0.3354(3) 0.4376(4)
H1 H 0.7642 0.3525 0.3831
H2 H 0.8454 0.3241 0.4636
H3 H 0.7594 0.3591 0.4764
C2 C 0.7054(5) 0.2906(2) 0.4219(3)
C3 C 0.7063(4) 0.25827(18) 0.4971(3)
C4 C 0.6529(4) 0.2123(2) 0.4817(3)
H4 H 0.6184 0.2011 0.4246
C5 C 0.6501(5) 0.1824(2) 0.5511(4)
H5 H 0.6185 0.1499 0.5409
C6 C 0.6947(4) 0.20118(19) 0.6354(3)
H6 H 0.6910 0.1816 0.6817
C7 C 0.7447(3) 0.24845(17) 0.6518(3)
C8 C 0.7548(3) 0.27575(17) 0.5828(3)
H7 H 0.7943 0.3060 0.5937
C9 C 0.7689(3) 0.27336(18) 0.7395(3)
H8 H 0.7782 0.2473 0.7852
C10 C 0.6852(3) 0.31640(18) 0.7400(3)
H9 H 0.6705 0.3137 0.7938
C11 C 0.7682(3) 0.35885(18) 0.7501(3)
H10 H 0.7564 0.3729 0.6918
C12 C 0.8554(3) 0.31583(18) 0.7701(3)
H11 H 0.8938 0.3184 0.7306
C13 C 0.7134(5) 0.4115(3) 0.8561(5)
H12 H 0.6620 0.3871 0.8512
C14 C 0.7790(3) 0.40411(19) 0.8109(3)
C15 C 0.8581(4) 0.4400(2) 0.8227(3)
H13 H 0.9051 0.4342 0.7951
C16 C 0.8699(5) 0.4840(2) 0.8735(4)
C17 C 0.7992(5) 0.4926(3) 0.9157(5)
H14 H 0.8030 0.5229 0.9475
C18 C 0.7230(6) 0.4554(3) 0.9097(6)
H15 H 0.6791 0.4595 0.9407
C19 C 0.9577(7) 0.5211(3) 0.8829(5)
C20 C 0.9565(8) 0.5733(3) 0.9234(6)
H17 H 0.9502 0.5687 0.9792
H18 H 0.8986 0.5931 0.8858
C21 C 0.9276(3) 0.30888(17) 0.8638(2)
C25 C 0.8928(3) 0.3044(2) 0.9320(3)
H22 H 0.8225 0.3082 0.9219
H23 H 0.3775 0.2465 0.5718
H24 H 0.5132 0.2586 0.7022
H25 H 0.6114 0.3747 0.5921
H26 H 0.4794 0.3561 0.4633
C26 C 0.4282(4) 0.2712(2) 0.5748(3)
C27 C 0.5094(4) 0.2788(2) 0.6541(3)
C28 C 0.5850(3) 0.31550(17) 0.6615(2)
C29 C 0.5682(4) 0.34658(18) 0.5892(3)
C30 C 0.4871(4) 0.33553(18) 0.5119(3)
O11 O 0.6472(4) 0.28020(17) 0.3486(2)
H14_2 H 0.1970 0.0229 0.5525
C19_2 C 0.0423(7) 0.0211(3) 0.6171(5)
C20_2 C 0.0435(8) 0.0733(3) 0.5766(6)
H17_2 H 0.0498 0.0687 0.5208
H18_2 H 0.1014 0.0931 0.6142
C40_2 C 0.2155(4) 0.09557(18) 0.1372(3)
H32_2 H 0.2662 0.1176 0.1321
C41_2 C 0.1343(4) 0.11610(17) 0.1544(3)
C42_2 C 0.0612(5) 0.08350(18) 0.1641(3)
H33_2 H 0.0057 0.0971 0.1765
C43_2 C 0.1236(4) 0.1747(2) 0.1627(3)
C56_2 C 0.2243(3) 0.04209(18) 0.1271(3)
H41_2 H 0.2796 0.0286 0.1143
C57_2 C 0.1500(3) 0.00985(15) 0.1364(3)
C58_2 C 0.0694(4) 0.02997(17) 0.1556(3)
H42_2 H 0.0199 0.0080 0.1630
O1_2 O 0.0407(4) 0.19337(15) 0.1636(3)
C1_2 C 0.2255(8) 0.8354(3) 0.0624(4)
H1_2 H 0.2358 0.8525 0.1169
H2_2 H 0.1546 0.8241 0.0364
H3_2 H 0.2406 0.8591 0.0236
C2_2 C 0.2946(5) 0.7906(2) 0.0781(3)
C3_2 C 0.2937(4) 0.75827(18) 0.0029(3)
C4_2 C 0.3471(4) 0.7123(2) 0.0183(3)
H4_2 H 0.3816 0.7011 0.0754
H26_2 H 0.5206 0.8561 0.0367
O11_2 O 0.3528(4) 0.78020(17) 0.1514(2)
H16 H 0.9800 0.0913 0.5690
C33_2 C 0.3637(3) 0.01396(15) 0.3585(3)
C34_2 C 0.4370(3) 0.04401(17) 0.3427(3)
H28_2 H 0.4910 0.0286 0.3305
C35_2 C 0.4294(3) 0.09768(16) 0.3453(3)
H29_2 H 0.4779 0.1182 0.3332
C36_2 C 0.3512(3) 0.12113(15) 0.3655(2)
C37_2 C 0.2779(3) 0.09003(15) 0.3802(3)
H30_2 H 0.2239 0.1052 0.3926
C38_2 C 0.2839(3) 0.03675(15) 0.3766(3)
H31_2 H 0.2340 0.0162 0.3864
C39_2 C 0.3441(3) 0.17895(16) 0.3702(3)
O12 O 0.9714(6) 0.0076(3) 0.6414(5)
C22 C 0.9655(3) 0.80346(18) 0.6148(3)
H19 H 0.9379 0.8062 0.6584
C23 C 0.9005(3) 0.79412(18) 0.5300(3)
H20 H 0.8295 0.7909 0.5174
C31_2 C 0.4174(3) 0.92119(19) 0.2490(3)
H27_2 H 0.3594 0.9348 0.2050
C32_2 C 0.4375(3) 0.93314(15) 0.3361(3)
C44_2 C 0.6436(3) 0.83217(13) 0.2708(2)
C45_2 C 0.4850(3) 0.88868(18) 0.2288(3)
H34_2 H 0.4716 0.8801 0.1707
C46_2 C 0.5723(3) 0.86876(14) 0.2936(2)
C47_2 C 0.5922(3) 0.88253(17) 0.3793(3)
H35_2 H 0.6516 0.8701 0.4233
C48_2 C 0.5244(4) 0.91474(18) 0.4006(3)
H36_2 H 0.5382 0.9237 0.4586
C49_2 C 0.8884(3) 0.81994(13) 0.1965(2)
C50_2 C 0.9640(3) 0.85345(14) 0.1771(2)
C51_2 C 0.9452(4) 0.86978(19) 0.0921(3)
H37_2 H 0.8876 0.8571 0.0465
H38_2 H 0.9980 0.9149 0.0173
N1_2 N 0.9364(2) 0.78953(13) 0.46515(19)
O3_2 O 0.9071(2) 0.80977(13) 0.27504(19)
O4_2 O 0.8095(2) 0.80553(12) 0.13409(18)
O8_2 O 0.3637(2) 0.96037(11) 0.3586(2)
O9_2 O 0.6269(2) 0.82497(11) 0.19128(18)
O10_2 O 0.7151(2) 0.81199(11) 0.33299(18)
H16_2 H 0.0200 0.5913 0.9310
C22_2 C 0.0345(3) 0.30346(18) 0.8852(3)
H19_2 H 0.0621 0.3062 0.8416
C23_2 C 0.0995(3) 0.29412(18) 0.9700(3)
H20_2 H 0.1705 0.2909 0.9826
O12_2 O 0.0286(6) 0.5076(3) 0.8586(5)
C5_2 C 0.3499(5) 0.6824(2) 0.9489(4)
H5_2 H 0.3815 0.6499 0.9591
C6_2 C 0.3053(4) 0.70118(19) 0.8646(3)
H6_2 H 0.3090 0.6816 0.8183
C7_2 C 0.2553(3) 0.74845(17) 0.8482(3)
C8_2 C 0.2452(3) 0.77575(17) 0.9172(3)
H7_2 H 0.2057 0.8060 0.9063
C9_2 C 0.2311(3) 0.77336(18) 0.7605(3)
H8_2 H 0.2218 0.7473 0.7148
C10_2 C 0.3148(3) 0.81640(18) 0.7600(3)
H9_2 H 0.3295 0.8137 0.7062
C11_2 C 0.2318(3) 0.85885(18) 0.7499(3)
H10_2 H 0.2436 0.8729 0.8082
C12_2 C 0.1446(3) 0.81583(18) 0.7299(3)
H11_2 H 0.1062 0.8184 0.7694
C13_2 C 0.2866(5) 0.9115(3) 0.6439(5)
H12_2 H 0.3380 0.8871 0.6488
C14_2 C 0.2210(3) 0.90411(19) 0.6891(3)
C15_2 C 0.1419(4) 0.9400(2) 0.6773(3)
H13_2 H 0.0949 0.9342 0.7049
C16_2 C 0.1301(5) 0.9840(2) 0.6265(4)
C17_2 C 0.2008(5) 0.9926(3) 0.5843(5)
C18_2 C 0.2770(6) 0.9554(3) 0.5903(6)
H15_2 H 0.3209 0.9595 0.5593
C21_2 C 0.0724(3) 0.80888(17) 0.6362(2)
C24_2 C 0.0381(3) 0.79432(19) 0.4851(3)
H21_2 H 0.0639 0.7906 0.4405
C25_2 C 0.1072(3) 0.8044(2) 0.5680(3)
H22_2 H 0.1775 0.8082 0.5781
H23_2 H 0.6225 0.7465 0.9282
H24_2 H 0.4868 0.7586 0.7978
H25_2 H 0.3886 0.8747 0.9079
C26_2 C 0.5718(4) 0.7712(2) 0.9252(3)
C27_2 C 0.4906(4) 0.7788(2) 0.8459(3)
C28_2 C 0.4150(3) 0.81550(17) 0.8385(2)
C29_2 C 0.4318(4) 0.84658(18) 0.9108(3)
C30_2 C 0.5129(4) 0.83553(18) 0.9881(3)
C52_2 C 0.0106(4) 0.9044(2) 0.0744(3)
C53_2 C 0.0950(3) 0.92323(15) 0.1423(3)
C54_2 C 0.1179(3) 0.90654(17) 0.2264(3)
H39_2 H 0.1768 0.9186 0.2713
C55_2 C 0.0523(3) 0.87169(17) 0.2432(3)
H40_2 H 0.0676 0.8601 0.3001
N2 N 0.5802(2) 0.79774(12) 0.9976(2)
O5_2 O 0.1621(3) 0.95738(11) 0.1233(2)
C1_3 C 0.2255(8) 0.6646(3) 0.5624(4)
H1_3 H 0.2358 0.6475 0.6169
H2_3 H 0.1546 0.6759 0.5364
H3_3 H 0.2406 0.6409 0.5236
C2_3 C 0.2946(5) 0.7094(2) 0.5781(3)
C3_3 C 0.2937(4) 0.74173(18) 0.5029(3)
C4_3 C 0.3471(4) 0.7877(2) 0.5183(3)
H4_3 H 0.3816 0.7989 0.5754
C5_3 C 0.3499(5) 0.8176(2) 0.4489(4)
H5_3 H 0.3815 0.8501 0.4591
C6_3 C 0.3053(4) 0.79882(19) 0.3646(3)
H6_3 H 0.3090 0.8184 0.3183
C7_3 C 0.2553(3) 0.75155(17) 0.3482(3)
C8_3 C 0.2452(3) 0.72425(17) 0.4172(3)
H7_3 H 0.2057 0.6940 0.4063
C9_3 C 0.2311(3) 0.72664(18) 0.2605(3)
H8_3 H 0.2218 0.7527 0.2148
C10_3 C 0.3148(3) 0.68360(18) 0.2600(3)
H9_3 H 0.3295 0.6863 0.2062
C11_3 C 0.2318(3) 0.64115(18) 0.2499(3)
H10_3 H 0.2436 0.6271 0.3082
C12_3 C 0.1446(3) 0.68417(18) 0.2299(3)
H11_3 H 0.1062 0.6816 0.2694
C13_3 C 0.2866(5) 0.5885(3) 0.1439(5)
H12_3 H 0.3380 0.6129 0.1488
C14_3 C 0.2210(3) 0.59589(19) 0.1891(3)
C15_3 C 0.1419(4) 0.5600(2) 0.1773(3)
H13_3 H 0.0949 0.5658 0.2049
C16_3 C 0.1301(5) 0.5160(2) 0.1265(4)
C17_3 C 0.2008(5) 0.5074(3) 0.0843(5)
H14_3 H 0.1970 0.4771 0.0525
C18_3 C 0.2770(6) 0.5446(3) 0.0903(6)
H15_3 H 0.3209 0.5405 0.0593
C19_3 C 0.0423(7) 0.4789(3) 0.1171(5)
C20_3 C 0.0435(8) 0.4267(3) 0.0766(6)
H17_3 H 0.0498 0.4313 0.0208
H18_3 H 0.1014 0.4069 0.1142
C21_3 C 0.0724(3) 0.69112(17) 0.1362(2)
C25_3 C 0.1072(3) 0.6956(2) 0.0680(3)
H22_3 H 0.1775 0.6918 0.0781
H23_3 H 0.6225 0.7535 0.4282
H24_3 H 0.4868 0.7414 0.2978
H25_3 H 0.3886 0.6253 0.4079
H26_3 H 0.5206 0.6439 0.5367
C26_3 C 0.5718(4) 0.7288(2) 0.4252(3)
C27_3 C 0.4906(4) 0.7212(2) 0.3459(3)
C28_3 C 0.4150(3) 0.68450(17) 0.3385(2)
C29_3 C 0.4318(4) 0.65342(18) 0.4108(3)
C30_3 C 0.5129(4) 0.66447(18) 0.4881(3)
N2_2 N 0.5802(2) 0.70226(12) 0.4976(2)
O11_3 O 0.3528(4) 0.71980(17) 0.6514(2)
Zn4 Zn 0.67357(4) 0.725953(18) 0.62129(3)
C24_3 C 0.0381(3) 0.70568(19) 0.9851(3)
H21_3 H 0.0639 0.7094 0.9405
C40_3 C 0.2155(4) 0.40443(18) 0.6372(3)
H32_3 H 0.2662 0.3824 0.6321
C41_3 C 0.1343(4) 0.38390(17) 0.6544(3)
C42_3 C 0.0612(5) 0.41650(18) 0.6641(3)
H33_3 H 0.0057 0.4029 0.6765
C43_3 C 0.1236(4) 0.3253(2) 0.6627(3)
C52_3 C 0.0106(4) 0.5956(2) 0.5744(3)
C53_3 C 0.0950(3) 0.57677(15) 0.6423(3)
C54_3 C 0.1179(3) 0.59346(17) 0.7264(3)
H39_3 H 0.1768 0.5814 0.7713
C55_3 C 0.0523(3) 0.62831(17) 0.7432(3)
H40_3 H 0.0676 0.6399 0.8001
C56_3 C 0.2243(3) 0.45791(18) 0.6271(3)
H41_3 H 0.2796 0.4714 0.6143
C57_3 C 0.1500(3) 0.49015(15) 0.6364(3)
C58_3 C 0.0694(4) 0.47003(17) 0.6556(3)
H42_3 H 0.0199 0.4920 0.6630
O1_3 O 0.0407(4) 0.30663(15) 0.6636(3)
O2_2 O 0.1990(3) 0.29988(12) 0.6625(3)
O5_3 O 0.1621(3) 0.54262(11) 0.6233(2)
Zn3_2 Zn 0.16059(4) 0.228613(19) 0.65894(3)
C31_3 C 0.4174(3) 0.57881(19) 0.7490(3)
H27_3 H 0.3594 0.5652 0.7050
C32_3 C 0.4375(3) 0.56686(15) 0.8361(3)
C33_3 C 0.3637(3) 0.48604(15) 0.8585(3)
C34_3 C 0.4370(3) 0.45599(17) 0.8427(3)
H28_3 H 0.4910 0.4714 0.8305
C35_3 C 0.4294(3) 0.40232(16) 0.8453(3)
H29_3 H 0.4779 0.3818 0.8332
C36_3 C 0.3512(3) 0.37887(15) 0.8655(2)
C37_3 C 0.2779(3) 0.40997(15) 0.8802(3)
H30_3 H 0.2239 0.3948 0.8926
C38_3 C 0.2839(3) 0.46325(15) 0.8766(3)
H31_3 H 0.2340 0.4838 0.8864
C39_3 C 0.3441(3) 0.32105(16) 0.8702(3)
C44_3 C 0.6436(3) 0.66783(13) 0.7708(2)
C45_3 C 0.4850(3) 0.61132(18) 0.7288(3)
H34_3 H 0.4716 0.6199 0.6707
C46_3 C 0.5723(3) 0.63124(14) 0.7936(2)
C47_3 C 0.5922(3) 0.61747(17) 0.8793(3)
H35_3 H 0.6516 0.6299 0.9233
C48_3 C 0.5244(4) 0.58526(18) 0.9006(3)
H36_3 H 0.5382 0.5763 0.9586
C49_3 C 0.8884(3) 0.68006(13) 0.6965(2)
C50_3 C 0.9640(3) 0.64655(14) 0.6771(2)
C51_3 C 0.9452(4) 0.63022(19) 0.5921(3)
H37_3 H 0.8876 0.6429 0.5465
H38_3 H 0.9980 0.5851 0.5173
N1_3 N 0.9364(2) 0.71047(13) 0.96515(19)
O3_3 O 0.9071(2) 0.69023(13) 0.77504(19)
O4_3 O 0.8095(2) 0.69447(12) 0.63409(18)
O6_2 O 0.4031(3) 0.29277(13) 0.8481(2)
O7_2 O 0.2796(3) 0.30141(12) 0.8968(3)
O8_3 O 0.3637(2) 0.53963(11) 0.8586(2)
O9_3 O 0.6269(2) 0.67503(11) 0.69128(18)
O10_3 O 0.7151(2) 0.68801(11) 0.83299(18)
Zn1_2 Zn 0.83941(4) 0.728613(19) 0.84106(3)
O13_2 O 0.8010(3) 0.79988(12) 0.8375(3)
O14_2 O 0.5969(3) 0.79277(13) 0.6519(2)
O15_2 O 0.7204(3) 0.80141(12) 0.6032(3)
Zn5_2 Zn 0.32643(4) 0.225953(18) 0.87871(3)
C22_3 C 0.0345(3) 0.19654(18) 0.3852(3)
H19_3 H 0.0621 0.1938 0.3416
C23_3 C 0.0995(3) 0.20588(18) 0.4700(3)
H20_3 H 0.1705 0.2091 0.4826
C31_4 C 0.5826(3) 0.07881(19) 0.7510(3)
H27_4 H 0.6406 0.0652 0.7950
C32_4 C 0.5625(3) 0.06686(15) 0.6639(3)
C44_4 C 0.3564(3) 0.16783(13) 0.7292(2)
C45_4 C 0.5150(3) 0.11132(18) 0.7712(3)
H34_4 H 0.5284 0.1199 0.8293
C46_4 C 0.4277(3) 0.13124(14) 0.7064(2)
C47_4 C 0.4078(3) 0.11747(17) 0.6207(3)
H35_4 H 0.3484 0.1299 0.5767
C48_4 C 0.4756(4) 0.08526(18) 0.5994(3)
H36_4 H 0.4618 0.0763 0.5414
C49_4 C 0.1116(3) 0.18006(13) 0.8035(2)
C50_4 C 0.0360(3) 0.14655(14) 0.8229(2)
C51_4 C 0.0548(4) 0.13022(19) 0.9079(3)
H37_4 H 0.1124 0.1429 0.9535
H38_4 H 0.0020 0.0851 0.9827
N1_4 N 0.0636(2) 0.21047(13) 0.53485(19)
O3_4 O 0.0929(2) 0.19023(13) 0.72496(19)
O4_4 O 0.1905(2) 0.19447(12) 0.86591(18)
O8_4 O 0.6363(2) 0.03963(11) 0.6414(2)
O9_4 O 0.3731(2) 0.17503(11) 0.80872(18)
O10_4 O 0.2849(2) 0.18801(11) 0.66701(18)
H16_3 H 0.0200 0.9087 0.4310
C33_4 C 0.6363(3) 0.98604(15) 0.6415(3)
C34_4 C 0.5630(3) 0.95599(17) 0.6573(3)
H28_4 H 0.5090 0.9714 0.6695
C35_4 C 0.5706(3) 0.90232(16) 0.6547(3)
H29_4 H 0.5221 0.8818 0.6668
C36_4 C 0.6488(3) 0.87887(15) 0.6345(2)
C37_4 C 0.7221(3) 0.90997(15) 0.6198(3)
H30_4 H 0.7761 0.8948 0.6074
C38_4 C 0.7161(3) 0.96325(15) 0.6234(3)
H31_4 H 0.7660 0.9838 0.6136
C39_4 C 0.6559(3) 0.82105(16) 0.6298(3)
O12_3 O 0.0286(6) 0.9924(3) 0.3586(5)
C1_4 C 0.7745(8) 0.1646(3) 0.9376(4)
H1_4 H 0.7642 0.1475 0.8831
H2_4 H 0.8454 0.1759 0.9636
H3_4 H 0.7594 0.1409 0.9764
C2_4 C 0.7054(5) 0.2094(2) 0.9219(3)
C3_4 C 0.7063(4) 0.24173(18) 0.9971(3)
C4_4 C 0.6529(4) 0.2877(2) 0.9817(3)
H4_4 H 0.6184 0.2989 0.9246
H26_4 H 0.4794 0.1439 0.9633
O11_4 O 0.6472(4) 0.21980(17) 0.8486(2)
H14_4 H 0.8030 0.9771 0.4475
C19_4 C 0.9577(7) 0.9789(3) 0.3829(5)
C20_4 C 0.9565(8) 0.9267(3) 0.4234(6)
H17_4 H 0.9502 0.9313 0.4792
H18_4 H 0.8986 0.9069 0.3858
C40_4 C 0.7845(4) 0.90443(18) 0.8628(3)
H32_4 H 0.7338 0.8824 0.8679
C41_4 C 0.8657(4) 0.88390(17) 0.8456(3)
C42_4 C 0.9388(5) 0.91650(18) 0.8359(3)
H33_4 H 0.9943 0.9029 0.8235
C43_4 C 0.8764(4) 0.8253(2) 0.8373(3)
C56_4 C 0.7757(3) 0.95791(18) 0.8729(3)
H41_4 H 0.7204 0.9714 0.8857
C57_4 C 0.8500(3) 0.99015(15) 0.8636(3)
C58_4 C 0.9306(4) 0.97003(17) 0.8444(3)
H42_4 H 0.9801 0.9920 0.8370
O1_4 O 0.9593(4) 0.80663(15) 0.8364(3)
H16_4 H 0.9800 0.4087 0.0690
C22_4 C 0.9655(3) 0.69654(18) 0.1148(3)
H19_4 H 0.9379 0.6938 0.1584
C23_4 C 0.9005(3) 0.70588(18) 0.0300(3)
H20_4 H 0.8295 0.7091 0.0174
O12_4 O 0.9714(6) 0.4924(3) 0.1414(5)
N3_2 N 0.4198(2) 0.20226(12) 0.0024(2)
C5_4 C 0.6501(5) 0.3176(2) 0.0511(4)
H5_4 H 0.6185 0.3501 0.0409
C6_4 C 0.6947(4) 0.29882(19) 0.1354(3)
H6_4 H 0.6910 0.3184 0.1817
C7_4 C 0.7447(3) 0.25155(17) 0.1518(3)
C8_4 C 0.7548(3) 0.22425(17) 0.0828(3)
H7_4 H 0.7943 0.1940 0.0937
C9_4 C 0.7689(3) 0.22664(18) 0.2395(3)
H8_4 H 0.7782 0.2527 0.2852
C10_4 C 0.6852(3) 0.18360(18) 0.2400(3)
H9_4 H 0.6705 0.1863 0.2938
C11_4 C 0.7682(3) 0.14115(18) 0.2501(3)
H10_4 H 0.7564 0.1271 0.1918
C12_4 C 0.8554(3) 0.18417(18) 0.2701(3)
H11_4 H 0.8938 0.1816 0.2306
C13_4 C 0.7134(5) 0.0885(3) 0.3561(5)
H12_4 H 0.6620 0.1129 0.3512
C14_4 C 0.7790(3) 0.09589(19) 0.3109(3)
C15_4 C 0.8581(4) 0.0600(2) 0.3227(3)
H13_4 H 0.9051 0.0658 0.2951
C16_4 C 0.8699(5) 0.0160(2) 0.3735(4)
C17_4 C 0.7992(5) 0.0074(3) 0.4157(5)
C18_4 C 0.7230(6) 0.0446(3) 0.4097(6)
H15_4 H 0.6791 0.0405 0.4407
C21_4 C 0.9276(3) 0.19112(17) 0.3638(2)
C24_4 C 0.9619(3) 0.20568(19) 0.5149(3)
H21_4 H 0.9361 0.2094 0.5595
C25_4 C 0.8928(3) 0.1956(2) 0.4320(3)
H22_4 H 0.8225 0.1918 0.4219
H23_4 H 0.3775 0.2535 0.0718
H24_4 H 0.5132 0.2414 0.2022
H25_4 H 0.6114 0.1253 0.0921
C26_4 C 0.4282(4) 0.2288(2) 0.0748(3)
C27_4 C 0.5094(4) 0.2212(2) 0.1541(3)
C28_4 C 0.5850(3) 0.18450(17) 0.1615(2)
C29_4 C 0.5682(4) 0.15342(18) 0.0892(3)
C30_4 C 0.4871(4) 0.16447(18) 0.0119(3)
C52_4 C 0.9894(4) 0.0956(2) 0.9256(3)
C53_4 C 0.9050(3) 0.07677(15) 0.8577(3)
C54_4 C 0.8821(3) 0.09346(17) 0.7736(3)
H39_4 H 0.8232 0.0814 0.7287
C55_4 C 0.9477(3) 0.12831(17) 0.7568(3)
H40_4 H 0.9324 0.1399 0.6999
O5_4 O 0.8379(3) 0.04262(11) 0.8767(2)
loop_
_geom_bond_atom_site_label_1
_geom_bond_atom_site_label_2
_geom_bond_site_symmetry_1
_geom_bond_site_symmetry_2
C31 H27 1_555 1_555
C32 C31 1_555 1_555
C33 C34 1_555 1_555
C34 H28 1_555 1_555
C35 C34 1_555 1_555
H29 C35 1_555 1_555
C36 C35 1_555 1_555
C37 C36 1_555 1_555
H30 C37 1_555 1_555
C38 C33 1_555 1_555
H31 C38 1_555 1_555
C39 C36 1_555 1_555
C44 C46 1_555 1_555
C45 C31 1_555 1_555
H34 C45 1_555 1_555
C46 C45 1_555 1_555
C47 C46 1_555 1_555
H35 C47 1_555 1_555
C48 C32 1_555 1_555
H36 C48 1_555 1_555
C49 C50 1_555 1_555
C50 C51 1_555 1_555
C51 H37 1_555 1_555
O3 C49 1_555 1_555
O4 C49 1_555 1_555
O6 C39 1_555 1_555
O7 C39 1_555 1_555
O8 C32 1_555 1_555
O9 C44 1_555 1_555
O10 C44 1_555 1_555
Zn1 N1 1_555 1_555
Zn2 O4 1_555 1_555
N3 Zn2 1_555 1_555
O13 Zn1 1_555 1_555
O14 Zn2 1_555 1_555
O15 Zn2 1_555 1_555
Zn5 O6 1_555 1_555
C33 O8 1_555 1_555
C37 C38 1_555 1_555
C47 C48 1_555 1_555
O3 Zn1 1_555 1_555
O7 Zn5 1_555 1_555
O9 Zn2 1_555 1_555
O10 Zn1 1_555 1_555
C24 H21 1_555 1_555
C40 H32 1_555 1_555
C41 C40 1_555 1_555
C42 C41 1_555 1_555
H33 C42 1_555 1_555
C43 C41 1_555 1_555
C53 C52 1_555 1_555
C54 C53 1_555 1_555
H39 C54 1_555 1_555
H40 C55 1_555 1_555
C56 C40 1_555 1_555
H41 C56 1_555 1_555
C57 C56 1_555 1_555
C58 C42 1_555 1_555
H42 C58 1_555 1_555
O1 C43 1_555 1_555
O2 C43 1_555 1_555
O5 C53 1_555 1_555
Zn3 O2 1_555 1_555
C54 C55 1_555 1_555
C57 C58 1_555 1_555
C57 O5 1_555 1_555
C1 H1 1_555 1_555
H2 C1 1_555 1_555
H3 C1 1_555 1_555
C2 C1 1_555 1_555
C3 C2 1_555 1_555
C4 C3 1_555 1_555
H4 C4 1_555 1_555
C5 C4 1_555 1_555
H5 C5 1_555 1_555
C6 C5 1_555 1_555
H6 C6 1_555 1_555
C7 C6 1_555 1_555
C8 C3 1_555 1_555
H7 C8 1_555 1_555
C9 C7 1_555 1_555
H8 C9 1_555 1_555
C10 C9 1_555 1_555
H9 C10 1_555 1_555
C11 C10 1_555 1_555
H10 C11 1_555 1_555
C12 C9 1_555 1_555
H11 C12 1_555 1_555
C13 H12 1_555 1_555
C14 C11 1_555 1_555
C15 C14 1_555 1_555
H13 C15 1_555 1_555
C16 C15 1_555 1_555
C17 C16 1_555 1_555
H14 C17 1_555 1_555
C18 C13 1_555 1_555
H15 C18 1_555 1_555
C19 C16 1_555 1_555
C20 C19 1_555 1_555
H17 C20 1_555 1_555
H18 C20 1_555 1_555
C21 C12 1_555 1_555
C25 C21 1_555 1_555
H22 C25 1_555 1_555
H23 C26 1_555 1_555
H24 C27 1_555 1_555
H25 C29 1_555 1_555
H26 C30 1_555 1_555
C26 C27 1_555 1_555
C27 C28 1_555 1_555
C28 C10 1_555 1_555
C29 C28 1_555 1_555
C30 C29 1_555 1_555
N3 C26 1_555 1_555
O11 C2 1_555 1_555
C7 C8 1_555 1_555
C11 C12 1_555 1_555
C13 C14 1_555 1_555
C17 C18 1_555 1_555
C30 N3 1_555 1_555
C20_2 C19_2 1_555 1_555
H17_2 C20_2 1_555 1_555
H18_2 C20_2 1_555 1_555
C40_2 H32_2 1_555 1_555
C41_2 C40_2 1_555 1_555
C42_2 C41_2 1_555 1_555
H33_2 C42_2 1_555 1_555
C43_2 C41_2 1_555 1_555
C56_2 C40_2 1_555 1_555
H41_2 C56_2 1_555 1_555
C57_2 C56_2 1_555 1_555
C58_2 C42_2 1_555 1_555
H42_2 C58_2 1_555 1_555
O1_2 C43_2 1_555 1_555
O13 C43_2 1_555 1_555
C57_2 C58_2 1_555 1_555
C1_2 H1_2 1_555 1_555
H2_2 C1_2 1_555 1_555
H3_2 C1_2 1_555 1_555
C2_2 C1_2 1_555 1_555
C3_2 C2_2 1_555 1_555
C4_2 C3_2 1_555 1_555
H4_2 C4_2 1_555 1_555
O11_2 C2_2 1_555 1_555
C33_2 C34_2 1_555 1_555
C34_2 H28_2 1_555 1_555
C35_2 C34_2 1_555 1_555
H29_2 C35_2 1_555 1_555
C36_2 C35_2 1_555 1_555
C37_2 C36_2 1_555 1_555
H30_2 C37_2 1_555 1_555
C38_2 C33_2 1_555 1_555
H31_2 C38_2 1_555 1_555
C39_2 C36_2 1_555 1_555
O14 C39_2 1_555 1_555
O15 C39_2 1_555 1_555
C37_2 C38_2 1_555 1_555
H19 C22 1_555 1_555
C23 C22 1_555 1_555
H20 C23 1_555 1_555
C31_2 H27_2 1_555 1_555
C32_2 C31_2 1_555 1_555
C44_2 C46_2 1_555 1_555
C45_2 C31_2 1_555 1_555
H34_2 C45_2 1_555 1_555
C46_2 C45_2 1_555 1_555
C47_2 C46_2 1_555 1_555
H35_2 C47_2 1_555 1_555
C48_2 C32_2 1_555 1_555
H36_2 C48_2 1_555 1_555
C49_2 C50_2 1_555 1_555
C50_2 C51_2 1_555 1_555
C51_2 H37_2 1_555 1_555
N1_2 C23 1_555 1_555
O3_2 C49_2 1_555 1_555
O4_2 C49_2 1_555 1_555
O8_2 C32_2 1_555 1_555
O9_2 C44_2 1_555 1_555
O10_2 C44_2 1_555 1_555
Zn3 N1_2 1_555 1_555
Zn5 O4_2 1_555 1_555
C47_2 C48_2 1_555 1_555
O3_2 Zn3 1_555 1_555
O9_2 Zn5 1_555 1_555
O10_2 Zn3 1_555 1_555
H19_2 C22_2 1_555 1_555
C23_2 C22_2 1_555 1_555
H20_2 C23_2 1_555 1_555
H5_2 C5_2 1_555 1_555
C6_2 C5_2 1_555 1_555
H6_2 C6_2 1_555 1_555
C7_2 C6_2 1_555 1_555
H7_2 C8_2 1_555 1_555
C9_2 C7_2 1_555 1_555
H8_2 C9_2 1_555 1_555
C10_2 C9_2 1_555 1_555
H9_2 C10_2 1_555 1_555
C11_2 C10_2 1_555 1_555
H10_2 C11_2 1_555 1_555
C12_2 C9_2 1_555 1_555
H11_2 C12_2 1_555 1_555
C13_2 H12_2 1_555 1_555
C14_2 C11_2 1_555 1_555
C15_2 C14_2 1_555 1_555
H13_2 C15_2 1_555 1_555
C16_2 C15_2 1_555 1_555
C17_2 C16_2 1_555 1_555
C18_2 C13_2 1_555 1_555
H15_2 C18_2 1_555 1_555
C21_2 C12_2 1_555 1_555
C24_2 H21_2 1_555 1_555
C25_2 C21_2 1_555 1_555
H22_2 C25_2 1_555 1_555
H23_2 C26_2 1_555 1_555
H24_2 C27_2 1_555 1_555
H25_2 C29_2 1_555 1_555
C26_2 C27_2 1_555 1_555
C27_2 C28_2 1_555 1_555
C28_2 C10_2 1_555 1_555
C29_2 C28_2 1_555 1_555
C30_2 C29_2 1_555 1_555
C53_2 C52_2 1_555 1_555
C54_2 C53_2 1_555 1_555
H39_2 C54_2 1_555 1_555
H40_2 C55_2 1_555 1_555
N2 C26_2 1_555 1_555
O5_2 C53_2 1_555 1_555
C7_2 C8_2 1_555 1_555
C11_2 C12_2 1_555 1_555
C13_2 C14_2 1_555 1_555
C17_2 C18_2 1_555 1_555
C24_2 C25_2 1_555 1_555
C30_2 N2 1_555 1_555
C54_2 C55_2 1_555 1_555
C1_3 H1_3 1_555 1_555
H2_3 C1_3 1_555 1_555
H3_3 C1_3 1_555 1_555
C2_3 C1_3 1_555 1_555
C3_3 C2_3 1_555 1_555
C4_3 C3_3 1_555 1_555
H4_3 C4_3 1_555 1_555
C5_3 C4_3 1_555 1_555
H5_3 C5_3 1_555 1_555
C6_3 C5_3 1_555 1_555
H6_3 C6_3 1_555 1_555
C7_3 C6_3 1_555 1_555
C8_3 C3_3 1_555 1_555
H7_3 C8_3 1_555 1_555
C9_3 C7_3 1_555 1_555
H8_3 C9_3 1_555 1_555
C10_3 C9_3 1_555 1_555
H9_3 C10_3 1_555 1_555
C11_3 C10_3 1_555 1_555
H10_3 C11_3 1_555 1_555
C12_3 C9_3 1_555 1_555
H11_3 C12_3 1_555 1_555
C13_3 H12_3 1_555 1_555
C14_3 C11_3 1_555 1_555
C15_3 C14_3 1_555 1_555
H13_3 C15_3 1_555 1_555
C16_3 C15_3 1_555 1_555
C17_3 C16_3 1_555 1_555
H14_3 C17_3 1_555 1_555
C18_3 C13_3 1_555 1_555
H15_3 C18_3 1_555 1_555
C19_3 C16_3 1_555 1_555
C20_3 C19_3 1_555 1_555
H17_3 C20_3 1_555 1_555
H18_3 C20_3 1_555 1_555
C21_3 C12_3 1_555 1_555
C25_3 C21_3 1_555 1_555
H22_3 C25_3 1_555 1_555
H23_3 C26_3 1_555 1_555
H24_3 C27_3 1_555 1_555
H25_3 C29_3 1_555 1_555
H26_3 C30_3 1_555 1_555
C26_3 C27_3 1_555 1_555
C27_3 C28_3 1_555 1_555
C28_3 C10_3 1_555 1_555
C29_3 C28_3 1_555 1_555
C30_3 C29_3 1_555 1_555
N2_2 C26_3 1_555 1_555
O11_3 C2_3 1_555 1_555
Zn4 N2_2 1_555 1_555
C7_3 C8_3 1_555 1_555
C11_3 C12_3 1_555 1_555
C13_3 C14_3 1_555 1_555
C17_3 C18_3 1_555 1_555
C30_3 N2_2 1_555 1_555
C24_3 H21_3 1_555 1_555
C40_3 H32_3 1_555 1_555
C41_3 C40_3 1_555 1_555
C42_3 C41_3 1_555 1_555
H33_3 C42_3 1_555 1_555
C43_3 C41_3 1_555 1_555
C53_3 C52_3 1_555 1_555
C54_3 C53_3 1_555 1_555
H39_3 C54_3 1_555 1_555
H40_3 C55_3 1_555 1_555
C56_3 C40_3 1_555 1_555
H41_3 C56_3 1_555 1_555
C57_3 C56_3 1_555 1_555
C58_3 C42_3 1_555 1_555
H42_3 C58_3 1_555 1_555
O1_3 C43_3 1_555 1_555
O2_2 C43_3 1_555 1_555
O5_3 C53_3 1_555 1_555
Zn3_2 O2_2 1_555 1_555
C54_3 C55_3 1_555 1_555
C57_3 C58_3 1_555 1_555
C57_3 O5_3 1_555 1_555
C31_3 H27_3 1_555 1_555
C32_3 C31_3 1_555 1_555
C33_3 C34_3 1_555 1_555
C34_3 H28_3 1_555 1_555
C35_3 C34_3 1_555 1_555
H29_3 C35_3 1_555 1_555
C36_3 C35_3 1_555 1_555
C37_3 C36_3 1_555 1_555
H30_3 C37_3 1_555 1_555
C38_3 C33_3 1_555 1_555
H31_3 C38_3 1_555 1_555
C39_3 C36_3 1_555 1_555
C44_3 C46_3 1_555 1_555
C45_3 C31_3 1_555 1_555
H34_3 C45_3 1_555 1_555
C46_3 C45_3 1_555 1_555
C47_3 C46_3 1_555 1_555
H35_3 C47_3 1_555 1_555
C48_3 C32_3 1_555 1_555
H36_3 C48_3 1_555 1_555
C49_3 C50_3 1_555 1_555
C50_3 C51_3 1_555 1_555
C51_3 H37_3 1_555 1_555
O3_3 C49_3 1_555 1_555
O4_3 C49_3 1_555 1_555
O6_2 C39_3 1_555 1_555
O7_2 C39_3 1_555 1_555
O8_3 C32_3 1_555 1_555
O9_3 C44_3 1_555 1_555
O10_3 C44_3 1_555 1_555
Zn1_2 N1_3 1_555 1_555
Zn4 O4_3 1_555 1_555
O13_2 Zn1_2 1_555 1_555
O14_2 Zn4 1_555 1_555
O15_2 Zn4 1_555 1_555
Zn5_2 O6_2 1_555 1_555
C33_3 O8_3 1_555 1_555
C37_3 C38_3 1_555 1_555
C47_3 C48_3 1_555 1_555
O3_3 Zn1_2 1_555 1_555
O7_2 Zn5_2 1_555 1_555
O9_3 Zn4 1_555 1_555
O10_3 Zn1_2 1_555 1_555
H19_3 C22_3 1_555 1_555
C23_3 C22_3 1_555 1_555
H20_3 C23_3 1_555 1_555
C31_4 H27_4 1_555 1_555
C32_4 C31_4 1_555 1_555
C44_4 C46_4 1_555 1_555
C45_4 C31_4 1_555 1_555
H34_4 C45_4 1_555 1_555
C46_4 C45_4 1_555 1_555
C47_4 C46_4 1_555 1_555
H35_4 C47_4 1_555 1_555
C48_4 C32_4 1_555 1_555
H36_4 C48_4 1_555 1_555
C49_4 C50_4 1_555 1_555
C50_4 C51_4 1_555 1_555
C51_4 H37_4 1_555 1_555
N1_4 C23_3 1_555 1_555
O3_4 C49_4 1_555 1_555
O4_4 C49_4 1_555 1_555
O8_4 C32_4 1_555 1_555
O9_4 C44_4 1_555 1_555
O10_4 C44_4 1_555 1_555
Zn3_2 N1_4 1_555 1_555
Zn5_2 O4_4 1_555 1_555
C47_4 C48_4 1_555 1_555
O3_4 Zn3_2 1_555 1_555
O9_4 Zn5_2 1_555 1_555
O10_4 Zn3_2 1_555 1_555
C33_4 C34_4 1_555 1_555
C34_4 H28_4 1_555 1_555
C35_4 C34_4 1_555 1_555
H29_4 C35_4 1_555 1_555
C36_4 C35_4 1_555 1_555
C37_4 C36_4 1_555 1_555
H30_4 C37_4 1_555 1_555
C38_4 C33_4 1_555 1_555
H31_4 C38_4 1_555 1_555
C39_4 C36_4 1_555 1_555
O14_2 C39_4 1_555 1_555
O15_2 C39_4 1_555 1_555
C37_4 C38_4 1_555 1_555
C1_4 H1_4 1_555 1_555
H2_4 C1_4 1_555 1_555
H3_4 C1_4 1_555 1_555
C2_4 C1_4 1_555 1_555
C3_4 C2_4 1_555 1_555
C4_4 C3_4 1_555 1_555
H4_4 C4_4 1_555 1_555
O11_4 C2_4 1_555 1_555
C20_4 C19_4 1_555 1_555
H17_4 C20_4 1_555 1_555
H18_4 C20_4 1_555 1_555
C40_4 H32_4 1_555 1_555
C41_4 C40_4 1_555 1_555
C42_4 C41_4 1_555 1_555
H33_4 C42_4 1_555 1_555
C43_4 C41_4 1_555 1_555
C56_4 C40_4 1_555 1_555
H41_4 C56_4 1_555 1_555
C57_4 C56_4 1_555 1_555
C58_4 C42_4 1_555 1_555
H42_4 C58_4 1_555 1_555
O1_4 C43_4 1_555 1_555
O13_2 C43_4 1_555 1_555
C57_4 C58_4 1_555 1_555
H19_4 C22_4 1_555 1_555
C23_4 C22_4 1_555 1_555
H20_4 C23_4 1_555 1_555
H5_4 C5_4 1_555 1_555
C6_4 C5_4 1_555 1_555
H6_4 C6_4 1_555 1_555
C7_4 C6_4 1_555 1_555
H7_4 C8_4 1_555 1_555
C9_4 C7_4 1_555 1_555
H8_4 C9_4 1_555 1_555
C10_4 C9_4 1_555 1_555
H9_4 C10_4 1_555 1_555
C11_4 C10_4 1_555 1_555
H10_4 C11_4 1_555 1_555
C12_4 C9_4 1_555 1_555
H11_4 C12_4 1_555 1_555
C13_4 H12_4 1_555 1_555
C14_4 C11_4 1_555 1_555
C15_4 C14_4 1_555 1_555
H13_4 C15_4 1_555 1_555
C16_4 C15_4 1_555 1_555
C17_4 C16_4 1_555 1_555
C18_4 C13_4 1_555 1_555
H15_4 C18_4 1_555 1_555
C21_4 C12_4 1_555 1_555
C24_4 H21_4 1_555 1_555
C25_4 C21_4 1_555 1_555
H22_4 C25_4 1_555 1_555
H23_4 C26_4 1_555 1_555
H24_4 C27_4 1_555 1_555
H25_4 C29_4 1_555 1_555
C26_4 C27_4 1_555 1_555
C27_4 C28_4 1_555 1_555
C28_4 C10_4 1_555 1_555
C29_4 C28_4 1_555 1_555
C30_4 C29_4 1_555 1_555
C53_4 C52_4 1_555 1_555
C54_4 C53_4 1_555 1_555
H39_4 C54_4 1_555 1_555
H40_4 C55_4 1_555 1_555
N3_2 C26_4 1_555 1_555
O5_4 C53_4 1_555 1_555
C7_4 C8_4 1_555 1_555
C11_4 C12_4 1_555 1_555
C13_4 C14_4 1_555 1_555
C17_4 C18_4 1_555 1_555
C24_4 C25_4 1_555 1_555
C30_4 N3_2 1_555 1_555
C54_4 C55_4 1_555 1_555

#END
