
###############################################################################
#
# This file contains modified crystal structure data generated from the
# MOF subset of the Cambridge Structural Database (CSD) v543 
# hosted by the Cambridge Crystallographic Data Centre (CCDC).
#
# This work is licensed under the Creative Commons
# Attribution-NonCommercial-ShareAlike 4.0 International License.
# To view a copy of this license, visit
# http://creativecommons.org/licenses/by-nc-sa/4.0/
# or send a letter to
# Creative Commons, PO Box 1866, Mountain View, CA 94042, USA.
#
# CIF created using the CSD Python API on 29 September 2022
# The structure has been converted into the P1 space group
# The structure has a 3D framework
# The original CSD entry XIGHIF is in the monoclinic crystal system
# The framework has been calculated to contain at least 10.0% void space
# The void calculation uses a probe of radius 1.32A, grid spacing 0.4
#
###############################################################################

data_XIGHIF
_chemical_formula_moiety         '(C288 H192 I48 N94 Zn24)n'
_symmetry_cell_setting           triclinic
_symmetry_space_group_name_H-M   'P 1'
_symmetry_Int_Tables_number      1
_space_group_name_Hall           'P 1'
loop_
_symmetry_equiv_pos_site_id
_symmetry_equiv_pos_as_xyz
1 x,y,z
_cell_length_a                   35.960(7)
_cell_length_b                   14.845(3)
_cell_length_c                   30.800(6)
_cell_angle_alpha                90
_cell_angle_beta                 102.94(3)
_cell_angle_gamma                90
_cell_volume                     16024.3
loop_
_atom_site_label
_atom_site_type_symbol
_atom_site_fract_x
_atom_site_fract_y
_atom_site_fract_z
I2 I 0.266680(13) 0.23432(3) 0.202361(19)
I3 I 0.375245(15) 0.16530(3) 0.299549(18)
Zn2 Zn 0.32685(2) 0.14146(4) 0.22638(3)
H7 H 0.2652 0.0125 0.1779
C30 C 0.5552(3) 0.0097(7) 0.5932(3)
H19 H 0.5636 0.0496 0.6176
N6 N 0.31405(13) 0.0057(3) 0.22254(17)
N12 N 0.57389(13) 0.0089(3) 0.56098(17)
I7 I 0.605759(13) 0.23597(3) 0.602817(17)
I10 I 0.640310(12) 0.08662(4) 0.492132(16)
I11 I 0.379227(17) 0.73225(3) 0.947086(17)
I12 I 0.472399(15) 0.65951(4) 0.875899(17)
Zn4 Zn 0.41472(2) 0.62435(4) 0.90708(2)
Zn7 Zn 0.619992(17) 0.09188(4) 0.56572(2)
Zn9 Zn 0.119992(17) 0.59188(4) 0.56572(2)
C37 C 0.16911(19) 0.4410(4) 0.6062(2)
H25 H 0.1518 0.4083 0.5840
C38 C 0.19918(19) 0.3948(4) 0.6324(2)
H26 H 0.2026 0.3323 0.6280
C39 C 0.22399(14) 0.4413(4) 0.66495(19)
C40 C 0.21751(18) 0.5319(4) 0.6701(2)
H27 H 0.2341 0.5659 0.6925
C41 C 0.18662(16) 0.5725(4) 0.6424(2)
H28 H 0.1821 0.6346 0.6465
C42 C 0.25628(15) 0.3969(3) 0.69556(19)
C43 C 0.29212(15) 0.2762(3) 0.71909(19)
C44 C 0.30678(15) 0.4085(4) 0.75285(18)
C45 C 0.29973(15) 0.1782(3) 0.7185(2)
C46 C 0.33201(19) 0.1434(4) 0.7467(3)
H29 H 0.3499 0.1821 0.7652
C47 C 0.33779(18) 0.0511(4) 0.7475(2)
H30 H 0.3599 0.0276 0.7671
C48 C 0.28274(16) 0.0280(4) 0.6956(2)
C49 C 0.27482(16) 0.1188(4) 0.6923(2)
H32 H 0.2525 0.1403 0.6724
C50 C 0.33120(15) 0.4626(4) 0.7891(2)
C51 C 0.32351(16) 0.5518(4) 0.7957(2)
H33 H 0.3025 0.5813 0.7769
C52 C 0.34716(16) 0.5976(4) 0.83040(19)
H34 H 0.3418 0.6589 0.8354
C53 C 0.38467(19) 0.4732(4) 0.8489(2)
H35 H 0.4067 0.4459 0.8670
C54 C 0.3625(2) 0.4233(4) 0.8163(2)
H36 H 0.3684 0.3619 0.8124
C57 C 0.43832(15) 0.3639(3) 0.00365(19)
H39 H 0.3848 0.3944 0.0114
C60 C 0.44442(14) 0.2839(3) 0.03260(19)
C61 C 0.47789(15) 0.1601(4) 0.05753(19)
C62 C 0.42972(16) 0.2035(4) 0.0879(2)
C63 C 0.51088(16) 0.1008(4) 0.05788(19)
C64 C 0.52991(17) 0.1011(4) 0.0240(2)
C65 C 0.56106(17) 0.0458(4) 0.0273(2)
H42 H 0.5742 0.0470 0.0037
C67 C 0.5239(3) 0.0445(8) 0.0933(3)
H44 H 0.5116 0.0428 0.1176
C68 C 0.40451(16) 0.1878(4) 0.1195(2)
C69 C 0.3735(2) 0.2400(5) 0.1197(3)
H45 H 0.3676 0.2888 0.0994
C70 C 0.3509(2) 0.2235(5) 0.1483(3)
H46 H 0.3295 0.2614 0.1474
C71 C 0.3859(3) 0.1040(7) 0.1749(4)
H47 H 0.3898 0.0524 0.1936
C72 C 0.4105(3) 0.1168(7) 0.1476(4)
H48 H 0.4313 0.0768 0.1483
N13 N 0.16292(12) 0.5279(3) 0.61018(16)
N14 N 0.66292(12) 0.0279(3) 0.61018(16)
N15 N 0.27701(12) 0.4487(3) 0.72743(15)
N16 N 0.31574(12) 0.3231(3) 0.75028(17)
N17 N 0.26247(13) 0.3094(3) 0.68973(16)
N18 N 0.37711(14) 0.5584(3) 0.85694(17)
N20 N 0.35733(15) 0.1570(3) 0.1775(2)
N21 N 0.47176(12) 0.2261(3) 0.02768(15)
N22 N 0.45740(14) 0.1448(3) 0.08808(17)
N23 N 0.42242(13) 0.2755(3) 0.06217(16)
N25 N 0.42699(13) 0.5154(3) 0.94945(17)
C55 C 0.45970(16) 0.4694(4) 0.9560(2)
H37 H 0.4792 0.4901 0.9422
C56 C 0.46621(16) 0.3928(4) 0.98216(19)
H38 H 0.4895 0.3605 0.9854
C58 C 0.40449(17) 0.4124(4) 0.9972(2)
C59 C 0.39994(18) 0.4867(4) 0.9701(2)
H40 H 0.3767 0.5192 0.9656
H41 H 0.5217 0.1389 0.9988
I1 I 0.105759(13) 0.26403(3) 0.102817(17)
I5 I 0.379227(17) 0.26775(3) 0.447086(17)
I6 I 0.472399(15) 0.34049(4) 0.375899(17)
Zn1 Zn 0.41472(2) 0.37565(4) 0.40708(2)
Zn3 Zn 0.119992(17) 0.40812(4) 0.06572(2)
C1 C 0.16911(19) 0.5590(4) 0.1062(2)
H1 H 0.1518 0.5917 0.0840
C2 C 0.19918(19) 0.6052(4) 0.1324(2)
H2 H 0.2026 0.6677 0.1280
C3 C 0.22399(14) 0.5587(4) 0.16495(19)
C4 C 0.21751(18) 0.4681(4) 0.1701(2)
H3 H 0.2341 0.4341 0.1925
C5 C 0.18662(16) 0.4275(4) 0.1424(2)
H4 H 0.1821 0.3654 0.1465
C6 C 0.25628(15) 0.6031(3) 0.19556(19)
C7 C 0.29212(15) 0.7238(3) 0.21909(19)
C8 C 0.30678(15) 0.5915(4) 0.25285(18)
C9 C 0.29973(15) 0.8218(3) 0.2185(2)
C10 C 0.33201(19) 0.8566(4) 0.2467(3)
H5 H 0.3499 0.8179 0.2652
C11 C 0.33779(18) 0.9489(4) 0.2475(2)
H6 H 0.3599 0.9724 0.2671
C12 C 0.28274(16) 0.9720(4) 0.1956(2)
C13 C 0.27482(16) 0.8812(4) 0.1923(2)
H8 H 0.2525 0.8597 0.1724
C14 C 0.33120(15) 0.5374(4) 0.2891(2)
C15 C 0.32351(16) 0.4482(4) 0.2957(2)
H9 H 0.3025 0.4187 0.2769
C16 C 0.34716(16) 0.4024(4) 0.33040(19)
H10 H 0.3418 0.3411 0.3354
C17 C 0.38467(19) 0.5268(4) 0.3489(2)
H11 H 0.4067 0.5541 0.3670
C18 C 0.3625(2) 0.5767(4) 0.3163(2)
H12 H 0.3684 0.6381 0.3124
C19 C 0.45970(16) 0.5306(4) 0.4560(2)
H13 H 0.4792 0.5099 0.4422
C20 C 0.46621(16) 0.6072(4) 0.48216(19)
H14 H 0.4895 0.6395 0.4854
C21 C 0.43832(15) 0.6361(3) 0.50365(19)
C22 C 0.40449(17) 0.5876(4) 0.4972(2)
H15 H 0.3848 0.6056 0.5114
C23 C 0.39994(18) 0.5133(4) 0.4701(2)
H16 H 0.3767 0.4808 0.4656
C24 C 0.44442(14) 0.7161(3) 0.53260(19)
C25 C 0.47789(15) 0.8399(4) 0.55753(19)
C26 C 0.42972(16) 0.7965(4) 0.5879(2)
C27 C 0.51088(16) 0.8992(4) 0.55788(19)
C28 C 0.52991(17) 0.8989(4) 0.5240(2)
H17 H 0.5217 0.8611 0.4988
C29 C 0.56106(17) 0.9542(4) 0.5273(2)
H18 H 0.5742 0.9530 0.5037
C31 C 0.5239(3) 0.9555(8) 0.5933(3)
H20 H 0.5116 0.9572 0.6176
C32 C 0.40451(16) 0.8122(4) 0.6195(2)
C33 C 0.3735(2) 0.7600(5) 0.6197(3)
H21 H 0.3676 0.7112 0.5994
C34 C 0.3509(2) 0.7765(5) 0.6483(3)
H22 H 0.3295 0.7386 0.6474
C35 C 0.3859(3) 0.8960(7) 0.6749(4)
H23 H 0.3898 0.9476 0.6936
C36 C 0.4105(3) 0.8832(7) 0.6476(4)
H24 H 0.4313 0.9232 0.6483
N1 N 0.16292(12) 0.4721(3) 0.11018(16)
N2 N 0.27701(12) 0.5513(3) 0.22743(15)
N3 N 0.31574(12) 0.6769(3) 0.25028(17)
N4 N 0.26247(13) 0.6906(3) 0.18973(16)
N5 N 0.37711(14) 0.4416(3) 0.35694(17)
N7 N 0.35733(15) 0.8430(3) 0.6775(2)
N8 N 0.47176(12) 0.7739(3) 0.52768(15)
N9 N 0.45740(14) 0.8552(3) 0.58808(17)
N10 N 0.42242(13) 0.7245(3) 0.56217(16)
N11 N 0.42699(13) 0.4846(3) 0.44945(17)
I8 I 0.266680(13) 0.76568(3) 0.702361(19)
I9 I 0.375245(15) 0.83470(3) 0.799549(18)
Zn6 Zn 0.32685(2) 0.85854(4) 0.72638(3)
Zn8 Zn 0.619992(17) 0.90812(4) 0.06572(2)
H31 H 0.2652 0.9875 0.6779
C66 C 0.5552(3) 0.9903(7) 0.0932(3)
H43 H 0.5636 0.9504 0.1176
N19 N 0.31405(13) 0.9943(3) 0.72254(17)
N26 N 0.57389(13) 0.9911(3) 0.06098(17)
N27 N 0.07389(13) 0.4911(3) 0.06098(17)
I4 I 0.140310(12) 0.41338(4) 0.992132(16)
C27_2 C 0.01088(16) 0.3992(4) 0.55788(19)
C28_2 C 0.02991(17) 0.3989(4) 0.5240(2)
H17_2 H 0.0217 0.3611 0.4988
C29_2 C 0.06106(17) 0.4542(4) 0.5273(2)
H18_2 H 0.0742 0.4530 0.5037
C30_2 C 0.0552(3) 0.5097(7) 0.5932(3)
H19_2 H 0.0636 0.5496 0.6176
C31_2 C 0.0239(3) 0.4555(8) 0.5933(3)
H20_2 H 0.0116 0.4572 0.6176
N12_2 N 0.07389(13) 0.5089(3) 0.56098(17)
I7_2 I 0.105759(13) 0.73597(3) 0.602817(17)
I10_2 I 0.140310(12) 0.58662(4) 0.492132(16)
C63_2 C 0.01088(16) 0.6008(4) 0.05788(19)
C64_2 C 0.02991(17) 0.6011(4) 0.0240(2)
C65_2 C 0.06106(17) 0.5458(4) 0.0273(2)
H42_2 H 0.0742 0.5470 0.0037
C66_2 C 0.0552(3) 0.4903(7) 0.0932(3)
H43_2 H 0.0636 0.4504 0.1176
C67_2 C 0.0239(3) 0.5445(8) 0.0933(3)
H44_2 H 0.0116 0.5428 0.1176
H41_2 H 0.0217 0.6389 0.9988
I11_2 I 0.879227(17) 0.23225(3) 0.947086(17)
I12_2 I 0.972399(15) 0.15951(4) 0.875899(17)
Zn4_2 Zn 0.91472(2) 0.12435(4) 0.90708(2)
C40_2 C 0.71751(18) 0.0319(4) 0.6701(2)
H27_2 H 0.7341 0.0659 0.6925
C41_2 C 0.68662(16) 0.0725(4) 0.6424(2)
H28_2 H 0.6821 0.1346 0.6465
C51_2 C 0.82351(16) 0.0518(4) 0.7957(2)
H33_2 H 0.8025 0.0813 0.7769
C52_2 C 0.84716(16) 0.0976(4) 0.83040(19)
H34_2 H 0.8418 0.1589 0.8354
N18_2 N 0.87711(14) 0.0584(3) 0.85694(17)
N25_2 N 0.92699(13) 0.0154(3) 0.94945(17)
H40_2 H 0.8767 0.0192 0.9656
I1_2 I 0.605759(13) 0.76403(3) 0.102817(17)
I5_2 I 0.879227(17) 0.76775(3) 0.447086(17)
I6_2 I 0.972399(15) 0.84049(4) 0.375899(17)
Zn1_2 Zn 0.91472(2) 0.87565(4) 0.40708(2)
C4_2 C 0.71751(18) 0.9681(4) 0.1701(2)
H3_2 H 0.7341 0.9341 0.1925
C5_2 C 0.68662(16) 0.9275(4) 0.1424(2)
H4_2 H 0.6821 0.8654 0.1465
C15_2 C 0.82351(16) 0.9482(4) 0.2957(2)
H9_2 H 0.8025 0.9187 0.2769
C16_2 C 0.84716(16) 0.9024(4) 0.33040(19)
H10_2 H 0.8418 0.8411 0.3354
H16_2 H 0.8767 0.9808 0.4656
N1_2 N 0.66292(12) 0.9721(3) 0.11018(16)
N5_2 N 0.87711(14) 0.9416(3) 0.35694(17)
N11_2 N 0.92699(13) 0.9846(3) 0.44945(17)
I4_2 I 0.640310(12) 0.91338(4) 0.992132(16)
I2_2 I 0.766680(13) 0.73432(3) 0.202361(19)
I3_2 I 0.875245(15) 0.66530(3) 0.299549(18)
Zn2_2 Zn 0.82685(2) 0.64146(4) 0.22638(3)
C1_2 C 0.66911(19) 0.0590(4) 0.1062(2)
H1_2 H 0.6518 0.0917 0.0840
C2_2 C 0.69918(19) 0.1052(4) 0.1324(2)
H2_2 H 0.7026 0.1677 0.1280
C3_2 C 0.72399(14) 0.0587(4) 0.16495(19)
C6_2 C 0.75628(15) 0.1031(3) 0.19556(19)
C7_2 C 0.79212(15) 0.2238(3) 0.21909(19)
C8_2 C 0.80678(15) 0.0915(4) 0.25285(18)
C9_2 C 0.79973(15) 0.3218(3) 0.2185(2)
C10_2 C 0.83201(19) 0.3566(4) 0.2467(3)
H5_2 H 0.8499 0.3179 0.2652
C11_2 C 0.83779(18) 0.4489(4) 0.2475(2)
H6_2 H 0.8599 0.4724 0.2671
C12_2 C 0.78274(16) 0.4720(4) 0.1956(2)
H7_2 H 0.7652 0.5125 0.1779
C13_2 C 0.77482(16) 0.3812(4) 0.1923(2)
H8_2 H 0.7525 0.3597 0.1724
C14_2 C 0.83120(15) 0.0374(4) 0.2891(2)
C17_2 C 0.88467(19) 0.0268(4) 0.3489(2)
H11_2 H 0.9067 0.0541 0.3670
C18_2 C 0.8625(2) 0.0767(4) 0.3163(2)
H12_2 H 0.8684 0.1381 0.3124
C19_2 C 0.95970(16) 0.0306(4) 0.4560(2)
H13_2 H 0.9792 0.0099 0.4422
C20_2 C 0.96621(16) 0.1072(4) 0.48216(19)
H14_2 H 0.9895 0.1395 0.4854
C21_2 C 0.93832(15) 0.1361(3) 0.50365(19)
C22_2 C 0.90449(17) 0.0876(4) 0.4972(2)
H15_2 H 0.8848 0.1056 0.5114
C23_2 C 0.89994(18) 0.0133(4) 0.4701(2)
C24_2 C 0.94442(14) 0.2161(3) 0.53260(19)
C25_2 C 0.97789(15) 0.3399(4) 0.55753(19)
C26_2 C 0.92972(16) 0.2965(4) 0.5879(2)
C32_2 C 0.90451(16) 0.3122(4) 0.6195(2)
C33_2 C 0.8735(2) 0.2600(5) 0.6197(3)
H21_2 H 0.8676 0.2112 0.5994
C34_2 C 0.8509(2) 0.2765(5) 0.6483(3)
H22_2 H 0.8295 0.2386 0.6474
C35_2 C 0.8859(3) 0.3960(7) 0.6749(4)
H23_2 H 0.8898 0.4476 0.6936
C36_2 C 0.9105(3) 0.3832(7) 0.6476(4)
H24_2 H 0.9313 0.4232 0.6483
N2_2 N 0.77701(12) 0.0513(3) 0.22743(15)
N3_2 N 0.81574(12) 0.1769(3) 0.25028(17)
N4_2 N 0.76247(13) 0.1906(3) 0.18973(16)
N6_2 N 0.81405(13) 0.5057(3) 0.22254(17)
N7_2 N 0.85733(15) 0.3430(3) 0.6775(2)
N8_2 N 0.97176(12) 0.2739(3) 0.52768(15)
N9_2 N 0.95740(14) 0.3552(3) 0.58808(17)
N10_2 N 0.92242(13) 0.2245(3) 0.56217(16)
I8_2 I 0.766680(13) 0.26568(3) 0.702361(19)
I9_2 I 0.875245(15) 0.33470(3) 0.799549(18)
Zn6_2 Zn 0.82685(2) 0.35854(4) 0.72638(3)
C37_2 C 0.66911(19) 0.9410(4) 0.6062(2)
H25_2 H 0.6518 0.9083 0.5840
C38_2 C 0.69918(19) 0.8948(4) 0.6324(2)
H26_2 H 0.7026 0.8323 0.6280
C39_2 C 0.72399(14) 0.9413(4) 0.66495(19)
C42_2 C 0.75628(15) 0.8969(3) 0.69556(19)
C43_2 C 0.79212(15) 0.7762(3) 0.71909(19)
C44_2 C 0.80678(15) 0.9085(4) 0.75285(18)
C45_2 C 0.79973(15) 0.6782(3) 0.7185(2)
C46_2 C 0.83201(19) 0.6434(4) 0.7467(3)
H29_2 H 0.8499 0.6821 0.7652
C47_2 C 0.83779(18) 0.5511(4) 0.7475(2)
H30_2 H 0.8599 0.5276 0.7671
C48_2 C 0.78274(16) 0.5280(4) 0.6956(2)
H31_2 H 0.7652 0.4875 0.6779
C49_2 C 0.77482(16) 0.6188(4) 0.6923(2)
H32_2 H 0.7525 0.6403 0.6724
C50_2 C 0.83120(15) 0.9626(4) 0.7891(2)
C53_2 C 0.88467(19) 0.9732(4) 0.8489(2)
H35_2 H 0.9067 0.9459 0.8670
C54_2 C 0.8625(2) 0.9233(4) 0.8163(2)
H36_2 H 0.8684 0.8619 0.8124
C57_2 C 0.93832(15) 0.8639(3) 0.00365(19)
H39_2 H 0.8848 0.8944 0.0114
C60_2 C 0.94442(14) 0.7839(3) 0.03260(19)
C61_2 C 0.97789(15) 0.6601(4) 0.05753(19)
C62_2 C 0.92972(16) 0.7035(4) 0.0879(2)
C68_2 C 0.90451(16) 0.6878(4) 0.1195(2)
C69_2 C 0.8735(2) 0.7400(5) 0.1197(3)
H45_2 H 0.8676 0.7888 0.0994
C70_2 C 0.8509(2) 0.7235(5) 0.1483(3)
H46_2 H 0.8295 0.7614 0.1474
C71_2 C 0.8859(3) 0.6040(7) 0.1749(4)
H47_2 H 0.8898 0.5524 0.1936
C72_2 C 0.9105(3) 0.6168(7) 0.1476(4)
H48_2 H 0.9313 0.5768 0.1483
N15_2 N 0.77701(12) 0.9487(3) 0.72743(15)
N16_2 N 0.81574(12) 0.8231(3) 0.75028(17)
N17_2 N 0.76247(13) 0.8094(3) 0.68973(16)
N19_2 N 0.81405(13) 0.4943(3) 0.72254(17)
N20_2 N 0.85733(15) 0.6570(3) 0.1775(2)
N21_2 N 0.97176(12) 0.7261(3) 0.02768(15)
N22_2 N 0.95740(14) 0.6448(3) 0.08808(17)
N23_2 N 0.92242(13) 0.7755(3) 0.06217(16)
C55_2 C 0.95970(16) 0.9694(4) 0.9560(2)
H37_2 H 0.9792 0.9901 0.9422
C56_2 C 0.96621(16) 0.8928(4) 0.98216(19)
H38_2 H 0.9895 0.8605 0.9854
C58_2 C 0.90449(17) 0.9124(4) 0.9972(2)
C59_2 C 0.89994(18) 0.9867(4) 0.9701(2)
I2_3 I 0.733320(13) 0.23432(3) 0.297639(19)
I3_3 I 0.624755(15) 0.16530(3) 0.200451(18)
Zn2_3 Zn 0.67315(2) 0.14146(4) 0.27362(3)
H7_3 H 0.7348 0.0125 0.3221
N6_3 N 0.68595(13) 0.0057(3) 0.27746(17)
I10_3 I 0.359690(12) 0.08662(4) 0.007868(16)
Zn5 Zn 0.58528(2) 0.62435(4) 0.59292(2)
C55_3 C 0.54030(16) 0.4694(4) 0.5440(2)
H37_3 H 0.5208 0.4901 0.5578
C56_3 C 0.53379(16) 0.3928(4) 0.51784(19)
H38_3 H 0.5105 0.3605 0.5146
C57_3 C 0.56168(15) 0.3639(3) 0.49635(19)
C58_3 C 0.59551(17) 0.4124(4) 0.5028(2)
H39_3 H 0.6152 0.3944 0.4886
C59_3 C 0.60006(18) 0.4867(4) 0.5299(2)
H40_3 H 0.6233 0.5192 0.5344
C60_3 C 0.55558(14) 0.2839(3) 0.46740(19)
C61_3 C 0.52211(15) 0.1601(4) 0.44247(19)
C62_3 C 0.57028(16) 0.2035(4) 0.4121(2)
C63_3 C 0.48912(16) 0.1008(4) 0.44212(19)
C64_3 C 0.47009(17) 0.1011(4) 0.4760(2)
H41_3 H 0.4783 0.1389 0.5012
C65_3 C 0.43894(17) 0.0458(4) 0.4727(2)
H42_3 H 0.4258 0.0470 0.4963
C67_3 C 0.4761(3) 0.0445(8) 0.4067(3)
H44_3 H 0.4884 0.0428 0.3824
C68_3 C 0.59549(16) 0.1878(4) 0.3805(2)
C69_3 C 0.6265(2) 0.2400(5) 0.3803(3)
H45_3 H 0.6324 0.2888 0.4006
C70_3 C 0.6491(2) 0.2235(5) 0.3517(3)
H46_3 H 0.6705 0.2614 0.3526
C71_3 C 0.6141(3) 0.1040(7) 0.3251(4)
H47_3 H 0.6102 0.0524 0.3064
C72_3 C 0.5895(3) 0.1168(7) 0.3524(4)
H48_3 H 0.5687 0.0768 0.3517
N20_3 N 0.64267(15) 0.1570(3) 0.3225(2)
N21_3 N 0.52824(12) 0.2261(3) 0.47232(15)
N22_3 N 0.54260(14) 0.1448(3) 0.41192(17)
N23_3 N 0.57758(13) 0.2755(3) 0.43783(16)
N24 N 0.57301(13) 0.5154(3) 0.55055(17)
C30_3 C 0.4448(3) 0.0097(7) 0.9068(3)
H19_3 H 0.4364 0.0496 0.8824
N12_3 N 0.42611(13) 0.0089(3) 0.93902(17)
I7_3 I 0.394241(13) 0.23597(3) 0.897183(17)
I11_3 I 0.620773(17) 0.73225(3) 0.552914(17)
I12_3 I 0.527601(15) 0.65951(4) 0.624101(17)
Zn7_2 Zn 0.380008(17) 0.09188(4) 0.93428(2)
Zn9_2 Zn 0.880008(17) 0.59188(4) 0.93428(2)
C37_3 C 0.83089(19) 0.4410(4) 0.8938(2)
H25_3 H 0.8482 0.4083 0.9160
C38_3 C 0.80082(19) 0.3948(4) 0.8676(2)
H26_3 H 0.7974 0.3323 0.8720
C39_3 C 0.77601(14) 0.4413(4) 0.83505(19)
C40_3 C 0.78249(18) 0.5319(4) 0.8299(2)
H27_3 H 0.7659 0.5659 0.8075
C41_3 C 0.81338(16) 0.5725(4) 0.8576(2)
H28_3 H 0.8179 0.6346 0.8535
C42_3 C 0.74372(15) 0.3969(3) 0.80444(19)
C43_3 C 0.70788(15) 0.2762(3) 0.78091(19)
C44_3 C 0.69322(15) 0.4085(4) 0.74715(18)
C45_3 C 0.70027(15) 0.1782(3) 0.7815(2)
C46_3 C 0.66799(19) 0.1434(4) 0.7533(3)
H29_3 H 0.6501 0.1821 0.7348
C47_3 C 0.66221(18) 0.0511(4) 0.7525(2)
H30_3 H 0.6401 0.0276 0.7329
C48_3 C 0.71726(16) 0.0280(4) 0.8044(2)
C49_3 C 0.72518(16) 0.1188(4) 0.8077(2)
H32_3 H 0.7475 0.1403 0.8276
C50_3 C 0.66880(15) 0.4626(4) 0.7109(2)
C51_3 C 0.67649(16) 0.5518(4) 0.7043(2)
H33_3 H 0.6975 0.5813 0.7231
C52_3 C 0.65284(16) 0.5976(4) 0.66960(19)
H34_3 H 0.6582 0.6589 0.6646
C53_3 C 0.61533(19) 0.4732(4) 0.6511(2)
H35_3 H 0.5933 0.4459 0.6330
C54_3 C 0.6375(2) 0.4233(4) 0.6837(2)
H36_3 H 0.6316 0.3619 0.6876
N13_2 N 0.83708(12) 0.5279(3) 0.88982(16)
N14_2 N 0.33708(12) 0.0279(3) 0.88982(16)
N15_3 N 0.72299(12) 0.4487(3) 0.77257(15)
N16_3 N 0.68426(12) 0.3231(3) 0.74972(17)
N17_3 N 0.73753(13) 0.3094(3) 0.81027(16)
N18_3 N 0.62289(14) 0.5584(3) 0.64306(17)
I1_3 I 0.894241(13) 0.26403(3) 0.397183(17)
I4_3 I 0.859690(12) 0.41338(4) 0.507868(16)
I5_3 I 0.620773(17) 0.26775(3) 0.052914(17)
I6_3 I 0.527601(15) 0.34049(4) 0.124101(17)
Zn1_3 Zn 0.58528(2) 0.37565(4) 0.09292(2)
Zn3_2 Zn 0.880008(17) 0.40812(4) 0.43428(2)
C1_3 C 0.83089(19) 0.5590(4) 0.3938(2)
H1_3 H 0.8482 0.5917 0.4160
C2_3 C 0.80082(19) 0.6052(4) 0.3676(2)
H2_3 H 0.7974 0.6677 0.3720
C3_3 C 0.77601(14) 0.5587(4) 0.33505(19)
C4_3 C 0.78249(18) 0.4681(4) 0.3299(2)
H3_3 H 0.7659 0.4341 0.3075
C5_3 C 0.81338(16) 0.4275(4) 0.3576(2)
H4_3 H 0.8179 0.3654 0.3535
C6_3 C 0.74372(15) 0.6031(3) 0.30444(19)
C7_3 C 0.70788(15) 0.7238(3) 0.28091(19)
C8_3 C 0.69322(15) 0.5915(4) 0.24715(18)
C9_3 C 0.70027(15) 0.8218(3) 0.2815(2)
C10_3 C 0.66799(19) 0.8566(4) 0.2533(3)
H5_3 H 0.6501 0.8179 0.2348
C11_3 C 0.66221(18) 0.9489(4) 0.2525(2)
H6_3 H 0.6401 0.9724 0.2329
C12_3 C 0.71726(16) 0.9720(4) 0.3044(2)
C13_3 C 0.72518(16) 0.8812(4) 0.3077(2)
H8_3 H 0.7475 0.8597 0.3276
C14_3 C 0.66880(15) 0.5374(4) 0.2109(2)
C15_3 C 0.67649(16) 0.4482(4) 0.2043(2)
H9_3 H 0.6975 0.4187 0.2231
C16_3 C 0.65284(16) 0.4024(4) 0.16960(19)
H10_3 H 0.6582 0.3411 0.1646
C17_3 C 0.61533(19) 0.5268(4) 0.1511(2)
H11_3 H 0.5933 0.5541 0.1330
C18_3 C 0.6375(2) 0.5767(4) 0.1837(2)
H12_3 H 0.6316 0.6381 0.1876
C19_3 C 0.54030(16) 0.5306(4) 0.0440(2)
H13_3 H 0.5208 0.5099 0.0578
C20_3 C 0.53379(16) 0.6072(4) 0.01784(19)
H14_3 H 0.5105 0.6395 0.0146
C22_3 C 0.59551(17) 0.5876(4) 0.0028(2)
C23_3 C 0.60006(18) 0.5133(4) 0.0299(2)
H16_3 H 0.6233 0.4808 0.0344
H17_3 H 0.4783 0.8611 0.0012
N1_3 N 0.83708(12) 0.4721(3) 0.38982(16)
N2_3 N 0.72299(12) 0.5513(3) 0.27257(15)
N3_3 N 0.68426(12) 0.6769(3) 0.24972(17)
N4_3 N 0.73753(13) 0.6906(3) 0.31027(16)
N5_3 N 0.62289(14) 0.4416(3) 0.14306(17)
N11_3 N 0.57301(13) 0.4846(3) 0.05055(17)
Zn8_2 Zn 0.380008(17) 0.90812(4) 0.43428(2)
C66_3 C 0.4448(3) 0.9903(7) 0.4068(3)
H43_3 H 0.4364 0.9504 0.3824
N26_2 N 0.42611(13) 0.9911(3) 0.43902(17)
N27_2 N 0.92611(13) 0.4911(3) 0.43902(17)
C21_3 C 0.56168(15) 0.6361(3) 0.99635(19)
H15_3 H 0.6152 0.6056 0.9886
C24_3 C 0.55558(14) 0.7161(3) 0.96740(19)
C25_3 C 0.52211(15) 0.8399(4) 0.94247(19)
C26_3 C 0.57028(16) 0.7965(4) 0.9121(2)
C27_3 C 0.48912(16) 0.8992(4) 0.94212(19)
C28_3 C 0.47009(17) 0.8989(4) 0.9760(2)
C29_3 C 0.43894(17) 0.9542(4) 0.9727(2)
H18_3 H 0.4258 0.9530 0.9963
C31_3 C 0.4761(3) 0.9555(8) 0.9067(3)
H20_3 H 0.4884 0.9572 0.8824
C32_3 C 0.59549(16) 0.8122(4) 0.8805(2)
C33_3 C 0.6265(2) 0.7600(5) 0.8803(3)
H21_3 H 0.6324 0.7112 0.9006
C34_3 C 0.6491(2) 0.7765(5) 0.8517(3)
H22_3 H 0.6705 0.7386 0.8526
C35_3 C 0.6141(3) 0.8960(7) 0.8251(4)
H23_3 H 0.6102 0.9476 0.8064
C36_3 C 0.5895(3) 0.8832(7) 0.8524(4)
H24_3 H 0.5687 0.9232 0.8517
N7_3 N 0.64267(15) 0.8430(3) 0.8225(2)
N8_3 N 0.52824(12) 0.7739(3) 0.97232(15)
N9_3 N 0.54260(14) 0.8552(3) 0.91192(17)
N10_3 N 0.57758(13) 0.7245(3) 0.93783(16)
I8_3 I 0.733320(13) 0.76568(3) 0.797639(19)
I9_3 I 0.624755(15) 0.83470(3) 0.700451(18)
Zn6_3 Zn 0.67315(2) 0.85854(4) 0.77362(3)
H31_3 H 0.7348 0.9875 0.8221
N19_3 N 0.68595(13) 0.9943(3) 0.77746(17)
Zn5_2 Zn 0.08528(2) 0.12435(4) 0.59292(2)
H40_4 H 0.1233 0.0192 0.5344
N24_2 N 0.07301(13) 0.0154(3) 0.55055(17)
I11_4 I 0.120773(17) 0.23225(3) 0.552914(17)
I12_4 I 0.027601(15) 0.15951(4) 0.624101(17)
C40_4 C 0.28249(18) 0.0319(4) 0.8299(2)
H27_4 H 0.2659 0.0659 0.8075
C41_4 C 0.31338(16) 0.0725(4) 0.8576(2)
H28_4 H 0.3179 0.1346 0.8535
C51_4 C 0.17649(16) 0.0518(4) 0.7043(2)
H33_4 H 0.1975 0.0813 0.7231
C52_4 C 0.15284(16) 0.0976(4) 0.66960(19)
H34_4 H 0.1582 0.1589 0.6646
N18_4 N 0.12289(14) 0.0584(3) 0.64306(17)
I1_4 I 0.394241(13) 0.76403(3) 0.397183(17)
I4_4 I 0.359690(12) 0.91338(4) 0.507868(16)
I5_4 I 0.120773(17) 0.76775(3) 0.052914(17)
I6_4 I 0.027601(15) 0.84049(4) 0.124101(17)
Zn1_4 Zn 0.08528(2) 0.87565(4) 0.09292(2)
C4_4 C 0.28249(18) 0.9681(4) 0.3299(2)
H3_4 H 0.2659 0.9341 0.3075
C5_4 C 0.31338(16) 0.9275(4) 0.3576(2)
H4_4 H 0.3179 0.8654 0.3535
C15_4 C 0.17649(16) 0.9482(4) 0.2043(2)
H9_4 H 0.1975 0.9187 0.2231
C16_4 C 0.15284(16) 0.9024(4) 0.16960(19)
H10_4 H 0.1582 0.8411 0.1646
H16_4 H 0.1233 0.9808 0.0344
N1_4 N 0.33708(12) 0.9721(3) 0.38982(16)
N5_4 N 0.12289(14) 0.9416(3) 0.14306(17)
N11_4 N 0.07301(13) 0.9846(3) 0.05055(17)
H17_4 H 0.9783 0.3611 0.0012
I10_4 I 0.859690(12) 0.58662(4) 0.007868(16)
C63_4 C 0.98912(16) 0.6008(4) 0.44212(19)
C64_4 C 0.97009(17) 0.6011(4) 0.4760(2)
H41_4 H 0.9783 0.6389 0.5012
C65_4 C 0.93894(17) 0.5458(4) 0.4727(2)
H42_4 H 0.9258 0.5470 0.4963
C66_4 C 0.9448(3) 0.4903(7) 0.4068(3)
H43_4 H 0.9364 0.4504 0.3824
C67_4 C 0.9761(3) 0.5445(8) 0.4067(3)
H44_4 H 0.9884 0.5428 0.3824
C27_4 C 0.98912(16) 0.3992(4) 0.94212(19)
C28_4 C 0.97009(17) 0.3989(4) 0.9760(2)
C29_4 C 0.93894(17) 0.4542(4) 0.9727(2)
H18_4 H 0.9258 0.4530 0.9963
C30_4 C 0.9448(3) 0.5097(7) 0.9068(3)
H19_4 H 0.9364 0.5496 0.8824
C31_4 C 0.9761(3) 0.4555(8) 0.9067(3)
H20_4 H 0.9884 0.4572 0.8824
N12_4 N 0.92611(13) 0.5089(3) 0.93902(17)
I7_4 I 0.894241(13) 0.73597(3) 0.897183(17)
I2_4 I 0.233320(13) 0.73432(3) 0.297639(19)
I3_4 I 0.124755(15) 0.66530(3) 0.200451(18)
Zn2_4 Zn 0.17315(2) 0.64146(4) 0.27362(3)
C1_4 C 0.33089(19) 0.0590(4) 0.3938(2)
H1_4 H 0.3482 0.0917 0.4160
C2_4 C 0.30082(19) 0.1052(4) 0.3676(2)
H2_4 H 0.2974 0.1677 0.3720
C3_4 C 0.27601(14) 0.0587(4) 0.33505(19)
C6_4 C 0.24372(15) 0.1031(3) 0.30444(19)
C7_4 C 0.20788(15) 0.2238(3) 0.28091(19)
C8_4 C 0.19322(15) 0.0915(4) 0.24715(18)
C9_4 C 0.20027(15) 0.3218(3) 0.2815(2)
C10_4 C 0.16799(19) 0.3566(4) 0.2533(3)
H5_4 H 0.1501 0.3179 0.2348
C11_4 C 0.16221(18) 0.4489(4) 0.2525(2)
H6_4 H 0.1401 0.4724 0.2329
C12_4 C 0.21726(16) 0.4720(4) 0.3044(2)
H7_4 H 0.2348 0.5125 0.3221
C13_4 C 0.22518(16) 0.3812(4) 0.3077(2)
H8_4 H 0.2475 0.3597 0.3276
C14_4 C 0.16880(15) 0.0374(4) 0.2109(2)
C17_4 C 0.11533(19) 0.0268(4) 0.1511(2)
H11_4 H 0.0933 0.0541 0.1330
C18_4 C 0.1375(2) 0.0767(4) 0.1837(2)
H12_4 H 0.1316 0.1381 0.1876
C19_4 C 0.04030(16) 0.0306(4) 0.0440(2)
H13_4 H 0.0208 0.0099 0.0578
C20_4 C 0.03379(16) 0.1072(4) 0.01784(19)
H14_4 H 0.0105 0.1395 0.0146
C22_4 C 0.09551(17) 0.0876(4) 0.0028(2)
C23_4 C 0.10006(18) 0.0133(4) 0.0299(2)
N2_4 N 0.22299(12) 0.0513(3) 0.27257(15)
N3_4 N 0.18426(12) 0.1769(3) 0.24972(17)
N4_4 N 0.23753(13) 0.1906(3) 0.31027(16)
N6_4 N 0.18595(13) 0.5057(3) 0.27746(17)
C55_4 C 0.04030(16) 0.9694(4) 0.5440(2)
H37_4 H 0.0208 0.9901 0.5578
C56_4 C 0.03379(16) 0.8928(4) 0.51784(19)
H38_4 H 0.0105 0.8605 0.5146
C57_4 C 0.06168(15) 0.8639(3) 0.49635(19)
C58_4 C 0.09551(17) 0.9124(4) 0.5028(2)
H39_4 H 0.1152 0.8944 0.4886
C59_4 C 0.10006(18) 0.9867(4) 0.5299(2)
C60_4 C 0.05558(14) 0.7839(3) 0.46740(19)
C61_4 C 0.02211(15) 0.6601(4) 0.44247(19)
C62_4 C 0.07028(16) 0.7035(4) 0.4121(2)
C68_4 C 0.09549(16) 0.6878(4) 0.3805(2)
C69_4 C 0.1265(2) 0.7400(5) 0.3803(3)
H45_4 H 0.1324 0.7888 0.4006
C70_4 C 0.1491(2) 0.7235(5) 0.3517(3)
H46_4 H 0.1705 0.7614 0.3526
C71_4 C 0.1141(3) 0.6040(7) 0.3251(4)
H47_4 H 0.1102 0.5524 0.3064
C72_4 C 0.0895(3) 0.6168(7) 0.3524(4)
H48_4 H 0.0687 0.5768 0.3517
N20_4 N 0.14267(15) 0.6570(3) 0.3225(2)
N21_4 N 0.02824(12) 0.7261(3) 0.47232(15)
N22_4 N 0.04260(14) 0.6448(3) 0.41192(17)
N23_4 N 0.07758(13) 0.7755(3) 0.43783(16)
C21_4 C 0.06168(15) 0.1361(3) 0.99635(19)
H15_4 H 0.1152 0.1056 0.9886
C24_4 C 0.05558(14) 0.2161(3) 0.96740(19)
C25_4 C 0.02211(15) 0.3399(4) 0.94247(19)
C26_4 C 0.07028(16) 0.2965(4) 0.9121(2)
C32_4 C 0.09549(16) 0.3122(4) 0.8805(2)
C33_4 C 0.1265(2) 0.2600(5) 0.8803(3)
H21_4 H 0.1324 0.2112 0.9006
C34_4 C 0.1491(2) 0.2765(5) 0.8517(3)
H22_4 H 0.1705 0.2386 0.8526
C35_4 C 0.1141(3) 0.3960(7) 0.8251(4)
H23_4 H 0.1102 0.4476 0.8064
C36_4 C 0.0895(3) 0.3832(7) 0.8524(4)
H24_4 H 0.0687 0.4232 0.8517
N7_4 N 0.14267(15) 0.3430(3) 0.8225(2)
N8_4 N 0.02824(12) 0.2739(3) 0.97232(15)
N9_4 N 0.04260(14) 0.3552(3) 0.91192(17)
N10_4 N 0.07758(13) 0.2245(3) 0.93783(16)
I8_4 I 0.233320(13) 0.26568(3) 0.797639(19)
I9_4 I 0.124755(15) 0.33470(3) 0.700451(18)
Zn6_4 Zn 0.17315(2) 0.35854(4) 0.77362(3)
C37_4 C 0.33089(19) 0.9410(4) 0.8938(2)
H25_4 H 0.3482 0.9083 0.9160
C38_4 C 0.30082(19) 0.8948(4) 0.8676(2)
H26_4 H 0.2974 0.8323 0.8720
C39_4 C 0.27601(14) 0.9413(4) 0.83505(19)
C42_4 C 0.24372(15) 0.8969(3) 0.80444(19)
C43_4 C 0.20788(15) 0.7762(3) 0.78091(19)
C44_4 C 0.19322(15) 0.9085(4) 0.74715(18)
C45_4 C 0.20027(15) 0.6782(3) 0.7815(2)
C46_4 C 0.16799(19) 0.6434(4) 0.7533(3)
H29_4 H 0.1501 0.6821 0.7348
C47_4 C 0.16221(18) 0.5511(4) 0.7525(2)
H30_4 H 0.1401 0.5276 0.7329
C48_4 C 0.21726(16) 0.5280(4) 0.8044(2)
H31_4 H 0.2348 0.4875 0.8221
C49_4 C 0.22518(16) 0.6188(4) 0.8077(2)
H32_4 H 0.2475 0.6403 0.8276
C50_4 C 0.16880(15) 0.9626(4) 0.7109(2)
C53_4 C 0.11533(19) 0.9732(4) 0.6511(2)
H35_4 H 0.0933 0.9459 0.6330
C54_4 C 0.1375(2) 0.9233(4) 0.6837(2)
H36_4 H 0.1316 0.8619 0.6876
N15_4 N 0.22299(12) 0.9487(3) 0.77257(15)
N16_4 N 0.18426(12) 0.8231(3) 0.74972(17)
N17_4 N 0.23753(13) 0.8094(3) 0.81027(16)
N19_4 N 0.18595(13) 0.4943(3) 0.77746(17)
loop_
_geom_bond_atom_site_label_1
_geom_bond_atom_site_label_2
_geom_bond_site_symmetry_1
_geom_bond_site_symmetry_2
I2 Zn2 1_555 1_555
I3 Zn2 1_555 1_555
Zn2 N6 1_555 1_555
C30 H19 1_555 1_555
I7 Zn7 1_555 1_555
I10 Zn7 1_555 1_555
I11 Zn4 1_555 1_555
I12 Zn4 1_555 1_555
Zn4 N18 1_555 1_555
Zn7 N12 1_555 1_555
Zn9 N13 1_555 1_555
C37 H25 1_555 1_555
C38 C37 1_555 1_555
H26 C38 1_555 1_555
C39 C38 1_555 1_555
C40 C39 1_555 1_555
H27 C40 1_555 1_555
C41 C40 1_555 1_555
H28 C41 1_555 1_555
C42 C39 1_555 1_555
C43 C45 1_555 1_555
C44 C50 1_555 1_555
C45 C46 1_555 1_555
C46 H29 1_555 1_555
C47 C46 1_555 1_555
H30 C47 1_555 1_555
C49 C45 1_555 1_555
H32 C49 1_555 1_555
C50 C51 1_555 1_555
C51 H33 1_555 1_555
C52 C51 1_555 1_555
H34 C52 1_555 1_555
C53 H35 1_555 1_555
C54 C50 1_555 1_555
H36 C54 1_555 1_555
C60 C57 1_555 1_555
C61 C63 1_555 1_555
C62 C68 1_555 1_555
C63 C64 1_555 1_555
C65 C64 1_555 1_555
H42 C65 1_555 1_555
C67 C63 1_555 1_555
H44 C67 1_555 1_555
C68 C69 1_555 1_555
C69 H45 1_555 1_555
C70 C69 1_555 1_555
H46 C70 1_555 1_555
C71 H47 1_555 1_555
C72 C68 1_555 1_555
H48 C72 1_555 1_555
N13 C37 1_555 1_555
N14 Zn7 1_555 1_555
N15 C42 1_555 1_555
N16 C43 1_555 1_555
N17 C42 1_555 1_555
N18 C52 1_555 1_555
N20 Zn2 1_555 1_555
N21 C60 1_555 1_555
N22 C61 1_555 1_555
N23 C60 1_555 1_555
N25 Zn4 1_555 1_555
C30 N12 1_555 1_555
C41 N13 1_555 1_555
C43 N17 1_555 1_555
C44 N15 1_555 1_555
C44 N16 1_555 1_555
C48 C49 1_555 1_555
C53 C54 1_555 1_555
C53 N18 1_555 1_555
C61 N21 1_555 1_555
C62 N22 1_555 1_555
C62 N23 1_555 1_555
C70 N20 1_555 1_555
C71 C72 1_555 1_555
C71 N20 1_555 1_555
C55 H37 1_555 1_555
C56 C55 1_555 1_555
H38 C56 1_555 1_555
C59 C58 1_555 1_555
H40 C59 1_555 1_555
N25 C55 1_555 1_555
C59 N25 1_555 1_555
I1 Zn3 1_555 1_555
I5 Zn1 1_555 1_555
I6 Zn1 1_555 1_555
Zn1 N5 1_555 1_555
Zn3 N1 1_555 1_555
C1 H1 1_555 1_555
C2 C1 1_555 1_555
H2 C2 1_555 1_555
C3 C2 1_555 1_555
C4 C3 1_555 1_555
H3 C4 1_555 1_555
C5 C4 1_555 1_555
H4 C5 1_555 1_555
C6 C3 1_555 1_555
C7 C9 1_555 1_555
C8 C14 1_555 1_555
C9 C10 1_555 1_555
C10 H5 1_555 1_555
C11 C10 1_555 1_555
H6 C11 1_555 1_555
C13 C9 1_555 1_555
H8 C13 1_555 1_555
C14 C15 1_555 1_555
C15 H9 1_555 1_555
C16 C15 1_555 1_555
H10 C16 1_555 1_555
C17 H11 1_555 1_555
C18 C14 1_555 1_555
H12 C18 1_555 1_555
C19 H13 1_555 1_555
C20 C19 1_555 1_555
H14 C20 1_555 1_555
C21 C20 1_555 1_555
C22 C21 1_555 1_555
H15 C22 1_555 1_555
C23 C22 1_555 1_555
H16 C23 1_555 1_555
C24 C21 1_555 1_555
C25 C27 1_555 1_555
C26 C32 1_555 1_555
C27 C28 1_555 1_555
C28 H17 1_555 1_555
C29 C28 1_555 1_555
H18 C29 1_555 1_555
C31 C27 1_555 1_555
H20 C31 1_555 1_555
C32 C33 1_555 1_555
C33 H21 1_555 1_555
C34 C33 1_555 1_555
H22 C34 1_555 1_555
C35 H23 1_555 1_555
C36 C32 1_555 1_555
H24 C36 1_555 1_555
N1 C1 1_555 1_555
N2 C6 1_555 1_555
N3 C7 1_555 1_555
N4 C6 1_555 1_555
N5 C16 1_555 1_555
N7 C34 1_555 1_555
N8 C24 1_555 1_555
N9 C25 1_555 1_555
N10 C24 1_555 1_555
N11 Zn1 1_555 1_555
I8 Zn6 1_555 1_555
I9 Zn6 1_555 1_555
Zn6 N7 1_555 1_555
Zn8 N26 1_555 1_555
C66 H43 1_555 1_555
N19 Zn6 1_555 1_555
N27 Zn3 1_555 1_555
C5 N1 1_555 1_555
C7 N4 1_555 1_555
C8 N2 1_555 1_555
C8 N3 1_555 1_555
C12 C13 1_555 1_555
C17 C18 1_555 1_555
C17 N5 1_555 1_555
C19 N11 1_555 1_555
C23 N11 1_555 1_555
C25 N8 1_555 1_555
C26 N9 1_555 1_555
C26 N10 1_555 1_555
C35 C36 1_555 1_555
C35 N7 1_555 1_555
C66 N26 1_555 1_555
C27_2 C28_2 1_555 1_555
C28_2 H17_2 1_555 1_555
C29_2 C28_2 1_555 1_555
H18_2 C29_2 1_555 1_555
C30_2 H19_2 1_555 1_555
C31_2 C27_2 1_555 1_555
H20_2 C31_2 1_555 1_555
N12_2 C29_2 1_555 1_555
I7_2 Zn9 1_555 1_555
I10_2 Zn9 1_555 1_555
Zn9 N12_2 1_555 1_555
C63_2 C64_2 1_555 1_555
C65_2 C64_2 1_555 1_555
H42_2 C65_2 1_555 1_555
C66_2 H43_2 1_555 1_555
C67_2 C63_2 1_555 1_555
H44_2 C67_2 1_555 1_555
N27 C65_2 1_555 1_555
C30_2 C31_2 1_555 1_555
C30_2 N12_2 1_555 1_555
C66_2 C67_2 1_555 1_555
C66_2 N27 1_555 1_555
I11_2 Zn4_2 1_555 1_555
I12_2 Zn4_2 1_555 1_555
Zn4_2 N18_2 1_555 1_555
H27_2 C40_2 1_555 1_555
C41_2 C40_2 1_555 1_555
H28_2 C41_2 1_555 1_555
C51_2 H33_2 1_555 1_555
C52_2 C51_2 1_555 1_555
H34_2 C52_2 1_555 1_555
N18_2 C52_2 1_555 1_555
N25_2 Zn4_2 1_555 1_555
C41_2 N14 1_555 1_555
I1_2 Zn8 1_555 1_555
I5_2 Zn1_2 1_555 1_555
I6_2 Zn1_2 1_555 1_555
Zn1_2 N5_2 1_555 1_555
Zn8 N1_2 1_555 1_555
H3_2 C4_2 1_555 1_555
C5_2 C4_2 1_555 1_555
H4_2 C5_2 1_555 1_555
C15_2 H9_2 1_555 1_555
C16_2 C15_2 1_555 1_555
H10_2 C16_2 1_555 1_555
N5_2 C16_2 1_555 1_555
N11_2 Zn1_2 1_555 1_555
C5_2 N1_2 1_555 1_555
I2_2 Zn2_2 1_555 1_555
I3_2 Zn2_2 1_555 1_555
Zn2_2 N6_2 1_555 1_555
C1_2 H1_2 1_555 1_555
C2_2 C1_2 1_555 1_555
H2_2 C2_2 1_555 1_555
C3_2 C2_2 1_555 1_555
C6_2 C3_2 1_555 1_555
C7_2 C9_2 1_555 1_555
C8_2 C14_2 1_555 1_555
C9_2 C10_2 1_555 1_555
C10_2 H5_2 1_555 1_555
C11_2 C10_2 1_555 1_555
H6_2 C11_2 1_555 1_555
C12_2 H7_2 1_555 1_555
C13_2 C9_2 1_555 1_555
H8_2 C13_2 1_555 1_555
C17_2 H11_2 1_555 1_555
C18_2 C14_2 1_555 1_555
H12_2 C18_2 1_555 1_555
C19_2 H13_2 1_555 1_555
C20_2 C19_2 1_555 1_555
H14_2 C20_2 1_555 1_555
C21_2 C20_2 1_555 1_555
C22_2 C21_2 1_555 1_555
H15_2 C22_2 1_555 1_555
C23_2 C22_2 1_555 1_555
C24_2 C21_2 1_555 1_555
C26_2 C32_2 1_555 1_555
C32_2 C33_2 1_555 1_555
C33_2 H21_2 1_555 1_555
C34_2 C33_2 1_555 1_555
H22_2 C34_2 1_555 1_555
C35_2 H23_2 1_555 1_555
C36_2 C32_2 1_555 1_555
H24_2 C36_2 1_555 1_555
N2_2 C6_2 1_555 1_555
N3_2 C7_2 1_555 1_555
N4_2 C6_2 1_555 1_555
N6_2 C11_2 1_555 1_555
N7_2 C34_2 1_555 1_555
N8_2 C24_2 1_555 1_555
N9_2 C25_2 1_555 1_555
N10_2 C24_2 1_555 1_555
I8_2 Zn6_2 1_555 1_555
I9_2 Zn6_2 1_555 1_555
Zn6_2 N7_2 1_555 1_555
C37_2 H25_2 1_555 1_555
C38_2 C37_2 1_555 1_555
H26_2 C38_2 1_555 1_555
C39_2 C38_2 1_555 1_555
C42_2 C39_2 1_555 1_555
C43_2 C45_2 1_555 1_555
C44_2 C50_2 1_555 1_555
C45_2 C46_2 1_555 1_555
C46_2 H29_2 1_555 1_555
C47_2 C46_2 1_555 1_555
H30_2 C47_2 1_555 1_555
C48_2 H31_2 1_555 1_555
C49_2 C45_2 1_555 1_555
H32_2 C49_2 1_555 1_555
C53_2 H35_2 1_555 1_555
C54_2 C50_2 1_555 1_555
H36_2 C54_2 1_555 1_555
C60_2 C57_2 1_555 1_555
C62_2 C68_2 1_555 1_555
C68_2 C69_2 1_555 1_555
C69_2 H45_2 1_555 1_555
C70_2 C69_2 1_555 1_555
H46_2 C70_2 1_555 1_555
C71_2 H47_2 1_555 1_555
C72_2 C68_2 1_555 1_555
H48_2 C72_2 1_555 1_555
N15_2 C42_2 1_555 1_555
N16_2 C43_2 1_555 1_555
N17_2 C42_2 1_555 1_555
N19_2 Zn6_2 1_555 1_555
N20_2 Zn2_2 1_555 1_555
N21_2 C60_2 1_555 1_555
N22_2 C61_2 1_555 1_555
N23_2 C60_2 1_555 1_555
C7_2 N4_2 1_555 1_555
C8_2 N2_2 1_555 1_555
C8_2 N3_2 1_555 1_555
C12_2 C13_2 1_555 1_555
C12_2 N6_2 1_555 1_555
C17_2 C18_2 1_555 1_555
C25_2 N8_2 1_555 1_555
C26_2 N9_2 1_555 1_555
C26_2 N10_2 1_555 1_555
C35_2 C36_2 1_555 1_555
C35_2 N7_2 1_555 1_555
C43_2 N17_2 1_555 1_555
C44_2 N15_2 1_555 1_555
C44_2 N16_2 1_555 1_555
C47_2 N19_2 1_555 1_555
C48_2 C49_2 1_555 1_555
C48_2 N19_2 1_555 1_555
C53_2 C54_2 1_555 1_555
C61_2 N21_2 1_555 1_555
C62_2 N22_2 1_555 1_555
C62_2 N23_2 1_555 1_555
C70_2 N20_2 1_555 1_555
C71_2 C72_2 1_555 1_555
C71_2 N20_2 1_555 1_555
C55_2 H37_2 1_555 1_555
C56_2 C55_2 1_555 1_555
H38_2 C56_2 1_555 1_555
C59_2 C58_2 1_555 1_555
I2_3 Zn2_3 1_555 1_555
I3_3 Zn2_3 1_555 1_555
Zn2_3 N6_3 1_555 1_555
Zn5 N24 1_555 1_555
C55_3 H37_3 1_555 1_555
C56_3 C55_3 1_555 1_555
H38_3 C56_3 1_555 1_555
C57_3 C56_3 1_555 1_555
C58_3 C57_3 1_555 1_555
H39_3 C58_3 1_555 1_555
C59_3 C58_3 1_555 1_555
H40_3 C59_3 1_555 1_555
C60_3 C57_3 1_555 1_555
C61_3 C63_3 1_555 1_555
C62_3 C68_3 1_555 1_555
C63_3 C64_3 1_555 1_555
C64_3 H41_3 1_555 1_555
C65_3 C64_3 1_555 1_555
H42_3 C65_3 1_555 1_555
C67_3 C63_3 1_555 1_555
H44_3 C67_3 1_555 1_555
C68_3 C69_3 1_555 1_555
C69_3 H45_3 1_555 1_555
C70_3 C69_3 1_555 1_555
H46_3 C70_3 1_555 1_555
C71_3 H47_3 1_555 1_555
C72_3 C68_3 1_555 1_555
H48_3 C72_3 1_555 1_555
N20_3 Zn2_3 1_555 1_555
N21_3 C60_3 1_555 1_555
N22_3 C61_3 1_555 1_555
N23_3 C60_3 1_555 1_555
N24 C55_3 1_555 1_555
C59_3 N24 1_555 1_555
C61_3 N21_3 1_555 1_555
C62_3 N22_3 1_555 1_555
C62_3 N23_3 1_555 1_555
C70_3 N20_3 1_555 1_555
C71_3 C72_3 1_555 1_555
C71_3 N20_3 1_555 1_555
C30_3 H19_3 1_555 1_555
I7_3 Zn7_2 1_555 1_555
I11_3 Zn5 1_555 1_555
I12_3 Zn5 1_555 1_555
Zn5 N18_3 1_555 1_555
Zn7_2 N12_3 1_555 1_555
Zn9_2 N13_2 1_555 1_555
C37_3 H25_3 1_555 1_555
C38_3 C37_3 1_555 1_555
H26_3 C38_3 1_555 1_555
C39_3 C38_3 1_555 1_555
C40_3 C39_3 1_555 1_555
H27_3 C40_3 1_555 1_555
C41_3 C40_3 1_555 1_555
H28_3 C41_3 1_555 1_555
C42_3 C39_3 1_555 1_555
C43_3 C45_3 1_555 1_555
C44_3 C50_3 1_555 1_555
C45_3 C46_3 1_555 1_555
C46_3 H29_3 1_555 1_555
C47_3 C46_3 1_555 1_555
H30_3 C47_3 1_555 1_555
C49_3 C45_3 1_555 1_555
H32_3 C49_3 1_555 1_555
C50_3 C51_3 1_555 1_555
C51_3 H33_3 1_555 1_555
C52_3 C51_3 1_555 1_555
H34_3 C52_3 1_555 1_555
C53_3 H35_3 1_555 1_555
C54_3 C50_3 1_555 1_555
H36_3 C54_3 1_555 1_555
N13_2 C37_3 1_555 1_555
N14_2 Zn7_2 1_555 1_555
N15_3 C42_3 1_555 1_555
N16_3 C43_3 1_555 1_555
N17_3 C42_3 1_555 1_555
N18_3 C52_3 1_555 1_555
C30_3 N12_3 1_555 1_555
C41_3 N13_2 1_555 1_555
C43_3 N17_3 1_555 1_555
C44_3 N15_3 1_555 1_555
C44_3 N16_3 1_555 1_555
C48_3 C49_3 1_555 1_555
C53_3 C54_3 1_555 1_555
C53_3 N18_3 1_555 1_555
I1_3 Zn3_2 1_555 1_555
I4_3 Zn3_2 1_555 1_555
I5_3 Zn1_3 1_555 1_555
I6_3 Zn1_3 1_555 1_555
Zn1_3 N5_3 1_555 1_555
Zn3_2 N1_3 1_555 1_555
C1_3 H1_3 1_555 1_555
C2_3 C1_3 1_555 1_555
H2_3 C2_3 1_555 1_555
C3_3 C2_3 1_555 1_555
C4_3 C3_3 1_555 1_555
H3_3 C4_3 1_555 1_555
C5_3 C4_3 1_555 1_555
H4_3 C5_3 1_555 1_555
C6_3 C3_3 1_555 1_555
C7_3 C9_3 1_555 1_555
C8_3 C14_3 1_555 1_555
C9_3 C10_3 1_555 1_555
C10_3 H5_3 1_555 1_555
C11_3 C10_3 1_555 1_555
H6_3 C11_3 1_555 1_555
C13_3 C9_3 1_555 1_555
H8_3 C13_3 1_555 1_555
C14_3 C15_3 1_555 1_555
C15_3 H9_3 1_555 1_555
C16_3 C15_3 1_555 1_555
H10_3 C16_3 1_555 1_555
C17_3 H11_3 1_555 1_555
C18_3 C14_3 1_555 1_555
H12_3 C18_3 1_555 1_555
C19_3 H13_3 1_555 1_555
C20_3 C19_3 1_555 1_555
H14_3 C20_3 1_555 1_555
C23_3 C22_3 1_555 1_555
H16_3 C23_3 1_555 1_555
N1_3 C1_3 1_555 1_555
N2_3 C6_3 1_555 1_555
N3_3 C7_3 1_555 1_555
N4_3 C6_3 1_555 1_555
N5_3 C16_3 1_555 1_555
N11_3 Zn1_3 1_555 1_555
Zn8_2 N26_2 1_555 1_555
C66_3 H43_3 1_555 1_555
N27_2 Zn3_2 1_555 1_555
C5_3 N1_3 1_555 1_555
C7_3 N4_3 1_555 1_555
C8_3 N2_3 1_555 1_555
C8_3 N3_3 1_555 1_555
C12_3 C13_3 1_555 1_555
C17_3 C18_3 1_555 1_555
C17_3 N5_3 1_555 1_555
C19_3 N11_3 1_555 1_555
C23_3 N11_3 1_555 1_555
C66_3 N26_2 1_555 1_555
C24_3 C21_3 1_555 1_555
C25_3 C27_3 1_555 1_555
C26_3 C32_3 1_555 1_555
C27_3 C28_3 1_555 1_555
C29_3 C28_3 1_555 1_555
H18_3 C29_3 1_555 1_555
C31_3 C27_3 1_555 1_555
H20_3 C31_3 1_555 1_555
C32_3 C33_3 1_555 1_555
C33_3 H21_3 1_555 1_555
C34_3 C33_3 1_555 1_555
H22_3 C34_3 1_555 1_555
C35_3 H23_3 1_555 1_555
C36_3 C32_3 1_555 1_555
H24_3 C36_3 1_555 1_555
N7_3 C34_3 1_555 1_555
N8_3 C24_3 1_555 1_555
N9_3 C25_3 1_555 1_555
N10_3 C24_3 1_555 1_555
I8_3 Zn6_3 1_555 1_555
I9_3 Zn6_3 1_555 1_555
Zn6_3 N7_3 1_555 1_555
N19_3 Zn6_3 1_555 1_555
C25_3 N8_3 1_555 1_555
C26_3 N9_3 1_555 1_555
C26_3 N10_3 1_555 1_555
C35_3 C36_3 1_555 1_555
C35_3 N7_3 1_555 1_555
Zn5_2 N24_2 1_555 1_555
I11_4 Zn5_2 1_555 1_555
I12_4 Zn5_2 1_555 1_555
Zn5_2 N18_4 1_555 1_555
H27_4 C40_4 1_555 1_555
C41_4 C40_4 1_555 1_555
H28_4 C41_4 1_555 1_555
C51_4 H33_4 1_555 1_555
C52_4 C51_4 1_555 1_555
H34_4 C52_4 1_555 1_555
N18_4 C52_4 1_555 1_555
C41_4 N14_2 1_555 1_555
I1_4 Zn8_2 1_555 1_555
I4_4 Zn8_2 1_555 1_555
I5_4 Zn1_4 1_555 1_555
I6_4 Zn1_4 1_555 1_555
Zn1_4 N5_4 1_555 1_555
Zn8_2 N1_4 1_555 1_555
H3_4 C4_4 1_555 1_555
C5_4 C4_4 1_555 1_555
H4_4 C5_4 1_555 1_555
C15_4 H9_4 1_555 1_555
C16_4 C15_4 1_555 1_555
H10_4 C16_4 1_555 1_555
N5_4 C16_4 1_555 1_555
N11_4 Zn1_4 1_555 1_555
C5_4 N1_4 1_555 1_555
C63_4 C64_4 1_555 1_555
C64_4 H41_4 1_555 1_555
C65_4 C64_4 1_555 1_555
H42_4 C65_4 1_555 1_555
C66_4 H43_4 1_555 1_555
C67_4 C63_4 1_555 1_555
H44_4 C67_4 1_555 1_555
N27_2 C65_4 1_555 1_555
C66_4 C67_4 1_555 1_555
C66_4 N27_2 1_555 1_555
C27_4 C28_4 1_555 1_555
C29_4 C28_4 1_555 1_555
H18_4 C29_4 1_555 1_555
C30_4 H19_4 1_555 1_555
C31_4 C27_4 1_555 1_555
H20_4 C31_4 1_555 1_555
N12_4 C29_4 1_555 1_555
I7_4 Zn9_2 1_555 1_555
Zn9_2 N12_4 1_555 1_555
C30_4 C31_4 1_555 1_555
C30_4 N12_4 1_555 1_555
I2_4 Zn2_4 1_555 1_555
I3_4 Zn2_4 1_555 1_555
Zn2_4 N6_4 1_555 1_555
C1_4 H1_4 1_555 1_555
C2_4 C1_4 1_555 1_555
H2_4 C2_4 1_555 1_555
C3_4 C2_4 1_555 1_555
C6_4 C3_4 1_555 1_555
C7_4 C9_4 1_555 1_555
C8_4 C14_4 1_555 1_555
C9_4 C10_4 1_555 1_555
C10_4 H5_4 1_555 1_555
C11_4 C10_4 1_555 1_555
H6_4 C11_4 1_555 1_555
C12_4 H7_4 1_555 1_555
C13_4 C9_4 1_555 1_555
H8_4 C13_4 1_555 1_555
C17_4 H11_4 1_555 1_555
C18_4 C14_4 1_555 1_555
H12_4 C18_4 1_555 1_555
C19_4 H13_4 1_555 1_555
C20_4 C19_4 1_555 1_555
H14_4 C20_4 1_555 1_555
C23_4 C22_4 1_555 1_555
N2_4 C6_4 1_555 1_555
N3_4 C7_4 1_555 1_555
N4_4 C6_4 1_555 1_555
N6_4 C11_4 1_555 1_555
C55_4 H37_4 1_555 1_555
C56_4 C55_4 1_555 1_555
H38_4 C56_4 1_555 1_555
C57_4 C56_4 1_555 1_555
C58_4 C57_4 1_555 1_555
H39_4 C58_4 1_555 1_555
C59_4 C58_4 1_555 1_555
C60_4 C57_4 1_555 1_555
C62_4 C68_4 1_555 1_555
C68_4 C69_4 1_555 1_555
C69_4 H45_4 1_555 1_555
C70_4 C69_4 1_555 1_555
H46_4 C70_4 1_555 1_555
C71_4 H47_4 1_555 1_555
C72_4 C68_4 1_555 1_555
H48_4 C72_4 1_555 1_555
N20_4 Zn2_4 1_555 1_555
N21_4 C60_4 1_555 1_555
N22_4 C61_4 1_555 1_555
N23_4 C60_4 1_555 1_555
C7_4 N4_4 1_555 1_555
C8_4 N2_4 1_555 1_555
C8_4 N3_4 1_555 1_555
C12_4 C13_4 1_555 1_555
C12_4 N6_4 1_555 1_555
C17_4 C18_4 1_555 1_555
C61_4 N21_4 1_555 1_555
C62_4 N22_4 1_555 1_555
C62_4 N23_4 1_555 1_555
C70_4 N20_4 1_555 1_555
C71_4 C72_4 1_555 1_555
C71_4 N20_4 1_555 1_555
C24_4 C21_4 1_555 1_555
C26_4 C32_4 1_555 1_555
C32_4 C33_4 1_555 1_555
C33_4 H21_4 1_555 1_555
C34_4 C33_4 1_555 1_555
H22_4 C34_4 1_555 1_555
C35_4 H23_4 1_555 1_555
C36_4 C32_4 1_555 1_555
H24_4 C36_4 1_555 1_555
N7_4 C34_4 1_555 1_555
N8_4 C24_4 1_555 1_555
N9_4 C25_4 1_555 1_555
N10_4 C24_4 1_555 1_555
I8_4 Zn6_4 1_555 1_555
I9_4 Zn6_4 1_555 1_555
Zn6_4 N7_4 1_555 1_555
C37_4 H25_4 1_555 1_555
C38_4 C37_4 1_555 1_555
H26_4 C38_4 1_555 1_555
C39_4 C38_4 1_555 1_555
C42_4 C39_4 1_555 1_555
C43_4 C45_4 1_555 1_555
C44_4 C50_4 1_555 1_555
C45_4 C46_4 1_555 1_555
C46_4 H29_4 1_555 1_555
C47_4 C46_4 1_555 1_555
H30_4 C47_4 1_555 1_555
C48_4 H31_4 1_555 1_555
C49_4 C45_4 1_555 1_555
H32_4 C49_4 1_555 1_555
C53_4 H35_4 1_555 1_555
C54_4 C50_4 1_555 1_555
H36_4 C54_4 1_555 1_555
N15_4 C42_4 1_555 1_555
N16_4 C43_4 1_555 1_555
N17_4 C42_4 1_555 1_555
N19_4 Zn6_4 1_555 1_555
C25_4 N8_4 1_555 1_555
C26_4 N9_4 1_555 1_555
C26_4 N10_4 1_555 1_555
C35_4 C36_4 1_555 1_555
C35_4 N7_4 1_555 1_555
C43_4 N17_4 1_555 1_555
C44_4 N15_4 1_555 1_555
C44_4 N16_4 1_555 1_555
C47_4 N19_4 1_555 1_555
C48_4 C49_4 1_555 1_555
C48_4 N19_4 1_555 1_555
C53_4 C54_4 1_555 1_555

#END
