
###############################################################################
#
# This file contains modified crystal structure data generated from the
# MOF subset of the Cambridge Structural Database (CSD) v543 
# hosted by the Cambridge Crystallographic Data Centre (CCDC).
#
# This work is licensed under the Creative Commons
# Attribution-NonCommercial-ShareAlike 4.0 International License.
# To view a copy of this license, visit
# http://creativecommons.org/licenses/by-nc-sa/4.0/
# or send a letter to
# Creative Commons, PO Box 1866, Mountain View, CA 94042, USA.
#
# CIF created using the CSD Python API on 29 September 2022
# The structure has been converted into the P1 space group
# The structure has a 3D framework
# The original CSD entry XIGHIH is in the monoclinic crystal system
# The framework has been calculated to contain at least 10.0% void space
# The void calculation uses a probe of radius 1.32A, grid spacing 0.4
#
###############################################################################

data_XIGHIH
_chemical_formula_moiety         '(C224 H144 N16 O40 Zn8)n'
_symmetry_cell_setting           triclinic
_symmetry_space_group_name_H-M   'P 1'
_symmetry_Int_Tables_number      1
_space_group_name_Hall           'P 1'
loop_
_symmetry_equiv_pos_site_id
_symmetry_equiv_pos_as_xyz
1 x,y,z
_cell_length_a                   14.082(3)
_cell_length_b                   25.714(6)
_cell_length_c                   15.716(4)
_cell_angle_alpha                90
_cell_angle_beta                 110.914(7)
_cell_angle_gamma                90
_cell_volume                     5315.91
loop_
_atom_site_label
_atom_site_type_symbol
_atom_site_fract_x
_atom_site_fract_y
_atom_site_fract_z
C4 C 0.0324(4) 0.1404(2) 0.2352(3)
O6 O 0.1572(2) 0.05424(12) 0.1230(3)
C43 C 0.1551(3) 0.00099(16) 0.1356(3)
C47 C 0.0827(3) 0.08480(17) 0.1393(3)
C48 C 0.1040(4) 0.1083(2) 0.2216(4)
H26 H 0.1662 0.1028 0.2681
H33 H 0.0461 0.1562 0.2915
Zn2 Zn 0.19630(4) 0.740448(19) 0.17620(4)
N2 N 0.1029(3) 0.72321(15) 0.0462(3)
O4 O 0.1028(4) 0.81377(14) 0.1890(3)
O5 O 0.2458(3) 0.81220(13) 0.1641(3)
C13 C 0.0028(4) 0.7261(2) 0.0245(4)
C39 C 0.1723(5) 0.8366(2) 0.1721(3)
C40 C 0.1675(4) 0.89431(18) 0.1599(3)
C41 C 0.0933(4) 0.92293(19) 0.1771(4)
H21 H 0.0463 0.9059 0.1963
C42 C 0.0873(4) 0.97652(18) 0.1665(4)
H22 H 0.0382 0.9954 0.1801
C44 C 0.2297(4) 0.97338(18) 0.1168(4)
H23 H 0.2749 0.9904 0.0953
C45 C 0.2362(4) 0.92013(18) 0.1304(4)
H24 H 0.2874 0.9015 0.1196
O11 O 0.1260(3) 0.69901(13) 0.2419(2)
O13 O 0.3149(2) 0.69652(12) 0.1790(2)
O1 O 0.8740(3) 0.19901(13) 0.2581(2)
C1 C 0.8586(3) 0.18141(17) 0.1807(3)
C2 C 0.9403(3) 0.14931(16) 0.1663(3)
C3 C 0.9234(4) 0.1265(2) 0.0832(4)
O2 O 0.3986(3) 0.67491(14) 0.3227(2)
C5 C 0.3821(3) 0.67205(16) 0.2393(3)
C6 C 0.4489(3) 0.63560(17) 0.2123(3)
C7 C 0.5323(4) 0.6138(2) 0.2778(3)
C8 C 0.4307(4) 0.6234(2) 0.1226(3)
C9 C 0.5944(4) 0.5792(2) 0.2545(4)
Zn1 Zn 0.64931(4) 0.21885(2) 0.09999(3)
O7 O 0.7803(3) 0.18771(14) 0.1120(2)
O8 O 0.6406(3) 0.53537(13) 0.1421(3)
O9 O 0.5293(3) 0.29428(15) 0.1307(3)
O10 O 0.6752(3) 0.29235(13) 0.1083(3)
C33 C 0.6038(4) 0.31627(19) 0.1238(3)
C46 C 0.9940(4) 0.0937(2) 0.0695(4)
H25 H 0.9811 0.0780 0.0132
C49 C 0.4913(4) 0.5882(2) 0.0993(4)
H27 H 0.4767 0.5792 0.0387
C50 C 0.5732(4) 0.56667(18) 0.1664(4)
C51 C 0.6281(4) 0.48193(17) 0.1410(3)
C52 C 0.7018(4) 0.45332(18) 0.1233(3)
H28 H 0.7561 0.4699 0.1141
C53 C 0.6942(4) 0.39949(18) 0.1193(3)
H29 H 0.7436 0.3802 0.1069
C54 C 0.6156(3) 0.37413(18) 0.1332(3)
C55 C 0.5437(4) 0.4031(2) 0.1528(4)
H30 H 0.4908 0.3864 0.1640
C56 C 0.5493(4) 0.45741(19) 0.1560(4)
H31 H 0.4998 0.4767 0.1683
H32 H 0.8628 0.1332 0.0351
H34 H 0.6504 0.5647 0.2994
H35 H 0.5471 0.6226 0.3387
H36 H 0.3766 0.6392 0.0769
O12 O 0.6014(3) 0.17491(14) 0.1773(2)
Zn4 Zn 0.35069(4) 0.71885(2) 0.40001(3)
Zn6 Zn 0.80370(4) 0.240448(19) 0.32380(4)
N5 N 0.5490(3) 0.19635(15) 0.9757(3)
N1 N 0.4510(3) 0.69635(15) 0.5243(3)
C10 C 0.5187(4) 0.6585(2) 0.5301(3)
C11 C 0.4699(4) 0.7259(2) 0.5993(4)
C12 C 0.5563(4) 0.7207(2) 0.6751(4)
N4 N 0.6845(5) 0.8265(3) 0.6420(5)
C14 C 0.9345(4) 0.7118(2) 0.9410(4)
H2 H 0.8651 0.7143 0.9298
C15 C 0.9672(3) 0.6937(2) 0.8731(3)
C18 C 0.8981(4) 0.6740(2) 0.7819(3)
H5 H 0.9364 0.6567 0.7489
C19 C 0.8222(4) 0.7146(2) 0.7210(3)
H6 H 0.8376 0.7501 0.7446
C20 C 0.7346(3) 0.6883(2) 0.7486(3)
H7 H 0.7299 0.7064 0.8018
C21 C 0.8038(4) 0.6401(2) 0.7814(3)
H8 H 0.7875 0.6150 0.7313
C22 C 0.7998(4) 0.71154(19) 0.6201(3)
C23 C 0.8279(4) 0.6710(2) 0.5764(4)
H9 H 0.8729 0.6460 0.6111
C24 C 0.7908(5) 0.6665(3) 0.4822(4)
H10 H 0.8124 0.6391 0.4550
C25 C 0.7236(5) 0.7016(3) 0.4293(4)
H11 H 0.6970 0.6975 0.3664
C26 C 0.6951(4) 0.7434(2) 0.4695(4)
H12 H 0.6497 0.7679 0.4335
C27 C 0.7340(4) 0.7491(2) 0.5637(4)
C28 C 0.7052(4) 0.7929(2) 0.6063(4)
C29 C 0.6299(3) 0.6850(2) 0.6764(3)
C30 C 0.6055(4) 0.6512(2) 0.6039(3)
H13 H 0.6482 0.6233 0.6052
H14 H 0.5653 0.7415 0.7258
H15 H 0.4221 0.7509 0.5995
H16 H 0.5056 0.6359 0.4809
C31 C 0.8040(4) 0.6124(2) 0.8656(4)
C32 C 0.7292(5) 0.6200(3) 0.9006(5)
H17 H 0.6758 0.6423 0.8702
C34 C 0.7298(7) 0.5965(3) 0.9779(6)
H18 H 0.6760 0.6019 0.9980
C36 C 0.8840(7) 0.5556(3) 0.9945(5)
C37 C 0.8824(5) 0.5789(3) 0.9133(4)
C38 C 0.9635(7) 0.5677(3) 0.8815(6)
O3 O 0.6851(2) 0.19652(12) 0.3210(2)
C5_2 C 0.6179(3) 0.17205(16) 0.2607(3)
C6_2 C 0.5511(3) 0.13560(17) 0.2877(3)
C7_2 C 0.4677(4) 0.1138(2) 0.2222(3)
C8_2 C 0.5693(4) 0.1234(2) 0.3774(3)
C9_2 C 0.4056(4) 0.0792(2) 0.2455(4)
O8_2 O 0.3594(3) 0.03537(13) 0.3579(3)
C49_2 C 0.5087(4) 0.0882(2) 0.4007(4)
H27_2 H 0.5233 0.0792 0.4613
C50_2 C 0.4268(4) 0.06667(18) 0.3336(4)
H34_2 H 0.3496 0.0647 0.2006
H35_2 H 0.4529 0.1226 0.1613
H36_2 H 0.6234 0.1392 0.4231
C24_2 C 0.2092(5) 0.1665(3) 0.0178(4)
H10_2 H 0.1876 0.1391 0.0450
C25_2 C 0.2764(5) 0.2016(3) 0.0707(4)
H11_2 H 0.3030 0.1975 0.1336
C26_2 C 0.3049(4) 0.2434(2) 0.0305(4)
H12_2 H 0.3503 0.2679 0.0665
H16_2 H 0.4944 0.1359 0.0191
C1_2 C 0.1414(3) 0.68141(17) 0.3193(3)
C2_2 C 0.0597(3) 0.64931(16) 0.3337(3)
C3_2 C 0.0766(4) 0.6265(2) 0.4168(4)
C10_2 C 0.4813(4) 0.1585(2) 0.9699(3)
C11_2 C 0.5301(4) 0.2259(2) 0.9007(4)
C12_2 C 0.4437(4) 0.2207(2) 0.8249(4)
N4_2 N 0.3155(5) 0.3265(3) 0.8580(5)
O7_2 O 0.2197(3) 0.68771(14) 0.3880(2)
O9_2 O 0.4707(3) 0.79428(15) 0.3693(3)
O10_2 O 0.3248(3) 0.79235(13) 0.3917(3)
H1 H 0.0222 0.2385 0.4319
C14_2 C 0.0655(4) 0.2118(2) 0.5590(4)
H2_2 H 0.1349 0.2143 0.5702
C15_2 C 0.0328(3) 0.1937(2) 0.6269(3)
C18_2 C 0.1019(4) 0.1740(2) 0.7181(3)
H5_2 H 0.0636 0.1567 0.7511
C19_2 C 0.1778(4) 0.2146(2) 0.7790(3)
H6_2 H 0.1624 0.2501 0.7554
C20_2 C 0.2654(3) 0.1883(2) 0.7514(3)
H7_2 H 0.2701 0.2064 0.6982
C21_2 C 0.1962(4) 0.1401(2) 0.7186(3)
H8_2 H 0.2125 0.1150 0.7687
C22_2 C 0.2002(4) 0.21154(19) 0.8799(3)
C23_2 C 0.1721(4) 0.1710(2) 0.9236(4)
H9_2 H 0.1271 0.1460 0.8889
C27_2 C 0.2660(4) 0.2491(2) 0.9363(4)
C28_2 C 0.2948(4) 0.2929(2) 0.8937(4)
C29_2 C 0.3701(3) 0.1850(2) 0.8236(3)
C30_2 C 0.3945(4) 0.1512(2) 0.8961(3)
H13_2 H 0.3518 0.1233 0.8948
H14_2 H 0.4347 0.2415 0.7742
H15_2 H 0.5779 0.2509 0.9005
C31_2 C 0.1960(4) 0.1124(2) 0.6344(4)
C32_2 C 0.2708(5) 0.1200(3) 0.5994(5)
H17_2 H 0.3242 0.1423 0.6298
C33_2 C 0.3962(4) 0.81627(19) 0.3762(3)
C34_2 C 0.2702(7) 0.0965(3) 0.5221(6)
H18_2 H 0.3240 0.1019 0.5020
C35 C 0.1926(7) 0.0652(3) 0.4738(5)
H19 H 0.1915 0.0504 0.4194
C36_2 C 0.1160(7) 0.0556(3) 0.5055(5)
H20 H 0.0629 0.0336 0.4734
C37_2 C 0.1176(5) 0.0789(3) 0.5867(4)
C38_2 C 0.0365(7) 0.0677(3) 0.6185(6)
C46_2 C 0.0060(4) 0.5937(2) 0.4305(4)
H25_2 H 0.0189 0.5780 0.4868
C51_2 C 0.3719(4) 0.98193(17) 0.3590(3)
C52_2 C 0.2982(4) 0.95332(18) 0.3767(3)
H28_2 H 0.2439 0.9699 0.3859
C53_2 C 0.3058(4) 0.89949(18) 0.3807(3)
H29_2 H 0.2564 0.8802 0.3931
C54_2 C 0.3844(3) 0.87413(18) 0.3668(3)
C55_2 C 0.4563(4) 0.9031(2) 0.3472(4)
H30_2 H 0.5092 0.8864 0.3360
C56_2 C 0.4507(4) 0.95741(19) 0.3440(4)
H31_2 H 0.5002 0.9767 0.3317
H32_2 H 0.1372 0.6332 0.4649
C4_2 C 0.9676(4) 0.6404(2) 0.2648(3)
N2_2 N 0.8971(3) 0.22321(15) 0.4538(3)
N3 N 0.9704(7) 0.0563(3) 0.6421(6)
O4_2 O 0.8972(4) 0.31377(14) 0.3110(3)
O5_2 O 0.7542(3) 0.31220(13) 0.3359(3)
O6_2 O 0.8428(2) 0.55424(12) 0.3770(3)
C13_2 C 0.9972(4) 0.2261(2) 0.4755(4)
C16 C 0.9281(4) 0.1939(2) 0.6057(3)
H3 H 0.9012 0.1841 0.6494
C17 C 0.8638(4) 0.2087(2) 0.5198(3)
H4 H 0.7941 0.2084 0.5074
C39_2 C 0.8277(5) 0.3366(2) 0.3279(3)
C40_2 C 0.8325(4) 0.39431(18) 0.3401(3)
C41_2 C 0.9067(4) 0.42293(19) 0.3229(4)
H21_2 H 0.9537 0.4059 0.3037
C42_2 C 0.9127(4) 0.47652(18) 0.3335(4)
H22_2 H 0.9618 0.4954 0.3199
C43_2 C 0.8449(3) 0.50099(16) 0.3644(3)
C44_2 C 0.7703(4) 0.47338(18) 0.3832(4)
H23_2 H 0.7251 0.4904 0.4047
C45_2 C 0.7638(4) 0.42013(18) 0.3696(4)
H24_2 H 0.7126 0.4015 0.3804
C47_2 C 0.9173(3) 0.58480(17) 0.3607(3)
C48_2 C 0.8960(4) 0.6083(2) 0.2784(4)
H26_2 H 0.8338 0.6028 0.2319
H33_2 H 0.9539 0.6562 0.2085
N3_2 N 0.0296(7) 0.5563(3) 0.8579(6)
C16_2 C 0.0719(4) 0.6939(2) 0.8943(3)
H3_2 H 0.0988 0.6841 0.8506
C17_2 C 0.1362(4) 0.7087(2) 0.9802(3)
H4_2 H 0.2059 0.7084 0.9926
H1_2 H 0.9778 0.7385 0.0681
C35_2 C 0.8074(7) 0.5652(3) 0.0262(5)
H19_2 H 0.8085 0.5504 0.0806
H20_2 H 0.9371 0.5336 0.0266
N1_2 N 0.5490(3) 0.30365(15) 0.4757(3)
C10_3 C 0.4813(4) 0.3415(2) 0.4699(3)
C11_3 C 0.5301(4) 0.2741(2) 0.4007(4)
C12_3 C 0.4437(4) 0.2793(2) 0.3249(4)
N4_3 N 0.3155(5) 0.1735(3) 0.3580(5)
C14_3 C 0.0655(4) 0.2882(2) 0.0590(4)
H2_3 H 0.1349 0.2857 0.0702
C15_3 C 0.0328(3) 0.3063(2) 0.1269(3)
C18_3 C 0.1019(4) 0.3260(2) 0.2181(3)
H5_3 H 0.0636 0.3433 0.2511
C19_3 C 0.1778(4) 0.2854(2) 0.2790(3)
H6_3 H 0.1624 0.2499 0.2554
C20_3 C 0.2654(3) 0.3117(2) 0.2514(3)
H7_3 H 0.2701 0.2936 0.1982
C21_3 C 0.1962(4) 0.3599(2) 0.2186(3)
H8_3 H 0.2125 0.3850 0.2687
C22_3 C 0.2002(4) 0.28846(19) 0.3799(3)
C23_3 C 0.1721(4) 0.3290(2) 0.4236(4)
H9_3 H 0.1271 0.3540 0.3889
C24_3 C 0.2092(5) 0.3335(3) 0.5178(4)
H10_3 H 0.1876 0.3609 0.5450
C25_3 C 0.2764(5) 0.2984(3) 0.5707(4)
H11_3 H 0.3030 0.3025 0.6336
C26_3 C 0.3049(4) 0.2566(2) 0.5305(4)
H12_3 H 0.3503 0.2321 0.5665
C27_3 C 0.2660(4) 0.2509(2) 0.4363(4)
C28_3 C 0.2948(4) 0.2071(2) 0.3937(4)
C29_3 C 0.3701(3) 0.3150(2) 0.3236(3)
C30_3 C 0.3945(4) 0.3488(2) 0.3961(3)
H13_3 H 0.3518 0.3767 0.3948
H14_3 H 0.4347 0.2585 0.2742
H15_3 H 0.5779 0.2491 0.4005
H16_3 H 0.4944 0.3641 0.5191
C31_3 C 0.1960(4) 0.3876(2) 0.1344(4)
C32_3 C 0.2708(5) 0.3800(3) 0.0994(5)
H17_3 H 0.3242 0.3577 0.1298
C34_3 C 0.2702(7) 0.4035(3) 0.0221(6)
H18_3 H 0.3240 0.3981 0.0020
C36_3 C 0.1160(7) 0.4444(3) 0.0055(5)
C37_3 C 0.1176(5) 0.4211(3) 0.0867(4)
C38_3 C 0.0365(7) 0.4323(3) 0.1185(6)
Zn3 Zn 0.64931(4) 0.28115(2) 0.59999(3)
N5_2 N 0.4510(3) 0.80365(15) 0.0243(3)
O1_2 O 0.1260(3) 0.80099(13) 0.7419(2)
C1_3 C 0.1414(3) 0.81859(17) 0.8193(3)
C2_3 C 0.0597(3) 0.85069(16) 0.8337(3)
C3_3 C 0.0766(4) 0.8735(2) 0.9168(4)
O2_2 O 0.6014(3) 0.32509(14) 0.6773(2)
O3_2 O 0.6851(2) 0.30348(12) 0.8210(2)
C5_3 C 0.6179(3) 0.32795(16) 0.7607(3)
C6_3 C 0.5511(3) 0.36440(17) 0.7877(3)
C7_3 C 0.4677(4) 0.3862(2) 0.7222(3)
C8_3 C 0.5693(4) 0.3766(2) 0.8774(3)
C9_3 C 0.4056(4) 0.4208(2) 0.7455(4)
Zn1_2 Zn 0.35069(4) 0.78115(2) 0.90001(3)
O7_3 O 0.2197(3) 0.81229(14) 0.8880(2)
O8_3 O 0.3594(3) 0.46463(13) 0.8579(3)
O9_3 O 0.4707(3) 0.70572(15) 0.8693(3)
O10_3 O 0.3248(3) 0.70765(13) 0.8917(3)
C33_3 C 0.3962(4) 0.68373(19) 0.8762(3)
C46_3 C 0.0060(4) 0.9063(2) 0.9305(4)
H25_3 H 0.0189 0.9220 0.9868
C49_3 C 0.5087(4) 0.4118(2) 0.9007(4)
H27_3 H 0.5233 0.4208 0.9613
C50_3 C 0.4268(4) 0.43333(18) 0.8336(4)
C51_3 C 0.3719(4) 0.51807(17) 0.8590(3)
C52_3 C 0.2982(4) 0.54668(18) 0.8767(3)
H28_3 H 0.2439 0.5301 0.8859
C53_3 C 0.3058(4) 0.60051(18) 0.8807(3)
H29_3 H 0.2564 0.6198 0.8931
C54_3 C 0.3844(3) 0.62587(18) 0.8668(3)
C55_3 C 0.4563(4) 0.5969(2) 0.8472(4)
H30_3 H 0.5092 0.6136 0.8360
C56_3 C 0.4507(4) 0.54259(19) 0.8440(4)
H31_3 H 0.5002 0.5233 0.8317
H32_3 H 0.1372 0.8668 0.9649
H34_3 H 0.3496 0.4353 0.7006
H35_3 H 0.4529 0.3774 0.6613
H36_3 H 0.6234 0.3608 0.9231
O12_2 O 0.3986(3) 0.82509(14) 0.8227(2)
Zn5 Zn 0.80370(4) 0.259552(19) 0.82380(4)
Zn6_2 Zn 0.19630(4) 0.759552(19) 0.67620(4)
N2_3 N 0.8971(3) 0.27679(15) 0.9538(3)
O4_3 O 0.8972(4) 0.18623(14) 0.8110(3)
O5_3 O 0.7542(3) 0.18780(13) 0.8359(3)
C13_3 C 0.9972(4) 0.2739(2) 0.9755(4)
C39_3 C 0.8277(5) 0.1634(2) 0.8279(3)
C40_3 C 0.8325(4) 0.10569(18) 0.8401(3)
C41_3 C 0.9067(4) 0.07707(19) 0.8229(4)
H21_3 H 0.9537 0.0941 0.8037
C42_3 C 0.9127(4) 0.02348(18) 0.8335(4)
H22_3 H 0.9618 0.0046 0.8199
C44_3 C 0.7703(4) 0.02662(18) 0.8832(4)
H23_3 H 0.7251 0.0096 0.9047
C45_3 C 0.7638(4) 0.07987(18) 0.8696(4)
H24_3 H 0.7126 0.0985 0.8804
O11_2 O 0.8740(3) 0.30099(13) 0.7581(2)
C4_3 C 0.0324(4) 0.3596(2) 0.7352(3)
N2_4 N 0.1029(3) 0.77679(15) 0.5462(3)
N3_3 N 0.0296(7) 0.9437(3) 0.3579(6)
O4_4 O 0.1028(4) 0.68623(14) 0.6890(3)
O5_4 O 0.2458(3) 0.68780(13) 0.6641(3)
O6_3 O 0.1572(2) 0.44576(12) 0.6230(3)
C13_4 C 0.0028(4) 0.7739(2) 0.5245(4)
C16_3 C 0.0719(4) 0.8061(2) 0.3943(3)
H3_3 H 0.0988 0.8159 0.3506
C17_3 C 0.1362(4) 0.7913(2) 0.4802(3)
H4_3 H 0.2059 0.7916 0.4926
C39_4 C 0.1723(5) 0.6634(2) 0.6721(3)
C40_4 C 0.1675(4) 0.60569(18) 0.6599(3)
C41_4 C 0.0933(4) 0.57707(19) 0.6771(4)
H21_4 H 0.0463 0.5941 0.6963
C42_4 C 0.0873(4) 0.52348(18) 0.6665(4)
H22_4 H 0.0382 0.5046 0.6801
C43_3 C 0.1551(3) 0.49901(16) 0.6356(3)
C44_4 C 0.2297(4) 0.52662(18) 0.6168(4)
H23_4 H 0.2749 0.5096 0.5953
C45_4 C 0.2362(4) 0.57987(18) 0.6304(4)
H24_4 H 0.2874 0.5985 0.6196
C47_3 C 0.0827(3) 0.41520(17) 0.6393(3)
C48_3 C 0.1040(4) 0.3917(2) 0.7216(4)
H26_3 H 0.1662 0.3972 0.7681
H33_3 H 0.0461 0.3438 0.7915
O13_2 O 0.3149(2) 0.80348(12) 0.6790(2)
C1_4 C 0.8586(3) 0.31859(17) 0.6807(3)
C2_4 C 0.9403(3) 0.35069(16) 0.6663(3)
C3_4 C 0.9234(4) 0.3735(2) 0.5832(4)
C10_4 C 0.5187(4) 0.8415(2) 0.0301(3)
C11_4 C 0.4699(4) 0.7741(2) 0.0993(4)
C12_4 C 0.5563(4) 0.7793(2) 0.1751(4)
N4_4 N 0.6845(5) 0.6735(3) 0.1420(5)
O7_4 O 0.7803(3) 0.31229(14) 0.6120(2)
O9_4 O 0.5293(3) 0.20572(15) 0.6307(3)
O10_4 O 0.6752(3) 0.20765(13) 0.6083(3)
H1_3 H 0.9778 0.7615 0.5681
C14_4 C 0.9345(4) 0.7882(2) 0.4410(4)
H2_4 H 0.8651 0.7857 0.4298
C15_4 C 0.9672(3) 0.8063(2) 0.3731(3)
C18_4 C 0.8981(4) 0.8260(2) 0.2819(3)
H5_4 H 0.9364 0.8433 0.2489
C19_4 C 0.8222(4) 0.7854(2) 0.2210(3)
H6_4 H 0.8376 0.7499 0.2446
C20_4 C 0.7346(3) 0.8117(2) 0.2486(3)
H7_4 H 0.7299 0.7936 0.3018
C21_4 C 0.8038(4) 0.8599(2) 0.2814(3)
H8_4 H 0.7875 0.8850 0.2313
C22_4 C 0.7998(4) 0.78846(19) 0.1201(3)
C23_4 C 0.8279(4) 0.8290(2) 0.0764(4)
H9_4 H 0.8729 0.8540 0.1111
C27_4 C 0.7340(4) 0.7509(2) 0.0637(4)
C28_4 C 0.7052(4) 0.7071(2) 0.1063(4)
C29_4 C 0.6299(3) 0.8150(2) 0.1764(3)
C30_4 C 0.6055(4) 0.8488(2) 0.1039(3)
H13_4 H 0.6482 0.8767 0.1052
H14_4 H 0.5653 0.7585 0.2258
H15_4 H 0.4221 0.7491 0.0995
C31_4 C 0.8040(4) 0.8876(2) 0.3656(4)
C32_4 C 0.7292(5) 0.8800(3) 0.4006(5)
H17_4 H 0.6758 0.8577 0.3702
C33_4 C 0.6038(4) 0.18373(19) 0.6238(3)
C34_4 C 0.7298(7) 0.9035(3) 0.4779(6)
H18_4 H 0.6760 0.8981 0.4980
C35_3 C 0.8074(7) 0.9348(3) 0.5262(5)
H19_3 H 0.8085 0.9496 0.5806
C36_4 C 0.8840(7) 0.9444(3) 0.4945(5)
H20_3 H 0.9371 0.9664 0.5266
C37_4 C 0.8824(5) 0.9211(3) 0.4133(4)
C38_4 C 0.9635(7) 0.9323(3) 0.3815(6)
C46_4 C 0.9940(4) 0.4063(2) 0.5695(4)
H25_4 H 0.9811 0.4220 0.5132
C51_4 C 0.6281(4) 0.01807(17) 0.6410(3)
C52_4 C 0.7018(4) 0.04668(18) 0.6233(3)
H28_4 H 0.7561 0.0301 0.6141
C53_4 C 0.6942(4) 0.10051(18) 0.6193(3)
H29_4 H 0.7436 0.1198 0.6069
C54_4 C 0.6156(3) 0.12587(18) 0.6332(3)
C55_4 C 0.5437(4) 0.0969(2) 0.6528(4)
H30_4 H 0.4908 0.1136 0.6640
C56_4 C 0.5493(4) 0.04259(19) 0.6560(4)
H31_4 H 0.4998 0.0233 0.6683
H32_4 H 0.8628 0.3668 0.5351
C24_4 C 0.7908(5) 0.8335(3) 0.9822(4)
H10_4 H 0.8124 0.8609 0.9550
C25_4 C 0.7236(5) 0.7984(3) 0.9293(4)
H11_4 H 0.6970 0.8025 0.8664
C26_4 C 0.6951(4) 0.7566(2) 0.9695(4)
H12_4 H 0.6497 0.7321 0.9335
H16_4 H 0.5056 0.8641 0.9809
C5_4 C 0.3821(3) 0.82795(16) 0.7393(3)
C6_4 C 0.4489(3) 0.86440(17) 0.7123(3)
C7_4 C 0.5323(4) 0.8862(2) 0.7778(3)
C8_4 C 0.4307(4) 0.8766(2) 0.6226(3)
C9_4 C 0.5944(4) 0.9208(2) 0.7545(4)
O8_4 O 0.6406(3) 0.96463(13) 0.6421(3)
C49_4 C 0.4913(4) 0.9118(2) 0.5993(4)
H27_4 H 0.4767 0.9208 0.5387
C50_4 C 0.5732(4) 0.93333(18) 0.6664(4)
H34_4 H 0.6504 0.9353 0.7994
H35_4 H 0.5471 0.8774 0.8387
H36_4 H 0.3766 0.8608 0.5769
H1_4 H 0.0222 0.2615 0.9319
C35_4 C 0.1926(7) 0.4348(3) 0.9738(5)
H19_4 H 0.1915 0.4496 0.9194
H20_4 H 0.0629 0.4664 0.9734
N3_4 N 0.9704(7) 0.4437(3) 0.1421(6)
C16_4 C 0.9281(4) 0.3061(2) 0.1057(3)
H3_4 H 0.9012 0.3159 0.1494
C17_4 C 0.8638(4) 0.2913(2) 0.0198(3)
H4_4 H 0.7941 0.2916 0.0074
C4_4 C 0.9676(4) 0.8596(2) 0.7648(3)
O6_4 O 0.8428(2) 0.94576(12) 0.8770(3)
C43_4 C 0.8449(3) 0.99901(16) 0.8644(3)
C47_4 C 0.9173(3) 0.91520(17) 0.8607(3)
C48_4 C 0.8960(4) 0.8917(2) 0.7784(4)
H26_4 H 0.8338 0.8972 0.7319
H33_4 H 0.9539 0.8438 0.7085
loop_
_geom_bond_atom_site_label_1
_geom_bond_atom_site_label_2
_geom_bond_site_symmetry_1
_geom_bond_site_symmetry_2
O6 C43 1_555 1_555
C47 O6 1_555 1_555
C48 C4 1_555 1_555
H26 C48 1_555 1_555
H33 C4 1_555 1_555
C47 C48 1_555 1_555
Zn2 N2 1_555 1_555
N2 C13 1_555 1_555
O4 Zn2 1_555 1_555
O5 Zn2 1_555 1_555
C39 O4 1_555 1_555
C40 C39 1_555 1_555
C41 C40 1_555 1_555
H21 C41 1_555 1_555
C42 C41 1_555 1_555
H22 C42 1_555 1_555
H23 C44 1_555 1_555
C45 C40 1_555 1_555
H24 C45 1_555 1_555
O11 Zn2 1_555 1_555
O13 Zn2 1_555 1_555
O5 C39 1_555 1_555
C44 C45 1_555 1_555
O1 C1 1_555 1_555
C1 C2 1_555 1_555
C2 C3 1_555 1_555
C3 C46 1_555 1_555
O2 C5 1_555 1_555
O13 C5 1_555 1_555
C5 C6 1_555 1_555
C6 C7 1_555 1_555
C7 C9 1_555 1_555
C8 C6 1_555 1_555
C9 C50 1_555 1_555
Zn1 O7 1_555 1_555
O7 C1 1_555 1_555
O8 C50 1_555 1_555
O9 C33 1_555 1_555
O10 Zn1 1_555 1_555
C33 O10 1_555 1_555
C46 H25 1_555 1_555
C49 C8 1_555 1_555
H27 C49 1_555 1_555
C50 C49 1_555 1_555
C51 O8 1_555 1_555
C52 C51 1_555 1_555
H28 C52 1_555 1_555
C53 C52 1_555 1_555
H29 C53 1_555 1_555
C54 C33 1_555 1_555
C55 C54 1_555 1_555
H30 C55 1_555 1_555
C56 C51 1_555 1_555
H31 C56 1_555 1_555
H32 C3 1_555 1_555
H34 C9 1_555 1_555
H35 C7 1_555 1_555
H36 C8 1_555 1_555
O12 Zn1 1_555 1_555
Zn4 O2 1_555 1_555
Zn6 O1 1_555 1_555
C53 C54 1_555 1_555
C55 C56 1_555 1_555
N1 C10 1_555 1_555
C10 C30 1_555 1_555
C11 N1 1_555 1_555
C12 C11 1_555 1_555
N4 C28 1_555 1_555
H2 C14 1_555 1_555
C15 C14 1_555 1_555
C18 C15 1_555 1_555
H5 C18 1_555 1_555
C19 C18 1_555 1_555
H6 C19 1_555 1_555
C20 C19 1_555 1_555
H7 C20 1_555 1_555
C21 C18 1_555 1_555
H8 C21 1_555 1_555
C22 C19 1_555 1_555
C23 C22 1_555 1_555
H9 C23 1_555 1_555
C24 C23 1_555 1_555
H10 C24 1_555 1_555
C25 C24 1_555 1_555
H11 C25 1_555 1_555
C26 C25 1_555 1_555
H12 C26 1_555 1_555
C27 C22 1_555 1_555
C28 C27 1_555 1_555
C29 C12 1_555 1_555
C30 C29 1_555 1_555
H13 C30 1_555 1_555
H14 C12 1_555 1_555
H15 C11 1_555 1_555
H16 C10 1_555 1_555
C31 C21 1_555 1_555
C32 C31 1_555 1_555
H17 C32 1_555 1_555
C34 C32 1_555 1_555
H18 C34 1_555 1_555
C37 C31 1_555 1_555
C38 C37 1_555 1_555
Zn4 N1 1_555 1_555
C20 C21 1_555 1_555
C20 C29 1_555 1_555
C26 C27 1_555 1_555
C36 C37 1_555 1_555
O12 C5_2 1_555 1_555
O3 C5_2 1_555 1_555
C5_2 C6_2 1_555 1_555
C6_2 C7_2 1_555 1_555
C7_2 C9_2 1_555 1_555
C8_2 C6_2 1_555 1_555
C9_2 C50_2 1_555 1_555
O8_2 C50_2 1_555 1_555
C49_2 C8_2 1_555 1_555
H27_2 C49_2 1_555 1_555
C50_2 C49_2 1_555 1_555
H34_2 C9_2 1_555 1_555
H35_2 C7_2 1_555 1_555
H36_2 C8_2 1_555 1_555
Zn6 O3 1_555 1_555
H10_2 C24_2 1_555 1_555
C25_2 C24_2 1_555 1_555
H11_2 C25_2 1_555 1_555
C26_2 C25_2 1_555 1_555
H12_2 C26_2 1_555 1_555
O11 C1_2 1_555 1_555
C1_2 C2_2 1_555 1_555
C2_2 C3_2 1_555 1_555
C3_2 C46_2 1_555 1_555
N5 C10_2 1_555 1_555
C10_2 C30_2 1_555 1_555
C11_2 N5 1_555 1_555
C12_2 C11_2 1_555 1_555
Zn4 O7_2 1_555 1_555
N4_2 C28_2 1_555 1_555
O7_2 C1_2 1_555 1_555
O9_2 C33_2 1_555 1_555
O10_2 Zn4 1_555 1_555
H2_2 C14_2 1_555 1_555
C15_2 C14_2 1_555 1_555
C18_2 C15_2 1_555 1_555
H5_2 C18_2 1_555 1_555
C19_2 C18_2 1_555 1_555
H6_2 C19_2 1_555 1_555
C20_2 C19_2 1_555 1_555
H7_2 C20_2 1_555 1_555
C21_2 C18_2 1_555 1_555
H8_2 C21_2 1_555 1_555
C22_2 C19_2 1_555 1_555
C23_2 C22_2 1_555 1_555
H9_2 C23_2 1_555 1_555
C27_2 C22_2 1_555 1_555
C28_2 C27_2 1_555 1_555
C29_2 C12_2 1_555 1_555
C30_2 C29_2 1_555 1_555
H13_2 C30_2 1_555 1_555
H14_2 C12_2 1_555 1_555
H15_2 C11_2 1_555 1_555
C31_2 C21_2 1_555 1_555
C32_2 C31_2 1_555 1_555
H17_2 C32_2 1_555 1_555
C33_2 O10_2 1_555 1_555
C34_2 C32_2 1_555 1_555
H18_2 C34_2 1_555 1_555
C35 C34_2 1_555 1_555
H19 C35 1_555 1_555
C36_2 C35 1_555 1_555
H20 C36_2 1_555 1_555
C37_2 C31_2 1_555 1_555
C38_2 C37_2 1_555 1_555
C46_2 H25_2 1_555 1_555
C52_2 C51_2 1_555 1_555
H28_2 C52_2 1_555 1_555
C53_2 C52_2 1_555 1_555
H29_2 C53_2 1_555 1_555
C54_2 C33_2 1_555 1_555
C55_2 C54_2 1_555 1_555
H30_2 C55_2 1_555 1_555
C56_2 C51_2 1_555 1_555
H31_2 C56_2 1_555 1_555
H32_2 C3_2 1_555 1_555
C20_2 C21_2 1_555 1_555
C20_2 C29_2 1_555 1_555
C36_2 C37_2 1_555 1_555
C53_2 C54_2 1_555 1_555
C55_2 C56_2 1_555 1_555
Zn6 N2_2 1_555 1_555
N2_2 C13_2 1_555 1_555
O4_2 Zn6 1_555 1_555
O5_2 Zn6 1_555 1_555
O6_2 C43_2 1_555 1_555
H3 C16 1_555 1_555
C17 N2_2 1_555 1_555
H4 C17 1_555 1_555
C39_2 O4_2 1_555 1_555
C40_2 C39_2 1_555 1_555
C41_2 C40_2 1_555 1_555
H21_2 C41_2 1_555 1_555
C42_2 C41_2 1_555 1_555
H22_2 C42_2 1_555 1_555
C43_2 C42_2 1_555 1_555
C44_2 C43_2 1_555 1_555
H23_2 C44_2 1_555 1_555
C45_2 C40_2 1_555 1_555
H24_2 C45_2 1_555 1_555
C47_2 O6_2 1_555 1_555
C48_2 C4_2 1_555 1_555
H26_2 C48_2 1_555 1_555
H33_2 C4_2 1_555 1_555
O5_2 C39_2 1_555 1_555
C16 C17 1_555 1_555
C44_2 C45_2 1_555 1_555
C47_2 C48_2 1_555 1_555
H3_2 C16_2 1_555 1_555
H4_2 C17_2 1_555 1_555
C16_2 C17_2 1_555 1_555
H19_2 C35_2 1_555 1_555
N1_2 C10_3 1_555 1_555
C10_3 C30_3 1_555 1_555
C11_3 N1_2 1_555 1_555
C12_3 C11_3 1_555 1_555
N4_3 C28_3 1_555 1_555
H2_3 C14_3 1_555 1_555
C15_3 C14_3 1_555 1_555
C18_3 C15_3 1_555 1_555
H5_3 C18_3 1_555 1_555
C19_3 C18_3 1_555 1_555
H6_3 C19_3 1_555 1_555
C20_3 C19_3 1_555 1_555
H7_3 C20_3 1_555 1_555
C21_3 C18_3 1_555 1_555
H8_3 C21_3 1_555 1_555
C22_3 C19_3 1_555 1_555
C23_3 C22_3 1_555 1_555
H9_3 C23_3 1_555 1_555
C24_3 C23_3 1_555 1_555
H10_3 C24_3 1_555 1_555
C25_3 C24_3 1_555 1_555
H11_3 C25_3 1_555 1_555
C26_3 C25_3 1_555 1_555
H12_3 C26_3 1_555 1_555
C27_3 C22_3 1_555 1_555
C28_3 C27_3 1_555 1_555
C29_3 C12_3 1_555 1_555
C30_3 C29_3 1_555 1_555
H13_3 C30_3 1_555 1_555
H14_3 C12_3 1_555 1_555
H15_3 C11_3 1_555 1_555
H16_3 C10_3 1_555 1_555
C31_3 C21_3 1_555 1_555
C32_3 C31_3 1_555 1_555
H17_3 C32_3 1_555 1_555
C34_3 C32_3 1_555 1_555
H18_3 C34_3 1_555 1_555
C37_3 C31_3 1_555 1_555
C38_3 C37_3 1_555 1_555
Zn3 N1_2 1_555 1_555
C20_3 C21_3 1_555 1_555
C20_3 C29_3 1_555 1_555
C26_3 C27_3 1_555 1_555
C36_3 C37_3 1_555 1_555
O1_2 C1_3 1_555 1_555
C1_3 C2_3 1_555 1_555
C2_3 C3_3 1_555 1_555
C3_3 C46_3 1_555 1_555
O2_2 C5_3 1_555 1_555
O3_2 C5_3 1_555 1_555
C5_3 C6_3 1_555 1_555
C6_3 C7_3 1_555 1_555
C7_3 C9_3 1_555 1_555
C8_3 C6_3 1_555 1_555
C9_3 C50_3 1_555 1_555
Zn1_2 O7_3 1_555 1_555
O7_3 C1_3 1_555 1_555
O8_3 C50_3 1_555 1_555
O9_3 C33_3 1_555 1_555
O10_3 Zn1_2 1_555 1_555
C33_3 O10_3 1_555 1_555
C46_3 H25_3 1_555 1_555
C49_3 C8_3 1_555 1_555
H27_3 C49_3 1_555 1_555
C50_3 C49_3 1_555 1_555
C51_3 O8_3 1_555 1_555
C52_3 C51_3 1_555 1_555
H28_3 C52_3 1_555 1_555
C53_3 C52_3 1_555 1_555
H29_3 C53_3 1_555 1_555
C54_3 C33_3 1_555 1_555
C55_3 C54_3 1_555 1_555
H30_3 C55_3 1_555 1_555
C56_3 C51_3 1_555 1_555
H31_3 C56_3 1_555 1_555
H32_3 C3_3 1_555 1_555
H34_3 C9_3 1_555 1_555
H35_3 C7_3 1_555 1_555
H36_3 C8_3 1_555 1_555
O12_2 Zn1_2 1_555 1_555
Zn3 O2_2 1_555 1_555
Zn5 O3_2 1_555 1_555
Zn6_2 O1_2 1_555 1_555
C53_3 C54_3 1_555 1_555
C55_3 C56_3 1_555 1_555
Zn5 N2_3 1_555 1_555
N2_3 C13_3 1_555 1_555
O4_3 Zn5 1_555 1_555
O5_3 Zn5 1_555 1_555
C39_3 O4_3 1_555 1_555
C40_3 C39_3 1_555 1_555
C41_3 C40_3 1_555 1_555
H21_3 C41_3 1_555 1_555
C42_3 C41_3 1_555 1_555
H22_3 C42_3 1_555 1_555
H23_3 C44_3 1_555 1_555
C45_3 C40_3 1_555 1_555
H24_3 C45_3 1_555 1_555
O11_2 Zn5 1_555 1_555
O5_3 C39_3 1_555 1_555
C44_3 C45_3 1_555 1_555
Zn6_2 N2_4 1_555 1_555
N2_4 C13_4 1_555 1_555
O4_4 Zn6_2 1_555 1_555
O5_4 Zn6_2 1_555 1_555
O6_3 C43_3 1_555 1_555
H3_3 C16_3 1_555 1_555
C17_3 N2_4 1_555 1_555
H4_3 C17_3 1_555 1_555
C39_4 O4_4 1_555 1_555
C40_4 C39_4 1_555 1_555
C41_4 C40_4 1_555 1_555
H21_4 C41_4 1_555 1_555
C42_4 C41_4 1_555 1_555
H22_4 C42_4 1_555 1_555
C43_3 C42_4 1_555 1_555
C44_4 C43_3 1_555 1_555
H23_4 C44_4 1_555 1_555
C45_4 C40_4 1_555 1_555
H24_4 C45_4 1_555 1_555
C47_3 O6_3 1_555 1_555
C48_3 C4_3 1_555 1_555
H26_3 C48_3 1_555 1_555
H33_3 C4_3 1_555 1_555
O13_2 Zn6_2 1_555 1_555
O5_4 C39_4 1_555 1_555
C16_3 C17_3 1_555 1_555
C44_4 C45_4 1_555 1_555
C47_3 C48_3 1_555 1_555
O11_2 C1_4 1_555 1_555
C1_4 C2_4 1_555 1_555
C2_4 C3_4 1_555 1_555
C3_4 C46_4 1_555 1_555
N5_2 C10_4 1_555 1_555
C10_4 C30_4 1_555 1_555
C11_4 N5_2 1_555 1_555
C12_4 C11_4 1_555 1_555
Zn3 O7_4 1_555 1_555
N4_4 C28_4 1_555 1_555
O7_4 C1_4 1_555 1_555
O9_4 C33_4 1_555 1_555
O10_4 Zn3 1_555 1_555
H2_4 C14_4 1_555 1_555
C15_4 C14_4 1_555 1_555
C18_4 C15_4 1_555 1_555
H5_4 C18_4 1_555 1_555
C19_4 C18_4 1_555 1_555
H6_4 C19_4 1_555 1_555
C20_4 C19_4 1_555 1_555
H7_4 C20_4 1_555 1_555
C21_4 C18_4 1_555 1_555
H8_4 C21_4 1_555 1_555
C22_4 C19_4 1_555 1_555
C23_4 C22_4 1_555 1_555
H9_4 C23_4 1_555 1_555
C27_4 C22_4 1_555 1_555
C28_4 C27_4 1_555 1_555
C29_4 C12_4 1_555 1_555
C30_4 C29_4 1_555 1_555
H13_4 C30_4 1_555 1_555
H14_4 C12_4 1_555 1_555
H15_4 C11_4 1_555 1_555
C31_4 C21_4 1_555 1_555
C32_4 C31_4 1_555 1_555
H17_4 C32_4 1_555 1_555
C33_4 O10_4 1_555 1_555
C34_4 C32_4 1_555 1_555
H18_4 C34_4 1_555 1_555
C35_3 C34_4 1_555 1_555
H19_3 C35_3 1_555 1_555
C36_4 C35_3 1_555 1_555
H20_3 C36_4 1_555 1_555
C37_4 C31_4 1_555 1_555
C38_4 C37_4 1_555 1_555
C46_4 H25_4 1_555 1_555
C52_4 C51_4 1_555 1_555
H28_4 C52_4 1_555 1_555
C53_4 C52_4 1_555 1_555
H29_4 C53_4 1_555 1_555
C54_4 C33_4 1_555 1_555
C55_4 C54_4 1_555 1_555
H30_4 C55_4 1_555 1_555
C56_4 C51_4 1_555 1_555
H31_4 C56_4 1_555 1_555
H32_4 C3_4 1_555 1_555
C20_4 C21_4 1_555 1_555
C20_4 C29_4 1_555 1_555
C36_4 C37_4 1_555 1_555
C53_4 C54_4 1_555 1_555
C55_4 C56_4 1_555 1_555
H10_4 C24_4 1_555 1_555
C25_4 C24_4 1_555 1_555
H11_4 C25_4 1_555 1_555
C26_4 C25_4 1_555 1_555
H12_4 C26_4 1_555 1_555
O12_2 C5_4 1_555 1_555
O13_2 C5_4 1_555 1_555
C5_4 C6_4 1_555 1_555
C6_4 C7_4 1_555 1_555
C7_4 C9_4 1_555 1_555
C8_4 C6_4 1_555 1_555
C9_4 C50_4 1_555 1_555
O8_4 C50_4 1_555 1_555
C49_4 C8_4 1_555 1_555
H27_4 C49_4 1_555 1_555
C50_4 C49_4 1_555 1_555
H34_4 C9_4 1_555 1_555
H35_4 C7_4 1_555 1_555
H36_4 C8_4 1_555 1_555
H19_4 C35_4 1_555 1_555
H3_4 C16_4 1_555 1_555
H4_4 C17_4 1_555 1_555
C16_4 C17_4 1_555 1_555
O6_4 C43_4 1_555 1_555
C47_4 O6_4 1_555 1_555
C48_4 C4_4 1_555 1_555
H26_4 C48_4 1_555 1_555
H33_4 C4_4 1_555 1_555
C47_4 C48_4 1_555 1_555

#END
