
###############################################################################
#
# This file contains modified crystal structure data generated from the
# MOF subset of the Cambridge Structural Database (CSD) v543 
# hosted by the Cambridge Crystallographic Data Centre (CCDC).
#
# This work is licensed under the Creative Commons
# Attribution-NonCommercial-ShareAlike 4.0 International License.
# To view a copy of this license, visit
# http://creativecommons.org/licenses/by-nc-sa/4.0/
# or send a letter to
# Creative Commons, PO Box 1866, Mountain View, CA 94042, USA.
#
# CIF created using the CSD Python API on 29 September 2022
# The structure has been converted into the P1 space group
# The structure has a 3D framework
# The original CSD entry XIGYIY is in the orthorhombic crystal system
# The framework has been calculated to contain at least 10.0% void space
# The void calculation uses a probe of radius 1.32A, grid spacing 0.4
#
###############################################################################

data_XIGYIY
_chemical_formula_moiety         '(C36 H52 Cu16 I16 N22 2+)n'
_symmetry_cell_setting           triclinic
_symmetry_space_group_name_H-M   'P 1'
_symmetry_Int_Tables_number      1
_space_group_name_Hall           'P 1'
loop_
_symmetry_equiv_pos_site_id
_symmetry_equiv_pos_as_xyz
1 x,y,z
_cell_length_a                   14.8153(12)
_cell_length_b                   14.3340(12)
_cell_length_c                   11.4471(10)
_cell_angle_alpha                90
_cell_angle_beta                 90
_cell_angle_gamma                90
_cell_volume                     2430.93
loop_
_atom_site_label
_atom_site_type_symbol
_atom_site_fract_x
_atom_site_fract_y
_atom_site_fract_z
C1 C 0.0637(3) 0.2096(4) 0.7179(5)
C3 C 0.2000(5) 0.2500 0.7500
H1 H 0.2627 0.2500 0.7500
Cu1 Cu 0.20295(5) 0.07769(5) 0.60480(8)
Cu2 Cu 0.32897(6) 0.05036(6) 0.43745(9)
I1 I 0.38080(3) 0.07951(3) 0.66170(5)
I2 I 0.17156(3) 0.13026(3) 0.37833(5)
N2 N 0.1515(3) 0.1833(3) 0.6983(5)
C4 C 0.0637(3) 0.2904(4) 0.7821(5)
N4 N 0.1515(3) 0.3167(3) 0.8017(5)
Cu5 Cu 0.20295(5) 0.42231(5) 0.89520(8)
N6 N 0.4263(4) 0.1168(4) 0.3530(6)
Cu3 Cu 0.29705(5) 0.92231(5) 0.60480(8)
Cu4 Cu 0.17103(6) 0.94964(6) 0.43745(9)
I3 I 0.11920(3) 0.92049(3) 0.66170(5)
I4 I 0.32844(3) 0.86974(3) 0.37833(5)
N5 N 0.0737(4) 0.8832(4) 0.3530(6)
N7 N 0.3485(3) 0.8167(3) 0.6983(5)
C2 C 0.9882(4) 0.1570(4) 0.6784(6)
N1 N 0.9263(4) 0.1168(4) 0.6470(6)
C5 C 0.9882(4) 0.3430(4) 0.8216(6)
N3 N 0.9263(4) 0.3832(4) 0.8530(6)
Cu6 Cu 0.82897(6) 0.05036(6) 0.56255(9)
Cu7 Cu 0.82897(6) 0.44964(6) 0.93745(9)
C1_2 C 0.4363(3) 0.7904(4) 0.7179(5)
C2_2 C 0.5118(4) 0.8430(4) 0.6784(6)
C3_2 C 0.3000(5) 0.7500 0.7500
H1_2 H 0.2373 0.7500 0.7500
N1_2 N 0.5737(4) 0.8832(4) 0.6470(6)
C4_2 C 0.4363(3) 0.7096(4) 0.7821(5)
C5_2 C 0.5118(4) 0.6570(4) 0.8216(6)
N3_2 N 0.5737(4) 0.6168(4) 0.8530(6)
N4_2 N 0.3485(3) 0.6833(3) 0.8017(5)
Cu5_2 Cu 0.29705(5) 0.57769(5) 0.89520(8)
Cu6_2 Cu 0.67103(6) 0.94964(6) 0.56255(9)
Cu7_2 Cu 0.67103(6) 0.55036(6) 0.93745(9)
Cu2_2 Cu 0.17103(6) 0.55036(6) 0.06255(9)
I2_2 I 0.32844(3) 0.63026(3) 0.12167(5)
Cu4_2 Cu 0.32897(6) 0.44964(6) 0.06255(9)
I4_2 I 0.17156(3) 0.36974(3) 0.12167(5)
N5_2 N 0.4263(4) 0.3832(4) 0.1470(6)
N6_2 N 0.0737(4) 0.6168(4) 0.1470(6)
I1_2 I 0.11920(3) 0.57951(3) 0.83830(5)
I3_2 I 0.38080(3) 0.42049(3) 0.83830(5)
C2_3 C 0.0118(4) 0.8430(4) 0.3216(6)
C5_3 C 0.0118(4) 0.6570(4) 0.1784(6)
Cu3_2 Cu 0.70295(5) 0.07769(5) 0.39520(8)
I3_3 I 0.88080(3) 0.07951(3) 0.33830(5)
I4_3 I 0.67156(3) 0.13026(3) 0.62167(5)
N7_2 N 0.6515(3) 0.1833(3) 0.3017(5)
C1_3 C 0.9363(3) 0.7904(4) 0.2821(5)
C3_3 C 0.8000(5) 0.7500 0.2500
H1_3 H 0.7373 0.7500 0.2500
Cu1_2 Cu 0.79705(5) 0.92231(5) 0.39520(8)
I1_3 I 0.61920(3) 0.92049(3) 0.33830(5)
I2_3 I 0.82844(3) 0.86974(3) 0.62167(5)
N2_2 N 0.8485(3) 0.8167(3) 0.3017(5)
C4_3 C 0.9363(3) 0.7096(4) 0.2179(5)
N4_3 N 0.8485(3) 0.6833(3) 0.1983(5)
Cu5_3 Cu 0.79705(5) 0.57769(5) 0.10480(8)
C1_4 C 0.5637(3) 0.2096(4) 0.2821(5)
C2_4 C 0.4882(4) 0.1570(4) 0.3216(6)
C3_4 C 0.7000(5) 0.2500 0.2500
H1_4 H 0.7627 0.2500 0.2500
C4_4 C 0.5637(3) 0.2904(4) 0.2179(5)
C5_4 C 0.4882(4) 0.3430(4) 0.1784(6)
N4_4 N 0.6515(3) 0.3167(3) 0.1983(5)
Cu5_4 Cu 0.70295(5) 0.42231(5) 0.10480(8)
I1_4 I 0.88080(3) 0.42049(3) 0.16170(5)
I3_4 I 0.61920(3) 0.57951(3) 0.16170(5)
I2_4 I 0.67156(3) 0.36974(3) 0.87833(5)
I4_4 I 0.82844(3) 0.63026(3) 0.87833(5)
C6 C 0.266(7) 0.093(4) 0.020(10)
H2 H 0.2111 0.1295 0.0268
C7 C 0.347(6) 0.151(5) 0.059(11)
H4 H 0.3485 0.2054 0.0108
H5 H 0.3408 0.1691 0.1396
H6 H 0.4029 0.1170 0.0500
N8 N 0.2500 0.0000 0.068(4)
H13 H 0.2030 0.0086 0.1150
H3 H 0.2730 0.0777 0.9375
N8_2 N 0.2500 1.0000 0.068(4)
H7 H 0.2970 0.9914 0.1150
C8 C 0.234(7) 0.907(4) 0.020(10)
H8 H 0.2889 0.8705 0.0268
C9 C 0.153(6) 0.849(5) 0.059(11)
H10 H 0.1515 0.7946 0.0108
H11 H 0.1592 0.8309 0.1396
H12 H 0.0971 0.8830 0.0500
H9 H 0.2270 0.9223 0.9375
C6_2 C 0.234(7) 0.593(4) 0.480(10)
H2_2 H 0.2889 0.6295 0.4732
H3_2 H 0.2270 0.5777 0.5625
C7_2 C 0.153(6) 0.651(5) 0.441(11)
H4_2 H 0.1515 0.7054 0.4892
H5_2 H 0.1592 0.6691 0.3604
H6_2 H 0.0971 0.6170 0.4500
N8_3 N 0.2500 0.5000 0.432(4)
H7_2 H 0.2030 0.4914 0.3850
C8_2 C 0.266(7) 0.407(4) 0.480(10)
H8_2 H 0.2111 0.3705 0.4732
H9_2 H 0.2730 0.4223 0.5625
C9_2 C 0.347(6) 0.349(5) 0.441(11)
H10_2 H 0.3485 0.2946 0.4892
H11_2 H 0.3408 0.3309 0.3604
H12_2 H 0.4029 0.3830 0.4500
H13_2 H 0.2970 0.5086 0.3850
H9_3 H 0.7730 0.0777 0.0625
N8_4 N 0.7500 0.0000 0.932(4)
H7_3 H 0.7030 0.0086 0.8850
C8_3 C 0.766(7) 0.093(4) 0.980(10)
H8_3 H 0.7111 0.1295 0.9732
C9_3 C 0.847(6) 0.151(5) 0.941(11)
H10_3 H 0.8485 0.2054 0.9892
H11_3 H 0.8408 0.1691 0.8604
H12_3 H 0.9029 0.1170 0.9500
H3_3 H 0.7270 0.9223 0.0625
C6_3 C 0.734(7) 0.907(4) 0.980(10)
H2_3 H 0.7889 0.8705 0.9732
C7_3 C 0.653(6) 0.849(5) 0.941(11)
H4_3 H 0.6515 0.7946 0.9892
H5_3 H 0.6592 0.8309 0.8604
H6_3 H 0.5971 0.8830 0.9500
N8_5 N 0.7500 1.0000 0.932(4)
H13_3 H 0.7970 0.9914 0.8850
C6_4 C 0.766(7) 0.407(4) 0.520(10)
H2_4 H 0.7111 0.3705 0.5268
H3_4 H 0.7730 0.4223 0.4375
C7_4 C 0.847(6) 0.349(5) 0.559(11)
H4_4 H 0.8485 0.2946 0.5108
H5_4 H 0.8408 0.3309 0.6396
H6_4 H 0.9029 0.3830 0.5500
N8_6 N 0.7500 0.5000 0.568(4)
H7_4 H 0.7970 0.5086 0.6150
C8_4 C 0.734(7) 0.593(4) 0.520(10)
H8_4 H 0.7889 0.6295 0.5268
H9_4 H 0.7270 0.5777 0.4375
C9_4 C 0.653(6) 0.651(5) 0.559(11)
H10_4 H 0.6515 0.7054 0.5108
H11_4 H 0.6592 0.6691 0.6396
H12_4 H 0.5971 0.6170 0.5500
H13_4 H 0.7030 0.4914 0.6150
loop_
_geom_bond_atom_site_label_1
_geom_bond_atom_site_label_2
_geom_bond_site_symmetry_1
_geom_bond_site_symmetry_2
C3 H1 1_555 1_555
Cu1 I1 1_555 1_555
Cu2 I1 1_555 1_555
I2 Cu1 1_555 1_555
N2 C1 1_555 1_555
C4 C1 1_555 1_555
N4 C3 1_555 1_555
Cu5 N4 1_555 1_555
N6 Cu2 1_555 1_555
C3 N2 1_555 1_555
Cu1 N2 1_555 1_555
Cu2 I2 1_555 1_555
C4 N4 1_555 1_555
Cu3 I3 1_555 1_555
N5 Cu4 1_555 1_555
N7 Cu3 1_555 1_555
Cu3 I4 1_555 1_555
Cu4 I3 1_555 1_555
Cu4 I4 1_555 1_555
C2 N1 1_555 1_555
N1 Cu6 1_555 1_555
N3 C5 1_555 1_555
Cu7 N3 1_555 1_555
C1_2 C2_2 1_555 1_555
C2_2 N1_2 1_555 1_555
C3_2 H1_2 1_555 1_555
N1_2 Cu6_2 1_555 1_555
N7 C1_2 1_555 1_555
C4_2 C1_2 1_555 1_555
C5_2 C4_2 1_555 1_555
N3_2 C5_2 1_555 1_555
N4_2 C3_2 1_555 1_555
Cu5_2 N4_2 1_555 1_555
Cu7_2 N3_2 1_555 1_555
C3_2 N7 1_555 1_555
C4_2 N4_2 1_555 1_555
Cu4_2 I2_2 1_555 1_555
I4_2 Cu2_2 1_555 1_555
N5_2 Cu4_2 1_555 1_555
N6_2 Cu2_2 1_555 1_555
Cu2_2 I2_2 1_555 1_555
Cu4_2 I4_2 1_555 1_555
Cu5_2 I1_2 1_555 1_555
I1_2 Cu5 1_555 1_555
Cu5 I3_2 1_555 1_555
I3_2 Cu5_2 1_555 1_555
C2_3 N5 1_555 1_555
N6_2 C5_3 1_555 1_555
Cu3_2 I3_3 1_555 1_555
N7_2 Cu3_2 1_555 1_555
Cu3_2 I4_3 1_555 1_555
Cu6 I3_3 1_555 1_555
Cu6 I4_3 1_555 1_555
C3_3 H1_3 1_555 1_555
Cu1_2 I1_3 1_555 1_555
Cu6_2 I1_3 1_555 1_555
I2_3 Cu1_2 1_555 1_555
N2_2 C1_3 1_555 1_555
C4_3 C1_3 1_555 1_555
N4_3 C3_3 1_555 1_555
Cu5_3 N4_3 1_555 1_555
C3_3 N2_2 1_555 1_555
Cu1_2 N2_2 1_555 1_555
Cu6_2 I2_3 1_555 1_555
C4_3 N4_3 1_555 1_555
C1_4 C2_4 1_555 1_555
C2_4 N6 1_555 1_555
C3_4 H1_4 1_555 1_555
N7_2 C1_4 1_555 1_555
C4_4 C1_4 1_555 1_555
C5_4 C4_4 1_555 1_555
N5_2 C5_4 1_555 1_555
N4_4 C3_4 1_555 1_555
Cu5_4 N4_4 1_555 1_555
C3_4 N7_2 1_555 1_555
C4_4 N4_4 1_555 1_555
Cu5_4 I1_4 1_555 1_555
I1_4 Cu5_3 1_555 1_555
Cu5_3 I3_4 1_555 1_555
I3_4 Cu5_4 1_555 1_555
Cu7_2 I2_4 1_555 1_555
I4_4 Cu7 1_555 1_555
Cu7 I2_4 1_555 1_555
Cu7_2 I4_4 1_555 1_555
C6 H2 1_555 1_555
C7 C6 1_555 1_555
H4 C7 1_555 1_555
H5 C7 1_555 1_555
H6 C7 1_555 1_555
N8 C6 1_555 1_555
H13 N8 1_555 1_555
H7 N8_2 1_555 1_555
C8 N8_2 1_555 1_555
H8 C8 1_555 1_555
C9 C8 1_555 1_555
H10 C9 1_555 1_555
H11 C9 1_555 1_555
H12 C9 1_555 1_555
C6_2 H2_2 1_555 1_555
H3_2 C6_2 1_555 1_555
C7_2 C6_2 1_555 1_555
H4_2 C7_2 1_555 1_555
H5_2 C7_2 1_555 1_555
H6_2 C7_2 1_555 1_555
N8_3 C6_2 1_555 1_555
H7_2 N8_3 1_555 1_555
C8_2 N8_3 1_555 1_555
H8_2 C8_2 1_555 1_555
H9_2 C8_2 1_555 1_555
C9_2 C8_2 1_555 1_555
H10_2 C9_2 1_555 1_555
H11_2 C9_2 1_555 1_555
H12_2 C9_2 1_555 1_555
H13_2 N8_3 1_555 1_555
H7_3 N8_4 1_555 1_555
C8_3 N8_4 1_555 1_555
H8_3 C8_3 1_555 1_555
C9_3 C8_3 1_555 1_555
H10_3 C9_3 1_555 1_555
H11_3 C9_3 1_555 1_555
H12_3 C9_3 1_555 1_555
C6_3 H2_3 1_555 1_555
C7_3 C6_3 1_555 1_555
H4_3 C7_3 1_555 1_555
H5_3 C7_3 1_555 1_555
H6_3 C7_3 1_555 1_555
N8_5 C6_3 1_555 1_555
H13_3 N8_5 1_555 1_555
C6_4 H2_4 1_555 1_555
H3_4 C6_4 1_555 1_555
C7_4 C6_4 1_555 1_555
H4_4 C7_4 1_555 1_555
H5_4 C7_4 1_555 1_555
H6_4 C7_4 1_555 1_555
N8_6 C6_4 1_555 1_555
H7_4 N8_6 1_555 1_555
C8_4 N8_6 1_555 1_555
H8_4 C8_4 1_555 1_555
H9_4 C8_4 1_555 1_555
C9_4 C8_4 1_555 1_555
H10_4 C9_4 1_555 1_555
H11_4 C9_4 1_555 1_555
H12_4 C9_4 1_555 1_555
H13_4 N8_6 1_555 1_555

#END
