
###############################################################################
#
# This file contains modified crystal structure data generated from the
# MOF subset of the Cambridge Structural Database (CSD) v543 
# hosted by the Cambridge Crystallographic Data Centre (CCDC).
#
# This work is licensed under the Creative Commons
# Attribution-NonCommercial-ShareAlike 4.0 International License.
# To view a copy of this license, visit
# http://creativecommons.org/licenses/by-nc-sa/4.0/
# or send a letter to
# Creative Commons, PO Box 1866, Mountain View, CA 94042, USA.
#
# CIF created using the CSD Python API on 29 September 2022
# The structure has been converted into the P1 space group
# The structure has a 3D framework
# The original CSD entry XIHRIQ is in the triclinic crystal system
# The framework has been calculated to contain at least 10.0% void space
# The void calculation uses a probe of radius 1.32A, grid spacing 0.4
#
###############################################################################

data_XIHRIQ
_chemical_formula_moiety         '(C72 H48 Co2 N8 O8)n'
_symmetry_cell_setting           triclinic
_symmetry_space_group_name_H-M   'P 1'
_symmetry_Int_Tables_number      1
_space_group_name_Hall           'P 1'
loop_
_symmetry_equiv_pos_site_id
_symmetry_equiv_pos_as_xyz
1 x,y,z
_cell_length_a                   10.725(2)
_cell_length_b                   13.3310(14)
_cell_length_c                   15.2614(17)
_cell_angle_alpha                65.641(8)
_cell_angle_beta                 86.004(11)
_cell_angle_gamma                74.007(14)
_cell_volume                     1908.41
loop_
_atom_site_label
_atom_site_type_symbol
_atom_site_fract_x
_atom_site_fract_y
_atom_site_fract_z
_atom_site_U_iso_or_equiv
_atom_site_thermal_displace_type
Co5 Co 0.12862(9) 0.01340(8) 0.58857(6) 0.0359 Uani
N2 N 0.2006(8) 0.3904(6) 0.0896(5) 0.0745 Uani
C3 C 0.0379(8) 0.3093(7) 0.1862(5) 0.0567 Uani
C4 C 0.1139(9) 0.1987(8) 0.2189(6) 0.0695 Uani
H3 H 0.1979 0.1839 0.1982 0.0840 Uiso
C5 C 0.0681(9) 0.1079(7) 0.2824(6) 0.0649 Uani
H4 H 0.1221 0.0336 0.3040 0.0780 Uiso
C6 C 0.0843(10) 0.4084(8) 0.1181(6) 0.0696 Uani
H5 H 0.0296 0.4823 0.0967 0.0830 Uiso
C7 C 0.2450(9) 0.4833(8) 0.0264(6) 0.0704 Uani
C8 C 0.2100(11) 0.5896(9) 0.0305(7) 0.0871 Uani
H6 H 0.1506 0.6036 0.0742 0.1050 Uiso
O6 O 0.1465(6) 0.0596(5) 0.7041(4) 0.0667 Uani
N10 N 0.2088(6) 0.1437(5) 0.4808(4) 0.0418 Uani
C62 C 0.4656(9) 0.0004(8) 0.9591(6) 0.0624 Uani
C63 C 0.3330(11) 0.0486(15) 0.9427(9) 0.1386 Uani
H43 H 0.2865 0.0819 0.9822 0.1670 Uiso
C64 C 0.2672(12) 0.0471(17) 0.8650(9) 0.1459 Uani
H44 H 0.1781 0.0803 0.8541 0.1770 Uiso
N8 N 0.4781(8) 0.3755(6) 0.2378(5) 0.0657 Uani
C45 C 0.7328(12) 0.3217(9) 0.0342(8) 0.0949 Uani
H31 H 0.7545 0.2507 0.0313 0.1140 Uiso
C46 C 0.6478(10) 0.3420(8) 0.0989(7) 0.0749 Uani
H32 H 0.6135 0.2838 0.1413 0.0900 Uiso
C47 C 0.6111(9) 0.4479(8) 0.1030(6) 0.0642 Uani
C48 C 0.5218(10) 0.4720(8) 0.1707(6) 0.0743 Uani
C49 C 0.4904(11) 0.5755(8) 0.1758(8) 0.0850 Uani
H33 H 0.4365 0.5877 0.2230 0.1020 Uiso
C50 C 0.5393(13) 0.6633(10) 0.1101(9) 0.1034 Uani
H34 H 0.5128 0.7355 0.1110 0.1240 Uiso
C51 C 0.6239(11) 0.6451(9) 0.0458(8) 0.0919 Uani
H35 H 0.6581 0.7040 0.0046 0.1100 Uiso
C52 C 0.6623(9) 0.5375(8) 0.0395(6) 0.0680 Uani
C53 C 0.3619(10) 0.3968(8) 0.2617(6) 0.0667 Uani
H36 H 0.3073 0.4703 0.2311 0.0800 Uiso
C54 C 0.3102(8) 0.3073(7) 0.3376(5) 0.0545 Uani
C55 C 0.3797(7) 0.1930(7) 0.3759(5) 0.0503 Uani
H37 H 0.4605 0.1690 0.3537 0.0610 Uiso
C56 C 0.3256(7) 0.1149(7) 0.4483(5) 0.0482 Uani
H38 H 0.3737 0.0386 0.4755 0.0580 Uiso
C57 C 0.1432(8) 0.2549(6) 0.4427(6) 0.0546 Uani
H39 H 0.0620 0.2769 0.4653 0.0660 Uiso
C58 C 0.1899(9) 0.3375(7) 0.3720(6) 0.0629 Uani
H40 H 0.1407 0.4135 0.3475 0.0760 Uiso
N3 N 0.5219(8) 0.6245(6) 0.7622(5) 0.0657 Uani
N4 N 0.7912(6) 0.8563(5) 0.5192(4) 0.0418 Uani
C9 C 0.2672(12) 0.6783(9) 0.9658(8) 0.0949 Uani
H7 H 0.2455 0.7493 0.9687 0.1140 Uiso
C10 C 0.3522(10) 0.6580(8) 0.9011(7) 0.0749 Uani
H8 H 0.3865 0.7162 0.8587 0.0900 Uiso
C11 C 0.3889(9) 0.5521(8) 0.8970(6) 0.0642 Uani
C12 C 0.4782(10) 0.5280(8) 0.8293(6) 0.0743 Uani
C13 C 0.5096(11) 0.4245(8) 0.8242(8) 0.0850 Uani
H9 H 0.5635 0.4123 0.7770 0.1020 Uiso
C14 C 0.4607(13) 0.3367(10) 0.8899(9) 0.1034 Uani
H10 H 0.4872 0.2645 0.8890 0.1240 Uiso
C15 C 0.3761(11) 0.3549(9) 0.9542(8) 0.0919 Uani
H11 H 0.3419 0.2960 0.9954 0.1100 Uiso
C16 C 0.3377(9) 0.4625(8) 0.9605(6) 0.0680 Uani
C17 C 0.6381(10) 0.6032(8) 0.7383(6) 0.0667 Uani
H12 H 0.6927 0.5297 0.7689 0.0800 Uiso
C18 C 0.6898(8) 0.6927(7) 0.6624(5) 0.0545 Uani
C19 C 0.6203(7) 0.8070(7) 0.6241(5) 0.0503 Uani
H13 H 0.5395 0.8310 0.6463 0.0610 Uiso
C20 C 0.6744(7) 0.8851(7) 0.5517(5) 0.0482 Uani
H14 H 0.6263 0.9614 0.5245 0.0580 Uiso
C21 C 0.8568(8) 0.7451(6) 0.5573(6) 0.0546 Uani
H15 H 0.9380 0.7231 0.5347 0.0660 Uiso
C22 C 0.8101(9) 0.6625(7) 0.6280(6) 0.0629 Uani
H16 H 0.8593 0.5865 0.6525 0.0760 Uiso
Co4 Co 0.87138(9) 0.98660(8) 0.41143(6) 0.0359 Uani
O2 O 0.8535(6) 0.9404(5) 0.2959(4) 0.0667 Uani
C26 C 0.5344(9) 0.9996(8) 0.0409(6) 0.0624 Uani
C27 C 0.6670(11) 0.9514(15) 0.0573(9) 0.1386 Uani
H19 H 0.7135 0.9181 0.0178 0.1670 Uiso
C28 C 0.7328(12) 0.9529(17) 0.1350(9) 0.1459 Uani
H20 H 0.8219 0.9197 0.1459 0.1770 Uiso
N7 N 0.7994(8) 0.6096(6) 0.9104(5) 0.0745 Uani
C39 C 0.9621(8) 0.6907(7) 0.8138(5) 0.0567 Uani
C40 C 0.8861(9) 0.8013(8) 0.7811(6) 0.0695 Uani
H27 H 0.8021 0.8161 0.8018 0.0840 Uiso
C41 C 0.9319(9) 0.8921(7) 0.7176(6) 0.0649 Uani
H28 H 0.8779 0.9664 0.6960 0.0780 Uiso
C42 C 0.9157(10) 0.5916(8) 0.8819(6) 0.0696 Uani
H29 H 0.9704 0.5177 0.9033 0.0830 Uiso
C43 C 0.7550(9) 0.5167(8) 0.9736(6) 0.0704 Uani
C44 C 0.7900(11) 0.4104(9) 0.9695(7) 0.0871 Uani
H30 H 0.8494 0.3964 0.9258 0.1050 Uiso
O3 O 0.0486(5) 0.8726(4) 0.4509(4) 0.0475 Uani
O4 O 0.1951(5) 0.9206(4) 0.5118(4) 0.0469 Uani
C29 C 0.4504(7) 0.5514(6) 0.4976(6) 0.0536 Uani
C30 C 0.4719(8) 0.6229(9) 0.5360(8) 0.0845 Uani
H21 H 0.5522 0.6040 0.5667 0.1010 Uiso
C31 C 0.3806(8) 0.7201(8) 0.5311(8) 0.0789 Uani
H22 H 0.3996 0.7650 0.5588 0.0950 Uiso
C32 C 0.2618(7) 0.7515(6) 0.4856(5) 0.0449 Uani
C33 C 0.2358(9) 0.6855(8) 0.4456(7) 0.0744 Uani
H23 H 0.1553 0.7060 0.4145 0.0890 Uiso
C34 C 0.3296(9) 0.5864(8) 0.4507(8) 0.0866 Uani
H24 H 0.3106 0.5427 0.4219 0.1040 Uiso
C36 C 0.1607(6) 0.8570(5) 0.4822(4) 0.0348 Uani
O7 O 0.9514(5) 0.1274(4) 0.5491(4) 0.0475 Uani
O9 O 0.8049(5) 0.0794(4) 0.4882(4) 0.0469 Uani
C65 C 0.5496(7) 0.4486(6) 0.5024(6) 0.0536 Uani
C66 C 0.5281(8) 0.3771(9) 0.4640(8) 0.0845 Uani
H45 H 0.4478 0.3960 0.4333 0.1010 Uiso
C67 C 0.6194(8) 0.2799(8) 0.4689(8) 0.0789 Uani
H46 H 0.6004 0.2350 0.4412 0.0950 Uiso
C68 C 0.7382(7) 0.2485(6) 0.5144(5) 0.0449 Uani
C69 C 0.7642(9) 0.3145(8) 0.5544(7) 0.0744 Uani
H47 H 0.8447 0.2940 0.5855 0.0890 Uiso
C70 C 0.6704(9) 0.4136(8) 0.5493(8) 0.0866 Uani
H48 H 0.6894 0.4573 0.5781 0.1040 Uiso
C72 C 0.8393(6) 0.1430(5) 0.5178(4) 0.0348 Uani
O1 O 0.6846(6) 0.0539(5) 0.3232(4) 0.0580 Uani
N1 N 0.9464(6) 0.1264(5) 0.3129(4) 0.0459 Uani
C1 C 0.8722(8) 0.2344(6) 0.2810(5) 0.0525 Uani
H1 H 0.7883 0.2479 0.3022 0.0630 Uiso
C2 C 0.9138(9) 0.3266(7) 0.2184(6) 0.0647 Uani
H2 H 0.8585 0.4002 0.1980 0.0780 Uiso
C23 C 0.6656(9) 0.0031(7) 0.1947(6) 0.0594 Uani
C24 C 0.5378(11) 0.0453(9) 0.1779(7) 0.0890 Uani
H17 H 0.4904 0.0765 0.2184 0.1070 Uiso
C25 C 0.4707(11) 0.0452(9) 0.1024(8) 0.0911 Uani
H18 H 0.3812 0.0767 0.0940 0.1100 Uiso
C35 C 0.7354(9) 0.0003(7) 0.2766(5) 0.0523 Uani
O5 O 0.3154(6) 0.9461(5) 0.6768(4) 0.0580 Uani
N6 N 0.0536(6) 0.8736(5) 0.6871(4) 0.0459 Uani
C59 C 0.3344(9) 0.9969(7) 0.8053(6) 0.0594 Uani
C60 C 0.4622(11) 0.9547(9) 0.8221(7) 0.0890 Uani
H41 H 0.5096 0.9235 0.7816 0.1070 Uiso
C61 C 0.5293(11) 0.9548(9) 0.8976(8) 0.0911 Uani
H42 H 0.6188 0.9233 0.9060 0.1100 Uiso
C71 C 0.2646(9) 0.9997(7) 0.7234(5) 0.0523 Uani
C37 C 0.1278(8) 0.7656(6) 0.7190(5) 0.0525 Uani
H25 H 0.2117 0.7521 0.6978 0.0630 Uiso
C38 C 0.0862(9) 0.6734(7) 0.7816(6) 0.0647 Uani
H26 H 0.1415 0.5998 0.8020 0.0780 Uiso
loop_
_atom_site_aniso_label
_atom_site_aniso_U_11
_atom_site_aniso_U_22
_atom_site_aniso_U_33
_atom_site_aniso_U_23
_atom_site_aniso_U_13
_atom_site_aniso_U_12
Co5 0.033 0.0361 0.0398 -0.013 0.005 -0.0161
N2 0.078 0.078 0.059 0.003 0.003 -0.057
C3 0.06 0.061 0.041 0.002 -0.003 -0.039
C4 0.063 0.074 0.06 -0.01 0.026 -0.034
C5 0.062 0.057 0.06 -0.005 0.014 -0.025
C6 0.078 0.075 0.05 -0.002 0.006 -0.05
C7 0.074 0.078 0.054 -0.002 0.002 -0.052
C8 0.11 0.096 0.065 -0.022 0.036 -0.068
O6 0.065 0.087 0.062 -0.041 -0.006 -0.023
N10 0.048 0.037 0.041 -0.013 0.002 -0.017
C62 0.08 0.065 0.047 -0.017 -0.002 -0.035
C63 0.065 0.3 0.118 -0.151 0.009 -0.05
C64 0.07 0.31 0.109 -0.126 0.01 -0.068
N8 0.073 0.074 0.051 -0.006 0.009 -0.054
C45 0.13 0.08 0.087 -0.02 0.019 -0.073
C46 0.087 0.071 0.069 -0.012 0.018 -0.055
C47 0.074 0.064 0.054 -0.003 -0.003 -0.05
C48 0.077 0.073 0.057 0.006 0.005 -0.048
C49 0.103 0.061 0.098 -0.028 0.037 -0.048
C50 0.121 0.074 0.114 -0.021 0.025 -0.057
C51 0.104 0.079 0.084 -0.006 0.038 -0.063
C52 0.066 0.069 0.06 -0.001 0.004 -0.045
C53 0.077 0.06 0.055 -0.002 0.006 -0.041
C54 0.061 0.054 0.042 -0.002 -0.004 -0.032
C55 0.041 0.062 0.054 -0.02 0.01 -0.031
C56 0.035 0.048 0.053 -0.011 0.009 -0.015
C57 0.058 0.044 0.06 -0.019 0.012 -0.017
C58 0.062 0.048 0.064 -0.004 0.006 -0.023
N3 0.073 0.074 0.051 -0.006 0.009 -0.054
N4 0.048 0.037 0.041 -0.013 0.002 -0.017
C9 0.13 0.08 0.087 -0.02 0.019 -0.073
C10 0.087 0.071 0.069 -0.012 0.018 -0.055
C11 0.074 0.064 0.054 -0.003 -0.003 -0.05
C12 0.077 0.073 0.057 0.006 0.005 -0.048
C13 0.103 0.061 0.098 -0.028 0.037 -0.048
C14 0.121 0.074 0.114 -0.021 0.025 -0.057
C15 0.104 0.079 0.084 -0.006 0.038 -0.063
C16 0.066 0.069 0.06 -0.001 0.004 -0.045
C17 0.077 0.06 0.055 -0.002 0.006 -0.041
C18 0.061 0.054 0.042 -0.002 -0.004 -0.032
C19 0.041 0.062 0.054 -0.02 0.01 -0.031
C20 0.035 0.048 0.053 -0.011 0.009 -0.015
C21 0.058 0.044 0.06 -0.019 0.012 -0.017
C22 0.062 0.048 0.064 -0.004 0.006 -0.023
Co4 0.033 0.0361 0.0398 -0.013 0.005 -0.0161
O2 0.065 0.087 0.062 -0.041 -0.006 -0.023
C26 0.08 0.065 0.047 -0.017 -0.002 -0.035
C27 0.065 0.3 0.118 -0.151 0.009 -0.05
C28 0.07 0.31 0.109 -0.126 0.01 -0.068
N7 0.078 0.078 0.059 0.003 0.003 -0.057
C39 0.06 0.061 0.041 0.002 -0.003 -0.039
C40 0.063 0.074 0.06 -0.01 0.026 -0.034
C41 0.062 0.057 0.06 -0.005 0.014 -0.025
C42 0.078 0.075 0.05 -0.002 0.006 -0.05
C43 0.074 0.078 0.054 -0.002 0.002 -0.052
C44 0.11 0.096 0.065 -0.022 0.036 -0.068
O3 0.034 0.038 0.069 -0.019 0.003 -0.012
O4 0.044 0.044 0.062 -0.029 0.009 -0.016
C29 0.04 0.052 0.074 -0.035 -0.009 -0.003
C30 0.041 0.103 0.144 -0.094 -0.027 0.004
C31 0.044 0.081 0.138 -0.082 -0.022 0.008
C32 0.041 0.048 0.048 -0.021 0.001 -0.013
C33 0.051 0.076 0.115 -0.066 -0.026 0.004
C34 0.055 0.088 0.152 -0.096 -0.028 0.009
C36 0.035 0.032 0.037 -0.011 0.008 -0.015
O7 0.034 0.038 0.069 -0.019 0.003 -0.012
O9 0.044 0.044 0.062 -0.029 0.009 -0.016
C65 0.04 0.052 0.074 -0.035 -0.009 -0.003
C66 0.041 0.103 0.144 -0.094 -0.027 0.004
C67 0.044 0.081 0.138 -0.082 -0.022 0.008
C68 0.041 0.048 0.048 -0.021 0.001 -0.013
C69 0.051 0.076 0.115 -0.066 -0.026 0.004
C70 0.055 0.088 0.152 -0.096 -0.028 0.009
C72 0.035 0.032 0.037 -0.011 0.008 -0.015
O1 0.062 0.059 0.06 -0.025 -0.006 -0.024
N1 0.043 0.058 0.042 -0.017 0.009 -0.029
C1 0.047 0.048 0.05 -0.004 0.013 -0.022
C2 0.062 0.049 0.074 -0.009 0.013 -0.029
C23 0.064 0.067 0.046 -0.014 -0.012 -0.027
C24 0.095 0.096 0.083 -0.055 -0.028 0
C25 0.072 0.103 0.108 -0.057 -0.04 -0.006
C35 0.064 0.045 0.046 -0.008 -0.004 -0.027
O5 0.062 0.059 0.06 -0.025 -0.006 -0.024
N6 0.043 0.058 0.042 -0.017 0.009 -0.029
C59 0.064 0.067 0.046 -0.014 -0.012 -0.027
C60 0.095 0.096 0.083 -0.055 -0.028 0
C61 0.072 0.103 0.108 -0.057 -0.04 -0.006
C71 0.064 0.045 0.046 -0.008 -0.004 -0.027
C37 0.047 0.048 0.05 -0.004 0.013 -0.022
C38 0.062 0.049 0.074 -0.009 0.013 -0.029
loop_
_geom_bond_atom_site_label_1
_geom_bond_atom_site_label_2
_geom_bond_site_symmetry_1
_geom_bond_site_symmetry_2
N2 C6 1_555 1_555
C4 C3 1_555 1_555
H3 C4 1_555 1_555
H4 C5 1_555 1_555
C6 C3 1_555 1_555
H5 C6 1_555 1_555
C7 N2 1_555 1_555
C8 C7 1_555 1_555
H6 C8 1_555 1_555
C4 C5 1_555 1_555
O6 Co5 1_555 1_555
N10 Co5 1_555 1_555
C63 C62 1_555 1_555
H43 C63 1_555 1_555
H44 C64 1_555 1_555
C63 C64 1_555 1_555
N8 C48 1_555 1_555
H31 C45 1_555 1_555
C46 C45 1_555 1_555
H32 C46 1_555 1_555
C47 C46 1_555 1_555
C48 C47 1_555 1_555
C49 C48 1_555 1_555
H33 C49 1_555 1_555
C50 C49 1_555 1_555
H34 C50 1_555 1_555
C51 C50 1_555 1_555
H35 C51 1_555 1_555
C53 N8 1_555 1_555
H36 C53 1_555 1_555
C54 C53 1_555 1_555
C55 C54 1_555 1_555
H37 C55 1_555 1_555
C56 N10 1_555 1_555
H38 C56 1_555 1_555
C57 N10 1_555 1_555
H39 C57 1_555 1_555
C58 C54 1_555 1_555
H40 C58 1_555 1_555
C47 C52 1_555 1_555
C51 C52 1_555 1_555
C55 C56 1_555 1_555
C57 C58 1_555 1_555
N3 C12 1_555 1_555
N4 C20 1_555 1_555
H7 C9 1_555 1_555
C10 C9 1_555 1_555
H8 C10 1_555 1_555
C11 C10 1_555 1_555
C12 C11 1_555 1_555
C13 C12 1_555 1_555
H9 C13 1_555 1_555
C14 C13 1_555 1_555
H10 C14 1_555 1_555
C15 C14 1_555 1_555
H11 C15 1_555 1_555
C17 N3 1_555 1_555
H12 C17 1_555 1_555
C18 C17 1_555 1_555
C19 C18 1_555 1_555
H13 C19 1_555 1_555
C20 C19 1_555 1_555
H14 C20 1_555 1_555
C21 N4 1_555 1_555
H15 C21 1_555 1_555
C22 C18 1_555 1_555
H16 C22 1_555 1_555
Co4 N4 1_555 1_555
C11 C16 1_555 1_555
C15 C16 1_555 1_555
C21 C22 1_555 1_555
O2 Co4 1_555 1_555
C27 C26 1_555 1_555
H19 C27 1_555 1_555
H20 C28 1_555 1_555
C27 C28 1_555 1_555
N7 C42 1_555 1_555
C40 C39 1_555 1_555
H27 C40 1_555 1_555
H28 C41 1_555 1_555
C42 C39 1_555 1_555
H29 C42 1_555 1_555
C43 N7 1_555 1_555
C44 C43 1_555 1_555
H30 C44 1_555 1_555
C40 C41 1_555 1_555
O4 C36 1_555 1_555
C29 C30 1_555 1_555
C30 H21 1_555 1_555
C31 C30 1_555 1_555
H22 C31 1_555 1_555
C32 C31 1_555 1_555
C33 C32 1_555 1_555
H23 C33 1_555 1_555
C34 C29 1_555 1_555
H24 C34 1_555 1_555
C36 O3 1_555 1_555
O7 C72 1_555 1_555
O9 C72 1_555 1_555
C65 C29 1_555 1_555
C66 C65 1_555 1_555
H45 C66 1_555 1_555
C67 C66 1_555 1_555
H46 C67 1_555 1_555
C68 C67 1_555 1_555
C69 C68 1_555 1_555
H47 C69 1_555 1_555
C70 C65 1_555 1_555
H48 C70 1_555 1_555
C72 C68 1_555 1_555
C32 C36 1_555 1_555
C33 C34 1_555 1_555
C69 C70 1_555 1_555
O1 C35 1_555 1_555
C1 N1 1_555 1_555
H1 C1 1_555 1_555
C2 C1 1_555 1_555
H2 C2 1_555 1_555
C23 C24 1_555 1_555
C24 H17 1_555 1_555
C25 C24 1_555 1_555
H18 C25 1_555 1_555
C23 C35 1_555 1_555
O5 C71 1_555 1_555
C59 C60 1_555 1_555
C60 H41 1_555 1_555
C61 C60 1_555 1_555
H42 C61 1_555 1_555
C59 C71 1_555 1_555
N6 C37 1_555 1_555
C37 H25 1_555 1_555
C38 C37 1_555 1_555
H26 C38 1_555 1_555

#END
