
###############################################################################
#
# This file contains modified crystal structure data generated from the
# MOF subset of the Cambridge Structural Database (CSD) v543 
# hosted by the Cambridge Crystallographic Data Centre (CCDC).
#
# This work is licensed under the Creative Commons
# Attribution-NonCommercial-ShareAlike 4.0 International License.
# To view a copy of this license, visit
# http://creativecommons.org/licenses/by-nc-sa/4.0/
# or send a letter to
# Creative Commons, PO Box 1866, Mountain View, CA 94042, USA.
#
# CIF created using the CSD Python API on 29 September 2022
# The structure has been converted into the P1 space group
# The structure has a 3D framework
# The original CSD entry XIHWUI is in the monoclinic crystal system
# The framework has been calculated to contain at least 10.0% void space
# The void calculation uses a probe of radius 1.32A, grid spacing 0.4
#
###############################################################################

data_XIHWUI
_chemical_formula_moiety         '(C108 H82 Mn13 N4 O39)n'
_symmetry_cell_setting           triclinic
_symmetry_space_group_name_H-M   'P 1'
_symmetry_Int_Tables_number      1
_space_group_name_Hall           'P 1'
loop_
_symmetry_equiv_pos_site_id
_symmetry_equiv_pos_as_xyz
1 x,y,z
_cell_length_a                   12.6283(13)
_cell_length_b                   14.9622(17)
_cell_length_c                   18.9869(16)
_cell_angle_alpha                90
_cell_angle_beta                 123.236(5)
_cell_angle_gamma                90
_cell_volume                     3000.67
loop_
_atom_site_label
_atom_site_type_symbol
_atom_site_fract_x
_atom_site_fract_y
_atom_site_fract_z
Mn17 Mn -0.0000 0.5000 0.0000
Mn5 Mn 0.00429(6) 0.75184(4) 0.98574(4)
Mn10 Mn 0.00429(6) 0.74816(4) 0.48574(4)
Mn12 Mn 0.0000 0.5000 0.5000
Mn17_2 Mn -0.0000 0.5000 1.0000
Mn14 Mn 0.0000 -0.0000 0.0000
Mn14_2 Mn 0.0000 -0.0000 1.0000
O10 O 0.0511(3) 0.62674(18) 0.07604(19)
H20 H 0.1405 0.6264 0.1203
H21 H 0.0033 0.6308 0.1021
Mn14_3 Mn -0.0000 1.0000 0.0000
Mn17_3 Mn 1.0000 0.5000 0.0000
O23 O 0.1726(3) 0.4355(2) 0.0915(2)
O27 O 0.1788(3) 0.8048(2) 0.0880(2)
C1 C 0.1272(4) 0.6100(3) 0.9242(3)
C2 C 0.2035(4) 0.6086(3) 0.8851(3)
C3 C 0.3100(5) 0.5544(4) 0.9161(3)
H1 H 0.3336 0.5151 0.9603
C4 C 0.3800(5) 0.5596(4) 0.8804(3)
H2 H 0.4534 0.5258 0.9025
C5 C 0.3418(4) 0.6149(3) 0.8118(3)
C6 C 0.2368(5) 0.6654(3) 0.7796(3)
H3 H 0.2109 0.7015 0.7330
C7 C 0.1682(5) 0.6633(3) 0.8161(3)
H4 H 0.0966 0.6991 0.7942
C8 C 0.4238(4) 0.6201(3) 0.7752(3)
C9 C 0.5570(4) 0.6204(3) 0.8292(3)
H5 H 0.5930 0.6150 0.8868
C10 C 0.6368(4) 0.6282(3) 0.8008(3)
C11 C 0.7760(4) 0.6335(3) 0.8666(3)
C12 C 0.5854(4) 0.6362(3) 0.7142(3)
C13 C 0.4519(4) 0.6346(3) 0.6597(3)
H6 H 0.4162 0.6390 0.6021
C14 C 0.3717(4) 0.6267(3) 0.6878(3)
C15 C 0.2316(4) 0.6223(3) 0.6214(3)
C16 C 0.6654(4) 0.6426(3) 0.6762(3)
C17 C 0.7701(5) 0.5914(3) 0.7078(3)
H7 H 0.7963 0.5550 0.7543
C18 C 0.8382(5) 0.5937(3) 0.6705(3)
H8 H 0.9091 0.5573 0.6913
C19 C 0.8025(4) 0.6494(3) 0.6023(3)
C20 C 0.6972(5) 0.7043(3) 0.5724(3)
H9 H 0.6740 0.7441 0.5286
C21 C 0.6269(5) 0.6990(3) 0.6088(3)
H10 H 0.5543 0.7334 0.5877
C22 C 0.8774(4) 0.6479(3) 0.5621(3)
C23 C 0.0316(7) 0.8811(4) 0.7521(4)
H11 H 0.0686 0.8311 0.7404
H12 H 0.0563 0.9362 0.7379
C27 C 0.2048(6) 0.8795(4) 0.9109(4)
H17 H 0.2241 0.9328 0.9439
H18 H 0.2578 0.8763 0.8893
H19 H 0.2197 0.8282 0.9456
N1 N 0.0718(4) 0.8812(3) 0.8408(3)
O1 O 0.1015(3) 0.5376(2) 0.9435(2)
O2 O 0.0981(3) 0.6861(2) 0.9363(2)
O3 O 0.8274(3) 0.5645(2) 0.9085(2)
O4 O 0.8285(3) 0.7074(2) 0.8759(2)
O5 O 0.1821(3) 0.5462(2) 0.6030(2)
O6 O 0.1788(3) 0.6952(2) 0.5880(2)
O7 O 0.9146(3) 0.5735(2) 0.5541(2)
O8 O 0.8959(3) 0.7219(2) 0.5387(2)
C51 C 0.1071(8) 0.1270(5) 0.2956(5)
H34 H 0.1335 0.1851 0.3226
H35 H 0.1465 0.0812 0.3387
C52 C 0.1450(6) 0.1161(4) 0.2336(3)
H36 H 0.1889 0.0599 0.2425
H37 H 0.1999 0.1646 0.2388
C53 C 0.0243(5) 0.1178(3) 0.1496(3)
O19 O 0.0125(3) 0.11829(18) 0.0784(2)
Mn12_2 Mn 1.0000 0.5000 0.5000
Mn14_4 Mn 0.0000 1.0000 1.0000
Mn17_4 Mn 1.0000 0.5000 1.0000
O25 O 0.1715(3) 0.2926(2) 0.1241(2)
O29 O 0.0854(3) 0.4265(2) 0.4459(2)
O32 O 0.0125(3) 0.38171(18) 0.5784(2)
O30 O 0.1041(3) 0.2219(2) 0.9613(2)
Mn14_5 Mn 1.0000 -0.0000 0.0000
Mn14_6 Mn 1.0000 -0.0000 1.0000
Mn14_7 Mn 1.0000 1.0000 0.0000
O21 O 0.8985(3) 0.4624(2) 0.0565(2)
O31 O 0.8959(3) 0.7781(2) 0.0387(2)
C24 C 0.8929(8) 0.8730(5) 0.7044(5)
H13 H 0.8665 0.8149 0.6774
H14 H 0.8535 0.9188 0.6613
C25 C 0.8550(6) 0.8839(4) 0.7664(3)
H15 H 0.8111 0.9401 0.7575
H16 H 0.8001 0.8354 0.7612
C26 C 0.9757(5) 0.8822(3) 0.8504(3)
O9 O 0.9875(3) 0.88171(18) 0.9216(2)
C28 C 0.8728(4) 0.3900(3) 0.0758(3)
C29 C 0.7965(4) 0.3914(3) 0.1149(3)
C30 C 0.6900(5) 0.4456(4) 0.0839(3)
H22 H 0.6664 0.4849 0.0397
C31 C 0.6200(5) 0.4404(4) 0.1196(3)
H23 H 0.5466 0.4742 0.0975
C32 C 0.6582(4) 0.3851(3) 0.1882(3)
C33 C 0.7632(5) 0.3346(3) 0.2204(3)
H24 H 0.7891 0.2985 0.2670
C34 C 0.8318(5) 0.3367(3) 0.1839(3)
H25 H 0.9034 0.3009 0.2058
C35 C 0.5762(4) 0.3799(3) 0.2248(3)
C36 C 0.4430(4) 0.3796(3) 0.1708(3)
H26 H 0.4070 0.3850 0.1132
C37 C 0.3632(4) 0.3718(3) 0.1992(3)
C38 C 0.2240(4) 0.3665(3) 0.1334(3)
C39 C 0.4146(4) 0.3638(3) 0.2858(3)
C40 C 0.5481(4) 0.3654(3) 0.3403(3)
H27 H 0.5838 0.3610 0.3979
C41 C 0.6283(4) 0.3733(3) 0.3122(3)
C42 C 0.7684(4) 0.3777(3) 0.3786(3)
C43 C 0.3346(4) 0.3574(3) 0.3238(3)
C44 C 0.2299(5) 0.4086(3) 0.2922(3)
H28 H 0.2037 0.4450 0.2457
C45 C 0.1618(5) 0.4063(3) 0.3295(3)
H29 H 0.0909 0.4427 0.3087
C46 C 0.1975(4) 0.3506(3) 0.3977(3)
C47 C 0.3028(5) 0.2957(3) 0.4276(3)
H30 H 0.3260 0.2559 0.4714
C48 C 0.3731(5) 0.3010(3) 0.3912(3)
H31 H 0.4457 0.2666 0.4123
C49 C 0.1226(4) 0.3521(3) 0.4379(3)
C50 C 0.9684(7) 0.1189(4) 0.2479(4)
H32 H 0.9314 0.1689 0.2596
H33 H 0.9437 0.0638 0.2621
C54 C 0.7952(6) 0.1205(4) 0.0891(4)
H38 H 0.7759 0.0672 0.0561
H39 H 0.7422 0.1237 0.1107
H40 H 0.7803 0.1718 0.0544
Mn4 Mn 0.99571(6) 0.24816(4) 0.01426(4)
N2 N 0.9282(4) 0.1188(3) 0.1592(3)
O12 O 0.9019(3) 0.3139(2) 0.0637(2)
O15 O 0.8179(3) 0.4538(2) 0.3970(2)
O16 O 0.8212(3) 0.3048(2) 0.4120(2)
O18 O 0.1041(3) 0.2781(2) 0.4613(2)
Mn7 Mn 0.99571(6) 0.25184(4) 0.51426(4)
Mn14_8 Mn 1.0000 1.0000 1.0000
O33 O 0.9875(3) 0.61829(18) 0.4216(2)
O34 O 0.9489(3) 0.37326(18) 0.92396(19)
H41 H 0.8595 0.3736 0.8797
H42 H 0.9967 0.3692 0.8979
O26 O 0.8212(3) 0.1952(2) 0.9120(2)
Mn15 Mn -0.0000 -0.0000 0.5000
Mn15_2 Mn -0.0000 1.0000 0.5000
Mn15_3 Mn 1.0000 -0.0000 0.5000
C24_2 C 0.1071(8) 0.3730(5) 0.7956(5)
H13_2 H 0.1335 0.3149 0.8226
H14_2 H 0.1465 0.4188 0.8387
C25_2 C 0.1450(6) 0.3839(4) 0.7336(3)
H15_2 H 0.1889 0.4401 0.7425
H16_2 H 0.1999 0.3354 0.7388
C26_2 C 0.0243(5) 0.3822(3) 0.6496(3)
O22 O 0.1726(3) 0.0645(2) 0.5915(2)
O24 O 0.1715(3) 0.2074(2) 0.6241(2)
O28 O 0.0854(3) 0.0735(2) 0.9459(2)
C28_2 C 0.1272(4) 0.8900(3) 0.4242(3)
C29_2 C 0.2035(4) 0.8914(3) 0.3851(3)
C30_2 C 0.3100(5) 0.9456(4) 0.4161(3)
H22_2 H 0.3336 0.9849 0.4603
C31_2 C 0.3800(5) 0.9404(4) 0.3804(3)
H23_2 H 0.4534 0.9742 0.4025
C32_2 C 0.3418(4) 0.8851(3) 0.3118(3)
C33_2 C 0.2368(5) 0.8346(3) 0.2796(3)
H24_2 H 0.2109 0.7985 0.2330
C34_2 C 0.1682(5) 0.8367(3) 0.3161(3)
H25_2 H 0.0966 0.8009 0.2942
C35_2 C 0.4238(4) 0.8799(3) 0.2752(3)
C36_2 C 0.5570(4) 0.8796(3) 0.3292(3)
H26_2 H 0.5930 0.8850 0.3868
C37_2 C 0.6368(4) 0.8718(3) 0.3008(3)
C38_2 C 0.7760(4) 0.8665(3) 0.3666(3)
C39_2 C 0.5854(4) 0.8638(3) 0.2142(3)
C40_2 C 0.4519(4) 0.8654(3) 0.1597(3)
H27_2 H 0.4162 0.8610 0.1021
C41_2 C 0.3717(4) 0.8733(3) 0.1878(3)
C42_2 C 0.2316(4) 0.8777(3) 0.1214(3)
C43_2 C 0.6654(4) 0.8574(3) 0.1762(3)
C44_2 C 0.7701(5) 0.9086(3) 0.2078(3)
H28_2 H 0.7963 0.9450 0.2543
C45_2 C 0.8382(5) 0.9063(3) 0.1705(3)
H29_2 H 0.9091 0.9427 0.1913
C46_2 C 0.8025(4) 0.8506(3) 0.1023(3)
C47_2 C 0.6972(5) 0.7957(3) 0.0724(3)
H30_2 H 0.6740 0.7559 0.0286
C48_2 C 0.6269(5) 0.8010(3) 0.1088(3)
H31_2 H 0.5543 0.7666 0.0877
C49_2 C 0.8774(4) 0.8521(3) 0.0621(3)
C50_2 C 0.0316(7) 0.6189(4) 0.2521(4)
H32_2 H 0.0686 0.6689 0.2404
H33_2 H 0.0563 0.5638 0.2379
C54_2 C 0.2048(6) 0.6205(4) 0.4109(4)
H38_2 H 0.2241 0.5672 0.4439
H39_2 H 0.2578 0.6237 0.3893
H40_2 H 0.2197 0.6718 0.4456
N2_2 N 0.0718(4) 0.6188(3) 0.3408(3)
O11 O 0.1015(3) 0.9624(2) 0.4435(2)
O12_2 O 0.0981(3) 0.8139(2) 0.4363(2)
O13 O 0.8274(3) 0.9355(2) 0.4085(2)
O14 O 0.8285(3) 0.7926(2) 0.3759(2)
O15_2 O 0.1821(3) 0.9538(2) 0.1030(2)
O17 O 0.9146(3) 0.9265(2) 0.0541(2)
O20 O 0.0511(3) 0.87326(18) 0.57604(19)
H41_2 H 0.1405 0.8736 0.6203
H42_2 H 0.0033 0.8692 0.6021
Mn15_4 Mn 1.0000 1.0000 0.5000
C1_2 C 0.8728(4) 0.1100(3) 0.5758(3)
C2_2 C 0.7965(4) 0.1086(3) 0.6149(3)
C3_2 C 0.6900(5) 0.0544(4) 0.5839(3)
H1_2 H 0.6664 0.0151 0.5397
C4_2 C 0.6200(5) 0.0596(4) 0.6196(3)
H2_2 H 0.5466 0.0258 0.5975
C5_2 C 0.6582(4) 0.1149(3) 0.6882(3)
C6_2 C 0.7632(5) 0.1654(3) 0.7204(3)
H3_2 H 0.7891 0.2015 0.7670
C7_2 C 0.8318(5) 0.1633(3) 0.6839(3)
H4_2 H 0.9034 0.1991 0.7058
C8_2 C 0.5762(4) 0.1201(3) 0.7248(3)
C9_2 C 0.4430(4) 0.1204(3) 0.6708(3)
H5_2 H 0.4070 0.1150 0.6132
C10_2 C 0.3632(4) 0.1282(3) 0.6992(3)
C11_2 C 0.2240(4) 0.1335(3) 0.6334(3)
C12_2 C 0.4146(4) 0.1362(3) 0.7858(3)
C13_2 C 0.5481(4) 0.1346(3) 0.8403(3)
H6_2 H 0.5838 0.1390 0.8979
C14_2 C 0.6283(4) 0.1267(3) 0.8122(3)
C15_2 C 0.7684(4) 0.1223(3) 0.8786(3)
C16_2 C 0.3346(4) 0.1426(3) 0.8238(3)
C17_2 C 0.2299(5) 0.0914(3) 0.7922(3)
H7_2 H 0.2037 0.0550 0.7457
C18_2 C 0.1618(5) 0.0937(3) 0.8295(3)
H8_2 H 0.0909 0.0573 0.8087
C19_2 C 0.1975(4) 0.1494(3) 0.8977(3)
C20_2 C 0.3028(5) 0.2043(3) 0.9276(3)
H9_2 H 0.3260 0.2441 0.9714
C21_2 C 0.3731(5) 0.1990(3) 0.8912(3)
H10_2 H 0.4457 0.2334 0.9123
C22_2 C 0.1226(4) 0.1479(3) 0.9379(3)
C23_2 C 0.9684(7) 0.3811(4) 0.7479(4)
H11_2 H 0.9314 0.3311 0.7596
H12_2 H 0.9437 0.4362 0.7621
C27_2 C 0.7952(6) 0.3795(4) 0.5891(4)
H17_2 H 0.7759 0.4328 0.5561
H18_2 H 0.7422 0.3763 0.6107
H19_2 H 0.7803 0.3282 0.5544
N1_2 N 0.9282(4) 0.3812(3) 0.6592(3)
O1_2 O 0.8985(3) 0.0376(2) 0.5565(2)
O2_2 O 0.9019(3) 0.1861(2) 0.5637(2)
O5_2 O 0.8179(3) 0.0462(2) 0.8970(2)
O10_2 O 0.9489(3) 0.12674(18) 0.42396(19)
H20_2 H 0.8595 0.1264 0.3797
H21_2 H 0.9967 0.1308 0.3979
C51_2 C 0.8929(8) 0.6270(5) 0.2044(5)
H34_2 H 0.8665 0.6851 0.1774
H35_2 H 0.8535 0.5812 0.1613
C52_2 C 0.8550(6) 0.6161(4) 0.2664(3)
H36_2 H 0.8111 0.5599 0.2575
H37_2 H 0.8001 0.6646 0.2612
C53_2 C 0.9757(5) 0.6178(3) 0.3504(3)
loop_
_geom_bond_atom_site_label_1
_geom_bond_atom_site_label_2
_geom_bond_site_symmetry_1
_geom_bond_site_symmetry_2
H20 O10 1_555 1_555
H21 O10 1_555 1_555
O23 Mn17 1_555 1_555
Mn17 O10 1_555 1_555
C1 C2 1_555 1_555
C2 C3 1_555 1_555
C3 H1 1_555 1_555
C4 C3 1_555 1_555
H2 C4 1_555 1_555
C5 C4 1_555 1_555
C6 C5 1_555 1_555
H3 C6 1_555 1_555
C7 C2 1_555 1_555
H4 C7 1_555 1_555
C8 C5 1_555 1_555
C9 C8 1_555 1_555
H5 C9 1_555 1_555
C10 C9 1_555 1_555
C11 C10 1_555 1_555
C12 C10 1_555 1_555
C13 C12 1_555 1_555
H6 C13 1_555 1_555
C14 C8 1_555 1_555
C15 C14 1_555 1_555
C16 C12 1_555 1_555
C17 C16 1_555 1_555
H7 C17 1_555 1_555
C18 C17 1_555 1_555
H8 C18 1_555 1_555
C19 C18 1_555 1_555
C20 C19 1_555 1_555
H9 C20 1_555 1_555
C21 C16 1_555 1_555
H10 C21 1_555 1_555
C22 C19 1_555 1_555
C23 H11 1_555 1_555
H12 C23 1_555 1_555
C27 H17 1_555 1_555
H18 C27 1_555 1_555
H19 C27 1_555 1_555
Mn5 O2 1_555 1_555
Mn12 O5 1_555 1_555
Mn17_2 O1 1_555 1_555
N1 C23 1_555 1_555
O1 C1 1_555 1_555
O2 C1 1_555 1_555
O3 C11 1_555 1_555
O4 C11 1_555 1_555
O5 C15 1_555 1_555
O6 C15 1_555 1_555
O7 C22 1_555 1_555
O8 C22 1_555 1_555
H34 C51 1_555 1_555
H35 C51 1_555 1_555
C52 C51 1_555 1_555
H36 C52 1_555 1_555
H37 C52 1_555 1_555
C53 C52 1_555 1_555
O19 C53 1_555 1_555
Mn10 O6 1_555 1_555
Mn12_2 O7 1_555 1_555
Mn14 O19 1_555 1_555
Mn17_4 O3 1_555 1_555
O29 Mn12 1_555 1_555
O32 Mn12 1_555 1_555
C6 C7 1_555 1_555
C13 C14 1_555 1_555
C20 C21 1_555 1_555
C27 N1 1_555 1_555
O21 Mn17_3 1_555 1_555
H13 C24 1_555 1_555
H14 C24 1_555 1_555
C25 C24 1_555 1_555
H15 C25 1_555 1_555
H16 C25 1_555 1_555
C26 C25 1_555 1_555
O9 C26 1_555 1_555
C28 C29 1_555 1_555
C29 C30 1_555 1_555
C30 H22 1_555 1_555
C31 C30 1_555 1_555
H23 C31 1_555 1_555
C32 C31 1_555 1_555
C33 C32 1_555 1_555
H24 C33 1_555 1_555
C34 C29 1_555 1_555
H25 C34 1_555 1_555
C35 C32 1_555 1_555
C36 C35 1_555 1_555
H26 C36 1_555 1_555
C37 C36 1_555 1_555
C38 C37 1_555 1_555
C39 C37 1_555 1_555
C40 C39 1_555 1_555
H27 C40 1_555 1_555
C41 C35 1_555 1_555
C42 C41 1_555 1_555
C43 C39 1_555 1_555
C44 C43 1_555 1_555
H28 C44 1_555 1_555
C45 C44 1_555 1_555
H29 C45 1_555 1_555
C46 C45 1_555 1_555
C47 C46 1_555 1_555
H30 C47 1_555 1_555
C48 C43 1_555 1_555
H31 C48 1_555 1_555
C49 C46 1_555 1_555
C50 H32 1_555 1_555
H33 C50 1_555 1_555
C54 H38 1_555 1_555
H39 C54 1_555 1_555
H40 C54 1_555 1_555
Mn4 O12 1_555 1_555
N2 C50 1_555 1_555
O21 C28 1_555 1_555
O12 C28 1_555 1_555
O23 C38 1_555 1_555
O25 C38 1_555 1_555
O15 Mn12_2 1_555 1_555
O16 C42 1_555 1_555
O29 C49 1_555 1_555
O18 C49 1_555 1_555
Mn7 O16 1_555 1_555
Mn14_8 O9 1_555 1_555
O33 Mn12_2 1_555 1_555
O34 Mn17_4 1_555 1_555
C33 C34 1_555 1_555
C40 C41 1_555 1_555
C42 O15 1_555 1_555
C47 C48 1_555 1_555
C54 N2 1_555 1_555
H41 O34 1_555 1_555
H42 O34 1_555 1_555
H13_2 C24_2 1_555 1_555
H14_2 C24_2 1_555 1_555
C25_2 C24_2 1_555 1_555
H15_2 C25_2 1_555 1_555
H16_2 C25_2 1_555 1_555
C26_2 C25_2 1_555 1_555
O32 C26_2 1_555 1_555
O22 Mn15 1_555 1_555
O28 Mn14_2 1_555 1_555
C28_2 C29_2 1_555 1_555
C29_2 C30_2 1_555 1_555
C30_2 H22_2 1_555 1_555
C31_2 C30_2 1_555 1_555
H23_2 C31_2 1_555 1_555
C32_2 C31_2 1_555 1_555
C33_2 C32_2 1_555 1_555
H24_2 C33_2 1_555 1_555
C34_2 C29_2 1_555 1_555
H25_2 C34_2 1_555 1_555
C35_2 C32_2 1_555 1_555
C36_2 C35_2 1_555 1_555
H26_2 C36_2 1_555 1_555
C37_2 C36_2 1_555 1_555
C38_2 C37_2 1_555 1_555
C39_2 C37_2 1_555 1_555
C40_2 C39_2 1_555 1_555
H27_2 C40_2 1_555 1_555
C41_2 C35_2 1_555 1_555
C42_2 C41_2 1_555 1_555
C43_2 C39_2 1_555 1_555
C44_2 C43_2 1_555 1_555
H28_2 C44_2 1_555 1_555
C45_2 C44_2 1_555 1_555
H29_2 C45_2 1_555 1_555
C46_2 C45_2 1_555 1_555
C47_2 C46_2 1_555 1_555
H30_2 C47_2 1_555 1_555
C48_2 C43_2 1_555 1_555
H31_2 C48_2 1_555 1_555
C49_2 C46_2 1_555 1_555
C50_2 H32_2 1_555 1_555
H33_2 C50_2 1_555 1_555
C54_2 H38_2 1_555 1_555
H39_2 C54_2 1_555 1_555
H40_2 C54_2 1_555 1_555
Mn10 O12_2 1_555 1_555
N2_2 C50_2 1_555 1_555
O11 C28_2 1_555 1_555
O12_2 C28_2 1_555 1_555
O13 C38_2 1_555 1_555
O14 C38_2 1_555 1_555
O15_2 Mn14_3 1_555 1_555
O27 C42_2 1_555 1_555
O17 C49_2 1_555 1_555
O31 C49_2 1_555 1_555
O20 Mn10 1_555 1_555
H41_2 O20 1_555 1_555
H42_2 O20 1_555 1_555
Mn14_7 O17 1_555 1_555
Mn15_4 O13 1_555 1_555
Mn15_2 O11 1_555 1_555
C33_2 C34_2 1_555 1_555
C40_2 C41_2 1_555 1_555
C42_2 O15_2 1_555 1_555
C47_2 C48_2 1_555 1_555
C54_2 N2_2 1_555 1_555
O20 Mn15_2 1_555 1_555
C1_2 C2_2 1_555 1_555
C2_2 C3_2 1_555 1_555
C3_2 H1_2 1_555 1_555
C4_2 C3_2 1_555 1_555
H2_2 C4_2 1_555 1_555
C5_2 C4_2 1_555 1_555
C6_2 C5_2 1_555 1_555
H3_2 C6_2 1_555 1_555
C7_2 C2_2 1_555 1_555
H4_2 C7_2 1_555 1_555
C8_2 C5_2 1_555 1_555
C9_2 C8_2 1_555 1_555
H5_2 C9_2 1_555 1_555
C10_2 C9_2 1_555 1_555
C11_2 C10_2 1_555 1_555
C12_2 C10_2 1_555 1_555
C13_2 C12_2 1_555 1_555
H6_2 C13_2 1_555 1_555
C14_2 C8_2 1_555 1_555
C15_2 C14_2 1_555 1_555
C16_2 C12_2 1_555 1_555
C17_2 C16_2 1_555 1_555
H7_2 C17_2 1_555 1_555
C18_2 C17_2 1_555 1_555
H8_2 C18_2 1_555 1_555
C19_2 C18_2 1_555 1_555
C20_2 C19_2 1_555 1_555
H9_2 C20_2 1_555 1_555
C21_2 C16_2 1_555 1_555
H10_2 C21_2 1_555 1_555
C22_2 C19_2 1_555 1_555
C23_2 H11_2 1_555 1_555
H12_2 C23_2 1_555 1_555
C27_2 H17_2 1_555 1_555
H18_2 C27_2 1_555 1_555
H19_2 C27_2 1_555 1_555
Mn7 O2_2 1_555 1_555
Mn14_6 O5_2 1_555 1_555
Mn15_3 O1_2 1_555 1_555
N1_2 C23_2 1_555 1_555
O1_2 C1_2 1_555 1_555
O2_2 C1_2 1_555 1_555
O22 C11_2 1_555 1_555
O24 C11_2 1_555 1_555
O5_2 C15_2 1_555 1_555
O26 C15_2 1_555 1_555
O28 C22_2 1_555 1_555
O30 C22_2 1_555 1_555
O10_2 Mn7 1_555 1_555
H20_2 O10_2 1_555 1_555
H21_2 O10_2 1_555 1_555
C6_2 C7_2 1_555 1_555
C13_2 C14_2 1_555 1_555
C20_2 C21_2 1_555 1_555
C27_2 N1_2 1_555 1_555
Mn15_3 O10_2 1_555 1_555
H34_2 C51_2 1_555 1_555
H35_2 C51_2 1_555 1_555
C52_2 C51_2 1_555 1_555
H36_2 C52_2 1_555 1_555
H37_2 C52_2 1_555 1_555
C53_2 C52_2 1_555 1_555
O33 C53_2 1_555 1_555

#END
