
###############################################################################
#
# This file contains modified crystal structure data generated from the
# MOF subset of the Cambridge Structural Database (CSD) v543 
# hosted by the Cambridge Crystallographic Data Centre (CCDC).
#
# This work is licensed under the Creative Commons
# Attribution-NonCommercial-ShareAlike 4.0 International License.
# To view a copy of this license, visit
# http://creativecommons.org/licenses/by-nc-sa/4.0/
# or send a letter to
# Creative Commons, PO Box 1866, Mountain View, CA 94042, USA.
#
# CIF created using the CSD Python API on 29 September 2022
# The structure has been converted into the P1 space group
# The structure has a 3D framework
# The original CSD entry XIHXAP is in the monoclinic crystal system
# The framework has been calculated to contain at least 10.0% void space
# The void calculation uses a probe of radius 1.32A, grid spacing 0.4
#
###############################################################################

data_XIHXAP
_chemical_formula_moiety         '(C104 H82 Mn11 N4 O37)n'
_symmetry_cell_setting           triclinic
_symmetry_space_group_name_H-M   'P 1'
_symmetry_Int_Tables_number      1
_space_group_name_Hall           'P 1'
loop_
_symmetry_equiv_pos_site_id
_symmetry_equiv_pos_as_xyz
1 x,y,z
_cell_length_a                   12.646(3)
_cell_length_b                   14.834(4)
_cell_length_c                   18.979(3)
_cell_angle_alpha                90
_cell_angle_beta                 123.145(11)
_cell_angle_gamma                90
_cell_volume                     2980.99
loop_
_atom_site_label
_atom_site_type_symbol
_atom_site_fract_x
_atom_site_fract_y
_atom_site_fract_z
Mn2 Mn 0.0000 -0.0000 -0.0000
Mn7 Mn 0.00719(7) 0.25129(4) 0.48470(5)
Mn16 Mn 0.0000 0.0000 0.5000
O28 O 0.1822(3) 0.0468(2) 0.1013(2)
Mn2_2 Mn 0.0000 -0.0000 1.0000
Mn8 Mn 0.00719(7) 0.24871(4) 0.98470(5)
H14 H 0.0323 0.9339 0.2982
H15 H 0.0369 0.8283 0.2976
C26 C 0.1722(7) 0.8858(5) 0.2356(5)
H17 H 0.1961 0.8311 0.2208
H18 H 0.2180 0.8908 0.2958
H19 H 0.1915 0.9364 0.2131
Mn2_3 Mn 0.0000 1.0000 -0.0000
Mn3 Mn 0.0000 0.5000 -0.0000
N1 N 0.0049(15) 0.8838(4) 0.1928(8)
O9 O 0.0075(4) 0.8822(2) 0.0795(2)
Mn16_2 Mn 0.0000 1.0000 0.5000
O25 O 0.1690(4) 0.7081(3) 0.1234(2)
O27 O 0.1714(3) 0.5645(3) 0.0901(3)
O34 O 0.0549(4) 0.3732(2) 0.0759(2)
Mn2_4 Mn 0.0000 1.0000 1.0000
Mn3_2 Mn 0.0000 0.5000 1.0000
O21 O 0.0981(4) 0.7757(3) 0.9588(3)
O23 O 0.0850(4) 0.9247(3) 0.9455(3)
O29 O 0.1007(4) 0.4649(3) 0.9407(3)
Mn2_5 Mn 1.0000 -0.0000 -0.0000
C27 C 0.8844(5) 0.1501(4) 0.0644(3)
C28 C 0.8125(5) 0.1537(3) 0.1074(3)
C29 C 0.8422(5) 0.0939(4) 0.1722(3)
H22 H 0.9100 0.0547 0.1913
C30 C 0.7742(5) 0.0913(4) 0.2088(3)
H23 H 0.7986 0.0529 0.2539
C31 C 0.6679(5) 0.1466(3) 0.1784(3)
C32 C 0.6366(5) 0.2079(4) 0.1148(4)
H24 H 0.5674 0.2459 0.0951
C33 C 0.7106(5) 0.2120(4) 0.0803(3)
H25 H 0.6913 0.2542 0.0387
C34 C 0.5859(5) 0.1387(3) 0.2140(3)
C35 C 0.6368(5) 0.1293(3) 0.3005(3)
C36 C 0.7767(5) 0.1337(3) 0.3674(3)
C37 C 0.5578(5) 0.1183(3) 0.3280(3)
H26 H 0.5929 0.1111 0.3854
C38 C 0.4254(5) 0.1176(3) 0.2729(3)
C39 C 0.3744(5) 0.1266(3) 0.1861(3)
C40 C 0.2335(5) 0.1227(3) 0.1196(3)
C41 C 0.4572(5) 0.1358(3) 0.1599(3)
H27 H 0.4234 0.1401 0.1025
C42 C 0.3436(5) 0.1124(3) 0.3090(3)
C43 C 0.3775(5) 0.0536(4) 0.3764(3)
H28 H 0.4481 0.0169 0.3972
C44 C 0.3085(5) 0.0498(4) 0.4117(3)
H29 H 0.3320 0.0105 0.4562
C45 C 0.2016(5) 0.1051(3) 0.3810(3)
C46 C 0.1704(5) 0.1644(4) 0.3149(3)
H30 H 0.1028 0.2038 0.2954
C47 C 0.2391(5) 0.1645(4) 0.2790(3)
H31 H 0.2135 0.2013 0.2326
C48 C 0.1256(5) 0.1078(4) 0.4218(3)
O11 O 0.9019(4) 0.2243(3) 0.0412(3)
O12 O 0.9150(4) 0.0753(3) 0.0545(3)
O13 O 0.8310(4) 0.2081(3) 0.3766(2)
O14 O 0.8286(3) 0.0645(3) 0.4099(3)
O15 O 0.1823(3) 0.1959(2) 0.0861(2)
O17 O 0.1007(4) 0.0351(3) 0.4407(3)
O18 O 0.0983(4) 0.1852(3) 0.4333(3)
H41 H 0.1445 0.3741 0.1192
H42 H 0.0088 0.3682 0.1031
Mn16_3 Mn 1.0000 0.0000 0.5000
Mn2_6 Mn 1.0000 -0.0000 1.0000
C49 C 0.1836(6) 0.1193(4) 0.9109(5)
H32 H 0.1994 0.1189 0.8669
H33 H 0.2186 0.1730 0.9440
H34 H 0.2224 0.0674 0.9462
C50 C 0.0154(14) 0.1163(4) 0.8653(7)
C51 C 0.0057(10) 0.1192(4) 0.7354(5)
H37 H 0.0932 0.1216 0.7543
O31 O 0.0983(4) 0.3148(3) 0.9333(3)
O33 O 0.9925(4) 0.1178(2) 0.9205(2)
C23 C 0.8164(6) 0.8807(4) 0.0891(5)
H11 H 0.8006 0.8811 0.1331
H12 H 0.7814 0.8270 0.0560
H13 H 0.7776 0.9326 0.0538
C24 C 0.9846(14) 0.8837(4) 0.1347(7)
C25 C 0.9943(10) 0.8808(4) 0.2646(5)
H16 H 0.9068 0.8784 0.2457
Mn1 Mn 0.99281(7) 0.75129(4) 0.01530(5)
Mn2_7 Mn 1.0000 1.0000 -0.0000
Mn3_3 Mn 1.0000 0.5000 -0.0000
Mn16_4 Mn 1.0000 1.0000 0.5000
O30 O 0.8993(4) 0.5351(3) 0.0593(3)
O32 O 0.9017(4) 0.6852(3) 0.0667(3)
C1 C 0.1156(5) 0.8499(4) 0.9356(3)
C2 C 0.1875(5) 0.8463(3) 0.8926(3)
C3 C 0.1578(5) 0.9061(4) 0.8278(3)
H1 H 0.0900 0.9453 0.8087
C4 C 0.2258(5) 0.9087(4) 0.7912(3)
H2 H 0.2014 0.9471 0.7461
C5 C 0.3321(5) 0.8534(3) 0.8216(3)
C6 C 0.3634(5) 0.7921(4) 0.8852(4)
H3 H 0.4326 0.7541 0.9049
C7 C 0.2894(5) 0.7880(4) 0.9197(3)
H4 H 0.3087 0.7458 0.9613
C8 C 0.4141(5) 0.8613(3) 0.7860(3)
C9 C 0.3632(5) 0.8707(3) 0.6995(3)
C10 C 0.2233(5) 0.8663(3) 0.6326(3)
C11 C 0.4422(5) 0.8817(3) 0.6720(3)
H5 H 0.4071 0.8889 0.6146
C12 C 0.5746(5) 0.8824(3) 0.7271(3)
C13 C 0.6256(5) 0.8734(3) 0.8139(3)
C14 C 0.7665(5) 0.8773(3) 0.8804(3)
C15 C 0.5428(5) 0.8642(3) 0.8401(3)
H6 H 0.5766 0.8599 0.8975
C16 C 0.6564(5) 0.8876(3) 0.6910(3)
C17 C 0.6225(5) 0.9464(4) 0.6236(3)
H7 H 0.5519 0.9831 0.6028
C18 C 0.6915(5) 0.9502(4) 0.5883(3)
H8 H 0.6680 0.9895 0.5438
C19 C 0.7984(5) 0.8949(3) 0.6190(3)
C20 C 0.8296(5) 0.8356(4) 0.6851(3)
H9 H 0.8972 0.7962 0.7046
C21 C 0.7609(5) 0.8355(4) 0.7210(3)
H10 H 0.7865 0.7987 0.7674
C22 C 0.8744(5) 0.8922(4) 0.5782(3)
Mn2_8 Mn 1.0000 1.0000 1.0000
Mn3_4 Mn 1.0000 0.5000 1.0000
O3 O 0.1690(4) 0.7919(3) 0.6234(2)
O4 O 0.1714(3) 0.9355(3) 0.5901(3)
O5 O 0.8177(3) 0.8041(2) 0.9139(2)
O6 O 0.8178(3) 0.9532(2) 0.8987(2)
O7 O 0.8993(4) 0.9649(3) 0.5593(3)
O8 O 0.9017(4) 0.8148(3) 0.5667(3)
O10 O 0.9451(4) 0.6268(2) 0.9241(2)
H20 H 0.8555 0.6259 0.8808
H21 H 0.9912 0.6318 0.8969
Mn10 Mn 0.99281(7) 0.74871(4) 0.51530(5)
O26 O 0.8286(3) 0.4355(3) 0.9099(3)
H35 H 0.9677 0.0661 0.7018
H36 H 0.9631 0.1717 0.7024
C52 C 0.8278(7) 0.1142(5) 0.7644(5)
H38 H 0.8039 0.1689 0.7792
H39 H 0.7820 0.1092 0.7042
H40 H 0.8085 0.0636 0.7869
N2 N 0.9951(15) 0.1162(4) 0.8072(8)
O24 O 0.8310(4) 0.2919(3) 0.8766(2)
H35_2 H 0.0323 0.5661 0.7982
H36_2 H 0.0369 0.6717 0.7976
C52_2 C 0.1722(7) 0.6142(5) 0.7356(5)
H38_2 H 0.1961 0.6689 0.7208
H39_2 H 0.2180 0.6092 0.7958
H40_2 H 0.1915 0.5636 0.7131
N2_2 N 0.0049(15) 0.6162(4) 0.6928(8)
O19 O 0.0075(4) 0.6178(2) 0.5795(2)
Mn11 Mn 0.0000 0.5000 0.5000
O22 O 0.0981(4) 0.7243(3) 0.4588(3)
C1_2 C 0.8844(5) 0.3499(4) 0.5644(3)
C2_2 C 0.8125(5) 0.3463(3) 0.6074(3)
C3_2 C 0.8422(5) 0.4061(4) 0.6722(3)
H1_2 H 0.9100 0.4453 0.6913
C4_2 C 0.7742(5) 0.4087(4) 0.7088(3)
H2_2 H 0.7986 0.4471 0.7539
C5_2 C 0.6679(5) 0.3534(3) 0.6784(3)
C6_2 C 0.6366(5) 0.2921(4) 0.6148(4)
H3_2 H 0.5674 0.2541 0.5951
C7_2 C 0.7106(5) 0.2880(4) 0.5803(3)
H4_2 H 0.6913 0.2458 0.5387
C8_2 C 0.5859(5) 0.3613(3) 0.7140(3)
C9_2 C 0.6368(5) 0.3707(3) 0.8005(3)
C10_2 C 0.7767(5) 0.3663(3) 0.8674(3)
C11_2 C 0.5578(5) 0.3817(3) 0.8280(3)
H5_2 H 0.5929 0.3889 0.8854
C12_2 C 0.4254(5) 0.3824(3) 0.7729(3)
C13_2 C 0.3744(5) 0.3734(3) 0.6861(3)
C14_2 C 0.2335(5) 0.3773(3) 0.6196(3)
C15_2 C 0.4572(5) 0.3642(3) 0.6599(3)
H6_2 H 0.4234 0.3599 0.6025
C16_2 C 0.3436(5) 0.3876(3) 0.8090(3)
C17_2 C 0.3775(5) 0.4464(4) 0.8764(3)
H7_2 H 0.4481 0.4831 0.8972
C18_2 C 0.3085(5) 0.4502(4) 0.9117(3)
H8_2 H 0.3320 0.4895 0.9562
C19_2 C 0.2016(5) 0.3949(3) 0.8810(3)
C20_2 C 0.1704(5) 0.3356(4) 0.8149(3)
H9_2 H 0.1028 0.2962 0.7954
C21_2 C 0.2391(5) 0.3355(4) 0.7790(3)
H10_2 H 0.2135 0.2987 0.7326
C22_2 C 0.1256(5) 0.3922(4) 0.9218(3)
C23_2 C 0.1836(6) 0.3807(4) 0.4109(5)
H11_2 H 0.1994 0.3811 0.3669
H12_2 H 0.2186 0.3270 0.4440
H13_2 H 0.2224 0.4326 0.4462
C24_2 C 0.0154(14) 0.3837(4) 0.3653(7)
C25_2 C 0.0057(10) 0.3808(4) 0.2354(5)
H16_2 H 0.0932 0.3784 0.2543
O1 O 0.9019(4) 0.2757(3) 0.5412(3)
O2 O 0.9150(4) 0.4247(3) 0.5545(3)
O5_2 O 0.1823(3) 0.3041(2) 0.5861(2)
O6_2 O 0.1822(3) 0.4532(2) 0.6013(2)
O10_2 O 0.0549(4) 0.1268(2) 0.5759(2)
H20_2 H 0.1445 0.1259 0.6192
H21_2 H 0.0088 0.1318 0.6031
C27_2 C 0.1156(5) 0.6501(4) 0.4356(3)
C28_2 C 0.1875(5) 0.6537(3) 0.3926(3)
C29_2 C 0.1578(5) 0.5939(4) 0.3278(3)
H22_2 H 0.0900 0.5547 0.3087
C30_2 C 0.2258(5) 0.5913(4) 0.2912(3)
H23_2 H 0.2014 0.5529 0.2461
C31_2 C 0.3321(5) 0.6466(3) 0.3216(3)
C32_2 C 0.3634(5) 0.7079(4) 0.3852(4)
H24_2 H 0.4326 0.7459 0.4049
C33_2 C 0.2894(5) 0.7120(4) 0.4197(3)
H25_2 H 0.3087 0.7542 0.4613
C34_2 C 0.4141(5) 0.6387(3) 0.2860(3)
C35_2 C 0.3632(5) 0.6293(3) 0.1995(3)
C36_2 C 0.2233(5) 0.6337(3) 0.1326(3)
C37_2 C 0.4422(5) 0.6183(3) 0.1720(3)
H26_2 H 0.4071 0.6111 0.1146
C38_2 C 0.5746(5) 0.6176(3) 0.2271(3)
C39_2 C 0.6256(5) 0.6266(3) 0.3139(3)
C40_2 C 0.7665(5) 0.6227(3) 0.3804(3)
C41_2 C 0.5428(5) 0.6358(3) 0.3401(3)
H27_2 H 0.5766 0.6401 0.3975
C42_2 C 0.6564(5) 0.6124(3) 0.1910(3)
C43_2 C 0.6225(5) 0.5536(4) 0.1236(3)
H28_2 H 0.5519 0.5169 0.1028
C44_2 C 0.6915(5) 0.5498(4) 0.0883(3)
H29_2 H 0.6680 0.5105 0.0438
C45_2 C 0.7984(5) 0.6051(3) 0.1190(3)
C46_2 C 0.8296(5) 0.6644(4) 0.1851(3)
H30_2 H 0.8972 0.7038 0.2046
C47_2 C 0.7609(5) 0.6645(4) 0.2210(3)
H31_2 H 0.7865 0.7013 0.2674
C48_2 C 0.8744(5) 0.6078(4) 0.0782(3)
C49_2 C 0.8164(6) 0.6193(4) 0.5891(5)
H32_2 H 0.8006 0.6189 0.6331
H33_2 H 0.7814 0.6730 0.5560
H34_2 H 0.7776 0.5674 0.5538
C50_2 C 0.9846(14) 0.6163(4) 0.6347(7)
C51_2 C 0.9943(10) 0.6192(4) 0.7646(5)
H37_2 H 0.9068 0.6216 0.7457
O12_2 O 0.0850(4) 0.5753(3) 0.4455(3)
O15_2 O 0.8177(3) 0.6959(2) 0.4139(2)
O16 O 0.8178(3) 0.5468(2) 0.3987(2)
O20 O 0.9451(4) 0.8732(2) 0.4241(2)
H41_2 H 0.8555 0.8741 0.3808
H42_2 H 0.9912 0.8682 0.3969
Mn11_2 Mn 1.0000 0.5000 0.5000
H14_2 H 0.9677 0.4339 0.2018
H15_2 H 0.9631 0.3283 0.2024
C26_2 C 0.8278(7) 0.3858(5) 0.2644(5)
H17_2 H 0.8039 0.3311 0.2792
H18_2 H 0.7820 0.3908 0.2042
H19_2 H 0.8085 0.4364 0.2869
N1_2 N 0.9951(15) 0.3838(4) 0.3072(8)
O9_2 O 0.9925(4) 0.3822(2) 0.4205(2)
loop_
_geom_bond_atom_site_label_1
_geom_bond_atom_site_label_2
_geom_bond_site_symmetry_1
_geom_bond_site_symmetry_2
O28 Mn2 1_555 1_555
C26 H17 1_555 1_555
H18 C26 1_555 1_555
H19 C26 1_555 1_555
O27 Mn3 1_555 1_555
O34 Mn3 1_555 1_555
C26 N1 1_555 1_555
Mn2_3 O9 1_555 1_555
O23 Mn2_4 1_555 1_555
O29 Mn3_2 1_555 1_555
C27 C28 1_555 1_555
C28 C29 1_555 1_555
C29 H22 1_555 1_555
C30 C29 1_555 1_555
H23 C30 1_555 1_555
C31 C30 1_555 1_555
C32 C31 1_555 1_555
H24 C32 1_555 1_555
C33 C28 1_555 1_555
H25 C33 1_555 1_555
C34 C31 1_555 1_555
C35 C34 1_555 1_555
C36 C35 1_555 1_555
C37 C35 1_555 1_555
H26 C37 1_555 1_555
C38 C37 1_555 1_555
C39 C38 1_555 1_555
C40 C39 1_555 1_555
C41 C34 1_555 1_555
H27 C41 1_555 1_555
C42 C38 1_555 1_555
C43 C42 1_555 1_555
H28 C43 1_555 1_555
C44 C43 1_555 1_555
H29 C44 1_555 1_555
C45 C44 1_555 1_555
C46 C45 1_555 1_555
H30 C46 1_555 1_555
C47 C42 1_555 1_555
H31 C47 1_555 1_555
C48 C45 1_555 1_555
O11 C27 1_555 1_555
O12 Mn2_5 1_555 1_555
O13 C36 1_555 1_555
O14 C36 1_555 1_555
O15 C40 1_555 1_555
O28 C40 1_555 1_555
O17 C48 1_555 1_555
O18 C48 1_555 1_555
H41 O34 1_555 1_555
H42 O34 1_555 1_555
Mn7 O18 1_555 1_555
Mn16 O17 1_555 1_555
Mn16_3 O14 1_555 1_555
C27 O12 1_555 1_555
C32 C33 1_555 1_555
C39 C41 1_555 1_555
C46 C47 1_555 1_555
C49 H32 1_555 1_555
H33 C49 1_555 1_555
H34 C49 1_555 1_555
C50 C49 1_555 1_555
H37 C51 1_555 1_555
O31 Mn8 1_555 1_555
O33 Mn2_6 1_555 1_555
C23 H11 1_555 1_555
H12 C23 1_555 1_555
H13 C23 1_555 1_555
C24 C23 1_555 1_555
H16 C25 1_555 1_555
O30 Mn3_3 1_555 1_555
O32 Mn1 1_555 1_555
C1 C2 1_555 1_555
C2 C3 1_555 1_555
C3 H1 1_555 1_555
C4 C3 1_555 1_555
H2 C4 1_555 1_555
C5 C4 1_555 1_555
C6 C5 1_555 1_555
H3 C6 1_555 1_555
C7 C2 1_555 1_555
H4 C7 1_555 1_555
C8 C5 1_555 1_555
C9 C8 1_555 1_555
C10 C9 1_555 1_555
C11 C9 1_555 1_555
H5 C11 1_555 1_555
C12 C11 1_555 1_555
C13 C12 1_555 1_555
C14 C13 1_555 1_555
C15 C8 1_555 1_555
H6 C15 1_555 1_555
C16 C12 1_555 1_555
C17 C16 1_555 1_555
H7 C17 1_555 1_555
C18 C17 1_555 1_555
H8 C18 1_555 1_555
C19 C18 1_555 1_555
C20 C19 1_555 1_555
H9 C20 1_555 1_555
C21 C16 1_555 1_555
H10 C21 1_555 1_555
C22 C19 1_555 1_555
Mn2_8 O6 1_555 1_555
Mn3_4 O10 1_555 1_555
O21 C1 1_555 1_555
O23 C1 1_555 1_555
O3 C10 1_555 1_555
O4 C10 1_555 1_555
O5 C14 1_555 1_555
O6 C14 1_555 1_555
O7 C22 1_555 1_555
O8 C22 1_555 1_555
H20 O10 1_555 1_555
H21 O10 1_555 1_555
Mn10 O8 1_555 1_555
Mn16_2 O4 1_555 1_555
Mn16_4 O7 1_555 1_555
O26 Mn3_4 1_555 1_555
C6 C7 1_555 1_555
C13 C15 1_555 1_555
C20 C21 1_555 1_555
C52 H38 1_555 1_555
H39 C52 1_555 1_555
H40 C52 1_555 1_555
C52 N2 1_555 1_555
C52_2 H38_2 1_555 1_555
H39_2 C52_2 1_555 1_555
H40_2 C52_2 1_555 1_555
C52_2 N2_2 1_555 1_555
O19 Mn11 1_555 1_555
C1_2 C2_2 1_555 1_555
C2_2 C3_2 1_555 1_555
C3_2 H1_2 1_555 1_555
C4_2 C3_2 1_555 1_555
H2_2 C4_2 1_555 1_555
C5_2 C4_2 1_555 1_555
C6_2 C5_2 1_555 1_555
H3_2 C6_2 1_555 1_555
C7_2 C2_2 1_555 1_555
H4_2 C7_2 1_555 1_555
C8_2 C5_2 1_555 1_555
C9_2 C8_2 1_555 1_555
C10_2 C9_2 1_555 1_555
C11_2 C9_2 1_555 1_555
H5_2 C11_2 1_555 1_555
C12_2 C11_2 1_555 1_555
C13_2 C12_2 1_555 1_555
C14_2 C13_2 1_555 1_555
C15_2 C8_2 1_555 1_555
H6_2 C15_2 1_555 1_555
C16_2 C12_2 1_555 1_555
C17_2 C16_2 1_555 1_555
H7_2 C17_2 1_555 1_555
C18_2 C17_2 1_555 1_555
H8_2 C18_2 1_555 1_555
C19_2 C18_2 1_555 1_555
C20_2 C19_2 1_555 1_555
H9_2 C20_2 1_555 1_555
C21_2 C16_2 1_555 1_555
H10_2 C21_2 1_555 1_555
C22_2 C19_2 1_555 1_555
C23_2 H11_2 1_555 1_555
H12_2 C23_2 1_555 1_555
H13_2 C23_2 1_555 1_555
C24_2 C23_2 1_555 1_555
H16_2 C25_2 1_555 1_555
Mn7 O5_2 1_555 1_555
Mn11 O6_2 1_555 1_555
Mn16 O10_2 1_555 1_555
O1 C1_2 1_555 1_555
O2 C1_2 1_555 1_555
O24 C10_2 1_555 1_555
O26 C10_2 1_555 1_555
O5_2 C14_2 1_555 1_555
O6_2 C14_2 1_555 1_555
O29 C22_2 1_555 1_555
O31 C22_2 1_555 1_555
O10_2 Mn7 1_555 1_555
H20_2 O10_2 1_555 1_555
H21_2 O10_2 1_555 1_555
C27_2 C28_2 1_555 1_555
C28_2 C29_2 1_555 1_555
C29_2 H22_2 1_555 1_555
C30_2 C29_2 1_555 1_555
H23_2 C30_2 1_555 1_555
C31_2 C30_2 1_555 1_555
C32_2 C31_2 1_555 1_555
H24_2 C32_2 1_555 1_555
C33_2 C28_2 1_555 1_555
H25_2 C33_2 1_555 1_555
C34_2 C31_2 1_555 1_555
C35_2 C34_2 1_555 1_555
C36_2 C35_2 1_555 1_555
C37_2 C35_2 1_555 1_555
H26_2 C37_2 1_555 1_555
C38_2 C37_2 1_555 1_555
C39_2 C38_2 1_555 1_555
C40_2 C39_2 1_555 1_555
C41_2 C34_2 1_555 1_555
H27_2 C41_2 1_555 1_555
C42_2 C38_2 1_555 1_555
C43_2 C42_2 1_555 1_555
H28_2 C43_2 1_555 1_555
C44_2 C43_2 1_555 1_555
H29_2 C44_2 1_555 1_555
C45_2 C44_2 1_555 1_555
C46_2 C45_2 1_555 1_555
H30_2 C46_2 1_555 1_555
C47_2 C42_2 1_555 1_555
H31_2 C47_2 1_555 1_555
C48_2 C45_2 1_555 1_555
C49_2 H32_2 1_555 1_555
H33_2 C49_2 1_555 1_555
H34_2 C49_2 1_555 1_555
C50_2 C49_2 1_555 1_555
H37_2 C51_2 1_555 1_555
Mn10 O15_2 1_555 1_555
O22 C27_2 1_555 1_555
O12_2 Mn11 1_555 1_555
O25 C36_2 1_555 1_555
O27 C36_2 1_555 1_555
O15_2 C40_2 1_555 1_555
O16 C40_2 1_555 1_555
O30 C48_2 1_555 1_555
O32 C48_2 1_555 1_555
O20 Mn10 1_555 1_555
H41_2 O20 1_555 1_555
H42_2 O20 1_555 1_555
Mn11_2 O2 1_555 1_555
Mn16_4 O20 1_555 1_555
C6_2 C7_2 1_555 1_555
C13_2 C15_2 1_555 1_555
C20_2 C21_2 1_555 1_555
C27_2 O12_2 1_555 1_555
C32_2 C33_2 1_555 1_555
C39_2 C41_2 1_555 1_555
C46_2 C47_2 1_555 1_555
O16 Mn11_2 1_555 1_555
C26_2 H17_2 1_555 1_555
H18_2 C26_2 1_555 1_555
H19_2 C26_2 1_555 1_555
C26_2 N1_2 1_555 1_555
Mn11_2 O9_2 1_555 1_555

#END
