
###############################################################################
#
# This file contains modified crystal structure data generated from the
# MOF subset of the Cambridge Structural Database (CSD) v543 
# hosted by the Cambridge Crystallographic Data Centre (CCDC).
#
# This work is licensed under the Creative Commons
# Attribution-NonCommercial-ShareAlike 4.0 International License.
# To view a copy of this license, visit
# http://creativecommons.org/licenses/by-nc-sa/4.0/
# or send a letter to
# Creative Commons, PO Box 1866, Mountain View, CA 94042, USA.
#
# CIF created using the CSD Python API on 29 September 2022
# The structure has been converted into the P1 space group
# The structure has a 3D framework
# The original CSD entry XIJSUH is in the monoclinic crystal system
# The framework has been calculated to contain at least 10.0% void space
# The void calculation uses a probe of radius 1.32A, grid spacing 0.4
#
###############################################################################

data_XIJSUH
_chemical_formula_moiety         '(C192 H120 Cu24 N24 O111)n'
_symmetry_cell_setting           triclinic
_symmetry_space_group_name_H-M   'P 1'
_symmetry_Int_Tables_number      1
_space_group_name_Hall           'P 1'
loop_
_symmetry_equiv_pos_site_id
_symmetry_equiv_pos_as_xyz
1 x,y,z
_cell_length_a                   32.6528(14)
_cell_length_b                   18.8506(8)
_cell_length_c                   22.9282(11)
_cell_angle_alpha                90
_cell_angle_beta                 118.379(4)
_cell_angle_gamma                90
_cell_volume                     12416.8
loop_
_atom_site_label
_atom_site_type_symbol
_atom_site_fract_x
_atom_site_fract_y
_atom_site_fract_z
Cu1 Cu 0.23770(3) 0.01654(4) 0.18967(4)
Cu3 Cu 0.45929(3) 0.23138(7) 0.19523(4)
O1 O 0.30642(17) 0.0313(2) 0.2331(2)
O3 O 0.43849(18) 0.1584(3) 0.2361(2)
O4 O 0.50618(16) 0.1609(3) 0.3306(2)
O13 O 0.2219(2) 0.0637(3) 0.0950(2)
H1 H 0.2325 0.1057 0.1012
H2 H 0.2346 0.0391 0.0771
O15 O 0.3951(2) 0.2326(4) 0.1035(3)
H5 H 0.3970 0.2626 0.0772
H6 H 0.3905 0.1915 0.0863
C1 C 0.3305(3) 0.0067(4) 0.2951(3)
C2 C 0.4629(2) 0.1429(5) 0.2973(3)
C3 C 0.3807(3) 0.0261(4) 0.3242(4)
C4 C 0.3972(2) 0.0694(4) 0.2932(3)
H7 H 0.3770 0.0850 0.2505
C5 C 0.4448(3) 0.0922(5) 0.3243(3)
C6 C 0.4749(2) 0.0637(4) 0.3922(3)
H8 H 0.5067 0.0732 0.4142
C7 C 0.4547(3) 0.0228(5) 0.4221(3)
H15 H 0.0839 0.0008 0.0783
N4 N 0.51975(19) 0.0093(4) 0.5119(3)
O17 O 0.68357(17) 0.0275(2) 0.6751(2)
C32 C 0.5927(2) 0.0004(4) 0.6118(3)
H18 H 0.6050 0.0312 0.5924
Cu4 Cu 0.54071(3) 0.23138(7) 0.30477(4)
O28 O 0.6049(2) 0.2326(4) 0.3965(3)
H25 H 0.6030 0.2626 0.4228
H26 H 0.6095 0.1915 0.4137
Cu12 Cu 0.74794(3) 0.05118(4) 0.70078(4)
O33 O 0.56151(18) 0.1584(3) 0.2639(2)
O34 O 0.49382(16) 0.1609(3) 0.1694(2)
O37 O 0.23366(18) 0.1011(2) 0.2355(2)
O38 O 0.24307(16) 0.0436(2) 0.3260(2)
O41 O 0.55654(17) 0.3040(3) 0.2575(2)
O42 O 0.44346(17) 0.3040(3) 0.2425(2)
O43 O 0.48336(14) 0.2984(3) 0.1691(2)
O44 O 0.51664(14) 0.2984(3) 0.3309(2)
N6 N 0.0073(2) 0.0213(4) 0.9885(3)
H23 H 0.0201 0.0991 0.9097
O27 O 0.01664(14) 0.2016(3) 0.8309(2)
Cu13 Cu 0.25206(3) 0.05118(4) 0.79922(4)
Cu19 Cu 0.04071(3) 0.26862(7) 0.80477(4)
Cu2 Cu 0.25206(3) 0.94882(4) 0.29922(4)
N1 N 0.48025(19) 0.9907(4) 0.4881(3)
N2 N 0.2509(3) 0.7213(3) 0.0129(3)
O2 O 0.31643(17) 0.9725(2) 0.3249(2)
O5 O 0.24430(18) 0.9203(2) 0.1622(2)
O6 O 0.25773(16) 0.8613(2) 0.25583(19)
O7 O 0.26634(18) 0.6011(2) 0.2645(2)
O8 O 0.25693(16) 0.5436(2) 0.1740(2)
O9 O 0.17173(17) 0.9952(2) 0.1620(2)
O10 O 0.18451(17) 0.9356(2) 0.2529(2)
O11 O 0.05654(17) 0.8040(3) 0.2575(2)
O14 O 0.2648(2) 0.9015(3) 0.3912(2)
H3 H 0.2554 0.8588 0.3845
H4 H 0.2939 0.9025 0.4177
C8 C 0.4073(2) 0.9996(4) 0.3882(3)
H9 H 0.3950 0.9688 0.4076
C9 C 0.2542(2) 0.8649(3) 0.1980(3)
C10 C 0.2617(3) 0.6003(3) 0.2056(3)
C11 C 0.2540(3) 0.7948(3) 0.1683(3)
C12 C 0.2600(3) 0.7323(3) 0.2016(3)
H10 H 0.2635 0.7329 0.2443
C13 C 0.2610(3) 0.6661(3) 0.1720(3)
C14 C 0.2564(3) 0.6663(3) 0.1102(3)
H11 H 0.2562 0.6235 0.0899
C15 C 0.2517(3) 0.7302(3) 0.0764(3)
C16 C 0.2525(3) 0.7951(4) 0.1067(3)
H12 H 0.2520 0.8378 0.0859
C17 C 0.1584(2) 0.9580(3) 0.1979(3)
C18 C 0.0229(2) 0.8281(4) 0.2000(3)
C19 C 0.1115(3) 0.9441(4) 0.1684(3)
C20 C 0.0895(2) 0.8940(4) 0.1974(3)
H13 H 0.1086 0.8741 0.2387
C21 C 0.0437(3) 0.8764(4) 0.1669(3)
C22 C 0.0117(3) 0.9081(4) 0.1076(3)
C23 C 0.0296(2) 0.9517(4) 0.0750(3)
C24 C 0.0749(2) 0.9703(4) 0.1020(3)
O16 O 0.69358(17) 0.9687(2) 0.7669(2)
O18 O 0.56151(18) 0.8416(3) 0.7639(2)
O19 O 0.49382(16) 0.8391(3) 0.6694(2)
C25 C 0.6695(3) 0.9933(4) 0.7049(3)
C26 C 0.5371(2) 0.8571(5) 0.7027(3)
C27 C 0.6193(3) 0.9739(4) 0.6758(4)
C28 C 0.6028(2) 0.9306(4) 0.7068(3)
H16 H 0.6230 0.9150 0.7495
C29 C 0.5552(3) 0.9078(5) 0.6757(3)
C30 C 0.5251(2) 0.9363(4) 0.6078(3)
H17 H 0.4933 0.9268 0.5858
C31 C 0.5453(3) 0.9772(5) 0.5779(3)
Cu5 Cu 0.26230(3) 0.51654(4) 0.31033(4)
Cu6 Cu 0.24794(3) 0.44882(4) 0.20078(4)
O29 O 0.2781(2) 0.5637(3) 0.4050(2)
H27 H 0.2675 0.6057 0.3988
H28 H 0.2654 0.5391 0.4229
O30 O 0.2352(2) 0.4015(3) 0.1088(2)
H29 H 0.2446 0.3588 0.1155
H30 H 0.2061 0.4025 0.0823
Cu8 Cu 0.76230(3) 0.98346(4) 0.81033(4)
Cu16 Cu 0.04071(3) 0.73138(7) 0.30477(4)
Cu17 Cu 0.54071(3) 0.76862(7) 0.80477(4)
Cu18 Cu 0.45929(3) 0.76862(7) 0.69523(4)
O31 O 0.19358(17) 0.5313(2) 0.2669(2)
O32 O 0.18357(17) 0.4725(2) 0.1751(2)
O35 O 0.25570(18) 0.4203(2) 0.3378(2)
O36 O 0.24227(16) 0.3613(2) 0.24417(19)
O39 O 0.32827(17) 0.4952(2) 0.3380(2)
O40 O 0.31549(17) 0.4356(2) 0.2471(2)
N5 N 0.2491(3) 0.7787(3) 0.9871(3)
O20 O 0.25570(18) 0.5797(2) 0.8378(2)
O21 O 0.24227(16) 0.6387(2) 0.74417(19)
C33 C 0.2458(2) 0.6351(3) 0.8020(3)
C34 C 0.2460(3) 0.7052(3) 0.8317(3)
C35 C 0.2400(3) 0.7677(3) 0.7984(3)
H19 H 0.2365 0.7671 0.7557
C36 C 0.2390(3) 0.8339(3) 0.8280(3)
C37 C 0.2436(3) 0.8337(3) 0.8898(3)
H20 H 0.2438 0.8765 0.9101
C38 C 0.2483(3) 0.7698(3) 0.9236(3)
C39 C 0.2475(3) 0.7049(4) 0.8933(3)
H21 H 0.2480 0.6622 0.9141
O22 O 0.23366(18) 0.8989(2) 0.7355(2)
O23 O 0.24307(16) 0.9564(2) 0.8260(2)
C40 C 0.2383(3) 0.8997(3) 0.7944(3)
Cu9 Cu 0.23770(3) 0.98346(4) 0.68967(4)
Cu10 Cu 0.26230(3) 0.48346(4) 0.81033(4)
Cu14 Cu 0.24794(3) 0.55118(4) 0.70078(4)
O24 O 0.82827(17) 0.0048(2) 0.8380(2)
O25 O 0.81549(17) 0.0644(2) 0.7471(2)
C41 C 0.8416(2) 0.0420(3) 0.8021(3)
C42 C 0.8885(3) 0.0559(4) 0.8316(3)
C43 C 0.9105(2) 0.1060(4) 0.8026(3)
H22 H 0.8914 0.1259 0.7613
C44 C 0.9563(3) 0.1236(4) 0.8331(3)
C45 C 0.9883(3) 0.0919(4) 0.8924(3)
C46 C 0.9704(2) 0.0483(4) 0.9250(3)
C47 C 0.9251(2) 0.0297(4) 0.8980(3)
O26 O 0.94346(17) 0.1960(3) 0.7425(2)
C48 C 0.9771(2) 0.1719(4) 0.8000(3)
Cu20 Cu 0.95929(3) 0.26862(7) 0.69523(4)
N3 N 0.9927(2) 0.9787(4) 0.0115(3)
O12 O 0.98336(14) 0.7984(3) 0.1691(2)
H14 H 0.9799 0.9009 0.0903
Cu15 Cu 0.95929(3) 0.73138(7) 0.19523(4)
H24 H 0.9161 0.9992 0.9217
O24_2 O 0.17173(17) 0.0048(2) 0.6620(2)
O25_2 O 0.18451(17) 0.0644(2) 0.7529(2)
C41_2 C 0.1584(2) 0.0420(3) 0.6979(3)
C42_2 C 0.1115(3) 0.0559(4) 0.6684(3)
C43_2 C 0.0895(2) 0.1060(4) 0.6974(3)
H22_2 H 0.1086 0.1259 0.7387
C44_2 C 0.0437(3) 0.1236(4) 0.6669(3)
C45_2 C 0.0117(3) 0.0919(4) 0.6076(3)
C46_2 C 0.0296(2) 0.0483(4) 0.5750(3)
C47_2 C 0.0749(2) 0.0297(4) 0.6020(3)
O26_2 O 0.05654(17) 0.1960(3) 0.7575(2)
C48_2 C 0.0229(2) 0.1719(4) 0.7000(3)
N3_2 N 0.0073(2) 0.9787(4) 0.4885(3)
O12_2 O 0.01664(14) 0.7984(3) 0.3309(2)
H14_2 H 0.0201 0.9009 0.4097
H24_2 H 0.0839 0.9992 0.5783
Cu1_2 Cu 0.76230(3) 0.01654(4) 0.31033(4)
O1_2 O 0.69358(17) 0.0313(2) 0.2669(2)
O13_2 O 0.7781(2) 0.0637(3) 0.4050(2)
H1_2 H 0.7675 0.1057 0.3988
H2_2 H 0.7654 0.0391 0.4229
C1_2 C 0.6695(3) 0.0067(4) 0.2049(3)
C2_2 C 0.5371(2) 0.1429(5) 0.2027(3)
C3_2 C 0.6193(3) 0.0261(4) 0.1758(4)
C4_2 C 0.6028(2) 0.0694(4) 0.2068(3)
H7_2 H 0.6230 0.0850 0.2495
C5_2 C 0.5552(3) 0.0922(5) 0.1757(3)
C6_2 C 0.5251(2) 0.0637(4) 0.1078(3)
H8_2 H 0.4933 0.0732 0.0858
C7_2 C 0.5453(3) 0.0228(5) 0.0779(3)
H15_2 H 0.9161 0.0008 0.4217
N6_2 N 0.9927(2) 0.0213(4) 0.5115(3)
H23_2 H 0.9799 0.0991 0.5903
O27_2 O 0.98336(14) 0.2016(3) 0.6691(2)
O37_2 O 0.76634(18) 0.1011(2) 0.2645(2)
O38_2 O 0.75693(16) 0.0436(2) 0.1740(2)
N4_2 N 0.48025(19) 0.0093(4) 0.9881(3)
O17_2 O 0.31643(17) 0.0275(2) 0.8249(2)
C32_2 C 0.4073(2) 0.0004(4) 0.8882(3)
H18_2 H 0.3950 0.0312 0.9076
Cu2_2 Cu 0.74794(3) 0.94882(4) 0.20078(4)
N1_2 N 0.51975(19) 0.9907(4) 0.0119(3)
N2_2 N 0.7491(3) 0.7213(3) 0.4871(3)
O2_2 O 0.68357(17) 0.9725(2) 0.1751(2)
O5_2 O 0.75570(18) 0.9203(2) 0.3378(2)
O6_2 O 0.74227(16) 0.8613(2) 0.24417(19)
O7_2 O 0.73366(18) 0.6011(2) 0.2355(2)
O8_2 O 0.74307(16) 0.5436(2) 0.3260(2)
O9_2 O 0.82827(17) 0.9952(2) 0.3380(2)
O10_2 O 0.81549(17) 0.9356(2) 0.2471(2)
O11_2 O 0.94346(17) 0.8040(3) 0.2425(2)
O14_2 O 0.7352(2) 0.9015(3) 0.1088(2)
H3_2 H 0.7446 0.8588 0.1155
H4_2 H 0.7061 0.9025 0.0823
C8_2 C 0.5927(2) 0.9996(4) 0.1118(3)
H9_2 H 0.6050 0.9688 0.0924
C9_2 C 0.7458(2) 0.8649(3) 0.3020(3)
C10_2 C 0.7383(3) 0.6003(3) 0.2944(3)
C11_2 C 0.7460(3) 0.7948(3) 0.3317(3)
C12_2 C 0.7400(3) 0.7323(3) 0.2984(3)
H10_2 H 0.7365 0.7329 0.2557
C13_2 C 0.7390(3) 0.6661(3) 0.3280(3)
C14_2 C 0.7436(3) 0.6663(3) 0.3898(3)
H11_2 H 0.7438 0.6235 0.4101
C15_2 C 0.7483(3) 0.7302(3) 0.4236(3)
C16_2 C 0.7475(3) 0.7951(4) 0.3933(3)
H12_2 H 0.7480 0.8378 0.4141
C17_2 C 0.8416(2) 0.9580(3) 0.3021(3)
C18_2 C 0.9771(2) 0.8281(4) 0.3000(3)
C19_2 C 0.8885(3) 0.9441(4) 0.3316(3)
C20_2 C 0.9105(2) 0.8940(4) 0.3026(3)
H13_2 H 0.8914 0.8741 0.2613
C21_2 C 0.9563(3) 0.8764(4) 0.3331(3)
C22_2 C 0.9883(3) 0.9081(4) 0.3924(3)
C23_2 C 0.9704(2) 0.9517(4) 0.4250(3)
C24_2 C 0.9251(2) 0.9703(4) 0.3980(3)
N5_2 N 0.7509(3) 0.7787(3) 0.5129(3)
O20_2 O 0.74430(18) 0.5797(2) 0.6622(2)
O21_2 O 0.75773(16) 0.6387(2) 0.75583(19)
C33_2 C 0.7542(2) 0.6351(3) 0.6980(3)
C34_2 C 0.7540(3) 0.7052(3) 0.6683(3)
C35_2 C 0.7600(3) 0.7677(3) 0.7016(3)
H19_2 H 0.7635 0.7671 0.7443
C36_2 C 0.7610(3) 0.8339(3) 0.6720(3)
C37_2 C 0.7564(3) 0.8337(3) 0.6102(3)
H20_2 H 0.7562 0.8765 0.5899
C38_2 C 0.7517(3) 0.7698(3) 0.5764(3)
C39_2 C 0.7525(3) 0.7049(4) 0.6067(3)
H21_2 H 0.7520 0.6622 0.5859
O22_2 O 0.76634(18) 0.8989(2) 0.7645(2)
O23_2 O 0.75693(16) 0.9564(2) 0.6740(2)
C40_2 C 0.7617(3) 0.8997(3) 0.7056(3)
Cu5_2 Cu 0.73770(3) 0.51654(4) 0.18967(4)
Cu6_2 Cu 0.75206(3) 0.44882(4) 0.29922(4)
O29_2 O 0.7219(2) 0.5637(3) 0.0950(2)
H27_2 H 0.7325 0.6057 0.1012
H28_2 H 0.7346 0.5391 0.0771
O30_2 O 0.7648(2) 0.4015(3) 0.3912(2)
H29_2 H 0.7554 0.3588 0.3845
H30_2 H 0.7939 0.4025 0.4177
Cu10_2 Cu 0.73770(3) 0.48346(4) 0.68967(4)
Cu14_2 Cu 0.75206(3) 0.55118(4) 0.79922(4)
O31_2 O 0.80642(17) 0.5313(2) 0.2331(2)
O32_2 O 0.81643(17) 0.4725(2) 0.3249(2)
O35_2 O 0.74430(18) 0.4203(2) 0.1622(2)
O36_2 O 0.75773(16) 0.3613(2) 0.25583(19)
O39_2 O 0.67173(17) 0.4952(2) 0.1620(2)
O40_2 O 0.68451(17) 0.4356(2) 0.2529(2)
O16_2 O 0.30642(17) 0.9687(2) 0.7331(2)
O18_2 O 0.43849(18) 0.8416(3) 0.7361(2)
O19_2 O 0.50618(16) 0.8391(3) 0.8306(2)
C25_2 C 0.3305(3) 0.9933(4) 0.7951(3)
C26_2 C 0.4629(2) 0.8571(5) 0.7973(3)
C27_2 C 0.3807(3) 0.9739(4) 0.8242(4)
C28_2 C 0.3972(2) 0.9306(4) 0.7932(3)
H16_2 H 0.3770 0.9150 0.7505
C29_2 C 0.4448(3) 0.9078(5) 0.8243(3)
C30_2 C 0.4749(2) 0.9363(4) 0.8922(3)
H17_2 H 0.5067 0.9268 0.9142
C31_2 C 0.4547(3) 0.9772(5) 0.9221(3)
O4_2 O 0.00618(16) 0.6609(3) 0.3306(2)
H8_3 H 0.0067 0.5732 0.4142
N4_3 N 0.01975(19) 0.5093(4) 0.5119(3)
O16_3 O 0.19358(17) 0.4687(2) 0.7669(2)
O17_3 O 0.18357(17) 0.5275(2) 0.6751(2)
O18_3 O 0.06151(18) 0.3416(3) 0.7639(2)
C25_3 C 0.1695(3) 0.4933(4) 0.7049(3)
C26_3 C 0.0371(2) 0.3571(5) 0.7027(3)
C27_3 C 0.1193(3) 0.4739(4) 0.6758(4)
C28_3 C 0.1028(2) 0.4306(4) 0.7068(3)
H16_3 H 0.1230 0.4150 0.7495
C29_3 C 0.0552(3) 0.4078(5) 0.6757(3)
C30_3 C 0.0251(2) 0.4363(4) 0.6078(3)
C31_3 C 0.0453(3) 0.4772(5) 0.5779(3)
C32_3 C 0.0927(2) 0.5004(4) 0.6118(3)
H18_3 H 0.1050 0.5312 0.5924
O28_2 O 0.1049(2) 0.7326(4) 0.3965(3)
H25_2 H 0.1030 0.7626 0.4228
H26_2 H 0.1095 0.6915 0.4137
O33_2 O 0.06151(18) 0.6584(3) 0.2639(2)
N1_3 N 0.98025(19) 0.4907(4) 0.4881(3)
N2_3 N 0.7509(3) 0.2213(3) 0.0129(3)
N3_3 N 0.4927(2) 0.4787(4) 0.0115(3)
O3_2 O 0.93849(18) 0.6584(3) 0.2361(2)
O15_2 O 0.8951(2) 0.7326(4) 0.1035(3)
H5_2 H 0.8970 0.7626 0.0772
H6_2 H 0.8905 0.6915 0.0863
C1_3 C 0.8305(3) 0.5067(4) 0.2951(3)
C2_3 C 0.9629(2) 0.6429(5) 0.2973(3)
C3_3 C 0.8807(3) 0.5261(4) 0.3242(4)
C4_3 C 0.8972(2) 0.5694(4) 0.2932(3)
H7_3 H 0.8770 0.5850 0.2505
C5_3 C 0.9448(3) 0.5922(5) 0.3243(3)
C6_3 C 0.9749(2) 0.5637(4) 0.3922(3)
C7_3 C 0.9547(3) 0.5228(5) 0.4221(3)
C8_3 C 0.9073(2) 0.4996(4) 0.3882(3)
H9_3 H 0.8950 0.4688 0.4076
C9_3 C 0.7542(2) 0.3649(3) 0.1980(3)
C10_3 C 0.7617(3) 0.1003(3) 0.2056(3)
C11_3 C 0.7540(3) 0.2948(3) 0.1683(3)
C12_3 C 0.7600(3) 0.2323(3) 0.2016(3)
H10_3 H 0.7635 0.2329 0.2443
C13_3 C 0.7610(3) 0.1661(3) 0.1720(3)
C14_3 C 0.7564(3) 0.1663(3) 0.1102(3)
H11_3 H 0.7562 0.1235 0.0899
C15_3 C 0.7517(3) 0.2302(3) 0.0764(3)
C16_3 C 0.7525(3) 0.2951(4) 0.1067(3)
H12_3 H 0.7520 0.3378 0.0859
C17_3 C 0.6584(2) 0.4580(3) 0.1979(3)
C18_3 C 0.5229(2) 0.3281(4) 0.2000(3)
C19_3 C 0.6115(3) 0.4441(4) 0.1684(3)
C20_3 C 0.5895(2) 0.3940(4) 0.1974(3)
H13_3 H 0.6086 0.3741 0.2387
C21_3 C 0.5437(3) 0.3764(4) 0.1669(3)
C22_3 C 0.5117(3) 0.4081(4) 0.1076(3)
H14_3 H 0.4799 0.4009 0.0903
C23_3 C 0.5296(2) 0.4517(4) 0.0750(3)
C24_3 C 0.5749(2) 0.4703(4) 0.1020(3)
H15_3 H 0.5839 0.5008 0.0783
O19_3 O 0.99382(16) 0.3391(3) 0.6694(2)
H17_3 H 0.9933 0.4268 0.5858
O34_2 O 0.99382(16) 0.6609(3) 0.1694(2)
N5_3 N 0.7491(3) 0.2787(3) 0.9871(3)
O20_3 O 0.75570(18) 0.0797(2) 0.8378(2)
O21_3 O 0.74227(16) 0.1387(2) 0.74417(19)
C33_3 C 0.7458(2) 0.1351(3) 0.8020(3)
C34_3 C 0.7460(3) 0.2052(3) 0.8317(3)
C35_3 C 0.7400(3) 0.2677(3) 0.7984(3)
H19_3 H 0.7365 0.2671 0.7557
C36_3 C 0.7390(3) 0.3339(3) 0.8280(3)
C37_3 C 0.7436(3) 0.3337(3) 0.8898(3)
H20_3 H 0.7438 0.3765 0.9101
C38_3 C 0.7483(3) 0.2698(3) 0.9236(3)
C39_3 C 0.7475(3) 0.2049(4) 0.8933(3)
H21_3 H 0.7480 0.1622 0.9141
O22_3 O 0.73366(18) 0.3989(2) 0.7355(2)
O23_3 O 0.74307(16) 0.4564(2) 0.8260(2)
C40_3 C 0.7383(3) 0.3997(3) 0.7944(3)
N6_3 N 0.5073(2) 0.5213(4) 0.9885(3)
O24_3 O 0.32827(17) 0.5048(2) 0.8380(2)
O25_3 O 0.31549(17) 0.5644(2) 0.7471(2)
C41_3 C 0.3416(2) 0.5420(3) 0.8021(3)
C42_3 C 0.3885(3) 0.5559(4) 0.8316(3)
C43_3 C 0.4105(2) 0.6060(4) 0.8026(3)
H22_3 H 0.3914 0.6259 0.7613
C44_3 C 0.4563(3) 0.6236(4) 0.8331(3)
C45_3 C 0.4883(3) 0.5919(4) 0.8924(3)
H23_3 H 0.5201 0.5991 0.9097
C46_3 C 0.4704(2) 0.5483(4) 0.9250(3)
C47_3 C 0.4251(2) 0.5297(4) 0.8980(3)
H24_3 H 0.4161 0.4992 0.9217
O26_3 O 0.44346(17) 0.6960(3) 0.7425(2)
O27_3 O 0.51664(14) 0.7016(3) 0.8309(2)
C48_3 C 0.4771(2) 0.6719(4) 0.8000(3)
N1_4 N 0.01975(19) 0.4907(4) 0.0119(3)
N2_4 N 0.2491(3) 0.2213(3) 0.4871(3)
N3_4 N 0.5073(2) 0.4787(4) 0.4885(3)
C1_4 C 0.1695(3) 0.5067(4) 0.2049(3)
C2_4 C 0.0371(2) 0.6429(5) 0.2027(3)
C3_4 C 0.1193(3) 0.5261(4) 0.1758(4)
C4_4 C 0.1028(2) 0.5694(4) 0.2068(3)
H7_4 H 0.1230 0.5850 0.2495
C5_4 C 0.0552(3) 0.5922(5) 0.1757(3)
C6_4 C 0.0251(2) 0.5637(4) 0.1078(3)
C7_4 C 0.0453(3) 0.5228(5) 0.0779(3)
C8_4 C 0.0927(2) 0.4996(4) 0.1118(3)
H9_4 H 0.1050 0.4688 0.0924
C9_4 C 0.2458(2) 0.3649(3) 0.3020(3)
C10_4 C 0.2383(3) 0.1003(3) 0.2944(3)
C11_4 C 0.2460(3) 0.2948(3) 0.3317(3)
C12_4 C 0.2400(3) 0.2323(3) 0.2984(3)
H10_4 H 0.2365 0.2329 0.2557
C13_4 C 0.2390(3) 0.1661(3) 0.3280(3)
C14_4 C 0.2436(3) 0.1663(3) 0.3898(3)
H11_4 H 0.2438 0.1235 0.4101
C15_4 C 0.2483(3) 0.2302(3) 0.4236(3)
C16_4 C 0.2475(3) 0.2951(4) 0.3933(3)
H12_4 H 0.2480 0.3378 0.4141
C17_4 C 0.3416(2) 0.4580(3) 0.3021(3)
C18_4 C 0.4771(2) 0.3281(4) 0.3000(3)
C19_4 C 0.3885(3) 0.4441(4) 0.3316(3)
C20_4 C 0.4105(2) 0.3940(4) 0.3026(3)
H13_4 H 0.3914 0.3741 0.2613
C21_4 C 0.4563(3) 0.3764(4) 0.3331(3)
C22_4 C 0.4883(3) 0.4081(4) 0.3924(3)
H14_4 H 0.5201 0.4009 0.4097
C23_4 C 0.4704(2) 0.4517(4) 0.4250(3)
C24_4 C 0.4251(2) 0.4703(4) 0.3980(3)
H15_4 H 0.4161 0.5008 0.4217
N5_4 N 0.2509(3) 0.2787(3) 0.5129(3)
O20_4 O 0.24430(18) 0.0797(2) 0.6622(2)
O21_4 O 0.25773(16) 0.1387(2) 0.75583(19)
C33_4 C 0.2542(2) 0.1351(3) 0.6980(3)
C34_4 C 0.2540(3) 0.2052(3) 0.6683(3)
C35_4 C 0.2600(3) 0.2677(3) 0.7016(3)
H19_4 H 0.2635 0.2671 0.7443
C36_4 C 0.2610(3) 0.3339(3) 0.6720(3)
C37_4 C 0.2564(3) 0.3337(3) 0.6102(3)
H20_4 H 0.2562 0.3765 0.5899
C38_4 C 0.2517(3) 0.2698(3) 0.5764(3)
C39_4 C 0.2525(3) 0.2049(4) 0.6067(3)
H21_4 H 0.2520 0.1622 0.5859
O22_4 O 0.26634(18) 0.3989(2) 0.7645(2)
O23_4 O 0.25693(16) 0.4564(2) 0.6740(2)
C40_4 C 0.2617(3) 0.3997(3) 0.7056(3)
N6_4 N 0.4927(2) 0.5213(4) 0.5115(3)
O24_4 O 0.67173(17) 0.5048(2) 0.6620(2)
O25_4 O 0.68451(17) 0.5644(2) 0.7529(2)
C41_4 C 0.6584(2) 0.5420(3) 0.6979(3)
C42_4 C 0.6115(3) 0.5559(4) 0.6684(3)
C43_4 C 0.5895(2) 0.6060(4) 0.6974(3)
H22_4 H 0.6086 0.6259 0.7387
C44_4 C 0.5437(3) 0.6236(4) 0.6669(3)
C45_4 C 0.5117(3) 0.5919(4) 0.6076(3)
H23_4 H 0.4799 0.5991 0.5903
C46_4 C 0.5296(2) 0.5483(4) 0.5750(3)
C47_4 C 0.5749(2) 0.5297(4) 0.6020(3)
H24_4 H 0.5839 0.4992 0.5783
O26_4 O 0.55654(17) 0.6960(3) 0.7575(2)
O27_4 O 0.48336(14) 0.7016(3) 0.6691(2)
C48_4 C 0.5229(2) 0.6719(4) 0.7000(3)
O19_4 O 0.00618(16) 0.3391(3) 0.8306(2)
H17_4 H 0.0067 0.4268 0.9142
H8_4 H 0.9933 0.5732 0.0858
N4_4 N 0.98025(19) 0.5093(4) 0.9881(3)
O16_4 O 0.80642(17) 0.4687(2) 0.7331(2)
O17_4 O 0.81643(17) 0.5275(2) 0.8249(2)
O18_4 O 0.93849(18) 0.3416(3) 0.7361(2)
C25_4 C 0.8305(3) 0.4933(4) 0.7951(3)
C26_4 C 0.9629(2) 0.3571(5) 0.7973(3)
C27_4 C 0.8807(3) 0.4739(4) 0.8242(4)
C28_4 C 0.8972(2) 0.4306(4) 0.7932(3)
H16_4 H 0.8770 0.4150 0.7505
C29_4 C 0.9448(3) 0.4078(5) 0.8243(3)
C30_4 C 0.9749(2) 0.4363(4) 0.8922(3)
C31_4 C 0.9547(3) 0.4772(5) 0.9221(3)
C32_4 C 0.9073(2) 0.5004(4) 0.8882(3)
H18_4 H 0.8950 0.5312 0.9076
O14_3 O 0.7352(2) 0.0985(3) 0.6088(2)
H3_3 H 0.7446 0.1412 0.6155
H4_3 H 0.7061 0.0975 0.5823
O29_3 O 0.7219(2) 0.4363(3) 0.5950(2)
H27_3 H 0.7325 0.3943 0.6012
H28_3 H 0.7346 0.4609 0.5771
O30_3 O 0.7648(2) 0.5985(3) 0.8912(2)
H29_3 H 0.7554 0.6412 0.8845
H30_3 H 0.7939 0.5975 0.9177
O13_3 O 0.7781(2) 0.9363(3) 0.9050(2)
H1_3 H 0.7675 0.8943 0.8988
H2_3 H 0.7654 0.9609 0.9229
O15_3 O 0.6049(2) 0.7674(4) 0.8965(3)
H5_3 H 0.6030 0.7374 0.9228
H6_3 H 0.6095 0.8085 0.9137
O28_3 O 0.3951(2) 0.7674(4) 0.6035(3)
H25_3 H 0.3970 0.7374 0.5772
H26_3 H 0.3905 0.8085 0.5863
O14_4 O 0.2648(2) 0.0985(3) 0.8912(2)
H3_4 H 0.2554 0.1412 0.8845
H4_4 H 0.2939 0.0975 0.9177
O29_4 O 0.2781(2) 0.4363(3) 0.9050(2)
H27_4 H 0.2675 0.3943 0.8988
H28_4 H 0.2654 0.4609 0.9229
O30_4 O 0.2352(2) 0.5985(3) 0.6088(2)
H29_4 H 0.2446 0.6412 0.6155
H30_4 H 0.2061 0.5975 0.5823
O13_4 O 0.2219(2) 0.9363(3) 0.5950(2)
H1_4 H 0.2325 0.8943 0.6012
H2_4 H 0.2346 0.9609 0.5771
O15_4 O 0.1049(2) 0.2674(4) 0.8965(3)
H5_4 H 0.1030 0.2374 0.9228
H6_4 H 0.1095 0.3085 0.9137
O28_4 O 0.8951(2) 0.2674(4) 0.6035(3)
H25_4 H 0.8970 0.2374 0.5772
H26_4 H 0.8905 0.3085 0.5863
loop_
_geom_bond_atom_site_label_1
_geom_bond_atom_site_label_2
_geom_bond_site_symmetry_1
_geom_bond_site_symmetry_2
Cu3 O3 1_555 1_555
O1 Cu1 1_555 1_555
O3 C2 1_555 1_555
O4 C2 1_555 1_555
O13 Cu1 1_555 1_555
H1 O13 1_555 1_555
H2 O13 1_555 1_555
O15 Cu3 1_555 1_555
H5 O15 1_555 1_555
H6 O15 1_555 1_555
C1 O1 1_555 1_555
C2 C5 1_555 1_555
C3 C1 1_555 1_555
C4 C3 1_555 1_555
H7 C4 1_555 1_555
C5 C4 1_555 1_555
C6 C5 1_555 1_555
H8 C6 1_555 1_555
C7 C6 1_555 1_555
H18 C32 1_555 1_555
Cu4 Cu3 1_555 1_555
O28 Cu4 1_555 1_555
H25 O28 1_555 1_555
H26 O28 1_555 1_555
Cu12 O17 1_555 1_555
O33 Cu4 1_555 1_555
O34 Cu3 1_555 1_555
O37 Cu1 1_555 1_555
O41 Cu4 1_555 1_555
O42 Cu3 1_555 1_555
O43 Cu3 1_555 1_555
O44 Cu4 1_555 1_555
O4 Cu4 1_555 1_555
Cu19 O27 1_555 1_555
Cu2 O2 1_555 1_555
N2 C15 1_555 1_555
O6 Cu2 1_555 1_555
O7 C10 1_555 1_555
O8 C10 1_555 1_555
O10 Cu2 1_555 1_555
O11 C18 1_555 1_555
O14 Cu2 1_555 1_555
H3 O14 1_555 1_555
H4 O14 1_555 1_555
H9 C8 1_555 1_555
C9 O5 1_555 1_555
C10 C13 1_555 1_555
C11 C9 1_555 1_555
C12 C11 1_555 1_555
H10 C12 1_555 1_555
C13 C12 1_555 1_555
C14 C13 1_555 1_555
H11 C14 1_555 1_555
C15 C14 1_555 1_555
C16 C11 1_555 1_555
H12 C16 1_555 1_555
C17 O9 1_555 1_555
C18 C21 1_555 1_555
C19 C17 1_555 1_555
C20 C19 1_555 1_555
H13 C20 1_555 1_555
C21 C20 1_555 1_555
C22 C21 1_555 1_555
C23 C22 1_555 1_555
C24 C19 1_555 1_555
O16 C25 1_555 1_555
O18 C26 1_555 1_555
O19 C26 1_555 1_555
C25 C27 1_555 1_555
C26 C29 1_555 1_555
C27 C28 1_555 1_555
C28 H16 1_555 1_555
C29 C28 1_555 1_555
C30 C29 1_555 1_555
H17 C30 1_555 1_555
Cu5 O7 1_555 1_555
Cu6 O8 1_555 1_555
O29 Cu5 1_555 1_555
H27 O29 1_555 1_555
H28 O29 1_555 1_555
O30 Cu6 1_555 1_555
H29 O30 1_555 1_555
H30 O30 1_555 1_555
Cu8 O16 1_555 1_555
Cu16 O11 1_555 1_555
Cu17 O18 1_555 1_555
Cu18 O19 1_555 1_555
O31 Cu5 1_555 1_555
O32 Cu6 1_555 1_555
O35 Cu5 1_555 1_555
O36 Cu6 1_555 1_555
O39 Cu5 1_555 1_555
O40 Cu6 1_555 1_555
O6 C9 1_555 1_555
O10 C17 1_555 1_555
C15 C16 1_555 1_555
C23 C24 1_555 1_555
C30 C31 1_555 1_555
Cu5 Cu6 1_555 1_555
Cu17 Cu18 1_555 1_555
O20 C33 1_555 1_555
O21 C33 1_555 1_555
C33 C34 1_555 1_555
C34 C35 1_555 1_555
C35 H19 1_555 1_555
C36 C35 1_555 1_555
C37 C36 1_555 1_555
H20 C37 1_555 1_555
C38 N5 1_555 1_555
C39 C34 1_555 1_555
H21 C39 1_555 1_555
O22 C40 1_555 1_555
O23 C40 1_555 1_555
C40 C36 1_555 1_555
Cu9 O22 1_555 1_555
Cu10 O20 1_555 1_555
Cu14 O21 1_555 1_555
C37 C38 1_555 1_555
C38 C39 1_555 1_555
Cu10 Cu14 1_555 1_555
O24 C41 1_555 1_555
O25 C41 1_555 1_555
C41 C42 1_555 1_555
C42 C43 1_555 1_555
C43 H22 1_555 1_555
C44 C43 1_555 1_555
C45 C44 1_555 1_555
C47 C42 1_555 1_555
O26 C48 1_555 1_555
C48 C44 1_555 1_555
Cu12 O25 1_555 1_555
Cu20 O26 1_555 1_555
C45 C46 1_555 1_555
C46 C47 1_555 1_555
Cu15 O12 1_555 1_555
O24_2 C41_2 1_555 1_555
O25_2 C41_2 1_555 1_555
C41_2 C42_2 1_555 1_555
C42_2 C43_2 1_555 1_555
C43_2 H22_2 1_555 1_555
C44_2 C43_2 1_555 1_555
C45_2 C44_2 1_555 1_555
C47_2 C42_2 1_555 1_555
O26_2 C48_2 1_555 1_555
C48_2 C44_2 1_555 1_555
Cu13 O25_2 1_555 1_555
Cu19 O26_2 1_555 1_555
C45_2 C46_2 1_555 1_555
C46_2 C47_2 1_555 1_555
Cu16 O12_2 1_555 1_555
O1_2 Cu1_2 1_555 1_555
O33 C2_2 1_555 1_555
O34 C2_2 1_555 1_555
O13_2 Cu1_2 1_555 1_555
H1_2 O13_2 1_555 1_555
H2_2 O13_2 1_555 1_555
C1_2 O1_2 1_555 1_555
C2_2 C5_2 1_555 1_555
C3_2 C1_2 1_555 1_555
C4_2 C3_2 1_555 1_555
H7_2 C4_2 1_555 1_555
C5_2 C4_2 1_555 1_555
C6_2 C5_2 1_555 1_555
H8_2 C6_2 1_555 1_555
C7_2 C6_2 1_555 1_555
Cu20 O27_2 1_555 1_555
O37_2 Cu1_2 1_555 1_555
H18_2 C32_2 1_555 1_555
Cu13 O17_2 1_555 1_555
Cu2_2 O2_2 1_555 1_555
N2_2 C15_2 1_555 1_555
O6_2 Cu2_2 1_555 1_555
O7_2 C10_2 1_555 1_555
O8_2 C10_2 1_555 1_555
O10_2 Cu2_2 1_555 1_555
O11_2 C18_2 1_555 1_555
O14_2 Cu2_2 1_555 1_555
H3_2 O14_2 1_555 1_555
H4_2 O14_2 1_555 1_555
H9_2 C8_2 1_555 1_555
C9_2 O5_2 1_555 1_555
C10_2 C13_2 1_555 1_555
C11_2 C9_2 1_555 1_555
C12_2 C11_2 1_555 1_555
H10_2 C12_2 1_555 1_555
C13_2 C12_2 1_555 1_555
C14_2 C13_2 1_555 1_555
H11_2 C14_2 1_555 1_555
C15_2 C14_2 1_555 1_555
C16_2 C11_2 1_555 1_555
H12_2 C16_2 1_555 1_555
C17_2 O9_2 1_555 1_555
C18_2 C21_2 1_555 1_555
C19_2 C17_2 1_555 1_555
C20_2 C19_2 1_555 1_555
H13_2 C20_2 1_555 1_555
C21_2 C20_2 1_555 1_555
C22_2 C21_2 1_555 1_555
C23_2 C22_2 1_555 1_555
C24_2 C19_2 1_555 1_555
N5_2 N2_2 1_555 1_555
O20_2 C33_2 1_555 1_555
O21_2 C33_2 1_555 1_555
C33_2 C34_2 1_555 1_555
C34_2 C35_2 1_555 1_555
C35_2 H19_2 1_555 1_555
C36_2 C35_2 1_555 1_555
C37_2 C36_2 1_555 1_555
H20_2 C37_2 1_555 1_555
C38_2 N5_2 1_555 1_555
C39_2 C34_2 1_555 1_555
H21_2 C39_2 1_555 1_555
O22_2 C40_2 1_555 1_555
O23_2 C40_2 1_555 1_555
C40_2 C36_2 1_555 1_555
Cu5_2 O7_2 1_555 1_555
Cu6_2 O8_2 1_555 1_555
O29_2 Cu5_2 1_555 1_555
H27_2 O29_2 1_555 1_555
H28_2 O29_2 1_555 1_555
O30_2 Cu6_2 1_555 1_555
H29_2 O30_2 1_555 1_555
H30_2 O30_2 1_555 1_555
Cu8 O22_2 1_555 1_555
Cu10_2 O20_2 1_555 1_555
Cu14_2 O21_2 1_555 1_555
Cu15 O11_2 1_555 1_555
O31_2 Cu5_2 1_555 1_555
O32_2 Cu6_2 1_555 1_555
O35_2 Cu5_2 1_555 1_555
O36_2 Cu6_2 1_555 1_555
O39_2 Cu5_2 1_555 1_555
O40_2 Cu6_2 1_555 1_555
O6_2 C9_2 1_555 1_555
O10_2 C17_2 1_555 1_555
C15_2 C16_2 1_555 1_555
C23_2 C24_2 1_555 1_555
C37_2 C38_2 1_555 1_555
C38_2 C39_2 1_555 1_555
Cu5_2 Cu6_2 1_555 1_555
Cu10_2 Cu14_2 1_555 1_555
O16_2 C25_2 1_555 1_555
O18_2 C26_2 1_555 1_555
O19_2 C26_2 1_555 1_555
C25_2 C27_2 1_555 1_555
C26_2 C29_2 1_555 1_555
C27_2 C28_2 1_555 1_555
C28_2 H16_2 1_555 1_555
C29_2 C28_2 1_555 1_555
C30_2 C29_2 1_555 1_555
H17_2 C30_2 1_555 1_555
Cu9 O16_2 1_555 1_555
Cu18 O18_2 1_555 1_555
Cu17 O19_2 1_555 1_555
C30_2 C31_2 1_555 1_555
O16_3 C25_3 1_555 1_555
O17_3 C25_3 1_555 1_555
O18_3 C26_3 1_555 1_555
C25_3 C27_3 1_555 1_555
C26_3 C29_3 1_555 1_555
C27_3 C28_3 1_555 1_555
C28_3 H16_3 1_555 1_555
C29_3 C28_3 1_555 1_555
C30_3 C29_3 1_555 1_555
C31_3 N4_3 1_555 1_555
C32_3 C27_3 1_555 1_555
H18_3 C32_3 1_555 1_555
O28_2 Cu16 1_555 1_555
H25_2 O28_2 1_555 1_555
H26_2 O28_2 1_555 1_555
Cu10 O16_3 1_555 1_555
Cu14 O17_3 1_555 1_555
Cu19 O18_3 1_555 1_555
O33_2 Cu16 1_555 1_555
O4_2 Cu16 1_555 1_555
C30_3 C31_3 1_555 1_555
C31_3 C32_3 1_555 1_555
Cu15 O3_2 1_555 1_555
N1_3 C7_3 1_555 1_555
N2_3 C15_3 1_555 1_555
N3_3 C23_3 1_555 1_555
O32_2 C1_3 1_555 1_555
O3_2 C2_3 1_555 1_555
O37_2 C10_3 1_555 1_555
O38_2 C10_3 1_555 1_555
O41 C18_3 1_555 1_555
O43 C18_3 1_555 1_555
O15_2 Cu15 1_555 1_555
H5_2 O15_2 1_555 1_555
H6_2 O15_2 1_555 1_555
C1_3 O31_2 1_555 1_555
C2_3 C5_3 1_555 1_555
C3_3 C1_3 1_555 1_555
C4_3 C3_3 1_555 1_555
H7_3 C4_3 1_555 1_555
C5_3 C4_3 1_555 1_555
C6_3 C5_3 1_555 1_555
C7_3 C6_3 1_555 1_555
C8_3 C3_3 1_555 1_555
H9_3 C8_3 1_555 1_555
C9_3 O35_2 1_555 1_555
C10_3 C13_3 1_555 1_555
C11_3 C9_3 1_555 1_555
C12_3 C11_3 1_555 1_555
H10_3 C12_3 1_555 1_555
C13_3 C12_3 1_555 1_555
C14_3 C13_3 1_555 1_555
H11_3 C14_3 1_555 1_555
C15_3 C14_3 1_555 1_555
C16_3 C11_3 1_555 1_555
H12_3 C16_3 1_555 1_555
C17_3 O39_2 1_555 1_555
C18_3 C21_3 1_555 1_555
C19_3 C17_3 1_555 1_555
C20_3 C19_3 1_555 1_555
H13_3 C20_3 1_555 1_555
C21_3 C20_3 1_555 1_555
C22_3 C21_3 1_555 1_555
H14_3 C22_3 1_555 1_555
C23_3 C22_3 1_555 1_555
C24_3 C19_3 1_555 1_555
H15_3 C24_3 1_555 1_555
Cu20 O19_3 1_555 1_555
O34_2 Cu15 1_555 1_555
O36_2 C9_3 1_555 1_555
O40_2 C17_3 1_555 1_555
C7_3 C8_3 1_555 1_555
C15_3 C16_3 1_555 1_555
C23_3 C24_3 1_555 1_555
O20_3 C33_3 1_555 1_555
O21_3 C33_3 1_555 1_555
C33_3 C34_3 1_555 1_555
C34_3 C35_3 1_555 1_555
C35_3 H19_3 1_555 1_555
C36_3 C35_3 1_555 1_555
C37_3 C36_3 1_555 1_555
H20_3 C37_3 1_555 1_555
C38_3 N5_3 1_555 1_555
C39_3 C34_3 1_555 1_555
H21_3 C39_3 1_555 1_555
O22_3 C40_3 1_555 1_555
O23_3 C40_3 1_555 1_555
C40_3 C36_3 1_555 1_555
O24_3 C41_3 1_555 1_555
O25_3 C41_3 1_555 1_555
C41_3 C42_3 1_555 1_555
C42_3 C43_3 1_555 1_555
C43_3 H22_3 1_555 1_555
C44_3 C43_3 1_555 1_555
C45_3 C44_3 1_555 1_555
H23_3 C45_3 1_555 1_555
C46_3 N6_3 1_555 1_555
C47_3 C42_3 1_555 1_555
H24_3 C47_3 1_555 1_555
O26_3 C48_3 1_555 1_555
O27_3 C48_3 1_555 1_555
C48_3 C44_3 1_555 1_555
Cu10 O24_3 1_555 1_555
Cu10_2 O22_3 1_555 1_555
Cu14 O25_3 1_555 1_555
Cu14_2 O23_3 1_555 1_555
Cu12 O21_3 1_555 1_555
Cu17 O27_3 1_555 1_555
Cu18 O26_3 1_555 1_555
C37_3 C38_3 1_555 1_555
C38_3 C39_3 1_555 1_555
C45_3 C46_3 1_555 1_555
C46_3 C47_3 1_555 1_555
N1_4 C7_4 1_555 1_555
N2_4 C15_4 1_555 1_555
N3_4 C23_4 1_555 1_555
O32 C1_4 1_555 1_555
O33_2 C2_4 1_555 1_555
O37 C10_4 1_555 1_555
O38 C10_4 1_555 1_555
O42 C18_4 1_555 1_555
O44 C18_4 1_555 1_555
C1_4 O31 1_555 1_555
C2_4 C5_4 1_555 1_555
C3_4 C1_4 1_555 1_555
C4_4 C3_4 1_555 1_555
H7_4 C4_4 1_555 1_555
C5_4 C4_4 1_555 1_555
C6_4 C5_4 1_555 1_555
C7_4 C6_4 1_555 1_555
C8_4 C3_4 1_555 1_555
H9_4 C8_4 1_555 1_555
C9_4 O35 1_555 1_555
C10_4 C13_4 1_555 1_555
C11_4 C9_4 1_555 1_555
C12_4 C11_4 1_555 1_555
H10_4 C12_4 1_555 1_555
C13_4 C12_4 1_555 1_555
C14_4 C13_4 1_555 1_555
H11_4 C14_4 1_555 1_555
C15_4 C14_4 1_555 1_555
C16_4 C11_4 1_555 1_555
H12_4 C16_4 1_555 1_555
C17_4 O39 1_555 1_555
C18_4 C21_4 1_555 1_555
C19_4 C17_4 1_555 1_555
C20_4 C19_4 1_555 1_555
H13_4 C20_4 1_555 1_555
C21_4 C20_4 1_555 1_555
C22_4 C21_4 1_555 1_555
H14_4 C22_4 1_555 1_555
C23_4 C22_4 1_555 1_555
C24_4 C19_4 1_555 1_555
H15_4 C24_4 1_555 1_555
N5_4 N2_4 1_555 1_555
O20_4 C33_4 1_555 1_555
O21_4 C33_4 1_555 1_555
C33_4 C34_4 1_555 1_555
C34_4 C35_4 1_555 1_555
C35_4 H19_4 1_555 1_555
C36_4 C35_4 1_555 1_555
C37_4 C36_4 1_555 1_555
H20_4 C37_4 1_555 1_555
C38_4 N5_4 1_555 1_555
C39_4 C34_4 1_555 1_555
H21_4 C39_4 1_555 1_555
O22_4 C40_4 1_555 1_555
O23_4 C40_4 1_555 1_555
C40_4 C36_4 1_555 1_555
N6_4 N3_4 1_555 1_555
O24_4 C41_4 1_555 1_555
O25_4 C41_4 1_555 1_555
C41_4 C42_4 1_555 1_555
C42_4 C43_4 1_555 1_555
C43_4 H22_4 1_555 1_555
C44_4 C43_4 1_555 1_555
C45_4 C44_4 1_555 1_555
H23_4 C45_4 1_555 1_555
C46_4 N6_4 1_555 1_555
C47_4 C42_4 1_555 1_555
H24_4 C47_4 1_555 1_555
O26_4 C48_4 1_555 1_555
O27_4 C48_4 1_555 1_555
C48_4 C44_4 1_555 1_555
Cu10_2 O24_4 1_555 1_555
Cu10 O22_4 1_555 1_555
Cu14_2 O25_4 1_555 1_555
Cu14 O23_4 1_555 1_555
Cu13 O21_4 1_555 1_555
Cu18 O27_4 1_555 1_555
Cu17 O26_4 1_555 1_555
O36 C9_4 1_555 1_555
O40 C17_4 1_555 1_555
C7_4 C8_4 1_555 1_555
C15_4 C16_4 1_555 1_555
C23_4 C24_4 1_555 1_555
C37_4 C38_4 1_555 1_555
C38_4 C39_4 1_555 1_555
C45_4 C46_4 1_555 1_555
C46_4 C47_4 1_555 1_555
Cu19 O19_4 1_555 1_555
O16_4 C25_4 1_555 1_555
O17_4 C25_4 1_555 1_555
O18_4 C26_4 1_555 1_555
C25_4 C27_4 1_555 1_555
C26_4 C29_4 1_555 1_555
C27_4 C28_4 1_555 1_555
C28_4 H16_4 1_555 1_555
C29_4 C28_4 1_555 1_555
C30_4 C29_4 1_555 1_555
C31_4 N4_4 1_555 1_555
C32_4 C27_4 1_555 1_555
H18_4 C32_4 1_555 1_555
Cu10_2 O16_4 1_555 1_555
Cu14_2 O17_4 1_555 1_555
Cu20 O18_4 1_555 1_555
C30_4 C31_4 1_555 1_555
C31_4 C32_4 1_555 1_555
O14_3 Cu12 1_555 1_555
H3_3 O14_3 1_555 1_555
H4_3 O14_3 1_555 1_555
O29_3 Cu10_2 1_555 1_555
H27_3 O29_3 1_555 1_555
H28_3 O29_3 1_555 1_555
O30_3 Cu14_2 1_555 1_555
H29_3 O30_3 1_555 1_555
H30_3 O30_3 1_555 1_555
O13_3 Cu8 1_555 1_555
H1_3 O13_3 1_555 1_555
H2_3 O13_3 1_555 1_555
O15_3 Cu17 1_555 1_555
H5_3 O15_3 1_555 1_555
H6_3 O15_3 1_555 1_555
O28_3 Cu18 1_555 1_555
H25_3 O28_3 1_555 1_555
H26_3 O28_3 1_555 1_555
O14_4 Cu13 1_555 1_555
H3_4 O14_4 1_555 1_555
H4_4 O14_4 1_555 1_555
O29_4 Cu10 1_555 1_555
H27_4 O29_4 1_555 1_555
H28_4 O29_4 1_555 1_555
O30_4 Cu14 1_555 1_555
H29_4 O30_4 1_555 1_555
H30_4 O30_4 1_555 1_555
O13_4 Cu9 1_555 1_555
H1_4 O13_4 1_555 1_555
H2_4 O13_4 1_555 1_555
O15_4 Cu19 1_555 1_555
H5_4 O15_4 1_555 1_555
H6_4 O15_4 1_555 1_555
O28_4 Cu20 1_555 1_555
H25_4 O28_4 1_555 1_555
H26_4 O28_4 1_555 1_555

#END
