
###############################################################################
#
# This file contains modified crystal structure data generated from the
# MOF subset of the Cambridge Structural Database (CSD) v543 
# hosted by the Cambridge Crystallographic Data Centre (CCDC).
#
# This work is licensed under the Creative Commons
# Attribution-NonCommercial-ShareAlike 4.0 International License.
# To view a copy of this license, visit
# http://creativecommons.org/licenses/by-nc-sa/4.0/
# or send a letter to
# Creative Commons, PO Box 1866, Mountain View, CA 94042, USA.
#
# CIF created using the CSD Python API on 29 September 2022
# The structure has been converted into the P1 space group
# The structure has a 3D framework
# The original CSD entry XIKFIJ is in the monoclinic crystal system
# The framework has been calculated to contain at least 10.0% void space
# The void calculation uses a probe of radius 1.32A, grid spacing 0.4
#
###############################################################################

data_XIKFIJ
_chemical_formula_moiety         '(C176 H128 Cd6 N48 O72 U8)n'
_symmetry_cell_setting           triclinic
_symmetry_space_group_name_H-M   'P 1'
_symmetry_Int_Tables_number      1
_space_group_name_Hall           'P 1'
loop_
_symmetry_equiv_pos_site_id
_symmetry_equiv_pos_as_xyz
1 x,y,z
_cell_length_a                   18.7331(7)
_cell_length_b                   29.6059(11)
_cell_length_c                   10.4539(4)
_cell_angle_alpha                90
_cell_angle_beta                 117.8850(10)
_cell_angle_gamma                90
_cell_volume                     5124.64
loop_
_atom_site_label
_atom_site_type_symbol
_atom_site_fract_x
_atom_site_fract_y
_atom_site_fract_z
U4 U 0.21392(2) 0.88437(2) 0.08191(2)
C27 C 0.15007(15) 0.97166(8) 0.0716(3)
O14 O 0.30989(12) 0.90098(7) 0.2189(2)
O15 O 0.14604(12) 0.94300(6) 0.15780(19)
O23 O 0.23687(12) 0.80583(6) 0.1749(2)
O24 O 0.18657(11) 0.85289(6) 0.27493(19)
C21 C 0.77651(16) 0.75816(8) 0.8975(3)
H15 H 0.794478 0.763659 0.827642
O10 O 0.73687(12) 0.69417(6) 0.6749(2)
O11 O 0.68657(11) 0.64711(6) 0.77493(19)
C23 C 0.71674(15) 0.68522(8) 0.7728(3)
C24 C 0.73278(15) 0.71897(8) 0.8889(3)
C25 C 0.70631(16) 0.71092(8) 0.9916(3)
H17 H 0.676573 0.684309 0.985670
U5 U 0.71392(2) 0.61563(2) 0.58191(2)
C18 C 0.21674(15) 0.81478(8) 0.2728(3)
C19 C 0.23278(15) 0.78103(8) 0.3889(3)
C20 C 0.20631(16) 0.78908(8) 0.4916(3)
H14 H 0.176573 0.815691 0.485670
C21_2 C 0.22349(16) 0.75816(8) 0.6025(3)
H15_2 H 0.205522 0.763659 0.672358
O10_2 O 0.26313(12) 0.69417(6) 0.8251(2)
O11_2 O 0.31343(11) 0.64711(6) 0.72507(19)
C23_2 C 0.28326(15) 0.68522(8) 0.7272(3)
C24_2 C 0.26722(15) 0.71897(8) 0.6111(3)
C25_2 C 0.29369(16) 0.71092(8) 0.5084(3)
H17_2 H 0.323427 0.684309 0.514330
C26 C 0.27651(16) 0.74184(8) 0.3975(3)
H18 H 0.294478 0.736341 0.327642
U5_2 U 0.28608(2) 0.61563(2) 0.91809(2)
O1 O 0.61721(11) 0.63393(6) 0.44681(19)
C1 C 0.65007(15) 0.52834(8) 0.5716(3)
N1 N 0.53976(13) 0.34746(7) 0.5336(2)
Cd1 Cd 0.500000 0.22674(2) 0.750000
O2 O 0.68201(13) 0.53941(6) 0.4923(2)
C2 C 0.58308(16) 0.46730(8) 0.6429(3)
H1 H 0.576770 0.487875 0.706661
N2 N 0.47374(14) 0.28338(7) 0.4540(2)
N3 N 0.51816(13) 0.28166(7) 0.6041(2)
O3 O 0.80989(12) 0.59902(7) 0.7189(2)
C3 C 0.61883(14) 0.48143(8) 0.5593(3)
O4 O 0.64604(12) 0.55700(6) 0.65780(19)
C4 C 0.55665(17) 0.42300(8) 0.6328(3)
H2 H 0.532388 0.413032 0.689863
N4 N 0.57030(13) 0.14553(7) 0.4759(2)
C5 C 0.56593(15) 0.39357(7) 0.5393(3)
N5 N 0.52772(13) 0.17375(7) 0.6211(2)
O5 O 0.72077(12) 0.16435(6) 0.0318(2)
C6 C 0.60012(16) 0.40722(8) 0.4528(3)
H3 H 0.605035 0.386736 0.387421
N6 N 0.50256(14) 0.12897(7) 0.5949(2)
O6 O 0.74800(13) 0.09425(6) 0.1035(2)
C7 C 0.62692(15) 0.45147(8) 0.4642(3)
H4 H 0.650933 0.461378 0.406716
C8 C 0.55632(16) 0.32014(8) 0.6485(3)
H5 H 0.590597 0.327836 0.746761
O9 O 0.63780(11) 0.24313(6) 0.9081(2)
H6 H 0.643332 0.261059 0.982903
H7 H 0.666522 0.217469 0.946844
C9 C 0.48799(16) 0.32314(8) 0.4161(3)
H8 H 0.465140 0.333682 0.319157
C10 C 0.71675(15) 0.13152(9) 0.1077(3)
C11 C 0.67796(16) 0.13621(8) 0.2035(3)
C12 C 0.60113(16) 0.17865(8) 0.2936(3)
H9 H 0.572902 0.205220 0.294384
C13 C 0.60713(16) 0.14223(8) 0.3826(3)
C14 C 0.64818(18) 0.10301(9) 0.3846(3)
H10 H 0.652578 0.078734 0.447310
C15 C 0.68282(17) 0.10009(9) 0.2924(3)
H11 H 0.709955 0.073220 0.290208
C16 C 0.56723(16) 0.18263(8) 0.5486(3)
H12 H 0.590402 0.211055 0.547306
C17 C 0.52930(17) 0.11307(8) 0.5088(3)
H13 H 0.521377 0.082939 0.473481
C22 C 0.63688(15) 0.17564(8) 0.2038(3)
H16 H 0.633484 0.200237 0.142888
C27_2 C 0.34993(15) 0.52834(8) 0.9284(3)
N7 N 0.46024(13) 0.34746(7) 0.9664(2)
C28 C 0.41692(16) 0.46730(8) 0.8571(3)
H19 H 0.423230 0.487875 0.793339
N9 N 0.48184(13) 0.28166(7) 0.8959(2)
O14_2 O 0.19011(12) 0.59902(7) 0.7811(2)
C29 C 0.38117(14) 0.48143(8) 0.9407(3)
O15_2 O 0.35396(12) 0.55700(6) 0.84220(19)
C30 C 0.44335(17) 0.42300(8) 0.8672(3)
H20 H 0.467612 0.413032 0.810137
C31 C 0.43407(15) 0.39357(7) 0.9607(3)
N11 N 0.47228(13) 0.17375(7) 0.8789(2)
N12 N 0.49744(14) 0.12897(7) 0.9051(2)
C34 C 0.44368(16) 0.32014(8) 0.8515(3)
H23 H 0.409403 0.327836 0.753239
O18 O 0.36220(11) 0.24313(6) 0.5919(2)
H24 H 0.356668 0.261059 0.517097
H25 H 0.333478 0.217469 0.553156
C42 C 0.43277(16) 0.18263(8) 0.9514(3)
H30 H 0.409598 0.211055 0.952694
C43 C 0.47070(17) 0.11307(8) 0.9912(3)
O20 O 0.77923(12) 0.66435(6) 0.4682(2)
O22 O 0.75200(13) 0.59425(6) 0.3965(2)
O12 O 0.88279(11) 0.13393(6) 0.05319(19)
O13 O 0.81799(13) 0.03941(6) 0.0077(2)
N10 N 0.92970(13) 0.64553(7) 0.0241(2)
C32 C 0.89988(16) 0.90722(8) 0.0472(3)
H21 H 0.894965 0.886736 0.112579
C33 C 0.87308(15) 0.95147(8) 0.0358(3)
H22 H 0.849067 0.961378 0.093284
C36 C 0.78325(15) 0.63152(9) 0.3923(3)
C37 C 0.82204(16) 0.63621(8) 0.2965(3)
C38 C 0.89887(16) 0.67865(8) 0.2064(3)
H27 H 0.927098 0.705220 0.205616
C39 C 0.89287(16) 0.64223(8) 0.1174(3)
C40 C 0.85182(18) 0.60301(9) 0.1154(3)
H28 H 0.847422 0.578734 0.052690
C41 C 0.81718(17) 0.60009(9) 0.2076(3)
H29 H 0.790045 0.573220 0.209792
H31 H 0.978623 0.582939 0.026519
C44 C 0.86312(15) 0.67564(8) 0.2962(3)
H32 H 0.866516 0.700237 0.357112
U1 U 0.28608(2) 0.38437(2) 0.41809(2)
O1_2 O 0.38279(11) 0.36607(6) 0.55319(19)
C1_2 C 0.34993(15) 0.47166(8) 0.4284(3)
N1_2 N 0.46024(13) 0.65254(7) 0.4664(2)
Cd1_2 Cd 0.500000 0.77326(2) 0.250000
O2_2 O 0.31799(13) 0.46059(6) 0.5077(2)
C2_2 C 0.41692(16) 0.53270(8) 0.3571(3)
H1_2 H 0.423230 0.512125 0.293339
N2_2 N 0.52626(14) 0.71662(7) 0.5460(2)
N3_2 N 0.48184(13) 0.71834(7) 0.3959(2)
O3_2 O 0.19011(12) 0.40098(7) 0.2811(2)
C3_2 C 0.38117(14) 0.51857(8) 0.4407(3)
O4_2 O 0.35396(12) 0.44300(6) 0.34220(19)
C4_2 C 0.44335(17) 0.57700(8) 0.3672(3)
H2_2 H 0.467612 0.586968 0.310137
N4_2 N 0.42970(13) 0.85447(7) 0.5241(2)
C5_2 C 0.43407(15) 0.60643(7) 0.4607(3)
N5_2 N 0.47228(13) 0.82625(7) 0.3789(2)
O5_2 O 0.27923(12) 0.83565(6) 0.9682(2)
C6_2 C 0.39988(16) 0.59278(8) 0.5472(3)
H3_2 H 0.394965 0.613264 0.612579
N6_2 N 0.49744(14) 0.87103(7) 0.4051(2)
O6_2 O 0.25200(13) 0.90575(6) 0.8965(2)
C7_2 C 0.37308(15) 0.54853(8) 0.5358(3)
H4_2 H 0.349067 0.538622 0.593284
O7 O 0.26313(12) 0.30583(6) 0.3251(2)
C8_2 C 0.44368(16) 0.67986(8) 0.3515(3)
H5_2 H 0.409403 0.672164 0.253239
O8 O 0.31343(11) 0.35289(6) 0.22507(19)
O9_2 O 0.36220(11) 0.75687(6) 0.0919(2)
H6_2 H 0.356668 0.738941 0.017097
H7_2 H 0.333478 0.782531 0.053156
C9_2 C 0.51201(16) 0.67686(8) 0.5839(3)
H8_2 H 0.534860 0.666318 0.680843
C10_2 C 0.28325(15) 0.86848(9) 0.8923(3)
C11_2 C 0.32204(16) 0.86379(8) 0.7965(3)
C12_2 C 0.39887(16) 0.82135(8) 0.7064(3)
H9_2 H 0.427098 0.794780 0.705616
C13_2 C 0.39287(16) 0.85777(8) 0.6174(3)
C14_2 C 0.35182(18) 0.89699(9) 0.6154(3)
H10_2 H 0.347422 0.921266 0.552690
C15_2 C 0.31718(17) 0.89991(9) 0.7076(3)
H11_2 H 0.290045 0.926780 0.709792
C16_2 C 0.43277(16) 0.81737(8) 0.4514(3)
H12_2 H 0.409598 0.788945 0.452694
C17_2 C 0.47070(17) 0.88693(8) 0.4912(3)
H13_2 H 0.478623 0.917061 0.526519
C18_2 C 0.28326(15) 0.31478(8) 0.2272(3)
C19_2 C 0.26722(15) 0.28103(8) 0.1111(3)
C20_2 C 0.29369(16) 0.28908(8) 0.0084(3)
H14_2 H 0.323427 0.315691 0.014330
C22_2 C 0.36312(15) 0.82436(8) 0.7962(3)
H16_2 H 0.366516 0.799763 0.857112
C26_2 C 0.22349(16) 0.24184(8) 0.1025(3)
H18_2 H 0.205522 0.236341 0.172358
U2 U 0.71392(2) 0.38437(2) 0.08191(2)
C27_3 C 0.65007(15) 0.47166(8) 0.0716(3)
N7_2 N 0.53976(13) 0.65254(7) 0.0336(2)
C28_2 C 0.58308(16) 0.53270(8) 0.1429(3)
H19_2 H 0.576770 0.512125 0.206661
N9_2 N 0.51816(13) 0.71834(7) 0.1041(2)
O14_3 O 0.80989(12) 0.40098(7) 0.2189(2)
C29_2 C 0.61883(14) 0.51857(8) 0.0593(3)
O15_3 O 0.64604(12) 0.44300(6) 0.15780(19)
C30_2 C 0.55665(17) 0.57700(8) 0.1328(3)
H20_2 H 0.532388 0.586968 0.189863
C31_2 C 0.56593(15) 0.60643(7) 0.0393(3)
N11_2 N 0.52772(13) 0.82625(7) 0.1211(2)
N12_2 N 0.50256(14) 0.87103(7) 0.0949(2)
C34_2 C 0.55632(16) 0.67986(8) 0.1485(3)
H23_2 H 0.590597 0.672164 0.246761
O18_2 O 0.63780(11) 0.75687(6) 0.4081(2)
H24_2 H 0.643332 0.738941 0.482903
H25_2 H 0.666522 0.782531 0.446844
C42_2 C 0.56723(16) 0.81737(8) 0.0486(3)
H30_2 H 0.590402 0.788945 0.047306
C43_2 C 0.52930(17) 0.88693(8) 0.0088(3)
O20_2 O 0.22077(12) 0.33565(6) 0.5318(2)
O22_2 O 0.24800(13) 0.40575(6) 0.6035(2)
O23_2 O 0.73687(12) 0.30583(6) 0.1749(2)
O24_2 O 0.68657(11) 0.35289(6) 0.27493(19)
C18_3 C 0.71674(15) 0.31478(8) 0.2728(3)
C19_3 C 0.73278(15) 0.28103(8) 0.3889(3)
C20_3 C 0.70631(16) 0.28908(8) 0.4916(3)
H14_3 H 0.676573 0.315691 0.485670
C21_3 C 0.72349(16) 0.25816(8) 0.6025(3)
H15_3 H 0.705522 0.263659 0.672358
O10_3 O 0.76313(12) 0.19417(6) 0.8251(2)
O11_3 O 0.81343(11) 0.14711(6) 0.72507(19)
C23_3 C 0.78326(15) 0.18522(8) 0.7272(3)
C24_3 C 0.76722(15) 0.21897(8) 0.6111(3)
C25_3 C 0.79369(16) 0.21092(8) 0.5084(3)
H17_3 H 0.823427 0.184309 0.514330
C26_3 C 0.77651(16) 0.24184(8) 0.3975(3)
H18_3 H 0.794478 0.236341 0.327642
U5_3 U 0.78608(2) 0.11563(2) 0.91809(2)
N10_2 N 0.07030(13) 0.35447(7) 0.9759(2)
C32_2 C 0.10012(16) 0.09278(8) 0.9528(3)
H21_2 H 0.105035 0.113264 0.887421
C33_2 C 0.12692(15) 0.04853(8) 0.9642(3)
H22_2 H 0.150933 0.038622 0.906716
C36_2 C 0.21675(15) 0.36848(9) 0.6077(3)
C37_2 C 0.17796(16) 0.36379(8) 0.7035(3)
C38_2 C 0.10113(16) 0.32135(8) 0.7936(3)
H27_2 H 0.072902 0.294780 0.794384
C39_2 C 0.10713(16) 0.35777(8) 0.8826(3)
C40_2 C 0.14818(18) 0.39699(9) 0.8846(3)
H28_2 H 0.152578 0.421266 0.947310
C41_2 C 0.18282(17) 0.39991(9) 0.7924(3)
H29_2 H 0.209955 0.426780 0.790208
H31_2 H 0.021377 0.417061 0.973481
C44_2 C 0.13688(15) 0.32436(8) 0.7038(3)
H32_2 H 0.133484 0.299763 0.642888
O12_2 O 0.11721(11) 0.86607(6) 0.94681(19)
O13_2 O 0.18201(13) 0.96059(6) 0.9923(2)
C27_4 C 0.84993(15) 0.02834(8) 0.9284(3)
O14_4 O 0.69011(12) 0.09902(7) 0.7811(2)
O15_4 O 0.85396(12) 0.05700(6) 0.84220(19)
C21_4 C 0.27651(16) 0.25816(8) 0.8975(3)
H15_4 H 0.294478 0.263659 0.827642
O10_4 O 0.23687(12) 0.19417(6) 0.6749(2)
O11_4 O 0.18657(11) 0.14711(6) 0.77493(19)
C23_4 C 0.21674(15) 0.18522(8) 0.7728(3)
C24_4 C 0.23278(15) 0.21897(8) 0.8889(3)
C25_4 C 0.20631(16) 0.21092(8) 0.9916(3)
H17_4 H 0.176573 0.184309 0.985670
O12_3 O 0.61721(11) 0.36607(6) 0.94681(19)
O13_3 O 0.68201(13) 0.46059(6) 0.9923(2)
N8 N 0.47374(14) 0.71662(7) 0.9540(2)
N10_3 N 0.57030(13) 0.85447(7) 0.9759(2)
O16 O 0.72077(12) 0.83565(6) 0.5318(2)
C32_3 C 0.60012(16) 0.59278(8) 0.9528(3)
H21_3 H 0.605035 0.613264 0.887421
O17 O 0.74800(13) 0.90575(6) 0.6035(2)
C33_3 C 0.62692(15) 0.54853(8) 0.9642(3)
H22_3 H 0.650933 0.538622 0.906716
C35 C 0.48799(16) 0.67686(8) 0.9161(3)
H26 H 0.465140 0.666318 0.819157
C36_3 C 0.71675(15) 0.86848(9) 0.6077(3)
C37_3 C 0.67796(16) 0.86379(8) 0.7035(3)
C38_3 C 0.60113(16) 0.82135(8) 0.7936(3)
H27_3 H 0.572902 0.794780 0.794384
C39_3 C 0.60713(16) 0.85777(8) 0.8826(3)
C40_3 C 0.64818(18) 0.89699(9) 0.8846(3)
H28_3 H 0.652578 0.921266 0.947310
C41_3 C 0.68282(17) 0.89991(9) 0.7924(3)
H29_3 H 0.709955 0.926780 0.790208
H31_3 H 0.521377 0.917061 0.973481
C44_3 C 0.63688(15) 0.82436(8) 0.7038(3)
H32_3 H 0.633484 0.799763 0.642888
U3 U 0.78608(2) 0.88437(2) 0.41809(2)
U5_4 U 0.21392(2) 0.11563(2) 0.58191(2)
O19 O 0.77923(12) 0.33565(6) 0.9682(2)
O21 O 0.75200(13) 0.40575(6) 0.8965(2)
N1_3 N 0.96024(13) 0.15254(7) 0.4664(2)
Cd1_3 Cd 1.000000 0.27326(2) 0.250000
C2_3 C 0.91692(16) 0.03270(8) 0.3571(3)
H1_3 H 0.923230 0.012125 0.293339
N3_3 N 0.98184(13) 0.21834(7) 0.3959(2)
C3_3 C 0.88117(14) 0.01857(8) 0.4407(3)
C4_3 C 0.94335(17) 0.07700(8) 0.3672(3)
H2_3 H 0.967612 0.086968 0.310137
N4_3 N 0.92970(13) 0.35447(7) 0.5241(2)
C5_3 C 0.93407(15) 0.10643(7) 0.4607(3)
N5_3 N 0.97228(13) 0.32625(7) 0.3789(2)
C6_3 C 0.89988(16) 0.09278(8) 0.5472(3)
H3_3 H 0.894965 0.113264 0.612579
N6_3 N 0.99744(14) 0.37103(7) 0.4051(2)
C7_3 C 0.87308(15) 0.04853(8) 0.5358(3)
H4_3 H 0.849067 0.038622 0.593284
C8_3 C 0.94368(16) 0.17986(8) 0.3515(3)
H5_3 H 0.909403 0.172164 0.253239
O9_3 O 0.86220(11) 0.25687(6) 0.0919(2)
H6_3 H 0.856668 0.238941 0.017097
H7_3 H 0.833478 0.282531 0.053156
C10_3 C 0.78325(15) 0.36848(9) 0.8923(3)
C11_3 C 0.82204(16) 0.36379(8) 0.7965(3)
C12_3 C 0.89887(16) 0.32135(8) 0.7064(3)
H9_3 H 0.927098 0.294780 0.705616
C13_3 C 0.89287(16) 0.35777(8) 0.6174(3)
C14_3 C 0.85182(18) 0.39699(9) 0.6154(3)
H10_3 H 0.847422 0.421266 0.552690
C15_3 C 0.81718(17) 0.39991(9) 0.7076(3)
H11_3 H 0.790045 0.426780 0.709792
C16_3 C 0.93277(16) 0.31737(8) 0.4514(3)
H12_3 H 0.909598 0.288945 0.452694
C17_3 C 0.97070(17) 0.38693(8) 0.4912(3)
H13_3 H 0.978623 0.417061 0.526519
C22_3 C 0.86312(15) 0.32436(8) 0.7962(3)
H16_3 H 0.866516 0.299763 0.857112
O1_3 O 0.88279(11) 0.86607(6) 0.55319(19)
C1_3 C 0.84993(15) 0.97166(8) 0.4284(3)
O2_3 O 0.81799(13) 0.96059(6) 0.5077(2)
O3_3 O 0.69011(12) 0.90098(7) 0.2811(2)
O4_3 O 0.85396(12) 0.94300(6) 0.34220(19)
O7_2 O 0.76313(12) 0.80583(6) 0.3251(2)
O8_2 O 0.81343(11) 0.85289(6) 0.22507(19)
C18_4 C 0.78326(15) 0.81478(8) 0.2272(3)
C19_4 C 0.76722(15) 0.78103(8) 0.1111(3)
C20_4 C 0.79369(16) 0.78908(8) 0.0084(3)
H14_4 H 0.823427 0.815691 0.014330
C26_4 C 0.72349(16) 0.74184(8) 0.1025(3)
H18_4 H 0.705522 0.736341 0.172358
O12_4 O 0.38279(11) 0.63393(6) 0.05319(19)
O13_4 O 0.31799(13) 0.53941(6) 0.0077(2)
N8_2 N 0.52626(14) 0.28338(7) 0.0460(2)
N10_4 N 0.42970(13) 0.14553(7) 0.0241(2)
O16_2 O 0.27923(12) 0.16435(6) 0.4682(2)
C32_4 C 0.39988(16) 0.40722(8) 0.0472(3)
H21_4 H 0.394965 0.386736 0.112579
O17_2 O 0.25200(13) 0.09425(6) 0.3965(2)
C33_4 C 0.37308(15) 0.45147(8) 0.0358(3)
H22_4 H 0.349067 0.461378 0.093284
C35_2 C 0.51201(16) 0.32314(8) 0.0839(3)
H26_2 H 0.534860 0.333682 0.180843
C36_4 C 0.28325(15) 0.13152(9) 0.3923(3)
C37_4 C 0.32204(16) 0.13621(8) 0.2965(3)
C38_4 C 0.39887(16) 0.17865(8) 0.2064(3)
H27_4 H 0.427098 0.205220 0.205616
C39_4 C 0.39287(16) 0.14223(8) 0.1174(3)
C40_4 C 0.35182(18) 0.10301(9) 0.1154(3)
H28_4 H 0.347422 0.078734 0.052690
C41_4 C 0.31718(17) 0.10009(9) 0.2076(3)
H29_4 H 0.290045 0.073220 0.209792
H31_4 H 0.478623 0.082939 0.026519
C44_4 C 0.36312(15) 0.17564(8) 0.2962(3)
H32_4 H 0.366516 0.200237 0.357112
O19_2 O 0.22077(12) 0.66435(6) 0.0318(2)
O21_2 O 0.24800(13) 0.59425(6) 0.1035(2)
O1_4 O 0.11721(11) 0.13393(6) 0.44681(19)
C1_4 C 0.15007(15) 0.02834(8) 0.5716(3)
O2_4 O 0.18201(13) 0.03941(6) 0.4923(2)
O3_4 O 0.30989(12) 0.09902(7) 0.7189(2)
O4_4 O 0.14604(12) 0.05700(6) 0.65780(19)
N1_4 N 0.03976(13) 0.84746(7) 0.5336(2)
Cd1_4 Cd -0.000000 0.72674(2) 0.750000
C2_4 C 0.08308(16) 0.96730(8) 0.6429(3)
H1_4 H 0.076770 0.987875 0.706661
N3_4 N 0.01816(13) 0.78166(7) 0.6041(2)
C3_4 C 0.11883(14) 0.98143(8) 0.5593(3)
C4_4 C 0.05665(17) 0.92300(8) 0.6328(3)
H2_4 H 0.032388 0.913032 0.689863
N4_4 N 0.07030(13) 0.64553(7) 0.4759(2)
C5_4 C 0.06593(15) 0.89357(7) 0.5393(3)
N5_4 N 0.02772(13) 0.67375(7) 0.6211(2)
C6_4 C 0.10012(16) 0.90722(8) 0.4528(3)
H3_4 H 0.105035 0.886736 0.387421
N6_4 N 0.00256(14) 0.62897(7) 0.5949(2)
C7_4 C 0.12692(15) 0.95147(8) 0.4642(3)
H4_4 H 0.150933 0.961378 0.406716
C8_4 C 0.05632(16) 0.82014(8) 0.6485(3)
H5_4 H 0.090597 0.827836 0.746761
O9_4 O 0.13780(11) 0.74313(6) 0.9081(2)
H6_4 H 0.143332 0.761059 0.982903
H7_4 H 0.166522 0.717469 0.946844
C10_4 C 0.21675(15) 0.63152(9) 0.1077(3)
C11_4 C 0.17796(16) 0.63621(8) 0.2035(3)
C12_4 C 0.10113(16) 0.67865(8) 0.2936(3)
H9_4 H 0.072902 0.705220 0.294384
C13_4 C 0.10713(16) 0.64223(8) 0.3826(3)
C14_4 C 0.14818(18) 0.60301(9) 0.3846(3)
H10_4 H 0.152578 0.578734 0.447310
C15_4 C 0.18282(17) 0.60009(9) 0.2924(3)
H11_4 H 0.209955 0.573220 0.290208
C16_4 C 0.06723(16) 0.68263(8) 0.5486(3)
H12_4 H 0.090402 0.711055 0.547306
C17_4 C 0.02930(17) 0.61307(8) 0.5088(3)
H13_4 H 0.021377 0.582939 0.473481
C22_4 C 0.13688(15) 0.67564(8) 0.2038(3)
H16_4 H 0.133484 0.700237 0.142888
Cd1_5 Cd 0.000000 0.27326(2) 0.250000
N2_3 N 0.02626(14) 0.21662(7) 0.5460(2)
C9_3 C 0.01201(16) 0.17686(8) 0.5839(3)
H8_3 H 0.034860 0.166318 0.680843
N7_3 N 0.03976(13) 0.15254(7) 0.0336(2)
C28_3 C 0.08308(16) 0.03270(8) 0.1429(3)
H19_3 H 0.076770 0.012125 0.206661
N9_3 N 0.01816(13) 0.21834(7) 0.1041(2)
C29_3 C 0.11883(14) 0.01857(8) 0.0593(3)
C30_3 C 0.05665(17) 0.07700(8) 0.1328(3)
H20_3 H 0.032388 0.086968 0.189863
C31_3 C 0.06593(15) 0.10643(7) 0.0393(3)
N11_3 N 0.02772(13) 0.32625(7) 0.1211(2)
N12_3 N 0.00256(14) 0.37103(7) 0.0949(2)
C34_3 C 0.05632(16) 0.17986(8) 0.1485(3)
H23_3 H 0.090597 0.172164 0.246761
O18_3 O 0.13780(11) 0.25687(6) 0.4081(2)
H24_3 H 0.143332 0.238941 0.482903
H25_3 H 0.166522 0.282531 0.446844
C42_3 C 0.06723(16) 0.31737(8) 0.0486(3)
H30_3 H 0.090402 0.288945 0.047306
C43_3 C 0.02930(17) 0.38693(8) 0.0088(3)
N8_3 N 0.97374(14) 0.21662(7) 0.9540(2)
C35_3 C 0.98799(16) 0.17686(8) 0.9161(3)
H26_3 H 0.965140 0.166318 0.819157
N8_4 N 0.02626(14) 0.78338(7) 0.0460(2)
C35_4 C 0.01201(16) 0.82314(8) 0.0839(3)
H26_4 H 0.034860 0.833682 0.180843
Cd1_6 Cd 1.000000 0.72674(2) 0.750000
N2_4 N 0.97374(14) 0.78338(7) 0.4540(2)
C9_4 C 0.98799(16) 0.82314(8) 0.4161(3)
H8_4 H 0.965140 0.833682 0.319157
N7_4 N 0.96024(13) 0.84746(7) 0.9664(2)
C28_4 C 0.91692(16) 0.96730(8) 0.8571(3)
H19_4 H 0.923230 0.987875 0.793339
N9_4 N 0.98184(13) 0.78166(7) 0.8959(2)
C29_4 C 0.88117(14) 0.98143(8) 0.9407(3)
C30_4 C 0.94335(17) 0.92300(8) 0.8672(3)
H20_4 H 0.967612 0.913032 0.810137
C31_4 C 0.93407(15) 0.89357(7) 0.9607(3)
N11_4 N 0.97228(13) 0.67375(7) 0.8789(2)
N12_4 N 0.99744(14) 0.62897(7) 0.9051(2)
C34_4 C 0.94368(16) 0.82014(8) 0.8515(3)
H23_4 H 0.909403 0.827836 0.753239
O18_4 O 0.86220(11) 0.74313(6) 0.5919(2)
H24_4 H 0.856668 0.761059 0.517097
H25_4 H 0.833478 0.717469 0.553156
C42_4 C 0.93277(16) 0.68263(8) 0.9514(3)
H30_4 H 0.909598 0.711055 0.952694
C43_4 C 0.97070(17) 0.61307(8) 0.9912(3)
loop_
_geom_bond_atom_site_label_1
_geom_bond_atom_site_label_2
_geom_bond_site_symmetry_1
_geom_bond_site_symmetry_2
O14 U4 1_555 1_555
O15 U4 1_555 1_555
O23 U4 1_555 1_555
O24 U4 1_555 1_555
C27 O15 1_555 1_555
H15 C21 1_555 1_555
O10 C23 1_555 1_555
O11 C23 1_555 1_555
C23 C24 1_555 1_555
C24 C21 1_555 1_555
C25 C24 1_555 1_555
H17 C25 1_555 1_555
U5 O10 1_555 1_555
O11 U5 1_555 1_555
C18 O23 1_555 1_555
C19 C18 1_555 1_555
C20 C19 1_555 1_555
H14 C20 1_555 1_555
C21_2 C20 1_555 1_555
H15_2 C21_2 1_555 1_555
O10_2 C23_2 1_555 1_555
O11_2 C23_2 1_555 1_555
C23_2 C24_2 1_555 1_555
C24_2 C21_2 1_555 1_555
C25_2 C24_2 1_555 1_555
H17_2 C25_2 1_555 1_555
C26 C19 1_555 1_555
H18 C26 1_555 1_555
U5_2 O10_2 1_555 1_555
O24 C18 1_555 1_555
O11_2 U5_2 1_555 1_555
C25_2 C26 1_555 1_555
U5 O1 1_555 1_555
C1 O2 1_555 1_555
N1 C5 1_555 1_555
Cd1 N3 1_555 1_555
O2 U5 1_555 1_555
C2 H1 1_555 1_555
N2 N3 1_555 1_555
N3 C8 1_555 1_555
O3 U5 1_555 1_555
C3 C1 1_555 1_555
O4 U5 1_555 1_555
C4 C2 1_555 1_555
H2 C4 1_555 1_555
N4 C13 1_555 1_555
C5 C4 1_555 1_555
N5 Cd1 1_555 1_555
O5 C10 1_555 1_555
C6 C5 1_555 1_555
H3 C6 1_555 1_555
N6 N5 1_555 1_555
O6 C10 1_555 1_555
C7 C3 1_555 1_555
H4 C7 1_555 1_555
C8 N1 1_555 1_555
H5 C8 1_555 1_555
O9 Cd1 1_555 1_555
H6 O9 1_555 1_555
H7 O9 1_555 1_555
C9 N1 1_555 1_555
H8 C9 1_555 1_555
C10 C11 1_555 1_555
C11 C15 1_555 1_555
C12 H9 1_555 1_555
C13 C12 1_555 1_555
C14 C13 1_555 1_555
H10 C14 1_555 1_555
C15 C14 1_555 1_555
H11 C15 1_555 1_555
C16 N4 1_555 1_555
H12 C16 1_555 1_555
C17 N4 1_555 1_555
H13 C17 1_555 1_555
C22 C11 1_555 1_555
H16 C22 1_555 1_555
N7 C31 1_555 1_555
C28 H19 1_555 1_555
N9 Cd1 1_555 1_555
O14_2 U5_2 1_555 1_555
C29 C27_2 1_555 1_555
O15_2 U5_2 1_555 1_555
C30 C28 1_555 1_555
H20 C30 1_555 1_555
C31 C30 1_555 1_555
N11 Cd1 1_555 1_555
N12 N11 1_555 1_555
C34 N7 1_555 1_555
H23 C34 1_555 1_555
O18 Cd1 1_555 1_555
H24 O18 1_555 1_555
H25 O18 1_555 1_555
H30 C42 1_555 1_555
O20 U5 1_555 1_555
O22 U5 1_555 1_555
C1 O4 1_555 1_555
C2 C3 1_555 1_555
N2 C9 1_555 1_555
N5 C16 1_555 1_555
C6 C7 1_555 1_555
N6 C17 1_555 1_555
C12 C22 1_555 1_555
C27_2 O15_2 1_555 1_555
C28 C29 1_555 1_555
N9 C34 1_555 1_555
N11 C42 1_555 1_555
N12 C43 1_555 1_555
N10 C39 1_555 1_555
O20 C36 1_555 1_555
H21 C32 1_555 1_555
O22 C36 1_555 1_555
H22 C33 1_555 1_555
C36 C37 1_555 1_555
C37 C41 1_555 1_555
C38 H27 1_555 1_555
C39 C38 1_555 1_555
C40 C39 1_555 1_555
H28 C40 1_555 1_555
C41 C40 1_555 1_555
H29 C41 1_555 1_555
C44 C37 1_555 1_555
H32 C44 1_555 1_555
C32 C33 1_555 1_555
C38 C44 1_555 1_555
U1 O1_2 1_555 1_555
C1_2 O2_2 1_555 1_555
N1_2 C5_2 1_555 1_555
Cd1_2 N3_2 1_555 1_555
O2_2 U1 1_555 1_555
C2_2 H1_2 1_555 1_555
N2_2 N3_2 1_555 1_555
N3_2 C8_2 1_555 1_555
O3_2 U1 1_555 1_555
C3_2 C1_2 1_555 1_555
O4_2 U1 1_555 1_555
C4_2 C2_2 1_555 1_555
H2_2 C4_2 1_555 1_555
N4_2 C13_2 1_555 1_555
C5_2 C4_2 1_555 1_555
N5_2 Cd1_2 1_555 1_555
O5_2 C10_2 1_555 1_555
C6_2 C5_2 1_555 1_555
H3_2 C6_2 1_555 1_555
N6_2 N5_2 1_555 1_555
O6_2 C10_2 1_555 1_555
C7_2 C3_2 1_555 1_555
H4_2 C7_2 1_555 1_555
O7 U1 1_555 1_555
C8_2 N1_2 1_555 1_555
H5_2 C8_2 1_555 1_555
O8 U1 1_555 1_555
O9_2 Cd1_2 1_555 1_555
H6_2 O9_2 1_555 1_555
H7_2 O9_2 1_555 1_555
C9_2 N1_2 1_555 1_555
H8_2 C9_2 1_555 1_555
C10_2 C11_2 1_555 1_555
C11_2 C15_2 1_555 1_555
C12_2 H9_2 1_555 1_555
C13_2 C12_2 1_555 1_555
C14_2 C13_2 1_555 1_555
H10_2 C14_2 1_555 1_555
C15_2 C14_2 1_555 1_555
H11_2 C15_2 1_555 1_555
C16_2 N4_2 1_555 1_555
H12_2 C16_2 1_555 1_555
C17_2 N4_2 1_555 1_555
H13_2 C17_2 1_555 1_555
C18_2 O7 1_555 1_555
C19_2 C18_2 1_555 1_555
C20_2 C19_2 1_555 1_555
H14_2 C20_2 1_555 1_555
C22_2 C11_2 1_555 1_555
H16_2 C22_2 1_555 1_555
C26_2 C19_2 1_555 1_555
H18_2 C26_2 1_555 1_555
N7_2 C31_2 1_555 1_555
C28_2 H19_2 1_555 1_555
N9_2 Cd1_2 1_555 1_555
O14_3 U2 1_555 1_555
C29_2 C27_3 1_555 1_555
O15_3 U2 1_555 1_555
C30_2 C28_2 1_555 1_555
H20_2 C30_2 1_555 1_555
C31_2 C30_2 1_555 1_555
N11_2 Cd1_2 1_555 1_555
N12_2 N11_2 1_555 1_555
C34_2 N7_2 1_555 1_555
H23_2 C34_2 1_555 1_555
O18_2 Cd1_2 1_555 1_555
H24_2 O18_2 1_555 1_555
H25_2 O18_2 1_555 1_555
H30_2 C42_2 1_555 1_555
O20_2 U1 1_555 1_555
O22_2 U1 1_555 1_555
O23_2 U2 1_555 1_555
O24_2 U2 1_555 1_555
C1_2 O4_2 1_555 1_555
C2_2 C3_2 1_555 1_555
N2_2 C9_2 1_555 1_555
N5_2 C16_2 1_555 1_555
C6_2 C7_2 1_555 1_555
N6_2 C17_2 1_555 1_555
O8 C18_2 1_555 1_555
C12_2 C22_2 1_555 1_555
C27_3 O15_3 1_555 1_555
C28_2 C29_2 1_555 1_555
N9_2 C34_2 1_555 1_555
N11_2 C42_2 1_555 1_555
N12_2 C43_2 1_555 1_555
C18_3 O23_2 1_555 1_555
C19_3 C18_3 1_555 1_555
C20_3 C19_3 1_555 1_555
H14_3 C20_3 1_555 1_555
C21_3 C20_3 1_555 1_555
H15_3 C21_3 1_555 1_555
O10_3 C23_3 1_555 1_555
O11_3 C23_3 1_555 1_555
C23_3 C24_3 1_555 1_555
C24_3 C21_3 1_555 1_555
C25_3 C24_3 1_555 1_555
H17_3 C25_3 1_555 1_555
C26_3 C19_3 1_555 1_555
H18_3 C26_3 1_555 1_555
U5_3 O10_3 1_555 1_555
O24_2 C18_3 1_555 1_555
O11_3 U5_3 1_555 1_555
C25_3 C26_3 1_555 1_555
N10_2 C39_2 1_555 1_555
O20_2 C36_2 1_555 1_555
H21_2 C32_2 1_555 1_555
O22_2 C36_2 1_555 1_555
H22_2 C33_2 1_555 1_555
C36_2 C37_2 1_555 1_555
C37_2 C41_2 1_555 1_555
C38_2 H27_2 1_555 1_555
C39_2 C38_2 1_555 1_555
C40_2 C39_2 1_555 1_555
H28_2 C40_2 1_555 1_555
C41_2 C40_2 1_555 1_555
H29_2 C41_2 1_555 1_555
C44_2 C37_2 1_555 1_555
H32_2 C44_2 1_555 1_555
C32_2 C33_2 1_555 1_555
C38_2 C44_2 1_555 1_555
O14_4 U5_3 1_555 1_555
O15_4 U5_3 1_555 1_555
C27_4 O15_4 1_555 1_555
H15_4 C21_4 1_555 1_555
O10_4 C23_4 1_555 1_555
O11_4 C23_4 1_555 1_555
C23_4 C24_4 1_555 1_555
C24_4 C21_4 1_555 1_555
C25_4 C24_4 1_555 1_555
H17_4 C25_4 1_555 1_555
N10_3 C39_3 1_555 1_555
O16 C36_3 1_555 1_555
H21_3 C32_3 1_555 1_555
O17 C36_3 1_555 1_555
H22_3 C33_3 1_555 1_555
H26 C35 1_555 1_555
C36_3 C37_3 1_555 1_555
C37_3 C41_3 1_555 1_555
C38_3 H27_3 1_555 1_555
C39_3 C38_3 1_555 1_555
C40_3 C39_3 1_555 1_555
H28_3 C40_3 1_555 1_555
C41_3 C40_3 1_555 1_555
H29_3 C41_3 1_555 1_555
C44_3 C37_3 1_555 1_555
H32_3 C44_3 1_555 1_555
U3 O16 1_555 1_555
U5_4 O10_4 1_555 1_555
O11_4 U5_4 1_555 1_555
N8 C35 1_555 1_555
C32_3 C33_3 1_555 1_555
O17 U3 1_555 1_555
C38_3 C44_3 1_555 1_555
N1_3 C5_3 1_555 1_555
Cd1_3 N3_3 1_555 1_555
C2_3 H1_3 1_555 1_555
N3_3 C8_3 1_555 1_555
C4_3 C2_3 1_555 1_555
H2_3 C4_3 1_555 1_555
N4_3 C13_3 1_555 1_555
C5_3 C4_3 1_555 1_555
N5_3 Cd1_3 1_555 1_555
O19 C10_3 1_555 1_555
C6_3 C5_3 1_555 1_555
H3_3 C6_3 1_555 1_555
N6_3 N5_3 1_555 1_555
O21 C10_3 1_555 1_555
C7_3 C3_3 1_555 1_555
H4_3 C7_3 1_555 1_555
C8_3 N1_3 1_555 1_555
H5_3 C8_3 1_555 1_555
O9_3 Cd1_3 1_555 1_555
H6_3 O9_3 1_555 1_555
H7_3 O9_3 1_555 1_555
C10_3 C11_3 1_555 1_555
C11_3 C15_3 1_555 1_555
C12_3 H9_3 1_555 1_555
C13_3 C12_3 1_555 1_555
C14_3 C13_3 1_555 1_555
H10_3 C14_3 1_555 1_555
C15_3 C14_3 1_555 1_555
H11_3 C15_3 1_555 1_555
C16_3 N4_3 1_555 1_555
H12_3 C16_3 1_555 1_555
C17_3 N4_3 1_555 1_555
H13_3 C17_3 1_555 1_555
C22_3 C11_3 1_555 1_555
H16_3 C22_3 1_555 1_555
C2_3 C3_3 1_555 1_555
N5_3 C16_3 1_555 1_555
C6_3 C7_3 1_555 1_555
N6_3 C17_3 1_555 1_555
C12_3 C22_3 1_555 1_555
U3 O1_3 1_555 1_555
C1_3 O2_3 1_555 1_555
O2_3 U3 1_555 1_555
O3_3 U3 1_555 1_555
O4_3 U3 1_555 1_555
O7_2 U3 1_555 1_555
O8_2 U3 1_555 1_555
C18_4 O7_2 1_555 1_555
C19_4 C18_4 1_555 1_555
C20_4 C19_4 1_555 1_555
H14_4 C20_4 1_555 1_555
C26_4 C19_4 1_555 1_555
H18_4 C26_4 1_555 1_555
C1_3 O4_3 1_555 1_555
O8_2 C18_4 1_555 1_555
N10_4 C39_4 1_555 1_555
O16_2 C36_4 1_555 1_555
H21_4 C32_4 1_555 1_555
O17_2 C36_4 1_555 1_555
H22_4 C33_4 1_555 1_555
H26_2 C35_2 1_555 1_555
C36_4 C37_4 1_555 1_555
C37_4 C41_4 1_555 1_555
C38_4 H27_4 1_555 1_555
C39_4 C38_4 1_555 1_555
C40_4 C39_4 1_555 1_555
H28_4 C40_4 1_555 1_555
C41_4 C40_4 1_555 1_555
H29_4 C41_4 1_555 1_555
C44_4 C37_4 1_555 1_555
H32_4 C44_4 1_555 1_555
U5_4 O16_2 1_555 1_555
N8_2 C35_2 1_555 1_555
C32_4 C33_4 1_555 1_555
O17_2 U5_4 1_555 1_555
C38_4 C44_4 1_555 1_555
U5_4 O1_4 1_555 1_555
C1_4 O2_4 1_555 1_555
O2_4 U5_4 1_555 1_555
O3_4 U5_4 1_555 1_555
O4_4 U5_4 1_555 1_555
C1_4 O4_4 1_555 1_555
N1_4 C5_4 1_555 1_555
Cd1_4 N3_4 1_555 1_555
C2_4 H1_4 1_555 1_555
N3_4 C8_4 1_555 1_555
C4_4 C2_4 1_555 1_555
H2_4 C4_4 1_555 1_555
N4_4 C13_4 1_555 1_555
C5_4 C4_4 1_555 1_555
N5_4 Cd1_4 1_555 1_555
O19_2 C10_4 1_555 1_555
C6_4 C5_4 1_555 1_555
H3_4 C6_4 1_555 1_555
N6_4 N5_4 1_555 1_555
O21_2 C10_4 1_555 1_555
C7_4 C3_4 1_555 1_555
H4_4 C7_4 1_555 1_555
C8_4 N1_4 1_555 1_555
H5_4 C8_4 1_555 1_555
O9_4 Cd1_4 1_555 1_555
H6_4 O9_4 1_555 1_555
H7_4 O9_4 1_555 1_555
C10_4 C11_4 1_555 1_555
C11_4 C15_4 1_555 1_555
C12_4 H9_4 1_555 1_555
C13_4 C12_4 1_555 1_555
C14_4 C13_4 1_555 1_555
H10_4 C14_4 1_555 1_555
C15_4 C14_4 1_555 1_555
H11_4 C15_4 1_555 1_555
C16_4 N4_4 1_555 1_555
H12_4 C16_4 1_555 1_555
C17_4 N4_4 1_555 1_555
H13_4 C17_4 1_555 1_555
C22_4 C11_4 1_555 1_555
H16_4 C22_4 1_555 1_555
C2_4 C3_4 1_555 1_555
N5_4 C16_4 1_555 1_555
C6_4 C7_4 1_555 1_555
N6_4 C17_4 1_555 1_555
C12_4 C22_4 1_555 1_555
H8_3 C9_3 1_555 1_555
N7_3 C31_3 1_555 1_555
C28_3 H19_3 1_555 1_555
N9_3 Cd1_5 1_555 1_555
C30_3 C28_3 1_555 1_555
H20_3 C30_3 1_555 1_555
C31_3 C30_3 1_555 1_555
N11_3 Cd1_5 1_555 1_555
N12_3 N11_3 1_555 1_555
C34_3 N7_3 1_555 1_555
H23_3 C34_3 1_555 1_555
O18_3 Cd1_5 1_555 1_555
H24_3 O18_3 1_555 1_555
H25_3 O18_3 1_555 1_555
H30_3 C42_3 1_555 1_555
N2_3 C9_3 1_555 1_555
C28_3 C29_3 1_555 1_555
N9_3 C34_3 1_555 1_555
N11_3 C42_3 1_555 1_555
N12_3 C43_3 1_555 1_555
H26_3 C35_3 1_555 1_555
N8_3 C35_3 1_555 1_555
H26_4 C35_4 1_555 1_555
N8_4 C35_4 1_555 1_555
H8_4 C9_4 1_555 1_555
N7_4 C31_4 1_555 1_555
C28_4 H19_4 1_555 1_555
N9_4 Cd1_6 1_555 1_555
C30_4 C28_4 1_555 1_555
H20_4 C30_4 1_555 1_555
C31_4 C30_4 1_555 1_555
N11_4 Cd1_6 1_555 1_555
N12_4 N11_4 1_555 1_555
C34_4 N7_4 1_555 1_555
H23_4 C34_4 1_555 1_555
O18_4 Cd1_6 1_555 1_555
H24_4 O18_4 1_555 1_555
H25_4 O18_4 1_555 1_555
H30_4 C42_4 1_555 1_555
N2_4 C9_4 1_555 1_555
C28_4 C29_4 1_555 1_555
N9_4 C34_4 1_555 1_555
N11_4 C42_4 1_555 1_555
N12_4 C43_4 1_555 1_555

#END
