
###############################################################################
#
# This file contains modified crystal structure data generated from the
# MOF subset of the Cambridge Structural Database (CSD) v543 
# hosted by the Cambridge Crystallographic Data Centre (CCDC).
#
# This work is licensed under the Creative Commons
# Attribution-NonCommercial-ShareAlike 4.0 International License.
# To view a copy of this license, visit
# http://creativecommons.org/licenses/by-nc-sa/4.0/
# or send a letter to
# Creative Commons, PO Box 1866, Mountain View, CA 94042, USA.
#
# CIF created using the CSD Python API on 29 September 2022
# The structure has been converted into the P1 space group
# The structure has a 3D framework
# The original CSD entry XIKVIZ is in the orthorhombic crystal system
# The framework has been calculated to contain at least 10.0% void space
# The void calculation uses a probe of radius 1.32A, grid spacing 0.4
#
###############################################################################

data_XIKVIZ
_chemical_formula_moiety         '(C256 H136 Co14 Mo112 N36 O434 P18 Zn48)n'
_symmetry_cell_setting           triclinic
_symmetry_space_group_name_H-M   'P 1'
_symmetry_Int_Tables_number      1
_space_group_name_Hall           'P 1'
loop_
_symmetry_equiv_pos_site_id
_symmetry_equiv_pos_as_xyz
1 x,y,z
_cell_length_a                   17.386(4)
_cell_length_b                   23.565(6)
_cell_length_c                   45.325(11)
_cell_angle_alpha                90
_cell_angle_beta                 90
_cell_angle_gamma                90
_cell_volume                     18569.7
loop_
_atom_site_label
_atom_site_type_symbol
_atom_site_fract_x
_atom_site_fract_y
_atom_site_fract_z
Mo1 Mo 0.500000 0.06795(3) 0.29993(2)
Mo2 Mo 0.60104(3) 0.13035(2) 0.24349(2)
Mo3 Mo 0.67644(3) 0.07435(2) 0.20292(2)
Mo4 Mo 0.59141(4) -0.000000 0.14646(2)
Zn1 Zn 0.66837(5) -0.000000 0.27457(2)
Zn2 Zn 0.500000 0.12561(5) 0.17084(3)
P1 P 0.500000 -0.000000 0.22316(6)
O1 O 0.7358(3) -0.000000 0.20242(12)
O2 O 0.6665(2) 0.06269(17) 0.24530(9)
O3 O 0.5700(3) -0.000000 0.29638(13)
O4 O 0.500000 0.1708(3) 0.24475(15)
O5 O 0.500000 0.0544(2) 0.24286(13)
O6 O 0.5742(3) -0.000000 0.20379(12)
O7 O 0.5849(2) 0.12385(18) 0.20134(10)
O8 O 0.500000 0.0514(3) 0.15053(14)
O9 O 0.7507(3) 0.11870(19) 0.19830(10)
O10 O 0.5790(2) 0.11118(18) 0.28638(10)
O11 O 0.6516(2) 0.0579(2) 0.16013(10)
O12 O 0.500000 0.0784(3) 0.33653(14)
Co1 Co 0.500000 0.500000 0.000000
N1 N 0.500000 0.4165(5) 0.000000
N2 N 0.500000 0.500000 0.0438(3)
O13 O 0.6608(2) 0.18569(18) 0.24799(12)
C1 C 0.500000 0.4536(5) 0.0620(2)
C2 C 0.500000 0.3977(5) 0.0536(3)
C3 C 0.500000 0.4710(5) 0.0919(3)
H1 H 0.500000 0.447414 0.108361
C4 C 0.500000 0.3816(5) 0.0244(3)
C5 C 0.500000 0.3518(6) 0.0769(3)
O14 O 0.5602(8) 0.1853(4) 0.1421(2)
C6 C 0.500000 0.2077(8) 0.1347(5)
C7 C 0.500000 0.2574(8) 0.1145(5)
C8 C 0.500000 0.3233(6) 0.0149(3)
H2 H 0.500000 0.291517 0.026982
C9 C 0.5658(10) 0.3287(6) 0.0869(3)
H3 H 0.612402 0.344188 0.080806
C10 C 0.5663(11) 0.2822(6) 0.1061(4)
H4 H 0.612892 0.268274 0.113174
O15 O 0.6067(4) -0.000000 0.11010(15)
O16 O 0.628(2) 0.500000 0.000000
H5 H 0.655867 0.500000 0.015310
O18 O 0.4258(3) -0.000000 0.20379(12)
N3 N 0.500000 0.5835(5) 0.000000
C11 C 0.500000 0.5464(5) 0.0620(2)
C12 C 0.500000 0.6023(5) 0.0536(3)
C13 C 0.500000 0.5290(5) 0.0919(3)
H6 H 0.500000 0.552586 0.108361
C14 C 0.500000 0.6184(5) 0.0244(3)
C15 C 0.500000 0.6482(6) 0.0769(3)
O19 O 0.4398(8) 0.8147(4) 0.1421(2)
C16 C 0.500000 0.7923(8) 0.1347(5)
C17 C 0.500000 0.7426(8) 0.1145(5)
C18 C 0.500000 0.6767(6) 0.0149(3)
H7 H 0.500000 0.708483 0.026982
C19 C 0.4342(10) 0.6713(6) 0.0869(3)
H8 H 0.387598 0.655812 0.080806
C20 C 0.4337(11) 0.7178(6) 0.1061(4)
H9 H 0.387108 0.731726 0.113174
O22 O 0.4398(8) 0.1853(4) 0.1421(2)
C33 C 0.4342(10) 0.3287(6) 0.0869(3)
H16 H 0.387598 0.344188 0.080806
C34 C 0.4337(11) 0.2822(6) 0.1061(4)
H17 H 0.387108 0.268274 0.113174
O23 O 0.5602(8) 0.8147(4) 0.1421(2)
C35 C 0.5658(10) 0.6713(6) 0.0869(3)
H18 H 0.612402 0.655812 0.080806
C36 C 0.5663(11) 0.7178(6) 0.1061(4)
H19 H 0.612892 0.731726 0.113174
Mo8 Mo 0.40859(4) -0.000000 0.14646(2)
Zn3 Zn 0.33163(5) -0.000000 0.27457(2)
O26 O 0.2642(3) -0.000000 0.20242(12)
O28 O 0.4300(3) -0.000000 0.29638(13)
O37 O 0.3933(4) -0.000000 0.11010(15)
O66 O 0.372(2) 0.500000 0.000000
H28 H 0.344133 0.500000 0.015310
Mo21 Mo 0.39896(3) 0.13035(2) 0.24349(2)
Mo22 Mo 0.32356(3) 0.07435(2) 0.20292(2)
O79 O 0.3335(2) 0.06269(17) 0.24530(9)
O80 O 0.4151(2) 0.12385(18) 0.20134(10)
O81 O 0.2493(3) 0.11870(19) 0.19830(10)
O82 O 0.4210(2) 0.11118(18) 0.28638(10)
O83 O 0.3484(2) 0.0579(2) 0.16013(10)
O84 O 0.3392(2) 0.18569(18) 0.24799(12)
Zn11 Zn 0.16837(5) -0.000000 0.22543(2)
Zn12 Zn 0.83163(5) -0.000000 0.22543(2)
Zn13 Zn 0.500000 0.87439(5) 0.17084(3)
O93 O 0.2358(3) -0.000000 0.29758(12)
O94 O 0.7642(3) -0.000000 0.29758(12)
Co1_2 Co 0.500000 0.500000 1.000000
N1_2 N 0.500000 0.4165(5) 1.000000
O16_2 O 0.628(2) 0.500000 1.000000
N3_2 N 0.500000 0.5835(5) 1.000000
N4 N 0.500000 0.500000 0.9562(3)
C21 C 0.500000 0.4536(5) 0.9380(2)
C22 C 0.500000 0.3977(5) 0.9464(3)
C23 C 0.500000 0.4710(5) 0.9081(3)
H10 H 0.500000 0.447414 0.891639
C24 C 0.500000 0.3816(5) 0.9756(3)
C25 C 0.500000 0.3518(6) 0.9231(3)
O20 O 0.4398(8) 0.1853(4) 0.8579(2)
C26 C 0.500000 0.2077(8) 0.8653(5)
C27 C 0.500000 0.2574(8) 0.8855(5)
C28 C 0.500000 0.3233(6) 0.9851(3)
H11 H 0.500000 0.291517 0.973018
C29 C 0.4342(10) 0.3287(6) 0.9131(3)
H12 H 0.387598 0.344188 0.919194
C30 C 0.4337(11) 0.2822(6) 0.8939(4)
H13 H 0.387108 0.268274 0.886826
O21 O 0.5602(8) 0.1853(4) 0.8579(2)
C31 C 0.5658(10) 0.3287(6) 0.9131(3)
H14 H 0.612402 0.344188 0.919194
C32 C 0.5663(11) 0.2822(6) 0.8939(4)
H15 H 0.612892 0.268274 0.886826
C37 C 0.500000 0.5464(5) 0.9380(2)
C38 C 0.500000 0.6023(5) 0.9464(3)
C39 C 0.500000 0.5290(5) 0.9081(3)
H20 H 0.500000 0.552586 0.891639
C40 C 0.500000 0.6184(5) 0.9756(3)
C41 C 0.500000 0.6482(6) 0.9231(3)
O24 O 0.5602(8) 0.8147(4) 0.8579(2)
C42 C 0.500000 0.7923(8) 0.8653(5)
C43 C 0.500000 0.7426(8) 0.8855(5)
C44 C 0.500000 0.6767(6) 0.9851(3)
H21 H 0.500000 0.708483 0.973018
C45 C 0.5658(10) 0.6713(6) 0.9131(3)
H22 H 0.612402 0.655812 0.919194
C46 C 0.5663(11) 0.7178(6) 0.8939(4)
H23 H 0.612892 0.731726 0.886826
O25 O 0.4398(8) 0.8147(4) 0.8579(2)
C47 C 0.4342(10) 0.6713(6) 0.9131(3)
H24 H 0.387598 0.655812 0.919194
C48 C 0.4337(11) 0.7178(6) 0.8939(4)
H25 H 0.387108 0.731726 0.886826
H26 H 0.655867 0.500000 0.984690
Mo12 Mo 0.59141(4) -0.000000 0.85354(2)
Zn5 Zn 0.66837(5) -0.000000 0.72543(2)
P2 P 0.500000 -0.000000 0.77684(6)
O38 O 0.7358(3) -0.000000 0.79758(12)
O40 O 0.5700(3) -0.000000 0.70362(13)
O43 O 0.5742(3) -0.000000 0.79621(12)
O51 O 0.6067(4) -0.000000 0.88990(15)
O52 O 0.500000 0.0544(2) 0.75714(13)
O53 O 0.4258(3) -0.000000 0.79621(12)
Mo13 Mo 0.500000 0.06795(3) 0.70007(2)
Mo14 Mo 0.39896(3) 0.13035(2) 0.75651(2)
Mo15 Mo 0.32356(3) 0.07435(2) 0.79708(2)
Mo16 Mo 0.40859(4) -0.000000 0.85354(2)
Zn7 Zn 0.33163(5) -0.000000 0.72543(2)
Zn8 Zn 0.500000 0.12561(5) 0.82916(3)
O54 O 0.2642(3) -0.000000 0.79758(12)
O55 O 0.3335(2) 0.06269(17) 0.75470(9)
O56 O 0.4300(3) -0.000000 0.70362(13)
O57 O 0.500000 0.1708(3) 0.75525(15)
O58 O 0.4151(2) 0.12385(18) 0.79866(10)
O59 O 0.500000 0.0514(3) 0.84947(14)
O60 O 0.2493(3) 0.11870(19) 0.80170(10)
O61 O 0.4210(2) 0.11118(18) 0.71362(10)
O62 O 0.3484(2) 0.0579(2) 0.83987(10)
O63 O 0.500000 0.0784(3) 0.66347(14)
O64 O 0.3392(2) 0.18569(18) 0.75201(12)
O65 O 0.3933(4) -0.000000 0.88990(15)
O66_2 O 0.372(2) 0.500000 1.000000
H27 H 0.344133 0.500000 0.984690
Mo19 Mo 0.60104(3) 0.13035(2) 0.75651(2)
Mo20 Mo 0.67644(3) 0.07435(2) 0.79708(2)
O73 O 0.6665(2) 0.06269(17) 0.75470(9)
O74 O 0.5849(2) 0.12385(18) 0.79866(10)
O75 O 0.7507(3) 0.11870(19) 0.80170(10)
O76 O 0.5790(2) 0.11118(18) 0.71362(10)
O77 O 0.6516(2) 0.0579(2) 0.83987(10)
O78 O 0.6608(2) 0.18569(18) 0.75201(12)
Zn9 Zn 0.16837(5) -0.000000 0.77457(2)
Zn10 Zn 0.83163(5) -0.000000 0.77457(2)
Zn14 Zn 0.500000 0.87439(5) 0.82916(3)
O91 O 0.2358(3) -0.000000 0.70242(12)
O92 O 0.7642(3) -0.000000 0.70242(12)
Mo4_2 Mo 0.59141(4) 1.000000 0.14646(2)
Zn1_2 Zn 0.66837(5) 1.000000 0.27457(2)
P1_2 P 0.500000 1.000000 0.22316(6)
O1_2 O 0.7358(3) 1.000000 0.20242(12)
O3_2 O 0.5700(3) 1.000000 0.29638(13)
O6_2 O 0.5742(3) 1.000000 0.20379(12)
O15_2 O 0.6067(4) 1.000000 0.11010(15)
O17 O 0.500000 0.9456(2) 0.24286(13)
O18_2 O 0.4258(3) 1.000000 0.20379(12)
Mo5 Mo 0.500000 0.93205(3) 0.29993(2)
Mo6 Mo 0.39896(3) 0.86965(2) 0.24349(2)
Mo7 Mo 0.32356(3) 0.92565(2) 0.20292(2)
Mo8_2 Mo 0.40859(4) 1.000000 0.14646(2)
Zn3_2 Zn 0.33163(5) 1.000000 0.27457(2)
O26_2 O 0.2642(3) 1.000000 0.20242(12)
O27 O 0.3335(2) 0.93731(17) 0.24530(9)
O28_2 O 0.4300(3) 1.000000 0.29638(13)
O29 O 0.500000 0.8292(3) 0.24475(15)
O30 O 0.4151(2) 0.87615(18) 0.20134(10)
O31 O 0.500000 0.9486(3) 0.15053(14)
O32 O 0.2493(3) 0.88130(19) 0.19830(10)
O33 O 0.4210(2) 0.88882(18) 0.28638(10)
O34 O 0.3484(2) 0.9421(2) 0.16013(10)
O35 O 0.500000 0.9216(3) 0.33653(14)
O36 O 0.3392(2) 0.81431(18) 0.24799(12)
O37_2 O 0.3933(4) 1.000000 0.11010(15)
Mo23 Mo 0.60104(3) 0.86965(2) 0.24349(2)
Mo24 Mo 0.67644(3) 0.92565(2) 0.20292(2)
O85 O 0.6665(2) 0.93731(17) 0.24530(9)
O86 O 0.5849(2) 0.87615(18) 0.20134(10)
O87 O 0.7507(3) 0.88130(19) 0.19830(10)
O88 O 0.5790(2) 0.88882(18) 0.28638(10)
O89 O 0.6516(2) 0.9421(2) 0.16013(10)
O90 O 0.6608(2) 0.81431(18) 0.24799(12)
Zn11_2 Zn 0.16837(5) 1.000000 0.22543(2)
Zn12_2 Zn 0.83163(5) 1.000000 0.22543(2)
O93_2 O 0.2358(3) 1.000000 0.29758(12)
O94_2 O 0.7642(3) 1.000000 0.29758(12)
Mo9 Mo 0.500000 0.93205(3) 0.70007(2)
Mo10 Mo 0.60104(3) 0.86965(2) 0.75651(2)
Mo11 Mo 0.67644(3) 0.92565(2) 0.79708(2)
Mo12_2 Mo 0.59141(4) 1.000000 0.85354(2)
Zn5_2 Zn 0.66837(5) 1.000000 0.72543(2)
P2_2 P 0.500000 1.000000 0.77684(6)
O38_2 O 0.7358(3) 1.000000 0.79758(12)
O39 O 0.6665(2) 0.93731(17) 0.75470(9)
O40_2 O 0.5700(3) 1.000000 0.70362(13)
O41 O 0.500000 0.8292(3) 0.75525(15)
O42 O 0.500000 0.9456(2) 0.75714(13)
O43_2 O 0.5742(3) 1.000000 0.79621(12)
O44 O 0.5849(2) 0.87615(18) 0.79866(10)
O45 O 0.500000 0.9486(3) 0.84947(14)
O46 O 0.7507(3) 0.88130(19) 0.80170(10)
O47 O 0.5790(2) 0.88882(18) 0.71362(10)
O48 O 0.6516(2) 0.9421(2) 0.83987(10)
O49 O 0.500000 0.9216(3) 0.66347(14)
O50 O 0.6608(2) 0.81431(18) 0.75201(12)
O51_2 O 0.6067(4) 1.000000 0.88990(15)
O53_2 O 0.4258(3) 1.000000 0.79621(12)
Mo16_2 Mo 0.40859(4) 1.000000 0.85354(2)
Zn7_2 Zn 0.33163(5) 1.000000 0.72543(2)
O54_2 O 0.2642(3) 1.000000 0.79758(12)
O56_2 O 0.4300(3) 1.000000 0.70362(13)
O65_2 O 0.3933(4) 1.000000 0.88990(15)
Mo17 Mo 0.39896(3) 0.86965(2) 0.75651(2)
Mo18 Mo 0.32356(3) 0.92565(2) 0.79708(2)
O67 O 0.3335(2) 0.93731(17) 0.75470(9)
O68 O 0.4151(2) 0.87615(18) 0.79866(10)
O69 O 0.2493(3) 0.88130(19) 0.80170(10)
O70 O 0.4210(2) 0.88882(18) 0.71362(10)
O71 O 0.3484(2) 0.9421(2) 0.83987(10)
O72 O 0.3392(2) 0.81431(18) 0.75201(12)
Zn9_2 Zn 0.16837(5) 1.000000 0.77457(2)
Zn10_2 Zn 0.83163(5) 1.000000 0.77457(2)
O91_2 O 0.2358(3) 1.000000 0.70242(12)
O92_2 O 0.7642(3) 1.000000 0.70242(12)
Mo1_2 Mo -0.000000 0.06795(3) 0.79993(2)
Mo2_2 Mo 0.10104(3) 0.13035(2) 0.74349(2)
Mo3_2 Mo 0.17644(3) 0.07435(2) 0.70292(2)
Mo4_3 Mo 0.09141(4) -0.000000 0.64646(2)
Zn2_2 Zn 0.000000 0.12561(5) 0.67084(3)
P1_3 P -0.000000 -0.000000 0.72316(6)
O2_2 O 0.1665(2) 0.06269(17) 0.74530(9)
O3_3 O 0.0700(3) 0.000000 0.79638(13)
O4_2 O -0.000000 0.1708(3) 0.74475(15)
O5_2 O -0.000000 0.0544(2) 0.74286(13)
O6_3 O 0.0742(3) -0.000000 0.70379(12)
O7_2 O 0.0849(2) 0.12385(18) 0.70134(10)
O8_2 O 0.000000 0.0514(3) 0.65053(14)
O9_2 O 0.2507(3) 0.11870(19) 0.69830(10)
O10_2 O 0.0790(2) 0.11118(18) 0.78638(10)
O11_2 O 0.1516(2) 0.0579(2) 0.66013(10)
O12_2 O 0.000000 0.0784(3) 0.83653(14)
Co1_3 Co -0.000000 0.500000 0.500000
N1_3 N -0.000000 0.4165(5) 0.500000
N2_2 N -0.000000 0.500000 0.5438(3)
O13_2 O 0.1608(2) 0.18569(18) 0.74799(12)
C1_2 C -0.000000 0.4536(5) 0.5620(2)
C2_2 C -0.000000 0.3977(5) 0.5536(3)
C3_2 C -0.000000 0.4710(5) 0.5919(3)
H1_2 H -0.000000 0.447414 0.608361
C4_2 C -0.000000 0.3816(5) 0.5244(3)
C5_2 C -0.000000 0.3518(6) 0.5769(3)
O14_2 O 0.0602(8) 0.1853(4) 0.6421(2)
C6_2 C 0.000000 0.2077(8) 0.6347(5)
C7_2 C 0.000000 0.2574(8) 0.6145(5)
C8_2 C -0.000000 0.3233(6) 0.5149(3)
H2_2 H -0.000000 0.291517 0.526982
C9_2 C 0.0658(10) 0.3287(6) 0.5869(3)
H3_2 H 0.112402 0.344188 0.580806
C10_2 C 0.0663(11) 0.2822(6) 0.6061(4)
H4_2 H 0.112892 0.268274 0.613174
O15_3 O 0.1067(4) -0.000000 0.61010(15)
O16_3 O 0.128(2) 0.500000 0.500000
H5_2 H 0.155867 0.500000 0.515310
N3_3 N -0.000000 0.5835(5) 0.500000
C11_2 C -0.000000 0.5464(5) 0.5620(2)
C12_2 C -0.000000 0.6023(5) 0.5536(3)
C13_2 C -0.000000 0.5290(5) 0.5919(3)
H6_2 H -0.000000 0.552586 0.608361
C14_2 C 0.000000 0.6184(5) 0.5244(3)
C15_2 C 0.000000 0.6482(6) 0.5769(3)
C16_2 C 0.000000 0.7923(8) 0.6347(5)
C17_2 C 0.000000 0.7426(8) 0.6145(5)
C18_2 C -0.000000 0.6767(6) 0.5149(3)
H7_2 H -0.000000 0.708483 0.526982
N4_2 N -0.000000 0.500000 0.4562(3)
C21_2 C -0.000000 0.4536(5) 0.4380(2)
C22_2 C -0.000000 0.3977(5) 0.4464(3)
C23_2 C -0.000000 0.4710(5) 0.4081(3)
H10_2 H -0.000000 0.447414 0.391639
C24_2 C -0.000000 0.3816(5) 0.4756(3)
C25_2 C -0.000000 0.3518(6) 0.4231(3)
C26_2 C -0.000000 0.2077(8) 0.3653(5)
C27_2 C 0.000000 0.2574(8) 0.3855(5)
C28_2 C 0.000000 0.3233(6) 0.4851(3)
H11_2 H 0.000000 0.291517 0.473018
O21_2 O 0.0602(8) 0.1853(4) 0.3579(2)
C31_2 C 0.0658(10) 0.3287(6) 0.4131(3)
H14_2 H 0.112402 0.344188 0.419194
C32_2 C 0.0663(11) 0.2822(6) 0.3939(4)
H15_2 H 0.112892 0.268274 0.386826
O23_2 O 0.0602(8) 0.8147(4) 0.6421(2)
C35_2 C 0.0658(10) 0.6713(6) 0.5869(3)
H18_2 H 0.112402 0.655812 0.580806
C36_2 C 0.0663(11) 0.7178(6) 0.6061(4)
H19_2 H 0.112892 0.731726 0.613174
C37_2 C -0.000000 0.5464(5) 0.4380(2)
C38_2 C -0.000000 0.6023(5) 0.4464(3)
C39_2 C -0.000000 0.5290(5) 0.4081(3)
H20_2 H -0.000000 0.552586 0.391639
C40_2 C 0.000000 0.6184(5) 0.4756(3)
C41_2 C 0.000000 0.6482(6) 0.4231(3)
O24_2 O 0.0602(8) 0.8147(4) 0.3579(2)
C42_2 C 0.000000 0.7923(8) 0.3653(5)
C43_2 C -0.000000 0.7426(8) 0.3855(5)
C44_2 C -0.000000 0.6767(6) 0.4851(3)
H21_2 H 0.000000 0.708483 0.473018
C45_2 C 0.0658(10) 0.6713(6) 0.4131(3)
H22_2 H 0.112402 0.655812 0.419194
C46_2 C 0.0663(11) 0.7178(6) 0.3939(4)
H23_2 H 0.112892 0.731726 0.386826
H26_2 H 0.155867 0.500000 0.484690
Mo12_3 Mo 0.09141(4) -0.000000 0.35354(2)
P2_3 P 0.000000 0.000000 0.27684(6)
O40_3 O 0.0700(3) -0.000000 0.20362(13)
O43_3 O 0.0742(3) 0.000000 0.29621(12)
O51_3 O 0.1067(4) -0.000000 0.38990(15)
O52_2 O 0.000000 0.0544(2) 0.25714(13)
Mo13_2 Mo -0.000000 0.06795(3) 0.20007(2)
Zn8_2 Zn -0.000000 0.12561(5) 0.32916(3)
O57_2 O 0.000000 0.1708(3) 0.25525(15)
O59_2 O 0.000000 0.0514(3) 0.34947(14)
O63_2 O -0.000000 0.0784(3) 0.16347(14)
Mo19_2 Mo 0.10104(3) 0.13035(2) 0.25651(2)
Mo20_2 Mo 0.17644(3) 0.07435(2) 0.29708(2)
O73_2 O 0.1665(2) 0.06269(17) 0.25470(9)
O74_2 O 0.0849(2) 0.12385(18) 0.29866(10)
O75_2 O 0.2507(3) 0.11870(19) 0.30170(10)
O76_2 O 0.0790(2) 0.11118(18) 0.21362(10)
O77_2 O 0.1516(2) 0.0579(2) 0.33987(10)
O78_2 O 0.1608(2) 0.18569(18) 0.25201(12)
Zn13_2 Zn -0.000000 0.87439(5) 0.67084(3)
Zn14_2 Zn -0.000000 0.87439(5) 0.32916(3)
Mo4_4 Mo 0.09141(4) 1.000000 0.64646(2)
P1_4 P -0.000000 1.000000 0.72316(6)
O3_4 O 0.0700(3) 1.000000 0.79638(13)
O6_4 O 0.0742(3) 1.000000 0.70379(12)
O15_4 O 0.1067(4) 1.000000 0.61010(15)
O17_2 O -0.000000 0.9456(2) 0.74286(13)
Mo5_2 Mo -0.000000 0.93205(3) 0.79993(2)
O29_2 O -0.000000 0.8292(3) 0.74475(15)
O31_2 O 0.000000 0.9486(3) 0.65053(14)
O35_2 O 0.000000 0.9216(3) 0.83653(14)
Mo9_2 Mo 0.000000 0.93205(3) 0.20007(2)
Mo10_2 Mo 0.10104(3) 0.86965(2) 0.25651(2)
Mo11_2 Mo 0.17644(3) 0.92565(2) 0.29708(2)
Mo12_4 Mo 0.09141(4) 1.000000 0.35354(2)
P2_4 P 0.000000 1.000000 0.27684(6)
O39_2 O 0.1665(2) 0.93731(17) 0.25470(9)
O40_4 O 0.0700(3) 1.000000 0.20362(13)
O41_2 O 0.000000 0.8292(3) 0.25525(15)
O42_2 O -0.000000 0.9456(2) 0.25714(13)
O43_4 O 0.0742(3) 1.000000 0.29621(12)
O44_2 O 0.0849(2) 0.87615(18) 0.29866(10)
O45_2 O 0.000000 0.9486(3) 0.34947(14)
O46_2 O 0.2507(3) 0.88130(19) 0.30170(10)
O47_2 O 0.0790(2) 0.88882(18) 0.21362(10)
O48_2 O 0.1516(2) 0.9421(2) 0.33987(10)
O49_2 O -0.000000 0.9216(3) 0.16347(14)
O50_2 O 0.1608(2) 0.81431(18) 0.25201(12)
O51_4 O 0.1067(4) 1.000000 0.38990(15)
Mo23_2 Mo 0.10104(3) 0.86965(2) 0.74349(2)
Mo24_2 Mo 0.17644(3) 0.92565(2) 0.70292(2)
O85_2 O 0.1665(2) 0.93731(17) 0.74530(9)
O86_2 O 0.0849(2) 0.87615(18) 0.70134(10)
O87_2 O 0.2507(3) 0.88130(19) 0.69830(10)
O88_2 O 0.0790(2) 0.88882(18) 0.78638(10)
O89_2 O 0.1516(2) 0.9421(2) 0.66013(10)
O90_2 O 0.1608(2) 0.81431(18) 0.74799(12)
Mo1_3 Mo 1.000000 0.06795(3) 0.79993(2)
Zn2_3 Zn 1.000000 0.12561(5) 0.67084(3)
P1_5 P 1.000000 -0.000000 0.72316(6)
O4_3 O 1.000000 0.1708(3) 0.74475(15)
O5_3 O 1.000000 0.0544(2) 0.74286(13)
O8_3 O 1.000000 0.0514(3) 0.65053(14)
O12_3 O 1.000000 0.0784(3) 0.83653(14)
Co1_4 Co 1.000000 0.500000 0.500000
N1_4 N 1.000000 0.4165(5) 0.500000
N2_3 N 1.000000 0.500000 0.5438(3)
C1_3 C 1.000000 0.4536(5) 0.5620(2)
C2_3 C 1.000000 0.3977(5) 0.5536(3)
C3_3 C 1.000000 0.4710(5) 0.5919(3)
H1_3 H 1.000000 0.447414 0.608361
C4_3 C 1.000000 0.3816(5) 0.5244(3)
C5_3 C 1.000000 0.3518(6) 0.5769(3)
C6_3 C 1.000000 0.2077(8) 0.6347(5)
C7_3 C 1.000000 0.2574(8) 0.6145(5)
C8_3 C 1.000000 0.3233(6) 0.5149(3)
H2_3 H 1.000000 0.291517 0.526982
O18_3 O 0.9258(3) -0.000000 0.70379(12)
N3_4 N 1.000000 0.5835(5) 0.500000
C11_3 C 1.000000 0.5464(5) 0.5620(2)
C12_3 C 1.000000 0.6023(5) 0.5536(3)
C13_3 C 1.000000 0.5290(5) 0.5919(3)
H6_3 H 1.000000 0.552586 0.608361
C14_3 C 1.000000 0.6184(5) 0.5244(3)
C15_3 C 1.000000 0.6482(6) 0.5769(3)
O19_2 O 0.9398(8) 0.8147(4) 0.6421(2)
C16_3 C 1.000000 0.7923(8) 0.6347(5)
C17_3 C 1.000000 0.7426(8) 0.6145(5)
C18_3 C 1.000000 0.6767(6) 0.5149(3)
H7_3 H 1.000000 0.708483 0.526982
C19_2 C 0.9342(10) 0.6713(6) 0.5869(3)
H8_2 H 0.887598 0.655812 0.580806
C20_2 C 0.9337(11) 0.7178(6) 0.6061(4)
H9_2 H 0.887108 0.731726 0.613174
N4_3 N 1.000000 0.500000 0.4562(3)
C21_3 C 1.000000 0.4536(5) 0.4380(2)
C22_3 C 1.000000 0.3977(5) 0.4464(3)
C23_3 C 1.000000 0.4710(5) 0.4081(3)
H10_3 H 1.000000 0.447414 0.391639
C24_3 C 1.000000 0.3816(5) 0.4756(3)
C25_3 C 1.000000 0.3518(6) 0.4231(3)
O20_2 O 0.9398(8) 0.1853(4) 0.3579(2)
C26_3 C 1.000000 0.2077(8) 0.3653(5)
C27_3 C 1.000000 0.2574(8) 0.3855(5)
C28_3 C 1.000000 0.3233(6) 0.4851(3)
H11_3 H 1.000000 0.291517 0.473018
C29_2 C 0.9342(10) 0.3287(6) 0.4131(3)
H12_2 H 0.887598 0.344188 0.419194
C30_2 C 0.9337(11) 0.2822(6) 0.3939(4)
H13_2 H 0.887108 0.268274 0.386826
O22_2 O 0.9398(8) 0.1853(4) 0.6421(2)
C33_2 C 0.9342(10) 0.3287(6) 0.5869(3)
H16_2 H 0.887598 0.344188 0.580806
C34_2 C 0.9337(11) 0.2822(6) 0.6061(4)
H17_2 H 0.887108 0.268274 0.613174
C37_3 C 1.000000 0.5464(5) 0.4380(2)
C38_3 C 1.000000 0.6023(5) 0.4464(3)
C39_3 C 1.000000 0.5290(5) 0.4081(3)
H20_3 H 1.000000 0.552586 0.391639
C40_3 C 1.000000 0.6184(5) 0.4756(3)
C41_3 C 1.000000 0.6482(6) 0.4231(3)
C42_3 C 1.000000 0.7923(8) 0.3653(5)
C43_3 C 1.000000 0.7426(8) 0.3855(5)
C44_3 C 1.000000 0.6767(6) 0.4851(3)
H21_3 H 1.000000 0.708483 0.473018
O25_2 O 0.9398(8) 0.8147(4) 0.3579(2)
C47_2 C 0.9342(10) 0.6713(6) 0.4131(3)
H24_2 H 0.887598 0.655812 0.419194
C48_2 C 0.9337(11) 0.7178(6) 0.3939(4)
H25_2 H 0.887108 0.731726 0.386826
Mo8_3 Mo 0.90859(4) -0.000000 0.64646(2)
O28_3 O 0.9300(3) 0.000000 0.79638(13)
O37_3 O 0.8933(4) -0.000000 0.61010(15)
P2_5 P 1.000000 0.000000 0.27684(6)
O52_3 O 1.000000 0.0544(2) 0.25714(13)
O53_3 O 0.9258(3) 0.000000 0.29621(12)
Mo13_3 Mo 1.000000 0.06795(3) 0.20007(2)
Mo14_2 Mo 0.89896(3) 0.13035(2) 0.25651(2)
Mo15_2 Mo 0.82356(3) 0.07435(2) 0.29708(2)
Mo16_3 Mo 0.90859(4) -0.000000 0.35354(2)
Zn8_3 Zn 1.000000 0.12561(5) 0.32916(3)
O55_2 O 0.8335(2) 0.06269(17) 0.25470(9)
O56_3 O 0.9300(3) -0.000000 0.20362(13)
O57_3 O 1.000000 0.1708(3) 0.25525(15)
O58_2 O 0.9151(2) 0.12385(18) 0.29866(10)
O59_3 O 1.000000 0.0514(3) 0.34947(14)
O60_2 O 0.7493(3) 0.11870(19) 0.30170(10)
O61_2 O 0.9210(2) 0.11118(18) 0.21362(10)
O62_2 O 0.8484(2) 0.0579(2) 0.33987(10)
O63_3 O 1.000000 0.0784(3) 0.16347(14)
O64_2 O 0.8392(2) 0.18569(18) 0.25201(12)
O65_3 O 0.8933(4) -0.000000 0.38990(15)
O66_3 O 0.872(2) 0.500000 0.500000
H27_2 H 0.844133 0.500000 0.484690
H28_2 H 0.844133 0.500000 0.515310
Mo21_2 Mo 0.89896(3) 0.13035(2) 0.74349(2)
Mo22_2 Mo 0.82356(3) 0.07435(2) 0.70292(2)
O79_2 O 0.8335(2) 0.06269(17) 0.74530(9)
O80_2 O 0.9151(2) 0.12385(18) 0.70134(10)
O81_2 O 0.7493(3) 0.11870(19) 0.69830(10)
O82_2 O 0.9210(2) 0.11118(18) 0.78638(10)
O83_2 O 0.8484(2) 0.0579(2) 0.66013(10)
O84_2 O 0.8392(2) 0.18569(18) 0.74799(12)
Zn13_3 Zn 1.000000 0.87439(5) 0.67084(3)
Zn14_3 Zn 1.000000 0.87439(5) 0.32916(3)
P1_6 P 1.000000 1.000000 0.72316(6)
O17_3 O 1.000000 0.9456(2) 0.74286(13)
O18_4 O 0.9258(3) 1.000000 0.70379(12)
Mo5_3 Mo 1.000000 0.93205(3) 0.79993(2)
Mo6_2 Mo 0.89896(3) 0.86965(2) 0.74349(2)
Mo7_2 Mo 0.82356(3) 0.92565(2) 0.70292(2)
Mo8_4 Mo 0.90859(4) 1.000000 0.64646(2)
O27_2 O 0.8335(2) 0.93731(17) 0.74530(9)
O28_4 O 0.9300(3) 1.000000 0.79638(13)
O29_3 O 1.000000 0.8292(3) 0.74475(15)
O30_2 O 0.9151(2) 0.87615(18) 0.70134(10)
O31_3 O 1.000000 0.9486(3) 0.65053(14)
O32_2 O 0.7493(3) 0.88130(19) 0.69830(10)
O33_2 O 0.9210(2) 0.88882(18) 0.78638(10)
O34_2 O 0.8484(2) 0.9421(2) 0.66013(10)
O35_3 O 1.000000 0.9216(3) 0.83653(14)
O36_2 O 0.8392(2) 0.81431(18) 0.74799(12)
O37_4 O 0.8933(4) 1.000000 0.61010(15)
Mo9_3 Mo 1.000000 0.93205(3) 0.20007(2)
P2_6 P 1.000000 1.000000 0.27684(6)
O41_3 O 1.000000 0.8292(3) 0.25525(15)
O42_3 O 1.000000 0.9456(2) 0.25714(13)
O45_3 O 1.000000 0.9486(3) 0.34947(14)
O49_3 O 1.000000 0.9216(3) 0.16347(14)
O53_4 O 0.9258(3) 1.000000 0.29621(12)
Mo16_4 Mo 0.90859(4) 1.000000 0.35354(2)
O56_4 O 0.9300(3) 1.000000 0.20362(13)
O65_4 O 0.8933(4) 1.000000 0.38990(15)
Mo17_2 Mo 0.89896(3) 0.86965(2) 0.25651(2)
Mo18_2 Mo 0.82356(3) 0.92565(2) 0.29708(2)
O67_2 O 0.8335(2) 0.93731(17) 0.25470(9)
O68_2 O 0.9151(2) 0.87615(18) 0.29866(10)
O69_2 O 0.7493(3) 0.88130(19) 0.30170(10)
O70_2 O 0.9210(2) 0.88882(18) 0.21362(10)
O71_2 O 0.8484(2) 0.9421(2) 0.33987(10)
O72_2 O 0.8392(2) 0.81431(18) 0.25201(12)
Co1_5 Co 0.500000 -0.000000 0.500000
N2_4 N 0.500000 -0.000000 0.5438(3)
O16_4 O 0.628(2) -0.000000 0.500000
H5_3 H 0.655867 -0.000000 0.515310
N3_5 N 0.500000 0.0835(5) 0.500000
C11_4 C 0.500000 0.0464(5) 0.5620(2)
C12_4 C 0.500000 0.1023(5) 0.5536(3)
C13_4 C 0.500000 0.0290(5) 0.5919(3)
H6_4 H 0.500000 0.052586 0.608361
C14_4 C 0.500000 0.1184(5) 0.5244(3)
C15_4 C 0.500000 0.1482(6) 0.5769(3)
O19_3 O 0.4398(8) 0.3147(4) 0.6421(2)
C16_4 C 0.500000 0.2923(8) 0.6347(5)
C17_4 C 0.500000 0.2426(8) 0.6145(5)
C18_4 C 0.500000 0.1767(6) 0.5149(3)
H7_4 H 0.500000 0.208483 0.526982
C19_3 C 0.4342(10) 0.1713(6) 0.5869(3)
H8_3 H 0.387598 0.155812 0.580806
C20_3 C 0.4337(11) 0.2178(6) 0.6061(4)
H9_3 H 0.387108 0.231726 0.613174
N4_4 N 0.500000 -0.000000 0.4562(3)
O23_3 O 0.5602(8) 0.3147(4) 0.6421(2)
C35_3 C 0.5658(10) 0.1713(6) 0.5869(3)
H18_3 H 0.612402 0.155812 0.580806
C36_3 C 0.5663(11) 0.2178(6) 0.6061(4)
H19_3 H 0.612892 0.231726 0.613174
C37_4 C 0.500000 0.0464(5) 0.4380(2)
C38_4 C 0.500000 0.1023(5) 0.4464(3)
C39_4 C 0.500000 0.0290(5) 0.4081(3)
H20_4 H 0.500000 0.052586 0.391639
C40_4 C 0.500000 0.1184(5) 0.4756(3)
C41_4 C 0.500000 0.1482(6) 0.4231(3)
O24_3 O 0.5602(8) 0.3147(4) 0.3579(2)
C42_4 C 0.500000 0.2923(8) 0.3653(5)
C43_4 C 0.500000 0.2426(8) 0.3855(5)
C44_4 C 0.500000 0.1767(6) 0.4851(3)
H21_4 H 0.500000 0.208483 0.473018
C45_3 C 0.5658(10) 0.1713(6) 0.4131(3)
H22_3 H 0.612402 0.155812 0.419194
C46_3 C 0.5663(11) 0.2178(6) 0.3939(4)
H23_3 H 0.612892 0.231726 0.386826
O25_3 O 0.4398(8) 0.3147(4) 0.3579(2)
C47_3 C 0.4342(10) 0.1713(6) 0.4131(3)
H24_3 H 0.387598 0.155812 0.419194
C48_3 C 0.4337(11) 0.2178(6) 0.3939(4)
H25_3 H 0.387108 0.231726 0.386826
H26_3 H 0.655867 -0.000000 0.484690
O66_4 O 0.372(2) -0.000000 0.500000
H27_3 H 0.344133 -0.000000 0.484690
H28_3 H 0.344133 -0.000000 0.515310
Zn13_4 Zn 0.500000 0.37439(5) 0.67084(3)
Zn14_4 Zn 0.500000 0.37439(5) 0.32916(3)
Mo1_4 Mo 0.500000 0.56795(3) 0.79993(2)
Mo2_3 Mo 0.60104(3) 0.63035(2) 0.74349(2)
Mo3_3 Mo 0.67644(3) 0.57435(2) 0.70292(2)
Mo4_5 Mo 0.59141(4) 0.500000 0.64646(2)
Zn1_3 Zn 0.66837(5) 0.500000 0.77457(2)
Zn2_4 Zn 0.500000 0.62561(5) 0.67084(3)
P1_7 P 0.500000 0.500000 0.72316(6)
O1_3 O 0.7358(3) 0.500000 0.70242(12)
O2_3 O 0.6665(2) 0.56269(17) 0.74530(9)
O3_5 O 0.5700(3) 0.500000 0.79638(13)
O4_4 O 0.500000 0.6708(3) 0.74475(15)
O5_4 O 0.500000 0.5544(2) 0.74286(13)
O6_5 O 0.5742(3) 0.500000 0.70379(12)
O7_3 O 0.5849(2) 0.62385(18) 0.70134(10)
O8_4 O 0.500000 0.5514(3) 0.65053(14)
O9_3 O 0.7507(3) 0.61870(19) 0.69830(10)
O10_3 O 0.5790(2) 0.61118(18) 0.78638(10)
O11_3 O 0.6516(2) 0.5579(2) 0.66013(10)
O12_4 O 0.500000 0.5784(3) 0.83653(14)
Co1_6 Co 0.500000 1.000000 0.500000
N1_5 N 0.500000 0.9165(5) 0.500000
N2_5 N 0.500000 1.000000 0.5438(3)
O13_3 O 0.6608(2) 0.68569(18) 0.74799(12)
C1_4 C 0.500000 0.9536(5) 0.5620(2)
C2_4 C 0.500000 0.8977(5) 0.5536(3)
C3_4 C 0.500000 0.9710(5) 0.5919(3)
H1_4 H 0.500000 0.947414 0.608361
C4_4 C 0.500000 0.8816(5) 0.5244(3)
C5_4 C 0.500000 0.8518(6) 0.5769(3)
O14_3 O 0.5602(8) 0.6853(4) 0.6421(2)
C6_4 C 0.500000 0.7077(8) 0.6347(5)
C7_4 C 0.500000 0.7574(8) 0.6145(5)
C8_4 C 0.500000 0.8233(6) 0.5149(3)
H2_4 H 0.500000 0.791517 0.526982
C9_3 C 0.5658(10) 0.8287(6) 0.5869(3)
H3_3 H 0.612402 0.844188 0.580806
C10_3 C 0.5663(11) 0.7822(6) 0.6061(4)
H4_3 H 0.612892 0.768274 0.613174
O15_5 O 0.6067(4) 0.500000 0.61010(15)
O16_5 O 0.628(2) 1.000000 0.500000
H5_4 H 0.655867 1.000000 0.515310
O17_4 O 0.500000 0.4456(2) 0.74286(13)
O18_5 O 0.4258(3) 0.500000 0.70379(12)
N4_5 N 0.500000 1.000000 0.4562(3)
C21_4 C 0.500000 0.9536(5) 0.4380(2)
C22_4 C 0.500000 0.8977(5) 0.4464(3)
C23_4 C 0.500000 0.9710(5) 0.4081(3)
H10_4 H 0.500000 0.947414 0.391639
C24_4 C 0.500000 0.8816(5) 0.4756(3)
C25_4 C 0.500000 0.8518(6) 0.4231(3)
O20_3 O 0.4398(8) 0.6853(4) 0.3579(2)
C26_4 C 0.500000 0.7077(8) 0.3653(5)
C27_4 C 0.500000 0.7574(8) 0.3855(5)
C28_4 C 0.500000 0.8233(6) 0.4851(3)
H11_4 H 0.500000 0.791517 0.473018
C29_3 C 0.4342(10) 0.8287(6) 0.4131(3)
H12_3 H 0.387598 0.844188 0.419194
C30_3 C 0.4337(11) 0.7822(6) 0.3939(4)
H13_3 H 0.387108 0.768274 0.386826
O21_3 O 0.5602(8) 0.6853(4) 0.3579(2)
C31_3 C 0.5658(10) 0.8287(6) 0.4131(3)
H14_3 H 0.612402 0.844188 0.419194
C32_3 C 0.5663(11) 0.7822(6) 0.3939(4)
H15_3 H 0.612892 0.768274 0.386826
O22_3 O 0.4398(8) 0.6853(4) 0.6421(2)
C33_3 C 0.4342(10) 0.8287(6) 0.5869(3)
H16_3 H 0.387598 0.844188 0.580806
C34_3 C 0.4337(11) 0.7822(6) 0.6061(4)
H17_3 H 0.387108 0.768274 0.613174
H26_4 H 0.655867 1.000000 0.484690
Mo5_4 Mo 0.500000 0.43205(3) 0.79993(2)
Mo6_3 Mo 0.39896(3) 0.36965(2) 0.74349(2)
Mo7_3 Mo 0.32356(3) 0.42565(2) 0.70292(2)
Mo8_5 Mo 0.40859(4) 0.500000 0.64646(2)
Zn3_3 Zn 0.33163(5) 0.500000 0.77457(2)
O26_3 O 0.2642(3) 0.500000 0.70242(12)
O27_3 O 0.3335(2) 0.43731(17) 0.74530(9)
O28_5 O 0.4300(3) 0.500000 0.79638(13)
O29_4 O 0.500000 0.3292(3) 0.74475(15)
O30_3 O 0.4151(2) 0.37615(18) 0.70134(10)
O31_4 O 0.500000 0.4486(3) 0.65053(14)
O32_3 O 0.2493(3) 0.38130(19) 0.69830(10)
O33_3 O 0.4210(2) 0.38882(18) 0.78638(10)
O34_3 O 0.3484(2) 0.4421(2) 0.66013(10)
O35_4 O 0.500000 0.4216(3) 0.83653(14)
O36_3 O 0.3392(2) 0.31431(18) 0.74799(12)
O37_5 O 0.3933(4) 0.500000 0.61010(15)
Mo9_4 Mo 0.500000 0.43205(3) 0.20007(2)
Mo10_3 Mo 0.60104(3) 0.36965(2) 0.25651(2)
Mo11_3 Mo 0.67644(3) 0.42565(2) 0.29708(2)
Mo12_5 Mo 0.59141(4) 0.500000 0.35354(2)
Zn5_3 Zn 0.66837(5) 0.500000 0.22543(2)
P2_7 P 0.500000 0.500000 0.27684(6)
O38_3 O 0.7358(3) 0.500000 0.29758(12)
O39_3 O 0.6665(2) 0.43731(17) 0.25470(9)
O40_5 O 0.5700(3) 0.500000 0.20362(13)
O41_4 O 0.500000 0.3292(3) 0.25525(15)
O42_4 O 0.500000 0.4456(2) 0.25714(13)
O43_5 O 0.5742(3) 0.500000 0.29621(12)
O44_3 O 0.5849(2) 0.37615(18) 0.29866(10)
O45_4 O 0.500000 0.4486(3) 0.34947(14)
O46_3 O 0.7507(3) 0.38130(19) 0.30170(10)
O47_3 O 0.5790(2) 0.38882(18) 0.21362(10)
O48_3 O 0.6516(2) 0.4421(2) 0.33987(10)
O49_4 O 0.500000 0.4216(3) 0.16347(14)
O50_3 O 0.6608(2) 0.31431(18) 0.25201(12)
O51_5 O 0.6067(4) 0.500000 0.38990(15)
O52_4 O 0.500000 0.5544(2) 0.25714(13)
O53_5 O 0.4258(3) 0.500000 0.29621(12)
Mo13_4 Mo 0.500000 0.56795(3) 0.20007(2)
Mo14_3 Mo 0.39896(3) 0.63035(2) 0.25651(2)
Mo15_3 Mo 0.32356(3) 0.57435(2) 0.29708(2)
Mo16_5 Mo 0.40859(4) 0.500000 0.35354(2)
Zn7_3 Zn 0.33163(5) 0.500000 0.22543(2)
Zn8_4 Zn 0.500000 0.62561(5) 0.32916(3)
O54_3 O 0.2642(3) 0.500000 0.29758(12)
O55_3 O 0.3335(2) 0.56269(17) 0.25470(9)
O56_5 O 0.4300(3) 0.500000 0.20362(13)
O57_4 O 0.500000 0.6708(3) 0.25525(15)
O58_3 O 0.4151(2) 0.62385(18) 0.29866(10)
O59_4 O 0.500000 0.5514(3) 0.34947(14)
O60_3 O 0.2493(3) 0.61870(19) 0.30170(10)
O61_3 O 0.4210(2) 0.61118(18) 0.21362(10)
O62_3 O 0.3484(2) 0.5579(2) 0.33987(10)
O63_4 O 0.500000 0.5784(3) 0.16347(14)
O64_3 O 0.3392(2) 0.68569(18) 0.25201(12)
O65_5 O 0.3933(4) 0.500000 0.38990(15)
O66_5 O 0.372(2) 1.000000 0.500000
H27_4 H 0.344133 1.000000 0.484690
H28_4 H 0.344133 1.000000 0.515310
Mo17_3 Mo 0.39896(3) 0.36965(2) 0.25651(2)
Mo18_3 Mo 0.32356(3) 0.42565(2) 0.29708(2)
O67_3 O 0.3335(2) 0.43731(17) 0.25470(9)
O68_3 O 0.4151(2) 0.37615(18) 0.29866(10)
O69_3 O 0.2493(3) 0.38130(19) 0.30170(10)
O70_3 O 0.4210(2) 0.38882(18) 0.21362(10)
O71_3 O 0.3484(2) 0.4421(2) 0.33987(10)
O72_3 O 0.3392(2) 0.31431(18) 0.25201(12)
Mo19_3 Mo 0.60104(3) 0.63035(2) 0.25651(2)
Mo20_3 Mo 0.67644(3) 0.57435(2) 0.29708(2)
O73_3 O 0.6665(2) 0.56269(17) 0.25470(9)
O74_3 O 0.5849(2) 0.62385(18) 0.29866(10)
O75_3 O 0.7507(3) 0.61870(19) 0.30170(10)
O76_3 O 0.5790(2) 0.61118(18) 0.21362(10)
O77_3 O 0.6516(2) 0.5579(2) 0.33987(10)
O78_3 O 0.6608(2) 0.68569(18) 0.25201(12)
Mo21_3 Mo 0.39896(3) 0.63035(2) 0.74349(2)
Mo22_3 Mo 0.32356(3) 0.57435(2) 0.70292(2)
O79_3 O 0.3335(2) 0.56269(17) 0.74530(9)
O80_3 O 0.4151(2) 0.62385(18) 0.70134(10)
O81_3 O 0.2493(3) 0.61870(19) 0.69830(10)
O82_3 O 0.4210(2) 0.61118(18) 0.78638(10)
O83_3 O 0.3484(2) 0.5579(2) 0.66013(10)
O84_3 O 0.3392(2) 0.68569(18) 0.74799(12)
Mo23_3 Mo 0.60104(3) 0.36965(2) 0.74349(2)
Mo24_3 Mo 0.67644(3) 0.42565(2) 0.70292(2)
O85_3 O 0.6665(2) 0.43731(17) 0.74530(9)
O86_3 O 0.5849(2) 0.37615(18) 0.70134(10)
O87_3 O 0.7507(3) 0.38130(19) 0.69830(10)
O88_3 O 0.5790(2) 0.38882(18) 0.78638(10)
O89_3 O 0.6516(2) 0.4421(2) 0.66013(10)
O90_3 O 0.6608(2) 0.31431(18) 0.74799(12)
Zn9_3 Zn 0.16837(5) 0.500000 0.27457(2)
Zn10_3 Zn 0.83163(5) 0.500000 0.27457(2)
Zn11_3 Zn 0.16837(5) 0.500000 0.72543(2)
Zn12_3 Zn 0.83163(5) 0.500000 0.72543(2)
O91_3 O 0.2358(3) 0.500000 0.20242(12)
O92_3 O 0.7642(3) 0.500000 0.20242(12)
O93_3 O 0.2358(3) 0.500000 0.79758(12)
O94_3 O 0.7642(3) 0.500000 0.79758(12)
Co1_7 Co -0.000000 -0.000000 0.000000
N2_6 N -0.000000 -0.000000 0.0438(3)
O16_6 O 0.128(2) -0.000000 0.000000
H5_5 H 0.155867 -0.000000 0.015310
N3_6 N -0.000000 0.0835(5) 0.000000
C11_5 C -0.000000 0.0464(5) 0.0620(2)
C12_5 C -0.000000 0.1023(5) 0.0536(3)
C13_5 C -0.000000 0.0290(5) 0.0919(3)
H6_5 H -0.000000 0.052586 0.108361
C14_5 C 0.000000 0.1184(5) 0.0244(3)
C15_5 C 0.000000 0.1482(6) 0.0769(3)
C16_5 C 0.000000 0.2923(8) 0.1347(5)
C17_5 C -0.000000 0.2426(8) 0.1145(5)
C18_5 C 0.000000 0.1767(6) 0.0149(3)
H7_5 H -0.000000 0.208483 0.026982
O23_4 O 0.0602(8) 0.3147(4) 0.1421(2)
C35_4 C 0.0658(10) 0.1713(6) 0.0869(3)
H18_4 H 0.112402 0.155812 0.080806
C36_4 C 0.0663(11) 0.2178(6) 0.1061(4)
H19_4 H 0.112892 0.231726 0.113174
Zn13_5 Zn 0.000000 0.37439(5) 0.17084(3)
Co1_8 Co -0.000000 -0.000000 1.000000
O16_7 O 0.128(2) -0.000000 1.000000
N3_7 N -0.000000 0.0835(5) 1.000000
N4_6 N -0.000000 -0.000000 0.9562(3)
C37_5 C -0.000000 0.0464(5) 0.9380(2)
C38_5 C -0.000000 0.1023(5) 0.9464(3)
C39_5 C -0.000000 0.0290(5) 0.9081(3)
H20_5 H -0.000000 0.052586 0.891639
C40_5 C 0.000000 0.1184(5) 0.9756(3)
C41_5 C 0.000000 0.1482(6) 0.9231(3)
O24_4 O 0.0602(8) 0.3147(4) 0.8579(2)
C42_5 C 0.000000 0.2923(8) 0.8653(5)
C43_5 C 0.000000 0.2426(8) 0.8855(5)
C44_5 C -0.000000 0.1767(6) 0.9851(3)
H21_5 H 0.000000 0.208483 0.973018
C45_4 C 0.0658(10) 0.1713(6) 0.9131(3)
H22_4 H 0.112402 0.155812 0.919194
C46_4 C 0.0663(11) 0.2178(6) 0.8939(4)
H23_4 H 0.112892 0.231726 0.886826
H26_5 H 0.155867 -0.000000 0.984690
Zn14_5 Zn 0.000000 0.37439(5) 0.82916(3)
Mo1_5 Mo -0.000000 0.56795(3) 0.29993(2)
Mo2_4 Mo 0.10104(3) 0.63035(2) 0.24349(2)
Mo3_4 Mo 0.17644(3) 0.57435(2) 0.20292(2)
Mo4_6 Mo 0.09141(4) 0.500000 0.14646(2)
Zn2_5 Zn 0.000000 0.62561(5) 0.17084(3)
P1_8 P -0.000000 0.500000 0.22316(6)
O2_4 O 0.1665(2) 0.56269(17) 0.24530(9)
O3_6 O 0.0700(3) 0.500000 0.29638(13)
O4_5 O -0.000000 0.6708(3) 0.24475(15)
O5_5 O -0.000000 0.5544(2) 0.24286(13)
O6_6 O 0.0742(3) 0.500000 0.20379(12)
O7_4 O 0.0849(2) 0.62385(18) 0.20134(10)
O8_5 O -0.000000 0.5514(3) 0.15053(14)
O9_4 O 0.2507(3) 0.61870(19) 0.19830(10)
O10_4 O 0.0790(2) 0.61118(18) 0.28638(10)
O11_4 O 0.1516(2) 0.5579(2) 0.16013(10)
O12_5 O 0.000000 0.5784(3) 0.33653(14)
Co1_9 Co -0.000000 1.000000 0.000000
N1_6 N -0.000000 0.9165(5) 0.000000
N2_7 N -0.000000 1.000000 0.0438(3)
O13_4 O 0.1608(2) 0.68569(18) 0.24799(12)
C1_5 C -0.000000 0.9536(5) 0.0620(2)
C2_5 C -0.000000 0.8977(5) 0.0536(3)
C3_5 C -0.000000 0.9710(5) 0.0919(3)
H1_5 H -0.000000 0.947414 0.108361
C4_5 C -0.000000 0.8816(5) 0.0244(3)
C5_5 C -0.000000 0.8518(6) 0.0769(3)
O14_4 O 0.0602(8) 0.6853(4) 0.1421(2)
C6_5 C 0.000000 0.7077(8) 0.1347(5)
C7_5 C 0.000000 0.7574(8) 0.1145(5)
C8_5 C -0.000000 0.8233(6) 0.0149(3)
H2_5 H -0.000000 0.791517 0.026982
C9_4 C 0.0658(10) 0.8287(6) 0.0869(3)
H3_4 H 0.112402 0.844188 0.080806
C10_4 C 0.0663(11) 0.7822(6) 0.1061(4)
H4_4 H 0.112892 0.768274 0.113174
O15_6 O 0.1067(4) 0.500000 0.11010(15)
O16_8 O 0.128(2) 1.000000 0.000000
H5_6 H 0.155867 1.000000 0.015310
O17_5 O -0.000000 0.4456(2) 0.24286(13)
Mo5_5 Mo -0.000000 0.43205(3) 0.29993(2)
O29_5 O -0.000000 0.3292(3) 0.24475(15)
O31_5 O -0.000000 0.4486(3) 0.15053(14)
O35_5 O 0.000000 0.4216(3) 0.33653(14)
Mo23_4 Mo 0.10104(3) 0.36965(2) 0.24349(2)
Mo24_4 Mo 0.17644(3) 0.42565(2) 0.20292(2)
O85_4 O 0.1665(2) 0.43731(17) 0.24530(9)
O86_4 O 0.0849(2) 0.37615(18) 0.20134(10)
O87_4 O 0.2507(3) 0.38130(19) 0.19830(10)
O88_4 O 0.0790(2) 0.38882(18) 0.28638(10)
O89_4 O 0.1516(2) 0.4421(2) 0.16013(10)
O90_4 O 0.1608(2) 0.31431(18) 0.24799(12)
Co1_10 Co -0.000000 1.000000 1.000000
N1_7 N -0.000000 0.9165(5) 1.000000
O16_9 O 0.128(2) 1.000000 1.000000
N4_7 N -0.000000 1.000000 0.9562(3)
C21_5 C -0.000000 0.9536(5) 0.9380(2)
C22_5 C -0.000000 0.8977(5) 0.9464(3)
C23_5 C -0.000000 0.9710(5) 0.9081(3)
H10_5 H -0.000000 0.947414 0.891639
C24_5 C -0.000000 0.8816(5) 0.9756(3)
C25_5 C -0.000000 0.8518(6) 0.9231(3)
C26_5 C 0.000000 0.7077(8) 0.8653(5)
C27_5 C 0.000000 0.7574(8) 0.8855(5)
C28_5 C -0.000000 0.8233(6) 0.9851(3)
H11_5 H -0.000000 0.791517 0.973018
O21_4 O 0.0602(8) 0.6853(4) 0.8579(2)
C31_4 C 0.0658(10) 0.8287(6) 0.9131(3)
H14_4 H 0.112402 0.844188 0.919194
C32_4 C 0.0663(11) 0.7822(6) 0.8939(4)
H15_4 H 0.112892 0.768274 0.886826
H26_6 H 0.155867 1.000000 0.984690
Mo9_5 Mo 0.000000 0.43205(3) 0.70007(2)
Mo10_4 Mo 0.10104(3) 0.36965(2) 0.75651(2)
Mo11_4 Mo 0.17644(3) 0.42565(2) 0.79708(2)
Mo12_6 Mo 0.09141(4) 0.500000 0.85354(2)
P2_8 P -0.000000 0.500000 0.77684(6)
O39_4 O 0.1665(2) 0.43731(17) 0.75470(9)
O40_6 O 0.0700(3) 0.500000 0.70362(13)
O41_5 O -0.000000 0.3292(3) 0.75525(15)
O42_5 O 0.000000 0.4456(2) 0.75714(13)
O43_6 O 0.0742(3) 0.500000 0.79621(12)
O44_4 O 0.0849(2) 0.37615(18) 0.79866(10)
O45_5 O -0.000000 0.4486(3) 0.84947(14)
O46_4 O 0.2507(3) 0.38130(19) 0.80170(10)
O47_4 O 0.0790(2) 0.38882(18) 0.71362(10)
O48_4 O 0.1516(2) 0.4421(2) 0.83987(10)
O49_5 O -0.000000 0.4216(3) 0.66347(14)
O50_4 O 0.1608(2) 0.31431(18) 0.75201(12)
O51_6 O 0.1067(4) 0.500000 0.88990(15)
O52_5 O -0.000000 0.5544(2) 0.75714(13)
Mo13_5 Mo 0.000000 0.56795(3) 0.70007(2)
Zn8_5 Zn 0.000000 0.62561(5) 0.82916(3)
O57_5 O 0.000000 0.6708(3) 0.75525(15)
O59_5 O 0.000000 0.5514(3) 0.84947(14)
O63_5 O -0.000000 0.5784(3) 0.66347(14)
Mo19_4 Mo 0.10104(3) 0.63035(2) 0.75651(2)
Mo20_4 Mo 0.17644(3) 0.57435(2) 0.79708(2)
O73_4 O 0.1665(2) 0.56269(17) 0.75470(9)
O74_4 O 0.0849(2) 0.62385(18) 0.79866(10)
O75_4 O 0.2507(3) 0.61870(19) 0.80170(10)
O76_4 O 0.0790(2) 0.61118(18) 0.71362(10)
O77_4 O 0.1516(2) 0.5579(2) 0.83987(10)
O78_4 O 0.1608(2) 0.68569(18) 0.75201(12)
Co1_11 Co 1.000000 -0.000000 0.000000
N2_8 N 1.000000 -0.000000 0.0438(3)
N3_8 N 1.000000 0.0835(5) 0.000000
C11_6 C 1.000000 0.0464(5) 0.0620(2)
C12_6 C 1.000000 0.1023(5) 0.0536(3)
C13_6 C 1.000000 0.0290(5) 0.0919(3)
H6_6 H 1.000000 0.052586 0.108361
C14_6 C 1.000000 0.1184(5) 0.0244(3)
C15_6 C 1.000000 0.1482(6) 0.0769(3)
O19_4 O 0.9398(8) 0.3147(4) 0.1421(2)
C16_6 C 1.000000 0.2923(8) 0.1347(5)
C17_6 C 1.000000 0.2426(8) 0.1145(5)
C18_6 C 1.000000 0.1767(6) 0.0149(3)
H7_6 H 1.000000 0.208483 0.026982
C19_4 C 0.9342(10) 0.1713(6) 0.0869(3)
H8_4 H 0.887598 0.155812 0.080806
C20_4 C 0.9337(11) 0.2178(6) 0.1061(4)
H9_4 H 0.887108 0.231726 0.113174
O66_6 O 0.872(2) -0.000000 0.000000
H28_5 H 0.844133 -0.000000 0.015310
Zn13_6 Zn 1.000000 0.37439(5) 0.17084(3)
Co1_12 Co 1.000000 -0.000000 1.000000
N3_9 N 1.000000 0.0835(5) 1.000000
N4_8 N 1.000000 -0.000000 0.9562(3)
C37_6 C 1.000000 0.0464(5) 0.9380(2)
C38_6 C 1.000000 0.1023(5) 0.9464(3)
C39_6 C 1.000000 0.0290(5) 0.9081(3)
H20_6 H 1.000000 0.052586 0.891639
C40_6 C 1.000000 0.1184(5) 0.9756(3)
C41_6 C 1.000000 0.1482(6) 0.9231(3)
C42_6 C 1.000000 0.2923(8) 0.8653(5)
C43_6 C 1.000000 0.2426(8) 0.8855(5)
C44_6 C 1.000000 0.1767(6) 0.9851(3)
H21_6 H 1.000000 0.208483 0.973018
O25_4 O 0.9398(8) 0.3147(4) 0.8579(2)
C47_4 C 0.9342(10) 0.1713(6) 0.9131(3)
H24_4 H 0.887598 0.155812 0.919194
C48_4 C 0.9337(11) 0.2178(6) 0.8939(4)
H25_4 H 0.887108 0.231726 0.886826
O66_7 O 0.872(2) -0.000000 1.000000
H27_5 H 0.844133 -0.000000 0.984690
Zn14_6 Zn 1.000000 0.37439(5) 0.82916(3)
Mo1_6 Mo 1.000000 0.56795(3) 0.29993(2)
Zn2_6 Zn 1.000000 0.62561(5) 0.17084(3)
P1_9 P 1.000000 0.500000 0.22316(6)
O4_6 O 1.000000 0.6708(3) 0.24475(15)
O5_6 O 1.000000 0.5544(2) 0.24286(13)
O8_6 O 1.000000 0.5514(3) 0.15053(14)
O12_6 O 1.000000 0.5784(3) 0.33653(14)
Co1_13 Co 1.000000 1.000000 0.000000
N1_8 N 1.000000 0.9165(5) 0.000000
N2_9 N 1.000000 1.000000 0.0438(3)
C1_6 C 1.000000 0.9536(5) 0.0620(2)
C2_6 C 1.000000 0.8977(5) 0.0536(3)
C3_6 C 1.000000 0.9710(5) 0.0919(3)
H1_6 H 1.000000 0.947414 0.108361
C4_6 C 1.000000 0.8816(5) 0.0244(3)
C5_6 C 1.000000 0.8518(6) 0.0769(3)
C6_6 C 1.000000 0.7077(8) 0.1347(5)
C7_6 C 1.000000 0.7574(8) 0.1145(5)
C8_6 C 1.000000 0.8233(6) 0.0149(3)
H2_6 H 1.000000 0.791517 0.026982
O17_6 O 1.000000 0.4456(2) 0.24286(13)
O18_6 O 0.9258(3) 0.500000 0.20379(12)
O22_4 O 0.9398(8) 0.6853(4) 0.1421(2)
C33_4 C 0.9342(10) 0.8287(6) 0.0869(3)
H16_4 H 0.887598 0.844188 0.080806
C34_4 C 0.9337(11) 0.7822(6) 0.1061(4)
H17_4 H 0.887108 0.768274 0.113174
Mo5_6 Mo 1.000000 0.43205(3) 0.29993(2)
Mo6_4 Mo 0.89896(3) 0.36965(2) 0.24349(2)
Mo7_4 Mo 0.82356(3) 0.42565(2) 0.20292(2)
Mo8_6 Mo 0.90859(4) 0.500000 0.14646(2)
O27_4 O 0.8335(2) 0.43731(17) 0.24530(9)
O28_6 O 0.9300(3) 0.500000 0.29638(13)
O29_6 O 1.000000 0.3292(3) 0.24475(15)
O30_4 O 0.9151(2) 0.37615(18) 0.20134(10)
O31_6 O 1.000000 0.4486(3) 0.15053(14)
O32_4 O 0.7493(3) 0.38130(19) 0.19830(10)
O33_4 O 0.9210(2) 0.38882(18) 0.28638(10)
O34_4 O 0.8484(2) 0.4421(2) 0.16013(10)
O35_6 O 1.000000 0.4216(3) 0.33653(14)
O36_4 O 0.8392(2) 0.31431(18) 0.24799(12)
O37_6 O 0.8933(4) 0.500000 0.11010(15)
O66_8 O 0.872(2) 1.000000 0.000000
H28_6 H 0.844133 1.000000 0.015310
Mo21_4 Mo 0.89896(3) 0.63035(2) 0.24349(2)
Mo22_4 Mo 0.82356(3) 0.57435(2) 0.20292(2)
O79_4 O 0.8335(2) 0.56269(17) 0.24530(9)
O80_4 O 0.9151(2) 0.62385(18) 0.20134(10)
O81_4 O 0.7493(3) 0.61870(19) 0.19830(10)
O82_4 O 0.9210(2) 0.61118(18) 0.28638(10)
O83_4 O 0.8484(2) 0.5579(2) 0.16013(10)
O84_4 O 0.8392(2) 0.68569(18) 0.24799(12)
Co1_14 Co 1.000000 1.000000 1.000000
N1_9 N 1.000000 0.9165(5) 1.000000
N4_9 N 1.000000 1.000000 0.9562(3)
C21_6 C 1.000000 0.9536(5) 0.9380(2)
C22_6 C 1.000000 0.8977(5) 0.9464(3)
C23_6 C 1.000000 0.9710(5) 0.9081(3)
H10_6 H 1.000000 0.947414 0.891639
C24_6 C 1.000000 0.8816(5) 0.9756(3)
C25_6 C 1.000000 0.8518(6) 0.9231(3)
O20_4 O 0.9398(8) 0.6853(4) 0.8579(2)
C26_6 C 1.000000 0.7077(8) 0.8653(5)
C27_6 C 1.000000 0.7574(8) 0.8855(5)
C28_6 C 1.000000 0.8233(6) 0.9851(3)
H11_6 H 1.000000 0.791517 0.973018
C29_4 C 0.9342(10) 0.8287(6) 0.9131(3)
H12_4 H 0.887598 0.844188 0.919194
C30_4 C 0.9337(11) 0.7822(6) 0.8939(4)
H13_4 H 0.887108 0.768274 0.886826
Mo9_6 Mo 1.000000 0.43205(3) 0.70007(2)
P2_9 P 1.000000 0.500000 0.77684(6)
O41_6 O 1.000000 0.3292(3) 0.75525(15)
O42_6 O 1.000000 0.4456(2) 0.75714(13)
O45_6 O 1.000000 0.4486(3) 0.84947(14)
O49_6 O 1.000000 0.4216(3) 0.66347(14)
O52_6 O 1.000000 0.5544(2) 0.75714(13)
O53_6 O 0.9258(3) 0.500000 0.79621(12)
Mo13_6 Mo 1.000000 0.56795(3) 0.70007(2)
Mo14_4 Mo 0.89896(3) 0.63035(2) 0.75651(2)
Mo15_4 Mo 0.82356(3) 0.57435(2) 0.79708(2)
Mo16_6 Mo 0.90859(4) 0.500000 0.85354(2)
Zn8_6 Zn 1.000000 0.62561(5) 0.82916(3)
O55_4 O 0.8335(2) 0.56269(17) 0.75470(9)
O56_6 O 0.9300(3) 0.500000 0.70362(13)
O57_6 O 1.000000 0.6708(3) 0.75525(15)
O58_4 O 0.9151(2) 0.62385(18) 0.79866(10)
O59_6 O 1.000000 0.5514(3) 0.84947(14)
O60_4 O 0.7493(3) 0.61870(19) 0.80170(10)
O61_4 O 0.9210(2) 0.61118(18) 0.71362(10)
O62_4 O 0.8484(2) 0.5579(2) 0.83987(10)
O63_6 O 1.000000 0.5784(3) 0.66347(14)
O64_4 O 0.8392(2) 0.68569(18) 0.75201(12)
O65_6 O 0.8933(4) 0.500000 0.88990(15)
O66_9 O 0.872(2) 1.000000 1.000000
H27_6 H 0.844133 1.000000 0.984690
Mo17_4 Mo 0.89896(3) 0.36965(2) 0.75651(2)
Mo18_4 Mo 0.82356(3) 0.42565(2) 0.79708(2)
O67_4 O 0.8335(2) 0.43731(17) 0.75470(9)
O68_4 O 0.9151(2) 0.37615(18) 0.79866(10)
O69_4 O 0.7493(3) 0.38130(19) 0.80170(10)
O70_4 O 0.9210(2) 0.38882(18) 0.71362(10)
O71_4 O 0.8484(2) 0.4421(2) 0.83987(10)
O72_4 O 0.8392(2) 0.31431(18) 0.75201(12)
loop_
_geom_bond_atom_site_label_1
_geom_bond_atom_site_label_2
_geom_bond_site_symmetry_1
_geom_bond_site_symmetry_2
Mo1 O3 1_555 1_555
Mo2 O2 1_555 1_555
Mo3 O1 1_555 1_555
Mo4 O8 1_555 1_555
Zn1 O2 1_555 1_555
Zn2 O7 1_555 1_555
P1 O5 1_555 1_555
O2 Mo3 1_555 1_555
O3 Zn1 1_555 1_555
O4 Mo2 1_555 1_555
O5 Mo2 1_555 1_555
O6 Mo3 1_555 1_555
O7 Mo2 1_555 1_555
O8 Zn2 1_555 1_555
O9 Mo3 1_555 1_555
O10 Mo1 1_555 1_555
O11 Mo3 1_555 1_555
O12 Mo1 1_555 1_555
Co1 N1 1_555 1_555
N1 C4 1_555 1_555
N2 Co1 1_555 1_555
O13 Mo2 1_555 1_555
C1 N2 1_555 1_555
C2 C1 1_555 1_555
C3 C1 1_555 1_555
H1 C3 1_555 1_555
C4 C2 1_555 1_555
C5 C2 1_555 1_555
O14 Zn2 1_555 1_555
C6 O14 1_555 1_555
C7 C6 1_555 1_555
C8 C4 1_555 1_555
H2 C8 1_555 1_555
C9 C5 1_555 1_555
H3 C9 1_555 1_555
C10 C7 1_555 1_555
H4 C10 1_555 1_555
O15 Mo4 1_555 1_555
O16 Co1 1_555 1_555
H5 O16 1_555 1_555
O18 P1 1_555 1_555
N3 Co1 1_555 1_555
C11 N2 1_555 1_555
C12 C11 1_555 1_555
C13 C3 1_555 1_555
H6 C13 1_555 1_555
C14 N3 1_555 1_555
C15 C12 1_555 1_555
O19 C16 1_555 1_555
C16 C17 1_555 1_555
C17 C20 1_555 1_555
C18 C14 1_555 1_555
H7 C18 1_555 1_555
C19 C15 1_555 1_555
H8 C19 1_555 1_555
C20 C19 1_555 1_555
H9 C20 1_555 1_555
O22 Zn2 1_555 1_555
C33 C5 1_555 1_555
H16 C33 1_555 1_555
C34 C7 1_555 1_555
H17 C34 1_555 1_555
O23 C16 1_555 1_555
C35 C15 1_555 1_555
H18 C35 1_555 1_555
C36 C17 1_555 1_555
H19 C36 1_555 1_555
Mo8 O8 1_555 1_555
O28 Mo1 1_555 1_555
O37 Mo8 1_555 1_555
O66 Co1 1_555 1_555
H28 O66 1_555 1_555
Mo21 O4 1_555 1_555
Mo22 O18 1_555 1_555
O79 Zn3 1_555 1_555
O80 Zn2 1_555 1_555
O81 Mo22 1_555 1_555
O82 Mo1 1_555 1_555
O83 Mo8 1_555 1_555
O84 Mo21 1_555 1_555
Zn11 O26 1_555 1_555
Zn12 O1 1_555 1_555
Zn13 O19 1_555 1_555
O93 Zn3 1_555 1_555
O94 Zn1 1_555 1_555
Mo2 O10 1_555 1_555
Mo3 O7 1_555 1_555
Mo4 O11 1_555 1_555
P1 O6 1_555 1_555
O5 Mo21 1_555 1_555
C6 O22 1_555 1_555
C9 C10 1_555 1_555
C11 C13 1_555 1_555
C12 C14 1_555 1_555
C33 C34 1_555 1_555
O23 Zn13 1_555 1_555
C35 C36 1_555 1_555
Zn3 O28 1_555 1_555
O26 Mo22 1_555 1_555
Mo21 O79 1_555 1_555
Mo21 O80 1_555 1_555
Mo21 O82 1_555 1_555
Mo22 O79 1_555 1_555
Mo22 O80 1_555 1_555
Mo22 O83 1_555 1_555
Co1_2 N1_2 1_555 1_555
O16_2 Co1_2 1_555 1_555
N3_2 Co1_2 1_555 1_555
N4 Co1_2 1_555 1_555
C21 N4 1_555 1_555
C22 C21 1_555 1_555
C23 C21 1_555 1_555
H10 C23 1_555 1_555
C24 N1_2 1_555 1_555
C25 C22 1_555 1_555
O20 C26 1_555 1_555
C26 C27 1_555 1_555
C27 C30 1_555 1_555
H11 C28 1_555 1_555
C29 C25 1_555 1_555
H12 C29 1_555 1_555
C30 C29 1_555 1_555
H13 C30 1_555 1_555
O21 C26 1_555 1_555
C31 C25 1_555 1_555
H14 C31 1_555 1_555
C32 C27 1_555 1_555
H15 C32 1_555 1_555
C37 N4 1_555 1_555
C38 C37 1_555 1_555
C39 C23 1_555 1_555
H20 C39 1_555 1_555
C40 N3_2 1_555 1_555
C41 C38 1_555 1_555
O24 C42 1_555 1_555
C42 C43 1_555 1_555
C43 C46 1_555 1_555
H21 C44 1_555 1_555
C45 C41 1_555 1_555
H22 C45 1_555 1_555
C46 C45 1_555 1_555
H23 C46 1_555 1_555
O25 C42 1_555 1_555
C47 C41 1_555 1_555
H24 C47 1_555 1_555
C48 C43 1_555 1_555
H25 C48 1_555 1_555
H26 O16_2 1_555 1_555
O38 Mo20 1_555 1_555
O40 Zn5 1_555 1_555
O51 Mo12 1_555 1_555
O52 P2 1_555 1_555
O53 P2 1_555 1_555
Mo13 O40 1_555 1_555
Mo14 O52 1_555 1_555
Mo15 O53 1_555 1_555
Zn7 O55 1_555 1_555
Zn8 O20 1_555 1_555
O54 Mo15 1_555 1_555
O55 Mo14 1_555 1_555
O57 Mo14 1_555 1_555
O58 Mo14 1_555 1_555
O59 Mo12 1_555 1_555
O60 Mo15 1_555 1_555
O61 Mo13 1_555 1_555
O62 Mo15 1_555 1_555
O63 Mo13 1_555 1_555
O64 Mo14 1_555 1_555
O65 Mo16 1_555 1_555
O66_2 Co1_2 1_555 1_555
H27 O66_2 1_555 1_555
Mo19 O52 1_555 1_555
Mo20 O43 1_555 1_555
O73 Zn5 1_555 1_555
O74 Zn8 1_555 1_555
O75 Mo20 1_555 1_555
O76 Mo13 1_555 1_555
O77 Mo12 1_555 1_555
O78 Mo19 1_555 1_555
Zn9 O54 1_555 1_555
Zn10 O38 1_555 1_555
Zn14 O24 1_555 1_555
O91 Zn7 1_555 1_555
O92 Zn5 1_555 1_555
C22 C24 1_555 1_555
C24 C28 1_555 1_555
O21 Zn8 1_555 1_555
C31 C32 1_555 1_555
C37 C39 1_555 1_555
C38 C40 1_555 1_555
C40 C44 1_555 1_555
O25 Zn14 1_555 1_555
C47 C48 1_555 1_555
P2 O43 1_555 1_555
Mo13 O56 1_555 1_555
Mo14 O61 1_555 1_555
Mo15 O55 1_555 1_555
Mo15 O58 1_555 1_555
Mo16 O59 1_555 1_555
Mo16 O62 1_555 1_555
Zn7 O56 1_555 1_555
Zn8 O58 1_555 1_555
Zn8 O59 1_555 1_555
O57 Mo19 1_555 1_555
Mo19 O73 1_555 1_555
Mo19 O74 1_555 1_555
Mo19 O76 1_555 1_555
Mo20 O73 1_555 1_555
Mo20 O74 1_555 1_555
Mo20 O77 1_555 1_555
O1_2 Mo24 1_555 1_555
O3_2 Zn1_2 1_555 1_555
O15_2 Mo4_2 1_555 1_555
O17 P1_2 1_555 1_555
O18_2 P1_2 1_555 1_555
Mo5 O3_2 1_555 1_555
Mo6 O17 1_555 1_555
Mo7 O18_2 1_555 1_555
Zn3_2 O27 1_555 1_555
Zn13 O30 1_555 1_555
O26_2 Mo7 1_555 1_555
O27 Mo6 1_555 1_555
O29 Mo6 1_555 1_555
O30 Mo6 1_555 1_555
O31 Mo4_2 1_555 1_555
O32 Mo7 1_555 1_555
O33 Mo5 1_555 1_555
O34 Mo7 1_555 1_555
O35 Mo5 1_555 1_555
O36 Mo6 1_555 1_555
O37_2 Mo8_2 1_555 1_555
Mo23 O17 1_555 1_555
Mo24 O6_2 1_555 1_555
O85 Zn1_2 1_555 1_555
O86 Zn13 1_555 1_555
O87 Mo24 1_555 1_555
O88 Mo5 1_555 1_555
O89 Mo4_2 1_555 1_555
O90 Mo23 1_555 1_555
Zn11_2 O26_2 1_555 1_555
Zn12_2 O1_2 1_555 1_555
O93_2 Zn3_2 1_555 1_555
O94_2 Zn1_2 1_555 1_555
P1_2 O6_2 1_555 1_555
Mo5 O28_2 1_555 1_555
Mo6 O33 1_555 1_555
Mo7 O27 1_555 1_555
Mo7 O30 1_555 1_555
Mo8_2 O31 1_555 1_555
Mo8_2 O34 1_555 1_555
Zn3_2 O28_2 1_555 1_555
Zn13 O31 1_555 1_555
O29 Mo23 1_555 1_555
Mo23 O85 1_555 1_555
Mo23 O86 1_555 1_555
Mo23 O88 1_555 1_555
Mo24 O85 1_555 1_555
Mo24 O86 1_555 1_555
Mo24 O89 1_555 1_555
Mo9 O40_2 1_555 1_555
Mo10 O39 1_555 1_555
Mo11 O38_2 1_555 1_555
Mo12_2 O45 1_555 1_555
Zn5_2 O39 1_555 1_555
Zn14 O44 1_555 1_555
P2_2 O42 1_555 1_555
O39 Mo11 1_555 1_555
O40_2 Zn5_2 1_555 1_555
O41 Mo10 1_555 1_555
O42 Mo10 1_555 1_555
O43_2 Mo11 1_555 1_555
O44 Mo10 1_555 1_555
O45 Zn14 1_555 1_555
O46 Mo11 1_555 1_555
O47 Mo9 1_555 1_555
O48 Mo11 1_555 1_555
O49 Mo9 1_555 1_555
O50 Mo10 1_555 1_555
O51_2 Mo12_2 1_555 1_555
O53_2 P2_2 1_555 1_555
Mo16_2 O45 1_555 1_555
O56_2 Mo9 1_555 1_555
O65_2 Mo16_2 1_555 1_555
Mo17 O41 1_555 1_555
Mo18 O53_2 1_555 1_555
O67 Zn7_2 1_555 1_555
O68 Zn14 1_555 1_555
O69 Mo18 1_555 1_555
O70 Mo9 1_555 1_555
O71 Mo16_2 1_555 1_555
O72 Mo17 1_555 1_555
Zn9_2 O54_2 1_555 1_555
Zn10_2 O38_2 1_555 1_555
O91_2 Zn7_2 1_555 1_555
O92_2 Zn5_2 1_555 1_555
Mo10 O47 1_555 1_555
Mo11 O44 1_555 1_555
Mo12_2 O48 1_555 1_555
P2_2 O43_2 1_555 1_555
O42 Mo17 1_555 1_555
Zn7_2 O56_2 1_555 1_555
O54_2 Mo18 1_555 1_555
Mo17 O67 1_555 1_555
Mo17 O68 1_555 1_555
Mo17 O70 1_555 1_555
Mo18 O67 1_555 1_555
Mo18 O68 1_555 1_555
Mo18 O71 1_555 1_555
Mo1_2 O3_3 1_555 1_555
Mo2_2 O2_2 1_555 1_555
Mo3_2 O91 1_555 1_555
Mo4_3 O8_2 1_555 1_555
Zn9 O2_2 1_555 1_555
Zn2_2 O7_2 1_555 1_555
P1_3 O5_2 1_555 1_555
O2_2 Mo3_2 1_555 1_555
O3_3 Zn9 1_555 1_555
O4_2 Mo2_2 1_555 1_555
O5_2 Mo2_2 1_555 1_555
O6_3 Mo3_2 1_555 1_555
O7_2 Mo2_2 1_555 1_555
O8_2 Zn2_2 1_555 1_555
O9_2 Mo3_2 1_555 1_555
O10_2 Mo1_2 1_555 1_555
O11_2 Mo3_2 1_555 1_555
O12_2 Mo1_2 1_555 1_555
Co1_3 N1_3 1_555 1_555
N1_3 C4_2 1_555 1_555
N2_2 Co1_3 1_555 1_555
O13_2 Mo2_2 1_555 1_555
C1_2 N2_2 1_555 1_555
C2_2 C1_2 1_555 1_555
C3_2 C1_2 1_555 1_555
H1_2 C3_2 1_555 1_555
C4_2 C2_2 1_555 1_555
C5_2 C2_2 1_555 1_555
O14_2 Zn2_2 1_555 1_555
C6_2 O14_2 1_555 1_555
C7_2 C6_2 1_555 1_555
C8_2 C4_2 1_555 1_555
H2_2 C8_2 1_555 1_555
C9_2 C5_2 1_555 1_555
H3_2 C9_2 1_555 1_555
C10_2 C7_2 1_555 1_555
H4_2 C10_2 1_555 1_555
O15_3 Mo4_3 1_555 1_555
O16_3 Co1_3 1_555 1_555
H5_2 O16_3 1_555 1_555
N3_3 Co1_3 1_555 1_555
C11_2 N2_2 1_555 1_555
C12_2 C11_2 1_555 1_555
C13_2 C3_2 1_555 1_555
H6_2 C13_2 1_555 1_555
C14_2 N3_3 1_555 1_555
C15_2 C12_2 1_555 1_555
C16_2 C17_2 1_555 1_555
C18_2 C14_2 1_555 1_555
H7_2 C18_2 1_555 1_555
N4_2 Co1_3 1_555 1_555
C21_2 N4_2 1_555 1_555
C22_2 C21_2 1_555 1_555
C23_2 C21_2 1_555 1_555
H10_2 C23_2 1_555 1_555
C24_2 N1_3 1_555 1_555
C25_2 C22_2 1_555 1_555
C26_2 C27_2 1_555 1_555
C28_2 C8_2 1_555 1_555
H11_2 C28_2 1_555 1_555
O21_2 C26_2 1_555 1_555
C31_2 C25_2 1_555 1_555
H14_2 C31_2 1_555 1_555
C32_2 C27_2 1_555 1_555
H15_2 C32_2 1_555 1_555
O23_2 C16_2 1_555 1_555
C35_2 C15_2 1_555 1_555
H18_2 C35_2 1_555 1_555
C36_2 C17_2 1_555 1_555
H19_2 C36_2 1_555 1_555
C37_2 N4_2 1_555 1_555
C38_2 C37_2 1_555 1_555
C39_2 C23_2 1_555 1_555
H20_2 C39_2 1_555 1_555
C40_2 N3_3 1_555 1_555
C41_2 C38_2 1_555 1_555
O24_2 C42_2 1_555 1_555
C42_2 C43_2 1_555 1_555
C43_2 C46_2 1_555 1_555
C44_2 C18_2 1_555 1_555
H21_2 C44_2 1_555 1_555
C45_2 C41_2 1_555 1_555
H22_2 C45_2 1_555 1_555
C46_2 C45_2 1_555 1_555
H23_2 C46_2 1_555 1_555
H26_2 O16_3 1_555 1_555
O93 Mo20_2 1_555 1_555
O40_3 Zn11 1_555 1_555
O51_3 Mo12_3 1_555 1_555
O52_2 P2_3 1_555 1_555
Mo13_2 O40_3 1_555 1_555
O59_2 Mo12_3 1_555 1_555
O63_2 Mo13_2 1_555 1_555
Mo19_2 O52_2 1_555 1_555
Mo20_2 O43_3 1_555 1_555
O73_2 Zn11 1_555 1_555
O74_2 Zn8_2 1_555 1_555
O75_2 Mo20_2 1_555 1_555
O76_2 Mo13_2 1_555 1_555
O77_2 Mo12_3 1_555 1_555
O78_2 Mo19_2 1_555 1_555
Zn14_2 O24_2 1_555 1_555
Mo2_2 O10_2 1_555 1_555
Mo3_2 O7_2 1_555 1_555
Mo4_3 O11_2 1_555 1_555
P1_3 O6_3 1_555 1_555
C9_2 C10_2 1_555 1_555
C11_2 C13_2 1_555 1_555
C12_2 C14_2 1_555 1_555
C22_2 C24_2 1_555 1_555
C24_2 C28_2 1_555 1_555
O21_2 Zn8_2 1_555 1_555
C31_2 C32_2 1_555 1_555
O23_2 Zn13_2 1_555 1_555
C35_2 C36_2 1_555 1_555
C37_2 C39_2 1_555 1_555
C38_2 C40_2 1_555 1_555
C40_2 C44_2 1_555 1_555
P2_3 O43_3 1_555 1_555
Zn8_2 O59_2 1_555 1_555
O57_2 Mo19_2 1_555 1_555
Mo19_2 O73_2 1_555 1_555
Mo19_2 O74_2 1_555 1_555
Mo19_2 O76_2 1_555 1_555
Mo20_2 O73_2 1_555 1_555
Mo20_2 O74_2 1_555 1_555
Mo20_2 O77_2 1_555 1_555
O91_2 Mo24_2 1_555 1_555
O3_4 Zn9_2 1_555 1_555
O15_4 Mo4_4 1_555 1_555
O17_2 P1_4 1_555 1_555
Mo5_2 O3_4 1_555 1_555
O31_2 Mo4_4 1_555 1_555
O35_2 Mo5_2 1_555 1_555
Mo9_2 O40_4 1_555 1_555
Mo10_2 O39_2 1_555 1_555
Mo11_2 O93_2 1_555 1_555
Mo12_4 O45_2 1_555 1_555
Zn11_2 O39_2 1_555 1_555
Zn14_2 O44_2 1_555 1_555
P2_4 O42_2 1_555 1_555
O39_2 Mo11_2 1_555 1_555
O40_4 Zn11_2 1_555 1_555
O41_2 Mo10_2 1_555 1_555
O42_2 Mo10_2 1_555 1_555
O43_4 Mo11_2 1_555 1_555
O44_2 Mo10_2 1_555 1_555
O45_2 Zn14_2 1_555 1_555
O46_2 Mo11_2 1_555 1_555
O47_2 Mo9_2 1_555 1_555
O48_2 Mo11_2 1_555 1_555
O49_2 Mo9_2 1_555 1_555
O50_2 Mo10_2 1_555 1_555
O51_4 Mo12_4 1_555 1_555
Mo23_2 O17_2 1_555 1_555
Mo24_2 O6_4 1_555 1_555
O85_2 Zn9_2 1_555 1_555
O86_2 Zn13_2 1_555 1_555
O87_2 Mo24_2 1_555 1_555
O88_2 Mo5_2 1_555 1_555
O89_2 Mo4_4 1_555 1_555
O90_2 Mo23_2 1_555 1_555
P1_4 O6_4 1_555 1_555
Zn13_2 O31_2 1_555 1_555
O29_2 Mo23_2 1_555 1_555
Mo10_2 O47_2 1_555 1_555
Mo11_2 O44_2 1_555 1_555
Mo12_4 O48_2 1_555 1_555
P2_4 O43_4 1_555 1_555
Mo23_2 O85_2 1_555 1_555
Mo23_2 O86_2 1_555 1_555
Mo23_2 O88_2 1_555 1_555
Mo24_2 O85_2 1_555 1_555
Mo24_2 O86_2 1_555 1_555
Mo24_2 O89_2 1_555 1_555
P1_5 O5_3 1_555 1_555
O8_3 Zn2_3 1_555 1_555
O12_3 Mo1_3 1_555 1_555
Co1_4 N1_4 1_555 1_555
N1_4 C4_3 1_555 1_555
N2_3 Co1_4 1_555 1_555
C1_3 N2_3 1_555 1_555
C2_3 C1_3 1_555 1_555
C3_3 C1_3 1_555 1_555
H1_3 C3_3 1_555 1_555
C4_3 C2_3 1_555 1_555
C5_3 C2_3 1_555 1_555
C7_3 C6_3 1_555 1_555
C8_3 C4_3 1_555 1_555
H2_3 C8_3 1_555 1_555
O18_3 P1_5 1_555 1_555
N3_4 Co1_4 1_555 1_555
C11_3 N2_3 1_555 1_555
C12_3 C11_3 1_555 1_555
C13_3 C3_3 1_555 1_555
H6_3 C13_3 1_555 1_555
C14_3 N3_4 1_555 1_555
C15_3 C12_3 1_555 1_555
O19_2 C16_3 1_555 1_555
C16_3 C17_3 1_555 1_555
C17_3 C20_2 1_555 1_555
C18_3 C14_3 1_555 1_555
H7_3 C18_3 1_555 1_555
C19_2 C15_3 1_555 1_555
H8_2 C19_2 1_555 1_555
C20_2 C19_2 1_555 1_555
H9_2 C20_2 1_555 1_555
N4_3 Co1_4 1_555 1_555
C21_3 N4_3 1_555 1_555
C22_3 C21_3 1_555 1_555
C23_3 C21_3 1_555 1_555
H10_3 C23_3 1_555 1_555
C24_3 N1_4 1_555 1_555
C25_3 C22_3 1_555 1_555
O20_2 C26_3 1_555 1_555
C26_3 C27_3 1_555 1_555
C27_3 C30_2 1_555 1_555
C28_3 C8_3 1_555 1_555
H11_3 C28_3 1_555 1_555
C29_2 C25_3 1_555 1_555
H12_2 C29_2 1_555 1_555
C30_2 C29_2 1_555 1_555
H13_2 C30_2 1_555 1_555
O22_2 Zn2_3 1_555 1_555
C33_2 C5_3 1_555 1_555
H16_2 C33_2 1_555 1_555
C34_2 C7_3 1_555 1_555
H17_2 C34_2 1_555 1_555
C37_3 N4_3 1_555 1_555
C38_3 C37_3 1_555 1_555
C39_3 C23_3 1_555 1_555
H20_3 C39_3 1_555 1_555
C40_3 N3_4 1_555 1_555
C41_3 C38_3 1_555 1_555
C42_3 C43_3 1_555 1_555
C44_3 C18_3 1_555 1_555
H21_3 C44_3 1_555 1_555
O25_2 C42_3 1_555 1_555
C47_2 C41_3 1_555 1_555
H24_2 C47_2 1_555 1_555
C48_2 C43_3 1_555 1_555
H25_2 C48_2 1_555 1_555
Mo8_3 O8_3 1_555 1_555
O28_3 Mo1_3 1_555 1_555
O37_3 Mo8_3 1_555 1_555
O52_3 P2_5 1_555 1_555
O53_3 P2_5 1_555 1_555
Mo14_2 O52_3 1_555 1_555
Mo15_2 O53_3 1_555 1_555
Zn12 O55_2 1_555 1_555
Zn8_3 O20_2 1_555 1_555
O94 Mo15_2 1_555 1_555
O55_2 Mo14_2 1_555 1_555
O57_3 Mo14_2 1_555 1_555
O58_2 Mo14_2 1_555 1_555
O60_2 Mo15_2 1_555 1_555
O61_2 Mo13_3 1_555 1_555
O62_2 Mo15_2 1_555 1_555
O63_3 Mo13_3 1_555 1_555
O64_2 Mo14_2 1_555 1_555
O65_3 Mo16_3 1_555 1_555
O66_3 Co1_4 1_555 1_555
H27_2 O66_3 1_555 1_555
H28_2 O66_3 1_555 1_555
Mo21_2 O4_3 1_555 1_555
Mo22_2 O18_3 1_555 1_555
O79_2 Zn10 1_555 1_555
O80_2 Zn2_3 1_555 1_555
O81_2 Mo22_2 1_555 1_555
O82_2 Mo1_3 1_555 1_555
O83_2 Mo8_3 1_555 1_555
O84_2 Mo21_2 1_555 1_555
Zn13_3 O19_2 1_555 1_555
O5_3 Mo21_2 1_555 1_555
C6_3 O22_2 1_555 1_555
C11_3 C13_3 1_555 1_555
C12_3 C14_3 1_555 1_555
C22_3 C24_3 1_555 1_555
C24_3 C28_3 1_555 1_555
C33_2 C34_2 1_555 1_555
C37_3 C39_3 1_555 1_555
C38_3 C40_3 1_555 1_555
C40_3 C44_3 1_555 1_555
O25_2 Zn14_3 1_555 1_555
C47_2 C48_2 1_555 1_555
Zn10 O28_3 1_555 1_555
O92 Mo22_2 1_555 1_555
Mo13_3 O56_3 1_555 1_555
Mo14_2 O61_2 1_555 1_555
Mo15_2 O55_2 1_555 1_555
Mo15_2 O58_2 1_555 1_555
Mo16_3 O59_3 1_555 1_555
Mo16_3 O62_2 1_555 1_555
Zn12 O56_3 1_555 1_555
Zn8_3 O58_2 1_555 1_555
Zn8_3 O59_3 1_555 1_555
Mo21_2 O79_2 1_555 1_555
Mo21_2 O80_2 1_555 1_555
Mo21_2 O82_2 1_555 1_555
Mo22_2 O79_2 1_555 1_555
Mo22_2 O80_2 1_555 1_555
Mo22_2 O83_2 1_555 1_555
O17_3 P1_6 1_555 1_555
O18_4 P1_6 1_555 1_555
Mo6_2 O17_3 1_555 1_555
Mo7_2 O18_4 1_555 1_555
Zn10_2 O27_2 1_555 1_555
Zn13_3 O30_2 1_555 1_555
O92_2 Mo7_2 1_555 1_555
O27_2 Mo6_2 1_555 1_555
O29_3 Mo6_2 1_555 1_555
O30_2 Mo6_2 1_555 1_555
O32_2 Mo7_2 1_555 1_555
O33_2 Mo5_3 1_555 1_555
O34_2 Mo7_2 1_555 1_555
O35_3 Mo5_3 1_555 1_555
O36_2 Mo6_2 1_555 1_555
O37_4 Mo8_4 1_555 1_555
P2_6 O42_3 1_555 1_555
O45_3 Zn14_3 1_555 1_555
O49_3 Mo9_3 1_555 1_555
O53_4 P2_6 1_555 1_555
Mo16_4 O45_3 1_555 1_555
O56_4 Mo9_3 1_555 1_555
O65_4 Mo16_4 1_555 1_555
Mo17_2 O41_3 1_555 1_555
Mo18_2 O53_4 1_555 1_555
O67_2 Zn12_2 1_555 1_555
O68_2 Zn14_3 1_555 1_555
O69_2 Mo18_2 1_555 1_555
O70_2 Mo9_3 1_555 1_555
O71_2 Mo16_4 1_555 1_555
O72_2 Mo17_2 1_555 1_555
Mo5_3 O28_4 1_555 1_555
Mo6_2 O33_2 1_555 1_555
Mo7_2 O27_2 1_555 1_555
Mo7_2 O30_2 1_555 1_555
Mo8_4 O31_3 1_555 1_555
Mo8_4 O34_2 1_555 1_555
Zn10_2 O28_4 1_555 1_555
Zn13_3 O31_3 1_555 1_555
O42_3 Mo17_2 1_555 1_555
Zn12_2 O56_4 1_555 1_555
O94_2 Mo18_2 1_555 1_555
Mo17_2 O67_2 1_555 1_555
Mo17_2 O68_2 1_555 1_555
Mo17_2 O70_2 1_555 1_555
Mo18_2 O67_2 1_555 1_555
Mo18_2 O68_2 1_555 1_555
Mo18_2 O71_2 1_555 1_555
N2_4 Co1_5 1_555 1_555
O16_4 Co1_5 1_555 1_555
H5_3 O16_4 1_555 1_555
N3_5 Co1_5 1_555 1_555
C11_4 N2_4 1_555 1_555
C12_4 C11_4 1_555 1_555
H6_4 C13_4 1_555 1_555
C14_4 N3_5 1_555 1_555
C15_4 C12_4 1_555 1_555
O19_3 C16_4 1_555 1_555
C16_4 C17_4 1_555 1_555
C17_4 C20_3 1_555 1_555
C18_4 C14_4 1_555 1_555
H7_4 C18_4 1_555 1_555
C19_3 C15_4 1_555 1_555
H8_3 C19_3 1_555 1_555
C20_3 C19_3 1_555 1_555
H9_3 C20_3 1_555 1_555
N4_4 Co1_5 1_555 1_555
O23_3 C16_4 1_555 1_555
C35_3 C15_4 1_555 1_555
H18_3 C35_3 1_555 1_555
C36_3 C17_4 1_555 1_555
H19_3 C36_3 1_555 1_555
C37_4 N4_4 1_555 1_555
C38_4 C37_4 1_555 1_555
H20_4 C39_4 1_555 1_555
C40_4 N3_5 1_555 1_555
C41_4 C38_4 1_555 1_555
O24_3 C42_4 1_555 1_555
C42_4 C43_4 1_555 1_555
C43_4 C46_3 1_555 1_555
C44_4 C18_4 1_555 1_555
H21_4 C44_4 1_555 1_555
C45_3 C41_4 1_555 1_555
H22_3 C45_3 1_555 1_555
C46_3 C45_3 1_555 1_555
H23_3 C46_3 1_555 1_555
O25_3 C42_4 1_555 1_555
C47_3 C41_4 1_555 1_555
H24_3 C47_3 1_555 1_555
C48_3 C43_4 1_555 1_555
H25_3 C48_3 1_555 1_555
H26_3 O16_4 1_555 1_555
O66_4 Co1_5 1_555 1_555
H27_3 O66_4 1_555 1_555
H28_3 O66_4 1_555 1_555
Zn13_4 O19_3 1_555 1_555
Zn14_4 O24_3 1_555 1_555
C11_4 C13_4 1_555 1_555
C12_4 C14_4 1_555 1_555
O23_3 Zn13_4 1_555 1_555
C35_3 C36_3 1_555 1_555
C37_4 C39_4 1_555 1_555
C38_4 C40_4 1_555 1_555
C40_4 C44_4 1_555 1_555
O25_3 Zn14_4 1_555 1_555
C47_3 C48_3 1_555 1_555
Mo1_4 O3_5 1_555 1_555
Mo2_3 O2_3 1_555 1_555
Mo3_3 O1_3 1_555 1_555
Mo4_5 O8_4 1_555 1_555
Zn1_3 O2_3 1_555 1_555
Zn2_4 O7_3 1_555 1_555
P1_7 O5_4 1_555 1_555
O1_3 Mo24_3 1_555 1_555
O2_3 Mo3_3 1_555 1_555
O3_5 Zn1_3 1_555 1_555
O4_4 Mo2_3 1_555 1_555
O5_4 Mo2_3 1_555 1_555
O6_5 Mo3_3 1_555 1_555
O7_3 Mo2_3 1_555 1_555
O8_4 Zn2_4 1_555 1_555
O9_3 Mo3_3 1_555 1_555
O10_3 Mo1_4 1_555 1_555
O11_3 Mo3_3 1_555 1_555
O12_4 Mo1_4 1_555 1_555
Co1_6 N1_5 1_555 1_555
N1_5 C4_4 1_555 1_555
N2_5 Co1_6 1_555 1_555
O13_3 Mo2_3 1_555 1_555
C1_4 N2_5 1_555 1_555
C2_4 C1_4 1_555 1_555
C3_4 C1_4 1_555 1_555
H1_4 C3_4 1_555 1_555
C4_4 C2_4 1_555 1_555
C5_4 C2_4 1_555 1_555
O14_3 Zn2_4 1_555 1_555
C6_4 O14_3 1_555 1_555
C7_4 C6_4 1_555 1_555
C8_4 C4_4 1_555 1_555
H2_4 C8_4 1_555 1_555
C9_3 C5_4 1_555 1_555
H3_3 C9_3 1_555 1_555
C10_3 C7_4 1_555 1_555
H4_3 C10_3 1_555 1_555
O15_5 Mo4_5 1_555 1_555
O16_5 Co1_6 1_555 1_555
H5_4 O16_5 1_555 1_555
O17_4 P1_7 1_555 1_555
O18_5 P1_7 1_555 1_555
N4_5 Co1_6 1_555 1_555
C21_4 N4_5 1_555 1_555
C22_4 C21_4 1_555 1_555
C23_4 C21_4 1_555 1_555
H10_4 C23_4 1_555 1_555
C24_4 N1_5 1_555 1_555
C25_4 C22_4 1_555 1_555
O20_3 C26_4 1_555 1_555
C26_4 C27_4 1_555 1_555
C27_4 C30_3 1_555 1_555
C28_4 C8_4 1_555 1_555
H11_4 C28_4 1_555 1_555
C29_3 C25_4 1_555 1_555
H12_3 C29_3 1_555 1_555
C30_3 C29_3 1_555 1_555
H13_3 C30_3 1_555 1_555
O21_3 C26_4 1_555 1_555
C31_3 C25_4 1_555 1_555
H14_3 C31_3 1_555 1_555
C32_3 C27_4 1_555 1_555
H15_3 C32_3 1_555 1_555
O22_3 Zn2_4 1_555 1_555
C33_3 C5_4 1_555 1_555
H16_3 C33_3 1_555 1_555
C34_3 C7_4 1_555 1_555
H17_3 C34_3 1_555 1_555
H26_4 O16_5 1_555 1_555
Mo5_4 O3_5 1_555 1_555
Mo6_3 O17_4 1_555 1_555
Mo7_3 O18_5 1_555 1_555
Mo8_5 O8_4 1_555 1_555
Zn3_3 O27_3 1_555 1_555
Zn13_4 O30_3 1_555 1_555
O26_3 Mo7_3 1_555 1_555
O27_3 Mo6_3 1_555 1_555
O28_5 Mo1_4 1_555 1_555
O29_4 Mo6_3 1_555 1_555
O30_3 Mo6_3 1_555 1_555
O31_4 Mo4_5 1_555 1_555
O32_3 Mo7_3 1_555 1_555
O33_3 Mo5_4 1_555 1_555
O34_3 Mo7_3 1_555 1_555
O35_4 Mo5_4 1_555 1_555
O36_3 Mo6_3 1_555 1_555
O37_5 Mo8_5 1_555 1_555
Mo9_4 O40_5 1_555 1_555
Mo10_3 O39_3 1_555 1_555
Mo11_3 O38_3 1_555 1_555
Mo12_5 O45_4 1_555 1_555
Zn5_3 O39_3 1_555 1_555
Zn14_4 O44_3 1_555 1_555
P2_7 O42_4 1_555 1_555
O38_3 Mo20_3 1_555 1_555
O39_3 Mo11_3 1_555 1_555
O40_5 Zn5_3 1_555 1_555
O41_4 Mo10_3 1_555 1_555
O42_4 Mo10_3 1_555 1_555
O43_5 Mo11_3 1_555 1_555
O44_3 Mo10_3 1_555 1_555
O45_4 Zn14_4 1_555 1_555
O46_3 Mo11_3 1_555 1_555
O47_3 Mo9_4 1_555 1_555
O48_3 Mo11_3 1_555 1_555
O49_4 Mo9_4 1_555 1_555
O50_3 Mo10_3 1_555 1_555
O51_5 Mo12_5 1_555 1_555
O52_4 P2_7 1_555 1_555
O53_5 P2_7 1_555 1_555
Mo13_4 O40_5 1_555 1_555
Mo14_3 O52_4 1_555 1_555
Mo15_3 O53_5 1_555 1_555
Mo16_5 O45_4 1_555 1_555
Zn7_3 O55_3 1_555 1_555
Zn8_4 O20_3 1_555 1_555
O54_3 Mo15_3 1_555 1_555
O55_3 Mo14_3 1_555 1_555
O56_5 Mo9_4 1_555 1_555
O57_4 Mo14_3 1_555 1_555
O58_3 Mo14_3 1_555 1_555
O59_4 Mo12_5 1_555 1_555
O60_3 Mo15_3 1_555 1_555
O61_3 Mo13_4 1_555 1_555
O62_3 Mo15_3 1_555 1_555
O63_4 Mo13_4 1_555 1_555
O64_3 Mo14_3 1_555 1_555
O65_5 Mo16_5 1_555 1_555
O66_5 Co1_6 1_555 1_555
H27_4 O66_5 1_555 1_555
H28_4 O66_5 1_555 1_555
Mo17_3 O41_4 1_555 1_555
Mo18_3 O53_5 1_555 1_555
O67_3 Zn7_3 1_555 1_555
O68_3 Zn14_4 1_555 1_555
O69_3 Mo18_3 1_555 1_555
O70_3 Mo9_4 1_555 1_555
O71_3 Mo16_5 1_555 1_555
O72_3 Mo17_3 1_555 1_555
Mo19_3 O52_4 1_555 1_555
Mo20_3 O43_5 1_555 1_555
O73_3 Zn5_3 1_555 1_555
O74_3 Zn8_4 1_555 1_555
O75_3 Mo20_3 1_555 1_555
O76_3 Mo13_4 1_555 1_555
O77_3 Mo12_5 1_555 1_555
O78_3 Mo19_3 1_555 1_555
Mo21_3 O4_4 1_555 1_555
Mo22_3 O18_5 1_555 1_555
O79_3 Zn3_3 1_555 1_555
O80_3 Zn2_4 1_555 1_555
O81_3 Mo22_3 1_555 1_555
O82_3 Mo1_4 1_555 1_555
O83_3 Mo8_5 1_555 1_555
O84_3 Mo21_3 1_555 1_555
Mo23_3 O17_4 1_555 1_555
Mo24_3 O6_5 1_555 1_555
O85_3 Zn1_3 1_555 1_555
O86_3 Zn13_4 1_555 1_555
O87_3 Mo24_3 1_555 1_555
O88_3 Mo5_4 1_555 1_555
O89_3 Mo4_5 1_555 1_555
O90_3 Mo23_3 1_555 1_555
Zn9_3 O54_3 1_555 1_555
Zn10_3 O38_3 1_555 1_555
Zn11_3 O26_3 1_555 1_555
Zn12_3 O1_3 1_555 1_555
O91_3 Zn7_3 1_555 1_555
O92_3 Zn5_3 1_555 1_555
O93_3 Zn3_3 1_555 1_555
O94_3 Zn1_3 1_555 1_555
Mo2_3 O10_3 1_555 1_555
Mo3_3 O7_3 1_555 1_555
Mo4_5 O11_3 1_555 1_555
P1_7 O6_5 1_555 1_555
O5_4 Mo21_3 1_555 1_555
C6_4 O22_3 1_555 1_555
C9_3 C10_3 1_555 1_555
C22_4 C24_4 1_555 1_555
C24_4 C28_4 1_555 1_555
O21_3 Zn8_4 1_555 1_555
C31_3 C32_3 1_555 1_555
C33_3 C34_3 1_555 1_555
Mo5_4 O28_5 1_555 1_555
Mo6_3 O33_3 1_555 1_555
Mo7_3 O27_3 1_555 1_555
Mo7_3 O30_3 1_555 1_555
Mo8_5 O31_4 1_555 1_555
Mo8_5 O34_3 1_555 1_555
Zn3_3 O28_5 1_555 1_555
Zn13_4 O31_4 1_555 1_555
O26_3 Mo22_3 1_555 1_555
O29_4 Mo23_3 1_555 1_555
Mo10_3 O47_3 1_555 1_555
Mo11_3 O44_3 1_555 1_555
Mo12_5 O48_3 1_555 1_555
P2_7 O43_5 1_555 1_555
O42_4 Mo17_3 1_555 1_555
Mo13_4 O56_5 1_555 1_555
Mo14_3 O61_3 1_555 1_555
Mo15_3 O55_3 1_555 1_555
Mo15_3 O58_3 1_555 1_555
Mo16_5 O59_4 1_555 1_555
Mo16_5 O62_3 1_555 1_555
Zn7_3 O56_5 1_555 1_555
Zn8_4 O58_3 1_555 1_555
Zn8_4 O59_4 1_555 1_555
O54_3 Mo18_3 1_555 1_555
O57_4 Mo19_3 1_555 1_555
Mo17_3 O67_3 1_555 1_555
Mo17_3 O68_3 1_555 1_555
Mo17_3 O70_3 1_555 1_555
Mo18_3 O67_3 1_555 1_555
Mo18_3 O68_3 1_555 1_555
Mo18_3 O71_3 1_555 1_555
Mo19_3 O73_3 1_555 1_555
Mo19_3 O74_3 1_555 1_555
Mo19_3 O76_3 1_555 1_555
Mo20_3 O73_3 1_555 1_555
Mo20_3 O74_3 1_555 1_555
Mo20_3 O77_3 1_555 1_555
Mo21_3 O79_3 1_555 1_555
Mo21_3 O80_3 1_555 1_555
Mo21_3 O82_3 1_555 1_555
Mo22_3 O79_3 1_555 1_555
Mo22_3 O80_3 1_555 1_555
Mo22_3 O83_3 1_555 1_555
Mo23_3 O85_3 1_555 1_555
Mo23_3 O86_3 1_555 1_555
Mo23_3 O88_3 1_555 1_555
Mo24_3 O85_3 1_555 1_555
Mo24_3 O86_3 1_555 1_555
Mo24_3 O89_3 1_555 1_555
N2_6 Co1_7 1_555 1_555
O16_6 Co1_7 1_555 1_555
H5_5 O16_6 1_555 1_555
N3_6 Co1_7 1_555 1_555
C11_5 N2_6 1_555 1_555
C12_5 C11_5 1_555 1_555
H6_5 C13_5 1_555 1_555
C14_5 N3_6 1_555 1_555
C15_5 C12_5 1_555 1_555
C16_5 C17_5 1_555 1_555
C18_5 C14_5 1_555 1_555
H7_5 C18_5 1_555 1_555
O23_4 C16_5 1_555 1_555
C35_4 C15_5 1_555 1_555
H18_4 C35_4 1_555 1_555
C36_4 C17_5 1_555 1_555
H19_4 C36_4 1_555 1_555
C11_5 C13_5 1_555 1_555
C12_5 C14_5 1_555 1_555
O23_4 Zn13_5 1_555 1_555
C35_4 C36_4 1_555 1_555
O16_7 Co1_8 1_555 1_555
N3_7 Co1_8 1_555 1_555
N4_6 Co1_8 1_555 1_555
C37_5 N4_6 1_555 1_555
C38_5 C37_5 1_555 1_555
H20_5 C39_5 1_555 1_555
C40_5 N3_7 1_555 1_555
C41_5 C38_5 1_555 1_555
O24_4 C42_5 1_555 1_555
C42_5 C43_5 1_555 1_555
C43_5 C46_4 1_555 1_555
H21_5 C44_5 1_555 1_555
C45_4 C41_5 1_555 1_555
H22_4 C45_4 1_555 1_555
C46_4 C45_4 1_555 1_555
H23_4 C46_4 1_555 1_555
H26_5 O16_7 1_555 1_555
Zn14_5 O24_4 1_555 1_555
C37_5 C39_5 1_555 1_555
C38_5 C40_5 1_555 1_555
C40_5 C44_5 1_555 1_555
Mo1_5 O3_6 1_555 1_555
Mo2_4 O2_4 1_555 1_555
Mo3_4 O91_3 1_555 1_555
Mo4_6 O8_5 1_555 1_555
Zn9_3 O2_4 1_555 1_555
Zn2_5 O7_4 1_555 1_555
P1_8 O5_5 1_555 1_555
O91_3 Mo24_4 1_555 1_555
O2_4 Mo3_4 1_555 1_555
O3_6 Zn9_3 1_555 1_555
O4_5 Mo2_4 1_555 1_555
O5_5 Mo2_4 1_555 1_555
O6_6 Mo3_4 1_555 1_555
O7_4 Mo2_4 1_555 1_555
O8_5 Zn2_5 1_555 1_555
O9_4 Mo3_4 1_555 1_555
O10_4 Mo1_5 1_555 1_555
O11_4 Mo3_4 1_555 1_555
O12_5 Mo1_5 1_555 1_555
Co1_9 N1_6 1_555 1_555
N1_6 C4_5 1_555 1_555
N2_7 Co1_9 1_555 1_555
O13_4 Mo2_4 1_555 1_555
C1_5 N2_7 1_555 1_555
C2_5 C1_5 1_555 1_555
C3_5 C1_5 1_555 1_555
H1_5 C3_5 1_555 1_555
C4_5 C2_5 1_555 1_555
C5_5 C2_5 1_555 1_555
O14_4 Zn2_5 1_555 1_555
C6_5 O14_4 1_555 1_555
C7_5 C6_5 1_555 1_555
C8_5 C4_5 1_555 1_555
H2_5 C8_5 1_555 1_555
C9_4 C5_5 1_555 1_555
H3_4 C9_4 1_555 1_555
C10_4 C7_5 1_555 1_555
H4_4 C10_4 1_555 1_555
O15_6 Mo4_6 1_555 1_555
O16_8 Co1_9 1_555 1_555
H5_6 O16_8 1_555 1_555
O17_5 P1_8 1_555 1_555
Mo5_5 O3_6 1_555 1_555
O31_5 Mo4_6 1_555 1_555
O35_5 Mo5_5 1_555 1_555
Mo23_4 O17_5 1_555 1_555
Mo24_4 O6_6 1_555 1_555
O85_4 Zn9_3 1_555 1_555
O86_4 Zn13_5 1_555 1_555
O87_4 Mo24_4 1_555 1_555
O88_4 Mo5_5 1_555 1_555
O89_4 Mo4_6 1_555 1_555
O90_4 Mo23_4 1_555 1_555
Mo2_4 O10_4 1_555 1_555
Mo3_4 O7_4 1_555 1_555
Mo4_6 O11_4 1_555 1_555
P1_8 O6_6 1_555 1_555
C9_4 C10_4 1_555 1_555
Zn13_5 O31_5 1_555 1_555
O29_5 Mo23_4 1_555 1_555
Mo23_4 O85_4 1_555 1_555
Mo23_4 O86_4 1_555 1_555
Mo23_4 O88_4 1_555 1_555
Mo24_4 O85_4 1_555 1_555
Mo24_4 O86_4 1_555 1_555
Mo24_4 O89_4 1_555 1_555
Co1_10 N1_7 1_555 1_555
O16_9 Co1_10 1_555 1_555
N4_7 Co1_10 1_555 1_555
C21_5 N4_7 1_555 1_555
C22_5 C21_5 1_555 1_555
C23_5 C21_5 1_555 1_555
H10_5 C23_5 1_555 1_555
C24_5 N1_7 1_555 1_555
C25_5 C22_5 1_555 1_555
C26_5 C27_5 1_555 1_555
H11_5 C28_5 1_555 1_555
O21_4 C26_5 1_555 1_555
C31_4 C25_5 1_555 1_555
H14_4 C31_4 1_555 1_555
C32_4 C27_5 1_555 1_555
H15_4 C32_4 1_555 1_555
H26_6 O16_9 1_555 1_555
Mo9_5 O40_6 1_555 1_555
Mo10_4 O39_4 1_555 1_555
Mo11_4 O93_3 1_555 1_555
Mo12_6 O45_5 1_555 1_555
Zn11_3 O39_4 1_555 1_555
Zn14_5 O44_4 1_555 1_555
P2_8 O42_5 1_555 1_555
O93_3 Mo20_4 1_555 1_555
O39_4 Mo11_4 1_555 1_555
O40_6 Zn11_3 1_555 1_555
O41_5 Mo10_4 1_555 1_555
O42_5 Mo10_4 1_555 1_555
O43_6 Mo11_4 1_555 1_555
O44_4 Mo10_4 1_555 1_555
O45_5 Zn14_5 1_555 1_555
O46_4 Mo11_4 1_555 1_555
O47_4 Mo9_5 1_555 1_555
O48_4 Mo11_4 1_555 1_555
O49_5 Mo9_5 1_555 1_555
O50_4 Mo10_4 1_555 1_555
O51_6 Mo12_6 1_555 1_555
O52_5 P2_8 1_555 1_555
Mo13_5 O40_6 1_555 1_555
O59_5 Mo12_6 1_555 1_555
O63_5 Mo13_5 1_555 1_555
Mo19_4 O52_5 1_555 1_555
Mo20_4 O43_6 1_555 1_555
O73_4 Zn11_3 1_555 1_555
O74_4 Zn8_5 1_555 1_555
O75_4 Mo20_4 1_555 1_555
O76_4 Mo13_5 1_555 1_555
O77_4 Mo12_6 1_555 1_555
O78_4 Mo19_4 1_555 1_555
C22_5 C24_5 1_555 1_555
C24_5 C28_5 1_555 1_555
O21_4 Zn8_5 1_555 1_555
C31_4 C32_4 1_555 1_555
Mo10_4 O47_4 1_555 1_555
Mo11_4 O44_4 1_555 1_555
Mo12_6 O48_4 1_555 1_555
P2_8 O43_6 1_555 1_555
Zn8_5 O59_5 1_555 1_555
O57_5 Mo19_4 1_555 1_555
Mo19_4 O73_4 1_555 1_555
Mo19_4 O74_4 1_555 1_555
Mo19_4 O76_4 1_555 1_555
Mo20_4 O73_4 1_555 1_555
Mo20_4 O74_4 1_555 1_555
Mo20_4 O77_4 1_555 1_555
N2_8 Co1_11 1_555 1_555
N3_8 Co1_11 1_555 1_555
C11_6 N2_8 1_555 1_555
C12_6 C11_6 1_555 1_555
H6_6 C13_6 1_555 1_555
C14_6 N3_8 1_555 1_555
C15_6 C12_6 1_555 1_555
O19_4 C16_6 1_555 1_555
C16_6 C17_6 1_555 1_555
C17_6 C20_4 1_555 1_555
C18_6 C14_6 1_555 1_555
H7_6 C18_6 1_555 1_555
C19_4 C15_6 1_555 1_555
H8_4 C19_4 1_555 1_555
C20_4 C19_4 1_555 1_555
H9_4 C20_4 1_555 1_555
O66_6 Co1_11 1_555 1_555
H28_5 O66_6 1_555 1_555
Zn13_6 O19_4 1_555 1_555
C11_6 C13_6 1_555 1_555
C12_6 C14_6 1_555 1_555
N3_9 Co1_12 1_555 1_555
N4_8 Co1_12 1_555 1_555
C37_6 N4_8 1_555 1_555
C38_6 C37_6 1_555 1_555
H20_6 C39_6 1_555 1_555
C40_6 N3_9 1_555 1_555
C41_6 C38_6 1_555 1_555
C42_6 C43_6 1_555 1_555
H21_6 C44_6 1_555 1_555
O25_4 C42_6 1_555 1_555
C47_4 C41_6 1_555 1_555
H24_4 C47_4 1_555 1_555
C48_4 C43_6 1_555 1_555
H25_4 C48_4 1_555 1_555
O66_7 Co1_12 1_555 1_555
H27_5 O66_7 1_555 1_555
C37_6 C39_6 1_555 1_555
C38_6 C40_6 1_555 1_555
C40_6 C44_6 1_555 1_555
O25_4 Zn14_6 1_555 1_555
C47_4 C48_4 1_555 1_555
P1_9 O5_6 1_555 1_555
O8_6 Zn2_6 1_555 1_555
O12_6 Mo1_6 1_555 1_555
Co1_13 N1_8 1_555 1_555
N1_8 C4_6 1_555 1_555
N2_9 Co1_13 1_555 1_555
C1_6 N2_9 1_555 1_555
C2_6 C1_6 1_555 1_555
C3_6 C1_6 1_555 1_555
H1_6 C3_6 1_555 1_555
C4_6 C2_6 1_555 1_555
C5_6 C2_6 1_555 1_555
C7_6 C6_6 1_555 1_555
C8_6 C4_6 1_555 1_555
H2_6 C8_6 1_555 1_555
O17_6 P1_9 1_555 1_555
O18_6 P1_9 1_555 1_555
O22_4 Zn2_6 1_555 1_555
C33_4 C5_6 1_555 1_555
H16_4 C33_4 1_555 1_555
C34_4 C7_6 1_555 1_555
H17_4 C34_4 1_555 1_555
Mo6_4 O17_6 1_555 1_555
Mo7_4 O18_6 1_555 1_555
Mo8_6 O8_6 1_555 1_555
Zn10_3 O27_4 1_555 1_555
Zn13_6 O30_4 1_555 1_555
O92_3 Mo7_4 1_555 1_555
O27_4 Mo6_4 1_555 1_555
O28_6 Mo1_6 1_555 1_555
O29_6 Mo6_4 1_555 1_555
O30_4 Mo6_4 1_555 1_555
O32_4 Mo7_4 1_555 1_555
O33_4 Mo5_6 1_555 1_555
O34_4 Mo7_4 1_555 1_555
O35_6 Mo5_6 1_555 1_555
O36_4 Mo6_4 1_555 1_555
O37_6 Mo8_6 1_555 1_555
O66_8 Co1_13 1_555 1_555
H28_6 O66_8 1_555 1_555
Mo21_4 O4_6 1_555 1_555
Mo22_4 O18_6 1_555 1_555
O79_4 Zn10_3 1_555 1_555
O80_4 Zn2_6 1_555 1_555
O81_4 Mo22_4 1_555 1_555
O82_4 Mo1_6 1_555 1_555
O83_4 Mo8_6 1_555 1_555
O84_4 Mo21_4 1_555 1_555
O5_6 Mo21_4 1_555 1_555
C6_6 O22_4 1_555 1_555
C33_4 C34_4 1_555 1_555
Mo5_6 O28_6 1_555 1_555
Mo6_4 O33_4 1_555 1_555
Mo7_4 O27_4 1_555 1_555
Mo7_4 O30_4 1_555 1_555
Mo8_6 O31_6 1_555 1_555
Mo8_6 O34_4 1_555 1_555
Zn10_3 O28_6 1_555 1_555
Zn13_6 O31_6 1_555 1_555
O92_3 Mo22_4 1_555 1_555
Mo21_4 O79_4 1_555 1_555
Mo21_4 O80_4 1_555 1_555
Mo21_4 O82_4 1_555 1_555
Mo22_4 O79_4 1_555 1_555
Mo22_4 O80_4 1_555 1_555
Mo22_4 O83_4 1_555 1_555
Co1_14 N1_9 1_555 1_555
N4_9 Co1_14 1_555 1_555
C21_6 N4_9 1_555 1_555
C22_6 C21_6 1_555 1_555
C23_6 C21_6 1_555 1_555
H10_6 C23_6 1_555 1_555
C24_6 N1_9 1_555 1_555
C25_6 C22_6 1_555 1_555
O20_4 C26_6 1_555 1_555
C26_6 C27_6 1_555 1_555
C27_6 C30_4 1_555 1_555
H11_6 C28_6 1_555 1_555
C29_4 C25_6 1_555 1_555
H12_4 C29_4 1_555 1_555
C30_4 C29_4 1_555 1_555
H13_4 C30_4 1_555 1_555
P2_9 O42_6 1_555 1_555
O45_6 Zn14_6 1_555 1_555
O49_6 Mo9_6 1_555 1_555
O52_6 P2_9 1_555 1_555
O53_6 P2_9 1_555 1_555
Mo14_4 O52_6 1_555 1_555
Mo15_4 O53_6 1_555 1_555
Mo16_6 O45_6 1_555 1_555
Zn12_3 O55_4 1_555 1_555
Zn8_6 O20_4 1_555 1_555
O94_3 Mo15_4 1_555 1_555
O55_4 Mo14_4 1_555 1_555
O56_6 Mo9_6 1_555 1_555
O57_6 Mo14_4 1_555 1_555
O58_4 Mo14_4 1_555 1_555
O60_4 Mo15_4 1_555 1_555
O61_4 Mo13_6 1_555 1_555
O62_4 Mo15_4 1_555 1_555
O63_6 Mo13_6 1_555 1_555
O64_4 Mo14_4 1_555 1_555
O65_6 Mo16_6 1_555 1_555
O66_9 Co1_14 1_555 1_555
H27_6 O66_9 1_555 1_555
Mo17_4 O41_6 1_555 1_555
Mo18_4 O53_6 1_555 1_555
O67_4 Zn12_3 1_555 1_555
O68_4 Zn14_6 1_555 1_555
O69_4 Mo18_4 1_555 1_555
O70_4 Mo9_6 1_555 1_555
O71_4 Mo16_6 1_555 1_555
O72_4 Mo17_4 1_555 1_555
C22_6 C24_6 1_555 1_555
C24_6 C28_6 1_555 1_555
O42_6 Mo17_4 1_555 1_555
Mo13_6 O56_6 1_555 1_555
Mo14_4 O61_4 1_555 1_555
Mo15_4 O55_4 1_555 1_555
Mo15_4 O58_4 1_555 1_555
Mo16_6 O59_6 1_555 1_555
Mo16_6 O62_4 1_555 1_555
Zn12_3 O56_6 1_555 1_555
Zn8_6 O58_4 1_555 1_555
Zn8_6 O59_6 1_555 1_555
O94_3 Mo18_4 1_555 1_555
Mo17_4 O67_4 1_555 1_555
Mo17_4 O68_4 1_555 1_555
Mo17_4 O70_4 1_555 1_555
Mo18_4 O67_4 1_555 1_555
Mo18_4 O68_4 1_555 1_555
Mo18_4 O71_4 1_555 1_555

#END
