
###############################################################################
#
# This file contains modified crystal structure data generated from the
# MOF subset of the Cambridge Structural Database (CSD) v543 
# hosted by the Cambridge Crystallographic Data Centre (CCDC).
#
# This work is licensed under the Creative Commons
# Attribution-NonCommercial-ShareAlike 4.0 International License.
# To view a copy of this license, visit
# http://creativecommons.org/licenses/by-nc-sa/4.0/
# or send a letter to
# Creative Commons, PO Box 1866, Mountain View, CA 94042, USA.
#
# CIF created using the CSD Python API on 29 September 2022
# The structure has been converted into the P1 space group
# The structure has a 3D framework
# The original CSD entry XILKOV is in the cubic crystal system
# The framework has been calculated to contain at least 10.0% void space
# The void calculation uses a probe of radius 1.32A, grid spacing 0.4
# The framework is charged, counterions have been retained in the structure
#
###############################################################################

data_XILKOV
_chemical_formula_moiety         '(C120 H96 Co7 N48 14+)n'
_symmetry_cell_setting           triclinic
_symmetry_space_group_name_H-M   'P 1'
_symmetry_Int_Tables_number      1
_space_group_name_Hall           'P 1'
loop_
_symmetry_equiv_pos_site_id
_symmetry_equiv_pos_as_xyz
1 x,y,z
_cell_length_a                   16.5749(5)
_cell_length_b                   16.5749(5)
_cell_length_c                   16.5749(5)
_cell_angle_alpha                90
_cell_angle_beta                 90
_cell_angle_gamma                90
_cell_volume                     4553.58
loop_
_atom_site_label
_atom_site_type_symbol
_atom_site_fract_x
_atom_site_fract_y
_atom_site_fract_z
Co3 Co 0.000000 0.000000 0.500000
Co3_2 Co 0.000000 1.000000 0.500000
C1 C 0.7215(8) 0.0506(9) 0.1290(9)
H1 H 0.776101 0.043795 0.139911
C2 C 0.6777(7) 0.0125(9) 0.0715(9)
C3 C 0.5987(7) 0.0945(9) 0.1271(9)
H3 H 0.553361 0.125541 0.138345
C4 C 0.6864(6) 0.1523(7) 0.2334(6)
C5 C 0.6356(6) 0.2186(6) 0.2492(6)
H4 H 0.591466 0.229283 0.216173
Co1 Co 0.500000 0.000000 0.000000
N1 N 0.6016(5) 0.0397(5) 0.0702(5)
N2 N 0.6694(5) 0.1009(5) 0.1676(5)
C6 C 0.8710(9) 0.2215(8) 0.4494(9)
H5 H 0.860089 0.276101 0.456205
C7 C 0.9285(9) 0.1777(7) 0.4875(9)
H6 H 0.962592 0.197782 0.527244
C8 C 0.8729(9) 0.0987(7) 0.4055(9)
H7 H 0.861655 0.053361 0.374459
C9 C 0.7666(6) 0.1864(6) 0.3477(7)
C10 C 0.7508(6) 0.1356(6) 0.2814(6)
H8 H 0.783827 0.091466 0.270717
N3 N 0.9298(5) 0.1016(5) 0.4603(5)
N4 N 0.8324(5) 0.1694(5) 0.3991(5)
C11 C 0.5506(9) 0.3710(9) 0.2785(8)
H9 H 0.543795 0.360089 0.223899
C12 C 0.5125(9) 0.4285(9) 0.3223(7)
H10 H 0.472756 0.462592 0.302218
C13 C 0.5945(9) 0.3729(9) 0.4013(7)
H11 H 0.625541 0.361655 0.446639
C14 C 0.6523(7) 0.2666(6) 0.3136(6)
C15 C 0.7186(6) 0.2508(6) 0.3644(6)
H12 H 0.729283 0.283827 0.408534
N5 N 0.5397(5) 0.4298(5) 0.3984(5)
N6 N 0.6009(5) 0.3324(5) 0.3306(5)
Co3_3 Co 1.000000 0.000000 0.500000
Co5 Co 0.500000 0.500000 0.500000
N15 N 0.4298(5) 0.1016(5) 0.0397(5)
Co1_2 Co 0.500000 0.000000 1.000000
H14 H 0.302218 0.027244 0.962592
N16 N 0.5397(5) 0.0702(5) 0.8984(5)
H2 H 0.697782 0.972756 0.037408
Co1_3 Co 0.500000 1.000000 0.000000
Co3_4 Co 1.000000 1.000000 0.500000
N14 N 0.4603(5) 0.9298(5) 0.1016(5)
Co1_4 Co 0.500000 1.000000 1.000000
C16 C 0.2785(8) 0.9494(9) 0.8710(9)
H13 H 0.223899 0.956205 0.860089
C17 C 0.3223(7) 0.9875(9) 0.9285(9)
C18 C 0.4013(7) 0.9055(9) 0.8729(9)
H15 H 0.446639 0.874459 0.861655
C19 C 0.3136(6) 0.8477(7) 0.7666(6)
C20 C 0.3644(6) 0.7814(6) 0.7508(6)
H16 H 0.408534 0.770717 0.783827
N7 N 0.3984(5) 0.9603(5) 0.9298(5)
N8 N 0.3306(5) 0.8991(5) 0.8324(5)
C21 C 0.1290(9) 0.7785(8) 0.5506(9)
H17 H 0.139911 0.723899 0.543795
C22 C 0.0715(9) 0.8223(7) 0.5125(9)
H18 H 0.037408 0.802218 0.472756
C23 C 0.1271(9) 0.9013(7) 0.5945(9)
H19 H 0.138345 0.946639 0.625541
C24 C 0.2334(6) 0.8136(6) 0.6523(7)
C25 C 0.2492(6) 0.8644(6) 0.7186(6)
H20 H 0.216173 0.908534 0.729283
N9 N 0.0702(5) 0.8984(5) 0.5397(5)
N10 N 0.1676(5) 0.8306(5) 0.6009(5)
C26 C 0.4494(9) 0.6290(9) 0.7215(8)
H21 H 0.456205 0.639911 0.776101
C27 C 0.4875(9) 0.5715(9) 0.6777(7)
H22 H 0.527244 0.537408 0.697782
C28 C 0.4055(9) 0.6271(9) 0.5987(7)
H23 H 0.374459 0.638345 0.553361
C29 C 0.3477(7) 0.7334(6) 0.6864(6)
C30 C 0.2814(6) 0.7492(6) 0.6356(6)
H24 H 0.270717 0.716173 0.591466
N11 N 0.4603(5) 0.5702(5) 0.6016(5)
N12 N 0.3991(5) 0.6676(5) 0.6694(5)
N13 N 0.5702(5) 0.8984(5) 0.9603(5)
C16_2 C 0.2215(8) 0.0506(9) 0.3710(9)
H13_2 H 0.276101 0.043795 0.360089
C17_2 C 0.1777(7) 0.0125(9) 0.4285(9)
C18_2 C 0.0987(7) 0.0945(9) 0.3729(9)
H15_2 H 0.053361 0.125541 0.361655
C19_2 C 0.1864(6) 0.1523(7) 0.2666(6)
C20_2 C 0.1356(6) 0.2186(6) 0.2508(6)
H16_2 H 0.091466 0.229283 0.283827
N7_2 N 0.1016(5) 0.0397(5) 0.4298(5)
N8_2 N 0.1694(5) 0.1009(5) 0.3324(5)
C21_2 C 0.3710(9) 0.2215(8) 0.0506(9)
H17_2 H 0.360089 0.276101 0.043795
C22_2 C 0.4285(9) 0.1777(7) 0.0125(9)
C23_2 C 0.3729(9) 0.0987(7) 0.0945(9)
H19_2 H 0.361655 0.053361 0.125541
C24_2 C 0.2666(6) 0.1864(6) 0.1523(7)
C25_2 C 0.2508(6) 0.1356(6) 0.2186(6)
H20_2 H 0.283827 0.091466 0.229283
N10_2 N 0.3324(5) 0.1694(5) 0.1009(5)
C26_2 C 0.0506(9) 0.3710(9) 0.2215(8)
H21_2 H 0.043795 0.360089 0.276101
C27_2 C 0.0125(9) 0.4285(9) 0.1777(7)
C28_2 C 0.0945(9) 0.3729(9) 0.0987(7)
H23_2 H 0.125541 0.361655 0.053361
C29_2 C 0.1523(7) 0.2666(6) 0.1864(6)
C30_2 C 0.2186(6) 0.2508(6) 0.1356(6)
H24_2 H 0.229283 0.283827 0.091466
N11_2 N 0.0397(5) 0.4298(5) 0.1016(5)
N12_2 N 0.1009(5) 0.3324(5) 0.1694(5)
Co4 Co 0.000000 0.500000 0.000000
N14_2 N 0.0397(5) 0.0702(5) 0.6016(5)
H18_2 H 0.462592 0.197782 0.972756
Co4_2 Co 0.000000 0.500000 1.000000
H10_2 H 0.027244 0.537408 0.802218
H14_2 H 0.197782 0.972756 0.462592
H2_2 H 0.802218 0.027244 0.537408
H22_2 H 0.972756 0.462592 0.197782
Co4_3 Co 1.000000 0.500000 0.000000
Co4_4 Co 1.000000 0.500000 1.000000
H6_2 H 0.537408 0.802218 0.027244
C1_2 C 0.7785(8) 0.9494(9) 0.6290(9)
H1_2 H 0.723899 0.956205 0.639911
C2_2 C 0.8223(7) 0.9875(9) 0.5715(9)
C3_2 C 0.9013(7) 0.9055(9) 0.6271(9)
H3_2 H 0.946639 0.874459 0.638345
C4_2 C 0.8136(6) 0.8477(7) 0.7334(6)
C5_2 C 0.8644(6) 0.7814(6) 0.7492(6)
H4_2 H 0.908534 0.770717 0.716173
N1_2 N 0.8984(5) 0.9603(5) 0.5702(5)
N2_2 N 0.8306(5) 0.8991(5) 0.6676(5)
C6_2 C 0.6290(9) 0.7785(8) 0.9494(9)
H5_2 H 0.639911 0.723899 0.956205
C7_2 C 0.5715(9) 0.8223(7) 0.9875(9)
C8_2 C 0.6271(9) 0.9013(7) 0.9055(9)
H7_2 H 0.638345 0.946639 0.874459
C9_2 C 0.7334(6) 0.8136(6) 0.8477(7)
C10_2 C 0.7492(6) 0.8644(6) 0.7814(6)
H8_2 H 0.716173 0.908534 0.770717
N4_2 N 0.6676(5) 0.8306(5) 0.8991(5)
C11_2 C 0.9494(9) 0.6290(9) 0.7785(8)
H9_2 H 0.956205 0.639911 0.723899
C12_2 C 0.9875(9) 0.5715(9) 0.8223(7)
C13_2 C 0.9055(9) 0.6271(9) 0.9013(7)
H11_2 H 0.874459 0.638345 0.946639
C14_2 C 0.8477(7) 0.7334(6) 0.8136(6)
C15_2 C 0.7814(6) 0.7492(6) 0.8644(6)
H12_2 H 0.770717 0.716173 0.908534
N5_2 N 0.9603(5) 0.5702(5) 0.8984(5)
N6_2 N 0.8991(5) 0.6676(5) 0.8306(5)
N16_2 N 0.9603(5) 0.9298(5) 0.3984(5)
H18_3 H 0.962592 0.302218 0.027244
C1_3 C 0.2785(8) 0.5506(9) 0.3710(9)
H1_3 H 0.223899 0.543795 0.360089
C2_3 C 0.3223(7) 0.5125(9) 0.4285(9)
H2_3 H 0.302218 0.472756 0.462592
C3_3 C 0.4013(7) 0.5945(9) 0.3729(9)
H3_3 H 0.446639 0.625541 0.361655
C4_3 C 0.3136(6) 0.6523(7) 0.2666(6)
C5_3 C 0.3644(6) 0.7186(6) 0.2508(6)
H4_3 H 0.408534 0.729283 0.283827
N1_3 N 0.3984(5) 0.5397(5) 0.4298(5)
N2_3 N 0.3306(5) 0.6009(5) 0.3324(5)
C6_3 C 0.1290(9) 0.7215(8) 0.0506(9)
H5_3 H 0.139911 0.776101 0.043795
C7_3 C 0.0715(9) 0.6777(7) 0.0125(9)
C8_3 C 0.1271(9) 0.5987(7) 0.0945(9)
H7_3 H 0.138345 0.553361 0.125541
C9_3 C 0.2334(6) 0.6864(6) 0.1523(7)
C10_3 C 0.2492(6) 0.6356(6) 0.2186(6)
H8_3 H 0.216173 0.591466 0.229283
N3_2 N 0.0702(5) 0.6016(5) 0.0397(5)
N4_3 N 0.1676(5) 0.6694(5) 0.1009(5)
C11_3 C 0.4494(9) 0.8710(9) 0.2215(8)
H9_3 H 0.456205 0.860089 0.276101
C12_3 C 0.4875(9) 0.9285(9) 0.1777(7)
H10_3 H 0.527244 0.962592 0.197782
C13_3 C 0.4055(9) 0.8729(9) 0.0987(7)
H11_3 H 0.374459 0.861655 0.053361
C14_3 C 0.3477(7) 0.7666(6) 0.1864(6)
C15_3 C 0.2814(6) 0.7508(6) 0.1356(6)
H12_3 H 0.270717 0.783827 0.091466
N6_3 N 0.3991(5) 0.8324(5) 0.1694(5)
C16_3 C 0.7215(8) 0.4494(9) 0.6290(9)
H13_3 H 0.776101 0.456205 0.639911
C17_3 C 0.6777(7) 0.4875(9) 0.5715(9)
H14_3 H 0.697782 0.527244 0.537408
C18_3 C 0.5987(7) 0.4055(9) 0.6271(9)
H15_3 H 0.553361 0.374459 0.638345
C19_3 C 0.6864(6) 0.3477(7) 0.7334(6)
C20_3 C 0.6356(6) 0.2814(6) 0.7492(6)
H16_3 H 0.591466 0.270717 0.716173
N7_3 N 0.6016(5) 0.4603(5) 0.5702(5)
N8_3 N 0.6694(5) 0.3991(5) 0.6676(5)
C21_3 C 0.8710(9) 0.2785(8) 0.9494(9)
H17_3 H 0.860089 0.223899 0.956205
C22_3 C 0.9285(9) 0.3223(7) 0.9875(9)
C23_3 C 0.8729(9) 0.4013(7) 0.9055(9)
H19_3 H 0.861655 0.446639 0.874459
C24_3 C 0.7666(6) 0.3136(6) 0.8477(7)
C25_3 C 0.7508(6) 0.3644(6) 0.7814(6)
H20_3 H 0.783827 0.408534 0.770717
N9_2 N 0.9298(5) 0.3984(5) 0.9603(5)
N10_3 N 0.8324(5) 0.3306(5) 0.8991(5)
C26_3 C 0.5506(9) 0.1290(9) 0.7785(8)
H21_3 H 0.543795 0.139911 0.723899
C27_3 C 0.5125(9) 0.0715(9) 0.8223(7)
H22_3 H 0.472756 0.037408 0.802218
C28_3 C 0.5945(9) 0.1271(9) 0.9013(7)
H23_3 H 0.625541 0.138345 0.946639
C29_3 C 0.6523(7) 0.2334(6) 0.8136(6)
C30_3 C 0.7186(6) 0.2492(6) 0.8644(6)
H24_3 H 0.729283 0.216173 0.908534
N12_3 N 0.6009(5) 0.1676(5) 0.8306(5)
N13_2 N 0.4298(5) 0.3984(5) 0.5397(5)
N15_2 N 0.5702(5) 0.6016(5) 0.4603(5)
H6_3 H 0.037408 0.697782 0.972756
H22_4 H 0.027244 0.962592 0.302218
C1_4 C 0.2215(8) 0.4494(9) 0.8710(9)
H1_4 H 0.276101 0.456205 0.860089
C2_4 C 0.1777(7) 0.4875(9) 0.9285(9)
H2_4 H 0.197782 0.527244 0.962592
C3_4 C 0.0987(7) 0.4055(9) 0.8729(9)
H3_4 H 0.053361 0.374459 0.861655
C4_4 C 0.1864(6) 0.3477(7) 0.7666(6)
C5_4 C 0.1356(6) 0.2814(6) 0.7508(6)
H4_4 H 0.091466 0.270717 0.783827
N1_4 N 0.1016(5) 0.4603(5) 0.9298(5)
N2_4 N 0.1694(5) 0.3991(5) 0.8324(5)
C6_4 C 0.3710(9) 0.2785(8) 0.5506(9)
H5_4 H 0.360089 0.223899 0.543795
C7_4 C 0.4285(9) 0.3223(7) 0.5125(9)
H6_4 H 0.462592 0.302218 0.472756
C8_4 C 0.3729(9) 0.4013(7) 0.5945(9)
H7_4 H 0.361655 0.446639 0.625541
C9_4 C 0.2666(6) 0.3136(6) 0.6523(7)
C10_4 C 0.2508(6) 0.3644(6) 0.7186(6)
H8_4 H 0.283827 0.408534 0.729283
N4_4 N 0.3324(5) 0.3306(5) 0.6009(5)
C11_4 C 0.0506(9) 0.1290(9) 0.7215(8)
H9_4 H 0.043795 0.139911 0.776101
C12_4 C 0.0125(9) 0.0715(9) 0.6777(7)
C13_4 C 0.0945(9) 0.1271(9) 0.5987(7)
H11_4 H 0.125541 0.138345 0.553361
C14_4 C 0.1523(7) 0.2334(6) 0.6864(6)
C15_4 C 0.2186(6) 0.2492(6) 0.6356(6)
H12_4 H 0.229283 0.216173 0.591466
N6_4 N 0.1009(5) 0.1676(5) 0.6694(5)
C16_4 C 0.7785(8) 0.5506(9) 0.1290(9)
H13_4 H 0.723899 0.543795 0.139911
C17_4 C 0.8223(7) 0.5125(9) 0.0715(9)
H14_4 H 0.802218 0.472756 0.037408
C18_4 C 0.9013(7) 0.5945(9) 0.1271(9)
H15_4 H 0.946639 0.625541 0.138345
C19_4 C 0.8136(6) 0.6523(7) 0.2334(6)
C20_4 C 0.8644(6) 0.7186(6) 0.2492(6)
H16_4 H 0.908534 0.729283 0.216173
N7_4 N 0.8984(5) 0.5397(5) 0.0702(5)
N8_4 N 0.8306(5) 0.6009(5) 0.1676(5)
C21_4 C 0.6290(9) 0.7215(8) 0.4494(9)
H17_4 H 0.639911 0.776101 0.456205
C22_4 C 0.5715(9) 0.6777(7) 0.4875(9)
H18_4 H 0.537408 0.697782 0.527244
C23_4 C 0.6271(9) 0.5987(7) 0.4055(9)
H19_4 H 0.638345 0.553361 0.374459
C24_4 C 0.7334(6) 0.6864(6) 0.3477(7)
C25_4 C 0.7492(6) 0.6356(6) 0.2814(6)
H20_4 H 0.716173 0.591466 0.270717
N10_4 N 0.6676(5) 0.6694(5) 0.3991(5)
C26_4 C 0.9494(9) 0.8710(9) 0.2785(8)
H21_4 H 0.956205 0.860089 0.223899
C27_4 C 0.9875(9) 0.9285(9) 0.3223(7)
C28_4 C 0.9055(9) 0.8729(9) 0.4013(7)
H23_4 H 0.874459 0.861655 0.446639
C29_4 C 0.8477(7) 0.7666(6) 0.3136(6)
C30_4 C 0.7814(6) 0.7508(6) 0.3644(6)
H24_4 H 0.770717 0.783827 0.408534
N12_4 N 0.8991(5) 0.8324(5) 0.3306(5)
H10_4 H 0.972756 0.037408 0.697782
loop_
_geom_bond_atom_site_label_1
_geom_bond_atom_site_label_2
_geom_bond_site_symmetry_1
_geom_bond_site_symmetry_2
C1 H1 1_555 1_555
C2 C1 1_555 1_555
C3 H3 1_555 1_555
C4 C5 1_555 1_555
C5 H4 1_555 1_555
Co1 N1 1_555 1_555
N1 C2 1_555 1_555
N2 C1 1_555 1_555
C6 H5 1_555 1_555
C7 C6 1_555 1_555
H6 C7 1_555 1_555
C8 H7 1_555 1_555
C9 C10 1_555 1_555
C10 C4 1_555 1_555
H8 C10 1_555 1_555
N3 C7 1_555 1_555
N4 C6 1_555 1_555
C11 H9 1_555 1_555
C12 C11 1_555 1_555
H10 C12 1_555 1_555
C13 H11 1_555 1_555
C14 C5 1_555 1_555
C15 C9 1_555 1_555
H12 C15 1_555 1_555
N5 C12 1_555 1_555
N6 C11 1_555 1_555
Co3_3 N3 1_555 1_555
Co5 N5 1_555 1_555
N15 Co1 1_555 1_555
C3 N1 1_555 1_555
C3 N2 1_555 1_555
C4 N2 1_555 1_555
C8 N3 1_555 1_555
C8 N4 1_555 1_555
C9 N4 1_555 1_555
C13 N5 1_555 1_555
C13 N6 1_555 1_555
C14 C15 1_555 1_555
C14 N6 1_555 1_555
N16 Co1_2 1_555 1_555
N14 Co1_3 1_555 1_555
C16 H13 1_555 1_555
C17 C16 1_555 1_555
C18 H15 1_555 1_555
C19 C20 1_555 1_555
C20 H16 1_555 1_555
N7 Co1_4 1_555 1_555
N8 C16 1_555 1_555
C21 H17 1_555 1_555
C22 C21 1_555 1_555
H18 C22 1_555 1_555
C23 H19 1_555 1_555
C24 C25 1_555 1_555
C25 C19 1_555 1_555
H20 C25 1_555 1_555
N9 C22 1_555 1_555
N10 C21 1_555 1_555
C26 H21 1_555 1_555
C27 C26 1_555 1_555
H22 C27 1_555 1_555
C28 H23 1_555 1_555
C29 C20 1_555 1_555
C30 C24 1_555 1_555
H24 C30 1_555 1_555
N11 C27 1_555 1_555
N12 C26 1_555 1_555
Co3_2 N9 1_555 1_555
Co5 N11 1_555 1_555
N13 Co1_4 1_555 1_555
C17 N7 1_555 1_555
C18 N7 1_555 1_555
C18 N8 1_555 1_555
C19 N8 1_555 1_555
C23 N9 1_555 1_555
C23 N10 1_555 1_555
C24 N10 1_555 1_555
C28 N11 1_555 1_555
C28 N12 1_555 1_555
C29 C30 1_555 1_555
C29 N12 1_555 1_555
C16_2 H13_2 1_555 1_555
C17_2 C16_2 1_555 1_555
C18_2 H15_2 1_555 1_555
C19_2 C20_2 1_555 1_555
C20_2 H16_2 1_555 1_555
N7_2 Co3 1_555 1_555
N8_2 C16_2 1_555 1_555
C21_2 H17_2 1_555 1_555
C22_2 C21_2 1_555 1_555
C23_2 H19_2 1_555 1_555
C24_2 C25_2 1_555 1_555
C25_2 C19_2 1_555 1_555
H20_2 C25_2 1_555 1_555
N15 C22_2 1_555 1_555
N10_2 C21_2 1_555 1_555
C26_2 H21_2 1_555 1_555
C27_2 C26_2 1_555 1_555
C28_2 H23_2 1_555 1_555
C29_2 C20_2 1_555 1_555
C30_2 C24_2 1_555 1_555
H24_2 C30_2 1_555 1_555
N11_2 C27_2 1_555 1_555
N12_2 C26_2 1_555 1_555
Co4 N11_2 1_555 1_555
N14_2 Co3 1_555 1_555
C17_2 N7_2 1_555 1_555
C18_2 N7_2 1_555 1_555
C18_2 N8_2 1_555 1_555
C19_2 N8_2 1_555 1_555
C23_2 N15 1_555 1_555
C23_2 N10_2 1_555 1_555
C24_2 N10_2 1_555 1_555
C28_2 N11_2 1_555 1_555
C28_2 N12_2 1_555 1_555
C29_2 C30_2 1_555 1_555
C29_2 N12_2 1_555 1_555
C1_2 H1_2 1_555 1_555
C2_2 C1_2 1_555 1_555
C3_2 H3_2 1_555 1_555
C4_2 C5_2 1_555 1_555
C5_2 H4_2 1_555 1_555
Co3_4 N1_2 1_555 1_555
N1_2 C2_2 1_555 1_555
N2_2 C1_2 1_555 1_555
C6_2 H5_2 1_555 1_555
C7_2 C6_2 1_555 1_555
C8_2 H7_2 1_555 1_555
C9_2 C10_2 1_555 1_555
C10_2 C4_2 1_555 1_555
H8_2 C10_2 1_555 1_555
N13 C7_2 1_555 1_555
N4_2 C6_2 1_555 1_555
C11_2 H9_2 1_555 1_555
C12_2 C11_2 1_555 1_555
C13_2 H11_2 1_555 1_555
C14_2 C5_2 1_555 1_555
C15_2 C9_2 1_555 1_555
H12_2 C15_2 1_555 1_555
N5_2 C12_2 1_555 1_555
N6_2 C11_2 1_555 1_555
Co4_4 N5_2 1_555 1_555
N16_2 Co3_4 1_555 1_555
C3_2 N1_2 1_555 1_555
C3_2 N2_2 1_555 1_555
C4_2 N2_2 1_555 1_555
C8_2 N13 1_555 1_555
C8_2 N4_2 1_555 1_555
C9_2 N4_2 1_555 1_555
C13_2 N5_2 1_555 1_555
C13_2 N6_2 1_555 1_555
C14_2 C15_2 1_555 1_555
C14_2 N6_2 1_555 1_555
C1_3 H1_3 1_555 1_555
C2_3 C1_3 1_555 1_555
H2_3 C2_3 1_555 1_555
C3_3 H3_3 1_555 1_555
C4_3 C5_3 1_555 1_555
C5_3 H4_3 1_555 1_555
Co5 N1_3 1_555 1_555
N1_3 C2_3 1_555 1_555
N2_3 C1_3 1_555 1_555
C6_3 H5_3 1_555 1_555
C7_3 C6_3 1_555 1_555
C8_3 H7_3 1_555 1_555
C9_3 C10_3 1_555 1_555
C10_3 C4_3 1_555 1_555
H8_3 C10_3 1_555 1_555
N3_2 C7_3 1_555 1_555
N4_3 C6_3 1_555 1_555
C11_3 H9_3 1_555 1_555
C12_3 C11_3 1_555 1_555
H10_3 C12_3 1_555 1_555
C13_3 H11_3 1_555 1_555
C14_3 C5_3 1_555 1_555
C15_3 C9_3 1_555 1_555
H12_3 C15_3 1_555 1_555
N14 C12_3 1_555 1_555
N6_3 C11_3 1_555 1_555
C16_3 H13_3 1_555 1_555
C17_3 C16_3 1_555 1_555
H14_3 C17_3 1_555 1_555
C18_3 H15_3 1_555 1_555
C19_3 C20_3 1_555 1_555
C20_3 H16_3 1_555 1_555
N7_3 Co5 1_555 1_555
N8_3 C16_3 1_555 1_555
C21_3 H17_3 1_555 1_555
C22_3 C21_3 1_555 1_555
C23_3 H19_3 1_555 1_555
C24_3 C25_3 1_555 1_555
C25_3 C19_3 1_555 1_555
H20_3 C25_3 1_555 1_555
N9_2 C22_3 1_555 1_555
N10_3 C21_3 1_555 1_555
C26_3 H21_3 1_555 1_555
C27_3 C26_3 1_555 1_555
H22_3 C27_3 1_555 1_555
C28_3 H23_3 1_555 1_555
C29_3 C20_3 1_555 1_555
C30_3 C24_3 1_555 1_555
H24_3 C30_3 1_555 1_555
N16 C27_3 1_555 1_555
N12_3 C26_3 1_555 1_555
Co4_4 N9_2 1_555 1_555
Co4 N3_2 1_555 1_555
N13_2 Co5 1_555 1_555
N15_2 Co5 1_555 1_555
C3_3 N1_3 1_555 1_555
C3_3 N2_3 1_555 1_555
C4_3 N2_3 1_555 1_555
C8_3 N3_2 1_555 1_555
C8_3 N4_3 1_555 1_555
C9_3 N4_3 1_555 1_555
C13_3 N14 1_555 1_555
C13_3 N6_3 1_555 1_555
C14_3 C15_3 1_555 1_555
C14_3 N6_3 1_555 1_555
C17_3 N7_3 1_555 1_555
C18_3 N7_3 1_555 1_555
C18_3 N8_3 1_555 1_555
C19_3 N8_3 1_555 1_555
C23_3 N9_2 1_555 1_555
C23_3 N10_3 1_555 1_555
C24_3 N10_3 1_555 1_555
C28_3 N16 1_555 1_555
C28_3 N12_3 1_555 1_555
C29_3 C30_3 1_555 1_555
C29_3 N12_3 1_555 1_555
C1_4 H1_4 1_555 1_555
C2_4 C1_4 1_555 1_555
H2_4 C2_4 1_555 1_555
C3_4 H3_4 1_555 1_555
C4_4 C5_4 1_555 1_555
C5_4 H4_4 1_555 1_555
Co4_2 N1_4 1_555 1_555
N1_4 C2_4 1_555 1_555
N2_4 C1_4 1_555 1_555
C6_4 H5_4 1_555 1_555
C7_4 C6_4 1_555 1_555
H6_4 C7_4 1_555 1_555
C8_4 H7_4 1_555 1_555
C9_4 C10_4 1_555 1_555
C10_4 C4_4 1_555 1_555
H8_4 C10_4 1_555 1_555
N13_2 C7_4 1_555 1_555
N4_4 C6_4 1_555 1_555
C11_4 H9_4 1_555 1_555
C12_4 C11_4 1_555 1_555
C13_4 H11_4 1_555 1_555
C14_4 C5_4 1_555 1_555
C15_4 C9_4 1_555 1_555
H12_4 C15_4 1_555 1_555
N14_2 C12_4 1_555 1_555
N6_4 C11_4 1_555 1_555
C3_4 N1_4 1_555 1_555
C3_4 N2_4 1_555 1_555
C4_4 N2_4 1_555 1_555
C8_4 N13_2 1_555 1_555
C8_4 N4_4 1_555 1_555
C9_4 N4_4 1_555 1_555
C13_4 N14_2 1_555 1_555
C13_4 N6_4 1_555 1_555
C14_4 C15_4 1_555 1_555
C14_4 N6_4 1_555 1_555
C16_4 H13_4 1_555 1_555
C17_4 C16_4 1_555 1_555
H14_4 C17_4 1_555 1_555
C18_4 H15_4 1_555 1_555
C19_4 C20_4 1_555 1_555
C20_4 H16_4 1_555 1_555
N7_4 Co4_3 1_555 1_555
N8_4 C16_4 1_555 1_555
C21_4 H17_4 1_555 1_555
C22_4 C21_4 1_555 1_555
H18_4 C22_4 1_555 1_555
C23_4 H19_4 1_555 1_555
C24_4 C25_4 1_555 1_555
C25_4 C19_4 1_555 1_555
H20_4 C25_4 1_555 1_555
N15_2 C22_4 1_555 1_555
N10_4 C21_4 1_555 1_555
C26_4 H21_4 1_555 1_555
C27_4 C26_4 1_555 1_555
C28_4 H23_4 1_555 1_555
C29_4 C20_4 1_555 1_555
C30_4 C24_4 1_555 1_555
H24_4 C30_4 1_555 1_555
N16_2 C27_4 1_555 1_555
N12_4 C26_4 1_555 1_555
C17_4 N7_4 1_555 1_555
C18_4 N7_4 1_555 1_555
C18_4 N8_4 1_555 1_555
C19_4 N8_4 1_555 1_555
C23_4 N15_2 1_555 1_555
C23_4 N10_4 1_555 1_555
C24_4 N10_4 1_555 1_555
C28_4 N16_2 1_555 1_555
C28_4 N12_4 1_555 1_555
C29_4 C30_4 1_555 1_555
C29_4 N12_4 1_555 1_555

#END
