
###############################################################################
#
# This file contains modified crystal structure data generated from the
# MOF subset of the Cambridge Structural Database (CSD) v543 
# hosted by the Cambridge Crystallographic Data Centre (CCDC).
#
# This work is licensed under the Creative Commons
# Attribution-NonCommercial-ShareAlike 4.0 International License.
# To view a copy of this license, visit
# http://creativecommons.org/licenses/by-nc-sa/4.0/
# or send a letter to
# Creative Commons, PO Box 1866, Mountain View, CA 94042, USA.
#
# CIF created using the CSD Python API on 29 September 2022
# The structure has been converted into the P1 space group
# The structure has a 3D framework
# The original CSD entry XILLIP is in the monoclinic crystal system
# The framework has been calculated to contain at least 10.0% void space
# The void calculation uses a probe of radius 1.32A, grid spacing 0.4
# The framework is charged, counterions have been retained in the structure
#
###############################################################################

data_XILLIP
_chemical_formula_moiety         '(C180 H144 Cl16 N72 O64 Zn8)n'
_symmetry_cell_setting           triclinic
_symmetry_space_group_name_H-M   'P 1'
_symmetry_Int_Tables_number      1
_space_group_name_Hall           'P 1'
loop_
_symmetry_equiv_pos_site_id
_symmetry_equiv_pos_as_xyz
1 x,y,z
_cell_length_a                   21.703(3)
_cell_length_b                   20.062(3)
_cell_length_c                   22.121(3)
_cell_angle_alpha                90
_cell_angle_beta                 108.799(2)
_cell_angle_gamma                90
_cell_volume                     9117.81
loop_
_atom_site_label
_atom_site_type_symbol
_atom_site_fract_x
_atom_site_fract_y
_atom_site_fract_z
O1 O 0.56279(16) 0.64713(13) 0.82859(15)
O2 O 0.6001(2) 0.64189(17) 0.7427(2)
O3 O 0.51249(13) 0.57555(14) 0.74275(15)
O4 O 0.61522(17) 0.54974(14) 0.81044(16)
Cl1 Cl 0.57279(4) 0.60276(3) 0.78161(4)
O1_2 O 0.43721(16) 0.14713(13) 0.67141(15)
O2_2 O 0.3999(2) 0.14189(17) 0.7573(2)
O3_2 O 0.48751(13) 0.07555(14) 0.75725(15)
O4_2 O 0.38478(17) 0.04974(14) 0.68956(16)
Cl1_2 Cl 0.42721(4) 0.10276(3) 0.71839(4)
O1_3 O 0.43721(16) 0.35287(13) 0.17141(15)
O2_3 O 0.3999(2) 0.35811(17) 0.2573(2)
O3_3 O 0.48751(13) 0.42445(14) 0.25725(15)
O4_3 O 0.38478(17) 0.45026(14) 0.18956(16)
Cl1_3 Cl 0.42721(4) 0.39724(3) 0.21839(4)
O1_4 O 0.56279(16) 0.85287(13) 0.32859(15)
O2_4 O 0.6001(2) 0.85811(17) 0.2427(2)
O3_4 O 0.51249(13) 0.92445(14) 0.24275(15)
O4_4 O 0.61522(17) 0.95026(14) 0.31044(16)
Cl1_4 Cl 0.57279(4) 0.89724(3) 0.28161(4)
O5 O 0.1712(3) 0.4366(3) 0.8423(3)
O6 O 0.2229(5) 0.5157(5) 0.8064(6)
O7 O 0.1399(6) 0.4516(7) 0.7344(4)
O8 O 0.2428(5) 0.4057(5) 0.7866(5)
Cl2 Cl 0.1949(2) 0.4519(3) 0.7898(3)
O6_2 O 0.7771(5) 0.0157(5) 0.6936(6)
O5_2 O 0.8288(3) 0.9366(3) 0.6577(3)
O7_2 O 0.8601(6) 0.9516(7) 0.7656(4)
O8_2 O 0.7572(5) 0.9057(5) 0.7134(5)
Cl2_2 Cl 0.8051(2) 0.9519(3) 0.7102(3)
O5_3 O 0.8288(3) 0.5634(3) 0.1577(3)
O6_3 O 0.7771(5) 0.4843(5) 0.1936(6)
O7_3 O 0.8601(6) 0.5484(7) 0.2656(4)
O8_3 O 0.7572(5) 0.5943(5) 0.2134(5)
Cl2_3 Cl 0.8051(2) 0.5481(3) 0.2102(3)
O5_4 O 0.1712(3) 0.0634(3) 0.3423(3)
O7_4 O 0.1399(6) 0.0484(7) 0.2344(4)
O8_4 O 0.2428(5) 0.0943(5) 0.2866(5)
Cl2_4 Cl 0.1949(2) 0.0481(3) 0.2898(3)
O6_4 O 0.2229(5) 0.9843(5) 0.3064(6)
O9 O 0.5633(2) 0.8295(2) 0.99838(18)
O10 O 0.5462(2) 0.88138(18) 0.9001(2)
O11 O 0.52046(14) 0.77091(13) 0.90272(14)
O12 O 0.45757(15) 0.85316(17) 0.93175(17)
Cl3 Cl 0.52183(4) 0.83437(4) 0.93401(4)
O9_2 O 0.4367(2) 0.3295(2) 0.50162(18)
O10_2 O 0.4538(2) 0.38138(18) 0.5999(2)
O11_2 O 0.47954(14) 0.27091(13) 0.59728(14)
O12_2 O 0.54243(15) 0.35316(17) 0.56825(17)
Cl3_2 Cl 0.47817(4) 0.33437(4) 0.56599(4)
O9_3 O 0.4367(2) 0.1705(2) 0.00162(18)
O10_3 O 0.4538(2) 0.11862(18) 0.0999(2)
O11_3 O 0.47954(14) 0.22909(13) 0.09728(14)
O12_3 O 0.54243(15) 0.14684(17) 0.06825(17)
Cl3_3 Cl 0.47817(4) 0.16563(4) 0.06599(4)
O9_4 O 0.5633(2) 0.6705(2) 0.49838(18)
O10_4 O 0.5462(2) 0.61862(18) 0.4001(2)
O11_4 O 0.52046(14) 0.72909(13) 0.40272(14)
O12_4 O 0.45757(15) 0.64684(17) 0.43175(17)
Cl3_4 Cl 0.52183(4) 0.66563(4) 0.43401(4)
O13 O 0.14203(15) 0.3816(2) 0.10813(16)
O14 O 0.0529(3) 0.3559(3) 0.0247(3)
O15 O 0.1097(3) 0.4456(4) 0.0215(3)
O16 O 0.0461(4) 0.4380(6) 0.0722(7)
Cl4 Cl 0.09016(4) 0.40651(4) 0.05689(4)
O13_2 O 0.85797(15) 0.8816(2) 0.39187(16)
O14_2 O 0.9471(3) 0.8559(3) 0.4753(3)
O15_2 O 0.8903(3) 0.9456(4) 0.4785(3)
O16_2 O 0.9539(4) 0.9380(6) 0.4278(7)
Cl4_2 Cl 0.90984(4) 0.90651(4) 0.44311(4)
O13_3 O 0.85797(15) 0.6184(2) 0.89187(16)
O14_3 O 0.9471(3) 0.6441(3) 0.9753(3)
O15_3 O 0.8903(3) 0.5544(4) 0.9785(3)
O16_3 O 0.9539(4) 0.5620(6) 0.9278(7)
Cl4_3 Cl 0.90984(4) 0.59349(4) 0.94311(4)
O13_4 O 0.14203(15) 0.1184(2) 0.60813(16)
O14_4 O 0.0529(3) 0.1441(3) 0.5247(3)
O15_4 O 0.1097(3) 0.0544(4) 0.5215(3)
O16_4 O 0.0461(4) 0.0620(6) 0.5722(7)
Cl4_4 Cl 0.09016(4) 0.09349(4) 0.55689(4)
C1 C 0.27805(13) 0.42294(13) 0.02273(13)
C4 C 0.32219(14) 0.29411(13) 0.01674(13)
H2 H 0.3382 0.2503 0.0152
C5 C 0.29903(14) 0.31318(14) 0.06545(13)
C6 C 0.27652(14) 0.37732(14) 0.06981(13)
H3 H 0.2607 0.3896 0.1036
C8 C 0.23513(14) 0.58377(14) 0.06562(14)
H5 H 0.2353 0.6196 0.0938
C9 C 0.26861(15) 0.52636(14) 0.08293(14)
H6 H 0.2955 0.5142 0.1246
C13 C 0.34999(14) 0.22636(13) 0.14500(13)
H10 H 0.3893 0.2227 0.1351
C14 C 0.27518(15) 0.21256(15) 0.18958(15)
H11 H 0.2532 0.1965 0.2175
C15 C 0.25106(15) 0.25817(16) 0.14274(15)
H12 H 0.2100 0.2798 0.1316
C16 C 0.04556(13) 0.64368(13) 0.14492(13)
C17 C 0.01555(13) 0.58154(13) 0.13485(12)
H13 H 0.0102 0.5577 0.0964
C19 C 0.00012(13) 0.58971(13) 0.23823(13)
C20 C 0.03069(14) 0.65049(14) 0.24695(13)
C21 C 0.05350(13) 0.67941(14) 0.20056(13)
H15 H 0.0737 0.7220 0.2070
C22 C 0.09105(13) 0.64176(13) 0.05534(12)
H16 H 0.0966 0.5949 0.0540
C23 C 0.08913(15) 0.74761(13) 0.03464(14)
H17 H 0.0939 0.7888 0.0154
C24 C 0.06430(16) 0.74056(14) 0.08272(14)
H18 H 0.0486 0.7751 0.1033
C28 C 0.08948(13) 0.72379(13) 0.33797(13)
H22 H 0.1294 0.7259 0.3289
C29 C 0.01552(16) 0.73948(17) 0.38178(15)
N1 N 0.20057(11) 0.58302(11) 0.00101(11)
N2 N 0.25578(11) 0.48904(11) 0.02799(11)
N5 N 0.33673(12) 0.19280(11) 0.19065(11)
N6 N 0.29961(12) 0.26677(11) 0.11415(11)
N7 N 0.10675(11) 0.68539(11) 0.01742(10)
N8 N 0.06603(11) 0.67372(11) 0.09628(10)
N11 N 0.07761(11) 0.75613(11) 0.38561(11)
N12 N 0.03734(12) 0.68774(12) 0.30426(11)
Zn4 Zn 0.139367(14) 0.837446(14) 0.444142(14)
Zn6 Zn 0.397976(16) 0.137811(14) 0.259825(15)
Zn1 Zn 0.139367(14) 0.662554(14) 0.944142(14)
Zn2 Zn 0.602024(16) 0.862189(14) 0.740175(15)
C2 C 0.29995(13) 0.40663(13) 0.97331(13)
H1 H 0.3007 0.4387 0.9420
C3 C 0.32133(13) 0.34090(13) 0.97001(13)
C7 C 0.21487(14) 0.52510(13) 0.97968(13)
H4 H 0.1987 0.5108 0.9365
C10 C 0.36852(14) 0.36260(13) 0.88340(13)
H7 H 0.3753 0.4091 0.8907
C11 C 0.36491(16) 0.26281(13) 0.84424(14)
H8 H 0.3689 0.2269 0.8178
C12 C 0.34263(16) 0.25792(14) 0.89432(14)
H9 H 0.3284 0.2185 0.9097
C31 C 0.32786(13) 0.70216(13) 0.83517(13)
C32 C 0.36030(13) 0.75571(12) 0.81905(13)
H25 H 0.3591 0.7989 0.8362
C33 C 0.39468(13) 0.74337(13) 0.77654(13)
C34 C 0.39561(13) 0.68086(13) 0.74971(13)
H26 H 0.4182 0.6736 0.7199
C35 C 0.36241(13) 0.62918(12) 0.76787(13)
C36 C 0.32849(13) 0.63855(12) 0.81035(13)
H27 H 0.3063 0.6027 0.8223
C37 C 0.23997(12) 0.67827(13) 0.88072(13)
H28 H 0.2208 0.6426 0.8528
C38 C 0.26062(14) 0.75252(14) 0.95557(14)
H29 H 0.2574 0.7782 0.9905
C39 C 0.30630(14) 0.76037(14) 0.92763(14)
H30 H 0.3406 0.7921 0.9385
C40 C 0.49042(14) 0.78810(14) 0.75507(14)
H31 H 0.5135 0.7471 0.7605
C41 C 0.46376(16) 0.89282(14) 0.73821(16)
H32 H 0.4660 0.9390 0.7296
C42 C 0.41312(16) 0.86215(14) 0.74898(17)
H33 H 0.3735 0.8822 0.7491
C43 C 0.37442(13) 0.50765(12) 0.77518(13)
H34 H 0.3766 0.5041 0.8187
C44 C 0.37537(19) 0.48346(15) 0.67992(15)
H35 H 0.3786 0.4592 0.6442
C45 C 0.36500(18) 0.55009(15) 0.68138(15)
H36 H 0.3590 0.5807 0.6472
N3 N 0.38121(12) 0.32940(11) 0.83737(11)
N4 N 0.34449(12) 0.32168(11) 0.91888(11)
N13 N 0.21858(11) 0.70127(10) 0.92616(10)
N14 N 0.29360(10) 0.71301(10) 0.87951(11)
N15 N 0.51243(12) 0.84610(11) 0.74173(12)
N16 N 0.43012(12) 0.79605(11) 0.75974(12)
N17 N 0.38042(12) 0.45686(11) 0.73863(11)
N18 N 0.36483(11) 0.56430(10) 0.74172(11)
Zn5 Zn 0.397976(16) 0.362189(14) 0.759825(15)
N19 N 0.61879(12) 0.82940(11) 0.66263(11)
N20 N 0.66327(12) 0.80720(11) 0.80935(11)
N21 N 0.09299(11) 0.59614(11) 0.87536(11)
N22 N 0.07761(11) 0.74387(11) 0.88561(11)
N23 N 0.61958(12) 0.95686(11) 0.76137(11)
C18 C 0.99352(13) 0.55491(13) 0.18216(12)
H14 H 0.9838 0.5718 0.2698
C25 C 0.93225(13) 0.46092(13) 0.11602(13)
H19 H 0.9299 0.4788 0.0756
C26 C 0.92089(14) 0.39675(14) 0.19021(13)
H20 H 0.9083 0.3600 0.2107
C27 C 0.95481(15) 0.44996(14) 0.22019(14)
H21 H 0.9705 0.4577 0.2649
H23 H 0.9937 0.7548 0.4101
C30 C 0.98951(16) 0.69781(19) 0.33165(16)
H24 H 0.9469 0.6794 0.3182
N9 N 0.90701(11) 0.40386(11) 0.12464(11)
N10 N 0.96234(11) 0.49108(11) 0.17315(10)
Zn3 Zn 0.860633(14) 0.337446(14) 0.055858(14)
C25_2 C 0.06775(13) 0.96092(13) 0.38398(13)
H19_2 H 0.0701 0.9788 0.4244
C26_2 C 0.07911(14) 0.89675(14) 0.30979(13)
H20_2 H 0.0917 0.8600 0.2893
C27_2 C 0.04519(15) 0.94996(14) 0.27981(14)
H21_2 H 0.0295 0.9577 0.2351
N9_2 N 0.09299(11) 0.90386(11) 0.37536(11)
N10_2 N 0.03766(11) 0.99108(11) 0.32685(10)
Zn1_2 Zn 0.860633(14) 0.162554(14) 0.555858(14)
C7_2 C 0.78513(14) 0.02510(13) 0.52032(13)
H4_2 H 0.8013 0.0108 0.5635
C8_2 C 0.76487(14) 0.08377(14) 0.43438(14)
H5_2 H 0.7647 0.1196 0.4062
C9_2 C 0.73139(15) 0.02636(14) 0.41707(14)
H6_2 H 0.7045 0.0142 0.3754
C16_2 C 0.95444(13) 0.14368(13) 0.35508(13)
C17_2 C 0.98445(13) 0.08154(13) 0.36515(12)
H13_2 H 0.9898 0.0577 0.4036
C19_2 C 0.99988(13) 0.08971(13) 0.26177(13)
C20_2 C 0.96931(14) 0.15049(14) 0.25305(13)
C21_2 C 0.94650(13) 0.17941(14) 0.29944(13)
H15_2 H 0.9263 0.2220 0.2930
C22_2 C 0.90895(13) 0.14176(13) 0.44466(12)
H16_2 H 0.9034 0.0949 0.4460
C23_2 C 0.91087(15) 0.24761(13) 0.46536(14)
H17_2 H 0.9061 0.2888 0.4846
C24_2 C 0.93570(16) 0.24056(14) 0.41728(14)
H18_2 H 0.9514 0.2751 0.3967
C28_2 C 0.91052(13) 0.22379(13) 0.16203(13)
H22_2 H 0.8706 0.2259 0.1711
C29_2 C 0.98448(16) 0.23948(17) 0.11822(15)
C31_2 C 0.67214(13) 0.20216(13) 0.66483(13)
C32_2 C 0.63970(13) 0.25571(12) 0.68095(13)
H25_2 H 0.6409 0.2989 0.6638
C33_2 C 0.60532(13) 0.24337(13) 0.72346(13)
C34_2 C 0.60439(13) 0.18086(13) 0.75029(13)
H26_2 H 0.5818 0.1736 0.7801
C35_2 C 0.63759(13) 0.12918(12) 0.73213(13)
C36_2 C 0.67151(13) 0.13855(12) 0.68965(13)
H27_2 H 0.6937 0.1027 0.6777
C37_2 C 0.76003(12) 0.17827(13) 0.61928(13)
H28_2 H 0.7792 0.1426 0.6472
C38_2 C 0.73938(14) 0.25252(14) 0.54443(14)
H29_2 H 0.7426 0.2782 0.5095
C39_2 C 0.69370(14) 0.26037(14) 0.57237(14)
H30_2 H 0.6594 0.2921 0.5615
C40_2 C 0.50958(14) 0.28810(14) 0.74493(14)
H31_2 H 0.4865 0.2471 0.7395
C41_2 C 0.53624(16) 0.39282(14) 0.76179(16)
H32_2 H 0.5340 0.4390 0.7704
C42_2 C 0.58688(16) 0.36215(14) 0.75102(17)
H33_2 H 0.6265 0.3822 0.7509
C43_2 C 0.62558(13) 0.00765(12) 0.72482(13)
H34_2 H 0.6234 0.0041 0.6813
C45_2 C 0.63500(18) 0.05009(15) 0.81862(15)
H36_2 H 0.6410 0.0807 0.8528
N1_2 N 0.79943(11) 0.08302(11) 0.49899(11)
N7_2 N 0.89325(11) 0.18539(11) 0.48258(10)
N8_2 N 0.93397(11) 0.17372(11) 0.40372(10)
N11_2 N 0.92239(11) 0.25613(11) 0.11439(11)
N12_2 N 0.96266(12) 0.18774(12) 0.19574(11)
N13_2 N 0.78142(11) 0.20127(10) 0.57384(10)
N14_2 N 0.70640(10) 0.21301(10) 0.62049(11)
N15_2 N 0.48757(12) 0.34610(11) 0.75827(12)
N16_2 N 0.56988(12) 0.29605(11) 0.74026(12)
N18_2 N 0.63517(11) 0.06430(10) 0.75828(11)
N20_2 N 0.33673(12) 0.30720(11) 0.69065(11)
N21_2 N 0.90701(11) 0.09614(11) 0.62464(11)
N22_2 N 0.92239(11) 0.24387(11) 0.61439(11)
C1_2 C 0.72195(13) 0.92294(13) 0.47727(13)
C2_2 C 0.70005(13) 0.90663(13) 0.52669(13)
H1_2 H 0.6993 0.9387 0.5580
C3_2 C 0.67867(13) 0.84090(13) 0.52999(13)
C4_2 C 0.67781(14) 0.79411(13) 0.48326(13)
H2_2 H 0.6618 0.7503 0.4848
C5_2 C 0.70097(14) 0.81318(14) 0.43455(13)
C6_2 C 0.72348(14) 0.87732(14) 0.43019(13)
H3_2 H 0.7393 0.8896 0.3964
C10_2 C 0.63148(14) 0.86260(13) 0.61660(13)
H7_2 H 0.6247 0.9091 0.6093
C11_2 C 0.63509(16) 0.76281(13) 0.65576(14)
H8_2 H 0.6311 0.7269 0.6822
C12_2 C 0.65737(16) 0.75792(14) 0.60568(14)
H9_2 H 0.6716 0.7185 0.5903
C13_2 C 0.65001(14) 0.72636(13) 0.35500(13)
H10_2 H 0.6107 0.7227 0.3649
C14_2 C 0.72482(15) 0.71256(15) 0.31042(15)
H11_2 H 0.7468 0.6965 0.2825
C15_2 C 0.74894(15) 0.75817(16) 0.35726(15)
H12_2 H 0.7900 0.7798 0.3684
C44_2 C 0.62463(19) 0.98346(15) 0.82008(15)
H35_2 H 0.6214 0.9592 0.8558
N2_2 N 0.74422(11) 0.98904(11) 0.47201(11)
N4_2 N 0.65551(12) 0.82168(11) 0.58112(11)
N5_2 N 0.66327(12) 0.69280(11) 0.30935(11)
N6_2 N 0.70039(12) 0.76677(11) 0.38585(11)
Zn6_2 Zn 0.602024(16) 0.637811(14) 0.240175(15)
C18_2 C 0.00648(13) 0.44509(13) 0.81784(12)
H14_2 H 0.0162 0.4282 0.7302
C25_3 C 0.06775(13) 0.53908(13) 0.88398(13)
H19_3 H 0.0701 0.5212 0.9244
C26_3 C 0.07911(14) 0.60325(14) 0.80979(13)
H20_3 H 0.0917 0.6400 0.7893
C27_3 C 0.04519(15) 0.55004(14) 0.77981(14)
H21_3 H 0.0295 0.5423 0.7351
H23_2 H 0.0063 0.2452 0.5899
C30_2 C 0.01049(16) 0.30219(19) 0.66835(16)
H24_2 H 0.0531 0.3206 0.6818
N10_3 N 0.03766(11) 0.50892(11) 0.82685(10)
C2_3 C 0.70005(13) 0.59337(13) 0.02669(13)
H1_3 H 0.6993 0.5613 0.0580
C3_3 C 0.67867(13) 0.65910(13) 0.02999(13)
C7_3 C 0.78513(14) 0.47490(13) 0.02032(13)
H4_3 H 0.8013 0.4892 0.0635
C10_3 C 0.63148(14) 0.63740(13) 0.11660(13)
H7_3 H 0.6247 0.5909 0.1093
C11_3 C 0.63509(16) 0.73719(13) 0.15576(14)
H8_3 H 0.6311 0.7731 0.1822
C12_3 C 0.65737(16) 0.74208(14) 0.10568(14)
H9_3 H 0.6716 0.7815 0.0903
C31_3 C 0.67214(13) 0.29784(13) 0.16483(13)
C32_3 C 0.63970(13) 0.24429(12) 0.18095(13)
H25_3 H 0.6409 0.2011 0.1638
C33_3 C 0.60532(13) 0.25663(13) 0.22346(13)
C34_3 C 0.60439(13) 0.31914(13) 0.25029(13)
H26_3 H 0.5818 0.3264 0.2801
C35_3 C 0.63759(13) 0.37082(12) 0.23213(13)
C36_3 C 0.67151(13) 0.36145(12) 0.18965(13)
H27_3 H 0.6937 0.3973 0.1777
C37_3 C 0.76003(12) 0.32173(13) 0.11928(13)
H28_3 H 0.7792 0.3574 0.1472
C38_3 C 0.73938(14) 0.24748(14) 0.04443(14)
H29_3 H 0.7426 0.2218 0.0095
C39_3 C 0.69370(14) 0.23963(14) 0.07237(14)
H30_3 H 0.6594 0.2079 0.0615
C40_3 C 0.50958(14) 0.21190(14) 0.24493(14)
H31_3 H 0.4865 0.2529 0.2395
C41_3 C 0.53624(16) 0.10718(14) 0.26179(16)
H32_3 H 0.5340 0.0610 0.2704
C42_3 C 0.58688(16) 0.13785(14) 0.25102(17)
H33_3 H 0.6265 0.1178 0.2509
C43_3 C 0.62558(13) 0.49235(12) 0.22482(13)
H34_3 H 0.6234 0.4959 0.1813
C44_3 C 0.62463(19) 0.51654(15) 0.32008(15)
H35_3 H 0.6214 0.5408 0.3558
C45_3 C 0.63500(18) 0.44991(15) 0.31862(15)
H36_3 H 0.6410 0.4193 0.3528
N3_2 N 0.61879(12) 0.67060(11) 0.16263(11)
N4_3 N 0.65551(12) 0.67832(11) 0.08112(11)
N13_3 N 0.78142(11) 0.29873(10) 0.07384(10)
N14_3 N 0.70640(10) 0.28699(10) 0.12049(11)
N15_3 N 0.48757(12) 0.15390(11) 0.25827(12)
N16_3 N 0.56988(12) 0.20395(11) 0.24026(12)
N17_2 N 0.61958(12) 0.54314(11) 0.26137(11)
N18_3 N 0.63517(11) 0.43570(10) 0.25828(11)
N19_2 N 0.38121(12) 0.17060(11) 0.33737(11)
N23_2 N 0.38042(12) 0.04314(11) 0.23863(11)
C1_3 C 0.72195(13) 0.57706(13) 0.97727(13)
C4_3 C 0.67781(14) 0.70589(13) 0.98326(13)
H2_3 H 0.6618 0.7497 0.9848
C5_3 C 0.70097(14) 0.68682(14) 0.93455(13)
C6_3 C 0.72348(14) 0.62268(14) 0.93019(13)
H3_3 H 0.7393 0.6104 0.8964
C8_3 C 0.76487(14) 0.41623(14) 0.93438(14)
H5_3 H 0.7647 0.3804 0.9062
C9_3 C 0.73139(15) 0.47364(14) 0.91707(14)
H6_3 H 0.7045 0.4858 0.8754
C13_3 C 0.65001(14) 0.77364(13) 0.85500(13)
H10_3 H 0.6107 0.7773 0.8649
C14_3 C 0.72482(15) 0.78744(15) 0.81042(15)
H11_3 H 0.7468 0.8035 0.7825
C15_3 C 0.74894(15) 0.74183(16) 0.85726(15)
H12_3 H 0.7900 0.7202 0.8684
C16_3 C 0.95444(13) 0.35632(13) 0.85508(13)
C17_3 C 0.98445(13) 0.41846(13) 0.86515(12)
H13_3 H 0.9898 0.4423 0.9036
C19_3 C 0.99988(13) 0.41029(13) 0.76177(13)
C20_3 C 0.96931(14) 0.34951(14) 0.75305(13)
C21_3 C 0.94650(13) 0.32059(14) 0.79944(13)
H15_3 H 0.9263 0.2780 0.7930
C22_3 C 0.90895(13) 0.35824(13) 0.94466(12)
H16_3 H 0.9034 0.4051 0.9460
C23_3 C 0.91087(15) 0.25239(13) 0.96536(14)
H17_3 H 0.9061 0.2112 0.9846
C24_3 C 0.93570(16) 0.25944(14) 0.91728(14)
H18_3 H 0.9514 0.2249 0.8967
C28_3 C 0.91052(13) 0.27621(13) 0.66203(13)
H22_3 H 0.8706 0.2741 0.6711
C29_3 C 0.98448(16) 0.26052(17) 0.61822(15)
N1_3 N 0.79943(11) 0.41698(11) 0.99899(11)
N2_3 N 0.74422(11) 0.51096(11) 0.97201(11)
N6_3 N 0.70039(12) 0.73323(11) 0.88585(11)
N7_3 N 0.89325(11) 0.31461(11) 0.98258(10)
N8_3 N 0.93397(11) 0.32628(11) 0.90372(10)
N12_3 N 0.96266(12) 0.31226(12) 0.69574(11)
C1_4 C 0.27805(13) 0.07706(13) 0.52273(13)
C2_4 C 0.29995(13) 0.09337(13) 0.47331(13)
H1_4 H 0.3007 0.0613 0.4420
C3_4 C 0.32133(13) 0.15910(13) 0.47001(13)
C4_4 C 0.32219(14) 0.20589(13) 0.51674(13)
H2_4 H 0.3382 0.2497 0.5152
C5_4 C 0.29903(14) 0.18682(14) 0.56545(13)
C6_4 C 0.27652(14) 0.12268(14) 0.56981(13)
H3_4 H 0.2607 0.1104 0.6036
C10_4 C 0.36852(14) 0.13740(13) 0.38340(13)
H7_4 H 0.3753 0.0909 0.3907
C11_4 C 0.36491(16) 0.23719(13) 0.34424(14)
H8_4 H 0.3689 0.2731 0.3178
C12_4 C 0.34263(16) 0.24208(14) 0.39432(14)
H9_4 H 0.3284 0.2815 0.4097
C13_4 C 0.34999(14) 0.27364(13) 0.64500(13)
H10_4 H 0.3893 0.2773 0.6351
C14_4 C 0.27518(15) 0.28744(15) 0.68958(15)
H11_4 H 0.2532 0.3035 0.7175
C15_4 C 0.25106(15) 0.24183(16) 0.64274(15)
H12_4 H 0.2100 0.2202 0.6316
C44_4 C 0.37537(19) 0.01654(15) 0.17992(15)
H35_4 H 0.3786 0.0408 0.1442
N2_4 N 0.25578(11) 0.01096(11) 0.52799(11)
N4_4 N 0.34449(12) 0.17832(11) 0.41888(11)
N6_4 N 0.29961(12) 0.23323(11) 0.61415(11)
C7_4 C 0.21487(14) 0.97490(13) 0.47968(13)
H4_4 H 0.1987 0.9892 0.4365
C8_4 C 0.23513(14) 0.91623(14) 0.56562(14)
H5_4 H 0.2353 0.8804 0.5938
C9_4 C 0.26861(15) 0.97364(14) 0.58293(14)
H6_4 H 0.2955 0.9858 0.6246
C16_4 C 0.04556(13) 0.85632(13) 0.64492(13)
C17_4 C 0.01555(13) 0.91846(13) 0.63485(12)
H13_4 H 0.0102 0.9423 0.5964
C19_4 C 0.00012(13) 0.91029(13) 0.73823(13)
C20_4 C 0.03069(14) 0.84951(14) 0.74695(13)
C21_4 C 0.05350(13) 0.82059(14) 0.70056(13)
H15_4 H 0.0737 0.7780 0.7070
C22_4 C 0.09105(13) 0.85824(13) 0.55534(12)
H16_4 H 0.0966 0.9051 0.5540
C23_4 C 0.08913(15) 0.75239(13) 0.53464(14)
H17_4 H 0.0939 0.7112 0.5154
C24_4 C 0.06430(16) 0.75944(14) 0.58272(14)
H18_4 H 0.0486 0.7249 0.6033
C28_4 C 0.08948(13) 0.77621(13) 0.83797(13)
H22_4 H 0.1294 0.7741 0.8289
C29_4 C 0.01552(16) 0.76052(17) 0.88178(15)
C31_4 C 0.32786(13) 0.79784(13) 0.33517(13)
C32_4 C 0.36030(13) 0.74429(12) 0.31905(13)
H25_4 H 0.3591 0.7011 0.3362
C33_4 C 0.39468(13) 0.75663(13) 0.27654(13)
C34_4 C 0.39561(13) 0.81914(13) 0.24971(13)
H26_4 H 0.4182 0.8264 0.2199
C35_4 C 0.36241(13) 0.87082(12) 0.26787(13)
C36_4 C 0.32849(13) 0.86145(12) 0.31035(13)
H27_4 H 0.3063 0.8973 0.3223
C37_4 C 0.23997(12) 0.82173(13) 0.38072(13)
H28_4 H 0.2208 0.8574 0.3528
C38_4 C 0.26062(14) 0.74748(14) 0.45557(14)
H29_4 H 0.2574 0.7218 0.4905
C39_4 C 0.30630(14) 0.73963(14) 0.42763(14)
H30_4 H 0.3406 0.7079 0.4385
C40_4 C 0.49042(14) 0.71190(14) 0.25507(14)
H31_4 H 0.5135 0.7529 0.2605
C41_4 C 0.46376(16) 0.60718(14) 0.23821(16)
H32_4 H 0.4660 0.5610 0.2296
C42_4 C 0.41312(16) 0.63785(14) 0.24898(17)
H33_4 H 0.3735 0.6178 0.2491
C43_4 C 0.37442(13) 0.99235(12) 0.27518(13)
H34_4 H 0.3766 0.9959 0.3187
C45_4 C 0.36500(18) 0.94991(15) 0.18138(15)
H36_4 H 0.3590 0.9193 0.1472
N1_4 N 0.20057(11) 0.91698(11) 0.50101(11)
N7_4 N 0.10675(11) 0.81461(11) 0.51742(10)
N8_4 N 0.06603(11) 0.82628(11) 0.59628(10)
N12_4 N 0.03734(12) 0.81226(12) 0.80426(11)
N13_4 N 0.21858(11) 0.79873(10) 0.42616(10)
N14_4 N 0.29360(10) 0.78699(10) 0.37951(11)
N15_4 N 0.51243(12) 0.65390(11) 0.24173(12)
N16_4 N 0.43012(12) 0.70395(11) 0.25974(12)
N18_4 N 0.36483(11) 0.93570(10) 0.24172(11)
C25_4 C 0.93225(13) 0.03908(13) 0.61602(13)
H19_4 H 0.9299 0.0212 0.5756
C26_4 C 0.92089(14) 0.10325(14) 0.69021(13)
H20_4 H 0.9083 0.1400 0.7107
C27_4 C 0.95481(15) 0.05004(14) 0.72019(14)
H21_4 H 0.9705 0.0423 0.7649
N10_4 N 0.96234(11) 0.00892(11) 0.67315(10)
C18_3 C 0.00648(13) 0.05491(13) 0.31784(12)
H14_3 H 0.0162 0.0718 0.2302
H23_3 H 0.0063 0.2548 0.0899
C30_3 C 0.01049(16) 0.19781(19) 0.16835(16)
H24_3 H 0.0531 0.1794 0.1818
C18_4 C 0.99352(13) 0.94509(13) 0.68216(12)
H14_4 H 0.9838 0.9282 0.7698
H23_4 H 0.9937 0.7452 0.9101
C30_4 C 0.98951(16) 0.80219(19) 0.83165(16)
H24_4 H 0.9469 0.8206 0.8182
loop_
_geom_bond_atom_site_label_1
_geom_bond_atom_site_label_2
_geom_bond_site_symmetry_1
_geom_bond_site_symmetry_2
O1 Cl1 1_555 1_555
O2 Cl1 1_555 1_555
O3 Cl1 1_555 1_555
O4 Cl1 1_555 1_555
O1_2 Cl1_2 1_555 1_555
O2_2 Cl1_2 1_555 1_555
O3_2 Cl1_2 1_555 1_555
O4_2 Cl1_2 1_555 1_555
O1_3 Cl1_3 1_555 1_555
O2_3 Cl1_3 1_555 1_555
O3_3 Cl1_3 1_555 1_555
O4_3 Cl1_3 1_555 1_555
O1_4 Cl1_4 1_555 1_555
O2_4 Cl1_4 1_555 1_555
O3_4 Cl1_4 1_555 1_555
O4_4 Cl1_4 1_555 1_555
O5 Cl2 1_555 1_555
O6 Cl2 1_555 1_555
O7 Cl2 1_555 1_555
O8 Cl2 1_555 1_555
O5_2 Cl2_2 1_555 1_555
O7_2 Cl2_2 1_555 1_555
O8_2 Cl2_2 1_555 1_555
O5_3 Cl2_3 1_555 1_555
O6_3 Cl2_3 1_555 1_555
O7_3 Cl2_3 1_555 1_555
O8_3 Cl2_3 1_555 1_555
O5_4 Cl2_4 1_555 1_555
O7_4 Cl2_4 1_555 1_555
O8_4 Cl2_4 1_555 1_555
O9 Cl3 1_555 1_555
O10 Cl3 1_555 1_555
O11 Cl3 1_555 1_555
O12 Cl3 1_555 1_555
O9_2 Cl3_2 1_555 1_555
O10_2 Cl3_2 1_555 1_555
O11_2 Cl3_2 1_555 1_555
O12_2 Cl3_2 1_555 1_555
O9_3 Cl3_3 1_555 1_555
O10_3 Cl3_3 1_555 1_555
O11_3 Cl3_3 1_555 1_555
O12_3 Cl3_3 1_555 1_555
O9_4 Cl3_4 1_555 1_555
O10_4 Cl3_4 1_555 1_555
O11_4 Cl3_4 1_555 1_555
O12_4 Cl3_4 1_555 1_555
O13 Cl4 1_555 1_555
O14 Cl4 1_555 1_555
O15 Cl4 1_555 1_555
O16 Cl4 1_555 1_555
O13_2 Cl4_2 1_555 1_555
O14_2 Cl4_2 1_555 1_555
O15_2 Cl4_2 1_555 1_555
O16_2 Cl4_2 1_555 1_555
O13_3 Cl4_3 1_555 1_555
O14_3 Cl4_3 1_555 1_555
O15_3 Cl4_3 1_555 1_555
O16_3 Cl4_3 1_555 1_555
O13_4 Cl4_4 1_555 1_555
O14_4 Cl4_4 1_555 1_555
O15_4 Cl4_4 1_555 1_555
O16_4 Cl4_4 1_555 1_555
H2 C4 1_555 1_555
C5 C4 1_555 1_555
C6 C1 1_555 1_555
H3 C6 1_555 1_555
C8 H5 1_555 1_555
C9 C8 1_555 1_555
H6 C9 1_555 1_555
C13 H10 1_555 1_555
C14 H11 1_555 1_555
C15 C14 1_555 1_555
H12 C15 1_555 1_555
C16 C17 1_555 1_555
C17 H13 1_555 1_555
C20 C19 1_555 1_555
C21 C16 1_555 1_555
H15 C21 1_555 1_555
C22 H16 1_555 1_555
C23 H17 1_555 1_555
C24 C23 1_555 1_555
H18 C24 1_555 1_555
C28 H22 1_555 1_555
N2 C1 1_555 1_555
N5 C13 1_555 1_555
N6 C5 1_555 1_555
N8 C16 1_555 1_555
N11 C28 1_555 1_555
N12 C20 1_555 1_555
Zn4 N11 1_555 1_555
Zn6 N5 1_555 1_555
C5 C6 1_555 1_555
C8 N1 1_555 1_555
C9 N2 1_555 1_555
C13 N6 1_555 1_555
C14 N5 1_555 1_555
C15 N6 1_555 1_555
C20 C21 1_555 1_555
C22 N7 1_555 1_555
C22 N8 1_555 1_555
C23 N7 1_555 1_555
C24 N8 1_555 1_555
C28 N12 1_555 1_555
C29 N11 1_555 1_555
Zn2 N15 1_555 1_555
C2 H1 1_555 1_555
C3 C2 1_555 1_555
C7 H4 1_555 1_555
C10 H7 1_555 1_555
C11 H8 1_555 1_555
C12 C11 1_555 1_555
H9 C12 1_555 1_555
C31 C32 1_555 1_555
C32 H25 1_555 1_555
C33 C32 1_555 1_555
C34 C33 1_555 1_555
H26 C34 1_555 1_555
C35 C34 1_555 1_555
C36 C31 1_555 1_555
H27 C36 1_555 1_555
C37 H28 1_555 1_555
C38 H29 1_555 1_555
C39 C38 1_555 1_555
H30 C39 1_555 1_555
C40 H31 1_555 1_555
C41 H32 1_555 1_555
C42 C41 1_555 1_555
H33 C42 1_555 1_555
C43 H34 1_555 1_555
C44 H35 1_555 1_555
C45 C44 1_555 1_555
H36 C45 1_555 1_555
N3 C10 1_555 1_555
N4 C3 1_555 1_555
N13 Zn1 1_555 1_555
N14 C31 1_555 1_555
N15 C40 1_555 1_555
N16 C33 1_555 1_555
N17 C43 1_555 1_555
N18 C35 1_555 1_555
Zn5 N3 1_555 1_555
N19 Zn2 1_555 1_555
N20 Zn2 1_555 1_555
N21 Zn1 1_555 1_555
N22 Zn1 1_555 1_555
N23 Zn2 1_555 1_555
C10 N4 1_555 1_555
C11 N3 1_555 1_555
C12 N4 1_555 1_555
C35 C36 1_555 1_555
C37 N13 1_555 1_555
C37 N14 1_555 1_555
C38 N13 1_555 1_555
C39 N14 1_555 1_555
C40 N16 1_555 1_555
C41 N15 1_555 1_555
C42 N16 1_555 1_555
C43 N18 1_555 1_555
C44 N17 1_555 1_555
C45 N18 1_555 1_555
N17 Zn5 1_555 1_555
C25 H19 1_555 1_555
C26 H20 1_555 1_555
C27 C26 1_555 1_555
H21 C27 1_555 1_555
H24 C30 1_555 1_555
N9 C25 1_555 1_555
N10 C18 1_555 1_555
Zn3 N9 1_555 1_555
C25 N10 1_555 1_555
C26 N9 1_555 1_555
C27 N10 1_555 1_555
C25_2 H19_2 1_555 1_555
C26_2 H20_2 1_555 1_555
C27_2 C26_2 1_555 1_555
H21_2 C27_2 1_555 1_555
N9_2 C25_2 1_555 1_555
Zn4 N9_2 1_555 1_555
C25_2 N10_2 1_555 1_555
C26_2 N9_2 1_555 1_555
C27_2 N10_2 1_555 1_555
Zn1_2 N1_2 1_555 1_555
Zn5 N15_2 1_555 1_555
C7_2 H4_2 1_555 1_555
C8_2 H5_2 1_555 1_555
C9_2 C8_2 1_555 1_555
H6_2 C9_2 1_555 1_555
C16_2 C17_2 1_555 1_555
C17_2 H13_2 1_555 1_555
C20_2 C19_2 1_555 1_555
C21_2 C16_2 1_555 1_555
H15_2 C21_2 1_555 1_555
C22_2 H16_2 1_555 1_555
C23_2 H17_2 1_555 1_555
C24_2 C23_2 1_555 1_555
H18_2 C24_2 1_555 1_555
C28_2 H22_2 1_555 1_555
C31_2 C32_2 1_555 1_555
C32_2 H25_2 1_555 1_555
C33_2 C32_2 1_555 1_555
C34_2 C33_2 1_555 1_555
H26_2 C34_2 1_555 1_555
C35_2 C34_2 1_555 1_555
C36_2 C31_2 1_555 1_555
H27_2 C36_2 1_555 1_555
C37_2 H28_2 1_555 1_555
C38_2 H29_2 1_555 1_555
C39_2 C38_2 1_555 1_555
H30_2 C39_2 1_555 1_555
C40_2 H31_2 1_555 1_555
C41_2 H32_2 1_555 1_555
C42_2 C41_2 1_555 1_555
H33_2 C42_2 1_555 1_555
C43_2 H34_2 1_555 1_555
H36_2 C45_2 1_555 1_555
N1_2 C7_2 1_555 1_555
N7_2 Zn1_2 1_555 1_555
N8_2 C16_2 1_555 1_555
N11_2 C28_2 1_555 1_555
N12_2 C20_2 1_555 1_555
N13_2 Zn1_2 1_555 1_555
N14_2 C31_2 1_555 1_555
N15_2 C40_2 1_555 1_555
N16_2 C33_2 1_555 1_555
N18_2 C35_2 1_555 1_555
Zn3 N11_2 1_555 1_555
N20_2 Zn5 1_555 1_555
N21_2 Zn1_2 1_555 1_555
N22_2 Zn1_2 1_555 1_555
C8_2 N1_2 1_555 1_555
C20_2 C21_2 1_555 1_555
C22_2 N7_2 1_555 1_555
C22_2 N8_2 1_555 1_555
C23_2 N7_2 1_555 1_555
C24_2 N8_2 1_555 1_555
C28_2 N12_2 1_555 1_555
C29_2 N11_2 1_555 1_555
C35_2 C36_2 1_555 1_555
C37_2 N13_2 1_555 1_555
C37_2 N14_2 1_555 1_555
C38_2 N13_2 1_555 1_555
C39_2 N14_2 1_555 1_555
C40_2 N16_2 1_555 1_555
C41_2 N15_2 1_555 1_555
C42_2 N16_2 1_555 1_555
C43_2 N18_2 1_555 1_555
C45_2 N18_2 1_555 1_555
C1_2 C2_2 1_555 1_555
C2_2 H1_2 1_555 1_555
C3_2 C2_2 1_555 1_555
C4_2 C3_2 1_555 1_555
H2_2 C4_2 1_555 1_555
C5_2 C4_2 1_555 1_555
C6_2 C1_2 1_555 1_555
H3_2 C6_2 1_555 1_555
C10_2 H7_2 1_555 1_555
C11_2 H8_2 1_555 1_555
C12_2 C11_2 1_555 1_555
H9_2 C12_2 1_555 1_555
C13_2 H10_2 1_555 1_555
C14_2 H11_2 1_555 1_555
C15_2 C14_2 1_555 1_555
H12_2 C15_2 1_555 1_555
C44_2 H35_2 1_555 1_555
N2_2 C1_2 1_555 1_555
N19 C10_2 1_555 1_555
N4_2 C3_2 1_555 1_555
N5_2 C13_2 1_555 1_555
N6_2 C5_2 1_555 1_555
Zn6_2 N5_2 1_555 1_555
C5_2 C6_2 1_555 1_555
C10_2 N4_2 1_555 1_555
C11_2 N19 1_555 1_555
C12_2 N4_2 1_555 1_555
C13_2 N6_2 1_555 1_555
C14_2 N5_2 1_555 1_555
C15_2 N6_2 1_555 1_555
C44_2 N23 1_555 1_555
C25_3 H19_3 1_555 1_555
C26_3 H20_3 1_555 1_555
C27_3 C26_3 1_555 1_555
H21_3 C27_3 1_555 1_555
H24_2 C30_2 1_555 1_555
N21 C25_3 1_555 1_555
N10_3 C18_2 1_555 1_555
C25_3 N10_3 1_555 1_555
C26_3 N21 1_555 1_555
C27_3 N10_3 1_555 1_555
Zn6 N15_3 1_555 1_555
C2_3 H1_3 1_555 1_555
C3_3 C2_3 1_555 1_555
C7_3 H4_3 1_555 1_555
C10_3 H7_3 1_555 1_555
C11_3 H8_3 1_555 1_555
C12_3 C11_3 1_555 1_555
H9_3 C12_3 1_555 1_555
C31_3 C32_3 1_555 1_555
C32_3 H25_3 1_555 1_555
C33_3 C32_3 1_555 1_555
C34_3 C33_3 1_555 1_555
H26_3 C34_3 1_555 1_555
C35_3 C34_3 1_555 1_555
C36_3 C31_3 1_555 1_555
H27_3 C36_3 1_555 1_555
C37_3 H28_3 1_555 1_555
C38_3 H29_3 1_555 1_555
C39_3 C38_3 1_555 1_555
H30_3 C39_3 1_555 1_555
C40_3 H31_3 1_555 1_555
C41_3 H32_3 1_555 1_555
C42_3 C41_3 1_555 1_555
H33_3 C42_3 1_555 1_555
C43_3 H34_3 1_555 1_555
C44_3 H35_3 1_555 1_555
C45_3 C44_3 1_555 1_555
H36_3 C45_3 1_555 1_555
N3_2 C10_3 1_555 1_555
N4_3 C3_3 1_555 1_555
N13_3 Zn3 1_555 1_555
N14_3 C31_3 1_555 1_555
N15_3 C40_3 1_555 1_555
N16_3 C33_3 1_555 1_555
N17_2 C43_3 1_555 1_555
N18_3 C35_3 1_555 1_555
Zn6_2 N3_2 1_555 1_555
N19_2 Zn6 1_555 1_555
N23_2 Zn6 1_555 1_555
C10_3 N4_3 1_555 1_555
C11_3 N3_2 1_555 1_555
C12_3 N4_3 1_555 1_555
C35_3 C36_3 1_555 1_555
C37_3 N13_3 1_555 1_555
C37_3 N14_3 1_555 1_555
C38_3 N13_3 1_555 1_555
C39_3 N14_3 1_555 1_555
C40_3 N16_3 1_555 1_555
C41_3 N15_3 1_555 1_555
C42_3 N16_3 1_555 1_555
C43_3 N18_3 1_555 1_555
C44_3 N17_2 1_555 1_555
C45_3 N18_3 1_555 1_555
N17_2 Zn6_2 1_555 1_555
H2_3 C4_3 1_555 1_555
C5_3 C4_3 1_555 1_555
C6_3 C1_3 1_555 1_555
H3_3 C6_3 1_555 1_555
C8_3 H5_3 1_555 1_555
C9_3 C8_3 1_555 1_555
H6_3 C9_3 1_555 1_555
C13_3 H10_3 1_555 1_555
C14_3 H11_3 1_555 1_555
C15_3 C14_3 1_555 1_555
H12_3 C15_3 1_555 1_555
C16_3 C17_3 1_555 1_555
C17_3 H13_3 1_555 1_555
C20_3 C19_3 1_555 1_555
C21_3 C16_3 1_555 1_555
H15_3 C21_3 1_555 1_555
C22_3 H16_3 1_555 1_555
C23_3 H17_3 1_555 1_555
C24_3 C23_3 1_555 1_555
H18_3 C24_3 1_555 1_555
C28_3 H22_3 1_555 1_555
N2_3 C1_3 1_555 1_555
N20 C13_3 1_555 1_555
N6_3 C5_3 1_555 1_555
N8_3 C16_3 1_555 1_555
N22_2 C28_3 1_555 1_555
N12_3 C20_3 1_555 1_555
C5_3 C6_3 1_555 1_555
C8_3 N1_3 1_555 1_555
C9_3 N2_3 1_555 1_555
C13_3 N6_3 1_555 1_555
C14_3 N20 1_555 1_555
C15_3 N6_3 1_555 1_555
C20_3 C21_3 1_555 1_555
C22_3 N7_3 1_555 1_555
C22_3 N8_3 1_555 1_555
C23_3 N7_3 1_555 1_555
C24_3 N8_3 1_555 1_555
C28_3 N12_3 1_555 1_555
C29_3 N22_2 1_555 1_555
C1_4 C2_4 1_555 1_555
C2_4 H1_4 1_555 1_555
C3_4 C2_4 1_555 1_555
C4_4 C3_4 1_555 1_555
H2_4 C4_4 1_555 1_555
C5_4 C4_4 1_555 1_555
C6_4 C1_4 1_555 1_555
H3_4 C6_4 1_555 1_555
C10_4 H7_4 1_555 1_555
C11_4 H8_4 1_555 1_555
C12_4 C11_4 1_555 1_555
H9_4 C12_4 1_555 1_555
C13_4 H10_4 1_555 1_555
C14_4 H11_4 1_555 1_555
C15_4 C14_4 1_555 1_555
H12_4 C15_4 1_555 1_555
C44_4 H35_4 1_555 1_555
N2_4 C1_4 1_555 1_555
N19_2 C10_4 1_555 1_555
N4_4 C3_4 1_555 1_555
N20_2 C13_4 1_555 1_555
N6_4 C5_4 1_555 1_555
C5_4 C6_4 1_555 1_555
C10_4 N4_4 1_555 1_555
C11_4 N19_2 1_555 1_555
C12_4 N4_4 1_555 1_555
C13_4 N6_4 1_555 1_555
C14_4 N20_2 1_555 1_555
C15_4 N6_4 1_555 1_555
C44_4 N23_2 1_555 1_555
Zn4 N1_4 1_555 1_555
Zn6_2 N15_4 1_555 1_555
C7_4 H4_4 1_555 1_555
C8_4 H5_4 1_555 1_555
C9_4 C8_4 1_555 1_555
H6_4 C9_4 1_555 1_555
C16_4 C17_4 1_555 1_555
C17_4 H13_4 1_555 1_555
C20_4 C19_4 1_555 1_555
C21_4 C16_4 1_555 1_555
H15_4 C21_4 1_555 1_555
C22_4 H16_4 1_555 1_555
C23_4 H17_4 1_555 1_555
C24_4 C23_4 1_555 1_555
H18_4 C24_4 1_555 1_555
C28_4 H22_4 1_555 1_555
C31_4 C32_4 1_555 1_555
C32_4 H25_4 1_555 1_555
C33_4 C32_4 1_555 1_555
C34_4 C33_4 1_555 1_555
H26_4 C34_4 1_555 1_555
C35_4 C34_4 1_555 1_555
C36_4 C31_4 1_555 1_555
H27_4 C36_4 1_555 1_555
C37_4 H28_4 1_555 1_555
C38_4 H29_4 1_555 1_555
C39_4 C38_4 1_555 1_555
H30_4 C39_4 1_555 1_555
C40_4 H31_4 1_555 1_555
C41_4 H32_4 1_555 1_555
C42_4 C41_4 1_555 1_555
H33_4 C42_4 1_555 1_555
C43_4 H34_4 1_555 1_555
H36_4 C45_4 1_555 1_555
N1_4 C7_4 1_555 1_555
N7_4 Zn4 1_555 1_555
N8_4 C16_4 1_555 1_555
N22 C28_4 1_555 1_555
N12_4 C20_4 1_555 1_555
N13_4 Zn4 1_555 1_555
N14_4 C31_4 1_555 1_555
N15_4 C40_4 1_555 1_555
N16_4 C33_4 1_555 1_555
N18_4 C35_4 1_555 1_555
C8_4 N1_4 1_555 1_555
C20_4 C21_4 1_555 1_555
C22_4 N7_4 1_555 1_555
C22_4 N8_4 1_555 1_555
C23_4 N7_4 1_555 1_555
C24_4 N8_4 1_555 1_555
C28_4 N12_4 1_555 1_555
C29_4 N22 1_555 1_555
C35_4 C36_4 1_555 1_555
C37_4 N13_4 1_555 1_555
C37_4 N14_4 1_555 1_555
C38_4 N13_4 1_555 1_555
C39_4 N14_4 1_555 1_555
C40_4 N16_4 1_555 1_555
C41_4 N15_4 1_555 1_555
C42_4 N16_4 1_555 1_555
C43_4 N18_4 1_555 1_555
C45_4 N18_4 1_555 1_555
C25_4 H19_4 1_555 1_555
C26_4 H20_4 1_555 1_555
C27_4 C26_4 1_555 1_555
H21_4 C27_4 1_555 1_555
N21_2 C25_4 1_555 1_555
C25_4 N10_4 1_555 1_555
C26_4 N21_2 1_555 1_555
C27_4 N10_4 1_555 1_555
H24_3 C30_3 1_555 1_555
H24_4 C30_4 1_555 1_555

#END
