
###############################################################################
#
# This file contains modified crystal structure data generated from the
# MOF subset of the Cambridge Structural Database (CSD) v543 
# hosted by the Cambridge Crystallographic Data Centre (CCDC).
#
# This work is licensed under the Creative Commons
# Attribution-NonCommercial-ShareAlike 4.0 International License.
# To view a copy of this license, visit
# http://creativecommons.org/licenses/by-nc-sa/4.0/
# or send a letter to
# Creative Commons, PO Box 1866, Mountain View, CA 94042, USA.
#
# CIF created using the CSD Python API on 29 September 2022
# The structure has been converted into the P1 space group
# The structure has a 3D framework
# The original CSD entry XILLEL is in the cubic crystal system
# The framework has been calculated to contain at least 10.0% void space
# The void calculation uses a probe of radius 1.32A, grid spacing 0.4
# The framework is charged, counterions have been retained in the structure
#
###############################################################################

data_XILLEL
_chemical_formula_moiety         '(C960 H768 N384 Zn24 48+)n'
_symmetry_cell_setting           triclinic
_symmetry_space_group_name_H-M   'P 1'
_symmetry_Int_Tables_number      1
_space_group_name_Hall           'P 1'
loop_
_symmetry_equiv_pos_site_id
_symmetry_equiv_pos_as_xyz
1 x,y,z
_cell_length_a                   32.702(3)
_cell_length_b                   32.702(3)
_cell_length_c                   32.702(3)
_cell_angle_alpha                90
_cell_angle_beta                 90
_cell_angle_gamma                90
_cell_volume                     34972.2
loop_
_atom_site_label
_atom_site_type_symbol
_atom_site_fract_x
_atom_site_fract_y
_atom_site_fract_z
Zn1 Zn 0.6250 0.3750 0.1250
C1 C 0.7041(3) 0.3295(3) 0.1316(3)
H1 H 0.7118 0.3431 0.1561
C2 C 0.7260(3) 0.2997(3) 0.1133(3)
H2 H 0.7525 0.2903 0.1209
C3 C 0.6695(2) 0.31001(19) 0.08113(19)
H3 H 0.6481 0.3075 0.0616
C4 C 0.7113(2) 0.25220(19) 0.0558(2)
C5 C 0.6861(2) 0.24437(19) 0.0225(2)
H4 H 0.6634 0.2617 0.0169
N1 N 0.66981(17) 0.33707(16) 0.11030(18)
N2 N 0.70284(16) 0.28604(16) 0.08190(18)
C6 C 0.8295(3) 0.1184(3) 0.0459(3)
H5 H 0.8431 0.0939 0.0382
C7 C 0.7997(3) 0.1367(3) 0.0240(3)
C8 C 0.81001(19) 0.16887(19) 0.0805(2)
H7 H 0.8075 0.1884 0.1019
C9 C 0.75220(19) 0.1942(2) 0.0387(2)
C10 C 0.74437(19) 0.2275(2) 0.0639(2)
H8 H 0.7617 0.2331 0.0866
N3 N 0.83707(16) 0.13970(18) 0.08019(17)
N4 N 0.78604(16) 0.16810(18) 0.04716(16)
C15 C 0.7275(2) 0.1861(2) 0.00563(19)
C16 C 0.5459(3) 0.3295(3) 0.1184(3)
H13 H 0.5382 0.3431 0.0939
C17 C 0.5240(3) 0.2997(3) 0.1367(3)
H14 H 0.4975 0.2903 0.1291
C18 C 0.5805(2) 0.31001(19) 0.16887(19)
H15 H 0.6019 0.3075 0.1884
C19 C 0.5387(2) 0.25220(19) 0.1942(2)
C20 C 0.5639(2) 0.24437(19) 0.2275(2)
H16 H 0.5866 0.2617 0.2331
N7 N 0.58019(17) 0.33707(16) 0.13970(18)
N8 N 0.54716(16) 0.28604(16) 0.16810(18)
C21 C 0.4205(3) 0.1184(3) 0.2041(3)
H17 H 0.4069 0.0939 0.2118
C22 C 0.4503(3) 0.1367(3) 0.2260(3)
H18 H 0.4597 0.1291 0.2525
C23 C 0.43999(19) 0.16887(19) 0.1695(2)
H19 H 0.4425 0.1884 0.1481
C24 C 0.49780(19) 0.1942(2) 0.2113(2)
C25 C 0.50563(19) 0.2275(2) 0.1861(2)
H20 H 0.4883 0.2331 0.1634
N9 N 0.41293(16) 0.13970(18) 0.16981(17)
N10 N 0.46396(16) 0.16810(18) 0.20284(16)
C26 C 0.6316(3) 0.2041(3) 0.3295(3)
H21 H 0.6561 0.2118 0.3431
C27 C 0.6133(3) 0.2260(3) 0.2997(3)
H22 H 0.6209 0.2525 0.2903
C28 C 0.58113(19) 0.1695(2) 0.31001(19)
H23 H 0.5616 0.1481 0.3075
C29 C 0.5558(2) 0.2113(2) 0.25220(19)
C30 C 0.5225(2) 0.1861(2) 0.24437(19)
H24 H 0.5169 0.1634 0.2617
N11 N 0.61030(18) 0.16981(17) 0.33707(16)
N12 N 0.58190(18) 0.20284(16) 0.28604(16)
Zn2 Zn 0.8750 0.1250 0.1250
C31 C 0.8295(3) 0.1316(3) 0.2041(3)
H25 H 0.8431 0.1561 0.2118
C32 C 0.7997(3) 0.1133(3) 0.2260(3)
H26 H 0.7903 0.1209 0.2525
C33 C 0.81001(19) 0.08113(19) 0.1695(2)
H27 H 0.8075 0.0616 0.1481
C34 C 0.75220(19) 0.0558(2) 0.2113(2)
C35 C 0.74437(19) 0.0225(2) 0.1861(2)
H28 H 0.7617 0.0169 0.1634
N13 N 0.83707(16) 0.11030(18) 0.16981(17)
N14 N 0.78604(16) 0.08190(18) 0.20284(16)
C36 C 0.6184(3) 0.0459(3) 0.3295(3)
H29 H 0.5939 0.0382 0.3431
C37 C 0.6367(3) 0.0240(3) 0.2997(3)
C38 C 0.66887(19) 0.0805(2) 0.31001(19)
H31 H 0.6884 0.1019 0.3075
C39 C 0.6942(2) 0.0387(2) 0.25220(19)
C40 C 0.7275(2) 0.0639(2) 0.24437(19)
H32 H 0.7331 0.0866 0.2617
N15 N 0.63970(18) 0.08019(17) 0.33707(16)
N16 N 0.66810(18) 0.04716(16) 0.28604(16)
C45 C 0.6861(2) 0.00563(19) 0.2275(2)
Zn3 Zn 0.3750 0.1250 0.1250
C46 C 0.4205(3) 0.1316(3) 0.0459(3)
H37 H 0.4069 0.1561 0.0382
C47 C 0.4503(3) 0.1133(3) 0.0240(3)
C48 C 0.43999(19) 0.08113(19) 0.0805(2)
H39 H 0.4425 0.0616 0.1019
C49 C 0.49780(19) 0.0558(2) 0.0387(2)
C50 C 0.50563(19) 0.0225(2) 0.0639(2)
H40 H 0.4883 0.0169 0.0866
N19 N 0.41293(16) 0.11030(18) 0.08019(17)
N20 N 0.46396(16) 0.08190(18) 0.04716(16)
C55 C 0.5225(2) 0.0639(2) 0.00563(19)
C60 C 0.5639(2) 0.00563(19) 0.0225(2)
Zn5 Zn 0.6250 0.1250 0.3750
N25 N 0.33707(16) 0.08019(17) 0.13970(18)
N26 N 0.63970(18) 0.41293(16) 0.16981(17)
N27 N 0.33707(16) 0.16981(17) 0.11030(18)
N28 N 0.61030(18) 0.41293(16) 0.08019(17)
N29 N 0.91293(16) 0.16981(17) 0.13970(18)
N30 N 0.91293(16) 0.08019(17) 0.11030(18)
H6 H 0.7903 0.1291 0.9975
C11 C 0.6184(3) 0.2041(3) 0.9205(3)
H9 H 0.5939 0.2118 0.9069
C12 C 0.6367(3) 0.2260(3) 0.9503(3)
H10 H 0.6291 0.2525 0.9597
C13 C 0.66887(19) 0.1695(2) 0.93999(19)
H11 H 0.6884 0.1481 0.9425
C14 C 0.6942(2) 0.2113(2) 0.99780(19)
H12 H 0.7331 0.1634 0.9883
N5 N 0.63970(18) 0.16981(17) 0.91293(16)
N6 N 0.66810(18) 0.20284(16) 0.96396(16)
H38 H 0.4597 0.1209 0.9975
C51 C 0.6316(3) 0.0459(3) 0.9205(3)
H41 H 0.6561 0.0382 0.9069
C52 C 0.6133(3) 0.0240(3) 0.9503(3)
C53 C 0.58113(19) 0.0805(2) 0.93999(19)
H43 H 0.5616 0.1019 0.9425
C54 C 0.5558(2) 0.0387(2) 0.99780(19)
H44 H 0.5169 0.0866 0.9883
N21 N 0.61030(18) 0.08019(17) 0.91293(16)
N22 N 0.58190(18) 0.04716(16) 0.96396(16)
Zn6 Zn 0.6250 0.1250 0.8750
H30 H 0.6291 0.9975 0.2903
C41 C 0.7041(3) 0.9205(3) 0.1184(3)
H33 H 0.7118 0.9069 0.0939
C42 C 0.7260(3) 0.9503(3) 0.1367(3)
H34 H 0.7525 0.9597 0.1291
C43 C 0.6695(2) 0.93999(19) 0.16887(19)
H35 H 0.6481 0.9425 0.1884
C44 C 0.7113(2) 0.99780(19) 0.1942(2)
H36 H 0.6634 0.9883 0.2331
N17 N 0.66981(17) 0.91293(16) 0.13970(18)
N18 N 0.70284(16) 0.96396(16) 0.16810(18)
C56 C 0.5459(3) 0.9205(3) 0.1316(3)
H45 H 0.5382 0.9069 0.1561
C57 C 0.5240(3) 0.9503(3) 0.1133(3)
H46 H 0.4975 0.9597 0.1209
C58 C 0.5805(2) 0.93999(19) 0.08113(19)
H47 H 0.6019 0.9425 0.0616
C59 C 0.5387(2) 0.99780(19) 0.0558(2)
H48 H 0.5866 0.9883 0.0169
N23 N 0.58019(17) 0.91293(16) 0.11030(18)
N24 N 0.54716(16) 0.96396(16) 0.08190(18)
Zn4 Zn 0.6250 0.8750 0.1250
N26_2 N 0.61030(18) 0.83707(16) 0.16981(17)
N28_2 N 0.63970(18) 0.83707(16) 0.08019(17)
Zn1_2 Zn 0.1250 0.6250 0.3750
C1_2 C 0.1316(3) 0.7041(3) 0.3295(3)
H1_2 H 0.1561 0.7118 0.3431
C2_2 C 0.1133(3) 0.7260(3) 0.2997(3)
H2_2 H 0.1209 0.7525 0.2903
C3_2 C 0.08113(19) 0.6695(2) 0.31001(19)
H3_2 H 0.0616 0.6481 0.3075
C4_2 C 0.0558(2) 0.7113(2) 0.25220(19)
C5_2 C 0.0225(2) 0.6861(2) 0.24437(19)
H4_2 H 0.0169 0.6634 0.2617
N1_2 N 0.11030(18) 0.66981(17) 0.33707(16)
N2_2 N 0.08190(18) 0.70284(16) 0.28604(16)
C6_2 C 0.0459(3) 0.8295(3) 0.1184(3)
H5_2 H 0.0382 0.8431 0.0939
C7_2 C 0.0240(3) 0.7997(3) 0.1367(3)
C8_2 C 0.0805(2) 0.81001(19) 0.16887(19)
H7_2 H 0.1019 0.8075 0.1884
C9_2 C 0.0387(2) 0.75220(19) 0.1942(2)
C10_2 C 0.0639(2) 0.74437(19) 0.2275(2)
H8_2 H 0.0866 0.7617 0.2331
N3_2 N 0.08019(17) 0.83707(16) 0.13970(18)
N4_2 N 0.04716(16) 0.78604(16) 0.16810(18)
C15_2 C 0.00563(19) 0.7275(2) 0.1861(2)
C16_2 C 0.1184(3) 0.5459(3) 0.3295(3)
H13_2 H 0.0939 0.5382 0.3431
C17_2 C 0.1367(3) 0.5240(3) 0.2997(3)
H14_2 H 0.1291 0.4975 0.2903
C18_2 C 0.16887(19) 0.5805(2) 0.31001(19)
H15_2 H 0.1884 0.6019 0.3075
C19_2 C 0.1942(2) 0.5387(2) 0.25220(19)
C20_2 C 0.2275(2) 0.5639(2) 0.24437(19)
H16_2 H 0.2331 0.5866 0.2617
N7_2 N 0.13970(18) 0.58019(17) 0.33707(16)
N8_2 N 0.16810(18) 0.54716(16) 0.28604(16)
C21_2 C 0.2041(3) 0.4205(3) 0.1184(3)
H17_2 H 0.2118 0.4069 0.0939
C22_2 C 0.2260(3) 0.4503(3) 0.1367(3)
H18_2 H 0.2525 0.4597 0.1291
C23_2 C 0.1695(2) 0.43999(19) 0.16887(19)
H19_2 H 0.1481 0.4425 0.1884
C24_2 C 0.2113(2) 0.49780(19) 0.1942(2)
C25_2 C 0.1861(2) 0.50563(19) 0.2275(2)
H20_2 H 0.1634 0.4883 0.2331
N9_2 N 0.16981(17) 0.41293(16) 0.13970(18)
N10_2 N 0.20284(16) 0.46396(16) 0.16810(18)
C26_2 C 0.3295(3) 0.6316(3) 0.2041(3)
H21_2 H 0.3431 0.6561 0.2118
C27_2 C 0.2997(3) 0.6133(3) 0.2260(3)
H22_2 H 0.2903 0.6209 0.2525
C28_2 C 0.31001(19) 0.58113(19) 0.1695(2)
H23_2 H 0.3075 0.5616 0.1481
C29_2 C 0.25220(19) 0.5558(2) 0.2113(2)
C30_2 C 0.24437(19) 0.5225(2) 0.1861(2)
H24_2 H 0.2617 0.5169 0.1634
N11_2 N 0.33707(16) 0.61030(18) 0.16981(17)
N12_2 N 0.28604(16) 0.58190(18) 0.20284(16)
Zn2_2 Zn 0.1250 0.8750 0.1250
C31_2 C 0.2041(3) 0.8295(3) 0.1316(3)
H25_2 H 0.2118 0.8431 0.1561
C32_2 C 0.2260(3) 0.7997(3) 0.1133(3)
H26_2 H 0.2525 0.7903 0.1209
C33_2 C 0.1695(2) 0.81001(19) 0.08113(19)
H27_2 H 0.1481 0.8075 0.0616
C34_2 C 0.2113(2) 0.75220(19) 0.0558(2)
C35_2 C 0.1861(2) 0.74437(19) 0.0225(2)
H28_2 H 0.1634 0.7617 0.0169
N13_2 N 0.16981(17) 0.83707(16) 0.11030(18)
N14_2 N 0.20284(16) 0.78604(16) 0.08190(18)
C36_2 C 0.3295(3) 0.6184(3) 0.0459(3)
H29_2 H 0.3431 0.5939 0.0382
C37_2 C 0.2997(3) 0.6367(3) 0.0240(3)
C38_2 C 0.31001(19) 0.66887(19) 0.0805(2)
H31_2 H 0.3075 0.6884 0.1019
C39_2 C 0.25220(19) 0.6942(2) 0.0387(2)
C40_2 C 0.24437(19) 0.7275(2) 0.0639(2)
H32_2 H 0.2617 0.7331 0.0866
N15_2 N 0.33707(16) 0.63970(18) 0.08019(17)
N16_2 N 0.28604(16) 0.66810(18) 0.04716(16)
C45_2 C 0.2275(2) 0.6861(2) 0.00563(19)
Zn3_2 Zn 0.1250 0.3750 0.1250
C46_2 C 0.0459(3) 0.4205(3) 0.1316(3)
H37_2 H 0.0382 0.4069 0.1561
C47_2 C 0.0240(3) 0.4503(3) 0.1133(3)
C48_2 C 0.0805(2) 0.43999(19) 0.08113(19)
H39_2 H 0.1019 0.4425 0.0616
C49_2 C 0.0387(2) 0.49780(19) 0.0558(2)
C50_2 C 0.0639(2) 0.50563(19) 0.0225(2)
H40_2 H 0.0866 0.4883 0.0169
N19_2 N 0.08019(17) 0.41293(16) 0.11030(18)
N20_2 N 0.04716(16) 0.46396(16) 0.08190(18)
C55_2 C 0.00563(19) 0.5225(2) 0.0639(2)
C60_2 C 0.0225(2) 0.5639(2) 0.00563(19)
Zn5_2 Zn 0.3750 0.6250 0.1250
N25_2 N 0.13970(18) 0.33707(16) 0.08019(17)
N26_3 N 0.16981(17) 0.63970(18) 0.41293(16)
N27_2 N 0.11030(18) 0.33707(16) 0.16981(17)
N28_3 N 0.08019(17) 0.61030(18) 0.41293(16)
N29_2 N 0.13970(18) 0.91293(16) 0.16981(17)
N30_2 N 0.11030(18) 0.91293(16) 0.08019(17)
H30_2 H 0.2903 0.6291 0.9975
C41_2 C 0.1184(3) 0.7041(3) 0.9205(3)
H33_2 H 0.0939 0.7118 0.9069
C42_2 C 0.1367(3) 0.7260(3) 0.9503(3)
H34_2 H 0.1291 0.7525 0.9597
C43_2 C 0.16887(19) 0.6695(2) 0.93999(19)
H35_2 H 0.1884 0.6481 0.9425
C44_2 C 0.1942(2) 0.7113(2) 0.99780(19)
H36_2 H 0.2331 0.6634 0.9883
N17_2 N 0.13970(18) 0.66981(17) 0.91293(16)
N18_2 N 0.16810(18) 0.70284(16) 0.96396(16)
C56_2 C 0.1316(3) 0.5459(3) 0.9205(3)
H45_2 H 0.1561 0.5382 0.9069
C57_2 C 0.1133(3) 0.5240(3) 0.9503(3)
H46_2 H 0.1209 0.4975 0.9597
C58_2 C 0.08113(19) 0.5805(2) 0.93999(19)
H47_2 H 0.0616 0.6019 0.9425
C59_2 C 0.0558(2) 0.5387(2) 0.99780(19)
H48_2 H 0.0169 0.5866 0.9883
N23_2 N 0.11030(18) 0.58019(17) 0.91293(16)
N24_2 N 0.08190(18) 0.54716(16) 0.96396(16)
Zn4_2 Zn 0.1250 0.6250 0.8750
H6_2 H 0.9975 0.7903 0.1291
C11_2 C 0.9205(3) 0.6184(3) 0.2041(3)
H9_2 H 0.9069 0.5939 0.2118
C12_2 C 0.9503(3) 0.6367(3) 0.2260(3)
H10_2 H 0.9597 0.6291 0.2525
C13_2 C 0.93999(19) 0.66887(19) 0.1695(2)
H11_2 H 0.9425 0.6884 0.1481
C14_2 C 0.99780(19) 0.6942(2) 0.2113(2)
H12_2 H 0.9883 0.7331 0.1634
N5_2 N 0.91293(16) 0.63970(18) 0.16981(17)
N6_2 N 0.96396(16) 0.66810(18) 0.20284(16)
H38_2 H 0.9975 0.4597 0.1209
C51_2 C 0.9205(3) 0.6316(3) 0.0459(3)
H41_2 H 0.9069 0.6561 0.0382
C52_2 C 0.9503(3) 0.6133(3) 0.0240(3)
C53_2 C 0.93999(19) 0.58113(19) 0.0805(2)
H43_2 H 0.9425 0.5616 0.1019
C54_2 C 0.99780(19) 0.5558(2) 0.0387(2)
H44_2 H 0.9883 0.5169 0.0866
N21_2 N 0.91293(16) 0.61030(18) 0.08019(17)
N22_2 N 0.96396(16) 0.58190(18) 0.04716(16)
Zn6_2 Zn 0.8750 0.6250 0.1250
Zn1_3 Zn 0.3750 0.1250 0.6250
C1_3 C 0.3295(3) 0.1316(3) 0.7041(3)
H1_3 H 0.3431 0.1561 0.7118
C2_3 C 0.2997(3) 0.1133(3) 0.7260(3)
H2_3 H 0.2903 0.1209 0.7525
C3_3 C 0.31001(19) 0.08113(19) 0.6695(2)
H3_3 H 0.3075 0.0616 0.6481
C4_3 C 0.25220(19) 0.0558(2) 0.7113(2)
C5_3 C 0.24437(19) 0.0225(2) 0.6861(2)
H4_3 H 0.2617 0.0169 0.6634
N1_3 N 0.33707(16) 0.11030(18) 0.66981(17)
N2_3 N 0.28604(16) 0.08190(18) 0.70284(16)
C6_3 C 0.1184(3) 0.0459(3) 0.8295(3)
H5_3 H 0.0939 0.0382 0.8431
C7_3 C 0.1367(3) 0.0240(3) 0.7997(3)
C8_3 C 0.16887(19) 0.0805(2) 0.81001(19)
H7_3 H 0.1884 0.1019 0.8075
C9_3 C 0.1942(2) 0.0387(2) 0.75220(19)
C10_3 C 0.2275(2) 0.0639(2) 0.74437(19)
H8_3 H 0.2331 0.0866 0.7617
N3_3 N 0.13970(18) 0.08019(17) 0.83707(16)
N4_3 N 0.16810(18) 0.04716(16) 0.78604(16)
C15_3 C 0.1861(2) 0.00563(19) 0.7275(2)
C16_3 C 0.3295(3) 0.1184(3) 0.5459(3)
H13_3 H 0.3431 0.0939 0.5382
C17_3 C 0.2997(3) 0.1367(3) 0.5240(3)
H14_3 H 0.2903 0.1291 0.4975
C18_3 C 0.31001(19) 0.16887(19) 0.5805(2)
H15_3 H 0.3075 0.1884 0.6019
C19_3 C 0.25220(19) 0.1942(2) 0.5387(2)
C20_3 C 0.24437(19) 0.2275(2) 0.5639(2)
H16_3 H 0.2617 0.2331 0.5866
N7_3 N 0.33707(16) 0.13970(18) 0.58019(17)
N8_3 N 0.28604(16) 0.16810(18) 0.54716(16)
C21_3 C 0.1184(3) 0.2041(3) 0.4205(3)
H17_3 H 0.0939 0.2118 0.4069
C22_3 C 0.1367(3) 0.2260(3) 0.4503(3)
H18_3 H 0.1291 0.2525 0.4597
C23_3 C 0.16887(19) 0.1695(2) 0.43999(19)
H19_3 H 0.1884 0.1481 0.4425
C24_3 C 0.1942(2) 0.2113(2) 0.49780(19)
C25_3 C 0.2275(2) 0.1861(2) 0.50563(19)
H20_3 H 0.2331 0.1634 0.4883
N9_3 N 0.13970(18) 0.16981(17) 0.41293(16)
N10_3 N 0.16810(18) 0.20284(16) 0.46396(16)
C26_3 C 0.2041(3) 0.3295(3) 0.6316(3)
H21_3 H 0.2118 0.3431 0.6561
C27_3 C 0.2260(3) 0.2997(3) 0.6133(3)
H22_3 H 0.2525 0.2903 0.6209
C28_3 C 0.1695(2) 0.31001(19) 0.58113(19)
H23_3 H 0.1481 0.3075 0.5616
C29_3 C 0.2113(2) 0.25220(19) 0.5558(2)
C30_3 C 0.1861(2) 0.24437(19) 0.5225(2)
H24_3 H 0.1634 0.2617 0.5169
N11_3 N 0.16981(17) 0.33707(16) 0.61030(18)
N12_3 N 0.20284(16) 0.28604(16) 0.58190(18)
Zn2_3 Zn 0.1250 0.1250 0.8750
C31_3 C 0.1316(3) 0.2041(3) 0.8295(3)
H25_3 H 0.1561 0.2118 0.8431
C32_3 C 0.1133(3) 0.2260(3) 0.7997(3)
H26_3 H 0.1209 0.2525 0.7903
C33_3 C 0.08113(19) 0.1695(2) 0.81001(19)
H27_3 H 0.0616 0.1481 0.8075
C34_3 C 0.0558(2) 0.2113(2) 0.75220(19)
C35_3 C 0.0225(2) 0.1861(2) 0.74437(19)
H28_3 H 0.0169 0.1634 0.7617
N13_3 N 0.11030(18) 0.16981(17) 0.83707(16)
N14_3 N 0.08190(18) 0.20284(16) 0.78604(16)
C36_3 C 0.0459(3) 0.3295(3) 0.6184(3)
H29_3 H 0.0382 0.3431 0.5939
C37_3 C 0.0240(3) 0.2997(3) 0.6367(3)
C38_3 C 0.0805(2) 0.31001(19) 0.66887(19)
H31_3 H 0.1019 0.3075 0.6884
C39_3 C 0.0387(2) 0.25220(19) 0.6942(2)
C40_3 C 0.0639(2) 0.24437(19) 0.7275(2)
H32_3 H 0.0866 0.2617 0.7331
N15_3 N 0.08019(17) 0.33707(16) 0.63970(18)
N16_3 N 0.04716(16) 0.28604(16) 0.66810(18)
C45_3 C 0.00563(19) 0.2275(2) 0.6861(2)
Zn3_3 Zn 0.1250 0.1250 0.3750
C46_3 C 0.1316(3) 0.0459(3) 0.4205(3)
H37_3 H 0.1561 0.0382 0.4069
C47_3 C 0.1133(3) 0.0240(3) 0.4503(3)
C48_3 C 0.08113(19) 0.0805(2) 0.43999(19)
H39_3 H 0.0616 0.1019 0.4425
C49_3 C 0.0558(2) 0.0387(2) 0.49780(19)
C50_3 C 0.0225(2) 0.0639(2) 0.50563(19)
H40_3 H 0.0169 0.0866 0.4883
N19_3 N 0.11030(18) 0.08019(17) 0.41293(16)
N20_3 N 0.08190(18) 0.04716(16) 0.46396(16)
C55_3 C 0.0639(2) 0.00563(19) 0.5225(2)
C60_3 C 0.00563(19) 0.0225(2) 0.5639(2)
Zn5_3 Zn 0.1250 0.3750 0.6250
N25_3 N 0.08019(17) 0.13970(18) 0.33707(16)
N26_4 N 0.41293(16) 0.16981(17) 0.63970(18)
N27_3 N 0.16981(17) 0.11030(18) 0.33707(16)
N28_4 N 0.41293(16) 0.08019(17) 0.61030(18)
N29_3 N 0.16981(17) 0.13970(18) 0.91293(16)
N30_3 N 0.08019(17) 0.11030(18) 0.91293(16)
H6_3 H 0.1291 0.9975 0.7903
C11_3 C 0.2041(3) 0.9205(3) 0.6184(3)
H9_3 H 0.2118 0.9069 0.5939
C12_3 C 0.2260(3) 0.9503(3) 0.6367(3)
H10_3 H 0.2525 0.9597 0.6291
C13_3 C 0.1695(2) 0.93999(19) 0.66887(19)
H11_3 H 0.1481 0.9425 0.6884
C14_3 C 0.2113(2) 0.99780(19) 0.6942(2)
H12_3 H 0.1634 0.9883 0.7331
N5_3 N 0.16981(17) 0.91293(16) 0.63970(18)
N6_3 N 0.20284(16) 0.96396(16) 0.66810(18)
H38_3 H 0.1209 0.9975 0.4597
C51_3 C 0.0459(3) 0.9205(3) 0.6316(3)
H41_3 H 0.0382 0.9069 0.6561
C52_3 C 0.0240(3) 0.9503(3) 0.6133(3)
C53_3 C 0.0805(2) 0.93999(19) 0.58113(19)
H43_3 H 0.1019 0.9425 0.5616
C54_3 C 0.0387(2) 0.99780(19) 0.5558(2)
H44_3 H 0.0866 0.9883 0.5169
N21_3 N 0.08019(17) 0.91293(16) 0.61030(18)
N22_3 N 0.04716(16) 0.96396(16) 0.58190(18)
Zn6_3 Zn 0.1250 0.8750 0.6250
H30_3 H 0.9975 0.2903 0.6291
C41_3 C 0.9205(3) 0.1184(3) 0.7041(3)
H33_3 H 0.9069 0.0939 0.7118
C42_3 C 0.9503(3) 0.1367(3) 0.7260(3)
H34_3 H 0.9597 0.1291 0.7525
C43_3 C 0.93999(19) 0.16887(19) 0.6695(2)
H35_3 H 0.9425 0.1884 0.6481
C44_3 C 0.99780(19) 0.1942(2) 0.7113(2)
H36_3 H 0.9883 0.2331 0.6634
N17_3 N 0.91293(16) 0.13970(18) 0.66981(17)
N18_3 N 0.96396(16) 0.16810(18) 0.70284(16)
C56_3 C 0.9205(3) 0.1316(3) 0.5459(3)
H45_3 H 0.9069 0.1561 0.5382
C57_3 C 0.9503(3) 0.1133(3) 0.5240(3)
H46_3 H 0.9597 0.1209 0.4975
C58_3 C 0.93999(19) 0.08113(19) 0.5805(2)
H47_3 H 0.9425 0.0616 0.6019
C59_3 C 0.99780(19) 0.0558(2) 0.5387(2)
H48_3 H 0.9883 0.0169 0.5866
N23_3 N 0.91293(16) 0.11030(18) 0.58019(17)
N24_3 N 0.96396(16) 0.08190(18) 0.54716(16)
Zn4_3 Zn 0.8750 0.1250 0.6250
N26_5 N 0.83707(16) 0.08019(17) 0.63970(18)
N28_5 N 0.83707(16) 0.16981(17) 0.61030(18)
N26_6 N 0.16981(17) 0.61030(18) 0.83707(16)
N28_6 N 0.08019(17) 0.63970(18) 0.83707(16)
Zn1_4 Zn 0.6250 0.8750 0.6250
C1_4 C 0.7041(3) 0.8295(3) 0.6316(3)
H1_4 H 0.7118 0.8431 0.6561
C2_4 C 0.7260(3) 0.7997(3) 0.6133(3)
H2_4 H 0.7525 0.7903 0.6209
C3_4 C 0.6695(2) 0.81001(19) 0.58113(19)
H3_4 H 0.6481 0.8075 0.5616
C4_4 C 0.7113(2) 0.75220(19) 0.5558(2)
C5_4 C 0.6861(2) 0.74437(19) 0.5225(2)
H4_4 H 0.6634 0.7617 0.5169
N1_4 N 0.66981(17) 0.83707(16) 0.61030(18)
N2_4 N 0.70284(16) 0.78604(16) 0.58190(18)
C6_4 C 0.8295(3) 0.6184(3) 0.5459(3)
H5_4 H 0.8431 0.5939 0.5382
C7_4 C 0.7997(3) 0.6367(3) 0.5240(3)
H6_4 H 0.7903 0.6291 0.4975
C8_4 C 0.81001(19) 0.66887(19) 0.5805(2)
H7_4 H 0.8075 0.6884 0.6019
C9_4 C 0.75220(19) 0.6942(2) 0.5387(2)
C10_4 C 0.74437(19) 0.7275(2) 0.5639(2)
H8_4 H 0.7617 0.7331 0.5866
N3_4 N 0.83707(16) 0.63970(18) 0.58019(17)
N4_4 N 0.78604(16) 0.66810(18) 0.54716(16)
C11_4 C 0.6184(3) 0.7041(3) 0.4205(3)
H9_4 H 0.5939 0.7118 0.4069
C12_4 C 0.6367(3) 0.7260(3) 0.4503(3)
H10_4 H 0.6291 0.7525 0.4597
C13_4 C 0.66887(19) 0.6695(2) 0.43999(19)
H11_4 H 0.6884 0.6481 0.4425
C14_4 C 0.6942(2) 0.7113(2) 0.49780(19)
C15_4 C 0.7275(2) 0.6861(2) 0.50563(19)
H12_4 H 0.7331 0.6634 0.4883
N5_4 N 0.63970(18) 0.66981(17) 0.41293(16)
N6_4 N 0.66810(18) 0.70284(16) 0.46396(16)
C16_4 C 0.5459(3) 0.8295(3) 0.6184(3)
H13_4 H 0.5382 0.8431 0.5939
C17_4 C 0.5240(3) 0.7997(3) 0.6367(3)
H14_4 H 0.4975 0.7903 0.6291
C18_4 C 0.5805(2) 0.81001(19) 0.66887(19)
H15_4 H 0.6019 0.8075 0.6884
C19_4 C 0.5387(2) 0.75220(19) 0.6942(2)
C20_4 C 0.5639(2) 0.74437(19) 0.7275(2)
H16_4 H 0.5866 0.7617 0.7331
N7_4 N 0.58019(17) 0.83707(16) 0.63970(18)
N8_4 N 0.54716(16) 0.78604(16) 0.66810(18)
C21_4 C 0.4205(3) 0.6184(3) 0.7041(3)
H17_4 H 0.4069 0.5939 0.7118
C22_4 C 0.4503(3) 0.6367(3) 0.7260(3)
H18_4 H 0.4597 0.6291 0.7525
C23_4 C 0.43999(19) 0.66887(19) 0.6695(2)
H19_4 H 0.4425 0.6884 0.6481
C24_4 C 0.49780(19) 0.6942(2) 0.7113(2)
C25_4 C 0.50563(19) 0.7275(2) 0.6861(2)
H20_4 H 0.4883 0.7331 0.6634
N9_4 N 0.41293(16) 0.63970(18) 0.66981(17)
N10_4 N 0.46396(16) 0.66810(18) 0.70284(16)
C26_4 C 0.6316(3) 0.7041(3) 0.8295(3)
H21_4 H 0.6561 0.7118 0.8431
C27_4 C 0.6133(3) 0.7260(3) 0.7997(3)
H22_4 H 0.6209 0.7525 0.7903
C28_4 C 0.58113(19) 0.6695(2) 0.81001(19)
H23_4 H 0.5616 0.6481 0.8075
C29_4 C 0.5558(2) 0.7113(2) 0.75220(19)
C30_4 C 0.5225(2) 0.6861(2) 0.74437(19)
H24_4 H 0.5169 0.6634 0.7617
N11_4 N 0.61030(18) 0.66981(17) 0.83707(16)
N12_4 N 0.58190(18) 0.70284(16) 0.78604(16)
Zn2_4 Zn 0.8750 0.6250 0.6250
C31_4 C 0.8295(3) 0.6316(3) 0.7041(3)
H25_4 H 0.8431 0.6561 0.7118
C32_4 C 0.7997(3) 0.6133(3) 0.7260(3)
H26_4 H 0.7903 0.6209 0.7525
C33_4 C 0.81001(19) 0.58113(19) 0.6695(2)
H27_4 H 0.8075 0.5616 0.6481
C34_4 C 0.75220(19) 0.5558(2) 0.7113(2)
C35_4 C 0.74437(19) 0.5225(2) 0.6861(2)
H28_4 H 0.7617 0.5169 0.6634
N13_4 N 0.83707(16) 0.61030(18) 0.66981(17)
N14_4 N 0.78604(16) 0.58190(18) 0.70284(16)
C36_4 C 0.6184(3) 0.5459(3) 0.8295(3)
H29_4 H 0.5939 0.5382 0.8431
C37_4 C 0.6367(3) 0.5240(3) 0.7997(3)
H30_4 H 0.6291 0.4975 0.7903
C38_4 C 0.66887(19) 0.5805(2) 0.81001(19)
H31_4 H 0.6884 0.6019 0.8075
C39_4 C 0.6942(2) 0.5387(2) 0.75220(19)
C40_4 C 0.7275(2) 0.5639(2) 0.74437(19)
H32_4 H 0.7331 0.5866 0.7617
N15_4 N 0.63970(18) 0.58019(17) 0.83707(16)
N16_4 N 0.66810(18) 0.54716(16) 0.78604(16)
C41_4 C 0.7041(3) 0.4205(3) 0.6184(3)
H33_4 H 0.7118 0.4069 0.5939
C42_4 C 0.7260(3) 0.4503(3) 0.6367(3)
H34_4 H 0.7525 0.4597 0.6291
C43_4 C 0.6695(2) 0.43999(19) 0.66887(19)
H35_4 H 0.6481 0.4425 0.6884
C44_4 C 0.7113(2) 0.49780(19) 0.6942(2)
C45_4 C 0.6861(2) 0.50563(19) 0.7275(2)
H36_4 H 0.6634 0.4883 0.7331
N17_4 N 0.66981(17) 0.41293(16) 0.63970(18)
N18_4 N 0.70284(16) 0.46396(16) 0.66810(18)
Zn3_4 Zn 0.3750 0.6250 0.6250
C46_4 C 0.4205(3) 0.6316(3) 0.5459(3)
H37_4 H 0.4069 0.6561 0.5382
C47_4 C 0.4503(3) 0.6133(3) 0.5240(3)
H38_4 H 0.4597 0.6209 0.4975
C48_4 C 0.43999(19) 0.58113(19) 0.5805(2)
H39_4 H 0.4425 0.5616 0.6019
C49_4 C 0.49780(19) 0.5558(2) 0.5387(2)
C50_4 C 0.50563(19) 0.5225(2) 0.5639(2)
H40_4 H 0.4883 0.5169 0.5866
N19_4 N 0.41293(16) 0.61030(18) 0.58019(17)
N20_4 N 0.46396(16) 0.58190(18) 0.54716(16)
C51_4 C 0.6316(3) 0.5459(3) 0.4205(3)
H41_4 H 0.6561 0.5382 0.4069
C52_4 C 0.6133(3) 0.5240(3) 0.4503(3)
H42 H 0.6209 0.4975 0.4597
C53_4 C 0.58113(19) 0.5805(2) 0.43999(19)
H43_4 H 0.5616 0.6019 0.4425
C54_4 C 0.5558(2) 0.5387(2) 0.49780(19)
C55_4 C 0.5225(2) 0.5639(2) 0.50563(19)
H44_4 H 0.5169 0.5866 0.4883
N21_4 N 0.61030(18) 0.58019(17) 0.41293(16)
N22_4 N 0.58190(18) 0.54716(16) 0.46396(16)
C56_4 C 0.5459(3) 0.4205(3) 0.6316(3)
H45_4 H 0.5382 0.4069 0.6561
C57_4 C 0.5240(3) 0.4503(3) 0.6133(3)
H46_4 H 0.4975 0.4597 0.6209
C58_4 C 0.5805(2) 0.43999(19) 0.58113(19)
H47_4 H 0.6019 0.4425 0.5616
C59_4 C 0.5387(2) 0.49780(19) 0.5558(2)
C60_4 C 0.5639(2) 0.50563(19) 0.5225(2)
H48_4 H 0.5866 0.4883 0.5169
N23_4 N 0.58019(17) 0.41293(16) 0.61030(18)
N24_4 N 0.54716(16) 0.46396(16) 0.58190(18)
Zn4_4 Zn 0.6250 0.3750 0.6250
Zn5_4 Zn 0.6250 0.6250 0.8750
Zn6_4 Zn 0.6250 0.6250 0.3750
N25_4 N 0.33707(16) 0.58019(17) 0.63970(18)
N26_7 N 0.63970(18) 0.91293(16) 0.66981(17)
N27_4 N 0.33707(16) 0.66981(17) 0.61030(18)
N28_7 N 0.61030(18) 0.91293(16) 0.58019(17)
N29_4 N 0.91293(16) 0.66981(17) 0.63970(18)
N30_4 N 0.91293(16) 0.58019(17) 0.61030(18)
N26_8 N 0.61030(18) 0.33707(16) 0.66981(17)
N28_8 N 0.63970(18) 0.33707(16) 0.58019(17)
N29_5 N 0.13970(18) 0.41293(16) 0.66981(17)
N30_5 N 0.11030(18) 0.41293(16) 0.58019(17)
N25_5 N 0.13970(18) 0.83707(16) 0.58019(17)
N27_5 N 0.11030(18) 0.83707(16) 0.66981(17)
N26_9 N 0.41293(16) 0.66981(17) 0.13970(18)
N28_9 N 0.41293(16) 0.58019(17) 0.11030(18)
N26_10 N 0.83707(16) 0.58019(17) 0.13970(18)
N28_10 N 0.83707(16) 0.66981(17) 0.11030(18)
N26_11 N 0.66981(17) 0.63970(18) 0.91293(16)
N28_11 N 0.58019(17) 0.61030(18) 0.91293(16)
N29_6 N 0.66981(17) 0.13970(18) 0.41293(16)
N30_6 N 0.58019(17) 0.11030(18) 0.41293(16)
N25_6 N 0.58019(17) 0.13970(18) 0.83707(16)
N27_6 N 0.66981(17) 0.11030(18) 0.83707(16)
N26_12 N 0.66981(17) 0.61030(18) 0.33707(16)
N28_12 N 0.58019(17) 0.63970(18) 0.33707(16)
C1_5 C 0.3295(3) 0.0459(3) 0.1184(3)
H1_5 H 0.3431 0.0382 0.0939
C2_5 C 0.2997(3) 0.0240(3) 0.1367(3)
C3_5 C 0.31001(19) 0.0805(2) 0.16887(19)
H3_5 H 0.3075 0.1019 0.1884
C4_5 C 0.25220(19) 0.0387(2) 0.1942(2)
C5_5 C 0.24437(19) 0.0639(2) 0.2275(2)
H4_5 H 0.2617 0.0866 0.2331
N2_5 N 0.28604(16) 0.04716(16) 0.16810(18)
C10_5 C 0.2275(2) 0.00563(19) 0.1861(2)
C11_5 C 0.2041(3) 0.1316(3) 0.3295(3)
H9_5 H 0.2118 0.1561 0.3431
C12_5 C 0.2260(3) 0.1133(3) 0.2997(3)
H10_5 H 0.2525 0.1209 0.2903
C13_5 C 0.1695(2) 0.08113(19) 0.31001(19)
H11_5 H 0.1481 0.0616 0.3075
C14_5 C 0.2113(2) 0.0558(2) 0.25220(19)
C15_5 C 0.1861(2) 0.0225(2) 0.24437(19)
H12_5 H 0.1634 0.0169 0.2617
N6_5 N 0.20284(16) 0.08190(18) 0.28604(16)
C16_5 C 0.3295(3) 0.2041(3) 0.1316(3)
H13_5 H 0.3431 0.2118 0.1561
C17_5 C 0.2997(3) 0.2260(3) 0.1133(3)
H14_5 H 0.2903 0.2525 0.1209
C18_5 C 0.31001(19) 0.1695(2) 0.08113(19)
H15_5 H 0.3075 0.1481 0.0616
C19_5 C 0.25220(19) 0.2113(2) 0.0558(2)
C20_5 C 0.24437(19) 0.1861(2) 0.0225(2)
H16_5 H 0.2617 0.1634 0.0169
N8_5 N 0.28604(16) 0.20284(16) 0.08190(18)
C21_5 C 0.1184(3) 0.3295(3) 0.0459(3)
H17_5 H 0.0939 0.3431 0.0382
C22_5 C 0.1367(3) 0.2997(3) 0.0240(3)
C23_5 C 0.16887(19) 0.31001(19) 0.0805(2)
H19_5 H 0.1884 0.3075 0.1019
C24_5 C 0.1942(2) 0.25220(19) 0.0387(2)
C25_5 C 0.2275(2) 0.24437(19) 0.0639(2)
H20_5 H 0.2331 0.2617 0.0866
N10_5 N 0.16810(18) 0.28604(16) 0.04716(16)
C30_5 C 0.1861(2) 0.2275(2) 0.00563(19)
C35_5 C 0.0225(2) 0.00563(19) 0.0639(2)
C40_5 C 0.0639(2) 0.0225(2) 0.00563(19)
C45_5 C 0.00563(19) 0.0639(2) 0.0225(2)
C46_5 C 0.1316(3) 0.3295(3) 0.2041(3)
H37_5 H 0.1561 0.3431 0.2118
C47_5 C 0.1133(3) 0.2997(3) 0.2260(3)
H38_5 H 0.1209 0.2903 0.2525
C48_5 C 0.08113(19) 0.31001(19) 0.1695(2)
H39_5 H 0.0616 0.3075 0.1481
C49_5 C 0.0558(2) 0.25220(19) 0.2113(2)
C50_5 C 0.0225(2) 0.24437(19) 0.1861(2)
H40_5 H 0.0169 0.2617 0.1634
N20_5 N 0.08190(18) 0.28604(16) 0.20284(16)
C51_5 C 0.0459(3) 0.1184(3) 0.3295(3)
H41_5 H 0.0382 0.0939 0.3431
C52_5 C 0.0240(3) 0.1367(3) 0.2997(3)
C53_5 C 0.0805(2) 0.16887(19) 0.31001(19)
H43_5 H 0.1019 0.1884 0.3075
C54_5 C 0.0387(2) 0.1942(2) 0.25220(19)
C55_5 C 0.0639(2) 0.2275(2) 0.24437(19)
H44_5 H 0.0866 0.2331 0.2617
N22_5 N 0.04716(16) 0.16810(18) 0.28604(16)
C60_5 C 0.00563(19) 0.1861(2) 0.2275(2)
H18_5 H 0.1291 0.2903 0.9975
C26_5 C 0.2041(3) 0.1184(3) 0.9205(3)
H21_5 H 0.2118 0.0939 0.9069
C27_5 C 0.2260(3) 0.1367(3) 0.9503(3)
H22_5 H 0.2525 0.1291 0.9597
C28_5 C 0.1695(2) 0.16887(19) 0.93999(19)
H23_5 H 0.1481 0.1884 0.9425
C29_5 C 0.2113(2) 0.1942(2) 0.99780(19)
H24_5 H 0.1634 0.2331 0.9883
N12_5 N 0.20284(16) 0.16810(18) 0.96396(16)
C36_5 C 0.0459(3) 0.1316(3) 0.9205(3)
H29_5 H 0.0382 0.1561 0.9069
C37_5 C 0.0240(3) 0.1133(3) 0.9503(3)
C38_5 C 0.0805(2) 0.08113(19) 0.93999(19)
H31_5 H 0.1019 0.0616 0.9425
C39_5 C 0.0387(2) 0.0558(2) 0.99780(19)
H32_5 H 0.0866 0.0169 0.9883
N16_5 N 0.04716(16) 0.08190(18) 0.96396(16)
H2_5 H 0.2903 0.9975 0.1291
C6_5 C 0.1184(3) 0.9205(3) 0.2041(3)
H5_5 H 0.0939 0.9069 0.2118
C7_5 C 0.1367(3) 0.9503(3) 0.2260(3)
H6_5 H 0.1291 0.9597 0.2525
C8_5 C 0.16887(19) 0.93999(19) 0.1695(2)
H7_5 H 0.1884 0.9425 0.1481
C9_5 C 0.1942(2) 0.99780(19) 0.2113(2)
H8_5 H 0.2331 0.9883 0.1634
N4_5 N 0.16810(18) 0.96396(16) 0.20284(16)
C31_5 C 0.1316(3) 0.9205(3) 0.0459(3)
H25_5 H 0.1561 0.9069 0.0382
C32_5 C 0.1133(3) 0.9503(3) 0.0240(3)
C33_5 C 0.08113(19) 0.93999(19) 0.0805(2)
H27_5 H 0.0616 0.9425 0.1019
C34_5 C 0.0558(2) 0.99780(19) 0.0387(2)
H28_5 H 0.0169 0.9883 0.0866
N14_5 N 0.08190(18) 0.96396(16) 0.04716(16)
C41_5 C 0.9205(3) 0.0459(3) 0.1316(3)
H33_5 H 0.9069 0.0382 0.1561
C42_5 C 0.9503(3) 0.0240(3) 0.1133(3)
C43_5 C 0.93999(19) 0.0805(2) 0.08113(19)
H35_5 H 0.9425 0.1019 0.0616
C44_5 C 0.99780(19) 0.0387(2) 0.0558(2)
H36_5 H 0.9883 0.0866 0.0169
N18_5 N 0.96396(16) 0.04716(16) 0.08190(18)
H42_2 H 0.9975 0.1291 0.2903
C56_5 C 0.9205(3) 0.2041(3) 0.1184(3)
H45_5 H 0.9069 0.2118 0.0939
C57_5 C 0.9503(3) 0.2260(3) 0.1367(3)
H46_5 H 0.9597 0.2525 0.1291
C58_5 C 0.93999(19) 0.1695(2) 0.16887(19)
H47_5 H 0.9425 0.1481 0.1884
C59_5 C 0.99780(19) 0.2113(2) 0.1942(2)
H48_5 H 0.9883 0.1634 0.2331
N24_5 N 0.96396(16) 0.20284(16) 0.16810(18)
C1_6 C 0.4205(3) 0.7041(3) 0.1184(3)
H1_6 H 0.4069 0.7118 0.0939
C2_6 C 0.4503(3) 0.7260(3) 0.1367(3)
H2_6 H 0.4597 0.7525 0.1291
C3_6 C 0.43999(19) 0.6695(2) 0.16887(19)
H3_6 H 0.4425 0.6481 0.1884
C4_6 C 0.49780(19) 0.7113(2) 0.1942(2)
C5_6 C 0.50563(19) 0.6861(2) 0.2275(2)
H4_6 H 0.4883 0.6634 0.2331
N2_6 N 0.46396(16) 0.70284(16) 0.16810(18)
C6_6 C 0.6316(3) 0.8295(3) 0.2041(3)
H5_6 H 0.6561 0.8431 0.2118
C7_6 C 0.6133(3) 0.7997(3) 0.2260(3)
H6_6 H 0.6209 0.7903 0.2525
C8_6 C 0.58113(19) 0.81001(19) 0.1695(2)
H7_6 H 0.5616 0.8075 0.1481
C9_6 C 0.5558(2) 0.75220(19) 0.2113(2)
C10_6 C 0.5225(2) 0.74437(19) 0.1861(2)
H8_6 H 0.5169 0.7617 0.1634
N4_6 N 0.58190(18) 0.78604(16) 0.20284(16)
C11_6 C 0.5459(3) 0.6184(3) 0.3295(3)
H9_6 H 0.5382 0.5939 0.3431
C12_6 C 0.5240(3) 0.6367(3) 0.2997(3)
H10_6 H 0.4975 0.6291 0.2903
C13_6 C 0.5805(2) 0.66887(19) 0.31001(19)
H11_6 H 0.6019 0.6884 0.3075
C14_6 C 0.5387(2) 0.6942(2) 0.25220(19)
C15_6 C 0.5639(2) 0.7275(2) 0.24437(19)
H12_6 H 0.5866 0.7331 0.2617
N6_6 N 0.54716(16) 0.66810(18) 0.28604(16)
C16_6 C 0.4205(3) 0.5459(3) 0.1316(3)
H13_6 H 0.4069 0.5382 0.1561
C17_6 C 0.4503(3) 0.5240(3) 0.1133(3)
H14_6 H 0.4597 0.4975 0.1209
C18_6 C 0.43999(19) 0.5805(2) 0.08113(19)
H15_6 H 0.4425 0.6019 0.0616
C19_6 C 0.49780(19) 0.5387(2) 0.0558(2)
C20_6 C 0.50563(19) 0.5639(2) 0.0225(2)
H16_6 H 0.4883 0.5866 0.0169
N8_6 N 0.46396(16) 0.54716(16) 0.08190(18)
C21_6 C 0.6316(3) 0.4205(3) 0.0459(3)
H17_6 H 0.6561 0.4069 0.0382
C22_6 C 0.6133(3) 0.4503(3) 0.0240(3)
C23_6 C 0.58113(19) 0.43999(19) 0.0805(2)
H19_6 H 0.5616 0.4425 0.1019
C24_6 C 0.5558(2) 0.49780(19) 0.0387(2)
C25_6 C 0.5225(2) 0.50563(19) 0.0639(2)
H20_6 H 0.5169 0.4883 0.0866
N10_6 N 0.58190(18) 0.46396(16) 0.04716(16)
C30_6 C 0.5639(2) 0.5225(2) 0.00563(19)
C31_6 C 0.6184(3) 0.8295(3) 0.0459(3)
H25_6 H 0.5939 0.8431 0.0382
C32_6 C 0.6367(3) 0.7997(3) 0.0240(3)
C33_6 C 0.66887(19) 0.81001(19) 0.0805(2)
H27_6 H 0.6884 0.8075 0.1019
C34_6 C 0.6942(2) 0.75220(19) 0.0387(2)
C35_6 C 0.7275(2) 0.74437(19) 0.0639(2)
H28_6 H 0.7331 0.7617 0.0866
N14_6 N 0.66810(18) 0.78604(16) 0.04716(16)
C40_6 C 0.6861(2) 0.7275(2) 0.00563(19)
C41_6 C 0.8295(3) 0.7041(3) 0.1316(3)
H33_6 H 0.8431 0.7118 0.1561
C42_6 C 0.7997(3) 0.7260(3) 0.1133(3)
H34_5 H 0.7903 0.7525 0.1209
C43_6 C 0.81001(19) 0.6695(2) 0.08113(19)
H35_6 H 0.8075 0.6481 0.0616
C44_6 C 0.75220(19) 0.7113(2) 0.0558(2)
C45_6 C 0.74437(19) 0.6861(2) 0.0225(2)
H36_6 H 0.7617 0.6634 0.0169
N18_6 N 0.78604(16) 0.70284(16) 0.08190(18)
C46_6 C 0.6184(3) 0.4205(3) 0.2041(3)
H37_6 H 0.5939 0.4069 0.2118
C47_6 C 0.6367(3) 0.4503(3) 0.2260(3)
H38_6 H 0.6291 0.4597 0.2525
C48_6 C 0.66887(19) 0.43999(19) 0.1695(2)
H39_6 H 0.6884 0.4425 0.1481
C49_6 C 0.6942(2) 0.49780(19) 0.2113(2)
C50_6 C 0.7275(2) 0.50563(19) 0.1861(2)
H40_6 H 0.7331 0.4883 0.1634
N20_6 N 0.66810(18) 0.46396(16) 0.20284(16)
C51_6 C 0.7041(3) 0.6316(3) 0.3295(3)
H41_6 H 0.7118 0.6561 0.3431
C52_6 C 0.7260(3) 0.6133(3) 0.2997(3)
H42_3 H 0.7525 0.6209 0.2903
C53_6 C 0.6695(2) 0.58113(19) 0.31001(19)
H43_6 H 0.6481 0.5616 0.3075
C54_6 C 0.7113(2) 0.5558(2) 0.25220(19)
C55_6 C 0.6861(2) 0.5225(2) 0.24437(19)
H44_6 H 0.6634 0.5169 0.2617
N22_6 N 0.70284(16) 0.58190(18) 0.28604(16)
C56_6 C 0.8295(3) 0.5459(3) 0.1184(3)
H45_6 H 0.8431 0.5382 0.0939
C57_6 C 0.7997(3) 0.5240(3) 0.1367(3)
H46_6 H 0.7903 0.4975 0.1291
C58_6 C 0.81001(19) 0.5805(2) 0.16887(19)
H47_6 H 0.8075 0.6019 0.1884
C59_6 C 0.75220(19) 0.5387(2) 0.1942(2)
C60_6 C 0.74437(19) 0.5639(2) 0.2275(2)
H48_6 H 0.7617 0.5866 0.2331
N24_6 N 0.78604(16) 0.54716(16) 0.16810(18)
H18_6 H 0.6209 0.4597 0.9975
C26_6 C 0.5459(3) 0.6316(3) 0.9205(3)
H21_6 H 0.5382 0.6561 0.9069
C27_6 C 0.5240(3) 0.6133(3) 0.9503(3)
H22_6 H 0.4975 0.6209 0.9597
C28_6 C 0.5805(2) 0.58113(19) 0.93999(19)
H23_6 H 0.6019 0.5616 0.9425
C29_6 C 0.5387(2) 0.5558(2) 0.99780(19)
H24_6 H 0.5866 0.5169 0.9883
N12_6 N 0.54716(16) 0.58190(18) 0.96396(16)
H26_5 H 0.6291 0.7903 0.9975
C36_6 C 0.7041(3) 0.6184(3) 0.9205(3)
H29_6 H 0.7118 0.5939 0.9069
C37_6 C 0.7260(3) 0.6367(3) 0.9503(3)
H30_5 H 0.7525 0.6291 0.9597
C38_6 C 0.6695(2) 0.66887(19) 0.93999(19)
H31_6 H 0.6481 0.6884 0.9425
C39_6 C 0.7113(2) 0.6942(2) 0.99780(19)
H32_6 H 0.6634 0.7331 0.9883
N16_6 N 0.70284(16) 0.66810(18) 0.96396(16)
C5_7 C 0.7275(2) 0.00563(19) 0.6861(2)
C6_7 C 0.7041(3) 0.1316(3) 0.8295(3)
H5_7 H 0.7118 0.1561 0.8431
C7_7 C 0.7260(3) 0.1133(3) 0.7997(3)
H6_7 H 0.7525 0.1209 0.7903
C8_7 C 0.6695(2) 0.08113(19) 0.81001(19)
H7_7 H 0.6481 0.0616 0.8075
C9_7 C 0.7113(2) 0.0558(2) 0.75220(19)
C10_7 C 0.6861(2) 0.0225(2) 0.74437(19)
H8_7 H 0.6634 0.0169 0.7617
N4_7 N 0.70284(16) 0.08190(18) 0.78604(16)
C11_7 C 0.8295(3) 0.0459(3) 0.6184(3)
H9_7 H 0.8431 0.0382 0.5939
C12_7 C 0.7997(3) 0.0240(3) 0.6367(3)
C13_7 C 0.81001(19) 0.0805(2) 0.66887(19)
H11_7 H 0.8075 0.1019 0.6884
C14_7 C 0.75220(19) 0.0387(2) 0.6942(2)
C15_7 C 0.74437(19) 0.0639(2) 0.7275(2)
H12_7 H 0.7617 0.0866 0.7331
N6_7 N 0.78604(16) 0.04716(16) 0.66810(18)
C20_7 C 0.5225(2) 0.00563(19) 0.5639(2)
C21_7 C 0.5459(3) 0.1316(3) 0.4205(3)
H17_7 H 0.5382 0.1561 0.4069
C22_7 C 0.5240(3) 0.1133(3) 0.4503(3)
H18_7 H 0.4975 0.1209 0.4597
C23_7 C 0.5805(2) 0.08113(19) 0.43999(19)
H19_7 H 0.6019 0.0616 0.4425
C24_7 C 0.5387(2) 0.0558(2) 0.49780(19)
C25_7 C 0.5639(2) 0.0225(2) 0.50563(19)
H20_7 H 0.5866 0.0169 0.4883
N10_7 N 0.54716(16) 0.08190(18) 0.46396(16)
C26_7 C 0.4205(3) 0.0459(3) 0.6316(3)
H21_7 H 0.4069 0.0382 0.6561
C27_7 C 0.4503(3) 0.0240(3) 0.6133(3)
C28_7 C 0.43999(19) 0.0805(2) 0.58113(19)
H23_7 H 0.4425 0.1019 0.5616
C29_7 C 0.49780(19) 0.0387(2) 0.5558(2)
C30_7 C 0.50563(19) 0.0639(2) 0.5225(2)
H24_7 H 0.4883 0.0866 0.5169
N12_7 N 0.46396(16) 0.04716(16) 0.58190(18)
C31_7 C 0.5459(3) 0.1184(3) 0.8295(3)
H25_7 H 0.5382 0.0939 0.8431
C32_7 C 0.5240(3) 0.1367(3) 0.7997(3)
H26_6 H 0.4975 0.1291 0.7903
C33_7 C 0.5805(2) 0.16887(19) 0.81001(19)
H27_7 H 0.6019 0.1884 0.8075
C34_7 C 0.5387(2) 0.1942(2) 0.75220(19)
C35_7 C 0.5639(2) 0.2275(2) 0.74437(19)
H28_7 H 0.5866 0.2331 0.7617
N14_7 N 0.54716(16) 0.16810(18) 0.78604(16)
C36_7 C 0.4205(3) 0.2041(3) 0.6184(3)
H29_7 H 0.4069 0.2118 0.5939
C37_7 C 0.4503(3) 0.2260(3) 0.6367(3)
H30_6 H 0.4597 0.2525 0.6291
C38_7 C 0.43999(19) 0.1695(2) 0.66887(19)
H31_7 H 0.4425 0.1481 0.6884
C39_7 C 0.49780(19) 0.2113(2) 0.6942(2)
C40_7 C 0.50563(19) 0.1861(2) 0.7275(2)
H32_7 H 0.4883 0.1634 0.7331
N16_7 N 0.46396(16) 0.20284(16) 0.66810(18)
C41_7 C 0.6316(3) 0.3295(3) 0.7041(3)
H33_7 H 0.6561 0.3431 0.7118
C42_7 C 0.6133(3) 0.2997(3) 0.7260(3)
H34_6 H 0.6209 0.2903 0.7525
C43_7 C 0.58113(19) 0.31001(19) 0.6695(2)
H35_7 H 0.5616 0.3075 0.6481
C44_7 C 0.5558(2) 0.25220(19) 0.7113(2)
C45_7 C 0.5225(2) 0.24437(19) 0.6861(2)
H36_7 H 0.5169 0.2617 0.6634
N18_7 N 0.58190(18) 0.28604(16) 0.70284(16)
C46_7 C 0.7041(3) 0.1184(3) 0.4205(3)
H37_7 H 0.7118 0.0939 0.4069
C47_7 C 0.7260(3) 0.1367(3) 0.4503(3)
H38_7 H 0.7525 0.1291 0.4597
C48_7 C 0.6695(2) 0.16887(19) 0.43999(19)
H39_7 H 0.6481 0.1884 0.4425
C49_7 C 0.7113(2) 0.1942(2) 0.49780(19)
C50_7 C 0.6861(2) 0.2275(2) 0.50563(19)
H40_7 H 0.6634 0.2331 0.4883
N20_7 N 0.70284(16) 0.16810(18) 0.46396(16)
C51_7 C 0.8295(3) 0.2041(3) 0.6316(3)
H41_7 H 0.8431 0.2118 0.6561
C52_7 C 0.7997(3) 0.2260(3) 0.6133(3)
H42_4 H 0.7903 0.2525 0.6209
C53_7 C 0.81001(19) 0.1695(2) 0.58113(19)
H43_7 H 0.8075 0.1481 0.5616
C54_7 C 0.75220(19) 0.2113(2) 0.5558(2)
C55_7 C 0.74437(19) 0.1861(2) 0.5225(2)
H44_7 H 0.7617 0.1634 0.5169
N22_7 N 0.78604(16) 0.20284(16) 0.58190(18)
C56_7 C 0.6184(3) 0.3295(3) 0.5459(3)
H45_7 H 0.5939 0.3431 0.5382
C57_7 C 0.6367(3) 0.2997(3) 0.5240(3)
H46_7 H 0.6291 0.2903 0.4975
C58_7 C 0.66887(19) 0.31001(19) 0.5805(2)
H47_7 H 0.6884 0.3075 0.6019
C59_7 C 0.6942(2) 0.25220(19) 0.5387(2)
C60_7 C 0.7275(2) 0.24437(19) 0.5639(2)
H48_7 H 0.7331 0.2617 0.5866
N24_7 N 0.66810(18) 0.28604(16) 0.54716(16)
C1_7 C 0.6184(3) 0.9205(3) 0.7041(3)
H1_7 H 0.5939 0.9069 0.7118
C2_7 C 0.6367(3) 0.9503(3) 0.7260(3)
H2_7 H 0.6291 0.9597 0.7525
C3_7 C 0.66887(19) 0.93999(19) 0.6695(2)
H3_7 H 0.6884 0.9425 0.6481
C4_7 C 0.6942(2) 0.99780(19) 0.7113(2)
H4_7 H 0.7331 0.9883 0.6634
N2_7 N 0.66810(18) 0.96396(16) 0.70284(16)
H10_7 H 0.7903 0.9975 0.6291
C16_7 C 0.6316(3) 0.9205(3) 0.5459(3)
H13_7 H 0.6561 0.9069 0.5382
C17_7 C 0.6133(3) 0.9503(3) 0.5240(3)
H14_7 H 0.6209 0.9597 0.4975
C18_7 C 0.58113(19) 0.93999(19) 0.5805(2)
H15_7 H 0.5616 0.9425 0.6019
C19_7 C 0.5558(2) 0.99780(19) 0.5387(2)
H16_7 H 0.5169 0.9883 0.5866
N8_7 N 0.58190(18) 0.96396(16) 0.54716(16)
H22_7 H 0.4597 0.9975 0.6209
C1_8 C 0.1316(3) 0.4205(3) 0.5459(3)
H1_8 H 0.1561 0.4069 0.5382
C2_8 C 0.1133(3) 0.4503(3) 0.5240(3)
H2_8 H 0.1209 0.4597 0.4975
C3_8 C 0.08113(19) 0.43999(19) 0.5805(2)
H3_8 H 0.0616 0.4425 0.6019
C4_8 C 0.0558(2) 0.49780(19) 0.5387(2)
C5_8 C 0.0225(2) 0.50563(19) 0.5639(2)
H4_8 H 0.0169 0.4883 0.5866
N2_8 N 0.08190(18) 0.46396(16) 0.54716(16)
C6_8 C 0.0459(3) 0.6316(3) 0.4205(3)
H5_8 H 0.0382 0.6561 0.4069
C7_8 C 0.0240(3) 0.6133(3) 0.4503(3)
C8_8 C 0.0805(2) 0.58113(19) 0.43999(19)
H7_8 H 0.1019 0.5616 0.4425
C9_8 C 0.0387(2) 0.5558(2) 0.49780(19)
C10_8 C 0.0639(2) 0.5225(2) 0.50563(19)
H8_8 H 0.0866 0.5169 0.4883
N4_8 N 0.04716(16) 0.58190(18) 0.46396(16)
C15_8 C 0.00563(19) 0.5639(2) 0.5225(2)
C16_8 C 0.1184(3) 0.4205(3) 0.7041(3)
H13_8 H 0.0939 0.4069 0.7118
C17_8 C 0.1367(3) 0.4503(3) 0.7260(3)
H14_8 H 0.1291 0.4597 0.7525
C18_8 C 0.16887(19) 0.43999(19) 0.6695(2)
H15_8 H 0.1884 0.4425 0.6481
C19_8 C 0.1942(2) 0.49780(19) 0.7113(2)
C20_8 C 0.2275(2) 0.50563(19) 0.6861(2)
H16_8 H 0.2331 0.4883 0.6634
N8_8 N 0.16810(18) 0.46396(16) 0.70284(16)
C21_8 C 0.2041(3) 0.6316(3) 0.8295(3)
H17_8 H 0.2118 0.6561 0.8431
C22_8 C 0.2260(3) 0.6133(3) 0.7997(3)
H18_8 H 0.2525 0.6209 0.7903
C23_8 C 0.1695(2) 0.58113(19) 0.81001(19)
H19_8 H 0.1481 0.5616 0.8075
C24_8 C 0.2113(2) 0.5558(2) 0.75220(19)
C25_8 C 0.1861(2) 0.5225(2) 0.74437(19)
H20_8 H 0.1634 0.5169 0.7617
N10_8 N 0.20284(16) 0.58190(18) 0.78604(16)
C26_8 C 0.3295(3) 0.5459(3) 0.6184(3)
H21_8 H 0.3431 0.5382 0.5939
C27_8 C 0.2997(3) 0.5240(3) 0.6367(3)
H22_8 H 0.2903 0.4975 0.6291
C28_8 C 0.31001(19) 0.5805(2) 0.66887(19)
H23_8 H 0.3075 0.6019 0.6884
C29_8 C 0.25220(19) 0.5387(2) 0.6942(2)
C30_8 C 0.24437(19) 0.5639(2) 0.7275(2)
H24_8 H 0.2617 0.5866 0.7331
N12_8 N 0.28604(16) 0.54716(16) 0.66810(18)
C31_8 C 0.2041(3) 0.6184(3) 0.4205(3)
H25_8 H 0.2118 0.5939 0.4069
C32_8 C 0.2260(3) 0.6367(3) 0.4503(3)
H26_7 H 0.2525 0.6291 0.4597
C33_8 C 0.1695(2) 0.66887(19) 0.43999(19)
H27_8 H 0.1481 0.6884 0.4425
C34_8 C 0.2113(2) 0.6942(2) 0.49780(19)
C35_8 C 0.1861(2) 0.7275(2) 0.50563(19)
H28_8 H 0.1634 0.7331 0.4883
N14_8 N 0.20284(16) 0.66810(18) 0.46396(16)
C36_8 C 0.3295(3) 0.7041(3) 0.6316(3)
H29_8 H 0.3431 0.7118 0.6561
C37_8 C 0.2997(3) 0.7260(3) 0.6133(3)
H30_7 H 0.2903 0.7525 0.6209
C38_8 C 0.31001(19) 0.6695(2) 0.58113(19)
H31_8 H 0.3075 0.6481 0.5616
C39_8 C 0.25220(19) 0.7113(2) 0.5558(2)
C40_8 C 0.24437(19) 0.6861(2) 0.5225(2)
H32_8 H 0.2617 0.6634 0.5169
N16_8 N 0.28604(16) 0.70284(16) 0.58190(18)
C41_8 C 0.1184(3) 0.8295(3) 0.5459(3)
H33_8 H 0.0939 0.8431 0.5382
C42_8 C 0.1367(3) 0.7997(3) 0.5240(3)
H34_7 H 0.1291 0.7903 0.4975
C43_8 C 0.16887(19) 0.81001(19) 0.5805(2)
H35_8 H 0.1884 0.8075 0.6019
C44_8 C 0.1942(2) 0.75220(19) 0.5387(2)
C45_8 C 0.2275(2) 0.74437(19) 0.5639(2)
H36_8 H 0.2331 0.7617 0.5866
N18_8 N 0.16810(18) 0.78604(16) 0.54716(16)
C46_8 C 0.0459(3) 0.6184(3) 0.8295(3)
H37_8 H 0.0382 0.5939 0.8431
C47_8 C 0.0240(3) 0.6367(3) 0.7997(3)
C48_8 C 0.0805(2) 0.66887(19) 0.81001(19)
H39_8 H 0.1019 0.6884 0.8075
C49_8 C 0.0387(2) 0.6942(2) 0.75220(19)
C50_8 C 0.0639(2) 0.7275(2) 0.74437(19)
H40_8 H 0.0866 0.7331 0.7617
N20_8 N 0.04716(16) 0.66810(18) 0.78604(16)
C55_8 C 0.00563(19) 0.6861(2) 0.7275(2)
C56_8 C 0.1316(3) 0.8295(3) 0.7041(3)
H45_8 H 0.1561 0.8431 0.7118
C57_8 C 0.1133(3) 0.7997(3) 0.7260(3)
H46_8 H 0.1209 0.7903 0.7525
C58_8 C 0.08113(19) 0.81001(19) 0.6695(2)
H47_8 H 0.0616 0.8075 0.6481
C59_8 C 0.0558(2) 0.75220(19) 0.7113(2)
C60_8 C 0.0225(2) 0.74437(19) 0.6861(2)
H48_8 H 0.0169 0.7617 0.6634
N24_8 N 0.08190(18) 0.78604(16) 0.70284(16)
H6_8 H 0.9975 0.6209 0.4597
C11_8 C 0.9205(3) 0.5459(3) 0.6316(3)
H9_8 H 0.9069 0.5382 0.6561
C12_8 C 0.9503(3) 0.5240(3) 0.6133(3)
H10_8 H 0.9597 0.4975 0.6209
C13_8 C 0.93999(19) 0.5805(2) 0.58113(19)
H11_8 H 0.9425 0.6019 0.5616
C14_8 C 0.99780(19) 0.5387(2) 0.5558(2)
H12_8 H 0.9883 0.5866 0.5169
N6_8 N 0.96396(16) 0.54716(16) 0.58190(18)
H38_8 H 0.9975 0.6291 0.7903
C51_8 C 0.9205(3) 0.7041(3) 0.6184(3)
H41_8 H 0.9069 0.7118 0.5939
C52_8 C 0.9503(3) 0.7260(3) 0.6367(3)
H42_5 H 0.9597 0.7525 0.6291
C53_8 C 0.93999(19) 0.6695(2) 0.66887(19)
H43_8 H 0.9425 0.6481 0.6884
C54_8 C 0.99780(19) 0.7113(2) 0.6942(2)
H44_8 H 0.9883 0.6634 0.7331
N22_8 N 0.96396(16) 0.70284(16) 0.66810(18)
H42_6 H 0.6209 0.9975 0.9597
H34_8 H 0.0403 0.0025 0.8791
H30_8 H 0.0025 0.8791 0.0403
C41_9 C 0.0795(3) 0.9541(3) 0.8684(3)
H33_9 H 0.0931 0.9618 0.8439
C42_9 C 0.0497(3) 0.9760(3) 0.8867(3)
C43_9 C 0.06001(19) 0.9195(2) 0.91887(19)
H35_9 H 0.0575 0.8981 0.9384
C44_9 C 0.00220(19) 0.9613(2) 0.9442(2)
H36_9 H 0.0117 0.9134 0.9831
N17_5 N 0.08707(16) 0.91981(17) 0.88970(18)
N18_9 N 0.03604(16) 0.95284(16) 0.91810(18)
H42_7 H 0.0025 0.8709 0.7097
C56_9 C 0.0795(3) 0.7959(3) 0.8816(3)
H45_9 H 0.0931 0.7882 0.9061
C57_9 C 0.0497(3) 0.7740(3) 0.8633(3)
H46_9 H 0.0403 0.7475 0.8709
C58_9 C 0.06001(19) 0.8305(2) 0.83113(19)
H47_9 H 0.0575 0.8519 0.8116
C59_9 C 0.00220(19) 0.7887(2) 0.8058(2)
H48_9 H 0.0117 0.8366 0.7669
N23_5 N 0.08707(16) 0.83019(17) 0.86030(18)
N24_9 N 0.03604(16) 0.79716(16) 0.83190(18)
Zn4_5 Zn 0.1250 0.8750 0.8750
H2_9 H 0.7097 0.0025 0.8709
C6_9 C 0.8816(3) 0.0795(3) 0.7959(3)
H5_9 H 0.9061 0.0931 0.7882
C7_9 C 0.8633(3) 0.0497(3) 0.7740(3)
H6_9 H 0.8709 0.0403 0.7475
C8_9 C 0.83113(19) 0.06001(19) 0.8305(2)
H7_9 H 0.8116 0.0575 0.8519
C9_9 C 0.8058(2) 0.00220(19) 0.7887(2)
H8_9 H 0.7669 0.0117 0.8366
N3_5 N 0.86030(18) 0.08707(16) 0.83019(17)
N4_9 N 0.83190(18) 0.03604(16) 0.79716(16)
Zn2_5 Zn 0.8750 0.1250 0.8750
C31_9 C 0.8684(3) 0.0795(3) 0.9541(3)
H25_9 H 0.8439 0.0931 0.9618
C32_9 C 0.8867(3) 0.0497(3) 0.9760(3)
C33_9 C 0.91887(19) 0.06001(19) 0.9195(2)
H27_9 H 0.9384 0.0575 0.8981
C34_9 C 0.9442(2) 0.00220(19) 0.9613(2)
H28_9 H 0.9831 0.0117 0.9134
N13_5 N 0.88970(18) 0.08707(16) 0.91981(17)
N14_9 N 0.91810(18) 0.03604(16) 0.95284(16)
N29_7 N 0.83019(17) 0.16293(16) 0.88970(18)
N30_7 N 0.91981(17) 0.16293(16) 0.86030(18)
H18_9 H 0.8709 0.7097 0.0025
C26_9 C 0.7959(3) 0.8816(3) 0.0795(3)
H21_9 H 0.7882 0.9061 0.0931
C27_9 C 0.7740(3) 0.8633(3) 0.0497(3)
H22_9 H 0.7475 0.8709 0.0403
C28_9 C 0.8305(2) 0.83113(19) 0.06001(19)
H23_9 H 0.8519 0.8116 0.0575
C29_9 C 0.7887(2) 0.8058(2) 0.00220(19)
H24_9 H 0.8366 0.7669 0.0117
N11_5 N 0.83019(17) 0.86030(18) 0.08707(16)
N12_9 N 0.79716(16) 0.83190(18) 0.03604(16)
C36_9 C 0.9541(3) 0.8684(3) 0.0795(3)
H29_9 H 0.9618 0.8439 0.0931
C37_9 C 0.9760(3) 0.8867(3) 0.0497(3)
C38_9 C 0.9195(2) 0.91887(19) 0.06001(19)
H31_9 H 0.8981 0.9384 0.0575
C39_9 C 0.9613(2) 0.9442(2) 0.00220(19)
H32_9 H 0.9134 0.9831 0.0117
N15_5 N 0.91981(17) 0.88970(18) 0.08707(16)
N16_9 N 0.95284(16) 0.91810(18) 0.03604(16)
Zn5_5 Zn 0.8750 0.8750 0.1250
Zn1_5 Zn 0.6250 0.8750 0.8750
C1_9 C 0.6705(3) 0.9541(3) 0.8816(3)
H1_9 H 0.6569 0.9618 0.9061
C2_9 C 0.7003(3) 0.9760(3) 0.8633(3)
C3_9 C 0.68999(19) 0.9195(2) 0.83113(19)
H3_9 H 0.6925 0.8981 0.8116
C4_9 C 0.74780(19) 0.9613(2) 0.8058(2)
C5_9 C 0.75563(19) 0.9361(2) 0.7725(2)
H4_9 H 0.7383 0.9134 0.7669
N1_5 N 0.66293(16) 0.91981(17) 0.86030(18)
N2_9 N 0.71396(16) 0.95284(16) 0.83190(18)
C10_9 C 0.7725(2) 0.99437(19) 0.8139(2)
C11_9 C 0.7959(3) 0.8684(3) 0.6705(3)
H9_9 H 0.7882 0.8439 0.6569
C12_9 C 0.7740(3) 0.8867(3) 0.7003(3)
H10_9 H 0.7475 0.8791 0.7097
C13_9 C 0.8305(2) 0.91887(19) 0.68999(19)
H11_9 H 0.8519 0.9384 0.6925
C14_9 C 0.7887(2) 0.9442(2) 0.74780(19)
C15_9 C 0.8139(2) 0.9775(2) 0.75563(19)
H12_9 H 0.8366 0.9831 0.7383
N5_5 N 0.83019(17) 0.88970(18) 0.66293(16)
N6_9 N 0.79716(16) 0.91810(18) 0.71396(16)
C16_9 C 0.6705(3) 0.7959(3) 0.8684(3)
H13_9 H 0.6569 0.7882 0.8439
C17_9 C 0.7003(3) 0.7740(3) 0.8867(3)
H14_9 H 0.7097 0.7475 0.8791
C18_9 C 0.68999(19) 0.8305(2) 0.91887(19)
H15_9 H 0.6925 0.8519 0.9384
C19_9 C 0.74780(19) 0.7887(2) 0.9442(2)
C20_9 C 0.75563(19) 0.8139(2) 0.9775(2)
H16_9 H 0.7383 0.8366 0.9831
N7_5 N 0.66293(16) 0.83019(17) 0.88970(18)
N8_9 N 0.71396(16) 0.79716(16) 0.91810(18)
C21_9 C 0.8816(3) 0.6705(3) 0.9541(3)
H17_9 H 0.9061 0.6569 0.9618
C22_9 C 0.8633(3) 0.7003(3) 0.9760(3)
C23_9 C 0.83113(19) 0.68999(19) 0.9195(2)
H19_9 H 0.8116 0.6925 0.8981
C24_9 C 0.8058(2) 0.74780(19) 0.9613(2)
C25_9 C 0.7725(2) 0.75563(19) 0.9361(2)
H20_9 H 0.7669 0.7383 0.9134
N9_5 N 0.86030(18) 0.66293(16) 0.91981(17)
N10_9 N 0.83190(18) 0.71396(16) 0.95284(16)
C30_9 C 0.8139(2) 0.7725(2) 0.99437(19)
C35_9 C 0.9775(2) 0.99437(19) 0.9361(2)
C40_9 C 0.9361(2) 0.9775(2) 0.99437(19)
C45_9 C 0.99437(19) 0.9361(2) 0.9775(2)
Zn3_5 Zn 0.8750 0.6250 0.8750
C46_9 C 0.8684(3) 0.6705(3) 0.7959(3)
H37_9 H 0.8439 0.6569 0.7882
C47_9 C 0.8867(3) 0.7003(3) 0.7740(3)
H38_9 H 0.8791 0.7097 0.7475
C48_9 C 0.91887(19) 0.68999(19) 0.8305(2)
H39_9 H 0.9384 0.6925 0.8519
C49_9 C 0.9442(2) 0.74780(19) 0.7887(2)
C50_9 C 0.9775(2) 0.75563(19) 0.8139(2)
H40_9 H 0.9831 0.7383 0.8366
N19_5 N 0.88970(18) 0.66293(16) 0.83019(17)
N20_9 N 0.91810(18) 0.71396(16) 0.79716(16)
C51_9 C 0.9541(3) 0.8816(3) 0.6705(3)
H41_9 H 0.9618 0.9061 0.6569
C52_9 C 0.9760(3) 0.8633(3) 0.7003(3)
C53_9 C 0.9195(2) 0.83113(19) 0.68999(19)
H43_9 H 0.8981 0.8116 0.6925
C54_9 C 0.9613(2) 0.8058(2) 0.74780(19)
C55_9 C 0.9361(2) 0.7725(2) 0.75563(19)
H44_9 H 0.9134 0.7669 0.7383
N21_5 N 0.91981(17) 0.86030(18) 0.66293(16)
N22_9 N 0.95284(16) 0.83190(18) 0.71396(16)
C60_9 C 0.99437(19) 0.8139(2) 0.7725(2)
Zn6_5 Zn 0.8750 0.8750 0.6250
N25_7 N 0.91981(17) 0.58707(16) 0.88970(18)
N26_13 N 0.58707(16) 0.88970(18) 0.91981(17)
N27_7 N 0.83019(17) 0.58707(16) 0.86030(18)
N28_13 N 0.58707(16) 0.86030(18) 0.83019(17)
H18_10 H 0.3791 0.5403 0.0025
C26_10 C 0.4541(3) 0.3684(3) 0.0795(3)
H21_10 H 0.4618 0.3439 0.0931
C27_10 C 0.4760(3) 0.3867(3) 0.0497(3)
H22_10 H 0.5025 0.3791 0.0403
C28_10 C 0.4195(2) 0.41887(19) 0.06001(19)
H23_10 H 0.3981 0.4384 0.0575
C29_10 C 0.4613(2) 0.4442(2) 0.00220(19)
H24_10 H 0.4134 0.4831 0.0117
N11_6 N 0.41981(17) 0.38970(18) 0.08707(16)
N12_10 N 0.45284(16) 0.41810(18) 0.03604(16)
H26_8 H 0.3709 0.2097 0.0025
C36_10 C 0.2959(3) 0.3816(3) 0.0795(3)
H29_10 H 0.2882 0.4061 0.0931
C37_10 C 0.2740(3) 0.3633(3) 0.0497(3)
H30_9 H 0.2475 0.3709 0.0403
C38_10 C 0.3305(2) 0.33113(19) 0.06001(19)
H31_10 H 0.3519 0.3116 0.0575
C39_10 C 0.2887(2) 0.3058(2) 0.00220(19)
H32_10 H 0.3366 0.2669 0.0117
N15_6 N 0.33019(17) 0.36030(18) 0.08707(16)
N16_10 N 0.29716(16) 0.33190(18) 0.03604(16)
Zn5_6 Zn 0.3750 0.3750 0.1250
Zn1_6 Zn 0.6250 0.3750 0.8750
C1_10 C 0.5795(3) 0.2959(3) 0.8816(3)
H1_10 H 0.5931 0.2882 0.9061
C2_10 C 0.5497(3) 0.2740(3) 0.8633(3)
H2_10 H 0.5403 0.2475 0.8709
C3_10 C 0.56001(19) 0.3305(2) 0.83113(19)
H3_10 H 0.5575 0.3519 0.8116
C4_10 C 0.50220(19) 0.2887(2) 0.8058(2)
C5_10 C 0.49437(19) 0.3139(2) 0.7725(2)
H4_10 H 0.5117 0.3366 0.7669
N1_6 N 0.58707(16) 0.33019(17) 0.86030(18)
N2_10 N 0.53604(16) 0.29716(16) 0.83190(18)
C6_10 C 0.3684(3) 0.1705(3) 0.7959(3)
H5_10 H 0.3439 0.1569 0.7882
C7_10 C 0.3867(3) 0.2003(3) 0.7740(3)
H6_10 H 0.3791 0.2097 0.7475
C8_10 C 0.41887(19) 0.18999(19) 0.8305(2)
H7_10 H 0.4384 0.1925 0.8519
C9_10 C 0.4442(2) 0.24780(19) 0.7887(2)
C10_10 C 0.4775(2) 0.25563(19) 0.8139(2)
H8_10 H 0.4831 0.2383 0.8366
N3_6 N 0.38970(18) 0.16293(16) 0.83019(17)
N4_10 N 0.41810(18) 0.21396(16) 0.79716(16)
C11_10 C 0.4541(3) 0.3816(3) 0.6705(3)
H9_10 H 0.4618 0.4061 0.6569
C12_10 C 0.4760(3) 0.3633(3) 0.7003(3)
H10_10 H 0.5025 0.3709 0.7097
C13_10 C 0.4195(2) 0.33113(19) 0.68999(19)
H11_10 H 0.3981 0.3116 0.6925
C14_10 C 0.4613(2) 0.3058(2) 0.74780(19)
C15_10 C 0.4361(2) 0.2725(2) 0.75563(19)
H12_10 H 0.4134 0.2669 0.7383
N5_6 N 0.41981(17) 0.36030(18) 0.66293(16)
N6_10 N 0.45284(16) 0.33190(18) 0.71396(16)
C16_10 C 0.5795(3) 0.4541(3) 0.8684(3)
H13_10 H 0.5931 0.4618 0.8439
C17_10 C 0.5497(3) 0.4760(3) 0.8867(3)
H14_10 H 0.5403 0.5025 0.8791
C18_10 C 0.56001(19) 0.4195(2) 0.91887(19)
H15_10 H 0.5575 0.3981 0.9384
C19_10 C 0.50220(19) 0.4613(2) 0.9442(2)
C20_10 C 0.49437(19) 0.4361(2) 0.9775(2)
H16_10 H 0.5117 0.4134 0.9831
N7_6 N 0.58707(16) 0.41981(17) 0.88970(18)
N8_10 N 0.53604(16) 0.45284(16) 0.91810(18)
C21_10 C 0.3684(3) 0.5795(3) 0.9541(3)
H17_10 H 0.3439 0.5931 0.9618
C22_10 C 0.3867(3) 0.5497(3) 0.9760(3)
C23_10 C 0.41887(19) 0.56001(19) 0.9195(2)
H19_10 H 0.4384 0.5575 0.8981
C24_10 C 0.4442(2) 0.50220(19) 0.9613(2)
C25_10 C 0.4775(2) 0.49437(19) 0.9361(2)
H20_10 H 0.4831 0.5117 0.9134
N9_6 N 0.38970(18) 0.58707(16) 0.91981(17)
N10_10 N 0.41810(18) 0.53604(16) 0.95284(16)
C30_10 C 0.4361(2) 0.4775(2) 0.99437(19)
Zn2_6 Zn 0.3750 0.1250 0.8750
C31_10 C 0.3816(3) 0.1705(3) 0.9541(3)
H25_10 H 0.4061 0.1569 0.9618
C32_10 C 0.3633(3) 0.2003(3) 0.9760(3)
C33_10 C 0.33113(19) 0.18999(19) 0.9195(2)
H27_10 H 0.3116 0.1925 0.8981
C34_10 C 0.3058(2) 0.24780(19) 0.9613(2)
C35_10 C 0.2725(2) 0.25563(19) 0.9361(2)
H28_10 H 0.2669 0.2383 0.9134
N13_6 N 0.36030(18) 0.16293(16) 0.91981(17)
N14_10 N 0.33190(18) 0.21396(16) 0.95284(16)
C40_10 C 0.3139(2) 0.2725(2) 0.99437(19)
C41_10 C 0.1705(3) 0.2959(3) 0.8684(3)
H33_10 H 0.1569 0.2882 0.8439
C42_10 C 0.2003(3) 0.2740(3) 0.8867(3)
H34_9 H 0.2097 0.2475 0.8791
C43_10 C 0.18999(19) 0.3305(2) 0.91887(19)
H35_10 H 0.1925 0.3519 0.9384
C44_10 C 0.24780(19) 0.2887(2) 0.9442(2)
C45_10 C 0.25563(19) 0.3139(2) 0.9775(2)
H36_10 H 0.2383 0.3366 0.9831
N17_6 N 0.16293(16) 0.33019(17) 0.88970(18)
N18_10 N 0.21396(16) 0.29716(16) 0.91810(18)
Zn3_6 Zn 0.3750 0.6250 0.8750
C46_10 C 0.3816(3) 0.5795(3) 0.7959(3)
H37_10 H 0.4061 0.5931 0.7882
C47_10 C 0.3633(3) 0.5497(3) 0.7740(3)
H38_10 H 0.3709 0.5403 0.7475
C48_10 C 0.33113(19) 0.56001(19) 0.8305(2)
H39_10 H 0.3116 0.5575 0.8519
C49_10 C 0.3058(2) 0.50220(19) 0.7887(2)
C50_10 C 0.2725(2) 0.49437(19) 0.8139(2)
H40_10 H 0.2669 0.5117 0.8366
N19_6 N 0.36030(18) 0.58707(16) 0.83019(17)
N20_10 N 0.33190(18) 0.53604(16) 0.79716(16)
C51_10 C 0.2959(3) 0.3684(3) 0.6705(3)
H41_10 H 0.2882 0.3439 0.6569
C52_10 C 0.2740(3) 0.3867(3) 0.7003(3)
H42_8 H 0.2475 0.3791 0.7097
C53_10 C 0.3305(2) 0.41887(19) 0.68999(19)
H43_10 H 0.3519 0.4384 0.6925
C54_10 C 0.2887(2) 0.4442(2) 0.74780(19)
C55_10 C 0.3139(2) 0.4775(2) 0.75563(19)
H44_10 H 0.3366 0.4831 0.7383
N21_6 N 0.33019(17) 0.38970(18) 0.66293(16)
N22_10 N 0.29716(16) 0.41810(18) 0.71396(16)
C56_10 C 0.1705(3) 0.4541(3) 0.8816(3)
H45_10 H 0.1569 0.4618 0.9061
C57_10 C 0.2003(3) 0.4760(3) 0.8633(3)
H46_10 H 0.2097 0.5025 0.8709
C58_10 C 0.18999(19) 0.4195(2) 0.83113(19)
H47_10 H 0.1925 0.3981 0.8116
C59_10 C 0.24780(19) 0.4613(2) 0.8058(2)
C60_10 C 0.25563(19) 0.4361(2) 0.7725(2)
H48_10 H 0.2383 0.4134 0.7669
N23_6 N 0.16293(16) 0.41981(17) 0.86030(18)
N24_10 N 0.21396(16) 0.45284(16) 0.83190(18)
Zn4_6 Zn 0.1250 0.3750 0.8750
Zn6_6 Zn 0.3750 0.3750 0.6250
N25_8 N 0.33019(17) 0.66293(16) 0.88970(18)
N26_14 N 0.66293(16) 0.36030(18) 0.91981(17)
N27_8 N 0.41981(17) 0.66293(16) 0.86030(18)
N28_14 N 0.66293(16) 0.38970(18) 0.83019(17)
N29_8 N 0.41981(17) 0.08707(16) 0.88970(18)
N30_8 N 0.33019(17) 0.08707(16) 0.86030(18)
N29_9 N 0.16293(16) 0.86030(18) 0.91981(17)
N30_9 N 0.16293(16) 0.88970(18) 0.83019(17)
N26_15 N 0.88970(18) 0.83019(17) 0.16293(16)
N28_15 N 0.86030(18) 0.91981(17) 0.16293(16)
N26_16 N 0.88970(18) 0.91981(17) 0.58707(16)
N28_16 N 0.86030(18) 0.83019(17) 0.58707(16)
Zn1_7 Zn 0.3750 0.1250 0.3750
C1_11 C 0.3816(3) 0.0795(3) 0.2959(3)
H1_11 H 0.4061 0.0931 0.2882
C2_11 C 0.3633(3) 0.0497(3) 0.2740(3)
H2_11 H 0.3709 0.0403 0.2475
C3_11 C 0.33113(19) 0.06001(19) 0.3305(2)
H3_11 H 0.3116 0.0575 0.3519
C4_11 C 0.3058(2) 0.00220(19) 0.2887(2)
H4_11 H 0.2669 0.0117 0.3366
N1_7 N 0.36030(18) 0.08707(16) 0.33019(17)
N2_11 N 0.33190(18) 0.03604(16) 0.29716(16)
H10_11 H 0.2097 0.0025 0.3709
C16_11 C 0.3684(3) 0.0795(3) 0.4541(3)
H13_11 H 0.3439 0.0931 0.4618
C17_11 C 0.3867(3) 0.0497(3) 0.4760(3)
H14_11 H 0.3791 0.0403 0.5025
C18_11 C 0.41887(19) 0.06001(19) 0.4195(2)
H15_11 H 0.4384 0.0575 0.3981
C19_11 C 0.4442(2) 0.00220(19) 0.4613(2)
H16_11 H 0.4831 0.0117 0.4134
N7_7 N 0.38970(18) 0.08707(16) 0.41981(17)
N8_11 N 0.41810(18) 0.03604(16) 0.45284(16)
H22_11 H 0.5403 0.0025 0.3791
N26_17 N 0.41981(17) 0.16293(16) 0.36030(18)
N28_17 N 0.33019(17) 0.16293(16) 0.38970(18)
C5_11 C 0.2725(2) 0.99437(19) 0.3139(2)
C6_11 C 0.2959(3) 0.8684(3) 0.1705(3)
H5_11 H 0.2882 0.8439 0.1569
C7_11 C 0.2740(3) 0.8867(3) 0.2003(3)
H6_11 H 0.2475 0.8791 0.2097
C8_11 C 0.3305(2) 0.91887(19) 0.18999(19)
H7_11 H 0.3519 0.9384 0.1925
C9_11 C 0.2887(2) 0.9442(2) 0.24780(19)
C10_11 C 0.3139(2) 0.9775(2) 0.25563(19)
H8_11 H 0.3366 0.9831 0.2383
N3_7 N 0.33019(17) 0.88970(18) 0.16293(16)
N4_11 N 0.29716(16) 0.91810(18) 0.21396(16)
C11_11 C 0.1705(3) 0.9541(3) 0.3816(3)
H9_11 H 0.1569 0.9618 0.4061
C12_11 C 0.2003(3) 0.9760(3) 0.3633(3)
C13_11 C 0.18999(19) 0.9195(2) 0.33113(19)
H11_11 H 0.1925 0.8981 0.3116
C14_11 C 0.24780(19) 0.9613(2) 0.3058(2)
C15_11 C 0.25563(19) 0.9361(2) 0.2725(2)
H12_11 H 0.2383 0.9134 0.2669
N5_7 N 0.16293(16) 0.91981(17) 0.36030(18)
N6_11 N 0.21396(16) 0.95284(16) 0.33190(18)
C20_11 C 0.4775(2) 0.99437(19) 0.4361(2)
C21_11 C 0.4541(3) 0.8684(3) 0.5795(3)
H17_11 H 0.4618 0.8439 0.5931
C22_11 C 0.4760(3) 0.8867(3) 0.5497(3)
H18_11 H 0.5025 0.8791 0.5403
C23_11 C 0.4195(2) 0.91887(19) 0.56001(19)
H19_11 H 0.3981 0.9384 0.5575
C24_11 C 0.4613(2) 0.9442(2) 0.50220(19)
C25_11 C 0.4361(2) 0.9775(2) 0.49437(19)
H20_11 H 0.4134 0.9831 0.5117
N9_7 N 0.41981(17) 0.88970(18) 0.58707(16)
N10_11 N 0.45284(16) 0.91810(18) 0.53604(16)
C26_11 C 0.5795(3) 0.9541(3) 0.3684(3)
H21_11 H 0.5931 0.9618 0.3439
C27_11 C 0.5497(3) 0.9760(3) 0.3867(3)
C28_11 C 0.56001(19) 0.9195(2) 0.41887(19)
H23_11 H 0.5575 0.8981 0.4384
C29_11 C 0.50220(19) 0.9613(2) 0.4442(2)
C30_11 C 0.49437(19) 0.9361(2) 0.4775(2)
H24_11 H 0.5117 0.9134 0.4831
N11_7 N 0.58707(16) 0.91981(17) 0.38970(18)
N12_11 N 0.53604(16) 0.95284(16) 0.41810(18)
Zn2_7 Zn 0.3750 0.8750 0.1250
C31_11 C 0.4541(3) 0.8816(3) 0.1705(3)
H25_11 H 0.4618 0.9061 0.1569
C32_11 C 0.4760(3) 0.8633(3) 0.2003(3)
H26_9 H 0.5025 0.8709 0.2097
C33_11 C 0.4195(2) 0.83113(19) 0.18999(19)
H27_11 H 0.3981 0.8116 0.1925
C34_11 C 0.4613(2) 0.8058(2) 0.24780(19)
C35_11 C 0.4361(2) 0.7725(2) 0.25563(19)
H28_11 H 0.4134 0.7669 0.2383
N13_7 N 0.41981(17) 0.86030(18) 0.16293(16)
N14_11 N 0.45284(16) 0.83190(18) 0.21396(16)
C36_11 C 0.5795(3) 0.7959(3) 0.3816(3)
H29_11 H 0.5931 0.7882 0.4061
C37_11 C 0.5497(3) 0.7740(3) 0.3633(3)
H30_10 H 0.5403 0.7475 0.3709
C38_11 C 0.56001(19) 0.8305(2) 0.33113(19)
H31_11 H 0.5575 0.8519 0.3116
C39_11 C 0.50220(19) 0.7887(2) 0.3058(2)
C40_11 C 0.49437(19) 0.8139(2) 0.2725(2)
H32_11 H 0.5117 0.8366 0.2669
N15_7 N 0.58707(16) 0.83019(17) 0.36030(18)
N16_11 N 0.53604(16) 0.79716(16) 0.33190(18)
C41_11 C 0.3684(3) 0.6705(3) 0.2959(3)
H33_11 H 0.3439 0.6569 0.2882
C42_11 C 0.3867(3) 0.7003(3) 0.2740(3)
H34_10 H 0.3791 0.7097 0.2475
C43_11 C 0.41887(19) 0.68999(19) 0.3305(2)
H35_11 H 0.4384 0.6925 0.3519
C44_11 C 0.4442(2) 0.74780(19) 0.2887(2)
C45_11 C 0.4775(2) 0.75563(19) 0.3139(2)
H36_11 H 0.4831 0.7383 0.3366
N17_7 N 0.38970(18) 0.66293(16) 0.33019(17)
N18_11 N 0.41810(18) 0.71396(16) 0.29716(16)
Zn3_7 Zn 0.3750 0.8750 0.6250
C46_11 C 0.2959(3) 0.8816(3) 0.5795(3)
H37_11 H 0.2882 0.9061 0.5931
C47_11 C 0.2740(3) 0.8633(3) 0.5497(3)
H38_11 H 0.2475 0.8709 0.5403
C48_11 C 0.3305(2) 0.83113(19) 0.56001(19)
H39_11 H 0.3519 0.8116 0.5575
C49_11 C 0.2887(2) 0.8058(2) 0.50220(19)
C50_11 C 0.3139(2) 0.7725(2) 0.49437(19)
H40_11 H 0.3366 0.7669 0.5117
N19_7 N 0.33019(17) 0.86030(18) 0.58707(16)
N20_11 N 0.29716(16) 0.83190(18) 0.53604(16)
C51_11 C 0.1705(3) 0.7959(3) 0.3684(3)
H41_11 H 0.1569 0.7882 0.3439
C52_11 C 0.2003(3) 0.7740(3) 0.3867(3)
H42_9 H 0.2097 0.7475 0.3791
C53_11 C 0.18999(19) 0.8305(2) 0.41887(19)
H43_11 H 0.1925 0.8519 0.4384
C54_11 C 0.24780(19) 0.7887(2) 0.4442(2)
C55_11 C 0.25563(19) 0.8139(2) 0.4775(2)
H44_11 H 0.2383 0.8366 0.4831
N21_7 N 0.16293(16) 0.83019(17) 0.38970(18)
N22_11 N 0.21396(16) 0.79716(16) 0.41810(18)
C56_11 C 0.3816(3) 0.6705(3) 0.4541(3)
H45_11 H 0.4061 0.6569 0.4618
C57_11 C 0.3633(3) 0.7003(3) 0.4760(3)
H46_11 H 0.3709 0.7097 0.5025
C58_11 C 0.33113(19) 0.68999(19) 0.4195(2)
H47_11 H 0.3116 0.6925 0.3981
C59_11 C 0.3058(2) 0.74780(19) 0.4613(2)
C60_11 C 0.2725(2) 0.75563(19) 0.4361(2)
H48_11 H 0.2669 0.7383 0.4134
N23_7 N 0.36030(18) 0.66293(16) 0.41981(17)
N24_11 N 0.33190(18) 0.71396(16) 0.45284(16)
Zn4_7 Zn 0.3750 0.6250 0.3750
Zn5_7 Zn 0.6250 0.8750 0.3750
Zn6_7 Zn 0.1250 0.8750 0.3750
N25_9 N 0.38970(18) 0.83019(17) 0.66293(16)
N27_9 N 0.36030(18) 0.91981(17) 0.66293(16)
N29_10 N 0.38970(18) 0.91981(17) 0.08707(16)
N30_10 N 0.36030(18) 0.83019(17) 0.08707(16)
H6_12 H 0.0025 0.3791 0.5403
C11_12 C 0.0795(3) 0.4541(3) 0.3684(3)
H9_12 H 0.0931 0.4618 0.3439
C12_12 C 0.0497(3) 0.4760(3) 0.3867(3)
H10_12 H 0.0403 0.5025 0.3791
C13_12 C 0.06001(19) 0.4195(2) 0.41887(19)
H11_12 H 0.0575 0.3981 0.4384
C14_12 C 0.00220(19) 0.4613(2) 0.4442(2)
H12_12 H 0.0117 0.4134 0.4831
N5_8 N 0.08707(16) 0.41981(17) 0.38970(18)
N6_12 N 0.03604(16) 0.45284(16) 0.41810(18)
H38_12 H 0.0025 0.3709 0.2097
C51_12 C 0.0795(3) 0.2959(3) 0.3816(3)
H41_12 H 0.0931 0.2882 0.4061
C52_12 C 0.0497(3) 0.2740(3) 0.3633(3)
H42_10 H 0.0403 0.2475 0.3709
C53_12 C 0.06001(19) 0.3305(2) 0.33113(19)
H43_12 H 0.0575 0.3519 0.3116
C54_12 C 0.00220(19) 0.2887(2) 0.3058(2)
H44_12 H 0.0117 0.3366 0.2669
N21_8 N 0.08707(16) 0.33019(17) 0.36030(18)
N22_12 N 0.03604(16) 0.29716(16) 0.33190(18)
Zn6_8 Zn 0.1250 0.3750 0.3750
Zn1_8 Zn 0.8750 0.6250 0.3750
C1_12 C 0.8684(3) 0.5795(3) 0.4541(3)
H1_12 H 0.8439 0.5931 0.4618
C2_12 C 0.8867(3) 0.5497(3) 0.4760(3)
H2_12 H 0.8791 0.5403 0.5025
C3_12 C 0.91887(19) 0.56001(19) 0.4195(2)
H3_12 H 0.9384 0.5575 0.3981
C4_12 C 0.9442(2) 0.50220(19) 0.4613(2)
C5_12 C 0.9775(2) 0.49437(19) 0.4361(2)
H4_12 H 0.9831 0.5117 0.4134
N1_8 N 0.88970(18) 0.58707(16) 0.41981(17)
N2_12 N 0.91810(18) 0.53604(16) 0.45284(16)
C6_12 C 0.9541(3) 0.3684(3) 0.5795(3)
H5_12 H 0.9618 0.3439 0.5931
C7_12 C 0.9760(3) 0.3867(3) 0.5497(3)
C8_12 C 0.9195(2) 0.41887(19) 0.56001(19)
H7_12 H 0.8981 0.4384 0.5575
C9_12 C 0.9613(2) 0.4442(2) 0.50220(19)
C10_12 C 0.9361(2) 0.4775(2) 0.49437(19)
H8_12 H 0.9134 0.4831 0.5117
N3_8 N 0.91981(17) 0.38970(18) 0.58707(16)
N4_12 N 0.95284(16) 0.41810(18) 0.53604(16)
C15_12 C 0.99437(19) 0.4361(2) 0.4775(2)
C16_12 C 0.8816(3) 0.5795(3) 0.2959(3)
H13_12 H 0.9061 0.5931 0.2882
C17_12 C 0.8633(3) 0.5497(3) 0.2740(3)
H14_12 H 0.8709 0.5403 0.2475
C18_12 C 0.83113(19) 0.56001(19) 0.3305(2)
H15_12 H 0.8116 0.5575 0.3519
C19_12 C 0.8058(2) 0.50220(19) 0.2887(2)
C20_12 C 0.7725(2) 0.49437(19) 0.3139(2)
H16_12 H 0.7669 0.5117 0.3366
N7_8 N 0.86030(18) 0.58707(16) 0.33019(17)
N8_12 N 0.83190(18) 0.53604(16) 0.29716(16)
C21_12 C 0.7959(3) 0.3684(3) 0.1705(3)
H17_12 H 0.7882 0.3439 0.1569
C22_12 C 0.7740(3) 0.3867(3) 0.2003(3)
H18_12 H 0.7475 0.3791 0.2097
C23_12 C 0.8305(2) 0.41887(19) 0.18999(19)
H19_12 H 0.8519 0.4384 0.1925
C24_12 C 0.7887(2) 0.4442(2) 0.24780(19)
C25_12 C 0.8139(2) 0.4775(2) 0.25563(19)
H20_12 H 0.8366 0.4831 0.2383
N9_8 N 0.83019(17) 0.38970(18) 0.16293(16)
N10_12 N 0.79716(16) 0.41810(18) 0.21396(16)
C26_12 C 0.6705(3) 0.4541(3) 0.3816(3)
H21_12 H 0.6569 0.4618 0.4061
C27_12 C 0.7003(3) 0.4760(3) 0.3633(3)
H22_12 H 0.7097 0.5025 0.3709
C28_12 C 0.68999(19) 0.4195(2) 0.33113(19)
H23_12 H 0.6925 0.3981 0.3116
C29_12 C 0.74780(19) 0.4613(2) 0.3058(2)
C30_12 C 0.75563(19) 0.4361(2) 0.2725(2)
H24_12 H 0.7383 0.4134 0.2669
N11_8 N 0.66293(16) 0.41981(17) 0.36030(18)
N12_12 N 0.71396(16) 0.45284(16) 0.33190(18)
Zn2_8 Zn 0.8750 0.3750 0.6250
C31_12 C 0.7959(3) 0.3816(3) 0.5795(3)
H25_12 H 0.7882 0.4061 0.5931
C32_12 C 0.7740(3) 0.3633(3) 0.5497(3)
H26_10 H 0.7475 0.3709 0.5403
C33_12 C 0.8305(2) 0.33113(19) 0.56001(19)
H27_12 H 0.8519 0.3116 0.5575
C34_12 C 0.7887(2) 0.3058(2) 0.50220(19)
C35_12 C 0.8139(2) 0.2725(2) 0.49437(19)
H28_12 H 0.8366 0.2669 0.5117
N13_8 N 0.83019(17) 0.36030(18) 0.58707(16)
N14_12 N 0.79716(16) 0.33190(18) 0.53604(16)
C36_12 C 0.6705(3) 0.2959(3) 0.3684(3)
H29_12 H 0.6569 0.2882 0.3439
C37_12 C 0.7003(3) 0.2740(3) 0.3867(3)
H30_11 H 0.7097 0.2475 0.3791
C38_12 C 0.68999(19) 0.3305(2) 0.41887(19)
H31_12 H 0.6925 0.3519 0.4384
C39_12 C 0.74780(19) 0.2887(2) 0.4442(2)
C40_12 C 0.75563(19) 0.3139(2) 0.4775(2)
H32_12 H 0.7383 0.3366 0.4831
N15_8 N 0.66293(16) 0.33019(17) 0.38970(18)
N16_12 N 0.71396(16) 0.29716(16) 0.41810(18)
C41_12 C 0.8816(3) 0.1705(3) 0.4541(3)
H33_12 H 0.9061 0.1569 0.4618
C42_12 C 0.8633(3) 0.2003(3) 0.4760(3)
H34_11 H 0.8709 0.2097 0.5025
C43_12 C 0.83113(19) 0.18999(19) 0.4195(2)
H35_12 H 0.8116 0.1925 0.3981
C44_12 C 0.8058(2) 0.24780(19) 0.4613(2)
C45_12 C 0.7725(2) 0.25563(19) 0.4361(2)
H36_12 H 0.7669 0.2383 0.4134
N17_8 N 0.86030(18) 0.16293(16) 0.41981(17)
N18_12 N 0.83190(18) 0.21396(16) 0.45284(16)
Zn3_8 Zn 0.8750 0.3750 0.1250
C46_12 C 0.9541(3) 0.3816(3) 0.1705(3)
H37_12 H 0.9618 0.4061 0.1569
C47_12 C 0.9760(3) 0.3633(3) 0.2003(3)
C48_12 C 0.9195(2) 0.33113(19) 0.18999(19)
H39_12 H 0.8981 0.3116 0.1925
C49_12 C 0.9613(2) 0.3058(2) 0.24780(19)
C50_12 C 0.9361(2) 0.2725(2) 0.25563(19)
H40_12 H 0.9134 0.2669 0.2383
N19_8 N 0.91981(17) 0.36030(18) 0.16293(16)
N20_12 N 0.95284(16) 0.33190(18) 0.21396(16)
C55_12 C 0.99437(19) 0.3139(2) 0.2725(2)
C56_12 C 0.8684(3) 0.1705(3) 0.2959(3)
H45_12 H 0.8439 0.1569 0.2882
C57_12 C 0.8867(3) 0.2003(3) 0.2740(3)
H46_12 H 0.8791 0.2097 0.2475
C58_12 C 0.91887(19) 0.18999(19) 0.3305(2)
H47_12 H 0.9384 0.1925 0.3519
C59_12 C 0.9442(2) 0.24780(19) 0.2887(2)
C60_12 C 0.9775(2) 0.25563(19) 0.3139(2)
H48_12 H 0.9831 0.2383 0.3366
N23_8 N 0.88970(18) 0.16293(16) 0.33019(17)
N24_12 N 0.91810(18) 0.21396(16) 0.29716(16)
Zn4_8 Zn 0.8750 0.1250 0.3750
Zn5_8 Zn 0.6250 0.3750 0.3750
N25_10 N 0.86030(18) 0.33019(17) 0.08707(16)
N26_18 N 0.83019(17) 0.66293(16) 0.38970(18)
N27_10 N 0.88970(18) 0.41981(17) 0.08707(16)
N28_18 N 0.91981(17) 0.66293(16) 0.36030(18)
N29_11 N 0.86030(18) 0.41981(17) 0.66293(16)
N30_11 N 0.88970(18) 0.33019(17) 0.66293(16)
N26_19 N 0.58707(16) 0.36030(18) 0.33019(17)
N28_19 N 0.58707(16) 0.38970(18) 0.41981(17)
N29_12 N 0.83019(17) 0.08707(16) 0.36030(18)
N30_12 N 0.91981(17) 0.08707(16) 0.38970(18)
N26_20 N 0.36030(18) 0.41981(17) 0.16293(16)
N28_20 N 0.38970(18) 0.33019(17) 0.16293(16)
N29_13 N 0.08707(16) 0.38970(18) 0.91981(17)
N30_13 N 0.08707(16) 0.36030(18) 0.83019(17)
N25_11 N 0.66293(16) 0.86030(18) 0.41981(17)
N27_11 N 0.66293(16) 0.88970(18) 0.33019(17)
N29_14 N 0.08707(16) 0.86030(18) 0.33019(17)
N30_14 N 0.08707(16) 0.88970(18) 0.41981(17)
N26_21 N 0.41981(17) 0.58707(16) 0.38970(18)
N28_21 N 0.33019(17) 0.58707(16) 0.36030(18)
N29_15 N 0.16293(16) 0.36030(18) 0.41981(17)
N30_15 N 0.16293(16) 0.38970(18) 0.33019(17)
N29_16 N 0.38970(18) 0.41981(17) 0.58707(16)
N30_16 N 0.36030(18) 0.33019(17) 0.58707(16)
H30_12 H 0.3709 0.0025 0.7097
C41_13 C 0.2959(3) 0.0795(3) 0.8816(3)
H33_13 H 0.2882 0.0931 0.9061
C42_13 C 0.2740(3) 0.0497(3) 0.8633(3)
H34_12 H 0.2475 0.0403 0.8709
C43_13 C 0.3305(2) 0.06001(19) 0.83113(19)
H35_13 H 0.3519 0.0575 0.8116
C44_13 C 0.2887(2) 0.00220(19) 0.8058(2)
H36_13 H 0.3366 0.0117 0.7669
N18_13 N 0.29716(16) 0.03604(16) 0.83190(18)
C56_13 C 0.4541(3) 0.0795(3) 0.8684(3)
H45_13 H 0.4618 0.0931 0.8439
C57_13 C 0.4760(3) 0.0497(3) 0.8867(3)
H46_13 H 0.5025 0.0403 0.8791
C58_13 C 0.4195(2) 0.06001(19) 0.91887(19)
H47_13 H 0.3981 0.0575 0.9384
C59_13 C 0.4613(2) 0.00220(19) 0.9442(2)
H48_13 H 0.4134 0.0117 0.9831
N24_13 N 0.45284(16) 0.03604(16) 0.91810(18)
H6_13 H 0.2097 0.8709 0.0025
C11_13 C 0.3816(3) 0.7959(3) 0.0795(3)
H9_13 H 0.4061 0.7882 0.0931
C12_13 C 0.3633(3) 0.7740(3) 0.0497(3)
H10_13 H 0.3709 0.7475 0.0403
C13_13 C 0.33113(19) 0.8305(2) 0.06001(19)
H11_13 H 0.3116 0.8519 0.0575
C14_13 C 0.3058(2) 0.7887(2) 0.00220(19)
H12_13 H 0.2669 0.8366 0.0117
N6_13 N 0.33190(18) 0.79716(16) 0.03604(16)
H38_13 H 0.5403 0.8791 0.0025
C51_13 C 0.3684(3) 0.9541(3) 0.0795(3)
H41_13 H 0.3439 0.9618 0.0931
C52_13 C 0.3867(3) 0.9760(3) 0.0497(3)
C53_13 C 0.41887(19) 0.9195(2) 0.06001(19)
H43_13 H 0.4384 0.8981 0.0575
C54_13 C 0.4442(2) 0.9613(2) 0.00220(19)
H44_13 H 0.4831 0.9134 0.0117
N22_13 N 0.41810(18) 0.95284(16) 0.03604(16)
C1_13 C 0.2959(3) 0.6705(3) 0.8684(3)
H1_13 H 0.2882 0.6569 0.8439
C2_13 C 0.2740(3) 0.7003(3) 0.8867(3)
H2_13 H 0.2475 0.7097 0.8791
C3_13 C 0.3305(2) 0.68999(19) 0.91887(19)
H3_13 H 0.3519 0.6925 0.9384
C4_13 C 0.2887(2) 0.74780(19) 0.9442(2)
C5_13 C 0.3139(2) 0.75563(19) 0.9775(2)
H4_13 H 0.3366 0.7383 0.9831
N2_13 N 0.29716(16) 0.71396(16) 0.91810(18)
C6_13 C 0.1705(3) 0.8816(3) 0.9541(3)
H5_13 H 0.1569 0.9061 0.9618
C7_13 C 0.2003(3) 0.8633(3) 0.9760(3)
C8_13 C 0.18999(19) 0.83113(19) 0.9195(2)
H7_13 H 0.1925 0.8116 0.8981
C9_13 C 0.24780(19) 0.8058(2) 0.9613(2)
C10_13 C 0.25563(19) 0.7725(2) 0.9361(2)
H8_13 H 0.2383 0.7669 0.9134
N4_13 N 0.21396(16) 0.83190(18) 0.95284(16)
C15_13 C 0.2725(2) 0.8139(2) 0.99437(19)
C16_13 C 0.4541(3) 0.6705(3) 0.8816(3)
H13_13 H 0.4618 0.6569 0.9061
C17_13 C 0.4760(3) 0.7003(3) 0.8633(3)
H14_13 H 0.5025 0.7097 0.8709
C18_13 C 0.4195(2) 0.68999(19) 0.83113(19)
H15_13 H 0.3981 0.6925 0.8116
C19_13 C 0.4613(2) 0.74780(19) 0.8058(2)
C20_13 C 0.4361(2) 0.75563(19) 0.7725(2)
H16_13 H 0.4134 0.7383 0.7669
N8_13 N 0.45284(16) 0.71396(16) 0.83190(18)
C21_13 C 0.5795(3) 0.8816(3) 0.7959(3)
H17_13 H 0.5931 0.9061 0.7882
C22_13 C 0.5497(3) 0.8633(3) 0.7740(3)
H18_13 H 0.5403 0.8709 0.7475
C23_13 C 0.56001(19) 0.83113(19) 0.8305(2)
H19_13 H 0.5575 0.8116 0.8519
C24_13 C 0.50220(19) 0.8058(2) 0.7887(2)
C25_13 C 0.49437(19) 0.7725(2) 0.8139(2)
H20_13 H 0.5117 0.7669 0.8366
N10_13 N 0.53604(16) 0.83190(18) 0.79716(16)
C26_13 C 0.3684(3) 0.7959(3) 0.6705(3)
H21_13 H 0.3439 0.7882 0.6569
C27_13 C 0.3867(3) 0.7740(3) 0.7003(3)
H22_13 H 0.3791 0.7475 0.7097
C28_13 C 0.41887(19) 0.8305(2) 0.68999(19)
H23_13 H 0.4384 0.8519 0.6925
C29_13 C 0.4442(2) 0.7887(2) 0.74780(19)
C30_13 C 0.4775(2) 0.8139(2) 0.75563(19)
H24_13 H 0.4831 0.8366 0.7383
N12_13 N 0.41810(18) 0.79716(16) 0.71396(16)
C31_13 C 0.1705(3) 0.8684(3) 0.7959(3)
H25_13 H 0.1569 0.8439 0.7882
C32_13 C 0.2003(3) 0.8867(3) 0.7740(3)
H26_11 H 0.2097 0.8791 0.7475
C33_13 C 0.18999(19) 0.91887(19) 0.8305(2)
H27_13 H 0.1925 0.9384 0.8519
C34_13 C 0.24780(19) 0.9442(2) 0.7887(2)
C35_13 C 0.25563(19) 0.9775(2) 0.8139(2)
H28_13 H 0.2383 0.9831 0.8366
N14_13 N 0.21396(16) 0.91810(18) 0.79716(16)
C36_13 C 0.3816(3) 0.9541(3) 0.6705(3)
H29_13 H 0.4061 0.9618 0.6569
C37_13 C 0.3633(3) 0.9760(3) 0.7003(3)
C38_13 C 0.33113(19) 0.9195(2) 0.68999(19)
H31_13 H 0.3116 0.8981 0.6925
C39_13 C 0.3058(2) 0.9613(2) 0.74780(19)
C40_13 C 0.2725(2) 0.9361(2) 0.75563(19)
H32_13 H 0.2669 0.9134 0.7383
N16_13 N 0.33190(18) 0.95284(16) 0.71396(16)
C45_13 C 0.3139(2) 0.99437(19) 0.7725(2)
C46_13 C 0.5795(3) 0.8684(3) 0.9541(3)
H37_13 H 0.5931 0.8439 0.9618
C47_13 C 0.5497(3) 0.8867(3) 0.9760(3)
C48_13 C 0.56001(19) 0.91887(19) 0.9195(2)
H39_13 H 0.5575 0.9384 0.8981
C49_13 C 0.50220(19) 0.9442(2) 0.9613(2)
C50_13 C 0.49437(19) 0.9775(2) 0.9361(2)
H40_13 H 0.5117 0.9831 0.9134
N20_13 N 0.53604(16) 0.91810(18) 0.95284(16)
C55_13 C 0.4775(2) 0.9361(2) 0.99437(19)
C60_13 C 0.4361(2) 0.99437(19) 0.9775(2)
H6_14 H 0.0025 0.2097 0.8709
C11_14 C 0.0795(3) 0.3816(3) 0.7959(3)
H9_14 H 0.0931 0.4061 0.7882
C12_14 C 0.0497(3) 0.3633(3) 0.7740(3)
H10_14 H 0.0403 0.3709 0.7475
C13_14 C 0.06001(19) 0.33113(19) 0.8305(2)
H11_14 H 0.0575 0.3116 0.8519
C14_14 C 0.00220(19) 0.3058(2) 0.7887(2)
H12_14 H 0.0117 0.2669 0.8366
N6_14 N 0.03604(16) 0.33190(18) 0.79716(16)
H38_14 H 0.0025 0.5403 0.8791
C51_14 C 0.0795(3) 0.3684(3) 0.9541(3)
H41_14 H 0.0931 0.3439 0.9618
C52_14 C 0.0497(3) 0.3867(3) 0.9760(3)
C53_14 C 0.06001(19) 0.41887(19) 0.9195(2)
H43_14 H 0.0575 0.4384 0.8981
C54_14 C 0.00220(19) 0.4442(2) 0.9613(2)
H44_14 H 0.0117 0.4831 0.9134
N22_14 N 0.03604(16) 0.41810(18) 0.95284(16)
H30_13 H 0.7097 0.3709 0.0025
C41_14 C 0.8816(3) 0.2959(3) 0.0795(3)
H33_14 H 0.9061 0.2882 0.0931
C42_14 C 0.8633(3) 0.2740(3) 0.0497(3)
H34_13 H 0.8709 0.2475 0.0403
C43_14 C 0.83113(19) 0.3305(2) 0.06001(19)
H35_14 H 0.8116 0.3519 0.0575
C44_14 C 0.8058(2) 0.2887(2) 0.00220(19)
H36_14 H 0.7669 0.3366 0.0117
N18_14 N 0.83190(18) 0.29716(16) 0.03604(16)
C56_14 C 0.8684(3) 0.4541(3) 0.0795(3)
H45_14 H 0.8439 0.4618 0.0931
C57_14 C 0.8867(3) 0.4760(3) 0.0497(3)
H46_14 H 0.8791 0.5025 0.0403
C58_14 C 0.91887(19) 0.4195(2) 0.06001(19)
H47_14 H 0.9384 0.3981 0.0575
C59_14 C 0.9442(2) 0.4613(2) 0.00220(19)
H48_14 H 0.9831 0.4134 0.0117
N24_14 N 0.91810(18) 0.45284(16) 0.03604(16)
C1_14 C 0.8684(3) 0.2959(3) 0.6705(3)
H1_14 H 0.8439 0.2882 0.6569
C2_14 C 0.8867(3) 0.2740(3) 0.7003(3)
H2_14 H 0.8791 0.2475 0.7097
C3_14 C 0.91887(19) 0.3305(2) 0.68999(19)
H3_14 H 0.9384 0.3519 0.6925
C4_14 C 0.9442(2) 0.2887(2) 0.74780(19)
C5_14 C 0.9775(2) 0.3139(2) 0.75563(19)
H4_14 H 0.9831 0.3366 0.7383
N2_14 N 0.91810(18) 0.29716(16) 0.71396(16)
C6_14 C 0.9541(3) 0.1705(3) 0.8816(3)
H5_14 H 0.9618 0.1569 0.9061
C7_14 C 0.9760(3) 0.2003(3) 0.8633(3)
C8_14 C 0.9195(2) 0.18999(19) 0.83113(19)
H7_14 H 0.8981 0.1925 0.8116
C9_14 C 0.9613(2) 0.24780(19) 0.8058(2)
C10_14 C 0.9361(2) 0.25563(19) 0.7725(2)
H8_14 H 0.9134 0.2383 0.7669
N4_14 N 0.95284(16) 0.21396(16) 0.83190(18)
C15_14 C 0.99437(19) 0.2725(2) 0.8139(2)
C16_14 C 0.8816(3) 0.4541(3) 0.6705(3)
H13_14 H 0.9061 0.4618 0.6569
C17_14 C 0.8633(3) 0.4760(3) 0.7003(3)
H14_14 H 0.8709 0.5025 0.7097
C18_14 C 0.83113(19) 0.4195(2) 0.68999(19)
H15_14 H 0.8116 0.3981 0.6925
C19_14 C 0.8058(2) 0.4613(2) 0.74780(19)
C20_14 C 0.7725(2) 0.4361(2) 0.75563(19)
H16_14 H 0.7669 0.4134 0.7383
N8_14 N 0.83190(18) 0.45284(16) 0.71396(16)
C21_14 C 0.7959(3) 0.5795(3) 0.8816(3)
H17_14 H 0.7882 0.5931 0.9061
C22_14 C 0.7740(3) 0.5497(3) 0.8633(3)
H18_14 H 0.7475 0.5403 0.8709
C23_14 C 0.8305(2) 0.56001(19) 0.83113(19)
H19_14 H 0.8519 0.5575 0.8116
C24_14 C 0.7887(2) 0.50220(19) 0.8058(2)
C25_14 C 0.8139(2) 0.49437(19) 0.7725(2)
H20_14 H 0.8366 0.5117 0.7669
N10_14 N 0.79716(16) 0.53604(16) 0.83190(18)
C26_14 C 0.6705(3) 0.3684(3) 0.7959(3)
H21_14 H 0.6569 0.3439 0.7882
C27_14 C 0.7003(3) 0.3867(3) 0.7740(3)
H22_14 H 0.7097 0.3791 0.7475
C28_14 C 0.68999(19) 0.41887(19) 0.8305(2)
H23_14 H 0.6925 0.4384 0.8519
C29_14 C 0.74780(19) 0.4442(2) 0.7887(2)
C30_14 C 0.75563(19) 0.4775(2) 0.8139(2)
H24_14 H 0.7383 0.4831 0.8366
N12_14 N 0.71396(16) 0.41810(18) 0.79716(16)
C31_14 C 0.7959(3) 0.1705(3) 0.8684(3)
H25_14 H 0.7882 0.1569 0.8439
C32_14 C 0.7740(3) 0.2003(3) 0.8867(3)
H26_12 H 0.7475 0.2097 0.8791
C33_14 C 0.8305(2) 0.18999(19) 0.91887(19)
H27_14 H 0.8519 0.1925 0.9384
C34_14 C 0.7887(2) 0.24780(19) 0.9442(2)
C35_14 C 0.8139(2) 0.25563(19) 0.9775(2)
H28_14 H 0.8366 0.2383 0.9831
N14_14 N 0.79716(16) 0.21396(16) 0.91810(18)
C36_14 C 0.6705(3) 0.3816(3) 0.9541(3)
H29_14 H 0.6569 0.4061 0.9618
C37_14 C 0.7003(3) 0.3633(3) 0.9760(3)
C38_14 C 0.68999(19) 0.33113(19) 0.9195(2)
H31_14 H 0.6925 0.3116 0.8981
C39_14 C 0.74780(19) 0.3058(2) 0.9613(2)
C40_14 C 0.75563(19) 0.2725(2) 0.9361(2)
H32_14 H 0.7383 0.2669 0.9134
N16_14 N 0.71396(16) 0.33190(18) 0.95284(16)
C45_14 C 0.7725(2) 0.3139(2) 0.99437(19)
C46_14 C 0.9541(3) 0.5795(3) 0.8684(3)
H37_14 H 0.9618 0.5931 0.8439
C47_14 C 0.9760(3) 0.5497(3) 0.8867(3)
C48_14 C 0.9195(2) 0.56001(19) 0.91887(19)
H39_14 H 0.8981 0.5575 0.9384
C49_14 C 0.9613(2) 0.50220(19) 0.9442(2)
C50_14 C 0.9361(2) 0.49437(19) 0.9775(2)
H40_14 H 0.9134 0.5117 0.9831
N20_14 N 0.95284(16) 0.53604(16) 0.91810(18)
C55_14 C 0.99437(19) 0.4775(2) 0.9361(2)
C60_14 C 0.9775(2) 0.4361(2) 0.99437(19)
H30_14 H 0.0025 0.7097 0.3709
C41_15 C 0.0795(3) 0.8816(3) 0.2959(3)
H33_15 H 0.0931 0.9061 0.2882
C42_15 C 0.0497(3) 0.8633(3) 0.2740(3)
H34_14 H 0.0403 0.8709 0.2475
C43_15 C 0.06001(19) 0.83113(19) 0.3305(2)
H35_15 H 0.0575 0.8116 0.3519
C44_15 C 0.00220(19) 0.8058(2) 0.2887(2)
H36_15 H 0.0117 0.7669 0.3366
N18_15 N 0.03604(16) 0.83190(18) 0.29716(16)
C56_15 C 0.0795(3) 0.8684(3) 0.4541(3)
H45_15 H 0.0931 0.8439 0.4618
C57_15 C 0.0497(3) 0.8867(3) 0.4760(3)
H46_15 H 0.0403 0.8791 0.5025
C58_15 C 0.06001(19) 0.91887(19) 0.4195(2)
H47_15 H 0.0575 0.9384 0.3981
C59_15 C 0.00220(19) 0.9442(2) 0.4613(2)
H48_15 H 0.0117 0.9831 0.4134
N24_15 N 0.03604(16) 0.91810(18) 0.45284(16)
H6_15 H 0.8709 0.0025 0.2097
C11_15 C 0.7959(3) 0.0795(3) 0.3816(3)
H9_15 H 0.7882 0.0931 0.4061
C12_15 C 0.7740(3) 0.0497(3) 0.3633(3)
H10_15 H 0.7475 0.0403 0.3709
C13_15 C 0.8305(2) 0.06001(19) 0.33113(19)
H11_15 H 0.8519 0.0575 0.3116
C14_15 C 0.7887(2) 0.00220(19) 0.3058(2)
H12_15 H 0.8366 0.0117 0.2669
N6_15 N 0.79716(16) 0.03604(16) 0.33190(18)
H38_15 H 0.8791 0.0025 0.5403
C51_15 C 0.9541(3) 0.0795(3) 0.3684(3)
H41_15 H 0.9618 0.0931 0.3439
C52_15 C 0.9760(3) 0.0497(3) 0.3867(3)
C53_15 C 0.9195(2) 0.06001(19) 0.41887(19)
H43_15 H 0.8981 0.0575 0.4384
C54_15 C 0.9613(2) 0.00220(19) 0.4442(2)
H44_15 H 0.9134 0.0117 0.4831
N22_15 N 0.95284(16) 0.03604(16) 0.41810(18)
C1_15 C 0.6705(3) 0.8684(3) 0.2959(3)
H1_15 H 0.6569 0.8439 0.2882
C2_15 C 0.7003(3) 0.8867(3) 0.2740(3)
H2_15 H 0.7097 0.8791 0.2475
C3_15 C 0.68999(19) 0.91887(19) 0.3305(2)
H3_15 H 0.6925 0.9384 0.3519
C4_15 C 0.74780(19) 0.9442(2) 0.2887(2)
C5_15 C 0.75563(19) 0.9775(2) 0.3139(2)
H4_15 H 0.7383 0.9831 0.3366
N2_15 N 0.71396(16) 0.91810(18) 0.29716(16)
C6_15 C 0.8816(3) 0.9541(3) 0.1705(3)
H5_15 H 0.9061 0.9618 0.1569
C7_15 C 0.8633(3) 0.9760(3) 0.2003(3)
C8_15 C 0.83113(19) 0.9195(2) 0.18999(19)
H7_15 H 0.8116 0.8981 0.1925
C9_15 C 0.8058(2) 0.9613(2) 0.24780(19)
C10_15 C 0.7725(2) 0.9361(2) 0.25563(19)
H8_15 H 0.7669 0.9134 0.2383
N4_15 N 0.83190(18) 0.95284(16) 0.21396(16)
C15_15 C 0.8139(2) 0.99437(19) 0.2725(2)
C16_15 C 0.6705(3) 0.8816(3) 0.4541(3)
H13_15 H 0.6569 0.9061 0.4618
C17_15 C 0.7003(3) 0.8633(3) 0.4760(3)
H14_15 H 0.7097 0.8709 0.5025
C18_15 C 0.68999(19) 0.83113(19) 0.4195(2)
H15_15 H 0.6925 0.8116 0.3981
C19_15 C 0.74780(19) 0.8058(2) 0.4613(2)
C20_15 C 0.75563(19) 0.7725(2) 0.4361(2)
H16_15 H 0.7383 0.7669 0.4134
N8_15 N 0.71396(16) 0.83190(18) 0.45284(16)
C21_15 C 0.8816(3) 0.7959(3) 0.5795(3)
H17_15 H 0.9061 0.7882 0.5931
C22_15 C 0.8633(3) 0.7740(3) 0.5497(3)
H18_15 H 0.8709 0.7475 0.5403
C23_15 C 0.83113(19) 0.8305(2) 0.56001(19)
H19_15 H 0.8116 0.8519 0.5575
C24_15 C 0.8058(2) 0.7887(2) 0.50220(19)
C25_15 C 0.7725(2) 0.8139(2) 0.49437(19)
H20_15 H 0.7669 0.8366 0.5117
N10_15 N 0.83190(18) 0.79716(16) 0.53604(16)
C26_15 C 0.7959(3) 0.6705(3) 0.3684(3)
H21_15 H 0.7882 0.6569 0.3439
C27_15 C 0.7740(3) 0.7003(3) 0.3867(3)
H22_15 H 0.7475 0.7097 0.3791
C28_15 C 0.8305(2) 0.68999(19) 0.41887(19)
H23_15 H 0.8519 0.6925 0.4384
C29_15 C 0.7887(2) 0.74780(19) 0.4442(2)
C30_15 C 0.8139(2) 0.75563(19) 0.4775(2)
H24_15 H 0.8366 0.7383 0.4831
N12_15 N 0.79716(16) 0.71396(16) 0.41810(18)
C31_15 C 0.8684(3) 0.7959(3) 0.1705(3)
H25_15 H 0.8439 0.7882 0.1569
C32_15 C 0.8867(3) 0.7740(3) 0.2003(3)
H26_13 H 0.8791 0.7475 0.2097
C33_15 C 0.91887(19) 0.8305(2) 0.18999(19)
H27_15 H 0.9384 0.8519 0.1925
C34_15 C 0.9442(2) 0.7887(2) 0.24780(19)
C35_15 C 0.9775(2) 0.8139(2) 0.25563(19)
H28_15 H 0.9831 0.8366 0.2383
N14_15 N 0.91810(18) 0.79716(16) 0.21396(16)
C36_15 C 0.9541(3) 0.6705(3) 0.3816(3)
H29_15 H 0.9618 0.6569 0.4061
C37_15 C 0.9760(3) 0.7003(3) 0.3633(3)
C38_15 C 0.9195(2) 0.68999(19) 0.33113(19)
H31_15 H 0.8981 0.6925 0.3116
C39_15 C 0.9613(2) 0.74780(19) 0.3058(2)
C40_15 C 0.9361(2) 0.75563(19) 0.2725(2)
H32_15 H 0.9134 0.7383 0.2669
N16_15 N 0.95284(16) 0.71396(16) 0.33190(18)
C45_15 C 0.99437(19) 0.7725(2) 0.3139(2)
C46_15 C 0.8684(3) 0.9541(3) 0.5795(3)
H37_15 H 0.8439 0.9618 0.5931
C47_15 C 0.8867(3) 0.9760(3) 0.5497(3)
C48_15 C 0.91887(19) 0.9195(2) 0.56001(19)
H39_15 H 0.9384 0.8981 0.5575
C49_15 C 0.9442(2) 0.9613(2) 0.50220(19)
C50_15 C 0.9775(2) 0.9361(2) 0.49437(19)
H40_15 H 0.9831 0.9134 0.5117
N20_15 N 0.91810(18) 0.95284(16) 0.53604(16)
C55_15 C 0.9361(2) 0.99437(19) 0.4775(2)
C60_15 C 0.99437(19) 0.9775(2) 0.4361(2)
C1_16 C 0.2959(3) 0.1705(3) 0.3684(3)
H1_16 H 0.2882 0.1569 0.3439
C2_16 C 0.2740(3) 0.2003(3) 0.3867(3)
H2_16 H 0.2475 0.2097 0.3791
C3_16 C 0.3305(2) 0.18999(19) 0.41887(19)
H3_16 H 0.3519 0.1925 0.4384
C4_16 C 0.2887(2) 0.24780(19) 0.4442(2)
C5_16 C 0.3139(2) 0.25563(19) 0.4775(2)
H4_16 H 0.3366 0.2383 0.4831
N2_16 N 0.29716(16) 0.21396(16) 0.41810(18)
C6_16 C 0.1705(3) 0.3816(3) 0.4541(3)
H5_16 H 0.1569 0.4061 0.4618
C7_16 C 0.2003(3) 0.3633(3) 0.4760(3)
H6_16 H 0.2097 0.3709 0.5025
C8_16 C 0.18999(19) 0.33113(19) 0.4195(2)
H7_16 H 0.1925 0.3116 0.3981
C9_16 C 0.24780(19) 0.3058(2) 0.4613(2)
C10_16 C 0.25563(19) 0.2725(2) 0.4361(2)
H8_16 H 0.2383 0.2669 0.4134
N4_16 N 0.21396(16) 0.33190(18) 0.45284(16)
C11_16 C 0.3816(3) 0.2959(3) 0.5795(3)
H9_16 H 0.4061 0.2882 0.5931
C12_16 C 0.3633(3) 0.2740(3) 0.5497(3)
H10_16 H 0.3709 0.2475 0.5403
C13_16 C 0.33113(19) 0.3305(2) 0.56001(19)
H11_16 H 0.3116 0.3519 0.5575
C14_16 C 0.3058(2) 0.2887(2) 0.50220(19)
C15_16 C 0.2725(2) 0.3139(2) 0.49437(19)
H12_16 H 0.2669 0.3366 0.5117
N6_16 N 0.33190(18) 0.29716(16) 0.53604(16)
C16_16 C 0.4541(3) 0.1705(3) 0.3816(3)
H13_16 H 0.4618 0.1569 0.4061
C17_16 C 0.4760(3) 0.2003(3) 0.3633(3)
H14_16 H 0.5025 0.2097 0.3709
C18_16 C 0.4195(2) 0.18999(19) 0.33113(19)
H15_16 H 0.3981 0.1925 0.3116
C19_16 C 0.4613(2) 0.24780(19) 0.3058(2)
C20_16 C 0.4361(2) 0.25563(19) 0.2725(2)
H16_16 H 0.4134 0.2383 0.2669
N8_16 N 0.45284(16) 0.21396(16) 0.33190(18)
C21_16 C 0.5795(3) 0.3816(3) 0.2959(3)
H17_16 H 0.5931 0.4061 0.2882
C22_16 C 0.5497(3) 0.3633(3) 0.2740(3)
H18_16 H 0.5403 0.3709 0.2475
C23_16 C 0.56001(19) 0.33113(19) 0.3305(2)
H19_16 H 0.5575 0.3116 0.3519
C24_16 C 0.50220(19) 0.3058(2) 0.2887(2)
C25_16 C 0.49437(19) 0.2725(2) 0.3139(2)
H20_16 H 0.5117 0.2669 0.3366
N10_16 N 0.53604(16) 0.33190(18) 0.29716(16)
C26_16 C 0.3684(3) 0.2959(3) 0.1705(3)
H21_16 H 0.3439 0.2882 0.1569
C27_16 C 0.3867(3) 0.2740(3) 0.2003(3)
H22_16 H 0.3791 0.2475 0.2097
C28_16 C 0.41887(19) 0.3305(2) 0.18999(19)
H23_16 H 0.4384 0.3519 0.1925
C29_16 C 0.4442(2) 0.2887(2) 0.24780(19)
C30_16 C 0.4775(2) 0.3139(2) 0.25563(19)
H24_16 H 0.4831 0.3366 0.2383
N12_16 N 0.41810(18) 0.29716(16) 0.21396(16)
C31_16 C 0.1705(3) 0.3684(3) 0.2959(3)
H25_16 H 0.1569 0.3439 0.2882
C32_16 C 0.2003(3) 0.3867(3) 0.2740(3)
H26_14 H 0.2097 0.3791 0.2475
C33_16 C 0.18999(19) 0.41887(19) 0.3305(2)
H27_16 H 0.1925 0.4384 0.3519
C34_16 C 0.24780(19) 0.4442(2) 0.2887(2)
C35_16 C 0.25563(19) 0.4775(2) 0.3139(2)
H28_16 H 0.2383 0.4831 0.3366
N14_16 N 0.21396(16) 0.41810(18) 0.29716(16)
C36_16 C 0.3816(3) 0.4541(3) 0.1705(3)
H29_16 H 0.4061 0.4618 0.1569
C37_16 C 0.3633(3) 0.4760(3) 0.2003(3)
H30_15 H 0.3709 0.5025 0.2097
C38_16 C 0.33113(19) 0.4195(2) 0.18999(19)
H31_16 H 0.3116 0.3981 0.1925
C39_16 C 0.3058(2) 0.4613(2) 0.24780(19)
C40_16 C 0.2725(2) 0.4361(2) 0.25563(19)
H32_16 H 0.2669 0.4134 0.2383
N16_16 N 0.33190(18) 0.45284(16) 0.21396(16)
C41_16 C 0.2959(3) 0.5795(3) 0.3816(3)
H33_16 H 0.2882 0.5931 0.4061
C42_16 C 0.2740(3) 0.5497(3) 0.3633(3)
H34_15 H 0.2475 0.5403 0.3709
C43_16 C 0.3305(2) 0.56001(19) 0.33113(19)
H35_16 H 0.3519 0.5575 0.3116
C44_16 C 0.2887(2) 0.50220(19) 0.3058(2)
C45_16 C 0.3139(2) 0.49437(19) 0.2725(2)
H36_16 H 0.3366 0.5117 0.2669
N18_16 N 0.29716(16) 0.53604(16) 0.33190(18)
C46_16 C 0.5795(3) 0.3684(3) 0.4541(3)
H37_16 H 0.5931 0.3439 0.4618
C47_16 C 0.5497(3) 0.3867(3) 0.4760(3)
H38_16 H 0.5403 0.3791 0.5025
C48_16 C 0.56001(19) 0.41887(19) 0.4195(2)
H39_16 H 0.5575 0.4384 0.3981
C49_16 C 0.50220(19) 0.4442(2) 0.4613(2)
C50_16 C 0.49437(19) 0.4775(2) 0.4361(2)
H40_16 H 0.5117 0.4831 0.4134
N20_16 N 0.53604(16) 0.41810(18) 0.45284(16)
C51_16 C 0.3684(3) 0.4541(3) 0.5795(3)
H41_16 H 0.3439 0.4618 0.5931
C52_16 C 0.3867(3) 0.4760(3) 0.5497(3)
H42_11 H 0.3791 0.5025 0.5403
C53_16 C 0.41887(19) 0.4195(2) 0.56001(19)
H43_16 H 0.4384 0.3981 0.5575
C54_16 C 0.4442(2) 0.4613(2) 0.50220(19)
C55_16 C 0.4775(2) 0.4361(2) 0.49437(19)
H44_16 H 0.4831 0.4134 0.5117
N22_16 N 0.41810(18) 0.45284(16) 0.53604(16)
C56_16 C 0.4541(3) 0.5795(3) 0.3684(3)
H45_16 H 0.4618 0.5931 0.3439
C57_16 C 0.4760(3) 0.5497(3) 0.3867(3)
H46_16 H 0.5025 0.5403 0.3791
C58_16 C 0.4195(2) 0.56001(19) 0.41887(19)
H47_16 H 0.3981 0.5575 0.4384
C59_16 C 0.4613(2) 0.50220(19) 0.4442(2)
C60_16 C 0.4361(2) 0.49437(19) 0.4775(2)
H48_16 H 0.4134 0.5117 0.4831
N24_16 N 0.45284(16) 0.53604(16) 0.41810(18)
H26_15 H 0.8791 0.0403 0.0025
H42_12 H 0.9597 0.6209 0.9975
H42_13 H 0.9975 0.9597 0.6209
H42_14 H 0.3791 0.0025 0.0403
H26_16 H 0.1209 0.9597 0.9975
H30_16 H 0.9975 0.1209 0.9597
H34_16 H 0.9597 0.9975 0.1209
H42_15 H 0.0403 0.3791 0.0025
H42_16 H 0.0025 0.0403 0.3791
loop_
_geom_bond_atom_site_label_1
_geom_bond_atom_site_label_2
_geom_bond_site_symmetry_1
_geom_bond_site_symmetry_2
Zn1 N1 1_555 1_555
C1 H1 1_555 1_555
C2 C1 1_555 1_555
H2 C2 1_555 1_555
C3 H3 1_555 1_555
C4 C5 1_555 1_555
C5 H4 1_555 1_555
N1 C1 1_555 1_555
N2 C2 1_555 1_555
C6 H5 1_555 1_555
C7 C6 1_555 1_555
C8 H7 1_555 1_555
C9 C10 1_555 1_555
C10 C4 1_555 1_555
H8 C10 1_555 1_555
N3 C6 1_555 1_555
N4 C7 1_555 1_555
C15 C9 1_555 1_555
C16 H13 1_555 1_555
C17 C16 1_555 1_555
H14 C17 1_555 1_555
C18 H15 1_555 1_555
C19 C20 1_555 1_555
C20 H16 1_555 1_555
N7 Zn1 1_555 1_555
N8 C17 1_555 1_555
C21 H17 1_555 1_555
C22 C21 1_555 1_555
H18 C22 1_555 1_555
C23 H19 1_555 1_555
C24 C25 1_555 1_555
C25 C19 1_555 1_555
H20 C25 1_555 1_555
N9 C21 1_555 1_555
N10 C22 1_555 1_555
C26 H21 1_555 1_555
C27 C26 1_555 1_555
H22 C27 1_555 1_555
C28 H23 1_555 1_555
C29 C20 1_555 1_555
C30 C24 1_555 1_555
H24 C30 1_555 1_555
N11 C26 1_555 1_555
N12 C27 1_555 1_555
Zn2 N3 1_555 1_555
C31 H25 1_555 1_555
C32 C31 1_555 1_555
H26 C32 1_555 1_555
C33 H27 1_555 1_555
C34 C35 1_555 1_555
C35 H28 1_555 1_555
N13 Zn2 1_555 1_555
N14 C32 1_555 1_555
C36 H29 1_555 1_555
C37 C36 1_555 1_555
C38 H31 1_555 1_555
C39 C40 1_555 1_555
C40 C34 1_555 1_555
H32 C40 1_555 1_555
N15 C36 1_555 1_555
N16 C37 1_555 1_555
C45 C39 1_555 1_555
Zn3 N9 1_555 1_555
C46 H37 1_555 1_555
C47 C46 1_555 1_555
C48 H39 1_555 1_555
C49 C50 1_555 1_555
C50 H40 1_555 1_555
N19 Zn3 1_555 1_555
N20 C47 1_555 1_555
C55 C49 1_555 1_555
Zn5 N11 1_555 1_555
N25 Zn3 1_555 1_555
N26 Zn1 1_555 1_555
N27 Zn3 1_555 1_555
N28 Zn1 1_555 1_555
N29 Zn2 1_555 1_555
N30 Zn2 1_555 1_555
C3 N1 1_555 1_555
C3 N2 1_555 1_555
C4 N2 1_555 1_555
C8 N3 1_555 1_555
C8 N4 1_555 1_555
C9 N4 1_555 1_555
C16 N7 1_555 1_555
C18 N7 1_555 1_555
C18 N8 1_555 1_555
C19 N8 1_555 1_555
C23 N9 1_555 1_555
C23 N10 1_555 1_555
C24 N10 1_555 1_555
C28 N11 1_555 1_555
C28 N12 1_555 1_555
C29 C30 1_555 1_555
C29 N12 1_555 1_555
C31 N13 1_555 1_555
C33 N13 1_555 1_555
C33 N14 1_555 1_555
C34 N14 1_555 1_555
C38 N15 1_555 1_555
C38 N16 1_555 1_555
C39 N16 1_555 1_555
N15 Zn5 1_555 1_555
C46 N19 1_555 1_555
C48 N19 1_555 1_555
C48 N20 1_555 1_555
C49 N20 1_555 1_555
C11 H9 1_555 1_555
C12 C11 1_555 1_555
H10 C12 1_555 1_555
C13 H11 1_555 1_555
N5 C11 1_555 1_555
N6 C12 1_555 1_555
C51 H41 1_555 1_555
C52 C51 1_555 1_555
C53 H43 1_555 1_555
N21 C51 1_555 1_555
N22 C52 1_555 1_555
Zn6 N5 1_555 1_555
C13 N5 1_555 1_555
C13 N6 1_555 1_555
C14 N6 1_555 1_555
C53 N21 1_555 1_555
C53 N22 1_555 1_555
C54 N22 1_555 1_555
N21 Zn6 1_555 1_555
C41 H33 1_555 1_555
C42 C41 1_555 1_555
H34 C42 1_555 1_555
C43 H35 1_555 1_555
N17 C41 1_555 1_555
N18 C42 1_555 1_555
C56 H45 1_555 1_555
C57 C56 1_555 1_555
H46 C57 1_555 1_555
C58 H47 1_555 1_555
N23 C56 1_555 1_555
N24 C57 1_555 1_555
Zn4 N17 1_555 1_555
C43 N17 1_555 1_555
C43 N18 1_555 1_555
C44 N18 1_555 1_555
C58 N23 1_555 1_555
C58 N24 1_555 1_555
C59 N24 1_555 1_555
N23 Zn4 1_555 1_555
N26_2 Zn4 1_555 1_555
N28_2 Zn4 1_555 1_555
Zn1_2 N1_2 1_555 1_555
C1_2 H1_2 1_555 1_555
C2_2 C1_2 1_555 1_555
H2_2 C2_2 1_555 1_555
C3_2 H3_2 1_555 1_555
C4_2 C5_2 1_555 1_555
C5_2 H4_2 1_555 1_555
N1_2 C1_2 1_555 1_555
N2_2 C2_2 1_555 1_555
C6_2 H5_2 1_555 1_555
C7_2 C6_2 1_555 1_555
C8_2 H7_2 1_555 1_555
C9_2 C10_2 1_555 1_555
C10_2 C4_2 1_555 1_555
H8_2 C10_2 1_555 1_555
N3_2 C6_2 1_555 1_555
N4_2 C7_2 1_555 1_555
C15_2 C9_2 1_555 1_555
C16_2 H13_2 1_555 1_555
C17_2 C16_2 1_555 1_555
H14_2 C17_2 1_555 1_555
C18_2 H15_2 1_555 1_555
C19_2 C20_2 1_555 1_555
C20_2 H16_2 1_555 1_555
N7_2 Zn1_2 1_555 1_555
N8_2 C17_2 1_555 1_555
C21_2 H17_2 1_555 1_555
C22_2 C21_2 1_555 1_555
H18_2 C22_2 1_555 1_555
C23_2 H19_2 1_555 1_555
C24_2 C25_2 1_555 1_555
C25_2 C19_2 1_555 1_555
H20_2 C25_2 1_555 1_555
N9_2 C21_2 1_555 1_555
N10_2 C22_2 1_555 1_555
C26_2 H21_2 1_555 1_555
C27_2 C26_2 1_555 1_555
H22_2 C27_2 1_555 1_555
C28_2 H23_2 1_555 1_555
C29_2 C20_2 1_555 1_555
C30_2 C24_2 1_555 1_555
H24_2 C30_2 1_555 1_555
N11_2 C26_2 1_555 1_555
N12_2 C27_2 1_555 1_555
Zn2_2 N3_2 1_555 1_555
C31_2 H25_2 1_555 1_555
C32_2 C31_2 1_555 1_555
H26_2 C32_2 1_555 1_555
C33_2 H27_2 1_555 1_555
C34_2 C35_2 1_555 1_555
C35_2 H28_2 1_555 1_555
N13_2 Zn2_2 1_555 1_555
N14_2 C32_2 1_555 1_555
C36_2 H29_2 1_555 1_555
C37_2 C36_2 1_555 1_555
C38_2 H31_2 1_555 1_555
C39_2 C40_2 1_555 1_555
C40_2 C34_2 1_555 1_555
H32_2 C40_2 1_555 1_555
N15_2 C36_2 1_555 1_555
N16_2 C37_2 1_555 1_555
C45_2 C39_2 1_555 1_555
Zn3_2 N9_2 1_555 1_555
C46_2 H37_2 1_555 1_555
C47_2 C46_2 1_555 1_555
C48_2 H39_2 1_555 1_555
C49_2 C50_2 1_555 1_555
C50_2 H40_2 1_555 1_555
N19_2 Zn3_2 1_555 1_555
N20_2 C47_2 1_555 1_555
C55_2 C49_2 1_555 1_555
Zn5_2 N11_2 1_555 1_555
N25_2 Zn3_2 1_555 1_555
N26_3 Zn1_2 1_555 1_555
N27_2 Zn3_2 1_555 1_555
N28_3 Zn1_2 1_555 1_555
N29_2 Zn2_2 1_555 1_555
N30_2 Zn2_2 1_555 1_555
C3_2 N1_2 1_555 1_555
C3_2 N2_2 1_555 1_555
C4_2 N2_2 1_555 1_555
C8_2 N3_2 1_555 1_555
C8_2 N4_2 1_555 1_555
C9_2 N4_2 1_555 1_555
C16_2 N7_2 1_555 1_555
C18_2 N7_2 1_555 1_555
C18_2 N8_2 1_555 1_555
C19_2 N8_2 1_555 1_555
C23_2 N9_2 1_555 1_555
C23_2 N10_2 1_555 1_555
C24_2 N10_2 1_555 1_555
C28_2 N11_2 1_555 1_555
C28_2 N12_2 1_555 1_555
C29_2 C30_2 1_555 1_555
C29_2 N12_2 1_555 1_555
C31_2 N13_2 1_555 1_555
C33_2 N13_2 1_555 1_555
C33_2 N14_2 1_555 1_555
C34_2 N14_2 1_555 1_555
C38_2 N15_2 1_555 1_555
C38_2 N16_2 1_555 1_555
C39_2 N16_2 1_555 1_555
N15_2 Zn5_2 1_555 1_555
C46_2 N19_2 1_555 1_555
C48_2 N19_2 1_555 1_555
C48_2 N20_2 1_555 1_555
C49_2 N20_2 1_555 1_555
C41_2 H33_2 1_555 1_555
C42_2 C41_2 1_555 1_555
H34_2 C42_2 1_555 1_555
C43_2 H35_2 1_555 1_555
N17_2 C41_2 1_555 1_555
N18_2 C42_2 1_555 1_555
C56_2 H45_2 1_555 1_555
C57_2 C56_2 1_555 1_555
H46_2 C57_2 1_555 1_555
C58_2 H47_2 1_555 1_555
N23_2 C56_2 1_555 1_555
N24_2 C57_2 1_555 1_555
Zn4_2 N17_2 1_555 1_555
C43_2 N17_2 1_555 1_555
C43_2 N18_2 1_555 1_555
C44_2 N18_2 1_555 1_555
C58_2 N23_2 1_555 1_555
C58_2 N24_2 1_555 1_555
C59_2 N24_2 1_555 1_555
N23_2 Zn4_2 1_555 1_555
C11_2 H9_2 1_555 1_555
C12_2 C11_2 1_555 1_555
H10_2 C12_2 1_555 1_555
C13_2 H11_2 1_555 1_555
N5_2 C11_2 1_555 1_555
N6_2 C12_2 1_555 1_555
C51_2 H41_2 1_555 1_555
C52_2 C51_2 1_555 1_555
C53_2 H43_2 1_555 1_555
N21_2 C51_2 1_555 1_555
N22_2 C52_2 1_555 1_555
Zn6_2 N5_2 1_555 1_555
C13_2 N5_2 1_555 1_555
C13_2 N6_2 1_555 1_555
C14_2 N6_2 1_555 1_555
C53_2 N21_2 1_555 1_555
C53_2 N22_2 1_555 1_555
C54_2 N22_2 1_555 1_555
N21_2 Zn6_2 1_555 1_555
Zn1_3 N1_3 1_555 1_555
C1_3 H1_3 1_555 1_555
C2_3 C1_3 1_555 1_555
H2_3 C2_3 1_555 1_555
C3_3 H3_3 1_555 1_555
C4_3 C5_3 1_555 1_555
C5_3 H4_3 1_555 1_555
N1_3 C1_3 1_555 1_555
N2_3 C2_3 1_555 1_555
C6_3 H5_3 1_555 1_555
C7_3 C6_3 1_555 1_555
C8_3 H7_3 1_555 1_555
C9_3 C10_3 1_555 1_555
C10_3 C4_3 1_555 1_555
H8_3 C10_3 1_555 1_555
N3_3 C6_3 1_555 1_555
N4_3 C7_3 1_555 1_555
C15_3 C9_3 1_555 1_555
C16_3 H13_3 1_555 1_555
C17_3 C16_3 1_555 1_555
H14_3 C17_3 1_555 1_555
C18_3 H15_3 1_555 1_555
C19_3 C20_3 1_555 1_555
C20_3 H16_3 1_555 1_555
N7_3 Zn1_3 1_555 1_555
N8_3 C17_3 1_555 1_555
C21_3 H17_3 1_555 1_555
C22_3 C21_3 1_555 1_555
H18_3 C22_3 1_555 1_555
C23_3 H19_3 1_555 1_555
C24_3 C25_3 1_555 1_555
C25_3 C19_3 1_555 1_555
H20_3 C25_3 1_555 1_555
N9_3 C21_3 1_555 1_555
N10_3 C22_3 1_555 1_555
C26_3 H21_3 1_555 1_555
C27_3 C26_3 1_555 1_555
H22_3 C27_3 1_555 1_555
C28_3 H23_3 1_555 1_555
C29_3 C20_3 1_555 1_555
C30_3 C24_3 1_555 1_555
H24_3 C30_3 1_555 1_555
N11_3 C26_3 1_555 1_555
N12_3 C27_3 1_555 1_555
Zn2_3 N3_3 1_555 1_555
C31_3 H25_3 1_555 1_555
C32_3 C31_3 1_555 1_555
H26_3 C32_3 1_555 1_555
C33_3 H27_3 1_555 1_555
C34_3 C35_3 1_555 1_555
C35_3 H28_3 1_555 1_555
N13_3 Zn2_3 1_555 1_555
N14_3 C32_3 1_555 1_555
C36_3 H29_3 1_555 1_555
C37_3 C36_3 1_555 1_555
C38_3 H31_3 1_555 1_555
C39_3 C40_3 1_555 1_555
C40_3 C34_3 1_555 1_555
H32_3 C40_3 1_555 1_555
N15_3 C36_3 1_555 1_555
N16_3 C37_3 1_555 1_555
C45_3 C39_3 1_555 1_555
Zn3_3 N9_3 1_555 1_555
C46_3 H37_3 1_555 1_555
C47_3 C46_3 1_555 1_555
C48_3 H39_3 1_555 1_555
C49_3 C50_3 1_555 1_555
C50_3 H40_3 1_555 1_555
N19_3 Zn3_3 1_555 1_555
N20_3 C47_3 1_555 1_555
C55_3 C49_3 1_555 1_555
Zn5_3 N11_3 1_555 1_555
N25_3 Zn3_3 1_555 1_555
N26_4 Zn1_3 1_555 1_555
N27_3 Zn3_3 1_555 1_555
N28_4 Zn1_3 1_555 1_555
N29_3 Zn2_3 1_555 1_555
N30_3 Zn2_3 1_555 1_555
C3_3 N1_3 1_555 1_555
C3_3 N2_3 1_555 1_555
C4_3 N2_3 1_555 1_555
C8_3 N3_3 1_555 1_555
C8_3 N4_3 1_555 1_555
C9_3 N4_3 1_555 1_555
C16_3 N7_3 1_555 1_555
C18_3 N7_3 1_555 1_555
C18_3 N8_3 1_555 1_555
C19_3 N8_3 1_555 1_555
C23_3 N9_3 1_555 1_555
C23_3 N10_3 1_555 1_555
C24_3 N10_3 1_555 1_555
C28_3 N11_3 1_555 1_555
C28_3 N12_3 1_555 1_555
C29_3 C30_3 1_555 1_555
C29_3 N12_3 1_555 1_555
C31_3 N13_3 1_555 1_555
C33_3 N13_3 1_555 1_555
C33_3 N14_3 1_555 1_555
C34_3 N14_3 1_555 1_555
C38_3 N15_3 1_555 1_555
C38_3 N16_3 1_555 1_555
C39_3 N16_3 1_555 1_555
N15_3 Zn5_3 1_555 1_555
C46_3 N19_3 1_555 1_555
C48_3 N19_3 1_555 1_555
C48_3 N20_3 1_555 1_555
C49_3 N20_3 1_555 1_555
C11_3 H9_3 1_555 1_555
C12_3 C11_3 1_555 1_555
H10_3 C12_3 1_555 1_555
C13_3 H11_3 1_555 1_555
N5_3 C11_3 1_555 1_555
N6_3 C12_3 1_555 1_555
C51_3 H41_3 1_555 1_555
C52_3 C51_3 1_555 1_555
C53_3 H43_3 1_555 1_555
N21_3 C51_3 1_555 1_555
N22_3 C52_3 1_555 1_555
Zn6_3 N5_3 1_555 1_555
C13_3 N5_3 1_555 1_555
C13_3 N6_3 1_555 1_555
C14_3 N6_3 1_555 1_555
C53_3 N21_3 1_555 1_555
C53_3 N22_3 1_555 1_555
C54_3 N22_3 1_555 1_555
N21_3 Zn6_3 1_555 1_555
C41_3 H33_3 1_555 1_555
C42_3 C41_3 1_555 1_555
H34_3 C42_3 1_555 1_555
C43_3 H35_3 1_555 1_555
N17_3 C41_3 1_555 1_555
N18_3 C42_3 1_555 1_555
C56_3 H45_3 1_555 1_555
C57_3 C56_3 1_555 1_555
H46_3 C57_3 1_555 1_555
C58_3 H47_3 1_555 1_555
N23_3 C56_3 1_555 1_555
N24_3 C57_3 1_555 1_555
Zn4_3 N17_3 1_555 1_555
C43_3 N17_3 1_555 1_555
C43_3 N18_3 1_555 1_555
C44_3 N18_3 1_555 1_555
C58_3 N23_3 1_555 1_555
C58_3 N24_3 1_555 1_555
C59_3 N24_3 1_555 1_555
N23_3 Zn4_3 1_555 1_555
N26_5 Zn4_3 1_555 1_555
N28_5 Zn4_3 1_555 1_555
N26_6 Zn4_2 1_555 1_555
N28_6 Zn4_2 1_555 1_555
Zn1_4 N1_4 1_555 1_555
C1_4 H1_4 1_555 1_555
C2_4 C1_4 1_555 1_555
H2_4 C2_4 1_555 1_555
C3_4 H3_4 1_555 1_555
C4_4 C5_4 1_555 1_555
C5_4 H4_4 1_555 1_555
N1_4 C1_4 1_555 1_555
N2_4 C2_4 1_555 1_555
C6_4 H5_4 1_555 1_555
C7_4 C6_4 1_555 1_555
H6_4 C7_4 1_555 1_555
C8_4 H7_4 1_555 1_555
C9_4 C10_4 1_555 1_555
C10_4 C4_4 1_555 1_555
H8_4 C10_4 1_555 1_555
N3_4 C6_4 1_555 1_555
N4_4 C7_4 1_555 1_555
C11_4 H9_4 1_555 1_555
C12_4 C11_4 1_555 1_555
H10_4 C12_4 1_555 1_555
C13_4 H11_4 1_555 1_555
C14_4 C5_4 1_555 1_555
C15_4 C9_4 1_555 1_555
H12_4 C15_4 1_555 1_555
N5_4 C11_4 1_555 1_555
N6_4 C12_4 1_555 1_555
C16_4 H13_4 1_555 1_555
C17_4 C16_4 1_555 1_555
H14_4 C17_4 1_555 1_555
C18_4 H15_4 1_555 1_555
C19_4 C20_4 1_555 1_555
C20_4 H16_4 1_555 1_555
N7_4 Zn1_4 1_555 1_555
N8_4 C17_4 1_555 1_555
C21_4 H17_4 1_555 1_555
C22_4 C21_4 1_555 1_555
H18_4 C22_4 1_555 1_555
C23_4 H19_4 1_555 1_555
C24_4 C25_4 1_555 1_555
C25_4 C19_4 1_555 1_555
H20_4 C25_4 1_555 1_555
N9_4 C21_4 1_555 1_555
N10_4 C22_4 1_555 1_555
C26_4 H21_4 1_555 1_555
C27_4 C26_4 1_555 1_555
H22_4 C27_4 1_555 1_555
C28_4 H23_4 1_555 1_555
C29_4 C20_4 1_555 1_555
C30_4 C24_4 1_555 1_555
H24_4 C30_4 1_555 1_555
N11_4 C26_4 1_555 1_555
N12_4 C27_4 1_555 1_555
Zn2_4 N3_4 1_555 1_555
C31_4 H25_4 1_555 1_555
C32_4 C31_4 1_555 1_555
H26_4 C32_4 1_555 1_555
C33_4 H27_4 1_555 1_555
C34_4 C35_4 1_555 1_555
C35_4 H28_4 1_555 1_555
N13_4 Zn2_4 1_555 1_555
N14_4 C32_4 1_555 1_555
C36_4 H29_4 1_555 1_555
C37_4 C36_4 1_555 1_555
H30_4 C37_4 1_555 1_555
C38_4 H31_4 1_555 1_555
C39_4 C40_4 1_555 1_555
C40_4 C34_4 1_555 1_555
H32_4 C40_4 1_555 1_555
N15_4 C36_4 1_555 1_555
N16_4 C37_4 1_555 1_555
C41_4 H33_4 1_555 1_555
C42_4 C41_4 1_555 1_555
H34_4 C42_4 1_555 1_555
C43_4 H35_4 1_555 1_555
C44_4 C35_4 1_555 1_555
C45_4 C39_4 1_555 1_555
H36_4 C45_4 1_555 1_555
N17_4 C41_4 1_555 1_555
N18_4 C42_4 1_555 1_555
Zn3_4 N9_4 1_555 1_555
C46_4 H37_4 1_555 1_555
C47_4 C46_4 1_555 1_555
H38_4 C47_4 1_555 1_555
C48_4 H39_4 1_555 1_555
C49_4 C50_4 1_555 1_555
C50_4 H40_4 1_555 1_555
N19_4 Zn3_4 1_555 1_555
N20_4 C47_4 1_555 1_555
C51_4 H41_4 1_555 1_555
C52_4 C51_4 1_555 1_555
H42 C52_4 1_555 1_555
C53_4 H43_4 1_555 1_555
C54_4 C55_4 1_555 1_555
C55_4 C49_4 1_555 1_555
H44_4 C55_4 1_555 1_555
N21_4 C51_4 1_555 1_555
N22_4 C52_4 1_555 1_555
C56_4 H45_4 1_555 1_555
C57_4 C56_4 1_555 1_555
H46_4 C57_4 1_555 1_555
C58_4 H47_4 1_555 1_555
C59_4 C50_4 1_555 1_555
C60_4 C54_4 1_555 1_555
H48_4 C60_4 1_555 1_555
N23_4 C56_4 1_555 1_555
N24_4 C57_4 1_555 1_555
Zn4_4 N17_4 1_555 1_555
Zn5_4 N11_4 1_555 1_555
Zn6_4 N5_4 1_555 1_555
N25_4 Zn3_4 1_555 1_555
N26_7 Zn1_4 1_555 1_555
N27_4 Zn3_4 1_555 1_555
N28_7 Zn1_4 1_555 1_555
N29_4 Zn2_4 1_555 1_555
N30_4 Zn2_4 1_555 1_555
C3_4 N1_4 1_555 1_555
C3_4 N2_4 1_555 1_555
C4_4 N2_4 1_555 1_555
C8_4 N3_4 1_555 1_555
C8_4 N4_4 1_555 1_555
C9_4 N4_4 1_555 1_555
C13_4 N5_4 1_555 1_555
C13_4 N6_4 1_555 1_555
C14_4 C15_4 1_555 1_555
C14_4 N6_4 1_555 1_555
C16_4 N7_4 1_555 1_555
C18_4 N7_4 1_555 1_555
C18_4 N8_4 1_555 1_555
C19_4 N8_4 1_555 1_555
C23_4 N9_4 1_555 1_555
C23_4 N10_4 1_555 1_555
C24_4 N10_4 1_555 1_555
C28_4 N11_4 1_555 1_555
C28_4 N12_4 1_555 1_555
C29_4 C30_4 1_555 1_555
C29_4 N12_4 1_555 1_555
C31_4 N13_4 1_555 1_555
C33_4 N13_4 1_555 1_555
C33_4 N14_4 1_555 1_555
C34_4 N14_4 1_555 1_555
C38_4 N15_4 1_555 1_555
C38_4 N16_4 1_555 1_555
C39_4 N16_4 1_555 1_555
N15_4 Zn5_4 1_555 1_555
C43_4 N17_4 1_555 1_555
C43_4 N18_4 1_555 1_555
C44_4 C45_4 1_555 1_555
C44_4 N18_4 1_555 1_555
C46_4 N19_4 1_555 1_555
C48_4 N19_4 1_555 1_555
C48_4 N20_4 1_555 1_555
C49_4 N20_4 1_555 1_555
C53_4 N21_4 1_555 1_555
C53_4 N22_4 1_555 1_555
C54_4 N22_4 1_555 1_555
N21_4 Zn6_4 1_555 1_555
C58_4 N23_4 1_555 1_555
C58_4 N24_4 1_555 1_555
C59_4 C60_4 1_555 1_555
C59_4 N24_4 1_555 1_555
N23_4 Zn4_4 1_555 1_555
N26_8 Zn4_4 1_555 1_555
N28_8 Zn4_4 1_555 1_555
N29_5 Zn5_3 1_555 1_555
N30_5 Zn5_3 1_555 1_555
N25_5 Zn6_3 1_555 1_555
N27_5 Zn6_3 1_555 1_555
N26_9 Zn5_2 1_555 1_555
N28_9 Zn5_2 1_555 1_555
N26_10 Zn6_2 1_555 1_555
N28_10 Zn6_2 1_555 1_555
N26_11 Zn5_4 1_555 1_555
N28_11 Zn5_4 1_555 1_555
N29_6 Zn5 1_555 1_555
N30_6 Zn5 1_555 1_555
N25_6 Zn6 1_555 1_555
N27_6 Zn6 1_555 1_555
N26_12 Zn6_4 1_555 1_555
N28_12 Zn6_4 1_555 1_555
C1_5 H1_5 1_555 1_555
C2_5 C1_5 1_555 1_555
C3_5 H3_5 1_555 1_555
C4_5 C5_5 1_555 1_555
C5_5 H4_5 1_555 1_555
N25 C1_5 1_555 1_555
N2_5 C2_5 1_555 1_555
C10_5 C4_5 1_555 1_555
C11_5 H9_5 1_555 1_555
C12_5 C11_5 1_555 1_555
H10_5 C12_5 1_555 1_555
C13_5 H11_5 1_555 1_555
C14_5 C5_5 1_555 1_555
H12_5 C15_5 1_555 1_555
N27_3 C11_5 1_555 1_555
N6_5 C12_5 1_555 1_555
C16_5 H13_5 1_555 1_555
C17_5 C16_5 1_555 1_555
H14_5 C17_5 1_555 1_555
C18_5 H15_5 1_555 1_555
C19_5 C20_5 1_555 1_555
C20_5 H16_5 1_555 1_555
N8_5 C17_5 1_555 1_555
C21_5 H17_5 1_555 1_555
C22_5 C21_5 1_555 1_555
C23_5 H19_5 1_555 1_555
C24_5 C25_5 1_555 1_555
C25_5 C19_5 1_555 1_555
H20_5 C25_5 1_555 1_555
N25_2 C21_5 1_555 1_555
N10_5 C22_5 1_555 1_555
C30_5 C24_5 1_555 1_555
C46_5 H37_5 1_555 1_555
C47_5 C46_5 1_555 1_555
H38_5 C47_5 1_555 1_555
C48_5 H39_5 1_555 1_555
C49_5 C50_5 1_555 1_555
C50_5 H40_5 1_555 1_555
N20_5 C47_5 1_555 1_555
C51_5 H41_5 1_555 1_555
C52_5 C51_5 1_555 1_555
C53_5 H43_5 1_555 1_555
C54_5 C55_5 1_555 1_555
C55_5 C49_5 1_555 1_555
H44_5 C55_5 1_555 1_555
N25_3 C51_5 1_555 1_555
N22_5 C52_5 1_555 1_555
C60_5 C54_5 1_555 1_555
C3_5 N25 1_555 1_555
C3_5 N2_5 1_555 1_555
C4_5 N2_5 1_555 1_555
C13_5 N27_3 1_555 1_555
C13_5 N6_5 1_555 1_555
C14_5 C15_5 1_555 1_555
C14_5 N6_5 1_555 1_555
C16_5 N27 1_555 1_555
C18_5 N27 1_555 1_555
C18_5 N8_5 1_555 1_555
C19_5 N8_5 1_555 1_555
C23_5 N25_2 1_555 1_555
C23_5 N10_5 1_555 1_555
C24_5 N10_5 1_555 1_555
C46_5 N27_2 1_555 1_555
C48_5 N27_2 1_555 1_555
C48_5 N20_5 1_555 1_555
C49_5 N20_5 1_555 1_555
C53_5 N25_3 1_555 1_555
C53_5 N22_5 1_555 1_555
C54_5 N22_5 1_555 1_555
C26_5 H21_5 1_555 1_555
C27_5 C26_5 1_555 1_555
H22_5 C27_5 1_555 1_555
C28_5 H23_5 1_555 1_555
N29_3 C26_5 1_555 1_555
N12_5 C27_5 1_555 1_555
C36_5 H29_5 1_555 1_555
C37_5 C36_5 1_555 1_555
C38_5 H31_5 1_555 1_555
N30_3 C36_5 1_555 1_555
N16_5 C37_5 1_555 1_555
C28_5 N29_3 1_555 1_555
C28_5 N12_5 1_555 1_555
C29_5 N12_5 1_555 1_555
C38_5 N30_3 1_555 1_555
C38_5 N16_5 1_555 1_555
C39_5 N16_5 1_555 1_555
C6_5 H5_5 1_555 1_555
C7_5 C6_5 1_555 1_555
H6_5 C7_5 1_555 1_555
C8_5 H7_5 1_555 1_555
N29_2 C6_5 1_555 1_555
N4_5 C7_5 1_555 1_555
C31_5 H25_5 1_555 1_555
C32_5 C31_5 1_555 1_555
C33_5 H27_5 1_555 1_555
N14_5 C32_5 1_555 1_555
C8_5 N29_2 1_555 1_555
C8_5 N4_5 1_555 1_555
C9_5 N4_5 1_555 1_555
C31_5 N30_2 1_555 1_555
C33_5 N30_2 1_555 1_555
C33_5 N14_5 1_555 1_555
C34_5 N14_5 1_555 1_555
C41_5 H33_5 1_555 1_555
C42_5 C41_5 1_555 1_555
C43_5 H35_5 1_555 1_555
N30 C41_5 1_555 1_555
N18_5 C42_5 1_555 1_555
C56_5 H45_5 1_555 1_555
C57_5 C56_5 1_555 1_555
H46_5 C57_5 1_555 1_555
C58_5 H47_5 1_555 1_555
N29 C56_5 1_555 1_555
N24_5 C57_5 1_555 1_555
C43_5 N30 1_555 1_555
C43_5 N18_5 1_555 1_555
C44_5 N18_5 1_555 1_555
C58_5 N29 1_555 1_555
C58_5 N24_5 1_555 1_555
C59_5 N24_5 1_555 1_555
C1_6 H1_6 1_555 1_555
C2_6 C1_6 1_555 1_555
H2_6 C2_6 1_555 1_555
C3_6 H3_6 1_555 1_555
C4_6 C5_6 1_555 1_555
C5_6 H4_6 1_555 1_555
N26_9 C1_6 1_555 1_555
N2_6 C2_6 1_555 1_555
C6_6 H5_6 1_555 1_555
C7_6 C6_6 1_555 1_555
H6_6 C7_6 1_555 1_555
C8_6 H7_6 1_555 1_555
C9_6 C10_6 1_555 1_555
C10_6 C4_6 1_555 1_555
H8_6 C10_6 1_555 1_555
N26_2 C6_6 1_555 1_555
N4_6 C7_6 1_555 1_555
C11_6 H9_6 1_555 1_555
C12_6 C11_6 1_555 1_555
H10_6 C12_6 1_555 1_555
C13_6 H11_6 1_555 1_555
C14_6 C5_6 1_555 1_555
C15_6 C9_6 1_555 1_555
H12_6 C15_6 1_555 1_555
N28_12 C11_6 1_555 1_555
N6_6 C12_6 1_555 1_555
C16_6 H13_6 1_555 1_555
C17_6 C16_6 1_555 1_555
H14_6 C17_6 1_555 1_555
C18_6 H15_6 1_555 1_555
C19_6 C20_6 1_555 1_555
C20_6 H16_6 1_555 1_555
N8_6 C17_6 1_555 1_555
C21_6 H17_6 1_555 1_555
C22_6 C21_6 1_555 1_555
C23_6 H19_6 1_555 1_555
C24_6 C25_6 1_555 1_555
C25_6 C19_6 1_555 1_555
H20_6 C25_6 1_555 1_555
N28 C21_6 1_555 1_555
N10_6 C22_6 1_555 1_555
C30_6 C24_6 1_555 1_555
C31_6 H25_6 1_555 1_555
C32_6 C31_6 1_555 1_555
C33_6 H27_6 1_555 1_555
C34_6 C35_6 1_555 1_555
C35_6 H28_6 1_555 1_555
N14_6 C32_6 1_555 1_555
C40_6 C34_6 1_555 1_555
C41_6 H33_6 1_555 1_555
C42_6 C41_6 1_555 1_555
H34_5 C42_6 1_555 1_555
C43_6 H35_6 1_555 1_555
C44_6 C35_6 1_555 1_555
H36_6 C45_6 1_555 1_555
N28_10 C41_6 1_555 1_555
N18_6 C42_6 1_555 1_555
C46_6 H37_6 1_555 1_555
C47_6 C46_6 1_555 1_555
H38_6 C47_6 1_555 1_555
C48_6 H39_6 1_555 1_555
C49_6 C50_6 1_555 1_555
C50_6 H40_6 1_555 1_555
N20_6 C47_6 1_555 1_555
C51_6 H41_6 1_555 1_555
C52_6 C51_6 1_555 1_555
H42_3 C52_6 1_555 1_555
C53_6 H43_6 1_555 1_555
C54_6 C55_6 1_555 1_555
C55_6 C49_6 1_555 1_555
H44_6 C55_6 1_555 1_555
N26_12 C51_6 1_555 1_555
N22_6 C52_6 1_555 1_555
C56_6 H45_6 1_555 1_555
C57_6 C56_6 1_555 1_555
H46_6 C57_6 1_555 1_555
C58_6 H47_6 1_555 1_555
C59_6 C50_6 1_555 1_555
C60_6 C54_6 1_555 1_555
H48_6 C60_6 1_555 1_555
N26_10 C56_6 1_555 1_555
N24_6 C57_6 1_555 1_555
C3_6 N26_9 1_555 1_555
C3_6 N2_6 1_555 1_555
C4_6 N2_6 1_555 1_555
C8_6 N26_2 1_555 1_555
C8_6 N4_6 1_555 1_555
C9_6 N4_6 1_555 1_555
C13_6 N28_12 1_555 1_555
C13_6 N6_6 1_555 1_555
C14_6 C15_6 1_555 1_555
C14_6 N6_6 1_555 1_555
C16_6 N28_9 1_555 1_555
C18_6 N28_9 1_555 1_555
C18_6 N8_6 1_555 1_555
C19_6 N8_6 1_555 1_555
C23_6 N28 1_555 1_555
C23_6 N10_6 1_555 1_555
C24_6 N10_6 1_555 1_555
C31_6 N28_2 1_555 1_555
C33_6 N28_2 1_555 1_555
C33_6 N14_6 1_555 1_555
C34_6 N14_6 1_555 1_555
C43_6 N28_10 1_555 1_555
C43_6 N18_6 1_555 1_555
C44_6 C45_6 1_555 1_555
C44_6 N18_6 1_555 1_555
C46_6 N26 1_555 1_555
C48_6 N26 1_555 1_555
C48_6 N20_6 1_555 1_555
C49_6 N20_6 1_555 1_555
C53_6 N26_12 1_555 1_555
C53_6 N22_6 1_555 1_555
C54_6 N22_6 1_555 1_555
C58_6 N26_10 1_555 1_555
C58_6 N24_6 1_555 1_555
C59_6 C60_6 1_555 1_555
C59_6 N24_6 1_555 1_555
C26_6 H21_6 1_555 1_555
C27_6 C26_6 1_555 1_555
H22_6 C27_6 1_555 1_555
C28_6 H23_6 1_555 1_555
N28_11 C26_6 1_555 1_555
N12_6 C27_6 1_555 1_555
C36_6 H29_6 1_555 1_555
C37_6 C36_6 1_555 1_555
H30_5 C37_6 1_555 1_555
C38_6 H31_6 1_555 1_555
N26_11 C36_6 1_555 1_555
N16_6 C37_6 1_555 1_555
C28_6 N28_11 1_555 1_555
C28_6 N12_6 1_555 1_555
C29_6 N12_6 1_555 1_555
C38_6 N26_11 1_555 1_555
C38_6 N16_6 1_555 1_555
C39_6 N16_6 1_555 1_555
C6_7 H5_7 1_555 1_555
C7_7 C6_7 1_555 1_555
H6_7 C7_7 1_555 1_555
C8_7 H7_7 1_555 1_555
C9_7 C10_7 1_555 1_555
H8_7 C10_7 1_555 1_555
N27_6 C6_7 1_555 1_555
N4_7 C7_7 1_555 1_555
C11_7 H9_7 1_555 1_555
C12_7 C11_7 1_555 1_555
C13_7 H11_7 1_555 1_555
C14_7 C5_7 1_555 1_555
C15_7 C9_7 1_555 1_555
H12_7 C15_7 1_555 1_555
N26_5 C11_7 1_555 1_555
N6_7 C12_7 1_555 1_555
C21_7 H17_7 1_555 1_555
C22_7 C21_7 1_555 1_555
H18_7 C22_7 1_555 1_555
C23_7 H19_7 1_555 1_555
C24_7 C25_7 1_555 1_555
H20_7 C25_7 1_555 1_555
N30_6 C21_7 1_555 1_555
N10_7 C22_7 1_555 1_555
C26_7 H21_7 1_555 1_555
C27_7 C26_7 1_555 1_555
C28_7 H23_7 1_555 1_555
C29_7 C20_7 1_555 1_555
C30_7 C24_7 1_555 1_555
H24_7 C30_7 1_555 1_555
N28_4 C26_7 1_555 1_555
N12_7 C27_7 1_555 1_555
C31_7 H25_7 1_555 1_555
C32_7 C31_7 1_555 1_555
H26_6 C32_7 1_555 1_555
C33_7 H27_7 1_555 1_555
C34_7 C35_7 1_555 1_555
C35_7 H28_7 1_555 1_555
N14_7 C32_7 1_555 1_555
C36_7 H29_7 1_555 1_555
C37_7 C36_7 1_555 1_555
H30_6 C37_7 1_555 1_555
C38_7 H31_7 1_555 1_555
C39_7 C40_7 1_555 1_555
C40_7 C34_7 1_555 1_555
H32_7 C40_7 1_555 1_555
N26_4 C36_7 1_555 1_555
N16_7 C37_7 1_555 1_555
C41_7 H33_7 1_555 1_555
C42_7 C41_7 1_555 1_555
H34_6 C42_7 1_555 1_555
C43_7 H35_7 1_555 1_555
C44_7 C35_7 1_555 1_555
C45_7 C39_7 1_555 1_555
H36_7 C45_7 1_555 1_555
N26_8 C41_7 1_555 1_555
N18_7 C42_7 1_555 1_555
C46_7 H37_7 1_555 1_555
C47_7 C46_7 1_555 1_555
H38_7 C47_7 1_555 1_555
C48_7 H39_7 1_555 1_555
C49_7 C50_7 1_555 1_555
C50_7 H40_7 1_555 1_555
N20_7 C47_7 1_555 1_555
C51_7 H41_7 1_555 1_555
C52_7 C51_7 1_555 1_555
H42_4 C52_7 1_555 1_555
C53_7 H43_7 1_555 1_555
C54_7 C55_7 1_555 1_555
C55_7 C49_7 1_555 1_555
H44_7 C55_7 1_555 1_555
N28_5 C51_7 1_555 1_555
N22_7 C52_7 1_555 1_555
C56_7 H45_7 1_555 1_555
C57_7 C56_7 1_555 1_555
H46_7 C57_7 1_555 1_555
C58_7 H47_7 1_555 1_555
C59_7 C50_7 1_555 1_555
C60_7 C54_7 1_555 1_555
H48_7 C60_7 1_555 1_555
N28_8 C56_7 1_555 1_555
N24_7 C57_7 1_555 1_555
C8_7 N27_6 1_555 1_555
C8_7 N4_7 1_555 1_555
C9_7 N4_7 1_555 1_555
C13_7 N26_5 1_555 1_555
C13_7 N6_7 1_555 1_555
C14_7 C15_7 1_555 1_555
C14_7 N6_7 1_555 1_555
C23_7 N30_6 1_555 1_555
C23_7 N10_7 1_555 1_555
C24_7 N10_7 1_555 1_555
C28_7 N28_4 1_555 1_555
C28_7 N12_7 1_555 1_555
C29_7 C30_7 1_555 1_555
C29_7 N12_7 1_555 1_555
C31_7 N25_6 1_555 1_555
C33_7 N25_6 1_555 1_555
C33_7 N14_7 1_555 1_555
C34_7 N14_7 1_555 1_555
C38_7 N26_4 1_555 1_555
C38_7 N16_7 1_555 1_555
C39_7 N16_7 1_555 1_555
C43_7 N26_8 1_555 1_555
C43_7 N18_7 1_555 1_555
C44_7 C45_7 1_555 1_555
C44_7 N18_7 1_555 1_555
C46_7 N29_6 1_555 1_555
C48_7 N29_6 1_555 1_555
C48_7 N20_7 1_555 1_555
C49_7 N20_7 1_555 1_555
C53_7 N28_5 1_555 1_555
C53_7 N22_7 1_555 1_555
C54_7 N22_7 1_555 1_555
C58_7 N28_8 1_555 1_555
C58_7 N24_7 1_555 1_555
C59_7 C60_7 1_555 1_555
C59_7 N24_7 1_555 1_555
C1_7 H1_7 1_555 1_555
C2_7 C1_7 1_555 1_555
H2_7 C2_7 1_555 1_555
C3_7 H3_7 1_555 1_555
N26_7 C1_7 1_555 1_555
N2_7 C2_7 1_555 1_555
C16_7 H13_7 1_555 1_555
C17_7 C16_7 1_555 1_555
H14_7 C17_7 1_555 1_555
C18_7 H15_7 1_555 1_555
N8_7 C17_7 1_555 1_555
C3_7 N26_7 1_555 1_555
C3_7 N2_7 1_555 1_555
C4_7 N2_7 1_555 1_555
C16_7 N28_7 1_555 1_555
C18_7 N28_7 1_555 1_555
C18_7 N8_7 1_555 1_555
C19_7 N8_7 1_555 1_555
C1_8 H1_8 1_555 1_555
C2_8 C1_8 1_555 1_555
H2_8 C2_8 1_555 1_555
C3_8 H3_8 1_555 1_555
C4_8 C5_8 1_555 1_555
C5_8 H4_8 1_555 1_555
N30_5 C1_8 1_555 1_555
N2_8 C2_8 1_555 1_555
C6_8 H5_8 1_555 1_555
C7_8 C6_8 1_555 1_555
C8_8 H7_8 1_555 1_555
C9_8 C10_8 1_555 1_555
C10_8 C4_8 1_555 1_555
H8_8 C10_8 1_555 1_555
N28_3 C6_8 1_555 1_555
N4_8 C7_8 1_555 1_555
C15_8 C9_8 1_555 1_555
C16_8 H13_8 1_555 1_555
C17_8 C16_8 1_555 1_555
H14_8 C17_8 1_555 1_555
C18_8 H15_8 1_555 1_555
C19_8 C20_8 1_555 1_555
C20_8 H16_8 1_555 1_555
N8_8 C17_8 1_555 1_555
C21_8 H17_8 1_555 1_555
C22_8 C21_8 1_555 1_555
H18_8 C22_8 1_555 1_555
C23_8 H19_8 1_555 1_555
C24_8 C25_8 1_555 1_555
C25_8 C19_8 1_555 1_555
H20_8 C25_8 1_555 1_555
N26_6 C21_8 1_555 1_555
N10_8 C22_8 1_555 1_555
C26_8 H21_8 1_555 1_555
C27_8 C26_8 1_555 1_555
H22_8 C27_8 1_555 1_555
C28_8 H23_8 1_555 1_555
C29_8 C20_8 1_555 1_555
C30_8 C24_8 1_555 1_555
H24_8 C30_8 1_555 1_555
N25_4 C26_8 1_555 1_555
N12_8 C27_8 1_555 1_555
C31_8 H25_8 1_555 1_555
C32_8 C31_8 1_555 1_555
H26_7 C32_8 1_555 1_555
C33_8 H27_8 1_555 1_555
C34_8 C35_8 1_555 1_555
C35_8 H28_8 1_555 1_555
N14_8 C32_8 1_555 1_555
C36_8 H29_8 1_555 1_555
C37_8 C36_8 1_555 1_555
H30_7 C37_8 1_555 1_555
C38_8 H31_8 1_555 1_555
C39_8 C40_8 1_555 1_555
C40_8 C34_8 1_555 1_555
H32_8 C40_8 1_555 1_555
N27_4 C36_8 1_555 1_555
N16_8 C37_8 1_555 1_555
C41_8 H33_8 1_555 1_555
C42_8 C41_8 1_555 1_555
H34_7 C42_8 1_555 1_555
C43_8 H35_8 1_555 1_555
C44_8 C35_8 1_555 1_555
C45_8 C39_8 1_555 1_555
H36_8 C45_8 1_555 1_555
N25_5 C41_8 1_555 1_555
N18_8 C42_8 1_555 1_555
C46_8 H37_8 1_555 1_555
C47_8 C46_8 1_555 1_555
C48_8 H39_8 1_555 1_555
C49_8 C50_8 1_555 1_555
C50_8 H40_8 1_555 1_555
N20_8 C47_8 1_555 1_555
C55_8 C49_8 1_555 1_555
C56_8 H45_8 1_555 1_555
C57_8 C56_8 1_555 1_555
H46_8 C57_8 1_555 1_555
C58_8 H47_8 1_555 1_555
C59_8 C50_8 1_555 1_555
H48_8 C60_8 1_555 1_555
N27_5 C56_8 1_555 1_555
N24_8 C57_8 1_555 1_555
C3_8 N30_5 1_555 1_555
C3_8 N2_8 1_555 1_555
C4_8 N2_8 1_555 1_555
C8_8 N28_3 1_555 1_555
C8_8 N4_8 1_555 1_555
C9_8 N4_8 1_555 1_555
C16_8 N29_5 1_555 1_555
C18_8 N29_5 1_555 1_555
C18_8 N8_8 1_555 1_555
C19_8 N8_8 1_555 1_555
C23_8 N26_6 1_555 1_555
C23_8 N10_8 1_555 1_555
C24_8 N10_8 1_555 1_555
C28_8 N25_4 1_555 1_555
C28_8 N12_8 1_555 1_555
C29_8 C30_8 1_555 1_555
C29_8 N12_8 1_555 1_555
C31_8 N26_3 1_555 1_555
C33_8 N26_3 1_555 1_555
C33_8 N14_8 1_555 1_555
C34_8 N14_8 1_555 1_555
C38_8 N27_4 1_555 1_555
C38_8 N16_8 1_555 1_555
C39_8 N16_8 1_555 1_555
C43_8 N25_5 1_555 1_555
C43_8 N18_8 1_555 1_555
C44_8 C45_8 1_555 1_555
C44_8 N18_8 1_555 1_555
C46_8 N28_6 1_555 1_555
C48_8 N28_6 1_555 1_555
C48_8 N20_8 1_555 1_555
C49_8 N20_8 1_555 1_555
C58_8 N27_5 1_555 1_555
C58_8 N24_8 1_555 1_555
C59_8 C60_8 1_555 1_555
C59_8 N24_8 1_555 1_555
C11_8 H9_8 1_555 1_555
C12_8 C11_8 1_555 1_555
H10_8 C12_8 1_555 1_555
C13_8 H11_8 1_555 1_555
N30_4 C11_8 1_555 1_555
N6_8 C12_8 1_555 1_555
C51_8 H41_8 1_555 1_555
C52_8 C51_8 1_555 1_555
H42_5 C52_8 1_555 1_555
C53_8 H43_8 1_555 1_555
N29_4 C51_8 1_555 1_555
N22_8 C52_8 1_555 1_555
C13_8 N30_4 1_555 1_555
C13_8 N6_8 1_555 1_555
C14_8 N6_8 1_555 1_555
C53_8 N29_4 1_555 1_555
C53_8 N22_8 1_555 1_555
C54_8 N22_8 1_555 1_555
C41_9 H33_9 1_555 1_555
C42_9 C41_9 1_555 1_555
C43_9 H35_9 1_555 1_555
N17_5 C41_9 1_555 1_555
N18_9 C42_9 1_555 1_555
C56_9 H45_9 1_555 1_555
C57_9 C56_9 1_555 1_555
H46_9 C57_9 1_555 1_555
C58_9 H47_9 1_555 1_555
N23_5 C56_9 1_555 1_555
N24_9 C57_9 1_555 1_555
Zn4_5 N17_5 1_555 1_555
C43_9 N17_5 1_555 1_555
C43_9 N18_9 1_555 1_555
C44_9 N18_9 1_555 1_555
C58_9 N23_5 1_555 1_555
C58_9 N24_9 1_555 1_555
C59_9 N24_9 1_555 1_555
N23_5 Zn4_5 1_555 1_555
C6_9 H5_9 1_555 1_555
C7_9 C6_9 1_555 1_555
H6_9 C7_9 1_555 1_555
C8_9 H7_9 1_555 1_555
N3_5 C6_9 1_555 1_555
N4_9 C7_9 1_555 1_555
Zn2_5 N3_5 1_555 1_555
C31_9 H25_9 1_555 1_555
C32_9 C31_9 1_555 1_555
C33_9 H27_9 1_555 1_555
N13_5 Zn2_5 1_555 1_555
N14_9 C32_9 1_555 1_555
N29_7 Zn2_5 1_555 1_555
N30_7 Zn2_5 1_555 1_555
C8_9 N3_5 1_555 1_555
C8_9 N4_9 1_555 1_555
C9_9 N4_9 1_555 1_555
C31_9 N13_5 1_555 1_555
C33_9 N13_5 1_555 1_555
C33_9 N14_9 1_555 1_555
C34_9 N14_9 1_555 1_555
C26_9 H21_9 1_555 1_555
C27_9 C26_9 1_555 1_555
H22_9 C27_9 1_555 1_555
C28_9 H23_9 1_555 1_555
N11_5 C26_9 1_555 1_555
N12_9 C27_9 1_555 1_555
C36_9 H29_9 1_555 1_555
C37_9 C36_9 1_555 1_555
C38_9 H31_9 1_555 1_555
N15_5 C36_9 1_555 1_555
N16_9 C37_9 1_555 1_555
Zn5_5 N11_5 1_555 1_555
C28_9 N11_5 1_555 1_555
C28_9 N12_9 1_555 1_555
C29_9 N12_9 1_555 1_555
C38_9 N15_5 1_555 1_555
C38_9 N16_9 1_555 1_555
C39_9 N16_9 1_555 1_555
N15_5 Zn5_5 1_555 1_555
Zn1_5 N1_5 1_555 1_555
C1_9 H1_9 1_555 1_555
C2_9 C1_9 1_555 1_555
C3_9 H3_9 1_555 1_555
C4_9 C5_9 1_555 1_555
C5_9 H4_9 1_555 1_555
N1_5 C1_9 1_555 1_555
N2_9 C2_9 1_555 1_555
C10_9 C4_9 1_555 1_555
C11_9 H9_9 1_555 1_555
C12_9 C11_9 1_555 1_555
H10_9 C12_9 1_555 1_555
C13_9 H11_9 1_555 1_555
C14_9 C5_9 1_555 1_555
H12_9 C15_9 1_555 1_555
N5_5 C11_9 1_555 1_555
N6_9 C12_9 1_555 1_555
C16_9 H13_9 1_555 1_555
C17_9 C16_9 1_555 1_555
H14_9 C17_9 1_555 1_555
C18_9 H15_9 1_555 1_555
C19_9 C20_9 1_555 1_555
C20_9 H16_9 1_555 1_555
N7_5 Zn1_5 1_555 1_555
N8_9 C17_9 1_555 1_555
C21_9 H17_9 1_555 1_555
C22_9 C21_9 1_555 1_555
C23_9 H19_9 1_555 1_555
C24_9 C25_9 1_555 1_555
C25_9 C19_9 1_555 1_555
H20_9 C25_9 1_555 1_555
N9_5 C21_9 1_555 1_555
N10_9 C22_9 1_555 1_555
C30_9 C24_9 1_555 1_555
Zn3_5 N9_5 1_555 1_555
C46_9 H37_9 1_555 1_555
C47_9 C46_9 1_555 1_555
H38_9 C47_9 1_555 1_555
C48_9 H39_9 1_555 1_555
C49_9 C50_9 1_555 1_555
C50_9 H40_9 1_555 1_555
N19_5 Zn3_5 1_555 1_555
N20_9 C47_9 1_555 1_555
C51_9 H41_9 1_555 1_555
C52_9 C51_9 1_555 1_555
C53_9 H43_9 1_555 1_555
C54_9 C55_9 1_555 1_555
C55_9 C49_9 1_555 1_555
H44_9 C55_9 1_555 1_555
N21_5 C51_9 1_555 1_555
N22_9 C52_9 1_555 1_555
C60_9 C54_9 1_555 1_555
Zn6_5 N5_5 1_555 1_555
N25_7 Zn3_5 1_555 1_555
N26_13 Zn1_5 1_555 1_555
N27_7 Zn3_5 1_555 1_555
N28_13 Zn1_5 1_555 1_555
C3_9 N1_5 1_555 1_555
C3_9 N2_9 1_555 1_555
C4_9 N2_9 1_555 1_555
C13_9 N5_5 1_555 1_555
C13_9 N6_9 1_555 1_555
C14_9 C15_9 1_555 1_555
C14_9 N6_9 1_555 1_555
C16_9 N7_5 1_555 1_555
C18_9 N7_5 1_555 1_555
C18_9 N8_9 1_555 1_555
C19_9 N8_9 1_555 1_555
C23_9 N9_5 1_555 1_555
C23_9 N10_9 1_555 1_555
C24_9 N10_9 1_555 1_555
C46_9 N19_5 1_555 1_555
C48_9 N19_5 1_555 1_555
C48_9 N20_9 1_555 1_555
C49_9 N20_9 1_555 1_555
C53_9 N21_5 1_555 1_555
C53_9 N22_9 1_555 1_555
C54_9 N22_9 1_555 1_555
N21_5 Zn6_5 1_555 1_555
C26_10 H21_10 1_555 1_555
C27_10 C26_10 1_555 1_555
H22_10 C27_10 1_555 1_555
C28_10 H23_10 1_555 1_555
N11_6 C26_10 1_555 1_555
N12_10 C27_10 1_555 1_555
C36_10 H29_10 1_555 1_555
C37_10 C36_10 1_555 1_555
H30_9 C37_10 1_555 1_555
C38_10 H31_10 1_555 1_555
N15_6 C36_10 1_555 1_555
N16_10 C37_10 1_555 1_555
Zn5_6 N11_6 1_555 1_555
C28_10 N11_6 1_555 1_555
C28_10 N12_10 1_555 1_555
C29_10 N12_10 1_555 1_555
C38_10 N15_6 1_555 1_555
C38_10 N16_10 1_555 1_555
C39_10 N16_10 1_555 1_555
N15_6 Zn5_6 1_555 1_555
Zn1_6 N1_6 1_555 1_555
C1_10 H1_10 1_555 1_555
C2_10 C1_10 1_555 1_555
H2_10 C2_10 1_555 1_555
C3_10 H3_10 1_555 1_555
C4_10 C5_10 1_555 1_555
C5_10 H4_10 1_555 1_555
N1_6 C1_10 1_555 1_555
N2_10 C2_10 1_555 1_555
C6_10 H5_10 1_555 1_555
C7_10 C6_10 1_555 1_555
H6_10 C7_10 1_555 1_555
C8_10 H7_10 1_555 1_555
C9_10 C10_10 1_555 1_555
C10_10 C4_10 1_555 1_555
H8_10 C10_10 1_555 1_555
N3_6 C6_10 1_555 1_555
N4_10 C7_10 1_555 1_555
C11_10 H9_10 1_555 1_555
C12_10 C11_10 1_555 1_555
H10_10 C12_10 1_555 1_555
C13_10 H11_10 1_555 1_555
C14_10 C5_10 1_555 1_555
C15_10 C9_10 1_555 1_555
H12_10 C15_10 1_555 1_555
N5_6 C11_10 1_555 1_555
N6_10 C12_10 1_555 1_555
C16_10 H13_10 1_555 1_555
C17_10 C16_10 1_555 1_555
H14_10 C17_10 1_555 1_555
C18_10 H15_10 1_555 1_555
C19_10 C20_10 1_555 1_555
C20_10 H16_10 1_555 1_555
N7_6 Zn1_6 1_555 1_555
N8_10 C17_10 1_555 1_555
C21_10 H17_10 1_555 1_555
C22_10 C21_10 1_555 1_555
C23_10 H19_10 1_555 1_555
C24_10 C25_10 1_555 1_555
C25_10 C19_10 1_555 1_555
H20_10 C25_10 1_555 1_555
N9_6 C21_10 1_555 1_555
N10_10 C22_10 1_555 1_555
C30_10 C24_10 1_555 1_555
Zn2_6 N3_6 1_555 1_555
C31_10 H25_10 1_555 1_555
C32_10 C31_10 1_555 1_555
C33_10 H27_10 1_555 1_555
C34_10 C35_10 1_555 1_555
C35_10 H28_10 1_555 1_555
N13_6 Zn2_6 1_555 1_555
N14_10 C32_10 1_555 1_555
C40_10 C34_10 1_555 1_555
C41_10 H33_10 1_555 1_555
C42_10 C41_10 1_555 1_555
H34_9 C42_10 1_555 1_555
C43_10 H35_10 1_555 1_555
C44_10 C35_10 1_555 1_555
H36_10 C45_10 1_555 1_555
N17_6 C41_10 1_555 1_555
N18_10 C42_10 1_555 1_555
Zn3_6 N9_6 1_555 1_555
C46_10 H37_10 1_555 1_555
C47_10 C46_10 1_555 1_555
H38_10 C47_10 1_555 1_555
C48_10 H39_10 1_555 1_555
C49_10 C50_10 1_555 1_555
C50_10 H40_10 1_555 1_555
N19_6 Zn3_6 1_555 1_555
N20_10 C47_10 1_555 1_555
C51_10 H41_10 1_555 1_555
C52_10 C51_10 1_555 1_555
H42_8 C52_10 1_555 1_555
C53_10 H43_10 1_555 1_555
C54_10 C55_10 1_555 1_555
C55_10 C49_10 1_555 1_555
H44_10 C55_10 1_555 1_555
N21_6 C51_10 1_555 1_555
N22_10 C52_10 1_555 1_555
C56_10 H45_10 1_555 1_555
C57_10 C56_10 1_555 1_555
H46_10 C57_10 1_555 1_555
C58_10 H47_10 1_555 1_555
C59_10 C50_10 1_555 1_555
C60_10 C54_10 1_555 1_555
H48_10 C60_10 1_555 1_555
N23_6 C56_10 1_555 1_555
N24_10 C57_10 1_555 1_555
Zn4_6 N17_6 1_555 1_555
Zn6_6 N5_6 1_555 1_555
N25_8 Zn3_6 1_555 1_555
N26_14 Zn1_6 1_555 1_555
N27_8 Zn3_6 1_555 1_555
N28_14 Zn1_6 1_555 1_555
N29_8 Zn2_6 1_555 1_555
N30_8 Zn2_6 1_555 1_555
C3_10 N1_6 1_555 1_555
C3_10 N2_10 1_555 1_555
C4_10 N2_10 1_555 1_555
C8_10 N3_6 1_555 1_555
C8_10 N4_10 1_555 1_555
C9_10 N4_10 1_555 1_555
C13_10 N5_6 1_555 1_555
C13_10 N6_10 1_555 1_555
C14_10 C15_10 1_555 1_555
C14_10 N6_10 1_555 1_555
C16_10 N7_6 1_555 1_555
C18_10 N7_6 1_555 1_555
C18_10 N8_10 1_555 1_555
C19_10 N8_10 1_555 1_555
C23_10 N9_6 1_555 1_555
C23_10 N10_10 1_555 1_555
C24_10 N10_10 1_555 1_555
C31_10 N13_6 1_555 1_555
C33_10 N13_6 1_555 1_555
C33_10 N14_10 1_555 1_555
C34_10 N14_10 1_555 1_555
C43_10 N17_6 1_555 1_555
C43_10 N18_10 1_555 1_555
C44_10 C45_10 1_555 1_555
C44_10 N18_10 1_555 1_555
C46_10 N19_6 1_555 1_555
C48_10 N19_6 1_555 1_555
C48_10 N20_10 1_555 1_555
C49_10 N20_10 1_555 1_555
C53_10 N21_6 1_555 1_555
C53_10 N22_10 1_555 1_555
C54_10 N22_10 1_555 1_555
N21_6 Zn6_6 1_555 1_555
C58_10 N23_6 1_555 1_555
C58_10 N24_10 1_555 1_555
C59_10 C60_10 1_555 1_555
C59_10 N24_10 1_555 1_555
N23_6 Zn4_6 1_555 1_555
N29_9 Zn4_5 1_555 1_555
N30_9 Zn4_5 1_555 1_555
N26_15 Zn5_5 1_555 1_555
N28_15 Zn5_5 1_555 1_555
N26_16 Zn6_5 1_555 1_555
N28_16 Zn6_5 1_555 1_555
Zn1_7 N1_7 1_555 1_555
C1_11 H1_11 1_555 1_555
C2_11 C1_11 1_555 1_555
H2_11 C2_11 1_555 1_555
C3_11 H3_11 1_555 1_555
N1_7 C1_11 1_555 1_555
N2_11 C2_11 1_555 1_555
C16_11 H13_11 1_555 1_555
C17_11 C16_11 1_555 1_555
H14_11 C17_11 1_555 1_555
C18_11 H15_11 1_555 1_555
N7_7 Zn1_7 1_555 1_555
N8_11 C17_11 1_555 1_555
N26_17 Zn1_7 1_555 1_555
N28_17 Zn1_7 1_555 1_555
C3_11 N1_7 1_555 1_555
C3_11 N2_11 1_555 1_555
C4_11 N2_11 1_555 1_555
C16_11 N7_7 1_555 1_555
C18_11 N7_7 1_555 1_555
C18_11 N8_11 1_555 1_555
C19_11 N8_11 1_555 1_555
C6_11 H5_11 1_555 1_555
C7_11 C6_11 1_555 1_555
H6_11 C7_11 1_555 1_555
C8_11 H7_11 1_555 1_555
C9_11 C10_11 1_555 1_555
H8_11 C10_11 1_555 1_555
N3_7 C6_11 1_555 1_555
N4_11 C7_11 1_555 1_555
C11_11 H9_11 1_555 1_555
C12_11 C11_11 1_555 1_555
C13_11 H11_11 1_555 1_555
C14_11 C5_11 1_555 1_555
C15_11 C9_11 1_555 1_555
H12_11 C15_11 1_555 1_555
N5_7 C11_11 1_555 1_555
N6_11 C12_11 1_555 1_555
C21_11 H17_11 1_555 1_555
C22_11 C21_11 1_555 1_555
H18_11 C22_11 1_555 1_555
C23_11 H19_11 1_555 1_555
C24_11 C25_11 1_555 1_555
H20_11 C25_11 1_555 1_555
N9_7 C21_11 1_555 1_555
N10_11 C22_11 1_555 1_555
C26_11 H21_11 1_555 1_555
C27_11 C26_11 1_555 1_555
C28_11 H23_11 1_555 1_555
C29_11 C20_11 1_555 1_555
C30_11 C24_11 1_555 1_555
H24_11 C30_11 1_555 1_555
N11_7 C26_11 1_555 1_555
N12_11 C27_11 1_555 1_555
Zn2_7 N3_7 1_555 1_555
C31_11 H25_11 1_555 1_555
C32_11 C31_11 1_555 1_555
H26_9 C32_11 1_555 1_555
C33_11 H27_11 1_555 1_555
C34_11 C35_11 1_555 1_555
C35_11 H28_11 1_555 1_555
N13_7 Zn2_7 1_555 1_555
N14_11 C32_11 1_555 1_555
C36_11 H29_11 1_555 1_555
C37_11 C36_11 1_555 1_555
H30_10 C37_11 1_555 1_555
C38_11 H31_11 1_555 1_555
C39_11 C40_11 1_555 1_555
C40_11 C34_11 1_555 1_555
H32_11 C40_11 1_555 1_555
N15_7 C36_11 1_555 1_555
N16_11 C37_11 1_555 1_555
C41_11 H33_11 1_555 1_555
C42_11 C41_11 1_555 1_555
H34_10 C42_11 1_555 1_555
C43_11 H35_11 1_555 1_555
C44_11 C35_11 1_555 1_555
C45_11 C39_11 1_555 1_555
H36_11 C45_11 1_555 1_555
N17_7 C41_11 1_555 1_555
N18_11 C42_11 1_555 1_555
Zn3_7 N9_7 1_555 1_555
C46_11 H37_11 1_555 1_555
C47_11 C46_11 1_555 1_555
H38_11 C47_11 1_555 1_555
C48_11 H39_11 1_555 1_555
C49_11 C50_11 1_555 1_555
C50_11 H40_11 1_555 1_555
N19_7 Zn3_7 1_555 1_555
N20_11 C47_11 1_555 1_555
C51_11 H41_11 1_555 1_555
C52_11 C51_11 1_555 1_555
H42_9 C52_11 1_555 1_555
C53_11 H43_11 1_555 1_555
C54_11 C55_11 1_555 1_555
C55_11 C49_11 1_555 1_555
H44_11 C55_11 1_555 1_555
N21_7 C51_11 1_555 1_555
N22_11 C52_11 1_555 1_555
C56_11 H45_11 1_555 1_555
C57_11 C56_11 1_555 1_555
H46_11 C57_11 1_555 1_555
C58_11 H47_11 1_555 1_555
C59_11 C50_11 1_555 1_555
C60_11 C54_11 1_555 1_555
H48_11 C60_11 1_555 1_555
N23_7 C56_11 1_555 1_555
N24_11 C57_11 1_555 1_555
Zn4_7 N17_7 1_555 1_555
Zn5_7 N11_7 1_555 1_555
Zn6_7 N5_7 1_555 1_555
N25_9 Zn3_7 1_555 1_555
N27_9 Zn3_7 1_555 1_555
N29_10 Zn2_7 1_555 1_555
N30_10 Zn2_7 1_555 1_555
C8_11 N3_7 1_555 1_555
C8_11 N4_11 1_555 1_555
C9_11 N4_11 1_555 1_555
C13_11 N5_7 1_555 1_555
C13_11 N6_11 1_555 1_555
C14_11 C15_11 1_555 1_555
C14_11 N6_11 1_555 1_555
C23_11 N9_7 1_555 1_555
C23_11 N10_11 1_555 1_555
C24_11 N10_11 1_555 1_555
C28_11 N11_7 1_555 1_555
C28_11 N12_11 1_555 1_555
C29_11 C30_11 1_555 1_555
C29_11 N12_11 1_555 1_555
C31_11 N13_7 1_555 1_555
C33_11 N13_7 1_555 1_555
C33_11 N14_11 1_555 1_555
C34_11 N14_11 1_555 1_555
C38_11 N15_7 1_555 1_555
C38_11 N16_11 1_555 1_555
C39_11 N16_11 1_555 1_555
N15_7 Zn5_7 1_555 1_555
C43_11 N17_7 1_555 1_555
C43_11 N18_11 1_555 1_555
C44_11 C45_11 1_555 1_555
C44_11 N18_11 1_555 1_555
C46_11 N19_7 1_555 1_555
C48_11 N19_7 1_555 1_555
C48_11 N20_11 1_555 1_555
C49_11 N20_11 1_555 1_555
C53_11 N21_7 1_555 1_555
C53_11 N22_11 1_555 1_555
C54_11 N22_11 1_555 1_555
N21_7 Zn6_7 1_555 1_555
C58_11 N23_7 1_555 1_555
C58_11 N24_11 1_555 1_555
C59_11 C60_11 1_555 1_555
C59_11 N24_11 1_555 1_555
N23_7 Zn4_7 1_555 1_555
C11_12 H9_12 1_555 1_555
C12_12 C11_12 1_555 1_555
H10_12 C12_12 1_555 1_555
C13_12 H11_12 1_555 1_555
N5_8 C11_12 1_555 1_555
N6_12 C12_12 1_555 1_555
C51_12 H41_12 1_555 1_555
C52_12 C51_12 1_555 1_555
H42_10 C52_12 1_555 1_555
C53_12 H43_12 1_555 1_555
N21_8 C51_12 1_555 1_555
N22_12 C52_12 1_555 1_555
Zn6_8 N5_8 1_555 1_555
C13_12 N5_8 1_555 1_555
C13_12 N6_12 1_555 1_555
C14_12 N6_12 1_555 1_555
C53_12 N21_8 1_555 1_555
C53_12 N22_12 1_555 1_555
C54_12 N22_12 1_555 1_555
N21_8 Zn6_8 1_555 1_555
Zn1_8 N1_8 1_555 1_555
C1_12 H1_12 1_555 1_555
C2_12 C1_12 1_555 1_555
H2_12 C2_12 1_555 1_555
C3_12 H3_12 1_555 1_555
C4_12 C5_12 1_555 1_555
C5_12 H4_12 1_555 1_555
N1_8 C1_12 1_555 1_555
N2_12 C2_12 1_555 1_555
C6_12 H5_12 1_555 1_555
C7_12 C6_12 1_555 1_555
C8_12 H7_12 1_555 1_555
C9_12 C10_12 1_555 1_555
C10_12 C4_12 1_555 1_555
H8_12 C10_12 1_555 1_555
N3_8 C6_12 1_555 1_555
N4_12 C7_12 1_555 1_555
C15_12 C9_12 1_555 1_555
C16_12 H13_12 1_555 1_555
C17_12 C16_12 1_555 1_555
H14_12 C17_12 1_555 1_555
C18_12 H15_12 1_555 1_555
C19_12 C20_12 1_555 1_555
C20_12 H16_12 1_555 1_555
N7_8 Zn1_8 1_555 1_555
N8_12 C17_12 1_555 1_555
C21_12 H17_12 1_555 1_555
C22_12 C21_12 1_555 1_555
H18_12 C22_12 1_555 1_555
C23_12 H19_12 1_555 1_555
C24_12 C25_12 1_555 1_555
C25_12 C19_12 1_555 1_555
H20_12 C25_12 1_555 1_555
N9_8 C21_12 1_555 1_555
N10_12 C22_12 1_555 1_555
C26_12 H21_12 1_555 1_555
C27_12 C26_12 1_555 1_555
H22_12 C27_12 1_555 1_555
C28_12 H23_12 1_555 1_555
C29_12 C20_12 1_555 1_555
C30_12 C24_12 1_555 1_555
H24_12 C30_12 1_555 1_555
N11_8 C26_12 1_555 1_555
N12_12 C27_12 1_555 1_555
Zn2_8 N3_8 1_555 1_555
C31_12 H25_12 1_555 1_555
C32_12 C31_12 1_555 1_555
H26_10 C32_12 1_555 1_555
C33_12 H27_12 1_555 1_555
C34_12 C35_12 1_555 1_555
C35_12 H28_12 1_555 1_555
N13_8 Zn2_8 1_555 1_555
N14_12 C32_12 1_555 1_555
C36_12 H29_12 1_555 1_555
C37_12 C36_12 1_555 1_555
H30_11 C37_12 1_555 1_555
C38_12 H31_12 1_555 1_555
C39_12 C40_12 1_555 1_555
C40_12 C34_12 1_555 1_555
H32_12 C40_12 1_555 1_555
N15_8 C36_12 1_555 1_555
N16_12 C37_12 1_555 1_555
C41_12 H33_12 1_555 1_555
C42_12 C41_12 1_555 1_555
H34_11 C42_12 1_555 1_555
C43_12 H35_12 1_555 1_555
C44_12 C35_12 1_555 1_555
C45_12 C39_12 1_555 1_555
H36_12 C45_12 1_555 1_555
N17_8 C41_12 1_555 1_555
N18_12 C42_12 1_555 1_555
Zn3_8 N9_8 1_555 1_555
C46_12 H37_12 1_555 1_555
C47_12 C46_12 1_555 1_555
C48_12 H39_12 1_555 1_555
C49_12 C50_12 1_555 1_555
C50_12 H40_12 1_555 1_555
N19_8 Zn3_8 1_555 1_555
N20_12 C47_12 1_555 1_555
C55_12 C49_12 1_555 1_555
C56_12 H45_12 1_555 1_555
C57_12 C56_12 1_555 1_555
H46_12 C57_12 1_555 1_555
C58_12 H47_12 1_555 1_555
C59_12 C50_12 1_555 1_555
H48_12 C60_12 1_555 1_555
N23_8 C56_12 1_555 1_555
N24_12 C57_12 1_555 1_555
Zn4_8 N17_8 1_555 1_555
Zn5_8 N11_8 1_555 1_555
N25_10 Zn3_8 1_555 1_555
N26_18 Zn1_8 1_555 1_555
N27_10 Zn3_8 1_555 1_555
N28_18 Zn1_8 1_555 1_555
N29_11 Zn2_8 1_555 1_555
N30_11 Zn2_8 1_555 1_555
C3_12 N1_8 1_555 1_555
C3_12 N2_12 1_555 1_555
C4_12 N2_12 1_555 1_555
C8_12 N3_8 1_555 1_555
C8_12 N4_12 1_555 1_555
C9_12 N4_12 1_555 1_555
C16_12 N7_8 1_555 1_555
C18_12 N7_8 1_555 1_555
C18_12 N8_12 1_555 1_555
C19_12 N8_12 1_555 1_555
C23_12 N9_8 1_555 1_555
C23_12 N10_12 1_555 1_555
C24_12 N10_12 1_555 1_555
C28_12 N11_8 1_555 1_555
C28_12 N12_12 1_555 1_555
C29_12 C30_12 1_555 1_555
C29_12 N12_12 1_555 1_555
C31_12 N13_8 1_555 1_555
C33_12 N13_8 1_555 1_555
C33_12 N14_12 1_555 1_555
C34_12 N14_12 1_555 1_555
C38_12 N15_8 1_555 1_555
C38_12 N16_12 1_555 1_555
C39_12 N16_12 1_555 1_555
N15_8 Zn5_8 1_555 1_555
C43_12 N17_8 1_555 1_555
C43_12 N18_12 1_555 1_555
C44_12 C45_12 1_555 1_555
C44_12 N18_12 1_555 1_555
C46_12 N19_8 1_555 1_555
C48_12 N19_8 1_555 1_555
C48_12 N20_12 1_555 1_555
C49_12 N20_12 1_555 1_555
C58_12 N23_8 1_555 1_555
C58_12 N24_12 1_555 1_555
C59_12 C60_12 1_555 1_555
C59_12 N24_12 1_555 1_555
N23_8 Zn4_8 1_555 1_555
N26_19 Zn5_8 1_555 1_555
N28_19 Zn5_8 1_555 1_555
N29_12 Zn4_8 1_555 1_555
N30_12 Zn4_8 1_555 1_555
N26_20 Zn5_6 1_555 1_555
N28_20 Zn5_6 1_555 1_555
N29_13 Zn4_6 1_555 1_555
N30_13 Zn4_6 1_555 1_555
N25_11 Zn5_7 1_555 1_555
N27_11 Zn5_7 1_555 1_555
N29_14 Zn6_7 1_555 1_555
N30_14 Zn6_7 1_555 1_555
N26_21 Zn4_7 1_555 1_555
N28_21 Zn4_7 1_555 1_555
N29_15 Zn6_8 1_555 1_555
N30_15 Zn6_8 1_555 1_555
N29_16 Zn6_6 1_555 1_555
N30_16 Zn6_6 1_555 1_555
C41_13 H33_13 1_555 1_555
C42_13 C41_13 1_555 1_555
H34_12 C42_13 1_555 1_555
C43_13 H35_13 1_555 1_555
N30_8 C41_13 1_555 1_555
N18_13 C42_13 1_555 1_555
C56_13 H45_13 1_555 1_555
C57_13 C56_13 1_555 1_555
H46_13 C57_13 1_555 1_555
C58_13 H47_13 1_555 1_555
N29_8 C56_13 1_555 1_555
N24_13 C57_13 1_555 1_555
C43_13 N30_8 1_555 1_555
C43_13 N18_13 1_555 1_555
C44_13 N18_13 1_555 1_555
C58_13 N29_8 1_555 1_555
C58_13 N24_13 1_555 1_555
C59_13 N24_13 1_555 1_555
C11_13 H9_13 1_555 1_555
C12_13 C11_13 1_555 1_555
H10_13 C12_13 1_555 1_555
C13_13 H11_13 1_555 1_555
N30_10 C11_13 1_555 1_555
N6_13 C12_13 1_555 1_555
C51_13 H41_13 1_555 1_555
C52_13 C51_13 1_555 1_555
C53_13 H43_13 1_555 1_555
N29_10 C51_13 1_555 1_555
N22_13 C52_13 1_555 1_555
C13_13 N30_10 1_555 1_555
C13_13 N6_13 1_555 1_555
C14_13 N6_13 1_555 1_555
C53_13 N29_10 1_555 1_555
C53_13 N22_13 1_555 1_555
C54_13 N22_13 1_555 1_555
C1_13 H1_13 1_555 1_555
C2_13 C1_13 1_555 1_555
H2_13 C2_13 1_555 1_555
C3_13 H3_13 1_555 1_555
C4_13 C5_13 1_555 1_555
C5_13 H4_13 1_555 1_555
N25_8 C1_13 1_555 1_555
N2_13 C2_13 1_555 1_555
C6_13 H5_13 1_555 1_555
C7_13 C6_13 1_555 1_555
C8_13 H7_13 1_555 1_555
C9_13 C10_13 1_555 1_555
C10_13 C4_13 1_555 1_555
H8_13 C10_13 1_555 1_555
N29_9 C6_13 1_555 1_555
N4_13 C7_13 1_555 1_555
C15_13 C9_13 1_555 1_555
C16_13 H13_13 1_555 1_555
C17_13 C16_13 1_555 1_555
H14_13 C17_13 1_555 1_555
C18_13 H15_13 1_555 1_555
C19_13 C20_13 1_555 1_555
C20_13 H16_13 1_555 1_555
N8_13 C17_13 1_555 1_555
C21_13 H17_13 1_555 1_555
C22_13 C21_13 1_555 1_555
H18_13 C22_13 1_555 1_555
C23_13 H19_13 1_555 1_555
C24_13 C25_13 1_555 1_555
C25_13 C19_13 1_555 1_555
H20_13 C25_13 1_555 1_555
N28_13 C21_13 1_555 1_555
N10_13 C22_13 1_555 1_555
C26_13 H21_13 1_555 1_555
C27_13 C26_13 1_555 1_555
H22_13 C27_13 1_555 1_555
C28_13 H23_13 1_555 1_555
C29_13 C20_13 1_555 1_555
C30_13 C24_13 1_555 1_555
H24_13 C30_13 1_555 1_555
N25_9 C26_13 1_555 1_555
N12_13 C27_13 1_555 1_555
C31_13 H25_13 1_555 1_555
C32_13 C31_13 1_555 1_555
H26_11 C32_13 1_555 1_555
C33_13 H27_13 1_555 1_555
C34_13 C35_13 1_555 1_555
C35_13 H28_13 1_555 1_555
N14_13 C32_13 1_555 1_555
C36_13 H29_13 1_555 1_555
C37_13 C36_13 1_555 1_555
C38_13 H31_13 1_555 1_555
C39_13 C40_13 1_555 1_555
C40_13 C34_13 1_555 1_555
H32_13 C40_13 1_555 1_555
N27_9 C36_13 1_555 1_555
N16_13 C37_13 1_555 1_555
C45_13 C39_13 1_555 1_555
C46_13 H37_13 1_555 1_555
C47_13 C46_13 1_555 1_555
C48_13 H39_13 1_555 1_555
C49_13 C50_13 1_555 1_555
C50_13 H40_13 1_555 1_555
N20_13 C47_13 1_555 1_555
C55_13 C49_13 1_555 1_555
C3_13 N25_8 1_555 1_555
C3_13 N2_13 1_555 1_555
C4_13 N2_13 1_555 1_555
C8_13 N29_9 1_555 1_555
C8_13 N4_13 1_555 1_555
C9_13 N4_13 1_555 1_555
C16_13 N27_8 1_555 1_555
C18_13 N27_8 1_555 1_555
C18_13 N8_13 1_555 1_555
C19_13 N8_13 1_555 1_555
C23_13 N28_13 1_555 1_555
C23_13 N10_13 1_555 1_555
C24_13 N10_13 1_555 1_555
C28_13 N25_9 1_555 1_555
C28_13 N12_13 1_555 1_555
C29_13 C30_13 1_555 1_555
C29_13 N12_13 1_555 1_555
C31_13 N30_9 1_555 1_555
C33_13 N30_9 1_555 1_555
C33_13 N14_13 1_555 1_555
C34_13 N14_13 1_555 1_555
C38_13 N27_9 1_555 1_555
C38_13 N16_13 1_555 1_555
C39_13 N16_13 1_555 1_555
C46_13 N26_13 1_555 1_555
C48_13 N26_13 1_555 1_555
C48_13 N20_13 1_555 1_555
C49_13 N20_13 1_555 1_555
C11_14 H9_14 1_555 1_555
C12_14 C11_14 1_555 1_555
H10_14 C12_14 1_555 1_555
C13_14 H11_14 1_555 1_555
N30_13 C11_14 1_555 1_555
N6_14 C12_14 1_555 1_555
C51_14 H41_14 1_555 1_555
C52_14 C51_14 1_555 1_555
C53_14 H43_14 1_555 1_555
N29_13 C51_14 1_555 1_555
N22_14 C52_14 1_555 1_555
C13_14 N30_13 1_555 1_555
C13_14 N6_14 1_555 1_555
C14_14 N6_14 1_555 1_555
C53_14 N29_13 1_555 1_555
C53_14 N22_14 1_555 1_555
C54_14 N22_14 1_555 1_555
C41_14 H33_14 1_555 1_555
C42_14 C41_14 1_555 1_555
H34_13 C42_14 1_555 1_555
C43_14 H35_14 1_555 1_555
N25_10 C41_14 1_555 1_555
N18_14 C42_14 1_555 1_555
C56_14 H45_14 1_555 1_555
C57_14 C56_14 1_555 1_555
H46_14 C57_14 1_555 1_555
C58_14 H47_14 1_555 1_555
N27_10 C56_14 1_555 1_555
N24_14 C57_14 1_555 1_555
C43_14 N25_10 1_555 1_555
C43_14 N18_14 1_555 1_555
C44_14 N18_14 1_555 1_555
C58_14 N27_10 1_555 1_555
C58_14 N24_14 1_555 1_555
C59_14 N24_14 1_555 1_555
C1_14 H1_14 1_555 1_555
C2_14 C1_14 1_555 1_555
H2_14 C2_14 1_555 1_555
C3_14 H3_14 1_555 1_555
C4_14 C5_14 1_555 1_555
C5_14 H4_14 1_555 1_555
N30_11 C1_14 1_555 1_555
N2_14 C2_14 1_555 1_555
C6_14 H5_14 1_555 1_555
C7_14 C6_14 1_555 1_555
C8_14 H7_14 1_555 1_555
C9_14 C10_14 1_555 1_555
C10_14 C4_14 1_555 1_555
H8_14 C10_14 1_555 1_555
N30_7 C6_14 1_555 1_555
N4_14 C7_14 1_555 1_555
C15_14 C9_14 1_555 1_555
C16_14 H13_14 1_555 1_555
C17_14 C16_14 1_555 1_555
H14_14 C17_14 1_555 1_555
C18_14 H15_14 1_555 1_555
C19_14 C20_14 1_555 1_555
C20_14 H16_14 1_555 1_555
N8_14 C17_14 1_555 1_555
C21_14 H17_14 1_555 1_555
C22_14 C21_14 1_555 1_555
H18_14 C22_14 1_555 1_555
C23_14 H19_14 1_555 1_555
C24_14 C25_14 1_555 1_555
C25_14 C19_14 1_555 1_555
H20_14 C25_14 1_555 1_555
N27_7 C21_14 1_555 1_555
N10_14 C22_14 1_555 1_555
C26_14 H21_14 1_555 1_555
C27_14 C26_14 1_555 1_555
H22_14 C27_14 1_555 1_555
C28_14 H23_14 1_555 1_555
C29_14 C20_14 1_555 1_555
C30_14 C24_14 1_555 1_555
H24_14 C30_14 1_555 1_555
N28_14 C26_14 1_555 1_555
N12_14 C27_14 1_555 1_555
C31_14 H25_14 1_555 1_555
C32_14 C31_14 1_555 1_555
H26_12 C32_14 1_555 1_555
C33_14 H27_14 1_555 1_555
C34_14 C35_14 1_555 1_555
C35_14 H28_14 1_555 1_555
N14_14 C32_14 1_555 1_555
C36_14 H29_14 1_555 1_555
C37_14 C36_14 1_555 1_555
C38_14 H31_14 1_555 1_555
C39_14 C40_14 1_555 1_555
C40_14 C34_14 1_555 1_555
H32_14 C40_14 1_555 1_555
N26_14 C36_14 1_555 1_555
N16_14 C37_14 1_555 1_555
C45_14 C39_14 1_555 1_555
C46_14 H37_14 1_555 1_555
C47_14 C46_14 1_555 1_555
C48_14 H39_14 1_555 1_555
C49_14 C50_14 1_555 1_555
C50_14 H40_14 1_555 1_555
N20_14 C47_14 1_555 1_555
C55_14 C49_14 1_555 1_555
C3_14 N30_11 1_555 1_555
C3_14 N2_14 1_555 1_555
C4_14 N2_14 1_555 1_555
C8_14 N30_7 1_555 1_555
C8_14 N4_14 1_555 1_555
C9_14 N4_14 1_555 1_555
C16_14 N29_11 1_555 1_555
C18_14 N29_11 1_555 1_555
C18_14 N8_14 1_555 1_555
C19_14 N8_14 1_555 1_555
C23_14 N27_7 1_555 1_555
C23_14 N10_14 1_555 1_555
C24_14 N10_14 1_555 1_555
C28_14 N28_14 1_555 1_555
C28_14 N12_14 1_555 1_555
C29_14 C30_14 1_555 1_555
C29_14 N12_14 1_555 1_555
C31_14 N29_7 1_555 1_555
C33_14 N29_7 1_555 1_555
C33_14 N14_14 1_555 1_555
C34_14 N14_14 1_555 1_555
C38_14 N26_14 1_555 1_555
C38_14 N16_14 1_555 1_555
C39_14 N16_14 1_555 1_555
C46_14 N25_7 1_555 1_555
C48_14 N25_7 1_555 1_555
C48_14 N20_14 1_555 1_555
C49_14 N20_14 1_555 1_555
C41_15 H33_15 1_555 1_555
C42_15 C41_15 1_555 1_555
H34_14 C42_15 1_555 1_555
C43_15 H35_15 1_555 1_555
N29_14 C41_15 1_555 1_555
N18_15 C42_15 1_555 1_555
C56_15 H45_15 1_555 1_555
C57_15 C56_15 1_555 1_555
H46_15 C57_15 1_555 1_555
C58_15 H47_15 1_555 1_555
N30_14 C56_15 1_555 1_555
N24_15 C57_15 1_555 1_555
C43_15 N29_14 1_555 1_555
C43_15 N18_15 1_555 1_555
C44_15 N18_15 1_555 1_555
C58_15 N30_14 1_555 1_555
C58_15 N24_15 1_555 1_555
C59_15 N24_15 1_555 1_555
C11_15 H9_15 1_555 1_555
C12_15 C11_15 1_555 1_555
H10_15 C12_15 1_555 1_555
C13_15 H11_15 1_555 1_555
N29_12 C11_15 1_555 1_555
N6_15 C12_15 1_555 1_555
C51_15 H41_15 1_555 1_555
C52_15 C51_15 1_555 1_555
C53_15 H43_15 1_555 1_555
N30_12 C51_15 1_555 1_555
N22_15 C52_15 1_555 1_555
C13_15 N29_12 1_555 1_555
C13_15 N6_15 1_555 1_555
C14_15 N6_15 1_555 1_555
C53_15 N30_12 1_555 1_555
C53_15 N22_15 1_555 1_555
C54_15 N22_15 1_555 1_555
C1_15 H1_15 1_555 1_555
C2_15 C1_15 1_555 1_555
H2_15 C2_15 1_555 1_555
C3_15 H3_15 1_555 1_555
C4_15 C5_15 1_555 1_555
C5_15 H4_15 1_555 1_555
N27_11 C1_15 1_555 1_555
N2_15 C2_15 1_555 1_555
C6_15 H5_15 1_555 1_555
C7_15 C6_15 1_555 1_555
C8_15 H7_15 1_555 1_555
C9_15 C10_15 1_555 1_555
C10_15 C4_15 1_555 1_555
H8_15 C10_15 1_555 1_555
N28_15 C6_15 1_555 1_555
N4_15 C7_15 1_555 1_555
C15_15 C9_15 1_555 1_555
C16_15 H13_15 1_555 1_555
C17_15 C16_15 1_555 1_555
H14_15 C17_15 1_555 1_555
C18_15 H15_15 1_555 1_555
C19_15 C20_15 1_555 1_555
C20_15 H16_15 1_555 1_555
N8_15 C17_15 1_555 1_555
C21_15 H17_15 1_555 1_555
C22_15 C21_15 1_555 1_555
H18_15 C22_15 1_555 1_555
C23_15 H19_15 1_555 1_555
C24_15 C25_15 1_555 1_555
C25_15 C19_15 1_555 1_555
H20_15 C25_15 1_555 1_555
N28_16 C21_15 1_555 1_555
N10_15 C22_15 1_555 1_555
C26_15 H21_15 1_555 1_555
C27_15 C26_15 1_555 1_555
H22_15 C27_15 1_555 1_555
C28_15 H23_15 1_555 1_555
C29_15 C20_15 1_555 1_555
C30_15 C24_15 1_555 1_555
H24_15 C30_15 1_555 1_555
N26_18 C26_15 1_555 1_555
N12_15 C27_15 1_555 1_555
C31_15 H25_15 1_555 1_555
C32_15 C31_15 1_555 1_555
H26_13 C32_15 1_555 1_555
C33_15 H27_15 1_555 1_555
C34_15 C35_15 1_555 1_555
C35_15 H28_15 1_555 1_555
N14_15 C32_15 1_555 1_555
C36_15 H29_15 1_555 1_555
C37_15 C36_15 1_555 1_555
C38_15 H31_15 1_555 1_555
C39_15 C40_15 1_555 1_555
C40_15 C34_15 1_555 1_555
H32_15 C40_15 1_555 1_555
N28_18 C36_15 1_555 1_555
N16_15 C37_15 1_555 1_555
C45_15 C39_15 1_555 1_555
C46_15 H37_15 1_555 1_555
C47_15 C46_15 1_555 1_555
C48_15 H39_15 1_555 1_555
C49_15 C50_15 1_555 1_555
C50_15 H40_15 1_555 1_555
N20_15 C47_15 1_555 1_555
C55_15 C49_15 1_555 1_555
C3_15 N27_11 1_555 1_555
C3_15 N2_15 1_555 1_555
C4_15 N2_15 1_555 1_555
C8_15 N28_15 1_555 1_555
C8_15 N4_15 1_555 1_555
C9_15 N4_15 1_555 1_555
C16_15 N25_11 1_555 1_555
C18_15 N25_11 1_555 1_555
C18_15 N8_15 1_555 1_555
C19_15 N8_15 1_555 1_555
C23_15 N28_16 1_555 1_555
C23_15 N10_15 1_555 1_555
C24_15 N10_15 1_555 1_555
C28_15 N26_18 1_555 1_555
C28_15 N12_15 1_555 1_555
C29_15 C30_15 1_555 1_555
C29_15 N12_15 1_555 1_555
C31_15 N26_15 1_555 1_555
C33_15 N26_15 1_555 1_555
C33_15 N14_15 1_555 1_555
C34_15 N14_15 1_555 1_555
C38_15 N28_18 1_555 1_555
C38_15 N16_15 1_555 1_555
C39_15 N16_15 1_555 1_555
C46_15 N26_16 1_555 1_555
C48_15 N26_16 1_555 1_555
C48_15 N20_15 1_555 1_555
C49_15 N20_15 1_555 1_555
C1_16 H1_16 1_555 1_555
C2_16 C1_16 1_555 1_555
H2_16 C2_16 1_555 1_555
C3_16 H3_16 1_555 1_555
C4_16 C5_16 1_555 1_555
C5_16 H4_16 1_555 1_555
N28_17 C1_16 1_555 1_555
N2_16 C2_16 1_555 1_555
C6_16 H5_16 1_555 1_555
C7_16 C6_16 1_555 1_555
H6_16 C7_16 1_555 1_555
C8_16 H7_16 1_555 1_555
C9_16 C10_16 1_555 1_555
C10_16 C4_16 1_555 1_555
H8_16 C10_16 1_555 1_555
N29_15 C6_16 1_555 1_555
N4_16 C7_16 1_555 1_555
C11_16 H9_16 1_555 1_555
C12_16 C11_16 1_555 1_555
H10_16 C12_16 1_555 1_555
C13_16 H11_16 1_555 1_555
C14_16 C5_16 1_555 1_555
C15_16 C9_16 1_555 1_555
H12_16 C15_16 1_555 1_555
N30_16 C11_16 1_555 1_555
N6_16 C12_16 1_555 1_555
C16_16 H13_16 1_555 1_555
C17_16 C16_16 1_555 1_555
H14_16 C17_16 1_555 1_555
C18_16 H15_16 1_555 1_555
C19_16 C20_16 1_555 1_555
C20_16 H16_16 1_555 1_555
N8_16 C17_16 1_555 1_555
C21_16 H17_16 1_555 1_555
C22_16 C21_16 1_555 1_555
H18_16 C22_16 1_555 1_555
C23_16 H19_16 1_555 1_555
C24_16 C25_16 1_555 1_555
C25_16 C19_16 1_555 1_555
H20_16 C25_16 1_555 1_555
N26_19 C21_16 1_555 1_555
N10_16 C22_16 1_555 1_555
C26_16 H21_16 1_555 1_555
C27_16 C26_16 1_555 1_555
H22_16 C27_16 1_555 1_555
C28_16 H23_16 1_555 1_555
C29_16 C20_16 1_555 1_555
C30_16 C24_16 1_555 1_555
H24_16 C30_16 1_555 1_555
N28_20 C26_16 1_555 1_555
N12_16 C27_16 1_555 1_555
C31_16 H25_16 1_555 1_555
C32_16 C31_16 1_555 1_555
H26_14 C32_16 1_555 1_555
C33_16 H27_16 1_555 1_555
C34_16 C35_16 1_555 1_555
C35_16 H28_16 1_555 1_555
N14_16 C32_16 1_555 1_555
C36_16 H29_16 1_555 1_555
C37_16 C36_16 1_555 1_555
H30_15 C37_16 1_555 1_555
C38_16 H31_16 1_555 1_555
C39_16 C40_16 1_555 1_555
C40_16 C34_16 1_555 1_555
H32_16 C40_16 1_555 1_555
N26_20 C36_16 1_555 1_555
N16_16 C37_16 1_555 1_555
C41_16 H33_16 1_555 1_555
C42_16 C41_16 1_555 1_555
H34_15 C42_16 1_555 1_555
C43_16 H35_16 1_555 1_555
C44_16 C35_16 1_555 1_555
C45_16 C39_16 1_555 1_555
H36_16 C45_16 1_555 1_555
N28_21 C41_16 1_555 1_555
N18_16 C42_16 1_555 1_555
C46_16 H37_16 1_555 1_555
C47_16 C46_16 1_555 1_555
H38_16 C47_16 1_555 1_555
C48_16 H39_16 1_555 1_555
C49_16 C50_16 1_555 1_555
C50_16 H40_16 1_555 1_555
N20_16 C47_16 1_555 1_555
C51_16 H41_16 1_555 1_555
C52_16 C51_16 1_555 1_555
H42_11 C52_16 1_555 1_555
C53_16 H43_16 1_555 1_555
C54_16 C55_16 1_555 1_555
C55_16 C49_16 1_555 1_555
H44_16 C55_16 1_555 1_555
N29_16 C51_16 1_555 1_555
N22_16 C52_16 1_555 1_555
C56_16 H45_16 1_555 1_555
C57_16 C56_16 1_555 1_555
H46_16 C57_16 1_555 1_555
C58_16 H47_16 1_555 1_555
C59_16 C50_16 1_555 1_555
C60_16 C54_16 1_555 1_555
H48_16 C60_16 1_555 1_555
N26_21 C56_16 1_555 1_555
N24_16 C57_16 1_555 1_555
C3_16 N28_17 1_555 1_555
C3_16 N2_16 1_555 1_555
C4_16 N2_16 1_555 1_555
C8_16 N29_15 1_555 1_555
C8_16 N4_16 1_555 1_555
C9_16 N4_16 1_555 1_555
C13_16 N30_16 1_555 1_555
C13_16 N6_16 1_555 1_555
C14_16 C15_16 1_555 1_555
C14_16 N6_16 1_555 1_555
C16_16 N26_17 1_555 1_555
C18_16 N26_17 1_555 1_555
C18_16 N8_16 1_555 1_555
C19_16 N8_16 1_555 1_555
C23_16 N26_19 1_555 1_555
C23_16 N10_16 1_555 1_555
C24_16 N10_16 1_555 1_555
C28_16 N28_20 1_555 1_555
C28_16 N12_16 1_555 1_555
C29_16 C30_16 1_555 1_555
C29_16 N12_16 1_555 1_555
C31_16 N30_15 1_555 1_555
C33_16 N30_15 1_555 1_555
C33_16 N14_16 1_555 1_555
C34_16 N14_16 1_555 1_555
C38_16 N26_20 1_555 1_555
C38_16 N16_16 1_555 1_555
C39_16 N16_16 1_555 1_555
C43_16 N28_21 1_555 1_555
C43_16 N18_16 1_555 1_555
C44_16 C45_16 1_555 1_555
C44_16 N18_16 1_555 1_555
C46_16 N28_19 1_555 1_555
C48_16 N28_19 1_555 1_555
C48_16 N20_16 1_555 1_555
C49_16 N20_16 1_555 1_555
C53_16 N29_16 1_555 1_555
C53_16 N22_16 1_555 1_555
C54_16 N22_16 1_555 1_555
C58_16 N26_21 1_555 1_555
C58_16 N24_16 1_555 1_555
C59_16 C60_16 1_555 1_555
C59_16 N24_16 1_555 1_555

#END
