
###############################################################################
#
# This file contains modified crystal structure data generated from the
# MOF subset of the Cambridge Structural Database (CSD) v543 
# hosted by the Cambridge Crystallographic Data Centre (CCDC).
#
# This work is licensed under the Creative Commons
# Attribution-NonCommercial-ShareAlike 4.0 International License.
# To view a copy of this license, visit
# http://creativecommons.org/licenses/by-nc-sa/4.0/
# or send a letter to
# Creative Commons, PO Box 1866, Mountain View, CA 94042, USA.
#
# CIF created using the CSD Python API on 29 September 2022
# The structure has been converted into the P1 space group
# The structure has a 3D framework
# The original CSD entry XILRAO is in the cubic crystal system
# The original CSD entry XILRAO is in a Sohncke space group
# The framework has been calculated to contain at least 10.0% void space
# The void calculation uses a probe of radius 1.32A, grid spacing 0.4
# The framework is charged, counterions have been retained in the structure
# H atom positions have been added when not included in the experimental data
#
###############################################################################

data_XILRAO
_chemical_formula_moiety         '(C1728 H768 N384 O741 Zn98 98-)n'
_symmetry_cell_setting           triclinic
_symmetry_space_group_name_H-M   'P 1'
_symmetry_Int_Tables_number      1
_space_group_name_Hall           'P 1'
loop_
_symmetry_equiv_pos_site_id
_symmetry_equiv_pos_as_xyz
1 x,y,z
_cell_length_a                   45.0598(4)
_cell_length_b                   45.0598(4)
_cell_length_c                   45.0598(4)
_cell_angle_alpha                90
_cell_angle_beta                 90
_cell_angle_gamma                90
_cell_volume                     91488.8
loop_
_atom_site_label
_atom_site_type_symbol
_atom_site_fract_x
_atom_site_fract_y
_atom_site_fract_z
Zn1 Zn 0.64652(4) 0.58898(4) 0.37616(4)
Zn2 Zn 0.7500 0.7500 0.48195(4)
O1 O 0.67935(19) 0.61846(19) 0.37647(19)
O2 O 0.66638(18) 0.64542(19) 0.41534(19)
O3 O 0.7853(2) 0.7139(2) 0.44348(16)
O4 O 0.7375(2) 0.71666(19) 0.45707(17)
O5 O 0.61175(17) 0.61175(17) 0.38825(17)
O6 O 0.6266(2) 0.53715(17) 0.3843(2)
O7 O 0.66731(16) 0.55747(16) 0.40159(17)
O8 O 0.74002(17) 0.5070(2) 0.4630(2)
O9 O 0.72652(19) 0.4640(2) 0.4846(2)
N1 N 0.6289(2) 0.4418(2) 0.4465(2)
N2 N 0.59424(17) 0.44520(18) 0.40950(19)
N3 N 0.78351(18) 0.6419(2) 0.3539(2)
N4 N 0.8187(2) 0.6807(2) 0.35654(17)
C1 C 0.6499(2) 0.5355(2) 0.3991(2)
C2 C 0.65975(19) 0.5097(2) 0.41808(18)
C3 C 0.6855(2) 0.5096(2) 0.43198(19)
H1 H 0.6992 0.5253 0.4289
C4 C 0.6924(2) 0.4872(2) 0.45051(19)
C5 C 0.6733(2) 0.4649(3) 0.4551(2)
H2 H 0.6782 0.4493 0.4683
C6 C 0.6462(2) 0.4648(2) 0.4406(2)
C7 C 0.6397(2) 0.4879(2) 0.4216(2)
H3 H 0.6214 0.4884 0.4112
C8 C 0.6034(2) 0.4314(3) 0.4325(3)
C9 C 0.7236(4) 0.4863(3) 0.4672(3)
C10 C 0.6842(3) 0.6352(3) 0.3987(3)
C11 C 0.7154(2) 0.6492(2) 0.3971(2)
C12 C 0.7366(2) 0.6399(2) 0.3766(2)
H4 H 0.7315 0.6253 0.3623
C13 C 0.7652(2) 0.6519(2) 0.3771(2)
C14 C 0.7729(3) 0.6738(2) 0.3987(2)
H5 H 0.7918 0.6831 0.3984
C15 C 0.7515(3) 0.6812(3) 0.4205(2)
C16 C 0.7229(3) 0.6681(3) 0.4200(2)
H6 H 0.7089 0.6723 0.4352
C17 C 0.8088(3) 0.6561(3) 0.3432(3)
C18 C 0.7590(3) 0.7057(2) 0.4428(2)
O10 O 0.88154(19) 0.62353(19) 0.17935(19)
O11 O 0.85458(19) 0.58466(19) 0.16638(18)
O12 O 0.7861(2) 0.55652(16) 0.2853(2)
O13 O 0.78334(19) 0.54293(17) 0.2375(2)
N5 N 0.8581(2) 0.6461(2) 0.28351(18)
N6 N 0.8193(2) 0.64346(17) 0.3187(2)
C19 C 0.8648(3) 0.6013(3) 0.1842(3)
C20 C 0.8508(2) 0.6029(2) 0.2154(2)
C21 C 0.8601(2) 0.6234(2) 0.2366(2)
H7 H 0.8747 0.6377 0.2315
C22 C 0.8481(2) 0.6229(2) 0.2652(2)
C23 C 0.8262(2) 0.6013(2) 0.2729(3)
H8 H 0.8169 0.6016 0.2918
C24 C 0.8188(3) 0.5795(2) 0.2515(3)
C25 C 0.8319(3) 0.5800(2) 0.2229(3)
H9 H 0.8277 0.5648 0.2089
C26 C 0.8439(3) 0.6568(3) 0.3088(3)
C27 C 0.7943(2) 0.5572(2) 0.2590(3)
O14 O 0.87647(19) 0.82065(19) 0.38154(19)
O15 O 0.91534(19) 0.83362(18) 0.35458(19)
O16 O 0.94348(16) 0.7147(2) 0.2861(2)
O17 O 0.95707(17) 0.7625(2) 0.28334(19)
N7 N 0.8539(2) 0.71649(18) 0.3581(2)
N8 N 0.85654(17) 0.6813(2) 0.3193(2)
C28 C 0.8987(3) 0.8158(3) 0.3648(3)
C29 C 0.8971(2) 0.7846(2) 0.3508(2)
C30 C 0.8766(2) 0.7634(2) 0.3601(2)
H10 H 0.8623 0.7685 0.3747
C31 C 0.8771(2) 0.7348(2) 0.3481(2)
C32 C 0.8987(2) 0.7271(3) 0.3262(2)
H11 H 0.8984 0.7082 0.3169
C33 C 0.9205(2) 0.7485(3) 0.3188(3)
C34 C 0.9200(2) 0.7771(3) 0.3319(3)
H12 H 0.9352 0.7911 0.3277
C35 C 0.8432(3) 0.6912(3) 0.3439(3)
C36 C 0.9428(2) 0.7410(3) 0.2943(2)
O18 O 0.46285(17) 0.3843(2) 0.3734(2)
O19 O 0.44253(16) 0.40159(17) 0.33269(16)
O20 O 0.4930(2) 0.4630(2) 0.25998(17)
O21 O 0.5360(2) 0.4846(2) 0.27348(19)
N9 N 0.5582(2) 0.4465(2) 0.3711(2)
N10 N 0.55480(18) 0.40950(19) 0.40576(17)
C37 C 0.4645(2) 0.3991(2) 0.3501(2)
C38 C 0.4903(2) 0.41808(18) 0.34025(19)
C39 C 0.4904(2) 0.43198(19) 0.3145(2)
H13 H 0.4747 0.4289 0.3008
C40 C 0.5128(2) 0.45051(19) 0.3076(2)
C41 C 0.5351(3) 0.4551(2) 0.3267(2)
H14 H 0.5507 0.4683 0.3218
C42 C 0.5352(2) 0.4406(2) 0.3538(2)
C43 C 0.5121(2) 0.4216(2) 0.3603(2)
H15 H 0.5116 0.4112 0.3786
C44 C 0.5686(3) 0.4325(3) 0.3966(2)
C45 C 0.5137(3) 0.4672(3) 0.2764(4)
O22 O 0.6157(2) 0.3734(2) 0.53715(17)
O23 O 0.59841(17) 0.33269(16) 0.55747(16)
O24 O 0.5370(2) 0.25998(17) 0.5070(2)
O25 O 0.5154(2) 0.27348(19) 0.4640(2)
N11 N 0.5535(2) 0.3711(2) 0.4418(2)
N12 N 0.59050(19) 0.40576(17) 0.44520(18)
C46 C 0.6009(2) 0.3501(2) 0.5355(2)
C47 C 0.58192(18) 0.34025(19) 0.5097(2)
C48 C 0.56802(19) 0.3145(2) 0.5096(2)
H16 H 0.5711 0.3008 0.5253
C49 C 0.54949(19) 0.3076(2) 0.4872(2)
C50 C 0.5449(2) 0.3267(2) 0.4649(3)
H17 H 0.5317 0.3218 0.4493
C51 C 0.5594(2) 0.3538(2) 0.4648(2)
C52 C 0.5784(2) 0.3603(2) 0.4879(2)
H18 H 0.5888 0.3786 0.4884
C53 C 0.5675(3) 0.3966(2) 0.4314(3)
C54 C 0.5328(3) 0.2764(4) 0.4863(3)
Zn3 Zn 0.41102(4) 0.37616(4) 0.35348(4)
O26 O 0.38825(17) 0.38825(17) 0.38825(17)
Zn4 Zn 0.62384(4) 0.35348(4) 0.58898(4)
Zn5 Zn 0.62384(4) 0.64652(4) 0.41102(4)
Zn6 Zn 0.51805(4) 0.7500 0.2500
O27 O 0.62353(19) 0.67935(19) 0.38154(19)
O28 O 0.58466(19) 0.66638(18) 0.35458(19)
O29 O 0.55652(16) 0.7853(2) 0.2861(2)
O30 O 0.54293(17) 0.7375(2) 0.28334(19)
O31 O 0.6157(2) 0.6266(2) 0.46285(17)
O32 O 0.59841(17) 0.66731(16) 0.44253(16)
O33 O 0.5370(2) 0.74002(17) 0.4930(2)
O34 O 0.5154(2) 0.72652(19) 0.5360(2)
N13 N 0.5535(2) 0.6289(2) 0.5582(2)
N14 N 0.59050(19) 0.59424(17) 0.55480(18)
N15 N 0.6461(2) 0.78351(18) 0.3581(2)
N16 N 0.64346(17) 0.8187(2) 0.3193(2)
C55 C 0.6009(2) 0.6499(2) 0.4645(2)
C56 C 0.58192(18) 0.65975(19) 0.4903(2)
C57 C 0.56802(19) 0.6855(2) 0.4904(2)
H19 H 0.5711 0.6992 0.4747
C58 C 0.54949(19) 0.6924(2) 0.5128(2)
C59 C 0.5449(2) 0.6733(2) 0.5351(3)
H20 H 0.5317 0.6782 0.5507
C60 C 0.5594(2) 0.6462(2) 0.5352(2)
C61 C 0.5784(2) 0.6397(2) 0.5121(2)
H21 H 0.5888 0.6214 0.5116
C62 C 0.5675(3) 0.6034(2) 0.5686(3)
C63 C 0.5328(3) 0.7236(4) 0.5137(3)
C64 C 0.6013(3) 0.6842(3) 0.3648(3)
C65 C 0.6029(2) 0.7154(2) 0.3508(2)
C66 C 0.6234(2) 0.7366(2) 0.3601(2)
H22 H 0.6377 0.7315 0.3747
C67 C 0.6229(2) 0.7652(2) 0.3481(2)
C68 C 0.6013(2) 0.7729(3) 0.3262(2)
H23 H 0.6016 0.7918 0.3169
C69 C 0.5795(2) 0.7515(3) 0.3188(3)
C70 C 0.5800(2) 0.7229(3) 0.3319(3)
H24 H 0.5648 0.7089 0.3277
C71 C 0.6568(3) 0.8088(3) 0.3439(3)
C72 C 0.5572(2) 0.7590(3) 0.2943(2)
O35 O 0.82065(19) 0.88154(19) 0.37647(19)
O36 O 0.83362(18) 0.85458(19) 0.41534(19)
O37 O 0.7147(2) 0.7861(2) 0.44348(16)
O38 O 0.7625(2) 0.78334(19) 0.45707(17)
N17 N 0.71649(18) 0.8581(2) 0.3539(2)
N18 N 0.6813(2) 0.8193(2) 0.35654(17)
C73 C 0.8158(3) 0.8648(3) 0.3987(3)
C74 C 0.7846(2) 0.8508(2) 0.3971(2)
C75 C 0.7634(2) 0.8601(2) 0.3766(2)
H25 H 0.7685 0.8747 0.3623
C76 C 0.7348(2) 0.8481(2) 0.3771(2)
C77 C 0.7271(3) 0.8262(2) 0.3987(2)
H26 H 0.7082 0.8169 0.3984
C78 C 0.7485(3) 0.8188(3) 0.4205(2)
C79 C 0.7771(3) 0.8319(3) 0.4200(2)
H27 H 0.7911 0.8277 0.4352
C80 C 0.6912(3) 0.8439(3) 0.3432(3)
C81 C 0.7410(3) 0.7943(2) 0.4428(2)
O39 O 0.61846(19) 0.87647(19) 0.17935(19)
O40 O 0.64542(19) 0.91534(19) 0.16638(18)
O41 O 0.7139(2) 0.94348(16) 0.2853(2)
O42 O 0.71666(19) 0.95707(17) 0.2375(2)
N19 N 0.6419(2) 0.8539(2) 0.28351(18)
N20 N 0.6807(2) 0.85654(17) 0.3187(2)
C82 C 0.6352(3) 0.8987(3) 0.1842(3)
C83 C 0.6492(2) 0.8971(2) 0.2154(2)
C84 C 0.6399(2) 0.8766(2) 0.2366(2)
H28 H 0.6253 0.8623 0.2315
C85 C 0.6519(2) 0.8771(2) 0.2652(2)
C86 C 0.6738(2) 0.8987(2) 0.2729(3)
H29 H 0.6831 0.8984 0.2918
C87 C 0.6812(3) 0.9205(2) 0.2515(3)
C88 C 0.6681(3) 0.9200(2) 0.2229(3)
H30 H 0.6723 0.9352 0.2089
C89 C 0.6561(3) 0.8432(3) 0.3088(3)
C90 C 0.7057(2) 0.9428(2) 0.2590(3)
O43 O 0.6266(2) 0.46285(17) 0.6157(2)
O44 O 0.66731(16) 0.44253(16) 0.59841(17)
O45 O 0.74002(17) 0.4930(2) 0.5370(2)
O46 O 0.72652(19) 0.5360(2) 0.5154(2)
N21 N 0.6289(2) 0.5582(2) 0.5535(2)
N22 N 0.59424(17) 0.55480(18) 0.59050(19)
C91 C 0.6499(2) 0.4645(2) 0.6009(2)
C92 C 0.65975(19) 0.4903(2) 0.58192(18)
C93 C 0.6855(2) 0.4904(2) 0.56802(19)
H31 H 0.6992 0.4747 0.5711
C94 C 0.6924(2) 0.5128(2) 0.54949(19)
C95 C 0.6733(2) 0.5351(3) 0.5449(2)
H32 H 0.6782 0.5507 0.5317
C96 C 0.6462(2) 0.5352(2) 0.5594(2)
C97 C 0.6397(2) 0.5121(2) 0.5784(2)
H33 H 0.6214 0.5116 0.5888
C98 C 0.6034(2) 0.5686(3) 0.5675(3)
C99 C 0.7236(4) 0.5137(3) 0.5328(3)
O47 O 0.46285(17) 0.6157(2) 0.6266(2)
O48 O 0.44253(16) 0.59841(17) 0.66731(16)
O49 O 0.4930(2) 0.5370(2) 0.74002(17)
O50 O 0.5360(2) 0.5154(2) 0.72652(19)
N23 N 0.5582(2) 0.5535(2) 0.6289(2)
N24 N 0.55480(18) 0.59050(19) 0.59424(17)
C100 C 0.4645(2) 0.6009(2) 0.6499(2)
C101 C 0.4903(2) 0.58192(18) 0.65975(19)
C102 C 0.4904(2) 0.56802(19) 0.6855(2)
H34 H 0.4747 0.5711 0.6992
C103 C 0.5128(2) 0.54949(19) 0.6924(2)
C104 C 0.5351(3) 0.5449(2) 0.6733(2)
H35 H 0.5507 0.5317 0.6782
C105 C 0.5352(2) 0.5594(2) 0.6462(2)
C106 C 0.5121(2) 0.5784(2) 0.6397(2)
H36 H 0.5116 0.5888 0.6214
C107 C 0.5686(3) 0.5675(3) 0.6034(2)
C108 C 0.5137(3) 0.5328(3) 0.7236(4)
Zn7 Zn 0.58898(4) 0.62384(4) 0.35348(4)
Zn8 Zn 0.7500 0.51805(4) 0.2500
Zn9 Zn 0.85348(4) 0.58898(4) 0.12384(4)
Zn10 Zn 0.35348(4) 0.41102(4) 0.37616(4)
Zn11 Zn 0.64652(4) 0.41102(4) 0.62384(4)
Zn12 Zn 0.41102(4) 0.62384(4) 0.64652(4)
Zn13 Zn 0.37616(4) 0.35348(4) 0.41102(4)
Zn14 Zn 0.64652(4) 0.91102(4) 0.12384(4)
Zn15 Zn 0.58898(4) 0.87616(4) 0.14652(4)
Zn16 Zn 0.91102(4) 0.62384(4) 0.14652(4)
Zn17 Zn 0.85348(4) 0.91102(4) 0.37616(4)
Zn18 Zn 0.87616(4) 0.85348(4) 0.41102(4)
Zn19 Zn 0.91102(4) 0.87616(4) 0.35348(4)
Zn20 Zn 0.5000 0.5000 0.76805(4)
Zn21 Zn 0.5000 0.76805(4) 0.5000
Zn22 Zn 0.76805(4) 0.5000 0.5000
Zn23 Zn 0.5000 0.5000 0.23195(4)
Zn24 Zn 0.7500 0.98195(4) 0.2500
Zn25 Zn 0.5000 0.23195(4) 0.5000
Zn26 Zn 0.98195(4) 0.7500 0.2500
O51 O 0.38154(19) 0.37647(19) 0.32065(19)
O52 O 0.62353(19) 0.32065(19) 0.61846(19)
O53 O 0.61846(19) 0.62353(19) 0.32065(19)
O54 O 0.82065(19) 0.61846(19) 0.12353(19)
O55 O 0.66638(18) 0.35458(19) 0.58466(19)
O56 O 0.41534(19) 0.33362(18) 0.35458(19)
O57 O 0.64542(19) 0.58466(19) 0.33362(18)
O58 O 0.71666(19) 0.54293(17) 0.2625(2)
O59 O 0.54293(17) 0.7625(2) 0.21666(19)
O60 O 0.61175(17) 0.38825(17) 0.61175(17)
O61 O 0.88825(17) 0.61175(17) 0.11175(17)
O62 O 0.53715(17) 0.6157(2) 0.3734(2)
O63 O 0.8734(2) 0.53715(17) 0.1157(2)
O64 O 0.55747(16) 0.59841(17) 0.33269(16)
O65 O 0.83269(16) 0.55747(16) 0.09841(17)
O66 O 0.7130(2) 0.7570(2) 0.50998(17)
O67 O 0.7870(2) 0.7430(2) 0.50998(17)
O68 O 0.7430(2) 0.49002(17) 0.2130(2)
O69 O 0.7570(2) 0.49002(17) 0.2870(2)
O70 O 0.49002(17) 0.7870(2) 0.2570(2)
O71 O 0.49002(17) 0.7130(2) 0.2430(2)
O72 O 0.7346(2) 0.7140(2) 0.52348(19)
O73 O 0.7654(2) 0.7860(2) 0.52348(19)
O74 O 0.7860(2) 0.47652(19) 0.2346(2)
O75 O 0.7140(2) 0.47652(19) 0.2654(2)
O76 O 0.47652(19) 0.7654(2) 0.2140(2)
O77 O 0.47652(19) 0.7346(2) 0.2860(2)
H37 H 0.635348 0.429635 0.464328
H38 H 0.777757 0.622496 0.344011
H39 H 0.877504 0.655989 0.277757
H40 H 0.844011 0.722243 0.377504
H41 H 0.570365 0.464328 0.364652
H42 H 0.535672 0.364652 0.429635
H43 H 0.655989 0.777757 0.377504
H44 H 0.535672 0.635348 0.570365
H45 H 0.622496 0.844011 0.277757
H46 H 0.722243 0.877504 0.344011
H47 H 0.570365 0.535672 0.635348
H48 H 0.635348 0.570365 0.535672
Zn25_2 Zn 0.01805(4) 0.7500 0.7500
Zn2_2 Zn 0.5000 0.0000 0.73195(4)
O3_2 O 0.5361(2) 0.0353(2) 0.69348(16)
N3_2 N 0.6081(2) 0.03351(18) 0.6039(2)
N4_2 N 0.5693(2) 0.0687(2) 0.60654(17)
C13_2 C 0.5981(2) 0.0152(2) 0.6271(2)
C14_2 C 0.5762(2) 0.0229(3) 0.6487(2)
H5_2 H 0.5669 0.0418 0.6484
C15_2 C 0.5688(3) 0.0015(3) 0.6705(2)
C17_2 C 0.5939(3) 0.0588(3) 0.5932(3)
C18_2 C 0.5443(2) 0.0090(3) 0.6928(2)
O10_2 O 0.62647(19) 0.13154(19) 0.42935(19)
O11_2 O 0.66534(19) 0.10458(19) 0.41638(18)
O12_2 O 0.69348(16) 0.0361(2) 0.5353(2)
O13_2 O 0.70707(17) 0.03334(19) 0.4875(2)
N5_2 N 0.6039(2) 0.1081(2) 0.53351(18)
N6_2 N 0.60654(17) 0.0693(2) 0.5687(2)
C19_2 C 0.6487(3) 0.1148(3) 0.4342(3)
C20_2 C 0.6471(2) 0.1008(2) 0.4654(2)
C21_2 C 0.6266(2) 0.1101(2) 0.4866(2)
H7_2 H 0.6123 0.1247 0.4815
C22_2 C 0.6271(2) 0.0981(2) 0.5152(2)
C23_2 C 0.6487(2) 0.0762(2) 0.5229(3)
H8_2 H 0.6484 0.0669 0.5418
C24_2 C 0.6705(2) 0.0688(3) 0.5015(3)
C25_2 C 0.6700(2) 0.0819(3) 0.4729(3)
H9_2 H 0.6852 0.0777 0.4589
C26_2 C 0.5932(3) 0.0939(3) 0.5588(3)
C27_2 C 0.6928(2) 0.0443(2) 0.5090(3)
O14_2 O 0.42935(19) 0.12647(19) 0.63154(19)
O15_2 O 0.41638(18) 0.16534(19) 0.60458(19)
O16_2 O 0.5353(2) 0.19348(16) 0.5361(2)
O17_2 O 0.4875(2) 0.20707(17) 0.53334(19)
N7_2 N 0.53351(18) 0.1039(2) 0.6081(2)
N8_2 N 0.5687(2) 0.10654(17) 0.5693(2)
C28_2 C 0.4342(3) 0.1487(3) 0.6148(3)
C29_2 C 0.4654(2) 0.1471(2) 0.6008(2)
C30_2 C 0.4866(2) 0.1266(2) 0.6101(2)
H10_2 H 0.4815 0.1123 0.6247
C31_2 C 0.5152(2) 0.1271(2) 0.5981(2)
C32_2 C 0.5229(3) 0.1487(2) 0.5762(2)
H11_2 H 0.5418 0.1484 0.5669
C33_2 C 0.5015(3) 0.1705(2) 0.5688(3)
C34_2 C 0.4729(3) 0.1700(2) 0.5819(3)
H12_2 H 0.4589 0.1852 0.5777
C35_2 C 0.5588(3) 0.0932(3) 0.5939(3)
C36_2 C 0.5090(3) 0.1928(2) 0.5443(2)
O35_2 O 0.36846(19) 0.07065(19) 0.62647(19)
O36_2 O 0.39542(19) 0.08362(18) 0.66534(19)
O38_2 O 0.46666(19) 0.0125(2) 0.70707(17)
C73_2 C 0.3852(3) 0.0658(3) 0.6487(3)
C74_2 C 0.3992(2) 0.0346(2) 0.6471(2)
C75_2 C 0.3899(2) 0.0134(2) 0.6266(2)
H25_2 H 0.3753 0.0185 0.6123
C79_2 C 0.4181(3) 0.0271(3) 0.6700(2)
H27_2 H 0.4223 0.0411 0.6852
Zn8_2 Zn 0.73195(4) 0.0000 0.5000
Zn9_2 Zn 0.66102(4) 0.10348(4) 0.37384(4)
Zn16_2 Zn 0.62616(4) 0.16102(4) 0.39652(4)
Zn17_2 Zn 0.33898(4) 0.10348(4) 0.62616(4)
Zn18_2 Zn 0.39652(4) 0.12616(4) 0.66102(4)
Zn19_2 Zn 0.37384(4) 0.16102(4) 0.60348(4)
Zn22_2 Zn 0.7500 0.01805(4) 0.7500
Zn24_2 Zn 0.26805(4) -0.0000 0.5000
O54_2 O 0.63154(19) 0.07065(19) 0.37353(19)
O61_2 O 0.63825(17) 0.13825(17) 0.36175(17)
O63_2 O 0.71285(17) 0.1234(2) 0.3657(2)
O65_2 O 0.69253(16) 0.08269(16) 0.34841(17)
O67_2 O 0.5070(2) 0.0370(2) 0.75998(17)
O69_2 O 0.75998(17) 0.0070(2) 0.5370(2)
O73_2 O 0.4640(2) 0.0154(2) 0.77348(19)
O74_2 O 0.77348(19) 0.0360(2) 0.4846(2)
H38_2 H 0.627504 0.0277569 0.594011
H39_2 H 0.594011 0.127504 0.527757
H40_2 H 0.527757 0.0940106 0.627504
Zn20_2 Zn 0.7500 0.7500 0.01805(4)
Zn1_2 Zn 0.66102(4) 0.89652(4) 0.62616(4)
Zn2_3 Zn 0.5000 1.0000 0.73195(4)
O1_2 O 0.63154(19) 0.92935(19) 0.62647(19)
O2_2 O 0.60458(19) 0.91638(18) 0.66534(19)
O4_2 O 0.53334(19) 0.9875(2) 0.70707(17)
O5_2 O 0.63825(17) 0.86175(17) 0.63825(17)
O6_2 O 0.71285(17) 0.8766(2) 0.6343(2)
O7_2 O 0.69253(16) 0.91731(16) 0.65159(17)
O8_2 O 0.7430(2) 0.99002(17) 0.7130(2)
O9_2 O 0.7860(2) 0.97652(19) 0.7346(2)
N1_2 N 0.8082(2) 0.8789(2) 0.6965(2)
N2_2 N 0.80480(18) 0.84424(17) 0.65950(19)
C1_2 C 0.7145(2) 0.8999(2) 0.6491(2)
C2_2 C 0.7403(2) 0.90975(19) 0.66808(18)
C3_2 C 0.7404(2) 0.9355(2) 0.68198(19)
H1_2 H 0.7247 0.9492 0.6789
C4_2 C 0.7628(2) 0.9424(2) 0.70051(19)
C5_2 C 0.7851(3) 0.9233(2) 0.7051(2)
H2_2 H 0.8007 0.9282 0.7183
C6_2 C 0.7852(2) 0.8962(2) 0.6906(2)
C7_2 C 0.7621(2) 0.8897(2) 0.6716(2)
H3_2 H 0.7616 0.8714 0.6612
C8_2 C 0.8186(3) 0.8534(2) 0.6825(3)
C9_2 C 0.7637(3) 0.9736(4) 0.7172(3)
C10_2 C 0.6148(3) 0.9342(3) 0.6487(3)
C11_2 C 0.6008(2) 0.9654(2) 0.6471(2)
C12_2 C 0.6101(2) 0.9866(2) 0.6266(2)
H4_2 H 0.6247 0.9815 0.6123
C16_2 C 0.5819(3) 0.9729(3) 0.6700(2)
H6_2 H 0.5777 0.9589 0.6852
O18_2 O 0.8657(2) 0.71285(17) 0.6234(2)
O19_2 O 0.84841(17) 0.69253(16) 0.58269(16)
N9_2 N 0.8035(2) 0.8082(2) 0.6211(2)
N10_2 N 0.84050(19) 0.80480(18) 0.65576(17)
C37_2 C 0.8509(2) 0.7145(2) 0.6001(2)
C38_2 C 0.83192(18) 0.7403(2) 0.59025(19)
C39_2 C 0.81802(19) 0.7404(2) 0.5645(2)
H13_2 H 0.8211 0.7247 0.5508
C40_2 C 0.79949(19) 0.7628(2) 0.5576(2)
C41_2 C 0.7949(2) 0.7851(3) 0.5767(2)
H14_2 H 0.7817 0.8007 0.5718
C42_2 C 0.8094(2) 0.7852(2) 0.6038(2)
C43_2 C 0.8284(2) 0.7621(2) 0.6103(2)
H15_2 H 0.8388 0.7616 0.6286
C44_2 C 0.8175(3) 0.8186(3) 0.6466(2)
C45_2 C 0.7828(3) 0.7637(3) 0.5264(4)
O22_2 O 0.8766(2) 0.8657(2) 0.78715(17)
O23_2 O 0.91731(16) 0.84841(17) 0.80747(16)
O24_2 O 0.99002(17) 0.7870(2) 0.7570(2)
O25_2 O 0.97652(19) 0.7654(2) 0.7140(2)
N11_2 N 0.8789(2) 0.8035(2) 0.6918(2)
N12_2 N 0.84424(17) 0.84050(19) 0.69520(18)
C46_2 C 0.8999(2) 0.8509(2) 0.7855(2)
C47_2 C 0.90975(19) 0.83192(18) 0.7597(2)
C48_2 C 0.9355(2) 0.81802(19) 0.7596(2)
H16_2 H 0.9492 0.8211 0.7753
C49_2 C 0.9424(2) 0.79949(19) 0.7372(2)
C50_2 C 0.9233(2) 0.7949(2) 0.7149(3)
H17_2 H 0.9282 0.7817 0.6993
C51_2 C 0.8962(2) 0.8094(2) 0.7148(2)
C52_2 C 0.8897(2) 0.8284(2) 0.7379(2)
H18_2 H 0.8714 0.8388 0.7384
C53_2 C 0.8534(2) 0.8175(3) 0.6814(3)
C54_2 C 0.9736(4) 0.7828(3) 0.7363(3)
Zn3_2 Zn 0.87384(4) 0.66102(4) 0.60348(4)
O26_2 O 0.86175(17) 0.63825(17) 0.63825(17)
Zn4_2 Zn 0.89652(4) 0.87384(4) 0.83898(4)
Zn5_2 Zn 0.60348(4) 0.87384(4) 0.66102(4)
O27_2 O 0.57065(19) 0.87353(19) 0.63154(19)
O28_2 O 0.58362(18) 0.83466(19) 0.60458(19)
O29_2 O 0.4647(2) 0.80652(16) 0.5361(2)
O30_2 O 0.5125(2) 0.79293(17) 0.53334(19)
O31_2 O 0.6234(2) 0.8657(2) 0.71285(17)
O32_2 O 0.58269(16) 0.84841(17) 0.69253(16)
O33_2 O 0.50998(17) 0.7870(2) 0.7430(2)
O34_2 O 0.52348(19) 0.7654(2) 0.7860(2)
N13_2 N 0.6211(2) 0.8035(2) 0.8082(2)
N14_2 N 0.65576(17) 0.84050(19) 0.80480(18)
N15_2 N 0.46649(18) 0.8961(2) 0.6081(2)
N16_2 N 0.4313(2) 0.89346(17) 0.5693(2)
C55_2 C 0.6001(2) 0.8509(2) 0.7145(2)
C56_2 C 0.59025(19) 0.83192(18) 0.7403(2)
C57_2 C 0.5645(2) 0.81802(19) 0.7404(2)
H19_2 H 0.5508 0.8211 0.7247
C58_2 C 0.5576(2) 0.79949(19) 0.7628(2)
C59_2 C 0.5767(2) 0.7949(2) 0.7851(3)
H20_2 H 0.5718 0.7817 0.8007
C60_2 C 0.6038(2) 0.8094(2) 0.7852(2)
C61_2 C 0.6103(2) 0.8284(2) 0.7621(2)
H21_2 H 0.6286 0.8388 0.7616
C62_2 C 0.6466(2) 0.8175(3) 0.8186(3)
C63_2 C 0.5264(4) 0.7828(3) 0.7637(3)
C64_2 C 0.5658(3) 0.8513(3) 0.6148(3)
C65_2 C 0.5346(2) 0.8529(2) 0.6008(2)
C66_2 C 0.5134(2) 0.8734(2) 0.6101(2)
H22_2 H 0.5185 0.8877 0.6247
C67_2 C 0.4848(2) 0.8729(2) 0.5981(2)
C68_2 C 0.4771(3) 0.8513(2) 0.5762(2)
H23_2 H 0.4582 0.8516 0.5669
C69_2 C 0.4985(3) 0.8295(2) 0.5688(3)
C70_2 C 0.5271(3) 0.8300(2) 0.5819(3)
H24_2 H 0.5411 0.8148 0.5777
C71_2 C 0.4412(3) 0.9068(3) 0.5939(3)
C72_2 C 0.4910(3) 0.8072(2) 0.5443(2)
O37_2 O 0.4639(2) 0.9647(2) 0.69348(16)
N17_2 N 0.3919(2) 0.96649(18) 0.6039(2)
N18_2 N 0.4307(2) 0.9313(2) 0.60654(17)
C76_2 C 0.4019(2) 0.9848(2) 0.6271(2)
C77_2 C 0.4238(2) 0.9771(3) 0.6487(2)
H26_2 H 0.4331 0.9582 0.6484
C78_2 C 0.4312(3) 0.9985(3) 0.6705(2)
C80_2 C 0.4061(3) 0.9412(3) 0.5932(3)
C81_2 C 0.4557(2) 0.9910(3) 0.6928(2)
O39_2 O 0.37353(19) 0.86846(19) 0.42935(19)
O40_2 O 0.33466(19) 0.89542(19) 0.41638(18)
O41_2 O 0.30652(16) 0.9639(2) 0.5353(2)
O42_2 O 0.29293(17) 0.96666(19) 0.4875(2)
N19_2 N 0.3961(2) 0.8919(2) 0.53351(18)
N20_2 N 0.39346(17) 0.9307(2) 0.5687(2)
C82_2 C 0.3513(3) 0.8852(3) 0.4342(3)
C83_2 C 0.3529(2) 0.8992(2) 0.4654(2)
C84_2 C 0.3734(2) 0.8899(2) 0.4866(2)
H28_2 H 0.3877 0.8753 0.4815
C85_2 C 0.3729(2) 0.9019(2) 0.5152(2)
C86_2 C 0.3513(2) 0.9238(2) 0.5229(3)
H29_2 H 0.3516 0.9331 0.5418
C87_2 C 0.3295(2) 0.9312(3) 0.5015(3)
C88_2 C 0.3300(2) 0.9181(3) 0.4729(3)
H30_2 H 0.3148 0.9223 0.4589
C89_2 C 0.4068(3) 0.9061(3) 0.5588(3)
C90_2 C 0.3072(2) 0.9557(2) 0.5090(3)
O43_2 O 0.78715(17) 0.8766(2) 0.8657(2)
O44_2 O 0.80747(16) 0.91731(16) 0.84841(17)
O45_2 O 0.7570(2) 0.99002(17) 0.7870(2)
O46_2 O 0.7140(2) 0.97652(19) 0.7654(2)
N21_2 N 0.6918(2) 0.8789(2) 0.8035(2)
N22_2 N 0.69520(18) 0.84424(17) 0.84050(19)
C91_2 C 0.7855(2) 0.8999(2) 0.8509(2)
C92_2 C 0.7597(2) 0.90975(19) 0.83192(18)
C93_2 C 0.7596(2) 0.9355(2) 0.81802(19)
H31_2 H 0.7753 0.9492 0.8211
C94_2 C 0.7372(2) 0.9424(2) 0.79949(19)
C95_2 C 0.7149(3) 0.9233(2) 0.7949(2)
H32_2 H 0.6993 0.9282 0.7817
C96_2 C 0.7148(2) 0.8962(2) 0.8094(2)
C97_2 C 0.7379(2) 0.8897(2) 0.8284(2)
H33_2 H 0.7384 0.8714 0.8388
C98_2 C 0.6814(3) 0.8534(2) 0.8175(3)
C99_2 C 0.7363(3) 0.9736(4) 0.7828(3)
O47_2 O 0.6343(2) 0.71285(17) 0.8766(2)
O48_2 O 0.65159(17) 0.69253(16) 0.91731(16)
O49_2 O 0.7130(2) 0.7430(2) 0.99002(17)
O50_2 O 0.7346(2) 0.7860(2) 0.97652(19)
N23_2 N 0.6965(2) 0.8082(2) 0.8789(2)
N24_2 N 0.65950(19) 0.80480(18) 0.84424(17)
C100_2 C 0.6491(2) 0.7145(2) 0.8999(2)
C101_2 C 0.66808(18) 0.7403(2) 0.90975(19)
C102_2 C 0.68198(19) 0.7404(2) 0.9355(2)
H34_2 H 0.6789 0.7247 0.9492
C103_2 C 0.70051(19) 0.7628(2) 0.9424(2)
C104_2 C 0.7051(2) 0.7851(3) 0.9233(2)
H35_2 H 0.7183 0.8007 0.9282
C105_2 C 0.6906(2) 0.7852(2) 0.8962(2)
C106_2 C 0.6716(2) 0.7621(2) 0.8897(2)
H36_2 H 0.6612 0.7616 0.8714
C107_2 C 0.6825(3) 0.8186(3) 0.8534(2)
C108_2 C 0.7172(3) 0.7637(3) 0.9736(4)
Zn7_2 Zn 0.62616(4) 0.83898(4) 0.60348(4)
Zn8_3 Zn 0.73195(4) 1.0000 0.5000
Zn10_2 Zn 0.83898(4) 0.60348(4) 0.62616(4)
Zn11_2 Zn 0.83898(4) 0.89652(4) 0.87384(4)
Zn12_2 Zn 0.62616(4) 0.66102(4) 0.89652(4)
Zn13_2 Zn 0.89652(4) 0.62616(4) 0.66102(4)
Zn14_2 Zn 0.33898(4) 0.89652(4) 0.37384(4)
Zn15_2 Zn 0.37384(4) 0.83898(4) 0.39652(4)
Zn21_2 Zn 0.48195(4) 0.7500 0.7500
Zn24_3 Zn 0.26805(4) 1.0000 0.5000
O51_2 O 0.87353(19) 0.63154(19) 0.57065(19)
O52_2 O 0.92935(19) 0.87353(19) 0.86846(19)
O53_2 O 0.62647(19) 0.86846(19) 0.57065(19)
O55_2 O 0.89542(19) 0.91638(18) 0.83466(19)
O56_2 O 0.91638(18) 0.66534(19) 0.60458(19)
O57_2 O 0.66534(19) 0.89542(19) 0.58362(18)
O58_2 O 0.70707(17) 0.96666(19) 0.5125(2)
O59_2 O 0.4875(2) 0.79293(17) 0.46666(19)
O60_2 O 0.86175(17) 0.86175(17) 0.86175(17)
O62_2 O 0.6343(2) 0.78715(17) 0.6234(2)
O64_2 O 0.65159(17) 0.80747(16) 0.58269(16)
O66_2 O 0.4930(2) 0.9630(2) 0.75998(17)
O68_2 O 0.75998(17) 0.9930(2) 0.4630(2)
O70_2 O 0.4630(2) 0.74002(17) 0.5070(2)
O72_2 O 0.5360(2) 0.9846(2) 0.77348(19)
O75_2 O 0.77348(19) 0.9640(2) 0.5154(2)
O76_2 O 0.4846(2) 0.72652(19) 0.4640(2)
H37_2 H 0.820365 0.885348 0.714328
H41_2 H 0.785672 0.820365 0.614652
H42_2 H 0.885348 0.785672 0.679635
H43_2 H 0.472243 0.905989 0.627504
H44_2 H 0.614652 0.785672 0.820365
H45_2 H 0.405989 0.872496 0.527757
H46_2 H 0.372496 0.972243 0.594011
H47_2 H 0.714328 0.820365 0.885348
H48_2 H 0.679635 0.885348 0.785672
Zn2_4 Zn 0.2500 0.2500 0.48195(4)
O1_3 O 0.32065(19) 0.38154(19) 0.37647(19)
O2_3 O 0.33362(18) 0.35458(19) 0.41534(19)
O3_3 O 0.2147(2) 0.2861(2) 0.44348(16)
O4_3 O 0.2625(2) 0.28334(19) 0.45707(17)
O6_3 O 0.3734(2) 0.46285(17) 0.3843(2)
O7_3 O 0.33269(16) 0.44253(16) 0.40159(17)
O8_3 O 0.25998(17) 0.4930(2) 0.4630(2)
O9_3 O 0.27348(19) 0.5360(2) 0.4846(2)
N1_3 N 0.3711(2) 0.5582(2) 0.4465(2)
N2_3 N 0.40576(17) 0.55480(18) 0.40950(19)
N3_3 N 0.21649(18) 0.3581(2) 0.3539(2)
N4_3 N 0.1813(2) 0.3193(2) 0.35654(17)
C1_3 C 0.3501(2) 0.4645(2) 0.3991(2)
C2_3 C 0.34025(19) 0.4903(2) 0.41808(18)
C3_3 C 0.3145(2) 0.4904(2) 0.43198(19)
H1_3 H 0.3008 0.4747 0.4289
C4_3 C 0.3076(2) 0.5128(2) 0.45051(19)
C5_3 C 0.3267(2) 0.5351(3) 0.4551(2)
H2_3 H 0.3218 0.5507 0.4683
C6_3 C 0.3538(2) 0.5352(2) 0.4406(2)
C7_3 C 0.3603(2) 0.5121(2) 0.4216(2)
H3_3 H 0.3786 0.5116 0.4112
C8_3 C 0.3966(2) 0.5686(3) 0.4325(3)
C9_3 C 0.2764(4) 0.5137(3) 0.4672(3)
C10_3 C 0.3158(3) 0.3648(3) 0.3987(3)
C11_3 C 0.2846(2) 0.3508(2) 0.3971(2)
C12_3 C 0.2634(2) 0.3601(2) 0.3766(2)
H4_3 H 0.2685 0.3747 0.3623
C13_3 C 0.2348(2) 0.3481(2) 0.3771(2)
C14_3 C 0.2271(3) 0.3262(2) 0.3987(2)
H5_3 H 0.2082 0.3169 0.3984
C15_3 C 0.2485(3) 0.3188(3) 0.4205(2)
C16_3 C 0.2771(3) 0.3319(3) 0.4200(2)
H6_3 H 0.2911 0.3277 0.4352
C17_3 C 0.1912(3) 0.3439(3) 0.3432(3)
C18_3 C 0.2410(3) 0.2943(2) 0.4428(2)
O10_3 O 0.11846(19) 0.37647(19) 0.17935(19)
O11_3 O 0.14542(19) 0.41534(19) 0.16638(18)
O12_3 O 0.2139(2) 0.44348(16) 0.2853(2)
O13_3 O 0.21666(19) 0.45707(17) 0.2375(2)
N5_3 N 0.1419(2) 0.3539(2) 0.28351(18)
N6_3 N 0.1807(2) 0.35654(17) 0.3187(2)
C19_3 C 0.1352(3) 0.3987(3) 0.1842(3)
C20_3 C 0.1492(2) 0.3971(2) 0.2154(2)
C21_3 C 0.1399(2) 0.3766(2) 0.2366(2)
H7_3 H 0.1253 0.3623 0.2315
C22_3 C 0.1519(2) 0.3771(2) 0.2652(2)
C23_3 C 0.1738(2) 0.3987(2) 0.2729(3)
H8_3 H 0.1831 0.3984 0.2918
C24_3 C 0.1812(3) 0.4205(2) 0.2515(3)
C25_3 C 0.1681(3) 0.4200(2) 0.2229(3)
H9_3 H 0.1723 0.4352 0.2089
C26_3 C 0.1561(3) 0.3432(3) 0.3088(3)
C27_3 C 0.2057(2) 0.4428(2) 0.2590(3)
O14_3 O 0.12353(19) 0.17935(19) 0.38154(19)
O15_3 O 0.08466(19) 0.16638(18) 0.35458(19)
O16_3 O 0.05652(16) 0.2853(2) 0.2861(2)
O17_3 O 0.04293(17) 0.2375(2) 0.28334(19)
N7_3 N 0.1461(2) 0.28351(18) 0.3581(2)
N8_3 N 0.14346(17) 0.3187(2) 0.3193(2)
C28_3 C 0.1013(3) 0.1842(3) 0.3648(3)
C29_3 C 0.1029(2) 0.2154(2) 0.3508(2)
C30_3 C 0.1234(2) 0.2366(2) 0.3601(2)
H10_3 H 0.1377 0.2315 0.3747
C31_3 C 0.1229(2) 0.2652(2) 0.3481(2)
C32_3 C 0.1013(2) 0.2729(3) 0.3262(2)
H11_3 H 0.1016 0.2918 0.3169
C33_3 C 0.0795(2) 0.2515(3) 0.3188(3)
C34_3 C 0.0800(2) 0.2229(3) 0.3319(3)
H12_3 H 0.0648 0.2089 0.3277
C35_3 C 0.1568(3) 0.3088(3) 0.3439(3)
C36_3 C 0.0572(2) 0.2590(3) 0.2943(2)
O20_2 O 0.5070(2) 0.5370(2) 0.25998(17)
O21_2 O 0.4640(2) 0.5154(2) 0.27348(19)
N9_3 N 0.4418(2) 0.5535(2) 0.3711(2)
N10_3 N 0.44520(18) 0.59050(19) 0.40576(17)
C37_3 C 0.5355(2) 0.6009(2) 0.3501(2)
C38_3 C 0.5097(2) 0.58192(18) 0.34025(19)
C39_3 C 0.5096(2) 0.56802(19) 0.3145(2)
H13_3 H 0.5253 0.5711 0.3008
C40_3 C 0.4872(2) 0.54949(19) 0.3076(2)
C41_3 C 0.4649(3) 0.5449(2) 0.3267(2)
H14_3 H 0.4493 0.5317 0.3218
C42_3 C 0.4648(2) 0.5594(2) 0.3538(2)
C43_3 C 0.4879(2) 0.5784(2) 0.3603(2)
H15_3 H 0.4884 0.5888 0.3786
C44_3 C 0.4314(3) 0.5675(3) 0.3966(2)
C45_3 C 0.4863(3) 0.5328(3) 0.2764(4)
O22_3 O 0.3843(2) 0.6266(2) 0.53715(17)
O23_3 O 0.40159(17) 0.66731(16) 0.55747(16)
N11_3 N 0.4465(2) 0.6289(2) 0.4418(2)
N12_3 N 0.40950(19) 0.59424(17) 0.44520(18)
C46_3 C 0.3991(2) 0.6499(2) 0.5355(2)
C47_3 C 0.41808(18) 0.65975(19) 0.5097(2)
C48_3 C 0.43198(19) 0.6855(2) 0.5096(2)
H16_3 H 0.4289 0.6992 0.5253
C49_3 C 0.45051(19) 0.6924(2) 0.4872(2)
C50_3 C 0.4551(2) 0.6733(2) 0.4649(3)
H17_3 H 0.4683 0.6782 0.4493
C51_3 C 0.4406(2) 0.6462(2) 0.4648(2)
C52_3 C 0.4216(2) 0.6397(2) 0.4879(2)
H18_3 H 0.4112 0.6214 0.4884
C53_3 C 0.4325(3) 0.6034(2) 0.4314(3)
C54_3 C 0.4672(3) 0.7236(4) 0.4863(3)
Zn4_3 Zn 0.37616(4) 0.64652(4) 0.58898(4)
Zn6_2 Zn 0.48195(4) 0.2500 0.2500
O27_3 O 0.37647(19) 0.32065(19) 0.38154(19)
O29_3 O 0.44348(16) 0.2147(2) 0.2861(2)
O30_3 O 0.45707(17) 0.2625(2) 0.28334(19)
O31_3 O 0.3843(2) 0.3734(2) 0.46285(17)
O32_3 O 0.40159(17) 0.33269(16) 0.44253(16)
O33_3 O 0.4630(2) 0.25998(17) 0.4930(2)
O34_3 O 0.4846(2) 0.27348(19) 0.5360(2)
N13_3 N 0.4465(2) 0.3711(2) 0.5582(2)
N14_3 N 0.40950(19) 0.40576(17) 0.55480(18)
N15_3 N 0.3539(2) 0.21649(18) 0.3581(2)
N16_3 N 0.35654(17) 0.1813(2) 0.3193(2)
C55_3 C 0.3991(2) 0.3501(2) 0.4645(2)
C56_3 C 0.41808(18) 0.34025(19) 0.4903(2)
C57_3 C 0.43198(19) 0.3145(2) 0.4904(2)
H19_3 H 0.4289 0.3008 0.4747
C58_3 C 0.45051(19) 0.3076(2) 0.5128(2)
C59_3 C 0.4551(2) 0.3267(2) 0.5351(3)
H20_3 H 0.4683 0.3218 0.5507
C60_3 C 0.4406(2) 0.3538(2) 0.5352(2)
C61_3 C 0.4216(2) 0.3603(2) 0.5121(2)
H21_3 H 0.4112 0.3786 0.5116
C62_3 C 0.4325(3) 0.3966(2) 0.5686(3)
C63_3 C 0.4672(3) 0.2764(4) 0.5137(3)
C64_3 C 0.3987(3) 0.3158(3) 0.3648(3)
C65_3 C 0.3971(2) 0.2846(2) 0.3508(2)
C66_3 C 0.3766(2) 0.2634(2) 0.3601(2)
H22_3 H 0.3623 0.2685 0.3747
C67_3 C 0.3771(2) 0.2348(2) 0.3481(2)
C68_3 C 0.3987(2) 0.2271(3) 0.3262(2)
H23_3 H 0.3984 0.2082 0.3169
C69_3 C 0.4205(2) 0.2485(3) 0.3188(3)
C70_3 C 0.4200(2) 0.2771(3) 0.3319(3)
H24_3 H 0.4352 0.2911 0.3277
C71_3 C 0.3432(3) 0.1912(3) 0.3439(3)
C72_3 C 0.4428(2) 0.2410(3) 0.2943(2)
O35_3 O 0.17935(19) 0.11846(19) 0.37647(19)
O36_3 O 0.16638(18) 0.14542(19) 0.41534(19)
O37_3 O 0.2853(2) 0.2139(2) 0.44348(16)
O38_3 O 0.2375(2) 0.21666(19) 0.45707(17)
N17_3 N 0.28351(18) 0.1419(2) 0.3539(2)
N18_3 N 0.3187(2) 0.1807(2) 0.35654(17)
C73_3 C 0.1842(3) 0.1352(3) 0.3987(3)
C74_3 C 0.2154(2) 0.1492(2) 0.3971(2)
C75_3 C 0.2366(2) 0.1399(2) 0.3766(2)
H25_3 H 0.2315 0.1253 0.3623
C76_3 C 0.2652(2) 0.1519(2) 0.3771(2)
C77_3 C 0.2729(3) 0.1738(2) 0.3987(2)
H26_3 H 0.2918 0.1831 0.3984
C78_3 C 0.2515(3) 0.1812(3) 0.4205(2)
C79_3 C 0.2229(3) 0.1681(3) 0.4200(2)
H27_3 H 0.2089 0.1723 0.4352
C80_3 C 0.3088(3) 0.1561(3) 0.3432(3)
C81_3 C 0.2590(3) 0.2057(2) 0.4428(2)
O39_3 O 0.38154(19) 0.12353(19) 0.17935(19)
O40_3 O 0.35458(19) 0.08466(19) 0.16638(18)
O41_3 O 0.2861(2) 0.05652(16) 0.2853(2)
O42_3 O 0.28334(19) 0.04293(17) 0.2375(2)
N19_3 N 0.3581(2) 0.1461(2) 0.28351(18)
N20_3 N 0.3193(2) 0.14346(17) 0.3187(2)
C82_3 C 0.3648(3) 0.1013(3) 0.1842(3)
C83_3 C 0.3508(2) 0.1029(2) 0.2154(2)
C84_3 C 0.3601(2) 0.1234(2) 0.2366(2)
H28_3 H 0.3747 0.1377 0.2315
C85_3 C 0.3481(2) 0.1229(2) 0.2652(2)
C86_3 C 0.3262(2) 0.1013(2) 0.2729(3)
H29_3 H 0.3169 0.1016 0.2918
C87_3 C 0.3188(3) 0.0795(2) 0.2515(3)
C88_3 C 0.3319(3) 0.0800(2) 0.2229(3)
H30_3 H 0.3277 0.0648 0.2089
C89_3 C 0.3439(3) 0.1568(3) 0.3088(3)
C90_3 C 0.2943(2) 0.0572(2) 0.2590(3)
O43_3 O 0.3734(2) 0.53715(17) 0.6157(2)
O44_3 O 0.33269(16) 0.55747(16) 0.59841(17)
O45_3 O 0.25998(17) 0.5070(2) 0.5370(2)
O46_3 O 0.27348(19) 0.4640(2) 0.5154(2)
N21_3 N 0.3711(2) 0.4418(2) 0.5535(2)
N22_3 N 0.40576(17) 0.44520(18) 0.59050(19)
C91_3 C 0.3501(2) 0.5355(2) 0.6009(2)
C92_3 C 0.34025(19) 0.5097(2) 0.58192(18)
C93_3 C 0.3145(2) 0.5096(2) 0.56802(19)
H31_3 H 0.3008 0.5253 0.5711
C94_3 C 0.3076(2) 0.4872(2) 0.54949(19)
C95_3 C 0.3267(2) 0.4649(3) 0.5449(2)
H32_3 H 0.3218 0.4493 0.5317
C96_3 C 0.3538(2) 0.4648(2) 0.5594(2)
C97_3 C 0.3603(2) 0.4879(2) 0.5784(2)
H33_3 H 0.3786 0.4884 0.5888
C98_3 C 0.3966(2) 0.4314(3) 0.5675(3)
C99_3 C 0.2764(4) 0.4863(3) 0.5328(3)
O47_3 O 0.53715(17) 0.3843(2) 0.6266(2)
O48_3 O 0.55747(16) 0.40159(17) 0.66731(16)
O49_3 O 0.5070(2) 0.4630(2) 0.74002(17)
O50_3 O 0.4640(2) 0.4846(2) 0.72652(19)
N23_3 N 0.4418(2) 0.4465(2) 0.6289(2)
N24_3 N 0.44520(18) 0.40950(19) 0.59424(17)
C100_3 C 0.5355(2) 0.3991(2) 0.6499(2)
C101_3 C 0.5097(2) 0.41808(18) 0.65975(19)
C102_3 C 0.5096(2) 0.43198(19) 0.6855(2)
H34_3 H 0.5253 0.4289 0.6992
C103_3 C 0.4872(2) 0.45051(19) 0.6924(2)
C104_3 C 0.4649(3) 0.4551(2) 0.6733(2)
H35_3 H 0.4493 0.4683 0.6782
C105_3 C 0.4648(2) 0.4406(2) 0.6462(2)
C106_3 C 0.4879(2) 0.4216(2) 0.6397(2)
H36_3 H 0.4884 0.4112 0.6214
C107_3 C 0.4314(3) 0.4325(3) 0.6034(2)
C108_3 C 0.4863(3) 0.4672(3) 0.7236(4)
Zn8_4 Zn 0.2500 0.48195(4) 0.2500
Zn9_3 Zn 0.14652(4) 0.41102(4) 0.12384(4)
Zn11_3 Zn 0.35348(4) 0.58898(4) 0.62384(4)
Zn12_3 Zn 0.58898(4) 0.37616(4) 0.64652(4)
Zn14_3 Zn 0.35348(4) 0.08898(4) 0.12384(4)
Zn15_3 Zn 0.41102(4) 0.12384(4) 0.14652(4)
Zn16_3 Zn 0.08898(4) 0.37616(4) 0.14652(4)
Zn17_3 Zn 0.14652(4) 0.08898(4) 0.37616(4)
Zn18_3 Zn 0.12384(4) 0.14652(4) 0.41102(4)
Zn19_3 Zn 0.08898(4) 0.12384(4) 0.35348(4)
Zn22_3 Zn 0.23195(4) 0.5000 0.5000
Zn24_4 Zn 0.2500 0.01805(4) 0.2500
Zn26_2 Zn 0.01805(4) 0.2500 0.2500
O52_3 O 0.37647(19) 0.67935(19) 0.61846(19)
O54_3 O 0.17935(19) 0.38154(19) 0.12353(19)
O55_3 O 0.33362(18) 0.64542(19) 0.58466(19)
O57_3 O 0.35458(19) 0.41534(19) 0.33362(18)
O58_3 O 0.28334(19) 0.45707(17) 0.2625(2)
O59_3 O 0.45707(17) 0.2375(2) 0.21666(19)
O60_3 O 0.38825(17) 0.61175(17) 0.61175(17)
O61_3 O 0.11175(17) 0.38825(17) 0.11175(17)
O63_3 O 0.1266(2) 0.46285(17) 0.1157(2)
O65_3 O 0.16731(16) 0.44253(16) 0.09841(17)
O66_3 O 0.2870(2) 0.2430(2) 0.50998(17)
O67_3 O 0.2130(2) 0.2570(2) 0.50998(17)
O68_3 O 0.2570(2) 0.50998(17) 0.2130(2)
O69_3 O 0.2430(2) 0.50998(17) 0.2870(2)
O70_3 O 0.50998(17) 0.2130(2) 0.2570(2)
O71_2 O 0.50998(17) 0.2870(2) 0.2430(2)
O72_3 O 0.2654(2) 0.2860(2) 0.52348(19)
O73_3 O 0.2346(2) 0.2140(2) 0.52348(19)
O74_3 O 0.2140(2) 0.52348(19) 0.2346(2)
O75_3 O 0.2860(2) 0.52348(19) 0.2654(2)
O76_3 O 0.52348(19) 0.2346(2) 0.2140(2)
O77_2 O 0.52348(19) 0.2654(2) 0.2860(2)
H37_3 H 0.364652 0.570365 0.464328
H38_3 H 0.222243 0.377504 0.344011
H39_3 H 0.122496 0.344011 0.277757
H40_3 H 0.155989 0.277757 0.377504
H41_3 H 0.429635 0.535672 0.364652
H42_3 H 0.464328 0.635348 0.429635
H43_3 H 0.344011 0.222243 0.377504
H44_3 H 0.464328 0.364652 0.570365
H45_3 H 0.377504 0.155989 0.277757
H46_3 H 0.277757 0.122496 0.344011
H47_3 H 0.429635 0.464328 0.635348
H48_3 H 0.364652 0.429635 0.535672
Zn2_5 Zn 0.0000 0.5000 0.73195(4)
O14_4 O 0.07065(19) 0.37353(19) 0.63154(19)
O15_4 O 0.08362(18) 0.33466(19) 0.60458(19)
O17_4 O 0.0125(2) 0.29293(17) 0.53334(19)
C28_4 C 0.0658(3) 0.3513(3) 0.6148(3)
C29_4 C 0.0346(2) 0.3529(2) 0.6008(2)
C30_4 C 0.0134(2) 0.3734(2) 0.6101(2)
H10_4 H 0.0185 0.3877 0.6247
C34_4 C 0.0271(3) 0.3300(2) 0.5819(3)
H12_4 H 0.0411 0.3148 0.5777
Zn6_3 Zn -0.0000 0.73195(4) 0.5000
O29_4 O 0.0353(2) 0.69348(16) 0.5361(2)
N15_4 N 0.03351(18) 0.6039(2) 0.6081(2)
N16_4 N 0.0687(2) 0.60654(17) 0.5693(2)
C67_4 C 0.0152(2) 0.6271(2) 0.5981(2)
C68_4 C 0.0229(3) 0.6487(2) 0.5762(2)
H23_4 H 0.0418 0.6484 0.5669
C69_4 C 0.0015(3) 0.6705(2) 0.5688(3)
C71_4 C 0.0588(3) 0.5932(3) 0.5939(3)
C72_4 C 0.0090(3) 0.6928(2) 0.5443(2)
O35_4 O 0.13154(19) 0.42935(19) 0.62647(19)
O36_4 O 0.10458(19) 0.41638(18) 0.66534(19)
O37_4 O 0.0361(2) 0.5353(2) 0.69348(16)
O38_4 O 0.03334(19) 0.4875(2) 0.70707(17)
N17_4 N 0.1081(2) 0.53351(18) 0.6039(2)
N18_4 N 0.0693(2) 0.5687(2) 0.60654(17)
C73_4 C 0.1148(3) 0.4342(3) 0.6487(3)
C74_4 C 0.1008(2) 0.4654(2) 0.6471(2)
C75_4 C 0.1101(2) 0.4866(2) 0.6266(2)
H25_4 H 0.1247 0.4815 0.6123
C76_4 C 0.0981(2) 0.5152(2) 0.6271(2)
C77_4 C 0.0762(2) 0.5229(3) 0.6487(2)
H26_4 H 0.0669 0.5418 0.6484
C78_4 C 0.0688(3) 0.5015(3) 0.6705(2)
C79_4 C 0.0819(3) 0.4729(3) 0.6700(2)
H27_4 H 0.0777 0.4589 0.6852
C80_4 C 0.0939(3) 0.5588(3) 0.5932(3)
C81_4 C 0.0443(2) 0.5090(3) 0.6928(2)
O39_4 O 0.12647(19) 0.63154(19) 0.42935(19)
O40_4 O 0.16534(19) 0.60458(19) 0.41638(18)
O41_4 O 0.19348(16) 0.5361(2) 0.5353(2)
O42_4 O 0.20707(17) 0.53334(19) 0.4875(2)
N19_4 N 0.1039(2) 0.6081(2) 0.53351(18)
N20_4 N 0.10654(17) 0.5693(2) 0.5687(2)
C82_4 C 0.1487(3) 0.6148(3) 0.4342(3)
C83_4 C 0.1471(2) 0.6008(2) 0.4654(2)
C84_4 C 0.1266(2) 0.6101(2) 0.4866(2)
H28_4 H 0.1123 0.6247 0.4815
C85_4 C 0.1271(2) 0.5981(2) 0.5152(2)
C86_4 C 0.1487(2) 0.5762(2) 0.5229(3)
H29_4 H 0.1484 0.5669 0.5418
C87_4 C 0.1705(2) 0.5688(3) 0.5015(3)
C88_4 C 0.1700(2) 0.5819(3) 0.4729(3)
H30_4 H 0.1852 0.5777 0.4589
C89_4 C 0.0932(3) 0.5939(3) 0.5588(3)
C90_4 C 0.1928(2) 0.5443(2) 0.5090(3)
Zn14_4 Zn 0.16102(4) 0.60348(4) 0.37384(4)
Zn15_4 Zn 0.12616(4) 0.66102(4) 0.39652(4)
Zn17_4 Zn 0.16102(4) 0.39652(4) 0.62616(4)
Zn18_4 Zn 0.10348(4) 0.37384(4) 0.66102(4)
Zn19_4 Zn 0.12616(4) 0.33898(4) 0.60348(4)
Zn26_3 Zn 0.0000 0.26805(4) 0.5000
O59_4 O 0.0125(2) 0.70707(17) 0.46666(19)
O66_4 O 0.0070(2) 0.5370(2) 0.75998(17)
O70_4 O 0.0370(2) 0.75998(17) 0.5070(2)
O73_4 O 0.0360(2) 0.4846(2) 0.77348(19)
O76_4 O 0.0154(2) 0.77348(19) 0.4640(2)
H43_4 H 0.0277569 0.594011 0.627504
H45_4 H 0.0940106 0.627504 0.527757
H46_4 H 0.127504 0.527757 0.594011
Zn2_6 Zn 1.0000 0.5000 0.73195(4)
O1_4 O 0.86846(19) 0.57065(19) 0.62647(19)
O2_4 O 0.89542(19) 0.58362(18) 0.66534(19)
O3_4 O 0.9639(2) 0.4647(2) 0.69348(16)
O4_4 O 0.96666(19) 0.5125(2) 0.70707(17)
O6_4 O 0.78715(17) 0.6234(2) 0.6343(2)
O7_4 O 0.80747(16) 0.58269(16) 0.65159(17)
O8_4 O 0.7570(2) 0.50998(17) 0.7130(2)
O9_4 O 0.7140(2) 0.52348(19) 0.7346(2)
N1_4 N 0.6918(2) 0.6211(2) 0.6965(2)
N2_4 N 0.69520(18) 0.65576(17) 0.65950(19)
N3_4 N 0.8919(2) 0.46649(18) 0.6039(2)
N4_4 N 0.9307(2) 0.4313(2) 0.60654(17)
C1_4 C 0.7855(2) 0.6001(2) 0.6491(2)
C2_4 C 0.7597(2) 0.59025(19) 0.66808(18)
C3_4 C 0.7596(2) 0.5645(2) 0.68198(19)
H1_4 H 0.7753 0.5508 0.6789
C4_4 C 0.7372(2) 0.5576(2) 0.70051(19)
C5_4 C 0.7149(3) 0.5767(2) 0.7051(2)
H2_4 H 0.6993 0.5718 0.7183
C6_4 C 0.7148(2) 0.6038(2) 0.6906(2)
C7_4 C 0.7379(2) 0.6103(2) 0.6716(2)
H3_4 H 0.7384 0.6286 0.6612
C8_4 C 0.6814(3) 0.6466(2) 0.6825(3)
C9_4 C 0.7363(3) 0.5264(4) 0.7172(3)
C10_4 C 0.8852(3) 0.5658(3) 0.6487(3)
C11_4 C 0.8992(2) 0.5346(2) 0.6471(2)
C12_4 C 0.8899(2) 0.5134(2) 0.6266(2)
H4_4 H 0.8753 0.5185 0.6123
C13_4 C 0.9019(2) 0.4848(2) 0.6271(2)
C14_4 C 0.9238(2) 0.4771(3) 0.6487(2)
H5_4 H 0.9331 0.4582 0.6484
C15_4 C 0.9312(3) 0.4985(3) 0.6705(2)
C16_4 C 0.9181(3) 0.5271(3) 0.6700(2)
H6_4 H 0.9223 0.5411 0.6852
C17_4 C 0.9061(3) 0.4412(3) 0.5932(3)
C18_4 C 0.9557(2) 0.4910(3) 0.6928(2)
O10_4 O 0.87353(19) 0.36846(19) 0.42935(19)
O11_4 O 0.83466(19) 0.39542(19) 0.41638(18)
O12_4 O 0.80652(16) 0.4639(2) 0.5353(2)
O13_4 O 0.79293(17) 0.46666(19) 0.4875(2)
N5_4 N 0.8961(2) 0.3919(2) 0.53351(18)
N6_4 N 0.89346(17) 0.4307(2) 0.5687(2)
C19_4 C 0.8513(3) 0.3852(3) 0.4342(3)
C20_4 C 0.8529(2) 0.3992(2) 0.4654(2)
C21_4 C 0.8734(2) 0.3899(2) 0.4866(2)
H7_4 H 0.8877 0.3753 0.4815
C22_4 C 0.8729(2) 0.4019(2) 0.5152(2)
C23_4 C 0.8513(2) 0.4238(2) 0.5229(3)
H8_4 H 0.8516 0.4331 0.5418
C24_4 C 0.8295(2) 0.4312(3) 0.5015(3)
C25_4 C 0.8300(2) 0.4181(3) 0.4729(3)
H9_4 H 0.8148 0.4223 0.4589
C26_4 C 0.9068(3) 0.4061(3) 0.5588(3)
C27_4 C 0.8072(2) 0.4557(2) 0.5090(3)
O16_4 O 0.9647(2) 0.30652(16) 0.5361(2)
N7_4 N 0.96649(18) 0.3961(2) 0.6081(2)
N8_4 N 0.9313(2) 0.39346(17) 0.5693(2)
C31_4 C 0.9848(2) 0.3729(2) 0.5981(2)
C32_4 C 0.9771(3) 0.3513(2) 0.5762(2)
H11_4 H 0.9582 0.3516 0.5669
C33_4 C 0.9985(3) 0.3295(2) 0.5688(3)
C35_4 C 0.9412(3) 0.4068(3) 0.5939(3)
C36_4 C 0.9910(3) 0.3072(2) 0.5443(2)
N9_4 N 0.6965(2) 0.6918(2) 0.6211(2)
N10_4 N 0.65950(19) 0.69520(18) 0.65576(17)
C37_4 C 0.6491(2) 0.7855(2) 0.6001(2)
C38_4 C 0.66808(18) 0.7597(2) 0.59025(19)
C39_4 C 0.68198(19) 0.7596(2) 0.5645(2)
H13_4 H 0.6789 0.7753 0.5508
C40_4 C 0.70051(19) 0.7372(2) 0.5576(2)
C41_4 C 0.7051(2) 0.7149(3) 0.5767(2)
H14_4 H 0.7183 0.6993 0.5718
C42_4 C 0.6906(2) 0.7148(2) 0.6038(2)
C43_4 C 0.6716(2) 0.7379(2) 0.6103(2)
H15_4 H 0.6612 0.7384 0.6286
C44_4 C 0.6825(3) 0.6814(3) 0.6466(2)
C45_4 C 0.7172(3) 0.7363(3) 0.5264(4)
O22_4 O 0.6234(2) 0.6343(2) 0.78715(17)
O23_4 O 0.58269(16) 0.65159(17) 0.80747(16)
O24_3 O 0.50998(17) 0.7130(2) 0.7570(2)
O25_3 O 0.52348(19) 0.7346(2) 0.7140(2)
N11_4 N 0.6211(2) 0.6965(2) 0.6918(2)
N12_4 N 0.65576(17) 0.65950(19) 0.69520(18)
C46_4 C 0.6001(2) 0.6491(2) 0.7855(2)
C47_4 C 0.59025(19) 0.66808(18) 0.7597(2)
C48_4 C 0.5645(2) 0.68198(19) 0.7596(2)
H16_4 H 0.5508 0.6789 0.7753
C49_4 C 0.5576(2) 0.70051(19) 0.7372(2)
C50_4 C 0.5767(2) 0.7051(2) 0.7149(3)
H17_4 H 0.5718 0.7183 0.6993
C51_4 C 0.6038(2) 0.6906(2) 0.7148(2)
C52_4 C 0.6103(2) 0.6716(2) 0.7379(2)
H18_4 H 0.6286 0.6612 0.7384
C53_4 C 0.6466(2) 0.6825(3) 0.6814(3)
C54_4 C 0.5264(4) 0.7172(3) 0.7363(3)
Zn4_4 Zn 0.60348(4) 0.62616(4) 0.83898(4)
Zn6_4 Zn 1.0000 0.73195(4) 0.5000
O27_4 O 0.92935(19) 0.62647(19) 0.63154(19)
O30_4 O 0.9875(2) 0.70707(17) 0.53334(19)
O31_4 O 0.8766(2) 0.6343(2) 0.71285(17)
O32_4 O 0.91731(16) 0.65159(17) 0.69253(16)
O33_4 O 0.99002(17) 0.7130(2) 0.7430(2)
O34_4 O 0.97652(19) 0.7346(2) 0.7860(2)
N13_4 N 0.8789(2) 0.6965(2) 0.8082(2)
N14_4 N 0.84424(17) 0.65950(19) 0.80480(18)
C55_4 C 0.8999(2) 0.6491(2) 0.7145(2)
C56_4 C 0.90975(19) 0.66808(18) 0.7403(2)
C57_4 C 0.9355(2) 0.68198(19) 0.7404(2)
H19_4 H 0.9492 0.6789 0.7247
C58_4 C 0.9424(2) 0.70051(19) 0.7628(2)
C59_4 C 0.9233(2) 0.7051(2) 0.7851(3)
H20_4 H 0.9282 0.7183 0.8007
C60_4 C 0.8962(2) 0.6906(2) 0.7852(2)
C61_4 C 0.8897(2) 0.6716(2) 0.7621(2)
H21_4 H 0.8714 0.6612 0.7616
C62_4 C 0.8534(2) 0.6825(3) 0.8186(3)
C63_4 C 0.9736(4) 0.7172(3) 0.7637(3)
C64_4 C 0.9342(3) 0.6487(3) 0.6148(3)
C65_4 C 0.9654(2) 0.6471(2) 0.6008(2)
C66_4 C 0.9866(2) 0.6266(2) 0.6101(2)
H22_4 H 0.9815 0.6123 0.6247
C70_4 C 0.9729(3) 0.6700(2) 0.5819(3)
H24_4 H 0.9589 0.6852 0.5777
O43_4 O 0.71285(17) 0.6234(2) 0.8657(2)
O44_4 O 0.69253(16) 0.58269(16) 0.84841(17)
O45_4 O 0.7430(2) 0.50998(17) 0.7870(2)
O46_4 O 0.7860(2) 0.52348(19) 0.7654(2)
N21_4 N 0.8082(2) 0.6211(2) 0.8035(2)
N22_4 N 0.80480(18) 0.65576(17) 0.84050(19)
C91_4 C 0.7145(2) 0.6001(2) 0.8509(2)
C92_4 C 0.7403(2) 0.59025(19) 0.83192(18)
C93_4 C 0.7404(2) 0.5645(2) 0.81802(19)
H31_4 H 0.7247 0.5508 0.8211
C94_4 C 0.7628(2) 0.5576(2) 0.79949(19)
C95_4 C 0.7851(3) 0.5767(2) 0.7949(2)
H32_4 H 0.8007 0.5718 0.7817
C96_4 C 0.7852(2) 0.6038(2) 0.8094(2)
C97_4 C 0.7621(2) 0.6103(2) 0.8284(2)
H33_4 H 0.7616 0.6286 0.8388
C98_4 C 0.8186(3) 0.6466(2) 0.8175(3)
C99_4 C 0.7637(3) 0.5264(4) 0.7828(3)
O47_4 O 0.8657(2) 0.78715(17) 0.8766(2)
O48_4 O 0.84841(17) 0.80747(16) 0.91731(16)
O49_4 O 0.7870(2) 0.7570(2) 0.99002(17)
O50_4 O 0.7654(2) 0.7140(2) 0.97652(19)
N23_4 N 0.8035(2) 0.6918(2) 0.8789(2)
N24_4 N 0.84050(19) 0.69520(18) 0.84424(17)
C100_4 C 0.8509(2) 0.7855(2) 0.8999(2)
C101_4 C 0.83192(18) 0.7597(2) 0.90975(19)
C102_4 C 0.81802(19) 0.7596(2) 0.9355(2)
H34_4 H 0.8211 0.7753 0.9492
C103_4 C 0.79949(19) 0.7372(2) 0.9424(2)
C104_4 C 0.7949(2) 0.7149(3) 0.9233(2)
H35_4 H 0.7817 0.6993 0.9282
C105_4 C 0.8094(2) 0.7148(2) 0.8962(2)
C106_4 C 0.8284(2) 0.7379(2) 0.8897(2)
H36_4 H 0.8388 0.7384 0.8714
C107_4 C 0.8175(3) 0.6814(3) 0.8534(2)
C108_4 C 0.7828(3) 0.7363(3) 0.9736(4)
Zn9_4 Zn 0.83898(4) 0.39652(4) 0.37384(4)
Zn11_4 Zn 0.66102(4) 0.60348(4) 0.87384(4)
Zn12_4 Zn 0.87384(4) 0.83898(4) 0.89652(4)
Zn16_4 Zn 0.87384(4) 0.33898(4) 0.39652(4)
Zn22_4 Zn 0.7500 0.48195(4) 0.7500
Zn26_4 Zn 1.0000 0.26805(4) 0.5000
O52_4 O 0.57065(19) 0.62647(19) 0.86846(19)
O54_4 O 0.86846(19) 0.42935(19) 0.37353(19)
O55_4 O 0.60458(19) 0.58362(18) 0.83466(19)
O57_4 O 0.83466(19) 0.60458(19) 0.58362(18)
O58_4 O 0.79293(17) 0.53334(19) 0.5125(2)
O60_4 O 0.63825(17) 0.63825(17) 0.86175(17)
O61_4 O 0.86175(17) 0.36175(17) 0.36175(17)
O63_4 O 0.78715(17) 0.3766(2) 0.3657(2)
O65_4 O 0.80747(16) 0.41731(16) 0.34841(17)
O67_4 O 0.9930(2) 0.4630(2) 0.75998(17)
O71_3 O 0.9630(2) 0.75998(17) 0.4930(2)
O72_4 O 0.9640(2) 0.5154(2) 0.77348(19)
O77_3 O 0.9846(2) 0.77348(19) 0.5360(2)
H37_4 H 0.679635 0.614652 0.714328
H38_4 H 0.872496 0.472243 0.594011
H39_4 H 0.905989 0.372496 0.527757
H40_4 H 0.972243 0.405989 0.627504
H41_4 H 0.714328 0.679635 0.614652
H42_4 H 0.614652 0.714328 0.679635
H44_4 H 0.885348 0.714328 0.820365
H47_4 H 0.785672 0.679635 0.885348
H48_4 H 0.820365 0.614652 0.785672
Zn24_5 Zn -0.0000 0.0000 0.23195(4)
Zn26_5 Zn 0.23195(4) 0.0000 0.0000
O10_5 O 0.13154(19) 0.07065(19) 0.87353(19)
O11_5 O 0.10458(19) 0.08362(18) 0.83466(19)
O13_5 O 0.03334(19) 0.0125(2) 0.79293(17)
C19_5 C 0.1148(3) 0.0658(3) 0.8513(3)
C20_5 C 0.1008(2) 0.0346(2) 0.8529(2)
C21_5 C 0.1101(2) 0.0134(2) 0.8734(2)
H7_5 H 0.1247 0.0185 0.8877
C25_5 C 0.0819(3) 0.0271(3) 0.8300(2)
H9_5 H 0.0777 0.0411 0.8148
Zn8_5 Zn 0.0000 0.0000 0.76805(4)
Zn9_5 Zn 0.10348(4) 0.12616(4) 0.83898(4)
Zn16_5 Zn 0.16102(4) 0.10348(4) 0.87384(4)
Zn26_6 Zn 0.23195(4) 0.0000 1.0000
O54_5 O 0.07065(19) 0.12647(19) 0.86846(19)
O61_5 O 0.13825(17) 0.13825(17) 0.86175(17)
O63_5 O 0.1234(2) 0.1343(2) 0.78715(17)
O65_5 O 0.08269(16) 0.15159(17) 0.80747(16)
O74_4 O 0.0360(2) 0.0154(2) 0.72652(19)
Zn2_7 Zn 0.0000 0.76805(4) 0.0000
O14_5 O 0.12647(19) 0.86846(19) 0.07065(19)
O15_5 O 0.16534(19) 0.89542(19) 0.08362(18)
O17_5 O 0.20707(17) 0.96666(19) 0.0125(2)
C28_5 C 0.1487(3) 0.8852(3) 0.0658(3)
C29_5 C 0.1471(2) 0.8992(2) 0.0346(2)
C30_5 C 0.1266(2) 0.8899(2) 0.0134(2)
H10_5 H 0.1123 0.8753 0.0185
C34_5 C 0.1700(2) 0.9181(3) 0.0271(3)
H12_5 H 0.1852 0.9223 0.0411
O35_5 O 0.07065(19) 0.87353(19) 0.13154(19)
O36_5 O 0.08362(18) 0.83466(19) 0.10458(19)
O38_5 O 0.0125(2) 0.79293(17) 0.03334(19)
C73_5 C 0.0658(3) 0.8513(3) 0.1148(3)
C74_5 C 0.0346(2) 0.8529(2) 0.1008(2)
C75_5 C 0.0134(2) 0.8734(2) 0.1101(2)
H25_5 H 0.0185 0.8877 0.1247
C79_5 C 0.0271(3) 0.8300(2) 0.0819(3)
H27_5 H 0.0411 0.8148 0.0777
Zn17_5 Zn 0.10348(4) 0.87384(4) 0.16102(4)
Zn18_5 Zn 0.12616(4) 0.83898(4) 0.10348(4)
Zn19_5 Zn 0.16102(4) 0.89652(4) 0.12616(4)
Zn24_6 Zn -0.0000 1.0000 0.23195(4)
Zn26_7 Zn 0.23195(4) 1.0000 0.0000
O73_5 O 0.0154(2) 0.72652(19) 0.0360(2)
Zn2_8 Zn -0.0000 0.76805(4) 1.0000
O3_5 O 0.0353(2) 0.80652(16) 0.9639(2)
N3_5 N 0.03351(18) 0.8961(2) 0.8919(2)
N4_5 N 0.0687(2) 0.89346(17) 0.9307(2)
C13_5 C 0.0152(2) 0.8729(2) 0.9019(2)
C14_5 C 0.0229(3) 0.8513(2) 0.9238(2)
H5_5 H 0.0418 0.8516 0.9331
C15_5 C 0.0015(3) 0.8295(2) 0.9312(3)
C17_5 C 0.0588(3) 0.9068(3) 0.9061(3)
C18_5 C 0.0090(3) 0.8072(2) 0.9557(2)
O12_5 O 0.0361(2) 0.9647(2) 0.80652(16)
N5_5 N 0.1081(2) 0.96649(18) 0.8961(2)
N6_5 N 0.0693(2) 0.9313(2) 0.89346(17)
C22_5 C 0.0981(2) 0.9848(2) 0.8729(2)
C23_5 C 0.0762(2) 0.9771(3) 0.8513(2)
H8_5 H 0.0669 0.9582 0.8516
C24_5 C 0.0688(3) 0.9985(3) 0.8295(2)
C26_5 C 0.0939(3) 0.9412(3) 0.9068(3)
C27_5 C 0.0443(2) 0.9910(3) 0.8072(2)
O16_5 O 0.19348(16) 0.9639(2) 0.9647(2)
N7_5 N 0.1039(2) 0.8919(2) 0.96649(18)
N8_5 N 0.10654(17) 0.9307(2) 0.9313(2)
C31_5 C 0.1271(2) 0.9019(2) 0.9848(2)
C32_5 C 0.1487(2) 0.9238(2) 0.9771(3)
H11_5 H 0.1484 0.9331 0.9582
C33_5 C 0.1705(2) 0.9312(3) 0.9985(3)
C35_5 C 0.0932(3) 0.9061(3) 0.9412(3)
C36_5 C 0.1928(2) 0.9557(2) 0.9910(3)
Zn8_6 Zn -0.0000 1.0000 0.76805(4)
Zn26_8 Zn 0.23195(4) 1.0000 1.0000
O67_5 O 0.0370(2) 0.74002(17) 0.9930(2)
O69_4 O 0.0070(2) 0.9630(2) 0.74002(17)
H38_5 H 0.0277569 0.905989 0.872496
H39_5 H 0.127504 0.972243 0.905989
H40_5 H 0.0940106 0.872496 0.972243
Zn6_5 Zn 0.76805(4) 0.0000 0.0000
O39_5 O 0.86846(19) 0.07065(19) 0.12647(19)
O40_5 O 0.89542(19) 0.08362(18) 0.16534(19)
O42_5 O 0.96666(19) 0.0125(2) 0.20707(17)
C82_5 C 0.8852(3) 0.0658(3) 0.1487(3)
C83_5 C 0.8992(2) 0.0346(2) 0.1471(2)
C84_5 C 0.8899(2) 0.0134(2) 0.1266(2)
H28_5 H 0.8753 0.0185 0.1123
C88_5 C 0.9181(3) 0.0271(3) 0.1700(2)
H30_5 H 0.9223 0.0411 0.1852
Zn14_5 Zn 0.89652(4) 0.12616(4) 0.16102(4)
Zn15_5 Zn 0.83898(4) 0.10348(4) 0.12616(4)
Zn24_7 Zn 1.0000 0.0000 0.23195(4)
O59_5 O 0.79293(17) 0.03334(19) 0.0125(2)
O76_5 O 0.72652(19) 0.0360(2) 0.0154(2)
Zn6_6 Zn 0.76805(4) 0.0000 1.0000
Zn8_7 Zn 1.0000 0.0000 0.76805(4)
O68_4 O 0.9930(2) 0.0370(2) 0.74002(17)
O71_4 O 0.74002(17) 0.0070(2) 0.9630(2)
Zn2_9 Zn 1.0000 0.76805(4) 0.0000
Zn6_7 Zn 0.76805(4) 1.0000 0.0000
O29_5 O 0.80652(16) 0.9639(2) 0.0353(2)
N15_5 N 0.8961(2) 0.8919(2) 0.03351(18)
N16_5 N 0.89346(17) 0.9307(2) 0.0687(2)
C67_5 C 0.8729(2) 0.9019(2) 0.0152(2)
C68_5 C 0.8513(2) 0.9238(2) 0.0229(3)
H23_5 H 0.8516 0.9331 0.0418
C69_5 C 0.8295(2) 0.9312(3) 0.0015(3)
C71_5 C 0.9068(3) 0.9061(3) 0.0588(3)
C72_5 C 0.8072(2) 0.9557(2) 0.0090(3)
O37_5 O 0.9647(2) 0.80652(16) 0.0361(2)
N17_5 N 0.96649(18) 0.8961(2) 0.1081(2)
N18_5 N 0.9313(2) 0.89346(17) 0.0693(2)
C76_5 C 0.9848(2) 0.8729(2) 0.0981(2)
C77_5 C 0.9771(3) 0.8513(2) 0.0762(2)
H26_5 H 0.9582 0.8516 0.0669
C78_5 C 0.9985(3) 0.8295(2) 0.0688(3)
C80_5 C 0.9412(3) 0.9068(3) 0.0939(3)
C81_5 C 0.9910(3) 0.8072(2) 0.0443(2)
O41_5 O 0.9639(2) 0.9647(2) 0.19348(16)
N19_5 N 0.8919(2) 0.96649(18) 0.1039(2)
N20_5 N 0.9307(2) 0.9313(2) 0.10654(17)
C85_5 C 0.9019(2) 0.9848(2) 0.1271(2)
C86_5 C 0.9238(2) 0.9771(3) 0.1487(2)
H29_5 H 0.9331 0.9582 0.1484
C87_5 C 0.9312(3) 0.9985(3) 0.1705(2)
C89_5 C 0.9061(3) 0.9412(3) 0.0932(3)
C90_5 C 0.9557(2) 0.9910(3) 0.1928(2)
Zn24_8 Zn 1.0000 1.0000 0.23195(4)
O66_5 O 0.9630(2) 0.74002(17) 0.0070(2)
O70_5 O 0.74002(17) 0.9930(2) 0.0370(2)
H43_5 H 0.905989 0.872496 0.0277569
H45_5 H 0.872496 0.972243 0.0940106
H46_5 H 0.972243 0.905989 0.127504
Zn2_10 Zn 1.0000 0.76805(4) 1.0000
O2_5 O 0.91638(18) 0.83466(19) 0.89542(19)
O4_5 O 0.9875(2) 0.79293(17) 0.96666(19)
C10_5 C 0.9342(3) 0.8513(3) 0.8852(3)
C11_5 C 0.9654(2) 0.8529(2) 0.8992(2)
C12_5 C 0.9866(2) 0.8734(2) 0.8899(2)
H4_5 H 0.9815 0.8877 0.8753
C16_5 C 0.9729(3) 0.8300(2) 0.9181(3)
H6_5 H 0.9589 0.8148 0.9223
Zn6_8 Zn 0.76805(4) 1.0000 1.0000
O27_5 O 0.87353(19) 0.86846(19) 0.92935(19)
O28_3 O 0.83466(19) 0.89542(19) 0.91638(18)
O30_5 O 0.79293(17) 0.96666(19) 0.9875(2)
C64_5 C 0.8513(3) 0.8852(3) 0.9342(3)
C65_5 C 0.8529(2) 0.8992(2) 0.9654(2)
C66_5 C 0.8734(2) 0.8899(2) 0.9866(2)
H22_5 H 0.8877 0.8753 0.9815
C70_5 C 0.8300(2) 0.9181(3) 0.9729(3)
H24_5 H 0.8148 0.9223 0.9589
Zn8_8 Zn 1.0000 1.0000 0.76805(4)
O53_3 O 0.86846(19) 0.92935(19) 0.87353(19)
O58_5 O 0.96666(19) 0.9875(2) 0.79293(17)
O72_5 O 0.9846(2) 0.72652(19) 0.9640(2)
O75_4 O 0.9640(2) 0.9846(2) 0.72652(19)
O77_4 O 0.72652(19) 0.9640(2) 0.9846(2)
Zn2_11 Zn 0.7500 0.2500 0.51805(4)
O1_5 O 0.67935(19) 0.38154(19) 0.62353(19)
O3_6 O 0.7853(2) 0.2861(2) 0.55652(16)
O4_6 O 0.7375(2) 0.28334(19) 0.54293(17)
N3_6 N 0.78351(18) 0.3581(2) 0.6461(2)
N4_6 N 0.8187(2) 0.3193(2) 0.64346(17)
C10_6 C 0.6842(3) 0.3648(3) 0.6013(3)
C11_6 C 0.7154(2) 0.3508(2) 0.6029(2)
C12_6 C 0.7366(2) 0.3601(2) 0.6234(2)
H4_6 H 0.7315 0.3747 0.6377
C13_6 C 0.7652(2) 0.3481(2) 0.6229(2)
C14_6 C 0.7729(3) 0.3262(2) 0.6013(2)
H5_6 H 0.7918 0.3169 0.6016
C15_6 C 0.7515(3) 0.3188(3) 0.5795(2)
C16_6 C 0.7229(3) 0.3319(3) 0.5800(2)
H6_6 H 0.7089 0.3277 0.5648
C17_6 C 0.8088(3) 0.3439(3) 0.6568(3)
C18_6 C 0.7590(3) 0.2943(2) 0.5572(2)
O10_6 O 0.88154(19) 0.37647(19) 0.82065(19)
O11_6 O 0.85458(19) 0.41534(19) 0.83362(18)
O12_6 O 0.7861(2) 0.44348(16) 0.7147(2)
O13_6 O 0.78334(19) 0.45707(17) 0.7625(2)
N5_6 N 0.8581(2) 0.3539(2) 0.71649(18)
N6_6 N 0.8193(2) 0.35654(17) 0.6813(2)
C19_6 C 0.8648(3) 0.3987(3) 0.8158(3)
C20_6 C 0.8508(2) 0.3971(2) 0.7846(2)
C21_6 C 0.8601(2) 0.3766(2) 0.7634(2)
H7_6 H 0.8747 0.3623 0.7685
C22_6 C 0.8481(2) 0.3771(2) 0.7348(2)
C23_6 C 0.8262(2) 0.3987(2) 0.7271(3)
H8_6 H 0.8169 0.3984 0.7082
C24_6 C 0.8188(3) 0.4205(2) 0.7485(3)
C25_6 C 0.8319(3) 0.4200(2) 0.7771(3)
H9_6 H 0.8277 0.4352 0.7911
C26_6 C 0.8439(3) 0.3432(3) 0.6912(3)
C27_6 C 0.7943(2) 0.4428(2) 0.7410(3)
O14_6 O 0.87647(19) 0.17935(19) 0.61846(19)
O15_6 O 0.91534(19) 0.16638(18) 0.64542(19)
O16_6 O 0.94348(16) 0.2853(2) 0.7139(2)
O17_6 O 0.95707(17) 0.2375(2) 0.71666(19)
N7_6 N 0.8539(2) 0.28351(18) 0.6419(2)
N8_6 N 0.85654(17) 0.3187(2) 0.6807(2)
C28_6 C 0.8987(3) 0.1842(3) 0.6352(3)
C29_6 C 0.8971(2) 0.2154(2) 0.6492(2)
C30_6 C 0.8766(2) 0.2366(2) 0.6399(2)
H10_6 H 0.8623 0.2315 0.6253
C31_6 C 0.8771(2) 0.2652(2) 0.6519(2)
C32_6 C 0.8987(2) 0.2729(3) 0.6738(2)
H11_6 H 0.8984 0.2918 0.6831
C33_6 C 0.9205(2) 0.2515(3) 0.6812(3)
C34_6 C 0.9200(2) 0.2229(3) 0.6681(3)
H12_6 H 0.9352 0.2089 0.6723
C35_6 C 0.8432(3) 0.3088(3) 0.6561(3)
C36_6 C 0.9428(2) 0.2590(3) 0.7057(2)
Zn6_9 Zn 0.51805(4) 0.2500 0.7500
O28_4 O 0.58466(19) 0.33362(18) 0.64542(19)
O29_6 O 0.55652(16) 0.2147(2) 0.7139(2)
O30_6 O 0.54293(17) 0.2625(2) 0.71666(19)
N15_6 N 0.6461(2) 0.21649(18) 0.6419(2)
N16_6 N 0.64346(17) 0.1813(2) 0.6807(2)
C64_6 C 0.6013(3) 0.3158(3) 0.6352(3)
C65_6 C 0.6029(2) 0.2846(2) 0.6492(2)
C66_6 C 0.6234(2) 0.2634(2) 0.6399(2)
H22_6 H 0.6377 0.2685 0.6253
C67_6 C 0.6229(2) 0.2348(2) 0.6519(2)
C68_6 C 0.6013(2) 0.2271(3) 0.6738(2)
H23_6 H 0.6016 0.2082 0.6831
C69_6 C 0.5795(2) 0.2485(3) 0.6812(3)
C70_6 C 0.5800(2) 0.2771(3) 0.6681(3)
H24_6 H 0.5648 0.2911 0.6723
C71_6 C 0.6568(3) 0.1912(3) 0.6561(3)
C72_6 C 0.5572(2) 0.2410(3) 0.7057(2)
O35_6 O 0.82065(19) 0.11846(19) 0.62353(19)
O36_6 O 0.83362(18) 0.14542(19) 0.58466(19)
O37_6 O 0.7147(2) 0.2139(2) 0.55652(16)
O38_6 O 0.7625(2) 0.21666(19) 0.54293(17)
N17_6 N 0.71649(18) 0.1419(2) 0.6461(2)
N18_6 N 0.6813(2) 0.1807(2) 0.64346(17)
C73_6 C 0.8158(3) 0.1352(3) 0.6013(3)
C74_6 C 0.7846(2) 0.1492(2) 0.6029(2)
C75_6 C 0.7634(2) 0.1399(2) 0.6234(2)
H25_6 H 0.7685 0.1253 0.6377
C76_6 C 0.7348(2) 0.1519(2) 0.6229(2)
C77_6 C 0.7271(3) 0.1738(2) 0.6013(2)
H26_6 H 0.7082 0.1831 0.6016
C78_6 C 0.7485(3) 0.1812(3) 0.5795(2)
C79_6 C 0.7771(3) 0.1681(3) 0.5800(2)
H27_6 H 0.7911 0.1723 0.5648
C80_6 C 0.6912(3) 0.1561(3) 0.6568(3)
C81_6 C 0.7410(3) 0.2057(2) 0.5572(2)
O39_6 O 0.61846(19) 0.12353(19) 0.82065(19)
O40_6 O 0.64542(19) 0.08466(19) 0.83362(18)
O41_6 O 0.7139(2) 0.05652(16) 0.7147(2)
O42_6 O 0.71666(19) 0.04293(17) 0.7625(2)
N19_6 N 0.6419(2) 0.1461(2) 0.71649(18)
N20_6 N 0.6807(2) 0.14346(17) 0.6813(2)
C82_6 C 0.6352(3) 0.1013(3) 0.8158(3)
C83_6 C 0.6492(2) 0.1029(2) 0.7846(2)
C84_6 C 0.6399(2) 0.1234(2) 0.7634(2)
H28_6 H 0.6253 0.1377 0.7685
C85_6 C 0.6519(2) 0.1229(2) 0.7348(2)
C86_6 C 0.6738(2) 0.1013(2) 0.7271(3)
H29_6 H 0.6831 0.1016 0.7082
C87_6 C 0.6812(3) 0.0795(2) 0.7485(3)
C88_6 C 0.6681(3) 0.0800(2) 0.7771(3)
H30_6 H 0.6723 0.0648 0.7911
C89_6 C 0.6561(3) 0.1568(3) 0.6912(3)
C90_6 C 0.7057(2) 0.0572(2) 0.7410(3)
Zn9_6 Zn 0.85348(4) 0.41102(4) 0.87616(4)
Zn14_6 Zn 0.64652(4) 0.08898(4) 0.87616(4)
Zn15_6 Zn 0.58898(4) 0.12384(4) 0.85348(4)
Zn16_6 Zn 0.91102(4) 0.37616(4) 0.85348(4)
Zn17_6 Zn 0.85348(4) 0.08898(4) 0.62384(4)
Zn18_6 Zn 0.87616(4) 0.14652(4) 0.58898(4)
Zn19_6 Zn 0.91102(4) 0.12384(4) 0.64652(4)
Zn26_9 Zn 0.98195(4) 0.2500 0.7500
O51_3 O 0.38154(19) 0.62353(19) 0.67935(19)
O53_4 O 0.61846(19) 0.37647(19) 0.67935(19)
O54_6 O 0.82065(19) 0.38154(19) 0.87647(19)
O56_3 O 0.41534(19) 0.66638(18) 0.64542(19)
O57_5 O 0.64542(19) 0.41534(19) 0.66638(18)
O58_6 O 0.71666(19) 0.45707(17) 0.7375(2)
O59_6 O 0.54293(17) 0.2375(2) 0.78334(19)
O61_6 O 0.88825(17) 0.38825(17) 0.88825(17)
O63_6 O 0.8734(2) 0.46285(17) 0.8843(2)
O65_6 O 0.83269(16) 0.44253(16) 0.90159(17)
O66_6 O 0.7130(2) 0.2430(2) 0.49002(17)
O67_6 O 0.7870(2) 0.2570(2) 0.49002(17)
O70_6 O 0.49002(17) 0.2130(2) 0.7430(2)
O71_5 O 0.49002(17) 0.2870(2) 0.7570(2)
O72_6 O 0.7346(2) 0.2860(2) 0.47652(19)
O73_6 O 0.7654(2) 0.2140(2) 0.47652(19)
O76_6 O 0.47652(19) 0.2346(2) 0.7860(2)
O77_5 O 0.47652(19) 0.2654(2) 0.7140(2)
H38_6 H 0.777757 0.377504 0.655989
H39_6 H 0.877504 0.344011 0.722243
H40_6 H 0.844011 0.277757 0.622496
H43_6 H 0.655989 0.222243 0.622496
H45_6 H 0.622496 0.155989 0.722243
H46_6 H 0.722243 0.122496 0.655989
O35_7 O 0.07065(19) 0.62647(19) 0.36846(19)
O36_7 O 0.08362(18) 0.66534(19) 0.39542(19)
C73_7 C 0.0658(3) 0.6487(3) 0.3852(3)
C74_7 C 0.0346(2) 0.6471(2) 0.3992(2)
C75_7 C 0.0134(2) 0.6266(2) 0.3899(2)
H25_7 H 0.0185 0.6123 0.3753
C79_7 C 0.0271(3) 0.6700(2) 0.4181(3)
H27_7 H 0.0411 0.6852 0.4223
Zn17_7 Zn 0.10348(4) 0.62616(4) 0.33898(4)
Zn24_9 Zn -0.0000 0.5000 0.26805(4)
O61_7 O 0.13825(17) 0.36175(17) 0.63825(17)
O63_7 O 0.1234(2) 0.3657(2) 0.71285(17)
O65_7 O 0.08269(16) 0.34841(17) 0.69253(16)
O29_7 O 0.80652(16) 0.5361(2) 0.4647(2)
N15_7 N 0.8961(2) 0.6081(2) 0.46649(18)
N16_7 N 0.89346(17) 0.5693(2) 0.4313(2)
C64_7 C 0.8513(3) 0.6148(3) 0.5658(3)
C65_7 C 0.8529(2) 0.6008(2) 0.5346(2)
C66_7 C 0.8734(2) 0.6101(2) 0.5134(2)
H22_7 H 0.8877 0.6247 0.5185
C67_7 C 0.8729(2) 0.5981(2) 0.4848(2)
C68_7 C 0.8513(2) 0.5762(2) 0.4771(3)
H23_7 H 0.8516 0.5669 0.4582
C69_7 C 0.8295(2) 0.5688(3) 0.4985(3)
C70_7 C 0.8300(2) 0.5819(3) 0.5271(3)
H24_7 H 0.8148 0.5777 0.5411
C71_7 C 0.9068(3) 0.5939(3) 0.4412(3)
C72_7 C 0.8072(2) 0.5443(2) 0.4910(3)
O37_7 O 0.9647(2) 0.69348(16) 0.4639(2)
N17_7 N 0.96649(18) 0.6039(2) 0.3919(2)
N18_7 N 0.9313(2) 0.60654(17) 0.4307(2)
C76_7 C 0.9848(2) 0.6271(2) 0.4019(2)
C77_7 C 0.9771(3) 0.6487(2) 0.4238(2)
H26_7 H 0.9582 0.6484 0.4331
C78_7 C 0.9985(3) 0.6705(2) 0.4312(3)
C80_7 C 0.9412(3) 0.5932(3) 0.4061(3)
C81_7 C 0.9910(3) 0.6928(2) 0.4557(2)
O40_7 O 0.89542(19) 0.41638(18) 0.33466(19)
O41_7 O 0.9639(2) 0.5353(2) 0.30652(16)
O42_7 O 0.96666(19) 0.4875(2) 0.29293(17)
N19_7 N 0.8919(2) 0.53351(18) 0.3961(2)
N20_7 N 0.9307(2) 0.5687(2) 0.39346(17)
C82_7 C 0.8852(3) 0.4342(3) 0.3513(3)
C83_7 C 0.8992(2) 0.4654(2) 0.3529(2)
C84_7 C 0.8899(2) 0.4866(2) 0.3734(2)
H28_7 H 0.8753 0.4815 0.3877
C85_7 C 0.9019(2) 0.5152(2) 0.3729(2)
C86_7 C 0.9238(2) 0.5229(3) 0.3513(2)
H29_7 H 0.9331 0.5418 0.3516
C87_7 C 0.9312(3) 0.5015(3) 0.3295(2)
C88_7 C 0.9181(3) 0.4729(3) 0.3300(2)
H30_7 H 0.9223 0.4589 0.3148
C89_7 C 0.9061(3) 0.5588(3) 0.4068(3)
C90_7 C 0.9557(2) 0.5090(3) 0.3072(2)
Zn14_7 Zn 0.89652(4) 0.37384(4) 0.33898(4)
Zn24_10 Zn 1.0000 0.5000 0.26805(4)
O51_4 O 0.63154(19) 0.57065(19) 0.87353(19)
O56_4 O 0.66534(19) 0.60458(19) 0.91638(18)
H43_7 H 0.905989 0.627504 0.472243
H45_7 H 0.872496 0.527757 0.405989
H46_7 H 0.972243 0.594011 0.372496
O15_7 O 0.60458(19) 0.08362(18) 0.33466(19)
O17_7 O 0.53334(19) 0.0125(2) 0.29293(17)
C28_7 C 0.6148(3) 0.0658(3) 0.3513(3)
C29_7 C 0.6008(2) 0.0346(2) 0.3529(2)
C30_7 C 0.6101(2) 0.0134(2) 0.3734(2)
H10_7 H 0.6247 0.0185 0.3877
C34_7 C 0.5819(3) 0.0271(3) 0.3300(2)
H12_7 H 0.5777 0.0411 0.3148
Zn19_7 Zn 0.60348(4) 0.12616(4) 0.33898(4)
Zn26_10 Zn 0.5000 0.0000 0.26805(4)
O3_7 O 0.69348(16) 0.9639(2) 0.4647(2)
N3_7 N 0.6039(2) 0.8919(2) 0.46649(18)
N4_7 N 0.60654(17) 0.9307(2) 0.4313(2)
C10_7 C 0.6487(3) 0.8852(3) 0.5658(3)
C11_7 C 0.6471(2) 0.8992(2) 0.5346(2)
C12_7 C 0.6266(2) 0.8899(2) 0.5134(2)
H4_7 H 0.6123 0.8753 0.5185
C13_7 C 0.6271(2) 0.9019(2) 0.4848(2)
C14_7 C 0.6487(2) 0.9238(2) 0.4771(3)
H5_7 H 0.6484 0.9331 0.4582
C15_7 C 0.6705(2) 0.9312(3) 0.4985(3)
C16_7 C 0.6700(2) 0.9181(3) 0.5271(3)
H6_7 H 0.6852 0.9223 0.5411
C17_7 C 0.5932(3) 0.9061(3) 0.4412(3)
C18_7 C 0.6928(2) 0.9557(2) 0.4910(3)
O10_7 O 0.42935(19) 0.87353(19) 0.36846(19)
O11_7 O 0.41638(18) 0.83466(19) 0.39542(19)
O12_7 O 0.5353(2) 0.80652(16) 0.4639(2)
N5_7 N 0.53351(18) 0.8961(2) 0.3919(2)
N6_7 N 0.5687(2) 0.89346(17) 0.4307(2)
C19_7 C 0.4342(3) 0.8513(3) 0.3852(3)
C20_7 C 0.4654(2) 0.8529(2) 0.3992(2)
C21_7 C 0.4866(2) 0.8734(2) 0.3899(2)
H7_7 H 0.4815 0.8877 0.3753
C22_7 C 0.5152(2) 0.8729(2) 0.4019(2)
C23_7 C 0.5229(3) 0.8513(2) 0.4238(2)
H8_7 H 0.5418 0.8516 0.4331
C24_7 C 0.5015(3) 0.8295(2) 0.4312(3)
C25_7 C 0.4729(3) 0.8300(2) 0.4181(3)
H9_7 H 0.4589 0.8148 0.4223
C26_7 C 0.5588(3) 0.9068(3) 0.4061(3)
C27_7 C 0.5090(3) 0.8072(2) 0.4557(2)
O16_7 O 0.5361(2) 0.9647(2) 0.30652(16)
N7_7 N 0.6081(2) 0.96649(18) 0.3961(2)
N8_7 N 0.5693(2) 0.9313(2) 0.39346(17)
C31_7 C 0.5981(2) 0.9848(2) 0.3729(2)
C32_7 C 0.5762(2) 0.9771(3) 0.3513(2)
H11_7 H 0.5669 0.9582 0.3516
C33_7 C 0.5688(3) 0.9985(3) 0.3295(2)
C35_7 C 0.5939(3) 0.9412(3) 0.4068(3)
C36_7 C 0.5443(2) 0.9910(3) 0.3072(2)
Zn16_7 Zn 0.39652(4) 0.87384(4) 0.33898(4)
Zn26_11 Zn 0.5000 1.0000 0.26805(4)
O61_8 O 0.36175(17) 0.86175(17) 0.36175(17)
O63_8 O 0.3657(2) 0.78715(17) 0.3766(2)
O65_8 O 0.34841(17) 0.80747(16) 0.41731(16)
H38_7 H 0.594011 0.872496 0.472243
H39_7 H 0.527757 0.905989 0.372496
H40_7 H 0.627504 0.972243 0.405989
Zn2_12 Zn 0.2500 0.7500 0.51805(4)
O1_6 O 0.32065(19) 0.61846(19) 0.62353(19)
O3_8 O 0.2147(2) 0.7139(2) 0.55652(16)
O4_7 O 0.2625(2) 0.71666(19) 0.54293(17)
N3_8 N 0.21649(18) 0.6419(2) 0.6461(2)
N4_8 N 0.1813(2) 0.6807(2) 0.64346(17)
C10_8 C 0.3158(3) 0.6352(3) 0.6013(3)
C11_8 C 0.2846(2) 0.6492(2) 0.6029(2)
C12_8 C 0.2634(2) 0.6399(2) 0.6234(2)
H4_8 H 0.2685 0.6253 0.6377
C13_8 C 0.2348(2) 0.6519(2) 0.6229(2)
C14_8 C 0.2271(3) 0.6738(2) 0.6013(2)
H5_8 H 0.2082 0.6831 0.6016
C15_8 C 0.2485(3) 0.6812(3) 0.5795(2)
C16_8 C 0.2771(3) 0.6681(3) 0.5800(2)
H6_8 H 0.2911 0.6723 0.5648
C17_8 C 0.1912(3) 0.6561(3) 0.6568(3)
C18_8 C 0.2410(3) 0.7057(2) 0.5572(2)
O10_8 O 0.11846(19) 0.62353(19) 0.82065(19)
O11_8 O 0.14542(19) 0.58466(19) 0.83362(18)
O12_8 O 0.2139(2) 0.55652(16) 0.7147(2)
O13_7 O 0.21666(19) 0.54293(17) 0.7625(2)
N5_8 N 0.1419(2) 0.6461(2) 0.71649(18)
N6_8 N 0.1807(2) 0.64346(17) 0.6813(2)
C19_8 C 0.1352(3) 0.6013(3) 0.8158(3)
C20_8 C 0.1492(2) 0.6029(2) 0.7846(2)
C21_8 C 0.1399(2) 0.6234(2) 0.7634(2)
H7_8 H 0.1253 0.6377 0.7685
C22_8 C 0.1519(2) 0.6229(2) 0.7348(2)
C23_8 C 0.1738(2) 0.6013(2) 0.7271(3)
H8_8 H 0.1831 0.6016 0.7082
C24_8 C 0.1812(3) 0.5795(2) 0.7485(3)
C25_8 C 0.1681(3) 0.5800(2) 0.7771(3)
H9_8 H 0.1723 0.5648 0.7911
C26_8 C 0.1561(3) 0.6568(3) 0.6912(3)
C27_8 C 0.2057(2) 0.5572(2) 0.7410(3)
O14_7 O 0.12353(19) 0.82065(19) 0.61846(19)
O15_8 O 0.08466(19) 0.83362(18) 0.64542(19)
O16_8 O 0.05652(16) 0.7147(2) 0.7139(2)
O17_8 O 0.04293(17) 0.7625(2) 0.71666(19)
N7_8 N 0.1461(2) 0.71649(18) 0.6419(2)
N8_8 N 0.14346(17) 0.6813(2) 0.6807(2)
C28_8 C 0.1013(3) 0.8158(3) 0.6352(3)
C29_8 C 0.1029(2) 0.7846(2) 0.6492(2)
C30_8 C 0.1234(2) 0.7634(2) 0.6399(2)
H10_8 H 0.1377 0.7685 0.6253
C31_8 C 0.1229(2) 0.7348(2) 0.6519(2)
C32_8 C 0.1013(2) 0.7271(3) 0.6738(2)
H11_8 H 0.1016 0.7082 0.6831
C33_8 C 0.0795(2) 0.7485(3) 0.6812(3)
C34_8 C 0.0800(2) 0.7771(3) 0.6681(3)
H12_8 H 0.0648 0.7911 0.6723
C35_8 C 0.1568(3) 0.6912(3) 0.6561(3)
C36_8 C 0.0572(2) 0.7410(3) 0.7057(2)
O29_8 O 0.44348(16) 0.7853(2) 0.7139(2)
O30_7 O 0.45707(17) 0.7375(2) 0.71666(19)
N15_8 N 0.3539(2) 0.78351(18) 0.6419(2)
N16_8 N 0.35654(17) 0.8187(2) 0.6807(2)
C64_8 C 0.3987(3) 0.6842(3) 0.6352(3)
C65_8 C 0.3971(2) 0.7154(2) 0.6492(2)
C66_8 C 0.3766(2) 0.7366(2) 0.6399(2)
H22_8 H 0.3623 0.7315 0.6253
C67_8 C 0.3771(2) 0.7652(2) 0.6519(2)
C68_8 C 0.3987(2) 0.7729(3) 0.6738(2)
H23_8 H 0.3984 0.7918 0.6831
C69_8 C 0.4205(2) 0.7515(3) 0.6812(3)
C70_8 C 0.4200(2) 0.7229(3) 0.6681(3)
H24_8 H 0.4352 0.7089 0.6723
C71_8 C 0.3432(3) 0.8088(3) 0.6561(3)
C72_8 C 0.4428(2) 0.7590(3) 0.7057(2)
O35_8 O 0.17935(19) 0.88154(19) 0.62353(19)
O36_8 O 0.16638(18) 0.85458(19) 0.58466(19)
O37_8 O 0.2853(2) 0.7861(2) 0.55652(16)
O38_7 O 0.2375(2) 0.78334(19) 0.54293(17)
N17_8 N 0.28351(18) 0.8581(2) 0.6461(2)
N18_8 N 0.3187(2) 0.8193(2) 0.64346(17)
C73_8 C 0.1842(3) 0.8648(3) 0.6013(3)
C74_8 C 0.2154(2) 0.8508(2) 0.6029(2)
C75_8 C 0.2366(2) 0.8601(2) 0.6234(2)
H25_8 H 0.2315 0.8747 0.6377
C76_8 C 0.2652(2) 0.8481(2) 0.6229(2)
C77_8 C 0.2729(3) 0.8262(2) 0.6013(2)
H26_8 H 0.2918 0.8169 0.6016
C78_8 C 0.2515(3) 0.8188(3) 0.5795(2)
C79_8 C 0.2229(3) 0.8319(3) 0.5800(2)
H27_8 H 0.2089 0.8277 0.5648
C80_8 C 0.3088(3) 0.8439(3) 0.6568(3)
C81_8 C 0.2590(3) 0.7943(2) 0.5572(2)
O39_7 O 0.38154(19) 0.87647(19) 0.82065(19)
O40_8 O 0.35458(19) 0.91534(19) 0.83362(18)
O41_8 O 0.2861(2) 0.94348(16) 0.7147(2)
O42_8 O 0.28334(19) 0.95707(17) 0.7625(2)
N19_8 N 0.3581(2) 0.8539(2) 0.71649(18)
N20_8 N 0.3193(2) 0.85654(17) 0.6813(2)
C82_8 C 0.3648(3) 0.8987(3) 0.8158(3)
C83_8 C 0.3508(2) 0.8971(2) 0.7846(2)
C84_8 C 0.3601(2) 0.8766(2) 0.7634(2)
H28_8 H 0.3747 0.8623 0.7685
C85_8 C 0.3481(2) 0.8771(2) 0.7348(2)
C86_8 C 0.3262(2) 0.8987(2) 0.7271(3)
H29_8 H 0.3169 0.8984 0.7082
C87_8 C 0.3188(3) 0.9205(2) 0.7485(3)
C88_8 C 0.3319(3) 0.9200(2) 0.7771(3)
H30_8 H 0.3277 0.9352 0.7911
C89_8 C 0.3439(3) 0.8432(3) 0.6912(3)
C90_8 C 0.2943(2) 0.9428(2) 0.7410(3)
Zn8_9 Zn 0.2500 0.51805(4) 0.7500
Zn9_7 Zn 0.14652(4) 0.58898(4) 0.87616(4)
Zn14_8 Zn 0.35348(4) 0.91102(4) 0.87616(4)
Zn15_7 Zn 0.41102(4) 0.87616(4) 0.85348(4)
Zn16_8 Zn 0.08898(4) 0.62384(4) 0.85348(4)
Zn17_8 Zn 0.14652(4) 0.91102(4) 0.62384(4)
Zn18_7 Zn 0.12384(4) 0.85348(4) 0.58898(4)
Zn19_8 Zn 0.08898(4) 0.87616(4) 0.64652(4)
Zn24_11 Zn 0.2500 0.98195(4) 0.7500
O54_7 O 0.17935(19) 0.61846(19) 0.87647(19)
O57_6 O 0.35458(19) 0.58466(19) 0.66638(18)
O58_7 O 0.28334(19) 0.54293(17) 0.7375(2)
O59_7 O 0.45707(17) 0.7625(2) 0.78334(19)
O61_9 O 0.11175(17) 0.61175(17) 0.88825(17)
O63_9 O 0.1266(2) 0.53715(17) 0.8843(2)
O65_9 O 0.16731(16) 0.55747(16) 0.90159(17)
O66_7 O 0.2870(2) 0.7570(2) 0.49002(17)
O67_7 O 0.2130(2) 0.7430(2) 0.49002(17)
O68_5 O 0.2570(2) 0.49002(17) 0.7870(2)
O69_5 O 0.2430(2) 0.49002(17) 0.7130(2)
O72_7 O 0.2654(2) 0.7140(2) 0.47652(19)
O73_7 O 0.2346(2) 0.7860(2) 0.47652(19)
O74_5 O 0.2140(2) 0.47652(19) 0.7654(2)
O75_5 O 0.2860(2) 0.47652(19) 0.7346(2)
H38_8 H 0.222243 0.622496 0.655989
H39_8 H 0.122496 0.655989 0.722243
H40_8 H 0.155989 0.722243 0.622496
H43_8 H 0.344011 0.777757 0.622496
H45_8 H 0.377504 0.844011 0.722243
H46_8 H 0.277757 0.877504 0.655989
Zn24_12 Zn 0.0000 0.23195(4) -0.0000
O40_9 O 0.08362(18) 0.16534(19) 0.89542(19)
O42_9 O 0.0125(2) 0.20707(17) 0.96666(19)
C82_9 C 0.0658(3) 0.1487(3) 0.8852(3)
C83_9 C 0.0346(2) 0.1471(2) 0.8992(2)
C84_9 C 0.0134(2) 0.1266(2) 0.8899(2)
H28_9 H 0.0185 0.1123 0.8753
C88_9 C 0.0271(3) 0.1700(2) 0.9181(3)
H30_9 H 0.0411 0.1852 0.9223
Zn14_9 Zn 0.12616(4) 0.16102(4) 0.89652(4)
Zn24_13 Zn 0.0000 0.23195(4) 1.0000
O61_10 O 0.13825(17) 0.86175(17) 0.13825(17)
O63_10 O 0.1343(2) 0.78715(17) 0.1234(2)
O65_10 O 0.15159(17) 0.80747(16) 0.08269(16)
O35_9 O 0.87353(19) 0.13154(19) 0.07065(19)
O36_9 O 0.83466(19) 0.10458(19) 0.08362(18)
C73_9 C 0.8513(3) 0.1148(3) 0.0658(3)
C74_9 C 0.8529(2) 0.1008(2) 0.0346(2)
C75_9 C 0.8734(2) 0.1101(2) 0.0134(2)
H25_9 H 0.8877 0.1247 0.0185
C79_9 C 0.8300(2) 0.0819(3) 0.0271(3)
H27_9 H 0.8148 0.0777 0.0411
Zn17_9 Zn 0.87384(4) 0.16102(4) 0.10348(4)
Zn24_14 Zn 1.0000 0.23195(4) -0.0000
O29_9 O 0.9639(2) 0.0353(2) 0.80652(16)
N15_9 N 0.8919(2) 0.03351(18) 0.8961(2)
N16_9 N 0.9307(2) 0.0687(2) 0.89346(17)
C67_9 C 0.9019(2) 0.0152(2) 0.8729(2)
C68_9 C 0.9238(2) 0.0229(3) 0.8513(2)
H23_9 H 0.9331 0.0418 0.8516
C69_9 C 0.9312(3) 0.0015(3) 0.8295(2)
C71_9 C 0.9061(3) 0.0588(3) 0.9068(3)
C72_9 C 0.9557(2) 0.0090(3) 0.8072(2)
O37_9 O 0.80652(16) 0.0361(2) 0.9647(2)
N17_9 N 0.8961(2) 0.1081(2) 0.96649(18)
N18_9 N 0.89346(17) 0.0693(2) 0.9313(2)
C76_9 C 0.8729(2) 0.0981(2) 0.9848(2)
C77_9 C 0.8513(2) 0.0762(2) 0.9771(3)
H26_9 H 0.8516 0.0669 0.9582
C78_9 C 0.8295(2) 0.0688(3) 0.9985(3)
C80_9 C 0.9068(3) 0.0939(3) 0.9412(3)
C81_9 C 0.8072(2) 0.0443(2) 0.9910(3)
O41_9 O 0.9647(2) 0.19348(16) 0.9639(2)
N19_9 N 0.96649(18) 0.1039(2) 0.8919(2)
N20_9 N 0.9313(2) 0.10654(17) 0.9307(2)
C85_9 C 0.9848(2) 0.1271(2) 0.9019(2)
C86_9 C 0.9771(3) 0.1487(2) 0.9238(2)
H29_9 H 0.9582 0.1484 0.9331
C87_9 C 0.9985(3) 0.1705(2) 0.9312(3)
C89_9 C 0.9412(3) 0.0932(3) 0.9061(3)
C90_9 C 0.9910(3) 0.1928(2) 0.9557(2)
Zn24_15 Zn 1.0000 0.23195(4) 1.0000
H43_9 H 0.872496 0.0277569 0.905989
H45_9 H 0.972243 0.0940106 0.872496
H46_9 H 0.905989 0.127504 0.972243
C64_9 C 0.8852(3) 0.9342(3) 0.8513(3)
C65_9 C 0.8992(2) 0.9654(2) 0.8529(2)
C66_9 C 0.8899(2) 0.9866(2) 0.8734(2)
H22_9 H 0.8753 0.9815 0.8877
C70_9 C 0.9181(3) 0.9729(3) 0.8300(2)
H24_9 H 0.9223 0.9589 0.8148
O29_10 O 0.2861(2) 0.55652(16) 0.7853(2)
N15_10 N 0.3581(2) 0.6461(2) 0.78351(18)
N16_10 N 0.3193(2) 0.64346(17) 0.8187(2)
C64_10 C 0.3648(3) 0.6013(3) 0.6842(3)
C65_10 C 0.3508(2) 0.6029(2) 0.7154(2)
C66_10 C 0.3601(2) 0.6234(2) 0.7366(2)
H22_10 H 0.3747 0.6377 0.7315
C67_10 C 0.3481(2) 0.6229(2) 0.7652(2)
C68_10 C 0.3262(2) 0.6013(2) 0.7729(3)
H23_10 H 0.3169 0.6016 0.7918
C69_10 C 0.3188(3) 0.5795(2) 0.7515(3)
C70_10 C 0.3319(3) 0.5800(2) 0.7229(3)
H24_10 H 0.3277 0.5648 0.7089
C71_10 C 0.3439(3) 0.6568(3) 0.8088(3)
C72_10 C 0.2943(2) 0.5572(2) 0.7590(3)
O35_10 O 0.37647(19) 0.82065(19) 0.88154(19)
O36_10 O 0.41534(19) 0.83362(18) 0.85458(19)
O37_10 O 0.44348(16) 0.7147(2) 0.7861(2)
N17_10 N 0.3539(2) 0.71649(18) 0.8581(2)
N18_10 N 0.35654(17) 0.6813(2) 0.8193(2)
C73_10 C 0.3987(3) 0.8158(3) 0.8648(3)
C74_10 C 0.3971(2) 0.7846(2) 0.8508(2)
C75_10 C 0.3766(2) 0.7634(2) 0.8601(2)
H25_10 H 0.3623 0.7685 0.8747
C76_10 C 0.3771(2) 0.7348(2) 0.8481(2)
C77_10 C 0.3987(2) 0.7271(3) 0.8262(2)
H26_10 H 0.3984 0.7082 0.8169
C78_10 C 0.4205(2) 0.7485(3) 0.8188(3)
C79_10 C 0.4200(2) 0.7771(3) 0.8319(3)
H27_10 H 0.4352 0.7911 0.8277
C80_10 C 0.3432(3) 0.6912(3) 0.8439(3)
C81_10 C 0.4428(2) 0.7410(3) 0.7943(2)
O40_10 O 0.16638(18) 0.64542(19) 0.91534(19)
O41_10 O 0.2853(2) 0.7139(2) 0.94348(16)
O42_10 O 0.2375(2) 0.71666(19) 0.95707(17)
N19_10 N 0.28351(18) 0.6419(2) 0.8539(2)
N20_10 N 0.3187(2) 0.6807(2) 0.85654(17)
C82_10 C 0.1842(3) 0.6352(3) 0.8987(3)
C83_10 C 0.2154(2) 0.6492(2) 0.8971(2)
C84_10 C 0.2366(2) 0.6399(2) 0.8766(2)
H28_10 H 0.2315 0.6253 0.8623
C85_10 C 0.2652(2) 0.6519(2) 0.8771(2)
C86_10 C 0.2729(3) 0.6738(2) 0.8987(2)
H29_10 H 0.2918 0.6831 0.8984
C87_10 C 0.2515(3) 0.6812(3) 0.9205(2)
C88_10 C 0.2229(3) 0.6681(3) 0.9200(2)
H30_10 H 0.2089 0.6723 0.9352
C89_10 C 0.3088(3) 0.6561(3) 0.8432(3)
C90_10 C 0.2590(3) 0.7057(2) 0.9428(2)
Zn14_10 Zn 0.12384(4) 0.64652(4) 0.91102(4)
Zn17_10 Zn 0.37616(4) 0.85348(4) 0.91102(4)
Zn24_16 Zn 0.2500 0.7500 0.98195(4)
O61_11 O 0.11175(17) 0.88825(17) 0.61175(17)
O63_11 O 0.1157(2) 0.8734(2) 0.53715(17)
O65_11 O 0.09841(17) 0.83269(16) 0.55747(16)
H43_10 H 0.377504 0.655989 0.777757
H45_10 H 0.277757 0.622496 0.844011
H46_10 H 0.344011 0.722243 0.877504
O3_9 O 0.7139(2) 0.44348(16) 0.7853(2)
N3_9 N 0.6419(2) 0.3539(2) 0.78351(18)
N4_9 N 0.6807(2) 0.35654(17) 0.8187(2)
C10_9 C 0.6352(3) 0.3987(3) 0.6842(3)
C11_9 C 0.6492(2) 0.3971(2) 0.7154(2)
C12_9 C 0.6399(2) 0.3766(2) 0.7366(2)
H4_9 H 0.6253 0.3623 0.7315
C13_9 C 0.6519(2) 0.3771(2) 0.7652(2)
C14_9 C 0.6738(2) 0.3987(2) 0.7729(3)
H5_9 H 0.6831 0.3984 0.7918
C15_9 C 0.6812(3) 0.4205(2) 0.7515(3)
C16_9 C 0.6681(3) 0.4200(2) 0.7229(3)
H6_9 H 0.6723 0.4352 0.7089
C17_9 C 0.6561(3) 0.3432(3) 0.8088(3)
C18_9 C 0.7057(2) 0.4428(2) 0.7590(3)
O10_9 O 0.62353(19) 0.17935(19) 0.88154(19)
O11_9 O 0.58466(19) 0.16638(18) 0.85458(19)
O12_9 O 0.55652(16) 0.2853(2) 0.7861(2)
N5_9 N 0.6461(2) 0.28351(18) 0.8581(2)
N6_9 N 0.64346(17) 0.3187(2) 0.8193(2)
C19_9 C 0.6013(3) 0.1842(3) 0.8648(3)
C20_9 C 0.6029(2) 0.2154(2) 0.8508(2)
C21_9 C 0.6234(2) 0.2366(2) 0.8601(2)
H7_9 H 0.6377 0.2315 0.8747
C22_9 C 0.6229(2) 0.2652(2) 0.8481(2)
C23_9 C 0.6013(2) 0.2729(3) 0.8262(2)
H8_9 H 0.6016 0.2918 0.8169
C24_9 C 0.5795(2) 0.2515(3) 0.8188(3)
C25_9 C 0.5800(2) 0.2229(3) 0.8319(3)
H9_9 H 0.5648 0.2089 0.8277
C26_9 C 0.6568(3) 0.3088(3) 0.8439(3)
C27_9 C 0.5572(2) 0.2590(3) 0.7943(2)
O15_9 O 0.83362(18) 0.35458(19) 0.91534(19)
O16_9 O 0.7147(2) 0.2861(2) 0.94348(16)
O17_9 O 0.7625(2) 0.28334(19) 0.95707(17)
N7_9 N 0.71649(18) 0.3581(2) 0.8539(2)
N8_9 N 0.6813(2) 0.3193(2) 0.85654(17)
C28_9 C 0.8158(3) 0.3648(3) 0.8987(3)
C29_9 C 0.7846(2) 0.3508(2) 0.8971(2)
C30_9 C 0.7634(2) 0.3601(2) 0.8766(2)
H10_9 H 0.7685 0.3747 0.8623
C31_9 C 0.7348(2) 0.3481(2) 0.8771(2)
C32_9 C 0.7271(3) 0.3262(2) 0.8987(2)
H11_9 H 0.7082 0.3169 0.8984
C33_9 C 0.7485(3) 0.3188(3) 0.9205(2)
C34_9 C 0.7771(3) 0.3319(3) 0.9200(2)
H12_9 H 0.7911 0.3277 0.9352
C35_9 C 0.6912(3) 0.3439(3) 0.8432(3)
C36_9 C 0.7410(3) 0.2943(2) 0.9428(2)
Zn16_9 Zn 0.62384(4) 0.14652(4) 0.91102(4)
Zn19_9 Zn 0.87616(4) 0.35348(4) 0.91102(4)
Zn26_12 Zn 0.7500 0.2500 0.98195(4)
O61_12 O 0.61175(17) 0.11175(17) 0.88825(17)
O63_12 O 0.53715(17) 0.1157(2) 0.8734(2)
O65_12 O 0.55747(16) 0.09841(17) 0.83269(16)
H38_9 H 0.622496 0.344011 0.777757
H39_9 H 0.655989 0.277757 0.877504
H40_9 H 0.722243 0.377504 0.844011
O61_13 O 0.38825(17) 0.88825(17) 0.88825(17)
O63_13 O 0.46285(17) 0.8843(2) 0.8734(2)
O65_13 O 0.44253(16) 0.90159(17) 0.83269(16)
O29_11 O 0.2861(2) 0.44348(16) 0.2147(2)
N15_11 N 0.3581(2) 0.3539(2) 0.21649(18)
N16_11 N 0.3193(2) 0.35654(17) 0.1813(2)
C64_11 C 0.3648(3) 0.3987(3) 0.3158(3)
C65_11 C 0.3508(2) 0.3971(2) 0.2846(2)
C66_11 C 0.3601(2) 0.3766(2) 0.2634(2)
H22_11 H 0.3747 0.3623 0.2685
C67_11 C 0.3481(2) 0.3771(2) 0.2348(2)
C68_11 C 0.3262(2) 0.3987(2) 0.2271(3)
H23_11 H 0.3169 0.3984 0.2082
C69_11 C 0.3188(3) 0.4205(2) 0.2485(3)
C70_11 C 0.3319(3) 0.4200(2) 0.2771(3)
H24_11 H 0.3277 0.4352 0.2911
C71_11 C 0.3439(3) 0.3432(3) 0.1912(3)
C72_11 C 0.2943(2) 0.4428(2) 0.2410(3)
O35_11 O 0.37647(19) 0.17935(19) 0.11846(19)
O36_11 O 0.41534(19) 0.16638(18) 0.14542(19)
O37_11 O 0.44348(16) 0.2853(2) 0.2139(2)
N17_11 N 0.3539(2) 0.28351(18) 0.1419(2)
N18_11 N 0.35654(17) 0.3187(2) 0.1807(2)
C73_11 C 0.3987(3) 0.1842(3) 0.1352(3)
C74_11 C 0.3971(2) 0.2154(2) 0.1492(2)
C75_11 C 0.3766(2) 0.2366(2) 0.1399(2)
H25_11 H 0.3623 0.2315 0.1253
C76_11 C 0.3771(2) 0.2652(2) 0.1519(2)
C77_11 C 0.3987(2) 0.2729(3) 0.1738(2)
H26_11 H 0.3984 0.2918 0.1831
C78_11 C 0.4205(2) 0.2515(3) 0.1812(3)
C79_11 C 0.4200(2) 0.2229(3) 0.1681(3)
H27_11 H 0.4352 0.2089 0.1723
C80_11 C 0.3432(3) 0.3088(3) 0.1561(3)
C81_11 C 0.4428(2) 0.2590(3) 0.2057(2)
O40_11 O 0.16638(18) 0.35458(19) 0.08466(19)
O41_11 O 0.2853(2) 0.2861(2) 0.05652(16)
O42_11 O 0.2375(2) 0.28334(19) 0.04293(17)
N19_11 N 0.28351(18) 0.3581(2) 0.1461(2)
N20_11 N 0.3187(2) 0.3193(2) 0.14346(17)
C82_11 C 0.1842(3) 0.3648(3) 0.1013(3)
C83_11 C 0.2154(2) 0.3508(2) 0.1029(2)
C84_11 C 0.2366(2) 0.3601(2) 0.1234(2)
H28_11 H 0.2315 0.3747 0.1377
C85_11 C 0.2652(2) 0.3481(2) 0.1229(2)
C86_11 C 0.2729(3) 0.3262(2) 0.1013(2)
H29_11 H 0.2918 0.3169 0.1016
C87_11 C 0.2515(3) 0.3188(3) 0.0795(2)
C88_11 C 0.2229(3) 0.3319(3) 0.0800(2)
H30_11 H 0.2089 0.3277 0.0648
C89_11 C 0.3088(3) 0.3439(3) 0.1568(3)
C90_11 C 0.2590(3) 0.2943(2) 0.0572(2)
Zn14_11 Zn 0.12384(4) 0.35348(4) 0.08898(4)
Zn17_11 Zn 0.37616(4) 0.14652(4) 0.08898(4)
Zn24_17 Zn 0.2500 0.2500 0.01805(4)
O61_14 O 0.11175(17) 0.11175(17) 0.38825(17)
O63_14 O 0.1157(2) 0.1266(2) 0.46285(17)
O65_14 O 0.09841(17) 0.16731(16) 0.44253(16)
H43_11 H 0.377504 0.344011 0.222243
H45_11 H 0.277757 0.377504 0.155989
H46_11 H 0.344011 0.277757 0.122496
O61_15 O 0.38825(17) 0.11175(17) 0.11175(17)
O63_15 O 0.46285(17) 0.1157(2) 0.1266(2)
O65_15 O 0.44253(16) 0.09841(17) 0.16731(16)
O61_16 O 0.88825(17) 0.11175(17) 0.61175(17)
O63_16 O 0.8843(2) 0.1266(2) 0.53715(17)
O65_16 O 0.90159(17) 0.16731(16) 0.55747(16)
O29_12 O 0.7139(2) 0.55652(16) 0.2147(2)
N15_12 N 0.6419(2) 0.6461(2) 0.21649(18)
N16_12 N 0.6807(2) 0.64346(17) 0.1813(2)
C64_12 C 0.6352(3) 0.6013(3) 0.3158(3)
C65_12 C 0.6492(2) 0.6029(2) 0.2846(2)
C66_12 C 0.6399(2) 0.6234(2) 0.2634(2)
H22_12 H 0.6253 0.6377 0.2685
C67_12 C 0.6519(2) 0.6229(2) 0.2348(2)
C68_12 C 0.6738(2) 0.6013(2) 0.2271(3)
H23_12 H 0.6831 0.6016 0.2082
C69_12 C 0.6812(3) 0.5795(2) 0.2485(3)
C70_12 C 0.6681(3) 0.5800(2) 0.2771(3)
H24_12 H 0.6723 0.5648 0.2911
C71_12 C 0.6561(3) 0.6568(3) 0.1912(3)
C72_12 C 0.7057(2) 0.5572(2) 0.2410(3)
O35_12 O 0.62353(19) 0.82065(19) 0.11846(19)
O36_12 O 0.58466(19) 0.83362(18) 0.14542(19)
O37_12 O 0.55652(16) 0.7147(2) 0.2139(2)
N17_12 N 0.6461(2) 0.71649(18) 0.1419(2)
N18_12 N 0.64346(17) 0.6813(2) 0.1807(2)
C73_12 C 0.6013(3) 0.8158(3) 0.1352(3)
C74_12 C 0.6029(2) 0.7846(2) 0.1492(2)
C75_12 C 0.6234(2) 0.7634(2) 0.1399(2)
H25_12 H 0.6377 0.7685 0.1253
C76_12 C 0.6229(2) 0.7348(2) 0.1519(2)
C77_12 C 0.6013(2) 0.7271(3) 0.1738(2)
H26_12 H 0.6016 0.7082 0.1831
C78_12 C 0.5795(2) 0.7485(3) 0.1812(3)
C79_12 C 0.5800(2) 0.7771(3) 0.1681(3)
H27_12 H 0.5648 0.7911 0.1723
C80_12 C 0.6568(3) 0.6912(3) 0.1561(3)
C81_12 C 0.5572(2) 0.7410(3) 0.2057(2)
O40_12 O 0.83362(18) 0.64542(19) 0.08466(19)
O41_12 O 0.7147(2) 0.7139(2) 0.05652(16)
O42_12 O 0.7625(2) 0.71666(19) 0.04293(17)
N19_12 N 0.71649(18) 0.6419(2) 0.1461(2)
N20_12 N 0.6813(2) 0.6807(2) 0.14346(17)
C82_12 C 0.8158(3) 0.6352(3) 0.1013(3)
C83_12 C 0.7846(2) 0.6492(2) 0.1029(2)
C84_12 C 0.7634(2) 0.6399(2) 0.1234(2)
H28_12 H 0.7685 0.6253 0.1377
C85_12 C 0.7348(2) 0.6519(2) 0.1229(2)
C86_12 C 0.7271(3) 0.6738(2) 0.1013(2)
H29_12 H 0.7082 0.6831 0.1016
C87_12 C 0.7485(3) 0.6812(3) 0.0795(2)
C88_12 C 0.7771(3) 0.6681(3) 0.0800(2)
H30_12 H 0.7911 0.6723 0.0648
C89_12 C 0.6912(3) 0.6561(3) 0.1568(3)
C90_12 C 0.7410(3) 0.7057(2) 0.0572(2)
Zn14_12 Zn 0.87616(4) 0.64652(4) 0.08898(4)
Zn17_12 Zn 0.62384(4) 0.85348(4) 0.08898(4)
O61_17 O 0.88825(17) 0.88825(17) 0.38825(17)
O63_17 O 0.8843(2) 0.8734(2) 0.46285(17)
O65_17 O 0.90159(17) 0.83269(16) 0.44253(16)
H43_12 H 0.622496 0.655989 0.222243
H45_12 H 0.722243 0.622496 0.155989
H46_12 H 0.655989 0.722243 0.122496
O61_18 O 0.61175(17) 0.88825(17) 0.11175(17)
O63_18 O 0.53715(17) 0.8843(2) 0.1266(2)
O65_18 O 0.55747(16) 0.90159(17) 0.16731(16)
O61_19 O 0.86175(17) 0.13825(17) 0.13825(17)
O63_19 O 0.78715(17) 0.1234(2) 0.1343(2)
O65_19 O 0.80747(16) 0.08269(16) 0.15159(17)
O51_5 O 0.62647(19) 0.63154(19) 0.92935(19)
O56_5 O 0.58362(18) 0.66534(19) 0.89542(19)
O10_10 O 0.62647(19) 0.36846(19) 0.07065(19)
O11_10 O 0.66534(19) 0.39542(19) 0.08362(18)
O13_8 O 0.70707(17) 0.46666(19) 0.0125(2)
C19_10 C 0.6487(3) 0.3852(3) 0.0658(3)
C20_10 C 0.6471(2) 0.3992(2) 0.0346(2)
C21_10 C 0.6266(2) 0.3899(2) 0.0134(2)
H7_10 H 0.6123 0.3753 0.0185
C25_10 C 0.6700(2) 0.4181(3) 0.0271(3)
H9_10 H 0.6852 0.4223 0.0411
Zn6_10 Zn 0.5000 0.73195(4) 0.0000
O39_8 O 0.37353(19) 0.63154(19) 0.07065(19)
O40_13 O 0.33466(19) 0.60458(19) 0.08362(18)
O42_13 O 0.29293(17) 0.53334(19) 0.0125(2)
C82_13 C 0.3513(3) 0.6148(3) 0.0658(3)
C83_13 C 0.3529(2) 0.6008(2) 0.0346(2)
C84_13 C 0.3734(2) 0.6101(2) 0.0134(2)
H28_13 H 0.3877 0.6247 0.0185
C88_13 C 0.3300(2) 0.5819(3) 0.0271(3)
H30_13 H 0.3148 0.5777 0.0411
Zn8_10 Zn 0.73195(4) 0.5000 0.0000
Zn9_8 Zn 0.66102(4) 0.39652(4) 0.12616(4)
Zn14_13 Zn 0.33898(4) 0.60348(4) 0.12616(4)
Zn15_8 Zn 0.37384(4) 0.66102(4) 0.10348(4)
Zn16_10 Zn 0.62616(4) 0.33898(4) 0.10348(4)
Zn24_18 Zn 0.26805(4) 0.5000 0.0000
Zn26_13 Zn 0.5000 0.26805(4) 0.0000
O54_8 O 0.63154(19) 0.42935(19) 0.12647(19)
O59_8 O 0.4875(2) 0.70707(17) 0.03334(19)
O61_20 O 0.63825(17) 0.36175(17) 0.13825(17)
O63_20 O 0.71285(17) 0.3766(2) 0.1343(2)
O65_20 O 0.69253(16) 0.41731(16) 0.15159(17)
O68_6 O 0.75998(17) 0.5070(2) 0.0370(2)
O71_6 O 0.5370(2) 0.75998(17) 0.0070(2)
O74_6 O 0.77348(19) 0.4640(2) 0.0154(2)
O76_7 O 0.4846(2) 0.77348(19) 0.0360(2)
O3_10 O 0.5361(2) 0.4647(2) 0.80652(16)
O4_8 O 0.53334(19) 0.5125(2) 0.79293(17)
N3_10 N 0.6081(2) 0.46649(18) 0.8961(2)
N4_10 N 0.5693(2) 0.4313(2) 0.89346(17)
C10_10 C 0.6148(3) 0.5658(3) 0.8513(3)
C11_10 C 0.6008(2) 0.5346(2) 0.8529(2)
C12_10 C 0.6101(2) 0.5134(2) 0.8734(2)
H4_10 H 0.6247 0.5185 0.8877
C13_10 C 0.5981(2) 0.4848(2) 0.8729(2)
C14_10 C 0.5762(2) 0.4771(3) 0.8513(2)
H5_10 H 0.5669 0.4582 0.8516
C15_10 C 0.5688(3) 0.4985(3) 0.8295(2)
C16_10 C 0.5819(3) 0.5271(3) 0.8300(2)
H6_10 H 0.5777 0.5411 0.8148
C17_10 C 0.5939(3) 0.4412(3) 0.9068(3)
C18_10 C 0.5443(2) 0.4910(3) 0.8072(2)
O12_10 O 0.69348(16) 0.4639(2) 0.9647(2)
N5_10 N 0.6039(2) 0.3919(2) 0.96649(18)
N6_10 N 0.60654(17) 0.4307(2) 0.9313(2)
C22_10 C 0.6271(2) 0.4019(2) 0.9848(2)
C23_10 C 0.6487(2) 0.4238(2) 0.9771(3)
H8_10 H 0.6484 0.4331 0.9582
C24_10 C 0.6705(2) 0.4312(3) 0.9985(3)
C26_10 C 0.5932(3) 0.4061(3) 0.9412(3)
C27_10 C 0.6928(2) 0.4557(2) 0.9910(3)
O14_8 O 0.42935(19) 0.37353(19) 0.86846(19)
O15_10 O 0.41638(18) 0.33466(19) 0.89542(19)
O16_10 O 0.5353(2) 0.30652(16) 0.9639(2)
O17_10 O 0.4875(2) 0.29293(17) 0.96666(19)
N7_10 N 0.53351(18) 0.3961(2) 0.8919(2)
N8_10 N 0.5687(2) 0.39346(17) 0.9307(2)
C28_10 C 0.4342(3) 0.3513(3) 0.8852(3)
C29_10 C 0.4654(2) 0.3529(2) 0.8992(2)
C30_10 C 0.4866(2) 0.3734(2) 0.8899(2)
H10_10 H 0.4815 0.3877 0.8753
C31_10 C 0.5152(2) 0.3729(2) 0.9019(2)
C32_10 C 0.5229(3) 0.3513(2) 0.9238(2)
H11_10 H 0.5418 0.3516 0.9331
C33_10 C 0.5015(3) 0.3295(2) 0.9312(3)
C34_10 C 0.4729(3) 0.3300(2) 0.9181(3)
H12_10 H 0.4589 0.3148 0.9223
C35_10 C 0.5588(3) 0.4068(3) 0.9061(3)
C36_10 C 0.5090(3) 0.3072(2) 0.9557(2)
Zn6_11 Zn 0.5000 0.73195(4) 1.0000
O29_13 O 0.4647(2) 0.69348(16) 0.9639(2)
O30_8 O 0.5125(2) 0.70707(17) 0.96666(19)
N15_13 N 0.46649(18) 0.6039(2) 0.8919(2)
N16_13 N 0.4313(2) 0.60654(17) 0.9307(2)
C64_13 C 0.5658(3) 0.6487(3) 0.8852(3)
C65_13 C 0.5346(2) 0.6471(2) 0.8992(2)
C66_13 C 0.5134(2) 0.6266(2) 0.8899(2)
H22_13 H 0.5185 0.6123 0.8753
C67_13 C 0.4848(2) 0.6271(2) 0.9019(2)
C68_13 C 0.4771(3) 0.6487(2) 0.9238(2)
H23_13 H 0.4582 0.6484 0.9331
C69_13 C 0.4985(3) 0.6705(2) 0.9312(3)
C70_13 C 0.5271(3) 0.6700(2) 0.9181(3)
H24_13 H 0.5411 0.6852 0.9223
C71_13 C 0.4412(3) 0.5932(3) 0.9061(3)
C72_13 C 0.4910(3) 0.6928(2) 0.9557(2)
O35_13 O 0.36846(19) 0.42935(19) 0.87353(19)
O36_13 O 0.39542(19) 0.41638(18) 0.83466(19)
O37_13 O 0.4639(2) 0.5353(2) 0.80652(16)
O38_8 O 0.46666(19) 0.4875(2) 0.79293(17)
N17_13 N 0.3919(2) 0.53351(18) 0.8961(2)
N18_13 N 0.4307(2) 0.5687(2) 0.89346(17)
C73_13 C 0.3852(3) 0.4342(3) 0.8513(3)
C74_13 C 0.3992(2) 0.4654(2) 0.8529(2)
C75_13 C 0.3899(2) 0.4866(2) 0.8734(2)
H25_13 H 0.3753 0.4815 0.8877
C76_13 C 0.4019(2) 0.5152(2) 0.8729(2)
C77_13 C 0.4238(2) 0.5229(3) 0.8513(2)
H26_13 H 0.4331 0.5418 0.8516
C78_13 C 0.4312(3) 0.5015(3) 0.8295(2)
C79_13 C 0.4181(3) 0.4729(3) 0.8300(2)
H27_13 H 0.4223 0.4589 0.8148
C80_13 C 0.4061(3) 0.5588(3) 0.9068(3)
C81_13 C 0.4557(2) 0.5090(3) 0.8072(2)
O41_13 O 0.30652(16) 0.5361(2) 0.9647(2)
N19_13 N 0.3961(2) 0.6081(2) 0.96649(18)
N20_13 N 0.39346(17) 0.5693(2) 0.9313(2)
C85_13 C 0.3729(2) 0.5981(2) 0.9848(2)
C86_13 C 0.3513(2) 0.5762(2) 0.9771(3)
H29_13 H 0.3516 0.5669 0.9582
C87_13 C 0.3295(2) 0.5688(3) 0.9985(3)
C89_13 C 0.4068(3) 0.5939(3) 0.9412(3)
C90_13 C 0.3072(2) 0.5443(2) 0.9910(3)
Zn8_11 Zn 0.73195(4) 0.5000 1.0000
Zn17_13 Zn 0.33898(4) 0.39652(4) 0.87384(4)
Zn18_8 Zn 0.39652(4) 0.37384(4) 0.83898(4)
Zn19_10 Zn 0.37384(4) 0.33898(4) 0.89652(4)
Zn24_19 Zn 0.26805(4) 0.5000 1.0000
Zn26_14 Zn 0.5000 0.26805(4) 1.0000
O58_8 O 0.70707(17) 0.53334(19) 0.9875(2)
O69_6 O 0.75998(17) 0.4930(2) 0.9630(2)
O70_7 O 0.4630(2) 0.75998(17) 0.9930(2)
O75_6 O 0.77348(19) 0.5360(2) 0.9846(2)
O77_6 O 0.5154(2) 0.77348(19) 0.9640(2)
H38_10 H 0.627504 0.472243 0.905989
H39_10 H 0.594011 0.372496 0.972243
H40_10 H 0.527757 0.405989 0.872496
H43_13 H 0.472243 0.594011 0.872496
H45_13 H 0.405989 0.627504 0.972243
H46_13 H 0.372496 0.527757 0.905989
O29_14 O 0.69348(16) 0.5361(2) 0.0353(2)
N15_14 N 0.6039(2) 0.6081(2) 0.03351(18)
N16_14 N 0.60654(17) 0.5693(2) 0.0687(2)
C67_14 C 0.6271(2) 0.5981(2) 0.0152(2)
C68_14 C 0.6487(2) 0.5762(2) 0.0229(3)
H23_14 H 0.6484 0.5669 0.0418
C69_14 C 0.6705(2) 0.5688(3) 0.0015(3)
C71_14 C 0.5932(3) 0.5939(3) 0.0588(3)
C72_14 C 0.6928(2) 0.5443(2) 0.0090(3)
O35_14 O 0.42935(19) 0.62647(19) 0.13154(19)
O36_14 O 0.41638(18) 0.66534(19) 0.10458(19)
O37_14 O 0.5353(2) 0.69348(16) 0.0361(2)
N17_14 N 0.53351(18) 0.6039(2) 0.1081(2)
N18_14 N 0.5687(2) 0.60654(17) 0.0693(2)
C73_14 C 0.4342(3) 0.6487(3) 0.1148(3)
C74_14 C 0.4654(2) 0.6471(2) 0.1008(2)
C75_14 C 0.4866(2) 0.6266(2) 0.1101(2)
H25_14 H 0.4815 0.6123 0.1247
C76_14 C 0.5152(2) 0.6271(2) 0.0981(2)
C77_14 C 0.5229(3) 0.6487(2) 0.0762(2)
H26_14 H 0.5418 0.6484 0.0669
C78_14 C 0.5015(3) 0.6705(2) 0.0688(3)
C79_14 C 0.4729(3) 0.6700(2) 0.0819(3)
H27_14 H 0.4589 0.6852 0.0777
C80_14 C 0.5588(3) 0.5932(3) 0.0939(3)
C81_14 C 0.5090(3) 0.6928(2) 0.0443(2)
O40_14 O 0.60458(19) 0.41638(18) 0.16534(19)
O41_14 O 0.5361(2) 0.5353(2) 0.19348(16)
O42_14 O 0.53334(19) 0.4875(2) 0.20707(17)
N19_14 N 0.6081(2) 0.53351(18) 0.1039(2)
N20_14 N 0.5693(2) 0.5687(2) 0.10654(17)
C82_14 C 0.6148(3) 0.4342(3) 0.1487(3)
C83_14 C 0.6008(2) 0.4654(2) 0.1471(2)
C84_14 C 0.6101(2) 0.4866(2) 0.1266(2)
H28_14 H 0.6247 0.4815 0.1123
C85_14 C 0.5981(2) 0.5152(2) 0.1271(2)
C86_14 C 0.5762(2) 0.5229(3) 0.1487(2)
H29_14 H 0.5669 0.5418 0.1484
C87_14 C 0.5688(3) 0.5015(3) 0.1705(2)
C88_14 C 0.5819(3) 0.4729(3) 0.1700(2)
H30_14 H 0.5777 0.4589 0.1852
C89_14 C 0.5939(3) 0.5588(3) 0.0932(3)
C90_14 C 0.5443(2) 0.5090(3) 0.1928(2)
Zn14_14 Zn 0.60348(4) 0.37384(4) 0.16102(4)
Zn17_14 Zn 0.39652(4) 0.62616(4) 0.16102(4)
H43_14 H 0.594011 0.627504 0.0277569
H45_14 H 0.627504 0.527757 0.0940106
H46_14 H 0.527757 0.594011 0.127504
C64_14 C 0.6487(3) 0.6148(3) 0.9342(3)
C65_14 C 0.6471(2) 0.6008(2) 0.9654(2)
C66_14 C 0.6266(2) 0.6101(2) 0.9866(2)
H22_14 H 0.6123 0.6247 0.9815
C70_14 C 0.6700(2) 0.5819(3) 0.9729(3)
H24_14 H 0.6852 0.5777 0.9589
O61_21 O 0.36175(17) 0.36175(17) 0.86175(17)
O63_21 O 0.3766(2) 0.3657(2) 0.78715(17)
O65_21 O 0.41731(16) 0.34841(17) 0.80747(16)
O61_22 O 0.36175(17) 0.13825(17) 0.63825(17)
O63_22 O 0.3766(2) 0.1343(2) 0.71285(17)
O65_22 O 0.41731(16) 0.15159(17) 0.69253(16)
O61_23 O 0.36175(17) 0.63825(17) 0.13825(17)
O63_23 O 0.3657(2) 0.71285(17) 0.1234(2)
O65_23 O 0.34841(17) 0.69253(16) 0.08269(16)
O61_24 O 0.13825(17) 0.63825(17) 0.36175(17)
O63_24 O 0.1343(2) 0.71285(17) 0.3766(2)
O65_24 O 0.15159(17) 0.69253(16) 0.41731(16)
O34_5 O 0.5154(2) 0.22652(19) 0.0360(2)
N13_5 N 0.5535(2) 0.1289(2) 0.0582(2)
N14_5 N 0.59050(19) 0.09424(17) 0.05480(18)
C58_5 C 0.54949(19) 0.1924(2) 0.0128(2)
C59_5 C 0.5449(2) 0.1733(2) 0.0351(3)
H20_5 H 0.5317 0.1782 0.0507
C60_5 C 0.5594(2) 0.1462(2) 0.0352(2)
C61_5 C 0.5784(2) 0.1397(2) 0.0121(2)
H21_5 H 0.5888 0.1214 0.0116
C62_5 C 0.5675(3) 0.1034(2) 0.0686(3)
C63_5 C 0.5328(3) 0.2236(4) 0.0137(3)
N21_5 N 0.6289(2) 0.0582(2) 0.0535(2)
N22_5 N 0.59424(17) 0.05480(18) 0.09050(19)
C94_5 C 0.6924(2) 0.0128(2) 0.04949(19)
C95_5 C 0.6733(2) 0.0351(3) 0.0449(2)
H32_5 H 0.6782 0.0507 0.0317
C96_5 C 0.6462(2) 0.0352(2) 0.0594(2)
C97_5 C 0.6397(2) 0.0121(2) 0.0784(2)
H33_5 H 0.6214 0.0116 0.0888
C98_5 C 0.6034(2) 0.0686(3) 0.0675(3)
C99_5 C 0.7236(4) 0.0137(3) 0.0328(3)
O49_5 O 0.4930(2) 0.0370(2) 0.24002(17)
O50_5 O 0.5360(2) 0.0154(2) 0.22652(19)
N23_5 N 0.5582(2) 0.0535(2) 0.1289(2)
N24_5 N 0.55480(18) 0.09050(19) 0.09424(17)
C100_5 C 0.4645(2) 0.1009(2) 0.1499(2)
C101_5 C 0.4903(2) 0.08192(18) 0.15975(19)
C102_5 C 0.4904(2) 0.06802(19) 0.1855(2)
H34_5 H 0.4747 0.0711 0.1992
C103_5 C 0.5128(2) 0.04949(19) 0.1924(2)
C104_5 C 0.5351(3) 0.0449(2) 0.1733(2)
H35_5 H 0.5507 0.0317 0.1782
C105_5 C 0.5352(2) 0.0594(2) 0.1462(2)
C106_5 C 0.5121(2) 0.0784(2) 0.1397(2)
H36_5 H 0.5116 0.0888 0.1214
C107_5 C 0.5686(3) 0.0675(3) 0.1034(2)
C108_5 C 0.5137(3) 0.0328(3) 0.2236(4)
O66_8 O 0.7130(2) 0.2570(2) 0.00998(17)
O67_8 O 0.7870(2) 0.2430(2) 0.00998(17)
O72_8 O 0.7346(2) 0.2140(2) 0.02348(19)
O73_8 O 0.7654(2) 0.2860(2) 0.02348(19)
H44_5 H 0.535672 0.135348 0.0703647
H47_5 H 0.570365 0.0356719 0.135348
H48_5 H 0.635348 0.0703647 0.0356719
O1_7 O 0.67935(19) 0.11846(19) 0.87647(19)
O2_6 O 0.66638(18) 0.14542(19) 0.91534(19)
O3_11 O 0.7853(2) 0.2139(2) 0.94348(16)
O4_9 O 0.7375(2) 0.21666(19) 0.95707(17)
O6_5 O 0.6266(2) 0.03715(17) 0.8843(2)
O7_5 O 0.66731(16) 0.05747(16) 0.90159(17)
N3_11 N 0.78351(18) 0.1419(2) 0.8539(2)
N4_11 N 0.8187(2) 0.1807(2) 0.85654(17)
C1_5 C 0.6499(2) 0.0355(2) 0.8991(2)
C2_5 C 0.65975(19) 0.0097(2) 0.91808(18)
C3_5 C 0.6855(2) 0.0096(2) 0.93198(19)
H1_5 H 0.6992 0.0253 0.9289
C10_11 C 0.6842(3) 0.1352(3) 0.8987(3)
C11_11 C 0.7154(2) 0.1492(2) 0.8971(2)
C12_11 C 0.7366(2) 0.1399(2) 0.8766(2)
H4_11 H 0.7315 0.1253 0.8623
C13_11 C 0.7652(2) 0.1519(2) 0.8771(2)
C14_11 C 0.7729(3) 0.1738(2) 0.8987(2)
H5_11 H 0.7918 0.1831 0.8984
C15_11 C 0.7515(3) 0.1812(3) 0.9205(2)
C16_11 C 0.7229(3) 0.1681(3) 0.9200(2)
H6_11 H 0.7089 0.1723 0.9352
C17_11 C 0.8088(3) 0.1561(3) 0.8432(3)
C18_11 C 0.7590(3) 0.2057(2) 0.9428(2)
O10_11 O 0.88154(19) 0.12353(19) 0.67935(19)
O11_11 O 0.85458(19) 0.08466(19) 0.66638(18)
O12_11 O 0.7861(2) 0.05652(16) 0.7853(2)
O13_9 O 0.78334(19) 0.04293(17) 0.7375(2)
N5_11 N 0.8581(2) 0.1461(2) 0.78351(18)
N6_11 N 0.8193(2) 0.14346(17) 0.8187(2)
C19_11 C 0.8648(3) 0.1013(3) 0.6842(3)
C20_11 C 0.8508(2) 0.1029(2) 0.7154(2)
C21_11 C 0.8601(2) 0.1234(2) 0.7366(2)
H7_11 H 0.8747 0.1377 0.7315
C22_11 C 0.8481(2) 0.1229(2) 0.7652(2)
C23_11 C 0.8262(2) 0.1013(2) 0.7729(3)
H8_11 H 0.8169 0.1016 0.7918
C24_11 C 0.8188(3) 0.0795(2) 0.7515(3)
C25_11 C 0.8319(3) 0.0800(2) 0.7229(3)
H9_11 H 0.8277 0.0648 0.7089
C26_11 C 0.8439(3) 0.1568(3) 0.8088(3)
C27_11 C 0.7943(2) 0.0572(2) 0.7590(3)
O14_9 O 0.87647(19) 0.32065(19) 0.88154(19)
O15_11 O 0.91534(19) 0.33362(18) 0.85458(19)
O16_11 O 0.94348(16) 0.2147(2) 0.7861(2)
O17_11 O 0.95707(17) 0.2625(2) 0.78334(19)
N7_11 N 0.8539(2) 0.21649(18) 0.8581(2)
N8_11 N 0.85654(17) 0.1813(2) 0.8193(2)
C28_11 C 0.8987(3) 0.3158(3) 0.8648(3)
C29_11 C 0.8971(2) 0.2846(2) 0.8508(2)
C30_11 C 0.8766(2) 0.2634(2) 0.8601(2)
H10_11 H 0.8623 0.2685 0.8747
C31_11 C 0.8771(2) 0.2348(2) 0.8481(2)
C32_11 C 0.8987(2) 0.2271(3) 0.8262(2)
H11_11 H 0.8984 0.2082 0.8169
C33_11 C 0.9205(2) 0.2485(3) 0.8188(3)
C34_11 C 0.9200(2) 0.2771(3) 0.8319(3)
H12_11 H 0.9352 0.2911 0.8277
C35_11 C 0.8432(3) 0.1912(3) 0.8439(3)
C36_11 C 0.9428(2) 0.2410(3) 0.7943(2)
O31_5 O 0.6157(2) 0.1266(2) 0.96285(17)
O32_5 O 0.59841(17) 0.16731(16) 0.94253(16)
O33_5 O 0.5370(2) 0.24002(17) 0.9930(2)
C55_5 C 0.6009(2) 0.1499(2) 0.9645(2)
C56_5 C 0.58192(18) 0.15975(19) 0.9903(2)
C57_5 C 0.56802(19) 0.1855(2) 0.9904(2)
H19_5 H 0.5711 0.1992 0.9747
O63_25 O 0.8734(2) 0.03715(17) 0.6157(2)
O65_25 O 0.83269(16) 0.05747(16) 0.59841(17)
H38_11 H 0.777757 0.122496 0.844011
H39_11 H 0.877504 0.155989 0.777757
H40_11 H 0.844011 0.222243 0.877504
O22_5 O 0.6157(2) 0.8734(2) 0.03715(17)
O23_5 O 0.59841(17) 0.83269(16) 0.05747(16)
C46_5 C 0.6009(2) 0.8501(2) 0.0355(2)
C47_5 C 0.58192(18) 0.84025(19) 0.0097(2)
C48_5 C 0.56802(19) 0.8145(2) 0.0096(2)
H16_5 H 0.5711 0.8008 0.0253
O43_5 O 0.6266(2) 0.96285(17) 0.1157(2)
O44_5 O 0.66731(16) 0.94253(16) 0.09841(17)
C91_5 C 0.6499(2) 0.9645(2) 0.1009(2)
C92_5 C 0.65975(19) 0.9903(2) 0.08192(18)
C93_5 C 0.6855(2) 0.9904(2) 0.06802(19)
H31_5 H 0.6992 0.9747 0.0711
O55_5 O 0.66638(18) 0.85458(19) 0.08466(19)
N1_5 N 0.6289(2) 0.9418(2) 0.9465(2)
N2_5 N 0.59424(17) 0.94520(18) 0.90950(19)
C4_5 C 0.6924(2) 0.9872(2) 0.95051(19)
C5_5 C 0.6733(2) 0.9649(3) 0.9551(2)
H2_5 H 0.6782 0.9493 0.9683
C6_5 C 0.6462(2) 0.9648(2) 0.9406(2)
C7_5 C 0.6397(2) 0.9879(2) 0.9216(2)
H3_5 H 0.6214 0.9884 0.9112
C8_5 C 0.6034(2) 0.9314(3) 0.9325(3)
C9_5 C 0.7236(4) 0.9863(3) 0.9672(3)
N9_5 N 0.5582(2) 0.9465(2) 0.8711(2)
N10_5 N 0.55480(18) 0.90950(19) 0.90576(17)
C37_5 C 0.4645(2) 0.8991(2) 0.8501(2)
C38_5 C 0.4903(2) 0.91808(18) 0.84025(19)
C39_5 C 0.4904(2) 0.93198(19) 0.8145(2)
H13_5 H 0.4747 0.9289 0.8008
C40_5 C 0.5128(2) 0.95051(19) 0.8076(2)
C41_5 C 0.5351(3) 0.9551(2) 0.8267(2)
H14_5 H 0.5507 0.9683 0.8218
C42_5 C 0.5352(2) 0.9406(2) 0.8538(2)
C43_5 C 0.5121(2) 0.9216(2) 0.8603(2)
H15_5 H 0.5116 0.9112 0.8786
C44_5 C 0.5686(3) 0.9325(3) 0.8966(2)
C45_5 C 0.5137(3) 0.9672(3) 0.7764(4)
N11_5 N 0.5535(2) 0.8711(2) 0.9418(2)
N12_5 N 0.59050(19) 0.90576(17) 0.94520(18)
C49_5 C 0.54949(19) 0.8076(2) 0.9872(2)
C50_5 C 0.5449(2) 0.8267(2) 0.9649(3)
H17_5 H 0.5317 0.8218 0.9493
C51_5 C 0.5594(2) 0.8538(2) 0.9648(2)
C52_5 C 0.5784(2) 0.8603(2) 0.9879(2)
H18_5 H 0.5888 0.8786 0.9884
C53_5 C 0.5675(3) 0.8966(2) 0.9314(3)
C54_5 C 0.5328(3) 0.7764(4) 0.9863(3)
H37_5 H 0.635348 0.929635 0.964328
H41_5 H 0.570365 0.964328 0.864652
H42_5 H 0.535672 0.864652 0.929635
N1_6 N 0.8082(2) 0.3789(2) 0.1965(2)
N2_6 N 0.80480(18) 0.34424(17) 0.15950(19)
C1_6 C 0.7145(2) 0.3999(2) 0.1491(2)
C2_6 C 0.7403(2) 0.40975(19) 0.16808(18)
C3_6 C 0.7404(2) 0.4355(2) 0.18198(19)
H1_6 H 0.7247 0.4492 0.1789
C4_6 C 0.7628(2) 0.4424(2) 0.20051(19)
C5_6 C 0.7851(3) 0.4233(2) 0.2051(2)
H2_6 H 0.8007 0.4282 0.2183
C6_6 C 0.7852(2) 0.3962(2) 0.1906(2)
C7_6 C 0.7621(2) 0.3897(2) 0.1716(2)
H3_6 H 0.7616 0.3714 0.1612
C8_6 C 0.8186(3) 0.3534(2) 0.1825(3)
C9_6 C 0.7637(3) 0.4736(4) 0.2172(3)
O18_3 O 0.8657(2) 0.21285(17) 0.1234(2)
O19_3 O 0.84841(17) 0.19253(16) 0.08269(16)
N9_6 N 0.8035(2) 0.3082(2) 0.1211(2)
N10_6 N 0.84050(19) 0.30480(18) 0.15576(17)
C37_6 C 0.8509(2) 0.2145(2) 0.1001(2)
C38_6 C 0.83192(18) 0.2403(2) 0.09025(19)
C39_6 C 0.81802(19) 0.2404(2) 0.0645(2)
H13_6 H 0.8211 0.2247 0.0508
C40_6 C 0.79949(19) 0.2628(2) 0.0576(2)
C41_6 C 0.7949(2) 0.2851(3) 0.0767(2)
H14_6 H 0.7817 0.3007 0.0718
C42_6 C 0.8094(2) 0.2852(2) 0.1038(2)
C43_6 C 0.8284(2) 0.2621(2) 0.1103(2)
H15_6 H 0.8388 0.2616 0.1286
C44_6 C 0.8175(3) 0.3186(3) 0.1466(2)
C45_6 C 0.7828(3) 0.2637(3) 0.0264(4)
O22_6 O 0.8766(2) 0.3657(2) 0.28715(17)
O23_6 O 0.91731(16) 0.34841(17) 0.30747(16)
O24_4 O 0.99002(17) 0.2870(2) 0.2570(2)
O25_4 O 0.97652(19) 0.2654(2) 0.2140(2)
N11_6 N 0.8789(2) 0.3035(2) 0.1918(2)
N12_6 N 0.84424(17) 0.34050(19) 0.19520(18)
C46_6 C 0.8999(2) 0.3509(2) 0.2855(2)
C47_6 C 0.90975(19) 0.33192(18) 0.2597(2)
C48_6 C 0.9355(2) 0.31802(19) 0.2596(2)
H16_6 H 0.9492 0.3211 0.2753
C49_6 C 0.9424(2) 0.29949(19) 0.2372(2)
C50_6 C 0.9233(2) 0.2949(2) 0.2149(3)
H17_6 H 0.9282 0.2817 0.1993
C51_6 C 0.8962(2) 0.3094(2) 0.2148(2)
C52_6 C 0.8897(2) 0.3284(2) 0.2379(2)
H18_6 H 0.8714 0.3388 0.2384
C53_6 C 0.8534(2) 0.3175(3) 0.1814(3)
C54_6 C 0.9736(4) 0.2828(3) 0.2363(3)
O27_6 O 0.57065(19) 0.37353(19) 0.13154(19)
O28_5 O 0.58362(18) 0.33466(19) 0.10458(19)
O29_15 O 0.4647(2) 0.30652(16) 0.0361(2)
O30_9 O 0.5125(2) 0.29293(17) 0.03334(19)
O31_6 O 0.6234(2) 0.3657(2) 0.21285(17)
O32_6 O 0.58269(16) 0.34841(17) 0.19253(16)
N13_6 N 0.6211(2) 0.3035(2) 0.3082(2)
N14_6 N 0.65576(17) 0.34050(19) 0.30480(18)
N15_15 N 0.46649(18) 0.3961(2) 0.1081(2)
N16_15 N 0.4313(2) 0.39346(17) 0.0693(2)
C55_6 C 0.6001(2) 0.3509(2) 0.2145(2)
C56_6 C 0.59025(19) 0.33192(18) 0.2403(2)
C57_6 C 0.5645(2) 0.31802(19) 0.2404(2)
H19_6 H 0.5508 0.3211 0.2247
C58_6 C 0.5576(2) 0.29949(19) 0.2628(2)
C59_6 C 0.5767(2) 0.2949(2) 0.2851(3)
H20_6 H 0.5718 0.2817 0.3007
C60_6 C 0.6038(2) 0.3094(2) 0.2852(2)
C61_6 C 0.6103(2) 0.3284(2) 0.2621(2)
H21_6 H 0.6286 0.3388 0.2616
C62_6 C 0.6466(2) 0.3175(3) 0.3186(3)
C63_6 C 0.5264(4) 0.2828(3) 0.2637(3)
C64_15 C 0.5658(3) 0.3513(3) 0.1148(3)
C65_15 C 0.5346(2) 0.3529(2) 0.1008(2)
C66_15 C 0.5134(2) 0.3734(2) 0.1101(2)
H22_15 H 0.5185 0.3877 0.1247
C67_15 C 0.4848(2) 0.3729(2) 0.0981(2)
C68_15 C 0.4771(3) 0.3513(2) 0.0762(2)
H23_15 H 0.4582 0.3516 0.0669
C69_15 C 0.4985(3) 0.3295(2) 0.0688(3)
C70_15 C 0.5271(3) 0.3300(2) 0.0819(3)
H24_15 H 0.5411 0.3148 0.0777
C71_15 C 0.4412(3) 0.4068(3) 0.0939(3)
C72_15 C 0.4910(3) 0.3072(2) 0.0443(2)
O35_15 O 0.36846(19) 0.57065(19) 0.12647(19)
O36_15 O 0.39542(19) 0.58362(18) 0.16534(19)
O37_15 O 0.4639(2) 0.4647(2) 0.19348(16)
O38_9 O 0.46666(19) 0.5125(2) 0.20707(17)
N17_15 N 0.3919(2) 0.46649(18) 0.1039(2)
N18_15 N 0.4307(2) 0.4313(2) 0.10654(17)
C73_15 C 0.3852(3) 0.5658(3) 0.1487(3)
C74_15 C 0.3992(2) 0.5346(2) 0.1471(2)
C75_15 C 0.3899(2) 0.5134(2) 0.1266(2)
H25_15 H 0.3753 0.5185 0.1123
C76_15 C 0.4019(2) 0.4848(2) 0.1271(2)
C77_15 C 0.4238(2) 0.4771(3) 0.1487(2)
H26_15 H 0.4331 0.4582 0.1484
C78_15 C 0.4312(3) 0.4985(3) 0.1705(2)
C79_15 C 0.4181(3) 0.5271(3) 0.1700(2)
H27_15 H 0.4223 0.5411 0.1852
C80_15 C 0.4061(3) 0.4412(3) 0.0932(3)
C81_15 C 0.4557(2) 0.4910(3) 0.1928(2)
O41_15 O 0.30652(16) 0.4639(2) 0.0353(2)
N19_15 N 0.3961(2) 0.3919(2) 0.03351(18)
N20_15 N 0.39346(17) 0.4307(2) 0.0687(2)
C85_15 C 0.3729(2) 0.4019(2) 0.0152(2)
C86_15 C 0.3513(2) 0.4238(2) 0.0229(3)
H29_15 H 0.3516 0.4331 0.0418
C87_15 C 0.3295(2) 0.4312(3) 0.0015(3)
C89_15 C 0.4068(3) 0.4061(3) 0.0588(3)
C90_15 C 0.3072(2) 0.4557(2) 0.0090(3)
N21_6 N 0.6918(2) 0.3789(2) 0.3035(2)
N22_6 N 0.69520(18) 0.34424(17) 0.34050(19)
C91_6 C 0.7855(2) 0.3999(2) 0.3509(2)
C92_6 C 0.7597(2) 0.40975(19) 0.33192(18)
C93_6 C 0.7596(2) 0.4355(2) 0.31802(19)
H31_6 H 0.7753 0.4492 0.3211
C94_6 C 0.7372(2) 0.4424(2) 0.29949(19)
C95_6 C 0.7149(3) 0.4233(2) 0.2949(2)
H32_6 H 0.6993 0.4282 0.2817
C96_6 C 0.7148(2) 0.3962(2) 0.3094(2)
C97_6 C 0.7379(2) 0.3897(2) 0.3284(2)
H33_6 H 0.7384 0.3714 0.3388
C98_6 C 0.6814(3) 0.3534(2) 0.3175(3)
C99_6 C 0.7363(3) 0.4736(4) 0.2828(3)
O47_5 O 0.6343(2) 0.21285(17) 0.3766(2)
O48_5 O 0.65159(17) 0.19253(16) 0.41731(16)
N23_6 N 0.6965(2) 0.3082(2) 0.3789(2)
N24_6 N 0.65950(19) 0.30480(18) 0.34424(17)
C100_6 C 0.6491(2) 0.2145(2) 0.3999(2)
C101_6 C 0.66808(18) 0.2403(2) 0.40975(19)
C102_6 C 0.68198(19) 0.2404(2) 0.4355(2)
H34_6 H 0.6789 0.2247 0.4492
C103_6 C 0.70051(19) 0.2628(2) 0.4424(2)
C104_6 C 0.7051(2) 0.2851(3) 0.4233(2)
H35_6 H 0.7183 0.3007 0.4282
C105_6 C 0.6906(2) 0.2852(2) 0.3962(2)
C106_6 C 0.6716(2) 0.2621(2) 0.3897(2)
H36_6 H 0.6612 0.2616 0.3714
C107_6 C 0.6825(3) 0.3186(3) 0.3534(2)
C108_6 C 0.7172(3) 0.2637(3) 0.4736(4)
O52_5 O 0.92935(19) 0.37353(19) 0.36846(19)
O56_6 O 0.91638(18) 0.16534(19) 0.10458(19)
O62_3 O 0.6343(2) 0.28715(17) 0.1234(2)
O64_3 O 0.65159(17) 0.30747(16) 0.08269(16)
O70_8 O 0.4630(2) 0.24002(17) 0.0070(2)
H37_6 H 0.820365 0.385348 0.214328
H41_6 H 0.785672 0.320365 0.114652
H42_6 H 0.885348 0.285672 0.179635
H43_15 H 0.472243 0.405989 0.127504
H44_6 H 0.614652 0.285672 0.320365
H45_15 H 0.405989 0.372496 0.0277569
H46_15 H 0.372496 0.472243 0.0940106
H47_6 H 0.714328 0.320365 0.385348
H48_6 H 0.679635 0.385348 0.285672
O39_9 O 0.37353(19) 0.36846(19) 0.92935(19)
O40_15 O 0.33466(19) 0.39542(19) 0.91638(18)
O42_15 O 0.29293(17) 0.46666(19) 0.9875(2)
C82_15 C 0.3513(3) 0.3852(3) 0.9342(3)
C83_15 C 0.3529(2) 0.3992(2) 0.9654(2)
C84_15 C 0.3734(2) 0.3899(2) 0.9866(2)
H28_15 H 0.3877 0.3753 0.9815
C88_15 C 0.3300(2) 0.4181(3) 0.9729(3)
H30_15 H 0.3148 0.4223 0.9589
O76_8 O 0.4846(2) 0.22652(19) 0.9640(2)
O22_7 O 0.3843(2) 0.1266(2) 0.03715(17)
O23_7 O 0.40159(17) 0.16731(16) 0.05747(16)
C46_7 C 0.3991(2) 0.1499(2) 0.0355(2)
C47_7 C 0.41808(18) 0.15975(19) 0.0097(2)
C48_7 C 0.43198(19) 0.1855(2) 0.0096(2)
H16_7 H 0.4289 0.1992 0.0253
O43_6 O 0.3734(2) 0.03715(17) 0.1157(2)
O44_6 O 0.33269(16) 0.05747(16) 0.09841(17)
O45_5 O 0.25998(17) 0.0070(2) 0.0370(2)
C91_7 C 0.3501(2) 0.0355(2) 0.1009(2)
C92_7 C 0.34025(19) 0.0097(2) 0.08192(18)
C93_7 C 0.3145(2) 0.0096(2) 0.06802(19)
H31_7 H 0.3008 0.0253 0.0711
O55_6 O 0.33362(18) 0.14542(19) 0.08466(19)
O9_5 O 0.27348(19) 0.0360(2) 0.9846(2)
N1_7 N 0.3711(2) 0.0582(2) 0.9465(2)
N2_7 N 0.40576(17) 0.05480(18) 0.90950(19)
C4_7 C 0.3076(2) 0.0128(2) 0.95051(19)
C5_7 C 0.3267(2) 0.0351(3) 0.9551(2)
H2_7 H 0.3218 0.0507 0.9683
C6_7 C 0.3538(2) 0.0352(2) 0.9406(2)
C7_7 C 0.3603(2) 0.0121(2) 0.9216(2)
H3_7 H 0.3786 0.0116 0.9112
C8_7 C 0.3966(2) 0.0686(3) 0.9325(3)
C9_7 C 0.2764(4) 0.0137(3) 0.9672(3)
N9_7 N 0.4418(2) 0.0535(2) 0.8711(2)
N10_7 N 0.44520(18) 0.09050(19) 0.90576(17)
C37_7 C 0.5355(2) 0.1009(2) 0.8501(2)
C38_7 C 0.5097(2) 0.08192(18) 0.84025(19)
C39_7 C 0.5096(2) 0.06802(19) 0.8145(2)
H13_7 H 0.5253 0.0711 0.8008
C40_7 C 0.4872(2) 0.04949(19) 0.8076(2)
C41_7 C 0.4649(3) 0.0449(2) 0.8267(2)
H14_7 H 0.4493 0.0317 0.8218
C42_7 C 0.4648(2) 0.0594(2) 0.8538(2)
C43_7 C 0.4879(2) 0.0784(2) 0.8603(2)
H15_7 H 0.4884 0.0888 0.8786
C44_7 C 0.4314(3) 0.0675(3) 0.8966(2)
C45_7 C 0.4863(3) 0.0328(3) 0.7764(4)
N11_7 N 0.4465(2) 0.1289(2) 0.9418(2)
N12_7 N 0.40950(19) 0.09424(17) 0.94520(18)
C49_7 C 0.45051(19) 0.1924(2) 0.9872(2)
C50_7 C 0.4551(2) 0.1733(2) 0.9649(3)
H17_7 H 0.4683 0.1782 0.9493
C51_7 C 0.4406(2) 0.1462(2) 0.9648(2)
C52_7 C 0.4216(2) 0.1397(2) 0.9879(2)
H18_7 H 0.4112 0.1214 0.9884
C53_7 C 0.4325(3) 0.1034(2) 0.9314(3)
C54_7 C 0.4672(3) 0.2236(4) 0.9863(3)
O68_7 O 0.2570(2) 0.00998(17) 0.7130(2)
O69_7 O 0.2430(2) 0.00998(17) 0.7870(2)
O74_7 O 0.2140(2) 0.02348(19) 0.7346(2)
O75_7 O 0.2860(2) 0.02348(19) 0.7654(2)
H37_7 H 0.364652 0.0703647 0.964328
H41_7 H 0.429635 0.0356719 0.864652
H42_7 H 0.464328 0.135348 0.929635
N13_7 N 0.4465(2) 0.8711(2) 0.0582(2)
N14_7 N 0.40950(19) 0.90576(17) 0.05480(18)
C58_7 C 0.45051(19) 0.8076(2) 0.0128(2)
C59_7 C 0.4551(2) 0.8267(2) 0.0351(3)
H20_7 H 0.4683 0.8218 0.0507
C60_7 C 0.4406(2) 0.8538(2) 0.0352(2)
C61_7 C 0.4216(2) 0.8603(2) 0.0121(2)
H21_7 H 0.4112 0.8786 0.0116
C62_7 C 0.4325(3) 0.8966(2) 0.0686(3)
C63_7 C 0.4672(3) 0.7764(4) 0.0137(3)
O46_5 O 0.27348(19) 0.9640(2) 0.0154(2)
N21_7 N 0.3711(2) 0.9418(2) 0.0535(2)
N22_7 N 0.40576(17) 0.94520(18) 0.09050(19)
C94_7 C 0.3076(2) 0.9872(2) 0.04949(19)
C95_7 C 0.3267(2) 0.9649(3) 0.0449(2)
H32_7 H 0.3218 0.9493 0.0317
C96_7 C 0.3538(2) 0.9648(2) 0.0594(2)
C97_7 C 0.3603(2) 0.9879(2) 0.0784(2)
H33_7 H 0.3786 0.9884 0.0888
C98_7 C 0.3966(2) 0.9314(3) 0.0675(3)
C99_7 C 0.2764(4) 0.9863(3) 0.0328(3)
O49_6 O 0.5070(2) 0.9630(2) 0.24002(17)
O50_6 O 0.4640(2) 0.9846(2) 0.22652(19)
N23_7 N 0.4418(2) 0.9465(2) 0.1289(2)
N24_7 N 0.44520(18) 0.90950(19) 0.09424(17)
C100_7 C 0.5355(2) 0.8991(2) 0.1499(2)
C101_7 C 0.5097(2) 0.91808(18) 0.15975(19)
C102_7 C 0.5096(2) 0.93198(19) 0.1855(2)
H34_7 H 0.5253 0.9289 0.1992
C103_7 C 0.4872(2) 0.95051(19) 0.1924(2)
C104_7 C 0.4649(3) 0.9551(2) 0.1733(2)
H35_7 H 0.4493 0.9683 0.1782
C105_7 C 0.4648(2) 0.9406(2) 0.1462(2)
C106_7 C 0.4879(2) 0.9216(2) 0.1397(2)
H36_7 H 0.4884 0.9112 0.1214
C107_7 C 0.4314(3) 0.9325(3) 0.1034(2)
C108_7 C 0.4863(3) 0.9672(3) 0.2236(4)
O66_9 O 0.2870(2) 0.7430(2) 0.00998(17)
O67_9 O 0.2130(2) 0.7570(2) 0.00998(17)
O72_9 O 0.2654(2) 0.7860(2) 0.02348(19)
O73_9 O 0.2346(2) 0.7140(2) 0.02348(19)
H44_7 H 0.464328 0.864652 0.0703647
H47_7 H 0.429635 0.964328 0.135348
H48_7 H 0.364652 0.929635 0.0356719
O1_8 O 0.32065(19) 0.88154(19) 0.87647(19)
O2_7 O 0.33362(18) 0.85458(19) 0.91534(19)
O3_12 O 0.2147(2) 0.7861(2) 0.94348(16)
O4_10 O 0.2625(2) 0.78334(19) 0.95707(17)
O6_6 O 0.3734(2) 0.96285(17) 0.8843(2)
O7_6 O 0.33269(16) 0.94253(16) 0.90159(17)
O8_5 O 0.25998(17) 0.9930(2) 0.9630(2)
N3_12 N 0.21649(18) 0.8581(2) 0.8539(2)
N4_12 N 0.1813(2) 0.8193(2) 0.85654(17)
C1_7 C 0.3501(2) 0.9645(2) 0.8991(2)
C2_7 C 0.34025(19) 0.9903(2) 0.91808(18)
C3_7 C 0.3145(2) 0.9904(2) 0.93198(19)
H1_7 H 0.3008 0.9747 0.9289
C10_12 C 0.3158(3) 0.8648(3) 0.8987(3)
C11_12 C 0.2846(2) 0.8508(2) 0.8971(2)
C12_12 C 0.2634(2) 0.8601(2) 0.8766(2)
H4_12 H 0.2685 0.8747 0.8623
C13_12 C 0.2348(2) 0.8481(2) 0.8771(2)
C14_12 C 0.2271(3) 0.8262(2) 0.8987(2)
H5_12 H 0.2082 0.8169 0.8984
C15_12 C 0.2485(3) 0.8188(3) 0.9205(2)
C16_12 C 0.2771(3) 0.8319(3) 0.9200(2)
H6_12 H 0.2911 0.8277 0.9352
C17_12 C 0.1912(3) 0.8439(3) 0.8432(3)
C18_12 C 0.2410(3) 0.7943(2) 0.9428(2)
O10_12 O 0.11846(19) 0.87647(19) 0.67935(19)
O11_12 O 0.14542(19) 0.91534(19) 0.66638(18)
O12_12 O 0.2139(2) 0.94348(16) 0.7853(2)
O13_10 O 0.21666(19) 0.95707(17) 0.7375(2)
N5_12 N 0.1419(2) 0.8539(2) 0.78351(18)
N6_12 N 0.1807(2) 0.85654(17) 0.8187(2)
C19_12 C 0.1352(3) 0.8987(3) 0.6842(3)
C20_12 C 0.1492(2) 0.8971(2) 0.7154(2)
C21_12 C 0.1399(2) 0.8766(2) 0.7366(2)
H7_12 H 0.1253 0.8623 0.7315
C22_12 C 0.1519(2) 0.8771(2) 0.7652(2)
C23_12 C 0.1738(2) 0.8987(2) 0.7729(3)
H8_12 H 0.1831 0.8984 0.7918
C24_12 C 0.1812(3) 0.9205(2) 0.7515(3)
C25_12 C 0.1681(3) 0.9200(2) 0.7229(3)
H9_12 H 0.1723 0.9352 0.7089
C26_12 C 0.1561(3) 0.8432(3) 0.8088(3)
C27_12 C 0.2057(2) 0.9428(2) 0.7590(3)
O14_10 O 0.12353(19) 0.67935(19) 0.88154(19)
O15_12 O 0.08466(19) 0.66638(18) 0.85458(19)
O16_12 O 0.05652(16) 0.7853(2) 0.7861(2)
O17_12 O 0.04293(17) 0.7375(2) 0.78334(19)
N7_12 N 0.1461(2) 0.78351(18) 0.8581(2)
N8_12 N 0.14346(17) 0.8187(2) 0.8193(2)
C28_12 C 0.1013(3) 0.6842(3) 0.8648(3)
C29_12 C 0.1029(2) 0.7154(2) 0.8508(2)
C30_12 C 0.1234(2) 0.7366(2) 0.8601(2)
H10_12 H 0.1377 0.7315 0.8747
C31_12 C 0.1229(2) 0.7652(2) 0.8481(2)
C32_12 C 0.1013(2) 0.7729(3) 0.8262(2)
H11_12 H 0.1016 0.7918 0.8169
C33_12 C 0.0795(2) 0.7515(3) 0.8188(3)
C34_12 C 0.0800(2) 0.7229(3) 0.8319(3)
H12_12 H 0.0648 0.7089 0.8277
C35_12 C 0.1568(3) 0.8088(3) 0.8439(3)
C36_12 C 0.0572(2) 0.7590(3) 0.7943(2)
O31_7 O 0.3843(2) 0.8734(2) 0.96285(17)
O32_7 O 0.40159(17) 0.83269(16) 0.94253(16)
C55_7 C 0.3991(2) 0.8501(2) 0.9645(2)
C56_7 C 0.41808(18) 0.84025(19) 0.9903(2)
C57_7 C 0.43198(19) 0.8145(2) 0.9904(2)
H19_7 H 0.4289 0.8008 0.9747
O63_26 O 0.1266(2) 0.96285(17) 0.6157(2)
O65_26 O 0.16731(16) 0.94253(16) 0.59841(17)
H38_12 H 0.222243 0.877504 0.844011
H39_12 H 0.122496 0.844011 0.777757
H40_12 H 0.155989 0.777757 0.877504
O29_16 O 0.0353(2) 0.19348(16) 0.0361(2)
N15_16 N 0.03351(18) 0.1039(2) 0.1081(2)
N16_16 N 0.0687(2) 0.10654(17) 0.0693(2)
C67_16 C 0.0152(2) 0.1271(2) 0.0981(2)
C68_16 C 0.0229(3) 0.1487(2) 0.0762(2)
H23_16 H 0.0418 0.1484 0.0669
C69_16 C 0.0015(3) 0.1705(2) 0.0688(3)
C71_16 C 0.0588(3) 0.0932(3) 0.0939(3)
C72_16 C 0.0090(3) 0.1928(2) 0.0443(2)
O37_16 O 0.0361(2) 0.0353(2) 0.19348(16)
N17_16 N 0.1081(2) 0.03351(18) 0.1039(2)
N18_16 N 0.0693(2) 0.0687(2) 0.10654(17)
C76_16 C 0.0981(2) 0.0152(2) 0.1271(2)
C77_16 C 0.0762(2) 0.0229(3) 0.1487(2)
H26_16 H 0.0669 0.0418 0.1484
C78_16 C 0.0688(3) 0.0015(3) 0.1705(2)
C80_16 C 0.0939(3) 0.0588(3) 0.0932(3)
C81_16 C 0.0443(2) 0.0090(3) 0.1928(2)
O41_16 O 0.19348(16) 0.0361(2) 0.0353(2)
N19_16 N 0.1039(2) 0.1081(2) 0.03351(18)
N20_16 N 0.10654(17) 0.0693(2) 0.0687(2)
C85_16 C 0.1271(2) 0.0981(2) 0.0152(2)
C86_16 C 0.1487(2) 0.0762(2) 0.0229(3)
H29_16 H 0.1484 0.0669 0.0418
C87_16 C 0.1705(2) 0.0688(3) 0.0015(3)
C89_16 C 0.0932(3) 0.0939(3) 0.0588(3)
C90_16 C 0.1928(2) 0.0443(2) 0.0090(3)
O66_10 O 0.0070(2) 0.0370(2) 0.25998(17)
O70_9 O 0.0370(2) 0.25998(17) 0.0070(2)
H43_16 H 0.0277569 0.0940106 0.127504
H45_16 H 0.0940106 0.127504 0.0277569
H46_16 H 0.127504 0.0277569 0.0940106
O39_10 O 0.12647(19) 0.13154(19) 0.92935(19)
O40_16 O 0.16534(19) 0.10458(19) 0.91638(18)
O42_16 O 0.20707(17) 0.03334(19) 0.9875(2)
C82_16 C 0.1487(3) 0.1148(3) 0.9342(3)
C83_16 C 0.1471(2) 0.1008(2) 0.9654(2)
C84_16 C 0.1266(2) 0.1101(2) 0.9866(2)
H28_16 H 0.1123 0.1247 0.9815
C88_16 C 0.1700(2) 0.0819(3) 0.9729(3)
H30_16 H 0.1852 0.0777 0.9589
O76_9 O 0.0154(2) 0.27348(19) 0.9640(2)
O35_16 O 0.13154(19) 0.92935(19) 0.12647(19)
O36_16 O 0.10458(19) 0.91638(18) 0.16534(19)
O38_10 O 0.03334(19) 0.9875(2) 0.20707(17)
C73_16 C 0.1148(3) 0.9342(3) 0.1487(3)
C74_16 C 0.1008(2) 0.9654(2) 0.1471(2)
C75_16 C 0.1101(2) 0.9866(2) 0.1266(2)
H25_16 H 0.1247 0.9815 0.1123
C79_16 C 0.0819(3) 0.9729(3) 0.1700(2)
H27_16 H 0.0777 0.9589 0.1852
O73_10 O 0.0360(2) 0.9846(2) 0.27348(19)
O8_6 O 0.7570(2) 0.00998(17) 0.2130(2)
O9_6 O 0.7140(2) 0.02348(19) 0.2346(2)
N1_8 N 0.6918(2) 0.1211(2) 0.1965(2)
N2_8 N 0.69520(18) 0.15576(17) 0.15950(19)
C1_8 C 0.7855(2) 0.1001(2) 0.1491(2)
C2_8 C 0.7597(2) 0.09025(19) 0.16808(18)
C3_8 C 0.7596(2) 0.0645(2) 0.18198(19)
H1_8 H 0.7753 0.0508 0.1789
C4_8 C 0.7372(2) 0.0576(2) 0.20051(19)
C5_8 C 0.7149(3) 0.0767(2) 0.2051(2)
H2_8 H 0.6993 0.0718 0.2183
C6_8 C 0.7148(2) 0.1038(2) 0.1906(2)
C7_8 C 0.7379(2) 0.1103(2) 0.1716(2)
H3_8 H 0.7384 0.1286 0.1612
C8_8 C 0.6814(3) 0.1466(2) 0.1825(3)
C9_8 C 0.7363(3) 0.0264(4) 0.2172(3)
N9_8 N 0.6965(2) 0.1918(2) 0.1211(2)
N10_8 N 0.65950(19) 0.19520(18) 0.15576(17)
C37_8 C 0.6491(2) 0.2855(2) 0.1001(2)
C38_8 C 0.66808(18) 0.2597(2) 0.09025(19)
C39_8 C 0.68198(19) 0.2596(2) 0.0645(2)
H13_8 H 0.6789 0.2753 0.0508
C40_8 C 0.70051(19) 0.2372(2) 0.0576(2)
C41_8 C 0.7051(2) 0.2149(3) 0.0767(2)
H14_8 H 0.7183 0.1993 0.0718
C42_8 C 0.6906(2) 0.2148(2) 0.1038(2)
C43_8 C 0.6716(2) 0.2379(2) 0.1103(2)
H15_8 H 0.6612 0.2384 0.1286
C44_8 C 0.6825(3) 0.1814(3) 0.1466(2)
C45_8 C 0.7172(3) 0.2363(3) 0.0264(4)
O22_8 O 0.6234(2) 0.1343(2) 0.28715(17)
O23_8 O 0.58269(16) 0.15159(17) 0.30747(16)
N11_8 N 0.6211(2) 0.1965(2) 0.1918(2)
N12_8 N 0.65576(17) 0.15950(19) 0.19520(18)
C46_8 C 0.6001(2) 0.1491(2) 0.2855(2)
C47_8 C 0.59025(19) 0.16808(18) 0.2597(2)
C48_8 C 0.5645(2) 0.18198(19) 0.2596(2)
H16_8 H 0.5508 0.1789 0.2753
C49_8 C 0.5576(2) 0.20051(19) 0.2372(2)
C50_8 C 0.5767(2) 0.2051(2) 0.2149(3)
H17_8 H 0.5718 0.2183 0.1993
C51_8 C 0.6038(2) 0.1906(2) 0.2148(2)
C52_8 C 0.6103(2) 0.1716(2) 0.2379(2)
H18_8 H 0.6286 0.1612 0.2384
C53_8 C 0.6466(2) 0.1825(3) 0.1814(3)
C54_8 C 0.5264(4) 0.2172(3) 0.2363(3)
O27_7 O 0.92935(19) 0.12647(19) 0.13154(19)
O30_10 O 0.9875(2) 0.20707(17) 0.03334(19)
O31_8 O 0.8766(2) 0.1343(2) 0.21285(17)
O32_8 O 0.91731(16) 0.15159(17) 0.19253(16)
O33_6 O 0.99002(17) 0.2130(2) 0.2430(2)
O34_6 O 0.97652(19) 0.2346(2) 0.2860(2)
N13_8 N 0.8789(2) 0.1965(2) 0.3082(2)
N14_8 N 0.84424(17) 0.15950(19) 0.30480(18)
C55_8 C 0.8999(2) 0.1491(2) 0.2145(2)
C56_8 C 0.90975(19) 0.16808(18) 0.2403(2)
C57_8 C 0.9355(2) 0.18198(19) 0.2404(2)
H19_8 H 0.9492 0.1789 0.2247
C58_8 C 0.9424(2) 0.20051(19) 0.2628(2)
C59_8 C 0.9233(2) 0.2051(2) 0.2851(3)
H20_8 H 0.9282 0.2183 0.3007
C60_8 C 0.8962(2) 0.1906(2) 0.2852(2)
C61_8 C 0.8897(2) 0.1716(2) 0.2621(2)
H21_8 H 0.8714 0.1612 0.2616
C62_8 C 0.8534(2) 0.1825(3) 0.3186(3)
C63_8 C 0.9736(4) 0.2172(3) 0.2637(3)
C64_16 C 0.9342(3) 0.1487(3) 0.1148(3)
C65_16 C 0.9654(2) 0.1471(2) 0.1008(2)
C66_16 C 0.9866(2) 0.1266(2) 0.1101(2)
H22_16 H 0.9815 0.1123 0.1247
C70_16 C 0.9729(3) 0.1700(2) 0.0819(3)
H24_16 H 0.9589 0.1852 0.0777
O45_6 O 0.7430(2) 0.00998(17) 0.2870(2)
O46_6 O 0.7860(2) 0.02348(19) 0.2654(2)
N21_8 N 0.8082(2) 0.1211(2) 0.3035(2)
N22_8 N 0.80480(18) 0.15576(17) 0.34050(19)
C91_8 C 0.7145(2) 0.1001(2) 0.3509(2)
C92_8 C 0.7403(2) 0.09025(19) 0.33192(18)
C93_8 C 0.7404(2) 0.0645(2) 0.31802(19)
H31_8 H 0.7247 0.0508 0.3211
C94_8 C 0.7628(2) 0.0576(2) 0.29949(19)
C95_8 C 0.7851(3) 0.0767(2) 0.2949(2)
H32_8 H 0.8007 0.0718 0.2817
C96_8 C 0.7852(2) 0.1038(2) 0.3094(2)
C97_8 C 0.7621(2) 0.1103(2) 0.3284(2)
H33_8 H 0.7616 0.1286 0.3388
C98_8 C 0.8186(3) 0.1466(2) 0.3175(3)
C99_8 C 0.7637(3) 0.0264(4) 0.2828(3)
O47_6 O 0.8657(2) 0.28715(17) 0.3766(2)
O48_6 O 0.84841(17) 0.30747(16) 0.41731(16)
N23_8 N 0.8035(2) 0.1918(2) 0.3789(2)
N24_8 N 0.84050(19) 0.19520(18) 0.34424(17)
C100_8 C 0.8509(2) 0.2855(2) 0.3999(2)
C101_8 C 0.83192(18) 0.2597(2) 0.40975(19)
C102_8 C 0.81802(19) 0.2596(2) 0.4355(2)
H34_8 H 0.8211 0.2753 0.4492
C103_8 C 0.79949(19) 0.2372(2) 0.4424(2)
C104_8 C 0.7949(2) 0.2149(3) 0.4233(2)
H35_8 H 0.7817 0.1993 0.4282
C105_8 C 0.8094(2) 0.2148(2) 0.3962(2)
C106_8 C 0.8284(2) 0.2379(2) 0.3897(2)
H36_8 H 0.8388 0.2384 0.3714
C107_8 C 0.8175(3) 0.1814(3) 0.3534(2)
C108_8 C 0.7828(3) 0.2363(3) 0.4736(4)
O52_6 O 0.57065(19) 0.12647(19) 0.36846(19)
O72_10 O 0.9640(2) 0.0154(2) 0.27348(19)
O77_7 O 0.9846(2) 0.27348(19) 0.0360(2)
H37_8 H 0.679635 0.114652 0.214328
H41_8 H 0.714328 0.179635 0.114652
H42_8 H 0.614652 0.214328 0.179635
H44_8 H 0.885348 0.214328 0.320365
H47_8 H 0.785672 0.179635 0.385348
H48_8 H 0.820365 0.114652 0.285672
O71_7 O 0.9630(2) 0.25998(17) 0.9930(2)
O67_10 O 0.9930(2) 0.9630(2) 0.25998(17)
O3_13 O 0.0353(2) 0.30652(16) 0.4639(2)
N3_13 N 0.03351(18) 0.3961(2) 0.3919(2)
N4_13 N 0.0687(2) 0.39346(17) 0.4307(2)
C13_13 C 0.0152(2) 0.3729(2) 0.4019(2)
C14_13 C 0.0229(3) 0.3513(2) 0.4238(2)
H5_13 H 0.0418 0.3516 0.4331
C15_13 C 0.0015(3) 0.3295(2) 0.4312(3)
C17_13 C 0.0588(3) 0.4068(3) 0.4061(3)
C18_13 C 0.0090(3) 0.3072(2) 0.4557(2)
O10_13 O 0.13154(19) 0.57065(19) 0.37353(19)
O11_13 O 0.10458(19) 0.58362(18) 0.33466(19)
O12_13 O 0.0361(2) 0.4647(2) 0.30652(16)
O13_11 O 0.03334(19) 0.5125(2) 0.29293(17)
N5_13 N 0.1081(2) 0.46649(18) 0.3961(2)
N6_13 N 0.0693(2) 0.4313(2) 0.39346(17)
C19_13 C 0.1148(3) 0.5658(3) 0.3513(3)
C20_13 C 0.1008(2) 0.5346(2) 0.3529(2)
C21_13 C 0.1101(2) 0.5134(2) 0.3734(2)
H7_13 H 0.1247 0.5185 0.3877
C22_13 C 0.0981(2) 0.4848(2) 0.3729(2)
C23_13 C 0.0762(2) 0.4771(3) 0.3513(2)
H8_13 H 0.0669 0.4582 0.3516
C24_13 C 0.0688(3) 0.4985(3) 0.3295(2)
C25_13 C 0.0819(3) 0.5271(3) 0.3300(2)
H9_13 H 0.0777 0.5411 0.3148
C26_13 C 0.0939(3) 0.4412(3) 0.4068(3)
C27_13 C 0.0443(2) 0.4910(3) 0.3072(2)
O14_11 O 0.12647(19) 0.36846(19) 0.57065(19)
O15_13 O 0.16534(19) 0.39542(19) 0.58362(18)
O16_13 O 0.19348(16) 0.4639(2) 0.4647(2)
O17_13 O 0.20707(17) 0.46666(19) 0.5125(2)
N7_13 N 0.1039(2) 0.3919(2) 0.46649(18)
N8_13 N 0.10654(17) 0.4307(2) 0.4313(2)
C28_13 C 0.1487(3) 0.3852(3) 0.5658(3)
C29_13 C 0.1471(2) 0.3992(2) 0.5346(2)
C30_13 C 0.1266(2) 0.3899(2) 0.5134(2)
H10_13 H 0.1123 0.3753 0.5185
C31_13 C 0.1271(2) 0.4019(2) 0.4848(2)
C32_13 C 0.1487(2) 0.4238(2) 0.4771(3)
H11_13 H 0.1484 0.4331 0.4582
C33_13 C 0.1705(2) 0.4312(3) 0.4985(3)
C34_13 C 0.1700(2) 0.4181(3) 0.5271(3)
H12_13 H 0.1852 0.4223 0.5411
C35_13 C 0.0932(3) 0.4061(3) 0.4412(3)
C36_13 C 0.1928(2) 0.4557(2) 0.4910(3)
O63_27 O 0.1234(2) 0.6343(2) 0.28715(17)
O65_27 O 0.08269(16) 0.65159(17) 0.30747(16)
O67_11 O 0.0370(2) 0.24002(17) 0.4930(2)
O69_8 O 0.0070(2) 0.4630(2) 0.24002(17)
O73_11 O 0.0154(2) 0.22652(19) 0.5360(2)
O74_8 O 0.0360(2) 0.5154(2) 0.22652(19)
H38_13 H 0.0277569 0.405989 0.372496
H39_13 H 0.127504 0.472243 0.405989
H40_13 H 0.0940106 0.372496 0.472243
O2_8 O 0.91638(18) 0.33466(19) 0.39542(19)
O4_11 O 0.9875(2) 0.29293(17) 0.46666(19)
C10_13 C 0.9342(3) 0.3513(3) 0.3852(3)
C11_13 C 0.9654(2) 0.3529(2) 0.3992(2)
C12_13 C 0.9866(2) 0.3734(2) 0.3899(2)
H4_13 H 0.9815 0.3877 0.3753
C16_13 C 0.9729(3) 0.3300(2) 0.4181(3)
H6_13 H 0.9589 0.3148 0.4223
O66_11 O 0.9630(2) 0.24002(17) 0.5070(2)
O68_8 O 0.9930(2) 0.5370(2) 0.24002(17)
O72_11 O 0.9846(2) 0.22652(19) 0.4640(2)
O75_8 O 0.9640(2) 0.4846(2) 0.22652(19)
O1_9 O 0.67935(19) 0.88154(19) 0.12353(19)
O3_14 O 0.7853(2) 0.7861(2) 0.05652(16)
O4_12 O 0.7375(2) 0.78334(19) 0.04293(17)
N3_14 N 0.78351(18) 0.8581(2) 0.1461(2)
N4_14 N 0.8187(2) 0.8193(2) 0.14346(17)
C10_14 C 0.6842(3) 0.8648(3) 0.1013(3)
C11_14 C 0.7154(2) 0.8508(2) 0.1029(2)
C12_14 C 0.7366(2) 0.8601(2) 0.1234(2)
H4_14 H 0.7315 0.8747 0.1377
C13_14 C 0.7652(2) 0.8481(2) 0.1229(2)
C14_14 C 0.7729(3) 0.8262(2) 0.1013(2)
H5_14 H 0.7918 0.8169 0.1016
C15_14 C 0.7515(3) 0.8188(3) 0.0795(2)
C16_14 C 0.7229(3) 0.8319(3) 0.0800(2)
H6_14 H 0.7089 0.8277 0.0648
C17_14 C 0.8088(3) 0.8439(3) 0.1568(3)
C18_14 C 0.7590(3) 0.7943(2) 0.0572(2)
O10_14 O 0.88154(19) 0.87647(19) 0.32065(19)
O11_14 O 0.85458(19) 0.91534(19) 0.33362(18)
O12_14 O 0.7861(2) 0.94348(16) 0.2147(2)
O13_12 O 0.78334(19) 0.95707(17) 0.2625(2)
N5_14 N 0.8581(2) 0.8539(2) 0.21649(18)
N6_14 N 0.8193(2) 0.85654(17) 0.1813(2)
C19_14 C 0.8648(3) 0.8987(3) 0.3158(3)
C20_14 C 0.8508(2) 0.8971(2) 0.2846(2)
C21_14 C 0.8601(2) 0.8766(2) 0.2634(2)
H7_14 H 0.8747 0.8623 0.2685
C22_14 C 0.8481(2) 0.8771(2) 0.2348(2)
C23_14 C 0.8262(2) 0.8987(2) 0.2271(3)
H8_14 H 0.8169 0.8984 0.2082
C24_14 C 0.8188(3) 0.9205(2) 0.2485(3)
C25_14 C 0.8319(3) 0.9200(2) 0.2771(3)
H9_14 H 0.8277 0.9352 0.2911
C26_14 C 0.8439(3) 0.8432(3) 0.1912(3)
C27_14 C 0.7943(2) 0.9428(2) 0.2410(3)
O14_12 O 0.87647(19) 0.67935(19) 0.11846(19)
O15_14 O 0.91534(19) 0.66638(18) 0.14542(19)
O16_14 O 0.94348(16) 0.7853(2) 0.2139(2)
O17_14 O 0.95707(17) 0.7375(2) 0.21666(19)
N7_14 N 0.8539(2) 0.78351(18) 0.1419(2)
N8_14 N 0.85654(17) 0.8187(2) 0.1807(2)
C28_14 C 0.8987(3) 0.6842(3) 0.1352(3)
C29_14 C 0.8971(2) 0.7154(2) 0.1492(2)
C30_14 C 0.8766(2) 0.7366(2) 0.1399(2)
H10_14 H 0.8623 0.7315 0.1253
C31_14 C 0.8771(2) 0.7652(2) 0.1519(2)
C32_14 C 0.8987(2) 0.7729(3) 0.1738(2)
H11_14 H 0.8984 0.7918 0.1831
C33_14 C 0.9205(2) 0.7515(3) 0.1812(3)
C34_14 C 0.9200(2) 0.7229(3) 0.1681(3)
H12_14 H 0.9352 0.7089 0.1723
C35_14 C 0.8432(3) 0.8088(3) 0.1561(3)
C36_14 C 0.9428(2) 0.7590(3) 0.2057(2)
O63_28 O 0.8734(2) 0.96285(17) 0.3843(2)
O65_28 O 0.83269(16) 0.94253(16) 0.40159(17)
H38_14 H 0.777757 0.877504 0.155989
H39_14 H 0.877504 0.844011 0.222243
H40_14 H 0.844011 0.777757 0.122496
O63_29 O 0.1234(2) 0.8657(2) 0.21285(17)
O65_29 O 0.08269(16) 0.84841(17) 0.19253(16)
O63_30 O 0.3657(2) 0.28715(17) 0.8766(2)
O65_30 O 0.34841(17) 0.30747(16) 0.91731(16)
O1_10 O 0.32065(19) 0.11846(19) 0.12353(19)
O3_15 O 0.2147(2) 0.2139(2) 0.05652(16)
O4_13 O 0.2625(2) 0.21666(19) 0.04293(17)
N3_15 N 0.21649(18) 0.1419(2) 0.1461(2)
N4_15 N 0.1813(2) 0.1807(2) 0.14346(17)
C10_15 C 0.3158(3) 0.1352(3) 0.1013(3)
C11_15 C 0.2846(2) 0.1492(2) 0.1029(2)
C12_15 C 0.2634(2) 0.1399(2) 0.1234(2)
H4_15 H 0.2685 0.1253 0.1377
C13_15 C 0.2348(2) 0.1519(2) 0.1229(2)
C14_15 C 0.2271(3) 0.1738(2) 0.1013(2)
H5_15 H 0.2082 0.1831 0.1016
C15_15 C 0.2485(3) 0.1812(3) 0.0795(2)
C16_15 C 0.2771(3) 0.1681(3) 0.0800(2)
H6_15 H 0.2911 0.1723 0.0648
C17_15 C 0.1912(3) 0.1561(3) 0.1568(3)
C18_15 C 0.2410(3) 0.2057(2) 0.0572(2)
O10_15 O 0.11846(19) 0.12353(19) 0.32065(19)
O11_15 O 0.14542(19) 0.08466(19) 0.33362(18)
O12_15 O 0.2139(2) 0.05652(16) 0.2147(2)
O13_13 O 0.21666(19) 0.04293(17) 0.2625(2)
N5_15 N 0.1419(2) 0.1461(2) 0.21649(18)
N6_15 N 0.1807(2) 0.14346(17) 0.1813(2)
C19_15 C 0.1352(3) 0.1013(3) 0.3158(3)
C20_15 C 0.1492(2) 0.1029(2) 0.2846(2)
C21_15 C 0.1399(2) 0.1234(2) 0.2634(2)
H7_15 H 0.1253 0.1377 0.2685
C22_15 C 0.1519(2) 0.1229(2) 0.2348(2)
C23_15 C 0.1738(2) 0.1013(2) 0.2271(3)
H8_15 H 0.1831 0.1016 0.2082
C24_15 C 0.1812(3) 0.0795(2) 0.2485(3)
C25_15 C 0.1681(3) 0.0800(2) 0.2771(3)
H9_15 H 0.1723 0.0648 0.2911
C26_15 C 0.1561(3) 0.1568(3) 0.1912(3)
C27_15 C 0.2057(2) 0.0572(2) 0.2410(3)
O14_13 O 0.12353(19) 0.32065(19) 0.11846(19)
O15_15 O 0.08466(19) 0.33362(18) 0.14542(19)
O16_15 O 0.05652(16) 0.2147(2) 0.2139(2)
O17_15 O 0.04293(17) 0.2625(2) 0.21666(19)
N7_15 N 0.1461(2) 0.21649(18) 0.1419(2)
N8_15 N 0.14346(17) 0.1813(2) 0.1807(2)
C28_15 C 0.1013(3) 0.3158(3) 0.1352(3)
C29_15 C 0.1029(2) 0.2846(2) 0.1492(2)
C30_15 C 0.1234(2) 0.2634(2) 0.1399(2)
H10_15 H 0.1377 0.2685 0.1253
C31_15 C 0.1229(2) 0.2348(2) 0.1519(2)
C32_15 C 0.1013(2) 0.2271(3) 0.1738(2)
H11_15 H 0.1016 0.2082 0.1831
C33_15 C 0.0795(2) 0.2485(3) 0.1812(3)
C34_15 C 0.0800(2) 0.2771(3) 0.1681(3)
H12_15 H 0.0648 0.2911 0.1723
C35_15 C 0.1568(3) 0.1912(3) 0.1561(3)
C36_15 C 0.0572(2) 0.2410(3) 0.2057(2)
O63_31 O 0.1266(2) 0.03715(17) 0.3843(2)
O65_31 O 0.16731(16) 0.05747(16) 0.40159(17)
H38_15 H 0.222243 0.122496 0.155989
H39_15 H 0.122496 0.155989 0.222243
H40_15 H 0.155989 0.222243 0.122496
O66_12 O 0.2870(2) 0.2570(2) 0.99002(17)
O67_12 O 0.2130(2) 0.2430(2) 0.99002(17)
O72_12 O 0.2654(2) 0.2140(2) 0.97652(19)
O73_12 O 0.2346(2) 0.2860(2) 0.97652(19)
O68_9 O 0.2570(2) 0.99002(17) 0.2870(2)
O69_9 O 0.2430(2) 0.99002(17) 0.2130(2)
O74_9 O 0.2140(2) 0.97652(19) 0.2654(2)
O75_9 O 0.2860(2) 0.97652(19) 0.2346(2)
O63_32 O 0.1343(2) 0.28715(17) 0.6234(2)
O65_32 O 0.15159(17) 0.30747(16) 0.58269(16)
O63_33 O 0.1157(2) 0.3734(2) 0.03715(17)
O65_33 O 0.09841(17) 0.33269(16) 0.05747(16)
O63_34 O 0.1157(2) 0.6266(2) 0.96285(17)
O65_34 O 0.09841(17) 0.66731(16) 0.94253(16)
O63_35 O 0.8843(2) 0.6266(2) 0.03715(17)
O65_35 O 0.90159(17) 0.66731(16) 0.05747(16)
O63_36 O 0.8843(2) 0.3734(2) 0.96285(17)
O65_36 O 0.90159(17) 0.33269(16) 0.94253(16)
O56_7 O 0.58362(18) 0.16534(19) 0.39542(19)
O29_17 O 0.4647(2) 0.19348(16) 0.4639(2)
O30_11 O 0.5125(2) 0.20707(17) 0.46666(19)
N15_17 N 0.46649(18) 0.1039(2) 0.3919(2)
N16_17 N 0.4313(2) 0.10654(17) 0.4307(2)
C64_17 C 0.5658(3) 0.1487(3) 0.3852(3)
C65_17 C 0.5346(2) 0.1471(2) 0.3992(2)
C66_17 C 0.5134(2) 0.1266(2) 0.3899(2)
H22_17 H 0.5185 0.1123 0.3753
C67_17 C 0.4848(2) 0.1271(2) 0.4019(2)
C68_17 C 0.4771(3) 0.1487(2) 0.4238(2)
H23_17 H 0.4582 0.1484 0.4331
C69_17 C 0.4985(3) 0.1705(2) 0.4312(3)
C70_17 C 0.5271(3) 0.1700(2) 0.4181(3)
H24_17 H 0.5411 0.1852 0.4223
C71_17 C 0.4412(3) 0.0932(3) 0.4061(3)
C72_17 C 0.4910(3) 0.1928(2) 0.4557(2)
O37_17 O 0.4639(2) 0.0353(2) 0.30652(16)
N17_17 N 0.3919(2) 0.03351(18) 0.3961(2)
N18_17 N 0.4307(2) 0.0687(2) 0.39346(17)
C76_17 C 0.4019(2) 0.0152(2) 0.3729(2)
C77_17 C 0.4238(2) 0.0229(3) 0.3513(2)
H26_17 H 0.4331 0.0418 0.3516
C78_17 C 0.4312(3) 0.0015(3) 0.3295(2)
C80_17 C 0.4061(3) 0.0588(3) 0.4068(3)
C81_17 C 0.4557(2) 0.0090(3) 0.3072(2)
O39_11 O 0.37353(19) 0.13154(19) 0.57065(19)
O40_17 O 0.33466(19) 0.10458(19) 0.58362(18)
O41_17 O 0.30652(16) 0.0361(2) 0.4647(2)
O42_17 O 0.29293(17) 0.03334(19) 0.5125(2)
N19_17 N 0.3961(2) 0.1081(2) 0.46649(18)
N20_17 N 0.39346(17) 0.0693(2) 0.4313(2)
C82_17 C 0.3513(3) 0.1148(3) 0.5658(3)
C83_17 C 0.3529(2) 0.1008(2) 0.5346(2)
C84_17 C 0.3734(2) 0.1101(2) 0.5134(2)
H28_17 H 0.3877 0.1247 0.5185
C85_17 C 0.3729(2) 0.0981(2) 0.4848(2)
C86_17 C 0.3513(2) 0.0762(2) 0.4771(3)
H29_17 H 0.3516 0.0669 0.4582
C87_17 C 0.3295(2) 0.0688(3) 0.4985(3)
C88_17 C 0.3300(2) 0.0819(3) 0.5271(3)
H30_17 H 0.3148 0.0777 0.5411
C89_17 C 0.4068(3) 0.0939(3) 0.4412(3)
C90_17 C 0.3072(2) 0.0443(2) 0.4910(3)
H43_17 H 0.472243 0.0940106 0.372496
H45_17 H 0.405989 0.127504 0.472243
H46_17 H 0.372496 0.0277569 0.405989
O35_17 O 0.36846(19) 0.92935(19) 0.37353(19)
O36_17 O 0.39542(19) 0.91638(18) 0.33466(19)
O38_11 O 0.46666(19) 0.9875(2) 0.29293(17)
C73_17 C 0.3852(3) 0.9342(3) 0.3513(3)
C74_17 C 0.3992(2) 0.9654(2) 0.3529(2)
C75_17 C 0.3899(2) 0.9866(2) 0.3734(2)
H25_17 H 0.3753 0.9815 0.3877
C79_17 C 0.4181(3) 0.9729(3) 0.3300(2)
H27_17 H 0.4223 0.9589 0.3148
O63_37 O 0.3766(2) 0.8657(2) 0.28715(17)
O65_37 O 0.41731(16) 0.84841(17) 0.30747(16)
O63_38 O 0.3766(2) 0.6343(2) 0.21285(17)
O65_38 O 0.41731(16) 0.65159(17) 0.19253(16)
O63_39 O 0.3657(2) 0.21285(17) 0.6234(2)
O65_39 O 0.34841(17) 0.19253(16) 0.58269(16)
O63_40 O 0.1343(2) 0.21285(17) 0.8766(2)
O65_40 O 0.15159(17) 0.19253(16) 0.91731(16)
C46_9 C 0.1009(2) 0.3501(2) 0.0355(2)
C47_9 C 0.08192(18) 0.34025(19) 0.0097(2)
C48_9 C 0.06802(19) 0.3145(2) 0.0096(2)
H16_9 H 0.0711 0.3008 0.0253
N13_9 N 0.0535(2) 0.6289(2) 0.0582(2)
N14_9 N 0.09050(19) 0.59424(17) 0.05480(18)
C58_9 C 0.04949(19) 0.6924(2) 0.0128(2)
C59_9 C 0.0449(2) 0.6733(2) 0.0351(3)
H20_9 H 0.0317 0.6782 0.0507
C60_9 C 0.0594(2) 0.6462(2) 0.0352(2)
C61_9 C 0.0784(2) 0.6397(2) 0.0121(2)
H21_9 H 0.0888 0.6214 0.0116
C62_9 C 0.0675(3) 0.6034(2) 0.0686(3)
C63_9 C 0.0328(3) 0.7236(4) 0.0137(3)
O45_7 O 0.24002(17) 0.4930(2) 0.0370(2)
O46_7 O 0.22652(19) 0.5360(2) 0.0154(2)
N21_9 N 0.1289(2) 0.5582(2) 0.0535(2)
N22_9 N 0.09424(17) 0.55480(18) 0.09050(19)
C91_9 C 0.1499(2) 0.4645(2) 0.1009(2)
C92_9 C 0.15975(19) 0.4903(2) 0.08192(18)
C93_9 C 0.1855(2) 0.4904(2) 0.06802(19)
H31_9 H 0.1992 0.4747 0.0711
C94_9 C 0.1924(2) 0.5128(2) 0.04949(19)
C95_9 C 0.1733(2) 0.5351(3) 0.0449(2)
H32_9 H 0.1782 0.5507 0.0317
C96_9 C 0.1462(2) 0.5352(2) 0.0594(2)
C97_9 C 0.1397(2) 0.5121(2) 0.0784(2)
H33_9 H 0.1214 0.5116 0.0888
C98_9 C 0.1034(2) 0.5686(3) 0.0675(3)
C99_9 C 0.2236(4) 0.5137(3) 0.0328(3)
N23_9 N 0.0582(2) 0.5535(2) 0.1289(2)
N24_9 N 0.05480(18) 0.59050(19) 0.09424(17)
C103_9 C 0.0128(2) 0.54949(19) 0.1924(2)
C104_9 C 0.0351(3) 0.5449(2) 0.1733(2)
H35_9 H 0.0507 0.5317 0.1782
C105_9 C 0.0352(2) 0.5594(2) 0.1462(2)
C106_9 C 0.0121(2) 0.5784(2) 0.1397(2)
H36_9 H 0.0116 0.5888 0.1214
C107_9 C 0.0686(3) 0.5675(3) 0.1034(2)
C108_9 C 0.0137(3) 0.5328(3) 0.2236(4)
H44_9 H 0.0356719 0.635348 0.0703647
H47_9 H 0.0703647 0.535672 0.135348
H48_9 H 0.135348 0.570365 0.0356719
O8_7 O 0.24002(17) 0.5070(2) 0.9630(2)
O9_7 O 0.22652(19) 0.4640(2) 0.9846(2)
N1_9 N 0.1289(2) 0.4418(2) 0.9465(2)
N2_9 N 0.09424(17) 0.44520(18) 0.90950(19)
C1_9 C 0.1499(2) 0.5355(2) 0.8991(2)
C2_9 C 0.15975(19) 0.5097(2) 0.91808(18)
C3_9 C 0.1855(2) 0.5096(2) 0.93198(19)
H1_9 H 0.1992 0.5253 0.9289
C4_9 C 0.1924(2) 0.4872(2) 0.95051(19)
C5_9 C 0.1733(2) 0.4649(3) 0.9551(2)
H2_9 H 0.1782 0.4493 0.9683
C6_9 C 0.1462(2) 0.4648(2) 0.9406(2)
C7_9 C 0.1397(2) 0.4879(2) 0.9216(2)
H3_9 H 0.1214 0.4884 0.9112
C8_9 C 0.1034(2) 0.4314(3) 0.9325(3)
C9_9 C 0.2236(4) 0.4863(3) 0.9672(3)
N9_9 N 0.0582(2) 0.4465(2) 0.8711(2)
N10_9 N 0.05480(18) 0.40950(19) 0.90576(17)
C40_9 C 0.0128(2) 0.45051(19) 0.8076(2)
C41_9 C 0.0351(3) 0.4551(2) 0.8267(2)
H14_9 H 0.0507 0.4683 0.8218
C42_9 C 0.0352(2) 0.4406(2) 0.8538(2)
C43_9 C 0.0121(2) 0.4216(2) 0.8603(2)
H15_9 H 0.0116 0.4112 0.8786
C44_9 C 0.0686(3) 0.4325(3) 0.8966(2)
C45_9 C 0.0137(3) 0.4672(3) 0.7764(4)
N11_9 N 0.0535(2) 0.3711(2) 0.9418(2)
N12_9 N 0.09050(19) 0.40576(17) 0.94520(18)
C49_9 C 0.04949(19) 0.3076(2) 0.9872(2)
C50_9 C 0.0449(2) 0.3267(2) 0.9649(3)
H17_9 H 0.0317 0.3218 0.9493
C51_9 C 0.0594(2) 0.3538(2) 0.9648(2)
C52_9 C 0.0784(2) 0.3603(2) 0.9879(2)
H18_9 H 0.0888 0.3786 0.9884
C53_9 C 0.0675(3) 0.3966(2) 0.9314(3)
C54_9 C 0.0328(3) 0.2764(4) 0.9863(3)
C55_9 C 0.1009(2) 0.6499(2) 0.9645(2)
C56_9 C 0.08192(18) 0.65975(19) 0.9903(2)
C57_9 C 0.06802(19) 0.6855(2) 0.9904(2)
H19_9 H 0.0711 0.6992 0.9747
O62_4 O 0.03715(17) 0.6157(2) 0.8734(2)
O64_4 O 0.05747(16) 0.59841(17) 0.83269(16)
H37_9 H 0.135348 0.429635 0.964328
H41_9 H 0.0703647 0.464328 0.864652
H42_9 H 0.0356719 0.364652 0.929635
O47_7 O 0.96285(17) 0.6157(2) 0.1266(2)
O48_7 O 0.94253(16) 0.59841(17) 0.16731(16)
C100_9 C 0.9645(2) 0.6009(2) 0.1499(2)
C101_9 C 0.9903(2) 0.58192(18) 0.15975(19)
C102_9 C 0.9904(2) 0.56802(19) 0.1855(2)
H34_9 H 0.9747 0.5711 0.1992
O18_4 O 0.96285(17) 0.3843(2) 0.8734(2)
O19_4 O 0.94253(16) 0.40159(17) 0.83269(16)
C37_9 C 0.9645(2) 0.3991(2) 0.8501(2)
C38_9 C 0.9903(2) 0.41808(18) 0.84025(19)
C39_9 C 0.9904(2) 0.43198(19) 0.8145(2)
H13_9 H 0.9747 0.4289 0.8008
O63_41 O 0.21285(17) 0.1234(2) 0.8657(2)
O65_41 O 0.19253(16) 0.08269(16) 0.84841(17)
O6_7 O 0.21285(17) 0.8766(2) 0.1343(2)
O7_7 O 0.19253(16) 0.91731(16) 0.15159(17)
N1_10 N 0.3082(2) 0.8789(2) 0.1965(2)
N2_10 N 0.30480(18) 0.84424(17) 0.15950(19)
C1_10 C 0.2145(2) 0.8999(2) 0.1491(2)
C2_10 C 0.2403(2) 0.90975(19) 0.16808(18)
C3_10 C 0.2404(2) 0.9355(2) 0.18198(19)
H1_10 H 0.2247 0.9492 0.1789
C4_10 C 0.2628(2) 0.9424(2) 0.20051(19)
C5_10 C 0.2851(3) 0.9233(2) 0.2051(2)
H2_10 H 0.3007 0.9282 0.2183
C6_10 C 0.2852(2) 0.8962(2) 0.1906(2)
C7_10 C 0.2621(2) 0.8897(2) 0.1716(2)
H3_10 H 0.2616 0.8714 0.1612
C8_10 C 0.3186(3) 0.8534(2) 0.1825(3)
C9_10 C 0.2637(3) 0.9736(4) 0.2172(3)
N9_10 N 0.3035(2) 0.8082(2) 0.1211(2)
N10_10 N 0.34050(19) 0.80480(18) 0.15576(17)
C37_10 C 0.3509(2) 0.7145(2) 0.1001(2)
C38_10 C 0.33192(18) 0.7403(2) 0.09025(19)
C39_10 C 0.31802(19) 0.7404(2) 0.0645(2)
H13_10 H 0.3211 0.7247 0.0508
C40_10 C 0.29949(19) 0.7628(2) 0.0576(2)
C41_10 C 0.2949(2) 0.7851(3) 0.0767(2)
H14_10 H 0.2817 0.8007 0.0718
C42_10 C 0.3094(2) 0.7852(2) 0.1038(2)
C43_10 C 0.3284(2) 0.7621(2) 0.1103(2)
H15_10 H 0.3388 0.7616 0.1286
C44_10 C 0.3175(3) 0.8186(3) 0.1466(2)
C45_10 C 0.2828(3) 0.7637(3) 0.0264(4)
N11_10 N 0.3789(2) 0.8035(2) 0.1918(2)
N12_10 N 0.34424(17) 0.84050(19) 0.19520(18)
C46_10 C 0.3999(2) 0.8509(2) 0.2855(2)
C47_10 C 0.40975(19) 0.83192(18) 0.2597(2)
C48_10 C 0.4355(2) 0.81802(19) 0.2596(2)
H16_10 H 0.4492 0.8211 0.2753
C49_10 C 0.4424(2) 0.79949(19) 0.2372(2)
C50_10 C 0.4233(2) 0.7949(2) 0.2149(3)
H17_10 H 0.4282 0.7817 0.1993
C51_10 C 0.3962(2) 0.8094(2) 0.2148(2)
C52_10 C 0.3897(2) 0.8284(2) 0.2379(2)
H18_10 H 0.3714 0.8388 0.2384
C53_10 C 0.3534(2) 0.8175(3) 0.1814(3)
C54_10 C 0.4736(4) 0.7828(3) 0.2363(3)
O33_7 O 0.00998(17) 0.7870(2) 0.2430(2)
O34_7 O 0.02348(19) 0.7654(2) 0.2860(2)
N13_10 N 0.1211(2) 0.8035(2) 0.3082(2)
N14_10 N 0.15576(17) 0.84050(19) 0.30480(18)
C55_10 C 0.1001(2) 0.8509(2) 0.2145(2)
C56_10 C 0.09025(19) 0.83192(18) 0.2403(2)
C57_10 C 0.0645(2) 0.81802(19) 0.2404(2)
H19_10 H 0.0508 0.8211 0.2247
C58_10 C 0.0576(2) 0.79949(19) 0.2628(2)
C59_10 C 0.0767(2) 0.7949(2) 0.2851(3)
H20_10 H 0.0718 0.7817 0.3007
C60_10 C 0.1038(2) 0.8094(2) 0.2852(2)
C61_10 C 0.1103(2) 0.8284(2) 0.2621(2)
H21_10 H 0.1286 0.8388 0.2616
C62_10 C 0.1466(2) 0.8175(3) 0.3186(3)
C63_10 C 0.0264(4) 0.7828(3) 0.2637(3)
O43_7 O 0.28715(17) 0.8766(2) 0.3657(2)
O44_7 O 0.30747(16) 0.91731(16) 0.34841(17)
N21_10 N 0.1918(2) 0.8789(2) 0.3035(2)
N22_10 N 0.19520(18) 0.84424(17) 0.34050(19)
C91_10 C 0.2855(2) 0.8999(2) 0.3509(2)
C92_10 C 0.2597(2) 0.90975(19) 0.33192(18)
C93_10 C 0.2596(2) 0.9355(2) 0.31802(19)
H31_10 H 0.2753 0.9492 0.3211
C94_10 C 0.2372(2) 0.9424(2) 0.29949(19)
C95_10 C 0.2149(3) 0.9233(2) 0.2949(2)
H32_10 H 0.1993 0.9282 0.2817
C96_10 C 0.2148(2) 0.8962(2) 0.3094(2)
C97_10 C 0.2379(2) 0.8897(2) 0.3284(2)
H33_10 H 0.2384 0.8714 0.3388
C98_10 C 0.1814(3) 0.8534(2) 0.3175(3)
C99_10 C 0.2363(3) 0.9736(4) 0.2828(3)
N23_10 N 0.1965(2) 0.8082(2) 0.3789(2)
N24_10 N 0.15950(19) 0.80480(18) 0.34424(17)
C100_10 C 0.1491(2) 0.7145(2) 0.3999(2)
C101_10 C 0.16808(18) 0.7403(2) 0.40975(19)
C102_10 C 0.18198(19) 0.7404(2) 0.4355(2)
H34_10 H 0.1789 0.7247 0.4492
C103_10 C 0.20051(19) 0.7628(2) 0.4424(2)
C104_10 C 0.2051(2) 0.7851(3) 0.4233(2)
H35_10 H 0.2183 0.8007 0.4282
C105_10 C 0.1906(2) 0.7852(2) 0.3962(2)
C106_10 C 0.1716(2) 0.7621(2) 0.3897(2)
H36_10 H 0.1612 0.7616 0.3714
C107_10 C 0.1825(3) 0.8186(3) 0.3534(2)
C108_10 C 0.2172(3) 0.7637(3) 0.4736(4)
H37_10 H 0.320365 0.885348 0.214328
H41_10 H 0.285672 0.820365 0.114652
H42_10 H 0.385348 0.785672 0.179635
H44_10 H 0.114652 0.785672 0.320365
H47_10 H 0.214328 0.820365 0.385348
H48_10 H 0.179635 0.885348 0.285672
O47_8 O 0.03715(17) 0.3843(2) 0.1266(2)
O48_8 O 0.05747(16) 0.40159(17) 0.16731(16)
C100_11 C 0.0355(2) 0.3991(2) 0.1499(2)
C101_11 C 0.0097(2) 0.41808(18) 0.15975(19)
C102_11 C 0.0096(2) 0.43198(19) 0.1855(2)
H34_11 H 0.0253 0.4289 0.1992
C37_11 C 0.0355(2) 0.6009(2) 0.8501(2)
C38_11 C 0.0097(2) 0.58192(18) 0.84025(19)
C39_11 C 0.0096(2) 0.56802(19) 0.8145(2)
H13_11 H 0.0253 0.5711 0.8008
O70_10 O 0.00998(17) 0.2130(2) 0.7570(2)
O71_8 O 0.00998(17) 0.2870(2) 0.7430(2)
O76_10 O 0.02348(19) 0.2346(2) 0.7140(2)
O77_8 O 0.02348(19) 0.2654(2) 0.7860(2)
C46_11 C 0.8991(2) 0.6499(2) 0.0355(2)
C47_11 C 0.91808(18) 0.65975(19) 0.0097(2)
C48_11 C 0.93198(19) 0.6855(2) 0.0096(2)
H16_11 H 0.9289 0.6992 0.0253
N13_11 N 0.9465(2) 0.3711(2) 0.0582(2)
N14_11 N 0.90950(19) 0.40576(17) 0.05480(18)
C58_11 C 0.95051(19) 0.3076(2) 0.0128(2)
C59_11 C 0.9551(2) 0.3267(2) 0.0351(3)
H20_11 H 0.9683 0.3218 0.0507
C60_11 C 0.9406(2) 0.3538(2) 0.0352(2)
C61_11 C 0.9216(2) 0.3603(2) 0.0121(2)
H21_11 H 0.9112 0.3786 0.0116
C62_11 C 0.9325(3) 0.3966(2) 0.0686(3)
C63_11 C 0.9672(3) 0.2764(4) 0.0137(3)
N21_11 N 0.8711(2) 0.4418(2) 0.0535(2)
N22_11 N 0.90576(17) 0.44520(18) 0.09050(19)
C91_11 C 0.8501(2) 0.5355(2) 0.1009(2)
C92_11 C 0.84025(19) 0.5097(2) 0.08192(18)
C93_11 C 0.8145(2) 0.5096(2) 0.06802(19)
H31_11 H 0.8008 0.5253 0.0711
C94_11 C 0.8076(2) 0.4872(2) 0.04949(19)
C95_11 C 0.8267(2) 0.4649(3) 0.0449(2)
H32_11 H 0.8218 0.4493 0.0317
C96_11 C 0.8538(2) 0.4648(2) 0.0594(2)
C97_11 C 0.8603(2) 0.4879(2) 0.0784(2)
H33_11 H 0.8786 0.4884 0.0888
C98_11 C 0.8966(2) 0.4314(3) 0.0675(3)
C99_11 C 0.7764(4) 0.4863(3) 0.0328(3)
N23_11 N 0.9418(2) 0.4465(2) 0.1289(2)
N24_11 N 0.94520(18) 0.40950(19) 0.09424(17)
C103_11 C 0.9872(2) 0.45051(19) 0.1924(2)
C104_11 C 0.9649(3) 0.4551(2) 0.1733(2)
H35_11 H 0.9493 0.4683 0.1782
C105_11 C 0.9648(2) 0.4406(2) 0.1462(2)
C106_11 C 0.9879(2) 0.4216(2) 0.1397(2)
H36_11 H 0.9884 0.4112 0.1214
C107_11 C 0.9314(3) 0.4325(3) 0.1034(2)
C108_11 C 0.9863(3) 0.4672(3) 0.2236(4)
H44_11 H 0.964328 0.364652 0.0703647
H47_11 H 0.929635 0.464328 0.135348
H48_11 H 0.864652 0.429635 0.0356719
N1_11 N 0.8711(2) 0.5582(2) 0.9465(2)
N2_11 N 0.90576(17) 0.55480(18) 0.90950(19)
C1_11 C 0.8501(2) 0.4645(2) 0.8991(2)
C2_11 C 0.84025(19) 0.4903(2) 0.91808(18)
C3_11 C 0.8145(2) 0.4904(2) 0.93198(19)
H1_11 H 0.8008 0.4747 0.9289
C4_11 C 0.8076(2) 0.5128(2) 0.95051(19)
C5_11 C 0.8267(2) 0.5351(3) 0.9551(2)
H2_11 H 0.8218 0.5507 0.9683
C6_11 C 0.8538(2) 0.5352(2) 0.9406(2)
C7_11 C 0.8603(2) 0.5121(2) 0.9216(2)
H3_11 H 0.8786 0.5116 0.9112
C8_11 C 0.8966(2) 0.5686(3) 0.9325(3)
C9_11 C 0.7764(4) 0.5137(3) 0.9672(3)
N9_11 N 0.9418(2) 0.5535(2) 0.8711(2)
N10_11 N 0.94520(18) 0.59050(19) 0.90576(17)
C40_11 C 0.9872(2) 0.54949(19) 0.8076(2)
C41_11 C 0.9649(3) 0.5449(2) 0.8267(2)
H14_11 H 0.9493 0.5317 0.8218
C42_11 C 0.9648(2) 0.5594(2) 0.8538(2)
C43_11 C 0.9879(2) 0.5784(2) 0.8603(2)
H15_11 H 0.9884 0.5888 0.8786
C44_11 C 0.9314(3) 0.5675(3) 0.8966(2)
C45_11 C 0.9863(3) 0.5328(3) 0.7764(4)
N11_11 N 0.9465(2) 0.6289(2) 0.9418(2)
N12_11 N 0.90950(19) 0.59424(17) 0.94520(18)
C49_11 C 0.95051(19) 0.6924(2) 0.9872(2)
C50_11 C 0.9551(2) 0.6733(2) 0.9649(3)
H17_11 H 0.9683 0.6782 0.9493
C51_11 C 0.9406(2) 0.6462(2) 0.9648(2)
C52_11 C 0.9216(2) 0.6397(2) 0.9879(2)
H18_11 H 0.9112 0.6214 0.9884
C53_11 C 0.9325(3) 0.6034(2) 0.9314(3)
C54_11 C 0.9672(3) 0.7236(4) 0.9863(3)
C55_11 C 0.8991(2) 0.3501(2) 0.9645(2)
C56_11 C 0.91808(18) 0.34025(19) 0.9903(2)
C57_11 C 0.93198(19) 0.3145(2) 0.9904(2)
H19_11 H 0.9289 0.3008 0.9747
H37_11 H 0.864652 0.570365 0.964328
H41_11 H 0.929635 0.535672 0.864652
H42_11 H 0.964328 0.635348 0.929635
O6_8 O 0.28715(17) 0.6234(2) 0.1343(2)
O7_8 O 0.30747(16) 0.58269(16) 0.15159(17)
N1_12 N 0.1918(2) 0.6211(2) 0.1965(2)
N2_12 N 0.19520(18) 0.65576(17) 0.15950(19)
C1_12 C 0.2855(2) 0.6001(2) 0.1491(2)
C2_12 C 0.2597(2) 0.59025(19) 0.16808(18)
C3_12 C 0.2596(2) 0.5645(2) 0.18198(19)
H1_12 H 0.2753 0.5508 0.1789
C4_12 C 0.2372(2) 0.5576(2) 0.20051(19)
C5_12 C 0.2149(3) 0.5767(2) 0.2051(2)
H2_12 H 0.1993 0.5718 0.2183
C6_12 C 0.2148(2) 0.6038(2) 0.1906(2)
C7_12 C 0.2379(2) 0.6103(2) 0.1716(2)
H3_12 H 0.2384 0.6286 0.1612
C8_12 C 0.1814(3) 0.6466(2) 0.1825(3)
C9_12 C 0.2363(3) 0.5264(4) 0.2172(3)
N9_12 N 0.1965(2) 0.6918(2) 0.1211(2)
N10_12 N 0.15950(19) 0.69520(18) 0.15576(17)
C37_12 C 0.1491(2) 0.7855(2) 0.1001(2)
C38_12 C 0.16808(18) 0.7597(2) 0.09025(19)
C39_12 C 0.18198(19) 0.7596(2) 0.0645(2)
H13_12 H 0.1789 0.7753 0.0508
C40_12 C 0.20051(19) 0.7372(2) 0.0576(2)
C41_12 C 0.2051(2) 0.7149(3) 0.0767(2)
H14_12 H 0.2183 0.6993 0.0718
C42_12 C 0.1906(2) 0.7148(2) 0.1038(2)
C43_12 C 0.1716(2) 0.7379(2) 0.1103(2)
H15_12 H 0.1612 0.7384 0.1286
C44_12 C 0.1825(3) 0.6814(3) 0.1466(2)
C45_12 C 0.2172(3) 0.7363(3) 0.0264(4)
O24_5 O 0.00998(17) 0.7130(2) 0.2570(2)
O25_5 O 0.02348(19) 0.7346(2) 0.2140(2)
N11_12 N 0.1211(2) 0.6965(2) 0.1918(2)
N12_12 N 0.15576(17) 0.65950(19) 0.19520(18)
C46_12 C 0.1001(2) 0.6491(2) 0.2855(2)
C47_12 C 0.09025(19) 0.66808(18) 0.2597(2)
C48_12 C 0.0645(2) 0.68198(19) 0.2596(2)
H16_12 H 0.0508 0.6789 0.2753
C49_12 C 0.0576(2) 0.70051(19) 0.2372(2)
C50_12 C 0.0767(2) 0.7051(2) 0.2149(3)
H17_12 H 0.0718 0.7183 0.1993
C51_12 C 0.1038(2) 0.6906(2) 0.2148(2)
C52_12 C 0.1103(2) 0.6716(2) 0.2379(2)
H18_12 H 0.1286 0.6612 0.2384
C53_12 C 0.1466(2) 0.6825(3) 0.1814(3)
C54_12 C 0.0264(4) 0.7172(3) 0.2363(3)
N13_12 N 0.3789(2) 0.6965(2) 0.3082(2)
N14_12 N 0.34424(17) 0.65950(19) 0.30480(18)
C55_12 C 0.3999(2) 0.6491(2) 0.2145(2)
C56_12 C 0.40975(19) 0.66808(18) 0.2403(2)
C57_12 C 0.4355(2) 0.68198(19) 0.2404(2)
H19_12 H 0.4492 0.6789 0.2247
C58_12 C 0.4424(2) 0.70051(19) 0.2628(2)
C59_12 C 0.4233(2) 0.7051(2) 0.2851(3)
H20_12 H 0.4282 0.7183 0.3007
C60_12 C 0.3962(2) 0.6906(2) 0.2852(2)
C61_12 C 0.3897(2) 0.6716(2) 0.2621(2)
H21_12 H 0.3714 0.6612 0.2616
C62_12 C 0.3534(2) 0.6825(3) 0.3186(3)
C63_12 C 0.4736(4) 0.7172(3) 0.2637(3)
O43_8 O 0.21285(17) 0.6234(2) 0.3657(2)
O44_8 O 0.19253(16) 0.58269(16) 0.34841(17)
N21_12 N 0.3082(2) 0.6211(2) 0.3035(2)
N22_12 N 0.30480(18) 0.65576(17) 0.34050(19)
C91_12 C 0.2145(2) 0.6001(2) 0.3509(2)
C92_12 C 0.2403(2) 0.59025(19) 0.33192(18)
C93_12 C 0.2404(2) 0.5645(2) 0.31802(19)
H31_12 H 0.2247 0.5508 0.3211
C94_12 C 0.2628(2) 0.5576(2) 0.29949(19)
C95_12 C 0.2851(3) 0.5767(2) 0.2949(2)
H32_12 H 0.3007 0.5718 0.2817
C96_12 C 0.2852(2) 0.6038(2) 0.3094(2)
C97_12 C 0.2621(2) 0.6103(2) 0.3284(2)
H33_12 H 0.2616 0.6286 0.3388
C98_12 C 0.3186(3) 0.6466(2) 0.3175(3)
C99_12 C 0.2637(3) 0.5264(4) 0.2828(3)
N23_12 N 0.3035(2) 0.6918(2) 0.3789(2)
N24_12 N 0.34050(19) 0.69520(18) 0.34424(17)
C100_12 C 0.3509(2) 0.7855(2) 0.3999(2)
C101_12 C 0.33192(18) 0.7597(2) 0.40975(19)
C102_12 C 0.31802(19) 0.7596(2) 0.4355(2)
H34_12 H 0.3211 0.7753 0.4492
C103_12 C 0.29949(19) 0.7372(2) 0.4424(2)
C104_12 C 0.2949(2) 0.7149(3) 0.4233(2)
H35_12 H 0.2817 0.6993 0.4282
C105_12 C 0.3094(2) 0.7148(2) 0.3962(2)
C106_12 C 0.3284(2) 0.7379(2) 0.3897(2)
H36_12 H 0.3388 0.7384 0.3714
C107_12 C 0.3175(3) 0.6814(3) 0.3534(2)
C108_12 C 0.2828(3) 0.7363(3) 0.4736(4)
H37_12 H 0.179635 0.614652 0.214328
H41_12 H 0.214328 0.679635 0.114652
H42_12 H 0.114652 0.714328 0.179635
H44_12 H 0.385348 0.714328 0.320365
H47_12 H 0.285672 0.679635 0.385348
H48_12 H 0.320365 0.614652 0.285672
O63_42 O 0.28715(17) 0.3766(2) 0.8657(2)
O65_42 O 0.30747(16) 0.41731(16) 0.84841(17)
O71_9 O 0.24002(17) 0.0070(2) 0.4630(2)
O76_11 O 0.22652(19) 0.0360(2) 0.5154(2)
O70_11 O 0.24002(17) 0.9930(2) 0.5370(2)
O77_9 O 0.22652(19) 0.9640(2) 0.4846(2)
O63_43 O 0.03715(17) 0.1157(2) 0.3734(2)
O65_43 O 0.05747(16) 0.09841(17) 0.33269(16)
O63_44 O 0.96285(17) 0.8843(2) 0.3734(2)
O65_44 O 0.94253(16) 0.90159(17) 0.33269(16)
O63_45 O 0.96285(17) 0.1157(2) 0.6266(2)
O65_45 O 0.94253(16) 0.09841(17) 0.66731(16)
O63_46 O 0.03715(17) 0.8843(2) 0.6266(2)
O65_46 O 0.05747(16) 0.90159(17) 0.66731(16)
O63_47 O 0.28715(17) 0.1234(2) 0.6343(2)
O65_47 O 0.30747(16) 0.08269(16) 0.65159(17)
O63_48 O 0.21285(17) 0.3766(2) 0.6343(2)
O65_48 O 0.19253(16) 0.41731(16) 0.65159(17)
C1_13 C 0.1499(2) 0.0355(2) 0.3991(2)
C2_13 C 0.15975(19) 0.0097(2) 0.41808(18)
C3_13 C 0.1855(2) 0.0096(2) 0.43198(19)
H1_13 H 0.1992 0.0253 0.4289
N13_13 N 0.0535(2) 0.1289(2) 0.5582(2)
N14_13 N 0.09050(19) 0.09424(17) 0.55480(18)
C55_13 C 0.1009(2) 0.1499(2) 0.4645(2)
C56_13 C 0.08192(18) 0.15975(19) 0.4903(2)
C57_13 C 0.06802(19) 0.1855(2) 0.4904(2)
H19_13 H 0.0711 0.1992 0.4747
C58_13 C 0.04949(19) 0.1924(2) 0.5128(2)
C59_13 C 0.0449(2) 0.1733(2) 0.5351(3)
H20_13 H 0.0317 0.1782 0.5507
C60_13 C 0.0594(2) 0.1462(2) 0.5352(2)
C61_13 C 0.0784(2) 0.1397(2) 0.5121(2)
H21_13 H 0.0888 0.1214 0.5116
C62_13 C 0.0675(3) 0.1034(2) 0.5686(3)
C63_13 C 0.0328(3) 0.2236(4) 0.5137(3)
N21_13 N 0.1289(2) 0.0582(2) 0.5535(2)
N22_13 N 0.09424(17) 0.05480(18) 0.59050(19)
C94_13 C 0.1924(2) 0.0128(2) 0.54949(19)
C95_13 C 0.1733(2) 0.0351(3) 0.5449(2)
H32_13 H 0.1782 0.0507 0.5317
C96_13 C 0.1462(2) 0.0352(2) 0.5594(2)
C97_13 C 0.1397(2) 0.0121(2) 0.5784(2)
H33_13 H 0.1214 0.0116 0.5888
C98_13 C 0.1034(2) 0.0686(3) 0.5675(3)
C99_13 C 0.2236(4) 0.0137(3) 0.5328(3)
N23_13 N 0.0582(2) 0.0535(2) 0.6289(2)
N24_13 N 0.05480(18) 0.09050(19) 0.59424(17)
C103_13 C 0.0128(2) 0.04949(19) 0.6924(2)
C104_13 C 0.0351(3) 0.0449(2) 0.6733(2)
H35_13 H 0.0507 0.0317 0.6782
C105_13 C 0.0352(2) 0.0594(2) 0.6462(2)
C106_13 C 0.0121(2) 0.0784(2) 0.6397(2)
H36_13 H 0.0116 0.0888 0.6214
C107_13 C 0.0686(3) 0.0675(3) 0.6034(2)
C108_13 C 0.0137(3) 0.0328(3) 0.7236(4)
H44_13 H 0.0356719 0.135348 0.570365
H47_13 H 0.0703647 0.0356719 0.635348
H48_13 H 0.135348 0.0703647 0.535672
N1_13 N 0.1289(2) 0.9418(2) 0.4465(2)
N2_13 N 0.09424(17) 0.94520(18) 0.40950(19)
C4_13 C 0.1924(2) 0.9872(2) 0.45051(19)
C5_13 C 0.1733(2) 0.9649(3) 0.4551(2)
H2_13 H 0.1782 0.9493 0.4683
C6_13 C 0.1462(2) 0.9648(2) 0.4406(2)
C7_13 C 0.1397(2) 0.9879(2) 0.4216(2)
H3_13 H 0.1214 0.9884 0.4112
C8_13 C 0.1034(2) 0.9314(3) 0.4325(3)
C9_13 C 0.2236(4) 0.9863(3) 0.4672(3)
N9_13 N 0.0582(2) 0.9465(2) 0.3711(2)
N10_13 N 0.05480(18) 0.90950(19) 0.40576(17)
C40_13 C 0.0128(2) 0.95051(19) 0.3076(2)
C41_13 C 0.0351(3) 0.9551(2) 0.3267(2)
H14_13 H 0.0507 0.9683 0.3218
C42_13 C 0.0352(2) 0.9406(2) 0.3538(2)
C43_13 C 0.0121(2) 0.9216(2) 0.3603(2)
H15_13 H 0.0116 0.9112 0.3786
C44_13 C 0.0686(3) 0.9325(3) 0.3966(2)
C45_13 C 0.0137(3) 0.9672(3) 0.2764(4)
N11_13 N 0.0535(2) 0.8711(2) 0.4418(2)
N12_13 N 0.09050(19) 0.90576(17) 0.44520(18)
C46_13 C 0.1009(2) 0.8501(2) 0.5355(2)
C47_13 C 0.08192(18) 0.84025(19) 0.5097(2)
C48_13 C 0.06802(19) 0.8145(2) 0.5096(2)
H16_13 H 0.0711 0.8008 0.5253
C49_13 C 0.04949(19) 0.8076(2) 0.4872(2)
C50_13 C 0.0449(2) 0.8267(2) 0.4649(3)
H17_13 H 0.0317 0.8218 0.4493
C51_13 C 0.0594(2) 0.8538(2) 0.4648(2)
C52_13 C 0.0784(2) 0.8603(2) 0.4879(2)
H18_13 H 0.0888 0.8786 0.4884
C53_13 C 0.0675(3) 0.8966(2) 0.4314(3)
C54_13 C 0.0328(3) 0.7764(4) 0.4863(3)
C91_13 C 0.1499(2) 0.9645(2) 0.6009(2)
C92_13 C 0.15975(19) 0.9903(2) 0.58192(18)
C93_13 C 0.1855(2) 0.9904(2) 0.56802(19)
H31_13 H 0.1992 0.9747 0.5711
H37_13 H 0.135348 0.929635 0.464328
H41_13 H 0.0703647 0.964328 0.364652
H42_13 H 0.0356719 0.864652 0.429635
C100_13 C 0.9645(2) 0.1009(2) 0.6499(2)
C101_13 C 0.9903(2) 0.08192(18) 0.65975(19)
C102_13 C 0.9904(2) 0.06802(19) 0.6855(2)
H34_13 H 0.9747 0.0711 0.6992
C37_13 C 0.9645(2) 0.8991(2) 0.3501(2)
C38_13 C 0.9903(2) 0.91808(18) 0.34025(19)
C39_13 C 0.9904(2) 0.93198(19) 0.3145(2)
H13_13 H 0.9747 0.9289 0.3008
N1_14 N 0.3082(2) 0.3789(2) 0.6965(2)
N2_14 N 0.30480(18) 0.34424(17) 0.65950(19)
C1_14 C 0.2145(2) 0.3999(2) 0.6491(2)
C2_14 C 0.2403(2) 0.40975(19) 0.66808(18)
C3_14 C 0.2404(2) 0.4355(2) 0.68198(19)
H1_14 H 0.2247 0.4492 0.6789
C4_14 C 0.2628(2) 0.4424(2) 0.70051(19)
C5_14 C 0.2851(3) 0.4233(2) 0.7051(2)
H2_14 H 0.3007 0.4282 0.7183
C6_14 C 0.2852(2) 0.3962(2) 0.6906(2)
C7_14 C 0.2621(2) 0.3897(2) 0.6716(2)
H3_14 H 0.2616 0.3714 0.6612
C8_14 C 0.3186(3) 0.3534(2) 0.6825(3)
C9_14 C 0.2637(3) 0.4736(4) 0.7172(3)
N9_14 N 0.3035(2) 0.3082(2) 0.6211(2)
N10_14 N 0.34050(19) 0.30480(18) 0.65576(17)
C37_14 C 0.3509(2) 0.2145(2) 0.6001(2)
C38_14 C 0.33192(18) 0.2403(2) 0.59025(19)
C39_14 C 0.31802(19) 0.2404(2) 0.5645(2)
H13_14 H 0.3211 0.2247 0.5508
C40_14 C 0.29949(19) 0.2628(2) 0.5576(2)
C41_14 C 0.2949(2) 0.2851(3) 0.5767(2)
H14_14 H 0.2817 0.3007 0.5718
C42_14 C 0.3094(2) 0.2852(2) 0.6038(2)
C43_14 C 0.3284(2) 0.2621(2) 0.6103(2)
H15_14 H 0.3388 0.2616 0.6286
C44_14 C 0.3175(3) 0.3186(3) 0.6466(2)
C45_14 C 0.2828(3) 0.2637(3) 0.5264(4)
N11_14 N 0.3789(2) 0.3035(2) 0.6918(2)
N12_14 N 0.34424(17) 0.34050(19) 0.69520(18)
C46_14 C 0.3999(2) 0.3509(2) 0.7855(2)
C47_14 C 0.40975(19) 0.33192(18) 0.7597(2)
C48_14 C 0.4355(2) 0.31802(19) 0.7596(2)
H16_14 H 0.4492 0.3211 0.7753
C49_14 C 0.4424(2) 0.29949(19) 0.7372(2)
C50_14 C 0.4233(2) 0.2949(2) 0.7149(3)
H17_14 H 0.4282 0.2817 0.6993
C51_14 C 0.3962(2) 0.3094(2) 0.7148(2)
C52_14 C 0.3897(2) 0.3284(2) 0.7379(2)
H18_14 H 0.3714 0.3388 0.7384
C53_14 C 0.3534(2) 0.3175(3) 0.6814(3)
C54_14 C 0.4736(4) 0.2828(3) 0.7363(3)
N13_14 N 0.1211(2) 0.3035(2) 0.8082(2)
N14_14 N 0.15576(17) 0.34050(19) 0.80480(18)
C55_14 C 0.1001(2) 0.3509(2) 0.7145(2)
C56_14 C 0.09025(19) 0.33192(18) 0.7403(2)
C57_14 C 0.0645(2) 0.31802(19) 0.7404(2)
H19_14 H 0.0508 0.3211 0.7247
C58_14 C 0.0576(2) 0.29949(19) 0.7628(2)
C59_14 C 0.0767(2) 0.2949(2) 0.7851(3)
H20_14 H 0.0718 0.2817 0.8007
C60_14 C 0.1038(2) 0.3094(2) 0.7852(2)
C61_14 C 0.1103(2) 0.3284(2) 0.7621(2)
H21_14 H 0.1286 0.3388 0.7616
C62_14 C 0.1466(2) 0.3175(3) 0.8186(3)
C63_14 C 0.0264(4) 0.2828(3) 0.7637(3)
N21_14 N 0.1918(2) 0.3789(2) 0.8035(2)
N22_14 N 0.19520(18) 0.34424(17) 0.84050(19)
C91_14 C 0.2855(2) 0.3999(2) 0.8509(2)
C92_14 C 0.2597(2) 0.40975(19) 0.83192(18)
C93_14 C 0.2596(2) 0.4355(2) 0.81802(19)
H31_14 H 0.2753 0.4492 0.8211
C94_14 C 0.2372(2) 0.4424(2) 0.79949(19)
C95_14 C 0.2149(3) 0.4233(2) 0.7949(2)
H32_14 H 0.1993 0.4282 0.7817
C96_14 C 0.2148(2) 0.3962(2) 0.8094(2)
C97_14 C 0.2379(2) 0.3897(2) 0.8284(2)
H33_14 H 0.2384 0.3714 0.8388
C98_14 C 0.1814(3) 0.3534(2) 0.8175(3)
C99_14 C 0.2363(3) 0.4736(4) 0.7828(3)
N23_14 N 0.1965(2) 0.3082(2) 0.8789(2)
N24_14 N 0.15950(19) 0.30480(18) 0.84424(17)
C100_14 C 0.1491(2) 0.2145(2) 0.8999(2)
C101_14 C 0.16808(18) 0.2403(2) 0.90975(19)
C102_14 C 0.18198(19) 0.2404(2) 0.9355(2)
H34_14 H 0.1789 0.2247 0.9492
C103_14 C 0.20051(19) 0.2628(2) 0.9424(2)
C104_14 C 0.2051(2) 0.2851(3) 0.9233(2)
H35_14 H 0.2183 0.3007 0.9282
C105_14 C 0.1906(2) 0.2852(2) 0.8962(2)
C106_14 C 0.1716(2) 0.2621(2) 0.8897(2)
H36_14 H 0.1612 0.2616 0.8714
C107_14 C 0.1825(3) 0.3186(3) 0.8534(2)
C108_14 C 0.2172(3) 0.2637(3) 0.9736(4)
H37_14 H 0.320365 0.385348 0.714328
H41_14 H 0.285672 0.320365 0.614652
H42_14 H 0.385348 0.285672 0.679635
H44_14 H 0.114652 0.285672 0.820365
H47_14 H 0.214328 0.320365 0.885348
H48_14 H 0.179635 0.385348 0.785672
C37_15 C 0.0355(2) 0.1009(2) 0.3501(2)
C38_15 C 0.0097(2) 0.08192(18) 0.34025(19)
C39_15 C 0.0096(2) 0.06802(19) 0.3145(2)
H13_15 H 0.0253 0.0711 0.3008
C100_15 C 0.0355(2) 0.8991(2) 0.6499(2)
C101_15 C 0.0097(2) 0.91808(18) 0.65975(19)
C102_15 C 0.0096(2) 0.93198(19) 0.6855(2)
H34_15 H 0.0253 0.9289 0.6992
N1_15 N 0.8711(2) 0.0582(2) 0.4465(2)
N2_15 N 0.90576(17) 0.05480(18) 0.40950(19)
C4_15 C 0.8076(2) 0.0128(2) 0.45051(19)
C5_15 C 0.8267(2) 0.0351(3) 0.4551(2)
H2_15 H 0.8218 0.0507 0.4683
C6_15 C 0.8538(2) 0.0352(2) 0.4406(2)
C7_15 C 0.8603(2) 0.0121(2) 0.4216(2)
H3_15 H 0.8786 0.0116 0.4112
C8_15 C 0.8966(2) 0.0686(3) 0.4325(3)
C9_15 C 0.7764(4) 0.0137(3) 0.4672(3)
N9_15 N 0.9418(2) 0.0535(2) 0.3711(2)
N10_15 N 0.94520(18) 0.09050(19) 0.40576(17)
C40_15 C 0.9872(2) 0.04949(19) 0.3076(2)
C41_15 C 0.9649(3) 0.0449(2) 0.3267(2)
H14_15 H 0.9493 0.0317 0.3218
C42_15 C 0.9648(2) 0.0594(2) 0.3538(2)
C43_15 C 0.9879(2) 0.0784(2) 0.3603(2)
H15_15 H 0.9884 0.0888 0.3786
C44_15 C 0.9314(3) 0.0675(3) 0.3966(2)
C45_15 C 0.9863(3) 0.0328(3) 0.2764(4)
N11_15 N 0.9465(2) 0.1289(2) 0.4418(2)
N12_15 N 0.90950(19) 0.09424(17) 0.44520(18)
C46_15 C 0.8991(2) 0.1499(2) 0.5355(2)
C47_15 C 0.91808(18) 0.15975(19) 0.5097(2)
C48_15 C 0.93198(19) 0.1855(2) 0.5096(2)
H16_15 H 0.9289 0.1992 0.5253
C49_15 C 0.95051(19) 0.1924(2) 0.4872(2)
C50_15 C 0.9551(2) 0.1733(2) 0.4649(3)
H17_15 H 0.9683 0.1782 0.4493
C51_15 C 0.9406(2) 0.1462(2) 0.4648(2)
C52_15 C 0.9216(2) 0.1397(2) 0.4879(2)
H18_15 H 0.9112 0.1214 0.4884
C53_15 C 0.9325(3) 0.1034(2) 0.4314(3)
C54_15 C 0.9672(3) 0.2236(4) 0.4863(3)
C91_15 C 0.8501(2) 0.0355(2) 0.6009(2)
C92_15 C 0.84025(19) 0.0097(2) 0.58192(18)
C93_15 C 0.8145(2) 0.0096(2) 0.56802(19)
H31_15 H 0.8008 0.0253 0.5711
H37_15 H 0.864652 0.0703647 0.464328
H41_15 H 0.929635 0.0356719 0.364652
H42_15 H 0.964328 0.135348 0.429635
C1_15 C 0.8501(2) 0.9645(2) 0.3991(2)
C2_15 C 0.84025(19) 0.9903(2) 0.41808(18)
C3_15 C 0.8145(2) 0.9904(2) 0.43198(19)
H1_15 H 0.8008 0.9747 0.4289
N13_15 N 0.9465(2) 0.8711(2) 0.5582(2)
N14_15 N 0.90950(19) 0.90576(17) 0.55480(18)
C55_15 C 0.8991(2) 0.8501(2) 0.4645(2)
C56_15 C 0.91808(18) 0.84025(19) 0.4903(2)
C57_15 C 0.93198(19) 0.8145(2) 0.4904(2)
H19_15 H 0.9289 0.8008 0.4747
C58_15 C 0.95051(19) 0.8076(2) 0.5128(2)
C59_15 C 0.9551(2) 0.8267(2) 0.5351(3)
H20_15 H 0.9683 0.8218 0.5507
C60_15 C 0.9406(2) 0.8538(2) 0.5352(2)
C61_15 C 0.9216(2) 0.8603(2) 0.5121(2)
H21_15 H 0.9112 0.8786 0.5116
C62_15 C 0.9325(3) 0.8966(2) 0.5686(3)
C63_15 C 0.9672(3) 0.7764(4) 0.5137(3)
N21_15 N 0.8711(2) 0.9418(2) 0.5535(2)
N22_15 N 0.90576(17) 0.94520(18) 0.59050(19)
C94_15 C 0.8076(2) 0.9872(2) 0.54949(19)
C95_15 C 0.8267(2) 0.9649(3) 0.5449(2)
H32_15 H 0.8218 0.9493 0.5317
C96_15 C 0.8538(2) 0.9648(2) 0.5594(2)
C97_15 C 0.8603(2) 0.9879(2) 0.5784(2)
H33_15 H 0.8786 0.9884 0.5888
C98_15 C 0.8966(2) 0.9314(3) 0.5675(3)
C99_15 C 0.7764(4) 0.9863(3) 0.5328(3)
N23_15 N 0.9418(2) 0.9465(2) 0.6289(2)
N24_15 N 0.94520(18) 0.90950(19) 0.59424(17)
C103_15 C 0.9872(2) 0.95051(19) 0.6924(2)
C104_15 C 0.9649(3) 0.9551(2) 0.6733(2)
H35_15 H 0.9493 0.9683 0.6782
C105_15 C 0.9648(2) 0.9406(2) 0.6462(2)
C106_15 C 0.9879(2) 0.9216(2) 0.6397(2)
H36_15 H 0.9884 0.9112 0.6214
C107_15 C 0.9314(3) 0.9325(3) 0.6034(2)
C108_15 C 0.9863(3) 0.9672(3) 0.7236(4)
H44_15 H 0.964328 0.864652 0.570365
H47_15 H 0.929635 0.964328 0.635348
H48_15 H 0.864652 0.929635 0.535672
N1_16 N 0.1918(2) 0.1211(2) 0.6965(2)
N2_16 N 0.19520(18) 0.15576(17) 0.65950(19)
C1_16 C 0.2855(2) 0.1001(2) 0.6491(2)
C2_16 C 0.2597(2) 0.09025(19) 0.66808(18)
C3_16 C 0.2596(2) 0.0645(2) 0.68198(19)
H1_16 H 0.2753 0.0508 0.6789
C4_16 C 0.2372(2) 0.0576(2) 0.70051(19)
C5_16 C 0.2149(3) 0.0767(2) 0.7051(2)
H2_16 H 0.1993 0.0718 0.7183
C6_16 C 0.2148(2) 0.1038(2) 0.6906(2)
C7_16 C 0.2379(2) 0.1103(2) 0.6716(2)
H3_16 H 0.2384 0.1286 0.6612
C8_16 C 0.1814(3) 0.1466(2) 0.6825(3)
C9_16 C 0.2363(3) 0.0264(4) 0.7172(3)
N9_16 N 0.1965(2) 0.1918(2) 0.6211(2)
N10_16 N 0.15950(19) 0.19520(18) 0.65576(17)
C37_16 C 0.1491(2) 0.2855(2) 0.6001(2)
C38_16 C 0.16808(18) 0.2597(2) 0.59025(19)
C39_16 C 0.18198(19) 0.2596(2) 0.5645(2)
H13_16 H 0.1789 0.2753 0.5508
C40_16 C 0.20051(19) 0.2372(2) 0.5576(2)
C41_16 C 0.2051(2) 0.2149(3) 0.5767(2)
H14_16 H 0.2183 0.1993 0.5718
C42_16 C 0.1906(2) 0.2148(2) 0.6038(2)
C43_16 C 0.1716(2) 0.2379(2) 0.6103(2)
H15_16 H 0.1612 0.2384 0.6286
C44_16 C 0.1825(3) 0.1814(3) 0.6466(2)
C45_16 C 0.2172(3) 0.2363(3) 0.5264(4)
N11_16 N 0.1211(2) 0.1965(2) 0.6918(2)
N12_16 N 0.15576(17) 0.15950(19) 0.69520(18)
C46_16 C 0.1001(2) 0.1491(2) 0.7855(2)
C47_16 C 0.09025(19) 0.16808(18) 0.7597(2)
C48_16 C 0.0645(2) 0.18198(19) 0.7596(2)
H16_16 H 0.0508 0.1789 0.7753
C49_16 C 0.0576(2) 0.20051(19) 0.7372(2)
C50_16 C 0.0767(2) 0.2051(2) 0.7149(3)
H17_16 H 0.0718 0.2183 0.6993
C51_16 C 0.1038(2) 0.1906(2) 0.7148(2)
C52_16 C 0.1103(2) 0.1716(2) 0.7379(2)
H18_16 H 0.1286 0.1612 0.7384
C53_16 C 0.1466(2) 0.1825(3) 0.6814(3)
C54_16 C 0.0264(4) 0.2172(3) 0.7363(3)
N13_16 N 0.3789(2) 0.1965(2) 0.8082(2)
N14_16 N 0.34424(17) 0.15950(19) 0.80480(18)
C55_16 C 0.3999(2) 0.1491(2) 0.7145(2)
C56_16 C 0.40975(19) 0.16808(18) 0.7403(2)
C57_16 C 0.4355(2) 0.18198(19) 0.7404(2)
H19_16 H 0.4492 0.1789 0.7247
C58_16 C 0.4424(2) 0.20051(19) 0.7628(2)
C59_16 C 0.4233(2) 0.2051(2) 0.7851(3)
H20_16 H 0.4282 0.2183 0.8007
C60_16 C 0.3962(2) 0.1906(2) 0.7852(2)
C61_16 C 0.3897(2) 0.1716(2) 0.7621(2)
H21_16 H 0.3714 0.1612 0.7616
C62_16 C 0.3534(2) 0.1825(3) 0.8186(3)
C63_16 C 0.4736(4) 0.2172(3) 0.7637(3)
N21_16 N 0.3082(2) 0.1211(2) 0.8035(2)
N22_16 N 0.30480(18) 0.15576(17) 0.84050(19)
C91_16 C 0.2145(2) 0.1001(2) 0.8509(2)
C92_16 C 0.2403(2) 0.09025(19) 0.83192(18)
C93_16 C 0.2404(2) 0.0645(2) 0.81802(19)
H31_16 H 0.2247 0.0508 0.8211
C94_16 C 0.2628(2) 0.0576(2) 0.79949(19)
C95_16 C 0.2851(3) 0.0767(2) 0.7949(2)
H32_16 H 0.3007 0.0718 0.7817
C96_16 C 0.2852(2) 0.1038(2) 0.8094(2)
C97_16 C 0.2621(2) 0.1103(2) 0.8284(2)
H33_16 H 0.2616 0.1286 0.8388
C98_16 C 0.3186(3) 0.1466(2) 0.8175(3)
C99_16 C 0.2637(3) 0.0264(4) 0.7828(3)
N23_16 N 0.3035(2) 0.1918(2) 0.8789(2)
N24_16 N 0.34050(19) 0.19520(18) 0.84424(17)
C100_16 C 0.3509(2) 0.2855(2) 0.8999(2)
C101_16 C 0.33192(18) 0.2597(2) 0.90975(19)
C102_16 C 0.31802(19) 0.2596(2) 0.9355(2)
H34_16 H 0.3211 0.2753 0.9492
C103_16 C 0.29949(19) 0.2372(2) 0.9424(2)
C104_16 C 0.2949(2) 0.2149(3) 0.9233(2)
H35_16 H 0.2817 0.1993 0.9282
C105_16 C 0.3094(2) 0.2148(2) 0.8962(2)
C106_16 C 0.3284(2) 0.2379(2) 0.8897(2)
H36_16 H 0.3388 0.2384 0.8714
C107_16 C 0.3175(3) 0.1814(3) 0.8534(2)
C108_16 C 0.2828(3) 0.2363(3) 0.9736(4)
H37_16 H 0.179635 0.114652 0.714328
H41_16 H 0.214328 0.179635 0.614652
H42_16 H 0.114652 0.214328 0.679635
H44_16 H 0.385348 0.214328 0.820365
H47_16 H 0.285672 0.179635 0.885348
H48_16 H 0.320365 0.114652 0.785672
loop_
_geom_bond_atom_site_label_1
_geom_bond_atom_site_label_2
_geom_bond_site_symmetry_1
_geom_bond_site_symmetry_2
Zn1 O1 1_555 1_555
Zn2 O4 1_555 1_555
O1 C10 1_555 1_555
O2 C10 1_555 1_555
O3 C18 1_555 1_555
O4 C18 1_555 1_555
O5 Zn1 1_555 1_555
O6 Zn1 1_555 1_555
O7 Zn1 1_555 1_555
O8 C9 1_555 1_555
O9 C9 1_555 1_555
N1 C6 1_555 1_555
N2 C8 1_555 1_555
N3 C13 1_555 1_555
N4 C17 1_555 1_555
C1 O6 1_555 1_555
C2 C1 1_555 1_555
C3 C2 1_555 1_555
H1 C3 1_555 1_555
C4 C3 1_555 1_555
C5 C4 1_555 1_555
H2 C5 1_555 1_555
C6 C5 1_555 1_555
C7 C2 1_555 1_555
H3 C7 1_555 1_555
C8 N1 1_555 1_555
C9 C4 1_555 1_555
C10 C11 1_555 1_555
C11 C12 1_555 1_555
C12 H4 1_555 1_555
C13 C12 1_555 1_555
C14 C13 1_555 1_555
H5 C14 1_555 1_555
C15 C14 1_555 1_555
C16 C11 1_555 1_555
H6 C16 1_555 1_555
C17 N3 1_555 1_555
C18 C15 1_555 1_555
O10 C19 1_555 1_555
O11 C19 1_555 1_555
O12 C27 1_555 1_555
O13 C27 1_555 1_555
N5 C22 1_555 1_555
N6 C17 1_555 1_555
C19 C20 1_555 1_555
C20 C21 1_555 1_555
C21 H7 1_555 1_555
C22 C21 1_555 1_555
C23 C22 1_555 1_555
H8 C23 1_555 1_555
C24 C23 1_555 1_555
C25 C20 1_555 1_555
H9 C25 1_555 1_555
C26 N5 1_555 1_555
C27 C24 1_555 1_555
O14 C28 1_555 1_555
O15 C28 1_555 1_555
O16 C36 1_555 1_555
O17 C36 1_555 1_555
N7 C31 1_555 1_555
N8 C26 1_555 1_555
C28 C29 1_555 1_555
C29 C30 1_555 1_555
C30 H10 1_555 1_555
C31 C30 1_555 1_555
C32 C31 1_555 1_555
H11 C32 1_555 1_555
C33 C32 1_555 1_555
C34 C29 1_555 1_555
H12 C34 1_555 1_555
C35 N4 1_555 1_555
C36 C33 1_555 1_555
O18 C37 1_555 1_555
O19 C37 1_555 1_555
O20 C45 1_555 1_555
O21 C45 1_555 1_555
N9 C42 1_555 1_555
N10 C44 1_555 1_555
C37 C38 1_555 1_555
C38 C39 1_555 1_555
C39 H13 1_555 1_555
C40 C39 1_555 1_555
C41 C40 1_555 1_555
H14 C41 1_555 1_555
C42 C41 1_555 1_555
C43 C38 1_555 1_555
H15 C43 1_555 1_555
C44 N2 1_555 1_555
C45 C40 1_555 1_555
O22 C46 1_555 1_555
O23 C46 1_555 1_555
O24 C54 1_555 1_555
O25 C54 1_555 1_555
N11 C51 1_555 1_555
N12 C8 1_555 1_555
C46 C47 1_555 1_555
C47 C48 1_555 1_555
C48 H16 1_555 1_555
C49 C48 1_555 1_555
C50 C49 1_555 1_555
H17 C50 1_555 1_555
C51 C50 1_555 1_555
C52 C47 1_555 1_555
H18 C52 1_555 1_555
C53 N10 1_555 1_555
C54 C49 1_555 1_555
Zn3 O18 1_555 1_555
O26 Zn3 1_555 1_555
Zn4 O22 1_555 1_555
Zn5 O2 1_555 1_555
Zn6 O30 1_555 1_555
O27 Zn5 1_555 1_555
O28 C64 1_555 1_555
O29 C72 1_555 1_555
O30 C72 1_555 1_555
O31 Zn5 1_555 1_555
O32 Zn5 1_555 1_555
O33 C63 1_555 1_555
O34 C63 1_555 1_555
N13 C60 1_555 1_555
N14 C62 1_555 1_555
N15 C67 1_555 1_555
N16 C71 1_555 1_555
C55 O31 1_555 1_555
C56 C55 1_555 1_555
C57 C56 1_555 1_555
H19 C57 1_555 1_555
C58 C57 1_555 1_555
C59 C58 1_555 1_555
H20 C59 1_555 1_555
C60 C59 1_555 1_555
C61 C56 1_555 1_555
H21 C61 1_555 1_555
C62 N13 1_555 1_555
C63 C58 1_555 1_555
C64 O27 1_555 1_555
C65 C64 1_555 1_555
C66 C65 1_555 1_555
H22 C66 1_555 1_555
C67 C66 1_555 1_555
C68 C67 1_555 1_555
H23 C68 1_555 1_555
C69 C68 1_555 1_555
C70 C65 1_555 1_555
H24 C70 1_555 1_555
C71 N15 1_555 1_555
C72 C69 1_555 1_555
O35 C73 1_555 1_555
O36 C73 1_555 1_555
O37 C81 1_555 1_555
O38 Zn2 1_555 1_555
N17 C76 1_555 1_555
N18 C71 1_555 1_555
C73 C74 1_555 1_555
C74 C75 1_555 1_555
C75 H25 1_555 1_555
C76 C75 1_555 1_555
C77 C76 1_555 1_555
H26 C77 1_555 1_555
C78 C77 1_555 1_555
C79 C74 1_555 1_555
H27 C79 1_555 1_555
C80 N17 1_555 1_555
C81 O38 1_555 1_555
O39 C82 1_555 1_555
O40 C82 1_555 1_555
O41 C90 1_555 1_555
O42 C90 1_555 1_555
N19 C85 1_555 1_555
N20 C80 1_555 1_555
C82 C83 1_555 1_555
C83 C84 1_555 1_555
C84 H28 1_555 1_555
C85 C84 1_555 1_555
C86 C85 1_555 1_555
H29 C86 1_555 1_555
C87 C86 1_555 1_555
C88 C83 1_555 1_555
H30 C88 1_555 1_555
C89 N16 1_555 1_555
C90 C87 1_555 1_555
O43 C91 1_555 1_555
O44 C91 1_555 1_555
O45 C99 1_555 1_555
O46 C99 1_555 1_555
N21 C96 1_555 1_555
N22 C98 1_555 1_555
C91 C92 1_555 1_555
C92 C93 1_555 1_555
C93 H31 1_555 1_555
C94 C93 1_555 1_555
C95 C94 1_555 1_555
H32 C95 1_555 1_555
C96 C95 1_555 1_555
C97 C92 1_555 1_555
H33 C97 1_555 1_555
C98 N14 1_555 1_555
C99 C94 1_555 1_555
O47 C100 1_555 1_555
O48 C100 1_555 1_555
O49 C108 1_555 1_555
O50 C108 1_555 1_555
N23 C105 1_555 1_555
N24 C62 1_555 1_555
C100 C101 1_555 1_555
C101 C102 1_555 1_555
C102 H34 1_555 1_555
C103 C102 1_555 1_555
C104 C103 1_555 1_555
H35 C104 1_555 1_555
C105 C104 1_555 1_555
C106 C101 1_555 1_555
H36 C106 1_555 1_555
C107 N22 1_555 1_555
C108 C103 1_555 1_555
Zn7 O5 1_555 1_555
Zn8 O13 1_555 1_555
Zn9 O11 1_555 1_555
Zn10 O26 1_555 1_555
Zn11 O43 1_555 1_555
Zn12 O47 1_555 1_555
Zn13 O26 1_555 1_555
Zn14 O40 1_555 1_555
Zn15 O39 1_555 1_555
Zn16 O10 1_555 1_555
Zn17 O35 1_555 1_555
Zn18 O14 1_555 1_555
Zn19 O15 1_555 1_555
Zn20 O49 1_555 1_555
Zn21 O33 1_555 1_555
Zn22 O8 1_555 1_555
Zn23 O20 1_555 1_555
Zn24 O42 1_555 1_555
Zn25 O24 1_555 1_555
Zn26 O17 1_555 1_555
O51 Zn3 1_555 1_555
O52 Zn4 1_555 1_555
O53 Zn7 1_555 1_555
O54 Zn9 1_555 1_555
O55 Zn4 1_555 1_555
O56 Zn3 1_555 1_555
O57 Zn1 1_555 1_555
O58 Zn8 1_555 1_555
O59 Zn6 1_555 1_555
O60 Zn4 1_555 1_555
O61 Zn9 1_555 1_555
O62 Zn7 1_555 1_555
O63 Zn9 1_555 1_555
O64 Zn7 1_555 1_555
O65 Zn9 1_555 1_555
O66 Zn2 1_555 1_555
O67 Zn2 1_555 1_555
O68 Zn8 1_555 1_555
O69 Zn8 1_555 1_555
O70 Zn6 1_555 1_555
O71 Zn6 1_555 1_555
O72 Zn2 1_555 1_555
O73 Zn2 1_555 1_555
O74 Zn8 1_555 1_555
O75 Zn8 1_555 1_555
O76 Zn6 1_555 1_555
O77 Zn6 1_555 1_555
O5 Zn5 1_555 1_555
O7 C1 1_555 1_555
O9 Zn22 1_555 1_555
C6 C7 1_555 1_555
C15 C16 1_555 1_555
N6 C26 1_555 1_555
C24 C25 1_555 1_555
N7 C35 1_555 1_555
N8 C35 1_555 1_555
C33 C34 1_555 1_555
O19 Zn3 1_555 1_555
O21 Zn23 1_555 1_555
N9 C44 1_555 1_555
C42 C43 1_555 1_555
O23 Zn4 1_555 1_555
O25 Zn25 1_555 1_555
N11 C53 1_555 1_555
N12 C53 1_555 1_555
C51 C52 1_555 1_555
O28 Zn7 1_555 1_555
O32 C55 1_555 1_555
O34 Zn21 1_555 1_555
C60 C61 1_555 1_555
C69 C70 1_555 1_555
O36 Zn18 1_555 1_555
N18 C80 1_555 1_555
C78 C79 1_555 1_555
C78 C81 1_555 1_555
N19 C89 1_555 1_555
N20 C89 1_555 1_555
C87 C88 1_555 1_555
O44 Zn11 1_555 1_555
O45 Zn22 1_555 1_555
O46 Zn22 1_555 1_555
N21 C98 1_555 1_555
C96 C97 1_555 1_555
O48 Zn12 1_555 1_555
O50 Zn20 1_555 1_555
N23 C107 1_555 1_555
N24 C107 1_555 1_555
C105 C106 1_555 1_555
Zn11 O60 1_555 1_555
Zn16 O61 1_555 1_555
N1 H37 1_555 1_555
N3 H38 1_555 1_555
N5 H39 1_555 1_555
N7 H40 1_555 1_555
N9 H41 1_555 1_555
N11 H42 1_555 1_555
N15 H43 1_555 1_555
N13 H44 1_555 1_555
N19 H45 1_555 1_555
N17 H46 1_555 1_555
N23 H47 1_555 1_555
N21 H48 1_555 1_555
O3_2 C18_2 1_555 1_555
N3_2 C13_2 1_555 1_555
N4_2 C17_2 1_555 1_555
C14_2 C13_2 1_555 1_555
H5_2 C14_2 1_555 1_555
C15_2 C14_2 1_555 1_555
C17_2 N3_2 1_555 1_555
C18_2 C15_2 1_555 1_555
O10_2 C19_2 1_555 1_555
O11_2 C19_2 1_555 1_555
O12_2 C27_2 1_555 1_555
O13_2 C27_2 1_555 1_555
N5_2 C22_2 1_555 1_555
N6_2 C17_2 1_555 1_555
C19_2 C20_2 1_555 1_555
C20_2 C21_2 1_555 1_555
C21_2 H7_2 1_555 1_555
C22_2 C21_2 1_555 1_555
C23_2 C22_2 1_555 1_555
H8_2 C23_2 1_555 1_555
C24_2 C23_2 1_555 1_555
C25_2 C20_2 1_555 1_555
H9_2 C25_2 1_555 1_555
C26_2 N5_2 1_555 1_555
C27_2 C24_2 1_555 1_555
O14_2 C28_2 1_555 1_555
O15_2 C28_2 1_555 1_555
O16_2 C36_2 1_555 1_555
O17_2 C36_2 1_555 1_555
N7_2 C31_2 1_555 1_555
N8_2 C26_2 1_555 1_555
C28_2 C29_2 1_555 1_555
C29_2 C30_2 1_555 1_555
C30_2 H10_2 1_555 1_555
C31_2 C30_2 1_555 1_555
C32_2 C31_2 1_555 1_555
H11_2 C32_2 1_555 1_555
C33_2 C32_2 1_555 1_555
C34_2 C29_2 1_555 1_555
H12_2 C34_2 1_555 1_555
C35_2 N4_2 1_555 1_555
C36_2 C33_2 1_555 1_555
O35_2 C73_2 1_555 1_555
O36_2 C73_2 1_555 1_555
O38_2 Zn2_2 1_555 1_555
C73_2 C74_2 1_555 1_555
C74_2 C75_2 1_555 1_555
C75_2 H25_2 1_555 1_555
C79_2 C74_2 1_555 1_555
H27_2 C79_2 1_555 1_555
Zn8_2 O13_2 1_555 1_555
Zn9_2 O11_2 1_555 1_555
Zn16_2 O10_2 1_555 1_555
Zn17_2 O35_2 1_555 1_555
Zn18_2 O14_2 1_555 1_555
Zn19_2 O15_2 1_555 1_555
Zn25 O17_2 1_555 1_555
O54_2 Zn9_2 1_555 1_555
O61_2 Zn9_2 1_555 1_555
O63_2 Zn9_2 1_555 1_555
O65_2 Zn9_2 1_555 1_555
O67_2 Zn2_2 1_555 1_555
O69_2 Zn8_2 1_555 1_555
O73_2 Zn2_2 1_555 1_555
O74_2 Zn8_2 1_555 1_555
N6_2 C26_2 1_555 1_555
C24_2 C25_2 1_555 1_555
N7_2 C35_2 1_555 1_555
N8_2 C35_2 1_555 1_555
C33_2 C34_2 1_555 1_555
O36_2 Zn18_2 1_555 1_555
Zn16_2 O61_2 1_555 1_555
N3_2 H38_2 1_555 1_555
N5_2 H39_2 1_555 1_555
N7_2 H40_2 1_555 1_555
Zn1_2 O1_2 1_555 1_555
Zn2_3 O4_2 1_555 1_555
O1_2 C10_2 1_555 1_555
O2_2 C10_2 1_555 1_555
O5_2 Zn1_2 1_555 1_555
O6_2 Zn1_2 1_555 1_555
O7_2 Zn1_2 1_555 1_555
O8_2 C9_2 1_555 1_555
O9_2 C9_2 1_555 1_555
N1_2 C6_2 1_555 1_555
N2_2 C8_2 1_555 1_555
C1_2 O6_2 1_555 1_555
C2_2 C1_2 1_555 1_555
C3_2 C2_2 1_555 1_555
H1_2 C3_2 1_555 1_555
C4_2 C3_2 1_555 1_555
C5_2 C4_2 1_555 1_555
H2_2 C5_2 1_555 1_555
C6_2 C5_2 1_555 1_555
C7_2 C2_2 1_555 1_555
H3_2 C7_2 1_555 1_555
C8_2 N1_2 1_555 1_555
C9_2 C4_2 1_555 1_555
C10_2 C11_2 1_555 1_555
C11_2 C12_2 1_555 1_555
C12_2 H4_2 1_555 1_555
C16_2 C11_2 1_555 1_555
H6_2 C16_2 1_555 1_555
O18_2 C37_2 1_555 1_555
O19_2 C37_2 1_555 1_555
O67 C45_2 1_555 1_555
O73 C45_2 1_555 1_555
N9_2 C42_2 1_555 1_555
N10_2 C44_2 1_555 1_555
C37_2 C38_2 1_555 1_555
C38_2 C39_2 1_555 1_555
C39_2 H13_2 1_555 1_555
C40_2 C39_2 1_555 1_555
C41_2 C40_2 1_555 1_555
H14_2 C41_2 1_555 1_555
C42_2 C41_2 1_555 1_555
C43_2 C38_2 1_555 1_555
H15_2 C43_2 1_555 1_555
C44_2 N2_2 1_555 1_555
C45_2 C40_2 1_555 1_555
O22_2 C46_2 1_555 1_555
O23_2 C46_2 1_555 1_555
O24_2 C54_2 1_555 1_555
O25_2 C54_2 1_555 1_555
N11_2 C51_2 1_555 1_555
N12_2 C8_2 1_555 1_555
C46_2 C47_2 1_555 1_555
C47_2 C48_2 1_555 1_555
C48_2 H16_2 1_555 1_555
C49_2 C48_2 1_555 1_555
C50_2 C49_2 1_555 1_555
H17_2 C50_2 1_555 1_555
C51_2 C50_2 1_555 1_555
C52_2 C47_2 1_555 1_555
H18_2 C52_2 1_555 1_555
C53_2 N10_2 1_555 1_555
C54_2 C49_2 1_555 1_555
Zn3_2 O18_2 1_555 1_555
O26_2 Zn3_2 1_555 1_555
Zn4_2 O22_2 1_555 1_555
Zn5_2 O2_2 1_555 1_555
Zn21 O30_2 1_555 1_555
O27_2 Zn5_2 1_555 1_555
O28_2 C64_2 1_555 1_555
O29_2 C72_2 1_555 1_555
O30_2 C72_2 1_555 1_555
O31_2 Zn5_2 1_555 1_555
O32_2 Zn5_2 1_555 1_555
O33_2 C63_2 1_555 1_555
O34_2 C63_2 1_555 1_555
N13_2 C60_2 1_555 1_555
N14_2 C62_2 1_555 1_555
N15_2 C67_2 1_555 1_555
N16_2 C71_2 1_555 1_555
C55_2 O31_2 1_555 1_555
C56_2 C55_2 1_555 1_555
C57_2 C56_2 1_555 1_555
H19_2 C57_2 1_555 1_555
C58_2 C57_2 1_555 1_555
C59_2 C58_2 1_555 1_555
H20_2 C59_2 1_555 1_555
C60_2 C59_2 1_555 1_555
C61_2 C56_2 1_555 1_555
H21_2 C61_2 1_555 1_555
C62_2 N13_2 1_555 1_555
C63_2 C58_2 1_555 1_555
C64_2 O27_2 1_555 1_555
C65_2 C64_2 1_555 1_555
C66_2 C65_2 1_555 1_555
H22_2 C66_2 1_555 1_555
C67_2 C66_2 1_555 1_555
C68_2 C67_2 1_555 1_555
H23_2 C68_2 1_555 1_555
C69_2 C68_2 1_555 1_555
C70_2 C65_2 1_555 1_555
H24_2 C70_2 1_555 1_555
C71_2 N15_2 1_555 1_555
C72_2 C69_2 1_555 1_555
O37_2 C81_2 1_555 1_555
N17_2 C76_2 1_555 1_555
N18_2 C71_2 1_555 1_555
C77_2 C76_2 1_555 1_555
H26_2 C77_2 1_555 1_555
C78_2 C77_2 1_555 1_555
C80_2 N17_2 1_555 1_555
O39_2 C82_2 1_555 1_555
O40_2 C82_2 1_555 1_555
O41_2 C90_2 1_555 1_555
O42_2 C90_2 1_555 1_555
N19_2 C85_2 1_555 1_555
N20_2 C80_2 1_555 1_555
C82_2 C83_2 1_555 1_555
C83_2 C84_2 1_555 1_555
C84_2 H28_2 1_555 1_555
C85_2 C84_2 1_555 1_555
C86_2 C85_2 1_555 1_555
H29_2 C86_2 1_555 1_555
C87_2 C86_2 1_555 1_555
C88_2 C83_2 1_555 1_555
H30_2 C88_2 1_555 1_555
C89_2 N16_2 1_555 1_555
C90_2 C87_2 1_555 1_555
O43_2 C91_2 1_555 1_555
O44_2 C91_2 1_555 1_555
O45_2 C99_2 1_555 1_555
O46_2 C99_2 1_555 1_555
N21_2 C96_2 1_555 1_555
N22_2 C98_2 1_555 1_555
C91_2 C92_2 1_555 1_555
C92_2 C93_2 1_555 1_555
C93_2 H31_2 1_555 1_555
C94_2 C93_2 1_555 1_555
C95_2 C94_2 1_555 1_555
H32_2 C95_2 1_555 1_555
C96_2 C95_2 1_555 1_555
C97_2 C92_2 1_555 1_555
H33_2 C97_2 1_555 1_555
C98_2 N14_2 1_555 1_555
C99_2 C94_2 1_555 1_555
O47_2 C100_2 1_555 1_555
O48_2 C100_2 1_555 1_555
O49_2 C108_2 1_555 1_555
O50_2 C108_2 1_555 1_555
N23_2 C105_2 1_555 1_555
N24_2 C62_2 1_555 1_555
C100_2 C101_2 1_555 1_555
C101_2 C102_2 1_555 1_555
C102_2 H34_2 1_555 1_555
C103_2 C102_2 1_555 1_555
C104_2 C103_2 1_555 1_555
H35_2 C104_2 1_555 1_555
C105_2 C104_2 1_555 1_555
C106_2 C101_2 1_555 1_555
H36_2 C106_2 1_555 1_555
C107_2 N22_2 1_555 1_555
C108_2 C103_2 1_555 1_555
Zn7_2 O5_2 1_555 1_555
Zn10_2 O26_2 1_555 1_555
Zn11_2 O43_2 1_555 1_555
Zn12_2 O47_2 1_555 1_555
Zn13_2 O26_2 1_555 1_555
Zn14_2 O40_2 1_555 1_555
Zn15_2 O39_2 1_555 1_555
Zn21_2 O33_2 1_555 1_555
Zn24_3 O42_2 1_555 1_555
O51_2 Zn3_2 1_555 1_555
O52_2 Zn4_2 1_555 1_555
O53_2 Zn7_2 1_555 1_555
O55_2 Zn4_2 1_555 1_555
O56_2 Zn3_2 1_555 1_555
O57_2 Zn1_2 1_555 1_555
O58_2 Zn8_3 1_555 1_555
O59_2 Zn21 1_555 1_555
O60_2 Zn4_2 1_555 1_555
O62_2 Zn7_2 1_555 1_555
O64_2 Zn7_2 1_555 1_555
O66_2 Zn2_3 1_555 1_555
O68_2 Zn8_3 1_555 1_555
O70_2 Zn21 1_555 1_555
O72_2 Zn2_3 1_555 1_555
O75_2 Zn8_3 1_555 1_555
O76_2 Zn21 1_555 1_555
O5_2 Zn5_2 1_555 1_555
O7_2 C1_2 1_555 1_555
C6_2 C7_2 1_555 1_555
O19_2 Zn3_2 1_555 1_555
N9_2 C44_2 1_555 1_555
C42_2 C43_2 1_555 1_555
O23_2 Zn4_2 1_555 1_555
N11_2 C53_2 1_555 1_555
N12_2 C53_2 1_555 1_555
C51_2 C52_2 1_555 1_555
O28_2 Zn7_2 1_555 1_555
O32_2 C55_2 1_555 1_555
O34_2 Zn21_2 1_555 1_555
C60_2 C61_2 1_555 1_555
C69_2 C70_2 1_555 1_555
N18_2 C80_2 1_555 1_555
C78_2 C81_2 1_555 1_555
N19_2 C89_2 1_555 1_555
N20_2 C89_2 1_555 1_555
C87_2 C88_2 1_555 1_555
O44_2 Zn11_2 1_555 1_555
N21_2 C98_2 1_555 1_555
C96_2 C97_2 1_555 1_555
O48_2 Zn12_2 1_555 1_555
N23_2 C107_2 1_555 1_555
N24_2 C107_2 1_555 1_555
C105_2 C106_2 1_555 1_555
Zn11_2 O60_2 1_555 1_555
N1_2 H37_2 1_555 1_555
N9_2 H41_2 1_555 1_555
N11_2 H42_2 1_555 1_555
N15_2 H43_2 1_555 1_555
N13_2 H44_2 1_555 1_555
N19_2 H45_2 1_555 1_555
N17_2 H46_2 1_555 1_555
N23_2 H47_2 1_555 1_555
N21_2 H48_2 1_555 1_555
Zn10 O1_3 1_555 1_555
Zn2_4 O4_3 1_555 1_555
O1_3 C10_3 1_555 1_555
O2_3 C10_3 1_555 1_555
O3_3 C18_3 1_555 1_555
O4_3 C18_3 1_555 1_555
O6_3 Zn10 1_555 1_555
O7_3 Zn10 1_555 1_555
O8_3 C9_3 1_555 1_555
O9_3 C9_3 1_555 1_555
N1_3 C6_3 1_555 1_555
N2_3 C8_3 1_555 1_555
N3_3 C13_3 1_555 1_555
N4_3 C17_3 1_555 1_555
C1_3 O6_3 1_555 1_555
C2_3 C1_3 1_555 1_555
C3_3 C2_3 1_555 1_555
H1_3 C3_3 1_555 1_555
C4_3 C3_3 1_555 1_555
C5_3 C4_3 1_555 1_555
H2_3 C5_3 1_555 1_555
C6_3 C5_3 1_555 1_555
C7_3 C2_3 1_555 1_555
H3_3 C7_3 1_555 1_555
C8_3 N1_3 1_555 1_555
C9_3 C4_3 1_555 1_555
C10_3 C11_3 1_555 1_555
C11_3 C12_3 1_555 1_555
C12_3 H4_3 1_555 1_555
C13_3 C12_3 1_555 1_555
C14_3 C13_3 1_555 1_555
H5_3 C14_3 1_555 1_555
C15_3 C14_3 1_555 1_555
C16_3 C11_3 1_555 1_555
H6_3 C16_3 1_555 1_555
C17_3 N3_3 1_555 1_555
C18_3 C15_3 1_555 1_555
O10_3 C19_3 1_555 1_555
O11_3 C19_3 1_555 1_555
O12_3 C27_3 1_555 1_555
O13_3 C27_3 1_555 1_555
N5_3 C22_3 1_555 1_555
N6_3 C17_3 1_555 1_555
C19_3 C20_3 1_555 1_555
C20_3 C21_3 1_555 1_555
C21_3 H7_3 1_555 1_555
C22_3 C21_3 1_555 1_555
C23_3 C22_3 1_555 1_555
H8_3 C23_3 1_555 1_555
C24_3 C23_3 1_555 1_555
C25_3 C20_3 1_555 1_555
H9_3 C25_3 1_555 1_555
C26_3 N5_3 1_555 1_555
C27_3 C24_3 1_555 1_555
O14_3 C28_3 1_555 1_555
O15_3 C28_3 1_555 1_555
O16_3 C36_3 1_555 1_555
O17_3 C36_3 1_555 1_555
N7_3 C31_3 1_555 1_555
N8_3 C26_3 1_555 1_555
C28_3 C29_3 1_555 1_555
C29_3 C30_3 1_555 1_555
C30_3 H10_3 1_555 1_555
C31_3 C30_3 1_555 1_555
C32_3 C31_3 1_555 1_555
H11_3 C32_3 1_555 1_555
C33_3 C32_3 1_555 1_555
C34_3 C29_3 1_555 1_555
H12_3 C34_3 1_555 1_555
C35_3 N4_3 1_555 1_555
C36_3 C33_3 1_555 1_555
O62 C37_3 1_555 1_555
O64 C37_3 1_555 1_555
O20_2 C45_3 1_555 1_555
O21_2 C45_3 1_555 1_555
N9_3 C42_3 1_555 1_555
N10_3 C44_3 1_555 1_555
C37_3 C38_3 1_555 1_555
C38_3 C39_3 1_555 1_555
C39_3 H13_3 1_555 1_555
C40_3 C39_3 1_555 1_555
C41_3 C40_3 1_555 1_555
H14_3 C41_3 1_555 1_555
C42_3 C41_3 1_555 1_555
C43_3 C38_3 1_555 1_555
H15_3 C43_3 1_555 1_555
C44_3 N2_3 1_555 1_555
C45_3 C40_3 1_555 1_555
O22_3 C46_3 1_555 1_555
O23_3 C46_3 1_555 1_555
O70_2 C54_3 1_555 1_555
O76_2 C54_3 1_555 1_555
N11_3 C51_3 1_555 1_555
N12_3 C8_3 1_555 1_555
C46_3 C47_3 1_555 1_555
C47_3 C48_3 1_555 1_555
C48_3 H16_3 1_555 1_555
C49_3 C48_3 1_555 1_555
C50_3 C49_3 1_555 1_555
H17_3 C50_3 1_555 1_555
C51_3 C50_3 1_555 1_555
C52_3 C47_3 1_555 1_555
H18_3 C52_3 1_555 1_555
C53_3 N10_3 1_555 1_555
C54_3 C49_3 1_555 1_555
Zn4_3 O22_3 1_555 1_555
Zn13 O2_3 1_555 1_555
Zn6_2 O30_3 1_555 1_555
O27_3 Zn13 1_555 1_555
O56 C64_3 1_555 1_555
O29_3 C72_3 1_555 1_555
O30_3 C72_3 1_555 1_555
O31_3 Zn13 1_555 1_555
O32_3 Zn13 1_555 1_555
O33_3 C63_3 1_555 1_555
O34_3 C63_3 1_555 1_555
N13_3 C60_3 1_555 1_555
N14_3 C62_3 1_555 1_555
N15_3 C67_3 1_555 1_555
N16_3 C71_3 1_555 1_555
C55_3 O31_3 1_555 1_555
C56_3 C55_3 1_555 1_555
C57_3 C56_3 1_555 1_555
H19_3 C57_3 1_555 1_555
C58_3 C57_3 1_555 1_555
C59_3 C58_3 1_555 1_555
H20_3 C59_3 1_555 1_555
C60_3 C59_3 1_555 1_555
C61_3 C56_3 1_555 1_555
H21_3 C61_3 1_555 1_555
C62_3 N13_3 1_555 1_555
C63_3 C58_3 1_555 1_555
C64_3 O27_3 1_555 1_555
C65_3 C64_3 1_555 1_555
C66_3 C65_3 1_555 1_555
H22_3 C66_3 1_555 1_555
C67_3 C66_3 1_555 1_555
C68_3 C67_3 1_555 1_555
H23_3 C68_3 1_555 1_555
C69_3 C68_3 1_555 1_555
C70_3 C65_3 1_555 1_555
H24_3 C70_3 1_555 1_555
C71_3 N15_3 1_555 1_555
C72_3 C69_3 1_555 1_555
O35_3 C73_3 1_555 1_555
O36_3 C73_3 1_555 1_555
O37_3 C81_3 1_555 1_555
O38_3 Zn2_4 1_555 1_555
N17_3 C76_3 1_555 1_555
N18_3 C71_3 1_555 1_555
C73_3 C74_3 1_555 1_555
C74_3 C75_3 1_555 1_555
C75_3 H25_3 1_555 1_555
C76_3 C75_3 1_555 1_555
C77_3 C76_3 1_555 1_555
H26_3 C77_3 1_555 1_555
C78_3 C77_3 1_555 1_555
C79_3 C74_3 1_555 1_555
H27_3 C79_3 1_555 1_555
C80_3 N17_3 1_555 1_555
C81_3 O38_3 1_555 1_555
O39_3 C82_3 1_555 1_555
O40_3 C82_3 1_555 1_555
O41_3 C90_3 1_555 1_555
O42_3 C90_3 1_555 1_555
N19_3 C85_3 1_555 1_555
N20_3 C80_3 1_555 1_555
C82_3 C83_3 1_555 1_555
C83_3 C84_3 1_555 1_555
C84_3 H28_3 1_555 1_555
C85_3 C84_3 1_555 1_555
C86_3 C85_3 1_555 1_555
H29_3 C86_3 1_555 1_555
C87_3 C86_3 1_555 1_555
C88_3 C83_3 1_555 1_555
H30_3 C88_3 1_555 1_555
C89_3 N16_3 1_555 1_555
C90_3 C87_3 1_555 1_555
O43_3 C91_3 1_555 1_555
O44_3 C91_3 1_555 1_555
O45_3 C99_3 1_555 1_555
O46_3 C99_3 1_555 1_555
N21_3 C96_3 1_555 1_555
N22_3 C98_3 1_555 1_555
C91_3 C92_3 1_555 1_555
C92_3 C93_3 1_555 1_555
C93_3 H31_3 1_555 1_555
C94_3 C93_3 1_555 1_555
C95_3 C94_3 1_555 1_555
H32_3 C95_3 1_555 1_555
C96_3 C95_3 1_555 1_555
C97_3 C92_3 1_555 1_555
H33_3 C97_3 1_555 1_555
C98_3 N14_3 1_555 1_555
C99_3 C94_3 1_555 1_555
O47_3 C100_3 1_555 1_555
O48_3 C100_3 1_555 1_555
O49_3 C108_3 1_555 1_555
O50_3 C108_3 1_555 1_555
N23_3 C105_3 1_555 1_555
N24_3 C62_3 1_555 1_555
C100_3 C101_3 1_555 1_555
C101_3 C102_3 1_555 1_555
C102_3 H34_3 1_555 1_555
C103_3 C102_3 1_555 1_555
C104_3 C103_3 1_555 1_555
H35_3 C104_3 1_555 1_555
C105_3 C104_3 1_555 1_555
C106_3 C101_3 1_555 1_555
H36_3 C106_3 1_555 1_555
C107_3 N22_3 1_555 1_555
C108_3 C103_3 1_555 1_555
Zn8_4 O13_3 1_555 1_555
Zn9_3 O11_3 1_555 1_555
Zn11_3 O43_3 1_555 1_555
Zn12_3 O47_3 1_555 1_555
Zn14_3 O40_3 1_555 1_555
Zn15_3 O39_3 1_555 1_555
Zn16_3 O10_3 1_555 1_555
Zn17_3 O35_3 1_555 1_555
Zn18_3 O14_3 1_555 1_555
Zn19_3 O15_3 1_555 1_555
Zn20 O49_3 1_555 1_555
Zn25 O33_3 1_555 1_555
Zn22_3 O8_3 1_555 1_555
Zn23 O20_2 1_555 1_555
Zn24_4 O42_3 1_555 1_555
Zn26_2 O17_3 1_555 1_555
O52_3 Zn4_3 1_555 1_555
O54_3 Zn9_3 1_555 1_555
O55_3 Zn4_3 1_555 1_555
O57_3 Zn10 1_555 1_555
O58_3 Zn8_4 1_555 1_555
O59_3 Zn6_2 1_555 1_555
O60_3 Zn4_3 1_555 1_555
O61_3 Zn9_3 1_555 1_555
O63_3 Zn9_3 1_555 1_555
O65_3 Zn9_3 1_555 1_555
O66_3 Zn2_4 1_555 1_555
O67_3 Zn2_4 1_555 1_555
O68_3 Zn8_4 1_555 1_555
O69_3 Zn8_4 1_555 1_555
O70_3 Zn6_2 1_555 1_555
O71_2 Zn6_2 1_555 1_555
O72_3 Zn2_4 1_555 1_555
O73_3 Zn2_4 1_555 1_555
O74_3 Zn8_4 1_555 1_555
O75_3 Zn8_4 1_555 1_555
O76_3 Zn6_2 1_555 1_555
O77_2 Zn6_2 1_555 1_555
O7_3 C1_3 1_555 1_555
O9_3 Zn22_3 1_555 1_555
C6_3 C7_3 1_555 1_555
C15_3 C16_3 1_555 1_555
N6_3 C26_3 1_555 1_555
C24_3 C25_3 1_555 1_555
N7_3 C35_3 1_555 1_555
N8_3 C35_3 1_555 1_555
C33_3 C34_3 1_555 1_555
O21_2 Zn23 1_555 1_555
N9_3 C44_3 1_555 1_555
C42_3 C43_3 1_555 1_555
O23_3 Zn4_3 1_555 1_555
N11_3 C53_3 1_555 1_555
N12_3 C53_3 1_555 1_555
C51_3 C52_3 1_555 1_555
O32_3 C55_3 1_555 1_555
O34_3 Zn25 1_555 1_555
C60_3 C61_3 1_555 1_555
C69_3 C70_3 1_555 1_555
O36_3 Zn18_3 1_555 1_555
N18_3 C80_3 1_555 1_555
C78_3 C79_3 1_555 1_555
C78_3 C81_3 1_555 1_555
N19_3 C89_3 1_555 1_555
N20_3 C89_3 1_555 1_555
C87_3 C88_3 1_555 1_555
O44_3 Zn11_3 1_555 1_555
O45_3 Zn22_3 1_555 1_555
O46_3 Zn22_3 1_555 1_555
N21_3 C98_3 1_555 1_555
C96_3 C97_3 1_555 1_555
O48_3 Zn12_3 1_555 1_555
O50_3 Zn20 1_555 1_555
N23_3 C107_3 1_555 1_555
N24_3 C107_3 1_555 1_555
C105_3 C106_3 1_555 1_555
Zn11_3 O60_3 1_555 1_555
Zn16_3 O61_3 1_555 1_555
N1_3 H37_3 1_555 1_555
N3_3 H38_3 1_555 1_555
N5_3 H39_3 1_555 1_555
N7_3 H40_3 1_555 1_555
N9_3 H41_3 1_555 1_555
N11_3 H42_3 1_555 1_555
N15_3 H43_3 1_555 1_555
N13_3 H44_3 1_555 1_555
N19_3 H45_3 1_555 1_555
N17_3 H46_3 1_555 1_555
N23_3 H47_3 1_555 1_555
N21_3 H48_3 1_555 1_555
O14_4 C28_4 1_555 1_555
O15_4 C28_4 1_555 1_555
C28_4 C29_4 1_555 1_555
C29_4 C30_4 1_555 1_555
C30_4 H10_4 1_555 1_555
C34_4 C29_4 1_555 1_555
H12_4 C34_4 1_555 1_555
O29_4 C72_4 1_555 1_555
N15_4 C67_4 1_555 1_555
N16_4 C71_4 1_555 1_555
C68_4 C67_4 1_555 1_555
H23_4 C68_4 1_555 1_555
C69_4 C68_4 1_555 1_555
C71_4 N15_4 1_555 1_555
C72_4 C69_4 1_555 1_555
O35_4 C73_4 1_555 1_555
O36_4 C73_4 1_555 1_555
O37_4 C81_4 1_555 1_555
O38_4 Zn2_5 1_555 1_555
N17_4 C76_4 1_555 1_555
N18_4 C71_4 1_555 1_555
C73_4 C74_4 1_555 1_555
C74_4 C75_4 1_555 1_555
C75_4 H25_4 1_555 1_555
C76_4 C75_4 1_555 1_555
C77_4 C76_4 1_555 1_555
H26_4 C77_4 1_555 1_555
C78_4 C77_4 1_555 1_555
C79_4 C74_4 1_555 1_555
H27_4 C79_4 1_555 1_555
C80_4 N17_4 1_555 1_555
C81_4 O38_4 1_555 1_555
O39_4 C82_4 1_555 1_555
O40_4 C82_4 1_555 1_555
O41_4 C90_4 1_555 1_555
O42_4 C90_4 1_555 1_555
N19_4 C85_4 1_555 1_555
N20_4 C80_4 1_555 1_555
C82_4 C83_4 1_555 1_555
C83_4 C84_4 1_555 1_555
C84_4 H28_4 1_555 1_555
C85_4 C84_4 1_555 1_555
C86_4 C85_4 1_555 1_555
H29_4 C86_4 1_555 1_555
C87_4 C86_4 1_555 1_555
C88_4 C83_4 1_555 1_555
H30_4 C88_4 1_555 1_555
C89_4 N16_4 1_555 1_555
C90_4 C87_4 1_555 1_555
Zn14_4 O40_4 1_555 1_555
Zn15_4 O39_4 1_555 1_555
Zn17_4 O35_4 1_555 1_555
Zn18_4 O14_4 1_555 1_555
Zn19_4 O15_4 1_555 1_555
Zn22_3 O42_4 1_555 1_555
Zn26_3 O17_4 1_555 1_555
O59_4 Zn6_3 1_555 1_555
O66_4 Zn2_5 1_555 1_555
O70_4 Zn6_3 1_555 1_555
O73_4 Zn2_5 1_555 1_555
O76_4 Zn6_3 1_555 1_555
O36_4 Zn18_4 1_555 1_555
N18_4 C80_4 1_555 1_555
C78_4 C79_4 1_555 1_555
C78_4 C81_4 1_555 1_555
N19_4 C89_4 1_555 1_555
N20_4 C89_4 1_555 1_555
C87_4 C88_4 1_555 1_555
N15_4 H43_4 1_555 1_555
N19_4 H45_4 1_555 1_555
N17_4 H46_4 1_555 1_555
Zn10_2 O1_4 1_555 1_555
Zn2_6 O4_4 1_555 1_555
O1_4 C10_4 1_555 1_555
O2_4 C10_4 1_555 1_555
O3_4 C18_4 1_555 1_555
O4_4 C18_4 1_555 1_555
O6_4 Zn10_2 1_555 1_555
O7_4 Zn10_2 1_555 1_555
O8_4 C9_4 1_555 1_555
O9_4 C9_4 1_555 1_555
N1_4 C6_4 1_555 1_555
N2_4 C8_4 1_555 1_555
N3_4 C13_4 1_555 1_555
N4_4 C17_4 1_555 1_555
C1_4 O6_4 1_555 1_555
C2_4 C1_4 1_555 1_555
C3_4 C2_4 1_555 1_555
H1_4 C3_4 1_555 1_555
C4_4 C3_4 1_555 1_555
C5_4 C4_4 1_555 1_555
H2_4 C5_4 1_555 1_555
C6_4 C5_4 1_555 1_555
C7_4 C2_4 1_555 1_555
H3_4 C7_4 1_555 1_555
C8_4 N1_4 1_555 1_555
C9_4 C4_4 1_555 1_555
C10_4 C11_4 1_555 1_555
C11_4 C12_4 1_555 1_555
C12_4 H4_4 1_555 1_555
C13_4 C12_4 1_555 1_555
C14_4 C13_4 1_555 1_555
H5_4 C14_4 1_555 1_555
C15_4 C14_4 1_555 1_555
C16_4 C11_4 1_555 1_555
H6_4 C16_4 1_555 1_555
C17_4 N3_4 1_555 1_555
C18_4 C15_4 1_555 1_555
O10_4 C19_4 1_555 1_555
O11_4 C19_4 1_555 1_555
O12_4 C27_4 1_555 1_555
O13_4 C27_4 1_555 1_555
N5_4 C22_4 1_555 1_555
N6_4 C17_4 1_555 1_555
C19_4 C20_4 1_555 1_555
C20_4 C21_4 1_555 1_555
C21_4 H7_4 1_555 1_555
C22_4 C21_4 1_555 1_555
C23_4 C22_4 1_555 1_555
H8_4 C23_4 1_555 1_555
C24_4 C23_4 1_555 1_555
C25_4 C20_4 1_555 1_555
H9_4 C25_4 1_555 1_555
C26_4 N5_4 1_555 1_555
C27_4 C24_4 1_555 1_555
O16_4 C36_4 1_555 1_555
N7_4 C31_4 1_555 1_555
N8_4 C26_4 1_555 1_555
C32_4 C31_4 1_555 1_555
H11_4 C32_4 1_555 1_555
C33_4 C32_4 1_555 1_555
C35_4 N4_4 1_555 1_555
C36_4 C33_4 1_555 1_555
O62_2 C37_4 1_555 1_555
O64_2 C37_4 1_555 1_555
O66 C45_4 1_555 1_555
O72 C45_4 1_555 1_555
N9_4 C42_4 1_555 1_555
N10_4 C44_4 1_555 1_555
C37_4 C38_4 1_555 1_555
C38_4 C39_4 1_555 1_555
C39_4 H13_4 1_555 1_555
C40_4 C39_4 1_555 1_555
C41_4 C40_4 1_555 1_555
H14_4 C41_4 1_555 1_555
C42_4 C41_4 1_555 1_555
C43_4 C38_4 1_555 1_555
H15_4 C43_4 1_555 1_555
C44_4 N2_4 1_555 1_555
C45_4 C40_4 1_555 1_555
O22_4 C46_4 1_555 1_555
O23_4 C46_4 1_555 1_555
O24_3 C54_4 1_555 1_555
O25_3 C54_4 1_555 1_555
N11_4 C51_4 1_555 1_555
N12_4 C8_4 1_555 1_555
C46_4 C47_4 1_555 1_555
C47_4 C48_4 1_555 1_555
C48_4 H16_4 1_555 1_555
C49_4 C48_4 1_555 1_555
C50_4 C49_4 1_555 1_555
H17_4 C50_4 1_555 1_555
C51_4 C50_4 1_555 1_555
C52_4 C47_4 1_555 1_555
H18_4 C52_4 1_555 1_555
C53_4 N10_4 1_555 1_555
C54_4 C49_4 1_555 1_555
Zn4_4 O22_4 1_555 1_555
Zn13_2 O2_4 1_555 1_555
Zn6_4 O30_4 1_555 1_555
O27_4 Zn13_2 1_555 1_555
O56_2 C64_4 1_555 1_555
O31_4 Zn13_2 1_555 1_555
O32_4 Zn13_2 1_555 1_555
O33_4 C63_4 1_555 1_555
O34_4 C63_4 1_555 1_555
N13_4 C60_4 1_555 1_555
N14_4 C62_4 1_555 1_555
C55_4 O31_4 1_555 1_555
C56_4 C55_4 1_555 1_555
C57_4 C56_4 1_555 1_555
H19_4 C57_4 1_555 1_555
C58_4 C57_4 1_555 1_555
C59_4 C58_4 1_555 1_555
H20_4 C59_4 1_555 1_555
C60_4 C59_4 1_555 1_555
C61_4 C56_4 1_555 1_555
H21_4 C61_4 1_555 1_555
C62_4 N13_4 1_555 1_555
C63_4 C58_4 1_555 1_555
C64_4 O27_4 1_555 1_555
C65_4 C64_4 1_555 1_555
C66_4 C65_4 1_555 1_555
H22_4 C66_4 1_555 1_555
C70_4 C65_4 1_555 1_555
H24_4 C70_4 1_555 1_555
O43_4 C91_4 1_555 1_555
O44_4 C91_4 1_555 1_555
O45_4 C99_4 1_555 1_555
O46_4 C99_4 1_555 1_555
N21_4 C96_4 1_555 1_555
N22_4 C98_4 1_555 1_555
C91_4 C92_4 1_555 1_555
C92_4 C93_4 1_555 1_555
C93_4 H31_4 1_555 1_555
C94_4 C93_4 1_555 1_555
C95_4 C94_4 1_555 1_555
H32_4 C95_4 1_555 1_555
C96_4 C95_4 1_555 1_555
C97_4 C92_4 1_555 1_555
H33_4 C97_4 1_555 1_555
C98_4 N14_4 1_555 1_555
C99_4 C94_4 1_555 1_555
O47_4 C100_4 1_555 1_555
O48_4 C100_4 1_555 1_555
O49_4 C108_4 1_555 1_555
O50_4 C108_4 1_555 1_555
N23_4 C105_4 1_555 1_555
N24_4 C62_4 1_555 1_555
C100_4 C101_4 1_555 1_555
C101_4 C102_4 1_555 1_555
C102_4 H34_4 1_555 1_555
C103_4 C102_4 1_555 1_555
C104_4 C103_4 1_555 1_555
H35_4 C104_4 1_555 1_555
C105_4 C104_4 1_555 1_555
C106_4 C101_4 1_555 1_555
H36_4 C106_4 1_555 1_555
C107_4 N22_4 1_555 1_555
C108_4 C103_4 1_555 1_555
Zn22 O13_4 1_555 1_555
Zn9_4 O11_4 1_555 1_555
Zn11_4 O43_4 1_555 1_555
Zn12_4 O47_4 1_555 1_555
Zn16_4 O10_4 1_555 1_555
Zn22_4 O8_4 1_555 1_555
Zn21_2 O24_3 1_555 1_555
O52_4 Zn4_4 1_555 1_555
O54_4 Zn9_4 1_555 1_555
O55_4 Zn4_4 1_555 1_555
O57_4 Zn10_2 1_555 1_555
O58_4 Zn22 1_555 1_555
O60_4 Zn4_4 1_555 1_555
O61_4 Zn9_4 1_555 1_555
O63_4 Zn9_4 1_555 1_555
O65_4 Zn9_4 1_555 1_555
O67_4 Zn2_6 1_555 1_555
O71_3 Zn6_4 1_555 1_555
O72_4 Zn2_6 1_555 1_555
O77_3 Zn6_4 1_555 1_555
O7_4 C1_4 1_555 1_555
O9_4 Zn22_4 1_555 1_555
C6_4 C7_4 1_555 1_555
C15_4 C16_4 1_555 1_555
N6_4 C26_4 1_555 1_555
C24_4 C25_4 1_555 1_555
N7_4 C35_4 1_555 1_555
N8_4 C35_4 1_555 1_555
N9_4 C44_4 1_555 1_555
C42_4 C43_4 1_555 1_555
O23_4 Zn4_4 1_555 1_555
O25_3 Zn21_2 1_555 1_555
N11_4 C53_4 1_555 1_555
N12_4 C53_4 1_555 1_555
C51_4 C52_4 1_555 1_555
O32_4 C55_4 1_555 1_555
C60_4 C61_4 1_555 1_555
O44_4 Zn11_4 1_555 1_555
O45_4 Zn22_4 1_555 1_555
O46_4 Zn22_4 1_555 1_555
N21_4 C98_4 1_555 1_555
C96_4 C97_4 1_555 1_555
O48_4 Zn12_4 1_555 1_555
N23_4 C107_4 1_555 1_555
N24_4 C107_4 1_555 1_555
C105_4 C106_4 1_555 1_555
Zn11_4 O60_4 1_555 1_555
Zn16_4 O61_4 1_555 1_555
N1_4 H37_4 1_555 1_555
N3_4 H38_4 1_555 1_555
N5_4 H39_4 1_555 1_555
N7_4 H40_4 1_555 1_555
N9_4 H41_4 1_555 1_555
N11_4 H42_4 1_555 1_555
N13_4 H44_4 1_555 1_555
N23_4 H47_4 1_555 1_555
N21_4 H48_4 1_555 1_555
O10_5 C19_5 1_555 1_555
O11_5 C19_5 1_555 1_555
C19_5 C20_5 1_555 1_555
C20_5 C21_5 1_555 1_555
C21_5 H7_5 1_555 1_555
C25_5 C20_5 1_555 1_555
H9_5 C25_5 1_555 1_555
Zn8_5 O13_5 1_555 1_555
Zn9_5 O11_5 1_555 1_555
Zn16_5 O10_5 1_555 1_555
O54_5 Zn9_5 1_555 1_555
O61_5 Zn9_5 1_555 1_555
O63_5 Zn9_5 1_555 1_555
O65_5 Zn9_5 1_555 1_555
O74_4 Zn8_5 1_555 1_555
Zn16_5 O61_5 1_555 1_555
O14_5 C28_5 1_555 1_555
O15_5 C28_5 1_555 1_555
C28_5 C29_5 1_555 1_555
C29_5 C30_5 1_555 1_555
C30_5 H10_5 1_555 1_555
C34_5 C29_5 1_555 1_555
H12_5 C34_5 1_555 1_555
O35_5 C73_5 1_555 1_555
O36_5 C73_5 1_555 1_555
O38_5 Zn2_7 1_555 1_555
C73_5 C74_5 1_555 1_555
C74_5 C75_5 1_555 1_555
C75_5 H25_5 1_555 1_555
C79_5 C74_5 1_555 1_555
H27_5 C79_5 1_555 1_555
Zn17_5 O35_5 1_555 1_555
Zn18_5 O14_5 1_555 1_555
Zn19_5 O15_5 1_555 1_555
Zn26_7 O17_5 1_555 1_555
O73_5 Zn2_7 1_555 1_555
O36_5 Zn18_5 1_555 1_555
O3_5 C18_5 1_555 1_555
N3_5 C13_5 1_555 1_555
N4_5 C17_5 1_555 1_555
C14_5 C13_5 1_555 1_555
H5_5 C14_5 1_555 1_555
C15_5 C14_5 1_555 1_555
C17_5 N3_5 1_555 1_555
C18_5 C15_5 1_555 1_555
O12_5 C27_5 1_555 1_555
N5_5 C22_5 1_555 1_555
N6_5 C17_5 1_555 1_555
C23_5 C22_5 1_555 1_555
H8_5 C23_5 1_555 1_555
C24_5 C23_5 1_555 1_555
C26_5 N5_5 1_555 1_555
C27_5 C24_5 1_555 1_555
O16_5 C36_5 1_555 1_555
N7_5 C31_5 1_555 1_555
N8_5 C26_5 1_555 1_555
C32_5 C31_5 1_555 1_555
H11_5 C32_5 1_555 1_555
C33_5 C32_5 1_555 1_555
C35_5 N4_5 1_555 1_555
C36_5 C33_5 1_555 1_555
O67_5 Zn2_8 1_555 1_555
O69_4 Zn8_6 1_555 1_555
N6_5 C26_5 1_555 1_555
N7_5 C35_5 1_555 1_555
N8_5 C35_5 1_555 1_555
N3_5 H38_5 1_555 1_555
N5_5 H39_5 1_555 1_555
N7_5 H40_5 1_555 1_555
O39_5 C82_5 1_555 1_555
O40_5 C82_5 1_555 1_555
C82_5 C83_5 1_555 1_555
C83_5 C84_5 1_555 1_555
C84_5 H28_5 1_555 1_555
C88_5 C83_5 1_555 1_555
H30_5 C88_5 1_555 1_555
Zn14_5 O40_5 1_555 1_555
Zn15_5 O39_5 1_555 1_555
Zn24_7 O42_5 1_555 1_555
O59_5 Zn6_5 1_555 1_555
O76_5 Zn6_5 1_555 1_555
O68_4 Zn8_7 1_555 1_555
O71_4 Zn6_6 1_555 1_555
O29_5 C72_5 1_555 1_555
N15_5 C67_5 1_555 1_555
N16_5 C71_5 1_555 1_555
C68_5 C67_5 1_555 1_555
H23_5 C68_5 1_555 1_555
C69_5 C68_5 1_555 1_555
C71_5 N15_5 1_555 1_555
C72_5 C69_5 1_555 1_555
O37_5 C81_5 1_555 1_555
N17_5 C76_5 1_555 1_555
N18_5 C71_5 1_555 1_555
C77_5 C76_5 1_555 1_555
H26_5 C77_5 1_555 1_555
C78_5 C77_5 1_555 1_555
C80_5 N17_5 1_555 1_555
O41_5 C90_5 1_555 1_555
N19_5 C85_5 1_555 1_555
N20_5 C80_5 1_555 1_555
C86_5 C85_5 1_555 1_555
H29_5 C86_5 1_555 1_555
C87_5 C86_5 1_555 1_555
C89_5 N16_5 1_555 1_555
C90_5 C87_5 1_555 1_555
O66_5 Zn2_9 1_555 1_555
O70_5 Zn6_7 1_555 1_555
N18_5 C80_5 1_555 1_555
C78_5 C81_5 1_555 1_555
N19_5 C89_5 1_555 1_555
N20_5 C89_5 1_555 1_555
N15_5 H43_5 1_555 1_555
N19_5 H45_5 1_555 1_555
N17_5 H46_5 1_555 1_555
Zn2_10 O4_5 1_555 1_555
O52_2 C10_5 1_555 1_555
O2_5 C10_5 1_555 1_555
C10_5 C11_5 1_555 1_555
C11_5 C12_5 1_555 1_555
C12_5 H4_5 1_555 1_555
C16_5 C11_5 1_555 1_555
H6_5 C16_5 1_555 1_555
Zn12_4 O2_5 1_555 1_555
Zn6_8 O30_5 1_555 1_555
O27_5 Zn12_4 1_555 1_555
O28_3 C64_5 1_555 1_555
C64_5 O27_5 1_555 1_555
C65_5 C64_5 1_555 1_555
C66_5 C65_5 1_555 1_555
H22_5 C66_5 1_555 1_555
C70_5 C65_5 1_555 1_555
H24_5 C70_5 1_555 1_555
O53_3 Zn11_2 1_555 1_555
O58_5 Zn8_8 1_555 1_555
O72_5 Zn2_10 1_555 1_555
O75_4 Zn8_8 1_555 1_555
O77_4 Zn6_8 1_555 1_555
O60_2 Zn12_4 1_555 1_555
O28_3 Zn11_2 1_555 1_555
Zn11 O1_5 1_555 1_555
Zn2_11 O4_6 1_555 1_555
O1_5 C10_6 1_555 1_555
O55 C10_6 1_555 1_555
O3_6 C18_6 1_555 1_555
O4_6 C18_6 1_555 1_555
N3_6 C13_6 1_555 1_555
N4_6 C17_6 1_555 1_555
C10_6 C11_6 1_555 1_555
C11_6 C12_6 1_555 1_555
C12_6 H4_6 1_555 1_555
C13_6 C12_6 1_555 1_555
C14_6 C13_6 1_555 1_555
H5_6 C14_6 1_555 1_555
C15_6 C14_6 1_555 1_555
C16_6 C11_6 1_555 1_555
H6_6 C16_6 1_555 1_555
C17_6 N3_6 1_555 1_555
C18_6 C15_6 1_555 1_555
O10_6 C19_6 1_555 1_555
O11_6 C19_6 1_555 1_555
O12_6 C27_6 1_555 1_555
O13_6 C27_6 1_555 1_555
N5_6 C22_6 1_555 1_555
N6_6 C17_6 1_555 1_555
C19_6 C20_6 1_555 1_555
C20_6 C21_6 1_555 1_555
C21_6 H7_6 1_555 1_555
C22_6 C21_6 1_555 1_555
C23_6 C22_6 1_555 1_555
H8_6 C23_6 1_555 1_555
C24_6 C23_6 1_555 1_555
C25_6 C20_6 1_555 1_555
H9_6 C25_6 1_555 1_555
C26_6 N5_6 1_555 1_555
C27_6 C24_6 1_555 1_555
O14_6 C28_6 1_555 1_555
O15_6 C28_6 1_555 1_555
O16_6 C36_6 1_555 1_555
O17_6 C36_6 1_555 1_555
N7_6 C31_6 1_555 1_555
N8_6 C26_6 1_555 1_555
C28_6 C29_6 1_555 1_555
C29_6 C30_6 1_555 1_555
C30_6 H10_6 1_555 1_555
C31_6 C30_6 1_555 1_555
C32_6 C31_6 1_555 1_555
H11_6 C32_6 1_555 1_555
C33_6 C32_6 1_555 1_555
C34_6 C29_6 1_555 1_555
H12_6 C34_6 1_555 1_555
C35_6 N4_6 1_555 1_555
C36_6 C33_6 1_555 1_555
O60_3 Zn12 1_555 1_555
Zn6_9 O30_6 1_555 1_555
O28_4 C64_6 1_555 1_555
O29_6 C72_6 1_555 1_555
O30_6 C72_6 1_555 1_555
N15_6 C67_6 1_555 1_555
N16_6 C71_6 1_555 1_555
C64_6 O52 1_555 1_555
C65_6 C64_6 1_555 1_555
C66_6 C65_6 1_555 1_555
H22_6 C66_6 1_555 1_555
C67_6 C66_6 1_555 1_555
C68_6 C67_6 1_555 1_555
H23_6 C68_6 1_555 1_555
C69_6 C68_6 1_555 1_555
C70_6 C65_6 1_555 1_555
H24_6 C70_6 1_555 1_555
C71_6 N15_6 1_555 1_555
C72_6 C69_6 1_555 1_555
O35_6 C73_6 1_555 1_555
O36_6 C73_6 1_555 1_555
O37_6 C81_6 1_555 1_555
O38_6 Zn2_11 1_555 1_555
N17_6 C76_6 1_555 1_555
N18_6 C71_6 1_555 1_555
C73_6 C74_6 1_555 1_555
C74_6 C75_6 1_555 1_555
C75_6 H25_6 1_555 1_555
C76_6 C75_6 1_555 1_555
C77_6 C76_6 1_555 1_555
H26_6 C77_6 1_555 1_555
C78_6 C77_6 1_555 1_555
C79_6 C74_6 1_555 1_555
H27_6 C79_6 1_555 1_555
C80_6 N17_6 1_555 1_555
C81_6 O38_6 1_555 1_555
O39_6 C82_6 1_555 1_555
O40_6 C82_6 1_555 1_555
O41_6 C90_6 1_555 1_555
O42_6 C90_6 1_555 1_555
N19_6 C85_6 1_555 1_555
N20_6 C80_6 1_555 1_555
C82_6 C83_6 1_555 1_555
C83_6 C84_6 1_555 1_555
C84_6 H28_6 1_555 1_555
C85_6 C84_6 1_555 1_555
C86_6 C85_6 1_555 1_555
H29_6 C86_6 1_555 1_555
C87_6 C86_6 1_555 1_555
C88_6 C83_6 1_555 1_555
H30_6 C88_6 1_555 1_555
C89_6 N16_6 1_555 1_555
C90_6 C87_6 1_555 1_555
Zn12_3 O60 1_555 1_555
Zn22_4 O13_6 1_555 1_555
Zn9_6 O11_6 1_555 1_555
Zn14_6 O40_6 1_555 1_555
Zn15_6 O39_6 1_555 1_555
Zn16_6 O10_6 1_555 1_555
Zn17_6 O35_6 1_555 1_555
Zn18_6 O14_6 1_555 1_555
Zn19_6 O15_6 1_555 1_555
Zn22_2 O42_6 1_555 1_555
Zn26_9 O17_6 1_555 1_555
O51_3 Zn12 1_555 1_555
O53_4 Zn12_3 1_555 1_555
O54_6 Zn9_6 1_555 1_555
O56_3 Zn12 1_555 1_555
O57_5 Zn11 1_555 1_555
O58_6 Zn22_4 1_555 1_555
O59_6 Zn6_9 1_555 1_555
O61_6 Zn9_6 1_555 1_555
O63_6 Zn9_6 1_555 1_555
O65_6 Zn9_6 1_555 1_555
O66_6 Zn2_11 1_555 1_555
O67_6 Zn2_11 1_555 1_555
O70_6 Zn6_9 1_555 1_555
O71_5 Zn6_9 1_555 1_555
O72_6 Zn2_11 1_555 1_555
O73_6 Zn2_11 1_555 1_555
O76_6 Zn6_9 1_555 1_555
O77_5 Zn6_9 1_555 1_555
C15_6 C16_6 1_555 1_555
N6_6 C26_6 1_555 1_555
C24_6 C25_6 1_555 1_555
N7_6 C35_6 1_555 1_555
N8_6 C35_6 1_555 1_555
C33_6 C34_6 1_555 1_555
O28_4 Zn12_3 1_555 1_555
C69_6 C70_6 1_555 1_555
O36_6 Zn18_6 1_555 1_555
N18_6 C80_6 1_555 1_555
C78_6 C79_6 1_555 1_555
C78_6 C81_6 1_555 1_555
N19_6 C89_6 1_555 1_555
N20_6 C89_6 1_555 1_555
C87_6 C88_6 1_555 1_555
Zn16_6 O61_6 1_555 1_555
N3_6 H38_6 1_555 1_555
N5_6 H39_6 1_555 1_555
N7_6 H40_6 1_555 1_555
N15_6 H43_6 1_555 1_555
N19_6 H45_6 1_555 1_555
N17_6 H46_6 1_555 1_555
O35_7 C73_7 1_555 1_555
O36_7 C73_7 1_555 1_555
C73_7 C74_7 1_555 1_555
C74_7 C75_7 1_555 1_555
C75_7 H25_7 1_555 1_555
C79_7 C74_7 1_555 1_555
H27_7 C79_7 1_555 1_555
Zn17_7 O35_7 1_555 1_555
O61_7 Zn18_4 1_555 1_555
O63_7 Zn18_4 1_555 1_555
O65_7 Zn18_4 1_555 1_555
O36_7 Zn15_4 1_555 1_555
Zn17_4 O61_7 1_555 1_555
O57_4 C64_7 1_555 1_555
O29_7 C72_7 1_555 1_555
O58_4 C72_7 1_555 1_555
N15_7 C67_7 1_555 1_555
N16_7 C71_7 1_555 1_555
C64_7 O51_2 1_555 1_555
C65_7 C64_7 1_555 1_555
C66_7 C65_7 1_555 1_555
H22_7 C66_7 1_555 1_555
C67_7 C66_7 1_555 1_555
C68_7 C67_7 1_555 1_555
H23_7 C68_7 1_555 1_555
C69_7 C68_7 1_555 1_555
C70_7 C65_7 1_555 1_555
H24_7 C70_7 1_555 1_555
C71_7 N15_7 1_555 1_555
C72_7 C69_7 1_555 1_555
O37_7 C81_7 1_555 1_555
N17_7 C76_7 1_555 1_555
N18_7 C71_7 1_555 1_555
C77_7 C76_7 1_555 1_555
H26_7 C77_7 1_555 1_555
C78_7 C77_7 1_555 1_555
C80_7 N17_7 1_555 1_555
O54_4 C82_7 1_555 1_555
O40_7 C82_7 1_555 1_555
O41_7 C90_7 1_555 1_555
O42_7 C90_7 1_555 1_555
N19_7 C85_7 1_555 1_555
N20_7 C80_7 1_555 1_555
C82_7 C83_7 1_555 1_555
C83_7 C84_7 1_555 1_555
C84_7 H28_7 1_555 1_555
C85_7 C84_7 1_555 1_555
C86_7 C85_7 1_555 1_555
H29_7 C86_7 1_555 1_555
C87_7 C86_7 1_555 1_555
C88_7 C83_7 1_555 1_555
H30_7 C88_7 1_555 1_555
C89_7 N16_7 1_555 1_555
C90_7 C87_7 1_555 1_555
Zn12_2 O60_4 1_555 1_555
Zn14_7 O40_7 1_555 1_555
Zn24_10 O42_7 1_555 1_555
O51_4 Zn11_4 1_555 1_555
O56_4 Zn11_4 1_555 1_555
C69_7 C70_7 1_555 1_555
N18_7 C80_7 1_555 1_555
C78_7 C81_7 1_555 1_555
N19_7 C89_7 1_555 1_555
N20_7 C89_7 1_555 1_555
C87_7 C88_7 1_555 1_555
N15_7 H43_7 1_555 1_555
N19_7 H45_7 1_555 1_555
N17_7 H46_7 1_555 1_555
O54_2 C28_7 1_555 1_555
O15_7 C28_7 1_555 1_555
C28_7 C29_7 1_555 1_555
C29_7 C30_7 1_555 1_555
C30_7 H10_7 1_555 1_555
C34_7 C29_7 1_555 1_555
H12_7 C34_7 1_555 1_555
Zn19_7 O15_7 1_555 1_555
Zn26_10 O17_7 1_555 1_555
O53_2 C10_7 1_555 1_555
O57_2 C10_7 1_555 1_555
O3_7 C18_7 1_555 1_555
O58_2 C18_7 1_555 1_555
N3_7 C13_7 1_555 1_555
N4_7 C17_7 1_555 1_555
C10_7 C11_7 1_555 1_555
C11_7 C12_7 1_555 1_555
C12_7 H4_7 1_555 1_555
C13_7 C12_7 1_555 1_555
C14_7 C13_7 1_555 1_555
H5_7 C14_7 1_555 1_555
C15_7 C14_7 1_555 1_555
C16_7 C11_7 1_555 1_555
H6_7 C16_7 1_555 1_555
C17_7 N3_7 1_555 1_555
C18_7 C15_7 1_555 1_555
O10_7 C19_7 1_555 1_555
O11_7 C19_7 1_555 1_555
O12_7 C27_7 1_555 1_555
O59_2 C27_7 1_555 1_555
N5_7 C22_7 1_555 1_555
N6_7 C17_7 1_555 1_555
C19_7 C20_7 1_555 1_555
C20_7 C21_7 1_555 1_555
C21_7 H7_7 1_555 1_555
C22_7 C21_7 1_555 1_555
C23_7 C22_7 1_555 1_555
H8_7 C23_7 1_555 1_555
C24_7 C23_7 1_555 1_555
C25_7 C20_7 1_555 1_555
H9_7 C25_7 1_555 1_555
C26_7 N5_7 1_555 1_555
C27_7 C24_7 1_555 1_555
O16_7 C36_7 1_555 1_555
N7_7 C31_7 1_555 1_555
N8_7 C26_7 1_555 1_555
C32_7 C31_7 1_555 1_555
H11_7 C32_7 1_555 1_555
C33_7 C32_7 1_555 1_555
C35_7 N4_7 1_555 1_555
C36_7 C33_7 1_555 1_555
Zn15_2 O11_7 1_555 1_555
Zn16_7 O10_7 1_555 1_555
O61_8 Zn15_2 1_555 1_555
O63_8 Zn15_2 1_555 1_555
O65_8 Zn15_2 1_555 1_555
C15_7 C16_7 1_555 1_555
N6_7 C26_7 1_555 1_555
C24_7 C25_7 1_555 1_555
N7_7 C35_7 1_555 1_555
N8_7 C35_7 1_555 1_555
Zn16_7 O61_8 1_555 1_555
N3_7 H38_7 1_555 1_555
N5_7 H39_7 1_555 1_555
N7_7 H40_7 1_555 1_555
Zn11_3 O1_6 1_555 1_555
Zn2_12 O4_7 1_555 1_555
O1_6 C10_8 1_555 1_555
O55_3 C10_8 1_555 1_555
O3_8 C18_8 1_555 1_555
O4_7 C18_8 1_555 1_555
N3_8 C13_8 1_555 1_555
N4_8 C17_8 1_555 1_555
C10_8 C11_8 1_555 1_555
C11_8 C12_8 1_555 1_555
C12_8 H4_8 1_555 1_555
C13_8 C12_8 1_555 1_555
C14_8 C13_8 1_555 1_555
H5_8 C14_8 1_555 1_555
C15_8 C14_8 1_555 1_555
C16_8 C11_8 1_555 1_555
H6_8 C16_8 1_555 1_555
C17_8 N3_8 1_555 1_555
C18_8 C15_8 1_555 1_555
O10_8 C19_8 1_555 1_555
O11_8 C19_8 1_555 1_555
O12_8 C27_8 1_555 1_555
O13_7 C27_8 1_555 1_555
N5_8 C22_8 1_555 1_555
N6_8 C17_8 1_555 1_555
C19_8 C20_8 1_555 1_555
C20_8 C21_8 1_555 1_555
C21_8 H7_8 1_555 1_555
C22_8 C21_8 1_555 1_555
C23_8 C22_8 1_555 1_555
H8_8 C23_8 1_555 1_555
C24_8 C23_8 1_555 1_555
C25_8 C20_8 1_555 1_555
H9_8 C25_8 1_555 1_555
C26_8 N5_8 1_555 1_555
C27_8 C24_8 1_555 1_555
O14_7 C28_8 1_555 1_555
O15_8 C28_8 1_555 1_555
O16_8 C36_8 1_555 1_555
O17_8 C36_8 1_555 1_555
N7_8 C31_8 1_555 1_555
N8_8 C26_8 1_555 1_555
C28_8 C29_8 1_555 1_555
C29_8 C30_8 1_555 1_555
C30_8 H10_8 1_555 1_555
C31_8 C30_8 1_555 1_555
C32_8 C31_8 1_555 1_555
H11_8 C32_8 1_555 1_555
C33_8 C32_8 1_555 1_555
C34_8 C29_8 1_555 1_555
H12_8 C34_8 1_555 1_555
C35_8 N4_8 1_555 1_555
C36_8 C33_8 1_555 1_555
Zn21_2 O30_7 1_555 1_555
O56_3 C64_8 1_555 1_555
O29_8 C72_8 1_555 1_555
O30_7 C72_8 1_555 1_555
N15_8 C67_8 1_555 1_555
N16_8 C71_8 1_555 1_555
C64_8 O52_3 1_555 1_555
C65_8 C64_8 1_555 1_555
C66_8 C65_8 1_555 1_555
H22_8 C66_8 1_555 1_555
C67_8 C66_8 1_555 1_555
C68_8 C67_8 1_555 1_555
H23_8 C68_8 1_555 1_555
C69_8 C68_8 1_555 1_555
C70_8 C65_8 1_555 1_555
H24_8 C70_8 1_555 1_555
C71_8 N15_8 1_555 1_555
C72_8 C69_8 1_555 1_555
O35_8 C73_8 1_555 1_555
O36_8 C73_8 1_555 1_555
O37_8 C81_8 1_555 1_555
O38_7 Zn2_12 1_555 1_555
N17_8 C76_8 1_555 1_555
N18_8 C71_8 1_555 1_555
C73_8 C74_8 1_555 1_555
C74_8 C75_8 1_555 1_555
C75_8 H25_8 1_555 1_555
C76_8 C75_8 1_555 1_555
C77_8 C76_8 1_555 1_555
H26_8 C77_8 1_555 1_555
C78_8 C77_8 1_555 1_555
C79_8 C74_8 1_555 1_555
H27_8 C79_8 1_555 1_555
C80_8 N17_8 1_555 1_555
C81_8 O38_7 1_555 1_555
O39_7 C82_8 1_555 1_555
O40_8 C82_8 1_555 1_555
O41_8 C90_8 1_555 1_555
O42_8 C90_8 1_555 1_555
N19_8 C85_8 1_555 1_555
N20_8 C80_8 1_555 1_555
C82_8 C83_8 1_555 1_555
C83_8 C84_8 1_555 1_555
C84_8 H28_8 1_555 1_555
C85_8 C84_8 1_555 1_555
C86_8 C85_8 1_555 1_555
H29_8 C86_8 1_555 1_555
C87_8 C86_8 1_555 1_555
C88_8 C83_8 1_555 1_555
H30_8 C88_8 1_555 1_555
C89_8 N16_8 1_555 1_555
C90_8 C87_8 1_555 1_555
Zn8_9 O13_7 1_555 1_555
Zn9_7 O11_8 1_555 1_555
Zn14_8 O40_8 1_555 1_555
Zn15_7 O39_7 1_555 1_555
Zn16_8 O10_8 1_555 1_555
Zn17_8 O35_8 1_555 1_555
Zn18_7 O14_7 1_555 1_555
Zn19_8 O15_8 1_555 1_555
Zn24_11 O42_8 1_555 1_555
Zn25_2 O17_8 1_555 1_555
O54_7 Zn9_7 1_555 1_555
O57_6 Zn11_3 1_555 1_555
O58_7 Zn8_9 1_555 1_555
O59_7 Zn21_2 1_555 1_555
O61_9 Zn9_7 1_555 1_555
O63_9 Zn9_7 1_555 1_555
O65_9 Zn9_7 1_555 1_555
O66_7 Zn2_12 1_555 1_555
O67_7 Zn2_12 1_555 1_555
O68_5 Zn8_9 1_555 1_555
O69_5 Zn8_9 1_555 1_555
O72_7 Zn2_12 1_555 1_555
O73_7 Zn2_12 1_555 1_555
O74_5 Zn8_9 1_555 1_555
O75_5 Zn8_9 1_555 1_555
C15_8 C16_8 1_555 1_555
N6_8 C26_8 1_555 1_555
C24_8 C25_8 1_555 1_555
N7_8 C35_8 1_555 1_555
N8_8 C35_8 1_555 1_555
C33_8 C34_8 1_555 1_555
C69_8 C70_8 1_555 1_555
O36_8 Zn18_7 1_555 1_555
N18_8 C80_8 1_555 1_555
C78_8 C79_8 1_555 1_555
C78_8 C81_8 1_555 1_555
N19_8 C89_8 1_555 1_555
N20_8 C89_8 1_555 1_555
C87_8 C88_8 1_555 1_555
Zn16_8 O61_9 1_555 1_555
N3_8 H38_8 1_555 1_555
N5_8 H39_8 1_555 1_555
N7_8 H40_8 1_555 1_555
N15_8 H43_8 1_555 1_555
N19_8 H45_8 1_555 1_555
N17_8 H46_8 1_555 1_555
O54_5 C82_9 1_555 1_555
O40_9 C82_9 1_555 1_555
C82_9 C83_9 1_555 1_555
C83_9 C84_9 1_555 1_555
C84_9 H28_9 1_555 1_555
C88_9 C83_9 1_555 1_555
H30_9 C88_9 1_555 1_555
Zn14_9 O40_9 1_555 1_555
Zn24_13 O42_9 1_555 1_555
O61_10 Zn18_5 1_555 1_555
O63_10 Zn18_5 1_555 1_555
O65_10 Zn18_5 1_555 1_555
Zn17_5 O61_10 1_555 1_555
O35_9 C73_9 1_555 1_555
O36_9 C73_9 1_555 1_555
C73_9 C74_9 1_555 1_555
C74_9 C75_9 1_555 1_555
C75_9 H25_9 1_555 1_555
C79_9 C74_9 1_555 1_555
H27_9 C79_9 1_555 1_555
Zn17_9 O35_9 1_555 1_555
O36_9 Zn15_5 1_555 1_555
O29_9 C72_9 1_555 1_555
N15_9 C67_9 1_555 1_555
N16_9 C71_9 1_555 1_555
C68_9 C67_9 1_555 1_555
H23_9 C68_9 1_555 1_555
C69_9 C68_9 1_555 1_555
C71_9 N15_9 1_555 1_555
C72_9 C69_9 1_555 1_555
O37_9 C81_9 1_555 1_555
N17_9 C76_9 1_555 1_555
N18_9 C71_9 1_555 1_555
C77_9 C76_9 1_555 1_555
H26_9 C77_9 1_555 1_555
C78_9 C77_9 1_555 1_555
C80_9 N17_9 1_555 1_555
O41_9 C90_9 1_555 1_555
N19_9 C85_9 1_555 1_555
N20_9 C80_9 1_555 1_555
C86_9 C85_9 1_555 1_555
H29_9 C86_9 1_555 1_555
C87_9 C86_9 1_555 1_555
C89_9 N16_9 1_555 1_555
C90_9 C87_9 1_555 1_555
N18_9 C80_9 1_555 1_555
C78_9 C81_9 1_555 1_555
N19_9 C89_9 1_555 1_555
N20_9 C89_9 1_555 1_555
N15_9 H43_9 1_555 1_555
N19_9 H45_9 1_555 1_555
N17_9 H46_9 1_555 1_555
O55_2 C64_9 1_555 1_555
C64_9 O53_3 1_555 1_555
C65_9 C64_9 1_555 1_555
C66_9 C65_9 1_555 1_555
H22_9 C66_9 1_555 1_555
C70_9 C65_9 1_555 1_555
H24_9 C70_9 1_555 1_555
O57_6 C64_10 1_555 1_555
O29_10 C72_10 1_555 1_555
O58_7 C72_10 1_555 1_555
N15_10 C67_10 1_555 1_555
N16_10 C71_10 1_555 1_555
C64_10 O51_3 1_555 1_555
C65_10 C64_10 1_555 1_555
C66_10 C65_10 1_555 1_555
H22_10 C66_10 1_555 1_555
C67_10 C66_10 1_555 1_555
C68_10 C67_10 1_555 1_555
H23_10 C68_10 1_555 1_555
C69_10 C68_10 1_555 1_555
C70_10 C65_10 1_555 1_555
H24_10 C70_10 1_555 1_555
C71_10 N15_10 1_555 1_555
C72_10 C69_10 1_555 1_555
O35_10 C73_10 1_555 1_555
O36_10 C73_10 1_555 1_555
O37_10 C81_10 1_555 1_555
N17_10 C76_10 1_555 1_555
N18_10 C71_10 1_555 1_555
C73_10 C74_10 1_555 1_555
C74_10 C75_10 1_555 1_555
C75_10 H25_10 1_555 1_555
C76_10 C75_10 1_555 1_555
C77_10 C76_10 1_555 1_555
H26_10 C77_10 1_555 1_555
C78_10 C77_10 1_555 1_555
C79_10 C74_10 1_555 1_555
H27_10 C79_10 1_555 1_555
C80_10 N17_10 1_555 1_555
C81_10 O59_7 1_555 1_555
O54_7 C82_10 1_555 1_555
O40_10 C82_10 1_555 1_555
O41_10 C90_10 1_555 1_555
O42_10 C90_10 1_555 1_555
N19_10 C85_10 1_555 1_555
N20_10 C80_10 1_555 1_555
C82_10 C83_10 1_555 1_555
C83_10 C84_10 1_555 1_555
C84_10 H28_10 1_555 1_555
C85_10 C84_10 1_555 1_555
C86_10 C85_10 1_555 1_555
H29_10 C86_10 1_555 1_555
C87_10 C86_10 1_555 1_555
C88_10 C83_10 1_555 1_555
H30_10 C88_10 1_555 1_555
C89_10 N16_10 1_555 1_555
C90_10 C87_10 1_555 1_555
Zn14_10 O40_10 1_555 1_555
Zn17_10 O35_10 1_555 1_555
Zn24_16 O42_10 1_555 1_555
O61_11 Zn18_7 1_555 1_555
O63_11 Zn18_7 1_555 1_555
O65_11 Zn18_7 1_555 1_555
C69_10 C70_10 1_555 1_555
O36_10 Zn15_7 1_555 1_555
N18_10 C80_10 1_555 1_555
C78_10 C79_10 1_555 1_555
C78_10 C81_10 1_555 1_555
N19_10 C89_10 1_555 1_555
N20_10 C89_10 1_555 1_555
C87_10 C88_10 1_555 1_555
Zn17_8 O61_11 1_555 1_555
N15_10 H43_10 1_555 1_555
N19_10 H45_10 1_555 1_555
N17_10 H46_10 1_555 1_555
O53_4 C10_9 1_555 1_555
O57_5 C10_9 1_555 1_555
O3_9 C18_9 1_555 1_555
O58_6 C18_9 1_555 1_555
N3_9 C13_9 1_555 1_555
N4_9 C17_9 1_555 1_555
C10_9 C11_9 1_555 1_555
C11_9 C12_9 1_555 1_555
C12_9 H4_9 1_555 1_555
C13_9 C12_9 1_555 1_555
C14_9 C13_9 1_555 1_555
H5_9 C14_9 1_555 1_555
C15_9 C14_9 1_555 1_555
C16_9 C11_9 1_555 1_555
H6_9 C16_9 1_555 1_555
C17_9 N3_9 1_555 1_555
C18_9 C15_9 1_555 1_555
O10_9 C19_9 1_555 1_555
O11_9 C19_9 1_555 1_555
O12_9 C27_9 1_555 1_555
O59_6 C27_9 1_555 1_555
N5_9 C22_9 1_555 1_555
N6_9 C17_9 1_555 1_555
C19_9 C20_9 1_555 1_555
C20_9 C21_9 1_555 1_555
C21_9 H7_9 1_555 1_555
C22_9 C21_9 1_555 1_555
C23_9 C22_9 1_555 1_555
H8_9 C23_9 1_555 1_555
C24_9 C23_9 1_555 1_555
C25_9 C20_9 1_555 1_555
H9_9 C25_9 1_555 1_555
C26_9 N5_9 1_555 1_555
C27_9 C24_9 1_555 1_555
O54_6 C28_9 1_555 1_555
O15_9 C28_9 1_555 1_555
O16_9 C36_9 1_555 1_555
O17_9 C36_9 1_555 1_555
N7_9 C31_9 1_555 1_555
N8_9 C26_9 1_555 1_555
C28_9 C29_9 1_555 1_555
C29_9 C30_9 1_555 1_555
C30_9 H10_9 1_555 1_555
C31_9 C30_9 1_555 1_555
C32_9 C31_9 1_555 1_555
H11_9 C32_9 1_555 1_555
C33_9 C32_9 1_555 1_555
C34_9 C29_9 1_555 1_555
H12_9 C34_9 1_555 1_555
C35_9 N4_9 1_555 1_555
C36_9 C33_9 1_555 1_555
Zn15_6 O11_9 1_555 1_555
Zn16_9 O10_9 1_555 1_555
Zn19_9 O15_9 1_555 1_555
Zn26_12 O17_9 1_555 1_555
O61_12 Zn15_6 1_555 1_555
O63_12 Zn15_6 1_555 1_555
O65_12 Zn15_6 1_555 1_555
C15_9 C16_9 1_555 1_555
N6_9 C26_9 1_555 1_555
C24_9 C25_9 1_555 1_555
N7_9 C35_9 1_555 1_555
N8_9 C35_9 1_555 1_555
C33_9 C34_9 1_555 1_555
Zn16_9 O61_12 1_555 1_555
N3_9 H38_9 1_555 1_555
N5_9 H39_9 1_555 1_555
N7_9 H40_9 1_555 1_555
O61_13 Zn15_7 1_555 1_555
O63_13 Zn15_7 1_555 1_555
O65_13 Zn15_7 1_555 1_555
Zn17_10 O61_13 1_555 1_555
O57_3 C64_11 1_555 1_555
O29_11 C72_11 1_555 1_555
O58_3 C72_11 1_555 1_555
N15_11 C67_11 1_555 1_555
N16_11 C71_11 1_555 1_555
C64_11 O51 1_555 1_555
C65_11 C64_11 1_555 1_555
C66_11 C65_11 1_555 1_555
H22_11 C66_11 1_555 1_555
C67_11 C66_11 1_555 1_555
C68_11 C67_11 1_555 1_555
H23_11 C68_11 1_555 1_555
C69_11 C68_11 1_555 1_555
C70_11 C65_11 1_555 1_555
H24_11 C70_11 1_555 1_555
C71_11 N15_11 1_555 1_555
C72_11 C69_11 1_555 1_555
O35_11 C73_11 1_555 1_555
O36_11 C73_11 1_555 1_555
O37_11 C81_11 1_555 1_555
N17_11 C76_11 1_555 1_555
N18_11 C71_11 1_555 1_555
C73_11 C74_11 1_555 1_555
C74_11 C75_11 1_555 1_555
C75_11 H25_11 1_555 1_555
C76_11 C75_11 1_555 1_555
C77_11 C76_11 1_555 1_555
H26_11 C77_11 1_555 1_555
C78_11 C77_11 1_555 1_555
C79_11 C74_11 1_555 1_555
H27_11 C79_11 1_555 1_555
C80_11 N17_11 1_555 1_555
C81_11 O59_3 1_555 1_555
O54_3 C82_11 1_555 1_555
O40_11 C82_11 1_555 1_555
O41_11 C90_11 1_555 1_555
O42_11 C90_11 1_555 1_555
N19_11 C85_11 1_555 1_555
N20_11 C80_11 1_555 1_555
C82_11 C83_11 1_555 1_555
C83_11 C84_11 1_555 1_555
C84_11 H28_11 1_555 1_555
C85_11 C84_11 1_555 1_555
C86_11 C85_11 1_555 1_555
H29_11 C86_11 1_555 1_555
C87_11 C86_11 1_555 1_555
C88_11 C83_11 1_555 1_555
H30_11 C88_11 1_555 1_555
C89_11 N16_11 1_555 1_555
C90_11 C87_11 1_555 1_555
Zn14_11 O40_11 1_555 1_555
Zn17_11 O35_11 1_555 1_555
Zn24_17 O42_11 1_555 1_555
O61_14 Zn18_3 1_555 1_555
O63_14 Zn18_3 1_555 1_555
O65_14 Zn18_3 1_555 1_555
C69_11 C70_11 1_555 1_555
O36_11 Zn15_3 1_555 1_555
N18_11 C80_11 1_555 1_555
C78_11 C79_11 1_555 1_555
C78_11 C81_11 1_555 1_555
N19_11 C89_11 1_555 1_555
N20_11 C89_11 1_555 1_555
C87_11 C88_11 1_555 1_555
Zn17_3 O61_14 1_555 1_555
N15_11 H43_11 1_555 1_555
N19_11 H45_11 1_555 1_555
N17_11 H46_11 1_555 1_555
O61_15 Zn15_3 1_555 1_555
O63_15 Zn15_3 1_555 1_555
O65_15 Zn15_3 1_555 1_555
Zn17_11 O61_15 1_555 1_555
O61_16 Zn18_6 1_555 1_555
O63_16 Zn18_6 1_555 1_555
O65_16 Zn18_6 1_555 1_555
Zn17_6 O61_16 1_555 1_555
O57 C64_12 1_555 1_555
O29_12 C72_12 1_555 1_555
O58 C72_12 1_555 1_555
N15_12 C67_12 1_555 1_555
N16_12 C71_12 1_555 1_555
C64_12 O53 1_555 1_555
C65_12 C64_12 1_555 1_555
C66_12 C65_12 1_555 1_555
H22_12 C66_12 1_555 1_555
C67_12 C66_12 1_555 1_555
C68_12 C67_12 1_555 1_555
H23_12 C68_12 1_555 1_555
C69_12 C68_12 1_555 1_555
C70_12 C65_12 1_555 1_555
H24_12 C70_12 1_555 1_555
C71_12 N15_12 1_555 1_555
C72_12 C69_12 1_555 1_555
O35_12 C73_12 1_555 1_555
O36_12 C73_12 1_555 1_555
O37_12 C81_12 1_555 1_555
N17_12 C76_12 1_555 1_555
N18_12 C71_12 1_555 1_555
C73_12 C74_12 1_555 1_555
C74_12 C75_12 1_555 1_555
C75_12 H25_12 1_555 1_555
C76_12 C75_12 1_555 1_555
C77_12 C76_12 1_555 1_555
H26_12 C77_12 1_555 1_555
C78_12 C77_12 1_555 1_555
C79_12 C74_12 1_555 1_555
H27_12 C79_12 1_555 1_555
C80_12 N17_12 1_555 1_555
C81_12 O59 1_555 1_555
O54 C82_12 1_555 1_555
O40_12 C82_12 1_555 1_555
O41_12 C90_12 1_555 1_555
O42_12 C90_12 1_555 1_555
N19_12 C85_12 1_555 1_555
N20_12 C80_12 1_555 1_555
C82_12 C83_12 1_555 1_555
C83_12 C84_12 1_555 1_555
C84_12 H28_12 1_555 1_555
C85_12 C84_12 1_555 1_555
C86_12 C85_12 1_555 1_555
H29_12 C86_12 1_555 1_555
C87_12 C86_12 1_555 1_555
C88_12 C83_12 1_555 1_555
H30_12 C88_12 1_555 1_555
C89_12 N16_12 1_555 1_555
C90_12 C87_12 1_555 1_555
Zn14_12 O40_12 1_555 1_555
Zn17_12 O35_12 1_555 1_555
Zn20_2 O42_12 1_555 1_555
O61_17 Zn18 1_555 1_555
O63_17 Zn18 1_555 1_555
O65_17 Zn18 1_555 1_555
C69_12 C70_12 1_555 1_555
O36_12 Zn15 1_555 1_555
N18_12 C80_12 1_555 1_555
C78_12 C79_12 1_555 1_555
C78_12 C81_12 1_555 1_555
N19_12 C89_12 1_555 1_555
N20_12 C89_12 1_555 1_555
C87_12 C88_12 1_555 1_555
Zn17 O61_17 1_555 1_555
N15_12 H43_12 1_555 1_555
N19_12 H45_12 1_555 1_555
N17_12 H46_12 1_555 1_555
O61_18 Zn15 1_555 1_555
O63_18 Zn15 1_555 1_555
O65_18 Zn15 1_555 1_555
Zn17_12 O61_18 1_555 1_555
O61_19 Zn15_5 1_555 1_555
O63_19 Zn15_5 1_555 1_555
O65_19 Zn15_5 1_555 1_555
Zn17_9 O61_19 1_555 1_555
O51_5 Zn12_2 1_555 1_555
O56_5 Zn12_2 1_555 1_555
O10_10 C19_10 1_555 1_555
O11_10 C19_10 1_555 1_555
C19_10 C20_10 1_555 1_555
C20_10 C21_10 1_555 1_555
C21_10 H7_10 1_555 1_555
C25_10 C20_10 1_555 1_555
H9_10 C25_10 1_555 1_555
O39_8 C82_13 1_555 1_555
O40_13 C82_13 1_555 1_555
C82_13 C83_13 1_555 1_555
C83_13 C84_13 1_555 1_555
C84_13 H28_13 1_555 1_555
C88_13 C83_13 1_555 1_555
H30_13 C88_13 1_555 1_555
Zn8_10 O13_8 1_555 1_555
Zn9_8 O11_10 1_555 1_555
Zn14_13 O40_13 1_555 1_555
Zn15_8 O39_8 1_555 1_555
Zn16_10 O10_10 1_555 1_555
Zn24_18 O42_13 1_555 1_555
O54_8 Zn9_8 1_555 1_555
O59_8 Zn6_10 1_555 1_555
O61_20 Zn9_8 1_555 1_555
O63_20 Zn9_8 1_555 1_555
O65_20 Zn9_8 1_555 1_555
O68_6 Zn8_10 1_555 1_555
O71_6 Zn6_10 1_555 1_555
O74_6 Zn8_10 1_555 1_555
O76_7 Zn6_10 1_555 1_555
Zn16_10 O61_20 1_555 1_555
Zn20 O4_8 1_555 1_555
O51_4 C10_10 1_555 1_555
O55_4 C10_10 1_555 1_555
O3_10 C18_10 1_555 1_555
O4_8 C18_10 1_555 1_555
N3_10 C13_10 1_555 1_555
N4_10 C17_10 1_555 1_555
C10_10 C11_10 1_555 1_555
C11_10 C12_10 1_555 1_555
C12_10 H4_10 1_555 1_555
C13_10 C12_10 1_555 1_555
C14_10 C13_10 1_555 1_555
H5_10 C14_10 1_555 1_555
C15_10 C14_10 1_555 1_555
C16_10 C11_10 1_555 1_555
H6_10 C16_10 1_555 1_555
C17_10 N3_10 1_555 1_555
C18_10 C15_10 1_555 1_555
O12_10 C27_10 1_555 1_555
N5_10 C22_10 1_555 1_555
N6_10 C17_10 1_555 1_555
C23_10 C22_10 1_555 1_555
H8_10 C23_10 1_555 1_555
C24_10 C23_10 1_555 1_555
C26_10 N5_10 1_555 1_555
C27_10 C24_10 1_555 1_555
O14_8 C28_10 1_555 1_555
O15_10 C28_10 1_555 1_555
O16_10 C36_10 1_555 1_555
O17_10 C36_10 1_555 1_555
N7_10 C31_10 1_555 1_555
N8_10 C26_10 1_555 1_555
C28_10 C29_10 1_555 1_555
C29_10 C30_10 1_555 1_555
C30_10 H10_10 1_555 1_555
C31_10 C30_10 1_555 1_555
C32_10 C31_10 1_555 1_555
H11_10 C32_10 1_555 1_555
C33_10 C32_10 1_555 1_555
C34_10 C29_10 1_555 1_555
H12_10 C34_10 1_555 1_555
C35_10 N4_10 1_555 1_555
C36_10 C33_10 1_555 1_555
Zn6_11 O30_8 1_555 1_555
O56_5 C64_13 1_555 1_555
O29_13 C72_13 1_555 1_555
O30_8 C72_13 1_555 1_555
N15_13 C67_13 1_555 1_555
N16_13 C71_13 1_555 1_555
C64_13 O52_4 1_555 1_555
C65_13 C64_13 1_555 1_555
C66_13 C65_13 1_555 1_555
H22_13 C66_13 1_555 1_555
C67_13 C66_13 1_555 1_555
C68_13 C67_13 1_555 1_555
H23_13 C68_13 1_555 1_555
C69_13 C68_13 1_555 1_555
C70_13 C65_13 1_555 1_555
H24_13 C70_13 1_555 1_555
C71_13 N15_13 1_555 1_555
C72_13 C69_13 1_555 1_555
O35_13 C73_13 1_555 1_555
O36_13 C73_13 1_555 1_555
O37_13 C81_13 1_555 1_555
O38_8 Zn20 1_555 1_555
N17_13 C76_13 1_555 1_555
N18_13 C71_13 1_555 1_555
C73_13 C74_13 1_555 1_555
C74_13 C75_13 1_555 1_555
C75_13 H25_13 1_555 1_555
C76_13 C75_13 1_555 1_555
C77_13 C76_13 1_555 1_555
H26_13 C77_13 1_555 1_555
C78_13 C77_13 1_555 1_555
C79_13 C74_13 1_555 1_555
H27_13 C79_13 1_555 1_555
C80_13 N17_13 1_555 1_555
C81_13 O38_8 1_555 1_555
O41_13 C90_13 1_555 1_555
N19_13 C85_13 1_555 1_555
N20_13 C80_13 1_555 1_555
C86_13 C85_13 1_555 1_555
H29_13 C86_13 1_555 1_555
C87_13 C86_13 1_555 1_555
C89_13 N16_13 1_555 1_555
C90_13 C87_13 1_555 1_555
Zn17_13 O35_13 1_555 1_555
Zn18_8 O14_8 1_555 1_555
Zn19_10 O15_10 1_555 1_555
Zn26_14 O17_10 1_555 1_555
O58_8 Zn8_11 1_555 1_555
O69_6 Zn8_11 1_555 1_555
O70_7 Zn6_11 1_555 1_555
O75_6 Zn8_11 1_555 1_555
O77_6 Zn6_11 1_555 1_555
C15_10 C16_10 1_555 1_555
N6_10 C26_10 1_555 1_555
N7_10 C35_10 1_555 1_555
N8_10 C35_10 1_555 1_555
C33_10 C34_10 1_555 1_555
C69_13 C70_13 1_555 1_555
O36_13 Zn18_8 1_555 1_555
N18_13 C80_13 1_555 1_555
C78_13 C79_13 1_555 1_555
C78_13 C81_13 1_555 1_555
N19_13 C89_13 1_555 1_555
N20_13 C89_13 1_555 1_555
N3_10 H38_10 1_555 1_555
N5_10 H39_10 1_555 1_555
N7_10 H40_10 1_555 1_555
N15_13 H43_13 1_555 1_555
N19_13 H45_13 1_555 1_555
N17_13 H46_13 1_555 1_555
O29_14 C72_14 1_555 1_555
N15_14 C67_14 1_555 1_555
N16_14 C71_14 1_555 1_555
C68_14 C67_14 1_555 1_555
H23_14 C68_14 1_555 1_555
C69_14 C68_14 1_555 1_555
C71_14 N15_14 1_555 1_555
C72_14 C69_14 1_555 1_555
O35_14 C73_14 1_555 1_555
O36_14 C73_14 1_555 1_555
O37_14 C81_14 1_555 1_555
N17_14 C76_14 1_555 1_555
N18_14 C71_14 1_555 1_555
C73_14 C74_14 1_555 1_555
C74_14 C75_14 1_555 1_555
C75_14 H25_14 1_555 1_555
C76_14 C75_14 1_555 1_555
C77_14 C76_14 1_555 1_555
H26_14 C77_14 1_555 1_555
C78_14 C77_14 1_555 1_555
C79_14 C74_14 1_555 1_555
H27_14 C79_14 1_555 1_555
C80_14 N17_14 1_555 1_555
C81_14 O59_8 1_555 1_555
O54_8 C82_14 1_555 1_555
O40_14 C82_14 1_555 1_555
O41_14 C90_14 1_555 1_555
O42_14 C90_14 1_555 1_555
N19_14 C85_14 1_555 1_555
N20_14 C80_14 1_555 1_555
C82_14 C83_14 1_555 1_555
C83_14 C84_14 1_555 1_555
C84_14 H28_14 1_555 1_555
C85_14 C84_14 1_555 1_555
C86_14 C85_14 1_555 1_555
H29_14 C86_14 1_555 1_555
C87_14 C86_14 1_555 1_555
C88_14 C83_14 1_555 1_555
H30_14 C88_14 1_555 1_555
C89_14 N16_14 1_555 1_555
C90_14 C87_14 1_555 1_555
Zn14_14 O40_14 1_555 1_555
Zn17_14 O35_14 1_555 1_555
Zn23 O42_14 1_555 1_555
O36_14 Zn15_8 1_555 1_555
N18_14 C80_14 1_555 1_555
C78_14 C79_14 1_555 1_555
C78_14 C81_14 1_555 1_555
N19_14 C89_14 1_555 1_555
N20_14 C89_14 1_555 1_555
C87_14 C88_14 1_555 1_555
N15_14 H43_14 1_555 1_555
N19_14 H45_14 1_555 1_555
N17_14 H46_14 1_555 1_555
O56_4 C64_14 1_555 1_555
C64_14 O51_5 1_555 1_555
C65_14 C64_14 1_555 1_555
C66_14 C65_14 1_555 1_555
H22_14 C66_14 1_555 1_555
C70_14 C65_14 1_555 1_555
H24_14 C70_14 1_555 1_555
O61_21 Zn18_8 1_555 1_555
O63_21 Zn18_8 1_555 1_555
O65_21 Zn18_8 1_555 1_555
Zn17_13 O61_21 1_555 1_555
O61_22 Zn18_2 1_555 1_555
O63_22 Zn18_2 1_555 1_555
O65_22 Zn18_2 1_555 1_555
Zn17_2 O61_22 1_555 1_555
O61_23 Zn15_8 1_555 1_555
O63_23 Zn15_8 1_555 1_555
O65_23 Zn15_8 1_555 1_555
Zn17_14 O61_23 1_555 1_555
O61_24 Zn15_4 1_555 1_555
O63_24 Zn15_4 1_555 1_555
O65_24 Zn15_4 1_555 1_555
Zn17_7 O61_24 1_555 1_555
O34_5 C63_5 1_555 1_555
N13_5 C60_5 1_555 1_555
N14_5 C62_5 1_555 1_555
C59_5 C58_5 1_555 1_555
H20_5 C59_5 1_555 1_555
C60_5 C59_5 1_555 1_555
H21_5 C61_5 1_555 1_555
C62_5 N13_5 1_555 1_555
C63_5 C58_5 1_555 1_555
O76_5 C99_5 1_555 1_555
N21_5 C96_5 1_555 1_555
N22_5 C98_5 1_555 1_555
C95_5 C94_5 1_555 1_555
H32_5 C95_5 1_555 1_555
C96_5 C95_5 1_555 1_555
H33_5 C97_5 1_555 1_555
C98_5 N14_5 1_555 1_555
C99_5 C94_5 1_555 1_555
O63_15 C100_5 1_555 1_555
O65_15 C100_5 1_555 1_555
O49_5 C108_5 1_555 1_555
O50_5 C108_5 1_555 1_555
N23_5 C105_5 1_555 1_555
N24_5 C62_5 1_555 1_555
C100_5 C101_5 1_555 1_555
C101_5 C102_5 1_555 1_555
C102_5 H34_5 1_555 1_555
C103_5 C102_5 1_555 1_555
C104_5 C103_5 1_555 1_555
H35_5 C104_5 1_555 1_555
C105_5 C104_5 1_555 1_555
C106_5 C101_5 1_555 1_555
H36_5 C106_5 1_555 1_555
C107_5 N22_5 1_555 1_555
C108_5 C103_5 1_555 1_555
Zn26_10 O49_5 1_555 1_555
O34_5 Zn26_13 1_555 1_555
C60_5 C61_5 1_555 1_555
N21_5 C98_5 1_555 1_555
C96_5 C97_5 1_555 1_555
O50_5 Zn26_10 1_555 1_555
N23_5 C107_5 1_555 1_555
N24_5 C107_5 1_555 1_555
C105_5 C106_5 1_555 1_555
N13_5 H44_5 1_555 1_555
N23_5 H47_5 1_555 1_555
N21_5 H48_5 1_555 1_555
Zn14_6 O1_7 1_555 1_555
Zn26_12 O4_9 1_555 1_555
O1_7 C10_11 1_555 1_555
O2_6 C10_11 1_555 1_555
O3_11 C18_11 1_555 1_555
O4_9 C18_11 1_555 1_555
O61_12 Zn14_6 1_555 1_555
O6_5 Zn14_6 1_555 1_555
O7_5 Zn14_6 1_555 1_555
N3_11 C13_11 1_555 1_555
N4_11 C17_11 1_555 1_555
C1_5 O6_5 1_555 1_555
C2_5 C1_5 1_555 1_555
C3_5 C2_5 1_555 1_555
H1_5 C3_5 1_555 1_555
C10_11 C11_11 1_555 1_555
C11_11 C12_11 1_555 1_555
C12_11 H4_11 1_555 1_555
C13_11 C12_11 1_555 1_555
C14_11 C13_11 1_555 1_555
H5_11 C14_11 1_555 1_555
C15_11 C14_11 1_555 1_555
C16_11 C11_11 1_555 1_555
H6_11 C16_11 1_555 1_555
C17_11 N3_11 1_555 1_555
C18_11 C15_11 1_555 1_555
O10_11 C19_11 1_555 1_555
O11_11 C19_11 1_555 1_555
O12_11 C27_11 1_555 1_555
O13_9 C27_11 1_555 1_555
N5_11 C22_11 1_555 1_555
N6_11 C17_11 1_555 1_555
C19_11 C20_11 1_555 1_555
C20_11 C21_11 1_555 1_555
C21_11 H7_11 1_555 1_555
C22_11 C21_11 1_555 1_555
C23_11 C22_11 1_555 1_555
H8_11 C23_11 1_555 1_555
C24_11 C23_11 1_555 1_555
C25_11 C20_11 1_555 1_555
H9_11 C25_11 1_555 1_555
C26_11 N5_11 1_555 1_555
C27_11 C24_11 1_555 1_555
O14_9 C28_11 1_555 1_555
O15_11 C28_11 1_555 1_555
O16_11 C36_11 1_555 1_555
O17_11 C36_11 1_555 1_555
N7_11 C31_11 1_555 1_555
N8_11 C26_11 1_555 1_555
C28_11 C29_11 1_555 1_555
C29_11 C30_11 1_555 1_555
C30_11 H10_11 1_555 1_555
C31_11 C30_11 1_555 1_555
C32_11 C31_11 1_555 1_555
H11_11 C32_11 1_555 1_555
C33_11 C32_11 1_555 1_555
C34_11 C29_11 1_555 1_555
H12_11 C34_11 1_555 1_555
C35_11 N4_11 1_555 1_555
C36_11 C33_11 1_555 1_555
Zn16_9 O2_6 1_555 1_555
O31_5 Zn16_9 1_555 1_555
O32_5 Zn16_9 1_555 1_555
C55_5 O31_5 1_555 1_555
C56_5 C55_5 1_555 1_555
C57_5 C56_5 1_555 1_555
H19_5 C57_5 1_555 1_555
Zn22_2 O13_9 1_555 1_555
Zn17_6 O11_11 1_555 1_555
Zn19_6 O10_11 1_555 1_555
Zn19_9 O14_9 1_555 1_555
Zn16_6 O15_11 1_555 1_555
Zn26_14 O33_5 1_555 1_555
Zn26_9 O17_11 1_555 1_555
O63_25 Zn17_6 1_555 1_555
O65_25 Zn17_6 1_555 1_555
O7_5 C1_5 1_555 1_555
C15_11 C16_11 1_555 1_555
N6_11 C26_11 1_555 1_555
C24_11 C25_11 1_555 1_555
N7_11 C35_11 1_555 1_555
N8_11 C35_11 1_555 1_555
C33_11 C34_11 1_555 1_555
O32_5 C55_5 1_555 1_555
Zn19_6 O61_16 1_555 1_555
N3_11 H38_11 1_555 1_555
N5_11 H39_11 1_555 1_555
N7_11 H40_11 1_555 1_555
O22_5 C46_5 1_555 1_555
O23_5 C46_5 1_555 1_555
C46_5 C47_5 1_555 1_555
C47_5 C48_5 1_555 1_555
C48_5 H16_5 1_555 1_555
Zn17_12 O22_5 1_555 1_555
O43_5 C91_5 1_555 1_555
O44_5 C91_5 1_555 1_555
C91_5 C92_5 1_555 1_555
C92_5 C93_5 1_555 1_555
C93_5 H31_5 1_555 1_555
Zn14 O43_5 1_555 1_555
O55_5 Zn17_12 1_555 1_555
O23_5 Zn17_12 1_555 1_555
O44_5 Zn14 1_555 1_555
Zn14 O61_18 1_555 1_555
O77_4 C9_5 1_555 1_555
N1_5 C6_5 1_555 1_555
N2_5 C8_5 1_555 1_555
C5_5 C4_5 1_555 1_555
H2_5 C5_5 1_555 1_555
C6_5 C5_5 1_555 1_555
H3_5 C7_5 1_555 1_555
C8_5 N1_5 1_555 1_555
C9_5 C4_5 1_555 1_555
O63_13 C37_5 1_555 1_555
O65_13 C37_5 1_555 1_555
O66_2 C45_5 1_555 1_555
O72_2 C45_5 1_555 1_555
N9_5 C42_5 1_555 1_555
N10_5 C44_5 1_555 1_555
C37_5 C38_5 1_555 1_555
C38_5 C39_5 1_555 1_555
C39_5 H13_5 1_555 1_555
C40_5 C39_5 1_555 1_555
C41_5 C40_5 1_555 1_555
H14_5 C41_5 1_555 1_555
C42_5 C41_5 1_555 1_555
C43_5 C38_5 1_555 1_555
H15_5 C43_5 1_555 1_555
C44_5 N2_5 1_555 1_555
C45_5 C40_5 1_555 1_555
O77_6 C54_5 1_555 1_555
N11_5 C51_5 1_555 1_555
N12_5 C8_5 1_555 1_555
C50_5 C49_5 1_555 1_555
H17_5 C50_5 1_555 1_555
C51_5 C50_5 1_555 1_555
H18_5 C52_5 1_555 1_555
C53_5 N10_5 1_555 1_555
C54_5 C49_5 1_555 1_555
Zn14_8 O61_13 1_555 1_555
C6_5 C7_5 1_555 1_555
N9_5 C44_5 1_555 1_555
C42_5 C43_5 1_555 1_555
N11_5 C53_5 1_555 1_555
N12_5 C53_5 1_555 1_555
C51_5 C52_5 1_555 1_555
N1_5 H37_5 1_555 1_555
N9_5 H41_5 1_555 1_555
N11_5 H42_5 1_555 1_555
O68 C9_6 1_555 1_555
O74 C9_6 1_555 1_555
N1_6 C6_6 1_555 1_555
N2_6 C8_6 1_555 1_555
C1_6 O63_20 1_555 1_555
C2_6 C1_6 1_555 1_555
C3_6 C2_6 1_555 1_555
H1_6 C3_6 1_555 1_555
C4_6 C3_6 1_555 1_555
C5_6 C4_6 1_555 1_555
H2_6 C5_6 1_555 1_555
C6_6 C5_6 1_555 1_555
C7_6 C2_6 1_555 1_555
H3_6 C7_6 1_555 1_555
C8_6 N1_6 1_555 1_555
C9_6 C4_6 1_555 1_555
O18_3 C37_6 1_555 1_555
O19_3 C37_6 1_555 1_555
O67_8 C45_6 1_555 1_555
O73_8 C45_6 1_555 1_555
N9_6 C42_6 1_555 1_555
N10_6 C44_6 1_555 1_555
C37_6 C38_6 1_555 1_555
C38_6 C39_6 1_555 1_555
C39_6 H13_6 1_555 1_555
C40_6 C39_6 1_555 1_555
C41_6 C40_6 1_555 1_555
H14_6 C41_6 1_555 1_555
C42_6 C41_6 1_555 1_555
C43_6 C38_6 1_555 1_555
H15_6 C43_6 1_555 1_555
C44_6 N2_6 1_555 1_555
C45_6 C40_6 1_555 1_555
O22_6 C46_6 1_555 1_555
O23_6 C46_6 1_555 1_555
O24_4 C54_6 1_555 1_555
O25_4 C54_6 1_555 1_555
N11_6 C51_6 1_555 1_555
N12_6 C8_6 1_555 1_555
C46_6 C47_6 1_555 1_555
C47_6 C48_6 1_555 1_555
C48_6 H16_6 1_555 1_555
C49_6 C48_6 1_555 1_555
C50_6 C49_6 1_555 1_555
H17_6 C50_6 1_555 1_555
C51_6 C50_6 1_555 1_555
C52_6 C47_6 1_555 1_555
H18_6 C52_6 1_555 1_555
C53_6 N10_6 1_555 1_555
C54_6 C49_6 1_555 1_555
Zn17_9 O18_3 1_555 1_555
Zn14_7 O22_6 1_555 1_555
Zn26_13 O30_9 1_555 1_555
O27_6 Zn14_14 1_555 1_555
O28_5 C64_15 1_555 1_555
O29_15 C72_15 1_555 1_555
O30_9 C72_15 1_555 1_555
O31_6 Zn14_14 1_555 1_555
O32_6 Zn14_14 1_555 1_555
O71_2 C63_6 1_555 1_555
O77_2 C63_6 1_555 1_555
N13_6 C60_6 1_555 1_555
N14_6 C62_6 1_555 1_555
N15_15 C67_15 1_555 1_555
N16_15 C71_15 1_555 1_555
C55_6 O31_6 1_555 1_555
C56_6 C55_6 1_555 1_555
C57_6 C56_6 1_555 1_555
H19_6 C57_6 1_555 1_555
C58_6 C57_6 1_555 1_555
C59_6 C58_6 1_555 1_555
H20_6 C59_6 1_555 1_555
C60_6 C59_6 1_555 1_555
C61_6 C56_6 1_555 1_555
H21_6 C61_6 1_555 1_555
C62_6 N13_6 1_555 1_555
C63_6 C58_6 1_555 1_555
C64_15 O27_6 1_555 1_555
C65_15 C64_15 1_555 1_555
C66_15 C65_15 1_555 1_555
H22_15 C66_15 1_555 1_555
C67_15 C66_15 1_555 1_555
C68_15 C67_15 1_555 1_555
H23_15 C68_15 1_555 1_555
C69_15 C68_15 1_555 1_555
C70_15 C65_15 1_555 1_555
H24_15 C70_15 1_555 1_555
C71_15 N15_15 1_555 1_555
C72_15 C69_15 1_555 1_555
O35_15 C73_15 1_555 1_555
O36_15 C73_15 1_555 1_555
O37_15 C81_15 1_555 1_555
O38_9 Zn23 1_555 1_555
N17_15 C76_15 1_555 1_555
N18_15 C71_15 1_555 1_555
C73_15 C74_15 1_555 1_555
C74_15 C75_15 1_555 1_555
C75_15 H25_15 1_555 1_555
C76_15 C75_15 1_555 1_555
C77_15 C76_15 1_555 1_555
H26_15 C77_15 1_555 1_555
C78_15 C77_15 1_555 1_555
C79_15 C74_15 1_555 1_555
H27_15 C79_15 1_555 1_555
C80_15 N17_15 1_555 1_555
C81_15 O38_9 1_555 1_555
O41_15 C90_15 1_555 1_555
N19_15 C85_15 1_555 1_555
N20_15 C80_15 1_555 1_555
C86_15 C85_15 1_555 1_555
H29_15 C86_15 1_555 1_555
C87_15 C86_15 1_555 1_555
C89_15 N16_15 1_555 1_555
C90_15 C87_15 1_555 1_555
O63_4 C91_6 1_555 1_555
O65_4 C91_6 1_555 1_555
O69 C99_6 1_555 1_555
O75 C99_6 1_555 1_555
N21_6 C96_6 1_555 1_555
N22_6 C98_6 1_555 1_555
C91_6 C92_6 1_555 1_555
C92_6 C93_6 1_555 1_555
C93_6 H31_6 1_555 1_555
C94_6 C93_6 1_555 1_555
C95_6 C94_6 1_555 1_555
H32_6 C95_6 1_555 1_555
C96_6 C95_6 1_555 1_555
C97_6 C92_6 1_555 1_555
H33_6 C97_6 1_555 1_555
C98_6 N14_6 1_555 1_555
C99_6 C94_6 1_555 1_555
O47_5 C100_6 1_555 1_555
O48_5 C100_6 1_555 1_555
O66_6 C108_6 1_555 1_555
O72_6 C108_6 1_555 1_555
N23_6 C105_6 1_555 1_555
N24_6 C62_6 1_555 1_555
C100_6 C101_6 1_555 1_555
C101_6 C102_6 1_555 1_555
C102_6 H34_6 1_555 1_555
C103_6 C102_6 1_555 1_555
C104_6 C103_6 1_555 1_555
H35_6 C104_6 1_555 1_555
C105_6 C104_6 1_555 1_555
C106_6 C101_6 1_555 1_555
H36_6 C106_6 1_555 1_555
C107_6 N22_6 1_555 1_555
C108_6 C103_6 1_555 1_555
Zn16_2 O47_5 1_555 1_555
Zn14_5 O61_19 1_555 1_555
Zn14_13 O35_15 1_555 1_555
O52_5 Zn14_7 1_555 1_555
O56_6 Zn17_9 1_555 1_555
O61_4 Zn14_7 1_555 1_555
O62_3 Zn16_10 1_555 1_555
O64_3 Zn16_10 1_555 1_555
O70_8 Zn26_13 1_555 1_555
O61_20 Zn14_14 1_555 1_555
O65_20 C1_6 1_555 1_555
C6_6 C7_6 1_555 1_555
O19_3 Zn17_9 1_555 1_555
N9_6 C44_6 1_555 1_555
C42_6 C43_6 1_555 1_555
O23_6 Zn14_7 1_555 1_555
N11_6 C53_6 1_555 1_555
N12_6 C53_6 1_555 1_555
C51_6 C52_6 1_555 1_555
O28_5 Zn16_10 1_555 1_555
O32_6 C55_6 1_555 1_555
C60_6 C61_6 1_555 1_555
C69_15 C70_15 1_555 1_555
O36_15 Zn17_14 1_555 1_555
N18_15 C80_15 1_555 1_555
C78_15 C79_15 1_555 1_555
C78_15 C81_15 1_555 1_555
N19_15 C89_15 1_555 1_555
N20_15 C89_15 1_555 1_555
N21_6 C98_6 1_555 1_555
C96_6 C97_6 1_555 1_555
O48_5 Zn16_2 1_555 1_555
N23_6 C107_6 1_555 1_555
N24_6 C107_6 1_555 1_555
C105_6 C106_6 1_555 1_555
N1_6 H37_6 1_555 1_555
N9_6 H41_6 1_555 1_555
N11_6 H42_6 1_555 1_555
N15_15 H43_15 1_555 1_555
N13_6 H44_6 1_555 1_555
N19_15 H45_15 1_555 1_555
N17_15 H46_15 1_555 1_555
N23_6 H47_6 1_555 1_555
N21_6 H48_6 1_555 1_555
O39_9 C82_15 1_555 1_555
O40_15 C82_15 1_555 1_555
C82_15 C83_15 1_555 1_555
C83_15 C84_15 1_555 1_555
C84_15 H28_15 1_555 1_555
C88_15 C83_15 1_555 1_555
H30_15 C88_15 1_555 1_555
Zn17_13 O40_15 1_555 1_555
Zn19_10 O39_9 1_555 1_555
Zn24_19 O42_15 1_555 1_555
O76_8 Zn26_14 1_555 1_555
O22_7 C46_7 1_555 1_555
O23_7 C46_7 1_555 1_555
C46_7 C47_7 1_555 1_555
C47_7 C48_7 1_555 1_555
C48_7 H16_7 1_555 1_555
Zn17_11 O22_7 1_555 1_555
O43_6 C91_7 1_555 1_555
O44_6 C91_7 1_555 1_555
C91_7 C92_7 1_555 1_555
C92_7 C93_7 1_555 1_555
C93_7 H31_7 1_555 1_555
Zn14_3 O43_6 1_555 1_555
O55_6 Zn17_11 1_555 1_555
O23_7 Zn17_11 1_555 1_555
O44_6 Zn14_3 1_555 1_555
O45_5 Zn26_5 1_555 1_555
Zn14_3 O61_15 1_555 1_555
O9_5 C9_7 1_555 1_555
N1_7 C6_7 1_555 1_555
N2_7 C8_7 1_555 1_555
C5_7 C4_7 1_555 1_555
H2_7 C5_7 1_555 1_555
C6_7 C5_7 1_555 1_555
H3_7 C7_7 1_555 1_555
C8_7 N1_7 1_555 1_555
C9_7 C4_7 1_555 1_555
O63_12 C37_7 1_555 1_555
O65_12 C37_7 1_555 1_555
O67_2 C45_7 1_555 1_555
O73_2 C45_7 1_555 1_555
N9_7 C42_7 1_555 1_555
N10_7 C44_7 1_555 1_555
C37_7 C38_7 1_555 1_555
C38_7 C39_7 1_555 1_555
C39_7 H13_7 1_555 1_555
C40_7 C39_7 1_555 1_555
C41_7 C40_7 1_555 1_555
H14_7 C41_7 1_555 1_555
C42_7 C41_7 1_555 1_555
C43_7 C38_7 1_555 1_555
H15_7 C43_7 1_555 1_555
C44_7 N2_7 1_555 1_555
C45_7 C40_7 1_555 1_555
O76_8 C54_7 1_555 1_555
N11_7 C51_7 1_555 1_555
N12_7 C8_7 1_555 1_555
C50_7 C49_7 1_555 1_555
H17_7 C50_7 1_555 1_555
C51_7 C50_7 1_555 1_555
H18_7 C52_7 1_555 1_555
C53_7 N10_7 1_555 1_555
C54_7 C49_7 1_555 1_555
O9_5 Zn26_6 1_555 1_555
C6_7 C7_7 1_555 1_555
N9_7 C44_7 1_555 1_555
C42_7 C43_7 1_555 1_555
N11_7 C53_7 1_555 1_555
N12_7 C53_7 1_555 1_555
C51_7 C52_7 1_555 1_555
N1_7 H37_7 1_555 1_555
N9_7 H41_7 1_555 1_555
N11_7 H42_7 1_555 1_555
O76_7 C63_7 1_555 1_555
N13_7 C60_7 1_555 1_555
N14_7 C62_7 1_555 1_555
C59_7 C58_7 1_555 1_555
H20_7 C59_7 1_555 1_555
C60_7 C59_7 1_555 1_555
H21_7 C61_7 1_555 1_555
C62_7 N13_7 1_555 1_555
C63_7 C58_7 1_555 1_555
O46_5 C99_7 1_555 1_555
N21_7 C96_7 1_555 1_555
N22_7 C98_7 1_555 1_555
C95_7 C94_7 1_555 1_555
H32_7 C95_7 1_555 1_555
C96_7 C95_7 1_555 1_555
H33_7 C97_7 1_555 1_555
C98_7 N14_7 1_555 1_555
C99_7 C94_7 1_555 1_555
O63_18 C100_7 1_555 1_555
O65_18 C100_7 1_555 1_555
O49_6 C108_7 1_555 1_555
O50_6 C108_7 1_555 1_555
N23_7 C105_7 1_555 1_555
N24_7 C62_7 1_555 1_555
C100_7 C101_7 1_555 1_555
C101_7 C102_7 1_555 1_555
C102_7 H34_7 1_555 1_555
C103_7 C102_7 1_555 1_555
C104_7 C103_7 1_555 1_555
H35_7 C104_7 1_555 1_555
C105_7 C104_7 1_555 1_555
C106_7 C101_7 1_555 1_555
H36_7 C106_7 1_555 1_555
C107_7 N22_7 1_555 1_555
C108_7 C103_7 1_555 1_555
Zn26_11 O49_6 1_555 1_555
C60_7 C61_7 1_555 1_555
O46_5 Zn26_7 1_555 1_555
N21_7 C98_7 1_555 1_555
C96_7 C97_7 1_555 1_555
O50_6 Zn26_11 1_555 1_555
N23_7 C107_7 1_555 1_555
N24_7 C107_7 1_555 1_555
C105_7 C106_7 1_555 1_555
N13_7 H44_7 1_555 1_555
N23_7 H47_7 1_555 1_555
N21_7 H48_7 1_555 1_555
Zn14_8 O1_8 1_555 1_555
Zn24_16 O4_10 1_555 1_555
O1_8 C10_12 1_555 1_555
O2_7 C10_12 1_555 1_555
O3_12 C18_12 1_555 1_555
O4_10 C18_12 1_555 1_555
O6_6 Zn14_8 1_555 1_555
O7_6 Zn14_8 1_555 1_555
N3_12 C13_12 1_555 1_555
N4_12 C17_12 1_555 1_555
C1_7 O6_6 1_555 1_555
C2_7 C1_7 1_555 1_555
C3_7 C2_7 1_555 1_555
H1_7 C3_7 1_555 1_555
C10_12 C11_12 1_555 1_555
C11_12 C12_12 1_555 1_555
C12_12 H4_12 1_555 1_555
C13_12 C12_12 1_555 1_555
C14_12 C13_12 1_555 1_555
H5_12 C14_12 1_555 1_555
C15_12 C14_12 1_555 1_555
C16_12 C11_12 1_555 1_555
H6_12 C16_12 1_555 1_555
C17_12 N3_12 1_555 1_555
C18_12 C15_12 1_555 1_555
O10_12 C19_12 1_555 1_555
O11_12 C19_12 1_555 1_555
O12_12 C27_12 1_555 1_555
O13_10 C27_12 1_555 1_555
N5_12 C22_12 1_555 1_555
N6_12 C17_12 1_555 1_555
C19_12 C20_12 1_555 1_555
C20_12 C21_12 1_555 1_555
C21_12 H7_12 1_555 1_555
C22_12 C21_12 1_555 1_555
C23_12 C22_12 1_555 1_555
H8_12 C23_12 1_555 1_555
C24_12 C23_12 1_555 1_555
C25_12 C20_12 1_555 1_555
H9_12 C25_12 1_555 1_555
C26_12 N5_12 1_555 1_555
C27_12 C24_12 1_555 1_555
O14_10 C28_12 1_555 1_555
O15_12 C28_12 1_555 1_555
O16_12 C36_12 1_555 1_555
O17_12 C36_12 1_555 1_555
N7_12 C31_12 1_555 1_555
N8_12 C26_12 1_555 1_555
C28_12 C29_12 1_555 1_555
C29_12 C30_12 1_555 1_555
C30_12 H10_12 1_555 1_555
C31_12 C30_12 1_555 1_555
C32_12 C31_12 1_555 1_555
H11_12 C32_12 1_555 1_555
C33_12 C32_12 1_555 1_555
C34_12 C29_12 1_555 1_555
H12_12 C34_12 1_555 1_555
C35_12 N4_12 1_555 1_555
C36_12 C33_12 1_555 1_555
Zn17_10 O2_7 1_555 1_555
O31_7 Zn17_10 1_555 1_555
O32_7 Zn17_10 1_555 1_555
C55_7 O31_7 1_555 1_555
C56_7 C55_7 1_555 1_555
C57_7 C56_7 1_555 1_555
H19_7 C57_7 1_555 1_555
Zn24_11 O13_10 1_555 1_555
Zn17_8 O11_12 1_555 1_555
Zn19_8 O10_12 1_555 1_555
Zn14_10 O14_10 1_555 1_555
Zn16_8 O15_12 1_555 1_555
Zn26_8 O8_5 1_555 1_555
Zn25_2 O17_12 1_555 1_555
O63_26 Zn17_8 1_555 1_555
O65_26 Zn17_8 1_555 1_555
O7_6 C1_7 1_555 1_555
C15_12 C16_12 1_555 1_555
N6_12 C26_12 1_555 1_555
C24_12 C25_12 1_555 1_555
N7_12 C35_12 1_555 1_555
N8_12 C35_12 1_555 1_555
C33_12 C34_12 1_555 1_555
O32_7 C55_7 1_555 1_555
Zn19_8 O61_11 1_555 1_555
N3_12 H38_12 1_555 1_555
N5_12 H39_12 1_555 1_555
N7_12 H40_12 1_555 1_555
O29_16 C72_16 1_555 1_555
N15_16 C67_16 1_555 1_555
N16_16 C71_16 1_555 1_555
C68_16 C67_16 1_555 1_555
H23_16 C68_16 1_555 1_555
C69_16 C68_16 1_555 1_555
C71_16 N15_16 1_555 1_555
C72_16 C69_16 1_555 1_555
O37_16 C81_16 1_555 1_555
N17_16 C76_16 1_555 1_555
N18_16 C71_16 1_555 1_555
C77_16 C76_16 1_555 1_555
H26_16 C77_16 1_555 1_555
C78_16 C77_16 1_555 1_555
C80_16 N17_16 1_555 1_555
O41_16 C90_16 1_555 1_555
N19_16 C85_16 1_555 1_555
N20_16 C80_16 1_555 1_555
C86_16 C85_16 1_555 1_555
H29_16 C86_16 1_555 1_555
C87_16 C86_16 1_555 1_555
C89_16 N16_16 1_555 1_555
C90_16 C87_16 1_555 1_555
O66_10 Zn24_5 1_555 1_555
O70_9 Zn24_12 1_555 1_555
N18_16 C80_16 1_555 1_555
C78_16 C81_16 1_555 1_555
N19_16 C89_16 1_555 1_555
N20_16 C89_16 1_555 1_555
N15_16 H43_16 1_555 1_555
N19_16 H45_16 1_555 1_555
N17_16 H46_16 1_555 1_555
O39_10 C82_16 1_555 1_555
O40_16 C82_16 1_555 1_555
C82_16 C83_16 1_555 1_555
C83_16 C84_16 1_555 1_555
C84_16 H28_16 1_555 1_555
C88_16 C83_16 1_555 1_555
H30_16 C88_16 1_555 1_555
Zn16_5 O40_16 1_555 1_555
Zn14_9 O39_10 1_555 1_555
Zn26_6 O42_16 1_555 1_555
O76_9 Zn24_13 1_555 1_555
O35_16 C73_16 1_555 1_555
O36_16 C73_16 1_555 1_555
O38_10 Zn24_6 1_555 1_555
C73_16 C74_16 1_555 1_555
C74_16 C75_16 1_555 1_555
C75_16 H25_16 1_555 1_555
C79_16 C74_16 1_555 1_555
H27_16 C79_16 1_555 1_555
Zn19_5 O35_16 1_555 1_555
O73_10 Zn24_6 1_555 1_555
O36_16 Zn17_5 1_555 1_555
O8_6 C9_8 1_555 1_555
O9_6 C9_8 1_555 1_555
N1_8 C6_8 1_555 1_555
N2_8 C8_8 1_555 1_555
C1_8 O63_19 1_555 1_555
C2_8 C1_8 1_555 1_555
C3_8 C2_8 1_555 1_555
H1_8 C3_8 1_555 1_555
C4_8 C3_8 1_555 1_555
C5_8 C4_8 1_555 1_555
H2_8 C5_8 1_555 1_555
C6_8 C5_8 1_555 1_555
C7_8 C2_8 1_555 1_555
H3_8 C7_8 1_555 1_555
C8_8 N1_8 1_555 1_555
C9_8 C4_8 1_555 1_555
O62_3 C37_8 1_555 1_555
O64_3 C37_8 1_555 1_555
O66_8 C45_8 1_555 1_555
O72_8 C45_8 1_555 1_555
N9_8 C42_8 1_555 1_555
N10_8 C44_8 1_555 1_555
C37_8 C38_8 1_555 1_555
C38_8 C39_8 1_555 1_555
C39_8 H13_8 1_555 1_555
C40_8 C39_8 1_555 1_555
C41_8 C40_8 1_555 1_555
H14_8 C41_8 1_555 1_555
C42_8 C41_8 1_555 1_555
C43_8 C38_8 1_555 1_555
H15_8 C43_8 1_555 1_555
C44_8 N2_8 1_555 1_555
C45_8 C40_8 1_555 1_555
O22_8 C46_8 1_555 1_555
O23_8 C46_8 1_555 1_555
O70_3 C54_8 1_555 1_555
O76_3 C54_8 1_555 1_555
N11_8 C51_8 1_555 1_555
N12_8 C8_8 1_555 1_555
C46_8 C47_8 1_555 1_555
C47_8 C48_8 1_555 1_555
C48_8 H16_8 1_555 1_555
C49_8 C48_8 1_555 1_555
C50_8 C49_8 1_555 1_555
H17_8 C50_8 1_555 1_555
C51_8 C50_8 1_555 1_555
C52_8 C47_8 1_555 1_555
H18_8 C52_8 1_555 1_555
C53_8 N10_8 1_555 1_555
C54_8 C49_8 1_555 1_555
Zn19_7 O22_8 1_555 1_555
Zn24_14 O30_10 1_555 1_555
O27_7 Zn14_5 1_555 1_555
O56_6 C64_16 1_555 1_555
O31_8 Zn14_5 1_555 1_555
O32_8 Zn14_5 1_555 1_555
O33_6 C63_8 1_555 1_555
O34_6 C63_8 1_555 1_555
N13_8 C60_8 1_555 1_555
N14_8 C62_8 1_555 1_555
C55_8 O31_8 1_555 1_555
C56_8 C55_8 1_555 1_555
C57_8 C56_8 1_555 1_555
H19_8 C57_8 1_555 1_555
C58_8 C57_8 1_555 1_555
C59_8 C58_8 1_555 1_555
H20_8 C59_8 1_555 1_555
C60_8 C59_8 1_555 1_555
C61_8 C56_8 1_555 1_555
H21_8 C61_8 1_555 1_555
C62_8 N13_8 1_555 1_555
C63_8 C58_8 1_555 1_555
C64_16 O27_7 1_555 1_555
C65_16 C64_16 1_555 1_555
C66_16 C65_16 1_555 1_555
H22_16 C66_16 1_555 1_555
C70_16 C65_16 1_555 1_555
H24_16 C70_16 1_555 1_555
O63_2 C91_8 1_555 1_555
O65_2 C91_8 1_555 1_555
O45_6 C99_8 1_555 1_555
O46_6 C99_8 1_555 1_555
N21_8 C96_8 1_555 1_555
N22_8 C98_8 1_555 1_555
C91_8 C92_8 1_555 1_555
C92_8 C93_8 1_555 1_555
C93_8 H31_8 1_555 1_555
C94_8 C93_8 1_555 1_555
C95_8 C94_8 1_555 1_555
H32_8 C95_8 1_555 1_555
C96_8 C95_8 1_555 1_555
C97_8 C92_8 1_555 1_555
H33_8 C97_8 1_555 1_555
C98_8 N14_8 1_555 1_555
C99_8 C94_8 1_555 1_555
O47_6 C100_8 1_555 1_555
O48_6 C100_8 1_555 1_555
O67_6 C108_8 1_555 1_555
O73_6 C108_8 1_555 1_555
N23_8 C105_8 1_555 1_555
N24_8 C62_8 1_555 1_555
C100_8 C101_8 1_555 1_555
C101_8 C102_8 1_555 1_555
C102_8 H34_8 1_555 1_555
C103_8 C102_8 1_555 1_555
C104_8 C103_8 1_555 1_555
H35_8 C104_8 1_555 1_555
C105_8 C104_8 1_555 1_555
C106_8 C101_8 1_555 1_555
H36_8 C106_8 1_555 1_555
C107_8 N22_8 1_555 1_555
C108_8 C103_8 1_555 1_555
Zn16_4 O47_6 1_555 1_555
O52_6 Zn19_7 1_555 1_555
O61_2 Zn19_7 1_555 1_555
O72_10 Zn24_7 1_555 1_555
O77_7 Zn24_14 1_555 1_555
O65_19 C1_8 1_555 1_555
C6_8 C7_8 1_555 1_555
N9_8 C44_8 1_555 1_555
C42_8 C43_8 1_555 1_555
O23_8 Zn19_7 1_555 1_555
N11_8 C53_8 1_555 1_555
N12_8 C53_8 1_555 1_555
C51_8 C52_8 1_555 1_555
O32_8 C55_8 1_555 1_555
C60_8 C61_8 1_555 1_555
N21_8 C98_8 1_555 1_555
C96_8 C97_8 1_555 1_555
O48_6 Zn16_4 1_555 1_555
N23_8 C107_8 1_555 1_555
N24_8 C107_8 1_555 1_555
C105_8 C106_8 1_555 1_555
N1_8 H37_8 1_555 1_555
N9_8 H41_8 1_555 1_555
N11_8 H42_8 1_555 1_555
N13_8 H44_8 1_555 1_555
N23_8 H47_8 1_555 1_555
N21_8 H48_8 1_555 1_555
O71_7 Zn24_15 1_555 1_555
O67_10 Zn24_8 1_555 1_555
O3_13 C18_13 1_555 1_555
N3_13 C13_13 1_555 1_555
N4_13 C17_13 1_555 1_555
C14_13 C13_13 1_555 1_555
H5_13 C14_13 1_555 1_555
C15_13 C14_13 1_555 1_555
C17_13 N3_13 1_555 1_555
C18_13 C15_13 1_555 1_555
O10_13 C19_13 1_555 1_555
O11_13 C19_13 1_555 1_555
O12_13 C27_13 1_555 1_555
O13_11 C27_13 1_555 1_555
N5_13 C22_13 1_555 1_555
N6_13 C17_13 1_555 1_555
C19_13 C20_13 1_555 1_555
C20_13 C21_13 1_555 1_555
C21_13 H7_13 1_555 1_555
C22_13 C21_13 1_555 1_555
C23_13 C22_13 1_555 1_555
H8_13 C23_13 1_555 1_555
C24_13 C23_13 1_555 1_555
C25_13 C20_13 1_555 1_555
H9_13 C25_13 1_555 1_555
C26_13 N5_13 1_555 1_555
C27_13 C24_13 1_555 1_555
O14_11 C28_13 1_555 1_555
O15_13 C28_13 1_555 1_555
O16_13 C36_13 1_555 1_555
O17_13 C36_13 1_555 1_555
N7_13 C31_13 1_555 1_555
N8_13 C26_13 1_555 1_555
C28_13 C29_13 1_555 1_555
C29_13 C30_13 1_555 1_555
C30_13 H10_13 1_555 1_555
C31_13 C30_13 1_555 1_555
C32_13 C31_13 1_555 1_555
H11_13 C32_13 1_555 1_555
C33_13 C32_13 1_555 1_555
C34_13 C29_13 1_555 1_555
H12_13 C34_13 1_555 1_555
C35_13 N4_13 1_555 1_555
C36_13 C33_13 1_555 1_555
Zn24_9 O13_11 1_555 1_555
Zn17_7 O11_13 1_555 1_555
Zn14_4 O10_13 1_555 1_555
Zn19_4 O14_11 1_555 1_555
Zn17_4 O15_13 1_555 1_555
Zn22_3 O17_13 1_555 1_555
O63_27 Zn17_7 1_555 1_555
O65_27 Zn17_7 1_555 1_555
O67_11 Zn26_3 1_555 1_555
O69_8 Zn24_9 1_555 1_555
O73_11 Zn26_3 1_555 1_555
O74_8 Zn24_9 1_555 1_555
N6_13 C26_13 1_555 1_555
C24_13 C25_13 1_555 1_555
N7_13 C35_13 1_555 1_555
N8_13 C35_13 1_555 1_555
C33_13 C34_13 1_555 1_555
Zn14_4 O61_24 1_555 1_555
N3_13 H38_13 1_555 1_555
N5_13 H39_13 1_555 1_555
N7_13 H40_13 1_555 1_555
Zn26_4 O4_11 1_555 1_555
O52_5 C10_13 1_555 1_555
O2_8 C10_13 1_555 1_555
C10_13 C11_13 1_555 1_555
C11_13 C12_13 1_555 1_555
C12_13 H4_13 1_555 1_555
C16_13 C11_13 1_555 1_555
H6_13 C16_13 1_555 1_555
Zn16_4 O2_8 1_555 1_555
O66_11 Zn26_4 1_555 1_555
O68_8 Zn24_10 1_555 1_555
O72_11 Zn26_4 1_555 1_555
O75_8 Zn24_10 1_555 1_555
Zn14 O1_9 1_555 1_555
Zn20_2 O4_12 1_555 1_555
O1_9 C10_14 1_555 1_555
O55_5 C10_14 1_555 1_555
O3_14 C18_14 1_555 1_555
O4_12 C18_14 1_555 1_555
N3_14 C13_14 1_555 1_555
N4_14 C17_14 1_555 1_555
C10_14 C11_14 1_555 1_555
C11_14 C12_14 1_555 1_555
C12_14 H4_14 1_555 1_555
C13_14 C12_14 1_555 1_555
C14_14 C13_14 1_555 1_555
H5_14 C14_14 1_555 1_555
C15_14 C14_14 1_555 1_555
C16_14 C11_14 1_555 1_555
H6_14 C16_14 1_555 1_555
C17_14 N3_14 1_555 1_555
C18_14 C15_14 1_555 1_555
O10_14 C19_14 1_555 1_555
O11_14 C19_14 1_555 1_555
O12_14 C27_14 1_555 1_555
O13_12 C27_14 1_555 1_555
N5_14 C22_14 1_555 1_555
N6_14 C17_14 1_555 1_555
C19_14 C20_14 1_555 1_555
C20_14 C21_14 1_555 1_555
C21_14 H7_14 1_555 1_555
C22_14 C21_14 1_555 1_555
C23_14 C22_14 1_555 1_555
H8_14 C23_14 1_555 1_555
C24_14 C23_14 1_555 1_555
C25_14 C20_14 1_555 1_555
H9_14 C25_14 1_555 1_555
C26_14 N5_14 1_555 1_555
C27_14 C24_14 1_555 1_555
O14_12 C28_14 1_555 1_555
O15_14 C28_14 1_555 1_555
O16_14 C36_14 1_555 1_555
O17_14 C36_14 1_555 1_555
N7_14 C31_14 1_555 1_555
N8_14 C26_14 1_555 1_555
C28_14 C29_14 1_555 1_555
C29_14 C30_14 1_555 1_555
C30_14 H10_14 1_555 1_555
C31_14 C30_14 1_555 1_555
C32_14 C31_14 1_555 1_555
H11_14 C32_14 1_555 1_555
C33_14 C32_14 1_555 1_555
C34_14 C29_14 1_555 1_555
H12_14 C34_14 1_555 1_555
C35_14 N4_14 1_555 1_555
C36_14 C33_14 1_555 1_555
Zn24 O13_12 1_555 1_555
Zn17 O11_14 1_555 1_555
Zn19 O10_14 1_555 1_555
Zn14_12 O14_12 1_555 1_555
Zn16 O15_14 1_555 1_555
Zn26 O17_14 1_555 1_555
O63_28 Zn17 1_555 1_555
O65_28 Zn17 1_555 1_555
C15_14 C16_14 1_555 1_555
N6_14 C26_14 1_555 1_555
C24_14 C25_14 1_555 1_555
N7_14 C35_14 1_555 1_555
N8_14 C35_14 1_555 1_555
C33_14 C34_14 1_555 1_555
Zn19 O61_17 1_555 1_555
N3_14 H38_14 1_555 1_555
N5_14 H39_14 1_555 1_555
N7_14 H40_14 1_555 1_555
O63_29 Zn17_5 1_555 1_555
O65_29 Zn17_5 1_555 1_555
Zn19_5 O61_10 1_555 1_555
O61_21 Zn19_10 1_555 1_555
O63_30 Zn19_10 1_555 1_555
O65_30 Zn19_10 1_555 1_555
Zn14_3 O1_10 1_555 1_555
Zn24_17 O4_13 1_555 1_555
O1_10 C10_15 1_555 1_555
O55_6 C10_15 1_555 1_555
O3_15 C18_15 1_555 1_555
O4_13 C18_15 1_555 1_555
N3_15 C13_15 1_555 1_555
N4_15 C17_15 1_555 1_555
C10_15 C11_15 1_555 1_555
C11_15 C12_15 1_555 1_555
C12_15 H4_15 1_555 1_555
C13_15 C12_15 1_555 1_555
C14_15 C13_15 1_555 1_555
H5_15 C14_15 1_555 1_555
C15_15 C14_15 1_555 1_555
C16_15 C11_15 1_555 1_555
H6_15 C16_15 1_555 1_555
C17_15 N3_15 1_555 1_555
C18_15 C15_15 1_555 1_555
O10_15 C19_15 1_555 1_555
O11_15 C19_15 1_555 1_555
O12_15 C27_15 1_555 1_555
O13_13 C27_15 1_555 1_555
N5_15 C22_15 1_555 1_555
N6_15 C17_15 1_555 1_555
C19_15 C20_15 1_555 1_555
C20_15 C21_15 1_555 1_555
C21_15 H7_15 1_555 1_555
C22_15 C21_15 1_555 1_555
C23_15 C22_15 1_555 1_555
H8_15 C23_15 1_555 1_555
C24_15 C23_15 1_555 1_555
C25_15 C20_15 1_555 1_555
H9_15 C25_15 1_555 1_555
C26_15 N5_15 1_555 1_555
C27_15 C24_15 1_555 1_555
O14_13 C28_15 1_555 1_555
O15_15 C28_15 1_555 1_555
O16_15 C36_15 1_555 1_555
O17_15 C36_15 1_555 1_555
N7_15 C31_15 1_555 1_555
N8_15 C26_15 1_555 1_555
C28_15 C29_15 1_555 1_555
C29_15 C30_15 1_555 1_555
C30_15 H10_15 1_555 1_555
C31_15 C30_15 1_555 1_555
C32_15 C31_15 1_555 1_555
H11_15 C32_15 1_555 1_555
C33_15 C32_15 1_555 1_555
C34_15 C29_15 1_555 1_555
H12_15 C34_15 1_555 1_555
C35_15 N4_15 1_555 1_555
C36_15 C33_15 1_555 1_555
Zn24_4 O13_13 1_555 1_555
Zn17_3 O11_15 1_555 1_555
Zn19_3 O10_15 1_555 1_555
Zn14_11 O14_13 1_555 1_555
Zn16_3 O15_15 1_555 1_555
Zn26_2 O17_15 1_555 1_555
O63_31 Zn17_3 1_555 1_555
O65_31 Zn17_3 1_555 1_555
C15_15 C16_15 1_555 1_555
N6_15 C26_15 1_555 1_555
C24_15 C25_15 1_555 1_555
N7_15 C35_15 1_555 1_555
N8_15 C35_15 1_555 1_555
C33_15 C34_15 1_555 1_555
Zn19_3 O61_14 1_555 1_555
N3_15 H38_15 1_555 1_555
N5_15 H39_15 1_555 1_555
N7_15 H40_15 1_555 1_555
O61_7 Zn19_4 1_555 1_555
O63_32 Zn19_4 1_555 1_555
O65_32 Zn19_4 1_555 1_555
O61_3 Zn14_11 1_555 1_555
O63_33 Zn14_11 1_555 1_555
O65_33 Zn14_11 1_555 1_555
O61_9 Zn14_10 1_555 1_555
O63_34 Zn14_10 1_555 1_555
O65_34 Zn14_10 1_555 1_555
O61 Zn14_12 1_555 1_555
O63_35 Zn14_12 1_555 1_555
O65_35 Zn14_12 1_555 1_555
O61_6 Zn19_9 1_555 1_555
O63_36 Zn19_9 1_555 1_555
O65_36 Zn19_9 1_555 1_555
O56_7 Zn16_2 1_555 1_555
Zn25 O30_11 1_555 1_555
O56_7 C64_17 1_555 1_555
O29_17 C72_17 1_555 1_555
O30_11 C72_17 1_555 1_555
N15_17 C67_17 1_555 1_555
N16_17 C71_17 1_555 1_555
C64_17 O52_6 1_555 1_555
C65_17 C64_17 1_555 1_555
C66_17 C65_17 1_555 1_555
H22_17 C66_17 1_555 1_555
C67_17 C66_17 1_555 1_555
C68_17 C67_17 1_555 1_555
H23_17 C68_17 1_555 1_555
C69_17 C68_17 1_555 1_555
C70_17 C65_17 1_555 1_555
H24_17 C70_17 1_555 1_555
C71_17 N15_17 1_555 1_555
C72_17 C69_17 1_555 1_555
O37_17 C81_17 1_555 1_555
N17_17 C76_17 1_555 1_555
N18_17 C71_17 1_555 1_555
C77_17 C76_17 1_555 1_555
H26_17 C77_17 1_555 1_555
C78_17 C77_17 1_555 1_555
C80_17 N17_17 1_555 1_555
O39_11 C82_17 1_555 1_555
O40_17 C82_17 1_555 1_555
O41_17 C90_17 1_555 1_555
O42_17 C90_17 1_555 1_555
N19_17 C85_17 1_555 1_555
N20_17 C80_17 1_555 1_555
C82_17 C83_17 1_555 1_555
C83_17 C84_17 1_555 1_555
C84_17 H28_17 1_555 1_555
C85_17 C84_17 1_555 1_555
C86_17 C85_17 1_555 1_555
H29_17 C86_17 1_555 1_555
C87_17 C86_17 1_555 1_555
C88_17 C83_17 1_555 1_555
H30_17 C88_17 1_555 1_555
C89_17 N16_17 1_555 1_555
C90_17 C87_17 1_555 1_555
Zn17_2 O40_17 1_555 1_555
Zn19_2 O39_11 1_555 1_555
Zn24_2 O42_17 1_555 1_555
C69_17 C70_17 1_555 1_555
N18_17 C80_17 1_555 1_555
C78_17 C81_17 1_555 1_555
N19_17 C89_17 1_555 1_555
N20_17 C89_17 1_555 1_555
C87_17 C88_17 1_555 1_555
N15_17 H43_17 1_555 1_555
N19_17 H45_17 1_555 1_555
N17_17 H46_17 1_555 1_555
O35_17 C73_17 1_555 1_555
O36_17 C73_17 1_555 1_555
O38_11 Zn26_11 1_555 1_555
C73_17 C74_17 1_555 1_555
C74_17 C75_17 1_555 1_555
C75_17 H25_17 1_555 1_555
C79_17 C74_17 1_555 1_555
H27_17 C79_17 1_555 1_555
Zn14_2 O35_17 1_555 1_555
O36_17 Zn16_7 1_555 1_555
O63_37 Zn16_7 1_555 1_555
O65_37 Zn16_7 1_555 1_555
Zn14_2 O61_8 1_555 1_555
O63_38 Zn17_14 1_555 1_555
O65_38 Zn17_14 1_555 1_555
Zn14_13 O61_23 1_555 1_555
O61_22 Zn19_2 1_555 1_555
O63_39 Zn19_2 1_555 1_555
O65_39 Zn19_2 1_555 1_555
O61_5 Zn14_9 1_555 1_555
O63_40 Zn14_9 1_555 1_555
O65_40 Zn14_9 1_555 1_555
O63_33 C46_9 1_555 1_555
O65_33 C46_9 1_555 1_555
C46_9 C47_9 1_555 1_555
C47_9 C48_9 1_555 1_555
C48_9 H16_9 1_555 1_555
O73_5 C63_9 1_555 1_555
N13_9 C60_9 1_555 1_555
N14_9 C62_9 1_555 1_555
C59_9 C58_9 1_555 1_555
H20_9 C59_9 1_555 1_555
C60_9 C59_9 1_555 1_555
H21_9 C61_9 1_555 1_555
C62_9 N13_9 1_555 1_555
C63_9 C58_9 1_555 1_555
O63_3 C91_9 1_555 1_555
O65_3 C91_9 1_555 1_555
O45_7 C99_9 1_555 1_555
O46_7 C99_9 1_555 1_555
N21_9 C96_9 1_555 1_555
N22_9 C98_9 1_555 1_555
C91_9 C92_9 1_555 1_555
C92_9 C93_9 1_555 1_555
C93_9 H31_9 1_555 1_555
C94_9 C93_9 1_555 1_555
C95_9 C94_9 1_555 1_555
H32_9 C95_9 1_555 1_555
C96_9 C95_9 1_555 1_555
C97_9 C92_9 1_555 1_555
H33_9 C97_9 1_555 1_555
C98_9 N14_9 1_555 1_555
C99_9 C94_9 1_555 1_555
O74_8 C108_9 1_555 1_555
N23_9 C105_9 1_555 1_555
N24_9 C62_9 1_555 1_555
C104_9 C103_9 1_555 1_555
H35_9 C104_9 1_555 1_555
C105_9 C104_9 1_555 1_555
H36_9 C106_9 1_555 1_555
C107_9 N22_9 1_555 1_555
C108_9 C103_9 1_555 1_555
C60_9 C61_9 1_555 1_555
O45_7 Zn24_18 1_555 1_555
O46_7 Zn24_18 1_555 1_555
N21_9 C98_9 1_555 1_555
C96_9 C97_9 1_555 1_555
N23_9 C107_9 1_555 1_555
N24_9 C107_9 1_555 1_555
C105_9 C106_9 1_555 1_555
N13_9 H44_9 1_555 1_555
N23_9 H47_9 1_555 1_555
N21_9 H48_9 1_555 1_555
O8_7 C9_9 1_555 1_555
O9_7 C9_9 1_555 1_555
N1_9 C6_9 1_555 1_555
N2_9 C8_9 1_555 1_555
C1_9 O63_9 1_555 1_555
C2_9 C1_9 1_555 1_555
C3_9 C2_9 1_555 1_555
H1_9 C3_9 1_555 1_555
C4_9 C3_9 1_555 1_555
C5_9 C4_9 1_555 1_555
H2_9 C5_9 1_555 1_555
C6_9 C5_9 1_555 1_555
C7_9 C2_9 1_555 1_555
H3_9 C7_9 1_555 1_555
C8_9 N1_9 1_555 1_555
C9_9 C4_9 1_555 1_555
O73_4 C45_9 1_555 1_555
N9_9 C42_9 1_555 1_555
N10_9 C44_9 1_555 1_555
C41_9 C40_9 1_555 1_555
H14_9 C41_9 1_555 1_555
C42_9 C41_9 1_555 1_555
H15_9 C43_9 1_555 1_555
C44_9 N2_9 1_555 1_555
C45_9 C40_9 1_555 1_555
O76_9 C54_9 1_555 1_555
N11_9 C51_9 1_555 1_555
N12_9 C8_9 1_555 1_555
C50_9 C49_9 1_555 1_555
H17_9 C50_9 1_555 1_555
C51_9 C50_9 1_555 1_555
H18_9 C52_9 1_555 1_555
C53_9 N10_9 1_555 1_555
C54_9 C49_9 1_555 1_555
C55_9 O63_34 1_555 1_555
C56_9 C55_9 1_555 1_555
C57_9 C56_9 1_555 1_555
H19_9 C57_9 1_555 1_555
Zn24_19 O8_7 1_555 1_555
O62_4 Zn16_8 1_555 1_555
O64_4 Zn16_8 1_555 1_555
O65_9 C1_9 1_555 1_555
O9_7 Zn24_19 1_555 1_555
C6_9 C7_9 1_555 1_555
N9_9 C44_9 1_555 1_555
C42_9 C43_9 1_555 1_555
N11_9 C53_9 1_555 1_555
N12_9 C53_9 1_555 1_555
C51_9 C52_9 1_555 1_555
O65_34 C55_9 1_555 1_555
N1_9 H37_9 1_555 1_555
N9_9 H41_9 1_555 1_555
N11_9 H42_9 1_555 1_555
O47_7 C100_9 1_555 1_555
O48_7 C100_9 1_555 1_555
C100_9 C101_9 1_555 1_555
C101_9 C102_9 1_555 1_555
C102_9 H34_9 1_555 1_555
Zn16 O47_7 1_555 1_555
O48_7 Zn16 1_555 1_555
O18_4 C37_9 1_555 1_555
O19_4 C37_9 1_555 1_555
C37_9 C38_9 1_555 1_555
C38_9 C39_9 1_555 1_555
C39_9 H13_9 1_555 1_555
Zn16_6 O18_4 1_555 1_555
O19_4 Zn16_6 1_555 1_555
O63_41 Zn16_5 1_555 1_555
O65_41 Zn16_5 1_555 1_555
O6_7 Zn19_5 1_555 1_555
O7_7 Zn19_5 1_555 1_555
O69_9 C9_10 1_555 1_555
O75_9 C9_10 1_555 1_555
N1_10 C6_10 1_555 1_555
N2_10 C8_10 1_555 1_555
C1_10 O6_7 1_555 1_555
C2_10 C1_10 1_555 1_555
C3_10 C2_10 1_555 1_555
H1_10 C3_10 1_555 1_555
C4_10 C3_10 1_555 1_555
C5_10 C4_10 1_555 1_555
H2_10 C5_10 1_555 1_555
C6_10 C5_10 1_555 1_555
C7_10 C2_10 1_555 1_555
H3_10 C7_10 1_555 1_555
C8_10 N1_10 1_555 1_555
C9_10 C4_10 1_555 1_555
O63_23 C37_10 1_555 1_555
O65_23 C37_10 1_555 1_555
O66_9 C45_10 1_555 1_555
O72_9 C45_10 1_555 1_555
N9_10 C42_10 1_555 1_555
N10_10 C44_10 1_555 1_555
C37_10 C38_10 1_555 1_555
C38_10 C39_10 1_555 1_555
C39_10 H13_10 1_555 1_555
C40_10 C39_10 1_555 1_555
C41_10 C40_10 1_555 1_555
H14_10 C41_10 1_555 1_555
C42_10 C41_10 1_555 1_555
C43_10 C38_10 1_555 1_555
H15_10 C43_10 1_555 1_555
C44_10 N2_10 1_555 1_555
C45_10 C40_10 1_555 1_555
O63_37 C46_10 1_555 1_555
O65_37 C46_10 1_555 1_555
O70 C54_10 1_555 1_555
O76 C54_10 1_555 1_555
N11_10 C51_10 1_555 1_555
N12_10 C8_10 1_555 1_555
C46_10 C47_10 1_555 1_555
C47_10 C48_10 1_555 1_555
C48_10 H16_10 1_555 1_555
C49_10 C48_10 1_555 1_555
C50_10 C49_10 1_555 1_555
H17_10 C50_10 1_555 1_555
C51_10 C50_10 1_555 1_555
C52_10 C47_10 1_555 1_555
H18_10 C52_10 1_555 1_555
C53_10 N10_10 1_555 1_555
C54_10 C49_10 1_555 1_555
O33_7 C63_10 1_555 1_555
O34_7 C63_10 1_555 1_555
N13_10 C60_10 1_555 1_555
N14_10 C62_10 1_555 1_555
C55_10 O63_29 1_555 1_555
C56_10 C55_10 1_555 1_555
C57_10 C56_10 1_555 1_555
H19_10 C57_10 1_555 1_555
C58_10 C57_10 1_555 1_555
C59_10 C58_10 1_555 1_555
H20_10 C59_10 1_555 1_555
C60_10 C59_10 1_555 1_555
C61_10 C56_10 1_555 1_555
H21_10 C61_10 1_555 1_555
C62_10 N13_10 1_555 1_555
C63_10 C58_10 1_555 1_555
O43_7 C91_10 1_555 1_555
O44_7 C91_10 1_555 1_555
O68_9 C99_10 1_555 1_555
O74_9 C99_10 1_555 1_555
N21_10 C96_10 1_555 1_555
N22_10 C98_10 1_555 1_555
C91_10 C92_10 1_555 1_555
C92_10 C93_10 1_555 1_555
C93_10 H31_10 1_555 1_555
C94_10 C93_10 1_555 1_555
C95_10 C94_10 1_555 1_555
H32_10 C95_10 1_555 1_555
C96_10 C95_10 1_555 1_555
C97_10 C92_10 1_555 1_555
H33_10 C97_10 1_555 1_555
C98_10 N14_10 1_555 1_555
C99_10 C94_10 1_555 1_555
O63_24 C100_10 1_555 1_555
O65_24 C100_10 1_555 1_555
O67_7 C108_10 1_555 1_555
O73_7 C108_10 1_555 1_555
N23_10 C105_10 1_555 1_555
N24_10 C62_10 1_555 1_555
C100_10 C101_10 1_555 1_555
C101_10 C102_10 1_555 1_555
C102_10 H34_10 1_555 1_555
C103_10 C102_10 1_555 1_555
C104_10 C103_10 1_555 1_555
H35_10 C104_10 1_555 1_555
C105_10 C104_10 1_555 1_555
C106_10 C101_10 1_555 1_555
H36_10 C106_10 1_555 1_555
C107_10 N22_10 1_555 1_555
C108_10 C103_10 1_555 1_555
Zn14_2 O43_7 1_555 1_555
O7_7 C1_10 1_555 1_555
C6_10 C7_10 1_555 1_555
N9_10 C44_10 1_555 1_555
C42_10 C43_10 1_555 1_555
N11_10 C53_10 1_555 1_555
N12_10 C53_10 1_555 1_555
C51_10 C52_10 1_555 1_555
O65_29 C55_10 1_555 1_555
C60_10 C61_10 1_555 1_555
O44_7 Zn14_2 1_555 1_555
N21_10 C98_10 1_555 1_555
C96_10 C97_10 1_555 1_555
N23_10 C107_10 1_555 1_555
N24_10 C107_10 1_555 1_555
C105_10 C106_10 1_555 1_555
N1_10 H37_10 1_555 1_555
N9_10 H41_10 1_555 1_555
N11_10 H42_10 1_555 1_555
N13_10 H44_10 1_555 1_555
N23_10 H47_10 1_555 1_555
N21_10 H48_10 1_555 1_555
O47_8 C100_11 1_555 1_555
O48_8 C100_11 1_555 1_555
C100_11 C101_11 1_555 1_555
C101_11 C102_11 1_555 1_555
C102_11 H34_11 1_555 1_555
Zn16_3 O47_8 1_555 1_555
O48_8 Zn16_3 1_555 1_555
O62_4 C37_11 1_555 1_555
O64_4 C37_11 1_555 1_555
C37_11 C38_11 1_555 1_555
C38_11 C39_11 1_555 1_555
C39_11 H13_11 1_555 1_555
O63_35 C46_11 1_555 1_555
O65_35 C46_11 1_555 1_555
C46_11 C47_11 1_555 1_555
C47_11 C48_11 1_555 1_555
C48_11 H16_11 1_555 1_555
O77_7 C63_11 1_555 1_555
N13_11 C60_11 1_555 1_555
N14_11 C62_11 1_555 1_555
C59_11 C58_11 1_555 1_555
H20_11 C59_11 1_555 1_555
C60_11 C59_11 1_555 1_555
H21_11 C61_11 1_555 1_555
C62_11 N13_11 1_555 1_555
C63_11 C58_11 1_555 1_555
O63 C91_11 1_555 1_555
O65 C91_11 1_555 1_555
O68_6 C99_11 1_555 1_555
O74_6 C99_11 1_555 1_555
N21_11 C96_11 1_555 1_555
N22_11 C98_11 1_555 1_555
C91_11 C92_11 1_555 1_555
C92_11 C93_11 1_555 1_555
C93_11 H31_11 1_555 1_555
C94_11 C93_11 1_555 1_555
C95_11 C94_11 1_555 1_555
H32_11 C95_11 1_555 1_555
C96_11 C95_11 1_555 1_555
C97_11 C92_11 1_555 1_555
H33_11 C97_11 1_555 1_555
C98_11 N14_11 1_555 1_555
C99_11 C94_11 1_555 1_555
O75_8 C108_11 1_555 1_555
N23_11 C105_11 1_555 1_555
N24_11 C62_11 1_555 1_555
C104_11 C103_11 1_555 1_555
H35_11 C104_11 1_555 1_555
C105_11 C104_11 1_555 1_555
H36_11 C106_11 1_555 1_555
C107_11 N22_11 1_555 1_555
C108_11 C103_11 1_555 1_555
C60_11 C61_11 1_555 1_555
N21_11 C98_11 1_555 1_555
C96_11 C97_11 1_555 1_555
N23_11 C107_11 1_555 1_555
N24_11 C107_11 1_555 1_555
C105_11 C106_11 1_555 1_555
N13_11 H44_11 1_555 1_555
N23_11 H47_11 1_555 1_555
N21_11 H48_11 1_555 1_555
O69_6 C9_11 1_555 1_555
O75_6 C9_11 1_555 1_555
N1_11 C6_11 1_555 1_555
N2_11 C8_11 1_555 1_555
C1_11 O63_6 1_555 1_555
C2_11 C1_11 1_555 1_555
C3_11 C2_11 1_555 1_555
H1_11 C3_11 1_555 1_555
C4_11 C3_11 1_555 1_555
C5_11 C4_11 1_555 1_555
H2_11 C5_11 1_555 1_555
C6_11 C5_11 1_555 1_555
C7_11 C2_11 1_555 1_555
H3_11 C7_11 1_555 1_555
C8_11 N1_11 1_555 1_555
C9_11 C4_11 1_555 1_555
O72_4 C45_11 1_555 1_555
N9_11 C42_11 1_555 1_555
N10_11 C44_11 1_555 1_555
C41_11 C40_11 1_555 1_555
H14_11 C41_11 1_555 1_555
C42_11 C41_11 1_555 1_555
H15_11 C43_11 1_555 1_555
C44_11 N2_11 1_555 1_555
C45_11 C40_11 1_555 1_555
O72_5 C54_11 1_555 1_555
N11_11 C51_11 1_555 1_555
N12_11 C8_11 1_555 1_555
C50_11 C49_11 1_555 1_555
H17_11 C50_11 1_555 1_555
C51_11 C50_11 1_555 1_555
H18_11 C52_11 1_555 1_555
C53_11 N10_11 1_555 1_555
C54_11 C49_11 1_555 1_555
C55_11 O63_36 1_555 1_555
C56_11 C55_11 1_555 1_555
C57_11 C56_11 1_555 1_555
H19_11 C57_11 1_555 1_555
O65_6 C1_11 1_555 1_555
C6_11 C7_11 1_555 1_555
N9_11 C44_11 1_555 1_555
C42_11 C43_11 1_555 1_555
N11_11 C53_11 1_555 1_555
N12_11 C53_11 1_555 1_555
C51_11 C52_11 1_555 1_555
O65_36 C55_11 1_555 1_555
N1_11 H37_11 1_555 1_555
N9_11 H41_11 1_555 1_555
N11_11 H42_11 1_555 1_555
O6_8 Zn14_13 1_555 1_555
O7_8 Zn14_13 1_555 1_555
O68_3 C9_12 1_555 1_555
O74_3 C9_12 1_555 1_555
N1_12 C6_12 1_555 1_555
N2_12 C8_12 1_555 1_555
C1_12 O6_8 1_555 1_555
C2_12 C1_12 1_555 1_555
C3_12 C2_12 1_555 1_555
H1_12 C3_12 1_555 1_555
C4_12 C3_12 1_555 1_555
C5_12 C4_12 1_555 1_555
H2_12 C5_12 1_555 1_555
C6_12 C5_12 1_555 1_555
C7_12 C2_12 1_555 1_555
H3_12 C7_12 1_555 1_555
C8_12 N1_12 1_555 1_555
C9_12 C4_12 1_555 1_555
O63_10 C37_12 1_555 1_555
O65_10 C37_12 1_555 1_555
O67_9 C45_12 1_555 1_555
O73_9 C45_12 1_555 1_555
N9_12 C42_12 1_555 1_555
N10_12 C44_12 1_555 1_555
C37_12 C38_12 1_555 1_555
C38_12 C39_12 1_555 1_555
C39_12 H13_12 1_555 1_555
C40_12 C39_12 1_555 1_555
C41_12 C40_12 1_555 1_555
H14_12 C41_12 1_555 1_555
C42_12 C41_12 1_555 1_555
C43_12 C38_12 1_555 1_555
H15_12 C43_12 1_555 1_555
C44_12 N2_12 1_555 1_555
C45_12 C40_12 1_555 1_555
O63_27 C46_12 1_555 1_555
O65_27 C46_12 1_555 1_555
O24_5 C54_12 1_555 1_555
O25_5 C54_12 1_555 1_555
N11_12 C51_12 1_555 1_555
N12_12 C8_12 1_555 1_555
C46_12 C47_12 1_555 1_555
C47_12 C48_12 1_555 1_555
C48_12 H16_12 1_555 1_555
C49_12 C48_12 1_555 1_555
C50_12 C49_12 1_555 1_555
H17_12 C50_12 1_555 1_555
C51_12 C50_12 1_555 1_555
C52_12 C47_12 1_555 1_555
H18_12 C52_12 1_555 1_555
C53_12 N10_12 1_555 1_555
C54_12 C49_12 1_555 1_555
O71 C63_12 1_555 1_555
O77 C63_12 1_555 1_555
N13_12 C60_12 1_555 1_555
N14_12 C62_12 1_555 1_555
C55_12 O63_38 1_555 1_555
C56_12 C55_12 1_555 1_555
C57_12 C56_12 1_555 1_555
H19_12 C57_12 1_555 1_555
C58_12 C57_12 1_555 1_555
C59_12 C58_12 1_555 1_555
H20_12 C59_12 1_555 1_555
C60_12 C59_12 1_555 1_555
C61_12 C56_12 1_555 1_555
H21_12 C61_12 1_555 1_555
C62_12 N13_12 1_555 1_555
C63_12 C58_12 1_555 1_555
O43_8 C91_12 1_555 1_555
O44_8 C91_12 1_555 1_555
O69_3 C99_12 1_555 1_555
O75_3 C99_12 1_555 1_555
N21_12 C96_12 1_555 1_555
N22_12 C98_12 1_555 1_555
C91_12 C92_12 1_555 1_555
C92_12 C93_12 1_555 1_555
C93_12 H31_12 1_555 1_555
C94_12 C93_12 1_555 1_555
C95_12 C94_12 1_555 1_555
H32_12 C95_12 1_555 1_555
C96_12 C95_12 1_555 1_555
C97_12 C92_12 1_555 1_555
H33_12 C97_12 1_555 1_555
C98_12 N14_12 1_555 1_555
C99_12 C94_12 1_555 1_555
O63_8 C100_12 1_555 1_555
O65_8 C100_12 1_555 1_555
O66_7 C108_12 1_555 1_555
O72_7 C108_12 1_555 1_555
N23_12 C105_12 1_555 1_555
N24_12 C62_12 1_555 1_555
C100_12 C101_12 1_555 1_555
C101_12 C102_12 1_555 1_555
C102_12 H34_12 1_555 1_555
C103_12 C102_12 1_555 1_555
C104_12 C103_12 1_555 1_555
H35_12 C104_12 1_555 1_555
C105_12 C104_12 1_555 1_555
C106_12 C101_12 1_555 1_555
H36_12 C106_12 1_555 1_555
C107_12 N22_12 1_555 1_555
C108_12 C103_12 1_555 1_555
Zn14_4 O43_8 1_555 1_555
O7_8 C1_12 1_555 1_555
C6_12 C7_12 1_555 1_555
N9_12 C44_12 1_555 1_555
C42_12 C43_12 1_555 1_555
N11_12 C53_12 1_555 1_555
N12_12 C53_12 1_555 1_555
C51_12 C52_12 1_555 1_555
O65_38 C55_12 1_555 1_555
C60_12 C61_12 1_555 1_555
O44_8 Zn14_4 1_555 1_555
N21_12 C98_12 1_555 1_555
C96_12 C97_12 1_555 1_555
N23_12 C107_12 1_555 1_555
N24_12 C107_12 1_555 1_555
C105_12 C106_12 1_555 1_555
N1_12 H37_12 1_555 1_555
N9_12 H41_12 1_555 1_555
N11_12 H42_12 1_555 1_555
N13_12 H44_12 1_555 1_555
N23_12 H47_12 1_555 1_555
N21_12 H48_12 1_555 1_555
O63_42 Zn17_13 1_555 1_555
O65_42 Zn17_13 1_555 1_555
O71_9 Zn24_2 1_555 1_555
O76_11 Zn24_2 1_555 1_555
O70_11 Zn24_3 1_555 1_555
O77_9 Zn24_3 1_555 1_555
O63_43 Zn19_3 1_555 1_555
O65_43 Zn19_3 1_555 1_555
O63_44 Zn19 1_555 1_555
O65_44 Zn19 1_555 1_555
O63_45 Zn19_6 1_555 1_555
O65_45 Zn19_6 1_555 1_555
O63_46 Zn19_8 1_555 1_555
O65_46 Zn19_8 1_555 1_555
O63_47 Zn17_2 1_555 1_555
O65_47 Zn17_2 1_555 1_555
O63_48 Zn17_4 1_555 1_555
O65_48 Zn17_4 1_555 1_555
C1_13 O63_31 1_555 1_555
C2_13 C1_13 1_555 1_555
C3_13 C2_13 1_555 1_555
H1_13 C3_13 1_555 1_555
O67_11 C63_13 1_555 1_555
O73_11 C63_13 1_555 1_555
N13_13 C60_13 1_555 1_555
N14_13 C62_13 1_555 1_555
C55_13 O63_14 1_555 1_555
C56_13 C55_13 1_555 1_555
C57_13 C56_13 1_555 1_555
H19_13 C57_13 1_555 1_555
C58_13 C57_13 1_555 1_555
C59_13 C58_13 1_555 1_555
H20_13 C59_13 1_555 1_555
C60_13 C59_13 1_555 1_555
C61_13 C56_13 1_555 1_555
H21_13 C61_13 1_555 1_555
C62_13 N13_13 1_555 1_555
C63_13 C58_13 1_555 1_555
O76_11 C99_13 1_555 1_555
N21_13 C96_13 1_555 1_555
N22_13 C98_13 1_555 1_555
C95_13 C94_13 1_555 1_555
H32_13 C95_13 1_555 1_555
C96_13 C95_13 1_555 1_555
H33_13 C97_13 1_555 1_555
C98_13 N14_13 1_555 1_555
C99_13 C94_13 1_555 1_555
O74_4 C108_13 1_555 1_555
N23_13 C105_13 1_555 1_555
N24_13 C62_13 1_555 1_555
C104_13 C103_13 1_555 1_555
H35_13 C104_13 1_555 1_555
C105_13 C104_13 1_555 1_555
H36_13 C106_13 1_555 1_555
C107_13 N22_13 1_555 1_555
C108_13 C103_13 1_555 1_555
O65_31 C1_13 1_555 1_555
O65_14 C55_13 1_555 1_555
C60_13 C61_13 1_555 1_555
N21_13 C98_13 1_555 1_555
C96_13 C97_13 1_555 1_555
N23_13 C107_13 1_555 1_555
N24_13 C107_13 1_555 1_555
C105_13 C106_13 1_555 1_555
N13_13 H44_13 1_555 1_555
N23_13 H47_13 1_555 1_555
N21_13 H48_13 1_555 1_555
O77_9 C9_13 1_555 1_555
N1_13 C6_13 1_555 1_555
N2_13 C8_13 1_555 1_555
C5_13 C4_13 1_555 1_555
H2_13 C5_13 1_555 1_555
C6_13 C5_13 1_555 1_555
H3_13 C7_13 1_555 1_555
C8_13 N1_13 1_555 1_555
C9_13 C4_13 1_555 1_555
O73_10 C45_13 1_555 1_555
N9_13 C42_13 1_555 1_555
N10_13 C44_13 1_555 1_555
C41_13 C40_13 1_555 1_555
H14_13 C41_13 1_555 1_555
C42_13 C41_13 1_555 1_555
H15_13 C43_13 1_555 1_555
C44_13 N2_13 1_555 1_555
C45_13 C40_13 1_555 1_555
O63_11 C46_13 1_555 1_555
O65_11 C46_13 1_555 1_555
O70_4 C54_13 1_555 1_555
O76_4 C54_13 1_555 1_555
N11_13 C51_13 1_555 1_555
N12_13 C8_13 1_555 1_555
C46_13 C47_13 1_555 1_555
C47_13 C48_13 1_555 1_555
C48_13 H16_13 1_555 1_555
C49_13 C48_13 1_555 1_555
C50_13 C49_13 1_555 1_555
H17_13 C50_13 1_555 1_555
C51_13 C50_13 1_555 1_555
C52_13 C47_13 1_555 1_555
H18_13 C52_13 1_555 1_555
C53_13 N10_13 1_555 1_555
C54_13 C49_13 1_555 1_555
O63_26 C91_13 1_555 1_555
O65_26 C91_13 1_555 1_555
C91_13 C92_13 1_555 1_555
C92_13 C93_13 1_555 1_555
C93_13 H31_13 1_555 1_555
C6_13 C7_13 1_555 1_555
N9_13 C44_13 1_555 1_555
C42_13 C43_13 1_555 1_555
N11_13 C53_13 1_555 1_555
N12_13 C53_13 1_555 1_555
C51_13 C52_13 1_555 1_555
N1_13 H37_13 1_555 1_555
N9_13 H41_13 1_555 1_555
N11_13 H42_13 1_555 1_555
O63_45 C100_13 1_555 1_555
O65_45 C100_13 1_555 1_555
C100_13 C101_13 1_555 1_555
C101_13 C102_13 1_555 1_555
C102_13 H34_13 1_555 1_555
O63_44 C37_13 1_555 1_555
O65_44 C37_13 1_555 1_555
C37_13 C38_13 1_555 1_555
C38_13 C39_13 1_555 1_555
C39_13 H13_13 1_555 1_555
O69_5 C9_14 1_555 1_555
O75_5 C9_14 1_555 1_555
N1_14 C6_14 1_555 1_555
N2_14 C8_14 1_555 1_555
C1_14 O63_48 1_555 1_555
C2_14 C1_14 1_555 1_555
C3_14 C2_14 1_555 1_555
H1_14 C3_14 1_555 1_555
C4_14 C3_14 1_555 1_555
C5_14 C4_14 1_555 1_555
H2_14 C5_14 1_555 1_555
C6_14 C5_14 1_555 1_555
C7_14 C2_14 1_555 1_555
H3_14 C7_14 1_555 1_555
C8_14 N1_14 1_555 1_555
C9_14 C4_14 1_555 1_555
O63_39 C37_14 1_555 1_555
O65_39 C37_14 1_555 1_555
O66_3 C45_14 1_555 1_555
O72_3 C45_14 1_555 1_555
N9_14 C42_14 1_555 1_555
N10_14 C44_14 1_555 1_555
C37_14 C38_14 1_555 1_555
C38_14 C39_14 1_555 1_555
C39_14 H13_14 1_555 1_555
C40_14 C39_14 1_555 1_555
C41_14 C40_14 1_555 1_555
H14_14 C41_14 1_555 1_555
C42_14 C41_14 1_555 1_555
C43_14 C38_14 1_555 1_555
H15_14 C43_14 1_555 1_555
C44_14 N2_14 1_555 1_555
C45_14 C40_14 1_555 1_555
O63_21 C46_14 1_555 1_555
O65_21 C46_14 1_555 1_555
O71_5 C54_14 1_555 1_555
O77_5 C54_14 1_555 1_555
N11_14 C51_14 1_555 1_555
N12_14 C8_14 1_555 1_555
C46_14 C47_14 1_555 1_555
C47_14 C48_14 1_555 1_555
C48_14 H16_14 1_555 1_555
C49_14 C48_14 1_555 1_555
C50_14 C49_14 1_555 1_555
H17_14 C50_14 1_555 1_555
C51_14 C50_14 1_555 1_555
C52_14 C47_14 1_555 1_555
H18_14 C52_14 1_555 1_555
C53_14 N10_14 1_555 1_555
C54_14 C49_14 1_555 1_555
O71_8 C63_14 1_555 1_555
O77_8 C63_14 1_555 1_555
N13_14 C60_14 1_555 1_555
N14_14 C62_14 1_555 1_555
C55_14 O63_7 1_555 1_555
C56_14 C55_14 1_555 1_555
C57_14 C56_14 1_555 1_555
H19_14 C57_14 1_555 1_555
C58_14 C57_14 1_555 1_555
C59_14 C58_14 1_555 1_555
H20_14 C59_14 1_555 1_555
C60_14 C59_14 1_555 1_555
C61_14 C56_14 1_555 1_555
H21_14 C61_14 1_555 1_555
C62_14 N13_14 1_555 1_555
C63_14 C58_14 1_555 1_555
O63_42 C91_14 1_555 1_555
O65_42 C91_14 1_555 1_555
O68_5 C99_14 1_555 1_555
O74_5 C99_14 1_555 1_555
N21_14 C96_14 1_555 1_555
N22_14 C98_14 1_555 1_555
C91_14 C92_14 1_555 1_555
C92_14 C93_14 1_555 1_555
C93_14 H31_14 1_555 1_555
C94_14 C93_14 1_555 1_555
C95_14 C94_14 1_555 1_555
H32_14 C95_14 1_555 1_555
C96_14 C95_14 1_555 1_555
C97_14 C92_14 1_555 1_555
H33_14 C97_14 1_555 1_555
C98_14 N14_14 1_555 1_555
C99_14 C94_14 1_555 1_555
O63_40 C100_14 1_555 1_555
O65_40 C100_14 1_555 1_555
O67_12 C108_14 1_555 1_555
O73_12 C108_14 1_555 1_555
N23_14 C105_14 1_555 1_555
N24_14 C62_14 1_555 1_555
C100_14 C101_14 1_555 1_555
C101_14 C102_14 1_555 1_555
C102_14 H34_14 1_555 1_555
C103_14 C102_14 1_555 1_555
C104_14 C103_14 1_555 1_555
H35_14 C104_14 1_555 1_555
C105_14 C104_14 1_555 1_555
C106_14 C101_14 1_555 1_555
H36_14 C106_14 1_555 1_555
C107_14 N22_14 1_555 1_555
C108_14 C103_14 1_555 1_555
O65_48 C1_14 1_555 1_555
C6_14 C7_14 1_555 1_555
N9_14 C44_14 1_555 1_555
C42_14 C43_14 1_555 1_555
N11_14 C53_14 1_555 1_555
N12_14 C53_14 1_555 1_555
C51_14 C52_14 1_555 1_555
O65_7 C55_14 1_555 1_555
C60_14 C61_14 1_555 1_555
N21_14 C98_14 1_555 1_555
C96_14 C97_14 1_555 1_555
N23_14 C107_14 1_555 1_555
N24_14 C107_14 1_555 1_555
C105_14 C106_14 1_555 1_555
N1_14 H37_14 1_555 1_555
N9_14 H41_14 1_555 1_555
N11_14 H42_14 1_555 1_555
N13_14 H44_14 1_555 1_555
N23_14 H47_14 1_555 1_555
N21_14 H48_14 1_555 1_555
O63_43 C37_15 1_555 1_555
O65_43 C37_15 1_555 1_555
C37_15 C38_15 1_555 1_555
C38_15 C39_15 1_555 1_555
C39_15 H13_15 1_555 1_555
O63_46 C100_15 1_555 1_555
O65_46 C100_15 1_555 1_555
C100_15 C101_15 1_555 1_555
C101_15 C102_15 1_555 1_555
C102_15 H34_15 1_555 1_555
O74_2 C9_15 1_555 1_555
N1_15 C6_15 1_555 1_555
N2_15 C8_15 1_555 1_555
C5_15 C4_15 1_555 1_555
H2_15 C5_15 1_555 1_555
C6_15 C5_15 1_555 1_555
H3_15 C7_15 1_555 1_555
C8_15 N1_15 1_555 1_555
C9_15 C4_15 1_555 1_555
O72_10 C45_15 1_555 1_555
N9_15 C42_15 1_555 1_555
N10_15 C44_15 1_555 1_555
C41_15 C40_15 1_555 1_555
H14_15 C41_15 1_555 1_555
C42_15 C41_15 1_555 1_555
H15_15 C43_15 1_555 1_555
C44_15 N2_15 1_555 1_555
C45_15 C40_15 1_555 1_555
O63_16 C46_15 1_555 1_555
O65_16 C46_15 1_555 1_555
O66_11 C54_15 1_555 1_555
O72_11 C54_15 1_555 1_555
N11_15 C51_15 1_555 1_555
N12_15 C8_15 1_555 1_555
C46_15 C47_15 1_555 1_555
C47_15 C48_15 1_555 1_555
C48_15 H16_15 1_555 1_555
C49_15 C48_15 1_555 1_555
C50_15 C49_15 1_555 1_555
H17_15 C50_15 1_555 1_555
C51_15 C50_15 1_555 1_555
C52_15 C47_15 1_555 1_555
H18_15 C52_15 1_555 1_555
C53_15 N10_15 1_555 1_555
C54_15 C49_15 1_555 1_555
O63_25 C91_15 1_555 1_555
O65_25 C91_15 1_555 1_555
C91_15 C92_15 1_555 1_555
C92_15 C93_15 1_555 1_555
C93_15 H31_15 1_555 1_555
C6_15 C7_15 1_555 1_555
N9_15 C44_15 1_555 1_555
C42_15 C43_15 1_555 1_555
N11_15 C53_15 1_555 1_555
N12_15 C53_15 1_555 1_555
C51_15 C52_15 1_555 1_555
N1_15 H37_15 1_555 1_555
N9_15 H41_15 1_555 1_555
N11_15 H42_15 1_555 1_555
C1_15 O63_28 1_555 1_555
C2_15 C1_15 1_555 1_555
C3_15 C2_15 1_555 1_555
H1_15 C3_15 1_555 1_555
O71_3 C63_15 1_555 1_555
O77_3 C63_15 1_555 1_555
N13_15 C60_15 1_555 1_555
N14_15 C62_15 1_555 1_555
C55_15 O63_17 1_555 1_555
C56_15 C55_15 1_555 1_555
C57_15 C56_15 1_555 1_555
H19_15 C57_15 1_555 1_555
C58_15 C57_15 1_555 1_555
C59_15 C58_15 1_555 1_555
H20_15 C59_15 1_555 1_555
C60_15 C59_15 1_555 1_555
C61_15 C56_15 1_555 1_555
H21_15 C61_15 1_555 1_555
C62_15 N13_15 1_555 1_555
C63_15 C58_15 1_555 1_555
O75_2 C99_15 1_555 1_555
N21_15 C96_15 1_555 1_555
N22_15 C98_15 1_555 1_555
C95_15 C94_15 1_555 1_555
H32_15 C95_15 1_555 1_555
C96_15 C95_15 1_555 1_555
H33_15 C97_15 1_555 1_555
C98_15 N14_15 1_555 1_555
C99_15 C94_15 1_555 1_555
O75_4 C108_15 1_555 1_555
N23_15 C105_15 1_555 1_555
N24_15 C62_15 1_555 1_555
C104_15 C103_15 1_555 1_555
H35_15 C104_15 1_555 1_555
C105_15 C104_15 1_555 1_555
H36_15 C106_15 1_555 1_555
C107_15 N22_15 1_555 1_555
C108_15 C103_15 1_555 1_555
O65_28 C1_15 1_555 1_555
O65_17 C55_15 1_555 1_555
C60_15 C61_15 1_555 1_555
N21_15 C98_15 1_555 1_555
C96_15 C97_15 1_555 1_555
N23_15 C107_15 1_555 1_555
N24_15 C107_15 1_555 1_555
C105_15 C106_15 1_555 1_555
N13_15 H44_15 1_555 1_555
N23_15 H47_15 1_555 1_555
N21_15 H48_15 1_555 1_555
O68_7 C9_16 1_555 1_555
O74_7 C9_16 1_555 1_555
N1_16 C6_16 1_555 1_555
N2_16 C8_16 1_555 1_555
C1_16 O63_47 1_555 1_555
C2_16 C1_16 1_555 1_555
C3_16 C2_16 1_555 1_555
H1_16 C3_16 1_555 1_555
C4_16 C3_16 1_555 1_555
C5_16 C4_16 1_555 1_555
H2_16 C5_16 1_555 1_555
C6_16 C5_16 1_555 1_555
C7_16 C2_16 1_555 1_555
H3_16 C7_16 1_555 1_555
C8_16 N1_16 1_555 1_555
C9_16 C4_16 1_555 1_555
O63_32 C37_16 1_555 1_555
O65_32 C37_16 1_555 1_555
O67_3 C45_16 1_555 1_555
O73_3 C45_16 1_555 1_555
N9_16 C42_16 1_555 1_555
N10_16 C44_16 1_555 1_555
C37_16 C38_16 1_555 1_555
C38_16 C39_16 1_555 1_555
C39_16 H13_16 1_555 1_555
C40_16 C39_16 1_555 1_555
C41_16 C40_16 1_555 1_555
H14_16 C41_16 1_555 1_555
C42_16 C41_16 1_555 1_555
C43_16 C38_16 1_555 1_555
H15_16 C43_16 1_555 1_555
C44_16 N2_16 1_555 1_555
C45_16 C40_16 1_555 1_555
O63_5 C46_16 1_555 1_555
O65_5 C46_16 1_555 1_555
O70_10 C54_16 1_555 1_555
O76_10 C54_16 1_555 1_555
N11_16 C51_16 1_555 1_555
N12_16 C8_16 1_555 1_555
C46_16 C47_16 1_555 1_555
C47_16 C48_16 1_555 1_555
C48_16 H16_16 1_555 1_555
C49_16 C48_16 1_555 1_555
C50_16 C49_16 1_555 1_555
H17_16 C50_16 1_555 1_555
C51_16 C50_16 1_555 1_555
C52_16 C47_16 1_555 1_555
H18_16 C52_16 1_555 1_555
C53_16 N10_16 1_555 1_555
C54_16 C49_16 1_555 1_555
O70_6 C63_16 1_555 1_555
O76_6 C63_16 1_555 1_555
N13_16 C60_16 1_555 1_555
N14_16 C62_16 1_555 1_555
C55_16 O63_22 1_555 1_555
C56_16 C55_16 1_555 1_555
C57_16 C56_16 1_555 1_555
H19_16 C57_16 1_555 1_555
C58_16 C57_16 1_555 1_555
C59_16 C58_16 1_555 1_555
H20_16 C59_16 1_555 1_555
C60_16 C59_16 1_555 1_555
C61_16 C56_16 1_555 1_555
H21_16 C61_16 1_555 1_555
C62_16 N13_16 1_555 1_555
C63_16 C58_16 1_555 1_555
O63_41 C91_16 1_555 1_555
O65_41 C91_16 1_555 1_555
O69_7 C99_16 1_555 1_555
O75_7 C99_16 1_555 1_555
N21_16 C96_16 1_555 1_555
N22_16 C98_16 1_555 1_555
C91_16 C92_16 1_555 1_555
C92_16 C93_16 1_555 1_555
C93_16 H31_16 1_555 1_555
C94_16 C93_16 1_555 1_555
C95_16 C94_16 1_555 1_555
H32_16 C95_16 1_555 1_555
C96_16 C95_16 1_555 1_555
C97_16 C92_16 1_555 1_555
H33_16 C97_16 1_555 1_555
C98_16 N14_16 1_555 1_555
C99_16 C94_16 1_555 1_555
O63_30 C100_16 1_555 1_555
O65_30 C100_16 1_555 1_555
O66_12 C108_16 1_555 1_555
O72_12 C108_16 1_555 1_555
N23_16 C105_16 1_555 1_555
N24_16 C62_16 1_555 1_555
C100_16 C101_16 1_555 1_555
C101_16 C102_16 1_555 1_555
C102_16 H34_16 1_555 1_555
C103_16 C102_16 1_555 1_555
C104_16 C103_16 1_555 1_555
H35_16 C104_16 1_555 1_555
C105_16 C104_16 1_555 1_555
C106_16 C101_16 1_555 1_555
H36_16 C106_16 1_555 1_555
C107_16 N22_16 1_555 1_555
C108_16 C103_16 1_555 1_555
O65_47 C1_16 1_555 1_555
C6_16 C7_16 1_555 1_555
N9_16 C44_16 1_555 1_555
C42_16 C43_16 1_555 1_555
N11_16 C53_16 1_555 1_555
N12_16 C53_16 1_555 1_555
C51_16 C52_16 1_555 1_555
O65_22 C55_16 1_555 1_555
C60_16 C61_16 1_555 1_555
N21_16 C98_16 1_555 1_555
C96_16 C97_16 1_555 1_555
N23_16 C107_16 1_555 1_555
N24_16 C107_16 1_555 1_555
C105_16 C106_16 1_555 1_555
N1_16 H37_16 1_555 1_555
N9_16 H41_16 1_555 1_555
N11_16 H42_16 1_555 1_555
N13_16 H44_16 1_555 1_555
N23_16 H47_16 1_555 1_555
N21_16 H48_16 1_555 1_555

#END
