
###############################################################################
#
# This file contains modified crystal structure data generated from the
# MOF subset of the Cambridge Structural Database (CSD) v543 
# hosted by the Cambridge Crystallographic Data Centre (CCDC).
#
# This work is licensed under the Creative Commons
# Attribution-NonCommercial-ShareAlike 4.0 International License.
# To view a copy of this license, visit
# http://creativecommons.org/licenses/by-nc-sa/4.0/
# or send a letter to
# Creative Commons, PO Box 1866, Mountain View, CA 94042, USA.
#
# CIF created using the CSD Python API on 29 September 2022
# The structure has been converted into the P1 space group
# The structure has a 3D framework
# The original CSD entry XILTOE is in the orthorhombic crystal system
# The framework has been calculated to contain at least 10.0% void space
# The void calculation uses a probe of radius 1.32A, grid spacing 0.4
#
###############################################################################

data_XILTOE
_chemical_formula_moiety         '(C304 H256 N48 O48 Zn16)n'
_symmetry_cell_setting           triclinic
_symmetry_space_group_name_H-M   'P 1'
_symmetry_Int_Tables_number      1
_space_group_name_Hall           'P 1'
loop_
_symmetry_equiv_pos_site_id
_symmetry_equiv_pos_as_xyz
1 x,y,z
_cell_length_a                   17.2385(11)
_cell_length_b                   22.5360(14)
_cell_length_c                   23.4694(15)
_cell_angle_alpha                90
_cell_angle_beta                 90
_cell_angle_gamma                90
_cell_volume                     9117.55
loop_
_atom_site_label
_atom_site_type_symbol
_atom_site_fract_x
_atom_site_fract_y
_atom_site_fract_z
N5 N 0.23529(19) 0.20588(14) 0.91111(16)
H22 H 0.2561 0.2400 0.9209
N6 N 0.1647(2) 0.19982(14) 0.88637(16)
C28 C 0.2907(3) 0.02339(19) 0.8600(2)
H24 H 0.3197 0.0499 0.8368
C29 C 0.2332(2) 0.04568(16) 0.8955(2)
C30 C 0.1915(3) 0.00582(19) 0.9284(2)
H25 H 0.1521 0.0200 0.9532
C32 C 0.2190(2) 0.11079(18) 0.8982(2)
C33 C 0.2691(2) 0.15285(17) 0.9187(2)
C34 C 0.1540(2) 0.14114(17) 0.87877(19)
C35 C 0.3472(3) 0.1463(2) 0.9463(3)
H27 H 0.3495 0.1711 0.9805
H28 H 0.3877 0.1589 0.9195
H29 H 0.3555 0.1047 0.9568
C36 C 0.0798(3) 0.11790(19) 0.8537(2)
H30 H 0.0712 0.1361 0.8163
H31 H 0.0364 0.1277 0.8790
H32 H 0.0833 0.0747 0.8494
Zn5 Zn 0.10098(2) 0.27110(2) 0.86697(2)
Zn1 Zn 0.60098(2) 0.72890(2) 0.86697(2)
N1 N 0.76471(19) 0.29412(14) 0.91111(16)
H1 H 0.7439 0.2600 0.9209
N2 N 0.8353(2) 0.30018(14) 0.88637(16)
N3 N 0.53860(18) 0.74203(14) 0.79788(13)
O1 O 0.65926(18) 0.65638(12) 0.85954(13)
O2 O 0.7590(2) 0.67598(13) 0.91702(17)
O3 O 0.54154(18) 0.78786(12) 0.43670(12)
C1 C 0.7177(2) 0.64165(17) 0.8895(2)
C2 C 0.7358(2) 0.57592(17) 0.8909(2)
C3 C 0.6938(3) 0.53705(19) 0.8578(2)
H2 H 0.6541 0.5516 0.8334
C4 C 0.7093(3) 0.47661(19) 0.8600(2)
H3 H 0.6803 0.4501 0.8368
C5 C 0.7668(2) 0.45432(16) 0.8955(2)
C6 C 0.8085(3) 0.49418(19) 0.9284(2)
H4 H 0.8479 0.4800 0.9532
C7 C 0.7936(3) 0.55465(18) 0.9255(2)
H5 H 0.8236 0.5815 0.9477
C8 C 0.7810(2) 0.38921(18) 0.8982(2)
C9 C 0.7309(2) 0.34715(17) 0.9187(2)
C10 C 0.8460(2) 0.35886(17) 0.87877(19)
C11 C 0.6528(3) 0.3537(2) 0.9463(3)
H6 H 0.6505 0.3289 0.9805
H7 H 0.6123 0.3411 0.9195
H8 H 0.6445 0.3953 0.9568
C12 C 0.9202(3) 0.38210(19) 0.8537(2)
H9 H 0.9288 0.3639 0.8163
H10 H 0.9636 0.3723 0.8790
H11 H 0.9167 0.4253 0.8494
C13 C 0.5619(2) 0.73781(18) 0.74335(17)
C14 C 0.6441(3) 0.7210(3) 0.7289(2)
H12 H 0.6655 0.6962 0.7594
H13 H 0.6755 0.7570 0.7250
H14 H 0.6448 0.6989 0.6929
C15 C 0.5000 0.7500 0.7075(2)
C16 C 0.5000 0.7500 0.6444(2)
C17 C 0.4450(2) 0.71744(18) 0.61378(18)
H15 H 0.4068 0.6953 0.6338
C18 C 0.4452(2) 0.71684(18) 0.55502(18)
H16 H 0.4080 0.6938 0.5349
C19 C 0.5000 0.7500 0.5252(2)
C20 C 0.5000 0.7500 0.4617(2)
N4 N 0.46140(18) 0.75797(14) 0.79788(13)
O4 O 0.45846(18) 0.71214(12) 0.43670(12)
C21 C 0.4381(2) 0.76219(18) 0.74335(17)
C22 C 0.3559(3) 0.7790(3) 0.7289(2)
H17 H 0.3345 0.8038 0.7594
H18 H 0.3245 0.7430 0.7250
H19 H 0.3552 0.8011 0.6929
C23 C 0.5550(2) 0.78256(18) 0.61378(18)
H20 H 0.5932 0.8047 0.6338
C24 C 0.5548(2) 0.78316(18) 0.55502(18)
H21 H 0.5920 0.8062 0.5349
Zn2 Zn 0.39902(2) 0.77110(2) 0.86697(2)
O5 O 0.34074(18) 0.84362(12) 0.85954(13)
O6 O 0.2410(2) 0.82402(13) 0.91702(17)
C25 C 0.2823(2) 0.85835(17) 0.8895(2)
C26 C 0.2642(2) 0.92408(17) 0.8909(2)
C27 C 0.3062(3) 0.96295(19) 0.8578(2)
H23 H 0.3459 0.9484 0.8334
C31 C 0.2064(3) 0.94535(18) 0.9255(2)
H26 H 0.1764 0.9185 0.9477
Zn3 Zn 0.60098(2) 0.77110(2) 0.36697(2)
Zn4 Zn 0.89902(2) 0.22890(2) 0.86697(2)
Zn6 Zn 0.39902(2) 0.72890(2) 0.36697(2)
N7 N 0.6647(2) 0.80018(14) 0.88637(16)
N8 N 0.3353(2) 0.69982(14) 0.88637(16)
O7 O 0.54154(18) 0.71214(12) 0.93670(12)
O8 O 0.45846(18) 0.78786(12) 0.93670(12)
C15_2 C 0.0000 0.2500 0.2075(2)
C16_2 C -0.0000 0.2500 0.1444(2)
C17_2 C 0.0550(2) 0.28256(18) 0.11378(18)
H15_2 H 0.0932 0.3047 0.1338
C18_2 C 0.0548(2) 0.28316(18) 0.05502(18)
H16_2 H 0.0920 0.3062 0.0349
C19_2 C 0.0000 0.2500 0.0252(2)
N4_2 N 0.03860(18) 0.24203(14) 0.29788(13)
C21_2 C 0.0619(2) 0.23781(18) 0.24335(17)
C22_2 C 0.1441(3) 0.2210(3) 0.2289(2)
H17_2 H 0.1655 0.1962 0.2594
H18_2 H 0.1755 0.2570 0.2250
H19_2 H 0.1448 0.1989 0.1929
Zn2_2 Zn 0.10098(2) 0.22890(2) 0.36697(2)
O5_2 O 0.15926(18) 0.15638(12) 0.35954(13)
O6_2 O 0.2590(2) 0.17598(13) 0.41702(17)
C25_2 C 0.2177(2) 0.14165(17) 0.3895(2)
C26_2 C 0.2358(2) 0.07592(17) 0.3909(2)
C27_2 C 0.1938(3) 0.03705(19) 0.3578(2)
H23_2 H 0.1541 0.0516 0.3334
C31_2 C 0.2936(3) 0.05465(18) 0.4255(2)
H26_2 H 0.3236 0.0815 0.4477
N8_2 N 0.1647(2) 0.30018(14) 0.38637(16)
O8_2 O 0.04154(18) 0.21214(12) 0.43670(12)
C20_2 C 0.0000 0.2500 0.9617(2)
O4_2 O 0.04154(18) 0.28786(12) 0.93670(12)
N5_2 N 0.26471(19) 0.79412(14) 0.41111(16)
H22_2 H 0.2439 0.7600 0.4209
N6_2 N 0.3353(2) 0.80018(14) 0.38637(16)
C28_2 C 0.2093(3) 0.97661(19) 0.3600(2)
H24_2 H 0.1803 0.9501 0.3368
C29_2 C 0.2668(2) 0.95432(16) 0.3955(2)
C30_2 C 0.3085(3) 0.99418(19) 0.4284(2)
H25_2 H 0.3479 0.9800 0.4532
C32_2 C 0.2810(2) 0.88921(18) 0.3982(2)
C33_2 C 0.2309(2) 0.84715(17) 0.4187(2)
C34_2 C 0.3460(2) 0.85886(17) 0.37877(19)
C35_2 C 0.1528(3) 0.8537(2) 0.4463(3)
H27_2 H 0.1505 0.8289 0.4805
H28_2 H 0.1123 0.8411 0.4195
H29_2 H 0.1445 0.8953 0.4568
C36_2 C 0.4202(3) 0.88210(19) 0.3537(2)
H30_2 H 0.4288 0.8639 0.3163
H31_2 H 0.4636 0.8723 0.3790
H32_2 H 0.4167 0.9253 0.3494
Zn1_2 Zn 0.89902(2) 0.27110(2) 0.36697(2)
N1_2 N 0.73529(19) 0.70588(14) 0.41111(16)
H1_2 H 0.7561 0.7400 0.4209
N2_2 N 0.6647(2) 0.69982(14) 0.38637(16)
N3_2 N 0.96140(18) 0.25797(14) 0.29788(13)
O1_2 O 0.84074(18) 0.34362(12) 0.35954(13)
O2_2 O 0.7410(2) 0.32402(13) 0.41702(17)
C1_2 C 0.7823(2) 0.35835(17) 0.3895(2)
C2_2 C 0.7642(2) 0.42408(17) 0.3909(2)
C3_2 C 0.8062(3) 0.46295(19) 0.3578(2)
H2_2 H 0.8459 0.4484 0.3334
C4_2 C 0.7907(3) 0.52339(19) 0.3600(2)
H3_2 H 0.8197 0.5499 0.3368
C5_2 C 0.7332(2) 0.54568(16) 0.3955(2)
C6_2 C 0.6915(3) 0.50582(19) 0.4284(2)
H4_2 H 0.6521 0.5200 0.4532
C7_2 C 0.7064(3) 0.44535(18) 0.4255(2)
H5_2 H 0.6764 0.4185 0.4477
C8_2 C 0.7190(2) 0.61079(18) 0.3982(2)
C9_2 C 0.7691(2) 0.65285(17) 0.4187(2)
C10_2 C 0.6540(2) 0.64114(17) 0.37877(19)
C11_2 C 0.8472(3) 0.6463(2) 0.4463(3)
H6_2 H 0.8495 0.6711 0.4805
H7_2 H 0.8877 0.6589 0.4195
H8_2 H 0.8555 0.6047 0.4568
C12_2 C 0.5798(3) 0.61790(19) 0.3537(2)
H9_2 H 0.5712 0.6361 0.3163
H10_2 H 0.5364 0.6277 0.3790
H11_2 H 0.5833 0.5747 0.3494
C13_2 C 0.9381(2) 0.26219(18) 0.24335(17)
C14_2 C 0.8559(3) 0.2790(3) 0.2289(2)
H12_2 H 0.8345 0.3038 0.2594
H13_2 H 0.8245 0.2430 0.2250
H14_2 H 0.8552 0.3011 0.1929
C15_3 C 1.0000 0.2500 0.2075(2)
C16_3 C 1.0000 0.2500 0.1444(2)
C19_3 C 1.0000 0.2500 0.0252(2)
C23_2 C 0.9450(2) 0.21744(18) 0.11378(18)
H20_2 H 0.9068 0.1953 0.1338
C24_2 C 0.9452(2) 0.21684(18) 0.05502(18)
H21_2 H 0.9080 0.1938 0.0349
N7_2 N 0.8353(2) 0.19982(14) 0.38637(16)
O7_2 O 0.95846(18) 0.28786(12) 0.43670(12)
O3_2 O 0.95846(18) 0.21214(12) 0.93670(12)
C20_3 C 1.0000 0.2500 0.9617(2)
N1_3 N 0.76471(19) 0.20588(14) 0.41111(16)
H1_3 H 0.7439 0.2400 0.4209
C4_3 C 0.7093(3) 0.02339(19) 0.3600(2)
H3_3 H 0.6803 0.0499 0.3368
C5_3 C 0.7668(2) 0.04568(16) 0.3955(2)
C6_3 C 0.8085(3) 0.00582(19) 0.4284(2)
H4_3 H 0.8479 0.0200 0.4532
C8_3 C 0.7810(2) 0.11079(18) 0.3982(2)
C9_3 C 0.7309(2) 0.15285(17) 0.4187(2)
C10_3 C 0.8460(2) 0.14114(17) 0.37877(19)
C11_3 C 0.6528(3) 0.1463(2) 0.4463(3)
H6_3 H 0.6505 0.1711 0.4805
H7_3 H 0.6123 0.1589 0.4195
H8_3 H 0.6445 0.1047 0.4568
C12_3 C 0.9202(3) 0.11790(19) 0.3537(2)
H9_3 H 0.9288 0.1361 0.3163
H10_3 H 0.9636 0.1277 0.3790
H11_3 H 0.9167 0.0747 0.3494
N3_3 N 0.53860(18) 0.75797(14) 0.29788(13)
O1_3 O 0.65926(18) 0.84362(12) 0.35954(13)
O2_3 O 0.7590(2) 0.82402(13) 0.41702(17)
C1_3 C 0.7177(2) 0.85835(17) 0.3895(2)
C2_3 C 0.7358(2) 0.92408(17) 0.3909(2)
C3_3 C 0.6938(3) 0.96295(19) 0.3578(2)
H2_3 H 0.6541 0.9484 0.3334
C7_3 C 0.7936(3) 0.94535(18) 0.4255(2)
H5_3 H 0.8236 0.9185 0.4477
C13_3 C 0.5619(2) 0.76219(18) 0.24335(17)
C14_3 C 0.6441(3) 0.7790(3) 0.2289(2)
H12_3 H 0.6655 0.8038 0.2594
H13_3 H 0.6755 0.7430 0.2250
H14_3 H 0.6448 0.8011 0.1929
C15_4 C 0.5000 0.7500 0.2075(2)
C16_4 C 0.5000 0.7500 0.1444(2)
C17_3 C 0.4450(2) 0.78256(18) 0.11378(18)
H15_3 H 0.4068 0.8047 0.1338
C18_3 C 0.4452(2) 0.78316(18) 0.05502(18)
H16_3 H 0.4080 0.8062 0.0349
C19_4 C 0.5000 0.7500 0.0252(2)
N4_3 N 0.46140(18) 0.74203(14) 0.29788(13)
C21_3 C 0.4381(2) 0.73781(18) 0.24335(17)
C22_3 C 0.3559(3) 0.7210(3) 0.2289(2)
H17_3 H 0.3345 0.6962 0.2594
H18_3 H 0.3245 0.7570 0.2250
H19_3 H 0.3552 0.6989 0.1929
C23_3 C 0.5550(2) 0.71744(18) 0.11378(18)
H20_3 H 0.5932 0.6953 0.1338
C24_3 C 0.5548(2) 0.71684(18) 0.05502(18)
H21_3 H 0.5920 0.6938 0.0349
N5_3 N 0.23529(19) 0.29412(14) 0.41111(16)
H22_3 H 0.2561 0.2600 0.4209
O5_3 O 0.34074(18) 0.65638(12) 0.35954(13)
O6_3 O 0.2410(2) 0.67598(13) 0.41702(17)
C25_3 C 0.2823(2) 0.64165(17) 0.3895(2)
C26_3 C 0.2642(2) 0.57592(17) 0.3909(2)
C27_3 C 0.3062(3) 0.53705(19) 0.3578(2)
H23_3 H 0.3459 0.5516 0.3334
C28_3 C 0.2907(3) 0.47661(19) 0.3600(2)
H24_3 H 0.3197 0.4501 0.3368
C29_3 C 0.2332(2) 0.45432(16) 0.3955(2)
C30_3 C 0.1915(3) 0.49418(19) 0.4284(2)
H25_3 H 0.1521 0.4800 0.4532
C31_3 C 0.2064(3) 0.55465(18) 0.4255(2)
H26_3 H 0.1764 0.5815 0.4477
C32_3 C 0.2190(2) 0.38921(18) 0.3982(2)
C33_3 C 0.2691(2) 0.34715(17) 0.4187(2)
C34_3 C 0.1540(2) 0.35886(17) 0.37877(19)
C35_3 C 0.3472(3) 0.3537(2) 0.4463(3)
H27_3 H 0.3495 0.3289 0.4805
H28_3 H 0.3877 0.3411 0.4195
H29_3 H 0.3555 0.3953 0.4568
C36_3 C 0.0798(3) 0.38210(19) 0.3537(2)
H30_3 H 0.0712 0.3639 0.3163
H31_3 H 0.0364 0.3723 0.3790
H32_3 H 0.0833 0.4253 0.3494
C20_4 C 0.5000 0.7500 0.9617(2)
C15_5 C 0.0000 0.2500 0.7075(2)
C16_5 C -0.0000 0.2500 0.6444(2)
C17_4 C 0.0550(2) 0.21744(18) 0.61378(18)
H15_4 H 0.0932 0.1953 0.6338
C18_4 C 0.0548(2) 0.21684(18) 0.55502(18)
H16_4 H 0.0920 0.1938 0.5349
C19_5 C 0.0000 0.2500 0.5252(2)
C20_5 C 0.0000 0.2500 0.4617(2)
N4_4 N 0.03860(18) 0.25797(14) 0.79788(13)
C21_4 C 0.0619(2) 0.26219(18) 0.74335(17)
C22_4 C 0.1441(3) 0.2790(3) 0.7289(2)
H17_4 H 0.1655 0.3038 0.7594
H18_4 H 0.1755 0.2430 0.7250
H19_4 H 0.1448 0.3011 0.6929
N5_4 N 0.26471(19) 0.70588(14) 0.91111(16)
H22_4 H 0.2439 0.7400 0.9209
O5_4 O 0.15926(18) 0.34362(12) 0.85954(13)
O6_4 O 0.2590(2) 0.32402(13) 0.91702(17)
C25_4 C 0.2177(2) 0.35835(17) 0.8895(2)
C26_4 C 0.2358(2) 0.42408(17) 0.8909(2)
C27_4 C 0.1938(3) 0.46295(19) 0.8578(2)
H23_4 H 0.1541 0.4484 0.8334
C28_4 C 0.2093(3) 0.52339(19) 0.8600(2)
H24_4 H 0.1803 0.5499 0.8368
C29_4 C 0.2668(2) 0.54568(16) 0.8955(2)
C30_4 C 0.3085(3) 0.50582(19) 0.9284(2)
H25_4 H 0.3479 0.5200 0.9532
C31_4 C 0.2936(3) 0.44535(18) 0.9255(2)
H26_4 H 0.3236 0.4185 0.9477
C32_4 C 0.2810(2) 0.61079(18) 0.8982(2)
C33_4 C 0.2309(2) 0.65285(17) 0.9187(2)
C34_4 C 0.3460(2) 0.64114(17) 0.87877(19)
C35_4 C 0.1528(3) 0.6463(2) 0.9463(3)
H27_4 H 0.1505 0.6711 0.9805
H28_4 H 0.1123 0.6589 0.9195
H29_4 H 0.1445 0.6047 0.9568
C36_4 C 0.4202(3) 0.61790(19) 0.8537(2)
H30_4 H 0.4288 0.6361 0.8163
H31_4 H 0.4636 0.6277 0.8790
H32_4 H 0.4167 0.5747 0.8494
N3_4 N 0.96140(18) 0.24203(14) 0.79788(13)
O1_4 O 0.84074(18) 0.15638(12) 0.85954(13)
O2_4 O 0.7410(2) 0.17598(13) 0.91702(17)
C1_4 C 0.7823(2) 0.14165(17) 0.8895(2)
C2_4 C 0.7642(2) 0.07592(17) 0.8909(2)
C3_4 C 0.8062(3) 0.03705(19) 0.8578(2)
H2_4 H 0.8459 0.0516 0.8334
C7_4 C 0.7064(3) 0.05465(18) 0.9255(2)
H5_4 H 0.6764 0.0815 0.9477
C13_4 C 0.9381(2) 0.23781(18) 0.74335(17)
C14_4 C 0.8559(3) 0.2210(3) 0.7289(2)
H12_4 H 0.8345 0.1962 0.7594
H13_4 H 0.8245 0.2570 0.7250
H14_4 H 0.8552 0.1989 0.6929
C15_6 C 1.0000 0.2500 0.7075(2)
C16_6 C 1.0000 0.2500 0.6444(2)
C19_6 C 1.0000 0.2500 0.5252(2)
C20_6 C 1.0000 0.2500 0.4617(2)
C23_4 C 0.9450(2) 0.28256(18) 0.61378(18)
H20_4 H 0.9068 0.3047 0.6338
C24_4 C 0.9452(2) 0.28316(18) 0.55502(18)
H21_4 H 0.9080 0.3062 0.5349
N1_4 N 0.73529(19) 0.79412(14) 0.91111(16)
H1_4 H 0.7561 0.7600 0.9209
C4_4 C 0.7907(3) 0.97661(19) 0.8600(2)
H3_4 H 0.8197 0.9501 0.8368
C5_4 C 0.7332(2) 0.95432(16) 0.8955(2)
C6_4 C 0.6915(3) 0.99418(19) 0.9284(2)
H4_4 H 0.6521 0.9800 0.9532
C8_4 C 0.7190(2) 0.88921(18) 0.8982(2)
C9_4 C 0.7691(2) 0.84715(17) 0.9187(2)
C10_4 C 0.6540(2) 0.85886(17) 0.87877(19)
C11_4 C 0.8472(3) 0.8537(2) 0.9463(3)
H6_4 H 0.8495 0.8289 0.9805
H7_4 H 0.8877 0.8411 0.9195
H8_4 H 0.8555 0.8953 0.9568
C12_4 C 0.5798(3) 0.88210(19) 0.8537(2)
H9_4 H 0.5712 0.8639 0.8163
H10_4 H 0.5364 0.8723 0.8790
H11_4 H 0.5833 0.9253 0.8494
O3_3 O 0.45846(18) 0.28786(12) 0.06330(12)
C20_7 C 0.5000 0.2500 0.0383(2)
O4_3 O 0.54154(18) 0.21214(12) 0.06330(12)
Zn3_2 Zn 0.39902(2) 0.27110(2) 0.13303(2)
Zn6_2 Zn 0.60098(2) 0.22890(2) 0.13303(2)
Zn1_3 Zn 0.39902(2) 0.22890(2) 0.63303(2)
N3_5 N 0.46140(18) 0.24203(14) 0.70212(13)
O1_5 O 0.34074(18) 0.15638(12) 0.64046(13)
O2_5 O 0.2410(2) 0.17598(13) 0.58298(17)
C1_5 C 0.2823(2) 0.14165(17) 0.6105(2)
C2_5 C 0.2642(2) 0.07592(17) 0.6091(2)
C3_5 C 0.3062(3) 0.03705(19) 0.6422(2)
H2_5 H 0.3459 0.0516 0.6666
C7_5 C 0.2064(3) 0.05465(18) 0.5745(2)
H5_5 H 0.1764 0.0815 0.5523
C13_5 C 0.4381(2) 0.23781(18) 0.75665(17)
C14_5 C 0.3559(3) 0.2210(3) 0.7711(2)
H12_5 H 0.3345 0.1962 0.7406
H13_5 H 0.3245 0.2570 0.7750
H14_5 H 0.3552 0.1989 0.8071
C15_7 C 0.5000 0.2500 0.7925(2)
C16_7 C 0.5000 0.2500 0.8556(2)
C17_5 C 0.5550(2) 0.21744(18) 0.88622(18)
H15_5 H 0.5932 0.1953 0.8662
C18_5 C 0.5548(2) 0.21684(18) 0.94498(18)
H16_5 H 0.5920 0.1938 0.9651
C19_7 C 0.5000 0.2500 0.9748(2)
N4_5 N 0.53860(18) 0.25797(14) 0.70212(13)
C21_5 C 0.5619(2) 0.26219(18) 0.75665(17)
C22_5 C 0.6441(3) 0.2790(3) 0.7711(2)
H17_5 H 0.6655 0.3038 0.7406
H18_5 H 0.6755 0.2430 0.7750
H19_5 H 0.6448 0.3011 0.8071
C23_5 C 0.4450(2) 0.28256(18) 0.88622(18)
H20_5 H 0.4068 0.3047 0.8662
C24_5 C 0.4452(2) 0.28316(18) 0.94498(18)
H21_5 H 0.4080 0.3062 0.9651
Zn2_3 Zn 0.60098(2) 0.27110(2) 0.63303(2)
N5_5 N 0.76471(19) 0.70588(14) 0.58889(16)
H22_5 H 0.7439 0.7400 0.5791
N6_3 N 0.8353(2) 0.69982(14) 0.61363(16)
O5_5 O 0.65926(18) 0.34362(12) 0.64046(13)
O6_5 O 0.7590(2) 0.32402(13) 0.58298(17)
C25_5 C 0.7177(2) 0.35835(17) 0.6105(2)
C26_5 C 0.7358(2) 0.42408(17) 0.6091(2)
C27_5 C 0.6938(3) 0.46295(19) 0.6422(2)
H23_5 H 0.6541 0.4484 0.6666
C28_5 C 0.7093(3) 0.52339(19) 0.6400(2)
H24_5 H 0.6803 0.5499 0.6632
C29_5 C 0.7668(2) 0.54568(16) 0.6045(2)
C30_5 C 0.8085(3) 0.50582(19) 0.5716(2)
H25_5 H 0.8479 0.5200 0.5468
C31_5 C 0.7936(3) 0.44535(18) 0.5745(2)
H26_5 H 0.8236 0.4185 0.5523
C32_5 C 0.7810(2) 0.61079(18) 0.6018(2)
C33_5 C 0.7309(2) 0.65285(17) 0.5813(2)
C34_5 C 0.8460(2) 0.64114(17) 0.62123(19)
C35_5 C 0.6528(3) 0.6463(2) 0.5537(3)
H27_5 H 0.6505 0.6711 0.5195
H28_5 H 0.6123 0.6589 0.5805
H29_5 H 0.6445 0.6047 0.5432
C36_5 C 0.9202(3) 0.61790(19) 0.6463(2)
H30_5 H 0.9288 0.6361 0.6837
H31_5 H 0.9636 0.6277 0.6210
H32_5 H 0.9167 0.5747 0.6506
Zn5_2 Zn 0.89902(2) 0.77110(2) 0.63303(2)
N7_3 N 0.3353(2) 0.30018(14) 0.61363(16)
N8_3 N 0.6647(2) 0.19982(14) 0.61363(16)
O7_3 O 0.45846(18) 0.21214(12) 0.56330(12)
O8_3 O 0.54154(18) 0.28786(12) 0.56330(12)
N1_5 N 0.23529(19) 0.79412(14) 0.58889(16)
H1_5 H 0.2561 0.7600 0.5791
N2_3 N 0.1647(2) 0.80018(14) 0.61363(16)
C4_5 C 0.2907(3) 0.97661(19) 0.6400(2)
H3_5 H 0.3197 0.9501 0.6632
C5_5 C 0.2332(2) 0.95432(16) 0.6045(2)
C6_5 C 0.1915(3) 0.99418(19) 0.5716(2)
H4_5 H 0.1521 0.9800 0.5468
C8_5 C 0.2190(2) 0.88921(18) 0.6018(2)
C9_5 C 0.2691(2) 0.84715(17) 0.5813(2)
C10_5 C 0.1540(2) 0.85886(17) 0.62123(19)
C11_5 C 0.3472(3) 0.8537(2) 0.5537(3)
H6_5 H 0.3495 0.8289 0.5195
H7_5 H 0.3877 0.8411 0.5805
H8_5 H 0.3555 0.8953 0.5432
C12_5 C 0.0798(3) 0.88210(19) 0.6463(2)
H9_5 H 0.0712 0.8639 0.6837
H10_5 H 0.0364 0.8723 0.6210
H11_5 H 0.0833 0.9253 0.6506
Zn4_2 Zn 0.10098(2) 0.72890(2) 0.63303(2)
N1_6 N 0.26471(19) 0.20588(14) 0.08889(16)
H1_6 H 0.2439 0.2400 0.0791
N2_4 N 0.3353(2) 0.19982(14) 0.11363(16)
C4_6 C 0.2093(3) 0.02339(19) 0.1400(2)
H3_6 H 0.1803 0.0499 0.1632
C5_6 C 0.2668(2) 0.04568(16) 0.1045(2)
C6_6 C 0.3085(3) 0.00582(19) 0.0716(2)
H4_6 H 0.3479 0.0200 0.0468
C8_6 C 0.2810(2) 0.11079(18) 0.1018(2)
C9_6 C 0.2309(2) 0.15285(17) 0.0813(2)
C10_6 C 0.3460(2) 0.14114(17) 0.12123(19)
C11_6 C 0.1528(3) 0.1463(2) 0.0537(3)
H6_6 H 0.1505 0.1711 0.0195
H7_6 H 0.1123 0.1589 0.0805
H8_6 H 0.1445 0.1047 0.0432
C12_6 C 0.4202(3) 0.11790(19) 0.1463(2)
H9_6 H 0.4288 0.1361 0.1837
H10_6 H 0.4636 0.1277 0.1210
H11_6 H 0.4167 0.0747 0.1506
Zn1_4 Zn 0.10098(2) 0.77110(2) 0.13303(2)
N3_6 N 0.03860(18) 0.75797(14) 0.20212(13)
O1_6 O 0.15926(18) 0.84362(12) 0.14046(13)
O2_6 O 0.2590(2) 0.82402(13) 0.08298(17)
O3_4 O 0.04154(18) 0.71214(12) 0.56330(12)
C1_6 C 0.2177(2) 0.85835(17) 0.1105(2)
C2_6 C 0.2358(2) 0.92408(17) 0.1091(2)
C3_6 C 0.1938(3) 0.96295(19) 0.1422(2)
H2_6 H 0.1541 0.9484 0.1666
C7_6 C 0.2936(3) 0.94535(18) 0.0745(2)
H5_6 H 0.3236 0.9185 0.0523
C13_6 C 0.0619(2) 0.76219(18) 0.25665(17)
C14_6 C 0.1441(3) 0.7790(3) 0.2711(2)
H12_6 H 0.1655 0.8038 0.2406
H13_6 H 0.1755 0.7430 0.2750
H14_6 H 0.1448 0.8011 0.3071
C15_8 C -0.0000 0.7500 0.2925(2)
C16_8 C 0.0000 0.7500 0.3556(2)
C19_8 C -0.0000 0.7500 0.4748(2)
C20_8 C -0.0000 0.7500 0.5383(2)
C23_6 C 0.0550(2) 0.71744(18) 0.38622(18)
H20_6 H 0.0932 0.6953 0.3662
C24_6 C 0.0548(2) 0.71684(18) 0.44498(18)
H21_6 H 0.0920 0.6938 0.4651
N7_4 N 0.1647(2) 0.69982(14) 0.11363(16)
O7_4 O 0.04154(18) 0.78786(12) 0.06330(12)
C15_9 C 1.0000 0.7500 0.2925(2)
C16_9 C 1.0000 0.7500 0.3556(2)
C17_6 C 0.9450(2) 0.78256(18) 0.38622(18)
H15_6 H 0.9068 0.8047 0.3662
C18_6 C 0.9452(2) 0.78316(18) 0.44498(18)
H16_6 H 0.9080 0.8062 0.4651
C19_9 C 1.0000 0.7500 0.4748(2)
C20_9 C 1.0000 0.7500 0.5383(2)
N4_6 N 0.96140(18) 0.74203(14) 0.20212(13)
O4_4 O 0.95846(18) 0.78786(12) 0.56330(12)
C21_6 C 0.9381(2) 0.73781(18) 0.25665(17)
C22_6 C 0.8559(3) 0.7210(3) 0.2711(2)
H17_6 H 0.8345 0.6962 0.2406
H18_6 H 0.8245 0.7570 0.2750
H19_6 H 0.8552 0.6989 0.3071
Zn2_4 Zn 0.89902(2) 0.72890(2) 0.13303(2)
N5_6 N 0.73529(19) 0.29412(14) 0.08889(16)
H22_6 H 0.7561 0.2600 0.0791
N6_4 N 0.6647(2) 0.30018(14) 0.11363(16)
O5_6 O 0.84074(18) 0.65638(12) 0.14046(13)
O6_6 O 0.7410(2) 0.67598(13) 0.08298(17)
C25_6 C 0.7823(2) 0.64165(17) 0.1105(2)
C26_6 C 0.7642(2) 0.57592(17) 0.1091(2)
C27_6 C 0.8062(3) 0.53705(19) 0.1422(2)
H23_6 H 0.8459 0.5516 0.1666
C28_6 C 0.7907(3) 0.47661(19) 0.1400(2)
H24_6 H 0.8197 0.4501 0.1632
C29_6 C 0.7332(2) 0.45432(16) 0.1045(2)
C30_6 C 0.6915(3) 0.49418(19) 0.0716(2)
H25_6 H 0.6521 0.4800 0.0468
C31_6 C 0.7064(3) 0.55465(18) 0.0745(2)
H26_6 H 0.6764 0.5815 0.0523
C32_6 C 0.7190(2) 0.38921(18) 0.1018(2)
C33_6 C 0.7691(2) 0.34715(17) 0.0813(2)
C34_6 C 0.6540(2) 0.35886(17) 0.12123(19)
C35_6 C 0.8472(3) 0.3537(2) 0.0537(3)
H27_6 H 0.8495 0.3289 0.0195
H28_6 H 0.8877 0.3411 0.0805
H29_6 H 0.8555 0.3953 0.0432
C36_6 C 0.5798(3) 0.38210(19) 0.1463(2)
H30_6 H 0.5712 0.3639 0.1837
H31_6 H 0.5364 0.3723 0.1210
H32_6 H 0.5833 0.4253 0.1506
N8_4 N 0.8353(2) 0.80018(14) 0.11363(16)
O8_4 O 0.95846(18) 0.71214(12) 0.06330(12)
N1_7 N 0.23529(19) 0.70588(14) 0.08889(16)
H1_7 H 0.2561 0.7400 0.0791
N3_7 N 0.46140(18) 0.25797(14) 0.20212(13)
O1_7 O 0.34074(18) 0.34362(12) 0.14046(13)
O2_7 O 0.2410(2) 0.32402(13) 0.08298(17)
C1_7 C 0.2823(2) 0.35835(17) 0.1105(2)
C2_7 C 0.2642(2) 0.42408(17) 0.1091(2)
C3_7 C 0.3062(3) 0.46295(19) 0.1422(2)
H2_7 H 0.3459 0.4484 0.1666
C4_7 C 0.2907(3) 0.52339(19) 0.1400(2)
H3_7 H 0.3197 0.5499 0.1632
C5_7 C 0.2332(2) 0.54568(16) 0.1045(2)
C6_7 C 0.1915(3) 0.50582(19) 0.0716(2)
H4_7 H 0.1521 0.5200 0.0468
C7_7 C 0.2064(3) 0.44535(18) 0.0745(2)
H5_7 H 0.1764 0.4185 0.0523
C8_7 C 0.2190(2) 0.61079(18) 0.1018(2)
C9_7 C 0.2691(2) 0.65285(17) 0.0813(2)
C10_7 C 0.1540(2) 0.64114(17) 0.12123(19)
C11_7 C 0.3472(3) 0.6463(2) 0.0537(3)
H6_7 H 0.3495 0.6711 0.0195
H7_7 H 0.3877 0.6589 0.0805
H8_7 H 0.3555 0.6047 0.0432
C12_7 C 0.0798(3) 0.61790(19) 0.1463(2)
H9_7 H 0.0712 0.6361 0.1837
H10_7 H 0.0364 0.6277 0.1210
H11_7 H 0.0833 0.5747 0.1506
C13_7 C 0.4381(2) 0.26219(18) 0.25665(17)
C14_7 C 0.3559(3) 0.2790(3) 0.2711(2)
H12_7 H 0.3345 0.3038 0.2406
H13_7 H 0.3245 0.2430 0.2750
H14_7 H 0.3552 0.3011 0.3071
C15_10 C 0.5000 0.2500 0.2925(2)
C16_10 C 0.5000 0.2500 0.3556(2)
C17_7 C 0.5550(2) 0.28256(18) 0.38622(18)
H15_7 H 0.5932 0.3047 0.3662
C18_7 C 0.5548(2) 0.28316(18) 0.44498(18)
H16_7 H 0.5920 0.3062 0.4651
C19_10 C 0.5000 0.2500 0.4748(2)
C20_10 C 0.5000 0.2500 0.5383(2)
N4_7 N 0.53860(18) 0.24203(14) 0.20212(13)
C21_7 C 0.5619(2) 0.23781(18) 0.25665(17)
C22_7 C 0.6441(3) 0.2210(3) 0.2711(2)
H17_7 H 0.6655 0.1962 0.2406
H18_7 H 0.6755 0.2570 0.2750
H19_7 H 0.6448 0.1989 0.3071
C23_7 C 0.4450(2) 0.21744(18) 0.38622(18)
H20_7 H 0.4068 0.1953 0.3662
C24_7 C 0.4452(2) 0.21684(18) 0.44498(18)
H21_7 H 0.4080 0.1938 0.4651
O5_7 O 0.65926(18) 0.15638(12) 0.14046(13)
O6_7 O 0.7590(2) 0.17598(13) 0.08298(17)
C25_7 C 0.7177(2) 0.14165(17) 0.1105(2)
C26_7 C 0.7358(2) 0.07592(17) 0.1091(2)
C27_7 C 0.6938(3) 0.03705(19) 0.1422(2)
H23_7 H 0.6541 0.0516 0.1666
C31_7 C 0.7936(3) 0.05465(18) 0.0745(2)
H26_7 H 0.8236 0.0815 0.0523
N5_7 N 0.76471(19) 0.79412(14) 0.08889(16)
H22_7 H 0.7439 0.7600 0.0791
C28_7 C 0.7093(3) 0.97661(19) 0.1400(2)
H24_7 H 0.6803 0.9501 0.1632
C29_7 C 0.7668(2) 0.95432(16) 0.1045(2)
C30_7 C 0.8085(3) 0.99418(19) 0.0716(2)
H25_7 H 0.8479 0.9800 0.0468
C32_7 C 0.7810(2) 0.88921(18) 0.1018(2)
C33_7 C 0.7309(2) 0.84715(17) 0.0813(2)
C34_7 C 0.8460(2) 0.85886(17) 0.12123(19)
C35_7 C 0.6528(3) 0.8537(2) 0.0537(3)
H27_7 H 0.6505 0.8289 0.0195
H28_7 H 0.6123 0.8411 0.0805
H29_7 H 0.6445 0.8953 0.0432
C36_7 C 0.9202(3) 0.88210(19) 0.1463(2)
H30_7 H 0.9288 0.8639 0.1837
H31_7 H 0.9636 0.8723 0.1210
H32_7 H 0.9167 0.9253 0.1506
C20_11 C -0.0000 0.7500 0.0383(2)
N1_8 N 0.26471(19) 0.29412(14) 0.58889(16)
H1_8 H 0.2439 0.2600 0.5791
N3_8 N 0.03860(18) 0.74203(14) 0.70212(13)
O1_8 O 0.15926(18) 0.65638(12) 0.64046(13)
O2_8 O 0.2590(2) 0.67598(13) 0.58298(17)
C1_8 C 0.2177(2) 0.64165(17) 0.6105(2)
C2_8 C 0.2358(2) 0.57592(17) 0.6091(2)
C3_8 C 0.1938(3) 0.53705(19) 0.6422(2)
H2_8 H 0.1541 0.5516 0.6666
C4_8 C 0.2093(3) 0.47661(19) 0.6400(2)
H3_8 H 0.1803 0.4501 0.6632
C5_8 C 0.2668(2) 0.45432(16) 0.6045(2)
C6_8 C 0.3085(3) 0.49418(19) 0.5716(2)
H4_8 H 0.3479 0.4800 0.5468
C7_8 C 0.2936(3) 0.55465(18) 0.5745(2)
H5_8 H 0.3236 0.5815 0.5523
C8_8 C 0.2810(2) 0.38921(18) 0.6018(2)
C9_8 C 0.2309(2) 0.34715(17) 0.5813(2)
C10_8 C 0.3460(2) 0.35886(17) 0.62123(19)
C11_8 C 0.1528(3) 0.3537(2) 0.5537(3)
H6_8 H 0.1505 0.3289 0.5195
H7_8 H 0.1123 0.3411 0.5805
H8_8 H 0.1445 0.3953 0.5432
C12_8 C 0.4202(3) 0.38210(19) 0.6463(2)
H9_8 H 0.4288 0.3639 0.6837
H10_8 H 0.4636 0.3723 0.6210
H11_8 H 0.4167 0.4253 0.6506
C13_8 C 0.0619(2) 0.73781(18) 0.75665(17)
C14_8 C 0.1441(3) 0.7210(3) 0.7711(2)
H12_8 H 0.1655 0.6962 0.7406
H13_8 H 0.1755 0.7570 0.7750
H14_8 H 0.1448 0.6989 0.8071
C15_11 C -0.0000 0.7500 0.7925(2)
C16_11 C 0.0000 0.7500 0.8556(2)
C19_11 C -0.0000 0.7500 0.9748(2)
C23_8 C 0.0550(2) 0.78256(18) 0.88622(18)
H20_8 H 0.0932 0.8047 0.8662
C24_8 C 0.0548(2) 0.78316(18) 0.94498(18)
H21_8 H 0.0920 0.8062 0.9651
N5_8 N 0.73529(19) 0.20588(14) 0.58889(16)
H22_8 H 0.7561 0.2400 0.5791
C28_8 C 0.7907(3) 0.02339(19) 0.6400(2)
H24_8 H 0.8197 0.0499 0.6632
C29_8 C 0.7332(2) 0.04568(16) 0.6045(2)
C30_8 C 0.6915(3) 0.00582(19) 0.5716(2)
H25_8 H 0.6521 0.0200 0.5468
C32_8 C 0.7190(2) 0.11079(18) 0.6018(2)
C33_8 C 0.7691(2) 0.15285(17) 0.5813(2)
C34_8 C 0.6540(2) 0.14114(17) 0.62123(19)
C35_8 C 0.8472(3) 0.1463(2) 0.5537(3)
H27_8 H 0.8495 0.1711 0.5195
H28_8 H 0.8877 0.1589 0.5805
H29_8 H 0.8555 0.1047 0.5432
C36_8 C 0.5798(3) 0.11790(19) 0.6463(2)
H30_8 H 0.5712 0.1361 0.6837
H31_8 H 0.5364 0.1277 0.6210
H32_8 H 0.5833 0.0747 0.6506
C20_12 C 1.0000 0.7500 0.0383(2)
C15_12 C 1.0000 0.7500 0.7925(2)
C16_12 C 1.0000 0.7500 0.8556(2)
C17_8 C 0.9450(2) 0.71744(18) 0.88622(18)
H15_8 H 0.9068 0.6953 0.8662
C18_8 C 0.9452(2) 0.71684(18) 0.94498(18)
H16_8 H 0.9080 0.6938 0.9651
C19_12 C 1.0000 0.7500 0.9748(2)
N4_8 N 0.96140(18) 0.75797(14) 0.70212(13)
C21_8 C 0.9381(2) 0.76219(18) 0.75665(17)
C22_8 C 0.8559(3) 0.7790(3) 0.7711(2)
H17_8 H 0.8345 0.8038 0.7406
H18_8 H 0.8245 0.7430 0.7750
H19_8 H 0.8552 0.8011 0.8071
O5_8 O 0.84074(18) 0.84362(12) 0.64046(13)
O6_8 O 0.7410(2) 0.82402(13) 0.58298(17)
C25_8 C 0.7823(2) 0.85835(17) 0.6105(2)
C26_8 C 0.7642(2) 0.92408(17) 0.6091(2)
C27_8 C 0.8062(3) 0.96295(19) 0.6422(2)
H23_8 H 0.8459 0.9484 0.6666
C31_8 C 0.7064(3) 0.94535(18) 0.5745(2)
H26_8 H 0.6764 0.9185 0.5523
loop_
_geom_bond_atom_site_label_1
_geom_bond_atom_site_label_2
_geom_bond_site_symmetry_1
_geom_bond_site_symmetry_2
N5 H22 1_555 1_555
N6 N5 1_555 1_555
H24 C28 1_555 1_555
C29 C28 1_555 1_555
C30 C29 1_555 1_555
H25 C30 1_555 1_555
C32 C29 1_555 1_555
C33 N5 1_555 1_555
C34 N6 1_555 1_555
C35 C33 1_555 1_555
H27 C35 1_555 1_555
H28 C35 1_555 1_555
H29 C35 1_555 1_555
C36 C34 1_555 1_555
H30 C36 1_555 1_555
H31 C36 1_555 1_555
H32 C36 1_555 1_555
Zn5 N6 1_555 1_555
C32 C33 1_555 1_555
C32 C34 1_555 1_555
Zn1 N3 1_555 1_555
N1 H1 1_555 1_555
N2 N1 1_555 1_555
N3 C13 1_555 1_555
O1 Zn1 1_555 1_555
O2 C1 1_555 1_555
O3 C20 1_555 1_555
C1 O1 1_555 1_555
C2 C1 1_555 1_555
C3 C2 1_555 1_555
H2 C3 1_555 1_555
C4 C3 1_555 1_555
H3 C4 1_555 1_555
C5 C4 1_555 1_555
C6 C5 1_555 1_555
H4 C6 1_555 1_555
C7 C2 1_555 1_555
H5 C7 1_555 1_555
C8 C5 1_555 1_555
C9 N1 1_555 1_555
C10 N2 1_555 1_555
C11 C9 1_555 1_555
H6 C11 1_555 1_555
H7 C11 1_555 1_555
H8 C11 1_555 1_555
C12 C10 1_555 1_555
H9 C12 1_555 1_555
H10 C12 1_555 1_555
H11 C12 1_555 1_555
C13 C14 1_555 1_555
C14 H12 1_555 1_555
H13 C14 1_555 1_555
H14 C14 1_555 1_555
C15 C13 1_555 1_555
C16 C15 1_555 1_555
C17 C16 1_555 1_555
H15 C17 1_555 1_555
C18 C17 1_555 1_555
H16 C18 1_555 1_555
C19 C18 1_555 1_555
C20 C19 1_555 1_555
N4 N3 1_555 1_555
O4 C20 1_555 1_555
C21 C15 1_555 1_555
C22 C21 1_555 1_555
H17 C22 1_555 1_555
H18 C22 1_555 1_555
H19 C22 1_555 1_555
C23 C16 1_555 1_555
H20 C23 1_555 1_555
C24 C19 1_555 1_555
H21 C24 1_555 1_555
Zn2 N4 1_555 1_555
O5 Zn2 1_555 1_555
O6 C25 1_555 1_555
C25 O5 1_555 1_555
C26 C25 1_555 1_555
C27 C26 1_555 1_555
H23 C27 1_555 1_555
C31 C26 1_555 1_555
H26 C31 1_555 1_555
Zn3 O3 1_555 1_555
Zn4 N2 1_555 1_555
Zn6 O4 1_555 1_555
N7 Zn1 1_555 1_555
N8 Zn2 1_555 1_555
O7 Zn1 1_555 1_555
O8 Zn2 1_555 1_555
C6 C7 1_555 1_555
C8 C9 1_555 1_555
C8 C10 1_555 1_555
N4 C21 1_555 1_555
C23 C24 1_555 1_555
C16_2 C15_2 1_555 1_555
C17_2 C16_2 1_555 1_555
H15_2 C17_2 1_555 1_555
C18_2 C17_2 1_555 1_555
H16_2 C18_2 1_555 1_555
C19_2 C18_2 1_555 1_555
C21_2 C15_2 1_555 1_555
C22_2 C21_2 1_555 1_555
H17_2 C22_2 1_555 1_555
H18_2 C22_2 1_555 1_555
H19_2 C22_2 1_555 1_555
Zn2_2 N4_2 1_555 1_555
O5_2 Zn2_2 1_555 1_555
O6_2 C25_2 1_555 1_555
C25_2 O5_2 1_555 1_555
C26_2 C25_2 1_555 1_555
C27_2 C26_2 1_555 1_555
H23_2 C27_2 1_555 1_555
C31_2 C26_2 1_555 1_555
H26_2 C31_2 1_555 1_555
N8_2 Zn2_2 1_555 1_555
O8_2 Zn2_2 1_555 1_555
N4_2 C21_2 1_555 1_555
O4_2 C20_2 1_555 1_555
Zn5 O4_2 1_555 1_555
N5_2 H22_2 1_555 1_555
N6_2 N5_2 1_555 1_555
H24_2 C28_2 1_555 1_555
C29_2 C28_2 1_555 1_555
C30_2 C29_2 1_555 1_555
H25_2 C30_2 1_555 1_555
C32_2 C29_2 1_555 1_555
C33_2 N5_2 1_555 1_555
C34_2 N6_2 1_555 1_555
C35_2 C33_2 1_555 1_555
H27_2 C35_2 1_555 1_555
H28_2 C35_2 1_555 1_555
H29_2 C35_2 1_555 1_555
C36_2 C34_2 1_555 1_555
H30_2 C36_2 1_555 1_555
H31_2 C36_2 1_555 1_555
H32_2 C36_2 1_555 1_555
Zn6 N6_2 1_555 1_555
C32_2 C33_2 1_555 1_555
C32_2 C34_2 1_555 1_555
Zn1_2 N3_2 1_555 1_555
N1_2 H1_2 1_555 1_555
N2_2 N1_2 1_555 1_555
N3_2 C13_2 1_555 1_555
O1_2 Zn1_2 1_555 1_555
O2_2 C1_2 1_555 1_555
C1_2 O1_2 1_555 1_555
C2_2 C1_2 1_555 1_555
C3_2 C2_2 1_555 1_555
H2_2 C3_2 1_555 1_555
C4_2 C3_2 1_555 1_555
H3_2 C4_2 1_555 1_555
C5_2 C4_2 1_555 1_555
C6_2 C5_2 1_555 1_555
H4_2 C6_2 1_555 1_555
C7_2 C2_2 1_555 1_555
H5_2 C7_2 1_555 1_555
C8_2 C5_2 1_555 1_555
C9_2 N1_2 1_555 1_555
C10_2 N2_2 1_555 1_555
C11_2 C9_2 1_555 1_555
H6_2 C11_2 1_555 1_555
H7_2 C11_2 1_555 1_555
H8_2 C11_2 1_555 1_555
C12_2 C10_2 1_555 1_555
H9_2 C12_2 1_555 1_555
H10_2 C12_2 1_555 1_555
H11_2 C12_2 1_555 1_555
C13_2 C14_2 1_555 1_555
C14_2 H12_2 1_555 1_555
H13_2 C14_2 1_555 1_555
H14_2 C14_2 1_555 1_555
C15_3 C13_2 1_555 1_555
C16_3 C15_3 1_555 1_555
C23_2 C16_3 1_555 1_555
H20_2 C23_2 1_555 1_555
C24_2 C19_3 1_555 1_555
H21_2 C24_2 1_555 1_555
Zn3 N2_2 1_555 1_555
N7_2 Zn1_2 1_555 1_555
O7_2 Zn1_2 1_555 1_555
C6_2 C7_2 1_555 1_555
C8_2 C9_2 1_555 1_555
C8_2 C10_2 1_555 1_555
C23_2 C24_2 1_555 1_555
O3_2 C20_3 1_555 1_555
Zn4 O3_2 1_555 1_555
N1_3 H1_3 1_555 1_555
N7_2 N1_3 1_555 1_555
H3_3 C4_3 1_555 1_555
C5_3 C4_3 1_555 1_555
C6_3 C5_3 1_555 1_555
H4_3 C6_3 1_555 1_555
C8_3 C5_3 1_555 1_555
C9_3 N1_3 1_555 1_555
C10_3 N7_2 1_555 1_555
C11_3 C9_3 1_555 1_555
H6_3 C11_3 1_555 1_555
H7_3 C11_3 1_555 1_555
H8_3 C11_3 1_555 1_555
C12_3 C10_3 1_555 1_555
H9_3 C12_3 1_555 1_555
H10_3 C12_3 1_555 1_555
H11_3 C12_3 1_555 1_555
C8_3 C9_3 1_555 1_555
C8_3 C10_3 1_555 1_555
Zn3 N3_3 1_555 1_555
N3_3 C13_3 1_555 1_555
O1_3 Zn3 1_555 1_555
O2_3 C1_3 1_555 1_555
C1_3 O1_3 1_555 1_555
C2_3 C1_3 1_555 1_555
C3_3 C2_3 1_555 1_555
H2_3 C3_3 1_555 1_555
C7_3 C2_3 1_555 1_555
H5_3 C7_3 1_555 1_555
C13_3 C14_3 1_555 1_555
C14_3 H12_3 1_555 1_555
H13_3 C14_3 1_555 1_555
H14_3 C14_3 1_555 1_555
C15_4 C13_3 1_555 1_555
C16_4 C15_4 1_555 1_555
C17_3 C16_4 1_555 1_555
H15_3 C17_3 1_555 1_555
C18_3 C17_3 1_555 1_555
H16_3 C18_3 1_555 1_555
C19_4 C18_3 1_555 1_555
N4_3 N3_3 1_555 1_555
C21_3 C15_4 1_555 1_555
C22_3 C21_3 1_555 1_555
H17_3 C22_3 1_555 1_555
H18_3 C22_3 1_555 1_555
H19_3 C22_3 1_555 1_555
C23_3 C16_4 1_555 1_555
H20_3 C23_3 1_555 1_555
C24_3 C19_4 1_555 1_555
H21_3 C24_3 1_555 1_555
Zn6 N4_3 1_555 1_555
N5_3 H22_3 1_555 1_555
N8_2 N5_3 1_555 1_555
O5_3 Zn6 1_555 1_555
O6_3 C25_3 1_555 1_555
C25_3 O5_3 1_555 1_555
C26_3 C25_3 1_555 1_555
C27_3 C26_3 1_555 1_555
H23_3 C27_3 1_555 1_555
C28_3 C27_3 1_555 1_555
H24_3 C28_3 1_555 1_555
C29_3 C28_3 1_555 1_555
C30_3 C29_3 1_555 1_555
H25_3 C30_3 1_555 1_555
C31_3 C26_3 1_555 1_555
H26_3 C31_3 1_555 1_555
C32_3 C29_3 1_555 1_555
C33_3 N5_3 1_555 1_555
C34_3 N8_2 1_555 1_555
C35_3 C33_3 1_555 1_555
H27_3 C35_3 1_555 1_555
H28_3 C35_3 1_555 1_555
H29_3 C35_3 1_555 1_555
C36_3 C34_3 1_555 1_555
H30_3 C36_3 1_555 1_555
H31_3 C36_3 1_555 1_555
H32_3 C36_3 1_555 1_555
N4_3 C21_3 1_555 1_555
C23_3 C24_3 1_555 1_555
C30_3 C31_3 1_555 1_555
C32_3 C33_3 1_555 1_555
C32_3 C34_3 1_555 1_555
O7 C20_4 1_555 1_555
O8 C20_4 1_555 1_555
C16_5 C15_5 1_555 1_555
C17_4 C16_5 1_555 1_555
H15_4 C17_4 1_555 1_555
C18_4 C17_4 1_555 1_555
H16_4 C18_4 1_555 1_555
C19_5 C18_4 1_555 1_555
C20_5 C19_5 1_555 1_555
O8_2 C20_5 1_555 1_555
C21_4 C15_5 1_555 1_555
C22_4 C21_4 1_555 1_555
H17_4 C22_4 1_555 1_555
H18_4 C22_4 1_555 1_555
H19_4 C22_4 1_555 1_555
Zn5 N4_4 1_555 1_555
N5_4 H22_4 1_555 1_555
N8 N5_4 1_555 1_555
O5_4 Zn5 1_555 1_555
O6_4 C25_4 1_555 1_555
C25_4 O5_4 1_555 1_555
C26_4 C25_4 1_555 1_555
C27_4 C26_4 1_555 1_555
H23_4 C27_4 1_555 1_555
C28_4 C27_4 1_555 1_555
H24_4 C28_4 1_555 1_555
C29_4 C28_4 1_555 1_555
C30_4 C29_4 1_555 1_555
H25_4 C30_4 1_555 1_555
C31_4 C26_4 1_555 1_555
H26_4 C31_4 1_555 1_555
C32_4 C29_4 1_555 1_555
C33_4 N5_4 1_555 1_555
C34_4 N8 1_555 1_555
C35_4 C33_4 1_555 1_555
H27_4 C35_4 1_555 1_555
H28_4 C35_4 1_555 1_555
H29_4 C35_4 1_555 1_555
C36_4 C34_4 1_555 1_555
H30_4 C36_4 1_555 1_555
H31_4 C36_4 1_555 1_555
H32_4 C36_4 1_555 1_555
N4_4 C21_4 1_555 1_555
C30_4 C31_4 1_555 1_555
C32_4 C33_4 1_555 1_555
C32_4 C34_4 1_555 1_555
Zn4 N3_4 1_555 1_555
N3_4 C13_4 1_555 1_555
O1_4 Zn4 1_555 1_555
O2_4 C1_4 1_555 1_555
O7_2 C20_6 1_555 1_555
C1_4 O1_4 1_555 1_555
C2_4 C1_4 1_555 1_555
C3_4 C2_4 1_555 1_555
H2_4 C3_4 1_555 1_555
C7_4 C2_4 1_555 1_555
H5_4 C7_4 1_555 1_555
C13_4 C14_4 1_555 1_555
C14_4 H12_4 1_555 1_555
H13_4 C14_4 1_555 1_555
H14_4 C14_4 1_555 1_555
C15_6 C13_4 1_555 1_555
C16_6 C15_6 1_555 1_555
C20_6 C19_6 1_555 1_555
C23_4 C16_6 1_555 1_555
H20_4 C23_4 1_555 1_555
C24_4 C19_6 1_555 1_555
H21_4 C24_4 1_555 1_555
C23_4 C24_4 1_555 1_555
N1_4 H1_4 1_555 1_555
N7 N1_4 1_555 1_555
H3_4 C4_4 1_555 1_555
C5_4 C4_4 1_555 1_555
C6_4 C5_4 1_555 1_555
H4_4 C6_4 1_555 1_555
C8_4 C5_4 1_555 1_555
C9_4 N1_4 1_555 1_555
C10_4 N7 1_555 1_555
C11_4 C9_4 1_555 1_555
H6_4 C11_4 1_555 1_555
H7_4 C11_4 1_555 1_555
H8_4 C11_4 1_555 1_555
C12_4 C10_4 1_555 1_555
H9_4 C12_4 1_555 1_555
H10_4 C12_4 1_555 1_555
H11_4 C12_4 1_555 1_555
C8_4 C9_4 1_555 1_555
C8_4 C10_4 1_555 1_555
O3_3 C20_7 1_555 1_555
O4_3 C20_7 1_555 1_555
Zn3_2 O3_3 1_555 1_555
Zn6_2 O4_3 1_555 1_555
Zn1_3 N3_5 1_555 1_555
N3_5 C13_5 1_555 1_555
O1_5 Zn1_3 1_555 1_555
O2_5 C1_5 1_555 1_555
C1_5 O1_5 1_555 1_555
C2_5 C1_5 1_555 1_555
C3_5 C2_5 1_555 1_555
H2_5 C3_5 1_555 1_555
C7_5 C2_5 1_555 1_555
H5_5 C7_5 1_555 1_555
C13_5 C14_5 1_555 1_555
C14_5 H12_5 1_555 1_555
H13_5 C14_5 1_555 1_555
H14_5 C14_5 1_555 1_555
C15_7 C13_5 1_555 1_555
C16_7 C15_7 1_555 1_555
C17_5 C16_7 1_555 1_555
H15_5 C17_5 1_555 1_555
C18_5 C17_5 1_555 1_555
H16_5 C18_5 1_555 1_555
C19_7 C18_5 1_555 1_555
N4_5 N3_5 1_555 1_555
C21_5 C15_7 1_555 1_555
C22_5 C21_5 1_555 1_555
H17_5 C22_5 1_555 1_555
H18_5 C22_5 1_555 1_555
H19_5 C22_5 1_555 1_555
C23_5 C16_7 1_555 1_555
H20_5 C23_5 1_555 1_555
C24_5 C19_7 1_555 1_555
H21_5 C24_5 1_555 1_555
Zn2_3 N4_5 1_555 1_555
N5_5 H22_5 1_555 1_555
N6_3 N5_5 1_555 1_555
O5_5 Zn2_3 1_555 1_555
O6_5 C25_5 1_555 1_555
C25_5 O5_5 1_555 1_555
C26_5 C25_5 1_555 1_555
C27_5 C26_5 1_555 1_555
H23_5 C27_5 1_555 1_555
C28_5 C27_5 1_555 1_555
H24_5 C28_5 1_555 1_555
C29_5 C28_5 1_555 1_555
C30_5 C29_5 1_555 1_555
H25_5 C30_5 1_555 1_555
C31_5 C26_5 1_555 1_555
H26_5 C31_5 1_555 1_555
C32_5 C29_5 1_555 1_555
C33_5 N5_5 1_555 1_555
C34_5 N6_3 1_555 1_555
C35_5 C33_5 1_555 1_555
H27_5 C35_5 1_555 1_555
H28_5 C35_5 1_555 1_555
H29_5 C35_5 1_555 1_555
C36_5 C34_5 1_555 1_555
H30_5 C36_5 1_555 1_555
H31_5 C36_5 1_555 1_555
H32_5 C36_5 1_555 1_555
Zn5_2 N6_3 1_555 1_555
N7_3 Zn1_3 1_555 1_555
N8_3 Zn2_3 1_555 1_555
O7_3 Zn1_3 1_555 1_555
O8_3 Zn2_3 1_555 1_555
N4_5 C21_5 1_555 1_555
C23_5 C24_5 1_555 1_555
C30_5 C31_5 1_555 1_555
C32_5 C33_5 1_555 1_555
C32_5 C34_5 1_555 1_555
N1_5 H1_5 1_555 1_555
N2_3 N1_5 1_555 1_555
H3_5 C4_5 1_555 1_555
C5_5 C4_5 1_555 1_555
C6_5 C5_5 1_555 1_555
H4_5 C6_5 1_555 1_555
C8_5 C5_5 1_555 1_555
C9_5 N1_5 1_555 1_555
C10_5 N2_3 1_555 1_555
C11_5 C9_5 1_555 1_555
H6_5 C11_5 1_555 1_555
H7_5 C11_5 1_555 1_555
H8_5 C11_5 1_555 1_555
C12_5 C10_5 1_555 1_555
H9_5 C12_5 1_555 1_555
H10_5 C12_5 1_555 1_555
H11_5 C12_5 1_555 1_555
Zn4_2 N2_3 1_555 1_555
C8_5 C9_5 1_555 1_555
C8_5 C10_5 1_555 1_555
N1_6 H1_6 1_555 1_555
N2_4 N1_6 1_555 1_555
H3_6 C4_6 1_555 1_555
C5_6 C4_6 1_555 1_555
C6_6 C5_6 1_555 1_555
H4_6 C6_6 1_555 1_555
C8_6 C5_6 1_555 1_555
C9_6 N1_6 1_555 1_555
C10_6 N2_4 1_555 1_555
C11_6 C9_6 1_555 1_555
H6_6 C11_6 1_555 1_555
H7_6 C11_6 1_555 1_555
H8_6 C11_6 1_555 1_555
C12_6 C10_6 1_555 1_555
H9_6 C12_6 1_555 1_555
H10_6 C12_6 1_555 1_555
H11_6 C12_6 1_555 1_555
Zn3_2 N2_4 1_555 1_555
C8_6 C9_6 1_555 1_555
C8_6 C10_6 1_555 1_555
Zn1_4 N3_6 1_555 1_555
N3_6 C13_6 1_555 1_555
O1_6 Zn1_4 1_555 1_555
O2_6 C1_6 1_555 1_555
O3_4 C20_8 1_555 1_555
C1_6 O1_6 1_555 1_555
C2_6 C1_6 1_555 1_555
C3_6 C2_6 1_555 1_555
H2_6 C3_6 1_555 1_555
C7_6 C2_6 1_555 1_555
H5_6 C7_6 1_555 1_555
C13_6 C14_6 1_555 1_555
C14_6 H12_6 1_555 1_555
H13_6 C14_6 1_555 1_555
H14_6 C14_6 1_555 1_555
C15_8 C13_6 1_555 1_555
C16_8 C15_8 1_555 1_555
C20_8 C19_8 1_555 1_555
C23_6 C16_8 1_555 1_555
H20_6 C23_6 1_555 1_555
C24_6 C19_8 1_555 1_555
H21_6 C24_6 1_555 1_555
Zn4_2 O3_4 1_555 1_555
N7_4 Zn1_4 1_555 1_555
O7_4 Zn1_4 1_555 1_555
C23_6 C24_6 1_555 1_555
C16_9 C15_9 1_555 1_555
C17_6 C16_9 1_555 1_555
H15_6 C17_6 1_555 1_555
C18_6 C17_6 1_555 1_555
H16_6 C18_6 1_555 1_555
C19_9 C18_6 1_555 1_555
C20_9 C19_9 1_555 1_555
O4_4 C20_9 1_555 1_555
C21_6 C15_9 1_555 1_555
C22_6 C21_6 1_555 1_555
H17_6 C22_6 1_555 1_555
H18_6 C22_6 1_555 1_555
H19_6 C22_6 1_555 1_555
Zn2_4 N4_6 1_555 1_555
N5_6 H22_6 1_555 1_555
N6_4 N5_6 1_555 1_555
O5_6 Zn2_4 1_555 1_555
O6_6 C25_6 1_555 1_555
C25_6 O5_6 1_555 1_555
C26_6 C25_6 1_555 1_555
C27_6 C26_6 1_555 1_555
H23_6 C27_6 1_555 1_555
C28_6 C27_6 1_555 1_555
H24_6 C28_6 1_555 1_555
C29_6 C28_6 1_555 1_555
C30_6 C29_6 1_555 1_555
H25_6 C30_6 1_555 1_555
C31_6 C26_6 1_555 1_555
H26_6 C31_6 1_555 1_555
C32_6 C29_6 1_555 1_555
C33_6 N5_6 1_555 1_555
C34_6 N6_4 1_555 1_555
C35_6 C33_6 1_555 1_555
H27_6 C35_6 1_555 1_555
H28_6 C35_6 1_555 1_555
H29_6 C35_6 1_555 1_555
C36_6 C34_6 1_555 1_555
H30_6 C36_6 1_555 1_555
H31_6 C36_6 1_555 1_555
H32_6 C36_6 1_555 1_555
Zn6_2 N6_4 1_555 1_555
Zn5_2 O4_4 1_555 1_555
N8_4 Zn2_4 1_555 1_555
O8_4 Zn2_4 1_555 1_555
N4_6 C21_6 1_555 1_555
C30_6 C31_6 1_555 1_555
C32_6 C33_6 1_555 1_555
C32_6 C34_6 1_555 1_555
Zn3_2 N3_7 1_555 1_555
N1_7 H1_7 1_555 1_555
N7_4 N1_7 1_555 1_555
N3_7 C13_7 1_555 1_555
O1_7 Zn3_2 1_555 1_555
O2_7 C1_7 1_555 1_555
O7_3 C20_10 1_555 1_555
C1_7 O1_7 1_555 1_555
C2_7 C1_7 1_555 1_555
C3_7 C2_7 1_555 1_555
H2_7 C3_7 1_555 1_555
C4_7 C3_7 1_555 1_555
H3_7 C4_7 1_555 1_555
C5_7 C4_7 1_555 1_555
C6_7 C5_7 1_555 1_555
H4_7 C6_7 1_555 1_555
C7_7 C2_7 1_555 1_555
H5_7 C7_7 1_555 1_555
C8_7 C5_7 1_555 1_555
C9_7 N1_7 1_555 1_555
C10_7 N7_4 1_555 1_555
C11_7 C9_7 1_555 1_555
H6_7 C11_7 1_555 1_555
H7_7 C11_7 1_555 1_555
H8_7 C11_7 1_555 1_555
C12_7 C10_7 1_555 1_555
H9_7 C12_7 1_555 1_555
H10_7 C12_7 1_555 1_555
H11_7 C12_7 1_555 1_555
C13_7 C14_7 1_555 1_555
C14_7 H12_7 1_555 1_555
H13_7 C14_7 1_555 1_555
H14_7 C14_7 1_555 1_555
C15_10 C13_7 1_555 1_555
C16_10 C15_10 1_555 1_555
C17_7 C16_10 1_555 1_555
H15_7 C17_7 1_555 1_555
C18_7 C17_7 1_555 1_555
H16_7 C18_7 1_555 1_555
C19_10 C18_7 1_555 1_555
C20_10 C19_10 1_555 1_555
N4_7 N3_7 1_555 1_555
O8_3 C20_10 1_555 1_555
C21_7 C15_10 1_555 1_555
C22_7 C21_7 1_555 1_555
H17_7 C22_7 1_555 1_555
H18_7 C22_7 1_555 1_555
H19_7 C22_7 1_555 1_555
C23_7 C16_10 1_555 1_555
H20_7 C23_7 1_555 1_555
C24_7 C19_10 1_555 1_555
H21_7 C24_7 1_555 1_555
Zn6_2 N4_7 1_555 1_555
O5_7 Zn6_2 1_555 1_555
O6_7 C25_7 1_555 1_555
C25_7 O5_7 1_555 1_555
C26_7 C25_7 1_555 1_555
C27_7 C26_7 1_555 1_555
H23_7 C27_7 1_555 1_555
C31_7 C26_7 1_555 1_555
H26_7 C31_7 1_555 1_555
C6_7 C7_7 1_555 1_555
C8_7 C9_7 1_555 1_555
C8_7 C10_7 1_555 1_555
N4_7 C21_7 1_555 1_555
C23_7 C24_7 1_555 1_555
N5_7 H22_7 1_555 1_555
N8_4 N5_7 1_555 1_555
H24_7 C28_7 1_555 1_555
C29_7 C28_7 1_555 1_555
C30_7 C29_7 1_555 1_555
H25_7 C30_7 1_555 1_555
C32_7 C29_7 1_555 1_555
C33_7 N5_7 1_555 1_555
C34_7 N8_4 1_555 1_555
C35_7 C33_7 1_555 1_555
H27_7 C35_7 1_555 1_555
H28_7 C35_7 1_555 1_555
H29_7 C35_7 1_555 1_555
C36_7 C34_7 1_555 1_555
H30_7 C36_7 1_555 1_555
H31_7 C36_7 1_555 1_555
H32_7 C36_7 1_555 1_555
C32_7 C33_7 1_555 1_555
C32_7 C34_7 1_555 1_555
O7_4 C20_11 1_555 1_555
Zn4_2 N3_8 1_555 1_555
N1_8 H1_8 1_555 1_555
N7_3 N1_8 1_555 1_555
N3_8 C13_8 1_555 1_555
O1_8 Zn4_2 1_555 1_555
O2_8 C1_8 1_555 1_555
C1_8 O1_8 1_555 1_555
C2_8 C1_8 1_555 1_555
C3_8 C2_8 1_555 1_555
H2_8 C3_8 1_555 1_555
C4_8 C3_8 1_555 1_555
H3_8 C4_8 1_555 1_555
C5_8 C4_8 1_555 1_555
C6_8 C5_8 1_555 1_555
H4_8 C6_8 1_555 1_555
C7_8 C2_8 1_555 1_555
H5_8 C7_8 1_555 1_555
C8_8 C5_8 1_555 1_555
C9_8 N1_8 1_555 1_555
C10_8 N7_3 1_555 1_555
C11_8 C9_8 1_555 1_555
H6_8 C11_8 1_555 1_555
H7_8 C11_8 1_555 1_555
H8_8 C11_8 1_555 1_555
C12_8 C10_8 1_555 1_555
H9_8 C12_8 1_555 1_555
H10_8 C12_8 1_555 1_555
H11_8 C12_8 1_555 1_555
C13_8 C14_8 1_555 1_555
C14_8 H12_8 1_555 1_555
H13_8 C14_8 1_555 1_555
H14_8 C14_8 1_555 1_555
C15_11 C13_8 1_555 1_555
C16_11 C15_11 1_555 1_555
C23_8 C16_11 1_555 1_555
H20_8 C23_8 1_555 1_555
C24_8 C19_11 1_555 1_555
H21_8 C24_8 1_555 1_555
C6_8 C7_8 1_555 1_555
C8_8 C9_8 1_555 1_555
C8_8 C10_8 1_555 1_555
C23_8 C24_8 1_555 1_555
N5_8 H22_8 1_555 1_555
N8_3 N5_8 1_555 1_555
H24_8 C28_8 1_555 1_555
C29_8 C28_8 1_555 1_555
C30_8 C29_8 1_555 1_555
H25_8 C30_8 1_555 1_555
C32_8 C29_8 1_555 1_555
C33_8 N5_8 1_555 1_555
C34_8 N8_3 1_555 1_555
C35_8 C33_8 1_555 1_555
H27_8 C35_8 1_555 1_555
H28_8 C35_8 1_555 1_555
H29_8 C35_8 1_555 1_555
C36_8 C34_8 1_555 1_555
H30_8 C36_8 1_555 1_555
H31_8 C36_8 1_555 1_555
H32_8 C36_8 1_555 1_555
C32_8 C33_8 1_555 1_555
C32_8 C34_8 1_555 1_555
O8_4 C20_12 1_555 1_555
C16_12 C15_12 1_555 1_555
C17_8 C16_12 1_555 1_555
H15_8 C17_8 1_555 1_555
C18_8 C17_8 1_555 1_555
H16_8 C18_8 1_555 1_555
C19_12 C18_8 1_555 1_555
C21_8 C15_12 1_555 1_555
C22_8 C21_8 1_555 1_555
H17_8 C22_8 1_555 1_555
H18_8 C22_8 1_555 1_555
H19_8 C22_8 1_555 1_555
Zn5_2 N4_8 1_555 1_555
O5_8 Zn5_2 1_555 1_555
O6_8 C25_8 1_555 1_555
C25_8 O5_8 1_555 1_555
C26_8 C25_8 1_555 1_555
C27_8 C26_8 1_555 1_555
H23_8 C27_8 1_555 1_555
C31_8 C26_8 1_555 1_555
H26_8 C31_8 1_555 1_555
N4_8 C21_8 1_555 1_555

#END
