
###############################################################################
#
# This file contains modified crystal structure data generated from the
# MOF subset of the Cambridge Structural Database (CSD) v543 
# hosted by the Cambridge Crystallographic Data Centre (CCDC).
#
# This work is licensed under the Creative Commons
# Attribution-NonCommercial-ShareAlike 4.0 International License.
# To view a copy of this license, visit
# http://creativecommons.org/licenses/by-nc-sa/4.0/
# or send a letter to
# Creative Commons, PO Box 1866, Mountain View, CA 94042, USA.
#
# CIF created using the CSD Python API on 29 September 2022
# The structure has been converted into the P1 space group
# The structure has a 3D framework
# The original CSD entry XILTUK is in the monoclinic crystal system
# The framework has been calculated to contain at least 10.0% void space
# The void calculation uses a probe of radius 1.32A, grid spacing 0.4
#
###############################################################################

data_XILTUK
_chemical_formula_moiety         '(C288 H256 N48 O48 Zn16)n'
_symmetry_cell_setting           triclinic
_symmetry_space_group_name_H-M   'P 1'
_symmetry_Int_Tables_number      1
_space_group_name_Hall           'P 1'
loop_
_symmetry_equiv_pos_site_id
_symmetry_equiv_pos_as_xyz
1 x,y,z
_cell_length_a                   29.4270(19)
_cell_length_b                   16.4600(10)
_cell_length_c                   22.5860(14)
_cell_angle_alpha                90
_cell_angle_beta                 128.4880(10)
_cell_angle_gamma                90
_cell_volume                     8563.12
loop_
_atom_site_label
_atom_site_type_symbol
_atom_site_fract_x
_atom_site_fract_y
_atom_site_fract_z
O6 O 0.60473(12) 0.10979(18) 0.01176(16)
C25 C 0.62972(18) 0.0433(3) 0.0170(3)
Zn5 Zn 0.60625(2) 0.15783(3) 0.09047(3)
O5 O 0.65331(13) 0.99457(19) 0.07046(17)
C20 C 0.65528(17) 0.4648(2) 0.0017(2)
C21 C 0.68358(17) 0.5133(3) 0.0663(2)
C22 C 0.62660(17) 0.4048(3) 0.0122(2)
C24 C 0.71857(19) 0.5888(3) 0.0866(3)
H18 H 0.7553 0.5838 0.1379
H19 H 0.6968 0.6355 0.0842
H20 H 0.7266 0.5969 0.0509
N5 N 0.67132(13) 0.48306(19) 0.11011(19)
H32 H 0.6842 0.5037 0.1540
N6 N 0.63650(14) 0.4164(2) 0.07814(18)
Zn3 Zn 0.60553(2) 0.36716(3) 0.12822(3)
Zn1 Zn 0.60553(2) 0.63284(3) 0.62822(3)
Zn2 Zn 0.60625(2) 0.84217(3) 0.59047(3)
O1 O 0.59924(11) 0.54952(17) 0.68360(16)
O2 O 0.69058(12) 0.50630(17) 0.74600(16)
O3 O 0.18163(11) 0.71247(18) 0.15242(16)
O4 O 0.16756(11) 0.80096(17) 0.21473(16)
C1 C 0.19909(17) 0.7530(2) 0.2107(2)
C2 C 0.26157(17) 0.7450(2) 0.2784(2)
C3 C 0.29570(16) 0.6857(2) 0.2801(2)
H1 H 0.2789 0.6483 0.2394
C4 C 0.35436(16) 0.6806(2) 0.3412(2)
H2 H 0.3773 0.6387 0.3427
C5 C 0.38009(16) 0.7366(2) 0.4006(2)
C6 C 0.34486(17) 0.7957(2) 0.3982(2)
H3 H 0.3615 0.8336 0.4385
C7 C 0.28631(16) 0.7999(2) 0.3383(2)
H4 H 0.2629 0.8401 0.3377
C8 C 0.44355(16) 0.7353(2) 0.4628(2)
C9 C 0.47852(16) 0.6711(2) 0.5090(2)
C10 C 0.48166(16) 0.8001(2) 0.4859(2)
C11 C 0.46180(17) 0.5854(3) 0.5114(3)
H5 H 0.4947 0.5584 0.5573
H6 H 0.4512 0.5557 0.4668
H7 H 0.4286 0.5865 0.5117
C12 C 0.46932(18) 0.8856(3) 0.4567(3)
H8 H 0.5029 0.9071 0.4624
H9 H 0.4617 0.9194 0.4854
H10 H 0.4352 0.8861 0.4031
C13 C 0.64739(17) 0.5194(2) 0.7423(2)
C14 C 0.64920(18) 0.5016(2) 0.8091(2)
C15 C 0.70147(18) 0.4853(3) 0.8793(2)
H11 H 0.7362 0.4827 0.8847
C16 C 0.70361(19) 0.4728(3) 0.9413(3)
H12 H 0.7400 0.4618 0.9890
C17 C 0.65404(17) 0.4759(2) 0.9359(2)
C18 C 0.60138(19) 0.4909(3) 0.8646(3)
H13 H 0.5665 0.4917 0.8588
C19 C 0.59896(19) 0.5046(3) 0.8023(3)
H14 H 0.5628 0.5161 0.7546
C23 C 0.5907(2) 0.3356(3) 0.9612(3)
H15 H 0.6070 0.2843 0.9889
H16 H 0.5906 0.3354 0.9177
H17 H 0.5508 0.3415 0.9433
C29 C 0.62735(19) 0.9942(3) 0.8278(3)
C30 C 0.6423(2) 0.9339(3) 0.8805(3)
H23 H 0.6520 0.8812 0.8744
C31 C 0.64327(18) 0.9495(3) 0.9414(3)
H24 H 0.6543 0.9079 0.9771
C32 C 0.62856(19) 0.9786(3) 0.7648(3)
C34 C 0.60310(19) 0.9128(3) 0.7135(3)
C35 C 0.5675(2) 0.8444(3) 0.7084(3)
H25 H 0.5376 0.8296 0.6553
H26 H 0.5490 0.8612 0.7305
H27 H 0.5926 0.7974 0.7362
N1 N 0.53401(13) 0.69517(19) 0.55618(18)
N2 N 0.53597(13) 0.77581(18) 0.54154(18)
N3 N 0.61464(14) 0.9195(2) 0.6652(2)
N4 N 0.64771(14) 0.9878(2) 0.68533(19)
Zn4 Zn 0.10553(2) 0.86716(3) 0.12822(3)
Zn6 Zn 0.10625(2) 0.65783(3) 0.09047(3)
O7 O 0.68163(11) 0.78753(18) 0.65242(16)
O8 O 0.66756(11) 0.69904(17) 0.71473(16)
O9 O 0.60473(12) 0.89021(18) 0.51176(16)
N7 N 0.63650(14) 0.5836(2) 0.57814(18)
O5_2 O 0.15331(13) 0.49457(19) 0.07046(17)
O6_2 O 0.10473(12) 0.60979(18) 0.01176(16)
C21_2 C 0.18358(17) 0.0133(3) 0.0663(2)
C24_2 C 0.21857(19) 0.0888(3) 0.0866(3)
H18_2 H 0.2553 0.0838 0.1379
H19_2 H 0.1968 0.1355 0.0842
H20_2 H 0.2266 0.0969 0.0509
C25_2 C 0.12972(18) 0.5433(3) 0.0170(3)
H32_2 H 0.1842 0.0037 0.1540
Zn1_2 Zn 0.10553(2) 0.13284(3) 0.62822(3)
Zn2_2 Zn 0.10625(2) 0.34217(3) 0.59047(3)
O1_2 O 0.09924(11) 0.04952(17) 0.68360(16)
O2_2 O 0.19058(12) 0.00630(17) 0.74600(16)
H8_2 H 0.0029 0.4071 0.4624
C13_2 C 0.14739(17) 0.0194(2) 0.7423(2)
C14_2 C 0.14920(18) 0.0016(2) 0.8091(2)
C19_2 C 0.09896(19) 0.0046(3) 0.8023(3)
H14_2 H 0.0628 0.0161 0.7546
C26 C 0.12822(18) 0.5259(3) 0.9506(2)
C27 C 0.1124(2) 0.5857(3) 0.8978(3)
H21 H 0.1016 0.6379 0.9032
C28 C 0.1121(2) 0.5705(3) 0.8375(3)
H22 H 0.1014 0.6125 0.8021
C29_2 C 0.12735(19) 0.4942(3) 0.8278(3)
C30_2 C 0.1423(2) 0.4339(3) 0.8805(3)
H23_2 H 0.1520 0.3812 0.8744
C31_2 C 0.14327(18) 0.4495(3) 0.9414(3)
H24_2 H 0.1543 0.4079 0.9771
C32_2 C 0.12856(19) 0.4786(3) 0.7648(3)
C33 C 0.15597(18) 0.5249(2) 0.7440(2)
C34_2 C 0.10310(19) 0.4128(3) 0.7135(3)
C35_2 C 0.0675(2) 0.3444(3) 0.7084(3)
H25_2 H 0.0376 0.3296 0.6553
H26_2 H 0.0490 0.3612 0.7305
H27_2 H 0.0926 0.2974 0.7362
C36 C 0.1909(2) 0.6014(3) 0.7772(3)
H28 H 0.2217 0.6011 0.7722
H29 H 0.2083 0.6047 0.8309
H30 H 0.1656 0.6485 0.7503
N1_2 N 0.03401(13) 0.19517(19) 0.55618(18)
N2_2 N 0.03597(13) 0.27581(18) 0.54154(18)
N3_2 N 0.11464(14) 0.4195(2) 0.6652(2)
N4_2 N 0.14771(14) 0.4878(2) 0.68533(19)
H31 H 0.1617 0.5051 0.6627
O7_2 O 0.18163(11) 0.28753(18) 0.65242(16)
O8_2 O 0.16756(11) 0.19904(17) 0.71473(16)
O9_2 O 0.10473(12) 0.39021(18) 0.51176(16)
N7_2 N 0.13650(14) 0.0836(2) 0.57814(18)
C20_2 C 0.15528(17) 0.9648(2) 0.0017(2)
C22_2 C 0.12660(17) 0.9048(3) 0.0122(2)
N5_2 N 0.17132(13) 0.98306(19) 0.11011(19)
N6_2 N 0.13650(14) 0.9164(2) 0.07814(18)
O3_2 O 0.68163(11) 0.21247(18) 0.15242(16)
O4_2 O 0.66756(11) 0.30096(17) 0.21473(16)
C1_2 C 0.69909(17) 0.2530(2) 0.2107(2)
C2_2 C 0.76157(17) 0.2450(2) 0.2784(2)
C3_2 C 0.79570(16) 0.1857(2) 0.2801(2)
H1_2 H 0.7789 0.1483 0.2394
C4_2 C 0.85436(16) 0.1806(2) 0.3412(2)
H2_2 H 0.8773 0.1387 0.3427
C5_2 C 0.88009(16) 0.2366(2) 0.4006(2)
C6_2 C 0.84486(17) 0.2957(2) 0.3982(2)
H3_2 H 0.8615 0.3336 0.4385
C7_2 C 0.78631(16) 0.2999(2) 0.3383(2)
H4_2 H 0.7629 0.3401 0.3377
C8_2 C 0.94355(16) 0.2353(2) 0.4628(2)
C9_2 C 0.97852(16) 0.1711(2) 0.5090(2)
C10_2 C 0.98166(16) 0.3001(2) 0.4859(2)
C11_2 C 0.96180(17) 0.0854(3) 0.5114(3)
H5_2 H 0.9947 0.0584 0.5573
H6_2 H 0.9512 0.0557 0.4668
H7_2 H 0.9286 0.0865 0.5117
C12_2 C 0.96932(18) 0.3856(3) 0.4567(3)
H9_2 H 0.9617 0.4194 0.4854
H10_2 H 0.9352 0.3861 0.4031
O1_3 O 0.59924(11) 0.45048(17) 0.18360(16)
O2_3 O 0.69058(12) 0.49370(17) 0.24600(16)
O5_3 O 0.65331(13) 0.00543(19) 0.57046(17)
C9_3 C 0.47852(16) 0.3289(2) 0.0090(2)
C11_3 C 0.46180(17) 0.4146(3) 0.0114(3)
H5_3 H 0.4947 0.4416 0.0573
H7_3 H 0.4286 0.4135 0.0117
C13_3 C 0.64739(17) 0.4806(2) 0.2423(2)
C14_3 C 0.64920(18) 0.4984(2) 0.3091(2)
C15_2 C 0.70147(18) 0.5147(3) 0.3793(2)
H11_2 H 0.7362 0.5173 0.3847
C16_2 C 0.70361(19) 0.5272(3) 0.4413(3)
H12_2 H 0.7400 0.5382 0.4890
C17_2 C 0.65404(17) 0.5241(2) 0.4359(2)
C18_2 C 0.60138(19) 0.5091(3) 0.3646(3)
H13_2 H 0.5665 0.5083 0.3588
C19_3 C 0.59896(19) 0.4954(3) 0.3023(3)
H14_3 H 0.5628 0.4839 0.2546
C20_3 C 0.65528(17) 0.5352(2) 0.5017(2)
C21_3 C 0.68358(17) 0.4867(3) 0.5663(2)
C22_3 C 0.62660(17) 0.5952(3) 0.5122(2)
C23_2 C 0.5907(2) 0.6644(3) 0.4612(3)
H15_2 H 0.6070 0.7157 0.4889
H16_2 H 0.5906 0.6646 0.4177
H17_2 H 0.5508 0.6585 0.4433
C24_3 C 0.71857(19) 0.4112(3) 0.5866(3)
H18_3 H 0.7553 0.4162 0.6379
H19_3 H 0.6968 0.3645 0.5842
H20_3 H 0.7266 0.4031 0.5509
C29_3 C 0.62735(19) 0.0058(3) 0.3278(3)
C30_3 C 0.6423(2) 0.0661(3) 0.3805(3)
H23_3 H 0.6520 0.1188 0.3744
C31_3 C 0.64327(18) 0.0505(3) 0.4414(3)
H24_3 H 0.6543 0.0921 0.4771
C32_3 C 0.62856(19) 0.0214(3) 0.2648(3)
C34_3 C 0.60310(19) 0.0872(3) 0.2135(3)
C35_3 C 0.5675(2) 0.1556(3) 0.2084(3)
H25_3 H 0.5376 0.1704 0.1553
H26_3 H 0.5490 0.1388 0.2305
H27_3 H 0.5926 0.2026 0.2362
N1_3 N 0.53401(13) 0.30483(19) 0.05618(18)
N2_3 N 0.53597(13) 0.22419(18) 0.04154(18)
N3_3 N 0.61464(14) 0.0805(2) 0.1652(2)
N4_3 N 0.64771(14) 0.0122(2) 0.18533(19)
N5_3 N 0.67132(13) 0.51694(19) 0.61011(19)
H32_3 H 0.6842 0.4963 0.6540
C1_3 C 0.19909(17) 0.2470(2) 0.7107(2)
C2_3 C 0.26157(17) 0.2550(2) 0.7784(2)
C3_3 C 0.29570(16) 0.3143(2) 0.7801(2)
H1_3 H 0.2789 0.3517 0.7394
C4_3 C 0.35436(16) 0.3194(2) 0.8412(2)
H2_3 H 0.3773 0.3613 0.8427
C5_3 C 0.38009(16) 0.2634(2) 0.9006(2)
C6_3 C 0.34486(17) 0.2043(2) 0.8982(2)
H3_3 H 0.3615 0.1664 0.9385
C7_3 C 0.28631(16) 0.2001(2) 0.8383(2)
H4_3 H 0.2629 0.1599 0.8377
C8_3 C 0.44355(16) 0.2647(2) 0.9628(2)
C10_3 C 0.48166(16) 0.1999(2) 0.9859(2)
H6_3 H 0.4512 0.4443 0.9668
C12_3 C 0.46932(18) 0.1144(3) 0.9567(3)
H8_3 H 0.5029 0.0929 0.9624
H9_3 H 0.4617 0.0806 0.9854
H10_3 H 0.4352 0.1139 0.9031
C25_3 C 0.62972(18) 0.9567(3) 0.5170(3)
C26_2 C 0.62822(18) 0.9741(3) 0.4506(2)
C27_2 C 0.6124(2) 0.9143(3) 0.3978(3)
H21_2 H 0.6016 0.8621 0.4032
C28_2 C 0.6121(2) 0.9295(3) 0.3375(3)
H22_2 H 0.6014 0.8875 0.3021
C33_2 C 0.65597(18) 0.9751(2) 0.2440(2)
C36_2 C 0.6909(2) 0.8986(3) 0.2772(3)
H28_2 H 0.7217 0.8989 0.2722
H29_2 H 0.7083 0.8953 0.3309
H30_2 H 0.6656 0.8515 0.2503
H31_2 H 0.6617 0.9949 0.1627
C15_3 C 0.20147(18) 0.0147(3) 0.3793(2)
H11_3 H 0.2362 0.0173 0.3847
C16_3 C 0.20361(19) 0.0272(3) 0.4413(3)
H12_3 H 0.2400 0.0382 0.4890
C17_3 C 0.15404(17) 0.0241(2) 0.4359(2)
C18_3 C 0.10138(19) 0.0091(3) 0.3646(3)
H13_3 H 0.0665 0.0083 0.3588
C20_4 C 0.15528(17) 0.0352(2) 0.5017(2)
C22_4 C 0.12660(17) 0.0952(3) 0.5122(2)
C23_3 C 0.0907(2) 0.1644(3) 0.4612(3)
H15_3 H 0.1070 0.2157 0.4889
H16_3 H 0.0906 0.1646 0.4177
H17_3 H 0.0508 0.1585 0.4433
N5_4 N 0.17132(13) 0.01694(19) 0.61011(19)
O1_4 O 0.09924(11) 0.95048(17) 0.18360(16)
O2_4 O 0.19058(12) 0.99370(17) 0.24600(16)
O5_4 O 0.15331(13) 0.50543(19) 0.57046(17)
C13_4 C 0.14739(17) 0.9806(2) 0.2423(2)
C14_4 C 0.14920(18) 0.9984(2) 0.3091(2)
C19_4 C 0.09896(19) 0.9954(3) 0.3023(3)
H14_4 H 0.0628 0.9839 0.2546
C21_4 C 0.18358(17) 0.9867(3) 0.5663(2)
C24_4 C 0.21857(19) 0.9112(3) 0.5866(3)
H18_4 H 0.2553 0.9162 0.6379
H19_4 H 0.1968 0.8645 0.5842
H20_4 H 0.2266 0.9031 0.5509
C25_4 C 0.12972(18) 0.4567(3) 0.5170(3)
C26_3 C 0.12822(18) 0.4741(3) 0.4506(2)
C27_3 C 0.1124(2) 0.4143(3) 0.3978(3)
H21_3 H 0.1016 0.3621 0.4032
C28_3 C 0.1121(2) 0.4295(3) 0.3375(3)
H22_3 H 0.1014 0.3875 0.3021
C29_4 C 0.12735(19) 0.5058(3) 0.3278(3)
C30_4 C 0.1423(2) 0.5661(3) 0.3805(3)
H23_4 H 0.1520 0.6188 0.3744
C31_4 C 0.14327(18) 0.5505(3) 0.4414(3)
H24_4 H 0.1543 0.5921 0.4771
C32_4 C 0.12856(19) 0.5214(3) 0.2648(3)
C33_3 C 0.15597(18) 0.4751(2) 0.2440(2)
C34_4 C 0.10310(19) 0.5872(3) 0.2135(3)
C35_4 C 0.0675(2) 0.6556(3) 0.2084(3)
H25_4 H 0.0376 0.6704 0.1553
H26_4 H 0.0490 0.6388 0.2305
H27_4 H 0.0926 0.7026 0.2362
C36_3 C 0.1909(2) 0.3986(3) 0.2772(3)
H28_3 H 0.2217 0.3989 0.2722
H29_3 H 0.2083 0.3953 0.3309
H30_3 H 0.1656 0.3515 0.2503
N1_4 N 0.03401(13) 0.80483(19) 0.05618(18)
N2_4 N 0.03597(13) 0.72419(18) 0.04154(18)
N3_4 N 0.11464(14) 0.5805(2) 0.1652(2)
N4_4 N 0.14771(14) 0.5122(2) 0.18533(19)
H31_3 H 0.1617 0.4949 0.1627
H32_4 H 0.1842 0.9963 0.6540
C1_4 C 0.69909(17) 0.7470(2) 0.7107(2)
C2_4 C 0.76157(17) 0.7550(2) 0.7784(2)
C3_4 C 0.79570(16) 0.8143(2) 0.7801(2)
H1_4 H 0.7789 0.8517 0.7394
C4_4 C 0.85436(16) 0.8194(2) 0.8412(2)
H2_4 H 0.8773 0.8613 0.8427
C5_4 C 0.88009(16) 0.7634(2) 0.9006(2)
C6_4 C 0.84486(17) 0.7043(2) 0.8982(2)
H3_4 H 0.8615 0.6664 0.9385
C7_4 C 0.78631(16) 0.7001(2) 0.8383(2)
H4_4 H 0.7629 0.6599 0.8377
C8_4 C 0.94355(16) 0.7647(2) 0.9628(2)
C10_4 C 0.98166(16) 0.6999(2) 0.9859(2)
H6_4 H 0.9512 0.9443 0.9668
C12_4 C 0.96932(18) 0.6144(3) 0.9567(3)
H9_4 H 0.9617 0.5806 0.9854
H10_4 H 0.9352 0.6139 0.9031
C26_4 C 0.62822(18) 0.0259(3) 0.9506(2)
C27_4 C 0.6124(2) 0.0857(3) 0.8978(3)
H21_4 H 0.6016 0.1379 0.9032
C28_4 C 0.6121(2) 0.0705(3) 0.8375(3)
H22_4 H 0.6014 0.1125 0.8021
C33_4 C 0.65597(18) 0.0249(2) 0.7440(2)
C36_4 C 0.6909(2) 0.1014(3) 0.7772(3)
H28_4 H 0.7217 0.1011 0.7722
H29_4 H 0.7083 0.1047 0.8309
H30_4 H 0.6656 0.1485 0.7503
H31_4 H 0.6617 0.0051 0.6627
O6_3 O 0.39527(12) 0.10979(18) 0.48824(16)
C25_5 C 0.37028(18) 0.0433(3) 0.4830(3)
C26_5 C 0.37178(18) 0.0259(3) 0.5494(2)
C27_5 C 0.3876(2) 0.0857(3) 0.6022(3)
H21_5 H 0.3984 0.1379 0.5968
C28_5 C 0.3879(2) 0.0705(3) 0.6625(3)
H22_5 H 0.3986 0.1125 0.6979
C33_5 C 0.34403(18) 0.0249(2) 0.7560(2)
C36_5 C 0.3091(2) 0.1014(3) 0.7228(3)
H28_5 H 0.2783 0.1011 0.7278
H29_5 H 0.2917 0.1047 0.6691
H30_5 H 0.3344 0.1485 0.7497
H31_5 H 0.3383 0.0051 0.8373
Zn5_2 Zn 0.39375(2) 0.15783(3) 0.40953(3)
O3_3 O 0.81837(11) 0.71247(18) 0.34758(16)
O4_3 O 0.83244(11) 0.80096(17) 0.28527(16)
C1_5 C 0.80091(17) 0.7530(2) 0.2893(2)
C2_5 C 0.73843(17) 0.7450(2) 0.2216(2)
C3_5 C 0.70430(16) 0.6857(2) 0.2199(2)
H1_5 H 0.7211 0.6483 0.2606
C4_5 C 0.64564(16) 0.6806(2) 0.1588(2)
H2_5 H 0.6227 0.6387 0.1573
C5_5 C 0.61991(16) 0.7366(2) 0.0994(2)
C6_5 C 0.65514(17) 0.7957(2) 0.1018(2)
H3_5 H 0.6385 0.8336 0.0615
C7_5 C 0.71369(16) 0.7999(2) 0.1617(2)
H4_5 H 0.7371 0.8401 0.1623
C8_5 C 0.55645(16) 0.7353(2) 0.0372(2)
C10_5 C 0.51834(16) 0.8001(2) 0.0141(2)
H6_5 H 0.5488 0.5557 0.0332
C12_5 C 0.53068(18) 0.8856(3) 0.0433(3)
H8_4 H 0.4971 0.9071 0.0376
H9_5 H 0.5383 0.9194 0.0146
H10_5 H 0.5648 0.8861 0.0969
Zn4_2 Zn 0.89447(2) 0.86716(3) 0.37178(3)
Zn6_2 Zn 0.89375(2) 0.65783(3) 0.40953(3)
Zn1_3 Zn 0.39447(2) 0.63284(3) 0.87178(3)
Zn2_3 Zn 0.39375(2) 0.84217(3) 0.90953(3)
O1_5 O 0.40076(11) 0.54952(17) 0.81640(16)
O2_5 O 0.30942(12) 0.50630(17) 0.75400(16)
O5_5 O 0.34669(13) 0.99457(19) 0.42954(17)
C9_4 C 0.52148(16) 0.6711(2) 0.9910(2)
C11_4 C 0.53820(17) 0.5854(3) 0.9886(3)
H5_4 H 0.5053 0.5584 0.9427
H7_4 H 0.5714 0.5865 0.9883
C13_5 C 0.35261(17) 0.5194(2) 0.7577(2)
C14_5 C 0.35080(18) 0.5016(2) 0.6909(2)
C15_4 C 0.29853(18) 0.4853(3) 0.6207(2)
H11_4 H 0.2638 0.4827 0.6153
C16_4 C 0.29639(19) 0.4728(3) 0.5587(3)
H12_4 H 0.2600 0.4618 0.5110
C17_4 C 0.34596(17) 0.4759(2) 0.5641(2)
C18_4 C 0.39862(19) 0.4909(3) 0.6354(3)
H13_4 H 0.4335 0.4917 0.6412
C19_5 C 0.40104(19) 0.5046(3) 0.6977(3)
H14_5 H 0.4372 0.5161 0.7454
C20_5 C 0.34472(17) 0.4648(2) 0.4983(2)
C21_5 C 0.31642(17) 0.5133(3) 0.4337(2)
C22_5 C 0.37340(17) 0.4048(3) 0.4878(2)
C23_4 C 0.4093(2) 0.3356(3) 0.5388(3)
H15_4 H 0.3930 0.2843 0.5111
H16_4 H 0.4094 0.3354 0.5823
H17_4 H 0.4492 0.3415 0.5567
C24_5 C 0.28143(19) 0.5888(3) 0.4134(3)
H18_5 H 0.2447 0.5838 0.3621
H19_5 H 0.3032 0.6355 0.4158
H20_5 H 0.2734 0.5969 0.4491
C29_5 C 0.37265(19) 0.9942(3) 0.6722(3)
C30_5 C 0.3577(2) 0.9339(3) 0.6195(3)
H23_5 H 0.3480 0.8812 0.6256
C31_5 C 0.35673(18) 0.9495(3) 0.5586(3)
H24_5 H 0.3457 0.9079 0.5229
C32_5 C 0.37144(19) 0.9786(3) 0.7352(3)
C34_5 C 0.39690(19) 0.9128(3) 0.7865(3)
C35_5 C 0.4325(2) 0.8444(3) 0.7916(3)
H25_5 H 0.4624 0.8296 0.8447
H26_5 H 0.4510 0.8612 0.7695
H27_5 H 0.4074 0.7974 0.7638
N1_5 N 0.46599(13) 0.69517(19) 0.94382(18)
N2_5 N 0.46403(13) 0.77581(18) 0.95846(18)
N3_5 N 0.38536(14) 0.9195(2) 0.8348(2)
N4_5 N 0.35229(14) 0.9878(2) 0.81467(19)
N5_5 N 0.32868(13) 0.48306(19) 0.38989(19)
H32_5 H 0.3158 0.5037 0.3460
N6_3 N 0.36350(14) 0.4164(2) 0.42186(18)
Zn3_2 Zn 0.39447(2) 0.36716(3) 0.37178(3)
O7_3 O 0.31837(11) 0.78753(18) 0.84758(16)
O8_3 O 0.33244(11) 0.69904(17) 0.78527(16)
O9_3 O 0.39527(12) 0.89021(18) 0.98824(16)
N7_3 N 0.36350(14) 0.5836(2) 0.92186(18)
O3_4 O 0.31837(11) 0.21247(18) 0.34758(16)
O4_4 O 0.33244(11) 0.30096(17) 0.28527(16)
C1_6 C 0.30091(17) 0.2530(2) 0.2893(2)
C2_6 C 0.23843(17) 0.2450(2) 0.2216(2)
C3_6 C 0.20430(16) 0.1857(2) 0.2199(2)
H1_6 H 0.2211 0.1483 0.2606
C4_6 C 0.14564(16) 0.1806(2) 0.1588(2)
H2_6 H 0.1227 0.1387 0.1573
C5_6 C 0.11991(16) 0.2366(2) 0.0994(2)
C6_6 C 0.15514(17) 0.2957(2) 0.1018(2)
H3_6 H 0.1385 0.3336 0.0615
C7_6 C 0.21369(16) 0.2999(2) 0.1617(2)
H4_6 H 0.2371 0.3401 0.1623
C8_6 C 0.05645(16) 0.2353(2) 0.0372(2)
C10_6 C 0.01834(16) 0.3001(2) 0.0141(2)
H6_6 H 0.0488 0.0557 0.0332
C12_6 C 0.03068(18) 0.3856(3) 0.0433(3)
H9_6 H 0.0383 0.4194 0.0146
H10_6 H 0.0648 0.3861 0.0969
Zn1_4 Zn 0.89447(2) 0.13284(3) 0.87178(3)
Zn2_4 Zn 0.89375(2) 0.34217(3) 0.90953(3)
O1_6 O 0.90076(11) 0.04952(17) 0.81640(16)
O2_6 O 0.80942(12) 0.00630(17) 0.75400(16)
O5_6 O 0.84669(13) 0.49457(19) 0.42954(17)
O6_4 O 0.89527(12) 0.60979(18) 0.48824(16)
C13_6 C 0.85261(17) 0.0194(2) 0.7577(2)
C14_6 C 0.85080(18) 0.0016(2) 0.6909(2)
C19_6 C 0.90104(19) 0.0046(3) 0.6977(3)
H14_6 H 0.9372 0.0161 0.7454
C21_6 C 0.81642(17) 0.0133(3) 0.4337(2)
C24_6 C 0.78143(19) 0.0888(3) 0.4134(3)
H18_6 H 0.7447 0.0838 0.3621
H19_6 H 0.8032 0.1355 0.4158
H20_6 H 0.7734 0.0969 0.4491
C25_6 C 0.87028(18) 0.5433(3) 0.4830(3)
C26_6 C 0.87178(18) 0.5259(3) 0.5494(2)
C27_6 C 0.8876(2) 0.5857(3) 0.6022(3)
H21_6 H 0.8984 0.6379 0.5968
C28_6 C 0.8879(2) 0.5705(3) 0.6625(3)
H22_6 H 0.8986 0.6125 0.6979
C29_6 C 0.87265(19) 0.4942(3) 0.6722(3)
C30_6 C 0.8577(2) 0.4339(3) 0.6195(3)
H23_6 H 0.8480 0.3812 0.6256
C31_6 C 0.85673(18) 0.4495(3) 0.5586(3)
H24_6 H 0.8457 0.4079 0.5229
C32_6 C 0.87144(19) 0.4786(3) 0.7352(3)
C33_6 C 0.84403(18) 0.5249(2) 0.7560(2)
C34_6 C 0.89690(19) 0.4128(3) 0.7865(3)
C35_6 C 0.9325(2) 0.3444(3) 0.7916(3)
H25_6 H 0.9624 0.3296 0.8447
H26_6 H 0.9510 0.3612 0.7695
H27_6 H 0.9074 0.2974 0.7638
C36_6 C 0.8091(2) 0.6014(3) 0.7228(3)
H28_6 H 0.7783 0.6011 0.7278
H29_6 H 0.7917 0.6047 0.6691
H30_6 H 0.8344 0.6485 0.7497
N1_6 N 0.96599(13) 0.19517(19) 0.94382(18)
N2_6 N 0.96403(13) 0.27581(18) 0.95846(18)
N3_6 N 0.88536(14) 0.4195(2) 0.8348(2)
N4_6 N 0.85229(14) 0.4878(2) 0.81467(19)
H31_6 H 0.8383 0.5051 0.8373
H32_6 H 0.8158 0.0037 0.3460
O7_4 O 0.81837(11) 0.28753(18) 0.84758(16)
O8_4 O 0.83244(11) 0.19904(17) 0.78527(16)
O9_4 O 0.89527(12) 0.39021(18) 0.98824(16)
N7_4 N 0.86350(14) 0.0836(2) 0.92186(18)
C15_5 C 0.79853(18) 0.9853(3) 0.6207(2)
H11_5 H 0.7638 0.9827 0.6153
C16_5 C 0.79639(19) 0.9728(3) 0.5587(3)
H12_5 H 0.7600 0.9618 0.5110
C17_5 C 0.84596(17) 0.9759(2) 0.5641(2)
C18_5 C 0.89862(19) 0.9909(3) 0.6354(3)
H13_5 H 0.9335 0.9917 0.6412
C20_6 C 0.84472(17) 0.9648(2) 0.4983(2)
C22_6 C 0.87340(17) 0.9048(3) 0.4878(2)
C23_5 C 0.9093(2) 0.8356(3) 0.5388(3)
H15_5 H 0.8930 0.7843 0.5111
H16_5 H 0.9094 0.8354 0.5823
H17_5 H 0.9492 0.8415 0.5567
N5_6 N 0.82868(13) 0.98306(19) 0.38989(19)
N6_4 N 0.86350(14) 0.9164(2) 0.42186(18)
O1_7 O 0.40076(11) 0.45048(17) 0.31640(16)
O2_7 O 0.30942(12) 0.49370(17) 0.25400(16)
C1_7 C 0.80091(17) 0.2470(2) 0.7893(2)
C2_7 C 0.73843(17) 0.2550(2) 0.7216(2)
C3_7 C 0.70430(16) 0.3143(2) 0.7199(2)
H1_7 H 0.7211 0.3517 0.7606
C4_7 C 0.64564(16) 0.3194(2) 0.6588(2)
H2_7 H 0.6227 0.3613 0.6573
C5_7 C 0.61991(16) 0.2634(2) 0.5994(2)
C6_7 C 0.65514(17) 0.2043(2) 0.6018(2)
H3_7 H 0.6385 0.1664 0.5615
C7_7 C 0.71369(16) 0.2001(2) 0.6617(2)
H4_7 H 0.7371 0.1599 0.6623
C8_7 C 0.55645(16) 0.2647(2) 0.5372(2)
C9_5 C 0.52148(16) 0.3289(2) 0.4910(2)
C10_7 C 0.51834(16) 0.1999(2) 0.5141(2)
C11_5 C 0.53820(17) 0.4146(3) 0.4886(3)
H5_5 H 0.5053 0.4416 0.4427
H6_7 H 0.5488 0.4443 0.5332
H7_5 H 0.5714 0.4135 0.4883
C12_7 C 0.53068(18) 0.1144(3) 0.5433(3)
H8_5 H 0.4971 0.0929 0.5376
H9_7 H 0.5383 0.0806 0.5146
H10_7 H 0.5648 0.1139 0.5969
C13_7 C 0.35261(17) 0.4806(2) 0.2577(2)
C14_7 C 0.35080(18) 0.4984(2) 0.1909(2)
C15_6 C 0.29853(18) 0.5147(3) 0.1207(2)
H11_6 H 0.2638 0.5173 0.1153
C16_6 C 0.29639(19) 0.5272(3) 0.0587(3)
H12_6 H 0.2600 0.5382 0.0110
C17_6 C 0.34596(17) 0.5241(2) 0.0641(2)
C18_6 C 0.39862(19) 0.5091(3) 0.1354(3)
H13_6 H 0.4335 0.5083 0.1412
C19_7 C 0.40104(19) 0.4954(3) 0.1977(3)
H14_7 H 0.4372 0.4839 0.2454
C23_6 C 0.4093(2) 0.6644(3) 0.0388(3)
H15_6 H 0.3930 0.7157 0.0111
H16_6 H 0.4094 0.6646 0.0823
H17_6 H 0.4492 0.6585 0.0567
C29_7 C 0.37265(19) 0.0058(3) 0.1722(3)
C30_7 C 0.3577(2) 0.0661(3) 0.1195(3)
H23_7 H 0.3480 0.1188 0.1256
C31_7 C 0.35673(18) 0.0505(3) 0.0586(3)
H24_7 H 0.3457 0.0921 0.0229
C32_7 C 0.37144(19) 0.0214(3) 0.2352(3)
C34_7 C 0.39690(19) 0.0872(3) 0.2865(3)
C35_7 C 0.4325(2) 0.1556(3) 0.2916(3)
H25_7 H 0.4624 0.1704 0.3447
H26_7 H 0.4510 0.1388 0.2695
H27_7 H 0.4074 0.2026 0.2638
N1_7 N 0.46599(13) 0.30483(19) 0.44382(18)
N2_7 N 0.46403(13) 0.22419(18) 0.45846(18)
N3_7 N 0.38536(14) 0.0805(2) 0.3348(2)
N4_7 N 0.35229(14) 0.0122(2) 0.31467(19)
O5_7 O 0.34669(13) 0.00543(19) 0.92954(17)
C20_7 C 0.34472(17) 0.5352(2) 0.9983(2)
C21_7 C 0.31642(17) 0.4867(3) 0.9337(2)
C22_7 C 0.37340(17) 0.5952(3) 0.9878(2)
C24_7 C 0.28143(19) 0.4112(3) 0.9134(3)
H18_7 H 0.2447 0.4162 0.8621
H19_7 H 0.3032 0.3645 0.9158
H20_7 H 0.2734 0.4031 0.9491
N5_7 N 0.32868(13) 0.51694(19) 0.88989(19)
H32_7 H 0.3158 0.4963 0.8460
C25_7 C 0.37028(18) 0.9567(3) 0.9830(3)
C1_8 C 0.30091(17) 0.7470(2) 0.7893(2)
C2_8 C 0.23843(17) 0.7550(2) 0.7216(2)
C3_8 C 0.20430(16) 0.8143(2) 0.7199(2)
H1_8 H 0.2211 0.8517 0.7606
C4_8 C 0.14564(16) 0.8194(2) 0.6588(2)
H2_8 H 0.1227 0.8613 0.6573
C5_8 C 0.11991(16) 0.7634(2) 0.5994(2)
C6_8 C 0.15514(17) 0.7043(2) 0.6018(2)
H3_8 H 0.1385 0.6664 0.5615
C7_8 C 0.21369(16) 0.7001(2) 0.6617(2)
H4_8 H 0.2371 0.6599 0.6623
C8_8 C 0.05645(16) 0.7647(2) 0.5372(2)
C9_6 C 0.02148(16) 0.8289(2) 0.4910(2)
C10_8 C 0.01834(16) 0.6999(2) 0.5141(2)
C11_6 C 0.03820(17) 0.9146(3) 0.4886(3)
H5_6 H 0.0053 0.9416 0.4427
H6_8 H 0.0488 0.9443 0.5332
H7_6 H 0.0714 0.9135 0.4883
C12_8 C 0.03068(18) 0.6144(3) 0.5433(3)
H9_8 H 0.0383 0.5806 0.5146
H10_8 H 0.0648 0.6139 0.5969
C20_8 C 0.84472(17) 0.0352(2) 0.9983(2)
C22_8 C 0.87340(17) 0.0952(3) 0.9878(2)
N5_8 N 0.82868(13) 0.01694(19) 0.88989(19)
O1_8 O 0.90076(11) 0.95048(17) 0.31640(16)
O2_8 O 0.80942(12) 0.99370(17) 0.25400(16)
H8_6 H 0.9971 0.5929 0.5376
C13_8 C 0.85261(17) 0.9806(2) 0.2577(2)
C14_8 C 0.85080(18) 0.9984(2) 0.1909(2)
C19_8 C 0.90104(19) 0.9954(3) 0.1977(3)
H14_8 H 0.9372 0.9839 0.2454
C26_7 C 0.87178(18) 0.4741(3) 0.0494(2)
C27_7 C 0.8876(2) 0.4143(3) 0.1022(3)
H21_7 H 0.8984 0.3621 0.0968
C28_7 C 0.8879(2) 0.4295(3) 0.1625(3)
H22_7 H 0.8986 0.3875 0.1979
C29_8 C 0.87265(19) 0.5058(3) 0.1722(3)
C30_8 C 0.8577(2) 0.5661(3) 0.1195(3)
H23_8 H 0.8480 0.6188 0.1256
C31_8 C 0.85673(18) 0.5505(3) 0.0586(3)
H24_8 H 0.8457 0.5921 0.0229
C32_8 C 0.87144(19) 0.5214(3) 0.2352(3)
C33_7 C 0.84403(18) 0.4751(2) 0.2560(2)
C34_8 C 0.89690(19) 0.5872(3) 0.2865(3)
C35_8 C 0.9325(2) 0.6556(3) 0.2916(3)
H25_8 H 0.9624 0.6704 0.3447
H26_8 H 0.9510 0.6388 0.2695
H27_8 H 0.9074 0.7026 0.2638
C36_7 C 0.8091(2) 0.3986(3) 0.2228(3)
H28_7 H 0.7783 0.3989 0.2278
H29_7 H 0.7917 0.3953 0.1691
H30_7 H 0.8344 0.3515 0.2497
N1_8 N 0.96599(13) 0.80483(19) 0.44382(18)
N2_8 N 0.96403(13) 0.72419(18) 0.45846(18)
N3_8 N 0.88536(14) 0.5805(2) 0.3348(2)
N4_8 N 0.85229(14) 0.5122(2) 0.31467(19)
H31_7 H 0.8383 0.4949 0.3373
O5_8 O 0.84669(13) 0.50543(19) 0.92954(17)
C21_8 C 0.81642(17) 0.9867(3) 0.9337(2)
C24_8 C 0.78143(19) 0.9112(3) 0.9134(3)
H18_8 H 0.7447 0.9162 0.8621
H19_8 H 0.8032 0.8645 0.9158
H20_8 H 0.7734 0.9031 0.9491
C25_8 C 0.87028(18) 0.4567(3) 0.9830(3)
H32_8 H 0.8158 0.9963 0.8460
C15_7 C 0.20147(18) 0.9853(3) 0.8793(2)
H11_7 H 0.2362 0.9827 0.8847
C16_7 C 0.20361(19) 0.9728(3) 0.9413(3)
H12_7 H 0.2400 0.9618 0.9890
C17_7 C 0.15404(17) 0.9759(2) 0.9359(2)
C18_7 C 0.10138(19) 0.9909(3) 0.8646(3)
H13_7 H 0.0665 0.9917 0.8588
C23_7 C 0.0907(2) 0.8356(3) 0.9612(3)
H15_7 H 0.1070 0.7843 0.9889
H16_7 H 0.0906 0.8354 0.9177
H17_7 H 0.0508 0.8415 0.9433
C9_7 C 0.02148(16) 0.1711(2) 0.9910(2)
C11_7 C 0.03820(17) 0.0854(3) 0.9886(3)
H5_7 H 0.0053 0.0584 0.9427
H7_7 H 0.0714 0.0865 0.9883
H8_7 H 0.9971 0.4071 0.0376
C26_8 C 0.37178(18) 0.9741(3) 0.0494(2)
C27_8 C 0.3876(2) 0.9143(3) 0.1022(3)
H21_8 H 0.3984 0.8621 0.0968
C28_8 C 0.3879(2) 0.9295(3) 0.1625(3)
H22_8 H 0.3986 0.8875 0.1979
C33_8 C 0.34403(18) 0.9751(2) 0.2560(2)
C36_8 C 0.3091(2) 0.8986(3) 0.2228(3)
H28_8 H 0.2783 0.8989 0.2278
H29_8 H 0.2917 0.8953 0.1691
H30_8 H 0.3344 0.8515 0.2497
H31_8 H 0.3383 0.9949 0.3373
C15_8 C 0.79853(18) 0.0147(3) 0.1207(2)
H11_8 H 0.7638 0.0173 0.1153
C16_8 C 0.79639(19) 0.0272(3) 0.0587(3)
H12_8 H 0.7600 0.0382 0.0110
C17_8 C 0.84596(17) 0.0241(2) 0.0641(2)
C18_8 C 0.89862(19) 0.0091(3) 0.1354(3)
H13_8 H 0.9335 0.0083 0.1412
C23_8 C 0.9093(2) 0.1644(3) 0.0388(3)
H15_8 H 0.8930 0.2157 0.0111
H16_8 H 0.9094 0.1646 0.0823
H17_8 H 0.9492 0.1585 0.0567
H8_8 H 0.0029 0.5929 0.9624
C9_8 C 0.97852(16) 0.8289(2) 0.0090(2)
C11_8 C 0.96180(17) 0.9146(3) 0.0114(3)
H5_8 H 0.9947 0.9416 0.0573
H7_8 H 0.9286 0.9135 0.0117
loop_
_geom_bond_atom_site_label_1
_geom_bond_atom_site_label_2
_geom_bond_site_symmetry_1
_geom_bond_site_symmetry_2
O6 C25 1_555 1_555
Zn5 O6 1_555 1_555
C21 C20 1_555 1_555
C22 C20 1_555 1_555
C24 C21 1_555 1_555
H18 C24 1_555 1_555
H19 C24 1_555 1_555
H20 C24 1_555 1_555
N5 C21 1_555 1_555
H32 N5 1_555 1_555
N6 C22 1_555 1_555
Zn3 N6 1_555 1_555
N5 N6 1_555 1_555
Zn1 O1 1_555 1_555
Zn2 N2 1_555 1_555
O1 C13 1_555 1_555
O2 C13 1_555 1_555
O3 C1 1_555 1_555
O4 C1 1_555 1_555
C1 C2 1_555 1_555
C2 C3 1_555 1_555
C3 H1 1_555 1_555
C4 C3 1_555 1_555
H2 C4 1_555 1_555
C5 C4 1_555 1_555
C6 C5 1_555 1_555
H3 C6 1_555 1_555
C7 C2 1_555 1_555
H4 C7 1_555 1_555
C8 C5 1_555 1_555
C9 C8 1_555 1_555
C10 C8 1_555 1_555
C11 C9 1_555 1_555
H5 C11 1_555 1_555
H6 C11 1_555 1_555
H7 C11 1_555 1_555
C12 C10 1_555 1_555
H8 C12 1_555 1_555
H9 C12 1_555 1_555
H10 C12 1_555 1_555
C13 C14 1_555 1_555
C14 C15 1_555 1_555
C15 H11 1_555 1_555
C16 C15 1_555 1_555
H12 C16 1_555 1_555
C17 C16 1_555 1_555
C18 C17 1_555 1_555
H13 C18 1_555 1_555
C19 C14 1_555 1_555
H14 C19 1_555 1_555
H15 C23 1_555 1_555
H16 C23 1_555 1_555
H17 C23 1_555 1_555
C30 C29 1_555 1_555
H23 C30 1_555 1_555
H24 C31 1_555 1_555
C32 C29 1_555 1_555
C34 C32 1_555 1_555
C35 C34 1_555 1_555
H25 C35 1_555 1_555
H26 C35 1_555 1_555
H27 C35 1_555 1_555
N1 Zn1 1_555 1_555
N2 C10 1_555 1_555
N3 Zn2 1_555 1_555
Zn4 O4 1_555 1_555
Zn6 O3 1_555 1_555
O7 Zn2 1_555 1_555
O8 Zn1 1_555 1_555
O9 Zn2 1_555 1_555
N7 Zn1 1_555 1_555
C6 C7 1_555 1_555
C9 N1 1_555 1_555
C18 C19 1_555 1_555
C30 C31 1_555 1_555
C34 N3 1_555 1_555
N1 N2 1_555 1_555
N3 N4 1_555 1_555
O5_2 C25_2 1_555 1_555
O6_2 C25_2 1_555 1_555
C24_2 C21_2 1_555 1_555
H18_2 C24_2 1_555 1_555
H19_2 C24_2 1_555 1_555
H20_2 C24_2 1_555 1_555
Zn6 O6_2 1_555 1_555
Zn1_2 O1_2 1_555 1_555
Zn2_2 N2_2 1_555 1_555
O1_2 C13_2 1_555 1_555
O2_2 C13_2 1_555 1_555
C13_2 C14_2 1_555 1_555
C19_2 C14_2 1_555 1_555
H14_2 C19_2 1_555 1_555
C26 C27 1_555 1_555
C27 H21 1_555 1_555
C28 C27 1_555 1_555
H22 C28 1_555 1_555
C29_2 C28 1_555 1_555
C30_2 C29_2 1_555 1_555
H23_2 C30_2 1_555 1_555
C31_2 C26 1_555 1_555
H24_2 C31_2 1_555 1_555
C32_2 C29_2 1_555 1_555
C33 C32_2 1_555 1_555
C34_2 C32_2 1_555 1_555
C35_2 C34_2 1_555 1_555
H25_2 C35_2 1_555 1_555
H26_2 C35_2 1_555 1_555
H27_2 C35_2 1_555 1_555
C36 C33 1_555 1_555
H28 C36 1_555 1_555
H29 C36 1_555 1_555
H30 C36 1_555 1_555
N1_2 Zn1_2 1_555 1_555
N3_2 Zn2_2 1_555 1_555
N4_2 C33 1_555 1_555
H31 N4_2 1_555 1_555
O7_2 Zn2_2 1_555 1_555
O8_2 Zn1_2 1_555 1_555
O9_2 Zn2_2 1_555 1_555
N7_2 Zn1_2 1_555 1_555
C30_2 C31_2 1_555 1_555
C34_2 N3_2 1_555 1_555
N1_2 N2_2 1_555 1_555
N3_2 N4_2 1_555 1_555
C22_2 C20_2 1_555 1_555
N6_2 C22_2 1_555 1_555
Zn4 N6_2 1_555 1_555
N5_2 N6_2 1_555 1_555
O3_2 C1_2 1_555 1_555
O4_2 C1_2 1_555 1_555
C1_2 C2_2 1_555 1_555
C2_2 C3_2 1_555 1_555
C3_2 H1_2 1_555 1_555
C4_2 C3_2 1_555 1_555
H2_2 C4_2 1_555 1_555
C5_2 C4_2 1_555 1_555
C6_2 C5_2 1_555 1_555
H3_2 C6_2 1_555 1_555
C7_2 C2_2 1_555 1_555
H4_2 C7_2 1_555 1_555
C8_2 C5_2 1_555 1_555
C9_2 C8_2 1_555 1_555
C10_2 C8_2 1_555 1_555
C11_2 C9_2 1_555 1_555
H5_2 C11_2 1_555 1_555
H6_2 C11_2 1_555 1_555
H7_2 C11_2 1_555 1_555
C12_2 C10_2 1_555 1_555
H9_2 C12_2 1_555 1_555
H10_2 C12_2 1_555 1_555
Zn3 O4_2 1_555 1_555
Zn5 O3_2 1_555 1_555
C6_2 C7_2 1_555 1_555
Zn3 O1_3 1_555 1_555
Zn5 N2_3 1_555 1_555
O1_3 C13_3 1_555 1_555
O2_3 C13_3 1_555 1_555
C11_3 C9_3 1_555 1_555
H5_3 C11_3 1_555 1_555
H7_3 C11_3 1_555 1_555
C13_3 C14_3 1_555 1_555
C14_3 C15_2 1_555 1_555
C15_2 H11_2 1_555 1_555
C16_2 C15_2 1_555 1_555
H12_2 C16_2 1_555 1_555
C17_2 C16_2 1_555 1_555
C18_2 C17_2 1_555 1_555
H13_2 C18_2 1_555 1_555
C19_3 C14_3 1_555 1_555
H14_3 C19_3 1_555 1_555
C20_3 C17_2 1_555 1_555
C21_3 C20_3 1_555 1_555
C22_3 C20_3 1_555 1_555
C23_2 C22_3 1_555 1_555
H15_2 C23_2 1_555 1_555
H16_2 C23_2 1_555 1_555
H17_2 C23_2 1_555 1_555
C24_3 C21_3 1_555 1_555
H18_3 C24_3 1_555 1_555
H19_3 C24_3 1_555 1_555
H20_3 C24_3 1_555 1_555
C30_3 C29_3 1_555 1_555
H23_3 C30_3 1_555 1_555
H24_3 C31_3 1_555 1_555
C32_3 C29_3 1_555 1_555
C34_3 C32_3 1_555 1_555
C35_3 C34_3 1_555 1_555
H25_3 C35_3 1_555 1_555
H26_3 C35_3 1_555 1_555
H27_3 C35_3 1_555 1_555
N1_3 Zn3 1_555 1_555
N3_3 Zn5 1_555 1_555
N5_3 C21_3 1_555 1_555
H32_3 N5_3 1_555 1_555
N7 C22_3 1_555 1_555
C9_3 N1_3 1_555 1_555
C18_2 C19_3 1_555 1_555
C30_3 C31_3 1_555 1_555
C34_3 N3_3 1_555 1_555
N1_3 N2_3 1_555 1_555
N3_3 N4_3 1_555 1_555
N5_3 N7 1_555 1_555
O7_2 C1_3 1_555 1_555
O8_2 C1_3 1_555 1_555
C1_3 C2_3 1_555 1_555
C2_3 C3_3 1_555 1_555
C3_3 H1_3 1_555 1_555
C4_3 C3_3 1_555 1_555
H2_3 C4_3 1_555 1_555
C5_3 C4_3 1_555 1_555
C6_3 C5_3 1_555 1_555
H3_3 C6_3 1_555 1_555
C7_3 C2_3 1_555 1_555
H4_3 C7_3 1_555 1_555
C8_3 C5_3 1_555 1_555
C10_3 C8_3 1_555 1_555
C12_3 C10_3 1_555 1_555
H8_3 C12_3 1_555 1_555
H9_3 C12_3 1_555 1_555
H10_3 C12_3 1_555 1_555
C6_3 C7_3 1_555 1_555
O9 C25_3 1_555 1_555
C25_3 C26_2 1_555 1_555
C26_2 C27_2 1_555 1_555
C27_2 H21_2 1_555 1_555
C28_2 C27_2 1_555 1_555
H22_2 C28_2 1_555 1_555
C36_2 C33_2 1_555 1_555
H28_2 C36_2 1_555 1_555
H29_2 C36_2 1_555 1_555
H30_2 C36_2 1_555 1_555
C15_3 H11_3 1_555 1_555
C16_3 C15_3 1_555 1_555
H12_3 C16_3 1_555 1_555
C17_3 C16_3 1_555 1_555
C18_3 C17_3 1_555 1_555
H13_3 C18_3 1_555 1_555
C20_4 C17_3 1_555 1_555
C22_4 C20_4 1_555 1_555
C23_3 C22_4 1_555 1_555
H15_3 C23_3 1_555 1_555
H16_3 C23_3 1_555 1_555
H17_3 C23_3 1_555 1_555
N7_2 C22_4 1_555 1_555
N5_4 N7_2 1_555 1_555
Zn4 O1_4 1_555 1_555
Zn6 N2_4 1_555 1_555
O1_4 C13_4 1_555 1_555
O2_4 C13_4 1_555 1_555
O5_4 C25_4 1_555 1_555
O9_2 C25_4 1_555 1_555
C13_4 C14_4 1_555 1_555
C19_4 C14_4 1_555 1_555
H14_4 C19_4 1_555 1_555
C24_4 C21_4 1_555 1_555
H18_4 C24_4 1_555 1_555
H19_4 C24_4 1_555 1_555
H20_4 C24_4 1_555 1_555
C25_4 C26_3 1_555 1_555
C26_3 C27_3 1_555 1_555
C27_3 H21_3 1_555 1_555
C28_3 C27_3 1_555 1_555
H22_3 C28_3 1_555 1_555
C29_4 C28_3 1_555 1_555
C30_4 C29_4 1_555 1_555
H23_4 C30_4 1_555 1_555
C31_4 C26_3 1_555 1_555
H24_4 C31_4 1_555 1_555
C32_4 C29_4 1_555 1_555
C33_3 C32_4 1_555 1_555
C34_4 C32_4 1_555 1_555
C35_4 C34_4 1_555 1_555
H25_4 C35_4 1_555 1_555
H26_4 C35_4 1_555 1_555
H27_4 C35_4 1_555 1_555
C36_3 C33_3 1_555 1_555
H28_3 C36_3 1_555 1_555
H29_3 C36_3 1_555 1_555
H30_3 C36_3 1_555 1_555
N1_4 Zn4 1_555 1_555
N3_4 Zn6 1_555 1_555
N4_4 C33_3 1_555 1_555
H31_3 N4_4 1_555 1_555
C30_4 C31_4 1_555 1_555
C34_4 N3_4 1_555 1_555
N1_4 N2_4 1_555 1_555
N3_4 N4_4 1_555 1_555
O7 C1_4 1_555 1_555
O8 C1_4 1_555 1_555
C1_4 C2_4 1_555 1_555
C2_4 C3_4 1_555 1_555
C3_4 H1_4 1_555 1_555
C4_4 C3_4 1_555 1_555
H2_4 C4_4 1_555 1_555
C5_4 C4_4 1_555 1_555
C6_4 C5_4 1_555 1_555
H3_4 C6_4 1_555 1_555
C7_4 C2_4 1_555 1_555
H4_4 C7_4 1_555 1_555
C8_4 C5_4 1_555 1_555
C10_4 C8_4 1_555 1_555
C12_4 C10_4 1_555 1_555
H9_4 C12_4 1_555 1_555
H10_4 C12_4 1_555 1_555
C6_4 C7_4 1_555 1_555
C26_4 C27_4 1_555 1_555
C27_4 H21_4 1_555 1_555
C28_4 C27_4 1_555 1_555
H22_4 C28_4 1_555 1_555
C36_4 C33_4 1_555 1_555
H28_4 C36_4 1_555 1_555
H29_4 C36_4 1_555 1_555
H30_4 C36_4 1_555 1_555
O6_3 C25_5 1_555 1_555
C25_5 C26_5 1_555 1_555
C26_5 C27_5 1_555 1_555
C27_5 H21_5 1_555 1_555
C28_5 C27_5 1_555 1_555
H22_5 C28_5 1_555 1_555
C36_5 C33_5 1_555 1_555
H28_5 C36_5 1_555 1_555
H29_5 C36_5 1_555 1_555
H30_5 C36_5 1_555 1_555
Zn5_2 O6_3 1_555 1_555
O3_3 C1_5 1_555 1_555
O4_3 C1_5 1_555 1_555
C1_5 C2_5 1_555 1_555
C2_5 C3_5 1_555 1_555
C3_5 H1_5 1_555 1_555
C4_5 C3_5 1_555 1_555
H2_5 C4_5 1_555 1_555
C5_5 C4_5 1_555 1_555
C6_5 C5_5 1_555 1_555
H3_5 C6_5 1_555 1_555
C7_5 C2_5 1_555 1_555
H4_5 C7_5 1_555 1_555
C8_5 C5_5 1_555 1_555
C10_5 C8_5 1_555 1_555
C12_5 C10_5 1_555 1_555
H8_4 C12_5 1_555 1_555
H9_5 C12_5 1_555 1_555
H10_5 C12_5 1_555 1_555
Zn4_2 O4_3 1_555 1_555
Zn6_2 O3_3 1_555 1_555
C6_5 C7_5 1_555 1_555
Zn1_3 O1_5 1_555 1_555
Zn2_3 N2_5 1_555 1_555
O1_5 C13_5 1_555 1_555
O2_5 C13_5 1_555 1_555
C11_4 C9_4 1_555 1_555
H5_4 C11_4 1_555 1_555
H7_4 C11_4 1_555 1_555
C13_5 C14_5 1_555 1_555
C14_5 C15_4 1_555 1_555
C15_4 H11_4 1_555 1_555
C16_4 C15_4 1_555 1_555
H12_4 C16_4 1_555 1_555
C17_4 C16_4 1_555 1_555
C18_4 C17_4 1_555 1_555
H13_4 C18_4 1_555 1_555
C19_5 C14_5 1_555 1_555
H14_5 C19_5 1_555 1_555
C20_5 C17_4 1_555 1_555
C21_5 C20_5 1_555 1_555
C22_5 C20_5 1_555 1_555
C23_4 C22_5 1_555 1_555
H15_4 C23_4 1_555 1_555
H16_4 C23_4 1_555 1_555
H17_4 C23_4 1_555 1_555
C24_5 C21_5 1_555 1_555
H18_5 C24_5 1_555 1_555
H19_5 C24_5 1_555 1_555
H20_5 C24_5 1_555 1_555
C30_5 C29_5 1_555 1_555
H23_5 C30_5 1_555 1_555
H24_5 C31_5 1_555 1_555
C32_5 C29_5 1_555 1_555
C34_5 C32_5 1_555 1_555
C35_5 C34_5 1_555 1_555
H25_5 C35_5 1_555 1_555
H26_5 C35_5 1_555 1_555
H27_5 C35_5 1_555 1_555
N1_5 Zn1_3 1_555 1_555
N3_5 Zn2_3 1_555 1_555
N5_5 C21_5 1_555 1_555
H32_5 N5_5 1_555 1_555
N6_3 C22_5 1_555 1_555
Zn3_2 N6_3 1_555 1_555
O7_3 Zn2_3 1_555 1_555
O8_3 Zn1_3 1_555 1_555
O9_3 Zn2_3 1_555 1_555
N7_3 Zn1_3 1_555 1_555
C9_4 N1_5 1_555 1_555
C18_4 C19_5 1_555 1_555
C30_5 C31_5 1_555 1_555
C34_5 N3_5 1_555 1_555
N1_5 N2_5 1_555 1_555
N3_5 N4_5 1_555 1_555
N5_5 N6_3 1_555 1_555
O3_4 C1_6 1_555 1_555
O4_4 C1_6 1_555 1_555
C1_6 C2_6 1_555 1_555
C2_6 C3_6 1_555 1_555
C3_6 H1_6 1_555 1_555
C4_6 C3_6 1_555 1_555
H2_6 C4_6 1_555 1_555
C5_6 C4_6 1_555 1_555
C6_6 C5_6 1_555 1_555
H3_6 C6_6 1_555 1_555
C7_6 C2_6 1_555 1_555
H4_6 C7_6 1_555 1_555
C8_6 C5_6 1_555 1_555
C10_6 C8_6 1_555 1_555
C12_6 C10_6 1_555 1_555
H9_6 C12_6 1_555 1_555
H10_6 C12_6 1_555 1_555
Zn3_2 O4_4 1_555 1_555
Zn5_2 O3_4 1_555 1_555
C6_6 C7_6 1_555 1_555
Zn1_4 O1_6 1_555 1_555
Zn2_4 N2_6 1_555 1_555
O1_6 C13_6 1_555 1_555
O2_6 C13_6 1_555 1_555
O5_6 C25_6 1_555 1_555
O6_4 C25_6 1_555 1_555
C13_6 C14_6 1_555 1_555
C19_6 C14_6 1_555 1_555
H14_6 C19_6 1_555 1_555
C24_6 C21_6 1_555 1_555
H18_6 C24_6 1_555 1_555
H19_6 C24_6 1_555 1_555
H20_6 C24_6 1_555 1_555
C25_6 C26_6 1_555 1_555
C26_6 C27_6 1_555 1_555
C27_6 H21_6 1_555 1_555
C28_6 C27_6 1_555 1_555
H22_6 C28_6 1_555 1_555
C29_6 C28_6 1_555 1_555
C30_6 C29_6 1_555 1_555
H23_6 C30_6 1_555 1_555
C31_6 C26_6 1_555 1_555
H24_6 C31_6 1_555 1_555
C32_6 C29_6 1_555 1_555
C33_6 C32_6 1_555 1_555
C34_6 C32_6 1_555 1_555
C35_6 C34_6 1_555 1_555
H25_6 C35_6 1_555 1_555
H26_6 C35_6 1_555 1_555
H27_6 C35_6 1_555 1_555
C36_6 C33_6 1_555 1_555
H28_6 C36_6 1_555 1_555
H29_6 C36_6 1_555 1_555
H30_6 C36_6 1_555 1_555
N1_6 Zn1_4 1_555 1_555
N3_6 Zn2_4 1_555 1_555
N4_6 C33_6 1_555 1_555
H31_6 N4_6 1_555 1_555
Zn6_2 O6_4 1_555 1_555
O7_4 Zn2_4 1_555 1_555
O8_4 Zn1_4 1_555 1_555
O9_4 Zn2_4 1_555 1_555
N7_4 Zn1_4 1_555 1_555
C30_6 C31_6 1_555 1_555
C34_6 N3_6 1_555 1_555
N1_6 N2_6 1_555 1_555
N3_6 N4_6 1_555 1_555
C15_5 H11_5 1_555 1_555
C16_5 C15_5 1_555 1_555
H12_5 C16_5 1_555 1_555
C17_5 C16_5 1_555 1_555
C18_5 C17_5 1_555 1_555
H13_5 C18_5 1_555 1_555
C20_6 C17_5 1_555 1_555
C22_6 C20_6 1_555 1_555
C23_5 C22_6 1_555 1_555
H15_5 C23_5 1_555 1_555
H16_5 C23_5 1_555 1_555
H17_5 C23_5 1_555 1_555
N6_4 C22_6 1_555 1_555
Zn4_2 N6_4 1_555 1_555
N5_6 N6_4 1_555 1_555
Zn3_2 O1_7 1_555 1_555
Zn5_2 N2_7 1_555 1_555
O1_7 C13_7 1_555 1_555
O2_7 C13_7 1_555 1_555
O7_4 C1_7 1_555 1_555
O8_4 C1_7 1_555 1_555
C1_7 C2_7 1_555 1_555
C2_7 C3_7 1_555 1_555
C3_7 H1_7 1_555 1_555
C4_7 C3_7 1_555 1_555
H2_7 C4_7 1_555 1_555
C5_7 C4_7 1_555 1_555
C6_7 C5_7 1_555 1_555
H3_7 C6_7 1_555 1_555
C7_7 C2_7 1_555 1_555
H4_7 C7_7 1_555 1_555
C8_7 C5_7 1_555 1_555
C9_5 C8_7 1_555 1_555
C10_7 C8_7 1_555 1_555
C11_5 C9_5 1_555 1_555
H5_5 C11_5 1_555 1_555
H6_7 C11_5 1_555 1_555
H7_5 C11_5 1_555 1_555
C12_7 C10_7 1_555 1_555
H8_5 C12_7 1_555 1_555
H9_7 C12_7 1_555 1_555
H10_7 C12_7 1_555 1_555
C13_7 C14_7 1_555 1_555
C14_7 C15_6 1_555 1_555
C15_6 H11_6 1_555 1_555
C16_6 C15_6 1_555 1_555
H12_6 C16_6 1_555 1_555
C17_6 C16_6 1_555 1_555
C18_6 C17_6 1_555 1_555
H13_6 C18_6 1_555 1_555
C19_7 C14_7 1_555 1_555
H14_7 C19_7 1_555 1_555
H15_6 C23_6 1_555 1_555
H16_6 C23_6 1_555 1_555
H17_6 C23_6 1_555 1_555
C30_7 C29_7 1_555 1_555
H23_7 C30_7 1_555 1_555
H24_7 C31_7 1_555 1_555
C32_7 C29_7 1_555 1_555
C34_7 C32_7 1_555 1_555
C35_7 C34_7 1_555 1_555
H25_7 C35_7 1_555 1_555
H26_7 C35_7 1_555 1_555
H27_7 C35_7 1_555 1_555
N1_7 Zn3_2 1_555 1_555
N2_7 C10_7 1_555 1_555
N3_7 Zn5_2 1_555 1_555
C6_7 C7_7 1_555 1_555
C9_5 N1_7 1_555 1_555
C18_6 C19_7 1_555 1_555
C30_7 C31_7 1_555 1_555
C34_7 N3_7 1_555 1_555
N1_7 N2_7 1_555 1_555
N3_7 N4_7 1_555 1_555
C21_7 C20_7 1_555 1_555
C22_7 C20_7 1_555 1_555
C24_7 C21_7 1_555 1_555
H18_7 C24_7 1_555 1_555
H19_7 C24_7 1_555 1_555
H20_7 C24_7 1_555 1_555
N5_7 C21_7 1_555 1_555
H32_7 N5_7 1_555 1_555
N7_3 C22_7 1_555 1_555
N5_7 N7_3 1_555 1_555
O9_3 C25_7 1_555 1_555
O7_3 C1_8 1_555 1_555
O8_3 C1_8 1_555 1_555
C1_8 C2_8 1_555 1_555
C2_8 C3_8 1_555 1_555
C3_8 H1_8 1_555 1_555
C4_8 C3_8 1_555 1_555
H2_8 C4_8 1_555 1_555
C5_8 C4_8 1_555 1_555
C6_8 C5_8 1_555 1_555
H3_8 C6_8 1_555 1_555
C7_8 C2_8 1_555 1_555
H4_8 C7_8 1_555 1_555
C8_8 C5_8 1_555 1_555
C9_6 C8_8 1_555 1_555
C10_8 C8_8 1_555 1_555
C11_6 C9_6 1_555 1_555
H5_6 C11_6 1_555 1_555
H6_8 C11_6 1_555 1_555
H7_6 C11_6 1_555 1_555
C12_8 C10_8 1_555 1_555
H9_8 C12_8 1_555 1_555
H10_8 C12_8 1_555 1_555
C6_8 C7_8 1_555 1_555
C22_8 C20_8 1_555 1_555
N7_4 C22_8 1_555 1_555
N5_8 N7_4 1_555 1_555
Zn4_2 O1_8 1_555 1_555
Zn6_2 N2_8 1_555 1_555
O1_8 C13_8 1_555 1_555
O2_8 C13_8 1_555 1_555
C13_8 C14_8 1_555 1_555
C19_8 C14_8 1_555 1_555
H14_8 C19_8 1_555 1_555
C26_7 C27_7 1_555 1_555
C27_7 H21_7 1_555 1_555
C28_7 C27_7 1_555 1_555
H22_7 C28_7 1_555 1_555
C29_8 C28_7 1_555 1_555
C30_8 C29_8 1_555 1_555
H23_8 C30_8 1_555 1_555
C31_8 C26_7 1_555 1_555
H24_8 C31_8 1_555 1_555
C32_8 C29_8 1_555 1_555
C33_7 C32_8 1_555 1_555
C34_8 C32_8 1_555 1_555
C35_8 C34_8 1_555 1_555
H25_8 C35_8 1_555 1_555
H26_8 C35_8 1_555 1_555
H27_8 C35_8 1_555 1_555
C36_7 C33_7 1_555 1_555
H28_7 C36_7 1_555 1_555
H29_7 C36_7 1_555 1_555
H30_7 C36_7 1_555 1_555
N1_8 Zn4_2 1_555 1_555
N3_8 Zn6_2 1_555 1_555
N4_8 C33_7 1_555 1_555
H31_7 N4_8 1_555 1_555
C30_8 C31_8 1_555 1_555
C34_8 N3_8 1_555 1_555
N1_8 N2_8 1_555 1_555
N3_8 N4_8 1_555 1_555
O5_8 C25_8 1_555 1_555
O9_4 C25_8 1_555 1_555
C24_8 C21_8 1_555 1_555
H18_8 C24_8 1_555 1_555
H19_8 C24_8 1_555 1_555
H20_8 C24_8 1_555 1_555
C15_7 H11_7 1_555 1_555
C16_7 C15_7 1_555 1_555
H12_7 C16_7 1_555 1_555
C17_7 C16_7 1_555 1_555
C18_7 C17_7 1_555 1_555
H13_7 C18_7 1_555 1_555
H15_7 C23_7 1_555 1_555
H16_7 C23_7 1_555 1_555
H17_7 C23_7 1_555 1_555
C11_7 C9_7 1_555 1_555
H5_7 C11_7 1_555 1_555
H7_7 C11_7 1_555 1_555
C26_8 C27_8 1_555 1_555
C27_8 H21_8 1_555 1_555
C28_8 C27_8 1_555 1_555
H22_8 C28_8 1_555 1_555
C36_8 C33_8 1_555 1_555
H28_8 C36_8 1_555 1_555
H29_8 C36_8 1_555 1_555
H30_8 C36_8 1_555 1_555
C15_8 H11_8 1_555 1_555
C16_8 C15_8 1_555 1_555
H12_8 C16_8 1_555 1_555
C17_8 C16_8 1_555 1_555
C18_8 C17_8 1_555 1_555
H13_8 C18_8 1_555 1_555
H15_8 C23_8 1_555 1_555
H16_8 C23_8 1_555 1_555
H17_8 C23_8 1_555 1_555
C11_8 C9_8 1_555 1_555
H5_8 C11_8 1_555 1_555
H7_8 C11_8 1_555 1_555

#END
