
###############################################################################
#
# This file contains modified crystal structure data generated from the
# MOF subset of the Cambridge Structural Database (CSD) v543 
# hosted by the Cambridge Crystallographic Data Centre (CCDC).
#
# This work is licensed under the Creative Commons
# Attribution-NonCommercial-ShareAlike 4.0 International License.
# To view a copy of this license, visit
# http://creativecommons.org/licenses/by-nc-sa/4.0/
# or send a letter to
# Creative Commons, PO Box 1866, Mountain View, CA 94042, USA.
#
# CIF created using the CSD Python API on 29 September 2022
# The structure has been converted into the P1 space group
# The structure has a 3D framework
# The original CSD entry XILVIZ is in the triclinic crystal system
# The framework has been calculated to contain at least 10.0% void space
# The void calculation uses a probe of radius 1.32A, grid spacing 0.4
#
###############################################################################

data_XILVIZ
_chemical_formula_moiety         '(C72 H36 Mn2 N8 O12 Zn2)n'
_symmetry_cell_setting           triclinic
_symmetry_space_group_name_H-M   'P 1'
_symmetry_Int_Tables_number      1
_space_group_name_Hall           'P 1'
loop_
_symmetry_equiv_pos_site_id
_symmetry_equiv_pos_as_xyz
1 x,y,z
_cell_length_a                   13.372(3)
_cell_length_b                   14.164(3)
_cell_length_c                   16.713(3)
_cell_angle_alpha                69.626(16)
_cell_angle_beta                 68.786(17)
_cell_angle_gamma                73.544(17)
_cell_volume                     2721.16
loop_
_atom_site_label
_atom_site_type_symbol
_atom_site_fract_x
_atom_site_fract_y
_atom_site_fract_z
Zn9 Zn 0.08223(15) 0.56710(13) 0.95932(10)
O13 O 0.0015(8) 0.3411(7) 0.1251(5)
O18 O 0.0331(11) 0.3755(10) 0.9400(8)
Mn1 Mn 0.5000 -0.0000 0.5000
O2 O 0.1316(8) 0.4455(7) 0.0585(6)
C1 C 0.0859(15) 0.3672(14) 0.1160(12)
C2 C 0.1582(17) 0.3095(12) 0.1795(11)
C3 C 0.1099(13) 0.2371(15) 0.2497(13)
H1 H 0.0415 0.2259 0.2570
C4 C 0.1740(18) 0.1753(15) 0.3160(11)
H2 H 0.1460 0.1266 0.3680
C5 C 0.2771(16) 0.1969(14) 0.2930(12)
C6 C 0.3148(14) 0.2668(15) 0.2237(13)
H3 H 0.3845 0.2781 0.2121
C7 C 0.2556(15) 0.3246(15) 0.1672(10)
H4 H 0.2846 0.3761 0.1185
C8 C 0.3434(13) 0.1349(12) 0.3590(10)
C9 C 0.4191(13) 0.0535(13) 0.3399(9)
C10 C 0.4425(17) 0.0198(14) 0.2618(9)
H5 H 0.4056 0.0491 0.2188
O10 O 0.1618(9) 0.4838(9) 0.8740(6)
N5 N 0.5055(10) 0.0106(9) 0.6119(8)
N6 N 0.3752(10) 0.1119(10) 0.5046(7)
C47 C 0.4744(13) 0.0604(14) 0.7395(9)
H24 H 0.4435 0.0971 0.7818
C48 C 0.4442(14) 0.0765(11) 0.6615(9)
C49 C 0.3532(13) 0.1542(12) 0.6400(10)
C50 C 0.3294(14) 0.1717(13) 0.5624(11)
C51 C 0.2353(15) 0.2487(13) 0.5399(12)
H25 H 0.1880 0.2930 0.5731
C52 C 0.2308(15) 0.2431(13) 0.4652(11)
H26 H 0.1805 0.2831 0.4346
C53 C 0.3202(15) 0.1618(12) 0.4385(12)
C54 C 0.2992(16) 0.2188(14) 0.6987(11)
C55 C 0.3364(17) 0.3072(16) 0.6891(10)
H27 H 0.3964 0.3265 0.6413
C56 C 0.2822(18) 0.3701(16) 0.7535(15)
H28 H 0.3101 0.4238 0.7526
C57 C 0.1872(15) 0.3415(12) 0.8144(11)
C58 C 0.1449(14) 0.2548(13) 0.8282(11)
H29 H 0.0837 0.2346 0.8741
C59 C 0.211(2) 0.2006(15) 0.7602(14)
H30 H 0.1842 0.1455 0.7621
C60 C 0.1193(19) 0.4083(14) 0.8888(12)
C32 C 0.6704(15) 0.8939(16) 0.0333(10)
H17 H 0.7367 0.8669 0.0459
C33 C 0.631(2) 0.9920(17) 0.0288(12)
C61 C 0.2032(18) 0.6457(17) 0.0274(12)
H31 H 0.1769 0.5988 0.0814
C62 C 0.2713(15) 0.7116(17) 0.0240(13)
H32 H 0.2908 0.6967 0.0757
C72 C 0.6218(18) 0.8281(16) 0.0209(15)
H36 H 0.6552 0.7598 0.0278
O11 O 0.2370(12) 0.9788(10) 0.9327(11)
O12 O 0.5033(11) 0.7082(12) 0.9884(10)
N7 N 0.1696(10) 0.6501(7) 0.9379(8)
N8 N 0.3645(17) 0.8529(16) 0.9594(8)
C63 C 0.3109(16) 0.7915(13) 0.9572(11)
C64 C 0.2850(15) 0.7881(13) 0.8694(10)
H33 H 0.3112 0.8303 0.8126
C65 C 0.2208(9) 0.7172(11) 0.8868(10)
H34 H 0.2132 0.7249 0.8316
C66 C 0.327(2) 0.9523(17) 0.9525(13)
C67 C 0.467(2) 0.802(2) 0.9831(14)
C70 C 0.4772(18) 0.9639(18) 0.9928(10)
C71 C 0.522(2) 0.8616(16) 0.9980(11)
Zn5 Zn 0.91777(15) 0.43290(13) 0.04068(10)
Mn1_2 Mn 0.5000 1.0000 0.5000
O3 O 0.9669(11) 0.6245(10) 0.0600(8)
O4 O 0.8382(9) 0.5162(9) 0.1260(6)
O5 O 0.7630(12) 0.0212(10) 0.0673(11)
O6 O 0.4967(11) 0.2918(12) 0.0116(10)
N1 N 0.4945(10) 0.9894(9) 0.3881(8)
N2 N 0.6248(10) 0.8881(10) 0.4954(7)
N3 N 0.8304(10) 0.3499(7) 0.0621(8)
N4 N 0.6355(17) 0.1471(16) 0.0406(8)
C11 C 0.5256(13) 0.9396(14) 0.2605(9)
H6 H 0.5565 0.9029 0.2182
C12 C 0.5558(14) 0.9235(11) 0.3385(9)
C13 C 0.6468(13) 0.8458(12) 0.3600(10)
C14 C 0.6706(14) 0.8283(13) 0.4376(11)
C15 C 0.7647(15) 0.7513(13) 0.4601(12)
H7 H 0.8120 0.7070 0.4269
C16 C 0.7692(15) 0.7569(13) 0.5348(11)
H8 H 0.8195 0.7169 0.5654
C17 C 0.6798(15) 0.8382(12) 0.5615(12)
C18 C 0.7008(16) 0.7812(14) 0.3013(11)
C19 C 0.6636(17) 0.6928(16) 0.3109(10)
H9 H 0.6036 0.6735 0.3587
C20 C 0.7178(18) 0.6299(16) 0.2465(15)
H10 H 0.6899 0.5762 0.2474
C21 C 0.8128(15) 0.6585(12) 0.1856(11)
C22 C 0.8551(14) 0.7452(13) 0.1718(11)
H11 H 0.9163 0.7654 0.1259
C23 C 0.789(2) 0.7994(15) 0.2398(14)
H12 H 0.8158 0.8545 0.2379
C24 C 0.8807(19) 0.5917(14) 0.1112(12)
C27 C 0.6891(16) 0.2085(13) 0.0428(11)
C28 C 0.7150(15) 0.2119(13) 0.1306(10)
H15 H 0.6888 0.1697 0.1874
C29 C 0.7792(9) 0.2828(11) 0.1132(10)
H16 H 0.7868 0.2751 0.1684
C30 C 0.673(2) 0.0477(17) 0.0475(13)
C31 C 0.533(2) 0.198(2) 0.0169(14)
C34 C 0.5228(18) 0.0361(18) 0.0072(10)
C35 C 0.478(2) 0.1384(16) 0.0020(11)
O7 O 0.9985(8) 0.6589(7) 0.8749(5)
O8 O 0.8684(8) 0.5545(7) 0.9415(6)
C37 C 0.9141(15) 0.6328(14) 0.8840(12)
C38 C 0.8418(17) 0.6905(12) 0.8205(11)
C39 C 0.8901(13) 0.7629(15) 0.7503(13)
H19 H 0.9585 0.7741 0.7430
C40 C 0.8260(18) 0.8247(15) 0.6840(11)
H20 H 0.8540 0.8734 0.6320
C41 C 0.7229(16) 0.8031(14) 0.7070(12)
C42 C 0.6852(14) 0.7332(15) 0.7763(13)
H21 H 0.6155 0.7219 0.7879
C43 C 0.7444(15) 0.6754(15) 0.8328(10)
H22 H 0.7154 0.6239 0.8815
C44 C 0.6566(13) 0.8651(12) 0.6410(10)
C45 C 0.5809(13) 0.9465(13) 0.6601(9)
C46 C 0.5575(17) 0.9802(14) 0.7382(9)
H23 H 0.5944 0.9509 0.7812
C25 C 0.7968(18) 0.3543(17) 0.9726(12)
H13 H 0.8231 0.4012 0.9186
C26 C 0.7287(15) 0.2884(17) 0.9760(13)
H14 H 0.7092 0.3033 0.9243
C36 C 0.3782(18) 0.1719(16) 0.9791(15)
H18 H 0.3448 0.2402 0.9722
C68 C 0.3296(15) 0.1061(16) 0.9667(10)
H35 H 0.2633 0.1331 0.9541
C69 C 0.369(2) 0.0080(17) 0.9712(12)
loop_
_geom_bond_atom_site_label_1
_geom_bond_atom_site_label_2
_geom_bond_site_symmetry_1
_geom_bond_site_symmetry_2
O13 C1 1_555 1_555
O2 C1 1_555 1_555
C1 C2 1_555 1_555
C2 C3 1_555 1_555
C3 H1 1_555 1_555
C4 C3 1_555 1_555
H2 C4 1_555 1_555
C5 C4 1_555 1_555
C6 C5 1_555 1_555
H3 C6 1_555 1_555
C7 C2 1_555 1_555
H4 C7 1_555 1_555
C8 C5 1_555 1_555
C9 C8 1_555 1_555
C10 C9 1_555 1_555
H5 C10 1_555 1_555
O18 C60 1_555 1_555
O10 C60 1_555 1_555
N5 Mn1 1_555 1_555
N6 Mn1 1_555 1_555
H24 C47 1_555 1_555
C48 N5 1_555 1_555
C49 C48 1_555 1_555
C50 N6 1_555 1_555
C51 C50 1_555 1_555
H25 C51 1_555 1_555
C52 C51 1_555 1_555
H26 C52 1_555 1_555
C53 C8 1_555 1_555
C54 C49 1_555 1_555
C55 C54 1_555 1_555
H27 C55 1_555 1_555
C56 C55 1_555 1_555
H28 C56 1_555 1_555
C57 C56 1_555 1_555
C58 C57 1_555 1_555
H29 C58 1_555 1_555
C59 C54 1_555 1_555
H30 C59 1_555 1_555
C60 C57 1_555 1_555
Zn9 O10 1_555 1_555
C6 C7 1_555 1_555
N6 C53 1_555 1_555
C47 C48 1_555 1_555
C49 C50 1_555 1_555
C52 C53 1_555 1_555
C58 C59 1_555 1_555
C32 H17 1_555 1_555
C61 H31 1_555 1_555
C62 C61 1_555 1_555
H32 C62 1_555 1_555
C72 C32 1_555 1_555
H36 C72 1_555 1_555
C32 C33 1_555 1_555
O11 C66 1_555 1_555
O12 C67 1_555 1_555
N8 C63 1_555 1_555
C64 C63 1_555 1_555
H33 C64 1_555 1_555
C65 N7 1_555 1_555
H34 C65 1_555 1_555
C66 N8 1_555 1_555
C67 N8 1_555 1_555
C71 C67 1_555 1_555
Zn9 N7 1_555 1_555
C64 C65 1_555 1_555
C70 C71 1_555 1_555
Zn5 O4 1_555 1_555
Mn1_2 N1 1_555 1_555
O3 C24 1_555 1_555
O4 C24 1_555 1_555
O5 C30 1_555 1_555
O6 C31 1_555 1_555
N2 Mn1_2 1_555 1_555
N3 Zn5 1_555 1_555
N4 C27 1_555 1_555
H6 C11 1_555 1_555
C12 N1 1_555 1_555
C13 C12 1_555 1_555
C14 N2 1_555 1_555
C15 C14 1_555 1_555
H7 C15 1_555 1_555
C16 C15 1_555 1_555
H8 C16 1_555 1_555
C17 N2 1_555 1_555
C18 C13 1_555 1_555
C19 C18 1_555 1_555
H9 C19 1_555 1_555
C20 C19 1_555 1_555
H10 C20 1_555 1_555
C21 C20 1_555 1_555
C22 C21 1_555 1_555
H11 C22 1_555 1_555
C23 C18 1_555 1_555
H12 C23 1_555 1_555
C24 C21 1_555 1_555
C28 C27 1_555 1_555
H15 C28 1_555 1_555
C29 N3 1_555 1_555
H16 C29 1_555 1_555
C30 N4 1_555 1_555
C31 N4 1_555 1_555
C35 C31 1_555 1_555
O7 C37 1_555 1_555
O8 C37 1_555 1_555
C37 C38 1_555 1_555
C38 C39 1_555 1_555
C39 H19 1_555 1_555
C40 C39 1_555 1_555
H20 C40 1_555 1_555
C41 C40 1_555 1_555
C42 C41 1_555 1_555
H21 C42 1_555 1_555
C43 C38 1_555 1_555
H22 C43 1_555 1_555
C44 C17 1_555 1_555
C46 C45 1_555 1_555
H23 C46 1_555 1_555
C11 C12 1_555 1_555
C13 C14 1_555 1_555
C16 C17 1_555 1_555
C22 C23 1_555 1_555
C28 C29 1_555 1_555
C34 C35 1_555 1_555
C41 C44 1_555 1_555
C42 C43 1_555 1_555
C44 C45 1_555 1_555
H13 C25 1_555 1_555
C26 C25 1_555 1_555
H14 C26 1_555 1_555
H18 C36 1_555 1_555
C68 C36 1_555 1_555
H35 C68 1_555 1_555
C68 C69 1_555 1_555

#END
