
###############################################################################
#
# This file contains modified crystal structure data generated from the
# MOF subset of the Cambridge Structural Database (CSD) v543 
# hosted by the Cambridge Crystallographic Data Centre (CCDC).
#
# This work is licensed under the Creative Commons
# Attribution-NonCommercial-ShareAlike 4.0 International License.
# To view a copy of this license, visit
# http://creativecommons.org/licenses/by-nc-sa/4.0/
# or send a letter to
# Creative Commons, PO Box 1866, Mountain View, CA 94042, USA.
#
# CIF created using the CSD Python API on 29 September 2022
# The structure has been converted into the P1 space group
# The structure has a 3D framework
# The original CSD entry XIMJOV is in the hexagonal crystal system
# The framework has been calculated to contain at least 10.0% void space
# The void calculation uses a probe of radius 1.32A, grid spacing 0.4
# The framework is charged, counterions have been retained in the structure
# H atom positions have been added when not included in the experimental data
# Generated hydrogen atom positions removed from atoms on special positions
#
###############################################################################

data_XIMJOV
_chemical_formula_moiety         '(C288 H360 Cl10 Cu30 N28 O80 13+)n'
_symmetry_cell_setting           triclinic
_symmetry_space_group_name_H-M   'P 1'
_symmetry_Int_Tables_number      1
_space_group_name_Hall           'P 1'
loop_
_symmetry_equiv_pos_site_id
_symmetry_equiv_pos_as_xyz
1 x,y,z
_cell_length_a                   20.7550(8)
_cell_length_b                   20.7550(8)
_cell_length_c                   36.9682(15)
_cell_angle_alpha                90
_cell_angle_beta                 90
_cell_angle_gamma                120
_cell_volume                     13791.3
loop_
_atom_site_label
_atom_site_type_symbol
_atom_site_fract_x
_atom_site_fract_y
_atom_site_fract_z
N1 N 0.6667 0.3333 0.2500
O1 O 0.6309(3) 0.2645(3) 0.2500
O2 O 0.7355(3) 0.3664(4) 0.2500
O3 O 0.6336(4) 0.3691(3) 0.2500
N1_2 N 0.3333 0.6667 0.7500
O1_2 O 0.3691(3) 0.7355(3) 0.7500
O2_2 O 0.2645(3) 0.6336(4) 0.7500
O3_2 O 0.3664(4) 0.6309(3) 0.7500
N1_3 N 0.3334 0.6667 0.2500
O1_3 O 0.3664(4) 0.7355(3) 0.2500
O2_3 O 0.3691(5) 0.6336(4) 0.2500
O3_3 O 0.2645(5) 0.6309(3) 0.2500
N1_4 N 0.6667 0.3333 0.7500
O1_4 O 0.7355(3) 0.3691(3) 0.7500
O2_4 O 0.6336(4) 0.2645(3) 0.7500
O3_4 O 0.6309(3) 0.3664(4) 0.7500
Cu2 Cu -0.0000 0.45130(5) 0.52221(2)
O6 O -0.0000 0.3643(4) 0.5604(2)
Cu4 Cu -0.0000 0.54870(5) 0.02221(2)
Cu8 Cu -0.0000 0.54870(5) 0.47779(2)
O15 O 0.0757(3) 0.4528(4) 0.49067(13)
O18 O 0.0759(2) 0.5391(3) 0.54819(12)
Cu7 Cu -0.0000 0.45130(5) 0.97779(2)
O6_2 O 0.0000 0.6357(4) 0.0604(2)
O16 O 0.0759(2) 0.5368(4) 0.04819(12)
Cu1 Cu 0.40182(4) 1.0000 0.7500
Cl1 Cl 0.51758(11) 1.0000 0.7500
C1 C 0.2696(3) 0.8639(4) 0.76813(11)
H1 H 0.2620 0.8160 0.7760
H2 H 0.2265 0.8668 0.7760
C2 C 0.3152(4) 0.9609(2) 0.81445(19)
H3 H 0.2629 0.9445 0.8112
H4 H 0.3205 0.9445 0.8383
C3 C 0.3713(2) 0.8854(2) 0.80783(10)
H5 H 0.4153 0.9235 0.8200
H6 H 0.3875 0.8617 0.7903
C4 C 0.3225(3) 0.8281(2) 0.83526(10)
C5 C 0.2800(3) 0.7534(3) 0.82501(13)
H7 H 0.2824 0.7393 0.8014
C6 C 0.2343(3) 0.7003(3) 0.85008(17)
H8 H 0.2081 0.6505 0.8433
C7 C 0.2272(3) 0.7202(3) 0.88514(15)
C8 C 0.2707(4) 0.7944(3) 0.89527(15)
H9 H 0.2680 0.8089 0.9188
C9 C 0.3179(3) 0.8469(3) 0.87049(12)
H10 H 0.3473 0.8961 0.8778
C10 C 0.1756(4) 0.6618(4) 0.91076(18)
H11 H 0.1595 0.6131 0.9038
C11 C 0.1509(4) 0.6690(4) 0.94020(19)
H12 H 0.1671 0.7171 0.9484
C12 C 0.0960(4) 0.6047(5) 0.9637(2)
N2 N 0.3352(2) 0.9222(2) 0.78802(11)
O4 O 0.0757(3) 0.6229(3) 0.99067(13)
O5 O 0.0759(2) 0.5391(3) 0.95181(12)
C13 C 0.2696(3) 0.8639(4) 0.73187(11)
H13 H 0.2620 0.8160 0.7240
H14 H 0.2265 0.8668 0.7240
C14 C 0.3152(4) 0.9609(2) 0.68555(19)
H15 H 0.2629 0.9445 0.6888
H16 H 0.3205 0.9445 0.6617
C15 C 0.3713(2) 0.8854(2) 0.69217(10)
H17 H 0.4153 0.9235 0.6800
H18 H 0.3875 0.8617 0.7097
C16 C 0.3225(3) 0.8281(2) 0.66474(10)
C17 C 0.2800(3) 0.7534(3) 0.67499(13)
H19 H 0.2824 0.7393 0.6986
C18 C 0.2343(3) 0.7003(3) 0.64992(17)
H20 H 0.2081 0.6505 0.6567
C19 C 0.2272(3) 0.7202(3) 0.61486(15)
C20 C 0.2707(4) 0.7944(3) 0.60473(15)
H21 H 0.2680 0.8089 0.5812
C21 C 0.3179(3) 0.8469(3) 0.62951(12)
H22 H 0.3473 0.8961 0.6222
C22 C 0.1756(4) 0.6618(4) 0.58924(18)
H23 H 0.1595 0.6131 0.5962
C23 C 0.1509(4) 0.6690(4) 0.55980(19)
H24 H 0.1671 0.7171 0.5516
C24 C 0.0960(4) 0.6047(5) 0.5363(2)
N3 N 0.3352(2) 0.9222(2) 0.71198(11)
O7 O 0.0757(3) 0.6229(3) 0.50933(13)
Cu3 Cu 0.45130(5) -0.00000(7) 0.52221(2)
O13 O 0.3643(4) 0.0000(6) 0.5604(2)
Cu5 Cu 0.54870(5) 0.00000(7) 0.02221(2)
Cu9 Cu 0.54870(5) 0.00000(7) 0.47779(2)
O14 O 0.4528(4) 0.0757(5) 0.49067(13)
O17 O 0.5391(3) 0.0759(5) 0.54819(12)
Cu6 Cu 0.45130(5) -0.00000(7) 0.97779(2)
Cu1_2 Cu 0.40182(4) 0.40182(4) 0.2500
Cl1_2 Cl 0.51758(11) 0.51758(11) 0.2500
C1_2 C 0.4057(5) 0.2696(3) 0.26813(11)
H1_2 H 0.4460 0.2620 0.2760
H2_2 H 0.3597 0.2265 0.2760
C2_2 C 0.3543(4) 0.3152(4) 0.31445(19)
H3_2 H 0.3184 0.2629 0.3112
H4_2 H 0.3760 0.3205 0.3383
C3_2 C 0.4859(3) 0.3713(2) 0.30783(10)
H5_2 H 0.4918 0.4153 0.3200
H6_2 H 0.5258 0.3875 0.2903
C4_2 C 0.4944(4) 0.3225(3) 0.33526(10)
C5_2 C 0.5266(4) 0.2800(3) 0.32501(13)
H7_2 H 0.5431 0.2824 0.3014
C6_2 C 0.5340(4) 0.2343(3) 0.35008(17)
H8_2 H 0.5576 0.2081 0.3433
C7_2 C 0.5070(4) 0.2272(3) 0.38514(15)
C8_2 C 0.4763(5) 0.2707(4) 0.39527(15)
H9_2 H 0.4591 0.2680 0.4188
C9_2 C 0.4710(4) 0.3179(3) 0.37049(12)
H10_2 H 0.4512 0.3473 0.3778
C10_2 C 0.5138(6) 0.1756(4) 0.41076(18)
H11_2 H 0.5464 0.1595 0.4038
C11_2 C 0.4819(6) 0.1509(4) 0.44020(19)
H12_2 H 0.4500 0.1671 0.4484
C12_2 C 0.4913(6) 0.0960(4) 0.4637(2)
N2_2 N 0.4130(3) 0.3352(2) 0.28802(11)
O5_2 O 0.5368(4) 0.0759(2) 0.45181(12)
C13_2 C 0.4057(5) 0.2696(3) 0.23187(11)
H13_2 H 0.4460 0.2620 0.2240
H14_2 H 0.3597 0.2265 0.2240
C14_2 C 0.3543(4) 0.3152(4) 0.18555(19)
H15_2 H 0.3184 0.2629 0.1888
H16_2 H 0.3760 0.3205 0.1617
C15_2 C 0.4859(3) 0.3713(2) 0.19217(10)
H17_2 H 0.4918 0.4153 0.1800
H18_2 H 0.5258 0.3875 0.2097
C16_2 C 0.4944(4) 0.3225(3) 0.16474(10)
C17_2 C 0.5266(4) 0.2800(3) 0.17499(13)
H19_2 H 0.5431 0.2824 0.1986
C18_2 C 0.5340(4) 0.2343(3) 0.14992(17)
H20_2 H 0.5576 0.2081 0.1567
C19_2 C 0.5070(4) 0.2272(3) 0.11486(15)
C20_2 C 0.4763(5) 0.2707(4) 0.10473(15)
H21_2 H 0.4591 0.2680 0.0812
C21_2 C 0.4710(4) 0.3179(3) 0.12951(12)
H22_2 H 0.4512 0.3473 0.1222
C22_2 C 0.5138(6) 0.1756(4) 0.08924(18)
H23_2 H 0.5464 0.1595 0.0962
C23_2 C 0.4819(6) 0.1509(4) 0.05980(19)
H24_2 H 0.4500 0.1671 0.0516
C24_2 C 0.4913(6) 0.0960(4) 0.0363(2)
N3_2 N 0.4130(3) 0.3352(2) 0.21198(11)
O7_2 O 0.4528(4) 0.0757(3) 0.00933(13)
O8 O 0.5368(4) 0.0759(2) 0.04819(12)
C25 C 0.2696(6) 0.4057(5) 0.26813(11)
H25 H 0.2620 0.4460 0.2760
H26 H 0.2265 0.3597 0.2760
C26 C 0.3152(4) 0.3543(4) 0.31445(19)
H27 H 0.2629 0.3184 0.3112
H28 H 0.3205 0.3760 0.3383
C27 C 0.3713(4) 0.4859(3) 0.30783(10)
H29 H 0.4153 0.4918 0.3200
H30 H 0.3875 0.5258 0.2903
C28 C 0.3225(4) 0.4944(4) 0.33526(10)
C29 C 0.2800(5) 0.5266(4) 0.32501(13)
H31 H 0.2824 0.5431 0.3014
C30 C 0.2343(5) 0.5340(4) 0.35008(17)
H32 H 0.2081 0.5576 0.3433
C31 C 0.2272(5) 0.5070(4) 0.38514(15)
C32 C 0.2707(6) 0.4763(5) 0.39527(15)
H33 H 0.2680 0.4591 0.4188
C33 C 0.3179(5) 0.4710(4) 0.37049(12)
H34 H 0.3473 0.4512 0.3778
C34 C 0.1756(7) 0.5138(6) 0.41076(18)
H35 H 0.1595 0.5464 0.4038
C35 C 0.1509(7) 0.4819(6) 0.44020(19)
H36 H 0.1671 0.4500 0.4484
C36 C 0.0960(8) 0.4913(6) 0.4637(2)
N4 N 0.3352(4) 0.4130(3) 0.28802(11)
O10 O 0.0759(5) 0.5368(4) 0.45181(12)
C37 C 0.2696(6) 0.4057(5) 0.23187(11)
H37 H 0.2620 0.4460 0.2240
H38 H 0.2265 0.3597 0.2240
C38 C 0.3152(4) 0.3543(4) 0.18555(19)
H39 H 0.2629 0.3184 0.1888
H40 H 0.3205 0.3760 0.1617
C39 C 0.3713(4) 0.4859(3) 0.19217(10)
H41 H 0.4153 0.4918 0.1800
H42 H 0.3875 0.5258 0.2097
C40 C 0.3225(4) 0.4944(4) 0.16474(10)
C41 C 0.2800(5) 0.5266(4) 0.17499(13)
H43 H 0.2824 0.5431 0.1986
C42 C 0.2343(5) 0.5340(4) 0.14992(17)
H44 H 0.2081 0.5576 0.1567
C43 C 0.2272(5) 0.5070(4) 0.11486(15)
C44 C 0.2707(6) 0.4763(5) 0.10473(15)
H45 H 0.2680 0.4591 0.0812
C45 C 0.3179(5) 0.4710(4) 0.12951(12)
H46 H 0.3473 0.4512 0.1222
C46 C 0.1756(7) 0.5138(6) 0.08924(18)
H47 H 0.1595 0.5464 0.0962
C47 C 0.1509(7) 0.4819(6) 0.05980(19)
H48 H 0.1671 0.4500 0.0516
C48 C 0.0960(8) 0.4913(6) 0.0363(2)
N5 N 0.3352(4) 0.4130(3) 0.21198(11)
O11 O 0.0757(5) 0.4528(4) 0.00933(13)
O6_3 O 0.6357(4) -0.0000 0.0604(2)
O15_2 O 0.6229(5) 0.0757(3) 0.99067(13)
Cu1_3 Cu 1.0000 0.40182(4) 0.7500
Cl1_3 Cl 1.0000 0.51758(11) 0.7500
C25_2 C 0.8639(4) 0.2696(6) 0.76813(11)
H25_2 H 0.8160 0.2620 0.7760
H26_2 H 0.8668 0.2265 0.7760
C26_2 C 0.9609(2) 0.3152(4) 0.81445(19)
H27_2 H 0.9445 0.2629 0.8112
H28_2 H 0.9445 0.3205 0.8383
C27_2 C 0.8854(2) 0.3713(4) 0.80783(10)
H29_2 H 0.9235 0.4153 0.8200
H30_2 H 0.8617 0.3875 0.7903
C28_2 C 0.8281(2) 0.3225(4) 0.83526(10)
C29_2 C 0.7534(3) 0.2800(5) 0.82501(13)
H31_2 H 0.7393 0.2824 0.8014
C30_2 C 0.7003(3) 0.2343(5) 0.85008(17)
H32_2 H 0.6505 0.2081 0.8433
C31_2 C 0.7202(3) 0.2272(5) 0.88514(15)
C32_2 C 0.7944(3) 0.2707(6) 0.89527(15)
H33_2 H 0.8089 0.2680 0.9188
C33_2 C 0.8469(3) 0.3179(5) 0.87049(12)
H34_2 H 0.8961 0.3473 0.8778
C34_2 C 0.6618(4) 0.1756(7) 0.91076(18)
H35_2 H 0.6131 0.1595 0.9038
C35_2 C 0.6690(4) 0.1509(7) 0.94020(19)
H36_2 H 0.7171 0.1671 0.9484
C36_2 C 0.6047(5) 0.0960(8) 0.9637(2)
N4_2 N 0.9222(2) 0.3352(4) 0.78802(11)
O10_2 O 0.5391(3) 0.0759(5) 0.95181(12)
C37_2 C 0.8639(4) 0.2696(6) 0.73187(11)
H37_2 H 0.8160 0.2620 0.7240
H38_2 H 0.8668 0.2265 0.7240
C38_2 C 0.9609(2) 0.3152(4) 0.68555(19)
H39_2 H 0.9445 0.2629 0.6888
H40_2 H 0.9445 0.3205 0.6617
C39_2 C 0.8854(2) 0.3713(4) 0.69217(10)
H41_2 H 0.9235 0.4153 0.6800
H42_2 H 0.8617 0.3875 0.7097
C40_2 C 0.8281(2) 0.3225(4) 0.66474(10)
C41_2 C 0.7534(3) 0.2800(5) 0.67499(13)
H43_2 H 0.7393 0.2824 0.6986
C42_2 C 0.7003(3) 0.2343(5) 0.64992(17)
H44_2 H 0.6505 0.2081 0.6567
C43_2 C 0.7202(3) 0.2272(5) 0.61486(15)
C44_2 C 0.7944(3) 0.2707(6) 0.60473(15)
H45_2 H 0.8089 0.2680 0.5812
C45_2 C 0.8469(3) 0.3179(5) 0.62951(12)
H46_2 H 0.8961 0.3473 0.6222
C46_2 C 0.6618(4) 0.1756(7) 0.58924(18)
H47_2 H 0.6131 0.1595 0.5962
C47_2 C 0.6690(4) 0.1509(7) 0.55980(19)
H48_2 H 0.7171 0.1671 0.5516
C48_2 C 0.6047(5) 0.0960(8) 0.5363(2)
N5_2 N 0.9222(2) 0.3352(4) 0.71198(11)
O11_2 O 0.6229(3) 0.0757(5) 0.50933(13)
O13_2 O 0.0000(6) 0.3643(4) 0.9396(2)
O13_3 O 0.3643(4) 0.0000(6) 0.9396(2)
O6_4 O 0.6357(4) 0.0000 0.4396(2)
O6_5 O -0.0000 0.6357(4) 0.4396(2)
Cu1_4 Cu 0.59818(4) 0.0000 0.2500
Cu2_2 Cu 1.0000 0.45130(5) 0.52221(2)
Cl1_4 Cl 0.48242(11) 0.0000 0.2500
C1_3 C 0.7304(3) 0.1361(4) 0.26813(11)
H1_3 H 0.7380 0.1840 0.2760
H2_3 H 0.7735 0.1332 0.2760
C2_3 C 0.6848(4) 0.0391(2) 0.31445(19)
H3_3 H 0.7371 0.0555 0.3112
H4_3 H 0.6795 0.0555 0.3383
C3_3 C 0.6287(2) 0.1146(2) 0.30783(10)
H5_3 H 0.5847 0.0765 0.3200
H6_3 H 0.6125 0.1383 0.2903
C4_3 C 0.6775(3) 0.1719(2) 0.33526(10)
C5_3 C 0.7200(3) 0.2466(3) 0.32501(13)
H7_3 H 0.7176 0.2607 0.3014
C6_3 C 0.7657(3) 0.2997(3) 0.35008(17)
H8_3 H 0.7919 0.3495 0.3433
C7_3 C 0.7728(3) 0.2798(3) 0.38514(15)
C8_3 C 0.7293(4) 0.2056(3) 0.39527(15)
H9_3 H 0.7320 0.1911 0.4188
C9_3 C 0.6821(3) 0.1531(3) 0.37049(12)
H10_3 H 0.6527 0.1039 0.3778
C10_3 C 0.8244(4) 0.3382(4) 0.41076(18)
H11_3 H 0.8405 0.3869 0.4038
C11_3 C 0.8491(4) 0.3310(4) 0.44020(19)
H12_3 H 0.8329 0.2829 0.4484
C12_3 C 0.9040(4) 0.3953(5) 0.4637(2)
N2_3 N 0.6648(2) 0.0778(2) 0.28802(11)
O4_2 O 0.9243(3) 0.3771(3) 0.49067(13)
O5_3 O 0.9241(2) 0.4609(3) 0.45181(12)
O6_6 O 1.0000 0.3643(4) 0.5604(2)
C13_3 C 0.7304(3) 0.1361(4) 0.23187(11)
H13_3 H 0.7380 0.1840 0.2240
H14_3 H 0.7735 0.1332 0.2240
C14_3 C 0.6848(4) 0.0391(2) 0.18555(19)
H15_3 H 0.7371 0.0555 0.1888
H16_3 H 0.6795 0.0555 0.1617
C15_3 C 0.6287(2) 0.1146(2) 0.19217(10)
H17_3 H 0.5847 0.0765 0.1800
H18_3 H 0.6125 0.1383 0.2097
C16_3 C 0.6775(3) 0.1719(2) 0.16474(10)
C17_3 C 0.7200(3) 0.2466(3) 0.17499(13)
H19_3 H 0.7176 0.2607 0.1986
C18_3 C 0.7657(3) 0.2997(3) 0.14992(17)
H20_3 H 0.7919 0.3495 0.1567
C19_3 C 0.7728(3) 0.2798(3) 0.11486(15)
C20_3 C 0.7293(4) 0.2056(3) 0.10473(15)
H21_3 H 0.7320 0.1911 0.0812
C21_3 C 0.6821(3) 0.1531(3) 0.12951(12)
H22_3 H 0.6527 0.1039 0.1222
C22_3 C 0.8244(4) 0.3382(4) 0.08924(18)
H23_3 H 0.8405 0.3869 0.0962
C23_3 C 0.8491(4) 0.3310(4) 0.05980(19)
H24_3 H 0.8329 0.2829 0.0516
C24_3 C 0.9040(4) 0.3953(5) 0.0363(2)
N3_3 N 0.6648(2) 0.0778(2) 0.21198(11)
O7_3 O 0.9243(3) 0.3771(3) 0.00933(13)
O8_2 O 0.9241(2) 0.4609(3) 0.04819(12)
Cu4_2 Cu 1.0000 0.54870(5) 0.02221(2)
Cu8_2 Cu 1.0000 0.54870(5) 0.47779(2)
O16_2 O 0.9241(2) 0.4632(4) 0.54819(12)
Cu7_2 Cu 1.0000 0.45130(5) 0.97779(2)
O6_7 O 1.0000 0.6357(4) 0.0604(2)
O15_3 O 0.9243(3) 0.5472(4) 0.99067(13)
Cu1_5 Cu 0.0000 0.59818(4) 0.2500
Cl1_5 Cl 0.0000 0.48242(11) 0.2500
C25_3 C 0.1361(4) 0.7304(6) 0.26813(11)
H25_3 H 0.1840 0.7380 0.2760
H26_3 H 0.1332 0.7735 0.2760
C26_3 C 0.0391(2) 0.6848(4) 0.31445(19)
H27_3 H 0.0555 0.7371 0.3112
H28_3 H 0.0555 0.6795 0.3383
C27_3 C 0.1146(2) 0.6287(4) 0.30783(10)
H29_3 H 0.0765 0.5847 0.3200
H30_3 H 0.1383 0.6125 0.2903
C28_3 C 0.1719(2) 0.6775(4) 0.33526(10)
C29_3 C 0.2466(3) 0.7200(5) 0.32501(13)
H31_3 H 0.2607 0.7176 0.3014
C30_3 C 0.2997(3) 0.7657(5) 0.35008(17)
H32_3 H 0.3495 0.7919 0.3433
C31_3 C 0.2798(3) 0.7728(5) 0.38514(15)
C32_3 C 0.2056(3) 0.7293(6) 0.39527(15)
H33_3 H 0.1911 0.7320 0.4188
C33_3 C 0.1531(3) 0.6821(5) 0.37049(12)
H34_3 H 0.1039 0.6527 0.3778
C34_3 C 0.3382(4) 0.8244(7) 0.41076(18)
H35_3 H 0.3869 0.8405 0.4038
C35_3 C 0.3310(4) 0.8491(7) 0.44020(19)
H36_3 H 0.2829 0.8329 0.4484
C36_3 C 0.3953(5) 0.9040(8) 0.4637(2)
N4_3 N 0.0778(2) 0.6648(4) 0.28802(11)
O9 O 0.3771(3) 0.9243(5) 0.49067(13)
O10_3 O 0.4609(3) 0.9241(5) 0.45181(12)
C37_3 C 0.1361(4) 0.7304(6) 0.23187(11)
H37_3 H 0.1840 0.7380 0.2240
H38_3 H 0.1332 0.7735 0.2240
C38_3 C 0.0391(2) 0.6848(4) 0.18555(19)
H39_3 H 0.0555 0.7371 0.1888
H40_3 H 0.0555 0.6795 0.1617
C39_3 C 0.1146(2) 0.6287(4) 0.19217(10)
H41_3 H 0.0765 0.5847 0.1800
H42_3 H 0.1383 0.6125 0.2097
C40_3 C 0.1719(2) 0.6775(4) 0.16474(10)
C41_3 C 0.2466(3) 0.7200(5) 0.17499(13)
H43_3 H 0.2607 0.7176 0.1986
C42_3 C 0.2997(3) 0.7657(5) 0.14992(17)
H44_3 H 0.3495 0.7919 0.1567
C43_3 C 0.2798(3) 0.7728(5) 0.11486(15)
C44_3 C 0.2056(3) 0.7293(6) 0.10473(15)
H45_3 H 0.1911 0.7320 0.0812
C45_3 C 0.1531(3) 0.6821(5) 0.12951(12)
H46_3 H 0.1039 0.6527 0.1222
C46_3 C 0.3382(4) 0.8244(7) 0.08924(18)
H47_3 H 0.3869 0.8405 0.0962
C47_3 C 0.3310(4) 0.8491(7) 0.05980(19)
H48_3 H 0.2829 0.8329 0.0516
C48_3 C 0.3953(5) 0.9040(8) 0.0363(2)
N5_3 N 0.0778(2) 0.6648(4) 0.21198(11)
O11_3 O 0.3771(3) 0.9243(5) 0.00933(13)
O12 O 0.4609(3) 0.9241(5) 0.04819(12)
Cu3_2 Cu 0.45130(5) 1.00000(7) 0.52221(2)
O13_4 O 0.3643(4) 1.0000(6) 0.5604(2)
Cu5_2 Cu 0.54870(5) 1.00000(7) 0.02221(2)
Cu9_2 Cu 0.54870(5) 1.00000(7) 0.47779(2)
O19 O 0.4632(4) 0.9241(5) 0.54819(12)
Cu6_2 Cu 0.45130(5) 1.00000(7) 0.97779(2)
O6_8 O 0.6357(4) 1.0000 0.0604(2)
Cu1_6 Cu 0.59818(4) 0.59818(4) 0.7500
Cl1_6 Cl 0.48242(11) 0.48242(11) 0.7500
C1_4 C 0.5943(5) 0.7304(3) 0.76813(11)
H1_4 H 0.5540 0.7380 0.7760
H2_4 H 0.6403 0.7735 0.7760
C2_4 C 0.6457(4) 0.6848(4) 0.81445(19)
H3_4 H 0.6816 0.7371 0.8112
H4_4 H 0.6240 0.6795 0.8383
C3_4 C 0.5141(3) 0.6287(2) 0.80783(10)
H5_4 H 0.5082 0.5847 0.8200
H6_4 H 0.4742 0.6125 0.7903
C4_4 C 0.5056(4) 0.6775(3) 0.83526(10)
C5_4 C 0.4734(4) 0.7200(3) 0.82501(13)
H7_4 H 0.4569 0.7176 0.8014
C6_4 C 0.4660(4) 0.7657(3) 0.85008(17)
H8_4 H 0.4424 0.7919 0.8433
C7_4 C 0.4930(4) 0.7728(3) 0.88514(15)
C8_4 C 0.5237(5) 0.7293(4) 0.89527(15)
H9_4 H 0.5409 0.7320 0.9188
C9_4 C 0.5290(4) 0.6821(3) 0.87049(12)
H10_4 H 0.5488 0.6527 0.8778
C10_4 C 0.4862(6) 0.8244(4) 0.91076(18)
H11_4 H 0.4536 0.8405 0.9038
C11_4 C 0.5181(6) 0.8491(4) 0.94020(19)
H12_4 H 0.5500 0.8329 0.9484
C12_4 C 0.5087(6) 0.9040(4) 0.9637(2)
N2_4 N 0.5870(3) 0.6648(2) 0.78802(11)
O4_3 O 0.5472(4) 0.9243(3) 0.99067(13)
O5_4 O 0.4632(4) 0.9241(2) 0.95181(12)
C13_4 C 0.5943(5) 0.7304(3) 0.73187(11)
H13_4 H 0.5540 0.7380 0.7240
H14_4 H 0.6403 0.7735 0.7240
C14_4 C 0.6457(4) 0.6848(4) 0.68555(19)
H15_4 H 0.6816 0.7371 0.6888
H16_4 H 0.6240 0.6795 0.6617
C15_4 C 0.5141(3) 0.6287(2) 0.69217(10)
H17_4 H 0.5082 0.5847 0.6800
H18_4 H 0.4742 0.6125 0.7097
C16_4 C 0.5056(4) 0.6775(3) 0.66474(10)
C17_4 C 0.4734(4) 0.7200(3) 0.67499(13)
H19_4 H 0.4569 0.7176 0.6986
C18_4 C 0.4660(4) 0.7657(3) 0.64992(17)
H20_4 H 0.4424 0.7919 0.6567
C19_4 C 0.4930(4) 0.7728(3) 0.61486(15)
C20_4 C 0.5237(5) 0.7293(4) 0.60473(15)
H21_4 H 0.5409 0.7320 0.5812
C21_4 C 0.5290(4) 0.6821(3) 0.62951(12)
H22_4 H 0.5488 0.6527 0.6222
C22_4 C 0.4862(6) 0.8244(4) 0.58924(18)
H23_4 H 0.4536 0.8405 0.5962
C23_4 C 0.5181(6) 0.8491(4) 0.55980(19)
H24_4 H 0.5500 0.8329 0.5516
C24_4 C 0.5087(6) 0.9040(4) 0.5363(2)
N3_4 N 0.5870(3) 0.6648(2) 0.71198(11)
O7_4 O 0.5472(4) 0.9243(3) 0.50933(13)
C25_4 C 0.7304(6) 0.5943(5) 0.76813(11)
H25_4 H 0.7380 0.5540 0.7760
H26_4 H 0.7735 0.6403 0.7760
C26_4 C 0.6848(4) 0.6457(4) 0.81445(19)
H27_4 H 0.7371 0.6816 0.8112
H28_4 H 0.6795 0.6240 0.8383
C27_4 C 0.6287(4) 0.5141(3) 0.80783(10)
H29_4 H 0.5847 0.5082 0.8200
H30_4 H 0.6125 0.4742 0.7903
C28_4 C 0.6775(4) 0.5056(4) 0.83526(10)
C29_4 C 0.7200(5) 0.4734(4) 0.82501(13)
H31_4 H 0.7176 0.4569 0.8014
C30_4 C 0.7657(5) 0.4660(4) 0.85008(17)
H32_4 H 0.7919 0.4424 0.8433
C31_4 C 0.7728(5) 0.4930(4) 0.88514(15)
C32_4 C 0.7293(6) 0.5237(5) 0.89527(15)
H33_4 H 0.7320 0.5409 0.9188
C33_4 C 0.6821(5) 0.5290(4) 0.87049(12)
H34_4 H 0.6527 0.5488 0.8778
C34_4 C 0.8244(7) 0.4862(6) 0.91076(18)
H35_4 H 0.8405 0.4536 0.9038
C35_4 C 0.8491(7) 0.5181(6) 0.94020(19)
H36_4 H 0.8329 0.5500 0.9484
C36_4 C 0.9040(8) 0.5087(6) 0.9637(2)
N4_4 N 0.6648(4) 0.5870(3) 0.78802(11)
O10_4 O 0.9241(5) 0.4632(4) 0.95181(12)
C37_4 C 0.7304(6) 0.5943(5) 0.73187(11)
H37_4 H 0.7380 0.5540 0.7240
H38_4 H 0.7735 0.6403 0.7240
C38_4 C 0.6848(4) 0.6457(4) 0.68555(19)
H39_4 H 0.7371 0.6816 0.6888
H40_4 H 0.6795 0.6240 0.6617
C39_4 C 0.6287(4) 0.5141(3) 0.69217(10)
H41_4 H 0.5847 0.5082 0.6800
H42_4 H 0.6125 0.4742 0.7097
C40_4 C 0.6775(4) 0.5056(4) 0.66474(10)
C41_4 C 0.7200(5) 0.4734(4) 0.67499(13)
H43_4 H 0.7176 0.4569 0.6986
C42_4 C 0.7657(5) 0.4660(4) 0.64992(17)
H44_4 H 0.7919 0.4424 0.6567
C43_4 C 0.7728(5) 0.4930(4) 0.61486(15)
C44_4 C 0.7293(6) 0.5237(5) 0.60473(15)
H45_4 H 0.7320 0.5409 0.5812
C45_4 C 0.6821(5) 0.5290(4) 0.62951(12)
H46_4 H 0.6527 0.5488 0.6222
C46_4 C 0.8244(7) 0.4862(6) 0.58924(18)
H47_4 H 0.8405 0.4536 0.5962
C47_4 C 0.8491(7) 0.5181(6) 0.55980(19)
H48_4 H 0.8329 0.5500 0.5516
C48_4 C 0.9040(8) 0.5087(6) 0.5363(2)
N5_4 N 0.6648(4) 0.5870(3) 0.71198(11)
O11_4 O 0.9243(5) 0.5472(4) 0.50933(13)
O13_5 O 1.0000(6) 0.3643(4) 0.9396(2)
O13_6 O 0.3643(4) 1.0000(6) 0.9396(2)
O6_9 O 0.6357(4) 1.0000 0.4396(2)
O6_10 O 1.0000 0.6357(4) 0.4396(2)
Cu1_7 Cu 0.59818(4) 1.0000 0.2500
Cl1_7 Cl 0.48242(11) 1.0000 0.2500
C25_5 C 0.5943(5) 0.8639(4) 0.26813(11)
H25_5 H 0.5540 0.8160 0.2760
H26_5 H 0.6403 0.8668 0.2760
C26_5 C 0.6457(4) 0.9609(2) 0.31445(19)
H27_5 H 0.6816 0.9445 0.3112
H28_5 H 0.6240 0.9445 0.3383
C27_5 C 0.5141(3) 0.8854(2) 0.30783(10)
H29_5 H 0.5082 0.9235 0.3200
H30_5 H 0.4742 0.8617 0.2903
C28_5 C 0.5056(4) 0.8281(2) 0.33526(10)
C29_5 C 0.4734(4) 0.7534(3) 0.32501(13)
H31_5 H 0.4569 0.7393 0.3014
C30_5 C 0.4660(4) 0.7003(3) 0.35008(17)
H32_5 H 0.4424 0.6505 0.3433
C31_5 C 0.4930(4) 0.7202(3) 0.38514(15)
C32_5 C 0.5237(5) 0.7944(3) 0.39527(15)
H33_5 H 0.5409 0.8089 0.4188
C33_5 C 0.5290(4) 0.8469(3) 0.37049(12)
H34_5 H 0.5488 0.8961 0.3778
C34_5 C 0.4862(6) 0.6618(4) 0.41076(18)
H35_5 H 0.4536 0.6131 0.4038
C35_5 C 0.5181(6) 0.6690(4) 0.44020(19)
H36_5 H 0.5500 0.7171 0.4484
C36_5 C 0.5087(6) 0.6047(5) 0.4637(2)
N4_5 N 0.5870(3) 0.9222(2) 0.28802(11)
O9_2 O 0.5472(4) 0.6229(3) 0.49067(13)
O10_5 O 0.4632(4) 0.5391(3) 0.45181(12)
C37_5 C 0.5943(5) 0.8639(4) 0.23187(11)
H37_5 H 0.5540 0.8160 0.2240
H38_5 H 0.6403 0.8668 0.2240
C38_5 C 0.6457(4) 0.9609(2) 0.18555(19)
H39_5 H 0.6816 0.9445 0.1888
H40_5 H 0.6240 0.9445 0.1617
C39_5 C 0.5141(3) 0.8854(2) 0.19217(10)
H41_5 H 0.5082 0.9235 0.1800
H42_5 H 0.4742 0.8617 0.2097
C40_5 C 0.5056(4) 0.8281(2) 0.16474(10)
C41_5 C 0.4734(4) 0.7534(3) 0.17499(13)
H43_5 H 0.4569 0.7393 0.1986
C42_5 C 0.4660(4) 0.7003(3) 0.14992(17)
H44_5 H 0.4424 0.6505 0.1567
C43_5 C 0.4930(4) 0.7202(3) 0.11486(15)
C44_5 C 0.5237(5) 0.7944(3) 0.10473(15)
H45_5 H 0.5409 0.8089 0.0812
C45_5 C 0.5290(4) 0.8469(3) 0.12951(12)
H46_5 H 0.5488 0.8961 0.1222
C46_5 C 0.4862(6) 0.6618(4) 0.08924(18)
H47_5 H 0.4536 0.6131 0.0962
C47_5 C 0.5181(6) 0.6690(4) 0.05980(19)
H48_5 H 0.5500 0.7171 0.0516
C48_5 C 0.5087(6) 0.6047(5) 0.0363(2)
N5_5 N 0.5870(3) 0.9222(2) 0.21198(11)
O11_5 O 0.5472(4) 0.6229(3) 0.00933(13)
O12_2 O 0.4632(4) 0.5391(3) 0.04819(12)
Cu3_3 Cu 0.54870(5) 0.54870(5) 0.52221(2)
O13_7 O 0.6357(4) 0.6357(4) 0.5604(2)
Cu5_3 Cu 0.45130(5) 0.45130(5) 0.02221(2)
Cu9_3 Cu 0.45130(5) 0.45130(5) 0.47779(2)
O14_2 O 0.6229(3) 0.5472(4) 0.49067(13)
O17_2 O 0.5368(4) 0.4609(3) 0.54819(12)
O19_2 O 0.4609(3) 0.5368(4) 0.54819(12)
Cu6_3 Cu 0.54870(5) 0.54870(5) 0.97779(2)
O13_8 O 0.3643(4) 0.3643(4) 0.0604(2)
O19_3 O 0.5391(3) 0.4632(4) 0.04819(12)
Cu1_8 Cu 0.40182(4) 0.0000 0.7500
Cl1_8 Cl 0.51758(11) 0.0000 0.7500
C25_6 C 0.4057(5) 0.1361(4) 0.76813(11)
H25_6 H 0.4460 0.1840 0.7760
H26_6 H 0.3597 0.1332 0.7760
C26_6 C 0.3543(4) 0.0391(2) 0.81445(19)
H27_6 H 0.3184 0.0555 0.8112
H28_6 H 0.3760 0.0555 0.8383
C27_6 C 0.4859(3) 0.1146(2) 0.80783(10)
H29_6 H 0.4918 0.0765 0.8200
H30_6 H 0.5258 0.1383 0.7903
C28_6 C 0.4944(4) 0.1719(2) 0.83526(10)
C29_6 C 0.5266(4) 0.2466(3) 0.82501(13)
H31_6 H 0.5431 0.2607 0.8014
C30_6 C 0.5340(4) 0.2997(3) 0.85008(17)
H32_6 H 0.5576 0.3495 0.8433
C31_6 C 0.5070(4) 0.2798(3) 0.88514(15)
C32_6 C 0.4763(5) 0.2056(3) 0.89527(15)
H33_6 H 0.4591 0.1911 0.9188
C33_6 C 0.4710(4) 0.1531(3) 0.87049(12)
H34_6 H 0.4512 0.1039 0.8778
C34_6 C 0.5138(6) 0.3382(4) 0.91076(18)
H35_6 H 0.5464 0.3869 0.9038
C35_6 C 0.4819(6) 0.3310(4) 0.94020(19)
H36_6 H 0.4500 0.2829 0.9484
C36_6 C 0.4913(6) 0.3953(5) 0.9637(2)
N4_6 N 0.4130(3) 0.0778(2) 0.78802(11)
O9_3 O 0.4528(4) 0.3771(3) 0.99067(13)
O10_6 O 0.5368(4) 0.4609(3) 0.95181(12)
C37_6 C 0.4057(5) 0.1361(4) 0.73187(11)
H37_6 H 0.4460 0.1840 0.7240
H38_6 H 0.3597 0.1332 0.7240
C38_6 C 0.3543(4) 0.0391(2) 0.68555(19)
H39_6 H 0.3184 0.0555 0.6888
H40_6 H 0.3760 0.0555 0.6617
C39_6 C 0.4859(3) 0.1146(2) 0.69217(10)
H41_6 H 0.4918 0.0765 0.6800
H42_6 H 0.5258 0.1383 0.7097
C40_6 C 0.4944(4) 0.1719(2) 0.66474(10)
C41_6 C 0.5266(4) 0.2466(3) 0.67499(13)
H43_6 H 0.5431 0.2607 0.6986
C42_6 C 0.5340(4) 0.2997(3) 0.64992(17)
H44_6 H 0.5576 0.3495 0.6567
C43_6 C 0.5070(4) 0.2798(3) 0.61486(15)
C44_6 C 0.4763(5) 0.2056(3) 0.60473(15)
H45_6 H 0.4591 0.1911 0.5812
C45_6 C 0.4710(4) 0.1531(3) 0.62951(12)
H46_6 H 0.4512 0.1039 0.6222
C46_6 C 0.5138(6) 0.3382(4) 0.58924(18)
H47_6 H 0.5464 0.3869 0.5962
C47_6 C 0.4819(6) 0.3310(4) 0.55980(19)
H48_6 H 0.4500 0.2829 0.5516
C48_6 C 0.4913(6) 0.3953(5) 0.5363(2)
N5_6 N 0.4130(3) 0.0778(2) 0.71198(11)
O11_6 O 0.4528(4) 0.3771(3) 0.50933(13)
O14_3 O 0.3771(3) 0.4528(4) 0.99067(13)
Cu1_9 Cu 1.0000 0.59818(4) 0.2500
Cl1_9 Cl 1.0000 0.48242(11) 0.2500
C1_5 C 0.8639(4) 0.5943(5) 0.26813(11)
H1_5 H 0.8160 0.5540 0.2760
H2_5 H 0.8668 0.6403 0.2760
C2_5 C 0.9609(2) 0.6457(4) 0.31445(19)
H3_5 H 0.9445 0.6816 0.3112
H4_5 H 0.9445 0.6240 0.3383
C3_5 C 0.8854(2) 0.5141(3) 0.30783(10)
H5_5 H 0.9235 0.5082 0.3200
H6_5 H 0.8617 0.4742 0.2903
C4_5 C 0.8281(2) 0.5056(4) 0.33526(10)
C5_5 C 0.7534(3) 0.4734(4) 0.32501(13)
H7_5 H 0.7393 0.4569 0.3014
C6_5 C 0.7003(3) 0.4660(4) 0.35008(17)
H8_5 H 0.6505 0.4424 0.3433
C7_5 C 0.7202(3) 0.4930(4) 0.38514(15)
C8_5 C 0.7944(3) 0.5237(5) 0.39527(15)
H9_5 H 0.8089 0.5409 0.4188
C9_5 C 0.8469(3) 0.5290(4) 0.37049(12)
H10_5 H 0.8961 0.5488 0.3778
C10_5 C 0.6618(4) 0.4862(6) 0.41076(18)
H11_5 H 0.6131 0.4536 0.4038
C11_5 C 0.6690(4) 0.5181(6) 0.44020(19)
H12_5 H 0.7171 0.5500 0.4484
C12_5 C 0.6047(5) 0.5087(6) 0.4637(2)
N2_5 N 0.9222(2) 0.5870(3) 0.28802(11)
O5_5 O 0.5391(3) 0.4632(4) 0.45181(12)
C13_5 C 0.8639(4) 0.5943(5) 0.23187(11)
H13_5 H 0.8160 0.5540 0.2240
H14_5 H 0.8668 0.6403 0.2240
C14_5 C 0.9609(2) 0.6457(4) 0.18555(19)
H15_5 H 0.9445 0.6816 0.1888
H16_5 H 0.9445 0.6240 0.1617
C15_5 C 0.8854(2) 0.5141(3) 0.19217(10)
H17_5 H 0.9235 0.5082 0.1800
H18_5 H 0.8617 0.4742 0.2097
C16_5 C 0.8281(2) 0.5056(4) 0.16474(10)
C17_5 C 0.7534(3) 0.4734(4) 0.17499(13)
H19_5 H 0.7393 0.4569 0.1986
C18_5 C 0.7003(3) 0.4660(4) 0.14992(17)
H20_5 H 0.6505 0.4424 0.1567
C19_5 C 0.7202(3) 0.4930(4) 0.11486(15)
C20_5 C 0.7944(3) 0.5237(5) 0.10473(15)
H21_5 H 0.8089 0.5409 0.0812
C21_5 C 0.8469(3) 0.5290(4) 0.12951(12)
H22_5 H 0.8961 0.5488 0.1222
C22_5 C 0.6618(4) 0.4862(6) 0.08924(18)
H23_5 H 0.6131 0.4536 0.0962
C23_5 C 0.6690(4) 0.5181(6) 0.05980(19)
H24_5 H 0.7171 0.5500 0.0516
C24_5 C 0.6047(5) 0.5087(6) 0.0363(2)
N3_5 N 0.9222(2) 0.5870(3) 0.21198(11)
O7_5 O 0.6229(3) 0.5472(4) 0.00933(13)
Cu1_10 Cu 0.0000 0.40182(4) 0.7500
Cl1_10 Cl 0.0000 0.51758(11) 0.7500
C1_6 C 0.1361(4) 0.4057(5) 0.76813(11)
H1_6 H 0.1840 0.4460 0.7760
H2_6 H 0.1332 0.3597 0.7760
C2_6 C 0.0391(2) 0.3543(4) 0.81445(19)
H3_6 H 0.0555 0.3184 0.8112
H4_6 H 0.0555 0.3760 0.8383
C3_6 C 0.1146(2) 0.4859(3) 0.80783(10)
H5_6 H 0.0765 0.4918 0.8200
H6_6 H 0.1383 0.5258 0.7903
C4_6 C 0.1719(2) 0.4944(4) 0.83526(10)
C5_6 C 0.2466(3) 0.5266(4) 0.82501(13)
H7_6 H 0.2607 0.5431 0.8014
C6_6 C 0.2997(3) 0.5340(4) 0.85008(17)
H8_6 H 0.3495 0.5576 0.8433
C7_6 C 0.2798(3) 0.5070(4) 0.88514(15)
C8_6 C 0.2056(3) 0.4763(5) 0.89527(15)
H9_6 H 0.1911 0.4591 0.9188
C9_6 C 0.1531(3) 0.4710(4) 0.87049(12)
H10_6 H 0.1039 0.4512 0.8778
C10_6 C 0.3382(4) 0.5138(6) 0.91076(18)
H11_6 H 0.3869 0.5464 0.9038
C11_6 C 0.3310(4) 0.4819(6) 0.94020(19)
H12_6 H 0.2829 0.4500 0.9484
C12_6 C 0.3953(5) 0.4913(6) 0.9637(2)
N2_6 N 0.0778(2) 0.4130(3) 0.78802(11)
O5_6 O 0.4609(3) 0.5368(4) 0.95181(12)
C13_6 C 0.1361(4) 0.4057(5) 0.73187(11)
H13_6 H 0.1840 0.4460 0.7240
H14_6 H 0.1332 0.3597 0.7240
C14_6 C 0.0391(2) 0.3543(4) 0.68555(19)
H15_6 H 0.0555 0.3184 0.6888
H16_6 H 0.0555 0.3760 0.6617
C15_6 C 0.1146(2) 0.4859(3) 0.69217(10)
H17_6 H 0.0765 0.4918 0.6800
H18_6 H 0.1383 0.5258 0.7097
C16_6 C 0.1719(2) 0.4944(4) 0.66474(10)
C17_6 C 0.2466(3) 0.5266(4) 0.67499(13)
H19_6 H 0.2607 0.5431 0.6986
C18_6 C 0.2997(3) 0.5340(4) 0.64992(17)
H20_6 H 0.3495 0.5576 0.6567
C19_6 C 0.2798(3) 0.5070(4) 0.61486(15)
C20_6 C 0.2056(3) 0.4763(5) 0.60473(15)
H21_6 H 0.1911 0.4591 0.5812
C21_6 C 0.1531(3) 0.4710(4) 0.62951(12)
H22_6 H 0.1039 0.4512 0.6222
C22_6 C 0.3382(4) 0.5138(6) 0.58924(18)
H23_6 H 0.3869 0.5464 0.5962
C23_6 C 0.3310(4) 0.4819(6) 0.55980(19)
H24_6 H 0.2829 0.4500 0.5516
C24_6 C 0.3953(5) 0.4913(6) 0.5363(2)
N3_6 N 0.0778(2) 0.4130(3) 0.71198(11)
O7_6 O 0.3771(3) 0.4528(4) 0.50933(13)
O6_11 O 0.6357(4) 0.6357(4) 0.9396(2)
O13_9 O 0.3643(4) 0.3643(4) 0.4396(2)
loop_
_geom_bond_atom_site_label_1
_geom_bond_atom_site_label_2
_geom_bond_site_symmetry_1
_geom_bond_site_symmetry_2
N1 O1 1_555 1_555
O2 N1 1_555 1_555
O3 N1 1_555 1_555
N1_2 O1_2 1_555 1_555
O2_2 N1_2 1_555 1_555
O3_2 N1_2 1_555 1_555
N1_3 O1_3 1_555 1_555
O2_3 N1_3 1_555 1_555
O3_3 N1_3 1_555 1_555
N1_4 O1_4 1_555 1_555
O2_4 N1_4 1_555 1_555
O3_4 N1_4 1_555 1_555
O6 Cu2 1_555 1_555
Cu8 Cu2 1_555 1_555
O15 Cu2 1_555 1_555
O18 Cu2 1_555 1_555
O6_2 Cu4 1_555 1_555
O16 Cu4 1_555 1_555
Cu1 Cl1 1_555 1_555
C1 H1 1_555 1_555
H2 C1 1_555 1_555
C2 H3 1_555 1_555
H4 C2 1_555 1_555
C3 H5 1_555 1_555
H6 C3 1_555 1_555
C4 C3 1_555 1_555
C5 C4 1_555 1_555
H7 C5 1_555 1_555
C6 C5 1_555 1_555
H8 C6 1_555 1_555
C7 C6 1_555 1_555
C8 C7 1_555 1_555
H9 C8 1_555 1_555
C9 C4 1_555 1_555
H10 C9 1_555 1_555
C10 C7 1_555 1_555
H11 C10 1_555 1_555
C11 C10 1_555 1_555
H12 C11 1_555 1_555
C12 C11 1_555 1_555
N2 Cu1 1_555 1_555
O4 C12 1_555 1_555
O5 C12 1_555 1_555
C13 C1 1_555 1_555
H13 C13 1_555 1_555
H14 C13 1_555 1_555
C14 H15 1_555 1_555
H16 C14 1_555 1_555
C15 H17 1_555 1_555
H18 C15 1_555 1_555
C16 C15 1_555 1_555
C17 C16 1_555 1_555
H19 C17 1_555 1_555
C18 C17 1_555 1_555
H20 C18 1_555 1_555
C19 C18 1_555 1_555
C20 C19 1_555 1_555
H21 C20 1_555 1_555
C21 C16 1_555 1_555
H22 C21 1_555 1_555
C22 C19 1_555 1_555
H23 C22 1_555 1_555
C23 C22 1_555 1_555
H24 C23 1_555 1_555
C24 C23 1_555 1_555
N3 Cu1 1_555 1_555
O7 C24 1_555 1_555
O18 C24 1_555 1_555
Cu8 O7 1_555 1_555
C1 N2 1_555 1_555
C2 N2 1_555 1_555
C3 N2 1_555 1_555
C8 C9 1_555 1_555
O5 Cu7 1_555 1_555
C13 N3 1_555 1_555
C14 N3 1_555 1_555
C15 N3 1_555 1_555
C20 C21 1_555 1_555
O13 Cu3 1_555 1_555
O14 Cu3 1_555 1_555
O17 Cu3 1_555 1_555
Cu3 Cu9 1_555 1_555
Cu1_2 Cl1_2 1_555 1_555
C1_2 H1_2 1_555 1_555
H2_2 C1_2 1_555 1_555
C2_2 H3_2 1_555 1_555
H4_2 C2_2 1_555 1_555
C3_2 H5_2 1_555 1_555
H6_2 C3_2 1_555 1_555
C4_2 C3_2 1_555 1_555
C5_2 C4_2 1_555 1_555
H7_2 C5_2 1_555 1_555
C6_2 C5_2 1_555 1_555
H8_2 C6_2 1_555 1_555
C7_2 C6_2 1_555 1_555
C8_2 C7_2 1_555 1_555
H9_2 C8_2 1_555 1_555
C9_2 C4_2 1_555 1_555
H10_2 C9_2 1_555 1_555
C10_2 C7_2 1_555 1_555
H11_2 C10_2 1_555 1_555
C11_2 C10_2 1_555 1_555
H12_2 C11_2 1_555 1_555
C12_2 C11_2 1_555 1_555
N2_2 Cu1_2 1_555 1_555
O14 C12_2 1_555 1_555
O5_2 C12_2 1_555 1_555
C13_2 C1_2 1_555 1_555
H13_2 C13_2 1_555 1_555
H14_2 C13_2 1_555 1_555
C14_2 H15_2 1_555 1_555
H16_2 C14_2 1_555 1_555
C15_2 H17_2 1_555 1_555
H18_2 C15_2 1_555 1_555
C16_2 C15_2 1_555 1_555
C17_2 C16_2 1_555 1_555
H19_2 C17_2 1_555 1_555
C18_2 C17_2 1_555 1_555
H20_2 C18_2 1_555 1_555
C19_2 C18_2 1_555 1_555
C20_2 C19_2 1_555 1_555
H21_2 C20_2 1_555 1_555
C21_2 C16_2 1_555 1_555
H22_2 C21_2 1_555 1_555
C22_2 C19_2 1_555 1_555
H23_2 C22_2 1_555 1_555
C23_2 C22_2 1_555 1_555
H24_2 C23_2 1_555 1_555
C24_2 C23_2 1_555 1_555
N3_2 Cu1_2 1_555 1_555
O7_2 C24_2 1_555 1_555
O8 C24_2 1_555 1_555
C25 H25 1_555 1_555
H26 C25 1_555 1_555
C26 C2_2 1_555 1_555
H27 C26 1_555 1_555
H28 C26 1_555 1_555
C27 H29 1_555 1_555
H30 C27 1_555 1_555
C28 C27 1_555 1_555
C29 C28 1_555 1_555
H31 C29 1_555 1_555
C30 C29 1_555 1_555
H32 C30 1_555 1_555
C31 C30 1_555 1_555
C32 C31 1_555 1_555
H33 C32 1_555 1_555
C33 C28 1_555 1_555
H34 C33 1_555 1_555
C34 C31 1_555 1_555
H35 C34 1_555 1_555
C35 C34 1_555 1_555
H36 C35 1_555 1_555
C36 C35 1_555 1_555
N4 Cu1_2 1_555 1_555
O15 C36 1_555 1_555
O10 C36 1_555 1_555
C37 C25 1_555 1_555
H37 C37 1_555 1_555
H38 C37 1_555 1_555
C38 C14_2 1_555 1_555
H39 C38 1_555 1_555
H40 C38 1_555 1_555
C39 H41 1_555 1_555
H42 C39 1_555 1_555
C40 C39 1_555 1_555
C41 C40 1_555 1_555
H43 C41 1_555 1_555
C42 C41 1_555 1_555
H44 C42 1_555 1_555
C43 C42 1_555 1_555
C44 C43 1_555 1_555
H45 C44 1_555 1_555
C45 C40 1_555 1_555
H46 C45 1_555 1_555
C46 C43 1_555 1_555
H47 C46 1_555 1_555
C47 C46 1_555 1_555
H48 C47 1_555 1_555
C48 C47 1_555 1_555
N5 Cu1_2 1_555 1_555
O11 C48 1_555 1_555
O16 C48 1_555 1_555
Cu5 O8 1_555 1_555
Cu8 O10 1_555 1_555
C1_2 N2_2 1_555 1_555
C2_2 N2_2 1_555 1_555
C3_2 N2_2 1_555 1_555
C8_2 C9_2 1_555 1_555
O5_2 Cu9 1_555 1_555
C13_2 N3_2 1_555 1_555
C14_2 N3_2 1_555 1_555
C15_2 N3_2 1_555 1_555
C20_2 C21_2 1_555 1_555
C25 N4 1_555 1_555
C26 N4 1_555 1_555
C27 N4 1_555 1_555
C32 C33 1_555 1_555
C37 N5 1_555 1_555
C38 N5 1_555 1_555
C39 N5 1_555 1_555
C44 C45 1_555 1_555
O6_3 Cu5 1_555 1_555
Cu1_3 Cl1_3 1_555 1_555
C25_2 H25_2 1_555 1_555
H26_2 C25_2 1_555 1_555
H27_2 C26_2 1_555 1_555
H28_2 C26_2 1_555 1_555
C27_2 H29_2 1_555 1_555
H30_2 C27_2 1_555 1_555
C28_2 C27_2 1_555 1_555
C29_2 C28_2 1_555 1_555
H31_2 C29_2 1_555 1_555
C30_2 C29_2 1_555 1_555
H32_2 C30_2 1_555 1_555
C31_2 C30_2 1_555 1_555
C32_2 C31_2 1_555 1_555
H33_2 C32_2 1_555 1_555
C33_2 C28_2 1_555 1_555
H34_2 C33_2 1_555 1_555
C34_2 C31_2 1_555 1_555
H35_2 C34_2 1_555 1_555
C35_2 C34_2 1_555 1_555
H36_2 C35_2 1_555 1_555
C36_2 C35_2 1_555 1_555
N4_2 Cu1_3 1_555 1_555
O15_2 C36_2 1_555 1_555
O10_2 C36_2 1_555 1_555
C37_2 C25_2 1_555 1_555
H37_2 C37_2 1_555 1_555
H38_2 C37_2 1_555 1_555
H39_2 C38_2 1_555 1_555
H40_2 C38_2 1_555 1_555
C39_2 H41_2 1_555 1_555
H42_2 C39_2 1_555 1_555
C40_2 C39_2 1_555 1_555
C41_2 C40_2 1_555 1_555
H43_2 C41_2 1_555 1_555
C42_2 C41_2 1_555 1_555
H44_2 C42_2 1_555 1_555
C43_2 C42_2 1_555 1_555
C44_2 C43_2 1_555 1_555
H45_2 C44_2 1_555 1_555
C45_2 C40_2 1_555 1_555
H46_2 C45_2 1_555 1_555
C46_2 C43_2 1_555 1_555
H47_2 C46_2 1_555 1_555
C47_2 C46_2 1_555 1_555
H48_2 C47_2 1_555 1_555
C48_2 C47_2 1_555 1_555
N5_2 Cu1_3 1_555 1_555
O11_2 C48_2 1_555 1_555
O17 C48_2 1_555 1_555
Cu9 O11_2 1_555 1_555
Cu6 O10_2 1_555 1_555
C25_2 N4_2 1_555 1_555
C26_2 N4_2 1_555 1_555
C27_2 N4_2 1_555 1_555
C32_2 C33_2 1_555 1_555
C37_2 N5_2 1_555 1_555
C38_2 N5_2 1_555 1_555
C39_2 N5_2 1_555 1_555
C44_2 C45_2 1_555 1_555
O13_2 Cu7 1_555 1_555
O13_3 Cu6 1_555 1_555
O6_4 Cu9 1_555 1_555
O6_5 Cu8 1_555 1_555
Cu1_4 Cl1_4 1_555 1_555
Cu2_2 O4_2 1_555 1_555
C1_3 H1_3 1_555 1_555
H2_3 C1_3 1_555 1_555
C2_3 H3_3 1_555 1_555
H4_3 C2_3 1_555 1_555
C3_3 H5_3 1_555 1_555
H6_3 C3_3 1_555 1_555
C4_3 C3_3 1_555 1_555
C5_3 C4_3 1_555 1_555
H7_3 C5_3 1_555 1_555
C6_3 C5_3 1_555 1_555
H8_3 C6_3 1_555 1_555
C7_3 C6_3 1_555 1_555
C8_3 C7_3 1_555 1_555
H9_3 C8_3 1_555 1_555
C9_3 C4_3 1_555 1_555
H10_3 C9_3 1_555 1_555
C10_3 C7_3 1_555 1_555
H11_3 C10_3 1_555 1_555
C11_3 C10_3 1_555 1_555
H12_3 C11_3 1_555 1_555
C12_3 C11_3 1_555 1_555
N2_3 Cu1_4 1_555 1_555
O4_2 C12_3 1_555 1_555
O5_3 C12_3 1_555 1_555
O6_6 Cu2_2 1_555 1_555
C13_3 C1_3 1_555 1_555
H13_3 C13_3 1_555 1_555
H14_3 C13_3 1_555 1_555
C14_3 H15_3 1_555 1_555
H16_3 C14_3 1_555 1_555
C15_3 H17_3 1_555 1_555
H18_3 C15_3 1_555 1_555
C16_3 C15_3 1_555 1_555
C17_3 C16_3 1_555 1_555
H19_3 C17_3 1_555 1_555
C18_3 C17_3 1_555 1_555
H20_3 C18_3 1_555 1_555
C19_3 C18_3 1_555 1_555
C20_3 C19_3 1_555 1_555
H21_3 C20_3 1_555 1_555
C21_3 C16_3 1_555 1_555
H22_3 C21_3 1_555 1_555
C22_3 C19_3 1_555 1_555
H23_3 C22_3 1_555 1_555
C23_3 C22_3 1_555 1_555
H24_3 C23_3 1_555 1_555
C24_3 C23_3 1_555 1_555
N3_3 Cu1_4 1_555 1_555
O7_3 C24_3 1_555 1_555
O8_2 C24_3 1_555 1_555
Cu4_2 O8_2 1_555 1_555
Cu8_2 Cu2_2 1_555 1_555
O16_2 Cu2_2 1_555 1_555
C1_3 N2_3 1_555 1_555
C2_3 N2_3 1_555 1_555
C3_3 N2_3 1_555 1_555
C8_3 C9_3 1_555 1_555
O5_3 Cu8_2 1_555 1_555
C13_3 N3_3 1_555 1_555
C14_3 N3_3 1_555 1_555
C15_3 N3_3 1_555 1_555
C20_3 C21_3 1_555 1_555
O6_7 Cu4_2 1_555 1_555
Cu1_5 Cl1_5 1_555 1_555
C25_3 H25_3 1_555 1_555
H26_3 C25_3 1_555 1_555
H27_3 C26_3 1_555 1_555
H28_3 C26_3 1_555 1_555
C27_3 H29_3 1_555 1_555
H30_3 C27_3 1_555 1_555
C28_3 C27_3 1_555 1_555
C29_3 C28_3 1_555 1_555
H31_3 C29_3 1_555 1_555
C30_3 C29_3 1_555 1_555
H32_3 C30_3 1_555 1_555
C31_3 C30_3 1_555 1_555
C32_3 C31_3 1_555 1_555
H33_3 C32_3 1_555 1_555
C33_3 C28_3 1_555 1_555
H34_3 C33_3 1_555 1_555
C34_3 C31_3 1_555 1_555
H35_3 C34_3 1_555 1_555
C35_3 C34_3 1_555 1_555
H36_3 C35_3 1_555 1_555
C36_3 C35_3 1_555 1_555
N4_3 Cu1_5 1_555 1_555
O9 C36_3 1_555 1_555
O10_3 C36_3 1_555 1_555
C37_3 C25_3 1_555 1_555
H37_3 C37_3 1_555 1_555
H38_3 C37_3 1_555 1_555
H39_3 C38_3 1_555 1_555
H40_3 C38_3 1_555 1_555
C39_3 H41_3 1_555 1_555
H42_3 C39_3 1_555 1_555
C40_3 C39_3 1_555 1_555
C41_3 C40_3 1_555 1_555
H43_3 C41_3 1_555 1_555
C42_3 C41_3 1_555 1_555
H44_3 C42_3 1_555 1_555
C43_3 C42_3 1_555 1_555
C44_3 C43_3 1_555 1_555
H45_3 C44_3 1_555 1_555
C45_3 C40_3 1_555 1_555
H46_3 C45_3 1_555 1_555
C46_3 C43_3 1_555 1_555
H47_3 C46_3 1_555 1_555
C47_3 C46_3 1_555 1_555
H48_3 C47_3 1_555 1_555
C48_3 C47_3 1_555 1_555
N5_3 Cu1_5 1_555 1_555
O11_3 C48_3 1_555 1_555
O12 C48_3 1_555 1_555
Cu3_2 O9 1_555 1_555
O13_4 Cu3_2 1_555 1_555
Cu5_2 O12 1_555 1_555
Cu9_2 O10_3 1_555 1_555
O19 Cu3_2 1_555 1_555
C25_3 N4_3 1_555 1_555
C26_3 N4_3 1_555 1_555
C27_3 N4_3 1_555 1_555
C32_3 C33_3 1_555 1_555
C37_3 N5_3 1_555 1_555
C38_3 N5_3 1_555 1_555
C39_3 N5_3 1_555 1_555
C44_3 C45_3 1_555 1_555
Cu3_2 Cu9_2 1_555 1_555
O6_8 Cu5_2 1_555 1_555
Cu1_6 Cl1_6 1_555 1_555
C1_4 H1_4 1_555 1_555
H2_4 C1_4 1_555 1_555
C2_4 H3_4 1_555 1_555
H4_4 C2_4 1_555 1_555
C3_4 H5_4 1_555 1_555
H6_4 C3_4 1_555 1_555
C4_4 C3_4 1_555 1_555
C5_4 C4_4 1_555 1_555
H7_4 C5_4 1_555 1_555
C6_4 C5_4 1_555 1_555
H8_4 C6_4 1_555 1_555
C7_4 C6_4 1_555 1_555
C8_4 C7_4 1_555 1_555
H9_4 C8_4 1_555 1_555
C9_4 C4_4 1_555 1_555
H10_4 C9_4 1_555 1_555
C10_4 C7_4 1_555 1_555
H11_4 C10_4 1_555 1_555
C11_4 C10_4 1_555 1_555
H12_4 C11_4 1_555 1_555
C12_4 C11_4 1_555 1_555
N2_4 Cu1_6 1_555 1_555
O4_3 C12_4 1_555 1_555
O5_4 C12_4 1_555 1_555
C13_4 C1_4 1_555 1_555
H13_4 C13_4 1_555 1_555
H14_4 C13_4 1_555 1_555
C14_4 H15_4 1_555 1_555
H16_4 C14_4 1_555 1_555
C15_4 H17_4 1_555 1_555
H18_4 C15_4 1_555 1_555
C16_4 C15_4 1_555 1_555
C17_4 C16_4 1_555 1_555
H19_4 C17_4 1_555 1_555
C18_4 C17_4 1_555 1_555
H20_4 C18_4 1_555 1_555
C19_4 C18_4 1_555 1_555
C20_4 C19_4 1_555 1_555
H21_4 C20_4 1_555 1_555
C21_4 C16_4 1_555 1_555
H22_4 C21_4 1_555 1_555
C22_4 C19_4 1_555 1_555
H23_4 C22_4 1_555 1_555
C23_4 C22_4 1_555 1_555
H24_4 C23_4 1_555 1_555
C24_4 C23_4 1_555 1_555
N3_4 Cu1_6 1_555 1_555
O7_4 C24_4 1_555 1_555
O19 C24_4 1_555 1_555
C25_4 H25_4 1_555 1_555
H26_4 C25_4 1_555 1_555
C26_4 C2_4 1_555 1_555
H27_4 C26_4 1_555 1_555
H28_4 C26_4 1_555 1_555
C27_4 H29_4 1_555 1_555
H30_4 C27_4 1_555 1_555
C28_4 C27_4 1_555 1_555
C29_4 C28_4 1_555 1_555
H31_4 C29_4 1_555 1_555
C30_4 C29_4 1_555 1_555
H32_4 C30_4 1_555 1_555
C31_4 C30_4 1_555 1_555
C32_4 C31_4 1_555 1_555
H33_4 C32_4 1_555 1_555
C33_4 C28_4 1_555 1_555
H34_4 C33_4 1_555 1_555
C34_4 C31_4 1_555 1_555
H35_4 C34_4 1_555 1_555
C35_4 C34_4 1_555 1_555
H36_4 C35_4 1_555 1_555
C36_4 C35_4 1_555 1_555
N4_4 Cu1_6 1_555 1_555
O15_3 C36_4 1_555 1_555
O10_4 C36_4 1_555 1_555
C37_4 C25_4 1_555 1_555
H37_4 C37_4 1_555 1_555
H38_4 C37_4 1_555 1_555
C38_4 C14_4 1_555 1_555
H39_4 C38_4 1_555 1_555
H40_4 C38_4 1_555 1_555
C39_4 H41_4 1_555 1_555
H42_4 C39_4 1_555 1_555
C40_4 C39_4 1_555 1_555
C41_4 C40_4 1_555 1_555
H43_4 C41_4 1_555 1_555
C42_4 C41_4 1_555 1_555
H44_4 C42_4 1_555 1_555
C43_4 C42_4 1_555 1_555
C44_4 C43_4 1_555 1_555
H45_4 C44_4 1_555 1_555
C45_4 C40_4 1_555 1_555
H46_4 C45_4 1_555 1_555
C46_4 C43_4 1_555 1_555
H47_4 C46_4 1_555 1_555
C47_4 C46_4 1_555 1_555
H48_4 C47_4 1_555 1_555
C48_4 C47_4 1_555 1_555
N5_4 Cu1_6 1_555 1_555
O11_4 C48_4 1_555 1_555
O16_2 C48_4 1_555 1_555
Cu8_2 O11_4 1_555 1_555
Cu9_2 O7_4 1_555 1_555
Cu7_2 O10_4 1_555 1_555
C1_4 N2_4 1_555 1_555
C2_4 N2_4 1_555 1_555
C3_4 N2_4 1_555 1_555
C8_4 C9_4 1_555 1_555
O5_4 Cu6_2 1_555 1_555
C13_4 N3_4 1_555 1_555
C14_4 N3_4 1_555 1_555
C15_4 N3_4 1_555 1_555
C20_4 C21_4 1_555 1_555
C25_4 N4_4 1_555 1_555
C26_4 N4_4 1_555 1_555
C27_4 N4_4 1_555 1_555
C32_4 C33_4 1_555 1_555
C37_4 N5_4 1_555 1_555
C38_4 N5_4 1_555 1_555
C39_4 N5_4 1_555 1_555
C44_4 C45_4 1_555 1_555
O13_5 Cu7_2 1_555 1_555
O13_6 Cu6_2 1_555 1_555
O6_9 Cu9_2 1_555 1_555
O6_10 Cu8_2 1_555 1_555
Cu1_7 Cl1_7 1_555 1_555
C25_5 H25_5 1_555 1_555
H26_5 C25_5 1_555 1_555
H27_5 C26_5 1_555 1_555
H28_5 C26_5 1_555 1_555
C27_5 H29_5 1_555 1_555
H30_5 C27_5 1_555 1_555
C28_5 C27_5 1_555 1_555
C29_5 C28_5 1_555 1_555
H31_5 C29_5 1_555 1_555
C30_5 C29_5 1_555 1_555
H32_5 C30_5 1_555 1_555
C31_5 C30_5 1_555 1_555
C32_5 C31_5 1_555 1_555
H33_5 C32_5 1_555 1_555
C33_5 C28_5 1_555 1_555
H34_5 C33_5 1_555 1_555
C34_5 C31_5 1_555 1_555
H35_5 C34_5 1_555 1_555
C35_5 C34_5 1_555 1_555
H36_5 C35_5 1_555 1_555
C36_5 C35_5 1_555 1_555
N4_5 Cu1_7 1_555 1_555
O9_2 C36_5 1_555 1_555
O10_5 C36_5 1_555 1_555
C37_5 C25_5 1_555 1_555
H37_5 C37_5 1_555 1_555
H38_5 C37_5 1_555 1_555
H39_5 C38_5 1_555 1_555
H40_5 C38_5 1_555 1_555
C39_5 H41_5 1_555 1_555
H42_5 C39_5 1_555 1_555
C40_5 C39_5 1_555 1_555
C41_5 C40_5 1_555 1_555
H43_5 C41_5 1_555 1_555
C42_5 C41_5 1_555 1_555
H44_5 C42_5 1_555 1_555
C43_5 C42_5 1_555 1_555
C44_5 C43_5 1_555 1_555
H45_5 C44_5 1_555 1_555
C45_5 C40_5 1_555 1_555
H46_5 C45_5 1_555 1_555
C46_5 C43_5 1_555 1_555
H47_5 C46_5 1_555 1_555
C47_5 C46_5 1_555 1_555
H48_5 C47_5 1_555 1_555
C48_5 C47_5 1_555 1_555
N5_5 Cu1_7 1_555 1_555
O11_5 C48_5 1_555 1_555
O12_2 C48_5 1_555 1_555
Cu3_3 O9_2 1_555 1_555
O13_7 Cu3_3 1_555 1_555
Cu5_3 O12_2 1_555 1_555
Cu9_3 O10_5 1_555 1_555
O14_2 Cu3_3 1_555 1_555
O17_2 Cu3_3 1_555 1_555
O19_2 Cu3_3 1_555 1_555
C25_5 N4_5 1_555 1_555
C26_5 N4_5 1_555 1_555
C27_5 N4_5 1_555 1_555
C32_5 C33_5 1_555 1_555
C37_5 N5_5 1_555 1_555
C38_5 N5_5 1_555 1_555
C39_5 N5_5 1_555 1_555
C44_5 C45_5 1_555 1_555
Cu3_3 Cu9_3 1_555 1_555
O13_8 Cu5_3 1_555 1_555
O19_3 Cu5_3 1_555 1_555
Cu1_8 Cl1_8 1_555 1_555
C25_6 H25_6 1_555 1_555
H26_6 C25_6 1_555 1_555
H27_6 C26_6 1_555 1_555
H28_6 C26_6 1_555 1_555
C27_6 H29_6 1_555 1_555
H30_6 C27_6 1_555 1_555
C28_6 C27_6 1_555 1_555
C29_6 C28_6 1_555 1_555
H31_6 C29_6 1_555 1_555
C30_6 C29_6 1_555 1_555
H32_6 C30_6 1_555 1_555
C31_6 C30_6 1_555 1_555
C32_6 C31_6 1_555 1_555
H33_6 C32_6 1_555 1_555
C33_6 C28_6 1_555 1_555
H34_6 C33_6 1_555 1_555
C34_6 C31_6 1_555 1_555
H35_6 C34_6 1_555 1_555
C35_6 C34_6 1_555 1_555
H36_6 C35_6 1_555 1_555
C36_6 C35_6 1_555 1_555
N4_6 Cu1_8 1_555 1_555
O9_3 C36_6 1_555 1_555
O10_6 C36_6 1_555 1_555
C37_6 C25_6 1_555 1_555
H37_6 C37_6 1_555 1_555
H38_6 C37_6 1_555 1_555
H39_6 C38_6 1_555 1_555
H40_6 C38_6 1_555 1_555
C39_6 H41_6 1_555 1_555
H42_6 C39_6 1_555 1_555
C40_6 C39_6 1_555 1_555
C41_6 C40_6 1_555 1_555
H43_6 C41_6 1_555 1_555
C42_6 C41_6 1_555 1_555
H44_6 C42_6 1_555 1_555
C43_6 C42_6 1_555 1_555
C44_6 C43_6 1_555 1_555
H45_6 C44_6 1_555 1_555
C45_6 C40_6 1_555 1_555
H46_6 C45_6 1_555 1_555
C46_6 C43_6 1_555 1_555
H47_6 C46_6 1_555 1_555
C47_6 C46_6 1_555 1_555
H48_6 C47_6 1_555 1_555
C48_6 C47_6 1_555 1_555
N5_6 Cu1_8 1_555 1_555
O11_6 C48_6 1_555 1_555
O17_2 C48_6 1_555 1_555
Cu9_3 O11_6 1_555 1_555
Cu6_3 O10_6 1_555 1_555
C25_6 N4_6 1_555 1_555
C26_6 N4_6 1_555 1_555
C27_6 N4_6 1_555 1_555
C32_6 C33_6 1_555 1_555
C37_6 N5_6 1_555 1_555
C38_6 N5_6 1_555 1_555
C39_6 N5_6 1_555 1_555
C44_6 C45_6 1_555 1_555
Cu1_9 Cl1_9 1_555 1_555
C1_5 H1_5 1_555 1_555
H2_5 C1_5 1_555 1_555
C2_5 H3_5 1_555 1_555
H4_5 C2_5 1_555 1_555
C3_5 H5_5 1_555 1_555
H6_5 C3_5 1_555 1_555
C4_5 C3_5 1_555 1_555
C5_5 C4_5 1_555 1_555
H7_5 C5_5 1_555 1_555
C6_5 C5_5 1_555 1_555
H8_5 C6_5 1_555 1_555
C7_5 C6_5 1_555 1_555
C8_5 C7_5 1_555 1_555
H9_5 C8_5 1_555 1_555
C9_5 C4_5 1_555 1_555
H10_5 C9_5 1_555 1_555
C10_5 C7_5 1_555 1_555
H11_5 C10_5 1_555 1_555
C11_5 C10_5 1_555 1_555
H12_5 C11_5 1_555 1_555
C12_5 C11_5 1_555 1_555
N2_5 Cu1_9 1_555 1_555
O14_2 C12_5 1_555 1_555
O5_5 C12_5 1_555 1_555
C13_5 C1_5 1_555 1_555
H13_5 C13_5 1_555 1_555
H14_5 C13_5 1_555 1_555
C14_5 H15_5 1_555 1_555
H16_5 C14_5 1_555 1_555
C15_5 H17_5 1_555 1_555
H18_5 C15_5 1_555 1_555
C16_5 C15_5 1_555 1_555
C17_5 C16_5 1_555 1_555
H19_5 C17_5 1_555 1_555
C18_5 C17_5 1_555 1_555
H20_5 C18_5 1_555 1_555
C19_5 C18_5 1_555 1_555
C20_5 C19_5 1_555 1_555
H21_5 C20_5 1_555 1_555
C21_5 C16_5 1_555 1_555
H22_5 C21_5 1_555 1_555
C22_5 C19_5 1_555 1_555
H23_5 C22_5 1_555 1_555
C23_5 C22_5 1_555 1_555
H24_5 C23_5 1_555 1_555
C24_5 C23_5 1_555 1_555
N3_5 Cu1_9 1_555 1_555
O7_5 C24_5 1_555 1_555
O19_3 C24_5 1_555 1_555
C1_5 N2_5 1_555 1_555
C2_5 N2_5 1_555 1_555
C3_5 N2_5 1_555 1_555
C8_5 C9_5 1_555 1_555
O5_5 Cu9_3 1_555 1_555
C13_5 N3_5 1_555 1_555
C14_5 N3_5 1_555 1_555
C15_5 N3_5 1_555 1_555
C20_5 C21_5 1_555 1_555
Cu1_10 Cl1_10 1_555 1_555
C1_6 H1_6 1_555 1_555
H2_6 C1_6 1_555 1_555
C2_6 H3_6 1_555 1_555
H4_6 C2_6 1_555 1_555
C3_6 H5_6 1_555 1_555
H6_6 C3_6 1_555 1_555
C4_6 C3_6 1_555 1_555
C5_6 C4_6 1_555 1_555
H7_6 C5_6 1_555 1_555
C6_6 C5_6 1_555 1_555
H8_6 C6_6 1_555 1_555
C7_6 C6_6 1_555 1_555
C8_6 C7_6 1_555 1_555
H9_6 C8_6 1_555 1_555
C9_6 C4_6 1_555 1_555
H10_6 C9_6 1_555 1_555
C10_6 C7_6 1_555 1_555
H11_6 C10_6 1_555 1_555
C11_6 C10_6 1_555 1_555
H12_6 C11_6 1_555 1_555
C12_6 C11_6 1_555 1_555
N2_6 Cu1_10 1_555 1_555
O14_3 C12_6 1_555 1_555
O5_6 C12_6 1_555 1_555
C13_6 C1_6 1_555 1_555
H13_6 C13_6 1_555 1_555
H14_6 C13_6 1_555 1_555
C14_6 H15_6 1_555 1_555
H16_6 C14_6 1_555 1_555
C15_6 H17_6 1_555 1_555
H18_6 C15_6 1_555 1_555
C16_6 C15_6 1_555 1_555
C17_6 C16_6 1_555 1_555
H19_6 C17_6 1_555 1_555
C18_6 C17_6 1_555 1_555
H20_6 C18_6 1_555 1_555
C19_6 C18_6 1_555 1_555
C20_6 C19_6 1_555 1_555
H21_6 C20_6 1_555 1_555
C21_6 C16_6 1_555 1_555
H22_6 C21_6 1_555 1_555
C22_6 C19_6 1_555 1_555
H23_6 C22_6 1_555 1_555
C23_6 C22_6 1_555 1_555
H24_6 C23_6 1_555 1_555
C24_6 C23_6 1_555 1_555
N3_6 Cu1_10 1_555 1_555
O7_6 C24_6 1_555 1_555
O19_2 C24_6 1_555 1_555
Cu9_3 O7_6 1_555 1_555
C1_6 N2_6 1_555 1_555
C2_6 N2_6 1_555 1_555
C3_6 N2_6 1_555 1_555
C8_6 C9_6 1_555 1_555
O5_6 Cu6_3 1_555 1_555
C13_6 N3_6 1_555 1_555
C14_6 N3_6 1_555 1_555
C15_6 N3_6 1_555 1_555
C20_6 C21_6 1_555 1_555
O6_11 Cu6_3 1_555 1_555
O13_9 Cu9_3 1_555 1_555

#END
