
###############################################################################
#
# This file contains modified crystal structure data generated from the
# MOF subset of the Cambridge Structural Database (CSD) v543 
# hosted by the Cambridge Crystallographic Data Centre (CCDC).
#
# This work is licensed under the Creative Commons
# Attribution-NonCommercial-ShareAlike 4.0 International License.
# To view a copy of this license, visit
# http://creativecommons.org/licenses/by-nc-sa/4.0/
# or send a letter to
# Creative Commons, PO Box 1866, Mountain View, CA 94042, USA.
#
# CIF created using the CSD Python API on 29 September 2022
# The structure has been converted into the P1 space group
# The structure has a 3D framework
# The original CSD entry XIMJUB is in the hexagonal crystal system
# The framework has been calculated to contain at least 10.0% void space
# The void calculation uses a probe of radius 1.32A, grid spacing 0.4
# The framework is charged, counterions have been retained in the structure
# H atom positions have been added when not included in the experimental data
# Generated hydrogen atom positions removed from atoms on special positions
#
###############################################################################

data_XIMJUB
_chemical_formula_moiety         '(C288 H408 Cu30 N28 O90 25+)n'
_symmetry_cell_setting           triclinic
_symmetry_space_group_name_H-M   'P 1'
_symmetry_Int_Tables_number      1
_space_group_name_Hall           'P 1'
loop_
_symmetry_equiv_pos_site_id
_symmetry_equiv_pos_as_xyz
1 x,y,z
_cell_length_a                   20.7844(6)
_cell_length_b                   20.7844(6)
_cell_length_c                   36.9510(16)
_cell_angle_alpha                90
_cell_angle_beta                 90
_cell_angle_gamma                120
_cell_volume                     13823.9
loop_
_atom_site_label
_atom_site_type_symbol
_atom_site_fract_x
_atom_site_fract_y
_atom_site_fract_z
N1 N 0.3333 0.6667 0.7500
O1 O 0.3684(3) 0.7357(3) 0.7500
O2 O 0.2643(3) 0.6327(4) 0.7500
O3 O 0.3673(4) 0.6316(3) 0.7500
N1_2 N 0.6666 0.3333 0.2500
O1_2 O 0.6327(4) 0.3684(3) 0.2500
O2_2 O 0.6316(5) 0.2643(3) 0.2500
O3_2 O 0.7357(5) 0.3673(4) 0.2500
N1_3 N 0.3333 0.6667 0.2500
O1_3 O 0.2643(3) 0.6316(3) 0.2500
O2_3 O 0.3673(4) 0.7357(3) 0.2500
O3_3 O 0.3684(3) 0.6327(4) 0.2500
N1_4 N 0.6666 0.3333 0.7500
O1_4 O 0.6327(4) 0.2643(3) 0.7500
O2_4 O 0.6316(5) 0.3673(4) 0.7500
O3_4 O 0.7357(5) 0.3684(3) 0.7500
Cu6 Cu 0.45185(4) 0.45185(4) 0.02269(2)
Cu1 Cu 0.39865(5) -0.0000 0.7500
O5 O 0.5061(3) -0.0000 0.7500
N4 N 0.4124(3) 0.0777(2) 0.71203(10)
C25 C 0.4855(3) 0.1151(2) 0.69306(10)
H25 H 0.5246 0.1385 0.7110
H26 H 0.4922 0.0776 0.6808
C26 C 0.4945(3) 0.1733(2) 0.66566(10)
C27 C 0.5265(4) 0.2475(2) 0.67559(12)
H27 H 0.5428 0.2612 0.6993
C28 C 0.5348(4) 0.3008(3) 0.65150(14)
H28 H 0.5578 0.3502 0.6588
C29 C 0.5092(4) 0.2823(3) 0.61643(14)
C30 C 0.4798(5) 0.2081(3) 0.60571(13)
H29 H 0.4647 0.1945 0.5819
C31 C 0.4733(4) 0.1559(3) 0.63001(11)
H30 H 0.4540 0.1071 0.6223
C32 C 0.5167(4) 0.3412(3) 0.59116(15)
H31 H 0.5473 0.3901 0.5985
C33 C 0.4918(5) 0.3948(4) 0.53712(16)
C34 C 0.4848(5) 0.3312(3) 0.55985(16)
H32 H 0.4565 0.2830 0.5511
O10 O 0.4535(3) 0.3781(2) 0.50908(10)
C35 C 0.3524(4) 0.0376(2) 0.68519(17)
H33 H 0.3739 0.0538 0.6613
H34 H 0.3164 0.0538 0.6884
C36 C 0.4071(6) 0.1382(4) 0.73172(11)
H35 H 0.3618 0.1366 0.7238
H36 H 0.4483 0.1854 0.7238
O11 O 0.5361(3) 0.4601(2) 0.54824(10)
N5 N 0.4124(3) 0.0777(2) 0.78797(10)
C37 C 0.4855(3) 0.1151(2) 0.80694(10)
H37 H 0.5246 0.1385 0.7890
H38 H 0.4922 0.0776 0.8192
C38 C 0.4945(3) 0.1733(2) 0.83434(10)
C39 C 0.5265(4) 0.2475(2) 0.82441(12)
H39 H 0.5428 0.2612 0.8007
C40 C 0.5348(4) 0.3008(3) 0.84850(14)
H40 H 0.5578 0.3502 0.8412
C41 C 0.5092(4) 0.2823(3) 0.88357(14)
C42 C 0.4798(5) 0.2081(3) 0.89429(13)
H41 H 0.4647 0.1945 0.9181
C43 C 0.4733(4) 0.1559(3) 0.86999(11)
H42 H 0.4540 0.1071 0.8777
C44 C 0.5167(4) 0.3412(3) 0.90884(15)
H43 H 0.5473 0.3901 0.9015
C45 C 0.4918(5) 0.3948(4) 0.96288(16)
C46 C 0.4848(5) 0.3312(3) 0.94015(16)
H44 H 0.4565 0.2830 0.9489
O12 O 0.4535(3) 0.3781(2) 0.99092(10)
C47 C 0.3524(4) 0.0376(2) 0.81481(17)
H45 H 0.3739 0.0538 0.8387
H46 H 0.3164 0.0538 0.8116
C48 C 0.4071(6) 0.1382(4) 0.76828(11)
H47 H 0.3618 0.1366 0.7762
H48 H 0.4483 0.1854 0.7762
O13 O 0.5361(3) 0.4601(2) 0.95176(10)
Cu3 Cu 0.45185(4) 0.45185(4) 0.47731(2)
O14 O 0.3695(3) 0.3695(3) 0.43900(17)
Cu5 Cu 0.54815(4) 0.54815(4) 0.97731(2)
Cu8 Cu 0.54815(4) 0.54815(4) 0.52269(2)
O16 O 0.4639(3) 0.5399(2) 0.45176(10)
O18 O 0.5399(2) 0.4639(3) 0.45176(10)
O19 O 0.3781(2) 0.4535(3) 0.50908(10)
Cu1_2 Cu 0.0000 0.39865(5) 0.7500
O4 O 0.4601(2) 0.5361(3) 0.54824(10)
O5_2 O 0.0000 0.5061(3) 0.7500
N2 N 0.0777(2) 0.4124(3) 0.71203(10)
C1 C 0.1151(2) 0.4855(3) 0.69306(10)
H1 H 0.1385 0.5246 0.7110
H2 H 0.0776 0.4922 0.6808
C2 C 0.1733(2) 0.4945(3) 0.66566(10)
C3 C 0.2475(2) 0.5265(4) 0.67559(12)
H3 H 0.2612 0.5428 0.6993
C4 C 0.3008(3) 0.5348(4) 0.65150(14)
H4 H 0.3502 0.5578 0.6588
C5 C 0.2823(3) 0.5092(4) 0.61643(14)
C6 C 0.2081(3) 0.4798(5) 0.60571(13)
H5 H 0.1945 0.4647 0.5819
C7 C 0.1559(3) 0.4733(4) 0.63001(11)
H6 H 0.1071 0.4540 0.6223
C8 C 0.3412(3) 0.5167(4) 0.59116(15)
H7 H 0.3901 0.5473 0.5985
C9 C 0.3948(4) 0.4918(5) 0.53712(16)
C10 C 0.3312(3) 0.4848(5) 0.55985(16)
H8 H 0.2830 0.4565 0.5511
C11 C 0.0376(2) 0.3524(4) 0.68519(17)
H9 H 0.0538 0.3739 0.6613
H10 H 0.0538 0.3164 0.6884
C12 C 0.1382(4) 0.4071(6) 0.73172(11)
H11 H 0.1366 0.3618 0.7238
H12 H 0.1854 0.4483 0.7238
N3 N 0.0777(2) 0.4124(3) 0.78797(10)
C13 C 0.1151(2) 0.4855(3) 0.80694(10)
H13 H 0.1385 0.5246 0.7890
H14 H 0.0776 0.4922 0.8192
C14 C 0.1733(2) 0.4945(3) 0.83434(10)
C15 C 0.2475(2) 0.5265(4) 0.82441(12)
H15 H 0.2612 0.5428 0.8007
C16 C 0.3008(3) 0.5348(4) 0.84850(14)
H16 H 0.3502 0.5578 0.8412
C17 C 0.2823(3) 0.5092(4) 0.88357(14)
C18 C 0.2081(3) 0.4798(5) 0.89429(13)
H17 H 0.1945 0.4647 0.9181
C19 C 0.1559(3) 0.4733(4) 0.86999(11)
H18 H 0.1071 0.4540 0.8777
C20 C 0.3412(3) 0.5167(4) 0.90884(15)
H19 H 0.3901 0.5473 0.9015
C21 C 0.3948(4) 0.4918(5) 0.96288(16)
C22 C 0.3312(3) 0.4848(5) 0.94015(16)
H20 H 0.2830 0.4565 0.9489
O8 O 0.3781(2) 0.4535(3) 0.99092(10)
C23 C 0.0376(2) 0.3524(4) 0.81481(17)
H21 H 0.0538 0.3739 0.8387
H22 H 0.0538 0.3164 0.8116
C24 C 0.1382(4) 0.4071(6) 0.76828(11)
H23 H 0.1366 0.3618 0.7762
H24 H 0.1854 0.4483 0.7762
O9 O 0.4601(2) 0.5361(3) 0.95176(10)
Cu1_3 Cu 0.60135(5) 1.0000 0.2500
O5_3 O 0.4939(3) 1.0000 0.2500
N4_2 N 0.5876(3) 0.9223(2) 0.21203(10)
C25_2 C 0.5145(3) 0.8849(2) 0.19306(10)
H25_2 H 0.4754 0.8615 0.2110
H26_2 H 0.5078 0.9224 0.1808
C26_2 C 0.5055(3) 0.8267(2) 0.16566(10)
C27_2 C 0.4735(4) 0.7525(2) 0.17559(12)
H27_2 H 0.4572 0.7388 0.1993
C28_2 C 0.4652(4) 0.6992(3) 0.15150(14)
H28_2 H 0.4422 0.6498 0.1588
C29_2 C 0.4908(4) 0.7177(3) 0.11643(14)
C30_2 C 0.5202(5) 0.7919(3) 0.10571(13)
H29_2 H 0.5353 0.8055 0.0819
C31_2 C 0.5267(4) 0.8441(3) 0.13001(11)
H30_2 H 0.5460 0.8929 0.1223
C32_2 C 0.4833(4) 0.6588(3) 0.09116(15)
H31_2 H 0.4527 0.6099 0.0985
C33_2 C 0.5082(5) 0.6052(4) 0.03712(16)
C34_2 C 0.5152(5) 0.6688(3) 0.05985(16)
H32_2 H 0.5435 0.7170 0.0511
O10_2 O 0.5465(3) 0.6219(2) 0.00908(10)
C35_2 C 0.6476(4) 0.9624(2) 0.18519(17)
H33_2 H 0.6261 0.9462 0.1613
H34_2 H 0.6836 0.9462 0.1884
C36_2 C 0.5929(6) 0.8618(4) 0.23172(11)
H35_2 H 0.6382 0.8634 0.2238
H36_2 H 0.5517 0.8146 0.2238
O11_2 O 0.4639(3) 0.5399(2) 0.04824(10)
N5_2 N 0.5876(3) 0.9223(2) 0.28797(10)
C37_2 C 0.5145(3) 0.8849(2) 0.30694(10)
H37_2 H 0.4754 0.8615 0.2890
H38_2 H 0.5078 0.9224 0.3192
C38_2 C 0.5055(3) 0.8267(2) 0.33434(10)
C39_2 C 0.4735(4) 0.7525(2) 0.32441(12)
H39_2 H 0.4572 0.7388 0.3007
C40_2 C 0.4652(4) 0.6992(3) 0.34850(14)
H40_2 H 0.4422 0.6498 0.3412
C41_2 C 0.4908(4) 0.7177(3) 0.38357(14)
C42_2 C 0.5202(5) 0.7919(3) 0.39429(13)
H41_2 H 0.5353 0.8055 0.4181
C43_2 C 0.5267(4) 0.8441(3) 0.36999(11)
H42_2 H 0.5460 0.8929 0.3777
C44_2 C 0.4833(4) 0.6588(3) 0.40884(15)
H43_2 H 0.4527 0.6099 0.4015
C45_2 C 0.5082(5) 0.6052(4) 0.46288(16)
C46_2 C 0.5152(5) 0.6688(3) 0.44015(16)
H44_2 H 0.5435 0.7170 0.4489
O12_2 O 0.5465(3) 0.6219(2) 0.49092(10)
C47_2 C 0.6476(4) 0.9624(2) 0.31481(17)
H45_2 H 0.6261 0.9462 0.3387
H46_2 H 0.6836 0.9462 0.3116
C48_2 C 0.5929(6) 0.8618(4) 0.26828(11)
H47_2 H 0.6382 0.8634 0.2762
H48_2 H 0.5517 0.8146 0.2762
O19_2 O 0.6219(2) 0.5465(3) 0.00908(10)
O14_2 O 0.6305(3) 0.6305(3) 0.93900(17)
Cu1_4 Cu 1.0000 0.60135(5) 0.2500
O4_2 O 0.5399(2) 0.4639(3) 0.04824(10)
O5_4 O 1.0000 0.4939(3) 0.2500
N2_2 N 0.9223(2) 0.5876(3) 0.21203(10)
C1_2 C 0.8849(2) 0.5145(3) 0.19306(10)
H1_2 H 0.8615 0.4754 0.2110
H2_2 H 0.9224 0.5078 0.1808
C2_2 C 0.8267(2) 0.5055(3) 0.16566(10)
C3_2 C 0.7525(2) 0.4735(4) 0.17559(12)
H3_2 H 0.7388 0.4572 0.1993
C4_2 C 0.6992(3) 0.4652(4) 0.15150(14)
H4_2 H 0.6498 0.4422 0.1588
C5_2 C 0.7177(3) 0.4908(4) 0.11643(14)
C6_2 C 0.7919(3) 0.5202(5) 0.10571(13)
H5_2 H 0.8055 0.5353 0.0819
C7_2 C 0.8441(3) 0.5267(4) 0.13001(11)
H6_2 H 0.8929 0.5460 0.1223
C8_2 C 0.6588(3) 0.4833(4) 0.09116(15)
H7_2 H 0.6099 0.4527 0.0985
C9_2 C 0.6052(4) 0.5082(5) 0.03712(16)
C10_2 C 0.6688(3) 0.5152(5) 0.05985(16)
H8_2 H 0.7170 0.5435 0.0511
C11_2 C 0.9624(2) 0.6476(4) 0.18519(17)
H9_2 H 0.9462 0.6261 0.1613
H10_2 H 0.9462 0.6836 0.1884
C12_2 C 0.8618(4) 0.5929(6) 0.23172(11)
H11_2 H 0.8634 0.6382 0.2238
H12_2 H 0.8146 0.5517 0.2238
N3_2 N 0.9223(2) 0.5876(3) 0.28797(10)
C13_2 C 0.8849(2) 0.5145(3) 0.30694(10)
H13_2 H 0.8615 0.4754 0.2890
H14_2 H 0.9224 0.5078 0.3192
C14_2 C 0.8267(2) 0.5055(3) 0.33434(10)
C15_2 C 0.7525(2) 0.4735(4) 0.32441(12)
H15_2 H 0.7388 0.4572 0.3007
C16_2 C 0.6992(3) 0.4652(4) 0.34850(14)
H16_2 H 0.6498 0.4422 0.3412
C17_2 C 0.7177(3) 0.4908(4) 0.38357(14)
C18_2 C 0.7919(3) 0.5202(5) 0.39429(13)
H17_2 H 0.8055 0.5353 0.4181
C19_2 C 0.8441(3) 0.5267(4) 0.36999(11)
H18_2 H 0.8929 0.5460 0.3777
C20_2 C 0.6588(3) 0.4833(4) 0.40884(15)
H19_2 H 0.6099 0.4527 0.4015
C21_2 C 0.6052(4) 0.5082(5) 0.46288(16)
C22_2 C 0.6688(3) 0.5152(5) 0.44015(16)
H20_2 H 0.7170 0.5435 0.4489
O8_2 O 0.6219(2) 0.5465(3) 0.49092(10)
C23_2 C 0.9624(2) 0.6476(4) 0.31481(17)
H21_2 H 0.9462 0.6261 0.3387
H22_2 H 0.9462 0.6836 0.3116
C24_2 C 0.8618(4) 0.5929(6) 0.26828(11)
H23_2 H 0.8634 0.6382 0.2762
H24_2 H 0.8146 0.5517 0.2762
O14_3 O 0.6305(3) 0.6305(3) 0.56100(17)
O6 O 0.3695(3) 0.3695(3) 0.06100(17)
Cu9 Cu 0.0000 0.54815(4) 0.02269(2)
Cu1_5 Cu 0.39865(5) 1.0000 0.7500
Cu2 Cu 0.0000 0.54815(4) 0.47731(2)
O4_3 O 0.0760(2) 0.5399(2) 0.54824(10)
O5_5 O 0.5061(3) 1.0000 0.7500
O6_2 O 0.0000 0.6305(3) 0.43900(17)
N2_3 N 0.3347(2) 0.9223(2) 0.71203(10)
C1_3 C 0.3704(2) 0.8849(2) 0.69306(10)
H1_3 H 0.3861 0.8615 0.7110
H2_3 H 0.4146 0.9224 0.6808
C2_3 C 0.3212(2) 0.8267(2) 0.66566(10)
C3_3 C 0.2790(3) 0.7525(2) 0.67559(12)
H3_3 H 0.2816 0.7388 0.6993
C4_3 C 0.2340(3) 0.6992(3) 0.65150(14)
H4_3 H 0.2076 0.6498 0.6588
C5_3 C 0.2269(3) 0.7177(3) 0.61643(14)
C6_3 C 0.2717(4) 0.7919(3) 0.60571(13)
H5_3 H 0.2702 0.8055 0.5819
C7_3 C 0.3174(3) 0.8441(3) 0.63001(11)
H6_3 H 0.3469 0.8929 0.6223
C8_3 C 0.1755(3) 0.6588(3) 0.59116(15)
H7_3 H 0.1572 0.6099 0.5985
C9_3 C 0.0970(3) 0.6052(4) 0.53712(16)
C10_3 C 0.1536(4) 0.6688(3) 0.55985(16)
H8_3 H 0.1735 0.7170 0.5511
O7 O 0.0754(2) 0.6219(2) 0.50908(10)
C11_3 C 0.3148(4) 0.9624(2) 0.68519(17)
H9_3 H 0.3201 0.9462 0.6613
H10_3 H 0.2626 0.9462 0.6884
C12_3 C 0.2689(4) 0.8618(4) 0.73172(11)
H11_3 H 0.2252 0.8634 0.7238
H12_3 H 0.2629 0.8146 0.7238
N3_3 N 0.3347(2) 0.9223(2) 0.78797(10)
C13_3 C 0.3704(2) 0.8849(2) 0.80694(10)
H13_3 H 0.3861 0.8615 0.7890
H14_3 H 0.4146 0.9224 0.8192
C14_3 C 0.3212(2) 0.8267(2) 0.83434(10)
C15_3 C 0.2790(3) 0.7525(2) 0.82441(12)
H15_3 H 0.2816 0.7388 0.8007
C16_3 C 0.2340(3) 0.6992(3) 0.84850(14)
H16_3 H 0.2076 0.6498 0.8412
C17_3 C 0.2269(3) 0.7177(3) 0.88357(14)
C18_3 C 0.2717(4) 0.7919(3) 0.89429(13)
H17_3 H 0.2702 0.8055 0.9181
C19_3 C 0.3174(3) 0.8441(3) 0.86999(11)
H18_3 H 0.3469 0.8929 0.8777
C20_3 C 0.1755(3) 0.6588(3) 0.90884(15)
H19_3 H 0.1572 0.6099 0.9015
C21_3 C 0.0970(3) 0.6052(4) 0.96288(16)
C22_3 C 0.1536(4) 0.6688(3) 0.94015(16)
H20_3 H 0.1735 0.7170 0.9489
O8_3 O 0.0754(2) 0.6219(2) 0.99092(10)
C23_3 C 0.3148(4) 0.9624(2) 0.81481(17)
H21_3 H 0.3201 0.9462 0.8387
H22_3 H 0.2626 0.9462 0.8116
C24_3 C 0.2689(4) 0.8618(4) 0.76828(11)
H23_3 H 0.2252 0.8634 0.7762
H24_3 H 0.2629 0.8146 0.7762
O9_2 O 0.0760(2) 0.5399(2) 0.95176(10)
Cu4 Cu -0.0000 0.45185(4) 0.97731(2)
Cu7 Cu -0.0000 0.45185(4) 0.52269(2)
O15 O 0.0760(2) 0.5361(3) 0.45176(10)
Cu1_6 Cu 0.39865(5) 0.39865(5) 0.2500
O4_4 O 0.5361(3) 0.0760(2) 0.04824(10)
O5_6 O 0.5061(3) 0.5061(3) 0.2500
N2_4 N 0.4124(3) 0.3347(2) 0.21203(10)
C1_4 C 0.4855(3) 0.3704(2) 0.19306(10)
H1_4 H 0.5246 0.3861 0.2110
H2_4 H 0.4922 0.4146 0.1808
C2_4 C 0.4945(3) 0.3212(2) 0.16566(10)
C3_4 C 0.5265(4) 0.2790(3) 0.17559(12)
H3_4 H 0.5428 0.2816 0.1993
C4_4 C 0.5348(4) 0.2340(3) 0.15150(14)
H4_4 H 0.5578 0.2076 0.1588
C5_4 C 0.5092(4) 0.2269(3) 0.11643(14)
C6_4 C 0.4798(5) 0.2717(4) 0.10571(13)
H5_4 H 0.4647 0.2702 0.0819
C7_4 C 0.4733(4) 0.3174(3) 0.13001(11)
H6_4 H 0.4540 0.3469 0.1223
C8_4 C 0.5167(4) 0.1755(3) 0.09116(15)
H7_4 H 0.5473 0.1572 0.0985
C9_4 C 0.4918(5) 0.0970(3) 0.03712(16)
C10_4 C 0.4848(5) 0.1536(4) 0.05985(16)
H8_4 H 0.4565 0.1735 0.0511
O7_2 O 0.4535(3) 0.0754(2) 0.00908(10)
C11_4 C 0.3524(4) 0.3148(4) 0.18519(17)
H9_4 H 0.3739 0.3201 0.1613
H10_4 H 0.3164 0.2626 0.1884
C12_4 C 0.4071(6) 0.2689(4) 0.23172(11)
H11_4 H 0.3618 0.2252 0.2238
H12_4 H 0.4483 0.2629 0.2238
N3_4 N 0.4124(3) 0.3347(2) 0.28797(10)
C13_4 C 0.4855(3) 0.3704(2) 0.30694(10)
H13_4 H 0.5246 0.3861 0.2890
H14_4 H 0.4922 0.4146 0.3192
C14_4 C 0.4945(3) 0.3212(2) 0.33434(10)
C15_4 C 0.5265(4) 0.2790(3) 0.32441(12)
H15_4 H 0.5428 0.2816 0.3007
C16_4 C 0.5348(4) 0.2340(3) 0.34850(14)
H16_4 H 0.5578 0.2076 0.3412
C17_4 C 0.5092(4) 0.2269(3) 0.38357(14)
C18_4 C 0.4798(5) 0.2717(4) 0.39429(13)
H17_4 H 0.4647 0.2702 0.4181
C19_4 C 0.4733(4) 0.3174(3) 0.36999(11)
H18_4 H 0.4540 0.3469 0.3777
C20_4 C 0.5167(4) 0.1755(3) 0.40884(15)
H19_4 H 0.5473 0.1572 0.4015
C21_4 C 0.4918(5) 0.0970(3) 0.46288(16)
C22_4 C 0.4848(5) 0.1536(4) 0.44015(16)
H20_4 H 0.4565 0.1735 0.4489
O8_4 O 0.4535(3) 0.0754(2) 0.49092(10)
C23_4 C 0.3524(4) 0.3148(4) 0.31481(17)
H21_4 H 0.3739 0.3201 0.3387
H22_4 H 0.3164 0.2626 0.3116
C24_4 C 0.4071(6) 0.2689(4) 0.26828(11)
H23_4 H 0.3618 0.2252 0.2762
H24_4 H 0.4483 0.2629 0.2762
O9_3 O 0.5361(3) 0.0760(2) 0.45176(10)
N4_3 N 0.3347(4) 0.4124(3) 0.21203(10)
C25_3 C 0.3704(4) 0.4855(3) 0.19306(10)
H25_3 H 0.3861 0.5246 0.2110
H26_3 H 0.4146 0.4922 0.1808
C26_3 C 0.3212(4) 0.4945(3) 0.16566(10)
C27_3 C 0.2790(4) 0.5265(4) 0.17559(12)
H27_3 H 0.2816 0.5428 0.1993
C28_3 C 0.2340(5) 0.5348(4) 0.15150(14)
H28_3 H 0.2076 0.5578 0.1588
C29_3 C 0.2269(5) 0.5092(4) 0.11643(14)
C30_3 C 0.2717(6) 0.4798(5) 0.10571(13)
H29_3 H 0.2702 0.4647 0.0819
C31_3 C 0.3174(5) 0.4733(4) 0.13001(11)
H30_3 H 0.3469 0.4540 0.1223
C32_3 C 0.1755(5) 0.5167(4) 0.09116(15)
H31_3 H 0.1572 0.5473 0.0985
C33_3 C 0.0970(6) 0.4918(5) 0.03712(16)
C34_3 C 0.1536(6) 0.4848(5) 0.05985(16)
H32_3 H 0.1735 0.4565 0.0511
O10_3 O 0.0754(4) 0.4535(3) 0.00908(10)
C35_3 C 0.3148(4) 0.3524(4) 0.18519(17)
H33_3 H 0.3201 0.3739 0.1613
H34_3 H 0.2626 0.3164 0.1884
C36_3 C 0.2689(7) 0.4071(6) 0.23172(11)
H35_3 H 0.2252 0.3618 0.2238
H36_3 H 0.2629 0.4483 0.2238
O11_3 O 0.0760(4) 0.5361(3) 0.04824(10)
N5_3 N 0.3347(4) 0.4124(3) 0.28797(10)
C37_3 C 0.3704(4) 0.4855(3) 0.30694(10)
H37_3 H 0.3861 0.5246 0.2890
H38_3 H 0.4146 0.4922 0.3192
C38_3 C 0.3212(4) 0.4945(3) 0.33434(10)
C39_3 C 0.2790(4) 0.5265(4) 0.32441(12)
H39_3 H 0.2816 0.5428 0.3007
C40_3 C 0.2340(5) 0.5348(4) 0.34850(14)
H40_3 H 0.2076 0.5578 0.3412
C41_3 C 0.2269(5) 0.5092(4) 0.38357(14)
C42_3 C 0.2717(6) 0.4798(5) 0.39429(13)
H41_3 H 0.2702 0.4647 0.4181
C43_3 C 0.3174(5) 0.4733(4) 0.36999(11)
H42_3 H 0.3469 0.4540 0.3777
C44_3 C 0.1755(5) 0.5167(4) 0.40884(15)
H43_3 H 0.1572 0.5473 0.4015
C45_3 C 0.0970(6) 0.4918(5) 0.46288(16)
C46_3 C 0.1536(6) 0.4848(5) 0.44015(16)
H44_3 H 0.1735 0.4565 0.4489
O12_3 O 0.0754(4) 0.4535(3) 0.49092(10)
C47_3 C 0.3148(4) 0.3524(4) 0.31481(17)
H45_3 H 0.3201 0.3739 0.3387
H46_3 H 0.2626 0.3164 0.3116
C48_3 C 0.2689(7) 0.4071(6) 0.26828(11)
H47_3 H 0.2252 0.3618 0.2762
H48_3 H 0.2629 0.4483 0.2762
Cu4_2 Cu 0.54815(4) -0.0000 0.47731(2)
Cu7_2 Cu 0.54815(4) -0.0000 0.02269(2)
Cu9_2 Cu 0.45185(4) 0.0000 0.52269(2)
Cu2_2 Cu 0.45185(4) 0.0000 0.97731(2)
O6_3 O 0.3695(3) 0.0000 0.93900(17)
O14_4 O -0.0000(4) 0.3695(3) 0.93900(17)
O15_2 O 0.5399(4) 0.0760(2) 0.95176(10)
Cu1_7 Cu 1.0000 0.39865(5) 0.7500
O5_7 O 1.0000 0.5061(3) 0.7500
N4_4 N 0.9223(2) 0.3347(4) 0.71203(10)
C25_4 C 0.8849(2) 0.3704(4) 0.69306(10)
H25_4 H 0.8615 0.3861 0.7110
H26_4 H 0.9224 0.4146 0.6808
C26_4 C 0.8267(2) 0.3212(4) 0.66566(10)
C27_4 C 0.7525(2) 0.2790(4) 0.67559(12)
H27_4 H 0.7388 0.2816 0.6993
C28_4 C 0.6992(3) 0.2340(5) 0.65150(14)
H28_4 H 0.6498 0.2076 0.6588
C29_4 C 0.7177(3) 0.2269(5) 0.61643(14)
C30_4 C 0.7919(3) 0.2717(6) 0.60571(13)
H29_4 H 0.8055 0.2702 0.5819
C31_4 C 0.8441(3) 0.3174(5) 0.63001(11)
H30_4 H 0.8929 0.3469 0.6223
C32_4 C 0.6588(3) 0.1755(5) 0.59116(15)
H31_4 H 0.6099 0.1572 0.5985
C33_4 C 0.6052(4) 0.0970(6) 0.53712(16)
C34_4 C 0.6688(3) 0.1536(6) 0.55985(16)
H32_4 H 0.7170 0.1735 0.5511
O10_4 O 0.6219(2) 0.0754(4) 0.50908(10)
C35_4 C 0.9624(2) 0.3148(4) 0.68519(17)
H33_4 H 0.9462 0.3201 0.6613
H34_4 H 0.9462 0.2626 0.6884
C36_4 C 0.8618(4) 0.2689(7) 0.73172(11)
H35_4 H 0.8634 0.2252 0.7238
H36_4 H 0.8146 0.2629 0.7238
O11_4 O 0.5399(2) 0.0760(4) 0.54824(10)
N5_4 N 0.9223(2) 0.3347(4) 0.78797(10)
C37_4 C 0.8849(2) 0.3704(4) 0.80694(10)
H37_4 H 0.8615 0.3861 0.7890
H38_4 H 0.9224 0.4146 0.8192
C38_4 C 0.8267(2) 0.3212(4) 0.83434(10)
C39_4 C 0.7525(2) 0.2790(4) 0.82441(12)
H39_4 H 0.7388 0.2816 0.8007
C40_4 C 0.6992(3) 0.2340(5) 0.84850(14)
H40_4 H 0.6498 0.2076 0.8412
C41_4 C 0.7177(3) 0.2269(5) 0.88357(14)
C42_4 C 0.7919(3) 0.2717(6) 0.89429(13)
H41_4 H 0.8055 0.2702 0.9181
C43_4 C 0.8441(3) 0.3174(5) 0.86999(11)
H42_4 H 0.8929 0.3469 0.8777
C44_4 C 0.6588(3) 0.1755(5) 0.90884(15)
H43_4 H 0.6099 0.1572 0.9015
C45_4 C 0.6052(4) 0.0970(6) 0.96288(16)
C46_4 C 0.6688(3) 0.1536(6) 0.94015(16)
H44_4 H 0.7170 0.1735 0.9489
O12_4 O 0.6219(2) 0.0754(4) 0.99092(10)
C47_4 C 0.9624(2) 0.3148(4) 0.81481(17)
H45_4 H 0.9462 0.3201 0.8387
H46_4 H 0.9462 0.2626 0.8116
C48_4 C 0.8618(4) 0.2689(7) 0.76828(11)
H47_4 H 0.8634 0.2252 0.7762
H48_4 H 0.8146 0.2629 0.7762
O14_5 O 0.6305(3) 0.0000(4) 0.43900(17)
O6_4 O 0.3695(3) -0.0000 0.56100(17)
O14_6 O -0.0000(4) 0.6305(3) 0.06100(17)
O6_5 O 0.0000 0.3695(3) 0.56100(17)
O6_6 O 0.6305(3) 0.0000 0.06100(17)
Cu9_3 Cu 1.0000 0.54815(4) 0.02269(2)
Cu2_3 Cu 1.0000 0.54815(4) 0.47731(2)
O6_7 O 1.0000 0.6305(3) 0.43900(17)
Cu4_3 Cu 1.0000 0.45185(4) 0.97731(2)
Cu7_3 Cu 1.0000 0.45185(4) 0.52269(2)
O17 O 0.9240(2) 0.4601(2) 0.45176(10)
O20 O 0.9246(2) 0.5465(3) 0.50908(10)
Cu4_4 Cu 0.54815(4) 1.0000 0.47731(2)
Cu7_4 Cu 0.54815(4) 1.0000 0.02269(2)
Cu9_4 Cu 0.45185(4) 1.0000 0.52269(2)
O20_2 O 0.3781(4) 0.9246(2) 0.00908(10)
Cu2_4 Cu 0.45185(4) 1.0000 0.97731(2)
O6_8 O 0.3695(3) 1.0000 0.93900(17)
O17_2 O 0.4639(3) 0.9240(2) 0.95176(10)
O19_3 O 0.9246(4) 0.3781(2) 0.00908(10)
O14_7 O 1.0000(4) 0.3695(3) 0.93900(17)
O16_2 O 0.9240(4) 0.4639(3) 0.95176(10)
O14_8 O 0.6305(3) 1.0000(4) 0.43900(17)
O16_3 O 0.4601(2) 0.9240(4) 0.45176(10)
O19_4 O 0.5465(3) 0.9246(4) 0.50908(10)
Cu1_8 Cu 0.60135(5) -0.0000 0.2500
O4_5 O 0.9240(2) 0.4601(2) 0.04824(10)
O5_8 O 0.4939(3) -0.0000 0.2500
N2_5 N 0.6653(2) 0.0777(2) 0.21203(10)
C1_5 C 0.6296(2) 0.1151(2) 0.19306(10)
H1_5 H 0.6139 0.1385 0.2110
H2_5 H 0.5854 0.0776 0.1808
C2_5 C 0.6788(2) 0.1733(2) 0.16566(10)
C3_5 C 0.7210(3) 0.2475(2) 0.17559(12)
H3_5 H 0.7184 0.2612 0.1993
C4_5 C 0.7660(3) 0.3008(3) 0.15150(14)
H4_5 H 0.7924 0.3502 0.1588
C5_5 C 0.7731(3) 0.2823(3) 0.11643(14)
C6_5 C 0.7283(4) 0.2081(3) 0.10571(13)
H5_5 H 0.7298 0.1945 0.0819
C7_5 C 0.6826(3) 0.1559(3) 0.13001(11)
H6_5 H 0.6531 0.1071 0.1223
C8_5 C 0.8245(3) 0.3412(3) 0.09116(15)
H7_5 H 0.8428 0.3901 0.0985
C9_5 C 0.9030(3) 0.3948(4) 0.03712(16)
C10_5 C 0.8464(4) 0.3312(3) 0.05985(16)
H8_5 H 0.8265 0.2830 0.0511
C11_5 C 0.6852(4) 0.0376(2) 0.18519(17)
H9_5 H 0.6799 0.0538 0.1613
H10_5 H 0.7374 0.0538 0.1884
C12_5 C 0.7311(4) 0.1382(4) 0.23172(11)
H11_5 H 0.7748 0.1366 0.2238
H12_5 H 0.7371 0.1854 0.2238
N3_5 N 0.6653(2) 0.0777(2) 0.28797(10)
C13_5 C 0.6296(2) 0.1151(2) 0.30694(10)
H13_5 H 0.6139 0.1385 0.2890
H14_5 H 0.5854 0.0776 0.3192
C14_5 C 0.6788(2) 0.1733(2) 0.33434(10)
C15_5 C 0.7210(3) 0.2475(2) 0.32441(12)
H15_5 H 0.7184 0.2612 0.3007
C16_5 C 0.7660(3) 0.3008(3) 0.34850(14)
H16_5 H 0.7924 0.3502 0.3412
C17_5 C 0.7731(3) 0.2823(3) 0.38357(14)
C18_5 C 0.7283(4) 0.2081(3) 0.39429(13)
H17_5 H 0.7298 0.1945 0.4181
C19_5 C 0.6826(3) 0.1559(3) 0.36999(11)
H18_5 H 0.6531 0.1071 0.3777
C20_5 C 0.8245(3) 0.3412(3) 0.40884(15)
H19_5 H 0.8428 0.3901 0.4015
C21_5 C 0.9030(3) 0.3948(4) 0.46288(16)
C22_5 C 0.8464(4) 0.3312(3) 0.44015(16)
H20_5 H 0.8265 0.2830 0.4489
O8_5 O 0.9246(2) 0.3781(2) 0.49092(10)
C23_5 C 0.6852(4) 0.0376(2) 0.31481(17)
H21_5 H 0.6799 0.0538 0.3387
H22_5 H 0.7374 0.0538 0.3116
C24_5 C 0.7311(4) 0.1382(4) 0.26828(11)
H23_5 H 0.7748 0.1366 0.2762
H24_5 H 0.7371 0.1854 0.2762
Cu1_9 Cu 0.60135(5) 0.60135(5) 0.7500
O4_6 O 0.4639(3) 0.9240(2) 0.54824(10)
O5_9 O 0.4939(3) 0.4939(3) 0.7500
N2_6 N 0.5876(3) 0.6653(2) 0.71203(10)
C1_6 C 0.5145(3) 0.6296(2) 0.69306(10)
H1_6 H 0.4754 0.6139 0.7110
H2_6 H 0.5078 0.5854 0.6808
C2_6 C 0.5055(3) 0.6788(2) 0.66566(10)
C3_6 C 0.4735(4) 0.7210(3) 0.67559(12)
H3_6 H 0.4572 0.7184 0.6993
C4_6 C 0.4652(4) 0.7660(3) 0.65150(14)
H4_6 H 0.4422 0.7924 0.6588
C5_6 C 0.4908(4) 0.7731(3) 0.61643(14)
C6_6 C 0.5202(5) 0.7283(4) 0.60571(13)
H5_6 H 0.5353 0.7298 0.5819
C7_6 C 0.5267(4) 0.6826(3) 0.63001(11)
H6_6 H 0.5460 0.6531 0.6223
C8_6 C 0.4833(4) 0.8245(3) 0.59116(15)
H7_6 H 0.4527 0.8428 0.5985
C9_6 C 0.5082(5) 0.9030(3) 0.53712(16)
C10_6 C 0.5152(5) 0.8464(4) 0.55985(16)
H8_6 H 0.5435 0.8265 0.5511
C11_6 C 0.6476(4) 0.6852(4) 0.68519(17)
H9_6 H 0.6261 0.6799 0.6613
H10_6 H 0.6836 0.7374 0.6884
C12_6 C 0.5929(6) 0.7311(4) 0.73172(11)
H11_6 H 0.6382 0.7748 0.7238
H12_6 H 0.5517 0.7371 0.7238
N3_6 N 0.5876(3) 0.6653(2) 0.78797(10)
C13_6 C 0.5145(3) 0.6296(2) 0.80694(10)
H13_6 H 0.4754 0.6139 0.7890
H14_6 H 0.5078 0.5854 0.8192
C14_6 C 0.5055(3) 0.6788(2) 0.83434(10)
C15_6 C 0.4735(4) 0.7210(3) 0.82441(12)
H15_6 H 0.4572 0.7184 0.8007
C16_6 C 0.4652(4) 0.7660(3) 0.84850(14)
H16_6 H 0.4422 0.7924 0.8412
C17_6 C 0.4908(4) 0.7731(3) 0.88357(14)
C18_6 C 0.5202(5) 0.7283(4) 0.89429(13)
H17_6 H 0.5353 0.7298 0.9181
C19_6 C 0.5267(4) 0.6826(3) 0.86999(11)
H18_6 H 0.5460 0.6531 0.8777
C20_6 C 0.4833(4) 0.8245(3) 0.90884(15)
H19_6 H 0.4527 0.8428 0.9015
C21_6 C 0.5082(5) 0.9030(3) 0.96288(16)
C22_6 C 0.5152(5) 0.8464(4) 0.94015(16)
H20_6 H 0.5435 0.8265 0.9489
O8_6 O 0.5465(3) 0.9246(2) 0.99092(10)
C23_6 C 0.6476(4) 0.6852(4) 0.81481(17)
H21_6 H 0.6261 0.6799 0.8387
H22_6 H 0.6836 0.7374 0.8116
C24_6 C 0.5929(6) 0.7311(4) 0.76828(11)
H23_6 H 0.6382 0.7748 0.7762
H24_6 H 0.5517 0.7371 0.7762
N4_5 N 0.6653(4) 0.5876(3) 0.71203(10)
C25_5 C 0.6296(4) 0.5145(3) 0.69306(10)
H25_5 H 0.6139 0.4754 0.7110
H26_5 H 0.5854 0.5078 0.6808
C26_5 C 0.6788(4) 0.5055(3) 0.66566(10)
C27_5 C 0.7210(4) 0.4735(4) 0.67559(12)
H27_5 H 0.7184 0.4572 0.6993
C28_5 C 0.7660(5) 0.4652(4) 0.65150(14)
H28_5 H 0.7924 0.4422 0.6588
C29_5 C 0.7731(5) 0.4908(4) 0.61643(14)
C30_5 C 0.7283(6) 0.5202(5) 0.60571(13)
H29_5 H 0.7298 0.5353 0.5819
C31_5 C 0.6826(5) 0.5267(4) 0.63001(11)
H30_5 H 0.6531 0.5460 0.6223
C32_5 C 0.8245(5) 0.4833(4) 0.59116(15)
H31_5 H 0.8428 0.4527 0.5985
C33_5 C 0.9030(6) 0.5082(5) 0.53712(16)
C34_5 C 0.8464(6) 0.5152(5) 0.55985(16)
H32_5 H 0.8265 0.5435 0.5511
C35_5 C 0.6852(4) 0.6476(4) 0.68519(17)
H33_5 H 0.6799 0.6261 0.6613
H34_5 H 0.7374 0.6836 0.6884
C36_5 C 0.7311(7) 0.5929(6) 0.73172(11)
H35_5 H 0.7748 0.6382 0.7238
H36_5 H 0.7371 0.5517 0.7238
O11_5 O 0.9240(4) 0.4639(3) 0.54824(10)
N5_5 N 0.6653(4) 0.5876(3) 0.78797(10)
C37_5 C 0.6296(4) 0.5145(3) 0.80694(10)
H37_5 H 0.6139 0.4754 0.7890
H38_5 H 0.5854 0.5078 0.8192
C38_5 C 0.6788(4) 0.5055(3) 0.83434(10)
C39_5 C 0.7210(4) 0.4735(4) 0.82441(12)
H39_5 H 0.7184 0.4572 0.8007
C40_5 C 0.7660(5) 0.4652(4) 0.84850(14)
H40_5 H 0.7924 0.4422 0.8412
C41_5 C 0.7731(5) 0.4908(4) 0.88357(14)
C42_5 C 0.7283(6) 0.5202(5) 0.89429(13)
H41_5 H 0.7298 0.5353 0.9181
C43_5 C 0.6826(5) 0.5267(4) 0.86999(11)
H42_5 H 0.6531 0.5460 0.8777
C44_5 C 0.8245(5) 0.4833(4) 0.90884(15)
H43_5 H 0.8428 0.4527 0.9015
C45_5 C 0.9030(6) 0.5082(5) 0.96288(16)
C46_5 C 0.8464(6) 0.5152(5) 0.94015(16)
H44_5 H 0.8265 0.5435 0.9489
O12_5 O 0.9246(4) 0.5465(3) 0.99092(10)
C47_5 C 0.6852(4) 0.6476(4) 0.81481(17)
H45_5 H 0.6799 0.6261 0.8387
H46_5 H 0.7374 0.6836 0.8116
C48_5 C 0.7311(7) 0.5929(6) 0.76828(11)
H47_5 H 0.7748 0.6382 0.7762
H48_5 H 0.7371 0.5517 0.7762
Cu1_10 Cu 0.0000 0.60135(5) 0.2500
O5_10 O 0.0000 0.4939(3) 0.2500
N4_6 N 0.0777(2) 0.6653(4) 0.21203(10)
C25_6 C 0.1151(2) 0.6296(4) 0.19306(10)
H25_6 H 0.1385 0.6139 0.2110
H26_6 H 0.0776 0.5854 0.1808
C26_6 C 0.1733(2) 0.6788(4) 0.16566(10)
C27_6 C 0.2475(2) 0.7210(4) 0.17559(12)
H27_6 H 0.2612 0.7184 0.1993
C28_6 C 0.3008(3) 0.7660(5) 0.15150(14)
H28_6 H 0.3502 0.7924 0.1588
C29_6 C 0.2823(3) 0.7731(5) 0.11643(14)
C30_6 C 0.2081(3) 0.7283(6) 0.10571(13)
H29_6 H 0.1945 0.7298 0.0819
C31_6 C 0.1559(3) 0.6826(5) 0.13001(11)
H30_6 H 0.1071 0.6531 0.1223
C32_6 C 0.3412(3) 0.8245(5) 0.09116(15)
H31_6 H 0.3901 0.8428 0.0985
C33_6 C 0.3948(4) 0.9030(6) 0.03712(16)
C34_6 C 0.3312(3) 0.8464(6) 0.05985(16)
H32_6 H 0.2830 0.8265 0.0511
C35_6 C 0.0376(2) 0.6852(4) 0.18519(17)
H33_6 H 0.0538 0.6799 0.1613
H34_6 H 0.0538 0.7374 0.1884
C36_6 C 0.1382(4) 0.7311(7) 0.23172(11)
H35_6 H 0.1366 0.7748 0.2238
H36_6 H 0.1854 0.7371 0.2238
O11_6 O 0.4601(2) 0.9240(4) 0.04824(10)
N5_6 N 0.0777(2) 0.6653(4) 0.28797(10)
C37_6 C 0.1151(2) 0.6296(4) 0.30694(10)
H37_6 H 0.1385 0.6139 0.2890
H38_6 H 0.0776 0.5854 0.3192
C38_6 C 0.1733(2) 0.6788(4) 0.33434(10)
C39_6 C 0.2475(2) 0.7210(4) 0.32441(12)
H39_6 H 0.2612 0.7184 0.3007
C40_6 C 0.3008(3) 0.7660(5) 0.34850(14)
H40_6 H 0.3502 0.7924 0.3412
C41_6 C 0.2823(3) 0.7731(5) 0.38357(14)
C42_6 C 0.2081(3) 0.7283(6) 0.39429(13)
H41_6 H 0.1945 0.7298 0.4181
C43_6 C 0.1559(3) 0.6826(5) 0.36999(11)
H42_6 H 0.1071 0.6531 0.3777
C44_6 C 0.3412(3) 0.8245(5) 0.40884(15)
H43_6 H 0.3901 0.8428 0.4015
C45_6 C 0.3948(4) 0.9030(6) 0.46288(16)
C46_6 C 0.3312(3) 0.8464(6) 0.44015(16)
H44_6 H 0.2830 0.8265 0.4489
O12_6 O 0.3781(2) 0.9246(4) 0.49092(10)
C47_6 C 0.0376(2) 0.6852(4) 0.31481(17)
H45_6 H 0.0538 0.6799 0.3387
H46_6 H 0.0538 0.7374 0.3116
C48_6 C 0.1382(4) 0.7311(7) 0.26828(11)
H47_6 H 0.1366 0.7748 0.2762
H48_6 H 0.1854 0.7371 0.2762
O6_9 O 0.3695(3) 1.0000 0.56100(17)
O14_9 O 1.0000(4) 0.6305(3) 0.06100(17)
O6_10 O 1.0000 0.3695(3) 0.56100(17)
O6_11 O 0.6305(3) 1.0000 0.06100(17)
loop_
_geom_bond_atom_site_label_1
_geom_bond_atom_site_label_2
_geom_bond_site_symmetry_1
_geom_bond_site_symmetry_2
N1 O1 1_555 1_555
O2 N1 1_555 1_555
O3 N1 1_555 1_555
N1_2 O1_2 1_555 1_555
O2_2 N1_2 1_555 1_555
O3_2 N1_2 1_555 1_555
N1_3 O1_3 1_555 1_555
O2_3 N1_3 1_555 1_555
O3_3 N1_3 1_555 1_555
N1_4 O1_4 1_555 1_555
O2_4 N1_4 1_555 1_555
O3_4 N1_4 1_555 1_555
Cu1 O5 1_555 1_555
N4 Cu1 1_555 1_555
C25 N4 1_555 1_555
H25 C25 1_555 1_555
H26 C25 1_555 1_555
C26 C25 1_555 1_555
C27 C26 1_555 1_555
H27 C27 1_555 1_555
C28 C27 1_555 1_555
H28 C28 1_555 1_555
C29 C28 1_555 1_555
C30 C29 1_555 1_555
H29 C30 1_555 1_555
C31 C26 1_555 1_555
H30 C31 1_555 1_555
C32 C29 1_555 1_555
H31 C32 1_555 1_555
C33 C34 1_555 1_555
C34 C32 1_555 1_555
H32 C34 1_555 1_555
O10 C33 1_555 1_555
H33 C35 1_555 1_555
H34 C35 1_555 1_555
C36 N4 1_555 1_555
H35 C36 1_555 1_555
H36 C36 1_555 1_555
O11 C33 1_555 1_555
N5 Cu1 1_555 1_555
C37 N5 1_555 1_555
H37 C37 1_555 1_555
H38 C37 1_555 1_555
C38 C37 1_555 1_555
C39 C38 1_555 1_555
H39 C39 1_555 1_555
C40 C39 1_555 1_555
H40 C40 1_555 1_555
C41 C40 1_555 1_555
C42 C41 1_555 1_555
H41 C42 1_555 1_555
C43 C38 1_555 1_555
H42 C43 1_555 1_555
C44 C41 1_555 1_555
H43 C44 1_555 1_555
C45 C46 1_555 1_555
C46 C44 1_555 1_555
H44 C46 1_555 1_555
O12 C45 1_555 1_555
H45 C47 1_555 1_555
H46 C47 1_555 1_555
C48 C36 1_555 1_555
H47 C48 1_555 1_555
H48 C48 1_555 1_555
O13 C45 1_555 1_555
Cu3 O10 1_555 1_555
O14 Cu3 1_555 1_555
Cu5 O13 1_555 1_555
Cu8 O11 1_555 1_555
O16 Cu3 1_555 1_555
O18 Cu3 1_555 1_555
O19 Cu3 1_555 1_555
N4 C35 1_555 1_555
C30 C31 1_555 1_555
N5 C47 1_555 1_555
N5 C48 1_555 1_555
C42 C43 1_555 1_555
Cu3 Cu8 1_555 1_555
Cu1_2 O5_2 1_555 1_555
O4 C9 1_555 1_555
N2 Cu1_2 1_555 1_555
C1 N2 1_555 1_555
H1 C1 1_555 1_555
H2 C1 1_555 1_555
C2 C1 1_555 1_555
C3 C2 1_555 1_555
H3 C3 1_555 1_555
C4 C3 1_555 1_555
H4 C4 1_555 1_555
C5 C4 1_555 1_555
C6 C5 1_555 1_555
H5 C6 1_555 1_555
C7 C2 1_555 1_555
H6 C7 1_555 1_555
C8 C5 1_555 1_555
H7 C8 1_555 1_555
C9 C10 1_555 1_555
C10 C8 1_555 1_555
H8 C10 1_555 1_555
C11 N2 1_555 1_555
H9 C11 1_555 1_555
H10 C11 1_555 1_555
C12 N2 1_555 1_555
H11 C12 1_555 1_555
H12 C12 1_555 1_555
N3 Cu1_2 1_555 1_555
C13 N3 1_555 1_555
H13 C13 1_555 1_555
H14 C13 1_555 1_555
C14 C13 1_555 1_555
C15 C14 1_555 1_555
H15 C15 1_555 1_555
C16 C15 1_555 1_555
H16 C16 1_555 1_555
C17 C16 1_555 1_555
C18 C17 1_555 1_555
H17 C18 1_555 1_555
C19 C14 1_555 1_555
H18 C19 1_555 1_555
C20 C17 1_555 1_555
H19 C20 1_555 1_555
C21 C22 1_555 1_555
C22 C20 1_555 1_555
H20 C22 1_555 1_555
O8 C21 1_555 1_555
C23 N3 1_555 1_555
H21 C23 1_555 1_555
H22 C23 1_555 1_555
C24 C12 1_555 1_555
H23 C24 1_555 1_555
H24 C24 1_555 1_555
O9 C21 1_555 1_555
Cu5 O9 1_555 1_555
O4 Cu8 1_555 1_555
C6 C7 1_555 1_555
C9 O19 1_555 1_555
N3 C24 1_555 1_555
C18 C19 1_555 1_555
Cu1_3 O5_3 1_555 1_555
N4_2 Cu1_3 1_555 1_555
C25_2 N4_2 1_555 1_555
H25_2 C25_2 1_555 1_555
H26_2 C25_2 1_555 1_555
C26_2 C25_2 1_555 1_555
C27_2 C26_2 1_555 1_555
H27_2 C27_2 1_555 1_555
C28_2 C27_2 1_555 1_555
H28_2 C28_2 1_555 1_555
C29_2 C28_2 1_555 1_555
C30_2 C29_2 1_555 1_555
H29_2 C30_2 1_555 1_555
C31_2 C26_2 1_555 1_555
H30_2 C31_2 1_555 1_555
C32_2 C29_2 1_555 1_555
H31_2 C32_2 1_555 1_555
C33_2 C34_2 1_555 1_555
C34_2 C32_2 1_555 1_555
H32_2 C34_2 1_555 1_555
O10_2 C33_2 1_555 1_555
H33_2 C35_2 1_555 1_555
H34_2 C35_2 1_555 1_555
C36_2 N4_2 1_555 1_555
H35_2 C36_2 1_555 1_555
H36_2 C36_2 1_555 1_555
O11_2 C33_2 1_555 1_555
N5_2 Cu1_3 1_555 1_555
C37_2 N5_2 1_555 1_555
H37_2 C37_2 1_555 1_555
H38_2 C37_2 1_555 1_555
C38_2 C37_2 1_555 1_555
C39_2 C38_2 1_555 1_555
H39_2 C39_2 1_555 1_555
C40_2 C39_2 1_555 1_555
H40_2 C40_2 1_555 1_555
C41_2 C40_2 1_555 1_555
C42_2 C41_2 1_555 1_555
H41_2 C42_2 1_555 1_555
C43_2 C38_2 1_555 1_555
H42_2 C43_2 1_555 1_555
C44_2 C41_2 1_555 1_555
H43_2 C44_2 1_555 1_555
C45_2 C46_2 1_555 1_555
C46_2 C44_2 1_555 1_555
H44_2 C46_2 1_555 1_555
O12_2 C45_2 1_555 1_555
H45_2 C47_2 1_555 1_555
H46_2 C47_2 1_555 1_555
C48_2 C36_2 1_555 1_555
H47_2 C48_2 1_555 1_555
H48_2 C48_2 1_555 1_555
O16 C45_2 1_555 1_555
Cu8 O12_2 1_555 1_555
Cu6 O11_2 1_555 1_555
N4_2 C35_2 1_555 1_555
C30_2 C31_2 1_555 1_555
N5_2 C47_2 1_555 1_555
N5_2 C48_2 1_555 1_555
C42_2 C43_2 1_555 1_555
O14_2 Cu5 1_555 1_555
Cu1_4 O5_4 1_555 1_555
O4_2 C9_2 1_555 1_555
N2_2 Cu1_4 1_555 1_555
C1_2 N2_2 1_555 1_555
H1_2 C1_2 1_555 1_555
H2_2 C1_2 1_555 1_555
C2_2 C1_2 1_555 1_555
C3_2 C2_2 1_555 1_555
H3_2 C3_2 1_555 1_555
C4_2 C3_2 1_555 1_555
H4_2 C4_2 1_555 1_555
C5_2 C4_2 1_555 1_555
C6_2 C5_2 1_555 1_555
H5_2 C6_2 1_555 1_555
C7_2 C2_2 1_555 1_555
H6_2 C7_2 1_555 1_555
C8_2 C5_2 1_555 1_555
H7_2 C8_2 1_555 1_555
C9_2 C10_2 1_555 1_555
C10_2 C8_2 1_555 1_555
H8_2 C10_2 1_555 1_555
C11_2 N2_2 1_555 1_555
H9_2 C11_2 1_555 1_555
H10_2 C11_2 1_555 1_555
C12_2 N2_2 1_555 1_555
H11_2 C12_2 1_555 1_555
H12_2 C12_2 1_555 1_555
N3_2 Cu1_4 1_555 1_555
C13_2 N3_2 1_555 1_555
H13_2 C13_2 1_555 1_555
H14_2 C13_2 1_555 1_555
C14_2 C13_2 1_555 1_555
C15_2 C14_2 1_555 1_555
H15_2 C15_2 1_555 1_555
C16_2 C15_2 1_555 1_555
H16_2 C16_2 1_555 1_555
C17_2 C16_2 1_555 1_555
C18_2 C17_2 1_555 1_555
H17_2 C18_2 1_555 1_555
C19_2 C14_2 1_555 1_555
H18_2 C19_2 1_555 1_555
C20_2 C17_2 1_555 1_555
H19_2 C20_2 1_555 1_555
C21_2 C22_2 1_555 1_555
C22_2 C20_2 1_555 1_555
H20_2 C22_2 1_555 1_555
O8_2 C21_2 1_555 1_555
C23_2 N3_2 1_555 1_555
H21_2 C23_2 1_555 1_555
H22_2 C23_2 1_555 1_555
C24_2 C12_2 1_555 1_555
H23_2 C24_2 1_555 1_555
H24_2 C24_2 1_555 1_555
O18 C21_2 1_555 1_555
Cu8 O8_2 1_555 1_555
O4_2 Cu6 1_555 1_555
C6_2 C7_2 1_555 1_555
C9_2 O19_2 1_555 1_555
N3_2 C24_2 1_555 1_555
C18_2 C19_2 1_555 1_555
O14_3 Cu8 1_555 1_555
Cu6 O6 1_555 1_555
Cu1_5 O5_5 1_555 1_555
Cu2 O6_2 1_555 1_555
O4_3 C9_3 1_555 1_555
N2_3 Cu1_5 1_555 1_555
C1_3 N2_3 1_555 1_555
H1_3 C1_3 1_555 1_555
H2_3 C1_3 1_555 1_555
C2_3 C1_3 1_555 1_555
C3_3 C2_3 1_555 1_555
H3_3 C3_3 1_555 1_555
C4_3 C3_3 1_555 1_555
H4_3 C4_3 1_555 1_555
C5_3 C4_3 1_555 1_555
C6_3 C5_3 1_555 1_555
H5_3 C6_3 1_555 1_555
C7_3 C2_3 1_555 1_555
H6_3 C7_3 1_555 1_555
C8_3 C5_3 1_555 1_555
H7_3 C8_3 1_555 1_555
C9_3 C10_3 1_555 1_555
C10_3 C8_3 1_555 1_555
H8_3 C10_3 1_555 1_555
O7 Cu2 1_555 1_555
C11_3 N2_3 1_555 1_555
H9_3 C11_3 1_555 1_555
H10_3 C11_3 1_555 1_555
C12_3 N2_3 1_555 1_555
H11_3 C12_3 1_555 1_555
H12_3 C12_3 1_555 1_555
N3_3 Cu1_5 1_555 1_555
C13_3 N3_3 1_555 1_555
H13_3 C13_3 1_555 1_555
H14_3 C13_3 1_555 1_555
C14_3 C13_3 1_555 1_555
C15_3 C14_3 1_555 1_555
H15_3 C15_3 1_555 1_555
C16_3 C15_3 1_555 1_555
H16_3 C16_3 1_555 1_555
C17_3 C16_3 1_555 1_555
C18_3 C17_3 1_555 1_555
H17_3 C18_3 1_555 1_555
C19_3 C14_3 1_555 1_555
H18_3 C19_3 1_555 1_555
C20_3 C17_3 1_555 1_555
H19_3 C20_3 1_555 1_555
C21_3 C22_3 1_555 1_555
C22_3 C20_3 1_555 1_555
H20_3 C22_3 1_555 1_555
O8_3 C21_3 1_555 1_555
C23_3 N3_3 1_555 1_555
H21_3 C23_3 1_555 1_555
H22_3 C23_3 1_555 1_555
C24_3 C12_3 1_555 1_555
H23_3 C24_3 1_555 1_555
H24_3 C24_3 1_555 1_555
O9_2 C21_3 1_555 1_555
Cu4 O9_2 1_555 1_555
Cu7 Cu2 1_555 1_555
O15 Cu2 1_555 1_555
O4_3 Cu7 1_555 1_555
C6_3 C7_3 1_555 1_555
C9_3 O7 1_555 1_555
N3_3 C24_3 1_555 1_555
C18_3 C19_3 1_555 1_555
Cu1_6 O5_6 1_555 1_555
O4_4 C9_4 1_555 1_555
N2_4 Cu1_6 1_555 1_555
C1_4 N2_4 1_555 1_555
H1_4 C1_4 1_555 1_555
H2_4 C1_4 1_555 1_555
C2_4 C1_4 1_555 1_555
C3_4 C2_4 1_555 1_555
H3_4 C3_4 1_555 1_555
C4_4 C3_4 1_555 1_555
H4_4 C4_4 1_555 1_555
C5_4 C4_4 1_555 1_555
C6_4 C5_4 1_555 1_555
H5_4 C6_4 1_555 1_555
C7_4 C2_4 1_555 1_555
H6_4 C7_4 1_555 1_555
C8_4 C5_4 1_555 1_555
H7_4 C8_4 1_555 1_555
C9_4 C10_4 1_555 1_555
C10_4 C8_4 1_555 1_555
H8_4 C10_4 1_555 1_555
C11_4 N2_4 1_555 1_555
H9_4 C11_4 1_555 1_555
H10_4 C11_4 1_555 1_555
C12_4 N2_4 1_555 1_555
H11_4 C12_4 1_555 1_555
H12_4 C12_4 1_555 1_555
N3_4 Cu1_6 1_555 1_555
C13_4 N3_4 1_555 1_555
H13_4 C13_4 1_555 1_555
H14_4 C13_4 1_555 1_555
C14_4 C13_4 1_555 1_555
C15_4 C14_4 1_555 1_555
H15_4 C15_4 1_555 1_555
C16_4 C15_4 1_555 1_555
H16_4 C16_4 1_555 1_555
C17_4 C16_4 1_555 1_555
C18_4 C17_4 1_555 1_555
H17_4 C18_4 1_555 1_555
C19_4 C14_4 1_555 1_555
H18_4 C19_4 1_555 1_555
C20_4 C17_4 1_555 1_555
H19_4 C20_4 1_555 1_555
C21_4 C22_4 1_555 1_555
C22_4 C20_4 1_555 1_555
H20_4 C22_4 1_555 1_555
O8_4 C21_4 1_555 1_555
C23_4 N3_4 1_555 1_555
H21_4 C23_4 1_555 1_555
H22_4 C23_4 1_555 1_555
C24_4 C12_4 1_555 1_555
H23_4 C24_4 1_555 1_555
H24_4 C24_4 1_555 1_555
O9_3 C21_4 1_555 1_555
N4_3 Cu1_6 1_555 1_555
C25_3 N4_3 1_555 1_555
H25_3 C25_3 1_555 1_555
H26_3 C25_3 1_555 1_555
C26_3 C25_3 1_555 1_555
C27_3 C26_3 1_555 1_555
H27_3 C27_3 1_555 1_555
C28_3 C27_3 1_555 1_555
H28_3 C28_3 1_555 1_555
C29_3 C28_3 1_555 1_555
C30_3 C29_3 1_555 1_555
H29_3 C30_3 1_555 1_555
C31_3 C26_3 1_555 1_555
H30_3 C31_3 1_555 1_555
C32_3 C29_3 1_555 1_555
H31_3 C32_3 1_555 1_555
C33_3 C34_3 1_555 1_555
C34_3 C32_3 1_555 1_555
H32_3 C34_3 1_555 1_555
O10_3 C33_3 1_555 1_555
C35_3 C11_4 1_555 1_555
H33_3 C35_3 1_555 1_555
H34_3 C35_3 1_555 1_555
C36_3 N4_3 1_555 1_555
H35_3 C36_3 1_555 1_555
H36_3 C36_3 1_555 1_555
O11_3 C33_3 1_555 1_555
N5_3 Cu1_6 1_555 1_555
C37_3 N5_3 1_555 1_555
H37_3 C37_3 1_555 1_555
H38_3 C37_3 1_555 1_555
C38_3 C37_3 1_555 1_555
C39_3 C38_3 1_555 1_555
H39_3 C39_3 1_555 1_555
C40_3 C39_3 1_555 1_555
H40_3 C40_3 1_555 1_555
C41_3 C40_3 1_555 1_555
C42_3 C41_3 1_555 1_555
H41_3 C42_3 1_555 1_555
C43_3 C38_3 1_555 1_555
H42_3 C43_3 1_555 1_555
C44_3 C41_3 1_555 1_555
H43_3 C44_3 1_555 1_555
C45_3 C46_3 1_555 1_555
C46_3 C44_3 1_555 1_555
H44_3 C46_3 1_555 1_555
O12_3 C45_3 1_555 1_555
C47_3 C23_4 1_555 1_555
H45_3 C47_3 1_555 1_555
H46_3 C47_3 1_555 1_555
C48_3 C36_3 1_555 1_555
H47_3 C48_3 1_555 1_555
H48_3 C48_3 1_555 1_555
O15 C45_3 1_555 1_555
Cu4_2 O9_3 1_555 1_555
Cu7 O12_3 1_555 1_555
Cu9 O11_3 1_555 1_555
Cu9_2 O8_4 1_555 1_555
O4_4 Cu7_2 1_555 1_555
C6_4 C7_4 1_555 1_555
C9_4 O7_2 1_555 1_555
N3_4 C24_4 1_555 1_555
C18_4 C19_4 1_555 1_555
N4_3 C35_3 1_555 1_555
C30_3 C31_3 1_555 1_555
N5_3 C47_3 1_555 1_555
N5_3 C48_3 1_555 1_555
C42_3 C43_3 1_555 1_555
Cu4_2 Cu9_2 1_555 1_555
Cu2_2 O6_3 1_555 1_555
O14_4 Cu4 1_555 1_555
O15_2 Cu2_2 1_555 1_555
Cu1_7 O5_7 1_555 1_555
N4_4 Cu1_7 1_555 1_555
C25_4 N4_4 1_555 1_555
H25_4 C25_4 1_555 1_555
H26_4 C25_4 1_555 1_555
C26_4 C25_4 1_555 1_555
C27_4 C26_4 1_555 1_555
H27_4 C27_4 1_555 1_555
C28_4 C27_4 1_555 1_555
H28_4 C28_4 1_555 1_555
C29_4 C28_4 1_555 1_555
C30_4 C29_4 1_555 1_555
H29_4 C30_4 1_555 1_555
C31_4 C26_4 1_555 1_555
H30_4 C31_4 1_555 1_555
C32_4 C29_4 1_555 1_555
H31_4 C32_4 1_555 1_555
C33_4 C34_4 1_555 1_555
C34_4 C32_4 1_555 1_555
H32_4 C34_4 1_555 1_555
O10_4 C33_4 1_555 1_555
H33_4 C35_4 1_555 1_555
H34_4 C35_4 1_555 1_555
C36_4 N4_4 1_555 1_555
H35_4 C36_4 1_555 1_555
H36_4 C36_4 1_555 1_555
O11_4 C33_4 1_555 1_555
N5_4 Cu1_7 1_555 1_555
C37_4 N5_4 1_555 1_555
H37_4 C37_4 1_555 1_555
H38_4 C37_4 1_555 1_555
C38_4 C37_4 1_555 1_555
C39_4 C38_4 1_555 1_555
H39_4 C39_4 1_555 1_555
C40_4 C39_4 1_555 1_555
H40_4 C40_4 1_555 1_555
C41_4 C40_4 1_555 1_555
C42_4 C41_4 1_555 1_555
H41_4 C42_4 1_555 1_555
C43_4 C38_4 1_555 1_555
H42_4 C43_4 1_555 1_555
C44_4 C41_4 1_555 1_555
H43_4 C44_4 1_555 1_555
C45_4 C46_4 1_555 1_555
C46_4 C44_4 1_555 1_555
H44_4 C46_4 1_555 1_555
O12_4 C45_4 1_555 1_555
H45_4 C47_4 1_555 1_555
H46_4 C47_4 1_555 1_555
C48_4 C36_4 1_555 1_555
H47_4 C48_4 1_555 1_555
H48_4 C48_4 1_555 1_555
O15_2 C45_4 1_555 1_555
Cu4_2 O10_4 1_555 1_555
O14_5 Cu4_2 1_555 1_555
Cu9_2 O11_4 1_555 1_555
N4_4 C35_4 1_555 1_555
C30_4 C31_4 1_555 1_555
N5_4 C47_4 1_555 1_555
N5_4 C48_4 1_555 1_555
C42_4 C43_4 1_555 1_555
Cu9_2 O6_4 1_555 1_555
O14_6 Cu9 1_555 1_555
Cu7 O6_5 1_555 1_555
Cu7_2 O6_6 1_555 1_555
Cu2_3 O6_7 1_555 1_555
Cu7_3 Cu2_3 1_555 1_555
O17 Cu2_3 1_555 1_555
O20 Cu2_3 1_555 1_555
Cu4_4 Cu9_4 1_555 1_555
Cu2_4 O6_8 1_555 1_555
O17_2 Cu2_4 1_555 1_555
O14_7 Cu4_3 1_555 1_555
O16_2 Cu4_3 1_555 1_555
O14_8 Cu4_4 1_555 1_555
O16_3 Cu4_4 1_555 1_555
O19_4 Cu4_4 1_555 1_555
Cu1_8 O5_8 1_555 1_555
O4_5 C9_5 1_555 1_555
N2_5 Cu1_8 1_555 1_555
C1_5 N2_5 1_555 1_555
H1_5 C1_5 1_555 1_555
H2_5 C1_5 1_555 1_555
C2_5 C1_5 1_555 1_555
C3_5 C2_5 1_555 1_555
H3_5 C3_5 1_555 1_555
C4_5 C3_5 1_555 1_555
H4_5 C4_5 1_555 1_555
C5_5 C4_5 1_555 1_555
C6_5 C5_5 1_555 1_555
H5_5 C6_5 1_555 1_555
C7_5 C2_5 1_555 1_555
H6_5 C7_5 1_555 1_555
C8_5 C5_5 1_555 1_555
H7_5 C8_5 1_555 1_555
C9_5 C10_5 1_555 1_555
C10_5 C8_5 1_555 1_555
H8_5 C10_5 1_555 1_555
C11_5 N2_5 1_555 1_555
H9_5 C11_5 1_555 1_555
H10_5 C11_5 1_555 1_555
C12_5 N2_5 1_555 1_555
H11_5 C12_5 1_555 1_555
H12_5 C12_5 1_555 1_555
N3_5 Cu1_8 1_555 1_555
C13_5 N3_5 1_555 1_555
H13_5 C13_5 1_555 1_555
H14_5 C13_5 1_555 1_555
C14_5 C13_5 1_555 1_555
C15_5 C14_5 1_555 1_555
H15_5 C15_5 1_555 1_555
C16_5 C15_5 1_555 1_555
H16_5 C16_5 1_555 1_555
C17_5 C16_5 1_555 1_555
C18_5 C17_5 1_555 1_555
H17_5 C18_5 1_555 1_555
C19_5 C14_5 1_555 1_555
H18_5 C19_5 1_555 1_555
C20_5 C17_5 1_555 1_555
H19_5 C20_5 1_555 1_555
C21_5 C22_5 1_555 1_555
C22_5 C20_5 1_555 1_555
H20_5 C22_5 1_555 1_555
O8_5 C21_5 1_555 1_555
C23_5 N3_5 1_555 1_555
H21_5 C23_5 1_555 1_555
H22_5 C23_5 1_555 1_555
C24_5 C12_5 1_555 1_555
H23_5 C24_5 1_555 1_555
H24_5 C24_5 1_555 1_555
O17 C21_5 1_555 1_555
Cu7_3 O8_5 1_555 1_555
O4_5 Cu9_3 1_555 1_555
C6_5 C7_5 1_555 1_555
C9_5 O19_3 1_555 1_555
N3_5 C24_5 1_555 1_555
C18_5 C19_5 1_555 1_555
Cu1_9 O5_9 1_555 1_555
O4_6 C9_6 1_555 1_555
N2_6 Cu1_9 1_555 1_555
C1_6 N2_6 1_555 1_555
H1_6 C1_6 1_555 1_555
H2_6 C1_6 1_555 1_555
C2_6 C1_6 1_555 1_555
C3_6 C2_6 1_555 1_555
H3_6 C3_6 1_555 1_555
C4_6 C3_6 1_555 1_555
H4_6 C4_6 1_555 1_555
C5_6 C4_6 1_555 1_555
C6_6 C5_6 1_555 1_555
H5_6 C6_6 1_555 1_555
C7_6 C2_6 1_555 1_555
H6_6 C7_6 1_555 1_555
C8_6 C5_6 1_555 1_555
H7_6 C8_6 1_555 1_555
C9_6 C10_6 1_555 1_555
C10_6 C8_6 1_555 1_555
H8_6 C10_6 1_555 1_555
C11_6 N2_6 1_555 1_555
H9_6 C11_6 1_555 1_555
H10_6 C11_6 1_555 1_555
C12_6 N2_6 1_555 1_555
H11_6 C12_6 1_555 1_555
H12_6 C12_6 1_555 1_555
N3_6 Cu1_9 1_555 1_555
C13_6 N3_6 1_555 1_555
H13_6 C13_6 1_555 1_555
H14_6 C13_6 1_555 1_555
C14_6 C13_6 1_555 1_555
C15_6 C14_6 1_555 1_555
H15_6 C15_6 1_555 1_555
C16_6 C15_6 1_555 1_555
H16_6 C16_6 1_555 1_555
C17_6 C16_6 1_555 1_555
C18_6 C17_6 1_555 1_555
H17_6 C18_6 1_555 1_555
C19_6 C14_6 1_555 1_555
H18_6 C19_6 1_555 1_555
C20_6 C17_6 1_555 1_555
H19_6 C20_6 1_555 1_555
C21_6 C22_6 1_555 1_555
C22_6 C20_6 1_555 1_555
H20_6 C22_6 1_555 1_555
O8_6 C21_6 1_555 1_555
C23_6 N3_6 1_555 1_555
H21_6 C23_6 1_555 1_555
H22_6 C23_6 1_555 1_555
C24_6 C12_6 1_555 1_555
H23_6 C24_6 1_555 1_555
H24_6 C24_6 1_555 1_555
O17_2 C21_6 1_555 1_555
N4_5 Cu1_9 1_555 1_555
C25_5 N4_5 1_555 1_555
H25_5 C25_5 1_555 1_555
H26_5 C25_5 1_555 1_555
C26_5 C25_5 1_555 1_555
C27_5 C26_5 1_555 1_555
H27_5 C27_5 1_555 1_555
C28_5 C27_5 1_555 1_555
H28_5 C28_5 1_555 1_555
C29_5 C28_5 1_555 1_555
C30_5 C29_5 1_555 1_555
H29_5 C30_5 1_555 1_555
C31_5 C26_5 1_555 1_555
H30_5 C31_5 1_555 1_555
C32_5 C29_5 1_555 1_555
H31_5 C32_5 1_555 1_555
C33_5 C34_5 1_555 1_555
C34_5 C32_5 1_555 1_555
H32_5 C34_5 1_555 1_555
O20 C33_5 1_555 1_555
C35_5 C11_6 1_555 1_555
H33_5 C35_5 1_555 1_555
H34_5 C35_5 1_555 1_555
C36_5 N4_5 1_555 1_555
H35_5 C36_5 1_555 1_555
H36_5 C36_5 1_555 1_555
O11_5 C33_5 1_555 1_555
N5_5 Cu1_9 1_555 1_555
C37_5 N5_5 1_555 1_555
H37_5 C37_5 1_555 1_555
H38_5 C37_5 1_555 1_555
C38_5 C37_5 1_555 1_555
C39_5 C38_5 1_555 1_555
H39_5 C39_5 1_555 1_555
C40_5 C39_5 1_555 1_555
H40_5 C40_5 1_555 1_555
C41_5 C40_5 1_555 1_555
C42_5 C41_5 1_555 1_555
H41_5 C42_5 1_555 1_555
C43_5 C38_5 1_555 1_555
H42_5 C43_5 1_555 1_555
C44_5 C41_5 1_555 1_555
H43_5 C44_5 1_555 1_555
C45_5 C46_5 1_555 1_555
C46_5 C44_5 1_555 1_555
H44_5 C46_5 1_555 1_555
O12_5 C45_5 1_555 1_555
C47_5 C23_6 1_555 1_555
H45_5 C47_5 1_555 1_555
H46_5 C47_5 1_555 1_555
C48_5 C36_5 1_555 1_555
H47_5 C48_5 1_555 1_555
H48_5 C48_5 1_555 1_555
O16_2 C45_5 1_555 1_555
Cu7_3 O11_5 1_555 1_555
O4_6 Cu9_4 1_555 1_555
C6_6 C7_6 1_555 1_555
C9_6 O19_4 1_555 1_555
N3_6 C24_6 1_555 1_555
C18_6 C19_6 1_555 1_555
N4_5 C35_5 1_555 1_555
C30_5 C31_5 1_555 1_555
N5_5 C47_5 1_555 1_555
N5_5 C48_5 1_555 1_555
C42_5 C43_5 1_555 1_555
Cu1_10 O5_10 1_555 1_555
N4_6 Cu1_10 1_555 1_555
C25_6 N4_6 1_555 1_555
H25_6 C25_6 1_555 1_555
H26_6 C25_6 1_555 1_555
C26_6 C25_6 1_555 1_555
C27_6 C26_6 1_555 1_555
H27_6 C27_6 1_555 1_555
C28_6 C27_6 1_555 1_555
H28_6 C28_6 1_555 1_555
C29_6 C28_6 1_555 1_555
C30_6 C29_6 1_555 1_555
H29_6 C30_6 1_555 1_555
C31_6 C26_6 1_555 1_555
H30_6 C31_6 1_555 1_555
C32_6 C29_6 1_555 1_555
H31_6 C32_6 1_555 1_555
C33_6 C34_6 1_555 1_555
C34_6 C32_6 1_555 1_555
H32_6 C34_6 1_555 1_555
O20_2 C33_6 1_555 1_555
H33_6 C35_6 1_555 1_555
H34_6 C35_6 1_555 1_555
C36_6 N4_6 1_555 1_555
H35_6 C36_6 1_555 1_555
H36_6 C36_6 1_555 1_555
O11_6 C33_6 1_555 1_555
N5_6 Cu1_10 1_555 1_555
C37_6 N5_6 1_555 1_555
H37_6 C37_6 1_555 1_555
H38_6 C37_6 1_555 1_555
C38_6 C37_6 1_555 1_555
C39_6 C38_6 1_555 1_555
H39_6 C39_6 1_555 1_555
C40_6 C39_6 1_555 1_555
H40_6 C40_6 1_555 1_555
C41_6 C40_6 1_555 1_555
C42_6 C41_6 1_555 1_555
H41_6 C42_6 1_555 1_555
C43_6 C38_6 1_555 1_555
H42_6 C43_6 1_555 1_555
C44_6 C41_6 1_555 1_555
H43_6 C44_6 1_555 1_555
C45_6 C46_6 1_555 1_555
C46_6 C44_6 1_555 1_555
H44_6 C46_6 1_555 1_555
O12_6 C45_6 1_555 1_555
H45_6 C47_6 1_555 1_555
H46_6 C47_6 1_555 1_555
C48_6 C36_6 1_555 1_555
H47_6 C48_6 1_555 1_555
H48_6 C48_6 1_555 1_555
O16_3 C45_6 1_555 1_555
Cu9_4 O12_6 1_555 1_555
Cu7_4 O11_6 1_555 1_555
N4_6 C35_6 1_555 1_555
C30_6 C31_6 1_555 1_555
N5_6 C47_6 1_555 1_555
N5_6 C48_6 1_555 1_555
C42_6 C43_6 1_555 1_555
Cu9_4 O6_9 1_555 1_555
O14_9 Cu9_3 1_555 1_555
Cu7_3 O6_10 1_555 1_555
Cu7_4 O6_11 1_555 1_555

#END
