
###############################################################################
#
# This file contains modified crystal structure data generated from the
# MOF subset of the Cambridge Structural Database (CSD) v543 
# hosted by the Cambridge Crystallographic Data Centre (CCDC).
#
# This work is licensed under the Creative Commons
# Attribution-NonCommercial-ShareAlike 4.0 International License.
# To view a copy of this license, visit
# http://creativecommons.org/licenses/by-nc-sa/4.0/
# or send a letter to
# Creative Commons, PO Box 1866, Mountain View, CA 94042, USA.
#
# CIF created using the CSD Python API on 29 September 2022
# The structure has been converted into the P1 space group
# The structure has a 3D framework
# The original CSD entry XIMNOZ is in the monoclinic crystal system
# The framework has been calculated to contain at least 10.0% void space
# The void calculation uses a probe of radius 1.32A, grid spacing 0.4
# H atom positions have been added when not included in the experimental data
#
###############################################################################

data_XIMNOZ
_chemical_formula_moiety         '(C144 H120 N32 O36 Zn8)n'
_symmetry_cell_setting           triclinic
_symmetry_space_group_name_H-M   'P 1'
_symmetry_Int_Tables_number      1
_space_group_name_Hall           'P 1'
loop_
_symmetry_equiv_pos_site_id
_symmetry_equiv_pos_as_xyz
1 x,y,z
_cell_length_a                   13.856(5)
_cell_length_b                   19.755(5)
_cell_length_c                   15.877(5)
_cell_angle_alpha                90
_cell_angle_beta                 90.356(5)
_cell_angle_gamma                90
_cell_volume                     4345.85
loop_
_atom_site_label
_atom_site_type_symbol
_atom_site_fract_x
_atom_site_fract_y
_atom_site_fract_z
Zn1 Zn 0.59393(4) 0.23425(3) 0.24976(3)
Zn2 Zn 0.32204(4) 0.27284(2) 0.25635(3)
O2 O 0.4500(2) 0.20163(16) 0.2388(2)
O3 O 0.3850(3) 0.36314(17) 0.2810(2)
O4 O 0.5395(3) 0.33073(17) 0.2713(3)
C1 C 0.5761(4) 0.1956(3) 0.0652(4)
H1 H 0.5690 0.1528 0.0888
C3 C 0.4760(4) 0.3742(2) 0.2754(3)
N3 N 0.5884(3) 0.2489(2) 0.1168(3)
N5 N 0.6192(4) 0.4392(2) 0.0087(3)
N6 N 0.5913(3) 0.2097(2) 0.3809(3)
C4 C 0.7244(4) 0.5523(3) 0.2689(3)
H3 H 0.7724 0.5194 0.2689
C5 C 0.3908(4) 0.1529(2) 0.2308(3)
N8 N 0.6233(3) 0.0100(2) 0.4678(3)
C8 C 0.5994(4) 0.4637(2) 0.2700(3)
H6 H 0.6453 0.4294 0.2672
C9 C 0.6382(4) 0.5495(3) 0.0159(3)
H7 H 0.6371 0.5401 0.0732
C12 C 0.6318(4) 0.5336(2) 0.2697(3)
H10 H 0.5851 0.5674 0.2700
C13 C 0.5052(4) 0.4465(2) 0.2741(3)
H11 H 0.4584 0.4802 0.2761
C15 C 0.3696(4) 0.0290(2) 0.2261(3)
H13 H 0.3034 0.0364 0.2248
C16 C 0.4282(4) 0.0830(2) 0.2270(3)
H14 H 0.4945 0.0762 0.2253
C18 C 0.5960(4) 0.1273(3) 0.4929(3)
C22 C 0.7522(4) 0.6256(2) 0.2681(3)
C25 C 0.5983(4) 0.3104(2) 0.0820(3)
H19 H 0.6074 0.3474 0.1173
C26 C 0.6702(5) 0.7369(3) 0.0221(4)
H20 H 0.6742 0.7720 0.0610
C27 C 0.6055(4) 0.0569(3) 0.5189(4)
H21 H 0.5982 0.0463 0.5756
C29 C 0.5842(4) 0.2586(3) 0.4388(3)
H23 H 0.5811 0.3033 0.4206
C30 C 0.6574(4) 0.6711(3) 0.0487(3)
H24 H 0.6535 0.6611 0.1059
C32 C 0.5972(4) 0.1454(3) 0.4074(3)
H25 H 0.6023 0.1113 0.3673
C33 C 0.5874(4) 0.1795(3) 0.5509(3)
H26 H 0.5858 0.1696 0.6081
C34 C 0.5813(4) 0.2460(3) 0.5244(4)
H27 H 0.5754 0.2811 0.5630
O5 O 0.8414(3) 0.63877(17) 0.2717(2)
O6 O 0.3022(3) 0.16498(16) 0.2286(2)
O7 O 0.7291(3) 0.2828(2) 0.2592(3)
O8 O 0.6867(3) 0.66852(19) 0.2615(3)
Zn3 Zn 0.90607(4) 0.73425(3) 0.25024(3)
O10 O 0.1788(2) 0.28856(16) 0.2643(2)
N9 N 0.3307(3) 0.2473(2) 0.3918(3)
N10 N 0.3297(3) 0.2985(2) 0.1220(3)
O11 O 0.6586(3) 0.13877(17) 0.2283(2)
H29 H 0.729675 0.313067 0.309135
H30 H 0.780725 0.248254 0.265333
C2 C 0.6768(4) 0.7498(3) 0.9372(3)
H2 H 0.6864 0.7943 0.9200
N1 N 0.6290(4) 0.5005(2) 0.9640(3)
N4 N 0.6703(3) 0.7015(2) 0.8780(3)
C11 C 0.6072(4) 0.3885(3) 0.9599(3)
H9 H 0.6060 0.3945 0.9018
C17 C 0.5843(4) 0.2650(3) 0.9436(3)
H15 H 0.5841 0.2703 0.8854
C21 C 0.5954(4) 0.3210(3) 0.9959(3)
C24 C 0.5735(4) 0.2018(3) 0.9786(3)
H18 H 0.5646 0.1640 0.9446
C31 C 0.6505(4) 0.6196(3) 0.9890(3)
C35 C 0.6588(4) 0.6378(2) 0.9041(3)
H28 H 0.6562 0.6037 0.8638
Zn6 Zn 0.67796(4) 0.72716(2) 0.74365(3)
O1 O 0.3212(2) 0.78856(16) 0.2357(2)
N2 N 0.6693(3) 0.7527(2) 0.6082(3)
N7 N 0.6297(4) 0.9471(2) 0.5095(3)
C6 C 0.4033(4) 0.9605(2) 0.2269(3)
H4 H 0.4696 0.9532 0.2281
C7 C 0.6740(4) 0.7012(3) 0.5537(3)
H5 H 0.6804 0.6575 0.5749
C10 C 0.6471(4) 0.8983(3) 0.4607(4)
H8 H 0.6539 0.9069 0.4034
C14 C 0.3458(4) 0.9067(2) 0.2260(3)
H12 H 0.2795 0.9135 0.2228
C19 C 0.6613(4) 0.7752(3) 0.4356(3)
H16 H 0.6586 0.7827 0.3778
C20 C 0.3822(4) 0.8362(2) 0.2301(3)
C23 C 0.6615(4) 0.8155(3) 0.5773(3)
H17 H 0.6593 0.8517 0.6148
C28 C 0.6699(4) 0.7099(3) 0.4670(4)
H22 H 0.6728 0.6729 0.4308
C36 C 0.6567(4) 0.8291(3) 0.4908(3)
O9 O 0.4714(3) 0.82619(17) 0.2282(3)
Zn4 Zn 0.17796(4) 0.77284(2) 0.24365(3)
O2_2 O 0.0500(2) 0.70163(16) 0.2612(2)
O3_2 O 0.1150(3) 0.86314(17) 0.2190(2)
C3_2 C 0.0240(4) 0.8742(2) 0.2246(3)
C5_2 C 0.1092(4) 0.6529(2) 0.2692(3)
C6_2 C 0.0967(4) 0.4605(2) 0.2731(3)
H4_2 H 0.0304 0.4532 0.2719
H11_2 H 0.0416 0.9802 0.2239
C14_2 C 0.1542(4) 0.4067(2) 0.2740(3)
H12_2 H 0.2205 0.4135 0.2772
C15_2 C 0.1304(4) 0.5290(2) 0.2739(3)
H13_2 H 0.1966 0.5364 0.2752
C16_2 C 0.0718(4) 0.5830(2) 0.2730(3)
H14_2 H 0.0055 0.5762 0.2747
C20_2 C 0.1178(4) 0.3362(2) 0.2699(3)
O6_2 O 0.1978(3) 0.66498(16) 0.2714(2)
O9_2 O 0.0286(3) 0.32619(17) 0.2718(3)
N9_2 N 0.1693(3) 0.7473(2) 0.1082(3)
N10_2 N 0.1703(3) 0.7985(2) 0.3780(3)
C2_2 C 0.8232(4) 0.2498(3) 0.5628(3)
H2_2 H 0.8136 0.2943 0.5800
N1_2 N 0.8710(4) 0.0005(2) 0.5360(3)
N4_2 N 0.8297(3) 0.2015(2) 0.6220(3)
C4_2 C 0.7756(4) 0.0523(3) 0.2311(3)
H3_2 H 0.7276 0.0194 0.2311
C9_2 C 0.8618(4) 0.0495(3) 0.4841(3)
H7_2 H 0.8629 0.0401 0.4268
C12_2 C 0.8682(4) 0.0336(2) 0.2303(3)
H10_2 H 0.9149 0.0674 0.2300
C22_2 C 0.7478(4) 0.1256(2) 0.2319(3)
C26_2 C 0.8298(5) 0.2369(3) 0.4779(4)
H20_2 H 0.8258 0.2720 0.4390
C30_2 C 0.8426(4) 0.1711(3) 0.4513(3)
H24_2 H 0.8465 0.1611 0.3941
C31_2 C 0.8495(4) 0.1196(3) 0.5110(3)
C35_2 C 0.8412(4) 0.1378(2) 0.5959(3)
H28_2 H 0.8438 0.1037 0.6362
O8_2 O 0.8133(3) 0.16852(19) 0.2385(3)
Zn6_2 Zn 0.82204(4) 0.22716(2) 0.75635(3)
O4_2 O 0.9605(3) 0.83073(17) 0.2287(3)
C1_2 C 0.9239(4) 0.6956(3) 0.4348(4)
H1_2 H 0.9310 0.6528 0.4112
N3_2 N 0.9116(3) 0.7489(2) 0.3832(3)
N5_2 N 0.8808(4) 0.9392(2) 0.4913(3)
N6_2 N 0.9087(3) 0.7097(2) 0.1191(3)
N8_2 N 0.8767(3) 0.5100(2) 0.0322(3)
C8_2 C 0.9006(4) 0.9637(2) 0.2300(3)
H6_2 H 0.8547 0.9294 0.2328
C10_2 C 0.8529(4) 0.3983(3) 0.0393(4)
H8_2 H 0.8461 0.4069 0.0966
C11_2 C 0.8928(4) 0.8885(3) 0.5401(3)
H9_2 H 0.8940 0.8945 0.5982
C13_2 C 0.9948(4) 0.9465(2) 0.2259(3)
C17_2 C 0.9157(4) 0.7650(3) 0.5564(3)
H15_2 H 0.9159 0.7703 0.6146
C18_2 C 0.9040(4) 0.6273(3) 0.0071(3)
C19_2 C 0.8387(4) 0.2752(3) 0.0644(3)
H16_2 H 0.8414 0.2827 0.1222
C21_2 C 0.9046(4) 0.8210(3) 0.5041(3)
C24_2 C 0.9265(4) 0.7018(3) 0.5214(3)
H18_2 H 0.9354 0.6640 0.5554
C25_2 C 0.9017(4) 0.8104(2) 0.4180(3)
H19_2 H 0.8926 0.8474 0.3827
C28_2 C 0.8301(4) 0.2099(3) 0.0330(4)
H22_2 H 0.8272 0.1729 0.0692
C29_2 C 0.9158(4) 0.7586(3) 0.0612(3)
H23_2 H 0.9189 0.8033 0.0794
C32_2 C 0.9028(4) 0.6454(3) 0.0926(3)
H25_2 H 0.8977 0.6113 0.1327
O7_2 O 0.7709(3) 0.7828(2) 0.2408(3)
C36_2 C 0.8433(4) 0.3291(3) 0.0092(3)
H29_2 H 0.770325 0.813067 0.190865
H30_2 H 0.719275 0.748254 0.234667
N2_2 N 0.8307(3) 0.2527(2) 0.8918(3)
N7_2 N 0.8703(4) 0.4471(2) 0.9905(3)
C7_2 C 0.8260(4) 0.2012(3) 0.9463(3)
H5_2 H 0.8196 0.1575 0.9251
C23_2 C 0.8385(4) 0.3155(3) 0.9227(3)
H17_2 H 0.8407 0.3517 0.8852
C27_2 C 0.8945(4) 0.5569(3) 0.9811(4)
H21_2 H 0.9018 0.5463 0.9244
C33_2 C 0.9126(4) 0.6795(3) 0.9491(3)
H26_2 H 0.9142 0.6696 0.8919
C34_2 C 0.9187(4) 0.7460(3) 0.9756(4)
H27_2 H 0.9246 0.7811 0.9370
O1_2 O 0.6788(2) 0.21144(16) 0.7643(2)
N7_3 N 0.3703(4) 0.0529(2) 0.4905(3)
C6_3 C 0.5967(4) 0.0395(2) 0.7731(3)
H4_3 H 0.5304 0.0468 0.7719
C7_3 C 0.3260(4) 0.2988(3) 0.4463(3)
H5_3 H 0.3196 0.3425 0.4251
C10_3 C 0.3529(4) 0.1017(3) 0.5393(4)
H8_3 H 0.3461 0.0931 0.5966
C14_3 C 0.6542(4) 0.0933(2) 0.7740(3)
H12_3 H 0.7205 0.0865 0.7772
C19_3 C 0.3387(4) 0.2248(3) 0.5644(3)
H16_3 H 0.3414 0.2173 0.6222
C20_3 C 0.6178(4) 0.1638(2) 0.7699(3)
C23_3 C 0.3385(4) 0.1845(3) 0.4227(3)
H17_3 H 0.3407 0.1483 0.3852
C28_3 C 0.3301(4) 0.2901(3) 0.5330(4)
H22_3 H 0.3272 0.3271 0.5692
C36_3 C 0.3433(4) 0.1709(3) 0.5092(3)
O9_3 O 0.5286(3) 0.17381(17) 0.7718(3)
C2_3 C 0.3232(4) 0.2502(3) 0.0628(3)
H2_3 H 0.3136 0.2057 0.0800
N1_3 N 0.3710(4) 0.4995(2) 0.0360(3)
C11_3 C 0.3928(4) 0.6115(3) 0.0401(3)
H9_3 H 0.3940 0.6055 0.0982
C17_3 C 0.4157(4) 0.7350(3) 0.0564(3)
H15_3 H 0.4159 0.7297 0.1146
C21_3 C 0.4046(4) 0.6790(3) 0.0041(3)
C24_3 C 0.4265(4) 0.7982(3) 0.0214(3)
H18_3 H 0.4354 0.8360 0.0554
C31_3 C 0.3495(4) 0.3804(3) 0.0110(3)
C35_3 C 0.3412(4) 0.3622(2) 0.0959(3)
H28_3 H 0.3438 0.3963 0.1362
Zn1_2 Zn 0.40607(4) 0.76575(3) 0.75024(3)
O2_3 O 0.5500(2) 0.79837(16) 0.7612(2)
O3_3 O 0.6150(3) 0.63686(17) 0.7190(2)
O4_3 O 0.4605(3) 0.66927(17) 0.7287(3)
C1_3 C 0.4239(4) 0.8044(3) 0.9348(4)
H1_3 H 0.4310 0.8472 0.9112
C3_3 C 0.5240(4) 0.6258(2) 0.7246(3)
N3_3 N 0.4116(3) 0.7511(2) 0.8832(3)
N5_3 N 0.3808(4) 0.5608(2) 0.9913(3)
N6_3 N 0.4087(3) 0.7903(2) 0.6191(3)
C4_3 C 0.2756(4) 0.4477(3) 0.7311(3)
H3_3 H 0.2276 0.4806 0.7311
C5_3 C 0.6092(4) 0.8471(2) 0.7692(3)
N8_3 N 0.3767(3) 0.9900(2) 0.5322(3)
C8_3 C 0.4006(4) 0.5363(2) 0.7300(3)
H6_3 H 0.3547 0.5706 0.7328
C9_3 C 0.3618(4) 0.4505(3) 0.9841(3)
H7_3 H 0.3629 0.4599 0.9268
C12_3 C 0.3682(4) 0.4664(2) 0.7303(3)
H10_3 H 0.4149 0.4326 0.7300
C13_3 C 0.4948(4) 0.5535(2) 0.7259(3)
H11_3 H 0.5416 0.5198 0.7239
C15_3 C 0.6304(4) 0.9710(2) 0.7739(3)
H13_3 H 0.6966 0.9636 0.7752
C16_3 C 0.5718(4) 0.9170(2) 0.7730(3)
H14_3 H 0.5055 0.9238 0.7747
C18_3 C 0.4040(4) 0.8727(3) 0.5071(3)
C22_3 C 0.2478(4) 0.3744(2) 0.7319(3)
C25_3 C 0.4017(4) 0.6896(2) 0.9180(3)
H19_3 H 0.3926 0.6526 0.8827
C26_3 C 0.3298(5) 0.2631(3) 0.9779(4)
H20_3 H 0.3258 0.2280 0.9390
C27_3 C 0.3945(4) 0.9431(3) 0.4811(4)
H21_3 H 0.4018 0.9537 0.4244
C29_3 C 0.4158(4) 0.7414(3) 0.5612(3)
H23_3 H 0.4189 0.6967 0.5794
C30_3 C 0.3426(4) 0.3289(3) 0.9513(3)
H24_3 H 0.3465 0.3389 0.8941
C32_3 C 0.4028(4) 0.8546(3) 0.5926(3)
H25_3 H 0.3977 0.8887 0.6327
C33_3 C 0.4126(4) 0.8205(3) 0.4491(3)
H26_3 H 0.4142 0.8304 0.3919
C34_3 C 0.4187(4) 0.7540(3) 0.4756(4)
H27_3 H 0.4246 0.7189 0.4370
O5_2 O 0.1586(3) 0.36123(17) 0.7283(2)
O6_3 O 0.6978(3) 0.83502(16) 0.7714(2)
O7_3 O 0.2709(3) 0.7172(2) 0.7408(3)
O8_3 O 0.3133(3) 0.33148(19) 0.7385(3)
Zn3_2 Zn 0.09393(4) 0.26575(3) 0.74976(3)
O10_2 O 0.8212(2) 0.71144(16) 0.7357(2)
O11_2 O 0.3414(3) 0.86123(17) 0.7717(2)
H29_3 H 0.270325 0.686933 0.690865
H30_3 H 0.219275 0.751746 0.734667
N7_4 N 0.1297(4) 0.5529(2) 0.0095(3)
C7_4 C 0.1740(4) 0.7988(3) 0.0537(3)
H5_4 H 0.1804 0.8425 0.0749
C23_4 C 0.1615(4) 0.6845(3) 0.0773(3)
H17_4 H 0.1593 0.6483 0.1148
C27_4 C 0.1055(4) 0.4431(3) 0.0189(4)
H21_4 H 0.0982 0.4537 0.0756
C33_4 C 0.0874(4) 0.3205(3) 0.0509(3)
H26_4 H 0.0858 0.3304 0.1081
C34_4 C 0.0813(4) 0.2540(3) 0.0244(4)
H27_4 H 0.0754 0.2189 0.0630
O4_4 O 0.0395(3) 0.16927(17) 0.7713(3)
C1_4 C 0.0761(4) 0.3044(3) 0.5652(4)
H1_4 H 0.0690 0.3472 0.5888
N3_4 N 0.0884(3) 0.2511(2) 0.6168(3)
N5_4 N 0.1192(4) 0.0608(2) 0.5087(3)
N6_4 N 0.0913(3) 0.2903(2) 0.8809(3)
N8_4 N 0.1233(3) 0.4900(2) 0.9678(3)
C8_4 C 0.0994(4) 0.0363(2) 0.7700(3)
H6_4 H 0.1453 0.0706 0.7672
C10_4 C 0.1471(4) 0.6017(3) 0.9607(4)
H8_4 H 0.1539 0.5931 0.9034
C11_4 C 0.1072(4) 0.1115(3) 0.4599(3)
H9_4 H 0.1060 0.1055 0.4018
C13_4 C 0.0052(4) 0.0535(2) 0.7741(3)
C17_4 C 0.0843(4) 0.2350(3) 0.4436(3)
H15_4 H 0.0841 0.2297 0.3854
C18_4 C 0.0960(4) 0.3727(3) 0.9929(3)
C19_4 C 0.1613(4) 0.7248(3) 0.9356(3)
H16_4 H 0.1586 0.7173 0.8778
C21_4 C 0.0954(4) 0.1790(3) 0.4959(3)
C24_4 C 0.0735(4) 0.2982(3) 0.4786(3)
H18_4 H 0.0646 0.3360 0.4446
C25_4 C 0.0983(4) 0.1896(2) 0.5820(3)
H19_4 H 0.1074 0.1526 0.6173
C28_4 C 0.1699(4) 0.7901(3) 0.9670(4)
H22_4 H 0.1728 0.8271 0.9308
C29_4 C 0.0842(4) 0.2414(3) 0.9388(3)
H23_4 H 0.0811 0.1967 0.9206
C32_4 C 0.0972(4) 0.3546(3) 0.9074(3)
H25_4 H 0.1023 0.3887 0.8673
O7_4 O 0.2291(3) 0.2172(2) 0.7592(3)
C36_4 C 0.1567(4) 0.6709(3) 0.9908(3)
H29_4 H 0.229675 0.186933 0.809135
H30_4 H 0.280725 0.251746 0.765333
C2_4 C 0.1768(4) 0.7502(3) 0.4372(3)
H2_4 H 0.1864 0.7057 0.4200
N1_4 N 0.1290(4) 0.9995(2) 0.4640(3)
C4_4 C 0.2244(4) 0.9477(3) 0.7689(3)
H3_4 H 0.2724 0.9806 0.7689
C9_4 C 0.1382(4) 0.9505(3) 0.5159(3)
H7_4 H 0.1371 0.9599 0.5732
C12_4 C 0.1318(4) 0.9664(2) 0.7697(3)
H10_4 H 0.0851 0.9326 0.7700
C22_4 C 0.2522(4) 0.8744(2) 0.7681(3)
C26_4 C 0.1702(5) 0.7631(3) 0.5221(4)
H20_4 H 0.1742 0.7280 0.5610
C30_4 C 0.1574(4) 0.8289(3) 0.5487(3)
H24_4 H 0.1535 0.8389 0.6059
C31_4 C 0.1505(4) 0.8804(3) 0.4890(3)
C35_4 C 0.1588(4) 0.8622(2) 0.4041(3)
H28_4 H 0.1562 0.8963 0.3638
O8_4 O 0.1867(3) 0.83148(19) 0.7615(3)
O2_4 O 0.9500(2) 0.29837(16) 0.7388(2)
O3_4 O 0.8850(3) 0.13686(17) 0.7810(2)
C3_4 C 0.9760(4) 0.1258(2) 0.7754(3)
C5_4 C 0.8908(4) 0.3471(2) 0.7308(3)
C6_4 C 0.9033(4) 0.5395(2) 0.7269(3)
H4_4 H 0.9696 0.5468 0.7281
H11_4 H 0.9584 0.0198 0.7761
C14_4 C 0.8458(4) 0.5933(2) 0.7260(3)
H12_4 H 0.7795 0.5865 0.7228
C15_4 C 0.8696(4) 0.4710(2) 0.7261(3)
H13_4 H 0.8034 0.4636 0.7248
C16_4 C 0.9282(4) 0.4170(2) 0.7270(3)
H14_4 H 0.9945 0.4238 0.7253
C20_4 C 0.8822(4) 0.6638(2) 0.7301(3)
O6_4 O 0.8022(3) 0.33502(16) 0.7286(2)
O9_4 O 0.9714(3) 0.67381(17) 0.7282(3)
loop_
_geom_bond_atom_site_label_1
_geom_bond_atom_site_label_2
_geom_bond_site_symmetry_1
_geom_bond_site_symmetry_2
Zn1 O2 1_555 1_555
Zn2 O2 1_555 1_555
O2 C5 1_555 1_555
O3 Zn2 1_555 1_555
O4 Zn1 1_555 1_555
C1 H1 1_555 1_555
C3 O3 1_555 1_555
N3 Zn1 1_555 1_555
N6 Zn1 1_555 1_555
C4 H3 1_555 1_555
C5 C16 1_555 1_555
N8 C27 1_555 1_555
C8 H6 1_555 1_555
H7 C9 1_555 1_555
C12 C4 1_555 1_555
H10 C12 1_555 1_555
C13 C3 1_555 1_555
H11 C13 1_555 1_555
H13 C15 1_555 1_555
C16 C15 1_555 1_555
H14 C16 1_555 1_555
C18 C27 1_555 1_555
C22 C4 1_555 1_555
C25 N3 1_555 1_555
H19 C25 1_555 1_555
H20 C26 1_555 1_555
C27 H21 1_555 1_555
C29 N6 1_555 1_555
H23 C29 1_555 1_555
C30 C26 1_555 1_555
H24 C30 1_555 1_555
C32 N6 1_555 1_555
H25 C32 1_555 1_555
C33 C18 1_555 1_555
H26 C33 1_555 1_555
C34 C29 1_555 1_555
H27 C34 1_555 1_555
O5 C22 1_555 1_555
O6 Zn2 1_555 1_555
O7 Zn1 1_555 1_555
O8 C22 1_555 1_555
Zn3 O5 1_555 1_555
O10 Zn2 1_555 1_555
N9 Zn2 1_555 1_555
N10 Zn2 1_555 1_555
O11 Zn1 1_555 1_555
O4 C3 1_555 1_555
C1 N3 1_555 1_555
C5 O6 1_555 1_555
C8 C12 1_555 1_555
C8 C13 1_555 1_555
C18 C32 1_555 1_555
C33 C34 1_555 1_555
O7 H29 1_555 1_555
O7 H30 1_555 1_555
C2 H2 1_555 1_555
N4 C2 1_555 1_555
C11 H9 1_555 1_555
C17 H15 1_555 1_555
C21 C11 1_555 1_555
H18 C24 1_555 1_555
C35 N4 1_555 1_555
H28 C35 1_555 1_555
Zn6 N4 1_555 1_555
C17 C21 1_555 1_555
C17 C24 1_555 1_555
C31 C35 1_555 1_555
O1 C20 1_555 1_555
N2 C7 1_555 1_555
C6 H4 1_555 1_555
C7 H5 1_555 1_555
C10 N7 1_555 1_555
H8 C10 1_555 1_555
C14 C6 1_555 1_555
H12 C14 1_555 1_555
C19 H16 1_555 1_555
C20 C14 1_555 1_555
C23 N2 1_555 1_555
H17 C23 1_555 1_555
C28 C7 1_555 1_555
H22 C28 1_555 1_555
C36 C10 1_555 1_555
O9 C20 1_555 1_555
Zn4 O1 1_555 1_555
Zn6 N2 1_555 1_555
C19 C28 1_555 1_555
C19 C36 1_555 1_555
C23 C36 1_555 1_555
Zn4 O2_2 1_555 1_555
O10 C20_2 1_555 1_555
O2_2 C5_2 1_555 1_555
O3_2 Zn4 1_555 1_555
C3_2 O3_2 1_555 1_555
C5_2 C16_2 1_555 1_555
C6_2 H4_2 1_555 1_555
C14_2 C6_2 1_555 1_555
H12_2 C14_2 1_555 1_555
C15_2 C6_2 1_555 1_555
H13_2 C15_2 1_555 1_555
C16_2 C15_2 1_555 1_555
H14_2 C16_2 1_555 1_555
C20_2 C14_2 1_555 1_555
O6_2 Zn4 1_555 1_555
O9_2 C20_2 1_555 1_555
N9_2 Zn4 1_555 1_555
N10_2 Zn4 1_555 1_555
C5_2 O6_2 1_555 1_555
C2_2 H2_2 1_555 1_555
N4_2 C2_2 1_555 1_555
C4_2 H3_2 1_555 1_555
C9_2 N1_2 1_555 1_555
H7_2 C9_2 1_555 1_555
C12_2 C4_2 1_555 1_555
H10_2 C12_2 1_555 1_555
C22_2 C4_2 1_555 1_555
C26_2 C2_2 1_555 1_555
H20_2 C26_2 1_555 1_555
C30_2 C26_2 1_555 1_555
H24_2 C30_2 1_555 1_555
C31_2 C9_2 1_555 1_555
C35_2 N4_2 1_555 1_555
H28_2 C35_2 1_555 1_555
O11 C22_2 1_555 1_555
O8_2 C22_2 1_555 1_555
Zn6_2 N4_2 1_555 1_555
C30_2 C31_2 1_555 1_555
C31_2 C35_2 1_555 1_555
O4_2 Zn3 1_555 1_555
C1_2 H1_2 1_555 1_555
N3_2 Zn3 1_555 1_555
N5_2 C11_2 1_555 1_555
N6_2 Zn3 1_555 1_555
C8_2 H6_2 1_555 1_555
H8_2 C10_2 1_555 1_555
C11_2 H9_2 1_555 1_555
C17_2 H15_2 1_555 1_555
C19_2 H16_2 1_555 1_555
C21_2 C11_2 1_555 1_555
C24_2 C1_2 1_555 1_555
H18_2 C24_2 1_555 1_555
C25_2 N3_2 1_555 1_555
H19_2 C25_2 1_555 1_555
H22_2 C28_2 1_555 1_555
C29_2 N6_2 1_555 1_555
H23_2 C29_2 1_555 1_555
C32_2 N6_2 1_555 1_555
H25_2 C32_2 1_555 1_555
O7_2 Zn3 1_555 1_555
C36_2 C10_2 1_555 1_555
C1_2 N3_2 1_555 1_555
C8_2 C13_2 1_555 1_555
C17_2 C21_2 1_555 1_555
C17_2 C24_2 1_555 1_555
C18_2 C32_2 1_555 1_555
C19_2 C28_2 1_555 1_555
C19_2 C36_2 1_555 1_555
C21_2 C25_2 1_555 1_555
O7_2 H29_2 1_555 1_555
O7_2 H30_2 1_555 1_555
N2_2 C7_2 1_555 1_555
C7_2 H5_2 1_555 1_555
C23_2 N2_2 1_555 1_555
H17_2 C23_2 1_555 1_555
C27_2 H21_2 1_555 1_555
H26_2 C33_2 1_555 1_555
H27_2 C34_2 1_555 1_555
Zn6_2 N2_2 1_555 1_555
C33_2 C34_2 1_555 1_555
O1_2 C20_3 1_555 1_555
N9 C7_3 1_555 1_555
C6_3 H4_3 1_555 1_555
C7_3 H5_3 1_555 1_555
C10_3 N7_3 1_555 1_555
H8_3 C10_3 1_555 1_555
C14_3 C6_3 1_555 1_555
H12_3 C14_3 1_555 1_555
C19_3 H16_3 1_555 1_555
C20_3 C14_3 1_555 1_555
C23_3 N9 1_555 1_555
H17_3 C23_3 1_555 1_555
C28_3 C7_3 1_555 1_555
H22_3 C28_3 1_555 1_555
C36_3 C10_3 1_555 1_555
O9_3 C20_3 1_555 1_555
Zn6_2 O1_2 1_555 1_555
C19_3 C28_3 1_555 1_555
C19_3 C36_3 1_555 1_555
C23_3 C36_3 1_555 1_555
C2_3 H2_3 1_555 1_555
N10 C2_3 1_555 1_555
C11_3 H9_3 1_555 1_555
C17_3 H15_3 1_555 1_555
C21_3 C11_3 1_555 1_555
H18_3 C24_3 1_555 1_555
C35_3 N10 1_555 1_555
H28_3 C35_3 1_555 1_555
C17_3 C21_3 1_555 1_555
C17_3 C24_3 1_555 1_555
C31_3 C35_3 1_555 1_555
Zn1_2 O2_3 1_555 1_555
Zn6 O2_3 1_555 1_555
O2_3 C5_3 1_555 1_555
O3_3 Zn6 1_555 1_555
O4_3 Zn1_2 1_555 1_555
C1_3 H1_3 1_555 1_555
C3_3 O3_3 1_555 1_555
N3_3 Zn1_2 1_555 1_555
N6_3 Zn1_2 1_555 1_555
C4_3 H3_3 1_555 1_555
C5_3 C16_3 1_555 1_555
N8_3 C27_3 1_555 1_555
C8_3 H6_3 1_555 1_555
H7_3 C9_3 1_555 1_555
C12_3 C4_3 1_555 1_555
H10_3 C12_3 1_555 1_555
C13_3 C3_3 1_555 1_555
H11_3 C13_3 1_555 1_555
H13_3 C15_3 1_555 1_555
C16_3 C15_3 1_555 1_555
H14_3 C16_3 1_555 1_555
C18_3 C27_3 1_555 1_555
C22_3 C4_3 1_555 1_555
C25_3 N3_3 1_555 1_555
H19_3 C25_3 1_555 1_555
H20_3 C26_3 1_555 1_555
C27_3 H21_3 1_555 1_555
C29_3 N6_3 1_555 1_555
H23_3 C29_3 1_555 1_555
C30_3 C26_3 1_555 1_555
H24_3 C30_3 1_555 1_555
C32_3 N6_3 1_555 1_555
H25_3 C32_3 1_555 1_555
C33_3 C18_3 1_555 1_555
H26_3 C33_3 1_555 1_555
C34_3 C29_3 1_555 1_555
H27_3 C34_3 1_555 1_555
O5_2 C22_3 1_555 1_555
O6_3 Zn6 1_555 1_555
O7_3 Zn1_2 1_555 1_555
O8_3 C22_3 1_555 1_555
Zn3_2 O5_2 1_555 1_555
O10_2 Zn6 1_555 1_555
O11_2 Zn1_2 1_555 1_555
O4_3 C3_3 1_555 1_555
C1_3 N3_3 1_555 1_555
C5_3 O6_3 1_555 1_555
C8_3 C12_3 1_555 1_555
C8_3 C13_3 1_555 1_555
C18_3 C32_3 1_555 1_555
C33_3 C34_3 1_555 1_555
O7_3 H29_3 1_555 1_555
O7_3 H30_3 1_555 1_555
N9_2 C7_4 1_555 1_555
C7_4 H5_4 1_555 1_555
C23_4 N9_2 1_555 1_555
H17_4 C23_4 1_555 1_555
C27_4 H21_4 1_555 1_555
H26_4 C33_4 1_555 1_555
H27_4 C34_4 1_555 1_555
C33_4 C34_4 1_555 1_555
O4_4 Zn3_2 1_555 1_555
C1_4 H1_4 1_555 1_555
N3_4 Zn3_2 1_555 1_555
N5_4 C11_4 1_555 1_555
N6_4 Zn3_2 1_555 1_555
C8_4 H6_4 1_555 1_555
H8_4 C10_4 1_555 1_555
C11_4 H9_4 1_555 1_555
C17_4 H15_4 1_555 1_555
C19_4 H16_4 1_555 1_555
C21_4 C11_4 1_555 1_555
C24_4 C1_4 1_555 1_555
H18_4 C24_4 1_555 1_555
C25_4 N3_4 1_555 1_555
H19_4 C25_4 1_555 1_555
H22_4 C28_4 1_555 1_555
C29_4 N6_4 1_555 1_555
H23_4 C29_4 1_555 1_555
C32_4 N6_4 1_555 1_555
H25_4 C32_4 1_555 1_555
O7_4 Zn3_2 1_555 1_555
C36_4 C10_4 1_555 1_555
C1_4 N3_4 1_555 1_555
C8_4 C13_4 1_555 1_555
C17_4 C21_4 1_555 1_555
C17_4 C24_4 1_555 1_555
C18_4 C32_4 1_555 1_555
C19_4 C28_4 1_555 1_555
C19_4 C36_4 1_555 1_555
C21_4 C25_4 1_555 1_555
O7_4 H29_4 1_555 1_555
O7_4 H30_4 1_555 1_555
C2_4 H2_4 1_555 1_555
N10_2 C2_4 1_555 1_555
C4_4 H3_4 1_555 1_555
C9_4 N1_4 1_555 1_555
H7_4 C9_4 1_555 1_555
C12_4 C4_4 1_555 1_555
H10_4 C12_4 1_555 1_555
C22_4 C4_4 1_555 1_555
C26_4 C2_4 1_555 1_555
H20_4 C26_4 1_555 1_555
C30_4 C26_4 1_555 1_555
H24_4 C30_4 1_555 1_555
C31_4 C9_4 1_555 1_555
C35_4 N10_2 1_555 1_555
H28_4 C35_4 1_555 1_555
O11_2 C22_4 1_555 1_555
O8_4 C22_4 1_555 1_555
C30_4 C31_4 1_555 1_555
C31_4 C35_4 1_555 1_555
Zn6_2 O2_4 1_555 1_555
O10_2 C20_4 1_555 1_555
O2_4 C5_4 1_555 1_555
O3_4 Zn6_2 1_555 1_555
C3_4 O3_4 1_555 1_555
C5_4 C16_4 1_555 1_555
C6_4 H4_4 1_555 1_555
C14_4 C6_4 1_555 1_555
H12_4 C14_4 1_555 1_555
C15_4 C6_4 1_555 1_555
H13_4 C15_4 1_555 1_555
C16_4 C15_4 1_555 1_555
H14_4 C16_4 1_555 1_555
C20_4 C14_4 1_555 1_555
O6_4 Zn6_2 1_555 1_555
O9_4 C20_4 1_555 1_555
C5_4 O6_4 1_555 1_555

#END
