
###############################################################################
#
# This file contains modified crystal structure data generated from the
# MOF subset of the Cambridge Structural Database (CSD) v543 
# hosted by the Cambridge Crystallographic Data Centre (CCDC).
#
# This work is licensed under the Creative Commons
# Attribution-NonCommercial-ShareAlike 4.0 International License.
# To view a copy of this license, visit
# http://creativecommons.org/licenses/by-nc-sa/4.0/
# or send a letter to
# Creative Commons, PO Box 1866, Mountain View, CA 94042, USA.
#
# CIF created using the CSD Python API on 29 September 2022
# The structure has been converted into the P1 space group
# The structure has a 3D framework
# The original CSD entry XIMPOA01 is in the orthorhombic crystal system
# The original CSD entry XIMPOA01 is in a Sohncke space group
# The framework has been calculated to contain at least 10.0% void space
# The void calculation uses a probe of radius 1.32A, grid spacing 0.4
#
###############################################################################

data_XIMPOA01
_chemical_formula_moiety         '(C144 H128 N30 O32 Zn8)n'
_symmetry_cell_setting           triclinic
_symmetry_space_group_name_H-M   'P 1'
_symmetry_Int_Tables_number      1
_space_group_name_Hall           'P 1'
loop_
_symmetry_equiv_pos_site_id
_symmetry_equiv_pos_as_xyz
1 x,y,z
_cell_length_a                   14.774(6)
_cell_length_b                   15.653(7)
_cell_length_c                   16.871(7)
_cell_angle_alpha                90
_cell_angle_beta                 90
_cell_angle_gamma                90
_cell_volume                     3901.54
loop_
_atom_site_label
_atom_site_type_symbol
_atom_site_fract_x
_atom_site_fract_y
_atom_site_fract_z
Zn5 Zn 0.08806(6) 0.02839(6) 0.26249(5)
C4 C 0.3900(7) 0.5703(7) 0.0528(6)
O3 O 0.3767(4) 0.5073(4) 0.0975(3)
O4 O 0.3676(7) 0.6466(6) 0.0690(5)
Zn4 Zn 0.34626(6) 0.52468(6) 0.20973(5)
Zn1 Zn 0.84626(6) 0.97532(6) 0.79027(5)
C23 C 0.7101(9) 0.8319(7) 0.8059(7)
H19 H 0.7325 0.8140 0.8547
C24 C 0.6382(8) 0.7955(7) 0.7671(7)
H20 H 0.6024 0.7503 0.7843
C25 C 0.6925(6) 0.8997(6) 0.6986(5)
H21 H 0.6995 0.9393 0.6580
C26 C 0.5631(6) 0.8214(6) 0.6376(5)
H22 H 0.5431 0.8751 0.6149
H23 H 0.5112 0.7955 0.6633
C27 C 0.5936(6) 0.7628(6) 0.5700(5)
C28 C 0.6076(7) 0.6772(6) 0.5866(6)
H24 H 0.6031 0.6576 0.6385
C29 C 0.6287(6) 0.6196(6) 0.5249(6)
H25 H 0.6377 0.5620 0.5358
C30 C 0.6358(6) 0.6497(6) 0.4482(6)
C31 C 0.6260(7) 0.7333(7) 0.4328(6)
H26 H 0.6326 0.7533 0.3812
C32 C 0.6058(6) 0.7908(6) 0.4940(5)
H27 H 0.6006 0.8487 0.4828
C33 C 0.6573(7) 0.5849(8) 0.3837(7)
H28 H 0.7163 0.5976 0.3615
H29 H 0.6601 0.5283 0.4070
C34 C 0.5117(6) 0.5434(6) 0.3145(6)
H30 H 0.4911 0.5038 0.3514
C35 C 0.5186(8) 0.6247(8) 0.2122(6)
H31 H 0.5029 0.6514 0.1649
C36 C 0.5958(8) 0.6384(9) 0.2535(7)
H32 H 0.6427 0.6754 0.2405
N5 N 0.7440(5) 0.8985(4) 0.7624(4)
N6 N 0.6307(5) 0.8399(4) 0.6979(4)
N7 N 0.5903(5) 0.5849(6) 0.3203(5)
N8 N 0.4674(5) 0.5653(5) 0.2511(5)
O9 O 0.8767(4) 0.9927(4) 0.9025(3)
N10 N 0.9674(5) 0.9347(5) 0.7489(5)
C5 C 0.1624(6) 0.1834(5) 0.3013(5)
C6 C 0.2055(6) 0.2676(5) 0.2840(5)
H3 H 0.1963 0.2905 0.2338
C7 C 0.2555(7) 0.3122(5) 0.3337(5)
H4 H 0.2634 0.2917 0.3850
C8 C 0.3000(7) 0.3945(5) 0.3114(5)
H5 H 0.0159 0.1098 0.4311
C23_2 C 0.2101(9) 0.6681(7) 0.1941(7)
H19_2 H 0.2325 0.6860 0.1453
C24_2 C 0.1382(8) 0.7045(7) 0.2329(7)
H20_2 H 0.1024 0.7497 0.2157
C25_2 C 0.1925(6) 0.6003(6) 0.3014(5)
H21_2 H 0.1995 0.5607 0.3420
C26_2 C 0.0631(6) 0.6786(6) 0.3624(5)
H22_2 H 0.0431 0.6249 0.3851
H23_2 H 0.0112 0.7045 0.3367
C27_2 C 0.0936(6) 0.7372(6) 0.4300(5)
C28_2 C 0.1076(7) 0.8228(6) 0.4134(6)
H24_2 H 0.1031 0.8424 0.3615
C29_2 C 0.1287(6) 0.8804(6) 0.4751(6)
H25_2 H 0.1377 0.9380 0.4642
C30_2 C 0.1358(6) 0.8503(6) 0.5518(6)
C31_2 C 0.1260(7) 0.7667(7) 0.5672(6)
H26_2 H 0.1326 0.7467 0.6188
C32_2 C 0.1058(6) 0.7092(6) 0.5060(5)
H27_2 H 0.1006 0.6513 0.5172
C33_2 C 0.1573(7) 0.9151(8) 0.6163(7)
H28_2 H 0.2163 0.9024 0.6385
H29_2 H 0.1601 0.9717 0.5930
C34_2 C 0.0117(6) 0.9566(6) 0.6855(6)
C35_2 C 0.0186(8) 0.8753(8) 0.7878(6)
H31_2 H 0.0029 0.8486 0.8351
C36_2 C 0.0958(8) 0.8616(9) 0.7465(7)
H32_2 H 0.1427 0.8246 0.7595
O5 O 0.1243(4) 0.1481(4) 0.2429(4)
O6 O 0.1695(6) 0.1484(4) 0.3683(4)
O7 O 0.3239(6) 0.4457(5) 0.3635(5)
O8 O 0.3059(5) 0.4099(4) 0.2374(4)
N5_2 N 0.2440(5) 0.6015(4) 0.2376(4)
N6_2 N 0.1307(5) 0.6601(4) 0.3021(4)
N7_2 N 0.0903(5) 0.9151(6) 0.6797(5)
H2 H 0.9595 0.0054 0.0310
C9 C 0.9830(7) 0.0616(6) 0.4168(5)
C10 C 0.9149(7) 0.0260(7) 0.4585(5)
H6 H 0.8926 0.0454 0.5068
H30_2 H 0.9911 0.9962 0.6486
N1 N 0.9951(5) 0.0128(4) 0.3482(4)
C4_2 C 0.8900(7) 0.9297(7) 0.9472(6)
O4_2 O 0.8676(7) 0.8534(6) 0.9310(5)
Zn2 Zn 0.58806(6) 0.47161(6) 0.73751(5)
C1 C 0.5046(6) 0.5800(6) 0.8471(5)
C2 C 0.4569(7) 0.6055(6) 0.9212(6)
H1 H 0.4390 0.6620 0.9278
C3 C 0.4398(7) 0.5504(6) 0.9766(5)
H2_2 H 0.4595 0.4946 0.9690
C5_2 C 0.6624(6) 0.3166(5) 0.6987(5)
C6_2 C 0.7055(6) 0.2324(5) 0.7160(5)
H3_2 H 0.6963 0.2095 0.7662
C7_2 C 0.7555(7) 0.1878(5) 0.6663(5)
H4_2 H 0.7634 0.2083 0.6150
C8_2 C 0.8000(7) 0.1055(5) 0.6886(5)
C9_2 C 0.4830(7) 0.4384(6) 0.5832(5)
H5_2 H 0.5159 0.3902 0.5689
C10_2 C 0.4149(7) 0.4740(7) 0.5415(5)
H6_2 H 0.3926 0.4546 0.4932
C11 C 0.4342(6) 0.5484(6) 0.6485(5)
H7 H 0.4269 0.5899 0.6874
C12 C 0.3123(6) 0.6031(7) 0.5591(6)
H8 H 0.2830 0.6249 0.6064
H9 H 0.2673 0.5714 0.5292
C13 C 0.3438(6) 0.6777(6) 0.5097(5)
C14 C 0.3643(6) 0.6665(6) 0.4300(6)
H10 H 0.3636 0.6119 0.4082
C15 C 0.3858(6) 0.7364(6) 0.3826(6)
H11 H 0.3963 0.7287 0.3287
C16 C 0.3917(6) 0.8190(6) 0.4159(6)
C17 C 0.3757(6) 0.8272(6) 0.4942(6)
H12 H 0.3802 0.8812 0.5168
C18 C 0.3527(6) 0.7587(6) 0.5428(5)
H13 H 0.3434 0.7670 0.5967
C19 C 0.4141(7) 0.8940(6) 0.3636(6)
H14 H 0.4279 0.9432 0.3964
H15 H 0.4675 0.8808 0.3324
C20 C 0.3231(8) 0.8800(8) 0.2375(7)
H16 H 0.3606 0.8424 0.2103
C21 C 0.2684(6) 0.9668(6) 0.3272(5)
H17 H 0.2638 0.9987 0.3735
C22 C 0.2395(7) 0.9121(6) 0.2123(6)
H18 H 0.2104 0.8990 0.1649
O1 O 0.5354(5) 0.5044(4) 0.8415(4)
O2 O 0.5108(5) 0.6362(4) 0.7943(4)
O5_2 O 0.6243(4) 0.3519(4) 0.7571(4)
O6_2 O 0.6695(6) 0.3516(4) 0.6317(4)
O7_2 O 0.8239(6) 0.0543(5) 0.6365(5)
O8_2 O 0.8059(5) 0.0901(4) 0.7626(4)
N1_2 N 0.4951(5) 0.4872(4) 0.6518(4)
N2 N 0.3842(5) 0.5442(5) 0.5829(4)
N3 N 0.3383(5) 0.9150(5) 0.3100(5)
N4 N 0.2078(5) 0.9670(5) 0.2709(4)
N9 N 0.7078(5) 0.5330(5) 0.7291(4)
C1_2 C 0.0046(6) 0.9200(6) 0.1529(5)
O1_2 O 0.0354(5) 0.9956(4) 0.1585(4)
O2_2 O 0.0108(5) 0.8638(4) 0.2057(4)
C2_2 C 0.9569(7) 0.8945(6) 0.0788(6)
H1_2 H 0.9390 0.8380 0.0722
C3_2 C 0.9398(7) 0.9496(6) 0.0234(5)
C11_2 C 0.9342(6) 0.9516(6) 0.3515(5)
H7_2 H 0.9269 0.9101 0.3126
C12_2 C 0.8123(6) 0.8969(7) 0.4409(6)
H8_2 H 0.7830 0.8751 0.3936
H9_2 H 0.7673 0.9286 0.4708
C13_2 C 0.8438(6) 0.8223(6) 0.4903(5)
C14_2 C 0.8643(6) 0.8335(6) 0.5700(6)
H10_2 H 0.8636 0.8881 0.5918
C15_2 C 0.8858(6) 0.7636(6) 0.6174(6)
H11_2 H 0.8963 0.7713 0.6713
C16_2 C 0.8917(6) 0.6810(6) 0.5841(6)
C17_2 C 0.8757(6) 0.6728(6) 0.5058(6)
H12_2 H 0.8802 0.6188 0.4832
C18_2 C 0.8527(6) 0.7413(6) 0.4572(5)
H13_2 H 0.8434 0.7330 0.4033
C19_2 C 0.9141(7) 0.6060(6) 0.6364(6)
H14_2 H 0.9279 0.5568 0.6036
H15_2 H 0.9675 0.6192 0.6676
C20_2 C 0.8231(8) 0.6200(8) 0.7625(7)
H16_2 H 0.8606 0.6576 0.7897
C21_2 C 0.7684(6) 0.5332(6) 0.6728(5)
H17_2 H 0.7638 0.5013 0.6265
C22_2 C 0.7395(7) 0.5879(6) 0.7877(6)
H18_2 H 0.7104 0.6010 0.8351
N2_2 N 0.8842(5) 0.9558(5) 0.4171(4)
N3_2 N 0.8383(5) 0.5850(5) 0.6900(5)
H30_3 H 0.0089 0.4962 0.8514
N8_2 N 0.0326(5) 0.4347(5) 0.7511(5)
Zn3 Zn 0.15374(6) 0.47532(6) 0.70973(5)
C2_3 C 0.0431(7) 0.3945(6) 0.4212(6)
H1_3 H 0.0610 0.3380 0.4278
C3_3 C 0.0602(7) 0.4496(6) 0.4766(5)
H2_3 H 0.0405 0.5054 0.4690
C4_3 C 0.1100(7) 0.4297(7) 0.5528(6)
C9_3 C 0.0170(7) 0.5616(6) 0.0832(5)
C10_3 C 0.0851(7) 0.5260(7) 0.0415(5)
C11_3 C 0.0658(6) 0.4516(6) 0.1485(5)
H7_3 H 0.0731 0.4101 0.1874
C12_3 C 0.1877(6) 0.3969(7) 0.0591(6)
H8_3 H 0.2170 0.3751 0.1064
H9_3 H 0.2327 0.4286 0.0292
C13_3 C 0.1562(6) 0.3223(6) 0.0097(5)
H12_3 H 0.1198 0.1188 0.0168
C18_3 C 0.1473(6) 0.2413(6) 0.0428(5)
H13_3 H 0.1566 0.2330 0.0967
O3_2 O 0.1233(4) 0.4927(4) 0.5975(3)
O4_3 O 0.1324(7) 0.3534(6) 0.5690(5)
N1_3 N 0.0049(5) 0.5128(4) 0.1518(4)
N2_3 N 0.1158(5) 0.4558(5) 0.0829(4)
Zn5_2 Zn 0.41194(6) 0.97161(6) 0.76249(5)
H2_4 H 0.5405 0.9946 0.5310
C5_3 C 0.3376(6) 0.8166(5) 0.8013(5)
C6_3 C 0.2945(6) 0.7324(5) 0.7840(5)
H3_3 H 0.3037 0.7095 0.7338
C7_3 C 0.2445(7) 0.6878(5) 0.8337(5)
H4_3 H 0.2366 0.7083 0.8850
C8_3 C 0.2000(7) 0.6055(5) 0.8114(5)
C9_4 C 0.5170(7) 0.9384(6) 0.9168(5)
H5_3 H 0.4841 0.8902 0.9311
C10_4 C 0.5851(7) 0.9740(7) 0.9585(5)
C23_3 C 0.2899(9) 0.3319(7) 0.6941(7)
H19_3 H 0.2675 0.3140 0.6453
C24_3 C 0.3618(8) 0.2955(7) 0.7329(7)
H20_3 H 0.3976 0.2503 0.7157
C25_3 C 0.3075(6) 0.3997(6) 0.8014(5)
H21_3 H 0.3005 0.4393 0.8420
C26_3 C 0.4369(6) 0.3214(6) 0.8624(5)
H22_3 H 0.4569 0.3751 0.8851
H23_3 H 0.4888 0.2955 0.8367
C27_3 C 0.4064(6) 0.2628(6) 0.9300(5)
C28_3 C 0.3924(7) 0.1772(6) 0.9134(6)
H24_3 H 0.3969 0.1576 0.8615
C29_3 C 0.3713(6) 0.1196(6) 0.9751(6)
H25_3 H 0.3623 0.0620 0.9642
O5_3 O 0.3757(4) 0.8519(4) 0.7429(4)
O6_3 O 0.3305(6) 0.8516(4) 0.8683(4)
O7_3 O 0.1761(6) 0.5543(5) 0.8635(5)
O8_3 O 0.1941(5) 0.5901(4) 0.7374(4)
N1_4 N 0.5049(5) 0.9872(4) 0.8482(4)
N5_3 N 0.2560(5) 0.3985(4) 0.7376(4)
N6_3 N 0.3693(5) 0.3399(4) 0.8021(4)
H6_3 H 0.1074 0.5454 0.9932
C14_3 C 0.1357(6) 0.3335(6) 0.9300(6)
H10_3 H 0.1364 0.3881 0.9082
C15_3 C 0.1142(6) 0.2636(6) 0.8826(6)
H11_3 H 0.1037 0.2713 0.8287
C16_3 C 0.1083(6) 0.1810(6) 0.9159(6)
C17_3 C 0.1243(6) 0.1728(6) 0.9942(6)
C19_3 C 0.0859(7) 0.1060(6) 0.8636(6)
H14_3 H 0.0721 0.0568 0.8964
H15_3 H 0.0325 0.1192 0.8324
C20_3 C 0.1769(8) 0.1200(8) 0.7375(7)
H16_3 H 0.1394 0.1576 0.7103
C21_3 C 0.2316(6) 0.0332(6) 0.8272(5)
H17_3 H 0.2362 0.0013 0.8735
C22_3 C 0.2605(7) 0.0879(6) 0.7123(6)
H18_3 H 0.2896 0.1010 0.6649
N3_3 N 0.1617(5) 0.0850(5) 0.8100(5)
N4_2 N 0.2922(5) 0.0330(5) 0.7709(4)
Zn1_2 Zn 0.65374(6) 0.02468(6) 0.29027(5)
C23_4 C 0.7899(9) 0.1681(7) 0.3059(7)
H19_4 H 0.7675 0.1860 0.3547
C24_4 C 0.8618(8) 0.2045(7) 0.2671(7)
H20_4 H 0.8976 0.2497 0.2843
C25_4 C 0.8075(6) 0.1003(6) 0.1986(5)
H21_4 H 0.8005 0.0607 0.1580
C26_4 C 0.9369(6) 0.1786(6) 0.1376(5)
H22_4 H 0.9569 0.1249 0.1149
H23_4 H 0.9888 0.2045 0.1633
C27_4 C 0.9064(6) 0.2372(6) 0.0700(5)
C28_4 C 0.8924(7) 0.3228(6) 0.0866(6)
H24_4 H 0.8969 0.3424 0.1385
C29_4 C 0.8713(6) 0.3804(6) 0.0249(6)
H25_4 H 0.8623 0.4380 0.0358
N5_4 N 0.7560(5) 0.1015(4) 0.2624(4)
N6_4 N 0.8693(5) 0.1601(4) 0.1979(4)
O9_2 O 0.6233(4) 0.0073(4) 0.4025(3)
N10_2 N 0.5326(5) 0.0653(5) 0.2489(5)
C1_3 C 0.4954(6) 0.0800(6) 0.6529(5)
C2_4 C 0.5431(7) 0.1055(6) 0.5788(6)
H1_4 H 0.5610 0.1620 0.5722
C3_4 C 0.5602(7) 0.0504(6) 0.5234(5)
C4_4 C 0.6100(7) 0.0703(7) 0.4472(6)
C11_4 C 0.5658(6) 0.0484(6) 0.8515(5)
H7_4 H 0.5731 0.0899 0.8126
C12_4 C 0.6877(6) 0.1031(7) 0.9409(6)
H8_4 H 0.7170 0.1249 0.8936
H9_4 H 0.7327 0.0714 0.9708
C13_4 C 0.6562(6) 0.1777(6) 0.9903(5)
H12_4 H 0.6198 0.3812 0.9832
C18_4 C 0.6473(6) 0.2587(6) 0.9572(5)
H13_4 H 0.6566 0.2670 0.9033
O1_3 O 0.4646(5) 0.0044(4) 0.6585(4)
O2_3 O 0.4892(5) 0.1362(4) 0.7057(4)
O4_4 O 0.6324(7) 0.1466(6) 0.4310(5)
N2_4 N 0.6158(5) 0.0442(5) 0.9171(4)
H6_4 H 0.6074 0.9546 0.0068
C30_3 C 0.3642(6) 0.1497(6) 0.0518(6)
C31_3 C 0.3740(7) 0.2333(7) 0.0672(6)
H26_3 H 0.3674 0.2533 0.1188
C32_3 C 0.3942(6) 0.2908(6) 0.0060(5)
H27_3 H 0.3994 0.3487 0.0172
C33_3 C 0.3427(7) 0.0849(8) 0.1163(7)
H28_3 H 0.2837 0.0976 0.1385
H29_3 H 0.3399 0.0283 0.0930
C34_3 C 0.4883(6) 0.0434(6) 0.1855(6)
H30_4 H 0.5089 0.0038 0.1486
C35_3 C 0.4814(8) 0.1247(8) 0.2878(6)
H31_3 H 0.4971 0.1514 0.3351
C36_3 C 0.4042(8) 0.1384(9) 0.2465(7)
H32_3 H 0.3573 0.1754 0.2595
N7_3 N 0.4097(5) 0.0849(6) 0.1797(5)
C30_4 C 0.8642(6) 0.3503(6) 0.9482(6)
C31_4 C 0.8740(7) 0.2667(7) 0.9328(6)
H26_4 H 0.8674 0.2467 0.8812
C32_4 C 0.8942(6) 0.2092(6) 0.9940(5)
H27_4 H 0.8994 0.1513 0.9828
C33_4 C 0.8427(7) 0.4151(8) 0.8837(7)
H28_4 H 0.7837 0.4024 0.8615
H29_4 H 0.8399 0.4717 0.9070
C34_4 C 0.9883(6) 0.4566(6) 0.8145(6)
C35_4 C 0.9814(8) 0.3753(8) 0.7122(6)
H31_4 H 0.9971 0.3486 0.6649
C36_4 C 0.9042(8) 0.3616(9) 0.7535(7)
H32_4 H 0.8573 0.3246 0.7405
N7_4 N 0.9097(5) 0.4151(6) 0.8203(5)
Zn2_2 Zn 0.91194(6) 0.52839(6) 0.23751(5)
C1_4 C 0.9954(6) 0.4200(6) 0.3471(5)
C5_4 C 0.8376(6) 0.6834(5) 0.1987(5)
C6_4 C 0.7945(6) 0.7676(5) 0.2160(5)
H3_4 H 0.8037 0.7905 0.2662
C7_4 C 0.7445(7) 0.8122(5) 0.1663(5)
H4_4 H 0.7366 0.7917 0.1150
C8_4 C 0.7000(7) 0.8945(5) 0.1886(5)
H5_4 H 0.9841 0.6098 0.0689
O1_4 O 0.9646(5) 0.4956(4) 0.3415(4)
O2_4 O 0.9892(5) 0.3638(4) 0.2943(4)
O5_4 O 0.8757(4) 0.6481(4) 0.2571(4)
O6_4 O 0.8305(6) 0.6484(4) 0.1317(4)
O7_4 O 0.6761(6) 0.9457(5) 0.1365(5)
O8_4 O 0.6941(5) 0.9099(4) 0.2626(4)
N9_2 N 0.7922(5) 0.4670(5) 0.2291(4)
C14_4 C 0.6357(6) 0.1665(6) 0.0700(6)
H10_4 H 0.6364 0.1119 0.0918
C15_4 C 0.6142(6) 0.2364(6) 0.1174(6)
H11_4 H 0.6037 0.2287 0.1713
C16_4 C 0.6083(6) 0.3190(6) 0.0841(6)
C17_4 C 0.6243(6) 0.3272(6) 0.0058(6)
C19_4 C 0.5859(7) 0.3940(6) 0.1364(6)
H14_4 H 0.5721 0.4432 0.1036
H15_4 H 0.5325 0.3808 0.1676
C20_4 C 0.6769(8) 0.3800(8) 0.2625(7)
H16_4 H 0.6394 0.3424 0.2897
C21_4 C 0.7316(6) 0.4668(6) 0.1728(5)
H17_4 H 0.7362 0.4987 0.1265
C22_4 C 0.7605(7) 0.4121(6) 0.2877(6)
H18_4 H 0.7896 0.3990 0.3351
N3_4 N 0.6617(5) 0.4150(5) 0.1900(5)
loop_
_geom_bond_atom_site_label_1
_geom_bond_atom_site_label_2
_geom_bond_site_symmetry_1
_geom_bond_site_symmetry_2
O3 C4 1_555 1_555
O4 C4 1_555 1_555
Zn4 O3 1_555 1_555
C23 H19 1_555 1_555
C24 C23 1_555 1_555
H20 C24 1_555 1_555
C25 H21 1_555 1_555
C26 H22 1_555 1_555
H23 C26 1_555 1_555
C27 C26 1_555 1_555
C28 C27 1_555 1_555
H24 C28 1_555 1_555
C29 C28 1_555 1_555
H25 C29 1_555 1_555
C30 C29 1_555 1_555
C31 C30 1_555 1_555
H26 C31 1_555 1_555
C32 C27 1_555 1_555
H27 C32 1_555 1_555
C33 C30 1_555 1_555
H28 C33 1_555 1_555
H29 C33 1_555 1_555
C34 H30 1_555 1_555
C35 H31 1_555 1_555
C36 C35 1_555 1_555
H32 C36 1_555 1_555
N5 Zn1 1_555 1_555
N6 C24 1_555 1_555
N7 C33 1_555 1_555
N8 C34 1_555 1_555
Zn4 N8 1_555 1_555
O9 Zn1 1_555 1_555
N10 Zn1 1_555 1_555
C23 N5 1_555 1_555
C25 N5 1_555 1_555
C25 N6 1_555 1_555
C26 N6 1_555 1_555
C31 C32 1_555 1_555
C34 N7 1_555 1_555
C35 N8 1_555 1_555
C36 N7 1_555 1_555
Zn4 O8 1_555 1_555
C5 C6 1_555 1_555
C6 H3 1_555 1_555
C7 C6 1_555 1_555
H4 C7 1_555 1_555
C8 C7 1_555 1_555
C23_2 H19_2 1_555 1_555
C24_2 C23_2 1_555 1_555
H20_2 C24_2 1_555 1_555
C25_2 H21_2 1_555 1_555
C26_2 H22_2 1_555 1_555
H23_2 C26_2 1_555 1_555
C27_2 C26_2 1_555 1_555
C28_2 C27_2 1_555 1_555
H24_2 C28_2 1_555 1_555
C29_2 C28_2 1_555 1_555
H25_2 C29_2 1_555 1_555
C30_2 C29_2 1_555 1_555
C31_2 C30_2 1_555 1_555
H26_2 C31_2 1_555 1_555
C32_2 C27_2 1_555 1_555
H27_2 C32_2 1_555 1_555
C33_2 C30_2 1_555 1_555
H28_2 C33_2 1_555 1_555
H29_2 C33_2 1_555 1_555
C35_2 H31_2 1_555 1_555
C36_2 C35_2 1_555 1_555
H32_2 C36_2 1_555 1_555
O5 Zn5 1_555 1_555
O6 C5 1_555 1_555
O7 C8 1_555 1_555
O8 C8 1_555 1_555
N5_2 Zn4 1_555 1_555
N6_2 C24_2 1_555 1_555
N7_2 C33_2 1_555 1_555
C5 O5 1_555 1_555
C23_2 N5_2 1_555 1_555
C25_2 N5_2 1_555 1_555
C25_2 N6_2 1_555 1_555
C26_2 N6_2 1_555 1_555
C31_2 C32_2 1_555 1_555
C34_2 N7_2 1_555 1_555
C36_2 N7_2 1_555 1_555
C10 C9 1_555 1_555
H6 C10 1_555 1_555
C9 N1 1_555 1_555
O9 C4_2 1_555 1_555
O4_2 C4_2 1_555 1_555
Zn2 O1 1_555 1_555
C1 C2 1_555 1_555
C2 H1 1_555 1_555
C3 C2 1_555 1_555
H2_2 C3 1_555 1_555
C5_2 C6_2 1_555 1_555
C6_2 H3_2 1_555 1_555
C7_2 C6_2 1_555 1_555
H4_2 C7_2 1_555 1_555
C8_2 C7_2 1_555 1_555
C9_2 H5_2 1_555 1_555
C10_2 C9_2 1_555 1_555
H6_2 C10_2 1_555 1_555
C11 H7 1_555 1_555
C12 H8 1_555 1_555
H9 C12 1_555 1_555
C13 C12 1_555 1_555
C14 C13 1_555 1_555
H10 C14 1_555 1_555
C15 C14 1_555 1_555
H11 C15 1_555 1_555
C16 C15 1_555 1_555
C17 C16 1_555 1_555
H12 C17 1_555 1_555
C18 C13 1_555 1_555
H13 C18 1_555 1_555
C19 C16 1_555 1_555
H14 C19 1_555 1_555
H15 C19 1_555 1_555
C20 H16 1_555 1_555
C21 H17 1_555 1_555
C22 C20 1_555 1_555
H18 C22 1_555 1_555
O1 C1 1_555 1_555
O2 C1 1_555 1_555
O5_2 Zn2 1_555 1_555
O6_2 C5_2 1_555 1_555
O7_2 C8_2 1_555 1_555
O8_2 C8_2 1_555 1_555
N1_2 Zn2 1_555 1_555
N2 C10_2 1_555 1_555
N3 C19 1_555 1_555
N4 C21 1_555 1_555
N9 Zn2 1_555 1_555
C5_2 O5_2 1_555 1_555
C9_2 N1_2 1_555 1_555
C11 N1_2 1_555 1_555
C11 N2 1_555 1_555
C12 N2 1_555 1_555
C17 C18 1_555 1_555
C20 N3 1_555 1_555
C21 N3 1_555 1_555
C22 N4 1_555 1_555
O1_2 C1_2 1_555 1_555
O2_2 C1_2 1_555 1_555
C2_2 H1_2 1_555 1_555
C3_2 C2_2 1_555 1_555
C11_2 H7_2 1_555 1_555
C12_2 H8_2 1_555 1_555
H9_2 C12_2 1_555 1_555
C13_2 C12_2 1_555 1_555
C14_2 C13_2 1_555 1_555
H10_2 C14_2 1_555 1_555
C15_2 C14_2 1_555 1_555
H11_2 C15_2 1_555 1_555
C16_2 C15_2 1_555 1_555
C17_2 C16_2 1_555 1_555
H12_2 C17_2 1_555 1_555
C18_2 C13_2 1_555 1_555
H13_2 C18_2 1_555 1_555
C19_2 C16_2 1_555 1_555
H14_2 C19_2 1_555 1_555
H15_2 C19_2 1_555 1_555
C20_2 H16_2 1_555 1_555
C21_2 H17_2 1_555 1_555
C22_2 C20_2 1_555 1_555
H18_2 C22_2 1_555 1_555
N3_2 C19_2 1_555 1_555
N9 C21_2 1_555 1_555
C11_2 N2_2 1_555 1_555
C12_2 N2_2 1_555 1_555
C17_2 C18_2 1_555 1_555
C20_2 N3_2 1_555 1_555
C21_2 N3_2 1_555 1_555
C22_2 N9 1_555 1_555
Zn3 N8_2 1_555 1_555
C2_3 H1_3 1_555 1_555
C3_3 C2_3 1_555 1_555
H2_3 C3_3 1_555 1_555
C4_3 C3_3 1_555 1_555
C10_3 C9_3 1_555 1_555
C11_3 H7_3 1_555 1_555
C12_3 H8_3 1_555 1_555
H9_3 C12_3 1_555 1_555
C13_3 C12_3 1_555 1_555
C18_3 C13_3 1_555 1_555
H13_3 C18_3 1_555 1_555
O3_2 C4_3 1_555 1_555
O4_3 C4_3 1_555 1_555
N2_3 C10_3 1_555 1_555
Zn3 O3_2 1_555 1_555
C9_3 N1_3 1_555 1_555
C11_3 N1_3 1_555 1_555
C11_3 N2_3 1_555 1_555
C12_3 N2_3 1_555 1_555
Zn3 O8_3 1_555 1_555
C5_3 C6_3 1_555 1_555
C6_3 H3_3 1_555 1_555
C7_3 C6_3 1_555 1_555
H4_3 C7_3 1_555 1_555
C8_3 C7_3 1_555 1_555
C9_4 H5_3 1_555 1_555
C10_4 C9_4 1_555 1_555
C23_3 H19_3 1_555 1_555
C24_3 C23_3 1_555 1_555
H20_3 C24_3 1_555 1_555
C25_3 H21_3 1_555 1_555
C26_3 H22_3 1_555 1_555
H23_3 C26_3 1_555 1_555
C27_3 C26_3 1_555 1_555
C28_3 C27_3 1_555 1_555
H24_3 C28_3 1_555 1_555
C29_3 C28_3 1_555 1_555
H25_3 C29_3 1_555 1_555
O5_3 Zn5_2 1_555 1_555
O6_3 C5_3 1_555 1_555
O7_3 C8_3 1_555 1_555
O8_3 C8_3 1_555 1_555
N1_4 Zn5_2 1_555 1_555
N5_3 Zn3 1_555 1_555
N6_3 C24_3 1_555 1_555
C5_3 O5_3 1_555 1_555
C9_4 N1_4 1_555 1_555
C23_3 N5_3 1_555 1_555
C25_3 N5_3 1_555 1_555
C25_3 N6_3 1_555 1_555
C26_3 N6_3 1_555 1_555
H10_3 C14_3 1_555 1_555
C15_3 C14_3 1_555 1_555
H11_3 C15_3 1_555 1_555
C16_3 C15_3 1_555 1_555
C17_3 C16_3 1_555 1_555
C19_3 C16_3 1_555 1_555
H14_3 C19_3 1_555 1_555
H15_3 C19_3 1_555 1_555
C20_3 H16_3 1_555 1_555
C21_3 H17_3 1_555 1_555
C22_3 C20_3 1_555 1_555
H18_3 C22_3 1_555 1_555
N3_3 C19_3 1_555 1_555
N4_2 C21_3 1_555 1_555
C20_3 N3_3 1_555 1_555
C21_3 N3_3 1_555 1_555
C22_3 N4_2 1_555 1_555
C23_4 H19_4 1_555 1_555
C24_4 C23_4 1_555 1_555
H20_4 C24_4 1_555 1_555
C25_4 H21_4 1_555 1_555
C26_4 H22_4 1_555 1_555
H23_4 C26_4 1_555 1_555
C27_4 C26_4 1_555 1_555
C28_4 C27_4 1_555 1_555
H24_4 C28_4 1_555 1_555
C29_4 C28_4 1_555 1_555
H25_4 C29_4 1_555 1_555
N5_4 Zn1_2 1_555 1_555
N6_4 C24_4 1_555 1_555
O9_2 Zn1_2 1_555 1_555
N10_2 Zn1_2 1_555 1_555
C23_4 N5_4 1_555 1_555
C25_4 N5_4 1_555 1_555
C25_4 N6_4 1_555 1_555
C26_4 N6_4 1_555 1_555
C1_3 C2_4 1_555 1_555
C2_4 H1_4 1_555 1_555
C3_4 C2_4 1_555 1_555
C4_4 C3_4 1_555 1_555
C11_4 H7_4 1_555 1_555
C12_4 H8_4 1_555 1_555
H9_4 C12_4 1_555 1_555
C13_4 C12_4 1_555 1_555
C18_4 C13_4 1_555 1_555
H13_4 C18_4 1_555 1_555
O1_3 C1_3 1_555 1_555
O2_3 C1_3 1_555 1_555
O9_2 C4_4 1_555 1_555
O4_4 C4_4 1_555 1_555
C11_4 N2_4 1_555 1_555
C12_4 N2_4 1_555 1_555
C31_3 C30_3 1_555 1_555
H26_3 C31_3 1_555 1_555
H27_3 C32_3 1_555 1_555
C33_3 C30_3 1_555 1_555
H28_3 C33_3 1_555 1_555
H29_3 C33_3 1_555 1_555
C34_3 H30_4 1_555 1_555
C35_3 H31_3 1_555 1_555
C36_3 C35_3 1_555 1_555
H32_3 C36_3 1_555 1_555
N7_3 C33_3 1_555 1_555
N10_2 C34_3 1_555 1_555
C31_3 C32_3 1_555 1_555
C34_3 N7_3 1_555 1_555
C35_3 N10_2 1_555 1_555
C36_3 N7_3 1_555 1_555
C31_4 C30_4 1_555 1_555
H26_4 C31_4 1_555 1_555
H27_4 C32_4 1_555 1_555
C33_4 C30_4 1_555 1_555
H28_4 C33_4 1_555 1_555
H29_4 C33_4 1_555 1_555
C35_4 H31_4 1_555 1_555
C36_4 C35_4 1_555 1_555
H32_4 C36_4 1_555 1_555
N7_4 C33_4 1_555 1_555
C31_4 C32_4 1_555 1_555
C34_4 N7_4 1_555 1_555
C36_4 N7_4 1_555 1_555
Zn2_2 O1_4 1_555 1_555
C5_4 C6_4 1_555 1_555
C6_4 H3_4 1_555 1_555
C7_4 C6_4 1_555 1_555
H4_4 C7_4 1_555 1_555
C8_4 C7_4 1_555 1_555
O1_4 C1_4 1_555 1_555
O2_4 C1_4 1_555 1_555
O5_4 Zn2_2 1_555 1_555
O6_4 C5_4 1_555 1_555
O7_4 C8_4 1_555 1_555
O8_4 C8_4 1_555 1_555
N9_2 Zn2_2 1_555 1_555
C5_4 O5_4 1_555 1_555
H10_4 C14_4 1_555 1_555
C15_4 C14_4 1_555 1_555
H11_4 C15_4 1_555 1_555
C16_4 C15_4 1_555 1_555
C17_4 C16_4 1_555 1_555
C19_4 C16_4 1_555 1_555
H14_4 C19_4 1_555 1_555
H15_4 C19_4 1_555 1_555
C20_4 H16_4 1_555 1_555
C21_4 H17_4 1_555 1_555
C22_4 C20_4 1_555 1_555
H18_4 C22_4 1_555 1_555
N3_4 C19_4 1_555 1_555
N9_2 C21_4 1_555 1_555
C20_4 N3_4 1_555 1_555
C21_4 N3_4 1_555 1_555
C22_4 N9_2 1_555 1_555

#END
