
###############################################################################
#
# This file contains modified crystal structure data generated from the
# MOF subset of the Cambridge Structural Database (CSD) v543 
# hosted by the Cambridge Crystallographic Data Centre (CCDC).
#
# This work is licensed under the Creative Commons
# Attribution-NonCommercial-ShareAlike 4.0 International License.
# To view a copy of this license, visit
# http://creativecommons.org/licenses/by-nc-sa/4.0/
# or send a letter to
# Creative Commons, PO Box 1866, Mountain View, CA 94042, USA.
#
# CIF created using the CSD Python API on 29 September 2022
# The structure has been converted into the P1 space group
# The structure has a 3D framework
# The original CSD entry XIMPOA is in the orthorhombic crystal system
# The original CSD entry XIMPOA is in a Sohncke space group
# The framework has been calculated to contain at least 10.0% void space
# The void calculation uses a probe of radius 1.32A, grid spacing 0.4
#
###############################################################################

data_XIMPOA
_chemical_formula_moiety         '(C144 H128 N30 O32 Zn8)n'
_symmetry_cell_setting           triclinic
_symmetry_space_group_name_H-M   'P 1'
_symmetry_Int_Tables_number      1
_space_group_name_Hall           'P 1'
loop_
_symmetry_equiv_pos_site_id
_symmetry_equiv_pos_as_xyz
1 x,y,z
_cell_length_a                   14.552(4)
_cell_length_b                   15.639(4)
_cell_length_c                   16.764(4)
_cell_angle_alpha                90
_cell_angle_beta                 90
_cell_angle_gamma                90
_cell_volume                     3815.13
loop_
_atom_site_label
_atom_site_type_symbol
_atom_site_fract_x
_atom_site_fract_y
_atom_site_fract_z
C6 C 0.4339(3) 0.5527(3) 0.0250(3)
H3 H 0.4510 0.4963 0.0341
C7 C 0.4532(3) 0.6089(3) 0.0802(3)
H4 H 0.4362 0.6656 0.0724
C8 C 0.5014(3) 0.5848(3) 0.1547(3)
O7 O 0.5347(2) 0.50810(19) 0.15828(17)
O8 O 0.5063(2) 0.63791(19) 0.20870(19)
Zn5 Zn 0.58677(3) 0.47403(3) 0.26238(2)
O9 O 0.0347(2) 0.99190(19) 0.84172(17)
N10 N 0.2069(2) 0.9632(2) 0.73063(19)
C25 C 0.9317(3) 0.9504(3) 0.6468(3)
H21 H 0.9241 0.9079 0.6851
C26 C 0.8091(3) 0.8973(3) 0.5551(3)
H22 H 0.7639 0.9285 0.5241
H23 H 0.7784 0.8750 0.6021
C27 C 0.8436(3) 0.8237(3) 0.5063(3)
C28 C 0.8653(3) 0.8358(3) 0.4260(3)
H24 H 0.8625 0.8904 0.4041
C29 C 0.8908(3) 0.7672(3) 0.3784(3)
H25 H 0.9052 0.7758 0.3250
C30 C 0.8949(3) 0.6849(3) 0.4113(3)
C31 C 0.8754(3) 0.6735(3) 0.4906(3)
H26 H 0.8784 0.6190 0.5126
C32 C 0.8509(3) 0.7428(3) 0.5387(3)
H27 H 0.8396 0.7344 0.5928
C33 C 0.9190(3) 0.6096(3) 0.3582(3)
H28 H 0.9720 0.6238 0.3258
H29 H 0.9347 0.5607 0.3910
C34 C 0.7380(3) 0.5934(3) 0.2120(3)
H30 H 0.7071 0.6078 0.1654
C35 C 0.8210(3) 0.6245(3) 0.2349(3)
H31 H 0.8572 0.6635 0.2072
C36 C 0.7710(3) 0.5355(3) 0.3244(2)
H32 H 0.7682 0.5026 0.3705
N6 N 0.8812(2) 0.9571(2) 0.5807(2)
N7 N 0.7069(2) 0.5368(2) 0.26937(19)
N8 N 0.8411(2) 0.5876(2) 0.3061(2)
C8_2 C 0.0014(3) 0.9152(3) 0.8453(3)
O8_2 O 0.0063(2) 0.86209(19) 0.79130(19)
C1 C 0.7994(3) 0.1086(3) 0.3100(3)
C2 C 0.7556(3) 0.1909(3) 0.3332(3)
H1 H 0.7652 0.2123 0.3843
C3 C 0.7032(3) 0.2345(3) 0.2829(3)
H2 H 0.6919 0.2101 0.2332
C4 C 0.6611(3) 0.3191(3) 0.2995(2)
C23 C 0.4810(3) 0.4396(3) 0.4168(3)
H19 H 0.5148 0.3911 0.4299
C24 C 0.4128(3) 0.4728(3) 0.4605(3)
H20 H 0.3911 0.4525 0.5091
C25_2 C 0.4317(3) 0.5496(3) 0.3532(3)
H21_2 H 0.4241 0.5921 0.3149
C26_2 C 0.3091(3) 0.6027(3) 0.4449(3)
H22_2 H 0.2639 0.5715 0.4759
H23_2 H 0.2784 0.6250 0.3979
C27_2 C 0.3436(3) 0.6763(3) 0.4937(3)
C28_2 C 0.3653(3) 0.6642(3) 0.5740(3)
H24_2 H 0.3625 0.6096 0.5959
C29_2 C 0.3908(3) 0.7328(3) 0.6216(3)
H25_2 H 0.4052 0.7242 0.6750
C30_2 C 0.3949(3) 0.8151(3) 0.5887(3)
C31_2 C 0.3754(3) 0.8265(3) 0.5094(3)
H26_2 H 0.3784 0.8810 0.4874
C32_2 C 0.3509(3) 0.7572(3) 0.4613(3)
H27_2 H 0.3396 0.7656 0.4072
C33_2 C 0.4190(3) 0.8904(3) 0.6418(3)
H28_2 H 0.4720 0.8762 0.6742
H29_2 H 0.4347 0.9393 0.6090
C34_2 C 0.2380(3) 0.9066(3) 0.7880(3)
H30_2 H 0.2071 0.8922 0.8346
C35_2 C 0.3210(3) 0.8755(3) 0.7651(3)
H31_2 H 0.3572 0.8365 0.7928
C36_2 C 0.2710(3) 0.9645(3) 0.6756(2)
H32_2 H 0.2682 0.9974 0.6295
O1 O 0.8036(2) 0.09167(18) 0.23663(18)
O2 O 0.8250(3) 0.0584(2) 0.3623(2)
O3 O 0.6222(2) 0.35459(17) 0.23950(18)
O4 O 0.6679(2) 0.35418(19) 0.36623(18)
N5 N 0.4934(2) 0.4885(2) 0.3491(2)
N6_2 N 0.3812(2) 0.5429(2) 0.4193(2)
N8_2 N 0.3411(2) 0.9124(2) 0.6939(2)
Zn1 Zn 0.34392(3) 0.52367(3) 0.78964(3)
Zn2 Zn 0.08677(3) 0.02597(3) 0.73762(2)
C1_2 C 0.2994(3) 0.3914(3) 0.6900(3)
C2_2 C 0.2556(3) 0.3091(3) 0.6668(3)
H1_2 H 0.2652 0.2877 0.6157
C3_2 C 0.2032(3) 0.2655(3) 0.7171(3)
H2_2 H 0.1919 0.2899 0.7668
C4_2 C 0.1611(3) 0.1809(3) 0.7005(2)
C5 C 0.3858(3) 0.5729(3) 0.9476(3)
C9 C 0.2051(4) 0.6665(3) 0.8050(3)
H5 H 0.2268 0.6839 0.8546
C10 C 0.1343(4) 0.7026(3) 0.7651(3)
H6 H 0.0981 0.7480 0.7822
C11 C 0.1904(3) 0.5980(3) 0.6956(2)
H7 H 0.1987 0.5585 0.6547
C12 C 0.0594(3) 0.6768(3) 0.6319(3)
H8 H 0.0046 0.7006 0.6562
H9 H 0.0423 0.6233 0.6067
C13 C 0.0934(3) 0.7380(3) 0.5682(2)
C14 C 0.1047(3) 0.7109(3) 0.4904(3)
H10 H 0.0974 0.6534 0.4778
C15 C 0.1269(3) 0.7692(3) 0.4308(3)
H11 H 0.1349 0.7502 0.3787
C16 C 0.1372(3) 0.8545(3) 0.4480(3)
C17 C 0.1287(3) 0.8822(3) 0.5260(3)
H12 H 0.1373 0.9397 0.5382
C18 C 0.1072(3) 0.8237(3) 0.5869(3)
H13 H 0.1022 0.8423 0.6394
C19 C 0.1596(3) 0.9197(3) 0.3840(3)
H14 H 0.1606 0.9763 0.4078
H15 H 0.2204 0.9081 0.3630
C20 C 0.0211(3) 0.8787(3) 0.2106(3)
H16 H 0.0062 0.8519 0.1628
C21 C 0.0988(3) 0.8664(3) 0.2527(3)
H17 H 0.1467 0.8296 0.2397
C22 C 0.0127(3) 0.9598(3) 0.3148(2)
H19_2 H 0.0148 0.1089 0.5701
O1_2 O 0.3036(2) 0.40833(18) 0.76337(18)
O2_2 O 0.3250(3) 0.4416(2) 0.6377(2)
O3_2 O 0.1222(2) 0.14541(17) 0.76050(18)
O4_2 O 0.1679(2) 0.14582(19) 0.63377(18)
O5 O 0.3729(2) 0.5076(2) 0.90278(18)
O6 O 0.3653(3) 0.6472(2) 0.9294(2)
N1 N 0.2400(2) 0.5999(2) 0.7605(2)
N2 N 0.1267(2) 0.6590(2) 0.6948(2)
N4 N 0.0937(2) 0.9190(2) 0.3188(2)
N9 N 0.4669(2) 0.5623(2) 0.7497(2)
H18 H 0.9917 0.9986 0.3526
C23_2 C 0.9810(3) 0.0604(3) 0.5832(3)
C24_2 C 0.9128(3) 0.0272(3) 0.5395(3)
H20_2 H 0.8911 0.0475 0.4909
N3 N 0.9669(2) 0.9377(2) 0.2503(2)
N5_2 N 0.9934(2) 0.0115(2) 0.6509(2)
Zn3 Zn 0.84392(3) 0.97633(3) 0.21036(3)
C5_2 C 0.8858(3) 0.9271(3) 0.0524(3)
C9_2 C 0.7051(4) 0.8335(3) 0.1950(3)
H5_2 H 0.7268 0.8161 0.1454
C10_2 C 0.6343(4) 0.7974(3) 0.2349(3)
H6_2 H 0.5981 0.7520 0.2178
C11_2 C 0.6904(3) 0.9020(3) 0.3044(2)
H7_2 H 0.6987 0.9415 0.3453
C12_2 C 0.5594(3) 0.8232(3) 0.3681(3)
H8_2 H 0.5046 0.7994 0.3438
H9_2 H 0.5423 0.8767 0.3933
C13_2 C 0.5934(3) 0.7620(3) 0.4318(2)
C14_2 C 0.6047(3) 0.7891(3) 0.5096(3)
H10_2 H 0.5974 0.8466 0.5222
C15_2 C 0.6269(3) 0.7308(3) 0.5692(3)
H11_2 H 0.6349 0.7498 0.6213
C16_2 C 0.6372(3) 0.6455(3) 0.5520(3)
C17_2 C 0.6287(3) 0.6178(3) 0.4740(3)
H12_2 H 0.6373 0.5603 0.4618
C18_2 C 0.6072(3) 0.6763(3) 0.4131(3)
H13_2 H 0.6022 0.6577 0.3606
C19_2 C 0.6596(3) 0.5803(3) 0.6160(3)
H14_2 H 0.6606 0.5237 0.5922
H15_2 H 0.7204 0.5919 0.6370
C20_2 C 0.5211(3) 0.6213(3) 0.7894(3)
H16_2 H 0.5062 0.6481 0.8372
C21_2 C 0.5988(3) 0.6336(3) 0.7473(3)
H17_2 H 0.6467 0.6704 0.7603
C22_2 C 0.5127(3) 0.5402(3) 0.6852(2)
H18_2 H 0.4917 0.5014 0.6474
O5_2 O 0.8729(2) 0.9924(2) 0.09722(18)
O6_2 O 0.8653(3) 0.8528(2) 0.0706(2)
N1_2 N 0.7400(2) 0.9001(2) 0.2395(2)
N2_2 N 0.6267(2) 0.8410(2) 0.3052(2)
N4_2 N 0.5937(2) 0.5810(2) 0.6812(2)
C25_3 C 0.5683(3) 0.0496(3) 0.1468(3)
H21_3 H 0.5759 0.0921 0.1851
C26_3 C 0.6909(3) 0.1027(3) 0.0551(3)
H22_3 H 0.7361 0.0715 0.0241
H23_3 H 0.7216 0.1250 0.1021
C27_3 C 0.6564(3) 0.1763(3) 0.0063(3)
H26_3 H 0.6216 0.3810 0.0126
C32_3 C 0.6491(3) 0.2572(3) 0.0387(3)
H27_3 H 0.6604 0.2656 0.0928
N6_3 N 0.6188(2) 0.0429(2) 0.0807(2)
O9_2 O 0.4653(2) 0.00810(19) 0.34172(17)
N10_2 N 0.2931(2) 0.0368(2) 0.23063(19)
C14_3 C 0.3953(3) 0.2891(3) 0.9904(3)
H10_3 H 0.4026 0.3466 0.9778
C15_3 C 0.3731(3) 0.2308(3) 0.9308(3)
H11_3 H 0.3651 0.2498 0.8787
C16_3 C 0.3628(3) 0.1455(3) 0.9480(3)
C19_3 C 0.3404(3) 0.0803(3) 0.8840(3)
H14_3 H 0.3394 0.0237 0.9078
H15_3 H 0.2796 0.0919 0.8630
C20_3 C 0.4789(3) 0.1213(3) 0.7106(3)
H16_3 H 0.4938 0.1481 0.6628
C21_3 C 0.4012(3) 0.1336(3) 0.7527(3)
H17_3 H 0.3533 0.1704 0.7397
C22_3 C 0.4873(3) 0.0402(3) 0.8148(2)
H18_3 H 0.5083 0.0014 0.8526
H20_3 H 0.6089 0.9525 0.9909
N3_2 N 0.5331(2) 0.0623(2) 0.7503(2)
N4_3 N 0.4063(2) 0.0810(2) 0.8188(2)
Zn3_2 Zn 0.65608(3) 0.02367(3) 0.71036(3)
H20_4 H 0.1089 0.5475 0.0091
C28_3 C 0.1347(3) 0.3358(3) 0.0740(3)
H24_3 H 0.1375 0.3904 0.0959
C29_3 C 0.1092(3) 0.2672(3) 0.1216(3)
H25_3 H 0.0948 0.2758 0.1750
C30_3 C 0.1051(3) 0.1849(3) 0.0887(3)
C31_3 C 0.1246(3) 0.1735(3) 0.0094(3)
C33_3 C 0.0810(3) 0.1096(3) 0.1418(3)
H28_3 H 0.0280 0.1238 0.1742
H29_3 H 0.0653 0.0607 0.1090
C34_3 C 0.2620(3) 0.0934(3) 0.2880(3)
H30_3 H 0.2929 0.1078 0.3346
C35_3 C 0.1790(3) 0.1245(3) 0.2651(3)
H31_3 H 0.1428 0.1635 0.2928
C36_3 C 0.2290(3) 0.0355(3) 0.1756(2)
H32_3 H 0.2318 0.0026 0.1295
N8_3 N 0.1589(2) 0.0876(2) 0.1939(2)
C5_3 C 0.6142(3) 0.0729(3) 0.5524(3)
C6_2 C 0.5661(3) 0.0527(3) 0.4750(3)
C7_2 C 0.5468(3) 0.1089(3) 0.4198(3)
H4_2 H 0.5638 0.1656 0.4276
C8_3 C 0.4986(3) 0.0848(3) 0.3453(3)
C9_3 C 0.7949(4) 0.1665(3) 0.6950(3)
H5_3 H 0.7732 0.1839 0.6454
C10_3 C 0.8657(4) 0.2026(3) 0.7349(3)
H6_3 H 0.9019 0.2480 0.7178
C11_3 C 0.8096(3) 0.0980(3) 0.8044(2)
H7_3 H 0.8013 0.0585 0.8453
C12_3 C 0.9406(3) 0.1768(3) 0.8681(3)
H8_3 H 0.9954 0.2006 0.8438
H9_3 H 0.9577 0.1233 0.8933
C13_3 C 0.9066(3) 0.2380(3) 0.9318(2)
C17_3 C 0.8713(3) 0.3822(3) 0.9740(3)
H12_3 H 0.8627 0.4397 0.9618
C18_3 C 0.8928(3) 0.3237(3) 0.9131(3)
H13_3 H 0.8978 0.3423 0.8606
O5_3 O 0.6271(2) 0.0076(2) 0.59722(18)
O6_3 O 0.6347(3) 0.1472(2) 0.5706(2)
O8_3 O 0.4937(2) 0.13791(19) 0.29130(19)
N1_3 N 0.7600(2) 0.0999(2) 0.7395(2)
N2_3 N 0.8733(2) 0.1590(2) 0.8052(2)
C28_4 C 0.6347(3) 0.1642(3) 0.9260(3)
H24_4 H 0.6375 0.1096 0.9041
C29_4 C 0.6092(3) 0.2328(3) 0.8784(3)
H25_4 H 0.5948 0.2242 0.8250
C30_4 C 0.6051(3) 0.3151(3) 0.9113(3)
C31_4 C 0.6246(3) 0.3265(3) 0.9906(3)
C33_4 C 0.5810(3) 0.3904(3) 0.8582(3)
H28_4 H 0.5280 0.3762 0.8258
H29_4 H 0.5653 0.4393 0.8910
C34_4 C 0.7620(3) 0.4066(3) 0.7120(3)
H30_4 H 0.7929 0.3922 0.6654
C35_4 C 0.6790(3) 0.3755(3) 0.7349(3)
H31_4 H 0.6428 0.3365 0.7072
C36_4 C 0.7290(3) 0.4645(3) 0.8244(2)
H32_4 H 0.7318 0.4974 0.8705
N7_2 N 0.7931(2) 0.4632(2) 0.76937(19)
N8_4 N 0.6589(2) 0.4124(2) 0.8061(2)
Zn4 Zn 0.91323(3) 0.52597(3) 0.76238(2)
Zn1_2 Zn 0.15608(3) 0.47633(3) 0.28964(3)
Zn2_2 Zn 0.41323(3) 0.97403(3) 0.23762(2)
C1_3 C 0.2006(3) 0.6086(3) 0.1900(3)
C2_3 C 0.2444(3) 0.6909(3) 0.1668(3)
H1_3 H 0.2348 0.7123 0.1157
C3_3 C 0.2968(3) 0.7345(3) 0.2171(3)
H2_3 H 0.3081 0.7101 0.2668
C4_3 C 0.3389(3) 0.8191(3) 0.2005(2)
C5_4 C 0.1142(3) 0.4271(3) 0.4476(3)
C6_3 C 0.0661(3) 0.4473(3) 0.5250(3)
H3_2 H 0.0490 0.5037 0.5341
C7_3 C 0.0468(3) 0.3911(3) 0.5802(3)
H4_3 H 0.0638 0.3344 0.5724
C9_4 C 0.2949(4) 0.3335(3) 0.3050(3)
H5_4 H 0.2732 0.3161 0.3546
C10_4 C 0.3657(4) 0.2974(3) 0.2651(3)
H6_4 H 0.4019 0.2520 0.2822
C11_4 C 0.3096(3) 0.4020(3) 0.1956(2)
H7_4 H 0.3013 0.4415 0.1547
C12_4 C 0.4406(3) 0.3232(3) 0.1319(3)
H8_4 H 0.4954 0.2994 0.1562
H9_4 H 0.4577 0.3767 0.1067
C13_4 C 0.4066(3) 0.2620(3) 0.0682(2)
C17_4 C 0.3713(3) 0.1178(3) 0.0260(3)
H12_4 H 0.3627 0.0603 0.0382
C18_4 C 0.3928(3) 0.1763(3) 0.0869(3)
H13_4 H 0.3978 0.1577 0.1394
C23_3 C 0.5190(3) 0.9396(3) 0.0832(3)
H19_3 H 0.4852 0.8911 0.0701
C24_3 C 0.5872(3) 0.9728(3) 0.0395(3)
O1_3 O 0.1964(2) 0.59167(18) 0.26337(18)
O2_3 O 0.1750(3) 0.5584(2) 0.1377(2)
O3_3 O 0.3778(2) 0.85459(17) 0.26050(18)
O4_3 O 0.3321(2) 0.85418(19) 0.13377(18)
O5_4 O 0.1271(2) 0.4924(2) 0.40278(18)
O6_4 O 0.1347(3) 0.3528(2) 0.4294(2)
N1_4 N 0.2600(2) 0.4001(2) 0.2605(2)
N2_4 N 0.3733(2) 0.3410(2) 0.1948(2)
N5_3 N 0.5066(2) 0.9885(2) 0.1509(2)
N9_2 N 0.0331(2) 0.4377(2) 0.2497(2)
C8_4 C 0.9986(3) 0.4152(3) 0.6547(3)
O7_2 O 0.9653(2) 0.49190(19) 0.65828(17)
O8_4 O 0.9937(2) 0.36209(19) 0.70870(19)
H18_4 H 0.0083 0.4986 0.1474
C1_4 C 0.7006(3) 0.8914(3) 0.8100(3)
C2_4 C 0.7444(3) 0.8091(3) 0.8332(3)
H1_4 H 0.7348 0.7877 0.8843
C3_4 C 0.7968(3) 0.7655(3) 0.7829(3)
H2_4 H 0.8081 0.7899 0.7332
C4_4 C 0.8389(3) 0.6809(3) 0.7995(2)
H3_3 H 0.5490 0.9963 0.4659
H19_4 H 0.9852 0.6089 0.9299
O1_4 O 0.6964(2) 0.90833(18) 0.73663(18)
O2_4 O 0.6750(3) 0.9416(2) 0.8623(2)
O3_4 O 0.8778(2) 0.64541(17) 0.73950(18)
O4_4 O 0.8321(2) 0.64582(19) 0.86623(18)
H3_4 H 0.9510 0.0037 0.9659
C6_4 C 0.9339(3) 0.9473(3) 0.9750(3)
C7_4 C 0.9532(3) 0.8911(3) 0.9198(3)
H4_4 H 0.9362 0.8344 0.9276
C23_4 C 0.0190(3) 0.5604(3) 0.9168(3)
C24_4 C 0.0872(3) 0.5272(3) 0.9605(3)
C25_4 C 0.0683(3) 0.4504(3) 0.8532(3)
H21_4 H 0.0759 0.4079 0.8149
C26_4 C 0.1909(3) 0.3973(3) 0.9449(3)
H22_4 H 0.2361 0.4285 0.9759
H23_4 H 0.2216 0.3750 0.8979
C27_4 C 0.1564(3) 0.3237(3) 0.9937(3)
H26_4 H 0.1216 0.1190 0.9874
C32_4 C 0.1491(3) 0.2428(3) 0.9613(3)
H27_4 H 0.1604 0.2344 0.9072
N5_4 N 0.0066(2) 0.5115(2) 0.8491(2)
N6_4 N 0.1188(2) 0.4571(2) 0.9193(2)
C14_4 C 0.8953(3) 0.2109(3) 0.0096(3)
H10_4 H 0.9026 0.1534 0.0222
C15_4 C 0.8731(3) 0.2692(3) 0.0692(3)
H11_4 H 0.8651 0.2502 0.1213
C16_4 C 0.8628(3) 0.3545(3) 0.0520(3)
C19_4 C 0.8404(3) 0.4197(3) 0.1160(3)
H14_4 H 0.8394 0.4763 0.0922
H15_4 H 0.7796 0.4081 0.1370
C20_4 C 0.9789(3) 0.3787(3) 0.2894(3)
H16_4 H 0.9938 0.3519 0.3372
C21_4 C 0.9012(3) 0.3664(3) 0.2473(3)
H17_4 H 0.8533 0.3296 0.2603
C22_4 C 0.9873(3) 0.4598(3) 0.1852(2)
N4_4 N 0.9063(2) 0.4190(2) 0.1812(2)
loop_
_geom_bond_atom_site_label_1
_geom_bond_atom_site_label_2
_geom_bond_site_symmetry_1
_geom_bond_site_symmetry_2
C6 H3 1_555 1_555
C7 C6 1_555 1_555
H4 C7 1_555 1_555
C8 C7 1_555 1_555
O7 C8 1_555 1_555
O8 C8 1_555 1_555
Zn5 O7 1_555 1_555
C25 H21 1_555 1_555
C26 H22 1_555 1_555
H23 C26 1_555 1_555
C27 C26 1_555 1_555
C28 C27 1_555 1_555
H24 C28 1_555 1_555
C29 C28 1_555 1_555
H25 C29 1_555 1_555
C30 C29 1_555 1_555
C31 C30 1_555 1_555
H26 C31 1_555 1_555
C32 C27 1_555 1_555
H27 C32 1_555 1_555
C33 C30 1_555 1_555
H28 C33 1_555 1_555
H29 C33 1_555 1_555
C34 H30 1_555 1_555
C35 C34 1_555 1_555
H31 C35 1_555 1_555
C36 H32 1_555 1_555
N7 C34 1_555 1_555
N8 C33 1_555 1_555
Zn5 N7 1_555 1_555
C25 N6 1_555 1_555
C26 N6 1_555 1_555
C31 C32 1_555 1_555
C35 N8 1_555 1_555
C36 N7 1_555 1_555
C36 N8 1_555 1_555
O9 C8_2 1_555 1_555
O8_2 C8_2 1_555 1_555
Zn5 O3 1_555 1_555
C1 C2 1_555 1_555
C2 H1 1_555 1_555
C3 C2 1_555 1_555
H2 C3 1_555 1_555
C4 C3 1_555 1_555
C23 H19 1_555 1_555
C24 C23 1_555 1_555
H20 C24 1_555 1_555
C25_2 H21_2 1_555 1_555
C26_2 H22_2 1_555 1_555
H23_2 C26_2 1_555 1_555
C27_2 C26_2 1_555 1_555
C28_2 C27_2 1_555 1_555
H24_2 C28_2 1_555 1_555
C29_2 C28_2 1_555 1_555
H25_2 C29_2 1_555 1_555
C30_2 C29_2 1_555 1_555
C31_2 C30_2 1_555 1_555
H26_2 C31_2 1_555 1_555
C32_2 C27_2 1_555 1_555
H27_2 C32_2 1_555 1_555
C33_2 C30_2 1_555 1_555
H28_2 C33_2 1_555 1_555
H29_2 C33_2 1_555 1_555
C34_2 H30_2 1_555 1_555
C35_2 C34_2 1_555 1_555
H31_2 C35_2 1_555 1_555
C36_2 H32_2 1_555 1_555
O1 C1 1_555 1_555
O2 C1 1_555 1_555
O3 C4 1_555 1_555
O4 C4 1_555 1_555
N5 Zn5 1_555 1_555
N6_2 C24 1_555 1_555
N10 C34_2 1_555 1_555
N8_2 C33_2 1_555 1_555
C23 N5 1_555 1_555
C25_2 N5 1_555 1_555
C25_2 N6_2 1_555 1_555
C26_2 N6_2 1_555 1_555
C31_2 C32_2 1_555 1_555
C35_2 N8_2 1_555 1_555
C36_2 N10 1_555 1_555
C36_2 N8_2 1_555 1_555
Zn1 O1_2 1_555 1_555
Zn2 O3_2 1_555 1_555
C1_2 C2_2 1_555 1_555
C2_2 H1_2 1_555 1_555
C3_2 C2_2 1_555 1_555
H2_2 C3_2 1_555 1_555
C4_2 C3_2 1_555 1_555
C9 H5 1_555 1_555
C10 C9 1_555 1_555
H6 C10 1_555 1_555
C11 H7 1_555 1_555
C12 H8 1_555 1_555
H9 C12 1_555 1_555
C13 C12 1_555 1_555
C14 C13 1_555 1_555
H10 C14 1_555 1_555
C15 C14 1_555 1_555
H11 C15 1_555 1_555
C16 C15 1_555 1_555
C17 C16 1_555 1_555
H12 C17 1_555 1_555
C18 C13 1_555 1_555
H13 C18 1_555 1_555
C19 C16 1_555 1_555
H14 C19 1_555 1_555
H15 C19 1_555 1_555
C20 H16 1_555 1_555
C21 C20 1_555 1_555
H17 C21 1_555 1_555
O1_2 C1_2 1_555 1_555
O2_2 C1_2 1_555 1_555
O3_2 C4_2 1_555 1_555
O4_2 C4_2 1_555 1_555
O5 Zn1 1_555 1_555
O6 C5 1_555 1_555
N1 Zn1 1_555 1_555
N2 C10 1_555 1_555
N4 C19 1_555 1_555
N9 Zn1 1_555 1_555
C5 O5 1_555 1_555
C9 N1 1_555 1_555
C11 N1 1_555 1_555
C11 N2 1_555 1_555
C12 N2 1_555 1_555
C17 C18 1_555 1_555
C21 N4 1_555 1_555
C22 N4 1_555 1_555
C24_2 C23_2 1_555 1_555
H20_2 C24_2 1_555 1_555
Zn3 N3 1_555 1_555
C23_2 N5_2 1_555 1_555
C9_2 H5_2 1_555 1_555
C10_2 C9_2 1_555 1_555
H6_2 C10_2 1_555 1_555
C11_2 H7_2 1_555 1_555
C12_2 H8_2 1_555 1_555
H9_2 C12_2 1_555 1_555
C13_2 C12_2 1_555 1_555
C14_2 C13_2 1_555 1_555
H10_2 C14_2 1_555 1_555
C15_2 C14_2 1_555 1_555
H11_2 C15_2 1_555 1_555
C16_2 C15_2 1_555 1_555
C17_2 C16_2 1_555 1_555
H12_2 C17_2 1_555 1_555
C18_2 C13_2 1_555 1_555
H13_2 C18_2 1_555 1_555
C19_2 C16_2 1_555 1_555
H14_2 C19_2 1_555 1_555
H15_2 C19_2 1_555 1_555
C20_2 H16_2 1_555 1_555
C21_2 C20_2 1_555 1_555
H17_2 C21_2 1_555 1_555
C22_2 H18_2 1_555 1_555
O5_2 Zn3 1_555 1_555
O6_2 C5_2 1_555 1_555
N1_2 Zn3 1_555 1_555
N2_2 C10_2 1_555 1_555
N9 C20_2 1_555 1_555
N4_2 C19_2 1_555 1_555
C5_2 O5_2 1_555 1_555
C9_2 N1_2 1_555 1_555
C11_2 N1_2 1_555 1_555
C11_2 N2_2 1_555 1_555
C12_2 N2_2 1_555 1_555
C17_2 C18_2 1_555 1_555
C21_2 N4_2 1_555 1_555
C22_2 N9 1_555 1_555
C22_2 N4_2 1_555 1_555
C25_3 H21_3 1_555 1_555
C26_3 H22_3 1_555 1_555
H23_3 C26_3 1_555 1_555
C27_3 C26_3 1_555 1_555
C32_3 C27_3 1_555 1_555
H27_3 C32_3 1_555 1_555
C25_3 N6_3 1_555 1_555
C26_3 N6_3 1_555 1_555
H10_3 C14_3 1_555 1_555
C15_3 C14_3 1_555 1_555
H11_3 C15_3 1_555 1_555
C16_3 C15_3 1_555 1_555
C19_3 C16_3 1_555 1_555
H14_3 C19_3 1_555 1_555
H15_3 C19_3 1_555 1_555
C20_3 H16_3 1_555 1_555
C21_3 C20_3 1_555 1_555
H17_3 C21_3 1_555 1_555
C22_3 H18_3 1_555 1_555
N3_2 C20_3 1_555 1_555
N4_3 C19_3 1_555 1_555
Zn3_2 N3_2 1_555 1_555
C21_3 N4_3 1_555 1_555
C22_3 N3_2 1_555 1_555
C22_3 N4_3 1_555 1_555
H24_3 C28_3 1_555 1_555
C29_3 C28_3 1_555 1_555
H25_3 C29_3 1_555 1_555
C30_3 C29_3 1_555 1_555
C31_3 C30_3 1_555 1_555
C33_3 C30_3 1_555 1_555
H28_3 C33_3 1_555 1_555
H29_3 C33_3 1_555 1_555
C34_3 H30_3 1_555 1_555
C35_3 C34_3 1_555 1_555
H31_3 C35_3 1_555 1_555
C36_3 H32_3 1_555 1_555
N10_2 C34_3 1_555 1_555
N8_3 C33_3 1_555 1_555
C35_3 N8_3 1_555 1_555
C36_3 N10_2 1_555 1_555
C36_3 N8_3 1_555 1_555
C5_3 C6_2 1_555 1_555
C7_2 C6_2 1_555 1_555
H4_2 C7_2 1_555 1_555
C8_3 C7_2 1_555 1_555
C9_3 H5_3 1_555 1_555
C10_3 C9_3 1_555 1_555
H6_3 C10_3 1_555 1_555
C11_3 H7_3 1_555 1_555
C12_3 H8_3 1_555 1_555
H9_3 C12_3 1_555 1_555
C13_3 C12_3 1_555 1_555
H12_3 C17_3 1_555 1_555
C18_3 C13_3 1_555 1_555
H13_3 C18_3 1_555 1_555
O5_3 Zn3_2 1_555 1_555
O6_3 C5_3 1_555 1_555
O9_2 C8_3 1_555 1_555
O8_3 C8_3 1_555 1_555
N1_3 Zn3_2 1_555 1_555
N2_3 C10_3 1_555 1_555
C5_3 O5_3 1_555 1_555
C9_3 N1_3 1_555 1_555
C11_3 N1_3 1_555 1_555
C11_3 N2_3 1_555 1_555
C12_3 N2_3 1_555 1_555
C17_3 C18_3 1_555 1_555
H24_4 C28_4 1_555 1_555
C29_4 C28_4 1_555 1_555
H25_4 C29_4 1_555 1_555
C30_4 C29_4 1_555 1_555
C31_4 C30_4 1_555 1_555
C33_4 C30_4 1_555 1_555
H28_4 C33_4 1_555 1_555
H29_4 C33_4 1_555 1_555
C34_4 H30_4 1_555 1_555
C35_4 C34_4 1_555 1_555
H31_4 C35_4 1_555 1_555
C36_4 H32_4 1_555 1_555
N7_2 C34_4 1_555 1_555
N8_4 C33_4 1_555 1_555
Zn4 N7_2 1_555 1_555
C35_4 N8_4 1_555 1_555
C36_4 N7_2 1_555 1_555
C36_4 N8_4 1_555 1_555
Zn1_2 O1_3 1_555 1_555
Zn2_2 O3_3 1_555 1_555
C1_3 C2_3 1_555 1_555
C2_3 H1_3 1_555 1_555
C3_3 C2_3 1_555 1_555
H2_3 C3_3 1_555 1_555
C4_3 C3_3 1_555 1_555
C5_4 C6_3 1_555 1_555
C6_3 H3_2 1_555 1_555
C7_3 C6_3 1_555 1_555
H4_3 C7_3 1_555 1_555
C9_4 H5_4 1_555 1_555
C10_4 C9_4 1_555 1_555
H6_4 C10_4 1_555 1_555
C11_4 H7_4 1_555 1_555
C12_4 H8_4 1_555 1_555
H9_4 C12_4 1_555 1_555
C13_4 C12_4 1_555 1_555
H12_4 C17_4 1_555 1_555
C18_4 C13_4 1_555 1_555
H13_4 C18_4 1_555 1_555
C23_3 H19_3 1_555 1_555
C24_3 C23_3 1_555 1_555
O1_3 C1_3 1_555 1_555
O2_3 C1_3 1_555 1_555
O3_3 C4_3 1_555 1_555
O4_3 C4_3 1_555 1_555
O5_4 Zn1_2 1_555 1_555
O6_4 C5_4 1_555 1_555
N1_4 Zn1_2 1_555 1_555
N2_4 C10_4 1_555 1_555
N5_3 Zn2_2 1_555 1_555
N9_2 Zn1_2 1_555 1_555
C5_4 O5_4 1_555 1_555
C9_4 N1_4 1_555 1_555
C11_4 N1_4 1_555 1_555
C11_4 N2_4 1_555 1_555
C12_4 N2_4 1_555 1_555
C17_4 C18_4 1_555 1_555
C23_3 N5_3 1_555 1_555
O7_2 C8_4 1_555 1_555
O8_4 C8_4 1_555 1_555
Zn4 O7_2 1_555 1_555
Zn4 O3_4 1_555 1_555
C1_4 C2_4 1_555 1_555
C2_4 H1_4 1_555 1_555
C3_4 C2_4 1_555 1_555
H2_4 C3_4 1_555 1_555
C4_4 C3_4 1_555 1_555
O1_4 C1_4 1_555 1_555
O2_4 C1_4 1_555 1_555
O3_4 C4_4 1_555 1_555
O4_4 C4_4 1_555 1_555
C7_4 C6_4 1_555 1_555
H4_4 C7_4 1_555 1_555
C24_4 C23_4 1_555 1_555
C25_4 H21_4 1_555 1_555
C26_4 H22_4 1_555 1_555
H23_4 C26_4 1_555 1_555
C27_4 C26_4 1_555 1_555
C32_4 C27_4 1_555 1_555
H27_4 C32_4 1_555 1_555
N6_4 C24_4 1_555 1_555
C23_4 N5_4 1_555 1_555
C25_4 N5_4 1_555 1_555
C25_4 N6_4 1_555 1_555
C26_4 N6_4 1_555 1_555
H10_4 C14_4 1_555 1_555
C15_4 C14_4 1_555 1_555
H11_4 C15_4 1_555 1_555
C16_4 C15_4 1_555 1_555
C19_4 C16_4 1_555 1_555
H14_4 C19_4 1_555 1_555
H15_4 C19_4 1_555 1_555
C20_4 H16_4 1_555 1_555
C21_4 C20_4 1_555 1_555
H17_4 C21_4 1_555 1_555
N4_4 C19_4 1_555 1_555
C21_4 N4_4 1_555 1_555
C22_4 N4_4 1_555 1_555

#END
