
###############################################################################
#
# This file contains modified crystal structure data generated from the
# MOF subset of the Cambridge Structural Database (CSD) v543 
# hosted by the Cambridge Crystallographic Data Centre (CCDC).
#
# This work is licensed under the Creative Commons
# Attribution-NonCommercial-ShareAlike 4.0 International License.
# To view a copy of this license, visit
# http://creativecommons.org/licenses/by-nc-sa/4.0/
# or send a letter to
# Creative Commons, PO Box 1866, Mountain View, CA 94042, USA.
#
# CIF created using the CSD Python API on 29 September 2022
# The structure has been converted into the P1 space group
# The structure has a 3D framework
# The original CSD entry XINFUW is in the orthorhombic crystal system
# The original CSD entry XINFUW is in a Sohncke space group
# The framework has been calculated to contain at least 10.0% void space
# The void calculation uses a probe of radius 1.32A, grid spacing 0.4
#
###############################################################################

data_XINFUW
_chemical_formula_moiety         '(C80 H88 O44 S8 Zn8)n'
_symmetry_cell_setting           triclinic
_symmetry_space_group_name_H-M   'P 1'
_symmetry_Int_Tables_number      1
_space_group_name_Hall           'P 1'
loop_
_symmetry_equiv_pos_site_id
_symmetry_equiv_pos_as_xyz
1 x,y,z
_cell_length_a                   12.6977(16)
_cell_length_b                   15.1033(19)
_cell_length_c                   18.903(2)
_cell_angle_alpha                90
_cell_angle_beta                 90
_cell_angle_gamma                90
_cell_volume                     3625.16
loop_
_atom_site_label
_atom_site_type_symbol
_atom_site_fract_x
_atom_site_fract_y
_atom_site_fract_z
H20 H 0.0747 0.0068 0.9113
O7 O 0.04646(14) 0.45223(13) 0.77187(10)
O8 O 0.03103(15) 0.41046(12) 0.88471(11)
C16 C 0.01154(19) 0.46074(17) 0.83283(14)
H16 H 0.0355 0.8371 0.9919
C20 C 0.0851(3) 0.9568(3) 0.8807(3)
H18 H 0.0940 0.9769 0.8329
H19 H 0.1468 0.9249 0.8954
Zn3 Zn 0.19879(2) 0.451718(19) 0.725748(15)
Zn5 Zn 0.12767(2) 0.308768(18) 0.881994(15)
O3 O 0.06602(16) 0.24118(13) 0.95987(11)
O4 O 0.2128(2) 0.16217(18) 0.96024(15)
C8 C 0.1245(2) 0.17848(17) 0.98283(14)
O1 O 0.27835(15) 0.46438(13) 0.82094(10)
O2 O 0.26971(15) 0.35078(14) 0.89702(11)
O5 O 0.21224(15) 0.31341(12) 0.72331(11)
O6 O 0.11016(16) 0.23610(13) 0.79802(10)
O9 O 0.34168(17) 0.47149(15) 0.67423(12)
C1 C 0.3172(2) 0.41245(17) 0.86565(13)
C2 C 0.4312(2) 0.42355(16) 0.88643(14)
C3 C 0.4940(2) 0.48685(19) 0.85376(16)
H1 H 0.4660 0.5235 0.8190
C4 C 0.5995(2) 0.4951(2) 0.87354(17)
H2 H 0.6422 0.5367 0.8514
C5 C 0.6409(2) 0.4414(2) 0.92598(16)
H3 H 0.7109 0.4479 0.9395
C6 C 0.5785(2) 0.37781(18) 0.95859(14)
C7 C 0.4736(2) 0.36857(16) 0.93849(13)
H4 H 0.4317 0.3257 0.9598
C9 C 0.1557(2) 0.24852(17) 0.73937(13)
C10 C 0.1799(2) 0.18621(17) 0.61701(14)
H5 H 0.2194 0.2361 0.6056
C11 C 0.1627(2) 0.12145(19) 0.56641(15)
H6 H 0.1913 0.1274 0.5214
C12 C 0.1024(2) 0.04758(19) 0.58329(14)
H7 H 0.0902 0.0043 0.5493
C13 C 0.06032(19) 0.03797(16) 0.65074(14)
C14 C 0.0787(2) 0.10255(17) 0.70174(13)
H8 H 0.0512 0.0960 0.7470
C15 C 0.1385(2) 0.17721(16) 0.68488(13)
S1 S 0.13588(6) 0.63643(5) 0.65108(4)
C17 C 0.2331(3) 0.6364(3) 0.58296(18)
H9 H 0.2985 0.6581 0.6016
H10 H 0.2105 0.6739 0.5449
H11 H 0.2427 0.5771 0.5657
C18 C 0.1423(3) 0.7514(2) 0.6714(2)
H12 H 0.0967 0.7641 0.7106
H13 H 0.1203 0.7852 0.6309
H14 H 0.2133 0.7670 0.6835
O10 O 0.18657(17) 0.59171(13) 0.71409(10)
S2 S 0.02614(6) 0.38604(5) 0.61439(4)
C19 C 0.0277(4) 0.3674(3) 0.5218(2)
H15 H 0.0316 0.4232 0.4975
H17 H 0.0878 0.3320 0.5097
O11 O 0.12212(17) 0.44351(14) 0.62712(10)
H21 H 0.386(3) 0.438(3) 0.661(2)
H22 H 0.371(3) 0.525(3) 0.673(2)
H1_2 H 0.5340 0.0235 0.6810
H2_2 H 0.3578 0.0367 0.6486
S1_2 S 0.86412(6) 0.13643(5) 0.84892(4)
C17_2 C 0.7669(3) 0.1364(3) 0.91704(18)
H9_2 H 0.7015 0.1581 0.8984
H10_2 H 0.7895 0.1739 0.9551
H11_2 H 0.7573 0.0771 0.9343
C18_2 C 0.8577(3) 0.2514(2) 0.8286(2)
H12_2 H 0.9033 0.2641 0.7894
H13_2 H 0.8797 0.2852 0.8691
H14_2 H 0.7867 0.2670 0.8165
O10_2 O 0.81343(17) 0.09171(13) 0.78591(10)
H22_2 H 0.629(3) 0.025(3) 0.827(2)
H15_2 H 0.9684 0.9232 0.0025
Zn1 Zn 0.80121(2) 0.951718(19) 0.774252(15)
Zn2 Zn 0.87233(2) 0.808768(18) 0.618006(15)
O1_2 O 0.72165(15) 0.96438(13) 0.67906(10)
O2_2 O 0.73029(15) 0.85078(14) 0.60298(11)
O3_2 O 0.43398(16) 0.75882(13) 0.45987(11)
O4_2 O 0.2872(2) 0.83783(18) 0.46024(15)
O5_2 O 0.78776(15) 0.81341(12) 0.77669(11)
O6_2 O 0.88984(16) 0.73610(13) 0.70198(10)
O9_2 O 0.65832(17) 0.97149(15) 0.82577(12)
C1_2 C 0.6828(2) 0.91245(17) 0.63435(13)
C2_2 C 0.5688(2) 0.92355(16) 0.61357(14)
C3_2 C 0.5060(2) 0.98685(19) 0.64624(16)
C4_2 C 0.4005(2) 0.9951(2) 0.62646(17)
C5_2 C 0.3591(2) 0.9414(2) 0.57402(16)
H3_2 H 0.2891 0.9479 0.5605
C6_2 C 0.4215(2) 0.87781(18) 0.54141(14)
C7_2 C 0.5264(2) 0.86857(16) 0.56151(13)
H4_2 H 0.5683 0.8257 0.5402
C8_2 C 0.3755(2) 0.82152(17) 0.48283(14)
C9_2 C 0.8443(2) 0.74852(17) 0.76063(13)
C10_2 C 0.8201(2) 0.68621(17) 0.88299(14)
H5_2 H 0.7806 0.7361 0.8944
C11_2 C 0.8373(2) 0.62145(19) 0.93359(15)
H6_2 H 0.8087 0.6274 0.9786
C12_2 C 0.8976(2) 0.54758(19) 0.91671(14)
H7_2 H 0.9098 0.5043 0.9507
C13_2 C 0.93968(19) 0.53797(16) 0.84926(14)
C14_2 C 0.9213(2) 0.60255(17) 0.79826(13)
H8_2 H 0.9488 0.5960 0.7530
C15_2 C 0.8615(2) 0.67721(16) 0.81512(13)
S2_2 S 0.97386(6) 0.88604(5) 0.88561(4)
C19_2 C 0.9723(4) 0.8674(3) 0.9782(2)
H17_2 H 0.9122 0.8320 0.9903
O11_2 O 0.87788(17) 0.94351(14) 0.87288(10)
H21_2 H 0.614(3) 0.938(3) 0.839(2)
Zn4 Zn 0.37233(2) 0.691232(18) 0.381994(15)
O12 O 0.93398(16) 0.74118(13) 0.54013(11)
O13 O 0.95354(14) 0.95223(13) 0.72813(10)
O14 O 0.96897(15) 0.91046(12) 0.61529(11)
Zn1_2 Zn 0.69879(2) 0.048282(19) 0.274252(15)
Zn2_2 Zn 0.62767(2) 0.191232(18) 0.118006(15)
O1_3 O 0.77835(15) 0.03562(13) 0.17906(10)
O2_3 O 0.76971(15) 0.14922(14) 0.10298(11)
O5_3 O 0.71224(15) 0.18659(12) 0.27669(11)
O6_3 O 0.61016(16) 0.26390(13) 0.20198(10)
O7_2 O 0.45354(14) 0.54777(13) 0.27187(10)
O8_2 O 0.46897(15) 0.58954(12) 0.38471(11)
O9_3 O 0.84168(17) 0.02851(15) 0.32577(12)
C1_3 C 0.8172(2) 0.08755(17) 0.13435(13)
C2_3 C 0.9312(2) 0.07645(16) 0.11357(14)
C3_3 C 0.9940(2) 0.01315(19) 0.14624(16)
C7_3 C 0.9736(2) 0.13143(16) 0.06151(13)
H4_3 H 0.9317 0.1743 0.0402
C9_3 C 0.6557(2) 0.25148(17) 0.26063(13)
C10_3 C 0.6799(2) 0.31379(17) 0.38299(14)
H5_3 H 0.7194 0.2639 0.3944
C11_3 C 0.6627(2) 0.37855(19) 0.43359(15)
H6_3 H 0.6913 0.3726 0.4786
C12_3 C 0.6024(2) 0.45242(19) 0.41671(14)
H7_3 H 0.5902 0.4957 0.4507
C13_3 C 0.56032(19) 0.46203(16) 0.34926(14)
C14_3 C 0.5787(2) 0.39745(17) 0.29826(13)
H8_3 H 0.5512 0.4040 0.2530
C15_3 C 0.6385(2) 0.32279(16) 0.31512(13)
C16_2 C 0.48846(19) 0.53926(17) 0.33283(14)
S2_3 S 0.52614(6) 0.11396(5) 0.38561(4)
C19_3 C 0.5277(4) 0.1326(3) 0.4782(2)
H15_3 H 0.5316 0.0768 0.5025
H16_2 H 0.4645 0.1629 0.4919
H17_3 H 0.5878 0.1680 0.4903
C20_2 C 0.4149(3) 0.0432(3) 0.3807(3)
H18_2 H 0.4060 0.0231 0.3329
H19_2 H 0.3532 0.0751 0.3954
O11_3 O 0.62212(17) 0.05649(14) 0.37288(10)
H21_3 H 0.886(3) 0.062(3) 0.339(2)
Zn3_2 Zn 0.30121(2) 0.548282(19) 0.225748(15)
O12_2 O 0.56602(16) 0.25882(13) 0.04013(11)
O13_2 O 0.54646(14) 0.04777(13) 0.22813(10)
O14_2 O 0.53103(15) 0.08954(12) 0.11529(11)
O4_3 O 0.7128(2) 0.33783(18) 0.03976(15)
C8_3 C 0.6245(2) 0.32152(17) 0.01717(14)
C16_3 C 0.98846(19) 0.96074(17) 0.66717(14)
C16_4 C 0.51154(19) 0.03926(17) 0.16717(14)
O1_4 O 0.22165(15) 0.53562(13) 0.32094(10)
O2_4 O 0.23029(15) 0.64922(14) 0.39702(11)
O5_4 O 0.28776(15) 0.68659(12) 0.22331(11)
O6_4 O 0.38984(16) 0.76390(13) 0.29802(10)
O9_4 O 0.15832(17) 0.52851(15) 0.17423(12)
C1_4 C 0.1828(2) 0.58755(17) 0.36565(13)
C2_4 C 0.0688(2) 0.57645(16) 0.38643(14)
C3_4 C 0.0060(2) 0.51315(19) 0.35376(16)
H1_3 H 0.0340 0.4765 0.3190
C7_4 C 0.0264(2) 0.63143(16) 0.43849(13)
H4_4 H 0.0683 0.6743 0.4598
C9_4 C 0.3443(2) 0.75148(17) 0.23937(13)
C10_4 C 0.3201(2) 0.81379(17) 0.11701(14)
H5_4 H 0.2806 0.7639 0.1056
C11_4 C 0.3373(2) 0.87855(19) 0.06641(15)
H6_4 H 0.3087 0.8726 0.0214
C12_4 C 0.3976(2) 0.95242(19) 0.08329(14)
H7_4 H 0.4098 0.9957 0.0493
C13_4 C 0.43968(19) 0.96203(16) 0.15074(14)
C14_4 C 0.4213(2) 0.89745(17) 0.20174(13)
H8_4 H 0.4488 0.9040 0.2470
C15_4 C 0.3615(2) 0.82279(16) 0.18488(13)
S1_3 S 0.36412(6) 0.36357(5) 0.15108(4)
C17_3 C 0.2669(3) 0.3636(3) 0.08296(18)
H9_3 H 0.2015 0.3419 0.1016
H10_3 H 0.2895 0.3261 0.0449
H11_3 H 0.2573 0.4229 0.0657
C18_3 C 0.3577(3) 0.2486(2) 0.1714(2)
H12_3 H 0.4033 0.2359 0.2106
H13_3 H 0.3797 0.2148 0.1309
H14_3 H 0.2867 0.2330 0.1835
O10_3 O 0.31343(17) 0.40829(13) 0.21409(10)
S2_4 S 0.47386(6) 0.61396(5) 0.11439(4)
C19_4 C 0.4723(4) 0.6326(3) 0.0218(2)
H16_3 H 0.5355 0.6629 0.0081
H17_4 H 0.4122 0.6680 0.0097
C20_3 C 0.5851(3) 0.5432(3) 0.1193(3)
H18_3 H 0.5940 0.5231 0.1671
H19_3 H 0.6468 0.5751 0.1046
H20_2 H 0.5747 0.4932 0.0887
O11_4 O 0.37788(17) 0.55649(14) 0.12712(10)
H21_4 H 0.114(3) 0.562(3) 0.161(2)
H22_3 H 0.129(3) 0.475(3) 0.173(2)
O4_4 O 0.7872(2) 0.66217(18) 0.53976(15)
C4_3 C 0.9005(2) 0.5049(2) 0.37354(17)
H2_3 H 0.8578 0.4633 0.3514
C5_3 C 0.8591(2) 0.5586(2) 0.42598(16)
H3_3 H 0.7891 0.5521 0.4395
C6_3 C 0.9215(2) 0.62219(18) 0.45859(14)
C8_4 C 0.8755(2) 0.67848(17) 0.51717(14)
C4_4 C 0.0995(2) 0.0049(2) 0.12646(17)
C5_4 C 0.1409(2) 0.0586(2) 0.07402(16)
H3_4 H 0.2109 0.0521 0.0605
C6_4 C 0.0785(2) 0.12219(18) 0.04141(14)
H2_4 H 0.1422 0.9633 0.1486
H1_4 H 0.9660 0.9765 0.1810
S1_4 S 0.63588(6) 0.86357(5) 0.34892(4)
C17_4 C 0.7331(3) 0.8636(3) 0.41704(18)
H9_4 H 0.7985 0.8419 0.3984
H10_4 H 0.7105 0.8261 0.4551
H11_4 H 0.7427 0.9229 0.4343
C18_4 C 0.6423(3) 0.7486(2) 0.3286(2)
H12_4 H 0.5967 0.7359 0.2894
H13_4 H 0.6203 0.7148 0.3691
H14_4 H 0.7133 0.7330 0.3165
O10_4 O 0.68657(17) 0.90829(13) 0.28591(10)
H20_3 H 0.4253 0.9932 0.4113
H22_4 H 0.871(3) 0.975(3) 0.327(2)
H16_4 H 0.9645 0.3371 0.5081
C20_4 C 0.9149(3) 0.4568(3) 0.6193(3)
H18_4 H 0.9060 0.4769 0.6671
H19_4 H 0.8532 0.4249 0.6046
H20_4 H 0.9253 0.5068 0.5887
H15_4 H 0.4684 0.5768 0.9975
loop_
_geom_bond_atom_site_label_1
_geom_bond_atom_site_label_2
_geom_bond_site_symmetry_1
_geom_bond_site_symmetry_2
O7 C16 1_555 1_555
O8 C16 1_555 1_555
H18 C20 1_555 1_555
H19 C20 1_555 1_555
Zn3 O7 1_555 1_555
Zn5 O8 1_555 1_555
O3 C8 1_555 1_555
O4 C8 1_555 1_555
Zn5 O3 1_555 1_555
Zn3 O1 1_555 1_555
Zn5 O2 1_555 1_555
O1 C1 1_555 1_555
O2 C1 1_555 1_555
O5 Zn3 1_555 1_555
O6 Zn5 1_555 1_555
O9 Zn3 1_555 1_555
C1 C2 1_555 1_555
C2 C3 1_555 1_555
C3 H1 1_555 1_555
C4 C3 1_555 1_555
H2 C4 1_555 1_555
C5 C4 1_555 1_555
H3 C5 1_555 1_555
C6 C5 1_555 1_555
C7 C2 1_555 1_555
H4 C7 1_555 1_555
C9 O5 1_555 1_555
C10 H5 1_555 1_555
C11 C10 1_555 1_555
H6 C11 1_555 1_555
C12 C11 1_555 1_555
H7 C12 1_555 1_555
C13 C12 1_555 1_555
C14 C13 1_555 1_555
H8 C14 1_555 1_555
C15 C9 1_555 1_555
S1 C17 1_555 1_555
C17 H9 1_555 1_555
H10 C17 1_555 1_555
H11 C17 1_555 1_555
C18 S1 1_555 1_555
H12 C18 1_555 1_555
H13 C18 1_555 1_555
H14 C18 1_555 1_555
O10 Zn3 1_555 1_555
S2 C19 1_555 1_555
C19 H15 1_555 1_555
H17 C19 1_555 1_555
O11 Zn3 1_555 1_555
H21 O9 1_555 1_555
H22 O9 1_555 1_555
O6 C9 1_555 1_555
C6 C7 1_555 1_555
C10 C15 1_555 1_555
C14 C15 1_555 1_555
S1 O10 1_555 1_555
S2 O11 1_555 1_555
S1_2 C17_2 1_555 1_555
C17_2 H9_2 1_555 1_555
H10_2 C17_2 1_555 1_555
H11_2 C17_2 1_555 1_555
C18_2 S1_2 1_555 1_555
H12_2 C18_2 1_555 1_555
H13_2 C18_2 1_555 1_555
H14_2 C18_2 1_555 1_555
S1_2 O10_2 1_555 1_555
Zn1 O1_2 1_555 1_555
Zn2 O2_2 1_555 1_555
O1_2 C1_2 1_555 1_555
O2_2 C1_2 1_555 1_555
O3_2 C8_2 1_555 1_555
O4_2 C8_2 1_555 1_555
O5_2 Zn1 1_555 1_555
O6_2 Zn2 1_555 1_555
O9_2 Zn1 1_555 1_555
C1_2 C2_2 1_555 1_555
C2_2 C3_2 1_555 1_555
C4_2 C3_2 1_555 1_555
C5_2 C4_2 1_555 1_555
H3_2 C5_2 1_555 1_555
C6_2 C5_2 1_555 1_555
C7_2 C2_2 1_555 1_555
H4_2 C7_2 1_555 1_555
C8_2 C6_2 1_555 1_555
C9_2 O5_2 1_555 1_555
C10_2 H5_2 1_555 1_555
C11_2 C10_2 1_555 1_555
H6_2 C11_2 1_555 1_555
C12_2 C11_2 1_555 1_555
H7_2 C12_2 1_555 1_555
C13_2 C12_2 1_555 1_555
C14_2 C13_2 1_555 1_555
H8_2 C14_2 1_555 1_555
C15_2 C9_2 1_555 1_555
S2_2 C19_2 1_555 1_555
H17_2 C19_2 1_555 1_555
O11_2 Zn1 1_555 1_555
H21_2 O9_2 1_555 1_555
Zn4 O3_2 1_555 1_555
O12 Zn2 1_555 1_555
O13 Zn1 1_555 1_555
O14 Zn2 1_555 1_555
O6_2 C9_2 1_555 1_555
C6_2 C7_2 1_555 1_555
C10_2 C15_2 1_555 1_555
C14_2 C15_2 1_555 1_555
S2_2 O11_2 1_555 1_555
Zn1_2 O1_3 1_555 1_555
Zn2_2 O2_3 1_555 1_555
O1_3 C1_3 1_555 1_555
O2_3 C1_3 1_555 1_555
O5_3 Zn1_2 1_555 1_555
O6_3 Zn2_2 1_555 1_555
O7_2 C16_2 1_555 1_555
O8_2 C16_2 1_555 1_555
O9_3 Zn1_2 1_555 1_555
C1_3 C2_3 1_555 1_555
C2_3 C3_3 1_555 1_555
C7_3 C2_3 1_555 1_555
H4_3 C7_3 1_555 1_555
C9_3 O5_3 1_555 1_555
C10_3 H5_3 1_555 1_555
C11_3 C10_3 1_555 1_555
H6_3 C11_3 1_555 1_555
C12_3 C11_3 1_555 1_555
H7_3 C12_3 1_555 1_555
C13_3 C12_3 1_555 1_555
C14_3 C13_3 1_555 1_555
H8_3 C14_3 1_555 1_555
C15_3 C9_3 1_555 1_555
C16_2 C13_3 1_555 1_555
S2_3 C19_3 1_555 1_555
C19_3 H15_3 1_555 1_555
H16_2 C19_3 1_555 1_555
H17_3 C19_3 1_555 1_555
C20_2 S2_3 1_555 1_555
H18_2 C20_2 1_555 1_555
H19_2 C20_2 1_555 1_555
O11_3 Zn1_2 1_555 1_555
H21_3 O9_3 1_555 1_555
Zn3_2 O7_2 1_555 1_555
Zn4 O8_2 1_555 1_555
O12_2 Zn2_2 1_555 1_555
O13_2 Zn1_2 1_555 1_555
O14_2 Zn2_2 1_555 1_555
O6_3 C9_3 1_555 1_555
C10_3 C15_3 1_555 1_555
C14_3 C15_3 1_555 1_555
S2_3 O11_3 1_555 1_555
O12_2 C8_3 1_555 1_555
O4_3 C8_3 1_555 1_555
O13 C16_3 1_555 1_555
O14 C16_3 1_555 1_555
O13_2 C16_4 1_555 1_555
O14_2 C16_4 1_555 1_555
Zn3_2 O1_4 1_555 1_555
Zn4 O2_4 1_555 1_555
O1_4 C1_4 1_555 1_555
O2_4 C1_4 1_555 1_555
O5_4 Zn3_2 1_555 1_555
O6_4 Zn4 1_555 1_555
O9_4 Zn3_2 1_555 1_555
C1_4 C2_4 1_555 1_555
C2_4 C3_4 1_555 1_555
C3_4 H1_3 1_555 1_555
C7_4 C2_4 1_555 1_555
H4_4 C7_4 1_555 1_555
C9_4 O5_4 1_555 1_555
C10_4 H5_4 1_555 1_555
C11_4 C10_4 1_555 1_555
H6_4 C11_4 1_555 1_555
C12_4 C11_4 1_555 1_555
H7_4 C12_4 1_555 1_555
C13_4 C12_4 1_555 1_555
C14_4 C13_4 1_555 1_555
H8_4 C14_4 1_555 1_555
C15_4 C9_4 1_555 1_555
S1_3 C17_3 1_555 1_555
C17_3 H9_3 1_555 1_555
H10_3 C17_3 1_555 1_555
H11_3 C17_3 1_555 1_555
C18_3 S1_3 1_555 1_555
H12_3 C18_3 1_555 1_555
H13_3 C18_3 1_555 1_555
H14_3 C18_3 1_555 1_555
O10_3 Zn3_2 1_555 1_555
S2_4 C19_4 1_555 1_555
H16_3 C19_4 1_555 1_555
H17_4 C19_4 1_555 1_555
C20_3 S2_4 1_555 1_555
H18_3 C20_3 1_555 1_555
H19_3 C20_3 1_555 1_555
H20_2 C20_3 1_555 1_555
O11_4 Zn3_2 1_555 1_555
H21_4 O9_4 1_555 1_555
H22_3 O9_4 1_555 1_555
O6_4 C9_4 1_555 1_555
C10_4 C15_4 1_555 1_555
C14_4 C15_4 1_555 1_555
S1_3 O10_3 1_555 1_555
S2_4 O11_4 1_555 1_555
O12 C8_4 1_555 1_555
O4_4 C8_4 1_555 1_555
H2_3 C4_3 1_555 1_555
C5_3 C4_3 1_555 1_555
H3_3 C5_3 1_555 1_555
C6_3 C5_3 1_555 1_555
C8_4 C6_3 1_555 1_555
C5_4 C4_4 1_555 1_555
H3_4 C5_4 1_555 1_555
C6_4 C5_4 1_555 1_555
S1_4 C17_4 1_555 1_555
C17_4 H9_4 1_555 1_555
H10_4 C17_4 1_555 1_555
H11_4 C17_4 1_555 1_555
C18_4 S1_4 1_555 1_555
H12_4 C18_4 1_555 1_555
H13_4 C18_4 1_555 1_555
H14_4 C18_4 1_555 1_555
S1_4 O10_4 1_555 1_555
H18_4 C20_4 1_555 1_555
H19_4 C20_4 1_555 1_555
H20_4 C20_4 1_555 1_555

#END
