
###############################################################################
#
# This file contains modified crystal structure data generated from the
# MOF subset of the Cambridge Structural Database (CSD) v543 
# hosted by the Cambridge Crystallographic Data Centre (CCDC).
#
# This work is licensed under the Creative Commons
# Attribution-NonCommercial-ShareAlike 4.0 International License.
# To view a copy of this license, visit
# http://creativecommons.org/licenses/by-nc-sa/4.0/
# or send a letter to
# Creative Commons, PO Box 1866, Mountain View, CA 94042, USA.
#
# CIF created using the CSD Python API on 29 September 2022
# The structure has been converted into the P1 space group
# The structure has a 3D framework
# The original CSD entry XINLEO is in the hexagonal crystal system
# The original CSD entry XINLEO is in a Sohncke space group
# The framework has been calculated to contain at least 10.0% void space
# The void calculation uses a probe of radius 1.32A, grid spacing 0.4
# The framework is charged, counterions have been retained in the structure
#
###############################################################################

data_XINLEO
_chemical_formula_moiety         '(C168 H120 Cu20 N36 4+)n'
_symmetry_cell_setting           triclinic
_symmetry_space_group_name_H-M   'P 1'
_symmetry_Int_Tables_number      1
_space_group_name_Hall           'P 1'
loop_
_symmetry_equiv_pos_site_id
_symmetry_equiv_pos_as_xyz
1 x,y,z
_cell_length_a                   19.2358(3)
_cell_length_b                   19.2358(3)
_cell_length_c                   13.9060(5)
_cell_angle_alpha                90
_cell_angle_beta                 90
_cell_angle_gamma                120
_cell_volume                     4456.08
loop_
_atom_site_label
_atom_site_type_symbol
_atom_site_fract_x
_atom_site_fract_y
_atom_site_fract_z
Cu3 Cu 0.51777(2) 0.000000 0.500000
C1 C 0.6228(2) 0.0234(2) 0.2883(3)
H1 H 0.586487 0.041652 0.294671
C2 C 0.6972(3) 0.0716(2) 0.2469(4)
H2 H 0.710957 0.122615 0.225190
C3 C 0.7509(3) 0.0445(3) 0.2377(4)
H3 H 0.800720 0.077492 0.209615
C57 C 0.4006(3) 0.0234(2) 0.2117(3)
H41 H 0.455165 0.041652 0.205329
C58 C 0.3744(4) 0.0716(2) 0.2531(4)
H42 H 0.411658 0.122615 0.274810
C59 C 0.2936(4) 0.0445(3) 0.2623(4)
H43 H 0.276772 0.077492 0.290385
Cu9 Cu 0.48223(2) 0.000000 0.000000
N20 N 0.56564(19) 0.08738(13) 0.58491(16)
Cu9_2 Cu 0.48223(2) 0.000000 1.000000
Cu1 Cu 0.333333 0.666667 0.37046(3)
Cu2 Cu 0.49204(2) 0.74602(2) 0.250000
Cu3_2 Cu 0.51777(2) 1.000000 0.500000
N1 N 0.40593(12) 0.78419(12) 0.37602(14)
N2 N 0.48071(13) 0.81508(13) 0.33466(15)
N3 N 0.47826(14) 0.91262(13) 0.41509(16)
C4 C 0.7318(2) 0.9696(3) 0.2692(3)
H4 H 0.768617 0.951833 0.263709
C5 C 0.6572(2) 0.9208(2) 0.3095(3)
H5 H 0.643427 0.869340 0.329312
C6 C 0.60296(19) 0.94654(18) 0.3207(2)
C7 C 0.52194(18) 0.89177(16) 0.35822(19)
C8 C 0.40638(15) 0.84440(14) 0.42319(16)
C9 C 0.33464(17) 0.83806(17) 0.46863(19)
C10 C 0.2859(2) 0.7726(2) 0.5254(2)
H6 H 0.301779 0.735592 0.541013
C11 C 0.2133(3) 0.7619(3) 0.5591(3)
H7 H 0.179818 0.716828 0.595571
C12 C 0.1911(3) 0.8173(4) 0.5388(3)
H8 H 0.142279 0.809760 0.561444
C13 C 0.2397(3) 0.8835(3) 0.4858(3)
H9 H 0.224645 0.921673 0.473360
C14 C 0.3115(2) 0.8940(2) 0.4503(2)
H10 H 0.344431 0.939136 0.413715
Cu4 Cu 0.25398(2) 0.74602(3) 0.250000
Cu5 Cu -0.000000 0.517770(20) 0.500000
N4 N 0.21581(12) 0.62174(17) 0.37602(14)
N5 N 0.18492(13) 0.66563(18) 0.33466(15)
N6 N 0.08738(13) 0.56564(19) 0.41509(16)
C18 C 0.0304(3) 0.7622(4) 0.2692(3)
H14 H 0.048167 0.816784 0.263709
C19 C 0.0792(2) 0.7364(3) 0.3095(3)
H15 H 0.130660 0.774087 0.329312
C20 C 0.05346(18) 0.65642(26) 0.3207(2)
C21 C 0.10823(16) 0.63017(24) 0.35822(19)
C22 C 0.15560(14) 0.56198(21) 0.42319(16)
C23 C 0.16194(17) 0.49658(24) 0.46863(19)
C24 C 0.2274(2) 0.5133(3) 0.5254(2)
H16 H 0.264408 0.566187 0.541013
C25 C 0.2381(3) 0.4514(4) 0.5591(3)
H17 H 0.283172 0.462990 0.595571
C26 C 0.1827(4) 0.3738(5) 0.5388(3)
H18 H 0.190240 0.332519 0.561444
C27 C 0.1165(3) 0.3562(4) 0.4858(3)
H19 H 0.078327 0.302972 0.473360
C28 C 0.1060(2) 0.4175(3) 0.4503(2)
H20 H 0.060864 0.405295 0.413715
Cu6 Cu 0.25398(3) 0.50796(2) 0.250000
Cu7 Cu 0.482230(20) 0.48223(2) 0.500000
N7 N 0.37826(17) 0.59407(12) 0.37602(14)
N8 N 0.33437(18) 0.51929(13) 0.33466(15)
N9 N 0.43436(19) 0.52174(14) 0.41509(16)
C29 C 0.4006(3) 0.3772(2) 0.2883(3)
H21 H 0.455165 0.413513 0.294671
C30 C 0.3744(4) 0.3028(3) 0.2469(4)
H22 H 0.411658 0.289043 0.225190
C31 C 0.2936(4) 0.2491(3) 0.2377(4)
H23 H 0.276772 0.199280 0.209615
C32 C 0.2378(4) 0.2682(2) 0.2692(3)
H24 H 0.183216 0.231383 0.263709
C33 C 0.2636(3) 0.3428(2) 0.3095(3)
H25 H 0.225913 0.356573 0.329312
C34 C 0.34358(26) 0.39704(19) 0.3207(2)
C35 C 0.36983(24) 0.47806(18) 0.35822(19)
C36 C 0.43802(21) 0.59362(15) 0.42319(16)
C37 C 0.50342(24) 0.66536(17) 0.46863(19)
C38 C 0.4867(3) 0.7141(2) 0.5254(2)
H26 H 0.433813 0.698221 0.541013
C39 C 0.5486(4) 0.7867(3) 0.5591(3)
H27 H 0.537010 0.820182 0.595571
C40 C 0.6262(5) 0.8089(3) 0.5388(3)
H28 H 0.667481 0.857721 0.561444
C41 C 0.6438(4) 0.7603(3) 0.4858(3)
H29 H 0.697028 0.775355 0.473360
C42 C 0.5825(3) 0.6885(2) 0.4503(2)
H30 H 0.594705 0.655569 0.413715
Cu8 Cu 0.333333 0.666667 0.12954(3)
N10 N 0.21581(12) 0.59407(12) 0.12398(14)
N11 N 0.18492(13) 0.51929(13) 0.16534(15)
N12 N 0.08738(13) 0.52174(14) 0.08491(16)
C46 C 0.0304(3) 0.2682(2) 0.2308(3)
H34 H 0.048167 0.231383 0.236291
C47 C 0.0792(2) 0.3428(2) 0.1905(3)
H35 H 0.130660 0.356573 0.170688
C48 C 0.05346(18) 0.39704(19) 0.1793(2)
C49 C 0.10823(16) 0.47806(18) 0.14178(19)
C50 C 0.15560(14) 0.59362(15) 0.07681(16)
C51 C 0.16194(17) 0.66536(17) 0.03137(19)
C55 C 0.1165(3) 0.7603(3) 0.0142(3)
H39 H 0.078327 0.775355 0.026640
C56 C 0.1060(2) 0.6885(2) 0.0497(2)
H40 H 0.060864 0.655569 0.086285
N13 N 0.37826(17) 0.78419(12) 0.12398(14)
N14 N 0.33437(18) 0.81508(13) 0.16534(15)
N15 N 0.43436(19) 0.91262(13) 0.08491(16)
C60 C 0.2378(4) 0.9696(3) 0.2308(3)
H44 H 0.183216 0.951833 0.236291
C61 C 0.2636(3) 0.9208(2) 0.1905(3)
H45 H 0.225913 0.869340 0.170688
C62 C 0.34358(26) 0.94654(18) 0.1793(2)
C63 C 0.36983(24) 0.89177(16) 0.14178(19)
C64 C 0.43802(21) 0.84440(14) 0.07681(16)
C65 C 0.50342(24) 0.83806(17) 0.03137(19)
C69 C 0.6438(4) 0.8835(3) 0.0142(3)
H49 H 0.697028 0.921673 0.026640
C70 C 0.5825(3) 0.8940(2) 0.0497(2)
H50 H 0.594705 0.939136 0.086285
N16 N 0.40593(12) 0.62174(17) 0.12398(14)
N17 N 0.48071(13) 0.66563(18) 0.16534(15)
N18 N 0.47826(14) 0.56564(19) 0.08491(16)
C71 C 0.6228(2) 0.5994(3) 0.2117(3)
H51 H 0.586487 0.544835 0.205329
C72 C 0.6972(3) 0.6256(4) 0.2531(4)
H52 H 0.710957 0.588342 0.274810
C73 C 0.7509(3) 0.7064(4) 0.2623(4)
H53 H 0.800720 0.723228 0.290385
C74 C 0.7318(2) 0.7622(4) 0.2308(3)
H54 H 0.768617 0.816784 0.236291
C75 C 0.6572(2) 0.7364(3) 0.1905(3)
H55 H 0.643427 0.774087 0.170688
C76 C 0.60296(19) 0.65642(26) 0.1793(2)
C77 C 0.52194(18) 0.63017(24) 0.14178(19)
C78 C 0.40638(15) 0.56198(21) 0.07681(16)
C79 C 0.33464(17) 0.49658(24) 0.03137(19)
C83 C 0.2397(3) 0.3562(4) 0.0142(3)
H59 H 0.224645 0.302972 0.026640
C84 C 0.3115(2) 0.4175(3) 0.0497(2)
H60 H 0.344431 0.405295 0.086285
Cu9_3 Cu 0.48223(2) 1.000000 0.000000
Cu10 Cu -0.000000 0.482230(20) 0.000000
Cu11 Cu 0.517770(20) 0.51777(2) 0.000000
N21 N 0.52174(14) 0.43436(19) 0.58491(16)
C52 C 0.2274(2) 0.7141(2) 0.9746(2)
H36 H 0.264408 0.698221 0.958987
C53 C 0.2381(3) 0.7867(3) 0.9409(3)
H37 H 0.283172 0.820182 0.904429
C54 C 0.1827(4) 0.8089(3) 0.9612(3)
H38 H 0.190240 0.857721 0.938556
C66 C 0.4867(3) 0.7726(2) 0.9746(2)
H46 H 0.433813 0.735592 0.958987
C67 C 0.5486(4) 0.7619(3) 0.9409(3)
H47 H 0.537010 0.716828 0.904429
C68 C 0.6262(5) 0.8173(4) 0.9612(3)
H48 H 0.667481 0.809760 0.938556
C80 C 0.2859(2) 0.5133(3) 0.9746(2)
H56 H 0.301779 0.566187 0.958987
C81 C 0.2133(3) 0.4514(4) 0.9409(3)
H57 H 0.179818 0.462990 0.904429
C82 C 0.1911(3) 0.3738(5) 0.9612(3)
H58 H 0.142279 0.332519 0.938556
Cu9_4 Cu 0.48223(2) 1.000000 1.000000
Cu10_2 Cu -0.000000 0.482230(20) 1.000000
Cu11_2 Cu 0.517770(20) 0.51777(2) 1.000000
Cu5_2 Cu 1.000000 0.517770(20) 0.500000
C15 C 0.9766(2) 0.5994(3) 0.2883(3)
H11 H 0.958348 0.544835 0.294671
C16 C 0.9284(2) 0.6256(4) 0.2469(4)
H12 H 0.877385 0.588342 0.225190
C17 C 0.9555(3) 0.7064(4) 0.2377(4)
H13 H 0.922508 0.723228 0.209615
C43 C 0.9766(2) 0.3772(2) 0.2117(3)
H31 H 0.958348 0.413513 0.205329
C44 C 0.9284(2) 0.3028(3) 0.2531(4)
H32 H 0.877385 0.289043 0.274810
C45 C 0.9555(3) 0.2491(3) 0.2623(4)
H33 H 0.922508 0.199280 0.290385
Cu10_3 Cu 1.000000 0.482230(20) 0.000000
N19 N 0.91262(13) 0.47826(14) 0.58491(16)
Cu10_4 Cu 1.000000 0.482230(20) 1.000000
C15_2 C 0.0234(2) 0.4006(3) 0.7883(3)
H11_2 H 0.041652 0.455165 0.794671
C16_2 C 0.0716(2) 0.3744(4) 0.7469(4)
H12_2 H 0.122615 0.411658 0.725190
C17_2 C 0.0445(3) 0.2936(4) 0.7377(4)
H13_2 H 0.077492 0.276772 0.709615
C43_2 C 0.0234(2) 0.6228(2) 0.7117(3)
H31_2 H 0.041652 0.586487 0.705329
C44_2 C 0.0716(2) 0.6972(3) 0.7531(4)
H32_2 H 0.122615 0.710957 0.774810
C45_2 C 0.0445(3) 0.7509(3) 0.7623(4)
H33_2 H 0.077492 0.800720 0.790385
C10_2 C 0.7141(2) 0.2274(2) 0.0254(2)
H6_2 H 0.698221 0.264408 0.041013
C11_2 C 0.7867(3) 0.2381(3) 0.0591(3)
H7_2 H 0.820182 0.283172 0.095571
C12_2 C 0.8089(3) 0.1827(4) 0.0388(3)
H8_2 H 0.857721 0.190240 0.061444
C24_2 C 0.7726(2) 0.4867(3) 0.0254(2)
H16_2 H 0.735592 0.433813 0.041013
C25_2 C 0.7619(3) 0.5486(4) 0.0591(3)
H17_2 H 0.716828 0.537010 0.095571
C26_2 C 0.8173(4) 0.6262(5) 0.0388(3)
H18_2 H 0.809760 0.667481 0.061444
C38_2 C 0.5133(3) 0.2859(2) 0.0254(2)
H26_2 H 0.566187 0.301779 0.041013
C39_2 C 0.4514(4) 0.2133(3) 0.0591(3)
H27_2 H 0.462990 0.179818 0.095571
C40_2 C 0.3738(5) 0.1911(3) 0.0388(3)
H28_2 H 0.332519 0.142279 0.061444
Cu1_2 Cu 0.666667 0.333333 0.87046(3)
Cu2_2 Cu 0.50796(2) 0.25398(2) 0.750000
N1_2 N 0.59407(12) 0.21581(12) 0.87602(14)
N2_2 N 0.51929(13) 0.18492(13) 0.83466(15)
N3_2 N 0.52174(14) 0.08738(13) 0.91509(16)
C4_2 C 0.2682(2) 0.0304(3) 0.7692(3)
H4_2 H 0.231383 0.048167 0.763709
C5_2 C 0.3428(2) 0.0792(2) 0.8095(3)
H5_2 H 0.356573 0.130660 0.829312
C6_2 C 0.39704(19) 0.05346(18) 0.8207(2)
C7_2 C 0.47806(18) 0.10823(16) 0.85822(19)
C8_2 C 0.59362(15) 0.15560(14) 0.92319(16)
C9_2 C 0.66536(17) 0.16194(17) 0.96863(19)
C13_2 C 0.7603(3) 0.1165(3) 0.9858(3)
H9_2 H 0.775355 0.078327 0.973360
C14_2 C 0.6885(2) 0.1060(2) 0.9503(2)
H10_2 H 0.655569 0.060864 0.913715
Cu4_2 Cu 0.74602(2) 0.25398(3) 0.750000
N4_2 N 0.78419(12) 0.37826(17) 0.87602(14)
N5_2 N 0.81508(13) 0.33437(18) 0.83466(15)
N6_2 N 0.91262(13) 0.43436(19) 0.91509(16)
C18_2 C 0.9696(3) 0.2378(4) 0.7692(3)
H14_2 H 0.951833 0.183216 0.763709
C19_2 C 0.9208(2) 0.2636(3) 0.8095(3)
H15_2 H 0.869340 0.225913 0.829312
C20_2 C 0.94654(18) 0.34358(26) 0.8207(2)
C21_2 C 0.89177(16) 0.36983(24) 0.85822(19)
C22_2 C 0.84440(14) 0.43802(21) 0.92319(16)
C23_2 C 0.83806(17) 0.50342(24) 0.96863(19)
C27_2 C 0.8835(3) 0.6438(4) 0.9858(3)
H19_2 H 0.921673 0.697028 0.973360
C28_2 C 0.8940(2) 0.5825(3) 0.9503(2)
H20_2 H 0.939136 0.594705 0.913715
Cu6_2 Cu 0.74602(3) 0.49204(2) 0.750000
N7_2 N 0.62174(17) 0.40593(12) 0.87602(14)
N8_2 N 0.66563(18) 0.48071(13) 0.83466(15)
N9_2 N 0.56564(19) 0.47826(14) 0.91509(16)
C29_2 C 0.5994(3) 0.6228(2) 0.7883(3)
H21_2 H 0.544835 0.586487 0.794671
C30_2 C 0.6256(4) 0.6972(3) 0.7469(4)
H22_2 H 0.588342 0.710957 0.725190
C31_2 C 0.7064(4) 0.7509(3) 0.7377(4)
H23_2 H 0.723228 0.800720 0.709615
C32_2 C 0.7622(4) 0.7318(2) 0.7692(3)
H24_2 H 0.816784 0.768617 0.763709
C33_2 C 0.7364(3) 0.6572(2) 0.8095(3)
H25_2 H 0.774087 0.643427 0.829312
C34_2 C 0.65642(26) 0.60296(19) 0.8207(2)
C35_2 C 0.63017(24) 0.52194(18) 0.85822(19)
C36_2 C 0.56198(21) 0.40638(15) 0.92319(16)
C37_2 C 0.49658(24) 0.33464(17) 0.96863(19)
C41_2 C 0.3562(4) 0.2397(3) 0.9858(3)
H29_2 H 0.302972 0.224645 0.973360
C42_2 C 0.4175(3) 0.3115(2) 0.9503(2)
H30_2 H 0.405295 0.344431 0.913715
Cu8_2 Cu 0.666667 0.333333 0.62954(3)
N10_2 N 0.78419(12) 0.40593(12) 0.62398(14)
N11_2 N 0.81508(13) 0.48071(13) 0.66534(15)
C46_2 C 0.9696(3) 0.7318(2) 0.7308(3)
H34_2 H 0.951833 0.768617 0.736291
C47_2 C 0.9208(2) 0.6572(2) 0.6905(3)
H35_2 H 0.869340 0.643427 0.670688
C48_2 C 0.94654(18) 0.60296(19) 0.6793(2)
C49_2 C 0.89177(16) 0.52194(18) 0.64178(19)
C50_2 C 0.84440(14) 0.40638(15) 0.57681(16)
C51_2 C 0.83806(17) 0.33464(17) 0.53137(19)
C52_2 C 0.7726(2) 0.2859(2) 0.4746(2)
H36_2 H 0.735592 0.301779 0.458987
C53_2 C 0.7619(3) 0.2133(3) 0.4409(3)
H37_2 H 0.716828 0.179818 0.404429
C54_2 C 0.8173(4) 0.1911(3) 0.4612(3)
H38_2 H 0.809760 0.142279 0.438556
C55_2 C 0.8835(3) 0.2397(3) 0.5142(3)
H39_2 H 0.921673 0.224645 0.526640
C56_2 C 0.8940(2) 0.3115(2) 0.5497(2)
H40_2 H 0.939136 0.344431 0.586285
N13_2 N 0.62174(17) 0.21581(12) 0.62398(14)
N14_2 N 0.66563(18) 0.18492(13) 0.66534(15)
C60_2 C 0.7622(4) 0.0304(3) 0.7308(3)
H44_2 H 0.816784 0.048167 0.736291
C61_2 C 0.7364(3) 0.0792(2) 0.6905(3)
H45_2 H 0.774087 0.130660 0.670688
C62_2 C 0.65642(26) 0.05346(18) 0.6793(2)
C63_2 C 0.63017(24) 0.10823(16) 0.64178(19)
C64_2 C 0.56198(21) 0.15560(14) 0.57681(16)
C65_2 C 0.49658(24) 0.16194(17) 0.53137(19)
C66_2 C 0.5133(3) 0.2274(2) 0.4746(2)
H46_2 H 0.566187 0.264408 0.458987
C67_2 C 0.4514(4) 0.2381(3) 0.4409(3)
H47_2 H 0.462990 0.283172 0.404429
C68_2 C 0.3738(5) 0.1827(4) 0.4612(3)
H48_2 H 0.332519 0.190240 0.438556
C69_2 C 0.3562(4) 0.1165(3) 0.5142(3)
H49_2 H 0.302972 0.078327 0.526640
C70_2 C 0.4175(3) 0.1060(2) 0.5497(2)
H50_2 H 0.405295 0.060864 0.586285
N16_2 N 0.59407(12) 0.37826(17) 0.62398(14)
N17_2 N 0.51929(13) 0.33437(18) 0.66534(15)
C71_2 C 0.3772(2) 0.4006(3) 0.7117(3)
H51_2 H 0.413513 0.455165 0.705329
C72_2 C 0.3028(3) 0.3744(4) 0.7531(4)
H52_2 H 0.289043 0.411658 0.774810
C73_2 C 0.2491(3) 0.2936(4) 0.7623(4)
H53_2 H 0.199280 0.276772 0.790385
C74_2 C 0.2682(2) 0.2378(4) 0.7308(3)
H54_2 H 0.231383 0.183216 0.736291
C75_2 C 0.3428(2) 0.2636(3) 0.6905(3)
H55_2 H 0.356573 0.225913 0.670688
C76_2 C 0.39704(19) 0.34358(26) 0.6793(2)
C77_2 C 0.47806(18) 0.36983(24) 0.64178(19)
C78_2 C 0.59362(15) 0.43802(21) 0.57681(16)
C79_2 C 0.66536(17) 0.50342(24) 0.53137(19)
C80_2 C 0.7141(2) 0.4867(3) 0.4746(2)
H56_2 H 0.698221 0.433813 0.458987
C81_2 C 0.7867(3) 0.5486(4) 0.4409(3)
H57_2 H 0.820182 0.537010 0.404429
C82_2 C 0.8089(3) 0.6262(5) 0.4612(3)
H58_2 H 0.857721 0.667481 0.438556
C83_2 C 0.7603(3) 0.6438(4) 0.5142(3)
H59_2 H 0.775355 0.697028 0.526640
C84_2 C 0.6885(2) 0.5825(3) 0.5497(2)
H60_2 H 0.655569 0.594705 0.586285
C1_2 C 0.3772(2) 0.9766(2) 0.7883(3)
H1_2 H 0.413513 0.958348 0.794671
C2_2 C 0.3028(3) 0.9284(2) 0.7469(4)
H2_2 H 0.289043 0.877385 0.725190
C3_2 C 0.2491(3) 0.9555(3) 0.7377(4)
H3_2 H 0.199280 0.922508 0.709615
C57_2 C 0.5994(3) 0.9766(2) 0.7117(3)
H41_2 H 0.544835 0.958348 0.705329
C58_2 C 0.6256(4) 0.9284(2) 0.7531(4)
H42_2 H 0.588342 0.877385 0.774810
C59_2 C 0.7064(4) 0.9555(3) 0.7623(4)
H43_2 H 0.723228 0.922508 0.790385
loop_
_geom_bond_atom_site_label_1
_geom_bond_atom_site_label_2
_geom_bond_site_symmetry_1
_geom_bond_site_symmetry_2
C1 H1 1_555 1_555
C2 C1 1_555 1_555
H2 C2 1_555 1_555
C3 C2 1_555 1_555
H3 C3 1_555 1_555
C57 H41 1_555 1_555
C58 C57 1_555 1_555
H42 C58 1_555 1_555
C59 C58 1_555 1_555
H43 C59 1_555 1_555
N20 Cu3 1_555 1_555
Cu1 N1 1_555 1_555
Cu2 N2 1_555 1_555
Cu3_2 N3 1_555 1_555
N1 N2 1_555 1_555
N2 C7 1_555 1_555
N3 C7 1_555 1_555
H4 C4 1_555 1_555
C5 C4 1_555 1_555
H5 C5 1_555 1_555
C7 C6 1_555 1_555
C8 N1 1_555 1_555
C9 C8 1_555 1_555
C10 C9 1_555 1_555
H6 C10 1_555 1_555
C11 C10 1_555 1_555
H7 C11 1_555 1_555
C12 C11 1_555 1_555
H8 C12 1_555 1_555
C13 C12 1_555 1_555
H9 C13 1_555 1_555
C14 C9 1_555 1_555
H10 C14 1_555 1_555
Cu4 N5 1_555 1_555
Cu5 N6 1_555 1_555
N4 Cu1 1_555 1_555
N5 N4 1_555 1_555
N6 C21 1_555 1_555
H14 C18 1_555 1_555
C19 C18 1_555 1_555
H15 C19 1_555 1_555
C21 N5 1_555 1_555
C22 N4 1_555 1_555
C23 C22 1_555 1_555
C24 C23 1_555 1_555
H16 C24 1_555 1_555
C25 C24 1_555 1_555
H17 C25 1_555 1_555
C26 C25 1_555 1_555
H18 C26 1_555 1_555
C27 C26 1_555 1_555
H19 C27 1_555 1_555
C28 C23 1_555 1_555
H20 C28 1_555 1_555
Cu6 N8 1_555 1_555
Cu7 N9 1_555 1_555
N7 Cu1 1_555 1_555
N8 N7 1_555 1_555
N9 C35 1_555 1_555
C29 H21 1_555 1_555
C30 C29 1_555 1_555
H22 C30 1_555 1_555
C31 C30 1_555 1_555
H23 C31 1_555 1_555
C32 C31 1_555 1_555
H24 C32 1_555 1_555
C33 C32 1_555 1_555
H25 C33 1_555 1_555
C34 C29 1_555 1_555
C35 N8 1_555 1_555
C36 N7 1_555 1_555
C37 C36 1_555 1_555
C38 C37 1_555 1_555
H26 C38 1_555 1_555
C39 C38 1_555 1_555
H27 C39 1_555 1_555
C40 C39 1_555 1_555
H28 C40 1_555 1_555
C41 C40 1_555 1_555
H29 C41 1_555 1_555
C42 C37 1_555 1_555
H30 C42 1_555 1_555
Cu8 N10 1_555 1_555
N10 N11 1_555 1_555
N11 Cu6 1_555 1_555
N12 C49 1_555 1_555
H34 C46 1_555 1_555
C47 C46 1_555 1_555
H35 C47 1_555 1_555
C49 N11 1_555 1_555
C50 N10 1_555 1_555
C51 C50 1_555 1_555
H39 C55 1_555 1_555
C56 C51 1_555 1_555
H40 C56 1_555 1_555
N13 Cu8 1_555 1_555
N14 Cu4 1_555 1_555
N15 C63 1_555 1_555
H44 C60 1_555 1_555
C61 C60 1_555 1_555
H45 C61 1_555 1_555
C63 N14 1_555 1_555
C64 N13 1_555 1_555
C65 C64 1_555 1_555
H49 C69 1_555 1_555
C70 C65 1_555 1_555
H50 C70 1_555 1_555
N16 Cu8 1_555 1_555
N17 Cu2 1_555 1_555
N18 C77 1_555 1_555
C71 H51 1_555 1_555
C72 C71 1_555 1_555
H52 C72 1_555 1_555
C73 C72 1_555 1_555
H53 C73 1_555 1_555
C74 C73 1_555 1_555
H54 C74 1_555 1_555
C75 C74 1_555 1_555
H55 C75 1_555 1_555
C76 C71 1_555 1_555
C77 N17 1_555 1_555
C78 N16 1_555 1_555
C79 C78 1_555 1_555
H59 C83 1_555 1_555
C84 C79 1_555 1_555
H60 C84 1_555 1_555
Cu9_3 N15 1_555 1_555
Cu10 N12 1_555 1_555
Cu11 N18 1_555 1_555
N21 Cu7 1_555 1_555
N3 C8 1_555 1_555
C5 C6 1_555 1_555
C13 C14 1_555 1_555
N6 C22 1_555 1_555
C19 C20 1_555 1_555
C20 C21 1_555 1_555
C27 C28 1_555 1_555
N9 C36 1_555 1_555
C33 C34 1_555 1_555
C34 C35 1_555 1_555
C41 C42 1_555 1_555
N12 C50 1_555 1_555
C47 C48 1_555 1_555
C48 C49 1_555 1_555
C55 C56 1_555 1_555
N13 N14 1_555 1_555
N15 C64 1_555 1_555
C61 C62 1_555 1_555
C62 C63 1_555 1_555
C69 C70 1_555 1_555
N16 N17 1_555 1_555
N18 C78 1_555 1_555
C75 C76 1_555 1_555
C76 C77 1_555 1_555
C83 C84 1_555 1_555
H36 C52 1_555 1_555
C53 C52 1_555 1_555
H37 C53 1_555 1_555
C54 C53 1_555 1_555
H38 C54 1_555 1_555
H46 C66 1_555 1_555
C67 C66 1_555 1_555
H47 C67 1_555 1_555
C68 C67 1_555 1_555
H48 C68 1_555 1_555
H56 C80 1_555 1_555
C81 C80 1_555 1_555
H57 C81 1_555 1_555
C82 C81 1_555 1_555
H58 C82 1_555 1_555
C15 H11 1_555 1_555
C16 C15 1_555 1_555
H12 C16 1_555 1_555
C17 C16 1_555 1_555
H13 C17 1_555 1_555
C43 H31 1_555 1_555
C44 C43 1_555 1_555
H32 C44 1_555 1_555
C45 C44 1_555 1_555
H33 C45 1_555 1_555
N19 Cu5_2 1_555 1_555
C15_2 H11_2 1_555 1_555
C16_2 C15_2 1_555 1_555
H12_2 C16_2 1_555 1_555
C17_2 C16_2 1_555 1_555
H13_2 C17_2 1_555 1_555
C43_2 H31_2 1_555 1_555
C44_2 C43_2 1_555 1_555
H32_2 C44_2 1_555 1_555
C45_2 C44_2 1_555 1_555
H33_2 C45_2 1_555 1_555
H6_2 C10_2 1_555 1_555
C11_2 C10_2 1_555 1_555
H7_2 C11_2 1_555 1_555
C12_2 C11_2 1_555 1_555
H8_2 C12_2 1_555 1_555
H16_2 C24_2 1_555 1_555
C25_2 C24_2 1_555 1_555
H17_2 C25_2 1_555 1_555
C26_2 C25_2 1_555 1_555
H18_2 C26_2 1_555 1_555
H26_2 C38_2 1_555 1_555
C39_2 C38_2 1_555 1_555
H27_2 C39_2 1_555 1_555
C40_2 C39_2 1_555 1_555
H28_2 C40_2 1_555 1_555
Cu1_2 N1_2 1_555 1_555
Cu2_2 N2_2 1_555 1_555
Cu9_2 N3_2 1_555 1_555
N1_2 N2_2 1_555 1_555
N2_2 C7_2 1_555 1_555
N3_2 C7_2 1_555 1_555
H4_2 C4_2 1_555 1_555
C5_2 C4_2 1_555 1_555
H5_2 C5_2 1_555 1_555
C7_2 C6_2 1_555 1_555
C8_2 N1_2 1_555 1_555
C9_2 C8_2 1_555 1_555
H9_2 C13_2 1_555 1_555
C14_2 C9_2 1_555 1_555
H10_2 C14_2 1_555 1_555
Cu4_2 N5_2 1_555 1_555
Cu10_4 N6_2 1_555 1_555
N4_2 Cu1_2 1_555 1_555
N5_2 N4_2 1_555 1_555
N6_2 C21_2 1_555 1_555
H14_2 C18_2 1_555 1_555
C19_2 C18_2 1_555 1_555
H15_2 C19_2 1_555 1_555
C21_2 N5_2 1_555 1_555
C22_2 N4_2 1_555 1_555
C23_2 C22_2 1_555 1_555
H19_2 C27_2 1_555 1_555
C28_2 C23_2 1_555 1_555
H20_2 C28_2 1_555 1_555
Cu6_2 N8_2 1_555 1_555
Cu11_2 N9_2 1_555 1_555
N7_2 Cu1_2 1_555 1_555
N8_2 N7_2 1_555 1_555
N9_2 C35_2 1_555 1_555
C29_2 H21_2 1_555 1_555
C30_2 C29_2 1_555 1_555
H22_2 C30_2 1_555 1_555
C31_2 C30_2 1_555 1_555
H23_2 C31_2 1_555 1_555
C32_2 C31_2 1_555 1_555
H24_2 C32_2 1_555 1_555
C33_2 C32_2 1_555 1_555
H25_2 C33_2 1_555 1_555
C34_2 C29_2 1_555 1_555
C35_2 N8_2 1_555 1_555
C36_2 N7_2 1_555 1_555
C37_2 C36_2 1_555 1_555
H29_2 C41_2 1_555 1_555
C42_2 C37_2 1_555 1_555
H30_2 C42_2 1_555 1_555
Cu8_2 N10_2 1_555 1_555
N10_2 N11_2 1_555 1_555
N11_2 Cu6_2 1_555 1_555
N19 C49_2 1_555 1_555
H34_2 C46_2 1_555 1_555
C47_2 C46_2 1_555 1_555
H35_2 C47_2 1_555 1_555
C49_2 N11_2 1_555 1_555
C50_2 N10_2 1_555 1_555
C51_2 C50_2 1_555 1_555
C52_2 C51_2 1_555 1_555
H36_2 C52_2 1_555 1_555
C53_2 C52_2 1_555 1_555
H37_2 C53_2 1_555 1_555
C54_2 C53_2 1_555 1_555
H38_2 C54_2 1_555 1_555
C55_2 C54_2 1_555 1_555
H39_2 C55_2 1_555 1_555
C56_2 C51_2 1_555 1_555
H40_2 C56_2 1_555 1_555
N13_2 Cu8_2 1_555 1_555
N14_2 Cu4_2 1_555 1_555
N20 C63_2 1_555 1_555
H44_2 C60_2 1_555 1_555
C61_2 C60_2 1_555 1_555
H45_2 C61_2 1_555 1_555
C63_2 N14_2 1_555 1_555
C64_2 N13_2 1_555 1_555
C65_2 C64_2 1_555 1_555
C66_2 C65_2 1_555 1_555
H46_2 C66_2 1_555 1_555
C67_2 C66_2 1_555 1_555
H47_2 C67_2 1_555 1_555
C68_2 C67_2 1_555 1_555
H48_2 C68_2 1_555 1_555
C69_2 C68_2 1_555 1_555
H49_2 C69_2 1_555 1_555
C70_2 C65_2 1_555 1_555
H50_2 C70_2 1_555 1_555
N16_2 Cu8_2 1_555 1_555
N17_2 Cu2_2 1_555 1_555
N21 C77_2 1_555 1_555
C71_2 H51_2 1_555 1_555
C72_2 C71_2 1_555 1_555
H52_2 C72_2 1_555 1_555
C73_2 C72_2 1_555 1_555
H53_2 C73_2 1_555 1_555
C74_2 C73_2 1_555 1_555
H54_2 C74_2 1_555 1_555
C75_2 C74_2 1_555 1_555
H55_2 C75_2 1_555 1_555
C76_2 C71_2 1_555 1_555
C77_2 N17_2 1_555 1_555
C78_2 N16_2 1_555 1_555
C79_2 C78_2 1_555 1_555
C80_2 C79_2 1_555 1_555
H56_2 C80_2 1_555 1_555
C81_2 C80_2 1_555 1_555
H57_2 C81_2 1_555 1_555
C82_2 C81_2 1_555 1_555
H58_2 C82_2 1_555 1_555
C83_2 C82_2 1_555 1_555
H59_2 C83_2 1_555 1_555
C84_2 C79_2 1_555 1_555
H60_2 C84_2 1_555 1_555
N3_2 C8_2 1_555 1_555
C5_2 C6_2 1_555 1_555
C13_2 C14_2 1_555 1_555
N6_2 C22_2 1_555 1_555
C19_2 C20_2 1_555 1_555
C20_2 C21_2 1_555 1_555
C27_2 C28_2 1_555 1_555
N9_2 C36_2 1_555 1_555
C33_2 C34_2 1_555 1_555
C34_2 C35_2 1_555 1_555
C41_2 C42_2 1_555 1_555
N19 C50_2 1_555 1_555
C47_2 C48_2 1_555 1_555
C48_2 C49_2 1_555 1_555
C55_2 C56_2 1_555 1_555
N13_2 N14_2 1_555 1_555
N20 C64_2 1_555 1_555
C61_2 C62_2 1_555 1_555
C62_2 C63_2 1_555 1_555
C69_2 C70_2 1_555 1_555
N16_2 N17_2 1_555 1_555
N21 C78_2 1_555 1_555
C75_2 C76_2 1_555 1_555
C76_2 C77_2 1_555 1_555
C83_2 C84_2 1_555 1_555
C1_2 H1_2 1_555 1_555
C2_2 C1_2 1_555 1_555
H2_2 C2_2 1_555 1_555
C3_2 C2_2 1_555 1_555
H3_2 C3_2 1_555 1_555
C57_2 H41_2 1_555 1_555
C58_2 C57_2 1_555 1_555
H42_2 C58_2 1_555 1_555
C59_2 C58_2 1_555 1_555
H43_2 C59_2 1_555 1_555

#END
