
###############################################################################
#
# This file contains modified crystal structure data generated from the
# MOF subset of the Cambridge Structural Database (CSD) v543 
# hosted by the Cambridge Crystallographic Data Centre (CCDC).
#
# This work is licensed under the Creative Commons
# Attribution-NonCommercial-ShareAlike 4.0 International License.
# To view a copy of this license, visit
# http://creativecommons.org/licenses/by-nc-sa/4.0/
# or send a letter to
# Creative Commons, PO Box 1866, Mountain View, CA 94042, USA.
#
# CIF created using the CSD Python API on 29 September 2022
# The structure has been converted into the P1 space group
# The structure has a 3D framework
# The original CSD entry XINVEY is in the tetragonal crystal system
# The framework has been calculated to contain at least 10.0% void space
# The void calculation uses a probe of radius 1.32A, grid spacing 0.4
#
###############################################################################

data_XINVEY
_chemical_formula_moiety         '(C288 H176 N44 O44 Zn16)n'
_symmetry_cell_setting           triclinic
_symmetry_space_group_name_H-M   'P 1'
_symmetry_Int_Tables_number      1
_space_group_name_Hall           'P 1'
loop_
_symmetry_equiv_pos_site_id
_symmetry_equiv_pos_as_xyz
1 x,y,z
_cell_length_a                   21.085(3)
_cell_length_b                   21.085(3)
_cell_length_c                   15.287(4)
_cell_angle_alpha                90
_cell_angle_beta                 90
_cell_angle_gamma                90
_cell_volume                     6796.25
loop_
_atom_site_label
_atom_site_type_symbol
_atom_site_fract_x
_atom_site_fract_y
_atom_site_fract_z
H1 H 0.015393 0.595528 0.074804
C6 C 0.04863(12) 0.61396(12) 0.89709(17)
H2 H 0.083412 0.633112 0.923590
C13 C 0.04313(12) 0.61016(13) 0.80804(18)
H7 H 0.074691 0.627829 0.773225
N1 N 0.98984(9) 0.58285(9) 0.03459(12)
N2 N 0.82620(9) 0.49573(9) 0.22642(12)
C2 C 0.93274(10) 0.55450(10) 0.04772(15)
C3 C 0.90549(10) 0.54352(10) 0.13425(15)
C9 C 0.93224(12) 0.56942(12) 0.20866(16)
H3 H 0.968294 0.594532 0.203371
C15 C 0.90687(14) 0.55902(13) 0.29043(17)
H9 H 0.925579 0.576386 0.340042
C17 C 0.85069(11) 0.50430(10) 0.14542(15)
C18 C 0.85359(13) 0.52256(12) 0.29678(16)
H11 H 0.835610 0.516045 0.351600
O3 O 0.82137(7) 0.47391(7) 0.08509(10)
Zn3 Zn 0.75454(2) 0.43148(2) 0.21157(2)
Zn1 Zn 0.81852(2) 0.50454(2) 0.96157(2)
N3 N 0.90526(8) 0.54071(8) 0.97160(11)
C1 C 0.94690(10) 0.56029(10) 0.90624(15)
O1 O 0.79868(9) 0.43207(8) 0.89189(11)
C4 C 0.99972(10) 0.58780(10) 0.94577(15)
O2 O 0.89914(9) 0.40372(9) 0.86681(13)
C5 C 0.72846(12) 0.27294(11) 0.76557(15)
C7 C 0.81664(12) 0.33850(11) 0.81261(15)
C8 C 0.84130(13) 0.39598(11) 0.86023(16)
C10 C 0.94258(11) 0.55558(11) 0.81575(15)
H4 H 0.908038 0.536347 0.788783
C11 C 0.75273(12) 0.32855(11) 0.80513(16)
H5 H 0.724718 0.358917 0.826447
C12 C 0.99171(12) 0.58066(13) 0.76805(17)
H6 H 0.990597 0.577862 0.707361
C14 C 0.85920(12) 0.29306(12) 0.78012(17)
H8 H 0.902623 0.300139 0.784413
C16 C 0.66249(12) 0.26141(12) 0.75770(18)
H10 H 0.633710 0.291239 0.778495
O4 O 0.70132(9) 0.06793(8) 0.60811(11)
O5 O 0.60086(9) 0.09628(9) 0.63319(13)
C19 C 0.77154(12) 0.22706(11) 0.73443(15)
C20 C 0.68336(12) 0.16150(11) 0.68739(15)
C21 C 0.65870(13) 0.10402(11) 0.63977(16)
C22 C 0.74727(12) 0.17145(11) 0.69487(16)
H12 H 0.775282 0.141083 0.673553
C23 C 0.64080(12) 0.20694(12) 0.71988(17)
H13 H 0.597377 0.199861 0.715587
C24 C 0.83751(12) 0.23859(12) 0.74230(18)
H14 H 0.866290 0.208761 0.721505
N5 N 0.67380(9) 0.00427(9) 0.27358(12)
O6 O 0.67863(7) 0.02609(7) 0.41491(10)
Zn4 Zn 0.74546(2) 0.06852(2) 0.28843(2)
N7 N 0.75427(9) 0.57620(9) 0.97642(12)
O7 O 0.77609(7) 0.57137(7) 0.83509(10)
Zn2 Zn 0.81852(2) 0.00454(2) 0.03843(2)
N6 N 0.90526(8) 0.04071(8) 0.02840(11)
C25 C 0.94690(10) 0.06029(10) 0.09376(15)
C28 C 0.99972(10) 0.08780(10) 0.05423(15)
C31 C 0.94258(11) 0.05558(11) 0.18425(15)
H18 H 0.908038 0.036347 0.211217
C32 C 0.99171(12) 0.08066(13) 0.23195(17)
H19 H 0.990597 0.077862 0.292639
N8 N 0.75427(9) 0.07620(9) 0.02358(12)
O8 O 0.77609(7) 0.07137(7) 0.16491(10)
Zn1_2 Zn 0.68148(2) 0.49546(2) 0.46157(2)
N1_2 N 0.51016(9) 0.41715(9) 0.53459(12)
H1_2 H 0.484607 0.404472 0.574804
N2_2 N 0.67380(9) 0.50427(9) 0.72642(12)
N3_2 N 0.59474(8) 0.45929(8) 0.47160(11)
C1_2 C 0.55310(10) 0.43971(10) 0.40624(15)
O1_2 O 0.70132(9) 0.56793(8) 0.39189(11)
C2_2 C 0.56726(10) 0.44550(10) 0.54772(15)
C3_2 C 0.59451(10) 0.45648(10) 0.63425(15)
C4_2 C 0.50028(10) 0.41220(10) 0.44577(15)
O2_2 O 0.60086(9) 0.59628(9) 0.36681(13)
C5_2 C 0.77154(12) 0.72706(11) 0.26557(15)
C6_2 C 0.45137(12) 0.38604(12) 0.39709(17)
H2_2 H 0.416588 0.366888 0.423590
C7_2 C 0.68336(12) 0.66150(11) 0.31261(15)
C8_2 C 0.65870(13) 0.60402(11) 0.36023(16)
C9_2 C 0.56776(12) 0.43058(12) 0.70866(16)
H3_2 H 0.531706 0.405468 0.703371
C10_2 C 0.55742(11) 0.44442(11) 0.31575(15)
H4_2 H 0.591962 0.463653 0.288783
C11_2 C 0.74727(12) 0.67145(11) 0.30513(16)
H5_2 H 0.775282 0.641083 0.326447
C12_2 C 0.50829(12) 0.41934(13) 0.26805(17)
H6_2 H 0.509403 0.422138 0.207361
C13_2 C 0.45687(12) 0.38984(13) 0.30804(18)
H7_2 H 0.425309 0.372171 0.273225
C14_2 C 0.64080(12) 0.70694(12) 0.28012(17)
H8_2 H 0.597377 0.699861 0.284413
C15_2 C 0.59313(14) 0.44098(13) 0.79043(17)
H9_2 H 0.574421 0.423614 0.840042
C16_2 C 0.83751(12) 0.73859(12) 0.25770(18)
H10_2 H 0.866290 0.708761 0.278495
C17_2 C 0.64931(11) 0.49570(10) 0.64542(15)
C18_2 C 0.64641(13) 0.47744(12) 0.79678(16)
H11_2 H 0.664390 0.483955 0.851600
O3_2 O 0.67863(7) 0.52609(7) 0.58509(10)
O4_2 O 0.79868(9) 0.93207(8) 0.10811(11)
O5_2 O 0.89914(9) 0.90372(9) 0.13319(13)
C19_2 C 0.72846(12) 0.77294(11) 0.23443(15)
C20_2 C 0.81664(12) 0.83850(11) 0.18739(15)
C21_2 C 0.84130(13) 0.89598(11) 0.13977(16)
C22_2 C 0.75273(12) 0.82855(11) 0.19487(16)
H12_2 H 0.724718 0.858917 0.173553
C23_2 C 0.85920(12) 0.79306(12) 0.21988(17)
H13_2 H 0.902623 0.800139 0.215587
C24_2 C 0.66249(12) 0.76141(12) 0.24230(18)
H14_2 H 0.633710 0.791239 0.221505
Zn3_2 Zn 0.74546(2) 0.56852(2) 0.71157(2)
N7_2 N 0.74573(9) 0.42380(9) 0.47642(12)
O7_2 O 0.72391(7) 0.42863(7) 0.33509(10)
O4_3 O 0.81793(8) 0.04868(9) 0.35811(11)
O5_3 O 0.84628(9) 0.14914(9) 0.38319(13)
C20_3 C 0.91150(11) 0.06664(12) 0.43739(15)
C21_3 C 0.85402(11) 0.09130(13) 0.38977(16)
C22_3 C 0.92145(11) 0.00273(12) 0.44487(16)
C23_3 C 0.95694(12) 0.10920(12) 0.46988(17)
H13_3 H 0.949861 0.152623 0.465587
N4 N 0.66715(9) 0.23984(9) 0.21541(12)
H15 H 0.654472 0.265393 0.175196
N6_2 N 0.70929(8) 0.15526(8) 0.27840(11)
C25_2 C 0.68971(10) 0.19690(10) 0.34376(15)
C26 C 0.69550(10) 0.18274(10) 0.20228(15)
C27 C 0.70648(10) 0.15549(10) 0.11575(15)
C28_2 C 0.66220(10) 0.24972(10) 0.30423(15)
C29 C 0.63604(12) 0.29863(12) 0.35291(17)
H16 H 0.616888 0.333412 0.326410
C30 C 0.68058(12) 0.18224(12) 0.04134(16)
H17 H 0.655468 0.218294 0.046629
C31_2 C 0.69442(11) 0.19258(11) 0.43425(15)
H18_2 H 0.713653 0.158038 0.461217
C32_2 C 0.66934(13) 0.24171(12) 0.48195(17)
H19_2 H 0.672138 0.240597 0.542639
C33 C 0.63984(13) 0.29313(12) 0.44196(18)
H20 H 0.622171 0.324691 0.476775
C35 C 0.74570(10) 0.10069(11) 0.10458(15)
N1_3 N 0.66715(9) 0.73984(9) 0.78459(12)
H1_3 H 0.654472 0.765393 0.824804
N3_3 N 0.70929(8) 0.65526(8) 0.72160(11)
C1_3 C 0.68971(10) 0.69690(10) 0.65624(15)
O1_3 O 0.81793(8) 0.54868(9) 0.64189(11)
C2_3 C 0.69550(10) 0.68274(10) 0.79772(15)
C3_3 C 0.70648(10) 0.65549(10) 0.88425(15)
C4_3 C 0.66220(10) 0.74972(10) 0.69577(15)
O2_3 O 0.84628(9) 0.64914(9) 0.61681(13)
C5_3 C 0.97706(11) 0.47846(12) 0.51557(15)
C6_3 C 0.63604(12) 0.79863(12) 0.64709(17)
H2_3 H 0.616888 0.833412 0.673590
C7_3 C 0.91150(11) 0.56664(12) 0.56261(15)
C8_3 C 0.85402(11) 0.59130(13) 0.61023(16)
C9_3 C 0.68058(12) 0.68224(12) 0.95866(16)
H3_3 H 0.655468 0.718294 0.953371
C10_3 C 0.69442(11) 0.69258(11) 0.56575(15)
H4_3 H 0.713653 0.658038 0.538783
C11_3 C 0.92145(11) 0.50273(12) 0.55513(16)
H5_3 H 0.891083 0.474718 0.576447
C12_3 C 0.66934(13) 0.74171(12) 0.51805(17)
H6_3 H 0.672138 0.740597 0.457361
C13_3 C 0.63984(13) 0.79313(12) 0.55804(18)
H7_3 H 0.622171 0.824691 0.523225
C14_3 C 0.95694(12) 0.60920(12) 0.53012(17)
H8_3 H 0.949861 0.652623 0.534413
C16_3 C 0.98859(12) 0.41249(12) 0.50770(18)
H10_3 H 0.958761 0.383710 0.528495
C17_3 C 0.74570(10) 0.60069(11) 0.89542(15)
N1_4 N 0.83285(9) 0.26016(9) 0.28459(12)
H1_4 H 0.845528 0.234607 0.324804
N3_4 N 0.79071(8) 0.34474(8) 0.22160(11)
C1_4 C 0.81029(10) 0.30310(10) 0.15624(15)
O1_4 O 0.68207(8) 0.45132(9) 0.14189(11)
C2_4 C 0.80450(10) 0.31726(10) 0.29772(15)
C3_4 C 0.79352(10) 0.34451(10) 0.38425(15)
C4_4 C 0.83780(10) 0.25028(10) 0.19577(15)
O2_4 O 0.65372(9) 0.35086(9) 0.11681(13)
C5_4 C 0.52294(11) 0.52154(12) 0.01557(15)
C6_4 C 0.86396(12) 0.20137(12) 0.14709(17)
H2_4 H 0.883112 0.166588 0.173590
C7_4 C 0.58850(11) 0.43336(12) 0.06261(15)
C8_4 C 0.64598(11) 0.40870(13) 0.11023(16)
C9_4 C 0.81942(12) 0.31776(12) 0.45866(16)
H3_4 H 0.844532 0.281706 0.453371
C10_4 C 0.80558(11) 0.30742(11) 0.06575(15)
H4_4 H 0.786347 0.341962 0.038783
C11_4 C 0.57855(11) 0.49727(12) 0.05513(16)
H5_4 H 0.608917 0.525282 0.076447
C12_4 C 0.83066(13) 0.25829(12) 0.01805(17)
C13_4 C 0.86016(13) 0.20687(12) 0.05804(18)
H7_4 H 0.877829 0.175309 0.023225
C14_4 C 0.54306(12) 0.39080(12) 0.03012(17)
H8_4 H 0.550139 0.347377 0.034413
C15_3 C 0.80902(13) 0.34313(14) 0.54043(17)
H9_3 H 0.826386 0.324421 0.590042
C16_4 C 0.51141(12) 0.58751(12) 0.00770(18)
H10_4 H 0.541239 0.616290 0.028495
C17_4 C 0.75430(10) 0.39931(11) 0.39542(15)
C18_3 C 0.77256(12) 0.39641(13) 0.54678(16)
H11_3 H 0.766045 0.414390 0.601600
H19_3 H 0.172138 0.740597 0.042639
Zn2_2 Zn 0.68148(2) 0.99546(2) 0.53843(2)
N4_2 N 0.51016(9) 0.91715(9) 0.46541(12)
H15_2 H 0.484607 0.904472 0.425196
N6_3 N 0.59474(8) 0.95929(8) 0.52840(11)
C25_3 C 0.55310(10) 0.93971(10) 0.59376(15)
C26_2 C 0.56726(10) 0.94550(10) 0.45228(15)
C27_2 C 0.59451(10) 0.95648(10) 0.36575(15)
C28_3 C 0.50028(10) 0.91220(10) 0.55423(15)
C29_2 C 0.45137(12) 0.88604(12) 0.60291(17)
H16_2 H 0.416588 0.866888 0.576410
C30_2 C 0.56776(12) 0.93058(12) 0.29134(16)
H17_2 H 0.531706 0.905468 0.296629
C31_3 C 0.55742(11) 0.94442(11) 0.68425(15)
H18_3 H 0.591962 0.963653 0.711217
C32_3 C 0.50829(12) 0.91934(13) 0.73195(17)
H19_4 H 0.509403 0.922138 0.792639
C33_2 C 0.45687(12) 0.88984(13) 0.69196(18)
H20_2 H 0.425309 0.872171 0.726775
C34 C 0.59313(14) 0.94098(13) 0.20957(17)
H21 H 0.574421 0.923614 0.159958
C35_2 C 0.64931(11) 0.99570(10) 0.35458(15)
C36 C 0.64641(13) 0.97744(12) 0.20322(16)
H22 H 0.664390 0.983955 0.148400
N8_2 N 0.74573(9) 0.92380(9) 0.52358(12)
O8_2 O 0.72391(7) 0.92863(7) 0.66491(10)
N5_2 N 0.82620(9) 0.99573(9) 0.77358(12)
O6_2 O 0.82137(7) 0.97391(7) 0.91491(10)
Zn4_2 Zn 0.75454(2) 0.93148(2) 0.78843(2)
O4_4 O 0.68207(8) 0.95132(9) 0.85811(11)
O5_4 O 0.65372(9) 0.85086(9) 0.88319(13)
C20_4 C 0.58850(11) 0.93336(12) 0.93739(15)
C21_4 C 0.64598(11) 0.90870(13) 0.88977(16)
C22_4 C 0.57855(11) 0.99727(12) 0.94487(16)
C23_4 C 0.54306(12) 0.89080(12) 0.96988(17)
H13_4 H 0.550139 0.847377 0.965587
N4_3 N 0.83285(9) 0.76016(9) 0.71541(12)
H15_3 H 0.845528 0.734607 0.675196
N6_4 N 0.79071(8) 0.84474(8) 0.77840(11)
C25_4 C 0.81029(10) 0.80310(10) 0.84376(15)
C26_3 C 0.80450(10) 0.81726(10) 0.70228(15)
C27_3 C 0.79352(10) 0.84451(10) 0.61575(15)
C28_4 C 0.83780(10) 0.75028(10) 0.80423(15)
C29_3 C 0.86396(12) 0.70137(12) 0.85291(17)
H16_3 H 0.883112 0.666588 0.826410
C30_3 C 0.81942(12) 0.81776(12) 0.54134(16)
H17_3 H 0.844532 0.781706 0.546629
C31_4 C 0.80558(11) 0.80742(11) 0.93425(15)
H18_4 H 0.786347 0.841962 0.961217
C32_4 C 0.83066(13) 0.75829(12) 0.98195(17)
C33_3 C 0.86016(13) 0.70687(12) 0.94196(18)
H20_3 H 0.877829 0.675309 0.976775
C34_2 C 0.80902(13) 0.84313(14) 0.45957(17)
H21_2 H 0.826386 0.824421 0.409958
C35_3 C 0.75430(10) 0.89931(11) 0.60458(15)
C36_2 C 0.77256(12) 0.89641(13) 0.45322(16)
H22_2 H 0.766045 0.914390 0.398400
C29_4 C 0.04863(12) 0.11396(12) 0.10291(17)
H16_4 H 0.083412 0.133112 0.076410
C33_4 C 0.04313(12) 0.11016(13) 0.19196(18)
H20_4 H 0.074691 0.127829 0.226775
H15_4 H 0.015393 0.095528 0.925196
N4_4 N 0.98984(9) 0.08285(9) 0.96541(12)
C26_4 C 0.93274(10) 0.05450(10) 0.95228(15)
C27_4 C 0.90549(10) 0.04352(10) 0.86575(15)
C30_4 C 0.93224(12) 0.06942(12) 0.79134(16)
H17_4 H 0.968294 0.094532 0.796629
C34_3 C 0.90687(14) 0.05902(13) 0.70957(17)
H21_3 H 0.925579 0.076386 0.659958
C35_4 C 0.85069(11) 0.00430(10) 0.85458(15)
C36_3 C 0.85359(13) 0.02256(12) 0.70322(16)
H22_3 H 0.835610 0.016045 0.648400
Zn1_3 Zn 0.24546(2) 0.06852(2) 0.21157(2)
N1_5 N 0.16715(9) 0.23984(9) 0.28459(12)
H1_5 H 0.154472 0.265393 0.324804
N2_3 N 0.25427(9) 0.07620(9) 0.47642(12)
N3_5 N 0.20929(8) 0.15526(8) 0.22160(11)
C1_5 C 0.18971(10) 0.19690(10) 0.15624(15)
O1_5 O 0.31793(8) 0.04868(9) 0.14189(11)
C2_5 C 0.19550(10) 0.18274(10) 0.29772(15)
C3_5 C 0.20648(10) 0.15549(10) 0.38425(15)
C4_5 C 0.16220(10) 0.24972(10) 0.19577(15)
O2_5 O 0.34628(9) 0.14914(9) 0.11681(13)
C6_5 C 0.13604(12) 0.29863(12) 0.14709(17)
H2_5 H 0.116888 0.333412 0.173590
C7_5 C 0.41150(11) 0.06664(12) 0.06261(15)
C8_5 C 0.35402(11) 0.09130(13) 0.11023(16)
C9_5 C 0.18058(12) 0.18224(12) 0.45866(16)
H3_5 H 0.155468 0.218294 0.453371
C10_5 C 0.19442(11) 0.19258(11) 0.06575(15)
H4_5 H 0.213653 0.158038 0.038783
C11_5 C 0.42145(11) 0.00273(12) 0.05513(16)
C12_5 C 0.16934(13) 0.24171(12) 0.01805(17)
C13_5 C 0.13984(13) 0.29313(12) 0.05804(18)
H7_5 H 0.122171 0.324691 0.023225
C14_5 C 0.45694(12) 0.10920(12) 0.03012(17)
H8_5 H 0.449861 0.152623 0.034413
C15_4 C 0.19098(13) 0.15687(14) 0.54043(17)
H9_4 H 0.173614 0.175579 0.590042
C17_5 C 0.24570(10) 0.10069(11) 0.39542(15)
C18_4 C 0.22744(12) 0.10359(13) 0.54678(16)
H11_4 H 0.233955 0.085610 0.601600
O3_3 O 0.27609(7) 0.07137(7) 0.33509(10)
Zn3_3 Zn 0.31852(2) 0.00454(2) 0.46157(2)
N7_3 N 0.17380(9) 0.00427(9) 0.22642(12)
O7_3 O 0.17863(7) 0.02609(7) 0.08509(10)
N1_6 N 0.48984(9) 0.08285(9) 0.53459(12)
H1_6 H 0.515393 0.095528 0.574804
N3_6 N 0.40526(8) 0.04071(8) 0.47160(11)
C1_6 C 0.44690(10) 0.06029(10) 0.40624(15)
C2_6 C 0.43274(10) 0.05450(10) 0.54772(15)
C3_6 C 0.40549(10) 0.04352(10) 0.63425(15)
C4_6 C 0.49972(10) 0.08780(10) 0.44577(15)
C6_6 C 0.54863(12) 0.11396(12) 0.39709(17)
H2_6 H 0.583412 0.133112 0.423590
C9_6 C 0.43224(12) 0.06942(12) 0.70866(16)
H3_6 H 0.468294 0.094532 0.703371
C10_6 C 0.44258(11) 0.05558(11) 0.31575(15)
H4_6 H 0.408038 0.036347 0.288783
C12_6 C 0.49171(12) 0.08066(13) 0.26805(17)
H6_4 H 0.490597 0.077862 0.207361
C13_6 C 0.54313(12) 0.11016(13) 0.30804(18)
H7_6 H 0.574691 0.127829 0.273225
C15_5 C 0.40687(14) 0.05902(13) 0.79043(17)
H9_5 H 0.425579 0.076386 0.840042
C17_6 C 0.35069(11) 0.00430(10) 0.64542(15)
C18_5 C 0.35359(13) 0.02256(12) 0.79678(16)
H11_5 H 0.335610 0.016045 0.851600
H6_5 H 0.172138 0.240597 0.957361
C19_3 C 0.52294(11) 0.02154(12) 0.98443(15)
H12_3 H 0.608917 0.025282 0.923553
C24_3 C 0.51141(12) 0.08751(12) 0.99230(18)
H14_3 H 0.541239 0.116290 0.971505
C5_5 C 0.47706(11) 0.97846(12) 0.01557(15)
H5_5 H 0.391083 0.974718 0.076447
C16_5 C 0.48859(12) 0.91249(12) 0.00770(18)
H10_5 H 0.458761 0.883710 0.028495
H19_5 H 0.827862 0.759403 0.042639
C5_6 C 0.02294(11) 0.02154(12) 0.51557(15)
H5_6 H 0.108917 0.025282 0.576447
C16_6 C 0.01141(12) 0.08751(12) 0.50770(18)
H10_6 H 0.041239 0.116290 0.528495
C15_6 C 0.30902(13) 0.84313(14) 0.04043(17)
H9_6 H 0.326386 0.824421 0.090042
C18_6 C 0.27256(12) 0.89641(13) 0.04678(16)
H11_6 H 0.266045 0.914390 0.101600
Zn1_4 Zn 0.25454(2) 0.93148(2) 0.71157(2)
N1_7 N 0.33285(9) 0.76016(9) 0.78459(12)
H1_7 H 0.345528 0.734607 0.824804
N2_4 N 0.24573(9) 0.92380(9) 0.97642(12)
N3_7 N 0.29071(8) 0.84474(8) 0.72160(11)
C1_7 C 0.31029(10) 0.80310(10) 0.65624(15)
O1_6 O 0.18207(8) 0.95132(9) 0.64189(11)
C2_7 C 0.30450(10) 0.81726(10) 0.79772(15)
C3_7 C 0.29352(10) 0.84451(10) 0.88425(15)
C4_7 C 0.33780(10) 0.75028(10) 0.69577(15)
O2_6 O 0.15372(9) 0.85086(9) 0.61681(13)
C6_7 C 0.36396(12) 0.70137(12) 0.64709(17)
H2_7 H 0.383112 0.666588 0.673590
C7_6 C 0.08850(11) 0.93336(12) 0.56261(15)
C8_6 C 0.14598(11) 0.90870(13) 0.61023(16)
C9_7 C 0.31942(12) 0.81776(12) 0.95866(16)
H3_7 H 0.344532 0.781706 0.953371
C10_7 C 0.30558(11) 0.80742(11) 0.56575(15)
H4_7 H 0.286347 0.841962 0.538783
C11_6 C 0.07855(11) 0.99727(12) 0.55513(16)
C12_7 C 0.33066(13) 0.75829(12) 0.51805(17)
H6_6 H 0.327862 0.759403 0.457361
C13_7 C 0.36016(13) 0.70687(12) 0.55804(18)
H7_7 H 0.377829 0.675309 0.523225
C14_6 C 0.04306(12) 0.89080(12) 0.53012(17)
H8_6 H 0.050139 0.847377 0.534413
C17_7 C 0.25430(10) 0.89931(11) 0.89542(15)
O3_4 O 0.22391(7) 0.92863(7) 0.83509(10)
Zn3_4 Zn 0.18148(2) 0.99546(2) 0.96157(2)
N7_4 N 0.32620(9) 0.99573(9) 0.72642(12)
O7_4 O 0.32137(7) 0.97391(7) 0.58509(10)
O1_7 O 0.29868(9) 0.93207(8) 0.39189(11)
O2_7 O 0.39914(9) 0.90372(9) 0.36681(13)
C5_7 C 0.22846(12) 0.77294(11) 0.26557(15)
C7_7 C 0.31664(12) 0.83850(11) 0.31261(15)
C8_7 C 0.34130(13) 0.89598(11) 0.36023(16)
C11_7 C 0.25273(12) 0.82855(11) 0.30513(16)
H5_7 H 0.224718 0.858917 0.326447
C14_7 C 0.35920(12) 0.79306(12) 0.28012(17)
H8_7 H 0.402623 0.800139 0.284413
C16_7 C 0.16249(12) 0.76141(12) 0.25770(18)
H10_7 H 0.133710 0.791239 0.278495
O4_5 O 0.20132(9) 0.56793(8) 0.10811(11)
O5_5 O 0.10086(9) 0.59628(9) 0.13319(13)
C19_4 C 0.27154(12) 0.72706(11) 0.23443(15)
C20_5 C 0.18336(12) 0.66150(11) 0.18739(15)
C21_5 C 0.15870(13) 0.60402(11) 0.13977(16)
C22_5 C 0.24727(12) 0.67145(11) 0.19487(16)
H12_4 H 0.275282 0.641083 0.173553
C23_5 C 0.14080(12) 0.70694(12) 0.21988(17)
H13_5 H 0.097377 0.699861 0.215587
C24_4 C 0.33751(12) 0.73859(12) 0.24230(18)
H14_4 H 0.366290 0.708761 0.221505
Zn2_3 Zn 0.18148(2) 0.49546(2) 0.03843(2)
N6_5 N 0.09474(8) 0.45929(8) 0.02840(11)
C25_5 C 0.05310(10) 0.43971(10) 0.09376(15)
C28_5 C 0.00028(10) 0.41220(10) 0.05423(15)
C31_5 C 0.05742(11) 0.44442(11) 0.18425(15)
H18_5 H 0.091962 0.463653 0.211217
C32_5 C 0.00829(12) 0.41934(13) 0.23195(17)
H19_6 H 0.009403 0.422138 0.292639
N8_3 N 0.24573(9) 0.42380(9) 0.02358(12)
O8_3 O 0.22391(7) 0.42863(7) 0.16491(10)
N4_5 N 0.01016(9) 0.41715(9) 0.96541(12)
N5_3 N 0.17380(9) 0.50427(9) 0.77358(12)
C26_5 C 0.06726(10) 0.44550(10) 0.95228(15)
C27_5 C 0.09451(10) 0.45648(10) 0.86575(15)
C30_5 C 0.06776(12) 0.43058(12) 0.79134(16)
H17_5 H 0.031706 0.405468 0.796629
C34_4 C 0.09313(14) 0.44098(13) 0.70957(17)
H21_4 H 0.074421 0.423614 0.659958
C35_5 C 0.14931(11) 0.49570(10) 0.85458(15)
C36_4 C 0.14641(13) 0.47744(12) 0.70322(16)
H22_4 H 0.164390 0.483955 0.648400
O6_3 O 0.17863(7) 0.52609(7) 0.91491(10)
Zn4_3 Zn 0.24546(2) 0.56852(2) 0.78843(2)
O1_8 O 0.20132(9) 0.06793(8) 0.89189(11)
O2_8 O 0.10086(9) 0.09628(9) 0.86681(13)
C5_8 C 0.27154(12) 0.22706(11) 0.76557(15)
C7_8 C 0.18336(12) 0.16150(11) 0.81261(15)
C8_8 C 0.15870(13) 0.10402(11) 0.86023(16)
C11_8 C 0.24727(12) 0.17145(11) 0.80513(16)
H5_8 H 0.275282 0.141083 0.826447
C14_8 C 0.14080(12) 0.20694(12) 0.78012(17)
H8_8 H 0.097377 0.199861 0.784413
C16_8 C 0.33751(12) 0.23859(12) 0.75770(18)
H10_8 H 0.366290 0.208761 0.778495
O4_6 O 0.29868(9) 0.43207(8) 0.60811(11)
O5_6 O 0.39914(9) 0.40372(9) 0.63319(13)
C19_5 C 0.22846(12) 0.27294(11) 0.73443(15)
C20_6 C 0.31664(12) 0.33850(11) 0.68739(15)
C21_6 C 0.34130(13) 0.39598(11) 0.63977(16)
C22_6 C 0.25273(12) 0.32855(11) 0.69487(16)
H12_5 H 0.224718 0.358917 0.673553
C23_6 C 0.35920(12) 0.29306(12) 0.71988(17)
H13_6 H 0.402623 0.300139 0.715587
C24_5 C 0.16249(12) 0.26141(12) 0.74230(18)
H14_5 H 0.133710 0.291239 0.721505
Zn2_4 Zn 0.31852(2) 0.50454(2) 0.53843(2)
N4_6 N 0.48984(9) 0.58285(9) 0.46541(12)
H15_5 H 0.515393 0.595528 0.425196
N5_4 N 0.32620(9) 0.49573(9) 0.27358(12)
N6_6 N 0.40526(8) 0.54071(8) 0.52840(11)
C25_6 C 0.44690(10) 0.56029(10) 0.59376(15)
C26_6 C 0.43274(10) 0.55450(10) 0.45228(15)
C27_6 C 0.40549(10) 0.54352(10) 0.36575(15)
C28_6 C 0.49972(10) 0.58780(10) 0.55423(15)
C29_5 C 0.54863(12) 0.61396(12) 0.60291(17)
H16_5 H 0.583412 0.633112 0.576410
C30_6 C 0.43224(12) 0.56942(12) 0.29134(16)
H17_6 H 0.468294 0.594532 0.296629
C31_6 C 0.44258(11) 0.55558(11) 0.68425(15)
H18_6 H 0.408038 0.536347 0.711217
C32_6 C 0.49171(12) 0.58066(13) 0.73195(17)
H19_7 H 0.490597 0.577862 0.792639
C33_5 C 0.54313(12) 0.61016(13) 0.69196(18)
H20_5 H 0.574691 0.627829 0.726775
C34_5 C 0.40687(14) 0.55902(13) 0.20957(17)
H21_5 H 0.425579 0.576386 0.159958
C35_6 C 0.35069(11) 0.50430(10) 0.35458(15)
C36_5 C 0.35359(13) 0.52256(12) 0.20322(16)
H22_5 H 0.335610 0.516045 0.148400
O6_4 O 0.32137(7) 0.47391(7) 0.41491(10)
Zn4_4 Zn 0.25454(2) 0.43148(2) 0.28843(2)
N8_4 N 0.25427(9) 0.57620(9) 0.52358(12)
O8_4 O 0.27609(7) 0.57137(7) 0.66491(10)
N3_8 N 0.09474(8) 0.95929(8) 0.97160(11)
C1_8 C 0.05310(10) 0.93971(10) 0.90624(15)
C4_8 C 0.00028(10) 0.91220(10) 0.94577(15)
C10_8 C 0.05742(11) 0.94442(11) 0.81575(15)
H4_8 H 0.091962 0.963653 0.788783
C12_8 C 0.00829(12) 0.91934(13) 0.76805(17)
H6_7 H 0.009403 0.922138 0.707361
O4_7 O 0.18207(8) 0.45132(9) 0.35811(11)
O5_7 O 0.15372(9) 0.35086(9) 0.38319(13)
C19_6 C 0.02294(11) 0.52154(12) 0.48443(15)
C20_7 C 0.08850(11) 0.43336(12) 0.43739(15)
C21_7 C 0.14598(11) 0.40870(13) 0.38977(16)
C22_7 C 0.07855(11) 0.49727(12) 0.44487(16)
H12_6 H 0.108917 0.525282 0.423553
C23_7 C 0.04306(12) 0.39080(12) 0.46988(17)
H13_7 H 0.050139 0.347377 0.465587
C24_6 C 0.01141(12) 0.58751(12) 0.49230(18)
H14_6 H 0.041239 0.616290 0.471505
N4_7 N 0.33285(9) 0.26016(9) 0.21541(12)
H15_6 H 0.345528 0.234607 0.175196
N6_7 N 0.29071(8) 0.34474(8) 0.27840(11)
C25_7 C 0.31029(10) 0.30310(10) 0.34376(15)
C26_7 C 0.30450(10) 0.31726(10) 0.20228(15)
C27_7 C 0.29352(10) 0.34451(10) 0.11575(15)
C28_7 C 0.33780(10) 0.25028(10) 0.30423(15)
C29_6 C 0.36396(12) 0.20137(12) 0.35291(17)
H16_6 H 0.383112 0.166588 0.326410
C30_7 C 0.31942(12) 0.31776(12) 0.04134(16)
H17_7 H 0.344532 0.281706 0.046629
C31_7 C 0.30558(11) 0.30742(11) 0.43425(15)
H18_7 H 0.286347 0.341962 0.461217
C32_7 C 0.33066(13) 0.25829(12) 0.48195(17)
H19_8 H 0.327862 0.259403 0.542639
C33_6 C 0.36016(13) 0.20687(12) 0.44196(18)
H20_6 H 0.377829 0.175309 0.476775
C35_7 C 0.25430(10) 0.39931(11) 0.10458(15)
H6_8 H 0.827862 0.259403 0.957361
O4_8 O 0.31793(8) 0.54868(9) 0.85811(11)
O5_8 O 0.34628(9) 0.64914(9) 0.88319(13)
C19_7 C 0.47706(11) 0.47846(12) 0.98443(15)
C20_8 C 0.41150(11) 0.56664(12) 0.93739(15)
C21_8 C 0.35402(11) 0.59130(13) 0.88977(16)
C22_8 C 0.42145(11) 0.50273(12) 0.94487(16)
H12_7 H 0.391083 0.474718 0.923553
C23_8 C 0.45694(12) 0.60920(12) 0.96988(17)
H13_8 H 0.449861 0.652623 0.965587
C24_7 C 0.48859(12) 0.41249(12) 0.99230(18)
H14_7 H 0.458761 0.383710 0.971505
N4_8 N 0.16715(9) 0.73984(9) 0.71541(12)
H15_7 H 0.154472 0.765393 0.675196
N6_8 N 0.20929(8) 0.65526(8) 0.77840(11)
C25_8 C 0.18971(10) 0.69690(10) 0.84376(15)
C26_8 C 0.19550(10) 0.68274(10) 0.70228(15)
C27_8 C 0.20648(10) 0.65549(10) 0.61575(15)
C28_8 C 0.16220(10) 0.74972(10) 0.80423(15)
C29_7 C 0.13604(12) 0.79863(12) 0.85291(17)
H16_7 H 0.116888 0.833412 0.826410
C30_8 C 0.18058(12) 0.68224(12) 0.54134(16)
H17_8 H 0.155468 0.718294 0.546629
C31_8 C 0.19442(11) 0.69258(11) 0.93425(15)
H18_8 H 0.213653 0.658038 0.961217
C32_8 C 0.16934(13) 0.74171(12) 0.98195(17)
C33_7 C 0.13984(13) 0.79313(12) 0.94196(18)
H20_7 H 0.122171 0.824691 0.976775
C34_6 C 0.19098(13) 0.65687(14) 0.45957(17)
H21_6 H 0.173614 0.675579 0.409958
C35_8 C 0.24570(10) 0.60069(11) 0.60458(15)
C36_6 C 0.22744(12) 0.60359(13) 0.45322(16)
H22_6 H 0.233955 0.585610 0.398400
C34_7 C 0.69098(13) 0.15687(14) 0.95957(17)
H21_7 H 0.673614 0.175579 0.909958
C36_7 C 0.72744(12) 0.10359(13) 0.95322(16)
H22_7 H 0.733955 0.085610 0.898400
C19_8 C 0.97706(11) 0.97846(12) 0.48443(15)
H12_8 H 0.891083 0.974718 0.423553
C24_8 C 0.98859(12) 0.91249(12) 0.49230(18)
H14_8 H 0.958761 0.883710 0.471505
C29_8 C 0.95137(12) 0.38604(12) 0.10291(17)
H16_8 H 0.916588 0.366888 0.076410
C33_8 C 0.95687(12) 0.38984(13) 0.19196(18)
H20_8 H 0.925309 0.372171 0.226775
H15_8 H 0.984607 0.404472 0.925196
N1_8 N 0.01016(9) 0.91715(9) 0.03459(12)
C2_8 C 0.06726(10) 0.94550(10) 0.04772(15)
C3_8 C 0.09451(10) 0.95648(10) 0.13425(15)
C9_8 C 0.06776(12) 0.93058(12) 0.20866(16)
H3_8 H 0.031706 0.905468 0.203371
C15_7 C 0.09313(14) 0.94098(13) 0.29043(17)
H9_7 H 0.074421 0.923614 0.340042
C17_8 C 0.14931(11) 0.99570(10) 0.14542(15)
C18_7 C 0.14641(13) 0.97744(12) 0.29678(16)
H11_7 H 0.164390 0.983955 0.351600
H1_8 H 0.984607 0.904472 0.074804
C6_8 C 0.95137(12) 0.88604(12) 0.89709(17)
H2_8 H 0.916588 0.866888 0.923590
C13_8 C 0.95687(12) 0.88984(13) 0.80804(18)
H7_8 H 0.925309 0.872171 0.773225
C34_8 C 0.30902(13) 0.34313(14) 0.95957(17)
H21_8 H 0.326386 0.324421 0.909958
C36_8 C 0.27256(12) 0.39641(13) 0.95322(16)
H22_8 H 0.266045 0.414390 0.898400
C15_8 C 0.69098(13) 0.65687(14) 0.04043(17)
H9_8 H 0.673614 0.675579 0.090042
C18_8 C 0.72744(12) 0.60359(13) 0.04678(16)
H11_8 H 0.733955 0.585610 0.101600
loop_
_geom_bond_atom_site_label_1
_geom_bond_atom_site_label_2
_geom_bond_site_symmetry_1
_geom_bond_site_symmetry_2
H2 C6 1_555 1_555
C13 C6 1_555 1_555
H7 C13 1_555 1_555
N2 C17 1_555 1_555
C2 N1 1_555 1_555
C3 C2 1_555 1_555
C9 C3 1_555 1_555
H3 C9 1_555 1_555
C15 C9 1_555 1_555
H9 C15 1_555 1_555
C17 C3 1_555 1_555
C18 N2 1_555 1_555
H11 C18 1_555 1_555
Zn3 N2 1_555 1_555
C15 C18 1_555 1_555
C17 O3 1_555 1_555
O3 Zn3 1_555 1_555
Zn1 N3 1_555 1_555
N3 C1 1_555 1_555
C1 C4 1_555 1_555
O1 Zn1 1_555 1_555
O2 C8 1_555 1_555
C5 C11 1_555 1_555
C7 C8 1_555 1_555
C8 O1 1_555 1_555
C10 C1 1_555 1_555
H4 C10 1_555 1_555
C11 C7 1_555 1_555
H5 C11 1_555 1_555
C12 C10 1_555 1_555
H6 C12 1_555 1_555
C14 C7 1_555 1_555
H8 C14 1_555 1_555
C16 C5 1_555 1_555
H10 C16 1_555 1_555
O4 C21 1_555 1_555
O5 C21 1_555 1_555
C19 C5 1_555 1_555
C20 C21 1_555 1_555
C22 C19 1_555 1_555
H12 C22 1_555 1_555
C23 C16 1_555 1_555
H13 C23 1_555 1_555
C24 C14 1_555 1_555
H14 C24 1_555 1_555
Zn4 N5 1_555 1_555
N7 Zn1 1_555 1_555
O7 Zn1 1_555 1_555
C19 C24 1_555 1_555
C20 C22 1_555 1_555
C20 C23 1_555 1_555
O6 Zn4 1_555 1_555
N6 Zn2 1_555 1_555
C25 N6 1_555 1_555
C31 C25 1_555 1_555
H18 C31 1_555 1_555
C32 C31 1_555 1_555
H19 C32 1_555 1_555
N8 Zn2 1_555 1_555
O8 Zn2 1_555 1_555
C25 C28 1_555 1_555
Zn1_2 N3_2 1_555 1_555
N1_2 H1_2 1_555 1_555
N2_2 C17_2 1_555 1_555
N3_2 C1_2 1_555 1_555
C1_2 C4_2 1_555 1_555
O1_2 Zn1_2 1_555 1_555
C2_2 N1_2 1_555 1_555
C3_2 C2_2 1_555 1_555
C4_2 N1_2 1_555 1_555
O2_2 C8_2 1_555 1_555
C5_2 C11_2 1_555 1_555
C6_2 C4_2 1_555 1_555
H2_2 C6_2 1_555 1_555
C7_2 C8_2 1_555 1_555
C8_2 O1_2 1_555 1_555
C9_2 C3_2 1_555 1_555
H3_2 C9_2 1_555 1_555
C10_2 C1_2 1_555 1_555
H4_2 C10_2 1_555 1_555
C11_2 C7_2 1_555 1_555
H5_2 C11_2 1_555 1_555
C12_2 C10_2 1_555 1_555
H6_2 C12_2 1_555 1_555
C13_2 C6_2 1_555 1_555
H7_2 C13_2 1_555 1_555
C14_2 C7_2 1_555 1_555
H8_2 C14_2 1_555 1_555
C15_2 C9_2 1_555 1_555
H9_2 C15_2 1_555 1_555
C16_2 C5_2 1_555 1_555
H10_2 C16_2 1_555 1_555
C17_2 C3_2 1_555 1_555
C18_2 N2_2 1_555 1_555
H11_2 C18_2 1_555 1_555
O3_2 Zn1_2 1_555 1_555
O4_2 C21_2 1_555 1_555
O5_2 C21_2 1_555 1_555
C19_2 C5_2 1_555 1_555
C20_2 C21_2 1_555 1_555
C22_2 C19_2 1_555 1_555
H12_2 C22_2 1_555 1_555
C23_2 C16_2 1_555 1_555
H13_2 C23_2 1_555 1_555
C24_2 C14_2 1_555 1_555
H14_2 C24_2 1_555 1_555
Zn3_2 N2_2 1_555 1_555
N7_2 Zn1_2 1_555 1_555
O7_2 Zn1_2 1_555 1_555
N3_2 C2_2 1_555 1_555
C12_2 C13_2 1_555 1_555
C15_2 C18_2 1_555 1_555
C17_2 O3_2 1_555 1_555
O3_2 Zn3_2 1_555 1_555
C19_2 C24_2 1_555 1_555
C20_2 C22_2 1_555 1_555
C20_2 C23_2 1_555 1_555
O4_3 C21_3 1_555 1_555
O5_3 C21_3 1_555 1_555
C20_3 C21_3 1_555 1_555
H13_3 C23_3 1_555 1_555
Zn4 O4_3 1_555 1_555
N4 H15 1_555 1_555
N8 C35 1_555 1_555
N6_2 Zn4 1_555 1_555
C25_2 N6_2 1_555 1_555
C26 N4 1_555 1_555
C27 C26 1_555 1_555
C28_2 N4 1_555 1_555
C29 C28_2 1_555 1_555
H16 C29 1_555 1_555
C30 C27 1_555 1_555
H17 C30 1_555 1_555
C31_2 C25_2 1_555 1_555
H18_2 C31_2 1_555 1_555
C32_2 C31_2 1_555 1_555
H19_2 C32_2 1_555 1_555
C33 C29 1_555 1_555
H20 C33 1_555 1_555
C35 C27 1_555 1_555
O8 Zn4 1_555 1_555
C20_3 C22_3 1_555 1_555
C20_3 C23_3 1_555 1_555
N6_2 C26 1_555 1_555
C25_2 C28_2 1_555 1_555
C32_2 C33 1_555 1_555
C35 O8 1_555 1_555
Zn3_2 N3_3 1_555 1_555
N1_3 H1_3 1_555 1_555
N7 C17_3 1_555 1_555
N3_3 C1_3 1_555 1_555
C1_3 C4_3 1_555 1_555
O1_3 Zn3_2 1_555 1_555
C2_3 N1_3 1_555 1_555
C3_3 C2_3 1_555 1_555
C4_3 N1_3 1_555 1_555
O2_3 C8_3 1_555 1_555
C5_3 C11_3 1_555 1_555
C6_3 C4_3 1_555 1_555
H2_3 C6_3 1_555 1_555
C7_3 C8_3 1_555 1_555
C8_3 O1_3 1_555 1_555
C9_3 C3_3 1_555 1_555
H3_3 C9_3 1_555 1_555
C10_3 C1_3 1_555 1_555
H4_3 C10_3 1_555 1_555
C11_3 C7_3 1_555 1_555
H5_3 C11_3 1_555 1_555
C12_3 C10_3 1_555 1_555
H6_3 C12_3 1_555 1_555
C13_3 C6_3 1_555 1_555
H7_3 C13_3 1_555 1_555
C14_3 C7_3 1_555 1_555
H8_3 C14_3 1_555 1_555
C16_3 C5_3 1_555 1_555
H10_3 C16_3 1_555 1_555
C17_3 C3_3 1_555 1_555
O7 Zn3_2 1_555 1_555
N3_3 C2_3 1_555 1_555
C12_3 C13_3 1_555 1_555
C17_3 O7 1_555 1_555
Zn3 N3_4 1_555 1_555
N1_4 H1_4 1_555 1_555
N7_2 C17_4 1_555 1_555
N3_4 C1_4 1_555 1_555
C1_4 C4_4 1_555 1_555
O1_4 Zn3 1_555 1_555
C2_4 N1_4 1_555 1_555
C3_4 C2_4 1_555 1_555
C4_4 N1_4 1_555 1_555
O2_4 C8_4 1_555 1_555
C5_4 C11_4 1_555 1_555
C6_4 C4_4 1_555 1_555
H2_4 C6_4 1_555 1_555
C7_4 C8_4 1_555 1_555
C8_4 O1_4 1_555 1_555
C9_4 C3_4 1_555 1_555
H3_4 C9_4 1_555 1_555
C10_4 C1_4 1_555 1_555
H4_4 C10_4 1_555 1_555
C11_4 C7_4 1_555 1_555
H5_4 C11_4 1_555 1_555
C12_4 C10_4 1_555 1_555
C13_4 C6_4 1_555 1_555
H7_4 C13_4 1_555 1_555
C14_4 C7_4 1_555 1_555
H8_4 C14_4 1_555 1_555
C15_3 C9_4 1_555 1_555
H9_3 C15_3 1_555 1_555
C16_4 C5_4 1_555 1_555
H10_4 C16_4 1_555 1_555
C17_4 C3_4 1_555 1_555
C18_3 N7_2 1_555 1_555
H11_3 C18_3 1_555 1_555
O7_2 Zn3 1_555 1_555
N3_4 C2_4 1_555 1_555
C12_4 C13_4 1_555 1_555
C15_3 C18_3 1_555 1_555
C17_4 O7_2 1_555 1_555
N4_2 H15_2 1_555 1_555
N6_3 Zn2_2 1_555 1_555
C25_3 N6_3 1_555 1_555
C26_2 N4_2 1_555 1_555
C27_2 C26_2 1_555 1_555
C28_3 N4_2 1_555 1_555
C29_2 C28_3 1_555 1_555
H16_2 C29_2 1_555 1_555
C30_2 C27_2 1_555 1_555
H17_2 C30_2 1_555 1_555
C31_3 C25_3 1_555 1_555
H18_3 C31_3 1_555 1_555
C32_3 C31_3 1_555 1_555
H19_4 C32_3 1_555 1_555
C33_2 C29_2 1_555 1_555
H20_2 C33_2 1_555 1_555
C34 C30_2 1_555 1_555
H21 C34 1_555 1_555
C35_2 C27_2 1_555 1_555
H22 C36 1_555 1_555
N8_2 Zn2_2 1_555 1_555
O8_2 Zn2_2 1_555 1_555
N6_3 C26_2 1_555 1_555
C25_3 C28_3 1_555 1_555
C32_3 C33_2 1_555 1_555
C34 C36 1_555 1_555
Zn4_2 N5_2 1_555 1_555
O6_2 Zn4_2 1_555 1_555
O4_4 C21_4 1_555 1_555
O5_4 C21_4 1_555 1_555
C20_4 C21_4 1_555 1_555
H13_4 C23_4 1_555 1_555
Zn4_2 O4_4 1_555 1_555
N4_3 H15_3 1_555 1_555
N8_2 C35_3 1_555 1_555
N6_4 Zn4_2 1_555 1_555
C25_4 N6_4 1_555 1_555
C26_3 N4_3 1_555 1_555
C27_3 C26_3 1_555 1_555
C28_4 N4_3 1_555 1_555
C29_3 C28_4 1_555 1_555
H16_3 C29_3 1_555 1_555
C30_3 C27_3 1_555 1_555
H17_3 C30_3 1_555 1_555
C31_4 C25_4 1_555 1_555
H18_4 C31_4 1_555 1_555
C32_4 C31_4 1_555 1_555
C33_3 C29_3 1_555 1_555
H20_3 C33_3 1_555 1_555
C34_2 C30_3 1_555 1_555
H21_2 C34_2 1_555 1_555
C35_3 C27_3 1_555 1_555
C36_2 N8_2 1_555 1_555
H22_2 C36_2 1_555 1_555
O8_2 Zn4_2 1_555 1_555
C20_4 C22_4 1_555 1_555
C20_4 C23_4 1_555 1_555
N6_4 C26_3 1_555 1_555
C25_4 C28_4 1_555 1_555
C32_4 C33_3 1_555 1_555
C34_2 C36_2 1_555 1_555
C35_3 O8_2 1_555 1_555
H16_4 C29_4 1_555 1_555
C33_4 C29_4 1_555 1_555
H20_4 C33_4 1_555 1_555
C26_4 N4_4 1_555 1_555
C27_4 C26_4 1_555 1_555
C30_4 C27_4 1_555 1_555
H17_4 C30_4 1_555 1_555
C34_3 C30_4 1_555 1_555
H21_3 C34_3 1_555 1_555
C35_4 C27_4 1_555 1_555
H22_3 C36_3 1_555 1_555
C34_3 C36_3 1_555 1_555
Zn1_3 N3_5 1_555 1_555
N1_5 H1_5 1_555 1_555
N2_3 C17_5 1_555 1_555
N3_5 C1_5 1_555 1_555
C1_5 C4_5 1_555 1_555
O1_5 Zn1_3 1_555 1_555
C2_5 N1_5 1_555 1_555
C3_5 C2_5 1_555 1_555
C4_5 N1_5 1_555 1_555
O2_5 C8_5 1_555 1_555
C6_5 C4_5 1_555 1_555
H2_5 C6_5 1_555 1_555
C7_5 C8_5 1_555 1_555
C8_5 O1_5 1_555 1_555
C9_5 C3_5 1_555 1_555
H3_5 C9_5 1_555 1_555
C10_5 C1_5 1_555 1_555
H4_5 C10_5 1_555 1_555
C11_5 C7_5 1_555 1_555
C12_5 C10_5 1_555 1_555
C13_5 C6_5 1_555 1_555
H7_5 C13_5 1_555 1_555
C14_5 C7_5 1_555 1_555
H8_5 C14_5 1_555 1_555
C15_4 C9_5 1_555 1_555
H9_4 C15_4 1_555 1_555
C17_5 C3_5 1_555 1_555
C18_4 N2_3 1_555 1_555
H11_4 C18_4 1_555 1_555
O3_3 Zn1_3 1_555 1_555
Zn3_3 N2_3 1_555 1_555
N7_3 Zn1_3 1_555 1_555
O7_3 Zn1_3 1_555 1_555
N3_5 C2_5 1_555 1_555
C12_5 C13_5 1_555 1_555
C15_4 C18_4 1_555 1_555
C17_5 O3_3 1_555 1_555
O3_3 Zn3_3 1_555 1_555
Zn3_3 N3_6 1_555 1_555
N1_6 H1_6 1_555 1_555
N3_6 C1_6 1_555 1_555
C1_6 C4_6 1_555 1_555
C2_6 N1_6 1_555 1_555
C3_6 C2_6 1_555 1_555
C4_6 N1_6 1_555 1_555
C6_6 C4_6 1_555 1_555
H2_6 C6_6 1_555 1_555
C9_6 C3_6 1_555 1_555
H3_6 C9_6 1_555 1_555
C10_6 C1_6 1_555 1_555
H4_6 C10_6 1_555 1_555
C12_6 C10_6 1_555 1_555
H6_4 C12_6 1_555 1_555
C13_6 C6_6 1_555 1_555
H7_6 C13_6 1_555 1_555
C15_5 C9_6 1_555 1_555
H9_5 C15_5 1_555 1_555
C17_6 C3_6 1_555 1_555
H11_5 C18_5 1_555 1_555
N3_6 C2_6 1_555 1_555
C12_6 C13_6 1_555 1_555
C15_5 C18_5 1_555 1_555
H14_3 C24_3 1_555 1_555
C19_3 C24_3 1_555 1_555
C16_5 C5_5 1_555 1_555
H10_5 C16_5 1_555 1_555
C16_6 C5_6 1_555 1_555
H10_6 C16_6 1_555 1_555
H9_6 C15_6 1_555 1_555
H11_6 C18_6 1_555 1_555
C15_6 C18_6 1_555 1_555
Zn1_4 N3_7 1_555 1_555
N1_7 H1_7 1_555 1_555
N2_4 C17_7 1_555 1_555
N3_7 C1_7 1_555 1_555
C1_7 C4_7 1_555 1_555
O1_6 Zn1_4 1_555 1_555
C2_7 N1_7 1_555 1_555
C3_7 C2_7 1_555 1_555
C4_7 N1_7 1_555 1_555
O2_6 C8_6 1_555 1_555
C6_7 C4_7 1_555 1_555
H2_7 C6_7 1_555 1_555
C7_6 C8_6 1_555 1_555
C8_6 O1_6 1_555 1_555
C9_7 C3_7 1_555 1_555
H3_7 C9_7 1_555 1_555
C10_7 C1_7 1_555 1_555
H4_7 C10_7 1_555 1_555
C11_6 C7_6 1_555 1_555
C12_7 C10_7 1_555 1_555
H6_6 C12_7 1_555 1_555
C13_7 C6_7 1_555 1_555
H7_7 C13_7 1_555 1_555
C14_6 C7_6 1_555 1_555
H8_6 C14_6 1_555 1_555
C17_7 C3_7 1_555 1_555
O3_4 Zn1_4 1_555 1_555
Zn3_4 N2_4 1_555 1_555
N7_4 Zn1_4 1_555 1_555
O7_4 Zn1_4 1_555 1_555
N3_7 C2_7 1_555 1_555
C12_7 C13_7 1_555 1_555
C17_7 O3_4 1_555 1_555
O3_4 Zn3_4 1_555 1_555
O2_7 C8_7 1_555 1_555
C5_7 C11_7 1_555 1_555
C7_7 C8_7 1_555 1_555
C8_7 O1_7 1_555 1_555
C11_7 C7_7 1_555 1_555
H5_7 C11_7 1_555 1_555
C14_7 C7_7 1_555 1_555
H8_7 C14_7 1_555 1_555
C16_7 C5_7 1_555 1_555
H10_7 C16_7 1_555 1_555
O4_5 C21_5 1_555 1_555
O5_5 C21_5 1_555 1_555
C19_4 C5_7 1_555 1_555
C20_5 C21_5 1_555 1_555
C22_5 C19_4 1_555 1_555
H12_4 C22_5 1_555 1_555
C23_5 C16_7 1_555 1_555
H13_5 C23_5 1_555 1_555
C24_4 C14_7 1_555 1_555
H14_4 C24_4 1_555 1_555
Zn2_3 O4_5 1_555 1_555
N6_5 Zn2_3 1_555 1_555
C25_5 N6_5 1_555 1_555
C31_5 C25_5 1_555 1_555
H18_5 C31_5 1_555 1_555
C32_5 C31_5 1_555 1_555
H19_6 C32_5 1_555 1_555
N8_3 Zn2_3 1_555 1_555
O8_3 Zn2_3 1_555 1_555
C19_4 C24_4 1_555 1_555
C20_5 C22_5 1_555 1_555
C20_5 C23_5 1_555 1_555
C25_5 C28_5 1_555 1_555
N5_3 C35_5 1_555 1_555
C26_5 N4_5 1_555 1_555
C27_5 C26_5 1_555 1_555
C30_5 C27_5 1_555 1_555
H17_5 C30_5 1_555 1_555
C34_4 C30_5 1_555 1_555
H21_4 C34_4 1_555 1_555
C35_5 C27_5 1_555 1_555
C36_4 N5_3 1_555 1_555
H22_4 C36_4 1_555 1_555
Zn4_3 N5_3 1_555 1_555
C34_4 C36_4 1_555 1_555
C35_5 O6_3 1_555 1_555
O6_3 Zn4_3 1_555 1_555
O2_8 C8_8 1_555 1_555
C5_8 C11_8 1_555 1_555
C7_8 C8_8 1_555 1_555
C8_8 O1_8 1_555 1_555
C11_8 C7_8 1_555 1_555
H5_8 C11_8 1_555 1_555
C14_8 C7_8 1_555 1_555
H8_8 C14_8 1_555 1_555
C16_8 C5_8 1_555 1_555
H10_8 C16_8 1_555 1_555
O4_6 C21_6 1_555 1_555
O5_6 C21_6 1_555 1_555
C19_5 C5_8 1_555 1_555
C20_6 C21_6 1_555 1_555
C22_6 C19_5 1_555 1_555
H12_5 C22_6 1_555 1_555
C23_6 C16_8 1_555 1_555
H13_6 C23_6 1_555 1_555
C24_5 C14_8 1_555 1_555
H14_5 C24_5 1_555 1_555
Zn2_4 O4_6 1_555 1_555
N4_6 H15_5 1_555 1_555
N5_4 C35_6 1_555 1_555
N6_6 Zn2_4 1_555 1_555
C25_6 N6_6 1_555 1_555
C26_6 N4_6 1_555 1_555
C27_6 C26_6 1_555 1_555
C28_6 N4_6 1_555 1_555
C29_5 C28_6 1_555 1_555
H16_5 C29_5 1_555 1_555
C30_6 C27_6 1_555 1_555
H17_6 C30_6 1_555 1_555
C31_6 C25_6 1_555 1_555
H18_6 C31_6 1_555 1_555
C32_6 C31_6 1_555 1_555
H19_7 C32_6 1_555 1_555
C33_5 C29_5 1_555 1_555
H20_5 C33_5 1_555 1_555
C34_5 C30_6 1_555 1_555
H21_5 C34_5 1_555 1_555
C35_6 C27_6 1_555 1_555
C36_5 N5_4 1_555 1_555
H22_5 C36_5 1_555 1_555
O6_4 Zn2_4 1_555 1_555
Zn4_4 N5_4 1_555 1_555
N8_4 Zn2_4 1_555 1_555
O8_4 Zn2_4 1_555 1_555
C19_5 C24_5 1_555 1_555
C20_6 C22_6 1_555 1_555
C20_6 C23_6 1_555 1_555
N6_6 C26_6 1_555 1_555
C25_6 C28_6 1_555 1_555
C32_6 C33_5 1_555 1_555
C34_5 C36_5 1_555 1_555
C35_6 O6_4 1_555 1_555
O6_4 Zn4_4 1_555 1_555
Zn3_4 N3_8 1_555 1_555
N3_8 C1_8 1_555 1_555
C1_8 C4_8 1_555 1_555
C10_8 C1_8 1_555 1_555
H4_8 C10_8 1_555 1_555
C12_8 C10_8 1_555 1_555
H6_7 C12_8 1_555 1_555
O4_7 C21_7 1_555 1_555
O5_7 C21_7 1_555 1_555
C20_7 C21_7 1_555 1_555
C22_7 C19_6 1_555 1_555
H12_6 C22_7 1_555 1_555
H13_7 C23_7 1_555 1_555
H14_6 C24_6 1_555 1_555
Zn4_4 O4_7 1_555 1_555
N4_7 H15_6 1_555 1_555
N8_3 C35_7 1_555 1_555
N6_7 Zn4_4 1_555 1_555
C25_7 N6_7 1_555 1_555
C26_7 N4_7 1_555 1_555
C27_7 C26_7 1_555 1_555
C28_7 N4_7 1_555 1_555
C29_6 C28_7 1_555 1_555
H16_6 C29_6 1_555 1_555
C30_7 C27_7 1_555 1_555
H17_7 C30_7 1_555 1_555
C31_7 C25_7 1_555 1_555
H18_7 C31_7 1_555 1_555
C32_7 C31_7 1_555 1_555
H19_8 C32_7 1_555 1_555
C33_6 C29_6 1_555 1_555
H20_6 C33_6 1_555 1_555
C35_7 C27_7 1_555 1_555
O8_3 Zn4_4 1_555 1_555
C19_6 C24_6 1_555 1_555
C20_7 C22_7 1_555 1_555
C20_7 C23_7 1_555 1_555
N6_7 C26_7 1_555 1_555
C25_7 C28_7 1_555 1_555
C32_7 C33_6 1_555 1_555
C35_7 O8_3 1_555 1_555
O4_8 C21_8 1_555 1_555
O5_8 C21_8 1_555 1_555
C20_8 C21_8 1_555 1_555
C22_8 C19_7 1_555 1_555
H12_7 C22_8 1_555 1_555
H13_8 C23_8 1_555 1_555
H14_7 C24_7 1_555 1_555
Zn4_3 O4_8 1_555 1_555
N4_8 H15_7 1_555 1_555
N8_4 C35_8 1_555 1_555
N6_8 Zn4_3 1_555 1_555
C25_8 N6_8 1_555 1_555
C26_8 N4_8 1_555 1_555
C27_8 C26_8 1_555 1_555
C28_8 N4_8 1_555 1_555
C29_7 C28_8 1_555 1_555
H16_7 C29_7 1_555 1_555
C30_8 C27_8 1_555 1_555
H17_8 C30_8 1_555 1_555
C31_8 C25_8 1_555 1_555
H18_8 C31_8 1_555 1_555
C32_8 C31_8 1_555 1_555
C33_7 C29_7 1_555 1_555
H20_7 C33_7 1_555 1_555
C34_6 C30_8 1_555 1_555
H21_6 C34_6 1_555 1_555
C35_8 C27_8 1_555 1_555
C36_6 N8_4 1_555 1_555
H22_6 C36_6 1_555 1_555
O8_4 Zn4_3 1_555 1_555
C19_7 C24_7 1_555 1_555
C20_8 C22_8 1_555 1_555
C20_8 C23_8 1_555 1_555
N6_8 C26_8 1_555 1_555
C25_8 C28_8 1_555 1_555
C32_8 C33_7 1_555 1_555
C34_6 C36_6 1_555 1_555
C35_8 O8_4 1_555 1_555
H21_7 C34_7 1_555 1_555
H22_7 C36_7 1_555 1_555
C34_7 C36_7 1_555 1_555
H14_8 C24_8 1_555 1_555
C19_8 C24_8 1_555 1_555
H16_8 C29_8 1_555 1_555
C33_8 C29_8 1_555 1_555
H20_8 C33_8 1_555 1_555
C2_8 N1_8 1_555 1_555
C3_8 C2_8 1_555 1_555
C9_8 C3_8 1_555 1_555
H3_8 C9_8 1_555 1_555
C15_7 C9_8 1_555 1_555
H9_7 C15_7 1_555 1_555
C17_8 C3_8 1_555 1_555
H11_7 C18_7 1_555 1_555
C15_7 C18_7 1_555 1_555
H2_8 C6_8 1_555 1_555
C13_8 C6_8 1_555 1_555
H7_8 C13_8 1_555 1_555
H21_8 C34_8 1_555 1_555
H22_8 C36_8 1_555 1_555
C34_8 C36_8 1_555 1_555
H9_8 C15_8 1_555 1_555
H11_8 C18_8 1_555 1_555
C15_8 C18_8 1_555 1_555

#END
