
###############################################################################
#
# This file contains modified crystal structure data generated from the
# MOF subset of the Cambridge Structural Database (CSD) v543 
# hosted by the Cambridge Crystallographic Data Centre (CCDC).
#
# This work is licensed under the Creative Commons
# Attribution-NonCommercial-ShareAlike 4.0 International License.
# To view a copy of this license, visit
# http://creativecommons.org/licenses/by-nc-sa/4.0/
# or send a letter to
# Creative Commons, PO Box 1866, Mountain View, CA 94042, USA.
#
# CIF created using the CSD Python API on 29 September 2022
# The structure has been converted into the P1 space group
# The structure has a 3D framework
# The original CSD entry XINWUO is in the tetragonal crystal system
# The framework has been calculated to contain at least 10.0% void space
# The void calculation uses a probe of radius 1.32A, grid spacing 0.4
#
###############################################################################

data_XINWUO
_chemical_formula_moiety         '(C80 H112 N48 O32 Zn12)n'
_symmetry_cell_setting           triclinic
_symmetry_space_group_name_H-M   'P 1'
_symmetry_Int_Tables_number      1
_space_group_name_Hall           'P 1'
loop_
_symmetry_equiv_pos_site_id
_symmetry_equiv_pos_as_xyz
1 x,y,z
_cell_length_a                   17.6987(9)
_cell_length_b                   17.6987(9)
_cell_length_c                   11.3887(11)
_cell_angle_alpha                90
_cell_angle_beta                 90
_cell_angle_gamma                90
_cell_volume                     3567.44
loop_
_atom_site_label
_atom_site_type_symbol
_atom_site_fract_x
_atom_site_fract_y
_atom_site_fract_z
H6 H 0.5297 0.0652 0.0021
N1 N 0.41826(15) 0.05494(15) 0.5258(2)
N2 N 0.44840(16) 0.06543(16) 0.4154(2)
N3 N 0.34580(16) 0.13531(16) 0.4307(2)
C1 C 0.4156(3) 0.1403(3) 0.2388(4)
H1 H 0.4606 0.1176 0.2074
H2 H 0.4210 0.1943 0.2385
H3 H 0.3730 0.1262 0.1914
C2 C 0.4037(2) 0.1134(2) 0.3619(3)
C3 C 0.35758(18) 0.09707(18) 0.5308(3)
H4 H 0.3262 0.1002 0.5962
C4 C 0.5266(3) 0.1045(3) 0.9442(4)
H5 H 0.5720 0.1340 0.9459
H7 H 0.4840 0.1364 0.9612
C5 C 0.5170(3) 0.0702(3) 0.8254(4)
O1 O 0.46037(17) 0.02990(18) 0.8085(3)
O2 O 0.5638(2) 0.0806(2) 0.7468(3)
Zn2 Zn 0.26187(2) 0.21107(2) 0.40101(3)
Zn3 Zn 0.53893(2) 0.01187(2) 0.34899(3)
Zn1 Zn 0.46107(2) 0.98813(2) 0.65101(3)
N4 N 0.55160(16) 0.93457(16) 0.5846(2)
N5 N 0.38531(16) 0.90420(16) 0.6807(2)
Zn1_2 Zn 0.03893(2) 0.01187(2) 0.15101(3)
N5_2 N 0.11469(16) 0.09580(16) 0.1807(2)
N2_2 N 0.05160(16) 0.93457(16) 0.9154(2)
N3_2 N 0.15420(16) 0.86469(16) 0.9307(2)
C1_2 C 0.0844(3) 0.8597(3) 0.7388(4)
H1_2 H 0.0394 0.8824 0.7074
H2_2 H 0.0790 0.8057 0.7385
H3_2 H 0.1270 0.8738 0.6914
C2_2 C 0.0963(2) 0.8866(2) 0.8619(3)
Zn2_2 Zn 0.23813(2) 0.78893(2) 0.90101(3)
N4_2 N 0.94840(16) 0.06543(16) 0.0846(2)
Zn3_2 Zn 0.96107(2) 0.98813(2) 0.84899(3)
Zn1_3 Zn 0.76187(2) 0.71107(2) 0.90101(3)
N1_2 N 0.69506(15) 0.66826(15) 0.7758(2)
N2_3 N 0.68457(16) 0.69840(16) 0.6654(2)
N3_3 N 0.61469(16) 0.59580(16) 0.6807(2)
C1_3 C 0.6097(3) 0.6656(3) 0.4888(4)
H1_3 H 0.6324 0.7106 0.4574
H2_3 H 0.5557 0.6710 0.4885
H3_3 H 0.6238 0.6230 0.4414
C2_3 C 0.6366(2) 0.6537(2) 0.6119(3)
C3_2 C 0.65293(18) 0.60758(18) 0.7808(3)
H4_2 H 0.6498 0.5762 0.8462
O2_2 O 0.6694(2) 0.8138(2) 0.9968(3)
Zn2_3 Zn 0.53893(2) 0.51187(2) 0.65101(3)
Zn3_3 Zn 0.73813(2) 0.78893(2) 0.59899(3)
N4_3 N 0.81543(16) 0.80160(16) 0.8346(2)
N5_3 N 0.84580(16) 0.63531(16) 0.9307(2)
Zn1_4 Zn 0.73813(2) 0.28893(2) 0.40101(3)
N1_3 N 0.80494(15) 0.33174(15) 0.2758(2)
N2_4 N 0.81543(16) 0.30160(16) 0.1654(2)
N3_4 N 0.88531(16) 0.40420(16) 0.1807(2)
C2_4 C 0.8634(2) 0.3463(2) 0.1119(3)
C3_3 C 0.84707(18) 0.39242(18) 0.2808(3)
H4_3 H 0.8502 0.4238 0.3462
C4_2 C 0.8545(3) 0.2234(3) 0.6942(4)
H5_2 H 0.8840 0.1780 0.6959
H6_2 H 0.8152 0.2203 0.7521
H7_2 H 0.8864 0.2660 0.7112
C5_2 C 0.8202(3) 0.2330(3) 0.5754(4)
O1_2 O 0.77990(18) 0.28963(17) 0.5585(3)
O2_3 O 0.8306(2) 0.1862(2) 0.4968(3)
Zn2_4 Zn 0.96107(2) 0.48813(2) 0.15101(3)
Zn3_4 Zn 0.76187(2) 0.21107(2) 0.09899(3)
N4_4 N 0.68457(16) 0.19840(16) 0.3346(2)
N5_4 N 0.65420(16) 0.36469(16) 0.4307(2)
C4_3 C 0.0266(3) 0.6045(3) 0.4442(4)
H5_3 H 0.0720 0.6340 0.4459
H6_3 H 0.0297 0.5652 0.5021
C5_3 C 0.0170(3) 0.5702(3) 0.3254(4)
O2_4 O 0.0638(2) 0.5806(2) 0.2468(3)
N4_5 N 0.05160(16) 0.43457(16) 0.0846(2)
Zn3_5 Zn 0.03893(2) 0.51187(2) 0.84899(3)
N1_4 N 0.91826(15) 0.55494(15) 0.0258(2)
C3_4 C 0.85758(18) 0.59707(18) 0.0308(3)
H4_4 H 0.8262 0.6002 0.0962
H7_3 H 0.9840 0.6364 0.4612
O1_3 O 0.96037(17) 0.52990(18) 0.3085(3)
N2_5 N 0.94840(16) 0.56543(16) 0.9154(2)
C1_4 C 0.9156(3) 0.6403(3) 0.7388(4)
H1_4 H 0.9606 0.6176 0.7074
H2_4 H 0.9210 0.6943 0.7385
H3_4 H 0.8730 0.6262 0.6914
C2_5 C 0.9037(2) 0.6134(2) 0.8619(3)
N1_5 N 0.58174(15) 0.44506(15) 0.5258(2)
N2_6 N 0.55160(16) 0.43457(16) 0.4154(2)
C1_5 C 0.5844(3) 0.3597(3) 0.2388(4)
H1_5 H 0.5394 0.3824 0.2074
H2_5 H 0.5790 0.3057 0.2385
H3_5 H 0.6270 0.3738 0.1914
C2_6 C 0.5963(2) 0.3866(2) 0.3619(3)
C3_5 C 0.64242(18) 0.40293(18) 0.5308(3)
H4_5 H 0.6738 0.3998 0.5962
C4_4 C 0.4734(3) 0.3955(3) 0.9442(4)
H5_4 H 0.4280 0.3660 0.9459
H7_4 H 0.5160 0.3636 0.9612
C5_4 C 0.4830(3) 0.4298(3) 0.8254(4)
O1_4 O 0.53963(17) 0.47010(18) 0.8085(3)
O2_5 O 0.4362(2) 0.4194(2) 0.7468(3)
Zn3_6 Zn 0.46107(2) 0.48813(2) 0.34899(3)
N4_6 N 0.44840(16) 0.56543(16) 0.5846(2)
N1_6 N 0.19506(15) 0.16826(15) 0.2758(2)
N2_7 N 0.18457(16) 0.19840(16) 0.1654(2)
C2_7 C 0.1366(2) 0.1537(2) 0.1119(3)
C3_6 C 0.15293(18) 0.10758(18) 0.2808(3)
H4_6 H 0.1498 0.0762 0.3462
C4_5 C 0.1455(3) 0.2766(3) 0.6942(4)
H5_5 H 0.1160 0.3220 0.6959
H6_4 H 0.1848 0.2797 0.7521
H7_5 H 0.1136 0.2340 0.7112
C5_5 C 0.1798(3) 0.2670(3) 0.5754(4)
O1_5 O 0.22010(18) 0.21037(17) 0.5585(3)
O2_6 O 0.1694(2) 0.3138(2) 0.4968(3)
Zn3_7 Zn 0.23813(2) 0.28893(2) 0.09899(3)
N4_7 N 0.31543(16) 0.30160(16) 0.3346(2)
N1_7 N 0.30494(15) 0.83174(15) 0.7758(2)
N2_8 N 0.31543(16) 0.80160(16) 0.6654(2)
C1_6 C 0.3903(3) 0.8344(3) 0.4888(4)
H1_6 H 0.3676 0.7894 0.4574
H2_6 H 0.4443 0.8290 0.4885
H3_6 H 0.3762 0.8770 0.4414
C2_8 C 0.3634(2) 0.8463(2) 0.6119(3)
C3_7 C 0.34707(18) 0.89242(18) 0.7808(3)
H4_7 H 0.3502 0.9238 0.8462
O2_7 O 0.3306(2) 0.6862(2) 0.9968(3)
Zn3_8 Zn 0.26187(2) 0.71107(2) 0.59899(3)
N4_8 N 0.18457(16) 0.69840(16) 0.8346(2)
N5_5 N 0.61469(16) 0.09580(16) 0.3193(2)
N1_8 N 0.58174(15) 0.94506(15) 0.4742(2)
N3_5 N 0.65420(16) 0.86469(16) 0.5693(2)
C1_7 C 0.5844(3) 0.8597(3) 0.7612(4)
H1_7 H 0.5394 0.8824 0.7926
H2_7 H 0.5790 0.8057 0.7615
H3_7 H 0.6270 0.8738 0.8086
C2_9 C 0.5963(2) 0.8866(2) 0.6381(3)
C3_8 C 0.64242(18) 0.90293(18) 0.4692(3)
H4_8 H 0.6738 0.8998 0.4038
C4_6 C 0.4734(3) 0.8955(3) 0.0558(4)
H5_6 H 0.4280 0.8660 0.0541
H7_6 H 0.5160 0.8636 0.0388
C5_6 C 0.4830(3) 0.9298(3) 0.1746(4)
O1_6 O 0.53963(17) 0.97010(18) 0.1915(3)
O2_8 O 0.4362(2) 0.9194(2) 0.2532(3)
N3_6 N 0.84580(16) 0.13531(16) 0.0693(2)
C1_8 C 0.9156(3) 0.1403(3) 0.2612(4)
H1_8 H 0.9606 0.1176 0.2926
H2_8 H 0.9210 0.1943 0.2615
H3_8 H 0.8730 0.1262 0.3086
C2_10 C 0.9037(2) 0.1134(2) 0.1381(3)
N5_6 N 0.88531(16) 0.90420(16) 0.8193(2)
N1_9 N 0.30494(15) 0.33174(15) 0.2242(2)
N3_7 N 0.38531(16) 0.40420(16) 0.3193(2)
C1_9 C 0.3903(3) 0.3344(3) 0.5112(4)
H1_9 H 0.3676 0.2894 0.5426
H2_9 H 0.4443 0.3290 0.5115
H3_9 H 0.3762 0.3770 0.5586
C2_11 C 0.3634(2) 0.3463(2) 0.3881(3)
C3_9 C 0.34707(18) 0.39242(18) 0.2192(3)
H4_9 H 0.3502 0.4238 0.1538
O2_9 O 0.3306(2) 0.1862(2) 0.0032(3)
N5_7 N 0.15420(16) 0.36469(16) 0.0693(2)
N1_10 N 0.19506(15) 0.66826(15) 0.7242(2)
N3_8 N 0.11469(16) 0.59580(16) 0.8193(2)
C2_12 C 0.1366(2) 0.6537(2) 0.8881(3)
C3_10 C 0.15293(18) 0.60758(18) 0.7192(3)
H4_10 H 0.1498 0.5762 0.6538
C4_7 C 0.1455(3) 0.7766(3) 0.3058(4)
H5_7 H 0.1160 0.8220 0.3041
H6_5 H 0.1848 0.7797 0.2479
H7_7 H 0.1136 0.7340 0.2888
C5_7 C 0.1798(3) 0.7670(3) 0.4246(4)
O1_7 O 0.22010(18) 0.71037(17) 0.4415(3)
O2_10 O 0.1694(2) 0.8138(2) 0.5032(3)
N5_8 N 0.34580(16) 0.63531(16) 0.5693(2)
C1_10 C 0.0844(3) 0.3597(3) 0.2612(4)
H1_10 H 0.0394 0.3824 0.2926
H2_10 H 0.0790 0.3057 0.2615
H3_10 H 0.1270 0.3738 0.3086
C2_13 C 0.0963(2) 0.3866(2) 0.1381(3)
N1_11 N 0.08174(15) 0.44506(15) 0.9742(2)
C3_11 C 0.14242(18) 0.40293(18) 0.9692(3)
H4_11 H 0.1738 0.3998 0.9038
H7_8 H 0.0160 0.3636 0.5388
O1_8 O 0.03963(17) 0.47010(18) 0.6915(3)
C4_8 C 0.9734(3) 0.3955(3) 0.5558(4)
H5_8 H 0.9280 0.3660 0.5541
H6_6 H 0.9703 0.4348 0.4979
C5_8 C 0.9830(3) 0.4298(3) 0.6746(4)
O2_11 O 0.9362(2) 0.4194(2) 0.7532(3)
N1_12 N 0.41826(15) 0.55494(15) 0.4742(2)
C1_11 C 0.4156(3) 0.6403(3) 0.7612(4)
H1_11 H 0.4606 0.6176 0.7926
H2_11 H 0.4210 0.6943 0.7615
H3_11 H 0.3730 0.6262 0.8086
C2_14 C 0.4037(2) 0.6134(2) 0.6381(3)
C3_12 C 0.35758(18) 0.59707(18) 0.4692(3)
H4_12 H 0.3262 0.6002 0.4038
C4_9 C 0.5266(3) 0.6045(3) 0.0558(4)
H5_9 H 0.5720 0.6340 0.0541
H7_9 H 0.4840 0.6364 0.0388
C5_9 C 0.5170(3) 0.5702(3) 0.1746(4)
O1_9 O 0.46037(17) 0.52990(18) 0.1915(3)
O2_12 O 0.5638(2) 0.5806(2) 0.2532(3)
N1_13 N 0.80494(15) 0.83174(15) 0.7242(2)
C2_15 C 0.8634(2) 0.8463(2) 0.8881(3)
C3_13 C 0.84707(18) 0.89242(18) 0.7192(3)
H4_13 H 0.8502 0.9238 0.6538
C4_10 C 0.8545(3) 0.7234(3) 0.3058(4)
H5_10 H 0.8840 0.6780 0.3041
H6_7 H 0.8152 0.7203 0.2479
H7_10 H 0.8864 0.7660 0.2888
C5_10 C 0.8202(3) 0.7330(3) 0.4246(4)
O1_10 O 0.77990(18) 0.78963(17) 0.4415(3)
O2_13 O 0.8306(2) 0.6862(2) 0.5032(3)
N1_14 N 0.69506(15) 0.16826(15) 0.2242(2)
C1_12 C 0.6097(3) 0.1656(3) 0.5112(4)
H1_12 H 0.6324 0.2106 0.5426
H2_12 H 0.5557 0.1710 0.5115
H3_12 H 0.6238 0.1230 0.5586
C2_16 C 0.6366(2) 0.1537(2) 0.3881(3)
C3_14 C 0.65293(18) 0.10758(18) 0.2192(3)
H4_14 H 0.6498 0.0762 0.1538
O2_14 O 0.6694(2) 0.3138(2) 0.0032(3)
N1_15 N 0.08174(15) 0.94506(15) 0.0258(2)
C3_15 C 0.14242(18) 0.90293(18) 0.0308(3)
H4_15 H 0.1738 0.8998 0.0962
H7_11 H 0.0160 0.8636 0.4612
O1_11 O 0.03963(17) 0.97010(18) 0.3085(3)
C4_11 C 0.9734(3) 0.8955(3) 0.4442(4)
H5_11 H 0.9280 0.8660 0.4459
H6_8 H 0.9703 0.9348 0.5021
C5_11 C 0.9830(3) 0.9298(3) 0.3254(4)
O2_15 O 0.9362(2) 0.9194(2) 0.2468(3)
C4_12 C 0.6455(3) 0.7766(3) 0.1942(4)
H5_12 H 0.6160 0.8220 0.1959
H6_9 H 0.6848 0.7797 0.2521
H7_12 H 0.6136 0.7340 0.2112
C5_12 C 0.6798(3) 0.7670(3) 0.0754(4)
O1_12 O 0.72010(18) 0.71037(17) 0.0585(3)
C1_13 C 0.8903(3) 0.3344(3) 0.9888(4)
H1_13 H 0.8676 0.2894 0.9574
H2_13 H 0.9443 0.3290 0.9885
H3_13 H 0.8762 0.3770 0.9414
H6_10 H 0.4703 0.4348 0.0021
C1_14 C 0.1097(3) 0.1656(3) 0.9888(4)
H1_14 H 0.1324 0.2106 0.9574
H2_14 H 0.0557 0.1710 0.9885
H3_14 H 0.1238 0.1230 0.9414
C4_13 C 0.3545(3) 0.7234(3) 0.1942(4)
H5_13 H 0.3840 0.6780 0.1959
H6_11 H 0.3152 0.7203 0.2521
H7_13 H 0.3864 0.7660 0.2112
C5_13 C 0.3202(3) 0.7330(3) 0.0754(4)
O1_13 O 0.27990(18) 0.78963(17) 0.0585(3)
H6_12 H 0.4703 0.9348 0.9979
C4_14 C 0.0266(3) 0.1045(3) 0.5558(4)
H5_14 H 0.0720 0.1340 0.5541
H6_13 H 0.0297 0.0652 0.4979
C5_14 C 0.0170(3) 0.0702(3) 0.6746(4)
O2_16 O 0.0638(2) 0.0806(2) 0.7532(3)
N1_16 N 0.91826(15) 0.05494(15) 0.9742(2)
C3_16 C 0.85758(18) 0.09707(18) 0.9692(3)
H4_16 H 0.8262 0.1002 0.9038
H7_14 H 0.9840 0.1364 0.5388
O1_14 O 0.96037(17) 0.02990(18) 0.6915(3)
C4_15 C 0.3545(3) 0.2234(3) 0.8058(4)
H5_15 H 0.3840 0.1780 0.8041
H6_14 H 0.3152 0.2203 0.7479
H7_15 H 0.3864 0.2660 0.7888
C5_15 C 0.3202(3) 0.2330(3) 0.9246(4)
O1_15 O 0.27990(18) 0.28963(17) 0.9415(3)
C1_15 C 0.1097(3) 0.6656(3) 0.0112(4)
H1_15 H 0.1324 0.7106 0.0426
H2_15 H 0.0557 0.6710 0.0115
H3_15 H 0.1238 0.6230 0.0586
H6_15 H 0.5297 0.5652 0.9979
C1_16 C 0.8903(3) 0.8344(3) 0.0112(4)
H1_16 H 0.8676 0.7894 0.0426
H2_16 H 0.9443 0.8290 0.0115
H3_16 H 0.8762 0.8770 0.0586
C4_16 C 0.6455(3) 0.2766(3) 0.8058(4)
H5_16 H 0.6160 0.3220 0.8041
H6_16 H 0.6848 0.2797 0.7479
H7_16 H 0.6136 0.2340 0.7888
C5_16 C 0.6798(3) 0.2670(3) 0.9246(4)
O1_16 O 0.72010(18) 0.21037(17) 0.9415(3)
loop_
_geom_bond_atom_site_label_1
_geom_bond_atom_site_label_2
_geom_bond_site_symmetry_1
_geom_bond_site_symmetry_2
N1 N2 1_555 1_555
N2 C2 1_555 1_555
N3 C2 1_555 1_555
C1 H1 1_555 1_555
H2 C1 1_555 1_555
H3 C1 1_555 1_555
C2 C1 1_555 1_555
C3 N1 1_555 1_555
H4 C3 1_555 1_555
C4 H5 1_555 1_555
H7 C4 1_555 1_555
C5 C4 1_555 1_555
O2 C5 1_555 1_555
Zn2 N3 1_555 1_555
Zn3 N2 1_555 1_555
N3 C3 1_555 1_555
C5 O1 1_555 1_555
N4 Zn1 1_555 1_555
N5 Zn1 1_555 1_555
N5_2 Zn1_2 1_555 1_555
N2_2 C2_2 1_555 1_555
N3_2 C2_2 1_555 1_555
C1_2 H1_2 1_555 1_555
H2_2 C1_2 1_555 1_555
H3_2 C1_2 1_555 1_555
C2_2 C1_2 1_555 1_555
Zn2_2 N3_2 1_555 1_555
Zn1_3 N1_2 1_555 1_555
N1_2 N2_3 1_555 1_555
N2_3 C2_3 1_555 1_555
N3_3 C2_3 1_555 1_555
C1_3 H1_3 1_555 1_555
H2_3 C1_3 1_555 1_555
H3_3 C1_3 1_555 1_555
C2_3 C1_3 1_555 1_555
C3_2 N1_2 1_555 1_555
H4_2 C3_2 1_555 1_555
Zn2_3 N3_3 1_555 1_555
Zn3_3 N2_3 1_555 1_555
N4_3 Zn1_3 1_555 1_555
N5_3 Zn1_3 1_555 1_555
N3_3 C3_2 1_555 1_555
Zn1_4 N1_3 1_555 1_555
N1_3 N2_4 1_555 1_555
N2_4 C2_4 1_555 1_555
N3_4 C2_4 1_555 1_555
C3_3 N1_3 1_555 1_555
H4_3 C3_3 1_555 1_555
C4_2 H5_2 1_555 1_555
H6_2 C4_2 1_555 1_555
H7_2 C4_2 1_555 1_555
C5_2 C4_2 1_555 1_555
O1_2 Zn1_4 1_555 1_555
O2_3 C5_2 1_555 1_555
Zn2_4 N3_4 1_555 1_555
Zn3_4 N2_4 1_555 1_555
N4_4 Zn1_4 1_555 1_555
N5_4 Zn1_4 1_555 1_555
N3_4 C3_3 1_555 1_555
C5_2 O1_2 1_555 1_555
C4_3 H5_3 1_555 1_555
H6_3 C4_3 1_555 1_555
C5_3 C4_3 1_555 1_555
O2_4 C5_3 1_555 1_555
Zn2_4 N1_4 1_555 1_555
C3_4 N1_4 1_555 1_555
H4_4 C3_4 1_555 1_555
O1_3 Zn2_4 1_555 1_555
N2_5 C2_5 1_555 1_555
N5_3 C2_5 1_555 1_555
C1_4 H1_4 1_555 1_555
H2_4 C1_4 1_555 1_555
H3_4 C1_4 1_555 1_555
C2_5 C1_4 1_555 1_555
Zn2_3 N1_5 1_555 1_555
N1_5 N2_6 1_555 1_555
N2_6 C2_6 1_555 1_555
N5_4 C2_6 1_555 1_555
C1_5 H1_5 1_555 1_555
H2_5 C1_5 1_555 1_555
H3_5 C1_5 1_555 1_555
C2_6 C1_5 1_555 1_555
C3_5 N1_5 1_555 1_555
H4_5 C3_5 1_555 1_555
C4_4 H5_4 1_555 1_555
H7_4 C4_4 1_555 1_555
C5_4 C4_4 1_555 1_555
O1_4 Zn2_3 1_555 1_555
O2_5 C5_4 1_555 1_555
Zn3_6 N2_6 1_555 1_555
N4_6 Zn2_3 1_555 1_555
N5_4 C3_5 1_555 1_555
C5_4 O1_4 1_555 1_555
Zn2 N1_6 1_555 1_555
N1_6 N2_7 1_555 1_555
N2_7 C2_7 1_555 1_555
N5_2 C2_7 1_555 1_555
C3_6 N1_6 1_555 1_555
H4_6 C3_6 1_555 1_555
C4_5 H5_5 1_555 1_555
H6_4 C4_5 1_555 1_555
H7_5 C4_5 1_555 1_555
C5_5 C4_5 1_555 1_555
O1_5 Zn2 1_555 1_555
O2_6 C5_5 1_555 1_555
Zn3_7 N2_7 1_555 1_555
N4_7 Zn2 1_555 1_555
N5_2 C3_6 1_555 1_555
C5_5 O1_5 1_555 1_555
Zn2_2 N1_7 1_555 1_555
N1_7 N2_8 1_555 1_555
N2_8 C2_8 1_555 1_555
N5 C2_8 1_555 1_555
C1_6 H1_6 1_555 1_555
H2_6 C1_6 1_555 1_555
H3_6 C1_6 1_555 1_555
C2_8 C1_6 1_555 1_555
C3_7 N1_7 1_555 1_555
H4_7 C3_7 1_555 1_555
Zn3_8 N2_8 1_555 1_555
N4_8 Zn2_2 1_555 1_555
N5 C3_7 1_555 1_555
N5_5 Zn3 1_555 1_555
N1_8 N4 1_555 1_555
N4 C2_9 1_555 1_555
N3_5 C2_9 1_555 1_555
C1_7 H1_7 1_555 1_555
H2_7 C1_7 1_555 1_555
H3_7 C1_7 1_555 1_555
C2_9 C1_7 1_555 1_555
C3_8 N1_8 1_555 1_555
H4_8 C3_8 1_555 1_555
C4_6 H5_6 1_555 1_555
H7_6 C4_6 1_555 1_555
C5_6 C4_6 1_555 1_555
O2_8 C5_6 1_555 1_555
Zn3_3 N3_5 1_555 1_555
N3_5 C3_8 1_555 1_555
C5_6 O1_6 1_555 1_555
N4_2 C2_10 1_555 1_555
N3_6 C2_10 1_555 1_555
C1_8 H1_8 1_555 1_555
H2_8 C1_8 1_555 1_555
H3_8 C1_8 1_555 1_555
C2_10 C1_8 1_555 1_555
Zn3_4 N3_6 1_555 1_555
N5_6 Zn3_2 1_555 1_555
Zn3_7 N1_9 1_555 1_555
N1_9 N4_7 1_555 1_555
N4_7 C2_11 1_555 1_555
N3_7 C2_11 1_555 1_555
C1_9 H1_9 1_555 1_555
H2_9 C1_9 1_555 1_555
H3_9 C1_9 1_555 1_555
C2_11 C1_9 1_555 1_555
C3_9 N1_9 1_555 1_555
H4_9 C3_9 1_555 1_555
Zn3_6 N3_7 1_555 1_555
N5_7 Zn3_7 1_555 1_555
N3_7 C3_9 1_555 1_555
Zn3_8 N1_10 1_555 1_555
N1_10 N4_8 1_555 1_555
N4_8 C2_12 1_555 1_555
N3_8 C2_12 1_555 1_555
C3_10 N1_10 1_555 1_555
H4_10 C3_10 1_555 1_555
C4_7 H5_7 1_555 1_555
H6_5 C4_7 1_555 1_555
H7_7 C4_7 1_555 1_555
C5_7 C4_7 1_555 1_555
O1_7 Zn3_8 1_555 1_555
O2_10 C5_7 1_555 1_555
Zn3_5 N3_8 1_555 1_555
N5_8 Zn3_8 1_555 1_555
N3_8 C3_10 1_555 1_555
C5_7 O1_7 1_555 1_555
N4_5 C2_13 1_555 1_555
N5_7 C2_13 1_555 1_555
C1_10 H1_10 1_555 1_555
H2_10 C1_10 1_555 1_555
H3_10 C1_10 1_555 1_555
C2_13 C1_10 1_555 1_555
Zn3_5 N1_11 1_555 1_555
C3_11 N1_11 1_555 1_555
H4_11 C3_11 1_555 1_555
O1_8 Zn3_5 1_555 1_555
C4_8 H5_8 1_555 1_555
H6_6 C4_8 1_555 1_555
C5_8 C4_8 1_555 1_555
O2_11 C5_8 1_555 1_555
Zn3_6 N1_12 1_555 1_555
N1_12 N4_6 1_555 1_555
N4_6 C2_14 1_555 1_555
N5_8 C2_14 1_555 1_555
C1_11 H1_11 1_555 1_555
H2_11 C1_11 1_555 1_555
H3_11 C1_11 1_555 1_555
C2_14 C1_11 1_555 1_555
C3_12 N1_12 1_555 1_555
H4_12 C3_12 1_555 1_555
C4_9 H5_9 1_555 1_555
H7_9 C4_9 1_555 1_555
C5_9 C4_9 1_555 1_555
O1_9 Zn3_6 1_555 1_555
O2_12 C5_9 1_555 1_555
N5_8 C3_12 1_555 1_555
C5_9 O1_9 1_555 1_555
Zn3_3 N1_13 1_555 1_555
N1_13 N4_3 1_555 1_555
N4_3 C2_15 1_555 1_555
N5_6 C2_15 1_555 1_555
C3_13 N1_13 1_555 1_555
H4_13 C3_13 1_555 1_555
C4_10 H5_10 1_555 1_555
H6_7 C4_10 1_555 1_555
H7_10 C4_10 1_555 1_555
C5_10 C4_10 1_555 1_555
O1_10 Zn3_3 1_555 1_555
O2_13 C5_10 1_555 1_555
N5_6 C3_13 1_555 1_555
C5_10 O1_10 1_555 1_555
Zn3_4 N1_14 1_555 1_555
N1_14 N4_4 1_555 1_555
N4_4 C2_16 1_555 1_555
N5_5 C2_16 1_555 1_555
C1_12 H1_12 1_555 1_555
H2_12 C1_12 1_555 1_555
H3_12 C1_12 1_555 1_555
C2_16 C1_12 1_555 1_555
C3_14 N1_14 1_555 1_555
H4_14 C3_14 1_555 1_555
N5_5 C3_14 1_555 1_555
C3_15 N1_15 1_555 1_555
H4_15 C3_15 1_555 1_555
C4_11 H5_11 1_555 1_555
H6_8 C4_11 1_555 1_555
C5_11 C4_11 1_555 1_555
O2_15 C5_11 1_555 1_555
C4_12 H5_12 1_555 1_555
H6_9 C4_12 1_555 1_555
H7_12 C4_12 1_555 1_555
C5_12 C4_12 1_555 1_555
C5_12 O1_12 1_555 1_555
C1_13 H1_13 1_555 1_555
H2_13 C1_13 1_555 1_555
H3_13 C1_13 1_555 1_555
C1_14 H1_14 1_555 1_555
H2_14 C1_14 1_555 1_555
H3_14 C1_14 1_555 1_555
C4_13 H5_13 1_555 1_555
H6_11 C4_13 1_555 1_555
H7_13 C4_13 1_555 1_555
C5_13 C4_13 1_555 1_555
C5_13 O1_13 1_555 1_555
C4_14 H5_14 1_555 1_555
H6_13 C4_14 1_555 1_555
C5_14 C4_14 1_555 1_555
O2_16 C5_14 1_555 1_555
C3_16 N1_16 1_555 1_555
H4_16 C3_16 1_555 1_555
C4_15 H5_15 1_555 1_555
H6_14 C4_15 1_555 1_555
H7_15 C4_15 1_555 1_555
C5_15 C4_15 1_555 1_555
C5_15 O1_15 1_555 1_555
C1_15 H1_15 1_555 1_555
H2_15 C1_15 1_555 1_555
H3_15 C1_15 1_555 1_555
C1_16 H1_16 1_555 1_555
H2_16 C1_16 1_555 1_555
H3_16 C1_16 1_555 1_555
C4_16 H5_16 1_555 1_555
H6_16 C4_16 1_555 1_555
H7_16 C4_16 1_555 1_555
C5_16 C4_16 1_555 1_555
C5_16 O1_16 1_555 1_555

#END
