
###############################################################################
#
# This file contains modified crystal structure data generated from the
# MOF subset of the Cambridge Structural Database (CSD) v543 
# hosted by the Cambridge Crystallographic Data Centre (CCDC).
#
# This work is licensed under the Creative Commons
# Attribution-NonCommercial-ShareAlike 4.0 International License.
# To view a copy of this license, visit
# http://creativecommons.org/licenses/by-nc-sa/4.0/
# or send a letter to
# Creative Commons, PO Box 1866, Mountain View, CA 94042, USA.
#
# CIF created using the CSD Python API on 29 September 2022
# The structure has been converted into the P1 space group
# The structure has a 3D framework
# The original CSD entry XINYAW is in the tetragonal crystal system
# The framework has been calculated to contain at least 10.0% void space
# The void calculation uses a probe of radius 1.32A, grid spacing 0.4
# H atom positions have been added when not included in the experimental data
#
###############################################################################

data_XINYAW
_chemical_formula_moiety         '(C224 H224 Cu14 N48 O48)n'
_symmetry_cell_setting           triclinic
_symmetry_space_group_name_H-M   'P 1'
_symmetry_Int_Tables_number      1
_space_group_name_Hall           'P 1'
loop_
_symmetry_equiv_pos_site_id
_symmetry_equiv_pos_as_xyz
1 x,y,z
_cell_length_a                   20.2203(9)
_cell_length_b                   20.2203(9)
_cell_length_c                   17.4841(13)
_cell_angle_alpha                90
_cell_angle_beta                 90
_cell_angle_gamma                90
_cell_volume                     7148.56
loop_
_atom_site_label
_atom_site_type_symbol
_atom_site_fract_x
_atom_site_fract_y
_atom_site_fract_z
Cu1 Cu 0.5000 0.5000 0.0000
O1 O 0.58701(15) 0.46862(16) 0.03301(17)
O2 O 0.53078(19) 0.3845(2) 0.0806(3)
C1 C 0.7173(2) 0.4578(2) 0.0088(2)
C2 C 0.5833(2) 0.4146(2) 0.0691(3)
C3 C 0.7090(2) 0.4063(2) 0.0709(3)
C4 C 0.6477(2) 0.3866(2) 0.0992(2)
C5 C 0.7657(3) 0.3762(3) 0.0982(3)
H1 H 0.8065 0.3873 0.0774
C6 C 0.6451(3) 0.3395(3) 0.1575(3)
H2 H 0.6045 0.3265 0.1774
C7 C 0.7029(4) 0.3123(4) 0.1855(4)
H3 H 0.7012 0.2816 0.2251
C8 C 0.7626(4) 0.3305(4) 0.1551(4)
H4 H 0.8014 0.3115 0.1735
C9 C 0.6805(2) 0.6796(2) 0.1257(3)
H5 H 0.6757 0.6422 0.1563
C10 C 0.7042(3) 0.7778(2) 0.0858(3)
H6 H 0.7193 0.8212 0.0847
C11 C 0.6750(3) 0.7461(2) 0.0281(3)
C13 C 0.6302(3) 0.6294(2) 0.0087(3)
H10 H 0.6174 0.5944 0.0436
N1 N 0.7083(2) 0.73501(18) 0.1480(2)
N2 N 0.6597(2) 0.68405(18) 0.0527(2)
H13 H 0.7639 0.6093 0.0095
N3 N 0.73095(19) 0.51835(19) 0.0347(2)
H20 H 0.3335 0.2367 0.0203
C26 C 0.3225(3) 0.3984(2) 0.0509(3)
H21 H 0.3117 0.3636 0.0871
H22 H 0.3448 0.4333 0.0789
H24 H 0.4095 0.3548 0.0166
O6 O 0.28382(16) 0.55762(16) 0.05935(16)
C28 C 0.2588(3) 0.4258(3) 0.0177(3)
H25 H 0.2305 0.4400 0.0593
Cu3 Cu 0.7500 0.7500 0.2500
N8 N 0.48501(18) 0.5417(2) 0.1020(2)
H27 H 0.73433 0.525997 0.0919418
Cu1_2 Cu 0.5000 0.5000 1.0000
H7 H 0.6665 0.7633 0.9797
C12 C 0.6775(3) 0.6016(2) 0.9491(3)
H8 H 0.6883 0.6364 0.9129
H9 H 0.6552 0.5667 0.9211
H11 H 0.5905 0.6452 0.9834
O3 O 0.71618(16) 0.44238(16) 0.94065(16)
C14 C 0.7412(3) 0.5742(3) 0.9823(3)
H12 H 0.7695 0.5600 0.9407
O4 O 0.41299(15) 0.53138(16) 0.96699(17)
O5 O 0.46922(19) 0.6155(2) 0.9194(3)
C15 C 0.2827(2) 0.5422(2) 0.9912(2)
C16 C 0.4167(2) 0.5854(2) 0.9309(3)
C17 C 0.2910(2) 0.5937(2) 0.9291(3)
C18 C 0.3523(2) 0.6134(2) 0.9008(2)
C19 C 0.2343(3) 0.6238(3) 0.9018(3)
H14 H 0.1935 0.6127 0.9226
C20 C 0.3549(3) 0.6605(3) 0.8425(3)
H15 H 0.3955 0.6735 0.8226
C21 C 0.2971(4) 0.6877(4) 0.8145(4)
H16 H 0.2988 0.7184 0.7749
C22 C 0.2374(4) 0.6695(4) 0.8449(4)
H17 H 0.1986 0.6885 0.8265
C23 C 0.3195(2) 0.3204(2) 0.8743(3)
H18 H 0.3243 0.3578 0.8437
C24 C 0.2958(3) 0.2222(2) 0.9142(3)
H19 H 0.2807 0.1788 0.9153
C25 C 0.3250(3) 0.2539(2) 0.9719(3)
C27 C 0.3698(3) 0.3706(2) 0.9913(3)
H23 H 0.3826 0.4056 0.9564
N4 N 0.2917(2) 0.26499(18) 0.8520(2)
N5 N 0.3403(2) 0.31595(18) 0.9473(2)
H26 H 0.2361 0.3907 0.9905
N6 N 0.26905(19) 0.48165(19) 0.9653(2)
Cu2 Cu 0.2500 0.2500 0.7500
N7 N 0.51499(18) 0.4583(2) 0.8980(2)
H28 H 0.26567 0.474003 0.908058
Cu1_3 Cu 0.0000 0.5000 0.5000
O4_2 O 0.08701(15) 0.46862(16) 0.46699(17)
O5_2 O 0.03078(19) 0.3845(2) 0.4194(3)
C15_2 C 0.2173(2) 0.4578(2) 0.4912(2)
C16_2 C 0.0833(2) 0.4146(2) 0.4309(3)
C17_2 C 0.2090(2) 0.4063(2) 0.4291(3)
C18_2 C 0.1477(2) 0.3866(2) 0.4008(2)
C19_2 C 0.2657(3) 0.3762(3) 0.4018(3)
H14_2 H 0.3065 0.3873 0.4226
C20_2 C 0.1451(3) 0.3395(3) 0.3425(3)
H15_2 H 0.1045 0.3265 0.3226
C21_2 C 0.2029(4) 0.3123(4) 0.3145(4)
H16_2 H 0.2012 0.2816 0.2749
C22_2 C 0.2626(4) 0.3305(4) 0.3449(4)
H17_2 H 0.3014 0.3115 0.3265
C23_2 C 0.1805(2) 0.6796(2) 0.3743(3)
H18_2 H 0.1757 0.6422 0.3437
C24_2 C 0.2042(3) 0.7778(2) 0.4142(3)
H19_2 H 0.2193 0.8212 0.4153
C25_2 C 0.1750(3) 0.7461(2) 0.4719(3)
H20_2 H 0.1665 0.7633 0.5203
C26_2 C 0.1775(3) 0.6016(2) 0.5509(3)
H21_2 H 0.1883 0.6364 0.5871
H22_2 H 0.1552 0.5667 0.5789
C27_2 C 0.1302(3) 0.6294(2) 0.4913(3)
H23_2 H 0.1174 0.5944 0.4564
H24_2 H 0.0905 0.6452 0.5166
N4_2 N 0.2083(2) 0.73501(18) 0.3520(2)
N5_2 N 0.1597(2) 0.68405(18) 0.4473(2)
O6_2 O 0.21618(16) 0.44238(16) 0.55935(16)
C28_2 C 0.2412(3) 0.5742(3) 0.5177(3)
H25_2 H 0.2695 0.5600 0.5593
H26_2 H 0.2639 0.6093 0.4905
N6_2 N 0.23095(19) 0.51835(19) 0.4653(2)
Cu2_2 Cu 0.2500 0.7500 0.2500
N8_2 N 0.01499(18) 0.4583(2) 0.6020(2)
H28_2 H 0.23433 0.525997 0.408058
Cu1_4 Cu 1.0000 0.5000 0.5000
O1_2 O 0.91299(15) 0.53138(16) 0.53301(17)
O2_2 O 0.96922(19) 0.6155(2) 0.5806(3)
C1_2 C 0.7827(2) 0.5422(2) 0.5088(2)
C2_2 C 0.9167(2) 0.5854(2) 0.5691(3)
C3_2 C 0.7910(2) 0.5937(2) 0.5709(3)
C4_2 C 0.8523(2) 0.6134(2) 0.5992(2)
C5_2 C 0.7343(3) 0.6238(3) 0.5982(3)
H1_2 H 0.6935 0.6127 0.5774
C6_2 C 0.8549(3) 0.6605(3) 0.6575(3)
H2_2 H 0.8955 0.6735 0.6774
C7_2 C 0.7971(4) 0.6877(4) 0.6855(4)
H3_2 H 0.7988 0.7184 0.7251
C8_2 C 0.7374(4) 0.6695(4) 0.6551(4)
H4_2 H 0.6986 0.6885 0.6735
C9_2 C 0.8195(2) 0.3204(2) 0.6257(3)
H5_2 H 0.8243 0.3578 0.6563
C10_2 C 0.7958(3) 0.2222(2) 0.5858(3)
H6_2 H 0.7807 0.1788 0.5847
C11_2 C 0.8250(3) 0.2539(2) 0.5281(3)
H7_2 H 0.8335 0.2367 0.4797
C12_2 C 0.8225(3) 0.3984(2) 0.4491(3)
H8_2 H 0.8117 0.3636 0.4129
H9_2 H 0.8448 0.4333 0.4211
C13_2 C 0.8698(3) 0.3706(2) 0.5087(3)
H10_2 H 0.8826 0.4056 0.5436
H11_2 H 0.9095 0.3548 0.4834
N1_2 N 0.7917(2) 0.26499(18) 0.6480(2)
N2_2 N 0.8403(2) 0.31595(18) 0.5527(2)
O3_2 O 0.78382(16) 0.55762(16) 0.44065(16)
C14_2 C 0.7588(3) 0.4258(3) 0.4823(3)
H12_2 H 0.7305 0.4400 0.4407
H13_2 H 0.7361 0.3907 0.5095
N3_2 N 0.76905(19) 0.48165(19) 0.5347(2)
Cu3_2 Cu 0.7500 0.2500 0.7500
N7_2 N 0.98501(18) 0.5417(2) 0.3980(2)
H27_2 H 0.76567 0.474003 0.591942
C5_3 C 0.3738(3) 0.0157(3) 0.3482(3)
H1_3 H 0.3627 0.0565 0.3274
C8_3 C 0.4195(4) 0.0126(4) 0.4051(4)
H4_3 H 0.4385 0.0514 0.4235
H12_3 H 0.1900 0.0195 0.1907
H13_3 H 0.1407 0.0139 0.2595
Cu3_3 Cu -0.0000 0.0000 0.5000
O1_3 O 0.28138(16) 0.83701(15) 0.28301(17)
O2_3 O 0.3655(2) 0.78078(19) 0.3306(3)
C1_3 C 0.2922(2) 0.9673(2) 0.2588(2)
C2_3 C 0.3354(2) 0.8333(2) 0.3191(3)
C3_3 C 0.3437(2) 0.9590(2) 0.3209(3)
C4_3 C 0.3634(2) 0.8977(2) 0.3492(2)
C6_3 C 0.4105(3) 0.8951(3) 0.4075(3)
H2_3 H 0.4235 0.8545 0.4274
C7_3 C 0.4377(4) 0.9529(4) 0.4355(4)
H3_3 H 0.4684 0.9512 0.4751
C9_3 C 0.0704(2) 0.9305(2) 0.3757(3)
H5_3 H 0.1078 0.9257 0.4063
C11_3 C 0.0039(2) 0.9250(3) 0.2781(3)
C12_3 C 0.1484(2) 0.9275(3) 0.1991(3)
H8_3 H 0.1136 0.9383 0.1629
H9_3 H 0.1833 0.9052 0.1711
C13_3 C 0.1206(2) 0.8802(3) 0.2587(3)
H10_3 H 0.1556 0.8674 0.2936
H11_3 H 0.1048 0.8405 0.2334
N1_3 N 0.01499(18) 0.9583(2) 0.3980(2)
N2_3 N 0.06595(18) 0.9097(2) 0.3027(2)
O3_3 O 0.30762(16) 0.96618(16) 0.19065(16)
C14_3 C 0.1758(3) 0.9912(3) 0.2323(3)
N3_3 N 0.23165(19) 0.98095(19) 0.2847(2)
O4_3 O 0.21862(16) 0.66299(15) 0.21699(17)
O5_3 O 0.1345(2) 0.71922(19) 0.1694(3)
C15_3 C 0.2078(2) 0.5327(2) 0.2412(2)
C16_3 C 0.1646(2) 0.6667(2) 0.1809(3)
C17_3 C 0.1563(2) 0.5410(2) 0.1791(3)
C18_3 C 0.1366(2) 0.6023(2) 0.1508(2)
C19_3 C 0.1262(3) 0.4843(3) 0.1518(3)
H14_3 H 0.1373 0.4435 0.1726
C20_3 C 0.0895(3) 0.6049(3) 0.0925(3)
H15_3 H 0.0765 0.6455 0.0726
C21_3 C 0.0623(4) 0.5471(4) 0.0645(4)
H16_3 H 0.0316 0.5488 0.0249
C22_3 C 0.0805(4) 0.4874(4) 0.0949(4)
H17_3 H 0.0615 0.4486 0.0765
C23_3 C 0.4296(2) 0.5695(2) 0.1243(3)
H18_3 H 0.3922 0.5743 0.0937
C24_3 C 0.5278(2) 0.5458(3) 0.1642(3)
H19_3 H 0.5712 0.5307 0.1653
C25_3 C 0.4961(2) 0.5750(3) 0.2219(3)
H20_3 H 0.5133 0.5835 0.2703
C26_3 C 0.3516(2) 0.5725(3) 0.3009(3)
H21_3 H 0.3864 0.5617 0.3371
H22_3 H 0.3167 0.5948 0.3289
C27_3 C 0.3794(2) 0.6198(3) 0.2413(3)
H23_3 H 0.3444 0.6326 0.2064
H24_3 H 0.3952 0.6595 0.2666
N5_3 N 0.43405(18) 0.5903(2) 0.1973(2)
O6_3 O 0.19238(16) 0.53382(16) 0.30935(16)
C28_3 C 0.3242(3) 0.5088(3) 0.2677(3)
H25_3 H 0.3100 0.4805 0.3093
H26_3 H 0.3593 0.4861 0.2405
N6_3 N 0.26835(19) 0.51905(19) 0.2153(2)
Cu3_4 Cu -0.0000 1.0000 0.5000
N7_3 N 0.2917(2) 0.76499(18) 0.1480(2)
H27_3 H 0.224003 0.98433 0.341942
H28_3 H 0.275997 0.51567 0.158058
Cu3_5 Cu 1.0000 0.0000 0.5000
C10_3 C 0.9722(2) 0.9542(3) 0.3358(3)
H6_3 H 0.9288 0.9693 0.3347
H7_3 H 0.9867 0.9165 0.2297
Cu3_6 Cu 1.0000 1.0000 0.5000
O1_4 O 0.21862(16) 0.16299(15) 0.78301(17)
O2_4 O 0.1345(2) 0.21922(19) 0.8306(3)
C1_4 C 0.2078(2) 0.0327(2) 0.7588(2)
C2_4 C 0.1646(2) 0.1667(2) 0.8191(3)
C3_4 C 0.1563(2) 0.0410(2) 0.8209(3)
C4_4 C 0.1366(2) 0.1023(2) 0.8492(2)
C6_4 C 0.0895(3) 0.1049(3) 0.9075(3)
H2_4 H 0.0765 0.1455 0.9274
C7_4 C 0.0623(4) 0.0471(4) 0.9355(4)
H3_4 H 0.0316 0.0488 0.9751
C9_4 C 0.4296(2) 0.0695(2) 0.8757(3)
H5_4 H 0.3922 0.0743 0.9063
C10_4 C 0.5278(2) 0.0458(3) 0.8358(3)
H6_4 H 0.5712 0.0307 0.8347
C11_4 C 0.4961(2) 0.0750(3) 0.7781(3)
H7_4 H 0.5133 0.0835 0.7297
C12_4 C 0.3516(2) 0.0725(3) 0.6991(3)
H8_4 H 0.3864 0.0617 0.6629
H9_4 H 0.3167 0.0948 0.6711
C13_4 C 0.3794(2) 0.1198(3) 0.7587(3)
H10_4 H 0.3444 0.1326 0.7936
H11_4 H 0.3952 0.1595 0.7334
N1_4 N 0.48501(18) 0.0417(2) 0.8980(2)
N2_4 N 0.43405(18) 0.0903(2) 0.8027(2)
O3_4 O 0.19238(16) 0.03382(16) 0.69065(16)
C14_4 C 0.3242(3) 0.0088(3) 0.7323(3)
N3_4 N 0.26835(19) 0.01905(19) 0.7847(2)
O4_4 O 0.28138(16) 0.33701(15) 0.71699(17)
O5_4 O 0.3655(2) 0.28078(19) 0.6694(3)
C15_4 C 0.2922(2) 0.4673(2) 0.7412(2)
C16_4 C 0.3354(2) 0.3333(2) 0.6809(3)
C17_4 C 0.3437(2) 0.4590(2) 0.6791(3)
C18_4 C 0.3634(2) 0.3977(2) 0.6508(2)
C19_4 C 0.3738(3) 0.5157(3) 0.6518(3)
H14_4 H 0.3627 0.5565 0.6726
C20_4 C 0.4105(3) 0.3951(3) 0.5925(3)
H15_4 H 0.4235 0.3545 0.5726
C21_4 C 0.4377(4) 0.4529(4) 0.5645(4)
H16_4 H 0.4684 0.4512 0.5249
C22_4 C 0.4195(4) 0.5126(4) 0.5949(4)
H17_4 H 0.4385 0.5514 0.5765
C23_4 C 0.0704(2) 0.4305(2) 0.6243(3)
H18_4 H 0.1078 0.4257 0.5937
C25_4 C 0.0039(2) 0.4250(3) 0.7219(3)
C26_4 C 0.1484(2) 0.4275(3) 0.8009(3)
H21_4 H 0.1136 0.4383 0.8371
H22_4 H 0.1833 0.4052 0.8289
C27_4 C 0.1206(2) 0.3802(3) 0.7413(3)
H23_4 H 0.1556 0.3674 0.7064
H24_4 H 0.1048 0.3405 0.7666
N5_4 N 0.06595(18) 0.4097(2) 0.6973(2)
O6_4 O 0.30762(16) 0.46618(16) 0.80935(16)
C28_4 C 0.1758(3) 0.4912(3) 0.7677(3)
H25_4 H 0.1900 0.5195 0.8093
H26_4 H 0.1407 0.5139 0.7405
N6_4 N 0.23165(19) 0.48095(19) 0.7153(2)
Cu3_7 Cu 0.5000 -0.0000 1.0000
N7_4 N 0.2083(2) 0.23501(18) 0.6480(2)
H27_4 H 0.275997 0.0156703 0.841942
H28_4 H 0.224003 0.48433 0.658058
Cu3_8 Cu 0.5000 1.0000 0.0000
C24_4 C 0.9722(2) 0.4542(3) 0.6642(3)
H19_4 H 0.9288 0.4693 0.6653
H20_4 H 0.9867 0.4165 0.7703
C9_5 C 0.1805(2) 0.1796(2) 0.6257(3)
H5_5 H 0.1757 0.1422 0.6563
C10_5 C 0.2042(3) 0.2778(2) 0.5858(3)
H6_5 H 0.2193 0.3212 0.5847
C11_5 C 0.1750(3) 0.2461(2) 0.5281(3)
H7_5 H 0.1665 0.2633 0.4797
C12_5 C 0.1775(3) 0.1016(2) 0.4491(3)
H8_5 H 0.1883 0.1364 0.4129
H9_5 H 0.1552 0.0667 0.4211
C13_5 C 0.1302(3) 0.1294(2) 0.5087(3)
H10_5 H 0.1174 0.0944 0.5436
H11_5 H 0.0905 0.1452 0.4834
N2_5 N 0.1597(2) 0.18405(18) 0.5527(2)
C14_5 C 0.2412(3) 0.0742(3) 0.4823(3)
H12_4 H 0.2695 0.0600 0.4407
H13_4 H 0.2639 0.1093 0.5095
N3_5 N 0.23095(19) 0.01835(19) 0.5347(2)
H27_5 H 0.23433 0.0259973 0.591942
O1_5 O 0.08701(15) 0.96862(16) 0.53301(17)
O2_5 O 0.03078(19) 0.8845(2) 0.5806(3)
C1_5 C 0.2173(2) 0.9578(2) 0.5088(2)
C2_5 C 0.0833(2) 0.9146(2) 0.5691(3)
C3_5 C 0.2090(2) 0.9063(2) 0.5709(3)
C4_5 C 0.1477(2) 0.8866(2) 0.5992(2)
C5_4 C 0.2657(3) 0.8762(3) 0.5982(3)
H1_4 H 0.3065 0.8873 0.5774
C6_5 C 0.1451(3) 0.8395(3) 0.6575(3)
H2_5 H 0.1045 0.8265 0.6774
C7_5 C 0.2029(4) 0.8123(4) 0.6855(4)
H3_5 H 0.2012 0.7816 0.7251
C8_4 C 0.2626(4) 0.8305(4) 0.6551(4)
H4_4 H 0.3014 0.8115 0.6735
O3_5 O 0.21618(16) 0.94238(16) 0.44065(16)
O4_5 O 0.91299(15) 0.03138(16) 0.46699(17)
O5_5 O 0.96922(19) 0.1155(2) 0.4194(3)
C15_5 C 0.7827(2) 0.0422(2) 0.4912(2)
C16_5 C 0.9167(2) 0.0854(2) 0.4309(3)
C17_5 C 0.7910(2) 0.0937(2) 0.4291(3)
C18_5 C 0.8523(2) 0.1134(2) 0.4008(2)
C19_5 C 0.7343(3) 0.1238(3) 0.4018(3)
H14_5 H 0.6935 0.1127 0.4226
C20_5 C 0.8549(3) 0.1605(3) 0.3425(3)
H15_5 H 0.8955 0.1735 0.3226
C21_5 C 0.7971(4) 0.1877(4) 0.3145(4)
H16_5 H 0.7988 0.2184 0.2749
C22_5 C 0.7374(4) 0.1695(4) 0.3449(4)
H17_5 H 0.6986 0.1885 0.3265
O6_5 O 0.78382(16) 0.05762(16) 0.55935(16)
N8_3 N 0.98501(18) 0.0417(2) 0.6020(2)
C23_5 C 0.8195(2) 0.8204(2) 0.3743(3)
H18_5 H 0.8243 0.8578 0.3437
C24_5 C 0.7958(3) 0.7222(2) 0.4142(3)
H19_5 H 0.7807 0.6788 0.4153
C25_5 C 0.8250(3) 0.7539(2) 0.4719(3)
H20_5 H 0.8335 0.7367 0.5203
C26_5 C 0.8225(3) 0.8984(2) 0.5509(3)
H21_5 H 0.8117 0.8636 0.5871
H22_5 H 0.8448 0.9333 0.5789
C27_5 C 0.8698(3) 0.8706(2) 0.4913(3)
H23_5 H 0.8826 0.9056 0.4564
H24_5 H 0.9095 0.8548 0.5166
N4_3 N 0.7917(2) 0.76499(18) 0.3520(2)
N5_5 N 0.8403(2) 0.81595(18) 0.4473(2)
C28_5 C 0.7588(3) 0.9258(3) 0.5177(3)
H25_5 H 0.7305 0.9400 0.5593
H26_5 H 0.7361 0.8907 0.4905
N6_5 N 0.76905(19) 0.98165(19) 0.4653(2)
H28_5 H 0.76567 0.974003 0.408058
O3_6 O 0.28382(16) 0.05762(16) 0.94065(16)
C23_6 C 0.6805(2) 0.1796(2) 0.8743(3)
H18_6 H 0.6757 0.1422 0.8437
C24_6 C 0.7042(3) 0.2778(2) 0.9142(3)
H19_6 H 0.7193 0.3212 0.9153
C25_6 C 0.6750(3) 0.2461(2) 0.9719(3)
C27_6 C 0.6302(3) 0.1294(2) 0.9913(3)
H23_6 H 0.6174 0.0944 0.9564
N4_4 N 0.7083(2) 0.23501(18) 0.8520(2)
N5_6 N 0.6597(2) 0.18405(18) 0.9473(2)
H26_6 H 0.7639 0.1093 0.9905
N6_6 N 0.73095(19) 0.01835(19) 0.9653(2)
H28_6 H 0.73433 0.0259973 0.908058
C9_6 C 0.3195(2) 0.8204(2) 0.1257(3)
H5_6 H 0.3243 0.8578 0.1563
C10_6 C 0.2958(3) 0.7222(2) 0.0858(3)
H6_6 H 0.2807 0.6788 0.0847
C11_6 C 0.3250(3) 0.7539(2) 0.0281(3)
C13_6 C 0.3698(3) 0.8706(2) 0.0087(3)
H10_6 H 0.3826 0.9056 0.0436
N2_6 N 0.3403(2) 0.81595(18) 0.0527(2)
H13_5 H 0.2361 0.8907 0.0095
N3_6 N 0.26905(19) 0.98165(19) 0.0347(2)
O6_6 O 0.71618(16) 0.94238(16) 0.05935(16)
N8_4 N 0.51499(18) 0.9583(2) 0.1020(2)
H27_6 H 0.26567 0.974003 0.0919418
C24_7 C 0.0278(2) 0.0458(3) 0.6642(3)
H19_7 H 0.0712 0.0307 0.6653
H20_6 H 0.0133 0.0835 0.7703
O1_6 O 0.78138(16) 0.33701(15) 0.78301(17)
O2_6 O 0.8655(2) 0.28078(19) 0.8306(3)
C1_6 C 0.7922(2) 0.4673(2) 0.7588(2)
C2_6 C 0.8354(2) 0.3333(2) 0.8191(3)
C3_6 C 0.8437(2) 0.4590(2) 0.8209(3)
C4_6 C 0.8634(2) 0.3977(2) 0.8492(2)
C5_5 C 0.8738(3) 0.5157(3) 0.8482(3)
H1_5 H 0.8627 0.5565 0.8274
C6_6 C 0.9105(3) 0.3951(3) 0.9075(3)
H2_6 H 0.9235 0.3545 0.9274
C7_6 C 0.9377(4) 0.4529(4) 0.9355(4)
H3_6 H 0.9684 0.4512 0.9751
C8_5 C 0.9195(4) 0.5126(4) 0.9051(4)
H4_5 H 0.9385 0.5514 0.9235
C9_7 C 0.5704(2) 0.4305(2) 0.8757(3)
H5_7 H 0.6078 0.4257 0.9063
C10_7 C 0.4722(2) 0.4542(3) 0.8358(3)
H6_7 H 0.4288 0.4693 0.8347
C11_7 C 0.5039(2) 0.4250(3) 0.7781(3)
H7_6 H 0.4867 0.4165 0.7297
C12_6 C 0.6484(2) 0.4275(3) 0.6991(3)
H8_6 H 0.6136 0.4383 0.6629
H9_6 H 0.6833 0.4052 0.6711
C13_7 C 0.6206(2) 0.3802(3) 0.7587(3)
H10_7 H 0.6556 0.3674 0.7936
H11_6 H 0.6048 0.3405 0.7334
N2_7 N 0.56595(18) 0.4097(2) 0.8027(2)
O3_7 O 0.80762(16) 0.46618(16) 0.69065(16)
C14_6 C 0.6758(3) 0.4912(3) 0.7323(3)
H12_5 H 0.6900 0.5195 0.6907
H13_6 H 0.6407 0.5139 0.7595
N3_7 N 0.73165(19) 0.48095(19) 0.7847(2)
O4_6 O 0.71862(16) 0.16299(15) 0.71699(17)
O5_6 O 0.6345(2) 0.21922(19) 0.6694(3)
C15_6 C 0.7078(2) 0.0327(2) 0.7412(2)
C16_6 C 0.6646(2) 0.1667(2) 0.6809(3)
C17_6 C 0.6563(2) 0.0410(2) 0.6791(3)
C18_6 C 0.6366(2) 0.1023(2) 0.6508(2)
C20_6 C 0.5895(3) 0.1049(3) 0.5925(3)
H15_6 H 0.5765 0.1455 0.5726
C21_6 C 0.5623(4) 0.0471(4) 0.5645(4)
H16_6 H 0.5316 0.0488 0.5249
C23_7 C 0.9296(2) 0.0695(2) 0.6243(3)
H18_7 H 0.8922 0.0743 0.5937
C25_7 C 0.9961(2) 0.0750(3) 0.7219(3)
C26_6 C 0.8516(2) 0.0725(3) 0.8009(3)
H21_6 H 0.8864 0.0617 0.8371
H22_6 H 0.8167 0.0948 0.8289
C27_7 C 0.8794(2) 0.1198(3) 0.7413(3)
H23_7 H 0.8444 0.1326 0.7064
H24_6 H 0.8952 0.1595 0.7666
N5_7 N 0.93405(18) 0.0903(2) 0.6973(2)
O6_7 O 0.69238(16) 0.03382(16) 0.80935(16)
C28_6 C 0.8242(3) 0.0088(3) 0.7677(3)
N6_7 N 0.76835(19) 0.01905(19) 0.7153(2)
H27_7 H 0.724003 0.48433 0.841942
H28_7 H 0.775997 0.0156703 0.658058
C19_6 C 0.6262(3) 0.9843(3) 0.6518(3)
H14_6 H 0.6373 0.9435 0.6726
C22_6 C 0.5805(4) 0.9874(4) 0.5949(4)
H17_6 H 0.5615 0.9486 0.5765
H25_6 H 0.8100 0.9805 0.8093
H26_7 H 0.8593 0.9861 0.7405
C10_8 C 0.0278(2) 0.5458(3) 0.3358(3)
H6_8 H 0.0712 0.5307 0.3347
H7_7 H 0.0133 0.5835 0.2297
O1_7 O 0.71862(16) 0.66299(15) 0.28301(17)
O2_7 O 0.6345(2) 0.71922(19) 0.3306(3)
C1_7 C 0.7078(2) 0.5327(2) 0.2588(2)
C2_7 C 0.6646(2) 0.6667(2) 0.3191(3)
C3_7 C 0.6563(2) 0.5410(2) 0.3209(3)
C4_7 C 0.6366(2) 0.6023(2) 0.3492(2)
C5_6 C 0.6262(3) 0.4843(3) 0.3482(3)
H1_6 H 0.6373 0.4435 0.3274
C6_7 C 0.5895(3) 0.6049(3) 0.4075(3)
H2_7 H 0.5765 0.6455 0.4274
C7_7 C 0.5623(4) 0.5471(4) 0.4355(4)
H3_7 H 0.5316 0.5488 0.4751
C8_6 C 0.5805(4) 0.4874(4) 0.4051(4)
H4_6 H 0.5615 0.4486 0.4235
C9_8 C 0.9296(2) 0.5695(2) 0.3757(3)
H5_8 H 0.8922 0.5743 0.4063
C11_8 C 0.9961(2) 0.5750(3) 0.2781(3)
C12_7 C 0.8516(2) 0.5725(3) 0.1991(3)
H8_7 H 0.8864 0.5617 0.1629
H9_7 H 0.8167 0.5948 0.1711
C13_8 C 0.8794(2) 0.6198(3) 0.2587(3)
H10_8 H 0.8444 0.6326 0.2936
H11_7 H 0.8952 0.6595 0.2334
N2_8 N 0.93405(18) 0.5903(2) 0.3027(2)
O3_8 O 0.69238(16) 0.53382(16) 0.19065(16)
C14_7 C 0.8242(3) 0.5088(3) 0.2323(3)
H12_6 H 0.8100 0.4805 0.1907
H13_7 H 0.8593 0.4861 0.2595
N3_8 N 0.76835(19) 0.51905(19) 0.2847(2)
O4_7 O 0.78138(16) 0.83701(15) 0.21699(17)
O5_7 O 0.8655(2) 0.78078(19) 0.1694(3)
C15_7 C 0.7922(2) 0.9673(2) 0.2412(2)
C16_7 C 0.8354(2) 0.8333(2) 0.1809(3)
C17_7 C 0.8437(2) 0.9590(2) 0.1791(3)
C18_7 C 0.8634(2) 0.8977(2) 0.1508(2)
C20_7 C 0.9105(3) 0.8951(3) 0.0925(3)
H15_7 H 0.9235 0.8545 0.0726
C21_7 C 0.9377(4) 0.9529(4) 0.0645(4)
H16_7 H 0.9684 0.9512 0.0249
C23_8 C 0.5704(2) 0.9305(2) 0.1243(3)
H18_8 H 0.6078 0.9257 0.0937
C24_8 C 0.4722(2) 0.9542(3) 0.1642(3)
H19_8 H 0.4288 0.9693 0.1653
C25_8 C 0.5039(2) 0.9250(3) 0.2219(3)
H20_7 H 0.4867 0.9165 0.2703
C26_7 C 0.6484(2) 0.9275(3) 0.3009(3)
H21_7 H 0.6136 0.9383 0.3371
H22_7 H 0.6833 0.9052 0.3289
C27_8 C 0.6206(2) 0.8802(3) 0.2413(3)
H23_8 H 0.6556 0.8674 0.2064
H24_7 H 0.6048 0.8405 0.2666
N5_8 N 0.56595(18) 0.9097(2) 0.1973(2)
O6_8 O 0.80762(16) 0.96618(16) 0.30935(16)
C28_7 C 0.6758(3) 0.9912(3) 0.2677(3)
N6_8 N 0.73165(19) 0.98095(19) 0.2153(2)
H27_8 H 0.775997 0.51567 0.341942
H28_8 H 0.724003 0.98433 0.158058
Cu3_9 Cu 0.5000 -0.0000 0.0000
O1_8 O 0.41299(15) 0.03138(16) 0.03301(17)
O2_8 O 0.46922(19) 0.1155(2) 0.0806(3)
C1_8 C 0.2827(2) 0.0422(2) 0.0088(2)
C2_8 C 0.4167(2) 0.0854(2) 0.0691(3)
C3_8 C 0.2910(2) 0.0937(2) 0.0709(3)
C4_8 C 0.3523(2) 0.1134(2) 0.0992(2)
C5_7 C 0.2343(3) 0.1238(3) 0.0982(3)
H1_7 H 0.1935 0.1127 0.0774
C6_8 C 0.3549(3) 0.1605(3) 0.1575(3)
H2_8 H 0.3955 0.1735 0.1774
C7_8 C 0.2971(4) 0.1877(4) 0.1855(4)
H3_8 H 0.2988 0.2184 0.2251
C8_7 C 0.2374(4) 0.1695(4) 0.1551(4)
H4_7 H 0.1986 0.1885 0.1735
H20_8 H 0.6665 0.2633 0.0203
C26_8 C 0.6775(3) 0.1016(2) 0.0509(3)
H21_8 H 0.6883 0.1364 0.0871
H22_8 H 0.6552 0.0667 0.0789
H24_8 H 0.5905 0.1452 0.0166
C28_8 C 0.7412(3) 0.0742(3) 0.0177(3)
H25_7 H 0.7695 0.0600 0.0593
C19_7 C 0.8738(3) 0.0157(3) 0.1518(3)
H14_7 H 0.8627 0.0565 0.1726
C22_7 C 0.9195(4) 0.0126(4) 0.0949(4)
H17_7 H 0.9385 0.0514 0.0765
H25_8 H 0.6900 0.0195 0.3093
H26_8 H 0.6407 0.0139 0.2405
C5_8 C 0.1262(3) 0.9843(3) 0.8482(3)
H1_8 H 0.1373 0.9435 0.8274
C8_8 C 0.0805(4) 0.9874(4) 0.9051(4)
H4_8 H 0.0615 0.9486 0.9235
H12_7 H 0.3100 0.9805 0.6907
H13_8 H 0.3593 0.9861 0.7595
Cu3_10 Cu 0.5000 1.0000 1.0000
H7_8 H 0.3335 0.7367 0.9797
C12_8 C 0.3225(3) 0.8984(2) 0.9491(3)
H8_8 H 0.3117 0.8636 0.9129
H9_8 H 0.3448 0.9333 0.9211
H11_8 H 0.4095 0.8548 0.9834
C14_8 C 0.2588(3) 0.9258(3) 0.9823(3)
H12_8 H 0.2305 0.9400 0.9407
O4_8 O 0.58701(15) 0.96862(16) 0.96699(17)
O5_8 O 0.53078(19) 0.8845(2) 0.9194(3)
C15_8 C 0.7173(2) 0.9578(2) 0.9912(2)
C16_8 C 0.5833(2) 0.9146(2) 0.9309(3)
C17_8 C 0.7090(2) 0.9063(2) 0.9291(3)
C18_8 C 0.6477(2) 0.8866(2) 0.9008(2)
C19_8 C 0.7657(3) 0.8762(3) 0.9018(3)
H14_8 H 0.8065 0.8873 0.9226
C20_8 C 0.6451(3) 0.8395(3) 0.8425(3)
H15_8 H 0.6045 0.8265 0.8226
C21_8 C 0.7029(4) 0.8123(4) 0.8145(4)
H16_8 H 0.7012 0.7816 0.7749
C22_8 C 0.7626(4) 0.8305(4) 0.8449(4)
H17_8 H 0.8014 0.8115 0.8265
loop_
_geom_bond_atom_site_label_1
_geom_bond_atom_site_label_2
_geom_bond_site_symmetry_1
_geom_bond_site_symmetry_2
Cu1 O1 1_555 1_555
O1 C2 1_555 1_555
O2 Cu1 1_555 1_555
C1 C3 1_555 1_555
C2 O2 1_555 1_555
C3 C4 1_555 1_555
C4 C2 1_555 1_555
C5 C3 1_555 1_555
H1 C5 1_555 1_555
C6 C4 1_555 1_555
H2 C6 1_555 1_555
C7 C6 1_555 1_555
H3 C7 1_555 1_555
C8 C5 1_555 1_555
H4 C8 1_555 1_555
C9 H5 1_555 1_555
C10 H6 1_555 1_555
C11 C10 1_555 1_555
H10 C13 1_555 1_555
N1 C9 1_555 1_555
N2 C9 1_555 1_555
N3 C1 1_555 1_555
C26 H21 1_555 1_555
H22 C26 1_555 1_555
C28 C26 1_555 1_555
H25 C28 1_555 1_555
Cu3 N1 1_555 1_555
N8 Cu1 1_555 1_555
C7 C8 1_555 1_555
C10 N1 1_555 1_555
C11 N2 1_555 1_555
C13 N2 1_555 1_555
N3 H27 1_555 1_555
C12 H8 1_555 1_555
H9 C12 1_555 1_555
C14 C12 1_555 1_555
H12 C14 1_555 1_555
O4 Cu1_2 1_555 1_555
O5 Cu1_2 1_555 1_555
C15 C17 1_555 1_555
C16 O4 1_555 1_555
C17 C18 1_555 1_555
C18 C16 1_555 1_555
C19 C17 1_555 1_555
H14 C19 1_555 1_555
C20 C18 1_555 1_555
H15 C20 1_555 1_555
C21 C20 1_555 1_555
H16 C21 1_555 1_555
C22 C19 1_555 1_555
H17 C22 1_555 1_555
C23 H18 1_555 1_555
C24 H19 1_555 1_555
C25 C24 1_555 1_555
H23 C27 1_555 1_555
N4 C23 1_555 1_555
N5 C23 1_555 1_555
N6 C15 1_555 1_555
Cu2 N4 1_555 1_555
N7 Cu1_2 1_555 1_555
O5 C16 1_555 1_555
C21 C22 1_555 1_555
C24 N4 1_555 1_555
C25 N5 1_555 1_555
C27 N5 1_555 1_555
N6 H28 1_555 1_555
O4_2 Cu1_3 1_555 1_555
O5_2 Cu1_3 1_555 1_555
C15_2 C17_2 1_555 1_555
C16_2 O4_2 1_555 1_555
C17_2 C18_2 1_555 1_555
C18_2 C16_2 1_555 1_555
C19_2 C17_2 1_555 1_555
H14_2 C19_2 1_555 1_555
C20_2 C18_2 1_555 1_555
H15_2 C20_2 1_555 1_555
C21_2 C20_2 1_555 1_555
H16_2 C21_2 1_555 1_555
C22_2 C19_2 1_555 1_555
H17_2 C22_2 1_555 1_555
C23_2 H18_2 1_555 1_555
C24_2 H19_2 1_555 1_555
C25_2 C24_2 1_555 1_555
H20_2 C25_2 1_555 1_555
C26_2 H21_2 1_555 1_555
H22_2 C26_2 1_555 1_555
C27_2 C26_2 1_555 1_555
H23_2 C27_2 1_555 1_555
H24_2 C27_2 1_555 1_555
N4_2 C23_2 1_555 1_555
N5_2 C23_2 1_555 1_555
O6_2 C15_2 1_555 1_555
C28_2 C26_2 1_555 1_555
H25_2 C28_2 1_555 1_555
H26_2 C28_2 1_555 1_555
N6_2 C15_2 1_555 1_555
Cu2_2 N4_2 1_555 1_555
N8_2 Cu1_3 1_555 1_555
O5_2 C16_2 1_555 1_555
C21_2 C22_2 1_555 1_555
C24_2 N4_2 1_555 1_555
C25_2 N5_2 1_555 1_555
C27_2 N5_2 1_555 1_555
C28_2 N6_2 1_555 1_555
N6_2 H28_2 1_555 1_555
Cu1_4 O1_2 1_555 1_555
O1_2 C2_2 1_555 1_555
O2_2 Cu1_4 1_555 1_555
C1_2 C3_2 1_555 1_555
C2_2 O2_2 1_555 1_555
C3_2 C4_2 1_555 1_555
C4_2 C2_2 1_555 1_555
C5_2 C3_2 1_555 1_555
H1_2 C5_2 1_555 1_555
C6_2 C4_2 1_555 1_555
H2_2 C6_2 1_555 1_555
C7_2 C6_2 1_555 1_555
H3_2 C7_2 1_555 1_555
C8_2 C5_2 1_555 1_555
H4_2 C8_2 1_555 1_555
C9_2 H5_2 1_555 1_555
C10_2 H6_2 1_555 1_555
C11_2 C10_2 1_555 1_555
H7_2 C11_2 1_555 1_555
C12_2 H8_2 1_555 1_555
H9_2 C12_2 1_555 1_555
C13_2 C12_2 1_555 1_555
H10_2 C13_2 1_555 1_555
H11_2 C13_2 1_555 1_555
N1_2 C9_2 1_555 1_555
N2_2 C9_2 1_555 1_555
O3_2 C1_2 1_555 1_555
C14_2 C12_2 1_555 1_555
H12_2 C14_2 1_555 1_555
H13_2 C14_2 1_555 1_555
N3_2 C1_2 1_555 1_555
Cu3_2 N1_2 1_555 1_555
N7_2 Cu1_4 1_555 1_555
C7_2 C8_2 1_555 1_555
C10_2 N1_2 1_555 1_555
C11_2 N2_2 1_555 1_555
C13_2 N2_2 1_555 1_555
C14_2 N3_2 1_555 1_555
N3_2 H27_2 1_555 1_555
H1_3 C5_3 1_555 1_555
C8_3 C5_3 1_555 1_555
H4_3 C8_3 1_555 1_555
Cu2_2 O1_3 1_555 1_555
O1_3 C2_3 1_555 1_555
O2_3 Cu2_2 1_555 1_555
C1_3 C3_3 1_555 1_555
C2_3 O2_3 1_555 1_555
C3_3 C4_3 1_555 1_555
C4_3 C2_3 1_555 1_555
C6_3 C4_3 1_555 1_555
H2_3 C6_3 1_555 1_555
C7_3 C6_3 1_555 1_555
H3_3 C7_3 1_555 1_555
C9_3 H5_3 1_555 1_555
C12_3 H8_3 1_555 1_555
H9_3 C12_3 1_555 1_555
C13_3 C12_3 1_555 1_555
H10_3 C13_3 1_555 1_555
H11_3 C13_3 1_555 1_555
N1_3 C9_3 1_555 1_555
N2_3 C9_3 1_555 1_555
O3_3 C1_3 1_555 1_555
C14_3 C12_3 1_555 1_555
N3_3 C1_3 1_555 1_555
O4_3 Cu2_2 1_555 1_555
O5_3 Cu2_2 1_555 1_555
C15_3 C17_3 1_555 1_555
C16_3 O4_3 1_555 1_555
C17_3 C18_3 1_555 1_555
C18_3 C16_3 1_555 1_555
C19_3 C17_3 1_555 1_555
H14_3 C19_3 1_555 1_555
C20_3 C18_3 1_555 1_555
H15_3 C20_3 1_555 1_555
C21_3 C20_3 1_555 1_555
H16_3 C21_3 1_555 1_555
C22_3 C19_3 1_555 1_555
H17_3 C22_3 1_555 1_555
C23_3 H18_3 1_555 1_555
C24_3 H19_3 1_555 1_555
C25_3 C24_3 1_555 1_555
H20_3 C25_3 1_555 1_555
C26_3 H21_3 1_555 1_555
H22_3 C26_3 1_555 1_555
C27_3 C26_3 1_555 1_555
H23_3 C27_3 1_555 1_555
H24_3 C27_3 1_555 1_555
N8 C23_3 1_555 1_555
N5_3 C23_3 1_555 1_555
O6_3 C15_3 1_555 1_555
C28_3 C26_3 1_555 1_555
H25_3 C28_3 1_555 1_555
H26_3 C28_3 1_555 1_555
N6_3 C15_3 1_555 1_555
Cu3_4 N1_3 1_555 1_555
N7_3 Cu2_2 1_555 1_555
C11_3 N2_3 1_555 1_555
C13_3 N2_3 1_555 1_555
C14_3 N3_3 1_555 1_555
O5_3 C16_3 1_555 1_555
C21_3 C22_3 1_555 1_555
C24_3 N8 1_555 1_555
C25_3 N5_3 1_555 1_555
C27_3 N5_3 1_555 1_555
C28_3 N6_3 1_555 1_555
N3_3 H27_3 1_555 1_555
N6_3 H28_3 1_555 1_555
C10_3 H6_3 1_555 1_555
Cu2 O1_4 1_555 1_555
O1_4 C2_4 1_555 1_555
O2_4 Cu2 1_555 1_555
C1_4 C3_4 1_555 1_555
C2_4 O2_4 1_555 1_555
C3_4 C4_4 1_555 1_555
C4_4 C2_4 1_555 1_555
C6_4 C4_4 1_555 1_555
H2_4 C6_4 1_555 1_555
C7_4 C6_4 1_555 1_555
H3_4 C7_4 1_555 1_555
C9_4 H5_4 1_555 1_555
C10_4 H6_4 1_555 1_555
C11_4 C10_4 1_555 1_555
H7_4 C11_4 1_555 1_555
C12_4 H8_4 1_555 1_555
H9_4 C12_4 1_555 1_555
C13_4 C12_4 1_555 1_555
H10_4 C13_4 1_555 1_555
H11_4 C13_4 1_555 1_555
N1_4 C9_4 1_555 1_555
N2_4 C9_4 1_555 1_555
O3_4 C1_4 1_555 1_555
C14_4 C12_4 1_555 1_555
N3_4 C1_4 1_555 1_555
O4_4 Cu2 1_555 1_555
O5_4 Cu2 1_555 1_555
C15_4 C17_4 1_555 1_555
C16_4 O4_4 1_555 1_555
C17_4 C18_4 1_555 1_555
C18_4 C16_4 1_555 1_555
C19_4 C17_4 1_555 1_555
H14_4 C19_4 1_555 1_555
C20_4 C18_4 1_555 1_555
H15_4 C20_4 1_555 1_555
C21_4 C20_4 1_555 1_555
H16_4 C21_4 1_555 1_555
C22_4 C19_4 1_555 1_555
H17_4 C22_4 1_555 1_555
C23_4 H18_4 1_555 1_555
C26_4 H21_4 1_555 1_555
H22_4 C26_4 1_555 1_555
C27_4 C26_4 1_555 1_555
H23_4 C27_4 1_555 1_555
H24_4 C27_4 1_555 1_555
N8_2 C23_4 1_555 1_555
N5_4 C23_4 1_555 1_555
O6_4 C15_4 1_555 1_555
C28_4 C26_4 1_555 1_555
H25_4 C28_4 1_555 1_555
H26_4 C28_4 1_555 1_555
N6_4 C15_4 1_555 1_555
Cu3_7 N1_4 1_555 1_555
N7_4 Cu2 1_555 1_555
C10_4 N1_4 1_555 1_555
C11_4 N2_4 1_555 1_555
C13_4 N2_4 1_555 1_555
C14_4 N3_4 1_555 1_555
O5_4 C16_4 1_555 1_555
C21_4 C22_4 1_555 1_555
C25_4 N5_4 1_555 1_555
C27_4 N5_4 1_555 1_555
C28_4 N6_4 1_555 1_555
N3_4 H27_4 1_555 1_555
N6_4 H28_4 1_555 1_555
C24_4 H19_4 1_555 1_555
C9_5 H5_5 1_555 1_555
C10_5 H6_5 1_555 1_555
C11_5 C10_5 1_555 1_555
H7_5 C11_5 1_555 1_555
C12_5 H8_5 1_555 1_555
H9_5 C12_5 1_555 1_555
C13_5 C12_5 1_555 1_555
H10_5 C13_5 1_555 1_555
H11_5 C13_5 1_555 1_555
N7_4 C9_5 1_555 1_555
N2_5 C9_5 1_555 1_555
C14_5 C12_5 1_555 1_555
H12_4 C14_5 1_555 1_555
H13_4 C14_5 1_555 1_555
C10_5 N7_4 1_555 1_555
C11_5 N2_5 1_555 1_555
C13_5 N2_5 1_555 1_555
C14_5 N3_5 1_555 1_555
N3_5 H27_5 1_555 1_555
Cu3_4 O1_5 1_555 1_555
O1_5 C2_5 1_555 1_555
O2_5 Cu3_4 1_555 1_555
C1_5 C3_5 1_555 1_555
C2_5 O2_5 1_555 1_555
C3_5 C4_5 1_555 1_555
C4_5 C2_5 1_555 1_555
C5_4 C3_5 1_555 1_555
H1_4 C5_4 1_555 1_555
C6_5 C4_5 1_555 1_555
H2_5 C6_5 1_555 1_555
C7_5 C6_5 1_555 1_555
H3_5 C7_5 1_555 1_555
C8_4 C5_4 1_555 1_555
H4_4 C8_4 1_555 1_555
O3_5 C1_5 1_555 1_555
C7_5 C8_4 1_555 1_555
O4_5 Cu3_5 1_555 1_555
O5_5 Cu3_5 1_555 1_555
C15_5 C17_5 1_555 1_555
C16_5 O4_5 1_555 1_555
C17_5 C18_5 1_555 1_555
C18_5 C16_5 1_555 1_555
C19_5 C17_5 1_555 1_555
H14_5 C19_5 1_555 1_555
C20_5 C18_5 1_555 1_555
H15_5 C20_5 1_555 1_555
C21_5 C20_5 1_555 1_555
H16_5 C21_5 1_555 1_555
C22_5 C19_5 1_555 1_555
H17_5 C22_5 1_555 1_555
O6_5 C15_5 1_555 1_555
N8_3 Cu3_5 1_555 1_555
O5_5 C16_5 1_555 1_555
C21_5 C22_5 1_555 1_555
C23_5 H18_5 1_555 1_555
C24_5 H19_5 1_555 1_555
C25_5 C24_5 1_555 1_555
H20_5 C25_5 1_555 1_555
C26_5 H21_5 1_555 1_555
H22_5 C26_5 1_555 1_555
C27_5 C26_5 1_555 1_555
H23_5 C27_5 1_555 1_555
H24_5 C27_5 1_555 1_555
N4_3 C23_5 1_555 1_555
N5_5 C23_5 1_555 1_555
C28_5 C26_5 1_555 1_555
H25_5 C28_5 1_555 1_555
H26_5 C28_5 1_555 1_555
Cu3 N4_3 1_555 1_555
C24_5 N4_3 1_555 1_555
C25_5 N5_5 1_555 1_555
C27_5 N5_5 1_555 1_555
C28_5 N6_5 1_555 1_555
N6_5 H28_5 1_555 1_555
C23_6 H18_6 1_555 1_555
C24_6 H19_6 1_555 1_555
C25_6 C24_6 1_555 1_555
H23_6 C27_6 1_555 1_555
N4_4 C23_6 1_555 1_555
N5_6 C23_6 1_555 1_555
Cu3_2 N4_4 1_555 1_555
C24_6 N4_4 1_555 1_555
C25_6 N5_6 1_555 1_555
C27_6 N5_6 1_555 1_555
N6_6 H28_6 1_555 1_555
C9_6 H5_6 1_555 1_555
C10_6 H6_6 1_555 1_555
C11_6 C10_6 1_555 1_555
H10_6 C13_6 1_555 1_555
N7_3 C9_6 1_555 1_555
N2_6 C9_6 1_555 1_555
N8_4 Cu3_8 1_555 1_555
C10_6 N7_3 1_555 1_555
C11_6 N2_6 1_555 1_555
C13_6 N2_6 1_555 1_555
N3_6 H27_6 1_555 1_555
C24_7 H19_7 1_555 1_555
Cu3_2 O1_6 1_555 1_555
O1_6 C2_6 1_555 1_555
O2_6 Cu3_2 1_555 1_555
C1_6 C3_6 1_555 1_555
C2_6 O2_6 1_555 1_555
C3_6 C4_6 1_555 1_555
C4_6 C2_6 1_555 1_555
C5_5 C3_6 1_555 1_555
H1_5 C5_5 1_555 1_555
C6_6 C4_6 1_555 1_555
H2_6 C6_6 1_555 1_555
C7_6 C6_6 1_555 1_555
H3_6 C7_6 1_555 1_555
C8_5 C5_5 1_555 1_555
H4_5 C8_5 1_555 1_555
C9_7 H5_7 1_555 1_555
C10_7 H6_7 1_555 1_555
C11_7 C10_7 1_555 1_555
H7_6 C11_7 1_555 1_555
C12_6 H8_6 1_555 1_555
H9_6 C12_6 1_555 1_555
C13_7 C12_6 1_555 1_555
H10_7 C13_7 1_555 1_555
H11_6 C13_7 1_555 1_555
N7 C9_7 1_555 1_555
N2_7 C9_7 1_555 1_555
O3_7 C1_6 1_555 1_555
C14_6 C12_6 1_555 1_555
H12_5 C14_6 1_555 1_555
H13_6 C14_6 1_555 1_555
N3_7 C1_6 1_555 1_555
O4_6 Cu3_2 1_555 1_555
O5_6 Cu3_2 1_555 1_555
C15_6 C17_6 1_555 1_555
C16_6 O4_6 1_555 1_555
C17_6 C18_6 1_555 1_555
C18_6 C16_6 1_555 1_555
C20_6 C18_6 1_555 1_555
H15_6 C20_6 1_555 1_555
C21_6 C20_6 1_555 1_555
H16_6 C21_6 1_555 1_555
C23_7 H18_7 1_555 1_555
C26_6 H21_6 1_555 1_555
H22_6 C26_6 1_555 1_555
C27_7 C26_6 1_555 1_555
H23_7 C27_7 1_555 1_555
H24_6 C27_7 1_555 1_555
N8_3 C23_7 1_555 1_555
N5_7 C23_7 1_555 1_555
O6_7 C15_6 1_555 1_555
C28_6 C26_6 1_555 1_555
N6_7 C15_6 1_555 1_555
C7_6 C8_5 1_555 1_555
C10_7 N7 1_555 1_555
C11_7 N2_7 1_555 1_555
C13_7 N2_7 1_555 1_555
C14_6 N3_7 1_555 1_555
O5_6 C16_6 1_555 1_555
C25_7 N5_7 1_555 1_555
C27_7 N5_7 1_555 1_555
C28_6 N6_7 1_555 1_555
N3_7 H27_7 1_555 1_555
N6_7 H28_7 1_555 1_555
H14_6 C19_6 1_555 1_555
C22_6 C19_6 1_555 1_555
H17_6 C22_6 1_555 1_555
C10_8 H6_8 1_555 1_555
Cu3 O1_7 1_555 1_555
O1_7 C2_7 1_555 1_555
O2_7 Cu3 1_555 1_555
C1_7 C3_7 1_555 1_555
C2_7 O2_7 1_555 1_555
C3_7 C4_7 1_555 1_555
C4_7 C2_7 1_555 1_555
C5_6 C3_7 1_555 1_555
H1_6 C5_6 1_555 1_555
C6_7 C4_7 1_555 1_555
H2_7 C6_7 1_555 1_555
C7_7 C6_7 1_555 1_555
H3_7 C7_7 1_555 1_555
C8_6 C5_6 1_555 1_555
H4_6 C8_6 1_555 1_555
C9_8 H5_8 1_555 1_555
C12_7 H8_7 1_555 1_555
H9_7 C12_7 1_555 1_555
C13_8 C12_7 1_555 1_555
H10_8 C13_8 1_555 1_555
H11_7 C13_8 1_555 1_555
N7_2 C9_8 1_555 1_555
N2_8 C9_8 1_555 1_555
O3_8 C1_7 1_555 1_555
C14_7 C12_7 1_555 1_555
H12_6 C14_7 1_555 1_555
H13_7 C14_7 1_555 1_555
N3_8 C1_7 1_555 1_555
O4_7 Cu3 1_555 1_555
O5_7 Cu3 1_555 1_555
C15_7 C17_7 1_555 1_555
C16_7 O4_7 1_555 1_555
C17_7 C18_7 1_555 1_555
C18_7 C16_7 1_555 1_555
C20_7 C18_7 1_555 1_555
H15_7 C20_7 1_555 1_555
C21_7 C20_7 1_555 1_555
H16_7 C21_7 1_555 1_555
C23_8 H18_8 1_555 1_555
C24_8 H19_8 1_555 1_555
C25_8 C24_8 1_555 1_555
H20_7 C25_8 1_555 1_555
C26_7 H21_7 1_555 1_555
H22_7 C26_7 1_555 1_555
C27_8 C26_7 1_555 1_555
H23_8 C27_8 1_555 1_555
H24_7 C27_8 1_555 1_555
N8_4 C23_8 1_555 1_555
N5_8 C23_8 1_555 1_555
O6_8 C15_7 1_555 1_555
C28_7 C26_7 1_555 1_555
N6_8 C15_7 1_555 1_555
C7_7 C8_6 1_555 1_555
C11_8 N2_8 1_555 1_555
C13_8 N2_8 1_555 1_555
C14_7 N3_8 1_555 1_555
O5_7 C16_7 1_555 1_555
C24_8 N8_4 1_555 1_555
C25_8 N5_8 1_555 1_555
C27_8 N5_8 1_555 1_555
C28_7 N6_8 1_555 1_555
N3_8 H27_8 1_555 1_555
N6_8 H28_8 1_555 1_555
Cu3_9 O1_8 1_555 1_555
O1_8 C2_8 1_555 1_555
O2_8 Cu3_9 1_555 1_555
C1_8 C3_8 1_555 1_555
C2_8 O2_8 1_555 1_555
C3_8 C4_8 1_555 1_555
C4_8 C2_8 1_555 1_555
C5_7 C3_8 1_555 1_555
H1_7 C5_7 1_555 1_555
C6_8 C4_8 1_555 1_555
H2_8 C6_8 1_555 1_555
C7_8 C6_8 1_555 1_555
H3_8 C7_8 1_555 1_555
C8_7 C5_7 1_555 1_555
H4_7 C8_7 1_555 1_555
C26_8 H21_8 1_555 1_555
H22_8 C26_8 1_555 1_555
C28_8 C26_8 1_555 1_555
H25_7 C28_8 1_555 1_555
C7_8 C8_7 1_555 1_555
H14_7 C19_7 1_555 1_555
C22_7 C19_7 1_555 1_555
H17_7 C22_7 1_555 1_555
H1_8 C5_8 1_555 1_555
C8_8 C5_8 1_555 1_555
H4_8 C8_8 1_555 1_555
C12_8 H8_8 1_555 1_555
H9_8 C12_8 1_555 1_555
C14_8 C12_8 1_555 1_555
H12_8 C14_8 1_555 1_555
O4_8 Cu3_10 1_555 1_555
O5_8 Cu3_10 1_555 1_555
C15_8 C17_8 1_555 1_555
C16_8 O4_8 1_555 1_555
C17_8 C18_8 1_555 1_555
C18_8 C16_8 1_555 1_555
C19_8 C17_8 1_555 1_555
H14_8 C19_8 1_555 1_555
C20_8 C18_8 1_555 1_555
H15_8 C20_8 1_555 1_555
C21_8 C20_8 1_555 1_555
H16_8 C21_8 1_555 1_555
C22_8 C19_8 1_555 1_555
H17_8 C22_8 1_555 1_555
O5_8 C16_8 1_555 1_555
C21_8 C22_8 1_555 1_555

#END
