
###############################################################################
#
# This file contains modified crystal structure data generated from the
# MOF subset of the Cambridge Structural Database (CSD) v543 
# hosted by the Cambridge Crystallographic Data Centre (CCDC).
#
# This work is licensed under the Creative Commons
# Attribution-NonCommercial-ShareAlike 4.0 International License.
# To view a copy of this license, visit
# http://creativecommons.org/licenses/by-nc-sa/4.0/
# or send a letter to
# Creative Commons, PO Box 1866, Mountain View, CA 94042, USA.
#
# CIF created using the CSD Python API on 29 September 2022
# The structure has been converted into the P1 space group
# The structure has a 3D framework
# The original CSD entry XIPBOO is in the hexagonal crystal system
# The framework has been calculated to contain at least 10.0% void space
# The void calculation uses a probe of radius 1.32A, grid spacing 0.4
#
###############################################################################

data_XIPBOO
_chemical_formula_moiety         '(C84 H60 Co15 Gd2 N12 O66)n'
_symmetry_cell_setting           triclinic
_symmetry_space_group_name_H-M   'P 1'
_symmetry_Int_Tables_number      1
_space_group_name_Hall           'P 1'
loop_
_symmetry_equiv_pos_site_id
_symmetry_equiv_pos_as_xyz
1 x,y,z
_cell_length_a                   15.2120(10)
_cell_length_b                   15.2120(10)
_cell_length_c                   15.451(2)
_cell_angle_alpha                90
_cell_angle_beta                 90
_cell_angle_gamma                120
_cell_volume                     3096.42
loop_
_atom_site_label
_atom_site_type_symbol
_atom_site_fract_x
_atom_site_fract_y
_atom_site_fract_z
Co9 Co -0.0000 0.5000 0.5000
Co1 Co 0.5000 0.0000 0.0000
O13 O 0.61152(18) 0.19768(19) 0.14294(19)
O14 O 0.80232(19) 0.38848(18) 0.35706(19)
O28 O 0.6135(2) 0.0602(2) 0.09282(19)
O29 O 0.9398(2) 0.3865(2) 0.40718(19)
O36 O 0.4864(3) 0.1342(3) 0.0000
H5 H 0.5213 0.1806 0.0367
N6 N 0.76128(18) 0.23872(18) 0.2500
C14 C 0.6455(3) 0.1366(3) 0.1389(2)
C15 C 0.8634(3) 0.3545(3) 0.3611(2)
C25 C 0.7347(3) 0.1607(3) 0.1960(2)
C26 C 0.8393(3) 0.2653(3) 0.3040(2)
C36 C 0.7859(3) 0.1065(3) 0.1935(3)
C37 C 0.8935(3) 0.2141(3) 0.3065(3)
H24 H 0.7670 0.0531 0.1548
H25 H 0.9469 0.2330 0.3452
C42 C 0.8657(3) 0.1343(3) 0.2500
H30 H 0.9010 0.0990 0.2500
Gd4 Gd 0.6667 0.3334 0.2500
Co6 Co 0.5000 -0.0000 0.5000
Co9_2 Co 1.0000 0.5000 0.5000
Co1_2 Co 0.5000 -0.0000 1.0000
O11 O 0.61152(18) 0.19768(19) 0.85706(19)
O12 O 0.80232(19) 0.38848(18) 0.64294(19)
O26 O 0.6135(2) 0.0602(2) 0.90718(19)
O27 O 0.9398(2) 0.3865(2) 0.59282(19)
O36_2 O 0.4864(3) 0.1342(3) 1.0000
H6 H 0.5213 0.1806 0.9633
N5 N 0.76128(18) 0.23872(18) 0.7500
C12 C 0.6455(3) 0.1366(3) 0.8611(2)
C13 C 0.8634(3) 0.3545(3) 0.6389(2)
C23 C 0.7347(3) 0.1607(3) 0.8040(2)
C24 C 0.8393(3) 0.2653(3) 0.6960(2)
C34 C 0.7859(3) 0.1065(3) 0.8065(3)
C35 C 0.8935(3) 0.2141(3) 0.6935(3)
H22 H 0.7670 0.0531 0.8452
H23 H 0.9469 0.2330 0.6548
C41 C 0.8657(3) 0.1343(3) 0.7500
H29 H 0.9010 0.0990 0.7500
Gd3 Gd 0.6667 0.3333 0.7500
O1 O 0.38848(18) 0.80232(19) 0.14294(19)
O2 O 0.3865(2) 0.9398(2) 0.09282(19)
O3 O 0.5136(3) 0.8658(3) 0.0000
N1 N 0.23872(18) 0.76128(18) 0.2500
C1 C 0.3545(3) 0.8634(3) 0.1389(2)
C2 C 0.2653(3) 0.8393(3) 0.1960(2)
C3 C 0.2141(3) 0.8935(3) 0.1935(3)
H2 H 0.2330 0.9469 0.1548
C4 C 0.1343(3) 0.8657(3) 0.2500
H3 H 0.0990 0.9010 0.2500
Gd1 Gd 0.3333 0.6667 0.2500
Co1_3 Co 0.5000 1.0000 0.0000
O4 O 0.19768(19) 0.61152(18) 0.35706(19)
O5 O 0.19768(19) 0.58616(26) 0.14294(19)
O6 O 0.38848(18) 0.58616(26) 0.35706(19)
O7 O 0.41384(26) 0.61152(18) 0.14294(19)
O8 O 0.41384(26) 0.80232(19) 0.35706(19)
O19 O 0.0602(2) 0.6135(2) 0.40718(19)
O20 O 0.0602(2) 0.4467(3) 0.09282(19)
O21 O 0.3865(2) 0.4467(3) 0.40718(19)
O22 O 0.5533(3) 0.6135(2) 0.09282(19)
O23 O 0.5533(3) 0.9398(2) 0.40718(19)
O32 O 0.0602(2) 0.6135(2) 0.59282(19)
O37 O 0.1342(3) 0.4864(3) 0.5000
O39 O 0.1342(3) 0.6478(4) 0.0000
H4 H 0.4787 0.8194 0.0367
H7 H 0.1806 0.5213 0.5367
H8 H 0.1806 0.5213 0.4633
H12 H 0.1806 0.6593 0.0367
N2 N 0.23872(18) 0.47744(25) 0.2500
N3 N 0.52256(25) 0.76128(18) 0.2500
C5 C 0.1366(3) 0.6455(3) 0.3611(2)
C6 C 0.1366(3) 0.4911(4) 0.1389(2)
C7 C 0.3545(3) 0.4911(4) 0.3611(2)
C8 C 0.5089(4) 0.6455(3) 0.1389(2)
C9 C 0.5089(4) 0.8634(3) 0.3611(2)
C16 C 0.1607(3) 0.7347(3) 0.3040(2)
C17 C 0.1607(3) 0.4260(4) 0.1960(2)
C18 C 0.2653(3) 0.4260(4) 0.3040(2)
C19 C 0.5740(4) 0.7347(3) 0.1960(2)
C20 C 0.5740(4) 0.8393(3) 0.3040(2)
C27 C 0.1065(3) 0.7859(3) 0.3065(3)
C28 C 0.1065(3) 0.3206(4) 0.1935(3)
C29 C 0.2141(3) 0.3206(4) 0.3065(3)
C30 C 0.6794(4) 0.7859(3) 0.1935(3)
C31 C 0.6794(4) 0.8935(3) 0.3065(3)
H15 H 0.0531 0.7670 0.3452
H16 H 0.0531 0.2861 0.1548
H17 H 0.2330 0.2861 0.3452
H18 H 0.7139 0.7670 0.1548
H19 H 0.7139 0.9469 0.3452
C38 C 0.1343(3) 0.2686(4) 0.2500
C39 C 0.7314(4) 0.8657(3) 0.2500
H26 H 0.0990 0.1980 0.2500
H27 H 0.8020 0.9010 0.2500
Co3 Co -0.0000 0.5000 0.0000
Co4 Co 0.5000 0.5000 0.5000
Co5 Co 0.5000 0.5000 0.0000
Co6_2 Co 0.5000 1.0000 0.5000
O3_2 O 0.5136(3) 0.8658(3) 1.0000
H1 H 0.4787 0.8194 0.9633
Co1_4 Co 0.5000 1.0000 1.0000
O9 O 0.38848(18) 0.80232(19) 0.85706(19)
O10 O 0.19768(19) 0.61152(18) 0.64294(19)
O15 O 0.41384(26) 0.80232(19) 0.64294(19)
O16 O 0.38848(18) 0.58616(26) 0.64294(19)
O17 O 0.19768(19) 0.58616(26) 0.85706(19)
O18 O 0.41384(26) 0.61152(18) 0.85706(19)
O24 O 0.3865(2) 0.9398(2) 0.90718(19)
O35 O 0.0602(2) 0.4467(3) 0.90718(19)
O39_2 O 0.1342(3) 0.6478(4) 1.0000
H11 H 0.1806 0.6593 0.9633
N4 N 0.23872(18) 0.76128(18) 0.7500
N7 N 0.52256(25) 0.76128(18) 0.7500
N8 N 0.23872(18) 0.47744(25) 0.7500
C10 C 0.3545(3) 0.8634(3) 0.8611(2)
C11 C 0.1366(3) 0.6455(3) 0.6389(2)
C21 C 0.2653(3) 0.8393(3) 0.8040(2)
C22 C 0.1607(3) 0.7347(3) 0.6960(2)
C32 C 0.2141(3) 0.8935(3) 0.8065(3)
C33 C 0.1065(3) 0.7859(3) 0.6935(3)
H20 H 0.2330 0.9469 0.8452
H21 H 0.0531 0.7670 0.6548
C40 C 0.1343(3) 0.8657(3) 0.7500
H28 H 0.0990 0.9010 0.7500
Gd2 Gd 0.3333 0.6667 0.7500
Co3_2 Co -0.0000 0.5000 1.0000
Co5_2 Co 0.5000 0.5000 1.0000
O33 O 0.9398(2) 0.5533(3) 0.09282(19)
O38 O 0.8658(3) 0.5136(3) 0.5000
O40 O 0.8658(3) 0.3522(4) 0.0000
H9 H 0.8194 0.4787 0.4633
H10 H 0.8194 0.4787 0.5367
H13 H 0.8194 0.3407 0.0367
Co3_3 Co 1.0000 0.5000 0.0000
O34 O 0.9398(2) 0.5533(3) 0.90718(19)
O40_2 O 0.8658(3) 0.3522(4) 1.0000
H14 H 0.8194 0.3407 0.9633
Co3_4 Co 1.0000 0.5000 1.0000
O30 O 0.6135(2) 0.5533(3) 0.40718(19)
O31 O 0.6135(2) 0.5533(3) 0.59282(19)
O32_2 O 0.3865(2) 0.4467(3) 0.59282(19)
O33_2 O 0.4467(3) 0.3865(4) 0.09282(19)
O37_2 O 0.5136(3) 0.6478(4) 0.5000
O38_2 O 0.4864(3) 0.3522(4) 0.5000
O39_3 O 0.3522(4) 0.4864(5) 0.0000
O40_3 O 0.6478(4) 0.5136(5) 0.0000
H7_2 H 0.4787 0.6593 0.5367
H8_2 H 0.4787 0.6593 0.4633
H9_2 H 0.5213 0.3407 0.4633
H10_2 H 0.5213 0.3407 0.5367
H12_2 H 0.3407 0.5213 0.0367
H13_2 H 0.6593 0.4787 0.0367
O34_2 O 0.4467(3) 0.3865(4) 0.90718(19)
O35_2 O 0.5533(3) 0.6135(4) 0.90718(19)
O39_4 O 0.3522(4) 0.4864(5) 1.0000
O40_4 O 0.6478(4) 0.5136(5) 1.0000
H11_2 H 0.3407 0.5213 0.9633
H14_2 H 0.6593 0.4787 0.9633
C10_2 C 0.1366(3) 0.4911(4) 0.8611(2)
C11_2 C 0.3545(3) 0.4911(4) 0.6389(2)
C21_2 C 0.1607(3) 0.4260(4) 0.8040(2)
C22_2 C 0.2653(3) 0.4260(4) 0.6960(2)
C32_2 C 0.1065(3) 0.3206(4) 0.8065(3)
C33_2 C 0.2141(3) 0.3206(4) 0.6935(3)
H20_2 H 0.0531 0.2861 0.8452
H21_2 H 0.2330 0.2861 0.6548
C40_2 C 0.1343(3) 0.2686(4) 0.7500
H28_2 H 0.0990 0.1980 0.7500
O13_2 O 0.80232(19) 0.41384(26) 0.14294(19)
O14_2 O 0.61152(18) 0.41384(26) 0.35706(19)
N6_2 N 0.76128(18) 0.52256(25) 0.2500
C14_2 C 0.8634(3) 0.5089(4) 0.1389(2)
C15_2 C 0.6455(3) 0.5089(4) 0.3611(2)
C25_2 C 0.8393(3) 0.5740(4) 0.1960(2)
C26_2 C 0.7347(3) 0.5740(4) 0.3040(2)
C36_2 C 0.8935(3) 0.6794(4) 0.1935(3)
C37_2 C 0.7859(3) 0.6794(4) 0.3065(3)
H24_2 H 0.9469 0.7139 0.1548
H25_2 H 0.7670 0.7139 0.3452
C42_2 C 0.8657(3) 0.7314(4) 0.2500
H30_2 H 0.9010 0.8020 0.2500
O11_2 O 0.80232(19) 0.41384(26) 0.85706(19)
O12_2 O 0.61152(18) 0.41384(26) 0.64294(19)
N5_2 N 0.76128(18) 0.52256(25) 0.7500
C12_2 C 0.8634(3) 0.5089(4) 0.8611(2)
C13_2 C 0.6455(3) 0.5089(4) 0.6389(2)
C23_2 C 0.8393(3) 0.5740(4) 0.8040(2)
C24_2 C 0.7347(3) 0.5740(4) 0.6960(2)
C34_2 C 0.8935(3) 0.6794(4) 0.8065(3)
C35_2 C 0.7859(3) 0.6794(4) 0.6935(3)
H22_2 H 0.9469 0.7139 0.8452
H23_2 H 0.7670 0.7139 0.6548
C41_2 C 0.8657(3) 0.7314(4) 0.7500
H29_2 H 0.9010 0.8020 0.7500
O30_2 O 0.4467(3) 0.0602(2) 0.40718(19)
O31_2 O 0.4467(3) 0.0602(2) 0.59282(19)
O38_3 O 0.6478(4) 0.1342(3) 0.5000
H9_3 H 0.6593 0.1806 0.4633
H10_3 H 0.6593 0.1806 0.5367
O13_3 O 0.58616(26) 0.38848(18) 0.14294(19)
O14_3 O 0.58616(26) 0.19768(19) 0.35706(19)
O32_3 O 0.5533(3) 0.9398(2) 0.59282(19)
O37_3 O 0.3522(4) 0.8658(3) 0.5000
H7_3 H 0.3407 0.8194 0.5367
H8_3 H 0.3407 0.8194 0.4633
N6_3 N 0.47744(25) 0.23872(18) 0.2500
C14_3 C 0.4911(4) 0.3545(3) 0.1389(2)
C15_3 C 0.4911(4) 0.1366(3) 0.3611(2)
C25_3 C 0.4260(4) 0.2653(3) 0.1960(2)
C26_3 C 0.4260(4) 0.1607(3) 0.3040(2)
C36_3 C 0.3206(4) 0.2141(3) 0.1935(3)
C37_3 C 0.3206(4) 0.1065(3) 0.3065(3)
H24_3 H 0.2861 0.2330 0.1548
H25_3 H 0.2861 0.0531 0.3452
C42_3 C 0.2686(4) 0.1343(3) 0.2500
H30_3 H 0.1980 0.0990 0.2500
O11_3 O 0.58616(26) 0.38848(18) 0.85706(19)
O12_3 O 0.58616(26) 0.19768(19) 0.64294(19)
N5_3 N 0.47744(25) 0.23872(18) 0.7500
C10_3 C 0.5089(4) 0.6455(3) 0.8611(2)
C11_3 C 0.5089(4) 0.8634(3) 0.6389(2)
C12_3 C 0.4911(4) 0.3545(3) 0.8611(2)
C13_3 C 0.4911(4) 0.1366(3) 0.6389(2)
C21_3 C 0.5740(4) 0.7347(3) 0.8040(2)
C22_3 C 0.5740(4) 0.8393(3) 0.6960(2)
C23_3 C 0.4260(4) 0.2653(3) 0.8040(2)
C24_3 C 0.4260(4) 0.1607(3) 0.6960(2)
C32_3 C 0.6794(4) 0.7859(3) 0.8065(3)
C33_3 C 0.6794(4) 0.8935(3) 0.6935(3)
C34_3 C 0.3206(4) 0.2141(3) 0.8065(3)
C35_3 C 0.3206(4) 0.1065(3) 0.6935(3)
H20_3 H 0.7139 0.7670 0.8452
H21_3 H 0.7139 0.9469 0.6548
H22_3 H 0.2861 0.2330 0.8452
H23_3 H 0.2861 0.0531 0.6548
C40_3 C 0.7314(4) 0.8657(3) 0.7500
C41_3 C 0.2686(4) 0.1343(3) 0.7500
H28_3 H 0.8020 0.9010 0.7500
H29_3 H 0.1980 0.0990 0.7500
loop_
_geom_bond_atom_site_label_1
_geom_bond_atom_site_label_2
_geom_bond_site_symmetry_1
_geom_bond_site_symmetry_2
O13 C14 1_555 1_555
O14 C15 1_555 1_555
O28 Co1 1_555 1_555
O29 C15 1_555 1_555
O36 Co1 1_555 1_555
H5 O36 1_555 1_555
N6 C25 1_555 1_555
C14 O28 1_555 1_555
C15 C26 1_555 1_555
C25 C14 1_555 1_555
C26 N6 1_555 1_555
C36 C25 1_555 1_555
C37 C26 1_555 1_555
H24 C36 1_555 1_555
H25 C37 1_555 1_555
C42 C36 1_555 1_555
H30 C42 1_555 1_555
Gd4 O13 1_555 1_555
Co9_2 O29 1_555 1_555
O14 Gd4 1_555 1_555
N6 Gd4 1_555 1_555
C37 C42 1_555 1_555
O11 C12 1_555 1_555
O12 C13 1_555 1_555
O26 Co1_2 1_555 1_555
O27 C13 1_555 1_555
O36_2 Co1_2 1_555 1_555
H6 O36_2 1_555 1_555
N5 C23 1_555 1_555
C12 O26 1_555 1_555
C13 C24 1_555 1_555
C23 C12 1_555 1_555
C24 N5 1_555 1_555
C34 C23 1_555 1_555
C35 C24 1_555 1_555
H22 C34 1_555 1_555
H23 C35 1_555 1_555
C41 C34 1_555 1_555
H29 C41 1_555 1_555
Gd3 O11 1_555 1_555
Co9_2 O27 1_555 1_555
O12 Gd3 1_555 1_555
N5 Gd3 1_555 1_555
C35 C41 1_555 1_555
O1 C1 1_555 1_555
O2 C1 1_555 1_555
N1 C2 1_555 1_555
C1 C2 1_555 1_555
C2 C3 1_555 1_555
C3 H2 1_555 1_555
C4 C3 1_555 1_555
H3 C4 1_555 1_555
Gd1 O1 1_555 1_555
Co1_3 O2 1_555 1_555
O4 Gd1 1_555 1_555
O5 Gd1 1_555 1_555
O6 Gd1 1_555 1_555
O7 Gd1 1_555 1_555
O8 Gd1 1_555 1_555
O19 C5 1_555 1_555
O20 C6 1_555 1_555
O21 C7 1_555 1_555
O22 C8 1_555 1_555
O23 C9 1_555 1_555
O32 Co9 1_555 1_555
O37 H7 1_555 1_555
H4 O3 1_555 1_555
H8 O37 1_555 1_555
H12 O39 1_555 1_555
N2 Gd1 1_555 1_555
N3 Gd1 1_555 1_555
C5 O4 1_555 1_555
C6 O5 1_555 1_555
C7 O6 1_555 1_555
C8 O7 1_555 1_555
C9 O8 1_555 1_555
C16 N1 1_555 1_555
C17 N2 1_555 1_555
C18 N2 1_555 1_555
C19 N3 1_555 1_555
C20 N3 1_555 1_555
C27 C4 1_555 1_555
C28 C17 1_555 1_555
C29 C18 1_555 1_555
C30 C19 1_555 1_555
C31 C20 1_555 1_555
H15 C27 1_555 1_555
H16 C28 1_555 1_555
H17 C29 1_555 1_555
H18 C30 1_555 1_555
H19 C31 1_555 1_555
C38 C28 1_555 1_555
C39 C30 1_555 1_555
H26 C38 1_555 1_555
H27 C39 1_555 1_555
Co9 O19 1_555 1_555
Co3 O20 1_555 1_555
Co4 O21 1_555 1_555
Co5 O22 1_555 1_555
Co6_2 O23 1_555 1_555
O3 Co1_3 1_555 1_555
N1 Gd1 1_555 1_555
O37 Co9 1_555 1_555
O39 Co3 1_555 1_555
C5 C16 1_555 1_555
C6 C17 1_555 1_555
C7 C18 1_555 1_555
C8 C19 1_555 1_555
C9 C20 1_555 1_555
C16 C27 1_555 1_555
C29 C38 1_555 1_555
C31 C39 1_555 1_555
O3_2 H1 1_555 1_555
O9 C10 1_555 1_555
O10 C11 1_555 1_555
O15 Gd2 1_555 1_555
O16 Gd2 1_555 1_555
O17 Gd2 1_555 1_555
O18 Gd2 1_555 1_555
O24 Co1_4 1_555 1_555
O32 C11 1_555 1_555
O35 Co3_2 1_555 1_555
O39_2 H11 1_555 1_555
N4 C21 1_555 1_555
N7 Gd2 1_555 1_555
N8 Gd2 1_555 1_555
C10 O24 1_555 1_555
C11 C22 1_555 1_555
C21 C10 1_555 1_555
C22 N4 1_555 1_555
C32 C21 1_555 1_555
C33 C22 1_555 1_555
H20 C32 1_555 1_555
H21 C33 1_555 1_555
C40 C32 1_555 1_555
H28 C40 1_555 1_555
Gd2 O9 1_555 1_555
O3_2 Co1_4 1_555 1_555
O10 Gd2 1_555 1_555
O39_2 Co3_2 1_555 1_555
N4 Gd2 1_555 1_555
C33 C40 1_555 1_555
O33 Co3_3 1_555 1_555
O38 H9 1_555 1_555
O40 H13 1_555 1_555
H10 O38 1_555 1_555
O38 Co9_2 1_555 1_555
O40 Co3_3 1_555 1_555
O34 Co3_4 1_555 1_555
H14 O40_2 1_555 1_555
O40_2 Co3_4 1_555 1_555
O30 Co4 1_555 1_555
O31 Co4 1_555 1_555
O32_2 Co4 1_555 1_555
O33_2 Co5 1_555 1_555
O37_2 H7_2 1_555 1_555
O38_2 H9_2 1_555 1_555
O40_3 H13_2 1_555 1_555
H8_2 O37_2 1_555 1_555
H10_2 O38_2 1_555 1_555
H12_2 O39_3 1_555 1_555
O37_2 Co4 1_555 1_555
O38_2 Co4 1_555 1_555
O39_3 Co5 1_555 1_555
O40_3 Co5 1_555 1_555
O17 C10_2 1_555 1_555
O16 C11_2 1_555 1_555
O32_2 C11_2 1_555 1_555
O34_2 Co5_2 1_555 1_555
O35_2 Co5_2 1_555 1_555
O39_4 H11_2 1_555 1_555
H14_2 O40_4 1_555 1_555
N8 C21_2 1_555 1_555
C10_2 O35 1_555 1_555
C11_2 C22_2 1_555 1_555
C21_2 C10_2 1_555 1_555
C22_2 N8 1_555 1_555
C32_2 C21_2 1_555 1_555
C33_2 C22_2 1_555 1_555
H20_2 C32_2 1_555 1_555
H21_2 C33_2 1_555 1_555
C40_2 C32_2 1_555 1_555
H28_2 C40_2 1_555 1_555
O39_4 Co5_2 1_555 1_555
O40_4 Co5_2 1_555 1_555
C33_2 C40_2 1_555 1_555
O13_2 C14_2 1_555 1_555
O14_2 C15_2 1_555 1_555
O30 C15_2 1_555 1_555
N6_2 C25_2 1_555 1_555
C14_2 O33 1_555 1_555
C15_2 C26_2 1_555 1_555
C25_2 C14_2 1_555 1_555
C26_2 N6_2 1_555 1_555
C36_2 C25_2 1_555 1_555
C37_2 C26_2 1_555 1_555
H24_2 C36_2 1_555 1_555
H25_2 C37_2 1_555 1_555
C42_2 C36_2 1_555 1_555
H30_2 C42_2 1_555 1_555
Gd4 O13_2 1_555 1_555
O14_2 Gd4 1_555 1_555
N6_2 Gd4 1_555 1_555
C37_2 C42_2 1_555 1_555
O11_2 C12_2 1_555 1_555
O12_2 C13_2 1_555 1_555
O31 C13_2 1_555 1_555
N5_2 C23_2 1_555 1_555
C12_2 O34 1_555 1_555
C13_2 C24_2 1_555 1_555
C23_2 C12_2 1_555 1_555
C24_2 N5_2 1_555 1_555
C34_2 C23_2 1_555 1_555
C35_2 C24_2 1_555 1_555
H22_2 C34_2 1_555 1_555
H23_2 C35_2 1_555 1_555
C41_2 C34_2 1_555 1_555
H29_2 C41_2 1_555 1_555
Gd3 O11_2 1_555 1_555
O12_2 Gd3 1_555 1_555
N5_2 Gd3 1_555 1_555
C35_2 C41_2 1_555 1_555
O30_2 Co6 1_555 1_555
O31_2 Co6 1_555 1_555
O38_3 H9_3 1_555 1_555
H10_3 O38_3 1_555 1_555
O38_3 Co6 1_555 1_555
O13_3 C14_3 1_555 1_555
O14_3 C15_3 1_555 1_555
O30_2 C15_3 1_555 1_555
O32_3 Co6_2 1_555 1_555
O37_3 H7_3 1_555 1_555
H8_3 O37_3 1_555 1_555
N6_3 C25_3 1_555 1_555
C14_3 O33_2 1_555 1_555
C15_3 C26_3 1_555 1_555
C25_3 C14_3 1_555 1_555
C26_3 N6_3 1_555 1_555
C36_3 C25_3 1_555 1_555
C37_3 C26_3 1_555 1_555
H24_3 C36_3 1_555 1_555
H25_3 C37_3 1_555 1_555
C42_3 C36_3 1_555 1_555
H30_3 C42_3 1_555 1_555
Gd4 O13_3 1_555 1_555
O14_3 Gd4 1_555 1_555
O37_3 Co6_2 1_555 1_555
N6_3 Gd4 1_555 1_555
C37_3 C42_3 1_555 1_555
O18 C10_3 1_555 1_555
O15 C11_3 1_555 1_555
O11_3 C12_3 1_555 1_555
O12_3 C13_3 1_555 1_555
O32_3 C11_3 1_555 1_555
O31_2 C13_3 1_555 1_555
N7 C21_3 1_555 1_555
N5_3 C23_3 1_555 1_555
C10_3 O35_2 1_555 1_555
C11_3 C22_3 1_555 1_555
C12_3 O34_2 1_555 1_555
C13_3 C24_3 1_555 1_555
C21_3 C10_3 1_555 1_555
C22_3 N7 1_555 1_555
C23_3 C12_3 1_555 1_555
C24_3 N5_3 1_555 1_555
C32_3 C21_3 1_555 1_555
C33_3 C22_3 1_555 1_555
C34_3 C23_3 1_555 1_555
C35_3 C24_3 1_555 1_555
H20_3 C32_3 1_555 1_555
H21_3 C33_3 1_555 1_555
H22_3 C34_3 1_555 1_555
H23_3 C35_3 1_555 1_555
C40_3 C32_3 1_555 1_555
C41_3 C34_3 1_555 1_555
H28_3 C40_3 1_555 1_555
H29_3 C41_3 1_555 1_555
Gd3 O11_3 1_555 1_555
O12_3 Gd3 1_555 1_555
N5_3 Gd3 1_555 1_555
C33_3 C40_3 1_555 1_555
C35_3 C41_3 1_555 1_555

#END
