
###############################################################################
#
# This file contains modified crystal structure data generated from the
# MOF subset of the Cambridge Structural Database (CSD) v543 
# hosted by the Cambridge Crystallographic Data Centre (CCDC).
#
# This work is licensed under the Creative Commons
# Attribution-NonCommercial-ShareAlike 4.0 International License.
# To view a copy of this license, visit
# http://creativecommons.org/licenses/by-nc-sa/4.0/
# or send a letter to
# Creative Commons, PO Box 1866, Mountain View, CA 94042, USA.
#
# CIF created using the CSD Python API on 29 September 2022
# The structure has been converted into the P1 space group
# The structure has a 3D framework
# The original CSD entry XIPHIN is in the orthorhombic crystal system
# The framework has been calculated to contain at least 10.0% void space
# The void calculation uses a probe of radius 1.32A, grid spacing 0.4
# The framework is charged, counterions have been retained in the structure
# H atom positions have been added when not included in the experimental data
#
###############################################################################

data_XIPHIN
_chemical_formula_moiety         '(C32 H64 Cl16 Fe19 N16 O71 4+)n'
_symmetry_cell_setting           triclinic
_symmetry_space_group_name_H-M   'P 1'
_symmetry_Int_Tables_number      1
_space_group_name_Hall           'P 1'
loop_
_symmetry_equiv_pos_site_id
_symmetry_equiv_pos_as_xyz
1 x,y,z
_cell_length_a                   14.956(7)
_cell_length_b                   23.671(9)
_cell_length_c                   9.026(4)
_cell_angle_alpha                90
_cell_angle_beta                 90
_cell_angle_gamma                90
_cell_volume                     3195.42
loop_
_atom_site_label
_atom_site_type_symbol
_atom_site_fract_x
_atom_site_fract_y
_atom_site_fract_z
Fe1 Fe 0.07315(5) 0.05452(3) 0.00000(5)
O1 O 0.0000 0.0000 0.0759(7)
O2 O 0.1320(3) 0.07276(15) 0.1993(4)
O4 O 0.2650(3) 0.17951(16) 0.0484(4)
O5 O 0.2316(3) 0.13075(16) 0.3061(4)
C1 C 0.1886(3) 0.1125(2) 0.1978(6)
C2 C 0.2059(3) 0.1413(2) 0.0484(6)
Fe3 Fe 0.32315(5) 0.19548(3) 0.25000(5)
Cl1 Cl 0.18186(10) 0.99597(7) 0.9016(2)
O6 O 0.8820(3) 0.17724(15) 0.9493(4)
O7 O 0.9109(3) 0.12472(17) 0.6906(5)
C3 C 0.9386(3) 0.1375(2) 0.9478(6)
C4 C 0.9559(3) 0.1087(2) 0.7984(6)
Cl2 Cl 0.81814(10) 0.00403(7) 0.9016(2)
Fe4 Fe 0.82315(5) 0.19548(3) 0.75000(5)
O1_2 O 1.0000 1.0000 0.0759(7)
Fe2 Fe 0.92685(5) 0.94548(3) 0.00000(5)
O10 O 0.8680(3) 0.92724(15) 0.1993(4)
O6_2 O 0.1180(3) 0.82276(15) 0.9493(4)
O7_2 O 0.0891(3) 0.87528(17) 0.6906(5)
C3_2 C 0.0614(3) 0.8625(2) 0.9478(6)
C4_2 C 0.0441(3) 0.8913(2) 0.7984(6)
Fe4_2 Fe 0.17685(5) 0.80452(3) 0.75000(5)
O4_2 O 0.7350(3) 0.82049(16) 0.0484(4)
O5_2 O 0.7684(3) 0.86925(16) 0.3061(4)
C1_2 C 0.8114(3) 0.8875(2) 0.1978(6)
C2_2 C 0.7941(3) 0.8587(2) 0.0484(6)
Fe3_2 Fe 0.67685(5) 0.80452(3) 0.25000(5)
O1_3 O 0.2500 0.2500 0.3259(7)
O2_2 O 0.3820(3) 0.17724(15) 0.4493(4)
O3 O 0.4109(3) 0.12472(17) 0.1906(5)
O4_3 O 0.5150(3) 0.07049(16) 0.2984(4)
O5_3 O 0.4816(3) 0.11925(16) 0.5561(4)
C1_3 C 0.4386(3) 0.1375(2) 0.4478(6)
C2_3 C 0.4559(3) 0.1087(2) 0.2984(6)
Cl1_2 Cl 0.43186(10) 0.25403(7) 0.1516(2)
Fe2_2 Fe 0.17685(5) 0.30452(3) 0.25000(5)
Cl2_2 Cl 0.06814(10) 0.24597(7) 0.1516(2)
Fe3_3 Fe 0.57315(5) 0.05452(3) 0.50000(5)
O10_2 O 0.1180(3) 0.32276(15) 0.4493(4)
O11 O 0.0891(3) 0.37528(17) 0.1906(5)
O12 O 0.2350(3) 0.32049(16) 0.0484(4)
O13 O 0.2684(3) 0.36925(16) 0.3061(4)
O5_4 O 0.0184(3) 0.38075(16) 0.5561(4)
C1_4 C 0.0614(3) 0.3625(2) 0.4478(6)
C2_4 C 0.0441(3) 0.3913(2) 0.2984(6)
O6_3 O 0.3680(3) 0.42724(15) 0.1993(4)
C3_3 C 0.3114(3) 0.3875(2) 0.1978(6)
C4_3 C 0.2941(3) 0.3587(2) 0.0484(6)
Fe4_3 Fe 0.42685(5) 0.44548(3) 0.00000(5)
O7_3 O 0.3391(3) 0.37472(17) 0.9406(5)
Fe4_4 Fe 0.42685(5) 0.44548(3) 1.00000(5)
O4_4 O 0.9850(3) 0.42951(16) 0.2984(4)
Fe3_4 Fe 0.92685(5) 0.44548(3) 0.50000(5)
Fe1_2 Fe 0.07315(5) 0.55452(3) 0.50000(5)
O1_4 O -0.0000 0.5000 0.5759(7)
O2_3 O 0.1320(3) 0.57276(15) 0.6993(4)
O3_2 O 0.1609(3) 0.62528(17) 0.4406(5)
O4_5 O 0.2650(3) 0.67951(16) 0.5484(4)
O5_5 O 0.2316(3) 0.63075(16) 0.8061(4)
C1_5 C 0.1886(3) 0.6125(2) 0.6978(6)
C2_5 C 0.2059(3) 0.6413(2) 0.5484(6)
Cl1_3 Cl 0.18186(10) 0.49597(7) 0.4016(2)
O8 O 0.0150(3) 0.57049(16) 0.2984(4)
Fe3_5 Fe 0.32315(5) 0.69548(3) 0.75000(5)
O1_5 O 1.0000 0.5000 0.5759(7)
O6_4 O 0.8820(3) 0.67724(15) 0.4493(4)
O7_4 O 0.9109(3) 0.62472(17) 0.1906(5)
O9 O 0.9816(3) 0.61925(16) 0.5561(4)
C3_4 C 0.9386(3) 0.6375(2) 0.4478(6)
C4_4 C 0.9559(3) 0.6087(2) 0.2984(6)
Cl2_3 Cl 0.81814(10) 0.50403(7) 0.4016(2)
Fe4_5 Fe 0.82315(5) 0.69548(3) 0.25000(5)
O10_3 O 0.8680(3) 0.42724(15) 0.6993(4)
O11_2 O 0.8391(3) 0.37472(17) 0.4406(5)
O4_6 O 0.7350(3) 0.32049(16) 0.5484(4)
O5_6 O 0.7684(3) 0.36925(16) 0.8061(4)
C1_6 C 0.8114(3) 0.3875(2) 0.6978(6)
C2_6 C 0.7941(3) 0.3587(2) 0.5484(6)
Fe3_6 Fe 0.67685(5) 0.30452(3) 0.75000(5)
O5_7 O 0.4816(3) 0.61925(16) 0.0561(4)
Fe3_7 Fe 0.57315(5) 0.55452(3) 0.00000(5)
O1_6 O 0.2500 0.7500 0.8259(7)
O2_4 O 0.3820(3) 0.67724(15) 0.9493(4)
O3_3 O 0.4109(3) 0.62472(17) 0.6906(5)
O4_7 O 0.5150(3) 0.57049(16) 0.7984(4)
C1_7 C 0.4386(3) 0.6375(2) 0.9478(6)
C2_7 C 0.4559(3) 0.6087(2) 0.7984(6)
Cl1_4 Cl 0.43186(10) 0.75403(7) 0.6516(2)
Cl2_4 Cl 0.06814(10) 0.74597(7) 0.6516(2)
Fe3_8 Fe 0.57315(5) 0.55452(3) 1.00000(5)
O12_2 O 0.2350(3) 0.82049(16) 0.5484(4)
O13_2 O 0.2684(3) 0.86925(16) 0.8061(4)
O6_5 O 0.3680(3) 0.92724(15) 0.6993(4)
O7_5 O 0.3391(3) 0.87472(17) 0.4406(5)
C3_5 C 0.3114(3) 0.8875(2) 0.6978(6)
C4_5 C 0.2941(3) 0.8587(2) 0.5484(6)
Fe4_6 Fe 0.42685(5) 0.94548(3) 0.50000(5)
O1_7 O 0.5000 0.0000 0.5759(7)
O2_5 O 0.6320(3) 0.07276(15) 0.6993(4)
O3_4 O 0.6609(3) 0.12528(17) 0.4406(5)
O4_8 O 0.7650(3) 0.17951(16) 0.5484(4)
O5_8 O 0.7316(3) 0.13075(16) 0.8061(4)
C1_8 C 0.6886(3) 0.1125(2) 0.6978(6)
C2_8 C 0.7059(3) 0.1413(2) 0.5484(6)
Cl2_5 Cl 0.31814(10) 0.00403(7) 0.4016(2)
O1_8 O 0.5000 1.0000 0.5759(7)
Cl1_5 Cl 0.68186(10) 0.99597(7) 0.4016(2)
O12_3 O 0.4850(3) 0.92951(16) 0.2984(4)
O13_3 O 0.5184(3) 0.88075(16) 0.5561(4)
O6_6 O 0.6180(3) 0.82276(15) 0.4493(4)
O7_6 O 0.5891(3) 0.87528(17) 0.1906(5)
C3_6 C 0.5614(3) 0.8625(2) 0.4478(6)
C4_6 C 0.5441(3) 0.8913(2) 0.2984(6)
O1_9 O 0.7500 0.2500 0.8259(7)
Cl1_6 Cl 0.93186(10) 0.25403(7) 0.6516(2)
Cl2_6 Cl 0.56814(10) 0.24597(7) 0.6516(2)
O10_4 O 0.6180(3) 0.32276(15) 0.9493(4)
O11_3 O 0.5891(3) 0.37528(17) 0.6906(5)
O5_9 O 0.5184(3) 0.38075(16) 0.0561(4)
O4_9 O 0.4850(3) 0.42951(16) 0.7984(4)
C1_9 C 0.5614(3) 0.3625(2) 0.9478(6)
C2_9 C 0.5441(3) 0.3913(2) 0.7984(6)
O1_10 O 0.5000 0.5000 0.0759(7)
O2_6 O 0.6320(3) 0.57276(15) 0.1993(4)
O4_10 O 0.7650(3) 0.67951(16) 0.0484(4)
O5_10 O 0.7316(3) 0.63075(16) 0.3061(4)
C1_10 C 0.6886(3) 0.6125(2) 0.1978(6)
C2_10 C 0.7059(3) 0.6413(2) 0.0484(6)
O3_5 O 0.6609(3) 0.62528(17) 0.9406(5)
Cl1_7 Cl 0.68186(10) 0.49597(7) 0.9016(2)
Cl2_7 Cl 0.31814(10) 0.50403(7) 0.9016(2)
O1_11 O 0.7500 0.7500 0.3259(7)
Cl1_8 Cl 0.93186(10) 0.75403(7) 0.1516(2)
Cl2_8 Cl 0.56814(10) 0.74597(7) 0.1516(2)
Fe1_3 Fe 0.07315(5) 0.05452(3) 1.00000(5)
O3_6 O 0.1609(3) 0.12528(17) 0.9406(5)
O8_2 O 0.0150(3) 0.07049(16) 0.7984(4)
O1_12 O -0.0000 1.0000 0.0759(7)
O13_4 O 0.0184(3) 0.88075(16) 0.0561(4)
O1_13 O 1.0000 0.0000 0.0759(7)
O9_2 O 0.9816(3) 0.11925(16) 0.0561(4)
Fe2_3 Fe 0.92685(5) 0.94548(3) 1.00000(5)
O11_4 O 0.8391(3) 0.87472(17) 0.9406(5)
O12_4 O 0.9850(3) 0.92951(16) 0.7984(4)
H1 H 0.0289657 0.157 0.377
N1 N 0.9611(13) 0.1570(6) 0.377(2)
H2 H 0.938478 0.192011 0.323989
H3 H 0.938478 0.121989 0.323989
H4 H 0.938478 0.157 0.483022
N1_2 N 0.0389(13) 0.8430(6) 0.377(2)
H2_2 H 0.0615219 0.807989 0.323989
H3_2 H 0.0615219 0.878011 0.323989
H4_2 H 0.0615219 0.843 0.483022
H1_2 H 0.971034 0.843 0.377
N1_3 N 0.2111(13) 0.0930(6) 0.627(2)
H1_3 H 0.278966 0.093 0.627
H2_3 H 0.188478 0.0579891 0.573989
H3_3 H 0.188478 0.128011 0.573989
H4_3 H 0.188478 0.093 0.733022
N1_4 N 0.2889(13) 0.4070(6) 0.627(2)
H1_4 H 0.221034 0.407 0.627
H2_4 H 0.311522 0.442011 0.573989
H3_4 H 0.311522 0.371989 0.573989
H4_4 H 0.311522 0.407 0.733022
H1_5 H 0.0289657 0.657 0.877
N1_5 N 0.9611(13) 0.6570(6) 0.877(2)
H2_5 H 0.938478 0.692011 0.823989
H3_5 H 0.938478 0.621989 0.823989
H4_5 H 0.938478 0.657 0.983022
N1_6 N 0.0389(13) 0.3430(6) 0.877(2)
H2_6 H 0.0615219 0.307989 0.823989
H3_6 H 0.0615219 0.378011 0.823989
H4_6 H 0.0615219 0.343 0.983022
H1_6 H 0.971034 0.343 0.877
N1_7 N 0.2111(13) 0.5930(6) 0.127(2)
H1_7 H 0.278966 0.593 0.127
H2_7 H 0.188478 0.557989 0.0739892
H3_7 H 0.188478 0.628011 0.0739892
H4_7 H 0.188478 0.593 0.233022
N1_8 N 0.2889(13) 0.9070(6) 0.127(2)
H1_8 H 0.221034 0.907 0.127
H2_8 H 0.311522 0.942011 0.0739892
H3_8 H 0.311522 0.871989 0.0739892
H4_8 H 0.311522 0.907 0.233022
N1_9 N 0.4611(13) 0.1570(6) 0.877(2)
H1_9 H 0.528966 0.157 0.877
H2_9 H 0.438478 0.192011 0.823989
H3_9 H 0.438478 0.121989 0.823989
H4_9 H 0.438478 0.157 0.983022
N1_10 N 0.5389(13) 0.8430(6) 0.877(2)
H1_10 H 0.471034 0.843 0.877
H2_10 H 0.561522 0.807989 0.823989
H3_10 H 0.561522 0.878011 0.823989
H4_10 H 0.561522 0.843 0.983022
N1_11 N 0.7111(13) 0.0930(6) 0.127(2)
H1_11 H 0.778966 0.093 0.127
H2_11 H 0.688478 0.0579891 0.0739892
H3_11 H 0.688478 0.128011 0.0739892
H4_11 H 0.688478 0.093 0.233022
N1_12 N 0.7889(13) 0.4070(6) 0.127(2)
H1_12 H 0.721034 0.407 0.127
H2_12 H 0.811522 0.442011 0.0739892
H3_12 H 0.811522 0.371989 0.0739892
H4_12 H 0.811522 0.407 0.233022
N1_13 N 0.4611(13) 0.6570(6) 0.377(2)
H1_13 H 0.528966 0.657 0.377
H2_13 H 0.438478 0.692011 0.323989
H3_13 H 0.438478 0.621989 0.323989
H4_13 H 0.438478 0.657 0.483022
N1_14 N 0.5389(13) 0.3430(6) 0.377(2)
H1_14 H 0.471034 0.343 0.377
H2_14 H 0.561522 0.307989 0.323989
H3_14 H 0.561522 0.378011 0.323989
H4_14 H 0.561522 0.343 0.483022
N1_15 N 0.7111(13) 0.5930(6) 0.627(2)
H1_15 H 0.778966 0.593 0.627
H2_15 H 0.688478 0.557989 0.573989
H3_15 H 0.688478 0.628011 0.573989
H4_15 H 0.688478 0.593 0.733022
N1_16 N 0.7889(13) 0.9070(6) 0.627(2)
H1_16 H 0.721034 0.907 0.627
H2_16 H 0.811522 0.942011 0.573989
H3_16 H 0.811522 0.871989 0.573989
H4_16 H 0.811522 0.907 0.733022
loop_
_geom_bond_atom_site_label_1
_geom_bond_atom_site_label_2
_geom_bond_site_symmetry_1
_geom_bond_site_symmetry_2
Fe1 O1 1_555 1_555
O2 Fe1 1_555 1_555
O4 C2 1_555 1_555
O5 C1 1_555 1_555
C1 O2 1_555 1_555
Fe3 O4 1_555 1_555
O5 Fe3 1_555 1_555
C1 C2 1_555 1_555
O6 C3 1_555 1_555
O7 C4 1_555 1_555
Fe4 O6 1_555 1_555
O7 Fe4 1_555 1_555
C3 C4 1_555 1_555
O1_2 Fe2 1_555 1_555
O10 Fe2 1_555 1_555
O6_2 C3_2 1_555 1_555
O7_2 C4_2 1_555 1_555
Fe4_2 O6_2 1_555 1_555
O7_2 Fe4_2 1_555 1_555
C3_2 C4_2 1_555 1_555
O4_2 C2_2 1_555 1_555
O5_2 C1_2 1_555 1_555
C1_2 O10 1_555 1_555
Fe3_2 O4_2 1_555 1_555
O5_2 Fe3_2 1_555 1_555
C1_2 C2_2 1_555 1_555
Fe3 O1_3 1_555 1_555
O1_3 Fe2_2 1_555 1_555
O2_2 Fe3 1_555 1_555
O3 Fe3 1_555 1_555
O4_3 C2_3 1_555 1_555
O5_3 C1_3 1_555 1_555
C1_3 O2_2 1_555 1_555
C2_3 O3 1_555 1_555
Cl1_2 Fe3 1_555 1_555
Fe2_2 Cl2_2 1_555 1_555
Fe3_3 O4_3 1_555 1_555
O10_2 Fe2_2 1_555 1_555
O11 Fe2_2 1_555 1_555
O12 Fe2_2 1_555 1_555
O13 Fe2_2 1_555 1_555
O5_3 Fe3_3 1_555 1_555
C1_3 C2_3 1_555 1_555
O5_4 C1_4 1_555 1_555
C1_4 O10_2 1_555 1_555
C2_4 O11 1_555 1_555
O6_3 C3_3 1_555 1_555
C3_3 O13 1_555 1_555
C4_3 O12 1_555 1_555
Fe4_3 O6_3 1_555 1_555
C1_4 C2_4 1_555 1_555
C3_3 C4_3 1_555 1_555
O7_3 Fe4_4 1_555 1_555
Fe3_4 O4_4 1_555 1_555
Fe1_2 O1_4 1_555 1_555
O2_3 Fe1_2 1_555 1_555
O3_2 Fe1_2 1_555 1_555
O4_5 C2_5 1_555 1_555
O5_5 C1_5 1_555 1_555
C1_5 O2_3 1_555 1_555
C2_5 O3_2 1_555 1_555
Cl1_3 Fe1_2 1_555 1_555
O8 Fe1_2 1_555 1_555
Fe3_5 O4_5 1_555 1_555
O5_5 Fe3_5 1_555 1_555
C1_5 C2_5 1_555 1_555
O1_5 Fe3_4 1_555 1_555
O6_4 C3_4 1_555 1_555
O7_4 C4_4 1_555 1_555
C3_4 O9 1_555 1_555
Fe3_4 Cl2_3 1_555 1_555
Fe4_5 O6_4 1_555 1_555
O10_3 Fe3_4 1_555 1_555
O11_2 Fe3_4 1_555 1_555
O7_4 Fe4_5 1_555 1_555
C3_4 C4_4 1_555 1_555
O4_6 C2_6 1_555 1_555
O5_6 C1_6 1_555 1_555
C1_6 O10_3 1_555 1_555
C2_6 O11_2 1_555 1_555
Fe3_6 O4_6 1_555 1_555
O5_6 Fe3_6 1_555 1_555
C1_6 C2_6 1_555 1_555
O5_7 Fe3_7 1_555 1_555
Fe3_5 O1_6 1_555 1_555
O1_6 Fe4_2 1_555 1_555
O2_4 Fe3_5 1_555 1_555
O3_3 Fe3_5 1_555 1_555
O4_7 C2_7 1_555 1_555
C1_7 O2_4 1_555 1_555
C2_7 O3_3 1_555 1_555
Cl1_4 Fe3_5 1_555 1_555
Fe4_2 Cl2_4 1_555 1_555
Fe3_8 O4_7 1_555 1_555
O12_2 Fe4_2 1_555 1_555
O13_2 Fe4_2 1_555 1_555
C1_7 C2_7 1_555 1_555
O6_5 C3_5 1_555 1_555
O7_5 C4_5 1_555 1_555
C3_5 O13_2 1_555 1_555
C4_5 O12_2 1_555 1_555
Fe4_6 O6_5 1_555 1_555
O7_5 Fe4_6 1_555 1_555
C3_5 C4_5 1_555 1_555
Fe3_3 O1_7 1_555 1_555
O2_5 Fe3_3 1_555 1_555
O3_4 Fe3_3 1_555 1_555
O4_8 C2_8 1_555 1_555
O5_8 C1_8 1_555 1_555
C1_8 O2_5 1_555 1_555
C2_8 O3_4 1_555 1_555
Fe4 O4_8 1_555 1_555
O5_8 Fe4 1_555 1_555
C1_8 C2_8 1_555 1_555
O1_8 Fe4_6 1_555 1_555
O12_3 Fe4_6 1_555 1_555
O13_3 Fe4_6 1_555 1_555
O6_6 C3_6 1_555 1_555
O7_6 C4_6 1_555 1_555
C3_6 O13_3 1_555 1_555
C4_6 O12_3 1_555 1_555
Fe3_2 O6_6 1_555 1_555
O7_6 Fe3_2 1_555 1_555
C3_6 C4_6 1_555 1_555
Fe4 O1_9 1_555 1_555
O1_9 Fe3_6 1_555 1_555
Cl1_6 Fe4 1_555 1_555
Fe3_6 Cl2_6 1_555 1_555
O10_4 Fe3_6 1_555 1_555
O11_3 Fe3_6 1_555 1_555
O5_9 Fe4_3 1_555 1_555
O4_9 C2_9 1_555 1_555
C1_9 O10_4 1_555 1_555
C2_9 O11_3 1_555 1_555
Fe4_4 O4_9 1_555 1_555
C1_9 C2_9 1_555 1_555
Fe3_7 O1_10 1_555 1_555
O1_10 Fe4_3 1_555 1_555
O2_6 Fe3_7 1_555 1_555
O4_10 C2_10 1_555 1_555
O5_10 C1_10 1_555 1_555
C1_10 O2_6 1_555 1_555
Fe4_5 O4_10 1_555 1_555
O5_10 Fe4_5 1_555 1_555
C1_10 C2_10 1_555 1_555
O3_5 Fe3_8 1_555 1_555
Cl1_7 Fe3_8 1_555 1_555
Fe4_4 Cl2_7 1_555 1_555
Fe4_5 O1_11 1_555 1_555
O1_11 Fe3_2 1_555 1_555
Cl1_8 Fe4_5 1_555 1_555
Fe3_2 Cl2_8 1_555 1_555
O3_6 Fe1_3 1_555 1_555
O8_2 Fe1_3 1_555 1_555
O11_4 Fe2_3 1_555 1_555
O12_4 Fe2_3 1_555 1_555
N1 H2 1_555 1_555
N1 H3 1_555 1_555
N1 H4 1_555 1_555
N1_2 H2_2 1_555 1_555
N1_2 H3_2 1_555 1_555
N1_2 H4_2 1_555 1_555
N1_3 H1_3 1_555 1_555
N1_3 H2_3 1_555 1_555
N1_3 H3_3 1_555 1_555
N1_3 H4_3 1_555 1_555
N1_4 H1_4 1_555 1_555
N1_4 H2_4 1_555 1_555
N1_4 H3_4 1_555 1_555
N1_4 H4_4 1_555 1_555
N1_5 H2_5 1_555 1_555
N1_5 H3_5 1_555 1_555
N1_5 H4_5 1_555 1_555
N1_6 H2_6 1_555 1_555
N1_6 H3_6 1_555 1_555
N1_6 H4_6 1_555 1_555
N1_7 H1_7 1_555 1_555
N1_7 H2_7 1_555 1_555
N1_7 H3_7 1_555 1_555
N1_7 H4_7 1_555 1_555
N1_8 H1_8 1_555 1_555
N1_8 H2_8 1_555 1_555
N1_8 H3_8 1_555 1_555
N1_8 H4_8 1_555 1_555
N1_9 H1_9 1_555 1_555
N1_9 H2_9 1_555 1_555
N1_9 H3_9 1_555 1_555
N1_9 H4_9 1_555 1_555
N1_10 H1_10 1_555 1_555
N1_10 H2_10 1_555 1_555
N1_10 H3_10 1_555 1_555
N1_10 H4_10 1_555 1_555
N1_11 H1_11 1_555 1_555
N1_11 H2_11 1_555 1_555
N1_11 H3_11 1_555 1_555
N1_11 H4_11 1_555 1_555
N1_12 H1_12 1_555 1_555
N1_12 H2_12 1_555 1_555
N1_12 H3_12 1_555 1_555
N1_12 H4_12 1_555 1_555
N1_13 H1_13 1_555 1_555
N1_13 H2_13 1_555 1_555
N1_13 H3_13 1_555 1_555
N1_13 H4_13 1_555 1_555
N1_14 H1_14 1_555 1_555
N1_14 H2_14 1_555 1_555
N1_14 H3_14 1_555 1_555
N1_14 H4_14 1_555 1_555
N1_15 H1_15 1_555 1_555
N1_15 H2_15 1_555 1_555
N1_15 H3_15 1_555 1_555
N1_15 H4_15 1_555 1_555
N1_16 H1_16 1_555 1_555
N1_16 H2_16 1_555 1_555
N1_16 H3_16 1_555 1_555
N1_16 H4_16 1_555 1_555

#END
