
###############################################################################
#
# This file contains modified crystal structure data generated from the
# MOF subset of the Cambridge Structural Database (CSD) v543 
# hosted by the Cambridge Crystallographic Data Centre (CCDC).
#
# This work is licensed under the Creative Commons
# Attribution-NonCommercial-ShareAlike 4.0 International License.
# To view a copy of this license, visit
# http://creativecommons.org/licenses/by-nc-sa/4.0/
# or send a letter to
# Creative Commons, PO Box 1866, Mountain View, CA 94042, USA.
#
# CIF created using the CSD Python API on 29 September 2022
# The structure has been converted into the P1 space group
# The structure has a 3D framework
# The original CSD entry XIQYUU is in the orthorhombic crystal system
# The original CSD entry XIQYUU is in a Sohncke space group
# The framework has been calculated to contain at least 10.0% void space
# The void calculation uses a probe of radius 1.32A, grid spacing 0.4
# The framework is charged, counterions have been retained in the structure
# H atom positions have been added when not included in the experimental data
#
###############################################################################

data_XIQYUU
_chemical_formula_moiety         '(C520 H308 F48 Mn22 N4 O164 P12 8-)n'
_symmetry_cell_setting           triclinic
_symmetry_space_group_name_H-M   'P 1'
_symmetry_Int_Tables_number      1
_space_group_name_Hall           'P 1'
loop_
_symmetry_equiv_pos_site_id
_symmetry_equiv_pos_as_xyz
1 x,y,z
_cell_length_a                   23.0667(8)
_cell_length_b                   26.7047(10)
_cell_length_c                   44.6266(17)
_cell_angle_alpha                90
_cell_angle_beta                 90
_cell_angle_gamma                90
_cell_volume                     27489.5
loop_
_atom_site_label
_atom_site_type_symbol
_atom_site_fract_x
_atom_site_fract_y
_atom_site_fract_z
Mn1 Mn 0.14820(3) 0.18103(4) 0.42090(2)
F1 F 0.5037(4) 0.4187(3) 0.10573(16)
C1 C 0.4769(2) 0.5388(2) 0.75061(19)
H1 H 0.4488 0.5291 0.7651
O1 O 0.3813(2) 0.31015(18) 0.74593(13)
Mn2 Mn 0.33767(3) 0.52524(3) 0.18858(2)
F2 F 0.4948(6) 0.2444(4) 0.0926(2)
C2 C 0.4791(2) 0.2606(3) 0.64154(17)
H2 H 0.5078 0.2668 0.6564
O2 O 0.35616(18) 0.2481(3) 0.68993(13)
Mn3 Mn 0.32949(3) 0.18825(4) 0.42025(2)
C3 C 0.4933(2) 0.2646(3) 0.61166(16)
O3 O 0.2045(2) 0.2263(2) 0.39535(12)
Mn4 Mn 0.49397(3) 0.75253(4) 0.76450(3)
F4 F 0.3043(8) 0.0369(3) 0.4633(2)
C4 C 0.4510(2) 0.2525(2) 0.59064(16)
H3 H 0.4611 0.2532 0.5700
Mn5 Mn 0.51190(3) 0.51983(3) 0.18671(3)
O5 O 0.05132(16) 0.46954(15) 0.65166(11)
F5 F 0.4301(3) 0.6538(3) 0.84480(14)
Mn6 Mn 0.32576(4) 0.25106(4) 0.73440(3)
F6 F 0.6776(11) 0.7625(5) 0.5790(3)
O6 O 0.59816(15) 0.62422(15) 0.74179(10)
P1 P 0.23902(6) 0.21721(7) 0.47682(4)
F7 F 0.7111(8) 0.8164(3) 0.6748(3)
C5 C 0.3312(2) 0.4473(2) 0.70944(19)
P2 P 0.58694(6) 0.67846(6) 0.72622(4)
O8 O 0.14114(15) 0.44182(18) 0.64779(11)
C6 C 0.0116(2) 0.3974(2) 0.61075(15)
F8 F 0.6242(3) 0.6129(3) 0.85109(17)
P3 P 0.41707(6) 0.42992(6) 0.20956(4)
O9 O 0.57080(17) 0.26889(19) 0.57701(13)
F9 F 0.2134(4) 0.5648(3) 0.27837(19)
C7 C 0.6970(5) 0.7796(3) 0.6574(3)
C8 C 0.6826(5) 0.7323(3) 0.66806(19)
H5 H 0.6836 0.7257 0.6890
C9 C 0.6667(4) 0.6947(2) 0.6481(2)
C10 C 0.6653(5) 0.7044(3) 0.6175(2)
H6 H 0.6544 0.6787 0.6039
C11 C 0.6797(7) 0.7517(4) 0.6069(2)
C12 C 0.6956(6) 0.7893(3) 0.6268(3)
H7 H 0.7054 0.8216 0.6195
O10 O 0.18345(16) 0.20896(18) 0.46125(11)
O11 O 0.42423(16) 0.42478(15) 0.24485(11)
O12 O 0.58045(15) 0.66484(14) 0.69184(10)
O13 O 0.36267(15) 0.45413(13) 0.20105(11)
O14 O 0.64231(15) 0.70579(14) 0.73170(11)
O15 O 0.23186(15) 0.19061(16) 0.50867(10)
O16 O 0.40902(15) 0.37299(15) 0.19951(10)
O17 O 0.29458(15) 0.20380(18) 0.46256(10)
O18 O 0.51138(17) 0.09111(17) 0.29353(13)
O19 O 0.24739(15) 0.27528(16) 0.48575(10)
O20 O 0.47323(15) 0.45078(15) 0.19882(11)
O21 O 0.91669(17) 0.44522(18) 0.66059(12)
O22 O 0.77515(17) 0.37522(17) 0.58358(12)
O23 O 0.68432(17) 0.38596(18) 0.59780(14)
O24 O 0.53093(16) 0.69946(16) 0.73482(11)
O25 O 0.25720(19) 0.49981(19) 0.68755(18)
O26 O 0.59922(17) 0.06115(16) 0.28497(11)
C13 C 0.8300(2) 0.4857(2) 0.64372(16)
O27 O 0.57897(17) 0.3122(2) 0.61820(11)
C14 C 0.5514(2) 0.2822(3) 0.60231(18)
F10 F 0.4165(5) 0.5871(3) 0.2948(2)
O28 O 0.47185(19) 0.32677(17) 0.73354(16)
O29 O 0.07451(17) 0.2266(2) 0.30073(12)
F11 F 0.2404(5) 0.3598(3) 0.39700(18)
O30 O 0.23295(17) 0.42802(18) 0.70315(14)
O31 O 0.08542(17) 0.2938(2) 0.27401(12)
F12 F 0.0342(4) 0.3596(4) 0.4169(2)
C15 C 0.3461(2) 0.4015(2) 0.71813(17)
H8 H 0.3176 0.3758 0.7184
O32 O 0.0925(2) 0.1285(2) 0.44645(16)
C16 C 0.1018(3) 0.3444(3) 0.45552(18)
H9 H 0.0708 0.3407 0.4693
C17 C 0.1588(3) 0.3402(3) 0.46535(13)
C18 C 0.2042(3) 0.3455(3) 0.44513(19)
H10 H 0.2432 0.3427 0.4518
C19 C 0.1927(4) 0.3550(3) 0.41510(17)
C20 C 0.1357(5) 0.3592(4) 0.40527(14)
H11 H 0.1278 0.3657 0.3847
C21 C 0.0903(4) 0.3539(3) 0.4255(2)
C22 C 0.4033(2) 0.3903(2) 0.72691(16)
O33 O 0.91360(18) 0.5277(2) 0.66247(14)
C23 C 0.4303(2) 0.4771(2) 0.71969(18)
C24 C 0.0878(2) 0.4433(2) 0.64005(15)
O34 O 0.29574(19) 0.2230(3) 0.38133(14)
C25 C 0.2184(2) 0.2834(2) 0.53693(15)
C26 C 0.1021(2) 0.2636(3) 0.29374(18)
O35 O 0.44643(19) 0.2313(2) 0.70129(12)
C27 C 0.4741(2) 0.5170(2) 0.72254(18)
C28 C 0.6060(2) 0.5770(2) 0.68663(16)
O36 O 0.75174(18) 0.19894(19) 0.27886(15)
C29 C 0.5813(2) 0.1451(2) 0.27139(17)
C30 C 0.3024(2) 0.3382(3) 0.28892(17)
C31 C 0.1799(2) 0.3021(3) 0.55837(15)
C32 C 0.2676(2) 0.2492(2) 0.54469(14)
C33 C 0.8123(2) 0.4452(2) 0.62564(17)
H12 H 0.8400 0.4214 0.6190
C34 C 0.4448(2) 0.3357(2) 0.21134(17)
C35 C 0.4767(3) 0.2785(3) 0.28756(18)
H13 H 0.5169 0.2789 0.2947
H14 H 0.4593 0.2458 0.2919
H15 H 0.4545 0.3047 0.2977
C36 C 0.4232(2) 0.2475(3) 0.65011(16)
C37 C 0.2581(2) 0.3080(3) 0.30544(17)
O37 O 0.7384(2) 0.2471(3) 0.2416(2)
C38 C 0.6454(2) 0.5392(2) 0.67696(16)
C39 C 0.3818(2) 0.2386(3) 0.62861(17)
H16 H 0.3431 0.2316 0.6346
C40 C 0.0947(2) 0.3589(2) 0.57145(15)
C41 C 0.2295(2) 0.2571(3) 0.34844(16)
C42 C 0.6403(2) 0.1576(2) 0.27022(17)
H17 H 0.6684 0.1348 0.2777
C43 C 0.0366(2) 0.3485(3) 0.56764(17)
H18 H 0.0247 0.3287 0.5511
C44 C 0.4382(2) 0.3220(2) 0.24133(16)
C45 C 0.0705(2) 0.4091(2) 0.61470(14)
C46 C 0.3954(2) 0.2397(3) 0.59823(17)
C48 C 0.2694(2) 0.4586(3) 0.69985(18)
C50 C 0.3512(2) 0.2273(3) 0.57532(16)
C51 C 0.5577(2) 0.5646(2) 0.70753(17)
C52 C 0.6576(2) 0.2019(2) 0.25853(17)
C53 C 0.3460(2) 0.3141(2) 0.27213(16)
C54 C 0.3824(3) 0.3967(2) 0.26075(16)
C55 C 0.3094(2) 0.2631(3) 0.56630(15)
C56 C 0.4446(2) 0.4280(2) 0.72677(16)
H19 H 0.4836 0.4201 0.7316
C57 C 0.5410(2) 0.1790(2) 0.26058(17)
H20 H 0.5010 0.1708 0.2615
C58 C 0.8908(2) 0.4857(3) 0.65579(18)
C59 C 0.7901(2) 0.5201(3) 0.65288(18)
H21 H 0.8020 0.5477 0.6648
C60 C 0.2106(2) 0.2969(2) 0.50712(15)
C61 C 0.5565(2) 0.5879(2) 0.73565(17)
C62 C 0.1699(3) 0.3309(3) 0.49801(16)
C63 C 0.4759(2) 0.2876(3) 0.25451(18)
C64 C 0.6880(2) 0.5535(2) 0.65601(17)
C65 C 0.4845(2) 0.3116(3) 0.19222(17)
C66 C 0.1116(2) 0.3886(2) 0.59496(15)
H22 H 0.1516 0.3954 0.5979
C67 C 0.2716(2) 0.2021(3) 0.53108(14)
C68 C 0.6163(2) 0.6265(2) 0.67948(16)
C69 C 0.3111(3) 0.1660(3) 0.54023(18)
C70 C 0.1384(2) 0.3362(3) 0.54932(16)
C71 C 0.1729(2) 0.2541(3) 0.33593(19)
H23 H 0.1429 0.2379 0.3469
C72 C 0.1809(3) 0.2828(3) 0.59063(16)
H24 H 0.1425 0.2699 0.5960
H25 H 0.1914 0.3101 0.6042
H26 H 0.2096 0.2558 0.5924
C73 C 0.7200(2) 0.2175(2) 0.2590(2)
C74 C 0.3395(3) 0.4191(3) 0.27517(18)
C75 C 0.7311(2) 0.5152(2) 0.64477(17)
C76 C 0.5133(2) 0.5305(2) 0.70043(18)
C77 C 0.3738(2) 0.4868(2) 0.71000(19)
H27 H 0.3634 0.5195 0.7037
C78 C 0.6411(2) 0.4874(2) 0.6883(2)
H28 H 0.6797 0.4752 0.6938
H29 H 0.6247 0.4658 0.6727
H30 H 0.6158 0.4867 0.7060
C79 C 0.1608(2) 0.2741(3) 0.30823(17)
C80 C 0.2437(3) 0.2347(3) 0.37706(19)
C81 C 0.6938(3) 0.6027(3) 0.64725(18)
H31 H 0.7228 0.6111 0.6330
C82 C 0.3885(2) 0.3441(2) 0.25809(16)
C83 C 0.3503(3) 0.1795(3) 0.56313(18)
H32 H 0.3769 0.1552 0.5704
C84 C 0.7555(2) 0.4402(2) 0.61767(17)
C85 C 0.3141(3) 0.3151(3) 0.57897(17)
H33 H 0.3088 0.3138 0.6007
H34 H 0.2841 0.3364 0.5701
H35 H 0.3525 0.3289 0.5744
C86 C 0.5163(2) 0.2621(2) 0.23563(19)
C87 C 0.2708(2) 0.2841(3) 0.33207(17)
H36 H 0.3092 0.2860 0.3396
C88 C 0.2015(2) 0.3007(3) 0.29369(18)
H37 H 0.1921 0.3151 0.2748
C89 C 0.7368(2) 0.3972(2) 0.59781(16)
C90 C 0.3106(4) 0.0763(3) 0.55194(15)
H38 H 0.3130 0.0853 0.5725
C91 C 0.3073(5) 0.0261(2) 0.5438(2)
C92 C 0.3038(5) 0.0129(2) 0.5137(2)
C93 C 0.3036(5) 0.0498(3) 0.49180(17)
C94 C 0.3069(4) 0.1000(2) 0.49992(16)
H40 H 0.3068 0.1252 0.4849
C95 C 0.3104(3) 0.11319(19) 0.52999(17)
C96 C 0.7150(2) 0.4763(2) 0.62717(16)
H41 H 0.6757 0.4733 0.6211
C97 C 0.2993(3) 0.3897(3) 0.28984(18)
H42 H 0.2689 0.4052 0.3008
C98 C 0.5633(2) 0.0957(3) 0.28371(19)
C99 C 0.1341(3) 0.3503(3) 0.51963(17)
H43 H 0.1055 0.3741 0.5140
C100 C 0.5230(2) 0.5962(2) 0.78983(11)
C101 C 0.47287(18) 0.6151(2) 0.80293(13)
H44 H 0.4376 0.6157 0.7919
C102 C 0.4744(2) 0.6332(2) 0.83212(14)
C103 C 0.5259(3) 0.6324(2) 0.84822(11)
H45 H 0.5270 0.6448 0.8682
C104 C 0.5760(2) 0.6135(2) 0.83512(14)
C105 C 0.57455(18) 0.5954(2) 0.80592(14)
H46 H 0.6088 0.5825 0.7970
C106 C 0.3464(3) 0.2592(3) 0.2696(2)
H47 H 0.3650 0.2494 0.2507
H48 H 0.3065 0.2466 0.2700
H49 H 0.3681 0.2449 0.2865
C107 C 0.4073(3) 0.2422(3) 0.68290(17)
C108 C 0.4938(3) 0.3685(2) 0.14777(15)
H50 H 0.4945 0.3968 0.1607
C109 C 0.4886(3) 0.3207(2) 0.15973(12)
C110 C 0.4876(3) 0.27927(19) 0.14086(17)
H51 H 0.4841 0.2466 0.1490
C111 C 0.4918(5) 0.2857(3) 0.11003(16)
C112 C 0.4969(4) 0.3336(4) 0.09807(12)
H52 H 0.4998 0.3380 0.0770
C113 C 0.4979(4) 0.3750(3) 0.11694(16)
C114 C 0.5177(3) 0.2744(3) 0.2056(2)
H53 H 0.5434 0.2560 0.1931
C115 C 0.4208(3) 0.3381(2) 0.73556(19)
C116 C 0.5190(3) 0.5745(2) 0.75918(18)
C117 C 0.6586(3) 0.6408(3) 0.65862(19)
C118 C 0.6172(2) 0.2353(3) 0.24654(19)
H54 H 0.6307 0.2650 0.2371
C119 C 0.5583(2) 0.2264(2) 0.24797(17)
C120 C 0.5086(3) 0.5073(3) 0.6701(2)
H55 H 0.5355 0.5239 0.6563
H56 H 0.4688 0.5110 0.6626
H57 H 0.5183 0.4716 0.6714
C121 C 0.3697(4) 0.5579(2) 0.28832(18)
C122 C 0.3142(5) 0.57778(17) 0.28596(17)
H58 H 0.3082 0.6127 0.2885
C123 C 0.2674(3) 0.5466(3) 0.27983(16)
C124 C 0.2762(3) 0.4954(2) 0.27605(15)
H59 H 0.2443 0.4741 0.2719
C125 C 0.3317(3) 0.47556(17) 0.27841(14)
C126 C 0.3784(3) 0.5068(3) 0.28454(16)
H60 H 0.4164 0.4932 0.2862
O38 O 0.4386(2) 0.78126(19) 0.72755(14)
O39 O 0.5709(3) 0.5124(3) 0.2245(2)
O40 O 0.3793(4) 0.2626(3) 0.4202(2)
O41 O 0.2802(5) 0.1826(4) 0.7130(3)
C127 C 0.5400(10) 0.5125(11) 0.2743(5)
H61 H 0.5586 0.5185 0.2937
H62 H 0.5087 0.5369 0.2713
H63 H 0.5239 0.4785 0.2739
C128 C 0.5841(9) 0.5181(9) 0.2497(4)
N1 N 0.6425(8) 0.5054(9) 0.2568(5)
C129 C 0.6949(9) 0.5058(8) 0.2378(5)
H64 H 0.7284 0.4949 0.2496
H65 H 0.6895 0.4829 0.2208
H66 H 0.7017 0.5398 0.2302
C130 C 0.6623(12) 0.4961(13) 0.2891(5)
H67 H 0.7037 0.4879 0.2893
H68 H 0.6556 0.5262 0.3011
H69 H 0.6402 0.4681 0.2976
Mn7 Mn 0.64820(3) 0.31897(4) 0.57910(2)
Mn8 Mn 0.16233(3) 0.47476(3) 0.68858(2)
Mn9 Mn 0.66233(3) 0.02524(3) 0.31142(2)
Mn11 Mn 0.82949(3) 0.31175(4) 0.57975(2)
Mn12 Mn 0.00603(3) 0.24747(4) 0.26450(3)
Mn13 Mn 0.50603(3) 0.25253(4) 0.73550(3)
O42 O 0.41325(18) 0.1598(2) 0.44150(14)
Mn15 Mn 0.98810(3) 0.48017(3) 0.68671(3)
Mn16 Mn 0.48810(3) 0.01983(3) 0.31329(3)
O43 O 0.44868(16) 0.53046(15) 0.15166(11)
Mn17 Mn 0.67424(4) 0.75106(4) 0.76560(3)
Mn18 Mn 0.82576(4) 0.24894(4) 0.26560(3)
O44 O 0.40185(16) 0.15116(19) 0.39332(12)
O45 O 0.35886(15) 0.55818(18) 0.14779(11)
O46 O 0.07080(17) 0.23111(19) 0.42299(13)
O47 O 0.35769(15) 0.20579(14) 0.76830(11)
O48 O 0.48862(17) 0.59111(17) 0.20647(13)
O49 O 0.58331(17) 0.55478(18) 0.16059(12)
O50 O 0.27515(17) 0.12478(17) 0.41642(12)
O51 O 0.18432(17) 0.11404(18) 0.40220(14)
O52 O 0.24280(19) 0.50019(19) 0.18755(18)
O53 O 0.40078(17) 0.56115(16) 0.21503(11)
O54 O 0.07897(17) 0.1878(2) 0.38180(11)
O55 O 0.52815(19) 0.82677(17) 0.76646(16)
O56 O 0.42549(17) 0.7734(2) 0.80073(12)
O57 O 0.26705(17) 0.57198(18) 0.20315(14)
O58 O 0.41458(17) 0.7062(2) 0.77401(12)
O59 O 0.58640(18) 0.4723(2) 0.16247(14)
O60 O 0.55357(19) 0.7313(2) 0.79871(12)
O61 O 0.25174(18) 0.30106(19) 0.72114(15)
O62 O 0.2384(2) 0.2529(3) 0.7584(2)
H70 H 0.116877 0.108482 0.460338
H71 H 0.0634422 0.147768 0.458138
H72 H 0.413509 0.753834 0.719963
H73 H 0.413984 0.809008 0.735134
H74 H 0.406346 0.263434 0.437504
H75 H 0.401653 0.265712 0.401275
H76 H 0.306346 0.153101 0.713941
H77 H 0.243908 0.175216 0.724123
O4 O 0.91325(18) 0.3402(2) 0.55850(14)
O7 O 0.90185(16) 0.34884(19) 0.60668(12)
H4 H 0.9833 0.4108 0.6240
C47 C 0.9952(2) 0.3664(2) 0.58767(16)
C49 C 0.9326(2) 0.3501(3) 0.58439(19)
C1_2 C 0.0231(2) 0.4612(2) 0.25061(19)
H1_2 H 0.0512 0.4709 0.2651
O1_2 O 0.1187(2) 0.68985(18) 0.24593(13)
C2_2 C 0.0209(2) 0.7394(3) 0.14154(17)
O2_2 O 0.14384(18) 0.7519(3) 0.18993(13)
C3_2 C 0.0067(2) 0.7354(3) 0.11166(16)
O4_2 O 0.58675(18) 0.6598(2) 0.05850(14)
C4_2 C 0.0490(2) 0.7475(2) 0.09064(16)
H3_2 H 0.0389 0.7468 0.0700
F5_2 F 0.0699(3) 0.3462(3) 0.34480(14)
Mn6_2 Mn 0.17424(4) 0.74894(4) 0.23440(3)
O7_2 O 0.59815(16) 0.65116(19) 0.10668(12)
C5_2 C 0.1688(2) 0.5527(2) 0.20944(19)
C6_2 C 0.4884(2) 0.6026(2) 0.11075(15)
H4_2 H 0.5167 0.5892 0.1240
O15_2 O 0.26814(15) 0.80939(16) 0.00867(10)
O28_2 O 0.02815(19) 0.67323(17) 0.23354(16)
C15_2 C 0.1539(2) 0.5985(2) 0.21813(17)
H8_2 H 0.1824 0.6242 0.2184
C22_2 C 0.0967(2) 0.6097(2) 0.22691(16)
C23_2 C 0.0697(2) 0.5229(2) 0.21969(18)
C24_2 C 0.4122(2) 0.5567(2) 0.14005(15)
C25_2 C 0.2816(2) 0.7166(2) 0.03693(15)
O35_2 O 0.05357(19) 0.7687(2) 0.20129(12)
C27_2 C 0.0259(2) 0.4830(2) 0.22254(18)
C31_2 C 0.3201(2) 0.6979(3) 0.05837(15)
C32_2 C 0.2324(2) 0.7508(2) 0.04469(14)
C36_2 C 0.0768(2) 0.7525(3) 0.15011(16)
C39_2 C 0.1182(2) 0.7614(3) 0.12861(17)
H16_2 H 0.1569 0.7684 0.1346
C40_2 C 0.4053(2) 0.6411(2) 0.07145(15)
C43_2 C 0.4634(2) 0.6515(3) 0.06764(17)
H18_2 H 0.4753 0.6713 0.0511
C45_2 C 0.4295(2) 0.5909(2) 0.11470(14)
C46_2 C 0.1046(2) 0.7603(3) 0.09823(17)
C47_2 C 0.5048(2) 0.6336(2) 0.08767(16)
C48_2 C 0.2306(2) 0.5414(3) 0.19985(18)
C49_2 C 0.5674(2) 0.6499(3) 0.08439(19)
C50_2 C 0.1488(2) 0.7727(3) 0.07532(16)
C55_2 C 0.1906(2) 0.7369(3) 0.06630(15)
C56_2 C 0.0554(2) 0.5720(2) 0.22677(16)
H19_2 H 0.0164 0.5799 0.2316
C60_2 C 0.2894(2) 0.7031(2) 0.00712(15)
C66_2 C 0.3884(2) 0.6114(2) 0.09496(15)
H22_2 H 0.3484 0.6046 0.0979
C67_2 C 0.2284(2) 0.7979(3) 0.03108(14)
C69_2 C 0.1889(3) 0.8340(3) 0.04023(18)
C70_2 C 0.3616(2) 0.6638(3) 0.04932(16)
C72_2 C 0.3191(3) 0.7172(3) 0.09063(16)
H24_2 H 0.3575 0.7301 0.0960
H25_2 H 0.3086 0.6899 0.1042
H26_2 H 0.2904 0.7442 0.0924
C77_2 C 0.1262(2) 0.5132(2) 0.21000(19)
H27_2 H 0.1366 0.4805 0.2037
C83_2 C 0.1497(3) 0.8205(3) 0.06313(18)
H32_2 H 0.1231 0.8448 0.0704
C85_2 C 0.1859(3) 0.6849(3) 0.07897(17)
H33_2 H 0.1912 0.6862 0.1007
H34_2 H 0.2159 0.6636 0.0701
H35_2 H 0.1475 0.6711 0.0744
C90_2 C 0.1894(4) 0.9237(3) 0.05194(15)
H38_2 H 0.1870 0.9147 0.0725
C91_2 C 0.1927(5) 0.9739(2) 0.0438(2)
C92_2 C 0.1962(5) 0.9871(2) 0.0137(2)
C95_2 C 0.1896(3) 0.88681(19) 0.02999(17)
C99_2 C 0.3659(3) 0.6497(3) 0.01963(17)
H43_2 H 0.3945 0.6259 0.0140
C101_2 C 0.02713(18) 0.3849(2) 0.30293(13)
H44_2 H 0.0624 0.3843 0.2919
C102_2 C 0.0256(2) 0.3668(2) 0.33212(14)
C107_2 C 0.0927(3) 0.7578(3) 0.18290(17)
C115_2 C 0.0792(3) 0.6619(2) 0.23556(19)
H56_2 H 0.0312 0.4890 0.1626
O38_2 O 0.0614(2) 0.21874(19) 0.22755(14)
O41_2 O 0.2198(5) 0.8174(4) 0.2130(3)
Mn10 Mn 0.67051(3) 0.68825(4) 0.07975(2)
O47_2 O 0.14231(15) 0.79421(14) 0.26830(11)
O61_2 O 0.24826(18) 0.69894(19) 0.22114(15)
O62_2 O 0.2616(2) 0.7471(3) 0.2584(2)
H72_2 H 0.0864912 0.246166 0.219963
H73_2 H 0.0860162 0.190992 0.235134
H76_2 H 0.193654 0.846899 0.213941
H77_2 H 0.256092 0.824784 0.224123
Mn1_2 Mn 0.35180(3) 0.81897(4) 0.92090(2)
F2_2 F 0.0052(6) 0.7556(4) 0.5926(2)
Mn3_2 Mn 0.17051(3) 0.81175(4) 0.92025(2)
O3_2 O 0.2955(2) 0.7737(2) 0.89535(12)
F4_2 F 0.1957(8) 0.9631(3) 0.9633(2)
P1_2 P 0.26098(6) 0.78279(7) 0.97682(4)
P3_2 P 0.08293(6) 0.57008(6) 0.70956(4)
F9_2 F 0.2866(4) 0.4352(3) 0.77837(19)
O10_2 O 0.31655(16) 0.79104(18) 0.96125(11)
O11_2 O 0.07577(16) 0.57522(15) 0.74485(11)
O13_2 O 0.13733(15) 0.54587(13) 0.70105(11)
O16_2 O 0.09098(15) 0.62701(15) 0.69951(10)
O17_2 O 0.20542(15) 0.79620(18) 0.96256(10)
O19_2 O 0.25261(15) 0.72472(16) 0.98575(10)
O20_2 O 0.02677(15) 0.54922(15) 0.69882(11)
F10_2 F 0.0835(5) 0.4129(3) 0.7948(2)
F11_2 F 0.2596(5) 0.6402(3) 0.89700(18)
F12_2 F 0.4658(4) 0.6404(4) 0.9169(2)
O32_2 O 0.4075(2) 0.8715(2) 0.94645(16)
C16_2 C 0.3982(3) 0.6556(3) 0.95552(18)
H9_2 H 0.4292 0.6593 0.9693
C17_2 C 0.3412(3) 0.6598(3) 0.96535(13)
C18_2 C 0.2958(3) 0.6545(3) 0.94513(19)
H10_2 H 0.2568 0.6573 0.9518
C19_2 C 0.3073(4) 0.6450(3) 0.91510(17)
C20_2 C 0.3643(5) 0.6408(4) 0.90527(14)
H11_2 H 0.3722 0.6343 0.8847
C21_2 C 0.4097(4) 0.6461(3) 0.9255(2)
O34_2 O 0.20426(19) 0.7770(3) 0.88133(14)
C26_2 C 0.3979(2) 0.7364(3) 0.79374(18)
C30_2 C 0.1976(2) 0.6618(3) 0.78892(17)
C34_2 C 0.0552(2) 0.6643(2) 0.71134(17)
C35_2 C 0.0233(3) 0.7215(3) 0.78756(18)
H14_2 H 0.0407 0.7542 0.7919
H15_2 H 0.0455 0.6953 0.7977
C37_2 C 0.2419(2) 0.6920(3) 0.80544(17)
C41_2 C 0.2705(2) 0.7429(3) 0.84844(16)
C44_2 C 0.0618(2) 0.6780(2) 0.74133(16)
C53_2 C 0.1540(2) 0.6859(2) 0.77213(16)
C54_2 C 0.1176(3) 0.6033(2) 0.76075(16)
C62_2 C 0.3301(3) 0.6691(3) 0.99801(16)
C63_2 C 0.0241(2) 0.7124(3) 0.75451(18)
C65_2 C 0.0155(2) 0.6884(3) 0.69222(17)
C71_2 C 0.3271(2) 0.7459(3) 0.83593(19)
H23_2 H 0.3571 0.7621 0.8469
C74_2 C 0.1605(3) 0.5809(3) 0.77517(18)
C79_2 C 0.3392(2) 0.7259(3) 0.80823(17)
C80_2 C 0.2563(3) 0.7653(3) 0.87706(19)
C82_2 C 0.1115(2) 0.6559(2) 0.75809(16)
C87_2 C 0.2292(2) 0.7159(3) 0.83207(17)
H36_2 H 0.1908 0.7140 0.8396
C88_2 C 0.2985(2) 0.6993(3) 0.79369(18)
H37_2 H 0.3079 0.6849 0.7748
C93_2 C 0.1964(5) 0.9502(3) 0.99180(17)
C94_2 C 0.1931(4) 0.9000(2) 0.99992(16)
H40_2 H 0.1932 0.8748 0.9849
C97_2 C 0.2007(3) 0.6103(3) 0.78984(18)
H42_2 H 0.2311 0.5948 0.8008
C106_2 C 0.1536(3) 0.7408(3) 0.7696(2)
H47_2 H 0.1350 0.7506 0.7507
H48_2 H 0.1935 0.7534 0.7700
H49_2 H 0.1319 0.7551 0.7865
C108_2 C 0.0062(3) 0.6315(2) 0.64777(15)
H50_2 H 0.0055 0.6032 0.6607
C109_2 C 0.0114(3) 0.6793(2) 0.65973(12)
C110_2 C 0.0124(3) 0.72073(19) 0.64086(17)
H51_2 H 0.0159 0.7534 0.6490
C111_2 C 0.0082(5) 0.7143(3) 0.61003(16)
C112_2 C 0.0031(4) 0.6664(4) 0.59807(12)
H52_2 H 0.0002 0.6620 0.5770
C113_2 C 0.0021(4) 0.6250(3) 0.61694(16)
C121_2 C 0.1303(4) 0.4421(2) 0.78832(18)
C122_2 C 0.1858(5) 0.42222(17) 0.78596(17)
H58_2 H 0.1918 0.3873 0.7885
C123_2 C 0.2326(3) 0.4534(3) 0.77983(16)
C124_2 C 0.2238(3) 0.5046(2) 0.77605(15)
H59_2 H 0.2557 0.5259 0.7719
C125_2 C 0.1683(3) 0.52444(17) 0.77841(14)
C126_2 C 0.1216(3) 0.4932(3) 0.78454(16)
H60_2 H 0.0836 0.5068 0.7862
O40_2 O 0.1207(4) 0.7374(3) 0.9202(2)
O42_2 O 0.08675(18) 0.8402(2) 0.94150(14)
Mn16_2 Mn 0.01190(3) 0.98017(3) 0.81329(3)
O44_2 O 0.09815(16) 0.84884(19) 0.89332(12)
O46_2 O 0.42920(17) 0.76889(19) 0.92299(13)
O48_2 O 0.01138(17) 0.40889(17) 0.70647(13)
O50_2 O 0.22485(17) 0.87522(17) 0.91642(12)
O51_2 O 0.31568(17) 0.88596(18) 0.90220(14)
O53_2 O 0.09922(17) 0.43885(16) 0.71503(11)
O54_2 O 0.42103(17) 0.8122(2) 0.88180(11)
H70_2 H 0.383123 0.891518 0.960338
H71_2 H 0.436558 0.852232 0.958138
H74_2 H 0.0936538 0.736566 0.937504
H75_2 H 0.0983473 0.734288 0.901275
H2_2 H 0.9922 0.7332 0.1564
F6_2 F 0.8224(11) 0.2375(5) 0.0790(3)
O6_2 O 0.90184(15) 0.37578(15) 0.24179(10)
F7_2 F 0.7889(8) 0.1836(3) 0.1748(3)
P2_2 P 0.91306(6) 0.32154(6) 0.22622(4)
F8_2 F 0.8758(3) 0.3871(3) 0.35109(17)
O9_2 O 0.92920(17) 0.73111(19) 0.07701(13)
C7_2 C 0.8030(5) 0.2204(3) 0.1574(3)
C8_2 C 0.8174(5) 0.2677(3) 0.16806(19)
H5_2 H 0.8164 0.2743 0.1890
C9_2 C 0.8333(4) 0.3053(2) 0.1481(2)
C10_2 C 0.8347(5) 0.2956(3) 0.1175(2)
H6_2 H 0.8456 0.3213 0.1039
C11_2 C 0.8203(7) 0.2483(4) 0.1069(2)
C12_2 C 0.8044(6) 0.2107(3) 0.1268(3)
H7_2 H 0.7946 0.1784 0.1195
O12_2 O 0.91955(15) 0.33516(14) 0.19184(10)
O14_2 O 0.85769(15) 0.29421(14) 0.23170(11)
O22_2 O 0.72485(17) 0.62478(17) 0.08358(12)
O23_2 O 0.81568(17) 0.61404(18) 0.09780(14)
O24_2 O 0.96907(16) 0.30054(16) 0.23482(11)
C13_2 C 0.6700(2) 0.5143(2) 0.14372(16)
O27_2 O 0.92103(17) 0.6878(2) 0.11820(11)
C14_2 C 0.9486(2) 0.7178(3) 0.10231(18)
C28_2 C 0.8940(2) 0.4230(2) 0.18663(16)
C33_2 C 0.6877(2) 0.5548(2) 0.12564(17)
H12_2 H 0.6600 0.5786 0.1190
C38_2 C 0.8546(2) 0.4608(2) 0.17696(16)
C51_2 C 0.9423(2) 0.4354(2) 0.20753(17)
C58_2 C 0.6092(2) 0.5143(3) 0.15579(18)
C59_2 C 0.7099(2) 0.4799(3) 0.15288(18)
H21_2 H 0.6980 0.4523 0.1648
C61_2 C 0.9435(2) 0.4121(2) 0.23565(17)
C64_2 C 0.8120(2) 0.4465(2) 0.15601(17)
C68_2 C 0.8837(2) 0.3735(2) 0.17948(16)
C75_2 C 0.7689(2) 0.4848(2) 0.14477(17)
C76_2 C 0.9867(2) 0.4695(2) 0.20043(18)
C78_2 C 0.8589(2) 0.5126(2) 0.1883(2)
H28_2 H 0.8203 0.5248 0.1938
H29_2 H 0.8753 0.5342 0.1727
H30_2 H 0.8842 0.5133 0.2060
C81_2 C 0.8062(3) 0.3973(3) 0.14725(18)
H31_2 H 0.7772 0.3889 0.1330
C84_2 C 0.7445(2) 0.5598(2) 0.11767(17)
C89_2 C 0.7632(2) 0.6028(2) 0.09781(16)
C96_2 C 0.7850(2) 0.5237(2) 0.12717(16)
H41_2 H 0.8243 0.5267 0.1211
C100_2 C 0.9770(2) 0.4038(2) 0.28983(11)
C103_2 C 0.9741(3) 0.3676(2) 0.34822(11)
H45_2 H 0.9730 0.3552 0.3682
C104_2 C 0.9240(2) 0.3865(2) 0.33512(14)
C105_2 C 0.92545(18) 0.4046(2) 0.30592(14)
H46_2 H 0.8912 0.4175 0.2970
C116_2 C 0.9810(3) 0.4255(2) 0.25918(18)
C117_2 C 0.8414(3) 0.3592(3) 0.15862(19)
C120_2 C 0.9914(3) 0.4927(3) 0.1701(2)
H55_2 H 0.9645 0.4761 0.1563
H57_2 H 0.9817 0.5284 0.1714
Mn7_2 Mn 0.85180(3) 0.68103(4) 0.07910(2)
Mn13_2 Mn 0.99397(3) 0.74747(4) 0.23550(3)
O55_2 O 0.97185(19) 0.17323(17) 0.26646(16)
O60_2 O 0.94643(19) 0.2687(2) 0.29871(12)
F1_2 F 0.9963(4) 0.5813(3) 0.60573(16)
O18_2 O 0.98862(17) 0.90889(17) 0.79353(13)
O26_2 O 0.90078(17) 0.93885(16) 0.78497(11)
O36_2 O 0.74826(18) 0.80106(19) 0.77886(15)
C29_2 C 0.9187(2) 0.8549(2) 0.77139(17)
H13_2 H 0.9831 0.7211 0.7947
O37_2 O 0.7616(2) 0.7529(3) 0.7416(2)
C42_2 C 0.8597(2) 0.8424(2) 0.77022(17)
H17_2 H 0.8316 0.8652 0.7777
C52_2 C 0.8424(2) 0.7981(2) 0.75853(17)
C57_2 C 0.9590(2) 0.8210(2) 0.76058(17)
H20_2 H 0.9990 0.8292 0.7615
C73_2 C 0.7800(2) 0.7825(2) 0.7590(2)
C86_2 C 0.9837(2) 0.7379(2) 0.73563(19)
C98_2 C 0.9367(2) 0.9043(3) 0.78371(19)
C114_2 C 0.9823(3) 0.7256(3) 0.7056(2)
H53_2 H 0.9566 0.7440 0.6931
C118_2 C 0.8828(2) 0.7647(3) 0.74654(19)
H54_2 H 0.8693 0.7350 0.7371
C119_2 C 0.9417(2) 0.7736(2) 0.74797(17)
O39_2 O 0.9291(3) 0.4876(3) 0.7245(2)
C127_2 C 0.9600(10) 0.4875(11) 0.7743(5)
H61_2 H 0.9414 0.4815 0.7937
H62_2 H 0.9913 0.4631 0.7713
H63_2 H 0.9761 0.5215 0.7739
C128_2 C 0.9159(9) 0.4819(9) 0.7497(4)
N1_2 N 0.8575(8) 0.4946(9) 0.7568(5)
C129_2 C 0.8051(9) 0.4942(8) 0.7378(5)
H64_2 H 0.7716 0.5051 0.7496
H65_2 H 0.8105 0.5171 0.7208
H66_2 H 0.7983 0.4602 0.7302
C130_2 C 0.8377(12) 0.5039(13) 0.7891(5)
H67_2 H 0.7963 0.5121 0.7893
H68_2 H 0.8444 0.4738 0.8011
H69_2 H 0.8598 0.5319 0.7976
Mn9_2 Mn 0.83767(3) 0.97476(3) 0.81142(2)
H4_3 H 0.0167 0.9108 0.8760
C47_3 C 0.0048(2) 0.8664(2) 0.91233(16)
C49_3 C 0.0674(2) 0.8501(3) 0.91561(19)
F9_3 F 0.7866(4) 0.0648(3) 0.22163(19)
F10_3 F 0.5835(5) 0.0871(3) 0.2052(2)
C121_3 C 0.6303(4) 0.0579(2) 0.21168(18)
C122_3 C 0.6858(5) 0.07778(17) 0.21404(17)
H58_3 H 0.6918 0.1127 0.2115
C123_3 C 0.7326(3) 0.0466(3) 0.22017(16)
C126_3 C 0.6216(3) 0.0068(3) 0.21546(16)
O39_3 O 0.4291(3) 0.0124(3) 0.2755(2)
C127_3 C 0.4600(10) 0.0125(11) 0.2257(5)
H61_3 H 0.4414 0.0185 0.2063
H62_3 H 0.4913 0.0369 0.2287
C128_3 C 0.4159(9) 0.0181(9) 0.2503(4)
N1_3 N 0.3575(8) 0.0054(9) 0.2432(5)
C129_3 C 0.3051(9) 0.0058(8) 0.2622(5)
H66_3 H 0.2983 0.0398 0.2698
H68_3 H 0.3444 0.0262 0.1989
O43_2 O 0.55132(16) 0.03046(15) 0.34834(11)
O45_2 O 0.64114(15) 0.05818(18) 0.35221(11)
O49_2 O 0.41669(17) 0.05478(18) 0.33941(12)
O52_2 O 0.75720(19) 0.00019(19) 0.31245(18)
O57_2 O 0.73295(17) 0.07198(18) 0.29685(14)
C1_3 C 0.5231(2) 0.0388(2) 0.74939(19)
H1_3 H 0.5512 0.0291 0.7349
F5_3 F 0.5699(3) 0.1538(3) 0.65520(14)
F6_3 F 0.3224(11) 0.2625(5) 0.9210(3)
O6_3 O 0.40184(15) 0.12422(15) 0.75821(10)
F7_3 F 0.2889(8) 0.3164(3) 0.8252(3)
P2_3 P 0.41306(6) 0.17846(6) 0.77378(4)
F8_3 F 0.3758(3) 0.1129(3) 0.64891(17)
C7_3 C 0.3030(5) 0.2796(3) 0.8426(3)
C8_3 C 0.3174(5) 0.2323(3) 0.83194(19)
H5_3 H 0.3164 0.2257 0.8110
C9_3 C 0.3333(4) 0.1947(2) 0.8519(2)
C10_3 C 0.3347(5) 0.2044(3) 0.8825(2)
H6_3 H 0.3456 0.1787 0.8961
C11_3 C 0.3203(7) 0.2517(4) 0.8931(2)
C12_3 C 0.3044(6) 0.2893(3) 0.8732(3)
H7_3 H 0.2946 0.3216 0.8805
O12_3 O 0.41955(15) 0.16484(14) 0.80816(10)
O24_3 O 0.46907(16) 0.19946(16) 0.76518(11)
O33_2 O 0.08640(18) 0.0277(2) 0.83753(14)
C27_3 C 0.5259(2) 0.0170(2) 0.77746(18)
C28_3 C 0.3940(2) 0.0770(2) 0.81337(16)
C38_3 C 0.3546(2) 0.0392(2) 0.82304(16)
C51_3 C 0.4423(2) 0.0646(2) 0.79247(17)
C59_3 C 0.2099(2) 0.0201(3) 0.84712(18)
H21_3 H 0.1980 0.0477 0.8352
C61_3 C 0.4435(2) 0.0879(2) 0.76435(17)
C64_3 C 0.3120(2) 0.0535(2) 0.84399(17)
C68_3 C 0.3837(2) 0.1265(2) 0.82052(16)
C75_3 C 0.2689(2) 0.0152(2) 0.85523(17)
C76_3 C 0.4867(2) 0.0305(2) 0.79957(18)
H27_3 H 0.6366 0.0195 0.7963
C81_3 C 0.3062(3) 0.1027(3) 0.85275(18)
H31_3 H 0.2772 0.1111 0.8670
C100_3 C 0.4770(2) 0.0962(2) 0.71017(11)
C101_3 C 0.52713(18) 0.1151(2) 0.69707(13)
H44_3 H 0.5624 0.1157 0.7081
C102_3 C 0.5256(2) 0.1332(2) 0.66788(14)
C103_3 C 0.4741(3) 0.1324(2) 0.65178(11)
H45_3 H 0.4730 0.1448 0.6318
C104_3 C 0.4240(2) 0.1135(2) 0.66488(14)
C105_3 C 0.42545(18) 0.0954(2) 0.69408(14)
H46_3 H 0.3912 0.0825 0.7030
C116_3 C 0.4810(3) 0.0745(2) 0.74082(18)
C117_3 C 0.3414(3) 0.1408(3) 0.84138(19)
C120_3 C 0.4914(3) 0.0073(3) 0.8299(2)
H55_3 H 0.4645 0.0239 0.8437
H56_3 H 0.5312 0.0110 0.8374
O38_3 O 0.5614(2) 0.28126(19) 0.77245(14)
O56_2 O 0.57451(17) 0.2734(2) 0.69927(12)
O58_2 O 0.58542(17) 0.2062(2) 0.72599(12)
H72_3 H 0.586491 0.253834 0.780037
H73_3 H 0.586016 0.309008 0.764866
F1_3 F 0.4963(4) 0.9187(3) 0.39427(16)
F2_3 F 0.5052(6) 0.7444(4) 0.4074(2)
O3_3 O 0.7955(2) 0.7263(2) 0.10465(12)
F4_3 F 0.6957(8) 0.5369(3) 0.0367(2)
P1_3 P 0.76098(6) 0.71721(7) 0.02318(4)
P3_3 P 0.58293(6) 0.92992(6) 0.29044(4)
O10_3 O 0.81655(16) 0.70896(18) 0.03875(11)
O11_3 O 0.57577(16) 0.92478(15) 0.25515(11)
O13_3 O 0.63733(15) 0.95413(13) 0.29895(11)
O16_3 O 0.59098(15) 0.87299(15) 0.30049(10)
O17_3 O 0.70542(15) 0.70380(18) 0.03744(10)
O19_3 O 0.75261(15) 0.77528(16) 0.01425(10)
O20_3 O 0.52677(15) 0.95078(15) 0.30118(11)
O29_2 O 0.92549(17) 0.7266(2) 0.19927(12)
F11_3 F 0.7596(5) 0.8598(3) 0.10300(18)
O31_2 O 0.91458(17) 0.7938(2) 0.22599(12)
F12_3 F 0.9658(4) 0.8596(4) 0.0831(2)
O32_3 O 0.9075(2) 0.6285(2) 0.05355(16)
C16_3 C 0.8982(3) 0.8444(3) 0.04448(18)
H9_3 H 0.9292 0.8407 0.0307
C17_3 C 0.8412(3) 0.8402(3) 0.03465(13)
C18_3 C 0.7958(3) 0.8455(3) 0.05487(19)
H10_3 H 0.7568 0.8427 0.0482
C19_3 C 0.8073(4) 0.8550(3) 0.08490(17)
C20_3 C 0.8643(5) 0.8592(4) 0.09473(14)
H11_3 H 0.8722 0.8657 0.1153
C21_3 C 0.9097(4) 0.8539(3) 0.0745(2)
O34_3 O 0.70426(19) 0.7230(3) 0.11867(14)
C26_3 C 0.8979(2) 0.7636(3) 0.20626(18)
C29_3 C 0.4187(2) 0.6451(2) 0.22861(17)
C30_3 C 0.6976(2) 0.8382(3) 0.21108(17)
C34_3 C 0.5552(2) 0.8357(2) 0.28866(17)
C35_3 C 0.5233(3) 0.7785(3) 0.21244(18)
H13_3 H 0.4831 0.7789 0.2053
H14_3 H 0.5407 0.7458 0.2081
H15_3 H 0.5455 0.8047 0.2023
C37_3 C 0.7419(2) 0.8080(3) 0.19456(17)
C41_3 C 0.7705(2) 0.7571(3) 0.15156(16)
C42_3 C 0.3597(2) 0.6576(2) 0.22978(17)
H17_3 H 0.3316 0.6348 0.2223
C44_3 C 0.5618(2) 0.8220(2) 0.25867(16)
C52_3 C 0.3424(2) 0.7019(2) 0.24147(17)
C53_3 C 0.6540(2) 0.8141(2) 0.22787(16)
C54_3 C 0.6176(3) 0.8967(2) 0.23925(16)
C57_3 C 0.4590(2) 0.6790(2) 0.23942(17)
H20_3 H 0.4990 0.6708 0.2385
C62_3 C 0.8301(3) 0.8309(3) 0.00199(16)
C63_3 C 0.5241(2) 0.7876(3) 0.24549(18)
C65_3 C 0.5155(2) 0.8116(3) 0.30778(17)
C71_3 C 0.8271(2) 0.7541(3) 0.16407(19)
H23_3 H 0.8571 0.7379 0.1531
C73_3 C 0.2800(2) 0.7175(2) 0.2410(2)
C74_3 C 0.6605(3) 0.9191(3) 0.22483(18)
C79_3 C 0.8392(2) 0.7741(3) 0.19177(17)
C80_3 C 0.7563(3) 0.7347(3) 0.12294(19)
C82_3 C 0.6115(2) 0.8441(2) 0.24191(16)
C86_3 C 0.4837(2) 0.7621(2) 0.26437(19)
C87_3 C 0.7292(2) 0.7841(3) 0.16793(17)
H36_3 H 0.6908 0.7860 0.1604
C88_3 C 0.7985(2) 0.8007(3) 0.20631(18)
H37_3 H 0.8079 0.8151 0.2252
C93_3 C 0.6964(5) 0.5498(3) 0.00820(17)
C94_3 C 0.6931(4) 0.6000(2) 0.00008(16)
H40_3 H 0.6932 0.6252 0.0151
C97_3 C 0.7007(3) 0.8897(3) 0.21016(18)
H42_3 H 0.7311 0.9052 0.1992
C98_3 C 0.4367(2) 0.5957(3) 0.21629(19)
C106_3 C 0.6536(3) 0.7592(3) 0.2304(2)
H47_3 H 0.6350 0.7494 0.2493
H48_3 H 0.6935 0.7466 0.2300
H49_3 H 0.6319 0.7449 0.2135
C108_3 C 0.5062(3) 0.8685(2) 0.35223(15)
H50_3 H 0.5055 0.8968 0.3393
C109_3 C 0.5114(3) 0.8207(2) 0.34027(12)
C110_3 C 0.5124(3) 0.77927(19) 0.35914(17)
H51_3 H 0.5159 0.7466 0.3510
C111_3 C 0.5082(5) 0.7857(3) 0.38997(16)
C112_3 C 0.5031(4) 0.8336(4) 0.40193(12)
H52_3 H 0.5002 0.8380 0.4230
C113_3 C 0.5021(4) 0.8750(3) 0.38306(16)
C114_3 C 0.4823(3) 0.7744(3) 0.2944(2)
H53_3 H 0.4566 0.7560 0.3069
C118_3 C 0.3828(2) 0.7353(3) 0.25346(19)
H54_3 H 0.3693 0.7650 0.2629
C119_3 C 0.4417(2) 0.7264(2) 0.25203(17)
C124_3 C 0.7238(3) 0.9954(2) 0.22395(15)
H59_3 H 0.7557 0.9741 0.2281
C125_3 C 0.6683(3) 0.97556(17) 0.22159(14)
H60_3 H 0.5836 0.9932 0.2138
O40_3 O 0.6207(4) 0.7626(3) 0.0798(2)
H63_3 H 0.4761 0.9785 0.2261
H64_3 H 0.2716 0.9949 0.2504
H65_3 H 0.3105 0.9829 0.2792
C130_3 C 0.3377(12) 0.9961(13) 0.2109(5)
H67_3 H 0.2963 0.9879 0.2107
H69_3 H 0.3598 0.9681 0.2024
O59_2 O 0.41360(18) 0.9723(2) 0.33753(14)
H70_3 H 0.883123 0.608482 0.0396622
H71_3 H 0.936558 0.647768 0.0418623
H74_3 H 0.593654 0.763434 0.0624957
H75_3 H 0.598347 0.765712 0.0987252
O1_3 O 0.6187(2) 0.81015(18) 0.75407(13)
C2_3 C 0.5209(2) 0.7606(3) 0.85846(17)
H2_3 H 0.4922 0.7668 0.8436
O2_3 O 0.64384(18) 0.7481(3) 0.81007(13)
F3 F 0.6855(7) 0.4893(3) 0.9370(3)
C3_3 C 0.5067(2) 0.7646(3) 0.88834(16)
C4_3 C 0.5490(2) 0.7525(2) 0.90936(16)
H3_3 H 0.5389 0.7532 0.9300
O5_2 O 0.94868(16) 0.96954(15) 0.84834(11)
C5_3 C 0.6688(2) 0.9473(2) 0.79056(19)
O8_2 O 0.85886(15) 0.94182(18) 0.85221(11)
C6_3 C 0.9884(2) 0.8974(2) 0.88925(15)
O15_3 O 0.76814(15) 0.69061(16) 0.99133(10)
O21_2 O 0.08331(17) 0.94522(18) 0.83941(12)
O25_2 O 0.74280(19) 0.99981(19) 0.81245(18)
C13_3 C 0.1700(2) 0.9857(2) 0.85628(16)
C14_3 C 0.4486(2) 0.7822(3) 0.89769(18)
O30_2 O 0.76705(17) 0.92802(18) 0.79685(14)
C15_3 C 0.6539(2) 0.9015(2) 0.78187(17)
H8_3 H 0.6824 0.8758 0.7816
C22_3 C 0.5967(2) 0.8903(2) 0.77309(16)
C23_3 C 0.5697(2) 0.9771(2) 0.78031(18)
C24_3 C 0.9122(2) 0.9433(2) 0.85995(15)
C25_3 C 0.7816(2) 0.7834(2) 0.96307(15)
C31_3 C 0.8201(2) 0.8021(3) 0.94163(15)
C32_3 C 0.7324(2) 0.7492(2) 0.95531(14)
C33_3 C 0.1877(2) 0.9452(2) 0.87436(17)
H12_3 H 0.1600 0.9214 0.8810
C36_3 C 0.5768(2) 0.7475(3) 0.84989(16)
C39_3 C 0.6182(2) 0.7386(3) 0.87139(17)
H16_3 H 0.6569 0.7316 0.8654
C40_3 C 0.9053(2) 0.8589(2) 0.92855(15)
C43_3 C 0.9634(2) 0.8485(3) 0.93236(17)
H18_3 H 0.9753 0.8287 0.9489
C45_3 C 0.9295(2) 0.9091(2) 0.88530(14)
C46_3 C 0.6046(2) 0.7397(3) 0.90177(17)
C48_3 C 0.7306(2) 0.9586(3) 0.80015(18)
C50_3 C 0.6488(2) 0.7273(3) 0.92468(16)
C55_3 C 0.6906(2) 0.7631(3) 0.93370(15)
C56_3 C 0.5554(2) 0.9280(2) 0.77323(16)
H19_3 H 0.5164 0.9201 0.7684
C58_3 C 0.1092(2) 0.9857(3) 0.84421(18)
C60_3 C 0.7894(2) 0.7969(2) 0.99288(15)
C66_3 C 0.8884(2) 0.8886(2) 0.90504(15)
H22_3 H 0.8484 0.8954 0.9021
C67_3 C 0.7284(2) 0.7021(3) 0.96892(14)
C69_3 C 0.6889(3) 0.6660(3) 0.95977(18)
C70_3 C 0.8616(2) 0.8362(3) 0.95068(16)
C72_3 C 0.8191(3) 0.7828(3) 0.90937(16)
H24_3 H 0.8575 0.7699 0.9040
H25_3 H 0.8086 0.8101 0.8958
H26_3 H 0.7904 0.7558 0.9076
C77_3 C 0.6262(2) 0.9868(2) 0.79000(19)
C78_3 C 0.3589(2) 0.9874(2) 0.8117(2)
H28_3 H 0.3203 0.9752 0.8062
H29_3 H 0.3753 0.9658 0.8273
H30_3 H 0.3842 0.9867 0.7940
C83_3 C 0.6497(3) 0.6795(3) 0.93687(18)
H32_3 H 0.6231 0.6552 0.9296
C84_3 C 0.2445(2) 0.9402(2) 0.88233(17)
C85_3 C 0.6859(3) 0.8151(3) 0.92103(17)
H33_3 H 0.6912 0.8138 0.8993
H34_3 H 0.7159 0.8364 0.9299
H35_3 H 0.6475 0.8289 0.9256
C89_3 C 0.2632(2) 0.8972(2) 0.90219(16)
C90_3 C 0.6894(4) 0.5763(3) 0.94806(15)
H38_3 H 0.6870 0.5853 0.9275
C91_3 C 0.6927(5) 0.5261(2) 0.9562(2)
C92_3 C 0.6962(5) 0.5129(2) 0.9863(2)
H39 H 0.6985 0.4786 0.9918
C95_3 C 0.6896(3) 0.61319(19) 0.97001(17)
C96_3 C 0.2850(2) 0.9763(2) 0.87283(16)
H41_3 H 0.3243 0.9733 0.8789
C99_3 C 0.8659(3) 0.8503(3) 0.98037(17)
H43_3 H 0.8945 0.8741 0.9860
C107_3 C 0.5927(3) 0.7422(3) 0.81710(17)
C115_3 C 0.5792(3) 0.8381(2) 0.76444(19)
H57_3 H 0.4817 0.9716 0.8286
O41_3 O 0.7198(5) 0.6826(4) 0.7870(3)
H76_3 H 0.693654 0.653101 0.786059
H77_3 H 0.756092 0.675216 0.775877
F1_4 F 0.0037(4) 0.0813(3) 0.89427(16)
H2_4 H 0.0078 0.2332 0.3436
C13_4 C 0.3300(2) 0.0143(2) 0.35628(16)
C14_4 C 0.0514(2) 0.2178(3) 0.39769(18)
C29_4 C 0.0813(2) 0.3549(2) 0.72861(17)
C33_4 C 0.3123(2) 0.0548(2) 0.37436(17)
H12_4 H 0.3400 0.0786 0.3810
H13_4 H 0.0169 0.2211 0.7053
C42_4 C 0.1403(2) 0.3424(2) 0.72978(17)
H17_4 H 0.1684 0.3652 0.7223
C52_4 C 0.1576(2) 0.2981(2) 0.74147(17)
C57_4 C 0.0410(2) 0.3210(2) 0.73942(17)
H20_4 H 0.0010 0.3292 0.7385
C58_4 C 0.3908(2) 0.0143(3) 0.34421(18)
C73_4 C 0.2200(2) 0.2825(2) 0.7410(2)
C78_4 C 0.1411(2) 0.0126(2) 0.3117(2)
H28_4 H 0.1797 0.0248 0.3062
H29_4 H 0.1247 0.0342 0.3273
H30_4 H 0.1158 0.0133 0.2940
C84_4 C 0.2555(2) 0.0598(2) 0.38233(17)
C86_4 C 0.0163(2) 0.2379(2) 0.76437(19)
C89_4 C 0.2368(2) 0.1028(2) 0.40219(16)
C96_4 C 0.2150(2) 0.0237(2) 0.37283(16)
H41_4 H 0.1757 0.0267 0.3789
C98_4 C 0.0633(2) 0.4043(3) 0.71629(19)
C114_4 C 0.0177(3) 0.2256(3) 0.7944(2)
H53_4 H 0.0434 0.2440 0.8069
C118_4 C 0.1172(2) 0.2647(3) 0.75346(19)
H54_4 H 0.1307 0.2350 0.7629
C119_4 C 0.0583(2) 0.2736(2) 0.75203(17)
H57_4 H 0.0183 0.0284 0.3286
H63_4 H 0.0239 0.0215 0.7261
H64_4 H 0.2284 0.0051 0.7504
H65_4 H 0.1895 0.0171 0.7792
C130_4 C 0.1623(12) 0.0039(13) 0.7109(5)
H67_4 H 0.2037 0.0121 0.7107
H69_4 H 0.1402 0.0319 0.7024
F6_4 F 0.1776(11) 0.7375(5) 0.4210(3)
O6_4 O 0.09816(15) 0.87578(15) 0.25821(10)
F7_4 F 0.2111(8) 0.6836(3) 0.3252(3)
P2_4 P 0.08694(6) 0.82154(6) 0.27378(4)
F8_4 F 0.1242(3) 0.8871(3) 0.14891(17)
C7_4 C 0.1970(5) 0.7204(3) 0.3426(3)
C8_4 C 0.1826(5) 0.7677(3) 0.33194(19)
H5_4 H 0.1836 0.7743 0.3110
C9_4 C 0.1667(4) 0.8053(2) 0.3519(2)
C10_4 C 0.1653(5) 0.7956(3) 0.3825(2)
H6_4 H 0.1544 0.8213 0.3961
C11_4 C 0.1797(7) 0.7483(4) 0.3931(2)
C12_4 C 0.1956(6) 0.7107(3) 0.3732(3)
H7_4 H 0.2054 0.6784 0.3805
O12_4 O 0.08045(15) 0.83516(14) 0.30816(10)
O24_4 O 0.03093(16) 0.80054(16) 0.26518(11)
C28_4 C 0.1060(2) 0.9230(2) 0.31337(16)
C38_4 C 0.1454(2) 0.9608(2) 0.32304(16)
C51_4 C 0.0577(2) 0.9354(2) 0.29247(17)
C59_4 C 0.2901(2) 0.9799(3) 0.34712(18)
H21_4 H 0.3020 0.9523 0.3352
C61_4 C 0.0565(2) 0.9121(2) 0.26435(17)
C64_4 C 0.1880(2) 0.9465(2) 0.34399(17)
C68_4 C 0.1163(2) 0.8735(2) 0.32052(16)
C75_4 C 0.2311(2) 0.9848(2) 0.35523(17)
C76_4 C 0.0133(2) 0.9695(2) 0.29957(18)
C81_4 C 0.1938(3) 0.8973(3) 0.35275(18)
H31_4 H 0.2228 0.8889 0.3670
C100_4 C 0.0230(2) 0.9038(2) 0.21017(11)
C103_4 C 0.0259(3) 0.8676(2) 0.15178(11)
H45_4 H 0.0270 0.8552 0.1318
C104_4 C 0.0760(2) 0.8865(2) 0.16488(14)
C105_4 C 0.07455(18) 0.9046(2) 0.19408(14)
H46_4 H 0.1088 0.9175 0.2030
C116_4 C 0.0190(3) 0.9255(2) 0.24082(18)
C117_4 C 0.1586(3) 0.8592(3) 0.34138(19)
C120_4 C 0.0086(3) 0.9927(3) 0.3299(2)
H55_4 H 0.0355 0.9761 0.3437
O39_4 O 0.0709(3) 0.9876(3) 0.7755(2)
C127_4 C 0.0400(10) 0.9875(11) 0.7257(5)
H61_4 H 0.0586 0.9815 0.7063
H62_4 H 0.0087 0.9631 0.7287
C128_4 C 0.0841(9) 0.9819(9) 0.7503(4)
N1_4 N 0.1425(8) 0.9946(9) 0.7432(5)
C129_4 C 0.1949(9) 0.9942(8) 0.7622(5)
H66_4 H 0.2017 0.9602 0.7698
H68_4 H 0.1556 0.9738 0.6989
O1_4 O 0.8813(2) 0.18985(18) 0.25407(13)
F2_4 F 0.9948(6) 0.2556(4) 0.9074(2)
C2_4 C 0.9791(2) 0.2394(3) 0.35846(17)
O2_4 O 0.85616(18) 0.2519(3) 0.31007(13)
F3_2 F 0.8145(7) 0.5107(3) 0.4370(3)
C3_4 C 0.9933(2) 0.2354(3) 0.38834(16)
O3_4 O 0.7045(2) 0.2737(2) 0.60465(12)
F4_4 F 0.8043(8) 0.4631(3) 0.5367(2)
C4_4 C 0.9510(2) 0.2475(2) 0.40936(16)
H3_4 H 0.9611 0.2468 0.4300
P1_4 P 0.73902(6) 0.28279(7) 0.52318(4)
C5_4 C 0.8312(2) 0.0527(2) 0.29056(19)
C6_4 C 0.5116(2) 0.1026(2) 0.38925(15)
H4_4 H 0.4833 0.0892 0.3760
P3_4 P 0.91707(6) 0.07008(6) 0.79044(4)
O10_4 O 0.68345(16) 0.29104(18) 0.53875(11)
O11_4 O 0.92423(16) 0.07522(15) 0.75515(11)
O13_4 O 0.86267(15) 0.04587(13) 0.79895(11)
O15_4 O 0.73186(15) 0.30939(16) 0.49133(10)
O16_4 O 0.90902(15) 0.12701(15) 0.80049(10)
O17_4 O 0.79458(15) 0.29620(18) 0.53744(10)
O19_4 O 0.74739(15) 0.22472(16) 0.51425(10)
O20_4 O 0.97323(15) 0.04922(15) 0.80118(11)
F11_4 F 0.7404(5) 0.1402(3) 0.60300(18)
F12_4 F 0.5342(4) 0.1404(4) 0.5831(2)
C15_4 C 0.8461(2) 0.0985(2) 0.28187(17)
H8_4 H 0.8176 0.1242 0.2816
O32_4 O 0.5925(2) 0.3715(2) 0.55355(16)
C16_4 C 0.6018(3) 0.1556(3) 0.54448(18)
H9_4 H 0.5708 0.1593 0.5307
C17_4 C 0.6588(3) 0.1598(3) 0.53465(13)
C18_4 C 0.7042(3) 0.1545(3) 0.55487(19)
H10_4 H 0.7432 0.1573 0.5482
C19_4 C 0.6927(4) 0.1450(3) 0.58490(17)
C20_4 C 0.6357(5) 0.1408(4) 0.59473(14)
H11_4 H 0.6278 0.1343 0.6153
C21_4 C 0.5903(4) 0.1461(3) 0.5745(2)
C22_4 C 0.9033(2) 0.1097(2) 0.27309(16)
C23_4 C 0.9303(2) 0.0229(2) 0.28031(18)
C24_4 C 0.5878(2) 0.0567(2) 0.35995(15)
O34_4 O 0.79574(19) 0.2770(3) 0.61867(14)
C25_4 C 0.7184(2) 0.2166(2) 0.46307(15)
C26_4 C 0.6021(2) 0.2364(3) 0.70626(18)
C30_4 C 0.8024(2) 0.1618(3) 0.71108(17)
C31_4 C 0.6799(2) 0.1979(3) 0.44163(15)
C32_4 C 0.7676(2) 0.2508(2) 0.45531(14)
C34_4 C 0.9448(2) 0.1643(2) 0.78866(17)
C35_4 C 0.9767(3) 0.2215(3) 0.71244(18)
H14_4 H 0.9593 0.2542 0.7081
H15_4 H 0.9545 0.1953 0.7023
C36_4 C 0.9232(2) 0.2525(3) 0.34989(16)
C37_4 C 0.7581(2) 0.1920(3) 0.69456(17)
C39_4 C 0.8818(2) 0.2614(3) 0.37139(17)
H16_4 H 0.8431 0.2684 0.3654
C40_4 C 0.5947(2) 0.1411(2) 0.42855(15)
C41_4 C 0.7295(2) 0.2429(3) 0.65156(16)
C43_4 C 0.5366(2) 0.1515(3) 0.43236(17)
H18_4 H 0.5247 0.1713 0.4489
C44_4 C 0.9382(2) 0.1780(2) 0.75867(16)
C45_4 C 0.5705(2) 0.0909(2) 0.38530(14)
C46_4 C 0.8954(2) 0.2603(3) 0.40177(17)
C47_4 C 0.4952(2) 0.1336(2) 0.41233(16)
C48_4 C 0.7694(2) 0.0414(3) 0.30015(18)
C49_4 C 0.4326(2) 0.1499(3) 0.41561(19)
C50_4 C 0.8512(2) 0.2727(3) 0.42468(16)
C53_4 C 0.8460(2) 0.1859(2) 0.72787(16)
C54_4 C 0.8824(3) 0.1033(2) 0.73925(16)
C55_4 C 0.8094(2) 0.2369(3) 0.43370(15)
C56_4 C 0.9446(2) 0.0720(2) 0.27323(16)
H19_4 H 0.9836 0.0799 0.2684
C60_4 C 0.7106(2) 0.2031(2) 0.49288(15)
C62_4 C 0.6699(3) 0.1691(3) 0.50199(16)
C63_4 C 0.9759(2) 0.2124(3) 0.74549(18)
C65_4 C 0.9845(2) 0.1884(3) 0.80778(17)
C66_4 C 0.6116(2) 0.1114(2) 0.40504(15)
H22_4 H 0.6516 0.1046 0.4021
C67_4 C 0.7716(2) 0.2979(3) 0.46892(14)
C69_4 C 0.8111(3) 0.3340(3) 0.45977(18)
C70_4 C 0.6384(2) 0.1638(3) 0.45068(16)
C71_4 C 0.6729(2) 0.2459(3) 0.66407(19)
H23_4 H 0.6429 0.2621 0.6531
C72_4 C 0.6809(3) 0.2172(3) 0.40937(16)
H24_4 H 0.6425 0.2301 0.4040
H25_4 H 0.6914 0.1899 0.3958
H26_4 H 0.7096 0.2442 0.4076
C74_4 C 0.8395(3) 0.0809(3) 0.72483(18)
C77_4 C 0.8738(2) 0.0132(2) 0.29000(19)
C79_4 C 0.6608(2) 0.2259(3) 0.69177(17)
C80_4 C 0.7437(3) 0.2653(3) 0.62294(19)
C82_4 C 0.8885(2) 0.1559(2) 0.74191(16)
C83_4 C 0.8503(3) 0.3205(3) 0.43687(18)
H32_4 H 0.8769 0.3448 0.4296
C85_4 C 0.8141(3) 0.1849(3) 0.42103(17)
H33_4 H 0.8088 0.1862 0.3993
H34_4 H 0.7841 0.1636 0.4299
H35_4 H 0.8525 0.1711 0.4256
C87_4 C 0.7708(2) 0.2159(3) 0.66793(17)
H36_4 H 0.8092 0.2140 0.6604
C88_4 C 0.7015(2) 0.1993(3) 0.70631(18)
H37_4 H 0.6921 0.1849 0.7252
C90_4 C 0.8106(4) 0.4237(3) 0.44806(15)
H38_4 H 0.8130 0.4147 0.4275
C91_4 C 0.8073(5) 0.4739(2) 0.4562(2)
C92_4 C 0.8038(5) 0.4871(2) 0.4863(2)
H39_2 H 0.8015 0.5214 0.4918
C93_4 C 0.8036(5) 0.4502(3) 0.50820(17)
C94_4 C 0.8069(4) 0.4000(2) 0.50008(16)
H40_4 H 0.8068 0.3748 0.5151
C95_4 C 0.8104(3) 0.38681(19) 0.47001(17)
C97_4 C 0.7993(3) 0.1103(3) 0.71016(18)
H42_4 H 0.7689 0.0948 0.6992
C99_4 C 0.6341(3) 0.1497(3) 0.48037(17)
H43_4 H 0.6055 0.1259 0.4860
C106_4 C 0.8464(3) 0.2408(3) 0.7304(2)
H47_4 H 0.8650 0.2506 0.7493
H48_4 H 0.8065 0.2534 0.7300
H49_4 H 0.8681 0.2551 0.7135
C107_4 C 0.9073(3) 0.2578(3) 0.31710(17)
C108_4 C 0.9938(3) 0.1315(2) 0.85223(15)
H50_4 H 0.9945 0.1032 0.8393
C109_4 C 0.9886(3) 0.1793(2) 0.84027(12)
C110_4 C 0.9876(3) 0.22073(19) 0.85914(17)
H51_4 H 0.9841 0.2534 0.8510
C111_4 C 0.9918(5) 0.2143(3) 0.88997(16)
C112_4 C 0.9969(4) 0.1664(4) 0.90193(12)
H52_4 H 0.9998 0.1620 0.9230
C113_4 C 0.9979(4) 0.1250(3) 0.88306(16)
C115_4 C 0.9208(3) 0.1619(2) 0.26444(19)
C124_4 C 0.7762(3) 0.0046(2) 0.72395(15)
H59_4 H 0.7443 0.0259 0.7281
C125_4 C 0.8317(3) 0.02444(17) 0.72159(14)
H60_4 H 0.9164 0.0068 0.7138
O40_4 O 0.8793(4) 0.2374(3) 0.5798(2)
O41_4 O 0.7802(5) 0.3174(4) 0.2870(3)
H70_4 H 0.616877 0.391518 0.539662
H71_4 H 0.563442 0.352232 0.541862
H74_4 H 0.906346 0.236566 0.562496
H75_4 H 0.901653 0.234288 0.598725
H76_4 H 0.806346 0.346899 0.286059
H77_4 H 0.743908 0.324784 0.275877
C1_4 C 0.9769(2) 0.9612(2) 0.24939(19)
H1_4 H 0.9488 0.9709 0.2349
F5_4 F 0.9301(3) 0.8462(3) 0.15520(14)
F9_4 F 0.7134(4) 0.9352(3) 0.72163(19)
F10_4 F 0.9165(5) 0.9129(3) 0.7052(2)
C27_4 C 0.9741(2) 0.9830(2) 0.27746(18)
H27_4 H 0.8634 0.9805 0.2963
C101_4 C 0.97287(18) 0.8849(2) 0.19707(13)
H44_4 H 0.9376 0.8843 0.2081
C102_4 C 0.9744(2) 0.8668(2) 0.16788(14)
H56_4 H 0.9688 0.9890 0.3374
C121_4 C 0.8697(4) 0.9421(2) 0.71168(18)
C122_4 C 0.8142(5) 0.92222(17) 0.71404(17)
H58_4 H 0.8082 0.8873 0.7115
C123_4 C 0.7674(3) 0.9534(3) 0.72017(16)
C126_4 C 0.8784(3) 0.9932(3) 0.71546(16)
O38_4 O 0.9386(2) 0.71874(19) 0.27245(14)
H72_4 H 0.913509 0.746166 0.280037
H73_4 H 0.913984 0.690992 0.264866
F3_3 F 0.3145(7) 0.9893(3) 0.5630(3)
H39_3 H 0.3015 0.9786 0.5082
F3_4 F 0.1855(7) 0.0107(3) 0.0630(3)
H39_4 H 0.1985 0.0214 0.0082
loop_
_geom_bond_atom_site_label_1
_geom_bond_atom_site_label_2
_geom_bond_site_symmetry_1
_geom_bond_site_symmetry_2
Mn1 O3 1_555 1_555
F1 C113 1_555 1_555
C1 H1 1_555 1_555
O1 Mn6 1_555 1_555
Mn2 O13 1_555 1_555
F2 C111 1_555 1_555
C2 H2 1_555 1_555
O2 Mn6 1_555 1_555
Mn3 O17 1_555 1_555
C3 C2 1_555 1_555
O3 C80 1_555 1_555
Mn4 O24 1_555 1_555
F4 C93 1_555 1_555
C4 C3 1_555 1_555
H3 C4 1_555 1_555
Mn5 O20 1_555 1_555
O5 C24 1_555 1_555
F5 C102 1_555 1_555
Mn6 O41 1_555 1_555
F6 C11 1_555 1_555
O6 P2 1_555 1_555
P1 O10 1_555 1_555
F7 C7 1_555 1_555
C5 C15 1_555 1_555
P2 O12 1_555 1_555
O8 C24 1_555 1_555
F8 C104 1_555 1_555
P3 O11 1_555 1_555
O9 C14 1_555 1_555
F9 C123 1_555 1_555
C7 C8 1_555 1_555
C8 H5 1_555 1_555
C9 C8 1_555 1_555
C10 C9 1_555 1_555
H6 C10 1_555 1_555
C11 C10 1_555 1_555
C12 C7 1_555 1_555
H7 C12 1_555 1_555
O10 Mn1 1_555 1_555
O11 C54 1_555 1_555
O12 C68 1_555 1_555
O13 P3 1_555 1_555
O14 P2 1_555 1_555
O15 P1 1_555 1_555
O16 P3 1_555 1_555
O17 P1 1_555 1_555
O18 C98 1_555 1_555
O19 P1 1_555 1_555
O20 P3 1_555 1_555
O21 C58 1_555 1_555
O22 C89 1_555 1_555
O23 C89 1_555 1_555
O24 P2 1_555 1_555
O25 C48 1_555 1_555
O26 C98 1_555 1_555
C13 C33 1_555 1_555
O27 C14 1_555 1_555
C14 C3 1_555 1_555
F10 C121 1_555 1_555
O28 C115 1_555 1_555
O29 C26 1_555 1_555
F11 C19 1_555 1_555
O30 C48 1_555 1_555
O31 C26 1_555 1_555
F12 C21 1_555 1_555
C15 H8 1_555 1_555
O32 Mn1 1_555 1_555
C16 H9 1_555 1_555
C17 C16 1_555 1_555
C18 C17 1_555 1_555
H10 C18 1_555 1_555
C19 C18 1_555 1_555
C20 C19 1_555 1_555
H11 C20 1_555 1_555
C21 C16 1_555 1_555
C22 C15 1_555 1_555
O33 C58 1_555 1_555
C23 C27 1_555 1_555
C24 C45 1_555 1_555
O34 Mn3 1_555 1_555
C25 C31 1_555 1_555
C26 C79 1_555 1_555
O35 C107 1_555 1_555
C27 C1 1_555 1_555
C28 C38 1_555 1_555
O36 C73 1_555 1_555
C29 C42 1_555 1_555
C30 C37 1_555 1_555
C31 C70 1_555 1_555
C32 C25 1_555 1_555
C33 H12 1_555 1_555
C34 O16 1_555 1_555
C35 H13 1_555 1_555
H14 C35 1_555 1_555
H15 C35 1_555 1_555
C36 C2 1_555 1_555
C37 C87 1_555 1_555
O37 C73 1_555 1_555
C38 C64 1_555 1_555
C39 C36 1_555 1_555
H16 C39 1_555 1_555
C40 C43 1_555 1_555
C41 C71 1_555 1_555
C42 H17 1_555 1_555
C43 H18 1_555 1_555
C44 C34 1_555 1_555
C45 C6 1_555 1_555
C46 C4 1_555 1_555
C48 C5 1_555 1_555
C50 C46 1_555 1_555
C51 C28 1_555 1_555
C52 C42 1_555 1_555
C53 C30 1_555 1_555
C54 C74 1_555 1_555
C55 C32 1_555 1_555
C56 C22 1_555 1_555
H19 C56 1_555 1_555
C57 C29 1_555 1_555
H20 C57 1_555 1_555
C58 C13 1_555 1_555
C59 C13 1_555 1_555
H21 C59 1_555 1_555
C60 O19 1_555 1_555
C61 O6 1_555 1_555
C62 C17 1_555 1_555
C63 C35 1_555 1_555
C64 C75 1_555 1_555
C65 C34 1_555 1_555
C66 C40 1_555 1_555
H22 C66 1_555 1_555
C67 O15 1_555 1_555
C68 C28 1_555 1_555
C69 C67 1_555 1_555
C70 C40 1_555 1_555
C71 H23 1_555 1_555
C72 C31 1_555 1_555
H24 C72 1_555 1_555
H25 C72 1_555 1_555
H26 C72 1_555 1_555
C73 C52 1_555 1_555
C74 C97 1_555 1_555
C75 C59 1_555 1_555
C76 C27 1_555 1_555
C77 C5 1_555 1_555
H27 C77 1_555 1_555
C78 C38 1_555 1_555
H28 C78 1_555 1_555
H29 C78 1_555 1_555
H30 C78 1_555 1_555
C79 C71 1_555 1_555
C80 O34 1_555 1_555
C81 C64 1_555 1_555
H31 C81 1_555 1_555
C82 C44 1_555 1_555
C83 C50 1_555 1_555
H32 C83 1_555 1_555
C84 C33 1_555 1_555
C85 C55 1_555 1_555
H33 C85 1_555 1_555
H34 C85 1_555 1_555
H35 C85 1_555 1_555
C86 C63 1_555 1_555
C87 C41 1_555 1_555
H36 C87 1_555 1_555
C88 C37 1_555 1_555
H37 C88 1_555 1_555
C89 C84 1_555 1_555
C90 H38 1_555 1_555
C91 C90 1_555 1_555
C92 C91 1_555 1_555
C93 C92 1_555 1_555
C94 C93 1_555 1_555
H40 C94 1_555 1_555
C95 C69 1_555 1_555
C96 C75 1_555 1_555
H41 C96 1_555 1_555
C97 C30 1_555 1_555
H42 C97 1_555 1_555
C98 C29 1_555 1_555
C99 C62 1_555 1_555
H43 C99 1_555 1_555
C100 C101 1_555 1_555
C101 H44 1_555 1_555
C102 C101 1_555 1_555
C103 C102 1_555 1_555
H45 C103 1_555 1_555
C104 C103 1_555 1_555
C105 C100 1_555 1_555
H46 C105 1_555 1_555
C106 C53 1_555 1_555
H47 C106 1_555 1_555
H48 C106 1_555 1_555
H49 C106 1_555 1_555
C107 O2 1_555 1_555
C108 H50 1_555 1_555
C109 C65 1_555 1_555
C110 C109 1_555 1_555
H51 C110 1_555 1_555
C111 C110 1_555 1_555
C112 C111 1_555 1_555
H52 C112 1_555 1_555
C113 C108 1_555 1_555
C114 C65 1_555 1_555
H53 C114 1_555 1_555
C115 O1 1_555 1_555
C116 C1 1_555 1_555
C117 C9 1_555 1_555
C118 C52 1_555 1_555
H54 C118 1_555 1_555
C119 C57 1_555 1_555
C120 C76 1_555 1_555
H55 C120 1_555 1_555
H56 C120 1_555 1_555
H57 C120 1_555 1_555
C121 C122 1_555 1_555
C122 H58 1_555 1_555
C123 C122 1_555 1_555
C124 C123 1_555 1_555
H59 C124 1_555 1_555
C125 C74 1_555 1_555
C126 C121 1_555 1_555
H60 C126 1_555 1_555
O38 Mn4 1_555 1_555
O39 Mn5 1_555 1_555
O40 Mn3 1_555 1_555
C127 H61 1_555 1_555
H62 C127 1_555 1_555
H63 C127 1_555 1_555
C128 O39 1_555 1_555
N1 C128 1_555 1_555
C129 N1 1_555 1_555
H64 C129 1_555 1_555
H65 C129 1_555 1_555
H66 C129 1_555 1_555
C130 N1 1_555 1_555
H67 C130 1_555 1_555
H68 C130 1_555 1_555
H69 C130 1_555 1_555
Mn7 O9 1_555 1_555
Mn8 O8 1_555 1_555
Mn9 O26 1_555 1_555
Mn11 O22 1_555 1_555
Mn12 O29 1_555 1_555
Mn13 O28 1_555 1_555
O42 Mn3 1_555 1_555
Mn15 O21 1_555 1_555
Mn16 O18 1_555 1_555
O43 Mn5 1_555 1_555
Mn17 O14 1_555 1_555
Mn18 O36 1_555 1_555
O44 Mn3 1_555 1_555
O45 Mn2 1_555 1_555
O46 Mn1 1_555 1_555
O47 Mn6 1_555 1_555
O48 Mn5 1_555 1_555
O49 Mn5 1_555 1_555
O50 Mn3 1_555 1_555
O51 Mn1 1_555 1_555
O52 Mn2 1_555 1_555
O53 Mn2 1_555 1_555
O54 Mn1 1_555 1_555
O55 Mn4 1_555 1_555
O56 Mn4 1_555 1_555
O57 Mn2 1_555 1_555
O58 Mn4 1_555 1_555
O59 Mn5 1_555 1_555
O60 Mn4 1_555 1_555
O61 Mn6 1_555 1_555
O62 Mn6 1_555 1_555
C11 C12 1_555 1_555
O23 Mn7 1_555 1_555
O25 Mn8 1_555 1_555
O27 Mn7 1_555 1_555
O30 Mn8 1_555 1_555
O31 Mn12 1_555 1_555
C20 C21 1_555 1_555
C22 C115 1_555 1_555
O33 Mn15 1_555 1_555
C23 C56 1_555 1_555
C23 C77 1_555 1_555
C25 C60 1_555 1_555
O35 Mn13 1_555 1_555
C32 C67 1_555 1_555
C36 C107 1_555 1_555
O37 Mn18 1_555 1_555
C39 C46 1_555 1_555
C41 C80 1_555 1_555
C44 C63 1_555 1_555
C45 C66 1_555 1_555
C50 C55 1_555 1_555
C51 C61 1_555 1_555
C51 C76 1_555 1_555
C53 C82 1_555 1_555
C54 C82 1_555 1_555
C60 C62 1_555 1_555
C61 C116 1_555 1_555
C68 C117 1_555 1_555
C69 C83 1_555 1_555
C70 C99 1_555 1_555
C79 C88 1_555 1_555
C81 C117 1_555 1_555
C84 C96 1_555 1_555
C86 C114 1_555 1_555
C86 C119 1_555 1_555
C90 C95 1_555 1_555
C94 C95 1_555 1_555
C100 C116 1_555 1_555
C104 C105 1_555 1_555
C108 C109 1_555 1_555
C112 C113 1_555 1_555
C118 C119 1_555 1_555
C124 C125 1_555 1_555
C125 C126 1_555 1_555
C127 C128 1_555 1_555
O32 H70 1_555 1_555
O32 H71 1_555 1_555
O38 H72 1_555 1_555
O38 H73 1_555 1_555
O40 H74 1_555 1_555
O40 H75 1_555 1_555
O41 H76 1_555 1_555
O41 H77 1_555 1_555
O4 C49 1_555 1_555
O7 C49 1_555 1_555
C49 C47 1_555 1_555
Mn11 O4 1_555 1_555
O7 Mn11 1_555 1_555
C1_2 H1_2 1_555 1_555
O1_2 Mn6_2 1_555 1_555
O2_2 Mn6_2 1_555 1_555
C3_2 C2_2 1_555 1_555
O4_2 C49_2 1_555 1_555
C4_2 C3_2 1_555 1_555
H3_2 C4_2 1_555 1_555
O43 C24_2 1_555 1_555
F5_2 C102_2 1_555 1_555
Mn6_2 O41_2 1_555 1_555
O7_2 C49_2 1_555 1_555
C5_2 C15_2 1_555 1_555
O45 C24_2 1_555 1_555
C6_2 H4_2 1_555 1_555
O52 C48_2 1_555 1_555
O28_2 C115_2 1_555 1_555
O57 C48_2 1_555 1_555
C15_2 H8_2 1_555 1_555
C22_2 C15_2 1_555 1_555
C23_2 C27_2 1_555 1_555
C24_2 C45_2 1_555 1_555
C25_2 C31_2 1_555 1_555
O35_2 C107_2 1_555 1_555
C27_2 C1_2 1_555 1_555
C31_2 C70_2 1_555 1_555
C32_2 C25_2 1_555 1_555
C36_2 C2_2 1_555 1_555
C39_2 C36_2 1_555 1_555
H16_2 C39_2 1_555 1_555
C40_2 C43_2 1_555 1_555
C43_2 H18_2 1_555 1_555
C45_2 C6_2 1_555 1_555
C46_2 C4_2 1_555 1_555
C47_2 C6_2 1_555 1_555
C48_2 C5_2 1_555 1_555
C49_2 C47_2 1_555 1_555
C50_2 C46_2 1_555 1_555
C55_2 C32_2 1_555 1_555
C56_2 C22_2 1_555 1_555
H19_2 C56_2 1_555 1_555
C66_2 C40_2 1_555 1_555
H22_2 C66_2 1_555 1_555
C67_2 O15_2 1_555 1_555
C69_2 C67_2 1_555 1_555
C70_2 C40_2 1_555 1_555
C72_2 C31_2 1_555 1_555
H24_2 C72_2 1_555 1_555
H25_2 C72_2 1_555 1_555
H26_2 C72_2 1_555 1_555
C77_2 C5_2 1_555 1_555
H27_2 C77_2 1_555 1_555
C83_2 C50_2 1_555 1_555
H32_2 C83_2 1_555 1_555
C85_2 C55_2 1_555 1_555
H33_2 C85_2 1_555 1_555
H34_2 C85_2 1_555 1_555
H35_2 C85_2 1_555 1_555
C90_2 H38_2 1_555 1_555
C91_2 C90_2 1_555 1_555
C92_2 C91_2 1_555 1_555
C95_2 C69_2 1_555 1_555
H43_2 C99_2 1_555 1_555
C101_2 H44_2 1_555 1_555
C102_2 C101_2 1_555 1_555
C107_2 O2_2 1_555 1_555
C115_2 O1_2 1_555 1_555
O38_2 Mn12 1_555 1_555
Mn10 O4_2 1_555 1_555
O47_2 Mn6_2 1_555 1_555
O61_2 Mn6_2 1_555 1_555
O62_2 Mn6_2 1_555 1_555
O7_2 Mn10 1_555 1_555
C22_2 C115_2 1_555 1_555
C23_2 C56_2 1_555 1_555
C23_2 C77_2 1_555 1_555
C25_2 C60_2 1_555 1_555
C32_2 C67_2 1_555 1_555
C36_2 C107_2 1_555 1_555
C39_2 C46_2 1_555 1_555
C43_2 C47_2 1_555 1_555
C45_2 C66_2 1_555 1_555
C50_2 C55_2 1_555 1_555
C69_2 C83_2 1_555 1_555
C70_2 C99_2 1_555 1_555
C90_2 C95_2 1_555 1_555
O38_2 H72_2 1_555 1_555
O38_2 H73_2 1_555 1_555
O41_2 H76_2 1_555 1_555
O41_2 H77_2 1_555 1_555
Mn1_2 O3_2 1_555 1_555
Mn8 O13_2 1_555 1_555
F2_2 C111_2 1_555 1_555
Mn3_2 O17_2 1_555 1_555
O3_2 C80_2 1_555 1_555
F4_2 C93_2 1_555 1_555
P1_2 O10_2 1_555 1_555
P3_2 O11_2 1_555 1_555
F9_2 C123_2 1_555 1_555
O10_2 Mn1_2 1_555 1_555
O11_2 C54_2 1_555 1_555
O13_2 P3_2 1_555 1_555
O16_2 P3_2 1_555 1_555
O17_2 P1_2 1_555 1_555
O19_2 P1_2 1_555 1_555
O20_2 P3_2 1_555 1_555
F10_2 C121_2 1_555 1_555
O56 C26_2 1_555 1_555
F11_2 C19_2 1_555 1_555
O58 C26_2 1_555 1_555
F12_2 C21_2 1_555 1_555
O32_2 Mn1_2 1_555 1_555
C16_2 H9_2 1_555 1_555
C17_2 C16_2 1_555 1_555
C18_2 C17_2 1_555 1_555
H10_2 C18_2 1_555 1_555
C19_2 C18_2 1_555 1_555
C20_2 C19_2 1_555 1_555
H11_2 C20_2 1_555 1_555
C21_2 C16_2 1_555 1_555
O34_2 Mn3_2 1_555 1_555
C26_2 C79_2 1_555 1_555
C30_2 C37_2 1_555 1_555
C34_2 O16_2 1_555 1_555
H14_2 C35_2 1_555 1_555
H15_2 C35_2 1_555 1_555
C37_2 C87_2 1_555 1_555
C41_2 C71_2 1_555 1_555
C44_2 C34_2 1_555 1_555
C53_2 C30_2 1_555 1_555
C54_2 C74_2 1_555 1_555
C62_2 C17_2 1_555 1_555
C63_2 C35_2 1_555 1_555
C65_2 C34_2 1_555 1_555
C71_2 H23_2 1_555 1_555
C74_2 C97_2 1_555 1_555
C79_2 C71_2 1_555 1_555
C80_2 O34_2 1_555 1_555
C82_2 C44_2 1_555 1_555
C87_2 C41_2 1_555 1_555
H36_2 C87_2 1_555 1_555
C88_2 C37_2 1_555 1_555
H37_2 C88_2 1_555 1_555
C94_2 C93_2 1_555 1_555
H40_2 C94_2 1_555 1_555
C97_2 C30_2 1_555 1_555
H42_2 C97_2 1_555 1_555
C106_2 C53_2 1_555 1_555
H47_2 C106_2 1_555 1_555
H48_2 C106_2 1_555 1_555
H49_2 C106_2 1_555 1_555
C108_2 H50_2 1_555 1_555
C109_2 C65_2 1_555 1_555
C110_2 C109_2 1_555 1_555
H51_2 C110_2 1_555 1_555
C111_2 C110_2 1_555 1_555
C112_2 C111_2 1_555 1_555
H52_2 C112_2 1_555 1_555
C113_2 C108_2 1_555 1_555
C121_2 C122_2 1_555 1_555
C122_2 H58_2 1_555 1_555
C123_2 C122_2 1_555 1_555
C124_2 C123_2 1_555 1_555
H59_2 C124_2 1_555 1_555
C125_2 C74_2 1_555 1_555
C126_2 C121_2 1_555 1_555
H60_2 C126_2 1_555 1_555
O40_2 Mn3_2 1_555 1_555
O42_2 Mn3_2 1_555 1_555
O44_2 Mn3_2 1_555 1_555
O46_2 Mn1_2 1_555 1_555
O50_2 Mn3_2 1_555 1_555
O51_2 Mn1_2 1_555 1_555
O53_2 Mn8 1_555 1_555
O54_2 Mn1_2 1_555 1_555
C20_2 C21_2 1_555 1_555
C41_2 C80_2 1_555 1_555
C44_2 C63_2 1_555 1_555
C53_2 C82_2 1_555 1_555
C54_2 C82_2 1_555 1_555
C79_2 C88_2 1_555 1_555
C108_2 C109_2 1_555 1_555
C112_2 C113_2 1_555 1_555
C124_2 C125_2 1_555 1_555
C125_2 C126_2 1_555 1_555
O32_2 H70_2 1_555 1_555
O32_2 H71_2 1_555 1_555
O40_2 H74_2 1_555 1_555
O40_2 H75_2 1_555 1_555
F6_2 C11_2 1_555 1_555
O6_2 P2_2 1_555 1_555
F7_2 C7_2 1_555 1_555
P2_2 O12_2 1_555 1_555
F8_2 C104_2 1_555 1_555
O9_2 C14_2 1_555 1_555
C7_2 C8_2 1_555 1_555
C8_2 H5_2 1_555 1_555
C9_2 C8_2 1_555 1_555
C10_2 C9_2 1_555 1_555
H6_2 C10_2 1_555 1_555
C11_2 C10_2 1_555 1_555
C12_2 C7_2 1_555 1_555
H7_2 C12_2 1_555 1_555
O12_2 C68_2 1_555 1_555
O14_2 P2_2 1_555 1_555
O49 C58_2 1_555 1_555
O22_2 C89_2 1_555 1_555
O23_2 C89_2 1_555 1_555
O24_2 P2_2 1_555 1_555
C13_2 C33_2 1_555 1_555
O27_2 C14_2 1_555 1_555
O59 C58_2 1_555 1_555
C28_2 C38_2 1_555 1_555
C33_2 H12_2 1_555 1_555
C38_2 C64_2 1_555 1_555
C51_2 C28_2 1_555 1_555
C58_2 C13_2 1_555 1_555
C59_2 C13_2 1_555 1_555
H21_2 C59_2 1_555 1_555
C61_2 O6_2 1_555 1_555
C64_2 C75_2 1_555 1_555
C68_2 C28_2 1_555 1_555
C75_2 C59_2 1_555 1_555
C78_2 C38_2 1_555 1_555
H28_2 C78_2 1_555 1_555
H29_2 C78_2 1_555 1_555
H30_2 C78_2 1_555 1_555
C81_2 C64_2 1_555 1_555
H31_2 C81_2 1_555 1_555
C84_2 C33_2 1_555 1_555
C89_2 C84_2 1_555 1_555
C96_2 C75_2 1_555 1_555
H41_2 C96_2 1_555 1_555
H45_2 C103_2 1_555 1_555
C104_2 C103_2 1_555 1_555
C105_2 C100_2 1_555 1_555
H46_2 C105_2 1_555 1_555
C117_2 C9_2 1_555 1_555
C120_2 C76_2 1_555 1_555
H55_2 C120_2 1_555 1_555
H57_2 C120_2 1_555 1_555
Mn7_2 O9_2 1_555 1_555
Mn10 O22_2 1_555 1_555
Mn18 O14_2 1_555 1_555
C11_2 C12_2 1_555 1_555
O23_2 Mn7_2 1_555 1_555
O27_2 Mn7_2 1_555 1_555
C51_2 C61_2 1_555 1_555
C51_2 C76_2 1_555 1_555
C61_2 C116_2 1_555 1_555
C68_2 C117_2 1_555 1_555
C81_2 C117_2 1_555 1_555
C84_2 C96_2 1_555 1_555
C100_2 C116_2 1_555 1_555
C104_2 C105_2 1_555 1_555
O18_2 C98_2 1_555 1_555
O26_2 C98_2 1_555 1_555
O36_2 C73_2 1_555 1_555
C29_2 C42_2 1_555 1_555
O37_2 C73_2 1_555 1_555
C42_2 H17_2 1_555 1_555
C52_2 C42_2 1_555 1_555
C57_2 C29_2 1_555 1_555
H20_2 C57_2 1_555 1_555
C73_2 C52_2 1_555 1_555
C98_2 C29_2 1_555 1_555
H53_2 C114_2 1_555 1_555
C118_2 C52_2 1_555 1_555
H54_2 C118_2 1_555 1_555
C119_2 C57_2 1_555 1_555
O39_2 Mn15 1_555 1_555
C127_2 H61_2 1_555 1_555
H62_2 C127_2 1_555 1_555
H63_2 C127_2 1_555 1_555
C128_2 O39_2 1_555 1_555
N1_2 C128_2 1_555 1_555
C129_2 N1_2 1_555 1_555
H64_2 C129_2 1_555 1_555
H65_2 C129_2 1_555 1_555
H66_2 C129_2 1_555 1_555
C130_2 N1_2 1_555 1_555
H67_2 C130_2 1_555 1_555
H68_2 C130_2 1_555 1_555
H69_2 C130_2 1_555 1_555
Mn9_2 O26_2 1_555 1_555
Mn17 O36_2 1_555 1_555
O37_2 Mn17 1_555 1_555
C86_2 C114_2 1_555 1_555
C86_2 C119_2 1_555 1_555
C118_2 C119_2 1_555 1_555
C127_2 C128_2 1_555 1_555
O42_2 C49_3 1_555 1_555
O44_2 C49_3 1_555 1_555
C49_3 C47_3 1_555 1_555
F9_3 C123_3 1_555 1_555
F10_3 C121_3 1_555 1_555
C121_3 C122_3 1_555 1_555
C122_3 H58_3 1_555 1_555
C123_3 C122_3 1_555 1_555
C126_3 C121_3 1_555 1_555
O39_3 Mn16 1_555 1_555
C127_3 H61_3 1_555 1_555
H62_3 C127_3 1_555 1_555
C128_3 O39_3 1_555 1_555
N1_3 C128_3 1_555 1_555
C129_3 N1_3 1_555 1_555
H66_3 C129_3 1_555 1_555
O43_2 Mn16 1_555 1_555
O45_2 Mn9 1_555 1_555
O49_2 Mn16 1_555 1_555
O52_2 Mn9 1_555 1_555
O57_2 Mn9 1_555 1_555
C127_3 C128_3 1_555 1_555
C1_3 H1_3 1_555 1_555
Mn13 O24_3 1_555 1_555
F5_3 C102_3 1_555 1_555
F6_3 C11_3 1_555 1_555
O6_3 P2_3 1_555 1_555
F7_3 C7_3 1_555 1_555
P2_3 O12_3 1_555 1_555
F8_3 C104_3 1_555 1_555
C7_3 C8_3 1_555 1_555
C8_3 H5_3 1_555 1_555
C9_3 C8_3 1_555 1_555
C10_3 C9_3 1_555 1_555
H6_3 C10_3 1_555 1_555
C11_3 C10_3 1_555 1_555
C12_3 C7_3 1_555 1_555
H7_3 C12_3 1_555 1_555
O12_3 C68_3 1_555 1_555
O47 P2_3 1_555 1_555
O24_3 P2_3 1_555 1_555
C27_3 C1_3 1_555 1_555
C28_3 C38_3 1_555 1_555
C38_3 C64_3 1_555 1_555
C51_3 C28_3 1_555 1_555
H21_3 C59_3 1_555 1_555
C61_3 O6_3 1_555 1_555
C64_3 C75_3 1_555 1_555
C68_3 C28_3 1_555 1_555
C75_3 C59_3 1_555 1_555
C76_3 C27_3 1_555 1_555
C81_3 C64_3 1_555 1_555
H31_3 C81_3 1_555 1_555
C100_3 C101_3 1_555 1_555
C101_3 H44_3 1_555 1_555
C102_3 C101_3 1_555 1_555
C103_3 C102_3 1_555 1_555
H45_3 C103_3 1_555 1_555
C104_3 C103_3 1_555 1_555
C105_3 C100_3 1_555 1_555
H46_3 C105_3 1_555 1_555
C116_3 C1_3 1_555 1_555
C117_3 C9_3 1_555 1_555
C120_3 C76_3 1_555 1_555
H55_3 C120_3 1_555 1_555
H56_3 C120_3 1_555 1_555
O38_3 Mn13 1_555 1_555
O56_2 Mn13 1_555 1_555
O58_2 Mn13 1_555 1_555
C11_3 C12_3 1_555 1_555
C51_3 C61_3 1_555 1_555
C51_3 C76_3 1_555 1_555
C61_3 C116_3 1_555 1_555
C68_3 C117_3 1_555 1_555
C81_3 C117_3 1_555 1_555
C100_3 C116_3 1_555 1_555
C104_3 C105_3 1_555 1_555
O38_3 H72_3 1_555 1_555
O38_3 H73_3 1_555 1_555
Mn7_2 O3_3 1_555 1_555
F1_3 C113_3 1_555 1_555
F2_3 C111_3 1_555 1_555
Mn10 O17_3 1_555 1_555
O3_3 C80_3 1_555 1_555
F4_3 C93_3 1_555 1_555
P1_3 O10_3 1_555 1_555
P3_3 O11_3 1_555 1_555
O10_3 Mn7_2 1_555 1_555
O11_3 C54_3 1_555 1_555
O13_3 P3_3 1_555 1_555
O16_3 P3_3 1_555 1_555
O17_3 P1_3 1_555 1_555
O48 C98_3 1_555 1_555
O19_3 P1_3 1_555 1_555
O20_3 P3_3 1_555 1_555
O53 C98_3 1_555 1_555
O29_2 C26_3 1_555 1_555
F11_3 C19_3 1_555 1_555
O31_2 C26_3 1_555 1_555
F12_3 C21_3 1_555 1_555
O32_3 Mn7_2 1_555 1_555
C16_3 H9_3 1_555 1_555
C17_3 C16_3 1_555 1_555
C18_3 C17_3 1_555 1_555
H10_3 C18_3 1_555 1_555
C19_3 C18_3 1_555 1_555
C20_3 C19_3 1_555 1_555
H11_3 C20_3 1_555 1_555
C21_3 C16_3 1_555 1_555
O34_3 Mn10 1_555 1_555
C26_3 C79_3 1_555 1_555
O61_2 C73_3 1_555 1_555
C29_3 C42_3 1_555 1_555
C30_3 C37_3 1_555 1_555
C34_3 O16_3 1_555 1_555
C35_3 H13_3 1_555 1_555
H14_3 C35_3 1_555 1_555
H15_3 C35_3 1_555 1_555
C37_3 C87_3 1_555 1_555
O62_2 C73_3 1_555 1_555
C41_3 C71_3 1_555 1_555
C42_3 H17_3 1_555 1_555
C44_3 C34_3 1_555 1_555
C52_3 C42_3 1_555 1_555
C53_3 C30_3 1_555 1_555
C54_3 C74_3 1_555 1_555
C57_3 C29_3 1_555 1_555
H20_3 C57_3 1_555 1_555
C62_3 C17_3 1_555 1_555
C63_3 C35_3 1_555 1_555
C65_3 C34_3 1_555 1_555
C71_3 H23_3 1_555 1_555
C73_3 C52_3 1_555 1_555
C74_3 C97_3 1_555 1_555
C79_3 C71_3 1_555 1_555
C80_3 O34_3 1_555 1_555
C82_3 C44_3 1_555 1_555
C86_3 C63_3 1_555 1_555
C87_3 C41_3 1_555 1_555
H36_3 C87_3 1_555 1_555
C88_3 C37_3 1_555 1_555
H37_3 C88_3 1_555 1_555
C94_3 C93_3 1_555 1_555
H40_3 C94_3 1_555 1_555
C97_3 C30_3 1_555 1_555
H42_3 C97_3 1_555 1_555
C98_3 C29_3 1_555 1_555
C106_3 C53_3 1_555 1_555
H47_3 C106_3 1_555 1_555
H48_3 C106_3 1_555 1_555
H49_3 C106_3 1_555 1_555
C108_3 H50_3 1_555 1_555
C109_3 C65_3 1_555 1_555
C110_3 C109_3 1_555 1_555
H51_3 C110_3 1_555 1_555
C111_3 C110_3 1_555 1_555
C112_3 C111_3 1_555 1_555
H52_3 C112_3 1_555 1_555
C113_3 C108_3 1_555 1_555
C114_3 C65_3 1_555 1_555
H53_3 C114_3 1_555 1_555
C118_3 C52_3 1_555 1_555
H54_3 C118_3 1_555 1_555
C119_3 C57_3 1_555 1_555
H59_3 C124_3 1_555 1_555
C125_3 C74_3 1_555 1_555
O40_3 Mn10 1_555 1_555
H67_3 C130_3 1_555 1_555
H69_3 C130_3 1_555 1_555
Mn13_2 O29_2 1_555 1_555
O31_2 Mn13_2 1_555 1_555
C20_3 C21_3 1_555 1_555
C41_3 C80_3 1_555 1_555
C44_3 C63_3 1_555 1_555
C53_3 C82_3 1_555 1_555
C54_3 C82_3 1_555 1_555
C79_3 C88_3 1_555 1_555
C86_3 C114_3 1_555 1_555
C86_3 C119_3 1_555 1_555
C108_3 C109_3 1_555 1_555
C112_3 C113_3 1_555 1_555
C118_3 C119_3 1_555 1_555
C124_3 C125_3 1_555 1_555
O32_3 H70_3 1_555 1_555
O32_3 H71_3 1_555 1_555
O40_3 H74_3 1_555 1_555
O40_3 H75_3 1_555 1_555
O1_3 Mn17 1_555 1_555
C2_3 H2_3 1_555 1_555
O2_3 Mn17 1_555 1_555
F3 C91_3 1_555 1_555
C3_3 C2_3 1_555 1_555
C4_3 C3_3 1_555 1_555
H3_3 C4_3 1_555 1_555
O5_2 C24_3 1_555 1_555
Mn17 O41_3 1_555 1_555
C5_3 C15_3 1_555 1_555
O8_2 C24_3 1_555 1_555
O46_2 C14_3 1_555 1_555
O21_2 C58_3 1_555 1_555
O50_2 C89_3 1_555 1_555
O51_2 C89_3 1_555 1_555
O25_2 C48_3 1_555 1_555
C13_3 C33_3 1_555 1_555
O54_2 C14_3 1_555 1_555
C14_3 C3_3 1_555 1_555
O55 C115_3 1_555 1_555
O30_2 C48_3 1_555 1_555
C15_3 H8_3 1_555 1_555
C22_3 C15_3 1_555 1_555
C24_3 C45_3 1_555 1_555
C25_3 C31_3 1_555 1_555
O60 C107_3 1_555 1_555
C31_3 C70_3 1_555 1_555
C32_3 C25_3 1_555 1_555
C33_3 H12_3 1_555 1_555
C36_3 C2_3 1_555 1_555
C39_3 C36_3 1_555 1_555
H16_3 C39_3 1_555 1_555
C40_3 C43_3 1_555 1_555
C43_3 H18_3 1_555 1_555
C45_3 C6_3 1_555 1_555
C46_3 C4_3 1_555 1_555
C48_3 C5_3 1_555 1_555
C50_3 C46_3 1_555 1_555
C55_3 C32_3 1_555 1_555
C56_3 C22_3 1_555 1_555
H19_3 C56_3 1_555 1_555
C58_3 C13_3 1_555 1_555
C66_3 C40_3 1_555 1_555
H22_3 C66_3 1_555 1_555
C67_3 O15_3 1_555 1_555
C69_3 C67_3 1_555 1_555
C70_3 C40_3 1_555 1_555
C72_3 C31_3 1_555 1_555
H24_3 C72_3 1_555 1_555
H25_3 C72_3 1_555 1_555
H26_3 C72_3 1_555 1_555
C77_3 C5_3 1_555 1_555
H28_3 C78_3 1_555 1_555
H29_3 C78_3 1_555 1_555
H30_3 C78_3 1_555 1_555
C83_3 C50_3 1_555 1_555
H32_3 C83_3 1_555 1_555
C84_3 C33_3 1_555 1_555
C85_3 C55_3 1_555 1_555
H33_3 C85_3 1_555 1_555
H34_3 C85_3 1_555 1_555
H35_3 C85_3 1_555 1_555
C89_3 C84_3 1_555 1_555
C90_3 H38_3 1_555 1_555
C91_3 C90_3 1_555 1_555
C92_3 C91_3 1_555 1_555
H39 C92_3 1_555 1_555
C95_3 C69_3 1_555 1_555
H41_3 C96_3 1_555 1_555
H43_3 C99_3 1_555 1_555
C107_3 O2_3 1_555 1_555
C115_3 O1_3 1_555 1_555
Mn9_2 O8_2 1_555 1_555
Mn16_2 O21_2 1_555 1_555
O25_2 Mn9_2 1_555 1_555
O30_2 Mn9_2 1_555 1_555
C22_3 C115_3 1_555 1_555
C23_3 C56_3 1_555 1_555
C23_3 C77_3 1_555 1_555
C25_3 C60_3 1_555 1_555
C32_3 C67_3 1_555 1_555
C36_3 C107_3 1_555 1_555
C39_3 C46_3 1_555 1_555
C45_3 C66_3 1_555 1_555
C50_3 C55_3 1_555 1_555
C69_3 C83_3 1_555 1_555
C70_3 C99_3 1_555 1_555
C84_3 C96_3 1_555 1_555
C90_3 C95_3 1_555 1_555
O41_3 H76_3 1_555 1_555
O41_3 H77_3 1_555 1_555
O46 C14_4 1_555 1_555
O48_2 C98_4 1_555 1_555
O49_2 C58_4 1_555 1_555
O50 C89_4 1_555 1_555
O51 C89_4 1_555 1_555
O53_2 C98_4 1_555 1_555
C13_4 C33_4 1_555 1_555
O54 C14_4 1_555 1_555
O61 C73_4 1_555 1_555
C29_4 C42_4 1_555 1_555
C33_4 H12_4 1_555 1_555
O62 C73_4 1_555 1_555
C42_4 H17_4 1_555 1_555
C52_4 C42_4 1_555 1_555
C57_4 C29_4 1_555 1_555
H20_4 C57_4 1_555 1_555
C58_4 C13_4 1_555 1_555
C73_4 C52_4 1_555 1_555
H28_4 C78_4 1_555 1_555
H29_4 C78_4 1_555 1_555
H30_4 C78_4 1_555 1_555
C84_4 C33_4 1_555 1_555
C89_4 C84_4 1_555 1_555
H41_4 C96_4 1_555 1_555
C98_4 C29_4 1_555 1_555
H53_4 C114_4 1_555 1_555
C118_4 C52_4 1_555 1_555
H54_4 C118_4 1_555 1_555
C119_4 C57_4 1_555 1_555
H67_4 C130_4 1_555 1_555
H69_4 C130_4 1_555 1_555
C84_4 C96_4 1_555 1_555
C86_4 C114_4 1_555 1_555
C86_4 C119_4 1_555 1_555
C118_4 C119_4 1_555 1_555
F6_4 C11_4 1_555 1_555
O6_4 P2_4 1_555 1_555
F7_4 C7_4 1_555 1_555
P2_4 O12_4 1_555 1_555
F8_4 C104_4 1_555 1_555
C7_4 C8_4 1_555 1_555
C8_4 H5_4 1_555 1_555
C9_4 C8_4 1_555 1_555
C10_4 C9_4 1_555 1_555
H6_4 C10_4 1_555 1_555
C11_4 C10_4 1_555 1_555
C12_4 C7_4 1_555 1_555
H7_4 C12_4 1_555 1_555
O12_4 C68_4 1_555 1_555
O47_2 P2_4 1_555 1_555
O24_4 P2_4 1_555 1_555
C28_4 C38_4 1_555 1_555
C38_4 C64_4 1_555 1_555
C51_4 C28_4 1_555 1_555
H21_4 C59_4 1_555 1_555
C61_4 O6_4 1_555 1_555
C64_4 C75_4 1_555 1_555
C68_4 C28_4 1_555 1_555
C75_4 C59_4 1_555 1_555
C81_4 C64_4 1_555 1_555
H31_4 C81_4 1_555 1_555
H45_4 C103_4 1_555 1_555
C104_4 C103_4 1_555 1_555
C105_4 C100_4 1_555 1_555
H46_4 C105_4 1_555 1_555
C117_4 C9_4 1_555 1_555
C120_4 C76_4 1_555 1_555
H55_4 C120_4 1_555 1_555
O39_4 Mn16_2 1_555 1_555
C127_4 H61_4 1_555 1_555
H62_4 C127_4 1_555 1_555
C128_4 O39_4 1_555 1_555
N1_4 C128_4 1_555 1_555
C129_4 N1_4 1_555 1_555
H66_4 C129_4 1_555 1_555
C11_4 C12_4 1_555 1_555
C51_4 C61_4 1_555 1_555
C51_4 C76_4 1_555 1_555
C61_4 C116_4 1_555 1_555
C68_4 C117_4 1_555 1_555
C81_4 C117_4 1_555 1_555
C100_4 C116_4 1_555 1_555
C104_4 C105_4 1_555 1_555
C127_4 C128_4 1_555 1_555
Mn7 O3_4 1_555 1_555
O1_4 Mn18 1_555 1_555
F2_4 C111_4 1_555 1_555
O2_4 Mn18 1_555 1_555
Mn11 O17_4 1_555 1_555
F3_2 C91_4 1_555 1_555
C3_4 C2_4 1_555 1_555
O3_4 C80_4 1_555 1_555
O42 C49_4 1_555 1_555
F4_4 C93_4 1_555 1_555
C4_4 C3_4 1_555 1_555
H3_4 C4_4 1_555 1_555
O43_2 C24_4 1_555 1_555
Mn18 O41_4 1_555 1_555
P1_4 O10_4 1_555 1_555
O44 C49_4 1_555 1_555
C5_4 C15_4 1_555 1_555
O45_2 C24_4 1_555 1_555
C6_4 H4_4 1_555 1_555
P3_4 O11_4 1_555 1_555
O10_4 Mn7 1_555 1_555
O11_4 C54_4 1_555 1_555
O13_4 P3_4 1_555 1_555
O15_4 P1_4 1_555 1_555
O16_4 P3_4 1_555 1_555
O17_4 P1_4 1_555 1_555
O19_4 P1_4 1_555 1_555
O20_4 P3_4 1_555 1_555
O52_2 C48_4 1_555 1_555
O55_2 C115_4 1_555 1_555
O56_2 C26_4 1_555 1_555
F11_4 C19_4 1_555 1_555
O57_2 C48_4 1_555 1_555
O58_2 C26_4 1_555 1_555
F12_4 C21_4 1_555 1_555
C15_4 H8_4 1_555 1_555
O32_4 Mn7 1_555 1_555
C16_4 H9_4 1_555 1_555
C17_4 C16_4 1_555 1_555
C18_4 C17_4 1_555 1_555
H10_4 C18_4 1_555 1_555
C19_4 C18_4 1_555 1_555
C20_4 C19_4 1_555 1_555
H11_4 C20_4 1_555 1_555
C21_4 C16_4 1_555 1_555
C22_4 C15_4 1_555 1_555
C24_4 C45_4 1_555 1_555
O34_4 Mn11 1_555 1_555
C25_4 C31_4 1_555 1_555
C26_4 C79_4 1_555 1_555
O60_2 C107_4 1_555 1_555
C30_4 C37_4 1_555 1_555
C31_4 C70_4 1_555 1_555
C32_4 C25_4 1_555 1_555
C34_4 O16_4 1_555 1_555
H14_4 C35_4 1_555 1_555
H15_4 C35_4 1_555 1_555
C36_4 C2_4 1_555 1_555
C37_4 C87_4 1_555 1_555
C39_4 C36_4 1_555 1_555
H16_4 C39_4 1_555 1_555
C40_4 C43_4 1_555 1_555
C41_4 C71_4 1_555 1_555
C43_4 H18_4 1_555 1_555
C44_4 C34_4 1_555 1_555
C45_4 C6_4 1_555 1_555
C46_4 C4_4 1_555 1_555
C47_4 C6_4 1_555 1_555
C48_4 C5_4 1_555 1_555
C49_4 C47_4 1_555 1_555
C50_4 C46_4 1_555 1_555
C53_4 C30_4 1_555 1_555
C54_4 C74_4 1_555 1_555
C55_4 C32_4 1_555 1_555
C56_4 C22_4 1_555 1_555
H19_4 C56_4 1_555 1_555
C60_4 O19_4 1_555 1_555
C62_4 C17_4 1_555 1_555
C63_4 C35_4 1_555 1_555
C65_4 C34_4 1_555 1_555
C66_4 C40_4 1_555 1_555
H22_4 C66_4 1_555 1_555
C67_4 O15_4 1_555 1_555
C69_4 C67_4 1_555 1_555
C70_4 C40_4 1_555 1_555
C71_4 H23_4 1_555 1_555
C72_4 C31_4 1_555 1_555
H24_4 C72_4 1_555 1_555
H25_4 C72_4 1_555 1_555
H26_4 C72_4 1_555 1_555
C74_4 C97_4 1_555 1_555
C77_4 C5_4 1_555 1_555
C79_4 C71_4 1_555 1_555
C80_4 O34_4 1_555 1_555
C82_4 C44_4 1_555 1_555
C83_4 C50_4 1_555 1_555
H32_4 C83_4 1_555 1_555
C85_4 C55_4 1_555 1_555
H33_4 C85_4 1_555 1_555
H34_4 C85_4 1_555 1_555
H35_4 C85_4 1_555 1_555
C87_4 C41_4 1_555 1_555
H36_4 C87_4 1_555 1_555
C88_4 C37_4 1_555 1_555
H37_4 C88_4 1_555 1_555
C90_4 H38_4 1_555 1_555
C91_4 C90_4 1_555 1_555
C92_4 C91_4 1_555 1_555
H39_2 C92_4 1_555 1_555
C93_4 C92_4 1_555 1_555
C94_4 C93_4 1_555 1_555
H40_4 C94_4 1_555 1_555
C95_4 C69_4 1_555 1_555
C97_4 C30_4 1_555 1_555
H42_4 C97_4 1_555 1_555
C99_4 C62_4 1_555 1_555
H43_4 C99_4 1_555 1_555
C106_4 C53_4 1_555 1_555
H47_4 C106_4 1_555 1_555
H48_4 C106_4 1_555 1_555
H49_4 C106_4 1_555 1_555
C107_4 O2_4 1_555 1_555
C108_4 H50_4 1_555 1_555
C109_4 C65_4 1_555 1_555
C110_4 C109_4 1_555 1_555
H51_4 C110_4 1_555 1_555
C111_4 C110_4 1_555 1_555
C112_4 C111_4 1_555 1_555
H52_4 C112_4 1_555 1_555
C113_4 C108_4 1_555 1_555
C115_4 O1_4 1_555 1_555
H59_4 C124_4 1_555 1_555
C125_4 C74_4 1_555 1_555
O40_4 Mn11 1_555 1_555
C20_4 C21_4 1_555 1_555
C22_4 C115_4 1_555 1_555
C23_4 C56_4 1_555 1_555
C23_4 C77_4 1_555 1_555
C25_4 C60_4 1_555 1_555
C32_4 C67_4 1_555 1_555
C36_4 C107_4 1_555 1_555
C39_4 C46_4 1_555 1_555
C41_4 C80_4 1_555 1_555
C43_4 C47_4 1_555 1_555
C44_4 C63_4 1_555 1_555
C45_4 C66_4 1_555 1_555
C50_4 C55_4 1_555 1_555
C53_4 C82_4 1_555 1_555
C54_4 C82_4 1_555 1_555
C60_4 C62_4 1_555 1_555
C69_4 C83_4 1_555 1_555
C70_4 C99_4 1_555 1_555
C79_4 C88_4 1_555 1_555
C90_4 C95_4 1_555 1_555
C94_4 C95_4 1_555 1_555
C108_4 C109_4 1_555 1_555
C112_4 C113_4 1_555 1_555
C124_4 C125_4 1_555 1_555
O32_4 H70_4 1_555 1_555
O32_4 H71_4 1_555 1_555
O40_4 H74_4 1_555 1_555
O40_4 H75_4 1_555 1_555
O41_4 H76_4 1_555 1_555
O41_4 H77_4 1_555 1_555
C1_4 H1_4 1_555 1_555
F5_4 C102_4 1_555 1_555
F9_4 C123_4 1_555 1_555
F10_4 C121_4 1_555 1_555
C27_4 C1_4 1_555 1_555
C101_4 H44_4 1_555 1_555
C102_4 C101_4 1_555 1_555
C121_4 C122_4 1_555 1_555
C122_4 H58_4 1_555 1_555
C123_4 C122_4 1_555 1_555
C126_4 C121_4 1_555 1_555
O38_4 Mn13_2 1_555 1_555
O38_4 H72_4 1_555 1_555
O38_4 H73_4 1_555 1_555

#END
