
###############################################################################
#
# This file contains modified crystal structure data generated from the
# MOF subset of the Cambridge Structural Database (CSD) v543 
# hosted by the Cambridge Crystallographic Data Centre (CCDC).
#
# This work is licensed under the Creative Commons
# Attribution-NonCommercial-ShareAlike 4.0 International License.
# To view a copy of this license, visit
# http://creativecommons.org/licenses/by-nc-sa/4.0/
# or send a letter to
# Creative Commons, PO Box 1866, Mountain View, CA 94042, USA.
#
# CIF created using the CSD Python API on 29 September 2022
# The structure has been converted into the P1 space group
# The structure has a 3D framework
# The original CSD entry XIQZIH is in the monoclinic crystal system
# The original CSD entry XIQZIH is in a Sohncke space group
# The framework has been calculated to contain at least 10.0% void space
# The void calculation uses a probe of radius 1.32A, grid spacing 0.4
# The framework is charged, counterions have been retained in the structure
#
###############################################################################

data_XIQZIH
_chemical_formula_moiety         '(C80 H64 Cu1 N16 1+)n'
_symmetry_cell_setting           triclinic
_symmetry_space_group_name_H-M   'P 1'
_symmetry_Int_Tables_number      1
_space_group_name_Hall           'P 1'
loop_
_symmetry_equiv_pos_site_id
_symmetry_equiv_pos_as_xyz
1 x,y,z
_cell_length_a                   17.4878(17)
_cell_length_b                   16.5108(16)
_cell_length_c                   7.1382(7)
_cell_angle_alpha                90
_cell_angle_beta                 99.026(2)
_cell_angle_gamma                90
_cell_volume                     2035.54
loop_
_atom_site_label
_atom_site_type_symbol
_atom_site_fract_x
_atom_site_fract_y
_atom_site_fract_z
Cu4 Cu 0.21496(4) 0.77292(18) 0.00664(9)
N8 N 0.1262(2) 0.7732(7) 0.1563(6)
C31 C 0.1125(7) 0.7062(7) 0.2494(16)
H25 H 0.1372 0.6586 0.2234
C32 C 0.0630(6) 0.7041(7) 0.3831(15)
H26 H 0.0552 0.6559 0.4449
C33 C 0.0254(3) 0.7737(7) 0.4240(7)
C34 C 0.0398(6) 0.8397(7) 0.3290(16)
H27 H 0.0158 0.8882 0.3515
C35 C 0.0903(6) 0.8375(8) 0.1963(16)
H28 H 0.0985 0.8852 0.1329
Cu1 Cu 0.78504(4) 0.77292(18) 0.99336(9)
N3 N 0.8738(2) 0.7732(7) 0.8437(6)
N4 N 0.6800(3) 0.7727(6) 0.8101(6)
C11 C 0.8875(7) 0.7062(7) 0.7506(16)
H9 H 0.8628 0.6586 0.7766
C12 C 0.9370(6) 0.7041(7) 0.6169(15)
H10 H 0.9448 0.6559 0.5551
C13 C 0.9746(3) 0.7737(7) 0.5760(7)
C14 C 0.9602(6) 0.8397(7) 0.6710(16)
H11 H 0.9842 0.8882 0.6485
C15 C 0.9097(6) 0.8375(8) 0.8037(16)
H12 H 0.9015 0.8852 0.8671
C16 C 0.6646(5) 0.7223(5) 0.6661(10)
H13 H 0.7030 0.6857 0.6466
C17 C 0.5962(4) 0.7196(5) 0.5429(11)
H14 H 0.5894 0.6823 0.4443
C18 C 0.5377(3) 0.7727(6) 0.5660(8)
C19 C 0.5530(5) 0.8271(5) 0.7183(11)
H15 H 0.5156 0.8644 0.7403
C20 C 0.6222(5) 0.8253(6) 0.8328(12)
H16 H 0.6308 0.8620 0.9327
N10 N 0.3200(3) 0.7727(6) 0.1899(6)
C36 C 0.3354(5) 0.7223(5) 0.3339(10)
H29 H 0.2970 0.6857 0.3534
C37 C 0.4038(4) 0.7196(5) 0.4571(11)
H30 H 0.4106 0.6823 0.5557
C38 C 0.4623(3) 0.7727(6) 0.4340(8)
C39 C 0.4470(5) 0.8271(5) 0.2817(11)
H31 H 0.4844 0.8644 0.2597
C40 C 0.3778(5) 0.8253(6) 0.1672(12)
H32 H 0.3692 0.8620 0.0673
Cu2 Cu 0.71496(4) 0.27292(18) 0.00664(9)
N9 N 0.6262(2) 0.2732(7) 0.1563(6)
N11 N 0.8200(3) 0.2727(6) 0.1899(6)
Cu2_2 Cu 0.28504(4) 0.27292(18) 0.99336(9)
N9_2 N 0.3738(2) 0.2732(7) 0.8437(6)
N11_2 N 0.1800(3) 0.2727(6) 0.8101(6)
C11_2 C 0.3875(7) 0.2062(7) 0.7506(16)
H9_2 H 0.3628 0.1586 0.7766
C12_2 C 0.4370(6) 0.2041(7) 0.6169(15)
H10_2 H 0.4448 0.1559 0.5551
C13_2 C 0.4746(3) 0.2737(7) 0.5760(7)
C14_2 C 0.4602(6) 0.3397(7) 0.6710(16)
H11_2 H 0.4842 0.3882 0.6485
C15_2 C 0.4097(6) 0.3375(8) 0.8037(16)
H12_2 H 0.4015 0.3852 0.8671
C16_2 C 0.1646(5) 0.2223(5) 0.6661(10)
H13_2 H 0.2030 0.1857 0.6466
C17_2 C 0.0962(4) 0.2196(5) 0.5429(11)
H14_2 H 0.0894 0.1823 0.4443
C18_2 C 0.0377(3) 0.2727(6) 0.5660(8)
C19_2 C 0.0530(5) 0.3271(5) 0.7183(11)
H15_2 H 0.0156 0.3644 0.7403
C20_2 C 0.1222(5) 0.3253(6) 0.8328(12)
H16_2 H 0.1308 0.3620 0.9327
C31_2 C 0.6125(7) 0.2062(7) 0.2494(16)
H25_2 H 0.6372 0.1586 0.2234
C32_2 C 0.5630(6) 0.2041(7) 0.3831(15)
H26_2 H 0.5552 0.1559 0.4449
C33_2 C 0.5254(3) 0.2737(7) 0.4240(7)
C34_2 C 0.5398(6) 0.3397(7) 0.3290(16)
H27_2 H 0.5158 0.3882 0.3515
C35_2 C 0.5903(6) 0.3375(8) 0.1963(16)
H28_2 H 0.5985 0.3852 0.1329
C36_2 C 0.8354(5) 0.2223(5) 0.3339(10)
H29_2 H 0.7970 0.1857 0.3534
C37_2 C 0.9038(4) 0.2196(5) 0.4571(11)
H30_2 H 0.9106 0.1823 0.5557
C38_2 C 0.9623(3) 0.2727(6) 0.4340(8)
C39_2 C 0.9470(5) 0.3271(5) 0.2817(11)
H31_2 H 0.9844 0.3644 0.2597
C40_2 C 0.8778(5) 0.3253(6) 0.1672(12)
H32_2 H 0.8692 0.3620 0.0673
N5 N 0.7219(4) 0.1658(5) 0.8518(12)
N7 N 0.7221(5) 0.3653(6) 0.8246(12)
C21 C 0.6668(6) 0.1412(6) 0.7327(16)
H17 H 0.6181 0.1627 0.7381
C22 C 0.6728(7) 0.0840(6) 0.5924(15)
H18 H 0.6291 0.0694 0.5073
C23 C 0.7430(5) 0.0489(5) 0.5791(13)
C24 C 0.8017(4) 0.0745(5) 0.7125(11)
H19 H 0.8509 0.0529 0.7151
C25 C 0.7897(4) 0.1316(6) 0.8432(12)
H20 H 0.8319 0.1474 0.9317
H21 H 0.8391 0.0401 0.3247
N1 N 0.7781(4) 0.6658(5) 0.1482(12)
C1 C 0.8332(6) 0.6412(6) 0.2673(16)
H1 H 0.8819 0.6627 0.2619
C2 C 0.8272(7) 0.5840(6) 0.4076(15)
H2 H 0.8709 0.5694 0.4927
C3 C 0.7570(5) 0.5489(5) 0.4209(13)
C4 C 0.6983(4) 0.5745(5) 0.2875(11)
H3 H 0.6491 0.5529 0.2849
C5 C 0.7103(4) 0.6316(6) 0.1568(12)
H4 H 0.6681 0.6474 0.0683
C6 C 0.7452(5) 0.4866(7) 0.5651(12)
C7 C 0.6912(5) 0.4937(6) 0.6806(13)
H5 H 0.6609 0.5401 0.6753
C8 C 0.6810(6) 0.4337(6) 0.8039(13)
H6 H 0.6427 0.4408 0.8793
C9 C 0.7766(6) 0.3572(6) 0.7026(12)
H7 H 0.8052 0.3096 0.7080
C10 C 0.7903(6) 0.4143(6) 0.5777(12)
H8 H 0.8282 0.4068 0.5013
N6 N 0.7779(5) 0.8653(6) 0.1754(12)
C26 C 0.7548(5) 0.9866(7) 0.4349(12)
C27 C 0.8088(5) 0.9937(6) 0.3194(13)
C28 C 0.8190(6) 0.9337(6) 0.1961(13)
H22 H 0.8573 0.9408 0.1207
C29 C 0.7234(6) 0.8572(6) 0.2974(12)
H23 H 0.6948 0.8096 0.2920
C30 C 0.7097(6) 0.9143(6) 0.4223(12)
H24 H 0.6718 0.9068 0.4987
N5_2 N 0.2781(4) 0.1658(5) 0.1482(12)
N7_2 N 0.2779(5) 0.3653(6) 0.1754(12)
C21_2 C 0.3332(6) 0.1412(6) 0.2673(16)
H17_2 H 0.3819 0.1627 0.2619
C22_2 C 0.3272(7) 0.0840(6) 0.4076(15)
H18_2 H 0.3709 0.0694 0.4927
C23_2 C 0.2570(5) 0.0489(5) 0.4209(13)
C24_2 C 0.1983(4) 0.0745(5) 0.2875(11)
H19_2 H 0.1491 0.0529 0.2849
C25_2 C 0.2103(4) 0.1316(6) 0.1568(12)
H20_2 H 0.1681 0.1474 0.0683
H21_2 H 0.1609 0.0401 0.6753
N1_2 N 0.2219(4) 0.6658(5) 0.8518(12)
C1_2 C 0.1668(6) 0.6412(6) 0.7327(16)
H1_2 H 0.1181 0.6627 0.7381
C2_2 C 0.1728(7) 0.5840(6) 0.5924(15)
H2_2 H 0.1291 0.5694 0.5073
C3_2 C 0.2430(5) 0.5489(5) 0.5791(13)
C4_2 C 0.3017(4) 0.5745(5) 0.7125(11)
H3_2 H 0.3509 0.5529 0.7151
C5_2 C 0.2897(4) 0.6316(6) 0.8432(12)
H4_2 H 0.3319 0.6474 0.9317
C6_2 C 0.2548(5) 0.4866(7) 0.4349(12)
C7_2 C 0.3088(5) 0.4937(6) 0.3194(13)
H5_2 H 0.3391 0.5401 0.3247
C8_2 C 0.3190(6) 0.4337(6) 0.1961(13)
H6_2 H 0.3573 0.4408 0.1207
C9_2 C 0.2234(6) 0.3572(6) 0.2974(12)
H7_2 H 0.1948 0.3096 0.2920
C10_2 C 0.2097(6) 0.4143(6) 0.4223(12)
H8_2 H 0.1718 0.4068 0.4987
N6_2 N 0.2221(5) 0.8653(6) 0.8246(12)
C26_2 C 0.2452(5) 0.9866(7) 0.5651(12)
C27_2 C 0.1912(5) 0.9937(6) 0.6806(13)
C28_2 C 0.1810(6) 0.9337(6) 0.8039(13)
H22_2 H 0.1427 0.9408 0.8793
C29_2 C 0.2766(6) 0.8572(6) 0.7026(12)
H23_2 H 0.3052 0.8096 0.7080
C30_2 C 0.2903(6) 0.9143(6) 0.5777(12)
H24_2 H 0.3282 0.9068 0.5013
loop_
_geom_bond_atom_site_label_1
_geom_bond_atom_site_label_2
_geom_bond_site_symmetry_1
_geom_bond_site_symmetry_2
Cu4 N8 1_555 1_555
N8 C31 1_555 1_555
C31 H25 1_555 1_555
C32 C31 1_555 1_555
H26 C32 1_555 1_555
C34 C33 1_555 1_555
H27 C34 1_555 1_555
C35 N8 1_555 1_555
H28 C35 1_555 1_555
C32 C33 1_555 1_555
C34 C35 1_555 1_555
N3 Cu1 1_555 1_555
N4 Cu1 1_555 1_555
C11 N3 1_555 1_555
H9 C11 1_555 1_555
C12 C11 1_555 1_555
H10 C12 1_555 1_555
C13 C12 1_555 1_555
C14 C13 1_555 1_555
H11 C14 1_555 1_555
C15 N3 1_555 1_555
H12 C15 1_555 1_555
C16 N4 1_555 1_555
H13 C16 1_555 1_555
C17 C16 1_555 1_555
H14 C17 1_555 1_555
C18 C17 1_555 1_555
C19 C18 1_555 1_555
H15 C19 1_555 1_555
C20 N4 1_555 1_555
H16 C20 1_555 1_555
Cu4 N10 1_555 1_555
N10 C36 1_555 1_555
C36 H29 1_555 1_555
C37 C36 1_555 1_555
H30 C37 1_555 1_555
C38 C18 1_555 1_555
C39 C38 1_555 1_555
H31 C39 1_555 1_555
C40 N10 1_555 1_555
H32 C40 1_555 1_555
C14 C15 1_555 1_555
C19 C20 1_555 1_555
C37 C38 1_555 1_555
C39 C40 1_555 1_555
N9 Cu2 1_555 1_555
N11 Cu2 1_555 1_555
N9_2 Cu2_2 1_555 1_555
N11_2 Cu2_2 1_555 1_555
C11_2 N9_2 1_555 1_555
H9_2 C11_2 1_555 1_555
C12_2 C11_2 1_555 1_555
H10_2 C12_2 1_555 1_555
C13_2 C12_2 1_555 1_555
C14_2 C13_2 1_555 1_555
H11_2 C14_2 1_555 1_555
C15_2 N9_2 1_555 1_555
H12_2 C15_2 1_555 1_555
C16_2 N11_2 1_555 1_555
H13_2 C16_2 1_555 1_555
C17_2 C16_2 1_555 1_555
H14_2 C17_2 1_555 1_555
C18_2 C17_2 1_555 1_555
C19_2 C18_2 1_555 1_555
H15_2 C19_2 1_555 1_555
C20_2 N11_2 1_555 1_555
H16_2 C20_2 1_555 1_555
N9 C31_2 1_555 1_555
C31_2 H25_2 1_555 1_555
C32_2 C31_2 1_555 1_555
H26_2 C32_2 1_555 1_555
C33_2 C13_2 1_555 1_555
C34_2 C33_2 1_555 1_555
H27_2 C34_2 1_555 1_555
C35_2 N9 1_555 1_555
H28_2 C35_2 1_555 1_555
C14_2 C15_2 1_555 1_555
C19_2 C20_2 1_555 1_555
C32_2 C33_2 1_555 1_555
C34_2 C35_2 1_555 1_555
N11 C36_2 1_555 1_555
C36_2 H29_2 1_555 1_555
C37_2 C36_2 1_555 1_555
H30_2 C37_2 1_555 1_555
C39_2 C38_2 1_555 1_555
H31_2 C39_2 1_555 1_555
C40_2 N11 1_555 1_555
H32_2 C40_2 1_555 1_555
C37_2 C38_2 1_555 1_555
C39_2 C40_2 1_555 1_555
N5 C21 1_555 1_555
C21 H17 1_555 1_555
C22 C21 1_555 1_555
H18 C22 1_555 1_555
C23 C22 1_555 1_555
C24 C23 1_555 1_555
H19 C24 1_555 1_555
C25 N5 1_555 1_555
H20 C25 1_555 1_555
C24 C25 1_555 1_555
N1 C1 1_555 1_555
N7 C8 1_555 1_555
C1 H1 1_555 1_555
C2 C1 1_555 1_555
H2 C2 1_555 1_555
C3 C2 1_555 1_555
C4 C3 1_555 1_555
H3 C4 1_555 1_555
C5 N1 1_555 1_555
H4 C5 1_555 1_555
C6 C3 1_555 1_555
C7 C6 1_555 1_555
H5 C7 1_555 1_555
C8 C7 1_555 1_555
H6 C8 1_555 1_555
C9 N7 1_555 1_555
H7 C9 1_555 1_555
C10 C6 1_555 1_555
H8 C10 1_555 1_555
C27 C26 1_555 1_555
C28 N6 1_555 1_555
H22 C28 1_555 1_555
C29 N6 1_555 1_555
H23 C29 1_555 1_555
C30 C26 1_555 1_555
H24 C30 1_555 1_555
C4 C5 1_555 1_555
C9 C10 1_555 1_555
C27 C28 1_555 1_555
C29 C30 1_555 1_555
N5_2 C21_2 1_555 1_555
C21_2 H17_2 1_555 1_555
C22_2 C21_2 1_555 1_555
H18_2 C22_2 1_555 1_555
C23_2 C22_2 1_555 1_555
C24_2 C23_2 1_555 1_555
H19_2 C24_2 1_555 1_555
C25_2 N5_2 1_555 1_555
H20_2 C25_2 1_555 1_555
C24_2 C25_2 1_555 1_555
N1_2 C1_2 1_555 1_555
N7_2 C8_2 1_555 1_555
C1_2 H1_2 1_555 1_555
C2_2 C1_2 1_555 1_555
H2_2 C2_2 1_555 1_555
C3_2 C2_2 1_555 1_555
C4_2 C3_2 1_555 1_555
H3_2 C4_2 1_555 1_555
C5_2 N1_2 1_555 1_555
H4_2 C5_2 1_555 1_555
C6_2 C3_2 1_555 1_555
C7_2 C6_2 1_555 1_555
H5_2 C7_2 1_555 1_555
C8_2 C7_2 1_555 1_555
H6_2 C8_2 1_555 1_555
C9_2 N7_2 1_555 1_555
H7_2 C9_2 1_555 1_555
C10_2 C6_2 1_555 1_555
H8_2 C10_2 1_555 1_555
C27_2 C26_2 1_555 1_555
C28_2 N6_2 1_555 1_555
H22_2 C28_2 1_555 1_555
C29_2 N6_2 1_555 1_555
H23_2 C29_2 1_555 1_555
C30_2 C26_2 1_555 1_555
H24_2 C30_2 1_555 1_555
C4_2 C5_2 1_555 1_555
C9_2 C10_2 1_555 1_555
C27_2 C28_2 1_555 1_555
C29_2 C30_2 1_555 1_555

#END
