
###############################################################################
#
# This file contains modified crystal structure data generated from the
# MOF subset of the Cambridge Structural Database (CSD) v543 
# hosted by the Cambridge Crystallographic Data Centre (CCDC).
#
# This work is licensed under the Creative Commons
# Attribution-NonCommercial-ShareAlike 4.0 International License.
# To view a copy of this license, visit
# http://creativecommons.org/licenses/by-nc-sa/4.0/
# or send a letter to
# Creative Commons, PO Box 1866, Mountain View, CA 94042, USA.
#
# CIF created using the CSD Python API on 29 September 2022
# The structure has been converted into the P1 space group
# The structure has a 3D framework
# The original CSD entry XIRKAM is in the triclinic crystal system
# The framework has been calculated to contain at least 10.0% void space
# The void calculation uses a probe of radius 1.32A, grid spacing 0.4
# The framework is charged, counterions have been retained in the structure
#
###############################################################################

data_XIRKAM
_chemical_formula_moiety         '(C224 H112 Cd12 N16 O60 8-)n'
_symmetry_cell_setting           triclinic
_symmetry_space_group_name_H-M   'P 1'
_symmetry_Int_Tables_number      1
_space_group_name_Hall           'P 1'
loop_
_symmetry_equiv_pos_site_id
_symmetry_equiv_pos_as_xyz
1 x,y,z
_cell_length_a                   22.115(14)
_cell_length_b                   22.212(14)
_cell_length_c                   22.50(2)
_cell_angle_alpha                107.732(11)
_cell_angle_beta                 107.417(11)
_cell_angle_gamma                101.832(8)
_cell_volume                     9496.19
loop_
_atom_site_label
_atom_site_type_symbol
_atom_site_fract_x
_atom_site_fract_y
_atom_site_fract_z
C109 C 0.0367(3) 0.6309(3) 0.1809(3)
H54 H 0.0743 0.6660 0.1908
C110 C 0.0237(3) 0.5700(3) 0.1332(3)
H55 H 0.0534 0.5620 0.1125
C111 C 0.0130(3) 0.7085(3) 0.2682(3)
O31 O 0.0642(2) 0.7532(2) 0.2821(2)
Cd8 Cd 0.04029(2) 0.83146(2) 0.36670(2)
O27 O 0.0155(2) 0.91098(19) 0.45916(18)
N8 N 0.8711(2) 0.4730(2) 0.1279(2)
H8 H 0.8391 0.4682 0.1421
C101 C 0.95352(17) 0.41294(19) 0.0216(2)
H51 H 0.9922 0.4307 0.0157
C102 C 0.93615(19) 0.45238(14) 0.0705(2)
C103 C 0.8784(2) 0.42590(17) 0.07935(19)
C104 C 0.83799(16) 0.35999(18) 0.0392(2)
H52 H 0.7993 0.3423 0.0451
C105 C 0.9644(3) 0.5194(3) 0.1160(3)
C106 C 0.9245(3) 0.5310(3) 0.1513(3)
C107 C 0.9381(3) 0.5908(3) 0.2008(3)
H53 H 0.9105 0.5977 0.2245
C108 C 0.9952(3) 0.6414(3) 0.2145(3)
O32 O 0.9754(2) 0.7186(2) 0.2981(2)
Cd11 Cd 0.88494(2) 0.72852(2) 0.32419(2)
N5 N 0.6348(2) 0.7093(3) 0.0192(3)
H5 H 0.5941 0.6948 0.0155
C62 C 0.7254(3) 0.7620(3) 0.0067(3)
C64 C 0.6885(3) 0.6984(3) 0.0579(3)
C65 C 0.7465(3) 0.7309(3) 0.0537(3)
C66 C 0.8080(3) 0.7291(3) 0.0905(3)
H36 H 0.8470 0.7504 0.0873
C67 C 0.8094(3) 0.6952(3) 0.1317(3)
H37 H 0.8503 0.6927 0.1564
C68 C 0.7531(3) 0.6646(3) 0.1380(3)
C69 C 0.6916(3) 0.6658(3) 0.1015(3)
H38 H 0.6531 0.6452 0.1061
C70 C 0.7568(3) 0.6298(3) 0.1863(3)
O19 O 0.81524(19) 0.63888(18) 0.22661(18)
O20 O 0.7050(2) 0.5936(2) 0.1842(2)
Cd12 Cd 0.77996(2) 0.57206(2) 0.27922(2)
N1 N 0.3940(2) 0.9456(2) 0.6294(2)
H1 H 0.3896 0.9119 0.6409
N2 N 0.1371(2) 0.7468(2) 0.5279(2)
H2 H 0.1408 0.7809 0.5171
N7 N 0.9021(2) 0.9817(2) 0.6308(2)
C1 C 0.1710(3) 0.8894(3) 0.4496(3)
C2 C 0.2421(3) 0.9319(3) 0.4936(3)
C3 C 0.2680(3) 0.9914(3) 0.4889(3)
C6 C 0.3451(3) 0.9539(3) 0.5810(3)
C7 C 0.2806(3) 0.9131(3) 0.5400(3)
H11 H 0.2633 0.8731 0.5437
H14 H 0.5205 0.9812 0.7226
C17 C 0.0189(3) 0.6791(3) 0.4512(3)
H15 H 0.0110 0.7091 0.4311
C18 C 0.0803(3) 0.6923(3) 0.5004(3)
C19 C 0.0940(3) 0.6496(3) 0.5320(3)
C20 C 0.0424(3) 0.5911(3) 0.5154(4)
H16 H 0.0493 0.5625 0.5376
C22 C 0.1605(3) 0.6790(3) 0.5798(3)
C23 C 0.1870(3) 0.7388(3) 0.5749(3)
C24 C 0.2526(3) 0.7789(3) 0.6144(3)
H18 H 0.2692 0.8191 0.6107
C25 C 0.2931(3) 0.7600(3) 0.6589(3)
C26 C 0.2670(3) 0.7013(3) 0.6664(3)
H19 H 0.2938 0.6897 0.6987
C27 C 0.2006(3) 0.6594(3) 0.6256(4)
H20 H 0.1839 0.6193 0.6292
C28 C 0.3641(3) 0.8002(3) 0.7007(3)
C57 C 0.6185(3) 0.8392(3) 0.8732(3)
C58 C 0.7231(3) 0.8252(3) 0.9383(3)
H33 H 0.7456 0.8521 0.9219
C59 C 0.6542(3) 0.8108(3) 0.9192(3)
C60 C 0.6212(3) 0.7712(3) 0.9435(3)
H34 H 0.5750 0.7605 0.9305
C61 C 0.6566(3) 0.7472(3) 0.9874(3)
C63 C 0.7581(3) 0.8008(3) 0.9809(3)
H35 H 0.8040 0.8102 0.9925
C85 C 0.7780(3) 0.9957(3) 0.7831(3)
C86 C 0.8080(3) 0.9620(3) 0.7388(3)
C87 C 0.8426(3) 0.9956(3) 0.7111(3)
C88 C 0.8674(3) 0.9615(3) 0.6668(3)
C89 C 0.8583(3) 0.8941(3) 0.6516(3)
C90 C 0.8223(3) 0.8609(3) 0.6804(3)
H46 H 0.8150 0.8155 0.6701
C91 C 0.8886(3) 0.8728(3) 0.6030(3)
C92 C 0.9137(3) 0.9289(3) 0.5903(3)
C93 C 0.9445(3) 0.9258(3) 0.5456(3)
H47 H 0.9620 0.9640 0.5391
C94 C 0.9494(3) 0.8654(3) 0.5105(3)
C95 C 0.9225(3) 0.8092(3) 0.5207(3)
H48 H 0.9251 0.7684 0.4962
C96 C 0.8928(3) 0.8118(3) 0.5652(3)
H49 H 0.8750 0.7732 0.5708
C97 C 0.9814(3) 0.8613(3) 0.4623(3)
C112 C 0.7981(3) 0.8956(3) 0.7237(3)
H56 H 0.7745 0.8737 0.7433
O1 O 0.14335(17) 0.84095(18) 0.45892(18)
O2 O 0.14007(17) 0.90626(17) 0.40421(18)
O5 O 0.38938(18) 0.85097(19) 0.69215(18)
O6 O 0.39635(18) 0.78138(19) 0.74261(19)
O17 O 0.65401(19) 0.8751(2) 0.85547(19)
O18 O 0.55599(19) 0.82329(19) 0.85505(19)
O26 O 0.74184(19) 0.9614(2) 0.80180(19)
O28 O 0.97434(17) 0.80254(18) 0.42178(17)
Cd4 Cd 0.49525(2) 0.85805(2) 0.78337(2)
Cd5 Cd 0.65297(2) 0.96132(2) 0.82856(2)
O33 O 0.5171(2) 0.7841(2) 0.6862(2)
O34 O 0.56323(18) 0.8914(2) 0.73059(18)
O35 O 0.4687(2) 0.9402(2) 0.8573(2)
O36 O 0.5651(2) 0.9692(2) 0.8576(3)
N3 N 0.6273(3) 0.7111(3) 0.5128(3)
H3 H 0.6087 0.6699 0.5049
N4 N 0.6613(2) 0.2191(2) 0.0174(3)
H4 H 0.6920 0.2247 0.0016
N6 N 0.9005(2) 0.9841(3) 0.1367(3)
H6 H 0.9413 0.9999 0.1415
C15 C 0.9034(3) 0.6029(4) 0.3794(4)
C16 C 0.9698(3) 0.6205(3) 0.4327(3)
C21 C 0.9798(3) 0.5771(3) 0.4640(4)
H17 H 0.9451 0.5381 0.4514
C29 C 0.7605(3) 0.6939(3) 0.3687(3)
C30 C 0.7332(3) 0.7307(3) 0.4164(3)
C31 C 0.7530(3) 0.7987(3) 0.4421(3)
H21 H 0.7820 0.8215 0.4277
C32 C 0.7322(3) 0.8349(3) 0.4884(3)
H22 H 0.7472 0.8814 0.5051
C33 C 0.6894(3) 0.8025(3) 0.5097(3)
C34 C 0.6692(3) 0.7346(3) 0.4831(3)
C35 C 0.6896(3) 0.6973(3) 0.4374(3)
H23 H 0.6746 0.6508 0.4210
C36 C 0.6210(3) 0.7668(3) 0.5576(3)
C37 C 0.5869(3) 0.7694(3) 0.6000(3)
H24 H 0.5626 0.7304 0.6007
C38 C 0.5894(3) 0.8308(3) 0.6412(3)
C39 C 0.6264(3) 0.8885(3) 0.6395(3)
H25 H 0.6282 0.9301 0.6674
C40 C 0.6598(3) 0.8850(3) 0.5974(3)
H26 H 0.6842 0.9242 0.5970
C41 C 0.6583(3) 0.8252(3) 0.5561(3)
C42 C 0.5539(3) 0.8350(3) 0.6886(3)
C43 C 0.7232(3) 0.4410(3) 0.2004(3)
C44 C 0.6822(3) 0.3705(3) 0.1587(3)
C45 C 0.6967(3) 0.3327(3) 0.1076(3)
H27 H 0.7332 0.3509 0.0988
C46 C 0.6557(3) 0.2668(3) 0.0691(3)
C47 C 0.5990(3) 0.2400(3) 0.0802(3)
C48 C 0.5852(3) 0.2784(3) 0.1314(3)
H28 H 0.5481 0.2608 0.1397
C49 C 0.6261(3) 0.3426(3) 0.1702(3)
H29 H 0.6166 0.3685 0.2051
C50 C 0.5688(3) 0.1719(3) 0.0314(3)
C55 C 0.5129(3) 0.1196(3) 0.0179(3)
H32 H 0.4858 0.1252 0.0425
C74 C 0.8461(3) 0.9933(3) 0.0960(3)
C75 C 0.7875(3) 0.9605(3) 0.1016(3)
C76 C 0.7269(3) 0.9627(3) 0.0627(3)
H40 H 0.6877 0.9423 0.0663
C77 C 0.7241(3) 0.9941(3) 0.0196(3)
C78 C 0.8098(3) 0.9298(3) 0.1486(3)
C79 C 0.8785(3) 0.9447(3) 0.1690(3)
C80 C 0.9162(3) 0.9222(3) 0.2119(3)
H42 H 0.9624 0.9330 0.2245
C81 C 0.8813(3) 0.8823(3) 0.2354(3)
C82 C 0.8137(3) 0.8661(3) 0.2140(3)
H43 H 0.7912 0.8377 0.2291
C83 C 0.7776(3) 0.8893(3) 0.1719(3)
H44 H 0.7314 0.8778 0.1590
C84 C 0.9179(4) 0.8523(3) 0.2795(3)
O7 O 0.8612(2) 0.5500(3) 0.3601(3)
O8 O 0.8924(2) 0.6426(2) 0.3555(2)
O9 O 0.7427(2) 0.6316(2) 0.3487(2)
O10 O 0.7976(2) 0.7288(2) 0.3511(2)
O13 O 0.70583(19) 0.47256(18) 0.24445(19)
O14 O 0.77129(19) 0.46654(19) 0.1880(2)
O23 O 0.9804(2) 0.8684(2) 0.2964(2)
O24 O 0.8831(2) 0.8134(2) 0.2952(2)
C51 C 0.6094(3) 0.1606(3) 0.9948(3)
C52 C 0.5946(3) 0.0986(3) 0.9447(3)
H30 H 0.6221 0.0913 0.9208
C53 C 0.5393(3) 0.0490(3) 0.9314(3)
C54 C 0.4995(3) 0.0606(3) 0.9680(3)
H31 H 0.4615 0.0257 0.9575
H41 H 0.6828 0.9939 0.9928
C56 C 0.5243(3) 0.9832(3) 0.8795(3)
H7 H 0.9147 0.0220 0.6333
H9 H 0.2415 0.0037 0.4571
C4 C 0.3317(3) 0.0325(3) 0.5303(3)
H10 H 0.3485 0.0728 0.5270
C5 C 0.3708(3) 0.0140(3) 0.5766(3)
C8 C 0.4393(3) 0.0438(3) 0.6254(3)
C9 C 0.4887(3) 0.1028(3) 0.6442(3)
H12 H 0.4812 0.1330 0.6242
C10 C 0.5486(3) 0.1152(3) 0.6926(3)
H13 H 0.5820 0.1554 0.7063
C11 C 0.5629(3) 0.0715(3) 0.7230(3)
C12 C 0.5126(3) 0.0121(3) 0.7038(3)
C13 C 0.4515(3) 0.0004(3) 0.6568(3)
C14 C 0.6309(3) 0.0874(3) 0.7746(3)
H45 H 0.8493 0.0410 0.7219
C98 C 0.8146(3) 0.2495(3) 0.9500(3)
C99 C 0.85537(19) 0.32056(14) 0.9903(2)
C100 C 0.9131(2) 0.34704(18) 0.9814(2)
H50 H 0.9248 0.3207 0.9487
O3 O 0.6428(2) 0.0482(2) 0.7987(2)
O4 O 0.67547(19) 0.1415(2) 0.7927(2)
O25 O 0.7920(2) 0.0581(2) 0.80149(19)
O29 O 0.83268(19) 0.21684(18) 0.9068(2)
O30 O 0.76505(19) 0.22357(18) 0.96020(19)
Cd6 Cd 0.75614(2) 0.11819(2) 0.873070(19)
O39 O 0.8298(2) 0.0966(2) 0.9674(2)
O40 O 0.72179(19) 0.05156(18) 0.92533(17)
C71 C 0.7785(3) 0.0601(3) 0.9672(3)
C72 C 0.7811(3) 0.0263(3) 0.0149(3)
C73 C 0.8436(3) 0.0268(3) 0.0533(3)
H39 H 0.8824 0.0490 0.0504
C56_2 C 0.4757(3) 0.0168(3) 0.1205(3)
O15 O 0.5313(2) 0.0598(2) 0.1427(2)
O16 O 0.4349(2) 0.0308(2) 0.1424(3)
Cd13 Cd 0.50475(2) 0.14195(2) 0.21663(2)
Cd15 Cd 0.34703(2) 0.03868(2) 0.17144(2)
C51_2 C 0.3906(3) 0.8394(3) 0.0052(3)
C52_2 C 0.4054(3) 0.9014(3) 0.0553(3)
H30_2 H 0.3779 0.9087 0.0792
C53_2 C 0.4607(3) 0.9510(3) 0.0686(3)
C54_2 C 0.5005(3) 0.9394(3) 0.0320(3)
H31_2 H 0.5385 0.9743 0.0425
H41_2 H 0.3172 0.0061 0.0072
N3_2 N 0.3727(3) 0.2889(3) 0.4872(3)
H3_2 H 0.3913 0.3301 0.4951
N4_2 N 0.3387(2) 0.7809(2) 0.9826(3)
H4_2 H 0.3080 0.7753 0.9984
N6_2 N 0.0995(2) 0.0159(3) 0.8633(3)
H6_2 H 0.0587 0.0001 0.8585
C15_2 C 0.0966(3) 0.3971(4) 0.6206(4)
C16_2 C 0.0302(3) 0.3795(3) 0.5673(3)
C21_2 C 0.0202(3) 0.4229(3) 0.5360(4)
H17_2 H 0.0549 0.4619 0.5486
C29_2 C 0.2395(3) 0.3061(3) 0.6313(3)
C30_2 C 0.2668(3) 0.2693(3) 0.5836(3)
C31_2 C 0.2470(3) 0.2013(3) 0.5579(3)
H21_2 H 0.2180 0.1785 0.5723
C32_2 C 0.2678(3) 0.1651(3) 0.5116(3)
H22_2 H 0.2528 0.1186 0.4949
C33_2 C 0.3106(3) 0.1975(3) 0.4903(3)
C34_2 C 0.3308(3) 0.2654(3) 0.5169(3)
C35_2 C 0.3104(3) 0.3027(3) 0.5626(3)
H23_2 H 0.3254 0.3492 0.5790
C36_2 C 0.3790(3) 0.2332(3) 0.4424(3)
C37_2 C 0.4131(3) 0.2306(3) 0.4000(3)
H24_2 H 0.4374 0.2696 0.3993
C38_2 C 0.4106(3) 0.1692(3) 0.3588(3)
C39_2 C 0.3736(3) 0.1115(3) 0.3605(3)
H25_2 H 0.3718 0.0699 0.3326
C40_2 C 0.3402(3) 0.1150(3) 0.4026(3)
H26_2 H 0.3158 0.0758 0.4030
C41_2 C 0.3417(3) 0.1748(3) 0.4439(3)
C42_2 C 0.4461(3) 0.1650(3) 0.3114(3)
C43_2 C 0.2768(3) 0.5590(3) 0.7996(3)
C44_2 C 0.3178(3) 0.6295(3) 0.8413(3)
C45_2 C 0.3033(3) 0.6673(3) 0.8924(3)
H27_2 H 0.2668 0.6491 0.9012
C46_2 C 0.3443(3) 0.7332(3) 0.9309(3)
C47_2 C 0.4010(3) 0.7600(3) 0.9198(3)
C48_2 C 0.4148(3) 0.7216(3) 0.8686(3)
H28_2 H 0.4519 0.7392 0.8603
C49_2 C 0.3739(3) 0.6574(3) 0.8298(3)
H29_2 H 0.3834 0.6315 0.7949
C50_2 C 0.4312(3) 0.8281(3) 0.9686(3)
C55_2 C 0.4871(3) 0.8804(3) 0.9821(3)
H32_2 H 0.5142 0.8748 0.9575
C74_2 C 0.1539(3) 0.0067(3) 0.9040(3)
C75_2 C 0.2125(3) 0.0395(3) 0.8984(3)
C76_2 C 0.2731(3) 0.0373(3) 0.9373(3)
H40_2 H 0.3123 0.0577 0.9337
C77_2 C 0.2759(3) 0.0059(3) 0.9804(3)
C78_2 C 0.1902(3) 0.0702(3) 0.8514(3)
C79_2 C 0.1215(3) 0.0553(3) 0.8310(3)
C80_2 C 0.0838(3) 0.0778(3) 0.7881(3)
H42_2 H 0.0376 0.0670 0.7755
C81_2 C 0.1187(3) 0.1177(3) 0.7646(3)
C82_2 C 0.1863(3) 0.1339(3) 0.7860(3)
H43_2 H 0.2088 0.1623 0.7709
C83_2 C 0.2224(3) 0.1107(3) 0.8281(3)
H44_2 H 0.2686 0.1222 0.8410
C84_2 C 0.0821(4) 0.1477(3) 0.7205(3)
O7_2 O 0.1388(2) 0.4500(3) 0.6399(3)
O8_2 O 0.1076(2) 0.3574(2) 0.6445(2)
O9_2 O 0.2573(2) 0.3684(2) 0.6513(2)
O10_2 O 0.2024(2) 0.2712(2) 0.6489(2)
O11 O 0.4829(2) 0.2159(2) 0.3138(2)
O12 O 0.43677(18) 0.1086(2) 0.26941(18)
O13_2 O 0.29417(19) 0.52744(18) 0.75555(19)
O14_2 O 0.22871(19) 0.53346(19) 0.8120(2)
O23_2 O 0.0196(2) 0.1316(2) 0.7036(2)
O24_2 O 0.1169(2) 0.1866(2) 0.7048(2)
Cd2 Cd 0.11506(2) 0.27148(2) 0.67581(2)
Cd3 Cd 0.22004(2) 0.42794(2) 0.72078(2)
O37 O 0.18476(19) 0.36112(18) 0.77339(18)
O38 O 0.2950(2) 0.4064(2) 0.8158(2)
O42 O 0.02566(17) 0.19746(18) 0.57822(17)
O44 O 0.0246(2) 0.2814(2) 0.7019(2)
Cd1 Cd 0.95971(2) 0.16854(2) 0.63330(2)
N1_2 N 0.6060(2) 0.0544(2) 0.3706(2)
H1_2 H 0.6104 0.0881 0.3591
N2_2 N 0.8629(2) 0.2532(2) 0.4721(2)
H2_2 H 0.8592 0.2191 0.4829
N7_2 N 0.0979(2) 0.0183(2) 0.3692(2)
C1_2 C 0.8290(3) 0.1106(3) 0.5504(3)
C2_2 C 0.7579(3) 0.0681(3) 0.5064(3)
C3_2 C 0.7320(3) 0.0086(3) 0.5111(3)
C6_2 C 0.6549(3) 0.0461(3) 0.4190(3)
C7_2 C 0.7194(3) 0.0869(3) 0.4600(3)
H11_2 H 0.7367 0.1269 0.4563
H14_2 H 0.4795 0.0188 0.2774
C17_2 C 0.9811(3) 0.3209(3) 0.5488(3)
H15_2 H 0.9890 0.2909 0.5689
C18_2 C 0.9197(3) 0.3077(3) 0.4996(3)
C19_2 C 0.9060(3) 0.3504(3) 0.4680(3)
C20_2 C 0.9576(3) 0.4089(3) 0.4846(4)
H16_2 H 0.9507 0.4375 0.4624
C22_2 C 0.8395(3) 0.3210(3) 0.4202(3)
C23_2 C 0.8130(3) 0.2612(3) 0.4251(3)
C24_2 C 0.7474(3) 0.2211(3) 0.3856(3)
H18_2 H 0.7308 0.1809 0.3893
C25_2 C 0.7069(3) 0.2400(3) 0.3411(3)
C26_2 C 0.7330(3) 0.2987(3) 0.3336(3)
H19_2 H 0.7062 0.3103 0.3013
C27_2 C 0.7994(3) 0.3406(3) 0.3744(4)
H20_2 H 0.8161 0.3807 0.3708
C28_2 C 0.6359(3) 0.1998(3) 0.2993(3)
C57_2 C 0.3815(3) 0.1608(3) 0.1268(3)
C58_2 C 0.2769(3) 0.1748(3) 0.0617(3)
H33_2 H 0.2544 0.1479 0.0781
C59_2 C 0.3458(3) 0.1892(3) 0.0808(3)
C60_2 C 0.3788(3) 0.2288(3) 0.0565(3)
H34_2 H 0.4250 0.2395 0.0695
C61_2 C 0.3434(3) 0.2528(3) 0.0126(3)
C63_2 C 0.2419(3) 0.1992(3) 0.0191(3)
H35_2 H 0.1960 0.1898 0.0075
C85_2 C 0.2220(3) 0.0043(3) 0.2169(3)
C86_2 C 0.1920(3) 0.0380(3) 0.2612(3)
C87_2 C 0.1574(3) 0.0044(3) 0.2889(3)
C88_2 C 0.1326(3) 0.0385(3) 0.3332(3)
C89_2 C 0.1417(3) 0.1059(3) 0.3484(3)
C90_2 C 0.1777(3) 0.1391(3) 0.3196(3)
H46_2 H 0.1850 0.1845 0.3299
C91_2 C 0.1114(3) 0.1272(3) 0.3970(3)
C92_2 C 0.0863(3) 0.0711(3) 0.4097(3)
C93_2 C 0.0555(3) 0.0742(3) 0.4544(3)
H47_2 H 0.0380 0.0360 0.4609
C94_2 C 0.0506(3) 0.1346(3) 0.4895(3)
C95_2 C 0.0775(3) 0.1908(3) 0.4793(3)
H48_2 H 0.0749 0.2316 0.5038
C96_2 C 0.1072(3) 0.1882(3) 0.4348(3)
H49_2 H 0.1250 0.2268 0.4292
C97_2 C 0.0186(3) 0.1387(3) 0.5377(3)
C112_2 C 0.2019(3) 0.1044(3) 0.2763(3)
H56_2 H 0.2255 0.1263 0.2567
O1_2 O 0.85665(17) 0.15905(18) 0.54108(18)
O2_2 O 0.85993(17) 0.09374(17) 0.59579(18)
O5_2 O 0.61062(18) 0.14903(19) 0.30785(18)
O6_2 O 0.60365(18) 0.21862(19) 0.25739(19)
O17_2 O 0.34599(19) 0.1249(2) 0.14453(19)
O18_2 O 0.44401(19) 0.17671(19) 0.14495(19)
O26_2 O 0.25816(19) 0.0386(2) 0.19820(19)
O41 O 0.9845(2) 0.08902(19) 0.54084(18)
O43 O 0.9358(2) 0.2468(2) 0.7179(2)
N5_2 N 0.3652(2) 0.2907(3) 0.9808(3)
H5_2 H 0.4059 0.3052 0.9845
C62_2 C 0.2746(3) 0.2380(3) 0.9933(3)
C64_2 C 0.3115(3) 0.3016(3) 0.9421(3)
C65_2 C 0.2535(3) 0.2691(3) 0.9463(3)
C66_2 C 0.1920(3) 0.2709(3) 0.9095(3)
H36_2 H 0.1530 0.2496 0.9127
C67_2 C 0.1906(3) 0.3048(3) 0.8683(3)
H37_2 H 0.1497 0.3073 0.8436
C68_2 C 0.2469(3) 0.3354(3) 0.8620(3)
C69_2 C 0.3084(3) 0.3342(3) 0.8985(3)
H38_2 H 0.3469 0.3548 0.8939
C70_2 C 0.2432(3) 0.3702(3) 0.8137(3)
N8_2 N 0.1289(2) 0.5270(2) 0.8721(2)
H8_2 H 0.1609 0.5318 0.8579
C101_2 C 0.04648(17) 0.58706(19) 0.9784(2)
H51_2 H 0.0078 0.5693 0.9843
C102_2 C 0.06385(19) 0.54762(14) 0.9295(2)
C103_2 C 0.1216(2) 0.57410(17) 0.92065(19)
C104_2 C 0.16201(16) 0.64001(18) 0.9608(2)
H52_2 H 0.2007 0.6577 0.9549
C105_2 C 0.0356(3) 0.4806(3) 0.8840(3)
C106_2 C 0.0755(3) 0.4690(3) 0.8487(3)
C107_2 C 0.0619(3) 0.4092(3) 0.7992(3)
H53_2 H 0.0895 0.4023 0.7755
C108_2 C 0.0048(3) 0.3586(3) 0.7855(3)
C109_2 C 0.9633(3) 0.3691(3) 0.8191(3)
H54_2 H 0.9257 0.3340 0.8092
C110_2 C 0.9763(3) 0.4300(3) 0.8668(3)
H55_2 H 0.9466 0.4380 0.8875
C111_2 C 0.9870(3) 0.2915(3) 0.7318(3)
C71_2 C 0.2215(3) 0.9399(3) 0.0328(3)
O21 O 0.1702(2) 0.9034(2) 0.0326(2)
O22 O 0.27821(19) 0.94844(18) 0.07467(17)
Cd18 Cd 0.24386(2) 0.88181(2) 0.126930(19)
H7_2 H 0.0853 0.9780 0.3667
H9_2 H 0.7585 0.9963 0.5429
C4_2 C 0.6683(3) 0.9675(3) 0.4697(3)
H10_2 H 0.6515 0.9272 0.4730
C5_2 C 0.6292(3) 0.9860(3) 0.4234(3)
C8_2 C 0.5607(3) 0.9562(3) 0.3746(3)
C9_2 C 0.5113(3) 0.8972(3) 0.3558(3)
H12_2 H 0.5188 0.8670 0.3758
C10_2 C 0.4514(3) 0.8848(3) 0.3074(3)
H13_2 H 0.4180 0.8446 0.2937
C11_2 C 0.4371(3) 0.9285(3) 0.2770(3)
C12_2 C 0.4874(3) 0.9879(3) 0.2962(3)
C13_2 C 0.5485(3) 0.9996(3) 0.3432(3)
C14_2 C 0.3691(3) 0.9126(3) 0.2254(3)
H45_2 H 0.1507 0.9590 0.2781
C98_2 C 0.1854(3) 0.7505(3) 0.0500(3)
C99_2 C 0.14463(19) 0.67944(14) 0.0097(2)
C100_2 C 0.0869(2) 0.65296(18) 0.0186(2)
H50_2 H 0.0752 0.6793 0.0513
O3_2 O 0.3572(2) 0.9518(2) 0.2013(2)
O4_2 O 0.32453(19) 0.8585(2) 0.2073(2)
O25_2 O 0.2080(2) 0.9419(2) 0.19851(19)
O29_2 O 0.16732(19) 0.78316(18) 0.0932(2)
O30_2 O 0.23495(19) 0.77643(18) 0.03980(19)
C72_2 C 0.2189(3) 0.9737(3) 0.9851(3)
C73_2 C 0.1564(3) 0.9732(3) 0.9467(3)
H39_2 H 0.1176 0.9510 0.9496
loop_
_geom_bond_atom_site_label_1
_geom_bond_atom_site_label_2
_geom_bond_site_symmetry_1
_geom_bond_site_symmetry_2
H54 C109 1_555 1_555
H55 C110 1_555 1_555
O31 C111 1_555 1_555
Cd8 O31 1_555 1_555
C109 C110 1_555 1_555
Cd8 O27 1_555 1_555
N8 H8 1_555 1_555
H51 C101 1_555 1_555
C102 C101 1_555 1_555
C103 N8 1_555 1_555
H52 C104 1_555 1_555
C105 C102 1_555 1_555
C106 N8 1_555 1_555
C107 C106 1_555 1_555
H53 C107 1_555 1_555
C108 C107 1_555 1_555
Cd11 O32 1_555 1_555
C102 C103 1_555 1_555
C103 C104 1_555 1_555
C105 C106 1_555 1_555
N5 H5 1_555 1_555
C64 N5 1_555 1_555
C65 C62 1_555 1_555
C66 C65 1_555 1_555
H36 C66 1_555 1_555
C67 C66 1_555 1_555
H37 C67 1_555 1_555
C68 C67 1_555 1_555
C69 C64 1_555 1_555
H38 C69 1_555 1_555
C70 C68 1_555 1_555
O19 C70 1_555 1_555
O20 C70 1_555 1_555
Cd11 O19 1_555 1_555
Cd12 O19 1_555 1_555
C64 C65 1_555 1_555
C68 C69 1_555 1_555
O20 Cd12 1_555 1_555
Cd8 O1 1_555 1_555
N1 H1 1_555 1_555
N2 H2 1_555 1_555
C1 C2 1_555 1_555
C2 C3 1_555 1_555
C6 N1 1_555 1_555
C7 C2 1_555 1_555
H11 C7 1_555 1_555
C17 H15 1_555 1_555
C18 N2 1_555 1_555
C19 C18 1_555 1_555
C20 C19 1_555 1_555
H16 C20 1_555 1_555
C22 C19 1_555 1_555
C23 N2 1_555 1_555
C24 C23 1_555 1_555
H18 C24 1_555 1_555
C25 C24 1_555 1_555
C26 C25 1_555 1_555
H19 C26 1_555 1_555
C27 C22 1_555 1_555
H20 C27 1_555 1_555
C28 C25 1_555 1_555
C57 C59 1_555 1_555
C58 H33 1_555 1_555
C59 C58 1_555 1_555
C60 C59 1_555 1_555
H34 C60 1_555 1_555
C63 C58 1_555 1_555
H35 C63 1_555 1_555
C85 C86 1_555 1_555
C86 C87 1_555 1_555
C88 N7 1_555 1_555
C89 C88 1_555 1_555
C90 C89 1_555 1_555
H46 C90 1_555 1_555
C91 C89 1_555 1_555
C92 N7 1_555 1_555
C93 C92 1_555 1_555
H47 C93 1_555 1_555
C94 C93 1_555 1_555
C95 C94 1_555 1_555
H48 C95 1_555 1_555
C96 C91 1_555 1_555
H49 C96 1_555 1_555
C97 C94 1_555 1_555
C112 C86 1_555 1_555
H56 C112 1_555 1_555
O1 C1 1_555 1_555
O2 Cd8 1_555 1_555
O5 C28 1_555 1_555
O6 C28 1_555 1_555
O17 C57 1_555 1_555
O18 C57 1_555 1_555
O26 C85 1_555 1_555
O28 C97 1_555 1_555
Cd4 O5 1_555 1_555
O33 Cd4 1_555 1_555
O34 Cd4 1_555 1_555
O35 Cd4 1_555 1_555
O36 Cd4 1_555 1_555
Cd11 O28 1_555 1_555
C1 O2 1_555 1_555
C6 C7 1_555 1_555
C17 C18 1_555 1_555
C22 C23 1_555 1_555
C26 C27 1_555 1_555
C60 C61 1_555 1_555
C87 C88 1_555 1_555
C90 C112 1_555 1_555
C91 C92 1_555 1_555
C95 C96 1_555 1_555
O6 Cd4 1_555 1_555
O17 Cd5 1_555 1_555
O18 Cd4 1_555 1_555
O26 Cd5 1_555 1_555
Cd5 O34 1_555 1_555
Cd5 O36 1_555 1_555
N3 H3 1_555 1_555
N4 H4 1_555 1_555
N6 H6 1_555 1_555
C15 C16 1_555 1_555
C21 C16 1_555 1_555
H17 C21 1_555 1_555
C29 C30 1_555 1_555
C30 C31 1_555 1_555
C31 H21 1_555 1_555
C32 C31 1_555 1_555
H22 C32 1_555 1_555
C33 C32 1_555 1_555
C34 N3 1_555 1_555
C35 C30 1_555 1_555
H23 C35 1_555 1_555
C36 N3 1_555 1_555
C37 C36 1_555 1_555
H24 C37 1_555 1_555
C38 C37 1_555 1_555
C39 C38 1_555 1_555
H25 C39 1_555 1_555
C40 C39 1_555 1_555
H26 C40 1_555 1_555
C41 C33 1_555 1_555
C42 C38 1_555 1_555
C43 C44 1_555 1_555
C44 C45 1_555 1_555
C45 H27 1_555 1_555
C46 N4 1_555 1_555
C47 C46 1_555 1_555
C48 C47 1_555 1_555
H28 C48 1_555 1_555
C49 C44 1_555 1_555
H29 C49 1_555 1_555
C50 C47 1_555 1_555
C55 C50 1_555 1_555
H32 C55 1_555 1_555
C74 N6 1_555 1_555
C75 C74 1_555 1_555
C76 C75 1_555 1_555
H40 C76 1_555 1_555
C78 C75 1_555 1_555
C79 N6 1_555 1_555
C80 C79 1_555 1_555
H42 C80 1_555 1_555
C81 C80 1_555 1_555
C82 C81 1_555 1_555
H43 C82 1_555 1_555
C83 C78 1_555 1_555
H44 C83 1_555 1_555
C84 C81 1_555 1_555
O7 C15 1_555 1_555
O8 C15 1_555 1_555
O9 C29 1_555 1_555
O10 C29 1_555 1_555
O33 C42 1_555 1_555
O34 C42 1_555 1_555
O13 C43 1_555 1_555
O14 C43 1_555 1_555
O24 C84 1_555 1_555
Cd11 O8 1_555 1_555
Cd12 O7 1_555 1_555
C33 C34 1_555 1_555
C34 C35 1_555 1_555
C36 C41 1_555 1_555
C40 C41 1_555 1_555
C45 C46 1_555 1_555
C48 C49 1_555 1_555
C76 C77 1_555 1_555
C78 C79 1_555 1_555
C82 C83 1_555 1_555
C84 O23 1_555 1_555
O8 Cd12 1_555 1_555
O9 Cd12 1_555 1_555
O10 Cd11 1_555 1_555
O13 Cd12 1_555 1_555
O14 Cd12 1_555 1_555
O24 Cd11 1_555 1_555
C52 C51 1_555 1_555
H30 C52 1_555 1_555
C53 C52 1_555 1_555
C54 C53 1_555 1_555
H31 C54 1_555 1_555
O35 C56 1_555 1_555
O36 C56 1_555 1_555
H10 C4 1_555 1_555
C5 C4 1_555 1_555
C8 C5 1_555 1_555
C9 C8 1_555 1_555
H12 C9 1_555 1_555
C10 C9 1_555 1_555
H13 C10 1_555 1_555
C11 C10 1_555 1_555
C12 C11 1_555 1_555
C14 C11 1_555 1_555
C98 C99 1_555 1_555
C99 C100 1_555 1_555
C100 H50 1_555 1_555
O3 C14 1_555 1_555
O4 C14 1_555 1_555
O29 C98 1_555 1_555
O30 C98 1_555 1_555
Cd6 O3 1_555 1_555
O39 Cd6 1_555 1_555
C8 C13 1_555 1_555
C12 C13 1_555 1_555
O4 Cd6 1_555 1_555
O25 Cd6 1_555 1_555
O29 Cd6 1_555 1_555
O30 Cd6 1_555 1_555
Cd6 O40 1_555 1_555
O39 C71 1_555 1_555
O40 C71 1_555 1_555
C72 C73 1_555 1_555
C73 H39 1_555 1_555
O15 C56_2 1_555 1_555
O16 C56_2 1_555 1_555
Cd13 O15 1_555 1_555
Cd15 O16 1_555 1_555
O16 Cd13 1_555 1_555
C52_2 C51_2 1_555 1_555
H30_2 C52_2 1_555 1_555
C53_2 C52_2 1_555 1_555
C54_2 C53_2 1_555 1_555
H31_2 C54_2 1_555 1_555
N3_2 H3_2 1_555 1_555
N4_2 H4_2 1_555 1_555
N6_2 H6_2 1_555 1_555
C15_2 C16_2 1_555 1_555
C21_2 C16_2 1_555 1_555
H17_2 C21_2 1_555 1_555
C29_2 C30_2 1_555 1_555
C30_2 C31_2 1_555 1_555
C31_2 H21_2 1_555 1_555
C32_2 C31_2 1_555 1_555
H22_2 C32_2 1_555 1_555
C33_2 C32_2 1_555 1_555
C34_2 N3_2 1_555 1_555
C35_2 C30_2 1_555 1_555
H23_2 C35_2 1_555 1_555
C36_2 N3_2 1_555 1_555
C37_2 C36_2 1_555 1_555
H24_2 C37_2 1_555 1_555
C38_2 C37_2 1_555 1_555
C39_2 C38_2 1_555 1_555
H25_2 C39_2 1_555 1_555
C40_2 C39_2 1_555 1_555
H26_2 C40_2 1_555 1_555
C41_2 C33_2 1_555 1_555
C42_2 C38_2 1_555 1_555
C43_2 C44_2 1_555 1_555
C44_2 C45_2 1_555 1_555
C45_2 H27_2 1_555 1_555
C46_2 N4_2 1_555 1_555
C47_2 C46_2 1_555 1_555
C48_2 C47_2 1_555 1_555
H28_2 C48_2 1_555 1_555
C49_2 C44_2 1_555 1_555
H29_2 C49_2 1_555 1_555
C50_2 C47_2 1_555 1_555
C55_2 C50_2 1_555 1_555
H32_2 C55_2 1_555 1_555
C74_2 N6_2 1_555 1_555
C75_2 C74_2 1_555 1_555
C76_2 C75_2 1_555 1_555
H40_2 C76_2 1_555 1_555
C78_2 C75_2 1_555 1_555
C79_2 N6_2 1_555 1_555
C80_2 C79_2 1_555 1_555
H42_2 C80_2 1_555 1_555
C81_2 C80_2 1_555 1_555
C82_2 C81_2 1_555 1_555
H43_2 C82_2 1_555 1_555
C83_2 C78_2 1_555 1_555
H44_2 C83_2 1_555 1_555
C84_2 C81_2 1_555 1_555
O7_2 C15_2 1_555 1_555
O8_2 C15_2 1_555 1_555
O9_2 C29_2 1_555 1_555
O10_2 C29_2 1_555 1_555
O11 C42_2 1_555 1_555
O12 C42_2 1_555 1_555
O13_2 C43_2 1_555 1_555
O14_2 C43_2 1_555 1_555
O24_2 C84_2 1_555 1_555
Cd2 O8_2 1_555 1_555
Cd3 O7_2 1_555 1_555
O37 Cd2 1_555 1_555
O38 Cd3 1_555 1_555
Cd13 O11 1_555 1_555
Cd15 O12 1_555 1_555
C33_2 C34_2 1_555 1_555
C34_2 C35_2 1_555 1_555
C36_2 C41_2 1_555 1_555
C40_2 C41_2 1_555 1_555
C45_2 C46_2 1_555 1_555
C48_2 C49_2 1_555 1_555
C76_2 C77_2 1_555 1_555
C78_2 C79_2 1_555 1_555
C82_2 C83_2 1_555 1_555
C84_2 O23_2 1_555 1_555
O8_2 Cd3 1_555 1_555
O9_2 Cd3 1_555 1_555
O10_2 Cd2 1_555 1_555
O12 Cd13 1_555 1_555
O13_2 Cd3 1_555 1_555
O14_2 Cd3 1_555 1_555
O24_2 Cd2 1_555 1_555
Cd2 O42 1_555 1_555
Cd2 O44 1_555 1_555
Cd3 O37 1_555 1_555
Cd1 O1_2 1_555 1_555
N1_2 H1_2 1_555 1_555
N2_2 H2_2 1_555 1_555
C1_2 C2_2 1_555 1_555
C2_2 C3_2 1_555 1_555
C6_2 N1_2 1_555 1_555
C7_2 C2_2 1_555 1_555
H11_2 C7_2 1_555 1_555
C17_2 H15_2 1_555 1_555
C18_2 N2_2 1_555 1_555
C19_2 C18_2 1_555 1_555
C20_2 C19_2 1_555 1_555
H16_2 C20_2 1_555 1_555
C22_2 C19_2 1_555 1_555
C23_2 N2_2 1_555 1_555
C24_2 C23_2 1_555 1_555
H18_2 C24_2 1_555 1_555
C25_2 C24_2 1_555 1_555
C26_2 C25_2 1_555 1_555
H19_2 C26_2 1_555 1_555
C27_2 C22_2 1_555 1_555
H20_2 C27_2 1_555 1_555
C28_2 C25_2 1_555 1_555
C57_2 C59_2 1_555 1_555
C58_2 H33_2 1_555 1_555
C59_2 C58_2 1_555 1_555
C60_2 C59_2 1_555 1_555
H34_2 C60_2 1_555 1_555
C63_2 C58_2 1_555 1_555
H35_2 C63_2 1_555 1_555
C85_2 C86_2 1_555 1_555
C86_2 C87_2 1_555 1_555
C88_2 N7_2 1_555 1_555
C89_2 C88_2 1_555 1_555
C90_2 C89_2 1_555 1_555
H46_2 C90_2 1_555 1_555
C91_2 C89_2 1_555 1_555
C92_2 N7_2 1_555 1_555
C93_2 C92_2 1_555 1_555
H47_2 C93_2 1_555 1_555
C94_2 C93_2 1_555 1_555
C95_2 C94_2 1_555 1_555
H48_2 C95_2 1_555 1_555
C96_2 C91_2 1_555 1_555
H49_2 C96_2 1_555 1_555
C97_2 C94_2 1_555 1_555
C112_2 C86_2 1_555 1_555
H56_2 C112_2 1_555 1_555
O1_2 C1_2 1_555 1_555
O2_2 Cd1 1_555 1_555
O5_2 C28_2 1_555 1_555
O6_2 C28_2 1_555 1_555
O17_2 C57_2 1_555 1_555
O18_2 C57_2 1_555 1_555
O26_2 C85_2 1_555 1_555
O42 C97_2 1_555 1_555
Cd13 O5_2 1_555 1_555
O41 Cd1 1_555 1_555
O43 Cd1 1_555 1_555
C1_2 O2_2 1_555 1_555
C6_2 C7_2 1_555 1_555
C17_2 C18_2 1_555 1_555
C22_2 C23_2 1_555 1_555
C26_2 C27_2 1_555 1_555
C60_2 C61_2 1_555 1_555
C87_2 C88_2 1_555 1_555
C90_2 C112_2 1_555 1_555
C91_2 C92_2 1_555 1_555
C95_2 C96_2 1_555 1_555
O6_2 Cd13 1_555 1_555
O17_2 Cd15 1_555 1_555
O18_2 Cd13 1_555 1_555
O26_2 Cd15 1_555 1_555
N5_2 H5_2 1_555 1_555
C64_2 N5_2 1_555 1_555
C65_2 C62_2 1_555 1_555
C66_2 C65_2 1_555 1_555
H36_2 C66_2 1_555 1_555
C67_2 C66_2 1_555 1_555
H37_2 C67_2 1_555 1_555
C68_2 C67_2 1_555 1_555
C69_2 C64_2 1_555 1_555
H38_2 C69_2 1_555 1_555
C70_2 C68_2 1_555 1_555
O37 C70_2 1_555 1_555
O38 C70_2 1_555 1_555
C64_2 C65_2 1_555 1_555
C68_2 C69_2 1_555 1_555
N8_2 H8_2 1_555 1_555
H51_2 C101_2 1_555 1_555
C102_2 C101_2 1_555 1_555
C103_2 N8_2 1_555 1_555
H52_2 C104_2 1_555 1_555
C105_2 C102_2 1_555 1_555
C106_2 N8_2 1_555 1_555
C107_2 C106_2 1_555 1_555
H53_2 C107_2 1_555 1_555
C108_2 C107_2 1_555 1_555
C102_2 C103_2 1_555 1_555
C103_2 C104_2 1_555 1_555
C105_2 C106_2 1_555 1_555
H54_2 C109_2 1_555 1_555
H55_2 C110_2 1_555 1_555
O43 C111_2 1_555 1_555
C109_2 C110_2 1_555 1_555
O21 C71_2 1_555 1_555
O22 C71_2 1_555 1_555
Cd18 O21 1_555 1_555
O22 Cd18 1_555 1_555
H10_2 C4_2 1_555 1_555
C5_2 C4_2 1_555 1_555
C8_2 C5_2 1_555 1_555
C9_2 C8_2 1_555 1_555
H12_2 C9_2 1_555 1_555
C10_2 C9_2 1_555 1_555
H13_2 C10_2 1_555 1_555
C11_2 C10_2 1_555 1_555
C12_2 C11_2 1_555 1_555
C14_2 C11_2 1_555 1_555
C98_2 C99_2 1_555 1_555
C99_2 C100_2 1_555 1_555
C100_2 H50_2 1_555 1_555
O3_2 C14_2 1_555 1_555
O4_2 C14_2 1_555 1_555
O29_2 C98_2 1_555 1_555
O30_2 C98_2 1_555 1_555
Cd18 O3_2 1_555 1_555
C8_2 C13_2 1_555 1_555
C12_2 C13_2 1_555 1_555
O4_2 Cd18 1_555 1_555
O25_2 Cd18 1_555 1_555
O29_2 Cd18 1_555 1_555
O30_2 Cd18 1_555 1_555
C72_2 C73_2 1_555 1_555
C73_2 H39_2 1_555 1_555

#END
