
###############################################################################
#
# This file contains modified crystal structure data generated from the
# MOF subset of the Cambridge Structural Database (CSD) v543 
# hosted by the Cambridge Crystallographic Data Centre (CCDC).
#
# This work is licensed under the Creative Commons
# Attribution-NonCommercial-ShareAlike 4.0 International License.
# To view a copy of this license, visit
# http://creativecommons.org/licenses/by-nc-sa/4.0/
# or send a letter to
# Creative Commons, PO Box 1866, Mountain View, CA 94042, USA.
#
# CIF created using the CSD Python API on 29 September 2022
# The structure has been converted into the P1 space group
# The structure has a 3D framework
# The original CSD entry XISMEU is in the tetragonal crystal system
# The framework has been calculated to contain at least 10.0% void space
# The void calculation uses a probe of radius 1.32A, grid spacing 0.4
# The framework is charged, counterions have been retained in the structure
#
###############################################################################

data_XISMEU
_chemical_formula_moiety         '(C288 H248 N64 Ni16 O40 S4 12-)n'
_symmetry_cell_setting           triclinic
_symmetry_space_group_name_H-M   'P 1'
_symmetry_Int_Tables_number      1
_space_group_name_Hall           'P 1'
loop_
_symmetry_equiv_pos_site_id
_symmetry_equiv_pos_as_xyz
1 x,y,z
_cell_length_a                   23.870(3)
_cell_length_b                   23.870(3)
_cell_length_c                   16.268(3)
_cell_angle_alpha                90
_cell_angle_beta                 90
_cell_angle_gamma                90
_cell_volume                     9269.13
loop_
_atom_site_label
_atom_site_type_symbol
_atom_site_fract_x
_atom_site_fract_y
_atom_site_fract_z
C67 C 0.01082(15) 0.60772(16) 0.4940(2)
C68 C 0.02852(17) 0.56433(18) 0.4439(3)
H55 H 0.0666 0.5528 0.4445
H56 H 0.0030 0.5083 0.3589
C70 C 0.10536(15) 0.64518(16) 0.5221(2)
H57 H 0.1220 0.6315 0.4730
C71 C 0.09349(16) 0.68501(17) 0.6390(2)
H58 H 0.1010 0.7049 0.6884
C72 C 0.04312(16) 0.66296(18) 0.6178(2)
H59 H 0.0092 0.6650 0.6482
N15 N 0.05124(12) 0.63699(13) 0.54278(18)
N16 N 0.13222(12) 0.67429(13) 0.57804(17)
Ni6 Ni 0.216058(17) 0.696223(17) 0.57159(2)
C16 C 0.10536(15) 0.85482(16) 0.9779(2)
C17 C 0.09349(16) 0.81499(17) 0.8610(2)
H13 H 0.1010 0.7951 0.8116
C18 C 0.04312(16) 0.83704(18) 0.8822(2)
H14 H 0.0092 0.8350 0.8518
N3 N 0.05124(12) 0.86301(13) 0.95722(18)
N4 N 0.13222(12) 0.82571(13) 0.92196(17)
Ni9 Ni 0.216058(17) 0.803777(17) 0.92841(2)
C1 C 0.73024(16) 0.06445(16) 0.4427(2)
H1 H 0.7061 0.0595 0.4886
C2 C 0.75946(17) 0.02271(16) 0.4051(2)
C3 C 0.77523(15) 0.10387(15) 0.3443(2)
H3 H 0.7894 0.1312 0.3074
C4 C 0.82444(15) 0.02268(16) 0.2827(2)
C8 C 0.89916(18) 0.03003(17) 0.1843(3)
H6 H 0.9264 0.0521 0.1568
C9 C 0.86410(17) 0.05492(16) 0.2423(3)
H7 H 0.8674 0.0938 0.2541
N1 N 0.74077(12) 0.11473(12) 0.40478(17)
N2 N 0.78810(13) 0.04846(12) 0.34127(18)
Ni1 Ni 0.716058(17) 0.196223(17) 0.42841(2)
O1 O 0.79945(10) 0.22042(9) 0.44586(14)
H15 H 0.8247 0.2092 0.4135
O2 O 0.71390(10) 0.21365(10) 0.30125(15)
S1 S 0.7500 0.2500 0.2500
O3 O 0.78610(10) 0.28635(10) 0.30125(15)
O4 O 0.78610(10) 0.21365(10) 0.19875(15)
O5 O 0.71390(10) 0.28635(10) 0.19875(15)
C19 C 0.76976(16) 0.43555(16) 0.4427(2)
H16 H 0.7939 0.4405 0.4886
C20 C 0.74054(17) 0.47729(16) 0.4051(2)
H17 H 0.7399 0.5159 0.4195
C21 C 0.72477(15) 0.39613(15) 0.3443(2)
H18 H 0.7106 0.3688 0.3074
C22 C 0.67556(15) 0.47732(16) 0.2827(2)
C23 C 0.68056(16) 0.53416(16) 0.2655(2)
H19 H 0.7074 0.5564 0.2936
C24 C 0.64611(17) 0.55796(17) 0.2071(2)
H20 H 0.6502 0.5966 0.1943
C25 C 0.60531(16) 0.52656(17) 0.1663(2)
C26 C 0.60084(18) 0.46997(17) 0.1843(3)
H21 H 0.5736 0.4479 0.1568
C27 C 0.63590(17) 0.44508(16) 0.2423(3)
H22 H 0.6326 0.4062 0.2541
C28 C 0.56566(17) 0.55387(17) 0.1082(2)
C29 C 0.58270(17) 0.5966(2) 0.0559(3)
H23 H 0.6210 0.6075 0.0550
C30 C 0.54441(17) 0.62353(19) 0.0049(3)
C31 C 0.48918(15) 0.60772(16) 0.0060(2)
C32 C 0.47148(17) 0.56433(18) 0.0561(3)
H25 H 0.4334 0.5528 0.0555
C33 C 0.50935(17) 0.53795(18) 0.1066(3)
H26 H 0.4970 0.5083 0.1411
H27 H 0.3780 0.6315 0.0270
N5 N 0.75923(12) 0.38527(12) 0.40478(17)
N6 N 0.71190(13) 0.45154(12) 0.34127(18)
Ni2 Ni 0.783942(17) 0.303777(17) 0.42841(2)
O6 O 0.70055(10) 0.27958(9) 0.44586(14)
H30 H 0.6753 0.2908 0.4135
C37 C 0.76976(16) 0.06445(16) 0.0573(2)
H31 H 0.7939 0.0595 0.0114
C38 C 0.74054(17) 0.02271(16) 0.0949(2)
C39 C 0.72477(15) 0.10387(15) 0.1557(2)
H33 H 0.7106 0.1312 0.1926
C40 C 0.67556(15) 0.02268(16) 0.2173(2)
C44 C 0.60084(18) 0.03003(17) 0.3157(3)
H36 H 0.5736 0.0521 0.3432
C45 C 0.63590(17) 0.05492(16) 0.2577(3)
H37 H 0.6326 0.0938 0.2459
N9 N 0.75923(12) 0.11473(12) 0.09522(17)
N10 N 0.71190(13) 0.04846(12) 0.15873(18)
Ni3 Ni 0.783942(17) 0.196223(17) 0.07159(2)
O7 O 0.70055(10) 0.22042(9) 0.05414(14)
H45 H 0.6753 0.2092 0.0865
C55 C 0.73024(16) 0.43555(16) 0.0573(2)
H46 H 0.7061 0.4405 0.0114
C56 C 0.75946(17) 0.47729(16) 0.0949(2)
H47 H 0.7601 0.5159 0.0805
C57 C 0.77523(15) 0.39613(15) 0.1557(2)
H48 H 0.7894 0.3688 0.1926
C58 C 0.82444(15) 0.47732(16) 0.2173(2)
C59 C 0.81944(16) 0.53416(16) 0.2345(2)
H49 H 0.7926 0.5564 0.2064
C60 C 0.85389(17) 0.55796(17) 0.2929(2)
H50 H 0.8498 0.5966 0.3057
C61 C 0.89469(16) 0.52656(17) 0.3337(2)
C62 C 0.89916(18) 0.46997(17) 0.3157(3)
H51 H 0.9264 0.4479 0.3432
C63 C 0.86410(17) 0.44508(16) 0.2577(3)
H52 H 0.8674 0.4062 0.2459
C64 C 0.93434(17) 0.55387(17) 0.3918(2)
C65 C 0.91730(17) 0.5966(2) 0.4441(3)
H53 H 0.8790 0.6075 0.4450
C66 C 0.95559(17) 0.62353(19) 0.4951(3)
H54 H 0.9435 0.6528 0.5305
C69 C 0.99065(17) 0.53795(18) 0.3934(3)
N13 N 0.74077(12) 0.38527(12) 0.09522(17)
N14 N 0.78810(13) 0.45154(12) 0.15873(18)
Ni4 Ni 0.716058(17) 0.303777(17) 0.07159(2)
O8 O 0.79945(10) 0.27958(9) 0.05414(14)
H60 H 0.8247 0.2908 0.0865
N17 N 0.86778(12) 0.17429(13) 0.07804(17)
N18 N 0.63222(12) 0.32571(13) 0.07804(17)
N19 N 0.63222(12) 0.17429(13) 0.42196(17)
N20 N 0.86778(12) 0.32571(13) 0.42196(17)
Ni7 Ni 0.696223(17) 0.283942(17) 0.57159(2)
Ni8 Ni 0.803777(17) 0.216058(17) 0.57159(2)
O9 O 0.72042(9) 0.20055(10) 0.55414(14)
O10 O 0.77958(9) 0.29945(10) 0.55414(14)
H24 H 0.5565 0.6528 0.9695
C34 C 0.39464(15) 0.64518(16) 0.9779(2)
C35 C 0.40651(16) 0.68501(17) 0.8610(2)
H28 H 0.3990 0.7049 0.8116
C36 C 0.45688(16) 0.66296(18) 0.8822(2)
H29 H 0.4908 0.6650 0.8518
N7 N 0.44876(12) 0.63699(13) 0.95722(18)
N8 N 0.36778(12) 0.67429(13) 0.92196(17)
Ni10 Ni 0.283942(17) 0.696223(17) 0.92841(2)
Ni11 Ni 0.803777(17) 0.283942(17) 0.92841(2)
Ni12 Ni 0.696223(17) 0.216058(17) 0.92841(2)
O11 O 0.77958(9) 0.20055(10) 0.94586(14)
O12 O 0.72042(9) 0.29945(10) 0.94586(14)
H2 H 0.7601 0.9841 0.4195
C5 C 0.81944(16) 0.96584(16) 0.2655(2)
H4 H 0.7926 0.9436 0.2936
C6 C 0.85389(17) 0.94204(17) 0.2071(2)
H5 H 0.8498 0.9034 0.1943
C7 C 0.89469(16) 0.97344(17) 0.1663(2)
C10 C 0.93434(17) 0.94613(17) 0.1082(2)
C11 C 0.91730(17) 0.9034(2) 0.0559(3)
H8 H 0.8790 0.8925 0.0550
C12 C 0.95559(17) 0.87647(19) 0.0049(3)
C15 C 0.99065(17) 0.96205(18) 0.1066(3)
H32 H 0.7399 0.9841 0.0805
C41 C 0.68056(16) 0.96584(16) 0.2345(2)
H34 H 0.7074 0.9436 0.2064
C42 C 0.64611(17) 0.94204(17) 0.2929(2)
H35 H 0.6502 0.9034 0.3057
C43 C 0.60531(16) 0.97344(17) 0.3337(2)
C46 C 0.56566(17) 0.94613(17) 0.3918(2)
C47 C 0.58270(17) 0.9034(2) 0.4441(3)
H38 H 0.6210 0.8925 0.4450
C48 C 0.54441(17) 0.87647(19) 0.4951(3)
H39 H 0.5565 0.8472 0.5305
C49 C 0.48918(15) 0.89228(16) 0.4940(2)
C50 C 0.47148(17) 0.93567(18) 0.4439(3)
H40 H 0.4334 0.9472 0.4445
C51 C 0.50935(17) 0.96205(18) 0.3934(3)
H41 H 0.4970 0.9917 0.3589
C52 C 0.39464(15) 0.85482(16) 0.5221(2)
H42 H 0.3780 0.8685 0.4730
C53 C 0.40651(16) 0.81499(17) 0.6390(2)
H43 H 0.3990 0.7951 0.6884
C54 C 0.45688(16) 0.83704(18) 0.6178(2)
H44 H 0.4908 0.8350 0.6482
N11 N 0.44876(12) 0.86301(13) 0.54278(18)
N12 N 0.36778(12) 0.82571(13) 0.57804(17)
Ni5 Ni 0.283942(17) 0.803777(17) 0.57159(2)
C16_2 C 0.64518(16) 0.10536(15) 0.9779(2)
C17_2 C 0.68501(17) 0.09349(16) 0.8610(2)
H13_2 H 0.7049 0.1010 0.8116
C18_2 C 0.66296(18) 0.04312(16) 0.8822(2)
H14_2 H 0.6650 0.0092 0.8518
N3_2 N 0.63699(13) 0.05124(12) 0.95722(18)
N4_2 N 0.67429(13) 0.13222(12) 0.92196(17)
C1_2 C 0.43555(16) 0.73024(16) 0.4427(2)
H1_2 H 0.4405 0.7061 0.4886
C2_2 C 0.47729(16) 0.75946(17) 0.4051(2)
H2_2 H 0.5159 0.7601 0.4195
C3_2 C 0.39613(15) 0.77523(15) 0.3443(2)
H3_2 H 0.3688 0.7894 0.3074
C4_2 C 0.47732(16) 0.82444(15) 0.2827(2)
C5_2 C 0.53416(16) 0.81944(16) 0.2655(2)
H4_2 H 0.5564 0.7926 0.2936
C6_2 C 0.55796(17) 0.85389(17) 0.2071(2)
H5_2 H 0.5966 0.8498 0.1943
C7_2 C 0.52656(17) 0.89469(16) 0.1663(2)
C8_2 C 0.46997(17) 0.89916(18) 0.1843(3)
H6_2 H 0.4479 0.9264 0.1568
C9_2 C 0.44508(16) 0.86410(17) 0.2423(3)
H7_2 H 0.4062 0.8674 0.2541
C10_2 C 0.55387(17) 0.93434(17) 0.1082(2)
C11_2 C 0.5966(2) 0.91730(17) 0.0559(3)
H8_2 H 0.6075 0.8790 0.0550
C12_2 C 0.62353(19) 0.95559(17) 0.0049(3)
C15_2 C 0.53795(18) 0.99065(17) 0.1066(3)
N1_2 N 0.38527(12) 0.74077(12) 0.40478(17)
N2_2 N 0.45154(12) 0.78810(13) 0.34127(18)
Ni1_2 Ni 0.303777(17) 0.716058(17) 0.42841(2)
O1_2 O 0.27958(9) 0.79945(10) 0.44586(14)
H15_2 H 0.2908 0.8247 0.4135
O2_2 O 0.28635(10) 0.71390(10) 0.30125(15)
S1_2 S 0.2500 0.7500 0.2500
O3_2 O 0.21365(10) 0.78610(10) 0.30125(15)
O4_2 O 0.28635(10) 0.78610(10) 0.19875(15)
O5_2 O 0.21365(10) 0.71390(10) 0.19875(15)
C19_2 C 0.06445(16) 0.76976(16) 0.4427(2)
H16_2 H 0.0595 0.7939 0.4886
C20_2 C 0.02271(16) 0.74054(17) 0.4051(2)
C21_2 C 0.10387(15) 0.72477(15) 0.3443(2)
H18_2 H 0.1312 0.7106 0.3074
C22_2 C 0.02268(16) 0.67556(15) 0.2827(2)
C26_2 C 0.03003(17) 0.60084(18) 0.1843(3)
H21_2 H 0.0521 0.5736 0.1568
C27_2 C 0.05492(16) 0.63590(17) 0.2423(3)
H22_2 H 0.0938 0.6326 0.2541
N5_2 N 0.11473(12) 0.75923(12) 0.40478(17)
N6_2 N 0.04846(12) 0.71190(13) 0.34127(18)
Ni2_2 Ni 0.196223(17) 0.783942(17) 0.42841(2)
O6_2 O 0.22042(9) 0.70055(10) 0.44586(14)
H30_2 H 0.2092 0.6753 0.4135
C37_2 C 0.43555(16) 0.76976(16) 0.0573(2)
H31_2 H 0.4405 0.7939 0.0114
C38_2 C 0.47729(16) 0.74054(17) 0.0949(2)
H32_2 H 0.5159 0.7399 0.0805
C39_2 C 0.39613(15) 0.72477(15) 0.1557(2)
H33_2 H 0.3688 0.7106 0.1926
C40_2 C 0.47732(16) 0.67556(15) 0.2173(2)
C41_2 C 0.53416(16) 0.68056(16) 0.2345(2)
H34_2 H 0.5564 0.7074 0.2064
C42_2 C 0.55796(17) 0.64611(17) 0.2929(2)
H35_2 H 0.5966 0.6502 0.3057
C43_2 C 0.52656(17) 0.60531(16) 0.3337(2)
C44_2 C 0.46997(17) 0.60084(18) 0.3157(3)
H36_2 H 0.4479 0.5736 0.3432
C45_2 C 0.44508(16) 0.63590(17) 0.2577(3)
H37_2 H 0.4062 0.6326 0.2459
C46_2 C 0.55387(17) 0.56566(17) 0.3918(2)
C47_2 C 0.5966(2) 0.58270(17) 0.4441(3)
H38_2 H 0.6075 0.6210 0.4450
C48_2 C 0.62353(19) 0.54441(17) 0.4951(3)
H39_2 H 0.6528 0.5565 0.5305
C49_2 C 0.60772(16) 0.48918(15) 0.4940(2)
C50_2 C 0.56433(18) 0.47148(17) 0.4439(3)
H40_2 H 0.5528 0.4334 0.4445
C51_2 C 0.53795(18) 0.50935(17) 0.3934(3)
H41_2 H 0.5083 0.4970 0.3589
C52_2 C 0.64518(16) 0.39464(15) 0.5221(2)
H42_2 H 0.6315 0.3780 0.4730
C53_2 C 0.68501(17) 0.40651(16) 0.6390(2)
H43_2 H 0.7049 0.3990 0.6884
C54_2 C 0.66296(18) 0.45688(16) 0.6178(2)
H44_2 H 0.6650 0.4908 0.6482
N9_2 N 0.38527(12) 0.75923(12) 0.09522(17)
N10_2 N 0.45154(12) 0.71190(13) 0.15873(18)
N11_2 N 0.63699(13) 0.44876(12) 0.54278(18)
N12_2 N 0.67429(13) 0.36778(12) 0.57804(17)
Ni3_2 Ni 0.303777(17) 0.783942(17) 0.07159(2)
O7_2 O 0.27958(9) 0.70055(10) 0.05414(14)
H45_2 H 0.2908 0.6753 0.0865
C55_2 C 0.06445(16) 0.73024(16) 0.0573(2)
H46_2 H 0.0595 0.7061 0.0114
C56_2 C 0.02271(16) 0.75946(17) 0.0949(2)
C57_2 C 0.10387(15) 0.77523(15) 0.1557(2)
H48_2 H 0.1312 0.7894 0.1926
C58_2 C 0.02268(16) 0.82444(15) 0.2173(2)
C62_2 C 0.03003(17) 0.89916(18) 0.3157(3)
H51_2 H 0.0521 0.9264 0.3432
C63_2 C 0.05492(16) 0.86410(17) 0.2577(3)
H52_2 H 0.0938 0.8674 0.2459
N13_2 N 0.11473(12) 0.74077(12) 0.09522(17)
N14_2 N 0.04846(12) 0.78810(13) 0.15873(18)
Ni4_2 Ni 0.196223(17) 0.716058(17) 0.07159(2)
O8_2 O 0.22042(9) 0.79945(10) 0.05414(14)
H60_2 H 0.2092 0.8247 0.0865
N17_2 N 0.32571(13) 0.86778(12) 0.07804(17)
N18_2 N 0.17429(13) 0.63222(12) 0.07804(17)
N19_2 N 0.32571(13) 0.63222(12) 0.42196(17)
N20_2 N 0.17429(13) 0.86778(12) 0.42196(17)
O9_2 O 0.29945(10) 0.72042(9) 0.55414(14)
O10_2 O 0.20055(10) 0.77958(9) 0.55414(14)
H9 H 0.6528 0.9435 0.9695
O11_2 O 0.29945(10) 0.77958(9) 0.94586(14)
O12_2 O 0.20055(10) 0.72042(9) 0.94586(14)
C67_2 C 0.89228(16) 0.01082(15) 0.4940(2)
C68_2 C 0.93567(18) 0.02852(17) 0.4439(3)
H55_2 H 0.9472 0.0666 0.4445
H56_2 H 0.9917 0.0030 0.3589
C70_2 C 0.85482(16) 0.10536(15) 0.5221(2)
H57_2 H 0.8685 0.1220 0.4730
C71_2 C 0.81499(17) 0.09349(16) 0.6390(2)
H58_2 H 0.7951 0.1010 0.6884
C72_2 C 0.83704(18) 0.04312(16) 0.6178(2)
H59_2 H 0.8350 0.0092 0.6482
N15_2 N 0.86301(13) 0.05124(12) 0.54278(18)
N16_2 N 0.82571(13) 0.13222(12) 0.57804(17)
H24_2 H 0.8472 0.5565 0.9695
C34_2 C 0.85482(16) 0.39464(15) 0.9779(2)
C35_2 C 0.81499(17) 0.40651(16) 0.8610(2)
H28_2 H 0.7951 0.3990 0.8116
C36_2 C 0.83704(18) 0.45688(16) 0.8822(2)
H29_2 H 0.8350 0.4908 0.8518
N7_2 N 0.86301(13) 0.44876(12) 0.95722(18)
N8_2 N 0.82571(13) 0.36778(12) 0.92196(17)
H2_3 H 0.2399 0.0159 0.5805
C5_3 C 0.18056(16) 0.03416(16) 0.7345(2)
H4_3 H 0.2074 0.0564 0.7064
C6_3 C 0.14611(17) 0.05796(17) 0.7929(2)
H5_3 H 0.1502 0.0966 0.8057
C7_3 C 0.10531(16) 0.02656(17) 0.8337(2)
C10_3 C 0.06566(17) 0.05387(17) 0.8918(2)
C11_3 C 0.08270(17) 0.0966(2) 0.9441(3)
H8_3 H 0.1210 0.1075 0.9450
C12_3 C 0.04441(17) 0.12353(19) 0.9951(3)
C15_3 C 0.00935(17) 0.03795(18) 0.8934(3)
H32_3 H 0.2601 0.0159 0.9195
C41_3 C 0.31944(16) 0.03416(16) 0.7655(2)
H34_3 H 0.2926 0.0564 0.7936
C42_3 C 0.35389(17) 0.05796(17) 0.7071(2)
H35_3 H 0.3498 0.0966 0.6943
C43_3 C 0.39469(16) 0.02656(17) 0.6663(2)
C46_3 C 0.43434(17) 0.05387(17) 0.6082(2)
C47_3 C 0.41730(17) 0.0966(2) 0.5559(3)
H38_3 H 0.3790 0.1075 0.5550
C48_3 C 0.45559(17) 0.12353(19) 0.5049(3)
H39_3 H 0.4435 0.1528 0.4695
C49_3 C 0.51082(15) 0.10772(16) 0.5060(2)
C50_3 C 0.52852(17) 0.06433(18) 0.5561(3)
H40_3 H 0.5666 0.0528 0.5555
C51_3 C 0.49065(17) 0.03795(18) 0.6066(3)
H41_3 H 0.5030 0.0083 0.6411
C52_3 C 0.60536(15) 0.14518(16) 0.4779(2)
H42_3 H 0.6220 0.1315 0.5270
C53_3 C 0.59349(16) 0.18501(17) 0.3610(2)
H43_3 H 0.6010 0.2049 0.3116
C54_3 C 0.54312(16) 0.16296(18) 0.3822(2)
H44_3 H 0.5092 0.1650 0.3518
N11_3 N 0.55124(12) 0.13699(13) 0.45722(18)
H24_3 H 0.4435 0.3472 0.0305
C34_3 C 0.60536(15) 0.35482(16) 0.0221(2)
C35_3 C 0.59349(16) 0.31499(17) 0.1390(2)
H28_3 H 0.6010 0.2951 0.1884
C36_3 C 0.54312(16) 0.33704(18) 0.1178(2)
H29_3 H 0.5092 0.3350 0.1482
N7_3 N 0.55124(12) 0.36301(13) 0.04278(18)
C1_3 C 0.26976(16) 0.93555(16) 0.5573(2)
H1_3 H 0.2939 0.9405 0.5114
C2_3 C 0.24054(17) 0.97729(16) 0.5949(2)
C3_3 C 0.22477(15) 0.89613(15) 0.6557(2)
H3_3 H 0.2106 0.8688 0.6926
C4_3 C 0.17556(15) 0.97732(16) 0.7173(2)
C8_3 C 0.10084(18) 0.96997(17) 0.8157(3)
H6_3 H 0.0736 0.9479 0.8432
C9_3 C 0.13590(17) 0.94508(16) 0.7577(3)
H7_3 H 0.1326 0.9062 0.7459
N1_3 N 0.25923(12) 0.88527(12) 0.59522(17)
N2_3 N 0.21190(13) 0.95154(12) 0.65873(18)
H15_3 H 0.1753 0.7908 0.5865
O2_3 O 0.28610(10) 0.78635(10) 0.69875(15)
S1_3 S 0.2500 0.7500 0.7500
O3_3 O 0.21390(10) 0.71365(10) 0.69875(15)
O4_3 O 0.21390(10) 0.78635(10) 0.80125(15)
O5_3 O 0.28610(10) 0.71365(10) 0.80125(15)
C19_3 C 0.23024(16) 0.56445(16) 0.5573(2)
H16_3 H 0.2061 0.5595 0.5114
C20_3 C 0.25946(17) 0.52271(16) 0.5949(2)
H17_2 H 0.2601 0.4841 0.5805
C21_3 C 0.27523(15) 0.60387(15) 0.6557(2)
H18_3 H 0.2894 0.6312 0.6926
C22_3 C 0.32444(15) 0.52268(16) 0.7173(2)
C23_2 C 0.31944(16) 0.46584(16) 0.7345(2)
H19_2 H 0.2926 0.4436 0.7064
C24_2 C 0.35389(17) 0.44204(17) 0.7929(2)
H20_2 H 0.3498 0.4034 0.8057
C25_2 C 0.39469(16) 0.47344(17) 0.8337(2)
C26_3 C 0.39916(18) 0.53003(17) 0.8157(3)
H21_3 H 0.4264 0.5521 0.8432
C27_3 C 0.36410(17) 0.55492(16) 0.7577(3)
H22_3 H 0.3674 0.5938 0.7459
C28_2 C 0.43434(17) 0.44613(17) 0.8918(2)
C29_2 C 0.41730(17) 0.4034(2) 0.9441(3)
H23_2 H 0.3790 0.3925 0.9450
C30_2 C 0.45559(17) 0.37647(19) 0.9951(3)
C31_2 C 0.51082(15) 0.39228(16) 0.9940(2)
C32_2 C 0.52852(17) 0.43567(18) 0.9439(3)
H25_2 H 0.5666 0.4472 0.9445
C33_2 C 0.49065(17) 0.46205(18) 0.8934(3)
H26_2 H 0.5030 0.4917 0.8589
H27_2 H 0.6220 0.3685 0.9730
N5_3 N 0.24077(12) 0.61473(12) 0.59522(17)
N6_3 N 0.28810(13) 0.54846(12) 0.65873(18)
H30_3 H 0.3247 0.7092 0.5865
C37_3 C 0.23024(16) 0.93555(16) 0.9427(2)
H31_3 H 0.2061 0.9405 0.9886
C38_3 C 0.25946(17) 0.97729(16) 0.9051(2)
C39_3 C 0.27523(15) 0.89613(15) 0.8443(2)
H33_3 H 0.2894 0.8688 0.8074
C40_3 C 0.32444(15) 0.97732(16) 0.7827(2)
C44_3 C 0.39916(18) 0.96997(17) 0.6843(3)
H36_3 H 0.4264 0.9479 0.6568
C45_3 C 0.36410(17) 0.94508(16) 0.7423(3)
H37_3 H 0.3674 0.9062 0.7541
N9_3 N 0.24077(12) 0.88527(12) 0.90478(17)
N10_3 N 0.28810(13) 0.95154(12) 0.84127(18)
H45_3 H 0.3247 0.7908 0.9135
C55_3 C 0.26976(16) 0.56445(16) 0.9427(2)
H46_3 H 0.2939 0.5595 0.9886
C56_3 C 0.24054(17) 0.52271(16) 0.9051(2)
H47_2 H 0.2399 0.4841 0.9195
C57_3 C 0.22477(15) 0.60387(15) 0.8443(2)
H48_3 H 0.2106 0.6312 0.8074
C58_3 C 0.17556(15) 0.52268(16) 0.7827(2)
C59_2 C 0.18056(16) 0.46584(16) 0.7655(2)
H49_2 H 0.2074 0.4436 0.7936
C60_2 C 0.14611(17) 0.44204(17) 0.7071(2)
H50_2 H 0.1502 0.4034 0.6943
C61_2 C 0.10531(16) 0.47344(17) 0.6663(2)
C62_3 C 0.10084(18) 0.53003(17) 0.6843(3)
H51_3 H 0.0736 0.5521 0.6568
C63_3 C 0.13590(17) 0.55492(16) 0.7423(3)
H52_3 H 0.1326 0.5938 0.7541
C64_2 C 0.06566(17) 0.44613(17) 0.6082(2)
C65_2 C 0.08270(17) 0.4034(2) 0.5559(3)
H53_2 H 0.1210 0.3925 0.5550
C66_2 C 0.04441(17) 0.37647(19) 0.5049(3)
H54_2 H 0.0565 0.3472 0.4695
C69_2 C 0.00935(17) 0.46205(18) 0.6066(3)
N13_3 N 0.25923(12) 0.61473(12) 0.90478(17)
N14_3 N 0.21190(13) 0.54846(12) 0.84127(18)
H60_3 H 0.1753 0.7092 0.9135
C16_3 C 0.89464(15) 0.14518(16) 0.0221(2)
C17_3 C 0.90651(16) 0.18501(17) 0.1390(2)
H13_3 H 0.8990 0.2049 0.1884
C18_3 C 0.95688(16) 0.16296(18) 0.1178(2)
H14_3 H 0.9908 0.1650 0.1482
N3_3 N 0.94876(12) 0.13699(13) 0.04278(18)
C67_3 C 0.98918(15) 0.39228(16) 0.5060(2)
C68_3 C 0.97148(17) 0.43567(18) 0.5561(3)
H55_3 H 0.9334 0.4472 0.5555
H56_3 H 0.9970 0.4917 0.6411
C70_3 C 0.89464(15) 0.35482(16) 0.4779(2)
H57_3 H 0.8780 0.3685 0.5270
C71_3 C 0.90651(16) 0.31499(17) 0.3610(2)
H58_3 H 0.8990 0.2951 0.3116
C72_3 C 0.95688(16) 0.33704(18) 0.3822(2)
H59_3 H 0.9908 0.3350 0.3518
N15_3 N 0.94876(12) 0.36301(13) 0.45722(18)
H24_4 H 0.1528 0.4435 0.0305
C34_4 C 0.14518(16) 0.60536(15) 0.0221(2)
C35_4 C 0.18501(17) 0.59349(16) 0.1390(2)
H28_4 H 0.2049 0.6010 0.1884
C36_4 C 0.16296(18) 0.54312(16) 0.1178(2)
H29_4 H 0.1650 0.5092 0.1482
N7_4 N 0.13699(13) 0.55124(12) 0.04278(18)
C67_4 C 0.10772(16) 0.98918(15) 0.5060(2)
C68_4 C 0.06433(18) 0.97148(17) 0.5561(3)
H55_4 H 0.0528 0.9334 0.5555
H56_4 H 0.0083 0.9970 0.6411
C70_4 C 0.14518(16) 0.89464(15) 0.4779(2)
H57_4 H 0.1315 0.8780 0.5270
C71_4 C 0.18501(17) 0.90651(16) 0.3610(2)
H58_4 H 0.2049 0.8990 0.3116
C72_4 C 0.16296(18) 0.95688(16) 0.3822(2)
H59_4 H 0.1650 0.9908 0.3518
N15_4 N 0.13699(13) 0.94876(12) 0.45722(18)
H9_2 H 0.3472 0.0565 0.0305
C1_4 C 0.56445(16) 0.26976(16) 0.5573(2)
H1_4 H 0.5595 0.2939 0.5114
C2_4 C 0.52271(16) 0.24054(17) 0.5949(2)
H2_4 H 0.4841 0.2399 0.5805
C3_4 C 0.60387(15) 0.22477(15) 0.6557(2)
H3_4 H 0.6312 0.2106 0.6926
C4_4 C 0.52268(16) 0.17556(15) 0.7173(2)
C5_4 C 0.46584(16) 0.18056(16) 0.7345(2)
H4_4 H 0.4436 0.2074 0.7064
C6_4 C 0.44204(17) 0.14611(17) 0.7929(2)
H5_4 H 0.4034 0.1502 0.8057
C7_4 C 0.47344(17) 0.10531(16) 0.8337(2)
C8_4 C 0.53003(17) 0.10084(18) 0.8157(3)
H6_4 H 0.5521 0.0736 0.8432
C9_4 C 0.55492(16) 0.13590(17) 0.7577(3)
H7_4 H 0.5938 0.1326 0.7459
C10_4 C 0.44613(17) 0.06566(17) 0.8918(2)
C11_4 C 0.4034(2) 0.08270(17) 0.9441(3)
H8_4 H 0.3925 0.1210 0.9450
C12_4 C 0.37647(19) 0.04441(17) 0.9951(3)
C15_4 C 0.46205(18) 0.00935(17) 0.8934(3)
N1_4 N 0.61473(12) 0.25923(12) 0.59522(17)
N2_4 N 0.54846(12) 0.21190(13) 0.65873(18)
H15_4 H 0.7092 0.1753 0.5865
O2_4 O 0.71365(10) 0.28610(10) 0.69875(15)
S1_4 S 0.7500 0.2500 0.7500
O3_4 O 0.78635(10) 0.21390(10) 0.69875(15)
O4_4 O 0.71365(10) 0.21390(10) 0.80125(15)
O5_4 O 0.78635(10) 0.28610(10) 0.80125(15)
C19_4 C 0.93555(16) 0.23024(16) 0.5573(2)
H16_4 H 0.9405 0.2061 0.5114
C20_4 C 0.97729(16) 0.25946(17) 0.5949(2)
C21_4 C 0.89613(15) 0.27523(15) 0.6557(2)
H18_4 H 0.8688 0.2894 0.6926
C22_4 C 0.97732(16) 0.32444(15) 0.7173(2)
C26_4 C 0.96997(17) 0.39916(18) 0.8157(3)
H21_4 H 0.9479 0.4264 0.8432
C27_4 C 0.94508(16) 0.36410(17) 0.7577(3)
H22_4 H 0.9062 0.3674 0.7459
N5_4 N 0.88527(12) 0.24077(12) 0.59522(17)
N6_4 N 0.95154(12) 0.28810(13) 0.65873(18)
H30_4 H 0.7908 0.3247 0.5865
C37_4 C 0.56445(16) 0.23024(16) 0.9427(2)
H31_4 H 0.5595 0.2061 0.9886
C38_4 C 0.52271(16) 0.25946(17) 0.9051(2)
H32_4 H 0.4841 0.2601 0.9195
C39_4 C 0.60387(15) 0.27523(15) 0.8443(2)
H33_4 H 0.6312 0.2894 0.8074
C40_4 C 0.52268(16) 0.32444(15) 0.7827(2)
C41_4 C 0.46584(16) 0.31944(16) 0.7655(2)
H34_4 H 0.4436 0.2926 0.7936
C42_4 C 0.44204(17) 0.35389(17) 0.7071(2)
H35_4 H 0.4034 0.3498 0.6943
C43_4 C 0.47344(17) 0.39469(16) 0.6663(2)
C44_4 C 0.53003(17) 0.39916(18) 0.6843(3)
H36_4 H 0.5521 0.4264 0.6568
C45_4 C 0.55492(16) 0.36410(17) 0.7423(3)
H37_4 H 0.5938 0.3674 0.7541
C46_4 C 0.44613(17) 0.43434(17) 0.6082(2)
C47_4 C 0.4034(2) 0.41730(17) 0.5559(3)
H38_4 H 0.3925 0.3790 0.5550
C48_4 C 0.37647(19) 0.45559(17) 0.5049(3)
H39_4 H 0.3472 0.4435 0.4695
C49_4 C 0.39228(16) 0.51082(15) 0.5060(2)
C50_4 C 0.43567(18) 0.52852(17) 0.5561(3)
H40_4 H 0.4472 0.5666 0.5555
C51_4 C 0.46205(18) 0.49065(17) 0.6066(3)
H41_4 H 0.4917 0.5030 0.6411
C52_4 C 0.35482(16) 0.60536(15) 0.4779(2)
H42_4 H 0.3685 0.6220 0.5270
C53_4 C 0.31499(17) 0.59349(16) 0.3610(2)
H43_4 H 0.2951 0.6010 0.3116
C54_4 C 0.33704(18) 0.54312(16) 0.3822(2)
H44_4 H 0.3350 0.5092 0.3518
N9_4 N 0.61473(12) 0.24077(12) 0.90478(17)
N10_4 N 0.54846(12) 0.28810(13) 0.84127(18)
N11_4 N 0.36301(13) 0.55124(12) 0.45722(18)
H45_4 H 0.7092 0.3247 0.9135
C55_4 C 0.93555(16) 0.26976(16) 0.9427(2)
H46_4 H 0.9405 0.2939 0.9886
C56_4 C 0.97729(16) 0.24054(17) 0.9051(2)
C57_4 C 0.89613(15) 0.22477(15) 0.8443(2)
H48_4 H 0.8688 0.2106 0.8074
C58_4 C 0.97732(16) 0.17556(15) 0.7827(2)
C62_4 C 0.96997(17) 0.10084(18) 0.6843(3)
H51_4 H 0.9479 0.0736 0.6568
C63_4 C 0.94508(16) 0.13590(17) 0.7423(3)
H52_4 H 0.9062 0.1326 0.7541
N13_4 N 0.88527(12) 0.25923(12) 0.90478(17)
N14_4 N 0.95154(12) 0.21190(13) 0.84127(18)
H60_4 H 0.7908 0.1753 0.9135
C16_4 C 0.35482(16) 0.89464(15) 0.0221(2)
C17_4 C 0.31499(17) 0.90651(16) 0.1390(2)
H13_4 H 0.2951 0.8990 0.1884
C18_4 C 0.33704(18) 0.95688(16) 0.1178(2)
H14_4 H 0.3350 0.9908 0.1482
N3_4 N 0.36301(13) 0.94876(12) 0.04278(18)
C13 C 0.01082(15) 0.89228(16) 0.0060(2)
C14 C 0.02852(17) 0.93567(18) 0.0561(3)
H10 H 0.0666 0.9472 0.0555
H11 H 0.0030 0.9917 0.1411
H12 H 0.1220 0.8685 0.0270
H9_3 H 0.9435 0.8472 0.9695
C13_2 C 0.60772(16) 0.01082(15) 0.0060(2)
C14_2 C 0.56433(18) 0.02852(17) 0.0561(3)
H10_2 H 0.5528 0.0666 0.0555
H11_2 H 0.5083 0.0030 0.1411
H12_2 H 0.6315 0.1220 0.0270
H17_3 H 0.9841 0.7399 0.4195
C23_3 C 0.96584(16) 0.68056(16) 0.2655(2)
H19_3 H 0.9436 0.7074 0.2936
C24_3 C 0.94204(17) 0.64611(17) 0.2071(2)
H20_3 H 0.9034 0.6502 0.1943
C25_3 C 0.97344(17) 0.60531(16) 0.1663(2)
C28_3 C 0.94613(17) 0.56566(17) 0.1082(2)
C29_3 C 0.9034(2) 0.58270(17) 0.0559(3)
H23_3 H 0.8925 0.6210 0.0550
C30_3 C 0.87647(19) 0.54441(17) 0.0049(3)
C31_3 C 0.89228(16) 0.48918(15) 0.0060(2)
C32_3 C 0.93567(18) 0.47148(17) 0.0561(3)
H25_3 H 0.9472 0.4334 0.0555
C33_3 C 0.96205(18) 0.50935(17) 0.1066(3)
H26_3 H 0.9917 0.4970 0.1411
H27_3 H 0.8685 0.3780 0.0270
H47_3 H 0.9841 0.7601 0.0805
C59_3 C 0.96584(16) 0.81944(16) 0.2345(2)
H49_3 H 0.9436 0.7926 0.2064
C60_3 C 0.94204(17) 0.85389(17) 0.2929(2)
H50_3 H 0.9034 0.8498 0.3057
C61_3 C 0.97344(17) 0.89469(16) 0.3337(2)
C64_3 C 0.94613(17) 0.93434(17) 0.3918(2)
C65_3 C 0.9034(2) 0.91730(17) 0.4441(3)
H53_3 H 0.8925 0.8790 0.4450
C66_3 C 0.87647(19) 0.95559(17) 0.4951(3)
H54_3 H 0.8472 0.9435 0.5305
C69_3 C 0.96205(18) 0.99065(17) 0.3934(3)
H9_4 H 0.0565 0.1528 0.0305
C13_3 C 0.98918(15) 0.10772(16) 0.9940(2)
C14_3 C 0.97148(17) 0.06433(18) 0.9439(3)
H10_3 H 0.9334 0.0528 0.9445
H11_3 H 0.9970 0.0083 0.8589
H12_3 H 0.8780 0.1315 0.9730
H17_4 H 0.0159 0.2601 0.5805
C23_4 C 0.03416(16) 0.31944(16) 0.7345(2)
H19_4 H 0.0564 0.2926 0.7064
C24_4 C 0.05796(17) 0.35389(17) 0.7929(2)
H20_4 H 0.0966 0.3498 0.8057
C25_4 C 0.02656(17) 0.39469(16) 0.8337(2)
C28_4 C 0.05387(17) 0.43434(17) 0.8918(2)
C29_4 C 0.0966(2) 0.41730(17) 0.9441(3)
H23_4 H 0.1075 0.3790 0.9450
C30_4 C 0.12353(19) 0.45559(17) 0.9951(3)
C31_4 C 0.10772(16) 0.51082(15) 0.9940(2)
C32_4 C 0.06433(18) 0.52852(17) 0.9439(3)
H25_4 H 0.0528 0.5666 0.9445
C33_4 C 0.03795(18) 0.49065(17) 0.8934(3)
H26_4 H 0.0083 0.5030 0.8589
H27_4 H 0.1315 0.6220 0.9730
H47_4 H 0.0159 0.2399 0.9195
C59_4 C 0.03416(16) 0.18056(16) 0.7655(2)
H49_4 H 0.0564 0.2074 0.7936
C60_4 C 0.05796(17) 0.14611(17) 0.7071(2)
H50_4 H 0.0966 0.1502 0.6943
C61_4 C 0.02656(17) 0.10531(16) 0.6663(2)
C64_4 C 0.05387(17) 0.06566(17) 0.6082(2)
C65_4 C 0.0966(2) 0.08270(17) 0.5559(3)
H53_4 H 0.1075 0.1210 0.5550
C66_4 C 0.12353(19) 0.04441(17) 0.5049(3)
H54_4 H 0.1528 0.0565 0.4695
C69_4 C 0.03795(18) 0.00935(17) 0.6066(3)
C13_4 C 0.39228(16) 0.98918(15) 0.9940(2)
C14_4 C 0.43567(18) 0.97148(17) 0.9439(3)
H10_4 H 0.4472 0.9334 0.9445
H11_4 H 0.4917 0.9970 0.8589
H12_4 H 0.3685 0.8780 0.9730
O13 O 0.5839(5) 0.1730(3) 0.1417(4)
H61 H 0.6161 0.1781 0.1631
O13_2 O 0.9161(5) 0.3270(3) 0.1417(4)
H61_2 H 0.8839 0.3219 0.1631
O13_3 O 0.3270(3) 0.5839(5) 0.1417(4)
H61_3 H 0.3219 0.6161 0.1631
O13_4 O 0.1730(3) 0.9161(5) 0.1417(4)
H61_4 H 0.1781 0.8839 0.1631
O13_5 O 0.9161(5) 0.1730(3) 0.3583(4)
H61_5 H 0.8839 0.1781 0.3369
O13_6 O 0.5839(5) 0.3270(3) 0.3583(4)
H61_6 H 0.6161 0.3219 0.3369
O13_7 O 0.1730(3) 0.5839(5) 0.3583(4)
H61_7 H 0.1781 0.6161 0.3369
O13_8 O 0.3270(3) 0.9161(5) 0.3583(4)
H61_8 H 0.3219 0.8839 0.3369
O13_9 O 0.4161(5) 0.8270(3) 0.8583(4)
H61_9 H 0.3839 0.8219 0.8369
O13_10 O 0.0839(5) 0.6730(3) 0.8583(4)
H61_10 H 0.1161 0.6781 0.8369
O13_11 O 0.6730(3) 0.4161(5) 0.8583(4)
H61_11 H 0.6781 0.3839 0.8369
O13_12 O 0.8270(3) 0.0839(5) 0.8583(4)
H61_12 H 0.8219 0.1161 0.8369
O13_13 O 0.0839(5) 0.8270(3) 0.6417(4)
H61_13 H 0.1161 0.8219 0.6631
O13_14 O 0.4161(5) 0.6730(3) 0.6417(4)
H61_14 H 0.3839 0.6781 0.6631
O13_15 O 0.8270(3) 0.4161(5) 0.6417(4)
H61_15 H 0.8219 0.3839 0.6631
O13_16 O 0.6730(3) 0.0839(5) 0.6417(4)
H61_16 H 0.6781 0.1161 0.6631
loop_
_geom_bond_atom_site_label_1
_geom_bond_atom_site_label_2
_geom_bond_site_symmetry_1
_geom_bond_site_symmetry_2
C68 C67 1_555 1_555
H55 C68 1_555 1_555
C70 H57 1_555 1_555
C71 H58 1_555 1_555
C72 C71 1_555 1_555
H59 C72 1_555 1_555
N15 C67 1_555 1_555
N16 C70 1_555 1_555
Ni6 N16 1_555 1_555
C70 N15 1_555 1_555
C71 N16 1_555 1_555
C72 N15 1_555 1_555
C17 H13 1_555 1_555
C18 C17 1_555 1_555
H14 C18 1_555 1_555
N4 C16 1_555 1_555
Ni9 N4 1_555 1_555
C16 N3 1_555 1_555
C17 N4 1_555 1_555
C18 N3 1_555 1_555
C1 H1 1_555 1_555
C2 C1 1_555 1_555
C3 H3 1_555 1_555
H6 C8 1_555 1_555
C9 C4 1_555 1_555
H7 C9 1_555 1_555
N1 C1 1_555 1_555
N2 C2 1_555 1_555
Ni1 N1 1_555 1_555
O1 Ni1 1_555 1_555
H15 O1 1_555 1_555
O2 Ni1 1_555 1_555
S1 O2 1_555 1_555
O3 S1 1_555 1_555
O4 S1 1_555 1_555
O5 S1 1_555 1_555
C19 H16 1_555 1_555
C20 C19 1_555 1_555
H17 C20 1_555 1_555
C21 H18 1_555 1_555
C22 C23 1_555 1_555
C23 H19 1_555 1_555
C24 C23 1_555 1_555
H20 C24 1_555 1_555
C25 C24 1_555 1_555
C26 C25 1_555 1_555
H21 C26 1_555 1_555
C27 C22 1_555 1_555
H22 C27 1_555 1_555
C28 C25 1_555 1_555
C29 C28 1_555 1_555
H23 C29 1_555 1_555
C30 C29 1_555 1_555
C31 C30 1_555 1_555
C32 C31 1_555 1_555
H25 C32 1_555 1_555
C33 C28 1_555 1_555
H26 C33 1_555 1_555
N5 C19 1_555 1_555
N6 C20 1_555 1_555
Ni2 O1 1_555 1_555
O6 Ni1 1_555 1_555
H30 O6 1_555 1_555
C37 H31 1_555 1_555
C38 C37 1_555 1_555
C39 H33 1_555 1_555
H36 C44 1_555 1_555
C45 C40 1_555 1_555
H37 C45 1_555 1_555
N9 C37 1_555 1_555
N10 C38 1_555 1_555
Ni3 O4 1_555 1_555
O7 Ni3 1_555 1_555
H45 O7 1_555 1_555
C55 H46 1_555 1_555
C56 C55 1_555 1_555
H47 C56 1_555 1_555
C57 H48 1_555 1_555
C58 C59 1_555 1_555
C59 H49 1_555 1_555
C60 C59 1_555 1_555
H50 C60 1_555 1_555
C61 C60 1_555 1_555
C62 C61 1_555 1_555
H51 C62 1_555 1_555
C63 C58 1_555 1_555
H52 C63 1_555 1_555
C64 C61 1_555 1_555
C65 C64 1_555 1_555
H53 C65 1_555 1_555
C66 C65 1_555 1_555
H54 C66 1_555 1_555
C69 C64 1_555 1_555
N13 C55 1_555 1_555
N14 C56 1_555 1_555
Ni4 O5 1_555 1_555
O8 Ni3 1_555 1_555
H60 O8 1_555 1_555
N17 Ni3 1_555 1_555
N18 Ni4 1_555 1_555
N19 Ni1 1_555 1_555
N20 Ni2 1_555 1_555
Ni7 O6 1_555 1_555
Ni8 O1 1_555 1_555
O9 Ni1 1_555 1_555
O10 Ni2 1_555 1_555
C3 N1 1_555 1_555
C3 N2 1_555 1_555
C4 N2 1_555 1_555
C8 C9 1_555 1_555
O3 Ni2 1_555 1_555
C21 N5 1_555 1_555
C21 N6 1_555 1_555
C22 N6 1_555 1_555
C26 C27 1_555 1_555
C32 C33 1_555 1_555
N5 Ni2 1_555 1_555
Ni2 O6 1_555 1_555
C39 N9 1_555 1_555
C39 N10 1_555 1_555
C40 N10 1_555 1_555
C44 C45 1_555 1_555
N9 Ni3 1_555 1_555
O7 Ni4 1_555 1_555
C57 N13 1_555 1_555
C57 N14 1_555 1_555
C58 N14 1_555 1_555
C62 C63 1_555 1_555
N13 Ni4 1_555 1_555
Ni4 O8 1_555 1_555
Ni7 O9 1_555 1_555
Ni7 O10 1_555 1_555
Ni8 O9 1_555 1_555
Ni8 O10 1_555 1_555
C35 H28 1_555 1_555
C36 C35 1_555 1_555
H29 C36 1_555 1_555
N8 C34 1_555 1_555
Ni10 N8 1_555 1_555
C34 N7 1_555 1_555
C35 N8 1_555 1_555
C36 N7 1_555 1_555
Ni11 O11 1_555 1_555
Ni11 O12 1_555 1_555
Ni12 O11 1_555 1_555
Ni12 O12 1_555 1_555
C5 H4 1_555 1_555
C6 C5 1_555 1_555
H5 C6 1_555 1_555
C7 C6 1_555 1_555
C10 C7 1_555 1_555
C11 C10 1_555 1_555
H8 C11 1_555 1_555
C12 C11 1_555 1_555
C15 C10 1_555 1_555
C41 H34 1_555 1_555
C42 C41 1_555 1_555
H35 C42 1_555 1_555
C43 C42 1_555 1_555
C46 C43 1_555 1_555
C47 C46 1_555 1_555
H38 C47 1_555 1_555
C48 C47 1_555 1_555
H39 C48 1_555 1_555
C49 C48 1_555 1_555
C50 C49 1_555 1_555
H40 C50 1_555 1_555
C51 C46 1_555 1_555
H41 C51 1_555 1_555
C52 H42 1_555 1_555
C53 H43 1_555 1_555
C54 C53 1_555 1_555
H44 C54 1_555 1_555
N11 C49 1_555 1_555
N12 C52 1_555 1_555
Ni5 N12 1_555 1_555
C50 C51 1_555 1_555
C52 N11 1_555 1_555
C53 N12 1_555 1_555
C54 N11 1_555 1_555
C17_2 H13_2 1_555 1_555
C18_2 C17_2 1_555 1_555
H14_2 C18_2 1_555 1_555
N4_2 C16_2 1_555 1_555
Ni12 N4_2 1_555 1_555
C16_2 N3_2 1_555 1_555
C17_2 N4_2 1_555 1_555
C18_2 N3_2 1_555 1_555
C1_2 H1_2 1_555 1_555
C2_2 C1_2 1_555 1_555
H2_2 C2_2 1_555 1_555
C3_2 H3_2 1_555 1_555
C4_2 C5_2 1_555 1_555
C5_2 H4_2 1_555 1_555
C6_2 C5_2 1_555 1_555
H5_2 C6_2 1_555 1_555
C7_2 C6_2 1_555 1_555
C8_2 C7_2 1_555 1_555
H6_2 C8_2 1_555 1_555
C9_2 C4_2 1_555 1_555
H7_2 C9_2 1_555 1_555
C10_2 C7_2 1_555 1_555
C11_2 C10_2 1_555 1_555
H8_2 C11_2 1_555 1_555
C12_2 C11_2 1_555 1_555
C15_2 C10_2 1_555 1_555
N1_2 C1_2 1_555 1_555
N2_2 C2_2 1_555 1_555
Ni1_2 N1_2 1_555 1_555
O1_2 Ni1_2 1_555 1_555
H15_2 O1_2 1_555 1_555
O2_2 Ni1_2 1_555 1_555
S1_2 O2_2 1_555 1_555
O3_2 S1_2 1_555 1_555
O4_2 S1_2 1_555 1_555
O5_2 S1_2 1_555 1_555
C19_2 H16_2 1_555 1_555
C20_2 C19_2 1_555 1_555
C21_2 H18_2 1_555 1_555
H21_2 C26_2 1_555 1_555
C27_2 C22_2 1_555 1_555
H22_2 C27_2 1_555 1_555
N5_2 C19_2 1_555 1_555
N6_2 C20_2 1_555 1_555
Ni2_2 O1_2 1_555 1_555
O6_2 Ni1_2 1_555 1_555
H30_2 O6_2 1_555 1_555
C37_2 H31_2 1_555 1_555
C38_2 C37_2 1_555 1_555
H32_2 C38_2 1_555 1_555
C39_2 H33_2 1_555 1_555
C40_2 C41_2 1_555 1_555
C41_2 H34_2 1_555 1_555
C42_2 C41_2 1_555 1_555
H35_2 C42_2 1_555 1_555
C43_2 C42_2 1_555 1_555
C44_2 C43_2 1_555 1_555
H36_2 C44_2 1_555 1_555
C45_2 C40_2 1_555 1_555
H37_2 C45_2 1_555 1_555
C46_2 C43_2 1_555 1_555
C47_2 C46_2 1_555 1_555
H38_2 C47_2 1_555 1_555
C48_2 C47_2 1_555 1_555
H39_2 C48_2 1_555 1_555
C49_2 C48_2 1_555 1_555
C50_2 C49_2 1_555 1_555
H40_2 C50_2 1_555 1_555
C51_2 C46_2 1_555 1_555
H41_2 C51_2 1_555 1_555
C52_2 H42_2 1_555 1_555
C53_2 H43_2 1_555 1_555
C54_2 C53_2 1_555 1_555
H44_2 C54_2 1_555 1_555
N9_2 C37_2 1_555 1_555
N10_2 C38_2 1_555 1_555
N11_2 C49_2 1_555 1_555
N12_2 C52_2 1_555 1_555
Ni3_2 O4_2 1_555 1_555
O7_2 Ni3_2 1_555 1_555
H45_2 O7_2 1_555 1_555
C55_2 H46_2 1_555 1_555
C56_2 C55_2 1_555 1_555
C57_2 H48_2 1_555 1_555
H51_2 C62_2 1_555 1_555
C63_2 C58_2 1_555 1_555
H52_2 C63_2 1_555 1_555
N13_2 C55_2 1_555 1_555
N14_2 C56_2 1_555 1_555
Ni4_2 O5_2 1_555 1_555
O8_2 Ni3_2 1_555 1_555
H60_2 O8_2 1_555 1_555
N17_2 Ni3_2 1_555 1_555
N18_2 Ni4_2 1_555 1_555
N19_2 Ni1_2 1_555 1_555
N20_2 Ni2_2 1_555 1_555
Ni7 N12_2 1_555 1_555
Ni6 O6_2 1_555 1_555
Ni5 O1_2 1_555 1_555
O9_2 Ni1_2 1_555 1_555
O10_2 Ni2_2 1_555 1_555
C3_2 N1_2 1_555 1_555
C3_2 N2_2 1_555 1_555
C4_2 N2_2 1_555 1_555
C8_2 C9_2 1_555 1_555
O3_2 Ni2_2 1_555 1_555
C21_2 N5_2 1_555 1_555
C21_2 N6_2 1_555 1_555
C22_2 N6_2 1_555 1_555
C26_2 C27_2 1_555 1_555
N5_2 Ni2_2 1_555 1_555
Ni2_2 O6_2 1_555 1_555
C39_2 N9_2 1_555 1_555
C39_2 N10_2 1_555 1_555
C40_2 N10_2 1_555 1_555
C44_2 C45_2 1_555 1_555
C50_2 C51_2 1_555 1_555
C52_2 N11_2 1_555 1_555
C53_2 N12_2 1_555 1_555
C54_2 N11_2 1_555 1_555
N9_2 Ni3_2 1_555 1_555
O7_2 Ni4_2 1_555 1_555
C57_2 N13_2 1_555 1_555
C57_2 N14_2 1_555 1_555
C58_2 N14_2 1_555 1_555
C62_2 C63_2 1_555 1_555
N13_2 Ni4_2 1_555 1_555
Ni4_2 O8_2 1_555 1_555
Ni6 O9_2 1_555 1_555
Ni6 O10_2 1_555 1_555
Ni5 O9_2 1_555 1_555
Ni5 O10_2 1_555 1_555
Ni9 O11_2 1_555 1_555
Ni9 O12_2 1_555 1_555
Ni10 O11_2 1_555 1_555
Ni10 O12_2 1_555 1_555
C68_2 C67_2 1_555 1_555
H55_2 C68_2 1_555 1_555
C70_2 H57_2 1_555 1_555
C71_2 H58_2 1_555 1_555
C72_2 C71_2 1_555 1_555
H59_2 C72_2 1_555 1_555
N15_2 C67_2 1_555 1_555
N16_2 C70_2 1_555 1_555
Ni8 N16_2 1_555 1_555
C70_2 N15_2 1_555 1_555
C71_2 N16_2 1_555 1_555
C72_2 N15_2 1_555 1_555
C35_2 H28_2 1_555 1_555
C36_2 C35_2 1_555 1_555
H29_2 C36_2 1_555 1_555
N8_2 C34_2 1_555 1_555
Ni11 N8_2 1_555 1_555
C34_2 N7_2 1_555 1_555
C35_2 N8_2 1_555 1_555
C36_2 N7_2 1_555 1_555
C5_3 H4_3 1_555 1_555
C6_3 C5_3 1_555 1_555
H5_3 C6_3 1_555 1_555
C7_3 C6_3 1_555 1_555
C10_3 C7_3 1_555 1_555
C11_3 C10_3 1_555 1_555
H8_3 C11_3 1_555 1_555
C12_3 C11_3 1_555 1_555
C15_3 C10_3 1_555 1_555
C41_3 H34_3 1_555 1_555
C42_3 C41_3 1_555 1_555
H35_3 C42_3 1_555 1_555
C43_3 C42_3 1_555 1_555
C46_3 C43_3 1_555 1_555
C47_3 C46_3 1_555 1_555
H38_3 C47_3 1_555 1_555
C48_3 C47_3 1_555 1_555
H39_3 C48_3 1_555 1_555
C49_3 C48_3 1_555 1_555
C50_3 C49_3 1_555 1_555
H40_3 C50_3 1_555 1_555
C51_3 C46_3 1_555 1_555
H41_3 C51_3 1_555 1_555
C52_3 H42_3 1_555 1_555
C53_3 H43_3 1_555 1_555
C54_3 C53_3 1_555 1_555
H44_3 C54_3 1_555 1_555
N11_3 C49_3 1_555 1_555
N19 C52_3 1_555 1_555
C50_3 C51_3 1_555 1_555
C52_3 N11_3 1_555 1_555
C53_3 N19 1_555 1_555
C54_3 N11_3 1_555 1_555
C35_3 H28_3 1_555 1_555
C36_3 C35_3 1_555 1_555
H29_3 C36_3 1_555 1_555
N18 C34_3 1_555 1_555
C34_3 N7_3 1_555 1_555
C35_3 N18 1_555 1_555
C36_3 N7_3 1_555 1_555
C1_3 H1_3 1_555 1_555
C2_3 C1_3 1_555 1_555
C3_3 H3_3 1_555 1_555
H6_3 C8_3 1_555 1_555
C9_3 C4_3 1_555 1_555
H7_3 C9_3 1_555 1_555
N1_3 C1_3 1_555 1_555
N2_3 C2_3 1_555 1_555
Ni5 N1_3 1_555 1_555
H15_3 O10_2 1_555 1_555
O2_3 Ni5 1_555 1_555
S1_3 O2_3 1_555 1_555
O3_3 S1_3 1_555 1_555
O4_3 S1_3 1_555 1_555
O5_3 S1_3 1_555 1_555
C19_3 H16_3 1_555 1_555
C20_3 C19_3 1_555 1_555
H17_2 C20_3 1_555 1_555
C21_3 H18_3 1_555 1_555
C22_3 C23_2 1_555 1_555
C23_2 H19_2 1_555 1_555
C24_2 C23_2 1_555 1_555
H20_2 C24_2 1_555 1_555
C25_2 C24_2 1_555 1_555
C26_3 C25_2 1_555 1_555
H21_3 C26_3 1_555 1_555
C27_3 C22_3 1_555 1_555
H22_3 C27_3 1_555 1_555
C28_2 C25_2 1_555 1_555
C29_2 C28_2 1_555 1_555
H23_2 C29_2 1_555 1_555
C30_2 C29_2 1_555 1_555
C31_2 C30_2 1_555 1_555
C32_2 C31_2 1_555 1_555
H25_2 C32_2 1_555 1_555
C33_2 C28_2 1_555 1_555
H26_2 C33_2 1_555 1_555
N5_3 C19_3 1_555 1_555
N6_3 C20_3 1_555 1_555
H30_3 O9_2 1_555 1_555
C37_3 H31_3 1_555 1_555
C38_3 C37_3 1_555 1_555
C39_3 H33_3 1_555 1_555
H36_3 C44_3 1_555 1_555
C45_3 C40_3 1_555 1_555
H37_3 C45_3 1_555 1_555
N9_3 C37_3 1_555 1_555
N10_3 C38_3 1_555 1_555
Ni9 O4_3 1_555 1_555
H45_3 O11_2 1_555 1_555
C55_3 H46_3 1_555 1_555
C56_3 C55_3 1_555 1_555
H47_2 C56_3 1_555 1_555
C57_3 H48_3 1_555 1_555
C58_3 C59_2 1_555 1_555
C59_2 H49_2 1_555 1_555
C60_2 C59_2 1_555 1_555
H50_2 C60_2 1_555 1_555
C61_2 C60_2 1_555 1_555
C62_3 C61_2 1_555 1_555
H51_3 C62_3 1_555 1_555
C63_3 C58_3 1_555 1_555
H52_3 C63_3 1_555 1_555
C64_2 C61_2 1_555 1_555
C65_2 C64_2 1_555 1_555
H53_2 C65_2 1_555 1_555
C66_2 C65_2 1_555 1_555
H54_2 C66_2 1_555 1_555
C69_2 C64_2 1_555 1_555
N13_3 C55_3 1_555 1_555
N14_3 C56_3 1_555 1_555
Ni10 O5_3 1_555 1_555
H60_3 O12_2 1_555 1_555
C3_3 N1_3 1_555 1_555
C3_3 N2_3 1_555 1_555
C4_3 N2_3 1_555 1_555
C8_3 C9_3 1_555 1_555
O3_3 Ni6 1_555 1_555
C21_3 N5_3 1_555 1_555
C21_3 N6_3 1_555 1_555
C22_3 N6_3 1_555 1_555
C26_3 C27_3 1_555 1_555
C32_2 C33_2 1_555 1_555
N5_3 Ni6 1_555 1_555
C39_3 N9_3 1_555 1_555
C39_3 N10_3 1_555 1_555
C40_3 N10_3 1_555 1_555
C44_3 C45_3 1_555 1_555
N9_3 Ni9 1_555 1_555
C57_3 N13_3 1_555 1_555
C57_3 N14_3 1_555 1_555
C58_3 N14_3 1_555 1_555
C62_3 C63_3 1_555 1_555
N13_3 Ni10 1_555 1_555
C17_3 H13_3 1_555 1_555
C18_3 C17_3 1_555 1_555
H14_3 C18_3 1_555 1_555
N17 C16_3 1_555 1_555
C16_3 N3_3 1_555 1_555
C17_3 N17 1_555 1_555
C18_3 N3_3 1_555 1_555
C68_3 C67_3 1_555 1_555
H55_3 C68_3 1_555 1_555
C70_3 H57_3 1_555 1_555
C71_3 H58_3 1_555 1_555
C72_3 C71_3 1_555 1_555
H59_3 C72_3 1_555 1_555
N15_3 C67_3 1_555 1_555
N20 C70_3 1_555 1_555
C70_3 N15_3 1_555 1_555
C71_3 N20 1_555 1_555
C72_3 N15_3 1_555 1_555
C35_4 H28_4 1_555 1_555
C36_4 C35_4 1_555 1_555
H29_4 C36_4 1_555 1_555
N18_2 C34_4 1_555 1_555
C34_4 N7_4 1_555 1_555
C35_4 N18_2 1_555 1_555
C36_4 N7_4 1_555 1_555
C68_4 C67_4 1_555 1_555
H55_4 C68_4 1_555 1_555
C70_4 H57_4 1_555 1_555
C71_4 H58_4 1_555 1_555
C72_4 C71_4 1_555 1_555
H59_4 C72_4 1_555 1_555
N15_4 C67_4 1_555 1_555
N20_2 C70_4 1_555 1_555
C70_4 N15_4 1_555 1_555
C71_4 N20_2 1_555 1_555
C72_4 N15_4 1_555 1_555
C1_4 H1_4 1_555 1_555
C2_4 C1_4 1_555 1_555
H2_4 C2_4 1_555 1_555
C3_4 H3_4 1_555 1_555
C4_4 C5_4 1_555 1_555
C5_4 H4_4 1_555 1_555
C6_4 C5_4 1_555 1_555
H5_4 C6_4 1_555 1_555
C7_4 C6_4 1_555 1_555
C8_4 C7_4 1_555 1_555
H6_4 C8_4 1_555 1_555
C9_4 C4_4 1_555 1_555
H7_4 C9_4 1_555 1_555
C10_4 C7_4 1_555 1_555
C11_4 C10_4 1_555 1_555
H8_4 C11_4 1_555 1_555
C12_4 C11_4 1_555 1_555
C15_4 C10_4 1_555 1_555
N1_4 C1_4 1_555 1_555
N2_4 C2_4 1_555 1_555
Ni7 N1_4 1_555 1_555
H15_4 O9 1_555 1_555
O2_4 Ni7 1_555 1_555
S1_4 O2_4 1_555 1_555
O3_4 S1_4 1_555 1_555
O4_4 S1_4 1_555 1_555
O5_4 S1_4 1_555 1_555
C19_4 H16_4 1_555 1_555
C20_4 C19_4 1_555 1_555
C21_4 H18_4 1_555 1_555
H21_4 C26_4 1_555 1_555
C27_4 C22_4 1_555 1_555
H22_4 C27_4 1_555 1_555
N5_4 C19_4 1_555 1_555
N6_4 C20_4 1_555 1_555
H30_4 O10 1_555 1_555
C37_4 H31_4 1_555 1_555
C38_4 C37_4 1_555 1_555
H32_4 C38_4 1_555 1_555
C39_4 H33_4 1_555 1_555
C40_4 C41_4 1_555 1_555
C41_4 H34_4 1_555 1_555
C42_4 C41_4 1_555 1_555
H35_4 C42_4 1_555 1_555
C43_4 C42_4 1_555 1_555
C44_4 C43_4 1_555 1_555
H36_4 C44_4 1_555 1_555
C45_4 C40_4 1_555 1_555
H37_4 C45_4 1_555 1_555
C46_4 C43_4 1_555 1_555
C47_4 C46_4 1_555 1_555
H38_4 C47_4 1_555 1_555
C48_4 C47_4 1_555 1_555
H39_4 C48_4 1_555 1_555
C49_4 C48_4 1_555 1_555
C50_4 C49_4 1_555 1_555
H40_4 C50_4 1_555 1_555
C51_4 C46_4 1_555 1_555
H41_4 C51_4 1_555 1_555
C52_4 H42_4 1_555 1_555
C53_4 H43_4 1_555 1_555
C54_4 C53_4 1_555 1_555
H44_4 C54_4 1_555 1_555
N9_4 C37_4 1_555 1_555
N10_4 C38_4 1_555 1_555
N11_4 C49_4 1_555 1_555
N19_2 C52_4 1_555 1_555
Ni12 O4_4 1_555 1_555
H45_4 O12 1_555 1_555
C55_4 H46_4 1_555 1_555
C56_4 C55_4 1_555 1_555
C57_4 H48_4 1_555 1_555
H51_4 C62_4 1_555 1_555
C63_4 C58_4 1_555 1_555
H52_4 C63_4 1_555 1_555
N13_4 C55_4 1_555 1_555
N14_4 C56_4 1_555 1_555
Ni11 O5_4 1_555 1_555
H60_4 O11 1_555 1_555
C3_4 N1_4 1_555 1_555
C3_4 N2_4 1_555 1_555
C4_4 N2_4 1_555 1_555
C8_4 C9_4 1_555 1_555
O3_4 Ni8 1_555 1_555
C21_4 N5_4 1_555 1_555
C21_4 N6_4 1_555 1_555
C22_4 N6_4 1_555 1_555
C26_4 C27_4 1_555 1_555
N5_4 Ni8 1_555 1_555
C39_4 N9_4 1_555 1_555
C39_4 N10_4 1_555 1_555
C40_4 N10_4 1_555 1_555
C44_4 C45_4 1_555 1_555
C50_4 C51_4 1_555 1_555
C52_4 N11_4 1_555 1_555
C53_4 N19_2 1_555 1_555
C54_4 N11_4 1_555 1_555
N9_4 Ni12 1_555 1_555
C57_4 N13_4 1_555 1_555
C57_4 N14_4 1_555 1_555
C58_4 N14_4 1_555 1_555
C62_4 C63_4 1_555 1_555
N13_4 Ni11 1_555 1_555
C17_4 H13_4 1_555 1_555
C18_4 C17_4 1_555 1_555
H14_4 C18_4 1_555 1_555
N17_2 C16_4 1_555 1_555
C16_4 N3_4 1_555 1_555
C17_4 N17_2 1_555 1_555
C18_4 N3_4 1_555 1_555
C14 C13 1_555 1_555
H10 C14 1_555 1_555
C14_2 C13_2 1_555 1_555
H10_2 C14_2 1_555 1_555
C23_3 H19_3 1_555 1_555
C24_3 C23_3 1_555 1_555
H20_3 C24_3 1_555 1_555
C25_3 C24_3 1_555 1_555
C28_3 C25_3 1_555 1_555
C29_3 C28_3 1_555 1_555
H23_3 C29_3 1_555 1_555
C30_3 C29_3 1_555 1_555
C31_3 C30_3 1_555 1_555
C32_3 C31_3 1_555 1_555
H25_3 C32_3 1_555 1_555
C33_3 C28_3 1_555 1_555
H26_3 C33_3 1_555 1_555
C59_3 H49_3 1_555 1_555
C60_3 C59_3 1_555 1_555
H50_3 C60_3 1_555 1_555
C61_3 C60_3 1_555 1_555
C64_3 C61_3 1_555 1_555
C65_3 C64_3 1_555 1_555
H53_3 C65_3 1_555 1_555
C66_3 C65_3 1_555 1_555
H54_3 C66_3 1_555 1_555
C69_3 C64_3 1_555 1_555
C32_3 C33_3 1_555 1_555
C14_3 C13_3 1_555 1_555
H10_3 C14_3 1_555 1_555
C23_4 H19_4 1_555 1_555
C24_4 C23_4 1_555 1_555
H20_4 C24_4 1_555 1_555
C25_4 C24_4 1_555 1_555
C28_4 C25_4 1_555 1_555
C29_4 C28_4 1_555 1_555
H23_4 C29_4 1_555 1_555
C30_4 C29_4 1_555 1_555
C31_4 C30_4 1_555 1_555
C32_4 C31_4 1_555 1_555
H25_4 C32_4 1_555 1_555
C33_4 C28_4 1_555 1_555
H26_4 C33_4 1_555 1_555
C59_4 H49_4 1_555 1_555
C60_4 C59_4 1_555 1_555
H50_4 C60_4 1_555 1_555
C61_4 C60_4 1_555 1_555
C64_4 C61_4 1_555 1_555
C65_4 C64_4 1_555 1_555
H53_4 C65_4 1_555 1_555
C66_4 C65_4 1_555 1_555
H54_4 C66_4 1_555 1_555
C69_4 C64_4 1_555 1_555
C32_4 C33_4 1_555 1_555
C14_4 C13_4 1_555 1_555
H10_4 C14_4 1_555 1_555
O13 H61 1_555 1_555
O13_2 H61_2 1_555 1_555
O13_3 H61_3 1_555 1_555
O13_4 H61_4 1_555 1_555
O13_5 H61_5 1_555 1_555
O13_6 H61_6 1_555 1_555
O13_7 H61_7 1_555 1_555
O13_8 H61_8 1_555 1_555
O13_9 H61_9 1_555 1_555
O13_10 H61_10 1_555 1_555
O13_11 H61_11 1_555 1_555
O13_12 H61_12 1_555 1_555
O13_13 H61_13 1_555 1_555
O13_14 H61_14 1_555 1_555
O13_15 H61_15 1_555 1_555
O13_16 H61_16 1_555 1_555

#END
