
###############################################################################
#
# This file contains modified crystal structure data generated from the
# MOF subset of the Cambridge Structural Database (CSD) v543 
# hosted by the Cambridge Crystallographic Data Centre (CCDC).
#
# This work is licensed under the Creative Commons
# Attribution-NonCommercial-ShareAlike 4.0 International License.
# To view a copy of this license, visit
# http://creativecommons.org/licenses/by-nc-sa/4.0/
# or send a letter to
# Creative Commons, PO Box 1866, Mountain View, CA 94042, USA.
#
# CIF created using the CSD Python API on 29 September 2022
# The structure has been converted into the P1 space group
# The structure has a 3D framework
# The original CSD entry XISPUM01 is in the triclinic crystal system
# The framework has been calculated to contain at least 10.0% void space
# The void calculation uses a probe of radius 1.32A, grid spacing 0.4
# H atom positions have been added when not included in the experimental data
#
###############################################################################

data_XISPUM01
_chemical_formula_moiety         '(C36 H16 Fe2 N10 Pt2)n'
_symmetry_cell_setting           triclinic
_symmetry_space_group_name_H-M   'P 1'
_symmetry_Int_Tables_number      1
_space_group_name_Hall           'P 1'
loop_
_symmetry_equiv_pos_site_id
_symmetry_equiv_pos_as_xyz
1 x,y,z
_cell_length_a                   7.4872(7)
_cell_length_b                   14.3024(7)
_cell_length_c                   15.0203(15)
_cell_angle_alpha                86.393(6)
_cell_angle_beta                 84.502(8)
_cell_angle_gamma                89.936(5)
_cell_volume                     1597.86
loop_
_atom_site_label
_atom_site_type_symbol
_atom_site_fract_x
_atom_site_fract_y
_atom_site_fract_z
Pt1 Pt 0.00681(5) 0.25891(2) 0.46230(3)
Fe2 Fe 0.5000 0.0000 0.5000
N4 N 0.2953(17) 0.1065(9) 0.4969(8)
N6 N 0.3063(16) 0.4133(8) 0.4484(7)
C16 C 0.1926(17) 0.1626(9) 0.4839(8)
C18 C 0.1979(17) 0.3571(9) 0.4485(8)
Fe4 Fe 0.5000 0.5000 0.5000
N13 N 0.488(2) 0.0007(11) 0.6490(10)
N16 N 0.7060(18) 0.1054(9) 0.4871(8)
Fe2_2 Fe 0.5000 1.0000 0.5000
N14 N 0.512(2) 0.9993(11) 0.3510(10)
N15 N 0.7047(17) 0.8935(9) 0.5031(8)
N17 N 0.2940(18) 0.8946(9) 0.5129(8)
H2 H 0.766427 0.00216983 0.649131
H5 H 0.202914 0.00713383 0.673525
C26 C 0.503(4) 0.132(2) 0.0036(19)
C28 C 0.362(3) 0.0092(15) 0.3111(14)
C29 C 0.364(3) 0.0338(17) 0.2195(16)
C30 C 0.513(4) 0.0480(18) 0.1690(17)
C31 C 0.663(3) 0.0406(17) 0.2042(15)
C32 C 0.670(3) 0.0085(17) 0.2992(16)
C33 C 0.507(5) 0.089(3) 0.075(2)
H12 H 0.237245 0.041227 0.189799
H13 H 0.787436 0.0584046 0.163008
N1 N 0.5186(16) 0.5941(8) 0.3779(8)
N2 N 0.7166(17) 0.4147(8) 0.4436(8)
C1 C 0.532(2) 0.5527(12) 0.2924(11)
C2 C 0.535(3) 0.6134(14) 0.2181(13)
C3 C 0.525(3) 0.7101(15) 0.2210(13)
C4 C 0.524(3) 0.7470(14) 0.3035(13)
C5 C 0.517(2) 0.6868(11) 0.3798(10)
C6 C 0.528(4) 0.766(2) 0.1419(19)
C7 C 0.514(4) 0.8148(19) 0.0709(17)
C9 C 0.8225(16) 0.3573(8) 0.4456(7)
C17 C 0.8135(16) 0.1625(9) 0.4796(7)
N7 N 0.4814(16) 0.4059(8) 0.6221(8)
N8 N 0.2834(17) 0.5853(8) 0.5564(8)
C19 C 0.468(2) 0.4473(12) 0.7076(11)
C20 C 0.465(3) 0.3866(14) 0.7819(13)
C21 C 0.475(3) 0.2899(15) 0.7790(13)
C22 C 0.476(3) 0.2530(14) 0.6965(13)
C23 C 0.483(2) 0.3132(11) 0.6202(10)
C24 C 0.472(4) 0.234(2) 0.8581(19)
C25 C 0.486(4) 0.1852(19) 0.9291(17)
C27 C 0.1775(16) 0.6427(8) 0.5544(7)
C35 C 0.1865(16) 0.8375(9) 0.5204(7)
N19 N 0.6937(16) 0.5867(8) 0.5516(7)
H1 H 0.528649 0.822534 0.308769
H3 H 0.509807 0.717143 0.444743
H6 H 0.545906 0.584024 0.152657
H7 H 0.539339 0.477158 0.287248
H9 H 0.460661 0.522842 0.712752
H10 H 0.471351 0.177466 0.691231
H11 H 0.454094 0.415976 0.847343
H14 H 0.490193 0.282857 0.555257
C8 C 0.497(4) 0.868(2) 0.9964(19)
C10 C 0.638(3) 0.9908(15) 0.6889(14)
C11 C 0.636(3) 0.9662(17) 0.7805(16)
C12 C 0.487(4) 0.9520(18) 0.8310(17)
C13 C 0.337(3) 0.9594(17) 0.7958(15)
C14 C 0.330(3) 0.9915(17) 0.7008(16)
C15 C 0.493(5) 0.911(3) 0.925(2)
H4 H 0.212564 0.941595 0.836992
H8 H 0.762755 0.958773 0.810201
H15 H 0.233573 0.99783 0.350869
H16 H 0.797086 0.992866 0.326475
Pt2 Pt 0.99319(5) 0.74109(2) 0.53770(3)
C34 C 0.8074(17) 0.8374(9) 0.5161(8)
C36 C 0.8021(17) 0.6429(9) 0.5515(8)
loop_
_geom_bond_atom_site_label_1
_geom_bond_atom_site_label_2
_geom_bond_site_symmetry_1
_geom_bond_site_symmetry_2
Fe2 N4 1_555 1_555
N4 C16 1_555 1_555
N6 C18 1_555 1_555
C16 Pt1 1_555 1_555
C18 Pt1 1_555 1_555
Fe4 N6 1_555 1_555
N13 Fe2 1_555 1_555
N16 Fe2 1_555 1_555
N14 Fe2_2 1_555 1_555
N15 Fe2_2 1_555 1_555
N17 Fe2_2 1_555 1_555
C28 C29 1_555 1_555
C29 C30 1_555 1_555
C30 C31 1_555 1_555
C31 C32 1_555 1_555
C33 C26 1_555 1_555
C30 C33 1_555 1_555
C29 H12 1_555 1_555
C31 H13 1_555 1_555
Fe4 N1 1_555 1_555
N1 C1 1_555 1_555
N2 Fe4 1_555 1_555
N16 C17 1_555 1_555
C1 C2 1_555 1_555
C2 C3 1_555 1_555
C3 C4 1_555 1_555
C4 C5 1_555 1_555
C5 N1 1_555 1_555
C6 C3 1_555 1_555
C7 C6 1_555 1_555
C9 N2 1_555 1_555
N7 Fe4 1_555 1_555
N8 Fe4 1_555 1_555
N17 C35 1_555 1_555
C19 N7 1_555 1_555
C20 C19 1_555 1_555
C21 C20 1_555 1_555
C22 C21 1_555 1_555
C23 N7 1_555 1_555
C24 C21 1_555 1_555
C25 C24 1_555 1_555
C27 N8 1_555 1_555
N19 Fe4 1_555 1_555
C22 C23 1_555 1_555
C4 H1 1_555 1_555
C5 H3 1_555 1_555
C2 H6 1_555 1_555
C1 H7 1_555 1_555
C19 H9 1_555 1_555
C22 H10 1_555 1_555
C20 H11 1_555 1_555
C23 H14 1_555 1_555
C10 C11 1_555 1_555
C11 C12 1_555 1_555
C12 C13 1_555 1_555
C13 C14 1_555 1_555
C15 C8 1_555 1_555
C12 C15 1_555 1_555
C13 H4 1_555 1_555
C11 H8 1_555 1_555
N15 C34 1_555 1_555
N19 C36 1_555 1_555
C34 Pt2 1_555 1_555
C36 Pt2 1_555 1_555

#END
