
###############################################################################
#
# This file contains modified crystal structure data generated from the
# MOF subset of the Cambridge Structural Database (CSD) v543 
# hosted by the Cambridge Crystallographic Data Centre (CCDC).
#
# This work is licensed under the Creative Commons
# Attribution-NonCommercial-ShareAlike 4.0 International License.
# To view a copy of this license, visit
# http://creativecommons.org/licenses/by-nc-sa/4.0/
# or send a letter to
# Creative Commons, PO Box 1866, Mountain View, CA 94042, USA.
#
# CIF created using the CSD Python API on 29 September 2022
# The structure has been converted into the P1 space group
# The structure has a 3D framework
# The original CSD entry XISPUM is in the triclinic crystal system
# The framework has been calculated to contain at least 10.0% void space
# The void calculation uses a probe of radius 1.32A, grid spacing 0.4
#
###############################################################################

data_XISPUM
_chemical_formula_moiety         '(C36 H16 Fe2 N12 Pt2)n'
_symmetry_cell_setting           triclinic
_symmetry_space_group_name_H-M   'P 1'
_symmetry_Int_Tables_number      1
_space_group_name_Hall           'P 1'
loop_
_symmetry_equiv_pos_site_id
_symmetry_equiv_pos_as_xyz
1 x,y,z
_cell_length_a                   7.2443(4)
_cell_length_b                   13.8127(8)
_cell_length_c                   15.4746(9)
_cell_angle_alpha                80.352(5)
_cell_angle_beta                 87.669(5)
_cell_angle_gamma                89.842(5)
_cell_volume                     1525.26
loop_
_atom_site_label
_atom_site_type_symbol
_atom_site_fract_x
_atom_site_fract_y
_atom_site_fract_z
Pt1 Pt 0.00288(3) 0.260609(15) 0.462873(15)
Fe2 Fe 0.5000 0.0000 0.5000
N3 N 0.3110(7) 0.0999(4) 0.4899(4)
N6 N 0.3125(7) 0.4185(4) 0.4625(4)
C16 C 0.1966(9) 0.1580(4) 0.4799(4)
C18 C 0.1965(8) 0.3628(4) 0.4570(4)
Fe4 Fe 0.5000 0.5000 0.5000
N14 N 0.6899(7) 0.1005(4) 0.4861(4)
N17 N 0.5033(8) 0.0068(4) 0.3700(4)
Fe2_2 Fe 0.5000 1.0000 0.5000
N13 N 0.6890(7) 0.9001(4) 0.5101(4)
N15 N 0.3101(7) 0.8995(4) 0.5139(4)
N16 N 0.4967(8) 0.9932(4) 0.6300(4)
C26 C 0.4985(15) 0.1237(6) 0.0185(5)
C28 C 0.3448(10) 0.0145(5) 0.3262(5)
H13 H 0.2331 0.0056 0.3584
C29 C 0.3413(12) 0.0350(5) 0.2357(5)
H14 H 0.2293 0.0385 0.2080
C30 C 0.5065(12) 0.0503(5) 0.1864(5)
C31 C 0.6702(12) 0.0368(5) 0.2300(5)
H15 H 0.7830 0.0421 0.1986
C32 C 0.6641(10) 0.0149(5) 0.3219(5)
H16 H 0.7745 0.0057 0.3507
C33 C 0.5029(14) 0.0849(6) 0.0934(5)
N1 N 0.5082(7) 0.5895(4) 0.3840(4)
N2 N 0.6937(7) 0.4189(3) 0.4610(4)
C1 C 0.5147(9) 0.5538(5) 0.3068(4)
H1 H 0.5182 0.4861 0.3091
C2 C 0.5163(11) 0.6122(5) 0.2270(5)
H2 H 0.5202 0.5844 0.1762
C3 C 0.5121(11) 0.7149(5) 0.2214(5)
C4 C 0.5075(11) 0.7519(5) 0.3002(5)
H3 H 0.5060 0.8194 0.2993
C5 C 0.5052(8) 0.6890(4) 0.3788(5)
H4 H 0.5015 0.7152 0.4305
C6 C 0.5110(13) 0.7783(6) 0.1375(5)
C7 C 0.5075(14) 0.8261(6) 0.0660(5)
C9 C 0.8082(9) 0.3632(4) 0.4549(4)
C17 C 0.8055(8) 0.1585(4) 0.4772(4)
N7 N 0.4918(7) 0.4105(4) 0.6160(4)
N8 N 0.3063(7) 0.5811(3) 0.5390(4)
C19 C 0.4853(9) 0.4462(5) 0.6932(4)
H9 H 0.4818 0.5139 0.6909
C20 C 0.4837(11) 0.3878(5) 0.7730(5)
H10 H 0.4798 0.4156 0.8238
C21 C 0.4879(11) 0.2851(5) 0.7786(5)
C22 C 0.4925(11) 0.2481(5) 0.6998(5)
H11 H 0.4940 0.1806 0.7007
C23 C 0.4948(8) 0.3110(4) 0.6212(5)
H12 H 0.4985 0.2848 0.5695
C24 C 0.4890(13) 0.2217(6) 0.8625(5)
C25 C 0.4925(14) 0.1739(6) 0.9340(5)
C27 C 0.1918(9) 0.6368(4) 0.5451(4)
C35 C 0.1945(8) 0.8415(4) 0.5228(4)
N19 N 0.6875(7) 0.5815(4) 0.5375(4)
C8 C 0.5015(15) 0.8763(6) 0.9815(5)
C10 C 0.6552(10) 0.9855(5) 0.6738(5)
H5 H 0.7669 0.9944 0.6416
C11 C 0.6587(12) 0.9650(5) 0.7643(5)
H6 H 0.7707 0.9615 0.7920
C12 C 0.4935(12) 0.9497(5) 0.8136(5)
C13 C 0.3298(12) 0.9632(5) 0.7700(5)
H7 H 0.2170 0.9579 0.8014
C14 C 0.3359(10) 0.9851(5) 0.6781(5)
H8 H 0.2255 0.9943 0.6493
C15 C 0.4971(14) 0.9151(6) 0.9066(5)
Pt2 Pt 0.99712(3) 0.739391(15) 0.537127(15)
C34 C 0.8034(9) 0.8420(4) 0.5201(4)
C36 C 0.8035(8) 0.6372(4) 0.5430(4)
loop_
_geom_bond_atom_site_label_1
_geom_bond_atom_site_label_2
_geom_bond_site_symmetry_1
_geom_bond_site_symmetry_2
Fe2 N3 1_555 1_555
N3 C16 1_555 1_555
N6 C18 1_555 1_555
C16 Pt1 1_555 1_555
C18 Pt1 1_555 1_555
Fe4 N6 1_555 1_555
N14 Fe2 1_555 1_555
N17 Fe2 1_555 1_555
N13 Fe2_2 1_555 1_555
N15 Fe2_2 1_555 1_555
N16 Fe2_2 1_555 1_555
N17 C28 1_555 1_555
C28 H13 1_555 1_555
C29 C28 1_555 1_555
H14 C29 1_555 1_555
C30 C29 1_555 1_555
C31 C30 1_555 1_555
H15 C31 1_555 1_555
C32 N17 1_555 1_555
H16 C32 1_555 1_555
C33 C26 1_555 1_555
C30 C33 1_555 1_555
C31 C32 1_555 1_555
Fe4 N1 1_555 1_555
N1 C1 1_555 1_555
N2 Fe4 1_555 1_555
N14 C17 1_555 1_555
C1 H1 1_555 1_555
C2 C1 1_555 1_555
H2 C2 1_555 1_555
C3 C2 1_555 1_555
C4 C3 1_555 1_555
H3 C4 1_555 1_555
C5 N1 1_555 1_555
H4 C5 1_555 1_555
C6 C3 1_555 1_555
C7 C6 1_555 1_555
C9 N2 1_555 1_555
N7 Fe4 1_555 1_555
N8 Fe4 1_555 1_555
N15 C35 1_555 1_555
C19 N7 1_555 1_555
H9 C19 1_555 1_555
C20 C19 1_555 1_555
H10 C20 1_555 1_555
C21 C20 1_555 1_555
C22 C21 1_555 1_555
H11 C22 1_555 1_555
C23 N7 1_555 1_555
H12 C23 1_555 1_555
C24 C21 1_555 1_555
C25 C24 1_555 1_555
C27 N8 1_555 1_555
N19 Fe4 1_555 1_555
C4 C5 1_555 1_555
C22 C23 1_555 1_555
N16 C10 1_555 1_555
C10 H5 1_555 1_555
C11 C10 1_555 1_555
H6 C11 1_555 1_555
C12 C11 1_555 1_555
C13 C12 1_555 1_555
H7 C13 1_555 1_555
C14 N16 1_555 1_555
H8 C14 1_555 1_555
C15 C8 1_555 1_555
C12 C15 1_555 1_555
C13 C14 1_555 1_555
N13 C34 1_555 1_555
N19 C36 1_555 1_555
C34 Pt2 1_555 1_555
C36 Pt2 1_555 1_555

#END
