
###############################################################################
#
# This file contains modified crystal structure data generated from the
# MOF subset of the Cambridge Structural Database (CSD) v543 
# hosted by the Cambridge Crystallographic Data Centre (CCDC).
#
# This work is licensed under the Creative Commons
# Attribution-NonCommercial-ShareAlike 4.0 International License.
# To view a copy of this license, visit
# http://creativecommons.org/licenses/by-nc-sa/4.0/
# or send a letter to
# Creative Commons, PO Box 1866, Mountain View, CA 94042, USA.
#
# CIF created using the CSD Python API on 29 September 2022
# The structure has been converted into the P1 space group
# The structure has a 3D framework
# The original CSD entry XISPEW02 is in the triclinic crystal system
# The framework has been calculated to contain at least 10.0% void space
# The void calculation uses a probe of radius 1.32A, grid spacing 0.4
#
###############################################################################

data_XISPEW02
_chemical_formula_moiety         '(C36 H16 Fe7 N12 Pt2)n'
_symmetry_cell_setting           triclinic
_symmetry_space_group_name_H-M   'P 1'
_symmetry_Int_Tables_number      1
_space_group_name_Hall           'P 1'
loop_
_symmetry_equiv_pos_site_id
_symmetry_equiv_pos_as_xyz
1 x,y,z
_cell_length_a                   7.5174(2)
_cell_length_b                   14.3676(7)
_cell_length_c                   16.350(2)
_cell_angle_alpha                76.831(8)
_cell_angle_beta                 84.282(6)
_cell_angle_gamma                89.965(3)
_cell_volume                     1710.47
loop_
_atom_site_label
_atom_site_type_symbol
_atom_site_fract_x
_atom_site_fract_y
_atom_site_fract_z
Fe7 Fe 0.0000 0.5000 0.0000
Fe9 Fe 0.0000 0.0000 0.0000
Fe7_2 Fe 0.0000 0.5000 1.0000
Fe9_2 Fe 0.0000 -0.0000 1.0000
Fe9_3 Fe 0.0000 1.0000 0.0000
Fe9_4 Fe 0.0000 1.0000 1.0000
Pt1 Pt 0.49365(7) 0.23890(4) 0.03256(4)
N2 N 0.191(2) 0.0865(11) 0.0353(11)
N3 N 0.799(2) 0.3907(11) 0.0201(11)
N4 N 0.204(2) 0.3979(11) 0.0070(12)
N6 N 0.788(2) 0.0823(11) 0.0387(11)
C8 C 0.301(2) 0.1422(12) 0.0375(12)
C9 C 0.688(2) 0.3364(12) 0.0259(12)
C10 C 0.310(2) 0.3406(11) 0.0181(12)
C11 C 0.680(2) 0.1383(11) 0.0412(12)
Fe7_3 Fe 1.0000 0.5000 0.0000
Fe9_5 Fe 1.0000 0.0000 0.0000
N1 N 0.020(2) 0.1004(13) 0.8762(11)
C1 C 0.043(3) 0.0657(18) 0.8092(16)
H1 H 0.0538 0.0002 0.8145
C2 C 0.053(3) 0.1283(16) 0.7279(15)
H2 H 0.0744 0.1034 0.6802
C3 C 0.030(4) 0.2285(18) 0.7183(15)
C4 C 0.013(4) 0.2617(16) 0.7916(14)
H3 H 0.0057 0.3269 0.7890
C5 C 0.006(3) 0.1976(14) 0.8682(14)
C6 C 0.031(4) 0.293(2) 0.6351(18)
C7 C 0.016(4) 0.334(2) 0.5634(17)
C12 C 0.148(4) 0.487(2) 0.1719(18)
H5 H 0.2525 0.5065 0.1365
C13 C 0.153(4) 0.468(2) 0.2617(18)
H6 H 0.2580 0.4754 0.2854
C18 C 0.006(4) 0.3814(19) 0.4777(17)
Fe7_4 Fe 1.0000 0.5000 1.0000
Fe9_6 Fe 1.0000 -0.0000 1.0000
N14 N 0.201(2) 0.6093(11) 0.9799(11)
N17 N 0.007(3) 0.5240(18) 0.8626(14)
H12 H 0.0088 0.7791 0.0830
C32 C 0.010(4) 0.564(2) 0.6868(16)
C33 C 0.163(4) 0.568(2) 0.7227(19)
H15 H 0.2707 0.5831 0.6887
C34 C 0.162(4) 0.549(2) 0.8125(16)
H16 H 0.2675 0.5529 0.8365
C35 C 0.005(4) 0.593(2) 0.5955(19)
Fe9_7 Fe 1.0000 1.0000 0.0000
Fe9_8 Fe 1.0000 1.0000 1.0000
N19 N 0.212(2) 0.9177(11) 0.9613(11)
N16 N 0.993(3) 0.4760(18) 0.1374(14)
H4 H 0.9912 0.2209 0.9170
C14 C 0.990(4) 0.436(2) 0.3132(16)
C15 C 0.837(4) 0.432(2) 0.2773(19)
H7 H 0.7293 0.4169 0.3113
C16 C 0.838(4) 0.451(2) 0.1875(16)
H8 H 0.7325 0.4471 0.1635
C17 C 0.995(4) 0.407(2) 0.4045(19)
N15 N 0.796(2) 0.6021(11) 0.9930(12)
N7 N 0.980(2) 0.8996(13) 0.1238(11)
C19 C 0.957(3) 0.9343(18) 0.1908(16)
H9 H 0.9462 0.9998 0.1855
C20 C 0.947(3) 0.8717(16) 0.2721(15)
H10 H 0.9256 0.8966 0.3198
C21 C 0.970(4) 0.7715(18) 0.2817(15)
C22 C 0.987(4) 0.7383(16) 0.2084(14)
H11 H 0.9943 0.6731 0.2110
C23 C 0.994(3) 0.8024(14) 0.1318(14)
C24 C 0.969(4) 0.707(2) 0.3649(18)
C25 C 0.984(4) 0.666(2) 0.4366(17)
C30 C 0.852(4) 0.513(2) 0.8281(18)
H13 H 0.7475 0.4935 0.8635
C31 C 0.847(4) 0.532(2) 0.7383(18)
H14 H 0.7420 0.5246 0.7146
C36 C 0.994(4) 0.6186(19) 0.5223(17)
Pt2 Pt 0.50635(7) 0.76110(4) 0.96744(4)
N8 N 0.809(2) 0.9135(11) 0.9647(11)
C26 C 0.699(2) 0.8578(12) 0.9625(12)
C27 C 0.312(2) 0.6636(12) 0.9741(12)
C28 C 0.690(2) 0.6594(11) 0.9819(12)
C29 C 0.320(2) 0.8617(11) 0.9588(12)
loop_
_geom_bond_atom_site_label_1
_geom_bond_atom_site_label_2
_geom_bond_site_symmetry_1
_geom_bond_site_symmetry_2
Pt1 C8 1_555 1_555
Fe7 N4 1_555 1_555
N2 Fe9 1_555 1_555
N3 C9 1_555 1_555
N4 C10 1_555 1_555
N6 C11 1_555 1_555
C8 N2 1_555 1_555
C9 Pt1 1_555 1_555
C10 Pt1 1_555 1_555
C11 Pt1 1_555 1_555
Fe7_3 N3 1_555 1_555
Fe9_5 N6 1_555 1_555
Fe9_2 N1 1_555 1_555
N1 C1 1_555 1_555
C1 H1 1_555 1_555
C2 C1 1_555 1_555
H2 C2 1_555 1_555
C3 C2 1_555 1_555
C4 C3 1_555 1_555
H3 C4 1_555 1_555
C5 N1 1_555 1_555
C6 C3 1_555 1_555
C7 C6 1_555 1_555
C12 H5 1_555 1_555
C13 C12 1_555 1_555
H6 C13 1_555 1_555
C18 C7 1_555 1_555
N14 Fe7_2 1_555 1_555
N17 Fe7_2 1_555 1_555
C4 C5 1_555 1_555
C33 C32 1_555 1_555
H15 C33 1_555 1_555
C34 N17 1_555 1_555
H16 C34 1_555 1_555
C35 C32 1_555 1_555
C33 C34 1_555 1_555
N19 Fe9_4 1_555 1_555
N16 Fe7_3 1_555 1_555
C15 C14 1_555 1_555
H7 C15 1_555 1_555
C16 N16 1_555 1_555
H8 C16 1_555 1_555
C17 C14 1_555 1_555
N15 Fe7_4 1_555 1_555
C15 C16 1_555 1_555
N7 Fe9_7 1_555 1_555
C19 N7 1_555 1_555
H9 C19 1_555 1_555
C20 C19 1_555 1_555
H10 C20 1_555 1_555
C21 C20 1_555 1_555
C22 C21 1_555 1_555
H11 C22 1_555 1_555
C23 N7 1_555 1_555
C24 C21 1_555 1_555
C25 C24 1_555 1_555
C30 H13 1_555 1_555
C31 C30 1_555 1_555
H14 C31 1_555 1_555
C36 C25 1_555 1_555
C22 C23 1_555 1_555
Pt2 C26 1_555 1_555
N8 Fe9_8 1_555 1_555
N14 C27 1_555 1_555
N15 C28 1_555 1_555
N19 C29 1_555 1_555
C26 N8 1_555 1_555
C27 Pt2 1_555 1_555
C28 Pt2 1_555 1_555
C29 Pt2 1_555 1_555

#END
