
###############################################################################
#
# This file contains modified crystal structure data generated from the
# MOF subset of the Cambridge Structural Database (CSD) v543 
# hosted by the Cambridge Crystallographic Data Centre (CCDC).
#
# This work is licensed under the Creative Commons
# Attribution-NonCommercial-ShareAlike 4.0 International License.
# To view a copy of this license, visit
# http://creativecommons.org/licenses/by-nc-sa/4.0/
# or send a letter to
# Creative Commons, PO Box 1866, Mountain View, CA 94042, USA.
#
# CIF created using the CSD Python API on 29 September 2022
# The structure has been converted into the P1 space group
# The structure has a 3D framework
# The original CSD entry XISXEE is in the orthorhombic crystal system
# The framework has been calculated to contain at least 10.0% void space
# The void calculation uses a probe of radius 1.32A, grid spacing 0.4
# H atom positions have been added when not included in the experimental data
# Generated hydrogen atom positions removed from atoms on special positions
#
###############################################################################

data_XISXEE
_chemical_formula_moiety         '(C122 H94 Ni12 O52)n'
_symmetry_cell_setting           triclinic
_symmetry_space_group_name_H-M   'P 1'
_symmetry_Int_Tables_number      1
_space_group_name_Hall           'P 1'
loop_
_symmetry_equiv_pos_site_id
_symmetry_equiv_pos_as_xyz
1 x,y,z
_cell_length_a                   14.9927(17)
_cell_length_b                   17.2321(16)
_cell_length_c                   24.798(3)
_cell_angle_alpha                90
_cell_angle_beta                 90
_cell_angle_gamma                90
_cell_volume                     6406.7
loop_
_atom_site_label
_atom_site_type_symbol
_atom_site_fract_x
_atom_site_fract_y
_atom_site_fract_z
Ni1 Ni 0.30544(6) 0.21086(5) 0.0000
Ni2 Ni 0.39507(7) 0.02422(6) 0.0000
O1 O 0.1916(4) 0.2826(3) 0.0000
O3 O 0.4207(3) 0.1406(3) 0.0000
C1 C 0.0000 -0.0000 0.2459(3)
O4 O 0.3092(3) 0.0327(2) 0.06131(17)
O5 O 0.2465(3) 0.1485(2) 0.05876(17)
C2 C 0.0756(3) 0.0231(3) 0.20663(18)
O6 O 0.5000 -0.0000 0.0562(2)
C4 C 0.1932(4) 0.0622(3) 0.1229(2)
C6 C 0.1235(4) 0.1087(3) 0.1350(2)
H2 H 0.1157 0.1548 0.1161
C8 C 0.0633(4) 0.0888(3) 0.1750(2)
H4 H 0.0137 0.1201 0.1809
C11 C 0.2561(4) 0.0832(3) 0.0775(2)
C13 C 0.0318(4) 0.1276(3) 0.2948(2)
H7 H 0.0826 0.1340 0.2737
C14 C 0.0138(4) 0.1794(4) 0.3352(2)
H8 H 0.0530 0.2204 0.3410
O13 O 0.3571(3) 0.2833(2) 0.05826(15)
H19 H 0.184049 0.306275 0.0362214
Ni1_2 Ni 0.30544(6) 0.21086(5) 1.0000
Ni2_2 Ni 0.39507(7) 0.02422(6) 1.0000
O1_2 O 0.1916(4) 0.2826(3) 1.0000
O3_2 O 0.4207(3) 0.1406(3) 1.0000
O14 O 0.3571(3) 0.2833(2) 0.94174(15)
O15 O 0.3092(3) 0.0327(2) 0.93869(17)
O16 O 0.2465(3) 0.1485(2) 0.94124(17)
O17 O 0.5000 0.0000 0.9438(2)
H20 H 0.198991 0.324223 0.97267
C1_2 C 0.0000 1.0000 0.2459(3)
O6_2 O 0.5000 1.0000 0.0562(2)
C5 C 0.1487(4) 0.9773(3) 0.1956(2)
H1 H 0.1592 0.9334 0.2165
C7 C 0.2069(4) 0.9953(3) 0.1539(2)
H3 H 0.2550 0.9630 0.1466
O8 O 0.3743(4) 0.9044(3) 0.0000
O9 O 0.1429(3) 0.7833(2) 0.44174(15)
C17 C 0.0239(3) 0.9332(3) 0.28504(18)
O12 O 0.0274(4) 0.7116(3) 0.4159(2)
C23 C 0.1019(4) 0.9401(3) 0.3163(2)
H13 H 0.1421 0.9801 0.3096
C24 C 0.1186(4) 0.8868(3) 0.3572(2)
H14 H 0.1699 0.8914 0.3781
C26 C 0.0594(4) 0.8272(3) 0.3670(2)
C29 C 0.0801(5) 0.7706(4) 0.4123(3)
Ni5 Ni 0.19456(6) 0.71086(5) 0.5000
Ni7 Ni 0.60493(7) 0.97578(6) 0.0000
H17 H 0.401881 0.881355 0.0326954
H18 H 0.309262 0.893509 4.62346e-18
O8_2 O 0.3743(4) 0.9044(3) 1.0000
Ni7_2 Ni 0.60493(7) 0.97578(6) 1.0000
O17_2 O 0.5000 1.0000 0.9438(2)
H18_2 H 0.309262 0.893509 1
O2 O 0.8571(3) 0.2167(2) 0.44174(15)
C1_3 C 1.0000 -0.0000 0.2459(3)
C3 C 0.9761(3) 0.0668(3) 0.28504(18)
O7 O 0.9726(4) 0.2884(3) 0.4159(2)
C9 C 0.8981(4) 0.0599(3) 0.3163(2)
H5 H 0.8579 0.0199 0.3096
C10 C 0.8814(4) 0.1132(3) 0.3572(2)
H6 H 0.8301 0.1086 0.3781
C12 C 0.9406(4) 0.1728(3) 0.3670(2)
C15 C 0.9199(5) 0.2294(4) 0.4123(3)
C19 C 0.8513(4) 0.0227(3) 0.1956(2)
H9 H 0.8408 0.0666 0.2165
C21 C 0.7931(4) 0.0047(3) 0.1539(2)
H11 H 0.7450 0.0370 0.1466
Ni4 Ni 0.80544(6) 0.28914(5) 0.5000
C1_4 C 1.0000 1.0000 0.2459(3)
O10 O 0.6908(3) 0.9673(2) 0.06131(17)
O11 O 0.7535(3) 0.8515(2) 0.05876(17)
C16 C 0.9244(3) 0.9769(3) 0.20663(18)
C18 C 0.8068(4) 0.9378(3) 0.1229(2)
C20 C 0.8765(4) 0.8913(3) 0.1350(2)
H10 H 0.8843 0.8452 0.1161
C22 C 0.9367(4) 0.9112(3) 0.1750(2)
H12 H 0.9863 0.8799 0.1809
C25 C 0.7439(4) 0.9168(3) 0.0775(2)
C27 C 0.9682(4) 0.8724(3) 0.2948(2)
H15 H 0.9174 0.8660 0.2737
C28 C 0.9862(4) 0.8206(4) 0.3352(2)
H16 H 0.9470 0.7796 0.3410
Ni3 Ni 0.69456(6) 0.78914(5) 0.0000
Ni3_2 Ni 0.69456(6) 0.78914(5) 1.0000
O8_3 O 0.6257(4) 0.0956(3) 0.0000
H17_2 H 0.598119 0.118645 0.0326954
H18_3 H 0.690738 0.106491 4.62346e-18
O8_4 O 0.6257(4) 0.0956(3) 1.0000
H18_4 H 0.690738 0.106491 1
O1_3 O 0.8084(4) 0.7174(3) 0.0000
O3_3 O 0.5793(3) 0.8594(3) 0.0000
O13_2 O 0.6429(3) 0.7167(2) 0.05826(15)
H19_2 H 0.815951 0.693725 0.0362214
O1_4 O 0.8084(4) 0.7174(3) 1.0000
O3_4 O 0.5793(3) 0.8594(3) 1.0000
O14_2 O 0.6429(3) 0.7167(2) 0.94174(15)
O15_2 O 0.6908(3) 0.9673(2) 0.93869(17)
O16_2 O 0.7535(3) 0.8515(2) 0.94124(17)
H20_2 H 0.801009 0.675777 0.97267
O6_3 O 0.0000 0.5000 0.4438(2)
Ni7_3 Ni 0.10493(7) 0.52422(6) 0.5000
O17_3 O 0.0000 0.5000 0.5562(2)
Ni2_3 Ni 0.89507(7) 0.47578(6) 0.5000
O1_5 O 0.6916(4) 0.2174(3) 0.5000
O3_5 O 0.9207(3) 0.3594(3) 0.5000
C1_5 C 0.5000 0.5000 0.2541(3)
O4_2 O 0.8092(3) 0.4673(2) 0.43869(17)
O5_2 O 0.7465(3) 0.3515(2) 0.44124(17)
C2_2 C 0.5756(3) 0.4769(3) 0.29337(18)
C3_2 C 0.4761(3) 0.4332(3) 0.21496(18)
O6_4 O 1.0000 0.5000 0.4438(2)
C4_2 C 0.6932(4) 0.4378(3) 0.3771(2)
C5_2 C 0.6487(4) 0.5227(3) 0.3044(2)
H1_2 H 0.6592 0.5666 0.2835
C6_2 C 0.6235(4) 0.3913(3) 0.3650(2)
H2_2 H 0.6157 0.3452 0.3839
C7_2 C 0.7069(4) 0.5047(3) 0.3461(2)
H3_2 H 0.7550 0.5370 0.3534
C8_2 C 0.5633(4) 0.4112(3) 0.3250(2)
H4_2 H 0.5137 0.3799 0.3191
O7_2 O 0.4726(4) 0.2116(3) 0.0841(2)
C9_2 C 0.3981(4) 0.4401(3) 0.1837(2)
H5_2 H 0.3579 0.4801 0.1904
C10_2 C 0.3814(4) 0.3868(3) 0.1428(2)
H6_2 H 0.3301 0.3914 0.1219
C11_2 C 0.7561(4) 0.4168(3) 0.4225(2)
C12_2 C 0.4406(4) 0.3272(3) 0.1330(2)
C13_2 C 0.5318(4) 0.3724(3) 0.2052(2)
H7_2 H 0.5826 0.3660 0.2263
C14_2 C 0.5138(4) 0.3206(4) 0.1648(2)
H8_2 H 0.5530 0.2796 0.1590
C15_2 C 0.4199(5) 0.2706(4) 0.0877(3)
O8_5 O 0.8743(4) 0.5956(3) 0.5000
O10_2 O 0.1908(3) 0.5327(2) 0.43869(17)
O11_2 O 0.2535(3) 0.6485(2) 0.44124(17)
C16_2 C 0.4244(3) 0.5231(3) 0.29337(18)
C17_2 C 0.5239(3) 0.5668(3) 0.21496(18)
C18_2 C 0.3068(4) 0.5622(3) 0.3771(2)
C19_2 C 0.3513(4) 0.4773(3) 0.3044(2)
H9_2 H 0.3408 0.4334 0.2835
C20_2 C 0.3765(4) 0.6087(3) 0.3650(2)
H10_2 H 0.3843 0.6548 0.3839
C21_2 C 0.2931(4) 0.4953(3) 0.3461(2)
H11_2 H 0.2450 0.4630 0.3534
C22_2 C 0.4367(4) 0.5888(3) 0.3250(2)
H12_2 H 0.4863 0.6201 0.3191
O12_2 O 0.5274(4) 0.7884(3) 0.0841(2)
C23_2 C 0.6019(4) 0.5599(3) 0.1837(2)
H13_2 H 0.6421 0.5199 0.1904
C24_2 C 0.6186(4) 0.6132(3) 0.1428(2)
H14_2 H 0.6699 0.6086 0.1219
C25_2 C 0.2439(4) 0.5832(3) 0.4225(2)
C26_2 C 0.5594(4) 0.6728(3) 0.1330(2)
C27_2 C 0.4682(4) 0.6276(3) 0.2052(2)
H15_2 H 0.4174 0.6340 0.2263
C28_2 C 0.4862(4) 0.6794(4) 0.1648(2)
H16_2 H 0.4470 0.7204 0.1590
C29_2 C 0.5801(5) 0.7294(4) 0.0877(3)
O14_3 O 0.8571(3) 0.2167(2) 0.55826(15)
O15_3 O 0.8092(3) 0.4673(2) 0.56131(17)
O16_3 O 0.7465(3) 0.3515(2) 0.55876(17)
O17_4 O 1.0000 0.5000 0.5562(2)
O1_6 O 0.3084(4) 0.7826(3) 0.5000
O3_6 O 0.0793(3) 0.6406(3) 0.5000
O8_6 O 0.1257(4) 0.4044(3) 0.5000
O14_4 O 0.1429(3) 0.7833(2) 0.55826(15)
O15_4 O 0.1908(3) 0.5327(2) 0.56131(17)
O16_4 O 0.2535(3) 0.6485(2) 0.55876(17)
C1_6 C 0.0000 0.0000 0.7541(3)
C16_3 C 0.0756(3) 0.0231(3) 0.79337(18)
C18_3 C 0.1932(4) 0.0622(3) 0.8771(2)
C20_3 C 0.1235(4) 0.1087(3) 0.8650(2)
H10_3 H 0.1157 0.1548 0.8839
C22_3 C 0.0633(4) 0.0888(3) 0.8250(2)
H12_3 H 0.0137 0.1201 0.8191
C25_3 C 0.2561(4) 0.0832(3) 0.9225(2)
C27_3 C 0.0318(4) 0.1276(3) 0.7052(2)
H15_3 H 0.0826 0.1340 0.7263
C28_3 C 0.0138(4) 0.1794(4) 0.6648(2)
H16_3 H 0.0530 0.2204 0.6590
C1_7 C 0.0000 1.0000 0.7541(3)
C3_3 C 0.0239(3) 0.9332(3) 0.71496(18)
O7_3 O 0.0274(4) 0.7116(3) 0.5841(2)
C9_3 C 0.1019(4) 0.9401(3) 0.6837(2)
H5_3 H 0.1421 0.9801 0.6904
C10_3 C 0.1186(4) 0.8868(3) 0.6428(2)
H6_3 H 0.1699 0.8914 0.6219
C12_3 C 0.0594(4) 0.8272(3) 0.6330(2)
C15_3 C 0.0801(5) 0.7706(4) 0.5877(3)
C19_3 C 0.1487(4) 0.9773(3) 0.8044(2)
H9_3 H 0.1592 0.9334 0.7835
C21_3 C 0.2069(4) 0.9953(3) 0.8461(2)
H11_3 H 0.2550 0.9630 0.8534
C1_8 C 1.0000 0.0000 0.7541(3)
C5_3 C 0.8513(4) 0.0227(3) 0.8044(2)
H1_3 H 0.8408 0.0666 0.7835
C7_3 C 0.7931(4) 0.0047(3) 0.8461(2)
H3_3 H 0.7450 0.0370 0.8534
C17_3 C 0.9761(3) 0.0668(3) 0.71496(18)
O12_3 O 0.9726(4) 0.2884(3) 0.5841(2)
C23_3 C 0.8981(4) 0.0599(3) 0.6837(2)
H13_3 H 0.8579 0.0199 0.6904
C24_3 C 0.8814(4) 0.1132(3) 0.6428(2)
H14_3 H 0.8301 0.1086 0.6219
C26_3 C 0.9406(4) 0.1728(3) 0.6330(2)
C29_3 C 0.9199(5) 0.2294(4) 0.5877(3)
H17_3 H 0.598119 0.118645 0.967305
H20_3 H 0.801009 0.675777 0.0273302
C1_9 C 1.0000 1.0000 0.7541(3)
C2_3 C 0.9244(3) 0.9769(3) 0.79337(18)
C4_3 C 0.8068(4) 0.9378(3) 0.8771(2)
C6_3 C 0.8765(4) 0.8913(3) 0.8650(2)
H2_3 H 0.8843 0.8452 0.8839
C8_3 C 0.9367(4) 0.9112(3) 0.8250(2)
H4_3 H 0.9863 0.8799 0.8191
C11_3 C 0.7439(4) 0.9168(3) 0.9225(2)
C13_3 C 0.9682(4) 0.8724(3) 0.7052(2)
H7_3 H 0.9174 0.8660 0.7263
C14_3 C 0.9862(4) 0.8206(4) 0.6648(2)
H8_3 H 0.9470 0.7796 0.6590
H19_3 H 0.815951 0.693725 0.963779
H20_4 H 0.198991 0.324223 0.0273302
H19_4 H 0.184049 0.306275 0.963779
H17_4 H 0.401881 0.881355 0.967305
C1_10 C 0.5000 0.5000 0.7459(3)
C2_4 C 0.4244(3) 0.5231(3) 0.70663(18)
C3_4 C 0.5239(3) 0.5668(3) 0.78504(18)
C4_4 C 0.3068(4) 0.5622(3) 0.6229(2)
C5_4 C 0.3513(4) 0.4773(3) 0.6956(2)
H1_4 H 0.3408 0.4334 0.7165
C6_4 C 0.3765(4) 0.6087(3) 0.6350(2)
H2_4 H 0.3843 0.6548 0.6161
C7_4 C 0.2931(4) 0.4953(3) 0.6539(2)
H3_4 H 0.2450 0.4630 0.6466
C8_4 C 0.4367(4) 0.5888(3) 0.6750(2)
H4_4 H 0.4863 0.6201 0.6809
O7_4 O 0.5274(4) 0.7884(3) 0.9159(2)
C9_4 C 0.6019(4) 0.5599(3) 0.8163(2)
H5_4 H 0.6421 0.5199 0.8096
C10_4 C 0.6186(4) 0.6132(3) 0.8572(2)
H6_4 H 0.6699 0.6086 0.8781
C11_4 C 0.2439(4) 0.5832(3) 0.5775(2)
C12_4 C 0.5594(4) 0.6728(3) 0.8670(2)
C13_4 C 0.4682(4) 0.6276(3) 0.7948(2)
H7_4 H 0.4174 0.6340 0.7737
C14_4 C 0.4862(4) 0.6794(4) 0.8352(2)
H8_4 H 0.4470 0.7204 0.8410
C15_4 C 0.5801(5) 0.7294(4) 0.9123(3)
C16_4 C 0.5756(3) 0.4769(3) 0.70663(18)
C17_4 C 0.4761(3) 0.4332(3) 0.78504(18)
C18_4 C 0.6932(4) 0.4378(3) 0.6229(2)
C19_4 C 0.6487(4) 0.5227(3) 0.6956(2)
H9_4 H 0.6592 0.5666 0.7165
C20_4 C 0.6235(4) 0.3913(3) 0.6350(2)
H10_4 H 0.6157 0.3452 0.6161
C21_4 C 0.7069(4) 0.5047(3) 0.6539(2)
H11_4 H 0.7550 0.5370 0.6466
C22_4 C 0.5633(4) 0.4112(3) 0.6750(2)
H12_4 H 0.5137 0.3799 0.6809
O12_4 O 0.4726(4) 0.2116(3) 0.9159(2)
C23_4 C 0.3981(4) 0.4401(3) 0.8163(2)
H13_4 H 0.3579 0.4801 0.8096
C24_4 C 0.3814(4) 0.3868(3) 0.8572(2)
H14_4 H 0.3301 0.3914 0.8781
C25_4 C 0.7561(4) 0.4168(3) 0.5775(2)
C26_4 C 0.4406(4) 0.3272(3) 0.8670(2)
C27_4 C 0.5318(4) 0.3724(3) 0.7948(2)
H15_4 H 0.5826 0.3660 0.7737
C28_4 C 0.5138(4) 0.3206(4) 0.8352(2)
H16_4 H 0.5530 0.2796 0.8410
C29_4 C 0.4199(5) 0.2706(4) 0.9123(3)
loop_
_geom_bond_atom_site_label_1
_geom_bond_atom_site_label_2
_geom_bond_site_symmetry_1
_geom_bond_site_symmetry_2
Ni1 O1 1_555 1_555
Ni2 O3 1_555 1_555
O3 Ni1 1_555 1_555
C1 C2 1_555 1_555
O4 Ni2 1_555 1_555
O5 Ni1 1_555 1_555
O6 Ni2 1_555 1_555
C4 C6 1_555 1_555
C6 H2 1_555 1_555
C8 C2 1_555 1_555
H4 C8 1_555 1_555
C11 O4 1_555 1_555
H7 C13 1_555 1_555
H8 C14 1_555 1_555
O13 Ni1 1_555 1_555
O5 C11 1_555 1_555
C4 C11 1_555 1_555
C6 C8 1_555 1_555
C13 C14 1_555 1_555
O1 H19 1_555 1_555
Ni1_2 O1_2 1_555 1_555
Ni2_2 O3_2 1_555 1_555
O3_2 Ni1_2 1_555 1_555
O14 Ni1_2 1_555 1_555
O15 Ni2_2 1_555 1_555
O16 Ni1_2 1_555 1_555
O17 Ni2_2 1_555 1_555
O1_2 H20 1_555 1_555
C5 H1 1_555 1_555
H3 C7 1_555 1_555
O9 C29 1_555 1_555
C17 C1_2 1_555 1_555
O12 C29 1_555 1_555
C23 C17 1_555 1_555
H13 C23 1_555 1_555
C24 C23 1_555 1_555
H14 C24 1_555 1_555
C26 C24 1_555 1_555
C29 C26 1_555 1_555
Ni5 O9 1_555 1_555
Ni7 O6_2 1_555 1_555
C5 C7 1_555 1_555
O8 H17 1_555 1_555
O8 H18 1_555 1_555
Ni7_2 O17_2 1_555 1_555
O8_2 H18_2 1_555 1_555
O2 C15 1_555 1_555
C3 C1_3 1_555 1_555
O7 C15 1_555 1_555
C9 C3 1_555 1_555
H5 C9 1_555 1_555
C10 C9 1_555 1_555
H6 C10 1_555 1_555
C12 C10 1_555 1_555
C15 C12 1_555 1_555
H9 C19 1_555 1_555
H11 C21 1_555 1_555
Ni4 O2 1_555 1_555
C19 C21 1_555 1_555
O10 C25 1_555 1_555
O11 C25 1_555 1_555
C16 C1_4 1_555 1_555
C18 C20 1_555 1_555
C20 H10 1_555 1_555
C22 C16 1_555 1_555
H12 C22 1_555 1_555
C25 C18 1_555 1_555
H15 C27 1_555 1_555
H16 C28 1_555 1_555
Ni3 O11 1_555 1_555
Ni7 O10 1_555 1_555
C20 C22 1_555 1_555
C27 C28 1_555 1_555
O8_3 H17_2 1_555 1_555
O8_3 H18_3 1_555 1_555
O8_4 H18_4 1_555 1_555
Ni3 O1_3 1_555 1_555
Ni7 O3_3 1_555 1_555
O3_3 Ni3 1_555 1_555
O13_2 Ni3 1_555 1_555
O1_3 H19_2 1_555 1_555
Ni3_2 O1_4 1_555 1_555
Ni7_2 O3_4 1_555 1_555
O3_4 Ni3_2 1_555 1_555
O14_2 Ni3_2 1_555 1_555
O15_2 Ni7_2 1_555 1_555
O16_2 Ni3_2 1_555 1_555
O1_4 H20_2 1_555 1_555
Ni7_3 O6_3 1_555 1_555
Ni7_3 O17_3 1_555 1_555
Ni4 O1_5 1_555 1_555
Ni2_3 O3_5 1_555 1_555
O13 C15_2 1_555 1_555
O3_5 Ni4 1_555 1_555
C1_5 C2_2 1_555 1_555
O4_2 Ni2_3 1_555 1_555
O5_2 Ni4 1_555 1_555
C2_2 C5_2 1_555 1_555
C3_2 C1_5 1_555 1_555
O6_4 Ni2_3 1_555 1_555
C4_2 C6_2 1_555 1_555
C5_2 H1_2 1_555 1_555
C6_2 H2_2 1_555 1_555
C7_2 C4_2 1_555 1_555
H3_2 C7_2 1_555 1_555
C8_2 C2_2 1_555 1_555
H4_2 C8_2 1_555 1_555
O7_2 C15_2 1_555 1_555
C9_2 C3_2 1_555 1_555
H5_2 C9_2 1_555 1_555
C10_2 C9_2 1_555 1_555
H6_2 C10_2 1_555 1_555
C11_2 O4_2 1_555 1_555
C12_2 C10_2 1_555 1_555
C13_2 C3_2 1_555 1_555
H7_2 C13_2 1_555 1_555
C14_2 C12_2 1_555 1_555
H8_2 C14_2 1_555 1_555
C15_2 C12_2 1_555 1_555
O8_5 Ni2_3 1_555 1_555
O13_2 C29_2 1_555 1_555
O10_2 C25_2 1_555 1_555
O11_2 C25_2 1_555 1_555
C16_2 C1_5 1_555 1_555
C17_2 C1_5 1_555 1_555
C18_2 C20_2 1_555 1_555
C19_2 C16_2 1_555 1_555
H9_2 C19_2 1_555 1_555
C20_2 H10_2 1_555 1_555
C21_2 C18_2 1_555 1_555
H11_2 C21_2 1_555 1_555
C22_2 C16_2 1_555 1_555
H12_2 C22_2 1_555 1_555
O12_2 C29_2 1_555 1_555
C23_2 C17_2 1_555 1_555
H13_2 C23_2 1_555 1_555
C24_2 C23_2 1_555 1_555
H14_2 C24_2 1_555 1_555
C25_2 C18_2 1_555 1_555
C26_2 C24_2 1_555 1_555
C27_2 C17_2 1_555 1_555
H15_2 C27_2 1_555 1_555
C28_2 C26_2 1_555 1_555
H16_2 C28_2 1_555 1_555
C29_2 C26_2 1_555 1_555
Ni5 O11_2 1_555 1_555
Ni7_3 O10_2 1_555 1_555
O14_3 Ni4 1_555 1_555
O15_3 Ni2_3 1_555 1_555
O16_3 Ni4 1_555 1_555
O17_4 Ni2_3 1_555 1_555
O5_2 C11_2 1_555 1_555
C4_2 C11_2 1_555 1_555
C5_2 C7_2 1_555 1_555
C6_2 C8_2 1_555 1_555
C13_2 C14_2 1_555 1_555
C19_2 C21_2 1_555 1_555
C20_2 C22_2 1_555 1_555
C27_2 C28_2 1_555 1_555
Ni5 O1_6 1_555 1_555
Ni7_3 O3_6 1_555 1_555
O3_6 Ni5 1_555 1_555
O8_6 Ni7_3 1_555 1_555
O14_4 Ni5 1_555 1_555
O15_4 Ni7_3 1_555 1_555
O16_4 Ni5 1_555 1_555
O15 C25_3 1_555 1_555
O16 C25_3 1_555 1_555
C16_3 C1_6 1_555 1_555
C18_3 C20_3 1_555 1_555
C20_3 H10_3 1_555 1_555
C22_3 C16_3 1_555 1_555
H12_3 C22_3 1_555 1_555
C25_3 C18_3 1_555 1_555
H15_3 C27_3 1_555 1_555
H16_3 C28_3 1_555 1_555
C20_3 C22_3 1_555 1_555
C27_3 C28_3 1_555 1_555
O14_4 C15_3 1_555 1_555
C3_3 C1_7 1_555 1_555
O7_3 C15_3 1_555 1_555
C9_3 C3_3 1_555 1_555
H5_3 C9_3 1_555 1_555
C10_3 C9_3 1_555 1_555
H6_3 C10_3 1_555 1_555
C12_3 C10_3 1_555 1_555
C15_3 C12_3 1_555 1_555
H9_3 C19_3 1_555 1_555
H11_3 C21_3 1_555 1_555
C19_3 C21_3 1_555 1_555
C5_3 H1_3 1_555 1_555
H3_3 C7_3 1_555 1_555
O14_3 C29_3 1_555 1_555
C17_3 C1_8 1_555 1_555
O12_3 C29_3 1_555 1_555
C23_3 C17_3 1_555 1_555
H13_3 C23_3 1_555 1_555
C24_3 C23_3 1_555 1_555
H14_3 C24_3 1_555 1_555
C26_3 C24_3 1_555 1_555
C29_3 C26_3 1_555 1_555
C5_3 C7_3 1_555 1_555
O8_4 H17_3 1_555 1_555
O1_3 H20_3 1_555 1_555
C1_9 C2_3 1_555 1_555
C4_3 C6_3 1_555 1_555
C6_3 H2_3 1_555 1_555
C8_3 C2_3 1_555 1_555
H4_3 C8_3 1_555 1_555
C11_3 O15_2 1_555 1_555
H7_3 C13_3 1_555 1_555
H8_3 C14_3 1_555 1_555
O16_2 C11_3 1_555 1_555
C4_3 C11_3 1_555 1_555
C6_3 C8_3 1_555 1_555
C13_3 C14_3 1_555 1_555
O1_4 H19_3 1_555 1_555
O1 H20_4 1_555 1_555
O1_2 H19_4 1_555 1_555
O8_2 H17_4 1_555 1_555
O14_2 C15_4 1_555 1_555
C1_10 C2_4 1_555 1_555
C2_4 C5_4 1_555 1_555
C3_4 C1_10 1_555 1_555
C4_4 C6_4 1_555 1_555
C5_4 H1_4 1_555 1_555
C6_4 H2_4 1_555 1_555
C7_4 C4_4 1_555 1_555
H3_4 C7_4 1_555 1_555
C8_4 C2_4 1_555 1_555
H4_4 C8_4 1_555 1_555
O7_4 C15_4 1_555 1_555
C9_4 C3_4 1_555 1_555
H5_4 C9_4 1_555 1_555
C10_4 C9_4 1_555 1_555
H6_4 C10_4 1_555 1_555
C11_4 O15_4 1_555 1_555
C12_4 C10_4 1_555 1_555
C13_4 C3_4 1_555 1_555
H7_4 C13_4 1_555 1_555
C14_4 C12_4 1_555 1_555
H8_4 C14_4 1_555 1_555
C15_4 C12_4 1_555 1_555
O14 C29_4 1_555 1_555
O15_3 C25_4 1_555 1_555
O16_3 C25_4 1_555 1_555
C16_4 C1_10 1_555 1_555
C17_4 C1_10 1_555 1_555
C18_4 C20_4 1_555 1_555
C19_4 C16_4 1_555 1_555
H9_4 C19_4 1_555 1_555
C20_4 H10_4 1_555 1_555
C21_4 C18_4 1_555 1_555
H11_4 C21_4 1_555 1_555
C22_4 C16_4 1_555 1_555
H12_4 C22_4 1_555 1_555
O12_4 C29_4 1_555 1_555
C23_4 C17_4 1_555 1_555
H13_4 C23_4 1_555 1_555
C24_4 C23_4 1_555 1_555
H14_4 C24_4 1_555 1_555
C25_4 C18_4 1_555 1_555
C26_4 C24_4 1_555 1_555
C27_4 C17_4 1_555 1_555
H15_4 C27_4 1_555 1_555
C28_4 C26_4 1_555 1_555
H16_4 C28_4 1_555 1_555
C29_4 C26_4 1_555 1_555
O16_4 C11_4 1_555 1_555
C4_4 C11_4 1_555 1_555
C5_4 C7_4 1_555 1_555
C6_4 C8_4 1_555 1_555
C13_4 C14_4 1_555 1_555
C19_4 C21_4 1_555 1_555
C20_4 C22_4 1_555 1_555
C27_4 C28_4 1_555 1_555

#END
