
###############################################################################
#
# This file contains modified crystal structure data generated from the
# MOF subset of the Cambridge Structural Database (CSD) v543 
# hosted by the Cambridge Crystallographic Data Centre (CCDC).
#
# This work is licensed under the Creative Commons
# Attribution-NonCommercial-ShareAlike 4.0 International License.
# To view a copy of this license, visit
# http://creativecommons.org/licenses/by-nc-sa/4.0/
# or send a letter to
# Creative Commons, PO Box 1866, Mountain View, CA 94042, USA.
#
# CIF created using the CSD Python API on 29 September 2022
# The structure has been converted into the P1 space group
# The structure has a 3D framework
# The original CSD entry XITMUK is in the triclinic crystal system
# The framework has been calculated to contain at least 10.0% void space
# The void calculation uses a probe of radius 1.32A, grid spacing 0.4
#
###############################################################################

data_XITMUK
_chemical_formula_moiety         '(C92 H56 Co5 F24 N4 O18)n'
_symmetry_cell_setting           triclinic
_symmetry_space_group_name_H-M   'P 1'
_symmetry_Int_Tables_number      1
_space_group_name_Hall           'P 1'
loop_
_symmetry_equiv_pos_site_id
_symmetry_equiv_pos_as_xyz
1 x,y,z
_cell_length_a                   15.792(5)
_cell_length_b                   15.821(5)
_cell_length_c                   18.031(6)
_cell_angle_alpha                100.763(4)
_cell_angle_beta                 100.701(2)
_cell_angle_gamma                100.779(3)
_cell_volume                     4232.5
loop_
_atom_site_label
_atom_site_type_symbol
_atom_site_fract_x
_atom_site_fract_y
_atom_site_fract_z
_atom_site_U_iso_or_equiv
_atom_site_thermal_displace_type
Co1 Co 0.31541(3) 0.32224(3) 0.45151(3) 0.0456 Uani
Co3 Co 0.36773(3) 0.37306(3) 0.30024(3) 0.0499 Uani
F1 F 0.1801(2) 0.7922(3) 0.9030(2) 0.1686 Uani
F2 F 0.2286(2) 0.8021(3) 0.7987(3) 0.1337 Uani
O4 O 0.3944(2) 0.4177(2) 0.41033(15) 0.0937 Uani
O5 O 0.29370(17) 0.42343(19) 0.53230(16) 0.0649 Uani
O6 O 0.3904(3) 0.2544(2) 0.2756(2) 0.0914 Uani
F3 F 0.3090(2) 0.7693(3) 0.8975(2) 0.1669 Uani
N1 N 0.22350(19) 0.2283(2) 0.48474(17) 0.0557 Uani
C1 C 0.3023(2) 0.5381(3) 0.6378(2) 0.0554 Uani
O7 O 0.3296(2) 0.21329(18) 0.36847(18) 0.0746 Uani
C4 C 0.2158(3) 0.4970(3) 0.6447(3) 0.0715 Uani
H2 H 0.1840 0.4436 0.6116 0.0860 Uiso
C5 C 0.3120(3) 0.6573(3) 0.7472(3) 0.0806 Uani
H3 H 0.3443 0.7103 0.7808 0.0970 Uiso
C6 C 0.0606(3) 0.6689(4) 0.7177(3) 0.0844 Uani
H4 H 0.1040 0.6828 0.6906 0.1020 Uiso
C7 C 0.2277(3) 0.6183(3) 0.7547(3) 0.0699 Uani
N2 N 0.4139(3) 0.4290(3) 0.2183(2) 0.0904 Uani
C11 C 0.1749(4) 0.0852(3) 0.5079(3) 0.0948 Uani
H6 H 0.1872 0.0307 0.5116 0.1140 Uiso
C13 C 0.0764(3) 0.1820(4) 0.5079(3) 0.0959 Uani
H8 H 0.0213 0.1933 0.5108 0.1150 Uiso
C15 C 0.3396(2) 0.4924(2) 0.5744(2) 0.0513 Uani
O8 O 0.41434(19) 0.52744(19) 0.5703(2) 0.0853 Uani
C16 C 0.4640(5) 0.4889(6) 0.0926(3) 0.1535 Uani
C17 C 0.3882(4) 0.0779(3) 0.2111(3) 0.1062 Uani
H9 H 0.4079 0.1207 0.1852 0.1270 Uiso
C19 C 0.3469(3) 0.6156(3) 0.6886(3) 0.0671 Uani
H10 H 0.4029 0.6418 0.6841 0.0800 Uiso
C21 C 0.3623(3) 0.1035(3) 0.2799(2) 0.0703 Uani
C23 C 0.1813(3) 0.5400(4) 0.7027(3) 0.0824 Uani
H13 H 0.1247 0.5150 0.7068 0.0990 Uiso
C24 C 0.0971(4) 0.0986(4) 0.5176(3) 0.0991 Uani
C27 C 0.3378(3) 0.0377(3) 0.3188(3) 0.0818 Uani
H16 H 0.3202 0.0525 0.3650 0.0980 Uiso
C28 C 0.2405(3) 0.1493(3) 0.4922(3) 0.0714 Uani
H17 H 0.2948 0.1372 0.4870 0.0860 Uiso
C29 C 0.5113(4) 0.5119(5) 0.1602(4) 0.1158 Uani
H18 H 0.5669 0.5494 0.1692 0.1390 Uiso
C31 C 0.1451(3) 0.2462(3) 0.4937(2) 0.0690 Uani
H19 H 0.1353 0.3017 0.4906 0.0830 Uiso
C33 C 0.0273(4) 0.0297(4) 0.5341(3) 0.1273 Uani
C34 C 0.1848(3) 0.6580(5) 0.8193(3) 0.1028 Uani
C35 C 0.0839(3) 0.6485(4) 0.7867(3) 0.0800 Uani
C36 C 0.2289(4) 0.7557(5) 0.8567(4) 0.1126 Uani
C37 C 0.4832(4) 0.4828(5) 0.2248(4) 0.1258 Uani
H22 H 0.5197 0.5061 0.2741 0.1510 Uiso
C38 C 0.3593(3) 0.1977(3) 0.3112(2) 0.0638 Uani
C39 C 0.3804(8) 0.4573(10) 0.0899(5) 0.3244 Uani
H23 H 0.3380 0.4574 0.0467 0.3880 Uiso
C41 C 0.0201(4) 0.6286(5) 0.8264(3) 0.1248 Uani
H25 H 0.0359 0.6156 0.8746 0.1500 Uiso
F4 F 0.2854(2) 0.6007(4) 0.9008(2) 0.1913 Uani
F6 F 0.1489(3) 0.5182(4) 0.8591(3) 0.1459 Uani
F8 F 0.1823(3) 0.6424(4) 0.9489(2) 0.1895 Uani
C43 C 0.1943(5) 0.5931(9) 0.8779(4) 0.1597 Uani
C44 C 0.3514(7) 0.4212(7) 0.1539(4) 0.2179 Uani
H26 H 0.2925 0.3944 0.1496 0.2610 Uiso
C46 C 0.4853(8) 0.5295(7) 0.0195(7) 0.2154 Uani
H28 H 0.5292 0.5850 0.0372 0.2580 Uiso
H39 H 0.5680 0.4610 0.0112 0.2580 Uiso
Co12 Co 0.5000 0.5000 0.5000 0.0357 Uani
O20 O 0.20383(16) 0.33636(19) 0.37141(15) 0.0644 Uani
O22 O 0.2427(2) 0.3757(3) 0.26907(19) 0.0920 Uani
O24 O 0.41387(18) 0.29656(19) 0.52945(18) 0.0735 Uani
H27 H 0.4320 0.5390 0.9888 0.2580 Uiso
N4 N 0.5861(3) 0.5710(3) 0.7817(2) 0.0904 Uani
C53 C 0.5360(5) 0.5111(6) 0.9074(3) 0.1535 Uani
C54 C 0.4887(4) 0.4881(5) 0.8398(4) 0.1158 Uani
H35 H 0.4331 0.4506 0.8308 0.1390 Uiso
C55 C 0.5168(4) 0.5172(5) 0.7752(4) 0.1258 Uani
H36 H 0.4803 0.4939 0.7259 0.1510 Uiso
C56 C 0.6196(8) 0.5427(10) 0.9101(5) 0.3244 Uani
H37 H 0.6620 0.5426 0.9533 0.3880 Uiso
C57 C 0.6486(7) 0.5788(7) 0.8461(4) 0.2179 Uani
H38 H 0.7075 0.6056 0.8504 0.2610 Uiso
C58 C 0.5147(8) 0.4705(7) 0.9805(7) 0.2154 Uani
H40 H 0.4708 0.4150 0.9628 0.2580 Uiso
Co15 Co 0.63227(3) 0.62694(3) 0.69976(3) 0.0499 Uani
O3 O 0.58613(18) 0.70344(19) 0.47055(18) 0.0735 Uani
C2 C 0.3895(4) 0.7817(3) 0.2546(3) 0.0785 Uani
C3 C 0.3505(4) 0.6975(3) 0.2609(3) 0.0828 Uani
H1 H 0.2983 0.6656 0.2258 0.0990 Uiso
C9 C 0.4719(4) 0.8273(3) 0.3082(3) 0.0845 Uani
H5 H 0.5003 0.8830 0.3046 0.1020 Uiso
C10 C 0.4703(3) 0.7065(2) 0.3719(2) 0.0572 Uani
C14 C 0.3635(4) 0.9259(3) 0.2208(3) 0.0895 Uani
O9 O 0.46714(18) 0.59670(19) 0.4440(2) 0.0870 Uani
C22 C 0.5088(3) 0.7888(3) 0.3648(3) 0.0715 Uani
H12 H 0.5616 0.8197 0.3994 0.0860 Uiso
C25 C 0.3393(3) 0.9523(3) 0.2903(3) 0.0763 Uani
H14 H 0.3236 0.9102 0.3181 0.0920 Uiso
C26 C 0.3889(3) 0.6609(3) 0.3194(3) 0.0758 Uani
H15 H 0.3608 0.6056 0.3241 0.0900 Uiso
C30 C 0.3531(5) 0.8244(4) 0.1884(3) 0.1035 Uani
C32 C 0.5105(2) 0.6658(2) 0.4339(2) 0.0520 Uani
H20 H 0.0561 0.9965 0.5669 0.1530 Uiso
C40 C 0.3854(5) 0.9898(4) 0.1801(3) 0.1223 Uani
H24 H 0.3982 0.9736 0.1319 0.1470 Uiso
F5 F 0.4912(5) 0.8579(4) 0.1513(3) 0.1729 Uani
F7 F 0.2084(3) 0.7804(3) 0.2031(3) 0.1384 Uani
F9 F 0.2408(4) 0.6968(2) 0.1108(2) 0.1694 Uani
F10 F 0.4138(5) 0.7241(3) 0.1087(2) 0.2189 Uani
F11 F 0.2226(3) 0.8302(3) 0.1025(2) 0.1781 Uani
C42 C 0.2559(6) 0.7844(5) 0.1528(4) 0.1144 Uani
F12 F 0.3767(5) 0.8294(3) 0.0611(2) 0.2146 Uani
C45 C 0.4094(10) 0.8101(7) 0.1273(5) 0.1799 Uani
H34 H 0.0096 0.9407 0.4377 0.1530 Uiso
C66 C 0.0913(3) 0.3549(3) 0.2744(2) 0.0721 Uani
C69 C 0.0284(3) 0.3302(3) 0.3154(3) 0.0735 Uani
H46 H 0.0435 0.3138 0.3621 0.0880 Uiso
C73 C 0.1870(3) 0.3541(3) 0.3079(2) 0.0611 Uani
C75 C 0.0677(3) 0.3728(5) 0.2036(3) 0.1120 Uani
H49 H 0.1102 0.3858 0.1754 0.1340 Uiso
Co9 Co 0.68459(3) 0.67776(3) 0.54849(3) 0.0456 Uani
O26 O 0.6056(2) 0.5823(2) 0.58967(15) 0.0937 Uani
O28 O 0.58566(19) 0.47256(19) 0.4297(2) 0.0853 Uani
O29 O 0.53286(18) 0.40330(19) 0.5560(2) 0.0870 Uani
O1 O 0.79617(16) 0.66364(19) 0.62859(15) 0.0644 Uani
O2 O 0.7573(2) 0.6243(3) 0.73093(19) 0.0920 Uani
C8 C 0.9087(3) 0.6451(3) 0.7256(2) 0.0721 Uani
C12 C 0.9716(3) 0.6698(3) 0.6846(3) 0.0735 Uani
H7 H 0.9565 0.6862 0.6379 0.0880 Uiso
C18 C 0.8130(3) 0.6459(3) 0.6921(2) 0.0611 Uani
C20 C 0.9323(3) 0.6272(5) 0.7964(3) 0.1120 Uani
H11 H 0.8898 0.6142 0.8246 0.1340 Uiso
H21 H 0.9904 0.0593 0.5623 0.1530 Uiso
H33 H 0.9439 0.0035 0.4331 0.1530 Uiso
C60 C 0.6105(4) 0.2183(3) 0.7454(3) 0.0785 Uani
C61 C 0.6495(4) 0.3025(3) 0.7391(3) 0.0828 Uani
H41 H 0.7017 0.3344 0.7742 0.0990 Uiso
C67 C 0.5281(4) 0.1727(3) 0.6918(3) 0.0845 Uani
H45 H 0.4997 0.1170 0.6954 0.1020 Uiso
C68 C 0.5297(3) 0.2935(2) 0.6281(2) 0.0572 Uani
C70 C 0.6365(4) 0.0741(3) 0.7792(3) 0.0895 Uani
C77 C 0.4912(3) 0.2112(3) 0.6352(3) 0.0715 Uani
H50 H 0.4384 0.1803 0.6006 0.0860 Uiso
C79 C 0.6607(3) 0.0477(3) 0.7097(3) 0.0763 Uani
H52 H 0.6764 0.0898 0.6819 0.0920 Uiso
C80 C 0.6111(3) 0.3391(3) 0.6806(3) 0.0758 Uani
H53 H 0.6392 0.3944 0.6759 0.0900 Uiso
C82 C 0.6469(5) 0.1756(4) 0.8116(3) 0.1035 Uani
C83 C 0.4895(2) 0.3342(2) 0.5661(2) 0.0520 Uani
C88 C 0.6146(5) 0.0102(4) 0.8199(3) 0.1223 Uani
H55 H 0.6018 0.0264 0.8681 0.1470 Uiso
F17 F 0.5088(5) 0.1421(4) 0.8487(3) 0.1729 Uani
F19 F 0.7916(3) 0.2196(3) 0.7969(3) 0.1384 Uani
F21 F 0.7592(4) 0.3032(2) 0.8892(2) 0.1694 Uani
F22 F 0.5862(5) 0.2759(3) 0.8913(2) 0.2189 Uani
F23 F 0.7774(3) 0.1698(3) 0.8975(2) 0.1781 Uani
C90 C 0.7441(6) 0.2156(5) 0.8472(4) 0.1144 Uani
F24 F 0.6233(5) 0.1706(3) 0.9389(2) 0.2146 Uani
C92 C 0.5906(10) 0.1899(7) 0.8727(5) 0.1799 Uani
N3 N 0.77650(19) 0.7717(2) 0.51526(17) 0.0557 Uani
C47 C 0.8251(4) 0.9148(3) 0.4921(3) 0.0948 Uani
H29 H 0.8128 0.9693 0.4884 0.1140 Uiso
C48 C 0.9236(3) 0.8180(4) 0.4921(3) 0.0959 Uani
H30 H 0.9787 0.8067 0.4892 0.1150 Uiso
C49 C 0.9029(4) 0.9014(4) 0.4824(3) 0.0991 Uani
C50 C 0.7595(3) 0.8507(3) 0.5078(3) 0.0714 Uani
H31 H 0.7052 0.8628 0.5130 0.0860 Uiso
C51 C 0.8549(3) 0.7538(3) 0.5063(2) 0.0690 Uani
H32 H 0.8647 0.6983 0.5094 0.0830 Uiso
C52 C 0.9727(4) 0.9703(4) 0.4659(3) 0.1273 Uani
F13 F 0.8199(2) 0.2078(3) 0.0970(2) 0.1686 Uani
F14 F 0.7714(2) 0.1979(3) 0.2013(3) 0.1337 Uani
O14 O 0.70630(17) 0.57657(19) 0.46770(16) 0.0649 Uani
O15 O 0.6096(3) 0.7456(2) 0.7244(2) 0.0914 Uani
F15 F 0.6910(2) 0.2307(3) 0.1025(2) 0.1669 Uani
C59 C 0.6977(2) 0.4619(3) 0.3622(2) 0.0554 Uani
O16 O 0.6704(2) 0.78671(18) 0.63153(18) 0.0746 Uani
C62 C 0.7842(3) 0.5030(3) 0.3553(3) 0.0715 Uani
H42 H 0.8160 0.5564 0.3884 0.0860 Uiso
C63 C 0.6880(3) 0.3427(3) 0.2528(3) 0.0806 Uani
H43 H 0.6557 0.2897 0.2192 0.0970 Uiso
C64 C 0.9394(3) 0.3311(4) 0.2823(3) 0.0844 Uani
H44 H 0.8960 0.3172 0.3094 0.1020 Uiso
C65 C 0.7723(3) 0.3817(3) 0.2453(3) 0.0699 Uani
C71 C 0.6604(2) 0.5076(2) 0.4256(2) 0.0513 Uani
C72 C 0.6118(4) 0.9221(3) 0.7889(3) 0.1062 Uani
H47 H 0.5921 0.8793 0.8148 0.1270 Uiso
C74 C 0.6531(3) 0.3844(3) 0.3114(3) 0.0671 Uani
H48 H 0.5971 0.3582 0.3159 0.0800 Uiso
C76 C 0.6377(3) 0.8965(3) 0.7201(2) 0.0703 Uani
C78 C 0.8187(3) 0.4600(4) 0.2973(3) 0.0824 Uani
H51 H 0.8753 0.4850 0.2932 0.0990 Uiso
C81 C 0.6622(3) 0.9623(3) 0.6812(3) 0.0818 Uani
H54 H 0.6798 0.9475 0.6350 0.0980 Uiso
C84 C 0.8152(3) 0.3420(5) 0.1807(3) 0.1028 Uani
C85 C 0.9161(3) 0.3515(4) 0.2133(3) 0.0800 Uani
C86 C 0.7711(4) 0.2443(5) 0.1433(4) 0.1126 Uani
C87 C 0.6407(3) 0.8023(3) 0.6888(2) 0.0638 Uani
C89 C 0.9799(4) 0.3714(5) 0.1736(3) 0.1248 Uani
H56 H 0.9641 0.3844 0.1254 0.1500 Uiso
F16 F 0.7146(2) 0.3993(4) 0.0992(2) 0.1913 Uani
F18 F 0.8511(3) 0.4818(4) 0.1409(3) 0.1459 Uani
F20 F 0.8177(3) 0.3576(4) 0.0511(2) 0.1895 Uani
C91 C 0.8057(5) 0.4069(9) 0.1221(4) 0.1597 Uani
loop_
_atom_site_aniso_label
_atom_site_aniso_U_11
_atom_site_aniso_U_22
_atom_site_aniso_U_33
_atom_site_aniso_U_23
_atom_site_aniso_U_13
_atom_site_aniso_U_12
Co1 0.042 0.0469 0.0433 0.014 0.01368 -0.0084
Co3 0.0541 0.0547 0.0487 0.0231 0.0242 0.0082
F1 0.116 0.234 0.127 -0.065 0.039 0.065
F2 0.102 0.127 0.156 -0.017 0.027 0.039
O4 0.098 0.102 0.0449 0.0177 0.0123 -0.0624
O5 0.0499 0.0741 0.0617 -0.0013 0.0279 -0.0061
O6 0.151 0.079 0.085 0.0443 0.064 0.064
F3 0.086 0.254 0.107 -0.067 -0.009 0.047
N1 0.0462 0.063 0.0461 0.0164 0.0109 -0.0205
C1 0.043 0.066 0.065 0.017 0.0264 0.016
O7 0.094 0.0497 0.084 0.0096 0.0481 0.0043
C4 0.051 0.082 0.083 0.014 0.032 0.007
C5 0.067 0.099 0.073 -0.002 0.025 0.025
C6 0.068 0.132 0.064 0.023 0.033 0.031
C7 0.05 0.103 0.059 0.007 0.0119 0.035
N2 0.088 0.117 0.047 0.026 0.0199 -0.035
C11 0.119 0.05 0.11 0.026 0.045 -0.02
C13 0.074 0.096 0.106 0.022 0.037 -0.024
C15 0.047 0.039 0.072 0.0136 0.0235 0.0089
O8 0.0592 0.07 0.117 -0.0158 0.0585 -0.0099
C16 0.156 0.201 0.065 0.05 0.026 -0.073
C17 0.203 0.086 0.081 0.046 0.074 0.091
C19 0.041 0.084 0.078 0.011 0.022 0.018
C21 0.099 0.07 0.059 0.027 0.027 0.04
C23 0.053 0.127 0.09 0.036 0.047 0.035
C24 0.097 0.089 0.104 0.039 0.038 -0.028
C27 0.117 0.073 0.069 0.034 0.033 0.026
C28 0.081 0.048 0.081 0.018 0.033 -0.013
C29 0.104 0.153 0.098 0.068 0.038 -0.006
C31 0.044 0.081 0.071 0.013 0.0192 -0.014
C33 0.121 0.127 0.106 0.03 0.034 -0.051
C34 0.065 0.197 0.067 0.029 0.029 0.068
C35 0.059 0.143 0.053 0.021 0.023 0.051
C36 0.078 0.136 0.106 -0.028 0.019 0.039
C37 0.073 0.207 0.106 0.1 0.024 -0.014
C38 0.079 0.071 0.053 0.024 0.025 0.026
C39 0.244 0.52 0.085 0.078 0.021 -0.208
C41 0.1 0.254 0.067 0.073 0.04 0.098
F4 0.113 0.418 0.107 0.108 0.037 0.158
F6 0.13 0.235 0.137 0.102 0.072 0.099
F8 0.135 0.406 0.064 0.056 0.038 0.134
C43 0.091 0.376 0.077 0.103 0.046 0.135
C44 0.219 0.31 0.076 0.042 0.051 -0.073
C46 0.249 0.213 0.327 0.18 0.225 0.126
Co12 0.0305 0.0341 0.0444 0.0152 0.0129 0.0014
O20 0.0464 0.088 0.0603 0.0323 0.0086 0.0074
O22 0.072 0.162 0.084 0.069 0.0451 0.062
O24 0.0529 0.073 0.09 0.0484 -0.0007 -0.0092
N4 0.088 0.117 0.047 0.026 0.0199 -0.035
C53 0.156 0.201 0.065 0.05 0.026 -0.073
C54 0.104 0.153 0.098 0.068 0.038 -0.006
C55 0.073 0.207 0.106 0.1 0.024 -0.014
C56 0.244 0.52 0.085 0.078 0.021 -0.208
C57 0.219 0.31 0.076 0.042 0.051 -0.073
C58 0.249 0.213 0.327 0.18 0.225 0.126
Co15 0.0541 0.0547 0.0487 0.0231 0.0242 0.0082
O3 0.0529 0.073 0.09 0.0484 -0.0007 -0.0092
C2 0.111 0.076 0.062 0.033 0.016 0.041
C3 0.108 0.049 0.081 0.014 -0.009 0.024
C9 0.107 0.066 0.097 0.051 0.023 0.028
C10 0.066 0.051 0.068 0.03 0.0232 0.022
C14 0.153 0.077 0.063 0.035 0.032 0.06
O9 0.0545 0.0652 0.138 0.068 -0.0104 -0.0069
C22 0.076 0.063 0.083 0.038 0.018 0.013
C25 0.115 0.07 0.058 0.031 0.025 0.034
C26 0.093 0.048 0.079 0.019 0 0.013
C30 0.182 0.092 0.063 0.032 0.026 0.084
C32 0.045 0.047 0.071 0.026 0.0168 0.012
C40 0.258 0.091 0.07 0.046 0.08 0.098
F5 0.322 0.152 0.139 0.081 0.152 0.139
F7 0.119 0.11 0.164 0.036 -0.031 0.03
F9 0.28 0.094 0.096 -0.005 -0.042 0.061
F10 0.516 0.116 0.111 0.055 0.147 0.18
F11 0.253 0.148 0.121 0.046 -0.051 0.094
C42 0.153 0.094 0.086 0.024 -0.016 0.043
F12 0.484 0.148 0.062 0.039 0.079 0.164
C45 0.41 0.118 0.072 0.04 0.092 0.153
C66 0.063 0.12 0.055 0.036 0.0228 0.049
C69 0.064 0.109 0.061 0.026 0.024 0.037
C73 0.056 0.084 0.059 0.03 0.0234 0.031
C75 0.081 0.229 0.072 0.075 0.043 0.082
Co9 0.042 0.0469 0.0433 0.014 0.01368 -0.0084
O26 0.098 0.102 0.0449 0.0177 0.0123 -0.0624
O28 0.0592 0.07 0.117 -0.0158 0.0585 -0.0099
O29 0.0545 0.0652 0.138 0.068 -0.0104 -0.0069
O1 0.0464 0.088 0.0603 0.0323 0.0086 0.0074
O2 0.072 0.162 0.084 0.069 0.0451 0.062
C8 0.063 0.12 0.055 0.036 0.0228 0.049
C12 0.064 0.109 0.061 0.026 0.024 0.037
C18 0.056 0.084 0.059 0.03 0.0234 0.031
C20 0.081 0.229 0.072 0.075 0.043 0.082
C60 0.111 0.076 0.062 0.033 0.016 0.041
C61 0.108 0.049 0.081 0.014 -0.009 0.024
C67 0.107 0.066 0.097 0.051 0.023 0.028
C68 0.066 0.051 0.068 0.03 0.0232 0.022
C70 0.153 0.077 0.063 0.035 0.032 0.06
C77 0.076 0.063 0.083 0.038 0.018 0.013
C79 0.115 0.07 0.058 0.031 0.025 0.034
C80 0.093 0.048 0.079 0.019 0 0.013
C82 0.182 0.092 0.063 0.032 0.026 0.084
C83 0.045 0.047 0.071 0.026 0.0168 0.012
C88 0.258 0.091 0.07 0.046 0.08 0.098
F17 0.322 0.152 0.139 0.081 0.152 0.139
F19 0.119 0.11 0.164 0.036 -0.031 0.03
F21 0.28 0.094 0.096 -0.005 -0.042 0.061
F22 0.516 0.116 0.111 0.055 0.147 0.18
F23 0.253 0.148 0.121 0.046 -0.051 0.094
C90 0.153 0.094 0.086 0.024 -0.016 0.043
F24 0.484 0.148 0.062 0.039 0.079 0.164
C92 0.41 0.118 0.072 0.04 0.092 0.153
N3 0.0462 0.063 0.0461 0.0164 0.0109 -0.0205
C47 0.119 0.05 0.11 0.026 0.045 -0.02
C48 0.074 0.096 0.106 0.022 0.037 -0.024
C49 0.097 0.089 0.104 0.039 0.038 -0.028
C50 0.081 0.048 0.081 0.018 0.033 -0.013
C51 0.044 0.081 0.071 0.013 0.0192 -0.014
C52 0.121 0.127 0.106 0.03 0.034 -0.051
F13 0.116 0.234 0.127 -0.065 0.039 0.065
F14 0.102 0.127 0.156 -0.017 0.027 0.039
O14 0.0499 0.0741 0.0617 -0.0013 0.0279 -0.0061
O15 0.151 0.079 0.085 0.0443 0.064 0.064
F15 0.086 0.254 0.107 -0.067 -0.009 0.047
C59 0.043 0.066 0.065 0.017 0.0264 0.016
O16 0.094 0.0497 0.084 0.0096 0.0481 0.0043
C62 0.051 0.082 0.083 0.014 0.032 0.007
C63 0.067 0.099 0.073 -0.002 0.025 0.025
C64 0.068 0.132 0.064 0.023 0.033 0.031
C65 0.05 0.103 0.059 0.007 0.0119 0.035
C71 0.047 0.039 0.072 0.0136 0.0235 0.0089
C72 0.203 0.086 0.081 0.046 0.074 0.091
C74 0.041 0.084 0.078 0.011 0.022 0.018
C76 0.099 0.07 0.059 0.027 0.027 0.04
C78 0.053 0.127 0.09 0.036 0.047 0.035
C81 0.117 0.073 0.069 0.034 0.033 0.026
C84 0.065 0.197 0.067 0.029 0.029 0.068
C85 0.059 0.143 0.053 0.021 0.023 0.051
C86 0.078 0.136 0.106 -0.028 0.019 0.039
C87 0.079 0.071 0.053 0.024 0.025 0.026
C89 0.1 0.254 0.067 0.073 0.04 0.098
F16 0.113 0.418 0.107 0.108 0.037 0.158
F18 0.13 0.235 0.137 0.102 0.072 0.099
F20 0.135 0.406 0.064 0.056 0.038 0.134
C91 0.091 0.376 0.077 0.103 0.046 0.135
loop_
_geom_bond_atom_site_label_1
_geom_bond_atom_site_label_2
_geom_bond_site_symmetry_1
_geom_bond_site_symmetry_2
Co1 O4 1_555 1_555
Co3 O4 1_555 1_555
F1 C36 1_555 1_555
F2 C36 1_555 1_555
O4 Co12 1_555 1_555
O5 Co1 1_555 1_555
O6 Co3 1_555 1_555
F3 C36 1_555 1_555
N1 Co1 1_555 1_555
C1 C4 1_555 1_555
O7 Co1 1_555 1_555
C4 H2 1_555 1_555
C5 H3 1_555 1_555
C6 H4 1_555 1_555
C7 C5 1_555 1_555
N2 Co3 1_555 1_555
C11 H6 1_555 1_555
C13 H8 1_555 1_555
C15 O5 1_555 1_555
O8 C15 1_555 1_555
C16 C29 1_555 1_555
C17 H9 1_555 1_555
C19 C1 1_555 1_555
H10 C19 1_555 1_555
C21 C17 1_555 1_555
C23 C4 1_555 1_555
H13 C23 1_555 1_555
C24 C11 1_555 1_555
C27 C21 1_555 1_555
H16 C27 1_555 1_555
C28 N1 1_555 1_555
H17 C28 1_555 1_555
C29 H18 1_555 1_555
C31 N1 1_555 1_555
H19 C31 1_555 1_555
C33 C24 1_555 1_555
C34 C7 1_555 1_555
C35 C6 1_555 1_555
C36 C34 1_555 1_555
C37 N2 1_555 1_555
H22 C37 1_555 1_555
C38 O6 1_555 1_555
C39 C16 1_555 1_555
H23 C39 1_555 1_555
H25 C41 1_555 1_555
F4 C43 1_555 1_555
F6 C43 1_555 1_555
F8 C43 1_555 1_555
C43 C34 1_555 1_555
C44 N2 1_555 1_555
H26 C44 1_555 1_555
C46 C16 1_555 1_555
H28 C46 1_555 1_555
Co12 O8 1_555 1_555
O20 Co1 1_555 1_555
O22 Co3 1_555 1_555
O24 Co1 1_555 1_555
C1 C15 1_555 1_555
O7 C38 1_555 1_555
C5 C19 1_555 1_555
C7 C23 1_555 1_555
C11 C28 1_555 1_555
C13 C24 1_555 1_555
C13 C31 1_555 1_555
C21 C38 1_555 1_555
C29 C37 1_555 1_555
C34 C35 1_555 1_555
C35 C41 1_555 1_555
C39 C44 1_555 1_555
N4 C55 1_555 1_555
C53 C54 1_555 1_555
C54 H35 1_555 1_555
C55 C54 1_555 1_555
H36 C55 1_555 1_555
C56 C53 1_555 1_555
H37 C56 1_555 1_555
C57 N4 1_555 1_555
H38 C57 1_555 1_555
H40 C58 1_555 1_555
Co15 N4 1_555 1_555
C53 C58 1_555 1_555
C56 C57 1_555 1_555
Co12 O9 1_555 1_555
O3 C32 1_555 1_555
C2 C3 1_555 1_555
C3 H1 1_555 1_555
C9 C2 1_555 1_555
H5 C9 1_555 1_555
C10 C22 1_555 1_555
C14 C25 1_555 1_555
O9 C32 1_555 1_555
C22 C9 1_555 1_555
H12 C22 1_555 1_555
C25 H14 1_555 1_555
C26 C3 1_555 1_555
H15 C26 1_555 1_555
C30 C2 1_555 1_555
C32 C10 1_555 1_555
C40 C14 1_555 1_555
H24 C40 1_555 1_555
F5 C45 1_555 1_555
F7 C42 1_555 1_555
F9 C42 1_555 1_555
F10 C45 1_555 1_555
F11 C42 1_555 1_555
C42 C30 1_555 1_555
F12 C45 1_555 1_555
C45 C30 1_555 1_555
O20 C73 1_555 1_555
O22 C73 1_555 1_555
C66 C69 1_555 1_555
H46 C69 1_555 1_555
C73 C66 1_555 1_555
C75 C66 1_555 1_555
H49 C75 1_555 1_555
Co9 O3 1_555 1_555
O26 Co12 1_555 1_555
O28 Co12 1_555 1_555
O29 Co12 1_555 1_555
C10 C26 1_555 1_555
C14 C30 1_555 1_555
Co9 O26 1_555 1_555
O1 C18 1_555 1_555
O2 C18 1_555 1_555
C8 C12 1_555 1_555
H7 C12 1_555 1_555
C18 C8 1_555 1_555
C20 C8 1_555 1_555
H11 C20 1_555 1_555
O24 C83 1_555 1_555
C60 C61 1_555 1_555
C61 H41 1_555 1_555
C67 C60 1_555 1_555
H45 C67 1_555 1_555
C68 C77 1_555 1_555
C70 C79 1_555 1_555
O29 C83 1_555 1_555
C77 C67 1_555 1_555
H50 C77 1_555 1_555
C79 H52 1_555 1_555
C80 C61 1_555 1_555
H53 C80 1_555 1_555
C82 C60 1_555 1_555
C83 C68 1_555 1_555
C88 C70 1_555 1_555
H55 C88 1_555 1_555
F17 C92 1_555 1_555
F19 C90 1_555 1_555
F21 C90 1_555 1_555
F22 C92 1_555 1_555
F23 C90 1_555 1_555
C90 C82 1_555 1_555
F24 C92 1_555 1_555
C92 C82 1_555 1_555
Co9 O1 1_555 1_555
Co15 O2 1_555 1_555
C68 C80 1_555 1_555
C70 C82 1_555 1_555
N3 C50 1_555 1_555
C47 H29 1_555 1_555
C48 H30 1_555 1_555
C49 C47 1_555 1_555
C50 C47 1_555 1_555
H31 C50 1_555 1_555
C51 N3 1_555 1_555
H32 C51 1_555 1_555
Co9 N3 1_555 1_555
Co15 O26 1_555 1_555
F13 C86 1_555 1_555
F14 C86 1_555 1_555
O14 Co9 1_555 1_555
O15 Co15 1_555 1_555
F15 C86 1_555 1_555
C59 C62 1_555 1_555
O16 Co9 1_555 1_555
C62 H42 1_555 1_555
C63 H43 1_555 1_555
C64 H44 1_555 1_555
C65 C63 1_555 1_555
C71 O14 1_555 1_555
O28 C71 1_555 1_555
C72 H47 1_555 1_555
C74 C59 1_555 1_555
H48 C74 1_555 1_555
C76 C72 1_555 1_555
C78 C62 1_555 1_555
H51 C78 1_555 1_555
C81 C76 1_555 1_555
H54 C81 1_555 1_555
C84 C65 1_555 1_555
C85 C64 1_555 1_555
C86 C84 1_555 1_555
C87 O15 1_555 1_555
H56 C89 1_555 1_555
F16 C91 1_555 1_555
F18 C91 1_555 1_555
F20 C91 1_555 1_555
C91 C84 1_555 1_555
C48 C49 1_555 1_555
C48 C51 1_555 1_555
C49 C52 1_555 1_555
C59 C71 1_555 1_555
O16 C87 1_555 1_555
C63 C74 1_555 1_555
C65 C78 1_555 1_555
C76 C87 1_555 1_555
C84 C85 1_555 1_555
C85 C89 1_555 1_555

#END
