
###############################################################################
#
# This file contains modified crystal structure data generated from the
# MOF subset of the Cambridge Structural Database (CSD) v543 
# hosted by the Cambridge Crystallographic Data Centre (CCDC).
#
# This work is licensed under the Creative Commons
# Attribution-NonCommercial-ShareAlike 4.0 International License.
# To view a copy of this license, visit
# http://creativecommons.org/licenses/by-nc-sa/4.0/
# or send a letter to
# Creative Commons, PO Box 1866, Mountain View, CA 94042, USA.
#
# CIF created using the CSD Python API on 29 September 2022
# The structure has been converted into the P1 space group
# The structure has a 3D framework
# The original CSD entry XITYOP is in the rhombohedral crystal system
# The framework has been calculated to contain at least 10.0% void space
# The void calculation uses a probe of radius 1.32A, grid spacing 0.4
# H atom positions have been added when not included in the experimental data
# Generated hydrogen atom positions removed from atoms on special positions
#
###############################################################################

data_XITYOP
_chemical_formula_moiety         '(C540 H360 Cu36 O180)n'
_symmetry_cell_setting           triclinic
_symmetry_space_group_name_H-M   'P 1'
_symmetry_Int_Tables_number      1
_space_group_name_Hall           'P 1'
loop_
_symmetry_equiv_pos_site_id
_symmetry_equiv_pos_as_xyz
1 x,y,z
_cell_length_a                   18.4530(4)
_cell_length_b                   18.4530(4)
_cell_length_c                   76.976(4)
_cell_angle_alpha                90
_cell_angle_beta                 90
_cell_angle_gamma                120
_cell_volume                     22699.7
loop_
_atom_site_label
_atom_site_type_symbol
_atom_site_fract_x
_atom_site_fract_y
_atom_site_fract_z
C6 C 0.54493(18) 0.05654(18) 0.01331(4)
C11 C 0.5918(2) 0.1181(2) 0.02635(4)
H4 H 0.5804 0.1032 0.0383
C14 C 0.6512(2) 0.1961(2) 0.02215(4)
H6 H 0.6811 0.2354 0.0311
C30 C 0.6694(2) 0.2198(2) 0.00463(4)
H14 H 0.7124 0.2748 0.0018
Cu2 Cu 0.86646(2) 0.15188(2) 0.930753(4)
Cu6 Cu 0.38125(3) 0.18145(2) 0.902580(4)
Cu7 Cu 0.28542(3) 0.13354(2) 0.930753(4)
Cu8 Cu 0.81855(2) 0.19979(2) 0.902580(4)
O6 O 0.75517(12) 0.11714(13) 0.93947(2)
O7 O 0.44740(11) 0.14289(12) 0.91473(2)
O9 O 0.97118(16) 0.19044(12) 0.91860(2)
O10 O 0.71251(12) 0.15304(12) 0.91530(2)
O12 O 0.81971(12) 0.04584(12) 0.91803(2)
O13 O 0.36349(11) 0.09667(13) 0.93806(2)
O15 O 0.90333(13) 0.26682(17) 0.93806(2)
C16 C 0.42796(15) 0.11115(17) 0.92956(3)
C17 C 0.53241(16) 0.05108(18) 0.96405(4)
C18 C 0.70314(16) 0.12454(17) 0.93040(3)
C19 C 0.47346(17) 0.06202(18) 0.95513(4)
H8 H 0.4226 0.0496 0.9607
C20 C 0.56340(17) 0.08229(18) 0.99573(4)
C22 C 0.60578(17) 0.06936(17) 0.95579(3)
H9 H 0.6467 0.0622 0.9618
C23 C 0.62069(16) 0.09828(16) 0.93872(3)
C24 C 0.51703(16) 0.02381(19) 0.98257(4)
O16 O 0.90584(18) 0.1157(2) 0.95341(4)
C25 C 0.56062(16) 0.10868(18) 0.93000(4)
H10 H 0.5701 0.1282 0.9183
C27 C 0.48730(16) 0.09066(18) 0.93828(3)
C28 C 0.62646(18) 0.16512(18) 0.99197(4)
H12 H 0.6387 0.1825 0.9802
Cu1 Cu 0.13354(2) 0.84812(2) 0.069247(4)
O1 O 0.24483(12) 0.88286(13) 0.06053(2)
O2 O 0.55260(11) 0.85711(12) 0.08527(2)
O3 O 0.28749(12) 0.84696(12) 0.08470(2)
O4 O 0.63651(11) 0.90333(13) 0.06194(2)
C1 C 0.57204(15) 0.88885(17) 0.07044(3)
C2 C 0.46759(16) 0.94892(18) 0.03595(4)
C3 C 0.29686(16) 0.87546(17) 0.06960(3)
C4 C 0.52654(17) 0.93798(18) 0.04487(4)
H1 H 0.5774 0.9504 0.0393
C5 C 0.43660(17) 0.91771(18) 0.00427(4)
C7 C 0.39422(17) 0.93064(17) 0.04421(3)
H2 H 0.3533 0.9378 0.0382
C8 C 0.37931(16) 0.90172(16) 0.06128(3)
C9 C 0.48297(16) 0.97619(19) 0.01743(4)
O5 O 0.09416(18) 0.8843(2) 0.04659(4)
C10 C 0.43938(16) 0.89132(18) 0.07000(4)
H3 H 0.4299 0.8718 0.0817
C12 C 0.51270(16) 0.90934(18) 0.06172(3)
C13 C 0.37354(18) 0.83488(18) 0.00803(4)
H5 H 0.3613 0.8175 0.0198
Cu3 Cu 0.18145(2) 0.80021(2) 0.097420(4)
Cu4 Cu 0.61875(3) 0.81855(2) 0.097420(4)
Cu5 Cu 0.71458(3) 0.86646(2) 0.069247(4)
O8 O 0.02882(16) 0.80956(12) 0.08140(2)
O11 O 0.18029(12) 0.95416(12) 0.08197(2)
O14 O 0.09667(13) 0.73318(17) 0.06194(2)
Cu1_2 Cu 0.15188(2) 0.28542(3) 0.069247(4)
O1_2 O 0.11714(13) 0.36197(18) 0.06053(2)
O2_2 O 0.14289(12) 0.69549(16) 0.08527(2)
O3_2 O 0.15304(12) 0.44053(17) 0.08470(2)
C1_2 C 0.11115(17) 0.68319(23) 0.07044(3)
C2_2 C 0.05108(18) 0.51867(24) 0.03595(4)
C3_2 C 0.12454(17) 0.42140(23) 0.06960(3)
C4_2 C 0.06202(18) 0.58856(25) 0.04487(4)
H1_2 H 0.0496 0.6270 0.0393
C5_2 C 0.08229(18) 0.51889(25) 0.00427(4)
C7_2 C 0.06936(17) 0.46358(24) 0.04421(3)
H2_2 H 0.0622 0.4155 0.0382
C8_2 C 0.09828(16) 0.47759(23) 0.06128(3)
C9_2 C 0.02381(19) 0.50678(25) 0.01743(4)
O5_2 O 0.1157(2) 0.20986(27) 0.04659(4)
C10_2 C 0.10868(18) 0.54806(24) 0.07000(4)
H3_2 H 0.1282 0.5581 0.0817
C12_2 C 0.09066(18) 0.60336(24) 0.06172(3)
C13_2 C 0.16512(18) 0.53866(25) 0.00803(4)
H5_2 H 0.1825 0.5438 0.0198
Cu3_2 Cu 0.19979(2) 0.38125(3) 0.097420(4)
O8_2 O 0.19044(12) 0.21927(20) 0.08140(2)
O11_2 O 0.04584(12) 0.22614(17) 0.08197(2)
O14_2 O 0.26682(17) 0.36349(21) 0.06194(2)
Cu2_2 Cu 0.84812(2) 0.71458(3) 0.930753(4)
Cu8_2 Cu 0.80021(2) 0.61875(3) 0.902580(4)
O6_2 O 0.88286(13) 0.63803(18) 0.93947(2)
O7_2 O 0.85711(12) 0.30451(16) 0.91473(2)
O9_2 O 0.80956(12) 0.78073(20) 0.91860(2)
O10_2 O 0.84696(12) 0.55947(17) 0.91530(2)
O12_2 O 0.95416(12) 0.77386(17) 0.91803(2)
O15_2 O 0.73318(17) 0.63651(21) 0.93806(2)
C16_2 C 0.88885(17) 0.31681(23) 0.92956(3)
C17_2 C 0.94892(18) 0.48133(24) 0.96405(4)
C18_2 C 0.87546(17) 0.57860(23) 0.93040(3)
C19_2 C 0.93798(18) 0.41144(25) 0.95513(4)
H8_2 H 0.9504 0.3730 0.9607
C20_2 C 0.91771(18) 0.48111(25) 0.99573(4)
C22_2 C 0.93064(17) 0.53642(24) 0.95579(3)
H9_2 H 0.9378 0.5845 0.9618
C23_2 C 0.90172(16) 0.52241(23) 0.93872(3)
C24_2 C 0.97619(19) 0.49322(25) 0.98257(4)
O16_2 O 0.8843(2) 0.79014(27) 0.95341(4)
C25_2 C 0.89132(18) 0.45194(24) 0.93000(4)
H10_2 H 0.8718 0.4419 0.9183
C27_2 C 0.90934(18) 0.39664(24) 0.93828(3)
C28_2 C 0.83488(18) 0.46134(25) 0.99197(4)
H12_2 H 0.8175 0.4562 0.9802
O1_3 O 0.63803(18) 0.75517(12) 0.06053(2)
O2_3 O 0.30451(16) 0.44740(11) 0.08527(2)
O3_3 O 0.55947(17) 0.71251(12) 0.08470(2)
C1_3 C 0.31681(23) 0.42796(15) 0.07044(3)
C2_3 C 0.48133(24) 0.53241(16) 0.03595(4)
C3_3 C 0.57860(23) 0.70314(16) 0.06960(3)
C4_3 C 0.41144(25) 0.47346(17) 0.04487(4)
H1_3 H 0.3730 0.4226 0.0393
C5_3 C 0.48111(25) 0.56340(17) 0.00427(4)
C6_2 C 0.51161(25) 0.45507(18) 0.01331(4)
C7_3 C 0.53642(24) 0.60578(17) 0.04421(3)
H2_3 H 0.5845 0.6467 0.0382
C8_3 C 0.52241(23) 0.62069(16) 0.06128(3)
C9_3 C 0.49322(25) 0.51703(16) 0.01743(4)
O5_3 O 0.79014(27) 0.90584(18) 0.04659(4)
C10_3 C 0.45194(24) 0.56062(16) 0.07000(4)
H3_3 H 0.4419 0.5701 0.0817
C11_2 C 0.5263(3) 0.4082(2) 0.02635(4)
H4_2 H 0.5228 0.4196 0.0383
C12_3 C 0.39664(24) 0.48730(16) 0.06172(3)
C13_3 C 0.46134(25) 0.62646(18) 0.00803(4)
H5_3 H 0.4562 0.6387 0.0198
C14_2 C 0.5449(3) 0.3488(2) 0.02215(4)
H6_2 H 0.5543 0.3189 0.0311
O8_3 O 0.78073(20) 0.97118(16) 0.08140(2)
O11_3 O 0.77386(17) 0.81971(12) 0.08197(2)
C30_2 C 0.5504(3) 0.3306(2) 0.00463(4)
H14_2 H 0.5624 0.2876 0.0018
C15 C 0.4496(3) 0.6694(2) 0.99537(4)
H7 H 0.4376 0.7124 0.9982
O6_3 O 0.36197(18) 0.24483(12) 0.93947(2)
O7_3 O 0.69549(16) 0.55260(11) 0.91473(2)
O9_3 O 0.21927(20) 0.02882(16) 0.91860(2)
O10_3 O 0.44053(17) 0.28749(12) 0.91530(2)
O12_3 O 0.22614(17) 0.18029(12) 0.91803(2)
C16_3 C 0.68319(23) 0.57204(15) 0.92956(3)
C17_3 C 0.51867(24) 0.46759(16) 0.96405(4)
C18_3 C 0.42140(23) 0.29686(16) 0.93040(3)
C19_3 C 0.58856(25) 0.52654(17) 0.95513(4)
H8_3 H 0.6270 0.5774 0.9607
C20_3 C 0.51889(25) 0.43660(17) 0.99573(4)
C21 C 0.48839(25) 0.54493(18) 0.98669(4)
C22_3 C 0.46358(24) 0.39422(17) 0.95579(3)
H9_3 H 0.4155 0.3533 0.9618
C23_3 C 0.47759(23) 0.37931(16) 0.93872(3)
C24_3 C 0.50678(25) 0.48297(16) 0.98257(4)
O16_3 O 0.20986(27) 0.09416(18) 0.95341(4)
C25_3 C 0.54806(24) 0.43938(16) 0.93000(4)
H10_3 H 0.5581 0.4299 0.9183
C26 C 0.4737(3) 0.5918(2) 0.97365(4)
H11 H 0.4772 0.5804 0.9617
C27_3 C 0.60336(24) 0.51270(16) 0.93828(3)
C28_3 C 0.53866(25) 0.37354(18) 0.99197(4)
H12_3 H 0.5438 0.3613 0.9802
C29 C 0.4551(3) 0.6512(2) 0.97785(4)
H13 H 0.4457 0.6811 0.9689
C6_3 C 0.05654(18) 0.54493(18) 0.48669(4)
C11_3 C 0.1181(2) 0.5918(2) 0.47365(4)
H4_3 H 0.1032 0.5804 0.4617
C14_3 C 0.1961(2) 0.6512(2) 0.47785(4)
H6_3 H 0.2354 0.6811 0.4689
Cu2_3 Cu 0.15188(2) 0.86646(2) 0.569247(4)
Cu6_2 Cu 0.18145(2) 0.38125(3) 0.597420(4)
Cu7_2 Cu 0.13354(2) 0.28542(3) 0.569247(4)
Cu8_3 Cu 0.19979(2) 0.81855(2) 0.597420(4)
O6_4 O 0.11714(13) 0.75517(12) 0.56053(2)
O7_4 O 0.14289(12) 0.44740(11) 0.58527(2)
O9_4 O 0.19044(12) 0.97118(16) 0.58140(2)
O10_4 O 0.15304(12) 0.71251(12) 0.58470(2)
O12_4 O 0.04584(12) 0.81971(12) 0.58197(2)
O13_2 O 0.09667(13) 0.36349(11) 0.56194(2)
O15_3 O 0.26682(17) 0.90333(13) 0.56194(2)
C16_4 C 0.11115(17) 0.42796(15) 0.57044(3)
C17_4 C 0.05108(18) 0.53241(16) 0.53595(4)
C18_4 C 0.12454(17) 0.70314(16) 0.56960(3)
C19_4 C 0.06202(18) 0.47346(17) 0.54487(4)
H8_4 H 0.0496 0.4226 0.5393
C20_4 C 0.08229(18) 0.56340(17) 0.50427(4)
C22_4 C 0.06936(17) 0.60578(17) 0.54421(3)
H9_4 H 0.0622 0.6467 0.5382
C23_4 C 0.09828(16) 0.62069(16) 0.56128(3)
C24_4 C 0.02381(19) 0.51703(16) 0.51743(4)
O16_4 O 0.1157(2) 0.90584(18) 0.54659(4)
C25_4 C 0.10868(18) 0.56062(16) 0.57000(4)
H10_4 H 0.1282 0.5701 0.5817
C27_4 C 0.09066(18) 0.48730(16) 0.56172(3)
C28_4 C 0.16512(18) 0.62646(18) 0.50803(4)
H12_4 H 0.1825 0.6387 0.5198
C30_3 C 0.2198(2) 0.6694(2) 0.49537(4)
H14_3 H 0.2748 0.7124 0.4982
Cu1_3 Cu 0.84812(2) 0.13354(2) 0.430753(4)
O1_4 O 0.88286(13) 0.24483(12) 0.43947(2)
O2_4 O 0.85711(12) 0.55260(11) 0.41473(2)
O3_4 O 0.84696(12) 0.28749(12) 0.41530(2)
O4_2 O 0.90333(13) 0.63651(11) 0.43806(2)
C1_4 C 0.88885(17) 0.57204(15) 0.42956(3)
C2_4 C 0.94892(18) 0.46759(16) 0.46405(4)
C3_4 C 0.87546(17) 0.29686(16) 0.43040(3)
C4_4 C 0.93798(18) 0.52654(17) 0.45513(4)
H1_4 H 0.9504 0.5774 0.4607
C5_4 C 0.91771(18) 0.43660(17) 0.49573(4)
C7_4 C 0.93064(17) 0.39422(17) 0.45579(3)
H2_4 H 0.9378 0.3533 0.4618
C8_4 C 0.90172(16) 0.37931(16) 0.43872(3)
C9_4 C 0.97619(19) 0.48297(16) 0.48257(4)
O5_4 O 0.8843(2) 0.09416(18) 0.45341(4)
C10_4 C 0.89132(18) 0.43938(16) 0.43000(4)
H3_4 H 0.8718 0.4299 0.4183
C12_4 C 0.90934(18) 0.51270(16) 0.43828(3)
C13_4 C 0.83488(18) 0.37354(18) 0.49197(4)
H5_4 H 0.8175 0.3613 0.4802
C15_2 C 0.7802(2) 0.3306(2) 0.50463(4)
H7_2 H 0.7252 0.2876 0.5018
Cu3_3 Cu 0.80021(2) 0.18145(2) 0.402580(4)
Cu4_2 Cu 0.81855(2) 0.61875(3) 0.402580(4)
Cu5_2 Cu 0.86646(2) 0.71458(3) 0.430753(4)
O8_4 O 0.80956(12) 0.02882(16) 0.41860(2)
O11_4 O 0.95416(12) 0.18029(12) 0.41803(2)
O14_3 O 0.73318(17) 0.09667(13) 0.43806(2)
C21_2 C 0.94346(18) 0.45507(18) 0.51331(4)
C26_2 C 0.8819(2) 0.4082(2) 0.52635(4)
H11_2 H 0.8968 0.4196 0.5383
C29_2 C 0.8039(2) 0.3488(2) 0.52215(4)
H13_2 H 0.7646 0.3189 0.5311
O2_5 O 0.21927(11) 0.19044(12) 0.41860(2)
O4_3 O 0.30318(11) 0.23666(13) 0.39527(2)
C1_5 C 0.23871(15) 0.22218(17) 0.40377(3)
C2_5 C 0.13426(16) 0.28225(18) 0.36928(4)
C4_5 C 0.19321(17) 0.27131(18) 0.37820(4)
H1_5 H 0.2441 0.2837 0.3726
C5_5 C 0.10327(17) 0.25104(18) 0.33760(4)
C6_4 C 0.21160(18) 0.38987(18) 0.34664(4)
C7_5 C 0.06089(17) 0.26397(17) 0.37754(3)
H2_5 H 0.0200 0.2711 0.3715
C8_5 C 0.04598(16) 0.23505(16) 0.39461(3)
C9_5 C 0.14964(16) 0.30952(19) 0.35076(4)
C10_5 C 0.10605(16) 0.22465(18) 0.40333(4)
H3_5 H 0.0966 0.2051 0.4150
C11_4 C 0.2585(2) 0.4514(2) 0.35968(4)
H4_4 H 0.2471 0.4365 0.3716
C12_5 C 0.17937(16) 0.24267(18) 0.39505(3)
C13_5 C 0.04021(18) 0.16821(18) 0.34136(4)
H5_5 H 0.0280 0.1508 0.3531
C14_4 C 0.3179(2) 0.5294(2) 0.35548(4)
H6_4 H 0.3478 0.5687 0.3644
Cu2_4 Cu 0.53313(2) 0.48521(2) 0.264086(4)
Cu4_3 Cu 0.28542(3) 0.15188(2) 0.430753(4)
Cu5_3 Cu 0.38125(3) 0.19979(2) 0.402580(4)
Cu6_3 Cu 0.04791(3) 0.51479(2) 0.235914(4)
Cu8_4 Cu 0.48521(2) 0.53313(2) 0.235914(4)
O6_5 O 0.42184(12) 0.45047(13) 0.27280(2)
O7_5 O 0.11407(11) 0.47622(12) 0.24806(2)
O9_5 O 0.63784(16) 0.52378(12) 0.25194(2)
O10_5 O 0.37918(12) 0.48637(12) 0.24863(2)
O12_5 O 0.48637(12) 0.37918(12) 0.25137(2)
O13_3 O 0.03016(11) 0.43000(13) 0.27139(2)
O15_4 O 0.57000(13) 0.60015(17) 0.27139(2)
C16_5 C 0.09463(15) 0.44448(17) 0.26289(3)
C17_5 C 0.19908(16) 0.38441(18) 0.29738(4)
C18_5 C 0.36981(16) 0.45787(17) 0.26373(3)
C19_5 C 0.14013(17) 0.39535(18) 0.28846(4)
H8_5 H 0.0893 0.3829 0.2940
C20_5 C 0.23007(17) 0.41562(18) 0.32906(4)
C21_3 C 0.12174(18) 0.27679(18) 0.32002(4)
C22_5 C 0.27245(17) 0.40269(17) 0.28912(3)
H9_5 H 0.3134 0.3955 0.2951
C23_5 C 0.28736(16) 0.43161(16) 0.27205(3)
C24_5 C 0.18370(16) 0.35714(19) 0.31590(4)
O16_5 O 0.57251(18) 0.4490(2) 0.28674(4)
C25_5 C 0.22729(16) 0.44201(18) 0.26333(4)
H10_5 H 0.2368 0.4615 0.2516
C26_3 C 0.0749(2) 0.2152(2) 0.30698(4)
H11_3 H 0.0863 0.2301 0.2950
C27_5 C 0.15397(16) 0.42399(18) 0.27161(3)
C28_5 C 0.29313(18) 0.49845(18) 0.32530(4)
H12_5 H 0.3054 0.5158 0.3135
C29_3 C 0.0155(2) 0.1372(2) 0.31118(4)
C30_4 C 0.3361(2) 0.5531(2) 0.33796(4)
H14_4 H 0.3791 0.6081 0.3351
O1_5 O 0.91150(12) 0.21619(13) 0.39386(2)
C3_5 C 0.96353(16) 0.20879(17) 0.40293(3)
O5_5 O 0.76083(18) 0.2176(2) 0.37992(4)
C15_3 C 0.9973(2) 0.1135(2) 0.32870(4)
H7_3 H 0.9543 0.0585 0.3315
Cu7_3 Cu 0.95209(3) 0.46687(2) 0.264086(4)
O8_5 O 0.69549(16) 0.14289(12) 0.41473(2)
O14_4 O 0.76334(13) 0.06651(17) 0.39527(2)
H13_3 H 0.9856 0.0979 0.3022
C1_6 C 0.77782(17) 0.01652(23) 0.40377(3)
Cu2_5 Cu 0.51479(2) 0.04791(3) 0.264086(4)
O9_6 O 0.47622(12) 0.11407(20) 0.25194(2)
O12_6 O 0.62082(12) 0.10720(17) 0.25137(2)
O16_6 O 0.5510(2) 0.12347(27) 0.28674(4)
O1_6 O 0.78381(13) 0.69530(18) 0.39386(2)
O3_5 O 0.81971(12) 0.77386(17) 0.41803(2)
C2_6 C 0.71775(18) 0.85200(24) 0.36928(4)
C3_6 C 0.79121(17) 0.75473(23) 0.40293(3)
C4_6 C 0.72869(18) 0.92189(25) 0.37820(4)
H1_6 H 0.7163 0.9603 0.3726
C5_6 C 0.74896(18) 0.85222(25) 0.33760(4)
C6_5 C 0.61013(18) 0.82172(25) 0.34664(4)
C7_6 C 0.73603(17) 0.79691(24) 0.37754(3)
H2_6 H 0.7289 0.7488 0.3715
C8_6 C 0.76495(16) 0.81092(23) 0.39461(3)
C9_6 C 0.69048(19) 0.84011(25) 0.35076(4)
O5_6 O 0.7824(2) 0.54319(27) 0.37992(4)
C10_6 C 0.77535(18) 0.88139(24) 0.40333(4)
H3_6 H 0.7949 0.8914 0.4150
C11_5 C 0.5486(2) 0.8070(3) 0.35968(4)
H4_5 H 0.5635 0.8105 0.3716
C12_6 C 0.75733(18) 0.93669(24) 0.39505(3)
C13_6 C 0.83179(18) 0.87199(25) 0.34136(4)
H5_6 H 0.8492 0.8771 0.3531
C14_5 C 0.4706(2) 0.7884(3) 0.35548(4)
H6_5 H 0.4313 0.7790 0.3644
C15_4 C 0.8865(2) 0.8837(3) 0.32870(4)
H7_4 H 0.9415 0.8957 0.3315
Cu8_5 Cu 0.46687(2) 0.95209(3) 0.235914(4)
O6_6 O 0.54953(13) 0.97136(18) 0.27280(2)
O7_6 O 0.52378(12) 0.63784(16) 0.24806(2)
O10_6 O 0.51363(12) 0.89280(17) 0.24863(2)
O11_5 O 0.71251(12) 0.55947(17) 0.41530(2)
O14_5 O 0.93349(17) 0.69682(21) 0.39527(2)
O15_5 O 0.39985(17) 0.96984(21) 0.27139(2)
C16_6 C 0.55552(17) 0.65014(23) 0.26289(3)
C17_6 C 0.61559(18) 0.81466(24) 0.29738(4)
C18_6 C 0.54213(17) 0.91193(23) 0.26373(3)
C19_6 C 0.60465(18) 0.74477(25) 0.28846(4)
H8_6 H 0.6171 0.7063 0.2940
C20_6 C 0.58438(18) 0.81444(25) 0.32906(4)
C21_4 C 0.72321(18) 0.84494(25) 0.32002(4)
C22_6 C 0.59731(17) 0.86975(24) 0.28912(3)
H9_6 H 0.6045 0.9178 0.2951
C23_6 C 0.56839(16) 0.85574(23) 0.27205(3)
C24_6 C 0.64286(19) 0.82655(25) 0.31590(4)
C25_6 C 0.55799(18) 0.78527(24) 0.26333(4)
H10_6 H 0.5385 0.7752 0.2516
C26_4 C 0.7848(2) 0.8596(3) 0.30698(4)
H11_4 H 0.7699 0.8561 0.2950
C27_6 C 0.57601(18) 0.72997(24) 0.27161(3)
C28_6 C 0.50155(18) 0.79467(25) 0.32530(4)
H12_6 H 0.4842 0.7895 0.3135
C29_4 C 0.8628(2) 0.8782(3) 0.31118(4)
H13_4 H 0.9021 0.8876 0.3022
C30_5 C 0.4469(2) 0.7829(3) 0.33796(4)
H14_5 H 0.3919 0.7709 0.3351
O1_7 O 0.30470(18) 0.08850(12) 0.39386(2)
O3_6 O 0.22614(17) 0.04584(12) 0.41803(2)
C3_7 C 0.24527(23) 0.03647(16) 0.40293(3)
O5_7 O 0.45681(27) 0.23917(18) 0.37992(4)
C15_5 C 0.1163(3) 0.0027(2) 0.32870(4)
H7_5 H 0.1043 0.0457 0.3315
O8_6 O 0.44740(20) 0.30451(16) 0.41473(2)
O11_6 O 0.44053(17) 0.15304(12) 0.41530(2)
H13_5 H 0.1124 0.0144 0.3022
C2_7 C 0.14800(24) 0.86574(16) 0.36928(4)
C4_7 C 0.07811(25) 0.80679(17) 0.37820(4)
H1_7 H 0.0397 0.7559 0.3726
C5_7 C 0.14778(25) 0.89673(17) 0.33760(4)
C6_6 C 0.17828(25) 0.78840(18) 0.34664(4)
C7_7 C 0.20309(24) 0.93911(17) 0.37754(3)
H2_7 H 0.2512 0.9800 0.3715
C8_7 C 0.18908(23) 0.95402(16) 0.39461(3)
C9_7 C 0.15989(25) 0.85036(16) 0.35076(4)
C10_7 C 0.11861(24) 0.89395(16) 0.40333(4)
H3_7 H 0.1086 0.9034 0.4150
C11_6 C 0.1930(3) 0.7415(2) 0.35968(4)
H4_6 H 0.1895 0.7529 0.3716
C12_7 C 0.06331(24) 0.82063(16) 0.39505(3)
C13_7 C 0.12801(25) 0.95979(18) 0.34136(4)
H5_7 H 0.1229 0.9720 0.3531
C14_6 C 0.2116(3) 0.6821(2) 0.35548(4)
H6_6 H 0.2210 0.6522 0.3644
O6_7 O 0.02864(18) 0.57816(12) 0.27280(2)
O7_7 O 0.36216(16) 0.88593(11) 0.24806(2)
O10_7 O 0.10720(17) 0.62082(12) 0.24863(2)
C16_7 C 0.34986(23) 0.90537(15) 0.26289(3)
C17_7 C 0.18534(24) 0.80092(16) 0.29738(4)
C18_7 C 0.08807(23) 0.63019(16) 0.26373(3)
C19_7 C 0.25523(25) 0.85987(17) 0.28846(4)
H8_7 H 0.2937 0.9107 0.2940
C20_7 C 0.18556(25) 0.76993(17) 0.32906(4)
C21_5 C 0.15506(25) 0.87826(18) 0.32002(4)
C22_7 C 0.13025(24) 0.72755(17) 0.28912(3)
H9_7 H 0.0822 0.6866 0.2951
C23_7 C 0.14426(23) 0.71264(16) 0.27205(3)
C24_7 C 0.17345(25) 0.81630(16) 0.31590(4)
C25_7 C 0.21473(24) 0.77271(16) 0.26333(4)
H10_7 H 0.2248 0.7632 0.2516
C26_5 C 0.1404(3) 0.9251(2) 0.30698(4)
H11_5 H 0.1439 0.9137 0.2950
C27_7 C 0.27003(24) 0.84603(16) 0.27161(3)
C28_7 C 0.20533(25) 0.70687(18) 0.32530(4)
H12_7 H 0.2105 0.6946 0.3135
C29_5 C 0.1218(3) 0.9845(2) 0.31118(4)
C30_6 C 0.2171(3) 0.6639(2) 0.33796(4)
H14_6 H 0.2291 0.6209 0.3351
O2_6 O 0.97118(16) 0.78073(11) 0.41860(2)
C1_7 C 0.98348(23) 0.76129(15) 0.40377(3)
O9_7 O 0.88593(20) 0.36216(16) 0.25194(2)
O12_7 O 0.89280(17) 0.51363(12) 0.25137(2)
O16_7 O 0.87653(27) 0.42749(18) 0.28674(4)
H6_7 H 0.9021 0.0144 0.8022
Cu5_4 Cu 0.53313(2) 0.04791(3) 0.764086(4)
O6_8 O 0.78381(13) 0.08850(12) 0.89386(2)
O15_6 O 0.93349(17) 0.23666(13) 0.89527(2)
C18_8 C 0.79121(17) 0.03647(16) 0.90293(3)
O16_8 O 0.7824(2) 0.23917(18) 0.87992(4)
C30_7 C 0.8865(2) 0.0027(2) 0.82870(4)
H14_7 H 0.9415 0.0457 0.8315
Cu1_4 Cu 0.51479(2) 0.46687(2) 0.764086(4)
O1_8 O 0.54953(13) 0.57816(12) 0.77280(2)
O2_7 O 0.52378(12) 0.88593(11) 0.74806(2)
O3_7 O 0.51363(12) 0.62082(12) 0.74863(2)
O4_4 O 0.57000(13) 0.96984(11) 0.77139(2)
C1_8 C 0.55552(17) 0.90537(15) 0.76289(3)
C2_8 C 0.61559(18) 0.80092(16) 0.79738(4)
C3_8 C 0.54213(17) 0.63019(16) 0.76373(3)
C4_8 C 0.60465(18) 0.85987(17) 0.78846(4)
H1_8 H 0.6171 0.9107 0.7940
C5_8 C 0.58438(18) 0.76993(17) 0.82906(4)
C6_7 C 0.72321(18) 0.87826(18) 0.82002(4)
C7_8 C 0.59731(17) 0.72755(17) 0.78912(3)
H2_8 H 0.6045 0.6866 0.7951
C8_8 C 0.56839(16) 0.71264(16) 0.77205(3)
C9_8 C 0.64286(19) 0.81630(16) 0.81590(4)
O5_8 O 0.5510(2) 0.42749(18) 0.78674(4)
C10_8 C 0.55799(18) 0.77271(16) 0.76333(4)
H3_8 H 0.5385 0.7632 0.7516
C11_7 C 0.7848(2) 0.9251(2) 0.80698(4)
H4_7 H 0.7699 0.9137 0.7950
C12_8 C 0.57601(18) 0.84603(16) 0.77161(3)
C13_8 C 0.50155(18) 0.70687(18) 0.82530(4)
H5_8 H 0.4842 0.6946 0.8135
C14_7 C 0.8628(2) 0.9845(2) 0.81118(4)
C15_6 C 0.4469(2) 0.6639(2) 0.83796(4)
H7_6 H 0.3919 0.6209 0.8351
Cu3_4 Cu 0.46687(2) 0.51479(2) 0.735914(4)
Cu4_4 Cu 0.48521(2) 0.95209(3) 0.735914(4)
O8_7 O 0.47622(12) 0.36216(16) 0.75194(2)
O11_7 O 0.62082(12) 0.51363(12) 0.75137(2)
O13_4 O 0.76334(13) 0.69682(11) 0.89527(2)
O14_6 O 0.39985(17) 0.43000(13) 0.77139(2)
C16_8 C 0.77782(17) 0.76129(15) 0.90377(3)
C17_8 C 0.71775(18) 0.86574(16) 0.86928(4)
C19_8 C 0.72869(18) 0.80679(17) 0.87820(4)
H8_8 H 0.7163 0.7559 0.8726
C20_8 C 0.74896(18) 0.89673(17) 0.83760(4)
C21_6 C 0.61013(18) 0.78840(18) 0.84664(4)
C22_8 C 0.73603(17) 0.93911(17) 0.87754(3)
H9_8 H 0.7289 0.9800 0.8715
C23_8 C 0.76495(16) 0.95402(16) 0.89461(3)
C24_8 C 0.69048(19) 0.85036(16) 0.85076(4)
C25_8 C 0.77535(18) 0.89395(16) 0.90333(4)
H10_8 H 0.7949 0.9034 0.9150
C26_6 C 0.5486(2) 0.7415(2) 0.85968(4)
H11_6 H 0.5635 0.7529 0.8716
C27_8 C 0.75733(18) 0.82063(16) 0.89505(3)
C28_8 C 0.83179(18) 0.95979(18) 0.84136(4)
H12_8 H 0.8492 0.9720 0.8531
C29_6 C 0.4706(2) 0.6821(2) 0.85548(4)
H13_6 H 0.4313 0.6522 0.8644
H6_8 H 0.0144 0.9021 0.6978
Cu5_5 Cu 0.04791(3) 0.53313(2) 0.735914(4)
O6_9 O 0.08850(12) 0.78381(13) 0.60614(2)
O9_8 O 0.30451(16) 0.85711(12) 0.58527(2)
O15_7 O 0.23666(13) 0.93349(17) 0.60473(2)
C18_9 C 0.03647(16) 0.79121(17) 0.59707(3)
O16_9 O 0.23917(18) 0.7824(2) 0.62008(4)
C30_8 C 0.0027(2) 0.8865(2) 0.67130(4)
H14_8 H 0.0457 0.9415 0.6685
O1_9 O 0.57816(12) 0.54953(13) 0.72720(2)
O2_8 O 0.88593(11) 0.52378(12) 0.75194(2)
O4_5 O 0.96984(11) 0.57000(13) 0.72861(2)
C1_9 C 0.90537(15) 0.55552(17) 0.73711(3)
C2_9 C 0.80092(16) 0.61559(18) 0.70262(4)
C3_9 C 0.63019(16) 0.54213(17) 0.73627(3)
C4_9 C 0.85987(17) 0.60465(18) 0.71154(4)
H1_9 H 0.9107 0.6171 0.7060
C5_9 C 0.76993(17) 0.58438(18) 0.67094(4)
C6_8 C 0.87826(18) 0.72321(18) 0.67998(4)
C7_9 C 0.72755(17) 0.59731(17) 0.71088(3)
H2_9 H 0.6866 0.6045 0.7049
C8_9 C 0.71264(16) 0.56839(16) 0.72795(3)
C9_9 C 0.81630(16) 0.64286(19) 0.68410(4)
O5_9 O 0.42749(18) 0.5510(2) 0.71326(4)
C10_9 C 0.77271(16) 0.55799(18) 0.73667(4)
H3_9 H 0.7632 0.5385 0.7484
C11_8 C 0.9251(2) 0.7848(2) 0.69302(4)
H4_8 H 0.9137 0.7699 0.7050
C12_9 C 0.84603(16) 0.57601(18) 0.72839(3)
C13_9 C 0.70687(18) 0.50155(18) 0.67470(4)
H5_9 H 0.6946 0.4842 0.6865
C14_8 C 0.9845(2) 0.8628(2) 0.68882(4)
C15_7 C 0.6639(2) 0.4469(2) 0.66204(4)
H7_7 H 0.6209 0.3919 0.6649
Cu4_5 Cu 0.95209(3) 0.48521(2) 0.764086(4)
Cu6_4 Cu 0.71458(3) 0.84812(2) 0.569247(4)
Cu7_4 Cu 0.61875(3) 0.80021(2) 0.597420(4)
O7_8 O 0.78073(11) 0.80956(12) 0.58140(2)
O8_8 O 0.36216(16) 0.47622(12) 0.74806(2)
O13_5 O 0.69682(11) 0.76334(13) 0.60473(2)
O14_7 O 0.43000(13) 0.39985(17) 0.72861(2)
C16_9 C 0.76129(15) 0.77782(17) 0.59623(3)
C17_9 C 0.86574(16) 0.71775(18) 0.63072(4)
C19_9 C 0.80679(17) 0.72869(18) 0.62180(4)
H8_9 H 0.7559 0.7163 0.6274
C20_9 C 0.89673(17) 0.74896(18) 0.66240(4)
C21_7 C 0.78840(18) 0.61013(18) 0.65336(4)
C22_9 C 0.93911(17) 0.73603(17) 0.62246(3)
H9_9 H 0.9800 0.7289 0.6285
C23_9 C 0.95402(16) 0.76495(16) 0.60539(3)
C24_9 C 0.85036(16) 0.69048(19) 0.64924(4)
C25_9 C 0.89395(16) 0.77535(18) 0.59667(4)
H10_9 H 0.9034 0.7949 0.5850
C26_7 C 0.7415(2) 0.5486(2) 0.64032(4)
H11_7 H 0.7529 0.5635 0.6284
C27_9 C 0.82063(16) 0.75733(18) 0.60495(3)
C28_9 C 0.95979(18) 0.83179(18) 0.65864(4)
H12_9 H 0.9720 0.8492 0.6469
C29_7 C 0.6821(2) 0.4706(2) 0.64452(4)
H13_7 H 0.6522 0.4313 0.6356
O4_6 O 0.23666(13) 0.30318(11) 0.10473(2)
C1_10 C 0.22218(17) 0.23871(15) 0.09623(3)
C2_10 C 0.28225(18) 0.13426(16) 0.13072(4)
C4_10 C 0.27131(18) 0.19321(17) 0.12180(4)
H1_10 H 0.2837 0.2441 0.1274
C5_10 C 0.25104(18) 0.10327(17) 0.16240(4)
C6_9 C 0.38987(18) 0.21160(18) 0.15336(4)
C7_10 C 0.26397(17) 0.06089(17) 0.12246(3)
H2_10 H 0.2711 0.0200 0.1285
C8_10 C 0.23505(16) 0.04598(16) 0.10539(3)
C9_10 C 0.30952(19) 0.14964(16) 0.14924(4)
C10_10 C 0.22465(18) 0.10605(16) 0.09667(4)
H3_10 H 0.2051 0.0966 0.0850
C11_9 C 0.4514(2) 0.2585(2) 0.14032(4)
H4_9 H 0.4365 0.2471 0.1284
C12_10 C 0.24267(18) 0.17937(16) 0.10495(3)
C13_10 C 0.16821(18) 0.04021(18) 0.15864(4)
H5_10 H 0.1508 0.0280 0.1469
C14_9 C 0.5294(2) 0.3179(2) 0.14452(4)
H6_9 H 0.5687 0.3478 0.1356
O6_10 O 0.45047(13) 0.42184(12) 0.22720(2)
O13_6 O 0.43000(13) 0.03016(11) 0.22861(2)
O15_8 O 0.60015(17) 0.57000(13) 0.22861(2)
C16_10 C 0.44448(17) 0.09463(15) 0.23711(3)
C17_10 C 0.38441(18) 0.19908(16) 0.20262(4)
C18_10 C 0.45787(17) 0.36981(16) 0.23627(3)
C19_10 C 0.39535(18) 0.14013(17) 0.21154(4)
H8_10 H 0.3829 0.0893 0.2060
C20_10 C 0.41562(18) 0.23007(17) 0.17094(4)
C21_8 C 0.27679(18) 0.12174(18) 0.17998(4)
C22_10 C 0.40269(17) 0.27245(17) 0.21088(3)
H9_10 H 0.3955 0.3134 0.2049
C23_10 C 0.43161(16) 0.28736(16) 0.22795(3)
C24_10 C 0.35714(19) 0.18370(16) 0.18410(4)
O16_10 O 0.4490(2) 0.57251(18) 0.21326(4)
C25_10 C 0.44201(18) 0.22729(16) 0.23667(4)
H10_10 H 0.4615 0.2368 0.2484
C26_8 C 0.2152(2) 0.0749(2) 0.19302(4)
H11_8 H 0.2301 0.0863 0.2050
C27_10 C 0.42399(18) 0.15397(16) 0.22839(3)
C28_10 C 0.49845(18) 0.29313(18) 0.17470(4)
H12_10 H 0.5158 0.3054 0.1865
C29_8 C 0.1372(2) 0.0155(2) 0.18882(4)
C30_9 C 0.5531(2) 0.3361(2) 0.16204(4)
H14_9 H 0.6081 0.3791 0.1649
O1_10 O 0.21619(13) 0.91150(12) 0.10614(2)
C3_10 C 0.20879(17) 0.96353(16) 0.09707(3)
O5_10 O 0.2176(2) 0.76083(18) 0.12008(4)
C15_8 C 0.1135(2) 0.9973(2) 0.17130(4)
H7_8 H 0.0585 0.9543 0.1685
O14_8 O 0.06651(17) 0.76334(13) 0.10473(2)
H13_8 H 0.0979 0.9856 0.1978
O1_11 O 0.36197(18) 0.11714(13) 0.43947(2)
C1_11 C 0.68319(23) 0.11115(17) 0.42956(3)
C2_11 C 0.51867(24) 0.05108(18) 0.46405(4)
C3_11 C 0.42140(23) 0.12454(17) 0.43040(3)
C4_11 C 0.58856(25) 0.06202(18) 0.45513(4)
H1_11 H 0.6270 0.0496 0.4607
C5_11 C 0.51889(25) 0.08229(18) 0.49573(4)
C7_11 C 0.46358(24) 0.06936(17) 0.45579(3)
H2_11 H 0.4155 0.0622 0.4618
C8_11 C 0.47759(23) 0.09828(16) 0.43872(3)
C9_11 C 0.50678(25) 0.02381(19) 0.48257(4)
O5_11 O 0.20986(27) 0.1157(2) 0.45341(4)
C10_11 C 0.54806(24) 0.10868(18) 0.43000(4)
H3_11 H 0.5581 0.1282 0.4183
C12_11 C 0.60336(24) 0.09066(18) 0.43828(3)
C13_11 C 0.53866(25) 0.16512(18) 0.49197(4)
H5_11 H 0.5438 0.1825 0.4802
C15_9 C 0.5504(3) 0.2198(2) 0.50463(4)
H7_9 H 0.5624 0.2748 0.5018
O14_9 O 0.36349(21) 0.26682(17) 0.43806(2)
C21_9 C 0.51161(25) 0.05654(18) 0.51331(4)
C26_9 C 0.5263(3) 0.1181(2) 0.52635(4)
H11_9 H 0.5228 0.1032 0.5383
C29_9 C 0.5449(3) 0.1961(2) 0.52215(4)
H13_9 H 0.5543 0.2354 0.5311
C6_10 C 0.48839(25) 0.94346(18) 0.48669(4)
C11_10 C 0.4737(3) 0.8819(2) 0.47365(4)
H4_10 H 0.4772 0.8968 0.4617
C14_10 C 0.4551(3) 0.8039(2) 0.47785(4)
H6_10 H 0.4457 0.7646 0.4689
O6_11 O 0.63803(18) 0.88286(13) 0.56053(2)
O10_8 O 0.55947(17) 0.84696(12) 0.58470(2)
O12_8 O 0.77386(17) 0.95416(12) 0.58197(2)
O15_9 O 0.63651(21) 0.73318(17) 0.56194(2)
C16_11 C 0.31681(23) 0.88885(17) 0.57044(3)
C17_11 C 0.48133(24) 0.94892(18) 0.53595(4)
C18_11 C 0.57860(23) 0.87546(17) 0.56960(3)
C19_11 C 0.41144(25) 0.93798(18) 0.54487(4)
H8_11 H 0.3730 0.9504 0.5393
C20_11 C 0.48111(25) 0.91771(18) 0.50427(4)
C22_11 C 0.53642(24) 0.93064(17) 0.54421(3)
H9_11 H 0.5845 0.9378 0.5382
C23_11 C 0.52241(23) 0.90172(16) 0.56128(3)
C24_11 C 0.49322(25) 0.97619(19) 0.51743(4)
O16_11 O 0.79014(27) 0.8843(2) 0.54659(4)
C25_11 C 0.45194(24) 0.89132(18) 0.57000(4)
H10_11 H 0.4419 0.8718 0.5817
C27_11 C 0.39664(24) 0.90934(18) 0.56172(3)
C28_11 C 0.46134(25) 0.83488(18) 0.50803(4)
H12_11 H 0.4562 0.8175 0.5198
C30_10 C 0.4496(3) 0.7802(2) 0.49537(4)
H14_10 H 0.4376 0.7252 0.4982
O1_12 O 0.75517(12) 0.63803(18) 0.43947(2)
C1_12 C 0.42796(15) 0.31681(23) 0.42956(3)
C2_12 C 0.53241(16) 0.48133(24) 0.46405(4)
C3_12 C 0.70314(16) 0.57860(23) 0.43040(3)
C4_12 C 0.47346(17) 0.41144(25) 0.45513(4)
H1_12 H 0.4226 0.3730 0.4607
C5_12 C 0.56340(17) 0.48111(25) 0.49573(4)
C6_11 C 0.45507(18) 0.51161(25) 0.48669(4)
C7_12 C 0.60578(17) 0.53642(24) 0.45579(3)
H2_12 H 0.6467 0.5845 0.4618
C8_12 C 0.62069(16) 0.52241(23) 0.43872(3)
C9_12 C 0.51703(16) 0.49322(25) 0.48257(4)
O5_12 O 0.90584(18) 0.79014(27) 0.45341(4)
C10_12 C 0.56062(16) 0.45194(24) 0.43000(4)
H3_12 H 0.5701 0.4419 0.4183
C11_11 C 0.4082(2) 0.5263(3) 0.47365(4)
H4_11 H 0.4196 0.5228 0.4617
C12_12 C 0.48730(16) 0.39664(24) 0.43828(3)
C13_12 C 0.62646(18) 0.46134(25) 0.49197(4)
H5_12 H 0.6387 0.4562 0.4802
C14_11 C 0.3488(2) 0.5449(3) 0.47785(4)
H6_11 H 0.3189 0.5543 0.4689
C15_10 C 0.6694(2) 0.4496(3) 0.50463(4)
H7_10 H 0.7124 0.4376 0.5018
O6_12 O 0.24483(12) 0.36197(18) 0.56053(2)
O7_9 O 0.55260(11) 0.69549(16) 0.58527(2)
O9_9 O 0.02882(16) 0.21927(20) 0.58140(2)
O10_9 O 0.28749(12) 0.44053(17) 0.58470(2)
O12_9 O 0.18029(12) 0.22614(17) 0.58197(2)
C16_12 C 0.57204(15) 0.68319(23) 0.57044(3)
C17_12 C 0.46759(16) 0.51867(24) 0.53595(4)
C18_12 C 0.29686(16) 0.42140(23) 0.56960(3)
C19_12 C 0.52654(17) 0.58856(25) 0.54487(4)
H8_12 H 0.5774 0.6270 0.5393
C20_12 C 0.43660(17) 0.51889(25) 0.50427(4)
C21_10 C 0.54493(18) 0.48839(25) 0.51331(4)
C22_12 C 0.39422(17) 0.46358(24) 0.54421(3)
H9_12 H 0.3533 0.4155 0.5382
C23_12 C 0.37931(16) 0.47759(23) 0.56128(3)
C24_12 C 0.48297(16) 0.50678(25) 0.51743(4)
O16_12 O 0.09416(18) 0.20986(27) 0.54659(4)
C25_12 C 0.43938(16) 0.54806(24) 0.57000(4)
H10_12 H 0.4299 0.5581 0.5817
C26_10 C 0.5918(2) 0.4737(3) 0.52635(4)
H11_10 H 0.5804 0.4772 0.5383
C27_12 C 0.51270(16) 0.60336(24) 0.56172(3)
C28_12 C 0.37354(18) 0.53866(25) 0.50803(4)
H12_12 H 0.3613 0.5438 0.5198
C29_10 C 0.6512(2) 0.4551(3) 0.52215(4)
H13_10 H 0.6811 0.4457 0.5311
C30_11 C 0.3306(2) 0.5504(3) 0.49537(4)
H14_11 H 0.2876 0.5624 0.4982
O1_13 O 0.45047(13) 0.02864(18) 0.72720(2)
O3_8 O 0.48637(12) 0.10720(17) 0.75137(2)
C1_13 C 0.44448(17) 0.34986(23) 0.73711(3)
C2_13 C 0.38441(18) 0.18534(24) 0.70262(4)
C3_13 C 0.45787(17) 0.08807(23) 0.73627(3)
C4_13 C 0.39535(18) 0.25523(25) 0.71154(4)
H1_13 H 0.3829 0.2937 0.7060
C5_13 C 0.41562(18) 0.18556(25) 0.67094(4)
C6_12 C 0.27679(18) 0.15506(25) 0.67998(4)
C7_13 C 0.40269(17) 0.13025(24) 0.71088(3)
H2_13 H 0.3955 0.0822 0.7049
C8_13 C 0.43161(16) 0.14426(23) 0.72795(3)
C9_13 C 0.35714(19) 0.17345(25) 0.68410(4)
C10_13 C 0.44201(18) 0.21473(24) 0.73667(4)
H3_13 H 0.4615 0.2248 0.7484
C11_12 C 0.2152(2) 0.1404(3) 0.69302(4)
H4_12 H 0.2301 0.1439 0.7050
C12_13 C 0.42399(18) 0.27003(24) 0.72839(3)
C13_13 C 0.49845(18) 0.20533(25) 0.67470(4)
H5_13 H 0.5158 0.2105 0.6865
C14_12 C 0.1372(2) 0.1218(3) 0.68882(4)
H6_12 H 0.0979 0.1124 0.6978
C15_11 C 0.5531(2) 0.2171(3) 0.66204(4)
H7_11 H 0.6081 0.2291 0.6649
O6_13 O 0.21619(13) 0.30470(18) 0.60614(2)
O14_10 O 0.60015(17) 0.03016(21) 0.72861(2)
O15_10 O 0.06651(17) 0.30318(21) 0.60473(2)
C17_13 C 0.28225(18) 0.14800(24) 0.63072(4)
C18_13 C 0.20879(17) 0.24527(23) 0.59707(3)
C19_13 C 0.27131(18) 0.07811(25) 0.62180(4)
H8_13 H 0.2837 0.0397 0.6274
C20_13 C 0.25104(18) 0.14778(25) 0.66240(4)
C21_11 C 0.38987(18) 0.17828(25) 0.65336(4)
C22_13 C 0.26397(17) 0.20309(24) 0.62246(3)
H9_13 H 0.2711 0.2512 0.6285
C23_13 C 0.23505(16) 0.18908(23) 0.60539(3)
C24_13 C 0.30952(19) 0.15989(25) 0.64924(4)
O16_13 O 0.2176(2) 0.45681(27) 0.62008(4)
C25_13 C 0.22465(18) 0.11861(24) 0.59667(4)
H10_13 H 0.2051 0.1086 0.5850
C26_11 C 0.4514(2) 0.1930(3) 0.64032(4)
H11_11 H 0.4365 0.1895 0.6284
C27_13 C 0.24267(18) 0.06331(24) 0.60495(3)
C28_13 C 0.16821(18) 0.12801(25) 0.65864(4)
H12_13 H 0.1508 0.1229 0.6469
C29_11 C 0.5294(2) 0.2116(3) 0.64452(4)
H13_11 H 0.5687 0.2210 0.6356
C30_12 C 0.1135(2) 0.1163(3) 0.67130(4)
H14_12 H 0.0585 0.1043 0.6685
O5_13 O 0.4490(2) 0.87653(27) 0.71326(4)
O11_8 O 0.37918(12) 0.89280(17) 0.74863(2)
C16_13 C 0.22218(17) 0.98348(23) 0.59623(3)
O5_14 O 0.12347(27) 0.57251(18) 0.71326(4)
O8_9 O 0.11407(20) 0.63784(16) 0.74806(2)
O11_9 O 0.10720(17) 0.48637(12) 0.74863(2)
C16_14 C 0.01652(23) 0.23871(15) 0.59623(3)
O1_14 O 0.97136(18) 0.42184(12) 0.72720(2)
O2_9 O 0.63784(16) 0.11407(11) 0.75194(2)
O3_9 O 0.89280(17) 0.37918(12) 0.75137(2)
C1_14 C 0.65014(23) 0.09463(15) 0.73711(3)
C2_14 C 0.81466(24) 0.19908(16) 0.70262(4)
C3_14 C 0.91193(23) 0.36981(16) 0.73627(3)
C4_14 C 0.74477(25) 0.14013(17) 0.71154(4)
H1_14 H 0.7063 0.0893 0.7060
C5_14 C 0.81444(25) 0.23007(17) 0.67094(4)
C6_13 C 0.84494(25) 0.12174(18) 0.67998(4)
C7_14 C 0.86975(24) 0.27245(17) 0.71088(3)
H2_14 H 0.9178 0.3134 0.7049
C8_14 C 0.85574(23) 0.28736(16) 0.72795(3)
C9_14 C 0.82655(25) 0.18370(16) 0.68410(4)
C10_14 C 0.78527(24) 0.22729(16) 0.73667(4)
H3_14 H 0.7752 0.2368 0.7484
C11_13 C 0.8596(3) 0.0749(2) 0.69302(4)
H4_13 H 0.8561 0.0863 0.7050
C12_14 C 0.72997(24) 0.15397(16) 0.72839(3)
C13_14 C 0.79467(25) 0.29313(18) 0.67470(4)
H5_14 H 0.7895 0.3054 0.6865
C14_13 C 0.8782(3) 0.0155(2) 0.68882(4)
C15_12 C 0.7829(3) 0.3361(2) 0.66204(4)
H7_12 H 0.7709 0.3791 0.6649
C17_14 C 0.85200(24) 0.13426(16) 0.63072(4)
C19_14 C 0.92189(25) 0.19321(17) 0.62180(4)
H8_14 H 0.9603 0.2441 0.6274
C20_14 C 0.85222(25) 0.10327(17) 0.66240(4)
C21_12 C 0.82172(25) 0.21160(18) 0.65336(4)
C22_14 C 0.79691(24) 0.06089(17) 0.62246(3)
H9_14 H 0.7488 0.0200 0.6285
C23_14 C 0.81092(23) 0.04598(16) 0.60539(3)
C24_14 C 0.84011(25) 0.14964(16) 0.64924(4)
C25_14 C 0.88139(24) 0.10605(16) 0.59667(4)
H10_14 H 0.8914 0.0966 0.5850
C26_12 C 0.8070(3) 0.2585(2) 0.64032(4)
H11_12 H 0.8105 0.2471 0.6284
C27_14 C 0.93669(24) 0.17937(16) 0.60495(3)
C28_14 C 0.87199(25) 0.04021(18) 0.65864(4)
H12_14 H 0.8771 0.0280 0.6469
C29_12 C 0.7884(3) 0.3179(2) 0.64452(4)
H13_12 H 0.7790 0.3478 0.6356
H6_13 H 0.8876 0.9856 0.6978
O6_14 O 0.69530(18) 0.91150(12) 0.60614(2)
C18_14 C 0.75473(23) 0.96353(16) 0.59707(3)
O16_14 O 0.54319(27) 0.76083(18) 0.62008(4)
C30_13 C 0.8837(3) 0.9973(2) 0.67130(4)
H14_13 H 0.8957 0.9543 0.6685
C1_15 C 0.01652(23) 0.77782(17) 0.09623(3)
O16_15 O 0.12347(27) 0.5510(2) 0.21326(4)
O1_15 O 0.69530(18) 0.78381(13) 0.10614(2)
C2_15 C 0.85200(24) 0.71775(18) 0.13072(4)
C3_15 C 0.75473(23) 0.79121(17) 0.09707(3)
C4_15 C 0.92189(25) 0.72869(18) 0.12180(4)
H1_15 H 0.9603 0.7163 0.1274
C5_15 C 0.85222(25) 0.74896(18) 0.16240(4)
C6_14 C 0.82172(25) 0.61013(18) 0.15336(4)
C7_15 C 0.79691(24) 0.73603(17) 0.12246(3)
H2_15 H 0.7488 0.7289 0.1285
C8_15 C 0.81092(23) 0.76495(16) 0.10539(3)
C9_15 C 0.84011(25) 0.69048(19) 0.14924(4)
O5_15 O 0.54319(27) 0.7824(2) 0.12008(4)
C10_15 C 0.88139(24) 0.77535(18) 0.09667(4)
H3_15 H 0.8914 0.7949 0.0850
C11_14 C 0.8070(3) 0.5486(2) 0.14032(4)
H4_14 H 0.8105 0.5635 0.1284
C12_15 C 0.93669(24) 0.75733(18) 0.10495(3)
C13_15 C 0.87199(25) 0.83179(18) 0.15864(4)
H5_15 H 0.8771 0.8492 0.1469
C14_14 C 0.7884(3) 0.4706(2) 0.14452(4)
H6_14 H 0.7790 0.4313 0.1356
C15_13 C 0.8837(3) 0.8865(2) 0.17130(4)
H7_13 H 0.8957 0.9415 0.1685
O6_15 O 0.97136(18) 0.54953(13) 0.22720(2)
O14_11 O 0.69682(21) 0.93349(17) 0.10473(2)
O15_11 O 0.96984(21) 0.39985(17) 0.22861(2)
C16_15 C 0.65014(23) 0.55552(17) 0.23711(3)
C17_15 C 0.81466(24) 0.61559(18) 0.20262(4)
C18_15 C 0.91193(23) 0.54213(17) 0.23627(3)
C19_15 C 0.74477(25) 0.60465(18) 0.21154(4)
H8_15 H 0.7063 0.6171 0.2060
C20_15 C 0.81444(25) 0.58438(18) 0.17094(4)
C21_13 C 0.84494(25) 0.72321(18) 0.17998(4)
C22_15 C 0.86975(24) 0.59731(17) 0.21088(3)
H9_15 H 0.9178 0.6045 0.2049
C23_15 C 0.85574(23) 0.56839(16) 0.22795(3)
C24_15 C 0.82655(25) 0.64286(19) 0.18410(4)
C25_15 C 0.78527(24) 0.55799(18) 0.23667(4)
H10_15 H 0.7752 0.5385 0.2484
C26_13 C 0.8596(3) 0.7848(2) 0.19302(4)
H11_13 H 0.8561 0.7699 0.2050
C27_15 C 0.72997(24) 0.57601(18) 0.22839(3)
C28_15 C 0.79467(25) 0.50155(18) 0.17470(4)
H12_15 H 0.7895 0.4842 0.1865
C29_13 C 0.8782(3) 0.8628(2) 0.18882(4)
H13_13 H 0.8876 0.9021 0.1978
C30_14 C 0.7829(3) 0.4469(2) 0.16204(4)
H14_14 H 0.7709 0.3919 0.1649
O1_16 O 0.08850(12) 0.30470(18) 0.10614(2)
C3_16 C 0.03647(16) 0.24527(23) 0.09707(3)
O5_16 O 0.23917(18) 0.45681(27) 0.12008(4)
C15_14 C 0.0027(2) 0.1163(3) 0.17130(4)
H7_14 H 0.0457 0.1043 0.1685
H13_14 H 0.0144 0.1124 0.1978
C2_16 C 0.86574(16) 0.14800(24) 0.13072(4)
C4_16 C 0.80679(17) 0.07811(25) 0.12180(4)
H1_16 H 0.7559 0.0397 0.1274
C5_16 C 0.89673(17) 0.14778(25) 0.16240(4)
C6_15 C 0.78840(18) 0.17828(25) 0.15336(4)
C7_16 C 0.93911(17) 0.20309(24) 0.12246(3)
H2_16 H 0.9800 0.2512 0.1285
C8_16 C 0.95402(16) 0.18908(23) 0.10539(3)
C9_16 C 0.85036(16) 0.15989(25) 0.14924(4)
C10_16 C 0.89395(16) 0.11861(24) 0.09667(4)
H3_16 H 0.9034 0.1086 0.0850
C11_15 C 0.7415(2) 0.1930(3) 0.14032(4)
H4_15 H 0.7529 0.1895 0.1284
C12_16 C 0.82063(16) 0.06331(24) 0.10495(3)
C13_16 C 0.95979(18) 0.12801(25) 0.15864(4)
H5_16 H 0.9720 0.1229 0.1469
C14_15 C 0.6821(2) 0.2116(3) 0.14452(4)
H6_15 H 0.6522 0.2210 0.1356
O6_16 O 0.57816(12) 0.02864(18) 0.22720(2)
C16_16 C 0.90537(15) 0.34986(23) 0.23711(3)
C17_16 C 0.80092(16) 0.18534(24) 0.20262(4)
C18_16 C 0.63019(16) 0.08807(23) 0.23627(3)
C19_16 C 0.85987(17) 0.25523(25) 0.21154(4)
H8_16 H 0.9107 0.2937 0.2060
C20_16 C 0.76993(17) 0.18556(25) 0.17094(4)
C21_14 C 0.87826(18) 0.15506(25) 0.17998(4)
C22_16 C 0.72755(17) 0.13025(24) 0.21088(3)
H9_16 H 0.6866 0.0822 0.2049
C23_16 C 0.71264(16) 0.14426(23) 0.22795(3)
C24_16 C 0.81630(16) 0.17345(25) 0.18410(4)
C25_16 C 0.77271(16) 0.21473(24) 0.23667(4)
H10_16 H 0.7632 0.2248 0.2484
C26_14 C 0.9251(2) 0.1404(3) 0.19302(4)
H11_14 H 0.9137 0.1439 0.2050
C27_16 C 0.84603(16) 0.27003(24) 0.22839(3)
C28_16 C 0.70687(18) 0.20533(25) 0.17470(4)
H12_16 H 0.6946 0.2105 0.1865
C29_14 C 0.9845(2) 0.1218(3) 0.18882(4)
C30_15 C 0.6639(2) 0.2171(3) 0.16204(4)
H14_15 H 0.6209 0.2291 0.1649
C1_16 C 0.76129(15) 0.98348(23) 0.09623(3)
O16_16 O 0.42749(18) 0.87653(27) 0.21326(4)
O1_17 O 0.02864(18) 0.45047(13) 0.77280(2)
C1_17 C 0.34986(23) 0.44448(17) 0.76289(3)
C2_17 C 0.18534(24) 0.38441(18) 0.79738(4)
C3_17 C 0.08807(23) 0.45787(17) 0.76373(3)
C4_17 C 0.25523(25) 0.39535(18) 0.78846(4)
H1_17 H 0.2937 0.3829 0.7940
C5_17 C 0.18556(25) 0.41562(18) 0.82906(4)
C6_16 C 0.15506(25) 0.27679(18) 0.82002(4)
C7_17 C 0.13025(24) 0.40269(17) 0.78912(3)
H2_17 H 0.0822 0.3955 0.7951
C8_17 C 0.14426(23) 0.43161(16) 0.77205(3)
C9_17 C 0.17345(25) 0.35714(19) 0.81590(4)
C10_17 C 0.21473(24) 0.44201(18) 0.76333(4)
H3_17 H 0.2248 0.4615 0.7516
C11_16 C 0.1404(3) 0.2152(2) 0.80698(4)
H4_16 H 0.1439 0.2301 0.7950
C12_17 C 0.27003(24) 0.42399(18) 0.77161(3)
C13_17 C 0.20533(25) 0.49845(18) 0.82530(4)
H5_17 H 0.2105 0.5158 0.8135
C14_16 C 0.1218(3) 0.1372(2) 0.81118(4)
H6_16 H 0.1124 0.0979 0.8022
C15_15 C 0.2171(3) 0.5531(2) 0.83796(4)
H7_15 H 0.2291 0.6081 0.8351
O6_17 O 0.30470(18) 0.21619(13) 0.89386(2)
O14_12 O 0.03016(21) 0.60015(17) 0.77139(2)
O15_12 O 0.30318(21) 0.06651(17) 0.89527(2)
C17_17 C 0.14800(24) 0.28225(18) 0.86928(4)
C18_17 C 0.24527(23) 0.20879(17) 0.90293(3)
C19_17 C 0.07811(25) 0.27131(18) 0.87820(4)
H8_17 H 0.0397 0.2837 0.8726
C20_17 C 0.14778(25) 0.25104(18) 0.83760(4)
C21_15 C 0.17828(25) 0.38987(18) 0.84664(4)
C22_17 C 0.20309(24) 0.26397(17) 0.87754(3)
H9_17 H 0.2512 0.2711 0.8715
C23_17 C 0.18908(23) 0.23505(16) 0.89461(3)
C24_17 C 0.15989(25) 0.30952(19) 0.85076(4)
O16_17 O 0.45681(27) 0.2176(2) 0.87992(4)
C25_17 C 0.11861(24) 0.22465(18) 0.90333(4)
H10_17 H 0.1086 0.2051 0.9150
C26_15 C 0.1930(3) 0.4514(2) 0.85968(4)
H11_15 H 0.1895 0.4365 0.8716
C27_17 C 0.06331(24) 0.24267(18) 0.89505(3)
C28_17 C 0.12801(25) 0.16821(18) 0.84136(4)
H12_17 H 0.1229 0.1508 0.8531
C29_15 C 0.2116(3) 0.5294(2) 0.85548(4)
H13_15 H 0.2210 0.5687 0.8644
C30_16 C 0.1163(3) 0.1135(2) 0.82870(4)
H14_16 H 0.1043 0.0585 0.8315
O5_17 O 0.87653(27) 0.4490(2) 0.78674(4)
C16_17 C 0.98348(23) 0.22218(17) 0.90377(3)
O5_18 O 0.57251(18) 0.12347(27) 0.78674(4)
C16_18 C 0.23871(15) 0.01652(23) 0.90377(3)
O1_18 O 0.42184(12) 0.97136(18) 0.77280(2)
C1_18 C 0.09463(15) 0.65014(23) 0.76289(3)
C2_18 C 0.19908(16) 0.81466(24) 0.79738(4)
C3_18 C 0.36981(16) 0.91193(23) 0.76373(3)
C4_18 C 0.14013(17) 0.74477(25) 0.78846(4)
H1_18 H 0.0893 0.7063 0.7940
C5_18 C 0.23007(17) 0.81444(25) 0.82906(4)
C6_17 C 0.12174(18) 0.84494(25) 0.82002(4)
C7_18 C 0.27245(17) 0.86975(24) 0.78912(3)
H2_18 H 0.3134 0.9178 0.7951
C8_18 C 0.28736(16) 0.85574(23) 0.77205(3)
C9_18 C 0.18370(16) 0.82655(25) 0.81590(4)
C10_18 C 0.22729(16) 0.78527(24) 0.76333(4)
H3_18 H 0.2368 0.7752 0.7516
C11_17 C 0.0749(2) 0.8596(3) 0.80698(4)
H4_17 H 0.0863 0.8561 0.7950
C12_18 C 0.15397(16) 0.72997(24) 0.77161(3)
C13_18 C 0.29313(18) 0.79467(25) 0.82530(4)
H5_18 H 0.3054 0.7895 0.8135
C14_17 C 0.0155(2) 0.8782(3) 0.81118(4)
C15_16 C 0.3361(2) 0.7829(3) 0.83796(4)
H7_16 H 0.3791 0.7709 0.8351
C17_18 C 0.13426(16) 0.85200(24) 0.86928(4)
C19_18 C 0.19321(17) 0.92189(25) 0.87820(4)
H8_18 H 0.2441 0.9603 0.8726
C20_18 C 0.10327(17) 0.85222(25) 0.83760(4)
C21_16 C 0.21160(18) 0.82172(25) 0.84664(4)
C22_18 C 0.06089(17) 0.79691(24) 0.87754(3)
H9_18 H 0.0200 0.7488 0.8715
C23_18 C 0.04598(16) 0.81092(23) 0.89461(3)
C24_18 C 0.14964(16) 0.84011(25) 0.85076(4)
C25_18 C 0.10605(16) 0.88139(24) 0.90333(4)
H10_18 H 0.0966 0.8914 0.9150
C26_16 C 0.2585(2) 0.8070(3) 0.85968(4)
H11_16 H 0.2471 0.8105 0.8716
C27_18 C 0.17937(16) 0.93669(24) 0.89505(3)
C28_18 C 0.04021(18) 0.87199(25) 0.84136(4)
H12_18 H 0.0280 0.8771 0.8531
C29_16 C 0.3179(2) 0.7884(3) 0.85548(4)
H13_16 H 0.3478 0.7790 0.8644
H6_17 H 0.9856 0.8876 0.8022
O6_18 O 0.91150(12) 0.69530(18) 0.89386(2)
C18_18 C 0.96353(16) 0.75473(23) 0.90293(3)
O16_18 O 0.76083(18) 0.54319(27) 0.87992(4)
C30_17 C 0.9973(2) 0.8837(3) 0.82870(4)
H14_17 H 0.9543 0.8957 0.8315
C15_17 C 0.3306(2) 0.7802(2) 0.99537(4)
H7_17 H 0.2876 0.7252 0.9982
C21_17 C 0.45507(18) 0.94346(18) 0.98669(4)
C26_17 C 0.4082(2) 0.8819(2) 0.97365(4)
H11_17 H 0.4196 0.8968 0.9617
C29_17 C 0.3488(2) 0.8039(2) 0.97785(4)
H13_17 H 0.3189 0.7646 0.9689
C15_18 C 0.2198(2) 0.5504(3) 0.99537(4)
H7_18 H 0.2748 0.5624 0.9982
C21_18 C 0.05654(18) 0.51161(25) 0.98669(4)
C26_18 C 0.1181(2) 0.5263(3) 0.97365(4)
H11_18 H 0.1032 0.5228 0.9617
C29_18 C 0.1961(2) 0.5449(3) 0.97785(4)
H13_18 H 0.2354 0.5543 0.9689
C6_18 C 0.94346(18) 0.48839(25) 0.01331(4)
C11_18 C 0.8819(2) 0.4737(3) 0.02635(4)
H4_18 H 0.8968 0.4772 0.0383
C14_18 C 0.8039(2) 0.4551(3) 0.02215(4)
H6_18 H 0.7646 0.4457 0.0311
C30_18 C 0.7802(2) 0.4496(3) 0.00463(4)
H14_18 H 0.7252 0.4376 0.0018
loop_
_geom_bond_atom_site_label_1
_geom_bond_atom_site_label_2
_geom_bond_site_symmetry_1
_geom_bond_site_symmetry_2
C11 C6 1_555 1_555
H4 C11 1_555 1_555
C14 C11 1_555 1_555
H6 C14 1_555 1_555
C30 C14 1_555 1_555
H14 C30 1_555 1_555
Cu2 Cu8 1_555 1_555
Cu6 Cu7 1_555 1_555
Cu7 O13 1_555 1_555
Cu8 O10 1_555 1_555
O6 Cu2 1_555 1_555
O7 Cu6 1_555 1_555
O9 Cu2 1_555 1_555
O10 C18 1_555 1_555
O12 Cu2 1_555 1_555
O13 C16 1_555 1_555
O15 Cu2 1_555 1_555
C16 O7 1_555 1_555
C17 C19 1_555 1_555
C18 O6 1_555 1_555
C19 H8 1_555 1_555
C22 C17 1_555 1_555
H9 C22 1_555 1_555
C23 C18 1_555 1_555
C24 C17 1_555 1_555
O16 Cu2 1_555 1_555
C25 C23 1_555 1_555
H10 C25 1_555 1_555
C27 C16 1_555 1_555
C28 C20 1_555 1_555
H12 C28 1_555 1_555
C19 C27 1_555 1_555
C20 C24 1_555 1_555
C22 C23 1_555 1_555
C25 C27 1_555 1_555
Cu1 O1 1_555 1_555
O1 C3 1_555 1_555
O2 C1 1_555 1_555
O3 C3 1_555 1_555
O4 C1 1_555 1_555
C1 C12 1_555 1_555
C2 C4 1_555 1_555
C3 C8 1_555 1_555
C4 H1 1_555 1_555
C5 C9 1_555 1_555
C7 C2 1_555 1_555
H2 C7 1_555 1_555
C8 C7 1_555 1_555
C9 C2 1_555 1_555
O5 Cu1 1_555 1_555
C10 C8 1_555 1_555
H3 C10 1_555 1_555
C12 C4 1_555 1_555
C13 C5 1_555 1_555
H5 C13 1_555 1_555
Cu3 Cu1 1_555 1_555
Cu4 O2 1_555 1_555
Cu5 O4 1_555 1_555
O8 Cu1 1_555 1_555
O11 Cu1 1_555 1_555
O14 Cu1 1_555 1_555
O3 Cu3 1_555 1_555
C10 C12 1_555 1_555
Cu4 Cu5 1_555 1_555
Cu1_2 O1_2 1_555 1_555
O1_2 C3_2 1_555 1_555
O2_2 C1_2 1_555 1_555
O3_2 C3_2 1_555 1_555
O14 C1_2 1_555 1_555
C1_2 C12_2 1_555 1_555
C2_2 C4_2 1_555 1_555
C3_2 C8_2 1_555 1_555
C4_2 H1_2 1_555 1_555
C5_2 C9_2 1_555 1_555
C7_2 C2_2 1_555 1_555
H2_2 C7_2 1_555 1_555
C8_2 C7_2 1_555 1_555
C9_2 C2_2 1_555 1_555
O5_2 Cu1_2 1_555 1_555
C10_2 C8_2 1_555 1_555
H3_2 C10_2 1_555 1_555
C12_2 C4_2 1_555 1_555
C13_2 C5_2 1_555 1_555
H5_2 C13_2 1_555 1_555
Cu3_2 Cu1_2 1_555 1_555
Cu3 O2_2 1_555 1_555
O8_2 Cu1_2 1_555 1_555
O11_2 Cu1_2 1_555 1_555
O14_2 Cu1_2 1_555 1_555
O3_2 Cu3_2 1_555 1_555
C10_2 C12_2 1_555 1_555
Cu2_2 Cu8_2 1_555 1_555
Cu8_2 O10_2 1_555 1_555
O6_2 Cu2_2 1_555 1_555
O7_2 Cu8 1_555 1_555
O9_2 Cu2_2 1_555 1_555
O10_2 C18_2 1_555 1_555
O12_2 Cu2_2 1_555 1_555
O15 C16_2 1_555 1_555
O15_2 Cu2_2 1_555 1_555
C16_2 O7_2 1_555 1_555
C17_2 C19_2 1_555 1_555
C18_2 O6_2 1_555 1_555
C19_2 H8_2 1_555 1_555
C22_2 C17_2 1_555 1_555
H9_2 C22_2 1_555 1_555
C23_2 C18_2 1_555 1_555
C24_2 C17_2 1_555 1_555
O16_2 Cu2_2 1_555 1_555
C25_2 C23_2 1_555 1_555
H10_2 C25_2 1_555 1_555
C27_2 C16_2 1_555 1_555
C28_2 C20_2 1_555 1_555
H12_2 C28_2 1_555 1_555
C19_2 C27_2 1_555 1_555
C20_2 C24_2 1_555 1_555
C22_2 C23_2 1_555 1_555
C25_2 C27_2 1_555 1_555
Cu5 O1_3 1_555 1_555
O1_3 C3_3 1_555 1_555
O2_3 C1_3 1_555 1_555
O3_3 C3_3 1_555 1_555
O14_2 C1_3 1_555 1_555
C1_3 C12_3 1_555 1_555
C2_3 C4_3 1_555 1_555
C3_3 C8_3 1_555 1_555
C4_3 H1_3 1_555 1_555
C5_3 C9_3 1_555 1_555
C6_2 C9_3 1_555 1_555
C7_3 C2_3 1_555 1_555
H2_3 C7_3 1_555 1_555
C8_3 C7_3 1_555 1_555
C9_3 C2_3 1_555 1_555
O5_3 Cu5 1_555 1_555
C10_3 C8_3 1_555 1_555
H3_3 C10_3 1_555 1_555
C11_2 C6_2 1_555 1_555
H4_2 C11_2 1_555 1_555
C12_3 C4_3 1_555 1_555
C13_3 C5_3 1_555 1_555
H5_3 C13_3 1_555 1_555
C14_2 C11_2 1_555 1_555
H6_2 C14_2 1_555 1_555
Cu3_2 O2_3 1_555 1_555
O8_3 Cu5 1_555 1_555
O11_3 Cu5 1_555 1_555
C30_2 C14_2 1_555 1_555
H14_2 C30_2 1_555 1_555
O3_3 Cu4 1_555 1_555
C10_3 C12_3 1_555 1_555
H7 C15 1_555 1_555
Cu6 O10_3 1_555 1_555
O6_3 Cu7 1_555 1_555
O7_3 Cu8_2 1_555 1_555
O9_3 Cu7 1_555 1_555
O10_3 C18_3 1_555 1_555
O12_3 Cu7 1_555 1_555
O15_2 C16_3 1_555 1_555
C16_3 O7_3 1_555 1_555
C17_3 C19_3 1_555 1_555
C18_3 O6_3 1_555 1_555
C19_3 H8_3 1_555 1_555
C22_3 C17_3 1_555 1_555
H9_3 C22_3 1_555 1_555
C23_3 C18_3 1_555 1_555
C24_3 C17_3 1_555 1_555
O16_3 Cu7 1_555 1_555
C25_3 C23_3 1_555 1_555
H10_3 C25_3 1_555 1_555
C26 C21 1_555 1_555
H11 C26 1_555 1_555
C27_3 C16_3 1_555 1_555
C28_3 C20_3 1_555 1_555
H12_3 C28_3 1_555 1_555
C29 C15 1_555 1_555
H13 C29 1_555 1_555
C19_3 C27_3 1_555 1_555
C20_3 C24_3 1_555 1_555
C21 C24_3 1_555 1_555
C22_3 C23_3 1_555 1_555
C25_3 C27_3 1_555 1_555
C26 C29 1_555 1_555
C11_3 C6_3 1_555 1_555
H4_3 C11_3 1_555 1_555
C14_3 C11_3 1_555 1_555
H6_3 C14_3 1_555 1_555
Cu2_3 Cu8_3 1_555 1_555
Cu6_2 Cu7_2 1_555 1_555
Cu7_2 O13_2 1_555 1_555
Cu8_3 O10_4 1_555 1_555
O6_4 Cu2_3 1_555 1_555
O7_4 Cu6_2 1_555 1_555
O9_4 Cu2_3 1_555 1_555
O10_4 C18_4 1_555 1_555
O12_4 Cu2_3 1_555 1_555
O13_2 C16_4 1_555 1_555
O15_3 Cu2_3 1_555 1_555
C16_4 O7_4 1_555 1_555
C17_4 C19_4 1_555 1_555
C18_4 O6_4 1_555 1_555
C19_4 H8_4 1_555 1_555
C20_4 C6_3 1_555 1_555
C22_4 C17_4 1_555 1_555
H9_4 C22_4 1_555 1_555
C23_4 C18_4 1_555 1_555
C24_4 C17_4 1_555 1_555
O16_4 Cu2_3 1_555 1_555
C25_4 C23_4 1_555 1_555
H10_4 C25_4 1_555 1_555
C27_4 C16_4 1_555 1_555
C28_4 C20_4 1_555 1_555
H12_4 C28_4 1_555 1_555
C30_3 C14_3 1_555 1_555
H14_3 C30_3 1_555 1_555
C19_4 C27_4 1_555 1_555
C20_4 C24_4 1_555 1_555
C22_4 C23_4 1_555 1_555
C25_4 C27_4 1_555 1_555
C28_4 C30_3 1_555 1_555
Cu1_3 O1_4 1_555 1_555
O1_4 C3_4 1_555 1_555
O2_4 C1_4 1_555 1_555
O3_4 C3_4 1_555 1_555
O4_2 C1_4 1_555 1_555
C1_4 C12_4 1_555 1_555
C2_4 C4_4 1_555 1_555
C3_4 C8_4 1_555 1_555
C4_4 H1_4 1_555 1_555
C5_4 C9_4 1_555 1_555
C7_4 C2_4 1_555 1_555
H2_4 C7_4 1_555 1_555
C8_4 C7_4 1_555 1_555
C9_4 C2_4 1_555 1_555
O5_4 Cu1_3 1_555 1_555
C10_4 C8_4 1_555 1_555
H3_4 C10_4 1_555 1_555
C12_4 C4_4 1_555 1_555
C13_4 C5_4 1_555 1_555
H5_4 C13_4 1_555 1_555
C15_2 C13_4 1_555 1_555
H7_2 C15_2 1_555 1_555
Cu3_3 Cu1_3 1_555 1_555
Cu4_2 O2_4 1_555 1_555
Cu5_2 O4_2 1_555 1_555
O8_4 Cu1_3 1_555 1_555
O11_4 Cu1_3 1_555 1_555
O14_3 Cu1_3 1_555 1_555
C21_2 C5_4 1_555 1_555
C26_2 C21_2 1_555 1_555
H11_2 C26_2 1_555 1_555
C29_2 C15_2 1_555 1_555
H13_2 C29_2 1_555 1_555
O3_4 Cu3_3 1_555 1_555
C10_4 C12_4 1_555 1_555
Cu4_2 Cu5_2 1_555 1_555
C26_2 C29_2 1_555 1_555
O2_5 C1_5 1_555 1_555
O4_3 C1_5 1_555 1_555
C1_5 C12_5 1_555 1_555
C2_5 C4_5 1_555 1_555
C4_5 H1_5 1_555 1_555
C5_5 C9_5 1_555 1_555
C6_4 C9_5 1_555 1_555
C7_5 C2_5 1_555 1_555
H2_5 C7_5 1_555 1_555
C8_5 C7_5 1_555 1_555
C9_5 C2_5 1_555 1_555
C10_5 C8_5 1_555 1_555
H3_5 C10_5 1_555 1_555
C11_4 C6_4 1_555 1_555
H4_4 C11_4 1_555 1_555
C12_5 C4_5 1_555 1_555
C13_5 C5_5 1_555 1_555
H5_5 C13_5 1_555 1_555
C14_4 C11_4 1_555 1_555
H6_4 C14_4 1_555 1_555
Cu2_4 Cu8_4 1_555 1_555
Cu4_3 O2_5 1_555 1_555
Cu5_3 O4_3 1_555 1_555
Cu8_4 O10_5 1_555 1_555
O6_5 Cu2_4 1_555 1_555
O7_5 Cu6_3 1_555 1_555
O9_5 Cu2_4 1_555 1_555
O10_5 C18_5 1_555 1_555
O12_5 Cu2_4 1_555 1_555
O13_3 C16_5 1_555 1_555
O15_4 Cu2_4 1_555 1_555
C16_5 O7_5 1_555 1_555
C17_5 C19_5 1_555 1_555
C18_5 O6_5 1_555 1_555
C19_5 H8_5 1_555 1_555
C20_5 C6_4 1_555 1_555
C21_3 C5_5 1_555 1_555
C22_5 C17_5 1_555 1_555
H9_5 C22_5 1_555 1_555
C23_5 C18_5 1_555 1_555
C24_5 C17_5 1_555 1_555
O16_5 Cu2_4 1_555 1_555
C25_5 C23_5 1_555 1_555
H10_5 C25_5 1_555 1_555
C26_3 C21_3 1_555 1_555
H11_3 C26_3 1_555 1_555
C27_5 C16_5 1_555 1_555
C28_5 C20_5 1_555 1_555
H12_5 C28_5 1_555 1_555
C30_4 C14_4 1_555 1_555
H14_4 C30_4 1_555 1_555
C10_5 C12_5 1_555 1_555
Cu4_3 Cu5_3 1_555 1_555
C19_5 C27_5 1_555 1_555
C20_5 C24_5 1_555 1_555
C21_3 C24_5 1_555 1_555
C22_5 C23_5 1_555 1_555
C25_5 C27_5 1_555 1_555
C26_3 C29_3 1_555 1_555
C28_5 C30_4 1_555 1_555
Cu3_3 O1_5 1_555 1_555
O1_5 C3_5 1_555 1_555
O11_4 C3_5 1_555 1_555
O5_5 Cu3_3 1_555 1_555
H7_3 C15_3 1_555 1_555
O8_5 Cu3_3 1_555 1_555
O14_4 Cu3_3 1_555 1_555
O8_4 C1_6 1_555 1_555
O14_4 C1_6 1_555 1_555
O9_6 Cu2_5 1_555 1_555
O12_6 Cu2_5 1_555 1_555
O16_6 Cu2_5 1_555 1_555
Cu4_2 O1_6 1_555 1_555
O1_6 C3_6 1_555 1_555
O3_5 C3_6 1_555 1_555
C2_6 C4_6 1_555 1_555
C3_6 C8_6 1_555 1_555
C4_6 H1_6 1_555 1_555
C5_6 C9_6 1_555 1_555
C6_5 C9_6 1_555 1_555
C7_6 C2_6 1_555 1_555
H2_6 C7_6 1_555 1_555
C8_6 C7_6 1_555 1_555
C9_6 C2_6 1_555 1_555
O5_6 Cu4_2 1_555 1_555
C10_6 C8_6 1_555 1_555
H3_6 C10_6 1_555 1_555
C11_5 C6_5 1_555 1_555
H4_5 C11_5 1_555 1_555
C12_6 C4_6 1_555 1_555
C13_6 C5_6 1_555 1_555
H5_6 C13_6 1_555 1_555
C14_5 C11_5 1_555 1_555
H6_5 C14_5 1_555 1_555
C15_4 C13_6 1_555 1_555
H7_4 C15_4 1_555 1_555
Cu8_5 O10_6 1_555 1_555
O7_6 Cu8_4 1_555 1_555
O10_6 C18_6 1_555 1_555
O11_5 Cu4_2 1_555 1_555
O15_4 C16_6 1_555 1_555
O14_5 Cu4_2 1_555 1_555
C16_6 O7_6 1_555 1_555
C17_6 C19_6 1_555 1_555
C18_6 O6_6 1_555 1_555
C19_6 H8_6 1_555 1_555
C20_6 C6_5 1_555 1_555
C21_4 C5_6 1_555 1_555
C22_6 C17_6 1_555 1_555
H9_6 C22_6 1_555 1_555
C23_6 C18_6 1_555 1_555
C24_6 C17_6 1_555 1_555
C25_6 C23_6 1_555 1_555
H10_6 C25_6 1_555 1_555
C26_4 C21_4 1_555 1_555
H11_4 C26_4 1_555 1_555
C27_6 C16_6 1_555 1_555
C28_6 C20_6 1_555 1_555
H12_6 C28_6 1_555 1_555
C29_4 C15_4 1_555 1_555
H13_4 C29_4 1_555 1_555
C30_5 C14_5 1_555 1_555
H14_5 C30_5 1_555 1_555
O3_5 Cu5_2 1_555 1_555
C10_6 C12_6 1_555 1_555
C19_6 C27_6 1_555 1_555
C20_6 C24_6 1_555 1_555
C21_4 C24_6 1_555 1_555
C22_6 C23_6 1_555 1_555
C25_6 C27_6 1_555 1_555
C26_4 C29_4 1_555 1_555
C28_6 C30_5 1_555 1_555
Cu5_3 O1_7 1_555 1_555
O1_7 C3_7 1_555 1_555
O3_6 C3_7 1_555 1_555
O5_7 Cu5_3 1_555 1_555
H7_5 C15_5 1_555 1_555
O8_6 Cu5_3 1_555 1_555
O11_6 Cu5_3 1_555 1_555
O3_6 Cu4_3 1_555 1_555
C2_7 C4_7 1_555 1_555
C4_7 H1_7 1_555 1_555
C5_7 C9_7 1_555 1_555
C6_6 C9_7 1_555 1_555
C7_7 C2_7 1_555 1_555
H2_7 C7_7 1_555 1_555
C8_7 C7_7 1_555 1_555
C9_7 C2_7 1_555 1_555
C10_7 C8_7 1_555 1_555
H3_7 C10_7 1_555 1_555
C11_6 C6_6 1_555 1_555
H4_6 C11_6 1_555 1_555
C12_7 C4_7 1_555 1_555
C13_7 C5_7 1_555 1_555
H5_7 C13_7 1_555 1_555
C14_6 C11_6 1_555 1_555
H6_6 C14_6 1_555 1_555
Cu6_3 O10_7 1_555 1_555
O7_7 Cu8_5 1_555 1_555
O10_7 C18_7 1_555 1_555
O15_5 C16_7 1_555 1_555
C16_7 O7_7 1_555 1_555
C17_7 C19_7 1_555 1_555
C18_7 O6_7 1_555 1_555
C19_7 H8_7 1_555 1_555
C20_7 C6_6 1_555 1_555
C21_5 C5_7 1_555 1_555
C22_7 C17_7 1_555 1_555
H9_7 C22_7 1_555 1_555
C23_7 C18_7 1_555 1_555
C24_7 C17_7 1_555 1_555
C25_7 C23_7 1_555 1_555
H10_7 C25_7 1_555 1_555
C26_5 C21_5 1_555 1_555
H11_5 C26_5 1_555 1_555
C27_7 C16_7 1_555 1_555
C28_7 C20_7 1_555 1_555
H12_7 C28_7 1_555 1_555
C30_6 C14_6 1_555 1_555
H14_6 C30_6 1_555 1_555
C10_7 C12_7 1_555 1_555
C19_7 C27_7 1_555 1_555
C20_7 C24_7 1_555 1_555
C21_5 C24_7 1_555 1_555
C22_7 C23_7 1_555 1_555
C25_7 C27_7 1_555 1_555
C26_5 C29_5 1_555 1_555
C28_7 C30_6 1_555 1_555
O2_6 C1_7 1_555 1_555
O14_5 C1_7 1_555 1_555
Cu5_2 O2_6 1_555 1_555
O9_7 Cu7_3 1_555 1_555
O12_7 Cu7_3 1_555 1_555
O16_7 Cu7_3 1_555 1_555
O6_8 Cu8 1_555 1_555
O12 C18_8 1_555 1_555
O15_6 Cu8 1_555 1_555
C18_8 O6_8 1_555 1_555
O16_8 Cu8 1_555 1_555
H14_7 C30_7 1_555 1_555
Cu1_4 O1_8 1_555 1_555
O1_8 C3_8 1_555 1_555
O2_7 C1_8 1_555 1_555
O3_7 C3_8 1_555 1_555
O4_4 C1_8 1_555 1_555
C1_8 C12_8 1_555 1_555
C2_8 C4_8 1_555 1_555
C3_8 C8_8 1_555 1_555
C4_8 H1_8 1_555 1_555
C5_8 C9_8 1_555 1_555
C6_7 C9_8 1_555 1_555
C7_8 C2_8 1_555 1_555
H2_8 C7_8 1_555 1_555
C8_8 C7_8 1_555 1_555
C9_8 C2_8 1_555 1_555
O5_8 Cu1_4 1_555 1_555
C10_8 C8_8 1_555 1_555
H3_8 C10_8 1_555 1_555
C11_7 C6_7 1_555 1_555
H4_7 C11_7 1_555 1_555
C12_8 C4_8 1_555 1_555
C13_8 C5_8 1_555 1_555
H5_8 C13_8 1_555 1_555
C14_7 C11_7 1_555 1_555
C15_6 C13_8 1_555 1_555
H7_6 C15_6 1_555 1_555
Cu3_4 Cu1_4 1_555 1_555
Cu4_4 O2_7 1_555 1_555
Cu8_2 O13_4 1_555 1_555
O8_7 Cu1_4 1_555 1_555
O11_7 Cu1_4 1_555 1_555
O13_4 C16_8 1_555 1_555
O14_6 Cu1_4 1_555 1_555
C16_8 O9_2 1_555 1_555
C17_8 C19_8 1_555 1_555
C19_8 H8_8 1_555 1_555
C20_8 C6_7 1_555 1_555
C21_6 C5_8 1_555 1_555
C22_8 C17_8 1_555 1_555
H9_8 C22_8 1_555 1_555
C24_8 C17_8 1_555 1_555
C25_8 C23_8 1_555 1_555
H10_8 C25_8 1_555 1_555
C26_6 C21_6 1_555 1_555
H11_6 C26_6 1_555 1_555
C27_8 C16_8 1_555 1_555
C28_8 C20_8 1_555 1_555
H12_8 C28_8 1_555 1_555
C29_6 C15_6 1_555 1_555
H13_6 C29_6 1_555 1_555
O3_7 Cu3_4 1_555 1_555
C10_8 C12_8 1_555 1_555
C19_8 C27_8 1_555 1_555
C20_8 C24_8 1_555 1_555
C21_6 C24_8 1_555 1_555
C22_8 C23_8 1_555 1_555
C25_8 C27_8 1_555 1_555
C26_6 C29_6 1_555 1_555
O6_9 Cu8_3 1_555 1_555
O9_8 Cu8_3 1_555 1_555
O12_4 C18_9 1_555 1_555
O15_7 Cu8_3 1_555 1_555
C18_9 O6_9 1_555 1_555
O16_9 Cu8_3 1_555 1_555
H14_8 C30_8 1_555 1_555
Cu3_4 O1_9 1_555 1_555
O1_9 C3_9 1_555 1_555
O2_8 C1_9 1_555 1_555
O11_7 C3_9 1_555 1_555
O4_5 C1_9 1_555 1_555
C1_9 C12_9 1_555 1_555
C2_9 C4_9 1_555 1_555
C3_9 C8_9 1_555 1_555
C4_9 H1_9 1_555 1_555
C5_9 C9_9 1_555 1_555
C6_8 C9_9 1_555 1_555
C7_9 C2_9 1_555 1_555
H2_9 C7_9 1_555 1_555
C8_9 C7_9 1_555 1_555
C9_9 C2_9 1_555 1_555
O5_9 Cu3_4 1_555 1_555
C10_9 C8_9 1_555 1_555
H3_9 C10_9 1_555 1_555
C11_8 C6_8 1_555 1_555
H4_8 C11_8 1_555 1_555
C12_9 C4_9 1_555 1_555
C13_9 C5_9 1_555 1_555
H5_9 C13_9 1_555 1_555
C14_8 C11_8 1_555 1_555
C15_7 C13_9 1_555 1_555
H7_7 C15_7 1_555 1_555
Cu4_5 O2_8 1_555 1_555
Cu6_4 Cu7_4 1_555 1_555
Cu7_4 O13_5 1_555 1_555
O7_8 Cu6_4 1_555 1_555
O8_8 Cu3_4 1_555 1_555
O13_5 C16_9 1_555 1_555
O14_7 Cu3_4 1_555 1_555
C16_9 O7_8 1_555 1_555
C17_9 C19_9 1_555 1_555
C19_9 H8_9 1_555 1_555
C20_9 C6_8 1_555 1_555
C21_7 C5_9 1_555 1_555
C22_9 C17_9 1_555 1_555
H9_9 C22_9 1_555 1_555
C24_9 C17_9 1_555 1_555
C25_9 C23_9 1_555 1_555
H10_9 C25_9 1_555 1_555
C26_7 C21_7 1_555 1_555
H11_7 C26_7 1_555 1_555
C27_9 C16_9 1_555 1_555
C28_9 C20_9 1_555 1_555
H12_9 C28_9 1_555 1_555
C29_7 C15_7 1_555 1_555
H13_7 C29_7 1_555 1_555
C10_9 C12_9 1_555 1_555
C19_9 C27_9 1_555 1_555
C20_9 C24_9 1_555 1_555
C21_7 C24_9 1_555 1_555
C22_9 C23_9 1_555 1_555
C25_9 C27_9 1_555 1_555
C26_7 C29_7 1_555 1_555
O8_2 C1_10 1_555 1_555
O4_6 C1_10 1_555 1_555
C1_10 C12_10 1_555 1_555
C2_10 C4_10 1_555 1_555
C4_10 H1_10 1_555 1_555
C5_10 C9_10 1_555 1_555
C6_9 C9_10 1_555 1_555
C7_10 C2_10 1_555 1_555
H2_10 C7_10 1_555 1_555
C8_10 C7_10 1_555 1_555
C9_10 C2_10 1_555 1_555
C10_10 C8_10 1_555 1_555
H3_10 C10_10 1_555 1_555
C11_9 C6_9 1_555 1_555
H4_9 C11_9 1_555 1_555
C12_10 C4_10 1_555 1_555
C13_10 C5_10 1_555 1_555
H5_10 C13_10 1_555 1_555
C14_9 C11_9 1_555 1_555
H6_9 C14_9 1_555 1_555
Cu3_2 O4_6 1_555 1_555
O6_10 Cu8_4 1_555 1_555
O12_5 C18_10 1_555 1_555
O13_6 C16_10 1_555 1_555
O15_8 Cu8_4 1_555 1_555
C16_10 O9_6 1_555 1_555
C17_10 C19_10 1_555 1_555
C18_10 O6_10 1_555 1_555
C19_10 H8_10 1_555 1_555
C20_10 C6_9 1_555 1_555
C21_8 C5_10 1_555 1_555
C22_10 C17_10 1_555 1_555
H9_10 C22_10 1_555 1_555
C23_10 C18_10 1_555 1_555
C24_10 C17_10 1_555 1_555
O16_10 Cu8_4 1_555 1_555
C25_10 C23_10 1_555 1_555
H10_10 C25_10 1_555 1_555
C26_8 C21_8 1_555 1_555
H11_8 C26_8 1_555 1_555
C27_10 C16_10 1_555 1_555
C28_10 C20_10 1_555 1_555
H12_10 C28_10 1_555 1_555
C30_9 C14_9 1_555 1_555
H14_9 C30_9 1_555 1_555
C10_10 C12_10 1_555 1_555
C19_10 C27_10 1_555 1_555
C20_10 C24_10 1_555 1_555
C21_8 C24_10 1_555 1_555
C22_10 C23_10 1_555 1_555
C25_10 C27_10 1_555 1_555
C26_8 C29_8 1_555 1_555
C28_10 C30_9 1_555 1_555
Cu3 O1_10 1_555 1_555
O1_10 C3_10 1_555 1_555
O11 C3_10 1_555 1_555
O5_10 Cu3 1_555 1_555
H7_8 C15_8 1_555 1_555
O14_8 Cu3 1_555 1_555
Cu4_3 O1_11 1_555 1_555
O1_11 C3_11 1_555 1_555
O8_5 C1_11 1_555 1_555
O11_6 C3_11 1_555 1_555
O14_3 C1_11 1_555 1_555
C1_11 C12_11 1_555 1_555
C2_11 C4_11 1_555 1_555
C3_11 C8_11 1_555 1_555
C4_11 H1_11 1_555 1_555
C5_11 C9_11 1_555 1_555
C7_11 C2_11 1_555 1_555
H2_11 C7_11 1_555 1_555
C8_11 C7_11 1_555 1_555
C9_11 C2_11 1_555 1_555
O5_11 Cu4_3 1_555 1_555
C10_11 C8_11 1_555 1_555
H3_11 C10_11 1_555 1_555
C12_11 C4_11 1_555 1_555
C13_11 C5_11 1_555 1_555
H5_11 C13_11 1_555 1_555
C15_9 C13_11 1_555 1_555
H7_9 C15_9 1_555 1_555
O14_9 Cu4_3 1_555 1_555
C21_9 C5_11 1_555 1_555
C26_9 C21_9 1_555 1_555
H11_9 C26_9 1_555 1_555
C29_9 C15_9 1_555 1_555
H13_9 C29_9 1_555 1_555
C10_11 C12_11 1_555 1_555
C26_9 C29_9 1_555 1_555
C11_10 C6_10 1_555 1_555
H4_10 C11_10 1_555 1_555
C14_10 C11_10 1_555 1_555
H6_10 C14_10 1_555 1_555
Cu7_4 O10_8 1_555 1_555
O6_11 Cu6_4 1_555 1_555
O10_8 C18_11 1_555 1_555
O12_8 Cu6_4 1_555 1_555
O15_3 C16_11 1_555 1_555
O15_9 Cu6_4 1_555 1_555
C16_11 O9_8 1_555 1_555
C17_11 C19_11 1_555 1_555
C18_11 O6_11 1_555 1_555
C19_11 H8_11 1_555 1_555
C20_11 C6_10 1_555 1_555
C22_11 C17_11 1_555 1_555
H9_11 C22_11 1_555 1_555
C23_11 C18_11 1_555 1_555
C24_11 C17_11 1_555 1_555
O16_11 Cu6_4 1_555 1_555
C25_11 C23_11 1_555 1_555
H10_11 C25_11 1_555 1_555
C27_11 C16_11 1_555 1_555
C28_11 C20_11 1_555 1_555
H12_11 C28_11 1_555 1_555
C30_10 C14_10 1_555 1_555
H14_10 C30_10 1_555 1_555
C19_11 C27_11 1_555 1_555
C20_11 C24_11 1_555 1_555
C22_11 C23_11 1_555 1_555
C25_11 C27_11 1_555 1_555
C28_11 C30_10 1_555 1_555
Cu5_2 O1_12 1_555 1_555
O1_12 C3_12 1_555 1_555
O8_6 C1_12 1_555 1_555
O11_5 C3_12 1_555 1_555
O14_9 C1_12 1_555 1_555
C1_12 C12_12 1_555 1_555
C2_12 C4_12 1_555 1_555
C3_12 C8_12 1_555 1_555
C4_12 H1_12 1_555 1_555
C5_12 C9_12 1_555 1_555
C6_11 C9_12 1_555 1_555
C7_12 C2_12 1_555 1_555
H2_12 C7_12 1_555 1_555
C8_12 C7_12 1_555 1_555
C9_12 C2_12 1_555 1_555
O5_12 Cu5_2 1_555 1_555
C10_12 C8_12 1_555 1_555
H3_12 C10_12 1_555 1_555
C11_11 C6_11 1_555 1_555
H4_11 C11_11 1_555 1_555
C12_12 C4_12 1_555 1_555
C13_12 C5_12 1_555 1_555
H5_12 C13_12 1_555 1_555
C14_11 C11_11 1_555 1_555
H6_11 C14_11 1_555 1_555
C15_10 C13_12 1_555 1_555
H7_10 C15_10 1_555 1_555
Cu6_2 O10_9 1_555 1_555
O6_12 Cu7_2 1_555 1_555
O7_9 Cu7_4 1_555 1_555
O9_9 Cu7_2 1_555 1_555
O10_9 C18_12 1_555 1_555
O12_9 Cu7_2 1_555 1_555
O15_9 C16_12 1_555 1_555
C16_12 O7_9 1_555 1_555
C17_12 C19_12 1_555 1_555
C18_12 O6_12 1_555 1_555
C19_12 H8_12 1_555 1_555
C20_12 C6_11 1_555 1_555
C21_10 C5_12 1_555 1_555
C22_12 C17_12 1_555 1_555
H9_12 C22_12 1_555 1_555
C23_12 C18_12 1_555 1_555
C24_12 C17_12 1_555 1_555
O16_12 Cu7_2 1_555 1_555
C25_12 C23_12 1_555 1_555
H10_12 C25_12 1_555 1_555
C26_10 C21_10 1_555 1_555
H11_10 C26_10 1_555 1_555
C27_12 C16_12 1_555 1_555
C28_12 C20_12 1_555 1_555
H12_12 C28_12 1_555 1_555
C29_10 C15_10 1_555 1_555
H13_10 C29_10 1_555 1_555
C30_11 C14_11 1_555 1_555
H14_11 C30_11 1_555 1_555
C10_12 C12_12 1_555 1_555
C19_12 C27_12 1_555 1_555
C20_12 C24_12 1_555 1_555
C21_10 C24_12 1_555 1_555
C22_12 C23_12 1_555 1_555
C25_12 C27_12 1_555 1_555
C26_10 C29_10 1_555 1_555
C28_12 C30_11 1_555 1_555
O1_13 C3_13 1_555 1_555
O8_7 C1_13 1_555 1_555
O3_8 C3_13 1_555 1_555
O14_7 C1_13 1_555 1_555
C1_13 C12_13 1_555 1_555
C2_13 C4_13 1_555 1_555
C3_13 C8_13 1_555 1_555
C4_13 H1_13 1_555 1_555
C5_13 C9_13 1_555 1_555
C6_12 C9_13 1_555 1_555
C7_13 C2_13 1_555 1_555
H2_13 C7_13 1_555 1_555
C8_13 C7_13 1_555 1_555
C9_13 C2_13 1_555 1_555
C10_13 C8_13 1_555 1_555
H3_13 C10_13 1_555 1_555
C11_12 C6_12 1_555 1_555
H4_12 C11_12 1_555 1_555
C12_13 C4_13 1_555 1_555
C13_13 C5_13 1_555 1_555
H5_13 C13_13 1_555 1_555
C14_12 C11_12 1_555 1_555
H6_12 C14_12 1_555 1_555
C15_11 C13_13 1_555 1_555
H7_11 C15_11 1_555 1_555
O6_13 Cu6_2 1_555 1_555
O12_9 C18_13 1_555 1_555
O15_10 Cu6_2 1_555 1_555
C17_13 C19_13 1_555 1_555
C18_13 O6_13 1_555 1_555
C19_13 H8_13 1_555 1_555
C20_13 C6_12 1_555 1_555
C21_11 C5_13 1_555 1_555
C22_13 C17_13 1_555 1_555
H9_13 C22_13 1_555 1_555
C23_13 C18_13 1_555 1_555
C24_13 C17_13 1_555 1_555
O16_13 Cu6_2 1_555 1_555
C25_13 C23_13 1_555 1_555
H10_13 C25_13 1_555 1_555
C26_11 C21_11 1_555 1_555
H11_11 C26_11 1_555 1_555
C28_13 C20_13 1_555 1_555
H12_13 C28_13 1_555 1_555
C29_11 C15_11 1_555 1_555
H13_11 C29_11 1_555 1_555
C30_12 C14_12 1_555 1_555
H14_12 C30_12 1_555 1_555
O3_8 Cu5_4 1_555 1_555
C10_13 C12_13 1_555 1_555
C19_13 C27_13 1_555 1_555
C20_13 C24_13 1_555 1_555
C21_11 C24_13 1_555 1_555
C22_13 C23_13 1_555 1_555
C25_13 C27_13 1_555 1_555
C26_11 C29_11 1_555 1_555
C28_13 C30_12 1_555 1_555
O5_13 Cu4_4 1_555 1_555
O11_8 Cu4_4 1_555 1_555
O15_7 C16_13 1_555 1_555
C16_13 O9_4 1_555 1_555
O5_14 Cu5_5 1_555 1_555
O8_9 Cu5_5 1_555 1_555
O11_9 Cu5_5 1_555 1_555
O15_10 C16_14 1_555 1_555
C16_14 O9_9 1_555 1_555
O1_14 C3_14 1_555 1_555
O2_9 C1_14 1_555 1_555
O3_9 C3_14 1_555 1_555
O14_10 C1_14 1_555 1_555
C1_14 C12_14 1_555 1_555
C2_14 C4_14 1_555 1_555
C3_14 C8_14 1_555 1_555
C4_14 H1_14 1_555 1_555
C5_14 C9_14 1_555 1_555
C6_13 C9_14 1_555 1_555
C7_14 C2_14 1_555 1_555
H2_14 C7_14 1_555 1_555
C8_14 C7_14 1_555 1_555
C9_14 C2_14 1_555 1_555
C10_14 C8_14 1_555 1_555
H3_14 C10_14 1_555 1_555
C11_13 C6_13 1_555 1_555
H4_13 C11_13 1_555 1_555
C12_14 C4_14 1_555 1_555
C13_14 C5_14 1_555 1_555
H5_14 C13_14 1_555 1_555
C14_13 C11_13 1_555 1_555
C15_12 C13_14 1_555 1_555
H7_12 C15_12 1_555 1_555
Cu5_4 O2_9 1_555 1_555
C17_14 C19_14 1_555 1_555
C19_14 H8_14 1_555 1_555
C20_14 C6_13 1_555 1_555
C21_12 C5_14 1_555 1_555
C22_14 C17_14 1_555 1_555
H9_14 C22_14 1_555 1_555
C24_14 C17_14 1_555 1_555
C25_14 C23_14 1_555 1_555
H10_14 C25_14 1_555 1_555
C26_12 C21_12 1_555 1_555
H11_12 C26_12 1_555 1_555
C28_14 C20_14 1_555 1_555
H12_14 C28_14 1_555 1_555
C29_12 C15_12 1_555 1_555
H13_12 C29_12 1_555 1_555
O3_9 Cu4_5 1_555 1_555
C10_14 C12_14 1_555 1_555
C19_14 C27_14 1_555 1_555
C20_14 C24_14 1_555 1_555
C21_12 C24_14 1_555 1_555
C22_14 C23_14 1_555 1_555
C25_14 C27_14 1_555 1_555
C26_12 C29_12 1_555 1_555
O6_14 Cu7_4 1_555 1_555
O12_8 C18_14 1_555 1_555
C18_14 O6_14 1_555 1_555
O16_14 Cu7_4 1_555 1_555
H14_13 C30_13 1_555 1_555
O8 C1_15 1_555 1_555
O14_8 C1_15 1_555 1_555
O16_15 Cu6_3 1_555 1_555
Cu4 O1_15 1_555 1_555
O1_15 C3_15 1_555 1_555
O11_3 C3_15 1_555 1_555
C2_15 C4_15 1_555 1_555
C3_15 C8_15 1_555 1_555
C4_15 H1_15 1_555 1_555
C5_15 C9_15 1_555 1_555
C6_14 C9_15 1_555 1_555
C7_15 C2_15 1_555 1_555
H2_15 C7_15 1_555 1_555
C8_15 C7_15 1_555 1_555
C9_15 C2_15 1_555 1_555
O5_15 Cu4 1_555 1_555
C10_15 C8_15 1_555 1_555
H3_15 C10_15 1_555 1_555
C11_14 C6_14 1_555 1_555
H4_14 C11_14 1_555 1_555
C12_15 C4_15 1_555 1_555
C13_15 C5_15 1_555 1_555
H5_15 C13_15 1_555 1_555
C14_14 C11_14 1_555 1_555
H6_14 C14_14 1_555 1_555
C15_13 C13_15 1_555 1_555
H7_13 C15_13 1_555 1_555
O12_7 C18_15 1_555 1_555
O15_8 C16_15 1_555 1_555
O14_11 Cu4 1_555 1_555
C16_15 O9_5 1_555 1_555
C17_15 C19_15 1_555 1_555
C18_15 O6_15 1_555 1_555
C19_15 H8_15 1_555 1_555
C20_15 C6_14 1_555 1_555
C21_13 C5_15 1_555 1_555
C22_15 C17_15 1_555 1_555
H9_15 C22_15 1_555 1_555
C23_15 C18_15 1_555 1_555
C24_15 C17_15 1_555 1_555
C25_15 C23_15 1_555 1_555
H10_15 C25_15 1_555 1_555
C26_13 C21_13 1_555 1_555
H11_13 C26_13 1_555 1_555
C27_15 C16_15 1_555 1_555
C28_15 C20_15 1_555 1_555
H12_15 C28_15 1_555 1_555
C29_13 C15_13 1_555 1_555
H13_13 C29_13 1_555 1_555
C30_14 C14_14 1_555 1_555
H14_14 C30_14 1_555 1_555
C10_15 C12_15 1_555 1_555
C19_15 C27_15 1_555 1_555
C20_15 C24_15 1_555 1_555
C21_13 C24_15 1_555 1_555
C22_15 C23_15 1_555 1_555
C25_15 C27_15 1_555 1_555
C26_13 C29_13 1_555 1_555
C28_15 C30_14 1_555 1_555
Cu3_2 O1_16 1_555 1_555
O1_16 C3_16 1_555 1_555
O11_2 C3_16 1_555 1_555
O5_16 Cu3_2 1_555 1_555
H7_14 C15_14 1_555 1_555
C2_16 C4_16 1_555 1_555
C4_16 H1_16 1_555 1_555
C5_16 C9_16 1_555 1_555
C6_15 C9_16 1_555 1_555
C7_16 C2_16 1_555 1_555
H2_16 C7_16 1_555 1_555
C8_16 C7_16 1_555 1_555
C9_16 C2_16 1_555 1_555
C10_16 C8_16 1_555 1_555
H3_16 C10_16 1_555 1_555
C11_15 C6_15 1_555 1_555
H4_15 C11_15 1_555 1_555
C12_16 C4_16 1_555 1_555
C13_16 C5_16 1_555 1_555
H5_16 C13_16 1_555 1_555
C14_15 C11_15 1_555 1_555
H6_15 C14_15 1_555 1_555
O12_6 C18_16 1_555 1_555
O15_11 C16_16 1_555 1_555
C16_16 O9_7 1_555 1_555
C17_16 C19_16 1_555 1_555
C18_16 O6_16 1_555 1_555
C19_16 H8_16 1_555 1_555
C20_16 C6_15 1_555 1_555
C21_14 C5_16 1_555 1_555
C22_16 C17_16 1_555 1_555
H9_16 C22_16 1_555 1_555
C23_16 C18_16 1_555 1_555
C24_16 C17_16 1_555 1_555
C25_16 C23_16 1_555 1_555
H10_16 C25_16 1_555 1_555
C26_14 C21_14 1_555 1_555
H11_14 C26_14 1_555 1_555
C27_16 C16_16 1_555 1_555
C28_16 C20_16 1_555 1_555
H12_16 C28_16 1_555 1_555
C30_15 C14_15 1_555 1_555
H14_15 C30_15 1_555 1_555
C10_16 C12_16 1_555 1_555
C19_16 C27_16 1_555 1_555
C20_16 C24_16 1_555 1_555
C21_14 C24_16 1_555 1_555
C22_16 C23_16 1_555 1_555
C25_16 C27_16 1_555 1_555
C26_14 C29_14 1_555 1_555
C28_16 C30_15 1_555 1_555
O8_3 C1_16 1_555 1_555
O14_11 C1_16 1_555 1_555
O16_16 Cu8_5 1_555 1_555
O1_17 C3_17 1_555 1_555
O8_8 C1_17 1_555 1_555
O11_9 C3_17 1_555 1_555
O14_6 C1_17 1_555 1_555
C1_17 C12_17 1_555 1_555
C2_17 C4_17 1_555 1_555
C3_17 C8_17 1_555 1_555
C4_17 H1_17 1_555 1_555
C5_17 C9_17 1_555 1_555
C6_16 C9_17 1_555 1_555
C7_17 C2_17 1_555 1_555
H2_17 C7_17 1_555 1_555
C8_17 C7_17 1_555 1_555
C9_17 C2_17 1_555 1_555
C10_17 C8_17 1_555 1_555
H3_17 C10_17 1_555 1_555
C11_16 C6_16 1_555 1_555
H4_16 C11_16 1_555 1_555
C12_17 C4_17 1_555 1_555
C13_17 C5_17 1_555 1_555
H5_17 C13_17 1_555 1_555
C14_16 C11_16 1_555 1_555
H6_16 C14_16 1_555 1_555
C15_15 C13_17 1_555 1_555
H7_15 C15_15 1_555 1_555
O6_17 Cu6 1_555 1_555
O12_3 C18_17 1_555 1_555
O15_12 Cu6 1_555 1_555
C17_17 C19_17 1_555 1_555
C18_17 O6_17 1_555 1_555
C19_17 H8_17 1_555 1_555
C20_17 C6_16 1_555 1_555
C21_15 C5_17 1_555 1_555
C22_17 C17_17 1_555 1_555
H9_17 C22_17 1_555 1_555
C23_17 C18_17 1_555 1_555
C24_17 C17_17 1_555 1_555
O16_17 Cu6 1_555 1_555
C25_17 C23_17 1_555 1_555
H10_17 C25_17 1_555 1_555
C26_15 C21_15 1_555 1_555
H11_15 C26_15 1_555 1_555
C28_17 C20_17 1_555 1_555
H12_17 C28_17 1_555 1_555
C29_15 C15_15 1_555 1_555
H13_15 C29_15 1_555 1_555
C30_16 C14_16 1_555 1_555
H14_16 C30_16 1_555 1_555
C10_17 C12_17 1_555 1_555
C19_17 C27_17 1_555 1_555
C20_17 C24_17 1_555 1_555
C21_15 C24_17 1_555 1_555
C22_17 C23_17 1_555 1_555
C25_17 C27_17 1_555 1_555
C26_15 C29_15 1_555 1_555
C28_17 C30_16 1_555 1_555
O5_17 Cu4_5 1_555 1_555
O15_6 C16_17 1_555 1_555
C16_17 O9 1_555 1_555
O5_18 Cu5_4 1_555 1_555
O15_12 C16_18 1_555 1_555
C16_18 O9_3 1_555 1_555
O1_18 C3_18 1_555 1_555
O8_9 C1_18 1_555 1_555
O11_8 C3_18 1_555 1_555
O14_12 C1_18 1_555 1_555
C1_18 C12_18 1_555 1_555
C2_18 C4_18 1_555 1_555
C3_18 C8_18 1_555 1_555
C4_18 H1_18 1_555 1_555
C5_18 C9_18 1_555 1_555
C6_17 C9_18 1_555 1_555
C7_18 C2_18 1_555 1_555
H2_18 C7_18 1_555 1_555
C8_18 C7_18 1_555 1_555
C9_18 C2_18 1_555 1_555
C10_18 C8_18 1_555 1_555
H3_18 C10_18 1_555 1_555
C11_17 C6_17 1_555 1_555
H4_17 C11_17 1_555 1_555
C12_18 C4_18 1_555 1_555
C13_18 C5_18 1_555 1_555
H5_18 C13_18 1_555 1_555
C14_17 C11_17 1_555 1_555
C15_16 C13_18 1_555 1_555
H7_16 C15_16 1_555 1_555
C17_18 C19_18 1_555 1_555
C19_18 H8_18 1_555 1_555
C20_18 C6_17 1_555 1_555
C21_16 C5_18 1_555 1_555
C22_18 C17_18 1_555 1_555
H9_18 C22_18 1_555 1_555
C24_18 C17_18 1_555 1_555
C25_18 C23_18 1_555 1_555
H10_18 C25_18 1_555 1_555
C26_16 C21_16 1_555 1_555
H11_16 C26_16 1_555 1_555
C28_18 C20_18 1_555 1_555
H12_18 C28_18 1_555 1_555
C29_16 C15_16 1_555 1_555
H13_16 C29_16 1_555 1_555
C10_18 C12_18 1_555 1_555
C19_18 C27_18 1_555 1_555
C20_18 C24_18 1_555 1_555
C21_16 C24_18 1_555 1_555
C22_18 C23_18 1_555 1_555
C25_18 C27_18 1_555 1_555
C26_16 C29_16 1_555 1_555
O6_18 Cu8_2 1_555 1_555
O12_2 C18_18 1_555 1_555
C18_18 O6_18 1_555 1_555
O16_18 Cu8_2 1_555 1_555
H14_17 C30_17 1_555 1_555
H7_17 C15_17 1_555 1_555
C26_17 C21_17 1_555 1_555
H11_17 C26_17 1_555 1_555
C29_17 C15_17 1_555 1_555
H13_17 C29_17 1_555 1_555
C26_17 C29_17 1_555 1_555
H7_18 C15_18 1_555 1_555
C26_18 C21_18 1_555 1_555
H11_18 C26_18 1_555 1_555
C29_18 C15_18 1_555 1_555
H13_18 C29_18 1_555 1_555
C26_18 C29_18 1_555 1_555
C11_18 C6_18 1_555 1_555
H4_18 C11_18 1_555 1_555
C14_18 C11_18 1_555 1_555
H6_18 C14_18 1_555 1_555
C30_18 C14_18 1_555 1_555
H14_18 C30_18 1_555 1_555

#END
