
###############################################################################
#
# This file contains modified crystal structure data generated from the
# MOF subset of the Cambridge Structural Database (CSD) v543 
# hosted by the Cambridge Crystallographic Data Centre (CCDC).
#
# This work is licensed under the Creative Commons
# Attribution-NonCommercial-ShareAlike 4.0 International License.
# To view a copy of this license, visit
# http://creativecommons.org/licenses/by-nc-sa/4.0/
# or send a letter to
# Creative Commons, PO Box 1866, Mountain View, CA 94042, USA.
#
# CIF created using the CSD Python API on 29 September 2022
# The structure has been converted into the P1 space group
# The structure has a 3D framework
# The original CSD entry XIVTED is in the cubic crystal system
# The framework has been calculated to contain at least 10.0% void space
# The void calculation uses a probe of radius 1.32A, grid spacing 0.4
#
###############################################################################

data_XIVTED
_chemical_formula_moiety         '(C432 H216 N72 O152 Zr10)n'
_symmetry_cell_setting           triclinic
_symmetry_space_group_name_H-M   'P 1'
_symmetry_Int_Tables_number      1
_space_group_name_Hall           'P 1'
loop_
_symmetry_equiv_pos_site_id
_symmetry_equiv_pos_as_xyz
1 x,y,z
_cell_length_a                   26.5460(19)
_cell_length_b                   26.5460(19)
_cell_length_c                   26.5460(19)
_cell_angle_alpha                90
_cell_angle_beta                 90
_cell_angle_gamma                90
_cell_volume                     18706.7
loop_
_atom_site_label
_atom_site_type_symbol
_atom_site_fract_x
_atom_site_fract_y
_atom_site_fract_z
Zr1 Zr 0.09341(3) -0.0000 0.5000
O3 O 0.04630(18) 0.04630(18) 0.45370(18)
Zr3 Zr 0.5000 -0.0000 0.09341(3)
O15 O 0.04630(18) 0.04630(18) 0.54630(18)
O17 O 0.1372(2) 0.0701(2) 0.5000
O18 O 0.4299(2) -0.0000 0.1372(2)
O19 O 0.5701(2) -0.0000 0.1372(2)
O20 O 0.5000 0.0708(2) 0.1367(2)
O21 O 0.1367(2) -0.0000 0.4292(2)
O22 O 0.1367(2) -0.0000 0.5708(2)
Zr6 Zr -0.0000 -0.0000 0.59341(3)
Zr7 Zr -0.0000 -0.0000 0.40659(3)
Zr8 Zr -0.0000 0.09341(3) 0.5000
Zr13 Zr 0.5000 -0.0000 0.90659(3)
O24 O 0.45370(18) 0.04630(18) 0.04630(18)
O28 O 0.54630(18) 0.04630(18) 0.04630(18)
Zr5 Zr 0.5000 0.90659(3) -0.0000
O1 O 0.1372(2) 0.9299(2) 0.5000
O2 O 0.0708(2) 0.8633(2) 0.5000
C1 C 0.1191(4) 0.8830(5) 0.5000
C2 C 0.1577(5) 0.8412(5) 0.5000
N1 N 0.2456(5) 0.8197(5) 0.5000
C3 C 0.2093(5) 0.8571(5) 0.5000
H1 H 0.2180 0.8910 0.5000
C4 C 0.1439(5) 0.7916(5) 0.5000
H2 H 0.1100 0.7827 0.5000
C5 C 0.1805(4) 0.7548(5) 0.5000
H3 H 0.1715 0.7210 0.5000
C6 C 0.2295(4) 0.7684(5) 0.5000
Zr1_2 Zr 0.09341(3) 1.0000 0.5000
O4 O 0.3628(2) 0.5701(2) 0.5000
O5 O 0.4292(2) 0.6367(2) 0.5000
C7 C 0.3809(4) 0.6170(5) 0.5000
C8 C 0.3423(5) 0.6588(5) 0.5000
N2 N 0.2544(5) 0.6803(5) 0.5000
C9 C 0.2907(5) 0.6429(5) 0.5000
H4 H 0.2820 0.6090 0.5000
C10 C 0.3561(5) 0.7084(5) 0.5000
H5 H 0.3900 0.7173 0.5000
C11 C 0.3195(4) 0.7452(5) 0.5000
H6 H 0.3285 0.7790 0.5000
C12 C 0.2705(4) 0.7316(5) 0.5000
O6 O 0.04630(18) 0.95370(18) 0.54630(18)
O7 O 0.5000 0.6372(2) 0.4299(2)
O8 O 0.5000 0.5708(2) 0.3633(2)
C13 C 0.5000 0.6191(4) 0.3830(5)
C14 C 0.5000 0.6577(5) 0.3412(5)
N3 N 0.5000 0.7456(5) 0.3197(5)
C15 C 0.5000 0.7093(5) 0.3571(5)
H7 H 0.5000 0.7180 0.3910
C16 C 0.5000 0.6439(5) 0.2916(5)
H8 H 0.5000 0.6100 0.2827
C17 C 0.5000 0.6805(4) 0.2548(5)
H9 H 0.5000 0.6715 0.2210
C18 C 0.5000 0.7295(4) 0.2684(5)
Zr2 Zr 0.5000 0.59341(3) 0.5000
O9 O 0.5000 0.8628(2) 0.0701(2)
O10 O 0.5000 0.9292(2) 0.1367(2)
C19 C 0.5000 0.8809(4) 0.1170(5)
C20 C 0.5000 0.8423(5) 0.1588(5)
N4 N 0.5000 0.7544(5) 0.1803(5)
C21 C 0.5000 0.7907(5) 0.1429(5)
H10 H 0.5000 0.7820 0.1090
C22 C 0.5000 0.8561(5) 0.2084(5)
H11 H 0.5000 0.8900 0.2173
C23 C 0.5000 0.8195(4) 0.2452(5)
H12 H 0.5000 0.8285 0.2790
C24 C 0.5000 0.7705(4) 0.2316(5)
O11 O 0.5000 0.6372(2) 0.5701(2)
O12 O 0.5000 0.5708(2) 0.6367(2)
C25 C 0.5000 0.6191(4) 0.6170(5)
C26 C 0.5000 0.6577(5) 0.6588(5)
N5 N 0.5000 0.7456(5) 0.6803(5)
C27 C 0.5000 0.7093(5) 0.6429(5)
H13 H 0.5000 0.7180 0.6090
C28 C 0.5000 0.6439(5) 0.7084(5)
H14 H 0.5000 0.6100 0.7173
C29 C 0.5000 0.6805(4) 0.7452(5)
H15 H 0.5000 0.6715 0.7790
C30 C 0.5000 0.7295(4) 0.7316(5)
O13 O 0.5000 0.8628(2) 0.9299(2)
O14 O 0.5000 0.9292(2) 0.8633(2)
C31 C 0.5000 0.8809(4) 0.8830(5)
C32 C 0.5000 0.8423(5) 0.8412(5)
N6 N 0.5000 0.7544(5) 0.8197(5)
C33 C 0.5000 0.7907(5) 0.8571(5)
H16 H 0.5000 0.7820 0.8910
C34 C 0.5000 0.8561(5) 0.7916(5)
H17 H 0.5000 0.8900 0.7827
C35 C 0.5000 0.8195(4) 0.7548(5)
H18 H 0.5000 0.8285 0.7210
C36 C 0.5000 0.7705(4) 0.7684(5)
Zr3_2 Zr 0.5000 1.0000 0.09341(3)
O16 O 0.04630(18) 0.95370(18) 0.45370(18)
O18_2 O 0.4299(2) 1.0000 0.1372(2)
O19_2 O 0.5701(2) 1.0000 0.1372(2)
O21_2 O 0.1367(2) 1.0000 0.4292(2)
O22_2 O 0.1367(2) 1.0000 0.5708(2)
O23 O 0.5708(2) 0.6367(2) 0.5000
Zr5_2 Zr 0.5000 0.90659(3) 1.0000
Zr6_2 Zr -0.0000 1.0000 0.59341(3)
Zr7_2 Zr -0.0000 1.0000 0.40659(3)
Zr9 Zr -0.0000 0.90659(3) 0.5000
Zr10 Zr 0.5000 0.5000 0.59341(3)
Zr11 Zr 0.5000 0.5000 0.40659(3)
Zr12 Zr 0.40659(3) 0.5000 0.5000
Zr13_2 Zr 0.5000 1.0000 0.90659(3)
O25 O 0.54630(18) 0.95370(18) 0.04630(18)
O26 O 0.45370(18) 0.54630(18) 0.54630(18)
O27 O 0.54630(18) 0.54630(18) 0.45370(18)
O29 O 0.45370(18) 0.95370(18) 0.04630(18)
O30 O 0.54630(18) 0.54630(18) 0.54630(18)
O31 O 0.45370(18) 0.54630(18) 0.45370(18)
Zr6_3 Zr 1.0000 -0.0000 0.59341(3)
Zr7_3 Zr 1.0000 -0.0000 0.40659(3)
Zr8_2 Zr 1.0000 0.09341(3) 0.5000
Zr6_4 Zr 1.0000 1.0000 0.59341(3)
Zr7_4 Zr 1.0000 1.0000 0.40659(3)
Zr9_2 Zr 1.0000 0.90659(3) 0.5000
Zr5_3 Zr 0.5000 0.09341(3) -0.0000
O1_2 O 0.8628(2) 0.0701(2) 0.5000
O2_2 O 0.9292(2) 0.1367(2) 0.5000
C1_2 C 0.8809(4) 0.1170(5) 0.5000
C2_2 C 0.8423(5) 0.1588(5) 0.5000
N1_2 N 0.7544(5) 0.1803(5) 0.5000
C3_2 C 0.7907(5) 0.1429(5) 0.5000
H1_2 H 0.7820 0.1090 0.5000
C4_2 C 0.8561(5) 0.2084(5) 0.5000
H2_2 H 0.8900 0.2173 0.5000
C5_2 C 0.8195(4) 0.2452(5) 0.5000
H3_2 H 0.8285 0.2790 0.5000
C6_2 C 0.7705(4) 0.2316(5) 0.5000
Zr1_3 Zr 0.90659(3) 0.0000 0.5000
O4_2 O 0.6372(2) 0.4299(2) 0.5000
O5_2 O 0.5708(2) 0.3633(2) 0.5000
C7_2 C 0.6191(4) 0.3830(5) 0.5000
C8_2 C 0.6577(5) 0.3412(5) 0.5000
N2_2 N 0.7456(5) 0.3197(5) 0.5000
C9_2 C 0.7093(5) 0.3571(5) 0.5000
H4_2 H 0.7180 0.3910 0.5000
C10_2 C 0.6439(5) 0.2916(5) 0.5000
H5_2 H 0.6100 0.2827 0.5000
C11_2 C 0.6805(4) 0.2548(5) 0.5000
H6_2 H 0.6715 0.2210 0.5000
C12_2 C 0.7295(4) 0.2684(5) 0.5000
O6_2 O 0.95370(18) 0.04630(18) 0.54630(18)
O7_2 O 0.5000 0.3628(2) 0.4299(2)
O8_2 O 0.5000 0.4292(2) 0.3633(2)
C13_2 C 0.5000 0.3809(4) 0.3830(5)
C14_2 C 0.5000 0.3423(5) 0.3412(5)
N3_2 N 0.5000 0.2544(5) 0.3197(5)
C15_2 C 0.5000 0.2907(5) 0.3571(5)
H7_2 H 0.5000 0.2820 0.3910
C16_2 C 0.5000 0.3561(5) 0.2916(5)
H8_2 H 0.5000 0.3900 0.2827
C17_2 C 0.5000 0.3195(4) 0.2548(5)
H9_2 H 0.5000 0.3285 0.2210
C18_2 C 0.5000 0.2705(4) 0.2684(5)
Zr2_2 Zr 0.5000 0.40659(3) 0.5000
O9_2 O 0.5000 0.1372(2) 0.0701(2)
C19_2 C 0.5000 0.1191(4) 0.1170(5)
C20_2 C 0.5000 0.1577(5) 0.1588(5)
N4_2 N 0.5000 0.2456(5) 0.1803(5)
C21_2 C 0.5000 0.2093(5) 0.1429(5)
H10_2 H 0.5000 0.2180 0.1090
C22_2 C 0.5000 0.1439(5) 0.2084(5)
H11_2 H 0.5000 0.1100 0.2173
C23_2 C 0.5000 0.1805(4) 0.2452(5)
H12_2 H 0.5000 0.1715 0.2790
C24_2 C 0.5000 0.2295(4) 0.2316(5)
O11_2 O 0.5000 0.3628(2) 0.5701(2)
O12_2 O 0.5000 0.4292(2) 0.6367(2)
C25_2 C 0.5000 0.3809(4) 0.6170(5)
C26_2 C 0.5000 0.3423(5) 0.6588(5)
N5_2 N 0.5000 0.2544(5) 0.6803(5)
C27_2 C 0.5000 0.2907(5) 0.6429(5)
H13_2 H 0.5000 0.2820 0.6090
C28_2 C 0.5000 0.3561(5) 0.7084(5)
H14_2 H 0.5000 0.3900 0.7173
C29_2 C 0.5000 0.3195(4) 0.7452(5)
H15_2 H 0.5000 0.3285 0.7790
C30_2 C 0.5000 0.2705(4) 0.7316(5)
O13_2 O 0.5000 0.1372(2) 0.9299(2)
O14_2 O 0.5000 0.0708(2) 0.8633(2)
C31_2 C 0.5000 0.1191(4) 0.8830(5)
C32_2 C 0.5000 0.1577(5) 0.8412(5)
N6_2 N 0.5000 0.2456(5) 0.8197(5)
C33_2 C 0.5000 0.2093(5) 0.8571(5)
H16_2 H 0.5000 0.2180 0.8910
C34_2 C 0.5000 0.1439(5) 0.7916(5)
H17_2 H 0.5000 0.1100 0.7827
C35_2 C 0.5000 0.1805(4) 0.7548(5)
H18_2 H 0.5000 0.1715 0.7210
C36_2 C 0.5000 0.2295(4) 0.7684(5)
O16_2 O 0.95370(18) 0.04630(18) 0.45370(18)
O21_3 O 0.8633(2) 0.0000 0.4292(2)
O22_3 O 0.8633(2) 0.0000 0.5708(2)
O23_2 O 0.4292(2) 0.3633(2) 0.5000
Zr5_4 Zr 0.5000 0.09341(3) 1.0000
Zr12_2 Zr 0.59341(3) 0.5000 0.5000
O26_2 O 0.54630(18) 0.45370(18) 0.54630(18)
O27_2 O 0.45370(18) 0.45370(18) 0.45370(18)
O30_2 O 0.45370(18) 0.45370(18) 0.54630(18)
O31_2 O 0.54630(18) 0.45370(18) 0.45370(18)
Zr1_4 Zr 0.90659(3) 1.0000 0.5000
O3_2 O 0.95370(18) 0.95370(18) 0.45370(18)
O15_2 O 0.95370(18) 0.95370(18) 0.54630(18)
O17_2 O 0.8628(2) 0.9299(2) 0.5000
O21_4 O 0.8633(2) 1.0000 0.4292(2)
O22_4 O 0.8633(2) 1.0000 0.5708(2)
O18_3 O 0.5701(2) -0.0000 0.8628(2)
O19_3 O 0.4299(2) -0.0000 0.8628(2)
O24_2 O 0.54630(18) 0.04630(18) 0.95370(18)
O28_2 O 0.45370(18) 0.04630(18) 0.95370(18)
O2_3 O 0.9292(2) 0.8633(2) 0.5000
C1_3 C 0.8809(4) 0.8830(5) 0.5000
C2_3 C 0.8423(5) 0.8412(5) 0.5000
N1_3 N 0.7544(5) 0.8197(5) 0.5000
C3_3 C 0.7907(5) 0.8571(5) 0.5000
H1_3 H 0.7820 0.8910 0.5000
C4_3 C 0.8561(5) 0.7916(5) 0.5000
H2_3 H 0.8900 0.7827 0.5000
C5_3 C 0.8195(4) 0.7548(5) 0.5000
H3_3 H 0.8285 0.7210 0.5000
C6_3 C 0.7705(4) 0.7684(5) 0.5000
O4_3 O 0.6372(2) 0.5701(2) 0.5000
C7_3 C 0.6191(4) 0.6170(5) 0.5000
C8_3 C 0.6577(5) 0.6588(5) 0.5000
N2_3 N 0.7456(5) 0.6803(5) 0.5000
C9_3 C 0.7093(5) 0.6429(5) 0.5000
H4_3 H 0.7180 0.6090 0.5000
C10_3 C 0.6439(5) 0.7084(5) 0.5000
H5_3 H 0.6100 0.7173 0.5000
C11_3 C 0.6805(4) 0.7452(5) 0.5000
H6_3 H 0.6715 0.7790 0.5000
C12_3 C 0.7295(4) 0.7316(5) 0.5000
O18_4 O 0.5701(2) 1.0000 0.8628(2)
O19_4 O 0.4299(2) 1.0000 0.8628(2)
O25_2 O 0.45370(18) 0.95370(18) 0.95370(18)
O29_2 O 0.54630(18) 0.95370(18) 0.95370(18)
O2_4 O 0.0708(2) 0.1367(2) 0.5000
C1_4 C 0.1191(4) 0.1170(5) 0.5000
C2_4 C 0.1577(5) 0.1588(5) 0.5000
N1_4 N 0.2456(5) 0.1803(5) 0.5000
C3_4 C 0.2093(5) 0.1429(5) 0.5000
H1_4 H 0.2180 0.1090 0.5000
C4_4 C 0.1439(5) 0.2084(5) 0.5000
H2_4 H 0.1100 0.2173 0.5000
C5_4 C 0.1805(4) 0.2452(5) 0.5000
H3_4 H 0.1715 0.2790 0.5000
C6_4 C 0.2295(4) 0.2316(5) 0.5000
O4_4 O 0.3628(2) 0.4299(2) 0.5000
C7_4 C 0.3809(4) 0.3830(5) 0.5000
C8_4 C 0.3423(5) 0.3412(5) 0.5000
N2_4 N 0.2544(5) 0.3197(5) 0.5000
C9_4 C 0.2907(5) 0.3571(5) 0.5000
H4_4 H 0.2820 0.3910 0.5000
C10_4 C 0.3561(5) 0.2916(5) 0.5000
H5_4 H 0.3900 0.2827 0.5000
C11_4 C 0.3195(4) 0.2548(5) 0.5000
H6_4 H 0.3285 0.2210 0.5000
C12_4 C 0.2705(4) 0.2684(5) 0.5000
Zr5_5 Zr -0.0000 0.5000 0.90659(3)
Zr3_3 Zr 0.09341(3) 0.5000 -0.0000
O18_5 O 0.1372(2) 0.4299(2) -0.0000
O19_5 O 0.1372(2) 0.5701(2) -0.0000
O20_2 O 0.1367(2) 0.5000 0.0708(2)
O21_5 O 0.4292(2) 0.1367(2) -0.0000
O22_5 O 0.5708(2) 0.1367(2) -0.0000
Zr6_5 Zr 0.59341(3) -0.0000 -0.0000
Zr7_5 Zr 0.40659(3) -0.0000 -0.0000
Zr13_3 Zr 0.90659(3) 0.5000 -0.0000
O24_3 O 0.04630(18) 0.45370(18) 0.04630(18)
O28_3 O 0.04630(18) 0.54630(18) 0.04630(18)
O7_3 O 0.4299(2) 0.5000 0.6372(2)
O8_3 O 0.3633(2) 0.5000 0.5708(2)
C13_3 C 0.3830(5) 0.5000 0.6191(4)
C14_3 C 0.3412(5) 0.5000 0.6577(5)
N3_3 N 0.3197(5) 0.5000 0.7456(5)
C15_3 C 0.3571(5) 0.5000 0.7093(5)
H7_3 H 0.3910 0.5000 0.7180
C16_3 C 0.2916(5) 0.5000 0.6439(5)
H8_3 H 0.2827 0.5000 0.6100
C17_3 C 0.2548(5) 0.5000 0.6805(4)
H9_3 H 0.2210 0.5000 0.6715
C18_3 C 0.2684(5) 0.5000 0.7295(4)
O9_3 O 0.0701(2) 0.5000 0.8628(2)
O10_2 O 0.1367(2) 0.5000 0.9292(2)
C19_3 C 0.1170(5) 0.5000 0.8809(4)
C20_3 C 0.1588(5) 0.5000 0.8423(5)
N4_3 N 0.1803(5) 0.5000 0.7544(5)
C21_3 C 0.1429(5) 0.5000 0.7907(5)
H10_3 H 0.1090 0.5000 0.7820
C22_3 C 0.2084(5) 0.5000 0.8561(5)
H11_3 H 0.2173 0.5000 0.8900
C23_3 C 0.2452(5) 0.5000 0.8195(4)
H12_3 H 0.2790 0.5000 0.8285
C24_3 C 0.2316(5) 0.5000 0.7705(4)
O11_3 O 0.5701(2) 0.5000 0.6372(2)
O12_3 O 0.6367(2) 0.5000 0.5708(2)
C25_3 C 0.6170(5) 0.5000 0.6191(4)
C26_3 C 0.6588(5) 0.5000 0.6577(5)
N5_3 N 0.6803(5) 0.5000 0.7456(5)
C27_3 C 0.6429(5) 0.5000 0.7093(5)
H13_3 H 0.6090 0.5000 0.7180
C28_3 C 0.7084(5) 0.5000 0.6439(5)
H14_3 H 0.7173 0.5000 0.6100
C29_3 C 0.7452(5) 0.5000 0.6805(4)
H15_3 H 0.7790 0.5000 0.6715
C30_3 C 0.7316(5) 0.5000 0.7295(4)
O13_3 O 0.9299(2) 0.5000 0.8628(2)
O14_3 O 0.8633(2) 0.5000 0.9292(2)
C31_3 C 0.8830(5) 0.5000 0.8809(4)
C32_3 C 0.8412(5) 0.5000 0.8423(5)
N6_3 N 0.8197(5) 0.5000 0.7544(5)
C33_3 C 0.8571(5) 0.5000 0.7907(5)
H16_3 H 0.8910 0.5000 0.7820
C34_3 C 0.7916(5) 0.5000 0.8561(5)
H17_3 H 0.7827 0.5000 0.8900
C35_3 C 0.7548(5) 0.5000 0.8195(4)
H18_3 H 0.7210 0.5000 0.8285
C36_3 C 0.7684(5) 0.5000 0.7705(4)
Zr3_4 Zr 0.09341(3) 0.5000 1.0000
O18_6 O 0.1372(2) 0.4299(2) 1.0000
O19_6 O 0.1372(2) 0.5701(2) 1.0000
O21_6 O 0.4292(2) 0.1367(2) 1.0000
O22_6 O 0.5708(2) 0.1367(2) 1.0000
Zr5_6 Zr 1.0000 0.5000 0.90659(3)
Zr6_6 Zr 0.59341(3) -0.0000 1.0000
Zr7_6 Zr 0.40659(3) -0.0000 1.0000
Zr13_4 Zr 0.90659(3) 0.5000 1.0000
O25_3 O 0.04630(18) 0.54630(18) 0.95370(18)
O29_3 O 0.04630(18) 0.45370(18) 0.95370(18)
Zr6_7 Zr 0.59341(3) 1.0000 -0.0000
Zr7_7 Zr 0.40659(3) 1.0000 -0.0000
Zr6_8 Zr 0.59341(3) 1.0000 1.0000
Zr7_8 Zr 0.40659(3) 1.0000 1.0000
Zr5_7 Zr -0.0000 0.5000 0.09341(3)
O7_4 O 0.4299(2) 0.5000 0.3628(2)
O8_4 O 0.3633(2) 0.5000 0.4292(2)
C13_4 C 0.3830(5) 0.5000 0.3809(4)
C14_4 C 0.3412(5) 0.5000 0.3423(5)
N3_4 N 0.3197(5) 0.5000 0.2544(5)
C15_4 C 0.3571(5) 0.5000 0.2907(5)
H7_4 H 0.3910 0.5000 0.2820
C16_4 C 0.2916(5) 0.5000 0.3561(5)
H8_4 H 0.2827 0.5000 0.3900
C17_4 C 0.2548(5) 0.5000 0.3195(4)
H9_4 H 0.2210 0.5000 0.3285
C18_4 C 0.2684(5) 0.5000 0.2705(4)
O9_4 O 0.0701(2) 0.5000 0.1372(2)
C19_4 C 0.1170(5) 0.5000 0.1191(4)
C20_4 C 0.1588(5) 0.5000 0.1577(5)
N4_4 N 0.1803(5) 0.5000 0.2456(5)
C21_4 C 0.1429(5) 0.5000 0.2093(5)
H10_4 H 0.1090 0.5000 0.2180
C22_4 C 0.2084(5) 0.5000 0.1439(5)
H11_4 H 0.2173 0.5000 0.1100
C23_4 C 0.2452(5) 0.5000 0.1805(4)
H12_4 H 0.2790 0.5000 0.1715
C24_4 C 0.2316(5) 0.5000 0.2295(4)
O11_4 O 0.5701(2) 0.5000 0.3628(2)
O12_4 O 0.6367(2) 0.5000 0.4292(2)
C25_4 C 0.6170(5) 0.5000 0.3809(4)
C26_4 C 0.6588(5) 0.5000 0.3423(5)
N5_4 N 0.6803(5) 0.5000 0.2544(5)
C27_4 C 0.6429(5) 0.5000 0.2907(5)
H13_4 H 0.6090 0.5000 0.2820
C28_4 C 0.7084(5) 0.5000 0.3561(5)
H14_4 H 0.7173 0.5000 0.3900
C29_4 C 0.7452(5) 0.5000 0.3195(4)
H15_4 H 0.7790 0.5000 0.3285
C30_4 C 0.7316(5) 0.5000 0.2705(4)
O13_4 O 0.9299(2) 0.5000 0.1372(2)
O14_4 O 0.8633(2) 0.5000 0.0708(2)
C31_4 C 0.8830(5) 0.5000 0.1191(4)
C32_4 C 0.8412(5) 0.5000 0.1577(5)
N6_4 N 0.8197(5) 0.5000 0.2456(5)
C33_4 C 0.8571(5) 0.5000 0.2093(5)
H16_4 H 0.8910 0.5000 0.2180
C34_4 C 0.7916(5) 0.5000 0.1439(5)
H17_4 H 0.7827 0.5000 0.1100
C35_4 C 0.7548(5) 0.5000 0.1805(4)
H18_4 H 0.7210 0.5000 0.1715
C36_4 C 0.7684(5) 0.5000 0.2295(4)
O21_7 O 0.4292(2) 0.8633(2) 0.0000
O22_7 O 0.5708(2) 0.8633(2) 0.0000
Zr5_8 Zr 1.0000 0.5000 0.09341(3)
O21_8 O 0.4292(2) 0.8633(2) 1.0000
O22_8 O 0.5708(2) 0.8633(2) 1.0000
O18_7 O 0.8628(2) 0.5701(2) -0.0000
O19_7 O 0.8628(2) 0.4299(2) -0.0000
O24_4 O 0.95370(18) 0.54630(18) 0.04630(18)
O28_4 O 0.95370(18) 0.45370(18) 0.04630(18)
O18_8 O 0.8628(2) 0.5701(2) 1.0000
O19_8 O 0.8628(2) 0.4299(2) 1.0000
O25_4 O 0.95370(18) 0.45370(18) 0.95370(18)
O29_4 O 0.95370(18) 0.54630(18) 0.95370(18)
O18_9 O -0.0000 0.1372(2) 0.4299(2)
O19_9 O -0.0000 0.1372(2) 0.5701(2)
O21_9 O -0.0000 0.4292(2) 0.1367(2)
O22_9 O -0.0000 0.5708(2) 0.1367(2)
Zr6_9 Zr -0.0000 0.59341(3) -0.0000
Zr7_9 Zr -0.0000 0.40659(3) -0.0000
Zr6_10 Zr -0.0000 0.59341(3) 1.0000
Zr7_10 Zr -0.0000 0.40659(3) 1.0000
O18_10 O 1.0000 0.1372(2) 0.4299(2)
O19_10 O 1.0000 0.1372(2) 0.5701(2)
O21_10 O 1.0000 0.4292(2) 0.1367(2)
O22_10 O 1.0000 0.5708(2) 0.1367(2)
Zr6_11 Zr 1.0000 0.59341(3) -0.0000
Zr7_11 Zr 1.0000 0.40659(3) -0.0000
Zr6_12 Zr 1.0000 0.59341(3) 1.0000
Zr7_12 Zr 1.0000 0.40659(3) 1.0000
O21_11 O 0.0000 0.4292(2) 0.8633(2)
O22_11 O 0.0000 0.5708(2) 0.8633(2)
O21_12 O 1.0000 0.4292(2) 0.8633(2)
O22_12 O 1.0000 0.5708(2) 0.8633(2)
O18_11 O -0.0000 0.8628(2) 0.5701(2)
O19_11 O -0.0000 0.8628(2) 0.4299(2)
O18_12 O 1.0000 0.8628(2) 0.5701(2)
O19_12 O 1.0000 0.8628(2) 0.4299(2)
O2_5 O 0.0708(2) 0.3633(2) -0.0000
C1_5 C 0.1191(4) 0.3830(5) -0.0000
C2_5 C 0.1577(5) 0.3412(5) -0.0000
N1_5 N 0.2456(5) 0.3197(5) -0.0000
C3_5 C 0.2093(5) 0.3571(5) -0.0000
H1_5 H 0.2180 0.3910 -0.0000
C4_5 C 0.1439(5) 0.2916(5) -0.0000
H2_5 H 0.1100 0.2827 -0.0000
C5_5 C 0.1805(4) 0.2548(5) -0.0000
H3_5 H 0.1715 0.2210 -0.0000
C6_5 C 0.2295(4) 0.2684(5) -0.0000
O4_5 O 0.3628(2) 0.0701(2) -0.0000
C7_5 C 0.3809(4) 0.1170(5) -0.0000
C8_5 C 0.3423(5) 0.1588(5) -0.0000
N2_5 N 0.2544(5) 0.1803(5) -0.0000
C9_5 C 0.2907(5) 0.1429(5) -0.0000
H4_5 H 0.2820 0.1090 -0.0000
C10_5 C 0.3561(5) 0.2084(5) -0.0000
H5_5 H 0.3900 0.2173 -0.0000
C11_5 C 0.3195(4) 0.2452(5) -0.0000
H6_5 H 0.3285 0.2790 -0.0000
C12_5 C 0.2705(4) 0.2316(5) -0.0000
O2_6 O 0.0708(2) 0.3633(2) 1.0000
C1_6 C 0.1191(4) 0.3830(5) 1.0000
C2_6 C 0.1577(5) 0.3412(5) 1.0000
N1_6 N 0.2456(5) 0.3197(5) 1.0000
C3_6 C 0.2093(5) 0.3571(5) 1.0000
H1_6 H 0.2180 0.3910 1.0000
C4_6 C 0.1439(5) 0.2916(5) 1.0000
H2_6 H 0.1100 0.2827 1.0000
C5_6 C 0.1805(4) 0.2548(5) 1.0000
H3_6 H 0.1715 0.2210 1.0000
C6_6 C 0.2295(4) 0.2684(5) 1.0000
O4_6 O 0.3628(2) 0.0701(2) 1.0000
C7_6 C 0.3809(4) 0.1170(5) 1.0000
C8_6 C 0.3423(5) 0.1588(5) 1.0000
N2_6 N 0.2544(5) 0.1803(5) 1.0000
C9_6 C 0.2907(5) 0.1429(5) 1.0000
H4_6 H 0.2820 0.1090 1.0000
C10_6 C 0.3561(5) 0.2084(5) 1.0000
H5_6 H 0.3900 0.2173 1.0000
C11_6 C 0.3195(4) 0.2452(5) 1.0000
H6_6 H 0.3285 0.2790 1.0000
C12_6 C 0.2705(4) 0.2316(5) 1.0000
O2_7 O 0.9292(2) 0.6367(2) -0.0000
C1_7 C 0.8809(4) 0.6170(5) -0.0000
C2_7 C 0.8423(5) 0.6588(5) -0.0000
N1_7 N 0.7544(5) 0.6803(5) -0.0000
C3_7 C 0.7907(5) 0.6429(5) -0.0000
H1_7 H 0.7820 0.6090 -0.0000
C4_7 C 0.8561(5) 0.7084(5) -0.0000
H2_7 H 0.8900 0.7173 -0.0000
C5_7 C 0.8195(4) 0.7452(5) -0.0000
H3_7 H 0.8285 0.7790 -0.0000
C6_7 C 0.7705(4) 0.7316(5) -0.0000
O4_7 O 0.6372(2) 0.9299(2) -0.0000
C7_7 C 0.6191(4) 0.8830(5) -0.0000
C8_7 C 0.6577(5) 0.8412(5) -0.0000
N2_7 N 0.7456(5) 0.8197(5) -0.0000
C9_7 C 0.7093(5) 0.8571(5) -0.0000
H4_7 H 0.7180 0.8910 -0.0000
C10_7 C 0.6439(5) 0.7916(5) -0.0000
H5_7 H 0.6100 0.7827 -0.0000
C11_7 C 0.6805(4) 0.7548(5) -0.0000
H6_7 H 0.6715 0.7210 -0.0000
C12_7 C 0.7295(4) 0.7684(5) -0.0000
O2_8 O 0.9292(2) 0.6367(2) 1.0000
C1_8 C 0.8809(4) 0.6170(5) 1.0000
C2_8 C 0.8423(5) 0.6588(5) 1.0000
N1_8 N 0.7544(5) 0.6803(5) 1.0000
C3_8 C 0.7907(5) 0.6429(5) 1.0000
H1_8 H 0.7820 0.6090 1.0000
C4_8 C 0.8561(5) 0.7084(5) 1.0000
H2_8 H 0.8900 0.7173 1.0000
C5_8 C 0.8195(4) 0.7452(5) 1.0000
H3_8 H 0.8285 0.7790 1.0000
C6_8 C 0.7705(4) 0.7316(5) 1.0000
O4_8 O 0.6372(2) 0.9299(2) 1.0000
C7_8 C 0.6191(4) 0.8830(5) 1.0000
C8_8 C 0.6577(5) 0.8412(5) 1.0000
N2_8 N 0.7456(5) 0.8197(5) 1.0000
C9_8 C 0.7093(5) 0.8571(5) 1.0000
H4_8 H 0.7180 0.8910 1.0000
C10_8 C 0.6439(5) 0.7916(5) 1.0000
H5_8 H 0.6100 0.7827 1.0000
C11_8 C 0.6805(4) 0.7548(5) 1.0000
H6_8 H 0.6715 0.7210 1.0000
C12_8 C 0.7295(4) 0.7684(5) 1.0000
O2_9 O 0.9292(2) 0.3633(2) 0.0000
C1_9 C 0.8809(4) 0.3830(5) 0.0000
C2_9 C 0.8423(5) 0.3412(5) 0.0000
N1_9 N 0.7544(5) 0.3197(5) 0.0000
C3_9 C 0.7907(5) 0.3571(5) 0.0000
H1_9 H 0.7820 0.3910 0.0000
C4_9 C 0.8561(5) 0.2916(5) 0.0000
H2_9 H 0.8900 0.2827 0.0000
C5_9 C 0.8195(4) 0.2548(5) 0.0000
H3_9 H 0.8285 0.2210 0.0000
C6_9 C 0.7705(4) 0.2684(5) 0.0000
O4_9 O 0.6372(2) 0.0701(2) 0.0000
C7_9 C 0.6191(4) 0.1170(5) 0.0000
C8_9 C 0.6577(5) 0.1588(5) 0.0000
N2_9 N 0.7456(5) 0.1803(5) 0.0000
C9_9 C 0.7093(5) 0.1429(5) 0.0000
H4_9 H 0.7180 0.1090 0.0000
C10_9 C 0.6439(5) 0.2084(5) 0.0000
H5_9 H 0.6100 0.2173 0.0000
C11_9 C 0.6805(4) 0.2452(5) 0.0000
H6_9 H 0.6715 0.2790 0.0000
C12_9 C 0.7295(4) 0.2316(5) 0.0000
O2_10 O 0.9292(2) 0.3633(2) 1.0000
C1_10 C 0.8809(4) 0.3830(5) 1.0000
C2_10 C 0.8423(5) 0.3412(5) 1.0000
N1_10 N 0.7544(5) 0.3197(5) 1.0000
C3_10 C 0.7907(5) 0.3571(5) 1.0000
H1_10 H 0.7820 0.3910 1.0000
C4_10 C 0.8561(5) 0.2916(5) 1.0000
H2_10 H 0.8900 0.2827 1.0000
C5_10 C 0.8195(4) 0.2548(5) 1.0000
H3_10 H 0.8285 0.2210 1.0000
C6_10 C 0.7705(4) 0.2684(5) 1.0000
O4_10 O 0.6372(2) 0.0701(2) 1.0000
C7_10 C 0.6191(4) 0.1170(5) 1.0000
C8_10 C 0.6577(5) 0.1588(5) 1.0000
N2_10 N 0.7456(5) 0.1803(5) 1.0000
C9_10 C 0.7093(5) 0.1429(5) 1.0000
H4_10 H 0.7180 0.1090 1.0000
C10_10 C 0.6439(5) 0.2084(5) 1.0000
H5_10 H 0.6100 0.2173 1.0000
C11_10 C 0.6805(4) 0.2452(5) 1.0000
H6_10 H 0.6715 0.2790 1.0000
C12_10 C 0.7295(4) 0.2316(5) 1.0000
O2_11 O 0.0708(2) 0.6367(2) 0.0000
C1_11 C 0.1191(4) 0.6170(5) 0.0000
C2_11 C 0.1577(5) 0.6588(5) 0.0000
N1_11 N 0.2456(5) 0.6803(5) 0.0000
C3_11 C 0.2093(5) 0.6429(5) 0.0000
H1_11 H 0.2180 0.6090 0.0000
C4_11 C 0.1439(5) 0.7084(5) 0.0000
H2_11 H 0.1100 0.7173 0.0000
C5_11 C 0.1805(4) 0.7452(5) 0.0000
H3_11 H 0.1715 0.7790 0.0000
C6_11 C 0.2295(4) 0.7316(5) 0.0000
O4_11 O 0.3628(2) 0.9299(2) 0.0000
C7_11 C 0.3809(4) 0.8830(5) 0.0000
C8_11 C 0.3423(5) 0.8412(5) 0.0000
N2_11 N 0.2544(5) 0.8197(5) 0.0000
C9_11 C 0.2907(5) 0.8571(5) 0.0000
H4_11 H 0.2820 0.8910 0.0000
C10_11 C 0.3561(5) 0.7916(5) 0.0000
H5_11 H 0.3900 0.7827 0.0000
C11_11 C 0.3195(4) 0.7548(5) 0.0000
H6_11 H 0.3285 0.7210 0.0000
C12_11 C 0.2705(4) 0.7684(5) 0.0000
O2_12 O 0.0708(2) 0.6367(2) 1.0000
C1_12 C 0.1191(4) 0.6170(5) 1.0000
C2_12 C 0.1577(5) 0.6588(5) 1.0000
N1_12 N 0.2456(5) 0.6803(5) 1.0000
C3_12 C 0.2093(5) 0.6429(5) 1.0000
H1_12 H 0.2180 0.6090 1.0000
C4_12 C 0.1439(5) 0.7084(5) 1.0000
H2_12 H 0.1100 0.7173 1.0000
C5_12 C 0.1805(4) 0.7452(5) 1.0000
H3_12 H 0.1715 0.7790 1.0000
C6_12 C 0.2295(4) 0.7316(5) 1.0000
O4_12 O 0.3628(2) 0.9299(2) 1.0000
C7_12 C 0.3809(4) 0.8830(5) 1.0000
C8_12 C 0.3423(5) 0.8412(5) 1.0000
N2_12 N 0.2544(5) 0.8197(5) 1.0000
C9_12 C 0.2907(5) 0.8571(5) 1.0000
H4_12 H 0.2820 0.8910 1.0000
C10_12 C 0.3561(5) 0.7916(5) 1.0000
H5_12 H 0.3900 0.7827 1.0000
C11_12 C 0.3195(4) 0.7548(5) 1.0000
H6_12 H 0.3285 0.7210 1.0000
C12_12 C 0.2705(4) 0.7684(5) 1.0000
O8_5 O 0.3633(2) -0.0000 0.0708(2)
C13_5 C 0.3830(5) -0.0000 0.1191(4)
C14_5 C 0.3412(5) -0.0000 0.1577(5)
N3_5 N 0.3197(5) -0.0000 0.2456(5)
C15_5 C 0.3571(5) -0.0000 0.2093(5)
H7_5 H 0.3910 -0.0000 0.2180
C16_5 C 0.2916(5) -0.0000 0.1439(5)
H8_5 H 0.2827 -0.0000 0.1100
C17_5 C 0.2548(5) -0.0000 0.1805(4)
H9_5 H 0.2210 -0.0000 0.1715
C18_5 C 0.2684(5) -0.0000 0.2295(4)
O9_5 O 0.0701(2) -0.0000 0.3628(2)
C19_5 C 0.1170(5) -0.0000 0.3809(4)
C20_5 C 0.1588(5) -0.0000 0.3423(5)
N4_5 N 0.1803(5) -0.0000 0.2544(5)
C21_5 C 0.1429(5) -0.0000 0.2907(5)
H10_5 H 0.1090 -0.0000 0.2820
C22_5 C 0.2084(5) -0.0000 0.3561(5)
H11_5 H 0.2173 -0.0000 0.3900
C23_5 C 0.2452(5) -0.0000 0.3195(4)
H12_5 H 0.2790 -0.0000 0.3285
C24_5 C 0.2316(5) -0.0000 0.2705(4)
O12_5 O 0.6367(2) 0.0000 0.0708(2)
C25_5 C 0.6170(5) 0.0000 0.1191(4)
C26_5 C 0.6588(5) 0.0000 0.1577(5)
N5_5 N 0.6803(5) 0.0000 0.2456(5)
C27_5 C 0.6429(5) 0.0000 0.2093(5)
H13_5 H 0.6090 0.0000 0.2180
C28_5 C 0.7084(5) 0.0000 0.1439(5)
H14_5 H 0.7173 0.0000 0.1100
C29_5 C 0.7452(5) 0.0000 0.1805(4)
H15_5 H 0.7790 0.0000 0.1715
C30_5 C 0.7316(5) 0.0000 0.2295(4)
O13_5 O 0.9299(2) -0.0000 0.3628(2)
C31_5 C 0.8830(5) 0.0000 0.3809(4)
C32_5 C 0.8412(5) 0.0000 0.3423(5)
N6_5 N 0.8197(5) 0.0000 0.2544(5)
C33_5 C 0.8571(5) 0.0000 0.2907(5)
H16_5 H 0.8910 0.0000 0.2820
C34_5 C 0.7916(5) 0.0000 0.3561(5)
H17_5 H 0.7827 0.0000 0.3900
C35_5 C 0.7548(5) 0.0000 0.3195(4)
H18_5 H 0.7210 0.0000 0.3285
C36_5 C 0.7684(5) 0.0000 0.2705(4)
O8_6 O 0.3633(2) 1.0000 0.0708(2)
C13_6 C 0.3830(5) 1.0000 0.1191(4)
C14_6 C 0.3412(5) 1.0000 0.1577(5)
N3_6 N 0.3197(5) 1.0000 0.2456(5)
C15_6 C 0.3571(5) 1.0000 0.2093(5)
H7_6 H 0.3910 1.0000 0.2180
C16_6 C 0.2916(5) 1.0000 0.1439(5)
H8_6 H 0.2827 1.0000 0.1100
C17_6 C 0.2548(5) 1.0000 0.1805(4)
H9_6 H 0.2210 1.0000 0.1715
C18_6 C 0.2684(5) 1.0000 0.2295(4)
O9_6 O 0.0701(2) 1.0000 0.3628(2)
C19_6 C 0.1170(5) 1.0000 0.3809(4)
C20_6 C 0.1588(5) 1.0000 0.3423(5)
N4_6 N 0.1803(5) 1.0000 0.2544(5)
C21_6 C 0.1429(5) 1.0000 0.2907(5)
H10_6 H 0.1090 1.0000 0.2820
C22_6 C 0.2084(5) 1.0000 0.3561(5)
H11_6 H 0.2173 1.0000 0.3900
C23_6 C 0.2452(5) 1.0000 0.3195(4)
H12_6 H 0.2790 1.0000 0.3285
C24_6 C 0.2316(5) 1.0000 0.2705(4)
O12_6 O 0.6367(2) 1.0000 0.0708(2)
C25_6 C 0.6170(5) 1.0000 0.1191(4)
C26_6 C 0.6588(5) 1.0000 0.1577(5)
N5_6 N 0.6803(5) 1.0000 0.2456(5)
C27_6 C 0.6429(5) 1.0000 0.2093(5)
H13_6 H 0.6090 1.0000 0.2180
C28_6 C 0.7084(5) 1.0000 0.1439(5)
H14_6 H 0.7173 1.0000 0.1100
C29_6 C 0.7452(5) 1.0000 0.1805(4)
H15_6 H 0.7790 1.0000 0.1715
C30_6 C 0.7316(5) 1.0000 0.2295(4)
O13_6 O 0.9299(2) 1.0000 0.3628(2)
C31_6 C 0.8830(5) 1.0000 0.3809(4)
C32_6 C 0.8412(5) 1.0000 0.3423(5)
N6_6 N 0.8197(5) 1.0000 0.2544(5)
C33_6 C 0.8571(5) 1.0000 0.2907(5)
H16_6 H 0.8910 1.0000 0.2820
C34_6 C 0.7916(5) 1.0000 0.3561(5)
H17_6 H 0.7827 1.0000 0.3900
C35_6 C 0.7548(5) 1.0000 0.3195(4)
H18_6 H 0.7210 1.0000 0.3285
C36_6 C 0.7684(5) 1.0000 0.2705(4)
O8_7 O 0.3633(2) 0.0000 0.9292(2)
C13_7 C 0.3830(5) 0.0000 0.8809(4)
C14_7 C 0.3412(5) 0.0000 0.8423(5)
N3_7 N 0.3197(5) 0.0000 0.7544(5)
C15_7 C 0.3571(5) 0.0000 0.7907(5)
H7_7 H 0.3910 0.0000 0.7820
C16_7 C 0.2916(5) 0.0000 0.8561(5)
H8_7 H 0.2827 0.0000 0.8900
C17_7 C 0.2548(5) 0.0000 0.8195(4)
H9_7 H 0.2210 0.0000 0.8285
C18_7 C 0.2684(5) 0.0000 0.7705(4)
O9_7 O 0.0701(2) 0.0000 0.6372(2)
C19_7 C 0.1170(5) 0.0000 0.6191(4)
C20_7 C 0.1588(5) 0.0000 0.6577(5)
N4_7 N 0.1803(5) 0.0000 0.7456(5)
C21_7 C 0.1429(5) 0.0000 0.7093(5)
H10_7 H 0.1090 0.0000 0.7180
C22_7 C 0.2084(5) 0.0000 0.6439(5)
H11_7 H 0.2173 0.0000 0.6100
C23_7 C 0.2452(5) 0.0000 0.6805(4)
H12_7 H 0.2790 0.0000 0.6715
C24_7 C 0.2316(5) 0.0000 0.7295(4)
O12_7 O 0.6367(2) -0.0000 0.9292(2)
C25_7 C 0.6170(5) -0.0000 0.8809(4)
C26_7 C 0.6588(5) -0.0000 0.8423(5)
N5_7 N 0.6803(5) -0.0000 0.7544(5)
C27_7 C 0.6429(5) -0.0000 0.7907(5)
H13_7 H 0.6090 -0.0000 0.7820
C28_7 C 0.7084(5) -0.0000 0.8561(5)
H14_7 H 0.7173 -0.0000 0.8900
C29_7 C 0.7452(5) -0.0000 0.8195(4)
H15_7 H 0.7790 -0.0000 0.8285
C30_7 C 0.7316(5) -0.0000 0.7705(4)
O13_7 O 0.9299(2) -0.0000 0.6372(2)
C31_7 C 0.8830(5) -0.0000 0.6191(4)
C32_7 C 0.8412(5) -0.0000 0.6577(5)
N6_7 N 0.8197(5) -0.0000 0.7456(5)
C33_7 C 0.8571(5) -0.0000 0.7093(5)
H16_7 H 0.8910 -0.0000 0.7180
C34_7 C 0.7916(5) -0.0000 0.6439(5)
H17_7 H 0.7827 -0.0000 0.6100
C35_7 C 0.7548(5) -0.0000 0.6805(4)
H18_7 H 0.7210 -0.0000 0.6715
C36_7 C 0.7684(5) -0.0000 0.7295(4)
O8_8 O 0.3633(2) 1.0000 0.9292(2)
C13_8 C 0.3830(5) 1.0000 0.8809(4)
C14_8 C 0.3412(5) 1.0000 0.8423(5)
N3_8 N 0.3197(5) 1.0000 0.7544(5)
C15_8 C 0.3571(5) 1.0000 0.7907(5)
H7_8 H 0.3910 1.0000 0.7820
C16_8 C 0.2916(5) 1.0000 0.8561(5)
H8_8 H 0.2827 1.0000 0.8900
C17_8 C 0.2548(5) 1.0000 0.8195(4)
H9_8 H 0.2210 1.0000 0.8285
C18_8 C 0.2684(5) 1.0000 0.7705(4)
O9_8 O 0.0701(2) 1.0000 0.6372(2)
C19_8 C 0.1170(5) 1.0000 0.6191(4)
C20_8 C 0.1588(5) 1.0000 0.6577(5)
N4_8 N 0.1803(5) 1.0000 0.7456(5)
C21_8 C 0.1429(5) 1.0000 0.7093(5)
H10_8 H 0.1090 1.0000 0.7180
C22_8 C 0.2084(5) 1.0000 0.6439(5)
H11_8 H 0.2173 1.0000 0.6100
C23_8 C 0.2452(5) 1.0000 0.6805(4)
H12_8 H 0.2790 1.0000 0.6715
C24_8 C 0.2316(5) 1.0000 0.7295(4)
O12_8 O 0.6367(2) 1.0000 0.9292(2)
C25_8 C 0.6170(5) 1.0000 0.8809(4)
C26_8 C 0.6588(5) 1.0000 0.8423(5)
N5_8 N 0.6803(5) 1.0000 0.7544(5)
C27_8 C 0.6429(5) 1.0000 0.7907(5)
H13_8 H 0.6090 1.0000 0.7820
C28_8 C 0.7084(5) 1.0000 0.8561(5)
H14_8 H 0.7173 1.0000 0.8900
C29_8 C 0.7452(5) 1.0000 0.8195(4)
H15_8 H 0.7790 1.0000 0.8285
C30_8 C 0.7316(5) 1.0000 0.7705(4)
O13_8 O 0.9299(2) 1.0000 0.6372(2)
C31_8 C 0.8830(5) 1.0000 0.6191(4)
C32_8 C 0.8412(5) 1.0000 0.6577(5)
N6_8 N 0.8197(5) 1.0000 0.7456(5)
C33_8 C 0.8571(5) 1.0000 0.7093(5)
H16_8 H 0.8910 1.0000 0.7180
C34_8 C 0.7916(5) 1.0000 0.6439(5)
H17_8 H 0.7827 1.0000 0.6100
C35_8 C 0.7548(5) 1.0000 0.6805(4)
H18_8 H 0.7210 1.0000 0.6715
C36_8 C 0.7684(5) 1.0000 0.7295(4)
O22_13 O -0.0000 0.0708(2) 0.6367(2)
O19_13 O -0.0000 0.6372(2) 0.0701(2)
O18_13 O -0.0000 0.6372(2) 0.9299(2)
O21_13 O -0.0000 0.9292(2) 0.6367(2)
O22_14 O 1.0000 0.0708(2) 0.6367(2)
O19_14 O 1.0000 0.6372(2) 0.0701(2)
O18_14 O 1.0000 0.6372(2) 0.9299(2)
O21_14 O 1.0000 0.9292(2) 0.6367(2)
O22_15 O 0.0000 0.0708(2) 0.3633(2)
O21_15 O 0.0000 0.9292(2) 0.3633(2)
O22_16 O 1.0000 0.0708(2) 0.3633(2)
O21_16 O 1.0000 0.9292(2) 0.3633(2)
O18_15 O -0.0000 0.3628(2) 0.0701(2)
O19_15 O -0.0000 0.3628(2) 0.9299(2)
O18_16 O 1.0000 0.3628(2) 0.0701(2)
O19_16 O 1.0000 0.3628(2) 0.9299(2)
C25_9 C 0.0000 0.6191(4) 0.1170(5)
C26_9 C 0.0000 0.6577(5) 0.1588(5)
N5_9 N 0.0000 0.7456(5) 0.1803(5)
C27_9 C 0.0000 0.7093(5) 0.1429(5)
H13_9 H 0.0000 0.7180 0.1090
C28_9 C 0.0000 0.6439(5) 0.2084(5)
H14_9 H 0.0000 0.6100 0.2173
C29_9 C 0.0000 0.6805(4) 0.2452(5)
H15_9 H 0.0000 0.6715 0.2790
C30_9 C 0.0000 0.7295(4) 0.2316(5)
C31_9 C 0.0000 0.8809(4) 0.3830(5)
C32_9 C 0.0000 0.8423(5) 0.3412(5)
N6_9 N 0.0000 0.7544(5) 0.3197(5)
C33_9 C 0.0000 0.7907(5) 0.3571(5)
H16_9 H 0.0000 0.7820 0.3910
C34_9 C 0.0000 0.8561(5) 0.2916(5)
H17_9 H 0.0000 0.8900 0.2827
C35_9 C 0.0000 0.8195(4) 0.2548(5)
H18_9 H 0.0000 0.8285 0.2210
C36_9 C 0.0000 0.7705(4) 0.2684(5)
C13_9 C -0.0000 0.6191(4) 0.8830(5)
C14_9 C -0.0000 0.6577(5) 0.8412(5)
N3_9 N -0.0000 0.7456(5) 0.8197(5)
C15_9 C -0.0000 0.7093(5) 0.8571(5)
H7_9 H -0.0000 0.7180 0.8910
C16_9 C -0.0000 0.6439(5) 0.7916(5)
H8_9 H -0.0000 0.6100 0.7827
C17_9 C -0.0000 0.6805(4) 0.7548(5)
H9_9 H -0.0000 0.6715 0.7210
C18_9 C -0.0000 0.7295(4) 0.7684(5)
C19_9 C -0.0000 0.8809(4) 0.6170(5)
C20_9 C -0.0000 0.8423(5) 0.6588(5)
N4_9 N -0.0000 0.7544(5) 0.6803(5)
C21_9 C -0.0000 0.7907(5) 0.6429(5)
H10_9 H -0.0000 0.7820 0.6090
C22_9 C -0.0000 0.8561(5) 0.7084(5)
H11_9 H -0.0000 0.8900 0.7173
C23_9 C -0.0000 0.8195(4) 0.7452(5)
H12_9 H -0.0000 0.8285 0.7790
C24_9 C -0.0000 0.7705(4) 0.7316(5)
C25_10 C 1.0000 0.6191(4) 0.1170(5)
C26_10 C 1.0000 0.6577(5) 0.1588(5)
N5_10 N 1.0000 0.7456(5) 0.1803(5)
C27_10 C 1.0000 0.7093(5) 0.1429(5)
H13_10 H 1.0000 0.7180 0.1090
C28_10 C 1.0000 0.6439(5) 0.2084(5)
H14_10 H 1.0000 0.6100 0.2173
C29_10 C 1.0000 0.6805(4) 0.2452(5)
H15_10 H 1.0000 0.6715 0.2790
C30_10 C 1.0000 0.7295(4) 0.2316(5)
C31_10 C 1.0000 0.8809(4) 0.3830(5)
C32_10 C 1.0000 0.8423(5) 0.3412(5)
N6_10 N 1.0000 0.7544(5) 0.3197(5)
C33_10 C 1.0000 0.7907(5) 0.3571(5)
H16_10 H 1.0000 0.7820 0.3910
C34_10 C 1.0000 0.8561(5) 0.2916(5)
H17_10 H 1.0000 0.8900 0.2827
C35_10 C 1.0000 0.8195(4) 0.2548(5)
H18_10 H 1.0000 0.8285 0.2210
C36_10 C 1.0000 0.7705(4) 0.2684(5)
C13_10 C 1.0000 0.6191(4) 0.8830(5)
C14_10 C 1.0000 0.6577(5) 0.8412(5)
N3_10 N 1.0000 0.7456(5) 0.8197(5)
C15_10 C 1.0000 0.7093(5) 0.8571(5)
H7_10 H 1.0000 0.7180 0.8910
C16_10 C 1.0000 0.6439(5) 0.7916(5)
H8_10 H 1.0000 0.6100 0.7827
C17_10 C 1.0000 0.6805(4) 0.7548(5)
H9_10 H 1.0000 0.6715 0.7210
C18_10 C 1.0000 0.7295(4) 0.7684(5)
C19_10 C 1.0000 0.8809(4) 0.6170(5)
C20_10 C 1.0000 0.8423(5) 0.6588(5)
N4_10 N 1.0000 0.7544(5) 0.6803(5)
C21_10 C 1.0000 0.7907(5) 0.6429(5)
H10_10 H 1.0000 0.7820 0.6090
C22_10 C 1.0000 0.8561(5) 0.7084(5)
H11_10 H 1.0000 0.8900 0.7173
C23_10 C 1.0000 0.8195(4) 0.7452(5)
H12_10 H 1.0000 0.8285 0.7790
C24_10 C 1.0000 0.7705(4) 0.7316(5)
C25_11 C -0.0000 0.3809(4) 0.1170(5)
C26_11 C -0.0000 0.3423(5) 0.1588(5)
N5_11 N -0.0000 0.2544(5) 0.1803(5)
C27_11 C -0.0000 0.2907(5) 0.1429(5)
H13_11 H -0.0000 0.2820 0.1090
C28_11 C -0.0000 0.3561(5) 0.2084(5)
H14_11 H -0.0000 0.3900 0.2173
C29_11 C -0.0000 0.3195(4) 0.2452(5)
H15_11 H -0.0000 0.3285 0.2790
C30_11 C -0.0000 0.2705(4) 0.2316(5)
C31_11 C -0.0000 0.1191(4) 0.3830(5)
C32_11 C -0.0000 0.1577(5) 0.3412(5)
N6_11 N -0.0000 0.2456(5) 0.3197(5)
C33_11 C -0.0000 0.2093(5) 0.3571(5)
H16_11 H -0.0000 0.2180 0.3910
C34_11 C -0.0000 0.1439(5) 0.2916(5)
H17_11 H -0.0000 0.1100 0.2827
C35_11 C -0.0000 0.1805(4) 0.2548(5)
H18_11 H -0.0000 0.1715 0.2210
C36_11 C -0.0000 0.2295(4) 0.2684(5)
C13_11 C 0.0000 0.3809(4) 0.8830(5)
C14_11 C 0.0000 0.3423(5) 0.8412(5)
N3_11 N 0.0000 0.2544(5) 0.8197(5)
C15_11 C 0.0000 0.2907(5) 0.8571(5)
H7_11 H 0.0000 0.2820 0.8910
C16_11 C 0.0000 0.3561(5) 0.7916(5)
H8_11 H 0.0000 0.3900 0.7827
C17_11 C 0.0000 0.3195(4) 0.7548(5)
H9_11 H 0.0000 0.3285 0.7210
C18_11 C 0.0000 0.2705(4) 0.7684(5)
C19_11 C 0.0000 0.1191(4) 0.6170(5)
C20_11 C 0.0000 0.1577(5) 0.6588(5)
N4_11 N 0.0000 0.2456(5) 0.6803(5)
C21_11 C 0.0000 0.2093(5) 0.6429(5)
H10_11 H 0.0000 0.2180 0.6090
C22_11 C 0.0000 0.1439(5) 0.7084(5)
H11_11 H 0.0000 0.1100 0.7173
C23_11 C 0.0000 0.1805(4) 0.7452(5)
H12_11 H 0.0000 0.1715 0.7790
C24_11 C 0.0000 0.2295(4) 0.7316(5)
C25_12 C 1.0000 0.3809(4) 0.1170(5)
C26_12 C 1.0000 0.3423(5) 0.1588(5)
N5_12 N 1.0000 0.2544(5) 0.1803(5)
C27_12 C 1.0000 0.2907(5) 0.1429(5)
H13_12 H 1.0000 0.2820 0.1090
C28_12 C 1.0000 0.3561(5) 0.2084(5)
H14_12 H 1.0000 0.3900 0.2173
C29_12 C 1.0000 0.3195(4) 0.2452(5)
H15_12 H 1.0000 0.3285 0.2790
C30_12 C 1.0000 0.2705(4) 0.2316(5)
C31_12 C 1.0000 0.1191(4) 0.3830(5)
C32_12 C 1.0000 0.1577(5) 0.3412(5)
N6_12 N 1.0000 0.2456(5) 0.3197(5)
C33_12 C 1.0000 0.2093(5) 0.3571(5)
H16_12 H 1.0000 0.2180 0.3910
C34_12 C 1.0000 0.1439(5) 0.2916(5)
H17_12 H 1.0000 0.1100 0.2827
C35_12 C 1.0000 0.1805(4) 0.2548(5)
H18_12 H 1.0000 0.1715 0.2210
C36_12 C 1.0000 0.2295(4) 0.2684(5)
C13_12 C 1.0000 0.3809(4) 0.8830(5)
C14_12 C 1.0000 0.3423(5) 0.8412(5)
N3_12 N 1.0000 0.2544(5) 0.8197(5)
C15_12 C 1.0000 0.2907(5) 0.8571(5)
H7_12 H 1.0000 0.2820 0.8910
C16_12 C 1.0000 0.3561(5) 0.7916(5)
H8_12 H 1.0000 0.3900 0.7827
C17_12 C 1.0000 0.3195(4) 0.7548(5)
H9_12 H 1.0000 0.3285 0.7210
C18_12 C 1.0000 0.2705(4) 0.7684(5)
C19_12 C 1.0000 0.1191(4) 0.6170(5)
C20_12 C 1.0000 0.1577(5) 0.6588(5)
N4_12 N 1.0000 0.2456(5) 0.6803(5)
C21_12 C 1.0000 0.2093(5) 0.6429(5)
H10_12 H 1.0000 0.2180 0.6090
C22_12 C 1.0000 0.1439(5) 0.7084(5)
H11_12 H 1.0000 0.1100 0.7173
C23_12 C 1.0000 0.1805(4) 0.7452(5)
H12_12 H 1.0000 0.1715 0.7790
C24_12 C 1.0000 0.2295(4) 0.7316(5)
loop_
_geom_bond_atom_site_label_1
_geom_bond_atom_site_label_2
_geom_bond_site_symmetry_1
_geom_bond_site_symmetry_2
O3 Zr1 1_555 1_555
O15 Zr1 1_555 1_555
O17 Zr1 1_555 1_555
O18 Zr3 1_555 1_555
O19 Zr3 1_555 1_555
O20 Zr3 1_555 1_555
O21 Zr1 1_555 1_555
O22 Zr1 1_555 1_555
Zr7 O3 1_555 1_555
Zr8 O3 1_555 1_555
O24 Zr3 1_555 1_555
O28 Zr3 1_555 1_555
O15 Zr6 1_555 1_555
O15 Zr8 1_555 1_555
O1 C1 1_555 1_555
O2 C1 1_555 1_555
C1 C2 1_555 1_555
C2 C3 1_555 1_555
N1 C3 1_555 1_555
C3 H1 1_555 1_555
C4 C2 1_555 1_555
H2 C4 1_555 1_555
C5 C4 1_555 1_555
H3 C5 1_555 1_555
C6 N1 1_555 1_555
Zr1_2 O1 1_555 1_555
O4 C7 1_555 1_555
O5 C7 1_555 1_555
C7 C8 1_555 1_555
C8 C9 1_555 1_555
N2 C9 1_555 1_555
C9 H4 1_555 1_555
C10 C8 1_555 1_555
H5 C10 1_555 1_555
C11 C10 1_555 1_555
H6 C11 1_555 1_555
C12 C6 1_555 1_555
O6 Zr1_2 1_555 1_555
O7 C13 1_555 1_555
O8 C13 1_555 1_555
C13 C14 1_555 1_555
C14 C15 1_555 1_555
N3 C15 1_555 1_555
C15 H7 1_555 1_555
C16 C14 1_555 1_555
H8 C16 1_555 1_555
C17 C16 1_555 1_555
H9 C17 1_555 1_555
C18 N3 1_555 1_555
Zr2 O5 1_555 1_555
O9 C19 1_555 1_555
O10 C19 1_555 1_555
C19 C20 1_555 1_555
C20 C21 1_555 1_555
N4 C21 1_555 1_555
C21 H10 1_555 1_555
C22 C20 1_555 1_555
H11 C22 1_555 1_555
C23 C22 1_555 1_555
H12 C23 1_555 1_555
C24 C18 1_555 1_555
O11 Zr2 1_555 1_555
O12 C25 1_555 1_555
C25 O11 1_555 1_555
C26 C25 1_555 1_555
N5 C27 1_555 1_555
C27 C26 1_555 1_555
H13 C27 1_555 1_555
C28 C26 1_555 1_555
H14 C28 1_555 1_555
C29 C28 1_555 1_555
H15 C29 1_555 1_555
C30 N5 1_555 1_555
O13 C31 1_555 1_555
O14 C31 1_555 1_555
C31 C32 1_555 1_555
C32 C33 1_555 1_555
N6 C33 1_555 1_555
C33 H16 1_555 1_555
C34 C32 1_555 1_555
H17 C34 1_555 1_555
C35 C34 1_555 1_555
H18 C35 1_555 1_555
C36 C30 1_555 1_555
Zr3_2 O10 1_555 1_555
O16 Zr1_2 1_555 1_555
O18_2 Zr3_2 1_555 1_555
O19_2 Zr3_2 1_555 1_555
O21_2 Zr1_2 1_555 1_555
O22_2 Zr1_2 1_555 1_555
O23 Zr2 1_555 1_555
Zr5 O9 1_555 1_555
Zr5_2 O13 1_555 1_555
Zr6_2 O6 1_555 1_555
Zr9 O2 1_555 1_555
Zr10 O12 1_555 1_555
Zr11 O8 1_555 1_555
Zr12 O4 1_555 1_555
Zr13_2 O14 1_555 1_555
O25 Zr3_2 1_555 1_555
O26 Zr2 1_555 1_555
O27 Zr2 1_555 1_555
O29 Zr3_2 1_555 1_555
O30 Zr2 1_555 1_555
O31 Zr2 1_555 1_555
C5 C6 1_555 1_555
N2 C12 1_555 1_555
C11 C12 1_555 1_555
O6 Zr9 1_555 1_555
O7 Zr2 1_555 1_555
C17 C18 1_555 1_555
N4 C24 1_555 1_555
C23 C24 1_555 1_555
C29 C30 1_555 1_555
N6 C36 1_555 1_555
C35 C36 1_555 1_555
O16 Zr7_2 1_555 1_555
O16 Zr9 1_555 1_555
Zr5 O25 1_555 1_555
Zr5 O29 1_555 1_555
Zr10 O26 1_555 1_555
Zr10 O30 1_555 1_555
Zr11 O27 1_555 1_555
Zr11 O31 1_555 1_555
Zr12 O26 1_555 1_555
Zr12 O31 1_555 1_555
O1_2 C1_2 1_555 1_555
O2_2 C1_2 1_555 1_555
C1_2 C2_2 1_555 1_555
C2_2 C3_2 1_555 1_555
N1_2 C3_2 1_555 1_555
C3_2 H1_2 1_555 1_555
C4_2 C2_2 1_555 1_555
H2_2 C4_2 1_555 1_555
C5_2 C4_2 1_555 1_555
H3_2 C5_2 1_555 1_555
C6_2 N1_2 1_555 1_555
Zr1_3 O1_2 1_555 1_555
O4_2 C7_2 1_555 1_555
O5_2 C7_2 1_555 1_555
C7_2 C8_2 1_555 1_555
C8_2 C9_2 1_555 1_555
N2_2 C9_2 1_555 1_555
C9_2 H4_2 1_555 1_555
C10_2 C8_2 1_555 1_555
H5_2 C10_2 1_555 1_555
C11_2 C10_2 1_555 1_555
H6_2 C11_2 1_555 1_555
C12_2 C6_2 1_555 1_555
O6_2 Zr1_3 1_555 1_555
O7_2 C13_2 1_555 1_555
O8_2 C13_2 1_555 1_555
C13_2 C14_2 1_555 1_555
C14_2 C15_2 1_555 1_555
N3_2 C15_2 1_555 1_555
C15_2 H7_2 1_555 1_555
C16_2 C14_2 1_555 1_555
H8_2 C16_2 1_555 1_555
C17_2 C16_2 1_555 1_555
H9_2 C17_2 1_555 1_555
C18_2 N3_2 1_555 1_555
Zr2_2 O5_2 1_555 1_555
O9_2 C19_2 1_555 1_555
O20 C19_2 1_555 1_555
C19_2 C20_2 1_555 1_555
C20_2 C21_2 1_555 1_555
N4_2 C21_2 1_555 1_555
C21_2 H10_2 1_555 1_555
C22_2 C20_2 1_555 1_555
H11_2 C22_2 1_555 1_555
C23_2 C22_2 1_555 1_555
H12_2 C23_2 1_555 1_555
C24_2 C18_2 1_555 1_555
O11_2 Zr2_2 1_555 1_555
O12_2 C25_2 1_555 1_555
C25_2 O11_2 1_555 1_555
C26_2 C25_2 1_555 1_555
N5_2 C27_2 1_555 1_555
C27_2 C26_2 1_555 1_555
H13_2 C27_2 1_555 1_555
C28_2 C26_2 1_555 1_555
H14_2 C28_2 1_555 1_555
C29_2 C28_2 1_555 1_555
H15_2 C29_2 1_555 1_555
C30_2 N5_2 1_555 1_555
O13_2 C31_2 1_555 1_555
O14_2 C31_2 1_555 1_555
C31_2 C32_2 1_555 1_555
C32_2 C33_2 1_555 1_555
N6_2 C33_2 1_555 1_555
C33_2 H16_2 1_555 1_555
C34_2 C32_2 1_555 1_555
H17_2 C34_2 1_555 1_555
C35_2 C34_2 1_555 1_555
H18_2 C35_2 1_555 1_555
C36_2 C30_2 1_555 1_555
O16_2 Zr1_3 1_555 1_555
O21_3 Zr1_3 1_555 1_555
O22_3 Zr1_3 1_555 1_555
O23_2 Zr2_2 1_555 1_555
Zr5_3 O9_2 1_555 1_555
Zr5_4 O13_2 1_555 1_555
Zr6_3 O6_2 1_555 1_555
Zr8_2 O2_2 1_555 1_555
Zr10 O12_2 1_555 1_555
Zr11 O8_2 1_555 1_555
Zr12_2 O4_2 1_555 1_555
Zr13 O14_2 1_555 1_555
O26_2 Zr2_2 1_555 1_555
O27_2 Zr2_2 1_555 1_555
O30_2 Zr2_2 1_555 1_555
O31_2 Zr2_2 1_555 1_555
C5_2 C6_2 1_555 1_555
N2_2 C12_2 1_555 1_555
C11_2 C12_2 1_555 1_555
O6_2 Zr8_2 1_555 1_555
O7_2 Zr2_2 1_555 1_555
C17_2 C18_2 1_555 1_555
N4_2 C24_2 1_555 1_555
C23_2 C24_2 1_555 1_555
C29_2 C30_2 1_555 1_555
N6_2 C36_2 1_555 1_555
C35_2 C36_2 1_555 1_555
O16_2 Zr7_3 1_555 1_555
O16_2 Zr8_2 1_555 1_555
Zr5_3 O24 1_555 1_555
Zr5_3 O28 1_555 1_555
Zr10 O26_2 1_555 1_555
Zr10 O30_2 1_555 1_555
Zr11 O27_2 1_555 1_555
Zr11 O31_2 1_555 1_555
Zr12_2 O26_2 1_555 1_555
Zr12_2 O31_2 1_555 1_555
O3_2 Zr1_4 1_555 1_555
O15_2 Zr1_4 1_555 1_555
O17_2 Zr1_4 1_555 1_555
O21_4 Zr1_4 1_555 1_555
O22_4 Zr1_4 1_555 1_555
Zr7_4 O3_2 1_555 1_555
Zr9_2 O3_2 1_555 1_555
O15_2 Zr6_4 1_555 1_555
O15_2 Zr9_2 1_555 1_555
O18_3 Zr13 1_555 1_555
O19_3 Zr13 1_555 1_555
O24_2 Zr13 1_555 1_555
O28_2 Zr13 1_555 1_555
O17_2 C1_3 1_555 1_555
O2_3 C1_3 1_555 1_555
C1_3 C2_3 1_555 1_555
C2_3 C3_3 1_555 1_555
N1_3 C3_3 1_555 1_555
C3_3 H1_3 1_555 1_555
C4_3 C2_3 1_555 1_555
H2_3 C4_3 1_555 1_555
C5_3 C4_3 1_555 1_555
H3_3 C5_3 1_555 1_555
C6_3 N1_3 1_555 1_555
O4_3 C7_3 1_555 1_555
O23 C7_3 1_555 1_555
C7_3 C8_3 1_555 1_555
C8_3 C9_3 1_555 1_555
N2_3 C9_3 1_555 1_555
C9_3 H4_3 1_555 1_555
C10_3 C8_3 1_555 1_555
H5_3 C10_3 1_555 1_555
C11_3 C10_3 1_555 1_555
H6_3 C11_3 1_555 1_555
C12_3 C6_3 1_555 1_555
O18_4 Zr13_2 1_555 1_555
O19_4 Zr13_2 1_555 1_555
Zr9_2 O2_3 1_555 1_555
Zr12_2 O4_3 1_555 1_555
O25_2 Zr13_2 1_555 1_555
O29_2 Zr13_2 1_555 1_555
C5_3 C6_3 1_555 1_555
N2_3 C12_3 1_555 1_555
C11_3 C12_3 1_555 1_555
Zr5_2 O25_2 1_555 1_555
Zr5_2 O29_2 1_555 1_555
Zr12_2 O27 1_555 1_555
Zr12_2 O30 1_555 1_555
O17 C1_4 1_555 1_555
O2_4 C1_4 1_555 1_555
C1_4 C2_4 1_555 1_555
C2_4 C3_4 1_555 1_555
N1_4 C3_4 1_555 1_555
C3_4 H1_4 1_555 1_555
C4_4 C2_4 1_555 1_555
H2_4 C4_4 1_555 1_555
C5_4 C4_4 1_555 1_555
H3_4 C5_4 1_555 1_555
C6_4 N1_4 1_555 1_555
O4_4 C7_4 1_555 1_555
O23_2 C7_4 1_555 1_555
C7_4 C8_4 1_555 1_555
C8_4 C9_4 1_555 1_555
N2_4 C9_4 1_555 1_555
C9_4 H4_4 1_555 1_555
C10_4 C8_4 1_555 1_555
H5_4 C10_4 1_555 1_555
C11_4 C10_4 1_555 1_555
H6_4 C11_4 1_555 1_555
C12_4 C6_4 1_555 1_555
Zr8 O2_4 1_555 1_555
Zr12 O4_4 1_555 1_555
C5_4 C6_4 1_555 1_555
N2_4 C12_4 1_555 1_555
C11_4 C12_4 1_555 1_555
Zr5_4 O24_2 1_555 1_555
Zr5_4 O28_2 1_555 1_555
Zr12 O27_2 1_555 1_555
Zr12 O30_2 1_555 1_555
O18_5 Zr3_3 1_555 1_555
O19_5 Zr3_3 1_555 1_555
O20_2 Zr3_3 1_555 1_555
O21_5 Zr5_3 1_555 1_555
O22_5 Zr5_3 1_555 1_555
Zr7_5 O24 1_555 1_555
O24_3 Zr3_3 1_555 1_555
O28_3 Zr3_3 1_555 1_555
O28 Zr6_5 1_555 1_555
O7_3 C13_3 1_555 1_555
O8_3 C13_3 1_555 1_555
C13_3 C14_3 1_555 1_555
C14_3 C15_3 1_555 1_555
N3_3 C15_3 1_555 1_555
C15_3 H7_3 1_555 1_555
C16_3 C14_3 1_555 1_555
H8_3 C16_3 1_555 1_555
C17_3 C16_3 1_555 1_555
H9_3 C17_3 1_555 1_555
C18_3 N3_3 1_555 1_555
O9_3 C19_3 1_555 1_555
O10_2 C19_3 1_555 1_555
C19_3 C20_3 1_555 1_555
C20_3 C21_3 1_555 1_555
N4_3 C21_3 1_555 1_555
C21_3 H10_3 1_555 1_555
C22_3 C20_3 1_555 1_555
H11_3 C22_3 1_555 1_555
C23_3 C22_3 1_555 1_555
H12_3 C23_3 1_555 1_555
C24_3 C18_3 1_555 1_555
O11_3 Zr10 1_555 1_555
O12_3 C25_3 1_555 1_555
C25_3 O11_3 1_555 1_555
C26_3 C25_3 1_555 1_555
N5_3 C27_3 1_555 1_555
C27_3 C26_3 1_555 1_555
H13_3 C27_3 1_555 1_555
C28_3 C26_3 1_555 1_555
H14_3 C28_3 1_555 1_555
C29_3 C28_3 1_555 1_555
H15_3 C29_3 1_555 1_555
C30_3 N5_3 1_555 1_555
O13_3 C31_3 1_555 1_555
O14_3 C31_3 1_555 1_555
C31_3 C32_3 1_555 1_555
C32_3 C33_3 1_555 1_555
N6_3 C33_3 1_555 1_555
C33_3 H16_3 1_555 1_555
C34_3 C32_3 1_555 1_555
H17_3 C34_3 1_555 1_555
C35_3 C34_3 1_555 1_555
H18_3 C35_3 1_555 1_555
C36_3 C30_3 1_555 1_555
Zr3_4 O10_2 1_555 1_555
O18_6 Zr3_4 1_555 1_555
O19_6 Zr3_4 1_555 1_555
O21_6 Zr5_4 1_555 1_555
O22_6 Zr5_4 1_555 1_555
Zr5_5 O9_3 1_555 1_555
Zr5_6 O13_3 1_555 1_555
Zr6_6 O24_2 1_555 1_555
Zr12_2 O12_3 1_555 1_555
Zr12 O8_3 1_555 1_555
Zr13_4 O14_3 1_555 1_555
O25_3 Zr3_4 1_555 1_555
O29_3 Zr3_4 1_555 1_555
O7_3 Zr10 1_555 1_555
C17_3 C18_3 1_555 1_555
N4_3 C24_3 1_555 1_555
C23_3 C24_3 1_555 1_555
C29_3 C30_3 1_555 1_555
N6_3 C36_3 1_555 1_555
C35_3 C36_3 1_555 1_555
O28_2 Zr7_6 1_555 1_555
Zr5_5 O25_3 1_555 1_555
Zr5_5 O29_3 1_555 1_555
O7_4 C13_4 1_555 1_555
O8_4 C13_4 1_555 1_555
C13_4 C14_4 1_555 1_555
C14_4 C15_4 1_555 1_555
N3_4 C15_4 1_555 1_555
C15_4 H7_4 1_555 1_555
C16_4 C14_4 1_555 1_555
H8_4 C16_4 1_555 1_555
C17_4 C16_4 1_555 1_555
H9_4 C17_4 1_555 1_555
C18_4 N3_4 1_555 1_555
O9_4 C19_4 1_555 1_555
O20_2 C19_4 1_555 1_555
C19_4 C20_4 1_555 1_555
C20_4 C21_4 1_555 1_555
N4_4 C21_4 1_555 1_555
C21_4 H10_4 1_555 1_555
C22_4 C20_4 1_555 1_555
H11_4 C22_4 1_555 1_555
C23_4 C22_4 1_555 1_555
H12_4 C23_4 1_555 1_555
C24_4 C18_4 1_555 1_555
O11_4 Zr11 1_555 1_555
O12_4 C25_4 1_555 1_555
C25_4 O11_4 1_555 1_555
C26_4 C25_4 1_555 1_555
N5_4 C27_4 1_555 1_555
C27_4 C26_4 1_555 1_555
H13_4 C27_4 1_555 1_555
C28_4 C26_4 1_555 1_555
H14_4 C28_4 1_555 1_555
C29_4 C28_4 1_555 1_555
H15_4 C29_4 1_555 1_555
C30_4 N5_4 1_555 1_555
O13_4 C31_4 1_555 1_555
O14_4 C31_4 1_555 1_555
C31_4 C32_4 1_555 1_555
C32_4 C33_4 1_555 1_555
N6_4 C33_4 1_555 1_555
C33_4 H16_4 1_555 1_555
C34_4 C32_4 1_555 1_555
H17_4 C34_4 1_555 1_555
C35_4 C34_4 1_555 1_555
H18_4 C35_4 1_555 1_555
C36_4 C30_4 1_555 1_555
O21_7 Zr5 1_555 1_555
O22_7 Zr5 1_555 1_555
Zr5_7 O9_4 1_555 1_555
Zr5_8 O13_4 1_555 1_555
Zr6_7 O25 1_555 1_555
Zr12_2 O12_4 1_555 1_555
Zr12 O8_4 1_555 1_555
Zr13_3 O14_4 1_555 1_555
O7_4 Zr11 1_555 1_555
C17_4 C18_4 1_555 1_555
N4_4 C24_4 1_555 1_555
C23_4 C24_4 1_555 1_555
C29_4 C30_4 1_555 1_555
N6_4 C36_4 1_555 1_555
C35_4 C36_4 1_555 1_555
O29 Zr7_7 1_555 1_555
Zr5_7 O24_3 1_555 1_555
Zr5_7 O28_3 1_555 1_555
O21_8 Zr5_2 1_555 1_555
O22_8 Zr5_2 1_555 1_555
Zr7_8 O25_2 1_555 1_555
O29_2 Zr6_8 1_555 1_555
O18_7 Zr13_3 1_555 1_555
O19_7 Zr13_3 1_555 1_555
O24_4 Zr13_3 1_555 1_555
O28_4 Zr13_3 1_555 1_555
O18_8 Zr13_4 1_555 1_555
O19_8 Zr13_4 1_555 1_555
O25_4 Zr13_4 1_555 1_555
O29_4 Zr13_4 1_555 1_555
Zr5_6 O25_4 1_555 1_555
Zr5_6 O29_4 1_555 1_555
Zr5_8 O24_4 1_555 1_555
Zr5_8 O28_4 1_555 1_555
O18_9 Zr8 1_555 1_555
O19_9 Zr8 1_555 1_555
O21_9 Zr5_7 1_555 1_555
O22_9 Zr5_7 1_555 1_555
Zr7_9 O24_3 1_555 1_555
O28_3 Zr6_9 1_555 1_555
O18_10 Zr8_2 1_555 1_555
O19_10 Zr8_2 1_555 1_555
O21_10 Zr5_8 1_555 1_555
O22_10 Zr5_8 1_555 1_555
Zr6_11 O24_4 1_555 1_555
O28_4 Zr7_11 1_555 1_555
O21_11 Zr5_5 1_555 1_555
O22_11 Zr5_5 1_555 1_555
Zr6_10 O25_3 1_555 1_555
O29_3 Zr7_10 1_555 1_555
O21_12 Zr5_6 1_555 1_555
O22_12 Zr5_6 1_555 1_555
Zr7_12 O25_4 1_555 1_555
O29_4 Zr6_12 1_555 1_555
O18_11 Zr9 1_555 1_555
O19_11 Zr9 1_555 1_555
O18_12 Zr9_2 1_555 1_555
O19_12 Zr9_2 1_555 1_555
O18_5 C1_5 1_555 1_555
O2_5 C1_5 1_555 1_555
C1_5 C2_5 1_555 1_555
C2_5 C3_5 1_555 1_555
N1_5 C3_5 1_555 1_555
C3_5 H1_5 1_555 1_555
C4_5 C2_5 1_555 1_555
H2_5 C4_5 1_555 1_555
C5_5 C4_5 1_555 1_555
H3_5 C5_5 1_555 1_555
C6_5 N1_5 1_555 1_555
O4_5 C7_5 1_555 1_555
O21_5 C7_5 1_555 1_555
C7_5 C8_5 1_555 1_555
C8_5 C9_5 1_555 1_555
N2_5 C9_5 1_555 1_555
C9_5 H4_5 1_555 1_555
C10_5 C8_5 1_555 1_555
H5_5 C10_5 1_555 1_555
C11_5 C10_5 1_555 1_555
H6_5 C11_5 1_555 1_555
C12_5 C6_5 1_555 1_555
Zr7_9 O2_5 1_555 1_555
Zr7_5 O4_5 1_555 1_555
C5_5 C6_5 1_555 1_555
N2_5 C12_5 1_555 1_555
C11_5 C12_5 1_555 1_555
O18_6 C1_6 1_555 1_555
O2_6 C1_6 1_555 1_555
C1_6 C2_6 1_555 1_555
C2_6 C3_6 1_555 1_555
N1_6 C3_6 1_555 1_555
C3_6 H1_6 1_555 1_555
C4_6 C2_6 1_555 1_555
H2_6 C4_6 1_555 1_555
C5_6 C4_6 1_555 1_555
H3_6 C5_6 1_555 1_555
C6_6 N1_6 1_555 1_555
O4_6 C7_6 1_555 1_555
O21_6 C7_6 1_555 1_555
C7_6 C8_6 1_555 1_555
C8_6 C9_6 1_555 1_555
N2_6 C9_6 1_555 1_555
C9_6 H4_6 1_555 1_555
C10_6 C8_6 1_555 1_555
H5_6 C10_6 1_555 1_555
C11_6 C10_6 1_555 1_555
H6_6 C11_6 1_555 1_555
C12_6 C6_6 1_555 1_555
Zr7_10 O2_6 1_555 1_555
Zr7_6 O4_6 1_555 1_555
C5_6 C6_6 1_555 1_555
N2_6 C12_6 1_555 1_555
C11_6 C12_6 1_555 1_555
O18_7 C1_7 1_555 1_555
O2_7 C1_7 1_555 1_555
C1_7 C2_7 1_555 1_555
C2_7 C3_7 1_555 1_555
N1_7 C3_7 1_555 1_555
C3_7 H1_7 1_555 1_555
C4_7 C2_7 1_555 1_555
H2_7 C4_7 1_555 1_555
C5_7 C4_7 1_555 1_555
H3_7 C5_7 1_555 1_555
C6_7 N1_7 1_555 1_555
O4_7 C7_7 1_555 1_555
O22_7 C7_7 1_555 1_555
C7_7 C8_7 1_555 1_555
C8_7 C9_7 1_555 1_555
N2_7 C9_7 1_555 1_555
C9_7 H4_7 1_555 1_555
C10_7 C8_7 1_555 1_555
H5_7 C10_7 1_555 1_555
C11_7 C10_7 1_555 1_555
H6_7 C11_7 1_555 1_555
C12_7 C6_7 1_555 1_555
Zr6_11 O2_7 1_555 1_555
Zr6_7 O4_7 1_555 1_555
C5_7 C6_7 1_555 1_555
N2_7 C12_7 1_555 1_555
C11_7 C12_7 1_555 1_555
O18_8 C1_8 1_555 1_555
O2_8 C1_8 1_555 1_555
C1_8 C2_8 1_555 1_555
C2_8 C3_8 1_555 1_555
N1_8 C3_8 1_555 1_555
C3_8 H1_8 1_555 1_555
C4_8 C2_8 1_555 1_555
H2_8 C4_8 1_555 1_555
C5_8 C4_8 1_555 1_555
H3_8 C5_8 1_555 1_555
C6_8 N1_8 1_555 1_555
O4_8 C7_8 1_555 1_555
O22_8 C7_8 1_555 1_555
C7_8 C8_8 1_555 1_555
C8_8 C9_8 1_555 1_555
N2_8 C9_8 1_555 1_555
C9_8 H4_8 1_555 1_555
C10_8 C8_8 1_555 1_555
H5_8 C10_8 1_555 1_555
C11_8 C10_8 1_555 1_555
H6_8 C11_8 1_555 1_555
C12_8 C6_8 1_555 1_555
Zr6_12 O2_8 1_555 1_555
Zr6_8 O4_8 1_555 1_555
C5_8 C6_8 1_555 1_555
N2_8 C12_8 1_555 1_555
C11_8 C12_8 1_555 1_555
O19_7 C1_9 1_555 1_555
O2_9 C1_9 1_555 1_555
C1_9 C2_9 1_555 1_555
C2_9 C3_9 1_555 1_555
N1_9 C3_9 1_555 1_555
C3_9 H1_9 1_555 1_555
C4_9 C2_9 1_555 1_555
H2_9 C4_9 1_555 1_555
C5_9 C4_9 1_555 1_555
H3_9 C5_9 1_555 1_555
C6_9 N1_9 1_555 1_555
O4_9 C7_9 1_555 1_555
O22_5 C7_9 1_555 1_555
C7_9 C8_9 1_555 1_555
C8_9 C9_9 1_555 1_555
N2_9 C9_9 1_555 1_555
C9_9 H4_9 1_555 1_555
C10_9 C8_9 1_555 1_555
H5_9 C10_9 1_555 1_555
C11_9 C10_9 1_555 1_555
H6_9 C11_9 1_555 1_555
C12_9 C6_9 1_555 1_555
Zr7_11 O2_9 1_555 1_555
Zr6_5 O4_9 1_555 1_555
C5_9 C6_9 1_555 1_555
N2_9 C12_9 1_555 1_555
C11_9 C12_9 1_555 1_555
O19_8 C1_10 1_555 1_555
O2_10 C1_10 1_555 1_555
C1_10 C2_10 1_555 1_555
C2_10 C3_10 1_555 1_555
N1_10 C3_10 1_555 1_555
C3_10 H1_10 1_555 1_555
C4_10 C2_10 1_555 1_555
H2_10 C4_10 1_555 1_555
C5_10 C4_10 1_555 1_555
H3_10 C5_10 1_555 1_555
C6_10 N1_10 1_555 1_555
O4_10 C7_10 1_555 1_555
O22_6 C7_10 1_555 1_555
C7_10 C8_10 1_555 1_555
C8_10 C9_10 1_555 1_555
N2_10 C9_10 1_555 1_555
C9_10 H4_10 1_555 1_555
C10_10 C8_10 1_555 1_555
H5_10 C10_10 1_555 1_555
C11_10 C10_10 1_555 1_555
H6_10 C11_10 1_555 1_555
C12_10 C6_10 1_555 1_555
Zr7_12 O2_10 1_555 1_555
Zr6_6 O4_10 1_555 1_555
C5_10 C6_10 1_555 1_555
N2_10 C12_10 1_555 1_555
C11_10 C12_10 1_555 1_555
O19_5 C1_11 1_555 1_555
O2_11 C1_11 1_555 1_555
C1_11 C2_11 1_555 1_555
C2_11 C3_11 1_555 1_555
N1_11 C3_11 1_555 1_555
C3_11 H1_11 1_555 1_555
C4_11 C2_11 1_555 1_555
H2_11 C4_11 1_555 1_555
C5_11 C4_11 1_555 1_555
H3_11 C5_11 1_555 1_555
C6_11 N1_11 1_555 1_555
O4_11 C7_11 1_555 1_555
O21_7 C7_11 1_555 1_555
C7_11 C8_11 1_555 1_555
C8_11 C9_11 1_555 1_555
N2_11 C9_11 1_555 1_555
C9_11 H4_11 1_555 1_555
C10_11 C8_11 1_555 1_555
H5_11 C10_11 1_555 1_555
C11_11 C10_11 1_555 1_555
H6_11 C11_11 1_555 1_555
C12_11 C6_11 1_555 1_555
Zr6_9 O2_11 1_555 1_555
Zr7_7 O4_11 1_555 1_555
C5_11 C6_11 1_555 1_555
N2_11 C12_11 1_555 1_555
C11_11 C12_11 1_555 1_555
O19_6 C1_12 1_555 1_555
O2_12 C1_12 1_555 1_555
C1_12 C2_12 1_555 1_555
C2_12 C3_12 1_555 1_555
N1_12 C3_12 1_555 1_555
C3_12 H1_12 1_555 1_555
C4_12 C2_12 1_555 1_555
H2_12 C4_12 1_555 1_555
C5_12 C4_12 1_555 1_555
H3_12 C5_12 1_555 1_555
C6_12 N1_12 1_555 1_555
O4_12 C7_12 1_555 1_555
O21_8 C7_12 1_555 1_555
C7_12 C8_12 1_555 1_555
C8_12 C9_12 1_555 1_555
N2_12 C9_12 1_555 1_555
C9_12 H4_12 1_555 1_555
C10_12 C8_12 1_555 1_555
H5_12 C10_12 1_555 1_555
C11_12 C10_12 1_555 1_555
H6_12 C11_12 1_555 1_555
C12_12 C6_12 1_555 1_555
Zr6_10 O2_12 1_555 1_555
Zr7_8 O4_12 1_555 1_555
C5_12 C6_12 1_555 1_555
N2_12 C12_12 1_555 1_555
C11_12 C12_12 1_555 1_555
O18 C13_5 1_555 1_555
O8_5 C13_5 1_555 1_555
C13_5 C14_5 1_555 1_555
C14_5 C15_5 1_555 1_555
N3_5 C15_5 1_555 1_555
C15_5 H7_5 1_555 1_555
C16_5 C14_5 1_555 1_555
H8_5 C16_5 1_555 1_555
C17_5 C16_5 1_555 1_555
H9_5 C17_5 1_555 1_555
C18_5 N3_5 1_555 1_555
O9_5 C19_5 1_555 1_555
O21 C19_5 1_555 1_555
C19_5 C20_5 1_555 1_555
C20_5 C21_5 1_555 1_555
N4_5 C21_5 1_555 1_555
C21_5 H10_5 1_555 1_555
C22_5 C20_5 1_555 1_555
H11_5 C22_5 1_555 1_555
C23_5 C22_5 1_555 1_555
H12_5 C23_5 1_555 1_555
C24_5 C18_5 1_555 1_555
O12_5 C25_5 1_555 1_555
C25_5 O19 1_555 1_555
C26_5 C25_5 1_555 1_555
N5_5 C27_5 1_555 1_555
C27_5 C26_5 1_555 1_555
H13_5 C27_5 1_555 1_555
C28_5 C26_5 1_555 1_555
H14_5 C28_5 1_555 1_555
C29_5 C28_5 1_555 1_555
H15_5 C29_5 1_555 1_555
C30_5 N5_5 1_555 1_555
O13_5 C31_5 1_555 1_555
O21_3 C31_5 1_555 1_555
C31_5 C32_5 1_555 1_555
C32_5 C33_5 1_555 1_555
N6_5 C33_5 1_555 1_555
C33_5 H16_5 1_555 1_555
C34_5 C32_5 1_555 1_555
H17_5 C34_5 1_555 1_555
C35_5 C34_5 1_555 1_555
H18_5 C35_5 1_555 1_555
C36_5 C30_5 1_555 1_555
Zr7 O9_5 1_555 1_555
Zr7_3 O13_5 1_555 1_555
Zr6_5 O12_5 1_555 1_555
Zr7_5 O8_5 1_555 1_555
C17_5 C18_5 1_555 1_555
N4_5 C24_5 1_555 1_555
C23_5 C24_5 1_555 1_555
C29_5 C30_5 1_555 1_555
N6_5 C36_5 1_555 1_555
C35_5 C36_5 1_555 1_555
O18_2 C13_6 1_555 1_555
O8_6 C13_6 1_555 1_555
C13_6 C14_6 1_555 1_555
C14_6 C15_6 1_555 1_555
N3_6 C15_6 1_555 1_555
C15_6 H7_6 1_555 1_555
C16_6 C14_6 1_555 1_555
H8_6 C16_6 1_555 1_555
C17_6 C16_6 1_555 1_555
H9_6 C17_6 1_555 1_555
C18_6 N3_6 1_555 1_555
O9_6 C19_6 1_555 1_555
O21_2 C19_6 1_555 1_555
C19_6 C20_6 1_555 1_555
C20_6 C21_6 1_555 1_555
N4_6 C21_6 1_555 1_555
C21_6 H10_6 1_555 1_555
C22_6 C20_6 1_555 1_555
H11_6 C22_6 1_555 1_555
C23_6 C22_6 1_555 1_555
H12_6 C23_6 1_555 1_555
C24_6 C18_6 1_555 1_555
O12_6 C25_6 1_555 1_555
C25_6 O19_2 1_555 1_555
C26_6 C25_6 1_555 1_555
N5_6 C27_6 1_555 1_555
C27_6 C26_6 1_555 1_555
H13_6 C27_6 1_555 1_555
C28_6 C26_6 1_555 1_555
H14_6 C28_6 1_555 1_555
C29_6 C28_6 1_555 1_555
H15_6 C29_6 1_555 1_555
C30_6 N5_6 1_555 1_555
O13_6 C31_6 1_555 1_555
O21_4 C31_6 1_555 1_555
C31_6 C32_6 1_555 1_555
C32_6 C33_6 1_555 1_555
N6_6 C33_6 1_555 1_555
C33_6 H16_6 1_555 1_555
C34_6 C32_6 1_555 1_555
H17_6 C34_6 1_555 1_555
C35_6 C34_6 1_555 1_555
H18_6 C35_6 1_555 1_555
C36_6 C30_6 1_555 1_555
Zr7_2 O9_6 1_555 1_555
Zr7_4 O13_6 1_555 1_555
Zr6_7 O12_6 1_555 1_555
Zr7_7 O8_6 1_555 1_555
C17_6 C18_6 1_555 1_555
N4_6 C24_6 1_555 1_555
C23_6 C24_6 1_555 1_555
C29_6 C30_6 1_555 1_555
N6_6 C36_6 1_555 1_555
C35_6 C36_6 1_555 1_555
O19_3 C13_7 1_555 1_555
O8_7 C13_7 1_555 1_555
C13_7 C14_7 1_555 1_555
C14_7 C15_7 1_555 1_555
N3_7 C15_7 1_555 1_555
C15_7 H7_7 1_555 1_555
C16_7 C14_7 1_555 1_555
H8_7 C16_7 1_555 1_555
C17_7 C16_7 1_555 1_555
H9_7 C17_7 1_555 1_555
C18_7 N3_7 1_555 1_555
O9_7 C19_7 1_555 1_555
O22 C19_7 1_555 1_555
C19_7 C20_7 1_555 1_555
C20_7 C21_7 1_555 1_555
N4_7 C21_7 1_555 1_555
C21_7 H10_7 1_555 1_555
C22_7 C20_7 1_555 1_555
H11_7 C22_7 1_555 1_555
C23_7 C22_7 1_555 1_555
H12_7 C23_7 1_555 1_555
C24_7 C18_7 1_555 1_555
O12_7 C25_7 1_555 1_555
C25_7 O18_3 1_555 1_555
C26_7 C25_7 1_555 1_555
N5_7 C27_7 1_555 1_555
C27_7 C26_7 1_555 1_555
H13_7 C27_7 1_555 1_555
C28_7 C26_7 1_555 1_555
H14_7 C28_7 1_555 1_555
C29_7 C28_7 1_555 1_555
H15_7 C29_7 1_555 1_555
C30_7 N5_7 1_555 1_555
O13_7 C31_7 1_555 1_555
O22_3 C31_7 1_555 1_555
C31_7 C32_7 1_555 1_555
C32_7 C33_7 1_555 1_555
N6_7 C33_7 1_555 1_555
C33_7 H16_7 1_555 1_555
C34_7 C32_7 1_555 1_555
H17_7 C34_7 1_555 1_555
C35_7 C34_7 1_555 1_555
H18_7 C35_7 1_555 1_555
C36_7 C30_7 1_555 1_555
Zr6 O9_7 1_555 1_555
Zr6_3 O13_7 1_555 1_555
Zr6_6 O12_7 1_555 1_555
Zr7_6 O8_7 1_555 1_555
C17_7 C18_7 1_555 1_555
N4_7 C24_7 1_555 1_555
C23_7 C24_7 1_555 1_555
C29_7 C30_7 1_555 1_555
N6_7 C36_7 1_555 1_555
C35_7 C36_7 1_555 1_555
O19_4 C13_8 1_555 1_555
O8_8 C13_8 1_555 1_555
C13_8 C14_8 1_555 1_555
C14_8 C15_8 1_555 1_555
N3_8 C15_8 1_555 1_555
C15_8 H7_8 1_555 1_555
C16_8 C14_8 1_555 1_555
H8_8 C16_8 1_555 1_555
C17_8 C16_8 1_555 1_555
H9_8 C17_8 1_555 1_555
C18_8 N3_8 1_555 1_555
O9_8 C19_8 1_555 1_555
O22_2 C19_8 1_555 1_555
C19_8 C20_8 1_555 1_555
C20_8 C21_8 1_555 1_555
N4_8 C21_8 1_555 1_555
C21_8 H10_8 1_555 1_555
C22_8 C20_8 1_555 1_555
H11_8 C22_8 1_555 1_555
C23_8 C22_8 1_555 1_555
H12_8 C23_8 1_555 1_555
C24_8 C18_8 1_555 1_555
O12_8 C25_8 1_555 1_555
C25_8 O18_4 1_555 1_555
C26_8 C25_8 1_555 1_555
N5_8 C27_8 1_555 1_555
C27_8 C26_8 1_555 1_555
H13_8 C27_8 1_555 1_555
C28_8 C26_8 1_555 1_555
H14_8 C28_8 1_555 1_555
C29_8 C28_8 1_555 1_555
H15_8 C29_8 1_555 1_555
C30_8 N5_8 1_555 1_555
O13_8 C31_8 1_555 1_555
O22_4 C31_8 1_555 1_555
C31_8 C32_8 1_555 1_555
C32_8 C33_8 1_555 1_555
N6_8 C33_8 1_555 1_555
C33_8 H16_8 1_555 1_555
C34_8 C32_8 1_555 1_555
H17_8 C34_8 1_555 1_555
C35_8 C34_8 1_555 1_555
H18_8 C35_8 1_555 1_555
C36_8 C30_8 1_555 1_555
Zr6_2 O9_8 1_555 1_555
Zr6_4 O13_8 1_555 1_555
Zr6_8 O12_8 1_555 1_555
Zr7_8 O8_8 1_555 1_555
C17_8 C18_8 1_555 1_555
N4_8 C24_8 1_555 1_555
C23_8 C24_8 1_555 1_555
C29_8 C30_8 1_555 1_555
N6_8 C36_8 1_555 1_555
C35_8 C36_8 1_555 1_555
O22_13 Zr6 1_555 1_555
O19_13 Zr6_9 1_555 1_555
O18_13 Zr6_10 1_555 1_555
O21_13 Zr6_2 1_555 1_555
O22_14 Zr6_3 1_555 1_555
O19_14 Zr6_11 1_555 1_555
O18_14 Zr6_12 1_555 1_555
O21_14 Zr6_4 1_555 1_555
O22_15 Zr7 1_555 1_555
O21_15 Zr7_2 1_555 1_555
O22_16 Zr7_3 1_555 1_555
O21_16 Zr7_4 1_555 1_555
O18_15 Zr7_9 1_555 1_555
O19_15 Zr7_10 1_555 1_555
O18_16 Zr7_11 1_555 1_555
O19_16 Zr7_12 1_555 1_555
O22_9 C25_9 1_555 1_555
C25_9 O19_13 1_555 1_555
C26_9 C25_9 1_555 1_555
N5_9 C27_9 1_555 1_555
C27_9 C26_9 1_555 1_555
H13_9 C27_9 1_555 1_555
C28_9 C26_9 1_555 1_555
H14_9 C28_9 1_555 1_555
C29_9 C28_9 1_555 1_555
H15_9 C29_9 1_555 1_555
C30_9 N5_9 1_555 1_555
O19_11 C31_9 1_555 1_555
O21_15 C31_9 1_555 1_555
C31_9 C32_9 1_555 1_555
C32_9 C33_9 1_555 1_555
N6_9 C33_9 1_555 1_555
C33_9 H16_9 1_555 1_555
C34_9 C32_9 1_555 1_555
H17_9 C34_9 1_555 1_555
C35_9 C34_9 1_555 1_555
H18_9 C35_9 1_555 1_555
C36_9 C30_9 1_555 1_555
C29_9 C30_9 1_555 1_555
N6_9 C36_9 1_555 1_555
C35_9 C36_9 1_555 1_555
O18_13 C13_9 1_555 1_555
O22_11 C13_9 1_555 1_555
C13_9 C14_9 1_555 1_555
C14_9 C15_9 1_555 1_555
N3_9 C15_9 1_555 1_555
C15_9 H7_9 1_555 1_555
C16_9 C14_9 1_555 1_555
H8_9 C16_9 1_555 1_555
C17_9 C16_9 1_555 1_555
H9_9 C17_9 1_555 1_555
C18_9 N3_9 1_555 1_555
O18_11 C19_9 1_555 1_555
O21_13 C19_9 1_555 1_555
C19_9 C20_9 1_555 1_555
C20_9 C21_9 1_555 1_555
N4_9 C21_9 1_555 1_555
C21_9 H10_9 1_555 1_555
C22_9 C20_9 1_555 1_555
H11_9 C22_9 1_555 1_555
C23_9 C22_9 1_555 1_555
H12_9 C23_9 1_555 1_555
C24_9 C18_9 1_555 1_555
C17_9 C18_9 1_555 1_555
N4_9 C24_9 1_555 1_555
C23_9 C24_9 1_555 1_555
O22_10 C25_10 1_555 1_555
C25_10 O19_14 1_555 1_555
C26_10 C25_10 1_555 1_555
N5_10 C27_10 1_555 1_555
C27_10 C26_10 1_555 1_555
H13_10 C27_10 1_555 1_555
C28_10 C26_10 1_555 1_555
H14_10 C28_10 1_555 1_555
C29_10 C28_10 1_555 1_555
H15_10 C29_10 1_555 1_555
C30_10 N5_10 1_555 1_555
O19_12 C31_10 1_555 1_555
O21_16 C31_10 1_555 1_555
C31_10 C32_10 1_555 1_555
C32_10 C33_10 1_555 1_555
N6_10 C33_10 1_555 1_555
C33_10 H16_10 1_555 1_555
C34_10 C32_10 1_555 1_555
H17_10 C34_10 1_555 1_555
C35_10 C34_10 1_555 1_555
H18_10 C35_10 1_555 1_555
C36_10 C30_10 1_555 1_555
C29_10 C30_10 1_555 1_555
N6_10 C36_10 1_555 1_555
C35_10 C36_10 1_555 1_555
O18_14 C13_10 1_555 1_555
O22_12 C13_10 1_555 1_555
C13_10 C14_10 1_555 1_555
C14_10 C15_10 1_555 1_555
N3_10 C15_10 1_555 1_555
C15_10 H7_10 1_555 1_555
C16_10 C14_10 1_555 1_555
H8_10 C16_10 1_555 1_555
C17_10 C16_10 1_555 1_555
H9_10 C17_10 1_555 1_555
C18_10 N3_10 1_555 1_555
O18_12 C19_10 1_555 1_555
O21_14 C19_10 1_555 1_555
C19_10 C20_10 1_555 1_555
C20_10 C21_10 1_555 1_555
N4_10 C21_10 1_555 1_555
C21_10 H10_10 1_555 1_555
C22_10 C20_10 1_555 1_555
H11_10 C22_10 1_555 1_555
C23_10 C22_10 1_555 1_555
H12_10 C23_10 1_555 1_555
C24_10 C18_10 1_555 1_555
C17_10 C18_10 1_555 1_555
N4_10 C24_10 1_555 1_555
C23_10 C24_10 1_555 1_555
O21_9 C25_11 1_555 1_555
C25_11 O18_15 1_555 1_555
C26_11 C25_11 1_555 1_555
N5_11 C27_11 1_555 1_555
C27_11 C26_11 1_555 1_555
H13_11 C27_11 1_555 1_555
C28_11 C26_11 1_555 1_555
H14_11 C28_11 1_555 1_555
C29_11 C28_11 1_555 1_555
H15_11 C29_11 1_555 1_555
C30_11 N5_11 1_555 1_555
O18_9 C31_11 1_555 1_555
O22_15 C31_11 1_555 1_555
C31_11 C32_11 1_555 1_555
C32_11 C33_11 1_555 1_555
N6_11 C33_11 1_555 1_555
C33_11 H16_11 1_555 1_555
C34_11 C32_11 1_555 1_555
H17_11 C34_11 1_555 1_555
C35_11 C34_11 1_555 1_555
H18_11 C35_11 1_555 1_555
C36_11 C30_11 1_555 1_555
C29_11 C30_11 1_555 1_555
N6_11 C36_11 1_555 1_555
C35_11 C36_11 1_555 1_555
O19_15 C13_11 1_555 1_555
O21_11 C13_11 1_555 1_555
C13_11 C14_11 1_555 1_555
C14_11 C15_11 1_555 1_555
N3_11 C15_11 1_555 1_555
C15_11 H7_11 1_555 1_555
C16_11 C14_11 1_555 1_555
H8_11 C16_11 1_555 1_555
C17_11 C16_11 1_555 1_555
H9_11 C17_11 1_555 1_555
C18_11 N3_11 1_555 1_555
O19_9 C19_11 1_555 1_555
O22_13 C19_11 1_555 1_555
C19_11 C20_11 1_555 1_555
C20_11 C21_11 1_555 1_555
N4_11 C21_11 1_555 1_555
C21_11 H10_11 1_555 1_555
C22_11 C20_11 1_555 1_555
H11_11 C22_11 1_555 1_555
C23_11 C22_11 1_555 1_555
H12_11 C23_11 1_555 1_555
C24_11 C18_11 1_555 1_555
C17_11 C18_11 1_555 1_555
N4_11 C24_11 1_555 1_555
C23_11 C24_11 1_555 1_555
O21_10 C25_12 1_555 1_555
C25_12 O18_16 1_555 1_555
C26_12 C25_12 1_555 1_555
N5_12 C27_12 1_555 1_555
C27_12 C26_12 1_555 1_555
H13_12 C27_12 1_555 1_555
C28_12 C26_12 1_555 1_555
H14_12 C28_12 1_555 1_555
C29_12 C28_12 1_555 1_555
H15_12 C29_12 1_555 1_555
C30_12 N5_12 1_555 1_555
O18_10 C31_12 1_555 1_555
O22_16 C31_12 1_555 1_555
C31_12 C32_12 1_555 1_555
C32_12 C33_12 1_555 1_555
N6_12 C33_12 1_555 1_555
C33_12 H16_12 1_555 1_555
C34_12 C32_12 1_555 1_555
H17_12 C34_12 1_555 1_555
C35_12 C34_12 1_555 1_555
H18_12 C35_12 1_555 1_555
C36_12 C30_12 1_555 1_555
C29_12 C30_12 1_555 1_555
N6_12 C36_12 1_555 1_555
C35_12 C36_12 1_555 1_555
O19_16 C13_12 1_555 1_555
O21_12 C13_12 1_555 1_555
C13_12 C14_12 1_555 1_555
C14_12 C15_12 1_555 1_555
N3_12 C15_12 1_555 1_555
C15_12 H7_12 1_555 1_555
C16_12 C14_12 1_555 1_555
H8_12 C16_12 1_555 1_555
C17_12 C16_12 1_555 1_555
H9_12 C17_12 1_555 1_555
C18_12 N3_12 1_555 1_555
O19_10 C19_12 1_555 1_555
O22_14 C19_12 1_555 1_555
C19_12 C20_12 1_555 1_555
C20_12 C21_12 1_555 1_555
N4_12 C21_12 1_555 1_555
C21_12 H10_12 1_555 1_555
C22_12 C20_12 1_555 1_555
H11_12 C22_12 1_555 1_555
C23_12 C22_12 1_555 1_555
H12_12 C23_12 1_555 1_555
C24_12 C18_12 1_555 1_555
C17_12 C18_12 1_555 1_555
N4_12 C24_12 1_555 1_555
C23_12 C24_12 1_555 1_555

#END
