
###############################################################################
#
# This file contains modified crystal structure data generated from the
# MOF subset of the Cambridge Structural Database (CSD) v543 
# hosted by the Cambridge Crystallographic Data Centre (CCDC).
#
# This work is licensed under the Creative Commons
# Attribution-NonCommercial-ShareAlike 4.0 International License.
# To view a copy of this license, visit
# http://creativecommons.org/licenses/by-nc-sa/4.0/
# or send a letter to
# Creative Commons, PO Box 1866, Mountain View, CA 94042, USA.
#
# CIF created using the CSD Python API on 29 September 2022
# The structure has been converted into the P1 space group
# The structure has a 3D framework
# The original CSD entry XIVVUW is in the orthorhombic crystal system
# The framework has been calculated to contain at least 10.0% void space
# The void calculation uses a probe of radius 1.32A, grid spacing 0.4
#
###############################################################################

data_XIVVUW
_chemical_formula_moiety         '(C240 H184 Co24 N24 O108)n'
_symmetry_cell_setting           triclinic
_symmetry_space_group_name_H-M   'P 1'
_symmetry_Int_Tables_number      1
_space_group_name_Hall           'P 1'
loop_
_symmetry_equiv_pos_site_id
_symmetry_equiv_pos_as_xyz
1 x,y,z
_cell_length_a                   23.539(2)
_cell_length_b                   11.9980(11)
_cell_length_c                   32.450(3)
_cell_angle_alpha                90
_cell_angle_beta                 90
_cell_angle_gamma                90
_cell_volume                     9164.56
loop_
_atom_site_label
_atom_site_type_symbol
_atom_site_fract_x
_atom_site_fract_y
_atom_site_fract_z
H5 H 0.4294 0.0110 0.0569
C14 C 0.29801(17) 0.0305(3) 0.07581(12)
H6 H 0.2701 0.0835 0.0809
N2 N 0.35213(13) 0.0654(3) 0.06813(10)
Co7 Co 0.36756(2) 0.23434(4) 0.069533(16)
C1 C 0.46542(17) 0.5026(3) 0.09354(12)
C2 C 0.46755(17) 0.6080(3) 0.06786(12)
C3 C 0.42803(17) 0.6911(3) 0.07632(13)
H1 H 0.4026 0.6813 0.0979
C4 C 0.42571(17) 0.7892(3) 0.05303(13)
C5 C 0.46384(17) 0.8030(3) 0.02100(13)
H2 H 0.4625 0.8674 0.0050
C6 C 0.50417(17) 0.7212(3) 0.01251(12)
C7 C 0.50633(17) 0.6236(3) 0.03598(13)
H3 H 0.5335 0.5694 0.0303
C9 C 0.22155(17) 0.8848(3) 0.08169(13)
C10 C 0.28317(16) 0.9188(3) 0.07626(12)
C11 C 0.32515(17) 0.8403(3) 0.06946(12)
H4 H 0.3160 0.7648 0.0699
C12 C 0.38098(16) 0.8731(3) 0.06202(12)
C13 C 0.39229(17) 0.9876(3) 0.06176(12)
C15 C 0.70863(16) 0.1023(3) 0.32691(12)
H7 H 0.7361 0.0501 0.3341
C16 C 0.72546(16) 0.2109(3) 0.32056(12)
C17 C 0.68415(18) 0.2896(3) 0.31039(13)
H8 H 0.6939 0.3643 0.3074
C18 C 0.62826(17) 0.2553(3) 0.30480(12)
C19 C 0.61674(17) 0.1441(3) 0.31134(12)
H9 H 0.5796 0.1198 0.3072
C20 C 0.47455(18) 0.3571(3) 0.20376(12)
C21 C 0.50369(17) 0.3721(3) 0.24505(12)
C22 C 0.55195(17) 0.3120(3) 0.25505(12)
H10 H 0.5658 0.2590 0.2367
C23 C 0.58019(16) 0.3300(3) 0.29257(12)
C24 C 0.55978(18) 0.4118(4) 0.31898(13)
H11 H 0.5795 0.4279 0.3431
C25 C 0.51017(18) 0.4698(3) 0.30991(13)
C26 C 0.48213(18) 0.4485(3) 0.27315(13)
H12 H 0.4485 0.4858 0.2673
C27 C 0.48591(19) 0.5568(4) 0.33855(14)
C28 C 0.78765(17) 0.2402(4) 0.32643(13)
Co1 Co 0.37218(2) 0.41311(4) 0.151737(16)
Co3 Co 0.48801(2) 0.26737(5) 0.115285(17)
N1 N 0.65523(13) 0.0686(3) 0.32321(10)
O1 O 0.43346(12) 0.5071(2) 0.12410(9)
O2 O 0.49561(12) 0.4203(2) 0.08313(9)
O5 O 0.21152(12) 0.7854(2) 0.07010(9)
O6 O 0.18702(12) 0.9515(2) 0.09589(10)
O7 O 0.50409(12) 0.3181(3) 0.17539(8)
O8 O 0.42317(11) 0.3866(2) 0.20248(8)
O9 O 0.43404(14) 0.5802(3) 0.33500(12)
O10 O 0.51917(13) 0.6004(2) 0.36426(9)
O11 O 0.57564(15) 0.2438(3) 0.11021(14)
O12 O 0.40174(10) 0.2719(2) 0.12220(8)
H13 H 0.3925 0.2097 0.1406
O13 O 0.79950(12) 0.3431(2) 0.32515(9)
O14 O 0.82143(13) 0.1622(3) 0.33210(11)
H14 H 0.571(3) 0.190(3) 0.1271(13)
H15 H 0.5793(11) 0.235(5) 0.0845(4)
Co5 Co 0.87218(2) 0.41311(4) 0.348263(16)
Co6 Co 0.12782(2) 0.91311(4) 0.151737(16)
Co9 Co 0.13244(2) 0.73434(4) 0.069533(16)
Co10 Co 0.51199(2) 0.76737(5) 0.384715(17)
N3 N 0.34477(13) 0.5686(3) 0.17679(10)
O15 O 0.40573(12) 0.3013(3) 0.02024(9)
O16 O 0.46992(13) 0.1975(2) 0.05190(9)
O17 O 0.28848(12) 0.2854(2) 0.07010(9)
O18 O 0.31298(12) 0.4515(2) 0.09589(10)
O19 O 0.48083(13) 0.1004(2) 0.13574(9)
O20 O 0.29950(12) 0.3431(2) 0.17485(9)
C8 C 0.54479(18) 0.7410(3) 0.97766(12)
O3 O 0.59427(12) 0.6987(3) 0.97976(9)
O4 O 0.53008(13) 0.8025(2) 0.94810(9)
Co8 Co 0.63244(2) 0.76566(4) 0.930467(16)
Co11 Co 0.51199(2) 0.73263(5) 0.884715(17)
Co4 Co 0.62782(2) 0.91311(4) 0.348263(16)
C1_2 C 0.03458(17) 0.4974(3) 0.59354(12)
C2_2 C 0.03245(17) 0.3920(3) 0.56786(12)
C3_2 C 0.07197(17) 0.3089(3) 0.57632(13)
H1_2 H 0.0974 0.3187 0.5979
C4_2 C 0.07429(17) 0.2108(3) 0.55303(13)
C5_2 C 0.03616(17) 0.1970(3) 0.52100(13)
H2_2 H 0.0375 0.1326 0.5050
C9_2 C 0.27845(17) 0.1152(3) 0.58169(13)
C10_2 C 0.21683(16) 0.0812(3) 0.57626(12)
C11_2 C 0.17485(17) 0.1597(3) 0.56946(12)
H4_2 H 0.1840 0.2352 0.5699
C12_2 C 0.11902(16) 0.1269(3) 0.56202(12)
C13_2 C 0.10771(17) 0.0124(3) 0.56176(12)
C20_2 C 0.02545(18) 0.6429(3) 0.70376(12)
C26_2 C 0.01787(18) 0.5515(3) 0.77315(13)
H12_2 H 0.0515 0.5142 0.7673
C27_2 C 0.01409(19) 0.4432(4) 0.83855(14)
Co1_2 Co 0.12782(2) 0.58689(4) 0.651737(16)
Co2 Co 0.13244(2) 0.76566(4) 0.569533(16)
Co3_2 Co 0.01199(2) 0.73263(5) 0.615285(17)
O1_2 O 0.06654(12) 0.4929(2) 0.62410(9)
O2_2 O 0.00439(12) 0.5797(2) 0.58313(9)
O5_2 O 0.28848(12) 0.2146(2) 0.57010(9)
O6_2 O 0.31298(12) 0.0485(2) 0.59589(10)
O8_2 O 0.07683(11) 0.6134(2) 0.70248(8)
O9_2 O 0.06596(14) 0.4198(3) 0.83500(12)
O12_2 O 0.09826(10) 0.7281(2) 0.62220(8)
H13_2 H 0.1075 0.7903 0.6406
Co6_2 Co 0.37218(2) 0.08689(4) 0.651737(16)
Co9_2 Co 0.36756(2) 0.26566(4) 0.569533(16)
N3_2 N 0.15523(13) 0.4314(3) 0.67679(10)
N4 N 0.14787(13) 0.9346(3) 0.56813(10)
O15_2 O 0.09427(12) 0.6987(3) 0.52024(9)
O16_2 O 0.03008(13) 0.8025(2) 0.55190(9)
O17_2 O 0.21152(12) 0.7146(2) 0.57010(9)
O18_2 O 0.18702(12) 0.5485(2) 0.59589(10)
O19_2 O 0.01917(13) 0.8996(2) 0.63574(9)
O20_2 O 0.20050(12) 0.6569(2) 0.67485(9)
H5_2 H 0.0706 0.9890 0.5569
C14_2 C 0.20199(17) 0.9695(3) 0.57581(12)
H6_2 H 0.2299 0.9165 0.5809
Co4_2 Co 0.87218(2) 0.08689(4) 0.848263(16)
C6_2 C 0.99583(17) 0.2788(3) 0.51251(12)
C7_2 C 0.99367(17) 0.3764(3) 0.53598(13)
H3_2 H 0.9665 0.4306 0.5303
C8_2 C 0.95521(18) 0.2590(3) 0.47766(12)
C15_2 C 0.79137(16) 0.8977(3) 0.82691(12)
H7_2 H 0.7639 0.9499 0.8341
C16_2 C 0.77454(16) 0.7891(3) 0.82056(12)
C17_2 C 0.81585(18) 0.7104(3) 0.81039(13)
H8_2 H 0.8061 0.6357 0.8074
C18_2 C 0.87174(17) 0.7447(3) 0.80480(12)
C19_2 C 0.88326(17) 0.8559(3) 0.81134(12)
H9_2 H 0.9204 0.8802 0.8072
C21_2 C 0.99631(17) 0.6279(3) 0.74505(12)
C22_2 C 0.94805(17) 0.6880(3) 0.75505(12)
H10_2 H 0.9342 0.7410 0.7367
C23_2 C 0.91981(16) 0.6700(3) 0.79257(12)
C24_2 C 0.94022(18) 0.5882(4) 0.81898(13)
H11_2 H 0.9205 0.5721 0.8431
C25_2 C 0.98983(18) 0.5302(3) 0.80991(13)
C28_2 C 0.71235(17) 0.7598(4) 0.82643(13)
N1_2 N 0.84477(13) 0.9314(3) 0.82321(10)
O3_2 O 0.90573(12) 0.3013(3) 0.47976(9)
O4_2 O 0.96992(13) 0.1975(2) 0.44810(9)
O7_2 O 0.99591(12) 0.6819(3) 0.67539(8)
O10_2 O 0.98083(13) 0.3996(2) 0.86426(9)
O11_2 O 0.92436(15) 0.7562(3) 0.61021(14)
O13_2 O 0.70050(12) 0.6569(2) 0.82515(9)
O14_2 O 0.67857(13) 0.8378(3) 0.83210(11)
H14_2 H 0.929(3) 0.810(3) 0.6271(13)
H15_2 H 0.9207(11) 0.765(5) 0.5845(4)
Co5_2 Co 0.62782(2) 0.58689(4) 0.848263(16)
Co8_2 Co 0.86756(2) 0.23434(4) 0.430467(16)
Co10_2 Co 0.98801(2) 0.23263(5) 0.884715(17)
Co11_2 Co 0.98801(2) 0.26737(5) 0.384715(17)
C15_3 C 0.20863(16) 0.3977(3) 0.67309(12)
H7_3 H 0.2361 0.4499 0.6659
C16_3 C 0.22546(16) 0.2891(3) 0.67944(12)
C17_3 C 0.18415(18) 0.2104(3) 0.68961(13)
H8_3 H 0.1939 0.1357 0.6926
C18_3 C 0.12826(17) 0.2447(3) 0.69520(12)
C19_3 C 0.11674(17) 0.3559(3) 0.68866(12)
H9_3 H 0.0796 0.3802 0.6928
C21_3 C 0.00369(17) 0.1279(3) 0.75495(12)
C22_3 C 0.05195(17) 0.1880(3) 0.74495(12)
H10_3 H 0.0658 0.2410 0.7633
C23_3 C 0.08019(16) 0.1700(3) 0.70743(12)
C24_3 C 0.05978(18) 0.0882(4) 0.68102(13)
H11_3 H 0.0795 0.0721 0.6569
C25_3 C 0.01017(18) 0.0302(3) 0.69009(13)
C28_3 C 0.28765(17) 0.2598(4) 0.67357(13)
O7_3 O 0.00409(12) 0.1819(3) 0.82461(8)
O11_3 O 0.07564(15) 0.2562(3) 0.88979(14)
O13_3 O 0.29950(12) 0.1569(2) 0.67485(9)
O14_3 O 0.32143(13) 0.3378(3) 0.66790(11)
H14_3 H 0.071(3) 0.310(3) 0.8729(13)
H15_3 H 0.0793(11) 0.265(5) 0.9155(4)
C8_3 C 0.04479(18) 0.7590(3) 0.02234(12)
O3_3 O 0.09427(12) 0.8013(3) 0.02024(9)
O4_3 O 0.03008(13) 0.6975(2) 0.05190(9)
Co11_3 Co 0.01199(2) 0.76737(5) 0.115285(17)
C6_3 C 0.00417(17) 0.7788(3) 0.98749(12)
C7_3 C 0.00633(17) 0.8764(3) 0.96402(13)
H3_3 H 0.0335 0.9306 0.9697
C20_3 C 0.97455(18) 0.1429(3) 0.79624(12)
C26_3 C 0.98213(18) 0.0515(3) 0.72685(13)
H12_3 H 0.9485 0.0142 0.7327
Co2_2 Co 0.86756(2) 0.26566(4) 0.930467(16)
O2_3 O 0.99561(12) 0.0797(2) 0.91687(9)
O8_3 O 0.92317(11) 0.1134(2) 0.79752(8)
O12_3 O 0.90174(10) 0.2281(2) 0.87780(8)
H13_3 H 0.8925 0.2903 0.8594
N4_2 N 0.85213(13) 0.4346(3) 0.93187(10)
O15_3 O 0.90573(12) 0.1987(3) 0.97976(9)
O16_3 O 0.96992(13) 0.3025(2) 0.94810(9)
O17_3 O 0.78848(12) 0.2146(2) 0.92990(9)
O18_3 O 0.81298(12) 0.0485(2) 0.90411(10)
O20_3 O 0.79950(12) 0.1569(2) 0.82515(9)
C1_3 C 0.96542(17) 0.9974(3) 0.90646(12)
C2_3 C 0.96755(17) 0.8920(3) 0.93214(12)
C3_3 C 0.92803(17) 0.8089(3) 0.92368(13)
H1_3 H 0.9026 0.8187 0.9021
C4_3 C 0.92571(17) 0.7108(3) 0.94697(13)
C5_3 C 0.96384(17) 0.6970(3) 0.97900(13)
H2_3 H 0.9625 0.6326 0.9950
C9_3 C 0.72155(17) 0.6152(3) 0.91831(13)
C10_3 C 0.78317(16) 0.5812(3) 0.92374(12)
C11_3 C 0.82515(17) 0.6597(3) 0.93054(12)
H4_3 H 0.8160 0.7352 0.9301
C12_3 C 0.88098(16) 0.6269(3) 0.93798(12)
C13_3 C 0.89229(17) 0.5124(3) 0.93824(12)
H5_3 H 0.9294 0.4890 0.9431
C14_3 C 0.79801(17) 0.4695(3) 0.92419(12)
H6_3 H 0.7701 0.4165 0.9191
C27_3 C 0.98591(19) 0.9432(4) 0.66145(14)
O1_3 O 0.93346(12) 0.9929(2) 0.87590(9)
O5_3 O 0.71152(12) 0.7146(2) 0.92990(9)
O6_3 O 0.68702(12) 0.5485(2) 0.90411(10)
O9_3 O 0.93404(14) 0.9198(3) 0.66500(12)
C1_4 C 0.53458(17) 0.0026(3) 0.40646(12)
C2_4 C 0.53245(17) 0.1080(3) 0.43214(12)
C3_4 C 0.57197(17) 0.1911(3) 0.42368(13)
H1_4 H 0.5974 0.1813 0.4021
C4_4 C 0.57429(17) 0.2892(3) 0.44697(13)
C5_4 C 0.53616(17) 0.3030(3) 0.47900(13)
H2_4 H 0.5375 0.3674 0.4950
C6_4 C 0.49583(17) 0.2212(3) 0.48749(12)
C7_4 C 0.49367(17) 0.1236(3) 0.46402(13)
H3_4 H 0.4665 0.0694 0.4697
C8_4 C 0.45521(18) 0.2410(3) 0.52234(12)
C9_4 C 0.77845(17) 0.3848(3) 0.41831(13)
C10_4 C 0.71683(16) 0.4188(3) 0.42374(12)
C11_4 C 0.67485(17) 0.3403(3) 0.43054(12)
H4_4 H 0.6840 0.2648 0.4301
C12_4 C 0.61902(16) 0.3731(3) 0.43798(12)
C13_4 C 0.60771(17) 0.4876(3) 0.43824(12)
H5_4 H 0.5706 0.5110 0.4431
C14_4 C 0.70199(17) 0.5305(3) 0.42419(12)
H6_4 H 0.7299 0.5835 0.4191
C27_4 C 0.51409(19) 0.0568(4) 0.16145(14)
N2_2 N 0.64787(13) 0.5654(3) 0.43187(10)
O1_4 O 0.56654(12) 0.0071(2) 0.37590(9)
O3_4 O 0.40573(12) 0.1987(3) 0.52024(9)
O4_4 O 0.46992(13) 0.3025(2) 0.55190(9)
O5_4 O 0.78848(12) 0.2854(2) 0.42990(9)
O6_4 O 0.81298(12) 0.4515(2) 0.40411(10)
O9_4 O 0.56596(14) 0.0802(3) 0.16500(12)
Co7_2 Co 0.63244(2) 0.73434(4) 0.430467(16)
Co11_4 Co 0.48801(2) 0.23263(5) 0.615285(17)
C15_4 C 0.29137(16) 0.6023(3) 0.17309(12)
H7_4 H 0.2639 0.5501 0.1659
C16_4 C 0.27454(16) 0.7109(3) 0.17944(12)
C17_4 C 0.31585(18) 0.7896(3) 0.18961(13)
H8_4 H 0.3061 0.8643 0.1926
C18_4 C 0.37174(17) 0.7553(3) 0.19520(12)
C19_4 C 0.38326(17) 0.6441(3) 0.18866(12)
H9_4 H 0.4204 0.6198 0.1928
C20_4 C 0.52545(18) 0.8571(3) 0.29624(12)
C21_4 C 0.49631(17) 0.8721(3) 0.25495(12)
C22_4 C 0.44805(17) 0.8120(3) 0.24495(12)
H10_4 H 0.4342 0.7590 0.2633
C23_4 C 0.41981(16) 0.8300(3) 0.20743(12)
C24_4 C 0.44022(18) 0.9118(4) 0.18102(13)
H11_4 H 0.4205 0.9279 0.1569
C25_4 C 0.48983(18) 0.9698(3) 0.19009(13)
C26_4 C 0.51787(18) 0.9485(3) 0.22685(13)
H12_4 H 0.5515 0.9858 0.2327
C28_4 C 0.21235(17) 0.7402(4) 0.17357(13)
O2_4 O 0.50439(12) 0.9203(2) 0.41687(9)
O7_4 O 0.49591(12) 0.8181(3) 0.32461(8)
O8_4 O 0.57683(11) 0.8866(2) 0.29752(8)
O11_4 O 0.42436(15) 0.7438(3) 0.38979(14)
O12_4 O 0.59826(10) 0.7719(2) 0.37780(8)
H13_4 H 0.6075 0.7097 0.3594
O13_4 O 0.20050(12) 0.8431(2) 0.17485(9)
O14_4 O 0.17857(13) 0.6622(3) 0.16790(11)
H14_4 H 0.429(3) 0.690(3) 0.3729(13)
H15_4 H 0.4207(11) 0.735(5) 0.4155(4)
O15_4 O 0.59427(12) 0.8013(3) 0.47976(9)
O16_4 O 0.53008(13) 0.6975(2) 0.44810(9)
O17_4 O 0.71152(12) 0.7854(2) 0.42990(9)
O18_4 O 0.68702(12) 0.9515(2) 0.40411(10)
O20_4 O 0.70050(12) 0.8431(2) 0.32515(9)
C8_5 C 0.45521(18) 0.2590(3) 0.02234(12)
C1_5 C 0.53458(17) 0.4974(3) 0.90646(12)
C2_5 C 0.53245(17) 0.3920(3) 0.93214(12)
C3_5 C 0.57197(17) 0.3089(3) 0.92368(13)
H1_5 H 0.5974 0.3187 0.9021
C4_5 C 0.57429(17) 0.2108(3) 0.94697(13)
C5_5 C 0.53616(17) 0.1970(3) 0.97900(13)
H2_5 H 0.5375 0.1326 0.9950
C6_5 C 0.49583(17) 0.2788(3) 0.98749(12)
C7_5 C 0.49367(17) 0.3764(3) 0.96402(13)
H3_5 H 0.4665 0.4306 0.9697
C9_5 C 0.77845(17) 0.1152(3) 0.91831(13)
C10_5 C 0.71683(16) 0.0812(3) 0.92374(12)
C11_5 C 0.67485(17) 0.1597(3) 0.93054(12)
H4_5 H 0.6840 0.2352 0.9301
C12_5 C 0.61902(16) 0.1269(3) 0.93798(12)
C13_5 C 0.60771(17) 0.0124(3) 0.93824(12)
C15_5 C 0.29137(16) 0.8977(3) 0.67309(12)
H7_5 H 0.2639 0.9499 0.6659
C16_5 C 0.27454(16) 0.7891(3) 0.67944(12)
C17_5 C 0.31585(18) 0.7104(3) 0.68961(13)
H8_5 H 0.3061 0.6357 0.6926
C18_5 C 0.37174(17) 0.7447(3) 0.69520(12)
C19_5 C 0.38326(17) 0.8559(3) 0.68866(12)
H9_5 H 0.4204 0.8802 0.6928
C20_5 C 0.52545(18) 0.6429(3) 0.79624(12)
C21_5 C 0.49631(17) 0.6279(3) 0.75495(12)
C22_5 C 0.44805(17) 0.6880(3) 0.74495(12)
H10_5 H 0.4342 0.7410 0.7633
C23_5 C 0.41981(16) 0.6700(3) 0.70743(12)
C24_5 C 0.44022(18) 0.5882(4) 0.68102(13)
H11_5 H 0.4205 0.5721 0.6569
C25_5 C 0.48983(18) 0.5302(3) 0.69009(13)
C26_5 C 0.51787(18) 0.5515(3) 0.72685(13)
H12_5 H 0.5515 0.5142 0.7327
C27_5 C 0.51409(19) 0.4432(4) 0.66145(14)
C28_5 C 0.21235(17) 0.7598(4) 0.67357(13)
N1_3 N 0.34477(13) 0.9314(3) 0.67679(10)
O1_5 O 0.56654(12) 0.4929(2) 0.87590(9)
O2_5 O 0.50439(12) 0.5797(2) 0.91687(9)
O7_5 O 0.49591(12) 0.6819(3) 0.82461(8)
O8_5 O 0.57683(11) 0.6134(2) 0.79752(8)
O9_5 O 0.56596(14) 0.4198(3) 0.66500(12)
O10_3 O 0.48083(13) 0.3996(2) 0.63574(9)
O11_5 O 0.42436(15) 0.7562(3) 0.88979(14)
O12_5 O 0.59826(10) 0.7281(2) 0.87780(8)
H13_5 H 0.6075 0.7903 0.8594
O14_5 O 0.17857(13) 0.8378(3) 0.66790(11)
H14_5 H 0.429(3) 0.810(3) 0.8729(13)
H15_5 H 0.4207(11) 0.765(5) 0.9155(4)
N3_3 N 0.65523(13) 0.4314(3) 0.82321(10)
N4_3 N 0.64787(13) 0.9346(3) 0.93187(10)
O19_3 O 0.51917(13) 0.8996(2) 0.86426(9)
H5_5 H 0.5706 0.9890 0.9431
C14_5 C 0.70199(17) 0.9695(3) 0.92419(12)
H6_5 H 0.7299 0.9165 0.9191
C6_6 C 0.00417(17) 0.7212(3) 0.48749(12)
C7_6 C 0.00633(17) 0.6236(3) 0.46402(13)
H3_6 H 0.0335 0.5694 0.4697
C8_6 C 0.04479(18) 0.7410(3) 0.52234(12)
C15_6 C 0.20863(16) 0.1023(3) 0.17309(12)
H7_6 H 0.2361 0.0501 0.1659
C16_6 C 0.22546(16) 0.2109(3) 0.17944(12)
C17_6 C 0.18415(18) 0.2896(3) 0.18961(13)
H8_6 H 0.1939 0.3643 0.1926
C18_6 C 0.12826(17) 0.2553(3) 0.19520(12)
C19_6 C 0.11674(17) 0.1441(3) 0.18866(12)
H9_6 H 0.0796 0.1198 0.1928
C21_6 C 0.00369(17) 0.3721(3) 0.25495(12)
C22_6 C 0.05195(17) 0.3120(3) 0.24495(12)
H10_6 H 0.0658 0.2590 0.2633
C23_6 C 0.08019(16) 0.3300(3) 0.20743(12)
C24_6 C 0.05978(18) 0.4118(4) 0.18102(13)
H11_6 H 0.0795 0.4279 0.1569
C25_6 C 0.01017(18) 0.4698(3) 0.19009(13)
C28_6 C 0.28765(17) 0.2402(4) 0.17357(13)
N1_4 N 0.15523(13) 0.0686(3) 0.17679(10)
O7_6 O 0.00409(12) 0.3181(3) 0.32461(8)
O10_4 O 0.01917(13) 0.6004(2) 0.13574(9)
O11_6 O 0.07564(15) 0.2438(3) 0.38979(14)
O14_6 O 0.32143(13) 0.1622(3) 0.16790(11)
H14_6 H 0.071(3) 0.190(3) 0.3729(13)
H15_6 H 0.0793(11) 0.235(5) 0.4155(4)
H5_6 H 0.9294 0.0110 0.4431
C14_6 C 0.79801(17) 0.0305(3) 0.42419(12)
H6_6 H 0.7701 0.0835 0.4191
N2_3 N 0.85213(13) 0.0654(3) 0.43187(10)
C1_6 C 0.96542(17) 0.5026(3) 0.40646(12)
C2_6 C 0.96755(17) 0.6080(3) 0.43214(12)
C3_6 C 0.92803(17) 0.6911(3) 0.42368(13)
H1_6 H 0.9026 0.6813 0.4021
C4_6 C 0.92571(17) 0.7892(3) 0.44697(13)
C5_6 C 0.96384(17) 0.8030(3) 0.47900(13)
H2_6 H 0.9625 0.8674 0.4950
C9_6 C 0.72155(17) 0.8848(3) 0.41831(13)
C10_6 C 0.78317(16) 0.9188(3) 0.42374(12)
C11_6 C 0.82515(17) 0.8403(3) 0.43054(12)
H4_6 H 0.8160 0.7648 0.4301
C12_6 C 0.88098(16) 0.8731(3) 0.43798(12)
C13_6 C 0.89229(17) 0.9876(3) 0.43824(12)
C20_6 C 0.97455(18) 0.3571(3) 0.29624(12)
C26_6 C 0.98213(18) 0.4485(3) 0.22685(13)
H12_6 H 0.9485 0.4858 0.2327
C27_6 C 0.98591(19) 0.5568(4) 0.16145(14)
O1_6 O 0.93346(12) 0.5071(2) 0.37590(9)
O2_6 O 0.99561(12) 0.4203(2) 0.41687(9)
O8_6 O 0.92317(11) 0.3866(2) 0.29752(8)
O9_6 O 0.93404(14) 0.5802(3) 0.16500(12)
O12_6 O 0.90174(10) 0.2719(2) 0.37780(8)
H13_6 H 0.8925 0.2097 0.3594
N3_4 N 0.84477(13) 0.5686(3) 0.32321(10)
O19_4 O 0.98083(13) 0.1004(2) 0.36426(9)
C1_7 C 0.03458(17) 0.0026(3) 0.09354(12)
C2_7 C 0.03245(17) 0.1080(3) 0.06786(12)
C3_7 C 0.07197(17) 0.1911(3) 0.07632(13)
H1_7 H 0.0974 0.1813 0.0979
C4_7 C 0.07429(17) 0.2892(3) 0.05303(13)
C5_7 C 0.03616(17) 0.3030(3) 0.02100(13)
H2_7 H 0.0375 0.3674 0.0050
C9_7 C 0.27845(17) 0.3848(3) 0.08169(13)
C10_7 C 0.21683(16) 0.4188(3) 0.07626(12)
C11_7 C 0.17485(17) 0.3403(3) 0.06946(12)
H4_7 H 0.1840 0.2648 0.0699
C12_7 C 0.11902(16) 0.3731(3) 0.06202(12)
C13_7 C 0.10771(17) 0.4876(3) 0.06176(12)
H5_7 H 0.0706 0.5110 0.0569
C14_7 C 0.20199(17) 0.5305(3) 0.07581(12)
H6_7 H 0.2299 0.5835 0.0809
C27_7 C 0.01409(19) 0.0568(4) 0.33855(14)
N2_4 N 0.14787(13) 0.5654(3) 0.06813(10)
O1_7 O 0.06654(12) 0.0071(2) 0.12410(9)
O9_7 O 0.06596(14) 0.0802(3) 0.33500(12)
C20_7 C 0.02545(18) 0.8571(3) 0.20376(12)
C26_7 C 0.01787(18) 0.9485(3) 0.27315(13)
H12_7 H 0.0515 0.9858 0.2673
O2_7 O 0.00439(12) 0.9203(2) 0.08313(9)
O8_7 O 0.07683(11) 0.8866(2) 0.20248(8)
O12_7 O 0.09826(10) 0.7719(2) 0.12220(8)
H13_7 H 0.1075 0.7097 0.1406
C6_7 C 0.99583(17) 0.2212(3) 0.01251(12)
C7_7 C 0.99367(17) 0.1236(3) 0.03598(13)
H3_7 H 0.9665 0.0694 0.0303
C8_7 C 0.95521(18) 0.2410(3) 0.97766(12)
C15_7 C 0.79137(16) 0.6023(3) 0.32691(12)
H7_7 H 0.7639 0.5501 0.3341
C16_7 C 0.77454(16) 0.7109(3) 0.32056(12)
C17_7 C 0.81585(18) 0.7896(3) 0.31039(13)
H8_7 H 0.8061 0.8643 0.3074
C18_7 C 0.87174(17) 0.7553(3) 0.30480(12)
C19_7 C 0.88326(17) 0.6441(3) 0.31134(12)
H9_7 H 0.9204 0.6198 0.3072
C21_7 C 0.99631(17) 0.8721(3) 0.24505(12)
C22_7 C 0.94805(17) 0.8120(3) 0.25505(12)
H10_7 H 0.9342 0.7590 0.2367
C23_7 C 0.91981(16) 0.8300(3) 0.29257(12)
C24_7 C 0.94022(18) 0.9118(4) 0.31898(13)
H11_7 H 0.9205 0.9279 0.3431
C25_7 C 0.98983(18) 0.9698(3) 0.30991(13)
C28_7 C 0.71235(17) 0.7402(4) 0.32643(13)
O7_7 O 0.99591(12) 0.8181(3) 0.17539(8)
O11_7 O 0.92436(15) 0.7438(3) 0.11021(14)
O14_7 O 0.67857(13) 0.6622(3) 0.33210(11)
H14_7 H 0.929(3) 0.690(3) 0.1271(13)
H15_7 H 0.9207(11) 0.735(5) 0.0845(4)
C15_8 C 0.70863(16) 0.3977(3) 0.82691(12)
H7_8 H 0.7361 0.4499 0.8341
C16_8 C 0.72546(16) 0.2891(3) 0.82056(12)
C17_8 C 0.68415(18) 0.2104(3) 0.81039(13)
H8_8 H 0.6939 0.1357 0.8074
C18_8 C 0.62826(17) 0.2447(3) 0.80480(12)
C19_8 C 0.61674(17) 0.3559(3) 0.81134(12)
H9_8 H 0.5796 0.3802 0.8072
C20_8 C 0.47455(18) 0.1429(3) 0.70376(12)
C21_8 C 0.50369(17) 0.1279(3) 0.74505(12)
C22_8 C 0.55195(17) 0.1880(3) 0.75505(12)
H10_8 H 0.5658 0.2410 0.7367
C23_8 C 0.58019(16) 0.1700(3) 0.79257(12)
C24_8 C 0.55978(18) 0.0882(4) 0.81898(13)
H11_8 H 0.5795 0.0721 0.8431
C25_8 C 0.51017(18) 0.0302(3) 0.80991(13)
C26_8 C 0.48213(18) 0.0515(3) 0.77315(13)
H12_8 H 0.4485 0.0142 0.7673
C28_8 C 0.78765(17) 0.2598(4) 0.82643(13)
O2_8 O 0.49561(12) 0.0797(2) 0.58313(9)
O7_8 O 0.50409(12) 0.1819(3) 0.67539(8)
O8_8 O 0.42317(11) 0.1134(2) 0.70248(8)
O11_8 O 0.57564(15) 0.2562(3) 0.61021(14)
O12_8 O 0.40174(10) 0.2281(2) 0.62220(8)
H13_8 H 0.3925 0.2903 0.6406
O14_8 O 0.82143(13) 0.3378(3) 0.83210(11)
H14_8 H 0.571(3) 0.310(3) 0.6271(13)
H15_8 H 0.5793(11) 0.265(5) 0.5845(4)
N4_4 N 0.35213(13) 0.4346(3) 0.56813(10)
C1_8 C 0.46542(17) 0.9974(3) 0.59354(12)
C2_8 C 0.46755(17) 0.8920(3) 0.56786(12)
C3_8 C 0.42803(17) 0.8089(3) 0.57632(13)
H1_8 H 0.4026 0.8187 0.5979
C4_8 C 0.42571(17) 0.7108(3) 0.55303(13)
C5_8 C 0.46384(17) 0.6970(3) 0.52100(13)
H2_8 H 0.4625 0.6326 0.5050
C6_8 C 0.50417(17) 0.7788(3) 0.51251(12)
C7_8 C 0.50633(17) 0.8764(3) 0.53598(13)
H3_8 H 0.5335 0.9306 0.5303
C8_8 C 0.54479(18) 0.7590(3) 0.47766(12)
C9_8 C 0.22155(17) 0.6152(3) 0.58169(13)
C10_8 C 0.28317(16) 0.5812(3) 0.57626(12)
C11_8 C 0.32515(17) 0.6597(3) 0.56946(12)
H4_8 H 0.3160 0.7352 0.5699
C12_8 C 0.38098(16) 0.6269(3) 0.56202(12)
C13_8 C 0.39229(17) 0.5124(3) 0.56176(12)
H5_8 H 0.4294 0.4890 0.5569
C14_8 C 0.29801(17) 0.4695(3) 0.57581(12)
H6_8 H 0.2701 0.4165 0.5809
C27_8 C 0.48591(19) 0.9432(4) 0.83855(14)
O1_8 O 0.43346(12) 0.9929(2) 0.62410(9)
O9_8 O 0.43404(14) 0.9198(3) 0.83500(12)
N5 N 0.3081(8) 0.5435(17) 0.3070(6)
H16 H 0.3437 0.5169 0.3083
H17 H 0.2888 0.5055 0.2876
C29 C 0.3081(9) 0.6700(18) 0.2975(6)
H18 H 0.3277 0.6832 0.2720
H19 H 0.3269 0.7092 0.3193
H20 H 0.2696 0.6960 0.2952
C30 C 0.2775(10) 0.5343(19) 0.3503(7)
H21 H 0.2833 0.4611 0.3614
H22 H 0.2375 0.5475 0.3469
H23 H 0.2931 0.5888 0.3687
N5_2 N 0.1919(8) 0.4565(17) 0.8070(6)
H16_2 H 0.1563 0.4831 0.8083
H17_2 H 0.2112 0.4945 0.7876
C29_2 C 0.1919(9) 0.3300(18) 0.7975(6)
H18_2 H 0.1723 0.3168 0.7720
H19_2 H 0.1731 0.2908 0.8193
H20_2 H 0.2304 0.3040 0.7952
C30_2 C 0.2225(10) 0.4657(19) 0.8503(7)
H21_2 H 0.2167 0.5389 0.8614
H22_2 H 0.2625 0.4525 0.8469
H23_2 H 0.2069 0.4112 0.8687
H21_3 H 0.7833 0.0389 0.6386
N5_3 N 0.8081(8) 0.9565(17) 0.6930(6)
H16_3 H 0.8437 0.9831 0.6917
H17_3 H 0.7888 0.9945 0.7124
C29_3 C 0.8081(9) 0.8300(18) 0.7025(6)
H18_3 H 0.8277 0.8168 0.7280
H19_3 H 0.8269 0.7908 0.6807
H20_3 H 0.7696 0.8040 0.7048
C30_3 C 0.7775(10) 0.9657(19) 0.6497(7)
H22_3 H 0.7375 0.9525 0.6531
H23_3 H 0.7931 0.9112 0.6313
N5_4 N 0.6919(8) 0.0435(17) 0.1930(6)
H16_4 H 0.6563 0.0169 0.1917
H17_4 H 0.7112 0.0055 0.2124
C29_4 C 0.6919(9) 0.1700(18) 0.2025(6)
H18_4 H 0.6723 0.1832 0.2280
H19_4 H 0.6731 0.2092 0.1807
H20_4 H 0.7304 0.1960 0.2048
C30_4 C 0.7225(10) 0.0343(19) 0.1497(7)
H22_4 H 0.7625 0.0475 0.1531
H23_4 H 0.7069 0.0888 0.1313
H21_4 H 0.7167 0.9611 0.1386
N5_5 N 0.6919(8) 0.4565(17) 0.6930(6)
H16_5 H 0.6563 0.4831 0.6917
H17_5 H 0.7112 0.4945 0.7124
C29_5 C 0.6919(9) 0.3300(18) 0.7025(6)
H18_5 H 0.6723 0.3168 0.7280
H19_5 H 0.6731 0.2908 0.6807
H20_5 H 0.7304 0.3040 0.7048
C30_5 C 0.7225(10) 0.4657(19) 0.6497(7)
H21_5 H 0.7167 0.5389 0.6386
H22_5 H 0.7625 0.4525 0.6531
H23_5 H 0.7069 0.4112 0.6313
N5_6 N 0.8081(8) 0.5435(17) 0.1930(6)
H16_6 H 0.8437 0.5169 0.1917
H17_6 H 0.7888 0.5055 0.2124
C29_6 C 0.8081(9) 0.6700(18) 0.2025(6)
H18_6 H 0.8277 0.6832 0.2280
H19_6 H 0.8269 0.7092 0.1807
H20_6 H 0.7696 0.6960 0.2048
C30_6 C 0.7775(10) 0.5343(19) 0.1497(7)
H21_6 H 0.7833 0.4611 0.1386
H22_6 H 0.7375 0.5475 0.1531
H23_6 H 0.7931 0.5888 0.1313
N5_7 N 0.1919(8) 0.0435(17) 0.3070(6)
H16_7 H 0.1563 0.0169 0.3083
H17_7 H 0.2112 0.0055 0.2876
C29_7 C 0.1919(9) 0.1700(18) 0.2975(6)
H18_7 H 0.1723 0.1832 0.2720
H19_7 H 0.1731 0.2092 0.3193
H20_7 H 0.2304 0.1960 0.2952
C30_7 C 0.2225(10) 0.0343(19) 0.3503(7)
H22_7 H 0.2625 0.0475 0.3469
H23_7 H 0.2069 0.0888 0.3687
H21_7 H 0.2167 0.9611 0.3614
H21_8 H 0.2833 0.0389 0.8614
N5_8 N 0.3081(8) 0.9565(17) 0.8070(6)
H16_8 H 0.3437 0.9831 0.8083
H17_8 H 0.2888 0.9945 0.7876
C29_8 C 0.3081(9) 0.8300(18) 0.7975(6)
H18_8 H 0.3277 0.8168 0.7720
H19_8 H 0.3269 0.7908 0.8193
H20_8 H 0.2696 0.8040 0.7952
C30_8 C 0.2775(10) 0.9657(19) 0.8503(7)
H22_8 H 0.2375 0.9525 0.8469
H23_8 H 0.2931 0.9112 0.8687
loop_
_geom_bond_atom_site_label_1
_geom_bond_atom_site_label_2
_geom_bond_site_symmetry_1
_geom_bond_site_symmetry_2
H6 C14 1_555 1_555
Co7 N2 1_555 1_555
C14 N2 1_555 1_555
C1 C2 1_555 1_555
C2 C3 1_555 1_555
C3 H1 1_555 1_555
C4 C3 1_555 1_555
C5 C4 1_555 1_555
H2 C5 1_555 1_555
C6 C5 1_555 1_555
C7 C2 1_555 1_555
H3 C7 1_555 1_555
C9 C10 1_555 1_555
C10 C11 1_555 1_555
C11 H4 1_555 1_555
C12 C4 1_555 1_555
C13 C12 1_555 1_555
C15 H7 1_555 1_555
C16 C15 1_555 1_555
C17 C16 1_555 1_555
H8 C17 1_555 1_555
C18 C17 1_555 1_555
C19 C18 1_555 1_555
H9 C19 1_555 1_555
C20 C21 1_555 1_555
C21 C22 1_555 1_555
C22 H10 1_555 1_555
C23 C18 1_555 1_555
C24 C23 1_555 1_555
H11 C24 1_555 1_555
C25 C24 1_555 1_555
C26 C21 1_555 1_555
H12 C26 1_555 1_555
C27 C25 1_555 1_555
C28 C16 1_555 1_555
Co1 O1 1_555 1_555
Co7 O12 1_555 1_555
Co3 O2 1_555 1_555
N1 C15 1_555 1_555
O1 C1 1_555 1_555
O2 C1 1_555 1_555
O5 C9 1_555 1_555
O6 C9 1_555 1_555
O7 C20 1_555 1_555
O8 C20 1_555 1_555
O9 C27 1_555 1_555
O10 C27 1_555 1_555
O11 Co3 1_555 1_555
O12 Co1 1_555 1_555
H13 O12 1_555 1_555
O13 C28 1_555 1_555
O14 C28 1_555 1_555
H14 O11 1_555 1_555
H15 O11 1_555 1_555
Co5 O13 1_555 1_555
Co6 O6 1_555 1_555
Co9 O5 1_555 1_555
Co10 O10 1_555 1_555
N3 Co1 1_555 1_555
O15 Co7 1_555 1_555
O16 Co3 1_555 1_555
O17 Co7 1_555 1_555
O18 Co1 1_555 1_555
O19 Co3 1_555 1_555
O20 Co1 1_555 1_555
C6 C7 1_555 1_555
C11 C12 1_555 1_555
C19 N1 1_555 1_555
C22 C23 1_555 1_555
C25 C26 1_555 1_555
Co1 O8 1_555 1_555
Co3 O7 1_555 1_555
Co3 O12 1_555 1_555
O3 C8 1_555 1_555
O4 C8 1_555 1_555
Co8 O3 1_555 1_555
Co11 O4 1_555 1_555
C1_2 C2_2 1_555 1_555
C2_2 C3_2 1_555 1_555
C3_2 H1_2 1_555 1_555
C4_2 C3_2 1_555 1_555
C5_2 C4_2 1_555 1_555
H2_2 C5_2 1_555 1_555
C9_2 C10_2 1_555 1_555
C10_2 C11_2 1_555 1_555
C11_2 H4_2 1_555 1_555
C12_2 C4_2 1_555 1_555
C13_2 C12_2 1_555 1_555
H12_2 C26_2 1_555 1_555
Co1_2 O1_2 1_555 1_555
Co2 O12_2 1_555 1_555
Co3_2 O2_2 1_555 1_555
O1_2 C1_2 1_555 1_555
O2_2 C1_2 1_555 1_555
O5_2 C9_2 1_555 1_555
O6_2 C9_2 1_555 1_555
O8_2 C20_2 1_555 1_555
O9_2 C27_2 1_555 1_555
O12_2 Co1_2 1_555 1_555
H13_2 O12_2 1_555 1_555
Co6_2 O6_2 1_555 1_555
Co9_2 O5_2 1_555 1_555
N3_2 Co1_2 1_555 1_555
N4 Co2 1_555 1_555
O15_2 Co2 1_555 1_555
O16_2 Co3_2 1_555 1_555
O17_2 Co2 1_555 1_555
O18_2 Co1_2 1_555 1_555
O19_2 Co3_2 1_555 1_555
O20_2 Co1_2 1_555 1_555
C11_2 C12_2 1_555 1_555
Co1_2 O8_2 1_555 1_555
Co3_2 O12_2 1_555 1_555
H6_2 C14_2 1_555 1_555
C14_2 N4 1_555 1_555
H3_2 C7_2 1_555 1_555
C8_2 C6_2 1_555 1_555
C15_2 H7_2 1_555 1_555
C16_2 C15_2 1_555 1_555
C17_2 C16_2 1_555 1_555
H8_2 C17_2 1_555 1_555
C18_2 C17_2 1_555 1_555
C19_2 C18_2 1_555 1_555
H9_2 C19_2 1_555 1_555
C21_2 C22_2 1_555 1_555
C22_2 H10_2 1_555 1_555
C23_2 C18_2 1_555 1_555
C24_2 C23_2 1_555 1_555
H11_2 C24_2 1_555 1_555
C25_2 C24_2 1_555 1_555
C28_2 C16_2 1_555 1_555
N1_2 C15_2 1_555 1_555
O3_2 C8_2 1_555 1_555
O4_2 C8_2 1_555 1_555
O13_2 C28_2 1_555 1_555
O14_2 C28_2 1_555 1_555
H14_2 O11_2 1_555 1_555
H15_2 O11_2 1_555 1_555
Co5_2 O13_2 1_555 1_555
Co8_2 O3_2 1_555 1_555
Co10_2 O10_2 1_555 1_555
Co11_2 O4_2 1_555 1_555
C6_2 C7_2 1_555 1_555
C19_2 N1_2 1_555 1_555
C22_2 C23_2 1_555 1_555
C15_3 H7_3 1_555 1_555
C16_3 C15_3 1_555 1_555
C17_3 C16_3 1_555 1_555
H8_3 C17_3 1_555 1_555
C18_3 C17_3 1_555 1_555
C19_3 C18_3 1_555 1_555
H9_3 C19_3 1_555 1_555
C21_3 C22_3 1_555 1_555
C22_3 H10_3 1_555 1_555
C23_3 C18_3 1_555 1_555
C24_3 C23_3 1_555 1_555
H11_3 C24_3 1_555 1_555
C25_3 C24_3 1_555 1_555
C28_3 C16_3 1_555 1_555
N3_2 C15_3 1_555 1_555
O13_3 C28_3 1_555 1_555
O14_3 C28_3 1_555 1_555
H14_3 O11_3 1_555 1_555
H15_3 O11_3 1_555 1_555
Co6_2 O13_3 1_555 1_555
C19_3 N3_2 1_555 1_555
C22_3 C23_3 1_555 1_555
O3_3 C8_3 1_555 1_555
O4_3 C8_3 1_555 1_555
Co9 O3_3 1_555 1_555
Co11_3 O4_3 1_555 1_555
H3_3 C7_3 1_555 1_555
C6_3 C7_3 1_555 1_555
H12_3 C26_3 1_555 1_555
Co2_2 O12_3 1_555 1_555
Co10_2 O2_3 1_555 1_555
O8_3 C20_3 1_555 1_555
O12_3 Co4_2 1_555 1_555
H13_3 O12_3 1_555 1_555
N4_2 Co2_2 1_555 1_555
O15_3 Co2_2 1_555 1_555
O16_3 Co10_2 1_555 1_555
O17_3 Co2_2 1_555 1_555
O18_3 Co4_2 1_555 1_555
O20_3 Co4_2 1_555 1_555
Co4_2 O8_3 1_555 1_555
Co10_2 O12_3 1_555 1_555
C1_3 C2_3 1_555 1_555
C2_3 C3_3 1_555 1_555
C3_3 H1_3 1_555 1_555
C4_3 C3_3 1_555 1_555
C5_3 C4_3 1_555 1_555
H2_3 C5_3 1_555 1_555
C9_3 C10_3 1_555 1_555
C10_3 C11_3 1_555 1_555
C11_3 H4_3 1_555 1_555
C12_3 C4_3 1_555 1_555
C13_3 C12_3 1_555 1_555
H5_3 C13_3 1_555 1_555
C14_3 C10_3 1_555 1_555
H6_3 C14_3 1_555 1_555
N4_2 C13_3 1_555 1_555
O1_3 C1_3 1_555 1_555
O5_3 C9_3 1_555 1_555
O6_3 C9_3 1_555 1_555
O9_3 C27_3 1_555 1_555
Co5_2 O6_3 1_555 1_555
Co8 O5_3 1_555 1_555
C11_3 C12_3 1_555 1_555
C14_3 N4_2 1_555 1_555
C1_4 C2_4 1_555 1_555
C2_4 C3_4 1_555 1_555
C3_4 H1_4 1_555 1_555
C4_4 C3_4 1_555 1_555
C5_4 C4_4 1_555 1_555
H2_4 C5_4 1_555 1_555
C6_4 C5_4 1_555 1_555
C7_4 C2_4 1_555 1_555
H3_4 C7_4 1_555 1_555
C8_4 C6_4 1_555 1_555
C9_4 C10_4 1_555 1_555
C10_4 C11_4 1_555 1_555
C11_4 H4_4 1_555 1_555
C12_4 C4_4 1_555 1_555
C13_4 C12_4 1_555 1_555
H5_4 C13_4 1_555 1_555
C14_4 C10_4 1_555 1_555
H6_4 C14_4 1_555 1_555
N2_2 C13_4 1_555 1_555
O1_4 C1_4 1_555 1_555
O3_4 C8_4 1_555 1_555
O4_4 C8_4 1_555 1_555
O5_4 C9_4 1_555 1_555
O6_4 C9_4 1_555 1_555
O9_4 C27_4 1_555 1_555
O19 C27_4 1_555 1_555
Co5 O6_4 1_555 1_555
Co7_2 N2_2 1_555 1_555
Co9_2 O3_4 1_555 1_555
Co8_2 O5_4 1_555 1_555
Co11_4 O4_4 1_555 1_555
C6_4 C7_4 1_555 1_555
C11_4 C12_4 1_555 1_555
C14_4 N2_2 1_555 1_555
C15_4 H7_4 1_555 1_555
C16_4 C15_4 1_555 1_555
C17_4 C16_4 1_555 1_555
H8_4 C17_4 1_555 1_555
C18_4 C17_4 1_555 1_555
C19_4 C18_4 1_555 1_555
H9_4 C19_4 1_555 1_555
C20_4 C21_4 1_555 1_555
C21_4 C22_4 1_555 1_555
C22_4 H10_4 1_555 1_555
C23_4 C18_4 1_555 1_555
C24_4 C23_4 1_555 1_555
H11_4 C24_4 1_555 1_555
C25_4 C24_4 1_555 1_555
C26_4 C21_4 1_555 1_555
H12_4 C26_4 1_555 1_555
C28_4 C16_4 1_555 1_555
Co7_2 O12_4 1_555 1_555
Co10 O2_4 1_555 1_555
N3 C15_4 1_555 1_555
O7_4 C20_4 1_555 1_555
O8_4 C20_4 1_555 1_555
O11_4 Co10 1_555 1_555
O12_4 Co4 1_555 1_555
H13_4 O12_4 1_555 1_555
O13_4 C28_4 1_555 1_555
O14_4 C28_4 1_555 1_555
H14_4 O11_4 1_555 1_555
H15_4 O11_4 1_555 1_555
Co6 O13_4 1_555 1_555
O15_4 Co7_2 1_555 1_555
O16_4 Co10 1_555 1_555
O17_4 Co7_2 1_555 1_555
O18_4 Co4 1_555 1_555
O20_4 Co4 1_555 1_555
C19_4 N3 1_555 1_555
C22_4 C23_4 1_555 1_555
C25_4 C26_4 1_555 1_555
Co4 O8_4 1_555 1_555
Co10 O7_4 1_555 1_555
Co10 O12_4 1_555 1_555
O15 C8_5 1_555 1_555
O16 C8_5 1_555 1_555
C1_5 C2_5 1_555 1_555
C2_5 C3_5 1_555 1_555
C3_5 H1_5 1_555 1_555
C4_5 C3_5 1_555 1_555
C5_5 C4_5 1_555 1_555
H2_5 C5_5 1_555 1_555
C6_5 C5_5 1_555 1_555
C7_5 C2_5 1_555 1_555
H3_5 C7_5 1_555 1_555
C9_5 C10_5 1_555 1_555
C10_5 C11_5 1_555 1_555
C11_5 H4_5 1_555 1_555
C12_5 C4_5 1_555 1_555
C13_5 C12_5 1_555 1_555
C15_5 H7_5 1_555 1_555
C16_5 C15_5 1_555 1_555
C17_5 C16_5 1_555 1_555
H8_5 C17_5 1_555 1_555
C18_5 C17_5 1_555 1_555
C19_5 C18_5 1_555 1_555
H9_5 C19_5 1_555 1_555
C20_5 C21_5 1_555 1_555
C21_5 C22_5 1_555 1_555
C22_5 H10_5 1_555 1_555
C23_5 C18_5 1_555 1_555
C24_5 C23_5 1_555 1_555
H11_5 C24_5 1_555 1_555
C25_5 C24_5 1_555 1_555
C26_5 C21_5 1_555 1_555
H12_5 C26_5 1_555 1_555
C27_5 C25_5 1_555 1_555
C28_5 C16_5 1_555 1_555
Co5_2 O1_5 1_555 1_555
Co8 O12_5 1_555 1_555
Co11 O2_5 1_555 1_555
N1_3 C15_5 1_555 1_555
O1_5 C1_5 1_555 1_555
O2_5 C1_5 1_555 1_555
O17_3 C9_5 1_555 1_555
O18_3 C9_5 1_555 1_555
O7_5 C20_5 1_555 1_555
O8_5 C20_5 1_555 1_555
O9_5 C27_5 1_555 1_555
O10_3 C27_5 1_555 1_555
O11_5 Co11 1_555 1_555
O12_5 Co5_2 1_555 1_555
H13_5 O12_5 1_555 1_555
O20_2 C28_5 1_555 1_555
O14_5 C28_5 1_555 1_555
H14_5 O11_5 1_555 1_555
H15_5 O11_5 1_555 1_555
Co11_4 O10_3 1_555 1_555
N3_3 Co5_2 1_555 1_555
N4_3 Co8 1_555 1_555
O19_3 Co11 1_555 1_555
C6_5 C7_5 1_555 1_555
C11_5 C12_5 1_555 1_555
C19_5 N1_3 1_555 1_555
C22_5 C23_5 1_555 1_555
C25_5 C26_5 1_555 1_555
Co5_2 O8_5 1_555 1_555
Co11 O7_5 1_555 1_555
Co11 O12_5 1_555 1_555
H6_5 C14_5 1_555 1_555
C14_5 N4_3 1_555 1_555
H3_6 C7_6 1_555 1_555
C8_6 C6_6 1_555 1_555
C15_6 H7_6 1_555 1_555
C16_6 C15_6 1_555 1_555
C17_6 C16_6 1_555 1_555
H8_6 C17_6 1_555 1_555
C18_6 C17_6 1_555 1_555
C19_6 C18_6 1_555 1_555
H9_6 C19_6 1_555 1_555
C21_6 C22_6 1_555 1_555
C22_6 H10_6 1_555 1_555
C23_6 C18_6 1_555 1_555
C24_6 C23_6 1_555 1_555
H11_6 C24_6 1_555 1_555
C25_6 C24_6 1_555 1_555
C28_6 C16_6 1_555 1_555
N1_4 C15_6 1_555 1_555
O15_2 C8_6 1_555 1_555
O16_2 C8_6 1_555 1_555
O20 C28_6 1_555 1_555
O14_6 C28_6 1_555 1_555
H14_6 O11_6 1_555 1_555
H15_6 O11_6 1_555 1_555
Co11_3 O10_4 1_555 1_555
C6_6 C7_6 1_555 1_555
C19_6 N1_4 1_555 1_555
C22_6 C23_6 1_555 1_555
H6_6 C14_6 1_555 1_555
Co8_2 N2_3 1_555 1_555
C14_6 N2_3 1_555 1_555
C1_6 C2_6 1_555 1_555
C2_6 C3_6 1_555 1_555
C3_6 H1_6 1_555 1_555
C4_6 C3_6 1_555 1_555
C5_6 C4_6 1_555 1_555
H2_6 C5_6 1_555 1_555
C9_6 C10_6 1_555 1_555
C10_6 C11_6 1_555 1_555
C11_6 H4_6 1_555 1_555
C12_6 C4_6 1_555 1_555
C13_6 C12_6 1_555 1_555
H12_6 C26_6 1_555 1_555
Co5 O1_6 1_555 1_555
Co8_2 O12_6 1_555 1_555
Co11_2 O2_6 1_555 1_555
O1_6 C1_6 1_555 1_555
O2_6 C1_6 1_555 1_555
O17_4 C9_6 1_555 1_555
O18_4 C9_6 1_555 1_555
O8_6 C20_6 1_555 1_555
O9_6 C27_6 1_555 1_555
O12_6 Co5 1_555 1_555
H13_6 O12_6 1_555 1_555
N3_4 Co5 1_555 1_555
O19_4 Co11_2 1_555 1_555
C11_6 C12_6 1_555 1_555
Co5 O8_6 1_555 1_555
Co11_2 O12_6 1_555 1_555
C1_7 C2_7 1_555 1_555
C2_7 C3_7 1_555 1_555
C3_7 H1_7 1_555 1_555
C4_7 C3_7 1_555 1_555
C5_7 C4_7 1_555 1_555
H2_7 C5_7 1_555 1_555
C9_7 C10_7 1_555 1_555
C10_7 C11_7 1_555 1_555
C11_7 H4_7 1_555 1_555
C12_7 C4_7 1_555 1_555
C13_7 C12_7 1_555 1_555
H5_7 C13_7 1_555 1_555
C14_7 C10_7 1_555 1_555
H6_7 C14_7 1_555 1_555
N2_4 C13_7 1_555 1_555
O1_7 C1_7 1_555 1_555
O17 C9_7 1_555 1_555
O18 C9_7 1_555 1_555
O9_7 C27_7 1_555 1_555
Co9 N2_4 1_555 1_555
C11_7 C12_7 1_555 1_555
C14_7 N2_4 1_555 1_555
H12_7 C26_7 1_555 1_555
Co9 O12_7 1_555 1_555
Co11_3 O2_7 1_555 1_555
O8_7 C20_7 1_555 1_555
O12_7 Co6 1_555 1_555
H13_7 O12_7 1_555 1_555
Co6 O8_7 1_555 1_555
Co11_3 O12_7 1_555 1_555
H3_7 C7_7 1_555 1_555
C6_7 C7_7 1_555 1_555
O15_3 C8_7 1_555 1_555
O16_3 C8_7 1_555 1_555
C15_7 H7_7 1_555 1_555
C16_7 C15_7 1_555 1_555
C17_7 C16_7 1_555 1_555
H8_7 C17_7 1_555 1_555
C18_7 C17_7 1_555 1_555
C19_7 C18_7 1_555 1_555
H9_7 C19_7 1_555 1_555
C21_7 C22_7 1_555 1_555
C22_7 H10_7 1_555 1_555
C23_7 C18_7 1_555 1_555
C24_7 C23_7 1_555 1_555
H11_7 C24_7 1_555 1_555
C25_7 C24_7 1_555 1_555
C28_7 C16_7 1_555 1_555
N3_4 C15_7 1_555 1_555
O20_4 C28_7 1_555 1_555
O14_7 C28_7 1_555 1_555
H14_7 O11_7 1_555 1_555
H15_7 O11_7 1_555 1_555
C19_7 N3_4 1_555 1_555
C22_7 C23_7 1_555 1_555
C15_8 H7_8 1_555 1_555
C16_8 C15_8 1_555 1_555
C17_8 C16_8 1_555 1_555
H8_8 C17_8 1_555 1_555
C18_8 C17_8 1_555 1_555
C19_8 C18_8 1_555 1_555
H9_8 C19_8 1_555 1_555
C20_8 C21_8 1_555 1_555
C21_8 C22_8 1_555 1_555
C22_8 H10_8 1_555 1_555
C23_8 C18_8 1_555 1_555
C24_8 C23_8 1_555 1_555
H11_8 C24_8 1_555 1_555
C25_8 C24_8 1_555 1_555
C26_8 C21_8 1_555 1_555
H12_8 C26_8 1_555 1_555
C28_8 C16_8 1_555 1_555
Co9_2 O12_8 1_555 1_555
Co11_4 O2_8 1_555 1_555
N3_3 C15_8 1_555 1_555
O7_8 C20_8 1_555 1_555
O8_8 C20_8 1_555 1_555
O11_8 Co11_4 1_555 1_555
O12_8 Co6_2 1_555 1_555
H13_8 O12_8 1_555 1_555
O20_3 C28_8 1_555 1_555
O14_8 C28_8 1_555 1_555
H14_8 O11_8 1_555 1_555
H15_8 O11_8 1_555 1_555
N4_4 Co9_2 1_555 1_555
C19_8 N3_3 1_555 1_555
C22_8 C23_8 1_555 1_555
C25_8 C26_8 1_555 1_555
Co6_2 O8_8 1_555 1_555
Co11_4 O7_8 1_555 1_555
Co11_4 O12_8 1_555 1_555
C1_8 C2_8 1_555 1_555
C2_8 C3_8 1_555 1_555
C3_8 H1_8 1_555 1_555
C4_8 C3_8 1_555 1_555
C5_8 C4_8 1_555 1_555
H2_8 C5_8 1_555 1_555
C6_8 C5_8 1_555 1_555
C7_8 C2_8 1_555 1_555
H3_8 C7_8 1_555 1_555
C8_8 C6_8 1_555 1_555
C9_8 C10_8 1_555 1_555
C10_8 C11_8 1_555 1_555
C11_8 H4_8 1_555 1_555
C12_8 C4_8 1_555 1_555
C13_8 C12_8 1_555 1_555
H5_8 C13_8 1_555 1_555
C14_8 C10_8 1_555 1_555
H6_8 C14_8 1_555 1_555
N4_4 C13_8 1_555 1_555
O1_8 C1_8 1_555 1_555
O15_4 C8_8 1_555 1_555
O16_4 C8_8 1_555 1_555
O17_2 C9_8 1_555 1_555
O18_2 C9_8 1_555 1_555
O9_8 C27_8 1_555 1_555
O19_3 C27_8 1_555 1_555
C6_8 C7_8 1_555 1_555
C11_8 C12_8 1_555 1_555
C14_8 N4_4 1_555 1_555
N5 H16 1_555 1_555
H17 N5 1_555 1_555
C29 N5 1_555 1_555
H18 C29 1_555 1_555
H19 C29 1_555 1_555
H20 C29 1_555 1_555
C30 N5 1_555 1_555
H21 C30 1_555 1_555
H22 C30 1_555 1_555
H23 C30 1_555 1_555
N5_2 H16_2 1_555 1_555
H17_2 N5_2 1_555 1_555
C29_2 N5_2 1_555 1_555
H18_2 C29_2 1_555 1_555
H19_2 C29_2 1_555 1_555
H20_2 C29_2 1_555 1_555
C30_2 N5_2 1_555 1_555
H21_2 C30_2 1_555 1_555
H22_2 C30_2 1_555 1_555
H23_2 C30_2 1_555 1_555
N5_3 H16_3 1_555 1_555
H17_3 N5_3 1_555 1_555
C29_3 N5_3 1_555 1_555
H18_3 C29_3 1_555 1_555
H19_3 C29_3 1_555 1_555
H20_3 C29_3 1_555 1_555
C30_3 N5_3 1_555 1_555
H22_3 C30_3 1_555 1_555
H23_3 C30_3 1_555 1_555
N5_4 H16_4 1_555 1_555
H17_4 N5_4 1_555 1_555
C29_4 N5_4 1_555 1_555
H18_4 C29_4 1_555 1_555
H19_4 C29_4 1_555 1_555
H20_4 C29_4 1_555 1_555
C30_4 N5_4 1_555 1_555
H22_4 C30_4 1_555 1_555
H23_4 C30_4 1_555 1_555
N5_5 H16_5 1_555 1_555
H17_5 N5_5 1_555 1_555
C29_5 N5_5 1_555 1_555
H18_5 C29_5 1_555 1_555
H19_5 C29_5 1_555 1_555
H20_5 C29_5 1_555 1_555
C30_5 N5_5 1_555 1_555
H21_5 C30_5 1_555 1_555
H22_5 C30_5 1_555 1_555
H23_5 C30_5 1_555 1_555
N5_6 H16_6 1_555 1_555
H17_6 N5_6 1_555 1_555
C29_6 N5_6 1_555 1_555
H18_6 C29_6 1_555 1_555
H19_6 C29_6 1_555 1_555
H20_6 C29_6 1_555 1_555
C30_6 N5_6 1_555 1_555
H21_6 C30_6 1_555 1_555
H22_6 C30_6 1_555 1_555
H23_6 C30_6 1_555 1_555
N5_7 H16_7 1_555 1_555
H17_7 N5_7 1_555 1_555
C29_7 N5_7 1_555 1_555
H18_7 C29_7 1_555 1_555
H19_7 C29_7 1_555 1_555
H20_7 C29_7 1_555 1_555
C30_7 N5_7 1_555 1_555
H22_7 C30_7 1_555 1_555
H23_7 C30_7 1_555 1_555
N5_8 H16_8 1_555 1_555
H17_8 N5_8 1_555 1_555
C29_8 N5_8 1_555 1_555
H18_8 C29_8 1_555 1_555
H19_8 C29_8 1_555 1_555
H20_8 C29_8 1_555 1_555
C30_8 N5_8 1_555 1_555
H22_8 C30_8 1_555 1_555
H23_8 C30_8 1_555 1_555

#END
