
###############################################################################
#
# This file contains modified crystal structure data generated from the
# MOF subset of the Cambridge Structural Database (CSD) v543 
# hosted by the Cambridge Crystallographic Data Centre (CCDC).
#
# This work is licensed under the Creative Commons
# Attribution-NonCommercial-ShareAlike 4.0 International License.
# To view a copy of this license, visit
# http://creativecommons.org/licenses/by-nc-sa/4.0/
# or send a letter to
# Creative Commons, PO Box 1866, Mountain View, CA 94042, USA.
#
# CIF created using the CSD Python API on 29 September 2022
# The structure has been converted into the P1 space group
# The structure has a 3D framework
# The original CSD entry XIWVOR is in the orthorhombic crystal system
# The framework has been calculated to contain at least 10.0% void space
# The void calculation uses a probe of radius 1.32A, grid spacing 0.4
#
###############################################################################

data_XIWVOR
_chemical_formula_moiety         '(C496 H352 Co16 N96 O64)n'
_symmetry_cell_setting           triclinic
_symmetry_space_group_name_H-M   'P 1'
_symmetry_Int_Tables_number      1
_space_group_name_Hall           'P 1'
loop_
_symmetry_equiv_pos_site_id
_symmetry_equiv_pos_as_xyz
1 x,y,z
_cell_length_a                   18.099(4)
_cell_length_b                   56.282(11)
_cell_length_c                   13.435(3)
_cell_angle_alpha                90
_cell_angle_beta                 90
_cell_angle_gamma                90
_cell_volume                     13685.5
loop_
_atom_site_label
_atom_site_type_symbol
_atom_site_fract_x
_atom_site_fract_y
_atom_site_fract_z
O1 O 0.0798(4) 0.02996(14) 0.5213(6)
O2 O 0.0885(6) 0.22058(17) 0.6367(8)
C1 C 0.1233(6) 0.04447(17) 0.5621(8)
C2 C 0.0870(6) 0.0642(2) 0.6234(9)
O3 O 0.1908(6) 0.04402(18) 0.5481(8)
C3 C 0.0122(7) 0.0669(2) 0.6276(11)
C4 C 0.1314(9) 0.07990(19) 0.6745(12)
C6 C 0.0983(7) 0.0974(2) 0.7339(16)
H2 H 0.182572 0.078874 0.669732
C7 C 0.0235(7) 0.09948(18) 0.7389(10)
H4 H 0.127804 0.107808 0.770285
C8 C 0.0073(8) 0.1414(2) 0.7761(9)
C10 C 0.0039(8) 0.15885(19) 0.8540(10)
C11 C 0.0312(10) 0.14872(16) 0.6849(9)
C14 C 0.0232(6) 0.18175(17) 0.8366(9)
C15 C 0.0461(7) 0.17179(15) 0.6629(10)
H6 H 0.037667 0.137365 0.635389
C18 C 0.0476(6) 0.18937(16) 0.7423(9)
H9 H 0.020367 0.192703 0.888274
H10 H 0.055257 0.176314 0.597526
C20 C 0.0607(6) 0.21513(19) 0.7205(9)
O4 O 0.0498(7) 0.22982(15) 0.7872(7)
Co1 Co 0.16910(4) 0.01145(2) 0.42854(12)
N2 N 0.0971(5) 0.02295(18) 0.2968(8)
C21 C 0.0213(6) 0.0286(3) 0.3048(9)
C22 C 0.1096(6) 0.02310(19) 0.2010(9)
N3 N 0.0504(4) 0.02830(16) 0.1474(7)
H15 H 0.155598 0.019879 0.173248
C24 C 0.0467(5) 0.03124(17) 0.0408(9)
H17 H 0.156314 0.035617 0.015581
Co2 Co 0.08090(4) 0.26145(2) 0.67854(12)
N7 N 0.2842(5) 0.01825(17) 0.3690(7)
C26 C 0.9739(5) 0.02871(16) 0.9028(7)
N5 N 0.9021(4) 0.02501(14) 0.8686(6)
C29 C 0.8827(6) 0.0200(2) 0.7718(8)
C30 C 0.8411(4) 0.02372(16) 0.9212(8)
H20 H 0.913763 0.019682 0.716694
C31 C 0.8099(7) 0.0158(2) 0.7735(9)
N6 N 0.7842(5) 0.01825(17) 0.8690(7)
H21 H 0.839341 0.026491 0.989385
H22 H 0.781274 0.011725 0.718504
Co3 Co 0.66910(4) 0.01145(2) 0.92854(12)
O1_2 O 0.1702(4) 0.27996(14) 0.7713(6)
O2_2 O 0.1615(6) 0.47058(17) 0.8867(8)
C1_2 C 0.1267(6) 0.29447(17) 0.8121(8)
C2_2 C 0.1630(6) 0.3142(2) 0.8734(9)
O3_2 O 0.0592(6) 0.29402(18) 0.7981(8)
C3_2 C 0.2378(7) 0.3169(2) 0.8776(11)
C4_2 C 0.1186(9) 0.32990(19) 0.9245(12)
H1 H 0.268052 0.306521 0.842283
C5 C 0.2690(6) 0.33472(19) 0.9337(12)
C6_2 C 0.1517(7) 0.3474(2) 0.9839(16)
H2_2 H 0.067428 0.328874 0.919732
C7_2 C 0.2265(7) 0.34948(18) 0.9889(10)
H3 H 0.320003 0.336651 0.933759
C11_2 C 0.2188(10) 0.39872(16) 0.9349(9)
C15_2 C 0.2039(7) 0.42179(15) 0.9129(10)
H6_2 H 0.212333 0.387365 0.885389
C18_2 C 0.2024(6) 0.43937(16) 0.9923(9)
H10_2 H 0.194743 0.426314 0.847526
C20_2 C 0.1893(6) 0.46513(19) 0.9705(9)
N2_2 N 0.1529(5) 0.27295(18) 0.5468(8)
C21_2 C 0.2287(6) 0.2786(3) 0.5548(9)
C22_2 C 0.1404(6) 0.27310(19) 0.4510(9)
C23 C 0.2552(6) 0.2815(2) 0.4613(10)
H14 H 0.255534 0.279976 0.613548
N3_2 N 0.1996(4) 0.27830(16) 0.3974(7)
H15_2 H 0.094402 0.269879 0.423248
H16 H 0.303758 0.285157 0.444567
C24_2 C 0.2033(5) 0.28124(17) 0.2908(9)
N4 N 0.2690(4) 0.27791(15) 0.2542(7)
C25 C 0.1398(7) 0.2845(2) 0.2355(11)
C26_2 C 0.2761(5) 0.27871(16) 0.1528(7)
H17_2 H 0.093686 0.285617 0.265581
C27 C 0.1481(8) 0.2860(2) 0.1325(12)
N5_2 N 0.3479(4) 0.27501(14) 0.1186(6)
C28 C 0.2169(6) 0.2831(2) 0.0938(10)
H18 H 0.107726 0.288968 0.091431
C29_2 C 0.3673(6) 0.2700(2) 0.0218(8)
C30_2 C 0.4089(4) 0.27372(16) 0.1712(8)
H19 H 0.223518 0.284167 0.025306
C31_2 C 0.4401(7) 0.2658(2) 0.0235(9)
N6_2 N 0.4658(5) 0.26825(17) 0.1190(7)
H21_2 H 0.410659 0.276491 0.239385
Co2_2 Co 0.16910(4) 0.51145(2) 0.92854(12)
Co3_2 Co 0.58090(4) 0.26145(2) 0.17854(12)
N2_3 N 0.0971(5) 0.52295(18) 0.7968(8)
C21_3 C 0.0213(6) 0.5286(3) 0.8048(9)
C22_3 C 0.1096(6) 0.52310(19) 0.7010(9)
N3_3 N 0.0504(4) 0.52830(16) 0.6474(7)
H15_3 H 0.155598 0.519879 0.673248
C24_3 C 0.0467(5) 0.53124(17) 0.5408(9)
C25_2 C 0.1102(7) 0.5345(2) 0.4855(11)
H17_3 H 0.156314 0.535617 0.515581
C27_2 C 0.1019(8) 0.5360(2) 0.3825(12)
C28_2 C 0.0331(6) 0.5331(2) 0.3438(10)
H18_2 H 0.142274 0.538968 0.341431
H19_2 H 0.026482 0.534167 0.275306
N7_2 N 0.2842(5) 0.51825(17) 0.8690(7)
C23_2 C 0.9948(6) 0.5315(2) 0.7113(10)
H14_2 H 0.994466 0.529976 0.863548
H16_2 H 0.946242 0.535157 0.694567
N4_2 N 0.9810(4) 0.52791(15) 0.5042(7)
C26_3 C 0.9739(5) 0.52871(16) 0.4028(7)
N5_3 N 0.9021(4) 0.52501(14) 0.3686(6)
C29_3 C 0.8827(6) 0.5200(2) 0.2718(8)
C30_3 C 0.8411(4) 0.52372(16) 0.4212(8)
H20_2 H 0.913763 0.519682 0.216694
C31_3 C 0.8099(7) 0.5158(2) 0.2735(9)
N6_3 N 0.7842(5) 0.51825(17) 0.3690(7)
H21_3 H 0.839341 0.526491 0.489385
H22_2 H 0.781274 0.511725 0.218504
Co3_3 Co 0.66910(4) 0.51145(2) 0.42854(12)
C22_4 C 0.1404(6) 0.77310(19) 0.9510(9)
C23_3 C 0.2552(6) 0.7815(2) 0.9613(10)
N3_4 N 0.1996(4) 0.77830(16) 0.8974(7)
H15_4 H 0.094402 0.769879 0.923248
H16_3 H 0.303758 0.785157 0.944567
C24_4 C 0.2033(5) 0.78124(17) 0.7908(9)
N4_3 N 0.2690(4) 0.77791(15) 0.7542(7)
C25_3 C 0.1398(7) 0.7845(2) 0.7355(11)
C26_4 C 0.2761(5) 0.77871(16) 0.6528(7)
H17_4 H 0.093686 0.785617 0.765581
C27_3 C 0.1481(8) 0.7860(2) 0.6325(12)
N5_4 N 0.3479(4) 0.77501(14) 0.6186(6)
C28_3 C 0.2169(6) 0.7831(2) 0.5938(10)
H18_3 H 0.107726 0.788968 0.591431
C29_4 C 0.3673(6) 0.7700(2) 0.5218(8)
C30_4 C 0.4089(4) 0.77372(16) 0.6712(8)
H19_3 H 0.223518 0.784167 0.525306
H20_3 H 0.336237 0.769682 0.466694
C31_4 C 0.4401(7) 0.7658(2) 0.5235(9)
N6_4 N 0.4658(5) 0.76825(17) 0.6190(7)
H21_4 H 0.410659 0.776491 0.739385
H22_3 H 0.468726 0.761725 0.468504
Co3_4 Co 0.58090(4) 0.76145(2) 0.67854(12)
N7_3 N 0.9658(5) 0.76825(17) 0.1190(7)
O1_3 O 0.5798(4) 0.02996(14) 0.0213(6)
O2_3 O 0.5885(6) 0.22058(17) 0.1367(8)
C1_3 C 0.6233(6) 0.04447(17) 0.0621(8)
C2_3 C 0.5870(6) 0.0642(2) 0.1234(9)
O3_3 O 0.6908(6) 0.04402(18) 0.0481(8)
C3_3 C 0.5122(7) 0.0669(2) 0.1276(11)
C4_3 C 0.6314(9) 0.07990(19) 0.1745(12)
H1_2 H 0.481948 0.056521 0.092283
C5_2 C 0.4810(6) 0.08472(19) 0.1837(12)
C6_3 C 0.5983(7) 0.0974(2) 0.2339(16)
H2_3 H 0.682572 0.078874 0.169732
C7_3 C 0.5235(7) 0.09948(18) 0.2389(10)
H3_2 H 0.429997 0.086651 0.183759
H4_2 H 0.627804 0.107808 0.270285
N1 N 0.4926(8) 0.1183(2) 0.2968(12)
C8_2 C 0.5073(8) 0.1414(2) 0.2761(9)
C9 C 0.4293(9) 0.1114(3) 0.3591(12)
C10_2 C 0.5039(8) 0.15885(19) 0.3540(10)
C11_3 C 0.5312(10) 0.14872(16) 0.1849(9)
C12 C 0.3644(9) 0.1227(4) 0.3368(17)
C13 C 0.4366(11) 0.0939(3) 0.4297(14)
C14_2 C 0.5232(6) 0.18175(17) 0.3366(9)
H5 H 0.488190 0.154375 0.417147
C15_3 C 0.5461(7) 0.17179(15) 0.1629(10)
H6_3 H 0.537667 0.137365 0.135389
H7 H 0.363000 0.135376 0.292288
C16 C 0.3019(12) 0.1147(4) 0.3823(18)
H8 H 0.481484 0.086468 0.442689
C17 C 0.3735(10) 0.0882(4) 0.4793(18)
C18_3 C 0.5476(6) 0.18937(16) 0.2423(9)
H9_2 H 0.520367 0.192703 0.388274
H10_3 H 0.555257 0.176314 0.097526
H11 H 0.255860 0.120398 0.362895
C19 C 0.3071(13) 0.0982(4) 0.457(2)
H12 H 0.375776 0.077027 0.530376
C20_3 C 0.5607(6) 0.21513(19) 0.2205(9)
H13 H 0.265075 0.093805 0.492120
O4_2 O 0.5498(7) 0.22982(15) 0.2872(7)
N2_4 N 0.5971(5) 0.02295(18) 0.7968(8)
C21_4 C 0.5213(6) 0.0286(3) 0.8048(9)
C22_5 C 0.6096(6) 0.02310(19) 0.7010(9)
C23_4 C 0.4948(6) 0.0315(2) 0.7113(10)
H14_3 H 0.494466 0.029976 0.863548
N3_5 N 0.5504(4) 0.02830(16) 0.6474(7)
H15_5 H 0.655598 0.019879 0.673248
H16_4 H 0.446242 0.035157 0.694567
C24_5 C 0.5467(5) 0.03124(17) 0.5408(9)
N4_4 N 0.4810(4) 0.02791(15) 0.5042(7)
C25_4 C 0.6102(7) 0.0345(2) 0.4855(11)
C26_5 C 0.4739(5) 0.02871(16) 0.4028(7)
H17_5 H 0.656314 0.035617 0.515581
C27_4 C 0.6019(8) 0.0360(2) 0.3825(12)
N5_5 N 0.4021(4) 0.02501(14) 0.3686(6)
C28_4 C 0.5331(6) 0.0331(2) 0.3438(10)
H18_4 H 0.642274 0.038968 0.341431
C29_5 C 0.3827(6) 0.0200(2) 0.2718(8)
C30_5 C 0.3411(4) 0.02372(16) 0.4212(8)
H19_4 H 0.526482 0.034167 0.275306
H20_4 H 0.413763 0.019682 0.216694
C31_5 C 0.3099(7) 0.0158(2) 0.2735(9)
H21_5 H 0.339341 0.026491 0.489385
H22_4 H 0.281274 0.011725 0.218504
O5 O 0.6615(6) 0.97058(17) 0.8867(8)
O1_4 O 0.6702(4) 0.27996(14) 0.2713(6)
O2_4 O 0.6615(6) 0.47058(17) 0.3867(8)
C1_4 C 0.6267(6) 0.29447(17) 0.3121(8)
C2_4 C 0.6630(6) 0.3142(2) 0.3734(9)
O3_4 O 0.5592(6) 0.29402(18) 0.2981(8)
C3_4 C 0.7378(7) 0.3169(2) 0.3776(11)
C4_4 C 0.6186(9) 0.32990(19) 0.4245(12)
H1_3 H 0.768052 0.306521 0.342283
C5_3 C 0.7690(6) 0.33472(19) 0.4337(12)
C6_4 C 0.6517(7) 0.3474(2) 0.4839(16)
H2_4 H 0.567428 0.328874 0.419732
C7_4 C 0.7265(7) 0.34948(18) 0.4889(10)
H3_3 H 0.820003 0.336651 0.433759
H4_3 H 0.622196 0.357808 0.520285
N1_2 N 0.7574(8) 0.3683(2) 0.5468(12)
C8_3 C 0.7427(8) 0.3914(2) 0.5261(9)
C9_2 C 0.8207(9) 0.3614(3) 0.6091(12)
C10_3 C 0.7461(8) 0.40885(19) 0.6040(10)
C11_4 C 0.7188(10) 0.39872(16) 0.4349(9)
C12_2 C 0.8856(9) 0.3727(4) 0.5868(17)
C13_2 C 0.8134(11) 0.3439(3) 0.6797(14)
C14_3 C 0.7268(6) 0.43175(17) 0.5866(9)
H5_2 H 0.761810 0.404375 0.667147
C15_4 C 0.7039(7) 0.42179(15) 0.4129(10)
H6_4 H 0.712333 0.387365 0.385389
H7_2 H 0.887000 0.385376 0.542288
C16_2 C 0.9481(12) 0.3647(4) 0.6323(18)
H8_2 H 0.768516 0.336468 0.692689
C17_2 C 0.8765(10) 0.3382(4) 0.7293(18)
C18_4 C 0.7024(6) 0.43937(16) 0.4923(9)
H9_3 H 0.729633 0.442703 0.638274
H10_4 H 0.694743 0.426314 0.347526
H11_2 H 0.994140 0.370398 0.612895
C19_2 C 0.9429(13) 0.3482(4) 0.707(2)
H12_2 H 0.874224 0.327027 0.780376
C20_4 C 0.6893(6) 0.46513(19) 0.4705(9)
H13_2 H 0.984925 0.343805 0.742120
O4_3 O 0.7002(7) 0.47982(15) 0.5372(7)
N2_5 N 0.6529(5) 0.27295(18) 0.0468(8)
C21_5 C 0.7287(6) 0.2786(3) 0.0548(9)
H14_4 H 0.755534 0.279976 0.113548
O1_5 O 0.5798(4) 0.52996(14) 0.5213(6)
O2_5 O 0.5885(6) 0.72058(17) 0.6367(8)
C1_5 C 0.6233(6) 0.54447(17) 0.5621(8)
C2_5 C 0.5870(6) 0.5642(2) 0.6234(9)
O3_5 O 0.6908(6) 0.54402(18) 0.5481(8)
C3_5 C 0.5122(7) 0.5669(2) 0.6276(11)
C4_5 C 0.6314(9) 0.57990(19) 0.6745(12)
H1_4 H 0.481948 0.556521 0.592283
C5_4 C 0.4810(6) 0.58472(19) 0.6837(12)
C6_5 C 0.5983(7) 0.5974(2) 0.7339(16)
H2_5 H 0.682572 0.578874 0.669732
C7_5 C 0.5235(7) 0.59948(18) 0.7389(10)
H3_4 H 0.429997 0.586651 0.683759
H4_4 H 0.627804 0.607808 0.770285
N1_3 N 0.4926(8) 0.6183(2) 0.7968(12)
C8_4 C 0.5073(8) 0.6414(2) 0.7761(9)
C9_3 C 0.4293(9) 0.6114(3) 0.8591(12)
C10_4 C 0.5039(8) 0.65885(19) 0.8540(10)
C11_5 C 0.5312(10) 0.64872(16) 0.6849(9)
C12_3 C 0.3644(9) 0.6227(4) 0.8368(17)
C13_3 C 0.4366(11) 0.5939(3) 0.9297(14)
C14_4 C 0.5232(6) 0.68175(17) 0.8366(9)
H5_3 H 0.488190 0.654375 0.917147
C15_5 C 0.5461(7) 0.67179(15) 0.6629(10)
H6_5 H 0.537667 0.637365 0.635389
H7_3 H 0.363000 0.635376 0.792288
C16_3 C 0.3019(12) 0.6147(4) 0.8823(18)
H8_3 H 0.481484 0.586468 0.942689
C17_3 C 0.3735(10) 0.5882(4) 0.9793(18)
C18_5 C 0.5476(6) 0.68937(16) 0.7423(9)
H9_4 H 0.520367 0.692703 0.888274
H10_5 H 0.555257 0.676314 0.597526
H11_3 H 0.255860 0.620398 0.862895
C19_3 C 0.3071(13) 0.5982(4) 0.957(2)
C20_5 C 0.5607(6) 0.71513(19) 0.7205(9)
H13_3 H 0.265075 0.593805 0.992120
O4_4 O 0.5498(7) 0.72982(15) 0.7872(7)
N2_6 N 0.5971(5) 0.52295(18) 0.2968(8)
C21_6 C 0.5213(6) 0.5286(3) 0.3048(9)
C22_6 C 0.6096(6) 0.52310(19) 0.2010(9)
C23_5 C 0.4948(6) 0.5315(2) 0.2113(10)
H14_5 H 0.494466 0.529976 0.363548
N3_6 N 0.5504(4) 0.52830(16) 0.1474(7)
H15_6 H 0.655598 0.519879 0.173248
H16_5 H 0.446242 0.535157 0.194567
C24_6 C 0.5467(5) 0.53124(17) 0.0408(9)
N4_5 N 0.4810(4) 0.52791(15) 0.0042(7)
H17_6 H 0.656314 0.535617 0.015581
C25_5 C 0.6102(7) 0.5345(2) 0.9855(11)
C26_6 C 0.4739(5) 0.52871(16) 0.9028(7)
C27_5 C 0.6019(8) 0.5360(2) 0.8825(12)
N5_6 N 0.4021(4) 0.52501(14) 0.8686(6)
C28_5 C 0.5331(6) 0.5331(2) 0.8438(10)
H18_5 H 0.642274 0.538968 0.841431
C29_6 C 0.3827(6) 0.5200(2) 0.7718(8)
C30_6 C 0.3411(4) 0.52372(16) 0.9212(8)
H19_5 H 0.526482 0.534167 0.775306
H20_5 H 0.413763 0.519682 0.716694
C31_6 C 0.3099(7) 0.5158(2) 0.7735(9)
H21_6 H 0.339341 0.526491 0.989385
H22_5 H 0.281274 0.511725 0.718504
O1_6 O 0.6702(4) 0.77996(14) 0.7713(6)
C1_6 C 0.6267(6) 0.79447(17) 0.8121(8)
C2_6 C 0.6630(6) 0.8142(2) 0.8734(9)
O3_6 O 0.5592(6) 0.79402(18) 0.7981(8)
C3_6 C 0.7378(7) 0.8169(2) 0.8776(11)
C4_6 C 0.6186(9) 0.82990(19) 0.9245(12)
H1_5 H 0.768052 0.806521 0.842283
C5_5 C 0.7690(6) 0.83472(19) 0.9337(12)
C6_6 C 0.6517(7) 0.8474(2) 0.9839(16)
H2_6 H 0.567428 0.828874 0.919732
C7_6 C 0.7265(7) 0.84948(18) 0.9889(10)
H3_5 H 0.820003 0.836651 0.933759
C11_6 C 0.7188(10) 0.89872(16) 0.9349(9)
C15_6 C 0.7039(7) 0.92179(15) 0.9129(10)
H6_6 H 0.712333 0.887365 0.885389
C18_6 C 0.7024(6) 0.93937(16) 0.9923(9)
H10_6 H 0.694743 0.926314 0.847526
C20_6 C 0.6893(6) 0.96513(19) 0.9705(9)
N2_7 N 0.6529(5) 0.77295(18) 0.5468(8)
C21_7 C 0.7287(6) 0.7786(3) 0.5548(9)
C22_7 C 0.6404(6) 0.77310(19) 0.4510(9)
C23_6 C 0.7552(6) 0.7815(2) 0.4613(10)
H14_6 H 0.755534 0.779976 0.613548
N3_7 N 0.6996(4) 0.77830(16) 0.3974(7)
H15_7 H 0.594402 0.769879 0.423248
H16_6 H 0.803758 0.785157 0.444567
C24_7 C 0.7033(5) 0.78124(17) 0.2908(9)
N4_6 N 0.7690(4) 0.77791(15) 0.2542(7)
C25_6 C 0.6398(7) 0.7845(2) 0.2355(11)
C26_7 C 0.7761(5) 0.77871(16) 0.1528(7)
H17_7 H 0.593686 0.785617 0.265581
C27_6 C 0.6481(8) 0.7860(2) 0.1325(12)
N5_7 N 0.8479(4) 0.77501(14) 0.1186(6)
C28_6 C 0.7169(6) 0.7831(2) 0.0938(10)
H18_6 H 0.607726 0.788968 0.091431
C29_7 C 0.8673(6) 0.7700(2) 0.0218(8)
C30_7 C 0.9089(4) 0.77372(16) 0.1712(8)
H19_6 H 0.723518 0.784167 0.025306
C31_7 C 0.9401(7) 0.7658(2) 0.0235(9)
H21_7 H 0.910659 0.776491 0.239385
C25_7 C 0.1102(7) 0.0345(2) 0.9855(11)
C27_7 C 0.1019(8) 0.0360(2) 0.8825(12)
C28_7 C 0.0331(6) 0.0331(2) 0.8438(10)
H18_7 H 0.142274 0.038968 0.841431
H19_7 H 0.026482 0.034167 0.775306
O5_2 O 0.1615(6) 0.97058(17) 0.3867(8)
O6 O 0.2002(7) 0.97982(15) 0.5372(7)
H4_5 H 0.122196 0.357808 0.020285
N1_4 N 0.2574(8) 0.3683(2) 0.0468(12)
C8_5 C 0.2427(8) 0.3914(2) 0.0261(9)
C9_4 C 0.3207(9) 0.3614(3) 0.1091(12)
C10_5 C 0.2461(8) 0.40885(19) 0.1040(10)
C12_4 C 0.3856(9) 0.3727(4) 0.0868(17)
C13_4 C 0.3134(11) 0.3439(3) 0.1797(14)
C14_5 C 0.2268(6) 0.43175(17) 0.0866(9)
H5_4 H 0.261810 0.404375 0.167147
H7_4 H 0.387000 0.385376 0.042288
C16_4 C 0.4481(12) 0.3647(4) 0.1323(18)
H8_4 H 0.268516 0.336468 0.192689
C17_4 C 0.3765(10) 0.3382(4) 0.2293(18)
H9_5 H 0.229633 0.442703 0.138274
H11_4 H 0.494140 0.370398 0.112895
C19_4 C 0.4429(13) 0.3482(4) 0.207(2)
H12_3 H 0.374224 0.327027 0.280376
H13_4 H 0.484925 0.343805 0.242120
O4_5 O 0.2002(7) 0.47982(15) 0.0372(7)
O1_7 O 0.0798(4) 0.52996(14) 0.0213(6)
O2_6 O 0.0885(6) 0.72058(17) 0.1367(8)
C1_7 C 0.1233(6) 0.54447(17) 0.0621(8)
C2_7 C 0.0870(6) 0.5642(2) 0.1234(9)
O3_7 O 0.1908(6) 0.54402(18) 0.0481(8)
C3_7 C 0.0122(7) 0.5669(2) 0.1276(11)
C4_7 C 0.1314(9) 0.57990(19) 0.1745(12)
C6_7 C 0.0983(7) 0.5974(2) 0.2339(16)
H2_7 H 0.182572 0.578874 0.169732
C7_7 C 0.0235(7) 0.59948(18) 0.2389(10)
H4_6 H 0.127804 0.607808 0.270285
C8_6 C 0.0073(8) 0.6414(2) 0.2761(9)
C10_6 C 0.0039(8) 0.65885(19) 0.3540(10)
C11_7 C 0.0312(10) 0.64872(16) 0.1849(9)
C14_6 C 0.0232(6) 0.68175(17) 0.3366(9)
C15_7 C 0.0461(7) 0.67179(15) 0.1629(10)
H6_7 H 0.037667 0.637365 0.135389
C18_7 C 0.0476(6) 0.68937(16) 0.2423(9)
H9_6 H 0.020367 0.692703 0.388274
H10_7 H 0.055257 0.676314 0.097526
C20_7 C 0.0607(6) 0.71513(19) 0.2205(9)
O4_6 O 0.0498(7) 0.72982(15) 0.2872(7)
Co2_3 Co 0.08090(4) 0.76145(2) 0.17854(12)
O1_8 O 0.1702(4) 0.77996(14) 0.2713(6)
C1_8 C 0.1267(6) 0.79447(17) 0.3121(8)
C2_8 C 0.1630(6) 0.8142(2) 0.3734(9)
O3_8 O 0.0592(6) 0.79402(18) 0.2981(8)
C3_8 C 0.2378(7) 0.8169(2) 0.3776(11)
C4_8 C 0.1186(9) 0.82990(19) 0.4245(12)
H1_6 H 0.268052 0.806521 0.342283
C5_6 C 0.2690(6) 0.83472(19) 0.4337(12)
C6_8 C 0.1517(7) 0.8474(2) 0.4839(16)
H2_8 H 0.067428 0.828874 0.419732
C7_8 C 0.2265(7) 0.84948(18) 0.4889(10)
H3_6 H 0.320003 0.836651 0.433759
H4_7 H 0.122196 0.857808 0.520285
N1_5 N 0.2574(8) 0.8683(2) 0.5468(12)
C8_7 C 0.2427(8) 0.8914(2) 0.5261(9)
C9_5 C 0.3207(9) 0.8614(3) 0.6091(12)
C10_7 C 0.2461(8) 0.90885(19) 0.6040(10)
C11_8 C 0.2188(10) 0.89872(16) 0.4349(9)
C12_5 C 0.3856(9) 0.8727(4) 0.5868(17)
C13_5 C 0.3134(11) 0.8439(3) 0.6797(14)
C14_7 C 0.2268(6) 0.93175(17) 0.5866(9)
H5_5 H 0.261810 0.904375 0.667147
C15_8 C 0.2039(7) 0.92179(15) 0.4129(10)
H6_8 H 0.212333 0.887365 0.385389
H7_5 H 0.387000 0.885376 0.542288
C16_5 C 0.4481(12) 0.8647(4) 0.6323(18)
H8_5 H 0.268516 0.836468 0.692689
C17_5 C 0.3765(10) 0.8382(4) 0.7293(18)
C18_8 C 0.2024(6) 0.93937(16) 0.4923(9)
H9_7 H 0.229633 0.942703 0.638274
H10_8 H 0.194743 0.926314 0.347526
H11_5 H 0.494140 0.870398 0.612895
C19_5 C 0.4429(13) 0.8482(4) 0.707(2)
H12_4 H 0.374224 0.827027 0.780376
C20_8 C 0.1893(6) 0.96513(19) 0.4705(9)
H13_5 H 0.484925 0.843805 0.742120
N2_8 N 0.1529(5) 0.77295(18) 0.0468(8)
C21_8 C 0.2287(6) 0.7786(3) 0.0548(9)
H14_7 H 0.255534 0.779976 0.113548
H12_5 H 0.875776 0.077027 0.030376
H1_7 H 0.981948 0.056521 0.592283
C5_7 C 0.9810(6) 0.08472(19) 0.6837(12)
H3_7 H 0.929997 0.086651 0.683759
N1_6 N 0.9926(8) 0.1183(2) 0.7968(12)
C9_6 C 0.9293(9) 0.1114(3) 0.8591(12)
C12_6 C 0.8644(9) 0.1227(4) 0.8368(17)
C13_6 C 0.9366(11) 0.0939(3) 0.9297(14)
H5_6 H 0.988190 0.154375 0.917147
H7_6 H 0.863000 0.135376 0.792288
C16_6 C 0.8019(12) 0.1147(4) 0.8823(18)
H8_6 H 0.981484 0.086468 0.942689
C17_6 C 0.8735(10) 0.0882(4) 0.9793(18)
H11_6 H 0.755860 0.120398 0.862895
C19_6 C 0.8071(13) 0.0982(4) 0.957(2)
H13_6 H 0.765075 0.093805 0.992120
C23_7 C 0.9948(6) 0.0315(2) 0.2113(10)
H14_8 H 0.994466 0.029976 0.363548
H16_7 H 0.946242 0.035157 0.194567
N4_7 N 0.9810(4) 0.02791(15) 0.0042(7)
H12_6 H 0.124224 0.922973 0.030376
H1_8 H 0.018052 0.943479 0.592283
C5_8 C 0.0190(6) 0.91528(19) 0.6837(12)
H3_8 H 0.070003 0.913349 0.683759
N1_7 N 0.0074(8) 0.8817(2) 0.7968(12)
C9_7 C 0.0707(9) 0.8886(3) 0.8591(12)
C12_7 C 0.1356(9) 0.8773(4) 0.8368(17)
C13_7 C 0.0634(11) 0.9061(3) 0.9297(14)
H5_7 H 0.011810 0.845625 0.917147
H7_7 H 0.137000 0.864624 0.792288
C16_7 C 0.1981(12) 0.8853(4) 0.8823(18)
H8_7 H 0.018516 0.913532 0.942689
C17_7 C 0.1265(10) 0.9118(4) 0.9793(18)
H11_7 H 0.244140 0.879602 0.862895
C19_7 C 0.1929(13) 0.9018(4) 0.957(2)
H13_7 H 0.234925 0.906195 0.992120
C23_8 C 0.0052(6) 0.9685(2) 0.2113(10)
H14_9 H 0.005534 0.970024 0.363548
H16_8 H 0.053758 0.964843 0.194567
N4_8 N 0.0190(4) 0.97209(15) 0.0042(7)
C26_8 C 0.0261(5) 0.97129(16) 0.9028(7)
N5_8 N 0.0979(4) 0.97499(14) 0.8686(6)
C29_8 C 0.1173(6) 0.9800(2) 0.7718(8)
C30_8 C 0.1589(4) 0.97628(16) 0.9212(8)
H20_6 H 0.086237 0.980318 0.716694
C31_8 C 0.1901(7) 0.9842(2) 0.7735(9)
N6_5 N 0.2158(5) 0.98175(17) 0.8690(7)
H21_8 H 0.160659 0.973509 0.989385
H22_6 H 0.218726 0.988275 0.718504
Co3_5 Co 0.33090(4) 0.98855(2) 0.92854(12)
O1_9 O 0.9202(4) 0.97004(14) 0.5213(6)
O2_7 O 0.9115(6) 0.77942(17) 0.6367(8)
C1_9 C 0.8767(6) 0.95553(17) 0.5621(8)
C2_9 C 0.9130(6) 0.9358(2) 0.6234(9)
O3_9 O 0.8092(6) 0.95598(18) 0.5481(8)
C3_9 C 0.9878(7) 0.9331(2) 0.6276(11)
C4_9 C 0.8686(9) 0.92010(19) 0.6745(12)
C6_9 C 0.9017(7) 0.9026(2) 0.7339(16)
H2_9 H 0.817428 0.921126 0.669732
C7_9 C 0.9765(7) 0.90052(18) 0.7389(10)
H4_8 H 0.872196 0.892192 0.770285
C8_8 C 0.9927(8) 0.8586(2) 0.7761(9)
C10_8 C 0.9961(8) 0.84115(19) 0.8540(10)
C11_9 C 0.9688(10) 0.85128(16) 0.6849(9)
C14_8 C 0.9768(6) 0.81825(17) 0.8366(9)
C15_9 C 0.9539(7) 0.82821(15) 0.6629(10)
H6_9 H 0.962333 0.862635 0.635389
C18_9 C 0.9524(6) 0.81063(16) 0.7423(9)
H9_8 H 0.979633 0.807297 0.888274
H10_9 H 0.944743 0.823686 0.597526
C20_9 C 0.9393(6) 0.78487(19) 0.7205(9)
O4_7 O 0.9502(7) 0.77018(15) 0.7872(7)
Co1_2 Co 0.83090(4) 0.98855(2) 0.42854(12)
N2_9 N 0.9029(5) 0.97705(18) 0.2968(8)
C21_9 C 0.9787(6) 0.9714(3) 0.3048(9)
C22_8 C 0.8904(6) 0.97690(19) 0.2010(9)
N3_8 N 0.9496(4) 0.97170(16) 0.1474(7)
H15_8 H 0.844402 0.980121 0.173248
C24_8 C 0.9533(5) 0.96876(17) 0.0408(9)
H17_8 H 0.843686 0.964383 0.015581
Co2_4 Co 0.91910(4) 0.73855(2) 0.67854(12)
N7_4 N 0.7158(5) 0.98175(17) 0.3690(7)
O1_10 O 0.3298(4) 0.22004(14) 0.7713(6)
O2_8 O 0.3385(6) 0.02942(17) 0.8867(8)
C1_10 C 0.3733(6) 0.20553(17) 0.8121(8)
C2_10 C 0.3370(6) 0.1858(2) 0.8734(9)
O3_10 O 0.4408(6) 0.20598(18) 0.7981(8)
C3_10 C 0.2622(7) 0.1831(2) 0.8776(11)
C4_10 C 0.3814(9) 0.17010(19) 0.9245(12)
H1_9 H 0.231948 0.193479 0.842283
C5_9 C 0.2310(6) 0.16528(19) 0.9337(12)
C6_10 C 0.3483(7) 0.1526(2) 0.9839(16)
H2_10 H 0.432572 0.171126 0.919732
C7_10 C 0.2735(7) 0.15052(18) 0.9889(10)
H3_9 H 0.179997 0.163349 0.933759
C11_10 C 0.2812(10) 0.10128(16) 0.9349(9)
C15_10 C 0.2961(7) 0.07821(15) 0.9129(10)
H6_10 H 0.287667 0.112635 0.885389
C18_10 C 0.2976(6) 0.06063(16) 0.9923(9)
H10_10 H 0.305257 0.073686 0.847526
C20_10 C 0.3107(6) 0.03487(19) 0.9705(9)
Co1_3 Co 0.41910(4) 0.23855(2) 0.67854(12)
N2_10 N 0.3471(5) 0.22705(18) 0.5468(8)
C21_10 C 0.2713(6) 0.2214(3) 0.5548(9)
C22_9 C 0.3596(6) 0.22690(19) 0.4510(9)
C23_9 C 0.2448(6) 0.2185(2) 0.4613(10)
H14_10 H 0.244466 0.220024 0.613548
N3_9 N 0.3004(4) 0.22170(16) 0.3974(7)
H15_9 H 0.405598 0.230121 0.423248
H16_9 H 0.196242 0.214843 0.444567
C24_9 C 0.2967(5) 0.21876(17) 0.2908(9)
N4_9 N 0.2310(4) 0.22209(15) 0.2542(7)
C25_8 C 0.3602(7) 0.2155(2) 0.2355(11)
C26_9 C 0.2239(5) 0.22129(16) 0.1528(7)
H17_9 H 0.406314 0.214383 0.265581
C27_8 C 0.3519(8) 0.2140(2) 0.1325(12)
N5_9 N 0.1521(4) 0.22499(14) 0.1186(6)
C28_8 C 0.2831(6) 0.2169(2) 0.0938(10)
H18_8 H 0.392274 0.211032 0.091431
C29_9 C 0.1327(6) 0.2300(2) 0.0218(8)
C30_9 C 0.0911(4) 0.22628(16) 0.1712(8)
H19_8 H 0.276482 0.215833 0.025306
C31_9 C 0.0599(7) 0.2342(2) 0.0235(9)
N6_6 N 0.0342(5) 0.23175(17) 0.1190(7)
H21_9 H 0.089341 0.223509 0.239385
O5_3 O 0.4115(6) 0.27942(17) 0.6367(8)
O6_2 O 0.4502(7) 0.27018(15) 0.7872(7)
N7_5 N 0.5342(5) 0.23175(17) 0.6190(7)
C23_10 C 0.0052(6) 0.4685(2) 0.7113(10)
H14_11 H 0.005534 0.470024 0.863548
H16_10 H 0.053758 0.464843 0.694567
N4_10 N 0.0190(4) 0.47209(15) 0.5042(7)
C26_10 C 0.0261(5) 0.47129(16) 0.4028(7)
N5_10 N 0.0979(4) 0.47499(14) 0.3686(6)
C29_10 C 0.1173(6) 0.4800(2) 0.2718(8)
C30_10 C 0.1589(4) 0.47628(16) 0.4212(8)
H20_7 H 0.086237 0.480318 0.216694
C31_10 C 0.1901(7) 0.4842(2) 0.2735(9)
N6_7 N 0.2158(5) 0.48175(17) 0.3690(7)
H21_10 H 0.160659 0.473509 0.489385
H22_7 H 0.218726 0.488275 0.218504
Co3_6 Co 0.33090(4) 0.48855(2) 0.42854(12)
Co1_4 Co 0.83090(4) 0.48855(2) 0.92854(12)
N2_11 N 0.9029(5) 0.47705(18) 0.7968(8)
C21_11 C 0.9787(6) 0.4714(3) 0.8048(9)
C22_10 C 0.8904(6) 0.47690(19) 0.7010(9)
N3_10 N 0.9496(4) 0.47170(16) 0.6474(7)
H15_10 H 0.844402 0.480121 0.673248
C24_10 C 0.9533(5) 0.46876(17) 0.5408(9)
C25_9 C 0.8898(7) 0.4655(2) 0.4855(11)
H17_10 H 0.843686 0.464383 0.515581
C27_9 C 0.8981(8) 0.4640(2) 0.3825(12)
C28_9 C 0.9669(6) 0.4669(2) 0.3438(10)
H18_9 H 0.857726 0.461032 0.341431
H19_9 H 0.973518 0.465833 0.275306
O5_4 O 0.8385(6) 0.52942(17) 0.8867(8)
N7_6 N 0.7158(5) 0.48175(17) 0.8690(7)
O1_11 O 0.3298(4) 0.72004(14) 0.2713(6)
O2_9 O 0.3385(6) 0.52942(17) 0.3867(8)
C1_11 C 0.3733(6) 0.70553(17) 0.3121(8)
C2_11 C 0.3370(6) 0.6858(2) 0.3734(9)
O3_11 O 0.4408(6) 0.70598(18) 0.2981(8)
C3_11 C 0.2622(7) 0.6831(2) 0.3776(11)
C4_11 C 0.3814(9) 0.67010(19) 0.4245(12)
H1_10 H 0.231948 0.693479 0.342283
C5_10 C 0.2310(6) 0.66528(19) 0.4337(12)
C6_11 C 0.3483(7) 0.6526(2) 0.4839(16)
H2_11 H 0.432572 0.671126 0.419732
C7_11 C 0.2735(7) 0.65052(18) 0.4889(10)
H3_10 H 0.179997 0.663349 0.433759
H4_9 H 0.377804 0.642192 0.520285
N1_8 N 0.2426(8) 0.6317(2) 0.5468(12)
C8_9 C 0.2573(8) 0.6086(2) 0.5261(9)
C9_8 C 0.1793(9) 0.6386(3) 0.6091(12)
C10_9 C 0.2539(8) 0.59115(19) 0.6040(10)
C11_11 C 0.2812(10) 0.60128(16) 0.4349(9)
C12_8 C 0.1144(9) 0.6273(4) 0.5868(17)
C13_8 C 0.1866(11) 0.6561(3) 0.6797(14)
C14_9 C 0.2732(6) 0.56825(17) 0.5866(9)
H5_8 H 0.238190 0.595625 0.667147
C15_11 C 0.2961(7) 0.57821(15) 0.4129(10)
H6_11 H 0.287667 0.612635 0.385389
H7_8 H 0.113000 0.614624 0.542288
C16_8 C 0.0519(12) 0.6353(4) 0.6323(18)
H8_8 H 0.231484 0.663532 0.692689
C17_8 C 0.1235(10) 0.6618(4) 0.7293(18)
C18_11 C 0.2976(6) 0.56063(16) 0.4923(9)
H9_9 H 0.270367 0.557297 0.638274
H10_11 H 0.305257 0.573686 0.347526
H11_8 H 0.005860 0.629602 0.612895
C19_8 C 0.0571(13) 0.6518(4) 0.707(2)
H12_7 H 0.125776 0.672973 0.780376
C20_11 C 0.3107(6) 0.53487(19) 0.4705(9)
H13_8 H 0.015075 0.656195 0.742120
O4_8 O 0.2998(7) 0.52018(15) 0.5372(7)
Co1_5 Co 0.41910(4) 0.73855(2) 0.17854(12)
N2_12 N 0.3471(5) 0.72705(18) 0.0468(8)
C21_12 C 0.2713(6) 0.7214(3) 0.0548(9)
H14_12 H 0.244466 0.720024 0.113548
O5_5 O 0.4115(6) 0.77942(17) 0.1367(8)
O6_3 O 0.4502(7) 0.77018(15) 0.2872(7)
N7_7 N 0.5342(5) 0.73175(17) 0.1190(7)
O1_12 O 0.4202(4) 0.97004(14) 0.0213(6)
C1_12 C 0.3767(6) 0.95553(17) 0.0621(8)
C2_12 C 0.4130(6) 0.9358(2) 0.1234(9)
O3_12 O 0.3092(6) 0.95598(18) 0.0481(8)
C3_12 C 0.4878(7) 0.9331(2) 0.1276(11)
C4_12 C 0.3686(9) 0.92010(19) 0.1745(12)
H1_11 H 0.518052 0.943479 0.092283
C5_11 C 0.5190(6) 0.91528(19) 0.1837(12)
C6_12 C 0.4017(7) 0.9026(2) 0.2339(16)
H2_12 H 0.317428 0.921126 0.169732
C7_12 C 0.4765(7) 0.90052(18) 0.2389(10)
H3_11 H 0.570003 0.913349 0.183759
H4_10 H 0.372196 0.892192 0.270285
N1_9 N 0.5074(8) 0.8817(2) 0.2968(12)
C8_10 C 0.4927(8) 0.8586(2) 0.2761(9)
C9_9 C 0.5707(9) 0.8886(3) 0.3591(12)
C10_10 C 0.4961(8) 0.84115(19) 0.3540(10)
C11_12 C 0.4688(10) 0.85128(16) 0.1849(9)
C12_9 C 0.6356(9) 0.8773(4) 0.3368(17)
C13_9 C 0.5634(11) 0.9061(3) 0.4297(14)
C14_10 C 0.4768(6) 0.81825(17) 0.3366(9)
H5_9 H 0.511810 0.845625 0.417147
C15_12 C 0.4539(7) 0.82821(15) 0.1629(10)
H6_12 H 0.462333 0.862635 0.135389
H7_9 H 0.637000 0.864624 0.292288
C16_9 C 0.6981(12) 0.8853(4) 0.3823(18)
H8_9 H 0.518516 0.913532 0.442689
C17_9 C 0.6265(10) 0.9118(4) 0.4793(18)
C18_12 C 0.4524(6) 0.81063(16) 0.2423(9)
H9_10 H 0.479633 0.807297 0.388274
H10_12 H 0.444743 0.823686 0.097526
H11_9 H 0.744140 0.879602 0.362895
C19_9 C 0.6929(13) 0.9018(4) 0.457(2)
H12_8 H 0.624224 0.922973 0.530376
C20_12 C 0.4393(6) 0.78487(19) 0.2205(9)
H13_9 H 0.734925 0.906195 0.492120
N2_13 N 0.4029(5) 0.97705(18) 0.7968(8)
C21_13 C 0.4787(6) 0.9714(3) 0.8048(9)
C22_11 C 0.3904(6) 0.97690(19) 0.7010(9)
C23_11 C 0.5052(6) 0.9685(2) 0.7113(10)
H14_13 H 0.505534 0.970024 0.863548
N3_11 N 0.4496(4) 0.97170(16) 0.6474(7)
H15_11 H 0.344402 0.980121 0.673248
H16_11 H 0.553758 0.964843 0.694567
C24_11 C 0.4533(5) 0.96876(17) 0.5408(9)
N4_11 N 0.5190(4) 0.97209(15) 0.5042(7)
C25_10 C 0.3898(7) 0.9655(2) 0.4855(11)
C26_11 C 0.5261(5) 0.97129(16) 0.4028(7)
H17_11 H 0.343686 0.964383 0.515581
C27_10 C 0.3981(8) 0.9640(2) 0.3825(12)
N5_11 N 0.5979(4) 0.97499(14) 0.3686(6)
C28_10 C 0.4669(6) 0.9669(2) 0.3438(10)
H18_10 H 0.357726 0.961032 0.341431
C29_11 C 0.6173(6) 0.9800(2) 0.2718(8)
C30_11 C 0.6589(4) 0.97628(16) 0.4212(8)
H19_10 H 0.473518 0.965833 0.275306
H20_8 H 0.586237 0.980318 0.216694
C31_11 C 0.6901(7) 0.9842(2) 0.2735(9)
H21_11 H 0.660659 0.973509 0.489385
H22_8 H 0.718726 0.988275 0.218504
C22_12 C 0.8596(6) 0.22690(19) 0.9510(9)
C23_12 C 0.7448(6) 0.2185(2) 0.9613(10)
N3_12 N 0.8004(4) 0.22170(16) 0.8974(7)
H15_12 H 0.905598 0.230121 0.923248
H16_12 H 0.696242 0.214843 0.944567
C24_12 C 0.7967(5) 0.21876(17) 0.7908(9)
N4_12 N 0.7310(4) 0.22209(15) 0.7542(7)
C25_11 C 0.8602(7) 0.2155(2) 0.7355(11)
C26_12 C 0.7239(5) 0.22129(16) 0.6528(7)
H17_12 H 0.906314 0.214383 0.765581
C27_11 C 0.8519(8) 0.2140(2) 0.6325(12)
N5_12 N 0.6521(4) 0.22499(14) 0.6186(6)
C28_11 C 0.7831(6) 0.2169(2) 0.5938(10)
H18_11 H 0.892274 0.211032 0.591431
C29_12 C 0.6327(6) 0.2300(2) 0.5218(8)
C30_12 C 0.5911(4) 0.22628(16) 0.6712(8)
H19_11 H 0.776482 0.215833 0.525306
H20_9 H 0.663763 0.230318 0.466694
C31_12 C 0.5599(7) 0.2342(2) 0.5235(9)
H21_12 H 0.589341 0.223509 0.739385
H22_9 H 0.531274 0.238275 0.468504
O1_13 O 0.4202(4) 0.47004(14) 0.5213(6)
C1_13 C 0.3767(6) 0.45553(17) 0.5621(8)
C2_13 C 0.4130(6) 0.4358(2) 0.6234(9)
O3_13 O 0.3092(6) 0.45598(18) 0.5481(8)
C3_13 C 0.4878(7) 0.4331(2) 0.6276(11)
C4_13 C 0.3686(9) 0.42010(19) 0.6745(12)
H1_12 H 0.518052 0.443479 0.592283
C5_12 C 0.5190(6) 0.41528(19) 0.6837(12)
C6_13 C 0.4017(7) 0.4026(2) 0.7339(16)
H2_13 H 0.317428 0.421126 0.669732
C7_13 C 0.4765(7) 0.40052(18) 0.7389(10)
H3_12 H 0.570003 0.413349 0.683759
H4_11 H 0.372196 0.392192 0.770285
N1_10 N 0.5074(8) 0.3817(2) 0.7968(12)
C8_11 C 0.4927(8) 0.3586(2) 0.7761(9)
C9_10 C 0.5707(9) 0.3886(3) 0.8591(12)
C10_11 C 0.4961(8) 0.34115(19) 0.8540(10)
C11_13 C 0.4688(10) 0.35128(16) 0.6849(9)
C12_10 C 0.6356(9) 0.3773(4) 0.8368(17)
C13_10 C 0.5634(11) 0.4061(3) 0.9297(14)
C14_11 C 0.4768(6) 0.31825(17) 0.8366(9)
H5_10 H 0.511810 0.345625 0.917147
C15_13 C 0.4539(7) 0.32821(15) 0.6629(10)
H6_13 H 0.462333 0.362635 0.635389
H7_10 H 0.637000 0.364624 0.792288
C16_10 C 0.6981(12) 0.3853(4) 0.8823(18)
H8_10 H 0.518516 0.413532 0.942689
C17_10 C 0.6265(10) 0.4118(4) 0.9793(18)
C18_13 C 0.4524(6) 0.31063(16) 0.7423(9)
H9_11 H 0.479633 0.307297 0.888274
H10_13 H 0.444743 0.323686 0.597526
H11_10 H 0.744140 0.379602 0.862895
C19_10 C 0.6929(13) 0.4018(4) 0.957(2)
C20_13 C 0.4393(6) 0.28487(19) 0.7205(9)
H13_10 H 0.734925 0.406195 0.992120
N2_14 N 0.4029(5) 0.47705(18) 0.2968(8)
C21_14 C 0.4787(6) 0.4714(3) 0.3048(9)
C22_13 C 0.3904(6) 0.47690(19) 0.2010(9)
C23_13 C 0.5052(6) 0.4685(2) 0.2113(10)
H14_14 H 0.505534 0.470024 0.363548
N3_13 N 0.4496(4) 0.47170(16) 0.1474(7)
H15_13 H 0.344402 0.480121 0.173248
H16_13 H 0.553758 0.464843 0.194567
C24_13 C 0.4533(5) 0.46876(17) 0.0408(9)
N4_13 N 0.5190(4) 0.47209(15) 0.0042(7)
H17_13 H 0.343686 0.464383 0.015581
C25_12 C 0.3898(7) 0.4655(2) 0.9855(11)
C26_13 C 0.5261(5) 0.47129(16) 0.9028(7)
C27_12 C 0.3981(8) 0.4640(2) 0.8825(12)
N5_13 N 0.5979(4) 0.47499(14) 0.8686(6)
C28_12 C 0.4669(6) 0.4669(2) 0.8438(10)
H18_12 H 0.357726 0.461032 0.841431
C29_13 C 0.6173(6) 0.4800(2) 0.7718(8)
C30_13 C 0.6589(4) 0.47628(16) 0.9212(8)
H19_12 H 0.473518 0.465833 0.775306
H20_10 H 0.586237 0.480318 0.716694
C31_13 C 0.6901(7) 0.4842(2) 0.7735(9)
H21_13 H 0.660659 0.473509 0.989385
H22_10 H 0.718726 0.488275 0.718504
O1_14 O 0.8298(4) 0.72004(14) 0.7713(6)
C1_14 C 0.8733(6) 0.70553(17) 0.8121(8)
C2_14 C 0.8370(6) 0.6858(2) 0.8734(9)
O3_14 O 0.9408(6) 0.70598(18) 0.7981(8)
C3_14 C 0.7622(7) 0.6831(2) 0.8776(11)
C4_14 C 0.8814(9) 0.67010(19) 0.9245(12)
H1_13 H 0.731948 0.693479 0.842283
C5_13 C 0.7310(6) 0.66528(19) 0.9337(12)
C6_14 C 0.8483(7) 0.6526(2) 0.9839(16)
H2_14 H 0.932572 0.671126 0.919732
C7_14 C 0.7735(7) 0.65052(18) 0.9889(10)
H3_13 H 0.679997 0.663349 0.933759
C11_14 C 0.7812(10) 0.60128(16) 0.9349(9)
C15_14 C 0.7961(7) 0.57821(15) 0.9129(10)
H6_14 H 0.787667 0.612635 0.885389
C18_14 C 0.7976(6) 0.56063(16) 0.9923(9)
H10_14 H 0.805257 0.573686 0.847526
C20_14 C 0.8107(6) 0.53487(19) 0.9705(9)
N2_15 N 0.8471(5) 0.72705(18) 0.5468(8)
C21_15 C 0.7713(6) 0.7214(3) 0.5548(9)
C22_14 C 0.8596(6) 0.72690(19) 0.4510(9)
C23_14 C 0.7448(6) 0.7185(2) 0.4613(10)
H14_15 H 0.744466 0.720024 0.613548
N3_14 N 0.8004(4) 0.72170(16) 0.3974(7)
H15_14 H 0.905598 0.730121 0.423248
H16_14 H 0.696242 0.714843 0.444567
C24_14 C 0.7967(5) 0.71876(17) 0.2908(9)
N4_14 N 0.7310(4) 0.72209(15) 0.2542(7)
C25_13 C 0.8602(7) 0.7155(2) 0.2355(11)
C26_14 C 0.7239(5) 0.72129(16) 0.1528(7)
H17_14 H 0.906314 0.714383 0.265581
C27_13 C 0.8519(8) 0.7140(2) 0.1325(12)
N5_14 N 0.6521(4) 0.72499(14) 0.1186(6)
C28_13 C 0.7831(6) 0.7169(2) 0.0938(10)
H18_13 H 0.892274 0.711032 0.091431
C29_14 C 0.6327(6) 0.7300(2) 0.0218(8)
C30_14 C 0.5911(4) 0.72628(16) 0.1712(8)
H19_13 H 0.776482 0.715833 0.025306
C31_14 C 0.5599(7) 0.7342(2) 0.0235(9)
H21_14 H 0.589341 0.723509 0.239385
O5_6 O 0.8385(6) 0.02942(17) 0.3867(8)
O6_4 O 0.7998(7) 0.02018(15) 0.5372(7)
Co3_7 Co 0.91910(4) 0.23855(2) 0.17854(12)
O1_15 O 0.9202(4) 0.47004(14) 0.0213(6)
O2_10 O 0.9115(6) 0.27942(17) 0.1367(8)
C1_15 C 0.8767(6) 0.45553(17) 0.0621(8)
C2_15 C 0.9130(6) 0.4358(2) 0.1234(9)
O3_15 O 0.8092(6) 0.45598(18) 0.0481(8)
C3_15 C 0.9878(7) 0.4331(2) 0.1276(11)
C4_15 C 0.8686(9) 0.42010(19) 0.1745(12)
C6_15 C 0.9017(7) 0.4026(2) 0.2339(16)
H2_15 H 0.817428 0.421126 0.169732
C7_15 C 0.9765(7) 0.40052(18) 0.2389(10)
H4_12 H 0.872196 0.392192 0.270285
C8_12 C 0.9927(8) 0.3586(2) 0.2761(9)
C10_12 C 0.9961(8) 0.34115(19) 0.3540(10)
C11_15 C 0.9688(10) 0.35128(16) 0.1849(9)
C14_12 C 0.9768(6) 0.31825(17) 0.3366(9)
C15_15 C 0.9539(7) 0.32821(15) 0.1629(10)
H6_15 H 0.962333 0.362635 0.135389
C18_15 C 0.9524(6) 0.31063(16) 0.2423(9)
H9_12 H 0.979633 0.307297 0.388274
H10_15 H 0.944743 0.323686 0.097526
C20_15 C 0.9393(6) 0.28487(19) 0.2205(9)
O4_9 O 0.9502(7) 0.27018(15) 0.2872(7)
O6_5 O 0.7998(7) 0.52018(15) 0.0372(7)
O1_16 O 0.8298(4) 0.22004(14) 0.2713(6)
C1_16 C 0.8733(6) 0.20553(17) 0.3121(8)
C2_16 C 0.8370(6) 0.1858(2) 0.3734(9)
O3_16 O 0.9408(6) 0.20598(18) 0.2981(8)
C3_16 C 0.7622(7) 0.1831(2) 0.3776(11)
C4_16 C 0.8814(9) 0.17010(19) 0.4245(12)
H1_14 H 0.731948 0.193479 0.342283
C5_14 C 0.7310(6) 0.16528(19) 0.4337(12)
C6_16 C 0.8483(7) 0.1526(2) 0.4839(16)
H2_16 H 0.932572 0.171126 0.419732
C7_16 C 0.7735(7) 0.15052(18) 0.4889(10)
H3_14 H 0.679997 0.163349 0.433759
H4_13 H 0.877804 0.142192 0.520285
N1_11 N 0.7426(8) 0.1317(2) 0.5468(12)
C8_13 C 0.7573(8) 0.1086(2) 0.5261(9)
C9_11 C 0.6793(9) 0.1386(3) 0.6091(12)
C10_13 C 0.7539(8) 0.09115(19) 0.6040(10)
C11_16 C 0.7812(10) 0.10128(16) 0.4349(9)
C12_11 C 0.6144(9) 0.1273(4) 0.5868(17)
C13_11 C 0.6866(11) 0.1561(3) 0.6797(14)
C14_13 C 0.7732(6) 0.06825(17) 0.5866(9)
H5_11 H 0.738190 0.095625 0.667147
C15_16 C 0.7961(7) 0.07821(15) 0.4129(10)
H6_16 H 0.787667 0.112635 0.385389
H7_11 H 0.613000 0.114624 0.542288
C16_11 C 0.5519(12) 0.1353(4) 0.6323(18)
H8_11 H 0.731484 0.163532 0.692689
C17_11 C 0.6235(10) 0.1618(4) 0.7293(18)
C18_16 C 0.7976(6) 0.06063(16) 0.4923(9)
H9_13 H 0.770367 0.057297 0.638274
H10_16 H 0.805257 0.073686 0.347526
H11_11 H 0.505860 0.129602 0.612895
C19_11 C 0.5571(13) 0.1518(4) 0.707(2)
H12_9 H 0.625776 0.172973 0.780376
C20_16 C 0.8107(6) 0.03487(19) 0.4705(9)
H13_11 H 0.515075 0.156195 0.742120
N2_16 N 0.8471(5) 0.22705(18) 0.0468(8)
C21_16 C 0.7713(6) 0.2214(3) 0.0548(9)
H14_16 H 0.744466 0.220024 0.113548
H4_14 H 0.877804 0.642192 0.020285
N1_12 N 0.7426(8) 0.6317(2) 0.0468(12)
C8_14 C 0.7573(8) 0.6086(2) 0.0261(9)
C9_12 C 0.6793(9) 0.6386(3) 0.1091(12)
C10_14 C 0.7539(8) 0.59115(19) 0.1040(10)
C12_12 C 0.6144(9) 0.6273(4) 0.0868(17)
C13_12 C 0.6866(11) 0.6561(3) 0.1797(14)
C14_14 C 0.7732(6) 0.56825(17) 0.0866(9)
H5_12 H 0.738190 0.595625 0.167147
H7_12 H 0.613000 0.614624 0.042288
C16_12 C 0.5519(12) 0.6353(4) 0.1323(18)
H8_12 H 0.731484 0.663532 0.192689
C17_12 C 0.6235(10) 0.6618(4) 0.2293(18)
H9_14 H 0.770367 0.557297 0.138274
H11_12 H 0.505860 0.629602 0.112895
C19_12 C 0.5571(13) 0.6518(4) 0.207(2)
H12_10 H 0.625776 0.672973 0.280376
H13_12 H 0.515075 0.656195 0.242120
C25_14 C 0.8898(7) 0.9655(2) 0.9855(11)
C27_14 C 0.8981(8) 0.9640(2) 0.8825(12)
C28_14 C 0.9669(6) 0.9669(2) 0.8438(10)
H18_14 H 0.857726 0.961032 0.841431
H19_14 H 0.973518 0.965833 0.775306
H20_11 H 0.336237 0.269682 0.966694
H22_11 H 0.468726 0.261725 0.968504
N7_8 N 0.9658(5) 0.26825(17) 0.6190(7)
C22_15 C 0.6404(6) 0.27310(19) 0.9510(9)
C23_15 C 0.7552(6) 0.2815(2) 0.9613(10)
N3_15 N 0.6996(4) 0.27830(16) 0.8974(7)
H15_15 H 0.594402 0.269879 0.923248
H16_15 H 0.803758 0.285157 0.944567
C24_15 C 0.7033(5) 0.28124(17) 0.7908(9)
N4_15 N 0.7690(4) 0.27791(15) 0.7542(7)
C25_15 C 0.6398(7) 0.2845(2) 0.7355(11)
C26_15 C 0.7761(5) 0.27871(16) 0.6528(7)
H17_15 H 0.593686 0.285617 0.765581
C27_15 C 0.6481(8) 0.2860(2) 0.6325(12)
N5_15 N 0.8479(4) 0.27501(14) 0.6186(6)
C28_15 C 0.7169(6) 0.2831(2) 0.5938(10)
H18_15 H 0.607726 0.288968 0.591431
C29_15 C 0.8673(6) 0.2700(2) 0.5218(8)
C30_15 C 0.9089(4) 0.27372(16) 0.6712(8)
H19_15 H 0.723518 0.284167 0.525306
H20_12 H 0.836237 0.269682 0.466694
C31_15 C 0.9401(7) 0.2658(2) 0.5235(9)
H21_15 H 0.910659 0.276491 0.739385
H22_12 H 0.968726 0.261725 0.468504
H4_15 H 0.377804 0.142192 0.020285
N1_13 N 0.2426(8) 0.1317(2) 0.0468(12)
C8_15 C 0.2573(8) 0.1086(2) 0.0261(9)
C9_13 C 0.1793(9) 0.1386(3) 0.1091(12)
C10_15 C 0.2539(8) 0.09115(19) 0.1040(10)
C12_13 C 0.1144(9) 0.1273(4) 0.0868(17)
C13_13 C 0.1866(11) 0.1561(3) 0.1797(14)
C14_15 C 0.2732(6) 0.06825(17) 0.0866(9)
H5_13 H 0.238190 0.095625 0.167147
H7_13 H 0.113000 0.114624 0.042288
C16_13 C 0.0519(12) 0.1353(4) 0.1323(18)
H8_13 H 0.231484 0.163532 0.192689
C17_13 C 0.1235(10) 0.1618(4) 0.2293(18)
H9_15 H 0.270367 0.057297 0.138274
H11_13 H 0.005860 0.129602 0.112895
C19_13 C 0.0571(13) 0.1518(4) 0.207(2)
H12_11 H 0.125776 0.172973 0.280376
H13_13 H 0.015075 0.156195 0.242120
O4_10 O 0.2998(7) 0.02018(15) 0.0372(7)
H20_13 H 0.163763 0.230318 0.966694
H22_13 H 0.031274 0.238275 0.968504
H1_15 H 0.981948 0.556521 0.092283
C5_15 C 0.9810(6) 0.58472(19) 0.1837(12)
H3_15 H 0.929997 0.586651 0.183759
N1_14 N 0.9926(8) 0.6183(2) 0.2968(12)
C9_14 C 0.9293(9) 0.6114(3) 0.3591(12)
C12_14 C 0.8644(9) 0.6227(4) 0.3368(17)
C13_14 C 0.9366(11) 0.5939(3) 0.4297(14)
H5_14 H 0.988190 0.654375 0.417147
H7_14 H 0.863000 0.635376 0.292288
C16_14 C 0.8019(12) 0.6147(4) 0.3823(18)
H8_14 H 0.981484 0.586468 0.442689
C17_14 C 0.8735(10) 0.5882(4) 0.4793(18)
H11_14 H 0.755860 0.620398 0.362895
C19_14 C 0.8071(13) 0.5982(4) 0.457(2)
H12_12 H 0.875776 0.577027 0.530376
H13_14 H 0.765075 0.593805 0.492120
H1_16 H 0.018052 0.443479 0.092283
C5_16 C 0.0190(6) 0.41528(19) 0.1837(12)
H3_16 H 0.070003 0.413349 0.183759
N1_15 N 0.0074(8) 0.3817(2) 0.2968(12)
C9_15 C 0.0707(9) 0.3886(3) 0.3591(12)
C12_15 C 0.1356(9) 0.3773(4) 0.3368(17)
C13_15 C 0.0634(11) 0.4061(3) 0.4297(14)
H5_15 H 0.011810 0.345625 0.417147
H7_15 H 0.137000 0.364624 0.292288
C16_15 C 0.1981(12) 0.3853(4) 0.3823(18)
H8_15 H 0.018516 0.413532 0.442689
C17_15 C 0.1265(10) 0.4118(4) 0.4793(18)
H11_15 H 0.244140 0.379602 0.362895
C19_15 C 0.1929(13) 0.4018(4) 0.457(2)
H12_13 H 0.124224 0.422973 0.530376
H13_15 H 0.234925 0.406195 0.492120
C22_16 C 0.3596(6) 0.72690(19) 0.9510(9)
C23_16 C 0.2448(6) 0.7185(2) 0.9613(10)
N3_16 N 0.3004(4) 0.72170(16) 0.8974(7)
H15_16 H 0.405598 0.730121 0.923248
H16_16 H 0.196242 0.714843 0.944567
C24_16 C 0.2967(5) 0.71876(17) 0.7908(9)
N4_16 N 0.2310(4) 0.72209(15) 0.7542(7)
C25_16 C 0.3602(7) 0.7155(2) 0.7355(11)
C26_16 C 0.2239(5) 0.72129(16) 0.6528(7)
H17_16 H 0.406314 0.714383 0.765581
C27_16 C 0.3519(8) 0.7140(2) 0.6325(12)
N5_16 N 0.1521(4) 0.72499(14) 0.6186(6)
C28_16 C 0.2831(6) 0.7169(2) 0.5938(10)
H18_16 H 0.392274 0.711032 0.591431
C29_16 C 0.1327(6) 0.7300(2) 0.5218(8)
C30_16 C 0.0911(4) 0.72628(16) 0.6712(8)
H19_16 H 0.276482 0.715833 0.525306
H20_14 H 0.163763 0.730318 0.466694
C31_16 C 0.0599(7) 0.7342(2) 0.5235(9)
N6_8 N 0.0342(5) 0.73175(17) 0.6190(7)
H21_16 H 0.089341 0.723509 0.739385
H22_14 H 0.031274 0.738275 0.468504
O6_6 O 0.7002(7) 0.97982(15) 0.0372(7)
H4_16 H 0.622196 0.857808 0.020285
N1_16 N 0.7574(8) 0.8683(2) 0.0468(12)
C8_16 C 0.7427(8) 0.8914(2) 0.0261(9)
C9_16 C 0.8207(9) 0.8614(3) 0.1091(12)
C10_16 C 0.7461(8) 0.90885(19) 0.1040(10)
C12_16 C 0.8856(9) 0.8727(4) 0.0868(17)
C13_16 C 0.8134(11) 0.8439(3) 0.1797(14)
C14_16 C 0.7268(6) 0.93175(17) 0.0866(9)
H5_16 H 0.761810 0.904375 0.167147
H7_16 H 0.887000 0.885376 0.042288
C16_16 C 0.9481(12) 0.8647(4) 0.1323(18)
H8_16 H 0.768516 0.836468 0.192689
C17_16 C 0.8765(10) 0.8382(4) 0.2293(18)
H9_16 H 0.729633 0.942703 0.138274
H11_16 H 0.994140 0.870398 0.112895
C19_16 C 0.9429(13) 0.8482(4) 0.207(2)
H12_14 H 0.874224 0.827027 0.280376
H13_16 H 0.984925 0.843805 0.242120
H12_15 H 0.375776 0.577027 0.030376
H12_16 H 0.624224 0.422973 0.030376
H20_15 H 0.836237 0.769682 0.966694
H22_15 H 0.968726 0.761725 0.968504
H20_16 H 0.663763 0.730318 0.966694
H22_16 H 0.531274 0.738275 0.968504
loop_
_geom_bond_atom_site_label_1
_geom_bond_atom_site_label_2
_geom_bond_site_symmetry_1
_geom_bond_site_symmetry_2
O1 C1 1_555 1_555
O2 C20 1_555 1_555
C1 C2 1_555 1_555
C2 C3 1_555 1_555
O3 C1 1_555 1_555
C4 C2 1_555 1_555
C6 C4 1_555 1_555
H2 C4 1_555 1_555
H4 C6 1_555 1_555
C10 C8 1_555 1_555
C11 C8 1_555 1_555
C14 C10 1_555 1_555
C15 C11 1_555 1_555
H6 C11 1_555 1_555
C18 C14 1_555 1_555
H9 C14 1_555 1_555
H10 C15 1_555 1_555
C20 C18 1_555 1_555
O4 C20 1_555 1_555
Co1 O1 1_555 1_555
N2 Co1 1_555 1_555
C21 N2 1_555 1_555
C22 N2 1_555 1_555
N3 C22 1_555 1_555
H15 C22 1_555 1_555
C24 N3 1_555 1_555
Co2 O2 1_555 1_555
N7 Co1 1_555 1_555
O3 Co1 1_555 1_555
C6 C7 1_555 1_555
C15 C18 1_555 1_555
O4 Co2 1_555 1_555
N5 C26 1_555 1_555
C29 N5 1_555 1_555
C30 N5 1_555 1_555
H20 C29 1_555 1_555
C31 C29 1_555 1_555
N6 C30 1_555 1_555
H21 C30 1_555 1_555
H22 C31 1_555 1_555
Co3 N6 1_555 1_555
C31 N6 1_555 1_555
O1_2 C1_2 1_555 1_555
O2_2 C20_2 1_555 1_555
C1_2 C2_2 1_555 1_555
C2_2 C3_2 1_555 1_555
O3_2 C1_2 1_555 1_555
C3_2 H1 1_555 1_555
C4_2 C2_2 1_555 1_555
C5 C3_2 1_555 1_555
C6_2 C4_2 1_555 1_555
H2_2 C4_2 1_555 1_555
C7_2 C5 1_555 1_555
H3 C5 1_555 1_555
C15_2 C11_2 1_555 1_555
H6_2 C11_2 1_555 1_555
H10_2 C15_2 1_555 1_555
C20_2 C18_2 1_555 1_555
Co2 O1_2 1_555 1_555
N2_2 Co2 1_555 1_555
C21_2 N2_2 1_555 1_555
C22_2 N2_2 1_555 1_555
C23 C21_2 1_555 1_555
H14 C21_2 1_555 1_555
N3_2 C22_2 1_555 1_555
H15_2 C22_2 1_555 1_555
H16 C23 1_555 1_555
C24_2 N3_2 1_555 1_555
N4 C24_2 1_555 1_555
C25 C24_2 1_555 1_555
C26_2 N4 1_555 1_555
H17_2 C25 1_555 1_555
C27 C25 1_555 1_555
N5_2 C26_2 1_555 1_555
C28 C26_2 1_555 1_555
H18 C27 1_555 1_555
C29_2 N5_2 1_555 1_555
C30_2 N5_2 1_555 1_555
H19 C28 1_555 1_555
C31_2 C29_2 1_555 1_555
N6_2 C30_2 1_555 1_555
H21_2 C30_2 1_555 1_555
Co2_2 O2_2 1_555 1_555
Co3_2 N6_2 1_555 1_555
O3_2 Co2 1_555 1_555
C6_2 C7_2 1_555 1_555
C15_2 C18_2 1_555 1_555
C23 N3_2 1_555 1_555
C27 C28 1_555 1_555
C31_2 N6_2 1_555 1_555
N2_3 Co2_2 1_555 1_555
C21_3 N2_3 1_555 1_555
C22_3 N2_3 1_555 1_555
N3_3 C22_3 1_555 1_555
H15_3 C22_3 1_555 1_555
C24_3 N3_3 1_555 1_555
C25_2 C24_3 1_555 1_555
H17_3 C25_2 1_555 1_555
C27_2 C25_2 1_555 1_555
H18_2 C27_2 1_555 1_555
H19_2 C28_2 1_555 1_555
N7_2 Co2_2 1_555 1_555
C27_2 C28_2 1_555 1_555
H16_2 C23_2 1_555 1_555
C26_3 N4_2 1_555 1_555
N5_3 C26_3 1_555 1_555
C29_3 N5_3 1_555 1_555
C30_3 N5_3 1_555 1_555
H20_2 C29_3 1_555 1_555
C31_3 C29_3 1_555 1_555
N6_3 C30_3 1_555 1_555
H21_3 C30_3 1_555 1_555
H22_2 C31_3 1_555 1_555
Co3_3 N6_3 1_555 1_555
C31_3 N6_3 1_555 1_555
N3_4 C22_4 1_555 1_555
H15_4 C22_4 1_555 1_555
H16_3 C23_3 1_555 1_555
C24_4 N3_4 1_555 1_555
N4_3 C24_4 1_555 1_555
C25_3 C24_4 1_555 1_555
C26_4 N4_3 1_555 1_555
H17_4 C25_3 1_555 1_555
C27_3 C25_3 1_555 1_555
N5_4 C26_4 1_555 1_555
C28_3 C26_4 1_555 1_555
H18_3 C27_3 1_555 1_555
C29_4 N5_4 1_555 1_555
C30_4 N5_4 1_555 1_555
H19_3 C28_3 1_555 1_555
H20_3 C29_4 1_555 1_555
C31_4 C29_4 1_555 1_555
N6_4 C30_4 1_555 1_555
H21_4 C30_4 1_555 1_555
H22_3 C31_4 1_555 1_555
Co3_4 N6_4 1_555 1_555
C23_3 N3_4 1_555 1_555
C27_3 C28_3 1_555 1_555
C31_4 N6_4 1_555 1_555
O1_3 C1_3 1_555 1_555
O2_3 C20_3 1_555 1_555
C1_3 C2_3 1_555 1_555
C2_3 C3_3 1_555 1_555
O3_3 C1_3 1_555 1_555
C3_3 H1_2 1_555 1_555
C4_3 C2_3 1_555 1_555
C5_2 C3_3 1_555 1_555
C6_3 C4_3 1_555 1_555
H2_3 C4_3 1_555 1_555
C7_3 C5_2 1_555 1_555
H3_2 C5_2 1_555 1_555
H4_2 C6_3 1_555 1_555
N1 C7_3 1_555 1_555
C8_2 N1 1_555 1_555
C9 N1 1_555 1_555
C10_2 C8_2 1_555 1_555
C11_3 C8_2 1_555 1_555
C12 C9 1_555 1_555
C13 C9 1_555 1_555
C14_2 C10_2 1_555 1_555
H5 C10_2 1_555 1_555
C15_3 C11_3 1_555 1_555
H6_3 C11_3 1_555 1_555
H7 C12 1_555 1_555
C16 C12 1_555 1_555
H8 C13 1_555 1_555
C17 C13 1_555 1_555
C18_3 C14_2 1_555 1_555
H9_2 C14_2 1_555 1_555
H10_3 C15_3 1_555 1_555
H11 C16 1_555 1_555
C19 C16 1_555 1_555
H12 C17 1_555 1_555
C20_3 C18_3 1_555 1_555
H13 C19 1_555 1_555
O4_2 C20_3 1_555 1_555
Co3_2 O2_3 1_555 1_555
C6_3 C7_3 1_555 1_555
C15_3 C18_3 1_555 1_555
C17 C19 1_555 1_555
O4_2 Co3_2 1_555 1_555
N2_4 Co3 1_555 1_555
C21_4 N2_4 1_555 1_555
C22_5 N2_4 1_555 1_555
C23_4 C21_4 1_555 1_555
H14_3 C21_4 1_555 1_555
N3_5 C22_5 1_555 1_555
H15_5 C22_5 1_555 1_555
H16_4 C23_4 1_555 1_555
C24_5 N3_5 1_555 1_555
N4_4 C24_5 1_555 1_555
C25_4 C24_5 1_555 1_555
C26_5 N4_4 1_555 1_555
H17_5 C25_4 1_555 1_555
C27_4 C25_4 1_555 1_555
N5_5 C26_5 1_555 1_555
C28_4 C26_5 1_555 1_555
H18_4 C27_4 1_555 1_555
C29_5 N5_5 1_555 1_555
C30_5 N5_5 1_555 1_555
H19_4 C28_4 1_555 1_555
H20_4 C29_5 1_555 1_555
C31_5 C29_5 1_555 1_555
N7 C30_5 1_555 1_555
H21_5 C30_5 1_555 1_555
H22_4 C31_5 1_555 1_555
C23_4 N3_5 1_555 1_555
C27_4 C28_4 1_555 1_555
C31_5 N7 1_555 1_555
O1_4 C1_4 1_555 1_555
O2_4 C20_4 1_555 1_555
C1_4 C2_4 1_555 1_555
C2_4 C3_4 1_555 1_555
O3_4 C1_4 1_555 1_555
C3_4 H1_3 1_555 1_555
C4_4 C2_4 1_555 1_555
C5_3 C3_4 1_555 1_555
C6_4 C4_4 1_555 1_555
H2_4 C4_4 1_555 1_555
C7_4 C5_3 1_555 1_555
H3_3 C5_3 1_555 1_555
H4_3 C6_4 1_555 1_555
N1_2 C7_4 1_555 1_555
C8_3 N1_2 1_555 1_555
C9_2 N1_2 1_555 1_555
C10_3 C8_3 1_555 1_555
C11_4 C8_3 1_555 1_555
C12_2 C9_2 1_555 1_555
C13_2 C9_2 1_555 1_555
C14_3 C10_3 1_555 1_555
H5_2 C10_3 1_555 1_555
C15_4 C11_4 1_555 1_555
H6_4 C11_4 1_555 1_555
H7_2 C12_2 1_555 1_555
C16_2 C12_2 1_555 1_555
H8_2 C13_2 1_555 1_555
C17_2 C13_2 1_555 1_555
C18_4 C14_3 1_555 1_555
H9_3 C14_3 1_555 1_555
H10_4 C15_4 1_555 1_555
H11_2 C16_2 1_555 1_555
C19_2 C16_2 1_555 1_555
H12_2 C17_2 1_555 1_555
C20_4 C18_4 1_555 1_555
H13_2 C19_2 1_555 1_555
O4_3 C20_4 1_555 1_555
Co3_2 O1_4 1_555 1_555
N2_5 Co3_2 1_555 1_555
C21_5 N2_5 1_555 1_555
H14_4 C21_5 1_555 1_555
Co3_3 O2_4 1_555 1_555
O3_4 Co3_2 1_555 1_555
C6_4 C7_4 1_555 1_555
C15_4 C18_4 1_555 1_555
C17_2 C19_2 1_555 1_555
O4_3 Co3_3 1_555 1_555
O1_5 C1_5 1_555 1_555
O2_5 C20_5 1_555 1_555
C1_5 C2_5 1_555 1_555
C2_5 C3_5 1_555 1_555
O3_5 C1_5 1_555 1_555
C3_5 H1_4 1_555 1_555
C4_5 C2_5 1_555 1_555
C5_4 C3_5 1_555 1_555
C6_5 C4_5 1_555 1_555
H2_5 C4_5 1_555 1_555
C7_5 C5_4 1_555 1_555
H3_4 C5_4 1_555 1_555
H4_4 C6_5 1_555 1_555
N1_3 C7_5 1_555 1_555
C8_4 N1_3 1_555 1_555
C9_3 N1_3 1_555 1_555
C10_4 C8_4 1_555 1_555
C11_5 C8_4 1_555 1_555
C12_3 C9_3 1_555 1_555
C13_3 C9_3 1_555 1_555
C14_4 C10_4 1_555 1_555
H5_3 C10_4 1_555 1_555
C15_5 C11_5 1_555 1_555
H6_5 C11_5 1_555 1_555
H7_3 C12_3 1_555 1_555
C16_3 C12_3 1_555 1_555
H8_3 C13_3 1_555 1_555
C17_3 C13_3 1_555 1_555
C18_5 C14_4 1_555 1_555
H9_4 C14_4 1_555 1_555
H10_5 C15_5 1_555 1_555
H11_3 C16_3 1_555 1_555
C19_3 C16_3 1_555 1_555
C20_5 C18_5 1_555 1_555
H13_3 C19_3 1_555 1_555
O4_4 C20_5 1_555 1_555
Co3_3 O1_5 1_555 1_555
N2_6 Co3_3 1_555 1_555
C21_6 N2_6 1_555 1_555
C22_6 N2_6 1_555 1_555
C23_5 C21_6 1_555 1_555
H14_5 C21_6 1_555 1_555
N3_6 C22_6 1_555 1_555
H15_6 C22_6 1_555 1_555
H16_5 C23_5 1_555 1_555
C24_6 N3_6 1_555 1_555
N4_5 C24_6 1_555 1_555
Co3_4 O2_5 1_555 1_555
O3_5 Co3_3 1_555 1_555
C6_5 C7_5 1_555 1_555
C15_5 C18_5 1_555 1_555
C17_3 C19_3 1_555 1_555
O4_4 Co3_4 1_555 1_555
C23_5 N3_6 1_555 1_555
C27_5 C25_5 1_555 1_555
N5_6 C26_6 1_555 1_555
C28_5 C26_6 1_555 1_555
H18_5 C27_5 1_555 1_555
C29_6 N5_6 1_555 1_555
C30_6 N5_6 1_555 1_555
H19_5 C28_5 1_555 1_555
H20_5 C29_6 1_555 1_555
C31_6 C29_6 1_555 1_555
N7_2 C30_6 1_555 1_555
H21_6 C30_6 1_555 1_555
H22_5 C31_6 1_555 1_555
C27_5 C28_5 1_555 1_555
C31_6 N7_2 1_555 1_555
O1_6 C1_6 1_555 1_555
O5 C20_6 1_555 1_555
C1_6 C2_6 1_555 1_555
C2_6 C3_6 1_555 1_555
O3_6 C1_6 1_555 1_555
C3_6 H1_5 1_555 1_555
C4_6 C2_6 1_555 1_555
C5_5 C3_6 1_555 1_555
C6_6 C4_6 1_555 1_555
H2_6 C4_6 1_555 1_555
C7_6 C5_5 1_555 1_555
H3_5 C5_5 1_555 1_555
C15_6 C11_6 1_555 1_555
H6_6 C11_6 1_555 1_555
H10_6 C15_6 1_555 1_555
C20_6 C18_6 1_555 1_555
Co3_4 O1_6 1_555 1_555
N2_7 Co3_4 1_555 1_555
C21_7 N2_7 1_555 1_555
C22_7 N2_7 1_555 1_555
C23_6 C21_7 1_555 1_555
H14_6 C21_7 1_555 1_555
N3_7 C22_7 1_555 1_555
H15_7 C22_7 1_555 1_555
H16_6 C23_6 1_555 1_555
C24_7 N3_7 1_555 1_555
N4_6 C24_7 1_555 1_555
C25_6 C24_7 1_555 1_555
C26_7 N4_6 1_555 1_555
H17_7 C25_6 1_555 1_555
C27_6 C25_6 1_555 1_555
N5_7 C26_7 1_555 1_555
C28_6 C26_7 1_555 1_555
H18_6 C27_6 1_555 1_555
C29_7 N5_7 1_555 1_555
C30_7 N5_7 1_555 1_555
H19_6 C28_6 1_555 1_555
C31_7 C29_7 1_555 1_555
N7_3 C30_7 1_555 1_555
H21_7 C30_7 1_555 1_555
O3_6 Co3_4 1_555 1_555
C6_6 C7_6 1_555 1_555
C15_6 C18_6 1_555 1_555
C23_6 N3_7 1_555 1_555
C27_6 C28_6 1_555 1_555
C31_7 N7_3 1_555 1_555
C27_7 C25_7 1_555 1_555
H18_7 C27_7 1_555 1_555
H19_7 C28_7 1_555 1_555
C27_7 C28_7 1_555 1_555
C8_5 N1_4 1_555 1_555
C9_4 N1_4 1_555 1_555
C10_5 C8_5 1_555 1_555
C12_4 C9_4 1_555 1_555
C13_4 C9_4 1_555 1_555
C14_5 C10_5 1_555 1_555
H5_4 C10_5 1_555 1_555
H7_4 C12_4 1_555 1_555
C16_4 C12_4 1_555 1_555
H8_4 C13_4 1_555 1_555
C17_4 C13_4 1_555 1_555
H9_5 C14_5 1_555 1_555
H11_4 C16_4 1_555 1_555
C19_4 C16_4 1_555 1_555
H12_3 C17_4 1_555 1_555
H13_4 C19_4 1_555 1_555
C17_4 C19_4 1_555 1_555
O1_7 C1_7 1_555 1_555
O2_6 C20_7 1_555 1_555
C1_7 C2_7 1_555 1_555
C2_7 C3_7 1_555 1_555
O3_7 C1_7 1_555 1_555
C4_7 C2_7 1_555 1_555
C6_7 C4_7 1_555 1_555
H2_7 C4_7 1_555 1_555
H4_6 C6_7 1_555 1_555
C10_6 C8_6 1_555 1_555
C11_7 C8_6 1_555 1_555
C14_6 C10_6 1_555 1_555
C15_7 C11_7 1_555 1_555
H6_7 C11_7 1_555 1_555
C18_7 C14_6 1_555 1_555
H9_6 C14_6 1_555 1_555
H10_7 C15_7 1_555 1_555
C20_7 C18_7 1_555 1_555
O4_6 C20_7 1_555 1_555
Co2_3 O2_6 1_555 1_555
C6_7 C7_7 1_555 1_555
C15_7 C18_7 1_555 1_555
O4_6 Co2_3 1_555 1_555
O1_8 C1_8 1_555 1_555
O5_2 C20_8 1_555 1_555
C1_8 C2_8 1_555 1_555
C2_8 C3_8 1_555 1_555
O3_8 C1_8 1_555 1_555
C3_8 H1_6 1_555 1_555
C4_8 C2_8 1_555 1_555
C5_6 C3_8 1_555 1_555
C6_8 C4_8 1_555 1_555
H2_8 C4_8 1_555 1_555
C7_8 C5_6 1_555 1_555
H3_6 C5_6 1_555 1_555
H4_7 C6_8 1_555 1_555
N1_5 C7_8 1_555 1_555
C8_7 N1_5 1_555 1_555
C9_5 N1_5 1_555 1_555
C10_7 C8_7 1_555 1_555
C11_8 C8_7 1_555 1_555
C12_5 C9_5 1_555 1_555
C13_5 C9_5 1_555 1_555
C14_7 C10_7 1_555 1_555
H5_5 C10_7 1_555 1_555
C15_8 C11_8 1_555 1_555
H6_8 C11_8 1_555 1_555
H7_5 C12_5 1_555 1_555
C16_5 C12_5 1_555 1_555
H8_5 C13_5 1_555 1_555
C17_5 C13_5 1_555 1_555
C18_8 C14_7 1_555 1_555
H9_7 C14_7 1_555 1_555
H10_8 C15_8 1_555 1_555
H11_5 C16_5 1_555 1_555
C19_5 C16_5 1_555 1_555
H12_4 C17_5 1_555 1_555
C20_8 C18_8 1_555 1_555
H13_5 C19_5 1_555 1_555
O6 C20_8 1_555 1_555
Co2_3 O1_8 1_555 1_555
N2_8 Co2_3 1_555 1_555
C21_8 N2_8 1_555 1_555
H14_7 C21_8 1_555 1_555
O3_8 Co2_3 1_555 1_555
C6_8 C7_8 1_555 1_555
C15_8 C18_8 1_555 1_555
C17_5 C19_5 1_555 1_555
H3_7 C5_7 1_555 1_555
C9_6 N1_6 1_555 1_555
C12_6 C9_6 1_555 1_555
C13_6 C9_6 1_555 1_555
H7_6 C12_6 1_555 1_555
C16_6 C12_6 1_555 1_555
H8_6 C13_6 1_555 1_555
C17_6 C13_6 1_555 1_555
H11_6 C16_6 1_555 1_555
C19_6 C16_6 1_555 1_555
H13_6 C19_6 1_555 1_555
H16_7 C23_7 1_555 1_555
C17_6 C19_6 1_555 1_555
H3_8 C5_8 1_555 1_555
C9_7 N1_7 1_555 1_555
C12_7 C9_7 1_555 1_555
C13_7 C9_7 1_555 1_555
H7_7 C12_7 1_555 1_555
C16_7 C12_7 1_555 1_555
H8_7 C13_7 1_555 1_555
C17_7 C13_7 1_555 1_555
H11_7 C16_7 1_555 1_555
C19_7 C16_7 1_555 1_555
H13_7 C19_7 1_555 1_555
H16_8 C23_8 1_555 1_555
C17_7 C19_7 1_555 1_555
N5_8 C26_8 1_555 1_555
C29_8 N5_8 1_555 1_555
C30_8 N5_8 1_555 1_555
H20_6 C29_8 1_555 1_555
C31_8 C29_8 1_555 1_555
N6_5 C30_8 1_555 1_555
H21_8 C30_8 1_555 1_555
H22_6 C31_8 1_555 1_555
Co3_5 N6_5 1_555 1_555
C31_8 N6_5 1_555 1_555
O1_9 C1_9 1_555 1_555
O2_7 C20_9 1_555 1_555
C1_9 C2_9 1_555 1_555
C2_9 C3_9 1_555 1_555
O3_9 C1_9 1_555 1_555
C4_9 C2_9 1_555 1_555
C6_9 C4_9 1_555 1_555
H2_9 C4_9 1_555 1_555
H4_8 C6_9 1_555 1_555
C10_8 C8_8 1_555 1_555
C11_9 C8_8 1_555 1_555
C14_8 C10_8 1_555 1_555
C15_9 C11_9 1_555 1_555
H6_9 C11_9 1_555 1_555
C18_9 C14_8 1_555 1_555
H9_8 C14_8 1_555 1_555
H10_9 C15_9 1_555 1_555
C20_9 C18_9 1_555 1_555
O4_7 C20_9 1_555 1_555
Co1_2 O1_9 1_555 1_555
N2_9 Co1_2 1_555 1_555
C21_9 N2_9 1_555 1_555
C22_8 N2_9 1_555 1_555
N3_8 C22_8 1_555 1_555
H15_8 C22_8 1_555 1_555
C24_8 N3_8 1_555 1_555
Co2_4 O2_7 1_555 1_555
N7_4 Co1_2 1_555 1_555
O3_9 Co1_2 1_555 1_555
C6_9 C7_9 1_555 1_555
C15_9 C18_9 1_555 1_555
O4_7 Co2_4 1_555 1_555
O1_10 C1_10 1_555 1_555
O2_8 C20_10 1_555 1_555
C1_10 C2_10 1_555 1_555
C2_10 C3_10 1_555 1_555
O3_10 C1_10 1_555 1_555
C3_10 H1_9 1_555 1_555
C4_10 C2_10 1_555 1_555
C5_9 C3_10 1_555 1_555
C6_10 C4_10 1_555 1_555
H2_10 C4_10 1_555 1_555
C7_10 C5_9 1_555 1_555
H3_9 C5_9 1_555 1_555
C15_10 C11_10 1_555 1_555
H6_10 C11_10 1_555 1_555
H10_10 C15_10 1_555 1_555
C20_10 C18_10 1_555 1_555
Co1_3 O1_10 1_555 1_555
N2_10 Co1_3 1_555 1_555
C21_10 N2_10 1_555 1_555
C22_9 N2_10 1_555 1_555
C23_9 C21_10 1_555 1_555
H14_10 C21_10 1_555 1_555
N3_9 C22_9 1_555 1_555
H15_9 C22_9 1_555 1_555
H16_9 C23_9 1_555 1_555
C24_9 N3_9 1_555 1_555
N4_9 C24_9 1_555 1_555
C25_8 C24_9 1_555 1_555
C26_9 N4_9 1_555 1_555
H17_9 C25_8 1_555 1_555
C27_8 C25_8 1_555 1_555
N5_9 C26_9 1_555 1_555
C28_8 C26_9 1_555 1_555
H18_8 C27_8 1_555 1_555
C29_9 N5_9 1_555 1_555
C30_9 N5_9 1_555 1_555
H19_8 C28_8 1_555 1_555
C31_9 C29_9 1_555 1_555
N6_6 C30_9 1_555 1_555
H21_9 C30_9 1_555 1_555
O5_3 Co1_3 1_555 1_555
O6_2 Co1_3 1_555 1_555
N7_5 Co1_3 1_555 1_555
O3_10 Co1_3 1_555 1_555
C6_10 C7_10 1_555 1_555
C15_10 C18_10 1_555 1_555
C23_9 N3_9 1_555 1_555
C27_8 C28_8 1_555 1_555
C31_9 N6_6 1_555 1_555
H16_10 C23_10 1_555 1_555
C26_10 N4_10 1_555 1_555
N5_10 C26_10 1_555 1_555
C29_10 N5_10 1_555 1_555
C30_10 N5_10 1_555 1_555
H20_7 C29_10 1_555 1_555
C31_10 C29_10 1_555 1_555
N6_7 C30_10 1_555 1_555
H21_10 C30_10 1_555 1_555
H22_7 C31_10 1_555 1_555
Co3_6 N6_7 1_555 1_555
C31_10 N6_7 1_555 1_555
N2_11 Co1_4 1_555 1_555
C21_11 N2_11 1_555 1_555
C22_10 N2_11 1_555 1_555
N3_10 C22_10 1_555 1_555
H15_10 C22_10 1_555 1_555
C24_10 N3_10 1_555 1_555
C25_9 C24_10 1_555 1_555
H17_10 C25_9 1_555 1_555
C27_9 C25_9 1_555 1_555
H18_9 C27_9 1_555 1_555
H19_9 C28_9 1_555 1_555
O5_4 Co1_4 1_555 1_555
N7_6 Co1_4 1_555 1_555
C27_9 C28_9 1_555 1_555
O1_11 C1_11 1_555 1_555
O2_9 C20_11 1_555 1_555
C1_11 C2_11 1_555 1_555
C2_11 C3_11 1_555 1_555
O3_11 C1_11 1_555 1_555
C3_11 H1_10 1_555 1_555
C4_11 C2_11 1_555 1_555
C5_10 C3_11 1_555 1_555
C6_11 C4_11 1_555 1_555
H2_11 C4_11 1_555 1_555
C7_11 C5_10 1_555 1_555
H3_10 C5_10 1_555 1_555
H4_9 C6_11 1_555 1_555
N1_8 C7_11 1_555 1_555
C8_9 N1_8 1_555 1_555
C9_8 N1_8 1_555 1_555
C10_9 C8_9 1_555 1_555
C11_11 C8_9 1_555 1_555
C12_8 C9_8 1_555 1_555
C13_8 C9_8 1_555 1_555
C14_9 C10_9 1_555 1_555
H5_8 C10_9 1_555 1_555
C15_11 C11_11 1_555 1_555
H6_11 C11_11 1_555 1_555
H7_8 C12_8 1_555 1_555
C16_8 C12_8 1_555 1_555
H8_8 C13_8 1_555 1_555
C17_8 C13_8 1_555 1_555
C18_11 C14_9 1_555 1_555
H9_9 C14_9 1_555 1_555
H10_11 C15_11 1_555 1_555
H11_8 C16_8 1_555 1_555
C19_8 C16_8 1_555 1_555
H12_7 C17_8 1_555 1_555
C20_11 C18_11 1_555 1_555
H13_8 C19_8 1_555 1_555
O4_8 C20_11 1_555 1_555
Co1_5 O1_11 1_555 1_555
N2_12 Co1_5 1_555 1_555
C21_12 N2_12 1_555 1_555
H14_12 C21_12 1_555 1_555
O5_5 Co1_5 1_555 1_555
O6_3 Co1_5 1_555 1_555
Co3_6 O2_9 1_555 1_555
N7_7 Co1_5 1_555 1_555
O3_11 Co1_5 1_555 1_555
C6_11 C7_11 1_555 1_555
C15_11 C18_11 1_555 1_555
C17_8 C19_8 1_555 1_555
O4_8 Co3_6 1_555 1_555
O1_12 C1_12 1_555 1_555
O5_5 C20_12 1_555 1_555
C1_12 C2_12 1_555 1_555
C2_12 C3_12 1_555 1_555
O3_12 C1_12 1_555 1_555
C3_12 H1_11 1_555 1_555
C4_12 C2_12 1_555 1_555
C5_11 C3_12 1_555 1_555
C6_12 C4_12 1_555 1_555
H2_12 C4_12 1_555 1_555
C7_12 C5_11 1_555 1_555
H3_11 C5_11 1_555 1_555
H4_10 C6_12 1_555 1_555
N1_9 C7_12 1_555 1_555
C8_10 N1_9 1_555 1_555
C9_9 N1_9 1_555 1_555
C10_10 C8_10 1_555 1_555
C11_12 C8_10 1_555 1_555
C12_9 C9_9 1_555 1_555
C13_9 C9_9 1_555 1_555
C14_10 C10_10 1_555 1_555
H5_9 C10_10 1_555 1_555
C15_12 C11_12 1_555 1_555
H6_12 C11_12 1_555 1_555
H7_9 C12_9 1_555 1_555
C16_9 C12_9 1_555 1_555
H8_9 C13_9 1_555 1_555
C17_9 C13_9 1_555 1_555
C18_12 C14_10 1_555 1_555
H9_10 C14_10 1_555 1_555
H10_12 C15_12 1_555 1_555
H11_9 C16_9 1_555 1_555
C19_9 C16_9 1_555 1_555
H12_8 C17_9 1_555 1_555
C20_12 C18_12 1_555 1_555
H13_9 C19_9 1_555 1_555
O6_3 C20_12 1_555 1_555
C6_12 C7_12 1_555 1_555
C15_12 C18_12 1_555 1_555
C17_9 C19_9 1_555 1_555
N2_13 Co3_5 1_555 1_555
C21_13 N2_13 1_555 1_555
C22_11 N2_13 1_555 1_555
C23_11 C21_13 1_555 1_555
H14_13 C21_13 1_555 1_555
N3_11 C22_11 1_555 1_555
H15_11 C22_11 1_555 1_555
H16_11 C23_11 1_555 1_555
C24_11 N3_11 1_555 1_555
N4_11 C24_11 1_555 1_555
C25_10 C24_11 1_555 1_555
C26_11 N4_11 1_555 1_555
H17_11 C25_10 1_555 1_555
C27_10 C25_10 1_555 1_555
N5_11 C26_11 1_555 1_555
C28_10 C26_11 1_555 1_555
H18_10 C27_10 1_555 1_555
C29_11 N5_11 1_555 1_555
C30_11 N5_11 1_555 1_555
H19_10 C28_10 1_555 1_555
H20_8 C29_11 1_555 1_555
C31_11 C29_11 1_555 1_555
N7_4 C30_11 1_555 1_555
H21_11 C30_11 1_555 1_555
H22_8 C31_11 1_555 1_555
C23_11 N3_11 1_555 1_555
C27_10 C28_10 1_555 1_555
C31_11 N7_4 1_555 1_555
N3_12 C22_12 1_555 1_555
H15_12 C22_12 1_555 1_555
H16_12 C23_12 1_555 1_555
C24_12 N3_12 1_555 1_555
N4_12 C24_12 1_555 1_555
C25_11 C24_12 1_555 1_555
C26_12 N4_12 1_555 1_555
H17_12 C25_11 1_555 1_555
C27_11 C25_11 1_555 1_555
N5_12 C26_12 1_555 1_555
C28_11 C26_12 1_555 1_555
H18_11 C27_11 1_555 1_555
C29_12 N5_12 1_555 1_555
C30_12 N5_12 1_555 1_555
H19_11 C28_11 1_555 1_555
H20_9 C29_12 1_555 1_555
C31_12 C29_12 1_555 1_555
N7_5 C30_12 1_555 1_555
H21_12 C30_12 1_555 1_555
H22_9 C31_12 1_555 1_555
C23_12 N3_12 1_555 1_555
C27_11 C28_11 1_555 1_555
C31_12 N7_5 1_555 1_555
O1_13 C1_13 1_555 1_555
O5_3 C20_13 1_555 1_555
C1_13 C2_13 1_555 1_555
C2_13 C3_13 1_555 1_555
O3_13 C1_13 1_555 1_555
C3_13 H1_12 1_555 1_555
C4_13 C2_13 1_555 1_555
C5_12 C3_13 1_555 1_555
C6_13 C4_13 1_555 1_555
H2_13 C4_13 1_555 1_555
C7_13 C5_12 1_555 1_555
H3_12 C5_12 1_555 1_555
H4_11 C6_13 1_555 1_555
N1_10 C7_13 1_555 1_555
C8_11 N1_10 1_555 1_555
C9_10 N1_10 1_555 1_555
C10_11 C8_11 1_555 1_555
C11_13 C8_11 1_555 1_555
C12_10 C9_10 1_555 1_555
C13_10 C9_10 1_555 1_555
C14_11 C10_11 1_555 1_555
H5_10 C10_11 1_555 1_555
C15_13 C11_13 1_555 1_555
H6_13 C11_13 1_555 1_555
H7_10 C12_10 1_555 1_555
C16_10 C12_10 1_555 1_555
H8_10 C13_10 1_555 1_555
C17_10 C13_10 1_555 1_555
C18_13 C14_11 1_555 1_555
H9_11 C14_11 1_555 1_555
H10_13 C15_13 1_555 1_555
H11_10 C16_10 1_555 1_555
C19_10 C16_10 1_555 1_555
C20_13 C18_13 1_555 1_555
H13_10 C19_10 1_555 1_555
O6_2 C20_13 1_555 1_555
Co3_6 O1_13 1_555 1_555
N2_14 Co3_6 1_555 1_555
C21_14 N2_14 1_555 1_555
C22_13 N2_14 1_555 1_555
C23_13 C21_14 1_555 1_555
H14_14 C21_14 1_555 1_555
N3_13 C22_13 1_555 1_555
H15_13 C22_13 1_555 1_555
H16_13 C23_13 1_555 1_555
C24_13 N3_13 1_555 1_555
N4_13 C24_13 1_555 1_555
O3_13 Co3_6 1_555 1_555
C6_13 C7_13 1_555 1_555
C15_13 C18_13 1_555 1_555
C17_10 C19_10 1_555 1_555
C23_13 N3_13 1_555 1_555
C27_12 C25_12 1_555 1_555
N5_13 C26_13 1_555 1_555
C28_12 C26_13 1_555 1_555
H18_12 C27_12 1_555 1_555
C29_13 N5_13 1_555 1_555
C30_13 N5_13 1_555 1_555
H19_12 C28_12 1_555 1_555
H20_10 C29_13 1_555 1_555
C31_13 C29_13 1_555 1_555
N7_6 C30_13 1_555 1_555
H21_13 C30_13 1_555 1_555
H22_10 C31_13 1_555 1_555
C27_12 C28_12 1_555 1_555
C31_13 N7_6 1_555 1_555
O1_14 C1_14 1_555 1_555
O5_4 C20_14 1_555 1_555
C1_14 C2_14 1_555 1_555
C2_14 C3_14 1_555 1_555
O3_14 C1_14 1_555 1_555
C3_14 H1_13 1_555 1_555
C4_14 C2_14 1_555 1_555
C5_13 C3_14 1_555 1_555
C6_14 C4_14 1_555 1_555
H2_14 C4_14 1_555 1_555
C7_14 C5_13 1_555 1_555
H3_13 C5_13 1_555 1_555
C15_14 C11_14 1_555 1_555
H6_14 C11_14 1_555 1_555
H10_14 C15_14 1_555 1_555
C20_14 C18_14 1_555 1_555
Co2_4 O1_14 1_555 1_555
N2_15 Co2_4 1_555 1_555
C21_15 N2_15 1_555 1_555
C22_14 N2_15 1_555 1_555
C23_14 C21_15 1_555 1_555
H14_15 C21_15 1_555 1_555
N3_14 C22_14 1_555 1_555
H15_14 C22_14 1_555 1_555
H16_14 C23_14 1_555 1_555
C24_14 N3_14 1_555 1_555
N4_14 C24_14 1_555 1_555
C25_13 C24_14 1_555 1_555
C26_14 N4_14 1_555 1_555
H17_14 C25_13 1_555 1_555
C27_13 C25_13 1_555 1_555
N5_14 C26_14 1_555 1_555
C28_13 C26_14 1_555 1_555
H18_13 C27_13 1_555 1_555
C29_14 N5_14 1_555 1_555
C30_14 N5_14 1_555 1_555
H19_13 C28_13 1_555 1_555
C31_14 C29_14 1_555 1_555
N7_7 C30_14 1_555 1_555
H21_14 C30_14 1_555 1_555
O3_14 Co2_4 1_555 1_555
C6_14 C7_14 1_555 1_555
C15_14 C18_14 1_555 1_555
C23_14 N3_14 1_555 1_555
C27_13 C28_13 1_555 1_555
C31_14 N7_7 1_555 1_555
O1_15 C1_15 1_555 1_555
O2_10 C20_15 1_555 1_555
C1_15 C2_15 1_555 1_555
C2_15 C3_15 1_555 1_555
O3_15 C1_15 1_555 1_555
C4_15 C2_15 1_555 1_555
C6_15 C4_15 1_555 1_555
H2_15 C4_15 1_555 1_555
H4_12 C6_15 1_555 1_555
C10_12 C8_12 1_555 1_555
C11_15 C8_12 1_555 1_555
C14_12 C10_12 1_555 1_555
C15_15 C11_15 1_555 1_555
H6_15 C11_15 1_555 1_555
C18_15 C14_12 1_555 1_555
H9_12 C14_12 1_555 1_555
H10_15 C15_15 1_555 1_555
C20_15 C18_15 1_555 1_555
O4_9 C20_15 1_555 1_555
Co3_7 O2_10 1_555 1_555
C6_15 C7_15 1_555 1_555
C15_15 C18_15 1_555 1_555
O4_9 Co3_7 1_555 1_555
O1_16 C1_16 1_555 1_555
O5_6 C20_16 1_555 1_555
C1_16 C2_16 1_555 1_555
C2_16 C3_16 1_555 1_555
O3_16 C1_16 1_555 1_555
C3_16 H1_14 1_555 1_555
C4_16 C2_16 1_555 1_555
C5_14 C3_16 1_555 1_555
C6_16 C4_16 1_555 1_555
H2_16 C4_16 1_555 1_555
C7_16 C5_14 1_555 1_555
H3_14 C5_14 1_555 1_555
H4_13 C6_16 1_555 1_555
N1_11 C7_16 1_555 1_555
C8_13 N1_11 1_555 1_555
C9_11 N1_11 1_555 1_555
C10_13 C8_13 1_555 1_555
C11_16 C8_13 1_555 1_555
C12_11 C9_11 1_555 1_555
C13_11 C9_11 1_555 1_555
C14_13 C10_13 1_555 1_555
H5_11 C10_13 1_555 1_555
C15_16 C11_16 1_555 1_555
H6_16 C11_16 1_555 1_555
H7_11 C12_11 1_555 1_555
C16_11 C12_11 1_555 1_555
H8_11 C13_11 1_555 1_555
C17_11 C13_11 1_555 1_555
C18_16 C14_13 1_555 1_555
H9_13 C14_13 1_555 1_555
H10_16 C15_16 1_555 1_555
H11_11 C16_11 1_555 1_555
C19_11 C16_11 1_555 1_555
H12_9 C17_11 1_555 1_555
C20_16 C18_16 1_555 1_555
H13_11 C19_11 1_555 1_555
O6_4 C20_16 1_555 1_555
Co3_7 O1_16 1_555 1_555
N2_16 Co3_7 1_555 1_555
C21_16 N2_16 1_555 1_555
H14_16 C21_16 1_555 1_555
O3_16 Co3_7 1_555 1_555
C6_16 C7_16 1_555 1_555
C15_16 C18_16 1_555 1_555
C17_11 C19_11 1_555 1_555
C8_14 N1_12 1_555 1_555
C9_12 N1_12 1_555 1_555
C10_14 C8_14 1_555 1_555
C12_12 C9_12 1_555 1_555
C13_12 C9_12 1_555 1_555
C14_14 C10_14 1_555 1_555
H5_12 C10_14 1_555 1_555
H7_12 C12_12 1_555 1_555
C16_12 C12_12 1_555 1_555
H8_12 C13_12 1_555 1_555
C17_12 C13_12 1_555 1_555
H9_14 C14_14 1_555 1_555
H11_12 C16_12 1_555 1_555
C19_12 C16_12 1_555 1_555
H12_10 C17_12 1_555 1_555
H13_12 C19_12 1_555 1_555
C17_12 C19_12 1_555 1_555
C27_14 C25_14 1_555 1_555
H18_14 C27_14 1_555 1_555
H19_14 C28_14 1_555 1_555
C27_14 C28_14 1_555 1_555
N3_15 C22_15 1_555 1_555
H15_15 C22_15 1_555 1_555
H16_15 C23_15 1_555 1_555
C24_15 N3_15 1_555 1_555
N4_15 C24_15 1_555 1_555
C25_15 C24_15 1_555 1_555
C26_15 N4_15 1_555 1_555
H17_15 C25_15 1_555 1_555
C27_15 C25_15 1_555 1_555
N5_15 C26_15 1_555 1_555
C28_15 C26_15 1_555 1_555
H18_15 C27_15 1_555 1_555
C29_15 N5_15 1_555 1_555
C30_15 N5_15 1_555 1_555
H19_15 C28_15 1_555 1_555
H20_12 C29_15 1_555 1_555
C31_15 C29_15 1_555 1_555
N7_8 C30_15 1_555 1_555
H21_15 C30_15 1_555 1_555
H22_12 C31_15 1_555 1_555
C23_15 N3_15 1_555 1_555
C27_15 C28_15 1_555 1_555
C31_15 N7_8 1_555 1_555
C8_15 N1_13 1_555 1_555
C9_13 N1_13 1_555 1_555
C10_15 C8_15 1_555 1_555
C12_13 C9_13 1_555 1_555
C13_13 C9_13 1_555 1_555
C14_15 C10_15 1_555 1_555
H5_13 C10_15 1_555 1_555
H7_13 C12_13 1_555 1_555
C16_13 C12_13 1_555 1_555
H8_13 C13_13 1_555 1_555
C17_13 C13_13 1_555 1_555
H9_15 C14_15 1_555 1_555
H11_13 C16_13 1_555 1_555
C19_13 C16_13 1_555 1_555
H12_11 C17_13 1_555 1_555
H13_13 C19_13 1_555 1_555
C17_13 C19_13 1_555 1_555
H3_15 C5_15 1_555 1_555
C9_14 N1_14 1_555 1_555
C12_14 C9_14 1_555 1_555
C13_14 C9_14 1_555 1_555
H7_14 C12_14 1_555 1_555
C16_14 C12_14 1_555 1_555
H8_14 C13_14 1_555 1_555
C17_14 C13_14 1_555 1_555
H11_14 C16_14 1_555 1_555
C19_14 C16_14 1_555 1_555
H12_12 C17_14 1_555 1_555
H13_14 C19_14 1_555 1_555
C17_14 C19_14 1_555 1_555
H3_16 C5_16 1_555 1_555
C9_15 N1_15 1_555 1_555
C12_15 C9_15 1_555 1_555
C13_15 C9_15 1_555 1_555
H7_15 C12_15 1_555 1_555
C16_15 C12_15 1_555 1_555
H8_15 C13_15 1_555 1_555
C17_15 C13_15 1_555 1_555
H11_15 C16_15 1_555 1_555
C19_15 C16_15 1_555 1_555
H12_13 C17_15 1_555 1_555
H13_15 C19_15 1_555 1_555
C17_15 C19_15 1_555 1_555
N3_16 C22_16 1_555 1_555
H15_16 C22_16 1_555 1_555
H16_16 C23_16 1_555 1_555
C24_16 N3_16 1_555 1_555
N4_16 C24_16 1_555 1_555
C25_16 C24_16 1_555 1_555
C26_16 N4_16 1_555 1_555
H17_16 C25_16 1_555 1_555
C27_16 C25_16 1_555 1_555
N5_16 C26_16 1_555 1_555
C28_16 C26_16 1_555 1_555
H18_16 C27_16 1_555 1_555
C29_16 N5_16 1_555 1_555
C30_16 N5_16 1_555 1_555
H19_16 C28_16 1_555 1_555
H20_14 C29_16 1_555 1_555
C31_16 C29_16 1_555 1_555
N6_8 C30_16 1_555 1_555
H21_16 C30_16 1_555 1_555
H22_14 C31_16 1_555 1_555
C23_16 N3_16 1_555 1_555
C27_16 C28_16 1_555 1_555
C31_16 N6_8 1_555 1_555
C8_16 N1_16 1_555 1_555
C9_16 N1_16 1_555 1_555
C10_16 C8_16 1_555 1_555
C12_16 C9_16 1_555 1_555
C13_16 C9_16 1_555 1_555
C14_16 C10_16 1_555 1_555
H5_16 C10_16 1_555 1_555
H7_16 C12_16 1_555 1_555
C16_16 C12_16 1_555 1_555
H8_16 C13_16 1_555 1_555
C17_16 C13_16 1_555 1_555
H9_16 C14_16 1_555 1_555
H11_16 C16_16 1_555 1_555
C19_16 C16_16 1_555 1_555
H12_14 C17_16 1_555 1_555
H13_16 C19_16 1_555 1_555
C17_16 C19_16 1_555 1_555

#END
