
###############################################################################
#
# This file contains modified crystal structure data generated from the
# MOF subset of the Cambridge Structural Database (CSD) v543 
# hosted by the Cambridge Crystallographic Data Centre (CCDC).
#
# This work is licensed under the Creative Commons
# Attribution-NonCommercial-ShareAlike 4.0 International License.
# To view a copy of this license, visit
# http://creativecommons.org/licenses/by-nc-sa/4.0/
# or send a letter to
# Creative Commons, PO Box 1866, Mountain View, CA 94042, USA.
#
# CIF created using the CSD Python API on 29 September 2022
# The structure has been converted into the P1 space group
# The structure has a 3D framework
# The original CSD entry XIZWIP is in the monoclinic crystal system
# The framework has been calculated to contain at least 10.0% void space
# The void calculation uses a probe of radius 1.32A, grid spacing 0.4
#
###############################################################################

data_XIZWIP
_chemical_formula_moiety         '(C216 H168 Cu8 N24 O48)n'
_symmetry_cell_setting           triclinic
_symmetry_space_group_name_H-M   'P 1'
_symmetry_Int_Tables_number      1
_space_group_name_Hall           'P 1'
loop_
_symmetry_equiv_pos_site_id
_symmetry_equiv_pos_as_xyz
1 x,y,z
_cell_length_a                   31.299(3)
_cell_length_b                   11.9822(9)
_cell_length_c                   19.7406(16)
_cell_angle_alpha                90
_cell_angle_beta                 122.8270(13)
_cell_angle_gamma                90
_cell_volume                     6221.11
loop_
_atom_site_label
_atom_site_type_symbol
_atom_site_fract_x
_atom_site_fract_y
_atom_site_fract_z
O3 O 0.23843(6) 0.00146(12) 0.79527(9)
O4 O 0.24786(5) 0.18528(11) 0.80894(8)
O5 O 0.05966(7) 0.5610(2) 0.61991(14)
O6 O 0.14295(8) 0.5699(3) 0.68686(14)
N1 N 0.14726(7) 0.36940(13) 0.52299(11)
C1 C 0.23117(7) 0.02910(15) 0.57506(11)
C2 C 0.21731(7) 0.13252(15) 0.53718(12)
H1 H 0.2112 0.1404 0.4858
C3 C 0.21257(7) 0.22412(15) 0.57578(11)
C4 C 0.22129(8) 0.21120(16) 0.65228(12)
H2 H 0.2193 0.2728 0.6790
C5 C 0.23303(7) 0.10704(15) 0.68920(11)
C6 C 0.23788(7) 0.01578(15) 0.65010(11)
C8 C 0.24055(7) 0.09493(16) 0.77050(11)
C9 C 0.19722(8) 0.33714(15) 0.53558(14)
H4 H 0.2228 0.3921 0.5692
H5 H 0.1943 0.3342 0.4842
C10 C 0.14616(8) 0.43633(16) 0.57671(13)
H6 H 0.1764 0.4656 0.6194
C11 C 0.10121(8) 0.46209(19) 0.56955(14)
C12 C 0.05701(9) 0.4165(2) 0.50500(17)
H7 H 0.0259 0.4324 0.4983
C13 C 0.05895(11) 0.3480(2) 0.4509(2)
H8 H 0.0292 0.3178 0.4077
C14 C 0.10493(10) 0.3246(2) 0.46122(16)
H9 H 0.1066 0.2776 0.4253
C15 C 0.10133(10) 0.5378(2) 0.63132(17)
Cu2 Cu 0.243678(8) 0.160781(17) 0.905055(13)
Cu1 Cu 0.243678(8) 0.839219(17) 0.405055(13)
O1 O 0.23502(5) 0.95013(11) 0.46902(8)
O2 O 0.25364(6) 0.84186(10) 0.57292(10)
N2 N 0.16703(6) 0.82546(13) 0.32917(11)
H3 H 0.2456 0.9458 0.6743
C7 C 0.24023(6) 0.93099(14) 0.53657(11)
C16 C 0.13428(9) 0.9053(2) 0.31912(17)
H10 H 0.1469 0.9690 0.3510
C17 C 0.08292(9) 0.8975(2) 0.2639(2)
H11 H 0.0617 0.9549 0.2601
C18 C 0.06221(9) 0.8064(2) 0.21430(18)
C19 C 0.09631(8) 0.7231(2) 0.22510(15)
H12 H 0.0846 0.6586 0.1940
C20 C 0.14741(8) 0.73618(18) 0.28176(14)
H13 H 0.1694 0.6796 0.2872
C21 C 0.00595(10) 0.8006(3) 0.1519(3)
Cu3 Cu 0.256322(8) 0.660781(17) 0.594945(13)
O7 O 0.24636(6) 0.65814(10) 0.42708(10)
O8 O 0.24786(5) 0.81472(11) 0.30894(8)
N4 N 0.32095(6) 0.83390(12) 0.47860(11)
N3 N 0.82095(6) 0.66610(12) 0.97860(11)
H18 H 0.9139 0.7903 0.9848
C25 C 0.84617(8) 0.7332(2) 0.95750(15)
H19 H 0.8276 0.7744 0.9102
Cu4 Cu 0.743678(8) 0.660781(17) 0.905055(13)
N3_2 N 0.17905(6) 0.66610(12) 0.52140(11)
H14 H 0.0118 0.8365 0.3262
H15 H 0.0009 0.8439 0.3946
C22 C 0.01582(9) 0.6890(3) 0.3762(2)
H16 H 0.0038 0.6413 0.3295
H17 H 0.0032 0.6585 0.4076
C23 C 0.07288(9) 0.6851(2) 0.42623(18)
C24 C 0.10188(9) 0.7436(2) 0.49756(18)
H18_2 H 0.0861 0.7903 0.5152
C25_2 C 0.15383(8) 0.7332(2) 0.54250(15)
H19_2 H 0.1724 0.7744 0.5898
C26 C 0.15121(8) 0.61126(18) 0.45144(13)
H20 H 0.1679 0.5657 0.4347
C27 C 0.09930(8) 0.6193(2) 0.40339(14)
H21 H 0.0817 0.5801 0.3550
O3_2 O 0.76157(6) 0.00146(12) 0.70473(9)
O4_2 O 0.75214(5) 0.18528(11) 0.69106(8)
O5_2 O 0.94034(7) 0.5610(2) 0.88009(14)
O6_2 O 0.85705(8) 0.5699(3) 0.81314(14)
N1_2 N 0.85274(7) 0.36940(13) 0.97701(11)
C1_2 C 0.76883(7) 0.02910(15) 0.92494(11)
C2_2 C 0.78269(7) 0.13252(15) 0.96282(12)
C3_2 C 0.78743(7) 0.22412(15) 0.92422(11)
C4_2 C 0.77871(8) 0.21120(16) 0.84772(12)
H2_2 H 0.7807 0.2728 0.8210
C5_2 C 0.76697(7) 0.10704(15) 0.81080(11)
C6_2 C 0.76212(7) 0.01578(15) 0.84990(11)
C8_2 C 0.75945(7) 0.09493(16) 0.72950(11)
C9_2 C 0.80278(8) 0.33714(15) 0.96442(14)
H4_2 H 0.7772 0.3921 0.9308
C10_2 C 0.85384(8) 0.43633(16) 0.92329(13)
H6_2 H 0.8236 0.4656 0.8806
C11_2 C 0.89879(8) 0.46209(19) 0.93045(14)
C12_2 C 0.94299(9) 0.4165(2) 0.99500(17)
C15_2 C 0.89867(10) 0.5378(2) 0.86868(17)
Cu2_2 Cu 0.756322(8) 0.160781(17) 0.594945(13)
Cu1_2 Cu 0.756322(8) 0.839219(17) 0.094945(13)
O1_2 O 0.76498(5) 0.95013(11) 0.03098(8)
N2_2 N 0.83297(6) 0.82546(13) 0.17083(11)
C16_2 C 0.86572(9) 0.9053(2) 0.18088(17)
H10_2 H 0.8531 0.9690 0.1490
C17_2 C 0.91708(9) 0.8975(2) 0.2361(2)
H11_2 H 0.9383 0.9549 0.2399
C18_2 C 0.93779(9) 0.8064(2) 0.28570(18)
C19_2 C 0.90369(8) 0.7231(2) 0.27490(15)
H12_2 H 0.9154 0.6586 0.3060
C20_2 C 0.85259(8) 0.73618(18) 0.21824(14)
H13_2 H 0.8306 0.6796 0.2128
C21_2 C 0.99405(10) 0.8006(3) 0.3481(3)
O7_2 O 0.75364(6) 0.65814(10) 0.07292(10)
O8_2 O 0.75214(5) 0.81472(11) 0.19106(8)
N4_2 N 0.67905(6) 0.83390(12) 0.02140(11)
O2_2 O 0.74636(6) 0.84186(10) 0.92708(10)
H3_2 H 0.7544 0.9458 0.8257
C7_2 C 0.75977(6) 0.93099(14) 0.96343(11)
Cu1_3 Cu 0.743678(8) 0.339219(17) 0.405055(13)
O1_3 O 0.73502(5) 0.45013(11) 0.46902(8)
O2_3 O 0.75364(6) 0.34186(10) 0.57292(10)
O3_3 O 0.73843(6) 0.50146(12) 0.79527(9)
O4_3 O 0.74786(5) 0.68528(11) 0.80894(8)
N1_3 N 0.64726(7) 0.86940(13) 0.52299(11)
N2_3 N 0.66703(6) 0.32546(13) 0.32917(11)
C1_3 C 0.73117(7) 0.52910(15) 0.57506(11)
C2_3 C 0.71731(7) 0.63252(15) 0.53718(12)
H1_2 H 0.7112 0.6404 0.4858
C3_3 C 0.71257(7) 0.72412(15) 0.57578(11)
C4_3 C 0.72129(8) 0.71120(16) 0.65228(12)
H2_3 H 0.7193 0.7728 0.6790
C5_3 C 0.73303(7) 0.60704(15) 0.68920(11)
C6_3 C 0.73788(7) 0.51578(15) 0.65010(11)
H3_3 H 0.7456 0.4458 0.6743
C7_3 C 0.74023(6) 0.43099(14) 0.53657(11)
C8_3 C 0.74055(7) 0.59493(16) 0.77050(11)
C9_3 C 0.69722(8) 0.83714(15) 0.53558(14)
H4_3 H 0.7228 0.8921 0.5692
H5_2 H 0.6943 0.8342 0.4842
C10_3 C 0.64616(8) 0.93633(16) 0.57671(13)
H6_3 H 0.6764 0.9656 0.6194
C11_3 C 0.60121(8) 0.96209(19) 0.56955(14)
C12_3 C 0.55701(9) 0.9165(2) 0.50500(17)
H7_2 H 0.5259 0.9324 0.4983
C13_2 C 0.55895(11) 0.8480(2) 0.4509(2)
H8_2 H 0.5292 0.8178 0.4077
C14_2 C 0.60493(10) 0.8246(2) 0.46122(16)
H9_2 H 0.6066 0.7776 0.4253
C16_3 C 0.63428(9) 0.4053(2) 0.31912(17)
H10_3 H 0.6469 0.4690 0.3510
C17_3 C 0.58292(9) 0.3975(2) 0.2639(2)
H11_3 H 0.5617 0.4549 0.2601
C18_3 C 0.56221(9) 0.3064(2) 0.21430(18)
C19_3 C 0.59631(8) 0.2231(2) 0.22510(15)
H12_3 H 0.5846 0.1586 0.1940
C20_3 C 0.64741(8) 0.23618(18) 0.28176(14)
H13_3 H 0.6694 0.1796 0.2872
C21_3 C 0.50595(10) 0.3006(3) 0.1519(3)
H14_2 H 0.4882 0.3365 0.1738
H15_2 H 0.4991 0.3439 0.1054
C22_2 C 0.48418(9) 0.1890(3) 0.1238(2)
H16_2 H 0.4962 0.1413 0.1705
H17_2 H 0.4968 0.1585 0.0924
C23_2 C 0.42712(9) 0.1851(2) 0.07377(18)
C24_2 C 0.39812(9) 0.2436(2) 0.00244(18)
C26_2 C 0.34879(8) 0.11126(18) 0.04856(13)
H20_2 H 0.3321 0.0657 0.0653
C27_2 C 0.40070(8) 0.1193(2) 0.09661(14)
H21_2 H 0.4183 0.0801 0.1450
O7_3 O 0.74636(6) 0.15814(10) 0.42708(10)
O8_3 O 0.74786(5) 0.31472(11) 0.30894(8)
N4_3 N 0.82095(6) 0.33390(12) 0.47860(11)
N3_3 N 0.32095(6) 0.16610(12) 0.97860(11)
H18_3 H 0.4139 0.2903 0.9848
C25_3 C 0.34617(8) 0.2332(2) 0.95750(15)
H19_3 H 0.3276 0.2744 0.9102
Cu1_4 Cu 0.256322(8) 0.339219(17) 0.094945(13)
O1_4 O 0.26498(5) 0.45013(11) 0.03098(8)
N2_4 N 0.33297(6) 0.32546(13) 0.17083(11)
N3_4 N 0.67905(6) 0.16610(12) 0.52140(11)
H1_3 H 0.2888 0.6404 0.0142
H5_3 H 0.3057 0.8342 0.0158
H7_3 H 0.4741 0.9324 0.0017
C13_3 C 0.44105(11) 0.8480(2) 0.0491(2)
H8_3 H 0.4708 0.8178 0.0923
C14_3 C 0.39507(10) 0.8246(2) 0.03878(16)
H9_3 H 0.3934 0.7776 0.0747
C16_4 C 0.36572(9) 0.4053(2) 0.18088(17)
H10_4 H 0.3531 0.4690 0.1490
C17_4 C 0.41708(9) 0.3975(2) 0.2361(2)
H11_4 H 0.4383 0.4549 0.2399
C18_4 C 0.43779(9) 0.3064(2) 0.28570(18)
C19_4 C 0.40369(8) 0.2231(2) 0.27490(15)
H12_4 H 0.4154 0.1586 0.3060
C20_4 C 0.35259(8) 0.23618(18) 0.21824(14)
H13_4 H 0.3306 0.1796 0.2128
C21_4 C 0.49405(10) 0.3006(3) 0.3481(3)
H14_3 H 0.5118 0.3365 0.3262
H15_3 H 0.5009 0.3439 0.3946
C22_3 C 0.51582(9) 0.1890(3) 0.3762(2)
H16_3 H 0.5038 0.1413 0.3295
H17_3 H 0.5032 0.1585 0.4076
C23_3 C 0.57288(9) 0.1851(2) 0.42623(18)
C24_3 C 0.60188(9) 0.2436(2) 0.49756(18)
H18_4 H 0.5861 0.2903 0.5152
C25_4 C 0.65383(8) 0.2332(2) 0.54250(15)
H19_4 H 0.6724 0.2744 0.5898
C26_3 C 0.65121(8) 0.11126(18) 0.45144(13)
H20_3 H 0.6679 0.0657 0.4347
C27_3 C 0.59930(8) 0.1193(2) 0.40339(14)
H21_3 H 0.5817 0.0801 0.3550
O7_4 O 0.25364(6) 0.15814(10) 0.07292(10)
O8_4 O 0.25214(5) 0.31472(11) 0.19106(8)
N4_4 N 0.17905(6) 0.33390(12) 0.02140(11)
O2_4 O 0.24636(6) 0.34186(10) 0.92708(10)
O3_4 O 0.26157(6) 0.50146(12) 0.70473(9)
O4_4 O 0.25214(5) 0.68528(11) 0.69106(8)
N1_4 N 0.35274(7) 0.86940(13) 0.97701(11)
C1_4 C 0.26883(7) 0.52910(15) 0.92494(11)
C2_4 C 0.28269(7) 0.63252(15) 0.96282(12)
C3_4 C 0.28743(7) 0.72412(15) 0.92422(11)
C4_4 C 0.27871(8) 0.71120(16) 0.84772(12)
H2_4 H 0.2807 0.7728 0.8210
C5_4 C 0.26697(7) 0.60704(15) 0.81080(11)
C6_4 C 0.26212(7) 0.51578(15) 0.84990(11)
H3_4 H 0.2544 0.4458 0.8257
C7_4 C 0.25977(6) 0.43099(14) 0.96343(11)
C8_4 C 0.25945(7) 0.59493(16) 0.72950(11)
C9_4 C 0.30278(8) 0.83714(15) 0.96442(14)
H4_4 H 0.2772 0.8921 0.9308
C10_4 C 0.35384(8) 0.93633(16) 0.92329(13)
H6_4 H 0.3236 0.9656 0.8806
C11_4 C 0.39879(8) 0.96209(19) 0.93045(14)
C12_4 C 0.44299(9) 0.9165(2) 0.99500(17)
H18_5 H 0.0861 0.2097 0.0152
C25_5 C 0.15383(8) 0.2668(2) 0.04250(15)
H19_5 H 0.1724 0.2256 0.0898
O1_5 O 0.76498(5) 0.04987(11) 0.53098(8)
N2_5 N 0.83297(6) 0.17454(13) 0.67083(11)
H3_5 H 0.7544 0.0542 0.3257
C7_5 C 0.75977(6) 0.06901(14) 0.46343(11)
C16_5 C 0.86572(9) 0.0947(2) 0.68088(17)
H10_5 H 0.8531 0.0310 0.6490
C17_5 C 0.91708(9) 0.1025(2) 0.7361(2)
H11_5 H 0.9383 0.0451 0.7399
C18_5 C 0.93779(9) 0.1936(2) 0.78570(18)
C19_5 C 0.90369(8) 0.2769(2) 0.77490(15)
H12_5 H 0.9154 0.3414 0.8060
C20_5 C 0.85259(8) 0.26382(18) 0.71824(14)
H13_5 H 0.8306 0.3204 0.7128
C21_5 C 0.99405(10) 0.1994(3) 0.8481(3)
O3_5 O 0.76157(6) 0.99854(12) 0.20473(9)
O5_3 O 0.94034(7) 0.4390(2) 0.38009(14)
O6_3 O 0.85705(8) 0.4301(3) 0.31314(14)
N1_5 N 0.85274(7) 0.63060(13) 0.47701(11)
C1_5 C 0.76883(7) 0.97090(15) 0.42494(11)
C2_5 C 0.78269(7) 0.86748(15) 0.46282(12)
H1_4 H 0.7888 0.8596 0.5142
C3_5 C 0.78743(7) 0.77588(15) 0.42422(11)
C4_5 C 0.77871(8) 0.78880(16) 0.34772(12)
H2_5 H 0.7807 0.7272 0.3210
C5_5 C 0.76697(7) 0.89296(15) 0.31080(11)
C6_5 C 0.76212(7) 0.98422(15) 0.34990(11)
C8_5 C 0.75945(7) 0.90507(16) 0.22950(11)
C9_5 C 0.80278(8) 0.66286(15) 0.46442(14)
H4_5 H 0.7772 0.6079 0.4308
H5_4 H 0.8057 0.6658 0.5158
C10_5 C 0.85384(8) 0.56367(16) 0.42329(13)
H6_5 H 0.8236 0.5344 0.3806
C11_5 C 0.89879(8) 0.53791(19) 0.43045(14)
C12_5 C 0.94299(9) 0.5835(2) 0.49500(17)
H7_4 H 0.9741 0.5676 0.5017
C13_4 C 0.94105(11) 0.6520(2) 0.5491(2)
H8_4 H 0.9708 0.6822 0.5923
C14_4 C 0.89507(10) 0.6754(2) 0.53878(16)
H9_4 H 0.8934 0.7224 0.5747
C15_3 C 0.89867(10) 0.4622(2) 0.36868(17)
H3_6 H 0.2456 0.0542 0.1743
C7_6 C 0.24023(6) 0.06901(14) 0.03657(11)
O1_6 O 0.23502(5) 0.04987(11) 0.96902(8)
N2_6 N 0.16703(6) 0.17454(13) 0.82917(11)
C16_6 C 0.13428(9) 0.0947(2) 0.81912(17)
H10_6 H 0.1469 0.0310 0.8510
C17_6 C 0.08292(9) 0.1025(2) 0.7639(2)
H11_6 H 0.0617 0.0451 0.7601
C18_6 C 0.06221(9) 0.1936(2) 0.71430(18)
C19_6 C 0.09631(8) 0.2769(2) 0.72510(15)
H12_6 H 0.0846 0.3414 0.6940
C20_6 C 0.14741(8) 0.26382(18) 0.78176(14)
H13_6 H 0.1694 0.3204 0.7872
C21_6 C 0.00595(10) 0.1994(3) 0.6519(3)
O3_6 O 0.23843(6) 0.99854(12) 0.29527(9)
O5_4 O 0.05966(7) 0.4390(2) 0.11991(14)
O6_4 O 0.14295(8) 0.4301(3) 0.18686(14)
N1_6 N 0.14726(7) 0.63060(13) 0.02299(11)
C1_6 C 0.23117(7) 0.97090(15) 0.07506(11)
C2_6 C 0.21731(7) 0.86748(15) 0.03718(12)
C3_6 C 0.21257(7) 0.77588(15) 0.07578(11)
C4_6 C 0.22129(8) 0.78880(16) 0.15228(12)
H2_6 H 0.2193 0.7272 0.1790
C5_6 C 0.23303(7) 0.89296(15) 0.18920(11)
C6_6 C 0.23788(7) 0.98422(15) 0.15010(11)
C8_6 C 0.24055(7) 0.90507(16) 0.27050(11)
C9_6 C 0.19722(8) 0.66286(15) 0.03558(14)
H4_6 H 0.2228 0.6079 0.0692
C10_6 C 0.14616(8) 0.56367(16) 0.07671(13)
H6_6 H 0.1764 0.5344 0.1194
C11_6 C 0.10121(8) 0.53791(19) 0.06955(14)
C12_6 C 0.05701(9) 0.5835(2) 0.00500(17)
C15_4 C 0.10133(10) 0.4622(2) 0.13132(17)
H14_4 H 0.9882 0.1635 0.6738
H15_4 H 0.9991 0.1561 0.6054
C22_4 C 0.98418(9) 0.3110(3) 0.6238(2)
H16_4 H 0.9962 0.3587 0.6705
H17_4 H 0.9968 0.3415 0.5924
C23_4 C 0.92712(9) 0.3149(2) 0.57377(18)
C24_4 C 0.89812(9) 0.2564(2) 0.50244(18)
H18_6 H 0.9139 0.2097 0.4848
C25_6 C 0.84617(8) 0.2668(2) 0.45750(15)
H19_6 H 0.8276 0.2256 0.4102
C26_4 C 0.84879(8) 0.38874(18) 0.54856(13)
H20_4 H 0.8321 0.4343 0.5653
C27_4 C 0.90070(8) 0.3807(2) 0.59661(14)
H21_4 H 0.9183 0.4199 0.6450
H18_7 H 0.5861 0.7097 0.0152
C25_7 C 0.65383(8) 0.7668(2) 0.04250(15)
H19_7 H 0.6724 0.7256 0.0898
O1_7 O 0.26498(5) 0.54987(11) 0.53098(8)
O3_7 O 0.26157(6) 0.49854(12) 0.20473(9)
N1_7 N 0.35274(7) 0.13060(13) 0.47701(11)
N2_7 N 0.33297(6) 0.67454(13) 0.67083(11)
C1_7 C 0.26883(7) 0.47090(15) 0.42494(11)
C2_7 C 0.28269(7) 0.36748(15) 0.46282(12)
H1_5 H 0.2888 0.3596 0.5142
C3_7 C 0.28743(7) 0.27588(15) 0.42422(11)
C4_7 C 0.27871(8) 0.28880(16) 0.34772(12)
H2_7 H 0.2807 0.2272 0.3210
C5_7 C 0.26697(7) 0.39296(15) 0.31080(11)
C6_7 C 0.26212(7) 0.48422(15) 0.34990(11)
H3_7 H 0.2544 0.5542 0.3257
C7_7 C 0.25977(6) 0.56901(14) 0.46343(11)
C8_7 C 0.25945(7) 0.40507(16) 0.22950(11)
C9_7 C 0.30278(8) 0.16286(15) 0.46442(14)
H4_7 H 0.2772 0.1079 0.4308
H5_5 H 0.3057 0.1658 0.5158
C10_7 C 0.35384(8) 0.06367(16) 0.42329(13)
H6_7 H 0.3236 0.0344 0.3806
C11_7 C 0.39879(8) 0.03791(19) 0.43045(14)
C12_7 C 0.44299(9) 0.0835(2) 0.49500(17)
H7_5 H 0.4741 0.0676 0.5017
C13_5 C 0.44105(11) 0.1520(2) 0.5491(2)
H8_5 H 0.4708 0.1822 0.5923
C14_5 C 0.39507(10) 0.1754(2) 0.53878(16)
H9_5 H 0.3934 0.2224 0.5747
C16_7 C 0.36572(9) 0.5947(2) 0.68088(17)
H10_7 H 0.3531 0.5310 0.6490
C17_7 C 0.41708(9) 0.6025(2) 0.7361(2)
H11_7 H 0.4383 0.5451 0.7399
C18_7 C 0.43779(9) 0.6936(2) 0.78570(18)
C19_7 C 0.40369(8) 0.7769(2) 0.77490(15)
H12_7 H 0.4154 0.8414 0.8060
C20_7 C 0.35259(8) 0.76382(18) 0.71824(14)
H13_7 H 0.3306 0.8204 0.7128
C21_7 C 0.49405(10) 0.6994(3) 0.8481(3)
H14_5 H 0.5118 0.6635 0.8262
H15_5 H 0.5009 0.6561 0.8946
C22_5 C 0.51582(9) 0.8110(3) 0.8762(2)
H16_5 H 0.5038 0.8587 0.8295
H17_5 H 0.5032 0.8415 0.9076
C23_5 C 0.57288(9) 0.8149(2) 0.92623(18)
C24_5 C 0.60188(9) 0.7564(2) 0.99756(18)
C26_5 C 0.65121(8) 0.88874(18) 0.95144(13)
H20_5 H 0.6679 0.9343 0.9347
C27_5 C 0.59930(8) 0.8807(2) 0.90339(14)
H21_5 H 0.5817 0.9199 0.8550
O3_8 O 0.73843(6) 0.49854(12) 0.29527(9)
N1_8 N 0.64726(7) 0.13060(13) 0.02299(11)
C1_8 C 0.73117(7) 0.47090(15) 0.07506(11)
C2_8 C 0.71731(7) 0.36748(15) 0.03718(12)
C3_8 C 0.71257(7) 0.27588(15) 0.07578(11)
C4_8 C 0.72129(8) 0.28880(16) 0.15228(12)
H2_8 H 0.7193 0.2272 0.1790
C5_8 C 0.73303(7) 0.39296(15) 0.18920(11)
C6_8 C 0.73788(7) 0.48422(15) 0.15010(11)
H3_8 H 0.7456 0.5542 0.1743
C7_8 C 0.74023(6) 0.56901(14) 0.03657(11)
C8_8 C 0.74055(7) 0.40507(16) 0.27050(11)
C9_8 C 0.69722(8) 0.16286(15) 0.03558(14)
H4_8 H 0.7228 0.1079 0.0692
C10_8 C 0.64616(8) 0.06367(16) 0.07671(13)
H6_8 H 0.6764 0.0344 0.1194
C11_8 C 0.60121(8) 0.03791(19) 0.06955(14)
C12_8 C 0.55701(9) 0.0835(2) 0.00500(17)
O1_8 O 0.73502(5) 0.54987(11) 0.96902(8)
N2_8 N 0.66703(6) 0.67454(13) 0.82917(11)
H1_6 H 0.7112 0.3596 0.9858
H5_6 H 0.6943 0.1658 0.9842
H7_6 H 0.5259 0.0676 0.9983
C13_6 C 0.55895(11) 0.1520(2) 0.9509(2)
H8_6 H 0.5292 0.1822 0.9077
C14_6 C 0.60493(10) 0.1754(2) 0.96122(16)
H9_6 H 0.6066 0.2224 0.9253
C16_8 C 0.63428(9) 0.5947(2) 0.81912(17)
H10_8 H 0.6469 0.5310 0.8510
C17_8 C 0.58292(9) 0.6025(2) 0.7639(2)
H11_8 H 0.5617 0.5451 0.7601
C18_8 C 0.56221(9) 0.6936(2) 0.71430(18)
C19_8 C 0.59631(8) 0.7769(2) 0.72510(15)
H12_8 H 0.5846 0.8414 0.6940
C20_8 C 0.64741(8) 0.76382(18) 0.78176(14)
H13_8 H 0.6694 0.8204 0.7872
C21_8 C 0.50595(10) 0.6994(3) 0.6519(3)
H14_6 H 0.4882 0.6635 0.6738
H15_6 H 0.4991 0.6561 0.6054
C22_6 C 0.48418(9) 0.8110(3) 0.6238(2)
H16_6 H 0.4962 0.8587 0.6705
H17_6 H 0.4968 0.8415 0.5924
C23_6 C 0.42712(9) 0.8149(2) 0.57377(18)
C24_6 C 0.39812(9) 0.7564(2) 0.50244(18)
H18_8 H 0.4139 0.7097 0.4848
C25_8 C 0.34617(8) 0.7668(2) 0.45750(15)
H19_8 H 0.3276 0.7256 0.4102
C26_6 C 0.34879(8) 0.88874(18) 0.54856(13)
H20_6 H 0.3321 0.9343 0.5653
C27_6 C 0.40070(8) 0.8807(2) 0.59661(14)
H21_6 H 0.4183 0.9199 0.6450
H14_7 H 0.9882 0.8365 0.1738
H15_7 H 0.9991 0.8439 0.1054
C22_7 C 0.98418(9) 0.6890(3) 0.1238(2)
H16_7 H 0.9962 0.6413 0.1705
H17_7 H 0.9968 0.6585 0.0924
C23_7 C 0.92712(9) 0.6851(2) 0.07377(18)
C24_7 C 0.89812(9) 0.7436(2) 0.00244(18)
C26_7 C 0.84879(8) 0.61126(18) 0.04856(13)
H20_7 H 0.8321 0.5657 0.0653
C27_7 C 0.90070(8) 0.6193(2) 0.09661(14)
H21_7 H 0.9183 0.5801 0.1450
H1_7 H 0.7888 0.1404 0.0142
H5_7 H 0.8057 0.3342 0.0158
H7_7 H 0.9741 0.4324 0.0017
C13_7 C 0.94105(11) 0.3480(2) 0.0491(2)
H8_7 H 0.9708 0.3178 0.0923
C14_7 C 0.89507(10) 0.3246(2) 0.03878(16)
H9_7 H 0.8934 0.2776 0.0747
O5_5 O 0.55966(7) 0.0610(2) 0.61991(14)
O6_5 O 0.64295(8) 0.0699(3) 0.68686(14)
C15_5 C 0.60133(10) 0.0378(2) 0.63132(17)
O5_6 O 0.44034(7) 0.0610(2) 0.88009(14)
O6_6 O 0.35705(8) 0.0699(3) 0.81314(14)
C15_6 C 0.39867(10) 0.0378(2) 0.86868(17)
H14_8 H 0.0118 0.1635 0.8262
H15_8 H 0.0009 0.1561 0.8946
C22_8 C 0.01582(9) 0.3110(3) 0.8762(2)
H16_8 H 0.0038 0.3587 0.8295
H17_8 H 0.0032 0.3415 0.9076
C23_8 C 0.07288(9) 0.3149(2) 0.92623(18)
C24_8 C 0.10188(9) 0.2564(2) 0.99756(18)
C26_8 C 0.15121(8) 0.38874(18) 0.95144(13)
H20_8 H 0.1679 0.4343 0.9347
C27_8 C 0.09930(8) 0.3807(2) 0.90339(14)
H21_8 H 0.0817 0.4199 0.8550
H1_8 H 0.2112 0.8596 0.9858
H5_8 H 0.1943 0.6658 0.9842
H7_8 H 0.0259 0.5676 0.9983
C13_8 C 0.05895(11) 0.6520(2) 0.9509(2)
H8_8 H 0.0292 0.6822 0.9077
C14_8 C 0.10493(10) 0.6754(2) 0.96122(16)
H9_8 H 0.1066 0.7224 0.9253
O5_7 O 0.44034(7) 0.9390(2) 0.38009(14)
O6_7 O 0.35705(8) 0.9301(3) 0.31314(14)
C15_7 C 0.39867(10) 0.9622(2) 0.36868(17)
O5_8 O 0.55966(7) 0.9390(2) 0.11991(14)
O6_8 O 0.64295(8) 0.9301(3) 0.18686(14)
C15_8 C 0.60133(10) 0.9622(2) 0.13132(17)
loop_
_geom_bond_atom_site_label_1
_geom_bond_atom_site_label_2
_geom_bond_site_symmetry_1
_geom_bond_site_symmetry_2
O3 C8 1_555 1_555
O4 C8 1_555 1_555
O5 C15 1_555 1_555
O6 C15 1_555 1_555
N1 C9 1_555 1_555
C1 C2 1_555 1_555
C2 H1 1_555 1_555
C3 C2 1_555 1_555
C4 C3 1_555 1_555
H2 C4 1_555 1_555
C5 C4 1_555 1_555
C6 C1 1_555 1_555
C8 C5 1_555 1_555
C9 C3 1_555 1_555
H4 C9 1_555 1_555
H5 C9 1_555 1_555
C10 N1 1_555 1_555
H6 C10 1_555 1_555
C11 C10 1_555 1_555
C12 C11 1_555 1_555
H7 C12 1_555 1_555
C13 C12 1_555 1_555
H8 C13 1_555 1_555
C14 N1 1_555 1_555
H9 C14 1_555 1_555
C15 C11 1_555 1_555
Cu2 O4 1_555 1_555
C5 C6 1_555 1_555
C13 C14 1_555 1_555
Cu1 O1 1_555 1_555
O1 C7 1_555 1_555
O2 C7 1_555 1_555
N2 Cu1 1_555 1_555
C16 N2 1_555 1_555
H10 C16 1_555 1_555
C17 C16 1_555 1_555
H11 C17 1_555 1_555
C18 C17 1_555 1_555
C19 C18 1_555 1_555
H12 C19 1_555 1_555
C20 N2 1_555 1_555
H13 C20 1_555 1_555
C21 C18 1_555 1_555
Cu3 O2 1_555 1_555
O7 Cu1 1_555 1_555
O8 Cu1 1_555 1_555
N4 Cu1 1_555 1_555
C19 C20 1_555 1_555
N3 C25 1_555 1_555
H19 C25 1_555 1_555
Cu4 N3 1_555 1_555
N3_2 C25_2 1_555 1_555
H16 C22 1_555 1_555
H17 C22 1_555 1_555
C23 C22 1_555 1_555
C24 C23 1_555 1_555
H18_2 C24 1_555 1_555
C25_2 C24 1_555 1_555
H19_2 C25_2 1_555 1_555
C26 N3_2 1_555 1_555
H20 C26 1_555 1_555
C27 C23 1_555 1_555
H21 C27 1_555 1_555
Cu3 N3_2 1_555 1_555
C26 C27 1_555 1_555
O3_2 C8_2 1_555 1_555
O4_2 C8_2 1_555 1_555
O5_2 C15_2 1_555 1_555
O6_2 C15_2 1_555 1_555
N1_2 C9_2 1_555 1_555
C1_2 C2_2 1_555 1_555
C3_2 C2_2 1_555 1_555
C4_2 C3_2 1_555 1_555
H2_2 C4_2 1_555 1_555
C5_2 C4_2 1_555 1_555
C6_2 C1_2 1_555 1_555
C8_2 C5_2 1_555 1_555
C9_2 C3_2 1_555 1_555
H4_2 C9_2 1_555 1_555
C10_2 N1_2 1_555 1_555
H6_2 C10_2 1_555 1_555
C11_2 C10_2 1_555 1_555
C12_2 C11_2 1_555 1_555
C15_2 C11_2 1_555 1_555
Cu2_2 O4_2 1_555 1_555
C5_2 C6_2 1_555 1_555
Cu1_2 O1_2 1_555 1_555
N2_2 Cu1_2 1_555 1_555
C16_2 N2_2 1_555 1_555
H10_2 C16_2 1_555 1_555
C17_2 C16_2 1_555 1_555
H11_2 C17_2 1_555 1_555
C18_2 C17_2 1_555 1_555
C19_2 C18_2 1_555 1_555
H12_2 C19_2 1_555 1_555
C20_2 N2_2 1_555 1_555
H13_2 C20_2 1_555 1_555
C21_2 C18_2 1_555 1_555
O7_2 Cu1_2 1_555 1_555
O8_2 Cu1_2 1_555 1_555
N4_2 Cu1_2 1_555 1_555
C19_2 C20_2 1_555 1_555
O2_2 C7_2 1_555 1_555
Cu4 O2_2 1_555 1_555
Cu1_3 O1_3 1_555 1_555
O1_3 C7_3 1_555 1_555
O2_3 C7_3 1_555 1_555
O3_3 C8_3 1_555 1_555
O4_3 C8_3 1_555 1_555
N1_3 C9_3 1_555 1_555
N2_3 Cu1_3 1_555 1_555
C1_3 C2_3 1_555 1_555
C2_3 H1_2 1_555 1_555
C3_3 C2_3 1_555 1_555
C4_3 C3_3 1_555 1_555
H2_3 C4_3 1_555 1_555
C5_3 C4_3 1_555 1_555
C6_3 C1_3 1_555 1_555
H3_3 C6_3 1_555 1_555
C7_3 C1_3 1_555 1_555
C8_3 C5_3 1_555 1_555
C9_3 C3_3 1_555 1_555
H4_3 C9_3 1_555 1_555
H5_2 C9_3 1_555 1_555
C10_3 N1_3 1_555 1_555
H6_3 C10_3 1_555 1_555
C11_3 C10_3 1_555 1_555
C12_3 C11_3 1_555 1_555
H7_2 C12_3 1_555 1_555
C13_2 C12_3 1_555 1_555
H8_2 C13_2 1_555 1_555
C14_2 N1_3 1_555 1_555
H9_2 C14_2 1_555 1_555
C16_3 N2_3 1_555 1_555
H10_3 C16_3 1_555 1_555
C17_3 C16_3 1_555 1_555
H11_3 C17_3 1_555 1_555
C18_3 C17_3 1_555 1_555
C19_3 C18_3 1_555 1_555
H12_3 C19_3 1_555 1_555
C20_3 N2_3 1_555 1_555
H13_3 C20_3 1_555 1_555
C21_3 C18_3 1_555 1_555
H14_2 C21_3 1_555 1_555
H15_2 C21_3 1_555 1_555
C22_2 C21_3 1_555 1_555
H16_2 C22_2 1_555 1_555
H17_2 C22_2 1_555 1_555
C23_2 C22_2 1_555 1_555
C24_2 C23_2 1_555 1_555
H20_2 C26_2 1_555 1_555
C27_2 C23_2 1_555 1_555
H21_2 C27_2 1_555 1_555
Cu4 O4_3 1_555 1_555
Cu2_2 O2_3 1_555 1_555
O7_3 Cu1_3 1_555 1_555
O8_3 Cu1_3 1_555 1_555
N4_3 Cu1_3 1_555 1_555
C5_3 C6_3 1_555 1_555
C13_2 C14_2 1_555 1_555
C19_3 C20_3 1_555 1_555
C26_2 C27_2 1_555 1_555
N3_3 C25_3 1_555 1_555
H19_3 C25_3 1_555 1_555
Cu2 N3_3 1_555 1_555
Cu1_4 O1_4 1_555 1_555
N2_4 Cu1_4 1_555 1_555
N3_4 C25_4 1_555 1_555
H8_3 C13_3 1_555 1_555
H9_3 C14_3 1_555 1_555
C16_4 N2_4 1_555 1_555
H10_4 C16_4 1_555 1_555
C17_4 C16_4 1_555 1_555
H11_4 C17_4 1_555 1_555
C18_4 C17_4 1_555 1_555
C19_4 C18_4 1_555 1_555
H12_4 C19_4 1_555 1_555
C20_4 N2_4 1_555 1_555
H13_4 C20_4 1_555 1_555
C21_4 C18_4 1_555 1_555
H14_3 C21_4 1_555 1_555
H15_3 C21_4 1_555 1_555
C22_3 C21_4 1_555 1_555
H16_3 C22_3 1_555 1_555
H17_3 C22_3 1_555 1_555
C23_3 C22_3 1_555 1_555
C24_3 C23_3 1_555 1_555
H18_4 C24_3 1_555 1_555
C25_4 C24_3 1_555 1_555
H19_4 C25_4 1_555 1_555
C26_3 N3_4 1_555 1_555
H20_3 C26_3 1_555 1_555
C27_3 C23_3 1_555 1_555
H21_3 C27_3 1_555 1_555
Cu2_2 N3_4 1_555 1_555
O7_4 Cu1_4 1_555 1_555
O8_4 Cu1_4 1_555 1_555
N4_4 Cu1_4 1_555 1_555
C13_3 C14_3 1_555 1_555
C19_4 C20_4 1_555 1_555
C26_3 C27_3 1_555 1_555
O2_4 C7_4 1_555 1_555
O3_4 C8_4 1_555 1_555
O4_4 C8_4 1_555 1_555
N1_4 C9_4 1_555 1_555
C1_4 C2_4 1_555 1_555
C3_4 C2_4 1_555 1_555
C4_4 C3_4 1_555 1_555
H2_4 C4_4 1_555 1_555
C5_4 C4_4 1_555 1_555
C6_4 C1_4 1_555 1_555
H3_4 C6_4 1_555 1_555
C7_4 C1_4 1_555 1_555
C8_4 C5_4 1_555 1_555
C9_4 C3_4 1_555 1_555
H4_4 C9_4 1_555 1_555
C10_4 N1_4 1_555 1_555
H6_4 C10_4 1_555 1_555
C11_4 C10_4 1_555 1_555
C12_4 C11_4 1_555 1_555
Cu3 O4_4 1_555 1_555
Cu2 O2_4 1_555 1_555
C5_4 C6_4 1_555 1_555
N4_4 C25_5 1_555 1_555
H19_5 C25_5 1_555 1_555
Cu2_2 O1_5 1_555 1_555
O1_5 C7_5 1_555 1_555
O7_3 C7_5 1_555 1_555
N2_5 Cu2_2 1_555 1_555
C16_5 N2_5 1_555 1_555
H10_5 C16_5 1_555 1_555
C17_5 C16_5 1_555 1_555
H11_5 C17_5 1_555 1_555
C18_5 C17_5 1_555 1_555
C19_5 C18_5 1_555 1_555
H12_5 C19_5 1_555 1_555
C20_5 N2_5 1_555 1_555
H13_5 C20_5 1_555 1_555
C21_5 C18_5 1_555 1_555
C19_5 C20_5 1_555 1_555
O3_5 C8_5 1_555 1_555
O8_2 C8_5 1_555 1_555
O5_3 C15_3 1_555 1_555
O6_3 C15_3 1_555 1_555
N1_5 C9_5 1_555 1_555
C1_5 C2_5 1_555 1_555
C2_5 H1_4 1_555 1_555
C3_5 C2_5 1_555 1_555
C4_5 C3_5 1_555 1_555
H2_5 C4_5 1_555 1_555
C5_5 C4_5 1_555 1_555
C6_5 C1_5 1_555 1_555
C8_5 C5_5 1_555 1_555
C9_5 C3_5 1_555 1_555
H4_5 C9_5 1_555 1_555
H5_4 C9_5 1_555 1_555
C10_5 N1_5 1_555 1_555
H6_5 C10_5 1_555 1_555
C11_5 C10_5 1_555 1_555
C12_5 C11_5 1_555 1_555
H7_4 C12_5 1_555 1_555
C13_4 C12_5 1_555 1_555
H8_4 C13_4 1_555 1_555
C14_4 N1_5 1_555 1_555
H9_4 C14_4 1_555 1_555
C15_3 C11_5 1_555 1_555
C5_5 C6_5 1_555 1_555
C13_4 C14_4 1_555 1_555
O7_4 C7_6 1_555 1_555
Cu2 O1_6 1_555 1_555
N2_6 Cu2 1_555 1_555
C16_6 N2_6 1_555 1_555
H10_6 C16_6 1_555 1_555
C17_6 C16_6 1_555 1_555
H11_6 C17_6 1_555 1_555
C18_6 C17_6 1_555 1_555
C19_6 C18_6 1_555 1_555
H12_6 C19_6 1_555 1_555
C20_6 N2_6 1_555 1_555
H13_6 C20_6 1_555 1_555
C21_6 C18_6 1_555 1_555
C19_6 C20_6 1_555 1_555
O3_6 C8_6 1_555 1_555
O8 C8_6 1_555 1_555
O5_4 C15_4 1_555 1_555
O6_4 C15_4 1_555 1_555
N1_6 C9_6 1_555 1_555
C1_6 C2_6 1_555 1_555
C3_6 C2_6 1_555 1_555
C4_6 C3_6 1_555 1_555
H2_6 C4_6 1_555 1_555
C5_6 C4_6 1_555 1_555
C6_6 C1_6 1_555 1_555
C8_6 C5_6 1_555 1_555
C9_6 C3_6 1_555 1_555
H4_6 C9_6 1_555 1_555
C10_6 N1_6 1_555 1_555
H6_6 C10_6 1_555 1_555
C11_6 C10_6 1_555 1_555
C12_6 C11_6 1_555 1_555
C15_4 C11_6 1_555 1_555
C5_6 C6_6 1_555 1_555
N4_3 C25_6 1_555 1_555
H16_4 C22_4 1_555 1_555
H17_4 C22_4 1_555 1_555
C23_4 C22_4 1_555 1_555
C24_4 C23_4 1_555 1_555
H18_6 C24_4 1_555 1_555
C25_6 C24_4 1_555 1_555
H19_6 C25_6 1_555 1_555
C26_4 N4_3 1_555 1_555
H20_4 C26_4 1_555 1_555
C27_4 C23_4 1_555 1_555
H21_4 C27_4 1_555 1_555
C26_4 C27_4 1_555 1_555
N4_2 C25_7 1_555 1_555
H19_7 C25_7 1_555 1_555
Cu3 O1_7 1_555 1_555
O1_7 C7_7 1_555 1_555
O7 C7_7 1_555 1_555
O3_7 C8_7 1_555 1_555
O8_4 C8_7 1_555 1_555
N1_7 C9_7 1_555 1_555
N2_7 Cu3 1_555 1_555
C1_7 C2_7 1_555 1_555
C2_7 H1_5 1_555 1_555
C3_7 C2_7 1_555 1_555
C4_7 C3_7 1_555 1_555
H2_7 C4_7 1_555 1_555
C5_7 C4_7 1_555 1_555
C6_7 C1_7 1_555 1_555
H3_7 C6_7 1_555 1_555
C7_7 C1_7 1_555 1_555
C8_7 C5_7 1_555 1_555
C9_7 C3_7 1_555 1_555
H4_7 C9_7 1_555 1_555
H5_5 C9_7 1_555 1_555
C10_7 N1_7 1_555 1_555
H6_7 C10_7 1_555 1_555
C11_7 C10_7 1_555 1_555
C12_7 C11_7 1_555 1_555
H7_5 C12_7 1_555 1_555
C13_5 C12_7 1_555 1_555
H8_5 C13_5 1_555 1_555
C14_5 N1_7 1_555 1_555
H9_5 C14_5 1_555 1_555
C16_7 N2_7 1_555 1_555
H10_7 C16_7 1_555 1_555
C17_7 C16_7 1_555 1_555
H11_7 C17_7 1_555 1_555
C18_7 C17_7 1_555 1_555
C19_7 C18_7 1_555 1_555
H12_7 C19_7 1_555 1_555
C20_7 N2_7 1_555 1_555
H13_7 C20_7 1_555 1_555
C21_7 C18_7 1_555 1_555
H14_5 C21_7 1_555 1_555
H15_5 C21_7 1_555 1_555
C22_5 C21_7 1_555 1_555
H16_5 C22_5 1_555 1_555
H17_5 C22_5 1_555 1_555
C23_5 C22_5 1_555 1_555
C24_5 C23_5 1_555 1_555
H20_5 C26_5 1_555 1_555
C27_5 C23_5 1_555 1_555
H21_5 C27_5 1_555 1_555
C5_7 C6_7 1_555 1_555
C13_5 C14_5 1_555 1_555
C19_7 C20_7 1_555 1_555
C26_5 C27_5 1_555 1_555
O7_2 C7_8 1_555 1_555
O3_8 C8_8 1_555 1_555
O8_3 C8_8 1_555 1_555
N1_8 C9_8 1_555 1_555
C1_8 C2_8 1_555 1_555
C3_8 C2_8 1_555 1_555
C4_8 C3_8 1_555 1_555
H2_8 C4_8 1_555 1_555
C5_8 C4_8 1_555 1_555
C6_8 C1_8 1_555 1_555
H3_8 C6_8 1_555 1_555
C7_8 C1_8 1_555 1_555
C8_8 C5_8 1_555 1_555
C9_8 C3_8 1_555 1_555
H4_8 C9_8 1_555 1_555
C10_8 N1_8 1_555 1_555
H6_8 C10_8 1_555 1_555
C11_8 C10_8 1_555 1_555
C12_8 C11_8 1_555 1_555
C5_8 C6_8 1_555 1_555
Cu4 O1_8 1_555 1_555
N2_8 Cu4 1_555 1_555
N4 C25_8 1_555 1_555
H8_6 C13_6 1_555 1_555
H9_6 C14_6 1_555 1_555
C16_8 N2_8 1_555 1_555
H10_8 C16_8 1_555 1_555
C17_8 C16_8 1_555 1_555
H11_8 C17_8 1_555 1_555
C18_8 C17_8 1_555 1_555
C19_8 C18_8 1_555 1_555
H12_8 C19_8 1_555 1_555
C20_8 N2_8 1_555 1_555
H13_8 C20_8 1_555 1_555
C21_8 C18_8 1_555 1_555
H14_6 C21_8 1_555 1_555
H15_6 C21_8 1_555 1_555
C22_6 C21_8 1_555 1_555
H16_6 C22_6 1_555 1_555
H17_6 C22_6 1_555 1_555
C23_6 C22_6 1_555 1_555
C24_6 C23_6 1_555 1_555
H18_8 C24_6 1_555 1_555
C25_8 C24_6 1_555 1_555
H19_8 C25_8 1_555 1_555
C26_6 N4 1_555 1_555
H20_6 C26_6 1_555 1_555
C27_6 C23_6 1_555 1_555
H21_6 C27_6 1_555 1_555
C13_6 C14_6 1_555 1_555
C19_8 C20_8 1_555 1_555
C26_6 C27_6 1_555 1_555
H16_7 C22_7 1_555 1_555
H17_7 C22_7 1_555 1_555
C23_7 C22_7 1_555 1_555
C24_7 C23_7 1_555 1_555
H20_7 C26_7 1_555 1_555
C27_7 C23_7 1_555 1_555
H21_7 C27_7 1_555 1_555
C26_7 C27_7 1_555 1_555
H8_7 C13_7 1_555 1_555
H9_7 C14_7 1_555 1_555
C13_7 C14_7 1_555 1_555
O5_5 C15_5 1_555 1_555
O6_5 C15_5 1_555 1_555
O5_6 C15_6 1_555 1_555
O6_6 C15_6 1_555 1_555
H16_8 C22_8 1_555 1_555
H17_8 C22_8 1_555 1_555
C23_8 C22_8 1_555 1_555
C24_8 C23_8 1_555 1_555
H20_8 C26_8 1_555 1_555
C27_8 C23_8 1_555 1_555
H21_8 C27_8 1_555 1_555
C26_8 C27_8 1_555 1_555
H8_8 C13_8 1_555 1_555
H9_8 C14_8 1_555 1_555
C13_8 C14_8 1_555 1_555
O5_7 C15_7 1_555 1_555
O6_7 C15_7 1_555 1_555
O5_8 C15_8 1_555 1_555
O6_8 C15_8 1_555 1_555

#END
