
###############################################################################
#
# This file contains modified crystal structure data generated from the
# MOF subset of the Cambridge Structural Database (CSD) v543 
# hosted by the Cambridge Crystallographic Data Centre (CCDC).
#
# This work is licensed under the Creative Commons
# Attribution-NonCommercial-ShareAlike 4.0 International License.
# To view a copy of this license, visit
# http://creativecommons.org/licenses/by-nc-sa/4.0/
# or send a letter to
# Creative Commons, PO Box 1866, Mountain View, CA 94042, USA.
#
# CIF created using the CSD Python API on 29 September 2022
# The structure has been converted into the P1 space group
# The structure has a 3D framework
# The original CSD entry XOBGON is in the triclinic crystal system
# The framework has been calculated to contain at least 10.0% void space
# The void calculation uses a probe of radius 1.32A, grid spacing 0.4
#
###############################################################################

data_XOBGON
_chemical_formula_moiety         '(C48 H38 N6 O42 Tb4)n'
_symmetry_cell_setting           triclinic
_symmetry_space_group_name_H-M   'P 1'
_symmetry_Int_Tables_number      1
_space_group_name_Hall           'P 1'
loop_
_symmetry_equiv_pos_site_id
_symmetry_equiv_pos_as_xyz
1 x,y,z
_cell_length_a                   11.6831(17)
_cell_length_b                   12.1945(17)
_cell_length_c                   12.9256(18)
_cell_angle_alpha                92.126(2)
_cell_angle_beta                 104.924(2)
_cell_angle_gamma                90.687(2)
_cell_volume                     1777.72
loop_
_atom_site_label
_atom_site_type_symbol
_atom_site_fract_x
_atom_site_fract_y
_atom_site_fract_z
Tb1 Tb 0.04728(2) 0.54931(2) 0.16288(2)
O20 O 0.2275(5) 0.5398(4) 0.3065(4)
H12 H 0.2593 0.5989 0.3387
H13 H 0.2744 0.5129 0.2723
O23 O 0.0095(5) 0.4312(5) 0.3008(5)
O25 O 0.2031(4) 0.6162(4) 0.0968(4)
O26 O 0.1322(4) 0.3832(4) 0.1299(4)
O30 O 0.0752(4) 0.7282(4) 0.2646(4)
Tb2 Tb 0.55569(2) 0.15721(2) 0.51039(2)
C13 C 0.7782(6) 0.0182(5) 0.8733(5)
H5 H 0.7608 0.0909 0.8576
C17 C 0.3493(6) 0.0918(5) 0.5904(5)
C18 C 0.2359(6) 0.0814(5) 0.6239(5)
C21 C 0.0122(5) 0.0737(5) 0.6674(5)
C22 C 0.0778(6) 0.1720(5) 0.6831(5)
C23 C 0.1910(6) 0.1753(6) 0.6627(5)
H9 H 0.2357 0.2404 0.6751
C24 C 0.0289(6) 0.2724(6) 0.7254(5)
O10 O 0.6533(4) 0.0581(4) 0.6626(4)
O13 O 0.3949(4) 0.1850(4) 0.5927(4)
O14 O 0.3958(4) 0.0065(4) 0.5625(4)
O15 O 0.0952(4) 0.3570(4) 0.7534(4)
O19 O 0.7563(4) 0.2197(4) 0.5451(4)
H10 H 0.7735 0.2601 0.4988
H11 H 0.8116 0.2277 0.6024
O21 O 0.6154(5) 0.2794(4) 0.6847(4)
H14 H 0.6363 0.2250 0.7240
H15 H 0.5413 0.2867 0.6759
O22 O 0.4957(7) 0.3460(5) 0.4780(5)
H16 H 0.5126 0.3907 0.4350
H17 H 0.4280 0.3622 0.4863
O24 O 0.5965(5) 0.2061(4) 0.3468(4)
O27 O 0.3829(4) 0.1225(4) 0.3724(3)
C1 C 0.6559(7) 0.2757(6) 0.3124(5)
C2 C 0.6457(6) 0.2760(5) 0.1949(5)
C3 C 0.5628(6) 0.2042(6) 0.1252(6)
H1 H 0.5143 0.1577 0.1516
C4 C 0.5554(6) 0.2045(6) 0.0174(5)
C6 C 0.7142(6) 0.3358(5) 0.0452(5)
C7 C 0.7194(6) 0.3416(5) 0.1535(5)
H3 H 0.7729 0.3903 0.1990
C8 C 0.8034(6) 0.3956(5) 0.0024(5)
C11 C 0.8740(6) 0.8848(5) 0.0001(5)
H4 H 0.9160 0.8690 0.0691
O4 O 0.7260(7) 0.3441(5) 0.3721(4)
O6 O 0.8819(4) 0.4519(4) 0.0669(4)
O7 O 0.9472(4) 0.6720(3) 0.0398(3)
H18 H 0.9987 0.3682 0.3232
H19 H 0.9802 0.4782 0.3364
O29 O 0.9048(4) 0.6430(4) 0.2466(4)
C5 C 0.6285(6) 0.2688(5) 0.9748(5)
H2 H 0.6210 0.2675 0.9013
C9 C 0.8899(6) 0.6877(5) 0.9459(5)
C10 C 0.8425(6) 0.8025(5) 0.9215(5)
C12 C 0.8425(6) 0.9899(5) 0.9750(5)
C14 C 0.7410(6) 0.9339(5) 0.7961(5)
C15 C 0.7733(5) 0.8266(5) 0.8199(5)
H6 H 0.7487 0.7705 0.7679
C16 C 0.6638(5) 0.9583(5) 0.6866(5)
C19 C 0.1718(6) 0.9831(5) 0.6105(5)
H7 H 0.2022 0.9193 0.5875
C20 C 0.0607(6) 0.9820(5) 0.6320(5)
N1 N 0.4686(6) 0.1308(6) 0.9439(5)
O1 O 0.4752(6) 0.1207(7) 0.8512(5)
O2 O 0.3956(6) 0.0825(5) 0.9771(5)
O5 O 0.7969(4) 0.3838(4) 0.9032(4)
O8 O 0.8678(4) 0.6168(4) 0.8701(4)
O9 O 0.6171(4) 0.8775(4) 0.6276(3)
O17 O 0.0449(6) 0.7925(4) 0.6067(8)
Tb4 Tb 0.95272(2) 0.45069(2) 0.83712(2)
Tb6 Tb 0.44431(2) 0.84279(2) 0.48961(2)
O28 O 0.6042(4) 0.9935(4) 0.4375(4)
H8 H 0.9377 0.0703 0.6805
O16 O 0.9248(4) 0.2718(4) 0.7354(4)
H8_2 H 0.0623 0.9297 0.3195
C5_2 C 0.3715(6) 0.7312(5) 0.0252(5)
H2_2 H 0.3790 0.7325 0.0987
C9_2 C 0.1101(6) 0.3123(5) 0.0541(5)
C10_2 C 0.1575(6) 0.1975(5) 0.0785(5)
C12_2 C 0.1575(6) 0.0101(5) 0.0250(5)
C14_2 C 0.2590(6) 0.0661(5) 0.2039(5)
C15_2 C 0.2267(5) 0.1734(5) 0.1801(5)
H6_2 H 0.2513 0.2295 0.2321
C16_2 C 0.3362(5) 0.0417(5) 0.3134(5)
C19_2 C 0.8282(6) 0.0169(5) 0.3895(5)
H7_2 H 0.7978 0.0807 0.4125
C20_2 C 0.9393(6) 0.0180(5) 0.3680(5)
N1_2 N 0.5314(6) 0.8692(6) 0.0561(5)
O1_2 O 0.5248(6) 0.8793(7) 0.1488(5)
O2_2 O 0.6044(6) 0.9175(5) 0.0229(5)
O17_2 O 0.9551(6) 0.2075(4) 0.3933(8)
C1_2 C 0.3441(7) 0.7243(6) 0.6876(5)
C2_2 C 0.3543(6) 0.7240(5) 0.8051(5)
C3_2 C 0.4372(6) 0.7958(6) 0.8748(6)
H1_2 H 0.4857 0.8423 0.8484
C4_2 C 0.4446(6) 0.7955(6) 0.9826(5)
C6_2 C 0.2858(6) 0.6642(5) 0.9548(5)
C7_2 C 0.2806(6) 0.6584(5) 0.8465(5)
H3_2 H 0.2271 0.6097 0.8010
C8_2 C 0.1966(6) 0.6044(5) 0.9976(5)
C11_2 C 0.1260(6) 0.1152(5) 0.9999(5)
H4_2 H 0.0840 0.1310 0.9309
O3 O 0.4035(5) 0.7939(4) 0.6532(4)
O4_2 O 0.2740(7) 0.6559(5) 0.6279(4)
O6_2 O 0.1181(4) 0.5481(4) 0.9331(4)
O7_2 O 0.0528(4) 0.3280(3) 0.9602(3)
H18_2 H 0.0013 0.6318 0.6768
H19_2 H 0.0198 0.5218 0.6636
C13_2 C 0.2218(6) 0.9818(5) 0.1267(5)
H5_2 H 0.2392 0.9091 0.1424
C17_2 C 0.6507(6) 0.9082(5) 0.4096(5)
C18_2 C 0.7641(6) 0.9186(5) 0.3761(5)
C21_2 C 0.9878(5) 0.9263(5) 0.3326(5)
C22_2 C 0.9222(6) 0.8280(5) 0.3169(5)
C23_2 C 0.8090(6) 0.8247(6) 0.3373(5)
H9_2 H 0.7643 0.7596 0.3249
C24_2 C 0.9711(6) 0.7276(6) 0.2746(5)
O10_2 O 0.3467(4) 0.9419(4) 0.3374(4)
O13_2 O 0.6051(4) 0.8150(4) 0.4073(4)
O19_2 O 0.2437(4) 0.7803(4) 0.4549(4)
H10_2 H 0.2265 0.7399 0.5012
H11_2 H 0.1884 0.7723 0.3976
O21_2 O 0.3846(5) 0.7206(4) 0.3153(4)
H14_2 H 0.3637 0.7750 0.2760
H15_2 H 0.4587 0.7133 0.3241
O22_2 O 0.5043(7) 0.6540(5) 0.5220(5)
H16_2 H 0.4874 0.6093 0.5650
H17_2 H 0.5720 0.6378 0.5137
O20_2 O 0.7725(5) 0.4602(4) 0.6935(4)
H12_2 H 0.7407 0.4011 0.6613
H13_2 H 0.7256 0.4871 0.7277
O23_2 O 0.9905(5) 0.5688(5) 0.6992(5)
N2 N 0.8804(5) 0.0803(5) 0.0565(5)
O11 O 0.8762(5) 0.1726(4) 0.0278(4)
O12 O 0.9247(8) 0.0555(5) 0.1470(5)
N3 N 0.9950(6) 0.8779(5) 0.6196(5)
O18 O 0.8911(5) 0.8791(4) 0.6224(5)
N3_2 N 0.0050(6) 0.1221(5) 0.3804(5)
O18_2 O 0.1089(5) 0.1209(4) 0.3776(5)
N2_2 N 0.1196(5) 0.9197(5) 0.9435(5)
O11_2 O 0.1238(5) 0.8274(4) 0.9722(4)
O12_2 O 0.0753(8) 0.9445(5) 0.8530(5)
loop_
_geom_bond_atom_site_label_1
_geom_bond_atom_site_label_2
_geom_bond_site_symmetry_1
_geom_bond_site_symmetry_2
O20 Tb1 1_555 1_555
H12 O20 1_555 1_555
H13 O20 1_555 1_555
O23 Tb1 1_555 1_555
O25 Tb1 1_555 1_555
O26 Tb1 1_555 1_555
O30 Tb1 1_555 1_555
Tb2 O10 1_555 1_555
H5 C13 1_555 1_555
C17 C18 1_555 1_555
C22 C21 1_555 1_555
C23 C18 1_555 1_555
H9 C23 1_555 1_555
C24 C22 1_555 1_555
O13 Tb2 1_555 1_555
O14 Tb2 1_555 1_555
O15 C24 1_555 1_555
O19 Tb2 1_555 1_555
H10 O19 1_555 1_555
H11 O19 1_555 1_555
O21 Tb2 1_555 1_555
H14 O21 1_555 1_555
H15 O21 1_555 1_555
O22 Tb2 1_555 1_555
H16 O22 1_555 1_555
H17 O22 1_555 1_555
O24 Tb2 1_555 1_555
O27 Tb2 1_555 1_555
C17 O13 1_555 1_555
C17 O14 1_555 1_555
C22 C23 1_555 1_555
C1 C2 1_555 1_555
C2 C3 1_555 1_555
C3 H1 1_555 1_555
C4 C3 1_555 1_555
C7 C2 1_555 1_555
H3 C7 1_555 1_555
C8 C6 1_555 1_555
C11 H4 1_555 1_555
O24 C1 1_555 1_555
O4 C1 1_555 1_555
O6 C8 1_555 1_555
C6 C7 1_555 1_555
H2 C5 1_555 1_555
C9 C10 1_555 1_555
C15 C10 1_555 1_555
H6 C15 1_555 1_555
C16 C14 1_555 1_555
C19 H7 1_555 1_555
C20 C19 1_555 1_555
O1 N1 1_555 1_555
O2 N1 1_555 1_555
O8 C9 1_555 1_555
O9 C16 1_555 1_555
Tb4 O5 1_555 1_555
Tb6 O9 1_555 1_555
C14 C15 1_555 1_555
O8 Tb4 1_555 1_555
Tb6 O28 1_555 1_555
O16 Tb4 1_555 1_555
H2_2 C5_2 1_555 1_555
C9_2 C10_2 1_555 1_555
C15_2 C10_2 1_555 1_555
H6_2 C15_2 1_555 1_555
C16_2 C14_2 1_555 1_555
C19_2 H7_2 1_555 1_555
C20_2 C19_2 1_555 1_555
O1_2 N1_2 1_555 1_555
O2_2 N1_2 1_555 1_555
O26 C9_2 1_555 1_555
O27 C16_2 1_555 1_555
C14_2 C15_2 1_555 1_555
C1_2 C2_2 1_555 1_555
C2_2 C3_2 1_555 1_555
C3_2 H1_2 1_555 1_555
C4_2 C3_2 1_555 1_555
C7_2 C2_2 1_555 1_555
H3_2 C7_2 1_555 1_555
C8_2 C6_2 1_555 1_555
C11_2 H4_2 1_555 1_555
O3 C1_2 1_555 1_555
O4_2 C1_2 1_555 1_555
O6_2 C8_2 1_555 1_555
Tb6 O3 1_555 1_555
C6_2 C7_2 1_555 1_555
Tb6 O10_2 1_555 1_555
H5_2 C13_2 1_555 1_555
C17_2 C18_2 1_555 1_555
C22_2 C21_2 1_555 1_555
C23_2 C18_2 1_555 1_555
H9_2 C23_2 1_555 1_555
C24_2 C22_2 1_555 1_555
O13_2 Tb6 1_555 1_555
O29 C24_2 1_555 1_555
O19_2 Tb6 1_555 1_555
H10_2 O19_2 1_555 1_555
H11_2 O19_2 1_555 1_555
O21_2 Tb6 1_555 1_555
H14_2 O21_2 1_555 1_555
H15_2 O21_2 1_555 1_555
O22_2 Tb6 1_555 1_555
H16_2 O22_2 1_555 1_555
H17_2 O22_2 1_555 1_555
C17_2 O13_2 1_555 1_555
C17_2 O28 1_555 1_555
C22_2 C23_2 1_555 1_555
O20_2 Tb4 1_555 1_555
H12_2 O20_2 1_555 1_555
H13_2 O20_2 1_555 1_555
O23_2 Tb4 1_555 1_555
O11 N2 1_555 1_555
O12 N2 1_555 1_555
O18 N3 1_555 1_555
O18_2 N3_2 1_555 1_555
O11_2 N2_2 1_555 1_555
O12_2 N2_2 1_555 1_555

#END
