
###############################################################################
#
# This file contains modified crystal structure data generated from the
# MOF subset of the Cambridge Structural Database (CSD) v543 
# hosted by the Cambridge Crystallographic Data Centre (CCDC).
#
# This work is licensed under the Creative Commons
# Attribution-NonCommercial-ShareAlike 4.0 International License.
# To view a copy of this license, visit
# http://creativecommons.org/licenses/by-nc-sa/4.0/
# or send a letter to
# Creative Commons, PO Box 1866, Mountain View, CA 94042, USA.
#
# CIF created using the CSD Python API on 29 September 2022
# The structure has been converted into the P1 space group
# The structure has a 3D framework
# The original CSD entry XOBREM is in the cubic crystal system
# The framework has been calculated to contain at least 10.0% void space
# The void calculation uses a probe of radius 1.32A, grid spacing 0.4
# H atom positions have been added when not included in the experimental data
#
###############################################################################

data_XOBREM
_chemical_formula_moiety         '(C384 H320 N80 O96 Zn32)n'
_symmetry_cell_setting           triclinic
_symmetry_space_group_name_H-M   'P 1'
_symmetry_Int_Tables_number      1
_space_group_name_Hall           'P 1'
loop_
_symmetry_equiv_pos_site_id
_symmetry_equiv_pos_as_xyz
1 x,y,z
_cell_length_a                   22.4395(2)
_cell_length_b                   22.4395(2)
_cell_length_c                   22.4395(2)
_cell_angle_alpha                90
_cell_angle_beta                 90
_cell_angle_gamma                90
_cell_volume                     11299
loop_
_atom_site_label
_atom_site_type_symbol
_atom_site_fract_x
_atom_site_fract_y
_atom_site_fract_z
Zn3 Zn 0.308040(12) 0.447850(12) 0.239840(12)
O5 O 0.23812(12) 0.39612(11) 0.16337(12)
O7 O 0.27228(9) 0.48737(10) 0.17139(9)
O12 O 0.23496(9) 0.63093(8) 0.00646(9)
C27 C 0.18236(10) 0.54009(10) 0.01663(10)
C29 C 0.21395(10) 0.52334(11) 0.06738(10)
H17 H 0.2391 0.5505 0.0860
C31 C 0.20802(11) 0.46611(11) 0.09031(11)
C33 C 0.17083(13) 0.42533(11) 0.06227(12)
H19 H 0.1674 0.3868 0.0772
C35 C 0.13890(14) 0.44200(12) 0.01209(13)
H22 H 0.0065 0.6138 0.0852
C38 C 0.01048(11) 0.64446(12) 0.00066(12)
C41 C 0.24126(12) 0.44746(13) 0.14518(12)
Zn1 Zn 0.137250(11) 0.637250(11) 0.862750(11)
Zn2 Zn 0.191960(12) 0.552150(12) 0.739840(12)
O3 O 0.13093(8) 0.49354(9) 0.76504(9)
O4 O 0.11652(8) 0.55007(7) 0.84514(8)
N1 N 0.27528(9) 0.63646(9) 0.87776(10)
N2 N 0.23042(8) 0.61759(9) 0.84404(9)
N3 N 0.24935(9) 0.57922(10) 0.80307(9)
C1 C 0.32576(11) 0.60926(13) 0.85788(13)
C2 C 0.30934(11) 0.57295(12) 0.81025(13)
C3 C 0.35157(14) 0.53834(17) 0.77923(17)
H1 H 0.3408 0.5136 0.7478
C4 C 0.40922(15) 0.5432(2) 0.7980(2)
H2 H 0.4385 0.5215 0.7783
C5 C 0.42602(14) 0.5798(2) 0.8460(2)
H3 H 0.4659 0.5812 0.8572
C6 C 0.38540(13) 0.61343(17) 0.87677(18)
H4 H 0.3966 0.6377 0.9084
C7 C 0.04009(10) 0.48337(10) 0.81764(10)
C8 C 0.02334(11) 0.43262(10) 0.78605(10)
H5 H 0.0505 0.4140 0.7609
H8 H 0.0105 0.5439 0.8773
C13 C 0.10017(10) 0.51091(10) 0.80919(11)
Zn6 Zn 0.260160(12) 0.691960(12) 0.947850(12)
Zn7 Zn 0.052150(12) 0.760160(12) 0.808040(12)
O9 O 0.01263(10) 0.82861(9) 0.77228(9)
O10 O 0.22772(9) 0.51263(10) 0.67139(9)
O11 O 0.32861(9) 0.72772(9) 0.98737(10)
O14 O 0.15486(8) 0.61652(8) 0.94993(7)
O15 O 0.05007(7) 0.65486(8) 0.88348(8)
N4 N 0.12224(10) 0.77528(9) 0.86354(9)
N5 N 0.13646(9) 0.62224(10) 0.72472(9)
N6 N 0.15596(9) 0.73042(8) 0.88241(9)
N7 N 0.11759(9) 0.65596(9) 0.76958(8)
N8 N 0.19693(9) 0.74935(9) 0.92078(10)
N9 N 0.07922(10) 0.69693(9) 0.75065(9)
C15 C 0.14212(13) 0.82576(11) 0.89074(13)
C16 C 0.10926(13) 0.64212(13) 0.67424(11)
C17 C 0.18975(13) 0.80934(11) 0.92705(12)
C18 C 0.07295(12) 0.68975(13) 0.69066(11)
C19 C 0.22077(17) 0.85157(14) 0.96166(17)
C20 C 0.03834(17) 0.72077(17) 0.64843(14)
H9 H 0.2522 0.8408 0.9864
H10 H 0.0136 0.7522 0.6592
C21 C 0.2020(2) 0.90922(15) 0.9568(2)
C22 C 0.0432(2) 0.7020(2) 0.59078(15)
H11 H 0.2217 0.9385 0.9785
H12 H 0.0215 0.7217 0.5615
C23 C 0.1540(2) 0.92602(14) 0.9202(2)
C24 C 0.0798(2) 0.6540(2) 0.57398(14)
H13 H 0.1428 0.9659 0.9188
H14 H 0.0812 0.6428 0.5341
C25 C 0.12323(18) 0.88540(13) 0.88657(17)
C26 C 0.11343(17) 0.62323(18) 0.61460(13)
H15 H 0.0916 0.8966 0.8623
H16 H 0.1377 0.5916 0.6034
H21 H 0.1138 0.4148 0.9935
C37 C 0.14446(12) 0.49934(12) 0.98952(11)
H23 H 0.1227 0.5105 0.9561
H24 H 0.0439 0.6227 0.9895
C39 C 0.19081(11) 0.60017(10) 0.98909(10)
C40 C 0.01091(10) 0.69081(11) 0.89983(10)
Zn4 Zn 0.760160(12) 0.808040(12) 0.052150(12)
O6 O 0.83663(12) 0.73812(12) 0.10388(11)
O8 O 0.82861(9) 0.77228(9) 0.01263(10)
C32 C 0.90969(11) 0.70802(11) 0.03389(11)
C34 C 0.93773(12) 0.67083(13) 0.07467(11)
H20 H 0.9228 0.6674 0.1132
C36 C 0.98791(13) 0.63890(14) 0.05800(12)
C42 C 0.85482(12) 0.74126(12) 0.05254(13)
O1 O 0.89612(11) 0.33663(12) 0.76188(12)
O2 O 0.98737(10) 0.32861(9) 0.72772(9)
C9 C 0.96611(11) 0.40969(11) 0.79198(11)
C10 C 0.92533(11) 0.43773(12) 0.82917(13)
H6 H 0.8868 0.4228 0.8326
C11 C 0.94200(12) 0.48791(13) 0.86110(14)
H7 H 0.9148 0.5065 0.8862
C12 C 0.99934(12) 0.51048(11) 0.85554(12)
C14 C 0.94746(13) 0.35482(12) 0.75874(12)
Zn5 Zn 0.947850(12) 0.260160(12) 0.691960(12)
O13 O 0.99354(9) 0.73496(9) 0.86907(8)
C28 C 0.98337(10) 0.68236(10) 0.95991(10)
C30 C 0.93262(10) 0.71395(10) 0.97666(11)
H18 H 0.9140 0.7391 0.9495
Zn3_2 Zn 0.239840(12) 0.308040(12) 0.447850(12)
O5_2 O 0.16337(12) 0.23812(12) 0.39612(11)
O7_2 O 0.17139(9) 0.27228(9) 0.48737(10)
O12_2 O 0.00646(9) 0.23496(9) 0.63093(8)
C27_2 C 0.01663(10) 0.18236(10) 0.54009(10)
C29_2 C 0.06738(10) 0.21395(10) 0.52334(11)
H17_2 H 0.0860 0.2391 0.5505
C31_2 C 0.09031(11) 0.20802(11) 0.46611(11)
C33_2 C 0.06227(12) 0.17083(13) 0.42533(11)
H19_2 H 0.0772 0.1674 0.3868
C35_2 C 0.01209(13) 0.13890(14) 0.44200(12)
H22_2 H 0.0852 0.0065 0.6138
C38_2 C 0.00066(12) 0.01048(11) 0.64446(12)
C41_2 C 0.14518(12) 0.24126(12) 0.44746(13)
O6_2 O 0.10388(11) 0.83663(12) 0.73812(12)
C32_2 C 0.03389(11) 0.90969(11) 0.70802(11)
C34_2 C 0.07467(11) 0.93773(12) 0.67083(13)
H20_2 H 0.1132 0.9228 0.6674
C36_2 C 0.05800(12) 0.98791(13) 0.63890(14)
C42_2 C 0.05254(13) 0.85482(12) 0.74126(12)
Zn1_2 Zn 0.862750(11) 0.137250(11) 0.637250(11)
Zn2_2 Zn 0.739840(12) 0.191960(12) 0.552150(12)
O3_2 O 0.76504(9) 0.13093(8) 0.49354(9)
O4_2 O 0.84514(8) 0.11652(8) 0.55007(7)
N1_2 N 0.87776(10) 0.27528(9) 0.63646(9)
N2_2 N 0.84404(9) 0.23042(8) 0.61759(9)
N3_2 N 0.80307(9) 0.24935(9) 0.57922(10)
C1_2 C 0.85788(13) 0.32576(11) 0.60926(13)
C2_2 C 0.81025(13) 0.30934(11) 0.57295(12)
C3_2 C 0.77923(17) 0.35157(14) 0.53834(17)
H1_2 H 0.7478 0.3408 0.5136
C4_2 C 0.7980(2) 0.40922(15) 0.5432(2)
H2_2 H 0.7783 0.4385 0.5215
C5_2 C 0.8460(2) 0.42602(14) 0.5798(2)
H3_2 H 0.8572 0.4659 0.5812
C6_2 C 0.87677(18) 0.38540(13) 0.61343(17)
H4_2 H 0.9084 0.3966 0.6377
C7_2 C 0.81764(10) 0.04009(10) 0.48337(10)
C8_2 C 0.78605(10) 0.02334(11) 0.43262(10)
H5_2 H 0.7609 0.0505 0.4140
H8_2 H 0.8773 0.0105 0.5439
C13_2 C 0.80919(11) 0.10017(10) 0.51091(10)
Zn7_2 Zn 0.808040(12) 0.052150(12) 0.760160(12)
O9_2 O 0.77228(9) 0.01263(10) 0.82861(9)
O10_2 O 0.67139(9) 0.22772(9) 0.51263(10)
O14_2 O 0.94993(7) 0.15486(8) 0.61652(8)
O15_2 O 0.88348(8) 0.05007(7) 0.65486(8)
N4_2 N 0.86354(9) 0.12224(10) 0.77528(9)
N5_2 N 0.72472(9) 0.13646(9) 0.62224(10)
N6_2 N 0.88241(9) 0.15596(9) 0.73042(8)
N7_2 N 0.76958(8) 0.11759(9) 0.65596(9)
N8_2 N 0.92078(10) 0.19693(9) 0.74935(9)
N9_2 N 0.75065(9) 0.07922(10) 0.69693(9)
C15_2 C 0.89074(13) 0.14212(13) 0.82576(11)
C16_2 C 0.67424(11) 0.10926(13) 0.64212(13)
C17_2 C 0.92705(12) 0.18975(13) 0.80934(11)
C18_2 C 0.69066(11) 0.07295(12) 0.68975(13)
C19_2 C 0.96166(17) 0.22077(17) 0.85157(14)
C20_2 C 0.64843(14) 0.03834(17) 0.72077(17)
H9_2 H 0.9864 0.2522 0.8408
H10_2 H 0.6592 0.0136 0.7522
C21_2 C 0.9568(2) 0.2020(2) 0.90922(15)
C22_2 C 0.59078(15) 0.0432(2) 0.7020(2)
H11_2 H 0.9785 0.2217 0.9385
H12_2 H 0.5615 0.0215 0.7217
C23_2 C 0.9202(2) 0.1540(2) 0.92602(14)
C24_2 C 0.57398(14) 0.0798(2) 0.6540(2)
H13_2 H 0.9188 0.1428 0.9659
H14_2 H 0.5341 0.0812 0.6428
C25_2 C 0.88657(17) 0.12323(18) 0.88540(13)
C26_2 C 0.61460(13) 0.11343(17) 0.62323(18)
H15_2 H 0.8623 0.0916 0.8966
H16_2 H 0.6034 0.1377 0.5916
H21_2 H 0.9935 0.1138 0.4148
C37_2 C 0.98952(11) 0.14446(12) 0.49934(12)
H23_2 H 0.9561 0.1227 0.5105
H24_2 H 0.9895 0.0439 0.6227
C39_2 C 0.98909(10) 0.19081(11) 0.60017(10)
C40_2 C 0.89983(10) 0.01091(10) 0.69081(11)
O1_2 O 0.76188(12) 0.89612(11) 0.33663(12)
O2_2 O 0.72772(9) 0.98737(10) 0.32861(9)
C9_2 C 0.79198(11) 0.96611(11) 0.40969(11)
C10_2 C 0.82917(13) 0.92533(11) 0.43773(12)
H6_2 H 0.8326 0.8868 0.4228
C11_2 C 0.86110(14) 0.94200(12) 0.48791(13)
H7_2 H 0.8862 0.9148 0.5065
C12_2 C 0.85554(12) 0.99934(12) 0.51048(11)
C14_2 C 0.75874(12) 0.94746(13) 0.35482(12)
Zn5_2 Zn 0.691960(12) 0.947850(12) 0.260160(12)
O13_2 O 0.86907(8) 0.99354(9) 0.73496(9)
C28_2 C 0.95991(10) 0.98337(10) 0.68236(10)
C30_2 C 0.97666(11) 0.93262(10) 0.71395(10)
H18_2 H 0.9495 0.9140 0.7391
Zn3_3 Zn 0.447850(12) 0.239840(12) 0.308040(12)
O5_3 O 0.39612(11) 0.16337(12) 0.23812(12)
O7_3 O 0.48737(10) 0.17139(9) 0.27228(9)
O12_3 O 0.63093(8) 0.00646(9) 0.23496(9)
C27_3 C 0.54009(10) 0.01663(10) 0.18236(10)
C29_3 C 0.52334(11) 0.06738(10) 0.21395(10)
H17_3 H 0.5505 0.0860 0.2391
C31_3 C 0.46611(11) 0.09031(11) 0.20802(11)
C33_3 C 0.42533(11) 0.06227(12) 0.17083(13)
H19_3 H 0.3868 0.0772 0.1674
C35_3 C 0.44200(12) 0.01209(13) 0.13890(14)
H22_3 H 0.6138 0.0852 0.0065
C38_3 C 0.64446(12) 0.00066(12) 0.01048(11)
C41_3 C 0.44746(13) 0.14518(12) 0.24126(12)
O6_3 O 0.73812(12) 0.10388(11) 0.83663(12)
C32_3 C 0.70802(11) 0.03389(11) 0.90969(11)
C34_3 C 0.67083(13) 0.07467(11) 0.93773(12)
H20_3 H 0.6674 0.1132 0.9228
C36_3 C 0.63890(14) 0.05800(12) 0.98791(13)
C42_3 C 0.74126(12) 0.05254(13) 0.85482(12)
Zn1_3 Zn 0.637250(11) 0.862750(11) 0.137250(11)
Zn2_3 Zn 0.552150(12) 0.739840(12) 0.191960(12)
O3_3 O 0.49354(9) 0.76504(9) 0.13093(8)
O4_3 O 0.55007(7) 0.84514(8) 0.11652(8)
N1_3 N 0.63646(9) 0.87776(10) 0.27528(9)
N2_3 N 0.61759(9) 0.84404(9) 0.23042(8)
N3_3 N 0.57922(10) 0.80307(9) 0.24935(9)
C1_3 C 0.60926(13) 0.85788(13) 0.32576(11)
C2_3 C 0.57295(12) 0.81025(13) 0.30934(11)
C3_3 C 0.53834(17) 0.77923(17) 0.35157(14)
H1_3 H 0.5136 0.7478 0.3408
C4_3 C 0.5432(2) 0.7980(2) 0.40922(15)
H2_3 H 0.5215 0.7783 0.4385
C5_3 C 0.5798(2) 0.8460(2) 0.42602(14)
H3_3 H 0.5812 0.8572 0.4659
C6_3 C 0.61343(17) 0.87677(18) 0.38540(13)
H4_3 H 0.6377 0.9084 0.3966
C7_3 C 0.48337(10) 0.81764(10) 0.04009(10)
C8_3 C 0.43262(10) 0.78605(10) 0.02334(11)
H5_3 H 0.4140 0.7609 0.0505
H8_3 H 0.5439 0.8773 0.0105
C13_3 C 0.51091(10) 0.80919(11) 0.10017(10)
O10_3 O 0.51263(10) 0.67139(9) 0.22772(9)
O14_3 O 0.61652(8) 0.94993(7) 0.15486(8)
O15_3 O 0.65486(8) 0.88348(8) 0.05007(7)
N4_3 N 0.77528(9) 0.86354(9) 0.12224(10)
N5_3 N 0.62224(10) 0.72472(9) 0.13646(9)
N6_3 N 0.73042(8) 0.88241(9) 0.15596(9)
N7_3 N 0.65596(9) 0.76958(8) 0.11759(9)
N8_3 N 0.74935(9) 0.92078(10) 0.19693(9)
N9_3 N 0.69693(9) 0.75065(9) 0.07922(10)
C15_3 C 0.82576(11) 0.89074(13) 0.14212(13)
C16_3 C 0.64212(13) 0.67424(11) 0.10926(13)
C17_3 C 0.80934(11) 0.92705(12) 0.18975(13)
C18_3 C 0.68975(13) 0.69066(11) 0.07295(12)
C19_3 C 0.85157(14) 0.96166(17) 0.22077(17)
C20_3 C 0.72077(17) 0.64843(14) 0.03834(17)
H9_3 H 0.8408 0.9864 0.2522
H10_3 H 0.7522 0.6592 0.0136
C21_3 C 0.90922(15) 0.9568(2) 0.2020(2)
C22_3 C 0.7020(2) 0.59078(15) 0.0432(2)
H11_3 H 0.9385 0.9785 0.2217
H12_3 H 0.7217 0.5615 0.0215
C23_3 C 0.92602(14) 0.9202(2) 0.1540(2)
C24_3 C 0.6540(2) 0.57398(14) 0.0798(2)
H13_3 H 0.9659 0.9188 0.1428
H14_3 H 0.6428 0.5341 0.0812
C25_3 C 0.88540(13) 0.88657(17) 0.12323(18)
C26_3 C 0.62323(18) 0.61460(13) 0.11343(17)
H15_3 H 0.8966 0.8623 0.0916
H16_3 H 0.5916 0.6034 0.1377
H21_3 H 0.4148 0.9935 0.1138
C37_3 C 0.49934(12) 0.98952(11) 0.14446(12)
H23_3 H 0.5105 0.9561 0.1227
H24_3 H 0.6227 0.9895 0.0439
C39_3 C 0.60017(10) 0.98909(10) 0.19081(11)
C40_3 C 0.69081(11) 0.89983(10) 0.01091(10)
O1_3 O 0.33663(12) 0.76188(12) 0.89612(11)
C9_3 C 0.40969(11) 0.79198(11) 0.96611(11)
C10_3 C 0.43773(12) 0.82917(13) 0.92533(11)
H6_3 H 0.4228 0.8326 0.8868
C11_3 C 0.48791(13) 0.86110(14) 0.94200(12)
H7_3 H 0.5065 0.8862 0.9148
C12_3 C 0.51048(11) 0.85554(12) 0.99934(12)
C14_3 C 0.35482(12) 0.75874(12) 0.94746(13)
O13_3 O 0.73496(9) 0.86907(8) 0.99354(9)
C28_3 C 0.68236(10) 0.95991(10) 0.98337(10)
C30_3 C 0.71395(10) 0.97666(11) 0.93262(10)
H18_3 H 0.7391 0.9495 0.9140
Zn1_4 Zn 0.362750(11) 0.362750(11) 0.362750(11)
O1_4 O 0.60388(11) 0.66337(12) 0.26188(12)
O3_4 O 0.36907(8) 0.50646(9) 0.26504(9)
O4_4 O 0.38348(8) 0.44993(7) 0.34514(8)
N1_4 N 0.22472(9) 0.36354(9) 0.37776(10)
N2_4 N 0.26958(8) 0.38241(9) 0.34404(9)
N3_4 N 0.25065(9) 0.42078(10) 0.30307(9)
C1_4 C 0.17424(11) 0.39074(13) 0.35788(13)
C2_4 C 0.19066(11) 0.42705(12) 0.31025(13)
C3_4 C 0.14843(14) 0.46166(17) 0.27923(17)
H1_4 H 0.1592 0.4864 0.2478
C4_4 C 0.09078(15) 0.4568(2) 0.2980(2)
H2_4 H 0.0615 0.4785 0.2783
C5_4 C 0.07398(14) 0.4202(2) 0.3460(2)
H3_4 H 0.0341 0.4188 0.3572
C6_4 C 0.11460(13) 0.38657(17) 0.37677(18)
H4_4 H 0.1034 0.3623 0.4084
C7_4 C 0.45991(10) 0.51663(10) 0.31764(10)
C8_4 C 0.47666(11) 0.56738(10) 0.28605(10)
H5_4 H 0.4495 0.5860 0.2609
C9_4 C 0.53389(11) 0.59031(11) 0.29198(11)
C10_4 C 0.57467(11) 0.56227(12) 0.32917(13)
H6_4 H 0.6132 0.5772 0.3326
C11_4 C 0.55800(12) 0.51209(13) 0.36110(14)
H7_4 H 0.5852 0.4935 0.3862
C12_4 C 0.50066(12) 0.48952(11) 0.35554(12)
H8_4 H 0.4895 0.4561 0.3773
C13_4 C 0.39983(10) 0.48909(10) 0.30919(11)
C14_4 C 0.55254(13) 0.64518(12) 0.25874(12)
O5_4 O 0.26188(12) 0.60388(11) 0.66337(12)
O6_4 O 0.66337(12) 0.26188(12) 0.60388(11)
O12_4 O 0.26504(9) 0.36907(8) 0.50646(9)
O13_4 O 0.50646(9) 0.26504(9) 0.36907(8)
O14_4 O 0.34514(8) 0.38348(8) 0.44993(7)
O15_4 O 0.44993(7) 0.34514(8) 0.38348(8)
N4_4 N 0.37776(10) 0.22472(9) 0.36354(9)
N5_4 N 0.36354(9) 0.37776(10) 0.22472(9)
N6_4 N 0.34404(9) 0.26958(8) 0.38241(9)
N7_4 N 0.38241(9) 0.34404(9) 0.26958(8)
N8_4 N 0.30307(9) 0.25065(9) 0.42078(10)
N9_4 N 0.42078(10) 0.30307(9) 0.25065(9)
C15_4 C 0.35788(13) 0.17424(11) 0.39074(13)
C16_4 C 0.39074(13) 0.35788(13) 0.17424(11)
C17_4 C 0.31025(13) 0.19066(11) 0.42705(12)
C18_4 C 0.42705(12) 0.31025(13) 0.19066(11)
C19_4 C 0.27923(17) 0.14843(14) 0.46166(17)
C20_4 C 0.46166(17) 0.27923(17) 0.14843(14)
H9_4 H 0.2478 0.1592 0.4864
H10_4 H 0.4864 0.2478 0.1592
C21_4 C 0.2980(2) 0.09078(15) 0.4568(2)
C22_4 C 0.4568(2) 0.2980(2) 0.09078(15)
H11_4 H 0.2783 0.0615 0.4785
H12_4 H 0.4785 0.2783 0.0615
C23_4 C 0.3460(2) 0.07398(14) 0.4202(2)
C24_4 C 0.4202(2) 0.3460(2) 0.07398(14)
H13_4 H 0.3572 0.0341 0.4188
H14_4 H 0.4188 0.3572 0.0341
C25_4 C 0.37677(18) 0.11460(13) 0.38657(17)
C26_4 C 0.38657(17) 0.37677(18) 0.11460(13)
H15_4 H 0.4084 0.1034 0.3623
H16_4 H 0.3623 0.4084 0.1034
C27_4 C 0.31764(10) 0.45991(10) 0.51663(10)
C28_4 C 0.51663(10) 0.31764(10) 0.45991(10)
C29_4 C 0.28605(10) 0.47666(11) 0.56738(10)
C30_4 C 0.56738(10) 0.28605(10) 0.47666(11)
H17_4 H 0.2609 0.4495 0.5860
H18_4 H 0.5860 0.2609 0.4495
C31_4 C 0.29198(11) 0.53389(11) 0.59031(11)
C32_4 C 0.59031(11) 0.29198(11) 0.53389(11)
C33_4 C 0.32917(13) 0.57467(11) 0.56227(12)
C34_4 C 0.56227(12) 0.32917(13) 0.57467(11)
H19_4 H 0.3326 0.6132 0.5772
H20_4 H 0.5772 0.3326 0.6132
C35_4 C 0.36110(14) 0.55800(12) 0.51209(13)
C36_4 C 0.51209(13) 0.36110(14) 0.55800(12)
H21_4 H 0.3862 0.5852 0.4935
H22_4 H 0.4935 0.3862 0.5852
C37_4 C 0.35554(12) 0.50066(12) 0.48952(11)
C38_4 C 0.48952(11) 0.35554(12) 0.50066(12)
H23_4 H 0.3773 0.4895 0.4561
H24_4 H 0.4561 0.3773 0.4895
C39_4 C 0.30919(11) 0.39983(10) 0.48909(10)
C40_4 C 0.48909(10) 0.30919(11) 0.39983(10)
C41_4 C 0.25874(12) 0.55254(13) 0.64518(12)
C42_4 C 0.64518(12) 0.25874(12) 0.55254(13)
O1_5 O 0.10388(11) 0.66337(12) 0.23812(12)
O2_3 O 0.01263(10) 0.67139(9) 0.27228(9)
C9_5 C 0.03389(11) 0.59031(11) 0.20802(11)
C10_5 C 0.07467(11) 0.56227(12) 0.17083(13)
H6_5 H 0.1132 0.5772 0.1674
C11_5 C 0.05800(12) 0.51209(13) 0.13890(14)
H7_5 H 0.0852 0.4935 0.1138
C12_5 C 0.00066(12) 0.48952(11) 0.14446(12)
C14_5 C 0.05254(13) 0.64518(12) 0.24126(12)
Zn5_3 Zn 0.052150(12) 0.739840(12) 0.308040(12)
O13_5 O 0.00646(9) 0.26504(9) 0.13093(8)
C28_5 C 0.01663(10) 0.31764(10) 0.04009(10)
C30_5 C 0.06738(10) 0.28605(10) 0.02334(11)
H18_5 H 0.0860 0.2609 0.0505
Zn4_2 Zn 0.239840(12) 0.191960(12) 0.947850(12)
O6_5 O 0.16337(12) 0.26188(12) 0.89612(11)
O8_2 O 0.17139(9) 0.22772(9) 0.98737(10)
C32_5 C 0.09031(11) 0.29198(11) 0.96611(11)
C34_5 C 0.06227(12) 0.32917(13) 0.92533(11)
H20_5 H 0.0772 0.3326 0.8868
C36_5 C 0.01209(13) 0.36110(14) 0.94200(12)
C42_5 C 0.14518(12) 0.25874(12) 0.94746(13)
Zn1_5 Zn 0.862750(11) 0.362750(11) 0.137250(11)
Zn2_4 Zn 0.808040(12) 0.447850(12) 0.260160(12)
O3_5 O 0.86907(8) 0.50646(9) 0.23496(9)
O4_5 O 0.88348(8) 0.44993(7) 0.15486(8)
N1_5 N 0.72472(9) 0.36354(9) 0.12224(10)
N2_5 N 0.76958(8) 0.38241(9) 0.15596(9)
N3_5 N 0.75065(9) 0.42078(10) 0.19693(9)
C1_5 C 0.67424(11) 0.39074(13) 0.14212(13)
C2_5 C 0.69066(11) 0.42705(12) 0.18975(13)
C3_5 C 0.64843(14) 0.46166(17) 0.22077(17)
H1_5 H 0.6592 0.4864 0.2522
C4_5 C 0.59078(15) 0.4568(2) 0.2020(2)
H2_5 H 0.5615 0.4785 0.2217
C5_5 C 0.57398(14) 0.4202(2) 0.1540(2)
H3_5 H 0.5341 0.4188 0.1428
C6_5 C 0.61460(13) 0.38657(17) 0.12323(18)
H4_5 H 0.6034 0.3623 0.0916
C7_5 C 0.95991(10) 0.51663(10) 0.18236(10)
C8_5 C 0.97666(11) 0.56738(10) 0.21395(10)
H5_5 H 0.9495 0.5860 0.2391
H8_5 H 0.9895 0.4561 0.1227
C13_5 C 0.89983(10) 0.48909(10) 0.19081(11)
Zn6_2 Zn 0.739840(12) 0.308040(12) 0.052150(12)
Zn7_3 Zn 0.947850(12) 0.239840(12) 0.191960(12)
O9_3 O 0.98737(10) 0.17139(9) 0.22772(9)
O10_4 O 0.77228(9) 0.48737(10) 0.32861(9)
O11_2 O 0.67139(9) 0.27228(9) 0.01263(10)
O14_5 O 0.84514(8) 0.38348(8) 0.05007(7)
O15_5 O 0.94993(7) 0.34514(8) 0.11652(8)
N4_5 N 0.87776(10) 0.22472(9) 0.13646(9)
N5_5 N 0.86354(9) 0.37776(10) 0.27528(9)
N6_5 N 0.84404(9) 0.26958(8) 0.11759(9)
N7_5 N 0.88241(9) 0.34404(9) 0.23042(8)
N8_5 N 0.80307(9) 0.25065(9) 0.07922(10)
N9_5 N 0.92078(10) 0.30307(9) 0.24935(9)
C15_5 C 0.85788(13) 0.17424(11) 0.10926(13)
C16_5 C 0.89074(13) 0.35788(13) 0.32576(11)
C17_5 C 0.81025(13) 0.19066(11) 0.07295(12)
C18_5 C 0.92705(12) 0.31025(13) 0.30934(11)
C19_5 C 0.77923(17) 0.14843(14) 0.03834(17)
C20_5 C 0.96166(17) 0.27923(17) 0.35157(14)
H9_5 H 0.7478 0.1592 0.0136
H10_5 H 0.9864 0.2478 0.3408
C21_5 C 0.7980(2) 0.09078(15) 0.0432(2)
C22_5 C 0.9568(2) 0.2980(2) 0.40922(15)
H11_5 H 0.7783 0.0615 0.0215
H12_5 H 0.9785 0.2783 0.4385
C23_5 C 0.8460(2) 0.07398(14) 0.0798(2)
C24_5 C 0.9202(2) 0.3460(2) 0.42602(14)
H13_5 H 0.8572 0.0341 0.0812
H14_5 H 0.9188 0.3572 0.4659
C25_5 C 0.87677(18) 0.11460(13) 0.11343(17)
C26_5 C 0.88657(17) 0.37677(18) 0.38540(13)
H15_5 H 0.9084 0.1034 0.1377
H16_5 H 0.8623 0.4084 0.3966
H21_5 H 0.8862 0.5852 0.0065
C37_5 C 0.85554(12) 0.50066(12) 0.01048(11)
H23_5 H 0.8773 0.4895 0.0439
H24_5 H 0.9561 0.3773 0.0105
C39_5 C 0.80919(11) 0.39983(10) 0.01091(10)
C40_5 C 0.98909(10) 0.30919(11) 0.10017(10)
Zn3_4 Zn 0.691960(12) 0.552150(12) 0.760160(12)
O5_5 O 0.76188(12) 0.60388(11) 0.83663(12)
O7_4 O 0.72772(9) 0.51263(10) 0.82861(9)
O12_5 O 0.76504(9) 0.36907(8) 0.99354(9)
C27_5 C 0.81764(10) 0.45991(10) 0.98337(10)
C29_5 C 0.78605(10) 0.47666(11) 0.93262(10)
H17_5 H 0.7609 0.4495 0.9140
C31_5 C 0.79198(11) 0.53389(11) 0.90969(11)
C33_5 C 0.82917(13) 0.57467(11) 0.93773(12)
H19_5 H 0.8326 0.6132 0.9228
C35_5 C 0.86110(14) 0.55800(12) 0.98791(13)
H22_5 H 0.9935 0.3862 0.9148
C38_5 C 0.98952(11) 0.35554(12) 0.99934(12)
C41_5 C 0.75874(12) 0.55254(13) 0.85482(12)
O1_6 O 0.23812(12) 0.10388(11) 0.66337(12)
O2_4 O 0.27228(9) 0.01263(10) 0.67139(9)
C9_6 C 0.20802(11) 0.03389(11) 0.59031(11)
C10_6 C 0.17083(13) 0.07467(11) 0.56227(12)
H6_6 H 0.1674 0.1132 0.5772
C11_6 C 0.13890(14) 0.05800(12) 0.51209(13)
H7_6 H 0.1138 0.0852 0.4935
C12_6 C 0.14446(12) 0.00066(12) 0.48952(11)
C14_6 C 0.24126(12) 0.05254(13) 0.64518(12)
Zn5_4 Zn 0.308040(12) 0.052150(12) 0.739840(12)
O13_6 O 0.13093(8) 0.00646(9) 0.26504(9)
C28_6 C 0.04009(10) 0.01663(10) 0.31764(10)
C30_6 C 0.02334(11) 0.06738(10) 0.28605(10)
H18_6 H 0.0505 0.0860 0.2609
Zn1_6 Zn 0.137250(11) 0.862750(11) 0.362750(11)
Zn2_5 Zn 0.260160(12) 0.808040(12) 0.447850(12)
O3_6 O 0.23496(9) 0.86907(8) 0.50646(9)
O4_6 O 0.15486(8) 0.88348(8) 0.44993(7)
N1_6 N 0.12224(10) 0.72472(9) 0.36354(9)
N2_6 N 0.15596(9) 0.76958(8) 0.38241(9)
N3_6 N 0.19693(9) 0.75065(9) 0.42078(10)
C1_6 C 0.14212(13) 0.67424(11) 0.39074(13)
C2_6 C 0.18975(13) 0.69066(11) 0.42705(12)
C3_6 C 0.22077(17) 0.64843(14) 0.46166(17)
H1_6 H 0.2522 0.6592 0.4864
C4_6 C 0.2020(2) 0.59078(15) 0.4568(2)
H2_6 H 0.2217 0.5615 0.4785
C5_6 C 0.1540(2) 0.57398(14) 0.4202(2)
H3_6 H 0.1428 0.5341 0.4188
C6_6 C 0.12323(18) 0.61460(13) 0.38657(17)
H4_6 H 0.0916 0.6034 0.3623
C7_6 C 0.18236(10) 0.95991(10) 0.51663(10)
C8_6 C 0.21395(10) 0.97666(11) 0.56738(10)
H5_6 H 0.2391 0.9495 0.5860
H8_6 H 0.1227 0.9895 0.4561
C13_6 C 0.19081(11) 0.89983(10) 0.48909(10)
Zn7_4 Zn 0.191960(12) 0.947850(12) 0.239840(12)
O9_4 O 0.22772(9) 0.98737(10) 0.17139(9)
O10_5 O 0.32861(9) 0.77228(9) 0.48737(10)
O14_6 O 0.05007(7) 0.84514(8) 0.38348(8)
O15_6 O 0.11652(8) 0.94993(7) 0.34514(8)
N4_6 N 0.13646(9) 0.87776(10) 0.22472(9)
N5_6 N 0.27528(9) 0.86354(9) 0.37776(10)
N6_6 N 0.11759(9) 0.84404(9) 0.26958(8)
N7_6 N 0.23042(8) 0.88241(9) 0.34404(9)
N8_6 N 0.07922(10) 0.80307(9) 0.25065(9)
N9_6 N 0.24935(9) 0.92078(10) 0.30307(9)
C15_6 C 0.10926(13) 0.85788(13) 0.17424(11)
C16_6 C 0.32576(11) 0.89074(13) 0.35788(13)
C17_6 C 0.07295(12) 0.81025(13) 0.19066(11)
C18_6 C 0.30934(11) 0.92705(12) 0.31025(13)
C19_6 C 0.03834(17) 0.77923(17) 0.14843(14)
C20_6 C 0.35157(14) 0.96166(17) 0.27923(17)
H9_6 H 0.0136 0.7478 0.1592
H10_6 H 0.3408 0.9864 0.2478
C21_6 C 0.0432(2) 0.7980(2) 0.09078(15)
C22_6 C 0.40922(15) 0.9568(2) 0.2980(2)
H11_6 H 0.0215 0.7783 0.0615
H12_6 H 0.4385 0.9785 0.2783
C23_6 C 0.0798(2) 0.8460(2) 0.07398(14)
C24_6 C 0.42602(14) 0.9202(2) 0.3460(2)
H13_6 H 0.0812 0.8572 0.0341
H14_6 H 0.4659 0.9188 0.3572
C25_6 C 0.11343(17) 0.87677(18) 0.11460(13)
C26_6 C 0.38540(13) 0.88657(17) 0.37677(18)
H15_6 H 0.1377 0.9084 0.1034
H16_6 H 0.3966 0.8623 0.4084
H21_6 H 0.0065 0.8862 0.5852
C37_6 C 0.01048(11) 0.85554(12) 0.50066(12)
H23_6 H 0.0439 0.8773 0.4895
H24_6 H 0.0105 0.9561 0.3773
C39_6 C 0.01091(10) 0.80919(11) 0.39983(10)
C40_6 C 0.10017(10) 0.98909(10) 0.30919(11)
O6_6 O 0.89612(11) 0.16337(12) 0.26188(12)
C32_6 C 0.96611(11) 0.09031(11) 0.29198(11)
C34_6 C 0.92533(11) 0.06227(12) 0.32917(13)
H20_6 H 0.8868 0.0772 0.3326
C36_6 C 0.94200(12) 0.01209(13) 0.36110(14)
C42_6 C 0.94746(13) 0.14518(12) 0.25874(12)
Zn3_5 Zn 0.760160(12) 0.691960(12) 0.552150(12)
O5_6 O 0.83663(12) 0.76188(12) 0.60388(11)
O7_5 O 0.82861(9) 0.72772(9) 0.51263(10)
O12_6 O 0.99354(9) 0.76504(9) 0.36907(8)
C27_6 C 0.98337(10) 0.81764(10) 0.45991(10)
C29_6 C 0.93262(10) 0.78605(10) 0.47666(11)
H17_6 H 0.9140 0.7609 0.4495
C31_6 C 0.90969(11) 0.79198(11) 0.53389(11)
C33_6 C 0.93773(12) 0.82917(13) 0.57467(11)
H19_6 H 0.9228 0.8326 0.6132
C35_6 C 0.98791(13) 0.86110(14) 0.55800(12)
H22_6 H 0.9148 0.9935 0.3862
C38_6 C 0.99934(12) 0.98952(11) 0.35554(12)
C41_6 C 0.85482(12) 0.75874(12) 0.55254(13)
O1_7 O 0.66337(12) 0.23812(12) 0.10388(11)
C9_7 C 0.59031(11) 0.20802(11) 0.03389(11)
C10_7 C 0.56227(12) 0.17083(13) 0.07467(11)
H6_7 H 0.5772 0.1674 0.1132
C11_7 C 0.51209(13) 0.13890(14) 0.05800(12)
H7_7 H 0.4935 0.1138 0.0852
C12_7 C 0.48952(11) 0.14446(12) 0.00066(12)
C14_7 C 0.64518(12) 0.24126(12) 0.05254(13)
O13_7 O 0.26504(9) 0.13093(8) 0.00646(9)
C28_7 C 0.31764(10) 0.04009(10) 0.01663(10)
C30_7 C 0.28605(10) 0.02334(11) 0.06738(10)
H18_7 H 0.2609 0.0505 0.0860
Zn1_7 Zn 0.362750(11) 0.137250(11) 0.862750(11)
Zn2_6 Zn 0.447850(12) 0.260160(12) 0.808040(12)
O3_7 O 0.50646(9) 0.23496(9) 0.86907(8)
O4_7 O 0.44993(7) 0.15486(8) 0.88348(8)
N1_7 N 0.36354(9) 0.12224(10) 0.72472(9)
N2_7 N 0.38241(9) 0.15596(9) 0.76958(8)
N3_7 N 0.42078(10) 0.19693(9) 0.75065(9)
C1_7 C 0.39074(13) 0.14212(13) 0.67424(11)
C2_7 C 0.42705(12) 0.18975(13) 0.69066(11)
C3_7 C 0.46166(17) 0.22077(17) 0.64843(14)
H1_7 H 0.4864 0.2522 0.6592
C4_7 C 0.4568(2) 0.2020(2) 0.59078(15)
H2_7 H 0.4785 0.2217 0.5615
C5_7 C 0.4202(2) 0.1540(2) 0.57398(14)
H3_7 H 0.4188 0.1428 0.5341
C6_7 C 0.38657(17) 0.12323(18) 0.61460(13)
H4_7 H 0.3623 0.0916 0.6034
C7_7 C 0.51663(10) 0.18236(10) 0.95991(10)
C8_7 C 0.56738(10) 0.21395(10) 0.97666(11)
H5_7 H 0.5860 0.2391 0.9495
H8_7 H 0.4561 0.1227 0.9895
C13_7 C 0.48909(10) 0.19081(11) 0.89983(10)
O10_6 O 0.48737(10) 0.32861(9) 0.77228(9)
O14_7 O 0.38348(8) 0.05007(7) 0.84514(8)
O15_7 O 0.34514(8) 0.11652(8) 0.94993(7)
N4_7 N 0.22472(9) 0.13646(9) 0.87776(10)
N5_7 N 0.37776(10) 0.27528(9) 0.86354(9)
N6_7 N 0.26958(8) 0.11759(9) 0.84404(9)
N7_7 N 0.34404(9) 0.23042(8) 0.88241(9)
N8_7 N 0.25065(9) 0.07922(10) 0.80307(9)
N9_7 N 0.30307(9) 0.24935(9) 0.92078(10)
C15_7 C 0.17424(11) 0.10926(13) 0.85788(13)
C16_7 C 0.35788(13) 0.32576(11) 0.89074(13)
C17_7 C 0.19066(11) 0.07295(12) 0.81025(13)
C18_7 C 0.31025(13) 0.30934(11) 0.92705(12)
C19_7 C 0.14843(14) 0.03834(17) 0.77923(17)
C20_7 C 0.27923(17) 0.35157(14) 0.96166(17)
H9_7 H 0.1592 0.0136 0.7478
H10_7 H 0.2478 0.3408 0.9864
C21_7 C 0.09078(15) 0.0432(2) 0.7980(2)
C22_7 C 0.2980(2) 0.40922(15) 0.9568(2)
H11_7 H 0.0615 0.0215 0.7783
H12_7 H 0.2783 0.4385 0.9785
C23_7 C 0.07398(14) 0.0798(2) 0.8460(2)
C24_7 C 0.3460(2) 0.42602(14) 0.9202(2)
H13_7 H 0.0341 0.0812 0.8572
H14_7 H 0.3572 0.4659 0.9188
C25_7 C 0.11460(13) 0.11343(17) 0.87677(18)
C26_7 C 0.37677(18) 0.38540(13) 0.88657(17)
H15_7 H 0.1034 0.1377 0.9084
H16_7 H 0.4084 0.3966 0.8623
H21_7 H 0.5852 0.0065 0.8862
C37_7 C 0.50066(12) 0.01048(11) 0.85554(12)
H23_7 H 0.4895 0.0439 0.8773
H24_7 H 0.3773 0.0105 0.9561
C39_7 C 0.39983(10) 0.01091(10) 0.80919(11)
C40_7 C 0.30919(11) 0.10017(10) 0.98909(10)
O6_7 O 0.26188(12) 0.89612(11) 0.16337(12)
C32_7 C 0.29198(11) 0.96611(11) 0.09031(11)
C34_7 C 0.32917(13) 0.92533(11) 0.06227(12)
H20_7 H 0.3326 0.8868 0.0772
C36_7 C 0.36110(14) 0.94200(12) 0.01209(13)
C42_7 C 0.25874(12) 0.94746(13) 0.14518(12)
Zn3_6 Zn 0.552150(12) 0.760160(12) 0.691960(12)
O5_7 O 0.60388(11) 0.83663(12) 0.76188(12)
O7_6 O 0.51263(10) 0.82861(9) 0.72772(9)
O12_7 O 0.36907(8) 0.99354(9) 0.76504(9)
C27_7 C 0.45991(10) 0.98337(10) 0.81764(10)
C29_7 C 0.47666(11) 0.93262(10) 0.78605(10)
H17_7 H 0.4495 0.9140 0.7609
C31_7 C 0.53389(11) 0.90969(11) 0.79198(11)
C33_7 C 0.57467(11) 0.93773(12) 0.82917(13)
H19_7 H 0.6132 0.9228 0.8326
C35_7 C 0.55800(12) 0.98791(13) 0.86110(14)
H22_7 H 0.3862 0.9148 0.9935
C38_7 C 0.35554(12) 0.99934(12) 0.98952(11)
C41_7 C 0.55254(13) 0.85482(12) 0.75874(12)
Zn1_8 Zn 0.637250(11) 0.637250(11) 0.637250(11)
O1_8 O 0.39612(11) 0.33663(12) 0.73812(12)
O3_8 O 0.63093(8) 0.49354(9) 0.73496(9)
O4_8 O 0.61652(8) 0.55007(7) 0.65486(8)
N1_8 N 0.77528(9) 0.63646(9) 0.62224(10)
N2_8 N 0.73042(8) 0.61759(9) 0.65596(9)
N3_8 N 0.74935(9) 0.57922(10) 0.69693(9)
C1_8 C 0.82576(11) 0.60926(13) 0.64212(13)
C2_8 C 0.80934(11) 0.57295(12) 0.68975(13)
C3_8 C 0.85157(14) 0.53834(17) 0.72077(17)
H1_8 H 0.8408 0.5136 0.7522
C4_8 C 0.90922(15) 0.5432(2) 0.7020(2)
H2_8 H 0.9385 0.5215 0.7217
C5_8 C 0.92602(14) 0.5798(2) 0.6540(2)
H3_8 H 0.9659 0.5812 0.6428
C6_8 C 0.88540(13) 0.61343(17) 0.62323(18)
H4_8 H 0.8966 0.6377 0.5916
C7_8 C 0.54009(10) 0.48337(10) 0.68236(10)
C8_8 C 0.52334(11) 0.43262(10) 0.71395(10)
H5_8 H 0.5505 0.4140 0.7391
C9_8 C 0.46611(11) 0.40969(11) 0.70802(11)
C10_8 C 0.42533(11) 0.43773(12) 0.67083(13)
H6_8 H 0.3868 0.4228 0.6674
C11_8 C 0.44200(12) 0.48791(13) 0.63890(14)
H7_8 H 0.4148 0.5065 0.6138
C12_8 C 0.49934(12) 0.51048(11) 0.64446(12)
H8_8 H 0.5105 0.5439 0.6227
C13_8 C 0.60017(10) 0.51091(10) 0.69081(11)
C14_8 C 0.44746(13) 0.35482(12) 0.74126(12)
O5_8 O 0.73812(12) 0.39612(11) 0.33663(12)
O6_8 O 0.33663(12) 0.73812(12) 0.39612(11)
O12_8 O 0.73496(9) 0.63093(8) 0.49354(9)
O13_8 O 0.49354(9) 0.73496(9) 0.63093(8)
O14_8 O 0.65486(8) 0.61652(8) 0.55007(7)
O15_8 O 0.55007(7) 0.65486(8) 0.61652(8)
N4_8 N 0.62224(10) 0.77528(9) 0.63646(9)
N5_8 N 0.63646(9) 0.62224(10) 0.77528(9)
N6_8 N 0.65596(9) 0.73042(8) 0.61759(9)
N7_8 N 0.61759(9) 0.65596(9) 0.73042(8)
N8_8 N 0.69693(9) 0.74935(9) 0.57922(10)
N9_8 N 0.57922(10) 0.69693(9) 0.74935(9)
C15_8 C 0.64212(13) 0.82576(11) 0.60926(13)
C16_8 C 0.60926(13) 0.64212(13) 0.82576(11)
C17_8 C 0.68975(13) 0.80934(11) 0.57295(12)
C18_8 C 0.57295(12) 0.68975(13) 0.80934(11)
C19_8 C 0.72077(17) 0.85157(14) 0.53834(17)
C20_8 C 0.53834(17) 0.72077(17) 0.85157(14)
H9_8 H 0.7522 0.8408 0.5136
H10_8 H 0.5136 0.7522 0.8408
C21_8 C 0.7020(2) 0.90922(15) 0.5432(2)
C22_8 C 0.5432(2) 0.7020(2) 0.90922(15)
H11_8 H 0.7217 0.9385 0.5215
H12_8 H 0.5215 0.7217 0.9385
C23_8 C 0.6540(2) 0.92602(14) 0.5798(2)
C24_8 C 0.5798(2) 0.6540(2) 0.92602(14)
H13_8 H 0.6428 0.9659 0.5812
H14_8 H 0.5812 0.6428 0.9659
C25_8 C 0.62323(18) 0.88540(13) 0.61343(17)
C26_8 C 0.61343(17) 0.62323(18) 0.88540(13)
H15_8 H 0.5916 0.8966 0.6377
H16_8 H 0.6377 0.5916 0.8966
C27_8 C 0.68236(10) 0.54009(10) 0.48337(10)
C28_8 C 0.48337(10) 0.68236(10) 0.54009(10)
C29_8 C 0.71395(10) 0.52334(11) 0.43262(10)
C30_8 C 0.43262(10) 0.71395(10) 0.52334(11)
H17_8 H 0.7391 0.5505 0.4140
H18_8 H 0.4140 0.7391 0.5505
C31_8 C 0.70802(11) 0.46611(11) 0.40969(11)
C32_8 C 0.40969(11) 0.70802(11) 0.46611(11)
C33_8 C 0.67083(13) 0.42533(11) 0.43773(12)
C34_8 C 0.43773(12) 0.67083(13) 0.42533(11)
H19_8 H 0.6674 0.3868 0.4228
H20_8 H 0.4228 0.6674 0.3868
C35_8 C 0.63890(14) 0.44200(12) 0.48791(13)
C36_8 C 0.48791(13) 0.63890(14) 0.44200(12)
H21_8 H 0.6138 0.4148 0.5065
H22_8 H 0.5065 0.6138 0.4148
C37_8 C 0.64446(12) 0.49934(12) 0.51048(11)
C38_8 C 0.51048(11) 0.64446(12) 0.49934(12)
H23_8 H 0.6227 0.5105 0.5439
H24_8 H 0.5439 0.6227 0.5105
C39_8 C 0.69081(11) 0.60017(10) 0.51091(10)
C40_8 C 0.51091(10) 0.69081(11) 0.60017(10)
C41_8 C 0.74126(12) 0.44746(13) 0.35482(12)
C42_8 C 0.35482(12) 0.74126(12) 0.44746(13)
N10 N 0.2900(4) 0.7900(4) 0.7100(4)
H25 H 0.3112 0.8112 0.6888
C43 C 0.2656(9) 0.8754(6) 0.7858(8)
C44 C 0.2635(11) 0.8145(8) 0.7704(8)
C45 C 0.2142(8) 0.7656(9) 0.6246(6)
C46 C 0.3754(6) 0.7142(8) 0.7344(9)
C47 C 0.2296(8) 0.7635(11) 0.6855(8)
C48 C 0.3145(8) 0.7296(8) 0.7365(11)
H26 H 0.286598 0.790788 0.805888
H27 H 0.216571 0.802136 0.770562
H28 H 0.401361 0.747596 0.758189
H29 H 0.38185 0.670843 0.755227
H30 H 0.390013 0.71227 0.688162
H31 H 0.194112 0.786598 0.709212
H32 H 0.229438 0.716571 0.697864
H33 H 0.247596 0.741811 0.598639
H34 H 0.170843 0.744773 0.61815
H35 H 0.21227 0.811838 0.609987
H36 H 0.290788 0.694112 0.713402
H37 H 0.302136 0.729438 0.783429
H38 H 0.241811 0.901361 0.752404
H39 H 0.244773 0.88185 0.829157
H40 H 0.311838 0.890013 0.78773
N10_2 N 0.7100(4) 0.2900(4) 0.7900(4)
H25_2 H 0.6888 0.3112 0.8112
C43_2 C 0.7858(8) 0.2656(9) 0.8754(6)
C44_2 C 0.7704(8) 0.2635(11) 0.8145(8)
C45_2 C 0.6246(6) 0.2142(8) 0.7656(9)
C46_2 C 0.7344(9) 0.3754(6) 0.7142(8)
C47_2 C 0.6855(8) 0.2296(8) 0.7635(11)
C48_2 C 0.7365(11) 0.3145(8) 0.7296(8)
H26_2 H 0.805888 0.286598 0.790788
H27_2 H 0.770562 0.216571 0.802136
H28_2 H 0.758189 0.401361 0.747596
H29_2 H 0.755227 0.38185 0.670843
H30_2 H 0.688162 0.390013 0.71227
H31_2 H 0.709212 0.194112 0.786598
H32_2 H 0.697864 0.229438 0.716571
H33_2 H 0.598639 0.247596 0.741811
H34_2 H 0.61815 0.170843 0.744773
H35_2 H 0.609987 0.21227 0.811838
H36_2 H 0.713402 0.290788 0.694112
H37_2 H 0.783429 0.302136 0.729438
H38_2 H 0.752404 0.241811 0.901361
H39_2 H 0.829157 0.244773 0.88185
H40_2 H 0.78773 0.311838 0.890013
N10_3 N 0.7900(4) 0.7100(4) 0.2900(4)
H25_3 H 0.8112 0.6888 0.3112
C43_3 C 0.8754(6) 0.7858(8) 0.2656(9)
C44_3 C 0.8145(8) 0.7704(8) 0.2635(11)
C45_3 C 0.7656(9) 0.6246(6) 0.2142(8)
C46_3 C 0.7142(8) 0.7344(9) 0.3754(6)
C47_3 C 0.7635(11) 0.6855(8) 0.2296(8)
C48_3 C 0.7296(8) 0.7365(11) 0.3145(8)
H26_3 H 0.790788 0.805888 0.286598
H27_3 H 0.802136 0.770562 0.216571
H28_3 H 0.747596 0.758189 0.401361
H29_3 H 0.670843 0.755227 0.38185
H30_3 H 0.71227 0.688162 0.390013
H31_3 H 0.786598 0.709212 0.194112
H32_3 H 0.716571 0.697864 0.229438
H33_3 H 0.741811 0.598639 0.247596
H34_3 H 0.744773 0.61815 0.170843
H35_3 H 0.811838 0.609987 0.21227
H36_3 H 0.694112 0.713402 0.290788
H37_3 H 0.729438 0.783429 0.302136
H38_3 H 0.901361 0.752404 0.241811
H39_3 H 0.88185 0.829157 0.244773
H40_3 H 0.890013 0.78773 0.311838
N10_4 N 0.2100(4) 0.2100(4) 0.2100(4)
H25_4 H 0.1888 0.1888 0.1888
C43_4 C 0.2344(9) 0.1246(6) 0.2858(8)
C44_4 C 0.2365(11) 0.1855(8) 0.2704(8)
C45_4 C 0.2858(8) 0.2344(9) 0.1246(6)
C46_4 C 0.1246(6) 0.2858(8) 0.2344(9)
C47_4 C 0.2704(8) 0.2365(11) 0.1855(8)
C48_4 C 0.1855(8) 0.2704(8) 0.2365(11)
H26_4 H 0.213402 0.209212 0.305888
H27_4 H 0.283429 0.197864 0.270562
H28_4 H 0.0986392 0.252404 0.258189
H29_4 H 0.11815 0.329157 0.255227
H30_4 H 0.109987 0.28773 0.188162
H31_4 H 0.305888 0.213402 0.209212
H32_4 H 0.270562 0.283429 0.197864
H33_4 H 0.252404 0.258189 0.0986392
H34_4 H 0.329157 0.255227 0.11815
H35_4 H 0.28773 0.188162 0.109987
H36_4 H 0.209212 0.305888 0.213402
H37_4 H 0.197864 0.270562 0.283429
H38_4 H 0.258189 0.0986392 0.252404
H39_4 H 0.255227 0.11815 0.329157
H40_4 H 0.188162 0.109987 0.28773
N10_5 N 0.7100(4) 0.2100(4) 0.2900(4)
H25_5 H 0.6888 0.1888 0.3112
C43_5 C 0.7344(9) 0.1246(6) 0.2142(8)
C44_5 C 0.7365(11) 0.1855(8) 0.2296(8)
C45_5 C 0.7858(8) 0.2344(9) 0.3754(6)
C46_5 C 0.6246(6) 0.2858(8) 0.2656(9)
C47_5 C 0.7704(8) 0.2365(11) 0.3145(8)
C48_5 C 0.6855(8) 0.2704(8) 0.2635(11)
H26_5 H 0.713402 0.209212 0.194112
H27_5 H 0.783429 0.197864 0.229438
H28_5 H 0.598639 0.252404 0.241811
H29_5 H 0.61815 0.329157 0.244773
H30_5 H 0.609987 0.28773 0.311838
H31_5 H 0.805888 0.213402 0.290788
H32_5 H 0.770562 0.283429 0.302136
H33_5 H 0.752404 0.258189 0.401361
H34_5 H 0.829157 0.255227 0.38185
H35_5 H 0.78773 0.188162 0.390013
H36_5 H 0.709212 0.305888 0.286598
H37_5 H 0.697864 0.270562 0.216571
H38_5 H 0.758189 0.0986392 0.247596
H39_5 H 0.755227 0.11815 0.170843
H40_5 H 0.688162 0.109987 0.21227
N10_6 N 0.2900(4) 0.7100(4) 0.2100(4)
H25_6 H 0.3112 0.6888 0.1888
C43_6 C 0.2142(8) 0.7344(9) 0.1246(6)
C44_6 C 0.2296(8) 0.7365(11) 0.1855(8)
C45_6 C 0.3754(6) 0.7858(8) 0.2344(9)
C46_6 C 0.2656(9) 0.6246(6) 0.2858(8)
C47_6 C 0.3145(8) 0.7704(8) 0.2365(11)
C48_6 C 0.2635(11) 0.6855(8) 0.2704(8)
H26_6 H 0.194112 0.713402 0.209212
H27_6 H 0.229438 0.783429 0.197864
H28_6 H 0.241811 0.598639 0.252404
H29_6 H 0.244773 0.61815 0.329157
H30_6 H 0.311838 0.609987 0.28773
H31_6 H 0.290788 0.805888 0.213402
H32_6 H 0.302136 0.770562 0.283429
H33_6 H 0.401361 0.752404 0.258189
H34_6 H 0.38185 0.829157 0.255227
H35_6 H 0.390013 0.78773 0.188162
H36_6 H 0.286598 0.709212 0.305888
H37_6 H 0.216571 0.697864 0.270562
H38_6 H 0.247596 0.758189 0.0986392
H39_6 H 0.170843 0.755227 0.11815
H40_6 H 0.21227 0.688162 0.109987
N10_7 N 0.2100(4) 0.2900(4) 0.7100(4)
H25_7 H 0.1888 0.3112 0.6888
C43_7 C 0.1246(6) 0.2142(8) 0.7344(9)
C44_7 C 0.1855(8) 0.2296(8) 0.7365(11)
C45_7 C 0.2344(9) 0.3754(6) 0.7858(8)
C46_7 C 0.2858(8) 0.2656(9) 0.6246(6)
C47_7 C 0.2365(11) 0.3145(8) 0.7704(8)
C48_7 C 0.2704(8) 0.2635(11) 0.6855(8)
H26_7 H 0.209212 0.194112 0.713402
H27_7 H 0.197864 0.229438 0.783429
H28_7 H 0.252404 0.241811 0.598639
H29_7 H 0.329157 0.244773 0.61815
H30_7 H 0.28773 0.311838 0.609987
H31_7 H 0.213402 0.290788 0.805888
H32_7 H 0.283429 0.302136 0.770562
H33_7 H 0.258189 0.401361 0.752404
H34_7 H 0.255227 0.38185 0.829157
H35_7 H 0.188162 0.390013 0.78773
H36_7 H 0.305888 0.286598 0.709212
H37_7 H 0.270562 0.216571 0.697864
H38_7 H 0.0986392 0.247596 0.758189
H39_7 H 0.11815 0.170843 0.755227
H40_7 H 0.109987 0.21227 0.688162
N10_8 N 0.7900(4) 0.7900(4) 0.7900(4)
H25_8 H 0.8112 0.8112 0.8112
C43_8 C 0.7656(9) 0.8754(6) 0.7142(8)
C44_8 C 0.7635(11) 0.8145(8) 0.7296(8)
C45_8 C 0.7142(8) 0.7656(9) 0.8754(6)
C46_8 C 0.8754(6) 0.7142(8) 0.7656(9)
C47_8 C 0.7296(8) 0.7635(11) 0.8145(8)
C48_8 C 0.8145(8) 0.7296(8) 0.7635(11)
H26_8 H 0.786598 0.790788 0.694112
H27_8 H 0.716571 0.802136 0.729438
H28_8 H 0.901361 0.747596 0.741811
H29_8 H 0.88185 0.670843 0.744773
H30_8 H 0.890013 0.71227 0.811838
H31_8 H 0.694112 0.786598 0.790788
H32_8 H 0.729438 0.716571 0.802136
H33_8 H 0.747596 0.741811 0.901361
H34_8 H 0.670843 0.744773 0.88185
H35_8 H 0.71227 0.811838 0.890013
H36_8 H 0.790788 0.694112 0.786598
H37_8 H 0.802136 0.729438 0.716571
H38_8 H 0.741811 0.901361 0.747596
H39_8 H 0.744773 0.88185 0.670843
H40_8 H 0.811838 0.890013 0.71227
loop_
_geom_bond_atom_site_label_1
_geom_bond_atom_site_label_2
_geom_bond_site_symmetry_1
_geom_bond_site_symmetry_2
Zn3 O7 1_555 1_555
O5 C41 1_555 1_555
O7 C41 1_555 1_555
C27 C29 1_555 1_555
C29 H17 1_555 1_555
C31 C29 1_555 1_555
C33 C31 1_555 1_555
H19 C33 1_555 1_555
C35 C33 1_555 1_555
C41 C31 1_555 1_555
Zn1 O4 1_555 1_555
Zn2 O3 1_555 1_555
O3 C13 1_555 1_555
O4 C13 1_555 1_555
N1 N2 1_555 1_555
N2 Zn1 1_555 1_555
N3 Zn2 1_555 1_555
C1 N1 1_555 1_555
C2 N3 1_555 1_555
C3 C2 1_555 1_555
H1 C3 1_555 1_555
C4 C3 1_555 1_555
H2 C4 1_555 1_555
C5 C4 1_555 1_555
H3 C5 1_555 1_555
C6 C1 1_555 1_555
H4 C6 1_555 1_555
C7 C8 1_555 1_555
C8 H5 1_555 1_555
C13 C7 1_555 1_555
Zn6 N1 1_555 1_555
Zn7 O9 1_555 1_555
O10 Zn2 1_555 1_555
O11 Zn6 1_555 1_555
O14 Zn1 1_555 1_555
O15 Zn1 1_555 1_555
N4 Zn7 1_555 1_555
N5 Zn2 1_555 1_555
N6 Zn1 1_555 1_555
N7 Zn1 1_555 1_555
N8 Zn6 1_555 1_555
N9 Zn7 1_555 1_555
C15 N4 1_555 1_555
C16 N5 1_555 1_555
C17 N8 1_555 1_555
C18 N9 1_555 1_555
C19 C17 1_555 1_555
C20 C18 1_555 1_555
H9 C19 1_555 1_555
H10 C20 1_555 1_555
C21 C19 1_555 1_555
C22 C20 1_555 1_555
H11 C21 1_555 1_555
H12 C22 1_555 1_555
C23 C21 1_555 1_555
C24 C22 1_555 1_555
H13 C23 1_555 1_555
H14 C24 1_555 1_555
C25 C15 1_555 1_555
C26 C16 1_555 1_555
H15 C25 1_555 1_555
H16 C26 1_555 1_555
H23 C37 1_555 1_555
N2 N3 1_555 1_555
C1 C2 1_555 1_555
C5 C6 1_555 1_555
O14 C39 1_555 1_555
O15 C40 1_555 1_555
N4 N6 1_555 1_555
N5 N7 1_555 1_555
N6 N8 1_555 1_555
N7 N9 1_555 1_555
C15 C17 1_555 1_555
C16 C18 1_555 1_555
C23 C25 1_555 1_555
C24 C26 1_555 1_555
Zn4 O8 1_555 1_555
O6 C42 1_555 1_555
O8 C42 1_555 1_555
C34 C32 1_555 1_555
H20 C34 1_555 1_555
C36 C34 1_555 1_555
C42 C32 1_555 1_555
O1 C14 1_555 1_555
O2 C14 1_555 1_555
C10 C9 1_555 1_555
H6 C10 1_555 1_555
C11 C10 1_555 1_555
H7 C11 1_555 1_555
C14 C9 1_555 1_555
Zn5 O2 1_555 1_555
C28 C30 1_555 1_555
C30 H18 1_555 1_555
C11 C12 1_555 1_555
Zn3_2 O7_2 1_555 1_555
O5_2 C41_2 1_555 1_555
O7_2 C41_2 1_555 1_555
C27_2 C29_2 1_555 1_555
C29_2 H17_2 1_555 1_555
C31_2 C29_2 1_555 1_555
C33_2 C31_2 1_555 1_555
H19_2 C33_2 1_555 1_555
C35_2 C33_2 1_555 1_555
C41_2 C31_2 1_555 1_555
O6_2 C42_2 1_555 1_555
O9 C42_2 1_555 1_555
C34_2 C32_2 1_555 1_555
H20_2 C34_2 1_555 1_555
C36_2 C34_2 1_555 1_555
C42_2 C32_2 1_555 1_555
Zn1_2 O4_2 1_555 1_555
Zn2_2 O3_2 1_555 1_555
O3_2 C13_2 1_555 1_555
O4_2 C13_2 1_555 1_555
N1_2 N2_2 1_555 1_555
N2_2 Zn1_2 1_555 1_555
N3_2 Zn2_2 1_555 1_555
C1_2 N1_2 1_555 1_555
C2_2 N3_2 1_555 1_555
C3_2 C2_2 1_555 1_555
H1_2 C3_2 1_555 1_555
C4_2 C3_2 1_555 1_555
H2_2 C4_2 1_555 1_555
C5_2 C4_2 1_555 1_555
H3_2 C5_2 1_555 1_555
C6_2 C1_2 1_555 1_555
H4_2 C6_2 1_555 1_555
C7_2 C8_2 1_555 1_555
C8_2 H5_2 1_555 1_555
C13_2 C7_2 1_555 1_555
Zn5 N1_2 1_555 1_555
Zn7_2 O9_2 1_555 1_555
O10_2 Zn2_2 1_555 1_555
O14_2 Zn1_2 1_555 1_555
O15_2 Zn1_2 1_555 1_555
N4_2 Zn7_2 1_555 1_555
N5_2 Zn2_2 1_555 1_555
N6_2 Zn1_2 1_555 1_555
N7_2 Zn1_2 1_555 1_555
N8_2 Zn5 1_555 1_555
N9_2 Zn7_2 1_555 1_555
C15_2 N4_2 1_555 1_555
C16_2 N5_2 1_555 1_555
C17_2 N8_2 1_555 1_555
C18_2 N9_2 1_555 1_555
C19_2 C17_2 1_555 1_555
C20_2 C18_2 1_555 1_555
H9_2 C19_2 1_555 1_555
H10_2 C20_2 1_555 1_555
C21_2 C19_2 1_555 1_555
C22_2 C20_2 1_555 1_555
H11_2 C21_2 1_555 1_555
H12_2 C22_2 1_555 1_555
C23_2 C21_2 1_555 1_555
C24_2 C22_2 1_555 1_555
H13_2 C23_2 1_555 1_555
H14_2 C24_2 1_555 1_555
C25_2 C15_2 1_555 1_555
C26_2 C16_2 1_555 1_555
H15_2 C25_2 1_555 1_555
H16_2 C26_2 1_555 1_555
H23_2 C37_2 1_555 1_555
N2_2 N3_2 1_555 1_555
C1_2 C2_2 1_555 1_555
C5_2 C6_2 1_555 1_555
O14_2 C39_2 1_555 1_555
O15_2 C40_2 1_555 1_555
N4_2 N6_2 1_555 1_555
N5_2 N7_2 1_555 1_555
N6_2 N8_2 1_555 1_555
N7_2 N9_2 1_555 1_555
C15_2 C17_2 1_555 1_555
C16_2 C18_2 1_555 1_555
C23_2 C25_2 1_555 1_555
C24_2 C26_2 1_555 1_555
O1_2 C14_2 1_555 1_555
O2_2 C14_2 1_555 1_555
C10_2 C9_2 1_555 1_555
H6_2 C10_2 1_555 1_555
C11_2 C10_2 1_555 1_555
H7_2 C11_2 1_555 1_555
C14_2 C9_2 1_555 1_555
Zn5_2 O2_2 1_555 1_555
C28_2 C30_2 1_555 1_555
C30_2 H18_2 1_555 1_555
C11_2 C12_2 1_555 1_555
Zn3_3 O7_3 1_555 1_555
O5_3 C41_3 1_555 1_555
O7_3 C41_3 1_555 1_555
C27_3 C29_3 1_555 1_555
C29_3 H17_3 1_555 1_555
C31_3 C29_3 1_555 1_555
C33_3 C31_3 1_555 1_555
H19_3 C33_3 1_555 1_555
C35_3 C33_3 1_555 1_555
C41_3 C31_3 1_555 1_555
O6_3 C42_3 1_555 1_555
O9_2 C42_3 1_555 1_555
C34_3 C32_3 1_555 1_555
H20_3 C34_3 1_555 1_555
C36_3 C34_3 1_555 1_555
C42_3 C32_3 1_555 1_555
Zn1_3 O4_3 1_555 1_555
Zn2_3 O3_3 1_555 1_555
O3_3 C13_3 1_555 1_555
O4_3 C13_3 1_555 1_555
N1_3 N2_3 1_555 1_555
N2_3 Zn1_3 1_555 1_555
N3_3 Zn2_3 1_555 1_555
C1_3 N1_3 1_555 1_555
C2_3 N3_3 1_555 1_555
C3_3 C2_3 1_555 1_555
H1_3 C3_3 1_555 1_555
C4_3 C3_3 1_555 1_555
H2_3 C4_3 1_555 1_555
C5_3 C4_3 1_555 1_555
H3_3 C5_3 1_555 1_555
C6_3 C1_3 1_555 1_555
H4_3 C6_3 1_555 1_555
C7_3 C8_3 1_555 1_555
C8_3 H5_3 1_555 1_555
C13_3 C7_3 1_555 1_555
Zn5_2 N1_3 1_555 1_555
O10_3 Zn2_3 1_555 1_555
O14_3 Zn1_3 1_555 1_555
O15_3 Zn1_3 1_555 1_555
N4_3 Zn4 1_555 1_555
N5_3 Zn2_3 1_555 1_555
N6_3 Zn1_3 1_555 1_555
N7_3 Zn1_3 1_555 1_555
N8_3 Zn5_2 1_555 1_555
N9_3 Zn4 1_555 1_555
C15_3 N4_3 1_555 1_555
C16_3 N5_3 1_555 1_555
C17_3 N8_3 1_555 1_555
C18_3 N9_3 1_555 1_555
C19_3 C17_3 1_555 1_555
C20_3 C18_3 1_555 1_555
H9_3 C19_3 1_555 1_555
H10_3 C20_3 1_555 1_555
C21_3 C19_3 1_555 1_555
C22_3 C20_3 1_555 1_555
H11_3 C21_3 1_555 1_555
H12_3 C22_3 1_555 1_555
C23_3 C21_3 1_555 1_555
C24_3 C22_3 1_555 1_555
H13_3 C23_3 1_555 1_555
H14_3 C24_3 1_555 1_555
C25_3 C15_3 1_555 1_555
C26_3 C16_3 1_555 1_555
H15_3 C25_3 1_555 1_555
H16_3 C26_3 1_555 1_555
H23_3 C37_3 1_555 1_555
N2_3 N3_3 1_555 1_555
C1_3 C2_3 1_555 1_555
C5_3 C6_3 1_555 1_555
O14_3 C39_3 1_555 1_555
O15_3 C40_3 1_555 1_555
N4_3 N6_3 1_555 1_555
N5_3 N7_3 1_555 1_555
N6_3 N8_3 1_555 1_555
N7_3 N9_3 1_555 1_555
C15_3 C17_3 1_555 1_555
C16_3 C18_3 1_555 1_555
C23_3 C25_3 1_555 1_555
C24_3 C26_3 1_555 1_555
O1_3 C14_3 1_555 1_555
O11 C14_3 1_555 1_555
C10_3 C9_3 1_555 1_555
H6_3 C10_3 1_555 1_555
C11_3 C10_3 1_555 1_555
H7_3 C11_3 1_555 1_555
C14_3 C9_3 1_555 1_555
C28_3 C30_3 1_555 1_555
C30_3 H18_3 1_555 1_555
C11_3 C12_3 1_555 1_555
Zn1_4 O4_4 1_555 1_555
Zn3 O3_4 1_555 1_555
O1_4 C14_4 1_555 1_555
O10_3 C14_4 1_555 1_555
O3_4 C13_4 1_555 1_555
O4_4 C13_4 1_555 1_555
N1_4 N2_4 1_555 1_555
N2_4 Zn1_4 1_555 1_555
N3_4 Zn3 1_555 1_555
C1_4 N1_4 1_555 1_555
C2_4 N3_4 1_555 1_555
C3_4 C2_4 1_555 1_555
H1_4 C3_4 1_555 1_555
C4_4 C3_4 1_555 1_555
H2_4 C4_4 1_555 1_555
C5_4 C4_4 1_555 1_555
H3_4 C5_4 1_555 1_555
C6_4 C1_4 1_555 1_555
H4_4 C6_4 1_555 1_555
C7_4 C8_4 1_555 1_555
C8_4 H5_4 1_555 1_555
C9_4 C8_4 1_555 1_555
C10_4 C9_4 1_555 1_555
H6_4 C10_4 1_555 1_555
C11_4 C10_4 1_555 1_555
H7_4 C11_4 1_555 1_555
C12_4 C7_4 1_555 1_555
H8_4 C12_4 1_555 1_555
C13_4 C7_4 1_555 1_555
C14_4 C9_4 1_555 1_555
Zn3_2 N1_4 1_555 1_555
O5_4 C41_4 1_555 1_555
O6_4 C42_4 1_555 1_555
O10 C41_4 1_555 1_555
O10_2 C42_4 1_555 1_555
O12_4 Zn3_2 1_555 1_555
O13_4 Zn3_3 1_555 1_555
O14_4 Zn1_4 1_555 1_555
O15_4 Zn1_4 1_555 1_555
N4_4 Zn3_3 1_555 1_555
N5_4 Zn3 1_555 1_555
N6_4 Zn1_4 1_555 1_555
N7_4 Zn1_4 1_555 1_555
N8_4 Zn3_2 1_555 1_555
N9_4 Zn3_3 1_555 1_555
C15_4 N4_4 1_555 1_555
C16_4 N5_4 1_555 1_555
C17_4 N8_4 1_555 1_555
C18_4 N9_4 1_555 1_555
C19_4 C17_4 1_555 1_555
C20_4 C18_4 1_555 1_555
H9_4 C19_4 1_555 1_555
H10_4 C20_4 1_555 1_555
C21_4 C19_4 1_555 1_555
C22_4 C20_4 1_555 1_555
H11_4 C21_4 1_555 1_555
H12_4 C22_4 1_555 1_555
C23_4 C21_4 1_555 1_555
C24_4 C22_4 1_555 1_555
H13_4 C23_4 1_555 1_555
H14_4 C24_4 1_555 1_555
C25_4 C15_4 1_555 1_555
C26_4 C16_4 1_555 1_555
H15_4 C25_4 1_555 1_555
H16_4 C26_4 1_555 1_555
C27_4 C29_4 1_555 1_555
C28_4 C30_4 1_555 1_555
C29_4 H17_4 1_555 1_555
C30_4 H18_4 1_555 1_555
C31_4 C29_4 1_555 1_555
C32_4 C30_4 1_555 1_555
C33_4 C31_4 1_555 1_555
C34_4 C32_4 1_555 1_555
H19_4 C33_4 1_555 1_555
H20_4 C34_4 1_555 1_555
C35_4 C33_4 1_555 1_555
C36_4 C34_4 1_555 1_555
H21_4 C35_4 1_555 1_555
H22_4 C36_4 1_555 1_555
C37_4 C27_4 1_555 1_555
C38_4 C28_4 1_555 1_555
H23_4 C37_4 1_555 1_555
H24_4 C38_4 1_555 1_555
C39_4 O12_4 1_555 1_555
C40_4 O13_4 1_555 1_555
C41_4 C31_4 1_555 1_555
C42_4 C32_4 1_555 1_555
N2_4 N3_4 1_555 1_555
C1_4 C2_4 1_555 1_555
C5_4 C6_4 1_555 1_555
C11_4 C12_4 1_555 1_555
O14_4 C39_4 1_555 1_555
O15_4 C40_4 1_555 1_555
N4_4 N6_4 1_555 1_555
N5_4 N7_4 1_555 1_555
N6_4 N8_4 1_555 1_555
N7_4 N9_4 1_555 1_555
C15_4 C17_4 1_555 1_555
C16_4 C18_4 1_555 1_555
C23_4 C25_4 1_555 1_555
C24_4 C26_4 1_555 1_555
C27_4 C39_4 1_555 1_555
C28_4 C40_4 1_555 1_555
C35_4 C37_4 1_555 1_555
C36_4 C38_4 1_555 1_555
O1_5 C14_5 1_555 1_555
O2_3 C14_5 1_555 1_555
C10_5 C9_5 1_555 1_555
H6_5 C10_5 1_555 1_555
C11_5 C10_5 1_555 1_555
H7_5 C11_5 1_555 1_555
C14_5 C9_5 1_555 1_555
Zn5_3 O2_3 1_555 1_555
C28_5 C30_5 1_555 1_555
C30_5 H18_5 1_555 1_555
C11_5 C12_5 1_555 1_555
Zn4_2 O8_2 1_555 1_555
O6_5 C42_5 1_555 1_555
O8_2 C42_5 1_555 1_555
C34_5 C32_5 1_555 1_555
H20_5 C34_5 1_555 1_555
C36_5 C34_5 1_555 1_555
C42_5 C32_5 1_555 1_555
Zn1_5 O4_5 1_555 1_555
Zn2_4 O3_5 1_555 1_555
O3_5 C13_5 1_555 1_555
O4_5 C13_5 1_555 1_555
N1_5 N2_5 1_555 1_555
N2_5 Zn1_5 1_555 1_555
N3_5 Zn2_4 1_555 1_555
C1_5 N1_5 1_555 1_555
C2_5 N3_5 1_555 1_555
C3_5 C2_5 1_555 1_555
H1_5 C3_5 1_555 1_555
C4_5 C3_5 1_555 1_555
H2_5 C4_5 1_555 1_555
C5_5 C4_5 1_555 1_555
H3_5 C5_5 1_555 1_555
C6_5 C1_5 1_555 1_555
H4_5 C6_5 1_555 1_555
C7_5 C8_5 1_555 1_555
C8_5 H5_5 1_555 1_555
C13_5 C7_5 1_555 1_555
Zn6_2 N1_5 1_555 1_555
Zn7_3 O9_3 1_555 1_555
O10_4 Zn2_4 1_555 1_555
O11_2 Zn6_2 1_555 1_555
O14_5 Zn1_5 1_555 1_555
O15_5 Zn1_5 1_555 1_555
N4_5 Zn7_3 1_555 1_555
N5_5 Zn2_4 1_555 1_555
N6_5 Zn1_5 1_555 1_555
N7_5 Zn1_5 1_555 1_555
N8_5 Zn6_2 1_555 1_555
N9_5 Zn7_3 1_555 1_555
C15_5 N4_5 1_555 1_555
C16_5 N5_5 1_555 1_555
C17_5 N8_5 1_555 1_555
C18_5 N9_5 1_555 1_555
C19_5 C17_5 1_555 1_555
C20_5 C18_5 1_555 1_555
H9_5 C19_5 1_555 1_555
H10_5 C20_5 1_555 1_555
C21_5 C19_5 1_555 1_555
C22_5 C20_5 1_555 1_555
H11_5 C21_5 1_555 1_555
H12_5 C22_5 1_555 1_555
C23_5 C21_5 1_555 1_555
C24_5 C22_5 1_555 1_555
H13_5 C23_5 1_555 1_555
H14_5 C24_5 1_555 1_555
C25_5 C15_5 1_555 1_555
C26_5 C16_5 1_555 1_555
H15_5 C25_5 1_555 1_555
H16_5 C26_5 1_555 1_555
H23_5 C37_5 1_555 1_555
N2_5 N3_5 1_555 1_555
C1_5 C2_5 1_555 1_555
C5_5 C6_5 1_555 1_555
O14_5 C39_5 1_555 1_555
O15_5 C40_5 1_555 1_555
N4_5 N6_5 1_555 1_555
N5_5 N7_5 1_555 1_555
N6_5 N8_5 1_555 1_555
N7_5 N9_5 1_555 1_555
C15_5 C17_5 1_555 1_555
C16_5 C18_5 1_555 1_555
C23_5 C25_5 1_555 1_555
C24_5 C26_5 1_555 1_555
Zn3_4 O7_4 1_555 1_555
O5_5 C41_5 1_555 1_555
O7_4 C41_5 1_555 1_555
C27_5 C29_5 1_555 1_555
C29_5 H17_5 1_555 1_555
C31_5 C29_5 1_555 1_555
C33_5 C31_5 1_555 1_555
H19_5 C33_5 1_555 1_555
C35_5 C33_5 1_555 1_555
C41_5 C31_5 1_555 1_555
O1_6 C14_6 1_555 1_555
O2_4 C14_6 1_555 1_555
C10_6 C9_6 1_555 1_555
H6_6 C10_6 1_555 1_555
C11_6 C10_6 1_555 1_555
H7_6 C11_6 1_555 1_555
C14_6 C9_6 1_555 1_555
Zn5_4 O2_4 1_555 1_555
C28_6 C30_6 1_555 1_555
C30_6 H18_6 1_555 1_555
C11_6 C12_6 1_555 1_555
Zn1_6 O4_6 1_555 1_555
Zn2_5 O3_6 1_555 1_555
O3_6 C13_6 1_555 1_555
O4_6 C13_6 1_555 1_555
N1_6 N2_6 1_555 1_555
N2_6 Zn1_6 1_555 1_555
N3_6 Zn2_5 1_555 1_555
C1_6 N1_6 1_555 1_555
C2_6 N3_6 1_555 1_555
C3_6 C2_6 1_555 1_555
H1_6 C3_6 1_555 1_555
C4_6 C3_6 1_555 1_555
H2_6 C4_6 1_555 1_555
C5_6 C4_6 1_555 1_555
H3_6 C5_6 1_555 1_555
C6_6 C1_6 1_555 1_555
H4_6 C6_6 1_555 1_555
C7_6 C8_6 1_555 1_555
C8_6 H5_6 1_555 1_555
C13_6 C7_6 1_555 1_555
Zn5_3 N1_6 1_555 1_555
Zn7_4 O9_4 1_555 1_555
O10_5 Zn2_5 1_555 1_555
O14_6 Zn1_6 1_555 1_555
O15_6 Zn1_6 1_555 1_555
N4_6 Zn7_4 1_555 1_555
N5_6 Zn2_5 1_555 1_555
N6_6 Zn1_6 1_555 1_555
N7_6 Zn1_6 1_555 1_555
N8_6 Zn5_3 1_555 1_555
N9_6 Zn7_4 1_555 1_555
C15_6 N4_6 1_555 1_555
C16_6 N5_6 1_555 1_555
C17_6 N8_6 1_555 1_555
C18_6 N9_6 1_555 1_555
C19_6 C17_6 1_555 1_555
C20_6 C18_6 1_555 1_555
H9_6 C19_6 1_555 1_555
H10_6 C20_6 1_555 1_555
C21_6 C19_6 1_555 1_555
C22_6 C20_6 1_555 1_555
H11_6 C21_6 1_555 1_555
H12_6 C22_6 1_555 1_555
C23_6 C21_6 1_555 1_555
C24_6 C22_6 1_555 1_555
H13_6 C23_6 1_555 1_555
H14_6 C24_6 1_555 1_555
C25_6 C15_6 1_555 1_555
C26_6 C16_6 1_555 1_555
H15_6 C25_6 1_555 1_555
H16_6 C26_6 1_555 1_555
H23_6 C37_6 1_555 1_555
N2_6 N3_6 1_555 1_555
C1_6 C2_6 1_555 1_555
C5_6 C6_6 1_555 1_555
O14_6 C39_6 1_555 1_555
O15_6 C40_6 1_555 1_555
N4_6 N6_6 1_555 1_555
N5_6 N7_6 1_555 1_555
N6_6 N8_6 1_555 1_555
N7_6 N9_6 1_555 1_555
C15_6 C17_6 1_555 1_555
C16_6 C18_6 1_555 1_555
C23_6 C25_6 1_555 1_555
C24_6 C26_6 1_555 1_555
O6_6 C42_6 1_555 1_555
O9_3 C42_6 1_555 1_555
C34_6 C32_6 1_555 1_555
H20_6 C34_6 1_555 1_555
C36_6 C34_6 1_555 1_555
C42_6 C32_6 1_555 1_555
Zn3_5 O7_5 1_555 1_555
O5_6 C41_6 1_555 1_555
O7_5 C41_6 1_555 1_555
C27_6 C29_6 1_555 1_555
C29_6 H17_6 1_555 1_555
C31_6 C29_6 1_555 1_555
C33_6 C31_6 1_555 1_555
H19_6 C33_6 1_555 1_555
C35_6 C33_6 1_555 1_555
C41_6 C31_6 1_555 1_555
O1_7 C14_7 1_555 1_555
O11_2 C14_7 1_555 1_555
C10_7 C9_7 1_555 1_555
H6_7 C10_7 1_555 1_555
C11_7 C10_7 1_555 1_555
H7_7 C11_7 1_555 1_555
C14_7 C9_7 1_555 1_555
C28_7 C30_7 1_555 1_555
C30_7 H18_7 1_555 1_555
C11_7 C12_7 1_555 1_555
Zn1_7 O4_7 1_555 1_555
Zn2_6 O3_7 1_555 1_555
O3_7 C13_7 1_555 1_555
O4_7 C13_7 1_555 1_555
N1_7 N2_7 1_555 1_555
N2_7 Zn1_7 1_555 1_555
N3_7 Zn2_6 1_555 1_555
C1_7 N1_7 1_555 1_555
C2_7 N3_7 1_555 1_555
C3_7 C2_7 1_555 1_555
H1_7 C3_7 1_555 1_555
C4_7 C3_7 1_555 1_555
H2_7 C4_7 1_555 1_555
C5_7 C4_7 1_555 1_555
H3_7 C5_7 1_555 1_555
C6_7 C1_7 1_555 1_555
H4_7 C6_7 1_555 1_555
C7_7 C8_7 1_555 1_555
C8_7 H5_7 1_555 1_555
C13_7 C7_7 1_555 1_555
Zn5_4 N1_7 1_555 1_555
O10_6 Zn2_6 1_555 1_555
O14_7 Zn1_7 1_555 1_555
O15_7 Zn1_7 1_555 1_555
N4_7 Zn4_2 1_555 1_555
N5_7 Zn2_6 1_555 1_555
N6_7 Zn1_7 1_555 1_555
N7_7 Zn1_7 1_555 1_555
N8_7 Zn5_4 1_555 1_555
N9_7 Zn4_2 1_555 1_555
C15_7 N4_7 1_555 1_555
C16_7 N5_7 1_555 1_555
C17_7 N8_7 1_555 1_555
C18_7 N9_7 1_555 1_555
C19_7 C17_7 1_555 1_555
C20_7 C18_7 1_555 1_555
H9_7 C19_7 1_555 1_555
H10_7 C20_7 1_555 1_555
C21_7 C19_7 1_555 1_555
C22_7 C20_7 1_555 1_555
H11_7 C21_7 1_555 1_555
H12_7 C22_7 1_555 1_555
C23_7 C21_7 1_555 1_555
C24_7 C22_7 1_555 1_555
H13_7 C23_7 1_555 1_555
H14_7 C24_7 1_555 1_555
C25_7 C15_7 1_555 1_555
C26_7 C16_7 1_555 1_555
H15_7 C25_7 1_555 1_555
H16_7 C26_7 1_555 1_555
H23_7 C37_7 1_555 1_555
N2_7 N3_7 1_555 1_555
C1_7 C2_7 1_555 1_555
C5_7 C6_7 1_555 1_555
O14_7 C39_7 1_555 1_555
O15_7 C40_7 1_555 1_555
N4_7 N6_7 1_555 1_555
N5_7 N7_7 1_555 1_555
N6_7 N8_7 1_555 1_555
N7_7 N9_7 1_555 1_555
C15_7 C17_7 1_555 1_555
C16_7 C18_7 1_555 1_555
C23_7 C25_7 1_555 1_555
C24_7 C26_7 1_555 1_555
O6_7 C42_7 1_555 1_555
O9_4 C42_7 1_555 1_555
C34_7 C32_7 1_555 1_555
H20_7 C34_7 1_555 1_555
C36_7 C34_7 1_555 1_555
C42_7 C32_7 1_555 1_555
Zn3_6 O7_6 1_555 1_555
O5_7 C41_7 1_555 1_555
O7_6 C41_7 1_555 1_555
C27_7 C29_7 1_555 1_555
C29_7 H17_7 1_555 1_555
C31_7 C29_7 1_555 1_555
C33_7 C31_7 1_555 1_555
H19_7 C33_7 1_555 1_555
C35_7 C33_7 1_555 1_555
C41_7 C31_7 1_555 1_555
Zn1_8 O4_8 1_555 1_555
Zn3_4 O3_8 1_555 1_555
O1_8 C14_8 1_555 1_555
O10_6 C14_8 1_555 1_555
O3_8 C13_8 1_555 1_555
O4_8 C13_8 1_555 1_555
N1_8 N2_8 1_555 1_555
N2_8 Zn1_8 1_555 1_555
N3_8 Zn3_4 1_555 1_555
C1_8 N1_8 1_555 1_555
C2_8 N3_8 1_555 1_555
C3_8 C2_8 1_555 1_555
H1_8 C3_8 1_555 1_555
C4_8 C3_8 1_555 1_555
H2_8 C4_8 1_555 1_555
C5_8 C4_8 1_555 1_555
H3_8 C5_8 1_555 1_555
C6_8 C1_8 1_555 1_555
H4_8 C6_8 1_555 1_555
C7_8 C8_8 1_555 1_555
C8_8 H5_8 1_555 1_555
C9_8 C8_8 1_555 1_555
C10_8 C9_8 1_555 1_555
H6_8 C10_8 1_555 1_555
C11_8 C10_8 1_555 1_555
H7_8 C11_8 1_555 1_555
C12_8 C7_8 1_555 1_555
H8_8 C12_8 1_555 1_555
C13_8 C7_8 1_555 1_555
C14_8 C9_8 1_555 1_555
Zn3_5 N1_8 1_555 1_555
O5_8 C41_8 1_555 1_555
O6_8 C42_8 1_555 1_555
O10_4 C41_8 1_555 1_555
O10_5 C42_8 1_555 1_555
O12_8 Zn3_5 1_555 1_555
O13_8 Zn3_6 1_555 1_555
O14_8 Zn1_8 1_555 1_555
O15_8 Zn1_8 1_555 1_555
N4_8 Zn3_6 1_555 1_555
N5_8 Zn3_4 1_555 1_555
N6_8 Zn1_8 1_555 1_555
N7_8 Zn1_8 1_555 1_555
N8_8 Zn3_5 1_555 1_555
N9_8 Zn3_6 1_555 1_555
C15_8 N4_8 1_555 1_555
C16_8 N5_8 1_555 1_555
C17_8 N8_8 1_555 1_555
C18_8 N9_8 1_555 1_555
C19_8 C17_8 1_555 1_555
C20_8 C18_8 1_555 1_555
H9_8 C19_8 1_555 1_555
H10_8 C20_8 1_555 1_555
C21_8 C19_8 1_555 1_555
C22_8 C20_8 1_555 1_555
H11_8 C21_8 1_555 1_555
H12_8 C22_8 1_555 1_555
C23_8 C21_8 1_555 1_555
C24_8 C22_8 1_555 1_555
H13_8 C23_8 1_555 1_555
H14_8 C24_8 1_555 1_555
C25_8 C15_8 1_555 1_555
C26_8 C16_8 1_555 1_555
H15_8 C25_8 1_555 1_555
H16_8 C26_8 1_555 1_555
C27_8 C29_8 1_555 1_555
C28_8 C30_8 1_555 1_555
C29_8 H17_8 1_555 1_555
C30_8 H18_8 1_555 1_555
C31_8 C29_8 1_555 1_555
C32_8 C30_8 1_555 1_555
C33_8 C31_8 1_555 1_555
C34_8 C32_8 1_555 1_555
H19_8 C33_8 1_555 1_555
H20_8 C34_8 1_555 1_555
C35_8 C33_8 1_555 1_555
C36_8 C34_8 1_555 1_555
H21_8 C35_8 1_555 1_555
H22_8 C36_8 1_555 1_555
C37_8 C27_8 1_555 1_555
C38_8 C28_8 1_555 1_555
H23_8 C37_8 1_555 1_555
H24_8 C38_8 1_555 1_555
C39_8 O12_8 1_555 1_555
C40_8 O13_8 1_555 1_555
C41_8 C31_8 1_555 1_555
C42_8 C32_8 1_555 1_555
N2_8 N3_8 1_555 1_555
C1_8 C2_8 1_555 1_555
C5_8 C6_8 1_555 1_555
C11_8 C12_8 1_555 1_555
O14_8 C39_8 1_555 1_555
O15_8 C40_8 1_555 1_555
N4_8 N6_8 1_555 1_555
N5_8 N7_8 1_555 1_555
N6_8 N8_8 1_555 1_555
N7_8 N9_8 1_555 1_555
C15_8 C17_8 1_555 1_555
C16_8 C18_8 1_555 1_555
C23_8 C25_8 1_555 1_555
C24_8 C26_8 1_555 1_555
C27_8 C39_8 1_555 1_555
C28_8 C40_8 1_555 1_555
C35_8 C37_8 1_555 1_555
C36_8 C38_8 1_555 1_555
N10 H25 1_555 1_555
C43 C44 1_555 1_555
C44 N10 1_555 1_555
C45 C47 1_555 1_555
C46 C48 1_555 1_555
C47 N10 1_555 1_555
C48 N10 1_555 1_555
C44 H26 1_555 1_555
C44 H27 1_555 1_555
C46 H28 1_555 1_555
C46 H29 1_555 1_555
C46 H30 1_555 1_555
C47 H31 1_555 1_555
C47 H32 1_555 1_555
C45 H33 1_555 1_555
C45 H34 1_555 1_555
C45 H35 1_555 1_555
C48 H36 1_555 1_555
C48 H37 1_555 1_555
C43 H38 1_555 1_555
C43 H39 1_555 1_555
C43 H40 1_555 1_555
N10_2 H25_2 1_555 1_555
C43_2 C44_2 1_555 1_555
C44_2 N10_2 1_555 1_555
C45_2 C47_2 1_555 1_555
C46_2 C48_2 1_555 1_555
C47_2 N10_2 1_555 1_555
C48_2 N10_2 1_555 1_555
C44_2 H26_2 1_555 1_555
C44_2 H27_2 1_555 1_555
C46_2 H28_2 1_555 1_555
C46_2 H29_2 1_555 1_555
C46_2 H30_2 1_555 1_555
C47_2 H31_2 1_555 1_555
C47_2 H32_2 1_555 1_555
C45_2 H33_2 1_555 1_555
C45_2 H34_2 1_555 1_555
C45_2 H35_2 1_555 1_555
C48_2 H36_2 1_555 1_555
C48_2 H37_2 1_555 1_555
C43_2 H38_2 1_555 1_555
C43_2 H39_2 1_555 1_555
C43_2 H40_2 1_555 1_555
N10_3 H25_3 1_555 1_555
C43_3 C44_3 1_555 1_555
C44_3 N10_3 1_555 1_555
C45_3 C47_3 1_555 1_555
C46_3 C48_3 1_555 1_555
C47_3 N10_3 1_555 1_555
C48_3 N10_3 1_555 1_555
C44_3 H26_3 1_555 1_555
C44_3 H27_3 1_555 1_555
C46_3 H28_3 1_555 1_555
C46_3 H29_3 1_555 1_555
C46_3 H30_3 1_555 1_555
C47_3 H31_3 1_555 1_555
C47_3 H32_3 1_555 1_555
C45_3 H33_3 1_555 1_555
C45_3 H34_3 1_555 1_555
C45_3 H35_3 1_555 1_555
C48_3 H36_3 1_555 1_555
C48_3 H37_3 1_555 1_555
C43_3 H38_3 1_555 1_555
C43_3 H39_3 1_555 1_555
C43_3 H40_3 1_555 1_555
N10_4 H25_4 1_555 1_555
C43_4 C44_4 1_555 1_555
C44_4 N10_4 1_555 1_555
C45_4 C47_4 1_555 1_555
C46_4 C48_4 1_555 1_555
C47_4 N10_4 1_555 1_555
C48_4 N10_4 1_555 1_555
C44_4 H26_4 1_555 1_555
C44_4 H27_4 1_555 1_555
C46_4 H28_4 1_555 1_555
C46_4 H29_4 1_555 1_555
C46_4 H30_4 1_555 1_555
C47_4 H31_4 1_555 1_555
C47_4 H32_4 1_555 1_555
C45_4 H33_4 1_555 1_555
C45_4 H34_4 1_555 1_555
C45_4 H35_4 1_555 1_555
C48_4 H36_4 1_555 1_555
C48_4 H37_4 1_555 1_555
C43_4 H38_4 1_555 1_555
C43_4 H39_4 1_555 1_555
C43_4 H40_4 1_555 1_555
N10_5 H25_5 1_555 1_555
C43_5 C44_5 1_555 1_555
C44_5 N10_5 1_555 1_555
C45_5 C47_5 1_555 1_555
C46_5 C48_5 1_555 1_555
C47_5 N10_5 1_555 1_555
C48_5 N10_5 1_555 1_555
C44_5 H26_5 1_555 1_555
C44_5 H27_5 1_555 1_555
C46_5 H28_5 1_555 1_555
C46_5 H29_5 1_555 1_555
C46_5 H30_5 1_555 1_555
C47_5 H31_5 1_555 1_555
C47_5 H32_5 1_555 1_555
C45_5 H33_5 1_555 1_555
C45_5 H34_5 1_555 1_555
C45_5 H35_5 1_555 1_555
C48_5 H36_5 1_555 1_555
C48_5 H37_5 1_555 1_555
C43_5 H38_5 1_555 1_555
C43_5 H39_5 1_555 1_555
C43_5 H40_5 1_555 1_555
N10_6 H25_6 1_555 1_555
C43_6 C44_6 1_555 1_555
C44_6 N10_6 1_555 1_555
C45_6 C47_6 1_555 1_555
C46_6 C48_6 1_555 1_555
C47_6 N10_6 1_555 1_555
C48_6 N10_6 1_555 1_555
C44_6 H26_6 1_555 1_555
C44_6 H27_6 1_555 1_555
C46_6 H28_6 1_555 1_555
C46_6 H29_6 1_555 1_555
C46_6 H30_6 1_555 1_555
C47_6 H31_6 1_555 1_555
C47_6 H32_6 1_555 1_555
C45_6 H33_6 1_555 1_555
C45_6 H34_6 1_555 1_555
C45_6 H35_6 1_555 1_555
C48_6 H36_6 1_555 1_555
C48_6 H37_6 1_555 1_555
C43_6 H38_6 1_555 1_555
C43_6 H39_6 1_555 1_555
C43_6 H40_6 1_555 1_555
N10_7 H25_7 1_555 1_555
C43_7 C44_7 1_555 1_555
C44_7 N10_7 1_555 1_555
C45_7 C47_7 1_555 1_555
C46_7 C48_7 1_555 1_555
C47_7 N10_7 1_555 1_555
C48_7 N10_7 1_555 1_555
C44_7 H26_7 1_555 1_555
C44_7 H27_7 1_555 1_555
C46_7 H28_7 1_555 1_555
C46_7 H29_7 1_555 1_555
C46_7 H30_7 1_555 1_555
C47_7 H31_7 1_555 1_555
C47_7 H32_7 1_555 1_555
C45_7 H33_7 1_555 1_555
C45_7 H34_7 1_555 1_555
C45_7 H35_7 1_555 1_555
C48_7 H36_7 1_555 1_555
C48_7 H37_7 1_555 1_555
C43_7 H38_7 1_555 1_555
C43_7 H39_7 1_555 1_555
C43_7 H40_7 1_555 1_555
N10_8 H25_8 1_555 1_555
C43_8 C44_8 1_555 1_555
C44_8 N10_8 1_555 1_555
C45_8 C47_8 1_555 1_555
C46_8 C48_8 1_555 1_555
C47_8 N10_8 1_555 1_555
C48_8 N10_8 1_555 1_555
C44_8 H26_8 1_555 1_555
C44_8 H27_8 1_555 1_555
C46_8 H28_8 1_555 1_555
C46_8 H29_8 1_555 1_555
C46_8 H30_8 1_555 1_555
C47_8 H31_8 1_555 1_555
C47_8 H32_8 1_555 1_555
C45_8 H33_8 1_555 1_555
C45_8 H34_8 1_555 1_555
C45_8 H35_8 1_555 1_555
C48_8 H36_8 1_555 1_555
C48_8 H37_8 1_555 1_555
C43_8 H38_8 1_555 1_555
C43_8 H39_8 1_555 1_555
C43_8 H40_8 1_555 1_555

#END
