
###############################################################################
#
# This file contains modified crystal structure data generated from the
# MOF subset of the Cambridge Structural Database (CSD) v543 
# hosted by the Cambridge Crystallographic Data Centre (CCDC).
#
# This work is licensed under the Creative Commons
# Attribution-NonCommercial-ShareAlike 4.0 International License.
# To view a copy of this license, visit
# http://creativecommons.org/licenses/by-nc-sa/4.0/
# or send a letter to
# Creative Commons, PO Box 1866, Mountain View, CA 94042, USA.
#
# CIF created using the CSD Python API on 29 September 2022
# The structure has been converted into the P1 space group
# The structure has a 3D framework
# The original CSD entry XOBXIW is in the monoclinic crystal system
# The framework has been calculated to contain at least 10.0% void space
# The void calculation uses a probe of radius 1.32A, grid spacing 0.4
#
###############################################################################

data_XOBXIW
_chemical_formula_moiety         '(C24 H24 Ni20 O45)n'
_symmetry_cell_setting           triclinic
_symmetry_space_group_name_H-M   'P 1'
_symmetry_Int_Tables_number      1
_space_group_name_Hall           'P 1'
loop_
_symmetry_equiv_pos_site_id
_symmetry_equiv_pos_as_xyz
1 x,y,z
_cell_length_a                   11.1487(13)
_cell_length_b                   9.7763(11)
_cell_length_c                   17.9685(17)
_cell_angle_alpha                90
_cell_angle_beta                 126.948(6)
_cell_angle_gamma                90
_cell_volume                     1565.15
loop_
_atom_site_label
_atom_site_type_symbol
_atom_site_fract_x
_atom_site_fract_y
_atom_site_fract_z
Ni1 Ni 0.12049(3) 0.07639(3) 0.364906(17)
Ni2 Ni 0.06678(3) 0.38269(3) 0.307739(17)
Ni3 Ni -0.0000 -0.0000 0.5000
Ni4 Ni 0.5000 -0.0000 0.5000
O1 O 0.33459(16) 0.15040(16) 0.43749(11)
O2 O 0.29063(18) 0.37459(16) 0.40502(12)
O3 O 0.06332(17) 0.19476(15) 0.25337(10)
O4 O 0.04042(17) 0.25179(16) 0.38677(10)
O10 O 0.0121(2) 0.20689(18) 0.49742(12)
C1 C 0.3737(2) 0.2750(2) 0.44540(16)
H1 H 0.4761 0.2929 0.4860
C2 C 0.0192(3) 0.2851(2) 0.44620(17)
H2 H 0.0078 0.3779 0.4518
Ni10 Ni 0.06678(3) 0.11731(3) 0.807739(17)
O23 O 0.08777(17) 0.01096(16) 0.71847(11)
O24 O 0.08777(17) 0.48904(16) 0.21847(11)
O27 O 0.0577(2) 0.55234(17) 0.36875(11)
O29 O 0.1798(2) 0.0063(2) 0.63776(12)
O32 O 0.59762(19) 0.1072(2) 0.62100(12)
O34 O 0.61136(19) 0.11095(18) 0.46346(13)
C10 C 0.0050(3) 0.6655(2) 0.33219(15)
H10 H 0.0165 0.7356 0.3710
C12 C 0.1906(3) 0.0254(3) 0.70905(16)
H12 H 0.2839 0.0532 0.7614
Ni3_2 Ni -0.0000 1.0000 0.5000
Ni4_2 Ni 0.5000 1.0000 0.5000
O5 O 0.15589(17) 0.91406(16) 0.30562(11)
O7 O 0.16072(17) 0.97493(17) 0.47593(11)
O11 O 0.40238(19) 0.8928(2) 0.37900(12)
O12 O 0.38864(19) 0.88905(18) 0.53654(13)
C3 C 0.2708(3) 0.8670(3) 0.31605(16)
H3 H 0.2535 0.8059 0.2708
C5 C 0.2736(3) 0.8979(2) 0.53124(16)
H5 H 0.2683 0.8432 0.5715
Ni7 Ni 0.87951(3) 0.92361(3) 0.635094(17)
Ni12 Ni 0.93322(3) 0.61731(3) 0.692261(17)
O13 O 0.66541(16) 0.84960(16) 0.56251(11)
O15 O 0.70937(18) 0.62541(16) 0.59498(12)
O22 O 0.15589(17) 0.58594(16) 0.80562(11)
C7 C 0.6263(2) 0.7250(2) 0.55460(16)
H7 H 0.5239 0.7071 0.5140
Ni3_3 Ni 1.0000 -0.0000 0.5000
O8 O 0.9423(2) 0.05234(17) 0.13125(11)
C4 C 0.9950(3) 0.1655(2) 0.16781(15)
H4 H 0.9835 0.2356 0.1290
Ni6 Ni 0.87951(3) 0.57639(3) 0.135094(17)
Ni11 Ni 0.93322(3) 0.88269(3) 0.192261(17)
Ni14 Ni 0.5000 0.5000 0.0000
O17 O 0.93668(17) 0.69476(15) 0.24663(10)
O20 O 0.84411(17) 0.41406(16) 0.19438(11)
O21 O 0.84411(17) 0.08594(16) 0.69438(11)
O26 O 0.83928(17) 0.02507(17) 0.52407(11)
O31 O 0.59762(19) 0.3928(2) 0.12100(12)
C9 C 0.7292(3) 0.3670(3) 0.18395(16)
H9 H 0.7465 0.3059 0.2292
C11 C 0.7264(3) 0.1021(2) 0.46876(16)
H11 H 0.7317 0.1568 0.4285
Ni14_2 Ni 0.5000 0.5000 1.0000
Ni3_4 Ni 1.0000 1.0000 0.5000
O6 O 0.91223(17) 0.98904(16) 0.28153(11)
O9 O 0.8202(2) 0.9937(2) 0.36224(12)
C6 C 0.8094(3) 0.9746(3) 0.29095(16)
H6 H 0.7161 0.9468 0.2386
O18 O 0.93668(17) 0.80524(15) 0.74663(10)
O19 O 0.95958(17) 0.74821(16) 0.61323(10)
O25 O 0.91223(17) 0.51096(16) 0.78153(11)
O28 O 0.9423(2) 0.44766(17) 0.63125(11)
O30 O 0.9879(2) 0.79311(18) 0.50258(12)
C8 C 0.9808(3) 0.7149(2) 0.55380(17)
H8 H 0.9922 0.6221 0.5482
Ni3_5 Ni 0.0000 0.5000 0.0000
O9_2 O 0.1798(2) 0.4937(2) 0.13776(12)
C6_2 C 0.1906(3) 0.4746(3) 0.20905(16)
H6_2 H 0.2839 0.4468 0.2614
O33 O 0.38864(19) 0.61095(18) 0.03654(13)
C11_2 C 0.2736(3) 0.6021(2) 0.03124(16)
H11_2 H 0.2683 0.6568 0.0715
Ni3_6 Ni 0.0000 0.5000 1.0000
Ni5 Ni 0.12049(3) 0.42361(3) 0.864906(17)
O14 O 0.33459(16) 0.34960(16) 0.93749(11)
O16 O 0.29063(18) 0.12541(16) 0.90502(12)
O18_2 O 0.06332(17) 0.30524(15) 0.75337(10)
O19_2 O 0.04042(17) 0.24821(16) 0.88677(10)
O26_2 O 0.16072(17) 0.52507(17) 0.97593(11)
O30_2 O 0.0121(2) 0.29311(18) 0.99742(12)
C8_2 C 0.0192(3) 0.2149(2) 0.94620(17)
H8_2 H 0.0078 0.1221 0.9518
O28_2 O 0.0577(2) 0.94766(17) 0.86875(11)
Ni3_7 Ni 1.0000 0.5000 0.0000
O1_2 O 0.66541(16) 0.65040(16) 0.06251(11)
O2_2 O 0.70937(18) 0.87459(16) 0.09498(12)
O4_2 O 0.95958(17) 0.75179(16) 0.11323(10)
O7_2 O 0.83928(17) 0.47493(17) 0.02407(11)
O10_2 O 0.9879(2) 0.70689(18) 0.00258(12)
C1_2 C 0.6263(2) 0.7750(2) 0.05460(16)
H1_2 H 0.5239 0.7929 0.0140
C2_2 C 0.9808(3) 0.7851(2) 0.05380(17)
H2_2 H 0.9922 0.8779 0.0482
Ni3_8 Ni 1.0000 0.5000 1.0000
O12_2 O 0.61136(19) 0.38905(18) 0.96346(13)
C5_2 C 0.7264(3) 0.3979(2) 0.96876(16)
H5_2 H 0.7317 0.3432 0.9285
O29_2 O 0.8202(2) 0.5063(2) 0.86224(12)
O32_2 O 0.40238(19) 0.6072(2) 0.87900(12)
C7_2 C 0.3737(2) 0.2250(2) 0.94540(16)
H7_2 H 0.4761 0.2071 0.9860
C12_2 C 0.8094(3) 0.5254(3) 0.79095(16)
H12_2 H 0.7161 0.5532 0.7386
C4_2 C 0.0050(3) 0.8345(2) 0.83219(15)
H4_2 H 0.0165 0.7644 0.8710
C9_2 C 0.2708(3) 0.6330(3) 0.81605(16)
H9_2 H 0.2535 0.6941 0.7708
C3_2 C 0.7292(3) 0.1330(3) 0.68395(16)
H3_2 H 0.7465 0.1941 0.7292
C10_2 C 0.9950(3) 0.3345(2) 0.66781(15)
H10_2 H 0.9835 0.2644 0.6290
loop_
_geom_bond_atom_site_label_1
_geom_bond_atom_site_label_2
_geom_bond_site_symmetry_1
_geom_bond_site_symmetry_2
Ni1 O1 1_555 1_555
Ni2 O2 1_555 1_555
Ni4 O1 1_555 1_555
O1 C1 1_555 1_555
O2 C1 1_555 1_555
O3 Ni1 1_555 1_555
O4 Ni1 1_555 1_555
O10 Ni3 1_555 1_555
C1 H1 1_555 1_555
C2 O4 1_555 1_555
H2 C2 1_555 1_555
O24 Ni2 1_555 1_555
O27 Ni2 1_555 1_555
O29 Ni3 1_555 1_555
O32 Ni4 1_555 1_555
O34 Ni4 1_555 1_555
C10 O27 1_555 1_555
H10 C10 1_555 1_555
C12 O23 1_555 1_555
H12 C12 1_555 1_555
Ni2 O3 1_555 1_555
Ni2 O4 1_555 1_555
O10 C2 1_555 1_555
Ni10 O23 1_555 1_555
O29 C12 1_555 1_555
Ni3_2 O7 1_555 1_555
O11 Ni4_2 1_555 1_555
O12 Ni4_2 1_555 1_555
C3 O5 1_555 1_555
H3 C3 1_555 1_555
C5 O7 1_555 1_555
H5 C5 1_555 1_555
Ni7 O13 1_555 1_555
Ni12 O15 1_555 1_555
O13 Ni4_2 1_555 1_555
O15 C7 1_555 1_555
C7 O13 1_555 1_555
H7 C7 1_555 1_555
O11 C3 1_555 1_555
O12 C5 1_555 1_555
O8 C4 1_555 1_555
H4 C4 1_555 1_555
Ni6 O17 1_555 1_555
Ni11 O17 1_555 1_555
Ni14 O31 1_555 1_555
O26 Ni3_3 1_555 1_555
O31 C9 1_555 1_555
C9 O20 1_555 1_555
H9 C9 1_555 1_555
C11 O26 1_555 1_555
H11 C11 1_555 1_555
Ni6 O20 1_555 1_555
O34 C11 1_555 1_555
O9 Ni3_4 1_555 1_555
C6 O6 1_555 1_555
H6 C6 1_555 1_555
O18 Ni7 1_555 1_555
O19 Ni7 1_555 1_555
O25 Ni12 1_555 1_555
O28 Ni12 1_555 1_555
O30 Ni3_4 1_555 1_555
C8 O19 1_555 1_555
H8 C8 1_555 1_555
O6 Ni11 1_555 1_555
O9 C6 1_555 1_555
Ni12 O18 1_555 1_555
Ni12 O19 1_555 1_555
O30 C8 1_555 1_555
O9_2 Ni3_5 1_555 1_555
C6_2 O24 1_555 1_555
H6_2 C6_2 1_555 1_555
O33 Ni14 1_555 1_555
H11_2 C11_2 1_555 1_555
O9_2 C6_2 1_555 1_555
O33 C11_2 1_555 1_555
Ni5 O14 1_555 1_555
Ni10 O16 1_555 1_555
Ni14_2 O14 1_555 1_555
O18_2 Ni5 1_555 1_555
O19_2 Ni5 1_555 1_555
O22 Ni5 1_555 1_555
O26_2 Ni3_6 1_555 1_555
O30_2 Ni3_6 1_555 1_555
C8_2 O19_2 1_555 1_555
H8_2 C8_2 1_555 1_555
Ni5 O26_2 1_555 1_555
Ni10 O18_2 1_555 1_555
Ni10 O19_2 1_555 1_555
O30_2 C8_2 1_555 1_555
Ni6 O1_2 1_555 1_555
Ni11 O2_2 1_555 1_555
Ni3_7 O7_2 1_555 1_555
Ni14 O1_2 1_555 1_555
O1_2 C1_2 1_555 1_555
O2_2 C1_2 1_555 1_555
O4_2 Ni6 1_555 1_555
O7_2 Ni6 1_555 1_555
O10_2 Ni3_7 1_555 1_555
C1_2 H1_2 1_555 1_555
C2_2 O4_2 1_555 1_555
H2_2 C2_2 1_555 1_555
Ni11 O4_2 1_555 1_555
O10_2 C2_2 1_555 1_555
O12_2 Ni14_2 1_555 1_555
H5_2 C5_2 1_555 1_555
O16 C7_2 1_555 1_555
O29_2 Ni3_8 1_555 1_555
O32_2 Ni14_2 1_555 1_555
C7_2 O14 1_555 1_555
H7_2 C7_2 1_555 1_555
C12_2 O25 1_555 1_555
H12_2 C12_2 1_555 1_555
O12_2 C5_2 1_555 1_555
O29_2 C12_2 1_555 1_555
O28_2 C4_2 1_555 1_555
H4_2 C4_2 1_555 1_555
O32_2 C9_2 1_555 1_555
C9_2 O22 1_555 1_555
H9_2 C9_2 1_555 1_555
C3_2 O21 1_555 1_555
H3_2 C3_2 1_555 1_555
O32 C3_2 1_555 1_555
C10_2 O28 1_555 1_555
H10_2 C10_2 1_555 1_555

#END
