
###############################################################################
#
# This file contains modified crystal structure data generated from the
# MOF subset of the Cambridge Structural Database (CSD) v543 
# hosted by the Cambridge Crystallographic Data Centre (CCDC).
#
# This work is licensed under the Creative Commons
# Attribution-NonCommercial-ShareAlike 4.0 International License.
# To view a copy of this license, visit
# http://creativecommons.org/licenses/by-nc-sa/4.0/
# or send a letter to
# Creative Commons, PO Box 1866, Mountain View, CA 94042, USA.
#
# CIF created using the CSD Python API on 29 September 2022
# The structure has been converted into the P1 space group
# The structure has a 3D framework
# The original CSD entry XOCREP is in the hexagonal crystal system
# The original CSD entry XOCREP is in a Sohncke space group
# The framework has been calculated to contain at least 10.0% void space
# The void calculation uses a probe of radius 1.32A, grid spacing 0.4
#
###############################################################################

data_XOCREP
_chemical_formula_moiety         '(C204 H96 F72 Mn12 O48)n'
_symmetry_cell_setting           triclinic
_symmetry_space_group_name_H-M   'P 1'
_symmetry_Int_Tables_number      1
_space_group_name_Hall           'P 1'
loop_
_symmetry_equiv_pos_site_id
_symmetry_equiv_pos_as_xyz
1 x,y,z
_cell_length_a                   21.2619(13)
_cell_length_b                   21.2619(13)
_cell_length_c                   15.1193(12)
_cell_angle_alpha                90
_cell_angle_beta                 90
_cell_angle_gamma                120
_cell_volume                     5919.25
loop_
_atom_site_label
_atom_site_type_symbol
_atom_site_fract_x
_atom_site_fract_y
_atom_site_fract_z
O5 O 0.6247(3) 0.2554(3) 0.3541(4)
O6 O 0.5757(3) 0.2669(3) 0.4783(5)
F7 F 0.2961(4) 0.0935(4) 0.1480(6)
F9 F 0.2057(4) 0.0119(4) 0.3882(6)
F11 F 0.1876(4) 0.0154(4) 0.1880(6)
F12 F 0.2523(4) 0.1110(4) 0.2659(6)
C18 C 0.4353(5) 0.1646(5) 0.4202(7)
H9 H 0.4401 0.1854 0.4764
C19 C 0.4967(5) 0.1873(5) 0.3680(7)
C20 C 0.5698(5) 0.2409(5) 0.4038(6)
C24 C 0.3607(5) 0.0801(5) 0.3104(7)
C26 C 0.4217(5) 0.1041(6) 0.2565(7)
H12 H 0.4170 0.0839 0.1999
C27 C 0.3667(6) 0.1117(6) 0.3913(7)
H13 H 0.3254 0.0980 0.4265
C30 C 0.4892(5) 0.1575(5) 0.2856(6)
H15 H 0.5301 0.1733 0.2488
C31 C 0.2868(5) 0.0206(5) 0.2730(7)
C34 C 0.2552(7) 0.0606(7) 0.2179(11)
Mn4 Mn 0.71640(5) 0.28360(5) 0.4167
Mn7 Mn 0.67530(5) 0.35060(10) 0.2500
Mn9 Mn 0.64940(10) 0.32470(11) 0.5833
O7 O 0.3449(4) 0.7691(3) 0.1094(4)
F8 F 0.2616(5) 0.9531(4) 0.4048(6)
F10 F 0.1753(4) 0.9167(4) 0.3130(6)
C21 C 0.3162(5) 0.8635(5) 0.1206(7)
C22 C 0.3212(5) 0.8049(5) 0.0713(7)
C23 C 0.2800(6) 0.8964(6) 0.0845(7)
H10 H 0.2604 0.8831 0.0273
C25 C 0.3322(5) 0.9326(5) 0.2520(7)
H11 H 0.3504 0.9456 0.3098
C28 C 0.2985(5) 0.9658(5) 0.2146(8)
C29 C 0.2720(6) 0.9480(6) 0.1301(8)
H14 H 0.2486 0.9708 0.1036
C32 C 0.3408(5) 0.8807(5) 0.2088(7)
H16 H 0.3626 0.8571 0.2373
C33 C 0.2316(6) 0.9755(7) 0.3467(11)
Mn5 Mn 0.35060(10) 0.67530(11) 0.0833
Mn1 Mn 0.28360(5) 0.71640(5) 0.9167
Mn2 Mn 0.32470(5) 0.64940(10) 0.7500
O3 O 0.2309(3) 0.6551(4) 0.7239(4)
F2 F 0.0469(4) 0.7384(5) 0.4285(6)
O4 O 0.2050(4) 0.7023(4) 0.8409(5)
F4 F 0.0833(4) 0.8247(4) 0.5203(6)
C4 C 0.1365(5) 0.6838(5) 0.7127(7)
C5 C 0.1951(5) 0.6788(5) 0.7620(7)
C6 C 0.1036(6) 0.7200(6) 0.7488(7)
H2 H 0.1169 0.7396 0.8060
C8 C 0.0674(5) 0.6678(5) 0.5813(7)
H3 H 0.0544 0.6496 0.5235
C11 C 0.0342(5) 0.7015(5) 0.6187(8)
C12 C 0.0520(6) 0.7280(6) 0.7032(8)
H6 H 0.0292 0.7514 0.7297
C15 C 0.1193(5) 0.6592(5) 0.6245(7)
H8 H 0.1429 0.6374 0.5960
C16 C 0.0245(7) 0.7684(6) 0.4866(11)
O8 O 0.2977(4) 0.7950(4) 0.9924(5)
O9 O 0.2554(3) 0.6247(3) 0.9792(4)
O10 O 0.3693(4) 0.7446(3) 0.6459(4)
O11 O 0.3753(3) 0.7446(3) 0.8541(4)
O12 O 0.2669(3) 0.5757(3) 0.8550(5)
O13 O 0.3088(4) 0.5757(3) 0.6450(5)
O14 O 0.4242(5) 0.6551(4) 0.7761(4)
O1 O 0.7446(3) 0.3753(3) 0.4792(4)
O2 O 0.7331(3) 0.4243(3) 0.3550(5)
F1 F 0.9065(4) 0.7039(4) 0.6853(6)
F3 F 0.9881(4) 0.7943(4) 0.4451(6)
F5 F 0.9846(4) 0.8124(4) 0.6453(6)
F6 F 0.8890(4) 0.7477(4) 0.5674(6)
C1 C 0.8354(5) 0.5647(5) 0.4131(7)
H1 H 0.8146 0.5599 0.3569
C2 C 0.8127(5) 0.5033(5) 0.4653(7)
C3 C 0.7591(5) 0.4302(5) 0.4295(6)
C7 C 0.9199(5) 0.6393(5) 0.5229(7)
C9 C 0.8959(6) 0.5783(5) 0.5768(7)
H4 H 0.9161 0.5830 0.6334
C10 C 0.8883(6) 0.6333(6) 0.4420(7)
H5 H 0.9020 0.6746 0.4068
C13 C 0.8425(5) 0.5108(5) 0.5477(6)
H7 H 0.8267 0.4699 0.5845
C14 C 0.9794(5) 0.7132(5) 0.5603(7)
C17 C 0.9394(7) 0.7448(7) 0.6154(11)
Mn1_2 Mn 0.28360(5) 0.56720(7) 0.2500
O3_2 O 0.3449(4) 0.5758(5) 0.0572(4)
F1_2 F 0.2961(4) 0.2026(6) 0.0186(6)
O4_2 O 0.2977(4) 0.5027(6) 0.1742(5)
C4_2 C 0.3162(5) 0.4527(7) 0.0460(7)
C5_2 C 0.3212(5) 0.5163(7) 0.0953(7)
C6_2 C 0.2800(6) 0.3836(8) 0.0821(7)
H2_2 H 0.2604 0.3773 0.1393
C12_2 C 0.2720(6) 0.3240(8) 0.0365(8)
H6_2 H 0.2486 0.2778 0.0630
O7_2 O 0.2309(3) 0.5758(5) 0.4428(4)
F8_2 F 0.0469(4) 0.3085(6) 0.7382(6)
O8_2 O 0.2050(4) 0.5027(6) 0.3258(5)
F10_2 F 0.0833(4) 0.2586(6) 0.6464(6)
C21_2 C 0.1365(5) 0.4527(7) 0.4540(7)
C22_2 C 0.1951(5) 0.5163(7) 0.4047(7)
C23_2 C 0.1036(6) 0.3836(8) 0.4179(7)
H10_2 H 0.1169 0.3773 0.3607
C25_2 C 0.0674(5) 0.3996(7) 0.5854(7)
H11_2 H 0.0544 0.4048 0.6432
C28_2 C 0.0342(5) 0.3327(7) 0.5480(8)
C29_2 C 0.0520(6) 0.3240(8) 0.4635(8)
H14_2 H 0.0292 0.2778 0.4370
C32_2 C 0.1193(5) 0.4601(7) 0.5422(7)
H16_2 H 0.1429 0.5055 0.5707
C33_2 C 0.0245(7) 0.2561(9) 0.6801(11)
Mn5_2 Mn 0.32470(11) 0.67530(15) 0.4167
O9_2 O 0.3753(3) 0.6307(4) 0.3125(4)
O11_2 O 0.2554(3) 0.6307(4) 0.1875(4)
O12_2 O 0.4243(3) 0.6912(4) 0.1883(5)
O1_2 O 0.6247(3) 0.3693(4) 0.8125(4)
O2_2 O 0.5757(3) 0.3088(4) 0.6883(5)
F2_2 F 0.2616(5) 0.3085(6) 0.7618(6)
F3_2 F 0.2057(4) 0.1938(6) 0.7784(6)
F4_2 F 0.1753(4) 0.2586(6) 0.8536(6)
F5_2 F 0.1876(4) 0.1722(6) 0.9786(6)
F6_2 F 0.2523(4) 0.1413(6) 0.9007(6)
C1_2 C 0.4353(5) 0.2707(7) 0.7464(7)
H1_2 H 0.4401 0.2547 0.6902
C2_2 C 0.4967(5) 0.3094(7) 0.7986(7)
C3_2 C 0.5698(5) 0.3289(7) 0.7628(6)
C7_2 C 0.3607(5) 0.2806(7) 0.8562(7)
C8_2 C 0.3322(5) 0.3996(7) 0.9146(7)
H3_2 H 0.3504 0.4048 0.8568
C9_2 C 0.4217(5) 0.3176(8) 0.9101(7)
H4_2 H 0.4170 0.3331 0.9667
C10_2 C 0.3667(6) 0.2550(8) 0.7753(7)
H5_2 H 0.3254 0.2274 0.7401
C11_2 C 0.2985(5) 0.3327(7) 0.9520(8)
C13_2 C 0.4892(5) 0.3317(7) 0.8810(6)
H7_2 H 0.5301 0.3568 0.9178
C14_2 C 0.2868(5) 0.2662(7) 0.8936(7)
C15_2 C 0.3408(5) 0.4601(7) 0.9578(7)
H8_2 H 0.3626 0.5055 0.9293
C16_2 C 0.2316(6) 0.2561(9) 0.8199(11)
C17_2 C 0.2552(7) 0.1946(10) 0.9487(11)
Mn3 Mn 0.71640(5) 0.43280(7) 0.7500
Mn8 Mn 0.67530(11) 0.32470(15) 0.9167
O13_2 O 0.4243(3) 0.7331(5) 0.9783(5)
O5_2 O 0.7446(3) 0.3693(4) 0.6875(4)
O6_2 O 0.7331(3) 0.3088(4) 0.8117(5)
F7_2 F 0.9065(4) 0.2026(6) 0.4814(6)
F9_2 F 0.9881(4) 0.1938(6) 0.7216(6)
F11_2 F 0.9846(4) 0.1722(6) 0.5214(6)
F12_2 F 0.8890(4) 0.1413(6) 0.5993(6)
C18_2 C 0.8354(5) 0.2707(7) 0.7536(7)
H9_2 H 0.8146 0.2547 0.8098
C19_2 C 0.8127(5) 0.3094(7) 0.7014(7)
C20_2 C 0.7591(5) 0.3289(7) 0.7372(6)
C24_2 C 0.9199(5) 0.2806(7) 0.6438(7)
C26_2 C 0.8959(6) 0.3176(8) 0.5899(7)
H12_2 H 0.9161 0.3331 0.5333
C27_2 C 0.8883(6) 0.2550(8) 0.7247(7)
H13_2 H 0.9020 0.2274 0.7599
C30_2 C 0.8425(5) 0.3317(7) 0.6190(6)
H15_2 H 0.8267 0.3568 0.5822
C31_2 C 0.9794(5) 0.2662(7) 0.6064(7)
C34_2 C 0.9394(7) 0.1946(10) 0.5513(11)
O1_3 O 0.6307(4) 0.2554(3) 0.1459(4)
O2_3 O 0.6912(4) 0.2669(3) 0.0217(5)
F1_3 F 0.7974(6) 0.0935(4) 0.3520(6)
F3_3 F 0.8062(6) 0.0119(4) 0.1118(6)
F5_3 F 0.8278(6) 0.0154(4) 0.3120(6)
F6_3 F 0.8587(6) 0.1110(4) 0.2341(6)
C1_3 C 0.7293(7) 0.1646(5) 0.0798(7)
H1_3 H 0.7453 0.1854 0.0236
C2_3 C 0.6906(7) 0.1873(5) 0.1320(7)
C3_3 C 0.6711(7) 0.2409(5) 0.0962(6)
C7_3 C 0.7194(7) 0.0801(5) 0.1896(7)
C9_3 C 0.6824(8) 0.1041(6) 0.2435(7)
H4_3 H 0.6669 0.0839 0.3001
C10_3 C 0.7450(8) 0.1117(6) 0.1087(7)
H5_3 H 0.7726 0.0980 0.0735
C13_3 C 0.6683(7) 0.1575(5) 0.2144(6)
H7_3 H 0.6432 0.1733 0.2512
C14_3 C 0.7338(7) 0.0206(5) 0.2270(7)
C17_3 C 0.8054(10) 0.0606(7) 0.2821(11)
Mn3_2 Mn 0.56720(7) 0.28360(5) 0.0834
O5_3 O 0.6307(4) 0.3753(3) 0.0208(4)
O6_3 O 0.6912(4) 0.4243(3) 0.1450(5)
F8_3 F 0.6915(6) 0.7384(5) 0.0715(6)
F9_3 F 0.8062(6) 0.7943(4) 0.0549(6)
C18_3 C 0.7293(7) 0.5647(5) 0.0869(7)
H9_3 H 0.7453 0.5599 0.1431
C19_3 C 0.6906(7) 0.5033(5) 0.0347(7)
C20_3 C 0.6711(7) 0.4302(5) 0.0705(6)
C27_3 C 0.7450(8) 0.6333(6) 0.0580(7)
H13_3 H 0.7726 0.6746 0.0932
C33_3 C 0.7439(9) 0.7684(6) 0.0134(11)
Mn1_3 Mn 0.43280(7) 0.71640(5) 0.5834
O3_3 O 0.4242(5) 0.7691(3) 0.3906(4)
F2_3 F 0.6915(6) 0.9531(4) 0.0952(6)
O4_3 O 0.4973(6) 0.7950(4) 0.5076(5)
F4_3 F 0.7414(6) 0.9167(4) 0.1870(6)
C4_3 C 0.5473(7) 0.8635(5) 0.3794(7)
C5_3 C 0.4837(7) 0.8049(5) 0.4287(7)
C6_3 C 0.6164(8) 0.8964(6) 0.4155(7)
H2_3 H 0.6227 0.8831 0.4727
C8_3 C 0.6004(7) 0.9326(5) 0.2480(7)
H3_3 H 0.5952 0.9456 0.1902
C11_3 C 0.6673(7) 0.9658(5) 0.2854(8)
C12_3 C 0.6760(8) 0.9480(6) 0.3699(8)
H6_3 H 0.7222 0.9708 0.3964
C15_3 C 0.5399(7) 0.8807(5) 0.2912(7)
H8_3 H 0.4945 0.8571 0.2627
C16_3 C 0.7439(9) 0.9755(7) 0.1533(11)
F7_3 F 0.7974(6) 0.7039(4) 0.8147(6)
O8_3 O 0.4973(6) 0.7023(4) 0.6591(5)
F10_3 F 0.7414(6) 0.8247(4) 0.9797(6)
F11_3 F 0.8278(6) 0.8124(4) 0.8547(6)
F12_3 F 0.8587(6) 0.7477(4) 0.9326(6)
C21_3 C 0.5473(7) 0.6838(5) 0.7873(7)
C22_3 C 0.4837(7) 0.6788(5) 0.7380(7)
C23_3 C 0.6164(8) 0.7200(6) 0.7512(7)
H10_3 H 0.6227 0.7396 0.6940
C24_3 C 0.7194(7) 0.6393(5) 0.9771(7)
C25_3 C 0.6004(7) 0.6678(5) 0.9187(7)
H11_3 H 0.5952 0.6496 0.9765
C26_3 C 0.6824(8) 0.5783(5) 0.9232(7)
H12_3 H 0.6669 0.5830 0.8666
C28_3 C 0.6673(7) 0.7015(5) 0.8813(8)
C29_3 C 0.6760(8) 0.7280(6) 0.7968(8)
H14_3 H 0.7222 0.7514 0.7703
C30_3 C 0.6683(7) 0.5108(5) 0.9523(6)
H15_3 H 0.6432 0.4699 0.9155
C31_3 C 0.7338(7) 0.7132(5) 0.9397(7)
C32_3 C 0.5399(7) 0.6592(5) 0.8755(7)
H16_3 H 0.4945 0.6374 0.9040
C34_3 C 0.8054(10) 0.7448(7) 0.8846(11)
O11_3 O 0.3693(4) 0.6247(3) 0.5208(4)
O12_3 O 0.3088(4) 0.7331(3) 0.5217(5)
O13_3 O 0.2669(5) 0.6912(4) 0.3117(5)
F1_4 F 0.0935(4) 0.2961(4) 0.1853(6)
F5_4 F 0.0154(4) 0.1876(4) 0.1453(6)
F6_4 F 0.1110(4) 0.2523(4) 0.0674(6)
C7_4 C 0.0801(5) 0.3607(5) 0.0229(7)
C9_4 C 0.1041(6) 0.4217(5) 0.0768(7)
H4_4 H 0.0839 0.4170 0.1334
C13_4 C 0.1575(5) 0.4892(5) 0.0477(6)
H7_4 H 0.1733 0.5301 0.0845
C14_4 C 0.0206(5) 0.2868(5) 0.0603(7)
C17_4 C 0.0606(7) 0.2552(7) 0.1154(11)
F3_4 F 0.0119(4) 0.2057(4) 0.9451(6)
C1_4 C 0.1646(5) 0.4353(5) 0.9131(7)
H1_4 H 0.1854 0.4401 0.8569
C2_4 C 0.1873(5) 0.4967(5) 0.9653(7)
C3_4 C 0.2409(5) 0.5698(5) 0.9295(6)
C10_4 C 0.1117(6) 0.3667(6) 0.9420(7)
H5_4 H 0.0980 0.3254 0.9068
O3_4 O 0.7691(3) 0.3449(4) 0.2239(4)
O4_4 O 0.7950(4) 0.2977(4) 0.3409(5)
F4_4 F 0.9167(4) 0.1753(4) 0.0203(6)
C4_4 C 0.8635(5) 0.3162(5) 0.2127(7)
C5_4 C 0.8049(5) 0.3212(5) 0.2620(7)
C6_4 C 0.8964(6) 0.2800(6) 0.2488(7)
H2_4 H 0.8831 0.2604 0.3060
C8_4 C 0.9326(5) 0.3322(5) 0.0813(7)
H3_4 H 0.9456 0.3504 0.0235
C11_4 C 0.9658(5) 0.2985(5) 0.1187(8)
C12_4 C 0.9480(6) 0.2720(6) 0.2032(8)
H6_4 H 0.9708 0.2486 0.2297
C15_4 C 0.8807(5) 0.3408(5) 0.1245(7)
H8_4 H 0.8571 0.3626 0.0960
O7_3 O 0.6551(4) 0.2309(3) 0.6094(4)
F8_4 F 0.7384(5) 0.0469(4) 0.9048(6)
O8_4 O 0.7023(4) 0.2050(4) 0.4924(5)
F10_4 F 0.8247(4) 0.0833(4) 0.8130(6)
C21_4 C 0.6838(5) 0.1365(5) 0.6206(7)
C22_4 C 0.6788(5) 0.1951(5) 0.5713(7)
C23_4 C 0.7200(6) 0.1036(6) 0.5845(7)
H10_4 H 0.7396 0.1169 0.5273
C25_4 C 0.6678(5) 0.0674(5) 0.7520(7)
H11_4 H 0.6496 0.0544 0.8098
C28_4 C 0.7015(5) 0.0342(5) 0.7146(8)
C29_4 C 0.7280(6) 0.0520(6) 0.6301(8)
H14_4 H 0.7514 0.0292 0.6036
C32_4 C 0.6592(5) 0.1193(5) 0.7088(7)
H16_4 H 0.6374 0.1429 0.7373
C33_4 C 0.7684(6) 0.0245(7) 0.8467(11)
O14_2 O 0.5758(5) 0.3449(4) 0.2761(4)
F7_4 F 0.7039(4) 0.9065(4) 0.6480(6)
F9_4 F 0.7943(4) 0.9881(4) 0.8882(6)
F11_4 F 0.8124(4) 0.9846(4) 0.6880(6)
F12_4 F 0.7477(4) 0.8890(4) 0.7659(6)
C18_4 C 0.5647(5) 0.8354(5) 0.9202(7)
H9_4 H 0.5599 0.8146 0.9764
C19_4 C 0.5033(5) 0.8127(5) 0.8680(7)
C20_4 C 0.4302(5) 0.7591(5) 0.9038(6)
C24_4 C 0.6393(5) 0.9199(5) 0.8104(7)
C26_4 C 0.5783(5) 0.8959(6) 0.7565(7)
H12_4 H 0.5830 0.9161 0.6999
C27_4 C 0.6333(6) 0.8883(6) 0.8913(7)
H13_4 H 0.6746 0.9020 0.9265
C30_4 C 0.5108(5) 0.8425(5) 0.7856(6)
H15_4 H 0.4699 0.8267 0.7488
C31_4 C 0.7132(5) 0.9794(5) 0.7730(7)
C34_4 C 0.7448(7) 0.9394(7) 0.7179(11)
F9_5 F 0.0119(4) 0.8062(6) 0.2216(6)
F11_5 F 0.0154(4) 0.8278(6) 0.0214(6)
F12_5 F 0.1110(4) 0.8587(6) 0.0993(6)
C18_5 C 0.1646(5) 0.7293(7) 0.2536(7)
H9_5 H 0.1854 0.7453 0.3098
C19_5 C 0.1873(5) 0.6906(7) 0.2014(7)
C20_5 C 0.2409(5) 0.6711(7) 0.2372(6)
C24_5 C 0.0801(5) 0.7194(7) 0.1438(7)
C26_5 C 0.1041(6) 0.6824(8) 0.0899(7)
H12_5 H 0.0839 0.6669 0.0333
C27_5 C 0.1117(6) 0.7450(8) 0.2247(7)
H13_5 H 0.0980 0.7726 0.2599
C30_5 C 0.1575(5) 0.6683(7) 0.1190(6)
H15_5 H 0.1733 0.6432 0.0822
C31_5 C 0.0206(5) 0.7338(7) 0.1064(7)
C34_5 C 0.0606(7) 0.8054(10) 0.0513(11)
F8_5 F 0.9531(4) 0.6915(6) 0.2382(6)
F10_5 F 0.9167(4) 0.7414(6) 0.1464(6)
C25_5 C 0.9326(5) 0.6004(7) 0.0854(7)
H11_5 H 0.9456 0.5952 0.1432
C28_5 C 0.9658(5) 0.6673(7) 0.0480(8)
C32_5 C 0.8807(5) 0.5399(7) 0.0422(7)
H16_5 H 0.8571 0.4945 0.0707
C33_5 C 0.9755(7) 0.7439(9) 0.1801(11)
O3_5 O 0.6551(4) 0.4242(5) 0.5572(4)
F1_5 F 0.7039(4) 0.7974(6) 0.5186(6)
F2_4 F 0.7384(5) 0.6915(6) 0.2618(6)
O4_5 O 0.7023(4) 0.4973(6) 0.6742(5)
F3_5 F 0.7943(4) 0.8062(6) 0.2784(6)
F4_5 F 0.8247(4) 0.7414(6) 0.3536(6)
F5_5 F 0.8124(4) 0.8278(6) 0.4786(6)
F6_5 F 0.7477(4) 0.8587(6) 0.4007(6)
C1_5 C 0.5647(5) 0.7293(7) 0.2464(7)
H1_5 H 0.5599 0.7453 0.1902
C2_5 C 0.5033(5) 0.6906(7) 0.2986(7)
C3_5 C 0.4302(5) 0.6711(7) 0.2628(6)
C4_5 C 0.6838(5) 0.5473(7) 0.5460(7)
C5_5 C 0.6788(5) 0.4837(7) 0.5953(7)
C6_5 C 0.7200(6) 0.6164(8) 0.5821(7)
H2_5 H 0.7396 0.6227 0.6393
C7_5 C 0.6393(5) 0.7194(7) 0.3562(7)
C8_5 C 0.6678(5) 0.6004(7) 0.4146(7)
H3_5 H 0.6496 0.5952 0.3568
C9_5 C 0.5783(5) 0.6824(8) 0.4101(7)
H4_5 H 0.5830 0.6669 0.4667
C10_5 C 0.6333(6) 0.7450(8) 0.2753(7)
H5_5 H 0.6746 0.7726 0.2401
C11_5 C 0.7015(5) 0.6673(7) 0.4520(8)
C12_5 C 0.7280(6) 0.6760(8) 0.5365(8)
H6_5 H 0.7514 0.7222 0.5630
C13_5 C 0.5108(5) 0.6683(7) 0.3810(6)
H7_5 H 0.4699 0.6432 0.4178
C14_5 C 0.7132(5) 0.7338(7) 0.3936(7)
C15_5 C 0.6592(5) 0.5399(7) 0.4578(7)
H8_5 H 0.6374 0.4945 0.4293
C16_4 C 0.7684(6) 0.7439(9) 0.3199(11)
C17_5 C 0.7448(7) 0.8054(10) 0.4487(11)
O7_4 O 0.7691(3) 0.4242(5) 0.9428(4)
O8_5 O 0.7950(4) 0.4973(6) 0.8258(5)
C21_5 C 0.8635(5) 0.5473(7) 0.9540(7)
C22_5 C 0.8049(5) 0.4837(7) 0.9047(7)
C23_5 C 0.8964(6) 0.6164(8) 0.9179(7)
H10_5 H 0.8831 0.6227 0.8607
C29_5 C 0.9480(6) 0.6760(8) 0.9635(8)
H14_5 H 0.9708 0.7222 0.9370
O4_6 O 0.5027(6) 0.2050(4) 0.0076(5)
F7_5 F 0.2026(6) 0.2961(4) 0.3147(6)
F8_6 F 0.3085(6) 0.2616(5) 0.5715(6)
O8_6 O 0.5027(6) 0.2977(4) 0.1591(5)
F9_6 F 0.1938(6) 0.2057(4) 0.5549(6)
F10_6 F 0.2586(6) 0.1753(4) 0.4797(6)
F11_6 F 0.1722(6) 0.1876(4) 0.3547(6)
F12_6 F 0.1413(6) 0.2523(4) 0.4326(6)
C18_6 C 0.2707(7) 0.4353(5) 0.5869(7)
H9_6 H 0.2547 0.4401 0.6431
C19_6 C 0.3094(7) 0.4967(5) 0.5347(7)
C20_6 C 0.3289(7) 0.5698(5) 0.5705(6)
C21_6 C 0.4527(7) 0.3162(5) 0.2873(7)
C22_6 C 0.5163(7) 0.3212(5) 0.2380(7)
C23_6 C 0.3836(8) 0.2800(6) 0.2512(7)
H10_6 H 0.3773 0.2604 0.1940
C24_6 C 0.2806(7) 0.3607(5) 0.4771(7)
C25_6 C 0.3996(7) 0.3322(5) 0.4187(7)
H11_6 H 0.4048 0.3504 0.4765
C26_6 C 0.3176(8) 0.4217(5) 0.4232(7)
H12_6 H 0.3331 0.4170 0.3666
C27_6 C 0.2550(8) 0.3667(6) 0.5580(7)
H13_6 H 0.2274 0.3254 0.5932
C28_6 C 0.3327(7) 0.2985(5) 0.3813(8)
C29_6 C 0.3240(8) 0.2720(6) 0.2968(8)
H14_6 H 0.2778 0.2486 0.2703
C30_6 C 0.3317(7) 0.4892(5) 0.4523(6)
H15_6 H 0.3568 0.5301 0.4155
C31_6 C 0.2662(7) 0.2868(5) 0.4397(7)
C32_6 C 0.4601(7) 0.3408(5) 0.3755(7)
H16_6 H 0.5055 0.3626 0.4040
C33_6 C 0.2561(9) 0.2316(6) 0.5134(11)
C34_6 C 0.1946(10) 0.2552(7) 0.3846(11)
O3_6 O 0.5758(5) 0.2309(3) 0.8906(4)
F2_5 F 0.3085(6) 0.0469(4) 0.5952(6)
F4_6 F 0.2586(6) 0.0833(4) 0.6870(6)
C4_6 C 0.4527(7) 0.1365(5) 0.8794(7)
C5_6 C 0.5163(7) 0.1951(5) 0.9287(7)
C6_6 C 0.3836(8) 0.1036(6) 0.9155(7)
H2_6 H 0.3773 0.1169 0.9727
C8_6 C 0.3996(7) 0.0674(5) 0.7480(7)
H3_6 H 0.4048 0.0544 0.6902
C11_6 C 0.3327(7) 0.0342(5) 0.7854(8)
C12_6 C 0.3240(8) 0.0520(6) 0.8699(8)
H6_6 H 0.2778 0.0292 0.8964
C15_6 C 0.4601(7) 0.1193(5) 0.7912(7)
H8_6 H 0.5055 0.1429 0.7627
C16_5 C 0.2561(9) 0.0245(7) 0.6533(11)
F1_6 F 0.2026(6) 0.9065(4) 0.8520(6)
F3_6 F 0.1938(6) 0.9881(4) 0.6118(6)
F5_6 F 0.1722(6) 0.9846(4) 0.8120(6)
F6_6 F 0.1413(6) 0.8890(4) 0.7341(6)
C1_6 C 0.2707(7) 0.8354(5) 0.5798(7)
H1_6 H 0.2547 0.8146 0.5236
C2_6 C 0.3094(7) 0.8127(5) 0.6320(7)
C3_6 C 0.3289(7) 0.7591(5) 0.5962(6)
C7_6 C 0.2806(7) 0.9199(5) 0.6896(7)
C9_6 C 0.3176(8) 0.8959(6) 0.7435(7)
H4_6 H 0.3331 0.9161 0.8001
C10_6 C 0.2550(8) 0.8883(6) 0.6087(7)
H5_6 H 0.2274 0.9020 0.5735
C13_6 C 0.3317(7) 0.8425(5) 0.7144(6)
H7_6 H 0.3568 0.8267 0.7512
C14_6 C 0.2662(7) 0.9794(5) 0.7270(7)
C17_6 C 0.1946(10) 0.9394(7) 0.7821(11)
F2_6 F 0.9531(4) 0.2616(5) 0.9285(6)
C16_6 C 0.9755(7) 0.2316(6) 0.9866(11)
F7_6 F 0.0935(4) 0.7974(6) 0.9814(6)
loop_
_geom_bond_atom_site_label_1
_geom_bond_atom_site_label_2
_geom_bond_site_symmetry_1
_geom_bond_site_symmetry_2
O5 C20 1_555 1_555
O6 C20 1_555 1_555
F7 C34 1_555 1_555
F11 C34 1_555 1_555
F12 C34 1_555 1_555
C18 H9 1_555 1_555
C19 C18 1_555 1_555
C20 C19 1_555 1_555
C24 C26 1_555 1_555
C26 H12 1_555 1_555
C27 C18 1_555 1_555
H13 C27 1_555 1_555
C30 C19 1_555 1_555
H15 C30 1_555 1_555
C31 C24 1_555 1_555
C34 C31 1_555 1_555
Mn4 O5 1_555 1_555
Mn7 O5 1_555 1_555
Mn9 O6 1_555 1_555
C24 C27 1_555 1_555
C26 C30 1_555 1_555
O7 C22 1_555 1_555
F8 C33 1_555 1_555
F10 C33 1_555 1_555
C21 C22 1_555 1_555
C23 C21 1_555 1_555
H10 C23 1_555 1_555
C25 H11 1_555 1_555
C28 C25 1_555 1_555
C29 C23 1_555 1_555
H14 C29 1_555 1_555
C32 C21 1_555 1_555
H16 C32 1_555 1_555
Mn5 O7 1_555 1_555
C25 C32 1_555 1_555
C28 C29 1_555 1_555
Mn1 O4 1_555 1_555
Mn2 O3 1_555 1_555
O3 C5 1_555 1_555
F2 C16 1_555 1_555
O4 C5 1_555 1_555
F4 C16 1_555 1_555
C4 C5 1_555 1_555
C6 C4 1_555 1_555
H2 C6 1_555 1_555
C8 H3 1_555 1_555
C11 C8 1_555 1_555
C12 C6 1_555 1_555
H6 C12 1_555 1_555
C15 C4 1_555 1_555
H8 C15 1_555 1_555
O8 Mn1 1_555 1_555
O9 Mn1 1_555 1_555
O10 Mn2 1_555 1_555
O11 Mn1 1_555 1_555
O12 Mn2 1_555 1_555
O13 Mn2 1_555 1_555
O14 Mn2 1_555 1_555
Mn2 O11 1_555 1_555
C8 C15 1_555 1_555
C11 C12 1_555 1_555
O1 C3 1_555 1_555
O2 C3 1_555 1_555
F1 C17 1_555 1_555
F5 C17 1_555 1_555
F6 C17 1_555 1_555
C1 H1 1_555 1_555
C2 C1 1_555 1_555
C3 C2 1_555 1_555
C7 C9 1_555 1_555
C9 H4 1_555 1_555
C10 C1 1_555 1_555
H5 C10 1_555 1_555
C13 C2 1_555 1_555
H7 C13 1_555 1_555
C14 C7 1_555 1_555
C17 C14 1_555 1_555
Mn4 O1 1_555 1_555
Mn7 O2 1_555 1_555
Mn9 O1 1_555 1_555
C7 C10 1_555 1_555
C9 C13 1_555 1_555
Mn1_2 O4_2 1_555 1_555
Mn5 O3_2 1_555 1_555
O3_2 C5_2 1_555 1_555
O4_2 C5_2 1_555 1_555
C4_2 C5_2 1_555 1_555
C6_2 C4_2 1_555 1_555
H2_2 C6_2 1_555 1_555
C12_2 C6_2 1_555 1_555
H6_2 C12_2 1_555 1_555
O7_2 C22_2 1_555 1_555
F8_2 C33_2 1_555 1_555
O8_2 Mn1_2 1_555 1_555
F10_2 C33_2 1_555 1_555
C21_2 C22_2 1_555 1_555
C22_2 O8_2 1_555 1_555
C23_2 C21_2 1_555 1_555
H10_2 C23_2 1_555 1_555
C25_2 H11_2 1_555 1_555
C28_2 C25_2 1_555 1_555
C29_2 C23_2 1_555 1_555
H14_2 C29_2 1_555 1_555
C32_2 C21_2 1_555 1_555
H16_2 C32_2 1_555 1_555
Mn5_2 O7_2 1_555 1_555
O9_2 Mn1_2 1_555 1_555
O11_2 Mn1_2 1_555 1_555
O12_2 Mn5 1_555 1_555
Mn5 O11_2 1_555 1_555
C25_2 C32_2 1_555 1_555
C28_2 C29_2 1_555 1_555
Mn5_2 O9_2 1_555 1_555
O1_2 C3_2 1_555 1_555
O2_2 C3_2 1_555 1_555
F2_2 C16_2 1_555 1_555
F3_2 C16_2 1_555 1_555
F4_2 C16_2 1_555 1_555
F5_2 C17_2 1_555 1_555
F6_2 C17_2 1_555 1_555
C1_2 H1_2 1_555 1_555
C2_2 C1_2 1_555 1_555
C3_2 C2_2 1_555 1_555
C7_2 C9_2 1_555 1_555
C8_2 H3_2 1_555 1_555
C9_2 H4_2 1_555 1_555
C10_2 C1_2 1_555 1_555
H5_2 C10_2 1_555 1_555
C11_2 C8_2 1_555 1_555
C13_2 C2_2 1_555 1_555
H7_2 C13_2 1_555 1_555
C14_2 C7_2 1_555 1_555
H8_2 C15_2 1_555 1_555
C16_2 C14_2 1_555 1_555
C17_2 C14_2 1_555 1_555
Mn3 O1_2 1_555 1_555
Mn9 O2_2 1_555 1_555
Mn8 O1_2 1_555 1_555
C7_2 C10_2 1_555 1_555
C8_2 C15_2 1_555 1_555
C9_2 C13_2 1_555 1_555
C11_2 C14_2 1_555 1_555
O5_2 C20_2 1_555 1_555
O6_2 C20_2 1_555 1_555
F7_2 C34_2 1_555 1_555
F11_2 C34_2 1_555 1_555
F12_2 C34_2 1_555 1_555
C18_2 H9_2 1_555 1_555
C19_2 C18_2 1_555 1_555
C20_2 C19_2 1_555 1_555
C24_2 C26_2 1_555 1_555
C26_2 H12_2 1_555 1_555
C27_2 C18_2 1_555 1_555
H13_2 C27_2 1_555 1_555
C30_2 C19_2 1_555 1_555
H15_2 C30_2 1_555 1_555
C31_2 C24_2 1_555 1_555
C34_2 C31_2 1_555 1_555
Mn3 O5_2 1_555 1_555
Mn9 O5_2 1_555 1_555
Mn8 O6_2 1_555 1_555
C24_2 C27_2 1_555 1_555
C26_2 C30_2 1_555 1_555
O1_3 C3_3 1_555 1_555
O2_3 C3_3 1_555 1_555
F1_3 C17_3 1_555 1_555
F5_3 C17_3 1_555 1_555
F6_3 C17_3 1_555 1_555
C1_3 H1_3 1_555 1_555
C2_3 C1_3 1_555 1_555
C3_3 C2_3 1_555 1_555
C7_3 C9_3 1_555 1_555
C9_3 H4_3 1_555 1_555
C10_3 C1_3 1_555 1_555
H5_3 C10_3 1_555 1_555
C13_3 C2_3 1_555 1_555
H7_3 C13_3 1_555 1_555
C14_3 C7_3 1_555 1_555
C17_3 C14_3 1_555 1_555
Mn3_2 O1_3 1_555 1_555
Mn7 O1_3 1_555 1_555
C7_3 C10_3 1_555 1_555
C9_3 C13_3 1_555 1_555
O5_3 C20_3 1_555 1_555
O6_3 C20_3 1_555 1_555
F8_3 C33_3 1_555 1_555
F9_3 C33_3 1_555 1_555
C18_3 H9_3 1_555 1_555
C19_3 C18_3 1_555 1_555
C20_3 C19_3 1_555 1_555
C27_3 C18_3 1_555 1_555
H13_3 C27_3 1_555 1_555
Mn3_2 O5_3 1_555 1_555
Mn7 O6_3 1_555 1_555
Mn1_3 O4_3 1_555 1_555
Mn5_2 O3_3 1_555 1_555
O3_3 C5_3 1_555 1_555
F2_3 C16_3 1_555 1_555
O4_3 C5_3 1_555 1_555
F4_3 C16_3 1_555 1_555
C4_3 C5_3 1_555 1_555
C6_3 C4_3 1_555 1_555
H2_3 C6_3 1_555 1_555
C8_3 H3_3 1_555 1_555
C11_3 C8_3 1_555 1_555
C12_3 C6_3 1_555 1_555
H6_3 C12_3 1_555 1_555
C15_3 C4_3 1_555 1_555
H8_3 C15_3 1_555 1_555
O14 C22_3 1_555 1_555
F7_3 C34_3 1_555 1_555
O8_3 Mn1_3 1_555 1_555
F11_3 C34_3 1_555 1_555
F12_3 C34_3 1_555 1_555
C21_3 C22_3 1_555 1_555
C22_3 O8_3 1_555 1_555
C23_3 C21_3 1_555 1_555
H10_3 C23_3 1_555 1_555
C24_3 C26_3 1_555 1_555
C25_3 H11_3 1_555 1_555
C26_3 H12_3 1_555 1_555
C28_3 C25_3 1_555 1_555
C29_3 C23_3 1_555 1_555
H14_3 C29_3 1_555 1_555
H15_3 C30_3 1_555 1_555
C31_3 C24_3 1_555 1_555
C32_3 C21_3 1_555 1_555
H16_3 C32_3 1_555 1_555
C34_3 C31_3 1_555 1_555
O10 Mn1_3 1_555 1_555
O11_3 Mn1_3 1_555 1_555
O12_3 Mn5_2 1_555 1_555
O13_3 Mn5_2 1_555 1_555
Mn5_2 O11_3 1_555 1_555
C8_3 C15_3 1_555 1_555
C11_3 C12_3 1_555 1_555
C25_3 C32_3 1_555 1_555
C26_3 C30_3 1_555 1_555
C28_3 C29_3 1_555 1_555
C28_3 C31_3 1_555 1_555
F1_4 C17_4 1_555 1_555
F5_4 C17_4 1_555 1_555
F6_4 C17_4 1_555 1_555
C7_4 C9_4 1_555 1_555
C9_4 H4_4 1_555 1_555
H7_4 C13_4 1_555 1_555
C14_4 C7_4 1_555 1_555
C17_4 C14_4 1_555 1_555
C9_4 C13_4 1_555 1_555
O9 C3_4 1_555 1_555
O12 C3_4 1_555 1_555
C1_4 H1_4 1_555 1_555
C2_4 C1_4 1_555 1_555
C3_4 C2_4 1_555 1_555
C10_4 C1_4 1_555 1_555
H5_4 C10_4 1_555 1_555
Mn4 O4_4 1_555 1_555
Mn7 O3_4 1_555 1_555
O3_4 C5_4 1_555 1_555
O4_4 C5_4 1_555 1_555
C4_4 C5_4 1_555 1_555
C6_4 C4_4 1_555 1_555
H2_4 C6_4 1_555 1_555
C8_4 H3_4 1_555 1_555
C11_4 C8_4 1_555 1_555
C12_4 C6_4 1_555 1_555
H6_4 C12_4 1_555 1_555
C15_4 C4_4 1_555 1_555
H8_4 C15_4 1_555 1_555
O7_3 C22_4 1_555 1_555
F8_4 C33_4 1_555 1_555
O8_4 Mn4 1_555 1_555
F10_4 C33_4 1_555 1_555
C21_4 C22_4 1_555 1_555
C22_4 O8_4 1_555 1_555
C23_4 C21_4 1_555 1_555
H10_4 C23_4 1_555 1_555
C25_4 H11_4 1_555 1_555
C28_4 C25_4 1_555 1_555
C29_4 C23_4 1_555 1_555
H14_4 C29_4 1_555 1_555
C32_4 C21_4 1_555 1_555
H16_4 C32_4 1_555 1_555
Mn9 O7_3 1_555 1_555
O14_2 Mn7 1_555 1_555
C8_4 C15_4 1_555 1_555
C11_4 C12_4 1_555 1_555
C25_4 C32_4 1_555 1_555
C28_4 C29_4 1_555 1_555
O11 C20_4 1_555 1_555
O13_2 C20_4 1_555 1_555
F7_4 C34_4 1_555 1_555
F11_4 C34_4 1_555 1_555
F12_4 C34_4 1_555 1_555
C18_4 H9_4 1_555 1_555
C19_4 C18_4 1_555 1_555
C20_4 C19_4 1_555 1_555
C24_4 C26_4 1_555 1_555
C26_4 H12_4 1_555 1_555
C27_4 C18_4 1_555 1_555
H13_4 C27_4 1_555 1_555
C30_4 C19_4 1_555 1_555
H15_4 C30_4 1_555 1_555
C31_4 C24_4 1_555 1_555
C34_4 C31_4 1_555 1_555
C24_4 C27_4 1_555 1_555
C26_4 C30_4 1_555 1_555
O11_2 C20_5 1_555 1_555
O13_3 C20_5 1_555 1_555
F11_5 C34_5 1_555 1_555
F12_5 C34_5 1_555 1_555
C18_5 H9_5 1_555 1_555
C19_5 C18_5 1_555 1_555
C20_5 C19_5 1_555 1_555
C24_5 C26_5 1_555 1_555
C26_5 H12_5 1_555 1_555
C27_5 C18_5 1_555 1_555
H13_5 C27_5 1_555 1_555
C30_5 C19_5 1_555 1_555
H15_5 C30_5 1_555 1_555
C31_5 C24_5 1_555 1_555
C34_5 C31_5 1_555 1_555
C24_5 C27_5 1_555 1_555
C26_5 C30_5 1_555 1_555
F8_5 C33_5 1_555 1_555
F10_5 C33_5 1_555 1_555
C25_5 H11_5 1_555 1_555
C28_5 C25_5 1_555 1_555
H16_5 C32_5 1_555 1_555
C25_5 C32_5 1_555 1_555
Mn3 O4_5 1_555 1_555
Mn9 O3_5 1_555 1_555
O9_2 C3_5 1_555 1_555
O12_2 C3_5 1_555 1_555
O3_5 C5_5 1_555 1_555
F1_5 C17_5 1_555 1_555
F2_4 C16_4 1_555 1_555
O4_5 C5_5 1_555 1_555
F3_5 C16_4 1_555 1_555
F4_5 C16_4 1_555 1_555
F5_5 C17_5 1_555 1_555
F6_5 C17_5 1_555 1_555
C1_5 H1_5 1_555 1_555
C2_5 C1_5 1_555 1_555
C3_5 C2_5 1_555 1_555
C4_5 C5_5 1_555 1_555
C6_5 C4_5 1_555 1_555
H2_5 C6_5 1_555 1_555
C7_5 C9_5 1_555 1_555
C8_5 H3_5 1_555 1_555
C9_5 H4_5 1_555 1_555
C10_5 C1_5 1_555 1_555
H5_5 C10_5 1_555 1_555
C11_5 C8_5 1_555 1_555
C12_5 C6_5 1_555 1_555
H6_5 C12_5 1_555 1_555
C13_5 C2_5 1_555 1_555
H7_5 C13_5 1_555 1_555
C14_5 C7_5 1_555 1_555
C15_5 C4_5 1_555 1_555
H8_5 C15_5 1_555 1_555
C16_4 C14_5 1_555 1_555
C17_5 C14_5 1_555 1_555
O7_4 C22_5 1_555 1_555
O8_5 Mn3 1_555 1_555
C21_5 C22_5 1_555 1_555
C22_5 O8_5 1_555 1_555
C23_5 C21_5 1_555 1_555
H10_5 C23_5 1_555 1_555
C29_5 C23_5 1_555 1_555
H14_5 C29_5 1_555 1_555
Mn8 O7_4 1_555 1_555
C7_5 C10_5 1_555 1_555
C8_5 C15_5 1_555 1_555
C9_5 C13_5 1_555 1_555
C11_5 C12_5 1_555 1_555
C11_5 C14_5 1_555 1_555
Mn3_2 O4_6 1_555 1_555
O11_3 C20_6 1_555 1_555
O13 C20_6 1_555 1_555
O14_2 C22_6 1_555 1_555
F7_5 C34_6 1_555 1_555
F8_6 C33_6 1_555 1_555
O8_6 Mn3_2 1_555 1_555
F9_6 C33_6 1_555 1_555
F10_6 C33_6 1_555 1_555
F11_6 C34_6 1_555 1_555
F12_6 C34_6 1_555 1_555
C18_6 H9_6 1_555 1_555
C19_6 C18_6 1_555 1_555
C20_6 C19_6 1_555 1_555
C21_6 C22_6 1_555 1_555
C22_6 O8_6 1_555 1_555
C23_6 C21_6 1_555 1_555
H10_6 C23_6 1_555 1_555
C24_6 C26_6 1_555 1_555
C25_6 H11_6 1_555 1_555
C26_6 H12_6 1_555 1_555
C27_6 C18_6 1_555 1_555
H13_6 C27_6 1_555 1_555
C28_6 C25_6 1_555 1_555
C29_6 C23_6 1_555 1_555
H14_6 C29_6 1_555 1_555
C30_6 C19_6 1_555 1_555
H15_6 C30_6 1_555 1_555
C31_6 C24_6 1_555 1_555
C32_6 C21_6 1_555 1_555
H16_6 C32_6 1_555 1_555
C33_6 C31_6 1_555 1_555
C34_6 C31_6 1_555 1_555
C24_6 C27_6 1_555 1_555
C25_6 C32_6 1_555 1_555
C26_6 C30_6 1_555 1_555
C28_6 C29_6 1_555 1_555
C28_6 C31_6 1_555 1_555
Mn8 O3_6 1_555 1_555
O3_6 C5_6 1_555 1_555
F2_5 C16_5 1_555 1_555
F4_6 C16_5 1_555 1_555
C4_6 C5_6 1_555 1_555
C6_6 C4_6 1_555 1_555
H2_6 C6_6 1_555 1_555
C8_6 H3_6 1_555 1_555
C11_6 C8_6 1_555 1_555
C12_6 C6_6 1_555 1_555
H6_6 C12_6 1_555 1_555
C15_6 C4_6 1_555 1_555
H8_6 C15_6 1_555 1_555
C8_6 C15_6 1_555 1_555
C11_6 C12_6 1_555 1_555
O10 C3_6 1_555 1_555
O12_3 C3_6 1_555 1_555
F1_6 C17_6 1_555 1_555
F5_6 C17_6 1_555 1_555
F6_6 C17_6 1_555 1_555
C1_6 H1_6 1_555 1_555
C2_6 C1_6 1_555 1_555
C3_6 C2_6 1_555 1_555
C7_6 C9_6 1_555 1_555
C9_6 H4_6 1_555 1_555
C10_6 C1_6 1_555 1_555
H5_6 C10_6 1_555 1_555
C13_6 C2_6 1_555 1_555
H7_6 C13_6 1_555 1_555
C14_6 C7_6 1_555 1_555
C17_6 C14_6 1_555 1_555
C7_6 C10_6 1_555 1_555
C9_6 C13_6 1_555 1_555
F2_6 C16_6 1_555 1_555

#END
