
###############################################################################
#
# This file contains modified crystal structure data generated from the
# MOF subset of the Cambridge Structural Database (CSD) v543 
# hosted by the Cambridge Crystallographic Data Centre (CCDC).
#
# This work is licensed under the Creative Commons
# Attribution-NonCommercial-ShareAlike 4.0 International License.
# To view a copy of this license, visit
# http://creativecommons.org/licenses/by-nc-sa/4.0/
# or send a letter to
# Creative Commons, PO Box 1866, Mountain View, CA 94042, USA.
#
# CIF created using the CSD Python API on 29 September 2022
# The structure has been converted into the P1 space group
# The structure has a 3D framework
# The original CSD entry XOCWIX is in the triclinic crystal system
# The framework has been calculated to contain at least 10.0% void space
# The void calculation uses a probe of radius 1.32A, grid spacing 0.4
#
###############################################################################

data_XOCWIX
_chemical_formula_moiety         '(C30 H26 Ho2 O36 U4)n'
_symmetry_cell_setting           triclinic
_symmetry_space_group_name_H-M   'P 1'
_symmetry_Int_Tables_number      1
_space_group_name_Hall           'P 1'
loop_
_symmetry_equiv_pos_site_id
_symmetry_equiv_pos_as_xyz
1 x,y,z
_cell_length_a                   10.5626(6)
_cell_length_b                   11.4559(7)
_cell_length_c                   13.4839(8)
_cell_angle_alpha                69.112(6)
_cell_angle_beta                 78.889(5)
_cell_angle_gamma                63.614(6)
_cell_volume                     1364.42
loop_
_atom_site_label
_atom_site_type_symbol
_atom_site_fract_x
_atom_site_fract_y
_atom_site_fract_z
O11 O 0.3270(8) 0.1952(8) 0.0519(6)
U7 U 0.37684(5) 0.28659(4) 0.16333(4)
U2 U -0.0000 0.5000 0.5000
C2 C 0.1130(12) 0.3165(12) 0.9072(9)
H1 H 0.0987 0.3632 0.9553
C3 C 0.2483(11) 0.2187(11) 0.8927(9)
C4 C 0.2669(12) 0.1440(11) 0.8226(9)
C5 C 0.1470(11) 0.1662(10) 0.7746(8)
H2 H 0.1571 0.1115 0.7341
C6 C 0.0146(11) 0.2674(11) 0.7862(8)
C11 C 0.3634(13) 0.1957(11) 0.9554(9)
C12 C 0.4074(12) 0.0424(12) 0.7978(9)
O3 O 0.0694(9) 0.4992(9) 0.6102(7)
O9 O 0.5023(9) 0.0801(9) 0.7540(7)
O10 O 0.4816(9) 0.1806(8) 0.9151(6)
Ho3 Ho 0.59942(6) 0.23148(6) 0.75050(5)
O41 O 0.1128(8) 0.6383(7) 0.3720(6)
O50 O 0.2630(9) 0.3654(9) 0.4632(8)
O51 O 0.1341(9) 0.2490(8) 0.5224(7)
O8 O 0.4168(9) 0.9221(8) 0.8175(7)
U5 U 0.62316(5) 0.71341(4) 0.83667(4)
C16 C 0.3719(13) 0.0004(12) 0.5499(9)
H14 H 0.2862 0.0002 0.5831
C17 C 0.3820(12) 0.1257(11) 0.4943(9)
C18 C 0.5090(12) 0.1263(11) 0.4439(9)
C19 C 0.5283(13) 0.2558(12) 0.3780(10)
C20 C 0.2557(14) 0.2527(12) 0.4921(10)
O21 O 0.4973(8) 0.3060(8) 0.2816(6)
O22 O 0.5830(9) 0.3027(9) 0.4199(7)
Ho2 Ho 0.40058(6) 0.76852(6) 0.24950(5)
C21 C 0.0023(12) 0.6543(12) 0.1500(10)
C27 C 0.1382(12) 0.5344(11) 0.1459(9)
C30 C 0.1057(13) 0.7079(11) 0.2751(9)
O25 O 0.4687(9) 0.3666(9) 0.0554(6)
O26 O 0.2833(9) 0.2078(9) 0.2690(7)
O27 O 0.1491(9) 0.4613(8) 0.0881(7)
O28 O 0.2378(8) 0.5042(8) 0.1990(7)
O29 O 0.1855(9) 0.7646(8) 0.2291(7)
O35 O 0.2894(10) 0.8462(9) 0.3933(7)
H17 H 0.3377 0.8170 0.4518
H18 H 0.1979 0.9057 0.3906
O36 O 0.3901(9) 0.5763(8) 0.3932(7)
H19 H 0.4684 0.5128 0.4285
H20 H 0.3075 0.5676 0.4122
O37 O 0.6298(10) 0.6220(10) 0.3228(9)
H21 H 0.6412 0.5455 0.3778
H22 H 0.7041 0.6438 0.2955
O38 O 0.4769(12) 0.5892(10) 0.1752(8)
H23 H 0.5620 0.5187 0.1906
H24 H 0.4209 0.5912 0.1315
O39 O 0.2369(9) 0.9864(9) 0.1604(8)
H26 H 0.1514 0.9979 0.1466
O43 O 0.5832(9) 0.0779(8) 0.1825(7)
O45 O 0.4977(9) 0.9199(9) 0.2460(7)
O47 O 0.5184(9) 0.8194(8) 0.0849(6)
U2_2 U 1.0000 0.5000 0.5000
C1 C 0.9977(12) 0.3457(12) 0.8500(10)
C7 C 0.6281(13) 0.9996(12) 0.4501(9)
H3 H 0.7138 0.9998 0.4169
C8 C 0.6180(12) 0.8743(11) 0.5057(9)
C9 C 0.4910(12) 0.8737(11) 0.5561(9)
C10 C 0.8618(12) 0.4656(11) 0.8541(9)
C13 C 0.8943(13) 0.2921(11) 0.7249(9)
C14 C 0.4717(13) 0.7442(12) 0.6220(10)
C15 C 0.7443(14) 0.7473(12) 0.5079(10)
O1 O 0.5313(9) 0.6334(9) 0.9446(6)
O2 O 0.7167(9) 0.7922(9) 0.7310(7)
O4 O 0.8509(9) 0.5387(8) 0.9119(7)
O5 O 0.7622(8) 0.4958(8) 0.8010(7)
O6 O 0.8145(9) 0.2354(8) 0.7709(7)
O7 O 0.8872(8) 0.3617(7) 0.6280(6)
O12 O 0.5027(8) 0.6940(8) 0.7184(6)
O13 O 0.4170(9) 0.6973(9) 0.5801(7)
O14 O 0.7370(9) 0.6346(9) 0.5368(8)
O15 O 0.8659(9) 0.7510(8) 0.4776(7)
O16 O 0.7106(10) 0.1538(9) 0.6067(7)
H4 H 0.6623 0.1830 0.5482
H5 H 0.8021 0.0943 0.6094
O17 O 0.6099(9) 0.4237(8) 0.6068(7)
H6 H 0.5316 0.4872 0.5715
H7 H 0.6925 0.4324 0.5878
O18 O 0.3702(10) 0.3780(10) 0.6772(9)
H8 H 0.3588 0.4545 0.6222
H9 H 0.2959 0.3562 0.7045
O19 O 0.5231(12) 0.4108(10) 0.8248(8)
H10 H 0.4380 0.4813 0.8094
H11 H 0.5791 0.4088 0.8685
O20 O 0.7631(9) 0.0136(9) 0.8396(8)
H13 H 0.8486 0.0021 0.8534
O40 O 0.9306(9) 0.5008(9) 0.3898(7)
O49 O 0.6730(8) 0.8048(8) 0.9481(6)
C22 C 0.8870(12) 0.6835(12) 0.0928(9)
H15 H 0.9013 0.6368 0.0447
C23 C 0.7517(11) 0.7813(11) 0.1073(9)
C24 C 0.7331(12) 0.8560(11) 0.1774(9)
C25 C 0.8530(11) 0.8338(10) 0.2254(8)
H16 H 0.8429 0.8885 0.2659
C26 C 0.9854(11) 0.7326(11) 0.2138(8)
C28 C 0.6366(13) 0.8043(11) 0.0446(9)
C29 C 0.5926(12) 0.9576(12) 0.2022(9)
H25 H 0.2598 0.0587 0.1398
H12 H 0.7402 0.9413 0.8602
loop_
_geom_bond_atom_site_label_1
_geom_bond_atom_site_label_2
_geom_bond_site_symmetry_1
_geom_bond_site_symmetry_2
U7 O11 1_555 1_555
U2 O3 1_555 1_555
C2 H1 1_555 1_555
C3 C2 1_555 1_555
C4 C3 1_555 1_555
C5 C4 1_555 1_555
H2 C5 1_555 1_555
C11 C3 1_555 1_555
C12 C4 1_555 1_555
O9 C12 1_555 1_555
O10 C11 1_555 1_555
Ho3 O9 1_555 1_555
O41 U2 1_555 1_555
O50 U2 1_555 1_555
O51 U2 1_555 1_555
C5 C6 1_555 1_555
O10 Ho3 1_555 1_555
U5 O8 1_555 1_555
H14 C16 1_555 1_555
C17 C16 1_555 1_555
C19 C18 1_555 1_555
C20 C17 1_555 1_555
O21 C19 1_555 1_555
O22 C19 1_555 1_555
O50 C20 1_555 1_555
O51 C20 1_555 1_555
U7 O21 1_555 1_555
Ho2 O29 1_555 1_555
C27 C21 1_555 1_555
O25 U7 1_555 1_555
O26 U7 1_555 1_555
O27 U7 1_555 1_555
O28 U7 1_555 1_555
O29 C30 1_555 1_555
O41 C30 1_555 1_555
O35 Ho2 1_555 1_555
H17 O35 1_555 1_555
H18 O35 1_555 1_555
O36 Ho2 1_555 1_555
H19 O36 1_555 1_555
H20 O36 1_555 1_555
O37 Ho2 1_555 1_555
H21 O37 1_555 1_555
H22 O37 1_555 1_555
O38 Ho2 1_555 1_555
H23 O38 1_555 1_555
H24 O38 1_555 1_555
O39 Ho2 1_555 1_555
H26 O39 1_555 1_555
O43 U7 1_555 1_555
O45 Ho2 1_555 1_555
O47 Ho2 1_555 1_555
C17 C18 1_555 1_555
C27 O27 1_555 1_555
C27 O28 1_555 1_555
U5 O1 1_555 1_555
Ho3 O6 1_555 1_555
C7 H3 1_555 1_555
C8 C7 1_555 1_555
C9 C8 1_555 1_555
C10 C1 1_555 1_555
C14 C9 1_555 1_555
C15 C8 1_555 1_555
O2 U5 1_555 1_555
O4 U5 1_555 1_555
O5 U5 1_555 1_555
O6 C13 1_555 1_555
O7 U2_2 1_555 1_555
O12 U5 1_555 1_555
O13 C14 1_555 1_555
O14 U2_2 1_555 1_555
O15 U2_2 1_555 1_555
O16 Ho3 1_555 1_555
H4 O16 1_555 1_555
H5 O16 1_555 1_555
O17 Ho3 1_555 1_555
H6 O17 1_555 1_555
H7 O17 1_555 1_555
O18 Ho3 1_555 1_555
H8 O18 1_555 1_555
H9 O18 1_555 1_555
O19 Ho3 1_555 1_555
H10 O19 1_555 1_555
H11 O19 1_555 1_555
O20 Ho3 1_555 1_555
H13 O20 1_555 1_555
O40 U2_2 1_555 1_555
O49 U5 1_555 1_555
C10 O4 1_555 1_555
C10 O5 1_555 1_555
C13 O7 1_555 1_555
C14 O12 1_555 1_555
C15 O14 1_555 1_555
C15 O15 1_555 1_555
C22 H15 1_555 1_555
C23 C22 1_555 1_555
C24 C23 1_555 1_555
C25 C24 1_555 1_555
H16 C25 1_555 1_555
C28 C23 1_555 1_555
C29 C24 1_555 1_555
O45 C29 1_555 1_555
O47 C28 1_555 1_555
C25 C26 1_555 1_555

#END
