
###############################################################################
#
# This file contains modified crystal structure data generated from the
# MOF subset of the Cambridge Structural Database (CSD) v543 
# hosted by the Cambridge Crystallographic Data Centre (CCDC).
#
# This work is licensed under the Creative Commons
# Attribution-NonCommercial-ShareAlike 4.0 International License.
# To view a copy of this license, visit
# http://creativecommons.org/licenses/by-nc-sa/4.0/
# or send a letter to
# Creative Commons, PO Box 1866, Mountain View, CA 94042, USA.
#
# CIF created using the CSD Python API on 29 September 2022
# The structure has been converted into the P1 space group
# The structure has a 3D framework
# The original CSD entry XOCWUJ is in the triclinic crystal system
# The framework has been calculated to contain at least 10.0% void space
# The void calculation uses a probe of radius 1.32A, grid spacing 0.4
#
###############################################################################

data_XOCWUJ
_chemical_formula_moiety         '(C30 H26 O36 Tm2 U4)n'
_symmetry_cell_setting           triclinic
_symmetry_space_group_name_H-M   'P 1'
_symmetry_Int_Tables_number      1
_space_group_name_Hall           'P 1'
loop_
_symmetry_equiv_pos_site_id
_symmetry_equiv_pos_as_xyz
1 x,y,z
_cell_length_a                   10.5105(5)
_cell_length_b                   11.4390(6)
_cell_length_c                   13.4443(7)
_cell_angle_alpha                68.998(5)
_cell_angle_beta                 78.805(4)
_cell_angle_gamma                63.732(5)
_cell_volume                     1351.97
loop_
_atom_site_label
_atom_site_type_symbol
_atom_site_fract_x
_atom_site_fract_y
_atom_site_fract_z
O11 O 0.3290(8) 0.1949(8) 0.0517(6)
U7 U 0.37780(4) 0.28665(4) 0.16321(3)
U2 U -0.0000 0.5000 0.5000
C2 C 0.1120(11) 0.3141(12) 0.9080(9)
H1 H 0.0986 0.3616 0.9553
C3 C 0.2485(11) 0.2161(11) 0.8941(9)
C4 C 0.2650(11) 0.1455(11) 0.8231(9)
C5 C 0.1462(11) 0.1662(12) 0.7746(9)
H2 H 0.1575 0.1114 0.7337
C6 C 0.0128(10) 0.2665(11) 0.7862(9)
C11 C 0.3628(11) 0.1950(11) 0.9555(9)
C12 C 0.4070(12) 0.0430(12) 0.7954(9)
O3 O 0.0704(9) 0.4992(9) 0.6107(7)
O9 O 0.5030(8) 0.0801(9) 0.7542(7)
O10 O 0.4846(8) 0.1800(9) 0.9152(6)
Tm3 Tm 0.59821(5) 0.23153(5) 0.75042(4)
O41 O 0.1139(7) 0.6376(8) 0.3732(6)
O50 O 0.2650(9) 0.3652(9) 0.4651(8)
O51 O 0.1343(8) 0.2495(8) 0.5203(7)
O8 O 0.4175(8) 0.9210(8) 0.8185(7)
U5 U 0.62220(4) 0.71335(4) 0.83679(3)
C16 C 0.3744(11) 0.0010(12) 0.5479(9)
H14 H 0.2878 0.0013 0.5805
C17 C 0.3834(11) 0.1226(12) 0.4955(9)
C18 C 0.5101(12) 0.1258(11) 0.4446(8)
C19 C 0.5319(11) 0.2539(12) 0.3799(9)
C20 C 0.2547(12) 0.2530(12) 0.4923(10)
O21 O 0.4982(8) 0.3060(9) 0.2828(7)
O22 O 0.5878(9) 0.3006(9) 0.4204(7)
Tm2 Tm 0.40179(5) 0.76847(5) 0.24958(4)
C21 C 0.0052(12) 0.6565(12) 0.1464(10)
C27 C 0.1360(11) 0.5374(12) 0.1428(10)
C30 C 0.1055(10) 0.7082(11) 0.2741(9)
O25 O 0.4701(9) 0.3667(9) 0.0553(7)
O26 O 0.2827(9) 0.2090(9) 0.2688(7)
O27 O 0.1484(9) 0.4639(9) 0.0852(8)
O28 O 0.2395(8) 0.5038(8) 0.1988(7)
O29 O 0.1880(8) 0.7649(8) 0.2288(7)
O35 O 0.2890(9) 0.8473(9) 0.3902(7)
H17 H 0.3367 0.8196 0.4490
H18 H 0.1969 0.9058 0.3870
O36 O 0.3927(9) 0.5793(9) 0.3921(7)
H19 H 0.4721 0.5163 0.4267
H20 H 0.3102 0.5698 0.4123
O37 O 0.6305(9) 0.6263(11) 0.3201(10)
H21 H 0.6841 0.5485 0.3035
H22 H 0.6635 0.6501 0.3634
O38 O 0.4788(12) 0.5909(11) 0.1755(8)
H23 H 0.5649 0.5214 0.1901
H24 H 0.4223 0.5918 0.1325
O39 O 0.2404(8) 0.9846(9) 0.1595(7)
H26 H 0.1536 0.9966 0.1472
O43 O 0.5825(8) 0.0790(8) 0.1815(7)
O45 O 0.4970(8) 0.9199(9) 0.2458(7)
O47 O 0.5154(8) 0.8200(9) 0.0848(6)
U2_2 U 1.0000 0.5000 0.5000
C1 C 0.9948(12) 0.3435(12) 0.8536(10)
C7 C 0.6256(11) 0.9990(12) 0.4521(9)
H3 H 0.7122 0.9987 0.4195
C8 C 0.6166(11) 0.8774(12) 0.5045(9)
C9 C 0.4899(12) 0.8742(11) 0.5554(8)
C10 C 0.8640(11) 0.4626(12) 0.8572(10)
C13 C 0.8945(10) 0.2918(11) 0.7259(9)
C14 C 0.4681(11) 0.7461(12) 0.6201(9)
C15 C 0.7453(12) 0.7470(12) 0.5077(10)
O1 O 0.5299(9) 0.6333(9) 0.9447(7)
O2 O 0.7173(9) 0.7910(9) 0.7312(7)
O4 O 0.8516(9) 0.5361(9) 0.9148(8)
O5 O 0.7605(8) 0.4962(8) 0.8012(7)
O6 O 0.8120(8) 0.2351(8) 0.7712(7)
O7 O 0.8861(7) 0.3624(8) 0.6268(6)
O12 O 0.5018(8) 0.6940(9) 0.7172(7)
O13 O 0.4122(9) 0.6994(9) 0.5796(7)
O14 O 0.7350(9) 0.6348(9) 0.5349(8)
O15 O 0.8657(8) 0.7505(8) 0.4797(7)
O16 O 0.7110(9) 0.1527(9) 0.6098(7)
H4 H 0.6633 0.1804 0.5510
H5 H 0.8031 0.0942 0.6130
O17 O 0.6073(9) 0.4207(9) 0.6079(7)
H6 H 0.5279 0.4837 0.5733
H7 H 0.6898 0.4302 0.5877
O18 O 0.3695(9) 0.3737(11) 0.6799(10)
H8 H 0.3159 0.4515 0.6965
H9 H 0.3365 0.3499 0.6366
O19 O 0.5212(12) 0.4091(11) 0.8245(8)
H10 H 0.4351 0.4786 0.8099
H11 H 0.5777 0.4082 0.8675
O20 O 0.7596(8) 0.0154(9) 0.8405(7)
H13 H 0.8464 0.0034 0.8528
O40 O 0.9296(9) 0.5008(9) 0.3893(7)
O49 O 0.6710(8) 0.8051(8) 0.9483(6)
C22 C 0.8880(11) 0.6859(12) 0.0920(9)
H15 H 0.9014 0.6384 0.0447
C23 C 0.7515(11) 0.7839(11) 0.1059(9)
C24 C 0.7350(11) 0.8545(11) 0.1769(9)
C25 C 0.8538(11) 0.8338(12) 0.2254(9)
H16 H 0.8425 0.8886 0.2663
C26 C 0.9872(10) 0.7335(11) 0.2138(9)
C28 C 0.6372(11) 0.8050(11) 0.0445(9)
C29 C 0.5930(12) 0.9570(12) 0.2046(9)
H25 H 0.2645 0.0566 0.1373
H12 H 0.7355 0.9434 0.8627
loop_
_geom_bond_atom_site_label_1
_geom_bond_atom_site_label_2
_geom_bond_site_symmetry_1
_geom_bond_site_symmetry_2
U7 O11 1_555 1_555
U2 O3 1_555 1_555
C2 H1 1_555 1_555
C3 C2 1_555 1_555
C4 C3 1_555 1_555
C5 C4 1_555 1_555
H2 C5 1_555 1_555
C11 C3 1_555 1_555
C12 C4 1_555 1_555
O9 C12 1_555 1_555
O10 C11 1_555 1_555
Tm3 O9 1_555 1_555
O41 U2 1_555 1_555
O50 U2 1_555 1_555
O51 U2 1_555 1_555
C5 C6 1_555 1_555
O10 Tm3 1_555 1_555
U5 O8 1_555 1_555
H14 C16 1_555 1_555
C17 C16 1_555 1_555
C19 C18 1_555 1_555
C20 C17 1_555 1_555
O21 C19 1_555 1_555
O22 C19 1_555 1_555
O50 C20 1_555 1_555
O51 C20 1_555 1_555
U7 O21 1_555 1_555
Tm2 O29 1_555 1_555
C27 C21 1_555 1_555
O25 U7 1_555 1_555
O26 U7 1_555 1_555
O27 U7 1_555 1_555
O28 U7 1_555 1_555
O29 C30 1_555 1_555
O41 C30 1_555 1_555
O35 Tm2 1_555 1_555
H17 O35 1_555 1_555
H18 O35 1_555 1_555
O36 Tm2 1_555 1_555
H19 O36 1_555 1_555
H20 O36 1_555 1_555
O37 Tm2 1_555 1_555
H21 O37 1_555 1_555
H22 O37 1_555 1_555
O38 Tm2 1_555 1_555
H23 O38 1_555 1_555
H24 O38 1_555 1_555
O39 Tm2 1_555 1_555
H26 O39 1_555 1_555
O43 U7 1_555 1_555
O45 Tm2 1_555 1_555
O47 Tm2 1_555 1_555
C17 C18 1_555 1_555
C27 O27 1_555 1_555
C27 O28 1_555 1_555
U5 O1 1_555 1_555
Tm3 O6 1_555 1_555
C7 H3 1_555 1_555
C8 C7 1_555 1_555
C9 C8 1_555 1_555
C10 C1 1_555 1_555
C14 C9 1_555 1_555
C15 C8 1_555 1_555
O2 U5 1_555 1_555
O4 U5 1_555 1_555
O5 U5 1_555 1_555
O6 C13 1_555 1_555
O7 U2_2 1_555 1_555
O12 U5 1_555 1_555
O13 C14 1_555 1_555
O14 U2_2 1_555 1_555
O15 U2_2 1_555 1_555
O16 Tm3 1_555 1_555
H4 O16 1_555 1_555
H5 O16 1_555 1_555
O17 Tm3 1_555 1_555
H6 O17 1_555 1_555
H7 O17 1_555 1_555
O18 Tm3 1_555 1_555
H8 O18 1_555 1_555
H9 O18 1_555 1_555
O19 Tm3 1_555 1_555
H10 O19 1_555 1_555
H11 O19 1_555 1_555
O20 Tm3 1_555 1_555
H13 O20 1_555 1_555
O40 U2_2 1_555 1_555
O49 U5 1_555 1_555
C10 O4 1_555 1_555
C10 O5 1_555 1_555
C13 O7 1_555 1_555
C14 O12 1_555 1_555
C15 O14 1_555 1_555
C15 O15 1_555 1_555
C22 H15 1_555 1_555
C23 C22 1_555 1_555
C24 C23 1_555 1_555
C25 C24 1_555 1_555
H16 C25 1_555 1_555
C28 C23 1_555 1_555
C29 C24 1_555 1_555
O45 C29 1_555 1_555
O47 C28 1_555 1_555
C25 C26 1_555 1_555

#END
