
###############################################################################
#
# This file contains modified crystal structure data generated from the
# MOF subset of the Cambridge Structural Database (CSD) v543 
# hosted by the Cambridge Crystallographic Data Centre (CCDC).
#
# This work is licensed under the Creative Commons
# Attribution-NonCommercial-ShareAlike 4.0 International License.
# To view a copy of this license, visit
# http://creativecommons.org/licenses/by-nc-sa/4.0/
# or send a letter to
# Creative Commons, PO Box 1866, Mountain View, CA 94042, USA.
#
# CIF created using the CSD Python API on 29 September 2022
# The structure has been converted into the P1 space group
# The structure has a 3D framework
# The original CSD entry XOCWET is in the triclinic crystal system
# The framework has been calculated to contain at least 10.0% void space
# The void calculation uses a probe of radius 1.32A, grid spacing 0.4
#
###############################################################################

data_XOCWET
_chemical_formula_moiety         '(C30 H30 La2 O38 U4)n'
_symmetry_cell_setting           triclinic
_symmetry_space_group_name_H-M   'P 1'
_symmetry_Int_Tables_number      1
_space_group_name_Hall           'P 1'
loop_
_symmetry_equiv_pos_site_id
_symmetry_equiv_pos_as_xyz
1 x,y,z
_cell_length_a                   11.001(2)
_cell_length_b                   11.563(2)
_cell_length_c                   13.432(3)
_cell_angle_alpha                69.358(3)
_cell_angle_beta                 79.869(3)
_cell_angle_gamma                61.864(3)
_cell_volume                     1409.88
loop_
_atom_site_label
_atom_site_type_symbol
_atom_site_fract_x
_atom_site_fract_y
_atom_site_fract_z
O11 O 0.3095(7) 0.2172(7) 0.0533(5)
U7 U 0.36670(4) 0.29875(4) 0.16623(3)
U2 U -0.0000 0.5000 0.5000
O3 O 0.0596(7) 0.5035(7) 0.6124(5)
O9 O 0.5169(7) 0.0584(7) 0.7765(6)
O10 O 0.4745(7) 0.1748(8) 0.9329(6)
C1 C 0.0106(10) 0.3366(10) 0.8454(7)
C2 C 0.1181(10) 0.3103(10) 0.9049(8)
H13 H 0.0988 0.3598 0.9519
C3 C 0.2512(10) 0.2140(10) 0.8967(7)
C4 C 0.2803(9) 0.1326(10) 0.8303(8)
C5 C 0.1694(9) 0.1533(9) 0.7744(8)
H14 H 0.1859 0.0970 0.7334
C6 C 0.0361(9) 0.2565(9) 0.7800(7)
C11 C 0.3554(10) 0.1997(9) 0.9622(8)
C12 C 0.4195(10) 0.0281(10) 0.8104(7)
La3 La 0.62438(6) 0.21280(6) 0.77521(5)
O43 O 0.0962(6) 0.6450(7) 0.3772(5)
O52 O 0.2618(8) 0.3691(7) 0.4686(6)
O53 O 0.1441(7) 0.2503(7) 0.5236(6)
O8 O 0.4297(7) 0.9085(7) 0.8283(6)
U5 U 0.63330(4) 0.70125(4) 0.83377(3)
O22 O 0.4918(7) 0.3084(7) 0.2864(5)
O23 O 0.5747(8) 0.2984(8) 0.4297(6)
C16 C 0.3784(10) 0.0013(10) 0.5490(7)
H16 H 0.2962 0.0019 0.5814
C17 C 0.3833(10) 0.1250(10) 0.4976(8)
C18 C 0.5083(9) 0.1240(9) 0.4457(7)
C19 C 0.5248(10) 0.2537(10) 0.3852(8)
C20 C 0.2575(10) 0.2559(10) 0.4945(8)
La2 La 0.37562(6) 0.78720(6) 0.22479(5)
O26 O 0.4485(7) 0.3824(7) 0.0600(5)
O27 O 0.2838(7) 0.2183(8) 0.2704(5)
O28 O 0.1408(7) 0.4729(8) 0.0943(6)
O29 O 0.2239(7) 0.5166(8) 0.2049(6)
O30 O 0.1378(7) 0.7967(7) 0.2391(5)
O36 O 0.2865(9) 0.8666(8) 0.3864(6)
H17 H 0.1984 0.9293 0.3891
H18 H 0.3428 0.8327 0.4413
O37 O 0.3729(8) 0.5866(8) 0.3832(6)
H19 H 0.3394 0.5323 0.3764
H20 H 0.4052 0.5702 0.4464
O38 O 0.6061(9) 0.6401(10) 0.3253(8)
H21 H 0.6813 0.5867 0.2949
H22 H 0.6113 0.6424 0.3906
O39 O 0.5020(9) 0.5656(8) 0.1731(6)
H23 H 0.4821 0.5636 0.1118
H24 H 0.5664 0.4895 0.2164
O40 O 0.2833(9) 0.8328(11) 0.0418(7)
H26 H 0.1944 0.8913 0.0253
C27 C 0.1237(10) 0.5473(11) 0.1503(8)
C30 C 0.0768(9) 0.7240(10) 0.2828(8)
O45 O 0.5703(7) 0.0915(7) 0.1717(6)
O47 O 0.4831(7) 0.9416(7) 0.2235(6)
O49 O 0.5255(7) 0.8252(8) 0.0671(6)
U2_2 U 1.0000 0.5000 0.5000
O1 O 0.5515(7) 0.6176(7) 0.9400(5)
O2 O 0.7162(7) 0.7817(8) 0.7296(5)
O4 O 0.8592(7) 0.5271(8) 0.9057(6)
O5 O 0.7761(7) 0.4834(8) 0.7951(6)
O6 O 0.8622(7) 0.2033(7) 0.7609(5)
O7 O 0.9038(6) 0.3550(7) 0.6228(5)
O12 O 0.5082(7) 0.6916(7) 0.7136(5)
O13 O 0.4253(8) 0.7016(8) 0.5703(6)
O14 O 0.7382(8) 0.6309(7) 0.5314(6)
O15 O 0.8559(7) 0.7497(7) 0.4764(6)
O16 O 0.7135(9) 0.1334(8) 0.6136(6)
H1 H 0.8016 0.0707 0.6109
H2 H 0.6572 0.1673 0.5587
O17 O 0.6271(8) 0.4134(8) 0.6168(6)
H3 H 0.6606 0.4677 0.6236
H4 H 0.5948 0.4298 0.5536
O18 O 0.3939(9) 0.3599(10) 0.6747(8)
H5 H 0.3187 0.4133 0.7051
H6 H 0.3887 0.3576 0.6094
O19 O 0.4980(9) 0.4344(8) 0.8269(6)
H7 H 0.5179 0.4364 0.8882
H8 H 0.4336 0.5105 0.7836
O20 O 0.7167(9) 0.1672(11) 0.9582(7)
H10 H 0.8056 0.1087 0.9747
C7 C 0.6216(10) 0.9987(10) 0.4510(7)
H15 H 0.7038 0.9981 0.4186
C8 C 0.6167(10) 0.8750(10) 0.5024(8)
C9 C 0.4917(9) 0.8760(9) 0.5543(7)
C10 C 0.8763(10) 0.4527(11) 0.8497(8)
C13 C 0.9232(9) 0.2760(10) 0.7172(8)
C14 C 0.4752(10) 0.7463(10) 0.6148(8)
C15 C 0.7425(10) 0.7441(10) 0.5055(8)
O42 O 0.9404(7) 0.4965(7) 0.3876(5)
O51 O 0.6905(7) 0.7828(7) 0.9467(5)
C21 C 0.9894(10) 0.6634(10) 0.1546(7)
C22 C 0.8819(10) 0.6897(10) 0.0951(8)
H29 H 0.9012 0.6402 0.0481
C23 C 0.7488(10) 0.7860(10) 0.1033(7)
C24 C 0.7197(9) 0.8674(10) 0.1697(8)
C25 C 0.8306(9) 0.8467(9) 0.2256(8)
H30 H 0.8141 0.9030 0.2666
C26 C 0.9639(9) 0.7435(9) 0.2200(7)
C28 C 0.6446(10) 0.8003(9) 0.0378(8)
C29 C 0.5805(10) 0.9719(10) 0.1896(7)
O41 O 0.1946(8) 0.0364(8) 0.1663(7)
H27 H 0.1505 0.0713 0.1044
H28 H 0.1743 0.0898 0.2077
H25 H 0.3399 0.7905 0.9952
H9 H 0.6601 0.2095 0.0048
O21 O 0.8054(8) 0.9636(8) 0.8337(7)
H11 H 0.8495 0.9287 0.8956
H12 H 0.8257 0.9102 0.7923
loop_
_geom_bond_atom_site_label_1
_geom_bond_atom_site_label_2
_geom_bond_site_symmetry_1
_geom_bond_site_symmetry_2
U7 O11 1_555 1_555
U2 O3 1_555 1_555
O9 C12 1_555 1_555
O10 C11 1_555 1_555
C1 C2 1_555 1_555
C2 H13 1_555 1_555
C3 C2 1_555 1_555
C4 C3 1_555 1_555
C5 C4 1_555 1_555
H14 C5 1_555 1_555
C6 C1 1_555 1_555
C11 C3 1_555 1_555
C12 C4 1_555 1_555
La3 O9 1_555 1_555
O43 U2 1_555 1_555
O52 U2 1_555 1_555
O53 U2 1_555 1_555
O10 La3 1_555 1_555
C5 C6 1_555 1_555
U5 O8 1_555 1_555
O22 C19 1_555 1_555
O23 C19 1_555 1_555
O52 C20 1_555 1_555
O53 C20 1_555 1_555
H16 C16 1_555 1_555
C17 C16 1_555 1_555
C19 C18 1_555 1_555
C20 C17 1_555 1_555
U7 O22 1_555 1_555
La2 O30 1_555 1_555
O26 U7 1_555 1_555
O27 U7 1_555 1_555
O28 U7 1_555 1_555
O29 U7 1_555 1_555
O30 C30 1_555 1_555
O43 C30 1_555 1_555
O36 La2 1_555 1_555
H17 O36 1_555 1_555
H18 O36 1_555 1_555
O37 La2 1_555 1_555
H19 O37 1_555 1_555
H20 O37 1_555 1_555
O38 La2 1_555 1_555
H21 O38 1_555 1_555
H22 O38 1_555 1_555
O39 La2 1_555 1_555
H23 O39 1_555 1_555
H24 O39 1_555 1_555
O40 La2 1_555 1_555
H26 O40 1_555 1_555
C27 O28 1_555 1_555
O45 U7 1_555 1_555
O47 La2 1_555 1_555
O49 La2 1_555 1_555
C17 C18 1_555 1_555
O29 C27 1_555 1_555
U5 O1 1_555 1_555
La3 O6 1_555 1_555
O2 U5 1_555 1_555
O4 U5 1_555 1_555
O5 U5 1_555 1_555
O6 C13 1_555 1_555
O7 U2_2 1_555 1_555
O12 U5 1_555 1_555
O13 C14 1_555 1_555
O14 U2_2 1_555 1_555
O15 U2_2 1_555 1_555
O16 La3 1_555 1_555
H1 O16 1_555 1_555
H2 O16 1_555 1_555
O17 La3 1_555 1_555
H3 O17 1_555 1_555
H4 O17 1_555 1_555
O18 La3 1_555 1_555
H5 O18 1_555 1_555
H6 O18 1_555 1_555
O19 La3 1_555 1_555
H7 O19 1_555 1_555
H8 O19 1_555 1_555
O20 La3 1_555 1_555
H10 O20 1_555 1_555
C7 H15 1_555 1_555
C8 C7 1_555 1_555
C9 C8 1_555 1_555
C10 O4 1_555 1_555
C13 O7 1_555 1_555
C14 O12 1_555 1_555
C15 O14 1_555 1_555
O42 U2_2 1_555 1_555
O51 U5 1_555 1_555
O5 C10 1_555 1_555
O15 C15 1_555 1_555
C8 C15 1_555 1_555
C9 C14 1_555 1_555
O47 C29 1_555 1_555
O49 C28 1_555 1_555
C21 C22 1_555 1_555
C22 H29 1_555 1_555
C23 C22 1_555 1_555
C24 C23 1_555 1_555
C25 C24 1_555 1_555
H30 C25 1_555 1_555
C26 C21 1_555 1_555
C28 C23 1_555 1_555
C29 C24 1_555 1_555
C25 C26 1_555 1_555
H27 O41 1_555 1_555
H28 O41 1_555 1_555
H11 O21 1_555 1_555
H12 O21 1_555 1_555

#END
