
###############################################################################
#
# This file contains modified crystal structure data generated from the
# MOF subset of the Cambridge Structural Database (CSD) v543 
# hosted by the Cambridge Crystallographic Data Centre (CCDC).
#
# This work is licensed under the Creative Commons
# Attribution-NonCommercial-ShareAlike 4.0 International License.
# To view a copy of this license, visit
# http://creativecommons.org/licenses/by-nc-sa/4.0/
# or send a letter to
# Creative Commons, PO Box 1866, Mountain View, CA 94042, USA.
#
# CIF created using the CSD Python API on 29 September 2022
# The structure has been converted into the P1 space group
# The structure has a 3D framework
# The original CSD entry XODBOI is in the monoclinic crystal system
# The framework has been calculated to contain at least 10.0% void space
# The void calculation uses a probe of radius 1.32A, grid spacing 0.4
#
###############################################################################

data_XODBOI
_chemical_formula_moiety         '(C128 H176 Cu6 I8 S16)n'
_symmetry_cell_setting           triclinic
_symmetry_space_group_name_H-M   'P 1'
_symmetry_Int_Tables_number      1
_space_group_name_Hall           'P 1'
loop_
_symmetry_equiv_pos_site_id
_symmetry_equiv_pos_as_xyz
1 x,y,z
_cell_length_a                   14.1935(19)
_cell_length_b                   13.7879(19)
_cell_length_c                   22.222(3)
_cell_angle_alpha                90
_cell_angle_beta                 107.888(3)
_cell_angle_gamma                90
_cell_volume                     4138.59
loop_
_atom_site_label
_atom_site_type_symbol
_atom_site_fract_x
_atom_site_fract_y
_atom_site_fract_z
Cu1 Cu 0.1203(1) 0.0896(1) 0.3293(1)
S5 S 0.2763(1) 0.1500(1) 0.3326(1)
S7 S 0.1469(1) 0.0291(1) 0.4333(1)
I2 I 0.9876(1) 0.2296(1) 0.3089(1)
Cu2 Cu 0.9344(1) 0.0834(1) 0.2293(1)
S1 S 0.7757(1) 0.0307(1) 0.2172(1)
S3 S 0.4357(1) 0.3443(1) 0.6339(1)
C1 C 0.7262(5) 0.1039(6) 0.2681(4)
C2 C 0.6213(5) 0.0810(6) 0.2683(4)
C3 C 0.5430(6) 0.1056(8) 0.2069(4)
C4 C 0.4392(6) 0.0797(8) 0.2107(4)
C5 C 0.4161(5) 0.1312(6) 0.2658(3)
C6 C 0.4968(5) 0.1064(7) 0.3263(4)
C7 C 0.6006(5) 0.1315(7) 0.3231(4)
C8 C 0.3129(5) 0.1034(6) 0.2668(3)
C9 C 0.2703(5) 0.2815(5) 0.3208(3)
C10 C 0.3042(5) 0.3294(5) 0.3845(3)
C11 C 0.2389(6) 0.3523(6) 0.4169(4)
C12 C 0.2722(6) 0.3892(6) 0.4778(4)
C13 C 0.3711(6) 0.4054(5) 0.5075(3)
C14 C 0.4377(6) 0.3846(5) 0.4746(3)
C15 C 0.4038(6) 0.3475(5) 0.4145(3)
C16 C 0.4063(6) 0.4407(5) 0.5751(3)
C17 C 0.5663(5) 0.3231(5) 0.6458(3)
C18 C 0.5920(5) 0.2507(5) 0.6021(4)
C19 C 0.7039(6) 0.2441(6) 0.6155(5)
C20 C 0.7354(6) 0.1712(5) 0.5741(4)
C21 C 0.6922(5) 0.0715(5) 0.5778(3)
C22 C 0.5807(6) 0.0782(5) 0.5640(4)
C23 C 0.5514(6) 0.1501(5) 0.6058(4)
H1 H 0.7700 0.0975 0.3111
H2 H 0.7281 0.1712 0.2559
H3 H 0.6178 0.0110 0.2750
H4 H 0.5556 0.0699 0.1725
H5 H 0.5458 0.1743 0.1982
H6 H 0.3899 0.0978 0.1714
H7 H 0.4351 0.0101 0.2158
H8 H 0.4174 0.2013 0.2590
H9 H 0.4940 0.0377 0.3348
H10 H 0.4851 0.1416 0.3611
H11 H 0.6057 0.2011 0.3186
H12 H 0.6497 0.1122 0.3623
H13 H 0.3086 0.0332 0.2671
H14 H 0.2654 0.1260 0.2279
H15 H 0.3126 0.3008 0.2959
H16 H 0.2030 0.3010 0.2984
H17 H 0.1714 0.3429 0.3978
H18 H 0.2267 0.4034 0.4990
H19 H 0.5049 0.3958 0.4933
H20 H 0.4493 0.3340 0.3931
H21 H 0.3553 0.4815 0.5826
H22 H 0.4648 0.4805 0.5809
H23 H 0.5967 0.3846 0.6415
H24 H 0.5962 0.3012 0.6890
H25 H 0.5633 0.2741 0.5587
H26 H 0.7288 0.3076 0.6093
H27 H 0.7341 0.2264 0.6595
H28 H 0.8071 0.1669 0.5875
H29 H 0.7137 0.1935 0.5306
H30 H 0.7196 0.0496 0.6217
H31 H 0.5507 0.0969 0.5202
H32 H 0.5551 0.0148 0.5698
H33 H 0.5752 0.1275 0.6492
H34 H 0.4798 0.1534 0.5937
H35 H 0.7063 0.0216 0.4939
Cu5 Cu 0.4344(1) 0.4166(1) 0.7293(1)
S6 S 0.9357(1) 0.1557(1) 0.1339(1)
S4 S 0.6469(1) 0.4709(1) 0.9333(1)
C17_2 C 0.9337(5) 0.8231(5) 0.8542(3)
C18_2 C 0.9080(5) 0.7507(5) 0.8979(4)
C19_2 C 0.7961(6) 0.7441(6) 0.8845(5)
C20_2 C 0.7646(6) 0.6712(5) 0.9259(4)
C21_2 C 0.8078(5) 0.5715(5) 0.9222(3)
C22_2 C 0.9193(6) 0.5782(5) 0.9360(4)
C23_2 C 0.9486(6) 0.6501(5) 0.8942(4)
C24 C 0.7779(5) 0.4971(5) 0.9632(3)
C25 C 0.6389(5) 0.3642(5) 0.9784(3)
H23_2 H 0.9033 0.8846 0.8585
H24_2 H 0.9038 0.8012 0.8110
H25_2 H 0.9367 0.7741 0.9413
H26_2 H 0.7712 0.8076 0.8907
H27_2 H 0.7659 0.7264 0.8405
H28_2 H 0.6929 0.6669 0.9125
H29_2 H 0.7863 0.6935 0.9694
H30_2 H 0.7804 0.5496 0.8783
H31_2 H 0.9493 0.5969 0.9798
H32_2 H 0.9449 0.5148 0.9302
H33_2 H 0.9248 0.6275 0.8508
H36 H 0.8152 0.4379 0.9643
H37 H 0.5727 0.3377 0.9615
H38 H 0.6846 0.3162 0.9717
Cu4 Cu 0.6203(1) 0.4104(1) 0.8293(1)
C24_2 C 0.2779(5) 0.0029(5) 0.4632(3)
C25_2 C 0.1389(5) 0.1358(5) 0.4784(3)
C26 C 0.1604(5) 0.1221(5) 0.5484(3)
C27 C 0.0954(6) 0.0771(6) 0.5736(3)
C28 C 0.1129(6) 0.0660(6) 0.6372(3)
C29 C 0.2005(5) 0.1002(5) 0.6799(3)
C30 C 0.2672(6) 0.1446(5) 0.6544(3)
C31 C 0.2486(5) 0.1553(5) 0.5904(4)
C32 C 0.2237(6) 0.0906(5) 0.7509(3)
H36_2 H 0.3152 0.0621 0.4643
H37_2 H 0.0727 0.1623 0.4615
H38_2 H 0.1846 0.1838 0.4717
H39 H 0.0366 0.0530 0.5462
H40 H 0.0661 0.0354 0.6521
H41 H 0.3266 0.1680 0.6816
H42 H 0.2954 0.1850 0.5751
H43 H 0.2883 0.1192 0.7706
H44 H 0.1758 0.1290 0.7636
I1 I 0.5647(1) 0.5581(1) 0.7514(1)
I2_2 I 0.4876(1) 0.2704(1) 0.8089(1)
S1_2 S 0.2757(1) 0.4693(1) 0.7172(1)
C1_2 C 0.2262(5) 0.3961(6) 0.7681(4)
C2_2 C 0.1213(5) 0.4190(6) 0.7683(4)
C3_2 C 0.0430(6) 0.3944(8) 0.7069(4)
C7_2 C 0.1006(5) 0.3685(7) 0.8231(4)
C26_2 C 0.3396(5) 0.6221(5) 0.9516(3)
C27_2 C 0.4046(6) 0.5771(6) 0.9264(3)
C28_2 C 0.3871(6) 0.5660(6) 0.8628(3)
C29_2 C 0.2995(5) 0.6002(5) 0.8201(3)
C30_2 C 0.2328(6) 0.6446(5) 0.8456(3)
C31_2 C 0.2514(5) 0.6553(5) 0.9096(4)
C32_2 C 0.2763(6) 0.5906(5) 0.7491(3)
H1_2 H 0.2700 0.4025 0.8111
H2_2 H 0.2281 0.3288 0.7559
H3_2 H 0.1178 0.4890 0.7750
H4_2 H 0.0556 0.4301 0.6725
H5_2 H 0.0458 0.3257 0.6982
H11_2 H 0.1057 0.2989 0.8186
H12_2 H 0.1497 0.3878 0.8623
H19_2 H 0.0049 0.1042 0.9933
H35_2 H 0.2063 0.4784 0.9939
H39_2 H 0.4634 0.5530 0.9538
H40_2 H 0.4339 0.5354 0.8479
H41_2 H 0.1734 0.6680 0.8184
H42_2 H 0.2046 0.6850 0.9249
H43_2 H 0.2117 0.6192 0.7294
H44_2 H 0.3242 0.6290 0.7364
S5_2 S 0.7763(1) 0.3500(1) 0.8326(1)
C13_2 C 0.8711(6) 0.0946(5) 0.0075(3)
C16_2 C 0.9063(6) 0.0593(5) 0.0751(3)
H21_2 H 0.8553 0.0185 0.0826
H22_2 H 0.9648 0.0195 0.0809
H34_2 H 0.9798 0.3466 0.0937
C4_2 C 0.9392(6) 0.4203(8) 0.7107(4)
C5_2 C 0.9161(5) 0.3688(6) 0.7658(3)
C6_2 C 0.9968(5) 0.3936(7) 0.8263(4)
C8_2 C 0.8129(5) 0.3966(6) 0.7668(3)
C9_2 C 0.7703(5) 0.2185(5) 0.8208(3)
C10_2 C 0.8042(5) 0.1706(5) 0.8845(3)
C11_2 C 0.7389(6) 0.1477(6) 0.9169(4)
C12_2 C 0.7722(6) 0.1108(6) 0.9778(4)
C14_2 C 0.9377(6) 0.1154(5) 0.9746(3)
C15_2 C 0.9038(6) 0.1525(5) 0.9145(3)
H6_2 H 0.8899 0.4022 0.6714
H7_2 H 0.9351 0.4899 0.7158
H8_2 H 0.9174 0.2987 0.7590
H9_2 H 0.9940 0.4623 0.8348
H10_2 H 0.9851 0.3584 0.8611
H13_2 H 0.8086 0.4668 0.7671
H14_2 H 0.7654 0.3740 0.7279
H15_2 H 0.8126 0.1992 0.7959
H16_2 H 0.7030 0.1990 0.7984
H17_2 H 0.6714 0.1571 0.8978
H18_2 H 0.7267 0.0966 0.9990
H20_2 H 0.9493 0.1660 0.8931
I1_2 I 0.0647(1) 0.9419(1) 0.2514(1)
S4_2 S 0.8531(1) 0.9709(1) 0.5667(1)
C24_3 C 0.7221(5) 0.9971(5) 0.5368(3)
C25_3 C 0.8611(5) 0.8642(5) 0.5216(3)
C26_3 C 0.8396(5) 0.8779(5) 0.4516(3)
C27_3 C 0.9046(6) 0.9229(6) 0.4264(3)
C28_3 C 0.8871(6) 0.9340(6) 0.3628(3)
C29_3 C 0.7995(5) 0.8998(5) 0.3201(3)
C30_3 C 0.7328(6) 0.8554(5) 0.3456(3)
C31_3 C 0.7514(5) 0.8447(5) 0.4096(4)
C32_3 C 0.7763(6) 0.9094(5) 0.2491(3)
H36_3 H 0.6848 0.9379 0.5357
H37_3 H 0.9273 0.8377 0.5385
H38_3 H 0.8154 0.8162 0.5283
H39_3 H 0.9634 0.9470 0.4538
H40_3 H 0.9339 0.9646 0.3479
H41_3 H 0.6734 0.8320 0.3184
H42_3 H 0.7046 0.8150 0.4249
H43_3 H 0.7117 0.8808 0.2294
H44_3 H 0.8242 0.8710 0.2364
Cu4_2 Cu 0.8797(1) 0.9104(1) 0.6707(1)
S2 S 0.2237(1) 0.6500(1) 0.1674(1)
C4_3 C 0.0608(6) 0.5797(8) 0.2893(4)
C5_3 C 0.0839(5) 0.6312(6) 0.2342(3)
C6_3 C 0.0032(5) 0.6064(7) 0.1737(4)
C8_3 C 0.1871(5) 0.6034(6) 0.2332(3)
C9_3 C 0.2297(5) 0.7815(5) 0.1792(3)
C10_3 C 0.1958(5) 0.8294(5) 0.1155(3)
C11_3 C 0.2611(6) 0.8523(6) 0.0831(4)
C12_3 C 0.2278(6) 0.8892(6) 0.0222(4)
C14_3 C 0.0623(6) 0.8846(5) 0.0254(3)
C15_3 C 0.0962(6) 0.8475(5) 0.0855(3)
H6_3 H 0.1101 0.5978 0.3286
H7_3 H 0.0649 0.5101 0.2842
H8_3 H 0.0826 0.7013 0.2410
H9_3 H 0.0060 0.5377 0.1652
H10_3 H 0.0149 0.6416 0.1389
H13_3 H 0.1914 0.5332 0.2329
H14_3 H 0.2346 0.6260 0.2721
H15_3 H 0.1874 0.8008 0.2041
H16_3 H 0.2970 0.8010 0.2016
H17_3 H 0.3286 0.8429 0.1022
H18_3 H 0.2733 0.9034 0.0010
H20_3 H 0.0507 0.8340 0.1069
Cu3 Cu 0.3797(1) 0.5896(1) 0.1707(1)
S3_2 S 0.0643(1) 0.8443(1) 0.8661(1)
C13_3 C 0.1289(6) 0.9054(5) 0.9925(3)
C16_3 C 0.0937(6) 0.9407(5) 0.9249(3)
H21_3 H 0.1447 0.9815 0.9174
H22_3 H 0.0352 0.9805 0.9191
H34_3 H 0.0202 0.6534 0.9063
Cu5_2 Cu 0.0656(1) 0.9166(1) 0.7707(1)
I1_3 I 0.4353(1) 0.4419(1) 0.2486(1)
I2_3 I 0.5124(1) 0.7296(1) 0.1911(1)
Cu2_2 Cu 0.5656(1) 0.5834(1) 0.2707(1)
S1_3 S 0.7243(1) 0.5307(1) 0.2828(1)
C1_3 C 0.7738(5) 0.6039(6) 0.2319(4)
C2_3 C 0.8787(5) 0.5810(6) 0.2317(4)
C3_3 C 0.9570(6) 0.6056(8) 0.2931(4)
C7_3 C 0.8994(5) 0.6315(7) 0.1769(4)
C26_4 C 0.6604(5) 0.3779(5) 0.0484(3)
C27_4 C 0.5954(6) 0.4229(6) 0.0736(3)
C28_4 C 0.6129(6) 0.4340(6) 0.1372(3)
C29_4 C 0.7005(5) 0.3998(5) 0.1799(3)
C30_4 C 0.7672(6) 0.3554(5) 0.1544(3)
C31_4 C 0.7486(5) 0.3447(5) 0.0904(4)
C32_4 C 0.7237(6) 0.4094(5) 0.2509(3)
H1_3 H 0.7300 0.5975 0.1889
H2_3 H 0.7719 0.6712 0.2441
H3_3 H 0.8822 0.5110 0.2250
H4_3 H 0.9444 0.5699 0.3275
H5_3 H 0.9542 0.6743 0.3018
H11_3 H 0.8943 0.7011 0.1814
H12_3 H 0.8503 0.6122 0.1377
H19_3 H 0.9951 0.8958 0.0067
H35_3 H 0.7937 0.5216 0.0061
H39_4 H 0.5366 0.4470 0.0462
H40_4 H 0.5661 0.4646 0.1521
H41_4 H 0.8266 0.3320 0.1816
H42_4 H 0.7954 0.3150 0.0751
H43_4 H 0.7883 0.3808 0.2706
H44_4 H 0.6758 0.3710 0.2636
S6_2 S 0.5643(1) 0.6557(1) 0.3661(1)
S7_2 S 0.3531(1) 0.5291(1) 0.0667(1)
I2_4 I 0.0124(1) 0.7704(1) 0.6911(1)
S1_4 S 0.2243(1) 0.9693(1) 0.7828(1)
S2_2 S 0.7237(1) 0.8500(1) 0.6674(1)
C1_4 C 0.2738(5) 0.8961(6) 0.7319(4)
C2_4 C 0.3787(5) 0.9190(6) 0.7317(4)
C3_4 C 0.4570(6) 0.8944(8) 0.7931(4)
C4_4 C 0.5608(6) 0.9203(8) 0.7893(4)
C5_4 C 0.5839(5) 0.8688(6) 0.7342(3)
C6_4 C 0.5032(5) 0.8936(7) 0.6737(4)
C7_4 C 0.3994(5) 0.8685(7) 0.6769(4)
C8_4 C 0.6871(5) 0.8966(6) 0.7332(3)
C9_4 C 0.7297(5) 0.7185(5) 0.6792(3)
C10_4 C 0.6958(5) 0.6706(5) 0.6155(3)
C11_4 C 0.7611(6) 0.6477(6) 0.5831(4)
C12_4 C 0.7278(6) 0.6108(6) 0.5222(4)
C13_4 C 0.6289(6) 0.5946(5) 0.4925(3)
C14_4 C 0.5623(6) 0.6154(5) 0.5254(3)
C15_4 C 0.5962(6) 0.6525(5) 0.5855(3)
C16_4 C 0.5937(6) 0.5593(5) 0.4249(3)
C17_3 C 0.4337(5) 0.6769(5) 0.3542(3)
C18_3 C 0.4080(5) 0.7493(5) 0.3979(4)
C19_3 C 0.2961(6) 0.7559(6) 0.3845(5)
C20_3 C 0.2646(6) 0.8288(5) 0.4259(4)
C21_3 C 0.3078(5) 0.9285(5) 0.4222(3)
C22_3 C 0.4193(6) 0.9218(5) 0.4360(4)
C23_3 C 0.4486(6) 0.8499(5) 0.3942(4)
H1_4 H 0.2300 0.9025 0.6889
H2_4 H 0.2719 0.8288 0.7441
H3_4 H 0.3822 0.9890 0.7250
H4_4 H 0.4444 0.9301 0.8275
H5_4 H 0.4542 0.8257 0.8018
H6_4 H 0.6101 0.9022 0.8286
H7_4 H 0.5649 0.9899 0.7842
H8_4 H 0.5826 0.7987 0.7410
H9_4 H 0.5060 0.9623 0.6652
H10_4 H 0.5149 0.8584 0.6389
H11_4 H 0.3943 0.7989 0.6814
H12_4 H 0.3503 0.8878 0.6377
H13_4 H 0.6914 0.9668 0.7329
H14_4 H 0.7346 0.8740 0.7721
H15_4 H 0.6874 0.6992 0.7041
H16_4 H 0.7970 0.6990 0.7016
H17_4 H 0.8286 0.6571 0.6022
H18_4 H 0.7733 0.5966 0.5010
H19_4 H 0.4951 0.6042 0.5067
H20_4 H 0.5507 0.6660 0.6069
H21_4 H 0.6447 0.5185 0.4174
H22_4 H 0.5352 0.5195 0.4191
H23_3 H 0.4033 0.6154 0.3585
H24_3 H 0.4038 0.6988 0.3110
H25_3 H 0.4367 0.7259 0.4413
H26_3 H 0.2712 0.6924 0.3907
H27_3 H 0.2659 0.7736 0.3405
H28_3 H 0.1929 0.8331 0.4125
H29_3 H 0.2863 0.8065 0.4694
H30_3 H 0.2804 0.9504 0.3783
H31_3 H 0.4493 0.9031 0.4798
H32_3 H 0.4449 0.9852 0.4302
H33_3 H 0.4248 0.8725 0.3508
H34_4 H 0.5202 0.8466 0.4063
H35_4 H 0.2937 0.9784 0.5061
C17_4 C 0.0663(5) 0.1769(5) 0.1458(3)
C18_4 C 0.0920(5) 0.2493(5) 0.1021(4)
C19_4 C 0.2039(6) 0.2559(6) 0.1155(5)
C20_4 C 0.2354(6) 0.3288(5) 0.0741(4)
C21_4 C 0.1922(5) 0.4285(5) 0.0778(3)
C22_4 C 0.0807(6) 0.4218(5) 0.0640(4)
C23_4 C 0.0514(6) 0.3499(5) 0.1058(4)
C24_4 C 0.2221(5) 0.5029(5) 0.0368(3)
C25_4 C 0.3611(5) 0.6358(5) 0.0216(3)
H23_4 H 0.0967 0.1154 0.1415
H24_4 H 0.0962 0.1988 0.1890
H25_4 H 0.0633 0.2259 0.0587
H26_4 H 0.2288 0.1924 0.1093
H27_4 H 0.2341 0.2736 0.1595
H28_4 H 0.3071 0.3331 0.0875
H29_4 H 0.2137 0.3065 0.0306
H30_4 H 0.2196 0.4504 0.1217
H31_4 H 0.0507 0.4031 0.0202
H32_4 H 0.0551 0.4852 0.0698
H33_4 H 0.0752 0.3725 0.1492
H36_4 H 0.1848 0.5621 0.0357
H37_4 H 0.4273 0.6623 0.0385
H38_4 H 0.3154 0.6838 0.0283
I1_4 I 0.9353(1) 0.0581(1) 0.7486(1)
loop_
_geom_bond_atom_site_label_1
_geom_bond_atom_site_label_2
_geom_bond_site_symmetry_1
_geom_bond_site_symmetry_2
Cu1 S5 1_555 1_555
S7 Cu1 1_555 1_555
S1 Cu2 1_555 1_555
S5 C8 1_555 1_555
S3 C16 1_555 1_555
C1 S1 1_555 1_555
C2 C1 1_555 1_555
C3 C2 1_555 1_555
C4 C3 1_555 1_555
C5 C4 1_555 1_555
C6 C5 1_555 1_555
C7 C2 1_555 1_555
C8 C5 1_555 1_555
C9 S5 1_555 1_555
C10 C9 1_555 1_555
C11 C10 1_555 1_555
C12 C11 1_555 1_555
C13 C12 1_555 1_555
C14 C13 1_555 1_555
C15 C10 1_555 1_555
C16 C13 1_555 1_555
C17 S3 1_555 1_555
C18 C17 1_555 1_555
C19 C18 1_555 1_555
C20 C19 1_555 1_555
C21 C20 1_555 1_555
C22 C21 1_555 1_555
C23 C18 1_555 1_555
H1 C1 1_555 1_555
H2 C1 1_555 1_555
H3 C2 1_555 1_555
H4 C3 1_555 1_555
H5 C3 1_555 1_555
H6 C4 1_555 1_555
H7 C4 1_555 1_555
H8 C5 1_555 1_555
H9 C6 1_555 1_555
H10 C6 1_555 1_555
H11 C7 1_555 1_555
H12 C7 1_555 1_555
H13 C8 1_555 1_555
H14 C8 1_555 1_555
H15 C9 1_555 1_555
H16 C9 1_555 1_555
H17 C11 1_555 1_555
H18 C12 1_555 1_555
H19 C14 1_555 1_555
H20 C15 1_555 1_555
H21 C16 1_555 1_555
H22 C16 1_555 1_555
H23 C17 1_555 1_555
H24 C17 1_555 1_555
H25 C18 1_555 1_555
H26 C19 1_555 1_555
H27 C19 1_555 1_555
H28 C20 1_555 1_555
H29 C20 1_555 1_555
H30 C21 1_555 1_555
H31 C22 1_555 1_555
H32 C22 1_555 1_555
H33 C23 1_555 1_555
H34 C23 1_555 1_555
Cu5 S3 1_555 1_555
S6 Cu2 1_555 1_555
I2 Cu2 1_555 1_555
C6 C7 1_555 1_555
C14 C15 1_555 1_555
C22 C23 1_555 1_555
S4 C24 1_555 1_555
C18_2 C17_2 1_555 1_555
C19_2 C18_2 1_555 1_555
C20_2 C19_2 1_555 1_555
C21_2 C20_2 1_555 1_555
C22_2 C21_2 1_555 1_555
C23_2 C18_2 1_555 1_555
C24 C21_2 1_555 1_555
C25 S4 1_555 1_555
H23_2 C17_2 1_555 1_555
H24_2 C17_2 1_555 1_555
H25_2 C18_2 1_555 1_555
H26_2 C19_2 1_555 1_555
H27_2 C19_2 1_555 1_555
H28_2 C20_2 1_555 1_555
H29_2 C20_2 1_555 1_555
H30_2 C21_2 1_555 1_555
H31_2 C22_2 1_555 1_555
H32_2 C22_2 1_555 1_555
H33_2 C23_2 1_555 1_555
H36 C24 1_555 1_555
H37 C25 1_555 1_555
H38 C25 1_555 1_555
Cu4 S4 1_555 1_555
C22_2 C23_2 1_555 1_555
S7 C24_2 1_555 1_555
C25_2 S7 1_555 1_555
C26 C25_2 1_555 1_555
C27 C26 1_555 1_555
C28 C27 1_555 1_555
C29 C28 1_555 1_555
C30 C29 1_555 1_555
C31 C26 1_555 1_555
H36_2 C24_2 1_555 1_555
H37_2 C25_2 1_555 1_555
H38_2 C25_2 1_555 1_555
H39 C27 1_555 1_555
H40 C28 1_555 1_555
H41 C30 1_555 1_555
H42 C31 1_555 1_555
H43 C32 1_555 1_555
H44 C32 1_555 1_555
C29 C32 1_555 1_555
C30 C31 1_555 1_555
I1 Cu4 1_555 1_555
I2_2 Cu4 1_555 1_555
Cu4 S5_2 1_555 1_555
Cu5 I1 1_555 1_555
S1_2 Cu5 1_555 1_555
C1_2 S1_2 1_555 1_555
C2_2 C1_2 1_555 1_555
C3_2 C2_2 1_555 1_555
C7_2 C2_2 1_555 1_555
C27_2 C26_2 1_555 1_555
C28_2 C27_2 1_555 1_555
C29_2 C28_2 1_555 1_555
C30_2 C29_2 1_555 1_555
C31_2 C26_2 1_555 1_555
C32_2 S1_2 1_555 1_555
H1_2 C1_2 1_555 1_555
H2_2 C1_2 1_555 1_555
H3_2 C2_2 1_555 1_555
H4_2 C3_2 1_555 1_555
H5_2 C3_2 1_555 1_555
H11_2 C7_2 1_555 1_555
H12_2 C7_2 1_555 1_555
H39_2 C27_2 1_555 1_555
H40_2 C28_2 1_555 1_555
H41_2 C30_2 1_555 1_555
H42_2 C31_2 1_555 1_555
H43_2 C32_2 1_555 1_555
H44_2 C32_2 1_555 1_555
I2_2 Cu5 1_555 1_555
C29_2 C32_2 1_555 1_555
C30_2 C31_2 1_555 1_555
S6 C16_2 1_555 1_555
C16_2 C13_2 1_555 1_555
H21_2 C16_2 1_555 1_555
H22_2 C16_2 1_555 1_555
S5_2 C8_2 1_555 1_555
C5_2 C4_2 1_555 1_555
C6_2 C5_2 1_555 1_555
C8_2 C5_2 1_555 1_555
C9_2 S5_2 1_555 1_555
C10_2 C9_2 1_555 1_555
C11_2 C10_2 1_555 1_555
C12_2 C11_2 1_555 1_555
C15_2 C10_2 1_555 1_555
H6_2 C4_2 1_555 1_555
H7_2 C4_2 1_555 1_555
H8_2 C5_2 1_555 1_555
H9_2 C6_2 1_555 1_555
H10_2 C6_2 1_555 1_555
H13_2 C8_2 1_555 1_555
H14_2 C8_2 1_555 1_555
H15_2 C9_2 1_555 1_555
H16_2 C9_2 1_555 1_555
H17_2 C11_2 1_555 1_555
H18_2 C12_2 1_555 1_555
H20_2 C15_2 1_555 1_555
C14_2 C15_2 1_555 1_555
S4_2 C24_3 1_555 1_555
C25_3 S4_2 1_555 1_555
C26_3 C25_3 1_555 1_555
C27_3 C26_3 1_555 1_555
C28_3 C27_3 1_555 1_555
C29_3 C28_3 1_555 1_555
C30_3 C29_3 1_555 1_555
C31_3 C26_3 1_555 1_555
H36_3 C24_3 1_555 1_555
H37_3 C25_3 1_555 1_555
H38_3 C25_3 1_555 1_555
H39_3 C27_3 1_555 1_555
H40_3 C28_3 1_555 1_555
H41_3 C30_3 1_555 1_555
H42_3 C31_3 1_555 1_555
H43_3 C32_3 1_555 1_555
H44_3 C32_3 1_555 1_555
Cu4_2 S4_2 1_555 1_555
C29_3 C32_3 1_555 1_555
C30_3 C31_3 1_555 1_555
S2 C8_3 1_555 1_555
C5_3 C4_3 1_555 1_555
C6_3 C5_3 1_555 1_555
C8_3 C5_3 1_555 1_555
C9_3 S2 1_555 1_555
C10_3 C9_3 1_555 1_555
C11_3 C10_3 1_555 1_555
C12_3 C11_3 1_555 1_555
C15_3 C10_3 1_555 1_555
H6_3 C4_3 1_555 1_555
H7_3 C4_3 1_555 1_555
H8_3 C5_3 1_555 1_555
H9_3 C6_3 1_555 1_555
H10_3 C6_3 1_555 1_555
H13_3 C8_3 1_555 1_555
H14_3 C8_3 1_555 1_555
H15_3 C9_3 1_555 1_555
H16_3 C9_3 1_555 1_555
H17_3 C11_3 1_555 1_555
H18_3 C12_3 1_555 1_555
H20_3 C15_3 1_555 1_555
Cu3 S2 1_555 1_555
C14_3 C15_3 1_555 1_555
S3_2 C16_3 1_555 1_555
C16_3 C13_3 1_555 1_555
H21_3 C16_3 1_555 1_555
H22_3 C16_3 1_555 1_555
Cu5_2 S3_2 1_555 1_555
I1_3 Cu3 1_555 1_555
I2_3 Cu3 1_555 1_555
Cu2_2 I1_3 1_555 1_555
S1_3 Cu2_2 1_555 1_555
C1_3 S1_3 1_555 1_555
C2_3 C1_3 1_555 1_555
C3_3 C2_3 1_555 1_555
C7_3 C2_3 1_555 1_555
C27_4 C26_4 1_555 1_555
C28_4 C27_4 1_555 1_555
C29_4 C28_4 1_555 1_555
C30_4 C29_4 1_555 1_555
C31_4 C26_4 1_555 1_555
C32_4 S1_3 1_555 1_555
H1_3 C1_3 1_555 1_555
H2_3 C1_3 1_555 1_555
H3_3 C2_3 1_555 1_555
H4_3 C3_3 1_555 1_555
H5_3 C3_3 1_555 1_555
H11_3 C7_3 1_555 1_555
H12_3 C7_3 1_555 1_555
H39_4 C27_4 1_555 1_555
H40_4 C28_4 1_555 1_555
H41_4 C30_4 1_555 1_555
H42_4 C31_4 1_555 1_555
H43_4 C32_4 1_555 1_555
H44_4 C32_4 1_555 1_555
S6_2 Cu2_2 1_555 1_555
S7_2 Cu3 1_555 1_555
I2_3 Cu2_2 1_555 1_555
C29_4 C32_4 1_555 1_555
C30_4 C31_4 1_555 1_555
S1_4 Cu5_2 1_555 1_555
S2_2 C8_4 1_555 1_555
S6_2 C16_4 1_555 1_555
C1_4 S1_4 1_555 1_555
C2_4 C1_4 1_555 1_555
C3_4 C2_4 1_555 1_555
C4_4 C3_4 1_555 1_555
C5_4 C4_4 1_555 1_555
C6_4 C5_4 1_555 1_555
C7_4 C2_4 1_555 1_555
C8_4 C5_4 1_555 1_555
C9_4 S2_2 1_555 1_555
C10_4 C9_4 1_555 1_555
C11_4 C10_4 1_555 1_555
C12_4 C11_4 1_555 1_555
C13_4 C12_4 1_555 1_555
C14_4 C13_4 1_555 1_555
C15_4 C10_4 1_555 1_555
C16_4 C13_4 1_555 1_555
C17_3 S6_2 1_555 1_555
C18_3 C17_3 1_555 1_555
C19_3 C18_3 1_555 1_555
C20_3 C19_3 1_555 1_555
C21_3 C20_3 1_555 1_555
C22_3 C21_3 1_555 1_555
C23_3 C18_3 1_555 1_555
H1_4 C1_4 1_555 1_555
H2_4 C1_4 1_555 1_555
H3_4 C2_4 1_555 1_555
H4_4 C3_4 1_555 1_555
H5_4 C3_4 1_555 1_555
H6_4 C4_4 1_555 1_555
H7_4 C4_4 1_555 1_555
H8_4 C5_4 1_555 1_555
H9_4 C6_4 1_555 1_555
H10_4 C6_4 1_555 1_555
H11_4 C7_4 1_555 1_555
H12_4 C7_4 1_555 1_555
H13_4 C8_4 1_555 1_555
H14_4 C8_4 1_555 1_555
H15_4 C9_4 1_555 1_555
H16_4 C9_4 1_555 1_555
H17_4 C11_4 1_555 1_555
H18_4 C12_4 1_555 1_555
H19_4 C14_4 1_555 1_555
H20_4 C15_4 1_555 1_555
H21_4 C16_4 1_555 1_555
H22_4 C16_4 1_555 1_555
H23_3 C17_3 1_555 1_555
H24_3 C17_3 1_555 1_555
H25_3 C18_3 1_555 1_555
H26_3 C19_3 1_555 1_555
H27_3 C19_3 1_555 1_555
H28_3 C20_3 1_555 1_555
H29_3 C20_3 1_555 1_555
H30_3 C21_3 1_555 1_555
H31_3 C22_3 1_555 1_555
H32_3 C22_3 1_555 1_555
H33_3 C23_3 1_555 1_555
H34_4 C23_3 1_555 1_555
Cu4_2 S2_2 1_555 1_555
I2_4 Cu5_2 1_555 1_555
C6_4 C7_4 1_555 1_555
C14_4 C15_4 1_555 1_555
C22_3 C23_3 1_555 1_555
S7_2 C24_4 1_555 1_555
C18_4 C17_4 1_555 1_555
C19_4 C18_4 1_555 1_555
C20_4 C19_4 1_555 1_555
C21_4 C20_4 1_555 1_555
C22_4 C21_4 1_555 1_555
C23_4 C18_4 1_555 1_555
C24_4 C21_4 1_555 1_555
C25_4 S7_2 1_555 1_555
H23_4 C17_4 1_555 1_555
H24_4 C17_4 1_555 1_555
H25_4 C18_4 1_555 1_555
H26_4 C19_4 1_555 1_555
H27_4 C19_4 1_555 1_555
H28_4 C20_4 1_555 1_555
H29_4 C20_4 1_555 1_555
H30_4 C21_4 1_555 1_555
H31_4 C22_4 1_555 1_555
H32_4 C22_4 1_555 1_555
H33_4 C23_4 1_555 1_555
H36_4 C24_4 1_555 1_555
H37_4 C25_4 1_555 1_555
H38_4 C25_4 1_555 1_555
C22_4 C23_4 1_555 1_555

#END
