
###############################################################################
#
# This file contains modified crystal structure data generated from the
# MOF subset of the Cambridge Structural Database (CSD) v543 
# hosted by the Cambridge Crystallographic Data Centre (CCDC).
#
# This work is licensed under the Creative Commons
# Attribution-NonCommercial-ShareAlike 4.0 International License.
# To view a copy of this license, visit
# http://creativecommons.org/licenses/by-nc-sa/4.0/
# or send a letter to
# Creative Commons, PO Box 1866, Mountain View, CA 94042, USA.
#
# CIF created using the CSD Python API on 29 September 2022
# The structure has been converted into the P1 space group
# The structure has a 3D framework
# The original CSD entry XOFFUT is in the cubic crystal system
# The framework has been calculated to contain at least 10.0% void space
# The void calculation uses a probe of radius 1.32A, grid spacing 0.4
# The framework is charged, counterions have been retained in the structure
# H atom positions have been added when not included in the experimental data
# Generated hydrogen atom positions removed from atoms on special positions
#
###############################################################################

data_XOFFUT
_chemical_formula_moiety         '(C192 H168 Cl24 O112 V24 2-)n'
_symmetry_cell_setting           triclinic
_symmetry_space_group_name_H-M   'P 1'
_symmetry_Int_Tables_number      1
_space_group_name_Hall           'P 1'
loop_
_symmetry_equiv_pos_site_id
_symmetry_equiv_pos_as_xyz
1 x,y,z
_cell_length_a                   19.29070(10)
_cell_length_b                   19.29070(10)
_cell_length_c                   19.29070(10)
_cell_angle_alpha                90
_cell_angle_beta                 90
_cell_angle_gamma                90
_cell_volume                     7178.67
loop_
_atom_site_label
_atom_site_type_symbol
_atom_site_fract_x
_atom_site_fract_y
_atom_site_fract_z
V1 V 0.75509(2) 0.39102(2) 0.14242(2)
O1 O 0.80451(10) 0.48174(9) 0.15148(10)
O2 O 0.83494(9) 0.33494(9) 0.16506(9)
O3 O 0.80893(10) 0.80864(10) 0.13710(12)
O4 O 0.74087(10) 0.72206(11) 0.10263(10)
O5 O 0.89115(11) 0.45975(10) 0.22602(9)
O6 O 0.66938(11) 0.45057(11) 0.11735(11)
C1 C 0.79530(13) 0.74479(14) 0.13075(13)
C2 C 0.85500(13) 0.50048(13) 0.18967(14)
C3 C 0.84526(13) 0.69392(15) 0.16074(13)
C4 C 0.83040(13) 0.62343(14) 0.15697(14)
H1 H 0.79249(13) 0.60811(14) 0.13144(14)
C5 C 0.87225(15) 0.57596(14) 0.19139(13)
C6 C 0.9287(2) 0.5992(2) 0.23010(14)
H2 H 0.9560(2) 0.5675(2) 0.25410(14)
C7 C 0.90300(14) 0.7167(2) 0.1977(2)
H3 H 0.91400(14) 0.7636(2) 0.1988(2)
C8 C 0.9441(2) 0.6693(2) 0.2328(2)
H4 H 0.9822(2) 0.6845(2) 0.2582(2)
O8 O 0.69107(10) 0.30864(10) 0.13710(12)
O9 O 0.75913(10) 0.22206(11) 0.10263(10)
C9 C 0.70470(13) 0.24479(14) 0.13075(13)
C10 C 0.64500(13) 0.00048(13) 0.18967(14)
C11 C 0.65474(13) 0.19392(15) 0.16074(13)
C12 C 0.66960(13) 0.12343(14) 0.15697(14)
H5 H 0.70751(13) 0.10811(14) 0.13144(14)
C13 C 0.62775(15) 0.07596(14) 0.19139(13)
C14 C 0.5713(2) 0.0992(2) 0.23010(14)
H6 H 0.5440(2) 0.0675(2) 0.25410(14)
C15 C 0.59700(14) 0.2167(2) 0.1977(2)
H7 H 0.58600(14) 0.2636(2) 0.1988(2)
C16 C 0.5559(2) 0.1693(2) 0.2328(2)
H8 H 0.5178(2) 0.1845(2) 0.2582(2)
O11 O 0.48174(9) 0.34852(10) 0.30451(10)
O12 O 0.80864(10) 0.36290(12) 0.30893(10)
O13 O 0.72206(11) 0.39737(10) 0.24087(10)
O14 O 0.45975(10) 0.27398(9) 0.39115(11)
C17 C 0.74479(14) 0.36925(13) 0.29530(13)
C18 C 0.50048(13) 0.31033(14) 0.35500(13)
C19 C 0.69392(15) 0.33926(13) 0.34526(13)
C20 C 0.62343(14) 0.34303(14) 0.33040(13)
H9 H 0.60811(14) 0.36856(14) 0.29249(13)
C21 C 0.57596(14) 0.30861(13) 0.37225(15)
C22 C 0.5992(2) 0.26990(14) 0.4287(2)
H10 H 0.5675(2) 0.24590(14) 0.4560(2)
C23 C 0.7167(2) 0.3023(2) 0.40300(14)
H11 H 0.7636(2) 0.3012(2) 0.41400(14)
C24 C 0.6693(2) 0.2672(2) 0.4441(2)
H12 H 0.6845(2) 0.2418(2) 0.4822(2)
V3 V 0.39102(2) 0.35758(2) 0.25509(2)
O16 O 0.45057(11) 0.38265(11) 0.16938(11)
O17 O 0.77398(9) 0.39115(11) 0.04025(10)
V4 V 0.85758(2) 0.25509(2) 0.10898(2)
V5 V 0.89102(2) 0.35758(2) 0.24491(2)
V6 V 0.74491(2) 0.89102(2) 0.14242(2)
V7 V 0.64242(2) 0.75509(2) 0.10898(2)
V9 V 0.35758(2) 0.25509(2) 0.39102(2)
O22 O 0.33494(9) 0.33494(9) 0.33494(9)
O23 O 0.30864(10) 0.36290(12) 0.19107(10)
O24 O 0.39737(10) 0.25913(10) 0.22206(11)
O25 O 0.39115(11) 0.45975(10) 0.27398(9)
O7 O 0.69549(10) 0.98174(9) 0.15148(10)
O10 O 0.60885(11) 0.95975(10) 0.22602(9)
O15 O 0.83062(11) 0.95057(11) 0.11735(11)
V8 V 0.60898(2) 0.85758(2) 0.24491(2)
O18 O 0.66506(9) 0.83494(9) 0.16506(9)
O20 O 0.77794(11) 0.89737(10) 0.24087(10)
O21 O 0.72602(9) 0.89115(11) 0.04025(10)
V1_2 V 0.14242(2) 0.75509(2) 0.39102(2)
O1_2 O 0.15148(10) 0.80451(10) 0.48174(9)
O2_2 O 0.16506(9) 0.83494(9) 0.33494(9)
O3_2 O 0.13710(12) 0.80893(10) 0.80864(10)
O4_2 O 0.10263(10) 0.74087(10) 0.72206(11)
O5_2 O 0.22602(9) 0.89115(11) 0.45975(10)
O6_2 O 0.11735(11) 0.66938(11) 0.45057(11)
C1_2 C 0.13075(13) 0.79530(13) 0.74479(14)
C2_2 C 0.18967(14) 0.85500(13) 0.50048(13)
C3_2 C 0.16074(13) 0.84526(13) 0.69392(15)
C4_2 C 0.15697(14) 0.83040(13) 0.62343(14)
H1_2 H 0.13144(14) 0.79249(13) 0.60811(14)
C5_2 C 0.19139(13) 0.87225(15) 0.57596(14)
C6_2 C 0.23010(14) 0.9287(2) 0.5992(2)
H2_2 H 0.25410(14) 0.9560(2) 0.5675(2)
C7_2 C 0.1977(2) 0.90300(14) 0.7167(2)
H3_2 H 0.1988(2) 0.91400(14) 0.7636(2)
C8_2 C 0.2328(2) 0.9441(2) 0.6693(2)
H4_2 H 0.2582(2) 0.9822(2) 0.6845(2)
O8_2 O 0.13710(12) 0.69107(10) 0.30864(10)
O9_2 O 0.10263(10) 0.75913(10) 0.22206(11)
C9_2 C 0.13075(13) 0.70470(13) 0.24479(14)
C10_2 C 0.18967(14) 0.64500(13) 0.00048(13)
C11_2 C 0.16074(13) 0.65474(13) 0.19392(15)
C12_2 C 0.15697(14) 0.66960(13) 0.12343(14)
H5_2 H 0.13144(14) 0.70751(13) 0.10811(14)
C13_2 C 0.19139(13) 0.62775(15) 0.07596(14)
C14_2 C 0.23010(14) 0.5713(2) 0.0992(2)
H6_2 H 0.25410(14) 0.5440(2) 0.0675(2)
C15_2 C 0.1977(2) 0.59700(14) 0.2167(2)
H7_2 H 0.1988(2) 0.58600(14) 0.2636(2)
C16_2 C 0.2328(2) 0.5559(2) 0.1693(2)
H8_2 H 0.2582(2) 0.5178(2) 0.1845(2)
O11_2 O 0.30451(10) 0.48174(9) 0.34852(10)
O12_2 O 0.30893(10) 0.80864(10) 0.36290(12)
O13_2 O 0.24087(10) 0.72206(11) 0.39737(10)
C17_2 C 0.29530(13) 0.74479(14) 0.36925(13)
C18_2 C 0.35500(13) 0.50048(13) 0.31033(14)
C19_2 C 0.34526(13) 0.69392(15) 0.33926(13)
C20_2 C 0.33040(13) 0.62343(14) 0.34303(14)
H9_2 H 0.29249(13) 0.60811(14) 0.36856(14)
C21_2 C 0.37225(15) 0.57596(14) 0.30861(13)
C22_2 C 0.4287(2) 0.5992(2) 0.26990(14)
H10_2 H 0.4560(2) 0.5675(2) 0.24590(14)
C23_2 C 0.40300(14) 0.7167(2) 0.3023(2)
H11_2 H 0.41400(14) 0.7636(2) 0.3012(2)
C24_2 C 0.4441(2) 0.6693(2) 0.2672(2)
H12_2 H 0.4822(2) 0.6845(2) 0.2418(2)
V3_2 V 0.25509(2) 0.39102(2) 0.35758(2)
O16_2 O 0.16938(11) 0.45057(11) 0.38265(11)
O17_2 O 0.04025(10) 0.77398(9) 0.39115(11)
V4_2 V 0.10898(2) 0.85758(2) 0.25509(2)
V5_2 V 0.24491(2) 0.89102(2) 0.35758(2)
V6_2 V 0.14242(2) 0.74491(2) 0.89102(2)
V7_2 V 0.10898(2) 0.64242(2) 0.75509(2)
O23_2 O 0.19107(10) 0.30864(10) 0.36290(12)
O24_2 O 0.22206(11) 0.39737(10) 0.25913(10)
O25_2 O 0.27398(9) 0.39115(11) 0.45975(10)
O7_2 O 0.15148(10) 0.69549(10) 0.98174(9)
O10_2 O 0.22602(9) 0.60885(11) 0.95975(10)
O15_2 O 0.11735(11) 0.83062(11) 0.95057(11)
V8_2 V 0.24491(2) 0.60898(2) 0.85758(2)
O18_2 O 0.16506(9) 0.66506(9) 0.83494(9)
O20_2 O 0.24087(10) 0.77794(11) 0.89737(10)
O21_2 O 0.04025(10) 0.72602(9) 0.89115(11)
V1_3 V 0.39102(2) 0.14242(2) 0.75509(2)
O1_3 O 0.48174(9) 0.15148(10) 0.80451(10)
O2_3 O 0.33494(9) 0.16506(9) 0.83494(9)
O3_3 O 0.80864(10) 0.13710(12) 0.80893(10)
O4_3 O 0.72206(11) 0.10263(10) 0.74087(10)
O5_3 O 0.45975(10) 0.22602(9) 0.89115(11)
O6_3 O 0.45057(11) 0.11735(11) 0.66938(11)
C1_3 C 0.74479(14) 0.13075(13) 0.79530(13)
C2_3 C 0.50048(13) 0.18967(14) 0.85500(13)
C3_3 C 0.69392(15) 0.16074(13) 0.84526(13)
C4_3 C 0.62343(14) 0.15697(14) 0.83040(13)
H1_3 H 0.60811(14) 0.13144(14) 0.79249(13)
C5_3 C 0.57596(14) 0.19139(13) 0.87225(15)
C6_3 C 0.5992(2) 0.23010(14) 0.9287(2)
H2_3 H 0.5675(2) 0.25410(14) 0.9560(2)
C7_3 C 0.7167(2) 0.1977(2) 0.90300(14)
H3_3 H 0.7636(2) 0.1988(2) 0.91400(14)
C8_3 C 0.6693(2) 0.2328(2) 0.9441(2)
H4_3 H 0.6845(2) 0.2582(2) 0.9822(2)
O8_3 O 0.30864(10) 0.13710(12) 0.69107(10)
O9_3 O 0.22206(11) 0.10263(10) 0.75913(10)
C9_3 C 0.24479(14) 0.13075(13) 0.70470(13)
C10_3 C 0.00048(13) 0.18967(14) 0.64500(13)
C11_3 C 0.19392(15) 0.16074(13) 0.65474(13)
C12_3 C 0.12343(14) 0.15697(14) 0.66960(13)
H5_3 H 0.10811(14) 0.13144(14) 0.70751(13)
C13_3 C 0.07596(14) 0.19139(13) 0.62775(15)
C14_3 C 0.0992(2) 0.23010(14) 0.5713(2)
H6_3 H 0.0675(2) 0.25410(14) 0.5440(2)
C15_3 C 0.2167(2) 0.1977(2) 0.59700(14)
H7_3 H 0.2636(2) 0.1988(2) 0.58600(14)
C16_3 C 0.1693(2) 0.2328(2) 0.5559(2)
H8_3 H 0.1845(2) 0.2582(2) 0.5178(2)
O11_3 O 0.34852(10) 0.30451(10) 0.48174(9)
O12_3 O 0.36290(12) 0.30893(10) 0.80864(10)
O13_3 O 0.39737(10) 0.24087(10) 0.72206(11)
C17_3 C 0.36925(13) 0.29530(13) 0.74479(14)
C18_3 C 0.31033(14) 0.35500(13) 0.50048(13)
C19_3 C 0.33926(13) 0.34526(13) 0.69392(15)
C20_3 C 0.34303(14) 0.33040(13) 0.62343(14)
H9_3 H 0.36856(14) 0.29249(13) 0.60811(14)
C21_3 C 0.30861(13) 0.37225(15) 0.57596(14)
C22_3 C 0.26990(14) 0.4287(2) 0.5992(2)
H10_3 H 0.24590(14) 0.4560(2) 0.5675(2)
C23_3 C 0.3023(2) 0.40300(14) 0.7167(2)
H11_3 H 0.3012(2) 0.41400(14) 0.7636(2)
C24_3 C 0.2672(2) 0.4441(2) 0.6693(2)
H12_3 H 0.2418(2) 0.4822(2) 0.6845(2)
O16_3 O 0.38265(11) 0.16938(11) 0.45057(11)
O17_3 O 0.39115(11) 0.04025(10) 0.77398(9)
V4_3 V 0.25509(2) 0.10898(2) 0.85758(2)
V5_3 V 0.35758(2) 0.24491(2) 0.89102(2)
V6_3 V 0.89102(2) 0.14242(2) 0.74491(2)
V7_3 V 0.75509(2) 0.10898(2) 0.64242(2)
O23_3 O 0.36290(12) 0.19107(10) 0.30864(10)
O24_3 O 0.25913(10) 0.22206(11) 0.39737(10)
O7_3 O 0.98174(9) 0.15148(10) 0.69549(10)
O10_3 O 0.95975(10) 0.22602(9) 0.60885(11)
O15_3 O 0.95057(11) 0.11735(11) 0.83062(11)
V8_3 V 0.85758(2) 0.24491(2) 0.60898(2)
O18_3 O 0.83494(9) 0.16506(9) 0.66506(9)
O20_3 O 0.89737(10) 0.24087(10) 0.77794(11)
O21_3 O 0.89115(11) 0.04025(10) 0.72602(9)
O11_4 O 0.01826(9) 0.65148(10) 0.80451(10)
O16_4 O 0.04943(11) 0.61735(11) 0.66938(11)
O23_4 O 0.19136(10) 0.63710(12) 0.69107(10)
O25_3 O 0.10885(11) 0.54025(10) 0.77398(9)
O7_4 O 0.80451(10) 0.01826(9) 0.65148(10)
O15_4 O 0.66938(11) 0.04943(11) 0.61735(11)
O19 O 0.69107(10) 0.19136(10) 0.63710(12)
O21_4 O 0.77398(9) 0.10885(11) 0.54025(10)
V1_4 V 0.74491(2) 0.60898(2) 0.64242(2)
O1_4 O 0.69549(10) 0.51826(9) 0.65148(10)
O2_4 O 0.66506(9) 0.66506(9) 0.66506(9)
O4_4 O 0.75913(10) 0.27794(11) 0.60263(10)
O5_4 O 0.60885(11) 0.54025(10) 0.72602(9)
O6_4 O 0.83062(11) 0.54943(11) 0.61735(11)
C1_4 C 0.70470(13) 0.25521(14) 0.63075(13)
C2_4 C 0.64500(13) 0.49952(13) 0.68967(14)
C3_4 C 0.65474(13) 0.30608(15) 0.66074(13)
C4_4 C 0.66960(13) 0.37657(14) 0.65697(14)
H1_4 H 0.70751(13) 0.39189(14) 0.63144(14)
C5_4 C 0.62775(15) 0.42404(14) 0.69139(13)
C6_4 C 0.5713(2) 0.4008(2) 0.73010(14)
H2_4 H 0.5440(2) 0.4325(2) 0.75410(14)
C7_4 C 0.59700(14) 0.2833(2) 0.6977(2)
H3_4 H 0.58600(14) 0.2364(2) 0.6988(2)
C8_4 C 0.5559(2) 0.3307(2) 0.7328(2)
H4_4 H 0.5178(2) 0.3155(2) 0.7582(2)
O8_4 O 0.80893(10) 0.69136(10) 0.63710(12)
O9_4 O 0.74087(10) 0.77794(11) 0.60263(10)
C9_4 C 0.79530(13) 0.75521(14) 0.63075(13)
C10_4 C 0.85500(13) 0.99952(13) 0.68967(14)
C11_4 C 0.84526(13) 0.80608(15) 0.66074(13)
C12_4 C 0.83040(13) 0.87657(14) 0.65697(14)
H5_4 H 0.79249(13) 0.89189(14) 0.63144(14)
C13_4 C 0.87225(15) 0.92404(14) 0.69139(13)
C14_4 C 0.9287(2) 0.9008(2) 0.73010(14)
H6_4 H 0.9560(2) 0.9325(2) 0.75410(14)
C15_4 C 0.90300(14) 0.7833(2) 0.6977(2)
H7_4 H 0.91400(14) 0.7364(2) 0.6988(2)
C16_4 C 0.9441(2) 0.8307(2) 0.7328(2)
H8_4 H 0.9822(2) 0.8155(2) 0.7582(2)
O12_4 O 0.69136(10) 0.63710(12) 0.80893(10)
O13_4 O 0.77794(11) 0.60263(10) 0.74087(10)
C17_4 C 0.75521(14) 0.63075(13) 0.79530(13)
C18_4 C 0.99952(13) 0.68967(14) 0.85500(13)
C19_4 C 0.80608(15) 0.66074(13) 0.84526(13)
C20_4 C 0.87657(14) 0.65697(14) 0.83040(13)
H9_4 H 0.89189(14) 0.63144(14) 0.79249(13)
C21_4 C 0.92404(14) 0.69139(13) 0.87225(15)
C22_4 C 0.9008(2) 0.73010(14) 0.9287(2)
H10_4 H 0.9325(2) 0.75410(14) 0.9560(2)
C23_4 C 0.7833(2) 0.6977(2) 0.90300(14)
H11_4 H 0.7364(2) 0.6988(2) 0.91400(14)
C24_4 C 0.8307(2) 0.7328(2) 0.9441(2)
H12_4 H 0.8155(2) 0.7582(2) 0.9822(2)
O17_4 O 0.72602(9) 0.60885(11) 0.54025(10)
V4_4 V 0.64242(2) 0.74491(2) 0.60898(2)
V5_4 V 0.60898(2) 0.64242(2) 0.74491(2)
C1_5 C 0.20470(13) 0.24479(14) 0.36925(13)
C2_5 C 0.14500(13) 0.00048(13) 0.31033(14)
C3_5 C 0.15474(13) 0.19392(15) 0.33926(13)
C4_5 C 0.16960(13) 0.12343(14) 0.34303(14)
H1_5 H 0.20751(13) 0.10811(14) 0.36856(14)
C5_5 C 0.12775(15) 0.07596(14) 0.30861(13)
C6_5 C 0.0713(2) 0.0992(2) 0.26990(14)
H2_5 H 0.0440(2) 0.0675(2) 0.24590(14)
C7_5 C 0.09700(14) 0.2167(2) 0.3023(2)
H3_5 H 0.08600(14) 0.2636(2) 0.3012(2)
C8_5 C 0.0559(2) 0.1693(2) 0.2672(2)
H4_5 H 0.0178(2) 0.1845(2) 0.2418(2)
O1_5 O 0.19549(10) 0.98174(9) 0.34852(10)
O5_5 O 0.10885(11) 0.95975(10) 0.27398(9)
O6_5 O 0.33062(11) 0.95057(11) 0.38265(11)
O11_5 O 0.51826(9) 0.84852(10) 0.19549(10)
O12_5 O 0.19136(10) 0.86290(12) 0.19107(10)
O13_5 O 0.27794(11) 0.89737(10) 0.25913(10)
O14_2 O 0.54025(10) 0.77398(9) 0.10885(11)
C17_5 C 0.25521(14) 0.86925(13) 0.20470(13)
C18_5 C 0.49952(13) 0.81033(14) 0.14500(13)
C19_5 C 0.30608(15) 0.83926(13) 0.15474(13)
C20_5 C 0.37657(14) 0.84303(14) 0.16960(13)
H9_5 H 0.39189(14) 0.86856(14) 0.20751(13)
C21_5 C 0.42404(14) 0.80861(13) 0.12775(15)
C22_5 C 0.4008(2) 0.76990(14) 0.0713(2)
H10_5 H 0.4325(2) 0.74590(14) 0.0440(2)
C23_5 C 0.2833(2) 0.8023(2) 0.09700(14)
H11_5 H 0.2364(2) 0.8012(2) 0.08600(14)
C24_5 C 0.3307(2) 0.7672(2) 0.0559(2)
H12_5 H 0.3155(2) 0.7418(2) 0.0178(2)
O16_5 O 0.54943(11) 0.88265(11) 0.33062(11)
O23_5 O 0.69136(10) 0.86290(12) 0.30893(10)
O24_4 O 0.60263(10) 0.75913(10) 0.27794(11)
O1_6 O 0.30451(10) 0.01826(9) 0.84852(10)
O6_6 O 0.16938(11) 0.04943(11) 0.88265(11)
O7_5 O 0.19549(10) 0.51826(9) 0.84852(10)
O8_5 O 0.19107(10) 0.19136(10) 0.86290(12)
O9_5 O 0.25913(10) 0.27794(11) 0.89737(10)
C9_5 C 0.20470(13) 0.25521(14) 0.86925(13)
C10_5 C 0.14500(13) 0.49952(13) 0.81033(14)
C11_5 C 0.15474(13) 0.30608(15) 0.83926(13)
C12_5 C 0.16960(13) 0.37657(14) 0.84303(14)
H5_5 H 0.20751(13) 0.39189(14) 0.86856(14)
C13_5 C 0.12775(15) 0.42404(14) 0.80861(13)
C14_5 C 0.0713(2) 0.4008(2) 0.76990(14)
H6_5 H 0.0440(2) 0.4325(2) 0.74590(14)
C15_5 C 0.09700(14) 0.2833(2) 0.8023(2)
H7_5 H 0.08600(14) 0.2364(2) 0.8012(2)
C16_5 C 0.0559(2) 0.3307(2) 0.7672(2)
H8_5 H 0.0178(2) 0.3155(2) 0.7418(2)
O15_5 O 0.33062(11) 0.54943(11) 0.88265(11)
O17_5 O 0.27398(9) 0.10885(11) 0.95975(10)
O19_2 O 0.30893(10) 0.69136(10) 0.86290(12)
O20_4 O 0.27794(11) 0.60263(10) 0.75913(10)
C1_6 C 0.29530(13) 0.75521(14) 0.86925(13)
C2_6 C 0.35500(13) 0.99952(13) 0.81033(14)
C3_6 C 0.34526(13) 0.80608(15) 0.83926(13)
C4_6 C 0.33040(13) 0.87657(14) 0.84303(14)
H1_6 H 0.29249(13) 0.89189(14) 0.86856(14)
C5_6 C 0.37225(15) 0.92404(14) 0.80861(13)
C6_6 C 0.4287(2) 0.9008(2) 0.76990(14)
H2_6 H 0.4560(2) 0.9325(2) 0.74590(14)
C7_6 C 0.40300(14) 0.7833(2) 0.8023(2)
H3_6 H 0.41400(14) 0.7364(2) 0.8012(2)
C8_6 C 0.4441(2) 0.8307(2) 0.7672(2)
H4_6 H 0.4822(2) 0.8155(2) 0.7418(2)
O7_6 O 0.65148(10) 0.80451(10) 0.01826(9)
O15_6 O 0.61735(11) 0.66938(11) 0.04943(11)
O19_3 O 0.63710(12) 0.69107(10) 0.19136(10)
O1_7 O 0.65148(10) 0.69549(10) 0.51826(9)
O6_7 O 0.61735(11) 0.83062(11) 0.54943(11)
C1_7 C 0.63075(13) 0.70470(13) 0.25521(14)
C2_7 C 0.68967(14) 0.64500(13) 0.49952(13)
C3_7 C 0.66074(13) 0.65474(13) 0.30608(15)
C4_7 C 0.65697(14) 0.66960(13) 0.37657(14)
H1_7 H 0.63144(14) 0.70751(13) 0.39189(14)
C5_7 C 0.69139(13) 0.62775(15) 0.42404(14)
C6_7 C 0.73010(14) 0.5713(2) 0.4008(2)
H2_7 H 0.75410(14) 0.5440(2) 0.4325(2)
C7_7 C 0.6977(2) 0.59700(14) 0.2833(2)
H3_7 H 0.6988(2) 0.58600(14) 0.2364(2)
C8_7 C 0.7328(2) 0.5559(2) 0.3307(2)
H4_7 H 0.7582(2) 0.5178(2) 0.3155(2)
O8_6 O 0.63710(12) 0.80893(10) 0.69136(10)
O9_6 O 0.60263(10) 0.74087(10) 0.77794(11)
C9_6 C 0.63075(13) 0.79530(13) 0.75521(14)
C10_6 C 0.68967(14) 0.85500(13) 0.99952(13)
C11_6 C 0.66074(13) 0.84526(13) 0.80608(15)
C12_6 C 0.65697(14) 0.83040(13) 0.87657(14)
H5_6 H 0.63144(14) 0.79249(13) 0.89189(14)
C13_6 C 0.69139(13) 0.87225(15) 0.92404(14)
C14_6 C 0.73010(14) 0.9287(2) 0.9008(2)
H6_6 H 0.75410(14) 0.9560(2) 0.9325(2)
C15_6 C 0.6977(2) 0.90300(14) 0.7833(2)
H7_6 H 0.6988(2) 0.91400(14) 0.7364(2)
C16_6 C 0.7328(2) 0.9441(2) 0.8307(2)
H8_6 H 0.7582(2) 0.9822(2) 0.8155(2)
O17_6 O 0.54025(10) 0.72602(9) 0.60885(11)
C1_8 C 0.36925(13) 0.20470(13) 0.24479(14)
C2_8 C 0.31033(14) 0.14500(13) 0.00048(13)
C3_8 C 0.33926(13) 0.15474(13) 0.19392(15)
C4_8 C 0.34303(14) 0.16960(13) 0.12343(14)
H1_8 H 0.36856(14) 0.20751(13) 0.10811(14)
C5_8 C 0.30861(13) 0.12775(15) 0.07596(14)
C6_8 C 0.26990(14) 0.0713(2) 0.0992(2)
H2_8 H 0.24590(14) 0.0440(2) 0.0675(2)
C7_8 C 0.3023(2) 0.09700(14) 0.2167(2)
H3_8 H 0.3012(2) 0.08600(14) 0.2636(2)
C8_8 C 0.2672(2) 0.0559(2) 0.1693(2)
H4_8 H 0.2418(2) 0.0178(2) 0.1845(2)
O1_8 O 0.34852(10) 0.19549(10) 0.98174(9)
O6_8 O 0.38265(11) 0.33062(11) 0.95057(11)
O1_9 O 0.84852(10) 0.30451(10) 0.01826(9)
O6_9 O 0.88265(11) 0.16938(11) 0.04943(11)
O7_7 O 0.84852(10) 0.19549(10) 0.51826(9)
O8_7 O 0.86290(12) 0.19107(10) 0.19136(10)
O9_7 O 0.89737(10) 0.25913(10) 0.27794(11)
C9_7 C 0.86925(13) 0.20470(13) 0.25521(14)
C10_7 C 0.81033(14) 0.14500(13) 0.49952(13)
C11_7 C 0.83926(13) 0.15474(13) 0.30608(15)
C12_7 C 0.84303(14) 0.16960(13) 0.37657(14)
H5_7 H 0.86856(14) 0.20751(13) 0.39189(14)
C13_7 C 0.80861(13) 0.12775(15) 0.42404(14)
C14_7 C 0.76990(14) 0.0713(2) 0.4008(2)
H6_7 H 0.74590(14) 0.0440(2) 0.4325(2)
C15_7 C 0.8023(2) 0.09700(14) 0.2833(2)
H7_7 H 0.8012(2) 0.08600(14) 0.2364(2)
C16_7 C 0.7672(2) 0.0559(2) 0.3307(2)
H8_7 H 0.7418(2) 0.0178(2) 0.3155(2)
O15_7 O 0.88265(11) 0.33062(11) 0.54943(11)
O17_7 O 0.95975(10) 0.27398(9) 0.10885(11)
O19_4 O 0.86290(12) 0.30893(10) 0.69136(10)
C1_9 C 0.86925(13) 0.29530(13) 0.75521(14)
C2_9 C 0.81033(14) 0.35500(13) 0.99952(13)
C3_9 C 0.83926(13) 0.34526(13) 0.80608(15)
C4_9 C 0.84303(14) 0.33040(13) 0.87657(14)
H1_9 H 0.86856(14) 0.29249(13) 0.89189(14)
C5_9 C 0.80861(13) 0.37225(15) 0.92404(14)
C6_9 C 0.76990(14) 0.4287(2) 0.9008(2)
H2_9 H 0.74590(14) 0.4560(2) 0.9325(2)
C7_9 C 0.8023(2) 0.40300(14) 0.7833(2)
H3_9 H 0.8012(2) 0.41400(14) 0.7364(2)
C8_9 C 0.7672(2) 0.4441(2) 0.8307(2)
H4_9 H 0.7418(2) 0.4822(2) 0.8155(2)
O1_10 O 0.51826(9) 0.65148(10) 0.69549(10)
O6_10 O 0.54943(11) 0.61735(11) 0.83062(11)
C1_10 C 0.25521(14) 0.63075(13) 0.70470(13)
C2_10 C 0.49952(13) 0.68967(14) 0.64500(13)
C3_10 C 0.30608(15) 0.66074(13) 0.65474(13)
C4_10 C 0.37657(14) 0.65697(14) 0.66960(13)
H1_10 H 0.39189(14) 0.63144(14) 0.70751(13)
C5_10 C 0.42404(14) 0.69139(13) 0.62775(15)
C6_10 C 0.4008(2) 0.73010(14) 0.5713(2)
H2_10 H 0.4325(2) 0.75410(14) 0.5440(2)
C7_10 C 0.2833(2) 0.6977(2) 0.59700(14)
H3_10 H 0.2364(2) 0.6988(2) 0.58600(14)
C8_10 C 0.3307(2) 0.7328(2) 0.5559(2)
H4_10 H 0.3155(2) 0.7582(2) 0.5178(2)
C1_11 C 0.24479(14) 0.36925(13) 0.20470(13)
C2_11 C 0.00048(13) 0.31033(14) 0.14500(13)
C3_11 C 0.19392(15) 0.33926(13) 0.15474(13)
C4_11 C 0.12343(14) 0.34303(14) 0.16960(13)
H1_11 H 0.10811(14) 0.36856(14) 0.20751(13)
C5_11 C 0.07596(14) 0.30861(13) 0.12775(15)
C6_11 C 0.0992(2) 0.26990(14) 0.0713(2)
H2_11 H 0.0675(2) 0.24590(14) 0.0440(2)
C7_11 C 0.2167(2) 0.3023(2) 0.09700(14)
H3_11 H 0.2636(2) 0.3012(2) 0.08600(14)
C8_11 C 0.1693(2) 0.2672(2) 0.0559(2)
H4_11 H 0.1845(2) 0.2418(2) 0.0178(2)
O1_11 O 0.98174(9) 0.34852(10) 0.19549(10)
O6_11 O 0.95057(11) 0.38265(11) 0.33062(11)
O1_12 O 0.01826(9) 0.84852(10) 0.30451(10)
O6_12 O 0.04943(11) 0.88265(11) 0.16938(11)
C1_12 C 0.75521(14) 0.86925(13) 0.29530(13)
C2_12 C 0.99952(13) 0.81033(14) 0.35500(13)
C3_12 C 0.80608(15) 0.83926(13) 0.34526(13)
C4_12 C 0.87657(14) 0.84303(14) 0.33040(13)
H1_12 H 0.89189(14) 0.86856(14) 0.29249(13)
C5_12 C 0.92404(14) 0.80861(13) 0.37225(15)
C6_12 C 0.9008(2) 0.76990(14) 0.4287(2)
H2_12 H 0.9325(2) 0.74590(14) 0.4560(2)
C7_12 C 0.7833(2) 0.8023(2) 0.40300(14)
H3_12 H 0.7364(2) 0.8012(2) 0.41400(14)
C8_12 C 0.8307(2) 0.7672(2) 0.4441(2)
H4_12 H 0.8155(2) 0.7418(2) 0.4822(2)
Cl1 Cl 0.5638(2) 0.4837(3) 0.2146(2)
Cl1_2 Cl 0.2146(2) 0.5638(2) 0.4837(3)
Cl1_3 Cl 0.4837(3) 0.2146(2) 0.5638(2)
Cl1_4 Cl 0.9362(2) 0.5163(3) 0.7146(2)
Cl1_5 Cl 0.4362(2) 0.9837(3) 0.2854(2)
Cl1_6 Cl 0.0638(2) 0.0163(3) 0.7854(2)
Cl1_7 Cl 0.7146(2) 0.9362(2) 0.5163(3)
Cl1_8 Cl 0.2854(2) 0.4362(2) 0.9837(3)
Cl1_9 Cl 0.7854(2) 0.0638(2) 0.0163(3)
Cl1_10 Cl 0.5163(3) 0.7146(2) 0.9362(2)
Cl1_11 Cl 0.9837(3) 0.2854(2) 0.4362(2)
Cl1_12 Cl 0.0163(3) 0.7854(2) 0.0638(2)
Cl1_13 Cl 0.4362(2) 0.5163(3) 0.7854(2)
Cl1_14 Cl 0.7854(2) 0.4362(2) 0.5163(3)
Cl1_15 Cl 0.5163(3) 0.7854(2) 0.4362(2)
Cl1_16 Cl 0.0638(2) 0.4837(3) 0.2854(2)
Cl1_17 Cl 0.5638(2) 0.0163(3) 0.7146(2)
Cl1_18 Cl 0.9362(2) 0.9837(3) 0.2146(2)
Cl1_19 Cl 0.2854(2) 0.0638(2) 0.4837(3)
Cl1_20 Cl 0.7146(2) 0.5638(2) 0.0163(3)
Cl1_21 Cl 0.2146(2) 0.9362(2) 0.9837(3)
Cl1_22 Cl 0.4837(3) 0.2854(2) 0.0638(2)
Cl1_23 Cl 0.0163(3) 0.7146(2) 0.5638(2)
Cl1_24 Cl 0.9837(3) 0.2146(2) 0.9362(2)
loop_
_geom_bond_atom_site_label_1
_geom_bond_atom_site_label_2
_geom_bond_site_symmetry_1
_geom_bond_site_symmetry_2
V1 O1 1_555 1_555
O1 C2 1_555 1_555
O2 V1 1_555 1_555
O3 C1 1_555 1_555
O4 C1 1_555 1_555
O5 C2 1_555 1_555
O6 V1 1_555 1_555
C1 C3 1_555 1_555
C2 C5 1_555 1_555
C3 C4 1_555 1_555
C4 H1 1_555 1_555
C5 C4 1_555 1_555
C6 C5 1_555 1_555
H2 C6 1_555 1_555
C7 C3 1_555 1_555
H3 C7 1_555 1_555
C8 C6 1_555 1_555
H4 C8 1_555 1_555
O8 V1 1_555 1_555
O9 C9 1_555 1_555
C9 O8 1_555 1_555
C10 C13 1_555 1_555
C11 C9 1_555 1_555
C12 C11 1_555 1_555
H5 C12 1_555 1_555
C13 C12 1_555 1_555
C14 C13 1_555 1_555
H6 C14 1_555 1_555
C15 C11 1_555 1_555
H7 C15 1_555 1_555
C16 C14 1_555 1_555
H8 C16 1_555 1_555
O11 C18 1_555 1_555
O12 C17 1_555 1_555
O13 V1 1_555 1_555
O14 C18 1_555 1_555
C17 O13 1_555 1_555
C18 C21 1_555 1_555
C19 C17 1_555 1_555
C20 C19 1_555 1_555
H9 C20 1_555 1_555
C21 C20 1_555 1_555
C22 C21 1_555 1_555
H10 C22 1_555 1_555
C23 C19 1_555 1_555
H11 C23 1_555 1_555
C24 C22 1_555 1_555
H12 C24 1_555 1_555
V3 O11 1_555 1_555
O16 V3 1_555 1_555
O17 V1 1_555 1_555
V4 O2 1_555 1_555
V5 O2 1_555 1_555
V6 O3 1_555 1_555
V7 O4 1_555 1_555
V9 O14 1_555 1_555
O22 V3 1_555 1_555
O23 V3 1_555 1_555
O24 V3 1_555 1_555
O25 V3 1_555 1_555
O5 V5 1_555 1_555
C7 C8 1_555 1_555
O9 V4 1_555 1_555
C15 C16 1_555 1_555
O12 V5 1_555 1_555
C23 C24 1_555 1_555
V9 O22 1_555 1_555
V6 O7 1_555 1_555
O15 V6 1_555 1_555
V8 O10 1_555 1_555
O18 V6 1_555 1_555
O20 V6 1_555 1_555
O21 V6 1_555 1_555
V8 O18 1_555 1_555
V1_2 O1_2 1_555 1_555
O1_2 C2_2 1_555 1_555
O2_2 V1_2 1_555 1_555
O3_2 C1_2 1_555 1_555
O4_2 C1_2 1_555 1_555
O5_2 C2_2 1_555 1_555
O6_2 V1_2 1_555 1_555
C1_2 C3_2 1_555 1_555
C2_2 C5_2 1_555 1_555
C3_2 C4_2 1_555 1_555
C4_2 H1_2 1_555 1_555
C5_2 C4_2 1_555 1_555
C6_2 C5_2 1_555 1_555
H2_2 C6_2 1_555 1_555
C7_2 C3_2 1_555 1_555
H3_2 C7_2 1_555 1_555
C8_2 C6_2 1_555 1_555
H4_2 C8_2 1_555 1_555
O8_2 V1_2 1_555 1_555
O9_2 C9_2 1_555 1_555
C9_2 O8_2 1_555 1_555
C10_2 C13_2 1_555 1_555
C11_2 C9_2 1_555 1_555
C12_2 C11_2 1_555 1_555
H5_2 C12_2 1_555 1_555
C13_2 C12_2 1_555 1_555
C14_2 C13_2 1_555 1_555
H6_2 C14_2 1_555 1_555
C15_2 C11_2 1_555 1_555
H7_2 C15_2 1_555 1_555
C16_2 C14_2 1_555 1_555
H8_2 C16_2 1_555 1_555
O11_2 C18_2 1_555 1_555
O12_2 C17_2 1_555 1_555
O13_2 V1_2 1_555 1_555
O25 C18_2 1_555 1_555
C17_2 O13_2 1_555 1_555
C18_2 C21_2 1_555 1_555
C19_2 C17_2 1_555 1_555
C20_2 C19_2 1_555 1_555
H9_2 C20_2 1_555 1_555
C21_2 C20_2 1_555 1_555
C22_2 C21_2 1_555 1_555
H10_2 C22_2 1_555 1_555
C23_2 C19_2 1_555 1_555
H11_2 C23_2 1_555 1_555
C24_2 C22_2 1_555 1_555
H12_2 C24_2 1_555 1_555
V3_2 O11_2 1_555 1_555
O16_2 V3_2 1_555 1_555
O17_2 V1_2 1_555 1_555
V4_2 O2_2 1_555 1_555
V5_2 O2_2 1_555 1_555
V6_2 O3_2 1_555 1_555
V7_2 O4_2 1_555 1_555
O22 V3_2 1_555 1_555
O23_2 V3_2 1_555 1_555
O24_2 V3_2 1_555 1_555
O25_2 V3_2 1_555 1_555
O5_2 V5_2 1_555 1_555
C7_2 C8_2 1_555 1_555
O9_2 V4_2 1_555 1_555
C15_2 C16_2 1_555 1_555
O12_2 V5_2 1_555 1_555
C23_2 C24_2 1_555 1_555
V6_2 O7_2 1_555 1_555
O15_2 V6_2 1_555 1_555
V8_2 O10_2 1_555 1_555
O18_2 V6_2 1_555 1_555
O20_2 V6_2 1_555 1_555
O21_2 V6_2 1_555 1_555
V8_2 O18_2 1_555 1_555
V1_3 O1_3 1_555 1_555
O1_3 C2_3 1_555 1_555
O2_3 V1_3 1_555 1_555
O3_3 C1_3 1_555 1_555
O4_3 C1_3 1_555 1_555
O5_3 C2_3 1_555 1_555
O6_3 V1_3 1_555 1_555
C1_3 C3_3 1_555 1_555
C2_3 C5_3 1_555 1_555
C3_3 C4_3 1_555 1_555
C4_3 H1_3 1_555 1_555
C5_3 C4_3 1_555 1_555
C6_3 C5_3 1_555 1_555
H2_3 C6_3 1_555 1_555
C7_3 C3_3 1_555 1_555
H3_3 C7_3 1_555 1_555
C8_3 C6_3 1_555 1_555
H4_3 C8_3 1_555 1_555
O8_3 V1_3 1_555 1_555
O9_3 C9_3 1_555 1_555
C9_3 O8_3 1_555 1_555
C10_3 C13_3 1_555 1_555
C11_3 C9_3 1_555 1_555
C12_3 C11_3 1_555 1_555
H5_3 C12_3 1_555 1_555
C13_3 C12_3 1_555 1_555
C14_3 C13_3 1_555 1_555
H6_3 C14_3 1_555 1_555
C15_3 C11_3 1_555 1_555
H7_3 C15_3 1_555 1_555
C16_3 C14_3 1_555 1_555
H8_3 C16_3 1_555 1_555
O11_3 C18_3 1_555 1_555
O12_3 C17_3 1_555 1_555
O13_3 V1_3 1_555 1_555
O25_2 C18_3 1_555 1_555
C17_3 O13_3 1_555 1_555
C18_3 C21_3 1_555 1_555
C19_3 C17_3 1_555 1_555
C20_3 C19_3 1_555 1_555
H9_3 C20_3 1_555 1_555
C21_3 C20_3 1_555 1_555
C22_3 C21_3 1_555 1_555
H10_3 C22_3 1_555 1_555
C23_3 C19_3 1_555 1_555
H11_3 C23_3 1_555 1_555
C24_3 C22_3 1_555 1_555
H12_3 C24_3 1_555 1_555
V9 O11_3 1_555 1_555
O16_3 V9 1_555 1_555
O17_3 V1_3 1_555 1_555
V4_3 O2_3 1_555 1_555
V5_3 O2_3 1_555 1_555
V6_3 O3_3 1_555 1_555
V7_3 O4_3 1_555 1_555
O23_3 V9 1_555 1_555
O24_3 V9 1_555 1_555
O5_3 V5_3 1_555 1_555
C7_3 C8_3 1_555 1_555
O9_3 V4_3 1_555 1_555
C15_3 C16_3 1_555 1_555
O12_3 V5_3 1_555 1_555
C23_3 C24_3 1_555 1_555
V6_3 O7_3 1_555 1_555
O15_3 V6_3 1_555 1_555
V8_3 O10_3 1_555 1_555
O18_3 V6_3 1_555 1_555
O20_3 V6_3 1_555 1_555
O21_3 V6_3 1_555 1_555
V8_3 O18_3 1_555 1_555
V7_2 O11_4 1_555 1_555
O16_4 V7_2 1_555 1_555
O18_2 V7_2 1_555 1_555
O23_4 V7_2 1_555 1_555
O25_3 V7_2 1_555 1_555
V7_3 O7_4 1_555 1_555
O15_4 V7_3 1_555 1_555
O18_3 V7_3 1_555 1_555
O19 V7_3 1_555 1_555
O21_4 V7_3 1_555 1_555
V1_4 O1_4 1_555 1_555
O1_4 C2_4 1_555 1_555
O2_4 V1_4 1_555 1_555
O19 C1_4 1_555 1_555
O4_4 C1_4 1_555 1_555
O5_4 C2_4 1_555 1_555
O6_4 V1_4 1_555 1_555
C1_4 C3_4 1_555 1_555
C2_4 C5_4 1_555 1_555
C3_4 C4_4 1_555 1_555
C4_4 H1_4 1_555 1_555
C5_4 C4_4 1_555 1_555
C6_4 C5_4 1_555 1_555
H2_4 C6_4 1_555 1_555
C7_4 C3_4 1_555 1_555
H3_4 C7_4 1_555 1_555
C8_4 C6_4 1_555 1_555
H4_4 C8_4 1_555 1_555
O8_4 V1_4 1_555 1_555
O9_4 C9_4 1_555 1_555
C9_4 O8_4 1_555 1_555
C10_4 C13_4 1_555 1_555
C11_4 C9_4 1_555 1_555
C12_4 C11_4 1_555 1_555
H5_4 C12_4 1_555 1_555
C13_4 C12_4 1_555 1_555
C14_4 C13_4 1_555 1_555
H6_4 C14_4 1_555 1_555
C15_4 C11_4 1_555 1_555
H7_4 C15_4 1_555 1_555
C16_4 C14_4 1_555 1_555
H8_4 C16_4 1_555 1_555
O12_4 C17_4 1_555 1_555
O13_4 V1_4 1_555 1_555
C17_4 O13_4 1_555 1_555
C18_4 C21_4 1_555 1_555
C19_4 C17_4 1_555 1_555
C20_4 C19_4 1_555 1_555
H9_4 C20_4 1_555 1_555
C21_4 C20_4 1_555 1_555
C22_4 C21_4 1_555 1_555
H10_4 C22_4 1_555 1_555
C23_4 C19_4 1_555 1_555
H11_4 C23_4 1_555 1_555
C24_4 C22_4 1_555 1_555
H12_4 C24_4 1_555 1_555
O17_4 V1_4 1_555 1_555
V4_4 O2_4 1_555 1_555
V5_4 O2_4 1_555 1_555
V8_3 O4_4 1_555 1_555
O5_4 V5_4 1_555 1_555
C7_4 C8_4 1_555 1_555
O9_4 V4_4 1_555 1_555
C15_4 C16_4 1_555 1_555
O12_4 V5_4 1_555 1_555
C23_4 C24_4 1_555 1_555
O23_2 C1_5 1_555 1_555
O24_3 C1_5 1_555 1_555
C1_5 C3_5 1_555 1_555
C2_5 C5_5 1_555 1_555
C3_5 C4_5 1_555 1_555
C4_5 H1_5 1_555 1_555
C5_5 C4_5 1_555 1_555
C6_5 C5_5 1_555 1_555
H2_5 C6_5 1_555 1_555
C7_5 C3_5 1_555 1_555
H3_5 C7_5 1_555 1_555
C8_5 C6_5 1_555 1_555
H4_5 C8_5 1_555 1_555
C7_5 C8_5 1_555 1_555
V5_2 O1_5 1_555 1_555
O6_5 V5_2 1_555 1_555
O11_5 C18_5 1_555 1_555
O12_5 C17_5 1_555 1_555
O13_5 V5_2 1_555 1_555
O14_2 C18_5 1_555 1_555
C17_5 O13_5 1_555 1_555
C18_5 C21_5 1_555 1_555
C19_5 C17_5 1_555 1_555
C20_5 C19_5 1_555 1_555
H9_5 C20_5 1_555 1_555
C21_5 C20_5 1_555 1_555
C22_5 C21_5 1_555 1_555
H10_5 C22_5 1_555 1_555
C23_5 C19_5 1_555 1_555
H11_5 C23_5 1_555 1_555
C24_5 C22_5 1_555 1_555
H12_5 C24_5 1_555 1_555
V8 O11_5 1_555 1_555
O16_5 V8 1_555 1_555
V7 O14_2 1_555 1_555
O23_5 V8 1_555 1_555
O24_4 V8 1_555 1_555
O5_5 V4_2 1_555 1_555
O12_5 V4_2 1_555 1_555
C23_5 C24_5 1_555 1_555
V7 O18 1_555 1_555
V4_3 O1_6 1_555 1_555
O6_6 V4_3 1_555 1_555
O7_5 C10_5 1_555 1_555
O8_5 V4_3 1_555 1_555
O9_5 C9_5 1_555 1_555
O25_3 C10_5 1_555 1_555
C9_5 O8_5 1_555 1_555
C10_5 C13_5 1_555 1_555
C11_5 C9_5 1_555 1_555
C12_5 C11_5 1_555 1_555
H5_5 C12_5 1_555 1_555
C13_5 C12_5 1_555 1_555
C14_5 C13_5 1_555 1_555
H6_5 C14_5 1_555 1_555
C15_5 C11_5 1_555 1_555
H7_5 C15_5 1_555 1_555
C16_5 C14_5 1_555 1_555
H8_5 C16_5 1_555 1_555
V8_2 O7_5 1_555 1_555
O15_5 V8_2 1_555 1_555
O17_5 V4_3 1_555 1_555
O19_2 V8_2 1_555 1_555
O20_4 V8_2 1_555 1_555
O9_5 V5_3 1_555 1_555
C15_5 C16_5 1_555 1_555
O19_2 C1_6 1_555 1_555
O20_2 C1_6 1_555 1_555
C1_6 C3_6 1_555 1_555
C2_6 C5_6 1_555 1_555
C3_6 C4_6 1_555 1_555
C4_6 H1_6 1_555 1_555
C5_6 C4_6 1_555 1_555
C6_6 C5_6 1_555 1_555
H2_6 C6_6 1_555 1_555
C7_6 C3_6 1_555 1_555
H3_6 C7_6 1_555 1_555
C8_6 C6_6 1_555 1_555
H4_6 C8_6 1_555 1_555
C7_6 C8_6 1_555 1_555
V7 O7_6 1_555 1_555
O15_6 V7 1_555 1_555
O19_3 V7 1_555 1_555
V4_4 O1_7 1_555 1_555
O1_7 C2_7 1_555 1_555
O19_3 C1_7 1_555 1_555
O24_4 C1_7 1_555 1_555
O17_4 C2_7 1_555 1_555
O6_7 V4_4 1_555 1_555
C1_7 C3_7 1_555 1_555
C2_7 C5_7 1_555 1_555
C3_7 C4_7 1_555 1_555
C4_7 H1_7 1_555 1_555
C5_7 C4_7 1_555 1_555
C6_7 C5_7 1_555 1_555
H2_7 C6_7 1_555 1_555
C7_7 C3_7 1_555 1_555
H3_7 C7_7 1_555 1_555
C8_7 C6_7 1_555 1_555
H4_7 C8_7 1_555 1_555
O8_6 V4_4 1_555 1_555
O9_6 C9_6 1_555 1_555
C9_6 O8_6 1_555 1_555
C10_6 C13_6 1_555 1_555
C11_6 C9_6 1_555 1_555
C12_6 C11_6 1_555 1_555
H5_6 C12_6 1_555 1_555
C13_6 C12_6 1_555 1_555
C14_6 C13_6 1_555 1_555
H6_6 C14_6 1_555 1_555
C15_6 C11_6 1_555 1_555
H7_6 C15_6 1_555 1_555
C16_6 C14_6 1_555 1_555
H8_6 C16_6 1_555 1_555
O17_6 V4_4 1_555 1_555
C7_7 C8_7 1_555 1_555
O9_6 V5_4 1_555 1_555
C15_6 C16_6 1_555 1_555
O23_3 C1_8 1_555 1_555
O24 C1_8 1_555 1_555
C1_8 C3_8 1_555 1_555
C2_8 C5_8 1_555 1_555
C3_8 C4_8 1_555 1_555
C4_8 H1_8 1_555 1_555
C5_8 C4_8 1_555 1_555
C6_8 C5_8 1_555 1_555
H2_8 C6_8 1_555 1_555
C7_8 C3_8 1_555 1_555
H3_8 C7_8 1_555 1_555
C8_8 C6_8 1_555 1_555
H4_8 C8_8 1_555 1_555
C7_8 C8_8 1_555 1_555
V5_3 O1_8 1_555 1_555
O6_8 V5_3 1_555 1_555
V4 O1_9 1_555 1_555
O6_9 V4 1_555 1_555
O7_7 C10_7 1_555 1_555
O8_7 V4 1_555 1_555
O9_7 C9_7 1_555 1_555
O21_4 C10_7 1_555 1_555
C9_7 O8_7 1_555 1_555
C10_7 C13_7 1_555 1_555
C11_7 C9_7 1_555 1_555
C12_7 C11_7 1_555 1_555
H5_7 C12_7 1_555 1_555
C13_7 C12_7 1_555 1_555
C14_7 C13_7 1_555 1_555
H6_7 C14_7 1_555 1_555
C15_7 C11_7 1_555 1_555
H7_7 C15_7 1_555 1_555
C16_7 C14_7 1_555 1_555
H8_7 C16_7 1_555 1_555
V8_3 O7_7 1_555 1_555
O15_7 V8_3 1_555 1_555
O17_7 V4 1_555 1_555
O19_4 V8_3 1_555 1_555
O9_7 V5 1_555 1_555
C15_7 C16_7 1_555 1_555
O19_4 C1_9 1_555 1_555
O20_3 C1_9 1_555 1_555
C1_9 C3_9 1_555 1_555
C2_9 C5_9 1_555 1_555
C3_9 C4_9 1_555 1_555
C4_9 H1_9 1_555 1_555
C5_9 C4_9 1_555 1_555
C6_9 C5_9 1_555 1_555
H2_9 C6_9 1_555 1_555
C7_9 C3_9 1_555 1_555
H3_9 C7_9 1_555 1_555
C8_9 C6_9 1_555 1_555
H4_9 C8_9 1_555 1_555
C7_9 C8_9 1_555 1_555
V5_4 O1_10 1_555 1_555
O1_10 C2_10 1_555 1_555
O23_4 C1_10 1_555 1_555
O20_4 C1_10 1_555 1_555
O17_6 C2_10 1_555 1_555
O6_10 V5_4 1_555 1_555
C1_10 C3_10 1_555 1_555
C2_10 C5_10 1_555 1_555
C3_10 C4_10 1_555 1_555
C4_10 H1_10 1_555 1_555
C5_10 C4_10 1_555 1_555
C6_10 C5_10 1_555 1_555
H2_10 C6_10 1_555 1_555
C7_10 C3_10 1_555 1_555
H3_10 C7_10 1_555 1_555
C8_10 C6_10 1_555 1_555
H4_10 C8_10 1_555 1_555
C7_10 C8_10 1_555 1_555
O23 C1_11 1_555 1_555
O24_2 C1_11 1_555 1_555
C1_11 C3_11 1_555 1_555
C2_11 C5_11 1_555 1_555
C3_11 C4_11 1_555 1_555
C4_11 H1_11 1_555 1_555
C5_11 C4_11 1_555 1_555
C6_11 C5_11 1_555 1_555
H2_11 C6_11 1_555 1_555
C7_11 C3_11 1_555 1_555
H3_11 C7_11 1_555 1_555
C8_11 C6_11 1_555 1_555
H4_11 C8_11 1_555 1_555
C7_11 C8_11 1_555 1_555
V5 O1_11 1_555 1_555
O6_11 V5 1_555 1_555
V4_2 O1_12 1_555 1_555
O6_12 V4_2 1_555 1_555
O23_5 C1_12 1_555 1_555
O20 C1_12 1_555 1_555
C1_12 C3_12 1_555 1_555
C2_12 C5_12 1_555 1_555
C3_12 C4_12 1_555 1_555
C4_12 H1_12 1_555 1_555
C5_12 C4_12 1_555 1_555
C6_12 C5_12 1_555 1_555
H2_12 C6_12 1_555 1_555
C7_12 C3_12 1_555 1_555
H3_12 C7_12 1_555 1_555
C8_12 C6_12 1_555 1_555
H4_12 C8_12 1_555 1_555
C7_12 C8_12 1_555 1_555

#END
