
###############################################################################
#
# This file contains modified crystal structure data generated from the
# MOF subset of the Cambridge Structural Database (CSD) v543 
# hosted by the Cambridge Crystallographic Data Centre (CCDC).
#
# This work is licensed under the Creative Commons
# Attribution-NonCommercial-ShareAlike 4.0 International License.
# To view a copy of this license, visit
# http://creativecommons.org/licenses/by-nc-sa/4.0/
# or send a letter to
# Creative Commons, PO Box 1866, Mountain View, CA 94042, USA.
#
# CIF created using the CSD Python API on 29 September 2022
# The structure has been converted into the P1 space group
# The structure has a 3D framework
# The original CSD entry XOFGAC is in the cubic crystal system
# The framework has been calculated to contain at least 10.0% void space
# The void calculation uses a probe of radius 1.32A, grid spacing 0.4
#
###############################################################################

data_XOFGAC
_chemical_formula_moiety         '(C1248 H912 Eu84 N120 O588)n'
_symmetry_cell_setting           triclinic
_symmetry_space_group_name_H-M   'P 1'
_symmetry_Int_Tables_number      1
_space_group_name_Hall           'P 1'
loop_
_symmetry_equiv_pos_site_id
_symmetry_equiv_pos_as_xyz
1 x,y,z
_cell_length_a                   37.9826(10)
_cell_length_b                   37.9826(10)
_cell_length_c                   37.9826(10)
_cell_angle_alpha                90
_cell_angle_beta                 90
_cell_angle_gamma                90
_cell_volume                     54796.7
loop_
_atom_site_label
_atom_site_type_symbol
_atom_site_fract_x
_atom_site_fract_y
_atom_site_fract_z
C10 C 0.3536(16) -0.0000 0.0506(14)
H5 H 0.3718 0.0000 0.0344
C20 C 0.4522(15) 0.0000 0.3583(16)
H10 H 0.4613 0.0000 0.3810
C25 C 0.2434(7) 0.0000 0.2560(7)
H18 H 0.2616 0.0000 0.2396
C26 C 0.1171(17) -0.0000 0.3745(16)
H19 H 0.0989 0.0000 0.3908
Eu1 Eu 0.18600(3) -0.0000 0.31038(3)
N1 N 0.2987(12) 0.0000 0.0963(11)
N2 N 0.4091(15) -0.0000 0.3062(11)
O9 O 0.1225(6) -0.0000 0.3372(9)
O10 O 0.1582(8) -0.0000 0.3729(5)
O13 O 0.1536(10) 0.0000 0.2571(10)
H20 H 0.1590 0.0181 0.2452
C28 C 0.2506(9) 0.0880(5) 0.1838(7)
C29 C 0.2611(6) 0.0901(4) 0.1459(4)
C30 C 0.2797(6) 0.0617(3) 0.1322(4)
H21 H 0.2817 0.0410 0.1452
C31 C 0.2954(6) 0.0642(4) 0.0992(5)
C32 C 0.2924(6) 0.0951(4) 0.0799(4)
H22 H 0.3029 0.0968 0.0578
C33 C 0.2738(6) 0.1235(3) 0.0936(4)
C34 C 0.2582(6) 0.1210(3) 0.1266(5)
H23 H 0.2457 0.1400 0.1357
C35 C 0.3122(10) 0.0302(6) 0.0839(9)
C36 C 0.3412(10) 0.0328(6) 0.0616(10)
H24 H 0.3513 0.0541 0.0548
O14 O 0.2432(4) 0.1173(3) 0.2004(3)
O15 O 0.2557(6) 0.0614(4) 0.2020(5)
O16 O 0.2531(5) 0.1810(4) 0.0861(4)
O17 O 0.2998(6) 0.1639(5) 0.0562(5)
C37 C 0.2755(4) 0.1595(3) 0.0772(3)
C38 C 0.3152(7) 0.0883(5) 0.2669(10)
C39 C 0.3537(4) 0.0914(4) 0.2732(8)
C40 C 0.3726(5) 0.1225(3) 0.2697(7)
H25 H 0.3622 0.1421 0.2594
C41 C 0.4072(5) 0.1244(4) 0.2817(7)
C42 C 0.4228(4) 0.0951(5) 0.2971(8)
H26 H 0.4459 0.0963 0.3051
C43 C 0.4039(5) 0.0640(4) 0.3006(8)
C44 C 0.3693(5) 0.0621(3) 0.2886(8)
H27 H 0.3567 0.0413 0.2910
C45 C 0.4206(10) 0.0318(4) 0.3166(11)
C46 C 0.4461(10) 0.0330(7) 0.3432(10)
H28 H 0.4577 0.0534 0.3500
C47 C 0.4288(4) 0.1564(3) 0.2725(3)
O18 O 0.3004(3) 0.1163(3) 0.2599(4)
O19 O 0.3002(4) 0.0600(3) 0.2656(6)
O20 O 0.4122(3) 0.1813(3) 0.2614(4)
O21 O 0.4609(5) 0.1576(6) 0.2758(6)
O22 O 0.2293(3) 0.0285(2) 0.2687(3)
Eu4 Eu 0.31038(3) 0.18600(3) 0.0000
Eu7 Eu 0.5000 0.18962(3) 0.31400(3)
Eu9 Eu 0.411293(16) 0.24387(2) 0.25649(2)
Eu10 Eu 0.24351(2) 0.088707(16) 0.25613(2)
Eu11 Eu 0.25613(2) 0.24351(2) 0.088707(16)
O29 O 0.2242(6) 0.0391(5) 0.3424(6)
O34 O 0.1639(5) 0.0562(5) 0.2998(6)
Eu4_2 Eu 0.31038(3) 0.18600(3) 1.0000
C1 C 0.2506(9) 0.9120(5) 0.1838(7)
C2 C 0.2611(6) 0.9099(4) 0.1459(4)
C3 C 0.2797(6) 0.9383(3) 0.1322(4)
H1 H 0.2817 0.9590 0.1452
C4 C 0.2954(6) 0.9358(4) 0.0992(5)
C5 C 0.2924(6) 0.9049(4) 0.0799(4)
H2 H 0.3029 0.9032 0.0578
C6 C 0.2738(6) 0.8765(3) 0.0936(4)
C7 C 0.2582(6) 0.8790(3) 0.1266(5)
H3 H 0.2457 0.8600 0.1357
C8 C 0.3122(10) 0.9698(6) 0.0839(9)
C9 C 0.3412(10) 0.9672(6) 0.0616(10)
H4 H 0.3513 0.9459 0.0548
C10_2 C 0.3536(16) 1.0000 0.0506(14)
H5_2 H 0.3718 1.0000 0.0344
C11 C 0.3152(7) 0.9117(5) 0.2669(10)
C12 C 0.3537(4) 0.9086(4) 0.2732(8)
C13 C 0.3726(5) 0.8775(3) 0.2697(7)
H6 H 0.3622 0.8579 0.2594
C14 C 0.4072(5) 0.8756(4) 0.2817(7)
C15 C 0.4228(4) 0.9049(5) 0.2971(8)
H7 H 0.4459 0.9037 0.3051
C16 C 0.4039(5) 0.9360(4) 0.3006(8)
C17 C 0.3693(5) 0.9379(3) 0.2886(8)
H8 H 0.3567 0.9587 0.2910
C18 C 0.4206(10) 0.9682(4) 0.3166(11)
C19 C 0.4461(10) 0.9670(7) 0.3432(10)
H9 H 0.4577 0.9466 0.3500
C20_2 C 0.4522(15) 1.0000 0.3583(16)
H10_2 H 0.4613 1.0000 0.3810
C21 C 0.4288(4) 0.8436(3) 0.2725(3)
C22 C 0.2018(5) 0.8455(4) 0.2943(5)
H11 H 0.1946 0.8648 0.3075
C23 C 0.1611(5) 0.8128(5) 0.3301(4)
H12 H 0.1721 0.8055 0.3517
H13 H 0.1438 0.7957 0.3233
H14 H 0.1499 0.8352 0.3335
C24 C 0.1972(5) 0.7852(4) 0.2827(5)
H15 H 0.1780 0.7784 0.2678
H16 H 0.2030 0.7661 0.2982
H17 H 0.2173 0.7909 0.2684
C25_2 C 0.2434(7) 1.0000 0.2560(7)
H18_2 H 0.2616 1.0000 0.2396
C26_2 C 0.1171(17) 1.0000 0.3745(16)
H19_2 H 0.0989 1.0000 0.3908
Eu1_2 Eu 0.18600(3) 1.0000 0.31038(3)
Eu2 Eu 0.24351(2) 0.911293(16) 0.25613(2)
N1_2 N 0.2987(12) 1.0000 0.0963(11)
N2_2 N 0.4091(15) 1.0000 0.3062(11)
N3 N 0.1871(4) 0.8157(3) 0.3033(4)
O1 O 0.2432(4) 0.8827(3) 0.2004(3)
O2 O 0.2557(6) 0.9386(4) 0.2020(5)
O3 O 0.3004(3) 0.8837(3) 0.2599(4)
O4 O 0.3002(4) 0.9400(3) 0.2656(6)
O5 O 0.4122(3) 0.8187(3) 0.2614(4)
O6 O 0.4609(5) 0.8424(6) 0.2758(6)
O7 O 0.2531(5) 0.8190(4) 0.0861(4)
O8 O 0.2998(6) 0.8361(5) 0.0562(5)
O9_2 O 0.1225(6) 1.0000 0.3372(9)
O10_2 O 0.1582(8) 1.0000 0.3729(5)
O11 O 0.2240(3) 0.8524(3) 0.2711(3)
O12 O 0.2293(3) 0.9715(2) 0.2687(3)
O13_2 O 0.1536(10) 1.0000 0.2571(10)
C27 C 0.2755(4) 0.8405(3) 0.0772(3)
H29 H 0.1590 0.9819 0.2452
C48 C 0.3455(4) 0.7943(5) 0.2982(5)
H30 H 0.3648 0.8075 0.3054
C49 C 0.3128(5) 0.8301(4) 0.3389(5)
H31 H 0.3055 0.8517 0.3279
H32 H 0.2957 0.8233 0.3562
H33 H 0.3352 0.8335 0.3501
C50 C 0.2852(4) 0.7827(5) 0.3028(5)
H34 H 0.2784 0.7678 0.3220
H35 H 0.2661 0.7982 0.2970
H36 H 0.2909 0.7684 0.2827
Eu3 Eu 0.411293(16) 0.75613(2) 0.25649(2)
N4 N 0.3157(3) 0.8033(4) 0.3129(4)
O23 O 0.3524(3) 0.7711(3) 0.2760(3)
Eu5 Eu 0.31038(3) 0.81400(3) 0.0000
Eu6 Eu 0.5000 0.81038(3) 0.31400(3)
Eu8 Eu 0.25613(2) 0.75649(2) 0.088707(16)
O24 O 0.3827(3) 0.7004(3) 0.2568(4)
O25 O 0.4386(4) 0.7020(5) 0.2443(6)
O26 O 0.3837(3) 0.7599(4) 0.1996(3)
O27 O 0.4400(3) 0.7656(6) 0.1998(4)
O28 O 0.2386(4) 0.9122(3) 0.3187(3)
O30 O 0.2242(6) 0.9609(5) 0.3424(6)
O31 O 0.1810(4) 0.9139(4) 0.2531(5)
O32 O 0.4139(4) 0.7531(5) 0.3190(4)
O33 O 0.1639(5) 0.9438(5) 0.2998(6)
O35 O 0.4715(2) 0.7687(3) 0.2707(3)
Eu5_2 Eu 0.31038(3) 0.81400(3) 1.0000
C1_2 C 0.7494(9) 0.0880(5) 0.1838(7)
C2_2 C 0.7389(6) 0.0901(4) 0.1459(4)
C3_2 C 0.7203(6) 0.0617(3) 0.1322(4)
H1_2 H 0.7183 0.0410 0.1452
C4_2 C 0.7046(6) 0.0642(4) 0.0992(5)
C5_2 C 0.7076(6) 0.0951(4) 0.0799(4)
H2_2 H 0.6971 0.0968 0.0578
C6_2 C 0.7262(6) 0.1235(3) 0.0936(4)
C7_2 C 0.7418(6) 0.1210(3) 0.1266(5)
H3_2 H 0.7543 0.1400 0.1357
C8_2 C 0.6878(10) 0.0302(6) 0.0839(9)
C9_2 C 0.6588(10) 0.0328(6) 0.0616(10)
H4_2 H 0.6487 0.0541 0.0548
C10_3 C 0.6464(16) -0.0000 0.0506(14)
H5_3 H 0.6282 0.0000 0.0344
C11_2 C 0.6848(7) 0.0883(5) 0.2669(10)
C12_2 C 0.6463(4) 0.0914(4) 0.2732(8)
C13_2 C 0.6274(5) 0.1225(3) 0.2697(7)
H6_2 H 0.6378 0.1421 0.2594
C14_2 C 0.5928(5) 0.1244(4) 0.2817(7)
C15_2 C 0.5772(4) 0.0951(5) 0.2971(8)
H7_2 H 0.5541 0.0963 0.3051
C16_2 C 0.5961(5) 0.0640(4) 0.3006(8)
C17_2 C 0.6307(5) 0.0621(3) 0.2886(8)
H8_2 H 0.6433 0.0413 0.2910
C18_2 C 0.5794(10) 0.0318(4) 0.3166(11)
C19_2 C 0.5539(10) 0.0330(7) 0.3432(10)
H9_2 H 0.5423 0.0534 0.3500
C20_3 C 0.5478(15) 0.0000 0.3583(16)
H10_3 H 0.5387 0.0000 0.3810
C21_2 C 0.5712(4) 0.1564(3) 0.2725(3)
C22_2 C 0.7982(5) 0.1545(4) 0.2943(5)
H11_2 H 0.8054 0.1352 0.3075
C23_2 C 0.8389(5) 0.1872(5) 0.3301(4)
H12_2 H 0.8279 0.1945 0.3517
H13_2 H 0.8562 0.2043 0.3233
H14_2 H 0.8501 0.1648 0.3335
C24_2 C 0.8028(5) 0.2148(4) 0.2827(5)
H15_2 H 0.8220 0.2216 0.2678
H16_2 H 0.7970 0.2339 0.2982
H17_2 H 0.7827 0.2091 0.2684
C25_3 C 0.7566(7) 0.0000 0.2560(7)
H18_3 H 0.7384 0.0000 0.2396
C26_3 C 0.8829(17) -0.0000 0.3745(16)
H19_3 H 0.9011 0.0000 0.3908
Eu1_3 Eu 0.81400(3) -0.0000 0.31038(3)
Eu2_2 Eu 0.75649(2) 0.088707(16) 0.25613(2)
N1_3 N 0.7013(12) 0.0000 0.0963(11)
N2_3 N 0.5909(15) -0.0000 0.3062(11)
N3_2 N 0.8129(4) 0.1843(3) 0.3033(4)
O1_2 O 0.7568(4) 0.1173(3) 0.2004(3)
O2_2 O 0.7443(6) 0.0614(4) 0.2020(5)
O3_2 O 0.6996(3) 0.1163(3) 0.2599(4)
O4_2 O 0.6998(4) 0.0600(3) 0.2656(6)
O5_2 O 0.5878(3) 0.1813(3) 0.2614(4)
O6_2 O 0.5391(5) 0.1576(6) 0.2758(6)
O7_2 O 0.7469(5) 0.1810(4) 0.0861(4)
O8_2 O 0.7002(6) 0.1639(5) 0.0562(5)
O9_3 O 0.8775(6) -0.0000 0.3372(9)
O10_3 O 0.8418(8) -0.0000 0.3729(5)
O11_2 O 0.7760(3) 0.1476(3) 0.2711(3)
O12_2 O 0.7707(3) 0.0285(2) 0.2687(3)
O13_3 O 0.8464(10) 0.0000 0.2571(10)
C27_2 C 0.7245(4) 0.1595(3) 0.0772(3)
H29_2 H 0.8410 0.0181 0.2452
C48_2 C 0.6545(4) 0.2057(5) 0.2982(5)
H30_2 H 0.6352 0.1925 0.3054
C49_2 C 0.6872(5) 0.1699(4) 0.3389(5)
H31_2 H 0.6945 0.1483 0.3279
H32_2 H 0.7043 0.1767 0.3562
H33_2 H 0.6648 0.1665 0.3501
C50_2 C 0.7148(4) 0.2173(5) 0.3028(5)
H34_2 H 0.7216 0.2322 0.3220
H35_2 H 0.7339 0.2018 0.2970
H36_2 H 0.7091 0.2316 0.2827
Eu3_2 Eu 0.588707(16) 0.24387(2) 0.25649(2)
N4_2 N 0.6843(3) 0.1967(4) 0.3129(4)
O23_2 O 0.6476(3) 0.2289(3) 0.2760(3)
Eu5_3 Eu 0.68962(3) 0.18600(3) 0.0000
Eu8_2 Eu 0.74387(2) 0.24351(2) 0.088707(16)
O24_2 O 0.6173(3) 0.2996(3) 0.2568(4)
O25_2 O 0.5614(4) 0.2980(5) 0.2443(6)
O26_2 O 0.6163(3) 0.2401(4) 0.1996(3)
O27_2 O 0.5600(3) 0.2344(6) 0.1998(4)
O28_2 O 0.7614(4) 0.0878(3) 0.3187(3)
O30_2 O 0.7758(6) 0.0391(5) 0.3424(6)
O31_2 O 0.8190(4) 0.0861(4) 0.2531(5)
O32_2 O 0.5861(4) 0.2469(5) 0.3190(4)
O33_2 O 0.8361(5) 0.0562(5) 0.2998(6)
O35_2 O 0.5285(2) 0.2313(3) 0.2707(3)
Eu5_4 Eu 0.68962(3) 0.18600(3) 1.0000
C10_4 C 0.6464(16) 1.0000 0.0506(14)
H5_4 H 0.6282 1.0000 0.0344
C20_4 C 0.5478(15) 1.0000 0.3583(16)
H10_4 H 0.5387 1.0000 0.3810
C25_4 C 0.7566(7) 1.0000 0.2560(7)
H18_4 H 0.7384 1.0000 0.2396
C26_4 C 0.8829(17) 1.0000 0.3745(16)
H19_4 H 0.9011 1.0000 0.3908
Eu1_4 Eu 0.81400(3) 1.0000 0.31038(3)
N1_4 N 0.7013(12) 1.0000 0.0963(11)
N2_4 N 0.5909(15) 1.0000 0.3062(11)
O9_4 O 0.8775(6) 1.0000 0.3372(9)
O10_4 O 0.8418(8) 1.0000 0.3729(5)
O13_4 O 0.8464(10) 1.0000 0.2571(10)
H20_2 H 0.8410 0.9819 0.2452
C28_2 C 0.7494(9) 0.9120(5) 0.1838(7)
C29_2 C 0.7389(6) 0.9099(4) 0.1459(4)
C30_2 C 0.7203(6) 0.9383(3) 0.1322(4)
H21_2 H 0.7183 0.9590 0.1452
C31_2 C 0.7046(6) 0.9358(4) 0.0992(5)
C32_2 C 0.7076(6) 0.9049(4) 0.0799(4)
H22_2 H 0.6971 0.9032 0.0578
C33_2 C 0.7262(6) 0.8765(3) 0.0936(4)
C34_2 C 0.7418(6) 0.8790(3) 0.1266(5)
H23_2 H 0.7543 0.8600 0.1357
C35_2 C 0.6878(10) 0.9698(6) 0.0839(9)
C36_2 C 0.6588(10) 0.9672(6) 0.0616(10)
H24_2 H 0.6487 0.9459 0.0548
O14_2 O 0.7568(4) 0.8827(3) 0.2004(3)
O15_2 O 0.7443(6) 0.9386(4) 0.2020(5)
O16_2 O 0.7469(5) 0.8190(4) 0.0861(4)
O17_2 O 0.7002(6) 0.8361(5) 0.0562(5)
C37_2 C 0.7245(4) 0.8405(3) 0.0772(3)
C38_2 C 0.6848(7) 0.9117(5) 0.2669(10)
C39_2 C 0.6463(4) 0.9086(4) 0.2732(8)
C40_2 C 0.6274(5) 0.8775(3) 0.2697(7)
H25_2 H 0.6378 0.8579 0.2594
C41_2 C 0.5928(5) 0.8756(4) 0.2817(7)
C42_2 C 0.5772(4) 0.9049(5) 0.2971(8)
H26_2 H 0.5541 0.9037 0.3051
C43_2 C 0.5961(5) 0.9360(4) 0.3006(8)
C44_2 C 0.6307(5) 0.9379(3) 0.2886(8)
H27_2 H 0.6433 0.9587 0.2910
C45_2 C 0.5794(10) 0.9682(4) 0.3166(11)
C46_2 C 0.5539(10) 0.9670(7) 0.3432(10)
H28_2 H 0.5423 0.9466 0.3500
C47_2 C 0.5712(4) 0.8436(3) 0.2725(3)
O18_2 O 0.6996(3) 0.8837(3) 0.2599(4)
O19_2 O 0.6998(4) 0.9400(3) 0.2656(6)
O20_2 O 0.5878(3) 0.8187(3) 0.2614(4)
O21_2 O 0.5391(5) 0.8424(6) 0.2758(6)
O22_2 O 0.7707(3) 0.9715(2) 0.2687(3)
Eu4_3 Eu 0.68962(3) 0.81400(3) 0.0000
Eu9_2 Eu 0.588707(16) 0.75613(2) 0.25649(2)
Eu10_2 Eu 0.75649(2) 0.911293(16) 0.25613(2)
Eu11_2 Eu 0.74387(2) 0.75649(2) 0.088707(16)
O29_2 O 0.7758(6) 0.9609(5) 0.3424(6)
O34_2 O 0.8361(5) 0.9438(5) 0.2998(6)
Eu4_4 Eu 0.68962(3) 0.81400(3) 1.0000
C10_5 C 0.6464(16) 0.0000 0.9494(14)
H5_5 H 0.6282 0.0000 0.9656
C20_5 C 0.5478(15) -0.0000 0.6417(16)
H10_5 H 0.5387 0.0000 0.6190
C25_5 C 0.7566(7) 0.0000 0.7440(7)
H18_5 H 0.7384 0.0000 0.7604
C26_5 C 0.8829(17) 0.0000 0.6255(16)
H19_5 H 0.9011 -0.0000 0.6092
Eu1_5 Eu 0.81400(3) 0.0000 0.68962(3)
N1_5 N 0.7013(12) 0.0000 0.9037(11)
N2_5 N 0.5909(15) 0.0000 0.6938(11)
O9_5 O 0.8775(6) 0.0000 0.6628(9)
O10_5 O 0.8418(8) -0.0000 0.6271(5)
O13_5 O 0.8464(10) -0.0000 0.7429(10)
H20_3 H 0.8410 0.0181 0.7548
C28_3 C 0.7494(9) 0.0880(5) 0.8162(7)
C29_3 C 0.7389(6) 0.0901(4) 0.8541(4)
C30_3 C 0.7203(6) 0.0617(3) 0.8678(4)
H21_3 H 0.7183 0.0410 0.8548
C31_3 C 0.7046(6) 0.0642(4) 0.9008(5)
C32_3 C 0.7076(6) 0.0951(4) 0.9201(4)
H22_3 H 0.6971 0.0968 0.9422
C33_3 C 0.7262(6) 0.1235(3) 0.9064(4)
C34_3 C 0.7418(6) 0.1210(3) 0.8734(5)
H23_3 H 0.7543 0.1400 0.8643
C35_3 C 0.6878(10) 0.0302(6) 0.9161(9)
C36_3 C 0.6588(10) 0.0328(6) 0.9384(10)
H24_3 H 0.6487 0.0541 0.9452
O14_3 O 0.7568(4) 0.1173(3) 0.7996(3)
O15_3 O 0.7443(6) 0.0614(4) 0.7980(5)
O16_3 O 0.7469(5) 0.1810(4) 0.9139(4)
O17_3 O 0.7002(6) 0.1639(5) 0.9438(5)
C37_3 C 0.7245(4) 0.1595(3) 0.9228(3)
C38_3 C 0.6848(7) 0.0883(5) 0.7331(10)
C39_3 C 0.6463(4) 0.0914(4) 0.7268(8)
C40_3 C 0.6274(5) 0.1225(3) 0.7303(7)
H25_3 H 0.6378 0.1421 0.7406
C41_3 C 0.5928(5) 0.1244(4) 0.7183(7)
C42_3 C 0.5772(4) 0.0951(5) 0.7029(8)
H26_3 H 0.5541 0.0963 0.6949
C43_3 C 0.5961(5) 0.0640(4) 0.6994(8)
C44_3 C 0.6307(5) 0.0621(3) 0.7114(8)
H27_3 H 0.6433 0.0413 0.7090
C45_3 C 0.5794(10) 0.0318(4) 0.6834(11)
C46_3 C 0.5539(10) 0.0330(7) 0.6568(10)
H28_3 H 0.5423 0.0534 0.6500
C47_3 C 0.5712(4) 0.1564(3) 0.7275(3)
O18_3 O 0.6996(3) 0.1163(3) 0.7401(4)
O19_3 O 0.6998(4) 0.0600(3) 0.7344(6)
O20_3 O 0.5878(3) 0.1813(3) 0.7386(4)
O21_3 O 0.5391(5) 0.1576(6) 0.7242(6)
O22_3 O 0.7707(3) 0.0285(2) 0.7313(3)
Eu7_2 Eu 0.5000 0.18962(3) 0.68600(3)
Eu9_3 Eu 0.588707(16) 0.24387(2) 0.74351(2)
Eu10_3 Eu 0.75649(2) 0.088707(16) 0.74387(2)
Eu11_3 Eu 0.74387(2) 0.24351(2) 0.911293(16)
O29_3 O 0.7758(6) 0.0391(5) 0.6576(6)
O34_3 O 0.8361(5) 0.0562(5) 0.7002(6)
C1_3 C 0.7494(9) 0.9120(5) 0.8162(7)
C2_3 C 0.7389(6) 0.9099(4) 0.8541(4)
C3_3 C 0.7203(6) 0.9383(3) 0.8678(4)
H1_3 H 0.7183 0.9590 0.8548
C4_3 C 0.7046(6) 0.9358(4) 0.9008(5)
C5_3 C 0.7076(6) 0.9049(4) 0.9201(4)
H2_3 H 0.6971 0.9032 0.9422
C6_3 C 0.7262(6) 0.8765(3) 0.9064(4)
C7_3 C 0.7418(6) 0.8790(3) 0.8734(5)
H3_3 H 0.7543 0.8600 0.8643
C8_3 C 0.6878(10) 0.9698(6) 0.9161(9)
C9_3 C 0.6588(10) 0.9672(6) 0.9384(10)
H4_3 H 0.6487 0.9459 0.9452
C10_6 C 0.6464(16) 1.0000 0.9494(14)
H5_6 H 0.6282 1.0000 0.9656
C11_3 C 0.6848(7) 0.9117(5) 0.7331(10)
C12_3 C 0.6463(4) 0.9086(4) 0.7268(8)
C13_3 C 0.6274(5) 0.8775(3) 0.7303(7)
H6_3 H 0.6378 0.8579 0.7406
C14_3 C 0.5928(5) 0.8756(4) 0.7183(7)
C15_3 C 0.5772(4) 0.9049(5) 0.7029(8)
H7_3 H 0.5541 0.9037 0.6949
C16_3 C 0.5961(5) 0.9360(4) 0.6994(8)
C17_3 C 0.6307(5) 0.9379(3) 0.7114(8)
H8_3 H 0.6433 0.9587 0.7090
C18_3 C 0.5794(10) 0.9682(4) 0.6834(11)
C19_3 C 0.5539(10) 0.9670(7) 0.6568(10)
H9_3 H 0.5423 0.9466 0.6500
C20_6 C 0.5478(15) 1.0000 0.6417(16)
H10_6 H 0.5387 1.0000 0.6190
C21_3 C 0.5712(4) 0.8436(3) 0.7275(3)
C22_3 C 0.7982(5) 0.8455(4) 0.7057(5)
H11_3 H 0.8054 0.8648 0.6925
C23_3 C 0.8389(5) 0.8128(5) 0.6699(4)
H12_3 H 0.8279 0.8055 0.6483
H13_3 H 0.8562 0.7957 0.6767
H14_3 H 0.8501 0.8352 0.6665
C24_3 C 0.8028(5) 0.7852(4) 0.7173(5)
H15_3 H 0.8220 0.7784 0.7322
H16_3 H 0.7970 0.7661 0.7018
H17_3 H 0.7827 0.7909 0.7316
C25_6 C 0.7566(7) 1.0000 0.7440(7)
H18_6 H 0.7384 1.0000 0.7604
C26_6 C 0.8829(17) 1.0000 0.6255(16)
H19_6 H 0.9011 1.0000 0.6092
Eu1_6 Eu 0.81400(3) 1.0000 0.68962(3)
Eu2_3 Eu 0.75649(2) 0.911293(16) 0.74387(2)
N1_6 N 0.7013(12) 1.0000 0.9037(11)
N2_6 N 0.5909(15) 1.0000 0.6938(11)
N3_3 N 0.8129(4) 0.8157(3) 0.6967(4)
O1_3 O 0.7568(4) 0.8827(3) 0.7996(3)
O2_3 O 0.7443(6) 0.9386(4) 0.7980(5)
O3_3 O 0.6996(3) 0.8837(3) 0.7401(4)
O4_3 O 0.6998(4) 0.9400(3) 0.7344(6)
O5_3 O 0.5878(3) 0.8187(3) 0.7386(4)
O6_3 O 0.5391(5) 0.8424(6) 0.7242(6)
O7_3 O 0.7469(5) 0.8190(4) 0.9139(4)
O8_3 O 0.7002(6) 0.8361(5) 0.9438(5)
O9_6 O 0.8775(6) 1.0000 0.6628(9)
O10_6 O 0.8418(8) 1.0000 0.6271(5)
O11_3 O 0.7760(3) 0.8524(3) 0.7289(3)
O12_3 O 0.7707(3) 0.9715(2) 0.7313(3)
O13_6 O 0.8464(10) 1.0000 0.7429(10)
C27_3 C 0.7245(4) 0.8405(3) 0.9228(3)
H29_3 H 0.8410 0.9819 0.7548
C48_3 C 0.6545(4) 0.7943(5) 0.7018(5)
H30_3 H 0.6352 0.8075 0.6946
C49_3 C 0.6872(5) 0.8301(4) 0.6611(5)
H31_3 H 0.6945 0.8517 0.6721
H32_3 H 0.7043 0.8233 0.6438
H33_3 H 0.6648 0.8335 0.6499
C50_3 C 0.7148(4) 0.7827(5) 0.6972(5)
H34_3 H 0.7216 0.7678 0.6780
H35_3 H 0.7339 0.7982 0.7030
H36_3 H 0.7091 0.7684 0.7173
Eu3_3 Eu 0.588707(16) 0.75613(2) 0.74351(2)
N4_3 N 0.6843(3) 0.8033(4) 0.6871(4)
O23_3 O 0.6476(3) 0.7711(3) 0.7240(3)
Eu6_2 Eu 0.5000 0.81038(3) 0.68600(3)
Eu8_3 Eu 0.74387(2) 0.75649(2) 0.911293(16)
O24_3 O 0.6173(3) 0.7004(3) 0.7432(4)
O25_3 O 0.5614(4) 0.7020(5) 0.7557(6)
O26_3 O 0.6163(3) 0.7599(4) 0.8004(3)
O27_3 O 0.5600(3) 0.7656(6) 0.8002(4)
O28_3 O 0.7614(4) 0.9122(3) 0.6813(3)
O30_3 O 0.7758(6) 0.9609(5) 0.6576(6)
O31_3 O 0.8190(4) 0.9139(4) 0.7469(5)
O32_3 O 0.5861(4) 0.7531(5) 0.6810(4)
O33_3 O 0.8361(5) 0.9438(5) 0.7002(6)
O35_3 O 0.5285(2) 0.7687(3) 0.7293(3)
C1_4 C 0.2506(9) 0.0880(5) 0.8162(7)
C2_4 C 0.2611(6) 0.0901(4) 0.8541(4)
C3_4 C 0.2797(6) 0.0617(3) 0.8678(4)
H1_4 H 0.2817 0.0410 0.8548
C4_4 C 0.2954(6) 0.0642(4) 0.9008(5)
C5_4 C 0.2924(6) 0.0951(4) 0.9201(4)
H2_4 H 0.3029 0.0968 0.9422
C6_4 C 0.2738(6) 0.1235(3) 0.9064(4)
C7_4 C 0.2582(6) 0.1210(3) 0.8734(5)
H3_4 H 0.2457 0.1400 0.8643
C8_4 C 0.3122(10) 0.0302(6) 0.9161(9)
C9_4 C 0.3412(10) 0.0328(6) 0.9384(10)
H4_4 H 0.3513 0.0541 0.9452
C10_7 C 0.3536(16) 0.0000 0.9494(14)
H5_7 H 0.3718 0.0000 0.9656
C11_4 C 0.3152(7) 0.0883(5) 0.7331(10)
C12_4 C 0.3537(4) 0.0914(4) 0.7268(8)
C13_4 C 0.3726(5) 0.1225(3) 0.7303(7)
H6_4 H 0.3622 0.1421 0.7406
C14_4 C 0.4072(5) 0.1244(4) 0.7183(7)
C15_4 C 0.4228(4) 0.0951(5) 0.7029(8)
H7_4 H 0.4459 0.0963 0.6949
C16_4 C 0.4039(5) 0.0640(4) 0.6994(8)
C17_4 C 0.3693(5) 0.0621(3) 0.7114(8)
H8_4 H 0.3567 0.0413 0.7090
C18_4 C 0.4206(10) 0.0318(4) 0.6834(11)
C19_4 C 0.4461(10) 0.0330(7) 0.6568(10)
H9_4 H 0.4577 0.0534 0.6500
C20_7 C 0.4522(15) -0.0000 0.6417(16)
H10_7 H 0.4613 0.0000 0.6190
C21_4 C 0.4288(4) 0.1564(3) 0.7275(3)
C22_4 C 0.2018(5) 0.1545(4) 0.7057(5)
H11_4 H 0.1946 0.1352 0.6925
C23_4 C 0.1611(5) 0.1872(5) 0.6699(4)
H12_4 H 0.1721 0.1945 0.6483
H13_4 H 0.1438 0.2043 0.6767
H14_4 H 0.1499 0.1648 0.6665
C24_4 C 0.1972(5) 0.2148(4) 0.7173(5)
H15_4 H 0.1780 0.2216 0.7322
H16_4 H 0.2030 0.2339 0.7018
H17_4 H 0.2173 0.2091 0.7316
C25_7 C 0.2434(7) 0.0000 0.7440(7)
H18_7 H 0.2616 0.0000 0.7604
C26_7 C 0.1171(17) 0.0000 0.6255(16)
H19_7 H 0.0989 -0.0000 0.6092
Eu1_7 Eu 0.18600(3) 0.0000 0.68962(3)
Eu2_4 Eu 0.24351(2) 0.088707(16) 0.74387(2)
N1_7 N 0.2987(12) 0.0000 0.9037(11)
N2_7 N 0.4091(15) 0.0000 0.6938(11)
N3_4 N 0.1871(4) 0.1843(3) 0.6967(4)
O1_4 O 0.2432(4) 0.1173(3) 0.7996(3)
O2_4 O 0.2557(6) 0.0614(4) 0.7980(5)
O3_4 O 0.3004(3) 0.1163(3) 0.7401(4)
O4_4 O 0.3002(4) 0.0600(3) 0.7344(6)
O5_4 O 0.4122(3) 0.1813(3) 0.7386(4)
O6_4 O 0.4609(5) 0.1576(6) 0.7242(6)
O7_4 O 0.2531(5) 0.1810(4) 0.9139(4)
O8_4 O 0.2998(6) 0.1639(5) 0.9438(5)
O9_7 O 0.1225(6) 0.0000 0.6628(9)
O10_7 O 0.1582(8) -0.0000 0.6271(5)
O11_4 O 0.2240(3) 0.1476(3) 0.7289(3)
O12_4 O 0.2293(3) 0.0285(2) 0.7313(3)
O13_7 O 0.1536(10) -0.0000 0.7429(10)
C27_4 C 0.2755(4) 0.1595(3) 0.9228(3)
H29_4 H 0.1590 0.0181 0.7548
C48_4 C 0.3455(4) 0.2057(5) 0.7018(5)
H30_4 H 0.3648 0.1925 0.6946
C49_4 C 0.3128(5) 0.1699(4) 0.6611(5)
H31_4 H 0.3055 0.1483 0.6721
H32_4 H 0.2957 0.1767 0.6438
H33_4 H 0.3352 0.1665 0.6499
C50_4 C 0.2852(4) 0.2173(5) 0.6972(5)
H34_4 H 0.2784 0.2322 0.6780
H35_4 H 0.2661 0.2018 0.7030
H36_4 H 0.2909 0.2316 0.7173
Eu3_4 Eu 0.411293(16) 0.24387(2) 0.74351(2)
N4_4 N 0.3157(3) 0.1967(4) 0.6871(4)
O23_4 O 0.3524(3) 0.2289(3) 0.7240(3)
Eu8_4 Eu 0.25613(2) 0.24351(2) 0.911293(16)
O24_4 O 0.3827(3) 0.2996(3) 0.7432(4)
O25_4 O 0.4386(4) 0.2980(5) 0.7557(6)
O26_4 O 0.3837(3) 0.2401(4) 0.8004(3)
O27_4 O 0.4400(3) 0.2344(6) 0.8002(4)
O28_4 O 0.2386(4) 0.0878(3) 0.6813(3)
O30_4 O 0.2242(6) 0.0391(5) 0.6576(6)
O31_4 O 0.1810(4) 0.0861(4) 0.7469(5)
O32_4 O 0.4139(4) 0.2469(5) 0.6810(4)
O33_4 O 0.1639(5) 0.0562(5) 0.7002(6)
O35_4 O 0.4715(2) 0.2313(3) 0.7293(3)
C10_8 C 0.3536(16) 1.0000 0.9494(14)
H5_8 H 0.3718 1.0000 0.9656
C20_8 C 0.4522(15) 1.0000 0.6417(16)
H10_8 H 0.4613 1.0000 0.6190
C25_8 C 0.2434(7) 1.0000 0.7440(7)
H18_8 H 0.2616 1.0000 0.7604
C26_8 C 0.1171(17) 1.0000 0.6255(16)
H19_8 H 0.0989 1.0000 0.6092
Eu1_8 Eu 0.18600(3) 1.0000 0.68962(3)
N1_8 N 0.2987(12) 1.0000 0.9037(11)
N2_8 N 0.4091(15) 1.0000 0.6938(11)
O9_8 O 0.1225(6) 1.0000 0.6628(9)
O10_8 O 0.1582(8) 1.0000 0.6271(5)
O13_8 O 0.1536(10) 1.0000 0.7429(10)
H20_4 H 0.1590 0.9819 0.7548
C28_4 C 0.2506(9) 0.9120(5) 0.8162(7)
C29_4 C 0.2611(6) 0.9099(4) 0.8541(4)
C30_4 C 0.2797(6) 0.9383(3) 0.8678(4)
H21_4 H 0.2817 0.9590 0.8548
C31_4 C 0.2954(6) 0.9358(4) 0.9008(5)
C32_4 C 0.2924(6) 0.9049(4) 0.9201(4)
H22_4 H 0.3029 0.9032 0.9422
C33_4 C 0.2738(6) 0.8765(3) 0.9064(4)
C34_4 C 0.2582(6) 0.8790(3) 0.8734(5)
H23_4 H 0.2457 0.8600 0.8643
C35_4 C 0.3122(10) 0.9698(6) 0.9161(9)
C36_4 C 0.3412(10) 0.9672(6) 0.9384(10)
H24_4 H 0.3513 0.9459 0.9452
O14_4 O 0.2432(4) 0.8827(3) 0.7996(3)
O15_4 O 0.2557(6) 0.9386(4) 0.7980(5)
O16_4 O 0.2531(5) 0.8190(4) 0.9139(4)
O17_4 O 0.2998(6) 0.8361(5) 0.9438(5)
C37_4 C 0.2755(4) 0.8405(3) 0.9228(3)
C38_4 C 0.3152(7) 0.9117(5) 0.7331(10)
C39_4 C 0.3537(4) 0.9086(4) 0.7268(8)
C40_4 C 0.3726(5) 0.8775(3) 0.7303(7)
H25_4 H 0.3622 0.8579 0.7406
C41_4 C 0.4072(5) 0.8756(4) 0.7183(7)
C42_4 C 0.4228(4) 0.9049(5) 0.7029(8)
H26_4 H 0.4459 0.9037 0.6949
C43_4 C 0.4039(5) 0.9360(4) 0.6994(8)
C44_4 C 0.3693(5) 0.9379(3) 0.7114(8)
H27_4 H 0.3567 0.9587 0.7090
C45_4 C 0.4206(10) 0.9682(4) 0.6834(11)
C46_4 C 0.4461(10) 0.9670(7) 0.6568(10)
H28_4 H 0.4577 0.9466 0.6500
C47_4 C 0.4288(4) 0.8436(3) 0.7275(3)
O18_4 O 0.3004(3) 0.8837(3) 0.7401(4)
O19_4 O 0.3002(4) 0.9400(3) 0.7344(6)
O20_4 O 0.4122(3) 0.8187(3) 0.7386(4)
O21_4 O 0.4609(5) 0.8424(6) 0.7242(6)
O22_4 O 0.2293(3) 0.9715(2) 0.7313(3)
Eu9_4 Eu 0.411293(16) 0.75613(2) 0.74351(2)
Eu10_4 Eu 0.24351(2) 0.911293(16) 0.74387(2)
Eu11_4 Eu 0.25613(2) 0.75649(2) 0.911293(16)
O29_4 O 0.2242(6) 0.9609(5) 0.6576(6)
O34_4 O 0.1639(5) 0.9438(5) 0.7002(6)
C10_9 C 0.0506(14) 0.3536(16) 0.0000
H5_9 H 0.0344 0.3718 0.0000
C20_9 C 0.3583(16) 0.4522(15) 0.0000
H10_9 H 0.3810 0.4613 0.0000
C25_9 C 0.2560(7) 0.2434(7) 0.0000
H18_9 H 0.2396 0.2616 0.0000
C26_9 C 0.3745(16) 0.1171(17) 0.0000
H19_9 H 0.3908 0.0989 0.0000
N1_9 N 0.0963(11) 0.2987(12) 0.0000
N2_9 N 0.3062(11) 0.4091(15) 0.0000
O9_9 O 0.3372(9) 0.1225(6) 0.0000
O10_9 O 0.3729(5) 0.1582(8) 0.0000
O13_9 O 0.2571(10) 0.1536(10) 0.0000
H20_5 H 0.2452 0.1590 0.0181
C28_5 C 0.1838(7) 0.2506(9) 0.0880(5)
C29_5 C 0.1459(4) 0.2611(6) 0.0901(4)
C30_5 C 0.1322(4) 0.2797(6) 0.0617(3)
H21_5 H 0.1452 0.2817 0.0410
C31_5 C 0.0992(5) 0.2954(6) 0.0642(4)
C32_5 C 0.0799(4) 0.2924(6) 0.0951(4)
H22_5 H 0.0578 0.3029 0.0968
C33_5 C 0.0936(4) 0.2738(6) 0.1235(3)
C34_5 C 0.1266(5) 0.2582(6) 0.1210(3)
H23_5 H 0.1357 0.2457 0.1400
C35_5 C 0.0839(9) 0.3122(10) 0.0302(6)
C36_5 C 0.0616(10) 0.3412(10) 0.0328(6)
H24_5 H 0.0548 0.3513 0.0541
O14_5 O 0.2004(3) 0.2432(4) 0.1173(3)
O15_5 O 0.2020(5) 0.2557(6) 0.0614(4)
O16_5 O 0.0861(4) 0.2531(5) 0.1810(4)
O17_5 O 0.0562(5) 0.2998(6) 0.1639(5)
C37_5 C 0.0772(3) 0.2755(4) 0.1595(3)
C38_5 C 0.2669(10) 0.3152(7) 0.0883(5)
C39_5 C 0.2732(8) 0.3537(4) 0.0914(4)
C40_5 C 0.2697(7) 0.3726(5) 0.1225(3)
H25_5 H 0.2594 0.3622 0.1421
C41_5 C 0.2817(7) 0.4072(5) 0.1244(4)
C42_5 C 0.2971(8) 0.4228(4) 0.0951(5)
H26_5 H 0.3051 0.4459 0.0963
C43_5 C 0.3006(8) 0.4039(5) 0.0640(4)
C44_5 C 0.2886(8) 0.3693(5) 0.0621(3)
H27_5 H 0.2910 0.3567 0.0413
C45_5 C 0.3166(11) 0.4206(10) 0.0318(4)
C46_5 C 0.3432(10) 0.4461(10) 0.0330(7)
H28_5 H 0.3500 0.4577 0.0534
C47_5 C 0.2725(3) 0.4288(4) 0.1564(3)
O18_5 O 0.2599(4) 0.3004(3) 0.1163(3)
O19_5 O 0.2656(6) 0.3002(4) 0.0600(3)
O20_5 O 0.2614(4) 0.4122(3) 0.1813(3)
O21_5 O 0.2758(6) 0.4609(5) 0.1576(6)
O22_5 O 0.2687(3) 0.2293(3) 0.0285(2)
Eu4_5 Eu 0.0000 0.31038(3) 0.18600(3)
Eu7_3 Eu 0.31400(3) 0.5000 0.18962(3)
Eu9_5 Eu 0.25649(2) 0.411293(16) 0.24387(2)
Eu11_5 Eu 0.088707(16) 0.25613(2) 0.24351(2)
O29_5 O 0.3424(6) 0.2242(6) 0.0391(5)
C1_5 C 0.1838(7) 0.2506(9) 0.9120(5)
C2_5 C 0.1459(4) 0.2611(6) 0.9099(4)
C3_5 C 0.1322(4) 0.2797(6) 0.9383(3)
H1_5 H 0.1452 0.2817 0.9590
C4_5 C 0.0992(5) 0.2954(6) 0.9358(4)
C5_5 C 0.0799(4) 0.2924(6) 0.9049(4)
H2_5 H 0.0578 0.3029 0.9032
C6_5 C 0.0936(4) 0.2738(6) 0.8765(3)
C7_5 C 0.1266(5) 0.2582(6) 0.8790(3)
H3_5 H 0.1357 0.2457 0.8600
C8_5 C 0.0839(9) 0.3122(10) 0.9698(6)
C9_5 C 0.0616(10) 0.3412(10) 0.9672(6)
H4_5 H 0.0548 0.3513 0.9459
C10_10 C 0.0506(14) 0.3536(16) 1.0000
H5_10 H 0.0344 0.3718 1.0000
C11_5 C 0.2669(10) 0.3152(7) 0.9117(5)
C12_5 C 0.2732(8) 0.3537(4) 0.9086(4)
C13_5 C 0.2697(7) 0.3726(5) 0.8775(3)
H6_5 H 0.2594 0.3622 0.8579
C14_5 C 0.2817(7) 0.4072(5) 0.8756(4)
C15_5 C 0.2971(8) 0.4228(4) 0.9049(5)
H7_5 H 0.3051 0.4459 0.9037
C16_5 C 0.3006(8) 0.4039(5) 0.9360(4)
C17_5 C 0.2886(8) 0.3693(5) 0.9379(3)
H8_5 H 0.2910 0.3567 0.9587
C18_5 C 0.3166(11) 0.4206(10) 0.9682(4)
C19_5 C 0.3432(10) 0.4461(10) 0.9670(7)
H9_5 H 0.3500 0.4577 0.9466
C20_10 C 0.3583(16) 0.4522(15) 1.0000
H10_10 H 0.3810 0.4613 1.0000
C21_5 C 0.2725(3) 0.4288(4) 0.8436(3)
C22_5 C 0.2943(5) 0.2018(5) 0.8455(4)
H11_5 H 0.3075 0.1946 0.8648
C23_5 C 0.3301(4) 0.1611(5) 0.8128(5)
H12_5 H 0.3517 0.1721 0.8055
H13_5 H 0.3233 0.1438 0.7957
H14_5 H 0.3335 0.1499 0.8352
C24_5 C 0.2827(5) 0.1972(5) 0.7852(4)
H15_5 H 0.2678 0.1780 0.7784
H16_5 H 0.2982 0.2030 0.7661
H17_5 H 0.2684 0.2173 0.7909
C25_10 C 0.2560(7) 0.2434(7) 1.0000
H18_10 H 0.2396 0.2616 1.0000
C26_10 C 0.3745(16) 0.1171(17) 1.0000
H19_10 H 0.3908 0.0989 1.0000
N1_10 N 0.0963(11) 0.2987(12) 1.0000
N2_10 N 0.3062(11) 0.4091(15) 1.0000
N3_5 N 0.3033(4) 0.1871(4) 0.8157(3)
O1_5 O 0.2004(3) 0.2432(4) 0.8827(3)
O2_5 O 0.2020(5) 0.2557(6) 0.9386(4)
O3_5 O 0.2599(4) 0.3004(3) 0.8837(3)
O4_5 O 0.2656(6) 0.3002(4) 0.9400(3)
O5_5 O 0.2614(4) 0.4122(3) 0.8187(3)
O6_5 O 0.2758(6) 0.4609(5) 0.8424(6)
O7_5 O 0.0861(4) 0.2531(5) 0.8190(4)
O8_5 O 0.0562(5) 0.2998(6) 0.8361(5)
O9_10 O 0.3372(9) 0.1225(6) 1.0000
O10_10 O 0.3729(5) 0.1582(8) 1.0000
O11_5 O 0.2711(3) 0.2240(3) 0.8524(3)
O12_5 O 0.2687(3) 0.2293(3) 0.9715(2)
O13_10 O 0.2571(10) 0.1536(10) 1.0000
C27_5 C 0.0772(3) 0.2755(4) 0.8405(3)
H29_5 H 0.2452 0.1590 0.9819
C48_5 C 0.2982(5) 0.3455(4) 0.7943(5)
H30_5 H 0.3054 0.3648 0.8075
C49_5 C 0.3389(5) 0.3128(5) 0.8301(4)
H31_5 H 0.3279 0.3055 0.8517
H32_5 H 0.3562 0.2957 0.8233
H33_5 H 0.3501 0.3352 0.8335
C50_5 C 0.3028(5) 0.2852(4) 0.7827(5)
H34_5 H 0.3220 0.2784 0.7678
H35_5 H 0.2970 0.2661 0.7982
H36_5 H 0.2827 0.2909 0.7684
Eu3_5 Eu 0.25649(2) 0.411293(16) 0.75613(2)
N4_5 N 0.3129(4) 0.3157(3) 0.8033(4)
O23_5 O 0.2760(3) 0.3524(3) 0.7711(3)
Eu5_5 Eu 0.0000 0.31038(3) 0.81400(3)
Eu6_3 Eu 0.31400(3) 0.5000 0.81038(3)
Eu8_5 Eu 0.088707(16) 0.25613(2) 0.75649(2)
O24_5 O 0.2568(4) 0.3827(3) 0.7004(3)
O25_5 O 0.2443(6) 0.4386(4) 0.7020(5)
O26_5 O 0.1996(3) 0.3837(3) 0.7599(4)
O27_5 O 0.1998(4) 0.4400(3) 0.7656(6)
O28_5 O 0.3187(3) 0.2386(4) 0.9122(3)
O30_5 O 0.3424(6) 0.2242(6) 0.9609(5)
O32_5 O 0.3190(4) 0.4139(4) 0.7531(5)
O35_5 O 0.2707(3) 0.4715(2) 0.7687(3)
Eu4_6 Eu 1.0000 0.31038(3) 0.18600(3)
Eu5_6 Eu 1.0000 0.31038(3) 0.81400(3)
C1_6 C 0.1838(7) 0.7494(9) 0.0880(5)
C2_6 C 0.1459(4) 0.7389(6) 0.0901(4)
C3_6 C 0.1322(4) 0.7203(6) 0.0617(3)
H1_6 H 0.1452 0.7183 0.0410
C4_6 C 0.0992(5) 0.7046(6) 0.0642(4)
C5_6 C 0.0799(4) 0.7076(6) 0.0951(4)
H2_6 H 0.0578 0.6971 0.0968
C6_6 C 0.0936(4) 0.7262(6) 0.1235(3)
C7_6 C 0.1266(5) 0.7418(6) 0.1210(3)
H3_6 H 0.1357 0.7543 0.1400
C8_6 C 0.0839(9) 0.6878(10) 0.0302(6)
C9_6 C 0.0616(10) 0.6588(10) 0.0328(6)
H4_6 H 0.0548 0.6487 0.0541
C10_11 C 0.0506(14) 0.6464(16) 0.0000
H5_11 H 0.0344 0.6282 0.0000
C11_6 C 0.2669(10) 0.6848(7) 0.0883(5)
C12_6 C 0.2732(8) 0.6463(4) 0.0914(4)
C13_6 C 0.2697(7) 0.6274(5) 0.1225(3)
H6_6 H 0.2594 0.6378 0.1421
C14_6 C 0.2817(7) 0.5928(5) 0.1244(4)
C15_6 C 0.2971(8) 0.5772(4) 0.0951(5)
H7_6 H 0.3051 0.5541 0.0963
C16_6 C 0.3006(8) 0.5961(5) 0.0640(4)
C17_6 C 0.2886(8) 0.6307(5) 0.0621(3)
H8_6 H 0.2910 0.6433 0.0413
C18_6 C 0.3166(11) 0.5794(10) 0.0318(4)
C19_6 C 0.3432(10) 0.5539(10) 0.0330(7)
H9_6 H 0.3500 0.5423 0.0534
C20_11 C 0.3583(16) 0.5478(15) 0.0000
H10_11 H 0.3810 0.5387 0.0000
C21_6 C 0.2725(3) 0.5712(4) 0.1564(3)
C22_6 C 0.2943(5) 0.7982(5) 0.1545(4)
H11_6 H 0.3075 0.8054 0.1352
C23_6 C 0.3301(4) 0.8389(5) 0.1872(5)
H12_6 H 0.3517 0.8279 0.1945
H13_6 H 0.3233 0.8562 0.2043
H14_6 H 0.3335 0.8501 0.1648
C24_6 C 0.2827(5) 0.8028(5) 0.2148(4)
H15_6 H 0.2678 0.8220 0.2216
H16_6 H 0.2982 0.7970 0.2339
H17_6 H 0.2684 0.7827 0.2091
C25_11 C 0.2560(7) 0.7566(7) 0.0000
H18_11 H 0.2396 0.7384 0.0000
C26_11 C 0.3745(16) 0.8829(17) 0.0000
H19_11 H 0.3908 0.9011 0.0000
N1_11 N 0.0963(11) 0.7013(12) 0.0000
N2_11 N 0.3062(11) 0.5909(15) 0.0000
N3_6 N 0.3033(4) 0.8129(4) 0.1843(3)
O1_6 O 0.2004(3) 0.7568(4) 0.1173(3)
O2_6 O 0.2020(5) 0.7443(6) 0.0614(4)
O3_6 O 0.2599(4) 0.6996(3) 0.1163(3)
O4_6 O 0.2656(6) 0.6998(4) 0.0600(3)
O5_6 O 0.2614(4) 0.5878(3) 0.1813(3)
O6_6 O 0.2758(6) 0.5391(5) 0.1576(6)
O7_6 O 0.0861(4) 0.7469(5) 0.1810(4)
O8_6 O 0.0562(5) 0.7002(6) 0.1639(5)
O9_11 O 0.3372(9) 0.8775(6) 0.0000
O10_11 O 0.3729(5) 0.8418(8) 0.0000
O11_6 O 0.2711(3) 0.7760(3) 0.1476(3)
O12_6 O 0.2687(3) 0.7707(3) 0.0285(2)
O13_11 O 0.2571(10) 0.8464(10) 0.0000
C27_6 C 0.0772(3) 0.7245(4) 0.1595(3)
H29_6 H 0.2452 0.8410 0.0181
C48_6 C 0.2982(5) 0.6545(4) 0.2057(5)
H30_6 H 0.3054 0.6352 0.1925
C49_6 C 0.3389(5) 0.6872(5) 0.1699(4)
H31_6 H 0.3279 0.6945 0.1483
H32_6 H 0.3562 0.7043 0.1767
H33_6 H 0.3501 0.6648 0.1665
C50_6 C 0.3028(5) 0.7148(4) 0.2173(5)
H34_6 H 0.3220 0.7216 0.2322
H35_6 H 0.2970 0.7339 0.2018
H36_6 H 0.2827 0.7091 0.2316
Eu3_6 Eu 0.25649(2) 0.588707(16) 0.24387(2)
N4_6 N 0.3129(4) 0.6843(3) 0.1967(4)
O23_6 O 0.2760(3) 0.6476(3) 0.2289(3)
Eu5_7 Eu 0.0000 0.68962(3) 0.18600(3)
Eu8_6 Eu 0.088707(16) 0.74387(2) 0.24351(2)
O24_6 O 0.2568(4) 0.6173(3) 0.2996(3)
O25_6 O 0.2443(6) 0.5614(4) 0.2980(5)
O26_6 O 0.1996(3) 0.6163(3) 0.2401(4)
O27_6 O 0.1998(4) 0.5600(3) 0.2344(6)
O28_6 O 0.3187(3) 0.7614(4) 0.0878(3)
O30_6 O 0.3424(6) 0.7758(6) 0.0391(5)
O32_6 O 0.3190(4) 0.5861(4) 0.2469(5)
O35_6 O 0.2707(3) 0.5285(2) 0.2313(3)
C10_12 C 0.0506(14) 0.6464(16) 1.0000
H5_12 H 0.0344 0.6282 1.0000
C20_12 C 0.3583(16) 0.5478(15) 1.0000
H10_12 H 0.3810 0.5387 1.0000
C25_12 C 0.2560(7) 0.7566(7) 1.0000
H18_12 H 0.2396 0.7384 1.0000
C26_12 C 0.3745(16) 0.8829(17) 1.0000
H19_12 H 0.3908 0.9011 1.0000
N1_12 N 0.0963(11) 0.7013(12) 1.0000
N2_12 N 0.3062(11) 0.5909(15) 1.0000
O9_12 O 0.3372(9) 0.8775(6) 1.0000
O10_12 O 0.3729(5) 0.8418(8) 1.0000
O13_12 O 0.2571(10) 0.8464(10) 1.0000
H20_6 H 0.2452 0.8410 0.9819
C28_6 C 0.1838(7) 0.7494(9) 0.9120(5)
C29_6 C 0.1459(4) 0.7389(6) 0.9099(4)
C30_6 C 0.1322(4) 0.7203(6) 0.9383(3)
H21_6 H 0.1452 0.7183 0.9590
C31_6 C 0.0992(5) 0.7046(6) 0.9358(4)
C32_6 C 0.0799(4) 0.7076(6) 0.9049(4)
H22_6 H 0.0578 0.6971 0.9032
C33_6 C 0.0936(4) 0.7262(6) 0.8765(3)
C34_6 C 0.1266(5) 0.7418(6) 0.8790(3)
H23_6 H 0.1357 0.7543 0.8600
C35_6 C 0.0839(9) 0.6878(10) 0.9698(6)
C36_6 C 0.0616(10) 0.6588(10) 0.9672(6)
H24_6 H 0.0548 0.6487 0.9459
O14_6 O 0.2004(3) 0.7568(4) 0.8827(3)
O15_6 O 0.2020(5) 0.7443(6) 0.9386(4)
O16_6 O 0.0861(4) 0.7469(5) 0.8190(4)
O17_6 O 0.0562(5) 0.7002(6) 0.8361(5)
C37_6 C 0.0772(3) 0.7245(4) 0.8405(3)
C38_6 C 0.2669(10) 0.6848(7) 0.9117(5)
C39_6 C 0.2732(8) 0.6463(4) 0.9086(4)
C40_6 C 0.2697(7) 0.6274(5) 0.8775(3)
H25_6 H 0.2594 0.6378 0.8579
C41_6 C 0.2817(7) 0.5928(5) 0.8756(4)
C42_6 C 0.2971(8) 0.5772(4) 0.9049(5)
H26_6 H 0.3051 0.5541 0.9037
C43_6 C 0.3006(8) 0.5961(5) 0.9360(4)
C44_6 C 0.2886(8) 0.6307(5) 0.9379(3)
H27_6 H 0.2910 0.6433 0.9587
C45_6 C 0.3166(11) 0.5794(10) 0.9682(4)
C46_6 C 0.3432(10) 0.5539(10) 0.9670(7)
H28_6 H 0.3500 0.5423 0.9466
C47_6 C 0.2725(3) 0.5712(4) 0.8436(3)
O18_6 O 0.2599(4) 0.6996(3) 0.8837(3)
O19_6 O 0.2656(6) 0.6998(4) 0.9400(3)
O20_6 O 0.2614(4) 0.5878(3) 0.8187(3)
O21_6 O 0.2758(6) 0.5391(5) 0.8424(6)
O22_6 O 0.2687(3) 0.7707(3) 0.9715(2)
Eu4_7 Eu 0.0000 0.68962(3) 0.81400(3)
Eu9_6 Eu 0.25649(2) 0.588707(16) 0.75613(2)
Eu11_6 Eu 0.088707(16) 0.74387(2) 0.75649(2)
O29_6 O 0.3424(6) 0.7758(6) 0.9609(5)
Eu5_8 Eu 1.0000 0.68962(3) 0.18600(3)
Eu4_8 Eu 1.0000 0.68962(3) 0.81400(3)
C10_13 C 0.9494(14) 0.6464(16) 0.0000
H5_13 H 0.9656 0.6282 0.0000
C20_13 C 0.6417(16) 0.5478(15) 0.0000
H10_13 H 0.6190 0.5387 0.0000
C25_13 C 0.7440(7) 0.7566(7) 0.0000
H18_13 H 0.7604 0.7384 0.0000
C26_13 C 0.6255(16) 0.8829(17) 0.0000
H19_13 H 0.6092 0.9011 0.0000
N1_13 N 0.9037(11) 0.7013(12) 0.0000
N2_13 N 0.6938(11) 0.5909(15) 0.0000
O9_13 O 0.6628(9) 0.8775(6) 0.0000
O10_13 O 0.6271(5) 0.8418(8) 0.0000
O13_13 O 0.7429(10) 0.8464(10) 0.0000
H20_7 H 0.7548 0.8410 0.0181
C28_7 C 0.8162(7) 0.7494(9) 0.0880(5)
C29_7 C 0.8541(4) 0.7389(6) 0.0901(4)
C30_7 C 0.8678(4) 0.7203(6) 0.0617(3)
H21_7 H 0.8548 0.7183 0.0410
C31_7 C 0.9008(5) 0.7046(6) 0.0642(4)
C32_7 C 0.9201(4) 0.7076(6) 0.0951(4)
H22_7 H 0.9422 0.6971 0.0968
C33_7 C 0.9064(4) 0.7262(6) 0.1235(3)
C34_7 C 0.8734(5) 0.7418(6) 0.1210(3)
H23_7 H 0.8643 0.7543 0.1400
C35_7 C 0.9161(9) 0.6878(10) 0.0302(6)
C36_7 C 0.9384(10) 0.6588(10) 0.0328(6)
H24_7 H 0.9452 0.6487 0.0541
O14_7 O 0.7996(3) 0.7568(4) 0.1173(3)
O15_7 O 0.7980(5) 0.7443(6) 0.0614(4)
O16_7 O 0.9139(4) 0.7469(5) 0.1810(4)
O17_7 O 0.9438(5) 0.7002(6) 0.1639(5)
C37_7 C 0.9228(3) 0.7245(4) 0.1595(3)
C38_7 C 0.7331(10) 0.6848(7) 0.0883(5)
C39_7 C 0.7268(8) 0.6463(4) 0.0914(4)
C40_7 C 0.7303(7) 0.6274(5) 0.1225(3)
H25_7 H 0.7406 0.6378 0.1421
C41_7 C 0.7183(7) 0.5928(5) 0.1244(4)
C42_7 C 0.7029(8) 0.5772(4) 0.0951(5)
H26_7 H 0.6949 0.5541 0.0963
C43_7 C 0.6994(8) 0.5961(5) 0.0640(4)
C44_7 C 0.7114(8) 0.6307(5) 0.0621(3)
H27_7 H 0.7090 0.6433 0.0413
C45_7 C 0.6834(11) 0.5794(10) 0.0318(4)
C46_7 C 0.6568(10) 0.5539(10) 0.0330(7)
H28_7 H 0.6500 0.5423 0.0534
C47_7 C 0.7275(3) 0.5712(4) 0.1564(3)
O18_7 O 0.7401(4) 0.6996(3) 0.1163(3)
O19_7 O 0.7344(6) 0.6998(4) 0.0600(3)
O20_7 O 0.7386(4) 0.5878(3) 0.1813(3)
O21_7 O 0.7242(6) 0.5391(5) 0.1576(6)
O22_7 O 0.7313(3) 0.7707(3) 0.0285(2)
Eu7_4 Eu 0.68600(3) 0.5000 0.18962(3)
Eu9_7 Eu 0.74351(2) 0.588707(16) 0.24387(2)
Eu11_7 Eu 0.911293(16) 0.74387(2) 0.24351(2)
O29_7 O 0.6576(6) 0.7758(6) 0.0391(5)
C1_7 C 0.8162(7) 0.7494(9) 0.9120(5)
C2_7 C 0.8541(4) 0.7389(6) 0.9099(4)
C3_7 C 0.8678(4) 0.7203(6) 0.9383(3)
H1_7 H 0.8548 0.7183 0.9590
C4_7 C 0.9008(5) 0.7046(6) 0.9358(4)
C5_7 C 0.9201(4) 0.7076(6) 0.9049(4)
H2_7 H 0.9422 0.6971 0.9032
C6_7 C 0.9064(4) 0.7262(6) 0.8765(3)
C7_7 C 0.8734(5) 0.7418(6) 0.8790(3)
H3_7 H 0.8643 0.7543 0.8600
C8_7 C 0.9161(9) 0.6878(10) 0.9698(6)
C9_7 C 0.9384(10) 0.6588(10) 0.9672(6)
H4_7 H 0.9452 0.6487 0.9459
C10_14 C 0.9494(14) 0.6464(16) 1.0000
H5_14 H 0.9656 0.6282 1.0000
C11_7 C 0.7331(10) 0.6848(7) 0.9117(5)
C12_7 C 0.7268(8) 0.6463(4) 0.9086(4)
C13_7 C 0.7303(7) 0.6274(5) 0.8775(3)
H6_7 H 0.7406 0.6378 0.8579
C14_7 C 0.7183(7) 0.5928(5) 0.8756(4)
C15_7 C 0.7029(8) 0.5772(4) 0.9049(5)
H7_7 H 0.6949 0.5541 0.9037
C16_7 C 0.6994(8) 0.5961(5) 0.9360(4)
C17_7 C 0.7114(8) 0.6307(5) 0.9379(3)
H8_7 H 0.7090 0.6433 0.9587
C18_7 C 0.6834(11) 0.5794(10) 0.9682(4)
C19_7 C 0.6568(10) 0.5539(10) 0.9670(7)
H9_7 H 0.6500 0.5423 0.9466
C20_14 C 0.6417(16) 0.5478(15) 1.0000
H10_14 H 0.6190 0.5387 1.0000
C21_7 C 0.7275(3) 0.5712(4) 0.8436(3)
C22_7 C 0.7057(5) 0.7982(5) 0.8455(4)
H11_7 H 0.6925 0.8054 0.8648
C23_7 C 0.6699(4) 0.8389(5) 0.8128(5)
H12_7 H 0.6483 0.8279 0.8055
H13_7 H 0.6767 0.8562 0.7957
H14_7 H 0.6665 0.8501 0.8352
C24_7 C 0.7173(5) 0.8028(5) 0.7852(4)
H15_7 H 0.7322 0.8220 0.7784
H16_7 H 0.7018 0.7970 0.7661
H17_7 H 0.7316 0.7827 0.7909
C25_14 C 0.7440(7) 0.7566(7) 1.0000
H18_14 H 0.7604 0.7384 1.0000
C26_14 C 0.6255(16) 0.8829(17) 1.0000
H19_14 H 0.6092 0.9011 1.0000
N1_14 N 0.9037(11) 0.7013(12) 1.0000
N2_14 N 0.6938(11) 0.5909(15) 1.0000
N3_7 N 0.6967(4) 0.8129(4) 0.8157(3)
O1_7 O 0.7996(3) 0.7568(4) 0.8827(3)
O2_7 O 0.7980(5) 0.7443(6) 0.9386(4)
O3_7 O 0.7401(4) 0.6996(3) 0.8837(3)
O4_7 O 0.7344(6) 0.6998(4) 0.9400(3)
O5_7 O 0.7386(4) 0.5878(3) 0.8187(3)
O6_7 O 0.7242(6) 0.5391(5) 0.8424(6)
O7_7 O 0.9139(4) 0.7469(5) 0.8190(4)
O8_7 O 0.9438(5) 0.7002(6) 0.8361(5)
O9_14 O 0.6628(9) 0.8775(6) 1.0000
O10_14 O 0.6271(5) 0.8418(8) 1.0000
O11_7 O 0.7289(3) 0.7760(3) 0.8524(3)
O12_7 O 0.7313(3) 0.7707(3) 0.9715(2)
O13_14 O 0.7429(10) 0.8464(10) 1.0000
C27_7 C 0.9228(3) 0.7245(4) 0.8405(3)
H29_7 H 0.7548 0.8410 0.9819
C48_7 C 0.7018(5) 0.6545(4) 0.7943(5)
H30_7 H 0.6946 0.6352 0.8075
C49_7 C 0.6611(5) 0.6872(5) 0.8301(4)
H31_7 H 0.6721 0.6945 0.8517
H32_7 H 0.6438 0.7043 0.8233
H33_7 H 0.6499 0.6648 0.8335
C50_7 C 0.6972(5) 0.7148(4) 0.7827(5)
H34_7 H 0.6780 0.7216 0.7678
H35_7 H 0.7030 0.7339 0.7982
H36_7 H 0.7173 0.7091 0.7684
Eu3_7 Eu 0.74351(2) 0.588707(16) 0.75613(2)
N4_7 N 0.6871(4) 0.6843(3) 0.8033(4)
O23_7 O 0.7240(3) 0.6476(3) 0.7711(3)
Eu6_4 Eu 0.68600(3) 0.5000 0.81038(3)
Eu8_7 Eu 0.911293(16) 0.74387(2) 0.75649(2)
O24_7 O 0.7432(4) 0.6173(3) 0.7004(3)
O25_7 O 0.7557(6) 0.5614(4) 0.7020(5)
O26_7 O 0.8004(3) 0.6163(3) 0.7599(4)
O27_7 O 0.8002(4) 0.5600(3) 0.7656(6)
O28_7 O 0.6813(3) 0.7614(4) 0.9122(3)
O30_7 O 0.6576(6) 0.7758(6) 0.9609(5)
O32_7 O 0.6810(4) 0.5861(4) 0.7531(5)
O35_7 O 0.7293(3) 0.5285(2) 0.7687(3)
C1_8 C 0.8162(7) 0.2506(9) 0.0880(5)
C2_8 C 0.8541(4) 0.2611(6) 0.0901(4)
C3_8 C 0.8678(4) 0.2797(6) 0.0617(3)
H1_8 H 0.8548 0.2817 0.0410
C4_8 C 0.9008(5) 0.2954(6) 0.0642(4)
C5_8 C 0.9201(4) 0.2924(6) 0.0951(4)
H2_8 H 0.9422 0.3029 0.0968
C6_8 C 0.9064(4) 0.2738(6) 0.1235(3)
C7_8 C 0.8734(5) 0.2582(6) 0.1210(3)
H3_8 H 0.8643 0.2457 0.1400
C8_8 C 0.9161(9) 0.3122(10) 0.0302(6)
C9_8 C 0.9384(10) 0.3412(10) 0.0328(6)
H4_8 H 0.9452 0.3513 0.0541
C10_15 C 0.9494(14) 0.3536(16) 0.0000
H5_15 H 0.9656 0.3718 0.0000
C11_8 C 0.7331(10) 0.3152(7) 0.0883(5)
C12_8 C 0.7268(8) 0.3537(4) 0.0914(4)
C13_8 C 0.7303(7) 0.3726(5) 0.1225(3)
H6_8 H 0.7406 0.3622 0.1421
C14_8 C 0.7183(7) 0.4072(5) 0.1244(4)
C15_8 C 0.7029(8) 0.4228(4) 0.0951(5)
H7_8 H 0.6949 0.4459 0.0963
C16_8 C 0.6994(8) 0.4039(5) 0.0640(4)
C17_8 C 0.7114(8) 0.3693(5) 0.0621(3)
H8_8 H 0.7090 0.3567 0.0413
C18_8 C 0.6834(11) 0.4206(10) 0.0318(4)
C19_8 C 0.6568(10) 0.4461(10) 0.0330(7)
H9_8 H 0.6500 0.4577 0.0534
C20_15 C 0.6417(16) 0.4522(15) 0.0000
H10_15 H 0.6190 0.4613 0.0000
C21_8 C 0.7275(3) 0.4288(4) 0.1564(3)
C22_8 C 0.7057(5) 0.2018(5) 0.1545(4)
H11_8 H 0.6925 0.1946 0.1352
C23_8 C 0.6699(4) 0.1611(5) 0.1872(5)
H12_8 H 0.6483 0.1721 0.1945
H13_8 H 0.6767 0.1438 0.2043
H14_8 H 0.6665 0.1499 0.1648
C24_8 C 0.7173(5) 0.1972(5) 0.2148(4)
H15_8 H 0.7322 0.1780 0.2216
H16_8 H 0.7018 0.2030 0.2339
H17_8 H 0.7316 0.2173 0.2091
C25_15 C 0.7440(7) 0.2434(7) 0.0000
H18_15 H 0.7604 0.2616 0.0000
C26_15 C 0.6255(16) 0.1171(17) 0.0000
H19_15 H 0.6092 0.0989 0.0000
N1_15 N 0.9037(11) 0.2987(12) 0.0000
N2_15 N 0.6938(11) 0.4091(15) 0.0000
N3_8 N 0.6967(4) 0.1871(4) 0.1843(3)
O1_8 O 0.7996(3) 0.2432(4) 0.1173(3)
O2_8 O 0.7980(5) 0.2557(6) 0.0614(4)
O3_8 O 0.7401(4) 0.3004(3) 0.1163(3)
O4_8 O 0.7344(6) 0.3002(4) 0.0600(3)
O5_8 O 0.7386(4) 0.4122(3) 0.1813(3)
O6_8 O 0.7242(6) 0.4609(5) 0.1576(6)
O7_8 O 0.9139(4) 0.2531(5) 0.1810(4)
O8_8 O 0.9438(5) 0.2998(6) 0.1639(5)
O9_15 O 0.6628(9) 0.1225(6) 0.0000
O10_15 O 0.6271(5) 0.1582(8) 0.0000
O11_8 O 0.7289(3) 0.2240(3) 0.1476(3)
O12_8 O 0.7313(3) 0.2293(3) 0.0285(2)
O13_15 O 0.7429(10) 0.1536(10) 0.0000
C27_8 C 0.9228(3) 0.2755(4) 0.1595(3)
H29_8 H 0.7548 0.1590 0.0181
C48_8 C 0.7018(5) 0.3455(4) 0.2057(5)
H30_8 H 0.6946 0.3648 0.1925
C49_8 C 0.6611(5) 0.3128(5) 0.1699(4)
H31_8 H 0.6721 0.3055 0.1483
H32_8 H 0.6438 0.2957 0.1767
H33_8 H 0.6499 0.3352 0.1665
C50_8 C 0.6972(5) 0.2852(4) 0.2173(5)
H34_8 H 0.6780 0.2784 0.2322
H35_8 H 0.7030 0.2661 0.2018
H36_8 H 0.7173 0.2909 0.2316
Eu3_8 Eu 0.74351(2) 0.411293(16) 0.24387(2)
N4_8 N 0.6871(4) 0.3157(3) 0.1967(4)
O23_8 O 0.7240(3) 0.3524(3) 0.2289(3)
Eu8_8 Eu 0.911293(16) 0.25613(2) 0.24351(2)
O24_8 O 0.7432(4) 0.3827(3) 0.2996(3)
O25_8 O 0.7557(6) 0.4386(4) 0.2980(5)
O26_8 O 0.8004(3) 0.3837(3) 0.2401(4)
O27_8 O 0.8002(4) 0.4400(3) 0.2344(6)
O28_8 O 0.6813(3) 0.2386(4) 0.0878(3)
O30_8 O 0.6576(6) 0.2242(6) 0.0391(5)
O32_8 O 0.6810(4) 0.4139(4) 0.2469(5)
O35_8 O 0.7293(3) 0.4715(2) 0.2313(3)
C10_16 C 0.9494(14) 0.3536(16) 1.0000
H5_16 H 0.9656 0.3718 1.0000
C20_16 C 0.6417(16) 0.4522(15) 1.0000
H10_16 H 0.6190 0.4613 1.0000
C25_16 C 0.7440(7) 0.2434(7) 1.0000
H18_16 H 0.7604 0.2616 1.0000
C26_16 C 0.6255(16) 0.1171(17) 1.0000
H19_16 H 0.6092 0.0989 1.0000
N1_16 N 0.9037(11) 0.2987(12) 1.0000
N2_16 N 0.6938(11) 0.4091(15) 1.0000
O9_16 O 0.6628(9) 0.1225(6) 1.0000
O10_16 O 0.6271(5) 0.1582(8) 1.0000
O13_16 O 0.7429(10) 0.1536(10) 1.0000
H20_8 H 0.7548 0.1590 0.9819
C28_8 C 0.8162(7) 0.2506(9) 0.9120(5)
C29_8 C 0.8541(4) 0.2611(6) 0.9099(4)
C30_8 C 0.8678(4) 0.2797(6) 0.9383(3)
H21_8 H 0.8548 0.2817 0.9590
C31_8 C 0.9008(5) 0.2954(6) 0.9358(4)
C32_8 C 0.9201(4) 0.2924(6) 0.9049(4)
H22_8 H 0.9422 0.3029 0.9032
C33_8 C 0.9064(4) 0.2738(6) 0.8765(3)
C34_8 C 0.8734(5) 0.2582(6) 0.8790(3)
H23_8 H 0.8643 0.2457 0.8600
C35_8 C 0.9161(9) 0.3122(10) 0.9698(6)
C36_8 C 0.9384(10) 0.3412(10) 0.9672(6)
H24_8 H 0.9452 0.3513 0.9459
O14_8 O 0.7996(3) 0.2432(4) 0.8827(3)
O15_8 O 0.7980(5) 0.2557(6) 0.9386(4)
O16_8 O 0.9139(4) 0.2531(5) 0.8190(4)
O17_8 O 0.9438(5) 0.2998(6) 0.8361(5)
C37_8 C 0.9228(3) 0.2755(4) 0.8405(3)
C38_8 C 0.7331(10) 0.3152(7) 0.9117(5)
C39_8 C 0.7268(8) 0.3537(4) 0.9086(4)
C40_8 C 0.7303(7) 0.3726(5) 0.8775(3)
H25_8 H 0.7406 0.3622 0.8579
C41_8 C 0.7183(7) 0.4072(5) 0.8756(4)
C42_8 C 0.7029(8) 0.4228(4) 0.9049(5)
H26_8 H 0.6949 0.4459 0.9037
C43_8 C 0.6994(8) 0.4039(5) 0.9360(4)
C44_8 C 0.7114(8) 0.3693(5) 0.9379(3)
H27_8 H 0.7090 0.3567 0.9587
C45_8 C 0.6834(11) 0.4206(10) 0.9682(4)
C46_8 C 0.6568(10) 0.4461(10) 0.9670(7)
H28_8 H 0.6500 0.4577 0.9466
C47_8 C 0.7275(3) 0.4288(4) 0.8436(3)
O18_8 O 0.7401(4) 0.3004(3) 0.8837(3)
O19_8 O 0.7344(6) 0.3002(4) 0.9400(3)
O20_8 O 0.7386(4) 0.4122(3) 0.8187(3)
O21_8 O 0.7242(6) 0.4609(5) 0.8424(6)
O22_8 O 0.7313(3) 0.2293(3) 0.9715(2)
Eu9_8 Eu 0.74351(2) 0.411293(16) 0.75613(2)
Eu11_8 Eu 0.911293(16) 0.25613(2) 0.75649(2)
O29_8 O 0.6576(6) 0.2242(6) 0.9609(5)
C10_17 C -0.0000 0.0506(14) 0.3536(16)
H5_17 H 0.0000 0.0344 0.3718
C20_17 C 0.0000 0.3583(16) 0.4522(15)
H10_17 H 0.0000 0.3810 0.4613
C25_17 C -0.0000 0.2560(7) 0.2434(7)
H18_17 H -0.0000 0.2396 0.2616
C26_17 C -0.0000 0.3745(16) 0.1171(17)
H19_17 H -0.0000 0.3908 0.0989
N1_17 N 0.0000 0.0963(11) 0.2987(12)
N2_17 N -0.0000 0.3062(11) 0.4091(15)
O9_17 O -0.0000 0.3372(9) 0.1225(6)
O10_17 O -0.0000 0.3729(5) 0.1582(8)
O13_17 O 0.0000 0.2571(10) 0.1536(10)
H20_9 H 0.0181 0.2452 0.1590
C28_9 C 0.0880(5) 0.1838(7) 0.2506(9)
C29_9 C 0.0901(4) 0.1459(4) 0.2611(6)
C30_9 C 0.0617(3) 0.1322(4) 0.2797(6)
H21_9 H 0.0410 0.1452 0.2817
C31_9 C 0.0642(4) 0.0992(5) 0.2954(6)
C32_9 C 0.0951(4) 0.0799(4) 0.2924(6)
H22_9 H 0.0968 0.0578 0.3029
C33_9 C 0.1235(3) 0.0936(4) 0.2738(6)
C34_9 C 0.1210(3) 0.1266(5) 0.2582(6)
H23_9 H 0.1400 0.1357 0.2457
C35_9 C 0.0302(6) 0.0839(9) 0.3122(10)
C36_9 C 0.0328(6) 0.0616(10) 0.3412(10)
H24_9 H 0.0541 0.0548 0.3513
O14_9 O 0.1173(3) 0.2004(3) 0.2432(4)
O15_9 O 0.0614(4) 0.2020(5) 0.2557(6)
O16_9 O 0.1810(4) 0.0861(4) 0.2531(5)
C37_9 C 0.1595(3) 0.0772(3) 0.2755(4)
C38_9 C 0.0883(5) 0.2669(10) 0.3152(7)
C39_9 C 0.0914(4) 0.2732(8) 0.3537(4)
C40_9 C 0.1225(3) 0.2697(7) 0.3726(5)
H25_9 H 0.1421 0.2594 0.3622
C41_9 C 0.1244(4) 0.2817(7) 0.4072(5)
C42_9 C 0.0951(5) 0.2971(8) 0.4228(4)
H26_9 H 0.0963 0.3051 0.4459
C43_9 C 0.0640(4) 0.3006(8) 0.4039(5)
C44_9 C 0.0621(3) 0.2886(8) 0.3693(5)
H27_9 H 0.0413 0.2910 0.3567
C45_9 C 0.0318(4) 0.3166(11) 0.4206(10)
C46_9 C 0.0330(7) 0.3432(10) 0.4461(10)
H28_9 H 0.0534 0.3500 0.4577
C47_9 C 0.1564(3) 0.2725(3) 0.4288(4)
O18_9 O 0.1163(3) 0.2599(4) 0.3004(3)
O19_9 O 0.0600(3) 0.2656(6) 0.3002(4)
O20_9 O 0.1813(3) 0.2614(4) 0.4122(3)
O21_9 O 0.1576(6) 0.2758(6) 0.4609(5)
O22_9 O 0.0285(2) 0.2687(3) 0.2293(3)
Eu7_5 Eu 0.18962(3) 0.31400(3) 0.5000
Eu9_9 Eu 0.24387(2) 0.25649(2) 0.411293(16)
O29_9 O 0.0391(5) 0.3424(6) 0.2242(6)
C1_9 C 0.9120(5) 0.1838(7) 0.2506(9)
C2_9 C 0.9099(4) 0.1459(4) 0.2611(6)
C3_9 C 0.9383(3) 0.1322(4) 0.2797(6)
H1_9 H 0.9590 0.1452 0.2817
C4_9 C 0.9358(4) 0.0992(5) 0.2954(6)
C5_9 C 0.9049(4) 0.0799(4) 0.2924(6)
H2_9 H 0.9032 0.0578 0.3029
C6_9 C 0.8765(3) 0.0936(4) 0.2738(6)
C7_9 C 0.8790(3) 0.1266(5) 0.2582(6)
H3_9 H 0.8600 0.1357 0.2457
C8_9 C 0.9698(6) 0.0839(9) 0.3122(10)
C9_9 C 0.9672(6) 0.0616(10) 0.3412(10)
H4_9 H 0.9459 0.0548 0.3513
C10_18 C 1.0000 0.0506(14) 0.3536(16)
H5_18 H 1.0000 0.0344 0.3718
C11_9 C 0.9117(5) 0.2669(10) 0.3152(7)
C12_9 C 0.9086(4) 0.2732(8) 0.3537(4)
C13_9 C 0.8775(3) 0.2697(7) 0.3726(5)
H6_9 H 0.8579 0.2594 0.3622
C14_9 C 0.8756(4) 0.2817(7) 0.4072(5)
C15_9 C 0.9049(5) 0.2971(8) 0.4228(4)
H7_9 H 0.9037 0.3051 0.4459
C16_9 C 0.9360(4) 0.3006(8) 0.4039(5)
C17_9 C 0.9379(3) 0.2886(8) 0.3693(5)
H8_9 H 0.9587 0.2910 0.3567
C18_9 C 0.9682(4) 0.3166(11) 0.4206(10)
C19_9 C 0.9670(7) 0.3432(10) 0.4461(10)
H9_9 H 0.9466 0.3500 0.4577
C20_18 C 1.0000 0.3583(16) 0.4522(15)
H10_18 H 1.0000 0.3810 0.4613
C21_9 C 0.8436(3) 0.2725(3) 0.4288(4)
C22_9 C 0.8455(4) 0.2943(5) 0.2018(5)
H11_9 H 0.8648 0.3075 0.1946
C23_9 C 0.8128(5) 0.3301(4) 0.1611(5)
H12_9 H 0.8055 0.3517 0.1721
H13_9 H 0.7957 0.3233 0.1438
H14_9 H 0.8352 0.3335 0.1499
C24_9 C 0.7852(4) 0.2827(5) 0.1972(5)
H15_9 H 0.7784 0.2678 0.1780
H16_9 H 0.7661 0.2982 0.2030
H17_9 H 0.7909 0.2684 0.2173
C25_18 C 1.0000 0.2560(7) 0.2434(7)
H18_18 H 1.0000 0.2396 0.2616
C26_18 C 1.0000 0.3745(16) 0.1171(17)
H19_18 H 1.0000 0.3908 0.0989
N1_18 N 1.0000 0.0963(11) 0.2987(12)
N2_18 N 1.0000 0.3062(11) 0.4091(15)
N3_9 N 0.8157(3) 0.3033(4) 0.1871(4)
O1_9 O 0.8827(3) 0.2004(3) 0.2432(4)
O2_9 O 0.9386(4) 0.2020(5) 0.2557(6)
O3_9 O 0.8837(3) 0.2599(4) 0.3004(3)
O4_9 O 0.9400(3) 0.2656(6) 0.3002(4)
O5_9 O 0.8187(3) 0.2614(4) 0.4122(3)
O6_9 O 0.8424(6) 0.2758(6) 0.4609(5)
O9_18 O 1.0000 0.3372(9) 0.1225(6)
O10_18 O 1.0000 0.3729(5) 0.1582(8)
O11_9 O 0.8524(3) 0.2711(3) 0.2240(3)
O12_9 O 0.9715(2) 0.2687(3) 0.2293(3)
O13_18 O 1.0000 0.2571(10) 0.1536(10)
C27_9 C 0.8405(3) 0.0772(3) 0.2755(4)
H29_9 H 0.9819 0.2452 0.1590
C48_9 C 0.7943(5) 0.2982(5) 0.3455(4)
H30_9 H 0.8075 0.3054 0.3648
C49_9 C 0.8301(4) 0.3389(5) 0.3128(5)
H31_9 H 0.8517 0.3279 0.3055
H32_9 H 0.8233 0.3562 0.2957
H33_9 H 0.8335 0.3501 0.3352
C50_9 C 0.7827(5) 0.3028(5) 0.2852(4)
H34_9 H 0.7678 0.3220 0.2784
H35_9 H 0.7982 0.2970 0.2661
H36_9 H 0.7684 0.2827 0.2909
Eu3_9 Eu 0.75613(2) 0.25649(2) 0.411293(16)
N4_9 N 0.8033(4) 0.3129(4) 0.3157(3)
O23_9 O 0.7711(3) 0.2760(3) 0.3524(3)
Eu6_5 Eu 0.81038(3) 0.31400(3) 0.5000
O24_9 O 0.7004(3) 0.2568(4) 0.3827(3)
O25_9 O 0.7020(5) 0.2443(6) 0.4386(4)
O26_9 O 0.7599(4) 0.1996(3) 0.3837(3)
O27_9 O 0.7656(6) 0.1998(4) 0.4400(3)
O28_9 O 0.9122(3) 0.3187(3) 0.2386(4)
O30_9 O 0.9609(5) 0.3424(6) 0.2242(6)
O32_9 O 0.7531(5) 0.3190(4) 0.4139(4)
O35_9 O 0.7687(3) 0.2707(3) 0.4715(2)
C1_10 C 0.0880(5) 0.1838(7) 0.7494(9)
C2_10 C 0.0901(4) 0.1459(4) 0.7389(6)
C3_10 C 0.0617(3) 0.1322(4) 0.7203(6)
H1_10 H 0.0410 0.1452 0.7183
C4_10 C 0.0642(4) 0.0992(5) 0.7046(6)
C5_10 C 0.0951(4) 0.0799(4) 0.7076(6)
H2_10 H 0.0968 0.0578 0.6971
C6_10 C 0.1235(3) 0.0936(4) 0.7262(6)
C7_10 C 0.1210(3) 0.1266(5) 0.7418(6)
H3_10 H 0.1400 0.1357 0.7543
C8_10 C 0.0302(6) 0.0839(9) 0.6878(10)
C9_10 C 0.0328(6) 0.0616(10) 0.6588(10)
H4_10 H 0.0541 0.0548 0.6487
C10_19 C 0.0000 0.0506(14) 0.6464(16)
H5_19 H 0.0000 0.0344 0.6282
C11_10 C 0.0883(5) 0.2669(10) 0.6848(7)
C12_10 C 0.0914(4) 0.2732(8) 0.6463(4)
C13_10 C 0.1225(3) 0.2697(7) 0.6274(5)
H6_10 H 0.1421 0.2594 0.6378
C14_10 C 0.1244(4) 0.2817(7) 0.5928(5)
C15_10 C 0.0951(5) 0.2971(8) 0.5772(4)
H7_10 H 0.0963 0.3051 0.5541
C16_10 C 0.0640(4) 0.3006(8) 0.5961(5)
C17_10 C 0.0621(3) 0.2886(8) 0.6307(5)
H8_10 H 0.0413 0.2910 0.6433
C18_10 C 0.0318(4) 0.3166(11) 0.5794(10)
C19_10 C 0.0330(7) 0.3432(10) 0.5539(10)
H9_10 H 0.0534 0.3500 0.5423
C20_19 C 0.0000 0.3583(16) 0.5478(15)
H10_19 H -0.0000 0.3810 0.5387
C21_10 C 0.1564(3) 0.2725(3) 0.5712(4)
C22_10 C 0.1545(4) 0.2943(5) 0.7982(5)
H11_10 H 0.1352 0.3075 0.8054
C23_10 C 0.1872(5) 0.3301(4) 0.8389(5)
H12_10 H 0.1945 0.3517 0.8279
H13_10 H 0.2043 0.3233 0.8562
H14_10 H 0.1648 0.3335 0.8501
C24_10 C 0.2148(4) 0.2827(5) 0.8028(5)
H15_10 H 0.2216 0.2678 0.8220
H16_10 H 0.2339 0.2982 0.7970
H17_10 H 0.2091 0.2684 0.7827
C25_19 C -0.0000 0.2560(7) 0.7566(7)
H18_19 H -0.0000 0.2396 0.7384
C26_19 C -0.0000 0.3745(16) 0.8829(17)
H19_19 H 0.0000 0.3908 0.9011
N1_19 N -0.0000 0.0963(11) 0.7013(12)
N2_19 N -0.0000 0.3062(11) 0.5909(15)
N3_10 N 0.1843(3) 0.3033(4) 0.8129(4)
O1_10 O 0.1173(3) 0.2004(3) 0.7568(4)
O2_10 O 0.0614(4) 0.2020(5) 0.7443(6)
O3_10 O 0.1163(3) 0.2599(4) 0.6996(3)
O4_10 O 0.0600(3) 0.2656(6) 0.6998(4)
O5_10 O 0.1813(3) 0.2614(4) 0.5878(3)
O6_10 O 0.1576(6) 0.2758(6) 0.5391(5)
O9_19 O -0.0000 0.3372(9) 0.8775(6)
O10_19 O -0.0000 0.3729(5) 0.8418(8)
O11_10 O 0.1476(3) 0.2711(3) 0.7760(3)
O12_10 O 0.0285(2) 0.2687(3) 0.7707(3)
O13_19 O -0.0000 0.2571(10) 0.8464(10)
C27_10 C 0.1595(3) 0.0772(3) 0.7245(4)
H29_10 H 0.0181 0.2452 0.8410
C48_10 C 0.2057(5) 0.2982(5) 0.6545(4)
H30_10 H 0.1925 0.3054 0.6352
C49_10 C 0.1699(4) 0.3389(5) 0.6872(5)
H31_10 H 0.1483 0.3279 0.6945
H32_10 H 0.1767 0.3562 0.7043
H33_10 H 0.1665 0.3501 0.6648
C50_10 C 0.2173(5) 0.3028(5) 0.7148(4)
H34_10 H 0.2322 0.3220 0.7216
H35_10 H 0.2018 0.2970 0.7339
H36_10 H 0.2316 0.2827 0.7091
Eu3_10 Eu 0.24387(2) 0.25649(2) 0.588707(16)
N4_10 N 0.1967(4) 0.3129(4) 0.6843(3)
O23_10 O 0.2289(3) 0.2760(3) 0.6476(3)
O24_10 O 0.2996(3) 0.2568(4) 0.6173(3)
O25_10 O 0.2980(5) 0.2443(6) 0.5614(4)
O26_10 O 0.2401(4) 0.1996(3) 0.6163(3)
O27_10 O 0.2344(6) 0.1998(4) 0.5600(3)
O28_10 O 0.0878(3) 0.3187(3) 0.7614(4)
O30_10 O 0.0391(5) 0.3424(6) 0.7758(6)
O32_10 O 0.2469(5) 0.3190(4) 0.5861(4)
O35_10 O 0.2313(3) 0.2707(3) 0.5285(2)
C10_20 C 1.0000 0.0506(14) 0.6464(16)
H5_20 H 1.0000 0.0344 0.6282
C20_20 C 1.0000 0.3583(16) 0.5478(15)
H10_20 H 1.0000 0.3810 0.5387
C25_20 C 1.0000 0.2560(7) 0.7566(7)
H18_20 H 1.0000 0.2396 0.7384
C26_20 C 1.0000 0.3745(16) 0.8829(17)
H19_20 H 1.0000 0.3908 0.9011
N1_20 N 1.0000 0.0963(11) 0.7013(12)
N2_20 N 1.0000 0.3062(11) 0.5909(15)
O9_20 O 1.0000 0.3372(9) 0.8775(6)
O10_20 O 1.0000 0.3729(5) 0.8418(8)
O13_20 O 1.0000 0.2571(10) 0.8464(10)
H20_10 H 0.9819 0.2452 0.8410
C28_10 C 0.9120(5) 0.1838(7) 0.7494(9)
C29_10 C 0.9099(4) 0.1459(4) 0.7389(6)
C30_10 C 0.9383(3) 0.1322(4) 0.7203(6)
H21_10 H 0.9590 0.1452 0.7183
C31_10 C 0.9358(4) 0.0992(5) 0.7046(6)
C32_10 C 0.9049(4) 0.0799(4) 0.7076(6)
H22_10 H 0.9032 0.0578 0.6971
C33_10 C 0.8765(3) 0.0936(4) 0.7262(6)
C34_10 C 0.8790(3) 0.1266(5) 0.7418(6)
H23_10 H 0.8600 0.1357 0.7543
C35_10 C 0.9698(6) 0.0839(9) 0.6878(10)
C36_10 C 0.9672(6) 0.0616(10) 0.6588(10)
H24_10 H 0.9459 0.0548 0.6487
O14_10 O 0.8827(3) 0.2004(3) 0.7568(4)
O15_10 O 0.9386(4) 0.2020(5) 0.7443(6)
O16_10 O 0.8190(4) 0.0861(4) 0.7469(5)
C37_10 C 0.8405(3) 0.0772(3) 0.7245(4)
C38_10 C 0.9117(5) 0.2669(10) 0.6848(7)
C39_10 C 0.9086(4) 0.2732(8) 0.6463(4)
C40_10 C 0.8775(3) 0.2697(7) 0.6274(5)
H25_10 H 0.8579 0.2594 0.6378
C41_10 C 0.8756(4) 0.2817(7) 0.5928(5)
C42_10 C 0.9049(5) 0.2971(8) 0.5772(4)
H26_10 H 0.9037 0.3051 0.5541
C43_10 C 0.9360(4) 0.3006(8) 0.5961(5)
C44_10 C 0.9379(3) 0.2886(8) 0.6307(5)
H27_10 H 0.9587 0.2910 0.6433
C45_10 C 0.9682(4) 0.3166(11) 0.5794(10)
C46_10 C 0.9670(7) 0.3432(10) 0.5539(10)
H28_10 H 0.9466 0.3500 0.5423
C47_10 C 0.8436(3) 0.2725(3) 0.5712(4)
O18_10 O 0.8837(3) 0.2599(4) 0.6996(3)
O19_10 O 0.9400(3) 0.2656(6) 0.6998(4)
O20_10 O 0.8187(3) 0.2614(4) 0.5878(3)
O21_10 O 0.8424(6) 0.2758(6) 0.5391(5)
O22_10 O 0.9715(2) 0.2687(3) 0.7707(3)
Eu9_10 Eu 0.75613(2) 0.25649(2) 0.588707(16)
O29_10 O 0.9609(5) 0.3424(6) 0.7758(6)
C10_21 C -0.0000 0.9494(14) 0.6464(16)
H5_21 H -0.0000 0.9656 0.6282
C20_21 C 0.0000 0.6417(16) 0.5478(15)
H10_21 H 0.0000 0.6190 0.5387
C25_21 C -0.0000 0.7440(7) 0.7566(7)
H18_21 H -0.0000 0.7604 0.7384
C26_21 C -0.0000 0.6255(16) 0.8829(17)
H19_21 H -0.0000 0.6092 0.9011
N1_21 N -0.0000 0.9037(11) 0.7013(12)
N2_21 N 0.0000 0.6938(11) 0.5909(15)
O9_21 O 0.0000 0.6628(9) 0.8775(6)
O10_21 O -0.0000 0.6271(5) 0.8418(8)
O13_21 O -0.0000 0.7429(10) 0.8464(10)
H20_11 H 0.0181 0.7548 0.8410
C28_11 C 0.0880(5) 0.8162(7) 0.7494(9)
C29_11 C 0.0901(4) 0.8541(4) 0.7389(6)
C30_11 C 0.0617(3) 0.8678(4) 0.7203(6)
H21_11 H 0.0410 0.8548 0.7183
C31_11 C 0.0642(4) 0.9008(5) 0.7046(6)
C32_11 C 0.0951(4) 0.9201(4) 0.7076(6)
H22_11 H 0.0968 0.9422 0.6971
C33_11 C 0.1235(3) 0.9064(4) 0.7262(6)
C34_11 C 0.1210(3) 0.8734(5) 0.7418(6)
H23_11 H 0.1400 0.8643 0.7543
C35_11 C 0.0302(6) 0.9161(9) 0.6878(10)
C36_11 C 0.0328(6) 0.9384(10) 0.6588(10)
H24_11 H 0.0541 0.9452 0.6487
O14_11 O 0.1173(3) 0.7996(3) 0.7568(4)
O15_11 O 0.0614(4) 0.7980(5) 0.7443(6)
O16_11 O 0.1810(4) 0.9139(4) 0.7469(5)
C37_11 C 0.1595(3) 0.9228(3) 0.7245(4)
C38_11 C 0.0883(5) 0.7331(10) 0.6848(7)
C39_11 C 0.0914(4) 0.7268(8) 0.6463(4)
C40_11 C 0.1225(3) 0.7303(7) 0.6274(5)
H25_11 H 0.1421 0.7406 0.6378
C41_11 C 0.1244(4) 0.7183(7) 0.5928(5)
C42_11 C 0.0951(5) 0.7029(8) 0.5772(4)
H26_11 H 0.0963 0.6949 0.5541
C43_11 C 0.0640(4) 0.6994(8) 0.5961(5)
C44_11 C 0.0621(3) 0.7114(8) 0.6307(5)
H27_11 H 0.0413 0.7090 0.6433
C45_11 C 0.0318(4) 0.6834(11) 0.5794(10)
C46_11 C 0.0330(7) 0.6568(10) 0.5539(10)
H28_11 H 0.0534 0.6500 0.5423
C47_11 C 0.1564(3) 0.7275(3) 0.5712(4)
O18_11 O 0.1163(3) 0.7401(4) 0.6996(3)
O19_11 O 0.0600(3) 0.7344(6) 0.6998(4)
O20_11 O 0.1813(3) 0.7386(4) 0.5878(3)
O21_11 O 0.1576(6) 0.7242(6) 0.5391(5)
O22_11 O 0.0285(2) 0.7313(3) 0.7707(3)
Eu7_6 Eu 0.18962(3) 0.68600(3) 0.5000
Eu9_11 Eu 0.24387(2) 0.74351(2) 0.588707(16)
O29_11 O 0.0391(5) 0.6576(6) 0.7758(6)
C1_11 C 0.9120(5) 0.8162(7) 0.7494(9)
C2_11 C 0.9099(4) 0.8541(4) 0.7389(6)
C3_11 C 0.9383(3) 0.8678(4) 0.7203(6)
H1_11 H 0.9590 0.8548 0.7183
C4_11 C 0.9358(4) 0.9008(5) 0.7046(6)
C5_11 C 0.9049(4) 0.9201(4) 0.7076(6)
H2_11 H 0.9032 0.9422 0.6971
C6_11 C 0.8765(3) 0.9064(4) 0.7262(6)
C7_11 C 0.8790(3) 0.8734(5) 0.7418(6)
H3_11 H 0.8600 0.8643 0.7543
C8_11 C 0.9698(6) 0.9161(9) 0.6878(10)
C9_11 C 0.9672(6) 0.9384(10) 0.6588(10)
H4_11 H 0.9459 0.9452 0.6487
C10_22 C 1.0000 0.9494(14) 0.6464(16)
H5_22 H 1.0000 0.9656 0.6282
C11_11 C 0.9117(5) 0.7331(10) 0.6848(7)
C12_11 C 0.9086(4) 0.7268(8) 0.6463(4)
C13_11 C 0.8775(3) 0.7303(7) 0.6274(5)
H6_11 H 0.8579 0.7406 0.6378
C14_11 C 0.8756(4) 0.7183(7) 0.5928(5)
C15_11 C 0.9049(5) 0.7029(8) 0.5772(4)
H7_11 H 0.9037 0.6949 0.5541
C16_11 C 0.9360(4) 0.6994(8) 0.5961(5)
C17_11 C 0.9379(3) 0.7114(8) 0.6307(5)
H8_11 H 0.9587 0.7090 0.6433
C18_11 C 0.9682(4) 0.6834(11) 0.5794(10)
C19_11 C 0.9670(7) 0.6568(10) 0.5539(10)
H9_11 H 0.9466 0.6500 0.5423
C20_22 C 1.0000 0.6417(16) 0.5478(15)
H10_22 H 1.0000 0.6190 0.5387
C21_11 C 0.8436(3) 0.7275(3) 0.5712(4)
C22_11 C 0.8455(4) 0.7057(5) 0.7982(5)
H11_11 H 0.8648 0.6925 0.8054
C23_11 C 0.8128(5) 0.6699(4) 0.8389(5)
H12_11 H 0.8055 0.6483 0.8279
H13_11 H 0.7957 0.6767 0.8562
H14_11 H 0.8352 0.6665 0.8501
C24_11 C 0.7852(4) 0.7173(5) 0.8028(5)
H15_11 H 0.7784 0.7322 0.8220
H16_11 H 0.7661 0.7018 0.7970
H17_11 H 0.7909 0.7316 0.7827
C25_22 C 1.0000 0.7440(7) 0.7566(7)
H18_22 H 1.0000 0.7604 0.7384
C26_22 C 1.0000 0.6255(16) 0.8829(17)
H19_22 H 1.0000 0.6092 0.9011
N1_22 N 1.0000 0.9037(11) 0.7013(12)
N2_22 N 1.0000 0.6938(11) 0.5909(15)
N3_11 N 0.8157(3) 0.6967(4) 0.8129(4)
O1_11 O 0.8827(3) 0.7996(3) 0.7568(4)
O2_11 O 0.9386(4) 0.7980(5) 0.7443(6)
O3_11 O 0.8837(3) 0.7401(4) 0.6996(3)
O4_11 O 0.9400(3) 0.7344(6) 0.6998(4)
O5_11 O 0.8187(3) 0.7386(4) 0.5878(3)
O6_11 O 0.8424(6) 0.7242(6) 0.5391(5)
O9_22 O 1.0000 0.6628(9) 0.8775(6)
O10_22 O 1.0000 0.6271(5) 0.8418(8)
O11_11 O 0.8524(3) 0.7289(3) 0.7760(3)
O12_11 O 0.9715(2) 0.7313(3) 0.7707(3)
O13_22 O 1.0000 0.7429(10) 0.8464(10)
C27_11 C 0.8405(3) 0.9228(3) 0.7245(4)
H29_11 H 0.9819 0.7548 0.8410
C48_11 C 0.7943(5) 0.7018(5) 0.6545(4)
H30_11 H 0.8075 0.6946 0.6352
C49_11 C 0.8301(4) 0.6611(5) 0.6872(5)
H31_11 H 0.8517 0.6721 0.6945
H32_11 H 0.8233 0.6438 0.7043
H33_11 H 0.8335 0.6499 0.6648
C50_11 C 0.7827(5) 0.6972(5) 0.7148(4)
H34_11 H 0.7678 0.6780 0.7216
H35_11 H 0.7982 0.7030 0.7339
H36_11 H 0.7684 0.7173 0.7091
Eu3_11 Eu 0.75613(2) 0.74351(2) 0.588707(16)
N4_11 N 0.8033(4) 0.6871(4) 0.6843(3)
O23_11 O 0.7711(3) 0.7240(3) 0.6476(3)
Eu6_6 Eu 0.81038(3) 0.68600(3) 0.5000
O24_11 O 0.7004(3) 0.7432(4) 0.6173(3)
O25_11 O 0.7020(5) 0.7557(6) 0.5614(4)
O26_11 O 0.7599(4) 0.8004(3) 0.6163(3)
O27_11 O 0.7656(6) 0.8002(4) 0.5600(3)
O28_11 O 0.9122(3) 0.6813(3) 0.7614(4)
O30_11 O 0.9609(5) 0.6576(6) 0.7758(6)
O32_11 O 0.7531(5) 0.6810(4) 0.5861(4)
O35_11 O 0.7687(3) 0.7293(3) 0.5285(2)
C1_12 C 0.0880(5) 0.8162(7) 0.2506(9)
C2_12 C 0.0901(4) 0.8541(4) 0.2611(6)
C3_12 C 0.0617(3) 0.8678(4) 0.2797(6)
H1_12 H 0.0410 0.8548 0.2817
C4_12 C 0.0642(4) 0.9008(5) 0.2954(6)
C5_12 C 0.0951(4) 0.9201(4) 0.2924(6)
H2_12 H 0.0968 0.9422 0.3029
C6_12 C 0.1235(3) 0.9064(4) 0.2738(6)
C7_12 C 0.1210(3) 0.8734(5) 0.2582(6)
H3_12 H 0.1400 0.8643 0.2457
C8_12 C 0.0302(6) 0.9161(9) 0.3122(10)
C9_12 C 0.0328(6) 0.9384(10) 0.3412(10)
H4_12 H 0.0541 0.9452 0.3513
C10_23 C -0.0000 0.9494(14) 0.3536(16)
H5_23 H -0.0000 0.9656 0.3718
C11_12 C 0.0883(5) 0.7331(10) 0.3152(7)
C12_12 C 0.0914(4) 0.7268(8) 0.3537(4)
C13_12 C 0.1225(3) 0.7303(7) 0.3726(5)
H6_12 H 0.1421 0.7406 0.3622
C14_12 C 0.1244(4) 0.7183(7) 0.4072(5)
C15_12 C 0.0951(5) 0.7029(8) 0.4228(4)
H7_12 H 0.0963 0.6949 0.4459
C16_12 C 0.0640(4) 0.6994(8) 0.4039(5)
C17_12 C 0.0621(3) 0.7114(8) 0.3693(5)
H8_12 H 0.0413 0.7090 0.3567
C18_12 C 0.0318(4) 0.6834(11) 0.4206(10)
C19_12 C 0.0330(7) 0.6568(10) 0.4461(10)
H9_12 H 0.0534 0.6500 0.4577
C20_23 C -0.0000 0.6417(16) 0.4522(15)
H10_23 H 0.0000 0.6190 0.4613
C21_12 C 0.1564(3) 0.7275(3) 0.4288(4)
C22_12 C 0.1545(4) 0.7057(5) 0.2018(5)
H11_12 H 0.1352 0.6925 0.1946
C23_12 C 0.1872(5) 0.6699(4) 0.1611(5)
H12_12 H 0.1945 0.6483 0.1721
H13_12 H 0.2043 0.6767 0.1438
H14_12 H 0.1648 0.6665 0.1499
C24_12 C 0.2148(4) 0.7173(5) 0.1972(5)
H15_12 H 0.2216 0.7322 0.1780
H16_12 H 0.2339 0.7018 0.2030
H17_12 H 0.2091 0.7316 0.2173
C25_23 C -0.0000 0.7440(7) 0.2434(7)
H18_23 H -0.0000 0.7604 0.2616
C26_23 C 0.0000 0.6255(16) 0.1171(17)
H19_23 H -0.0000 0.6092 0.0989
N1_23 N -0.0000 0.9037(11) 0.2987(12)
N2_23 N -0.0000 0.6938(11) 0.4091(15)
N3_12 N 0.1843(3) 0.6967(4) 0.1871(4)
O1_12 O 0.1173(3) 0.7996(3) 0.2432(4)
O2_12 O 0.0614(4) 0.7980(5) 0.2557(6)
O3_12 O 0.1163(3) 0.7401(4) 0.3004(3)
O4_12 O 0.0600(3) 0.7344(6) 0.3002(4)
O5_12 O 0.1813(3) 0.7386(4) 0.4122(3)
O6_12 O 0.1576(6) 0.7242(6) 0.4609(5)
O9_23 O -0.0000 0.6628(9) 0.1225(6)
O10_23 O -0.0000 0.6271(5) 0.1582(8)
O11_12 O 0.1476(3) 0.7289(3) 0.2240(3)
O12_12 O 0.0285(2) 0.7313(3) 0.2293(3)
O13_23 O 0.0000 0.7429(10) 0.1536(10)
C27_12 C 0.1595(3) 0.9228(3) 0.2755(4)
H29_12 H 0.0181 0.7548 0.1590
C48_12 C 0.2057(5) 0.7018(5) 0.3455(4)
H30_12 H 0.1925 0.6946 0.3648
C49_12 C 0.1699(4) 0.6611(5) 0.3128(5)
H31_12 H 0.1483 0.6721 0.3055
H32_12 H 0.1767 0.6438 0.2957
H33_12 H 0.1665 0.6499 0.3352
C50_12 C 0.2173(5) 0.6972(5) 0.2852(4)
H34_12 H 0.2322 0.6780 0.2784
H35_12 H 0.2018 0.7030 0.2661
H36_12 H 0.2316 0.7173 0.2909
Eu3_12 Eu 0.24387(2) 0.74351(2) 0.411293(16)
N4_12 N 0.1967(4) 0.6871(4) 0.3157(3)
O23_12 O 0.2289(3) 0.7240(3) 0.3524(3)
O24_12 O 0.2996(3) 0.7432(4) 0.3827(3)
O25_12 O 0.2980(5) 0.7557(6) 0.4386(4)
O26_12 O 0.2401(4) 0.8004(3) 0.3837(3)
O27_12 O 0.2344(6) 0.8002(4) 0.4400(3)
O28_12 O 0.0878(3) 0.6813(3) 0.2386(4)
O30_12 O 0.0391(5) 0.6576(6) 0.2242(6)
O32_12 O 0.2469(5) 0.6810(4) 0.4139(4)
O35_12 O 0.2313(3) 0.7293(3) 0.4715(2)
C10_24 C 1.0000 0.9494(14) 0.3536(16)
H5_24 H 1.0000 0.9656 0.3718
C20_24 C 1.0000 0.6417(16) 0.4522(15)
H10_24 H 1.0000 0.6190 0.4613
C25_24 C 1.0000 0.7440(7) 0.2434(7)
H18_24 H 1.0000 0.7604 0.2616
C26_24 C 1.0000 0.6255(16) 0.1171(17)
H19_24 H 1.0000 0.6092 0.0989
N1_24 N 1.0000 0.9037(11) 0.2987(12)
N2_24 N 1.0000 0.6938(11) 0.4091(15)
O9_24 O 1.0000 0.6628(9) 0.1225(6)
O10_24 O 1.0000 0.6271(5) 0.1582(8)
O13_24 O 1.0000 0.7429(10) 0.1536(10)
H20_12 H 0.9819 0.7548 0.1590
C28_12 C 0.9120(5) 0.8162(7) 0.2506(9)
C29_12 C 0.9099(4) 0.8541(4) 0.2611(6)
C30_12 C 0.9383(3) 0.8678(4) 0.2797(6)
H21_12 H 0.9590 0.8548 0.2817
C31_12 C 0.9358(4) 0.9008(5) 0.2954(6)
C32_12 C 0.9049(4) 0.9201(4) 0.2924(6)
H22_12 H 0.9032 0.9422 0.3029
C33_12 C 0.8765(3) 0.9064(4) 0.2738(6)
C34_12 C 0.8790(3) 0.8734(5) 0.2582(6)
H23_12 H 0.8600 0.8643 0.2457
C35_12 C 0.9698(6) 0.9161(9) 0.3122(10)
C36_12 C 0.9672(6) 0.9384(10) 0.3412(10)
H24_12 H 0.9459 0.9452 0.3513
O14_12 O 0.8827(3) 0.7996(3) 0.2432(4)
O15_12 O 0.9386(4) 0.7980(5) 0.2557(6)
O16_12 O 0.8190(4) 0.9139(4) 0.2531(5)
C37_12 C 0.8405(3) 0.9228(3) 0.2755(4)
C38_12 C 0.9117(5) 0.7331(10) 0.3152(7)
C39_12 C 0.9086(4) 0.7268(8) 0.3537(4)
C40_12 C 0.8775(3) 0.7303(7) 0.3726(5)
H25_12 H 0.8579 0.7406 0.3622
C41_12 C 0.8756(4) 0.7183(7) 0.4072(5)
C42_12 C 0.9049(5) 0.7029(8) 0.4228(4)
H26_12 H 0.9037 0.6949 0.4459
C43_12 C 0.9360(4) 0.6994(8) 0.4039(5)
C44_12 C 0.9379(3) 0.7114(8) 0.3693(5)
H27_12 H 0.9587 0.7090 0.3567
C45_12 C 0.9682(4) 0.6834(11) 0.4206(10)
C46_12 C 0.9670(7) 0.6568(10) 0.4461(10)
H28_12 H 0.9466 0.6500 0.4577
C47_12 C 0.8436(3) 0.7275(3) 0.4288(4)
O18_12 O 0.8837(3) 0.7401(4) 0.3004(3)
O19_12 O 0.9400(3) 0.7344(6) 0.3002(4)
O20_12 O 0.8187(3) 0.7386(4) 0.4122(3)
O21_12 O 0.8424(6) 0.7242(6) 0.4609(5)
O22_12 O 0.9715(2) 0.7313(3) 0.2293(3)
Eu9_12 Eu 0.75613(2) 0.74351(2) 0.411293(16)
O29_12 O 0.9609(5) 0.6576(6) 0.2242(6)
C1_13 C 0.7506(9) 0.4120(5) 0.6838(7)
C2_13 C 0.7611(6) 0.4099(4) 0.6459(4)
C3_13 C 0.7797(6) 0.4383(3) 0.6322(4)
H1_13 H 0.7817 0.4590 0.6452
C4_13 C 0.7954(6) 0.4358(4) 0.5992(5)
C5_13 C 0.7924(6) 0.4049(4) 0.5799(4)
H2_13 H 0.8029 0.4032 0.5578
C6_13 C 0.7738(6) 0.3765(3) 0.5936(4)
C7_13 C 0.7582(6) 0.3790(3) 0.6266(5)
H3_13 H 0.7457 0.3600 0.6357
C8_13 C 0.8122(10) 0.4698(6) 0.5839(9)
C9_13 C 0.8412(10) 0.4672(6) 0.5616(10)
H4_13 H 0.8513 0.4459 0.5548
C10_25 C 0.8536(16) 0.5000 0.5506(14)
H5_25 H 0.8718 0.5000 0.5344
C11_13 C 0.8152(7) 0.4117(5) 0.7669(10)
C12_13 C 0.8537(4) 0.4086(4) 0.7732(8)
C13_13 C 0.8726(5) 0.3775(3) 0.7697(7)
H6_13 H 0.8622 0.3579 0.7594
C14_13 C 0.9072(5) 0.3756(4) 0.7817(7)
C15_13 C 0.9228(4) 0.4049(5) 0.7971(8)
H7_13 H 0.9459 0.4037 0.8051
C16_13 C 0.9039(5) 0.4360(4) 0.8006(8)
C17_13 C 0.8693(5) 0.4379(3) 0.7886(8)
H8_13 H 0.8567 0.4587 0.7910
C18_13 C 0.9206(10) 0.4682(4) 0.8166(11)
C19_13 C 0.9461(10) 0.4670(7) 0.8432(10)
H9_13 H 0.9577 0.4466 0.8500
C20_25 C 0.9522(15) 0.5000 0.8583(16)
H10_25 H 0.9613 0.5000 0.8810
C21_13 C 0.9288(4) 0.3436(3) 0.7725(3)
C22_13 C 0.7018(5) 0.3455(4) 0.7943(5)
H11_13 H 0.6946 0.3648 0.8075
C23_13 C 0.6611(5) 0.3128(5) 0.8301(4)
H12_13 H 0.6721 0.3055 0.8517
H13_13 H 0.6438 0.2957 0.8233
H14_13 H 0.6499 0.3352 0.8335
C24_13 C 0.6972(5) 0.2852(4) 0.7827(5)
H15_13 H 0.6780 0.2784 0.7678
H16_13 H 0.7030 0.2661 0.7982
H17_13 H 0.7173 0.2909 0.7684
C25_25 C 0.7434(7) 0.5000 0.7560(7)
H18_25 H 0.7616 0.5000 0.7396
C26_25 C 0.6171(17) 0.5000 0.8745(16)
H19_25 H 0.5989 0.5000 0.8908
N1_25 N 0.7987(12) 0.5000 0.5963(11)
N2_25 N 0.9091(15) 0.5000 0.8062(11)
N3_13 N 0.6871(4) 0.3157(3) 0.8033(4)
O1_13 O 0.7432(4) 0.3827(3) 0.7004(3)
O2_13 O 0.7557(6) 0.4386(4) 0.7020(5)
O3_13 O 0.8004(3) 0.3837(3) 0.7599(4)
O4_13 O 0.8002(4) 0.4400(3) 0.7656(6)
O5_13 O 0.9122(3) 0.3187(3) 0.7614(4)
O7_9 O 0.7531(5) 0.3190(4) 0.5861(4)
O8_9 O 0.7998(6) 0.3361(5) 0.5562(5)
O9_25 O 0.6225(6) 0.5000 0.8372(9)
O10_25 O 0.6582(8) 0.5000 0.8729(5)
O11_13 O 0.7240(3) 0.3524(3) 0.7711(3)
O12_13 O 0.7293(3) 0.4715(2) 0.7687(3)
O13_25 O 0.6536(10) 0.5000 0.7571(10)
H20_13 H 0.6590 0.5181 0.7452
C27_13 C 0.7755(4) 0.3405(3) 0.5772(3)
C28_13 C 0.7506(9) 0.5880(5) 0.6838(7)
C29_13 C 0.7611(6) 0.5901(4) 0.6459(4)
C30_13 C 0.7797(6) 0.5617(3) 0.6322(4)
H21_13 H 0.7817 0.5410 0.6452
C31_13 C 0.7954(6) 0.5642(4) 0.5992(5)
C32_13 C 0.7924(6) 0.5951(4) 0.5799(4)
H22_13 H 0.8029 0.5968 0.5578
C33_13 C 0.7738(6) 0.6235(3) 0.5936(4)
C34_13 C 0.7582(6) 0.6210(3) 0.6266(5)
H23_13 H 0.7457 0.6400 0.6357
C35_13 C 0.8122(10) 0.5302(6) 0.5839(9)
C36_13 C 0.8412(10) 0.5328(6) 0.5616(10)
H24_13 H 0.8513 0.5541 0.5548
O17_9 O 0.7998(6) 0.6639(5) 0.5562(5)
C37_13 C 0.7755(4) 0.6595(3) 0.5772(3)
C38_13 C 0.8152(7) 0.5883(5) 0.7669(10)
C39_13 C 0.8537(4) 0.5914(4) 0.7732(8)
C40_13 C 0.8726(5) 0.6225(3) 0.7697(7)
H25_13 H 0.8622 0.6421 0.7594
C41_13 C 0.9072(5) 0.6244(4) 0.7817(7)
C42_13 C 0.9228(4) 0.5951(5) 0.7971(8)
H26_13 H 0.9459 0.5963 0.8051
C43_13 C 0.9039(5) 0.5640(4) 0.8006(8)
C44_13 C 0.8693(5) 0.5621(3) 0.7886(8)
H27_13 H 0.8567 0.5413 0.7910
C45_13 C 0.9206(10) 0.5318(4) 0.8166(11)
C46_13 C 0.9461(10) 0.5330(7) 0.8432(10)
H28_13 H 0.9577 0.5534 0.8500
C47_13 C 0.9288(4) 0.6564(3) 0.7725(3)
H29_13 H 0.6590 0.4819 0.7452
C48_13 C 0.8455(4) 0.2943(5) 0.7982(5)
H30_13 H 0.8648 0.3075 0.8054
C49_13 C 0.8128(5) 0.3301(4) 0.8389(5)
H31_13 H 0.8055 0.3517 0.8279
H32_13 H 0.7957 0.3233 0.8562
H33_13 H 0.8352 0.3335 0.8501
C50_13 C 0.7852(4) 0.2827(5) 0.8028(5)
H34_13 H 0.7784 0.2678 0.8220
H35_13 H 0.7661 0.2982 0.7970
H36_13 H 0.7909 0.2684 0.7827
N4_13 N 0.8157(3) 0.3033(4) 0.8129(4)
O23_13 O 0.8524(3) 0.2711(3) 0.7760(3)
O31_5 O 0.6810(4) 0.4139(4) 0.7531(5)
O33_5 O 0.6639(5) 0.4438(5) 0.7998(6)
O34_5 O 0.6639(5) 0.5562(5) 0.7998(6)
C1_14 C 0.2494(9) 0.5880(5) 0.6838(7)
C2_14 C 0.2389(6) 0.5901(4) 0.6459(4)
C3_14 C 0.2203(6) 0.5617(3) 0.6322(4)
H1_14 H 0.2183 0.5410 0.6452
C4_14 C 0.2046(6) 0.5642(4) 0.5992(5)
C5_14 C 0.2076(6) 0.5951(4) 0.5799(4)
H2_14 H 0.1971 0.5968 0.5578
C6_14 C 0.2262(6) 0.6235(3) 0.5936(4)
C7_14 C 0.2418(6) 0.6210(3) 0.6266(5)
H3_14 H 0.2543 0.6400 0.6357
C8_14 C 0.1878(10) 0.5302(6) 0.5839(9)
C9_14 C 0.1588(10) 0.5328(6) 0.5616(10)
H4_14 H 0.1487 0.5541 0.5548
C10_26 C 0.1464(16) 0.5000 0.5506(14)
H5_26 H 0.1282 0.5000 0.5344
C11_14 C 0.1848(7) 0.5883(5) 0.7669(10)
C12_14 C 0.1463(4) 0.5914(4) 0.7732(8)
C13_14 C 0.1274(5) 0.6225(3) 0.7697(7)
H6_14 H 0.1378 0.6421 0.7594
C14_14 C 0.0928(5) 0.6244(4) 0.7817(7)
C15_14 C 0.0772(4) 0.5951(5) 0.7971(8)
H7_14 H 0.0541 0.5963 0.8051
C16_14 C 0.0961(5) 0.5640(4) 0.8006(8)
C17_14 C 0.1307(5) 0.5621(3) 0.7886(8)
H8_14 H 0.1433 0.5413 0.7910
C18_14 C 0.0794(10) 0.5318(4) 0.8166(11)
C19_14 C 0.0539(10) 0.5330(7) 0.8432(10)
H9_14 H 0.0423 0.5534 0.8500
C20_26 C 0.0478(15) 0.5000 0.8583(16)
H10_26 H 0.0387 0.5000 0.8810
C21_14 C 0.0712(4) 0.6564(3) 0.7725(3)
C22_14 C 0.2982(5) 0.6545(4) 0.7943(5)
H11_14 H 0.3054 0.6352 0.8075
C23_14 C 0.3389(5) 0.6872(5) 0.8301(4)
H12_14 H 0.3279 0.6945 0.8517
H13_14 H 0.3562 0.7043 0.8233
H14_14 H 0.3501 0.6648 0.8335
C24_14 C 0.3028(5) 0.7148(4) 0.7827(5)
H15_14 H 0.3220 0.7216 0.7678
H16_14 H 0.2970 0.7339 0.7982
H17_14 H 0.2827 0.7091 0.7684
C25_26 C 0.2566(7) 0.5000 0.7560(7)
H18_26 H 0.2384 0.5000 0.7396
C26_26 C 0.3829(17) 0.5000 0.8745(16)
H19_26 H 0.4011 0.5000 0.8908
N1_26 N 0.2013(12) 0.5000 0.5963(11)
N2_26 N 0.0909(15) 0.5000 0.8062(11)
N3_14 N 0.3129(4) 0.6843(3) 0.8033(4)
O1_14 O 0.2568(4) 0.6173(3) 0.7004(3)
O2_14 O 0.2443(6) 0.5614(4) 0.7020(5)
O3_14 O 0.1996(3) 0.6163(3) 0.7599(4)
O4_14 O 0.1998(4) 0.5600(3) 0.7656(6)
O5_14 O 0.0878(3) 0.6813(3) 0.7614(4)
O7_10 O 0.2469(5) 0.6810(4) 0.5861(4)
O8_10 O 0.2002(6) 0.6639(5) 0.5562(5)
O9_26 O 0.3775(6) 0.5000 0.8372(9)
O10_26 O 0.3418(8) 0.5000 0.8729(5)
O11_14 O 0.2760(3) 0.6476(3) 0.7711(3)
O12_14 O 0.2707(3) 0.5285(2) 0.7687(3)
O13_26 O 0.3464(10) 0.5000 0.7571(10)
H20_14 H 0.3410 0.4819 0.7452
C27_14 C 0.2245(4) 0.6595(3) 0.5772(3)
C28_14 C 0.2494(9) 0.4120(5) 0.6838(7)
C29_14 C 0.2389(6) 0.4099(4) 0.6459(4)
C30_14 C 0.2203(6) 0.4383(3) 0.6322(4)
H21_14 H 0.2183 0.4590 0.6452
C31_14 C 0.2046(6) 0.4358(4) 0.5992(5)
C32_14 C 0.2076(6) 0.4049(4) 0.5799(4)
H22_14 H 0.1971 0.4032 0.5578
C33_14 C 0.2262(6) 0.3765(3) 0.5936(4)
C34_14 C 0.2418(6) 0.3790(3) 0.6266(5)
H23_14 H 0.2543 0.3600 0.6357
C35_14 C 0.1878(10) 0.4698(6) 0.5839(9)
C36_14 C 0.1588(10) 0.4672(6) 0.5616(10)
H24_14 H 0.1487 0.4459 0.5548
O17_10 O 0.2002(6) 0.3361(5) 0.5562(5)
C37_14 C 0.2245(4) 0.3405(3) 0.5772(3)
C38_14 C 0.1848(7) 0.4117(5) 0.7669(10)
C39_14 C 0.1463(4) 0.4086(4) 0.7732(8)
C40_14 C 0.1274(5) 0.3775(3) 0.7697(7)
H25_14 H 0.1378 0.3579 0.7594
C41_14 C 0.0928(5) 0.3756(4) 0.7817(7)
C42_14 C 0.0772(4) 0.4049(5) 0.7971(8)
H26_14 H 0.0541 0.4037 0.8051
C43_14 C 0.0961(5) 0.4360(4) 0.8006(8)
C44_14 C 0.1307(5) 0.4379(3) 0.7886(8)
H27_14 H 0.1433 0.4587 0.7910
C45_14 C 0.0794(10) 0.4682(4) 0.8166(11)
C46_14 C 0.0539(10) 0.4670(7) 0.8432(10)
H28_14 H 0.0423 0.4466 0.8500
C47_14 C 0.0712(4) 0.3436(3) 0.7725(3)
H29_14 H 0.3410 0.5181 0.7452
C48_14 C 0.1545(4) 0.7057(5) 0.7982(5)
H30_14 H 0.1352 0.6925 0.8054
C49_14 C 0.1872(5) 0.6699(4) 0.8389(5)
H31_14 H 0.1945 0.6483 0.8279
H32_14 H 0.2043 0.6767 0.8562
H33_14 H 0.1648 0.6665 0.8501
C50_14 C 0.2148(4) 0.7173(5) 0.8028(5)
H34_14 H 0.2216 0.7322 0.8220
H35_14 H 0.2339 0.7018 0.7970
H36_14 H 0.2091 0.7316 0.7827
N4_14 N 0.1843(3) 0.6967(4) 0.8129(4)
O23_14 O 0.1476(3) 0.7289(3) 0.7760(3)
O31_6 O 0.3190(4) 0.5861(4) 0.7531(5)
O33_6 O 0.3361(5) 0.5562(5) 0.7998(6)
O34_6 O 0.3361(5) 0.4438(5) 0.7998(6)
C1_15 C 0.2494(9) 0.4120(5) 0.3162(7)
C2_15 C 0.2389(6) 0.4099(4) 0.3541(4)
C3_15 C 0.2203(6) 0.4383(3) 0.3678(4)
H1_15 H 0.2183 0.4590 0.3548
C4_15 C 0.2046(6) 0.4358(4) 0.4008(5)
C5_15 C 0.2076(6) 0.4049(4) 0.4201(4)
H2_15 H 0.1971 0.4032 0.4422
C6_15 C 0.2262(6) 0.3765(3) 0.4064(4)
C7_15 C 0.2418(6) 0.3790(3) 0.3734(5)
H3_15 H 0.2543 0.3600 0.3643
C8_15 C 0.1878(10) 0.4698(6) 0.4161(9)
C9_15 C 0.1588(10) 0.4672(6) 0.4384(10)
H4_15 H 0.1487 0.4459 0.4452
C10_27 C 0.1464(16) 0.5000 0.4494(14)
H5_27 H 0.1282 0.5000 0.4656
C11_15 C 0.1848(7) 0.4117(5) 0.2331(10)
C12_15 C 0.1463(4) 0.4086(4) 0.2268(8)
C13_15 C 0.1274(5) 0.3775(3) 0.2303(7)
H6_15 H 0.1378 0.3579 0.2406
C14_15 C 0.0928(5) 0.3756(4) 0.2183(7)
C15_15 C 0.0772(4) 0.4049(5) 0.2029(8)
H7_15 H 0.0541 0.4037 0.1949
C16_15 C 0.0961(5) 0.4360(4) 0.1994(8)
C17_15 C 0.1307(5) 0.4379(3) 0.2114(8)
H8_15 H 0.1433 0.4587 0.2090
C18_15 C 0.0794(10) 0.4682(4) 0.1834(11)
C19_15 C 0.0539(10) 0.4670(7) 0.1568(10)
H9_15 H 0.0423 0.4466 0.1500
C20_27 C 0.0478(15) 0.5000 0.1417(16)
H10_27 H 0.0387 0.5000 0.1190
C21_15 C 0.0712(4) 0.3436(3) 0.2275(3)
C22_15 C 0.2982(5) 0.3455(4) 0.2057(5)
H11_15 H 0.3054 0.3648 0.1925
C23_15 C 0.3389(5) 0.3128(5) 0.1699(4)
H12_15 H 0.3279 0.3055 0.1483
H13_15 H 0.3562 0.2957 0.1767
H14_15 H 0.3501 0.3352 0.1665
C24_15 C 0.3028(5) 0.2852(4) 0.2173(5)
H15_15 H 0.3220 0.2784 0.2322
H16_15 H 0.2970 0.2661 0.2018
H17_15 H 0.2827 0.2909 0.2316
C25_27 C 0.2566(7) 0.5000 0.2440(7)
H18_27 H 0.2384 0.5000 0.2604
C26_27 C 0.3829(17) 0.5000 0.1255(16)
H19_27 H 0.4011 0.5000 0.1092
N1_27 N 0.2013(12) 0.5000 0.4037(11)
N2_27 N 0.0909(15) 0.5000 0.1938(11)
N3_15 N 0.3129(4) 0.3157(3) 0.1967(4)
O1_15 O 0.2568(4) 0.3827(3) 0.2996(3)
O2_15 O 0.2443(6) 0.4386(4) 0.2980(5)
O3_15 O 0.1996(3) 0.3837(3) 0.2401(4)
O4_15 O 0.1998(4) 0.4400(3) 0.2344(6)
O5_15 O 0.0878(3) 0.3187(3) 0.2386(4)
O7_11 O 0.2469(5) 0.3190(4) 0.4139(4)
O8_11 O 0.2002(6) 0.3361(5) 0.4438(5)
O9_27 O 0.3775(6) 0.5000 0.1628(9)
O10_27 O 0.3418(8) 0.5000 0.1271(5)
O11_15 O 0.2760(3) 0.3524(3) 0.2289(3)
O12_15 O 0.2707(3) 0.4715(2) 0.2313(3)
O13_27 O 0.3464(10) 0.5000 0.2429(10)
H20_15 H 0.3410 0.5181 0.2548
C27_15 C 0.2245(4) 0.3405(3) 0.4228(3)
C28_15 C 0.2494(9) 0.5880(5) 0.3162(7)
C29_15 C 0.2389(6) 0.5901(4) 0.3541(4)
C30_15 C 0.2203(6) 0.5617(3) 0.3678(4)
H21_15 H 0.2183 0.5410 0.3548
C31_15 C 0.2046(6) 0.5642(4) 0.4008(5)
C32_15 C 0.2076(6) 0.5951(4) 0.4201(4)
H22_15 H 0.1971 0.5968 0.4422
C33_15 C 0.2262(6) 0.6235(3) 0.4064(4)
C34_15 C 0.2418(6) 0.6210(3) 0.3734(5)
H23_15 H 0.2543 0.6400 0.3643
C35_15 C 0.1878(10) 0.5302(6) 0.4161(9)
C36_15 C 0.1588(10) 0.5328(6) 0.4384(10)
H24_15 H 0.1487 0.5541 0.4452
O17_11 O 0.2002(6) 0.6639(5) 0.4438(5)
C37_15 C 0.2245(4) 0.6595(3) 0.4228(3)
C38_15 C 0.1848(7) 0.5883(5) 0.2331(10)
C39_15 C 0.1463(4) 0.5914(4) 0.2268(8)
C40_15 C 0.1274(5) 0.6225(3) 0.2303(7)
H25_15 H 0.1378 0.6421 0.2406
C41_15 C 0.0928(5) 0.6244(4) 0.2183(7)
C42_15 C 0.0772(4) 0.5951(5) 0.2029(8)
H26_15 H 0.0541 0.5963 0.1949
C43_15 C 0.0961(5) 0.5640(4) 0.1994(8)
C44_15 C 0.1307(5) 0.5621(3) 0.2114(8)
H27_15 H 0.1433 0.5413 0.2090
C45_15 C 0.0794(10) 0.5318(4) 0.1834(11)
C46_15 C 0.0539(10) 0.5330(7) 0.1568(10)
H28_15 H 0.0423 0.5534 0.1500
C47_15 C 0.0712(4) 0.6564(3) 0.2275(3)
H29_15 H 0.3410 0.4819 0.2548
C48_15 C 0.1545(4) 0.2943(5) 0.2018(5)
H30_15 H 0.1352 0.3075 0.1946
C49_15 C 0.1872(5) 0.3301(4) 0.1611(5)
H31_15 H 0.1945 0.3517 0.1721
H32_15 H 0.2043 0.3233 0.1438
H33_15 H 0.1648 0.3335 0.1499
C50_15 C 0.2148(4) 0.2827(5) 0.1972(5)
H34_15 H 0.2216 0.2678 0.1780
H35_15 H 0.2339 0.2982 0.2030
H36_15 H 0.2091 0.2684 0.2173
N4_15 N 0.1843(3) 0.3033(4) 0.1871(4)
O23_15 O 0.1476(3) 0.2711(3) 0.2240(3)
O31_7 O 0.3190(4) 0.4139(4) 0.2469(5)
O33_7 O 0.3361(5) 0.4438(5) 0.2002(6)
O34_7 O 0.3361(5) 0.5562(5) 0.2002(6)
C1_16 C 0.7506(9) 0.5880(5) 0.3162(7)
C2_16 C 0.7611(6) 0.5901(4) 0.3541(4)
C3_16 C 0.7797(6) 0.5617(3) 0.3678(4)
H1_16 H 0.7817 0.5410 0.3548
C4_16 C 0.7954(6) 0.5642(4) 0.4008(5)
C5_16 C 0.7924(6) 0.5951(4) 0.4201(4)
H2_16 H 0.8029 0.5968 0.4422
C6_16 C 0.7738(6) 0.6235(3) 0.4064(4)
C7_16 C 0.7582(6) 0.6210(3) 0.3734(5)
H3_16 H 0.7457 0.6400 0.3643
C8_16 C 0.8122(10) 0.5302(6) 0.4161(9)
C9_16 C 0.8412(10) 0.5328(6) 0.4384(10)
H4_16 H 0.8513 0.5541 0.4452
C10_28 C 0.8536(16) 0.5000 0.4494(14)
H5_28 H 0.8718 0.5000 0.4656
C11_16 C 0.8152(7) 0.5883(5) 0.2331(10)
C12_16 C 0.8537(4) 0.5914(4) 0.2268(8)
C13_16 C 0.8726(5) 0.6225(3) 0.2303(7)
H6_16 H 0.8622 0.6421 0.2406
C14_16 C 0.9072(5) 0.6244(4) 0.2183(7)
C15_16 C 0.9228(4) 0.5951(5) 0.2029(8)
H7_16 H 0.9459 0.5963 0.1949
C16_16 C 0.9039(5) 0.5640(4) 0.1994(8)
C17_16 C 0.8693(5) 0.5621(3) 0.2114(8)
H8_16 H 0.8567 0.5413 0.2090
C18_16 C 0.9206(10) 0.5318(4) 0.1834(11)
C19_16 C 0.9461(10) 0.5330(7) 0.1568(10)
H9_16 H 0.9577 0.5534 0.1500
C20_28 C 0.9522(15) 0.5000 0.1417(16)
H10_28 H 0.9613 0.5000 0.1190
C21_16 C 0.9288(4) 0.6564(3) 0.2275(3)
C22_16 C 0.7018(5) 0.6545(4) 0.2057(5)
H11_16 H 0.6946 0.6352 0.1925
C23_16 C 0.6611(5) 0.6872(5) 0.1699(4)
H12_16 H 0.6721 0.6945 0.1483
H13_16 H 0.6438 0.7043 0.1767
H14_16 H 0.6499 0.6648 0.1665
C24_16 C 0.6972(5) 0.7148(4) 0.2173(5)
H15_16 H 0.6780 0.7216 0.2322
H16_16 H 0.7030 0.7339 0.2018
H17_16 H 0.7173 0.7091 0.2316
C25_28 C 0.7434(7) 0.5000 0.2440(7)
H18_28 H 0.7616 0.5000 0.2604
C26_28 C 0.6171(17) 0.5000 0.1255(16)
H19_28 H 0.5989 0.5000 0.1092
N1_28 N 0.7987(12) 0.5000 0.4037(11)
N2_28 N 0.9091(15) 0.5000 0.1938(11)
N3_16 N 0.6871(4) 0.6843(3) 0.1967(4)
O1_16 O 0.7432(4) 0.6173(3) 0.2996(3)
O2_16 O 0.7557(6) 0.5614(4) 0.2980(5)
O3_16 O 0.8004(3) 0.6163(3) 0.2401(4)
O4_16 O 0.8002(4) 0.5600(3) 0.2344(6)
O5_16 O 0.9122(3) 0.6813(3) 0.2386(4)
O7_12 O 0.7531(5) 0.6810(4) 0.4139(4)
O8_12 O 0.7998(6) 0.6639(5) 0.4438(5)
O9_28 O 0.6225(6) 0.5000 0.1628(9)
O10_28 O 0.6582(8) 0.5000 0.1271(5)
O11_16 O 0.7240(3) 0.6476(3) 0.2289(3)
O12_16 O 0.7293(3) 0.5285(2) 0.2313(3)
O13_28 O 0.6536(10) 0.5000 0.2429(10)
H20_16 H 0.6590 0.4819 0.2548
C27_16 C 0.7755(4) 0.6595(3) 0.4228(3)
C28_16 C 0.7506(9) 0.4120(5) 0.3162(7)
C29_16 C 0.7611(6) 0.4099(4) 0.3541(4)
C30_16 C 0.7797(6) 0.4383(3) 0.3678(4)
H21_16 H 0.7817 0.4590 0.3548
C31_16 C 0.7954(6) 0.4358(4) 0.4008(5)
C32_16 C 0.7924(6) 0.4049(4) 0.4201(4)
H22_16 H 0.8029 0.4032 0.4422
C33_16 C 0.7738(6) 0.3765(3) 0.4064(4)
C34_16 C 0.7582(6) 0.3790(3) 0.3734(5)
H23_16 H 0.7457 0.3600 0.3643
C35_16 C 0.8122(10) 0.4698(6) 0.4161(9)
C36_16 C 0.8412(10) 0.4672(6) 0.4384(10)
H24_16 H 0.8513 0.4459 0.4452
O17_12 O 0.7998(6) 0.3361(5) 0.4438(5)
C37_16 C 0.7755(4) 0.3405(3) 0.4228(3)
C38_16 C 0.8152(7) 0.4117(5) 0.2331(10)
C39_16 C 0.8537(4) 0.4086(4) 0.2268(8)
C40_16 C 0.8726(5) 0.3775(3) 0.2303(7)
H25_16 H 0.8622 0.3579 0.2406
C41_16 C 0.9072(5) 0.3756(4) 0.2183(7)
C42_16 C 0.9228(4) 0.4049(5) 0.2029(8)
H26_16 H 0.9459 0.4037 0.1949
C43_16 C 0.9039(5) 0.4360(4) 0.1994(8)
C44_16 C 0.8693(5) 0.4379(3) 0.2114(8)
H27_16 H 0.8567 0.4587 0.2090
C45_16 C 0.9206(10) 0.4682(4) 0.1834(11)
C46_16 C 0.9461(10) 0.4670(7) 0.1568(10)
H28_16 H 0.9577 0.4466 0.1500
C47_16 C 0.9288(4) 0.3436(3) 0.2275(3)
H29_16 H 0.6590 0.5181 0.2548
C48_16 C 0.8455(4) 0.7057(5) 0.2018(5)
H30_16 H 0.8648 0.6925 0.1946
C49_16 C 0.8128(5) 0.6699(4) 0.1611(5)
H31_16 H 0.8055 0.6483 0.1721
H32_16 H 0.7957 0.6767 0.1438
H33_16 H 0.8352 0.6665 0.1499
C50_16 C 0.7852(4) 0.7173(5) 0.1972(5)
H34_16 H 0.7784 0.7322 0.1780
H35_16 H 0.7661 0.7018 0.2030
H36_16 H 0.7909 0.7316 0.2173
N4_16 N 0.8157(3) 0.6967(4) 0.1871(4)
O23_16 O 0.8524(3) 0.7289(3) 0.2240(3)
O31_8 O 0.6810(4) 0.5861(4) 0.2469(5)
O33_8 O 0.6639(5) 0.5562(5) 0.2002(6)
O34_8 O 0.6639(5) 0.4438(5) 0.2002(6)
C1_17 C 0.6838(7) 0.7506(9) 0.4120(5)
C2_17 C 0.6459(4) 0.7611(6) 0.4099(4)
C3_17 C 0.6322(4) 0.7797(6) 0.4383(3)
H1_17 H 0.6452 0.7817 0.4590
C4_17 C 0.5992(5) 0.7954(6) 0.4358(4)
C5_17 C 0.5799(4) 0.7924(6) 0.4049(4)
H2_17 H 0.5578 0.8029 0.4032
C6_17 C 0.5936(4) 0.7738(6) 0.3765(3)
C7_17 C 0.6266(5) 0.7582(6) 0.3790(3)
H3_17 H 0.6357 0.7457 0.3600
C8_17 C 0.5839(9) 0.8122(10) 0.4698(6)
C9_17 C 0.5616(10) 0.8412(10) 0.4672(6)
H4_17 H 0.5548 0.8513 0.4459
C10_29 C 0.5506(14) 0.8536(16) 0.5000
H5_29 H 0.5344 0.8718 0.5000
C11_17 C 0.7669(10) 0.8152(7) 0.4117(5)
C12_17 C 0.7732(8) 0.8537(4) 0.4086(4)
C13_17 C 0.7697(7) 0.8726(5) 0.3775(3)
H6_17 H 0.7594 0.8622 0.3579
C14_17 C 0.7817(7) 0.9072(5) 0.3756(4)
C15_17 C 0.7971(8) 0.9228(4) 0.4049(5)
H7_17 H 0.8051 0.9459 0.4037
C16_17 C 0.8006(8) 0.9039(5) 0.4360(4)
C17_17 C 0.7886(8) 0.8693(5) 0.4379(3)
H8_17 H 0.7910 0.8567 0.4587
C18_17 C 0.8166(11) 0.9206(10) 0.4682(4)
C19_17 C 0.8432(10) 0.9461(10) 0.4670(7)
H9_17 H 0.8500 0.9577 0.4466
C20_29 C 0.8583(16) 0.9522(15) 0.5000
H10_29 H 0.8810 0.9613 0.5000
C21_17 C 0.7725(3) 0.9288(4) 0.3436(3)
C22_17 C 0.7943(5) 0.7018(5) 0.3455(4)
H11_17 H 0.8075 0.6946 0.3648
C23_17 C 0.8301(4) 0.6611(5) 0.3128(5)
H12_17 H 0.8517 0.6721 0.3055
H13_17 H 0.8233 0.6438 0.2957
H14_17 H 0.8335 0.6499 0.3352
C24_17 C 0.7827(5) 0.6972(5) 0.2852(4)
H15_17 H 0.7678 0.6780 0.2784
H16_17 H 0.7982 0.7030 0.2661
H17_17 H 0.7684 0.7173 0.2909
C25_29 C 0.7560(7) 0.7434(7) 0.5000
H18_29 H 0.7396 0.7616 0.5000
C26_29 C 0.8745(16) 0.6171(17) 0.5000
H19_29 H 0.8908 0.5989 0.5000
N1_29 N 0.5963(11) 0.7987(12) 0.5000
N2_29 N 0.8062(11) 0.9091(15) 0.5000
N3_17 N 0.8033(4) 0.6871(4) 0.3157(3)
O1_17 O 0.7004(3) 0.7432(4) 0.3827(3)
O2_17 O 0.7020(5) 0.7557(6) 0.4386(4)
O3_17 O 0.7599(4) 0.8004(3) 0.3837(3)
O4_17 O 0.7656(6) 0.8002(4) 0.4400(3)
O5_17 O 0.7614(4) 0.9122(3) 0.3187(3)
O7_13 O 0.5861(4) 0.7531(5) 0.3190(4)
O8_13 O 0.5562(5) 0.7998(6) 0.3361(5)
O9_29 O 0.8372(9) 0.6225(6) 0.5000
O10_29 O 0.8729(5) 0.6582(8) 0.5000
O11_17 O 0.7711(3) 0.7240(3) 0.3524(3)
O12_17 O 0.7687(3) 0.7293(3) 0.4715(2)
O13_29 O 0.7571(10) 0.6536(10) 0.5000
H20_17 H 0.7452 0.6590 0.5181
C27_17 C 0.5772(3) 0.7755(4) 0.3405(3)
C28_17 C 0.6838(7) 0.7506(9) 0.5880(5)
C29_17 C 0.6459(4) 0.7611(6) 0.5901(4)
C30_17 C 0.6322(4) 0.7797(6) 0.5617(3)
H21_17 H 0.6452 0.7817 0.5410
C31_17 C 0.5992(5) 0.7954(6) 0.5642(4)
C32_17 C 0.5799(4) 0.7924(6) 0.5951(4)
H22_17 H 0.5578 0.8029 0.5968
C33_17 C 0.5936(4) 0.7738(6) 0.6235(3)
C34_17 C 0.6266(5) 0.7582(6) 0.6210(3)
H23_17 H 0.6357 0.7457 0.6400
C35_17 C 0.5839(9) 0.8122(10) 0.5302(6)
C36_17 C 0.5616(10) 0.8412(10) 0.5328(6)
H24_17 H 0.5548 0.8513 0.5541
O17_13 O 0.5562(5) 0.7998(6) 0.6639(5)
C37_17 C 0.5772(3) 0.7755(4) 0.6595(3)
C38_17 C 0.7669(10) 0.8152(7) 0.5883(5)
C39_17 C 0.7732(8) 0.8537(4) 0.5914(4)
C40_17 C 0.7697(7) 0.8726(5) 0.6225(3)
H25_17 H 0.7594 0.8622 0.6421
C41_17 C 0.7817(7) 0.9072(5) 0.6244(4)
C42_17 C 0.7971(8) 0.9228(4) 0.5951(5)
H26_17 H 0.8051 0.9459 0.5963
C43_17 C 0.8006(8) 0.9039(5) 0.5640(4)
C44_17 C 0.7886(8) 0.8693(5) 0.5621(3)
H27_17 H 0.7910 0.8567 0.5413
C45_17 C 0.8166(11) 0.9206(10) 0.5318(4)
C46_17 C 0.8432(10) 0.9461(10) 0.5330(7)
H28_17 H 0.8500 0.9577 0.5534
C47_17 C 0.7725(3) 0.9288(4) 0.6564(3)
H29_17 H 0.7452 0.6590 0.4819
C48_17 C 0.7982(5) 0.8455(4) 0.2943(5)
H30_17 H 0.8054 0.8648 0.3075
C49_17 C 0.8389(5) 0.8128(5) 0.3301(4)
H31_17 H 0.8279 0.8055 0.3517
H32_17 H 0.8562 0.7957 0.3233
H33_17 H 0.8501 0.8352 0.3335
C50_17 C 0.8028(5) 0.7852(4) 0.2827(5)
H34_17 H 0.8220 0.7784 0.2678
H35_17 H 0.7970 0.7661 0.2982
H36_17 H 0.7827 0.7909 0.2684
N4_17 N 0.8129(4) 0.8157(3) 0.3033(4)
O23_17 O 0.7760(3) 0.8524(3) 0.2711(3)
C1_18 C 0.6838(7) 0.2494(9) 0.5880(5)
C2_18 C 0.6459(4) 0.2389(6) 0.5901(4)
C3_18 C 0.6322(4) 0.2203(6) 0.5617(3)
H1_18 H 0.6452 0.2183 0.5410
C4_18 C 0.5992(5) 0.2046(6) 0.5642(4)
C5_18 C 0.5799(4) 0.2076(6) 0.5951(4)
H2_18 H 0.5578 0.1971 0.5968
C6_18 C 0.5936(4) 0.2262(6) 0.6235(3)
C7_18 C 0.6266(5) 0.2418(6) 0.6210(3)
H3_18 H 0.6357 0.2543 0.6400
C8_18 C 0.5839(9) 0.1878(10) 0.5302(6)
C9_18 C 0.5616(10) 0.1588(10) 0.5328(6)
H4_18 H 0.5548 0.1487 0.5541
C10_30 C 0.5506(14) 0.1464(16) 0.5000
H5_30 H 0.5344 0.1282 0.5000
C11_18 C 0.7669(10) 0.1848(7) 0.5883(5)
C12_18 C 0.7732(8) 0.1463(4) 0.5914(4)
C13_18 C 0.7697(7) 0.1274(5) 0.6225(3)
H6_18 H 0.7594 0.1378 0.6421
C14_18 C 0.7817(7) 0.0928(5) 0.6244(4)
C15_18 C 0.7971(8) 0.0772(4) 0.5951(5)
H7_18 H 0.8051 0.0541 0.5963
C16_18 C 0.8006(8) 0.0961(5) 0.5640(4)
C17_18 C 0.7886(8) 0.1307(5) 0.5621(3)
H8_18 H 0.7910 0.1433 0.5413
C18_18 C 0.8166(11) 0.0794(10) 0.5318(4)
C19_18 C 0.8432(10) 0.0539(10) 0.5330(7)
H9_18 H 0.8500 0.0423 0.5534
C20_30 C 0.8583(16) 0.0478(15) 0.5000
H10_30 H 0.8810 0.0387 0.5000
C21_18 C 0.7725(3) 0.0712(4) 0.6564(3)
C22_18 C 0.7943(5) 0.2982(5) 0.6545(4)
H11_18 H 0.8075 0.3054 0.6352
C23_18 C 0.8301(4) 0.3389(5) 0.6872(5)
H12_18 H 0.8517 0.3279 0.6945
H13_18 H 0.8233 0.3562 0.7043
H14_18 H 0.8335 0.3501 0.6648
C24_18 C 0.7827(5) 0.3028(5) 0.7148(4)
H15_18 H 0.7678 0.3220 0.7216
H16_18 H 0.7982 0.2970 0.7339
H17_18 H 0.7684 0.2827 0.7091
C25_30 C 0.7560(7) 0.2566(7) 0.5000
H18_30 H 0.7396 0.2384 0.5000
C26_30 C 0.8745(16) 0.3829(17) 0.5000
H19_30 H 0.8908 0.4011 0.5000
N1_30 N 0.5963(11) 0.2013(12) 0.5000
N2_30 N 0.8062(11) 0.0909(15) 0.5000
N3_18 N 0.8033(4) 0.3129(4) 0.6843(3)
O1_18 O 0.7004(3) 0.2568(4) 0.6173(3)
O2_18 O 0.7020(5) 0.2443(6) 0.5614(4)
O3_18 O 0.7599(4) 0.1996(3) 0.6163(3)
O4_18 O 0.7656(6) 0.1998(4) 0.5600(3)
O5_18 O 0.7614(4) 0.0878(3) 0.6813(3)
O7_14 O 0.5861(4) 0.2469(5) 0.6810(4)
O8_14 O 0.5562(5) 0.2002(6) 0.6639(5)
O9_30 O 0.8372(9) 0.3775(6) 0.5000
O10_30 O 0.8729(5) 0.3418(8) 0.5000
O11_18 O 0.7711(3) 0.2760(3) 0.6476(3)
O12_18 O 0.7687(3) 0.2707(3) 0.5285(2)
O13_30 O 0.7571(10) 0.3464(10) 0.5000
H20_18 H 0.7452 0.3410 0.4819
C27_18 C 0.5772(3) 0.2245(4) 0.6595(3)
C28_18 C 0.6838(7) 0.2494(9) 0.4120(5)
C29_18 C 0.6459(4) 0.2389(6) 0.4099(4)
C30_18 C 0.6322(4) 0.2203(6) 0.4383(3)
H21_18 H 0.6452 0.2183 0.4590
C31_18 C 0.5992(5) 0.2046(6) 0.4358(4)
C32_18 C 0.5799(4) 0.2076(6) 0.4049(4)
H22_18 H 0.5578 0.1971 0.4032
C33_18 C 0.5936(4) 0.2262(6) 0.3765(3)
C34_18 C 0.6266(5) 0.2418(6) 0.3790(3)
H23_18 H 0.6357 0.2543 0.3600
C35_18 C 0.5839(9) 0.1878(10) 0.4698(6)
C36_18 C 0.5616(10) 0.1588(10) 0.4672(6)
H24_18 H 0.5548 0.1487 0.4459
O17_14 O 0.5562(5) 0.2002(6) 0.3361(5)
C37_18 C 0.5772(3) 0.2245(4) 0.3405(3)
C38_18 C 0.7669(10) 0.1848(7) 0.4117(5)
C39_18 C 0.7732(8) 0.1463(4) 0.4086(4)
C40_18 C 0.7697(7) 0.1274(5) 0.3775(3)
H25_18 H 0.7594 0.1378 0.3579
C41_18 C 0.7817(7) 0.0928(5) 0.3756(4)
C42_18 C 0.7971(8) 0.0772(4) 0.4049(5)
H26_18 H 0.8051 0.0541 0.4037
C43_18 C 0.8006(8) 0.0961(5) 0.4360(4)
C44_18 C 0.7886(8) 0.1307(5) 0.4379(3)
H27_18 H 0.7910 0.1433 0.4587
C45_18 C 0.8166(11) 0.0794(10) 0.4682(4)
C46_18 C 0.8432(10) 0.0539(10) 0.4670(7)
H28_18 H 0.8500 0.0423 0.4466
C47_18 C 0.7725(3) 0.0712(4) 0.3436(3)
H29_18 H 0.7452 0.3410 0.5181
C48_18 C 0.7982(5) 0.1545(4) 0.7057(5)
H30_18 H 0.8054 0.1352 0.6925
C49_18 C 0.8389(5) 0.1872(5) 0.6699(4)
H31_18 H 0.8279 0.1945 0.6483
H32_18 H 0.8562 0.2043 0.6767
H33_18 H 0.8501 0.1648 0.6665
C50_18 C 0.8028(5) 0.2148(4) 0.7173(5)
H34_18 H 0.8220 0.2216 0.7322
H35_18 H 0.7970 0.2339 0.7018
H36_18 H 0.7827 0.2091 0.7316
N4_18 N 0.8129(4) 0.1843(3) 0.6967(4)
O23_18 O 0.7760(3) 0.1476(3) 0.7289(3)
C1_19 C 0.3162(7) 0.2494(9) 0.4120(5)
C2_19 C 0.3541(4) 0.2389(6) 0.4099(4)
C3_19 C 0.3678(4) 0.2203(6) 0.4383(3)
H1_19 H 0.3548 0.2183 0.4590
C4_19 C 0.4008(5) 0.2046(6) 0.4358(4)
C5_19 C 0.4201(4) 0.2076(6) 0.4049(4)
H2_19 H 0.4422 0.1971 0.4032
C6_19 C 0.4064(4) 0.2262(6) 0.3765(3)
C7_19 C 0.3734(5) 0.2418(6) 0.3790(3)
H3_19 H 0.3643 0.2543 0.3600
C8_19 C 0.4161(9) 0.1878(10) 0.4698(6)
C9_19 C 0.4384(10) 0.1588(10) 0.4672(6)
H4_19 H 0.4452 0.1487 0.4459
C10_31 C 0.4494(14) 0.1464(16) 0.5000
H5_31 H 0.4656 0.1282 0.5000
C11_19 C 0.2331(10) 0.1848(7) 0.4117(5)
C12_19 C 0.2268(8) 0.1463(4) 0.4086(4)
C13_19 C 0.2303(7) 0.1274(5) 0.3775(3)
H6_19 H 0.2406 0.1378 0.3579
C14_19 C 0.2183(7) 0.0928(5) 0.3756(4)
C15_19 C 0.2029(8) 0.0772(4) 0.4049(5)
H7_19 H 0.1949 0.0541 0.4037
C16_19 C 0.1994(8) 0.0961(5) 0.4360(4)
C17_19 C 0.2114(8) 0.1307(5) 0.4379(3)
H8_19 H 0.2090 0.1433 0.4587
C18_19 C 0.1834(11) 0.0794(10) 0.4682(4)
C19_19 C 0.1568(10) 0.0539(10) 0.4670(7)
H9_19 H 0.1500 0.0423 0.4466
C20_31 C 0.1417(16) 0.0478(15) 0.5000
H10_31 H 0.1190 0.0387 0.5000
C21_19 C 0.2275(3) 0.0712(4) 0.3436(3)
C22_19 C 0.2057(5) 0.2982(5) 0.3455(4)
H11_19 H 0.1925 0.3054 0.3648
C23_19 C 0.1699(4) 0.3389(5) 0.3128(5)
H12_19 H 0.1483 0.3279 0.3055
H13_19 H 0.1767 0.3562 0.2957
H14_19 H 0.1665 0.3501 0.3352
C24_19 C 0.2173(5) 0.3028(5) 0.2852(4)
H15_19 H 0.2322 0.3220 0.2784
H16_19 H 0.2018 0.2970 0.2661
H17_19 H 0.2316 0.2827 0.2909
C25_31 C 0.2440(7) 0.2566(7) 0.5000
H18_31 H 0.2604 0.2384 0.5000
C26_31 C 0.1255(16) 0.3829(17) 0.5000
H19_31 H 0.1092 0.4011 0.5000
N1_31 N 0.4037(11) 0.2013(12) 0.5000
N2_31 N 0.1938(11) 0.0909(15) 0.5000
N3_19 N 0.1967(4) 0.3129(4) 0.3157(3)
O1_19 O 0.2996(3) 0.2568(4) 0.3827(3)
O2_19 O 0.2980(5) 0.2443(6) 0.4386(4)
O3_19 O 0.2401(4) 0.1996(3) 0.3837(3)
O4_19 O 0.2344(6) 0.1998(4) 0.4400(3)
O5_19 O 0.2386(4) 0.0878(3) 0.3187(3)
O7_15 O 0.4139(4) 0.2469(5) 0.3190(4)
O8_15 O 0.4438(5) 0.2002(6) 0.3361(5)
O9_31 O 0.1628(9) 0.3775(6) 0.5000
O10_31 O 0.1271(5) 0.3418(8) 0.5000
O11_19 O 0.2289(3) 0.2760(3) 0.3524(3)
O12_19 O 0.2313(3) 0.2707(3) 0.4715(2)
O13_31 O 0.2429(10) 0.3464(10) 0.5000
H20_19 H 0.2548 0.3410 0.5181
C27_19 C 0.4228(3) 0.2245(4) 0.3405(3)
C28_19 C 0.3162(7) 0.2494(9) 0.5880(5)
C29_19 C 0.3541(4) 0.2389(6) 0.5901(4)
C30_19 C 0.3678(4) 0.2203(6) 0.5617(3)
H21_19 H 0.3548 0.2183 0.5410
C31_19 C 0.4008(5) 0.2046(6) 0.5642(4)
C32_19 C 0.4201(4) 0.2076(6) 0.5951(4)
H22_19 H 0.4422 0.1971 0.5968
C33_19 C 0.4064(4) 0.2262(6) 0.6235(3)
C34_19 C 0.3734(5) 0.2418(6) 0.6210(3)
H23_19 H 0.3643 0.2543 0.6400
C35_19 C 0.4161(9) 0.1878(10) 0.5302(6)
C36_19 C 0.4384(10) 0.1588(10) 0.5328(6)
H24_19 H 0.4452 0.1487 0.5541
O17_15 O 0.4438(5) 0.2002(6) 0.6639(5)
C37_19 C 0.4228(3) 0.2245(4) 0.6595(3)
C38_19 C 0.2331(10) 0.1848(7) 0.5883(5)
C39_19 C 0.2268(8) 0.1463(4) 0.5914(4)
C40_19 C 0.2303(7) 0.1274(5) 0.6225(3)
H25_19 H 0.2406 0.1378 0.6421
C41_19 C 0.2183(7) 0.0928(5) 0.6244(4)
C42_19 C 0.2029(8) 0.0772(4) 0.5951(5)
H26_19 H 0.1949 0.0541 0.5963
C43_19 C 0.1994(8) 0.0961(5) 0.5640(4)
C44_19 C 0.2114(8) 0.1307(5) 0.5621(3)
H27_19 H 0.2090 0.1433 0.5413
C45_19 C 0.1834(11) 0.0794(10) 0.5318(4)
C46_19 C 0.1568(10) 0.0539(10) 0.5330(7)
H28_19 H 0.1500 0.0423 0.5534
C47_19 C 0.2275(3) 0.0712(4) 0.6564(3)
H29_19 H 0.2548 0.3410 0.4819
C48_19 C 0.2018(5) 0.1545(4) 0.2943(5)
H30_19 H 0.1946 0.1352 0.3075
C49_19 C 0.1611(5) 0.1872(5) 0.3301(4)
H31_19 H 0.1721 0.1945 0.3517
H32_19 H 0.1438 0.2043 0.3233
H33_19 H 0.1499 0.1648 0.3335
C50_19 C 0.1972(5) 0.2148(4) 0.2827(5)
H34_19 H 0.1780 0.2216 0.2678
H35_19 H 0.2030 0.2339 0.2982
H36_19 H 0.2173 0.2091 0.2684
N4_19 N 0.1871(4) 0.1843(3) 0.3033(4)
O23_19 O 0.2240(3) 0.1476(3) 0.2711(3)
C1_20 C 0.3162(7) 0.7506(9) 0.5880(5)
C2_20 C 0.3541(4) 0.7611(6) 0.5901(4)
C3_20 C 0.3678(4) 0.7797(6) 0.5617(3)
H1_20 H 0.3548 0.7817 0.5410
C4_20 C 0.4008(5) 0.7954(6) 0.5642(4)
C5_20 C 0.4201(4) 0.7924(6) 0.5951(4)
H2_20 H 0.4422 0.8029 0.5968
C6_20 C 0.4064(4) 0.7738(6) 0.6235(3)
C7_20 C 0.3734(5) 0.7582(6) 0.6210(3)
H3_20 H 0.3643 0.7457 0.6400
C8_20 C 0.4161(9) 0.8122(10) 0.5302(6)
C9_20 C 0.4384(10) 0.8412(10) 0.5328(6)
H4_20 H 0.4452 0.8513 0.5541
C10_32 C 0.4494(14) 0.8536(16) 0.5000
H5_32 H 0.4656 0.8718 0.5000
C11_20 C 0.2331(10) 0.8152(7) 0.5883(5)
C12_20 C 0.2268(8) 0.8537(4) 0.5914(4)
C13_20 C 0.2303(7) 0.8726(5) 0.6225(3)
H6_20 H 0.2406 0.8622 0.6421
C14_20 C 0.2183(7) 0.9072(5) 0.6244(4)
C15_20 C 0.2029(8) 0.9228(4) 0.5951(5)
H7_20 H 0.1949 0.9459 0.5963
C16_20 C 0.1994(8) 0.9039(5) 0.5640(4)
C17_20 C 0.2114(8) 0.8693(5) 0.5621(3)
H8_20 H 0.2090 0.8567 0.5413
C18_20 C 0.1834(11) 0.9206(10) 0.5318(4)
C19_20 C 0.1568(10) 0.9461(10) 0.5330(7)
H9_20 H 0.1500 0.9577 0.5534
C20_32 C 0.1417(16) 0.9522(15) 0.5000
H10_32 H 0.1190 0.9613 0.5000
C21_20 C 0.2275(3) 0.9288(4) 0.6564(3)
C22_20 C 0.2057(5) 0.7018(5) 0.6545(4)
H11_20 H 0.1925 0.6946 0.6352
C23_20 C 0.1699(4) 0.6611(5) 0.6872(5)
H12_20 H 0.1483 0.6721 0.6945
H13_20 H 0.1767 0.6438 0.7043
H14_20 H 0.1665 0.6499 0.6648
C24_20 C 0.2173(5) 0.6972(5) 0.7148(4)
H15_20 H 0.2322 0.6780 0.7216
H16_20 H 0.2018 0.7030 0.7339
H17_20 H 0.2316 0.7173 0.7091
C25_32 C 0.2440(7) 0.7434(7) 0.5000
H18_32 H 0.2604 0.7616 0.5000
C26_32 C 0.1255(16) 0.6171(17) 0.5000
H19_32 H 0.1092 0.5989 0.5000
N1_32 N 0.4037(11) 0.7987(12) 0.5000
N2_32 N 0.1938(11) 0.9091(15) 0.5000
N3_20 N 0.1967(4) 0.6871(4) 0.6843(3)
O1_20 O 0.2996(3) 0.7432(4) 0.6173(3)
O2_20 O 0.2980(5) 0.7557(6) 0.5614(4)
O3_20 O 0.2401(4) 0.8004(3) 0.6163(3)
O4_20 O 0.2344(6) 0.8002(4) 0.5600(3)
O5_20 O 0.2386(4) 0.9122(3) 0.6813(3)
O7_16 O 0.4139(4) 0.7531(5) 0.6810(4)
O8_16 O 0.4438(5) 0.7998(6) 0.6639(5)
O9_32 O 0.1628(9) 0.6225(6) 0.5000
O10_32 O 0.1271(5) 0.6582(8) 0.5000
O11_20 O 0.2289(3) 0.7240(3) 0.6476(3)
O12_20 O 0.2313(3) 0.7293(3) 0.5285(2)
O13_32 O 0.2429(10) 0.6536(10) 0.5000
H20_20 H 0.2548 0.6590 0.4819
C27_20 C 0.4228(3) 0.7755(4) 0.6595(3)
C28_20 C 0.3162(7) 0.7506(9) 0.4120(5)
C29_20 C 0.3541(4) 0.7611(6) 0.4099(4)
C30_20 C 0.3678(4) 0.7797(6) 0.4383(3)
H21_20 H 0.3548 0.7817 0.4590
C31_20 C 0.4008(5) 0.7954(6) 0.4358(4)
C32_20 C 0.4201(4) 0.7924(6) 0.4049(4)
H22_20 H 0.4422 0.8029 0.4032
C33_20 C 0.4064(4) 0.7738(6) 0.3765(3)
C34_20 C 0.3734(5) 0.7582(6) 0.3790(3)
H23_20 H 0.3643 0.7457 0.3600
C35_20 C 0.4161(9) 0.8122(10) 0.4698(6)
C36_20 C 0.4384(10) 0.8412(10) 0.4672(6)
H24_20 H 0.4452 0.8513 0.4459
O17_16 O 0.4438(5) 0.7998(6) 0.3361(5)
C37_20 C 0.4228(3) 0.7755(4) 0.3405(3)
C38_20 C 0.2331(10) 0.8152(7) 0.4117(5)
C39_20 C 0.2268(8) 0.8537(4) 0.4086(4)
C40_20 C 0.2303(7) 0.8726(5) 0.3775(3)
H25_20 H 0.2406 0.8622 0.3579
C41_20 C 0.2183(7) 0.9072(5) 0.3756(4)
C42_20 C 0.2029(8) 0.9228(4) 0.4049(5)
H26_20 H 0.1949 0.9459 0.4037
C43_20 C 0.1994(8) 0.9039(5) 0.4360(4)
C44_20 C 0.2114(8) 0.8693(5) 0.4379(3)
H27_20 H 0.2090 0.8567 0.4587
C45_20 C 0.1834(11) 0.9206(10) 0.4682(4)
C46_20 C 0.1568(10) 0.9461(10) 0.4670(7)
H28_20 H 0.1500 0.9577 0.4466
C47_20 C 0.2275(3) 0.9288(4) 0.3436(3)
H29_20 H 0.2548 0.6590 0.5181
C48_20 C 0.2018(5) 0.8455(4) 0.7057(5)
H30_20 H 0.1946 0.8648 0.6925
C49_20 C 0.1611(5) 0.8128(5) 0.6699(4)
H31_20 H 0.1721 0.8055 0.6483
H32_20 H 0.1438 0.7957 0.6767
H33_20 H 0.1499 0.8352 0.6665
C50_20 C 0.1972(5) 0.7852(4) 0.7173(5)
H34_20 H 0.1780 0.7784 0.7322
H35_20 H 0.2030 0.7661 0.7018
H36_20 H 0.2173 0.7909 0.7316
N4_20 N 0.1871(4) 0.8157(3) 0.6967(4)
O23_20 O 0.2240(3) 0.8524(3) 0.7289(3)
C1_21 C 0.4120(5) 0.6838(7) 0.7506(9)
C2_21 C 0.4099(4) 0.6459(4) 0.7611(6)
C3_21 C 0.4383(3) 0.6322(4) 0.7797(6)
H1_21 H 0.4590 0.6452 0.7817
C4_21 C 0.4358(4) 0.5992(5) 0.7954(6)
C5_21 C 0.4049(4) 0.5799(4) 0.7924(6)
H2_21 H 0.4032 0.5578 0.8029
C6_21 C 0.3765(3) 0.5936(4) 0.7738(6)
C7_21 C 0.3790(3) 0.6266(5) 0.7582(6)
H3_21 H 0.3600 0.6357 0.7457
C8_21 C 0.4698(6) 0.5839(9) 0.8122(10)
C9_21 C 0.4672(6) 0.5616(10) 0.8412(10)
H4_21 H 0.4459 0.5548 0.8513
C10_33 C 0.5000 0.5506(14) 0.8536(16)
H5_33 H 0.5000 0.5344 0.8718
C11_21 C 0.4117(5) 0.7669(10) 0.8152(7)
C12_21 C 0.4086(4) 0.7732(8) 0.8537(4)
C13_21 C 0.3775(3) 0.7697(7) 0.8726(5)
H6_21 H 0.3579 0.7594 0.8622
C14_21 C 0.3756(4) 0.7817(7) 0.9072(5)
C15_21 C 0.4049(5) 0.7971(8) 0.9228(4)
H7_21 H 0.4037 0.8051 0.9459
C16_21 C 0.4360(4) 0.8006(8) 0.9039(5)
C17_21 C 0.4379(3) 0.7886(8) 0.8693(5)
H8_21 H 0.4587 0.7910 0.8567
C18_21 C 0.4682(4) 0.8166(11) 0.9206(10)
C19_21 C 0.4670(7) 0.8432(10) 0.9461(10)
H9_21 H 0.4466 0.8500 0.9577
C20_33 C 0.5000 0.8583(16) 0.9522(15)
H10_33 H 0.5000 0.8810 0.9613
C21_21 C 0.3436(3) 0.7725(3) 0.9288(4)
C22_21 C 0.3455(4) 0.7943(5) 0.7018(5)
H11_21 H 0.3648 0.8075 0.6946
C23_21 C 0.3128(5) 0.8301(4) 0.6611(5)
H12_21 H 0.3055 0.8517 0.6721
H13_21 H 0.2957 0.8233 0.6438
H14_21 H 0.3352 0.8335 0.6499
C24_21 C 0.2852(4) 0.7827(5) 0.6972(5)
H15_21 H 0.2784 0.7678 0.6780
H16_21 H 0.2661 0.7982 0.7030
H17_21 H 0.2909 0.7684 0.7173
C25_33 C 0.5000 0.7560(7) 0.7434(7)
H18_33 H 0.5000 0.7396 0.7616
C26_33 C 0.5000 0.8745(16) 0.6171(17)
H19_33 H 0.5000 0.8908 0.5989
N1_33 N 0.5000 0.5963(11) 0.7987(12)
N2_33 N 0.5000 0.8062(11) 0.9091(15)
N3_21 N 0.3157(3) 0.8033(4) 0.6871(4)
O1_21 O 0.3827(3) 0.7004(3) 0.7432(4)
O2_21 O 0.4386(4) 0.7020(5) 0.7557(6)
O3_21 O 0.3837(3) 0.7599(4) 0.8004(3)
O4_21 O 0.4400(3) 0.7656(6) 0.8002(4)
O5_21 O 0.3187(3) 0.7614(4) 0.9122(3)
O9_33 O 0.5000 0.8372(9) 0.6225(6)
O10_33 O 0.5000 0.8729(5) 0.6582(8)
O11_21 O 0.3524(3) 0.7711(3) 0.7240(3)
O12_21 O 0.4715(2) 0.7687(3) 0.7293(3)
O13_33 O 0.5000 0.7571(10) 0.6536(10)
H20_21 H 0.5181 0.7452 0.6590
C27_21 C 0.3405(3) 0.5772(3) 0.7755(4)
C28_21 C 0.5880(5) 0.6838(7) 0.7506(9)
C29_21 C 0.5901(4) 0.6459(4) 0.7611(6)
C30_21 C 0.5617(3) 0.6322(4) 0.7797(6)
H21_21 H 0.5410 0.6452 0.7817
C31_21 C 0.5642(4) 0.5992(5) 0.7954(6)
C32_21 C 0.5951(4) 0.5799(4) 0.7924(6)
H22_21 H 0.5968 0.5578 0.8029
C33_21 C 0.6235(3) 0.5936(4) 0.7738(6)
C34_21 C 0.6210(3) 0.6266(5) 0.7582(6)
H23_21 H 0.6400 0.6357 0.7457
C35_21 C 0.5302(6) 0.5839(9) 0.8122(10)
C36_21 C 0.5328(6) 0.5616(10) 0.8412(10)
H24_21 H 0.5541 0.5548 0.8513
C37_21 C 0.6595(3) 0.5772(3) 0.7755(4)
C38_21 C 0.5883(5) 0.7669(10) 0.8152(7)
C39_21 C 0.5914(4) 0.7732(8) 0.8537(4)
C40_21 C 0.6225(3) 0.7697(7) 0.8726(5)
H25_21 H 0.6421 0.7594 0.8622
C41_21 C 0.6244(4) 0.7817(7) 0.9072(5)
C42_21 C 0.5951(5) 0.7971(8) 0.9228(4)
H26_21 H 0.5963 0.8051 0.9459
C43_21 C 0.5640(4) 0.8006(8) 0.9039(5)
C44_21 C 0.5621(3) 0.7886(8) 0.8693(5)
H27_21 H 0.5413 0.7910 0.8567
C45_21 C 0.5318(4) 0.8166(11) 0.9206(10)
C46_21 C 0.5330(7) 0.8432(10) 0.9461(10)
H28_21 H 0.5534 0.8500 0.9577
C47_21 C 0.6564(3) 0.7725(3) 0.9288(4)
H29_21 H 0.4819 0.7452 0.6590
C48_21 C 0.2943(5) 0.7982(5) 0.8455(4)
H30_21 H 0.3075 0.8054 0.8648
C49_21 C 0.3301(4) 0.8389(5) 0.8128(5)
H31_21 H 0.3517 0.8279 0.8055
H32_21 H 0.3233 0.8562 0.7957
H33_21 H 0.3335 0.8501 0.8352
C50_21 C 0.2827(5) 0.8028(5) 0.7852(4)
H34_21 H 0.2678 0.8220 0.7784
H35_21 H 0.2982 0.7970 0.7661
H36_21 H 0.2684 0.7827 0.7909
N4_21 N 0.3033(4) 0.8129(4) 0.8157(3)
O23_21 O 0.2711(3) 0.7760(3) 0.8524(3)
C1_22 C 0.5880(5) 0.6838(7) 0.2494(9)
C2_22 C 0.5901(4) 0.6459(4) 0.2389(6)
C3_22 C 0.5617(3) 0.6322(4) 0.2203(6)
H1_22 H 0.5410 0.6452 0.2183
C4_22 C 0.5642(4) 0.5992(5) 0.2046(6)
C5_22 C 0.5951(4) 0.5799(4) 0.2076(6)
H2_22 H 0.5968 0.5578 0.1971
C6_22 C 0.6235(3) 0.5936(4) 0.2262(6)
C7_22 C 0.6210(3) 0.6266(5) 0.2418(6)
H3_22 H 0.6400 0.6357 0.2543
C8_22 C 0.5302(6) 0.5839(9) 0.1878(10)
C9_22 C 0.5328(6) 0.5616(10) 0.1588(10)
H4_22 H 0.5541 0.5548 0.1487
C10_34 C 0.5000 0.5506(14) 0.1464(16)
H5_34 H 0.5000 0.5344 0.1282
C11_22 C 0.5883(5) 0.7669(10) 0.1848(7)
C12_22 C 0.5914(4) 0.7732(8) 0.1463(4)
C13_22 C 0.6225(3) 0.7697(7) 0.1274(5)
H6_22 H 0.6421 0.7594 0.1378
C14_22 C 0.6244(4) 0.7817(7) 0.0928(5)
C15_22 C 0.5951(5) 0.7971(8) 0.0772(4)
H7_22 H 0.5963 0.8051 0.0541
C16_22 C 0.5640(4) 0.8006(8) 0.0961(5)
C17_22 C 0.5621(3) 0.7886(8) 0.1307(5)
H8_22 H 0.5413 0.7910 0.1433
C18_22 C 0.5318(4) 0.8166(11) 0.0794(10)
C19_22 C 0.5330(7) 0.8432(10) 0.0539(10)
H9_22 H 0.5534 0.8500 0.0423
C20_34 C 0.5000 0.8583(16) 0.0478(15)
H10_34 H 0.5000 0.8810 0.0387
C21_22 C 0.6564(3) 0.7725(3) 0.0712(4)
C22_22 C 0.6545(4) 0.7943(5) 0.2982(5)
H11_22 H 0.6352 0.8075 0.3054
C23_22 C 0.6872(5) 0.8301(4) 0.3389(5)
H12_22 H 0.6945 0.8517 0.3279
H13_22 H 0.7043 0.8233 0.3562
H14_22 H 0.6648 0.8335 0.3501
C24_22 C 0.7148(4) 0.7827(5) 0.3028(5)
H15_22 H 0.7216 0.7678 0.3220
H16_22 H 0.7339 0.7982 0.2970
H17_22 H 0.7091 0.7684 0.2827
C25_34 C 0.5000 0.7560(7) 0.2566(7)
H18_34 H 0.5000 0.7396 0.2384
C26_34 C 0.5000 0.8745(16) 0.3829(17)
H19_34 H 0.5000 0.8908 0.4011
N1_34 N 0.5000 0.5963(11) 0.2013(12)
N2_34 N 0.5000 0.8062(11) 0.0909(15)
N3_22 N 0.6843(3) 0.8033(4) 0.3129(4)
O1_22 O 0.6173(3) 0.7004(3) 0.2568(4)
O2_22 O 0.5614(4) 0.7020(5) 0.2443(6)
O3_22 O 0.6163(3) 0.7599(4) 0.1996(3)
O4_22 O 0.5600(3) 0.7656(6) 0.1998(4)
O5_22 O 0.6813(3) 0.7614(4) 0.0878(3)
O9_34 O 0.5000 0.8372(9) 0.3775(6)
O10_34 O 0.5000 0.8729(5) 0.3418(8)
O11_22 O 0.6476(3) 0.7711(3) 0.2760(3)
O12_22 O 0.5285(2) 0.7687(3) 0.2707(3)
O13_34 O 0.5000 0.7571(10) 0.3464(10)
H20_22 H 0.4819 0.7452 0.3410
C27_22 C 0.6595(3) 0.5772(3) 0.2245(4)
C28_22 C 0.4120(5) 0.6838(7) 0.2494(9)
C29_22 C 0.4099(4) 0.6459(4) 0.2389(6)
C30_22 C 0.4383(3) 0.6322(4) 0.2203(6)
H21_22 H 0.4590 0.6452 0.2183
C31_22 C 0.4358(4) 0.5992(5) 0.2046(6)
C32_22 C 0.4049(4) 0.5799(4) 0.2076(6)
H22_22 H 0.4032 0.5578 0.1971
C33_22 C 0.3765(3) 0.5936(4) 0.2262(6)
C34_22 C 0.3790(3) 0.6266(5) 0.2418(6)
H23_22 H 0.3600 0.6357 0.2543
C35_22 C 0.4698(6) 0.5839(9) 0.1878(10)
C36_22 C 0.4672(6) 0.5616(10) 0.1588(10)
H24_22 H 0.4459 0.5548 0.1487
C37_22 C 0.3405(3) 0.5772(3) 0.2245(4)
C38_22 C 0.4117(5) 0.7669(10) 0.1848(7)
C39_22 C 0.4086(4) 0.7732(8) 0.1463(4)
C40_22 C 0.3775(3) 0.7697(7) 0.1274(5)
H25_22 H 0.3579 0.7594 0.1378
C41_22 C 0.3756(4) 0.7817(7) 0.0928(5)
C42_22 C 0.4049(5) 0.7971(8) 0.0772(4)
H26_22 H 0.4037 0.8051 0.0541
C43_22 C 0.4360(4) 0.8006(8) 0.0961(5)
C44_22 C 0.4379(3) 0.7886(8) 0.1307(5)
H27_22 H 0.4587 0.7910 0.1433
C45_22 C 0.4682(4) 0.8166(11) 0.0794(10)
C46_22 C 0.4670(7) 0.8432(10) 0.0539(10)
H28_22 H 0.4466 0.8500 0.0423
C47_22 C 0.3436(3) 0.7725(3) 0.0712(4)
H29_22 H 0.5181 0.7452 0.3410
C48_22 C 0.7057(5) 0.7982(5) 0.1545(4)
H30_22 H 0.6925 0.8054 0.1352
C49_22 C 0.6699(4) 0.8389(5) 0.1872(5)
H31_22 H 0.6483 0.8279 0.1945
H32_22 H 0.6767 0.8562 0.2043
H33_22 H 0.6665 0.8501 0.1648
C50_22 C 0.7173(5) 0.8028(5) 0.2148(4)
H34_22 H 0.7322 0.8220 0.2216
H35_22 H 0.7018 0.7970 0.2339
H36_22 H 0.7316 0.7827 0.2091
N4_22 N 0.6967(4) 0.8129(4) 0.1843(3)
O23_22 O 0.7289(3) 0.7760(3) 0.1476(3)
C1_23 C 0.4120(5) 0.3162(7) 0.2494(9)
C2_23 C 0.4099(4) 0.3541(4) 0.2389(6)
C3_23 C 0.4383(3) 0.3678(4) 0.2203(6)
H1_23 H 0.4590 0.3548 0.2183
C4_23 C 0.4358(4) 0.4008(5) 0.2046(6)
C5_23 C 0.4049(4) 0.4201(4) 0.2076(6)
H2_23 H 0.4032 0.4422 0.1971
C6_23 C 0.3765(3) 0.4064(4) 0.2262(6)
C7_23 C 0.3790(3) 0.3734(5) 0.2418(6)
H3_23 H 0.3600 0.3643 0.2543
C8_23 C 0.4698(6) 0.4161(9) 0.1878(10)
C9_23 C 0.4672(6) 0.4384(10) 0.1588(10)
H4_23 H 0.4459 0.4452 0.1487
C10_35 C 0.5000 0.4494(14) 0.1464(16)
H5_35 H 0.5000 0.4656 0.1282
C11_23 C 0.4117(5) 0.2331(10) 0.1848(7)
C12_23 C 0.4086(4) 0.2268(8) 0.1463(4)
C13_23 C 0.3775(3) 0.2303(7) 0.1274(5)
H6_23 H 0.3579 0.2406 0.1378
C14_23 C 0.3756(4) 0.2183(7) 0.0928(5)
C15_23 C 0.4049(5) 0.2029(8) 0.0772(4)
H7_23 H 0.4037 0.1949 0.0541
C16_23 C 0.4360(4) 0.1994(8) 0.0961(5)
C17_23 C 0.4379(3) 0.2114(8) 0.1307(5)
H8_23 H 0.4587 0.2090 0.1433
C18_23 C 0.4682(4) 0.1834(11) 0.0794(10)
C19_23 C 0.4670(7) 0.1568(10) 0.0539(10)
H9_23 H 0.4466 0.1500 0.0423
C20_35 C 0.5000 0.1417(16) 0.0478(15)
H10_35 H 0.5000 0.1190 0.0387
C21_23 C 0.3436(3) 0.2275(3) 0.0712(4)
C22_23 C 0.3455(4) 0.2057(5) 0.2982(5)
H11_23 H 0.3648 0.1925 0.3054
C23_23 C 0.3128(5) 0.1699(4) 0.3389(5)
H12_23 H 0.3055 0.1483 0.3279
H13_23 H 0.2957 0.1767 0.3562
H14_23 H 0.3352 0.1665 0.3501
C24_23 C 0.2852(4) 0.2173(5) 0.3028(5)
H15_23 H 0.2784 0.2322 0.3220
H16_23 H 0.2661 0.2018 0.2970
H17_23 H 0.2909 0.2316 0.2827
C25_35 C 0.5000 0.2440(7) 0.2566(7)
H18_35 H 0.5000 0.2604 0.2384
C26_35 C 0.5000 0.1255(16) 0.3829(17)
H19_35 H 0.5000 0.1092 0.4011
N1_35 N 0.5000 0.4037(11) 0.2013(12)
N2_35 N 0.5000 0.1938(11) 0.0909(15)
N3_23 N 0.3157(3) 0.1967(4) 0.3129(4)
O1_23 O 0.3827(3) 0.2996(3) 0.2568(4)
O2_23 O 0.4386(4) 0.2980(5) 0.2443(6)
O3_23 O 0.3837(3) 0.2401(4) 0.1996(3)
O4_23 O 0.4400(3) 0.2344(6) 0.1998(4)
O5_23 O 0.3187(3) 0.2386(4) 0.0878(3)
O9_35 O 0.5000 0.1628(9) 0.3775(6)
O10_35 O 0.5000 0.1271(5) 0.3418(8)
O11_23 O 0.3524(3) 0.2289(3) 0.2760(3)
O12_23 O 0.4715(2) 0.2313(3) 0.2707(3)
O13_35 O 0.5000 0.2429(10) 0.3464(10)
H20_23 H 0.5181 0.2548 0.3410
C27_23 C 0.3405(3) 0.4228(3) 0.2245(4)
C28_23 C 0.5880(5) 0.3162(7) 0.2494(9)
C29_23 C 0.5901(4) 0.3541(4) 0.2389(6)
C30_23 C 0.5617(3) 0.3678(4) 0.2203(6)
H21_23 H 0.5410 0.3548 0.2183
C31_23 C 0.5642(4) 0.4008(5) 0.2046(6)
C32_23 C 0.5951(4) 0.4201(4) 0.2076(6)
H22_23 H 0.5968 0.4422 0.1971
C33_23 C 0.6235(3) 0.4064(4) 0.2262(6)
C34_23 C 0.6210(3) 0.3734(5) 0.2418(6)
H23_23 H 0.6400 0.3643 0.2543
C35_23 C 0.5302(6) 0.4161(9) 0.1878(10)
C36_23 C 0.5328(6) 0.4384(10) 0.1588(10)
H24_23 H 0.5541 0.4452 0.1487
C37_23 C 0.6595(3) 0.4228(3) 0.2245(4)
C38_23 C 0.5883(5) 0.2331(10) 0.1848(7)
C39_23 C 0.5914(4) 0.2268(8) 0.1463(4)
C40_23 C 0.6225(3) 0.2303(7) 0.1274(5)
H25_23 H 0.6421 0.2406 0.1378
C41_23 C 0.6244(4) 0.2183(7) 0.0928(5)
C42_23 C 0.5951(5) 0.2029(8) 0.0772(4)
H26_23 H 0.5963 0.1949 0.0541
C43_23 C 0.5640(4) 0.1994(8) 0.0961(5)
C44_23 C 0.5621(3) 0.2114(8) 0.1307(5)
H27_23 H 0.5413 0.2090 0.1433
C45_23 C 0.5318(4) 0.1834(11) 0.0794(10)
C46_23 C 0.5330(7) 0.1568(10) 0.0539(10)
H28_23 H 0.5534 0.1500 0.0423
C47_23 C 0.6564(3) 0.2275(3) 0.0712(4)
H29_23 H 0.4819 0.2548 0.3410
C48_23 C 0.2943(5) 0.2018(5) 0.1545(4)
H30_23 H 0.3075 0.1946 0.1352
C49_23 C 0.3301(4) 0.1611(5) 0.1872(5)
H31_23 H 0.3517 0.1721 0.1945
H32_23 H 0.3233 0.1438 0.2043
H33_23 H 0.3335 0.1499 0.1648
C50_23 C 0.2827(5) 0.1972(5) 0.2148(4)
H34_23 H 0.2678 0.1780 0.2216
H35_23 H 0.2982 0.2030 0.2339
H36_23 H 0.2684 0.2173 0.2091
N4_23 N 0.3033(4) 0.1871(4) 0.1843(3)
O23_23 O 0.2711(3) 0.2240(3) 0.1476(3)
C1_24 C 0.5880(5) 0.3162(7) 0.7506(9)
C2_24 C 0.5901(4) 0.3541(4) 0.7611(6)
C3_24 C 0.5617(3) 0.3678(4) 0.7797(6)
H1_24 H 0.5410 0.3548 0.7817
C4_24 C 0.5642(4) 0.4008(5) 0.7954(6)
C5_24 C 0.5951(4) 0.4201(4) 0.7924(6)
H2_24 H 0.5968 0.4422 0.8029
C6_24 C 0.6235(3) 0.4064(4) 0.7738(6)
C7_24 C 0.6210(3) 0.3734(5) 0.7582(6)
H3_24 H 0.6400 0.3643 0.7457
C8_24 C 0.5302(6) 0.4161(9) 0.8122(10)
C9_24 C 0.5328(6) 0.4384(10) 0.8412(10)
H4_24 H 0.5541 0.4452 0.8513
C10_36 C 0.5000 0.4494(14) 0.8536(16)
H5_36 H 0.5000 0.4656 0.8718
C11_24 C 0.5883(5) 0.2331(10) 0.8152(7)
C12_24 C 0.5914(4) 0.2268(8) 0.8537(4)
C13_24 C 0.6225(3) 0.2303(7) 0.8726(5)
H6_24 H 0.6421 0.2406 0.8622
C14_24 C 0.6244(4) 0.2183(7) 0.9072(5)
C15_24 C 0.5951(5) 0.2029(8) 0.9228(4)
H7_24 H 0.5963 0.1949 0.9459
C16_24 C 0.5640(4) 0.1994(8) 0.9039(5)
C17_24 C 0.5621(3) 0.2114(8) 0.8693(5)
H8_24 H 0.5413 0.2090 0.8567
C18_24 C 0.5318(4) 0.1834(11) 0.9206(10)
C19_24 C 0.5330(7) 0.1568(10) 0.9461(10)
H9_24 H 0.5534 0.1500 0.9577
C20_36 C 0.5000 0.1417(16) 0.9522(15)
H10_36 H 0.5000 0.1190 0.9613
C21_24 C 0.6564(3) 0.2275(3) 0.9288(4)
C22_24 C 0.6545(4) 0.2057(5) 0.7018(5)
H11_24 H 0.6352 0.1925 0.6946
C23_24 C 0.6872(5) 0.1699(4) 0.6611(5)
H12_24 H 0.6945 0.1483 0.6721
H13_24 H 0.7043 0.1767 0.6438
H14_24 H 0.6648 0.1665 0.6499
C24_24 C 0.7148(4) 0.2173(5) 0.6972(5)
H15_24 H 0.7216 0.2322 0.6780
H16_24 H 0.7339 0.2018 0.7030
H17_24 H 0.7091 0.2316 0.7173
C25_36 C 0.5000 0.2440(7) 0.7434(7)
H18_36 H 0.5000 0.2604 0.7616
C26_36 C 0.5000 0.1255(16) 0.6171(17)
H19_36 H 0.5000 0.1092 0.5989
N1_36 N 0.5000 0.4037(11) 0.7987(12)
N2_36 N 0.5000 0.1938(11) 0.9091(15)
N3_24 N 0.6843(3) 0.1967(4) 0.6871(4)
O1_24 O 0.6173(3) 0.2996(3) 0.7432(4)
O2_24 O 0.5614(4) 0.2980(5) 0.7557(6)
O3_24 O 0.6163(3) 0.2401(4) 0.8004(3)
O4_24 O 0.5600(3) 0.2344(6) 0.8002(4)
O5_24 O 0.6813(3) 0.2386(4) 0.9122(3)
O9_36 O 0.5000 0.1628(9) 0.6225(6)
O10_36 O 0.5000 0.1271(5) 0.6582(8)
O11_24 O 0.6476(3) 0.2289(3) 0.7240(3)
O12_24 O 0.5285(2) 0.2313(3) 0.7293(3)
O13_36 O 0.5000 0.2429(10) 0.6536(10)
H20_24 H 0.4819 0.2548 0.6590
C27_24 C 0.6595(3) 0.4228(3) 0.7755(4)
C28_24 C 0.4120(5) 0.3162(7) 0.7506(9)
C29_24 C 0.4099(4) 0.3541(4) 0.7611(6)
C30_24 C 0.4383(3) 0.3678(4) 0.7797(6)
H21_24 H 0.4590 0.3548 0.7817
C31_24 C 0.4358(4) 0.4008(5) 0.7954(6)
C32_24 C 0.4049(4) 0.4201(4) 0.7924(6)
H22_24 H 0.4032 0.4422 0.8029
C33_24 C 0.3765(3) 0.4064(4) 0.7738(6)
C34_24 C 0.3790(3) 0.3734(5) 0.7582(6)
H23_24 H 0.3600 0.3643 0.7457
C35_24 C 0.4698(6) 0.4161(9) 0.8122(10)
C36_24 C 0.4672(6) 0.4384(10) 0.8412(10)
H24_24 H 0.4459 0.4452 0.8513
C37_24 C 0.3405(3) 0.4228(3) 0.7755(4)
C38_24 C 0.4117(5) 0.2331(10) 0.8152(7)
C39_24 C 0.4086(4) 0.2268(8) 0.8537(4)
C40_24 C 0.3775(3) 0.2303(7) 0.8726(5)
H25_24 H 0.3579 0.2406 0.8622
C41_24 C 0.3756(4) 0.2183(7) 0.9072(5)
C42_24 C 0.4049(5) 0.2029(8) 0.9228(4)
H26_24 H 0.4037 0.1949 0.9459
C43_24 C 0.4360(4) 0.1994(8) 0.9039(5)
C44_24 C 0.4379(3) 0.2114(8) 0.8693(5)
H27_24 H 0.4587 0.2090 0.8567
C45_24 C 0.4682(4) 0.1834(11) 0.9206(10)
C46_24 C 0.4670(7) 0.1568(10) 0.9461(10)
H28_24 H 0.4466 0.1500 0.9577
C47_24 C 0.3436(3) 0.2275(3) 0.9288(4)
H29_24 H 0.5181 0.2548 0.6590
C48_24 C 0.7057(5) 0.2018(5) 0.8455(4)
H30_24 H 0.6925 0.1946 0.8648
C49_24 C 0.6699(4) 0.1611(5) 0.8128(5)
H31_24 H 0.6483 0.1721 0.8055
H32_24 H 0.6767 0.1438 0.7957
H33_24 H 0.6665 0.1499 0.8352
C50_24 C 0.7173(5) 0.1972(5) 0.7852(4)
H34_24 H 0.7322 0.1780 0.7784
H35_24 H 0.7018 0.2030 0.7661
H36_24 H 0.7316 0.2173 0.7909
N4_24 N 0.6967(4) 0.1871(4) 0.8157(3)
O23_24 O 0.7289(3) 0.2240(3) 0.8524(3)
loop_
_geom_bond_atom_site_label_1
_geom_bond_atom_site_label_2
_geom_bond_site_symmetry_1
_geom_bond_site_symmetry_2
H5 C10 1_555 1_555
H10 C20 1_555 1_555
C25 H18 1_555 1_555
C26 H19 1_555 1_555
Eu1 O9 1_555 1_555
O9 C26 1_555 1_555
O10 C26 1_555 1_555
O13 Eu1 1_555 1_555
H20 O13 1_555 1_555
C28 C29 1_555 1_555
C29 C30 1_555 1_555
C30 H21 1_555 1_555
C31 C30 1_555 1_555
C32 C31 1_555 1_555
H22 C32 1_555 1_555
C33 C32 1_555 1_555
C34 C29 1_555 1_555
H23 C34 1_555 1_555
C35 N1 1_555 1_555
C36 C10 1_555 1_555
H24 C36 1_555 1_555
O14 C28 1_555 1_555
O15 C28 1_555 1_555
O16 C37 1_555 1_555
O17 C37 1_555 1_555
C37 C33 1_555 1_555
C38 C39 1_555 1_555
C39 C40 1_555 1_555
C40 H25 1_555 1_555
C41 C40 1_555 1_555
C42 C41 1_555 1_555
H26 C42 1_555 1_555
C43 C42 1_555 1_555
C44 C39 1_555 1_555
H27 C44 1_555 1_555
C45 N2 1_555 1_555
C46 C20 1_555 1_555
H28 C46 1_555 1_555
C47 C41 1_555 1_555
O18 C38 1_555 1_555
O19 C38 1_555 1_555
O20 C47 1_555 1_555
O21 C47 1_555 1_555
O22 C25 1_555 1_555
Eu4 O17 1_555 1_555
Eu7 O21 1_555 1_555
Eu9 O20 1_555 1_555
Eu10 O14 1_555 1_555
Eu11 O16 1_555 1_555
O29 Eu1 1_555 1_555
O34 Eu1 1_555 1_555
Eu1 O10 1_555 1_555
Eu1 O22 1_555 1_555
C31 C35 1_555 1_555
C33 C34 1_555 1_555
C35 C36 1_555 1_555
O15 Eu10 1_555 1_555
C43 C44 1_555 1_555
C43 C45 1_555 1_555
C45 C46 1_555 1_555
O18 Eu10 1_555 1_555
O19 Eu10 1_555 1_555
O22 Eu10 1_555 1_555
C1 C2 1_555 1_555
C2 C3 1_555 1_555
C3 H1 1_555 1_555
C4 C3 1_555 1_555
C5 C4 1_555 1_555
H2 C5 1_555 1_555
C6 C5 1_555 1_555
C7 C2 1_555 1_555
H3 C7 1_555 1_555
C8 C4 1_555 1_555
C9 C8 1_555 1_555
H4 C9 1_555 1_555
C10_2 C9 1_555 1_555
H5_2 C10_2 1_555 1_555
C11 C12 1_555 1_555
C12 C13 1_555 1_555
C13 H6 1_555 1_555
C14 C13 1_555 1_555
C15 C14 1_555 1_555
H7 C15 1_555 1_555
C16 C15 1_555 1_555
C17 C12 1_555 1_555
H8 C17 1_555 1_555
C18 C16 1_555 1_555
C19 C18 1_555 1_555
H9 C19 1_555 1_555
C20_2 C19 1_555 1_555
H10_2 C20_2 1_555 1_555
C21 C14 1_555 1_555
C22 H11 1_555 1_555
C23 H12 1_555 1_555
H13 C23 1_555 1_555
H14 C23 1_555 1_555
C24 H15 1_555 1_555
H16 C24 1_555 1_555
H17 C24 1_555 1_555
C25_2 H18_2 1_555 1_555
C26_2 H19_2 1_555 1_555
Eu1_2 O9_2 1_555 1_555
Eu2 O1 1_555 1_555
N1_2 C8 1_555 1_555
N2_2 C18 1_555 1_555
N3 C22 1_555 1_555
O1 C1 1_555 1_555
O2 C1 1_555 1_555
O3 C11 1_555 1_555
O4 C11 1_555 1_555
O5 C21 1_555 1_555
O6 C21 1_555 1_555
O7 C27 1_555 1_555
O8 C27 1_555 1_555
O9_2 C26_2 1_555 1_555
O10_2 C26_2 1_555 1_555
O11 C22 1_555 1_555
O12 C25_2 1_555 1_555
O13_2 Eu1_2 1_555 1_555
C27 C6 1_555 1_555
H29 O13_2 1_555 1_555
C48 H30 1_555 1_555
C49 H31 1_555 1_555
H32 C49 1_555 1_555
H33 C49 1_555 1_555
C50 H34 1_555 1_555
H35 C50 1_555 1_555
H36 C50 1_555 1_555
Eu3 O5 1_555 1_555
N4 C48 1_555 1_555
O23 C48 1_555 1_555
Eu5 O8 1_555 1_555
Eu6 O6 1_555 1_555
Eu8 O7 1_555 1_555
O24 Eu3 1_555 1_555
O25 Eu3 1_555 1_555
O26 Eu3 1_555 1_555
O27 Eu3 1_555 1_555
O28 Eu2 1_555 1_555
O30 Eu1_2 1_555 1_555
O31 Eu2 1_555 1_555
O32 Eu3 1_555 1_555
O33 Eu1_2 1_555 1_555
O35 Eu3 1_555 1_555
C6 C7 1_555 1_555
C16 C17 1_555 1_555
C23 N3 1_555 1_555
C24 N3 1_555 1_555
Eu1_2 O10_2 1_555 1_555
Eu1_2 O12 1_555 1_555
Eu2 O2 1_555 1_555
Eu2 O3 1_555 1_555
Eu2 O4 1_555 1_555
Eu2 O11 1_555 1_555
Eu2 O12 1_555 1_555
C49 N4 1_555 1_555
C50 N4 1_555 1_555
Eu3 O23 1_555 1_555
Eu6 O35 1_555 1_555
C1_2 C2_2 1_555 1_555
C2_2 C3_2 1_555 1_555
C3_2 H1_2 1_555 1_555
C4_2 C3_2 1_555 1_555
C5_2 C4_2 1_555 1_555
H2_2 C5_2 1_555 1_555
C6_2 C5_2 1_555 1_555
C7_2 C2_2 1_555 1_555
H3_2 C7_2 1_555 1_555
C8_2 C4_2 1_555 1_555
C9_2 C8_2 1_555 1_555
H4_2 C9_2 1_555 1_555
C10_3 C9_2 1_555 1_555
H5_3 C10_3 1_555 1_555
C11_2 C12_2 1_555 1_555
C12_2 C13_2 1_555 1_555
C13_2 H6_2 1_555 1_555
C14_2 C13_2 1_555 1_555
C15_2 C14_2 1_555 1_555
H7_2 C15_2 1_555 1_555
C16_2 C15_2 1_555 1_555
C17_2 C12_2 1_555 1_555
H8_2 C17_2 1_555 1_555
C18_2 C16_2 1_555 1_555
C19_2 C18_2 1_555 1_555
H9_2 C19_2 1_555 1_555
C20_3 C19_2 1_555 1_555
H10_3 C20_3 1_555 1_555
C21_2 C14_2 1_555 1_555
C22_2 H11_2 1_555 1_555
C23_2 H12_2 1_555 1_555
H13_2 C23_2 1_555 1_555
H14_2 C23_2 1_555 1_555
C24_2 H15_2 1_555 1_555
H16_2 C24_2 1_555 1_555
H17_2 C24_2 1_555 1_555
C25_3 H18_3 1_555 1_555
C26_3 H19_3 1_555 1_555
Eu1_3 O9_3 1_555 1_555
Eu2_2 O1_2 1_555 1_555
N1_3 C8_2 1_555 1_555
N2_3 C18_2 1_555 1_555
N3_2 C22_2 1_555 1_555
O1_2 C1_2 1_555 1_555
O2_2 C1_2 1_555 1_555
O3_2 C11_2 1_555 1_555
O4_2 C11_2 1_555 1_555
O5_2 C21_2 1_555 1_555
O6_2 C21_2 1_555 1_555
O7_2 C27_2 1_555 1_555
O8_2 C27_2 1_555 1_555
O9_3 C26_3 1_555 1_555
O10_3 C26_3 1_555 1_555
O11_2 C22_2 1_555 1_555
O12_2 C25_3 1_555 1_555
O13_3 Eu1_3 1_555 1_555
C27_2 C6_2 1_555 1_555
H29_2 O13_3 1_555 1_555
C48_2 H30_2 1_555 1_555
C49_2 H31_2 1_555 1_555
H32_2 C49_2 1_555 1_555
H33_2 C49_2 1_555 1_555
C50_2 H34_2 1_555 1_555
H35_2 C50_2 1_555 1_555
H36_2 C50_2 1_555 1_555
Eu3_2 O5_2 1_555 1_555
N4_2 C48_2 1_555 1_555
O23_2 C48_2 1_555 1_555
Eu5_3 O8_2 1_555 1_555
Eu7 O6_2 1_555 1_555
Eu8_2 O7_2 1_555 1_555
O24_2 Eu3_2 1_555 1_555
O25_2 Eu3_2 1_555 1_555
O26_2 Eu3_2 1_555 1_555
O27_2 Eu3_2 1_555 1_555
O28_2 Eu2_2 1_555 1_555
O30_2 Eu1_3 1_555 1_555
O31_2 Eu2_2 1_555 1_555
O32_2 Eu3_2 1_555 1_555
O33_2 Eu1_3 1_555 1_555
O35_2 Eu3_2 1_555 1_555
C6_2 C7_2 1_555 1_555
C16_2 C17_2 1_555 1_555
C23_2 N3_2 1_555 1_555
C24_2 N3_2 1_555 1_555
Eu1_3 O10_3 1_555 1_555
Eu1_3 O12_2 1_555 1_555
Eu2_2 O2_2 1_555 1_555
Eu2_2 O3_2 1_555 1_555
Eu2_2 O4_2 1_555 1_555
Eu2_2 O11_2 1_555 1_555
Eu2_2 O12_2 1_555 1_555
C49_2 N4_2 1_555 1_555
C50_2 N4_2 1_555 1_555
Eu3_2 O23_2 1_555 1_555
Eu7 O35_2 1_555 1_555
H5_4 C10_4 1_555 1_555
H10_4 C20_4 1_555 1_555
C25_4 H18_4 1_555 1_555
C26_4 H19_4 1_555 1_555
Eu1_4 O9_4 1_555 1_555
O9_4 C26_4 1_555 1_555
O10_4 C26_4 1_555 1_555
O13_4 Eu1_4 1_555 1_555
H20_2 O13_4 1_555 1_555
C28_2 C29_2 1_555 1_555
C29_2 C30_2 1_555 1_555
C30_2 H21_2 1_555 1_555
C31_2 C30_2 1_555 1_555
C32_2 C31_2 1_555 1_555
H22_2 C32_2 1_555 1_555
C33_2 C32_2 1_555 1_555
C34_2 C29_2 1_555 1_555
H23_2 C34_2 1_555 1_555
C35_2 N1_4 1_555 1_555
C36_2 C10_4 1_555 1_555
H24_2 C36_2 1_555 1_555
O14_2 C28_2 1_555 1_555
O15_2 C28_2 1_555 1_555
O16_2 C37_2 1_555 1_555
O17_2 C37_2 1_555 1_555
C37_2 C33_2 1_555 1_555
C38_2 C39_2 1_555 1_555
C39_2 C40_2 1_555 1_555
C40_2 H25_2 1_555 1_555
C41_2 C40_2 1_555 1_555
C42_2 C41_2 1_555 1_555
H26_2 C42_2 1_555 1_555
C43_2 C42_2 1_555 1_555
C44_2 C39_2 1_555 1_555
H27_2 C44_2 1_555 1_555
C45_2 N2_4 1_555 1_555
C46_2 C20_4 1_555 1_555
H28_2 C46_2 1_555 1_555
C47_2 C41_2 1_555 1_555
O18_2 C38_2 1_555 1_555
O19_2 C38_2 1_555 1_555
O20_2 C47_2 1_555 1_555
O21_2 C47_2 1_555 1_555
O22_2 C25_4 1_555 1_555
Eu4_3 O17_2 1_555 1_555
Eu6 O21_2 1_555 1_555
Eu9_2 O20_2 1_555 1_555
Eu10_2 O14_2 1_555 1_555
Eu11_2 O16_2 1_555 1_555
O29_2 Eu1_4 1_555 1_555
O34_2 Eu1_4 1_555 1_555
Eu1_4 O10_4 1_555 1_555
Eu1_4 O22_2 1_555 1_555
C31_2 C35_2 1_555 1_555
C33_2 C34_2 1_555 1_555
C35_2 C36_2 1_555 1_555
O15_2 Eu10_2 1_555 1_555
C43_2 C44_2 1_555 1_555
C43_2 C45_2 1_555 1_555
C45_2 C46_2 1_555 1_555
O18_2 Eu10_2 1_555 1_555
O19_2 Eu10_2 1_555 1_555
O22_2 Eu10_2 1_555 1_555
H5_5 C10_5 1_555 1_555
H10_5 C20_5 1_555 1_555
C25_5 H18_5 1_555 1_555
C26_5 H19_5 1_555 1_555
Eu1_5 O9_5 1_555 1_555
O9_5 C26_5 1_555 1_555
O10_5 C26_5 1_555 1_555
O13_5 Eu1_5 1_555 1_555
H20_3 O13_5 1_555 1_555
C28_3 C29_3 1_555 1_555
C29_3 C30_3 1_555 1_555
C30_3 H21_3 1_555 1_555
C31_3 C30_3 1_555 1_555
C32_3 C31_3 1_555 1_555
H22_3 C32_3 1_555 1_555
C33_3 C32_3 1_555 1_555
C34_3 C29_3 1_555 1_555
H23_3 C34_3 1_555 1_555
C35_3 N1_5 1_555 1_555
C36_3 C10_5 1_555 1_555
H24_3 C36_3 1_555 1_555
O14_3 C28_3 1_555 1_555
O15_3 C28_3 1_555 1_555
O16_3 C37_3 1_555 1_555
O17_3 C37_3 1_555 1_555
C37_3 C33_3 1_555 1_555
C38_3 C39_3 1_555 1_555
C39_3 C40_3 1_555 1_555
C40_3 H25_3 1_555 1_555
C41_3 C40_3 1_555 1_555
C42_3 C41_3 1_555 1_555
H26_3 C42_3 1_555 1_555
C43_3 C42_3 1_555 1_555
C44_3 C39_3 1_555 1_555
H27_3 C44_3 1_555 1_555
C45_3 N2_5 1_555 1_555
C46_3 C20_5 1_555 1_555
H28_3 C46_3 1_555 1_555
C47_3 C41_3 1_555 1_555
O18_3 C38_3 1_555 1_555
O19_3 C38_3 1_555 1_555
O20_3 C47_3 1_555 1_555
O21_3 C47_3 1_555 1_555
O22_3 C25_5 1_555 1_555
Eu5_4 O17_3 1_555 1_555
Eu7_2 O21_3 1_555 1_555
Eu9_3 O20_3 1_555 1_555
Eu10_3 O14_3 1_555 1_555
Eu11_3 O16_3 1_555 1_555
O29_3 Eu1_5 1_555 1_555
O34_3 Eu1_5 1_555 1_555
Eu1_5 O10_5 1_555 1_555
Eu1_5 O22_3 1_555 1_555
C31_3 C35_3 1_555 1_555
C33_3 C34_3 1_555 1_555
C35_3 C36_3 1_555 1_555
O15_3 Eu10_3 1_555 1_555
C43_3 C44_3 1_555 1_555
C43_3 C45_3 1_555 1_555
C45_3 C46_3 1_555 1_555
O18_3 Eu10_3 1_555 1_555
O19_3 Eu10_3 1_555 1_555
O22_3 Eu10_3 1_555 1_555
C1_3 C2_3 1_555 1_555
C2_3 C3_3 1_555 1_555
C3_3 H1_3 1_555 1_555
C4_3 C3_3 1_555 1_555
C5_3 C4_3 1_555 1_555
H2_3 C5_3 1_555 1_555
C6_3 C5_3 1_555 1_555
C7_3 C2_3 1_555 1_555
H3_3 C7_3 1_555 1_555
C8_3 C4_3 1_555 1_555
C9_3 C8_3 1_555 1_555
H4_3 C9_3 1_555 1_555
C10_6 C9_3 1_555 1_555
H5_6 C10_6 1_555 1_555
C11_3 C12_3 1_555 1_555
C12_3 C13_3 1_555 1_555
C13_3 H6_3 1_555 1_555
C14_3 C13_3 1_555 1_555
C15_3 C14_3 1_555 1_555
H7_3 C15_3 1_555 1_555
C16_3 C15_3 1_555 1_555
C17_3 C12_3 1_555 1_555
H8_3 C17_3 1_555 1_555
C18_3 C16_3 1_555 1_555
C19_3 C18_3 1_555 1_555
H9_3 C19_3 1_555 1_555
C20_6 C19_3 1_555 1_555
H10_6 C20_6 1_555 1_555
C21_3 C14_3 1_555 1_555
C22_3 H11_3 1_555 1_555
C23_3 H12_3 1_555 1_555
H13_3 C23_3 1_555 1_555
H14_3 C23_3 1_555 1_555
C24_3 H15_3 1_555 1_555
H16_3 C24_3 1_555 1_555
H17_3 C24_3 1_555 1_555
C25_6 H18_6 1_555 1_555
C26_6 H19_6 1_555 1_555
Eu1_6 O9_6 1_555 1_555
Eu2_3 O1_3 1_555 1_555
N1_6 C8_3 1_555 1_555
N2_6 C18_3 1_555 1_555
N3_3 C22_3 1_555 1_555
O1_3 C1_3 1_555 1_555
O2_3 C1_3 1_555 1_555
O3_3 C11_3 1_555 1_555
O4_3 C11_3 1_555 1_555
O5_3 C21_3 1_555 1_555
O6_3 C21_3 1_555 1_555
O7_3 C27_3 1_555 1_555
O8_3 C27_3 1_555 1_555
O9_6 C26_6 1_555 1_555
O10_6 C26_6 1_555 1_555
O11_3 C22_3 1_555 1_555
O12_3 C25_6 1_555 1_555
O13_6 Eu1_6 1_555 1_555
C27_3 C6_3 1_555 1_555
H29_3 O13_6 1_555 1_555
C48_3 H30_3 1_555 1_555
C49_3 H31_3 1_555 1_555
H32_3 C49_3 1_555 1_555
H33_3 C49_3 1_555 1_555
C50_3 H34_3 1_555 1_555
H35_3 C50_3 1_555 1_555
H36_3 C50_3 1_555 1_555
Eu3_3 O5_3 1_555 1_555
N4_3 C48_3 1_555 1_555
O23_3 C48_3 1_555 1_555
Eu4_4 O8_3 1_555 1_555
Eu6_2 O6_3 1_555 1_555
Eu8_3 O7_3 1_555 1_555
O24_3 Eu3_3 1_555 1_555
O25_3 Eu3_3 1_555 1_555
O26_3 Eu3_3 1_555 1_555
O27_3 Eu3_3 1_555 1_555
O28_3 Eu2_3 1_555 1_555
O30_3 Eu1_6 1_555 1_555
O31_3 Eu2_3 1_555 1_555
O32_3 Eu3_3 1_555 1_555
O33_3 Eu1_6 1_555 1_555
O35_3 Eu3_3 1_555 1_555
C6_3 C7_3 1_555 1_555
C16_3 C17_3 1_555 1_555
C23_3 N3_3 1_555 1_555
C24_3 N3_3 1_555 1_555
Eu1_6 O10_6 1_555 1_555
Eu1_6 O12_3 1_555 1_555
Eu2_3 O2_3 1_555 1_555
Eu2_3 O3_3 1_555 1_555
Eu2_3 O4_3 1_555 1_555
Eu2_3 O11_3 1_555 1_555
Eu2_3 O12_3 1_555 1_555
C49_3 N4_3 1_555 1_555
C50_3 N4_3 1_555 1_555
Eu3_3 O23_3 1_555 1_555
Eu6_2 O35_3 1_555 1_555
C1_4 C2_4 1_555 1_555
C2_4 C3_4 1_555 1_555
C3_4 H1_4 1_555 1_555
C4_4 C3_4 1_555 1_555
C5_4 C4_4 1_555 1_555
H2_4 C5_4 1_555 1_555
C6_4 C5_4 1_555 1_555
C7_4 C2_4 1_555 1_555
H3_4 C7_4 1_555 1_555
C8_4 C4_4 1_555 1_555
C9_4 C8_4 1_555 1_555
H4_4 C9_4 1_555 1_555
C10_7 C9_4 1_555 1_555
H5_7 C10_7 1_555 1_555
C11_4 C12_4 1_555 1_555
C12_4 C13_4 1_555 1_555
C13_4 H6_4 1_555 1_555
C14_4 C13_4 1_555 1_555
C15_4 C14_4 1_555 1_555
H7_4 C15_4 1_555 1_555
C16_4 C15_4 1_555 1_555
C17_4 C12_4 1_555 1_555
H8_4 C17_4 1_555 1_555
C18_4 C16_4 1_555 1_555
C19_4 C18_4 1_555 1_555
H9_4 C19_4 1_555 1_555
C20_7 C19_4 1_555 1_555
H10_7 C20_7 1_555 1_555
C21_4 C14_4 1_555 1_555
C22_4 H11_4 1_555 1_555
C23_4 H12_4 1_555 1_555
H13_4 C23_4 1_555 1_555
H14_4 C23_4 1_555 1_555
C24_4 H15_4 1_555 1_555
H16_4 C24_4 1_555 1_555
H17_4 C24_4 1_555 1_555
C25_7 H18_7 1_555 1_555
C26_7 H19_7 1_555 1_555
Eu1_7 O9_7 1_555 1_555
Eu2_4 O1_4 1_555 1_555
N1_7 C8_4 1_555 1_555
N2_7 C18_4 1_555 1_555
N3_4 C22_4 1_555 1_555
O1_4 C1_4 1_555 1_555
O2_4 C1_4 1_555 1_555
O3_4 C11_4 1_555 1_555
O4_4 C11_4 1_555 1_555
O5_4 C21_4 1_555 1_555
O6_4 C21_4 1_555 1_555
O7_4 C27_4 1_555 1_555
O8_4 C27_4 1_555 1_555
O9_7 C26_7 1_555 1_555
O10_7 C26_7 1_555 1_555
O11_4 C22_4 1_555 1_555
O12_4 C25_7 1_555 1_555
O13_7 Eu1_7 1_555 1_555
C27_4 C6_4 1_555 1_555
H29_4 O13_7 1_555 1_555
C48_4 H30_4 1_555 1_555
C49_4 H31_4 1_555 1_555
H32_4 C49_4 1_555 1_555
H33_4 C49_4 1_555 1_555
C50_4 H34_4 1_555 1_555
H35_4 C50_4 1_555 1_555
H36_4 C50_4 1_555 1_555
Eu3_4 O5_4 1_555 1_555
N4_4 C48_4 1_555 1_555
O23_4 C48_4 1_555 1_555
Eu4_2 O8_4 1_555 1_555
Eu7_2 O6_4 1_555 1_555
Eu8_4 O7_4 1_555 1_555
O24_4 Eu3_4 1_555 1_555
O25_4 Eu3_4 1_555 1_555
O26_4 Eu3_4 1_555 1_555
O27_4 Eu3_4 1_555 1_555
O28_4 Eu2_4 1_555 1_555
O30_4 Eu1_7 1_555 1_555
O31_4 Eu2_4 1_555 1_555
O32_4 Eu3_4 1_555 1_555
O33_4 Eu1_7 1_555 1_555
O35_4 Eu3_4 1_555 1_555
C6_4 C7_4 1_555 1_555
C16_4 C17_4 1_555 1_555
C23_4 N3_4 1_555 1_555
C24_4 N3_4 1_555 1_555
Eu1_7 O10_7 1_555 1_555
Eu1_7 O12_4 1_555 1_555
Eu2_4 O2_4 1_555 1_555
Eu2_4 O3_4 1_555 1_555
Eu2_4 O4_4 1_555 1_555
Eu2_4 O11_4 1_555 1_555
Eu2_4 O12_4 1_555 1_555
C49_4 N4_4 1_555 1_555
C50_4 N4_4 1_555 1_555
Eu3_4 O23_4 1_555 1_555
Eu7_2 O35_4 1_555 1_555
H5_8 C10_8 1_555 1_555
H10_8 C20_8 1_555 1_555
C25_8 H18_8 1_555 1_555
C26_8 H19_8 1_555 1_555
Eu1_8 O9_8 1_555 1_555
O9_8 C26_8 1_555 1_555
O10_8 C26_8 1_555 1_555
O13_8 Eu1_8 1_555 1_555
H20_4 O13_8 1_555 1_555
C28_4 C29_4 1_555 1_555
C29_4 C30_4 1_555 1_555
C30_4 H21_4 1_555 1_555
C31_4 C30_4 1_555 1_555
C32_4 C31_4 1_555 1_555
H22_4 C32_4 1_555 1_555
C33_4 C32_4 1_555 1_555
C34_4 C29_4 1_555 1_555
H23_4 C34_4 1_555 1_555
C35_4 N1_8 1_555 1_555
C36_4 C10_8 1_555 1_555
H24_4 C36_4 1_555 1_555
O14_4 C28_4 1_555 1_555
O15_4 C28_4 1_555 1_555
O16_4 C37_4 1_555 1_555
O17_4 C37_4 1_555 1_555
C37_4 C33_4 1_555 1_555
C38_4 C39_4 1_555 1_555
C39_4 C40_4 1_555 1_555
C40_4 H25_4 1_555 1_555
C41_4 C40_4 1_555 1_555
C42_4 C41_4 1_555 1_555
H26_4 C42_4 1_555 1_555
C43_4 C42_4 1_555 1_555
C44_4 C39_4 1_555 1_555
H27_4 C44_4 1_555 1_555
C45_4 N2_8 1_555 1_555
C46_4 C20_8 1_555 1_555
H28_4 C46_4 1_555 1_555
C47_4 C41_4 1_555 1_555
O18_4 C38_4 1_555 1_555
O19_4 C38_4 1_555 1_555
O20_4 C47_4 1_555 1_555
O21_4 C47_4 1_555 1_555
O22_4 C25_8 1_555 1_555
Eu5_2 O17_4 1_555 1_555
Eu6_2 O21_4 1_555 1_555
Eu9_4 O20_4 1_555 1_555
Eu10_4 O14_4 1_555 1_555
Eu11_4 O16_4 1_555 1_555
O29_4 Eu1_8 1_555 1_555
O34_4 Eu1_8 1_555 1_555
Eu1_8 O10_8 1_555 1_555
Eu1_8 O22_4 1_555 1_555
C31_4 C35_4 1_555 1_555
C33_4 C34_4 1_555 1_555
C35_4 C36_4 1_555 1_555
O15_4 Eu10_4 1_555 1_555
C43_4 C44_4 1_555 1_555
C43_4 C45_4 1_555 1_555
C45_4 C46_4 1_555 1_555
O18_4 Eu10_4 1_555 1_555
O19_4 Eu10_4 1_555 1_555
O22_4 Eu10_4 1_555 1_555
H5_9 C10_9 1_555 1_555
H10_9 C20_9 1_555 1_555
C25_9 H18_9 1_555 1_555
C26_9 H19_9 1_555 1_555
Eu4 O9_9 1_555 1_555
O9_9 C26_9 1_555 1_555
O10_9 C26_9 1_555 1_555
O13_9 Eu4 1_555 1_555
H20_5 O13_9 1_555 1_555
C28_5 C29_5 1_555 1_555
C29_5 C30_5 1_555 1_555
C30_5 H21_5 1_555 1_555
C31_5 C30_5 1_555 1_555
C32_5 C31_5 1_555 1_555
H22_5 C32_5 1_555 1_555
C33_5 C32_5 1_555 1_555
C34_5 C29_5 1_555 1_555
H23_5 C34_5 1_555 1_555
C35_5 N1_9 1_555 1_555
C36_5 C10_9 1_555 1_555
H24_5 C36_5 1_555 1_555
O14_5 C28_5 1_555 1_555
O15_5 C28_5 1_555 1_555
O16_5 C37_5 1_555 1_555
O17_5 C37_5 1_555 1_555
C37_5 C33_5 1_555 1_555
C38_5 C39_5 1_555 1_555
C39_5 C40_5 1_555 1_555
C40_5 H25_5 1_555 1_555
C41_5 C40_5 1_555 1_555
C42_5 C41_5 1_555 1_555
H26_5 C42_5 1_555 1_555
C43_5 C42_5 1_555 1_555
C44_5 C39_5 1_555 1_555
H27_5 C44_5 1_555 1_555
C45_5 N2_9 1_555 1_555
C46_5 C20_9 1_555 1_555
H28_5 C46_5 1_555 1_555
C47_5 C41_5 1_555 1_555
O18_5 C38_5 1_555 1_555
O19_5 C38_5 1_555 1_555
O20_5 C47_5 1_555 1_555
O21_5 C47_5 1_555 1_555
O22_5 C25_9 1_555 1_555
Eu4_5 O17_5 1_555 1_555
Eu7_3 O21_5 1_555 1_555
Eu9_5 O20_5 1_555 1_555
Eu11 O14_5 1_555 1_555
Eu11_5 O16_5 1_555 1_555
O29_5 Eu4 1_555 1_555
Eu4 O10_9 1_555 1_555
Eu4 O22_5 1_555 1_555
C31_5 C35_5 1_555 1_555
C33_5 C34_5 1_555 1_555
C35_5 C36_5 1_555 1_555
O15_5 Eu11 1_555 1_555
C43_5 C44_5 1_555 1_555
C43_5 C45_5 1_555 1_555
C45_5 C46_5 1_555 1_555
O18_5 Eu11 1_555 1_555
O19_5 Eu11 1_555 1_555
O22_5 Eu11 1_555 1_555
C1_5 C2_5 1_555 1_555
C2_5 C3_5 1_555 1_555
C3_5 H1_5 1_555 1_555
C4_5 C3_5 1_555 1_555
C5_5 C4_5 1_555 1_555
H2_5 C5_5 1_555 1_555
C6_5 C5_5 1_555 1_555
C7_5 C2_5 1_555 1_555
H3_5 C7_5 1_555 1_555
C8_5 C4_5 1_555 1_555
C9_5 C8_5 1_555 1_555
H4_5 C9_5 1_555 1_555
C10_10 C9_5 1_555 1_555
H5_10 C10_10 1_555 1_555
C11_5 C12_5 1_555 1_555
C12_5 C13_5 1_555 1_555
C13_5 H6_5 1_555 1_555
C14_5 C13_5 1_555 1_555
C15_5 C14_5 1_555 1_555
H7_5 C15_5 1_555 1_555
C16_5 C15_5 1_555 1_555
C17_5 C12_5 1_555 1_555
H8_5 C17_5 1_555 1_555
C18_5 C16_5 1_555 1_555
C19_5 C18_5 1_555 1_555
H9_5 C19_5 1_555 1_555
C20_10 C19_5 1_555 1_555
H10_10 C20_10 1_555 1_555
C21_5 C14_5 1_555 1_555
C22_5 H11_5 1_555 1_555
C23_5 H12_5 1_555 1_555
H13_5 C23_5 1_555 1_555
H14_5 C23_5 1_555 1_555
C24_5 H15_5 1_555 1_555
H16_5 C24_5 1_555 1_555
H17_5 C24_5 1_555 1_555
C25_10 H18_10 1_555 1_555
C26_10 H19_10 1_555 1_555
Eu4_2 O9_10 1_555 1_555
Eu8_4 O1_5 1_555 1_555
N1_10 C8_5 1_555 1_555
N2_10 C18_5 1_555 1_555
N3_5 C22_5 1_555 1_555
O1_5 C1_5 1_555 1_555
O2_5 C1_5 1_555 1_555
O3_5 C11_5 1_555 1_555
O4_5 C11_5 1_555 1_555
O5_5 C21_5 1_555 1_555
O6_5 C21_5 1_555 1_555
O7_5 C27_5 1_555 1_555
O8_5 C27_5 1_555 1_555
O9_10 C26_10 1_555 1_555
O10_10 C26_10 1_555 1_555
O11_5 C22_5 1_555 1_555
O12_5 C25_10 1_555 1_555
O13_10 Eu4_2 1_555 1_555
C27_5 C6_5 1_555 1_555
H29_5 O13_10 1_555 1_555
C48_5 H30_5 1_555 1_555
C49_5 H31_5 1_555 1_555
H32_5 C49_5 1_555 1_555
H33_5 C49_5 1_555 1_555
C50_5 H34_5 1_555 1_555
H35_5 C50_5 1_555 1_555
H36_5 C50_5 1_555 1_555
Eu3_5 O5_5 1_555 1_555
N4_5 C48_5 1_555 1_555
O23_5 C48_5 1_555 1_555
Eu5_5 O8_5 1_555 1_555
Eu6_3 O6_5 1_555 1_555
Eu8_5 O7_5 1_555 1_555
O24_5 Eu3_5 1_555 1_555
O25_5 Eu3_5 1_555 1_555
O26_5 Eu3_5 1_555 1_555
O27_5 Eu3_5 1_555 1_555
O28_5 Eu8_4 1_555 1_555
O30_5 Eu4_2 1_555 1_555
O32_5 Eu3_5 1_555 1_555
O35_5 Eu3_5 1_555 1_555
C6_5 C7_5 1_555 1_555
C16_5 C17_5 1_555 1_555
C23_5 N3_5 1_555 1_555
C24_5 N3_5 1_555 1_555
Eu4_2 O10_10 1_555 1_555
Eu4_2 O12_5 1_555 1_555
Eu8_4 O2_5 1_555 1_555
Eu8_4 O3_5 1_555 1_555
Eu8_4 O4_5 1_555 1_555
Eu8_4 O11_5 1_555 1_555
Eu8_4 O12_5 1_555 1_555
C49_5 N4_5 1_555 1_555
C50_5 N4_5 1_555 1_555
Eu3_5 O23_5 1_555 1_555
Eu6_3 O35_5 1_555 1_555
C1_6 C2_6 1_555 1_555
C2_6 C3_6 1_555 1_555
C3_6 H1_6 1_555 1_555
C4_6 C3_6 1_555 1_555
C5_6 C4_6 1_555 1_555
H2_6 C5_6 1_555 1_555
C6_6 C5_6 1_555 1_555
C7_6 C2_6 1_555 1_555
H3_6 C7_6 1_555 1_555
C8_6 C4_6 1_555 1_555
C9_6 C8_6 1_555 1_555
H4_6 C9_6 1_555 1_555
C10_11 C9_6 1_555 1_555
H5_11 C10_11 1_555 1_555
C11_6 C12_6 1_555 1_555
C12_6 C13_6 1_555 1_555
C13_6 H6_6 1_555 1_555
C14_6 C13_6 1_555 1_555
C15_6 C14_6 1_555 1_555
H7_6 C15_6 1_555 1_555
C16_6 C15_6 1_555 1_555
C17_6 C12_6 1_555 1_555
H8_6 C17_6 1_555 1_555
C18_6 C16_6 1_555 1_555
C19_6 C18_6 1_555 1_555
H9_6 C19_6 1_555 1_555
C20_11 C19_6 1_555 1_555
H10_11 C20_11 1_555 1_555
C21_6 C14_6 1_555 1_555
C22_6 H11_6 1_555 1_555
C23_6 H12_6 1_555 1_555
H13_6 C23_6 1_555 1_555
H14_6 C23_6 1_555 1_555
C24_6 H15_6 1_555 1_555
H16_6 C24_6 1_555 1_555
H17_6 C24_6 1_555 1_555
C25_11 H18_11 1_555 1_555
C26_11 H19_11 1_555 1_555
Eu5 O9_11 1_555 1_555
Eu8 O1_6 1_555 1_555
N1_11 C8_6 1_555 1_555
N2_11 C18_6 1_555 1_555
N3_6 C22_6 1_555 1_555
O1_6 C1_6 1_555 1_555
O2_6 C1_6 1_555 1_555
O3_6 C11_6 1_555 1_555
O4_6 C11_6 1_555 1_555
O5_6 C21_6 1_555 1_555
O6_6 C21_6 1_555 1_555
O7_6 C27_6 1_555 1_555
O8_6 C27_6 1_555 1_555
O9_11 C26_11 1_555 1_555
O10_11 C26_11 1_555 1_555
O11_6 C22_6 1_555 1_555
O12_6 C25_11 1_555 1_555
O13_11 Eu5 1_555 1_555
C27_6 C6_6 1_555 1_555
H29_6 O13_11 1_555 1_555
C48_6 H30_6 1_555 1_555
C49_6 H31_6 1_555 1_555
H32_6 C49_6 1_555 1_555
H33_6 C49_6 1_555 1_555
C50_6 H34_6 1_555 1_555
H35_6 C50_6 1_555 1_555
H36_6 C50_6 1_555 1_555
Eu3_6 O5_6 1_555 1_555
N4_6 C48_6 1_555 1_555
O23_6 C48_6 1_555 1_555
Eu5_7 O8_6 1_555 1_555
Eu7_3 O6_6 1_555 1_555
Eu8_6 O7_6 1_555 1_555
O24_6 Eu3_6 1_555 1_555
O25_6 Eu3_6 1_555 1_555
O26_6 Eu3_6 1_555 1_555
O27_6 Eu3_6 1_555 1_555
O28_6 Eu8 1_555 1_555
O30_6 Eu5 1_555 1_555
O32_6 Eu3_6 1_555 1_555
O35_6 Eu3_6 1_555 1_555
C6_6 C7_6 1_555 1_555
C16_6 C17_6 1_555 1_555
C23_6 N3_6 1_555 1_555
C24_6 N3_6 1_555 1_555
Eu5 O10_11 1_555 1_555
Eu5 O12_6 1_555 1_555
Eu8 O2_6 1_555 1_555
Eu8 O3_6 1_555 1_555
Eu8 O4_6 1_555 1_555
Eu8 O11_6 1_555 1_555
Eu8 O12_6 1_555 1_555
C49_6 N4_6 1_555 1_555
C50_6 N4_6 1_555 1_555
Eu3_6 O23_6 1_555 1_555
Eu7_3 O35_6 1_555 1_555
H5_12 C10_12 1_555 1_555
H10_12 C20_12 1_555 1_555
C25_12 H18_12 1_555 1_555
C26_12 H19_12 1_555 1_555
Eu5_2 O9_12 1_555 1_555
O9_12 C26_12 1_555 1_555
O10_12 C26_12 1_555 1_555
O13_12 Eu5_2 1_555 1_555
H20_6 O13_12 1_555 1_555
C28_6 C29_6 1_555 1_555
C29_6 C30_6 1_555 1_555
C30_6 H21_6 1_555 1_555
C31_6 C30_6 1_555 1_555
C32_6 C31_6 1_555 1_555
H22_6 C32_6 1_555 1_555
C33_6 C32_6 1_555 1_555
C34_6 C29_6 1_555 1_555
H23_6 C34_6 1_555 1_555
C35_6 N1_12 1_555 1_555
C36_6 C10_12 1_555 1_555
H24_6 C36_6 1_555 1_555
O14_6 C28_6 1_555 1_555
O15_6 C28_6 1_555 1_555
O16_6 C37_6 1_555 1_555
O17_6 C37_6 1_555 1_555
C37_6 C33_6 1_555 1_555
C38_6 C39_6 1_555 1_555
C39_6 C40_6 1_555 1_555
C40_6 H25_6 1_555 1_555
C41_6 C40_6 1_555 1_555
C42_6 C41_6 1_555 1_555
H26_6 C42_6 1_555 1_555
C43_6 C42_6 1_555 1_555
C44_6 C39_6 1_555 1_555
H27_6 C44_6 1_555 1_555
C45_6 N2_12 1_555 1_555
C46_6 C20_12 1_555 1_555
H28_6 C46_6 1_555 1_555
C47_6 C41_6 1_555 1_555
O18_6 C38_6 1_555 1_555
O19_6 C38_6 1_555 1_555
O20_6 C47_6 1_555 1_555
O21_6 C47_6 1_555 1_555
O22_6 C25_12 1_555 1_555
Eu4_7 O17_6 1_555 1_555
Eu6_3 O21_6 1_555 1_555
Eu9_6 O20_6 1_555 1_555
Eu11_4 O14_6 1_555 1_555
Eu11_6 O16_6 1_555 1_555
O29_6 Eu5_2 1_555 1_555
Eu5_2 O10_12 1_555 1_555
Eu5_2 O22_6 1_555 1_555
C31_6 C35_6 1_555 1_555
C33_6 C34_6 1_555 1_555
C35_6 C36_6 1_555 1_555
O15_6 Eu11_4 1_555 1_555
C43_6 C44_6 1_555 1_555
C43_6 C45_6 1_555 1_555
C45_6 C46_6 1_555 1_555
O18_6 Eu11_4 1_555 1_555
O19_6 Eu11_4 1_555 1_555
O22_6 Eu11_4 1_555 1_555
H5_13 C10_13 1_555 1_555
H10_13 C20_13 1_555 1_555
C25_13 H18_13 1_555 1_555
C26_13 H19_13 1_555 1_555
Eu4_3 O9_13 1_555 1_555
O9_13 C26_13 1_555 1_555
O10_13 C26_13 1_555 1_555
O13_13 Eu4_3 1_555 1_555
H20_7 O13_13 1_555 1_555
C28_7 C29_7 1_555 1_555
C29_7 C30_7 1_555 1_555
C30_7 H21_7 1_555 1_555
C31_7 C30_7 1_555 1_555
C32_7 C31_7 1_555 1_555
H22_7 C32_7 1_555 1_555
C33_7 C32_7 1_555 1_555
C34_7 C29_7 1_555 1_555
H23_7 C34_7 1_555 1_555
C35_7 N1_13 1_555 1_555
C36_7 C10_13 1_555 1_555
H24_7 C36_7 1_555 1_555
O14_7 C28_7 1_555 1_555
O15_7 C28_7 1_555 1_555
O16_7 C37_7 1_555 1_555
O17_7 C37_7 1_555 1_555
C37_7 C33_7 1_555 1_555
C38_7 C39_7 1_555 1_555
C39_7 C40_7 1_555 1_555
C40_7 H25_7 1_555 1_555
C41_7 C40_7 1_555 1_555
C42_7 C41_7 1_555 1_555
H26_7 C42_7 1_555 1_555
C43_7 C42_7 1_555 1_555
C44_7 C39_7 1_555 1_555
H27_7 C44_7 1_555 1_555
C45_7 N2_13 1_555 1_555
C46_7 C20_13 1_555 1_555
H28_7 C46_7 1_555 1_555
C47_7 C41_7 1_555 1_555
O18_7 C38_7 1_555 1_555
O19_7 C38_7 1_555 1_555
O20_7 C47_7 1_555 1_555
O21_7 C47_7 1_555 1_555
O22_7 C25_13 1_555 1_555
Eu5_8 O17_7 1_555 1_555
Eu7_4 O21_7 1_555 1_555
Eu9_7 O20_7 1_555 1_555
Eu11_2 O14_7 1_555 1_555
Eu11_7 O16_7 1_555 1_555
O29_7 Eu4_3 1_555 1_555
Eu4_3 O10_13 1_555 1_555
Eu4_3 O22_7 1_555 1_555
C31_7 C35_7 1_555 1_555
C33_7 C34_7 1_555 1_555
C35_7 C36_7 1_555 1_555
O15_7 Eu11_2 1_555 1_555
C43_7 C44_7 1_555 1_555
C43_7 C45_7 1_555 1_555
C45_7 C46_7 1_555 1_555
O18_7 Eu11_2 1_555 1_555
O19_7 Eu11_2 1_555 1_555
O22_7 Eu11_2 1_555 1_555
C1_7 C2_7 1_555 1_555
C2_7 C3_7 1_555 1_555
C3_7 H1_7 1_555 1_555
C4_7 C3_7 1_555 1_555
C5_7 C4_7 1_555 1_555
H2_7 C5_7 1_555 1_555
C6_7 C5_7 1_555 1_555
C7_7 C2_7 1_555 1_555
H3_7 C7_7 1_555 1_555
C8_7 C4_7 1_555 1_555
C9_7 C8_7 1_555 1_555
H4_7 C9_7 1_555 1_555
C10_14 C9_7 1_555 1_555
H5_14 C10_14 1_555 1_555
C11_7 C12_7 1_555 1_555
C12_7 C13_7 1_555 1_555
C13_7 H6_7 1_555 1_555
C14_7 C13_7 1_555 1_555
C15_7 C14_7 1_555 1_555
H7_7 C15_7 1_555 1_555
C16_7 C15_7 1_555 1_555
C17_7 C12_7 1_555 1_555
H8_7 C17_7 1_555 1_555
C18_7 C16_7 1_555 1_555
C19_7 C18_7 1_555 1_555
H9_7 C19_7 1_555 1_555
C20_14 C19_7 1_555 1_555
H10_14 C20_14 1_555 1_555
C21_7 C14_7 1_555 1_555
C22_7 H11_7 1_555 1_555
C23_7 H12_7 1_555 1_555
H13_7 C23_7 1_555 1_555
H14_7 C23_7 1_555 1_555
C24_7 H15_7 1_555 1_555
H16_7 C24_7 1_555 1_555
H17_7 C24_7 1_555 1_555
C25_14 H18_14 1_555 1_555
C26_14 H19_14 1_555 1_555
Eu4_4 O9_14 1_555 1_555
Eu8_3 O1_7 1_555 1_555
N1_14 C8_7 1_555 1_555
N2_14 C18_7 1_555 1_555
N3_7 C22_7 1_555 1_555
O1_7 C1_7 1_555 1_555
O2_7 C1_7 1_555 1_555
O3_7 C11_7 1_555 1_555
O4_7 C11_7 1_555 1_555
O5_7 C21_7 1_555 1_555
O6_7 C21_7 1_555 1_555
O7_7 C27_7 1_555 1_555
O8_7 C27_7 1_555 1_555
O9_14 C26_14 1_555 1_555
O10_14 C26_14 1_555 1_555
O11_7 C22_7 1_555 1_555
O12_7 C25_14 1_555 1_555
O13_14 Eu4_4 1_555 1_555
C27_7 C6_7 1_555 1_555
H29_7 O13_14 1_555 1_555
C48_7 H30_7 1_555 1_555
C49_7 H31_7 1_555 1_555
H32_7 C49_7 1_555 1_555
H33_7 C49_7 1_555 1_555
C50_7 H34_7 1_555 1_555
H35_7 C50_7 1_555 1_555
H36_7 C50_7 1_555 1_555
Eu3_7 O5_7 1_555 1_555
N4_7 C48_7 1_555 1_555
O23_7 C48_7 1_555 1_555
Eu4_8 O8_7 1_555 1_555
Eu6_4 O6_7 1_555 1_555
Eu8_7 O7_7 1_555 1_555
O24_7 Eu3_7 1_555 1_555
O25_7 Eu3_7 1_555 1_555
O26_7 Eu3_7 1_555 1_555
O27_7 Eu3_7 1_555 1_555
O28_7 Eu8_3 1_555 1_555
O30_7 Eu4_4 1_555 1_555
O32_7 Eu3_7 1_555 1_555
O35_7 Eu3_7 1_555 1_555
C6_7 C7_7 1_555 1_555
C16_7 C17_7 1_555 1_555
C23_7 N3_7 1_555 1_555
C24_7 N3_7 1_555 1_555
Eu4_4 O10_14 1_555 1_555
Eu4_4 O12_7 1_555 1_555
Eu8_3 O2_7 1_555 1_555
Eu8_3 O3_7 1_555 1_555
Eu8_3 O4_7 1_555 1_555
Eu8_3 O11_7 1_555 1_555
Eu8_3 O12_7 1_555 1_555
C49_7 N4_7 1_555 1_555
C50_7 N4_7 1_555 1_555
Eu3_7 O23_7 1_555 1_555
Eu6_4 O35_7 1_555 1_555
C1_8 C2_8 1_555 1_555
C2_8 C3_8 1_555 1_555
C3_8 H1_8 1_555 1_555
C4_8 C3_8 1_555 1_555
C5_8 C4_8 1_555 1_555
H2_8 C5_8 1_555 1_555
C6_8 C5_8 1_555 1_555
C7_8 C2_8 1_555 1_555
H3_8 C7_8 1_555 1_555
C8_8 C4_8 1_555 1_555
C9_8 C8_8 1_555 1_555
H4_8 C9_8 1_555 1_555
C10_15 C9_8 1_555 1_555
H5_15 C10_15 1_555 1_555
C11_8 C12_8 1_555 1_555
C12_8 C13_8 1_555 1_555
C13_8 H6_8 1_555 1_555
C14_8 C13_8 1_555 1_555
C15_8 C14_8 1_555 1_555
H7_8 C15_8 1_555 1_555
C16_8 C15_8 1_555 1_555
C17_8 C12_8 1_555 1_555
H8_8 C17_8 1_555 1_555
C18_8 C16_8 1_555 1_555
C19_8 C18_8 1_555 1_555
H9_8 C19_8 1_555 1_555
C20_15 C19_8 1_555 1_555
H10_15 C20_15 1_555 1_555
C21_8 C14_8 1_555 1_555
C22_8 H11_8 1_555 1_555
C23_8 H12_8 1_555 1_555
H13_8 C23_8 1_555 1_555
H14_8 C23_8 1_555 1_555
C24_8 H15_8 1_555 1_555
H16_8 C24_8 1_555 1_555
H17_8 C24_8 1_555 1_555
C25_15 H18_15 1_555 1_555
C26_15 H19_15 1_555 1_555
Eu5_3 O9_15 1_555 1_555
Eu8_2 O1_8 1_555 1_555
N1_15 C8_8 1_555 1_555
N2_15 C18_8 1_555 1_555
N3_8 C22_8 1_555 1_555
O1_8 C1_8 1_555 1_555
O2_8 C1_8 1_555 1_555
O3_8 C11_8 1_555 1_555
O4_8 C11_8 1_555 1_555
O5_8 C21_8 1_555 1_555
O6_8 C21_8 1_555 1_555
O7_8 C27_8 1_555 1_555
O8_8 C27_8 1_555 1_555
O9_15 C26_15 1_555 1_555
O10_15 C26_15 1_555 1_555
O11_8 C22_8 1_555 1_555
O12_8 C25_15 1_555 1_555
O13_15 Eu5_3 1_555 1_555
C27_8 C6_8 1_555 1_555
H29_8 O13_15 1_555 1_555
C48_8 H30_8 1_555 1_555
C49_8 H31_8 1_555 1_555
H32_8 C49_8 1_555 1_555
H33_8 C49_8 1_555 1_555
C50_8 H34_8 1_555 1_555
H35_8 C50_8 1_555 1_555
H36_8 C50_8 1_555 1_555
Eu3_8 O5_8 1_555 1_555
N4_8 C48_8 1_555 1_555
O23_8 C48_8 1_555 1_555
Eu4_6 O8_8 1_555 1_555
Eu7_4 O6_8 1_555 1_555
Eu8_8 O7_8 1_555 1_555
O24_8 Eu3_8 1_555 1_555
O25_8 Eu3_8 1_555 1_555
O26_8 Eu3_8 1_555 1_555
O27_8 Eu3_8 1_555 1_555
O28_8 Eu8_2 1_555 1_555
O30_8 Eu5_3 1_555 1_555
O32_8 Eu3_8 1_555 1_555
O35_8 Eu3_8 1_555 1_555
C6_8 C7_8 1_555 1_555
C16_8 C17_8 1_555 1_555
C23_8 N3_8 1_555 1_555
C24_8 N3_8 1_555 1_555
Eu5_3 O10_15 1_555 1_555
Eu5_3 O12_8 1_555 1_555
Eu8_2 O2_8 1_555 1_555
Eu8_2 O3_8 1_555 1_555
Eu8_2 O4_8 1_555 1_555
Eu8_2 O11_8 1_555 1_555
Eu8_2 O12_8 1_555 1_555
C49_8 N4_8 1_555 1_555
C50_8 N4_8 1_555 1_555
Eu3_8 O23_8 1_555 1_555
Eu7_4 O35_8 1_555 1_555
H5_16 C10_16 1_555 1_555
H10_16 C20_16 1_555 1_555
C25_16 H18_16 1_555 1_555
C26_16 H19_16 1_555 1_555
Eu5_4 O9_16 1_555 1_555
O9_16 C26_16 1_555 1_555
O10_16 C26_16 1_555 1_555
O13_16 Eu5_4 1_555 1_555
H20_8 O13_16 1_555 1_555
C28_8 C29_8 1_555 1_555
C29_8 C30_8 1_555 1_555
C30_8 H21_8 1_555 1_555
C31_8 C30_8 1_555 1_555
C32_8 C31_8 1_555 1_555
H22_8 C32_8 1_555 1_555
C33_8 C32_8 1_555 1_555
C34_8 C29_8 1_555 1_555
H23_8 C34_8 1_555 1_555
C35_8 N1_16 1_555 1_555
C36_8 C10_16 1_555 1_555
H24_8 C36_8 1_555 1_555
O14_8 C28_8 1_555 1_555
O15_8 C28_8 1_555 1_555
O16_8 C37_8 1_555 1_555
O17_8 C37_8 1_555 1_555
C37_8 C33_8 1_555 1_555
C38_8 C39_8 1_555 1_555
C39_8 C40_8 1_555 1_555
C40_8 H25_8 1_555 1_555
C41_8 C40_8 1_555 1_555
C42_8 C41_8 1_555 1_555
H26_8 C42_8 1_555 1_555
C43_8 C42_8 1_555 1_555
C44_8 C39_8 1_555 1_555
H27_8 C44_8 1_555 1_555
C45_8 N2_16 1_555 1_555
C46_8 C20_16 1_555 1_555
H28_8 C46_8 1_555 1_555
C47_8 C41_8 1_555 1_555
O18_8 C38_8 1_555 1_555
O19_8 C38_8 1_555 1_555
O20_8 C47_8 1_555 1_555
O21_8 C47_8 1_555 1_555
O22_8 C25_16 1_555 1_555
Eu5_6 O17_8 1_555 1_555
Eu6_4 O21_8 1_555 1_555
Eu9_8 O20_8 1_555 1_555
Eu11_3 O14_8 1_555 1_555
Eu11_8 O16_8 1_555 1_555
O29_8 Eu5_4 1_555 1_555
Eu5_4 O10_16 1_555 1_555
Eu5_4 O22_8 1_555 1_555
C31_8 C35_8 1_555 1_555
C33_8 C34_8 1_555 1_555
C35_8 C36_8 1_555 1_555
O15_8 Eu11_3 1_555 1_555
C43_8 C44_8 1_555 1_555
C43_8 C45_8 1_555 1_555
C45_8 C46_8 1_555 1_555
O18_8 Eu11_3 1_555 1_555
O19_8 Eu11_3 1_555 1_555
O22_8 Eu11_3 1_555 1_555
H5_17 C10_17 1_555 1_555
H10_17 C20_17 1_555 1_555
C25_17 H18_17 1_555 1_555
C26_17 H19_17 1_555 1_555
Eu4_5 O9_17 1_555 1_555
O9_17 C26_17 1_555 1_555
O10_17 C26_17 1_555 1_555
O13_17 Eu4_5 1_555 1_555
H20_9 O13_17 1_555 1_555
C28_9 C29_9 1_555 1_555
C29_9 C30_9 1_555 1_555
C30_9 H21_9 1_555 1_555
C31_9 C30_9 1_555 1_555
C32_9 C31_9 1_555 1_555
H22_9 C32_9 1_555 1_555
C33_9 C32_9 1_555 1_555
C34_9 C29_9 1_555 1_555
H23_9 C34_9 1_555 1_555
C35_9 N1_17 1_555 1_555
C36_9 C10_17 1_555 1_555
H24_9 C36_9 1_555 1_555
O14_9 C28_9 1_555 1_555
O15_9 C28_9 1_555 1_555
O16_9 C37_9 1_555 1_555
O34 C37_9 1_555 1_555
C37_9 C33_9 1_555 1_555
C38_9 C39_9 1_555 1_555
C39_9 C40_9 1_555 1_555
C40_9 H25_9 1_555 1_555
C41_9 C40_9 1_555 1_555
C42_9 C41_9 1_555 1_555
H26_9 C42_9 1_555 1_555
C43_9 C42_9 1_555 1_555
C44_9 C39_9 1_555 1_555
H27_9 C44_9 1_555 1_555
C45_9 N2_17 1_555 1_555
C46_9 C20_17 1_555 1_555
H28_9 C46_9 1_555 1_555
C47_9 C41_9 1_555 1_555
O18_9 C38_9 1_555 1_555
O19_9 C38_9 1_555 1_555
O20_9 C47_9 1_555 1_555
O21_9 C47_9 1_555 1_555
O22_9 C25_17 1_555 1_555
Eu7_5 O21_9 1_555 1_555
Eu9_9 O20_9 1_555 1_555
Eu11_5 O14_9 1_555 1_555
Eu10 O16_9 1_555 1_555
O29_9 Eu4_5 1_555 1_555
Eu4_5 O10_17 1_555 1_555
Eu4_5 O22_9 1_555 1_555
C31_9 C35_9 1_555 1_555
C33_9 C34_9 1_555 1_555
C35_9 C36_9 1_555 1_555
O15_9 Eu11_5 1_555 1_555
C43_9 C44_9 1_555 1_555
C43_9 C45_9 1_555 1_555
C45_9 C46_9 1_555 1_555
O18_9 Eu11_5 1_555 1_555
O19_9 Eu11_5 1_555 1_555
O22_9 Eu11_5 1_555 1_555
C1_9 C2_9 1_555 1_555
C2_9 C3_9 1_555 1_555
C3_9 H1_9 1_555 1_555
C4_9 C3_9 1_555 1_555
C5_9 C4_9 1_555 1_555
H2_9 C5_9 1_555 1_555
C6_9 C5_9 1_555 1_555
C7_9 C2_9 1_555 1_555
H3_9 C7_9 1_555 1_555
C8_9 C4_9 1_555 1_555
C9_9 C8_9 1_555 1_555
H4_9 C9_9 1_555 1_555
C10_18 C9_9 1_555 1_555
H5_18 C10_18 1_555 1_555
C11_9 C12_9 1_555 1_555
C12_9 C13_9 1_555 1_555
C13_9 H6_9 1_555 1_555
C14_9 C13_9 1_555 1_555
C15_9 C14_9 1_555 1_555
H7_9 C15_9 1_555 1_555
C16_9 C15_9 1_555 1_555
C17_9 C12_9 1_555 1_555
H8_9 C17_9 1_555 1_555
C18_9 C16_9 1_555 1_555
C19_9 C18_9 1_555 1_555
H9_9 C19_9 1_555 1_555
C20_18 C19_9 1_555 1_555
H10_18 C20_18 1_555 1_555
C21_9 C14_9 1_555 1_555
C22_9 H11_9 1_555 1_555
C23_9 H12_9 1_555 1_555
H13_9 C23_9 1_555 1_555
H14_9 C23_9 1_555 1_555
C24_9 H15_9 1_555 1_555
H16_9 C24_9 1_555 1_555
H17_9 C24_9 1_555 1_555
C25_18 H18_18 1_555 1_555
C26_18 H19_18 1_555 1_555
Eu4_6 O9_18 1_555 1_555
Eu8_8 O1_9 1_555 1_555
N1_18 C8_9 1_555 1_555
N2_18 C18_9 1_555 1_555
N3_9 C22_9 1_555 1_555
O1_9 C1_9 1_555 1_555
O2_9 C1_9 1_555 1_555
O3_9 C11_9 1_555 1_555
O4_9 C11_9 1_555 1_555
O5_9 C21_9 1_555 1_555
O6_9 C21_9 1_555 1_555
O31_2 C27_9 1_555 1_555
O33_2 C27_9 1_555 1_555
O9_18 C26_18 1_555 1_555
O10_18 C26_18 1_555 1_555
O11_9 C22_9 1_555 1_555
O12_9 C25_18 1_555 1_555
O13_18 Eu4_6 1_555 1_555
C27_9 C6_9 1_555 1_555
H29_9 O13_18 1_555 1_555
C48_9 H30_9 1_555 1_555
C49_9 H31_9 1_555 1_555
H32_9 C49_9 1_555 1_555
H33_9 C49_9 1_555 1_555
C50_9 H34_9 1_555 1_555
H35_9 C50_9 1_555 1_555
H36_9 C50_9 1_555 1_555
Eu3_9 O5_9 1_555 1_555
N4_9 C48_9 1_555 1_555
O23_9 C48_9 1_555 1_555
Eu6_5 O6_9 1_555 1_555
O24_9 Eu3_9 1_555 1_555
O25_9 Eu3_9 1_555 1_555
O26_9 Eu3_9 1_555 1_555
O27_9 Eu3_9 1_555 1_555
O28_9 Eu8_8 1_555 1_555
O30_9 Eu4_6 1_555 1_555
O32_9 Eu3_9 1_555 1_555
O35_9 Eu3_9 1_555 1_555
C6_9 C7_9 1_555 1_555
C16_9 C17_9 1_555 1_555
C23_9 N3_9 1_555 1_555
C24_9 N3_9 1_555 1_555
Eu4_6 O10_18 1_555 1_555
Eu4_6 O12_9 1_555 1_555
Eu8_8 O2_9 1_555 1_555
Eu8_8 O3_9 1_555 1_555
Eu8_8 O4_9 1_555 1_555
Eu8_8 O11_9 1_555 1_555
Eu8_8 O12_9 1_555 1_555
C49_9 N4_9 1_555 1_555
C50_9 N4_9 1_555 1_555
Eu3_9 O23_9 1_555 1_555
Eu6_5 O35_9 1_555 1_555
C1_10 C2_10 1_555 1_555
C2_10 C3_10 1_555 1_555
C3_10 H1_10 1_555 1_555
C4_10 C3_10 1_555 1_555
C5_10 C4_10 1_555 1_555
H2_10 C5_10 1_555 1_555
C6_10 C5_10 1_555 1_555
C7_10 C2_10 1_555 1_555
H3_10 C7_10 1_555 1_555
C8_10 C4_10 1_555 1_555
C9_10 C8_10 1_555 1_555
H4_10 C9_10 1_555 1_555
C10_19 C9_10 1_555 1_555
H5_19 C10_19 1_555 1_555
C11_10 C12_10 1_555 1_555
C12_10 C13_10 1_555 1_555
C13_10 H6_10 1_555 1_555
C14_10 C13_10 1_555 1_555
C15_10 C14_10 1_555 1_555
H7_10 C15_10 1_555 1_555
C16_10 C15_10 1_555 1_555
C17_10 C12_10 1_555 1_555
H8_10 C17_10 1_555 1_555
C18_10 C16_10 1_555 1_555
C19_10 C18_10 1_555 1_555
H9_10 C19_10 1_555 1_555
C20_19 C19_10 1_555 1_555
H10_19 C20_19 1_555 1_555
C21_10 C14_10 1_555 1_555
C22_10 H11_10 1_555 1_555
C23_10 H12_10 1_555 1_555
H13_10 C23_10 1_555 1_555
H14_10 C23_10 1_555 1_555
C24_10 H15_10 1_555 1_555
H16_10 C24_10 1_555 1_555
H17_10 C24_10 1_555 1_555
C25_19 H18_19 1_555 1_555
C26_19 H19_19 1_555 1_555
Eu5_5 O9_19 1_555 1_555
Eu8_5 O1_10 1_555 1_555
N1_19 C8_10 1_555 1_555
N2_19 C18_10 1_555 1_555
N3_10 C22_10 1_555 1_555
O1_10 C1_10 1_555 1_555
O2_10 C1_10 1_555 1_555
O3_10 C11_10 1_555 1_555
O4_10 C11_10 1_555 1_555
O5_10 C21_10 1_555 1_555
O6_10 C21_10 1_555 1_555
O31_4 C27_10 1_555 1_555
O33_4 C27_10 1_555 1_555
O9_19 C26_19 1_555 1_555
O10_19 C26_19 1_555 1_555
O11_10 C22_10 1_555 1_555
O12_10 C25_19 1_555 1_555
O13_19 Eu5_5 1_555 1_555
C27_10 C6_10 1_555 1_555
H29_10 O13_19 1_555 1_555
C48_10 H30_10 1_555 1_555
C49_10 H31_10 1_555 1_555
H32_10 C49_10 1_555 1_555
H33_10 C49_10 1_555 1_555
C50_10 H34_10 1_555 1_555
H35_10 C50_10 1_555 1_555
H36_10 C50_10 1_555 1_555
Eu3_10 O5_10 1_555 1_555
N4_10 C48_10 1_555 1_555
O23_10 C48_10 1_555 1_555
Eu7_5 O6_10 1_555 1_555
O24_10 Eu3_10 1_555 1_555
O25_10 Eu3_10 1_555 1_555
O26_10 Eu3_10 1_555 1_555
O27_10 Eu3_10 1_555 1_555
O28_10 Eu8_5 1_555 1_555
O30_10 Eu5_5 1_555 1_555
O32_10 Eu3_10 1_555 1_555
O35_10 Eu3_10 1_555 1_555
C6_10 C7_10 1_555 1_555
C16_10 C17_10 1_555 1_555
C23_10 N3_10 1_555 1_555
C24_10 N3_10 1_555 1_555
Eu5_5 O10_19 1_555 1_555
Eu5_5 O12_10 1_555 1_555
Eu8_5 O2_10 1_555 1_555
Eu8_5 O3_10 1_555 1_555
Eu8_5 O4_10 1_555 1_555
Eu8_5 O11_10 1_555 1_555
Eu8_5 O12_10 1_555 1_555
C49_10 N4_10 1_555 1_555
C50_10 N4_10 1_555 1_555
Eu3_10 O23_10 1_555 1_555
Eu7_5 O35_10 1_555 1_555
H5_20 C10_20 1_555 1_555
H10_20 C20_20 1_555 1_555
C25_20 H18_20 1_555 1_555
C26_20 H19_20 1_555 1_555
Eu5_6 O9_20 1_555 1_555
O9_20 C26_20 1_555 1_555
O10_20 C26_20 1_555 1_555
O13_20 Eu5_6 1_555 1_555
H20_10 O13_20 1_555 1_555
C28_10 C29_10 1_555 1_555
C29_10 C30_10 1_555 1_555
C30_10 H21_10 1_555 1_555
C31_10 C30_10 1_555 1_555
C32_10 C31_10 1_555 1_555
H22_10 C32_10 1_555 1_555
C33_10 C32_10 1_555 1_555
C34_10 C29_10 1_555 1_555
H23_10 C34_10 1_555 1_555
C35_10 N1_20 1_555 1_555
C36_10 C10_20 1_555 1_555
H24_10 C36_10 1_555 1_555
O14_10 C28_10 1_555 1_555
O15_10 C28_10 1_555 1_555
O16_10 C37_10 1_555 1_555
O34_3 C37_10 1_555 1_555
C37_10 C33_10 1_555 1_555
C38_10 C39_10 1_555 1_555
C39_10 C40_10 1_555 1_555
C40_10 H25_10 1_555 1_555
C41_10 C40_10 1_555 1_555
C42_10 C41_10 1_555 1_555
H26_10 C42_10 1_555 1_555
C43_10 C42_10 1_555 1_555
C44_10 C39_10 1_555 1_555
H27_10 C44_10 1_555 1_555
C45_10 N2_20 1_555 1_555
C46_10 C20_20 1_555 1_555
H28_10 C46_10 1_555 1_555
C47_10 C41_10 1_555 1_555
O18_10 C38_10 1_555 1_555
O19_10 C38_10 1_555 1_555
O20_10 C47_10 1_555 1_555
O21_10 C47_10 1_555 1_555
O22_10 C25_20 1_555 1_555
Eu6_5 O21_10 1_555 1_555
Eu9_10 O20_10 1_555 1_555
Eu11_8 O14_10 1_555 1_555
Eu10_3 O16_10 1_555 1_555
O29_10 Eu5_6 1_555 1_555
Eu5_6 O10_20 1_555 1_555
Eu5_6 O22_10 1_555 1_555
C31_10 C35_10 1_555 1_555
C33_10 C34_10 1_555 1_555
C35_10 C36_10 1_555 1_555
O15_10 Eu11_8 1_555 1_555
C43_10 C44_10 1_555 1_555
C43_10 C45_10 1_555 1_555
C45_10 C46_10 1_555 1_555
O18_10 Eu11_8 1_555 1_555
O19_10 Eu11_8 1_555 1_555
O22_10 Eu11_8 1_555 1_555
H5_21 C10_21 1_555 1_555
H10_21 C20_21 1_555 1_555
C25_21 H18_21 1_555 1_555
C26_21 H19_21 1_555 1_555
Eu4_7 O9_21 1_555 1_555
O9_21 C26_21 1_555 1_555
O10_21 C26_21 1_555 1_555
O13_21 Eu4_7 1_555 1_555
H20_11 O13_21 1_555 1_555
C28_11 C29_11 1_555 1_555
C29_11 C30_11 1_555 1_555
C30_11 H21_11 1_555 1_555
C31_11 C30_11 1_555 1_555
C32_11 C31_11 1_555 1_555
H22_11 C32_11 1_555 1_555
C33_11 C32_11 1_555 1_555
C34_11 C29_11 1_555 1_555
H23_11 C34_11 1_555 1_555
C35_11 N1_21 1_555 1_555
C36_11 C10_21 1_555 1_555
H24_11 C36_11 1_555 1_555
O14_11 C28_11 1_555 1_555
O15_11 C28_11 1_555 1_555
O16_11 C37_11 1_555 1_555
O34_4 C37_11 1_555 1_555
C37_11 C33_11 1_555 1_555
C38_11 C39_11 1_555 1_555
C39_11 C40_11 1_555 1_555
C40_11 H25_11 1_555 1_555
C41_11 C40_11 1_555 1_555
C42_11 C41_11 1_555 1_555
H26_11 C42_11 1_555 1_555
C43_11 C42_11 1_555 1_555
C44_11 C39_11 1_555 1_555
H27_11 C44_11 1_555 1_555
C45_11 N2_21 1_555 1_555
C46_11 C20_21 1_555 1_555
H28_11 C46_11 1_555 1_555
C47_11 C41_11 1_555 1_555
O18_11 C38_11 1_555 1_555
O19_11 C38_11 1_555 1_555
O20_11 C47_11 1_555 1_555
O21_11 C47_11 1_555 1_555
O22_11 C25_21 1_555 1_555
Eu7_6 O21_11 1_555 1_555
Eu9_11 O20_11 1_555 1_555
Eu11_6 O14_11 1_555 1_555
Eu10_4 O16_11 1_555 1_555
O29_11 Eu4_7 1_555 1_555
Eu4_7 O10_21 1_555 1_555
Eu4_7 O22_11 1_555 1_555
C31_11 C35_11 1_555 1_555
C33_11 C34_11 1_555 1_555
C35_11 C36_11 1_555 1_555
O15_11 Eu11_6 1_555 1_555
C43_11 C44_11 1_555 1_555
C43_11 C45_11 1_555 1_555
C45_11 C46_11 1_555 1_555
O18_11 Eu11_6 1_555 1_555
O19_11 Eu11_6 1_555 1_555
O22_11 Eu11_6 1_555 1_555
C1_11 C2_11 1_555 1_555
C2_11 C3_11 1_555 1_555
C3_11 H1_11 1_555 1_555
C4_11 C3_11 1_555 1_555
C5_11 C4_11 1_555 1_555
H2_11 C5_11 1_555 1_555
C6_11 C5_11 1_555 1_555
C7_11 C2_11 1_555 1_555
H3_11 C7_11 1_555 1_555
C8_11 C4_11 1_555 1_555
C9_11 C8_11 1_555 1_555
H4_11 C9_11 1_555 1_555
C10_22 C9_11 1_555 1_555
H5_22 C10_22 1_555 1_555
C11_11 C12_11 1_555 1_555
C12_11 C13_11 1_555 1_555
C13_11 H6_11 1_555 1_555
C14_11 C13_11 1_555 1_555
C15_11 C14_11 1_555 1_555
H7_11 C15_11 1_555 1_555
C16_11 C15_11 1_555 1_555
C17_11 C12_11 1_555 1_555
H8_11 C17_11 1_555 1_555
C18_11 C16_11 1_555 1_555
C19_11 C18_11 1_555 1_555
H9_11 C19_11 1_555 1_555
C20_22 C19_11 1_555 1_555
H10_22 C20_22 1_555 1_555
C21_11 C14_11 1_555 1_555
C22_11 H11_11 1_555 1_555
C23_11 H12_11 1_555 1_555
H13_11 C23_11 1_555 1_555
H14_11 C23_11 1_555 1_555
C24_11 H15_11 1_555 1_555
H16_11 C24_11 1_555 1_555
H17_11 C24_11 1_555 1_555
C25_22 H18_22 1_555 1_555
C26_22 H19_22 1_555 1_555
Eu4_8 O9_22 1_555 1_555
Eu8_7 O1_11 1_555 1_555
N1_22 C8_11 1_555 1_555
N2_22 C18_11 1_555 1_555
N3_11 C22_11 1_555 1_555
O1_11 C1_11 1_555 1_555
O2_11 C1_11 1_555 1_555
O3_11 C11_11 1_555 1_555
O4_11 C11_11 1_555 1_555
O5_11 C21_11 1_555 1_555
O6_11 C21_11 1_555 1_555
O31_3 C27_11 1_555 1_555
O33_3 C27_11 1_555 1_555
O9_22 C26_22 1_555 1_555
O10_22 C26_22 1_555 1_555
O11_11 C22_11 1_555 1_555
O12_11 C25_22 1_555 1_555
O13_22 Eu4_8 1_555 1_555
C27_11 C6_11 1_555 1_555
H29_11 O13_22 1_555 1_555
C48_11 H30_11 1_555 1_555
C49_11 H31_11 1_555 1_555
H32_11 C49_11 1_555 1_555
H33_11 C49_11 1_555 1_555
C50_11 H34_11 1_555 1_555
H35_11 C50_11 1_555 1_555
H36_11 C50_11 1_555 1_555
Eu3_11 O5_11 1_555 1_555
N4_11 C48_11 1_555 1_555
O23_11 C48_11 1_555 1_555
Eu6_6 O6_11 1_555 1_555
O24_11 Eu3_11 1_555 1_555
O25_11 Eu3_11 1_555 1_555
O26_11 Eu3_11 1_555 1_555
O27_11 Eu3_11 1_555 1_555
O28_11 Eu8_7 1_555 1_555
O30_11 Eu4_8 1_555 1_555
O32_11 Eu3_11 1_555 1_555
O35_11 Eu3_11 1_555 1_555
C6_11 C7_11 1_555 1_555
C16_11 C17_11 1_555 1_555
C23_11 N3_11 1_555 1_555
C24_11 N3_11 1_555 1_555
Eu4_8 O10_22 1_555 1_555
Eu4_8 O12_11 1_555 1_555
Eu8_7 O2_11 1_555 1_555
Eu8_7 O3_11 1_555 1_555
Eu8_7 O4_11 1_555 1_555
Eu8_7 O11_11 1_555 1_555
Eu8_7 O12_11 1_555 1_555
C49_11 N4_11 1_555 1_555
C50_11 N4_11 1_555 1_555
Eu3_11 O23_11 1_555 1_555
Eu6_6 O35_11 1_555 1_555
C1_12 C2_12 1_555 1_555
C2_12 C3_12 1_555 1_555
C3_12 H1_12 1_555 1_555
C4_12 C3_12 1_555 1_555
C5_12 C4_12 1_555 1_555
H2_12 C5_12 1_555 1_555
C6_12 C5_12 1_555 1_555
C7_12 C2_12 1_555 1_555
H3_12 C7_12 1_555 1_555
C8_12 C4_12 1_555 1_555
C9_12 C8_12 1_555 1_555
H4_12 C9_12 1_555 1_555
C10_23 C9_12 1_555 1_555
H5_23 C10_23 1_555 1_555
C11_12 C12_12 1_555 1_555
C12_12 C13_12 1_555 1_555
C13_12 H6_12 1_555 1_555
C14_12 C13_12 1_555 1_555
C15_12 C14_12 1_555 1_555
H7_12 C15_12 1_555 1_555
C16_12 C15_12 1_555 1_555
C17_12 C12_12 1_555 1_555
H8_12 C17_12 1_555 1_555
C18_12 C16_12 1_555 1_555
C19_12 C18_12 1_555 1_555
H9_12 C19_12 1_555 1_555
C20_23 C19_12 1_555 1_555
H10_23 C20_23 1_555 1_555
C21_12 C14_12 1_555 1_555
C22_12 H11_12 1_555 1_555
C23_12 H12_12 1_555 1_555
H13_12 C23_12 1_555 1_555
H14_12 C23_12 1_555 1_555
C24_12 H15_12 1_555 1_555
H16_12 C24_12 1_555 1_555
H17_12 C24_12 1_555 1_555
C25_23 H18_23 1_555 1_555
C26_23 H19_23 1_555 1_555
Eu5_7 O9_23 1_555 1_555
Eu8_6 O1_12 1_555 1_555
N1_23 C8_12 1_555 1_555
N2_23 C18_12 1_555 1_555
N3_12 C22_12 1_555 1_555
O1_12 C1_12 1_555 1_555
O2_12 C1_12 1_555 1_555
O3_12 C11_12 1_555 1_555
O4_12 C11_12 1_555 1_555
O5_12 C21_12 1_555 1_555
O6_12 C21_12 1_555 1_555
O31 C27_12 1_555 1_555
O33 C27_12 1_555 1_555
O9_23 C26_23 1_555 1_555
O10_23 C26_23 1_555 1_555
O11_12 C22_12 1_555 1_555
O12_12 C25_23 1_555 1_555
O13_23 Eu5_7 1_555 1_555
C27_12 C6_12 1_555 1_555
H29_12 O13_23 1_555 1_555
C48_12 H30_12 1_555 1_555
C49_12 H31_12 1_555 1_555
H32_12 C49_12 1_555 1_555
H33_12 C49_12 1_555 1_555
C50_12 H34_12 1_555 1_555
H35_12 C50_12 1_555 1_555
H36_12 C50_12 1_555 1_555
Eu3_12 O5_12 1_555 1_555
N4_12 C48_12 1_555 1_555
O23_12 C48_12 1_555 1_555
Eu7_6 O6_12 1_555 1_555
O24_12 Eu3_12 1_555 1_555
O25_12 Eu3_12 1_555 1_555
O26_12 Eu3_12 1_555 1_555
O27_12 Eu3_12 1_555 1_555
O28_12 Eu8_6 1_555 1_555
O30_12 Eu5_7 1_555 1_555
O32_12 Eu3_12 1_555 1_555
O35_12 Eu3_12 1_555 1_555
C6_12 C7_12 1_555 1_555
C16_12 C17_12 1_555 1_555
C23_12 N3_12 1_555 1_555
C24_12 N3_12 1_555 1_555
Eu5_7 O10_23 1_555 1_555
Eu5_7 O12_12 1_555 1_555
Eu8_6 O2_12 1_555 1_555
Eu8_6 O3_12 1_555 1_555
Eu8_6 O4_12 1_555 1_555
Eu8_6 O11_12 1_555 1_555
Eu8_6 O12_12 1_555 1_555
C49_12 N4_12 1_555 1_555
C50_12 N4_12 1_555 1_555
Eu3_12 O23_12 1_555 1_555
Eu7_6 O35_12 1_555 1_555
H5_24 C10_24 1_555 1_555
H10_24 C20_24 1_555 1_555
C25_24 H18_24 1_555 1_555
C26_24 H19_24 1_555 1_555
Eu5_8 O9_24 1_555 1_555
O9_24 C26_24 1_555 1_555
O10_24 C26_24 1_555 1_555
O13_24 Eu5_8 1_555 1_555
H20_12 O13_24 1_555 1_555
C28_12 C29_12 1_555 1_555
C29_12 C30_12 1_555 1_555
C30_12 H21_12 1_555 1_555
C31_12 C30_12 1_555 1_555
C32_12 C31_12 1_555 1_555
H22_12 C32_12 1_555 1_555
C33_12 C32_12 1_555 1_555
C34_12 C29_12 1_555 1_555
H23_12 C34_12 1_555 1_555
C35_12 N1_24 1_555 1_555
C36_12 C10_24 1_555 1_555
H24_12 C36_12 1_555 1_555
O14_12 C28_12 1_555 1_555
O15_12 C28_12 1_555 1_555
O16_12 C37_12 1_555 1_555
O34_2 C37_12 1_555 1_555
C37_12 C33_12 1_555 1_555
C38_12 C39_12 1_555 1_555
C39_12 C40_12 1_555 1_555
C40_12 H25_12 1_555 1_555
C41_12 C40_12 1_555 1_555
C42_12 C41_12 1_555 1_555
H26_12 C42_12 1_555 1_555
C43_12 C42_12 1_555 1_555
C44_12 C39_12 1_555 1_555
H27_12 C44_12 1_555 1_555
C45_12 N2_24 1_555 1_555
C46_12 C20_24 1_555 1_555
H28_12 C46_12 1_555 1_555
C47_12 C41_12 1_555 1_555
O18_12 C38_12 1_555 1_555
O19_12 C38_12 1_555 1_555
O20_12 C47_12 1_555 1_555
O21_12 C47_12 1_555 1_555
O22_12 C25_24 1_555 1_555
Eu6_6 O21_12 1_555 1_555
Eu9_12 O20_12 1_555 1_555
Eu11_7 O14_12 1_555 1_555
Eu10_2 O16_12 1_555 1_555
O29_12 Eu5_8 1_555 1_555
Eu5_8 O10_24 1_555 1_555
Eu5_8 O22_12 1_555 1_555
C31_12 C35_12 1_555 1_555
C33_12 C34_12 1_555 1_555
C35_12 C36_12 1_555 1_555
O15_12 Eu11_7 1_555 1_555
C43_12 C44_12 1_555 1_555
C43_12 C45_12 1_555 1_555
C45_12 C46_12 1_555 1_555
O18_12 Eu11_7 1_555 1_555
O19_12 Eu11_7 1_555 1_555
O22_12 Eu11_7 1_555 1_555
C1_13 C2_13 1_555 1_555
C2_13 C3_13 1_555 1_555
C3_13 H1_13 1_555 1_555
C4_13 C3_13 1_555 1_555
C5_13 C4_13 1_555 1_555
H2_13 C5_13 1_555 1_555
C6_13 C5_13 1_555 1_555
C7_13 C2_13 1_555 1_555
H3_13 C7_13 1_555 1_555
C8_13 C4_13 1_555 1_555
C9_13 C8_13 1_555 1_555
H4_13 C9_13 1_555 1_555
C10_25 C9_13 1_555 1_555
H5_25 C10_25 1_555 1_555
C11_13 C12_13 1_555 1_555
C12_13 C13_13 1_555 1_555
C13_13 H6_13 1_555 1_555
C14_13 C13_13 1_555 1_555
C15_13 C14_13 1_555 1_555
H7_13 C15_13 1_555 1_555
C16_13 C15_13 1_555 1_555
C17_13 C12_13 1_555 1_555
H8_13 C17_13 1_555 1_555
C18_13 C16_13 1_555 1_555
C19_13 C18_13 1_555 1_555
H9_13 C19_13 1_555 1_555
C20_25 C19_13 1_555 1_555
H10_25 C20_25 1_555 1_555
C21_13 C14_13 1_555 1_555
C22_13 H11_13 1_555 1_555
C23_13 H12_13 1_555 1_555
H13_13 C23_13 1_555 1_555
H14_13 C23_13 1_555 1_555
C24_13 H15_13 1_555 1_555
H16_13 C24_13 1_555 1_555
H17_13 C24_13 1_555 1_555
C25_25 H18_25 1_555 1_555
C26_25 H19_25 1_555 1_555
Eu6_4 O9_25 1_555 1_555
Eu9_8 O1_13 1_555 1_555
N1_25 C8_13 1_555 1_555
N2_25 C18_13 1_555 1_555
N3_13 C22_13 1_555 1_555
O1_13 C1_13 1_555 1_555
O2_13 C1_13 1_555 1_555
O3_13 C11_13 1_555 1_555
O4_13 C11_13 1_555 1_555
O5_13 C21_13 1_555 1_555
O29_10 C21_13 1_555 1_555
O7_9 C27_13 1_555 1_555
O8_9 C27_13 1_555 1_555
O9_25 C26_25 1_555 1_555
O10_25 C26_25 1_555 1_555
O11_13 C22_13 1_555 1_555
O12_13 C25_25 1_555 1_555
O13_25 Eu6_4 1_555 1_555
H20_13 O13_25 1_555 1_555
C27_13 C6_13 1_555 1_555
C28_13 C29_13 1_555 1_555
C29_13 C30_13 1_555 1_555
C30_13 H21_13 1_555 1_555
C31_13 C30_13 1_555 1_555
C32_13 C31_13 1_555 1_555
H22_13 C32_13 1_555 1_555
C33_13 C32_13 1_555 1_555
C34_13 C29_13 1_555 1_555
H23_13 C34_13 1_555 1_555
C35_13 N1_25 1_555 1_555
C36_13 C10_25 1_555 1_555
H24_13 C36_13 1_555 1_555
O24_7 C28_13 1_555 1_555
O25_7 C28_13 1_555 1_555
O32_11 C37_13 1_555 1_555
O17_9 C37_13 1_555 1_555
C37_13 C33_13 1_555 1_555
C38_13 C39_13 1_555 1_555
C39_13 C40_13 1_555 1_555
C40_13 H25_13 1_555 1_555
C41_13 C40_13 1_555 1_555
C42_13 C41_13 1_555 1_555
H26_13 C42_13 1_555 1_555
C43_13 C42_13 1_555 1_555
C44_13 C39_13 1_555 1_555
H27_13 C44_13 1_555 1_555
C45_13 N2_25 1_555 1_555
C46_13 C20_25 1_555 1_555
H28_13 C46_13 1_555 1_555
C47_13 C41_13 1_555 1_555
O26_7 C38_13 1_555 1_555
O27_7 C38_13 1_555 1_555
O28_11 C47_13 1_555 1_555
O30_11 C47_13 1_555 1_555
O35_7 C25_25 1_555 1_555
H29_13 O13_25 1_555 1_555
C48_13 H30_13 1_555 1_555
C49_13 H31_13 1_555 1_555
H32_13 C49_13 1_555 1_555
H33_13 C49_13 1_555 1_555
C50_13 H34_13 1_555 1_555
H35_13 C50_13 1_555 1_555
H36_13 C50_13 1_555 1_555
Eu11_8 O5_13 1_555 1_555
N4_13 C48_13 1_555 1_555
O23_13 C48_13 1_555 1_555
Eu6_6 O17_9 1_555 1_555
Eu6_5 O8_9 1_555 1_555
Eu9_10 O7_9 1_555 1_555
O31_5 Eu9_8 1_555 1_555
O33_5 Eu6_4 1_555 1_555
O34_5 Eu6_4 1_555 1_555
C6_13 C7_13 1_555 1_555
C16_13 C17_13 1_555 1_555
C23_13 N3_13 1_555 1_555
C24_13 N3_13 1_555 1_555
Eu6_4 O10_25 1_555 1_555
Eu6_4 O12_13 1_555 1_555
Eu9_8 O2_13 1_555 1_555
Eu9_8 O3_13 1_555 1_555
Eu9_8 O4_13 1_555 1_555
Eu9_8 O11_13 1_555 1_555
Eu9_8 O12_13 1_555 1_555
C31_13 C35_13 1_555 1_555
C33_13 C34_13 1_555 1_555
C35_13 C36_13 1_555 1_555
C43_13 C44_13 1_555 1_555
C43_13 C45_13 1_555 1_555
C45_13 C46_13 1_555 1_555
C49_13 N4_13 1_555 1_555
C50_13 N4_13 1_555 1_555
Eu11_8 O23_13 1_555 1_555
C1_14 C2_14 1_555 1_555
C2_14 C3_14 1_555 1_555
C3_14 H1_14 1_555 1_555
C4_14 C3_14 1_555 1_555
C5_14 C4_14 1_555 1_555
H2_14 C5_14 1_555 1_555
C6_14 C5_14 1_555 1_555
C7_14 C2_14 1_555 1_555
H3_14 C7_14 1_555 1_555
C8_14 C4_14 1_555 1_555
C9_14 C8_14 1_555 1_555
H4_14 C9_14 1_555 1_555
C10_26 C9_14 1_555 1_555
H5_26 C10_26 1_555 1_555
C11_14 C12_14 1_555 1_555
C12_14 C13_14 1_555 1_555
C13_14 H6_14 1_555 1_555
C14_14 C13_14 1_555 1_555
C15_14 C14_14 1_555 1_555
H7_14 C15_14 1_555 1_555
C16_14 C15_14 1_555 1_555
C17_14 C12_14 1_555 1_555
H8_14 C17_14 1_555 1_555
C18_14 C16_14 1_555 1_555
C19_14 C18_14 1_555 1_555
H9_14 C19_14 1_555 1_555
C20_26 C19_14 1_555 1_555
H10_26 C20_26 1_555 1_555
C21_14 C14_14 1_555 1_555
C22_14 H11_14 1_555 1_555
C23_14 H12_14 1_555 1_555
H13_14 C23_14 1_555 1_555
H14_14 C23_14 1_555 1_555
C24_14 H15_14 1_555 1_555
H16_14 C24_14 1_555 1_555
H17_14 C24_14 1_555 1_555
C25_26 H18_26 1_555 1_555
C26_26 H19_26 1_555 1_555
Eu6_3 O9_26 1_555 1_555
Eu9_6 O1_14 1_555 1_555
N1_26 C8_14 1_555 1_555
N2_26 C18_14 1_555 1_555
N3_14 C22_14 1_555 1_555
O1_14 C1_14 1_555 1_555
O2_14 C1_14 1_555 1_555
O3_14 C11_14 1_555 1_555
O4_14 C11_14 1_555 1_555
O5_14 C21_14 1_555 1_555
O29_11 C21_14 1_555 1_555
O7_10 C27_14 1_555 1_555
O8_10 C27_14 1_555 1_555
O9_26 C26_26 1_555 1_555
O10_26 C26_26 1_555 1_555
O11_14 C22_14 1_555 1_555
O12_14 C25_26 1_555 1_555
O13_26 Eu6_3 1_555 1_555
H20_14 O13_26 1_555 1_555
C27_14 C6_14 1_555 1_555
C28_14 C29_14 1_555 1_555
C29_14 C30_14 1_555 1_555
C30_14 H21_14 1_555 1_555
C31_14 C30_14 1_555 1_555
C32_14 C31_14 1_555 1_555
H22_14 C32_14 1_555 1_555
C33_14 C32_14 1_555 1_555
C34_14 C29_14 1_555 1_555
H23_14 C34_14 1_555 1_555
C35_14 N1_26 1_555 1_555
C36_14 C10_26 1_555 1_555
H24_14 C36_14 1_555 1_555
O24_5 C28_14 1_555 1_555
O25_5 C28_14 1_555 1_555
O32_10 C37_14 1_555 1_555
O17_10 C37_14 1_555 1_555
C37_14 C33_14 1_555 1_555
C38_14 C39_14 1_555 1_555
C39_14 C40_14 1_555 1_555
C40_14 H25_14 1_555 1_555
C41_14 C40_14 1_555 1_555
C42_14 C41_14 1_555 1_555
H26_14 C42_14 1_555 1_555
C43_14 C42_14 1_555 1_555
C44_14 C39_14 1_555 1_555
H27_14 C44_14 1_555 1_555
C45_14 N2_26 1_555 1_555
C46_14 C20_26 1_555 1_555
H28_14 C46_14 1_555 1_555
C47_14 C41_14 1_555 1_555
O26_5 C38_14 1_555 1_555
O27_5 C38_14 1_555 1_555
O28_10 C47_14 1_555 1_555
O30_10 C47_14 1_555 1_555
O35_5 C25_26 1_555 1_555
H29_14 O13_26 1_555 1_555
C48_14 H30_14 1_555 1_555
C49_14 H31_14 1_555 1_555
H32_14 C49_14 1_555 1_555
H33_14 C49_14 1_555 1_555
C50_14 H34_14 1_555 1_555
H35_14 C50_14 1_555 1_555
H36_14 C50_14 1_555 1_555
Eu11_6 O5_14 1_555 1_555
N4_14 C48_14 1_555 1_555
O23_14 C48_14 1_555 1_555
Eu7_5 O17_10 1_555 1_555
Eu7_6 O8_10 1_555 1_555
Eu9_11 O7_10 1_555 1_555
O31_6 Eu9_6 1_555 1_555
O33_6 Eu6_3 1_555 1_555
O34_6 Eu6_3 1_555 1_555
C6_14 C7_14 1_555 1_555
C16_14 C17_14 1_555 1_555
C23_14 N3_14 1_555 1_555
C24_14 N3_14 1_555 1_555
Eu6_3 O10_26 1_555 1_555
Eu6_3 O12_14 1_555 1_555
Eu9_6 O2_14 1_555 1_555
Eu9_6 O3_14 1_555 1_555
Eu9_6 O4_14 1_555 1_555
Eu9_6 O11_14 1_555 1_555
Eu9_6 O12_14 1_555 1_555
C31_14 C35_14 1_555 1_555
C33_14 C34_14 1_555 1_555
C35_14 C36_14 1_555 1_555
C43_14 C44_14 1_555 1_555
C43_14 C45_14 1_555 1_555
C45_14 C46_14 1_555 1_555
C49_14 N4_14 1_555 1_555
C50_14 N4_14 1_555 1_555
Eu11_6 O23_14 1_555 1_555
C1_15 C2_15 1_555 1_555
C2_15 C3_15 1_555 1_555
C3_15 H1_15 1_555 1_555
C4_15 C3_15 1_555 1_555
C5_15 C4_15 1_555 1_555
H2_15 C5_15 1_555 1_555
C6_15 C5_15 1_555 1_555
C7_15 C2_15 1_555 1_555
H3_15 C7_15 1_555 1_555
C8_15 C4_15 1_555 1_555
C9_15 C8_15 1_555 1_555
H4_15 C9_15 1_555 1_555
C10_27 C9_15 1_555 1_555
H5_27 C10_27 1_555 1_555
C11_15 C12_15 1_555 1_555
C12_15 C13_15 1_555 1_555
C13_15 H6_15 1_555 1_555
C14_15 C13_15 1_555 1_555
C15_15 C14_15 1_555 1_555
H7_15 C15_15 1_555 1_555
C16_15 C15_15 1_555 1_555
C17_15 C12_15 1_555 1_555
H8_15 C17_15 1_555 1_555
C18_15 C16_15 1_555 1_555
C19_15 C18_15 1_555 1_555
H9_15 C19_15 1_555 1_555
C20_27 C19_15 1_555 1_555
H10_27 C20_27 1_555 1_555
C21_15 C14_15 1_555 1_555
C22_15 H11_15 1_555 1_555
C23_15 H12_15 1_555 1_555
H13_15 C23_15 1_555 1_555
H14_15 C23_15 1_555 1_555
C24_15 H15_15 1_555 1_555
H16_15 C24_15 1_555 1_555
H17_15 C24_15 1_555 1_555
C25_27 H18_27 1_555 1_555
C26_27 H19_27 1_555 1_555
Eu7_3 O9_27 1_555 1_555
Eu9_5 O1_15 1_555 1_555
N1_27 C8_15 1_555 1_555
N2_27 C18_15 1_555 1_555
N3_15 C22_15 1_555 1_555
O1_15 C1_15 1_555 1_555
O2_15 C1_15 1_555 1_555
O3_15 C11_15 1_555 1_555
O4_15 C11_15 1_555 1_555
O5_15 C21_15 1_555 1_555
O29_9 C21_15 1_555 1_555
O7_11 C27_15 1_555 1_555
O8_11 C27_15 1_555 1_555
O9_27 C26_27 1_555 1_555
O10_27 C26_27 1_555 1_555
O11_15 C22_15 1_555 1_555
O12_15 C25_27 1_555 1_555
O13_27 Eu7_3 1_555 1_555
H20_15 O13_27 1_555 1_555
C27_15 C6_15 1_555 1_555
C28_15 C29_15 1_555 1_555
C29_15 C30_15 1_555 1_555
C30_15 H21_15 1_555 1_555
C31_15 C30_15 1_555 1_555
C32_15 C31_15 1_555 1_555
H22_15 C32_15 1_555 1_555
C33_15 C32_15 1_555 1_555
C34_15 C29_15 1_555 1_555
H23_15 C34_15 1_555 1_555
C35_15 N1_27 1_555 1_555
C36_15 C10_27 1_555 1_555
H24_15 C36_15 1_555 1_555
O24_6 C28_15 1_555 1_555
O25_6 C28_15 1_555 1_555
O32_12 C37_15 1_555 1_555
O17_11 C37_15 1_555 1_555
C37_15 C33_15 1_555 1_555
C38_15 C39_15 1_555 1_555
C39_15 C40_15 1_555 1_555
C40_15 H25_15 1_555 1_555
C41_15 C40_15 1_555 1_555
C42_15 C41_15 1_555 1_555
H26_15 C42_15 1_555 1_555
C43_15 C42_15 1_555 1_555
C44_15 C39_15 1_555 1_555
H27_15 C44_15 1_555 1_555
C45_15 N2_27 1_555 1_555
C46_15 C20_27 1_555 1_555
H28_15 C46_15 1_555 1_555
C47_15 C41_15 1_555 1_555
O26_6 C38_15 1_555 1_555
O27_6 C38_15 1_555 1_555
O28_12 C47_15 1_555 1_555
O30_12 C47_15 1_555 1_555
O35_6 C25_27 1_555 1_555
H29_15 O13_27 1_555 1_555
C48_15 H30_15 1_555 1_555
C49_15 H31_15 1_555 1_555
H32_15 C49_15 1_555 1_555
H33_15 C49_15 1_555 1_555
C50_15 H34_15 1_555 1_555
H35_15 C50_15 1_555 1_555
H36_15 C50_15 1_555 1_555
Eu11_5 O5_15 1_555 1_555
N4_15 C48_15 1_555 1_555
O23_15 C48_15 1_555 1_555
Eu7_6 O17_11 1_555 1_555
Eu7_5 O8_11 1_555 1_555
Eu9_9 O7_11 1_555 1_555
O31_7 Eu9_5 1_555 1_555
O33_7 Eu7_3 1_555 1_555
O34_7 Eu7_3 1_555 1_555
C6_15 C7_15 1_555 1_555
C16_15 C17_15 1_555 1_555
C23_15 N3_15 1_555 1_555
C24_15 N3_15 1_555 1_555
Eu7_3 O10_27 1_555 1_555
Eu7_3 O12_15 1_555 1_555
Eu9_5 O2_15 1_555 1_555
Eu9_5 O3_15 1_555 1_555
Eu9_5 O4_15 1_555 1_555
Eu9_5 O11_15 1_555 1_555
Eu9_5 O12_15 1_555 1_555
C31_15 C35_15 1_555 1_555
C33_15 C34_15 1_555 1_555
C35_15 C36_15 1_555 1_555
C43_15 C44_15 1_555 1_555
C43_15 C45_15 1_555 1_555
C45_15 C46_15 1_555 1_555
C49_15 N4_15 1_555 1_555
C50_15 N4_15 1_555 1_555
Eu11_5 O23_15 1_555 1_555
C1_16 C2_16 1_555 1_555
C2_16 C3_16 1_555 1_555
C3_16 H1_16 1_555 1_555
C4_16 C3_16 1_555 1_555
C5_16 C4_16 1_555 1_555
H2_16 C5_16 1_555 1_555
C6_16 C5_16 1_555 1_555
C7_16 C2_16 1_555 1_555
H3_16 C7_16 1_555 1_555
C8_16 C4_16 1_555 1_555
C9_16 C8_16 1_555 1_555
H4_16 C9_16 1_555 1_555
C10_28 C9_16 1_555 1_555
H5_28 C10_28 1_555 1_555
C11_16 C12_16 1_555 1_555
C12_16 C13_16 1_555 1_555
C13_16 H6_16 1_555 1_555
C14_16 C13_16 1_555 1_555
C15_16 C14_16 1_555 1_555
H7_16 C15_16 1_555 1_555
C16_16 C15_16 1_555 1_555
C17_16 C12_16 1_555 1_555
H8_16 C17_16 1_555 1_555
C18_16 C16_16 1_555 1_555
C19_16 C18_16 1_555 1_555
H9_16 C19_16 1_555 1_555
C20_28 C19_16 1_555 1_555
H10_28 C20_28 1_555 1_555
C21_16 C14_16 1_555 1_555
C22_16 H11_16 1_555 1_555
C23_16 H12_16 1_555 1_555
H13_16 C23_16 1_555 1_555
H14_16 C23_16 1_555 1_555
C24_16 H15_16 1_555 1_555
H16_16 C24_16 1_555 1_555
H17_16 C24_16 1_555 1_555
C25_28 H18_28 1_555 1_555
C26_28 H19_28 1_555 1_555
Eu7_4 O9_28 1_555 1_555
Eu9_7 O1_16 1_555 1_555
N1_28 C8_16 1_555 1_555
N2_28 C18_16 1_555 1_555
N3_16 C22_16 1_555 1_555
O1_16 C1_16 1_555 1_555
O2_16 C1_16 1_555 1_555
O3_16 C11_16 1_555 1_555
O4_16 C11_16 1_555 1_555
O5_16 C21_16 1_555 1_555
O29_12 C21_16 1_555 1_555
O7_12 C27_16 1_555 1_555
O8_12 C27_16 1_555 1_555
O9_28 C26_28 1_555 1_555
O10_28 C26_28 1_555 1_555
O11_16 C22_16 1_555 1_555
O12_16 C25_28 1_555 1_555
O13_28 Eu7_4 1_555 1_555
H20_16 O13_28 1_555 1_555
C27_16 C6_16 1_555 1_555
C28_16 C29_16 1_555 1_555
C29_16 C30_16 1_555 1_555
C30_16 H21_16 1_555 1_555
C31_16 C30_16 1_555 1_555
C32_16 C31_16 1_555 1_555
H22_16 C32_16 1_555 1_555
C33_16 C32_16 1_555 1_555
C34_16 C29_16 1_555 1_555
H23_16 C34_16 1_555 1_555
C35_16 N1_28 1_555 1_555
C36_16 C10_28 1_555 1_555
H24_16 C36_16 1_555 1_555
O24_8 C28_16 1_555 1_555
O25_8 C28_16 1_555 1_555
O32_9 C37_16 1_555 1_555
O17_12 C37_16 1_555 1_555
C37_16 C33_16 1_555 1_555
C38_16 C39_16 1_555 1_555
C39_16 C40_16 1_555 1_555
C40_16 H25_16 1_555 1_555
C41_16 C40_16 1_555 1_555
C42_16 C41_16 1_555 1_555
H26_16 C42_16 1_555 1_555
C43_16 C42_16 1_555 1_555
C44_16 C39_16 1_555 1_555
H27_16 C44_16 1_555 1_555
C45_16 N2_28 1_555 1_555
C46_16 C20_28 1_555 1_555
H28_16 C46_16 1_555 1_555
C47_16 C41_16 1_555 1_555
O26_8 C38_16 1_555 1_555
O27_8 C38_16 1_555 1_555
O28_9 C47_16 1_555 1_555
O30_9 C47_16 1_555 1_555
O35_8 C25_28 1_555 1_555
H29_16 O13_28 1_555 1_555
C48_16 H30_16 1_555 1_555
C49_16 H31_16 1_555 1_555
H32_16 C49_16 1_555 1_555
H33_16 C49_16 1_555 1_555
C50_16 H34_16 1_555 1_555
H35_16 C50_16 1_555 1_555
H36_16 C50_16 1_555 1_555
Eu11_7 O5_16 1_555 1_555
N4_16 C48_16 1_555 1_555
O23_16 C48_16 1_555 1_555
Eu6_5 O17_12 1_555 1_555
Eu6_6 O8_12 1_555 1_555
Eu9_12 O7_12 1_555 1_555
O31_8 Eu9_7 1_555 1_555
O33_8 Eu7_4 1_555 1_555
O34_8 Eu7_4 1_555 1_555
C6_16 C7_16 1_555 1_555
C16_16 C17_16 1_555 1_555
C23_16 N3_16 1_555 1_555
C24_16 N3_16 1_555 1_555
Eu7_4 O10_28 1_555 1_555
Eu7_4 O12_16 1_555 1_555
Eu9_7 O2_16 1_555 1_555
Eu9_7 O3_16 1_555 1_555
Eu9_7 O4_16 1_555 1_555
Eu9_7 O11_16 1_555 1_555
Eu9_7 O12_16 1_555 1_555
C31_16 C35_16 1_555 1_555
C33_16 C34_16 1_555 1_555
C35_16 C36_16 1_555 1_555
C43_16 C44_16 1_555 1_555
C43_16 C45_16 1_555 1_555
C45_16 C46_16 1_555 1_555
C49_16 N4_16 1_555 1_555
C50_16 N4_16 1_555 1_555
Eu11_7 O23_16 1_555 1_555
C1_17 C2_17 1_555 1_555
C2_17 C3_17 1_555 1_555
C3_17 H1_17 1_555 1_555
C4_17 C3_17 1_555 1_555
C5_17 C4_17 1_555 1_555
H2_17 C5_17 1_555 1_555
C6_17 C5_17 1_555 1_555
C7_17 C2_17 1_555 1_555
H3_17 C7_17 1_555 1_555
C8_17 C4_17 1_555 1_555
C9_17 C8_17 1_555 1_555
H4_17 C9_17 1_555 1_555
C10_29 C9_17 1_555 1_555
H5_29 C10_29 1_555 1_555
C11_17 C12_17 1_555 1_555
C12_17 C13_17 1_555 1_555
C13_17 H6_17 1_555 1_555
C14_17 C13_17 1_555 1_555
C15_17 C14_17 1_555 1_555
H7_17 C15_17 1_555 1_555
C16_17 C15_17 1_555 1_555
C17_17 C12_17 1_555 1_555
H8_17 C17_17 1_555 1_555
C18_17 C16_17 1_555 1_555
C19_17 C18_17 1_555 1_555
H9_17 C19_17 1_555 1_555
C20_29 C19_17 1_555 1_555
H10_29 C20_29 1_555 1_555
C21_17 C14_17 1_555 1_555
C22_17 H11_17 1_555 1_555
C23_17 H12_17 1_555 1_555
H13_17 C23_17 1_555 1_555
H14_17 C23_17 1_555 1_555
C24_17 H15_17 1_555 1_555
H16_17 C24_17 1_555 1_555
H17_17 C24_17 1_555 1_555
C25_29 H18_29 1_555 1_555
C26_29 H19_29 1_555 1_555
Eu6_6 O9_29 1_555 1_555
Eu9_12 O1_17 1_555 1_555
N1_29 C8_17 1_555 1_555
N2_29 C18_17 1_555 1_555
N3_17 C22_17 1_555 1_555
O1_17 C1_17 1_555 1_555
O2_17 C1_17 1_555 1_555
O3_17 C11_17 1_555 1_555
O4_17 C11_17 1_555 1_555
O5_17 C21_17 1_555 1_555
O29_2 C21_17 1_555 1_555
O7_13 C27_17 1_555 1_555
O8_13 C27_17 1_555 1_555
O9_29 C26_29 1_555 1_555
O10_29 C26_29 1_555 1_555
O11_17 C22_17 1_555 1_555
O12_17 C25_29 1_555 1_555
O13_29 Eu6_6 1_555 1_555
H20_17 O13_29 1_555 1_555
C27_17 C6_17 1_555 1_555
C28_17 C29_17 1_555 1_555
C29_17 C30_17 1_555 1_555
C30_17 H21_17 1_555 1_555
C31_17 C30_17 1_555 1_555
C32_17 C31_17 1_555 1_555
H22_17 C32_17 1_555 1_555
C33_17 C32_17 1_555 1_555
C34_17 C29_17 1_555 1_555
H23_17 C34_17 1_555 1_555
C35_17 N1_29 1_555 1_555
C36_17 C10_29 1_555 1_555
H24_17 C36_17 1_555 1_555
O24_11 C28_17 1_555 1_555
O25_11 C28_17 1_555 1_555
O32_3 C37_17 1_555 1_555
O17_13 C37_17 1_555 1_555
C37_17 C33_17 1_555 1_555
C38_17 C39_17 1_555 1_555
C39_17 C40_17 1_555 1_555
C40_17 H25_17 1_555 1_555
C41_17 C40_17 1_555 1_555
C42_17 C41_17 1_555 1_555
H26_17 C42_17 1_555 1_555
C43_17 C42_17 1_555 1_555
C44_17 C39_17 1_555 1_555
H27_17 C44_17 1_555 1_555
C45_17 N2_29 1_555 1_555
C46_17 C20_29 1_555 1_555
H28_17 C46_17 1_555 1_555
C47_17 C41_17 1_555 1_555
O26_11 C38_17 1_555 1_555
O27_11 C38_17 1_555 1_555
O28_3 C47_17 1_555 1_555
O30_3 C47_17 1_555 1_555
O35_11 C25_29 1_555 1_555
H29_17 O13_29 1_555 1_555
C48_17 H30_17 1_555 1_555
C49_17 H31_17 1_555 1_555
H32_17 C49_17 1_555 1_555
H33_17 C49_17 1_555 1_555
C50_17 H34_17 1_555 1_555
H35_17 C50_17 1_555 1_555
H36_17 C50_17 1_555 1_555
Eu10_2 O5_17 1_555 1_555
N4_17 C48_17 1_555 1_555
O23_17 C48_17 1_555 1_555
Eu6_2 O17_13 1_555 1_555
Eu6 O8_13 1_555 1_555
Eu9_2 O7_13 1_555 1_555
C6_17 C7_17 1_555 1_555
C16_17 C17_17 1_555 1_555
C23_17 N3_17 1_555 1_555
C24_17 N3_17 1_555 1_555
Eu6_6 O10_29 1_555 1_555
Eu6_6 O12_17 1_555 1_555
Eu9_12 O2_17 1_555 1_555
Eu9_12 O3_17 1_555 1_555
Eu9_12 O4_17 1_555 1_555
Eu9_12 O11_17 1_555 1_555
Eu9_12 O12_17 1_555 1_555
C31_17 C35_17 1_555 1_555
C33_17 C34_17 1_555 1_555
C35_17 C36_17 1_555 1_555
C43_17 C44_17 1_555 1_555
C43_17 C45_17 1_555 1_555
C45_17 C46_17 1_555 1_555
C49_17 N4_17 1_555 1_555
C50_17 N4_17 1_555 1_555
Eu10_2 O23_17 1_555 1_555
C1_18 C2_18 1_555 1_555
C2_18 C3_18 1_555 1_555
C3_18 H1_18 1_555 1_555
C4_18 C3_18 1_555 1_555
C5_18 C4_18 1_555 1_555
H2_18 C5_18 1_555 1_555
C6_18 C5_18 1_555 1_555
C7_18 C2_18 1_555 1_555
H3_18 C7_18 1_555 1_555
C8_18 C4_18 1_555 1_555
C9_18 C8_18 1_555 1_555
H4_18 C9_18 1_555 1_555
C10_30 C9_18 1_555 1_555
H5_30 C10_30 1_555 1_555
C11_18 C12_18 1_555 1_555
C12_18 C13_18 1_555 1_555
C13_18 H6_18 1_555 1_555
C14_18 C13_18 1_555 1_555
C15_18 C14_18 1_555 1_555
H7_18 C15_18 1_555 1_555
C16_18 C15_18 1_555 1_555
C17_18 C12_18 1_555 1_555
H8_18 C17_18 1_555 1_555
C18_18 C16_18 1_555 1_555
C19_18 C18_18 1_555 1_555
H9_18 C19_18 1_555 1_555
C20_30 C19_18 1_555 1_555
H10_30 C20_30 1_555 1_555
C21_18 C14_18 1_555 1_555
C22_18 H11_18 1_555 1_555
C23_18 H12_18 1_555 1_555
H13_18 C23_18 1_555 1_555
H14_18 C23_18 1_555 1_555
C24_18 H15_18 1_555 1_555
H16_18 C24_18 1_555 1_555
H17_18 C24_18 1_555 1_555
C25_30 H18_30 1_555 1_555
C26_30 H19_30 1_555 1_555
Eu6_5 O9_30 1_555 1_555
Eu9_10 O1_18 1_555 1_555
N1_30 C8_18 1_555 1_555
N2_30 C18_18 1_555 1_555
N3_18 C22_18 1_555 1_555
O1_18 C1_18 1_555 1_555
O2_18 C1_18 1_555 1_555
O3_18 C11_18 1_555 1_555
O4_18 C11_18 1_555 1_555
O5_18 C21_18 1_555 1_555
O29_3 C21_18 1_555 1_555
O7_14 C27_18 1_555 1_555
O8_14 C27_18 1_555 1_555
O9_30 C26_30 1_555 1_555
O10_30 C26_30 1_555 1_555
O11_18 C22_18 1_555 1_555
O12_18 C25_30 1_555 1_555
O13_30 Eu6_5 1_555 1_555
H20_18 O13_30 1_555 1_555
C27_18 C6_18 1_555 1_555
C28_18 C29_18 1_555 1_555
C29_18 C30_18 1_555 1_555
C30_18 H21_18 1_555 1_555
C31_18 C30_18 1_555 1_555
C32_18 C31_18 1_555 1_555
H22_18 C32_18 1_555 1_555
C33_18 C32_18 1_555 1_555
C34_18 C29_18 1_555 1_555
H23_18 C34_18 1_555 1_555
C35_18 N1_30 1_555 1_555
C36_18 C10_30 1_555 1_555
H24_18 C36_18 1_555 1_555
O24_9 C28_18 1_555 1_555
O25_9 C28_18 1_555 1_555
O32_2 C37_18 1_555 1_555
O17_14 C37_18 1_555 1_555
C37_18 C33_18 1_555 1_555
C38_18 C39_18 1_555 1_555
C39_18 C40_18 1_555 1_555
C40_18 H25_18 1_555 1_555
C41_18 C40_18 1_555 1_555
C42_18 C41_18 1_555 1_555
H26_18 C42_18 1_555 1_555
C43_18 C42_18 1_555 1_555
C44_18 C39_18 1_555 1_555
H27_18 C44_18 1_555 1_555
C45_18 N2_30 1_555 1_555
C46_18 C20_30 1_555 1_555
H28_18 C46_18 1_555 1_555
C47_18 C41_18 1_555 1_555
O26_9 C38_18 1_555 1_555
O27_9 C38_18 1_555 1_555
O28_2 C47_18 1_555 1_555
O30_2 C47_18 1_555 1_555
O35_9 C25_30 1_555 1_555
H29_18 O13_30 1_555 1_555
C48_18 H30_18 1_555 1_555
C49_18 H31_18 1_555 1_555
H32_18 C49_18 1_555 1_555
H33_18 C49_18 1_555 1_555
C50_18 H34_18 1_555 1_555
H35_18 C50_18 1_555 1_555
H36_18 C50_18 1_555 1_555
Eu10_3 O5_18 1_555 1_555
N4_18 C48_18 1_555 1_555
O23_18 C48_18 1_555 1_555
Eu7 O17_14 1_555 1_555
Eu7_2 O8_14 1_555 1_555
Eu9_3 O7_14 1_555 1_555
C6_18 C7_18 1_555 1_555
C16_18 C17_18 1_555 1_555
C23_18 N3_18 1_555 1_555
C24_18 N3_18 1_555 1_555
Eu6_5 O10_30 1_555 1_555
Eu6_5 O12_18 1_555 1_555
Eu9_10 O2_18 1_555 1_555
Eu9_10 O3_18 1_555 1_555
Eu9_10 O4_18 1_555 1_555
Eu9_10 O11_18 1_555 1_555
Eu9_10 O12_18 1_555 1_555
C31_18 C35_18 1_555 1_555
C33_18 C34_18 1_555 1_555
C35_18 C36_18 1_555 1_555
C43_18 C44_18 1_555 1_555
C43_18 C45_18 1_555 1_555
C45_18 C46_18 1_555 1_555
C49_18 N4_18 1_555 1_555
C50_18 N4_18 1_555 1_555
Eu10_3 O23_18 1_555 1_555
C1_19 C2_19 1_555 1_555
C2_19 C3_19 1_555 1_555
C3_19 H1_19 1_555 1_555
C4_19 C3_19 1_555 1_555
C5_19 C4_19 1_555 1_555
H2_19 C5_19 1_555 1_555
C6_19 C5_19 1_555 1_555
C7_19 C2_19 1_555 1_555
H3_19 C7_19 1_555 1_555
C8_19 C4_19 1_555 1_555
C9_19 C8_19 1_555 1_555
H4_19 C9_19 1_555 1_555
C10_31 C9_19 1_555 1_555
H5_31 C10_31 1_555 1_555
C11_19 C12_19 1_555 1_555
C12_19 C13_19 1_555 1_555
C13_19 H6_19 1_555 1_555
C14_19 C13_19 1_555 1_555
C15_19 C14_19 1_555 1_555
H7_19 C15_19 1_555 1_555
C16_19 C15_19 1_555 1_555
C17_19 C12_19 1_555 1_555
H8_19 C17_19 1_555 1_555
C18_19 C16_19 1_555 1_555
C19_19 C18_19 1_555 1_555
H9_19 C19_19 1_555 1_555
C20_31 C19_19 1_555 1_555
H10_31 C20_31 1_555 1_555
C21_19 C14_19 1_555 1_555
C22_19 H11_19 1_555 1_555
C23_19 H12_19 1_555 1_555
H13_19 C23_19 1_555 1_555
H14_19 C23_19 1_555 1_555
C24_19 H15_19 1_555 1_555
H16_19 C24_19 1_555 1_555
H17_19 C24_19 1_555 1_555
C25_31 H18_31 1_555 1_555
C26_31 H19_31 1_555 1_555
Eu7_5 O9_31 1_555 1_555
Eu9_9 O1_19 1_555 1_555
N1_31 C8_19 1_555 1_555
N2_31 C18_19 1_555 1_555
N3_19 C22_19 1_555 1_555
O1_19 C1_19 1_555 1_555
O2_19 C1_19 1_555 1_555
O3_19 C11_19 1_555 1_555
O4_19 C11_19 1_555 1_555
O5_19 C21_19 1_555 1_555
O29 C21_19 1_555 1_555
O7_15 C27_19 1_555 1_555
O8_15 C27_19 1_555 1_555
O9_31 C26_31 1_555 1_555
O10_31 C26_31 1_555 1_555
O11_19 C22_19 1_555 1_555
O12_19 C25_31 1_555 1_555
O13_31 Eu7_5 1_555 1_555
H20_19 O13_31 1_555 1_555
C27_19 C6_19 1_555 1_555
C28_19 C29_19 1_555 1_555
C29_19 C30_19 1_555 1_555
C30_19 H21_19 1_555 1_555
C31_19 C30_19 1_555 1_555
C32_19 C31_19 1_555 1_555
H22_19 C32_19 1_555 1_555
C33_19 C32_19 1_555 1_555
C34_19 C29_19 1_555 1_555
H23_19 C34_19 1_555 1_555
C35_19 N1_31 1_555 1_555
C36_19 C10_31 1_555 1_555
H24_19 C36_19 1_555 1_555
O24_10 C28_19 1_555 1_555
O25_10 C28_19 1_555 1_555
O32_4 C37_19 1_555 1_555
O17_15 C37_19 1_555 1_555
C37_19 C33_19 1_555 1_555
C38_19 C39_19 1_555 1_555
C39_19 C40_19 1_555 1_555
C40_19 H25_19 1_555 1_555
C41_19 C40_19 1_555 1_555
C42_19 C41_19 1_555 1_555
H26_19 C42_19 1_555 1_555
C43_19 C42_19 1_555 1_555
C44_19 C39_19 1_555 1_555
H27_19 C44_19 1_555 1_555
C45_19 N2_31 1_555 1_555
C46_19 C20_31 1_555 1_555
H28_19 C46_19 1_555 1_555
C47_19 C41_19 1_555 1_555
O26_10 C38_19 1_555 1_555
O27_10 C38_19 1_555 1_555
O28_4 C47_19 1_555 1_555
O30_4 C47_19 1_555 1_555
O35_10 C25_31 1_555 1_555
H29_19 O13_31 1_555 1_555
C48_19 H30_19 1_555 1_555
C49_19 H31_19 1_555 1_555
H32_19 C49_19 1_555 1_555
H33_19 C49_19 1_555 1_555
C50_19 H34_19 1_555 1_555
H35_19 C50_19 1_555 1_555
H36_19 C50_19 1_555 1_555
Eu10 O5_19 1_555 1_555
N4_19 C48_19 1_555 1_555
O23_19 C48_19 1_555 1_555
Eu7_2 O17_15 1_555 1_555
Eu7 O8_15 1_555 1_555
Eu9 O7_15 1_555 1_555
C6_19 C7_19 1_555 1_555
C16_19 C17_19 1_555 1_555
C23_19 N3_19 1_555 1_555
C24_19 N3_19 1_555 1_555
Eu7_5 O10_31 1_555 1_555
Eu7_5 O12_19 1_555 1_555
Eu9_9 O2_19 1_555 1_555
Eu9_9 O3_19 1_555 1_555
Eu9_9 O4_19 1_555 1_555
Eu9_9 O11_19 1_555 1_555
Eu9_9 O12_19 1_555 1_555
C31_19 C35_19 1_555 1_555
C33_19 C34_19 1_555 1_555
C35_19 C36_19 1_555 1_555
C43_19 C44_19 1_555 1_555
C43_19 C45_19 1_555 1_555
C45_19 C46_19 1_555 1_555
C49_19 N4_19 1_555 1_555
C50_19 N4_19 1_555 1_555
Eu10 O23_19 1_555 1_555
C1_20 C2_20 1_555 1_555
C2_20 C3_20 1_555 1_555
C3_20 H1_20 1_555 1_555
C4_20 C3_20 1_555 1_555
C5_20 C4_20 1_555 1_555
H2_20 C5_20 1_555 1_555
C6_20 C5_20 1_555 1_555
C7_20 C2_20 1_555 1_555
H3_20 C7_20 1_555 1_555
C8_20 C4_20 1_555 1_555
C9_20 C8_20 1_555 1_555
H4_20 C9_20 1_555 1_555
C10_32 C9_20 1_555 1_555
H5_32 C10_32 1_555 1_555
C11_20 C12_20 1_555 1_555
C12_20 C13_20 1_555 1_555
C13_20 H6_20 1_555 1_555
C14_20 C13_20 1_555 1_555
C15_20 C14_20 1_555 1_555
H7_20 C15_20 1_555 1_555
C16_20 C15_20 1_555 1_555
C17_20 C12_20 1_555 1_555
H8_20 C17_20 1_555 1_555
C18_20 C16_20 1_555 1_555
C19_20 C18_20 1_555 1_555
H9_20 C19_20 1_555 1_555
C20_32 C19_20 1_555 1_555
H10_32 C20_32 1_555 1_555
C21_20 C14_20 1_555 1_555
C22_20 H11_20 1_555 1_555
C23_20 H12_20 1_555 1_555
H13_20 C23_20 1_555 1_555
H14_20 C23_20 1_555 1_555
C24_20 H15_20 1_555 1_555
H16_20 C24_20 1_555 1_555
H17_20 C24_20 1_555 1_555
C25_32 H18_32 1_555 1_555
C26_32 H19_32 1_555 1_555
Eu7_6 O9_32 1_555 1_555
Eu9_11 O1_20 1_555 1_555
N1_32 C8_20 1_555 1_555
N2_32 C18_20 1_555 1_555
N3_20 C22_20 1_555 1_555
O1_20 C1_20 1_555 1_555
O2_20 C1_20 1_555 1_555
O3_20 C11_20 1_555 1_555
O4_20 C11_20 1_555 1_555
O5_20 C21_20 1_555 1_555
O29_4 C21_20 1_555 1_555
O7_16 C27_20 1_555 1_555
O8_16 C27_20 1_555 1_555
O9_32 C26_32 1_555 1_555
O10_32 C26_32 1_555 1_555
O11_20 C22_20 1_555 1_555
O12_20 C25_32 1_555 1_555
O13_32 Eu7_6 1_555 1_555
H20_20 O13_32 1_555 1_555
C27_20 C6_20 1_555 1_555
C28_20 C29_20 1_555 1_555
C29_20 C30_20 1_555 1_555
C30_20 H21_20 1_555 1_555
C31_20 C30_20 1_555 1_555
C32_20 C31_20 1_555 1_555
H22_20 C32_20 1_555 1_555
C33_20 C32_20 1_555 1_555
C34_20 C29_20 1_555 1_555
H23_20 C34_20 1_555 1_555
C35_20 N1_32 1_555 1_555
C36_20 C10_32 1_555 1_555
H24_20 C36_20 1_555 1_555
O24_12 C28_20 1_555 1_555
O25_12 C28_20 1_555 1_555
O32 C37_20 1_555 1_555
O17_16 C37_20 1_555 1_555
C37_20 C33_20 1_555 1_555
C38_20 C39_20 1_555 1_555
C39_20 C40_20 1_555 1_555
C40_20 H25_20 1_555 1_555
C41_20 C40_20 1_555 1_555
C42_20 C41_20 1_555 1_555
H26_20 C42_20 1_555 1_555
C43_20 C42_20 1_555 1_555
C44_20 C39_20 1_555 1_555
H27_20 C44_20 1_555 1_555
C45_20 N2_32 1_555 1_555
C46_20 C20_32 1_555 1_555
H28_20 C46_20 1_555 1_555
C47_20 C41_20 1_555 1_555
O26_12 C38_20 1_555 1_555
O27_12 C38_20 1_555 1_555
O28 C47_20 1_555 1_555
O30 C47_20 1_555 1_555
O35_12 C25_32 1_555 1_555
H29_20 O13_32 1_555 1_555
C48_20 H30_20 1_555 1_555
C49_20 H31_20 1_555 1_555
H32_20 C49_20 1_555 1_555
H33_20 C49_20 1_555 1_555
C50_20 H34_20 1_555 1_555
H35_20 C50_20 1_555 1_555
H36_20 C50_20 1_555 1_555
Eu10_4 O5_20 1_555 1_555
N4_20 C48_20 1_555 1_555
O23_20 C48_20 1_555 1_555
Eu6 O17_16 1_555 1_555
Eu6_2 O8_16 1_555 1_555
Eu9_4 O7_16 1_555 1_555
C6_20 C7_20 1_555 1_555
C16_20 C17_20 1_555 1_555
C23_20 N3_20 1_555 1_555
C24_20 N3_20 1_555 1_555
Eu7_6 O10_32 1_555 1_555
Eu7_6 O12_20 1_555 1_555
Eu9_11 O2_20 1_555 1_555
Eu9_11 O3_20 1_555 1_555
Eu9_11 O4_20 1_555 1_555
Eu9_11 O11_20 1_555 1_555
Eu9_11 O12_20 1_555 1_555
C31_20 C35_20 1_555 1_555
C33_20 C34_20 1_555 1_555
C35_20 C36_20 1_555 1_555
C43_20 C44_20 1_555 1_555
C43_20 C45_20 1_555 1_555
C45_20 C46_20 1_555 1_555
C49_20 N4_20 1_555 1_555
C50_20 N4_20 1_555 1_555
Eu10_4 O23_20 1_555 1_555
C1_21 C2_21 1_555 1_555
C2_21 C3_21 1_555 1_555
C3_21 H1_21 1_555 1_555
C4_21 C3_21 1_555 1_555
C5_21 C4_21 1_555 1_555
H2_21 C5_21 1_555 1_555
C6_21 C5_21 1_555 1_555
C7_21 C2_21 1_555 1_555
H3_21 C7_21 1_555 1_555
C8_21 C4_21 1_555 1_555
C9_21 C8_21 1_555 1_555
H4_21 C9_21 1_555 1_555
C10_33 C9_21 1_555 1_555
H5_33 C10_33 1_555 1_555
C11_21 C12_21 1_555 1_555
C12_21 C13_21 1_555 1_555
C13_21 H6_21 1_555 1_555
C14_21 C13_21 1_555 1_555
C15_21 C14_21 1_555 1_555
H7_21 C15_21 1_555 1_555
C16_21 C15_21 1_555 1_555
C17_21 C12_21 1_555 1_555
H8_21 C17_21 1_555 1_555
C18_21 C16_21 1_555 1_555
C19_21 C18_21 1_555 1_555
H9_21 C19_21 1_555 1_555
C20_33 C19_21 1_555 1_555
H10_33 C20_33 1_555 1_555
C21_21 C14_21 1_555 1_555
C22_21 H11_21 1_555 1_555
C23_21 H12_21 1_555 1_555
H13_21 C23_21 1_555 1_555
H14_21 C23_21 1_555 1_555
C24_21 H15_21 1_555 1_555
H16_21 C24_21 1_555 1_555
H17_21 C24_21 1_555 1_555
C25_33 H18_33 1_555 1_555
C26_33 H19_33 1_555 1_555
Eu6_2 O9_33 1_555 1_555
Eu9_4 O1_21 1_555 1_555
N1_33 C8_21 1_555 1_555
N2_33 C18_21 1_555 1_555
N3_21 C22_21 1_555 1_555
O1_21 C1_21 1_555 1_555
O2_21 C1_21 1_555 1_555
O3_21 C11_21 1_555 1_555
O4_21 C11_21 1_555 1_555
O5_21 C21_21 1_555 1_555
O29_6 C21_21 1_555 1_555
O31_6 C27_21 1_555 1_555
O33_6 C27_21 1_555 1_555
O9_33 C26_33 1_555 1_555
O10_33 C26_33 1_555 1_555
O11_21 C22_21 1_555 1_555
O12_21 C25_33 1_555 1_555
O13_33 Eu6_2 1_555 1_555
H20_21 O13_33 1_555 1_555
C27_21 C6_21 1_555 1_555
C28_21 C29_21 1_555 1_555
C29_21 C30_21 1_555 1_555
C30_21 H21_21 1_555 1_555
C31_21 C30_21 1_555 1_555
C32_21 C31_21 1_555 1_555
H22_21 C32_21 1_555 1_555
C33_21 C32_21 1_555 1_555
C34_21 C29_21 1_555 1_555
H23_21 C34_21 1_555 1_555
C35_21 N1_33 1_555 1_555
C36_21 C10_33 1_555 1_555
H24_21 C36_21 1_555 1_555
O24_3 C28_21 1_555 1_555
O25_3 C28_21 1_555 1_555
O32_7 C37_21 1_555 1_555
O34_5 C37_21 1_555 1_555
C37_21 C33_21 1_555 1_555
C38_21 C39_21 1_555 1_555
C39_21 C40_21 1_555 1_555
C40_21 H25_21 1_555 1_555
C41_21 C40_21 1_555 1_555
C42_21 C41_21 1_555 1_555
H26_21 C42_21 1_555 1_555
C43_21 C42_21 1_555 1_555
C44_21 C39_21 1_555 1_555
H27_21 C44_21 1_555 1_555
C45_21 N2_33 1_555 1_555
C46_21 C20_33 1_555 1_555
H28_21 C46_21 1_555 1_555
C47_21 C41_21 1_555 1_555
O26_3 C38_21 1_555 1_555
O27_3 C38_21 1_555 1_555
O28_7 C47_21 1_555 1_555
O30_7 C47_21 1_555 1_555
O35_3 C25_33 1_555 1_555
H29_21 O13_33 1_555 1_555
C48_21 H30_21 1_555 1_555
C49_21 H31_21 1_555 1_555
H32_21 C49_21 1_555 1_555
H33_21 C49_21 1_555 1_555
C50_21 H34_21 1_555 1_555
H35_21 C50_21 1_555 1_555
H36_21 C50_21 1_555 1_555
Eu11_4 O5_21 1_555 1_555
N4_21 C48_21 1_555 1_555
O23_21 C48_21 1_555 1_555
C6_21 C7_21 1_555 1_555
C16_21 C17_21 1_555 1_555
C23_21 N3_21 1_555 1_555
C24_21 N3_21 1_555 1_555
Eu6_2 O10_33 1_555 1_555
Eu6_2 O12_21 1_555 1_555
Eu9_4 O2_21 1_555 1_555
Eu9_4 O3_21 1_555 1_555
Eu9_4 O4_21 1_555 1_555
Eu9_4 O11_21 1_555 1_555
Eu9_4 O12_21 1_555 1_555
C31_21 C35_21 1_555 1_555
C33_21 C34_21 1_555 1_555
C35_21 C36_21 1_555 1_555
C43_21 C44_21 1_555 1_555
C43_21 C45_21 1_555 1_555
C45_21 C46_21 1_555 1_555
C49_21 N4_21 1_555 1_555
C50_21 N4_21 1_555 1_555
Eu11_4 O23_21 1_555 1_555
C1_22 C2_22 1_555 1_555
C2_22 C3_22 1_555 1_555
C3_22 H1_22 1_555 1_555
C4_22 C3_22 1_555 1_555
C5_22 C4_22 1_555 1_555
H2_22 C5_22 1_555 1_555
C6_22 C5_22 1_555 1_555
C7_22 C2_22 1_555 1_555
H3_22 C7_22 1_555 1_555
C8_22 C4_22 1_555 1_555
C9_22 C8_22 1_555 1_555
H4_22 C9_22 1_555 1_555
C10_34 C9_22 1_555 1_555
H5_34 C10_34 1_555 1_555
C11_22 C12_22 1_555 1_555
C12_22 C13_22 1_555 1_555
C13_22 H6_22 1_555 1_555
C14_22 C13_22 1_555 1_555
C15_22 C14_22 1_555 1_555
H7_22 C15_22 1_555 1_555
C16_22 C15_22 1_555 1_555
C17_22 C12_22 1_555 1_555
H8_22 C17_22 1_555 1_555
C18_22 C16_22 1_555 1_555
C19_22 C18_22 1_555 1_555
H9_22 C19_22 1_555 1_555
C20_34 C19_22 1_555 1_555
H10_34 C20_34 1_555 1_555
C21_22 C14_22 1_555 1_555
C22_22 H11_22 1_555 1_555
C23_22 H12_22 1_555 1_555
H13_22 C23_22 1_555 1_555
H14_22 C23_22 1_555 1_555
C24_22 H15_22 1_555 1_555
H16_22 C24_22 1_555 1_555
H17_22 C24_22 1_555 1_555
C25_34 H18_34 1_555 1_555
C26_34 H19_34 1_555 1_555
Eu6 O9_34 1_555 1_555
Eu9_2 O1_22 1_555 1_555
N1_34 C8_22 1_555 1_555
N2_34 C18_22 1_555 1_555
N3_22 C22_22 1_555 1_555
O1_22 C1_22 1_555 1_555
O2_22 C1_22 1_555 1_555
O3_22 C11_22 1_555 1_555
O4_22 C11_22 1_555 1_555
O5_22 C21_22 1_555 1_555
O29_7 C21_22 1_555 1_555
O31_8 C27_22 1_555 1_555
O33_8 C27_22 1_555 1_555
O9_34 C26_34 1_555 1_555
O10_34 C26_34 1_555 1_555
O11_22 C22_22 1_555 1_555
O12_22 C25_34 1_555 1_555
O13_34 Eu6 1_555 1_555
H20_22 O13_34 1_555 1_555
C27_22 C6_22 1_555 1_555
C28_22 C29_22 1_555 1_555
C29_22 C30_22 1_555 1_555
C30_22 H21_22 1_555 1_555
C31_22 C30_22 1_555 1_555
C32_22 C31_22 1_555 1_555
H22_22 C32_22 1_555 1_555
C33_22 C32_22 1_555 1_555
C34_22 C29_22 1_555 1_555
H23_22 C34_22 1_555 1_555
C35_22 N1_34 1_555 1_555
C36_22 C10_34 1_555 1_555
H24_22 C36_22 1_555 1_555
O24 C28_22 1_555 1_555
O25 C28_22 1_555 1_555
O32_6 C37_22 1_555 1_555
O34_7 C37_22 1_555 1_555
C37_22 C33_22 1_555 1_555
C38_22 C39_22 1_555 1_555
C39_22 C40_22 1_555 1_555
C40_22 H25_22 1_555 1_555
C41_22 C40_22 1_555 1_555
C42_22 C41_22 1_555 1_555
H26_22 C42_22 1_555 1_555
C43_22 C42_22 1_555 1_555
C44_22 C39_22 1_555 1_555
H27_22 C44_22 1_555 1_555
C45_22 N2_34 1_555 1_555
C46_22 C20_34 1_555 1_555
H28_22 C46_22 1_555 1_555
C47_22 C41_22 1_555 1_555
O26 C38_22 1_555 1_555
O27 C38_22 1_555 1_555
O28_6 C47_22 1_555 1_555
O30_6 C47_22 1_555 1_555
O35 C25_34 1_555 1_555
H29_22 O13_34 1_555 1_555
C48_22 H30_22 1_555 1_555
C49_22 H31_22 1_555 1_555
H32_22 C49_22 1_555 1_555
H33_22 C49_22 1_555 1_555
C50_22 H34_22 1_555 1_555
H35_22 C50_22 1_555 1_555
H36_22 C50_22 1_555 1_555
Eu11_2 O5_22 1_555 1_555
N4_22 C48_22 1_555 1_555
O23_22 C48_22 1_555 1_555
C6_22 C7_22 1_555 1_555
C16_22 C17_22 1_555 1_555
C23_22 N3_22 1_555 1_555
C24_22 N3_22 1_555 1_555
Eu6 O10_34 1_555 1_555
Eu6 O12_22 1_555 1_555
Eu9_2 O2_22 1_555 1_555
Eu9_2 O3_22 1_555 1_555
Eu9_2 O4_22 1_555 1_555
Eu9_2 O11_22 1_555 1_555
Eu9_2 O12_22 1_555 1_555
C31_22 C35_22 1_555 1_555
C33_22 C34_22 1_555 1_555
C35_22 C36_22 1_555 1_555
C43_22 C44_22 1_555 1_555
C43_22 C45_22 1_555 1_555
C45_22 C46_22 1_555 1_555
C49_22 N4_22 1_555 1_555
C50_22 N4_22 1_555 1_555
Eu11_2 O23_22 1_555 1_555
C1_23 C2_23 1_555 1_555
C2_23 C3_23 1_555 1_555
C3_23 H1_23 1_555 1_555
C4_23 C3_23 1_555 1_555
C5_23 C4_23 1_555 1_555
H2_23 C5_23 1_555 1_555
C6_23 C5_23 1_555 1_555
C7_23 C2_23 1_555 1_555
H3_23 C7_23 1_555 1_555
C8_23 C4_23 1_555 1_555
C9_23 C8_23 1_555 1_555
H4_23 C9_23 1_555 1_555
C10_35 C9_23 1_555 1_555
H5_35 C10_35 1_555 1_555
C11_23 C12_23 1_555 1_555
C12_23 C13_23 1_555 1_555
C13_23 H6_23 1_555 1_555
C14_23 C13_23 1_555 1_555
C15_23 C14_23 1_555 1_555
H7_23 C15_23 1_555 1_555
C16_23 C15_23 1_555 1_555
C17_23 C12_23 1_555 1_555
H8_23 C17_23 1_555 1_555
C18_23 C16_23 1_555 1_555
C19_23 C18_23 1_555 1_555
H9_23 C19_23 1_555 1_555
C20_35 C19_23 1_555 1_555
H10_35 C20_35 1_555 1_555
C21_23 C14_23 1_555 1_555
C22_23 H11_23 1_555 1_555
C23_23 H12_23 1_555 1_555
H13_23 C23_23 1_555 1_555
H14_23 C23_23 1_555 1_555
C24_23 H15_23 1_555 1_555
H16_23 C24_23 1_555 1_555
H17_23 C24_23 1_555 1_555
C25_35 H18_35 1_555 1_555
C26_35 H19_35 1_555 1_555
Eu7 O9_35 1_555 1_555
Eu9 O1_23 1_555 1_555
N1_35 C8_23 1_555 1_555
N2_35 C18_23 1_555 1_555
N3_23 C22_23 1_555 1_555
O1_23 C1_23 1_555 1_555
O2_23 C1_23 1_555 1_555
O3_23 C11_23 1_555 1_555
O4_23 C11_23 1_555 1_555
O5_23 C21_23 1_555 1_555
O29_5 C21_23 1_555 1_555
O31_7 C27_23 1_555 1_555
O33_7 C27_23 1_555 1_555
O9_35 C26_35 1_555 1_555
O10_35 C26_35 1_555 1_555
O11_23 C22_23 1_555 1_555
O12_23 C25_35 1_555 1_555
O13_35 Eu7 1_555 1_555
H20_23 O13_35 1_555 1_555
C27_23 C6_23 1_555 1_555
C28_23 C29_23 1_555 1_555
C29_23 C30_23 1_555 1_555
C30_23 H21_23 1_555 1_555
C31_23 C30_23 1_555 1_555
C32_23 C31_23 1_555 1_555
H22_23 C32_23 1_555 1_555
C33_23 C32_23 1_555 1_555
C34_23 C29_23 1_555 1_555
H23_23 C34_23 1_555 1_555
C35_23 N1_35 1_555 1_555
C36_23 C10_35 1_555 1_555
H24_23 C36_23 1_555 1_555
O24_2 C28_23 1_555 1_555
O25_2 C28_23 1_555 1_555
O32_8 C37_23 1_555 1_555
O34_8 C37_23 1_555 1_555
C37_23 C33_23 1_555 1_555
C38_23 C39_23 1_555 1_555
C39_23 C40_23 1_555 1_555
C40_23 H25_23 1_555 1_555
C41_23 C40_23 1_555 1_555
C42_23 C41_23 1_555 1_555
H26_23 C42_23 1_555 1_555
C43_23 C42_23 1_555 1_555
C44_23 C39_23 1_555 1_555
H27_23 C44_23 1_555 1_555
C45_23 N2_35 1_555 1_555
C46_23 C20_35 1_555 1_555
H28_23 C46_23 1_555 1_555
C47_23 C41_23 1_555 1_555
O26_2 C38_23 1_555 1_555
O27_2 C38_23 1_555 1_555
O28_8 C47_23 1_555 1_555
O30_8 C47_23 1_555 1_555
O35_2 C25_35 1_555 1_555
H29_23 O13_35 1_555 1_555
C48_23 H30_23 1_555 1_555
C49_23 H31_23 1_555 1_555
H32_23 C49_23 1_555 1_555
H33_23 C49_23 1_555 1_555
C50_23 H34_23 1_555 1_555
H35_23 C50_23 1_555 1_555
H36_23 C50_23 1_555 1_555
Eu11 O5_23 1_555 1_555
N4_23 C48_23 1_555 1_555
O23_23 C48_23 1_555 1_555
C6_23 C7_23 1_555 1_555
C16_23 C17_23 1_555 1_555
C23_23 N3_23 1_555 1_555
C24_23 N3_23 1_555 1_555
Eu7 O10_35 1_555 1_555
Eu7 O12_23 1_555 1_555
Eu9 O2_23 1_555 1_555
Eu9 O3_23 1_555 1_555
Eu9 O4_23 1_555 1_555
Eu9 O11_23 1_555 1_555
Eu9 O12_23 1_555 1_555
C31_23 C35_23 1_555 1_555
C33_23 C34_23 1_555 1_555
C35_23 C36_23 1_555 1_555
C43_23 C44_23 1_555 1_555
C43_23 C45_23 1_555 1_555
C45_23 C46_23 1_555 1_555
C49_23 N4_23 1_555 1_555
C50_23 N4_23 1_555 1_555
Eu11 O23_23 1_555 1_555
C1_24 C2_24 1_555 1_555
C2_24 C3_24 1_555 1_555
C3_24 H1_24 1_555 1_555
C4_24 C3_24 1_555 1_555
C5_24 C4_24 1_555 1_555
H2_24 C5_24 1_555 1_555
C6_24 C5_24 1_555 1_555
C7_24 C2_24 1_555 1_555
H3_24 C7_24 1_555 1_555
C8_24 C4_24 1_555 1_555
C9_24 C8_24 1_555 1_555
H4_24 C9_24 1_555 1_555
C10_36 C9_24 1_555 1_555
H5_36 C10_36 1_555 1_555
C11_24 C12_24 1_555 1_555
C12_24 C13_24 1_555 1_555
C13_24 H6_24 1_555 1_555
C14_24 C13_24 1_555 1_555
C15_24 C14_24 1_555 1_555
H7_24 C15_24 1_555 1_555
C16_24 C15_24 1_555 1_555
C17_24 C12_24 1_555 1_555
H8_24 C17_24 1_555 1_555
C18_24 C16_24 1_555 1_555
C19_24 C18_24 1_555 1_555
H9_24 C19_24 1_555 1_555
C20_36 C19_24 1_555 1_555
H10_36 C20_36 1_555 1_555
C21_24 C14_24 1_555 1_555
C22_24 H11_24 1_555 1_555
C23_24 H12_24 1_555 1_555
H13_24 C23_24 1_555 1_555
H14_24 C23_24 1_555 1_555
C24_24 H15_24 1_555 1_555
H16_24 C24_24 1_555 1_555
H17_24 C24_24 1_555 1_555
C25_36 H18_36 1_555 1_555
C26_36 H19_36 1_555 1_555
Eu7_2 O9_36 1_555 1_555
Eu9_3 O1_24 1_555 1_555
N1_36 C8_24 1_555 1_555
N2_36 C18_24 1_555 1_555
N3_24 C22_24 1_555 1_555
O1_24 C1_24 1_555 1_555
O2_24 C1_24 1_555 1_555
O3_24 C11_24 1_555 1_555
O4_24 C11_24 1_555 1_555
O5_24 C21_24 1_555 1_555
O29_8 C21_24 1_555 1_555
O31_5 C27_24 1_555 1_555
O33_5 C27_24 1_555 1_555
O9_36 C26_36 1_555 1_555
O10_36 C26_36 1_555 1_555
O11_24 C22_24 1_555 1_555
O12_24 C25_36 1_555 1_555
O13_36 Eu7_2 1_555 1_555
H20_24 O13_36 1_555 1_555
C27_24 C6_24 1_555 1_555
C28_24 C29_24 1_555 1_555
C29_24 C30_24 1_555 1_555
C30_24 H21_24 1_555 1_555
C31_24 C30_24 1_555 1_555
C32_24 C31_24 1_555 1_555
H22_24 C32_24 1_555 1_555
C33_24 C32_24 1_555 1_555
C34_24 C29_24 1_555 1_555
H23_24 C34_24 1_555 1_555
C35_24 N1_36 1_555 1_555
C36_24 C10_36 1_555 1_555
H24_24 C36_24 1_555 1_555
O24_4 C28_24 1_555 1_555
O25_4 C28_24 1_555 1_555
O32_5 C37_24 1_555 1_555
O34_6 C37_24 1_555 1_555
C37_24 C33_24 1_555 1_555
C38_24 C39_24 1_555 1_555
C39_24 C40_24 1_555 1_555
C40_24 H25_24 1_555 1_555
C41_24 C40_24 1_555 1_555
C42_24 C41_24 1_555 1_555
H26_24 C42_24 1_555 1_555
C43_24 C42_24 1_555 1_555
C44_24 C39_24 1_555 1_555
H27_24 C44_24 1_555 1_555
C45_24 N2_36 1_555 1_555
C46_24 C20_36 1_555 1_555
H28_24 C46_24 1_555 1_555
C47_24 C41_24 1_555 1_555
O26_4 C38_24 1_555 1_555
O27_4 C38_24 1_555 1_555
O28_5 C47_24 1_555 1_555
O30_5 C47_24 1_555 1_555
O35_4 C25_36 1_555 1_555
H29_24 O13_36 1_555 1_555
C48_24 H30_24 1_555 1_555
C49_24 H31_24 1_555 1_555
H32_24 C49_24 1_555 1_555
H33_24 C49_24 1_555 1_555
C50_24 H34_24 1_555 1_555
H35_24 C50_24 1_555 1_555
H36_24 C50_24 1_555 1_555
Eu11_3 O5_24 1_555 1_555
N4_24 C48_24 1_555 1_555
O23_24 C48_24 1_555 1_555
C6_24 C7_24 1_555 1_555
C16_24 C17_24 1_555 1_555
C23_24 N3_24 1_555 1_555
C24_24 N3_24 1_555 1_555
Eu7_2 O10_36 1_555 1_555
Eu7_2 O12_24 1_555 1_555
Eu9_3 O2_24 1_555 1_555
Eu9_3 O3_24 1_555 1_555
Eu9_3 O4_24 1_555 1_555
Eu9_3 O11_24 1_555 1_555
Eu9_3 O12_24 1_555 1_555
C31_24 C35_24 1_555 1_555
C33_24 C34_24 1_555 1_555
C35_24 C36_24 1_555 1_555
C43_24 C44_24 1_555 1_555
C43_24 C45_24 1_555 1_555
C45_24 C46_24 1_555 1_555
C49_24 N4_24 1_555 1_555
C50_24 N4_24 1_555 1_555
Eu11_3 O23_24 1_555 1_555

#END
