
###############################################################################
#
# This file contains modified crystal structure data generated from the
# MOF subset of the Cambridge Structural Database (CSD) v543 
# hosted by the Cambridge Crystallographic Data Centre (CCDC).
#
# This work is licensed under the Creative Commons
# Attribution-NonCommercial-ShareAlike 4.0 International License.
# To view a copy of this license, visit
# http://creativecommons.org/licenses/by-nc-sa/4.0/
# or send a letter to
# Creative Commons, PO Box 1866, Mountain View, CA 94042, USA.
#
# CIF created using the CSD Python API on 29 September 2022
# The structure has been converted into the P1 space group
# The structure has a 3D framework
# The original CSD entry XOFGEG is in the cubic crystal system
# The framework has been calculated to contain at least 10.0% void space
# The void calculation uses a probe of radius 1.32A, grid spacing 0.4
#
###############################################################################

data_XOFGEG
_chemical_formula_moiety         '(C1248 H912 Gd84 N120 O588)n'
_symmetry_cell_setting           triclinic
_symmetry_space_group_name_H-M   'P 1'
_symmetry_Int_Tables_number      1
_space_group_name_Hall           'P 1'
loop_
_symmetry_equiv_pos_site_id
_symmetry_equiv_pos_as_xyz
1 x,y,z
_cell_length_a                   37.9569(9)
_cell_length_b                   37.9569(9)
_cell_length_c                   37.9569(9)
_cell_angle_alpha                90
_cell_angle_beta                 90
_cell_angle_gamma                90
_cell_volume                     54685.5
loop_
_atom_site_label
_atom_site_type_symbol
_atom_site_fract_x
_atom_site_fract_y
_atom_site_fract_z
Gd1 Gd 0.18663(3) 0.0000 0.30957(2)
O9 O 0.1247(6) 0.0000 0.3372(7)
O10 O 0.1586(6) 0.0000 0.3709(6)
C10 C 0.3567(9) 0.0000 0.0506(7)
H5 H 0.3716 0.0000 0.0305
C20 C 0.4692(12) 0.0000 0.3409(13)
H10 H 0.4881 0.0000 0.3573
C26 C 0.2421(6) 0.0000 0.2550(6)
H18 H 0.2587 0.0000 0.2362
N1 N 0.3001(8) 0.0000 0.0970(9)
N2 N 0.4012(7) 0.0000 0.3103(7)
O13 O 0.1566(6) 0.0000 0.2563(7)
H19 H 0.1622 0.0183 0.2446
C27 C 0.1269(12) 0.0000 0.3711(12)
H20 H 0.1098 0.0000 0.3894
O14 O 0.2426(3) 0.1172(3) 0.2011(3)
O15 O 0.2552(4) 0.0609(4) 0.2017(4)
O16 O 0.2542(3) 0.1814(3) 0.0869(3)
O17 O 0.2995(4) 0.1650(4) 0.0577(4)
C28 C 0.2524(6) 0.0888(4) 0.1831(4)
C29 C 0.2615(5) 0.0906(3) 0.1444(4)
C30 C 0.2808(5) 0.0609(4) 0.1336(4)
H21 H 0.2836 0.0408 0.1483
C31 C 0.2956(6) 0.0625(4) 0.0998(5)
C32 C 0.2931(6) 0.0940(3) 0.0809(4)
H22 H 0.3054 0.0954 0.0591
C33 C 0.2741(5) 0.1238(4) 0.0916(4)
C34 C 0.2591(5) 0.1217(4) 0.1251(4)
H23 H 0.2471 0.1415 0.1347
C35 C 0.3148(5) 0.0306(4) 0.0858(5)
C36 C 0.3456(5) 0.0316(4) 0.0658(5)
H24 H 0.3584 0.0528 0.0626
C37 C 0.2757(3) 0.1595(4) 0.0779(3)
O18 O 0.2996(3) 0.1166(2) 0.2592(3)
O19 O 0.2997(4) 0.0599(3) 0.2664(4)
O20 O 0.4121(3) 0.1814(3) 0.2613(3)
O21 O 0.4621(4) 0.1576(5) 0.2770(5)
C38 C 0.3153(4) 0.0883(4) 0.2672(5)
C39 C 0.3540(5) 0.0921(4) 0.2727(6)
C40 C 0.3733(4) 0.1229(4) 0.2681(7)
H25 H 0.3623 0.1429 0.2578
C41 C 0.4085(5) 0.1249(5) 0.2782(8)
C42 C 0.4235(6) 0.0951(5) 0.2935(6)
H26 H 0.4475 0.0960 0.3008
C43 C 0.4049(5) 0.0639(4) 0.2987(4)
C44 C 0.3689(5) 0.0624(5) 0.2920(5)
H27 H 0.3553 0.0397 0.2964
C45 C 0.4210(6) 0.0292(5) 0.3117(9)
C46 C 0.4549(7) 0.0301(6) 0.3255(10)
H28 H 0.4698 0.0499 0.3226
C47 C 0.4306(5) 0.1575(4) 0.2718(3)
O22 O 0.2311(3) 0.0281(2) 0.2679(3)
Gd4 Gd 0.30957(2) 0.18663(3) 0.0000
Gd7 Gd 0.5000 0.19043(2) 0.31337(3)
Gd9 Gd 0.411370(12) 0.244228(18) 0.256160(18)
Gd10 Gd 0.243840(18) 0.088630(12) 0.255772(18)
Gd11 Gd 0.255772(18) 0.243840(18) 0.088630(12)
O29 O 0.2230(5) 0.0379(4) 0.3424(5)
O34 O 0.1650(4) 0.0577(4) 0.2995(4)
Gd4_2 Gd 0.30957(2) 0.18663(3) 1.0000
Gd1_2 Gd 0.18663(3) 1.0000 0.30957(2)
Gd2 Gd 0.243840(18) 0.911370(12) 0.255772(18)
O1 O 0.2426(3) 0.8828(3) 0.2011(3)
O2 O 0.2552(4) 0.9391(4) 0.2017(4)
O3 O 0.2996(3) 0.8834(2) 0.2592(3)
O4 O 0.2997(4) 0.9401(3) 0.2664(4)
O5 O 0.4121(3) 0.8186(3) 0.2613(3)
O6 O 0.4621(4) 0.8424(5) 0.2770(5)
O7 O 0.2542(3) 0.8186(3) 0.0869(3)
O8 O 0.2995(4) 0.8350(4) 0.0577(4)
O9_2 O 0.1247(6) 1.0000 0.3372(7)
O10_2 O 0.1586(6) 1.0000 0.3709(6)
O11 O 0.2245(3) 0.8526(2) 0.2702(2)
C1 C 0.2524(6) 0.9112(4) 0.1831(4)
C2 C 0.2615(5) 0.9094(3) 0.1444(4)
C3 C 0.2808(5) 0.9391(4) 0.1336(4)
H1 H 0.2836 0.9592 0.1483
C4 C 0.2956(6) 0.9375(4) 0.0998(5)
C5 C 0.2931(6) 0.9060(3) 0.0809(4)
H2 H 0.3054 0.9046 0.0591
C6 C 0.2741(5) 0.8762(4) 0.0916(4)
C7 C 0.2591(5) 0.8783(4) 0.1251(4)
H3 H 0.2471 0.8585 0.1347
C8 C 0.3148(5) 0.9694(4) 0.0858(5)
C9 C 0.3456(5) 0.9684(4) 0.0658(5)
H4 H 0.3584 0.9472 0.0626
C10_2 C 0.3567(9) 1.0000 0.0506(7)
H5_2 H 0.3716 1.0000 0.0305
C11 C 0.3153(4) 0.9117(4) 0.2672(5)
C12 C 0.3540(5) 0.9079(4) 0.2727(6)
C13 C 0.3733(4) 0.8771(4) 0.2681(7)
H6 H 0.3623 0.8571 0.2578
C14 C 0.4085(5) 0.8751(5) 0.2782(8)
C15 C 0.4235(6) 0.9049(5) 0.2935(6)
H7 H 0.4475 0.9040 0.3008
C16 C 0.4049(5) 0.9361(4) 0.2987(4)
C17 C 0.3689(5) 0.9376(5) 0.2920(5)
H8 H 0.3553 0.9603 0.2964
C18 C 0.4210(6) 0.9708(5) 0.3117(9)
C19 C 0.4549(7) 0.9699(6) 0.3255(10)
H9 H 0.4698 0.9501 0.3226
C20_2 C 0.4692(12) 1.0000 0.3409(13)
H10_2 H 0.4881 1.0000 0.3573
C21 C 0.4306(5) 0.8425(4) 0.2718(3)
C22 C 0.2757(3) 0.8405(4) 0.0779(3)
C23 C 0.2015(4) 0.8463(4) 0.2944(4)
H11 H 0.1944 0.8690 0.3021
C24 C 0.1581(5) 0.8135(5) 0.3310(4)
H12 H 0.1561 0.8358 0.3438
H13 H 0.1631 0.7944 0.3477
H14 H 0.1359 0.8086 0.3188
C25 C 0.1975(5) 0.7845(4) 0.2838(6)
H15 H 0.2177 0.7907 0.2690
H16 H 0.1778 0.7771 0.2688
H17 H 0.2040 0.7651 0.2996
C26_2 C 0.2421(6) 1.0000 0.2550(6)
H18_2 H 0.2587 1.0000 0.2362
N1_2 N 0.3001(8) 1.0000 0.0970(9)
N2_2 N 0.4012(7) 1.0000 0.3103(7)
O12 O 0.2311(3) 0.9719(2) 0.2679(3)
O13_2 O 0.1566(6) 1.0000 0.2563(7)
N3 N 0.1866(3) 0.8159(3) 0.3053(3)
C27_2 C 0.1269(12) 1.0000 0.3711(12)
H20_2 H 0.1098 1.0000 0.3894
H29 H 0.1622 0.9817 0.2446
Gd3 Gd 0.411370(12) 0.755772(18) 0.256160(18)
O23 O 0.3526(2) 0.7702(2) 0.2755(3)
C48 C 0.3463(4) 0.7944(4) 0.2985(4)
H30 H 0.3690 0.8021 0.3056
C49 C 0.3135(5) 0.8310(4) 0.3419(5)
H31 H 0.3358 0.8438 0.3439
H32 H 0.2944 0.8477 0.3369
H33 H 0.3086 0.8188 0.3641
C50 C 0.2845(4) 0.7838(6) 0.3025(5)
H34 H 0.2907 0.7690 0.2823
H35 H 0.2771 0.7688 0.3222
H36 H 0.2651 0.7996 0.2960
N4 N 0.3159(3) 0.8053(3) 0.3134(3)
Gd5 Gd 0.30957(2) 0.81337(3) 0.0000
Gd6 Gd 0.5000 0.80957(2) 0.31337(3)
Gd8 Gd 0.255772(18) 0.756160(18) 0.088630(12)
O24 O 0.3828(3) 0.7011(3) 0.2574(3)
O25 O 0.4391(4) 0.7017(4) 0.2448(4)
O26 O 0.3834(2) 0.7592(3) 0.2004(3)
O27 O 0.4401(3) 0.7664(4) 0.2003(4)
O28 O 0.2387(3) 0.9121(3) 0.3186(3)
O30 O 0.2230(5) 0.9621(4) 0.3424(5)
O31 O 0.1814(3) 0.9131(3) 0.2542(3)
O32 O 0.4131(3) 0.7542(3) 0.3186(3)
O33 O 0.1650(4) 0.9423(4) 0.2995(4)
O35 O 0.4719(2) 0.7679(3) 0.2689(3)
Gd5_2 Gd 0.30957(2) 0.81337(3) 1.0000
Gd1_3 Gd 0.81337(3) 0.0000 0.30957(2)
Gd2_2 Gd 0.756160(18) 0.088630(12) 0.255772(18)
O1_2 O 0.7574(3) 0.1172(3) 0.2011(3)
O2_2 O 0.7448(4) 0.0609(4) 0.2017(4)
O3_2 O 0.7004(3) 0.1166(2) 0.2592(3)
O4_2 O 0.7003(4) 0.0599(3) 0.2664(4)
O5_2 O 0.5879(3) 0.1814(3) 0.2613(3)
O6_2 O 0.5379(4) 0.1576(5) 0.2770(5)
O7_2 O 0.7458(3) 0.1814(3) 0.0869(3)
O8_2 O 0.7005(4) 0.1650(4) 0.0577(4)
O9_3 O 0.8753(6) 0.0000 0.3372(7)
O10_3 O 0.8414(6) 0.0000 0.3709(6)
O11_2 O 0.7755(3) 0.1474(2) 0.2702(2)
C1_2 C 0.7476(6) 0.0888(4) 0.1831(4)
C2_2 C 0.7385(5) 0.0906(3) 0.1444(4)
C3_2 C 0.7192(5) 0.0609(4) 0.1336(4)
H1_2 H 0.7164 0.0408 0.1483
C4_2 C 0.7044(6) 0.0625(4) 0.0998(5)
C5_2 C 0.7069(6) 0.0940(3) 0.0809(4)
H2_2 H 0.6946 0.0954 0.0591
C6_2 C 0.7259(5) 0.1238(4) 0.0916(4)
C7_2 C 0.7409(5) 0.1217(4) 0.1251(4)
H3_2 H 0.7529 0.1415 0.1347
C8_2 C 0.6852(5) 0.0306(4) 0.0858(5)
C9_2 C 0.6544(5) 0.0316(4) 0.0658(5)
H4_2 H 0.6416 0.0528 0.0626
C10_3 C 0.6433(9) 0.0000 0.0506(7)
H5_3 H 0.6284 0.0000 0.0305
C11_2 C 0.6847(4) 0.0883(4) 0.2672(5)
C12_2 C 0.6460(5) 0.0921(4) 0.2727(6)
C13_2 C 0.6267(4) 0.1229(4) 0.2681(7)
H6_2 H 0.6377 0.1429 0.2578
C14_2 C 0.5915(5) 0.1249(5) 0.2782(8)
C15_2 C 0.5765(6) 0.0951(5) 0.2935(6)
H7_2 H 0.5525 0.0960 0.3008
C16_2 C 0.5951(5) 0.0639(4) 0.2987(4)
C17_2 C 0.6311(5) 0.0624(5) 0.2920(5)
H8_2 H 0.6447 0.0397 0.2964
C18_2 C 0.5790(6) 0.0292(5) 0.3117(9)
C19_2 C 0.5451(7) 0.0301(6) 0.3255(10)
H9_2 H 0.5302 0.0499 0.3226
C20_3 C 0.5308(12) 0.0000 0.3409(13)
H10_3 H 0.5119 0.0000 0.3573
C21_2 C 0.5694(5) 0.1575(4) 0.2718(3)
C22_2 C 0.7243(3) 0.1595(4) 0.0779(3)
C23_2 C 0.7985(4) 0.1537(4) 0.2944(4)
H11_2 H 0.8056 0.1310 0.3021
C24_2 C 0.8419(5) 0.1865(5) 0.3310(4)
H12_2 H 0.8439 0.1642 0.3438
H13_2 H 0.8369 0.2056 0.3477
H14_2 H 0.8641 0.1914 0.3188
C25_2 C 0.8025(5) 0.2155(4) 0.2838(6)
H15_2 H 0.7823 0.2093 0.2690
H16_2 H 0.8222 0.2229 0.2688
H17_2 H 0.7960 0.2349 0.2996
C26_3 C 0.7579(6) 0.0000 0.2550(6)
H18_3 H 0.7413 0.0000 0.2362
N1_3 N 0.6999(8) 0.0000 0.0970(9)
N2_3 N 0.5988(7) 0.0000 0.3103(7)
O12_2 O 0.7689(3) 0.0281(2) 0.2679(3)
O13_3 O 0.8434(6) 0.0000 0.2563(7)
N3_2 N 0.8134(3) 0.1841(3) 0.3053(3)
C27_3 C 0.8731(12) 0.0000 0.3711(12)
H20_3 H 0.8902 0.0000 0.3894
H29_2 H 0.8378 0.0183 0.2446
Gd3_2 Gd 0.588630(12) 0.244228(18) 0.256160(18)
O23_2 O 0.6474(2) 0.2298(2) 0.2755(3)
C48_2 C 0.6537(4) 0.2056(4) 0.2985(4)
H30_2 H 0.6310 0.1979 0.3056
C49_2 C 0.6865(5) 0.1690(4) 0.3419(5)
H31_2 H 0.6642 0.1562 0.3439
H32_2 H 0.7056 0.1523 0.3369
H33_2 H 0.6914 0.1812 0.3641
C50_2 C 0.7155(4) 0.2162(6) 0.3025(5)
H34_2 H 0.7093 0.2310 0.2823
H35_2 H 0.7229 0.2312 0.3222
H36_2 H 0.7349 0.2004 0.2960
N4_2 N 0.6841(3) 0.1947(3) 0.3134(3)
Gd5_3 Gd 0.69043(2) 0.18663(3) 0.0000
Gd8_2 Gd 0.744228(18) 0.243840(18) 0.088630(12)
O24_2 O 0.6172(3) 0.2989(3) 0.2574(3)
O25_2 O 0.5609(4) 0.2983(4) 0.2448(4)
O26_2 O 0.6166(2) 0.2408(3) 0.2004(3)
O27_2 O 0.5599(3) 0.2336(4) 0.2003(4)
O28_2 O 0.7613(3) 0.0879(3) 0.3186(3)
O30_2 O 0.7770(5) 0.0379(4) 0.3424(5)
O31_2 O 0.8186(3) 0.0869(3) 0.2542(3)
O32_2 O 0.5869(3) 0.2458(3) 0.3186(3)
O33_2 O 0.8350(4) 0.0577(4) 0.2995(4)
O35_2 O 0.5281(2) 0.2321(3) 0.2689(3)
Gd5_4 Gd 0.69043(2) 0.18663(3) 1.0000
Gd1_4 Gd 0.81337(3) 1.0000 0.30957(2)
O9_4 O 0.8753(6) 1.0000 0.3372(7)
O10_4 O 0.8414(6) 1.0000 0.3709(6)
C10_4 C 0.6433(9) 1.0000 0.0506(7)
H5_4 H 0.6284 1.0000 0.0305
C20_4 C 0.5308(12) 1.0000 0.3409(13)
H10_4 H 0.5119 1.0000 0.3573
C26_4 C 0.7579(6) 1.0000 0.2550(6)
H18_4 H 0.7413 1.0000 0.2362
N1_4 N 0.6999(8) 1.0000 0.0970(9)
N2_4 N 0.5988(7) 1.0000 0.3103(7)
O13_4 O 0.8434(6) 1.0000 0.2563(7)
H19_2 H 0.8378 0.9817 0.2446
C27_4 C 0.8731(12) 1.0000 0.3711(12)
H20_4 H 0.8902 1.0000 0.3894
O14_2 O 0.7574(3) 0.8828(3) 0.2011(3)
O15_2 O 0.7448(4) 0.9391(4) 0.2017(4)
O16_2 O 0.7458(3) 0.8186(3) 0.0869(3)
O17_2 O 0.7005(4) 0.8350(4) 0.0577(4)
C28_2 C 0.7476(6) 0.9112(4) 0.1831(4)
C29_2 C 0.7385(5) 0.9094(3) 0.1444(4)
C30_2 C 0.7192(5) 0.9391(4) 0.1336(4)
H21_2 H 0.7164 0.9592 0.1483
C31_2 C 0.7044(6) 0.9375(4) 0.0998(5)
C32_2 C 0.7069(6) 0.9060(3) 0.0809(4)
H22_2 H 0.6946 0.9046 0.0591
C33_2 C 0.7259(5) 0.8762(4) 0.0916(4)
C34_2 C 0.7409(5) 0.8783(4) 0.1251(4)
H23_2 H 0.7529 0.8585 0.1347
C35_2 C 0.6852(5) 0.9694(4) 0.0858(5)
C36_2 C 0.6544(5) 0.9684(4) 0.0658(5)
H24_2 H 0.6416 0.9472 0.0626
C37_2 C 0.7243(3) 0.8405(4) 0.0779(3)
O18_2 O 0.7004(3) 0.8834(2) 0.2592(3)
O19_2 O 0.7003(4) 0.9401(3) 0.2664(4)
O20_2 O 0.5879(3) 0.8186(3) 0.2613(3)
O21_2 O 0.5379(4) 0.8424(5) 0.2770(5)
C38_2 C 0.6847(4) 0.9117(4) 0.2672(5)
C39_2 C 0.6460(5) 0.9079(4) 0.2727(6)
C40_2 C 0.6267(4) 0.8771(4) 0.2681(7)
H25_2 H 0.6377 0.8571 0.2578
C41_2 C 0.5915(5) 0.8751(5) 0.2782(8)
C42_2 C 0.5765(6) 0.9049(5) 0.2935(6)
H26_2 H 0.5525 0.9040 0.3008
C43_2 C 0.5951(5) 0.9361(4) 0.2987(4)
C44_2 C 0.6311(5) 0.9376(5) 0.2920(5)
H27_2 H 0.6447 0.9603 0.2964
C45_2 C 0.5790(6) 0.9708(5) 0.3117(9)
C46_2 C 0.5451(7) 0.9699(6) 0.3255(10)
H28_2 H 0.5302 0.9501 0.3226
C47_2 C 0.5694(5) 0.8425(4) 0.2718(3)
O22_2 O 0.7689(3) 0.9719(2) 0.2679(3)
Gd4_3 Gd 0.69043(2) 0.81337(3) 0.0000
Gd9_2 Gd 0.588630(12) 0.755772(18) 0.256160(18)
Gd10_2 Gd 0.756160(18) 0.911370(12) 0.255772(18)
Gd11_2 Gd 0.744228(18) 0.756160(18) 0.088630(12)
O29_2 O 0.7770(5) 0.9621(4) 0.3424(5)
O34_2 O 0.8350(4) 0.9423(4) 0.2995(4)
Gd4_4 Gd 0.69043(2) 0.81337(3) 1.0000
Gd1_5 Gd 0.81337(3) 0.0000 0.69043(2)
O9_5 O 0.8753(6) 0.0000 0.6628(7)
O10_5 O 0.8414(6) 0.0000 0.6291(6)
C10_5 C 0.6433(9) 0.0000 0.9494(7)
H5_5 H 0.6284 0.0000 0.9695
C20_5 C 0.5308(12) 0.0000 0.6591(13)
H10_5 H 0.5119 0.0000 0.6427
C26_5 C 0.7579(6) 0.0000 0.7450(6)
H18_5 H 0.7413 0.0000 0.7638
N1_5 N 0.6999(8) 0.0000 0.9030(9)
N2_5 N 0.5988(7) 0.0000 0.6897(7)
O13_5 O 0.8434(6) 0.0000 0.7437(7)
H19_3 H 0.8378 0.0183 0.7554
C27_5 C 0.8731(12) 0.0000 0.6289(12)
H20_5 H 0.8902 0.0000 0.6106
O14_3 O 0.7574(3) 0.1172(3) 0.7989(3)
O15_3 O 0.7448(4) 0.0609(4) 0.7983(4)
O16_3 O 0.7458(3) 0.1814(3) 0.9131(3)
O17_3 O 0.7005(4) 0.1650(4) 0.9423(4)
C28_3 C 0.7476(6) 0.0888(4) 0.8169(4)
C29_3 C 0.7385(5) 0.0906(3) 0.8556(4)
C30_3 C 0.7192(5) 0.0609(4) 0.8664(4)
H21_3 H 0.7164 0.0408 0.8517
C31_3 C 0.7044(6) 0.0625(4) 0.9002(5)
C32_3 C 0.7069(6) 0.0940(3) 0.9191(4)
H22_3 H 0.6946 0.0954 0.9409
C33_3 C 0.7259(5) 0.1238(4) 0.9084(4)
C34_3 C 0.7409(5) 0.1217(4) 0.8749(4)
H23_3 H 0.7529 0.1415 0.8653
C35_3 C 0.6852(5) 0.0306(4) 0.9142(5)
C36_3 C 0.6544(5) 0.0316(4) 0.9342(5)
H24_3 H 0.6416 0.0528 0.9374
C37_3 C 0.7243(3) 0.1595(4) 0.9221(3)
O18_3 O 0.7004(3) 0.1166(2) 0.7408(3)
O19_3 O 0.7003(4) 0.0599(3) 0.7336(4)
O20_3 O 0.5879(3) 0.1814(3) 0.7387(3)
O21_3 O 0.5379(4) 0.1576(5) 0.7230(5)
C38_3 C 0.6847(4) 0.0883(4) 0.7328(5)
C39_3 C 0.6460(5) 0.0921(4) 0.7273(6)
C40_3 C 0.6267(4) 0.1229(4) 0.7319(7)
H25_3 H 0.6377 0.1429 0.7422
C41_3 C 0.5915(5) 0.1249(5) 0.7218(8)
C42_3 C 0.5765(6) 0.0951(5) 0.7065(6)
H26_3 H 0.5525 0.0960 0.6992
C43_3 C 0.5951(5) 0.0639(4) 0.7013(4)
C44_3 C 0.6311(5) 0.0624(5) 0.7080(5)
H27_3 H 0.6447 0.0397 0.7036
C45_3 C 0.5790(6) 0.0292(5) 0.6883(9)
C46_3 C 0.5451(7) 0.0301(6) 0.6745(10)
H28_3 H 0.5302 0.0499 0.6774
C47_3 C 0.5694(5) 0.1575(4) 0.7282(3)
O22_3 O 0.7689(3) 0.0281(2) 0.7321(3)
Gd7_2 Gd 0.5000 0.19043(2) 0.68663(3)
Gd9_3 Gd 0.588630(12) 0.244228(18) 0.743840(18)
Gd10_3 Gd 0.756160(18) 0.088630(12) 0.744228(18)
Gd11_3 Gd 0.744228(18) 0.243840(18) 0.911370(12)
O29_3 O 0.7770(5) 0.0379(4) 0.6576(5)
O34_3 O 0.8350(4) 0.0577(4) 0.7005(4)
Gd1_6 Gd 0.81337(3) 1.0000 0.69043(2)
Gd2_3 Gd 0.756160(18) 0.911370(12) 0.744228(18)
O1_3 O 0.7574(3) 0.8828(3) 0.7989(3)
O2_3 O 0.7448(4) 0.9391(4) 0.7983(4)
O3_3 O 0.7004(3) 0.8834(2) 0.7408(3)
O4_3 O 0.7003(4) 0.9401(3) 0.7336(4)
O5_3 O 0.5879(3) 0.8186(3) 0.7387(3)
O6_3 O 0.5379(4) 0.8424(5) 0.7230(5)
O7_3 O 0.7458(3) 0.8186(3) 0.9131(3)
O8_3 O 0.7005(4) 0.8350(4) 0.9423(4)
O9_6 O 0.8753(6) 1.0000 0.6628(7)
O10_6 O 0.8414(6) 1.0000 0.6291(6)
O11_3 O 0.7755(3) 0.8526(2) 0.7298(2)
C1_3 C 0.7476(6) 0.9112(4) 0.8169(4)
C2_3 C 0.7385(5) 0.9094(3) 0.8556(4)
C3_3 C 0.7192(5) 0.9391(4) 0.8664(4)
H1_3 H 0.7164 0.9592 0.8517
C4_3 C 0.7044(6) 0.9375(4) 0.9002(5)
C5_3 C 0.7069(6) 0.9060(3) 0.9191(4)
H2_3 H 0.6946 0.9046 0.9409
C6_3 C 0.7259(5) 0.8762(4) 0.9084(4)
C7_3 C 0.7409(5) 0.8783(4) 0.8749(4)
H3_3 H 0.7529 0.8585 0.8653
C8_3 C 0.6852(5) 0.9694(4) 0.9142(5)
C9_3 C 0.6544(5) 0.9684(4) 0.9342(5)
H4_3 H 0.6416 0.9472 0.9374
C10_6 C 0.6433(9) 1.0000 0.9494(7)
H5_6 H 0.6284 1.0000 0.9695
C11_3 C 0.6847(4) 0.9117(4) 0.7328(5)
C12_3 C 0.6460(5) 0.9079(4) 0.7273(6)
C13_3 C 0.6267(4) 0.8771(4) 0.7319(7)
H6_3 H 0.6377 0.8571 0.7422
C14_3 C 0.5915(5) 0.8751(5) 0.7218(8)
C15_3 C 0.5765(6) 0.9049(5) 0.7065(6)
H7_3 H 0.5525 0.9040 0.6992
C16_3 C 0.5951(5) 0.9361(4) 0.7013(4)
C17_3 C 0.6311(5) 0.9376(5) 0.7080(5)
H8_3 H 0.6447 0.9603 0.7036
C18_3 C 0.5790(6) 0.9708(5) 0.6883(9)
C19_3 C 0.5451(7) 0.9699(6) 0.6745(10)
H9_3 H 0.5302 0.9501 0.6774
C20_6 C 0.5308(12) 1.0000 0.6591(13)
H10_6 H 0.5119 1.0000 0.6427
C21_3 C 0.5694(5) 0.8425(4) 0.7282(3)
C22_3 C 0.7243(3) 0.8405(4) 0.9221(3)
C23_3 C 0.7985(4) 0.8463(4) 0.7056(4)
H11_3 H 0.8056 0.8690 0.6979
C24_3 C 0.8419(5) 0.8135(5) 0.6690(4)
H12_3 H 0.8439 0.8358 0.6562
H13_3 H 0.8369 0.7944 0.6523
H14_3 H 0.8641 0.8086 0.6812
C25_3 C 0.8025(5) 0.7845(4) 0.7162(6)
H15_3 H 0.7823 0.7907 0.7310
H16_3 H 0.8222 0.7771 0.7312
H17_3 H 0.7960 0.7651 0.7004
C26_6 C 0.7579(6) 1.0000 0.7450(6)
H18_6 H 0.7413 1.0000 0.7638
N1_6 N 0.6999(8) 1.0000 0.9030(9)
N2_6 N 0.5988(7) 1.0000 0.6897(7)
O12_3 O 0.7689(3) 0.9719(2) 0.7321(3)
O13_6 O 0.8434(6) 1.0000 0.7437(7)
N3_3 N 0.8134(3) 0.8159(3) 0.6947(3)
C27_6 C 0.8731(12) 1.0000 0.6289(12)
H20_6 H 0.8902 1.0000 0.6106
H29_3 H 0.8378 0.9817 0.7554
Gd3_3 Gd 0.588630(12) 0.755772(18) 0.743840(18)
O23_3 O 0.6474(2) 0.7702(2) 0.7245(3)
C48_3 C 0.6537(4) 0.7944(4) 0.7015(4)
H30_3 H 0.6310 0.8021 0.6944
C49_3 C 0.6865(5) 0.8310(4) 0.6581(5)
H31_3 H 0.6642 0.8438 0.6561
H32_3 H 0.7056 0.8477 0.6631
H33_3 H 0.6914 0.8188 0.6359
C50_3 C 0.7155(4) 0.7838(6) 0.6975(5)
H34_3 H 0.7093 0.7690 0.7177
H35_3 H 0.7229 0.7688 0.6778
H36_3 H 0.7349 0.7996 0.7040
N4_3 N 0.6841(3) 0.8053(3) 0.6866(3)
Gd6_2 Gd 0.5000 0.80957(2) 0.68663(3)
Gd8_3 Gd 0.744228(18) 0.756160(18) 0.911370(12)
O24_3 O 0.6172(3) 0.7011(3) 0.7426(3)
O25_3 O 0.5609(4) 0.7017(4) 0.7552(4)
O26_3 O 0.6166(2) 0.7592(3) 0.7996(3)
O27_3 O 0.5599(3) 0.7664(4) 0.7997(4)
O28_3 O 0.7613(3) 0.9121(3) 0.6814(3)
O30_3 O 0.7770(5) 0.9621(4) 0.6576(5)
O31_3 O 0.8186(3) 0.9131(3) 0.7458(3)
O32_3 O 0.5869(3) 0.7542(3) 0.6814(3)
O33_3 O 0.8350(4) 0.9423(4) 0.7005(4)
O35_3 O 0.5281(2) 0.7679(3) 0.7311(3)
Gd1_7 Gd 0.18663(3) 0.0000 0.69043(2)
Gd2_4 Gd 0.243840(18) 0.088630(12) 0.744228(18)
O1_4 O 0.2426(3) 0.1172(3) 0.7989(3)
O2_4 O 0.2552(4) 0.0609(4) 0.7983(4)
O3_4 O 0.2996(3) 0.1166(2) 0.7408(3)
O4_4 O 0.2997(4) 0.0599(3) 0.7336(4)
O5_4 O 0.4121(3) 0.1814(3) 0.7387(3)
O6_4 O 0.4621(4) 0.1576(5) 0.7230(5)
O7_4 O 0.2542(3) 0.1814(3) 0.9131(3)
O8_4 O 0.2995(4) 0.1650(4) 0.9423(4)
O9_7 O 0.1247(6) 0.0000 0.6628(7)
O10_7 O 0.1586(6) 0.0000 0.6291(6)
O11_4 O 0.2245(3) 0.1474(2) 0.7298(2)
C1_4 C 0.2524(6) 0.0888(4) 0.8169(4)
C2_4 C 0.2615(5) 0.0906(3) 0.8556(4)
C3_4 C 0.2808(5) 0.0609(4) 0.8664(4)
H1_4 H 0.2836 0.0408 0.8517
C4_4 C 0.2956(6) 0.0625(4) 0.9002(5)
C5_4 C 0.2931(6) 0.0940(3) 0.9191(4)
H2_4 H 0.3054 0.0954 0.9409
C6_4 C 0.2741(5) 0.1238(4) 0.9084(4)
C7_4 C 0.2591(5) 0.1217(4) 0.8749(4)
H3_4 H 0.2471 0.1415 0.8653
C8_4 C 0.3148(5) 0.0306(4) 0.9142(5)
C9_4 C 0.3456(5) 0.0316(4) 0.9342(5)
H4_4 H 0.3584 0.0528 0.9374
C10_7 C 0.3567(9) 0.0000 0.9494(7)
H5_7 H 0.3716 0.0000 0.9695
C11_4 C 0.3153(4) 0.0883(4) 0.7328(5)
C12_4 C 0.3540(5) 0.0921(4) 0.7273(6)
C13_4 C 0.3733(4) 0.1229(4) 0.7319(7)
H6_4 H 0.3623 0.1429 0.7422
C14_4 C 0.4085(5) 0.1249(5) 0.7218(8)
C15_4 C 0.4235(6) 0.0951(5) 0.7065(6)
H7_4 H 0.4475 0.0960 0.6992
C16_4 C 0.4049(5) 0.0639(4) 0.7013(4)
C17_4 C 0.3689(5) 0.0624(5) 0.7080(5)
H8_4 H 0.3553 0.0397 0.7036
C18_4 C 0.4210(6) 0.0292(5) 0.6883(9)
C19_4 C 0.4549(7) 0.0301(6) 0.6745(10)
H9_4 H 0.4698 0.0499 0.6774
C20_7 C 0.4692(12) 0.0000 0.6591(13)
H10_7 H 0.4881 0.0000 0.6427
C21_4 C 0.4306(5) 0.1575(4) 0.7282(3)
C22_4 C 0.2757(3) 0.1595(4) 0.9221(3)
C23_4 C 0.2015(4) 0.1537(4) 0.7056(4)
H11_4 H 0.1944 0.1310 0.6979
C24_4 C 0.1581(5) 0.1865(5) 0.6690(4)
H12_4 H 0.1561 0.1642 0.6562
H13_4 H 0.1631 0.2056 0.6523
H14_4 H 0.1359 0.1914 0.6812
C25_4 C 0.1975(5) 0.2155(4) 0.7162(6)
H15_4 H 0.2177 0.2093 0.7310
H16_4 H 0.1778 0.2229 0.7312
H17_4 H 0.2040 0.2349 0.7004
C26_7 C 0.2421(6) 0.0000 0.7450(6)
H18_7 H 0.2587 0.0000 0.7638
N1_7 N 0.3001(8) 0.0000 0.9030(9)
N2_7 N 0.4012(7) 0.0000 0.6897(7)
O12_4 O 0.2311(3) 0.0281(2) 0.7321(3)
O13_7 O 0.1566(6) 0.0000 0.7437(7)
N3_4 N 0.1866(3) 0.1841(3) 0.6947(3)
C27_7 C 0.1269(12) 0.0000 0.6289(12)
H20_7 H 0.1098 0.0000 0.6106
H29_4 H 0.1622 0.0183 0.7554
Gd3_4 Gd 0.411370(12) 0.244228(18) 0.743840(18)
O23_4 O 0.3526(2) 0.2298(2) 0.7245(3)
C48_4 C 0.3463(4) 0.2056(4) 0.7015(4)
H30_4 H 0.3690 0.1979 0.6944
C49_4 C 0.3135(5) 0.1690(4) 0.6581(5)
H31_4 H 0.3358 0.1562 0.6561
H32_4 H 0.2944 0.1523 0.6631
H33_4 H 0.3086 0.1812 0.6359
C50_4 C 0.2845(4) 0.2162(6) 0.6975(5)
H34_4 H 0.2907 0.2310 0.7177
H35_4 H 0.2771 0.2312 0.6778
H36_4 H 0.2651 0.2004 0.7040
N4_4 N 0.3159(3) 0.1947(3) 0.6866(3)
Gd8_4 Gd 0.255772(18) 0.243840(18) 0.911370(12)
O24_4 O 0.3828(3) 0.2989(3) 0.7426(3)
O25_4 O 0.4391(4) 0.2983(4) 0.7552(4)
O26_4 O 0.3834(2) 0.2408(3) 0.7996(3)
O27_4 O 0.4401(3) 0.2336(4) 0.7997(4)
O28_4 O 0.2387(3) 0.0879(3) 0.6814(3)
O30_4 O 0.2230(5) 0.0379(4) 0.6576(5)
O31_4 O 0.1814(3) 0.0869(3) 0.7458(3)
O32_4 O 0.4131(3) 0.2458(3) 0.6814(3)
O33_4 O 0.1650(4) 0.0577(4) 0.7005(4)
O35_4 O 0.4719(2) 0.2321(3) 0.7311(3)
Gd1_8 Gd 0.18663(3) 1.0000 0.69043(2)
O9_8 O 0.1247(6) 1.0000 0.6628(7)
O10_8 O 0.1586(6) 1.0000 0.6291(6)
C10_8 C 0.3567(9) 1.0000 0.9494(7)
H5_8 H 0.3716 1.0000 0.9695
C20_8 C 0.4692(12) 1.0000 0.6591(13)
H10_8 H 0.4881 1.0000 0.6427
C26_8 C 0.2421(6) 1.0000 0.7450(6)
H18_8 H 0.2587 1.0000 0.7638
N1_8 N 0.3001(8) 1.0000 0.9030(9)
N2_8 N 0.4012(7) 1.0000 0.6897(7)
O13_8 O 0.1566(6) 1.0000 0.7437(7)
H19_4 H 0.1622 0.9817 0.7554
C27_8 C 0.1269(12) 1.0000 0.6289(12)
H20_8 H 0.1098 1.0000 0.6106
O14_4 O 0.2426(3) 0.8828(3) 0.7989(3)
O15_4 O 0.2552(4) 0.9391(4) 0.7983(4)
O16_4 O 0.2542(3) 0.8186(3) 0.9131(3)
O17_4 O 0.2995(4) 0.8350(4) 0.9423(4)
C28_4 C 0.2524(6) 0.9112(4) 0.8169(4)
C29_4 C 0.2615(5) 0.9094(3) 0.8556(4)
C30_4 C 0.2808(5) 0.9391(4) 0.8664(4)
H21_4 H 0.2836 0.9592 0.8517
C31_4 C 0.2956(6) 0.9375(4) 0.9002(5)
C32_4 C 0.2931(6) 0.9060(3) 0.9191(4)
H22_4 H 0.3054 0.9046 0.9409
C33_4 C 0.2741(5) 0.8762(4) 0.9084(4)
C34_4 C 0.2591(5) 0.8783(4) 0.8749(4)
H23_4 H 0.2471 0.8585 0.8653
C35_4 C 0.3148(5) 0.9694(4) 0.9142(5)
C36_4 C 0.3456(5) 0.9684(4) 0.9342(5)
H24_4 H 0.3584 0.9472 0.9374
C37_4 C 0.2757(3) 0.8405(4) 0.9221(3)
O18_4 O 0.2996(3) 0.8834(2) 0.7408(3)
O19_4 O 0.2997(4) 0.9401(3) 0.7336(4)
O20_4 O 0.4121(3) 0.8186(3) 0.7387(3)
O21_4 O 0.4621(4) 0.8424(5) 0.7230(5)
C38_4 C 0.3153(4) 0.9117(4) 0.7328(5)
C39_4 C 0.3540(5) 0.9079(4) 0.7273(6)
C40_4 C 0.3733(4) 0.8771(4) 0.7319(7)
H25_4 H 0.3623 0.8571 0.7422
C41_4 C 0.4085(5) 0.8751(5) 0.7218(8)
C42_4 C 0.4235(6) 0.9049(5) 0.7065(6)
H26_4 H 0.4475 0.9040 0.6992
C43_4 C 0.4049(5) 0.9361(4) 0.7013(4)
C44_4 C 0.3689(5) 0.9376(5) 0.7080(5)
H27_4 H 0.3553 0.9603 0.7036
C45_4 C 0.4210(6) 0.9708(5) 0.6883(9)
C46_4 C 0.4549(7) 0.9699(6) 0.6745(10)
H28_4 H 0.4698 0.9501 0.6774
C47_4 C 0.4306(5) 0.8425(4) 0.7282(3)
O22_4 O 0.2311(3) 0.9719(2) 0.7321(3)
Gd9_4 Gd 0.411370(12) 0.755772(18) 0.743840(18)
Gd10_4 Gd 0.243840(18) 0.911370(12) 0.744228(18)
Gd11_4 Gd 0.255772(18) 0.756160(18) 0.911370(12)
O29_4 O 0.2230(5) 0.9621(4) 0.6576(5)
O34_4 O 0.1650(4) 0.9423(4) 0.7005(4)
O9_9 O 0.3372(7) 0.1247(6) 0.0000
O10_9 O 0.3709(6) 0.1586(6) 0.0000
C10_9 C 0.0506(7) 0.3567(9) 0.0000
H5_9 H 0.0305 0.3716 0.0000
C20_9 C 0.3409(13) 0.4692(12) 0.0000
H10_9 H 0.3573 0.4881 0.0000
C26_9 C 0.2550(6) 0.2421(6) 0.0000
H18_9 H 0.2362 0.2587 0.0000
N1_9 N 0.0970(9) 0.3001(8) 0.0000
N2_9 N 0.3103(7) 0.4012(7) 0.0000
O13_9 O 0.2563(7) 0.1566(6) 0.0000
H19_5 H 0.2446 0.1622 0.0183
C27_9 C 0.3711(12) 0.1269(12) 0.0000
H20_9 H 0.3894 0.1098 0.0000
O14_5 O 0.2011(3) 0.2426(3) 0.1172(3)
O15_5 O 0.2017(4) 0.2552(4) 0.0609(4)
O16_5 O 0.0869(3) 0.2542(3) 0.1814(3)
O17_5 O 0.0577(4) 0.2995(4) 0.1650(4)
C28_5 C 0.1831(4) 0.2524(6) 0.0888(4)
C29_5 C 0.1444(4) 0.2615(5) 0.0906(3)
C30_5 C 0.1336(4) 0.2808(5) 0.0609(4)
H21_5 H 0.1483 0.2836 0.0408
C31_5 C 0.0998(5) 0.2956(6) 0.0625(4)
C32_5 C 0.0809(4) 0.2931(6) 0.0940(3)
H22_5 H 0.0591 0.3054 0.0954
C33_5 C 0.0916(4) 0.2741(5) 0.1238(4)
C34_5 C 0.1251(4) 0.2591(5) 0.1217(4)
H23_5 H 0.1347 0.2471 0.1415
C35_5 C 0.0858(5) 0.3148(5) 0.0306(4)
C36_5 C 0.0658(5) 0.3456(5) 0.0316(4)
H24_5 H 0.0626 0.3584 0.0528
C37_5 C 0.0779(3) 0.2757(3) 0.1595(4)
O18_5 O 0.2592(3) 0.2996(3) 0.1166(2)
O19_5 O 0.2664(4) 0.2997(4) 0.0599(3)
O20_5 O 0.2613(3) 0.4121(3) 0.1814(3)
O21_5 O 0.2770(5) 0.4621(4) 0.1576(5)
C38_5 C 0.2672(5) 0.3153(4) 0.0883(4)
C39_5 C 0.2727(6) 0.3540(5) 0.0921(4)
C40_5 C 0.2681(7) 0.3733(4) 0.1229(4)
H25_5 H 0.2578 0.3623 0.1429
C41_5 C 0.2782(8) 0.4085(5) 0.1249(5)
C42_5 C 0.2935(6) 0.4235(6) 0.0951(5)
H26_5 H 0.3008 0.4475 0.0960
C43_5 C 0.2987(4) 0.4049(5) 0.0639(4)
C44_5 C 0.2920(5) 0.3689(5) 0.0624(5)
H27_5 H 0.2964 0.3553 0.0397
C45_5 C 0.3117(9) 0.4210(6) 0.0292(5)
C46_5 C 0.3255(10) 0.4549(7) 0.0301(6)
H28_5 H 0.3226 0.4698 0.0499
C47_5 C 0.2718(3) 0.4306(5) 0.1575(4)
O22_5 O 0.2679(3) 0.2311(3) 0.0281(2)
Gd4_5 Gd 0.0000 0.30957(2) 0.18663(3)
Gd7_3 Gd 0.31337(3) 0.5000 0.19043(2)
Gd9_5 Gd 0.256160(18) 0.411370(12) 0.244228(18)
Gd11_5 Gd 0.088630(12) 0.255772(18) 0.243840(18)
O29_5 O 0.3424(5) 0.2230(5) 0.0379(4)
O1_5 O 0.2011(3) 0.2426(3) 0.8828(3)
O2_5 O 0.2017(4) 0.2552(4) 0.9391(4)
O3_5 O 0.2592(3) 0.2996(3) 0.8834(2)
O4_5 O 0.2664(4) 0.2997(4) 0.9401(3)
O5_5 O 0.2613(3) 0.4121(3) 0.8186(3)
O6_5 O 0.2770(5) 0.4621(4) 0.8424(5)
O7_5 O 0.0869(3) 0.2542(3) 0.8186(3)
O8_5 O 0.0577(4) 0.2995(4) 0.8350(4)
O9_10 O 0.3372(7) 0.1247(6) 1.0000
O10_10 O 0.3709(6) 0.1586(6) 1.0000
O11_5 O 0.2702(2) 0.2245(3) 0.8526(2)
C1_5 C 0.1831(4) 0.2524(6) 0.9112(4)
C2_5 C 0.1444(4) 0.2615(5) 0.9094(3)
C3_5 C 0.1336(4) 0.2808(5) 0.9391(4)
H1_5 H 0.1483 0.2836 0.9592
C4_5 C 0.0998(5) 0.2956(6) 0.9375(4)
C5_5 C 0.0809(4) 0.2931(6) 0.9060(3)
H2_5 H 0.0591 0.3054 0.9046
C6_5 C 0.0916(4) 0.2741(5) 0.8762(4)
C7_5 C 0.1251(4) 0.2591(5) 0.8783(4)
H3_5 H 0.1347 0.2471 0.8585
C8_5 C 0.0858(5) 0.3148(5) 0.9694(4)
C9_5 C 0.0658(5) 0.3456(5) 0.9684(4)
H4_5 H 0.0626 0.3584 0.9472
C10_10 C 0.0506(7) 0.3567(9) 1.0000
H5_10 H 0.0305 0.3716 1.0000
C11_5 C 0.2672(5) 0.3153(4) 0.9117(4)
C12_5 C 0.2727(6) 0.3540(5) 0.9079(4)
C13_5 C 0.2681(7) 0.3733(4) 0.8771(4)
H6_5 H 0.2578 0.3623 0.8571
C14_5 C 0.2782(8) 0.4085(5) 0.8751(5)
C15_5 C 0.2935(6) 0.4235(6) 0.9049(5)
H7_5 H 0.3008 0.4475 0.9040
C16_5 C 0.2987(4) 0.4049(5) 0.9361(4)
C17_5 C 0.2920(5) 0.3689(5) 0.9376(5)
H8_5 H 0.2964 0.3553 0.9603
C18_5 C 0.3117(9) 0.4210(6) 0.9708(5)
C19_5 C 0.3255(10) 0.4549(7) 0.9699(6)
H9_5 H 0.3226 0.4698 0.9501
C20_10 C 0.3409(13) 0.4692(12) 1.0000
H10_10 H 0.3573 0.4881 1.0000
C21_5 C 0.2718(3) 0.4306(5) 0.8425(4)
C22_5 C 0.0779(3) 0.2757(3) 0.8405(4)
C23_5 C 0.2944(4) 0.2015(4) 0.8463(4)
H11_5 H 0.3021 0.1944 0.8690
C24_5 C 0.3310(4) 0.1581(5) 0.8135(5)
H12_5 H 0.3438 0.1561 0.8358
H13_5 H 0.3477 0.1631 0.7944
H14_5 H 0.3188 0.1359 0.8086
C25_5 C 0.2838(6) 0.1975(5) 0.7845(4)
H15_5 H 0.2690 0.2177 0.7907
H16_5 H 0.2688 0.1778 0.7771
H17_5 H 0.2996 0.2040 0.7651
C26_10 C 0.2550(6) 0.2421(6) 1.0000
H18_10 H 0.2362 0.2587 1.0000
N1_10 N 0.0970(9) 0.3001(8) 1.0000
N2_10 N 0.3103(7) 0.4012(7) 1.0000
O12_5 O 0.2679(3) 0.2311(3) 0.9719(2)
O13_10 O 0.2563(7) 0.1566(6) 1.0000
N3_5 N 0.3053(3) 0.1866(3) 0.8159(3)
C27_10 C 0.3711(12) 0.1269(12) 1.0000
H20_10 H 0.3894 0.1098 1.0000
H29_5 H 0.2446 0.1622 0.9817
Gd3_5 Gd 0.256160(18) 0.411370(12) 0.755772(18)
O23_5 O 0.2755(3) 0.3526(2) 0.7702(2)
C48_5 C 0.2985(4) 0.3463(4) 0.7944(4)
H30_5 H 0.3056 0.3690 0.8021
C49_5 C 0.3419(5) 0.3135(5) 0.8310(4)
H31_5 H 0.3439 0.3358 0.8438
H32_5 H 0.3369 0.2944 0.8477
H33_5 H 0.3641 0.3086 0.8188
C50_5 C 0.3025(5) 0.2845(4) 0.7838(6)
H34_5 H 0.2823 0.2907 0.7690
H35_5 H 0.3222 0.2771 0.7688
H36_5 H 0.2960 0.2651 0.7996
N4_5 N 0.3134(3) 0.3159(3) 0.8053(3)
Gd5_5 Gd 0.0000 0.30957(2) 0.81337(3)
Gd6_3 Gd 0.31337(3) 0.5000 0.80957(2)
Gd8_5 Gd 0.088630(12) 0.255772(18) 0.756160(18)
O24_5 O 0.2574(3) 0.3828(3) 0.7011(3)
O25_5 O 0.2448(4) 0.4391(4) 0.7017(4)
O26_5 O 0.2004(3) 0.3834(2) 0.7592(3)
O27_5 O 0.2003(4) 0.4401(3) 0.7664(4)
O28_5 O 0.3186(3) 0.2387(3) 0.9121(3)
O30_5 O 0.3424(5) 0.2230(5) 0.9621(4)
O32_5 O 0.3186(3) 0.4131(3) 0.7542(3)
O35_5 O 0.2689(3) 0.4719(2) 0.7679(3)
Gd4_6 Gd 1.0000 0.30957(2) 0.18663(3)
Gd5_6 Gd 1.0000 0.30957(2) 0.81337(3)
O1_6 O 0.2011(3) 0.7574(3) 0.1172(3)
O2_6 O 0.2017(4) 0.7448(4) 0.0609(4)
O3_6 O 0.2592(3) 0.7004(3) 0.1166(2)
O4_6 O 0.2664(4) 0.7003(4) 0.0599(3)
O5_6 O 0.2613(3) 0.5879(3) 0.1814(3)
O6_6 O 0.2770(5) 0.5379(4) 0.1576(5)
O7_6 O 0.0869(3) 0.7458(3) 0.1814(3)
O8_6 O 0.0577(4) 0.7005(4) 0.1650(4)
O9_11 O 0.3372(7) 0.8753(6) 0.0000
O10_11 O 0.3709(6) 0.8414(6) 0.0000
O11_6 O 0.2702(2) 0.7755(3) 0.1474(2)
C1_6 C 0.1831(4) 0.7476(6) 0.0888(4)
C2_6 C 0.1444(4) 0.7385(5) 0.0906(3)
C3_6 C 0.1336(4) 0.7192(5) 0.0609(4)
H1_6 H 0.1483 0.7164 0.0408
C4_6 C 0.0998(5) 0.7044(6) 0.0625(4)
C5_6 C 0.0809(4) 0.7069(6) 0.0940(3)
H2_6 H 0.0591 0.6946 0.0954
C6_6 C 0.0916(4) 0.7259(5) 0.1238(4)
C7_6 C 0.1251(4) 0.7409(5) 0.1217(4)
H3_6 H 0.1347 0.7529 0.1415
C8_6 C 0.0858(5) 0.6852(5) 0.0306(4)
C9_6 C 0.0658(5) 0.6544(5) 0.0316(4)
H4_6 H 0.0626 0.6416 0.0528
C10_11 C 0.0506(7) 0.6433(9) 0.0000
H5_11 H 0.0305 0.6284 0.0000
C11_6 C 0.2672(5) 0.6847(4) 0.0883(4)
C12_6 C 0.2727(6) 0.6460(5) 0.0921(4)
C13_6 C 0.2681(7) 0.6267(4) 0.1229(4)
H6_6 H 0.2578 0.6377 0.1429
C14_6 C 0.2782(8) 0.5915(5) 0.1249(5)
C15_6 C 0.2935(6) 0.5765(6) 0.0951(5)
H7_6 H 0.3008 0.5525 0.0960
C16_6 C 0.2987(4) 0.5951(5) 0.0639(4)
C17_6 C 0.2920(5) 0.6311(5) 0.0624(5)
H8_6 H 0.2964 0.6447 0.0397
C18_6 C 0.3117(9) 0.5790(6) 0.0292(5)
C19_6 C 0.3255(10) 0.5451(7) 0.0301(6)
H9_6 H 0.3226 0.5302 0.0499
C20_11 C 0.3409(13) 0.5308(12) 0.0000
H10_11 H 0.3573 0.5119 0.0000
C21_6 C 0.2718(3) 0.5694(5) 0.1575(4)
C22_6 C 0.0779(3) 0.7243(3) 0.1595(4)
C23_6 C 0.2944(4) 0.7985(4) 0.1537(4)
H11_6 H 0.3021 0.8056 0.1310
C24_6 C 0.3310(4) 0.8419(5) 0.1865(5)
H12_6 H 0.3438 0.8439 0.1642
H13_6 H 0.3477 0.8369 0.2056
H14_6 H 0.3188 0.8641 0.1914
C25_6 C 0.2838(6) 0.8025(5) 0.2155(4)
H15_6 H 0.2690 0.7823 0.2093
H16_6 H 0.2688 0.8222 0.2229
H17_6 H 0.2996 0.7960 0.2349
C26_11 C 0.2550(6) 0.7579(6) 0.0000
H18_11 H 0.2362 0.7413 0.0000
N1_11 N 0.0970(9) 0.6999(8) 0.0000
N2_11 N 0.3103(7) 0.5988(7) 0.0000
O12_6 O 0.2679(3) 0.7689(3) 0.0281(2)
O13_11 O 0.2563(7) 0.8434(6) 0.0000
N3_6 N 0.3053(3) 0.8134(3) 0.1841(3)
C27_11 C 0.3711(12) 0.8731(12) 0.0000
H20_11 H 0.3894 0.8902 0.0000
H29_6 H 0.2446 0.8378 0.0183
Gd3_6 Gd 0.256160(18) 0.588630(12) 0.244228(18)
O23_6 O 0.2755(3) 0.6474(2) 0.2298(2)
C48_6 C 0.2985(4) 0.6537(4) 0.2056(4)
H30_6 H 0.3056 0.6310 0.1979
C49_6 C 0.3419(5) 0.6865(5) 0.1690(4)
H31_6 H 0.3439 0.6642 0.1562
H32_6 H 0.3369 0.7056 0.1523
H33_6 H 0.3641 0.6914 0.1812
C50_6 C 0.3025(5) 0.7155(4) 0.2162(6)
H34_6 H 0.2823 0.7093 0.2310
H35_6 H 0.3222 0.7229 0.2312
H36_6 H 0.2960 0.7349 0.2004
N4_6 N 0.3134(3) 0.6841(3) 0.1947(3)
Gd5_7 Gd -0.0000 0.69043(2) 0.18663(3)
Gd8_6 Gd 0.088630(12) 0.744228(18) 0.243840(18)
O24_6 O 0.2574(3) 0.6172(3) 0.2989(3)
O25_6 O 0.2448(4) 0.5609(4) 0.2983(4)
O26_6 O 0.2004(3) 0.6166(2) 0.2408(3)
O27_6 O 0.2003(4) 0.5599(3) 0.2336(4)
O28_6 O 0.3186(3) 0.7613(3) 0.0879(3)
O30_6 O 0.3424(5) 0.7770(5) 0.0379(4)
O32_6 O 0.3186(3) 0.5869(3) 0.2458(3)
O35_6 O 0.2689(3) 0.5281(2) 0.2321(3)
O9_12 O 0.3372(7) 0.8753(6) 1.0000
O10_12 O 0.3709(6) 0.8414(6) 1.0000
C10_12 C 0.0506(7) 0.6433(9) 1.0000
H5_12 H 0.0305 0.6284 1.0000
C20_12 C 0.3409(13) 0.5308(12) 1.0000
H10_12 H 0.3573 0.5119 1.0000
C26_12 C 0.2550(6) 0.7579(6) 1.0000
H18_12 H 0.2362 0.7413 1.0000
N1_12 N 0.0970(9) 0.6999(8) 1.0000
N2_12 N 0.3103(7) 0.5988(7) 1.0000
O13_12 O 0.2563(7) 0.8434(6) 1.0000
H19_6 H 0.2446 0.8378 0.9817
C27_12 C 0.3711(12) 0.8731(12) 1.0000
H20_12 H 0.3894 0.8902 1.0000
O14_6 O 0.2011(3) 0.7574(3) 0.8828(3)
O15_6 O 0.2017(4) 0.7448(4) 0.9391(4)
O16_6 O 0.0869(3) 0.7458(3) 0.8186(3)
O17_6 O 0.0577(4) 0.7005(4) 0.8350(4)
C28_6 C 0.1831(4) 0.7476(6) 0.9112(4)
C29_6 C 0.1444(4) 0.7385(5) 0.9094(3)
C30_6 C 0.1336(4) 0.7192(5) 0.9391(4)
H21_6 H 0.1483 0.7164 0.9592
C31_6 C 0.0998(5) 0.7044(6) 0.9375(4)
C32_6 C 0.0809(4) 0.7069(6) 0.9060(3)
H22_6 H 0.0591 0.6946 0.9046
C33_6 C 0.0916(4) 0.7259(5) 0.8762(4)
C34_6 C 0.1251(4) 0.7409(5) 0.8783(4)
H23_6 H 0.1347 0.7529 0.8585
C35_6 C 0.0858(5) 0.6852(5) 0.9694(4)
C36_6 C 0.0658(5) 0.6544(5) 0.9684(4)
H24_6 H 0.0626 0.6416 0.9472
C37_6 C 0.0779(3) 0.7243(3) 0.8405(4)
O18_6 O 0.2592(3) 0.7004(3) 0.8834(2)
O19_6 O 0.2664(4) 0.7003(4) 0.9401(3)
O20_6 O 0.2613(3) 0.5879(3) 0.8186(3)
O21_6 O 0.2770(5) 0.5379(4) 0.8424(5)
C38_6 C 0.2672(5) 0.6847(4) 0.9117(4)
C39_6 C 0.2727(6) 0.6460(5) 0.9079(4)
C40_6 C 0.2681(7) 0.6267(4) 0.8771(4)
H25_6 H 0.2578 0.6377 0.8571
C41_6 C 0.2782(8) 0.5915(5) 0.8751(5)
C42_6 C 0.2935(6) 0.5765(6) 0.9049(5)
H26_6 H 0.3008 0.5525 0.9040
C43_6 C 0.2987(4) 0.5951(5) 0.9361(4)
C44_6 C 0.2920(5) 0.6311(5) 0.9376(5)
H27_6 H 0.2964 0.6447 0.9603
C45_6 C 0.3117(9) 0.5790(6) 0.9708(5)
C46_6 C 0.3255(10) 0.5451(7) 0.9699(6)
H28_6 H 0.3226 0.5302 0.9501
C47_6 C 0.2718(3) 0.5694(5) 0.8425(4)
O22_6 O 0.2679(3) 0.7689(3) 0.9719(2)
Gd4_7 Gd 0.0000 0.69043(2) 0.81337(3)
Gd9_6 Gd 0.256160(18) 0.588630(12) 0.755772(18)
Gd11_6 Gd 0.088630(12) 0.744228(18) 0.756160(18)
O29_6 O 0.3424(5) 0.7770(5) 0.9621(4)
Gd5_8 Gd 1.0000 0.69043(2) 0.18663(3)
Gd4_8 Gd 1.0000 0.69043(2) 0.81337(3)
O9_13 O 0.6628(7) 0.8753(6) 0.0000
O10_13 O 0.6291(6) 0.8414(6) 0.0000
C10_13 C 0.9494(7) 0.6433(9) 0.0000
H5_13 H 0.9695 0.6284 0.0000
C20_13 C 0.6591(13) 0.5308(12) 0.0000
H10_13 H 0.6427 0.5119 0.0000
C26_13 C 0.7450(6) 0.7579(6) 0.0000
H18_13 H 0.7638 0.7413 0.0000
N1_13 N 0.9030(9) 0.6999(8) 0.0000
N2_13 N 0.6897(7) 0.5988(7) 0.0000
O13_13 O 0.7437(7) 0.8434(6) 0.0000
H19_7 H 0.7554 0.8378 0.0183
C27_13 C 0.6289(12) 0.8731(12) 0.0000
H20_13 H 0.6106 0.8902 0.0000
O14_7 O 0.7989(3) 0.7574(3) 0.1172(3)
O15_7 O 0.7983(4) 0.7448(4) 0.0609(4)
O16_7 O 0.9131(3) 0.7458(3) 0.1814(3)
O17_7 O 0.9423(4) 0.7005(4) 0.1650(4)
C28_7 C 0.8169(4) 0.7476(6) 0.0888(4)
C29_7 C 0.8556(4) 0.7385(5) 0.0906(3)
C30_7 C 0.8664(4) 0.7192(5) 0.0609(4)
H21_7 H 0.8517 0.7164 0.0408
C31_7 C 0.9002(5) 0.7044(6) 0.0625(4)
C32_7 C 0.9191(4) 0.7069(6) 0.0940(3)
H22_7 H 0.9409 0.6946 0.0954
C33_7 C 0.9084(4) 0.7259(5) 0.1238(4)
C34_7 C 0.8749(4) 0.7409(5) 0.1217(4)
H23_7 H 0.8653 0.7529 0.1415
C35_7 C 0.9142(5) 0.6852(5) 0.0306(4)
C36_7 C 0.9342(5) 0.6544(5) 0.0316(4)
H24_7 H 0.9374 0.6416 0.0528
C37_7 C 0.9221(3) 0.7243(3) 0.1595(4)
O18_7 O 0.7408(3) 0.7004(3) 0.1166(2)
O19_7 O 0.7336(4) 0.7003(4) 0.0599(3)
O20_7 O 0.7387(3) 0.5879(3) 0.1814(3)
O21_7 O 0.7230(5) 0.5379(4) 0.1576(5)
C38_7 C 0.7328(5) 0.6847(4) 0.0883(4)
C39_7 C 0.7273(6) 0.6460(5) 0.0921(4)
C40_7 C 0.7319(7) 0.6267(4) 0.1229(4)
H25_7 H 0.7422 0.6377 0.1429
C41_7 C 0.7218(8) 0.5915(5) 0.1249(5)
C42_7 C 0.7065(6) 0.5765(6) 0.0951(5)
H26_7 H 0.6992 0.5525 0.0960
C43_7 C 0.7013(4) 0.5951(5) 0.0639(4)
C44_7 C 0.7080(5) 0.6311(5) 0.0624(5)
H27_7 H 0.7036 0.6447 0.0397
C45_7 C 0.6883(9) 0.5790(6) 0.0292(5)
C46_7 C 0.6745(10) 0.5451(7) 0.0301(6)
H28_7 H 0.6774 0.5302 0.0499
C47_7 C 0.7282(3) 0.5694(5) 0.1575(4)
O22_7 O 0.7321(3) 0.7689(3) 0.0281(2)
Gd7_4 Gd 0.68663(3) 0.5000 0.19043(2)
Gd9_7 Gd 0.743840(18) 0.588630(12) 0.244228(18)
Gd11_7 Gd 0.911370(12) 0.744228(18) 0.243840(18)
O29_7 O 0.6576(5) 0.7770(5) 0.0379(4)
O1_7 O 0.7989(3) 0.7574(3) 0.8828(3)
O2_7 O 0.7983(4) 0.7448(4) 0.9391(4)
O3_7 O 0.7408(3) 0.7004(3) 0.8834(2)
O4_7 O 0.7336(4) 0.7003(4) 0.9401(3)
O5_7 O 0.7387(3) 0.5879(3) 0.8186(3)
O6_7 O 0.7230(5) 0.5379(4) 0.8424(5)
O7_7 O 0.9131(3) 0.7458(3) 0.8186(3)
O8_7 O 0.9423(4) 0.7005(4) 0.8350(4)
O9_14 O 0.6628(7) 0.8753(6) 1.0000
O10_14 O 0.6291(6) 0.8414(6) 1.0000
O11_7 O 0.7298(2) 0.7755(3) 0.8526(2)
C1_7 C 0.8169(4) 0.7476(6) 0.9112(4)
C2_7 C 0.8556(4) 0.7385(5) 0.9094(3)
C3_7 C 0.8664(4) 0.7192(5) 0.9391(4)
H1_7 H 0.8517 0.7164 0.9592
C4_7 C 0.9002(5) 0.7044(6) 0.9375(4)
C5_7 C 0.9191(4) 0.7069(6) 0.9060(3)
H2_7 H 0.9409 0.6946 0.9046
C6_7 C 0.9084(4) 0.7259(5) 0.8762(4)
C7_7 C 0.8749(4) 0.7409(5) 0.8783(4)
H3_7 H 0.8653 0.7529 0.8585
C8_7 C 0.9142(5) 0.6852(5) 0.9694(4)
C9_7 C 0.9342(5) 0.6544(5) 0.9684(4)
H4_7 H 0.9374 0.6416 0.9472
C10_14 C 0.9494(7) 0.6433(9) 1.0000
H5_14 H 0.9695 0.6284 1.0000
C11_7 C 0.7328(5) 0.6847(4) 0.9117(4)
C12_7 C 0.7273(6) 0.6460(5) 0.9079(4)
C13_7 C 0.7319(7) 0.6267(4) 0.8771(4)
H6_7 H 0.7422 0.6377 0.8571
C14_7 C 0.7218(8) 0.5915(5) 0.8751(5)
C15_7 C 0.7065(6) 0.5765(6) 0.9049(5)
H7_7 H 0.6992 0.5525 0.9040
C16_7 C 0.7013(4) 0.5951(5) 0.9361(4)
C17_7 C 0.7080(5) 0.6311(5) 0.9376(5)
H8_7 H 0.7036 0.6447 0.9603
C18_7 C 0.6883(9) 0.5790(6) 0.9708(5)
C19_7 C 0.6745(10) 0.5451(7) 0.9699(6)
H9_7 H 0.6774 0.5302 0.9501
C20_14 C 0.6591(13) 0.5308(12) 1.0000
H10_14 H 0.6427 0.5119 1.0000
C21_7 C 0.7282(3) 0.5694(5) 0.8425(4)
C22_7 C 0.9221(3) 0.7243(3) 0.8405(4)
C23_7 C 0.7056(4) 0.7985(4) 0.8463(4)
H11_7 H 0.6979 0.8056 0.8690
C24_7 C 0.6690(4) 0.8419(5) 0.8135(5)
H12_7 H 0.6562 0.8439 0.8358
H13_7 H 0.6523 0.8369 0.7944
H14_7 H 0.6812 0.8641 0.8086
C25_7 C 0.7162(6) 0.8025(5) 0.7845(4)
H15_7 H 0.7310 0.7823 0.7907
H16_7 H 0.7312 0.8222 0.7771
H17_7 H 0.7004 0.7960 0.7651
C26_14 C 0.7450(6) 0.7579(6) 1.0000
H18_14 H 0.7638 0.7413 1.0000
N1_14 N 0.9030(9) 0.6999(8) 1.0000
N2_14 N 0.6897(7) 0.5988(7) 1.0000
O12_7 O 0.7321(3) 0.7689(3) 0.9719(2)
O13_14 O 0.7437(7) 0.8434(6) 1.0000
N3_7 N 0.6947(3) 0.8134(3) 0.8159(3)
C27_14 C 0.6289(12) 0.8731(12) 1.0000
H20_14 H 0.6106 0.8902 1.0000
H29_7 H 0.7554 0.8378 0.9817
Gd3_7 Gd 0.743840(18) 0.588630(12) 0.755772(18)
O23_7 O 0.7245(3) 0.6474(2) 0.7702(2)
C48_7 C 0.7015(4) 0.6537(4) 0.7944(4)
H30_7 H 0.6944 0.6310 0.8021
C49_7 C 0.6581(5) 0.6865(5) 0.8310(4)
H31_7 H 0.6561 0.6642 0.8438
H32_7 H 0.6631 0.7056 0.8477
H33_7 H 0.6359 0.6914 0.8188
C50_7 C 0.6975(5) 0.7155(4) 0.7838(6)
H34_7 H 0.7177 0.7093 0.7690
H35_7 H 0.6778 0.7229 0.7688
H36_7 H 0.7040 0.7349 0.7996
N4_7 N 0.6866(3) 0.6841(3) 0.8053(3)
Gd6_4 Gd 0.68663(3) 0.5000 0.80957(2)
Gd8_7 Gd 0.911370(12) 0.744228(18) 0.756160(18)
O24_7 O 0.7426(3) 0.6172(3) 0.7011(3)
O25_7 O 0.7552(4) 0.5609(4) 0.7017(4)
O26_7 O 0.7996(3) 0.6166(2) 0.7592(3)
O27_7 O 0.7997(4) 0.5599(3) 0.7664(4)
O28_7 O 0.6814(3) 0.7613(3) 0.9121(3)
O30_7 O 0.6576(5) 0.7770(5) 0.9621(4)
O32_7 O 0.6814(3) 0.5869(3) 0.7542(3)
O35_7 O 0.7311(3) 0.5281(2) 0.7679(3)
O1_8 O 0.7989(3) 0.2426(3) 0.1172(3)
O2_8 O 0.7983(4) 0.2552(4) 0.0609(4)
O3_8 O 0.7408(3) 0.2996(3) 0.1166(2)
O4_8 O 0.7336(4) 0.2997(4) 0.0599(3)
O5_8 O 0.7387(3) 0.4121(3) 0.1814(3)
O6_8 O 0.7230(5) 0.4621(4) 0.1576(5)
O7_8 O 0.9131(3) 0.2542(3) 0.1814(3)
O8_8 O 0.9423(4) 0.2995(4) 0.1650(4)
O9_15 O 0.6628(7) 0.1247(6) 0.0000
O10_15 O 0.6291(6) 0.1586(6) 0.0000
O11_8 O 0.7298(2) 0.2245(3) 0.1474(2)
C1_8 C 0.8169(4) 0.2524(6) 0.0888(4)
C2_8 C 0.8556(4) 0.2615(5) 0.0906(3)
C3_8 C 0.8664(4) 0.2808(5) 0.0609(4)
H1_8 H 0.8517 0.2836 0.0408
C4_8 C 0.9002(5) 0.2956(6) 0.0625(4)
C5_8 C 0.9191(4) 0.2931(6) 0.0940(3)
H2_8 H 0.9409 0.3054 0.0954
C6_8 C 0.9084(4) 0.2741(5) 0.1238(4)
C7_8 C 0.8749(4) 0.2591(5) 0.1217(4)
H3_8 H 0.8653 0.2471 0.1415
C8_8 C 0.9142(5) 0.3148(5) 0.0306(4)
C9_8 C 0.9342(5) 0.3456(5) 0.0316(4)
H4_8 H 0.9374 0.3584 0.0528
C10_15 C 0.9494(7) 0.3567(9) 0.0000
H5_15 H 0.9695 0.3716 0.0000
C11_8 C 0.7328(5) 0.3153(4) 0.0883(4)
C12_8 C 0.7273(6) 0.3540(5) 0.0921(4)
C13_8 C 0.7319(7) 0.3733(4) 0.1229(4)
H6_8 H 0.7422 0.3623 0.1429
C14_8 C 0.7218(8) 0.4085(5) 0.1249(5)
C15_8 C 0.7065(6) 0.4235(6) 0.0951(5)
H7_8 H 0.6992 0.4475 0.0960
C16_8 C 0.7013(4) 0.4049(5) 0.0639(4)
C17_8 C 0.7080(5) 0.3689(5) 0.0624(5)
H8_8 H 0.7036 0.3553 0.0397
C18_8 C 0.6883(9) 0.4210(6) 0.0292(5)
C19_8 C 0.6745(10) 0.4549(7) 0.0301(6)
H9_8 H 0.6774 0.4698 0.0499
C20_15 C 0.6591(13) 0.4692(12) 0.0000
H10_15 H 0.6427 0.4881 0.0000
C21_8 C 0.7282(3) 0.4306(5) 0.1575(4)
C22_8 C 0.9221(3) 0.2757(3) 0.1595(4)
C23_8 C 0.7056(4) 0.2015(4) 0.1537(4)
H11_8 H 0.6979 0.1944 0.1310
C24_8 C 0.6690(4) 0.1581(5) 0.1865(5)
H12_8 H 0.6562 0.1561 0.1642
H13_8 H 0.6523 0.1631 0.2056
H14_8 H 0.6812 0.1359 0.1914
C25_8 C 0.7162(6) 0.1975(5) 0.2155(4)
H15_8 H 0.7310 0.2177 0.2093
H16_8 H 0.7312 0.1778 0.2229
H17_8 H 0.7004 0.2040 0.2349
C26_15 C 0.7450(6) 0.2421(6) 0.0000
H18_15 H 0.7638 0.2587 0.0000
N1_15 N 0.9030(9) 0.3001(8) 0.0000
N2_15 N 0.6897(7) 0.4012(7) 0.0000
O12_8 O 0.7321(3) 0.2311(3) 0.0281(2)
O13_15 O 0.7437(7) 0.1566(6) 0.0000
N3_8 N 0.6947(3) 0.1866(3) 0.1841(3)
C27_15 C 0.6289(12) 0.1269(12) 0.0000
H20_15 H 0.6106 0.1098 0.0000
H29_8 H 0.7554 0.1622 0.0183
Gd3_8 Gd 0.743840(18) 0.411370(12) 0.244228(18)
O23_8 O 0.7245(3) 0.3526(2) 0.2298(2)
C48_8 C 0.7015(4) 0.3463(4) 0.2056(4)
H30_8 H 0.6944 0.3690 0.1979
C49_8 C 0.6581(5) 0.3135(5) 0.1690(4)
H31_8 H 0.6561 0.3358 0.1562
H32_8 H 0.6631 0.2944 0.1523
H33_8 H 0.6359 0.3086 0.1812
C50_8 C 0.6975(5) 0.2845(4) 0.2162(6)
H34_8 H 0.7177 0.2907 0.2310
H35_8 H 0.6778 0.2771 0.2312
H36_8 H 0.7040 0.2651 0.2004
N4_8 N 0.6866(3) 0.3159(3) 0.1947(3)
Gd8_8 Gd 0.911370(12) 0.255772(18) 0.243840(18)
O24_8 O 0.7426(3) 0.3828(3) 0.2989(3)
O25_8 O 0.7552(4) 0.4391(4) 0.2983(4)
O26_8 O 0.7996(3) 0.3834(2) 0.2408(3)
O27_8 O 0.7997(4) 0.4401(3) 0.2336(4)
O28_8 O 0.6814(3) 0.2387(3) 0.0879(3)
O30_8 O 0.6576(5) 0.2230(5) 0.0379(4)
O32_8 O 0.6814(3) 0.4131(3) 0.2458(3)
O35_8 O 0.7311(3) 0.4719(2) 0.2321(3)
O9_16 O 0.6628(7) 0.1247(6) 1.0000
O10_16 O 0.6291(6) 0.1586(6) 1.0000
C10_16 C 0.9494(7) 0.3567(9) 1.0000
H5_16 H 0.9695 0.3716 1.0000
C20_16 C 0.6591(13) 0.4692(12) 1.0000
H10_16 H 0.6427 0.4881 1.0000
C26_16 C 0.7450(6) 0.2421(6) 1.0000
H18_16 H 0.7638 0.2587 1.0000
N1_16 N 0.9030(9) 0.3001(8) 1.0000
N2_16 N 0.6897(7) 0.4012(7) 1.0000
O13_16 O 0.7437(7) 0.1566(6) 1.0000
H19_8 H 0.7554 0.1622 0.9817
C27_16 C 0.6289(12) 0.1269(12) 1.0000
H20_16 H 0.6106 0.1098 1.0000
O14_8 O 0.7989(3) 0.2426(3) 0.8828(3)
O15_8 O 0.7983(4) 0.2552(4) 0.9391(4)
O16_8 O 0.9131(3) 0.2542(3) 0.8186(3)
O17_8 O 0.9423(4) 0.2995(4) 0.8350(4)
C28_8 C 0.8169(4) 0.2524(6) 0.9112(4)
C29_8 C 0.8556(4) 0.2615(5) 0.9094(3)
C30_8 C 0.8664(4) 0.2808(5) 0.9391(4)
H21_8 H 0.8517 0.2836 0.9592
C31_8 C 0.9002(5) 0.2956(6) 0.9375(4)
C32_8 C 0.9191(4) 0.2931(6) 0.9060(3)
H22_8 H 0.9409 0.3054 0.9046
C33_8 C 0.9084(4) 0.2741(5) 0.8762(4)
C34_8 C 0.8749(4) 0.2591(5) 0.8783(4)
H23_8 H 0.8653 0.2471 0.8585
C35_8 C 0.9142(5) 0.3148(5) 0.9694(4)
C36_8 C 0.9342(5) 0.3456(5) 0.9684(4)
H24_8 H 0.9374 0.3584 0.9472
C37_8 C 0.9221(3) 0.2757(3) 0.8405(4)
O18_8 O 0.7408(3) 0.2996(3) 0.8834(2)
O19_8 O 0.7336(4) 0.2997(4) 0.9401(3)
O20_8 O 0.7387(3) 0.4121(3) 0.8186(3)
O21_8 O 0.7230(5) 0.4621(4) 0.8424(5)
C38_8 C 0.7328(5) 0.3153(4) 0.9117(4)
C39_8 C 0.7273(6) 0.3540(5) 0.9079(4)
C40_8 C 0.7319(7) 0.3733(4) 0.8771(4)
H25_8 H 0.7422 0.3623 0.8571
C41_8 C 0.7218(8) 0.4085(5) 0.8751(5)
C42_8 C 0.7065(6) 0.4235(6) 0.9049(5)
H26_8 H 0.6992 0.4475 0.9040
C43_8 C 0.7013(4) 0.4049(5) 0.9361(4)
C44_8 C 0.7080(5) 0.3689(5) 0.9376(5)
H27_8 H 0.7036 0.3553 0.9603
C45_8 C 0.6883(9) 0.4210(6) 0.9708(5)
C46_8 C 0.6745(10) 0.4549(7) 0.9699(6)
H28_8 H 0.6774 0.4698 0.9501
C47_8 C 0.7282(3) 0.4306(5) 0.8425(4)
O22_8 O 0.7321(3) 0.2311(3) 0.9719(2)
Gd9_8 Gd 0.743840(18) 0.411370(12) 0.755772(18)
Gd11_8 Gd 0.911370(12) 0.255772(18) 0.756160(18)
O29_8 O 0.6576(5) 0.2230(5) 0.9621(4)
O9_17 O 0.0000 0.3372(7) 0.1247(6)
O10_17 O 0.0000 0.3709(6) 0.1586(6)
C10_17 C 0.0000 0.0506(7) 0.3567(9)
H5_17 H -0.0000 0.0305 0.3716
C20_17 C -0.0000 0.3409(13) 0.4692(12)
H10_17 H 0.0000 0.3573 0.4881
C26_17 C 0.0000 0.2550(6) 0.2421(6)
H18_17 H 0.0000 0.2362 0.2587
N1_17 N 0.0000 0.0970(9) 0.3001(8)
N2_17 N -0.0000 0.3103(7) 0.4012(7)
O13_17 O 0.0000 0.2563(7) 0.1566(6)
H19_9 H 0.0183 0.2446 0.1622
C27_17 C 0.0000 0.3711(12) 0.1269(12)
H20_17 H 0.0000 0.3894 0.1098
O14_9 O 0.1172(3) 0.2011(3) 0.2426(3)
O15_9 O 0.0609(4) 0.2017(4) 0.2552(4)
O16_9 O 0.1814(3) 0.0869(3) 0.2542(3)
C28_9 C 0.0888(4) 0.1831(4) 0.2524(6)
C29_9 C 0.0906(3) 0.1444(4) 0.2615(5)
C30_9 C 0.0609(4) 0.1336(4) 0.2808(5)
H21_9 H 0.0408 0.1483 0.2836
C31_9 C 0.0625(4) 0.0998(5) 0.2956(6)
C32_9 C 0.0940(3) 0.0809(4) 0.2931(6)
H22_9 H 0.0954 0.0591 0.3054
C33_9 C 0.1238(4) 0.0916(4) 0.2741(5)
C34_9 C 0.1217(4) 0.1251(4) 0.2591(5)
H23_9 H 0.1415 0.1347 0.2471
C35_9 C 0.0306(4) 0.0858(5) 0.3148(5)
C36_9 C 0.0316(4) 0.0658(5) 0.3456(5)
H24_9 H 0.0528 0.0626 0.3584
C37_9 C 0.1595(4) 0.0779(3) 0.2757(3)
O18_9 O 0.1166(2) 0.2592(3) 0.2996(3)
O19_9 O 0.0599(3) 0.2664(4) 0.2997(4)
O20_9 O 0.1814(3) 0.2613(3) 0.4121(3)
O21_9 O 0.1576(5) 0.2770(5) 0.4621(4)
C38_9 C 0.0883(4) 0.2672(5) 0.3153(4)
C39_9 C 0.0921(4) 0.2727(6) 0.3540(5)
C40_9 C 0.1229(4) 0.2681(7) 0.3733(4)
H25_9 H 0.1429 0.2578 0.3623
C41_9 C 0.1249(5) 0.2782(8) 0.4085(5)
C42_9 C 0.0951(5) 0.2935(6) 0.4235(6)
H26_9 H 0.0960 0.3008 0.4475
C43_9 C 0.0639(4) 0.2987(4) 0.4049(5)
C44_9 C 0.0624(5) 0.2920(5) 0.3689(5)
H27_9 H 0.0397 0.2964 0.3553
C45_9 C 0.0292(5) 0.3117(9) 0.4210(6)
C46_9 C 0.0301(6) 0.3255(10) 0.4549(7)
H28_9 H 0.0499 0.3226 0.4698
C47_9 C 0.1575(4) 0.2718(3) 0.4306(5)
O22_9 O 0.0281(2) 0.2679(3) 0.2311(3)
Gd7_5 Gd 0.19043(2) 0.31337(3) 0.5000
Gd9_9 Gd 0.244228(18) 0.256160(18) 0.411370(12)
O29_9 O 0.0379(4) 0.3424(5) 0.2230(5)
O1_9 O 0.8828(3) 0.2011(3) 0.2426(3)
O2_9 O 0.9391(4) 0.2017(4) 0.2552(4)
O3_9 O 0.8834(2) 0.2592(3) 0.2996(3)
O4_9 O 0.9401(3) 0.2664(4) 0.2997(4)
O5_9 O 0.8186(3) 0.2613(3) 0.4121(3)
O6_9 O 0.8424(5) 0.2770(5) 0.4621(4)
O9_18 O 1.0000 0.3372(7) 0.1247(6)
O10_18 O 1.0000 0.3709(6) 0.1586(6)
O11_9 O 0.8526(2) 0.2702(2) 0.2245(3)
C1_9 C 0.9112(4) 0.1831(4) 0.2524(6)
C2_9 C 0.9094(3) 0.1444(4) 0.2615(5)
C3_9 C 0.9391(4) 0.1336(4) 0.2808(5)
H1_9 H 0.9592 0.1483 0.2836
C4_9 C 0.9375(4) 0.0998(5) 0.2956(6)
C5_9 C 0.9060(3) 0.0809(4) 0.2931(6)
H2_9 H 0.9046 0.0591 0.3054
C6_9 C 0.8762(4) 0.0916(4) 0.2741(5)
C7_9 C 0.8783(4) 0.1251(4) 0.2591(5)
H3_9 H 0.8585 0.1347 0.2471
C8_9 C 0.9694(4) 0.0858(5) 0.3148(5)
C9_9 C 0.9684(4) 0.0658(5) 0.3456(5)
H4_9 H 0.9472 0.0626 0.3584
C10_18 C 1.0000 0.0506(7) 0.3567(9)
H5_18 H 1.0000 0.0305 0.3716
C11_9 C 0.9117(4) 0.2672(5) 0.3153(4)
C12_9 C 0.9079(4) 0.2727(6) 0.3540(5)
C13_9 C 0.8771(4) 0.2681(7) 0.3733(4)
H6_9 H 0.8571 0.2578 0.3623
C14_9 C 0.8751(5) 0.2782(8) 0.4085(5)
C15_9 C 0.9049(5) 0.2935(6) 0.4235(6)
H7_9 H 0.9040 0.3008 0.4475
C16_9 C 0.9361(4) 0.2987(4) 0.4049(5)
C17_9 C 0.9376(5) 0.2920(5) 0.3689(5)
H8_9 H 0.9603 0.2964 0.3553
C18_9 C 0.9708(5) 0.3117(9) 0.4210(6)
C19_9 C 0.9699(6) 0.3255(10) 0.4549(7)
H9_9 H 0.9501 0.3226 0.4698
C20_18 C 1.0000 0.3409(13) 0.4692(12)
H10_18 H 1.0000 0.3573 0.4881
C21_9 C 0.8425(4) 0.2718(3) 0.4306(5)
C22_9 C 0.8405(4) 0.0779(3) 0.2757(3)
C23_9 C 0.8463(4) 0.2944(4) 0.2015(4)
H11_9 H 0.8690 0.3021 0.1944
C24_9 C 0.8135(5) 0.3310(4) 0.1581(5)
H12_9 H 0.8358 0.3438 0.1561
H13_9 H 0.7944 0.3477 0.1631
H14_9 H 0.8086 0.3188 0.1359
C25_9 C 0.7845(4) 0.2838(6) 0.1975(5)
H15_9 H 0.7907 0.2690 0.2177
H16_9 H 0.7771 0.2688 0.1778
H17_9 H 0.7651 0.2996 0.2040
C26_18 C 1.0000 0.2550(6) 0.2421(6)
H18_18 H 1.0000 0.2362 0.2587
N1_18 N 1.0000 0.0970(9) 0.3001(8)
N2_18 N 1.0000 0.3103(7) 0.4012(7)
O12_9 O 0.9719(2) 0.2679(3) 0.2311(3)
O13_18 O 1.0000 0.2563(7) 0.1566(6)
N3_9 N 0.8159(3) 0.3053(3) 0.1866(3)
C27_18 C 1.0000 0.3711(12) 0.1269(12)
H20_18 H 1.0000 0.3894 0.1098
H29_9 H 0.9817 0.2446 0.1622
Gd3_9 Gd 0.755772(18) 0.256160(18) 0.411370(12)
O23_9 O 0.7702(2) 0.2755(3) 0.3526(2)
C48_9 C 0.7944(4) 0.2985(4) 0.3463(4)
H30_9 H 0.8021 0.3056 0.3690
C49_9 C 0.8310(4) 0.3419(5) 0.3135(5)
H31_9 H 0.8438 0.3439 0.3358
H32_9 H 0.8477 0.3369 0.2944
H33_9 H 0.8188 0.3641 0.3086
C50_9 C 0.7838(6) 0.3025(5) 0.2845(4)
H34_9 H 0.7690 0.2823 0.2907
H35_9 H 0.7688 0.3222 0.2771
H36_9 H 0.7996 0.2960 0.2651
N4_9 N 0.8053(3) 0.3134(3) 0.3159(3)
Gd6_5 Gd 0.80957(2) 0.31337(3) 0.5000
O24_9 O 0.7011(3) 0.2574(3) 0.3828(3)
O25_9 O 0.7017(4) 0.2448(4) 0.4391(4)
O26_9 O 0.7592(3) 0.2004(3) 0.3834(2)
O27_9 O 0.7664(4) 0.2003(4) 0.4401(3)
O28_9 O 0.9121(3) 0.3186(3) 0.2387(3)
O30_9 O 0.9621(4) 0.3424(5) 0.2230(5)
O32_9 O 0.7542(3) 0.3186(3) 0.4131(3)
O35_9 O 0.7679(3) 0.2689(3) 0.4719(2)
O1_10 O 0.1172(3) 0.2011(3) 0.7574(3)
O2_10 O 0.0609(4) 0.2017(4) 0.7448(4)
O3_10 O 0.1166(2) 0.2592(3) 0.7004(3)
O4_10 O 0.0599(3) 0.2664(4) 0.7003(4)
O5_10 O 0.1814(3) 0.2613(3) 0.5879(3)
O6_10 O 0.1576(5) 0.2770(5) 0.5379(4)
O9_19 O 0.0000 0.3372(7) 0.8753(6)
O10_19 O -0.0000 0.3709(6) 0.8414(6)
O11_10 O 0.1474(2) 0.2702(2) 0.7755(3)
C1_10 C 0.0888(4) 0.1831(4) 0.7476(6)
C2_10 C 0.0906(3) 0.1444(4) 0.7385(5)
C3_10 C 0.0609(4) 0.1336(4) 0.7192(5)
H1_10 H 0.0408 0.1483 0.7164
C4_10 C 0.0625(4) 0.0998(5) 0.7044(6)
C5_10 C 0.0940(3) 0.0809(4) 0.7069(6)
H2_10 H 0.0954 0.0591 0.6946
C6_10 C 0.1238(4) 0.0916(4) 0.7259(5)
C7_10 C 0.1217(4) 0.1251(4) 0.7409(5)
H3_10 H 0.1415 0.1347 0.7529
C8_10 C 0.0306(4) 0.0858(5) 0.6852(5)
C9_10 C 0.0316(4) 0.0658(5) 0.6544(5)
H4_10 H 0.0528 0.0626 0.6416
C10_19 C 0.0000 0.0506(7) 0.6433(9)
H5_19 H -0.0000 0.0305 0.6284
C11_10 C 0.0883(4) 0.2672(5) 0.6847(4)
C12_10 C 0.0921(4) 0.2727(6) 0.6460(5)
C13_10 C 0.1229(4) 0.2681(7) 0.6267(4)
H6_10 H 0.1429 0.2578 0.6377
C14_10 C 0.1249(5) 0.2782(8) 0.5915(5)
C15_10 C 0.0951(5) 0.2935(6) 0.5765(6)
H7_10 H 0.0960 0.3008 0.5525
C16_10 C 0.0639(4) 0.2987(4) 0.5951(5)
C17_10 C 0.0624(5) 0.2920(5) 0.6311(5)
H8_10 H 0.0397 0.2964 0.6447
C18_10 C 0.0292(5) 0.3117(9) 0.5790(6)
C19_10 C 0.0301(6) 0.3255(10) 0.5451(7)
H9_10 H 0.0499 0.3226 0.5302
C20_19 C 0.0000 0.3409(13) 0.5308(12)
H10_19 H 0.0000 0.3573 0.5119
C21_10 C 0.1575(4) 0.2718(3) 0.5694(5)
C22_10 C 0.1595(4) 0.0779(3) 0.7243(3)
C23_10 C 0.1537(4) 0.2944(4) 0.7985(4)
H11_10 H 0.1310 0.3021 0.8056
C24_10 C 0.1865(5) 0.3310(4) 0.8419(5)
H12_10 H 0.1642 0.3438 0.8439
H13_10 H 0.2056 0.3477 0.8369
H14_10 H 0.1914 0.3188 0.8641
C25_10 C 0.2155(4) 0.2838(6) 0.8025(5)
H15_10 H 0.2093 0.2690 0.7823
H16_10 H 0.2229 0.2688 0.8222
H17_10 H 0.2349 0.2996 0.7960
C26_19 C 0.0000 0.2550(6) 0.7579(6)
H18_19 H -0.0000 0.2362 0.7413
N1_19 N 0.0000 0.0970(9) 0.6999(8)
N2_19 N -0.0000 0.3103(7) 0.5988(7)
O12_10 O 0.0281(2) 0.2679(3) 0.7689(3)
O13_19 O 0.0000 0.2563(7) 0.8434(6)
N3_10 N 0.1841(3) 0.3053(3) 0.8134(3)
C27_19 C 0.0000 0.3711(12) 0.8731(12)
H20_19 H 0.0000 0.3894 0.8902
H29_10 H 0.0183 0.2446 0.8378
Gd3_10 Gd 0.244228(18) 0.256160(18) 0.588630(12)
O23_10 O 0.2298(2) 0.2755(3) 0.6474(2)
C48_10 C 0.2056(4) 0.2985(4) 0.6537(4)
H30_10 H 0.1979 0.3056 0.6310
C49_10 C 0.1690(4) 0.3419(5) 0.6865(5)
H31_10 H 0.1562 0.3439 0.6642
H32_10 H 0.1523 0.3369 0.7056
H33_10 H 0.1812 0.3641 0.6914
C50_10 C 0.2162(6) 0.3025(5) 0.7155(4)
H34_10 H 0.2310 0.2823 0.7093
H35_10 H 0.2312 0.3222 0.7229
H36_10 H 0.2004 0.2960 0.7349
N4_10 N 0.1947(3) 0.3134(3) 0.6841(3)
O24_10 O 0.2989(3) 0.2574(3) 0.6172(3)
O25_10 O 0.2983(4) 0.2448(4) 0.5609(4)
O26_10 O 0.2408(3) 0.2004(3) 0.6166(2)
O27_10 O 0.2336(4) 0.2003(4) 0.5599(3)
O28_10 O 0.0879(3) 0.3186(3) 0.7613(3)
O30_10 O 0.0379(4) 0.3424(5) 0.7770(5)
O32_10 O 0.2458(3) 0.3186(3) 0.5869(3)
O35_10 O 0.2321(3) 0.2689(3) 0.5281(2)
O9_20 O 1.0000 0.3372(7) 0.8753(6)
O10_20 O 1.0000 0.3709(6) 0.8414(6)
C10_20 C 1.0000 0.0506(7) 0.6433(9)
H5_20 H 1.0000 0.0305 0.6284
C20_20 C 1.0000 0.3409(13) 0.5308(12)
H10_20 H 1.0000 0.3573 0.5119
C26_20 C 1.0000 0.2550(6) 0.7579(6)
H18_20 H 1.0000 0.2362 0.7413
N1_20 N 1.0000 0.0970(9) 0.6999(8)
N2_20 N 1.0000 0.3103(7) 0.5988(7)
O13_20 O 1.0000 0.2563(7) 0.8434(6)
H19_10 H 0.9817 0.2446 0.8378
C27_20 C 1.0000 0.3711(12) 0.8731(12)
H20_20 H 1.0000 0.3894 0.8902
O14_10 O 0.8828(3) 0.2011(3) 0.7574(3)
O15_10 O 0.9391(4) 0.2017(4) 0.7448(4)
O16_10 O 0.8186(3) 0.0869(3) 0.7458(3)
C28_10 C 0.9112(4) 0.1831(4) 0.7476(6)
C29_10 C 0.9094(3) 0.1444(4) 0.7385(5)
C30_10 C 0.9391(4) 0.1336(4) 0.7192(5)
H21_10 H 0.9592 0.1483 0.7164
C31_10 C 0.9375(4) 0.0998(5) 0.7044(6)
C32_10 C 0.9060(3) 0.0809(4) 0.7069(6)
H22_10 H 0.9046 0.0591 0.6946
C33_10 C 0.8762(4) 0.0916(4) 0.7259(5)
C34_10 C 0.8783(4) 0.1251(4) 0.7409(5)
H23_10 H 0.8585 0.1347 0.7529
C35_10 C 0.9694(4) 0.0858(5) 0.6852(5)
C36_10 C 0.9684(4) 0.0658(5) 0.6544(5)
H24_10 H 0.9472 0.0626 0.6416
C37_10 C 0.8405(4) 0.0779(3) 0.7243(3)
O18_10 O 0.8834(2) 0.2592(3) 0.7004(3)
O19_10 O 0.9401(3) 0.2664(4) 0.7003(4)
O20_10 O 0.8186(3) 0.2613(3) 0.5879(3)
O21_10 O 0.8424(5) 0.2770(5) 0.5379(4)
C38_10 C 0.9117(4) 0.2672(5) 0.6847(4)
C39_10 C 0.9079(4) 0.2727(6) 0.6460(5)
C40_10 C 0.8771(4) 0.2681(7) 0.6267(4)
H25_10 H 0.8571 0.2578 0.6377
C41_10 C 0.8751(5) 0.2782(8) 0.5915(5)
C42_10 C 0.9049(5) 0.2935(6) 0.5765(6)
H26_10 H 0.9040 0.3008 0.5525
C43_10 C 0.9361(4) 0.2987(4) 0.5951(5)
C44_10 C 0.9376(5) 0.2920(5) 0.6311(5)
H27_10 H 0.9603 0.2964 0.6447
C45_10 C 0.9708(5) 0.3117(9) 0.5790(6)
C46_10 C 0.9699(6) 0.3255(10) 0.5451(7)
H28_10 H 0.9501 0.3226 0.5302
C47_10 C 0.8425(4) 0.2718(3) 0.5694(5)
O22_10 O 0.9719(2) 0.2679(3) 0.7689(3)
Gd9_10 Gd 0.755772(18) 0.256160(18) 0.588630(12)
O29_10 O 0.9621(4) 0.3424(5) 0.7770(5)
O9_21 O 0.0000 0.6628(7) 0.8753(6)
O10_21 O 0.0000 0.6291(6) 0.8414(6)
C10_21 C 0.0000 0.9494(7) 0.6433(9)
H5_21 H 0.0000 0.9695 0.6284
C20_21 C 0.0000 0.6591(13) 0.5308(12)
H10_21 H 0.0000 0.6427 0.5119
C26_21 C 0.0000 0.7450(6) 0.7579(6)
H18_21 H 0.0000 0.7638 0.7413
N1_21 N 0.0000 0.9030(9) 0.6999(8)
N2_21 N 0.0000 0.6897(7) 0.5988(7)
O13_21 O 0.0000 0.7437(7) 0.8434(6)
H19_11 H 0.0183 0.7554 0.8378
C27_21 C 0.0000 0.6289(12) 0.8731(12)
H20_21 H 0.0000 0.6106 0.8902
O14_11 O 0.1172(3) 0.7989(3) 0.7574(3)
O15_11 O 0.0609(4) 0.7983(4) 0.7448(4)
O16_11 O 0.1814(3) 0.9131(3) 0.7458(3)
C28_11 C 0.0888(4) 0.8169(4) 0.7476(6)
C29_11 C 0.0906(3) 0.8556(4) 0.7385(5)
C30_11 C 0.0609(4) 0.8664(4) 0.7192(5)
H21_11 H 0.0408 0.8517 0.7164
C31_11 C 0.0625(4) 0.9002(5) 0.7044(6)
C32_11 C 0.0940(3) 0.9191(4) 0.7069(6)
H22_11 H 0.0954 0.9409 0.6946
C33_11 C 0.1238(4) 0.9084(4) 0.7259(5)
C34_11 C 0.1217(4) 0.8749(4) 0.7409(5)
H23_11 H 0.1415 0.8653 0.7529
C35_11 C 0.0306(4) 0.9142(5) 0.6852(5)
C36_11 C 0.0316(4) 0.9342(5) 0.6544(5)
H24_11 H 0.0528 0.9374 0.6416
C37_11 C 0.1595(4) 0.9221(3) 0.7243(3)
O18_11 O 0.1166(2) 0.7408(3) 0.7004(3)
O19_11 O 0.0599(3) 0.7336(4) 0.7003(4)
O20_11 O 0.1814(3) 0.7387(3) 0.5879(3)
O21_11 O 0.1576(5) 0.7230(5) 0.5379(4)
C38_11 C 0.0883(4) 0.7328(5) 0.6847(4)
C39_11 C 0.0921(4) 0.7273(6) 0.6460(5)
C40_11 C 0.1229(4) 0.7319(7) 0.6267(4)
H25_11 H 0.1429 0.7422 0.6377
C41_11 C 0.1249(5) 0.7218(8) 0.5915(5)
C42_11 C 0.0951(5) 0.7065(6) 0.5765(6)
H26_11 H 0.0960 0.6992 0.5525
C43_11 C 0.0639(4) 0.7013(4) 0.5951(5)
C44_11 C 0.0624(5) 0.7080(5) 0.6311(5)
H27_11 H 0.0397 0.7036 0.6447
C45_11 C 0.0292(5) 0.6883(9) 0.5790(6)
C46_11 C 0.0301(6) 0.6745(10) 0.5451(7)
H28_11 H 0.0499 0.6774 0.5302
C47_11 C 0.1575(4) 0.7282(3) 0.5694(5)
O22_11 O 0.0281(2) 0.7321(3) 0.7689(3)
Gd7_6 Gd 0.19043(2) 0.68663(3) 0.5000
Gd9_11 Gd 0.244228(18) 0.743840(18) 0.588630(12)
O29_11 O 0.0379(4) 0.6576(5) 0.7770(5)
O1_11 O 0.8828(3) 0.7989(3) 0.7574(3)
O2_11 O 0.9391(4) 0.7983(4) 0.7448(4)
O3_11 O 0.8834(2) 0.7408(3) 0.7004(3)
O4_11 O 0.9401(3) 0.7336(4) 0.7003(4)
O5_11 O 0.8186(3) 0.7387(3) 0.5879(3)
O6_11 O 0.8424(5) 0.7230(5) 0.5379(4)
O9_22 O 1.0000 0.6628(7) 0.8753(6)
O10_22 O 1.0000 0.6291(6) 0.8414(6)
O11_11 O 0.8526(2) 0.7298(2) 0.7755(3)
C1_11 C 0.9112(4) 0.8169(4) 0.7476(6)
C2_11 C 0.9094(3) 0.8556(4) 0.7385(5)
C3_11 C 0.9391(4) 0.8664(4) 0.7192(5)
H1_11 H 0.9592 0.8517 0.7164
C4_11 C 0.9375(4) 0.9002(5) 0.7044(6)
C5_11 C 0.9060(3) 0.9191(4) 0.7069(6)
H2_11 H 0.9046 0.9409 0.6946
C6_11 C 0.8762(4) 0.9084(4) 0.7259(5)
C7_11 C 0.8783(4) 0.8749(4) 0.7409(5)
H3_11 H 0.8585 0.8653 0.7529
C8_11 C 0.9694(4) 0.9142(5) 0.6852(5)
C9_11 C 0.9684(4) 0.9342(5) 0.6544(5)
H4_11 H 0.9472 0.9374 0.6416
C10_22 C 1.0000 0.9494(7) 0.6433(9)
H5_22 H 1.0000 0.9695 0.6284
C11_11 C 0.9117(4) 0.7328(5) 0.6847(4)
C12_11 C 0.9079(4) 0.7273(6) 0.6460(5)
C13_11 C 0.8771(4) 0.7319(7) 0.6267(4)
H6_11 H 0.8571 0.7422 0.6377
C14_11 C 0.8751(5) 0.7218(8) 0.5915(5)
C15_11 C 0.9049(5) 0.7065(6) 0.5765(6)
H7_11 H 0.9040 0.6992 0.5525
C16_11 C 0.9361(4) 0.7013(4) 0.5951(5)
C17_11 C 0.9376(5) 0.7080(5) 0.6311(5)
H8_11 H 0.9603 0.7036 0.6447
C18_11 C 0.9708(5) 0.6883(9) 0.5790(6)
C19_11 C 0.9699(6) 0.6745(10) 0.5451(7)
H9_11 H 0.9501 0.6774 0.5302
C20_22 C 1.0000 0.6591(13) 0.5308(12)
H10_22 H 1.0000 0.6427 0.5119
C21_11 C 0.8425(4) 0.7282(3) 0.5694(5)
C22_11 C 0.8405(4) 0.9221(3) 0.7243(3)
C23_11 C 0.8463(4) 0.7056(4) 0.7985(4)
H11_11 H 0.8690 0.6979 0.8056
C24_11 C 0.8135(5) 0.6690(4) 0.8419(5)
H12_11 H 0.8358 0.6562 0.8439
H13_11 H 0.7944 0.6523 0.8369
H14_11 H 0.8086 0.6812 0.8641
C25_11 C 0.7845(4) 0.7162(6) 0.8025(5)
H15_11 H 0.7907 0.7310 0.7823
H16_11 H 0.7771 0.7312 0.8222
H17_11 H 0.7651 0.7004 0.7960
C26_22 C 1.0000 0.7450(6) 0.7579(6)
H18_22 H 1.0000 0.7638 0.7413
N1_22 N 1.0000 0.9030(9) 0.6999(8)
N2_22 N 1.0000 0.6897(7) 0.5988(7)
O12_11 O 0.9719(2) 0.7321(3) 0.7689(3)
O13_22 O 1.0000 0.7437(7) 0.8434(6)
N3_11 N 0.8159(3) 0.6947(3) 0.8134(3)
C27_22 C 1.0000 0.6289(12) 0.8731(12)
H20_22 H 1.0000 0.6106 0.8902
H29_11 H 0.9817 0.7554 0.8378
Gd3_11 Gd 0.755772(18) 0.743840(18) 0.588630(12)
O23_11 O 0.7702(2) 0.7245(3) 0.6474(2)
C48_11 C 0.7944(4) 0.7015(4) 0.6537(4)
H30_11 H 0.8021 0.6944 0.6310
C49_11 C 0.8310(4) 0.6581(5) 0.6865(5)
H31_11 H 0.8438 0.6561 0.6642
H32_11 H 0.8477 0.6631 0.7056
H33_11 H 0.8188 0.6359 0.6914
C50_11 C 0.7838(6) 0.6975(5) 0.7155(4)
H34_11 H 0.7690 0.7177 0.7093
H35_11 H 0.7688 0.6778 0.7229
H36_11 H 0.7996 0.7040 0.7349
N4_11 N 0.8053(3) 0.6866(3) 0.6841(3)
Gd6_6 Gd 0.80957(2) 0.68663(3) 0.5000
O24_11 O 0.7011(3) 0.7426(3) 0.6172(3)
O25_11 O 0.7017(4) 0.7552(4) 0.5609(4)
O26_11 O 0.7592(3) 0.7996(3) 0.6166(2)
O27_11 O 0.7664(4) 0.7997(4) 0.5599(3)
O28_11 O 0.9121(3) 0.6814(3) 0.7613(3)
O30_11 O 0.9621(4) 0.6576(5) 0.7770(5)
O32_11 O 0.7542(3) 0.6814(3) 0.5869(3)
O35_11 O 0.7679(3) 0.7311(3) 0.5281(2)
O1_12 O 0.1172(3) 0.7989(3) 0.2426(3)
O2_12 O 0.0609(4) 0.7983(4) 0.2552(4)
O3_12 O 0.1166(2) 0.7408(3) 0.2996(3)
O4_12 O 0.0599(3) 0.7336(4) 0.2997(4)
O5_12 O 0.1814(3) 0.7387(3) 0.4121(3)
O6_12 O 0.1576(5) 0.7230(5) 0.4621(4)
O9_23 O 0.0000 0.6628(7) 0.1247(6)
O10_23 O 0.0000 0.6291(6) 0.1586(6)
O11_12 O 0.1474(2) 0.7298(2) 0.2245(3)
C1_12 C 0.0888(4) 0.8169(4) 0.2524(6)
C2_12 C 0.0906(3) 0.8556(4) 0.2615(5)
C3_12 C 0.0609(4) 0.8664(4) 0.2808(5)
H1_12 H 0.0408 0.8517 0.2836
C4_12 C 0.0625(4) 0.9002(5) 0.2956(6)
C5_12 C 0.0940(3) 0.9191(4) 0.2931(6)
H2_12 H 0.0954 0.9409 0.3054
C6_12 C 0.1238(4) 0.9084(4) 0.2741(5)
C7_12 C 0.1217(4) 0.8749(4) 0.2591(5)
H3_12 H 0.1415 0.8653 0.2471
C8_12 C 0.0306(4) 0.9142(5) 0.3148(5)
C9_12 C 0.0316(4) 0.9342(5) 0.3456(5)
H4_12 H 0.0528 0.9374 0.3584
C10_23 C 0.0000 0.9494(7) 0.3567(9)
H5_23 H 0.0000 0.9695 0.3716
C11_12 C 0.0883(4) 0.7328(5) 0.3153(4)
C12_12 C 0.0921(4) 0.7273(6) 0.3540(5)
C13_12 C 0.1229(4) 0.7319(7) 0.3733(4)
H6_12 H 0.1429 0.7422 0.3623
C14_12 C 0.1249(5) 0.7218(8) 0.4085(5)
C15_12 C 0.0951(5) 0.7065(6) 0.4235(6)
H7_12 H 0.0960 0.6992 0.4475
C16_12 C 0.0639(4) 0.7013(4) 0.4049(5)
C17_12 C 0.0624(5) 0.7080(5) 0.3689(5)
H8_12 H 0.0397 0.7036 0.3553
C18_12 C 0.0292(5) 0.6883(9) 0.4210(6)
C19_12 C 0.0301(6) 0.6745(10) 0.4549(7)
H9_12 H 0.0499 0.6774 0.4698
C20_23 C 0.0000 0.6591(13) 0.4692(12)
H10_23 H 0.0000 0.6427 0.4881
C21_12 C 0.1575(4) 0.7282(3) 0.4306(5)
C22_12 C 0.1595(4) 0.9221(3) 0.2757(3)
C23_12 C 0.1537(4) 0.7056(4) 0.2015(4)
H11_12 H 0.1310 0.6979 0.1944
C24_12 C 0.1865(5) 0.6690(4) 0.1581(5)
H12_12 H 0.1642 0.6562 0.1561
H13_12 H 0.2056 0.6523 0.1631
H14_12 H 0.1914 0.6812 0.1359
C25_12 C 0.2155(4) 0.7162(6) 0.1975(5)
H15_12 H 0.2093 0.7310 0.2177
H16_12 H 0.2229 0.7312 0.1778
H17_12 H 0.2349 0.7004 0.2040
C26_23 C -0.0000 0.7450(6) 0.2421(6)
H18_23 H 0.0000 0.7638 0.2587
N1_23 N 0.0000 0.9030(9) 0.3001(8)
N2_23 N -0.0000 0.6897(7) 0.4012(7)
O12_12 O 0.0281(2) 0.7321(3) 0.2311(3)
O13_23 O 0.0000 0.7437(7) 0.1566(6)
N3_12 N 0.1841(3) 0.6947(3) 0.1866(3)
C27_23 C 0.0000 0.6289(12) 0.1269(12)
H20_23 H 0.0000 0.6106 0.1098
H29_12 H 0.0183 0.7554 0.1622
Gd3_12 Gd 0.244228(18) 0.743840(18) 0.411370(12)
O23_12 O 0.2298(2) 0.7245(3) 0.3526(2)
C48_12 C 0.2056(4) 0.7015(4) 0.3463(4)
H30_12 H 0.1979 0.6944 0.3690
C49_12 C 0.1690(4) 0.6581(5) 0.3135(5)
H31_12 H 0.1562 0.6561 0.3358
H32_12 H 0.1523 0.6631 0.2944
H33_12 H 0.1812 0.6359 0.3086
C50_12 C 0.2162(6) 0.6975(5) 0.2845(4)
H34_12 H 0.2310 0.7177 0.2907
H35_12 H 0.2312 0.6778 0.2771
H36_12 H 0.2004 0.7040 0.2651
N4_12 N 0.1947(3) 0.6866(3) 0.3159(3)
O24_12 O 0.2989(3) 0.7426(3) 0.3828(3)
O25_12 O 0.2983(4) 0.7552(4) 0.4391(4)
O26_12 O 0.2408(3) 0.7996(3) 0.3834(2)
O27_12 O 0.2336(4) 0.7997(4) 0.4401(3)
O28_12 O 0.0879(3) 0.6814(3) 0.2387(3)
O30_12 O 0.0379(4) 0.6576(5) 0.2230(5)
O32_12 O 0.2458(3) 0.6814(3) 0.4131(3)
O35_12 O 0.2321(3) 0.7311(3) 0.4719(2)
O9_24 O 1.0000 0.6628(7) 0.1247(6)
O10_24 O 1.0000 0.6291(6) 0.1586(6)
C10_24 C 1.0000 0.9494(7) 0.3567(9)
H5_24 H 1.0000 0.9695 0.3716
C20_24 C 1.0000 0.6591(13) 0.4692(12)
H10_24 H 1.0000 0.6427 0.4881
C26_24 C 1.0000 0.7450(6) 0.2421(6)
H18_24 H 1.0000 0.7638 0.2587
N1_24 N 1.0000 0.9030(9) 0.3001(8)
N2_24 N 1.0000 0.6897(7) 0.4012(7)
O13_24 O 1.0000 0.7437(7) 0.1566(6)
H19_12 H 0.9817 0.7554 0.1622
C27_24 C 1.0000 0.6289(12) 0.1269(12)
H20_24 H 1.0000 0.6106 0.1098
O14_12 O 0.8828(3) 0.7989(3) 0.2426(3)
O15_12 O 0.9391(4) 0.7983(4) 0.2552(4)
O16_12 O 0.8186(3) 0.9131(3) 0.2542(3)
C28_12 C 0.9112(4) 0.8169(4) 0.2524(6)
C29_12 C 0.9094(3) 0.8556(4) 0.2615(5)
C30_12 C 0.9391(4) 0.8664(4) 0.2808(5)
H21_12 H 0.9592 0.8517 0.2836
C31_12 C 0.9375(4) 0.9002(5) 0.2956(6)
C32_12 C 0.9060(3) 0.9191(4) 0.2931(6)
H22_12 H 0.9046 0.9409 0.3054
C33_12 C 0.8762(4) 0.9084(4) 0.2741(5)
C34_12 C 0.8783(4) 0.8749(4) 0.2591(5)
H23_12 H 0.8585 0.8653 0.2471
C35_12 C 0.9694(4) 0.9142(5) 0.3148(5)
C36_12 C 0.9684(4) 0.9342(5) 0.3456(5)
H24_12 H 0.9472 0.9374 0.3584
C37_12 C 0.8405(4) 0.9221(3) 0.2757(3)
O18_12 O 0.8834(2) 0.7408(3) 0.2996(3)
O19_12 O 0.9401(3) 0.7336(4) 0.2997(4)
O20_12 O 0.8186(3) 0.7387(3) 0.4121(3)
O21_12 O 0.8424(5) 0.7230(5) 0.4621(4)
C38_12 C 0.9117(4) 0.7328(5) 0.3153(4)
C39_12 C 0.9079(4) 0.7273(6) 0.3540(5)
C40_12 C 0.8771(4) 0.7319(7) 0.3733(4)
H25_12 H 0.8571 0.7422 0.3623
C41_12 C 0.8751(5) 0.7218(8) 0.4085(5)
C42_12 C 0.9049(5) 0.7065(6) 0.4235(6)
H26_12 H 0.9040 0.6992 0.4475
C43_12 C 0.9361(4) 0.7013(4) 0.4049(5)
C44_12 C 0.9376(5) 0.7080(5) 0.3689(5)
H27_12 H 0.9603 0.7036 0.3553
C45_12 C 0.9708(5) 0.6883(9) 0.4210(6)
C46_12 C 0.9699(6) 0.6745(10) 0.4549(7)
H28_12 H 0.9501 0.6774 0.4698
C47_12 C 0.8425(4) 0.7282(3) 0.4306(5)
O22_12 O 0.9719(2) 0.7321(3) 0.2311(3)
Gd9_12 Gd 0.755772(18) 0.743840(18) 0.411370(12)
O29_12 O 0.9621(4) 0.6576(5) 0.2230(5)
O1_13 O 0.7426(3) 0.3828(3) 0.7011(3)
O2_13 O 0.7552(4) 0.4391(4) 0.7017(4)
O3_13 O 0.7996(3) 0.3834(2) 0.7592(3)
O4_13 O 0.7997(4) 0.4401(3) 0.7664(4)
O5_13 O 0.9121(3) 0.3186(3) 0.7613(3)
O7_9 O 0.7542(3) 0.3186(3) 0.5869(3)
O8_9 O 0.7995(4) 0.3350(4) 0.5577(4)
O9_25 O 0.6247(6) 0.5000 0.8372(7)
O10_25 O 0.6586(6) 0.5000 0.8709(6)
O11_13 O 0.7245(3) 0.3526(2) 0.7702(2)
C1_13 C 0.7524(6) 0.4112(4) 0.6831(4)
C2_13 C 0.7615(5) 0.4094(3) 0.6444(4)
C3_13 C 0.7808(5) 0.4391(4) 0.6336(4)
H1_13 H 0.7836 0.4592 0.6483
C4_13 C 0.7956(6) 0.4375(4) 0.5998(5)
C5_13 C 0.7931(6) 0.4060(3) 0.5809(4)
H2_13 H 0.8054 0.4046 0.5591
C6_13 C 0.7741(5) 0.3762(4) 0.5916(4)
C7_13 C 0.7591(5) 0.3783(4) 0.6251(4)
H3_13 H 0.7471 0.3585 0.6347
C8_13 C 0.8148(5) 0.4694(4) 0.5858(5)
C9_13 C 0.8456(5) 0.4684(4) 0.5658(5)
H4_13 H 0.8584 0.4472 0.5626
C10_25 C 0.8567(9) 0.5000 0.5506(7)
H5_25 H 0.8716 0.5000 0.5305
C11_13 C 0.8153(4) 0.4117(4) 0.7672(5)
C12_13 C 0.8540(5) 0.4079(4) 0.7727(6)
C13_13 C 0.8733(4) 0.3771(4) 0.7681(7)
H6_13 H 0.8623 0.3571 0.7578
C14_13 C 0.9085(5) 0.3751(5) 0.7782(8)
C15_13 C 0.9235(6) 0.4049(5) 0.7935(6)
H7_13 H 0.9475 0.4040 0.8008
C16_13 C 0.9049(5) 0.4361(4) 0.7987(4)
C17_13 C 0.8689(5) 0.4376(5) 0.7920(5)
H8_13 H 0.8553 0.4603 0.7964
C18_13 C 0.9210(6) 0.4708(5) 0.8117(9)
C19_13 C 0.9549(7) 0.4699(6) 0.8255(10)
H9_13 H 0.9698 0.4501 0.8226
C20_25 C 0.9692(12) 0.5000 0.8409(13)
H10_25 H 0.9881 0.5000 0.8573
C21_13 C 0.9306(5) 0.3425(4) 0.7718(3)
C22_13 C 0.7757(3) 0.3405(4) 0.5779(3)
C23_13 C 0.7015(4) 0.3463(4) 0.7944(4)
H11_13 H 0.6944 0.3690 0.8021
C24_13 C 0.6581(5) 0.3135(5) 0.8310(4)
H12_13 H 0.6561 0.3358 0.8438
H13_13 H 0.6631 0.2944 0.8477
H14_13 H 0.6359 0.3086 0.8188
C25_13 C 0.6975(5) 0.2845(4) 0.7838(6)
H15_13 H 0.7177 0.2907 0.7690
H16_13 H 0.6778 0.2771 0.7688
H17_13 H 0.7040 0.2651 0.7996
C26_25 C 0.7421(6) 0.5000 0.7550(6)
H18_25 H 0.7587 0.5000 0.7362
N1_25 N 0.8001(8) 0.5000 0.5970(9)
N2_25 N 0.9012(7) 0.5000 0.8103(7)
O12_13 O 0.7311(3) 0.4719(2) 0.7679(3)
O13_25 O 0.6566(6) 0.5000 0.7563(7)
H19_13 H 0.6622 0.5183 0.7446
N3_13 N 0.6866(3) 0.3159(3) 0.8053(3)
C27_25 C 0.6269(12) 0.5000 0.8711(12)
H20_25 H 0.6098 0.5000 0.8894
O17_9 O 0.7995(4) 0.6650(4) 0.5577(4)
C28_13 C 0.7524(6) 0.5888(4) 0.6831(4)
C29_13 C 0.7615(5) 0.5906(3) 0.6444(4)
C30_13 C 0.7808(5) 0.5609(4) 0.6336(4)
H21_13 H 0.7836 0.5408 0.6483
C31_13 C 0.7956(6) 0.5625(4) 0.5998(5)
C32_13 C 0.7931(6) 0.5940(3) 0.5809(4)
H22_13 H 0.8054 0.5954 0.5591
C33_13 C 0.7741(5) 0.6238(4) 0.5916(4)
C34_13 C 0.7591(5) 0.6217(4) 0.6251(4)
H23_13 H 0.7471 0.6415 0.6347
C35_13 C 0.8148(5) 0.5306(4) 0.5858(5)
C36_13 C 0.8456(5) 0.5316(4) 0.5658(5)
H24_13 H 0.8584 0.5528 0.5626
C37_13 C 0.7757(3) 0.6595(4) 0.5779(3)
C38_13 C 0.8153(4) 0.5883(4) 0.7672(5)
C39_13 C 0.8540(5) 0.5921(4) 0.7727(6)
C40_13 C 0.8733(4) 0.6229(4) 0.7681(7)
H25_13 H 0.8623 0.6429 0.7578
C41_13 C 0.9085(5) 0.6249(5) 0.7782(8)
C42_13 C 0.9235(6) 0.5951(5) 0.7935(6)
H26_13 H 0.9475 0.5960 0.8008
C43_13 C 0.9049(5) 0.5639(4) 0.7987(4)
C44_13 C 0.8689(5) 0.5624(5) 0.7920(5)
H27_13 H 0.8553 0.5397 0.7964
C45_13 C 0.9210(6) 0.5292(5) 0.8117(9)
C46_13 C 0.9549(7) 0.5301(6) 0.8255(10)
H28_13 H 0.9698 0.5499 0.8226
C47_13 C 0.9306(5) 0.6575(4) 0.7718(3)
H29_13 H 0.6622 0.4817 0.7446
O23_13 O 0.8526(2) 0.2702(2) 0.7755(3)
C48_13 C 0.8463(4) 0.2944(4) 0.7985(4)
H30_13 H 0.8690 0.3021 0.8056
C49_13 C 0.8135(5) 0.3310(4) 0.8419(5)
H31_13 H 0.8358 0.3438 0.8439
H32_13 H 0.7944 0.3477 0.8369
H33_13 H 0.8086 0.3188 0.8641
C50_13 C 0.7845(4) 0.2838(6) 0.8025(5)
H34_13 H 0.7907 0.2690 0.7823
H35_13 H 0.7771 0.2688 0.8222
H36_13 H 0.7651 0.2996 0.7960
N4_13 N 0.8159(3) 0.3053(3) 0.8134(3)
O31_5 O 0.6814(3) 0.4131(3) 0.7542(3)
O33_5 O 0.6650(4) 0.4423(4) 0.7995(4)
O34_5 O 0.6650(4) 0.5577(4) 0.7995(4)
O1_14 O 0.2574(3) 0.6172(3) 0.7011(3)
O2_14 O 0.2448(4) 0.5609(4) 0.7017(4)
O3_14 O 0.2004(3) 0.6166(2) 0.7592(3)
O4_14 O 0.2003(4) 0.5599(3) 0.7664(4)
O5_14 O 0.0879(3) 0.6814(3) 0.7613(3)
O7_10 O 0.2458(3) 0.6814(3) 0.5869(3)
O8_10 O 0.2005(4) 0.6650(4) 0.5577(4)
O9_26 O 0.3753(6) 0.5000 0.8372(7)
O10_26 O 0.3414(6) 0.5000 0.8709(6)
O11_14 O 0.2755(3) 0.6474(2) 0.7702(2)
C1_14 C 0.2476(6) 0.5888(4) 0.6831(4)
C2_14 C 0.2385(5) 0.5906(3) 0.6444(4)
C3_14 C 0.2192(5) 0.5609(4) 0.6336(4)
H1_14 H 0.2164 0.5408 0.6483
C4_14 C 0.2044(6) 0.5625(4) 0.5998(5)
C5_14 C 0.2069(6) 0.5940(3) 0.5809(4)
H2_14 H 0.1946 0.5954 0.5591
C6_14 C 0.2259(5) 0.6238(4) 0.5916(4)
C7_14 C 0.2409(5) 0.6217(4) 0.6251(4)
H3_14 H 0.2529 0.6415 0.6347
C8_14 C 0.1852(5) 0.5306(4) 0.5858(5)
C9_14 C 0.1544(5) 0.5316(4) 0.5658(5)
H4_14 H 0.1416 0.5528 0.5626
C10_26 C 0.1433(9) 0.5000 0.5506(7)
H5_26 H 0.1284 0.5000 0.5305
C11_14 C 0.1847(4) 0.5883(4) 0.7672(5)
C12_14 C 0.1460(5) 0.5921(4) 0.7727(6)
C13_14 C 0.1267(4) 0.6229(4) 0.7681(7)
H6_14 H 0.1377 0.6429 0.7578
C14_14 C 0.0915(5) 0.6249(5) 0.7782(8)
C15_14 C 0.0765(6) 0.5951(5) 0.7935(6)
H7_14 H 0.0525 0.5960 0.8008
C16_14 C 0.0951(5) 0.5639(4) 0.7987(4)
C17_14 C 0.1311(5) 0.5624(5) 0.7920(5)
H8_14 H 0.1447 0.5397 0.7964
C18_14 C 0.0790(6) 0.5292(5) 0.8117(9)
C19_14 C 0.0451(7) 0.5301(6) 0.8255(10)
H9_14 H 0.0302 0.5499 0.8226
C20_26 C 0.0308(12) 0.5000 0.8409(13)
H10_26 H 0.0119 0.5000 0.8573
C21_14 C 0.0694(5) 0.6575(4) 0.7718(3)
C22_14 C 0.2243(3) 0.6595(4) 0.5779(3)
C23_14 C 0.2985(4) 0.6537(4) 0.7944(4)
H11_14 H 0.3056 0.6310 0.8021
C24_14 C 0.3419(5) 0.6865(5) 0.8310(4)
H12_14 H 0.3439 0.6642 0.8438
H13_14 H 0.3369 0.7056 0.8477
H14_14 H 0.3641 0.6914 0.8188
C25_14 C 0.3025(5) 0.7155(4) 0.7838(6)
H15_14 H 0.2823 0.7093 0.7690
H16_14 H 0.3222 0.7229 0.7688
H17_14 H 0.2960 0.7349 0.7996
C26_26 C 0.2579(6) 0.5000 0.7550(6)
H18_26 H 0.2413 0.5000 0.7362
N1_26 N 0.1999(8) 0.5000 0.5970(9)
N2_26 N 0.0988(7) 0.5000 0.8103(7)
O12_14 O 0.2689(3) 0.5281(2) 0.7679(3)
O13_26 O 0.3434(6) 0.5000 0.7563(7)
H19_14 H 0.3378 0.4817 0.7446
N3_14 N 0.3134(3) 0.6841(3) 0.8053(3)
C27_26 C 0.3731(12) 0.5000 0.8711(12)
H20_26 H 0.3902 0.5000 0.8894
O17_10 O 0.2005(4) 0.3350(4) 0.5577(4)
C28_14 C 0.2476(6) 0.4112(4) 0.6831(4)
C29_14 C 0.2385(5) 0.4094(3) 0.6444(4)
C30_14 C 0.2192(5) 0.4391(4) 0.6336(4)
H21_14 H 0.2164 0.4592 0.6483
C31_14 C 0.2044(6) 0.4375(4) 0.5998(5)
C32_14 C 0.2069(6) 0.4060(3) 0.5809(4)
H22_14 H 0.1946 0.4046 0.5591
C33_14 C 0.2259(5) 0.3762(4) 0.5916(4)
C34_14 C 0.2409(5) 0.3783(4) 0.6251(4)
H23_14 H 0.2529 0.3585 0.6347
C35_14 C 0.1852(5) 0.4694(4) 0.5858(5)
C36_14 C 0.1544(5) 0.4684(4) 0.5658(5)
H24_14 H 0.1416 0.4472 0.5626
C37_14 C 0.2243(3) 0.3405(4) 0.5779(3)
C38_14 C 0.1847(4) 0.4117(4) 0.7672(5)
C39_14 C 0.1460(5) 0.4079(4) 0.7727(6)
C40_14 C 0.1267(4) 0.3771(4) 0.7681(7)
H25_14 H 0.1377 0.3571 0.7578
C41_14 C 0.0915(5) 0.3751(5) 0.7782(8)
C42_14 C 0.0765(6) 0.4049(5) 0.7935(6)
H26_14 H 0.0525 0.4040 0.8008
C43_14 C 0.0951(5) 0.4361(4) 0.7987(4)
C44_14 C 0.1311(5) 0.4376(5) 0.7920(5)
H27_14 H 0.1447 0.4603 0.7964
C45_14 C 0.0790(6) 0.4708(5) 0.8117(9)
C46_14 C 0.0451(7) 0.4699(6) 0.8255(10)
H28_14 H 0.0302 0.4501 0.8226
C47_14 C 0.0694(5) 0.3425(4) 0.7718(3)
H29_14 H 0.3378 0.5183 0.7446
O23_14 O 0.1474(2) 0.7298(2) 0.7755(3)
C48_14 C 0.1537(4) 0.7056(4) 0.7985(4)
H30_14 H 0.1310 0.6979 0.8056
C49_14 C 0.1865(5) 0.6690(4) 0.8419(5)
H31_14 H 0.1642 0.6562 0.8439
H32_14 H 0.2056 0.6523 0.8369
H33_14 H 0.1914 0.6812 0.8641
C50_14 C 0.2155(4) 0.7162(6) 0.8025(5)
H34_14 H 0.2093 0.7310 0.7823
H35_14 H 0.2229 0.7312 0.8222
H36_14 H 0.2349 0.7004 0.7960
N4_14 N 0.1841(3) 0.6947(3) 0.8134(3)
O31_6 O 0.3186(3) 0.5869(3) 0.7542(3)
O33_6 O 0.3350(4) 0.5577(4) 0.7995(4)
O34_6 O 0.3350(4) 0.4423(4) 0.7995(4)
O1_15 O 0.2574(3) 0.3828(3) 0.2989(3)
O2_15 O 0.2448(4) 0.4391(4) 0.2983(4)
O3_15 O 0.2004(3) 0.3834(2) 0.2408(3)
O4_15 O 0.2003(4) 0.4401(3) 0.2336(4)
O5_15 O 0.0879(3) 0.3186(3) 0.2387(3)
O7_11 O 0.2458(3) 0.3186(3) 0.4131(3)
O8_11 O 0.2005(4) 0.3350(4) 0.4423(4)
O9_27 O 0.3753(6) 0.5000 0.1628(7)
O10_27 O 0.3414(6) 0.5000 0.1291(6)
O11_15 O 0.2755(3) 0.3526(2) 0.2298(2)
C1_15 C 0.2476(6) 0.4112(4) 0.3169(4)
C2_15 C 0.2385(5) 0.4094(3) 0.3556(4)
C3_15 C 0.2192(5) 0.4391(4) 0.3664(4)
H1_15 H 0.2164 0.4592 0.3517
C4_15 C 0.2044(6) 0.4375(4) 0.4002(5)
C5_15 C 0.2069(6) 0.4060(3) 0.4191(4)
H2_15 H 0.1946 0.4046 0.4409
C6_15 C 0.2259(5) 0.3762(4) 0.4084(4)
C7_15 C 0.2409(5) 0.3783(4) 0.3749(4)
H3_15 H 0.2529 0.3585 0.3653
C8_15 C 0.1852(5) 0.4694(4) 0.4142(5)
C9_15 C 0.1544(5) 0.4684(4) 0.4342(5)
H4_15 H 0.1416 0.4472 0.4374
C10_27 C 0.1433(9) 0.5000 0.4494(7)
H5_27 H 0.1284 0.5000 0.4695
C11_15 C 0.1847(4) 0.4117(4) 0.2328(5)
C12_15 C 0.1460(5) 0.4079(4) 0.2273(6)
C13_15 C 0.1267(4) 0.3771(4) 0.2319(7)
H6_15 H 0.1377 0.3571 0.2422
C14_15 C 0.0915(5) 0.3751(5) 0.2218(8)
C15_15 C 0.0765(6) 0.4049(5) 0.2065(6)
H7_15 H 0.0525 0.4040 0.1992
C16_15 C 0.0951(5) 0.4361(4) 0.2013(4)
C17_15 C 0.1311(5) 0.4376(5) 0.2080(5)
H8_15 H 0.1447 0.4603 0.2036
C18_15 C 0.0790(6) 0.4708(5) 0.1883(9)
C19_15 C 0.0451(7) 0.4699(6) 0.1745(10)
H9_15 H 0.0302 0.4501 0.1774
C20_27 C 0.0308(12) 0.5000 0.1591(13)
H10_27 H 0.0119 0.5000 0.1427
C21_15 C 0.0694(5) 0.3425(4) 0.2282(3)
C22_15 C 0.2243(3) 0.3405(4) 0.4221(3)
C23_15 C 0.2985(4) 0.3463(4) 0.2056(4)
H11_15 H 0.3056 0.3690 0.1979
C24_15 C 0.3419(5) 0.3135(5) 0.1690(4)
H12_15 H 0.3439 0.3358 0.1562
H13_15 H 0.3369 0.2944 0.1523
H14_15 H 0.3641 0.3086 0.1812
C25_15 C 0.3025(5) 0.2845(4) 0.2162(6)
H15_15 H 0.2823 0.2907 0.2310
H16_15 H 0.3222 0.2771 0.2312
H17_15 H 0.2960 0.2651 0.2004
C26_27 C 0.2579(6) 0.5000 0.2450(6)
H18_27 H 0.2413 0.5000 0.2638
N1_27 N 0.1999(8) 0.5000 0.4030(9)
N2_27 N 0.0988(7) 0.5000 0.1897(7)
O12_15 O 0.2689(3) 0.4719(2) 0.2321(3)
O13_27 O 0.3434(6) 0.5000 0.2437(7)
H19_15 H 0.3378 0.5183 0.2554
N3_15 N 0.3134(3) 0.3159(3) 0.1947(3)
C27_27 C 0.3731(12) 0.5000 0.1289(12)
H20_27 H 0.3902 0.5000 0.1106
O17_11 O 0.2005(4) 0.6650(4) 0.4423(4)
C28_15 C 0.2476(6) 0.5888(4) 0.3169(4)
C29_15 C 0.2385(5) 0.5906(3) 0.3556(4)
C30_15 C 0.2192(5) 0.5609(4) 0.3664(4)
H21_15 H 0.2164 0.5408 0.3517
C31_15 C 0.2044(6) 0.5625(4) 0.4002(5)
C32_15 C 0.2069(6) 0.5940(3) 0.4191(4)
H22_15 H 0.1946 0.5954 0.4409
C33_15 C 0.2259(5) 0.6238(4) 0.4084(4)
C34_15 C 0.2409(5) 0.6217(4) 0.3749(4)
H23_15 H 0.2529 0.6415 0.3653
C35_15 C 0.1852(5) 0.5306(4) 0.4142(5)
C36_15 C 0.1544(5) 0.5316(4) 0.4342(5)
H24_15 H 0.1416 0.5528 0.4374
C37_15 C 0.2243(3) 0.6595(4) 0.4221(3)
C38_15 C 0.1847(4) 0.5883(4) 0.2328(5)
C39_15 C 0.1460(5) 0.5921(4) 0.2273(6)
C40_15 C 0.1267(4) 0.6229(4) 0.2319(7)
H25_15 H 0.1377 0.6429 0.2422
C41_15 C 0.0915(5) 0.6249(5) 0.2218(8)
C42_15 C 0.0765(6) 0.5951(5) 0.2065(6)
H26_15 H 0.0525 0.5960 0.1992
C43_15 C 0.0951(5) 0.5639(4) 0.2013(4)
C44_15 C 0.1311(5) 0.5624(5) 0.2080(5)
H27_15 H 0.1447 0.5397 0.2036
C45_15 C 0.0790(6) 0.5292(5) 0.1883(9)
C46_15 C 0.0451(7) 0.5301(6) 0.1745(10)
H28_15 H 0.0302 0.5499 0.1774
C47_15 C 0.0694(5) 0.6575(4) 0.2282(3)
H29_15 H 0.3378 0.4817 0.2554
O23_15 O 0.1474(2) 0.2702(2) 0.2245(3)
C48_15 C 0.1537(4) 0.2944(4) 0.2015(4)
H30_15 H 0.1310 0.3021 0.1944
C49_15 C 0.1865(5) 0.3310(4) 0.1581(5)
H31_15 H 0.1642 0.3438 0.1561
H32_15 H 0.2056 0.3477 0.1631
H33_15 H 0.1914 0.3188 0.1359
C50_15 C 0.2155(4) 0.2838(6) 0.1975(5)
H34_15 H 0.2093 0.2690 0.2177
H35_15 H 0.2229 0.2688 0.1778
H36_15 H 0.2349 0.2996 0.2040
N4_15 N 0.1841(3) 0.3053(3) 0.1866(3)
O31_7 O 0.3186(3) 0.4131(3) 0.2458(3)
O33_7 O 0.3350(4) 0.4423(4) 0.2005(4)
O34_7 O 0.3350(4) 0.5577(4) 0.2005(4)
O1_16 O 0.7426(3) 0.6172(3) 0.2989(3)
O2_16 O 0.7552(4) 0.5609(4) 0.2983(4)
O3_16 O 0.7996(3) 0.6166(2) 0.2408(3)
O4_16 O 0.7997(4) 0.5599(3) 0.2336(4)
O5_16 O 0.9121(3) 0.6814(3) 0.2387(3)
O7_12 O 0.7542(3) 0.6814(3) 0.4131(3)
O8_12 O 0.7995(4) 0.6650(4) 0.4423(4)
O9_28 O 0.6247(6) 0.5000 0.1628(7)
O10_28 O 0.6586(6) 0.5000 0.1291(6)
O11_16 O 0.7245(3) 0.6474(2) 0.2298(2)
C1_16 C 0.7524(6) 0.5888(4) 0.3169(4)
C2_16 C 0.7615(5) 0.5906(3) 0.3556(4)
C3_16 C 0.7808(5) 0.5609(4) 0.3664(4)
H1_16 H 0.7836 0.5408 0.3517
C4_16 C 0.7956(6) 0.5625(4) 0.4002(5)
C5_16 C 0.7931(6) 0.5940(3) 0.4191(4)
H2_16 H 0.8054 0.5954 0.4409
C6_16 C 0.7741(5) 0.6238(4) 0.4084(4)
C7_16 C 0.7591(5) 0.6217(4) 0.3749(4)
H3_16 H 0.7471 0.6415 0.3653
C8_16 C 0.8148(5) 0.5306(4) 0.4142(5)
C9_16 C 0.8456(5) 0.5316(4) 0.4342(5)
H4_16 H 0.8584 0.5528 0.4374
C10_28 C 0.8567(9) 0.5000 0.4494(7)
H5_28 H 0.8716 0.5000 0.4695
C11_16 C 0.8153(4) 0.5883(4) 0.2328(5)
C12_16 C 0.8540(5) 0.5921(4) 0.2273(6)
C13_16 C 0.8733(4) 0.6229(4) 0.2319(7)
H6_16 H 0.8623 0.6429 0.2422
C14_16 C 0.9085(5) 0.6249(5) 0.2218(8)
C15_16 C 0.9235(6) 0.5951(5) 0.2065(6)
H7_16 H 0.9475 0.5960 0.1992
C16_16 C 0.9049(5) 0.5639(4) 0.2013(4)
C17_16 C 0.8689(5) 0.5624(5) 0.2080(5)
H8_16 H 0.8553 0.5397 0.2036
C18_16 C 0.9210(6) 0.5292(5) 0.1883(9)
C19_16 C 0.9549(7) 0.5301(6) 0.1745(10)
H9_16 H 0.9698 0.5499 0.1774
C20_28 C 0.9692(12) 0.5000 0.1591(13)
H10_28 H 0.9881 0.5000 0.1427
C21_16 C 0.9306(5) 0.6575(4) 0.2282(3)
C22_16 C 0.7757(3) 0.6595(4) 0.4221(3)
C23_16 C 0.7015(4) 0.6537(4) 0.2056(4)
H11_16 H 0.6944 0.6310 0.1979
C24_16 C 0.6581(5) 0.6865(5) 0.1690(4)
H12_16 H 0.6561 0.6642 0.1562
H13_16 H 0.6631 0.7056 0.1523
H14_16 H 0.6359 0.6914 0.1812
C25_16 C 0.6975(5) 0.7155(4) 0.2162(6)
H15_16 H 0.7177 0.7093 0.2310
H16_16 H 0.6778 0.7229 0.2312
H17_16 H 0.7040 0.7349 0.2004
C26_28 C 0.7421(6) 0.5000 0.2450(6)
H18_28 H 0.7587 0.5000 0.2638
N1_28 N 0.8001(8) 0.5000 0.4030(9)
N2_28 N 0.9012(7) 0.5000 0.1897(7)
O12_16 O 0.7311(3) 0.5281(2) 0.2321(3)
O13_28 O 0.6566(6) 0.5000 0.2437(7)
H19_16 H 0.6622 0.4817 0.2554
N3_16 N 0.6866(3) 0.6841(3) 0.1947(3)
C27_28 C 0.6269(12) 0.5000 0.1289(12)
H20_28 H 0.6098 0.5000 0.1106
O17_12 O 0.7995(4) 0.3350(4) 0.4423(4)
C28_16 C 0.7524(6) 0.4112(4) 0.3169(4)
C29_16 C 0.7615(5) 0.4094(3) 0.3556(4)
C30_16 C 0.7808(5) 0.4391(4) 0.3664(4)
H21_16 H 0.7836 0.4592 0.3517
C31_16 C 0.7956(6) 0.4375(4) 0.4002(5)
C32_16 C 0.7931(6) 0.4060(3) 0.4191(4)
H22_16 H 0.8054 0.4046 0.4409
C33_16 C 0.7741(5) 0.3762(4) 0.4084(4)
C34_16 C 0.7591(5) 0.3783(4) 0.3749(4)
H23_16 H 0.7471 0.3585 0.3653
C35_16 C 0.8148(5) 0.4694(4) 0.4142(5)
C36_16 C 0.8456(5) 0.4684(4) 0.4342(5)
H24_16 H 0.8584 0.4472 0.4374
C37_16 C 0.7757(3) 0.3405(4) 0.4221(3)
C38_16 C 0.8153(4) 0.4117(4) 0.2328(5)
C39_16 C 0.8540(5) 0.4079(4) 0.2273(6)
C40_16 C 0.8733(4) 0.3771(4) 0.2319(7)
H25_16 H 0.8623 0.3571 0.2422
C41_16 C 0.9085(5) 0.3751(5) 0.2218(8)
C42_16 C 0.9235(6) 0.4049(5) 0.2065(6)
H26_16 H 0.9475 0.4040 0.1992
C43_16 C 0.9049(5) 0.4361(4) 0.2013(4)
C44_16 C 0.8689(5) 0.4376(5) 0.2080(5)
H27_16 H 0.8553 0.4603 0.2036
C45_16 C 0.9210(6) 0.4708(5) 0.1883(9)
C46_16 C 0.9549(7) 0.4699(6) 0.1745(10)
H28_16 H 0.9698 0.4501 0.1774
C47_16 C 0.9306(5) 0.3425(4) 0.2282(3)
H29_16 H 0.6622 0.5183 0.2554
O23_16 O 0.8526(2) 0.7298(2) 0.2245(3)
C48_16 C 0.8463(4) 0.7056(4) 0.2015(4)
H30_16 H 0.8690 0.6979 0.1944
C49_16 C 0.8135(5) 0.6690(4) 0.1581(5)
H31_16 H 0.8358 0.6562 0.1561
H32_16 H 0.7944 0.6523 0.1631
H33_16 H 0.8086 0.6812 0.1359
C50_16 C 0.7845(4) 0.7162(6) 0.1975(5)
H34_16 H 0.7907 0.7310 0.2177
H35_16 H 0.7771 0.7312 0.1778
H36_16 H 0.7651 0.7004 0.2040
N4_16 N 0.8159(3) 0.6947(3) 0.1866(3)
O31_8 O 0.6814(3) 0.5869(3) 0.2458(3)
O33_8 O 0.6650(4) 0.5577(4) 0.2005(4)
O34_8 O 0.6650(4) 0.4423(4) 0.2005(4)
O1_17 O 0.7011(3) 0.7426(3) 0.3828(3)
O2_17 O 0.7017(4) 0.7552(4) 0.4391(4)
O3_17 O 0.7592(3) 0.7996(3) 0.3834(2)
O4_17 O 0.7664(4) 0.7997(4) 0.4401(3)
O5_17 O 0.7613(3) 0.9121(3) 0.3186(3)
O7_13 O 0.5869(3) 0.7542(3) 0.3186(3)
O8_13 O 0.5577(4) 0.7995(4) 0.3350(4)
O9_29 O 0.8372(7) 0.6247(6) 0.5000
O10_29 O 0.8709(6) 0.6586(6) 0.5000
O11_17 O 0.7702(2) 0.7245(3) 0.3526(2)
C1_17 C 0.6831(4) 0.7524(6) 0.4112(4)
C2_17 C 0.6444(4) 0.7615(5) 0.4094(3)
C3_17 C 0.6336(4) 0.7808(5) 0.4391(4)
H1_17 H 0.6483 0.7836 0.4592
C4_17 C 0.5998(5) 0.7956(6) 0.4375(4)
C5_17 C 0.5809(4) 0.7931(6) 0.4060(3)
H2_17 H 0.5591 0.8054 0.4046
C6_17 C 0.5916(4) 0.7741(5) 0.3762(4)
C7_17 C 0.6251(4) 0.7591(5) 0.3783(4)
H3_17 H 0.6347 0.7471 0.3585
C8_17 C 0.5858(5) 0.8148(5) 0.4694(4)
C9_17 C 0.5658(5) 0.8456(5) 0.4684(4)
H4_17 H 0.5626 0.8584 0.4472
C10_29 C 0.5506(7) 0.8567(9) 0.5000
H5_29 H 0.5305 0.8716 0.5000
C11_17 C 0.7672(5) 0.8153(4) 0.4117(4)
C12_17 C 0.7727(6) 0.8540(5) 0.4079(4)
C13_17 C 0.7681(7) 0.8733(4) 0.3771(4)
H6_17 H 0.7578 0.8623 0.3571
C14_17 C 0.7782(8) 0.9085(5) 0.3751(5)
C15_17 C 0.7935(6) 0.9235(6) 0.4049(5)
H7_17 H 0.8008 0.9475 0.4040
C16_17 C 0.7987(4) 0.9049(5) 0.4361(4)
C17_17 C 0.7920(5) 0.8689(5) 0.4376(5)
H8_17 H 0.7964 0.8553 0.4603
C18_17 C 0.8117(9) 0.9210(6) 0.4708(5)
C19_17 C 0.8255(10) 0.9549(7) 0.4699(6)
H9_17 H 0.8226 0.9698 0.4501
C20_29 C 0.8409(13) 0.9692(12) 0.5000
H10_29 H 0.8573 0.9881 0.5000
C21_17 C 0.7718(3) 0.9306(5) 0.3425(4)
C22_17 C 0.5779(3) 0.7757(3) 0.3405(4)
C23_17 C 0.7944(4) 0.7015(4) 0.3463(4)
H11_17 H 0.8021 0.6944 0.3690
C24_17 C 0.8310(4) 0.6581(5) 0.3135(5)
H12_17 H 0.8438 0.6561 0.3358
H13_17 H 0.8477 0.6631 0.2944
H14_17 H 0.8188 0.6359 0.3086
C25_17 C 0.7838(6) 0.6975(5) 0.2845(4)
H15_17 H 0.7690 0.7177 0.2907
H16_17 H 0.7688 0.6778 0.2771
H17_17 H 0.7996 0.7040 0.2651
C26_29 C 0.7550(6) 0.7421(6) 0.5000
H18_29 H 0.7362 0.7587 0.5000
N1_29 N 0.5970(9) 0.8001(8) 0.5000
N2_29 N 0.8103(7) 0.9012(7) 0.5000
O12_17 O 0.7679(3) 0.7311(3) 0.4719(2)
O13_29 O 0.7563(7) 0.6566(6) 0.5000
H19_17 H 0.7446 0.6622 0.5183
N3_17 N 0.8053(3) 0.6866(3) 0.3159(3)
C27_29 C 0.8711(12) 0.6269(12) 0.5000
H20_29 H 0.8894 0.6098 0.5000
O17_13 O 0.5577(4) 0.7995(4) 0.6650(4)
C28_17 C 0.6831(4) 0.7524(6) 0.5888(4)
C29_17 C 0.6444(4) 0.7615(5) 0.5906(3)
C30_17 C 0.6336(4) 0.7808(5) 0.5609(4)
H21_17 H 0.6483 0.7836 0.5408
C31_17 C 0.5998(5) 0.7956(6) 0.5625(4)
C32_17 C 0.5809(4) 0.7931(6) 0.5940(3)
H22_17 H 0.5591 0.8054 0.5954
C33_17 C 0.5916(4) 0.7741(5) 0.6238(4)
C34_17 C 0.6251(4) 0.7591(5) 0.6217(4)
H23_17 H 0.6347 0.7471 0.6415
C35_17 C 0.5858(5) 0.8148(5) 0.5306(4)
C36_17 C 0.5658(5) 0.8456(5) 0.5316(4)
H24_17 H 0.5626 0.8584 0.5528
C37_17 C 0.5779(3) 0.7757(3) 0.6595(4)
C38_17 C 0.7672(5) 0.8153(4) 0.5883(4)
C39_17 C 0.7727(6) 0.8540(5) 0.5921(4)
C40_17 C 0.7681(7) 0.8733(4) 0.6229(4)
H25_17 H 0.7578 0.8623 0.6429
C41_17 C 0.7782(8) 0.9085(5) 0.6249(5)
C42_17 C 0.7935(6) 0.9235(6) 0.5951(5)
H26_17 H 0.8008 0.9475 0.5960
C43_17 C 0.7987(4) 0.9049(5) 0.5639(4)
C44_17 C 0.7920(5) 0.8689(5) 0.5624(5)
H27_17 H 0.7964 0.8553 0.5397
C45_17 C 0.8117(9) 0.9210(6) 0.5292(5)
C46_17 C 0.8255(10) 0.9549(7) 0.5301(6)
H28_17 H 0.8226 0.9698 0.5499
C47_17 C 0.7718(3) 0.9306(5) 0.6575(4)
H29_17 H 0.7446 0.6622 0.4817
O23_17 O 0.7755(3) 0.8526(2) 0.2702(2)
C48_17 C 0.7985(4) 0.8463(4) 0.2944(4)
H30_17 H 0.8056 0.8690 0.3021
C49_17 C 0.8419(5) 0.8135(5) 0.3310(4)
H31_17 H 0.8439 0.8358 0.3438
H32_17 H 0.8369 0.7944 0.3477
H33_17 H 0.8641 0.8086 0.3188
C50_17 C 0.8025(5) 0.7845(4) 0.2838(6)
H34_17 H 0.7823 0.7907 0.2690
H35_17 H 0.8222 0.7771 0.2688
H36_17 H 0.7960 0.7651 0.2996
N4_17 N 0.8134(3) 0.8159(3) 0.3053(3)
O1_18 O 0.7011(3) 0.2574(3) 0.6172(3)
O2_18 O 0.7017(4) 0.2448(4) 0.5609(4)
O3_18 O 0.7592(3) 0.2004(3) 0.6166(2)
O4_18 O 0.7664(4) 0.2003(4) 0.5599(3)
O5_18 O 0.7613(3) 0.0879(3) 0.6814(3)
O7_14 O 0.5869(3) 0.2458(3) 0.6814(3)
O8_14 O 0.5577(4) 0.2005(4) 0.6650(4)
O9_30 O 0.8372(7) 0.3753(6) 0.5000
O10_30 O 0.8709(6) 0.3414(6) 0.5000
O11_18 O 0.7702(2) 0.2755(3) 0.6474(2)
C1_18 C 0.6831(4) 0.2476(6) 0.5888(4)
C2_18 C 0.6444(4) 0.2385(5) 0.5906(3)
C3_18 C 0.6336(4) 0.2192(5) 0.5609(4)
H1_18 H 0.6483 0.2164 0.5408
C4_18 C 0.5998(5) 0.2044(6) 0.5625(4)
C5_18 C 0.5809(4) 0.2069(6) 0.5940(3)
H2_18 H 0.5591 0.1946 0.5954
C6_18 C 0.5916(4) 0.2259(5) 0.6238(4)
C7_18 C 0.6251(4) 0.2409(5) 0.6217(4)
H3_18 H 0.6347 0.2529 0.6415
C8_18 C 0.5858(5) 0.1852(5) 0.5306(4)
C9_18 C 0.5658(5) 0.1544(5) 0.5316(4)
H4_18 H 0.5626 0.1416 0.5528
C10_30 C 0.5506(7) 0.1433(9) 0.5000
H5_30 H 0.5305 0.1284 0.5000
C11_18 C 0.7672(5) 0.1847(4) 0.5883(4)
C12_18 C 0.7727(6) 0.1460(5) 0.5921(4)
C13_18 C 0.7681(7) 0.1267(4) 0.6229(4)
H6_18 H 0.7578 0.1377 0.6429
C14_18 C 0.7782(8) 0.0915(5) 0.6249(5)
C15_18 C 0.7935(6) 0.0765(6) 0.5951(5)
H7_18 H 0.8008 0.0525 0.5960
C16_18 C 0.7987(4) 0.0951(5) 0.5639(4)
C17_18 C 0.7920(5) 0.1311(5) 0.5624(5)
H8_18 H 0.7964 0.1447 0.5397
C18_18 C 0.8117(9) 0.0790(6) 0.5292(5)
C19_18 C 0.8255(10) 0.0451(7) 0.5301(6)
H9_18 H 0.8226 0.0302 0.5499
C20_30 C 0.8409(13) 0.0308(12) 0.5000
H10_30 H 0.8573 0.0119 0.5000
C21_18 C 0.7718(3) 0.0694(5) 0.6575(4)
C22_18 C 0.5779(3) 0.2243(3) 0.6595(4)
C23_18 C 0.7944(4) 0.2985(4) 0.6537(4)
H11_18 H 0.8021 0.3056 0.6310
C24_18 C 0.8310(4) 0.3419(5) 0.6865(5)
H12_18 H 0.8438 0.3439 0.6642
H13_18 H 0.8477 0.3369 0.7056
H14_18 H 0.8188 0.3641 0.6914
C25_18 C 0.7838(6) 0.3025(5) 0.7155(4)
H15_18 H 0.7690 0.2823 0.7093
H16_18 H 0.7688 0.3222 0.7229
H17_18 H 0.7996 0.2960 0.7349
C26_30 C 0.7550(6) 0.2579(6) 0.5000
H18_30 H 0.7362 0.2413 0.5000
N1_30 N 0.5970(9) 0.1999(8) 0.5000
N2_30 N 0.8103(7) 0.0988(7) 0.5000
O12_18 O 0.7679(3) 0.2689(3) 0.5281(2)
O13_30 O 0.7563(7) 0.3434(6) 0.5000
H19_18 H 0.7446 0.3378 0.4817
N3_18 N 0.8053(3) 0.3134(3) 0.6841(3)
C27_30 C 0.8711(12) 0.3731(12) 0.5000
H20_30 H 0.8894 0.3902 0.5000
O17_14 O 0.5577(4) 0.2005(4) 0.3350(4)
C28_18 C 0.6831(4) 0.2476(6) 0.4112(4)
C29_18 C 0.6444(4) 0.2385(5) 0.4094(3)
C30_18 C 0.6336(4) 0.2192(5) 0.4391(4)
H21_18 H 0.6483 0.2164 0.4592
C31_18 C 0.5998(5) 0.2044(6) 0.4375(4)
C32_18 C 0.5809(4) 0.2069(6) 0.4060(3)
H22_18 H 0.5591 0.1946 0.4046
C33_18 C 0.5916(4) 0.2259(5) 0.3762(4)
C34_18 C 0.6251(4) 0.2409(5) 0.3783(4)
H23_18 H 0.6347 0.2529 0.3585
C35_18 C 0.5858(5) 0.1852(5) 0.4694(4)
C36_18 C 0.5658(5) 0.1544(5) 0.4684(4)
H24_18 H 0.5626 0.1416 0.4472
C37_18 C 0.5779(3) 0.2243(3) 0.3405(4)
C38_18 C 0.7672(5) 0.1847(4) 0.4117(4)
C39_18 C 0.7727(6) 0.1460(5) 0.4079(4)
C40_18 C 0.7681(7) 0.1267(4) 0.3771(4)
H25_18 H 0.7578 0.1377 0.3571
C41_18 C 0.7782(8) 0.0915(5) 0.3751(5)
C42_18 C 0.7935(6) 0.0765(6) 0.4049(5)
H26_18 H 0.8008 0.0525 0.4040
C43_18 C 0.7987(4) 0.0951(5) 0.4361(4)
C44_18 C 0.7920(5) 0.1311(5) 0.4376(5)
H27_18 H 0.7964 0.1447 0.4603
C45_18 C 0.8117(9) 0.0790(6) 0.4708(5)
C46_18 C 0.8255(10) 0.0451(7) 0.4699(6)
H28_18 H 0.8226 0.0302 0.4501
C47_18 C 0.7718(3) 0.0694(5) 0.3425(4)
H29_18 H 0.7446 0.3378 0.5183
O23_18 O 0.7755(3) 0.1474(2) 0.7298(2)
C48_18 C 0.7985(4) 0.1537(4) 0.7056(4)
H30_18 H 0.8056 0.1310 0.6979
C49_18 C 0.8419(5) 0.1865(5) 0.6690(4)
H31_18 H 0.8439 0.1642 0.6562
H32_18 H 0.8369 0.2056 0.6523
H33_18 H 0.8641 0.1914 0.6812
C50_18 C 0.8025(5) 0.2155(4) 0.7162(6)
H34_18 H 0.7823 0.2093 0.7310
H35_18 H 0.8222 0.2229 0.7312
H36_18 H 0.7960 0.2349 0.7004
N4_18 N 0.8134(3) 0.1841(3) 0.6947(3)
O1_19 O 0.2989(3) 0.2574(3) 0.3828(3)
O2_19 O 0.2983(4) 0.2448(4) 0.4391(4)
O3_19 O 0.2408(3) 0.2004(3) 0.3834(2)
O4_19 O 0.2336(4) 0.2003(4) 0.4401(3)
O5_19 O 0.2387(3) 0.0879(3) 0.3186(3)
O7_15 O 0.4131(3) 0.2458(3) 0.3186(3)
O8_15 O 0.4423(4) 0.2005(4) 0.3350(4)
O9_31 O 0.1628(7) 0.3753(6) 0.5000
O10_31 O 0.1291(6) 0.3414(6) 0.5000
O11_19 O 0.2298(2) 0.2755(3) 0.3526(2)
C1_19 C 0.3169(4) 0.2476(6) 0.4112(4)
C2_19 C 0.3556(4) 0.2385(5) 0.4094(3)
C3_19 C 0.3664(4) 0.2192(5) 0.4391(4)
H1_19 H 0.3517 0.2164 0.4592
C4_19 C 0.4002(5) 0.2044(6) 0.4375(4)
C5_19 C 0.4191(4) 0.2069(6) 0.4060(3)
H2_19 H 0.4409 0.1946 0.4046
C6_19 C 0.4084(4) 0.2259(5) 0.3762(4)
C7_19 C 0.3749(4) 0.2409(5) 0.3783(4)
H3_19 H 0.3653 0.2529 0.3585
C8_19 C 0.4142(5) 0.1852(5) 0.4694(4)
C9_19 C 0.4342(5) 0.1544(5) 0.4684(4)
H4_19 H 0.4374 0.1416 0.4472
C10_31 C 0.4494(7) 0.1433(9) 0.5000
H5_31 H 0.4695 0.1284 0.5000
C11_19 C 0.2328(5) 0.1847(4) 0.4117(4)
C12_19 C 0.2273(6) 0.1460(5) 0.4079(4)
C13_19 C 0.2319(7) 0.1267(4) 0.3771(4)
H6_19 H 0.2422 0.1377 0.3571
C14_19 C 0.2218(8) 0.0915(5) 0.3751(5)
C15_19 C 0.2065(6) 0.0765(6) 0.4049(5)
H7_19 H 0.1992 0.0525 0.4040
C16_19 C 0.2013(4) 0.0951(5) 0.4361(4)
C17_19 C 0.2080(5) 0.1311(5) 0.4376(5)
H8_19 H 0.2036 0.1447 0.4603
C18_19 C 0.1883(9) 0.0790(6) 0.4708(5)
C19_19 C 0.1745(10) 0.0451(7) 0.4699(6)
H9_19 H 0.1774 0.0302 0.4501
C20_31 C 0.1591(13) 0.0308(12) 0.5000
H10_31 H 0.1427 0.0119 0.5000
C21_19 C 0.2282(3) 0.0694(5) 0.3425(4)
C22_19 C 0.4221(3) 0.2243(3) 0.3405(4)
C23_19 C 0.2056(4) 0.2985(4) 0.3463(4)
H11_19 H 0.1979 0.3056 0.3690
C24_19 C 0.1690(4) 0.3419(5) 0.3135(5)
H12_19 H 0.1562 0.3439 0.3358
H13_19 H 0.1523 0.3369 0.2944
H14_19 H 0.1812 0.3641 0.3086
C25_19 C 0.2162(6) 0.3025(5) 0.2845(4)
H15_19 H 0.2310 0.2823 0.2907
H16_19 H 0.2312 0.3222 0.2771
H17_19 H 0.2004 0.2960 0.2651
C26_31 C 0.2450(6) 0.2579(6) 0.5000
H18_31 H 0.2638 0.2413 0.5000
N1_31 N 0.4030(9) 0.1999(8) 0.5000
N2_31 N 0.1897(7) 0.0988(7) 0.5000
O12_19 O 0.2321(3) 0.2689(3) 0.4719(2)
O13_31 O 0.2437(7) 0.3434(6) 0.5000
H19_19 H 0.2554 0.3378 0.5183
N3_19 N 0.1947(3) 0.3134(3) 0.3159(3)
C27_31 C 0.1289(12) 0.3731(12) 0.5000
H20_31 H 0.1106 0.3902 0.5000
O17_15 O 0.4423(4) 0.2005(4) 0.6650(4)
C28_19 C 0.3169(4) 0.2476(6) 0.5888(4)
C29_19 C 0.3556(4) 0.2385(5) 0.5906(3)
C30_19 C 0.3664(4) 0.2192(5) 0.5609(4)
H21_19 H 0.3517 0.2164 0.5408
C31_19 C 0.4002(5) 0.2044(6) 0.5625(4)
C32_19 C 0.4191(4) 0.2069(6) 0.5940(3)
H22_19 H 0.4409 0.1946 0.5954
C33_19 C 0.4084(4) 0.2259(5) 0.6238(4)
C34_19 C 0.3749(4) 0.2409(5) 0.6217(4)
H23_19 H 0.3653 0.2529 0.6415
C35_19 C 0.4142(5) 0.1852(5) 0.5306(4)
C36_19 C 0.4342(5) 0.1544(5) 0.5316(4)
H24_19 H 0.4374 0.1416 0.5528
C37_19 C 0.4221(3) 0.2243(3) 0.6595(4)
C38_19 C 0.2328(5) 0.1847(4) 0.5883(4)
C39_19 C 0.2273(6) 0.1460(5) 0.5921(4)
C40_19 C 0.2319(7) 0.1267(4) 0.6229(4)
H25_19 H 0.2422 0.1377 0.6429
C41_19 C 0.2218(8) 0.0915(5) 0.6249(5)
C42_19 C 0.2065(6) 0.0765(6) 0.5951(5)
H26_19 H 0.1992 0.0525 0.5960
C43_19 C 0.2013(4) 0.0951(5) 0.5639(4)
C44_19 C 0.2080(5) 0.1311(5) 0.5624(5)
H27_19 H 0.2036 0.1447 0.5397
C45_19 C 0.1883(9) 0.0790(6) 0.5292(5)
C46_19 C 0.1745(10) 0.0451(7) 0.5301(6)
H28_19 H 0.1774 0.0302 0.5499
C47_19 C 0.2282(3) 0.0694(5) 0.6575(4)
H29_19 H 0.2554 0.3378 0.4817
O23_19 O 0.2245(3) 0.1474(2) 0.2702(2)
C48_19 C 0.2015(4) 0.1537(4) 0.2944(4)
H30_19 H 0.1944 0.1310 0.3021
C49_19 C 0.1581(5) 0.1865(5) 0.3310(4)
H31_19 H 0.1561 0.1642 0.3438
H32_19 H 0.1631 0.2056 0.3477
H33_19 H 0.1359 0.1914 0.3188
C50_19 C 0.1975(5) 0.2155(4) 0.2838(6)
H34_19 H 0.2177 0.2093 0.2690
H35_19 H 0.1778 0.2229 0.2688
H36_19 H 0.2040 0.2349 0.2996
N4_19 N 0.1866(3) 0.1841(3) 0.3053(3)
O1_20 O 0.2989(3) 0.7426(3) 0.6172(3)
O2_20 O 0.2983(4) 0.7552(4) 0.5609(4)
O3_20 O 0.2408(3) 0.7996(3) 0.6166(2)
O4_20 O 0.2336(4) 0.7997(4) 0.5599(3)
O5_20 O 0.2387(3) 0.9121(3) 0.6814(3)
O7_16 O 0.4131(3) 0.7542(3) 0.6814(3)
O8_16 O 0.4423(4) 0.7995(4) 0.6650(4)
O9_32 O 0.1628(7) 0.6247(6) 0.5000
O10_32 O 0.1291(6) 0.6586(6) 0.5000
O11_20 O 0.2298(2) 0.7245(3) 0.6474(2)
C1_20 C 0.3169(4) 0.7524(6) 0.5888(4)
C2_20 C 0.3556(4) 0.7615(5) 0.5906(3)
C3_20 C 0.3664(4) 0.7808(5) 0.5609(4)
H1_20 H 0.3517 0.7836 0.5408
C4_20 C 0.4002(5) 0.7956(6) 0.5625(4)
C5_20 C 0.4191(4) 0.7931(6) 0.5940(3)
H2_20 H 0.4409 0.8054 0.5954
C6_20 C 0.4084(4) 0.7741(5) 0.6238(4)
C7_20 C 0.3749(4) 0.7591(5) 0.6217(4)
H3_20 H 0.3653 0.7471 0.6415
C8_20 C 0.4142(5) 0.8148(5) 0.5306(4)
C9_20 C 0.4342(5) 0.8456(5) 0.5316(4)
H4_20 H 0.4374 0.8584 0.5528
C10_32 C 0.4494(7) 0.8567(9) 0.5000
H5_32 H 0.4695 0.8716 0.5000
C11_20 C 0.2328(5) 0.8153(4) 0.5883(4)
C12_20 C 0.2273(6) 0.8540(5) 0.5921(4)
C13_20 C 0.2319(7) 0.8733(4) 0.6229(4)
H6_20 H 0.2422 0.8623 0.6429
C14_20 C 0.2218(8) 0.9085(5) 0.6249(5)
C15_20 C 0.2065(6) 0.9235(6) 0.5951(5)
H7_20 H 0.1992 0.9475 0.5960
C16_20 C 0.2013(4) 0.9049(5) 0.5639(4)
C17_20 C 0.2080(5) 0.8689(5) 0.5624(5)
H8_20 H 0.2036 0.8553 0.5397
C18_20 C 0.1883(9) 0.9210(6) 0.5292(5)
C19_20 C 0.1745(10) 0.9549(7) 0.5301(6)
H9_20 H 0.1774 0.9698 0.5499
C20_32 C 0.1591(13) 0.9692(12) 0.5000
H10_32 H 0.1427 0.9881 0.5000
C21_20 C 0.2282(3) 0.9306(5) 0.6575(4)
C22_20 C 0.4221(3) 0.7757(3) 0.6595(4)
C23_20 C 0.2056(4) 0.7015(4) 0.6537(4)
H11_20 H 0.1979 0.6944 0.6310
C24_20 C 0.1690(4) 0.6581(5) 0.6865(5)
H12_20 H 0.1562 0.6561 0.6642
H13_20 H 0.1523 0.6631 0.7056
H14_20 H 0.1812 0.6359 0.6914
C25_20 C 0.2162(6) 0.6975(5) 0.7155(4)
H15_20 H 0.2310 0.7177 0.7093
H16_20 H 0.2312 0.6778 0.7229
H17_20 H 0.2004 0.7040 0.7349
C26_32 C 0.2450(6) 0.7421(6) 0.5000
H18_32 H 0.2638 0.7587 0.5000
N1_32 N 0.4030(9) 0.8001(8) 0.5000
N2_32 N 0.1897(7) 0.9012(7) 0.5000
O12_20 O 0.2321(3) 0.7311(3) 0.5281(2)
O13_32 O 0.2437(7) 0.6566(6) 0.5000
H19_20 H 0.2554 0.6622 0.4817
N3_20 N 0.1947(3) 0.6866(3) 0.6841(3)
C27_32 C 0.1289(12) 0.6269(12) 0.5000
H20_32 H 0.1106 0.6098 0.5000
O17_16 O 0.4423(4) 0.7995(4) 0.3350(4)
C28_20 C 0.3169(4) 0.7524(6) 0.4112(4)
C29_20 C 0.3556(4) 0.7615(5) 0.4094(3)
C30_20 C 0.3664(4) 0.7808(5) 0.4391(4)
H21_20 H 0.3517 0.7836 0.4592
C31_20 C 0.4002(5) 0.7956(6) 0.4375(4)
C32_20 C 0.4191(4) 0.7931(6) 0.4060(3)
H22_20 H 0.4409 0.8054 0.4046
C33_20 C 0.4084(4) 0.7741(5) 0.3762(4)
C34_20 C 0.3749(4) 0.7591(5) 0.3783(4)
H23_20 H 0.3653 0.7471 0.3585
C35_20 C 0.4142(5) 0.8148(5) 0.4694(4)
C36_20 C 0.4342(5) 0.8456(5) 0.4684(4)
H24_20 H 0.4374 0.8584 0.4472
C37_20 C 0.4221(3) 0.7757(3) 0.3405(4)
C38_20 C 0.2328(5) 0.8153(4) 0.4117(4)
C39_20 C 0.2273(6) 0.8540(5) 0.4079(4)
C40_20 C 0.2319(7) 0.8733(4) 0.3771(4)
H25_20 H 0.2422 0.8623 0.3571
C41_20 C 0.2218(8) 0.9085(5) 0.3751(5)
C42_20 C 0.2065(6) 0.9235(6) 0.4049(5)
H26_20 H 0.1992 0.9475 0.4040
C43_20 C 0.2013(4) 0.9049(5) 0.4361(4)
C44_20 C 0.2080(5) 0.8689(5) 0.4376(5)
H27_20 H 0.2036 0.8553 0.4603
C45_20 C 0.1883(9) 0.9210(6) 0.4708(5)
C46_20 C 0.1745(10) 0.9549(7) 0.4699(6)
H28_20 H 0.1774 0.9698 0.4501
C47_20 C 0.2282(3) 0.9306(5) 0.3425(4)
H29_20 H 0.2554 0.6622 0.5183
O23_20 O 0.2245(3) 0.8526(2) 0.7298(2)
C48_20 C 0.2015(4) 0.8463(4) 0.7056(4)
H30_20 H 0.1944 0.8690 0.6979
C49_20 C 0.1581(5) 0.8135(5) 0.6690(4)
H31_20 H 0.1561 0.8358 0.6562
H32_20 H 0.1631 0.7944 0.6523
H33_20 H 0.1359 0.8086 0.6812
C50_20 C 0.1975(5) 0.7845(4) 0.7162(6)
H34_20 H 0.2177 0.7907 0.7310
H35_20 H 0.1778 0.7771 0.7312
H36_20 H 0.2040 0.7651 0.7004
N4_20 N 0.1866(3) 0.8159(3) 0.6947(3)
O1_21 O 0.3828(3) 0.7011(3) 0.7426(3)
O2_21 O 0.4391(4) 0.7017(4) 0.7552(4)
O3_21 O 0.3834(2) 0.7592(3) 0.7996(3)
O4_21 O 0.4401(3) 0.7664(4) 0.7997(4)
O5_21 O 0.3186(3) 0.7613(3) 0.9121(3)
O9_33 O 0.5000 0.8372(7) 0.6247(6)
O10_33 O 0.5000 0.8709(6) 0.6586(6)
O11_21 O 0.3526(2) 0.7702(2) 0.7245(3)
C1_21 C 0.4112(4) 0.6831(4) 0.7524(6)
C2_21 C 0.4094(3) 0.6444(4) 0.7615(5)
C3_21 C 0.4391(4) 0.6336(4) 0.7808(5)
H1_21 H 0.4592 0.6483 0.7836
C4_21 C 0.4375(4) 0.5998(5) 0.7956(6)
C5_21 C 0.4060(3) 0.5809(4) 0.7931(6)
H2_21 H 0.4046 0.5591 0.8054
C6_21 C 0.3762(4) 0.5916(4) 0.7741(5)
C7_21 C 0.3783(4) 0.6251(4) 0.7591(5)
H3_21 H 0.3585 0.6347 0.7471
C8_21 C 0.4694(4) 0.5858(5) 0.8148(5)
C9_21 C 0.4684(4) 0.5658(5) 0.8456(5)
H4_21 H 0.4472 0.5626 0.8584
C10_33 C 0.5000 0.5506(7) 0.8567(9)
H5_33 H 0.5000 0.5305 0.8716
C11_21 C 0.4117(4) 0.7672(5) 0.8153(4)
C12_21 C 0.4079(4) 0.7727(6) 0.8540(5)
C13_21 C 0.3771(4) 0.7681(7) 0.8733(4)
H6_21 H 0.3571 0.7578 0.8623
C14_21 C 0.3751(5) 0.7782(8) 0.9085(5)
C15_21 C 0.4049(5) 0.7935(6) 0.9235(6)
H7_21 H 0.4040 0.8008 0.9475
C16_21 C 0.4361(4) 0.7987(4) 0.9049(5)
C17_21 C 0.4376(5) 0.7920(5) 0.8689(5)
H8_21 H 0.4603 0.7964 0.8553
C18_21 C 0.4708(5) 0.8117(9) 0.9210(6)
C19_21 C 0.4699(6) 0.8255(10) 0.9549(7)
H9_21 H 0.4501 0.8226 0.9698
C20_33 C 0.5000 0.8409(13) 0.9692(12)
H10_33 H 0.5000 0.8573 0.9881
C21_21 C 0.3425(4) 0.7718(3) 0.9306(5)
C22_21 C 0.3405(4) 0.5779(3) 0.7757(3)
C23_21 C 0.3463(4) 0.7944(4) 0.7015(4)
H11_21 H 0.3690 0.8021 0.6944
C24_21 C 0.3135(5) 0.8310(4) 0.6581(5)
H12_21 H 0.3358 0.8438 0.6561
H13_21 H 0.2944 0.8477 0.6631
H14_21 H 0.3086 0.8188 0.6359
C25_21 C 0.2845(4) 0.7838(6) 0.6975(5)
H15_21 H 0.2907 0.7690 0.7177
H16_21 H 0.2771 0.7688 0.6778
H17_21 H 0.2651 0.7996 0.7040
C26_33 C 0.5000 0.7550(6) 0.7421(6)
H18_33 H 0.5000 0.7362 0.7587
N1_33 N 0.5000 0.5970(9) 0.8001(8)
N2_33 N 0.5000 0.8103(7) 0.9012(7)
O12_21 O 0.4719(2) 0.7679(3) 0.7311(3)
O13_33 O 0.5000 0.7563(7) 0.6566(6)
H19_21 H 0.5183 0.7446 0.6622
N3_21 N 0.3159(3) 0.8053(3) 0.6866(3)
C27_33 C 0.5000 0.8711(12) 0.6269(12)
H20_33 H 0.5000 0.8894 0.6098
C28_21 C 0.5888(4) 0.6831(4) 0.7524(6)
C29_21 C 0.5906(3) 0.6444(4) 0.7615(5)
C30_21 C 0.5609(4) 0.6336(4) 0.7808(5)
H21_21 H 0.5408 0.6483 0.7836
C31_21 C 0.5625(4) 0.5998(5) 0.7956(6)
C32_21 C 0.5940(3) 0.5809(4) 0.7931(6)
H22_21 H 0.5954 0.5591 0.8054
C33_21 C 0.6238(4) 0.5916(4) 0.7741(5)
C34_21 C 0.6217(4) 0.6251(4) 0.7591(5)
H23_21 H 0.6415 0.6347 0.7471
C35_21 C 0.5306(4) 0.5858(5) 0.8148(5)
C36_21 C 0.5316(4) 0.5658(5) 0.8456(5)
H24_21 H 0.5528 0.5626 0.8584
C37_21 C 0.6595(4) 0.5779(3) 0.7757(3)
C38_21 C 0.5883(4) 0.7672(5) 0.8153(4)
C39_21 C 0.5921(4) 0.7727(6) 0.8540(5)
C40_21 C 0.6229(4) 0.7681(7) 0.8733(4)
H25_21 H 0.6429 0.7578 0.8623
C41_21 C 0.6249(5) 0.7782(8) 0.9085(5)
C42_21 C 0.5951(5) 0.7935(6) 0.9235(6)
H26_21 H 0.5960 0.8008 0.9475
C43_21 C 0.5639(4) 0.7987(4) 0.9049(5)
C44_21 C 0.5624(5) 0.7920(5) 0.8689(5)
H27_21 H 0.5397 0.7964 0.8553
C45_21 C 0.5292(5) 0.8117(9) 0.9210(6)
C46_21 C 0.5301(6) 0.8255(10) 0.9549(7)
H28_21 H 0.5499 0.8226 0.9698
C47_21 C 0.6575(4) 0.7718(3) 0.9306(5)
H29_21 H 0.4817 0.7446 0.6622
O23_21 O 0.2702(2) 0.7755(3) 0.8526(2)
C48_21 C 0.2944(4) 0.7985(4) 0.8463(4)
H30_21 H 0.3021 0.8056 0.8690
C49_21 C 0.3310(4) 0.8419(5) 0.8135(5)
H31_21 H 0.3438 0.8439 0.8358
H32_21 H 0.3477 0.8369 0.7944
H33_21 H 0.3188 0.8641 0.8086
C50_21 C 0.2838(6) 0.8025(5) 0.7845(4)
H34_21 H 0.2690 0.7823 0.7907
H35_21 H 0.2688 0.8222 0.7771
H36_21 H 0.2996 0.7960 0.7651
N4_21 N 0.3053(3) 0.8134(3) 0.8159(3)
O1_22 O 0.6172(3) 0.7011(3) 0.2574(3)
O2_22 O 0.5609(4) 0.7017(4) 0.2448(4)
O3_22 O 0.6166(2) 0.7592(3) 0.2004(3)
O4_22 O 0.5599(3) 0.7664(4) 0.2003(4)
O5_22 O 0.6814(3) 0.7613(3) 0.0879(3)
O9_34 O 0.5000 0.8372(7) 0.3753(6)
O10_34 O 0.5000 0.8709(6) 0.3414(6)
O11_22 O 0.6474(2) 0.7702(2) 0.2755(3)
C1_22 C 0.5888(4) 0.6831(4) 0.2476(6)
C2_22 C 0.5906(3) 0.6444(4) 0.2385(5)
C3_22 C 0.5609(4) 0.6336(4) 0.2192(5)
H1_22 H 0.5408 0.6483 0.2164
C4_22 C 0.5625(4) 0.5998(5) 0.2044(6)
C5_22 C 0.5940(3) 0.5809(4) 0.2069(6)
H2_22 H 0.5954 0.5591 0.1946
C6_22 C 0.6238(4) 0.5916(4) 0.2259(5)
C7_22 C 0.6217(4) 0.6251(4) 0.2409(5)
H3_22 H 0.6415 0.6347 0.2529
C8_22 C 0.5306(4) 0.5858(5) 0.1852(5)
C9_22 C 0.5316(4) 0.5658(5) 0.1544(5)
H4_22 H 0.5528 0.5626 0.1416
C10_34 C 0.5000 0.5506(7) 0.1433(9)
H5_34 H 0.5000 0.5305 0.1284
C11_22 C 0.5883(4) 0.7672(5) 0.1847(4)
C12_22 C 0.5921(4) 0.7727(6) 0.1460(5)
C13_22 C 0.6229(4) 0.7681(7) 0.1267(4)
H6_22 H 0.6429 0.7578 0.1377
C14_22 C 0.6249(5) 0.7782(8) 0.0915(5)
C15_22 C 0.5951(5) 0.7935(6) 0.0765(6)
H7_22 H 0.5960 0.8008 0.0525
C16_22 C 0.5639(4) 0.7987(4) 0.0951(5)
C17_22 C 0.5624(5) 0.7920(5) 0.1311(5)
H8_22 H 0.5397 0.7964 0.1447
C18_22 C 0.5292(5) 0.8117(9) 0.0790(6)
C19_22 C 0.5301(6) 0.8255(10) 0.0451(7)
H9_22 H 0.5499 0.8226 0.0302
C20_34 C 0.5000 0.8409(13) 0.0308(12)
H10_34 H 0.5000 0.8573 0.0119
C21_22 C 0.6575(4) 0.7718(3) 0.0694(5)
C22_22 C 0.6595(4) 0.5779(3) 0.2243(3)
C23_22 C 0.6537(4) 0.7944(4) 0.2985(4)
H11_22 H 0.6310 0.8021 0.3056
C24_22 C 0.6865(5) 0.8310(4) 0.3419(5)
H12_22 H 0.6642 0.8438 0.3439
H13_22 H 0.7056 0.8477 0.3369
H14_22 H 0.6914 0.8188 0.3641
C25_22 C 0.7155(4) 0.7838(6) 0.3025(5)
H15_22 H 0.7093 0.7690 0.2823
H16_22 H 0.7229 0.7688 0.3222
H17_22 H 0.7349 0.7996 0.2960
C26_34 C 0.5000 0.7550(6) 0.2579(6)
H18_34 H 0.5000 0.7362 0.2413
N1_34 N 0.5000 0.5970(9) 0.1999(8)
N2_34 N 0.5000 0.8103(7) 0.0988(7)
O12_22 O 0.5281(2) 0.7679(3) 0.2689(3)
O13_34 O 0.5000 0.7563(7) 0.3434(6)
H19_22 H 0.4817 0.7446 0.3378
N3_22 N 0.6841(3) 0.8053(3) 0.3134(3)
C27_34 C 0.5000 0.8711(12) 0.3731(12)
H20_34 H 0.5000 0.8894 0.3902
C28_22 C 0.4112(4) 0.6831(4) 0.2476(6)
C29_22 C 0.4094(3) 0.6444(4) 0.2385(5)
C30_22 C 0.4391(4) 0.6336(4) 0.2192(5)
H21_22 H 0.4592 0.6483 0.2164
C31_22 C 0.4375(4) 0.5998(5) 0.2044(6)
C32_22 C 0.4060(3) 0.5809(4) 0.2069(6)
H22_22 H 0.4046 0.5591 0.1946
C33_22 C 0.3762(4) 0.5916(4) 0.2259(5)
C34_22 C 0.3783(4) 0.6251(4) 0.2409(5)
H23_22 H 0.3585 0.6347 0.2529
C35_22 C 0.4694(4) 0.5858(5) 0.1852(5)
C36_22 C 0.4684(4) 0.5658(5) 0.1544(5)
H24_22 H 0.4472 0.5626 0.1416
C37_22 C 0.3405(4) 0.5779(3) 0.2243(3)
C38_22 C 0.4117(4) 0.7672(5) 0.1847(4)
C39_22 C 0.4079(4) 0.7727(6) 0.1460(5)
C40_22 C 0.3771(4) 0.7681(7) 0.1267(4)
H25_22 H 0.3571 0.7578 0.1377
C41_22 C 0.3751(5) 0.7782(8) 0.0915(5)
C42_22 C 0.4049(5) 0.7935(6) 0.0765(6)
H26_22 H 0.4040 0.8008 0.0525
C43_22 C 0.4361(4) 0.7987(4) 0.0951(5)
C44_22 C 0.4376(5) 0.7920(5) 0.1311(5)
H27_22 H 0.4603 0.7964 0.1447
C45_22 C 0.4708(5) 0.8117(9) 0.0790(6)
C46_22 C 0.4699(6) 0.8255(10) 0.0451(7)
H28_22 H 0.4501 0.8226 0.0302
C47_22 C 0.3425(4) 0.7718(3) 0.0694(5)
H29_22 H 0.5183 0.7446 0.3378
O23_22 O 0.7298(2) 0.7755(3) 0.1474(2)
C48_22 C 0.7056(4) 0.7985(4) 0.1537(4)
H30_22 H 0.6979 0.8056 0.1310
C49_22 C 0.6690(4) 0.8419(5) 0.1865(5)
H31_22 H 0.6562 0.8439 0.1642
H32_22 H 0.6523 0.8369 0.2056
H33_22 H 0.6812 0.8641 0.1914
C50_22 C 0.7162(6) 0.8025(5) 0.2155(4)
H34_22 H 0.7310 0.7823 0.2093
H35_22 H 0.7312 0.8222 0.2229
H36_22 H 0.7004 0.7960 0.2349
N4_22 N 0.6947(3) 0.8134(3) 0.1841(3)
O1_23 O 0.3828(3) 0.2989(3) 0.2574(3)
O2_23 O 0.4391(4) 0.2983(4) 0.2448(4)
O3_23 O 0.3834(2) 0.2408(3) 0.2004(3)
O4_23 O 0.4401(3) 0.2336(4) 0.2003(4)
O5_23 O 0.3186(3) 0.2387(3) 0.0879(3)
O9_35 O 0.5000 0.1628(7) 0.3753(6)
O10_35 O 0.5000 0.1291(6) 0.3414(6)
O11_23 O 0.3526(2) 0.2298(2) 0.2755(3)
C1_23 C 0.4112(4) 0.3169(4) 0.2476(6)
C2_23 C 0.4094(3) 0.3556(4) 0.2385(5)
C3_23 C 0.4391(4) 0.3664(4) 0.2192(5)
H1_23 H 0.4592 0.3517 0.2164
C4_23 C 0.4375(4) 0.4002(5) 0.2044(6)
C5_23 C 0.4060(3) 0.4191(4) 0.2069(6)
H2_23 H 0.4046 0.4409 0.1946
C6_23 C 0.3762(4) 0.4084(4) 0.2259(5)
C7_23 C 0.3783(4) 0.3749(4) 0.2409(5)
H3_23 H 0.3585 0.3653 0.2529
C8_23 C 0.4694(4) 0.4142(5) 0.1852(5)
C9_23 C 0.4684(4) 0.4342(5) 0.1544(5)
H4_23 H 0.4472 0.4374 0.1416
C10_35 C 0.5000 0.4494(7) 0.1433(9)
H5_35 H 0.5000 0.4695 0.1284
C11_23 C 0.4117(4) 0.2328(5) 0.1847(4)
C12_23 C 0.4079(4) 0.2273(6) 0.1460(5)
C13_23 C 0.3771(4) 0.2319(7) 0.1267(4)
H6_23 H 0.3571 0.2422 0.1377
C14_23 C 0.3751(5) 0.2218(8) 0.0915(5)
C15_23 C 0.4049(5) 0.2065(6) 0.0765(6)
H7_23 H 0.4040 0.1992 0.0525
C16_23 C 0.4361(4) 0.2013(4) 0.0951(5)
C17_23 C 0.4376(5) 0.2080(5) 0.1311(5)
H8_23 H 0.4603 0.2036 0.1447
C18_23 C 0.4708(5) 0.1883(9) 0.0790(6)
C19_23 C 0.4699(6) 0.1745(10) 0.0451(7)
H9_23 H 0.4501 0.1774 0.0302
C20_35 C 0.5000 0.1591(13) 0.0308(12)
H10_35 H 0.5000 0.1427 0.0119
C21_23 C 0.3425(4) 0.2282(3) 0.0694(5)
C22_23 C 0.3405(4) 0.4221(3) 0.2243(3)
C23_23 C 0.3463(4) 0.2056(4) 0.2985(4)
H11_23 H 0.3690 0.1979 0.3056
C24_23 C 0.3135(5) 0.1690(4) 0.3419(5)
H12_23 H 0.3358 0.1562 0.3439
H13_23 H 0.2944 0.1523 0.3369
H14_23 H 0.3086 0.1812 0.3641
C25_23 C 0.2845(4) 0.2162(6) 0.3025(5)
H15_23 H 0.2907 0.2310 0.2823
H16_23 H 0.2771 0.2312 0.3222
H17_23 H 0.2651 0.2004 0.2960
C26_35 C 0.5000 0.2450(6) 0.2579(6)
H18_35 H 0.5000 0.2638 0.2413
N1_35 N 0.5000 0.4030(9) 0.1999(8)
N2_35 N 0.5000 0.1897(7) 0.0988(7)
O12_23 O 0.4719(2) 0.2321(3) 0.2689(3)
O13_35 O 0.5000 0.2437(7) 0.3434(6)
H19_23 H 0.5183 0.2554 0.3378
N3_23 N 0.3159(3) 0.1947(3) 0.3134(3)
C27_35 C 0.5000 0.1289(12) 0.3731(12)
H20_35 H 0.5000 0.1106 0.3902
C28_23 C 0.5888(4) 0.3169(4) 0.2476(6)
C29_23 C 0.5906(3) 0.3556(4) 0.2385(5)
C30_23 C 0.5609(4) 0.3664(4) 0.2192(5)
H21_23 H 0.5408 0.3517 0.2164
C31_23 C 0.5625(4) 0.4002(5) 0.2044(6)
C32_23 C 0.5940(3) 0.4191(4) 0.2069(6)
H22_23 H 0.5954 0.4409 0.1946
C33_23 C 0.6238(4) 0.4084(4) 0.2259(5)
C34_23 C 0.6217(4) 0.3749(4) 0.2409(5)
H23_23 H 0.6415 0.3653 0.2529
C35_23 C 0.5306(4) 0.4142(5) 0.1852(5)
C36_23 C 0.5316(4) 0.4342(5) 0.1544(5)
H24_23 H 0.5528 0.4374 0.1416
C37_23 C 0.6595(4) 0.4221(3) 0.2243(3)
C38_23 C 0.5883(4) 0.2328(5) 0.1847(4)
C39_23 C 0.5921(4) 0.2273(6) 0.1460(5)
C40_23 C 0.6229(4) 0.2319(7) 0.1267(4)
H25_23 H 0.6429 0.2422 0.1377
C41_23 C 0.6249(5) 0.2218(8) 0.0915(5)
C42_23 C 0.5951(5) 0.2065(6) 0.0765(6)
H26_23 H 0.5960 0.1992 0.0525
C43_23 C 0.5639(4) 0.2013(4) 0.0951(5)
C44_23 C 0.5624(5) 0.2080(5) 0.1311(5)
H27_23 H 0.5397 0.2036 0.1447
C45_23 C 0.5292(5) 0.1883(9) 0.0790(6)
C46_23 C 0.5301(6) 0.1745(10) 0.0451(7)
H28_23 H 0.5499 0.1774 0.0302
C47_23 C 0.6575(4) 0.2282(3) 0.0694(5)
H29_23 H 0.4817 0.2554 0.3378
O23_23 O 0.2702(2) 0.2245(3) 0.1474(2)
C48_23 C 0.2944(4) 0.2015(4) 0.1537(4)
H30_23 H 0.3021 0.1944 0.1310
C49_23 C 0.3310(4) 0.1581(5) 0.1865(5)
H31_23 H 0.3438 0.1561 0.1642
H32_23 H 0.3477 0.1631 0.2056
H33_23 H 0.3188 0.1359 0.1914
C50_23 C 0.2838(6) 0.1975(5) 0.2155(4)
H34_23 H 0.2690 0.2177 0.2093
H35_23 H 0.2688 0.1778 0.2229
H36_23 H 0.2996 0.2040 0.2349
N4_23 N 0.3053(3) 0.1866(3) 0.1841(3)
O1_24 O 0.6172(3) 0.2989(3) 0.7426(3)
O2_24 O 0.5609(4) 0.2983(4) 0.7552(4)
O3_24 O 0.6166(2) 0.2408(3) 0.7996(3)
O4_24 O 0.5599(3) 0.2336(4) 0.7997(4)
O5_24 O 0.6814(3) 0.2387(3) 0.9121(3)
O9_36 O 0.5000 0.1628(7) 0.6247(6)
O10_36 O 0.5000 0.1291(6) 0.6586(6)
O11_24 O 0.6474(2) 0.2298(2) 0.7245(3)
C1_24 C 0.5888(4) 0.3169(4) 0.7524(6)
C2_24 C 0.5906(3) 0.3556(4) 0.7615(5)
C3_24 C 0.5609(4) 0.3664(4) 0.7808(5)
H1_24 H 0.5408 0.3517 0.7836
C4_24 C 0.5625(4) 0.4002(5) 0.7956(6)
C5_24 C 0.5940(3) 0.4191(4) 0.7931(6)
H2_24 H 0.5954 0.4409 0.8054
C6_24 C 0.6238(4) 0.4084(4) 0.7741(5)
C7_24 C 0.6217(4) 0.3749(4) 0.7591(5)
H3_24 H 0.6415 0.3653 0.7471
C8_24 C 0.5306(4) 0.4142(5) 0.8148(5)
C9_24 C 0.5316(4) 0.4342(5) 0.8456(5)
H4_24 H 0.5528 0.4374 0.8584
C10_36 C 0.5000 0.4494(7) 0.8567(9)
H5_36 H 0.5000 0.4695 0.8716
C11_24 C 0.5883(4) 0.2328(5) 0.8153(4)
C12_24 C 0.5921(4) 0.2273(6) 0.8540(5)
C13_24 C 0.6229(4) 0.2319(7) 0.8733(4)
H6_24 H 0.6429 0.2422 0.8623
C14_24 C 0.6249(5) 0.2218(8) 0.9085(5)
C15_24 C 0.5951(5) 0.2065(6) 0.9235(6)
H7_24 H 0.5960 0.1992 0.9475
C16_24 C 0.5639(4) 0.2013(4) 0.9049(5)
C17_24 C 0.5624(5) 0.2080(5) 0.8689(5)
H8_24 H 0.5397 0.2036 0.8553
C18_24 C 0.5292(5) 0.1883(9) 0.9210(6)
C19_24 C 0.5301(6) 0.1745(10) 0.9549(7)
H9_24 H 0.5499 0.1774 0.9698
C20_36 C 0.5000 0.1591(13) 0.9692(12)
H10_36 H 0.5000 0.1427 0.9881
C21_24 C 0.6575(4) 0.2282(3) 0.9306(5)
C22_24 C 0.6595(4) 0.4221(3) 0.7757(3)
C23_24 C 0.6537(4) 0.2056(4) 0.7015(4)
H11_24 H 0.6310 0.1979 0.6944
C24_24 C 0.6865(5) 0.1690(4) 0.6581(5)
H12_24 H 0.6642 0.1562 0.6561
H13_24 H 0.7056 0.1523 0.6631
H14_24 H 0.6914 0.1812 0.6359
C25_24 C 0.7155(4) 0.2162(6) 0.6975(5)
H15_24 H 0.7093 0.2310 0.7177
H16_24 H 0.7229 0.2312 0.6778
H17_24 H 0.7349 0.2004 0.7040
C26_36 C 0.5000 0.2450(6) 0.7421(6)
H18_36 H 0.5000 0.2638 0.7587
N1_36 N 0.5000 0.4030(9) 0.8001(8)
N2_36 N 0.5000 0.1897(7) 0.9012(7)
O12_24 O 0.5281(2) 0.2321(3) 0.7311(3)
O13_36 O 0.5000 0.2437(7) 0.6566(6)
H19_24 H 0.4817 0.2554 0.6622
N3_24 N 0.6841(3) 0.1947(3) 0.6866(3)
C27_36 C 0.5000 0.1289(12) 0.6269(12)
H20_36 H 0.5000 0.1106 0.6098
C28_24 C 0.4112(4) 0.3169(4) 0.7524(6)
C29_24 C 0.4094(3) 0.3556(4) 0.7615(5)
C30_24 C 0.4391(4) 0.3664(4) 0.7808(5)
H21_24 H 0.4592 0.3517 0.7836
C31_24 C 0.4375(4) 0.4002(5) 0.7956(6)
C32_24 C 0.4060(3) 0.4191(4) 0.7931(6)
H22_24 H 0.4046 0.4409 0.8054
C33_24 C 0.3762(4) 0.4084(4) 0.7741(5)
C34_24 C 0.3783(4) 0.3749(4) 0.7591(5)
H23_24 H 0.3585 0.3653 0.7471
C35_24 C 0.4694(4) 0.4142(5) 0.8148(5)
C36_24 C 0.4684(4) 0.4342(5) 0.8456(5)
H24_24 H 0.4472 0.4374 0.8584
C37_24 C 0.3405(4) 0.4221(3) 0.7757(3)
C38_24 C 0.4117(4) 0.2328(5) 0.8153(4)
C39_24 C 0.4079(4) 0.2273(6) 0.8540(5)
C40_24 C 0.3771(4) 0.2319(7) 0.8733(4)
H25_24 H 0.3571 0.2422 0.8623
C41_24 C 0.3751(5) 0.2218(8) 0.9085(5)
C42_24 C 0.4049(5) 0.2065(6) 0.9235(6)
H26_24 H 0.4040 0.1992 0.9475
C43_24 C 0.4361(4) 0.2013(4) 0.9049(5)
C44_24 C 0.4376(5) 0.2080(5) 0.8689(5)
H27_24 H 0.4603 0.2036 0.8553
C45_24 C 0.4708(5) 0.1883(9) 0.9210(6)
C46_24 C 0.4699(6) 0.1745(10) 0.9549(7)
H28_24 H 0.4501 0.1774 0.9698
C47_24 C 0.3425(4) 0.2282(3) 0.9306(5)
H29_24 H 0.5183 0.2554 0.6622
O23_24 O 0.7298(2) 0.2245(3) 0.8526(2)
C48_24 C 0.7056(4) 0.2015(4) 0.8463(4)
H30_24 H 0.6979 0.1944 0.8690
C49_24 C 0.6690(4) 0.1581(5) 0.8135(5)
H31_24 H 0.6562 0.1561 0.8358
H32_24 H 0.6523 0.1631 0.7944
H33_24 H 0.6812 0.1359 0.8086
C50_24 C 0.7162(6) 0.1975(5) 0.7845(4)
H34_24 H 0.7310 0.2177 0.7907
H35_24 H 0.7312 0.1778 0.7771
H36_24 H 0.7004 0.2040 0.7651
N4_24 N 0.6947(3) 0.1866(3) 0.8159(3)
loop_
_geom_bond_atom_site_label_1
_geom_bond_atom_site_label_2
_geom_bond_site_symmetry_1
_geom_bond_site_symmetry_2
Gd1 O9 1_555 1_555
O9 C27 1_555 1_555
O10 Gd1 1_555 1_555
H5 C10 1_555 1_555
H10 C20 1_555 1_555
C26 H18 1_555 1_555
O13 Gd1 1_555 1_555
H19 O13 1_555 1_555
C27 O10 1_555 1_555
H20 C27 1_555 1_555
O14 C28 1_555 1_555
O15 C28 1_555 1_555
O16 C37 1_555 1_555
O17 C37 1_555 1_555
C28 C29 1_555 1_555
C29 C30 1_555 1_555
C30 H21 1_555 1_555
C31 C30 1_555 1_555
C32 C31 1_555 1_555
H22 C32 1_555 1_555
C33 C32 1_555 1_555
C34 C29 1_555 1_555
H23 C34 1_555 1_555
C35 N1 1_555 1_555
C36 C10 1_555 1_555
H24 C36 1_555 1_555
C37 C33 1_555 1_555
O18 C38 1_555 1_555
O19 C38 1_555 1_555
O20 C47 1_555 1_555
O21 C47 1_555 1_555
C38 C39 1_555 1_555
C39 C40 1_555 1_555
C40 H25 1_555 1_555
C41 C40 1_555 1_555
C42 C41 1_555 1_555
H26 C42 1_555 1_555
C43 C42 1_555 1_555
C44 C39 1_555 1_555
H27 C44 1_555 1_555
C45 N2 1_555 1_555
C46 C20 1_555 1_555
H28 C46 1_555 1_555
C47 C41 1_555 1_555
O22 Gd1 1_555 1_555
Gd4 O17 1_555 1_555
Gd7 O21 1_555 1_555
Gd9 O20 1_555 1_555
Gd10 O14 1_555 1_555
Gd11 O16 1_555 1_555
O29 Gd1 1_555 1_555
O34 Gd1 1_555 1_555
C26 O22 1_555 1_555
O15 Gd10 1_555 1_555
C31 C35 1_555 1_555
C33 C34 1_555 1_555
C35 C36 1_555 1_555
O18 Gd10 1_555 1_555
O19 Gd10 1_555 1_555
C43 C44 1_555 1_555
C43 C45 1_555 1_555
C45 C46 1_555 1_555
O22 Gd10 1_555 1_555
Gd1_2 O9_2 1_555 1_555
Gd2 O1 1_555 1_555
O1 C1 1_555 1_555
O2 Gd2 1_555 1_555
O3 Gd2 1_555 1_555
O4 Gd2 1_555 1_555
O5 C21 1_555 1_555
O6 C21 1_555 1_555
O7 C22 1_555 1_555
O8 C22 1_555 1_555
O9_2 C27_2 1_555 1_555
O10_2 Gd1_2 1_555 1_555
O11 Gd2 1_555 1_555
C1 O2 1_555 1_555
C2 C1 1_555 1_555
C3 C2 1_555 1_555
H1 C3 1_555 1_555
C4 C3 1_555 1_555
C5 C4 1_555 1_555
H2 C5 1_555 1_555
C6 C5 1_555 1_555
C7 C2 1_555 1_555
H3 C7 1_555 1_555
C8 C4 1_555 1_555
C9 C8 1_555 1_555
H4 C9 1_555 1_555
C10_2 C9 1_555 1_555
H5_2 C10_2 1_555 1_555
C11 O3 1_555 1_555
C12 C11 1_555 1_555
C13 C12 1_555 1_555
H6 C13 1_555 1_555
C14 C13 1_555 1_555
C15 C14 1_555 1_555
H7 C15 1_555 1_555
C16 C15 1_555 1_555
C17 C12 1_555 1_555
H8 C17 1_555 1_555
C18 C16 1_555 1_555
C19 C18 1_555 1_555
H9 C19 1_555 1_555
C20_2 C19 1_555 1_555
H10_2 C20_2 1_555 1_555
C21 C14 1_555 1_555
C22 C6 1_555 1_555
C23 O11 1_555 1_555
H11 C23 1_555 1_555
C24 H12 1_555 1_555
H13 C24 1_555 1_555
H14 C24 1_555 1_555
C25 H15 1_555 1_555
H16 C25 1_555 1_555
H17 C25 1_555 1_555
C26_2 H18_2 1_555 1_555
N1_2 C8 1_555 1_555
N2_2 C18 1_555 1_555
O12 Gd1_2 1_555 1_555
O13_2 Gd1_2 1_555 1_555
N3 C23 1_555 1_555
C27_2 O10_2 1_555 1_555
H20_2 C27_2 1_555 1_555
H29 O13_2 1_555 1_555
Gd3 O5 1_555 1_555
O23 Gd3 1_555 1_555
C48 O23 1_555 1_555
H30 C48 1_555 1_555
C49 H31 1_555 1_555
H32 C49 1_555 1_555
H33 C49 1_555 1_555
C50 H34 1_555 1_555
H35 C50 1_555 1_555
H36 C50 1_555 1_555
N4 C48 1_555 1_555
Gd5 O8 1_555 1_555
Gd6 O6 1_555 1_555
Gd8 O7 1_555 1_555
O24 Gd3 1_555 1_555
O25 Gd3 1_555 1_555
O26 Gd3 1_555 1_555
O27 Gd3 1_555 1_555
O28 Gd2 1_555 1_555
O30 Gd1_2 1_555 1_555
O31 Gd2 1_555 1_555
O32 Gd3 1_555 1_555
O33 Gd1_2 1_555 1_555
O35 Gd3 1_555 1_555
Gd2 O12 1_555 1_555
O4 C11 1_555 1_555
C6 C7 1_555 1_555
C16 C17 1_555 1_555
C24 N3 1_555 1_555
C25 N3 1_555 1_555
C26_2 O12 1_555 1_555
C49 N4 1_555 1_555
C50 N4 1_555 1_555
Gd6 O35 1_555 1_555
Gd1_3 O9_3 1_555 1_555
Gd2_2 O1_2 1_555 1_555
O1_2 C1_2 1_555 1_555
O2_2 Gd2_2 1_555 1_555
O3_2 Gd2_2 1_555 1_555
O4_2 Gd2_2 1_555 1_555
O5_2 C21_2 1_555 1_555
O6_2 C21_2 1_555 1_555
O7_2 C22_2 1_555 1_555
O8_2 C22_2 1_555 1_555
O9_3 C27_3 1_555 1_555
O10_3 Gd1_3 1_555 1_555
O11_2 Gd2_2 1_555 1_555
C1_2 O2_2 1_555 1_555
C2_2 C1_2 1_555 1_555
C3_2 C2_2 1_555 1_555
H1_2 C3_2 1_555 1_555
C4_2 C3_2 1_555 1_555
C5_2 C4_2 1_555 1_555
H2_2 C5_2 1_555 1_555
C6_2 C5_2 1_555 1_555
C7_2 C2_2 1_555 1_555
H3_2 C7_2 1_555 1_555
C8_2 C4_2 1_555 1_555
C9_2 C8_2 1_555 1_555
H4_2 C9_2 1_555 1_555
C10_3 C9_2 1_555 1_555
H5_3 C10_3 1_555 1_555
C11_2 O3_2 1_555 1_555
C12_2 C11_2 1_555 1_555
C13_2 C12_2 1_555 1_555
H6_2 C13_2 1_555 1_555
C14_2 C13_2 1_555 1_555
C15_2 C14_2 1_555 1_555
H7_2 C15_2 1_555 1_555
C16_2 C15_2 1_555 1_555
C17_2 C12_2 1_555 1_555
H8_2 C17_2 1_555 1_555
C18_2 C16_2 1_555 1_555
C19_2 C18_2 1_555 1_555
H9_2 C19_2 1_555 1_555
C20_3 C19_2 1_555 1_555
H10_3 C20_3 1_555 1_555
C21_2 C14_2 1_555 1_555
C22_2 C6_2 1_555 1_555
C23_2 O11_2 1_555 1_555
H11_2 C23_2 1_555 1_555
C24_2 H12_2 1_555 1_555
H13_2 C24_2 1_555 1_555
H14_2 C24_2 1_555 1_555
C25_2 H15_2 1_555 1_555
H16_2 C25_2 1_555 1_555
H17_2 C25_2 1_555 1_555
C26_3 H18_3 1_555 1_555
N1_3 C8_2 1_555 1_555
N2_3 C18_2 1_555 1_555
O12_2 Gd1_3 1_555 1_555
O13_3 Gd1_3 1_555 1_555
N3_2 C23_2 1_555 1_555
C27_3 O10_3 1_555 1_555
H20_3 C27_3 1_555 1_555
H29_2 O13_3 1_555 1_555
Gd3_2 O5_2 1_555 1_555
O23_2 Gd3_2 1_555 1_555
C48_2 O23_2 1_555 1_555
H30_2 C48_2 1_555 1_555
C49_2 H31_2 1_555 1_555
H32_2 C49_2 1_555 1_555
H33_2 C49_2 1_555 1_555
C50_2 H34_2 1_555 1_555
H35_2 C50_2 1_555 1_555
H36_2 C50_2 1_555 1_555
N4_2 C48_2 1_555 1_555
Gd5_3 O8_2 1_555 1_555
Gd7 O6_2 1_555 1_555
Gd8_2 O7_2 1_555 1_555
O24_2 Gd3_2 1_555 1_555
O25_2 Gd3_2 1_555 1_555
O26_2 Gd3_2 1_555 1_555
O27_2 Gd3_2 1_555 1_555
O28_2 Gd2_2 1_555 1_555
O30_2 Gd1_3 1_555 1_555
O31_2 Gd2_2 1_555 1_555
O32_2 Gd3_2 1_555 1_555
O33_2 Gd1_3 1_555 1_555
O35_2 Gd3_2 1_555 1_555
Gd2_2 O12_2 1_555 1_555
O4_2 C11_2 1_555 1_555
C6_2 C7_2 1_555 1_555
C16_2 C17_2 1_555 1_555
C24_2 N3_2 1_555 1_555
C25_2 N3_2 1_555 1_555
C26_3 O12_2 1_555 1_555
C49_2 N4_2 1_555 1_555
C50_2 N4_2 1_555 1_555
Gd7 O35_2 1_555 1_555
Gd1_4 O9_4 1_555 1_555
O9_4 C27_4 1_555 1_555
O10_4 Gd1_4 1_555 1_555
H5_4 C10_4 1_555 1_555
H10_4 C20_4 1_555 1_555
C26_4 H18_4 1_555 1_555
O13_4 Gd1_4 1_555 1_555
H19_2 O13_4 1_555 1_555
C27_4 O10_4 1_555 1_555
H20_4 C27_4 1_555 1_555
O14_2 C28_2 1_555 1_555
O15_2 C28_2 1_555 1_555
O16_2 C37_2 1_555 1_555
O17_2 C37_2 1_555 1_555
C28_2 C29_2 1_555 1_555
C29_2 C30_2 1_555 1_555
C30_2 H21_2 1_555 1_555
C31_2 C30_2 1_555 1_555
C32_2 C31_2 1_555 1_555
H22_2 C32_2 1_555 1_555
C33_2 C32_2 1_555 1_555
C34_2 C29_2 1_555 1_555
H23_2 C34_2 1_555 1_555
C35_2 N1_4 1_555 1_555
C36_2 C10_4 1_555 1_555
H24_2 C36_2 1_555 1_555
C37_2 C33_2 1_555 1_555
O18_2 C38_2 1_555 1_555
O19_2 C38_2 1_555 1_555
O20_2 C47_2 1_555 1_555
O21_2 C47_2 1_555 1_555
C38_2 C39_2 1_555 1_555
C39_2 C40_2 1_555 1_555
C40_2 H25_2 1_555 1_555
C41_2 C40_2 1_555 1_555
C42_2 C41_2 1_555 1_555
H26_2 C42_2 1_555 1_555
C43_2 C42_2 1_555 1_555
C44_2 C39_2 1_555 1_555
H27_2 C44_2 1_555 1_555
C45_2 N2_4 1_555 1_555
C46_2 C20_4 1_555 1_555
H28_2 C46_2 1_555 1_555
C47_2 C41_2 1_555 1_555
O22_2 Gd1_4 1_555 1_555
Gd4_3 O17_2 1_555 1_555
Gd6 O21_2 1_555 1_555
Gd9_2 O20_2 1_555 1_555
Gd10_2 O14_2 1_555 1_555
Gd11_2 O16_2 1_555 1_555
O29_2 Gd1_4 1_555 1_555
O34_2 Gd1_4 1_555 1_555
C26_4 O22_2 1_555 1_555
O15_2 Gd10_2 1_555 1_555
C31_2 C35_2 1_555 1_555
C33_2 C34_2 1_555 1_555
C35_2 C36_2 1_555 1_555
O18_2 Gd10_2 1_555 1_555
O19_2 Gd10_2 1_555 1_555
C43_2 C44_2 1_555 1_555
C43_2 C45_2 1_555 1_555
C45_2 C46_2 1_555 1_555
O22_2 Gd10_2 1_555 1_555
Gd1_5 O9_5 1_555 1_555
O9_5 C27_5 1_555 1_555
O10_5 Gd1_5 1_555 1_555
H5_5 C10_5 1_555 1_555
H10_5 C20_5 1_555 1_555
C26_5 H18_5 1_555 1_555
O13_5 Gd1_5 1_555 1_555
H19_3 O13_5 1_555 1_555
C27_5 O10_5 1_555 1_555
H20_5 C27_5 1_555 1_555
O14_3 C28_3 1_555 1_555
O15_3 C28_3 1_555 1_555
O16_3 C37_3 1_555 1_555
O17_3 C37_3 1_555 1_555
C28_3 C29_3 1_555 1_555
C29_3 C30_3 1_555 1_555
C30_3 H21_3 1_555 1_555
C31_3 C30_3 1_555 1_555
C32_3 C31_3 1_555 1_555
H22_3 C32_3 1_555 1_555
C33_3 C32_3 1_555 1_555
C34_3 C29_3 1_555 1_555
H23_3 C34_3 1_555 1_555
C35_3 N1_5 1_555 1_555
C36_3 C10_5 1_555 1_555
H24_3 C36_3 1_555 1_555
C37_3 C33_3 1_555 1_555
O18_3 C38_3 1_555 1_555
O19_3 C38_3 1_555 1_555
O20_3 C47_3 1_555 1_555
O21_3 C47_3 1_555 1_555
C38_3 C39_3 1_555 1_555
C39_3 C40_3 1_555 1_555
C40_3 H25_3 1_555 1_555
C41_3 C40_3 1_555 1_555
C42_3 C41_3 1_555 1_555
H26_3 C42_3 1_555 1_555
C43_3 C42_3 1_555 1_555
C44_3 C39_3 1_555 1_555
H27_3 C44_3 1_555 1_555
C45_3 N2_5 1_555 1_555
C46_3 C20_5 1_555 1_555
H28_3 C46_3 1_555 1_555
C47_3 C41_3 1_555 1_555
O22_3 Gd1_5 1_555 1_555
Gd5_4 O17_3 1_555 1_555
Gd7_2 O21_3 1_555 1_555
Gd9_3 O20_3 1_555 1_555
Gd10_3 O14_3 1_555 1_555
Gd11_3 O16_3 1_555 1_555
O29_3 Gd1_5 1_555 1_555
O34_3 Gd1_5 1_555 1_555
C26_5 O22_3 1_555 1_555
O15_3 Gd10_3 1_555 1_555
C31_3 C35_3 1_555 1_555
C33_3 C34_3 1_555 1_555
C35_3 C36_3 1_555 1_555
O18_3 Gd10_3 1_555 1_555
O19_3 Gd10_3 1_555 1_555
C43_3 C44_3 1_555 1_555
C43_3 C45_3 1_555 1_555
C45_3 C46_3 1_555 1_555
O22_3 Gd10_3 1_555 1_555
Gd1_6 O9_6 1_555 1_555
Gd2_3 O1_3 1_555 1_555
O1_3 C1_3 1_555 1_555
O2_3 Gd2_3 1_555 1_555
O3_3 Gd2_3 1_555 1_555
O4_3 Gd2_3 1_555 1_555
O5_3 C21_3 1_555 1_555
O6_3 C21_3 1_555 1_555
O7_3 C22_3 1_555 1_555
O8_3 C22_3 1_555 1_555
O9_6 C27_6 1_555 1_555
O10_6 Gd1_6 1_555 1_555
O11_3 Gd2_3 1_555 1_555
C1_3 O2_3 1_555 1_555
C2_3 C1_3 1_555 1_555
C3_3 C2_3 1_555 1_555
H1_3 C3_3 1_555 1_555
C4_3 C3_3 1_555 1_555
C5_3 C4_3 1_555 1_555
H2_3 C5_3 1_555 1_555
C6_3 C5_3 1_555 1_555
C7_3 C2_3 1_555 1_555
H3_3 C7_3 1_555 1_555
C8_3 C4_3 1_555 1_555
C9_3 C8_3 1_555 1_555
H4_3 C9_3 1_555 1_555
C10_6 C9_3 1_555 1_555
H5_6 C10_6 1_555 1_555
C11_3 O3_3 1_555 1_555
C12_3 C11_3 1_555 1_555
C13_3 C12_3 1_555 1_555
H6_3 C13_3 1_555 1_555
C14_3 C13_3 1_555 1_555
C15_3 C14_3 1_555 1_555
H7_3 C15_3 1_555 1_555
C16_3 C15_3 1_555 1_555
C17_3 C12_3 1_555 1_555
H8_3 C17_3 1_555 1_555
C18_3 C16_3 1_555 1_555
C19_3 C18_3 1_555 1_555
H9_3 C19_3 1_555 1_555
C20_6 C19_3 1_555 1_555
H10_6 C20_6 1_555 1_555
C21_3 C14_3 1_555 1_555
C22_3 C6_3 1_555 1_555
C23_3 O11_3 1_555 1_555
H11_3 C23_3 1_555 1_555
C24_3 H12_3 1_555 1_555
H13_3 C24_3 1_555 1_555
H14_3 C24_3 1_555 1_555
C25_3 H15_3 1_555 1_555
H16_3 C25_3 1_555 1_555
H17_3 C25_3 1_555 1_555
C26_6 H18_6 1_555 1_555
N1_6 C8_3 1_555 1_555
N2_6 C18_3 1_555 1_555
O12_3 Gd1_6 1_555 1_555
O13_6 Gd1_6 1_555 1_555
N3_3 C23_3 1_555 1_555
C27_6 O10_6 1_555 1_555
H20_6 C27_6 1_555 1_555
H29_3 O13_6 1_555 1_555
Gd3_3 O5_3 1_555 1_555
O23_3 Gd3_3 1_555 1_555
C48_3 O23_3 1_555 1_555
H30_3 C48_3 1_555 1_555
C49_3 H31_3 1_555 1_555
H32_3 C49_3 1_555 1_555
H33_3 C49_3 1_555 1_555
C50_3 H34_3 1_555 1_555
H35_3 C50_3 1_555 1_555
H36_3 C50_3 1_555 1_555
N4_3 C48_3 1_555 1_555
Gd4_4 O8_3 1_555 1_555
Gd6_2 O6_3 1_555 1_555
Gd8_3 O7_3 1_555 1_555
O24_3 Gd3_3 1_555 1_555
O25_3 Gd3_3 1_555 1_555
O26_3 Gd3_3 1_555 1_555
O27_3 Gd3_3 1_555 1_555
O28_3 Gd2_3 1_555 1_555
O30_3 Gd1_6 1_555 1_555
O31_3 Gd2_3 1_555 1_555
O32_3 Gd3_3 1_555 1_555
O33_3 Gd1_6 1_555 1_555
O35_3 Gd3_3 1_555 1_555
Gd2_3 O12_3 1_555 1_555
O4_3 C11_3 1_555 1_555
C6_3 C7_3 1_555 1_555
C16_3 C17_3 1_555 1_555
C24_3 N3_3 1_555 1_555
C25_3 N3_3 1_555 1_555
C26_6 O12_3 1_555 1_555
C49_3 N4_3 1_555 1_555
C50_3 N4_3 1_555 1_555
Gd6_2 O35_3 1_555 1_555
Gd1_7 O9_7 1_555 1_555
Gd2_4 O1_4 1_555 1_555
O1_4 C1_4 1_555 1_555
O2_4 Gd2_4 1_555 1_555
O3_4 Gd2_4 1_555 1_555
O4_4 Gd2_4 1_555 1_555
O5_4 C21_4 1_555 1_555
O6_4 C21_4 1_555 1_555
O7_4 C22_4 1_555 1_555
O8_4 C22_4 1_555 1_555
O9_7 C27_7 1_555 1_555
O10_7 Gd1_7 1_555 1_555
O11_4 Gd2_4 1_555 1_555
C1_4 O2_4 1_555 1_555
C2_4 C1_4 1_555 1_555
C3_4 C2_4 1_555 1_555
H1_4 C3_4 1_555 1_555
C4_4 C3_4 1_555 1_555
C5_4 C4_4 1_555 1_555
H2_4 C5_4 1_555 1_555
C6_4 C5_4 1_555 1_555
C7_4 C2_4 1_555 1_555
H3_4 C7_4 1_555 1_555
C8_4 C4_4 1_555 1_555
C9_4 C8_4 1_555 1_555
H4_4 C9_4 1_555 1_555
C10_7 C9_4 1_555 1_555
H5_7 C10_7 1_555 1_555
C11_4 O3_4 1_555 1_555
C12_4 C11_4 1_555 1_555
C13_4 C12_4 1_555 1_555
H6_4 C13_4 1_555 1_555
C14_4 C13_4 1_555 1_555
C15_4 C14_4 1_555 1_555
H7_4 C15_4 1_555 1_555
C16_4 C15_4 1_555 1_555
C17_4 C12_4 1_555 1_555
H8_4 C17_4 1_555 1_555
C18_4 C16_4 1_555 1_555
C19_4 C18_4 1_555 1_555
H9_4 C19_4 1_555 1_555
C20_7 C19_4 1_555 1_555
H10_7 C20_7 1_555 1_555
C21_4 C14_4 1_555 1_555
C22_4 C6_4 1_555 1_555
C23_4 O11_4 1_555 1_555
H11_4 C23_4 1_555 1_555
C24_4 H12_4 1_555 1_555
H13_4 C24_4 1_555 1_555
H14_4 C24_4 1_555 1_555
C25_4 H15_4 1_555 1_555
H16_4 C25_4 1_555 1_555
H17_4 C25_4 1_555 1_555
C26_7 H18_7 1_555 1_555
N1_7 C8_4 1_555 1_555
N2_7 C18_4 1_555 1_555
O12_4 Gd1_7 1_555 1_555
O13_7 Gd1_7 1_555 1_555
N3_4 C23_4 1_555 1_555
C27_7 O10_7 1_555 1_555
H20_7 C27_7 1_555 1_555
H29_4 O13_7 1_555 1_555
Gd3_4 O5_4 1_555 1_555
O23_4 Gd3_4 1_555 1_555
C48_4 O23_4 1_555 1_555
H30_4 C48_4 1_555 1_555
C49_4 H31_4 1_555 1_555
H32_4 C49_4 1_555 1_555
H33_4 C49_4 1_555 1_555
C50_4 H34_4 1_555 1_555
H35_4 C50_4 1_555 1_555
H36_4 C50_4 1_555 1_555
N4_4 C48_4 1_555 1_555
Gd4_2 O8_4 1_555 1_555
Gd7_2 O6_4 1_555 1_555
Gd8_4 O7_4 1_555 1_555
O24_4 Gd3_4 1_555 1_555
O25_4 Gd3_4 1_555 1_555
O26_4 Gd3_4 1_555 1_555
O27_4 Gd3_4 1_555 1_555
O28_4 Gd2_4 1_555 1_555
O30_4 Gd1_7 1_555 1_555
O31_4 Gd2_4 1_555 1_555
O32_4 Gd3_4 1_555 1_555
O33_4 Gd1_7 1_555 1_555
O35_4 Gd3_4 1_555 1_555
Gd2_4 O12_4 1_555 1_555
O4_4 C11_4 1_555 1_555
C6_4 C7_4 1_555 1_555
C16_4 C17_4 1_555 1_555
C24_4 N3_4 1_555 1_555
C25_4 N3_4 1_555 1_555
C26_7 O12_4 1_555 1_555
C49_4 N4_4 1_555 1_555
C50_4 N4_4 1_555 1_555
Gd7_2 O35_4 1_555 1_555
Gd1_8 O9_8 1_555 1_555
O9_8 C27_8 1_555 1_555
O10_8 Gd1_8 1_555 1_555
H5_8 C10_8 1_555 1_555
H10_8 C20_8 1_555 1_555
C26_8 H18_8 1_555 1_555
O13_8 Gd1_8 1_555 1_555
H19_4 O13_8 1_555 1_555
C27_8 O10_8 1_555 1_555
H20_8 C27_8 1_555 1_555
O14_4 C28_4 1_555 1_555
O15_4 C28_4 1_555 1_555
O16_4 C37_4 1_555 1_555
O17_4 C37_4 1_555 1_555
C28_4 C29_4 1_555 1_555
C29_4 C30_4 1_555 1_555
C30_4 H21_4 1_555 1_555
C31_4 C30_4 1_555 1_555
C32_4 C31_4 1_555 1_555
H22_4 C32_4 1_555 1_555
C33_4 C32_4 1_555 1_555
C34_4 C29_4 1_555 1_555
H23_4 C34_4 1_555 1_555
C35_4 N1_8 1_555 1_555
C36_4 C10_8 1_555 1_555
H24_4 C36_4 1_555 1_555
C37_4 C33_4 1_555 1_555
O18_4 C38_4 1_555 1_555
O19_4 C38_4 1_555 1_555
O20_4 C47_4 1_555 1_555
O21_4 C47_4 1_555 1_555
C38_4 C39_4 1_555 1_555
C39_4 C40_4 1_555 1_555
C40_4 H25_4 1_555 1_555
C41_4 C40_4 1_555 1_555
C42_4 C41_4 1_555 1_555
H26_4 C42_4 1_555 1_555
C43_4 C42_4 1_555 1_555
C44_4 C39_4 1_555 1_555
H27_4 C44_4 1_555 1_555
C45_4 N2_8 1_555 1_555
C46_4 C20_8 1_555 1_555
H28_4 C46_4 1_555 1_555
C47_4 C41_4 1_555 1_555
O22_4 Gd1_8 1_555 1_555
Gd5_2 O17_4 1_555 1_555
Gd6_2 O21_4 1_555 1_555
Gd9_4 O20_4 1_555 1_555
Gd10_4 O14_4 1_555 1_555
Gd11_4 O16_4 1_555 1_555
O29_4 Gd1_8 1_555 1_555
O34_4 Gd1_8 1_555 1_555
C26_8 O22_4 1_555 1_555
O15_4 Gd10_4 1_555 1_555
C31_4 C35_4 1_555 1_555
C33_4 C34_4 1_555 1_555
C35_4 C36_4 1_555 1_555
O18_4 Gd10_4 1_555 1_555
O19_4 Gd10_4 1_555 1_555
C43_4 C44_4 1_555 1_555
C43_4 C45_4 1_555 1_555
C45_4 C46_4 1_555 1_555
O22_4 Gd10_4 1_555 1_555
Gd4 O9_9 1_555 1_555
O9_9 C27_9 1_555 1_555
O10_9 Gd4 1_555 1_555
H5_9 C10_9 1_555 1_555
H10_9 C20_9 1_555 1_555
C26_9 H18_9 1_555 1_555
O13_9 Gd4 1_555 1_555
H19_5 O13_9 1_555 1_555
C27_9 O10_9 1_555 1_555
H20_9 C27_9 1_555 1_555
O14_5 C28_5 1_555 1_555
O15_5 C28_5 1_555 1_555
O16_5 C37_5 1_555 1_555
O17_5 C37_5 1_555 1_555
C28_5 C29_5 1_555 1_555
C29_5 C30_5 1_555 1_555
C30_5 H21_5 1_555 1_555
C31_5 C30_5 1_555 1_555
C32_5 C31_5 1_555 1_555
H22_5 C32_5 1_555 1_555
C33_5 C32_5 1_555 1_555
C34_5 C29_5 1_555 1_555
H23_5 C34_5 1_555 1_555
C35_5 N1_9 1_555 1_555
C36_5 C10_9 1_555 1_555
H24_5 C36_5 1_555 1_555
C37_5 C33_5 1_555 1_555
O18_5 C38_5 1_555 1_555
O19_5 C38_5 1_555 1_555
O20_5 C47_5 1_555 1_555
O21_5 C47_5 1_555 1_555
C38_5 C39_5 1_555 1_555
C39_5 C40_5 1_555 1_555
C40_5 H25_5 1_555 1_555
C41_5 C40_5 1_555 1_555
C42_5 C41_5 1_555 1_555
H26_5 C42_5 1_555 1_555
C43_5 C42_5 1_555 1_555
C44_5 C39_5 1_555 1_555
H27_5 C44_5 1_555 1_555
C45_5 N2_9 1_555 1_555
C46_5 C20_9 1_555 1_555
H28_5 C46_5 1_555 1_555
C47_5 C41_5 1_555 1_555
O22_5 Gd4 1_555 1_555
Gd4_5 O17_5 1_555 1_555
Gd7_3 O21_5 1_555 1_555
Gd9_5 O20_5 1_555 1_555
Gd11 O14_5 1_555 1_555
Gd11_5 O16_5 1_555 1_555
O29_5 Gd4 1_555 1_555
C26_9 O22_5 1_555 1_555
O15_5 Gd11 1_555 1_555
C31_5 C35_5 1_555 1_555
C33_5 C34_5 1_555 1_555
C35_5 C36_5 1_555 1_555
O18_5 Gd11 1_555 1_555
O19_5 Gd11 1_555 1_555
C43_5 C44_5 1_555 1_555
C43_5 C45_5 1_555 1_555
C45_5 C46_5 1_555 1_555
O22_5 Gd11 1_555 1_555
Gd4_2 O9_10 1_555 1_555
Gd8_4 O1_5 1_555 1_555
O1_5 C1_5 1_555 1_555
O2_5 Gd8_4 1_555 1_555
O3_5 Gd8_4 1_555 1_555
O4_5 Gd8_4 1_555 1_555
O5_5 C21_5 1_555 1_555
O6_5 C21_5 1_555 1_555
O7_5 C22_5 1_555 1_555
O8_5 C22_5 1_555 1_555
O9_10 C27_10 1_555 1_555
O10_10 Gd4_2 1_555 1_555
O11_5 Gd8_4 1_555 1_555
C1_5 O2_5 1_555 1_555
C2_5 C1_5 1_555 1_555
C3_5 C2_5 1_555 1_555
H1_5 C3_5 1_555 1_555
C4_5 C3_5 1_555 1_555
C5_5 C4_5 1_555 1_555
H2_5 C5_5 1_555 1_555
C6_5 C5_5 1_555 1_555
C7_5 C2_5 1_555 1_555
H3_5 C7_5 1_555 1_555
C8_5 C4_5 1_555 1_555
C9_5 C8_5 1_555 1_555
H4_5 C9_5 1_555 1_555
C10_10 C9_5 1_555 1_555
H5_10 C10_10 1_555 1_555
C11_5 O3_5 1_555 1_555
C12_5 C11_5 1_555 1_555
C13_5 C12_5 1_555 1_555
H6_5 C13_5 1_555 1_555
C14_5 C13_5 1_555 1_555
C15_5 C14_5 1_555 1_555
H7_5 C15_5 1_555 1_555
C16_5 C15_5 1_555 1_555
C17_5 C12_5 1_555 1_555
H8_5 C17_5 1_555 1_555
C18_5 C16_5 1_555 1_555
C19_5 C18_5 1_555 1_555
H9_5 C19_5 1_555 1_555
C20_10 C19_5 1_555 1_555
H10_10 C20_10 1_555 1_555
C21_5 C14_5 1_555 1_555
C22_5 C6_5 1_555 1_555
C23_5 O11_5 1_555 1_555
H11_5 C23_5 1_555 1_555
C24_5 H12_5 1_555 1_555
H13_5 C24_5 1_555 1_555
H14_5 C24_5 1_555 1_555
C25_5 H15_5 1_555 1_555
H16_5 C25_5 1_555 1_555
H17_5 C25_5 1_555 1_555
C26_10 H18_10 1_555 1_555
N1_10 C8_5 1_555 1_555
N2_10 C18_5 1_555 1_555
O12_5 Gd4_2 1_555 1_555
O13_10 Gd4_2 1_555 1_555
N3_5 C23_5 1_555 1_555
C27_10 O10_10 1_555 1_555
H20_10 C27_10 1_555 1_555
H29_5 O13_10 1_555 1_555
Gd3_5 O5_5 1_555 1_555
O23_5 Gd3_5 1_555 1_555
C48_5 O23_5 1_555 1_555
H30_5 C48_5 1_555 1_555
C49_5 H31_5 1_555 1_555
H32_5 C49_5 1_555 1_555
H33_5 C49_5 1_555 1_555
C50_5 H34_5 1_555 1_555
H35_5 C50_5 1_555 1_555
H36_5 C50_5 1_555 1_555
N4_5 C48_5 1_555 1_555
Gd5_5 O8_5 1_555 1_555
Gd6_3 O6_5 1_555 1_555
Gd8_5 O7_5 1_555 1_555
O24_5 Gd3_5 1_555 1_555
O25_5 Gd3_5 1_555 1_555
O26_5 Gd3_5 1_555 1_555
O27_5 Gd3_5 1_555 1_555
O28_5 Gd8_4 1_555 1_555
O30_5 Gd4_2 1_555 1_555
O32_5 Gd3_5 1_555 1_555
O35_5 Gd3_5 1_555 1_555
Gd8_4 O12_5 1_555 1_555
O4_5 C11_5 1_555 1_555
C6_5 C7_5 1_555 1_555
C16_5 C17_5 1_555 1_555
C24_5 N3_5 1_555 1_555
C25_5 N3_5 1_555 1_555
C26_10 O12_5 1_555 1_555
C49_5 N4_5 1_555 1_555
C50_5 N4_5 1_555 1_555
Gd6_3 O35_5 1_555 1_555
Gd5 O9_11 1_555 1_555
Gd8 O1_6 1_555 1_555
O1_6 C1_6 1_555 1_555
O2_6 Gd8 1_555 1_555
O3_6 Gd8 1_555 1_555
O4_6 Gd8 1_555 1_555
O5_6 C21_6 1_555 1_555
O6_6 C21_6 1_555 1_555
O7_6 C22_6 1_555 1_555
O8_6 C22_6 1_555 1_555
O9_11 C27_11 1_555 1_555
O10_11 Gd5 1_555 1_555
O11_6 Gd8 1_555 1_555
C1_6 O2_6 1_555 1_555
C2_6 C1_6 1_555 1_555
C3_6 C2_6 1_555 1_555
H1_6 C3_6 1_555 1_555
C4_6 C3_6 1_555 1_555
C5_6 C4_6 1_555 1_555
H2_6 C5_6 1_555 1_555
C6_6 C5_6 1_555 1_555
C7_6 C2_6 1_555 1_555
H3_6 C7_6 1_555 1_555
C8_6 C4_6 1_555 1_555
C9_6 C8_6 1_555 1_555
H4_6 C9_6 1_555 1_555
C10_11 C9_6 1_555 1_555
H5_11 C10_11 1_555 1_555
C11_6 O3_6 1_555 1_555
C12_6 C11_6 1_555 1_555
C13_6 C12_6 1_555 1_555
H6_6 C13_6 1_555 1_555
C14_6 C13_6 1_555 1_555
C15_6 C14_6 1_555 1_555
H7_6 C15_6 1_555 1_555
C16_6 C15_6 1_555 1_555
C17_6 C12_6 1_555 1_555
H8_6 C17_6 1_555 1_555
C18_6 C16_6 1_555 1_555
C19_6 C18_6 1_555 1_555
H9_6 C19_6 1_555 1_555
C20_11 C19_6 1_555 1_555
H10_11 C20_11 1_555 1_555
C21_6 C14_6 1_555 1_555
C22_6 C6_6 1_555 1_555
C23_6 O11_6 1_555 1_555
H11_6 C23_6 1_555 1_555
C24_6 H12_6 1_555 1_555
H13_6 C24_6 1_555 1_555
H14_6 C24_6 1_555 1_555
C25_6 H15_6 1_555 1_555
H16_6 C25_6 1_555 1_555
H17_6 C25_6 1_555 1_555
C26_11 H18_11 1_555 1_555
N1_11 C8_6 1_555 1_555
N2_11 C18_6 1_555 1_555
O12_6 Gd5 1_555 1_555
O13_11 Gd5 1_555 1_555
N3_6 C23_6 1_555 1_555
C27_11 O10_11 1_555 1_555
H20_11 C27_11 1_555 1_555
H29_6 O13_11 1_555 1_555
Gd3_6 O5_6 1_555 1_555
O23_6 Gd3_6 1_555 1_555
C48_6 O23_6 1_555 1_555
H30_6 C48_6 1_555 1_555
C49_6 H31_6 1_555 1_555
H32_6 C49_6 1_555 1_555
H33_6 C49_6 1_555 1_555
C50_6 H34_6 1_555 1_555
H35_6 C50_6 1_555 1_555
H36_6 C50_6 1_555 1_555
N4_6 C48_6 1_555 1_555
Gd5_7 O8_6 1_555 1_555
Gd7_3 O6_6 1_555 1_555
Gd8_6 O7_6 1_555 1_555
O24_6 Gd3_6 1_555 1_555
O25_6 Gd3_6 1_555 1_555
O26_6 Gd3_6 1_555 1_555
O27_6 Gd3_6 1_555 1_555
O28_6 Gd8 1_555 1_555
O30_6 Gd5 1_555 1_555
O32_6 Gd3_6 1_555 1_555
O35_6 Gd3_6 1_555 1_555
Gd8 O12_6 1_555 1_555
O4_6 C11_6 1_555 1_555
C6_6 C7_6 1_555 1_555
C16_6 C17_6 1_555 1_555
C24_6 N3_6 1_555 1_555
C25_6 N3_6 1_555 1_555
C26_11 O12_6 1_555 1_555
C49_6 N4_6 1_555 1_555
C50_6 N4_6 1_555 1_555
Gd7_3 O35_6 1_555 1_555
Gd5_2 O9_12 1_555 1_555
O9_12 C27_12 1_555 1_555
O10_12 Gd5_2 1_555 1_555
H5_12 C10_12 1_555 1_555
H10_12 C20_12 1_555 1_555
C26_12 H18_12 1_555 1_555
O13_12 Gd5_2 1_555 1_555
H19_6 O13_12 1_555 1_555
C27_12 O10_12 1_555 1_555
H20_12 C27_12 1_555 1_555
O14_6 C28_6 1_555 1_555
O15_6 C28_6 1_555 1_555
O16_6 C37_6 1_555 1_555
O17_6 C37_6 1_555 1_555
C28_6 C29_6 1_555 1_555
C29_6 C30_6 1_555 1_555
C30_6 H21_6 1_555 1_555
C31_6 C30_6 1_555 1_555
C32_6 C31_6 1_555 1_555
H22_6 C32_6 1_555 1_555
C33_6 C32_6 1_555 1_555
C34_6 C29_6 1_555 1_555
H23_6 C34_6 1_555 1_555
C35_6 N1_12 1_555 1_555
C36_6 C10_12 1_555 1_555
H24_6 C36_6 1_555 1_555
C37_6 C33_6 1_555 1_555
O18_6 C38_6 1_555 1_555
O19_6 C38_6 1_555 1_555
O20_6 C47_6 1_555 1_555
O21_6 C47_6 1_555 1_555
C38_6 C39_6 1_555 1_555
C39_6 C40_6 1_555 1_555
C40_6 H25_6 1_555 1_555
C41_6 C40_6 1_555 1_555
C42_6 C41_6 1_555 1_555
H26_6 C42_6 1_555 1_555
C43_6 C42_6 1_555 1_555
C44_6 C39_6 1_555 1_555
H27_6 C44_6 1_555 1_555
C45_6 N2_12 1_555 1_555
C46_6 C20_12 1_555 1_555
H28_6 C46_6 1_555 1_555
C47_6 C41_6 1_555 1_555
O22_6 Gd5_2 1_555 1_555
Gd4_7 O17_6 1_555 1_555
Gd6_3 O21_6 1_555 1_555
Gd9_6 O20_6 1_555 1_555
Gd11_4 O14_6 1_555 1_555
Gd11_6 O16_6 1_555 1_555
O29_6 Gd5_2 1_555 1_555
C26_12 O22_6 1_555 1_555
O15_6 Gd11_4 1_555 1_555
C31_6 C35_6 1_555 1_555
C33_6 C34_6 1_555 1_555
C35_6 C36_6 1_555 1_555
O18_6 Gd11_4 1_555 1_555
O19_6 Gd11_4 1_555 1_555
C43_6 C44_6 1_555 1_555
C43_6 C45_6 1_555 1_555
C45_6 C46_6 1_555 1_555
O22_6 Gd11_4 1_555 1_555
Gd4_3 O9_13 1_555 1_555
O9_13 C27_13 1_555 1_555
O10_13 Gd4_3 1_555 1_555
H5_13 C10_13 1_555 1_555
H10_13 C20_13 1_555 1_555
C26_13 H18_13 1_555 1_555
O13_13 Gd4_3 1_555 1_555
H19_7 O13_13 1_555 1_555
C27_13 O10_13 1_555 1_555
H20_13 C27_13 1_555 1_555
O14_7 C28_7 1_555 1_555
O15_7 C28_7 1_555 1_555
O16_7 C37_7 1_555 1_555
O17_7 C37_7 1_555 1_555
C28_7 C29_7 1_555 1_555
C29_7 C30_7 1_555 1_555
C30_7 H21_7 1_555 1_555
C31_7 C30_7 1_555 1_555
C32_7 C31_7 1_555 1_555
H22_7 C32_7 1_555 1_555
C33_7 C32_7 1_555 1_555
C34_7 C29_7 1_555 1_555
H23_7 C34_7 1_555 1_555
C35_7 N1_13 1_555 1_555
C36_7 C10_13 1_555 1_555
H24_7 C36_7 1_555 1_555
C37_7 C33_7 1_555 1_555
O18_7 C38_7 1_555 1_555
O19_7 C38_7 1_555 1_555
O20_7 C47_7 1_555 1_555
O21_7 C47_7 1_555 1_555
C38_7 C39_7 1_555 1_555
C39_7 C40_7 1_555 1_555
C40_7 H25_7 1_555 1_555
C41_7 C40_7 1_555 1_555
C42_7 C41_7 1_555 1_555
H26_7 C42_7 1_555 1_555
C43_7 C42_7 1_555 1_555
C44_7 C39_7 1_555 1_555
H27_7 C44_7 1_555 1_555
C45_7 N2_13 1_555 1_555
C46_7 C20_13 1_555 1_555
H28_7 C46_7 1_555 1_555
C47_7 C41_7 1_555 1_555
O22_7 Gd4_3 1_555 1_555
Gd5_8 O17_7 1_555 1_555
Gd7_4 O21_7 1_555 1_555
Gd9_7 O20_7 1_555 1_555
Gd11_2 O14_7 1_555 1_555
Gd11_7 O16_7 1_555 1_555
O29_7 Gd4_3 1_555 1_555
C26_13 O22_7 1_555 1_555
O15_7 Gd11_2 1_555 1_555
C31_7 C35_7 1_555 1_555
C33_7 C34_7 1_555 1_555
C35_7 C36_7 1_555 1_555
O18_7 Gd11_2 1_555 1_555
O19_7 Gd11_2 1_555 1_555
C43_7 C44_7 1_555 1_555
C43_7 C45_7 1_555 1_555
C45_7 C46_7 1_555 1_555
O22_7 Gd11_2 1_555 1_555
Gd4_4 O9_14 1_555 1_555
Gd8_3 O1_7 1_555 1_555
O1_7 C1_7 1_555 1_555
O2_7 Gd8_3 1_555 1_555
O3_7 Gd8_3 1_555 1_555
O4_7 Gd8_3 1_555 1_555
O5_7 C21_7 1_555 1_555
O6_7 C21_7 1_555 1_555
O7_7 C22_7 1_555 1_555
O8_7 C22_7 1_555 1_555
O9_14 C27_14 1_555 1_555
O10_14 Gd4_4 1_555 1_555
O11_7 Gd8_3 1_555 1_555
C1_7 O2_7 1_555 1_555
C2_7 C1_7 1_555 1_555
C3_7 C2_7 1_555 1_555
H1_7 C3_7 1_555 1_555
C4_7 C3_7 1_555 1_555
C5_7 C4_7 1_555 1_555
H2_7 C5_7 1_555 1_555
C6_7 C5_7 1_555 1_555
C7_7 C2_7 1_555 1_555
H3_7 C7_7 1_555 1_555
C8_7 C4_7 1_555 1_555
C9_7 C8_7 1_555 1_555
H4_7 C9_7 1_555 1_555
C10_14 C9_7 1_555 1_555
H5_14 C10_14 1_555 1_555
C11_7 O3_7 1_555 1_555
C12_7 C11_7 1_555 1_555
C13_7 C12_7 1_555 1_555
H6_7 C13_7 1_555 1_555
C14_7 C13_7 1_555 1_555
C15_7 C14_7 1_555 1_555
H7_7 C15_7 1_555 1_555
C16_7 C15_7 1_555 1_555
C17_7 C12_7 1_555 1_555
H8_7 C17_7 1_555 1_555
C18_7 C16_7 1_555 1_555
C19_7 C18_7 1_555 1_555
H9_7 C19_7 1_555 1_555
C20_14 C19_7 1_555 1_555
H10_14 C20_14 1_555 1_555
C21_7 C14_7 1_555 1_555
C22_7 C6_7 1_555 1_555
C23_7 O11_7 1_555 1_555
H11_7 C23_7 1_555 1_555
C24_7 H12_7 1_555 1_555
H13_7 C24_7 1_555 1_555
H14_7 C24_7 1_555 1_555
C25_7 H15_7 1_555 1_555
H16_7 C25_7 1_555 1_555
H17_7 C25_7 1_555 1_555
C26_14 H18_14 1_555 1_555
N1_14 C8_7 1_555 1_555
N2_14 C18_7 1_555 1_555
O12_7 Gd4_4 1_555 1_555
O13_14 Gd4_4 1_555 1_555
N3_7 C23_7 1_555 1_555
C27_14 O10_14 1_555 1_555
H20_14 C27_14 1_555 1_555
H29_7 O13_14 1_555 1_555
Gd3_7 O5_7 1_555 1_555
O23_7 Gd3_7 1_555 1_555
C48_7 O23_7 1_555 1_555
H30_7 C48_7 1_555 1_555
C49_7 H31_7 1_555 1_555
H32_7 C49_7 1_555 1_555
H33_7 C49_7 1_555 1_555
C50_7 H34_7 1_555 1_555
H35_7 C50_7 1_555 1_555
H36_7 C50_7 1_555 1_555
N4_7 C48_7 1_555 1_555
Gd4_8 O8_7 1_555 1_555
Gd6_4 O6_7 1_555 1_555
Gd8_7 O7_7 1_555 1_555
O24_7 Gd3_7 1_555 1_555
O25_7 Gd3_7 1_555 1_555
O26_7 Gd3_7 1_555 1_555
O27_7 Gd3_7 1_555 1_555
O28_7 Gd8_3 1_555 1_555
O30_7 Gd4_4 1_555 1_555
O32_7 Gd3_7 1_555 1_555
O35_7 Gd3_7 1_555 1_555
Gd8_3 O12_7 1_555 1_555
O4_7 C11_7 1_555 1_555
C6_7 C7_7 1_555 1_555
C16_7 C17_7 1_555 1_555
C24_7 N3_7 1_555 1_555
C25_7 N3_7 1_555 1_555
C26_14 O12_7 1_555 1_555
C49_7 N4_7 1_555 1_555
C50_7 N4_7 1_555 1_555
Gd6_4 O35_7 1_555 1_555
Gd5_3 O9_15 1_555 1_555
Gd8_2 O1_8 1_555 1_555
O1_8 C1_8 1_555 1_555
O2_8 Gd8_2 1_555 1_555
O3_8 Gd8_2 1_555 1_555
O4_8 Gd8_2 1_555 1_555
O5_8 C21_8 1_555 1_555
O6_8 C21_8 1_555 1_555
O7_8 C22_8 1_555 1_555
O8_8 C22_8 1_555 1_555
O9_15 C27_15 1_555 1_555
O10_15 Gd5_3 1_555 1_555
O11_8 Gd8_2 1_555 1_555
C1_8 O2_8 1_555 1_555
C2_8 C1_8 1_555 1_555
C3_8 C2_8 1_555 1_555
H1_8 C3_8 1_555 1_555
C4_8 C3_8 1_555 1_555
C5_8 C4_8 1_555 1_555
H2_8 C5_8 1_555 1_555
C6_8 C5_8 1_555 1_555
C7_8 C2_8 1_555 1_555
H3_8 C7_8 1_555 1_555
C8_8 C4_8 1_555 1_555
C9_8 C8_8 1_555 1_555
H4_8 C9_8 1_555 1_555
C10_15 C9_8 1_555 1_555
H5_15 C10_15 1_555 1_555
C11_8 O3_8 1_555 1_555
C12_8 C11_8 1_555 1_555
C13_8 C12_8 1_555 1_555
H6_8 C13_8 1_555 1_555
C14_8 C13_8 1_555 1_555
C15_8 C14_8 1_555 1_555
H7_8 C15_8 1_555 1_555
C16_8 C15_8 1_555 1_555
C17_8 C12_8 1_555 1_555
H8_8 C17_8 1_555 1_555
C18_8 C16_8 1_555 1_555
C19_8 C18_8 1_555 1_555
H9_8 C19_8 1_555 1_555
C20_15 C19_8 1_555 1_555
H10_15 C20_15 1_555 1_555
C21_8 C14_8 1_555 1_555
C22_8 C6_8 1_555 1_555
C23_8 O11_8 1_555 1_555
H11_8 C23_8 1_555 1_555
C24_8 H12_8 1_555 1_555
H13_8 C24_8 1_555 1_555
H14_8 C24_8 1_555 1_555
C25_8 H15_8 1_555 1_555
H16_8 C25_8 1_555 1_555
H17_8 C25_8 1_555 1_555
C26_15 H18_15 1_555 1_555
N1_15 C8_8 1_555 1_555
N2_15 C18_8 1_555 1_555
O12_8 Gd5_3 1_555 1_555
O13_15 Gd5_3 1_555 1_555
N3_8 C23_8 1_555 1_555
C27_15 O10_15 1_555 1_555
H20_15 C27_15 1_555 1_555
H29_8 O13_15 1_555 1_555
Gd3_8 O5_8 1_555 1_555
O23_8 Gd3_8 1_555 1_555
C48_8 O23_8 1_555 1_555
H30_8 C48_8 1_555 1_555
C49_8 H31_8 1_555 1_555
H32_8 C49_8 1_555 1_555
H33_8 C49_8 1_555 1_555
C50_8 H34_8 1_555 1_555
H35_8 C50_8 1_555 1_555
H36_8 C50_8 1_555 1_555
N4_8 C48_8 1_555 1_555
Gd4_6 O8_8 1_555 1_555
Gd7_4 O6_8 1_555 1_555
Gd8_8 O7_8 1_555 1_555
O24_8 Gd3_8 1_555 1_555
O25_8 Gd3_8 1_555 1_555
O26_8 Gd3_8 1_555 1_555
O27_8 Gd3_8 1_555 1_555
O28_8 Gd8_2 1_555 1_555
O30_8 Gd5_3 1_555 1_555
O32_8 Gd3_8 1_555 1_555
O35_8 Gd3_8 1_555 1_555
Gd8_2 O12_8 1_555 1_555
O4_8 C11_8 1_555 1_555
C6_8 C7_8 1_555 1_555
C16_8 C17_8 1_555 1_555
C24_8 N3_8 1_555 1_555
C25_8 N3_8 1_555 1_555
C26_15 O12_8 1_555 1_555
C49_8 N4_8 1_555 1_555
C50_8 N4_8 1_555 1_555
Gd7_4 O35_8 1_555 1_555
Gd5_4 O9_16 1_555 1_555
O9_16 C27_16 1_555 1_555
O10_16 Gd5_4 1_555 1_555
H5_16 C10_16 1_555 1_555
H10_16 C20_16 1_555 1_555
C26_16 H18_16 1_555 1_555
O13_16 Gd5_4 1_555 1_555
H19_8 O13_16 1_555 1_555
C27_16 O10_16 1_555 1_555
H20_16 C27_16 1_555 1_555
O14_8 C28_8 1_555 1_555
O15_8 C28_8 1_555 1_555
O16_8 C37_8 1_555 1_555
O17_8 C37_8 1_555 1_555
C28_8 C29_8 1_555 1_555
C29_8 C30_8 1_555 1_555
C30_8 H21_8 1_555 1_555
C31_8 C30_8 1_555 1_555
C32_8 C31_8 1_555 1_555
H22_8 C32_8 1_555 1_555
C33_8 C32_8 1_555 1_555
C34_8 C29_8 1_555 1_555
H23_8 C34_8 1_555 1_555
C35_8 N1_16 1_555 1_555
C36_8 C10_16 1_555 1_555
H24_8 C36_8 1_555 1_555
C37_8 C33_8 1_555 1_555
O18_8 C38_8 1_555 1_555
O19_8 C38_8 1_555 1_555
O20_8 C47_8 1_555 1_555
O21_8 C47_8 1_555 1_555
C38_8 C39_8 1_555 1_555
C39_8 C40_8 1_555 1_555
C40_8 H25_8 1_555 1_555
C41_8 C40_8 1_555 1_555
C42_8 C41_8 1_555 1_555
H26_8 C42_8 1_555 1_555
C43_8 C42_8 1_555 1_555
C44_8 C39_8 1_555 1_555
H27_8 C44_8 1_555 1_555
C45_8 N2_16 1_555 1_555
C46_8 C20_16 1_555 1_555
H28_8 C46_8 1_555 1_555
C47_8 C41_8 1_555 1_555
O22_8 Gd5_4 1_555 1_555
Gd5_6 O17_8 1_555 1_555
Gd6_4 O21_8 1_555 1_555
Gd9_8 O20_8 1_555 1_555
Gd11_3 O14_8 1_555 1_555
Gd11_8 O16_8 1_555 1_555
O29_8 Gd5_4 1_555 1_555
C26_16 O22_8 1_555 1_555
O15_8 Gd11_3 1_555 1_555
C31_8 C35_8 1_555 1_555
C33_8 C34_8 1_555 1_555
C35_8 C36_8 1_555 1_555
O18_8 Gd11_3 1_555 1_555
O19_8 Gd11_3 1_555 1_555
C43_8 C44_8 1_555 1_555
C43_8 C45_8 1_555 1_555
C45_8 C46_8 1_555 1_555
O22_8 Gd11_3 1_555 1_555
Gd4_5 O9_17 1_555 1_555
O9_17 C27_17 1_555 1_555
O10_17 Gd4_5 1_555 1_555
H5_17 C10_17 1_555 1_555
H10_17 C20_17 1_555 1_555
C26_17 H18_17 1_555 1_555
O13_17 Gd4_5 1_555 1_555
H19_9 O13_17 1_555 1_555
C27_17 O10_17 1_555 1_555
H20_17 C27_17 1_555 1_555
O14_9 C28_9 1_555 1_555
O15_9 C28_9 1_555 1_555
O16_9 C37_9 1_555 1_555
O34 C37_9 1_555 1_555
C28_9 C29_9 1_555 1_555
C29_9 C30_9 1_555 1_555
C30_9 H21_9 1_555 1_555
C31_9 C30_9 1_555 1_555
C32_9 C31_9 1_555 1_555
H22_9 C32_9 1_555 1_555
C33_9 C32_9 1_555 1_555
C34_9 C29_9 1_555 1_555
H23_9 C34_9 1_555 1_555
C35_9 N1_17 1_555 1_555
C36_9 C10_17 1_555 1_555
H24_9 C36_9 1_555 1_555
C37_9 C33_9 1_555 1_555
O18_9 C38_9 1_555 1_555
O19_9 C38_9 1_555 1_555
O20_9 C47_9 1_555 1_555
O21_9 C47_9 1_555 1_555
C38_9 C39_9 1_555 1_555
C39_9 C40_9 1_555 1_555
C40_9 H25_9 1_555 1_555
C41_9 C40_9 1_555 1_555
C42_9 C41_9 1_555 1_555
H26_9 C42_9 1_555 1_555
C43_9 C42_9 1_555 1_555
C44_9 C39_9 1_555 1_555
H27_9 C44_9 1_555 1_555
C45_9 N2_17 1_555 1_555
C46_9 C20_17 1_555 1_555
H28_9 C46_9 1_555 1_555
C47_9 C41_9 1_555 1_555
O22_9 Gd4_5 1_555 1_555
Gd7_5 O21_9 1_555 1_555
Gd9_9 O20_9 1_555 1_555
Gd11_5 O14_9 1_555 1_555
Gd10 O16_9 1_555 1_555
O29_9 Gd4_5 1_555 1_555
C26_17 O22_9 1_555 1_555
O15_9 Gd11_5 1_555 1_555
C31_9 C35_9 1_555 1_555
C33_9 C34_9 1_555 1_555
C35_9 C36_9 1_555 1_555
O18_9 Gd11_5 1_555 1_555
O19_9 Gd11_5 1_555 1_555
C43_9 C44_9 1_555 1_555
C43_9 C45_9 1_555 1_555
C45_9 C46_9 1_555 1_555
O22_9 Gd11_5 1_555 1_555
Gd4_6 O9_18 1_555 1_555
Gd8_8 O1_9 1_555 1_555
O1_9 C1_9 1_555 1_555
O2_9 Gd8_8 1_555 1_555
O3_9 Gd8_8 1_555 1_555
O4_9 Gd8_8 1_555 1_555
O5_9 C21_9 1_555 1_555
O6_9 C21_9 1_555 1_555
O31_2 C22_9 1_555 1_555
O33_2 C22_9 1_555 1_555
O9_18 C27_18 1_555 1_555
O10_18 Gd4_6 1_555 1_555
O11_9 Gd8_8 1_555 1_555
C1_9 O2_9 1_555 1_555
C2_9 C1_9 1_555 1_555
C3_9 C2_9 1_555 1_555
H1_9 C3_9 1_555 1_555
C4_9 C3_9 1_555 1_555
C5_9 C4_9 1_555 1_555
H2_9 C5_9 1_555 1_555
C6_9 C5_9 1_555 1_555
C7_9 C2_9 1_555 1_555
H3_9 C7_9 1_555 1_555
C8_9 C4_9 1_555 1_555
C9_9 C8_9 1_555 1_555
H4_9 C9_9 1_555 1_555
C10_18 C9_9 1_555 1_555
H5_18 C10_18 1_555 1_555
C11_9 O3_9 1_555 1_555
C12_9 C11_9 1_555 1_555
C13_9 C12_9 1_555 1_555
H6_9 C13_9 1_555 1_555
C14_9 C13_9 1_555 1_555
C15_9 C14_9 1_555 1_555
H7_9 C15_9 1_555 1_555
C16_9 C15_9 1_555 1_555
C17_9 C12_9 1_555 1_555
H8_9 C17_9 1_555 1_555
C18_9 C16_9 1_555 1_555
C19_9 C18_9 1_555 1_555
H9_9 C19_9 1_555 1_555
C20_18 C19_9 1_555 1_555
H10_18 C20_18 1_555 1_555
C21_9 C14_9 1_555 1_555
C22_9 C6_9 1_555 1_555
C23_9 O11_9 1_555 1_555
H11_9 C23_9 1_555 1_555
C24_9 H12_9 1_555 1_555
H13_9 C24_9 1_555 1_555
H14_9 C24_9 1_555 1_555
C25_9 H15_9 1_555 1_555
H16_9 C25_9 1_555 1_555
H17_9 C25_9 1_555 1_555
C26_18 H18_18 1_555 1_555
N1_18 C8_9 1_555 1_555
N2_18 C18_9 1_555 1_555
O12_9 Gd4_6 1_555 1_555
O13_18 Gd4_6 1_555 1_555
N3_9 C23_9 1_555 1_555
C27_18 O10_18 1_555 1_555
H20_18 C27_18 1_555 1_555
H29_9 O13_18 1_555 1_555
Gd3_9 O5_9 1_555 1_555
O23_9 Gd3_9 1_555 1_555
C48_9 O23_9 1_555 1_555
H30_9 C48_9 1_555 1_555
C49_9 H31_9 1_555 1_555
H32_9 C49_9 1_555 1_555
H33_9 C49_9 1_555 1_555
C50_9 H34_9 1_555 1_555
H35_9 C50_9 1_555 1_555
H36_9 C50_9 1_555 1_555
N4_9 C48_9 1_555 1_555
Gd6_5 O6_9 1_555 1_555
O24_9 Gd3_9 1_555 1_555
O25_9 Gd3_9 1_555 1_555
O26_9 Gd3_9 1_555 1_555
O27_9 Gd3_9 1_555 1_555
O28_9 Gd8_8 1_555 1_555
O30_9 Gd4_6 1_555 1_555
O32_9 Gd3_9 1_555 1_555
O35_9 Gd3_9 1_555 1_555
Gd8_8 O12_9 1_555 1_555
O4_9 C11_9 1_555 1_555
C6_9 C7_9 1_555 1_555
C16_9 C17_9 1_555 1_555
C24_9 N3_9 1_555 1_555
C25_9 N3_9 1_555 1_555
C26_18 O12_9 1_555 1_555
C49_9 N4_9 1_555 1_555
C50_9 N4_9 1_555 1_555
Gd6_5 O35_9 1_555 1_555
Gd5_5 O9_19 1_555 1_555
Gd8_5 O1_10 1_555 1_555
O1_10 C1_10 1_555 1_555
O2_10 Gd8_5 1_555 1_555
O3_10 Gd8_5 1_555 1_555
O4_10 Gd8_5 1_555 1_555
O5_10 C21_10 1_555 1_555
O6_10 C21_10 1_555 1_555
O31_4 C22_10 1_555 1_555
O33_4 C22_10 1_555 1_555
O9_19 C27_19 1_555 1_555
O10_19 Gd5_5 1_555 1_555
O11_10 Gd8_5 1_555 1_555
C1_10 O2_10 1_555 1_555
C2_10 C1_10 1_555 1_555
C3_10 C2_10 1_555 1_555
H1_10 C3_10 1_555 1_555
C4_10 C3_10 1_555 1_555
C5_10 C4_10 1_555 1_555
H2_10 C5_10 1_555 1_555
C6_10 C5_10 1_555 1_555
C7_10 C2_10 1_555 1_555
H3_10 C7_10 1_555 1_555
C8_10 C4_10 1_555 1_555
C9_10 C8_10 1_555 1_555
H4_10 C9_10 1_555 1_555
C10_19 C9_10 1_555 1_555
H5_19 C10_19 1_555 1_555
C11_10 O3_10 1_555 1_555
C12_10 C11_10 1_555 1_555
C13_10 C12_10 1_555 1_555
H6_10 C13_10 1_555 1_555
C14_10 C13_10 1_555 1_555
C15_10 C14_10 1_555 1_555
H7_10 C15_10 1_555 1_555
C16_10 C15_10 1_555 1_555
C17_10 C12_10 1_555 1_555
H8_10 C17_10 1_555 1_555
C18_10 C16_10 1_555 1_555
C19_10 C18_10 1_555 1_555
H9_10 C19_10 1_555 1_555
C20_19 C19_10 1_555 1_555
H10_19 C20_19 1_555 1_555
C21_10 C14_10 1_555 1_555
C22_10 C6_10 1_555 1_555
C23_10 O11_10 1_555 1_555
H11_10 C23_10 1_555 1_555
C24_10 H12_10 1_555 1_555
H13_10 C24_10 1_555 1_555
H14_10 C24_10 1_555 1_555
C25_10 H15_10 1_555 1_555
H16_10 C25_10 1_555 1_555
H17_10 C25_10 1_555 1_555
C26_19 H18_19 1_555 1_555
N1_19 C8_10 1_555 1_555
N2_19 C18_10 1_555 1_555
O12_10 Gd5_5 1_555 1_555
O13_19 Gd5_5 1_555 1_555
N3_10 C23_10 1_555 1_555
C27_19 O10_19 1_555 1_555
H20_19 C27_19 1_555 1_555
H29_10 O13_19 1_555 1_555
Gd3_10 O5_10 1_555 1_555
O23_10 Gd3_10 1_555 1_555
C48_10 O23_10 1_555 1_555
H30_10 C48_10 1_555 1_555
C49_10 H31_10 1_555 1_555
H32_10 C49_10 1_555 1_555
H33_10 C49_10 1_555 1_555
C50_10 H34_10 1_555 1_555
H35_10 C50_10 1_555 1_555
H36_10 C50_10 1_555 1_555
N4_10 C48_10 1_555 1_555
Gd7_5 O6_10 1_555 1_555
O24_10 Gd3_10 1_555 1_555
O25_10 Gd3_10 1_555 1_555
O26_10 Gd3_10 1_555 1_555
O27_10 Gd3_10 1_555 1_555
O28_10 Gd8_5 1_555 1_555
O30_10 Gd5_5 1_555 1_555
O32_10 Gd3_10 1_555 1_555
O35_10 Gd3_10 1_555 1_555
Gd8_5 O12_10 1_555 1_555
O4_10 C11_10 1_555 1_555
C6_10 C7_10 1_555 1_555
C16_10 C17_10 1_555 1_555
C24_10 N3_10 1_555 1_555
C25_10 N3_10 1_555 1_555
C26_19 O12_10 1_555 1_555
C49_10 N4_10 1_555 1_555
C50_10 N4_10 1_555 1_555
Gd7_5 O35_10 1_555 1_555
Gd5_6 O9_20 1_555 1_555
O9_20 C27_20 1_555 1_555
O10_20 Gd5_6 1_555 1_555
H5_20 C10_20 1_555 1_555
H10_20 C20_20 1_555 1_555
C26_20 H18_20 1_555 1_555
O13_20 Gd5_6 1_555 1_555
H19_10 O13_20 1_555 1_555
C27_20 O10_20 1_555 1_555
H20_20 C27_20 1_555 1_555
O14_10 C28_10 1_555 1_555
O15_10 C28_10 1_555 1_555
O16_10 C37_10 1_555 1_555
O34_3 C37_10 1_555 1_555
C28_10 C29_10 1_555 1_555
C29_10 C30_10 1_555 1_555
C30_10 H21_10 1_555 1_555
C31_10 C30_10 1_555 1_555
C32_10 C31_10 1_555 1_555
H22_10 C32_10 1_555 1_555
C33_10 C32_10 1_555 1_555
C34_10 C29_10 1_555 1_555
H23_10 C34_10 1_555 1_555
C35_10 N1_20 1_555 1_555
C36_10 C10_20 1_555 1_555
H24_10 C36_10 1_555 1_555
C37_10 C33_10 1_555 1_555
O18_10 C38_10 1_555 1_555
O19_10 C38_10 1_555 1_555
O20_10 C47_10 1_555 1_555
O21_10 C47_10 1_555 1_555
C38_10 C39_10 1_555 1_555
C39_10 C40_10 1_555 1_555
C40_10 H25_10 1_555 1_555
C41_10 C40_10 1_555 1_555
C42_10 C41_10 1_555 1_555
H26_10 C42_10 1_555 1_555
C43_10 C42_10 1_555 1_555
C44_10 C39_10 1_555 1_555
H27_10 C44_10 1_555 1_555
C45_10 N2_20 1_555 1_555
C46_10 C20_20 1_555 1_555
H28_10 C46_10 1_555 1_555
C47_10 C41_10 1_555 1_555
O22_10 Gd5_6 1_555 1_555
Gd6_5 O21_10 1_555 1_555
Gd9_10 O20_10 1_555 1_555
Gd11_8 O14_10 1_555 1_555
Gd10_3 O16_10 1_555 1_555
O29_10 Gd5_6 1_555 1_555
C26_20 O22_10 1_555 1_555
O15_10 Gd11_8 1_555 1_555
C31_10 C35_10 1_555 1_555
C33_10 C34_10 1_555 1_555
C35_10 C36_10 1_555 1_555
O18_10 Gd11_8 1_555 1_555
O19_10 Gd11_8 1_555 1_555
C43_10 C44_10 1_555 1_555
C43_10 C45_10 1_555 1_555
C45_10 C46_10 1_555 1_555
O22_10 Gd11_8 1_555 1_555
Gd4_7 O9_21 1_555 1_555
O9_21 C27_21 1_555 1_555
O10_21 Gd4_7 1_555 1_555
H5_21 C10_21 1_555 1_555
H10_21 C20_21 1_555 1_555
C26_21 H18_21 1_555 1_555
O13_21 Gd4_7 1_555 1_555
H19_11 O13_21 1_555 1_555
C27_21 O10_21 1_555 1_555
H20_21 C27_21 1_555 1_555
O14_11 C28_11 1_555 1_555
O15_11 C28_11 1_555 1_555
O16_11 C37_11 1_555 1_555
O34_4 C37_11 1_555 1_555
C28_11 C29_11 1_555 1_555
C29_11 C30_11 1_555 1_555
C30_11 H21_11 1_555 1_555
C31_11 C30_11 1_555 1_555
C32_11 C31_11 1_555 1_555
H22_11 C32_11 1_555 1_555
C33_11 C32_11 1_555 1_555
C34_11 C29_11 1_555 1_555
H23_11 C34_11 1_555 1_555
C35_11 N1_21 1_555 1_555
C36_11 C10_21 1_555 1_555
H24_11 C36_11 1_555 1_555
C37_11 C33_11 1_555 1_555
O18_11 C38_11 1_555 1_555
O19_11 C38_11 1_555 1_555
O20_11 C47_11 1_555 1_555
O21_11 C47_11 1_555 1_555
C38_11 C39_11 1_555 1_555
C39_11 C40_11 1_555 1_555
C40_11 H25_11 1_555 1_555
C41_11 C40_11 1_555 1_555
C42_11 C41_11 1_555 1_555
H26_11 C42_11 1_555 1_555
C43_11 C42_11 1_555 1_555
C44_11 C39_11 1_555 1_555
H27_11 C44_11 1_555 1_555
C45_11 N2_21 1_555 1_555
C46_11 C20_21 1_555 1_555
H28_11 C46_11 1_555 1_555
C47_11 C41_11 1_555 1_555
O22_11 Gd4_7 1_555 1_555
Gd7_6 O21_11 1_555 1_555
Gd9_11 O20_11 1_555 1_555
Gd11_6 O14_11 1_555 1_555
Gd10_4 O16_11 1_555 1_555
O29_11 Gd4_7 1_555 1_555
C26_21 O22_11 1_555 1_555
O15_11 Gd11_6 1_555 1_555
C31_11 C35_11 1_555 1_555
C33_11 C34_11 1_555 1_555
C35_11 C36_11 1_555 1_555
O18_11 Gd11_6 1_555 1_555
O19_11 Gd11_6 1_555 1_555
C43_11 C44_11 1_555 1_555
C43_11 C45_11 1_555 1_555
C45_11 C46_11 1_555 1_555
O22_11 Gd11_6 1_555 1_555
Gd4_8 O9_22 1_555 1_555
Gd8_7 O1_11 1_555 1_555
O1_11 C1_11 1_555 1_555
O2_11 Gd8_7 1_555 1_555
O3_11 Gd8_7 1_555 1_555
O4_11 Gd8_7 1_555 1_555
O5_11 C21_11 1_555 1_555
O6_11 C21_11 1_555 1_555
O31_3 C22_11 1_555 1_555
O33_3 C22_11 1_555 1_555
O9_22 C27_22 1_555 1_555
O10_22 Gd4_8 1_555 1_555
O11_11 Gd8_7 1_555 1_555
C1_11 O2_11 1_555 1_555
C2_11 C1_11 1_555 1_555
C3_11 C2_11 1_555 1_555
H1_11 C3_11 1_555 1_555
C4_11 C3_11 1_555 1_555
C5_11 C4_11 1_555 1_555
H2_11 C5_11 1_555 1_555
C6_11 C5_11 1_555 1_555
C7_11 C2_11 1_555 1_555
H3_11 C7_11 1_555 1_555
C8_11 C4_11 1_555 1_555
C9_11 C8_11 1_555 1_555
H4_11 C9_11 1_555 1_555
C10_22 C9_11 1_555 1_555
H5_22 C10_22 1_555 1_555
C11_11 O3_11 1_555 1_555
C12_11 C11_11 1_555 1_555
C13_11 C12_11 1_555 1_555
H6_11 C13_11 1_555 1_555
C14_11 C13_11 1_555 1_555
C15_11 C14_11 1_555 1_555
H7_11 C15_11 1_555 1_555
C16_11 C15_11 1_555 1_555
C17_11 C12_11 1_555 1_555
H8_11 C17_11 1_555 1_555
C18_11 C16_11 1_555 1_555
C19_11 C18_11 1_555 1_555
H9_11 C19_11 1_555 1_555
C20_22 C19_11 1_555 1_555
H10_22 C20_22 1_555 1_555
C21_11 C14_11 1_555 1_555
C22_11 C6_11 1_555 1_555
C23_11 O11_11 1_555 1_555
H11_11 C23_11 1_555 1_555
C24_11 H12_11 1_555 1_555
H13_11 C24_11 1_555 1_555
H14_11 C24_11 1_555 1_555
C25_11 H15_11 1_555 1_555
H16_11 C25_11 1_555 1_555
H17_11 C25_11 1_555 1_555
C26_22 H18_22 1_555 1_555
N1_22 C8_11 1_555 1_555
N2_22 C18_11 1_555 1_555
O12_11 Gd4_8 1_555 1_555
O13_22 Gd4_8 1_555 1_555
N3_11 C23_11 1_555 1_555
C27_22 O10_22 1_555 1_555
H20_22 C27_22 1_555 1_555
H29_11 O13_22 1_555 1_555
Gd3_11 O5_11 1_555 1_555
O23_11 Gd3_11 1_555 1_555
C48_11 O23_11 1_555 1_555
H30_11 C48_11 1_555 1_555
C49_11 H31_11 1_555 1_555
H32_11 C49_11 1_555 1_555
H33_11 C49_11 1_555 1_555
C50_11 H34_11 1_555 1_555
H35_11 C50_11 1_555 1_555
H36_11 C50_11 1_555 1_555
N4_11 C48_11 1_555 1_555
Gd6_6 O6_11 1_555 1_555
O24_11 Gd3_11 1_555 1_555
O25_11 Gd3_11 1_555 1_555
O26_11 Gd3_11 1_555 1_555
O27_11 Gd3_11 1_555 1_555
O28_11 Gd8_7 1_555 1_555
O30_11 Gd4_8 1_555 1_555
O32_11 Gd3_11 1_555 1_555
O35_11 Gd3_11 1_555 1_555
Gd8_7 O12_11 1_555 1_555
O4_11 C11_11 1_555 1_555
C6_11 C7_11 1_555 1_555
C16_11 C17_11 1_555 1_555
C24_11 N3_11 1_555 1_555
C25_11 N3_11 1_555 1_555
C26_22 O12_11 1_555 1_555
C49_11 N4_11 1_555 1_555
C50_11 N4_11 1_555 1_555
Gd6_6 O35_11 1_555 1_555
Gd5_7 O9_23 1_555 1_555
Gd8_6 O1_12 1_555 1_555
O1_12 C1_12 1_555 1_555
O2_12 Gd8_6 1_555 1_555
O3_12 Gd8_6 1_555 1_555
O4_12 Gd8_6 1_555 1_555
O5_12 C21_12 1_555 1_555
O6_12 C21_12 1_555 1_555
O31 C22_12 1_555 1_555
O33 C22_12 1_555 1_555
O9_23 C27_23 1_555 1_555
O10_23 Gd5_7 1_555 1_555
O11_12 Gd8_6 1_555 1_555
C1_12 O2_12 1_555 1_555
C2_12 C1_12 1_555 1_555
C3_12 C2_12 1_555 1_555
H1_12 C3_12 1_555 1_555
C4_12 C3_12 1_555 1_555
C5_12 C4_12 1_555 1_555
H2_12 C5_12 1_555 1_555
C6_12 C5_12 1_555 1_555
C7_12 C2_12 1_555 1_555
H3_12 C7_12 1_555 1_555
C8_12 C4_12 1_555 1_555
C9_12 C8_12 1_555 1_555
H4_12 C9_12 1_555 1_555
C10_23 C9_12 1_555 1_555
H5_23 C10_23 1_555 1_555
C11_12 O3_12 1_555 1_555
C12_12 C11_12 1_555 1_555
C13_12 C12_12 1_555 1_555
H6_12 C13_12 1_555 1_555
C14_12 C13_12 1_555 1_555
C15_12 C14_12 1_555 1_555
H7_12 C15_12 1_555 1_555
C16_12 C15_12 1_555 1_555
C17_12 C12_12 1_555 1_555
H8_12 C17_12 1_555 1_555
C18_12 C16_12 1_555 1_555
C19_12 C18_12 1_555 1_555
H9_12 C19_12 1_555 1_555
C20_23 C19_12 1_555 1_555
H10_23 C20_23 1_555 1_555
C21_12 C14_12 1_555 1_555
C22_12 C6_12 1_555 1_555
C23_12 O11_12 1_555 1_555
H11_12 C23_12 1_555 1_555
C24_12 H12_12 1_555 1_555
H13_12 C24_12 1_555 1_555
H14_12 C24_12 1_555 1_555
C25_12 H15_12 1_555 1_555
H16_12 C25_12 1_555 1_555
H17_12 C25_12 1_555 1_555
C26_23 H18_23 1_555 1_555
N1_23 C8_12 1_555 1_555
N2_23 C18_12 1_555 1_555
O12_12 Gd5_7 1_555 1_555
O13_23 Gd5_7 1_555 1_555
N3_12 C23_12 1_555 1_555
C27_23 O10_23 1_555 1_555
H20_23 C27_23 1_555 1_555
H29_12 O13_23 1_555 1_555
Gd3_12 O5_12 1_555 1_555
O23_12 Gd3_12 1_555 1_555
C48_12 O23_12 1_555 1_555
H30_12 C48_12 1_555 1_555
C49_12 H31_12 1_555 1_555
H32_12 C49_12 1_555 1_555
H33_12 C49_12 1_555 1_555
C50_12 H34_12 1_555 1_555
H35_12 C50_12 1_555 1_555
H36_12 C50_12 1_555 1_555
N4_12 C48_12 1_555 1_555
Gd7_6 O6_12 1_555 1_555
O24_12 Gd3_12 1_555 1_555
O25_12 Gd3_12 1_555 1_555
O26_12 Gd3_12 1_555 1_555
O27_12 Gd3_12 1_555 1_555
O28_12 Gd8_6 1_555 1_555
O30_12 Gd5_7 1_555 1_555
O32_12 Gd3_12 1_555 1_555
O35_12 Gd3_12 1_555 1_555
Gd8_6 O12_12 1_555 1_555
O4_12 C11_12 1_555 1_555
C6_12 C7_12 1_555 1_555
C16_12 C17_12 1_555 1_555
C24_12 N3_12 1_555 1_555
C25_12 N3_12 1_555 1_555
C26_23 O12_12 1_555 1_555
C49_12 N4_12 1_555 1_555
C50_12 N4_12 1_555 1_555
Gd7_6 O35_12 1_555 1_555
Gd5_8 O9_24 1_555 1_555
O9_24 C27_24 1_555 1_555
O10_24 Gd5_8 1_555 1_555
H5_24 C10_24 1_555 1_555
H10_24 C20_24 1_555 1_555
C26_24 H18_24 1_555 1_555
O13_24 Gd5_8 1_555 1_555
H19_12 O13_24 1_555 1_555
C27_24 O10_24 1_555 1_555
H20_24 C27_24 1_555 1_555
O14_12 C28_12 1_555 1_555
O15_12 C28_12 1_555 1_555
O16_12 C37_12 1_555 1_555
O34_2 C37_12 1_555 1_555
C28_12 C29_12 1_555 1_555
C29_12 C30_12 1_555 1_555
C30_12 H21_12 1_555 1_555
C31_12 C30_12 1_555 1_555
C32_12 C31_12 1_555 1_555
H22_12 C32_12 1_555 1_555
C33_12 C32_12 1_555 1_555
C34_12 C29_12 1_555 1_555
H23_12 C34_12 1_555 1_555
C35_12 N1_24 1_555 1_555
C36_12 C10_24 1_555 1_555
H24_12 C36_12 1_555 1_555
C37_12 C33_12 1_555 1_555
O18_12 C38_12 1_555 1_555
O19_12 C38_12 1_555 1_555
O20_12 C47_12 1_555 1_555
O21_12 C47_12 1_555 1_555
C38_12 C39_12 1_555 1_555
C39_12 C40_12 1_555 1_555
C40_12 H25_12 1_555 1_555
C41_12 C40_12 1_555 1_555
C42_12 C41_12 1_555 1_555
H26_12 C42_12 1_555 1_555
C43_12 C42_12 1_555 1_555
C44_12 C39_12 1_555 1_555
H27_12 C44_12 1_555 1_555
C45_12 N2_24 1_555 1_555
C46_12 C20_24 1_555 1_555
H28_12 C46_12 1_555 1_555
C47_12 C41_12 1_555 1_555
O22_12 Gd5_8 1_555 1_555
Gd6_6 O21_12 1_555 1_555
Gd9_12 O20_12 1_555 1_555
Gd11_7 O14_12 1_555 1_555
Gd10_2 O16_12 1_555 1_555
O29_12 Gd5_8 1_555 1_555
C26_24 O22_12 1_555 1_555
O15_12 Gd11_7 1_555 1_555
C31_12 C35_12 1_555 1_555
C33_12 C34_12 1_555 1_555
C35_12 C36_12 1_555 1_555
O18_12 Gd11_7 1_555 1_555
O19_12 Gd11_7 1_555 1_555
C43_12 C44_12 1_555 1_555
C43_12 C45_12 1_555 1_555
C45_12 C46_12 1_555 1_555
O22_12 Gd11_7 1_555 1_555
Gd6_4 O9_25 1_555 1_555
Gd9_8 O1_13 1_555 1_555
O1_13 C1_13 1_555 1_555
O2_13 Gd9_8 1_555 1_555
O3_13 Gd9_8 1_555 1_555
O4_13 Gd9_8 1_555 1_555
O5_13 C21_13 1_555 1_555
O29_10 C21_13 1_555 1_555
O7_9 C22_13 1_555 1_555
O8_9 C22_13 1_555 1_555
O9_25 C27_25 1_555 1_555
O10_25 Gd6_4 1_555 1_555
O11_13 Gd9_8 1_555 1_555
C1_13 O2_13 1_555 1_555
C2_13 C1_13 1_555 1_555
C3_13 C2_13 1_555 1_555
H1_13 C3_13 1_555 1_555
C4_13 C3_13 1_555 1_555
C5_13 C4_13 1_555 1_555
H2_13 C5_13 1_555 1_555
C6_13 C5_13 1_555 1_555
C7_13 C2_13 1_555 1_555
H3_13 C7_13 1_555 1_555
C8_13 C4_13 1_555 1_555
C9_13 C8_13 1_555 1_555
H4_13 C9_13 1_555 1_555
C10_25 C9_13 1_555 1_555
H5_25 C10_25 1_555 1_555
C11_13 O3_13 1_555 1_555
C12_13 C11_13 1_555 1_555
C13_13 C12_13 1_555 1_555
H6_13 C13_13 1_555 1_555
C14_13 C13_13 1_555 1_555
C15_13 C14_13 1_555 1_555
H7_13 C15_13 1_555 1_555
C16_13 C15_13 1_555 1_555
C17_13 C12_13 1_555 1_555
H8_13 C17_13 1_555 1_555
C18_13 C16_13 1_555 1_555
C19_13 C18_13 1_555 1_555
H9_13 C19_13 1_555 1_555
C20_25 C19_13 1_555 1_555
H10_25 C20_25 1_555 1_555
C21_13 C14_13 1_555 1_555
C22_13 C6_13 1_555 1_555
C23_13 O11_13 1_555 1_555
H11_13 C23_13 1_555 1_555
C24_13 H12_13 1_555 1_555
H13_13 C24_13 1_555 1_555
H14_13 C24_13 1_555 1_555
C25_13 H15_13 1_555 1_555
H16_13 C25_13 1_555 1_555
H17_13 C25_13 1_555 1_555
C26_25 H18_25 1_555 1_555
N1_25 C8_13 1_555 1_555
N2_25 C18_13 1_555 1_555
O12_13 Gd6_4 1_555 1_555
O13_25 Gd6_4 1_555 1_555
H19_13 O13_25 1_555 1_555
N3_13 C23_13 1_555 1_555
C27_25 O10_25 1_555 1_555
H20_25 C27_25 1_555 1_555
O24_7 C28_13 1_555 1_555
O25_7 C28_13 1_555 1_555
O32_11 C37_13 1_555 1_555
O17_9 C37_13 1_555 1_555
C28_13 C29_13 1_555 1_555
C29_13 C30_13 1_555 1_555
C30_13 H21_13 1_555 1_555
C31_13 C30_13 1_555 1_555
C32_13 C31_13 1_555 1_555
H22_13 C32_13 1_555 1_555
C33_13 C32_13 1_555 1_555
C34_13 C29_13 1_555 1_555
H23_13 C34_13 1_555 1_555
C35_13 N1_25 1_555 1_555
C36_13 C10_25 1_555 1_555
H24_13 C36_13 1_555 1_555
C37_13 C33_13 1_555 1_555
O26_7 C38_13 1_555 1_555
O27_7 C38_13 1_555 1_555
O28_11 C47_13 1_555 1_555
O30_11 C47_13 1_555 1_555
C38_13 C39_13 1_555 1_555
C39_13 C40_13 1_555 1_555
C40_13 H25_13 1_555 1_555
C41_13 C40_13 1_555 1_555
C42_13 C41_13 1_555 1_555
H26_13 C42_13 1_555 1_555
C43_13 C42_13 1_555 1_555
C44_13 C39_13 1_555 1_555
H27_13 C44_13 1_555 1_555
C45_13 N2_25 1_555 1_555
C46_13 C20_25 1_555 1_555
H28_13 C46_13 1_555 1_555
C47_13 C41_13 1_555 1_555
H29_13 O13_25 1_555 1_555
Gd11_8 O5_13 1_555 1_555
O23_13 Gd11_8 1_555 1_555
C48_13 O23_13 1_555 1_555
H30_13 C48_13 1_555 1_555
C49_13 H31_13 1_555 1_555
H32_13 C49_13 1_555 1_555
H33_13 C49_13 1_555 1_555
C50_13 H34_13 1_555 1_555
H35_13 C50_13 1_555 1_555
H36_13 C50_13 1_555 1_555
N4_13 C48_13 1_555 1_555
Gd6_6 O17_9 1_555 1_555
Gd6_5 O8_9 1_555 1_555
Gd9_10 O7_9 1_555 1_555
O31_5 Gd9_8 1_555 1_555
O33_5 Gd6_4 1_555 1_555
O34_5 Gd6_4 1_555 1_555
Gd9_8 O12_13 1_555 1_555
O4_13 C11_13 1_555 1_555
C6_13 C7_13 1_555 1_555
C16_13 C17_13 1_555 1_555
C24_13 N3_13 1_555 1_555
C25_13 N3_13 1_555 1_555
C26_25 O12_13 1_555 1_555
C26_25 O35_7 1_555 1_555
C31_13 C35_13 1_555 1_555
C33_13 C34_13 1_555 1_555
C35_13 C36_13 1_555 1_555
C43_13 C44_13 1_555 1_555
C43_13 C45_13 1_555 1_555
C45_13 C46_13 1_555 1_555
C49_13 N4_13 1_555 1_555
C50_13 N4_13 1_555 1_555
Gd6_3 O9_26 1_555 1_555
Gd9_6 O1_14 1_555 1_555
O1_14 C1_14 1_555 1_555
O2_14 Gd9_6 1_555 1_555
O3_14 Gd9_6 1_555 1_555
O4_14 Gd9_6 1_555 1_555
O5_14 C21_14 1_555 1_555
O29_11 C21_14 1_555 1_555
O7_10 C22_14 1_555 1_555
O8_10 C22_14 1_555 1_555
O9_26 C27_26 1_555 1_555
O10_26 Gd6_3 1_555 1_555
O11_14 Gd9_6 1_555 1_555
C1_14 O2_14 1_555 1_555
C2_14 C1_14 1_555 1_555
C3_14 C2_14 1_555 1_555
H1_14 C3_14 1_555 1_555
C4_14 C3_14 1_555 1_555
C5_14 C4_14 1_555 1_555
H2_14 C5_14 1_555 1_555
C6_14 C5_14 1_555 1_555
C7_14 C2_14 1_555 1_555
H3_14 C7_14 1_555 1_555
C8_14 C4_14 1_555 1_555
C9_14 C8_14 1_555 1_555
H4_14 C9_14 1_555 1_555
C10_26 C9_14 1_555 1_555
H5_26 C10_26 1_555 1_555
C11_14 O3_14 1_555 1_555
C12_14 C11_14 1_555 1_555
C13_14 C12_14 1_555 1_555
H6_14 C13_14 1_555 1_555
C14_14 C13_14 1_555 1_555
C15_14 C14_14 1_555 1_555
H7_14 C15_14 1_555 1_555
C16_14 C15_14 1_555 1_555
C17_14 C12_14 1_555 1_555
H8_14 C17_14 1_555 1_555
C18_14 C16_14 1_555 1_555
C19_14 C18_14 1_555 1_555
H9_14 C19_14 1_555 1_555
C20_26 C19_14 1_555 1_555
H10_26 C20_26 1_555 1_555
C21_14 C14_14 1_555 1_555
C22_14 C6_14 1_555 1_555
C23_14 O11_14 1_555 1_555
H11_14 C23_14 1_555 1_555
C24_14 H12_14 1_555 1_555
H13_14 C24_14 1_555 1_555
H14_14 C24_14 1_555 1_555
C25_14 H15_14 1_555 1_555
H16_14 C25_14 1_555 1_555
H17_14 C25_14 1_555 1_555
C26_26 H18_26 1_555 1_555
N1_26 C8_14 1_555 1_555
N2_26 C18_14 1_555 1_555
O12_14 Gd6_3 1_555 1_555
O13_26 Gd6_3 1_555 1_555
H19_14 O13_26 1_555 1_555
N3_14 C23_14 1_555 1_555
C27_26 O10_26 1_555 1_555
H20_26 C27_26 1_555 1_555
O24_5 C28_14 1_555 1_555
O25_5 C28_14 1_555 1_555
O32_10 C37_14 1_555 1_555
O17_10 C37_14 1_555 1_555
C28_14 C29_14 1_555 1_555
C29_14 C30_14 1_555 1_555
C30_14 H21_14 1_555 1_555
C31_14 C30_14 1_555 1_555
C32_14 C31_14 1_555 1_555
H22_14 C32_14 1_555 1_555
C33_14 C32_14 1_555 1_555
C34_14 C29_14 1_555 1_555
H23_14 C34_14 1_555 1_555
C35_14 N1_26 1_555 1_555
C36_14 C10_26 1_555 1_555
H24_14 C36_14 1_555 1_555
C37_14 C33_14 1_555 1_555
O26_5 C38_14 1_555 1_555
O27_5 C38_14 1_555 1_555
O28_10 C47_14 1_555 1_555
O30_10 C47_14 1_555 1_555
C38_14 C39_14 1_555 1_555
C39_14 C40_14 1_555 1_555
C40_14 H25_14 1_555 1_555
C41_14 C40_14 1_555 1_555
C42_14 C41_14 1_555 1_555
H26_14 C42_14 1_555 1_555
C43_14 C42_14 1_555 1_555
C44_14 C39_14 1_555 1_555
H27_14 C44_14 1_555 1_555
C45_14 N2_26 1_555 1_555
C46_14 C20_26 1_555 1_555
H28_14 C46_14 1_555 1_555
C47_14 C41_14 1_555 1_555
H29_14 O13_26 1_555 1_555
Gd11_6 O5_14 1_555 1_555
O23_14 Gd11_6 1_555 1_555
C48_14 O23_14 1_555 1_555
H30_14 C48_14 1_555 1_555
C49_14 H31_14 1_555 1_555
H32_14 C49_14 1_555 1_555
H33_14 C49_14 1_555 1_555
C50_14 H34_14 1_555 1_555
H35_14 C50_14 1_555 1_555
H36_14 C50_14 1_555 1_555
N4_14 C48_14 1_555 1_555
Gd7_5 O17_10 1_555 1_555
Gd7_6 O8_10 1_555 1_555
Gd9_11 O7_10 1_555 1_555
O31_6 Gd9_6 1_555 1_555
O33_6 Gd6_3 1_555 1_555
O34_6 Gd6_3 1_555 1_555
Gd9_6 O12_14 1_555 1_555
O4_14 C11_14 1_555 1_555
C6_14 C7_14 1_555 1_555
C16_14 C17_14 1_555 1_555
C24_14 N3_14 1_555 1_555
C25_14 N3_14 1_555 1_555
C26_26 O12_14 1_555 1_555
C26_26 O35_5 1_555 1_555
C31_14 C35_14 1_555 1_555
C33_14 C34_14 1_555 1_555
C35_14 C36_14 1_555 1_555
C43_14 C44_14 1_555 1_555
C43_14 C45_14 1_555 1_555
C45_14 C46_14 1_555 1_555
C49_14 N4_14 1_555 1_555
C50_14 N4_14 1_555 1_555
Gd7_3 O9_27 1_555 1_555
Gd9_5 O1_15 1_555 1_555
O1_15 C1_15 1_555 1_555
O2_15 Gd9_5 1_555 1_555
O3_15 Gd9_5 1_555 1_555
O4_15 Gd9_5 1_555 1_555
O5_15 C21_15 1_555 1_555
O29_9 C21_15 1_555 1_555
O7_11 C22_15 1_555 1_555
O8_11 C22_15 1_555 1_555
O9_27 C27_27 1_555 1_555
O10_27 Gd7_3 1_555 1_555
O11_15 Gd9_5 1_555 1_555
C1_15 O2_15 1_555 1_555
C2_15 C1_15 1_555 1_555
C3_15 C2_15 1_555 1_555
H1_15 C3_15 1_555 1_555
C4_15 C3_15 1_555 1_555
C5_15 C4_15 1_555 1_555
H2_15 C5_15 1_555 1_555
C6_15 C5_15 1_555 1_555
C7_15 C2_15 1_555 1_555
H3_15 C7_15 1_555 1_555
C8_15 C4_15 1_555 1_555
C9_15 C8_15 1_555 1_555
H4_15 C9_15 1_555 1_555
C10_27 C9_15 1_555 1_555
H5_27 C10_27 1_555 1_555
C11_15 O3_15 1_555 1_555
C12_15 C11_15 1_555 1_555
C13_15 C12_15 1_555 1_555
H6_15 C13_15 1_555 1_555
C14_15 C13_15 1_555 1_555
C15_15 C14_15 1_555 1_555
H7_15 C15_15 1_555 1_555
C16_15 C15_15 1_555 1_555
C17_15 C12_15 1_555 1_555
H8_15 C17_15 1_555 1_555
C18_15 C16_15 1_555 1_555
C19_15 C18_15 1_555 1_555
H9_15 C19_15 1_555 1_555
C20_27 C19_15 1_555 1_555
H10_27 C20_27 1_555 1_555
C21_15 C14_15 1_555 1_555
C22_15 C6_15 1_555 1_555
C23_15 O11_15 1_555 1_555
H11_15 C23_15 1_555 1_555
C24_15 H12_15 1_555 1_555
H13_15 C24_15 1_555 1_555
H14_15 C24_15 1_555 1_555
C25_15 H15_15 1_555 1_555
H16_15 C25_15 1_555 1_555
H17_15 C25_15 1_555 1_555
C26_27 H18_27 1_555 1_555
N1_27 C8_15 1_555 1_555
N2_27 C18_15 1_555 1_555
O12_15 Gd7_3 1_555 1_555
O13_27 Gd7_3 1_555 1_555
H19_15 O13_27 1_555 1_555
N3_15 C23_15 1_555 1_555
C27_27 O10_27 1_555 1_555
H20_27 C27_27 1_555 1_555
O24_6 C28_15 1_555 1_555
O25_6 C28_15 1_555 1_555
O32_12 C37_15 1_555 1_555
O17_11 C37_15 1_555 1_555
C28_15 C29_15 1_555 1_555
C29_15 C30_15 1_555 1_555
C30_15 H21_15 1_555 1_555
C31_15 C30_15 1_555 1_555
C32_15 C31_15 1_555 1_555
H22_15 C32_15 1_555 1_555
C33_15 C32_15 1_555 1_555
C34_15 C29_15 1_555 1_555
H23_15 C34_15 1_555 1_555
C35_15 N1_27 1_555 1_555
C36_15 C10_27 1_555 1_555
H24_15 C36_15 1_555 1_555
C37_15 C33_15 1_555 1_555
O26_6 C38_15 1_555 1_555
O27_6 C38_15 1_555 1_555
O28_12 C47_15 1_555 1_555
O30_12 C47_15 1_555 1_555
C38_15 C39_15 1_555 1_555
C39_15 C40_15 1_555 1_555
C40_15 H25_15 1_555 1_555
C41_15 C40_15 1_555 1_555
C42_15 C41_15 1_555 1_555
H26_15 C42_15 1_555 1_555
C43_15 C42_15 1_555 1_555
C44_15 C39_15 1_555 1_555
H27_15 C44_15 1_555 1_555
C45_15 N2_27 1_555 1_555
C46_15 C20_27 1_555 1_555
H28_15 C46_15 1_555 1_555
C47_15 C41_15 1_555 1_555
H29_15 O13_27 1_555 1_555
Gd11_5 O5_15 1_555 1_555
O23_15 Gd11_5 1_555 1_555
C48_15 O23_15 1_555 1_555
H30_15 C48_15 1_555 1_555
C49_15 H31_15 1_555 1_555
H32_15 C49_15 1_555 1_555
H33_15 C49_15 1_555 1_555
C50_15 H34_15 1_555 1_555
H35_15 C50_15 1_555 1_555
H36_15 C50_15 1_555 1_555
N4_15 C48_15 1_555 1_555
Gd7_6 O17_11 1_555 1_555
Gd7_5 O8_11 1_555 1_555
Gd9_9 O7_11 1_555 1_555
O31_7 Gd9_5 1_555 1_555
O33_7 Gd7_3 1_555 1_555
O34_7 Gd7_3 1_555 1_555
Gd9_5 O12_15 1_555 1_555
O4_15 C11_15 1_555 1_555
C6_15 C7_15 1_555 1_555
C16_15 C17_15 1_555 1_555
C24_15 N3_15 1_555 1_555
C25_15 N3_15 1_555 1_555
C26_27 O12_15 1_555 1_555
C26_27 O35_6 1_555 1_555
C31_15 C35_15 1_555 1_555
C33_15 C34_15 1_555 1_555
C35_15 C36_15 1_555 1_555
C43_15 C44_15 1_555 1_555
C43_15 C45_15 1_555 1_555
C45_15 C46_15 1_555 1_555
C49_15 N4_15 1_555 1_555
C50_15 N4_15 1_555 1_555
Gd7_4 O9_28 1_555 1_555
Gd9_7 O1_16 1_555 1_555
O1_16 C1_16 1_555 1_555
O2_16 Gd9_7 1_555 1_555
O3_16 Gd9_7 1_555 1_555
O4_16 Gd9_7 1_555 1_555
O5_16 C21_16 1_555 1_555
O29_12 C21_16 1_555 1_555
O7_12 C22_16 1_555 1_555
O8_12 C22_16 1_555 1_555
O9_28 C27_28 1_555 1_555
O10_28 Gd7_4 1_555 1_555
O11_16 Gd9_7 1_555 1_555
C1_16 O2_16 1_555 1_555
C2_16 C1_16 1_555 1_555
C3_16 C2_16 1_555 1_555
H1_16 C3_16 1_555 1_555
C4_16 C3_16 1_555 1_555
C5_16 C4_16 1_555 1_555
H2_16 C5_16 1_555 1_555
C6_16 C5_16 1_555 1_555
C7_16 C2_16 1_555 1_555
H3_16 C7_16 1_555 1_555
C8_16 C4_16 1_555 1_555
C9_16 C8_16 1_555 1_555
H4_16 C9_16 1_555 1_555
C10_28 C9_16 1_555 1_555
H5_28 C10_28 1_555 1_555
C11_16 O3_16 1_555 1_555
C12_16 C11_16 1_555 1_555
C13_16 C12_16 1_555 1_555
H6_16 C13_16 1_555 1_555
C14_16 C13_16 1_555 1_555
C15_16 C14_16 1_555 1_555
H7_16 C15_16 1_555 1_555
C16_16 C15_16 1_555 1_555
C17_16 C12_16 1_555 1_555
H8_16 C17_16 1_555 1_555
C18_16 C16_16 1_555 1_555
C19_16 C18_16 1_555 1_555
H9_16 C19_16 1_555 1_555
C20_28 C19_16 1_555 1_555
H10_28 C20_28 1_555 1_555
C21_16 C14_16 1_555 1_555
C22_16 C6_16 1_555 1_555
C23_16 O11_16 1_555 1_555
H11_16 C23_16 1_555 1_555
C24_16 H12_16 1_555 1_555
H13_16 C24_16 1_555 1_555
H14_16 C24_16 1_555 1_555
C25_16 H15_16 1_555 1_555
H16_16 C25_16 1_555 1_555
H17_16 C25_16 1_555 1_555
C26_28 H18_28 1_555 1_555
N1_28 C8_16 1_555 1_555
N2_28 C18_16 1_555 1_555
O12_16 Gd7_4 1_555 1_555
O13_28 Gd7_4 1_555 1_555
H19_16 O13_28 1_555 1_555
N3_16 C23_16 1_555 1_555
C27_28 O10_28 1_555 1_555
H20_28 C27_28 1_555 1_555
O24_8 C28_16 1_555 1_555
O25_8 C28_16 1_555 1_555
O32_9 C37_16 1_555 1_555
O17_12 C37_16 1_555 1_555
C28_16 C29_16 1_555 1_555
C29_16 C30_16 1_555 1_555
C30_16 H21_16 1_555 1_555
C31_16 C30_16 1_555 1_555
C32_16 C31_16 1_555 1_555
H22_16 C32_16 1_555 1_555
C33_16 C32_16 1_555 1_555
C34_16 C29_16 1_555 1_555
H23_16 C34_16 1_555 1_555
C35_16 N1_28 1_555 1_555
C36_16 C10_28 1_555 1_555
H24_16 C36_16 1_555 1_555
C37_16 C33_16 1_555 1_555
O26_8 C38_16 1_555 1_555
O27_8 C38_16 1_555 1_555
O28_9 C47_16 1_555 1_555
O30_9 C47_16 1_555 1_555
C38_16 C39_16 1_555 1_555
C39_16 C40_16 1_555 1_555
C40_16 H25_16 1_555 1_555
C41_16 C40_16 1_555 1_555
C42_16 C41_16 1_555 1_555
H26_16 C42_16 1_555 1_555
C43_16 C42_16 1_555 1_555
C44_16 C39_16 1_555 1_555
H27_16 C44_16 1_555 1_555
C45_16 N2_28 1_555 1_555
C46_16 C20_28 1_555 1_555
H28_16 C46_16 1_555 1_555
C47_16 C41_16 1_555 1_555
H29_16 O13_28 1_555 1_555
Gd11_7 O5_16 1_555 1_555
O23_16 Gd11_7 1_555 1_555
C48_16 O23_16 1_555 1_555
H30_16 C48_16 1_555 1_555
C49_16 H31_16 1_555 1_555
H32_16 C49_16 1_555 1_555
H33_16 C49_16 1_555 1_555
C50_16 H34_16 1_555 1_555
H35_16 C50_16 1_555 1_555
H36_16 C50_16 1_555 1_555
N4_16 C48_16 1_555 1_555
Gd6_5 O17_12 1_555 1_555
Gd6_6 O8_12 1_555 1_555
Gd9_12 O7_12 1_555 1_555
O31_8 Gd9_7 1_555 1_555
O33_8 Gd7_4 1_555 1_555
O34_8 Gd7_4 1_555 1_555
Gd9_7 O12_16 1_555 1_555
O4_16 C11_16 1_555 1_555
C6_16 C7_16 1_555 1_555
C16_16 C17_16 1_555 1_555
C24_16 N3_16 1_555 1_555
C25_16 N3_16 1_555 1_555
C26_28 O12_16 1_555 1_555
C26_28 O35_8 1_555 1_555
C31_16 C35_16 1_555 1_555
C33_16 C34_16 1_555 1_555
C35_16 C36_16 1_555 1_555
C43_16 C44_16 1_555 1_555
C43_16 C45_16 1_555 1_555
C45_16 C46_16 1_555 1_555
C49_16 N4_16 1_555 1_555
C50_16 N4_16 1_555 1_555
Gd6_6 O9_29 1_555 1_555
Gd9_12 O1_17 1_555 1_555
O1_17 C1_17 1_555 1_555
O2_17 Gd9_12 1_555 1_555
O3_17 Gd9_12 1_555 1_555
O4_17 Gd9_12 1_555 1_555
O5_17 C21_17 1_555 1_555
O29_2 C21_17 1_555 1_555
O7_13 C22_17 1_555 1_555
O8_13 C22_17 1_555 1_555
O9_29 C27_29 1_555 1_555
O10_29 Gd6_6 1_555 1_555
O11_17 Gd9_12 1_555 1_555
C1_17 O2_17 1_555 1_555
C2_17 C1_17 1_555 1_555
C3_17 C2_17 1_555 1_555
H1_17 C3_17 1_555 1_555
C4_17 C3_17 1_555 1_555
C5_17 C4_17 1_555 1_555
H2_17 C5_17 1_555 1_555
C6_17 C5_17 1_555 1_555
C7_17 C2_17 1_555 1_555
H3_17 C7_17 1_555 1_555
C8_17 C4_17 1_555 1_555
C9_17 C8_17 1_555 1_555
H4_17 C9_17 1_555 1_555
C10_29 C9_17 1_555 1_555
H5_29 C10_29 1_555 1_555
C11_17 O3_17 1_555 1_555
C12_17 C11_17 1_555 1_555
C13_17 C12_17 1_555 1_555
H6_17 C13_17 1_555 1_555
C14_17 C13_17 1_555 1_555
C15_17 C14_17 1_555 1_555
H7_17 C15_17 1_555 1_555
C16_17 C15_17 1_555 1_555
C17_17 C12_17 1_555 1_555
H8_17 C17_17 1_555 1_555
C18_17 C16_17 1_555 1_555
C19_17 C18_17 1_555 1_555
H9_17 C19_17 1_555 1_555
C20_29 C19_17 1_555 1_555
H10_29 C20_29 1_555 1_555
C21_17 C14_17 1_555 1_555
C22_17 C6_17 1_555 1_555
C23_17 O11_17 1_555 1_555
H11_17 C23_17 1_555 1_555
C24_17 H12_17 1_555 1_555
H13_17 C24_17 1_555 1_555
H14_17 C24_17 1_555 1_555
C25_17 H15_17 1_555 1_555
H16_17 C25_17 1_555 1_555
H17_17 C25_17 1_555 1_555
C26_29 H18_29 1_555 1_555
N1_29 C8_17 1_555 1_555
N2_29 C18_17 1_555 1_555
O12_17 Gd6_6 1_555 1_555
O13_29 Gd6_6 1_555 1_555
H19_17 O13_29 1_555 1_555
N3_17 C23_17 1_555 1_555
C27_29 O10_29 1_555 1_555
H20_29 C27_29 1_555 1_555
O24_11 C28_17 1_555 1_555
O25_11 C28_17 1_555 1_555
O32_3 C37_17 1_555 1_555
O17_13 C37_17 1_555 1_555
C28_17 C29_17 1_555 1_555
C29_17 C30_17 1_555 1_555
C30_17 H21_17 1_555 1_555
C31_17 C30_17 1_555 1_555
C32_17 C31_17 1_555 1_555
H22_17 C32_17 1_555 1_555
C33_17 C32_17 1_555 1_555
C34_17 C29_17 1_555 1_555
H23_17 C34_17 1_555 1_555
C35_17 N1_29 1_555 1_555
C36_17 C10_29 1_555 1_555
H24_17 C36_17 1_555 1_555
C37_17 C33_17 1_555 1_555
O26_11 C38_17 1_555 1_555
O27_11 C38_17 1_555 1_555
O28_3 C47_17 1_555 1_555
O30_3 C47_17 1_555 1_555
C38_17 C39_17 1_555 1_555
C39_17 C40_17 1_555 1_555
C40_17 H25_17 1_555 1_555
C41_17 C40_17 1_555 1_555
C42_17 C41_17 1_555 1_555
H26_17 C42_17 1_555 1_555
C43_17 C42_17 1_555 1_555
C44_17 C39_17 1_555 1_555
H27_17 C44_17 1_555 1_555
C45_17 N2_29 1_555 1_555
C46_17 C20_29 1_555 1_555
H28_17 C46_17 1_555 1_555
C47_17 C41_17 1_555 1_555
H29_17 O13_29 1_555 1_555
Gd10_2 O5_17 1_555 1_555
O23_17 Gd10_2 1_555 1_555
C48_17 O23_17 1_555 1_555
H30_17 C48_17 1_555 1_555
C49_17 H31_17 1_555 1_555
H32_17 C49_17 1_555 1_555
H33_17 C49_17 1_555 1_555
C50_17 H34_17 1_555 1_555
H35_17 C50_17 1_555 1_555
H36_17 C50_17 1_555 1_555
N4_17 C48_17 1_555 1_555
Gd6_2 O17_13 1_555 1_555
Gd6 O8_13 1_555 1_555
Gd9_2 O7_13 1_555 1_555
Gd9_12 O12_17 1_555 1_555
O4_17 C11_17 1_555 1_555
C6_17 C7_17 1_555 1_555
C16_17 C17_17 1_555 1_555
C24_17 N3_17 1_555 1_555
C25_17 N3_17 1_555 1_555
C26_29 O12_17 1_555 1_555
C26_29 O35_11 1_555 1_555
C31_17 C35_17 1_555 1_555
C33_17 C34_17 1_555 1_555
C35_17 C36_17 1_555 1_555
C43_17 C44_17 1_555 1_555
C43_17 C45_17 1_555 1_555
C45_17 C46_17 1_555 1_555
C49_17 N4_17 1_555 1_555
C50_17 N4_17 1_555 1_555
Gd6_5 O9_30 1_555 1_555
Gd9_10 O1_18 1_555 1_555
O1_18 C1_18 1_555 1_555
O2_18 Gd9_10 1_555 1_555
O3_18 Gd9_10 1_555 1_555
O4_18 Gd9_10 1_555 1_555
O5_18 C21_18 1_555 1_555
O29_3 C21_18 1_555 1_555
O7_14 C22_18 1_555 1_555
O8_14 C22_18 1_555 1_555
O9_30 C27_30 1_555 1_555
O10_30 Gd6_5 1_555 1_555
O11_18 Gd9_10 1_555 1_555
C1_18 O2_18 1_555 1_555
C2_18 C1_18 1_555 1_555
C3_18 C2_18 1_555 1_555
H1_18 C3_18 1_555 1_555
C4_18 C3_18 1_555 1_555
C5_18 C4_18 1_555 1_555
H2_18 C5_18 1_555 1_555
C6_18 C5_18 1_555 1_555
C7_18 C2_18 1_555 1_555
H3_18 C7_18 1_555 1_555
C8_18 C4_18 1_555 1_555
C9_18 C8_18 1_555 1_555
H4_18 C9_18 1_555 1_555
C10_30 C9_18 1_555 1_555
H5_30 C10_30 1_555 1_555
C11_18 O3_18 1_555 1_555
C12_18 C11_18 1_555 1_555
C13_18 C12_18 1_555 1_555
H6_18 C13_18 1_555 1_555
C14_18 C13_18 1_555 1_555
C15_18 C14_18 1_555 1_555
H7_18 C15_18 1_555 1_555
C16_18 C15_18 1_555 1_555
C17_18 C12_18 1_555 1_555
H8_18 C17_18 1_555 1_555
C18_18 C16_18 1_555 1_555
C19_18 C18_18 1_555 1_555
H9_18 C19_18 1_555 1_555
C20_30 C19_18 1_555 1_555
H10_30 C20_30 1_555 1_555
C21_18 C14_18 1_555 1_555
C22_18 C6_18 1_555 1_555
C23_18 O11_18 1_555 1_555
H11_18 C23_18 1_555 1_555
C24_18 H12_18 1_555 1_555
H13_18 C24_18 1_555 1_555
H14_18 C24_18 1_555 1_555
C25_18 H15_18 1_555 1_555
H16_18 C25_18 1_555 1_555
H17_18 C25_18 1_555 1_555
C26_30 H18_30 1_555 1_555
N1_30 C8_18 1_555 1_555
N2_30 C18_18 1_555 1_555
O12_18 Gd6_5 1_555 1_555
O13_30 Gd6_5 1_555 1_555
H19_18 O13_30 1_555 1_555
N3_18 C23_18 1_555 1_555
C27_30 O10_30 1_555 1_555
H20_30 C27_30 1_555 1_555
O24_9 C28_18 1_555 1_555
O25_9 C28_18 1_555 1_555
O32_2 C37_18 1_555 1_555
O17_14 C37_18 1_555 1_555
C28_18 C29_18 1_555 1_555
C29_18 C30_18 1_555 1_555
C30_18 H21_18 1_555 1_555
C31_18 C30_18 1_555 1_555
C32_18 C31_18 1_555 1_555
H22_18 C32_18 1_555 1_555
C33_18 C32_18 1_555 1_555
C34_18 C29_18 1_555 1_555
H23_18 C34_18 1_555 1_555
C35_18 N1_30 1_555 1_555
C36_18 C10_30 1_555 1_555
H24_18 C36_18 1_555 1_555
C37_18 C33_18 1_555 1_555
O26_9 C38_18 1_555 1_555
O27_9 C38_18 1_555 1_555
O28_2 C47_18 1_555 1_555
O30_2 C47_18 1_555 1_555
C38_18 C39_18 1_555 1_555
C39_18 C40_18 1_555 1_555
C40_18 H25_18 1_555 1_555
C41_18 C40_18 1_555 1_555
C42_18 C41_18 1_555 1_555
H26_18 C42_18 1_555 1_555
C43_18 C42_18 1_555 1_555
C44_18 C39_18 1_555 1_555
H27_18 C44_18 1_555 1_555
C45_18 N2_30 1_555 1_555
C46_18 C20_30 1_555 1_555
H28_18 C46_18 1_555 1_555
C47_18 C41_18 1_555 1_555
H29_18 O13_30 1_555 1_555
Gd10_3 O5_18 1_555 1_555
O23_18 Gd10_3 1_555 1_555
C48_18 O23_18 1_555 1_555
H30_18 C48_18 1_555 1_555
C49_18 H31_18 1_555 1_555
H32_18 C49_18 1_555 1_555
H33_18 C49_18 1_555 1_555
C50_18 H34_18 1_555 1_555
H35_18 C50_18 1_555 1_555
H36_18 C50_18 1_555 1_555
N4_18 C48_18 1_555 1_555
Gd7 O17_14 1_555 1_555
Gd7_2 O8_14 1_555 1_555
Gd9_3 O7_14 1_555 1_555
Gd9_10 O12_18 1_555 1_555
O4_18 C11_18 1_555 1_555
C6_18 C7_18 1_555 1_555
C16_18 C17_18 1_555 1_555
C24_18 N3_18 1_555 1_555
C25_18 N3_18 1_555 1_555
C26_30 O12_18 1_555 1_555
C26_30 O35_9 1_555 1_555
C31_18 C35_18 1_555 1_555
C33_18 C34_18 1_555 1_555
C35_18 C36_18 1_555 1_555
C43_18 C44_18 1_555 1_555
C43_18 C45_18 1_555 1_555
C45_18 C46_18 1_555 1_555
C49_18 N4_18 1_555 1_555
C50_18 N4_18 1_555 1_555
Gd7_5 O9_31 1_555 1_555
Gd9_9 O1_19 1_555 1_555
O1_19 C1_19 1_555 1_555
O2_19 Gd9_9 1_555 1_555
O3_19 Gd9_9 1_555 1_555
O4_19 Gd9_9 1_555 1_555
O5_19 C21_19 1_555 1_555
O29 C21_19 1_555 1_555
O7_15 C22_19 1_555 1_555
O8_15 C22_19 1_555 1_555
O9_31 C27_31 1_555 1_555
O10_31 Gd7_5 1_555 1_555
O11_19 Gd9_9 1_555 1_555
C1_19 O2_19 1_555 1_555
C2_19 C1_19 1_555 1_555
C3_19 C2_19 1_555 1_555
H1_19 C3_19 1_555 1_555
C4_19 C3_19 1_555 1_555
C5_19 C4_19 1_555 1_555
H2_19 C5_19 1_555 1_555
C6_19 C5_19 1_555 1_555
C7_19 C2_19 1_555 1_555
H3_19 C7_19 1_555 1_555
C8_19 C4_19 1_555 1_555
C9_19 C8_19 1_555 1_555
H4_19 C9_19 1_555 1_555
C10_31 C9_19 1_555 1_555
H5_31 C10_31 1_555 1_555
C11_19 O3_19 1_555 1_555
C12_19 C11_19 1_555 1_555
C13_19 C12_19 1_555 1_555
H6_19 C13_19 1_555 1_555
C14_19 C13_19 1_555 1_555
C15_19 C14_19 1_555 1_555
H7_19 C15_19 1_555 1_555
C16_19 C15_19 1_555 1_555
C17_19 C12_19 1_555 1_555
H8_19 C17_19 1_555 1_555
C18_19 C16_19 1_555 1_555
C19_19 C18_19 1_555 1_555
H9_19 C19_19 1_555 1_555
C20_31 C19_19 1_555 1_555
H10_31 C20_31 1_555 1_555
C21_19 C14_19 1_555 1_555
C22_19 C6_19 1_555 1_555
C23_19 O11_19 1_555 1_555
H11_19 C23_19 1_555 1_555
C24_19 H12_19 1_555 1_555
H13_19 C24_19 1_555 1_555
H14_19 C24_19 1_555 1_555
C25_19 H15_19 1_555 1_555
H16_19 C25_19 1_555 1_555
H17_19 C25_19 1_555 1_555
C26_31 H18_31 1_555 1_555
N1_31 C8_19 1_555 1_555
N2_31 C18_19 1_555 1_555
O12_19 Gd7_5 1_555 1_555
O13_31 Gd7_5 1_555 1_555
H19_19 O13_31 1_555 1_555
N3_19 C23_19 1_555 1_555
C27_31 O10_31 1_555 1_555
H20_31 C27_31 1_555 1_555
O24_10 C28_19 1_555 1_555
O25_10 C28_19 1_555 1_555
O32_4 C37_19 1_555 1_555
O17_15 C37_19 1_555 1_555
C28_19 C29_19 1_555 1_555
C29_19 C30_19 1_555 1_555
C30_19 H21_19 1_555 1_555
C31_19 C30_19 1_555 1_555
C32_19 C31_19 1_555 1_555
H22_19 C32_19 1_555 1_555
C33_19 C32_19 1_555 1_555
C34_19 C29_19 1_555 1_555
H23_19 C34_19 1_555 1_555
C35_19 N1_31 1_555 1_555
C36_19 C10_31 1_555 1_555
H24_19 C36_19 1_555 1_555
C37_19 C33_19 1_555 1_555
O26_10 C38_19 1_555 1_555
O27_10 C38_19 1_555 1_555
O28_4 C47_19 1_555 1_555
O30_4 C47_19 1_555 1_555
C38_19 C39_19 1_555 1_555
C39_19 C40_19 1_555 1_555
C40_19 H25_19 1_555 1_555
C41_19 C40_19 1_555 1_555
C42_19 C41_19 1_555 1_555
H26_19 C42_19 1_555 1_555
C43_19 C42_19 1_555 1_555
C44_19 C39_19 1_555 1_555
H27_19 C44_19 1_555 1_555
C45_19 N2_31 1_555 1_555
C46_19 C20_31 1_555 1_555
H28_19 C46_19 1_555 1_555
C47_19 C41_19 1_555 1_555
H29_19 O13_31 1_555 1_555
Gd10 O5_19 1_555 1_555
O23_19 Gd10 1_555 1_555
C48_19 O23_19 1_555 1_555
H30_19 C48_19 1_555 1_555
C49_19 H31_19 1_555 1_555
H32_19 C49_19 1_555 1_555
H33_19 C49_19 1_555 1_555
C50_19 H34_19 1_555 1_555
H35_19 C50_19 1_555 1_555
H36_19 C50_19 1_555 1_555
N4_19 C48_19 1_555 1_555
Gd7_2 O17_15 1_555 1_555
Gd7 O8_15 1_555 1_555
Gd9 O7_15 1_555 1_555
Gd9_9 O12_19 1_555 1_555
O4_19 C11_19 1_555 1_555
C6_19 C7_19 1_555 1_555
C16_19 C17_19 1_555 1_555
C24_19 N3_19 1_555 1_555
C25_19 N3_19 1_555 1_555
C26_31 O12_19 1_555 1_555
C26_31 O35_10 1_555 1_555
C31_19 C35_19 1_555 1_555
C33_19 C34_19 1_555 1_555
C35_19 C36_19 1_555 1_555
C43_19 C44_19 1_555 1_555
C43_19 C45_19 1_555 1_555
C45_19 C46_19 1_555 1_555
C49_19 N4_19 1_555 1_555
C50_19 N4_19 1_555 1_555
Gd7_6 O9_32 1_555 1_555
Gd9_11 O1_20 1_555 1_555
O1_20 C1_20 1_555 1_555
O2_20 Gd9_11 1_555 1_555
O3_20 Gd9_11 1_555 1_555
O4_20 Gd9_11 1_555 1_555
O5_20 C21_20 1_555 1_555
O29_4 C21_20 1_555 1_555
O7_16 C22_20 1_555 1_555
O8_16 C22_20 1_555 1_555
O9_32 C27_32 1_555 1_555
O10_32 Gd7_6 1_555 1_555
O11_20 Gd9_11 1_555 1_555
C1_20 O2_20 1_555 1_555
C2_20 C1_20 1_555 1_555
C3_20 C2_20 1_555 1_555
H1_20 C3_20 1_555 1_555
C4_20 C3_20 1_555 1_555
C5_20 C4_20 1_555 1_555
H2_20 C5_20 1_555 1_555
C6_20 C5_20 1_555 1_555
C7_20 C2_20 1_555 1_555
H3_20 C7_20 1_555 1_555
C8_20 C4_20 1_555 1_555
C9_20 C8_20 1_555 1_555
H4_20 C9_20 1_555 1_555
C10_32 C9_20 1_555 1_555
H5_32 C10_32 1_555 1_555
C11_20 O3_20 1_555 1_555
C12_20 C11_20 1_555 1_555
C13_20 C12_20 1_555 1_555
H6_20 C13_20 1_555 1_555
C14_20 C13_20 1_555 1_555
C15_20 C14_20 1_555 1_555
H7_20 C15_20 1_555 1_555
C16_20 C15_20 1_555 1_555
C17_20 C12_20 1_555 1_555
H8_20 C17_20 1_555 1_555
C18_20 C16_20 1_555 1_555
C19_20 C18_20 1_555 1_555
H9_20 C19_20 1_555 1_555
C20_32 C19_20 1_555 1_555
H10_32 C20_32 1_555 1_555
C21_20 C14_20 1_555 1_555
C22_20 C6_20 1_555 1_555
C23_20 O11_20 1_555 1_555
H11_20 C23_20 1_555 1_555
C24_20 H12_20 1_555 1_555
H13_20 C24_20 1_555 1_555
H14_20 C24_20 1_555 1_555
C25_20 H15_20 1_555 1_555
H16_20 C25_20 1_555 1_555
H17_20 C25_20 1_555 1_555
C26_32 H18_32 1_555 1_555
N1_32 C8_20 1_555 1_555
N2_32 C18_20 1_555 1_555
O12_20 Gd7_6 1_555 1_555
O13_32 Gd7_6 1_555 1_555
H19_20 O13_32 1_555 1_555
N3_20 C23_20 1_555 1_555
C27_32 O10_32 1_555 1_555
H20_32 C27_32 1_555 1_555
O24_12 C28_20 1_555 1_555
O25_12 C28_20 1_555 1_555
O32 C37_20 1_555 1_555
O17_16 C37_20 1_555 1_555
C28_20 C29_20 1_555 1_555
C29_20 C30_20 1_555 1_555
C30_20 H21_20 1_555 1_555
C31_20 C30_20 1_555 1_555
C32_20 C31_20 1_555 1_555
H22_20 C32_20 1_555 1_555
C33_20 C32_20 1_555 1_555
C34_20 C29_20 1_555 1_555
H23_20 C34_20 1_555 1_555
C35_20 N1_32 1_555 1_555
C36_20 C10_32 1_555 1_555
H24_20 C36_20 1_555 1_555
C37_20 C33_20 1_555 1_555
O26_12 C38_20 1_555 1_555
O27_12 C38_20 1_555 1_555
O28 C47_20 1_555 1_555
O30 C47_20 1_555 1_555
C38_20 C39_20 1_555 1_555
C39_20 C40_20 1_555 1_555
C40_20 H25_20 1_555 1_555
C41_20 C40_20 1_555 1_555
C42_20 C41_20 1_555 1_555
H26_20 C42_20 1_555 1_555
C43_20 C42_20 1_555 1_555
C44_20 C39_20 1_555 1_555
H27_20 C44_20 1_555 1_555
C45_20 N2_32 1_555 1_555
C46_20 C20_32 1_555 1_555
H28_20 C46_20 1_555 1_555
C47_20 C41_20 1_555 1_555
H29_20 O13_32 1_555 1_555
Gd10_4 O5_20 1_555 1_555
O23_20 Gd10_4 1_555 1_555
C48_20 O23_20 1_555 1_555
H30_20 C48_20 1_555 1_555
C49_20 H31_20 1_555 1_555
H32_20 C49_20 1_555 1_555
H33_20 C49_20 1_555 1_555
C50_20 H34_20 1_555 1_555
H35_20 C50_20 1_555 1_555
H36_20 C50_20 1_555 1_555
N4_20 C48_20 1_555 1_555
Gd6 O17_16 1_555 1_555
Gd6_2 O8_16 1_555 1_555
Gd9_4 O7_16 1_555 1_555
Gd9_11 O12_20 1_555 1_555
O4_20 C11_20 1_555 1_555
C6_20 C7_20 1_555 1_555
C16_20 C17_20 1_555 1_555
C24_20 N3_20 1_555 1_555
C25_20 N3_20 1_555 1_555
C26_32 O12_20 1_555 1_555
C26_32 O35_12 1_555 1_555
C31_20 C35_20 1_555 1_555
C33_20 C34_20 1_555 1_555
C35_20 C36_20 1_555 1_555
C43_20 C44_20 1_555 1_555
C43_20 C45_20 1_555 1_555
C45_20 C46_20 1_555 1_555
C49_20 N4_20 1_555 1_555
C50_20 N4_20 1_555 1_555
Gd6_2 O9_33 1_555 1_555
Gd9_4 O1_21 1_555 1_555
O1_21 C1_21 1_555 1_555
O2_21 Gd9_4 1_555 1_555
O3_21 Gd9_4 1_555 1_555
O4_21 Gd9_4 1_555 1_555
O5_21 C21_21 1_555 1_555
O29_6 C21_21 1_555 1_555
O31_6 C22_21 1_555 1_555
O33_6 C22_21 1_555 1_555
O9_33 C27_33 1_555 1_555
O10_33 Gd6_2 1_555 1_555
O11_21 Gd9_4 1_555 1_555
C1_21 O2_21 1_555 1_555
C2_21 C1_21 1_555 1_555
C3_21 C2_21 1_555 1_555
H1_21 C3_21 1_555 1_555
C4_21 C3_21 1_555 1_555
C5_21 C4_21 1_555 1_555
H2_21 C5_21 1_555 1_555
C6_21 C5_21 1_555 1_555
C7_21 C2_21 1_555 1_555
H3_21 C7_21 1_555 1_555
C8_21 C4_21 1_555 1_555
C9_21 C8_21 1_555 1_555
H4_21 C9_21 1_555 1_555
C10_33 C9_21 1_555 1_555
H5_33 C10_33 1_555 1_555
C11_21 O3_21 1_555 1_555
C12_21 C11_21 1_555 1_555
C13_21 C12_21 1_555 1_555
H6_21 C13_21 1_555 1_555
C14_21 C13_21 1_555 1_555
C15_21 C14_21 1_555 1_555
H7_21 C15_21 1_555 1_555
C16_21 C15_21 1_555 1_555
C17_21 C12_21 1_555 1_555
H8_21 C17_21 1_555 1_555
C18_21 C16_21 1_555 1_555
C19_21 C18_21 1_555 1_555
H9_21 C19_21 1_555 1_555
C20_33 C19_21 1_555 1_555
H10_33 C20_33 1_555 1_555
C21_21 C14_21 1_555 1_555
C22_21 C6_21 1_555 1_555
C23_21 O11_21 1_555 1_555
H11_21 C23_21 1_555 1_555
C24_21 H12_21 1_555 1_555
H13_21 C24_21 1_555 1_555
H14_21 C24_21 1_555 1_555
C25_21 H15_21 1_555 1_555
H16_21 C25_21 1_555 1_555
H17_21 C25_21 1_555 1_555
C26_33 H18_33 1_555 1_555
N1_33 C8_21 1_555 1_555
N2_33 C18_21 1_555 1_555
O12_21 Gd6_2 1_555 1_555
O13_33 Gd6_2 1_555 1_555
H19_21 O13_33 1_555 1_555
N3_21 C23_21 1_555 1_555
C27_33 O10_33 1_555 1_555
H20_33 C27_33 1_555 1_555
O24_3 C28_21 1_555 1_555
O25_3 C28_21 1_555 1_555
O32_7 C37_21 1_555 1_555
O34_5 C37_21 1_555 1_555
C28_21 C29_21 1_555 1_555
C29_21 C30_21 1_555 1_555
C30_21 H21_21 1_555 1_555
C31_21 C30_21 1_555 1_555
C32_21 C31_21 1_555 1_555
H22_21 C32_21 1_555 1_555
C33_21 C32_21 1_555 1_555
C34_21 C29_21 1_555 1_555
H23_21 C34_21 1_555 1_555
C35_21 N1_33 1_555 1_555
C36_21 C10_33 1_555 1_555
H24_21 C36_21 1_555 1_555
C37_21 C33_21 1_555 1_555
O26_3 C38_21 1_555 1_555
O27_3 C38_21 1_555 1_555
O28_7 C47_21 1_555 1_555
O30_7 C47_21 1_555 1_555
C38_21 C39_21 1_555 1_555
C39_21 C40_21 1_555 1_555
C40_21 H25_21 1_555 1_555
C41_21 C40_21 1_555 1_555
C42_21 C41_21 1_555 1_555
H26_21 C42_21 1_555 1_555
C43_21 C42_21 1_555 1_555
C44_21 C39_21 1_555 1_555
H27_21 C44_21 1_555 1_555
C45_21 N2_33 1_555 1_555
C46_21 C20_33 1_555 1_555
H28_21 C46_21 1_555 1_555
C47_21 C41_21 1_555 1_555
H29_21 O13_33 1_555 1_555
Gd11_4 O5_21 1_555 1_555
O23_21 Gd11_4 1_555 1_555
C48_21 O23_21 1_555 1_555
H30_21 C48_21 1_555 1_555
C49_21 H31_21 1_555 1_555
H32_21 C49_21 1_555 1_555
H33_21 C49_21 1_555 1_555
C50_21 H34_21 1_555 1_555
H35_21 C50_21 1_555 1_555
H36_21 C50_21 1_555 1_555
N4_21 C48_21 1_555 1_555
Gd9_4 O12_21 1_555 1_555
O4_21 C11_21 1_555 1_555
C6_21 C7_21 1_555 1_555
C16_21 C17_21 1_555 1_555
C24_21 N3_21 1_555 1_555
C25_21 N3_21 1_555 1_555
C26_33 O12_21 1_555 1_555
C26_33 O35_3 1_555 1_555
C31_21 C35_21 1_555 1_555
C33_21 C34_21 1_555 1_555
C35_21 C36_21 1_555 1_555
C43_21 C44_21 1_555 1_555
C43_21 C45_21 1_555 1_555
C45_21 C46_21 1_555 1_555
C49_21 N4_21 1_555 1_555
C50_21 N4_21 1_555 1_555
Gd6 O9_34 1_555 1_555
Gd9_2 O1_22 1_555 1_555
O1_22 C1_22 1_555 1_555
O2_22 Gd9_2 1_555 1_555
O3_22 Gd9_2 1_555 1_555
O4_22 Gd9_2 1_555 1_555
O5_22 C21_22 1_555 1_555
O29_7 C21_22 1_555 1_555
O31_8 C22_22 1_555 1_555
O33_8 C22_22 1_555 1_555
O9_34 C27_34 1_555 1_555
O10_34 Gd6 1_555 1_555
O11_22 Gd9_2 1_555 1_555
C1_22 O2_22 1_555 1_555
C2_22 C1_22 1_555 1_555
C3_22 C2_22 1_555 1_555
H1_22 C3_22 1_555 1_555
C4_22 C3_22 1_555 1_555
C5_22 C4_22 1_555 1_555
H2_22 C5_22 1_555 1_555
C6_22 C5_22 1_555 1_555
C7_22 C2_22 1_555 1_555
H3_22 C7_22 1_555 1_555
C8_22 C4_22 1_555 1_555
C9_22 C8_22 1_555 1_555
H4_22 C9_22 1_555 1_555
C10_34 C9_22 1_555 1_555
H5_34 C10_34 1_555 1_555
C11_22 O3_22 1_555 1_555
C12_22 C11_22 1_555 1_555
C13_22 C12_22 1_555 1_555
H6_22 C13_22 1_555 1_555
C14_22 C13_22 1_555 1_555
C15_22 C14_22 1_555 1_555
H7_22 C15_22 1_555 1_555
C16_22 C15_22 1_555 1_555
C17_22 C12_22 1_555 1_555
H8_22 C17_22 1_555 1_555
C18_22 C16_22 1_555 1_555
C19_22 C18_22 1_555 1_555
H9_22 C19_22 1_555 1_555
C20_34 C19_22 1_555 1_555
H10_34 C20_34 1_555 1_555
C21_22 C14_22 1_555 1_555
C22_22 C6_22 1_555 1_555
C23_22 O11_22 1_555 1_555
H11_22 C23_22 1_555 1_555
C24_22 H12_22 1_555 1_555
H13_22 C24_22 1_555 1_555
H14_22 C24_22 1_555 1_555
C25_22 H15_22 1_555 1_555
H16_22 C25_22 1_555 1_555
H17_22 C25_22 1_555 1_555
C26_34 H18_34 1_555 1_555
N1_34 C8_22 1_555 1_555
N2_34 C18_22 1_555 1_555
O12_22 Gd6 1_555 1_555
O13_34 Gd6 1_555 1_555
H19_22 O13_34 1_555 1_555
N3_22 C23_22 1_555 1_555
C27_34 O10_34 1_555 1_555
H20_34 C27_34 1_555 1_555
O24 C28_22 1_555 1_555
O25 C28_22 1_555 1_555
O32_6 C37_22 1_555 1_555
O34_7 C37_22 1_555 1_555
C28_22 C29_22 1_555 1_555
C29_22 C30_22 1_555 1_555
C30_22 H21_22 1_555 1_555
C31_22 C30_22 1_555 1_555
C32_22 C31_22 1_555 1_555
H22_22 C32_22 1_555 1_555
C33_22 C32_22 1_555 1_555
C34_22 C29_22 1_555 1_555
H23_22 C34_22 1_555 1_555
C35_22 N1_34 1_555 1_555
C36_22 C10_34 1_555 1_555
H24_22 C36_22 1_555 1_555
C37_22 C33_22 1_555 1_555
O26 C38_22 1_555 1_555
O27 C38_22 1_555 1_555
O28_6 C47_22 1_555 1_555
O30_6 C47_22 1_555 1_555
C38_22 C39_22 1_555 1_555
C39_22 C40_22 1_555 1_555
C40_22 H25_22 1_555 1_555
C41_22 C40_22 1_555 1_555
C42_22 C41_22 1_555 1_555
H26_22 C42_22 1_555 1_555
C43_22 C42_22 1_555 1_555
C44_22 C39_22 1_555 1_555
H27_22 C44_22 1_555 1_555
C45_22 N2_34 1_555 1_555
C46_22 C20_34 1_555 1_555
H28_22 C46_22 1_555 1_555
C47_22 C41_22 1_555 1_555
H29_22 O13_34 1_555 1_555
Gd11_2 O5_22 1_555 1_555
O23_22 Gd11_2 1_555 1_555
C48_22 O23_22 1_555 1_555
H30_22 C48_22 1_555 1_555
C49_22 H31_22 1_555 1_555
H32_22 C49_22 1_555 1_555
H33_22 C49_22 1_555 1_555
C50_22 H34_22 1_555 1_555
H35_22 C50_22 1_555 1_555
H36_22 C50_22 1_555 1_555
N4_22 C48_22 1_555 1_555
Gd9_2 O12_22 1_555 1_555
O4_22 C11_22 1_555 1_555
C6_22 C7_22 1_555 1_555
C16_22 C17_22 1_555 1_555
C24_22 N3_22 1_555 1_555
C25_22 N3_22 1_555 1_555
C26_34 O12_22 1_555 1_555
C26_34 O35 1_555 1_555
C31_22 C35_22 1_555 1_555
C33_22 C34_22 1_555 1_555
C35_22 C36_22 1_555 1_555
C43_22 C44_22 1_555 1_555
C43_22 C45_22 1_555 1_555
C45_22 C46_22 1_555 1_555
C49_22 N4_22 1_555 1_555
C50_22 N4_22 1_555 1_555
Gd7 O9_35 1_555 1_555
Gd9 O1_23 1_555 1_555
O1_23 C1_23 1_555 1_555
O2_23 Gd9 1_555 1_555
O3_23 Gd9 1_555 1_555
O4_23 Gd9 1_555 1_555
O5_23 C21_23 1_555 1_555
O29_5 C21_23 1_555 1_555
O31_7 C22_23 1_555 1_555
O33_7 C22_23 1_555 1_555
O9_35 C27_35 1_555 1_555
O10_35 Gd7 1_555 1_555
O11_23 Gd9 1_555 1_555
C1_23 O2_23 1_555 1_555
C2_23 C1_23 1_555 1_555
C3_23 C2_23 1_555 1_555
H1_23 C3_23 1_555 1_555
C4_23 C3_23 1_555 1_555
C5_23 C4_23 1_555 1_555
H2_23 C5_23 1_555 1_555
C6_23 C5_23 1_555 1_555
C7_23 C2_23 1_555 1_555
H3_23 C7_23 1_555 1_555
C8_23 C4_23 1_555 1_555
C9_23 C8_23 1_555 1_555
H4_23 C9_23 1_555 1_555
C10_35 C9_23 1_555 1_555
H5_35 C10_35 1_555 1_555
C11_23 O3_23 1_555 1_555
C12_23 C11_23 1_555 1_555
C13_23 C12_23 1_555 1_555
H6_23 C13_23 1_555 1_555
C14_23 C13_23 1_555 1_555
C15_23 C14_23 1_555 1_555
H7_23 C15_23 1_555 1_555
C16_23 C15_23 1_555 1_555
C17_23 C12_23 1_555 1_555
H8_23 C17_23 1_555 1_555
C18_23 C16_23 1_555 1_555
C19_23 C18_23 1_555 1_555
H9_23 C19_23 1_555 1_555
C20_35 C19_23 1_555 1_555
H10_35 C20_35 1_555 1_555
C21_23 C14_23 1_555 1_555
C22_23 C6_23 1_555 1_555
C23_23 O11_23 1_555 1_555
H11_23 C23_23 1_555 1_555
C24_23 H12_23 1_555 1_555
H13_23 C24_23 1_555 1_555
H14_23 C24_23 1_555 1_555
C25_23 H15_23 1_555 1_555
H16_23 C25_23 1_555 1_555
H17_23 C25_23 1_555 1_555
C26_35 H18_35 1_555 1_555
N1_35 C8_23 1_555 1_555
N2_35 C18_23 1_555 1_555
O12_23 Gd7 1_555 1_555
O13_35 Gd7 1_555 1_555
H19_23 O13_35 1_555 1_555
N3_23 C23_23 1_555 1_555
C27_35 O10_35 1_555 1_555
H20_35 C27_35 1_555 1_555
O24_2 C28_23 1_555 1_555
O25_2 C28_23 1_555 1_555
O32_8 C37_23 1_555 1_555
O34_8 C37_23 1_555 1_555
C28_23 C29_23 1_555 1_555
C29_23 C30_23 1_555 1_555
C30_23 H21_23 1_555 1_555
C31_23 C30_23 1_555 1_555
C32_23 C31_23 1_555 1_555
H22_23 C32_23 1_555 1_555
C33_23 C32_23 1_555 1_555
C34_23 C29_23 1_555 1_555
H23_23 C34_23 1_555 1_555
C35_23 N1_35 1_555 1_555
C36_23 C10_35 1_555 1_555
H24_23 C36_23 1_555 1_555
C37_23 C33_23 1_555 1_555
O26_2 C38_23 1_555 1_555
O27_2 C38_23 1_555 1_555
O28_8 C47_23 1_555 1_555
O30_8 C47_23 1_555 1_555
C38_23 C39_23 1_555 1_555
C39_23 C40_23 1_555 1_555
C40_23 H25_23 1_555 1_555
C41_23 C40_23 1_555 1_555
C42_23 C41_23 1_555 1_555
H26_23 C42_23 1_555 1_555
C43_23 C42_23 1_555 1_555
C44_23 C39_23 1_555 1_555
H27_23 C44_23 1_555 1_555
C45_23 N2_35 1_555 1_555
C46_23 C20_35 1_555 1_555
H28_23 C46_23 1_555 1_555
C47_23 C41_23 1_555 1_555
H29_23 O13_35 1_555 1_555
Gd11 O5_23 1_555 1_555
O23_23 Gd11 1_555 1_555
C48_23 O23_23 1_555 1_555
H30_23 C48_23 1_555 1_555
C49_23 H31_23 1_555 1_555
H32_23 C49_23 1_555 1_555
H33_23 C49_23 1_555 1_555
C50_23 H34_23 1_555 1_555
H35_23 C50_23 1_555 1_555
H36_23 C50_23 1_555 1_555
N4_23 C48_23 1_555 1_555
Gd9 O12_23 1_555 1_555
O4_23 C11_23 1_555 1_555
C6_23 C7_23 1_555 1_555
C16_23 C17_23 1_555 1_555
C24_23 N3_23 1_555 1_555
C25_23 N3_23 1_555 1_555
C26_35 O12_23 1_555 1_555
C26_35 O35_2 1_555 1_555
C31_23 C35_23 1_555 1_555
C33_23 C34_23 1_555 1_555
C35_23 C36_23 1_555 1_555
C43_23 C44_23 1_555 1_555
C43_23 C45_23 1_555 1_555
C45_23 C46_23 1_555 1_555
C49_23 N4_23 1_555 1_555
C50_23 N4_23 1_555 1_555
Gd7_2 O9_36 1_555 1_555
Gd9_3 O1_24 1_555 1_555
O1_24 C1_24 1_555 1_555
O2_24 Gd9_3 1_555 1_555
O3_24 Gd9_3 1_555 1_555
O4_24 Gd9_3 1_555 1_555
O5_24 C21_24 1_555 1_555
O29_8 C21_24 1_555 1_555
O31_5 C22_24 1_555 1_555
O33_5 C22_24 1_555 1_555
O9_36 C27_36 1_555 1_555
O10_36 Gd7_2 1_555 1_555
O11_24 Gd9_3 1_555 1_555
C1_24 O2_24 1_555 1_555
C2_24 C1_24 1_555 1_555
C3_24 C2_24 1_555 1_555
H1_24 C3_24 1_555 1_555
C4_24 C3_24 1_555 1_555
C5_24 C4_24 1_555 1_555
H2_24 C5_24 1_555 1_555
C6_24 C5_24 1_555 1_555
C7_24 C2_24 1_555 1_555
H3_24 C7_24 1_555 1_555
C8_24 C4_24 1_555 1_555
C9_24 C8_24 1_555 1_555
H4_24 C9_24 1_555 1_555
C10_36 C9_24 1_555 1_555
H5_36 C10_36 1_555 1_555
C11_24 O3_24 1_555 1_555
C12_24 C11_24 1_555 1_555
C13_24 C12_24 1_555 1_555
H6_24 C13_24 1_555 1_555
C14_24 C13_24 1_555 1_555
C15_24 C14_24 1_555 1_555
H7_24 C15_24 1_555 1_555
C16_24 C15_24 1_555 1_555
C17_24 C12_24 1_555 1_555
H8_24 C17_24 1_555 1_555
C18_24 C16_24 1_555 1_555
C19_24 C18_24 1_555 1_555
H9_24 C19_24 1_555 1_555
C20_36 C19_24 1_555 1_555
H10_36 C20_36 1_555 1_555
C21_24 C14_24 1_555 1_555
C22_24 C6_24 1_555 1_555
C23_24 O11_24 1_555 1_555
H11_24 C23_24 1_555 1_555
C24_24 H12_24 1_555 1_555
H13_24 C24_24 1_555 1_555
H14_24 C24_24 1_555 1_555
C25_24 H15_24 1_555 1_555
H16_24 C25_24 1_555 1_555
H17_24 C25_24 1_555 1_555
C26_36 H18_36 1_555 1_555
N1_36 C8_24 1_555 1_555
N2_36 C18_24 1_555 1_555
O12_24 Gd7_2 1_555 1_555
O13_36 Gd7_2 1_555 1_555
H19_24 O13_36 1_555 1_555
N3_24 C23_24 1_555 1_555
C27_36 O10_36 1_555 1_555
H20_36 C27_36 1_555 1_555
O24_4 C28_24 1_555 1_555
O25_4 C28_24 1_555 1_555
O32_5 C37_24 1_555 1_555
O34_6 C37_24 1_555 1_555
C28_24 C29_24 1_555 1_555
C29_24 C30_24 1_555 1_555
C30_24 H21_24 1_555 1_555
C31_24 C30_24 1_555 1_555
C32_24 C31_24 1_555 1_555
H22_24 C32_24 1_555 1_555
C33_24 C32_24 1_555 1_555
C34_24 C29_24 1_555 1_555
H23_24 C34_24 1_555 1_555
C35_24 N1_36 1_555 1_555
C36_24 C10_36 1_555 1_555
H24_24 C36_24 1_555 1_555
C37_24 C33_24 1_555 1_555
O26_4 C38_24 1_555 1_555
O27_4 C38_24 1_555 1_555
O28_5 C47_24 1_555 1_555
O30_5 C47_24 1_555 1_555
C38_24 C39_24 1_555 1_555
C39_24 C40_24 1_555 1_555
C40_24 H25_24 1_555 1_555
C41_24 C40_24 1_555 1_555
C42_24 C41_24 1_555 1_555
H26_24 C42_24 1_555 1_555
C43_24 C42_24 1_555 1_555
C44_24 C39_24 1_555 1_555
H27_24 C44_24 1_555 1_555
C45_24 N2_36 1_555 1_555
C46_24 C20_36 1_555 1_555
H28_24 C46_24 1_555 1_555
C47_24 C41_24 1_555 1_555
H29_24 O13_36 1_555 1_555
Gd11_3 O5_24 1_555 1_555
O23_24 Gd11_3 1_555 1_555
C48_24 O23_24 1_555 1_555
H30_24 C48_24 1_555 1_555
C49_24 H31_24 1_555 1_555
H32_24 C49_24 1_555 1_555
H33_24 C49_24 1_555 1_555
C50_24 H34_24 1_555 1_555
H35_24 C50_24 1_555 1_555
H36_24 C50_24 1_555 1_555
N4_24 C48_24 1_555 1_555
Gd9_3 O12_24 1_555 1_555
O4_24 C11_24 1_555 1_555
C6_24 C7_24 1_555 1_555
C16_24 C17_24 1_555 1_555
C24_24 N3_24 1_555 1_555
C25_24 N3_24 1_555 1_555
C26_36 O12_24 1_555 1_555
C26_36 O35_4 1_555 1_555
C31_24 C35_24 1_555 1_555
C33_24 C34_24 1_555 1_555
C35_24 C36_24 1_555 1_555
C43_24 C44_24 1_555 1_555
C43_24 C45_24 1_555 1_555
C45_24 C46_24 1_555 1_555
C49_24 N4_24 1_555 1_555
C50_24 N4_24 1_555 1_555

#END
