
###############################################################################
#
# This file contains modified crystal structure data generated from the
# MOF subset of the Cambridge Structural Database (CSD) v543 
# hosted by the Cambridge Crystallographic Data Centre (CCDC).
#
# This work is licensed under the Creative Commons
# Attribution-NonCommercial-ShareAlike 4.0 International License.
# To view a copy of this license, visit
# http://creativecommons.org/licenses/by-nc-sa/4.0/
# or send a letter to
# Creative Commons, PO Box 1866, Mountain View, CA 94042, USA.
#
# CIF created using the CSD Python API on 29 September 2022
# The structure has been converted into the P1 space group
# The structure has a 3D framework
# The original CSD entry XOFYOI is in the monoclinic crystal system
# The framework has been calculated to contain at least 10.0% void space
# The void calculation uses a probe of radius 1.32A, grid spacing 0.4
#
###############################################################################

data_XOFYOI
_chemical_formula_moiety         '(C160 H104 N14 O40 Zn8)n'
_symmetry_cell_setting           triclinic
_symmetry_space_group_name_H-M   'P 1'
_symmetry_Int_Tables_number      1
_space_group_name_Hall           'P 1'
loop_
_symmetry_equiv_pos_site_id
_symmetry_equiv_pos_as_xyz
1 x,y,z
_cell_length_a                   12.546(4)
_cell_length_b                   26.633(7)
_cell_length_c                   15.734(6)
_cell_angle_alpha                90
_cell_angle_beta                 97.869(4)
_cell_angle_gamma                90
_cell_volume                     5207.82
loop_
_atom_site_label
_atom_site_type_symbol
_atom_site_fract_x
_atom_site_fract_y
_atom_site_fract_z
O8 O 0.1737(4) 0.04809(14) 0.1116(4)
C34 C 0.0989(5) 0.0820(2) 0.1367(5)
C35 C 0.1105(5) 0.0975(2) 0.2186(5)
H23 H 0.1635 0.0835 0.2588
C36 C 0.0435(4) 0.1341(2) 0.2427(4)
H24 H 0.0533 0.1454 0.2991
C39 C 0.0205(5) 0.1000(2) 0.0790(5)
H26 H 0.0128 0.0885 0.0227
O6 O 0.2032(2) 0.81175(11) 0.1187(2)
O7 O 0.0419(3) 0.81989(12) 0.1569(2)
C27 C 0.1253(4) 0.83959(17) 0.1378(3)
C28 C 0.1387(3) 0.89354(16) 0.1357(3)
C29 C 0.0591(4) 0.92529(18) 0.1574(4)
C30 C 0.0697(4) 0.97689(19) 0.1518(4)
H20 H 0.0170 0.9979 0.1683
C31 C 0.1565(4) 0.99664(18) 0.1223(4)
C32 C 0.2377(4) 0.96638(19) 0.1007(4)
H21 H 0.2982 0.9805 0.0819
C33 C 0.2285(4) 0.91584(18) 0.1072(4)
H22 H 0.2832 0.8954 0.0923
Zn6 Zn 0.14783(4) 0.743937(19) 0.12231(3)
Zn1 Zn 0.69156(4) 0.251977(17) 0.18256(3)
Zn2 Zn 0.85217(4) 0.243937(19) 0.37769(3)
O1 O 0.7409(2) 0.32059(11) 0.1699(2)
O2 O 0.5805(3) 0.32718(13) 0.2101(2)
O3 O 0.6691(3) 0.55270(14) 0.1053(4)
O4 O 0.3689(2) 0.71831(13) 0.2256(2)
O5 O 0.2669(2) 0.69755(11) 0.1053(2)
O9 O 0.9143(2) 0.21004(14) 0.2866(2)
O10 O 0.8090(2) 0.20528(12) 0.1614(2)
N1 N 0.5872(3) 0.23496(15) 0.0742(3)
C1 C 0.6590(4) 0.34674(17) 0.1853(3)
C2 C 0.6621(3) 0.40153(16) 0.1686(3)
C3 C 0.7480(4) 0.42370(18) 0.1355(4)
H1 H 0.8073 0.4043 0.1272
C4 C 0.7464(4) 0.47377(19) 0.1149(4)
H2 H 0.8030 0.4881 0.0909
C5 C 0.6619(4) 0.50198(18) 0.1298(4)
C6 C 0.5779(4) 0.48290(19) 0.1635(4)
H3 H 0.5210 0.5034 0.1739
C7 C 0.5778(4) 0.43178(19) 0.1825(3)
H4 H 0.5195 0.4180 0.2050
C8 C 0.5860(5) 0.5859(2) 0.1195(5)
C9 C 0.5925(5) 0.6116(3) 0.1978(5)
H5 H 0.6479 0.6050 0.2420
C10 C 0.5161(4) 0.6461(2) 0.2072(4)
H6 H 0.5205 0.6640 0.2583
C11 C 0.4313(3) 0.65552(15) 0.1431(3)
C12 C 0.4258(4) 0.6291(2) 0.0682(4)
H7 H 0.3683 0.6346 0.0253
C13 C 0.5037(5) 0.5945(2) 0.0548(4)
H8 H 0.5002 0.5775 0.0029
C14 C 0.3495(3) 0.69330(15) 0.1591(3)
C15 C 0.4852(4) 0.25221(19) 0.0635(3)
H9 H 0.4584 0.2669 0.1098
C19 C 0.6215(3) 0.21164(17) 0.0085(3)
H12 H 0.6903 0.1978 0.0161
C37 C 0.9635(3) 0.15411(16) 0.1861(3)
C38 C 0.9505(4) 0.1359(2) 0.1030(4)
H25 H 0.8947 0.1477 0.0631
C40 C 0.8893(3) 0.19252(14) 0.2131(3)
Zn3 Zn 0.30844(4) 0.751977(17) 0.31744(3)
O11 O 0.6311(2) 0.21831(13) 0.2744(2)
O12 O 0.7331(2) 0.19755(11) 0.3947(2)
O13 O 0.7968(2) 0.31175(11) 0.3813(2)
O14 O 0.9581(3) 0.31989(12) 0.3431(2)
N5 N 0.9552(3) 0.23094(14) 0.4872(2)
C25 C 0.9230(3) 0.20768(17) 0.5534(3)
H17 H 0.8550 0.1931 0.5458
C26 C 0.9831(3) 0.20385(19) 0.6316(3)
H18 H 0.9564 0.1873 0.6762
N4 N 0.0448(3) 0.73094(14) 0.0128(2)
O3_2 O 0.3309(3) 0.05270(14) 0.3947(4)
C5_2 C 0.3381(4) 0.00198(18) 0.3702(4)
H3_2 H 0.4790 0.0034 0.3261
C8_2 C 0.4140(5) 0.0859(2) 0.3805(5)
C9_2 C 0.4075(5) 0.1116(3) 0.3022(5)
H5_2 H 0.3521 0.1050 0.2580
C10_2 C 0.4839(4) 0.1461(2) 0.2928(4)
H6_2 H 0.4795 0.1640 0.2417
C11_2 C 0.5687(3) 0.15552(15) 0.3569(3)
C12_2 C 0.5742(4) 0.1291(2) 0.4318(4)
H7_2 H 0.6317 0.1346 0.4747
C13_2 C 0.4963(5) 0.0945(2) 0.4452(4)
H8_2 H 0.4998 0.0775 0.4971
C14_2 C 0.6505(3) 0.19330(15) 0.3409(3)
O1_2 O 0.2591(2) 0.82059(11) 0.3301(2)
O2_2 O 0.4195(3) 0.82718(13) 0.2899(2)
O9_2 O 0.0857(2) 0.71004(14) 0.2134(2)
O10_2 O 0.1910(2) 0.70528(12) 0.3386(2)
N1_2 N 0.4128(3) 0.73496(15) 0.4258(3)
N2 N 0.7055(4) 0.7387(2) 0.6750(3)
N3 N 0.7544(4) 0.7384(2) 0.7627(3)
C1_2 C 0.3410(4) 0.84674(17) 0.3147(3)
C2_2 C 0.3379(3) 0.90153(16) 0.3314(3)
C3_2 C 0.2520(4) 0.92370(18) 0.3645(4)
H1_2 H 0.1927 0.9043 0.3728
C4_2 C 0.2536(4) 0.97377(19) 0.3851(4)
H2_2 H 0.1970 0.9881 0.4091
C6_2 C 0.4221(4) 0.98290(19) 0.3365(4)
C7_2 C 0.4222(4) 0.93178(19) 0.3175(3)
H4_2 H 0.4805 0.9180 0.2950
C15_2 C 0.5148(4) 0.75221(19) 0.4365(3)
H9_2 H 0.5416 0.7669 0.3902
C16 C 0.5789(4) 0.74876(19) 0.5121(4)
H10 H 0.6484 0.7617 0.5175
C17 C 0.5426(3) 0.72615(19) 0.5823(3)
C18 C 0.4405(3) 0.70700(18) 0.5709(3)
H11 H 0.4131 0.6911 0.6159
C19_2 C 0.3785(3) 0.71164(17) 0.4915(3)
H12_2 H 0.3097 0.6978 0.4839
C20 C 0.6075(4) 0.7239(2) 0.6670(3)
H13 H 0.5781 0.7119 0.7142
C21 C 0.8518(4) 0.7243(2) 0.7699(3)
H14 H 0.8825 0.7138 0.7224
C22 C 0.9145(4) 0.7251(2) 0.8558(3)
C23 C 0.8777(4) 0.74850(19) 0.9265(4)
H15 H 0.8089 0.7621 0.9223
H19 H 0.0021 0.4118 0.3241
C37_2 C 0.0365(3) 0.65411(16) 0.3139(3)
C38_2 C 0.0495(4) 0.6359(2) 0.3970(4)
H25_2 H 0.1053 0.6477 0.4369
C40_2 C 0.1107(3) 0.69252(14) 0.2869(3)
O8_2 O 0.8263(4) 0.54809(14) 0.3884(4)
C27_2 C 0.8747(4) 0.33959(17) 0.3622(3)
C28_2 C 0.8613(3) 0.39354(16) 0.3643(3)
C29_2 C 0.9409(4) 0.42529(18) 0.3426(4)
C30_2 C 0.9303(4) 0.47689(19) 0.3482(4)
H20_2 H 0.9830 0.4979 0.3317
C31_2 C 0.8435(4) 0.49664(18) 0.3777(4)
C32_2 C 0.7623(4) 0.46638(19) 0.3993(4)
H21_2 H 0.7018 0.4805 0.4181
C33_2 C 0.7715(4) 0.41584(18) 0.3928(4)
H22_2 H 0.7168 0.3954 0.4077
C34_2 C 0.9011(5) 0.5820(2) 0.3633(5)
C35_2 C 0.8895(5) 0.5975(2) 0.2814(5)
H23_2 H 0.8365 0.5835 0.2412
C36_2 C 0.9565(4) 0.6341(2) 0.2573(4)
H24_2 H 0.9467 0.6454 0.2009
C39_2 C 0.9795(5) 0.6000(2) 0.4210(5)
H26_2 H 0.9872 0.5885 0.4773
N2_2 N 0.2945(4) 0.2387(2) 0.8250(3)
N3_2 N 0.2456(4) 0.2384(2) 0.7373(3)
C16_2 C 0.4211(4) 0.24876(19) 0.9879(4)
H10_2 H 0.3516 0.2617 0.9825
C17_2 C 0.4574(3) 0.22615(19) 0.9177(3)
C18_2 C 0.5595(3) 0.20700(18) 0.9291(3)
H11_2 H 0.5869 0.1911 0.8841
C20_2 C 0.3925(4) 0.2239(2) 0.8330(3)
H13_2 H 0.4219 0.2119 0.7858
C21_2 C 0.1482(4) 0.2243(2) 0.7301(3)
H14_2 H 0.1175 0.2138 0.7776
C22_2 C 0.0855(4) 0.2251(2) 0.6442(3)
C23_2 C 0.1223(4) 0.24850(19) 0.5735(4)
H15_2 H 0.1911 0.2621 0.5777
C24 C 0.0534(4) 0.25044(18) 0.4988(4)
H16 H 0.0769 0.2667 0.4524
H19_2 H 0.9979 0.9118 0.1759
C25_2 C 0.0770(3) 0.70768(17) 0.9466(3)
H17_2 H 0.1450 0.6931 0.9542
C26_2 C 0.0169(3) 0.70385(19) 0.8684(3)
H18_2 H 0.0436 0.6873 0.8238
C24_2 C 0.9466(4) 0.75044(18) 0.0012(4)
H16_2 H 0.9231 0.7667 0.0476
N4_2 N 0.0448(3) 0.76906(14) 0.5128(2)
C25_3 C 0.0770(3) 0.79232(17) 0.4466(3)
H17_3 H 0.1450 0.8069 0.4542
C26_3 C 0.0169(3) 0.79615(19) 0.3684(3)
H18_3 H 0.0436 0.8127 0.3238
Zn4 Zn 0.14783(4) 0.756063(19) 0.62231(3)
Zn1_2 Zn 0.30844(4) 0.748023(17) 0.81744(3)
O1_3 O 0.2591(2) 0.67941(11) 0.8301(2)
O2_3 O 0.4195(3) 0.67282(13) 0.7899(2)
O3_3 O 0.3309(3) 0.44730(14) 0.8947(4)
O4_2 O 0.6311(2) 0.28169(13) 0.7744(2)
O5_2 O 0.7331(2) 0.30245(11) 0.8947(2)
O9_3 O 0.0857(2) 0.78996(14) 0.7134(2)
O10_3 O 0.1910(2) 0.79472(12) 0.8386(2)
N1_3 N 0.4128(3) 0.76504(15) 0.9258(3)
C1_3 C 0.3410(4) 0.65326(17) 0.8147(3)
C2_3 C 0.3379(3) 0.59847(16) 0.8314(3)
C3_3 C 0.2520(4) 0.57630(18) 0.8645(4)
H1_3 H 0.1927 0.5957 0.8728
C4_3 C 0.2536(4) 0.52623(19) 0.8851(4)
H2_3 H 0.1970 0.5119 0.9091
C5_3 C 0.3381(4) 0.49802(18) 0.8702(4)
C6_3 C 0.4221(4) 0.51710(19) 0.8365(4)
H3_3 H 0.4790 0.4966 0.8261
C7_3 C 0.4222(4) 0.56822(19) 0.8175(3)
H4_3 H 0.4805 0.5820 0.7950
C8_3 C 0.4140(5) 0.4141(2) 0.8805(5)
C9_3 C 0.4075(5) 0.3884(3) 0.8022(5)
H5_3 H 0.3521 0.3950 0.7580
C10_3 C 0.4839(4) 0.3539(2) 0.7928(4)
H6_3 H 0.4795 0.3360 0.7417
C11_3 C 0.5687(3) 0.34448(15) 0.8569(3)
C12_3 C 0.5742(4) 0.3709(2) 0.9318(4)
H7_3 H 0.6317 0.3654 0.9747
C13_3 C 0.4963(5) 0.4055(2) 0.9452(4)
H8_3 H 0.4998 0.4225 0.9971
C14_3 C 0.6505(3) 0.30670(15) 0.8409(3)
C15_3 C 0.5148(4) 0.74779(19) 0.9365(3)
H9_3 H 0.5416 0.7331 0.8902
C19_3 C 0.3785(3) 0.78836(17) 0.9915(3)
H12_3 H 0.3097 0.8022 0.9839
C37_3 C 0.0365(3) 0.84589(16) 0.8139(3)
C38_3 C 0.0495(4) 0.8641(2) 0.8970(4)
H25_3 H 0.1053 0.8523 0.9369
C40_3 C 0.1107(3) 0.80748(14) 0.7869(3)
Zn3_2 Zn 0.69156(4) 0.248023(17) 0.68256(3)
Zn5 Zn 0.85217(4) 0.256063(19) 0.87769(3)
O11_2 O 0.3689(2) 0.78169(13) 0.7256(2)
O12_2 O 0.2669(2) 0.80245(11) 0.6053(2)
O13_2 O 0.2032(2) 0.68825(11) 0.6187(2)
O14_2 O 0.0419(3) 0.68011(12) 0.6569(2)
O6_2 O 0.7968(2) 0.18825(11) 0.8813(2)
O7_2 O 0.9581(3) 0.18011(12) 0.8431(2)
C27_3 C 0.8747(4) 0.16041(17) 0.8622(3)
C28_3 C 0.8613(3) 0.10646(16) 0.8643(3)
C29_3 C 0.9409(4) 0.07471(18) 0.8426(4)
C30_3 C 0.9303(4) 0.02311(19) 0.8482(4)
H20_3 H 0.9830 0.0021 0.8317
C31_3 C 0.8435(4) 0.00336(18) 0.8777(4)
C32_3 C 0.7623(4) 0.03362(19) 0.8993(4)
H21_3 H 0.7018 0.0195 0.9181
C33_3 C 0.7715(4) 0.08416(18) 0.8928(4)
H22_3 H 0.7168 0.1046 0.9077
O8_3 O 0.1737(4) 0.45191(14) 0.6116(4)
C27_4 C 0.1253(4) 0.66041(17) 0.6378(3)
C28_4 C 0.1387(3) 0.60646(16) 0.6357(3)
C29_4 C 0.0591(4) 0.57471(18) 0.6574(4)
C30_4 C 0.0697(4) 0.52311(19) 0.6518(4)
H20_4 H 0.0170 0.5021 0.6683
C31_4 C 0.1565(4) 0.50336(18) 0.6223(4)
C32_4 C 0.2377(4) 0.53362(19) 0.6007(4)
H21_4 H 0.2982 0.5195 0.5819
C33_4 C 0.2285(4) 0.58416(18) 0.6072(4)
H22_4 H 0.2832 0.6046 0.5923
C34_3 C 0.0989(5) 0.4180(2) 0.6367(5)
C35_3 C 0.1105(5) 0.4025(2) 0.7186(5)
H23_3 H 0.1635 0.4165 0.7588
C36_3 C 0.0435(4) 0.3659(2) 0.7427(4)
H24_3 H 0.0533 0.3546 0.7991
C39_3 C 0.0205(5) 0.4000(2) 0.5790(5)
H26_3 H 0.0128 0.4115 0.5227
O1_4 O 0.7409(2) 0.17941(11) 0.6699(2)
O2_4 O 0.5805(3) 0.17282(13) 0.7101(2)
O9_4 O 0.9143(2) 0.28996(14) 0.7866(2)
O10_4 O 0.8090(2) 0.29472(12) 0.6614(2)
N1_4 N 0.5872(3) 0.26504(15) 0.5742(3)
N2_3 N 0.2945(4) 0.2613(2) 0.3250(3)
N3_3 N 0.2456(4) 0.2616(2) 0.2373(3)
C1_4 C 0.6590(4) 0.15326(17) 0.6853(3)
C2_4 C 0.6621(3) 0.09847(16) 0.6686(3)
C3_4 C 0.7480(4) 0.07630(18) 0.6355(4)
H1_4 H 0.8073 0.0957 0.6272
C4_4 C 0.7464(4) 0.02623(19) 0.6149(4)
H2_4 H 0.8030 0.0119 0.5909
C6_4 C 0.5779(4) 0.01710(19) 0.6635(4)
C7_4 C 0.5778(4) 0.06822(19) 0.6825(3)
H4_4 H 0.5195 0.0820 0.7050
C15_4 C 0.4852(4) 0.24779(19) 0.5635(3)
H9_4 H 0.4584 0.2331 0.6098
C16_3 C 0.4211(4) 0.25124(19) 0.4879(4)
H10_3 H 0.3516 0.2383 0.4825
C17_3 C 0.4574(3) 0.27385(19) 0.4177(3)
C18_3 C 0.5595(3) 0.29300(18) 0.4291(3)
H11_3 H 0.5869 0.3089 0.3841
C19_4 C 0.6215(3) 0.28836(17) 0.5085(3)
H12_4 H 0.6903 0.3022 0.5161
C20_3 C 0.3925(4) 0.2761(2) 0.3330(3)
H13_3 H 0.4219 0.2881 0.2858
C21_3 C 0.1482(4) 0.2757(2) 0.2301(3)
H14_3 H 0.1175 0.2862 0.2776
C22_3 C 0.0855(4) 0.2749(2) 0.1442(3)
C23_3 C 0.1223(4) 0.25150(19) 0.0735(4)
H15_3 H 0.1911 0.2379 0.0777
H19_3 H 0.9979 0.5882 0.6759
C37_4 C 0.9635(3) 0.34589(16) 0.6861(3)
C38_4 C 0.9505(4) 0.3641(2) 0.6030(4)
H25_4 H 0.8947 0.3523 0.5631
C40_4 C 0.8893(3) 0.30748(14) 0.7131(3)
N5_2 N 0.9552(3) 0.26906(14) 0.9872(2)
O3_4 O 0.6691(3) 0.94730(14) 0.6053(4)
C5_4 C 0.6619(4) 0.99802(18) 0.6298(4)
H3_4 H 0.5210 0.9966 0.6739
C8_4 C 0.5860(5) 0.9141(2) 0.6195(5)
C9_4 C 0.5925(5) 0.8884(3) 0.6978(5)
H5_4 H 0.6479 0.8950 0.7420
C10_4 C 0.5161(4) 0.8539(2) 0.7072(4)
H6_4 H 0.5205 0.8360 0.7583
C11_4 C 0.4313(3) 0.84448(15) 0.6431(3)
C12_4 C 0.4258(4) 0.8709(2) 0.5682(4)
H7_4 H 0.3683 0.8654 0.5253
C13_4 C 0.5037(5) 0.9055(2) 0.5548(4)
H8_4 H 0.5002 0.9225 0.5029
C14_4 C 0.3495(3) 0.80670(15) 0.6591(3)
H19_4 H 0.0021 0.0882 0.8241
N2_4 N 0.7055(4) 0.7613(2) 0.1750(3)
N3_4 N 0.7544(4) 0.7616(2) 0.2627(3)
C16_4 C 0.5789(4) 0.75124(19) 0.0121(4)
H10_4 H 0.6484 0.7383 0.0175
C17_4 C 0.5426(3) 0.77385(19) 0.0823(3)
C18_4 C 0.4405(3) 0.79300(18) 0.0709(3)
H11_4 H 0.4131 0.8089 0.1159
C20_4 C 0.6075(4) 0.7761(2) 0.1670(3)
H13_4 H 0.5781 0.7881 0.2142
C21_4 C 0.8518(4) 0.7757(2) 0.2699(3)
H14_4 H 0.8825 0.7862 0.2224
C22_4 C 0.9145(4) 0.7749(2) 0.3558(3)
C23_4 C 0.8777(4) 0.75150(19) 0.4265(4)
H15_4 H 0.8089 0.7379 0.4223
C24_3 C 0.9466(4) 0.74956(18) 0.5012(4)
H16_3 H 0.9231 0.7333 0.5476
O8_4 O 0.8263(4) 0.95191(14) 0.8884(4)
C34_4 C 0.9011(5) 0.9180(2) 0.8633(5)
C35_4 C 0.8895(5) 0.9025(2) 0.7814(5)
H23_4 H 0.8365 0.9165 0.7412
C36_4 C 0.9565(4) 0.8659(2) 0.7573(4)
H24_4 H 0.9467 0.8546 0.7009
C39_4 C 0.9795(5) 0.9000(2) 0.9210(5)
H26_4 H 0.9872 0.9115 0.9773
C24_4 C 0.0534(4) 0.24956(18) 0.9988(4)
H16_4 H 0.0769 0.2333 0.9524
C25_4 C 0.9230(3) 0.29232(17) 0.0534(3)
H17_4 H 0.8550 0.3069 0.0458
C26_4 C 0.9831(3) 0.29615(19) 0.1316(3)
H18_4 H 0.9564 0.3127 0.1762
loop_
_geom_bond_atom_site_label_1
_geom_bond_atom_site_label_2
_geom_bond_site_symmetry_1
_geom_bond_site_symmetry_2
C34 O8 1_555 1_555
C35 C34 1_555 1_555
H23 C35 1_555 1_555
C36 C35 1_555 1_555
H24 C36 1_555 1_555
C39 C34 1_555 1_555
H26 C39 1_555 1_555
O6 C27 1_555 1_555
O7 C27 1_555 1_555
C27 C28 1_555 1_555
C28 C29 1_555 1_555
C30 C29 1_555 1_555
H20 C30 1_555 1_555
C31 C30 1_555 1_555
C32 C31 1_555 1_555
H21 C32 1_555 1_555
C33 C28 1_555 1_555
H22 C33 1_555 1_555
Zn6 O6 1_555 1_555
O7 Zn6 1_555 1_555
C32 C33 1_555 1_555
Zn1 O1 1_555 1_555
Zn2 O9 1_555 1_555
O1 C1 1_555 1_555
O2 Zn1 1_555 1_555
O3 C5 1_555 1_555
O4 C14 1_555 1_555
O5 C14 1_555 1_555
O9 C40 1_555 1_555
O10 Zn1 1_555 1_555
N1 Zn1 1_555 1_555
C1 O2 1_555 1_555
C2 C1 1_555 1_555
C3 C2 1_555 1_555
H1 C3 1_555 1_555
C4 C3 1_555 1_555
H2 C4 1_555 1_555
C5 C4 1_555 1_555
C6 C5 1_555 1_555
H3 C6 1_555 1_555
C7 C2 1_555 1_555
H4 C7 1_555 1_555
C8 O3 1_555 1_555
C9 C8 1_555 1_555
H5 C9 1_555 1_555
C10 C9 1_555 1_555
H6 C10 1_555 1_555
C11 C10 1_555 1_555
C12 C11 1_555 1_555
H7 C12 1_555 1_555
C13 C8 1_555 1_555
H8 C13 1_555 1_555
C14 C11 1_555 1_555
C15 N1 1_555 1_555
H9 C15 1_555 1_555
C19 N1 1_555 1_555
H12 C19 1_555 1_555
C38 C37 1_555 1_555
H25 C38 1_555 1_555
C40 O10 1_555 1_555
Zn3 O4 1_555 1_555
Zn6 O5 1_555 1_555
O11 Zn1 1_555 1_555
O12 Zn2 1_555 1_555
O13 Zn2 1_555 1_555
O14 Zn2 1_555 1_555
N5 Zn2 1_555 1_555
C6 C7 1_555 1_555
C12 C13 1_555 1_555
C37 C40 1_555 1_555
C25 N5 1_555 1_555
H17 C25 1_555 1_555
H18 C26 1_555 1_555
C25 C26 1_555 1_555
Zn6 N4 1_555 1_555
O3_2 C5_2 1_555 1_555
O11 C14_2 1_555 1_555
O12 C14_2 1_555 1_555
C8_2 O3_2 1_555 1_555
C9_2 C8_2 1_555 1_555
H5_2 C9_2 1_555 1_555
C10_2 C9_2 1_555 1_555
H6_2 C10_2 1_555 1_555
C11_2 C10_2 1_555 1_555
C12_2 C11_2 1_555 1_555
H7_2 C12_2 1_555 1_555
C13_2 C8_2 1_555 1_555
H8_2 C13_2 1_555 1_555
C14_2 C11_2 1_555 1_555
C12_2 C13_2 1_555 1_555
Zn3 O1_2 1_555 1_555
Zn6 O9_2 1_555 1_555
O1_2 C1_2 1_555 1_555
O2_2 Zn3 1_555 1_555
O9_2 C40_2 1_555 1_555
O10_2 Zn3 1_555 1_555
N1_2 Zn3 1_555 1_555
N2 N3 1_555 1_555
N3 C21 1_555 1_555
C1_2 O2_2 1_555 1_555
C2_2 C1_2 1_555 1_555
C3_2 C2_2 1_555 1_555
H1_2 C3_2 1_555 1_555
C4_2 C3_2 1_555 1_555
H2_2 C4_2 1_555 1_555
C7_2 C2_2 1_555 1_555
H4_2 C7_2 1_555 1_555
C15_2 N1_2 1_555 1_555
H9_2 C15_2 1_555 1_555
C16 C15_2 1_555 1_555
H10 C16 1_555 1_555
C17 C16 1_555 1_555
C18 C17 1_555 1_555
H11 C18 1_555 1_555
C19_2 N1_2 1_555 1_555
H12_2 C19_2 1_555 1_555
C20 N2 1_555 1_555
H13 C20 1_555 1_555
C21 H14 1_555 1_555
C22 C21 1_555 1_555
C23 C22 1_555 1_555
H15 C23 1_555 1_555
C38_2 C37_2 1_555 1_555
H25_2 C38_2 1_555 1_555
C40_2 O10_2 1_555 1_555
C6_2 C7_2 1_555 1_555
C17 C20 1_555 1_555
C18 C19_2 1_555 1_555
C37_2 C40_2 1_555 1_555
O13 C27_2 1_555 1_555
O14 C27_2 1_555 1_555
O8_2 C31_2 1_555 1_555
C27_2 C28_2 1_555 1_555
C28_2 C29_2 1_555 1_555
C30_2 C29_2 1_555 1_555
H20_2 C30_2 1_555 1_555
C31_2 C30_2 1_555 1_555
C32_2 C31_2 1_555 1_555
H21_2 C32_2 1_555 1_555
C33_2 C28_2 1_555 1_555
H22_2 C33_2 1_555 1_555
C34_2 O8_2 1_555 1_555
C35_2 C34_2 1_555 1_555
H23_2 C35_2 1_555 1_555
C36_2 C35_2 1_555 1_555
H24_2 C36_2 1_555 1_555
C39_2 C34_2 1_555 1_555
H26_2 C39_2 1_555 1_555
C32_2 C33_2 1_555 1_555
N2_2 N3_2 1_555 1_555
N3_2 C21_2 1_555 1_555
H10_2 C16_2 1_555 1_555
C17_2 C16_2 1_555 1_555
C18_2 C17_2 1_555 1_555
H11_2 C18_2 1_555 1_555
C20_2 N2_2 1_555 1_555
H13_2 C20_2 1_555 1_555
C21_2 H14_2 1_555 1_555
C22_2 C21_2 1_555 1_555
C23_2 C22_2 1_555 1_555
H15_2 C23_2 1_555 1_555
C24 C23_2 1_555 1_555
H16 C24 1_555 1_555
C17_2 C20_2 1_555 1_555
H17_2 C25_2 1_555 1_555
H18_2 C26_2 1_555 1_555
C25_2 C26_2 1_555 1_555
H16_2 C24_2 1_555 1_555
C25_3 N4_2 1_555 1_555
H17_3 C25_3 1_555 1_555
H18_3 C26_3 1_555 1_555
Zn4 N4_2 1_555 1_555
C25_3 C26_3 1_555 1_555
Zn1_2 O1_3 1_555 1_555
Zn4 O9_3 1_555 1_555
O1_3 C1_3 1_555 1_555
O2_3 Zn1_2 1_555 1_555
O3_3 C5_3 1_555 1_555
O4_2 C14_3 1_555 1_555
O5_2 C14_3 1_555 1_555
O9_3 C40_3 1_555 1_555
O10_3 Zn1_2 1_555 1_555
N1_3 Zn1_2 1_555 1_555
C1_3 O2_3 1_555 1_555
C2_3 C1_3 1_555 1_555
C3_3 C2_3 1_555 1_555
H1_3 C3_3 1_555 1_555
C4_3 C3_3 1_555 1_555
H2_3 C4_3 1_555 1_555
C5_3 C4_3 1_555 1_555
C6_3 C5_3 1_555 1_555
H3_3 C6_3 1_555 1_555
C7_3 C2_3 1_555 1_555
H4_3 C7_3 1_555 1_555
C8_3 O3_3 1_555 1_555
C9_3 C8_3 1_555 1_555
H5_3 C9_3 1_555 1_555
C10_3 C9_3 1_555 1_555
H6_3 C10_3 1_555 1_555
C11_3 C10_3 1_555 1_555
C12_3 C11_3 1_555 1_555
H7_3 C12_3 1_555 1_555
C13_3 C8_3 1_555 1_555
H8_3 C13_3 1_555 1_555
C14_3 C11_3 1_555 1_555
C15_3 N1_3 1_555 1_555
H9_3 C15_3 1_555 1_555
C19_3 N1_3 1_555 1_555
H12_3 C19_3 1_555 1_555
C38_3 C37_3 1_555 1_555
H25_3 C38_3 1_555 1_555
C40_3 O10_3 1_555 1_555
Zn3_2 O4_2 1_555 1_555
Zn5 O5_2 1_555 1_555
O11_2 Zn1_2 1_555 1_555
O12_2 Zn4 1_555 1_555
O13_2 Zn4 1_555 1_555
O14_2 Zn4 1_555 1_555
C6_3 C7_3 1_555 1_555
C12_3 C13_3 1_555 1_555
C37_3 C40_3 1_555 1_555
O6_2 C27_3 1_555 1_555
O7_2 C27_3 1_555 1_555
C27_3 C28_3 1_555 1_555
C28_3 C29_3 1_555 1_555
C30_3 C29_3 1_555 1_555
H20_3 C30_3 1_555 1_555
C31_3 C30_3 1_555 1_555
C32_3 C31_3 1_555 1_555
H21_3 C32_3 1_555 1_555
C33_3 C28_3 1_555 1_555
H22_3 C33_3 1_555 1_555
Zn5 O6_2 1_555 1_555
O7_2 Zn5 1_555 1_555
C32_3 C33_3 1_555 1_555
O13_2 C27_4 1_555 1_555
O14_2 C27_4 1_555 1_555
O8_3 C31_4 1_555 1_555
C27_4 C28_4 1_555 1_555
C28_4 C29_4 1_555 1_555
C30_4 C29_4 1_555 1_555
H20_4 C30_4 1_555 1_555
C31_4 C30_4 1_555 1_555
C32_4 C31_4 1_555 1_555
H21_4 C32_4 1_555 1_555
C33_4 C28_4 1_555 1_555
H22_4 C33_4 1_555 1_555
C34_3 O8_3 1_555 1_555
C35_3 C34_3 1_555 1_555
H23_3 C35_3 1_555 1_555
C36_3 C35_3 1_555 1_555
H24_3 C36_3 1_555 1_555
C39_3 C34_3 1_555 1_555
H26_3 C39_3 1_555 1_555
C32_4 C33_4 1_555 1_555
Zn3_2 O1_4 1_555 1_555
Zn5 O9_4 1_555 1_555
O1_4 C1_4 1_555 1_555
O2_4 Zn3_2 1_555 1_555
O9_4 C40_4 1_555 1_555
O10_4 Zn3_2 1_555 1_555
N1_4 Zn3_2 1_555 1_555
N2_3 N3_3 1_555 1_555
N3_3 C21_3 1_555 1_555
C1_4 O2_4 1_555 1_555
C2_4 C1_4 1_555 1_555
C3_4 C2_4 1_555 1_555
H1_4 C3_4 1_555 1_555
C4_4 C3_4 1_555 1_555
H2_4 C4_4 1_555 1_555
C7_4 C2_4 1_555 1_555
H4_4 C7_4 1_555 1_555
C15_4 N1_4 1_555 1_555
H9_4 C15_4 1_555 1_555
C16_3 C15_4 1_555 1_555
H10_3 C16_3 1_555 1_555
C17_3 C16_3 1_555 1_555
C18_3 C17_3 1_555 1_555
H11_3 C18_3 1_555 1_555
C19_4 N1_4 1_555 1_555
H12_4 C19_4 1_555 1_555
C20_3 N2_3 1_555 1_555
H13_3 C20_3 1_555 1_555
C21_3 H14_3 1_555 1_555
C22_3 C21_3 1_555 1_555
C23_3 C22_3 1_555 1_555
H15_3 C23_3 1_555 1_555
C38_4 C37_4 1_555 1_555
H25_4 C38_4 1_555 1_555
C40_4 O10_4 1_555 1_555
N5_2 Zn5 1_555 1_555
C6_4 C7_4 1_555 1_555
C17_3 C20_3 1_555 1_555
C18_3 C19_4 1_555 1_555
C37_4 C40_4 1_555 1_555
O3_4 C5_4 1_555 1_555
O11_2 C14_4 1_555 1_555
O12_2 C14_4 1_555 1_555
C8_4 O3_4 1_555 1_555
C9_4 C8_4 1_555 1_555
H5_4 C9_4 1_555 1_555
C10_4 C9_4 1_555 1_555
H6_4 C10_4 1_555 1_555
C11_4 C10_4 1_555 1_555
C12_4 C11_4 1_555 1_555
H7_4 C12_4 1_555 1_555
C13_4 C8_4 1_555 1_555
H8_4 C13_4 1_555 1_555
C14_4 C11_4 1_555 1_555
C12_4 C13_4 1_555 1_555
N2_4 N3_4 1_555 1_555
N3_4 C21_4 1_555 1_555
H10_4 C16_4 1_555 1_555
C17_4 C16_4 1_555 1_555
C18_4 C17_4 1_555 1_555
H11_4 C18_4 1_555 1_555
C20_4 N2_4 1_555 1_555
H13_4 C20_4 1_555 1_555
C21_4 H14_4 1_555 1_555
C22_4 C21_4 1_555 1_555
C23_4 C22_4 1_555 1_555
H15_4 C23_4 1_555 1_555
C24_3 C23_4 1_555 1_555
H16_3 C24_3 1_555 1_555
C17_4 C20_4 1_555 1_555
C34_4 O8_4 1_555 1_555
C35_4 C34_4 1_555 1_555
H23_4 C35_4 1_555 1_555
C36_4 C35_4 1_555 1_555
H24_4 C36_4 1_555 1_555
C39_4 C34_4 1_555 1_555
H26_4 C39_4 1_555 1_555
H16_4 C24_4 1_555 1_555
H17_4 C25_4 1_555 1_555
H18_4 C26_4 1_555 1_555
C25_4 C26_4 1_555 1_555

#END
