
###############################################################################
#
# This file contains modified crystal structure data generated from the
# MOF subset of the Cambridge Structural Database (CSD) v543 
# hosted by the Cambridge Crystallographic Data Centre (CCDC).
#
# This work is licensed under the Creative Commons
# Attribution-NonCommercial-ShareAlike 4.0 International License.
# To view a copy of this license, visit
# http://creativecommons.org/licenses/by-nc-sa/4.0/
# or send a letter to
# Creative Commons, PO Box 1866, Mountain View, CA 94042, USA.
#
# CIF created using the CSD Python API on 29 September 2022
# The structure has been converted into the P1 space group
# The structure has a 3D framework
# The original CSD entry XOFYUO is in the monoclinic crystal system
# The framework has been calculated to contain at least 10.0% void space
# The void calculation uses a probe of radius 1.32A, grid spacing 0.4
#
###############################################################################

data_XOFYUO
_chemical_formula_moiety         '(C168 H120 N16 O38 Zn7)n'
_symmetry_cell_setting           triclinic
_symmetry_space_group_name_H-M   'P 1'
_symmetry_Int_Tables_number      1
_space_group_name_Hall           'P 1'
loop_
_symmetry_equiv_pos_site_id
_symmetry_equiv_pos_as_xyz
1 x,y,z
_cell_length_a                   26.8080(14)
_cell_length_b                   8.1923(5)
_cell_length_c                   23.3025(16)
_cell_angle_alpha                90
_cell_angle_beta                 98.956(7)
_cell_angle_gamma                90
_cell_volume                     5055.28
loop_
_atom_site_label
_atom_site_type_symbol
_atom_site_fract_x
_atom_site_fract_y
_atom_site_fract_z
Zn6 Zn 0.45956(3) 0.12163(11) 0.49840(5)
Zn2 Zn 0.54044(3) 0.12163(11) 0.00160(5)
O6 O 0.4237(2) 0.0496(7) 0.0412(3)
O7 O 0.4856(2) 0.2323(7) 0.0405(3)
O8 O 0.3505(3) 0.6120(9) 0.1937(3)
O9 O 0.4384(2) 0.9943(7) 0.4233(3)
O10 O 0.5012(2) 0.8098(7) 0.4240(2)
C29 C 0.4446(4) 0.1883(10) 0.0527(4)
C30 C 0.4170(3) 0.2979(10) 0.0877(4)
C31 C 0.3747(3) 0.2539(11) 0.1117(4)
H23 H 0.3602 0.1490 0.1036
C32 C 0.3531(4) 0.3605(12) 0.1472(5)
H24 H 0.3236 0.3295 0.1625
C33 C 0.3740(4) 0.5063(13) 0.1597(4)
C34 C 0.4144(4) 0.5631(12) 0.1344(5)
H25 H 0.4262 0.6719 0.1405
C35 C 0.4362(3) 0.4595(11) 0.1009(4)
H26 H 0.4653 0.4944 0.0856
C36 C 0.3800(3) 0.6738(13) 0.2438(4)
C37 C 0.3620(3) 0.8160(14) 0.2665(4)
H27 H 0.3325 0.8681 0.2471
C38 C 0.3874(4) 0.8790(13) 0.3166(5)
H28 H 0.3747 0.9746 0.3324
C39 C 0.4322(3) 0.8059(11) 0.3461(4)
C40 C 0.4479(3) 0.6664(11) 0.3218(4)
H29 H 0.4773 0.6132 0.3412
C41 C 0.4239(4) 0.5995(11) 0.2714(4)
H30 H 0.4369 0.5045 0.2555
C42 C 0.4605(4) 0.8765(11) 0.4017(5)
Zn4 Zn 0.54044(3) 0.87837(11) 0.50160(5)
N5 N 0.5947(2) 0.2962(8) 0.0177(3)
O11 O 0.4384(2) 0.0057(7) 0.9233(3)
O13 O 0.5012(2) 0.1902(7) 0.9240(2)
N2 N 0.2654(3) 0.3177(8) 0.0001(4)
C15 C 0.3630(3) 0.7105(10) 0.0086(4)
H9 H 0.3579 0.8047 0.0308
C16 C 0.3281(3) 0.5899(11) 0.0046(4)
H10 H 0.2993 0.6003 0.0235
C24 C 0.1649(3) 0.0523(10) 0.0281(4)
C25 C 0.1216(3) 0.0534(12) 0.0549(4)
H18 H 0.1150 0.1449 0.0776
C27 C 0.1983(3) 0.1936(11) 0.0307(4)
C28 C 0.1918(4) 0.3387(11) 0.0664(6)
H20 H 0.1923 0.3056 0.1069
H21 H 0.2193 0.4161 0.0641
H22 H 0.1594 0.3909 0.0518
O12 O 0.5616(2) 0.9943(7) 0.0767(3)
O14 O 0.4988(2) 0.8098(7) 0.0760(2)
Zn1 Zn 0.45956(3) 0.87837(11) 0.99840(5)
O1 O 0.5763(2) 0.9504(7) 0.9588(3)
O2 O 0.5144(2) 0.7677(7) 0.9595(3)
O3 O 0.6495(3) 0.3880(9) 0.8063(3)
O4 O 0.5616(2) 0.0057(7) 0.5767(3)
O5 O 0.4988(2) 0.1902(7) 0.5760(2)
N1 N 0.4053(2) 0.7038(8) 0.9823(3)
C1 C 0.5554(4) 0.8117(10) 0.9473(4)
C2 C 0.5830(3) 0.7021(10) 0.9123(4)
C3 C 0.6253(3) 0.7461(11) 0.8883(4)
H1 H 0.6398 0.8510 0.8964
C4 C 0.6469(4) 0.6395(12) 0.8528(5)
H2 H 0.6764 0.6705 0.8375
C5 C 0.6260(4) 0.4937(13) 0.8403(4)
C6 C 0.5856(4) 0.4369(12) 0.8656(5)
H3 H 0.5738 0.3281 0.8595
C7 C 0.5638(3) 0.5405(11) 0.8991(4)
H4 H 0.5347 0.5056 0.9144
C8 C 0.6200(3) 0.3262(13) 0.7562(4)
C9 C 0.6380(3) 0.1840(14) 0.7335(4)
H5 H 0.6675 0.1319 0.7529
C10 C 0.6126(4) 0.1210(13) 0.6834(5)
H6 H 0.6253 0.0254 0.6676
C11 C 0.5678(3) 0.1941(11) 0.6539(4)
C12 C 0.5521(3) 0.3336(11) 0.6782(4)
H7 H 0.5227 0.3868 0.6588
C13 C 0.5761(4) 0.4005(11) 0.7286(4)
H8 H 0.5631 0.4955 0.7445
C14 C 0.5395(4) 0.1235(11) 0.5983(5)
C17 C 0.3351(3) 0.4477(10) 0.9719(4)
C18 C 0.3784(3) 0.4466(12) 0.9451(4)
H11 H 0.3850 0.3551 0.9224
C19 C 0.4108(3) 0.5733(11) 0.9510(4)
H12 H 0.4393 0.5682 0.9313
C20 C 0.3017(3) 0.3064(11) 0.9693(4)
C21 C 0.3082(4) 0.1613(11) 0.9336(6)
H13 H 0.3077 0.1944 0.8931
H14 H 0.2807 0.0839 0.9359
H15 H 0.3406 0.1091 0.9482
N4 N 0.2346(3) 0.1823(8) 0.9999(4)
C22 C 0.1370(3) 0.7895(10) 0.9914(4)
H16 H 0.1421 0.6953 0.9692
C23 C 0.1719(3) 0.9101(11) 0.9954(4)
H17 H 0.2007 0.8997 0.9765
O6_2 O 0.5763(2) 0.0496(7) 0.4588(3)
O7_2 O 0.5144(2) 0.2323(7) 0.4595(3)
O8_2 O 0.6495(3) 0.6120(9) 0.3063(3)
C29_2 C 0.5554(4) 0.1883(10) 0.4473(4)
C30_2 C 0.5830(3) 0.2979(10) 0.4123(4)
C31_2 C 0.6253(3) 0.2539(11) 0.3883(4)
H23_2 H 0.6398 0.1490 0.3964
C32_2 C 0.6469(4) 0.3605(12) 0.3528(5)
H24_2 H 0.6764 0.3295 0.3375
C33_2 C 0.6260(4) 0.5063(13) 0.3403(4)
C34_2 C 0.5856(4) 0.5631(12) 0.3656(5)
H25_2 H 0.5738 0.6719 0.3595
C35_2 C 0.5638(3) 0.4595(11) 0.3991(4)
H26_2 H 0.5347 0.4944 0.4144
C36_2 C 0.6200(3) 0.6738(13) 0.2562(4)
C37_2 C 0.6380(3) 0.8160(14) 0.2335(4)
H27_2 H 0.6675 0.8681 0.2529
C38_2 C 0.6126(4) 0.8790(13) 0.1834(5)
H28_2 H 0.6253 0.9746 0.1676
C39_2 C 0.5678(3) 0.8059(11) 0.1539(4)
C40_2 C 0.5521(3) 0.6664(11) 0.1782(4)
H29_2 H 0.5227 0.6132 0.1588
C41_2 C 0.5761(4) 0.5995(11) 0.2286(4)
H30_2 H 0.5631 0.5045 0.2445
C42_2 C 0.5395(4) 0.8765(11) 0.0983(5)
N5_2 N 0.4053(2) 0.2962(8) 0.4823(3)
O1_2 O 0.4237(2) 0.9504(7) 0.5412(3)
O2_2 O 0.4856(2) 0.7677(7) 0.5405(3)
O3_2 O 0.3505(3) 0.3880(9) 0.6937(3)
N1_2 N 0.5947(2) 0.7038(8) 0.5177(3)
N2_2 N 0.7346(3) 0.3177(8) 0.4999(4)
C1_2 C 0.4446(4) 0.8117(10) 0.5527(4)
C2_2 C 0.4170(3) 0.7021(10) 0.5877(4)
C3_2 C 0.3747(3) 0.7461(11) 0.6117(4)
H1_2 H 0.3602 0.8510 0.6036
C4_2 C 0.3531(4) 0.6395(12) 0.6472(5)
H2_2 H 0.3236 0.6705 0.6625
C5_2 C 0.3740(4) 0.4937(13) 0.6597(4)
C6_2 C 0.4144(4) 0.4369(12) 0.6344(5)
H3_2 H 0.4262 0.3281 0.6405
C7_2 C 0.4362(3) 0.5405(11) 0.6009(4)
H4_2 H 0.4653 0.5056 0.5856
C8_2 C 0.3800(3) 0.3262(13) 0.7438(4)
C9_2 C 0.3620(3) 0.1840(14) 0.7665(4)
H5_2 H 0.3325 0.1319 0.7471
C10_2 C 0.3874(4) 0.1210(13) 0.8166(5)
H6_2 H 0.3747 0.0254 0.8324
C11_2 C 0.4322(3) 0.1941(11) 0.8461(4)
C12_2 C 0.4479(3) 0.3336(11) 0.8218(4)
H7_2 H 0.4773 0.3868 0.8412
C13_2 C 0.4239(4) 0.4005(11) 0.7714(4)
H8_2 H 0.4369 0.4955 0.7555
C14_2 C 0.4605(4) 0.1235(11) 0.9017(5)
C15_2 C 0.6370(3) 0.7105(10) 0.4914(4)
H9_2 H 0.6421 0.8047 0.4692
C16_2 C 0.6719(3) 0.5899(11) 0.4954(4)
H10_2 H 0.7007 0.6003 0.4765
C17_2 C 0.6649(3) 0.4477(10) 0.5281(4)
C18_2 C 0.6216(3) 0.4466(12) 0.5549(4)
H11_2 H 0.6150 0.3551 0.5776
C19_2 C 0.5892(3) 0.5733(11) 0.5490(4)
H12_2 H 0.5607 0.5682 0.5687
C20_2 C 0.6983(3) 0.3064(11) 0.5307(4)
C21_2 C 0.6918(4) 0.1613(11) 0.5664(6)
H13_2 H 0.6923 0.1944 0.6069
H14_2 H 0.7193 0.0839 0.5641
H15_2 H 0.6594 0.1091 0.5518
N4_2 N 0.7654(3) 0.1823(8) 0.5001(4)
C24_2 C 0.8351(3) 0.0523(10) 0.4719(4)
C25_2 C 0.8784(3) 0.0534(12) 0.4451(4)
H18_2 H 0.8850 0.1449 0.4224
C27_2 C 0.8017(3) 0.1936(11) 0.4693(4)
C28_2 C 0.8082(4) 0.3387(11) 0.4336(6)
H20_2 H 0.8077 0.3056 0.3931
H21_2 H 0.7807 0.4161 0.4359
H22_2 H 0.8406 0.3909 0.4482
N3 N 0.9053(2) 0.7962(8) 0.4823(3)
C22_2 C 0.8630(3) 0.7895(10) 0.5086(4)
H16_2 H 0.8579 0.6953 0.5308
C23_2 C 0.8281(3) 0.9101(11) 0.5046(4)
H17_2 H 0.7993 0.8997 0.5235
C26 C 0.9108(3) 0.9267(11) 0.4510(4)
H19 H 0.9393 0.9318 0.4313
Zn7 Zn 0.95956(3) 0.62163(11) 0.49840(5)
O10_2 O 0.0012(2) 0.3098(7) 0.4240(2)
Zn4_2 Zn 0.04044(3) 0.37837(11) 0.50160(5)
O1_3 O 0.0763(2) 0.4504(7) 0.9588(3)
O2_3 O 0.0144(2) 0.2677(7) 0.9595(3)
C1_3 C 0.0554(4) 0.3117(10) 0.9473(4)
C2_3 C 0.0830(3) 0.2021(10) 0.9123(4)
C3_3 C 0.1253(3) 0.2461(11) 0.8883(4)
H1_3 H 0.1398 0.3510 0.8964
C4_3 C 0.1469(4) 0.1395(12) 0.8528(5)
H2_3 H 0.1764 0.1705 0.8375
C7_3 C 0.0638(3) 0.0405(11) 0.8991(4)
H4_3 H 0.0347 0.0056 0.9144
O13_2 O 0.0012(2) 0.6902(7) 0.9240(2)
O3_3 O 0.1495(3) 0.8880(9) 0.8063(3)
O4_2 O 0.0616(2) 0.5057(7) 0.5767(3)
C5_3 C 0.1260(4) 0.9937(13) 0.8403(4)
C6_3 C 0.0856(4) 0.9369(12) 0.8656(5)
H3_3 H 0.0738 0.8281 0.8595
C8_3 C 0.1200(3) 0.8262(13) 0.7562(4)
C9_3 C 0.1380(3) 0.6840(14) 0.7335(4)
H5_3 H 0.1675 0.6319 0.7529
C10_3 C 0.1126(4) 0.6210(13) 0.6834(5)
H6_3 H 0.1253 0.5254 0.6676
C11_3 C 0.0678(3) 0.6941(11) 0.6539(4)
C12_3 C 0.0521(3) 0.8336(11) 0.6782(4)
H7_3 H 0.0227 0.8868 0.6588
C13_3 C 0.0761(4) 0.9005(11) 0.7286(4)
H8_3 H 0.0631 0.9955 0.7445
C14_3 C 0.0395(4) 0.6235(11) 0.5983(5)
O8_3 O 0.8505(3) 0.1120(9) 0.1937(3)
O9_2 O 0.9384(2) 0.4943(7) 0.4233(3)
C33_3 C 0.8740(4) 0.0063(13) 0.1597(4)
C34_3 C 0.9144(4) 0.0631(12) 0.1344(5)
H25_3 H 0.9262 0.1719 0.1405
C36_3 C 0.8800(3) 0.1738(13) 0.2438(4)
C37_3 C 0.8620(3) 0.3160(14) 0.2665(4)
H27_3 H 0.8325 0.3681 0.2471
C38_3 C 0.8874(4) 0.3790(13) 0.3166(5)
H28_3 H 0.8747 0.4746 0.3324
C39_3 C 0.9322(3) 0.3059(11) 0.3461(4)
C40_3 C 0.9479(3) 0.1664(11) 0.3218(4)
H29_3 H 0.9773 0.1132 0.3412
C41_3 C 0.9239(4) 0.0995(11) 0.2714(4)
H30_3 H 0.9369 0.0045 0.2555
C42_3 C 0.9605(4) 0.3765(11) 0.4017(5)
C15_3 C 0.8630(3) 0.2105(10) 0.0086(4)
H9_3 H 0.8579 0.3047 0.0308
C16_3 C 0.8281(3) 0.0899(11) 0.0046(4)
H10_3 H 0.7993 0.1003 0.0235
O6_3 O 0.9237(2) 0.5496(7) 0.0412(3)
O7_3 O 0.9856(2) 0.7323(7) 0.0405(3)
C29_3 C 0.9446(4) 0.6883(10) 0.0527(4)
C30_3 C 0.9170(3) 0.7979(10) 0.0877(4)
C31_3 C 0.8747(3) 0.7539(11) 0.1117(4)
H23_3 H 0.8602 0.6490 0.1036
C32_3 C 0.8531(4) 0.8605(12) 0.1472(5)
H24_3 H 0.8236 0.8295 0.1625
C35_3 C 0.9362(3) 0.9595(11) 0.1009(4)
H26_3 H 0.9653 0.9944 0.0856
O14_2 O 0.9988(2) 0.3098(7) 0.0760(2)
N2_3 N 0.7654(3) 0.8177(8) 0.0001(4)
C24_3 C 0.6649(3) 0.5523(10) 0.0281(4)
C25_3 C 0.6216(3) 0.5534(12) 0.0549(4)
H18_3 H 0.6150 0.6449 0.0776
C26_2 C 0.5892(3) 0.4267(11) 0.0490(4)
H19_2 H 0.5607 0.4318 0.0687
C27_3 C 0.6983(3) 0.6936(11) 0.0307(4)
C28_3 C 0.6918(4) 0.8387(11) 0.0664(6)
H20_3 H 0.6923 0.8056 0.1069
H21_3 H 0.7193 0.9161 0.0641
H22_3 H 0.6594 0.8909 0.0518
O5_2 O 0.9988(2) 0.6902(7) 0.5760(2)
C17_3 C 0.8351(3) 0.9477(10) 0.9719(4)
C18_3 C 0.8784(3) 0.9466(12) 0.9451(4)
H11_3 H 0.8850 0.8551 0.9224
C20_3 C 0.8017(3) 0.8064(11) 0.9693(4)
C21_3 C 0.8082(4) 0.6613(11) 0.9336(6)
H13_3 H 0.8077 0.6944 0.8931
H14_3 H 0.7807 0.5839 0.9359
H15_3 H 0.8406 0.6091 0.9482
N4_3 N 0.7346(3) 0.6823(8) 0.9999(4)
C22_3 C 0.6370(3) 0.2895(10) 0.9914(4)
H16_3 H 0.6421 0.1953 0.9692
C23_3 C 0.6719(3) 0.4101(11) 0.9954(4)
H17_3 H 0.7007 0.3997 0.9765
N1_3 N 0.0947(2) 0.2038(8) 0.5177(3)
C15_4 C 0.1370(3) 0.2105(10) 0.4914(4)
H9_4 H 0.1421 0.3047 0.4692
C16_4 C 0.1719(3) 0.0899(11) 0.4954(4)
H10_4 H 0.2007 0.1003 0.4765
C19_3 C 0.0892(3) 0.0733(11) 0.5490(4)
H12_3 H 0.0607 0.0682 0.5687
O6_4 O 0.0763(2) 0.5496(7) 0.4588(3)
O7_4 O 0.0144(2) 0.7323(7) 0.4595(3)
C29_4 C 0.0554(4) 0.6883(10) 0.4473(4)
C30_4 C 0.0830(3) 0.7979(10) 0.4123(4)
C31_4 C 0.1253(3) 0.7539(11) 0.3883(4)
H23_4 H 0.1398 0.6490 0.3964
C32_4 C 0.1469(4) 0.8605(12) 0.3528(5)
H24_4 H 0.1764 0.8295 0.3375
C35_4 C 0.0638(3) 0.9595(11) 0.3991(4)
H26_4 H 0.0347 0.9944 0.4144
N2_4 N 0.2346(3) 0.8177(8) 0.4999(4)
C17_4 C 0.1649(3) 0.9477(10) 0.5281(4)
C18_4 C 0.1216(3) 0.9466(12) 0.5549(4)
H11_4 H 0.1150 0.8551 0.5776
C20_4 C 0.1983(3) 0.8064(11) 0.5307(4)
C21_4 C 0.1918(4) 0.6613(11) 0.5664(6)
H13_4 H 0.1923 0.6944 0.6069
H14_4 H 0.2193 0.5839 0.5641
H15_4 H 0.1594 0.6091 0.5518
N4_4 N 0.2654(3) 0.6823(8) 0.5001(4)
C22_4 C 0.3630(3) 0.2895(10) 0.5086(4)
H16_4 H 0.3579 0.1953 0.5308
C23_4 C 0.3281(3) 0.4101(11) 0.5046(4)
H17_4 H 0.2993 0.3997 0.5235
C24_4 C 0.3351(3) 0.5523(10) 0.4719(4)
C25_4 C 0.3784(3) 0.5534(12) 0.4451(4)
H18_4 H 0.3850 0.6449 0.4224
C26_3 C 0.4108(3) 0.4267(11) 0.4510(4)
H19_3 H 0.4393 0.4318 0.4313
C27_4 C 0.3017(3) 0.6936(11) 0.4693(4)
C28_4 C 0.3082(4) 0.8387(11) 0.4336(6)
H20_4 H 0.3077 0.8056 0.3931
H21_4 H 0.2807 0.9161 0.4359
H22_4 H 0.3406 0.8909 0.4482
O1_4 O 0.9237(2) 0.4504(7) 0.5412(3)
O2_4 O 0.9856(2) 0.2677(7) 0.5405(3)
C1_4 C 0.9446(4) 0.3117(10) 0.5527(4)
C2_4 C 0.9170(3) 0.2021(10) 0.5877(4)
C3_4 C 0.8747(3) 0.2461(11) 0.6117(4)
H1_4 H 0.8602 0.3510 0.6036
C4_4 C 0.8531(4) 0.1395(12) 0.6472(5)
H2_4 H 0.8236 0.1705 0.6625
C7_4 C 0.9362(3) 0.0405(11) 0.6009(4)
H4_4 H 0.9653 0.0056 0.5856
N3_2 N 0.0947(2) 0.7962(8) 0.0177(3)
C26_4 C 0.0892(3) 0.9267(11) 0.0490(4)
H19_4 H 0.0607 0.9318 0.0687
Zn7_2 Zn 0.04044(3) 0.62163(11) 0.00160(5)
O12_2 O 0.0616(2) 0.4943(7) 0.0767(3)
O8_4 O 0.1495(3) 0.1120(9) 0.3063(3)
C33_4 C 0.1260(4) 0.0063(13) 0.3403(4)
C34_4 C 0.0856(4) 0.0631(12) 0.3656(5)
H25_4 H 0.0738 0.1719 0.3595
C36_4 C 0.1200(3) 0.1738(13) 0.2562(4)
C37_4 C 0.1380(3) 0.3160(14) 0.2335(4)
H27_4 H 0.1675 0.3681 0.2529
C38_4 C 0.1126(4) 0.3790(13) 0.1834(5)
H28_4 H 0.1253 0.4746 0.1676
C39_4 C 0.0678(3) 0.3059(11) 0.1539(4)
C40_4 C 0.0521(3) 0.1664(11) 0.1782(4)
H29_4 H 0.0227 0.1132 0.1588
C41_4 C 0.0761(4) 0.0995(11) 0.2286(4)
H30_4 H 0.0631 0.0045 0.2445
C42_4 C 0.0395(4) 0.3765(11) 0.0983(5)
Zn1_2 Zn 0.95956(3) 0.37837(11) 0.99840(5)
N1_4 N 0.9053(2) 0.2038(8) 0.9823(3)
C19_4 C 0.9108(3) 0.0733(11) 0.9510(4)
H12_4 H 0.9393 0.0682 0.9313
O11_2 O 0.9384(2) 0.5057(7) 0.9233(3)
O3_4 O 0.8505(3) 0.8880(9) 0.6937(3)
C5_4 C 0.8740(4) 0.9937(13) 0.6597(4)
C6_4 C 0.9144(4) 0.9369(12) 0.6344(5)
H3_4 H 0.9262 0.8281 0.6405
C8_4 C 0.8800(3) 0.8262(13) 0.7438(4)
C9_4 C 0.8620(3) 0.6840(14) 0.7665(4)
H5_4 H 0.8325 0.6319 0.7471
C10_4 C 0.8874(4) 0.6210(13) 0.8166(5)
H6_4 H 0.8747 0.5254 0.8324
C11_4 C 0.9322(3) 0.6941(11) 0.8461(4)
C12_4 C 0.9479(3) 0.8336(11) 0.8218(4)
H7_4 H 0.9773 0.8868 0.8412
C13_4 C 0.9239(4) 0.9005(11) 0.7714(4)
H8_4 H 0.9369 0.9955 0.7555
C14_4 C 0.9605(4) 0.6235(11) 0.9017(5)
loop_
_geom_bond_atom_site_label_1
_geom_bond_atom_site_label_2
_geom_bond_site_symmetry_1
_geom_bond_site_symmetry_2
O7 Zn2 1_555 1_555
O8 C33 1_555 1_555
O9 C42 1_555 1_555
O10 C42 1_555 1_555
C29 O6 1_555 1_555
C30 C29 1_555 1_555
C31 C30 1_555 1_555
H23 C31 1_555 1_555
C32 C31 1_555 1_555
H24 C32 1_555 1_555
C33 C32 1_555 1_555
C34 C33 1_555 1_555
H25 C34 1_555 1_555
C35 C30 1_555 1_555
H26 C35 1_555 1_555
C36 O8 1_555 1_555
C37 C36 1_555 1_555
H27 C37 1_555 1_555
C38 C37 1_555 1_555
H28 C38 1_555 1_555
C39 C38 1_555 1_555
C40 C39 1_555 1_555
H29 C40 1_555 1_555
C41 C36 1_555 1_555
H30 C41 1_555 1_555
C42 C39 1_555 1_555
Zn4 O10 1_555 1_555
N5 Zn2 1_555 1_555
O7 C29 1_555 1_555
C34 C35 1_555 1_555
C40 C41 1_555 1_555
H9 C15 1_555 1_555
C16 C15 1_555 1_555
H10 C16 1_555 1_555
C25 C24 1_555 1_555
H18 C25 1_555 1_555
C28 C27 1_555 1_555
H20 C28 1_555 1_555
H21 C28 1_555 1_555
H22 C28 1_555 1_555
C24 C27 1_555 1_555
Zn1 O2 1_555 1_555
O1 C1 1_555 1_555
O2 C1 1_555 1_555
O3 C5 1_555 1_555
O4 C14 1_555 1_555
O5 C14 1_555 1_555
N1 Zn1 1_555 1_555
C1 C2 1_555 1_555
C2 C3 1_555 1_555
C3 H1 1_555 1_555
C4 C3 1_555 1_555
H2 C4 1_555 1_555
C5 C4 1_555 1_555
C6 C5 1_555 1_555
H3 C6 1_555 1_555
C7 C2 1_555 1_555
H4 C7 1_555 1_555
C8 O3 1_555 1_555
C9 C8 1_555 1_555
H5 C9 1_555 1_555
C10 C9 1_555 1_555
H6 C10 1_555 1_555
C11 C10 1_555 1_555
C12 C11 1_555 1_555
H7 C12 1_555 1_555
C13 C8 1_555 1_555
H8 C13 1_555 1_555
C14 C11 1_555 1_555
C18 C17 1_555 1_555
H11 C18 1_555 1_555
C19 N1 1_555 1_555
H12 C19 1_555 1_555
C20 C17 1_555 1_555
C21 C20 1_555 1_555
H13 C21 1_555 1_555
H14 C21 1_555 1_555
H15 C21 1_555 1_555
Zn6 O5 1_555 1_555
C6 C7 1_555 1_555
C12 C13 1_555 1_555
C18 C19 1_555 1_555
C22 H16 1_555 1_555
C23 C22 1_555 1_555
H17 C23 1_555 1_555
O7_2 Zn6 1_555 1_555
O8_2 C33_2 1_555 1_555
O12 C42_2 1_555 1_555
O14 C42_2 1_555 1_555
C29_2 O6_2 1_555 1_555
C30_2 C29_2 1_555 1_555
C31_2 C30_2 1_555 1_555
H23_2 C31_2 1_555 1_555
C32_2 C31_2 1_555 1_555
H24_2 C32_2 1_555 1_555
C33_2 C32_2 1_555 1_555
C34_2 C33_2 1_555 1_555
H25_2 C34_2 1_555 1_555
C35_2 C30_2 1_555 1_555
H26_2 C35_2 1_555 1_555
C36_2 O8_2 1_555 1_555
C37_2 C36_2 1_555 1_555
H27_2 C37_2 1_555 1_555
C38_2 C37_2 1_555 1_555
H28_2 C38_2 1_555 1_555
C39_2 C38_2 1_555 1_555
C40_2 C39_2 1_555 1_555
H29_2 C40_2 1_555 1_555
C41_2 C36_2 1_555 1_555
H30_2 C41_2 1_555 1_555
C42_2 C39_2 1_555 1_555
N5_2 Zn6 1_555 1_555
O7_2 C29_2 1_555 1_555
C34_2 C35_2 1_555 1_555
C40_2 C41_2 1_555 1_555
Zn4 O2_2 1_555 1_555
O1_2 C1_2 1_555 1_555
O2_2 C1_2 1_555 1_555
O3_2 C5_2 1_555 1_555
O11 C14_2 1_555 1_555
O13 C14_2 1_555 1_555
N1_2 Zn4 1_555 1_555
N2_2 C20_2 1_555 1_555
C1_2 C2_2 1_555 1_555
C2_2 C3_2 1_555 1_555
C3_2 H1_2 1_555 1_555
C4_2 C3_2 1_555 1_555
H2_2 C4_2 1_555 1_555
C5_2 C4_2 1_555 1_555
C6_2 C5_2 1_555 1_555
H3_2 C6_2 1_555 1_555
C7_2 C2_2 1_555 1_555
H4_2 C7_2 1_555 1_555
C8_2 O3_2 1_555 1_555
C9_2 C8_2 1_555 1_555
H5_2 C9_2 1_555 1_555
C10_2 C9_2 1_555 1_555
H6_2 C10_2 1_555 1_555
C11_2 C10_2 1_555 1_555
C12_2 C11_2 1_555 1_555
H7_2 C12_2 1_555 1_555
C13_2 C8_2 1_555 1_555
H8_2 C13_2 1_555 1_555
C14_2 C11_2 1_555 1_555
C15_2 N1_2 1_555 1_555
H9_2 C15_2 1_555 1_555
C16_2 C15_2 1_555 1_555
H10_2 C16_2 1_555 1_555
C17_2 C16_2 1_555 1_555
C18_2 C17_2 1_555 1_555
H11_2 C18_2 1_555 1_555
C19_2 N1_2 1_555 1_555
H12_2 C19_2 1_555 1_555
C20_2 C17_2 1_555 1_555
C21_2 C20_2 1_555 1_555
H13_2 C21_2 1_555 1_555
H14_2 C21_2 1_555 1_555
H15_2 C21_2 1_555 1_555
N4_2 N2_2 1_555 1_555
C25_2 C24_2 1_555 1_555
H18_2 C25_2 1_555 1_555
C27_2 N4_2 1_555 1_555
C28_2 C27_2 1_555 1_555
H20_2 C28_2 1_555 1_555
H21_2 C28_2 1_555 1_555
H22_2 C28_2 1_555 1_555
C6_2 C7_2 1_555 1_555
C12_2 C13_2 1_555 1_555
C18_2 C19_2 1_555 1_555
C24_2 C27_2 1_555 1_555
N3 C22_2 1_555 1_555
C22_2 H16_2 1_555 1_555
C23_2 C22_2 1_555 1_555
H17_2 C23_2 1_555 1_555
C26 N3 1_555 1_555
H19 C26 1_555 1_555
Zn7 N3 1_555 1_555
Zn4_2 O10_2 1_555 1_555
O1_3 C1_3 1_555 1_555
O2_3 C1_3 1_555 1_555
C1_3 C2_3 1_555 1_555
C2_3 C3_3 1_555 1_555
C3_3 H1_3 1_555 1_555
C4_3 C3_3 1_555 1_555
H2_3 C4_3 1_555 1_555
C7_3 C2_3 1_555 1_555
H4_3 C7_3 1_555 1_555
O3_3 C5_3 1_555 1_555
O4_2 C14_3 1_555 1_555
C6_3 C5_3 1_555 1_555
H3_3 C6_3 1_555 1_555
C8_3 O3_3 1_555 1_555
C9_3 C8_3 1_555 1_555
H5_3 C9_3 1_555 1_555
C10_3 C9_3 1_555 1_555
H6_3 C10_3 1_555 1_555
C11_3 C10_3 1_555 1_555
C12_3 C11_3 1_555 1_555
H7_3 C12_3 1_555 1_555
C13_3 C8_3 1_555 1_555
H8_3 C13_3 1_555 1_555
C14_3 C11_3 1_555 1_555
Zn4_2 O4_2 1_555 1_555
C12_3 C13_3 1_555 1_555
O8_3 C33_3 1_555 1_555
O9_2 C42_3 1_555 1_555
C34_3 C33_3 1_555 1_555
H25_3 C34_3 1_555 1_555
C36_3 O8_3 1_555 1_555
C37_3 C36_3 1_555 1_555
H27_3 C37_3 1_555 1_555
C38_3 C37_3 1_555 1_555
H28_3 C38_3 1_555 1_555
C39_3 C38_3 1_555 1_555
C40_3 C39_3 1_555 1_555
H29_3 C40_3 1_555 1_555
C41_3 C36_3 1_555 1_555
H30_3 C41_3 1_555 1_555
C42_3 C39_3 1_555 1_555
Zn7 O9_2 1_555 1_555
C40_3 C41_3 1_555 1_555
H9_3 C15_3 1_555 1_555
C16_3 C15_3 1_555 1_555
H10_3 C16_3 1_555 1_555
C29_3 O6_3 1_555 1_555
C30_3 C29_3 1_555 1_555
C31_3 C30_3 1_555 1_555
H23_3 C31_3 1_555 1_555
C32_3 C31_3 1_555 1_555
H24_3 C32_3 1_555 1_555
C35_3 C30_3 1_555 1_555
H26_3 C35_3 1_555 1_555
O7_3 C29_3 1_555 1_555
C25_3 C24_3 1_555 1_555
H18_3 C25_3 1_555 1_555
C26_2 N5 1_555 1_555
H19_2 C26_2 1_555 1_555
C28_3 C27_3 1_555 1_555
H20_3 C28_3 1_555 1_555
H21_3 C28_3 1_555 1_555
H22_3 C28_3 1_555 1_555
C24_3 C27_3 1_555 1_555
C25_3 C26_2 1_555 1_555
C18_3 C17_3 1_555 1_555
H11_3 C18_3 1_555 1_555
C20_3 C17_3 1_555 1_555
C21_3 C20_3 1_555 1_555
H13_3 C21_3 1_555 1_555
H14_3 C21_3 1_555 1_555
H15_3 C21_3 1_555 1_555
C22_3 H16_3 1_555 1_555
C23_3 C22_3 1_555 1_555
H17_3 C23_3 1_555 1_555
Zn7 O5_2 1_555 1_555
N1_3 Zn4_2 1_555 1_555
C15_4 N1_3 1_555 1_555
H9_4 C15_4 1_555 1_555
C16_4 C15_4 1_555 1_555
H10_4 C16_4 1_555 1_555
C19_3 N1_3 1_555 1_555
H12_3 C19_3 1_555 1_555
O6_4 Zn4_2 1_555 1_555
C29_4 O6_4 1_555 1_555
C30_4 C29_4 1_555 1_555
C31_4 C30_4 1_555 1_555
H23_4 C31_4 1_555 1_555
C32_4 C31_4 1_555 1_555
H24_4 C32_4 1_555 1_555
C35_4 C30_4 1_555 1_555
H26_4 C35_4 1_555 1_555
O7_4 C29_4 1_555 1_555
N2_4 C20_4 1_555 1_555
C18_4 C17_4 1_555 1_555
H11_4 C18_4 1_555 1_555
C20_4 C17_4 1_555 1_555
C21_4 C20_4 1_555 1_555
H13_4 C21_4 1_555 1_555
H14_4 C21_4 1_555 1_555
H15_4 C21_4 1_555 1_555
N5_2 C22_4 1_555 1_555
N4_4 N2_4 1_555 1_555
C22_4 H16_4 1_555 1_555
C23_4 C22_4 1_555 1_555
H17_4 C23_4 1_555 1_555
C24_4 C23_4 1_555 1_555
C25_4 C24_4 1_555 1_555
H18_4 C25_4 1_555 1_555
C26_3 N5_2 1_555 1_555
H19_3 C26_3 1_555 1_555
C27_4 N4_4 1_555 1_555
C28_4 C27_4 1_555 1_555
H20_4 C28_4 1_555 1_555
H21_4 C28_4 1_555 1_555
H22_4 C28_4 1_555 1_555
C24_4 C27_4 1_555 1_555
C25_4 C26_3 1_555 1_555
O1_4 C1_4 1_555 1_555
O2_4 C1_4 1_555 1_555
C1_4 C2_4 1_555 1_555
C2_4 C3_4 1_555 1_555
C3_4 H1_4 1_555 1_555
C4_4 C3_4 1_555 1_555
H2_4 C4_4 1_555 1_555
C7_4 C2_4 1_555 1_555
H4_4 C7_4 1_555 1_555
Zn7 O1_4 1_555 1_555
C26_4 N3_2 1_555 1_555
H19_4 C26_4 1_555 1_555
Zn7_2 N3_2 1_555 1_555
O12_2 Zn7_2 1_555 1_555
O8_4 C33_4 1_555 1_555
O12_2 C42_4 1_555 1_555
C34_4 C33_4 1_555 1_555
H25_4 C34_4 1_555 1_555
C36_4 O8_4 1_555 1_555
C37_4 C36_4 1_555 1_555
H27_4 C37_4 1_555 1_555
C38_4 C37_4 1_555 1_555
H28_4 C38_4 1_555 1_555
C39_4 C38_4 1_555 1_555
C40_4 C39_4 1_555 1_555
H29_4 C40_4 1_555 1_555
C41_4 C36_4 1_555 1_555
H30_4 C41_4 1_555 1_555
C42_4 C39_4 1_555 1_555
C40_4 C41_4 1_555 1_555
N1_4 Zn1_2 1_555 1_555
C19_4 N1_4 1_555 1_555
H12_4 C19_4 1_555 1_555
O11_2 Zn1_2 1_555 1_555
O3_4 C5_4 1_555 1_555
O11_2 C14_4 1_555 1_555
C6_4 C5_4 1_555 1_555
H3_4 C6_4 1_555 1_555
C8_4 O3_4 1_555 1_555
C9_4 C8_4 1_555 1_555
H5_4 C9_4 1_555 1_555
C10_4 C9_4 1_555 1_555
H6_4 C10_4 1_555 1_555
C11_4 C10_4 1_555 1_555
C12_4 C11_4 1_555 1_555
H7_4 C12_4 1_555 1_555
C13_4 C8_4 1_555 1_555
H8_4 C13_4 1_555 1_555
C14_4 C11_4 1_555 1_555
C12_4 C13_4 1_555 1_555

#END
