
###############################################################################
#
# This file contains modified crystal structure data generated from the
# MOF subset of the Cambridge Structural Database (CSD) v543 
# hosted by the Cambridge Crystallographic Data Centre (CCDC).
#
# This work is licensed under the Creative Commons
# Attribution-NonCommercial-ShareAlike 4.0 International License.
# To view a copy of this license, visit
# http://creativecommons.org/licenses/by-nc-sa/4.0/
# or send a letter to
# Creative Commons, PO Box 1866, Mountain View, CA 94042, USA.
#
# CIF created using the CSD Python API on 29 September 2022
# The structure has been converted into the P1 space group
# The structure has a 3D framework
# The original CSD entry XOGXAU is in the triclinic crystal system
# The framework has been calculated to contain at least 10.0% void space
# The void calculation uses a probe of radius 1.32A, grid spacing 0.4
# H atom positions have been added when not included in the experimental data
# Generated hydrogen atom positions removed from atoms on special positions
#
###############################################################################

data_XOGXAU
_chemical_formula_moiety         '(C128 H112 Cd7 N8 O28)n'
_symmetry_cell_setting           triclinic
_symmetry_space_group_name_H-M   'P 1'
_symmetry_Int_Tables_number      1
_space_group_name_Hall           'P 1'
loop_
_symmetry_equiv_pos_site_id
_symmetry_equiv_pos_as_xyz
1 x,y,z
_cell_length_a                   13.968(3)
_cell_length_b                   14.611(3)
_cell_length_c                   20.566(4)
_cell_angle_alpha                75.25(3)
_cell_angle_beta                 85.51(3)
_cell_angle_gamma                69.00(3)
_cell_volume                     3788.94
loop_
_atom_site_label
_atom_site_type_symbol
_atom_site_fract_x
_atom_site_fract_y
_atom_site_fract_z
H41 H 0.0474 0.1032 0.3162
C57 C 0.0700(7) 0.2248(7) 0.3923(4)
H42 H 0.1095 0.2301 0.4265
H43 H 0.0336 0.2911 0.3654
H44 H 0.1150 0.1848 0.3643
Cd10 Cd 0.00972(4) 0.23957(4) 0.55974(3)
Cd3 Cd -0.0000 0.5000 0.5000
O28 O 0.0242(5) 0.5148(4) 0.3882(3)
O30 O 0.0990(4) 0.5918(4) 0.4978(3)
O31 O 0.1915(4) 0.1782(4) 0.5771(3)
O33 O 0.1160(4) 0.3334(4) 0.5209(3)
H100 H 0.0690022 0.555285 0.371786
H101 H 0.00177364 0.412631 0.635869
H102 H 0.0135258 0.521357 0.628078
Cd4 Cd 0.5000 0.0000 -0.0000
N1 N 0.5335(5) 0.3361(4) 0.0212(3)
N2 N 0.5627(5) 0.3839(5) 0.1099(3)
N3 N 0.9540(5) 0.1299(5) 0.3934(3)
N4 N 0.9628(5) 0.1748(4) 0.4873(3)
C26 C 0.0049(5) 0.1771(5) 0.0074(4)
C27 C 0.0250(6) 0.2489(7) 0.0317(5)
C28 C 0.1203(6) 0.2608(6) 0.0234(4)
H15 H 0.1323 0.3085 0.0409
C43 C 0.4374(6) 0.2928(6) 0.1264(4)
H23 H 0.3784 0.3070 0.0994
H24 H 0.4163 0.3219 0.1644
H25 H 0.4706 0.2210 0.1418
C44 C 0.5110(6) 0.3377(5) 0.0850(4)
C45 C 0.6066(5) 0.3822(5) 0.0021(4)
C49 C 0.6904(7) 0.4658(6) 0.0530(5)
H29 H 0.7013 0.4895 0.0887
C50 C 0.6237(6) 0.4136(6) 0.0583(4)
C51 C 0.5506(7) 0.4063(6) 0.1754(4)
H30 H 0.4797 0.4200 0.1889
H31 H 0.5665 0.4666 0.1724
C52 C 0.6203(8) 0.3189(7) 0.2288(4)
H32 H 0.5977 0.3306 0.2727
H33 H 0.6111 0.2571 0.2264
C53 C 0.7316(7) 0.3029(8) 0.2236(4)
H34 H 0.7415 0.3639 0.2271
H35 H 0.7545 0.2920 0.1795
C54 C 0.7973(8) 0.2154(7) 0.2761(5)
H36 H 0.7715 0.2247 0.3200
H37 H 0.7896 0.1542 0.2710
C55 C 0.9061(9) 0.2007(8) 0.2745(5)
H38 H 0.9133 0.2620 0.2799
H39 H 0.9311 0.1926 0.2302
C56 C 0.9763(8) 0.1116(7) 0.3267(4)
H40 H 0.9657 0.0500 0.3254
C58 C 0.9965(6) 0.1768(5) 0.4241(4)
C59 C 0.8939(6) 0.0933(6) 0.4383(4)
C60 C 0.8289(8) 0.0390(7) 0.4342(5)
H45 H 0.8257 0.0189 0.3953
C61 C 0.7708(8) 0.0168(7) 0.4891(6)
C62 C 0.7777(7) 0.0442(7) 0.5488(5)
H47 H 0.7385 0.0278 0.5855
C63 C 0.8419(6) 0.0950(6) 0.5535(4)
H48 H 0.8474 0.1120 0.5933
C64 C 0.8980(6) 0.1203(6) 0.4981(4)
O40 O 0.5724(4) 0.1043(4) 0.0189(3)
Cd1 Cd 0.47019(4) 0.26607(4) 0.95945(3)
Cd3_2 Cd 1.0000 0.5000 0.5000
Cd4_2 Cd 0.5000 0.0000 1.0000
O1 O 0.3707(4) 0.1540(4) 0.9551(3)
O2 O 0.3093(4) 0.2881(4) 0.9938(3)
O3 O 0.4370(5) 0.3608(4) 0.8459(3)
O4 O 0.5671(5) 0.2192(5) 0.8713(3)
O5 O 0.5685(6) 0.0173(6) 0.8958(4)
O6 O 0.9758(5) 0.4852(4) 0.6118(3)
O7 O 0.9010(4) 0.4082(4) 0.5022(3)
O8 O 0.8609(5) 0.4556(5) 0.3931(3)
C1 C 0.5141(7) 0.2971(7) 0.8293(4)
C2 C 0.5413(6) 0.3107(6) 0.7569(4)
C3 C 0.4760(6) 0.3769(6) 0.7060(4)
H1 H 0.4113 0.4179 0.7161
C4 C 0.5049(6) 0.3837(5) 0.6391(4)
H2 H 0.4583 0.4271 0.6051
C5 C 0.6001(6) 0.3278(6) 0.6229(4)
C6 C 0.6684(6) 0.2614(6) 0.6746(4)
H3 H 0.7343 0.2232 0.6643
C7 C 0.6393(7) 0.2524(7) 0.7395(4)
H4 H 0.6850 0.2065 0.7732
C8 C 0.6352(5) 0.3383(5) 0.5511(4)
C9 C 0.7232(6) 0.3631(5) 0.5335(4)
H5 H 0.7609 0.3671 0.5673
C10 C 0.7558(5) 0.3816(5) 0.4693(3)
C11 C 0.8452(6) 0.4168(6) 0.4525(4)
C12 C 0.7045(6) 0.3697(6) 0.4194(4)
H6 H 0.7278 0.3786 0.3755
C13 C 0.6189(6) 0.3444(6) 0.4354(4)
H7 H 0.5838 0.3380 0.4012
C14 C 0.5821(5) 0.3278(5) 0.5005(4)
C15 C 0.4827(5) 0.3086(6) 0.5132(4)
C16 C 0.3969(6) 0.3754(6) 0.4763(4)
H8 H 0.4020 0.4306 0.4436
C17 C 0.3038(6) 0.3622(6) 0.4870(4)
H9 H 0.2461 0.4090 0.4625
C18 C 0.2962(6) 0.2784(6) 0.5346(4)
C19 C 0.3824(6) 0.2092(6) 0.5705(4)
H10 H 0.3780 0.1524 0.6018
C20 C 0.4756(6) 0.2240(6) 0.5599(4)
H11 H 0.5336 0.1771 0.5842
C21 C 0.1967(6) 0.2609(6) 0.5462(4)
C22 C 0.2979(6) 0.2155(6) 0.9788(4)
C23 C 0.1959(5) 0.2024(6) 0.9897(4)
C24 C 0.1762(6) 0.1318(6) 0.9644(4)
H12 H 0.2271 0.0921 0.9410
C25 C 0.0830(5) 0.1195(5) 0.9732(4)
H13 H 0.0718 0.0713 0.9558
C46 C 0.6543(6) 0.3985(6) 0.9423(4)
H26 H 0.6435 0.3761 0.9060
C47 C 0.7196(6) 0.4504(6) 0.9395(5)
H27 H 0.7523 0.4660 0.8992
C48 C 0.7388(6) 0.4808(7) 0.9947(5)
H28 H 0.7867 0.5124 0.9908
O35 O 0.8840(4) 0.6666(4) 0.4791(3)
O36 O 0.9689(5) 0.2934(4) 0.6581(3)
O38 O 0.9692(5) 0.1447(5) 0.6597(3)
H99 H 0.956962 0.549048 0.3642
Cd4_3 Cd 0.5000 1.0000 -0.0000
H46 H 0.7264 0.9832 0.4866
O23 O 0.0311(5) 0.7066(4) 0.3419(3)
O24 O 0.0308(5) 0.8553(5) 0.3403(3)
C98 C 0.2418(5) 0.8669(5) 0.0137(3)
H66 H 0.2809 0.8697 0.0473
C99 C 0.1514(5) 0.8462(5) 0.0306(3)
C100 C 0.1210(5) 0.8309(5) 0.1025(3)
C101 C 0.1151(6) 0.9018(6) 0.1381(4)
H67 H 0.1297 0.9593 0.1165
C102 C 0.0878(6) 0.8885(6) 0.2051(4)
H68 H 0.0835 0.9375 0.2277
C103 C 0.0672(5) 0.8046(5) 0.2383(4)
C104 C 0.0737(6) 0.7336(5) 0.2027(4)
H69 H 0.0598 0.6758 0.2247
C105 C 0.1000(6) 0.7457(6) 0.1359(4)
H70 H 0.1035 0.6968 0.1135
C106 C 0.0400(6) 0.7888(6) 0.3108(4)
O27 O 0.4315(6) 0.9827(6) 0.1042(4)
Cd8 Cd 0.52981(4) 0.73393(4) 0.04055(3)
O29 O 0.6293(4) 0.8460(4) 0.0449(3)
Cd4_4 Cd 0.5000 1.0000 1.0000
O25 O 0.4276(4) 0.8957(4) 0.9811(3)
O26 O 0.3859(5) 0.9466(5) 0.8736(3)
H62 H 0.0263 0.7100 0.9460
C93 C 0.0941(5) 0.8399(5) 0.9794(4)
C94 C 0.1288(6) 0.8546(6) 0.9138(4)
H64 H 0.0924 0.8487 0.8801
C95 C 0.2160(6) 0.8778(6) 0.8980(4)
H65 H 0.2368 0.8900 0.8536
C96 C 0.2735(5) 0.8831(5) 0.9483(4)
C97 C 0.3708(6) 0.9092(6) 0.9314(4)
H104 H 0.632389 0.958517 0.895581
O14 O 0.6141(5) 0.0534(5) 0.1264(3)
H14 H 0.9737 0.2900 0.0540
C29 C 0.9059(5) 0.1601(5) 0.0206(4)
C30 C 0.8712(6) 0.1454(6) 0.0862(4)
H16 H 0.9076 0.1513 0.1199
C31 C 0.7840(6) 0.1222(6) 0.1020(4)
H17 H 0.7632 0.1100 0.1464
C32 C 0.7265(5) 0.1169(5) 0.0517(4)
C33 C 0.6292(6) 0.0908(6) 0.0686(4)
C34 C 0.7582(5) 0.1331(5) 0.9863(3)
H18 H 0.7191 0.1303 0.9527
C35 C 0.8486(5) 0.1538(5) 0.9694(3)
C36 C 0.8790(5) 0.1691(5) 0.8975(3)
C37 C 0.8849(6) 0.0982(6) 0.8619(4)
H19 H 0.8703 0.0407 0.8835
C38 C 0.9122(6) 0.1115(6) 0.7949(4)
H20 H 0.9165 0.0625 0.7723
C39 C 0.9328(5) 0.1954(5) 0.7617(4)
C40 C 0.9263(6) 0.2664(5) 0.7973(4)
H21 H 0.9402 0.3242 0.7753
C41 C 0.9000(6) 0.2543(6) 0.8641(4)
H22 H 0.8965 0.3032 0.8865
C42 C 0.9600(6) 0.2112(6) 0.6892(4)
H94 H 0.2736 0.0168 0.5134
O16 O 0.6907(4) 0.7119(4) 0.0062(3)
O17 O 0.5630(5) 0.6392(4) 0.1541(3)
O18 O 0.4329(5) 0.7808(5) 0.1287(3)
O20 O 0.1391(5) 0.5444(5) 0.6069(3)
O21 O 0.8085(4) 0.8218(4) 0.4229(3)
C65 C 0.4859(7) 0.7029(7) 0.1707(4)
C66 C 0.4587(6) 0.6893(6) 0.2431(4)
C67 C 0.5240(6) 0.6231(6) 0.2940(4)
H49 H 0.5887 0.5821 0.2839
C68 C 0.4951(6) 0.6163(5) 0.3609(4)
H50 H 0.5417 0.5729 0.3949
C69 C 0.3999(6) 0.6722(6) 0.3771(4)
C70 C 0.3316(6) 0.7386(6) 0.3254(4)
H51 H 0.2657 0.7768 0.3357
C71 C 0.3607(7) 0.7476(7) 0.2605(4)
H52 H 0.3150 0.7935 0.2268
C72 C 0.3648(5) 0.6617(5) 0.4489(4)
C73 C 0.2768(6) 0.6369(5) 0.4665(4)
H53 H 0.2391 0.6329 0.4327
C74 C 0.2442(5) 0.6184(5) 0.5307(3)
C75 C 0.1548(6) 0.5832(6) 0.5475(4)
C76 C 0.2955(6) 0.6303(6) 0.5806(4)
H54 H 0.2722 0.6214 0.6245
C77 C 0.3811(6) 0.6556(6) 0.5646(4)
H55 H 0.4162 0.6620 0.5988
C78 C 0.4179(5) 0.6722(5) 0.4995(4)
C79 C 0.5173(5) 0.6914(6) 0.4868(4)
C80 C 0.6031(6) 0.6246(6) 0.5237(4)
H56 H 0.5980 0.5694 0.5564
C81 C 0.6962(6) 0.6378(6) 0.5130(4)
H57 H 0.7539 0.5910 0.5375
C82 C 0.7038(6) 0.7216(6) 0.4654(4)
C83 C 0.6176(6) 0.7908(6) 0.4295(4)
H58 H 0.6220 0.8476 0.3982
C84 C 0.5244(6) 0.7760(6) 0.4401(4)
H59 H 0.4664 0.8229 0.4158
C85 C 0.8033(6) 0.7391(6) 0.4538(4)
C86 C 0.7021(6) 0.7845(6) 0.0212(4)
C87 C 0.8041(5) 0.7976(6) 0.0103(4)
C88 C 0.8238(6) 0.8682(6) 0.0356(4)
H60 H 0.7729 0.9079 0.0590
C89 C 0.9170(5) 0.8805(5) 0.0268(4)
H61 H 0.9282 0.9287 0.0442
C110 C 0.3457(6) 0.6015(6) 0.0577(4)
H74 H 0.3565 0.6239 0.0940
C111 C 0.2804(6) 0.5496(6) 0.0605(5)
H75 H 0.2477 0.5340 0.1008
C112 C 0.2612(6) 0.5192(7) 0.0053(5)
H76 H 0.2133 0.4876 0.0092
Cd12 Cd 0.99028(4) 0.76043(4) 0.44026(3)
N10 N 0.0372(5) 0.8252(4) 0.5127(3)
N5 N 0.4665(5) 0.6639(4) 0.9788(3)
N6 N 0.4373(5) 0.6161(5) 0.8901(3)
N7 N 0.0460(5) 0.8701(5) 0.6066(3)
C90 C 0.9951(5) 0.8229(5) 0.9926(4)
C91 C 0.9750(6) 0.7511(7) 0.9683(5)
C92 C 0.8797(6) 0.7392(6) 0.9766(4)
H63 H 0.8677 0.6915 0.9591
C107 C 0.5626(6) 0.7072(6) 0.8736(4)
H71 H 0.6216 0.6930 0.9006
H72 H 0.5837 0.6781 0.8356
H73 H 0.5294 0.7790 0.8582
C108 C 0.4890(6) 0.6623(5) 0.9150(4)
C109 C 0.3934(5) 0.6178(5) 0.9979(4)
C113 C 0.3096(7) 0.5342(6) 0.9470(5)
H77 H 0.2987 0.5105 0.9113
C114 C 0.3763(6) 0.5864(6) 0.9417(4)
C115 C 0.4494(7) 0.5937(6) 0.8246(4)
H78 H 0.5203 0.5800 0.8111
H79 H 0.4335 0.5334 0.8276
C116 C 0.3797(8) 0.6811(7) 0.7712(4)
H80 H 0.4023 0.6694 0.7273
H81 H 0.3889 0.7429 0.7736
C117 C 0.2684(7) 0.6971(8) 0.7764(4)
H82 H 0.2585 0.6361 0.7729
H83 H 0.2455 0.7080 0.8205
C118 C 0.2027(8) 0.7846(7) 0.7239(5)
H84 H 0.2285 0.7753 0.6800
H85 H 0.2104 0.8458 0.7290
C119 C 0.0939(9) 0.7993(8) 0.7255(5)
H86 H 0.0867 0.7380 0.7201
H87 H 0.0689 0.8074 0.7698
C120 C 0.0237(8) 0.8884(7) 0.6733(4)
H88 H 0.0343 0.9500 0.6746
C122 C 0.0035(6) 0.8232(5) 0.5759(4)
C123 C 0.1061(6) 0.9067(6) 0.5617(4)
C124 C 0.1711(8) 0.9610(7) 0.5658(5)
H93 H 0.1743 0.9811 0.6047
C125 C 0.2292(8) 0.9832(7) 0.5109(6)
C126 C 0.2223(7) 0.9558(7) 0.4512(5)
H95 H 0.2615 0.9722 0.4145
C127 C 0.1581(6) 0.9050(6) 0.4465(4)
H96 H 0.1526 0.8880 0.4067
C128 C 0.1020(6) 0.8797(6) 0.5019(4)
H89 H 0.9526 0.8968 0.6838
C121 C 0.9300(7) 0.7752(7) 0.6077(4)
H90 H 0.8905 0.7699 0.5735
H91 H 0.9664 0.7089 0.6346
H92 H 0.8850 0.8152 0.6357
H104_2 H 0.367611 0.0414826 0.104419
H99_2 H 0.0430376 0.450952 0.6358
H100_2 H 0.930998 0.444715 0.628214
H101_2 H 0.998226 0.587369 0.364131
H102_2 H 0.986474 0.478643 0.371922
loop_
_geom_bond_atom_site_label_1
_geom_bond_atom_site_label_2
_geom_bond_site_symmetry_1
_geom_bond_site_symmetry_2
C57 H42 1_555 1_555
H43 C57 1_555 1_555
H44 C57 1_555 1_555
O28 Cd3 1_555 1_555
O30 Cd3 1_555 1_555
O31 Cd10 1_555 1_555
O33 Cd10 1_555 1_555
Cd3 O33 1_555 1_555
O28 H100 1_555 1_555
N2 C44 1_555 1_555
N3 C56 1_555 1_555
N4 C58 1_555 1_555
C27 C26 1_555 1_555
H15 C28 1_555 1_555
C43 H23 1_555 1_555
H24 C43 1_555 1_555
H25 C43 1_555 1_555
C44 N1 1_555 1_555
C45 N1 1_555 1_555
H29 C49 1_555 1_555
C50 N2 1_555 1_555
C51 N2 1_555 1_555
H30 C51 1_555 1_555
H31 C51 1_555 1_555
C52 C51 1_555 1_555
H32 C52 1_555 1_555
H33 C52 1_555 1_555
C53 C52 1_555 1_555
H34 C53 1_555 1_555
H35 C53 1_555 1_555
C54 C53 1_555 1_555
H36 C54 1_555 1_555
H37 C54 1_555 1_555
C55 C54 1_555 1_555
H38 C55 1_555 1_555
H39 C55 1_555 1_555
C56 C55 1_555 1_555
H40 C56 1_555 1_555
C58 N3 1_555 1_555
C59 N3 1_555 1_555
C60 C59 1_555 1_555
H45 C60 1_555 1_555
C61 C60 1_555 1_555
C62 C61 1_555 1_555
H47 C62 1_555 1_555
C63 C62 1_555 1_555
H48 C63 1_555 1_555
C64 N4 1_555 1_555
Cd4 O40 1_555 1_555
C27 C28 1_555 1_555
C43 C44 1_555 1_555
C45 C50 1_555 1_555
C49 C50 1_555 1_555
C59 C64 1_555 1_555
C63 C64 1_555 1_555
Cd1 O1 1_555 1_555
Cd3_2 O6 1_555 1_555
Cd4_2 O1 1_555 1_555
O1 C22 1_555 1_555
O2 Cd1 1_555 1_555
O3 Cd1 1_555 1_555
O4 Cd1 1_555 1_555
O5 Cd4_2 1_555 1_555
O7 Cd3_2 1_555 1_555
O8 C11 1_555 1_555
O31 C21 1_555 1_555
O33 C21 1_555 1_555
C1 O3 1_555 1_555
C2 C1 1_555 1_555
C3 C2 1_555 1_555
H1 C3 1_555 1_555
C4 C3 1_555 1_555
H2 C4 1_555 1_555
C5 C4 1_555 1_555
C6 C5 1_555 1_555
H3 C6 1_555 1_555
C7 C2 1_555 1_555
H4 C7 1_555 1_555
C8 C5 1_555 1_555
C9 C8 1_555 1_555
H5 C9 1_555 1_555
C10 C9 1_555 1_555
C11 O7 1_555 1_555
C12 C10 1_555 1_555
H6 C12 1_555 1_555
C13 C12 1_555 1_555
H7 C13 1_555 1_555
C14 C8 1_555 1_555
C15 C14 1_555 1_555
C16 C15 1_555 1_555
H8 C16 1_555 1_555
C17 C16 1_555 1_555
H9 C17 1_555 1_555
C18 C17 1_555 1_555
C19 C18 1_555 1_555
H10 C19 1_555 1_555
C20 C15 1_555 1_555
H11 C20 1_555 1_555
C21 C18 1_555 1_555
C22 O2 1_555 1_555
C23 C22 1_555 1_555
C24 C23 1_555 1_555
H12 C24 1_555 1_555
C25 C24 1_555 1_555
H13 C25 1_555 1_555
H26 C46 1_555 1_555
C47 C46 1_555 1_555
H27 C47 1_555 1_555
C48 C47 1_555 1_555
H28 C48 1_555 1_555
O35 Cd3_2 1_555 1_555
O4 C1 1_555 1_555
C6 C7 1_555 1_555
C10 C11 1_555 1_555
C13 C14 1_555 1_555
C19 C20 1_555 1_555
O23 C106 1_555 1_555
O24 C106 1_555 1_555
H66 C98 1_555 1_555
C100 C99 1_555 1_555
C101 C100 1_555 1_555
H67 C101 1_555 1_555
C102 C101 1_555 1_555
H68 C102 1_555 1_555
C103 C102 1_555 1_555
C104 C103 1_555 1_555
H69 C104 1_555 1_555
C105 C100 1_555 1_555
H70 C105 1_555 1_555
C106 C103 1_555 1_555
O27 Cd4_3 1_555 1_555
O29 Cd4_3 1_555 1_555
C98 C99 1_555 1_555
C104 C105 1_555 1_555
Cd8 O29 1_555 1_555
O25 Cd4_4 1_555 1_555
O26 C97 1_555 1_555
C94 C93 1_555 1_555
H64 C94 1_555 1_555
C95 C94 1_555 1_555
H65 C95 1_555 1_555
C96 C95 1_555 1_555
C97 O25 1_555 1_555
C96 C97 1_555 1_555
O40 C33 1_555 1_555
O14 C33 1_555 1_555
C30 C29 1_555 1_555
H16 C30 1_555 1_555
C31 C30 1_555 1_555
H17 C31 1_555 1_555
C32 C31 1_555 1_555
C33 C32 1_555 1_555
O36 C42 1_555 1_555
O38 C42 1_555 1_555
H18 C34 1_555 1_555
C36 C35 1_555 1_555
C37 C36 1_555 1_555
H19 C37 1_555 1_555
C38 C37 1_555 1_555
H20 C38 1_555 1_555
C39 C38 1_555 1_555
C40 C39 1_555 1_555
H21 C40 1_555 1_555
C41 C36 1_555 1_555
H22 C41 1_555 1_555
C42 C39 1_555 1_555
C34 C35 1_555 1_555
C40 C41 1_555 1_555
O29 C86 1_555 1_555
O16 Cd8 1_555 1_555
O17 Cd8 1_555 1_555
O18 Cd8 1_555 1_555
O30 C75 1_555 1_555
O20 C75 1_555 1_555
O21 C85 1_555 1_555
O35 C85 1_555 1_555
C65 O17 1_555 1_555
C66 C65 1_555 1_555
C67 C66 1_555 1_555
H49 C67 1_555 1_555
C68 C67 1_555 1_555
H50 C68 1_555 1_555
C69 C68 1_555 1_555
C70 C69 1_555 1_555
H51 C70 1_555 1_555
C71 C66 1_555 1_555
H52 C71 1_555 1_555
C72 C69 1_555 1_555
C73 C72 1_555 1_555
H53 C73 1_555 1_555
C74 C73 1_555 1_555
C75 C74 1_555 1_555
C76 C74 1_555 1_555
H54 C76 1_555 1_555
C77 C76 1_555 1_555
H55 C77 1_555 1_555
C78 C72 1_555 1_555
C79 C78 1_555 1_555
C80 C79 1_555 1_555
H56 C80 1_555 1_555
C81 C80 1_555 1_555
H57 C81 1_555 1_555
C82 C81 1_555 1_555
C83 C82 1_555 1_555
H58 C83 1_555 1_555
C84 C79 1_555 1_555
H59 C84 1_555 1_555
C85 C82 1_555 1_555
C86 O16 1_555 1_555
C87 C86 1_555 1_555
C88 C87 1_555 1_555
H60 C88 1_555 1_555
C89 C88 1_555 1_555
H61 C89 1_555 1_555
H74 C110 1_555 1_555
C111 C110 1_555 1_555
H75 C111 1_555 1_555
C112 C111 1_555 1_555
H76 C112 1_555 1_555
Cd12 O21 1_555 1_555
O18 C65 1_555 1_555
O35 Cd12 1_555 1_555
C70 C71 1_555 1_555
C77 C78 1_555 1_555
C83 C84 1_555 1_555
N6 C108 1_555 1_555
N7 C120 1_555 1_555
N10 C122 1_555 1_555
C91 C90 1_555 1_555
H63 C92 1_555 1_555
C107 H71 1_555 1_555
H72 C107 1_555 1_555
H73 C107 1_555 1_555
C108 N5 1_555 1_555
C109 N5 1_555 1_555
H77 C113 1_555 1_555
C114 N6 1_555 1_555
C115 N6 1_555 1_555
H78 C115 1_555 1_555
H79 C115 1_555 1_555
C116 C115 1_555 1_555
H80 C116 1_555 1_555
H81 C116 1_555 1_555
C117 C116 1_555 1_555
H82 C117 1_555 1_555
H83 C117 1_555 1_555
C118 C117 1_555 1_555
H84 C118 1_555 1_555
H85 C118 1_555 1_555
C119 C118 1_555 1_555
H86 C119 1_555 1_555
H87 C119 1_555 1_555
C120 C119 1_555 1_555
H88 C120 1_555 1_555
C122 N7 1_555 1_555
C123 N7 1_555 1_555
C124 C123 1_555 1_555
H93 C124 1_555 1_555
C125 C124 1_555 1_555
C126 C125 1_555 1_555
H95 C126 1_555 1_555
C127 C126 1_555 1_555
H96 C127 1_555 1_555
C128 N10 1_555 1_555
C91 C92 1_555 1_555
C107 C108 1_555 1_555
C109 C114 1_555 1_555
C113 C114 1_555 1_555
C123 C128 1_555 1_555
C127 C128 1_555 1_555
C121 H90 1_555 1_555
H91 C121 1_555 1_555
H92 C121 1_555 1_555
O6 H100_2 1_555 1_555

#END
