
###############################################################################
#
# This file contains modified crystal structure data generated from the
# MOF subset of the Cambridge Structural Database (CSD) v543 
# hosted by the Cambridge Crystallographic Data Centre (CCDC).
#
# This work is licensed under the Creative Commons
# Attribution-NonCommercial-ShareAlike 4.0 International License.
# To view a copy of this license, visit
# http://creativecommons.org/licenses/by-nc-sa/4.0/
# or send a letter to
# Creative Commons, PO Box 1866, Mountain View, CA 94042, USA.
#
# CIF created using the CSD Python API on 29 September 2022
# The structure has been converted into the P1 space group
# The structure has a 3D framework
# The original CSD entry XOGZUR is in the monoclinic crystal system
# The framework has been calculated to contain at least 10.0% void space
# The void calculation uses a probe of radius 1.32A, grid spacing 0.4
# The framework is charged, counterions have been retained in the structure
#
###############################################################################

data_XOGZUR
_chemical_formula_moiety         '(C64 H24 Co6 N8 O30 4-)n'
_symmetry_cell_setting           triclinic
_symmetry_space_group_name_H-M   'P 1'
_symmetry_Int_Tables_number      1
_space_group_name_Hall           'P 1'
loop_
_symmetry_equiv_pos_site_id
_symmetry_equiv_pos_as_xyz
1 x,y,z
_cell_length_a                   12.7977(3)
_cell_length_b                   14.5344(2)
_cell_length_c                   13.0141(3)
_cell_angle_alpha                90
_cell_angle_beta                 118.732(3)
_cell_angle_gamma                90
_cell_volume                     2122.67
loop_
_atom_site_label
_atom_site_type_symbol
_atom_site_fract_x
_atom_site_fract_y
_atom_site_fract_z
O6 O 0.1027(4) 0.8135(4) 0.3447(4)
O8 O 0.0673(4) 0.8994(3) 0.4645(4)
C14 C 0.0434(5) 0.8310(4) 0.3964(5)
Co10 Co 0.22443(7) 0.94041(6) 0.47425(7)
Co7 Co 0.500000 -0.000000 0.500000
Co5 Co 0.500000 0.500000 0.000000
Co8 Co 0.77557(7) 0.44041(6) 0.02575(7)
O1 O 0.5396(3) 0.5722(3) 0.8838(3)
O2 O 0.3870(3) 0.8873(3) 0.4951(3)
O3 O 0.8267(4) 0.5352(3) 0.1527(3)
O4 O 0.6488(3) 0.5516(3) 0.1461(3)
O5 O 0.7097(4) 0.5245(3) 0.8875(3)
O7 O 0.3137(4) 0.8247(3) 0.6012(4)
N1 N 0.7154(4) 0.6647(3) 0.5412(4)
N2 N 0.7433(4) 0.7376(3) 0.5088(4)
C1 C 0.7987(5) 0.7222(4) 0.4378(5)
C2 C 0.6157(5) 0.5716(4) 0.8474(4)
C3 C 0.5613(5) 0.7506(4) 0.5631(5)
H1 H 0.551112 0.791549 0.502071
C4 C 0.9416(5) 0.7687(4) 0.3789(5)
C5 C 0.7563(5) 0.5712(4) 0.1848(5)
C6 C 0.6467(5) 0.6815(4) 0.5998(5)
C7 C 0.5949(5) 0.6334(4) 0.7473(5)
C8 C 0.8859(5) 0.7814(4) 0.4471(5)
H2 H 0.908644 0.831412 0.500552
C9 C 0.7568(5) 0.6533(4) 0.3520(5)
H3 H 0.693243 0.614447 0.342991
C10 C 0.4915(5) 0.7588(4) 0.6170(5)
C11 C 0.8080(4) 0.6419(4) 0.2802(4)
C12 C 0.6643(5) 0.6227(4) 0.6910(5)
H4 H 0.722777 0.575508 0.714964
C13 C 0.5071(5) 0.6998(4) 0.7093(5)
H5 H 0.457725 0.705671 0.744884
C15 C 0.3930(5) 0.8273(4) 0.5709(5)
C16 C 0.9032(5) 0.6994(4) 0.2963(5)
H6 H 0.941305 0.690496 0.249925
Co5_2 Co 0.500000 0.500000 1.000000
Co7_2 Co 0.500000 1.000000 0.500000
O18 O 0.4604(3) 0.4278(3) 0.1162(3)
O19 O 0.6130(3) 0.3873(3) 0.0049(3)
O22 O 0.2903(4) 0.4755(3) 0.1125(3)
O24 O 0.3137(4) 0.6753(3) 0.1012(4)
O25 O 0.9327(4) 0.3994(3) 0.0355(4)
Co3 Co 0.22443(7) 0.55959(6) 0.97425(7)
O10 O 0.6130(3) 0.1127(3) 0.5049(3)
O11 O 0.1733(4) 0.4648(3) 0.8473(3)
O12 O 0.3512(3) 0.4484(3) 0.8539(3)
O15 O 0.6863(4) 0.1753(3) 0.3988(4)
N3 N 0.2846(4) 0.3353(3) 0.4588(4)
N4 N 0.2567(4) 0.2624(3) 0.4912(4)
C17 C 0.2013(5) 0.2778(4) 0.5622(5)
C18 C 0.3843(5) 0.4284(4) 0.1526(4)
C19 C 0.4387(5) 0.2494(4) 0.4369(5)
H7 H 0.448888 0.208451 0.497929
C20 C 0.0584(5) 0.2313(4) 0.6211(5)
C21 C 0.2437(5) 0.4288(4) 0.8152(5)
C22 C 0.3533(5) 0.3185(4) 0.4002(5)
C23 C 0.4051(5) 0.3666(4) 0.2527(5)
C24 C 0.1141(5) 0.2186(4) 0.5529(5)
H8 H 0.091356 0.168588 0.499448
C25 C 0.2432(5) 0.3467(4) 0.6480(5)
H9 H 0.306757 0.385553 0.657009
C26 C 0.5085(5) 0.2412(4) 0.3830(5)
C27 C 0.1920(4) 0.3581(4) 0.7198(4)
C28 C 0.3357(5) 0.3773(4) 0.3090(5)
H10 H 0.277223 0.424492 0.285036
C29 C 0.4929(5) 0.3002(4) 0.2907(5)
H11 H 0.542275 0.294329 0.255116
C31 C 0.6070(5) 0.1727(4) 0.4291(5)
C32 C 0.0968(5) 0.3006(4) 0.7037(5)
H12 H 0.058695 0.309504 0.750075
Co13 Co 0.77557(7) 0.05959(6) 0.52575(7)
O20 O 0.3870(3) 0.6127(3) 0.9951(3)
O23 O 0.6863(4) 0.3247(3) 0.8988(4)
O26 O 0.0673(4) 0.6006(3) 0.9645(4)
O14 O 0.8973(4) 0.1865(4) 0.6553(4)
O16 O 0.9327(4) 0.1006(3) 0.5355(4)
C30 C 0.9566(5) 0.1690(4) 0.6036(5)
O14_2 O 0.1027(4) 0.6865(4) 0.8447(4)
C30_2 C 0.0434(5) 0.6690(4) 0.8964(5)
O3_2 O 0.1733(4) 0.0352(3) 0.3473(3)
O4_2 O 0.3512(3) 0.0516(3) 0.3539(3)
C1_2 C 0.2013(5) 0.2222(4) 0.0622(5)
C4_2 C 0.0584(5) 0.2687(4) 0.1211(5)
C5_2 C 0.2437(5) 0.0712(4) 0.3152(5)
C8_2 C 0.1141(5) 0.2814(4) 0.0529(5)
C9_2 C 0.2432(5) 0.1533(4) 0.1480(5)
H3_2 H 0.306757 0.114447 0.157009
C11_2 C 0.1920(4) 0.1419(4) 0.2198(4)
C16_2 C 0.0968(5) 0.1994(4) 0.2037(5)
H6_2 H 0.058695 0.190496 0.250075
O17 O 0.4604(3) 0.0722(3) 0.6162(3)
O21 O 0.2903(4) 0.0245(3) 0.6125(3)
N1_2 N 0.2846(4) 0.1647(3) 0.9588(4)
N2_2 N 0.2567(4) 0.2376(3) 0.9912(4)
C2_2 C 0.3843(5) 0.0716(4) 0.6526(4)
C3_2 C 0.4387(5) 0.2506(4) 0.9369(5)
H1_2 H 0.448888 0.291549 0.997929
C6_2 C 0.3533(5) 0.1815(4) 0.9002(5)
C7_2 C 0.4051(5) 0.1334(4) 0.7527(5)
H2_2 H 0.091356 0.331412 0.999448
C10_2 C 0.5085(5) 0.2588(4) 0.8830(5)
C12_2 C 0.3357(5) 0.1227(4) 0.8090(5)
H4_2 H 0.277223 0.075508 0.785036
C13_2 C 0.4929(5) 0.1998(4) 0.7907(5)
H5_2 H 0.542275 0.205671 0.755116
C15_2 C 0.6070(5) 0.3273(4) 0.9291(5)
O9 O 0.5396(3) 0.9278(3) 0.3838(3)
O13 O 0.7097(4) 0.9755(3) 0.3875(3)
N3_2 N 0.7154(4) 0.8353(3) 0.0412(4)
N4_2 N 0.7433(4) 0.7624(3) 0.0088(4)
C18_2 C 0.6157(5) 0.9284(4) 0.3474(4)
C19_2 C 0.5613(5) 0.7494(4) 0.0631(5)
H7_2 H 0.551112 0.708451 0.002071
C22_2 C 0.6467(5) 0.8185(4) 0.0998(5)
C23_2 C 0.5949(5) 0.8666(4) 0.2473(5)
H8_2 H 0.908644 0.668588 0.000552
C26_2 C 0.4915(5) 0.7412(4) 0.1170(5)
C28_2 C 0.6643(5) 0.8773(4) 0.1910(5)
H10_2 H 0.722777 0.924492 0.214964
C29_2 C 0.5071(5) 0.8002(4) 0.2093(5)
H11_2 H 0.457725 0.794329 0.244884
C31_2 C 0.3930(5) 0.6727(4) 0.0709(5)
O11_2 O 0.8267(4) 0.9648(3) 0.6527(3)
O12_2 O 0.6488(3) 0.9484(3) 0.6461(3)
C17_2 C 0.7987(5) 0.7778(4) 0.9378(5)
C20_2 C 0.9416(5) 0.7313(4) 0.8789(5)
C21_2 C 0.7563(5) 0.9288(4) 0.6848(5)
C24_2 C 0.8859(5) 0.7186(4) 0.9471(5)
C25_2 C 0.7568(5) 0.8467(4) 0.8520(5)
H9_2 H 0.693243 0.885553 0.842991
C27_2 C 0.8080(4) 0.8581(4) 0.7802(4)
C32_2 C 0.9032(5) 0.8006(4) 0.7963(5)
H12_2 H 0.941305 0.809504 0.749925
O6_2 O 0.8973(4) 0.3135(4) 0.1553(4)
C14_2 C 0.9566(5) 0.3310(4) 0.1036(5)
loop_
_geom_bond_atom_site_label_1
_geom_bond_atom_site_label_2
_geom_bond_site_symmetry_1
_geom_bond_site_symmetry_2
O6 C14 1_555 1_555
O8 C14 1_555 1_555
Co10 O8 1_555 1_555
Co5 O4 1_555 1_555
Co8 O3 1_555 1_555
O1 C2 1_555 1_555
O2 C15 1_555 1_555
O3 C5 1_555 1_555
O4 C5 1_555 1_555
O5 C2 1_555 1_555
O7 C15 1_555 1_555
N1 N2 1_555 1_555
N2 C1 1_555 1_555
C1 C8 1_555 1_555
C2 C7 1_555 1_555
C3 H1 1_555 1_555
C4 C8 1_555 1_555
C5 C11 1_555 1_555
C6 N1 1_555 1_555
C7 C12 1_555 1_555
C8 H2 1_555 1_555
C9 C1 1_555 1_555
H3 C9 1_555 1_555
C10 C3 1_555 1_555
C11 C9 1_555 1_555
C12 C6 1_555 1_555
H4 C12 1_555 1_555
C13 C7 1_555 1_555
H5 C13 1_555 1_555
C15 C10 1_555 1_555
C16 C4 1_555 1_555
H6 C16 1_555 1_555
Co5_2 O1 1_555 1_555
Co7_2 O2 1_555 1_555
Co10 O2 1_555 1_555
O18 Co5 1_555 1_555
O19 Co5 1_555 1_555
O25 Co8 1_555 1_555
Co8 O19 1_555 1_555
O7 Co10 1_555 1_555
C3 C6 1_555 1_555
C10 C13 1_555 1_555
C11 C16 1_555 1_555
Co3 O11 1_555 1_555
O18 C18 1_555 1_555
O10 C31 1_555 1_555
O11 C21 1_555 1_555
O12 Co5_2 1_555 1_555
O22 C18 1_555 1_555
O15 C31 1_555 1_555
N3 N4 1_555 1_555
N4 C17 1_555 1_555
C17 C24 1_555 1_555
C18 C23 1_555 1_555
C19 H7 1_555 1_555
C20 C24 1_555 1_555
C21 O12 1_555 1_555
C22 N3 1_555 1_555
C23 C28 1_555 1_555
C24 H8 1_555 1_555
C25 C17 1_555 1_555
H9 C25 1_555 1_555
C26 C19 1_555 1_555
C27 C21 1_555 1_555
C28 C22 1_555 1_555
H10 C28 1_555 1_555
C29 C23 1_555 1_555
H11 C29 1_555 1_555
C31 C26 1_555 1_555
C32 C20 1_555 1_555
H12 C32 1_555 1_555
Co7 O10 1_555 1_555
Co13 O10 1_555 1_555
O20 Co5_2 1_555 1_555
O26 Co3 1_555 1_555
Co3 O20 1_555 1_555
O15 Co13 1_555 1_555
C19 C22 1_555 1_555
C25 C27 1_555 1_555
C26 C29 1_555 1_555
C27 C32 1_555 1_555
O14 C30 1_555 1_555
O16 C30 1_555 1_555
Co13 O16 1_555 1_555
O14_2 C30_2 1_555 1_555
O26 C30_2 1_555 1_555
Co7 O4_2 1_555 1_555
O3_2 C5_2 1_555 1_555
O4_2 C5_2 1_555 1_555
C1_2 C8_2 1_555 1_555
C4_2 C8_2 1_555 1_555
C5_2 C11_2 1_555 1_555
C9_2 C1_2 1_555 1_555
H3_2 C9_2 1_555 1_555
C11_2 C9_2 1_555 1_555
C16_2 C4_2 1_555 1_555
H6_2 C16_2 1_555 1_555
O17 Co7 1_555 1_555
C11_2 C16_2 1_555 1_555
O17 C2_2 1_555 1_555
O21 C2_2 1_555 1_555
O23 C15_2 1_555 1_555
N1_2 N2_2 1_555 1_555
C2_2 C7_2 1_555 1_555
C3_2 H1_2 1_555 1_555
C6_2 N1_2 1_555 1_555
C7_2 C12_2 1_555 1_555
C10_2 C3_2 1_555 1_555
C12_2 C6_2 1_555 1_555
H4_2 C12_2 1_555 1_555
C13_2 C7_2 1_555 1_555
H5_2 C13_2 1_555 1_555
C15_2 C10_2 1_555 1_555
C3_2 C6_2 1_555 1_555
C10_2 C13_2 1_555 1_555
O9 C18_2 1_555 1_555
O13 C18_2 1_555 1_555
O24 C31_2 1_555 1_555
N3_2 N4_2 1_555 1_555
C18_2 C23_2 1_555 1_555
C19_2 H7_2 1_555 1_555
C22_2 N3_2 1_555 1_555
C23_2 C28_2 1_555 1_555
C26_2 C19_2 1_555 1_555
C28_2 C22_2 1_555 1_555
H10_2 C28_2 1_555 1_555
C29_2 C23_2 1_555 1_555
H11_2 C29_2 1_555 1_555
C31_2 C26_2 1_555 1_555
Co7_2 O9 1_555 1_555
C19_2 C22_2 1_555 1_555
C26_2 C29_2 1_555 1_555
O11_2 C21_2 1_555 1_555
O12_2 Co7_2 1_555 1_555
C17_2 C24_2 1_555 1_555
C20_2 C24_2 1_555 1_555
C21_2 O12_2 1_555 1_555
C25_2 C17_2 1_555 1_555
H9_2 C25_2 1_555 1_555
C27_2 C21_2 1_555 1_555
C32_2 C20_2 1_555 1_555
H12_2 C32_2 1_555 1_555
C25_2 C27_2 1_555 1_555
C27_2 C32_2 1_555 1_555
O6_2 C14_2 1_555 1_555
O25 C14_2 1_555 1_555

#END
