
###############################################################################
#
# This file contains modified crystal structure data generated from the
# MOF subset of the Cambridge Structural Database (CSD) v543 
# hosted by the Cambridge Crystallographic Data Centre (CCDC).
#
# This work is licensed under the Creative Commons
# Attribution-NonCommercial-ShareAlike 4.0 International License.
# To view a copy of this license, visit
# http://creativecommons.org/licenses/by-nc-sa/4.0/
# or send a letter to
# Creative Commons, PO Box 1866, Mountain View, CA 94042, USA.
#
# CIF created using the CSD Python API on 29 September 2022
# The structure has been converted into the P1 space group
# The structure has a 3D framework
# The original CSD entry XOHCAA is in the monoclinic crystal system
# The framework has been calculated to contain at least 10.0% void space
# The void calculation uses a probe of radius 1.32A, grid spacing 0.4
#
###############################################################################

data_XOHCAA
_chemical_formula_moiety         '(C168 H112 Cd10 N32 O52)n'
_symmetry_cell_setting           triclinic
_symmetry_space_group_name_H-M   'P 1'
_symmetry_Int_Tables_number      1
_space_group_name_Hall           'P 1'
loop_
_symmetry_equiv_pos_site_id
_symmetry_equiv_pos_as_xyz
1 x,y,z
_cell_length_a                   16.6011(12)
_cell_length_b                   16.2848(12)
_cell_length_c                   19.7529(10)
_cell_angle_alpha                90
_cell_angle_beta                 118.741(4)
_cell_angle_gamma                90
_cell_volume                     4682.22
loop_
_atom_site_label
_atom_site_type_symbol
_atom_site_fract_x
_atom_site_fract_y
_atom_site_fract_z
C1 C 0.1208(8) 0.0077(9) 0.5468(7)
C3 C 0.1267(8) 0.0280(8) 0.4278(7)
C4 C 0.1167(9) 0.1124(8) 0.4329(8)
H2 H 0.1132 0.1474 0.3943
C5 C 0.1123(10) 0.1426(10) 0.4953(8)
H3 H 0.1082 0.1991 0.4999
C6 C 0.1136(9) 0.0917(9) 0.5523(8)
H4 H 0.1096 0.1140 0.5940
C13 C 0.3607(8) 0.0904(8) 0.5911(7)
C14 C 0.3731(8) 0.0772(8) 0.5275(7)
H9 H 0.3800 0.1220 0.5015
C18 C 0.3553(8) 0.0228(9) 0.6312(7)
H12 H 0.3486 0.0301 0.6749
C19 C 0.3434(11) 0.2461(10) 0.5764(9)
H13 H 0.3402 0.2501 0.5282
C20 C 0.3492(10) 0.2812(9) 0.6796(9)
H14 H 0.3516 0.3117 0.7203
C21 C 0.3559(9) 0.1751(9) 0.6142(7)
C22 C 0.3983(11) 0.0191(10) 0.3307(8)
H15 H 0.4071 0.0505 0.2955
N3 N 0.1390(10) 0.0315(8) 0.3054(6)
H23 H 0.1383 0.0834 0.3003
H24 H 0.1122 0.0225 0.6798
N5 N 0.3591(11) 0.1988(9) 0.6796(8)
H25 H 0.3664 0.1665 0.7165
N6 N 0.3360(7) 0.3111(7) 0.6148(6)
N7 N 0.3965(9) 0.0491(8) 0.3911(7)
H26 H 0.4033 0.1001 0.4040
Cd7 Cd 0.29775(6) 0.43719(6) 0.56979(5)
Cd1 Cd 0.14695(6) 0.78294(6) 0.22875(5)
Cd2 Cd 0.36519(5) 0.86215(6) 0.22719(5)
C2 C 0.1270(8) 0.9782(8) 0.4832(7)
H1 H 0.1316 0.9218 0.4785
C7 C 0.1251(9) 0.9062(9) 0.7099(7)
H5 H 0.1227 0.9068 0.7560
C8 C 0.1344(9) 0.8678(8) 0.6120(8)
H6 H 0.1394 0.8339 0.5763
C9 C 0.1261(7) 0.9498(8) 0.6050(6)
C10 C 0.1465(11) 0.9772(10) 0.2584(7)
H7 H 0.1486 0.9909 0.2136
C11 C 0.1424(9) 0.9110(9) 0.3484(7)
H8 H 0.1428 0.8677 0.3792
C12 C 0.1340(9) 0.9908(9) 0.3625(7)
C15 C 0.3754(8) 0.9994(8) 0.5021(7)
C16 C 0.3693(9) 0.9333(9) 0.5427(8)
H10 H 0.3718 0.8803 0.5262
C17 C 0.3599(9) 0.9442(9) 0.6065(8)
H11 H 0.3565 0.8990 0.6337
C23 C 0.3781(8) 0.9197(8) 0.3901(7)
H16 H 0.3700 0.8667 0.4033
C24 C 0.3836(8) 0.9874(8) 0.4312(7)
C25 C 0.4717(8) 0.4996(8) 0.3455(6)
C26 C 0.4493(7) 0.5799(7) 0.3192(6)
H17 H 0.4759 0.6046 0.2923
C27 C 0.3872(8) 0.6227(8) 0.3333(7)
C28 C 0.3510(8) 0.5878(8) 0.3768(7)
H18 H 0.3097 0.6174 0.3865
C29 C 0.3762(8) 0.5090(9) 0.4061(7)
C30 C 0.4357(7) 0.4666(8) 0.3896(7)
H19 H 0.4526 0.4136 0.4088
C31 C 0.5346(6) 0.4532(7) 0.3250(6)
C32 C 0.3601(8) 0.7085(8) 0.2994(7)
C33 C 0.3445(8) 0.4762(10) 0.4593(7)
C36 C 0.1146(8) 0.8470(8) 0.0187(7)
C37 C 0.0350(8) 0.8763(7) 0.0165(7)
H21 H 0.0356 0.8937 0.0616
C41 C 0.2005(8) 0.8458(7) 0.0926(7)
N1 N 0.1188(8) 0.9735(7) 0.6685(6)
N2 N 0.1349(7) 0.8396(6) 0.6776(5)
N4 N 0.1504(6) 0.9019(7) 0.2832(5)
N8 N 0.3862(7) 0.9396(7) 0.3255(6)
O1 O 0.5153(5) 0.3806(5) 0.3030(5)
O2 O 0.6020(5) 0.4891(5) 0.3263(5)
O3 O 0.3973(7) 0.7361(6) 0.2639(6)
O4 O 0.3014(6) 0.7478(6) 0.3109(5)
O5 O 0.3064(7) 0.5222(8) 0.4856(6)
O6 O 0.3589(6) 0.4037(6) 0.4800(5)
O9 O 0.2773(6) 0.8351(7) 0.0946(6)
O10 O 0.2003(5) 0.8552(5) 0.1564(4)
Cd5 Cd 0.14695(6) 0.71706(6) 0.72875(5)
Cd6 Cd 0.63481(5) 0.36215(6) 0.27281(5)
Cd9 Cd 0.70225(6) 0.56281(6) 0.43021(5)
N9 N 0.1349(7) 0.6604(6) 0.1776(5)
O14 O 0.4847(5) 0.8806(5) 0.1970(5)
O15 O 0.3980(5) 0.9891(5) 0.1737(5)
O16 O 0.3980(5) 0.5109(5) 0.6737(5)
O17 O 0.1073(6) 0.7256(6) 0.3138(5)
O18 O 0.1393(6) 0.4031(8) 0.4949(5)
O19 O 0.1928(6) 0.4390(6) 0.6151(5)
C34 C 0.0335(8) 0.8217(8) 0.8827(6)
C35 C 0.1138(8) 0.8212(8) 0.9522(7)
H20 H 0.1680 0.8032 0.9540
C40 C 0.0321(9) 0.7898(9) 0.8097(7)
O7 O 0.1073(6) 0.7744(6) 0.8138(5)
O11 O 0.8607(6) 0.9031(8) 0.0051(5)
O13 O 0.9850(7) 0.8055(7) 0.1460(6)
H27 H 0.9768 0.8540 0.1280
H28 H 0.9569 0.7997 0.1721
C38 C 0.9553(7) 0.8794(7) 0.9475(6)
C39 C 0.9533(9) 0.8504(8) 0.8807(7)
H22 H 0.8984 0.8500 0.8345
C42 C 0.8692(8) 0.9099(9) 0.9460(8)
O8 O 0.9573(7) 0.7836(10) 0.7512(6)
O12 O 0.8072(6) 0.9390(6) 0.8849(5)
Cd8 Cd 0.70225(6) 0.93719(6) 0.93021(5)
C38_2 C 0.0447(7) 0.3794(7) 0.5525(6)
C39_2 C 0.0467(9) 0.3504(8) 0.6193(7)
H22_2 H 0.1016 0.3500 0.6655
C42_2 C 0.1308(8) 0.4099(9) 0.5540(8)
O8_2 O 0.0427(7) 0.2836(10) 0.7488(6)
O13_2 O 0.0150(7) 0.3055(7) 0.3540(6)
H27_2 H 0.0232 0.3540 0.3720
H28_2 H 0.0431 0.2997 0.3279
Cd1_2 Cd 0.85305(6) 0.28294(6) 0.27125(5)
C2_2 C 0.8730(8) 0.4782(8) 0.0168(7)
H1_2 H 0.8684 0.4218 0.0215
C3_2 C 0.8733(8) 0.5280(8) 0.0722(7)
C4_2 C 0.8833(9) 0.6124(8) 0.0671(8)
H2_2 H 0.8868 0.6474 0.1057
C5_2 C 0.8877(10) 0.6426(10) 0.0047(8)
H3_2 H 0.8918 0.6991 0.0001
C10_2 C 0.8535(11) 0.4772(10) 0.2416(7)
H7_2 H 0.8514 0.4909 0.2864
C11_2 C 0.8576(9) 0.4110(9) 0.1516(7)
H8_2 H 0.8572 0.3677 0.1208
C12_2 C 0.8660(9) 0.4908(9) 0.1375(7)
C22_2 C 0.6017(11) 0.5191(10) 0.1693(8)
H15_2 H 0.5929 0.5505 0.2045
C23_2 C 0.6219(8) 0.4197(8) 0.1099(7)
H16_2 H 0.6300 0.3667 0.0967
C24_2 C 0.6164(8) 0.4874(8) 0.0688(7)
C26_2 C 0.5507(7) 0.0799(7) 0.1808(6)
H17_2 H 0.5241 0.1046 0.2077
C27_2 C 0.6128(8) 0.1227(8) 0.1667(7)
C28_2 C 0.6490(8) 0.0878(8) 0.1232(7)
H18_2 H 0.6903 0.1174 0.1135
C29_2 C 0.6238(8) 0.0090(9) 0.0939(7)
C32_2 C 0.6399(8) 0.2085(8) 0.2006(7)
C34_2 C 0.9665(8) 0.3217(8) 0.6173(6)
C35_2 C 0.8862(8) 0.3212(8) 0.5478(7)
H20_2 H 0.8320 0.3032 0.5460
C36_2 C 0.8854(8) 0.3470(8) 0.4813(7)
C37_2 C 0.9650(8) 0.3763(7) 0.4835(7)
H21_2 H 0.9644 0.3937 0.4384
C40_2 C 0.9679(9) 0.2898(9) 0.6903(7)
C41_2 C 0.7995(8) 0.3458(7) 0.4074(7)
N3_2 N 0.8610(10) 0.5315(8) 0.1946(6)
N4_2 N 0.8496(6) 0.4019(7) 0.2168(5)
H23_2 H 0.8617 0.5834 0.1997
N7_2 N 0.6035(9) 0.5491(8) 0.1089(7)
H26_2 H 0.5967 0.6001 0.0960
N8_2 N 0.6138(7) 0.4396(7) 0.1745(6)
O3_2 O 0.6027(7) 0.2361(6) 0.2361(6)
O4_2 O 0.6986(6) 0.2478(6) 0.1891(5)
O5_2 O 0.6936(7) 0.0222(8) 0.0144(6)
O7_2 O 0.8927(6) 0.2744(6) 0.6862(5)
O9_2 O 0.7227(6) 0.3351(7) 0.4054(6)
O10_2 O 0.7997(5) 0.3552(5) 0.3436(4)
Cd4 Cd 0.85305(6) 0.21706(6) 0.77125(5)
Cd9_2 Cd 0.29775(6) 0.06281(6) 0.06979(5)
N9_2 N 0.8651(7) 0.1604(6) 0.3224(5)
O17_2 O 0.8927(6) 0.2256(6) 0.1862(5)
C1_2 C 0.8792(8) 0.5077(9) 0.9532(7)
C6_2 C 0.8864(9) 0.5917(9) 0.9477(8)
H4_2 H 0.8904 0.6140 0.9060
C7_2 C 0.8749(9) 0.4062(9) 0.7901(7)
H5_2 H 0.8773 0.4068 0.7440
C8_2 C 0.8656(9) 0.3678(8) 0.8880(8)
H6_2 H 0.8606 0.3339 0.9237
C9_2 C 0.8739(7) 0.4498(8) 0.8950(6)
C13_2 C 0.6393(8) 0.5904(8) 0.9089(7)
C14_2 C 0.6269(8) 0.5772(8) 0.9725(7)
H9_2 H 0.6200 0.6220 0.9985
C15_2 C 0.6246(8) 0.4994(8) 0.9979(7)
C16_2 C 0.6307(9) 0.4333(9) 0.9573(8)
H10_2 H 0.6282 0.3803 0.9738
C17_2 C 0.6401(9) 0.4442(9) 0.8935(8)
H11_2 H 0.6435 0.3990 0.8663
C18_2 C 0.6447(8) 0.5228(9) 0.8688(7)
H12_2 H 0.6514 0.5301 0.8251
C19_2 C 0.6566(11) 0.7461(10) 0.9236(9)
H13_2 H 0.6598 0.7501 0.9718
C20_2 C 0.6508(10) 0.7812(9) 0.8204(9)
H14_2 H 0.6484 0.8117 0.7797
C21_2 C 0.6441(9) 0.6751(9) 0.8858(7)
N1_2 N 0.8812(8) 0.4735(7) 0.8315(6)
N2_2 N 0.8651(7) 0.3396(6) 0.8224(5)
H24_2 H 0.8878 0.5225 0.8202
N5_2 N 0.6409(11) 0.6988(9) 0.8204(8)
H25_2 H 0.6336 0.6665 0.7835
N6_2 N 0.6640(7) 0.8111(7) 0.8852(6)
O16_2 O 0.6020(5) 0.0109(5) 0.8263(5)
C25_2 C 0.5283(8) 0.9996(8) 0.1545(6)
C30_2 C 0.5643(7) 0.9666(8) 0.1104(7)
H19_2 H 0.5474 0.9136 0.0912
C31_2 C 0.4654(6) 0.9532(7) 0.1750(6)
C33_2 C 0.6555(8) 0.9762(10) 0.0407(7)
O6_2 O 0.6411(6) 0.9037(6) 0.0200(5)
C38_3 C 0.0447(7) 0.1206(7) 0.0525(6)
C39_3 C 0.0467(9) 0.1496(8) 0.1193(7)
H22_3 H 0.1016 0.1500 0.1655
C42_3 C 0.1308(8) 0.0901(9) 0.0540(8)
O8_3 O 0.0427(7) 0.2164(10) 0.2488(6)
O12_2 O 0.1928(6) 0.0610(6) 0.1151(5)
O11_2 O 0.1393(6) 0.0969(8) 0.9949(5)
O13_3 O 0.0150(7) 0.1945(7) 0.8540(6)
H27_3 H 0.0232 0.1460 0.8720
H28_3 H 0.0431 0.2003 0.8279
C34_3 C 0.9665(8) 0.1783(8) 0.1173(6)
C35_3 C 0.8862(8) 0.1788(8) 0.0478(7)
H20_3 H 0.8320 0.1968 0.0460
C40_3 C 0.9679(9) 0.2102(9) 0.1903(7)
Cd2_2 Cd 0.63481(5) 0.13785(6) 0.77281(5)
C2_3 C 0.8730(8) 0.0218(8) 0.5168(7)
H1_3 H 0.8684 0.0782 0.5215
C7_3 C 0.8749(9) 0.0938(9) 0.2901(7)
H5_3 H 0.8773 0.0932 0.2440
C8_3 C 0.8656(9) 0.1322(8) 0.3880(8)
H6_3 H 0.8606 0.1661 0.4237
C9_3 C 0.8739(7) 0.0502(8) 0.3950(6)
C10_3 C 0.8535(11) 0.0228(10) 0.7416(7)
H7_3 H 0.8514 0.0091 0.7864
C11_3 C 0.8576(9) 0.0890(9) 0.6516(7)
H8_3 H 0.8572 0.1323 0.6208
C12_3 C 0.8660(9) 0.0092(9) 0.6375(7)
C15_3 C 0.6246(8) 0.0006(8) 0.4979(7)
C16_3 C 0.6307(9) 0.0667(9) 0.4573(8)
H10_3 H 0.6282 0.1197 0.4738
C17_3 C 0.6401(9) 0.0558(9) 0.3935(8)
H11_3 H 0.6435 0.1010 0.3663
C23_3 C 0.6219(8) 0.0803(8) 0.6099(7)
H16_3 H 0.6300 0.1333 0.5967
C24_3 C 0.6164(8) 0.0126(8) 0.5688(7)
C25_3 C 0.5283(8) 0.5004(8) 0.6545(6)
C26_3 C 0.5507(7) 0.4201(7) 0.6808(6)
H17_3 H 0.5241 0.3954 0.7077
C27_3 C 0.6128(8) 0.3773(8) 0.6667(7)
C28_3 C 0.6490(8) 0.4122(8) 0.6232(7)
H18_3 H 0.6903 0.3826 0.6135
C29_3 C 0.6238(8) 0.4910(9) 0.5939(7)
C30_3 C 0.5643(7) 0.5334(8) 0.6104(7)
H19_3 H 0.5474 0.5864 0.5912
C31_3 C 0.4654(6) 0.5468(7) 0.6750(6)
C32_3 C 0.6399(8) 0.2915(8) 0.7006(7)
C33_3 C 0.6555(8) 0.5238(10) 0.5407(7)
C36_3 C 0.8854(8) 0.1530(8) 0.9813(7)
C37_3 C 0.9650(8) 0.1237(7) 0.9835(7)
H21_3 H 0.9644 0.1063 0.9384
C41_3 C 0.7995(8) 0.1542(7) 0.9074(7)
N1_3 N 0.8812(8) 0.0265(7) 0.3315(6)
N4_3 N 0.8496(6) 0.0981(7) 0.7168(5)
N8_3 N 0.6138(7) 0.0604(7) 0.6745(6)
O1_2 O 0.4847(5) 0.6194(5) 0.6970(5)
O3_3 O 0.6027(7) 0.2639(6) 0.7361(6)
O4_3 O 0.6986(6) 0.2522(6) 0.6891(5)
O5_3 O 0.6936(7) 0.4778(8) 0.5144(6)
O6_3 O 0.6411(6) 0.5963(6) 0.5200(5)
O9_3 O 0.7227(6) 0.1649(7) 0.9054(6)
O10_3 O 0.7997(5) 0.1448(5) 0.8436(4)
Cd6_2 Cd 0.36519(5) 0.63785(6) 0.72719(5)
N10 N 0.6640(7) 0.6889(7) 0.3852(6)
O14_2 O 0.5153(5) 0.1194(5) 0.8030(5)
O18_2 O 0.8607(6) 0.5969(8) 0.5051(5)
O19_2 O 0.8072(6) 0.5610(6) 0.3849(5)
C1_3 C 0.8792(8) 0.9923(9) 0.4532(7)
C3_3 C 0.8733(8) 0.9720(8) 0.5722(7)
C4_3 C 0.8833(9) 0.8876(8) 0.5671(8)
H2_3 H 0.8868 0.8526 0.6057
C5_3 C 0.8877(10) 0.8574(10) 0.5047(8)
H3_3 H 0.8918 0.8009 0.5001
C6_3 C 0.8864(9) 0.9083(9) 0.4477(8)
H4_3 H 0.8904 0.8860 0.4060
C13_3 C 0.6393(8) 0.9096(8) 0.4089(7)
C14_3 C 0.6269(8) 0.9228(8) 0.4725(7)
H9_3 H 0.6200 0.8780 0.4985
C18_3 C 0.6447(8) 0.9772(9) 0.3688(7)
H12_3 H 0.6514 0.9699 0.3251
C19_3 C 0.6566(11) 0.7539(10) 0.4236(9)
H13_3 H 0.6598 0.7499 0.4718
C20_3 C 0.6508(10) 0.7188(9) 0.3204(9)
H14_3 H 0.6484 0.6883 0.2797
C21_3 C 0.6441(9) 0.8249(9) 0.3858(7)
C22_3 C 0.6017(11) 0.9809(10) 0.6693(8)
H15_3 H 0.5929 0.9495 0.7045
N3_3 N 0.8610(10) 0.9685(8) 0.6946(6)
H23_3 H 0.8617 0.9166 0.6997
H24_3 H 0.8878 0.9775 0.3202
N5_3 N 0.6409(11) 0.8012(9) 0.3204(8)
H25_3 H 0.6336 0.8335 0.2835
N7_3 N 0.6035(9) 0.9509(8) 0.6089(7)
H26_3 H 0.5967 0.8999 0.5960
N10_2 N 0.3360(7) 0.1889(7) 0.1148(6)
C25_4 C 0.4717(8) 0.0004(8) 0.8455(6)
C30_4 C 0.4357(7) 0.0334(8) 0.8896(7)
H19_4 H 0.4526 0.0864 0.9088
C31_4 C 0.5346(6) 0.0468(7) 0.8250(6)
C33_4 C 0.3445(8) 0.0238(10) 0.9593(7)
O6_4 O 0.3589(6) 0.0963(6) 0.9800(5)
C1_4 C 0.1208(8) 0.4923(9) 0.0468(7)
C6_4 C 0.1136(9) 0.4083(9) 0.0523(8)
H4_4 H 0.1096 0.3860 0.0940
C7_4 C 0.1251(9) 0.5938(9) 0.2099(7)
H5_4 H 0.1227 0.5932 0.2560
C8_4 C 0.1344(9) 0.6322(8) 0.1120(8)
H6_4 H 0.1394 0.6661 0.0763
C9_4 C 0.1261(7) 0.5502(8) 0.1050(6)
C13_4 C 0.3607(8) 0.4096(8) 0.0911(7)
C14_4 C 0.3731(8) 0.4228(8) 0.0275(7)
H9_4 H 0.3800 0.3780 0.0015
C15_4 C 0.3754(8) 0.5006(8) 0.0021(7)
C16_4 C 0.3693(9) 0.5667(9) 0.0427(8)
H10_4 H 0.3718 0.6197 0.0262
C17_4 C 0.3599(9) 0.5558(9) 0.1065(8)
H11_4 H 0.3565 0.6010 0.1337
C18_4 C 0.3553(8) 0.4772(9) 0.1312(7)
H12_4 H 0.3486 0.4699 0.1749
C19_4 C 0.3434(11) 0.2539(10) 0.0764(9)
H13_4 H 0.3402 0.2499 0.0282
C20_4 C 0.3492(10) 0.2188(9) 0.1796(9)
H14_4 H 0.3516 0.1883 0.2203
C21_4 C 0.3559(9) 0.3249(9) 0.1142(7)
N1_4 N 0.1188(8) 0.5265(7) 0.1685(6)
H24_4 H 0.1122 0.4775 0.1798
N5_4 N 0.3591(11) 0.3012(9) 0.1796(8)
H25_4 H 0.3664 0.3335 0.2165
C2_4 C 0.1270(8) 0.5218(8) 0.9832(7)
H1_4 H 0.1316 0.5782 0.9785
C3_4 C 0.1267(8) 0.4720(8) 0.9278(7)
C4_4 C 0.1167(9) 0.3876(8) 0.9329(8)
H2_4 H 0.1132 0.3526 0.8943
C5_4 C 0.1123(10) 0.3574(10) 0.9953(8)
H3_4 H 0.1082 0.3009 0.9999
C10_4 C 0.1465(11) 0.5228(10) 0.7584(7)
H7_4 H 0.1486 0.5091 0.7136
C11_4 C 0.1424(9) 0.5890(9) 0.8484(7)
H8_4 H 0.1428 0.6323 0.8792
C12_4 C 0.1340(9) 0.5092(9) 0.8625(7)
C22_4 C 0.3983(11) 0.4809(10) 0.8307(8)
H15_4 H 0.4071 0.4495 0.7955
C23_4 C 0.3781(8) 0.5803(8) 0.8901(7)
H16_4 H 0.3700 0.6333 0.9033
C24_4 C 0.3836(8) 0.5126(8) 0.9312(7)
C26_4 C 0.4493(7) 0.9201(7) 0.8192(6)
H17_4 H 0.4759 0.8954 0.7923
C27_4 C 0.3872(8) 0.8773(8) 0.8333(7)
C28_4 C 0.3510(8) 0.9122(8) 0.8768(7)
H18_4 H 0.3097 0.8826 0.8865
C29_4 C 0.3762(8) 0.9910(9) 0.9061(7)
C32_4 C 0.3601(8) 0.7915(8) 0.7994(7)
C34_4 C 0.0335(8) 0.6783(8) 0.3827(6)
C35_4 C 0.1138(8) 0.6788(8) 0.4522(7)
H20_4 H 0.1680 0.6968 0.4540
C36_4 C 0.1146(8) 0.6530(8) 0.5187(7)
C37_4 C 0.0350(8) 0.6237(7) 0.5165(7)
H21_4 H 0.0356 0.6063 0.5616
C40_4 C 0.0321(9) 0.7102(9) 0.3097(7)
C41_4 C 0.2005(8) 0.6542(7) 0.5926(7)
N3_4 N 0.1390(10) 0.4685(8) 0.8054(6)
N4_4 N 0.1504(6) 0.5981(7) 0.7832(5)
H23_4 H 0.1383 0.4166 0.8003
N7_4 N 0.3965(9) 0.4509(8) 0.8911(7)
H26_4 H 0.4033 0.3999 0.9040
N8_4 N 0.3862(7) 0.5604(7) 0.8255(6)
O3_4 O 0.3973(7) 0.7639(6) 0.7639(6)
O4_4 O 0.3014(6) 0.7522(6) 0.8109(5)
O5_4 O 0.3064(7) 0.9778(8) 0.9856(6)
O9_4 O 0.2773(6) 0.6649(7) 0.5946(6)
O10_4 O 0.2003(5) 0.6448(5) 0.6564(4)
C38_4 C 0.9553(7) 0.6206(7) 0.4475(6)
C39_4 C 0.9533(9) 0.6496(8) 0.3807(7)
H22_4 H 0.8984 0.6500 0.3345
C42_4 C 0.8692(8) 0.5901(9) 0.4460(8)
O8_4 O 0.9573(7) 0.7164(10) 0.2512(6)
O13_4 O 0.9850(7) 0.6945(7) 0.6460(6)
H27_4 H 0.9768 0.6460 0.6280
H28_4 H 0.9569 0.7003 0.6721
loop_
_geom_bond_atom_site_label_1
_geom_bond_atom_site_label_2
_geom_bond_site_symmetry_1
_geom_bond_site_symmetry_2
C4 C3 1_555 1_555
H2 C4 1_555 1_555
C5 C4 1_555 1_555
H3 C5 1_555 1_555
C6 C1 1_555 1_555
H4 C6 1_555 1_555
C13 C14 1_555 1_555
C14 H9 1_555 1_555
C18 C13 1_555 1_555
H12 C18 1_555 1_555
C19 H13 1_555 1_555
C20 H14 1_555 1_555
C21 C13 1_555 1_555
C22 H15 1_555 1_555
H23 N3 1_555 1_555
N5 C20 1_555 1_555
H25 N5 1_555 1_555
N6 C19 1_555 1_555
N7 C22 1_555 1_555
H26 N7 1_555 1_555
Cd7 N6 1_555 1_555
C5 C6 1_555 1_555
C19 C21 1_555 1_555
C20 N6 1_555 1_555
C21 N5 1_555 1_555
Cd1 N4 1_555 1_555
Cd2 N8 1_555 1_555
Cd7 O5 1_555 1_555
C2 H1 1_555 1_555
C7 H5 1_555 1_555
C8 H6 1_555 1_555
C10 H7 1_555 1_555
C11 H8 1_555 1_555
C16 C15 1_555 1_555
H10 C16 1_555 1_555
C17 C16 1_555 1_555
H11 C17 1_555 1_555
C23 H16 1_555 1_555
C24 C15 1_555 1_555
C25 C26 1_555 1_555
C26 H17 1_555 1_555
C27 C26 1_555 1_555
C28 C27 1_555 1_555
H18 C28 1_555 1_555
C29 C28 1_555 1_555
C30 C25 1_555 1_555
H19 C30 1_555 1_555
C31 C25 1_555 1_555
C32 C27 1_555 1_555
C33 C29 1_555 1_555
C37 C36 1_555 1_555
H21 C37 1_555 1_555
C41 C36 1_555 1_555
N1 C7 1_555 1_555
N2 C7 1_555 1_555
N4 C10 1_555 1_555
O1 C31 1_555 1_555
O2 C31 1_555 1_555
O3 Cd2 1_555 1_555
O4 Cd1 1_555 1_555
O5 C33 1_555 1_555
O6 Cd7 1_555 1_555
O9 Cd2 1_555 1_555
O10 Cd1 1_555 1_555
Cd5 N2 1_555 1_555
Cd6 O1 1_555 1_555
Cd9 O2 1_555 1_555
N9 Cd1 1_555 1_555
O14 Cd2 1_555 1_555
O15 Cd2 1_555 1_555
O16 Cd7 1_555 1_555
O17 Cd1 1_555 1_555
O18 Cd7 1_555 1_555
O19 Cd7 1_555 1_555
Cd2 O10 1_555 1_555
C8 C9 1_555 1_555
C8 N2 1_555 1_555
C9 N1 1_555 1_555
C11 C12 1_555 1_555
C11 N4 1_555 1_555
C23 C24 1_555 1_555
C23 N8 1_555 1_555
C29 C30 1_555 1_555
C32 O3 1_555 1_555
C32 O4 1_555 1_555
C33 O6 1_555 1_555
C41 O9 1_555 1_555
C41 O10 1_555 1_555
O2 Cd6 1_555 1_555
C34 C35 1_555 1_555
C35 H20 1_555 1_555
C40 C34 1_555 1_555
O7 C40 1_555 1_555
Cd5 O7 1_555 1_555
H27 O13 1_555 1_555
H28 O13 1_555 1_555
H22 C39 1_555 1_555
C42 C38 1_555 1_555
O12 C42 1_555 1_555
C38 C39 1_555 1_555
O12 Cd8 1_555 1_555
H22_2 C39_2 1_555 1_555
C42_2 C38_2 1_555 1_555
O18 C42_2 1_555 1_555
O19 C42_2 1_555 1_555
H27_2 O13_2 1_555 1_555
H28_2 O13_2 1_555 1_555
C38_2 C39_2 1_555 1_555
Cd1_2 N4_2 1_555 1_555
Cd6 N8_2 1_555 1_555
C2_2 H1_2 1_555 1_555
C3_2 C2_2 1_555 1_555
C4_2 C3_2 1_555 1_555
H2_2 C4_2 1_555 1_555
C5_2 C4_2 1_555 1_555
H3_2 C5_2 1_555 1_555
C10_2 H7_2 1_555 1_555
C11_2 H8_2 1_555 1_555
C12_2 C3_2 1_555 1_555
C22_2 H15_2 1_555 1_555
C23_2 H16_2 1_555 1_555
C26_2 H17_2 1_555 1_555
C27_2 C26_2 1_555 1_555
C28_2 C27_2 1_555 1_555
H18_2 C28_2 1_555 1_555
C29_2 C28_2 1_555 1_555
C32_2 C27_2 1_555 1_555
C34_2 C35_2 1_555 1_555
C35_2 H20_2 1_555 1_555
C36_2 C35_2 1_555 1_555
C37_2 C36_2 1_555 1_555
H21_2 C37_2 1_555 1_555
C40_2 C34_2 1_555 1_555
C41_2 C36_2 1_555 1_555
N3_2 C10_2 1_555 1_555
N4_2 C10_2 1_555 1_555
H23_2 N3_2 1_555 1_555
N7_2 C22_2 1_555 1_555
H26_2 N7_2 1_555 1_555
N8_2 C22_2 1_555 1_555
O3_2 Cd6 1_555 1_555
O4_2 Cd1_2 1_555 1_555
O7_2 C40_2 1_555 1_555
O9_2 Cd6 1_555 1_555
O10_2 Cd1_2 1_555 1_555
Cd4 O7_2 1_555 1_555
N9_2 Cd1_2 1_555 1_555
O17_2 Cd1_2 1_555 1_555
Cd6 O10_2 1_555 1_555
C11_2 C12_2 1_555 1_555
C11_2 N4_2 1_555 1_555
C12_2 N3_2 1_555 1_555
C23_2 C24_2 1_555 1_555
C23_2 N8_2 1_555 1_555
C24_2 N7_2 1_555 1_555
C32_2 O3_2 1_555 1_555
C32_2 O4_2 1_555 1_555
C41_2 O9_2 1_555 1_555
C41_2 O10_2 1_555 1_555
C6_2 C1_2 1_555 1_555
H4_2 C6_2 1_555 1_555
C7_2 H5_2 1_555 1_555
C8_2 H6_2 1_555 1_555
C9_2 C1_2 1_555 1_555
C13_2 C14_2 1_555 1_555
C14_2 H9_2 1_555 1_555
C15_2 C14_2 1_555 1_555
C16_2 C15_2 1_555 1_555
H10_2 C16_2 1_555 1_555
C17_2 C16_2 1_555 1_555
H11_2 C17_2 1_555 1_555
C18_2 C13_2 1_555 1_555
H12_2 C18_2 1_555 1_555
C19_2 H13_2 1_555 1_555
C20_2 H14_2 1_555 1_555
C21_2 C13_2 1_555 1_555
N1_2 C7_2 1_555 1_555
N2_2 C7_2 1_555 1_555
H24_2 N1_2 1_555 1_555
N5_2 C20_2 1_555 1_555
H25_2 N5_2 1_555 1_555
N6_2 C19_2 1_555 1_555
Cd4 N2_2 1_555 1_555
Cd8 N6_2 1_555 1_555
C8_2 C9_2 1_555 1_555
C8_2 N2_2 1_555 1_555
C9_2 N1_2 1_555 1_555
C17_2 C18_2 1_555 1_555
C19_2 C21_2 1_555 1_555
C20_2 N6_2 1_555 1_555
C21_2 N5_2 1_555 1_555
C30_2 C25_2 1_555 1_555
H19_2 C30_2 1_555 1_555
C31_2 C25_2 1_555 1_555
O14 C31_2 1_555 1_555
O15 C31_2 1_555 1_555
C33_2 O6_2 1_555 1_555
H22_3 C39_3 1_555 1_555
C42_3 C38_3 1_555 1_555
O12_2 C42_3 1_555 1_555
C38_3 C39_3 1_555 1_555
O12_2 Cd9_2 1_555 1_555
H27_3 O13_3 1_555 1_555
H28_3 O13_3 1_555 1_555
C34_3 C35_3 1_555 1_555
C35_3 H20_3 1_555 1_555
C40_3 C34_3 1_555 1_555
O17_2 C40_3 1_555 1_555
Cd4 N4_3 1_555 1_555
Cd2_2 N8_3 1_555 1_555
Cd9 O5_3 1_555 1_555
C2_3 H1_3 1_555 1_555
C7_3 H5_3 1_555 1_555
C8_3 H6_3 1_555 1_555
C10_3 H7_3 1_555 1_555
C11_3 H8_3 1_555 1_555
C16_3 C15_3 1_555 1_555
H10_3 C16_3 1_555 1_555
C17_3 C16_3 1_555 1_555
H11_3 C17_3 1_555 1_555
C23_3 H16_3 1_555 1_555
C24_3 C15_3 1_555 1_555
C25_3 C26_3 1_555 1_555
C26_3 H17_3 1_555 1_555
C27_3 C26_3 1_555 1_555
C28_3 C27_3 1_555 1_555
H18_3 C28_3 1_555 1_555
C29_3 C28_3 1_555 1_555
C30_3 C25_3 1_555 1_555
H19_3 C30_3 1_555 1_555
C31_3 C25_3 1_555 1_555
C32_3 C27_3 1_555 1_555
C33_3 C29_3 1_555 1_555
C37_3 C36_3 1_555 1_555
H21_3 C37_3 1_555 1_555
C41_3 C36_3 1_555 1_555
N1_3 C7_3 1_555 1_555
N9_2 C7_3 1_555 1_555
N4_3 C10_3 1_555 1_555
O1_2 C31_3 1_555 1_555
O16 C31_3 1_555 1_555
O3_3 Cd2_2 1_555 1_555
O4_3 Cd4 1_555 1_555
O5_3 C33_3 1_555 1_555
O6_3 Cd9 1_555 1_555
O9_3 Cd2_2 1_555 1_555
O10_3 Cd4 1_555 1_555
Cd6_2 O1_2 1_555 1_555
N10 Cd9 1_555 1_555
O14_2 Cd2_2 1_555 1_555
O16_2 Cd2_2 1_555 1_555
O18_2 Cd9 1_555 1_555
O19_2 Cd9 1_555 1_555
Cd2_2 O10_3 1_555 1_555
C8_3 C9_3 1_555 1_555
C8_3 N9_2 1_555 1_555
C9_3 N1_3 1_555 1_555
C11_3 C12_3 1_555 1_555
C11_3 N4_3 1_555 1_555
C23_3 C24_3 1_555 1_555
C23_3 N8_3 1_555 1_555
C29_3 C30_3 1_555 1_555
C32_3 O3_3 1_555 1_555
C32_3 O4_3 1_555 1_555
C33_3 O6_3 1_555 1_555
C41_3 O9_3 1_555 1_555
C41_3 O10_3 1_555 1_555
O16 Cd6_2 1_555 1_555
C4_3 C3_3 1_555 1_555
H2_3 C4_3 1_555 1_555
C5_3 C4_3 1_555 1_555
H3_3 C5_3 1_555 1_555
C6_3 C1_3 1_555 1_555
H4_3 C6_3 1_555 1_555
C13_3 C14_3 1_555 1_555
C14_3 H9_3 1_555 1_555
C18_3 C13_3 1_555 1_555
H12_3 C18_3 1_555 1_555
C19_3 H13_3 1_555 1_555
C20_3 H14_3 1_555 1_555
C21_3 C13_3 1_555 1_555
C22_3 H15_3 1_555 1_555
H23_3 N3_3 1_555 1_555
N5_3 C20_3 1_555 1_555
H25_3 N5_3 1_555 1_555
N10 C19_3 1_555 1_555
N7_3 C22_3 1_555 1_555
H26_3 N7_3 1_555 1_555
C5_3 C6_3 1_555 1_555
C19_3 C21_3 1_555 1_555
C20_3 N10 1_555 1_555
C21_3 N5_3 1_555 1_555
N10_2 Cd9_2 1_555 1_555
C30_4 C25_4 1_555 1_555
H19_4 C30_4 1_555 1_555
C31_4 C25_4 1_555 1_555
O14_2 C31_4 1_555 1_555
O16_2 C31_4 1_555 1_555
C33_4 O6_4 1_555 1_555
C6_4 C1_4 1_555 1_555
H4_4 C6_4 1_555 1_555
C7_4 H5_4 1_555 1_555
C8_4 H6_4 1_555 1_555
C9_4 C1_4 1_555 1_555
C13_4 C14_4 1_555 1_555
C14_4 H9_4 1_555 1_555
C15_4 C14_4 1_555 1_555
C16_4 C15_4 1_555 1_555
H10_4 C16_4 1_555 1_555
C17_4 C16_4 1_555 1_555
H11_4 C17_4 1_555 1_555
C18_4 C13_4 1_555 1_555
H12_4 C18_4 1_555 1_555
C19_4 H13_4 1_555 1_555
C20_4 H14_4 1_555 1_555
C21_4 C13_4 1_555 1_555
N1_4 C7_4 1_555 1_555
N9 C7_4 1_555 1_555
H24_4 N1_4 1_555 1_555
N5_4 C20_4 1_555 1_555
H25_4 N5_4 1_555 1_555
N10_2 C19_4 1_555 1_555
C8_4 C9_4 1_555 1_555
C8_4 N9 1_555 1_555
C9_4 N1_4 1_555 1_555
C17_4 C18_4 1_555 1_555
C19_4 C21_4 1_555 1_555
C20_4 N10_2 1_555 1_555
C21_4 N5_4 1_555 1_555
Cd5 N4_4 1_555 1_555
Cd6_2 N8_4 1_555 1_555
C2_4 H1_4 1_555 1_555
C3_4 C2_4 1_555 1_555
C4_4 C3_4 1_555 1_555
H2_4 C4_4 1_555 1_555
C5_4 C4_4 1_555 1_555
H3_4 C5_4 1_555 1_555
C10_4 H7_4 1_555 1_555
C11_4 H8_4 1_555 1_555
C12_4 C3_4 1_555 1_555
C22_4 H15_4 1_555 1_555
C23_4 H16_4 1_555 1_555
C26_4 H17_4 1_555 1_555
C27_4 C26_4 1_555 1_555
C28_4 C27_4 1_555 1_555
H18_4 C28_4 1_555 1_555
C29_4 C28_4 1_555 1_555
C32_4 C27_4 1_555 1_555
C34_4 C35_4 1_555 1_555
C35_4 H20_4 1_555 1_555
C36_4 C35_4 1_555 1_555
C37_4 C36_4 1_555 1_555
H21_4 C37_4 1_555 1_555
C40_4 C34_4 1_555 1_555
C41_4 C36_4 1_555 1_555
N3_4 C10_4 1_555 1_555
N4_4 C10_4 1_555 1_555
H23_4 N3_4 1_555 1_555
N7_4 C22_4 1_555 1_555
H26_4 N7_4 1_555 1_555
N8_4 C22_4 1_555 1_555
O3_4 Cd6_2 1_555 1_555
O4_4 Cd5 1_555 1_555
O17 C40_4 1_555 1_555
O9_4 Cd6_2 1_555 1_555
O10_4 Cd5 1_555 1_555
Cd6_2 O10_4 1_555 1_555
C11_4 C12_4 1_555 1_555
C11_4 N4_4 1_555 1_555
C12_4 N3_4 1_555 1_555
C23_4 C24_4 1_555 1_555
C23_4 N8_4 1_555 1_555
C24_4 N7_4 1_555 1_555
C32_4 O3_4 1_555 1_555
C32_4 O4_4 1_555 1_555
C41_4 O9_4 1_555 1_555
C41_4 O10_4 1_555 1_555
H22_4 C39_4 1_555 1_555
C42_4 C38_4 1_555 1_555
O18_2 C42_4 1_555 1_555
O19_2 C42_4 1_555 1_555
H27_4 O13_4 1_555 1_555
H28_4 O13_4 1_555 1_555
C38_4 C39_4 1_555 1_555

#END
