
###############################################################################
#
# This file contains modified crystal structure data generated from the
# MOF subset of the Cambridge Structural Database (CSD) v543 
# hosted by the Cambridge Crystallographic Data Centre (CCDC).
#
# This work is licensed under the Creative Commons
# Attribution-NonCommercial-ShareAlike 4.0 International License.
# To view a copy of this license, visit
# http://creativecommons.org/licenses/by-nc-sa/4.0/
# or send a letter to
# Creative Commons, PO Box 1866, Mountain View, CA 94042, USA.
#
# CIF created using the CSD Python API on 29 September 2022
# The structure has been converted into the P1 space group
# The structure has a 3D framework
# The original CSD entry XOHFIK is in the monoclinic crystal system
# The framework has been calculated to contain at least 10.0% void space
# The void calculation uses a probe of radius 1.32A, grid spacing 0.4
#
###############################################################################

data_XOHFIK
_chemical_formula_moiety         '(C24 H24 Mn23 O48)n'
_symmetry_cell_setting           triclinic
_symmetry_space_group_name_H-M   'P 1'
_symmetry_Int_Tables_number      1
_space_group_name_Hall           'P 1'
loop_
_symmetry_equiv_pos_site_id
_symmetry_equiv_pos_as_xyz
1 x,y,z
_cell_length_a                   11.7190(10)
_cell_length_b                   10.1720(10)
_cell_length_c                   14.9200(10)
_cell_angle_alpha                90
_cell_angle_beta                 91.5530(10)
_cell_angle_gamma                90
_cell_volume                     1777.9
loop_
_atom_site_label
_atom_site_type_symbol
_atom_site_fract_x
_atom_site_fract_y
_atom_site_fract_z
Mn1 Mn 0.25720(3) 0.07996(4) 0.13103(3)
Mn2 Mn 0.0000 0.0000 0.0000
Mn4 Mn 0.5000 0.0000 0.0000
O2 O 0.15410(16) 0.25853(19) 0.10661(12)
O3 O 0.30597(16) 0.20189(18) 0.24784(12)
O4 O 0.40051(16) 0.15920(18) 0.06094(13)
O8 O 0.02117(17) 0.2113(2) 0.00064(13)
O9 O 0.39282(17) 0.37387(19) 0.09274(14)
O12 O 0.31669(18) 0.0677(2) 0.36683(13)
C2 C 0.0777(2) 0.2885(3) 0.04717(19)
H2 H 0.0631 0.3794 0.0381
C3 C 0.3298(2) 0.1752(3) 0.32951(18)
H3 H 0.3607 0.2444 0.3654
C4 C 0.4338(2) 0.2785(3) 0.05456(19)
H4 H 0.4961 0.2950 0.0167
Mn9 Mn 0.26022(3) 0.39428(4) 0.18633(3)
O32 O 0.65307(17) 0.1073(2) 0.03505(15)
Mn2_2 Mn 0.0000 0.0000 1.0000
Mn4_2 Mn 0.5000 0.0000 1.0000
Mn12 Mn 0.76022(3) 0.10572(4) 0.68633(3)
O23 O 0.64890(16) 0.08091(18) 0.80369(14)
O30 O 0.48659(18) 0.1099(2) 0.87646(14)
H7 H 0.0203 0.0305 0.7364
C11 C 0.5517(2) 0.1329(3) 0.8146(2)
H11 H 0.5266 0.1953 0.7709
Mn2_3 Mn -0.0000 1.0000 0.0000
Mn3 Mn 0.23978(3) 0.89428(4) 0.31367(3)
Mn4_3 Mn 0.5000 1.0000 0.0000
O1 O 0.12812(16) 0.99482(17) 0.21838(14)
O5 O 0.35110(16) 0.91909(18) 0.19631(14)
O6 O 0.18523(16) 0.97040(19) 0.02058(13)
O10 O 0.51341(18) 0.8901(2) 0.12354(14)
C1 C 0.0201(3) 0.9886(3) 0.2108(2)
C5 C 0.4483(2) 0.8671(3) 0.1854(2)
H5 H 0.4734 0.8047 0.2291
Mn6 Mn 0.24280(3) 0.57996(4) 0.36897(3)
Mn14 Mn -0.0000 0.5000 0.5000
O15 O 0.34590(16) 0.75853(19) 0.39339(12)
O17 O 0.19403(16) 0.70189(18) 0.25216(12)
O20 O 0.09949(16) 0.65920(18) 0.43906(13)
O28 O 0.10718(17) 0.87387(19) 0.40726(14)
O33 O 0.18331(18) 0.5677(2) 0.13317(13)
C9 C 0.1702(2) 0.6752(3) 0.17049(18)
H9 H 0.1393 0.7444 0.1346
C10 C 0.0662(2) 0.7785(3) 0.44544(19)
H10 H 0.0039 0.7950 0.4833
Mn2_4 Mn -0.0000 1.0000 1.0000
Mn4_4 Mn 0.5000 1.0000 1.0000
O11 O 0.34693(17) 0.8927(2) 0.96495(15)
C6 C 0.2419(2) 0.8982(3) 0.9678(2)
H6 H 0.1995 0.8439 0.9272
Mn7 Mn 0.74280(3) 0.92004(4) 0.86897(3)
O21 O 0.59949(16) 0.84080(18) 0.93906(13)
O26 O 0.03732(17) 0.9949(2) 0.85891(14)
Mn2_5 Mn 1.0000 0.0000 0.0000
O7 O 0.96268(17) 0.0051(2) 0.14109(14)
C12 C 0.7581(2) 0.1018(3) 0.0322(2)
H12 H 0.8005 0.1561 0.0728
Mn2_6 Mn 1.0000 0.0000 1.0000
O13 O 0.87188(16) 0.00518(17) 0.78162(14)
O16 O 0.65410(16) 0.24147(19) 0.60661(12)
O19 O 0.80597(16) 0.29811(18) 0.74784(12)
O25 O 0.81477(16) 0.02960(19) 0.97942(13)
O29 O 0.89282(17) 0.12613(19) 0.59274(14)
C7 C 0.9799(3) 0.0114(3) 0.7892(2)
Mn2_7 Mn 1.0000 1.0000 0.0000
H1 H 0.9797 0.9695 0.2636
Mn14_2 Mn 1.0000 0.5000 0.5000
Mn2_8 Mn 1.0000 1.0000 1.0000
Mn10 Mn 0.73978(3) 0.60572(4) 0.81367(3)
O14 O 0.84590(16) 0.74147(19) 0.89339(12)
O18 O 0.69403(16) 0.79811(18) 0.75216(12)
O27 O 0.97883(17) 0.7887(2) 0.99936(13)
O34 O 0.68331(18) 0.9323(2) 0.63317(13)
C8 C 0.9223(2) 0.7115(3) 0.95283(19)
H8 H 0.9369 0.6206 0.9619
Mn2_9 Mn 0.5000 0.5000 0.5000
O1_2 O 0.37188(16) 0.49482(17) 0.28162(14)
O5_2 O 0.14890(16) 0.41909(18) 0.30369(14)
O6_2 O 0.31477(16) 0.47040(19) 0.47942(13)
O7_2 O 0.53732(17) 0.5051(2) 0.35891(14)
O8_2 O 0.47883(17) 0.7113(2) 0.49936(13)
O11_2 O 0.15307(17) 0.3927(2) 0.53505(15)
C1_2 C 0.4799(3) 0.4886(3) 0.2892(2)
H1_2 H 0.5203 0.4695 0.2364
C2_2 C 0.4223(2) 0.7885(3) 0.45283(19)
H2_2 H 0.4369 0.8794 0.4619
C5_2 C 0.0517(2) 0.3671(3) 0.3146(2)
H5_2 H 0.0266 0.3047 0.2709
C6_2 C 0.2581(2) 0.3982(3) 0.5322(2)
H6_2 H 0.3005 0.3439 0.5728
Mn5 Mn 0.75720(3) 0.42004(4) 0.63103(3)
O13_2 O 0.62812(16) 0.50518(17) 0.71838(14)
O22 O 0.90051(16) 0.34080(18) 0.56094(13)
O24 O 0.85110(16) 0.58091(18) 0.69631(14)
O25_2 O 0.68523(16) 0.52960(19) 0.52058(13)
O26_2 O 0.46268(17) 0.4949(2) 0.64109(14)
O27_2 O 0.52117(17) 0.2887(2) 0.50064(13)
O29_2 O 0.60718(17) 0.62613(19) 0.90726(14)
O30_2 O 0.01341(18) 0.6099(2) 0.62354(14)
O31 O 0.84693(17) 0.6073(2) 0.46495(15)
O34_2 O 0.81669(18) 0.4323(2) 0.86683(13)
C7_2 C 0.5201(3) 0.5114(3) 0.7108(2)
H7_2 H 0.4797 0.5305 0.7636
C8_2 C 0.5777(2) 0.2115(3) 0.54717(19)
H8_2 H 0.5631 0.1206 0.5381
C12_2 C 0.7419(2) 0.6018(3) 0.4678(2)
H12_2 H 0.6995 0.6561 0.4272
O10_2 O 0.98659(18) 0.3901(2) 0.37646(14)
C11_2 C 0.9483(2) 0.6329(3) 0.6854(2)
H11_2 H 0.9734 0.6953 0.7291
C9_2 C 0.8298(2) 0.3248(3) 0.82951(18)
H9_2 H 0.8607 0.2556 0.8654
C10_2 C 0.9338(2) 0.2215(3) 0.55456(19)
H10_2 H 0.9961 0.2050 0.5167
C3_2 C 0.6702(2) 0.8248(3) 0.67049(18)
H3_2 H 0.6393 0.7556 0.6346
C4_2 C 0.5662(2) 0.7215(3) 0.94544(19)
H4_2 H 0.5039 0.7050 0.9833
loop_
_geom_bond_atom_site_label_1
_geom_bond_atom_site_label_2
_geom_bond_site_symmetry_1
_geom_bond_site_symmetry_2
Mn4 O4 1_555 1_555
O2 Mn1 1_555 1_555
O3 Mn1 1_555 1_555
O4 Mn1 1_555 1_555
O8 Mn2 1_555 1_555
O9 C4 1_555 1_555
C2 O2 1_555 1_555
H2 C2 1_555 1_555
C3 O3 1_555 1_555
H3 C3 1_555 1_555
C4 O4 1_555 1_555
H4 C4 1_555 1_555
Mn9 O2 1_555 1_555
O32 Mn4 1_555 1_555
O3 Mn9 1_555 1_555
O8 C2 1_555 1_555
O9 Mn9 1_555 1_555
O12 C3 1_555 1_555
Mn12 O23 1_555 1_555
O30 Mn4_2 1_555 1_555
C11 O23 1_555 1_555
H11 C11 1_555 1_555
O30 C11 1_555 1_555
Mn2_3 O6 1_555 1_555
Mn3 O1 1_555 1_555
O1 C1 1_555 1_555
O10 Mn4_3 1_555 1_555
C5 O5 1_555 1_555
H5 C5 1_555 1_555
Mn6 O15 1_555 1_555
Mn9 O33 1_555 1_555
Mn14 O20 1_555 1_555
O15 Mn3 1_555 1_555
O17 Mn3 1_555 1_555
O20 Mn6 1_555 1_555
O28 Mn3 1_555 1_555
O33 C9 1_555 1_555
C9 O17 1_555 1_555
H9 C9 1_555 1_555
C10 O20 1_555 1_555
H10 C10 1_555 1_555
Mn3 O5 1_555 1_555
O10 C5 1_555 1_555
Mn6 O17 1_555 1_555
O28 C10 1_555 1_555
O11 Mn4_4 1_555 1_555
H6 C6 1_555 1_555
Mn7 O21 1_555 1_555
O21 Mn4_4 1_555 1_555
O26 Mn2_4 1_555 1_555
O11 C6 1_555 1_555
O7 Mn2_5 1_555 1_555
H12 C12 1_555 1_555
O32 C12 1_555 1_555
Mn12 O13 1_555 1_555
O13 C7 1_555 1_555
O16 Mn12 1_555 1_555
O19 Mn12 1_555 1_555
O25 Mn2_6 1_555 1_555
O29 Mn12 1_555 1_555
Mn10 O14 1_555 1_555
O14 Mn7 1_555 1_555
O18 Mn7 1_555 1_555
O27 Mn2_8 1_555 1_555
C8 O14 1_555 1_555
H8 C8 1_555 1_555
Mn10 O18 1_555 1_555
O27 C8 1_555 1_555
Mn6 O1_2 1_555 1_555
Mn2_9 O6_2 1_555 1_555
Mn9 O1_2 1_555 1_555
O1_2 C1_2 1_555 1_555
O5_2 Mn6 1_555 1_555
O6_2 Mn6 1_555 1_555
O7_2 Mn2_9 1_555 1_555
O8_2 Mn2_9 1_555 1_555
O11_2 Mn14 1_555 1_555
C1_2 O7_2 1_555 1_555
H1_2 C1_2 1_555 1_555
C2_2 O15 1_555 1_555
H2_2 C2_2 1_555 1_555
C5_2 O5_2 1_555 1_555
H5_2 C5_2 1_555 1_555
C6_2 O6_2 1_555 1_555
H6_2 C6_2 1_555 1_555
Mn5 O13_2 1_555 1_555
Mn10 O13_2 1_555 1_555
Mn14_2 O22 1_555 1_555
O13_2 C7_2 1_555 1_555
O16 Mn5 1_555 1_555
O19 Mn5 1_555 1_555
O22 Mn5 1_555 1_555
O24 Mn5 1_555 1_555
O25_2 Mn2_9 1_555 1_555
O26_2 Mn2_9 1_555 1_555
O27_2 Mn2_9 1_555 1_555
O29_2 Mn10 1_555 1_555
O30_2 Mn14 1_555 1_555
O31 Mn14_2 1_555 1_555
O34_2 Mn10 1_555 1_555
C7_2 O26_2 1_555 1_555
H7_2 C7_2 1_555 1_555
C8_2 O16 1_555 1_555
H8_2 C8_2 1_555 1_555
C12_2 O25_2 1_555 1_555
H12_2 C12_2 1_555 1_555
Mn9 O5_2 1_555 1_555
O8_2 C2_2 1_555 1_555
O11_2 C6_2 1_555 1_555
Mn5 O25_2 1_555 1_555
Mn10 O24 1_555 1_555
O27_2 C8_2 1_555 1_555
O31 C12_2 1_555 1_555
O10_2 Mn14_2 1_555 1_555
C11_2 O24 1_555 1_555
H11_2 C11_2 1_555 1_555
O34_2 C9_2 1_555 1_555
C9_2 O19 1_555 1_555
H9_2 C9_2 1_555 1_555
C10_2 O22 1_555 1_555
H10_2 C10_2 1_555 1_555
O29 C10_2 1_555 1_555
O29_2 C4_2 1_555 1_555
C3_2 O18 1_555 1_555
H3_2 C3_2 1_555 1_555
C4_2 O21 1_555 1_555
H4_2 C4_2 1_555 1_555
O34 C3_2 1_555 1_555

#END
