
###############################################################################
#
# This file contains modified crystal structure data generated from the
# MOF subset of the Cambridge Structural Database (CSD) v543 
# hosted by the Cambridge Crystallographic Data Centre (CCDC).
#
# This work is licensed under the Creative Commons
# Attribution-NonCommercial-ShareAlike 4.0 International License.
# To view a copy of this license, visit
# http://creativecommons.org/licenses/by-nc-sa/4.0/
# or send a letter to
# Creative Commons, PO Box 1866, Mountain View, CA 94042, USA.
#
# CIF created using the CSD Python API on 29 September 2022
# The structure has been converted into the P1 space group
# The structure has a 3D framework
# The original CSD entry XOHQIX is in the trigonal crystal system
# The original CSD entry XOHQIX is in a Sohncke space group
# The framework has been calculated to contain at least 10.0% void space
# The void calculation uses a probe of radius 1.32A, grid spacing 0.4
# The framework is charged, counterions have been retained in the structure
#
###############################################################################

data_XOHQIX
_chemical_formula_moiety         '(C132 H54 Cu9 N6 O60 12-)n'
_symmetry_cell_setting           triclinic
_symmetry_space_group_name_H-M   'P 1'
_symmetry_Int_Tables_number      1
_space_group_name_Hall           'P 1'
loop_
_symmetry_equiv_pos_site_id
_symmetry_equiv_pos_as_xyz
1 x,y,z
_cell_length_a                   22.4612(9)
_cell_length_b                   22.4612(9)
_cell_length_c                   11.1324(6)
_cell_angle_alpha                90
_cell_angle_beta                 90
_cell_angle_gamma                120
_cell_volume                     4863.91
loop_
_atom_site_label
_atom_site_type_symbol
_atom_site_fract_x
_atom_site_fract_y
_atom_site_fract_z
Cu5 Cu -0.000000 0.33000(13) 0.333334
Cu1 Cu 0.33000(13) 0.000000 0.666667
O21 O 0.3754(9) 0.0870(6) 0.7489(11)
O22 O 0.4690(12) 0.0874(9) 0.7060(16)
O28 O 0.3565(9) 0.0495(7) 0.5172(11)
Cu2 Cu 0.33047(13) 0.33047(13) -0.000000
C23 C 0.8113(10) 0.2895(9) 0.4564(18)
C24 C 0.7776(11) 0.2208(10) 0.493(2)
H10 H 0.801251 0.196574 0.492058
C25 C 0.7092(10) 0.1875(10) 0.532(2)
C26 C 0.6735(11) 0.2178(13) 0.5195(19)
H11 H 0.627751 0.194305 0.543641
C27 C 0.6994(13) 0.2829(13) 0.472(3)
C28 C 0.7718(12) 0.3229(12) 0.441(3)
H12 H 0.791350 0.367761 0.412750
C29 C 0.3612(11) 0.2257(12) 0.2652(16)
C30 C 0.3254(6) 0.1641(13) 0.333(2)
H13 H 0.277821 0.138276 0.326057
C31 C 0.3569(12) 0.1413(12) 0.408(2)
C32 C 0.4259(9) 0.1873(10) 0.4437(18)
H14 H 0.446324 0.175014 0.504029
C33 C 0.4629(10) 0.2520(10) 0.3865(17)
C34 C 0.4300(10) 0.2728(9) 0.3057(15)
H15 H 0.452668 0.317759 0.277222
C35 C 0.6526(11) 0.3137(11) 0.4445(18)
C36 C 0.6755(12) 0.3815(12) 0.456(2)
H16 H 0.721095 0.411061 0.477128
C37 C 0.6338(12) 0.4067(13) 0.437(3)
C38 C 0.5686(12) 0.3676(11) 0.432(2)
H17 H 0.539878 0.385861 0.442838
C39 C 0.5410(11) 0.2989(10) 0.409(2)
C40 C 0.5836(10) 0.2727(11) 0.4285(18)
H18 H 0.564745 0.225286 0.430694
C41 C 0.8839(9) 0.3226(10) 0.4127(18)
C42 C 0.6781(9) 0.1135(10) 0.5831(18)
C43 C 0.3242(11) 0.2447(12) 0.1843(18)
C44 C 0.3200(13) 0.0757(13) 0.486(2)
N2 N 0.6599(16) 0.4792(15) 0.445(4)
O11 O 0.9130(6) 0.2884(7) 0.4156(11)
O12 O 0.9126(9) 0.3816(8) 0.3727(16)
O13 O 0.7150(7) 0.0886(7) 0.5848(12)
O14 O 0.6178(7) 0.0861(8) 0.6171(14)
O15 O 0.3543(7) 0.3035(7) 0.1479(11)
O16 O 0.2592(9) 0.2020(10) 0.1564(18)
O17 O 0.2620(10) 0.0585(9) 0.5159(18)
O19 O 0.6209(15) 0.5042(15) 0.477(3)
O20 O 0.7246(12) 0.5185(12) 0.469(5)
O23 O 0.2850(7) 0.3736(10) 0.0819(12)
O25 O 0.3822(7) 0.4683(11) 0.0496(14)
Cu5_2 Cu 1.000000 0.33000(13) 0.333334
Cu6 Cu 0.66953(13) 0.00000(18) 0.666667
C1 C 0.2895(9) 0.8113(10) 0.5436(18)
C2 C 0.2208(10) 0.7776(11) 0.507(2)
H1 H 0.196574 0.801251 0.507942
C3 C 0.1875(10) 0.7092(10) 0.468(2)
C4 C 0.2178(13) 0.6735(11) 0.4805(19)
H2 H 0.194305 0.627751 0.456359
C5 C 0.2829(13) 0.6994(13) 0.528(3)
C6 C 0.3229(12) 0.7718(12) 0.559(3)
H3 H 0.367761 0.791350 0.587250
C7 C 0.2257(12) 0.3612(11) 0.7348(16)
C8 C 0.1641(13) 0.3254(6) 0.667(2)
H4 H 0.138276 0.277821 0.673943
C9 C 0.1413(12) 0.3569(12) 0.592(2)
C10 C 0.1873(10) 0.4259(9) 0.5563(18)
H5 H 0.175014 0.446324 0.495971
C11 C 0.2520(10) 0.4629(10) 0.6135(17)
C12 C 0.2728(9) 0.4300(10) 0.6943(15)
H6 H 0.317759 0.452668 0.722778
C13 C 0.3137(11) 0.6526(11) 0.5555(18)
C14 C 0.3815(12) 0.6755(12) 0.544(2)
H7 H 0.411061 0.721095 0.522872
C15 C 0.4067(13) 0.6338(12) 0.563(3)
C16 C 0.3676(11) 0.5686(12) 0.568(2)
H8 H 0.385861 0.539878 0.557162
C17 C 0.2989(10) 0.5410(11) 0.591(2)
C18 C 0.2727(11) 0.5836(10) 0.5715(18)
H9 H 0.225286 0.564745 0.569306
C19 C 0.3226(10) 0.8839(9) 0.5873(18)
C20 C 0.1135(10) 0.6781(9) 0.4169(18)
C21 C 0.2447(12) 0.3242(11) 0.8157(18)
C22 C 0.0757(13) 0.3200(13) 0.514(2)
N1 N 0.4792(15) 0.6599(16) 0.555(4)
O1 O 0.2884(7) 0.9130(6) 0.5844(11)
O2 O 0.3816(8) 0.9126(9) 0.6273(16)
O3 O 0.0886(7) 0.7150(7) 0.4152(12)
O4 O 0.0861(8) 0.6178(7) 0.3829(14)
O5 O 0.3035(7) 0.3543(7) 0.8521(11)
O6 O 0.2020(10) 0.2592(9) 0.8436(18)
O7 O 0.0585(9) 0.2620(10) 0.4841(18)
O8 O 0.0495(7) 0.3565(9) 0.4828(11)
O9 O 0.5042(15) 0.6209(15) 0.523(3)
O10 O 0.5185(12) 0.7246(12) 0.531(5)
Cu1_2 Cu 0.33000(13) 1.000000 0.666667
Cu2_2 Cu 0.33047(13) 0.33047(13) 1.000000
O24 O 0.3736(10) 0.2850(7) 0.9181(12)
O26 O 0.4683(11) 0.3822(7) 0.9504(14)
O27 O 0.3070(11) 0.9505(7) 0.8161(11)
Cu7 Cu -0.00000(18) 0.66953(13) 0.333333
Cu6_2 Cu 0.66953(13) 1.00000(18) 0.666667
Cu7_2 Cu 1.00000(18) 0.66953(13) 0.333333
C23_2 C 0.7105(9) 0.5218(13) 0.1231(18)
C24_2 C 0.7792(10) 0.5568(15) 0.160(2)
H10_2 H 0.803426 0.604677 0.158725
C25_2 C 0.8125(10) 0.5217(14) 0.199(2)
C26_2 C 0.7822(13) 0.4557(17) 0.1862(19)
H11_2 H 0.805695 0.433446 0.210308
C27_2 C 0.7171(13) 0.4165(18) 0.139(3)
C28_2 C 0.6771(12) 0.4489(17) 0.108(3)
H12_2 H 0.632239 0.423589 0.079417
C31_2 C 0.8587(12) 0.2156(17) 0.075(2)
C32_2 C 0.8127(10) 0.2386(13) 0.1104(18)
H14_2 H 0.824986 0.271310 0.170696
C33_2 C 0.7480(10) 0.2109(14) 0.0532(17)
C35_2 C 0.6863(11) 0.3389(16) 0.1112(18)
C36_2 C 0.6185(12) 0.2940(17) 0.123(2)
H16_2 H 0.588939 0.310034 0.143795
C37_2 C 0.5933(13) 0.2271(18) 0.104(3)
C38_2 C 0.6324(11) 0.2010(16) 0.099(2)
H17_2 H 0.614139 0.154017 0.109505
C39_2 C 0.7011(10) 0.2421(15) 0.076(2)
C40_2 C 0.7273(11) 0.3109(15) 0.0952(18)
H18_2 H 0.774714 0.339459 0.097361
C41_2 C 0.6774(10) 0.5613(13) 0.0794(18)
C42_2 C 0.8865(10) 0.5646(13) 0.2498(18)
C44_2 C 0.9243(13) 0.2443(18) 0.153(2)
N2_2 N 0.5208(15) 0.1807(22) 0.112(4)
O11_2 O 0.7116(7) 0.6246(9) 0.0823(11)
O12_2 O 0.6184(8) 0.5310(12) 0.0394(16)
O13_2 O 0.9114(7) 0.6264(10) 0.2515(12)
O14_2 O 0.9139(8) 0.5317(11) 0.2838(14)
O17_2 O 0.9415(9) 0.2035(13) 0.1826(18)
O18 O 0.9505(7) 0.3070(11) 0.1839(11)
O19_2 O 0.4958(15) 0.1167(21) 0.144(3)
O20_2 O 0.4815(12) 0.2061(17) 0.136(5)
Cu5_3 Cu 0.67000(13) 0.67000(13) 0.000000
C29_2 C 0.7743(12) 0.1355(16) 0.9319(16)
C30_2 C 0.8359(13) 0.1613(14) 1.000(2)
H13_2 H 0.861724 0.139545 0.992724
C34_2 C 0.7272(9) 0.1572(13) 0.9724(15)
H15_2 H 0.682241 0.134909 0.943889
C43_2 C 0.7553(12) 0.0795(16) 0.8510(18)
O15_2 O 0.6965(7) 0.0508(10) 0.8146(11)
O16_2 O 0.7980(10) 0.0572(13) 0.8231(18)
Cu5_4 Cu 0.67000(13) 0.67000(13) 1.000000
C1_2 C 0.1887(10) 0.4782(13) 0.2103(18)
C2_2 C 0.2224(11) 0.4432(15) 0.174(2)
H1_2 H 0.198749 0.395323 0.174609
C3_2 C 0.2908(10) 0.4783(14) 0.135(2)
C4_2 C 0.3265(11) 0.5443(17) 0.1472(19)
H2_2 H 0.372249 0.566554 0.123026
C5_2 C 0.3006(13) 0.5835(18) 0.195(3)
C6_2 C 0.2282(12) 0.5511(17) 0.226(3)
H3_2 H 0.208650 0.576411 0.253917
C7_2 C 0.6388(11) 0.8645(16) 0.4015(16)
C8_2 C 0.6746(6) 0.8387(14) 0.334(2)
H4_2 H 0.722179 0.860455 0.340610
C9_2 C 0.6431(12) 0.7844(17) 0.259(2)
C10_2 C 0.5741(9) 0.7614(13) 0.2230(18)
H5_2 H 0.553676 0.728690 0.162638
C11_2 C 0.5371(10) 0.7891(14) 0.2802(17)
C12_2 C 0.5700(10) 0.8428(13) 0.3610(15)
H6_2 H 0.547332 0.865091 0.389445
C13_2 C 0.3474(11) 0.6611(16) 0.2222(18)
C14_2 C 0.3245(12) 0.7060(17) 0.211(2)
H7_2 H 0.278905 0.689966 0.189539
C15_2 C 0.3662(12) 0.7729(18) 0.230(3)
C16_2 C 0.4314(12) 0.7990(16) 0.235(2)
H8_2 H 0.460122 0.845983 0.223829
C17_2 C 0.4590(11) 0.7579(15) 0.258(2)
C18_2 C 0.4164(10) 0.6891(15) 0.2382(18)
H9_2 H 0.435255 0.660541 0.235973
C19_2 C 0.1161(9) 0.4387(13) 0.2540(18)
C20_2 C 0.3219(9) 0.4354(13) 0.0836(18)
C21_2 C 0.6758(11) 0.9205(16) 0.4824(18)
C22_2 C 0.6800(13) 0.7557(18) 0.181(2)
N1_2 N 0.3401(16) 0.8193(22) 0.222(4)
O1_2 O 0.0870(6) 0.3754(9) 0.2511(11)
O2_2 O 0.0874(9) 0.4690(12) 0.2940(16)
O5_2 O 0.6457(7) 0.9492(10) 0.5188(11)
O6_2 O 0.7408(9) 0.9428(13) 0.5103(18)
O7_2 O 0.7380(10) 0.7965(13) 0.1508(18)
O8_2 O 0.6435(9) 0.6930(11) 0.1495(11)
O9_2 O 0.3791(15) 0.8833(21) 0.190(3)
O10_2 O 0.2754(12) 0.7939(17) 0.198(5)
O23_2 O 0.6264(10) 0.9114(12) 0.7485(12)
O25_2 O 0.5317(11) 0.9139(13) 0.7162(14)
C7_3 C 0.1355(16) 0.7743(12) 0.0681(16)
C8_3 C 0.1613(14) 0.8359(13) 0.000(2)
H4_3 H 0.139545 0.861724 0.007276
C12_3 C 0.1572(13) 0.7272(9) 0.0276(15)
H6_3 H 0.134909 0.682241 0.056111
C21_3 C 0.0795(16) 0.7553(12) 0.1490(18)
O5_3 O 0.0508(10) 0.6965(7) 0.1854(11)
O6_3 O 0.0572(13) 0.7980(10) 0.1769(18)
C1_3 C 0.5218(13) 0.7105(9) 0.8769(18)
C2_3 C 0.5568(15) 0.7792(10) 0.840(2)
H1_3 H 0.604677 0.803426 0.841275
C3_3 C 0.5217(14) 0.8125(10) 0.801(2)
C4_3 C 0.4557(17) 0.7822(13) 0.8138(19)
H2_3 H 0.433446 0.805695 0.789692
C5_3 C 0.4165(18) 0.7171(13) 0.861(3)
C6_3 C 0.4489(17) 0.6771(12) 0.892(3)
H3_3 H 0.423589 0.632239 0.920583
C9_3 C 0.2156(17) 0.8587(12) 0.925(2)
C10_3 C 0.2386(13) 0.8127(10) 0.8896(18)
H5_3 H 0.271310 0.824986 0.829304
C11_3 C 0.2109(14) 0.7480(10) 0.9468(17)
C13_3 C 0.3389(16) 0.6863(11) 0.8888(18)
C14_3 C 0.2940(17) 0.6185(12) 0.877(2)
H7_3 H 0.310034 0.588939 0.856205
C15_3 C 0.2271(18) 0.5933(13) 0.896(3)
C16_3 C 0.2010(16) 0.6324(11) 0.901(2)
H8_3 H 0.154017 0.614139 0.890495
C17_3 C 0.2421(15) 0.7011(10) 0.924(2)
C18_3 C 0.3109(15) 0.7273(11) 0.9048(18)
H9_3 H 0.339459 0.774714 0.902639
C19_3 C 0.5613(13) 0.6774(10) 0.9206(18)
C20_3 C 0.5646(13) 0.8865(10) 0.7502(18)
C22_3 C 0.2443(18) 0.9243(13) 0.847(2)
N1_3 N 0.1807(22) 0.5208(15) 0.888(4)
O1_3 O 0.6246(9) 0.7116(7) 0.9177(11)
O2_3 O 0.5310(12) 0.6184(8) 0.9606(16)
O7_3 O 0.2035(13) 0.9415(9) 0.8174(18)
O9_3 O 0.1167(21) 0.4958(15) 0.856(3)
O10_3 O 0.2061(17) 0.4815(12) 0.864(5)
O28_2 O 0.6930(11) 0.6435(9) 0.8505(11)
C23_3 C 0.4782(13) 0.1887(10) 0.7897(18)
C24_3 C 0.4432(15) 0.2224(11) 0.826(2)
H10_3 H 0.395323 0.198749 0.825391
C25_3 C 0.4783(14) 0.2908(10) 0.865(2)
C26_3 C 0.5443(17) 0.3265(11) 0.8528(19)
H11_3 H 0.566554 0.372249 0.876974
C27_3 C 0.5835(18) 0.3006(13) 0.805(3)
C28_3 C 0.5511(17) 0.2282(12) 0.774(3)
H12_3 H 0.576411 0.208650 0.746083
C29_3 C 0.8645(16) 0.6388(11) 0.5985(16)
C30_3 C 0.8387(14) 0.6746(6) 0.666(2)
H13_3 H 0.860455 0.722179 0.659390
C31_3 C 0.7844(17) 0.6431(12) 0.741(2)
C32_3 C 0.7614(13) 0.5741(9) 0.7770(18)
H14_3 H 0.728690 0.553676 0.837362
C33_3 C 0.7891(14) 0.5371(10) 0.7198(17)
C34_3 C 0.8428(13) 0.5700(10) 0.6390(15)
H15_3 H 0.865091 0.547332 0.610555
C35_3 C 0.6611(16) 0.3474(11) 0.7778(18)
C36_3 C 0.7060(17) 0.3245(12) 0.789(2)
H16_3 H 0.689966 0.278905 0.810461
C37_3 C 0.7729(18) 0.3662(12) 0.770(3)
C38_3 C 0.7990(16) 0.4314(12) 0.765(2)
H17_3 H 0.845983 0.460122 0.776171
C39_3 C 0.7579(15) 0.4590(11) 0.742(2)
C40_3 C 0.6891(15) 0.4164(10) 0.7618(18)
H18_3 H 0.660541 0.435255 0.764027
C41_3 C 0.4387(13) 0.1161(9) 0.7460(18)
C42_3 C 0.4354(13) 0.3219(9) 0.9164(18)
C43_3 C 0.9205(16) 0.6758(11) 0.5176(18)
C44_3 C 0.7557(18) 0.6800(13) 0.819(2)
N2_3 N 0.8193(22) 0.3401(16) 0.778(4)
O15_3 O 0.9492(10) 0.6457(7) 0.4812(11)
O16_3 O 0.9428(13) 0.7408(9) 0.4897(18)
O17_3 O 0.7965(13) 0.7380(10) 0.8492(18)
O19_3 O 0.8833(21) 0.3791(15) 0.810(3)
O20_3 O 0.7939(17) 0.2754(12) 0.802(5)
loop_
_geom_bond_atom_site_label_1
_geom_bond_atom_site_label_2
_geom_bond_site_symmetry_1
_geom_bond_site_symmetry_2
O21 Cu1 1_555 1_555
O22 Cu1 1_555 1_555
O28 Cu1 1_555 1_555
C23 C24 1_555 1_555
C24 H10 1_555 1_555
C25 C24 1_555 1_555
C26 C25 1_555 1_555
H11 C26 1_555 1_555
C27 C26 1_555 1_555
C28 C23 1_555 1_555
H12 C28 1_555 1_555
C29 C30 1_555 1_555
C30 H13 1_555 1_555
C31 C30 1_555 1_555
C32 C31 1_555 1_555
H14 C32 1_555 1_555
C33 C32 1_555 1_555
C34 C29 1_555 1_555
H15 C34 1_555 1_555
C35 C27 1_555 1_555
C36 C35 1_555 1_555
H16 C36 1_555 1_555
C37 C36 1_555 1_555
C38 C37 1_555 1_555
H17 C38 1_555 1_555
C39 C33 1_555 1_555
C40 C35 1_555 1_555
H18 C40 1_555 1_555
C41 C23 1_555 1_555
C42 C25 1_555 1_555
C43 C29 1_555 1_555
C44 C31 1_555 1_555
N2 C37 1_555 1_555
O11 C41 1_555 1_555
O12 C41 1_555 1_555
O13 C42 1_555 1_555
O14 C42 1_555 1_555
O15 Cu2 1_555 1_555
O16 C43 1_555 1_555
O17 C44 1_555 1_555
O28 C44 1_555 1_555
O19 N2 1_555 1_555
O20 N2 1_555 1_555
O23 Cu2 1_555 1_555
O25 Cu2 1_555 1_555
Cu5_2 O11 1_555 1_555
Cu6 O13 1_555 1_555
C27 C28 1_555 1_555
C33 C34 1_555 1_555
C38 C39 1_555 1_555
C39 C40 1_555 1_555
C43 O15 1_555 1_555
O12 Cu5_2 1_555 1_555
O14 Cu6 1_555 1_555
C1 C2 1_555 1_555
C2 H1 1_555 1_555
C3 C2 1_555 1_555
C4 C3 1_555 1_555
H2 C4 1_555 1_555
C5 C4 1_555 1_555
C6 C1 1_555 1_555
H3 C6 1_555 1_555
C7 C8 1_555 1_555
C8 H4 1_555 1_555
C9 C8 1_555 1_555
C10 C9 1_555 1_555
H5 C10 1_555 1_555
C11 C10 1_555 1_555
C12 C7 1_555 1_555
H6 C12 1_555 1_555
C13 C5 1_555 1_555
C14 C13 1_555 1_555
H7 C14 1_555 1_555
C15 C14 1_555 1_555
C16 C15 1_555 1_555
H8 C16 1_555 1_555
C17 C11 1_555 1_555
C18 C13 1_555 1_555
H9 C18 1_555 1_555
C19 C1 1_555 1_555
C20 C3 1_555 1_555
C21 C7 1_555 1_555
C22 C9 1_555 1_555
N1 C15 1_555 1_555
O1 C19 1_555 1_555
O2 C19 1_555 1_555
O3 C20 1_555 1_555
O4 C20 1_555 1_555
O5 C21 1_555 1_555
O6 C21 1_555 1_555
O7 C22 1_555 1_555
O8 C22 1_555 1_555
O9 N1 1_555 1_555
O10 N1 1_555 1_555
Cu1_2 O1 1_555 1_555
Cu2_2 O5 1_555 1_555
O24 Cu2_2 1_555 1_555
O26 Cu2_2 1_555 1_555
O27 Cu1_2 1_555 1_555
Cu5 O8 1_555 1_555
Cu7 O3 1_555 1_555
C5 C6 1_555 1_555
C11 C12 1_555 1_555
C16 C17 1_555 1_555
C17 C18 1_555 1_555
O2 Cu1_2 1_555 1_555
O4 Cu7 1_555 1_555
C23_2 C24_2 1_555 1_555
C24_2 H10_2 1_555 1_555
C25_2 C24_2 1_555 1_555
C26_2 C25_2 1_555 1_555
H11_2 C26_2 1_555 1_555
C27_2 C26_2 1_555 1_555
C28_2 C23_2 1_555 1_555
H12_2 C28_2 1_555 1_555
C32_2 C31_2 1_555 1_555
H14_2 C32_2 1_555 1_555
C33_2 C32_2 1_555 1_555
C35_2 C27_2 1_555 1_555
C36_2 C35_2 1_555 1_555
H16_2 C36_2 1_555 1_555
C37_2 C36_2 1_555 1_555
C38_2 C37_2 1_555 1_555
H17_2 C38_2 1_555 1_555
C39_2 C33_2 1_555 1_555
C40_2 C35_2 1_555 1_555
H18_2 C40_2 1_555 1_555
C41_2 C23_2 1_555 1_555
C42_2 C25_2 1_555 1_555
C44_2 C31_2 1_555 1_555
N2_2 C37_2 1_555 1_555
O11_2 C41_2 1_555 1_555
O12_2 C41_2 1_555 1_555
O13_2 C42_2 1_555 1_555
O14_2 C42_2 1_555 1_555
O17_2 C44_2 1_555 1_555
O18 C44_2 1_555 1_555
O19_2 N2_2 1_555 1_555
O20_2 N2_2 1_555 1_555
Cu5_2 O18 1_555 1_555
Cu5_3 O11_2 1_555 1_555
Cu7_2 O13_2 1_555 1_555
C27_2 C28_2 1_555 1_555
C38_2 C39_2 1_555 1_555
C39_2 C40_2 1_555 1_555
O12_2 Cu5_3 1_555 1_555
O14_2 Cu7_2 1_555 1_555
C29_2 C30_2 1_555 1_555
C30_2 H13_2 1_555 1_555
C34_2 C29_2 1_555 1_555
H15_2 C34_2 1_555 1_555
C43_2 C29_2 1_555 1_555
O15_2 Cu6 1_555 1_555
O16_2 C43_2 1_555 1_555
C43_2 O15_2 1_555 1_555
C1_2 C2_2 1_555 1_555
C2_2 H1_2 1_555 1_555
C3_2 C2_2 1_555 1_555
C4_2 C3_2 1_555 1_555
H2_2 C4_2 1_555 1_555
C5_2 C4_2 1_555 1_555
C6_2 C1_2 1_555 1_555
H3_2 C6_2 1_555 1_555
C7_2 C8_2 1_555 1_555
C8_2 H4_2 1_555 1_555
C9_2 C8_2 1_555 1_555
C10_2 C9_2 1_555 1_555
H5_2 C10_2 1_555 1_555
C11_2 C10_2 1_555 1_555
C12_2 C7_2 1_555 1_555
H6_2 C12_2 1_555 1_555
C13_2 C5_2 1_555 1_555
C14_2 C13_2 1_555 1_555
H7_2 C14_2 1_555 1_555
C15_2 C14_2 1_555 1_555
C16_2 C15_2 1_555 1_555
H8_2 C16_2 1_555 1_555
C17_2 C11_2 1_555 1_555
C18_2 C13_2 1_555 1_555
H9_2 C18_2 1_555 1_555
C19_2 C1_2 1_555 1_555
C20_2 C3_2 1_555 1_555
C21_2 C7_2 1_555 1_555
C22_2 C9_2 1_555 1_555
N1_2 C15_2 1_555 1_555
O1_2 C19_2 1_555 1_555
O2_2 C19_2 1_555 1_555
O23 C20_2 1_555 1_555
O25 C20_2 1_555 1_555
O5_2 C21_2 1_555 1_555
O6_2 C21_2 1_555 1_555
O7_2 C22_2 1_555 1_555
O8_2 C22_2 1_555 1_555
O9_2 N1_2 1_555 1_555
O10_2 N1_2 1_555 1_555
Cu5 O1_2 1_555 1_555
Cu6_2 O5_2 1_555 1_555
O23_2 Cu6_2 1_555 1_555
O25_2 Cu6_2 1_555 1_555
Cu5_3 O8_2 1_555 1_555
C5_2 C6_2 1_555 1_555
C11_2 C12_2 1_555 1_555
C16_2 C17_2 1_555 1_555
C17_2 C18_2 1_555 1_555
O2_2 Cu5 1_555 1_555
C7_3 C8_3 1_555 1_555
C8_3 H4_3 1_555 1_555
C12_3 C7_3 1_555 1_555
H6_3 C12_3 1_555 1_555
C21_3 C7_3 1_555 1_555
O5_3 C21_3 1_555 1_555
O6_3 C21_3 1_555 1_555
Cu7 O5_3 1_555 1_555
C1_3 C2_3 1_555 1_555
C2_3 H1_3 1_555 1_555
C3_3 C2_3 1_555 1_555
C4_3 C3_3 1_555 1_555
H2_3 C4_3 1_555 1_555
C5_3 C4_3 1_555 1_555
C6_3 C1_3 1_555 1_555
H3_3 C6_3 1_555 1_555
C10_3 C9_3 1_555 1_555
H5_3 C10_3 1_555 1_555
C11_3 C10_3 1_555 1_555
C13_3 C5_3 1_555 1_555
C14_3 C13_3 1_555 1_555
H7_3 C14_3 1_555 1_555
C15_3 C14_3 1_555 1_555
C16_3 C15_3 1_555 1_555
H8_3 C16_3 1_555 1_555
C17_3 C11_3 1_555 1_555
C18_3 C13_3 1_555 1_555
H9_3 C18_3 1_555 1_555
C19_3 C1_3 1_555 1_555
C20_3 C3_3 1_555 1_555
C22_3 C9_3 1_555 1_555
N1_3 C15_3 1_555 1_555
O1_3 C19_3 1_555 1_555
O2_3 C19_3 1_555 1_555
O23_2 C20_3 1_555 1_555
O25_2 C20_3 1_555 1_555
O7_3 C22_3 1_555 1_555
O27 C22_3 1_555 1_555
O9_3 N1_3 1_555 1_555
O10_3 N1_3 1_555 1_555
Cu5_4 O1_3 1_555 1_555
O28_2 Cu5_4 1_555 1_555
C5_3 C6_3 1_555 1_555
C16_3 C17_3 1_555 1_555
C17_3 C18_3 1_555 1_555
O2_3 Cu5_4 1_555 1_555
C23_3 C24_3 1_555 1_555
C24_3 H10_3 1_555 1_555
C25_3 C24_3 1_555 1_555
C26_3 C25_3 1_555 1_555
H11_3 C26_3 1_555 1_555
C27_3 C26_3 1_555 1_555
C28_3 C23_3 1_555 1_555
H12_3 C28_3 1_555 1_555
C29_3 C30_3 1_555 1_555
C30_3 H13_3 1_555 1_555
C31_3 C30_3 1_555 1_555
C32_3 C31_3 1_555 1_555
H14_3 C32_3 1_555 1_555
C33_3 C32_3 1_555 1_555
C34_3 C29_3 1_555 1_555
H15_3 C34_3 1_555 1_555
C35_3 C27_3 1_555 1_555
C36_3 C35_3 1_555 1_555
H16_3 C36_3 1_555 1_555
C37_3 C36_3 1_555 1_555
C38_3 C37_3 1_555 1_555
H17_3 C38_3 1_555 1_555
C39_3 C33_3 1_555 1_555
C40_3 C35_3 1_555 1_555
H18_3 C40_3 1_555 1_555
C41_3 C23_3 1_555 1_555
C42_3 C25_3 1_555 1_555
C43_3 C29_3 1_555 1_555
C44_3 C31_3 1_555 1_555
N2_3 C37_3 1_555 1_555
O21 C41_3 1_555 1_555
O22 C41_3 1_555 1_555
O24 C42_3 1_555 1_555
O26 C42_3 1_555 1_555
O15_3 Cu7_2 1_555 1_555
O16_3 C43_3 1_555 1_555
O17_3 C44_3 1_555 1_555
O28_2 C44_3 1_555 1_555
O19_3 N2_3 1_555 1_555
O20_3 N2_3 1_555 1_555
C27_3 C28_3 1_555 1_555
C33_3 C34_3 1_555 1_555
C38_3 C39_3 1_555 1_555
C39_3 C40_3 1_555 1_555
C43_3 O15_3 1_555 1_555

#END
