
###############################################################################
#
# This file contains modified crystal structure data generated from the
# MOF subset of the Cambridge Structural Database (CSD) v543 
# hosted by the Cambridge Crystallographic Data Centre (CCDC).
#
# This work is licensed under the Creative Commons
# Attribution-NonCommercial-ShareAlike 4.0 International License.
# To view a copy of this license, visit
# http://creativecommons.org/licenses/by-nc-sa/4.0/
# or send a letter to
# Creative Commons, PO Box 1866, Mountain View, CA 94042, USA.
#
# CIF created using the CSD Python API on 29 September 2022
# The structure has been converted into the P1 space group
# The structure has a 3D framework
# The original CSD entry XOHZEC is in the hexagonal crystal system
# The original CSD entry XOHZEC is in a Sohncke space group
# The framework has been calculated to contain at least 10.0% void space
# The void calculation uses a probe of radius 1.32A, grid spacing 0.4
#
###############################################################################

data_XOHZEC
_chemical_formula_moiety         '(C160 H134 O108 Sr18)n'
_symmetry_cell_setting           triclinic
_symmetry_space_group_name_H-M   'P 1'
_symmetry_Int_Tables_number      1
_space_group_name_Hall           'P 1'
loop_
_symmetry_equiv_pos_site_id
_symmetry_equiv_pos_as_xyz
1 x,y,z
_cell_length_a                   12.719(3)
_cell_length_b                   12.719(3)
_cell_length_c                   34.106(13)
_cell_angle_alpha                90
_cell_angle_beta                 90
_cell_angle_gamma                120
_cell_volume                     4778.23
loop_
_atom_site_label
_atom_site_type_symbol
_atom_site_fract_x
_atom_site_fract_y
_atom_site_fract_z
Sr3 Sr 0.500000 0.000000 0.29436(2)
O3 O 0.4902(4) 0.1237(4) 0.35032(11)
O4 O 0.5074(4) 0.2597(4) 0.39433(11)
O5 O 0.3639(4) 0.0910(4) 0.27596(13)
O6 O 0.4691(4) 0.2897(4) 0.28940(14)
C5 C 0.4000(6) 0.0762(6) 0.45065(18)
H8 H 0.447728 0.158197 0.458924
C6 C 0.3919(6) 0.0497(6) 0.41137(18)
C8 C 0.4670(5) 0.1502(5) 0.38348(19)
C9 C 0.3759(5) 0.1874(6) 0.29172(18)
C10 C 0.2690(5) 0.1764(5) 0.31393(18)
C11 C 0.1617(6) 0.0681(6) 0.31521(19)
C12 C 0.0579(6) 0.0579(6) 0.333333
C13 C 0.2764(6) 0.2764(6) 0.333333
H11 H 0.351079 0.351082 0.333331
O10 O 0.4920(6) 0.3702(4) 0.56358(11)
O11 O 0.5178(6) 0.3120(4) 0.62240(12)
C14 C 0.4811(7) 0.2897(5) 0.58681(17)
C15 C 0.4222(8) 0.1611(6) 0.57393(17)
C16 C 0.4017(8) 0.1330(6) 0.53472(18)
H12 H 0.420491 0.196165 0.516361
C17 C 0.3543(9) 0.0146(6) 0.52118(18)
C20 C 0.3913(8) 0.0681(6) 0.60124(18)
H14 H 0.404461 0.086467 0.628421
O16 O 0.0910(4) 0.3639(4) 0.39071(13)
O17 O 0.2897(4) 0.4691(4) 0.37727(14)
C27 C 0.1874(6) 0.3759(5) 0.37495(18)
C28 C 0.1764(5) 0.2690(5) 0.35274(18)
C29 C 0.0681(6) 0.1617(6) 0.35146(19)
Sr4 Sr 0.500000 0.000000 0.70564(2)
Sr6 Sr 0.500000 0.500000 0.50188(2)
O31 O 0.2848(7) 0.3987(5) 0.53084(14)
H31 H 0.253854 0.352377 0.511499
H32 H 0.296514 0.352317 0.544889
O32 O 0.3782(6) 0.5977(5) 0.46791(15)
H33 H 0.402115 0.664037 0.457471
H34 H 0.314794 0.560737 0.453471
O33 O 0.6192(10) 0.6388(8) 0.4417(2)
H35 H 0.564806 0.609696 0.422972
H36 H 0.605646 0.699226 0.444022
O34 O 0.7152(7) 0.6013(5) 0.53084(14)
H37 H 0.746146 0.647623 0.511499
H38 H 0.703486 0.647683 0.544889
O35 O 0.6218(6) 0.4023(5) 0.46791(15)
H39 H 0.597885 0.335963 0.457471
H40 H 0.685206 0.439263 0.453471
O36 O 0.3808(10) 0.3612(8) 0.4417(2)
H41 H 0.435194 0.390304 0.422972
H42 H 0.394354 0.300774 0.444022
Sr10 Sr 0.34826(3) 0.65174(3) 0.333333
Sr12 Sr 0.69652(4) 0.34826(3) 0.666666
Sr15 Sr 0.65174(3) 0.34826(3) 0.333333
Sr19 Sr 0.500000 0.500000 0.62769(2)
Sr21 Sr -0.000000 0.500000 0.37231(2)
O37 O 0.4920(6) 0.1218(4) 0.76975(11)
O39 O 0.6298(4) 0.1218(4) 0.23025(11)
O40 O 0.5080(6) 0.6298(4) 0.56358(11)
O42 O 0.5178(6) 0.2058(4) 0.71093(12)
O45 O 0.6880(4) 0.2058(4) 0.28907(12)
O50 O 0.6335(6) 0.1237(4) 0.64968(11)
O57 O 0.7271(6) 0.0910(4) 0.72404(13)
Sr1 Sr 0.000000 0.500000 0.49812(2)
Sr3_2 Sr 0.500000 1.000000 0.29436(2)
O1 O 0.1218(4) 0.6298(4) 0.43642(11)
O2 O 0.2058(4) 0.6880(4) 0.37760(12)
C1 C 0.1914(5) 0.7103(5) 0.41319(17)
C2 C 0.2611(6) 0.8389(6) 0.42607(17)
C3 C 0.2687(6) 0.8670(6) 0.46528(18)
H7 H 0.224326 0.803835 0.483639
C4 C 0.3397(7) 0.9854(6) 0.47882(18)
C7 C 0.3232(5) 0.9319(6) 0.39876(18)
H9 H 0.317994 0.913533 0.371579
H10 H 0.157484 0.998310 0.303539
O12 O 0.3665(6) 0.8763(4) 0.64968(11)
O13 O 0.2477(6) 0.7403(4) 0.60567(11)
C18 C 0.3238(8) 0.9238(6) 0.54935(18)
H13 H 0.289531 0.841803 0.541076
C19 C 0.3422(8) 0.9503(6) 0.58863(18)
C21 C 0.3168(7) 0.8498(5) 0.61652(19)
H18 H 0.001690 0.842516 0.363128
O20 O 0.1139(5) 0.3987(5) 0.46916(14)
H19 H 0.098523 0.352377 0.488501
H20 H 0.055803 0.352317 0.455111
O21 O 0.2195(4) 0.5977(5) 0.53209(15)
H21 H 0.261922 0.664037 0.542529
H22 H 0.245943 0.560737 0.546529
O22 O 0.0196(6) 0.6388(8) 0.5583(2)
H23 H 0.044890 0.609696 0.577028
H24 H 0.093580 0.699226 0.555978
Sr4_2 Sr 0.500000 1.000000 0.70564(2)
Sr14 Sr 0.30348(4) 0.65174(3) 0.666666
O38 O 0.5080(6) 0.8782(4) 0.76975(11)
O41 O 0.3702(4) 0.8782(4) 0.23025(11)
O43 O 0.4822(6) 0.7942(4) 0.71093(12)
O46 O 0.3120(4) 0.7942(4) 0.28907(12)
O48 O 0.5098(4) 0.8763(4) 0.35032(11)
O49 O 0.1237(4) 0.4902(4) 0.31635(11)
O53 O 0.4926(4) 0.7403(4) 0.39433(11)
O54 O 0.2597(4) 0.5074(4) 0.27234(11)
O56 O 0.6361(4) 0.9090(4) 0.27596(13)
O58 O 0.2729(6) 0.9090(4) 0.72404(13)
O60 O 0.5309(4) 0.7103(4) 0.28940(14)
H15 H 0.842516 0.001690 0.303539
H17 H 0.998310 0.157484 0.363128
Sr21_2 Sr 1.000000 0.500000 0.37231(2)
Sr1_2 Sr 1.000000 0.500000 0.49812(2)
O7 O 0.8861(5) 0.6013(5) 0.46916(14)
H1 H 0.901477 0.647623 0.488501
H2 H 0.944197 0.647683 0.455111
O8 O 0.7805(4) 0.4023(5) 0.53209(15)
H3 H 0.738078 0.335963 0.542529
H4 H 0.754057 0.439263 0.546529
O9 O 0.9804(6) 0.3612(8) 0.5583(2)
H5 H 0.955110 0.390304 0.577028
H6 H 0.906420 0.300774 0.555978
C22 C 0.6241(5) 0.8126(6) 0.29172(18)
C23 C 0.7310(5) 0.8236(5) 0.31393(18)
C24 C 0.8383(6) 0.9319(6) 0.31521(19)
C25 C 0.9421(6) 0.9421(6) 0.333333
C26 C 0.7236(6) 0.7236(6) 0.333333
H16 H 0.648921 0.648918 0.333331
O18 O 0.9090(4) 0.6361(4) 0.39071(13)
O19 O 0.7103(4) 0.5309(4) 0.37727(14)
C30 C 0.8126(6) 0.6241(5) 0.37495(18)
C31 C 0.8236(5) 0.7310(5) 0.35274(18)
C32 C 0.9319(6) 0.8383(6) 0.35146(19)
O23 O 0.8782(4) 0.3702(4) 0.43642(11)
O24 O 0.7942(4) 0.3120(4) 0.37760(12)
C33 C 0.8086(5) 0.2897(5) 0.41319(17)
C34 C 0.7389(6) 0.1611(6) 0.42607(17)
C35 C 0.7313(6) 0.1330(6) 0.46528(18)
H25 H 0.775674 0.196165 0.483639
C36 C 0.6603(7) 0.0146(6) 0.47882(18)
C39 C 0.6768(5) 0.0681(6) 0.39876(18)
H27 H 0.682006 0.086467 0.371579
O30 O 0.7523(6) 0.2597(4) 0.60567(11)
C45 C 0.6762(8) 0.0762(6) 0.54935(18)
H29 H 0.710469 0.158197 0.541076
C46 C 0.6578(8) 0.0497(6) 0.58863(18)
C48 C 0.6832(7) 0.1502(5) 0.61652(19)
O51 O 0.8763(4) 0.5098(4) 0.31635(11)
O55 O 0.7403(4) 0.4926(4) 0.27234(11)
C37 C 0.6000(6) 0.9238(6) 0.45065(18)
H26 H 0.552272 0.841803 0.458924
C38 C 0.6081(6) 0.9503(6) 0.41137(18)
C40 C 0.5330(5) 0.8498(5) 0.38348(19)
O28 O 0.4822(6) 0.6880(4) 0.62240(12)
C41 C 0.5189(7) 0.7103(5) 0.58681(17)
C42 C 0.5778(8) 0.8389(6) 0.57393(17)
C43 C 0.5983(8) 0.8670(6) 0.53472(18)
H28 H 0.579509 0.803835 0.516361
C44 C 0.6457(9) 0.9854(6) 0.52118(18)
C47 C 0.6087(8) 0.9319(6) 0.60124(18)
H30 H 0.595539 0.913533 0.628421
Sr7 Sr 0.000000 0.500000 0.83521(2)
Sr18 Sr 0.000000 0.500000 0.96103(2)
Sr4_3 Sr 0.500000 0.500000 0.03897(2)
Sr12_2 Sr 0.34826(5) 0.69652(4) -0.000000
Sr14_2 Sr 0.65174(5) 0.30348(4) -0.000000
O37_2 O 0.3702(7) 0.4920(6) 0.10309(11)
O38_2 O 0.6298(7) 0.5080(6) 0.10309(11)
O42_2 O 0.3120(7) 0.5178(6) 0.04427(12)
O43_2 O 0.6880(7) 0.4822(6) 0.04427(12)
O57_2 O 0.6361(7) 0.7271(6) 0.05737(13)
O58_2 O 0.3639(7) 0.2729(6) 0.05737(13)
Sr1_3 Sr 0.500000 0.000000 0.83145(2)
O3_2 O 0.3665(6) 0.4902(4) 0.68365(11)
O4_2 O 0.2477(6) 0.5074(4) 0.72766(11)
O5_2 O 0.2729(6) 0.3639(4) 0.60929(13)
O6_2 O 0.1794(6) 0.4691(4) 0.62273(14)
C1_2 C 0.4811(7) 0.1914(5) 0.74652(17)
C2_2 C 0.4222(8) 0.2611(6) 0.75940(17)
C3_2 C 0.4017(8) 0.2687(6) 0.79861(18)
H7_2 H 0.420491 0.224326 0.816972
C4_2 C 0.3543(9) 0.3397(7) 0.81215(18)
C5_2 C 0.3238(8) 0.4000(6) 0.78398(18)
H8_2 H 0.289531 0.447728 0.792257
C6_2 C 0.3422(8) 0.3919(6) 0.74470(18)
C7_2 C 0.3913(8) 0.3232(5) 0.73209(18)
H9_2 H 0.404461 0.317994 0.704912
C8_2 C 0.3168(7) 0.4670(5) 0.71681(19)
C9_2 C 0.1885(8) 0.3759(5) 0.62505(18)
C10_2 C 0.0926(7) 0.2690(5) 0.64726(18)
C11_2 C 0.0936(8) 0.1617(6) 0.64854(19)
H10_2 H 0.159174 0.157484 0.636872
C12_2 C 0.0000(8) 0.0579(6) 0.666666
C13_2 C -0.0000(8) 0.2764(6) 0.666666
H11_2 H -0.000003 0.351079 0.666664
O10_2 O 0.1218(7) 0.4920(6) 0.89691(11)
O11_2 O 0.2058(7) 0.5178(6) 0.95573(12)
O12_2 O 0.4902(7) 0.3665(6) 0.98301(11)
O13_2 O 0.5074(7) 0.2477(6) 0.93900(11)
C14_2 C 0.1914(9) 0.4811(7) 0.92014(17)
C15_2 C 0.2611(10) 0.4222(8) 0.90726(17)
C16_2 C 0.2687(10) 0.4017(8) 0.86805(18)
H12_2 H 0.224326 0.420491 0.849694
C17_2 C 0.3397(11) 0.3543(9) 0.85451(18)
C18_2 C 0.4000(10) 0.3238(8) 0.88268(18)
H13_2 H 0.447728 0.289531 0.874409
C19_2 C 0.3919(10) 0.3422(8) 0.92196(18)
C20_2 C 0.3232(10) 0.3913(8) 0.93457(18)
H14_2 H 0.317994 0.404461 0.961754
C21_2 C 0.4670(9) 0.3168(7) 0.94985(19)
H18_2 H 0.159174 0.001690 0.696461
O20_2 O 0.7152(7) 0.1139(5) 0.80249(14)
H19_2 H 0.746146 0.098523 0.821834
H20_2 H 0.703486 0.055803 0.788444
O21_2 O 0.6218(6) 0.2195(4) 0.86542(15)
H21_2 H 0.597885 0.261922 0.875862
H22_2 H 0.685206 0.245943 0.879862
O22_2 O 0.3808(10) 0.0196(6) 0.8916(2)
H23_2 H 0.435194 0.044890 0.910361
H24_2 H 0.394354 0.093580 0.889311
O34_2 O 0.1139(9) 0.7152(7) 0.86417(14)
H37_2 H 0.098523 0.746146 0.844832
H38_2 H 0.055803 0.703486 0.878222
O35_2 O 0.2195(8) 0.6218(6) 0.80124(15)
H39_2 H 0.261922 0.597885 0.790804
H40_2 H 0.245943 0.685206 0.786804
O36_2 O 0.0196(13) 0.3808(10) 0.7750(2)
H41_2 H 0.044890 0.435194 0.756305
H42_2 H 0.093580 0.394354 0.777355
Sr12_3 Sr 0.34826(5) 0.69652(4) 1.000000
Sr14_3 Sr 0.65174(5) 0.30348(4) 1.000000
O48_2 O 0.6335(6) 0.5098(4) 0.68365(11)
O50_2 O 0.5098(7) 0.6335(6) 0.98301(11)
O53_2 O 0.7523(6) 0.4926(4) 0.72766(11)
O56_2 O 0.7271(6) 0.6361(4) 0.60929(13)
O60_2 O 0.8206(6) 0.5309(4) 0.62273(14)
O61 O 0.8206(6) 0.2897(4) 0.71060(14)
Sr1_4 Sr 0.500000 1.000000 0.83145(2)
O7_2 O 0.2848(7) 0.8861(5) 0.80249(14)
H1_2 H 0.253854 0.901477 0.821834
H2_2 H 0.296514 0.944197 0.788444
O8_2 O 0.3782(6) 0.7805(4) 0.86542(15)
H3_2 H 0.402115 0.738078 0.875862
H4_2 H 0.314794 0.754057 0.879862
O9_2 O 0.6192(10) 0.9804(6) 0.8916(2)
H5_2 H 0.564806 0.955110 0.910361
H6_2 H 0.605646 0.906420 0.889311
C25_2 C 0.0000(8) 0.9421(6) 0.666666
C26_2 C 0.0000(8) 0.7236(6) 0.666666
H16_2 H 0.000003 0.648921 0.666664
O19_2 O 0.1794(6) 0.7103(4) 0.71060(14)
C30_2 C 0.1885(8) 0.8126(6) 0.70828(18)
C31_2 C 0.0926(7) 0.8236(5) 0.68607(18)
C32_2 C 0.0936(8) 0.9319(6) 0.68479(19)
C33_2 C 0.5189(7) 0.8086(5) 0.74652(17)
C34_2 C 0.5778(8) 0.7389(6) 0.75940(17)
C35_2 C 0.5983(8) 0.7313(6) 0.79861(18)
H25_2 H 0.579509 0.775674 0.816972
C36_2 C 0.6457(9) 0.6603(7) 0.81215(18)
C37_2 C 0.6762(8) 0.6000(6) 0.78398(18)
H26_2 H 0.710469 0.552272 0.792257
C38_2 C 0.6578(8) 0.6081(6) 0.74470(18)
C39_2 C 0.6087(8) 0.6768(5) 0.73209(18)
H27_2 H 0.595539 0.682006 0.704912
C40_2 C 0.6832(7) 0.5330(5) 0.71681(19)
O27 O 0.8782(7) 0.5080(6) 0.89691(11)
O28_2 O 0.7942(7) 0.4822(6) 0.95573(12)
O30_2 O 0.4926(7) 0.7523(6) 0.93900(11)
C41_2 C 0.8086(9) 0.5189(7) 0.92014(17)
C42_2 C 0.7389(10) 0.5778(8) 0.90726(17)
C43_2 C 0.7313(10) 0.5983(8) 0.86805(18)
H28_2 H 0.775674 0.579509 0.849694
C44_2 C 0.6603(11) 0.6457(9) 0.85451(18)
C45_2 C 0.6000(10) 0.6762(8) 0.88268(18)
H29_2 H 0.552272 0.710469 0.874409
C46_2 C 0.6081(10) 0.6578(8) 0.92196(18)
C47_2 C 0.6768(10) 0.6087(8) 0.93457(18)
H30_2 H 0.682006 0.595539 0.961754
C48_2 C 0.5330(9) 0.6832(7) 0.94985(19)
Sr7_2 Sr 1.000000 0.500000 0.83521(2)
Sr18_2 Sr 1.000000 0.500000 0.96103(2)
C12_3 C 1.0000(8) 0.0579(6) 0.666666
C13_3 C 1.0000(8) 0.2764(6) 0.666666
H11_3 H 0.999997 0.351079 0.666664
C27_2 C 0.8115(8) 0.1874(6) 0.70828(18)
C28_2 C 0.9074(7) 0.1764(5) 0.68607(18)
C29_2 C 0.9064(8) 0.0681(6) 0.68479(19)
O31_2 O 0.8861(9) 0.2848(7) 0.86417(14)
H31_2 H 0.901477 0.253854 0.844832
H32_2 H 0.944197 0.296514 0.878222
O32_2 O 0.7805(8) 0.3782(6) 0.80124(15)
H33_2 H 0.738078 0.402115 0.790804
H34_2 H 0.754057 0.314794 0.786804
O33_2 O 0.9804(13) 0.6192(10) 0.7750(2)
H35_2 H 0.955110 0.564806 0.756305
H36_2 H 0.906420 0.605646 0.777355
C22_2 C 0.8115(8) 0.6241(5) 0.62505(18)
C23_2 C 0.9074(7) 0.7310(5) 0.64726(18)
C24_2 C 0.9064(8) 0.8383(6) 0.64854(19)
H15_2 H 0.840826 0.842516 0.636872
C25_3 C 1.0000(8) 0.9421(6) 0.666666
C26_3 C 1.0000(8) 0.7236(6) 0.666666
H16_3 H 1.000003 0.648921 0.666664
H17_2 H 0.840826 0.998310 0.696461
C12_4 C 0.0579(6) -0.0000(8) -0.000000
C13_4 C 0.2764(6) 0.0000(8) -0.000000
H11_4 H 0.351082 0.000003 -0.000002
O17_2 O 0.4691(4) 0.1794(6) 0.04393(14)
C27_3 C 0.3759(5) 0.1885(8) 0.04161(18)
C28_3 C 0.2690(5) 0.0926(7) 0.01940(18)
C29_3 C 0.1617(6) 0.0936(8) 0.01812(19)
H17_3 H 0.157484 0.159174 0.029794
Sr6_2 Sr 0.500000 0.000000 0.16855(2)
O31_3 O 0.3987(5) 0.1139(9) 0.19751(14)
H31_3 H 0.352377 0.098523 0.178166
H32_3 H 0.352317 0.055803 0.211556
O32_3 O 0.5977(5) 0.2195(8) 0.13458(15)
H33_3 H 0.664037 0.261922 0.124138
H34_3 H 0.560737 0.245943 0.120138
O33_3 O 0.6388(8) 0.0196(13) 0.1084(2)
H35_3 H 0.609696 0.044890 0.089639
H36_3 H 0.699226 0.093580 0.110689
C12_5 C 0.0579(6) 0.0000(8) 1.000000
C13_5 C 0.2764(6) 0.0000(8) 1.000000
H11_5 H 0.351082 0.000003 0.999998
H15_3 H 0.001690 0.159174 0.970206
O3_3 O 0.1237(4) 0.6335(6) 0.01699(11)
O4_3 O 0.2597(4) 0.7523(6) 0.06100(11)
C5_3 C 0.0762(6) 0.6762(8) 0.11732(18)
H8_3 H 0.158197 0.710469 0.125591
C6_3 C 0.0497(6) 0.6578(8) 0.07804(18)
C8_3 C 0.1502(5) 0.6832(7) 0.05015(19)
C12_6 C 0.0579(6) 1.0000(8) -0.000000
C13_6 C 0.2764(6) 1.0000(8) -0.000000
H11_6 H 0.351082 1.000003 -0.000002
C14_3 C 0.2897(5) 0.8086(9) 0.25348(17)
C15_3 C 0.1611(6) 0.7389(10) 0.24060(17)
C16_3 C 0.1330(6) 0.7313(10) 0.20139(18)
H12_3 H 0.196165 0.775674 0.183028
C17_3 C 0.0146(6) 0.6603(11) 0.18785(18)
C20_3 C 0.0681(6) 0.6768(10) 0.26791(18)
H14_3 H 0.086467 0.682006 0.295088
Sr6_3 Sr 0.500000 1.000000 0.16855(2)
O34_3 O 0.6013(5) 0.8861(9) 0.19751(14)
H37_3 H 0.647623 0.901477 0.178166
H38_3 H 0.647683 0.944197 0.211556
O35_3 O 0.4023(5) 0.7805(8) 0.13458(15)
H39_3 H 0.335963 0.738078 0.124138
H40_3 H 0.439263 0.754057 0.120138
O36_3 O 0.3612(8) 0.9804(13) 0.1084(2)
H41_3 H 0.390304 0.955110 0.089639
H42_3 H 0.300774 0.906420 0.110689
O5_3 O 0.0910(4) 0.7271(6) 0.94263(13)
O6_3 O 0.2897(4) 0.8206(6) 0.95607(14)
C9_3 C 0.1874(6) 0.8115(8) 0.95839(18)
C10_3 C 0.1764(5) 0.9074(7) 0.98060(18)
C11_3 C 0.0681(6) 0.9064(8) 0.98188(19)
C12_7 C 0.0579(6) 1.0000(8) 1.000000
C13_7 C 0.2764(6) 1.0000(8) 1.000000
H11_7 H 0.351082 1.000003 0.999998
C25_4 C 0.9421(6) -0.0000(8) -0.000000
C26_4 C 0.7236(6) -0.0000(8) -0.000000
H16_4 H 0.648918 -0.000003 -0.000002
O14 O 0.9090(4) 0.2729(6) 0.94263(13)
O15 O 0.7103(4) 0.1794(6) 0.95607(14)
C22_3 C 0.8126(6) 0.1885(8) 0.95839(18)
C23_3 C 0.8236(5) 0.0926(7) 0.98060(18)
C24_3 C 0.9319(6) 0.0936(8) 0.98188(19)
C25_5 C 0.9421(6) -0.0000(8) 1.000000
C26_5 C 0.7236(6) 0.0000(8) 1.000000
H16_5 H 0.648918 -0.000003 0.999998
Sr1_5 Sr 0.500000 0.500000 0.16479(2)
O7_3 O 0.6013(5) 0.7152(7) 0.13583(14)
H1_3 H 0.647623 0.746146 0.155168
H2_3 H 0.647683 0.703486 0.121778
O8_3 O 0.4023(5) 0.6218(6) 0.19876(15)
H3_3 H 0.335963 0.597885 0.209196
H4_3 H 0.439263 0.685206 0.213196
O9_3 O 0.3612(8) 0.3808(10) 0.2250(2)
H5_3 H 0.390304 0.435194 0.243695
H6_3 H 0.300774 0.394354 0.222645
C1_3 C 0.7103(5) 0.5189(7) 0.07986(17)
C2_3 C 0.8389(6) 0.5778(8) 0.09274(17)
C3_3 C 0.8670(6) 0.5983(8) 0.13195(18)
H7_3 H 0.803835 0.579509 0.150306
C4_3 C 0.9854(6) 0.6457(9) 0.14549(18)
C7_3 C 0.9319(6) 0.6087(8) 0.06543(18)
H9_3 H 0.913533 0.595539 0.038246
C18_3 C 0.9238(6) 0.6000(10) 0.21602(18)
H13_3 H 0.841803 0.552272 0.207743
C19_3 C 0.9503(6) 0.6081(10) 0.25530(18)
C21_3 C 0.8498(5) 0.5330(9) 0.28319(19)
C25_6 C 0.9421(6) 1.0000(8) -0.000000
C26_6 C 0.7236(6) 1.0000(8) -0.000000
H16_6 H 0.648918 0.999997 -0.000002
O19_3 O 0.5309(4) 0.8206(6) 0.04393(14)
C30_3 C 0.6241(5) 0.8115(8) 0.04161(18)
C31_3 C 0.7310(5) 0.9074(7) 0.01940(18)
C32_3 C 0.8383(6) 0.9064(8) 0.01812(19)
H18_3 H 0.842516 0.840826 0.029794
O20_3 O 0.3987(5) 0.2848(7) 0.13583(14)
H19_3 H 0.352377 0.253854 0.155168
H20_3 H 0.352317 0.296514 0.121778
O21_3 O 0.5977(5) 0.3782(6) 0.19876(15)
H21_3 H 0.664037 0.402115 0.209196
H22_3 H 0.560737 0.314794 0.213196
O22_3 O 0.6388(8) 0.6192(10) 0.2250(2)
H23_3 H 0.609696 0.564806 0.243695
H24_3 H 0.699226 0.605646 0.222645
C33_3 C 0.2897(5) 0.4811(7) 0.07986(17)
C34_3 C 0.1611(6) 0.4222(8) 0.09274(17)
C35_3 C 0.1330(6) 0.4017(8) 0.13195(18)
H25_3 H 0.196165 0.420491 0.150306
C36_3 C 0.0146(6) 0.3543(9) 0.14549(18)
C39_3 C 0.0681(6) 0.3913(8) 0.06543(18)
H27_3 H 0.086467 0.404461 0.038246
C45_3 C 0.0762(6) 0.4000(10) 0.21602(18)
H29_3 H 0.158197 0.447728 0.207743
C46_3 C 0.0497(6) 0.3919(10) 0.25530(18)
C48_3 C 0.1502(5) 0.4670(9) 0.28319(19)
O48_3 O 0.8763(4) 0.3665(6) 0.01699(11)
O53_3 O 0.7403(4) 0.2477(6) 0.06100(11)
H10_3 H 0.998310 0.840826 0.970206
C25_7 C 0.9421(6) 1.0000(8) 1.000000
C26_7 C 0.7236(6) 1.0000(8) 1.000000
H16_7 H 0.648918 0.999997 0.999998
C37_3 C 0.9238(6) 0.3238(8) 0.11732(18)
H26_3 H 0.841803 0.289531 0.125591
C38_3 C 0.9503(6) 0.3422(8) 0.07804(18)
C40_3 C 0.8498(5) 0.3168(7) 0.05015(19)
C41_3 C 0.7103(5) 0.1914(9) 0.25348(17)
C42_3 C 0.8389(6) 0.2611(10) 0.24060(17)
C43_3 C 0.8670(6) 0.2687(10) 0.20139(18)
H28_3 H 0.803835 0.224326 0.183028
C44_3 C 0.9854(6) 0.3397(11) 0.18785(18)
C47_3 C 0.9319(6) 0.3232(10) 0.26791(18)
H30_3 H 0.913533 0.317994 0.295088
loop_
_geom_bond_atom_site_label_1
_geom_bond_atom_site_label_2
_geom_bond_site_symmetry_1
_geom_bond_site_symmetry_2
Sr3 O3 1_555 1_555
O3 C8 1_555 1_555
O4 C8 1_555 1_555
O5 Sr3 1_555 1_555
O6 C9 1_555 1_555
H8 C5 1_555 1_555
C6 C5 1_555 1_555
C8 C6 1_555 1_555
C9 O5 1_555 1_555
C10 C9 1_555 1_555
C11 C10 1_555 1_555
C12 C11 1_555 1_555
C13 C10 1_555 1_555
H11 C13 1_555 1_555
O10 C14 1_555 1_555
O11 C14 1_555 1_555
C14 C15 1_555 1_555
C15 C16 1_555 1_555
C16 H12 1_555 1_555
C20 C15 1_555 1_555
H14 C20 1_555 1_555
O16 C27 1_555 1_555
O17 C27 1_555 1_555
C27 C28 1_555 1_555
C28 C13 1_555 1_555
C29 C12 1_555 1_555
Sr6 O10 1_555 1_555
O31 Sr6 1_555 1_555
H31 O31 1_555 1_555
H32 O31 1_555 1_555
O32 Sr6 1_555 1_555
H33 O32 1_555 1_555
H34 O32 1_555 1_555
O33 Sr6 1_555 1_555
H35 O33 1_555 1_555
H36 O33 1_555 1_555
O34 Sr6 1_555 1_555
H37 O34 1_555 1_555
H38 O34 1_555 1_555
O35 Sr6 1_555 1_555
H39 O35 1_555 1_555
H40 O35 1_555 1_555
O36 Sr6 1_555 1_555
H41 O36 1_555 1_555
H42 O36 1_555 1_555
Sr10 O17 1_555 1_555
Sr12 O11 1_555 1_555
Sr15 O3 1_555 1_555
Sr19 O10 1_555 1_555
Sr21 O16 1_555 1_555
O37 Sr4 1_555 1_555
O39 Sr3 1_555 1_555
O40 Sr6 1_555 1_555
O42 Sr4 1_555 1_555
O45 Sr3 1_555 1_555
O50 Sr4 1_555 1_555
O57 Sr4 1_555 1_555
O4 Sr15 1_555 1_555
O6 Sr15 1_555 1_555
O11 Sr19 1_555 1_555
C16 C17 1_555 1_555
C28 C29 1_555 1_555
Sr12 O42 1_555 1_555
Sr12 O50 1_555 1_555
Sr15 O45 1_555 1_555
Sr19 O40 1_555 1_555
Sr1 O1 1_555 1_555
Sr10 O2 1_555 1_555
O1 C1 1_555 1_555
O2 C1 1_555 1_555
C1 C2 1_555 1_555
C2 C3 1_555 1_555
C3 H7 1_555 1_555
C4 C3 1_555 1_555
C7 C2 1_555 1_555
H9 C7 1_555 1_555
O12 C21 1_555 1_555
O13 C21 1_555 1_555
H13 C18 1_555 1_555
C19 C18 1_555 1_555
C21 C19 1_555 1_555
O20 Sr1 1_555 1_555
H19 O20 1_555 1_555
H20 O20 1_555 1_555
O21 Sr1 1_555 1_555
H21 O21 1_555 1_555
H22 O21 1_555 1_555
O22 Sr1 1_555 1_555
H23 O22 1_555 1_555
H24 O22 1_555 1_555
Sr4_2 O12 1_555 1_555
Sr14 O12 1_555 1_555
Sr21 O1 1_555 1_555
O38 Sr4_2 1_555 1_555
O41 Sr3_2 1_555 1_555
O43 Sr4_2 1_555 1_555
O46 Sr10 1_555 1_555
O48 Sr10 1_555 1_555
O49 Sr10 1_555 1_555
O53 Sr10 1_555 1_555
O54 Sr10 1_555 1_555
O56 Sr3_2 1_555 1_555
O58 Sr4_2 1_555 1_555
O60 Sr10 1_555 1_555
Sr3_2 O46 1_555 1_555
Sr3_2 O48 1_555 1_555
O2 Sr21 1_555 1_555
O13 Sr14 1_555 1_555
Sr14 O43 1_555 1_555
Sr21 O49 1_555 1_555
O7 Sr1_2 1_555 1_555
H1 O7 1_555 1_555
H2 O7 1_555 1_555
O8 Sr1_2 1_555 1_555
H3 O8 1_555 1_555
H4 O8 1_555 1_555
O9 Sr1_2 1_555 1_555
H5 O9 1_555 1_555
H6 O9 1_555 1_555
O56 C22 1_555 1_555
O60 C22 1_555 1_555
C22 C23 1_555 1_555
C23 C24 1_555 1_555
C26 C23 1_555 1_555
H16 C26 1_555 1_555
O18 C30 1_555 1_555
O19 C30 1_555 1_555
C30 C31 1_555 1_555
C31 C26 1_555 1_555
C32 C25 1_555 1_555
Sr15 O19 1_555 1_555
O23 Sr1_2 1_555 1_555
O24 Sr15 1_555 1_555
C33 O23 1_555 1_555
C34 C33 1_555 1_555
C35 C34 1_555 1_555
H25 C35 1_555 1_555
C36 C35 1_555 1_555
C39 C34 1_555 1_555
H27 C39 1_555 1_555
O50 C48 1_555 1_555
O30 C48 1_555 1_555
H29 C45 1_555 1_555
C46 C45 1_555 1_555
C48 C46 1_555 1_555
O51 Sr15 1_555 1_555
O55 Sr15 1_555 1_555
C24 C25 1_555 1_555
O18 Sr21_2 1_555 1_555
C31 C32 1_555 1_555
O23 Sr21_2 1_555 1_555
O24 C33 1_555 1_555
O24 Sr21_2 1_555 1_555
O30 Sr12 1_555 1_555
Sr21_2 O51 1_555 1_555
O48 C40 1_555 1_555
O53 C40 1_555 1_555
H26 C37 1_555 1_555
C38 C37 1_555 1_555
C40 C38 1_555 1_555
O40 C41 1_555 1_555
O28 C41 1_555 1_555
C41 C42 1_555 1_555
C42 C43 1_555 1_555
C43 H28 1_555 1_555
C47 C42 1_555 1_555
H30 C47 1_555 1_555
Sr14 O28 1_555 1_555
O28 Sr19 1_555 1_555
C43 C44 1_555 1_555
O37_2 Sr4_3 1_555 1_555
O38_2 Sr4_3 1_555 1_555
O42_2 Sr4_3 1_555 1_555
O43_2 Sr4_3 1_555 1_555
O57_2 Sr4_3 1_555 1_555
O58_2 Sr4_3 1_555 1_555
Sr12_2 O42_2 1_555 1_555
Sr14_2 O43_2 1_555 1_555
Sr1_3 O37 1_555 1_555
Sr19 O3_2 1_555 1_555
O37 C1_2 1_555 1_555
O42 C1_2 1_555 1_555
O3_2 C8_2 1_555 1_555
O4_2 C8_2 1_555 1_555
O5_2 Sr19 1_555 1_555
O6_2 C9_2 1_555 1_555
C1_2 C2_2 1_555 1_555
C2_2 C3_2 1_555 1_555
C3_2 H7_2 1_555 1_555
C4_2 C3_2 1_555 1_555
C5_2 C4_2 1_555 1_555
H8_2 C5_2 1_555 1_555
C6_2 C5_2 1_555 1_555
C7_2 C2_2 1_555 1_555
H9_2 C7_2 1_555 1_555
C8_2 C6_2 1_555 1_555
C9_2 O5_2 1_555 1_555
C10_2 C9_2 1_555 1_555
C11_2 C10_2 1_555 1_555
H10_2 C11_2 1_555 1_555
C12_2 C11_2 1_555 1_555
C13_2 C10_2 1_555 1_555
H11_2 C13_2 1_555 1_555
O10_2 C14_2 1_555 1_555
O11_2 C14_2 1_555 1_555
O12_2 C21_2 1_555 1_555
O13_2 C21_2 1_555 1_555
C14_2 C15_2 1_555 1_555
C15_2 C16_2 1_555 1_555
C16_2 H12_2 1_555 1_555
C17_2 C4_2 1_555 1_555
C18_2 C17_2 1_555 1_555
H13_2 C18_2 1_555 1_555
C19_2 C18_2 1_555 1_555
C20_2 C15_2 1_555 1_555
H14_2 C20_2 1_555 1_555
C21_2 C19_2 1_555 1_555
O20_2 Sr1_3 1_555 1_555
H19_2 O20_2 1_555 1_555
H20_2 O20_2 1_555 1_555
O21_2 Sr1_3 1_555 1_555
H21_2 O21_2 1_555 1_555
H22_2 O21_2 1_555 1_555
O22_2 Sr1_3 1_555 1_555
H23_2 O22_2 1_555 1_555
H24_2 O22_2 1_555 1_555
Sr7 O10_2 1_555 1_555
O34_2 Sr7 1_555 1_555
H37_2 O34_2 1_555 1_555
H38_2 O34_2 1_555 1_555
O35_2 Sr7 1_555 1_555
H39_2 O35_2 1_555 1_555
H40_2 O35_2 1_555 1_555
O36_2 Sr7 1_555 1_555
H41_2 O36_2 1_555 1_555
H42_2 O36_2 1_555 1_555
Sr12_3 O11_2 1_555 1_555
Sr14_3 O12_2 1_555 1_555
Sr14 O3_2 1_555 1_555
Sr18 O10_2 1_555 1_555
O48_2 Sr12 1_555 1_555
O53_2 Sr12 1_555 1_555
O56_2 Sr19 1_555 1_555
O60_2 Sr12 1_555 1_555
O61 Sr12 1_555 1_555
Sr19 O48_2 1_555 1_555
O4_2 Sr14 1_555 1_555
O6_2 Sr14 1_555 1_555
C6_2 C7_2 1_555 1_555
O11_2 Sr18 1_555 1_555
O13_2 Sr14_3 1_555 1_555
C16_2 C17_2 1_555 1_555
C19_2 C20_2 1_555 1_555
Sr12_3 O50_2 1_555 1_555
O7_2 Sr1_4 1_555 1_555
H1_2 O7_2 1_555 1_555
H2_2 O7_2 1_555 1_555
O8_2 Sr1_4 1_555 1_555
H3_2 O8_2 1_555 1_555
H4_2 O8_2 1_555 1_555
O9_2 Sr1_4 1_555 1_555
H5_2 O9_2 1_555 1_555
H6_2 O9_2 1_555 1_555
H16_2 C26_2 1_555 1_555
O58 C30_2 1_555 1_555
O19_2 C30_2 1_555 1_555
C30_2 C31_2 1_555 1_555
C31_2 C26_2 1_555 1_555
C32_2 C25_2 1_555 1_555
Sr14 O19_2 1_555 1_555
O38 Sr1_4 1_555 1_555
O48_2 C40_2 1_555 1_555
O53_2 C40_2 1_555 1_555
C33_2 O38 1_555 1_555
C34_2 C33_2 1_555 1_555
C35_2 C34_2 1_555 1_555
H25_2 C35_2 1_555 1_555
C36_2 C35_2 1_555 1_555
C37_2 C36_2 1_555 1_555
H26_2 C37_2 1_555 1_555
C38_2 C37_2 1_555 1_555
C39_2 C34_2 1_555 1_555
H27_2 C39_2 1_555 1_555
C40_2 C38_2 1_555 1_555
O27 C41_2 1_555 1_555
O28_2 C41_2 1_555 1_555
O50_2 C48_2 1_555 1_555
O30_2 C48_2 1_555 1_555
C41_2 C42_2 1_555 1_555
C42_2 C43_2 1_555 1_555
C43_2 H28_2 1_555 1_555
C44_2 C36_2 1_555 1_555
C45_2 C44_2 1_555 1_555
H29_2 C45_2 1_555 1_555
C46_2 C45_2 1_555 1_555
C47_2 C42_2 1_555 1_555
H30_2 C47_2 1_555 1_555
C48_2 C46_2 1_555 1_555
Sr7_2 O27 1_555 1_555
Sr14_3 O28_2 1_555 1_555
Sr18_2 O27 1_555 1_555
C31_2 C32_2 1_555 1_555
O43 C33_2 1_555 1_555
C38_2 C39_2 1_555 1_555
O28_2 Sr18_2 1_555 1_555
O30_2 Sr12_3 1_555 1_555
C43_2 C44_2 1_555 1_555
C46_2 C47_2 1_555 1_555
H11_3 C13_3 1_555 1_555
O57 C27_2 1_555 1_555
O61 C27_2 1_555 1_555
C27_2 C28_2 1_555 1_555
C28_2 C13_3 1_555 1_555
C29_2 C12_3 1_555 1_555
O31_2 Sr7_2 1_555 1_555
H31_2 O31_2 1_555 1_555
H32_2 O31_2 1_555 1_555
O32_2 Sr7_2 1_555 1_555
H33_2 O32_2 1_555 1_555
H34_2 O32_2 1_555 1_555
O33_2 Sr7_2 1_555 1_555
H35_2 O33_2 1_555 1_555
H36_2 O33_2 1_555 1_555
C28_2 C29_2 1_555 1_555
O56_2 C22_2 1_555 1_555
O60_2 C22_2 1_555 1_555
C22_2 C23_2 1_555 1_555
C23_2 C24_2 1_555 1_555
C24_2 H15_2 1_555 1_555
C26_3 C23_2 1_555 1_555
H16_3 C26_3 1_555 1_555
C24_2 C25_3 1_555 1_555
H11_4 C13_4 1_555 1_555
O58_2 C27_3 1_555 1_555
O17_2 C27_3 1_555 1_555
C27_3 C28_3 1_555 1_555
C28_3 C13_4 1_555 1_555
C29_3 C12_4 1_555 1_555
H17_3 C29_3 1_555 1_555
O31_3 Sr6_2 1_555 1_555
H31_3 O31_3 1_555 1_555
H32_3 O31_3 1_555 1_555
O32_3 Sr6_2 1_555 1_555
H33_3 O32_3 1_555 1_555
H34_3 O32_3 1_555 1_555
O33_3 Sr6_2 1_555 1_555
H35_3 O33_3 1_555 1_555
H36_3 O33_3 1_555 1_555
Sr14_2 O17_2 1_555 1_555
O39 Sr6_2 1_555 1_555
C28_3 C29_3 1_555 1_555
H11_5 C13_5 1_555 1_555
O3_3 C8_3 1_555 1_555
O4_3 C8_3 1_555 1_555
H8_3 C5_3 1_555 1_555
C6_3 C5_3 1_555 1_555
C8_3 C6_3 1_555 1_555
H11_6 C13_6 1_555 1_555
O41 C14_3 1_555 1_555
O46 C14_3 1_555 1_555
C14_3 C15_3 1_555 1_555
C15_3 C16_3 1_555 1_555
C16_3 H12_3 1_555 1_555
C20_3 C15_3 1_555 1_555
H14_3 C20_3 1_555 1_555
Sr6_3 O41 1_555 1_555
O34_3 Sr6_3 1_555 1_555
H37_3 O34_3 1_555 1_555
H38_3 O34_3 1_555 1_555
O35_3 Sr6_3 1_555 1_555
H39_3 O35_3 1_555 1_555
H40_3 O35_3 1_555 1_555
O36_3 Sr6_3 1_555 1_555
H41_3 O36_3 1_555 1_555
H42_3 O36_3 1_555 1_555
Sr12_2 O3_3 1_555 1_555
O4_3 Sr12_2 1_555 1_555
C16_3 C17_3 1_555 1_555
O5_3 Sr18 1_555 1_555
O6_3 C9_3 1_555 1_555
C9_3 O5_3 1_555 1_555
C10_3 C9_3 1_555 1_555
C11_3 C10_3 1_555 1_555
C12_7 C11_3 1_555 1_555
C13_7 C10_3 1_555 1_555
H11_7 C13_7 1_555 1_555
O6_3 Sr12_3 1_555 1_555
H16_4 C26_4 1_555 1_555
O14 C22_3 1_555 1_555
O15 C22_3 1_555 1_555
C22_3 C23_3 1_555 1_555
C23_3 C24_3 1_555 1_555
C26_5 C23_3 1_555 1_555
H16_5 C26_5 1_555 1_555
Sr14_3 O15 1_555 1_555
Sr18_2 O14 1_555 1_555
C24_3 C25_5 1_555 1_555
Sr1_5 O38_2 1_555 1_555
O38_2 C1_3 1_555 1_555
O43_2 C1_3 1_555 1_555
O7_3 Sr1_5 1_555 1_555
H1_3 O7_3 1_555 1_555
H2_3 O7_3 1_555 1_555
O8_3 Sr1_5 1_555 1_555
H3_3 O8_3 1_555 1_555
H4_3 O8_3 1_555 1_555
O9_3 Sr1_5 1_555 1_555
H5_3 O9_3 1_555 1_555
H6_3 O9_3 1_555 1_555
C1_3 C2_3 1_555 1_555
C2_3 C3_3 1_555 1_555
C3_3 H7_3 1_555 1_555
C4_3 C3_3 1_555 1_555
C7_3 C2_3 1_555 1_555
H9_3 C7_3 1_555 1_555
O51 C21_3 1_555 1_555
O55 C21_3 1_555 1_555
H13_3 C18_3 1_555 1_555
C19_3 C18_3 1_555 1_555
C21_3 C19_3 1_555 1_555
H16_6 C26_6 1_555 1_555
O57_2 C30_3 1_555 1_555
O19_3 C30_3 1_555 1_555
C30_3 C31_3 1_555 1_555
C31_3 C26_6 1_555 1_555
C32_3 C25_6 1_555 1_555
H18_3 C32_3 1_555 1_555
O20_3 Sr1_5 1_555 1_555
H19_3 O20_3 1_555 1_555
H20_3 O20_3 1_555 1_555
O21_3 Sr1_5 1_555 1_555
H21_3 O21_3 1_555 1_555
H22_3 O21_3 1_555 1_555
O22_3 Sr1_5 1_555 1_555
H23_3 O22_3 1_555 1_555
H24_3 O22_3 1_555 1_555
Sr12_2 O19_3 1_555 1_555
O37_2 Sr1_5 1_555 1_555
C33_3 O37_2 1_555 1_555
C34_3 C33_3 1_555 1_555
C35_3 C34_3 1_555 1_555
H25_3 C35_3 1_555 1_555
C36_3 C35_3 1_555 1_555
C39_3 C34_3 1_555 1_555
H27_3 C39_3 1_555 1_555
O49 C48_3 1_555 1_555
O54 C48_3 1_555 1_555
H29_3 C45_3 1_555 1_555
C46_3 C45_3 1_555 1_555
C48_3 C46_3 1_555 1_555
O48_3 Sr14_2 1_555 1_555
O53_3 Sr14_2 1_555 1_555
C31_3 C32_3 1_555 1_555
O42_2 C33_3 1_555 1_555
H16_7 C26_7 1_555 1_555
O48_3 C40_3 1_555 1_555
O53_3 C40_3 1_555 1_555
H26_3 C37_3 1_555 1_555
C38_3 C37_3 1_555 1_555
C40_3 C38_3 1_555 1_555
O39 C41_3 1_555 1_555
O45 C41_3 1_555 1_555
C41_3 C42_3 1_555 1_555
C42_3 C43_3 1_555 1_555
C43_3 H28_3 1_555 1_555
C47_3 C42_3 1_555 1_555
H30_3 C47_3 1_555 1_555
C43_3 C44_3 1_555 1_555

#END
