
###############################################################################
#
# This file contains modified crystal structure data generated from the
# MOF subset of the Cambridge Structural Database (CSD) v543 
# hosted by the Cambridge Crystallographic Data Centre (CCDC).
#
# This work is licensed under the Creative Commons
# Attribution-NonCommercial-ShareAlike 4.0 International License.
# To view a copy of this license, visit
# http://creativecommons.org/licenses/by-nc-sa/4.0/
# or send a letter to
# Creative Commons, PO Box 1866, Mountain View, CA 94042, USA.
#
# CIF created using the CSD Python API on 29 September 2022
# The structure has been converted into the P1 space group
# The structure has a 3D framework
# The original CSD entry XOJCIJ is in the rhombohedral crystal system
# The framework has been calculated to contain at least 10.0% void space
# The void calculation uses a probe of radius 1.32A, grid spacing 0.4
# The framework is charged, counterions have been retained in the structure
#
###############################################################################

data_XOJCIJ
_chemical_formula_moiety         '(C144 H72 F36 N70 O36 Zn24 12+)n'
_symmetry_cell_setting           triclinic
_symmetry_space_group_name_H-M   'P 1'
_symmetry_Int_Tables_number      1
_space_group_name_Hall           'P 1'
loop_
_symmetry_equiv_pos_site_id
_symmetry_equiv_pos_as_xyz
1 x,y,z
_cell_length_a                   23.27953(52)
_cell_length_b                   23.27953(52)
_cell_length_c                   12.58337(39)
_cell_angle_alpha                90
_cell_angle_beta                 90
_cell_angle_gamma                120
_cell_volume                     5905.76
loop_
_atom_site_label
_atom_site_type_symbol
_atom_site_fract_x
_atom_site_fract_y
_atom_site_fract_z
Zn3 Zn 0.00017(20) 0.75918(14) 0.00000
Zn3_2 Zn 0.00017(20) 0.75918(14) 1.00000
N10 N 0.762260 0.015840 0.138700
Zn1 Zn 0.75901(14) 0.75918(14) 0.00000
N4 N 0.762260 0.746420 0.138700
C2 C 0.620510 0.717590 0.013620
C7 C 0.801880 0.791590 0.206970
H1 H 0.632280 0.729780 0.085790
O2 O 0.900910 0.801820 0.009220
O3 O 0.746030 0.873010 0.075080
H4 H 0.829150 0.835280 0.180560
F1 F 0.507853 0.687577 0.048647
C11 C 0.721187 0.681183 0.175173
C12 C 0.805101 0.777900 0.313790
O4 O 0.683557 0.637823 0.113043
N8 N 0.723057 0.665443 0.282613
Zn4 Zn 0.75901(14) 0.99983(20) 0.00000
F4 F 0.846391 0.825480 0.381980
C16 C 0.763747 0.712823 0.346953
Zn5 Zn 0.66684(20) 0.57432(14) 0.33333
H8 H 0.764167 0.701053 0.419123
Zn1_2 Zn 0.75901(14) 0.75918(14) 1.00000
N1 N 0.667890 0.724280 0.949280
N2 N 0.804670 0.714080 0.947440
N3 N 0.799780 0.847520 0.947950
C1 C 0.652150 0.706670 0.841840
C3 C 0.872980 0.745970 0.969890
C4 C 0.776290 0.654460 0.905460
C5 C 0.780240 0.890120 0.994160
C6 C 0.836300 0.867210 0.861570
O1 O 0.695510 0.712400 0.779710
C8 C 0.555433 0.693867 0.980457
C9 C 0.810680 0.621360 0.882150
H2 H 0.730140 0.633900 0.890980
C10 C 0.856570 0.928290 0.813610
H3 H 0.848890 0.837630 0.831770
F2 F 0.78003 0.560060 0.838990
F3 F 0.894130 0.947060 0.724780
N5 N 0.586913 0.682507 0.805367
N6 N 0.909410 0.714080 0.947440
N7 N 0.799780 0.952260 0.947950
C13 C 0.541743 0.676957 0.873637
Zn2 Zn 0.57415(14) 0.66650(20) 0.66667
C14 C 0.878170 0.654460 0.905460
C15 C 0.836300 0.969090 0.861570
Zn4_2 Zn 0.75901(14) 0.99983(20) 1.00000
H5 H 0.498053 0.660537 0.847227
H6 H 0.903760 0.633900 0.890980
N9 N 0.667890 0.943610 0.949280
Zn1_3 Zn 0.24082(14) 0.24099(14) 0.00000
N4_2 N 0.253580 0.237740 0.138700
C2_2 C 0.282410 0.379490 0.013620
C7_2 C 0.208410 0.198120 0.206970
H1_2 H 0.270220 0.367720 0.085790
O2_2 O 0.198180 0.099090 0.009220
O3_2 O 0.126990 0.253970 0.075080
H4_2 H 0.164720 0.170850 0.180560
F1_2 F 0.312423 0.492147 0.048647
C11_2 C 0.318817 0.278813 0.175173
C12_2 C 0.222100 0.194899 0.313790
O4_2 O 0.362177 0.316443 0.113043
N8_2 N 0.334557 0.276943 0.282613
Zn4_3 Zn 0.00017(20) 0.24099(14) 0.00000
F4_2 F 0.174520 0.153609 0.381980
C16_2 C 0.287177 0.236253 0.346953
Zn5_2 Zn 0.42568(14) 0.33316(20) 0.33333
H8_2 H 0.298947 0.235833 0.419123
Zn1_4 Zn 0.24082(14) 0.24099(14) 1.00000
N1_2 N 0.275720 0.332110 0.949280
N2_2 N 0.285920 0.195330 0.947440
N3_2 N 0.152480 0.200220 0.947950
C1_2 C 0.293330 0.347850 0.841840
C3_2 C 0.254030 0.127020 0.969890
C4_2 C 0.345540 0.223710 0.905460
C5_2 C 0.109880 0.219760 0.994160
C6_2 C 0.132790 0.163700 0.861570
O1_2 O 0.287600 0.304490 0.779710
C8_2 C 0.306133 0.444567 0.980457
C9_2 C 0.378640 0.189320 0.882150
H2_2 H 0.366100 0.269860 0.890980
C10_2 C 0.071710 0.143430 0.813610
H3_2 H 0.162370 0.151110 0.831770
F2_2 F 0.439940 0.21997 0.838990
F3_2 F 0.052940 0.105870 0.724780
N5_2 N 0.317493 0.413087 0.805367
N6_2 N 0.285920 0.090590 0.947440
N7_2 N 0.047740 0.200220 0.947950
C13_2 C 0.323043 0.458257 0.873637
Zn2_2 Zn 0.33350(20) 0.42585(14) 0.66667
C14_2 C 0.345540 0.121830 0.905460
C15_2 C 0.030910 0.163700 0.861570
Zn4_4 Zn 0.00017(20) 0.24099(14) 1.00000
H5_2 H 0.339463 0.501947 0.847227
H6_2 H 0.366100 0.096240 0.890980
N9_2 N 0.056390 0.332110 0.949280
Zn3_3 Zn 0.24082(14) 0.99983(20) 0.00000
Zn3_4 Zn 0.24082(14) 0.99983(20) 1.00000
N10_2 N 0.984160 0.237740 0.138700
N4_3 N 0.253580 0.015840 0.138700
C7_3 C 0.208410 0.010290 0.206970
C11_3 C 0.318817 0.040003 0.175173
C12_3 C 0.222100 0.027200 0.313790
O4_3 O 0.362177 0.045733 0.113043
N8_3 N 0.334557 0.057613 0.282613
F4_3 F 0.174520 0.020910 0.381980
C16_3 C 0.287177 0.050923 0.346953
Zn5_3 Zn 0.42568(14) 0.09251(24) 0.33333
H8_3 H 0.298947 0.063113 0.419123
H3_3 H 0.162370 0.011260 0.831770
C2_3 C 0.282410 0.902920 0.013620
H1_3 H 0.270220 0.902500 0.085790
O3_3 O 0.126990 0.873020 0.075080
H4_3 H 0.164720 0.993870 0.180560
F1_3 F 0.312423 0.820276 0.048647
N1_3 N 0.275720 0.943610 0.949280
N3_3 N 0.152480 0.952260 0.947950
C1_3 C 0.293330 0.945480 0.841840
C5_3 C 0.109880 0.890120 0.994160
C6_3 C 0.132790 0.969090 0.861570
O1_3 O 0.287600 0.983110 0.779710
C8_3 C 0.306133 0.861566 0.980457
C10_3 C 0.071710 0.928280 0.813610
F3_3 F 0.052940 0.947070 0.724780
N5_3 N 0.317493 0.904407 0.805367
N7_3 N 0.047740 0.847520 0.947950
C13_3 C 0.323043 0.864787 0.873637
Zn2_3 Zn 0.33350(20) 0.90766(24) 0.66667
C15_3 C 0.030910 0.867210 0.861570
H5_3 H 0.339463 0.837517 0.847227
N9_3 N 0.056390 0.724280 0.949280
N10_3 N 0.984160 0.746420 0.138700
H7 H 0.988740 0.837630 0.831770
C2_4 C 0.097080 0.379490 0.013620
H1_4 H 0.097500 0.367720 0.085790
H4_4 H 0.006130 0.170850 0.180560
F1_4 F 0.179724 0.492147 0.048647
C1_4 C 0.054520 0.347850 0.841840
O1_4 O 0.016890 0.304490 0.779710
C8_4 C 0.138434 0.444567 0.980457
N5_4 N 0.095593 0.413087 0.805367
C13_4 C 0.135213 0.458257 0.873637
Zn2_4 Zn 0.09234(24) 0.42585(14) 0.66667
H5_4 H 0.162483 0.501947 0.847227
C7_4 C 0.989710 0.198120 0.206970
O2_3 O 0.900910 0.099090 0.009220
C11_4 C 0.959997 0.278813 0.175173
C12_4 C 0.972800 0.194899 0.313790
O4_4 O 0.954267 0.316443 0.113043
N8_4 N 0.942387 0.276943 0.282613
F4_4 F 0.979090 0.153609 0.381980
C16_4 C 0.949077 0.236253 0.346953
Zn5_4 Zn 0.90749(24) 0.33316(20) 0.33333
H8_4 H 0.936887 0.235833 0.419123
N1_4 N 0.001223 0.390947 0.615947
N2_3 N 0.138003 0.380747 0.614107
N3_4 N 0.133113 0.514187 0.614617
C3_3 C 0.206313 0.412637 0.636557
C4_3 C 0.109623 0.321127 0.572127
C5_4 C 0.113573 0.556787 0.660827
C6_4 C 0.169633 0.533877 0.528237
O1_5 O 0.028843 0.379067 0.446377
O2_4 O 0.234243 0.468487 0.675887
C9_3 C 0.144013 0.288027 0.548817
H2_3 H 0.063473 0.300567 0.557647
O3_4 O 0.079363 0.539677 0.741747
C10_4 C 0.189903 0.594957 0.480277
H3_4 H 0.182223 0.504297 0.498437
F2_3 F 0.11336 0.226727 0.505657
F3_4 F 0.227463 0.613727 0.391447
N6_3 N 0.242743 0.380747 0.614107
N7_4 N 0.133113 0.618927 0.614617
C14_3 C 0.211503 0.321127 0.572127
C15_4 C 0.169633 0.635757 0.528237
Zn4_5 Zn 0.09234(14) 0.66650(20) 0.66667
H6_3 H 0.237093 0.300567 0.557647
H7_2 H 0.182223 0.677927 0.498437
N9_4 N 0.001223 0.610277 0.615947
N10_4 N 0.095593 0.682507 0.805367
N11 N 0.138003 0.757257 0.614107
C1_5 C 0.985483 0.373337 0.508507
C2_5 C 0.953843 0.384257 0.680287
C8_5 C 0.888766 0.360534 0.647124
H1_5 H 0.965613 0.396447 0.752457
F1_5 F 0.841186 0.354244 0.715314
N5_5 N 0.920247 0.349173 0.472033
C13_5 C 0.875077 0.343623 0.540303
H5_5 H 0.831387 0.327203 0.513893
N1_5 N 0.609053 0.610277 0.615947
N2_4 N 0.619253 0.757257 0.614107
N3_5 N 0.485813 0.618927 0.614617
C1_6 C 0.626663 0.612147 0.508507
C2_6 C 0.615743 0.569587 0.680287
C3_4 C 0.587363 0.793677 0.636557
C4_4 C 0.678873 0.788497 0.572127
C5_5 C 0.443213 0.556787 0.660827
C6_5 C 0.466123 0.635757 0.528237
O1_6 O 0.620933 0.649777 0.446377
C8_6 C 0.639466 0.528233 0.647124
H1_6 H 0.603553 0.569167 0.752457
O2_5 O 0.531513 0.765757 0.675887
C9_4 C 0.711973 0.855987 0.548817
H2_4 H 0.699433 0.762907 0.557647
O3_5 O 0.460323 0.539687 0.741747
C10_5 C 0.405043 0.594947 0.480277
H3_5 H 0.495703 0.677927 0.498437
F1_6 F 0.645756 0.486943 0.715314
F2_4 F 0.773273 0.886637 0.505657
F3_5 F 0.386273 0.613737 0.391447
N5_6 N 0.650827 0.571073 0.472033
N6_4 N 0.619253 0.861997 0.614107
N7_5 N 0.381073 0.514187 0.614617
C13_6 C 0.656377 0.531453 0.540303
C14_4 C 0.678873 0.890377 0.572127
Zn3_5 Zn 0.57415(14) 0.90766(24) 0.66667
C15_5 C 0.364243 0.533877 0.528237
H5_6 H 0.672797 0.504183 0.513893
H6_4 H 0.699433 0.936527 0.557647
H7_3 H 0.322073 0.504297 0.498437
N9_5 N 0.389723 0.390947 0.615947
C1_7 C 0.387853 0.014517 0.508507
C2_7 C 0.430413 0.046157 0.680287
C8_7 C 0.471767 0.111234 0.647124
H1_7 H 0.430833 0.034387 0.752457
F1_7 F 0.513057 0.158814 0.715314
N5_7 N 0.428927 0.079753 0.472033
C13_7 C 0.468547 0.124923 0.540303
H5_7 H 0.495817 0.168613 0.513893
N1_6 N 0.389723 0.998777 0.615947
N2_5 N 0.242743 0.861997 0.614107
N3_6 N 0.381073 0.866887 0.614617
C3_5 C 0.206323 0.793687 0.636557
C4_5 C 0.211503 0.890377 0.572127
C5_6 C 0.443213 0.886427 0.660827
C6_6 C 0.364243 0.830367 0.528237
O1_7 O 0.350223 0.971157 0.446377
O2_6 O 0.234243 0.765757 0.675887
C9_5 C 0.144013 0.855987 0.548817
H2_5 H 0.237093 0.936527 0.557647
O3_6 O 0.460313 0.920637 0.741747
C10_6 C 0.405053 0.810097 0.480277
H3_6 H 0.322073 0.817777 0.498437
F2_5 F 0.113363 0.88664 0.505657
F3_6 F 0.386263 0.772537 0.391447
N7_6 N 0.485813 0.866887 0.614617
C14_5 C 0.109623 0.788497 0.572127
C15_6 C 0.466123 0.830367 0.528237
H6_5 H 0.063473 0.762907 0.557647
H7_4 H 0.495703 0.817777 0.498437
N9_6 N 0.609053 0.998777 0.615947
N10_5 N 0.586913 0.904407 0.805367
N2_6 N 0.471337 0.047413 0.280773
N3_7 N 0.466447 0.180853 0.281283
C3_6 C 0.539647 0.079303 0.303223
C5_7 C 0.446907 0.223453 0.327493
C6_7 C 0.502967 0.200543 0.194903
O2_7 O 0.567577 0.135153 0.342553
O3_7 O 0.412697 0.206343 0.408413
C10_7 C 0.523237 0.261623 0.146943
H3_7 H 0.515557 0.170963 0.165103
F3_7 F 0.560797 0.280393 0.058113
N6_5 N 0.576077 0.047413 0.280773
N7_7 N 0.466447 0.285593 0.281283
Zn3_6 Zn 0.66684(20) 0.09251(14) 0.33333
C15_7 C 0.502967 0.302423 0.194903
H7_5 H 0.515557 0.344593 0.165103
N10_6 N 0.428927 0.349173 0.472033
N11_2 N 0.471337 0.423923 0.280773
C4_6 C 0.442957 0.987793 0.238793
C9_6 C 0.477347 0.954693 0.215483
H2_6 H 0.396807 0.967233 0.224313
F2_6 F 0.44670 0.893393 0.172323
C14_6 C 0.544837 0.987793 0.238793
H6_6 H 0.570427 0.967233 0.224313
C4_7 C 0.012207 0.455163 0.238793
C9_7 C 0.045307 0.522653 0.215483
H2_7 H 0.032767 0.429573 0.224313
F2_7 F 0.106607 0.553303 0.172323
C14_7 C 0.012207 0.557043 0.238793
H6_7 H 0.032767 0.603193 0.224313
N2_7 N 0.952587 0.423923 0.280773
N3_8 N 0.819147 0.285593 0.281283
C3_7 C 0.920697 0.460343 0.303223
C5_8 C 0.776547 0.223453 0.327493
C6_8 C 0.799457 0.302423 0.194903
O2_8 O 0.864847 0.432423 0.342553
O3_8 O 0.793657 0.206353 0.408413
C10_8 C 0.738377 0.261613 0.146943
H3_8 H 0.829037 0.344593 0.165103
F3_8 F 0.719607 0.280403 0.058113
N6_6 N 0.952587 0.528663 0.280773
N7_8 N 0.714407 0.180853 0.281283
Zn3_7 Zn 0.90749(14) 0.57432(24) 0.33333
C15_8 C 0.697577 0.200543 0.194903
H7_6 H 0.655407 0.170963 0.165103
N9_7 N 0.723057 0.057613 0.282613
N10_7 N 0.650827 0.079753 0.472033
N2_8 N 0.576077 0.528663 0.280773
N3_9 N 0.714407 0.533553 0.281283
C3_8 C 0.539657 0.460353 0.303223
C4_8 C 0.544837 0.557043 0.238793
C5_9 C 0.776547 0.553093 0.327493
C6_9 C 0.697577 0.497033 0.194903
O2_9 O 0.567577 0.432423 0.342553
C9_8 C 0.477347 0.522653 0.215483
H2_8 H 0.570427 0.603193 0.224313
O3_9 O 0.793647 0.587303 0.408413
C10_9 C 0.738387 0.476763 0.146943
H3_9 H 0.655407 0.484443 0.165103
F2_8 F 0.446697 0.55330 0.172323
F3_9 F 0.719597 0.439203 0.058113
N7_9 N 0.819147 0.533553 0.281283
C14_8 C 0.442957 0.455163 0.238793
C15_9 C 0.799457 0.497033 0.194903
H6_8 H 0.396807 0.429573 0.224313
H7_7 H 0.829037 0.484443 0.165103
N9_8 N 0.942387 0.665443 0.282613
N10_8 N 0.920247 0.571073 0.472033
C7_5 C 0.801880 0.010290 0.206970
C11_5 C 0.721187 0.040003 0.175173
C12_5 C 0.805101 0.027200 0.313790
O4_5 O 0.683557 0.045733 0.113043
F4_5 F 0.846391 0.020910 0.381980
C16_5 C 0.763747 0.050923 0.346953
H8_5 H 0.764167 0.063113 0.419123
C2_8 C 0.620510 0.902920 0.013620
H1_8 H 0.632280 0.902500 0.085790
H4_5 H 0.829150 0.993870 0.180560
F1_8 F 0.507853 0.820276 0.048647
C1_8 C 0.652150 0.945480 0.841840
O1_8 O 0.695510 0.983110 0.779710
C8_8 C 0.555433 0.861566 0.980457
C13_8 C 0.541743 0.864787 0.873637
H5_8 H 0.498053 0.837517 0.847227
C2_9 C 0.097080 0.717590 0.013620
H1_9 H 0.097500 0.729780 0.085790
H4_6 H 0.006130 0.835280 0.180560
F1_9 F 0.179724 0.687577 0.048647
C1_9 C 0.054520 0.706670 0.841840
O1_9 O 0.016890 0.712400 0.779710
C8_9 C 0.138434 0.693867 0.980457
C13_9 C 0.135213 0.676957 0.873637
H5_9 H 0.162483 0.660537 0.847227
C7_6 C 0.989710 0.791590 0.206970
C11_6 C 0.959997 0.681183 0.175173
C12_6 C 0.972800 0.777900 0.313790
O4_6 O 0.954267 0.637823 0.113043
F4_6 F 0.979090 0.825480 0.381980
C16_6 C 0.949077 0.712823 0.346953
H8_6 H 0.936887 0.701053 0.419123
C1_10 C 0.626663 0.014517 0.508507
C2_10 C 0.615743 0.046157 0.680287
C8_10 C 0.639466 0.111234 0.647124
H1_10 H 0.603553 0.034387 0.752457
F1_10 F 0.645756 0.158814 0.715314
C13_10 C 0.656377 0.124923 0.540303
H5_10 H 0.672797 0.168613 0.513893
O1_10 O 0.620933 0.971157 0.446377
O1_11 O 0.028843 0.649777 0.446377
C1_11 C 0.985483 0.612147 0.508507
C2_11 C 0.953843 0.569587 0.680287
C8_11 C 0.888766 0.528233 0.647124
H1_11 H 0.965613 0.569167 0.752457
F1_11 F 0.841186 0.486943 0.715314
C13_11 C 0.875077 0.531453 0.540303
H5_11 H 0.831387 0.504183 0.513893
C1_12 C 0.387853 0.373337 0.508507
C2_12 C 0.430413 0.384257 0.680287
O1_12 O 0.350223 0.379067 0.446377
C8_12 C 0.471767 0.360534 0.647124
H1_12 H 0.430833 0.396447 0.752457
F1_12 F 0.513057 0.354244 0.715314
C13_12 C 0.468547 0.343623 0.540303
H5_12 H 0.495817 0.327203 0.513893
H7_8 H 0.848890 0.011260 0.831770
N11_3 N 0.804670 0.090590 0.947440
H7_9 H 0.988740 0.151110 0.831770
N11_4 N 0.909410 0.195330 0.947440
C3_9 C 0.872990 0.127020 0.969890
C4_9 C 0.878170 0.223710 0.905460
C9_9 C 0.810680 0.189320 0.882150
H2_9 H 0.903760 0.269860 0.890980
F2_9 F 0.780030 0.21997 0.838990
C14_9 C 0.776290 0.121830 0.905460
H6_9 H 0.730140 0.096240 0.890980
loop_
_geom_bond_atom_site_label_1
_geom_bond_atom_site_label_2
_geom_bond_site_symmetry_1
_geom_bond_site_symmetry_2
N4 Zn1 1_555 1_555
C7 N4 1_555 1_555
H1 C2 1_555 1_555
H4 C7 1_555 1_555
C11 N4 1_555 1_555
C12 C7 1_555 1_555
O4 C11 1_555 1_555
N8 C11 1_555 1_555
F4 C12 1_555 1_555
C16 C12 1_555 1_555
Zn5 N8 1_555 1_555
H8 C16 1_555 1_555
N8 C16 1_555 1_555
Zn1_2 N1 1_555 1_555
N1 C1 1_555 1_555
N2 Zn1_2 1_555 1_555
N3 Zn1_2 1_555 1_555
C1 O1 1_555 1_555
C3 N2 1_555 1_555
C4 N2 1_555 1_555
C5 N3 1_555 1_555
C6 N3 1_555 1_555
C9 C4 1_555 1_555
H2 C4 1_555 1_555
C10 C6 1_555 1_555
H3 C6 1_555 1_555
F2 C9 1_555 1_555
F3 C10 1_555 1_555
N5 C1 1_555 1_555
N6 C3 1_555 1_555
N7 C5 1_555 1_555
C13 C8 1_555 1_555
Zn2 N5 1_555 1_555
C14 C9 1_555 1_555
C15 C10 1_555 1_555
Zn4_2 N7 1_555 1_555
H5 C13 1_555 1_555
H6 C14 1_555 1_555
N9 Zn4_2 1_555 1_555
N5 C13 1_555 1_555
N6 C14 1_555 1_555
N7 C15 1_555 1_555
N4_2 Zn1_3 1_555 1_555
C7_2 N4_2 1_555 1_555
H1_2 C2_2 1_555 1_555
H4_2 C7_2 1_555 1_555
C11_2 N4_2 1_555 1_555
C12_2 C7_2 1_555 1_555
O4_2 C11_2 1_555 1_555
N8_2 C11_2 1_555 1_555
F4_2 C12_2 1_555 1_555
C16_2 C12_2 1_555 1_555
Zn5_2 N8_2 1_555 1_555
H8_2 C16_2 1_555 1_555
N8_2 C16_2 1_555 1_555
Zn1_4 N1_2 1_555 1_555
N1_2 C1_2 1_555 1_555
N2_2 Zn1_4 1_555 1_555
N3_2 Zn1_4 1_555 1_555
C1_2 O1_2 1_555 1_555
C3_2 N2_2 1_555 1_555
C4_2 N2_2 1_555 1_555
C5_2 N3_2 1_555 1_555
C6_2 N3_2 1_555 1_555
C9_2 C4_2 1_555 1_555
H2_2 C4_2 1_555 1_555
C10_2 C6_2 1_555 1_555
H3_2 C6_2 1_555 1_555
F2_2 C9_2 1_555 1_555
F3_2 C10_2 1_555 1_555
N5_2 C1_2 1_555 1_555
N6_2 C3_2 1_555 1_555
N7_2 C5_2 1_555 1_555
C13_2 C8_2 1_555 1_555
Zn2_2 N5_2 1_555 1_555
C14_2 C9_2 1_555 1_555
C15_2 C10_2 1_555 1_555
Zn4_4 N7_2 1_555 1_555
H5_2 C13_2 1_555 1_555
H6_2 C14_2 1_555 1_555
N9_2 Zn4_4 1_555 1_555
N5_2 C13_2 1_555 1_555
N6_2 C14_2 1_555 1_555
N7_2 C15_2 1_555 1_555
C7_3 N4_3 1_555 1_555
C11_3 N4_3 1_555 1_555
C12_3 C7_3 1_555 1_555
O4_3 C11_3 1_555 1_555
N8_3 C11_3 1_555 1_555
F4_3 C12_3 1_555 1_555
C16_3 C12_3 1_555 1_555
Zn5_3 N8_3 1_555 1_555
H8_3 C16_3 1_555 1_555
N8_3 C16_3 1_555 1_555
H1_3 C2_3 1_555 1_555
Zn3_4 N1_3 1_555 1_555
N1_3 C1_3 1_555 1_555
N3_3 Zn3_4 1_555 1_555
C1_3 O1_3 1_555 1_555
C5_3 N3_3 1_555 1_555
C6_3 N3_3 1_555 1_555
C10_3 C6_3 1_555 1_555
F3_3 C10_3 1_555 1_555
N5_3 C1_3 1_555 1_555
N7_3 C5_3 1_555 1_555
C13_3 C8_3 1_555 1_555
Zn2_3 N5_3 1_555 1_555
C15_3 C10_3 1_555 1_555
Zn3_2 N7_3 1_555 1_555
H5_3 C13_3 1_555 1_555
N9_3 Zn3_2 1_555 1_555
N5_3 C13_3 1_555 1_555
N7_3 C15_3 1_555 1_555
H1_4 C2_4 1_555 1_555
N9_2 C1_4 1_555 1_555
C1_4 O1_4 1_555 1_555
N5_4 C1_4 1_555 1_555
C13_4 C8_4 1_555 1_555
Zn2_4 N5_4 1_555 1_555
H5_4 C13_4 1_555 1_555
N5_4 C13_4 1_555 1_555
C7_4 N10_2 1_555 1_555
C11_4 N10_2 1_555 1_555
C12_4 C7_4 1_555 1_555
O4_4 C11_4 1_555 1_555
N8_4 C11_4 1_555 1_555
F4_4 C12_4 1_555 1_555
C16_4 C12_4 1_555 1_555
Zn5_4 N8_4 1_555 1_555
H8_4 C16_4 1_555 1_555
N8_4 C16_4 1_555 1_555
Zn2_4 N1_4 1_555 1_555
N2_3 Zn2_4 1_555 1_555
N3_4 Zn2_4 1_555 1_555
C3_3 N2_3 1_555 1_555
C4_3 N2_3 1_555 1_555
C5_4 N3_4 1_555 1_555
C6_4 N3_4 1_555 1_555
O2_4 C3_3 1_555 1_555
C9_3 C4_3 1_555 1_555
H2_3 C4_3 1_555 1_555
O3_4 C5_4 1_555 1_555
C10_4 C6_4 1_555 1_555
H3_4 C6_4 1_555 1_555
F2_3 C9_3 1_555 1_555
F3_4 C10_4 1_555 1_555
N6_3 C3_3 1_555 1_555
N7_4 C5_4 1_555 1_555
C14_3 C9_3 1_555 1_555
Zn2_2 N6_3 1_555 1_555
C15_4 C10_4 1_555 1_555
Zn4_5 N7_4 1_555 1_555
H6_3 C14_3 1_555 1_555
H7_2 C15_4 1_555 1_555
N9_4 Zn4_5 1_555 1_555
N10_4 Zn4_5 1_555 1_555
N11 Zn4_5 1_555 1_555
N6_3 C14_3 1_555 1_555
N7_4 C15_4 1_555 1_555
C8_5 C2_5 1_555 1_555
H1_5 C2_5 1_555 1_555
F1_5 C8_5 1_555 1_555
N5_5 C1_5 1_555 1_555
C13_5 C8_5 1_555 1_555
Zn5_4 N5_5 1_555 1_555
H5_5 C13_5 1_555 1_555
N5_5 C13_5 1_555 1_555
Zn2 N1_5 1_555 1_555
N1_5 C1_6 1_555 1_555
N2_4 Zn2 1_555 1_555
N3_5 Zn2 1_555 1_555
C1_6 O1_6 1_555 1_555
C2_6 N1_5 1_555 1_555
C3_4 N2_4 1_555 1_555
C4_4 N2_4 1_555 1_555
C5_5 N3_5 1_555 1_555
C6_5 N3_5 1_555 1_555
C8_6 C2_6 1_555 1_555
H1_6 C2_6 1_555 1_555
O2_5 C3_4 1_555 1_555
C9_4 C4_4 1_555 1_555
H2_4 C4_4 1_555 1_555
O3_5 C5_5 1_555 1_555
C10_5 C6_5 1_555 1_555
H3_5 C6_5 1_555 1_555
F1_6 C8_6 1_555 1_555
F2_4 C9_4 1_555 1_555
F3_5 C10_5 1_555 1_555
N5_6 C1_6 1_555 1_555
N6_4 C3_4 1_555 1_555
N7_5 C5_5 1_555 1_555
C13_6 C8_6 1_555 1_555
Zn5 N5_6 1_555 1_555
C14_4 C9_4 1_555 1_555
Zn3_5 N6_4 1_555 1_555
C15_5 C10_5 1_555 1_555
Zn2_2 N7_5 1_555 1_555
H5_6 C13_6 1_555 1_555
H6_4 C14_4 1_555 1_555
H7_3 C15_5 1_555 1_555
N9_5 Zn2_2 1_555 1_555
N5_6 C13_6 1_555 1_555
N6_4 C14_4 1_555 1_555
N7_5 C15_5 1_555 1_555
C8_7 C2_7 1_555 1_555
H1_7 C2_7 1_555 1_555
F1_7 C8_7 1_555 1_555
N5_7 C1_7 1_555 1_555
C13_7 C8_7 1_555 1_555
Zn5_3 N5_7 1_555 1_555
H5_7 C13_7 1_555 1_555
N5_7 C13_7 1_555 1_555
Zn2_3 N1_6 1_555 1_555
N2_5 Zn2_3 1_555 1_555
N3_6 Zn2_3 1_555 1_555
C3_5 N2_5 1_555 1_555
C4_5 N2_5 1_555 1_555
C5_6 N3_6 1_555 1_555
C6_6 N3_6 1_555 1_555
O2_6 C3_5 1_555 1_555
C9_5 C4_5 1_555 1_555
H2_5 C4_5 1_555 1_555
O3_6 C5_6 1_555 1_555
C10_6 C6_6 1_555 1_555
H3_6 C6_6 1_555 1_555
F2_5 C9_5 1_555 1_555
F3_6 C10_6 1_555 1_555
N11 C3_5 1_555 1_555
N7_6 C5_6 1_555 1_555
C14_5 C9_5 1_555 1_555
C15_6 C10_6 1_555 1_555
Zn3_5 N7_6 1_555 1_555
H6_5 C14_5 1_555 1_555
H7_4 C15_6 1_555 1_555
N9_6 Zn3_5 1_555 1_555
N10_5 Zn3_5 1_555 1_555
N11 C14_5 1_555 1_555
N7_6 C15_6 1_555 1_555
N2_6 Zn5_3 1_555 1_555
N3_7 Zn5_3 1_555 1_555
C3_6 N2_6 1_555 1_555
C5_7 N3_7 1_555 1_555
C6_7 N3_7 1_555 1_555
O2_7 C3_6 1_555 1_555
O3_7 C5_7 1_555 1_555
C10_7 C6_7 1_555 1_555
H3_7 C6_7 1_555 1_555
F3_7 C10_7 1_555 1_555
N6_5 C3_6 1_555 1_555
N7_7 C5_7 1_555 1_555
Zn3_6 N6_5 1_555 1_555
C15_7 C10_7 1_555 1_555
Zn5_2 N7_7 1_555 1_555
H7_5 C15_7 1_555 1_555
N10_6 Zn5_2 1_555 1_555
N11_2 Zn5_2 1_555 1_555
N7_7 C15_7 1_555 1_555
C9_6 C4_6 1_555 1_555
H2_6 C4_6 1_555 1_555
F2_6 C9_6 1_555 1_555
C14_6 C9_6 1_555 1_555
H6_6 C14_6 1_555 1_555
C9_7 C4_7 1_555 1_555
H2_7 C4_7 1_555 1_555
F2_7 C9_7 1_555 1_555
C14_7 C9_7 1_555 1_555
H6_7 C14_7 1_555 1_555
N2_7 Zn5_4 1_555 1_555
N3_8 Zn5_4 1_555 1_555
C3_7 N2_7 1_555 1_555
C5_8 N3_8 1_555 1_555
C6_8 N3_8 1_555 1_555
O2_8 C3_7 1_555 1_555
O3_8 C5_8 1_555 1_555
C10_8 C6_8 1_555 1_555
H3_8 C6_8 1_555 1_555
F3_8 C10_8 1_555 1_555
N6_6 C3_7 1_555 1_555
N7_8 C5_8 1_555 1_555
Zn3_7 N6_6 1_555 1_555
C15_8 C10_8 1_555 1_555
Zn3_6 N7_8 1_555 1_555
H7_6 C15_8 1_555 1_555
N9_7 Zn3_6 1_555 1_555
N10_7 Zn3_6 1_555 1_555
N7_8 C15_8 1_555 1_555
N2_8 Zn5 1_555 1_555
N3_9 Zn5 1_555 1_555
C3_8 N2_8 1_555 1_555
C4_8 N2_8 1_555 1_555
C5_9 N3_9 1_555 1_555
C6_9 N3_9 1_555 1_555
O2_9 C3_8 1_555 1_555
C9_8 C4_8 1_555 1_555
H2_8 C4_8 1_555 1_555
O3_9 C5_9 1_555 1_555
C10_9 C6_9 1_555 1_555
H3_9 C6_9 1_555 1_555
F2_8 C9_8 1_555 1_555
F3_9 C10_9 1_555 1_555
N11_2 C3_8 1_555 1_555
N7_9 C5_9 1_555 1_555
C14_8 C9_8 1_555 1_555
C15_9 C10_9 1_555 1_555
Zn3_7 N7_9 1_555 1_555
H6_8 C14_8 1_555 1_555
H7_7 C15_9 1_555 1_555
N9_8 Zn3_7 1_555 1_555
N10_8 Zn3_7 1_555 1_555
N11_2 C14_8 1_555 1_555
N7_9 C15_9 1_555 1_555
C7_5 N10 1_555 1_555
C11_5 N10 1_555 1_555
C12_5 C7_5 1_555 1_555
O4_5 C11_5 1_555 1_555
N9_7 C11_5 1_555 1_555
F4_5 C12_5 1_555 1_555
C16_5 C12_5 1_555 1_555
H8_5 C16_5 1_555 1_555
N9_7 C16_5 1_555 1_555
H1_8 C2_8 1_555 1_555
N9 C1_8 1_555 1_555
C1_8 O1_8 1_555 1_555
N10_5 C1_8 1_555 1_555
C13_8 C8_8 1_555 1_555
H5_8 C13_8 1_555 1_555
N10_5 C13_8 1_555 1_555
H1_9 C2_9 1_555 1_555
N9_3 C1_9 1_555 1_555
C1_9 O1_9 1_555 1_555
N10_4 C1_9 1_555 1_555
C13_9 C8_9 1_555 1_555
H5_9 C13_9 1_555 1_555
N10_4 C13_9 1_555 1_555
C7_6 N10_3 1_555 1_555
C11_6 N10_3 1_555 1_555
C12_6 C7_6 1_555 1_555
O4_6 C11_6 1_555 1_555
N9_8 C11_6 1_555 1_555
F4_6 C12_6 1_555 1_555
C16_6 C12_6 1_555 1_555
H8_6 C16_6 1_555 1_555
N9_8 C16_6 1_555 1_555
C8_10 C2_10 1_555 1_555
H1_10 C2_10 1_555 1_555
F1_10 C8_10 1_555 1_555
N10_7 C1_10 1_555 1_555
C13_10 C8_10 1_555 1_555
H5_10 C13_10 1_555 1_555
N10_7 C13_10 1_555 1_555
C8_11 C2_11 1_555 1_555
H1_11 C2_11 1_555 1_555
F1_11 C8_11 1_555 1_555
N10_8 C1_11 1_555 1_555
C13_11 C8_11 1_555 1_555
H5_11 C13_11 1_555 1_555
N10_8 C13_11 1_555 1_555
N9_5 C1_12 1_555 1_555
C1_12 O1_12 1_555 1_555
C2_12 N9_5 1_555 1_555
C8_12 C2_12 1_555 1_555
H1_12 C2_12 1_555 1_555
F1_12 C8_12 1_555 1_555
N10_6 C1_12 1_555 1_555
C13_12 C8_12 1_555 1_555
H5_12 C13_12 1_555 1_555
N10_6 C13_12 1_555 1_555
C3_9 N11_4 1_555 1_555
C4_9 N11_4 1_555 1_555
C9_9 C4_9 1_555 1_555
H2_9 C4_9 1_555 1_555
F2_9 C9_9 1_555 1_555
N11_3 C3_9 1_555 1_555
C14_9 C9_9 1_555 1_555
H6_9 C14_9 1_555 1_555
N11_3 C14_9 1_555 1_555

#END
