
###############################################################################
#
# This file contains modified crystal structure data generated from the
# MOF subset of the Cambridge Structural Database (CSD) v543 
# hosted by the Cambridge Crystallographic Data Centre (CCDC).
#
# This work is licensed under the Creative Commons
# Attribution-NonCommercial-ShareAlike 4.0 International License.
# To view a copy of this license, visit
# http://creativecommons.org/licenses/by-nc-sa/4.0/
# or send a letter to
# Creative Commons, PO Box 1866, Mountain View, CA 94042, USA.
#
# CIF created using the CSD Python API on 29 September 2022
# The structure has been converted into the P1 space group
# The structure has a 3D framework
# The original CSD entry XOJCEF is in the rhombohedral crystal system
# The framework has been calculated to contain at least 10.0% void space
# The void calculation uses a probe of radius 1.32A, grid spacing 0.4
# The framework is charged, counterions have been retained in the structure
#
###############################################################################

data_XOJCEF
_chemical_formula_moiety         '(C144 H72 Co17 F36 N70 O36 2-)n'
_symmetry_cell_setting           triclinic
_symmetry_space_group_name_H-M   'P 1'
_symmetry_Int_Tables_number      1
_space_group_name_Hall           'P 1'
loop_
_symmetry_equiv_pos_site_id
_symmetry_equiv_pos_as_xyz
1 x,y,z
_cell_length_a                   23.64144(61)
_cell_length_b                   23.64144(61)
_cell_length_c                   10.29926(52)
_cell_angle_alpha                90
_cell_angle_beta                 90
_cell_angle_gamma                120
_cell_volume                     4985.22
loop_
_atom_site_label
_atom_site_type_symbol
_atom_site_fract_x
_atom_site_fract_y
_atom_site_fract_z
Co4 Co 0.76990(46) 0.00188(63) 0.00000
N9 N 0.772190 0.022870 0.170270
Co4_2 Co 0.76990(46) 0.00188(63) 1.00000
H7 H 0.846540 0.008750 0.793530
N11 N 0.812600 0.084250 0.893700
Co1 Co 0.76990(46) 0.76802(43) 0.00000
N1 N 0.772190 0.749320 0.170270
C1 C 0.730780 0.68133 0.18059
C2 C 0.803740 0.782020 0.274260
C7 C 0.648110 0.738140 0.067370
O1 O 0.700600 0.649410 0.084820
C8 C 0.798107 0.752543 0.394233
H1 H 0.831420 0.827860 0.264990
O3 O 0.754720 0.877360 0.102730
H4 H 0.670440 0.755020 0.147150
F1 F 0.831217 0.787573 0.499343
N5 N 0.723827 0.649793 0.30027
C12 C 0.580790 0.712231 0.060900
C13 C 0.756697 0.685223 0.400703
Co2 Co 0.66479(63) 0.56343(46) 0.33333
Co3 Co 0.99812(63) 0.76802(43) 0.00000
F4 F 0.545760 0.710311 0.166010
H5 H 0.751247 0.662893 0.480483
Co1_2 Co 0.76990(46) 0.76802(43) 1.00000
N2 N 0.812600 0.728350 0.893700
N3 N 0.802700 0.849780 0.94116
N4 N 0.683540 0.740700 0.96694
C3 C 0.88005 0.760090 0.919550
C4 C 0.784350 0.669020 0.845390
C5 C 0.785260 0.892630 0.999890
C6 C 0.835290 0.867490 0.831400
O2 O 0.907840 0.815680 0.964830
C9 C 0.81804 0.636070 0.818560
H2 H 0.738790 0.648550 0.828720
C10 C 0.853390 0.926700 0.770450
H3 H 0.846540 0.837790 0.793530
F2 F 0.787530 0.575060 0.768870
F3 F 0.886910 0.943460 0.657570
C11 C 0.65200 0.716117 0.84726
N6 N 0.915750 0.728350 0.893700
N7 N 0.802700 0.952920 0.94116
O4 O 0.683923 0.717857 0.751487
N8 N 0.584013 0.689537 0.836937
C14 C 0.884670 0.669020 0.845390
Co3_2 Co 0.99812(63) 0.76802(43) 1.00000
C15 C 0.835290 0.967800 0.831400
C16 C 0.551313 0.688387 0.940927
Co5 Co 0.56531(43) 0.66855(63) 0.66667
H6 H 0.909760 0.648550 0.828720
N10 N 0.683540 0.942840 0.96694
H8 H 0.505473 0.670227 0.931657
Co1_3 Co 0.23198(43) 0.23010(46) 0.00000
N1_2 N 0.250680 0.227810 0.170270
C1_2 C 0.31867 0.269220 0.18059
C2_2 C 0.217980 0.196260 0.274260
C7_2 C 0.261860 0.351890 0.067370
O1_2 O 0.350590 0.299400 0.084820
C8_2 C 0.247457 0.201893 0.394233
H1_2 H 0.172140 0.168580 0.264990
O3_2 O 0.122640 0.245280 0.102730
H4_2 H 0.244980 0.329560 0.147150
F1_2 F 0.212427 0.168783 0.499343
N5_2 N 0.350207 0.276173 0.30027
C12_2 C 0.287769 0.419210 0.060900
C13_2 C 0.314777 0.243303 0.400703
Co2_2 Co 0.43657(46) 0.33521(63) 0.33333
Co3_3 Co 0.23198(43) 0.00188(63) 0.00000
F4_2 F 0.289689 0.454240 0.166010
H5_2 H 0.337107 0.248753 0.480483
Co1_4 Co 0.23198(43) 0.23010(46) 1.00000
N2_2 N 0.271650 0.187400 0.893700
N3_2 N 0.150220 0.197300 0.94116
N4_2 N 0.259300 0.316460 0.96694
C3_2 C 0.239910 0.11995 0.919550
C4_2 C 0.330980 0.215650 0.845390
C5_2 C 0.107370 0.214740 0.999890
C6_2 C 0.132510 0.164710 0.831400
O2_2 O 0.184320 0.092160 0.964830
C9_2 C 0.363930 0.18196 0.818560
H2_2 H 0.351450 0.261210 0.828720
C10_2 C 0.073300 0.146610 0.770450
H3_2 H 0.162210 0.153460 0.793530
F2_2 F 0.424940 0.212470 0.768870
F3_2 F 0.056540 0.113090 0.657570
C11_2 C 0.283883 0.34800 0.84726
N6_2 N 0.271650 0.084250 0.893700
N7_2 N 0.047080 0.197300 0.94116
O4_2 O 0.282143 0.316077 0.751487
N8_2 N 0.310463 0.415987 0.836937
C14_2 C 0.330980 0.115330 0.845390
Co3_4 Co 0.23198(43) 0.00188(63) 1.00000
C15_2 C 0.032200 0.164710 0.831400
C16_2 C 0.311613 0.448687 0.940927
Co5_2 Co 0.33145(63) 0.43469(43) 0.66667
H6_2 H 0.351450 0.090240 0.828720
N10_2 N 0.057160 0.316460 0.96694
H8_2 H 0.329773 0.494527 0.931657
Co4_3 Co 0.99812(63) 0.23010(46) 0.00000
N9_2 N 0.977130 0.227810 0.170270
Co4_4 Co 0.99812(63) 0.23010(46) 1.00000
H7_2 H 0.991250 0.153460 0.793530
N11_2 N 0.915750 0.187400 0.893700
N1_3 N 0.250680 0.022870 0.170270
C1_3 C 0.31867 0.049450 0.18059
C2_3 C 0.217980 0.021720 0.274260
O1_3 O 0.350590 0.051190 0.084820
C8_3 C 0.247457 0.045564 0.394233
H1_3 H 0.172140 0.003560 0.264990
F1_3 F 0.212427 0.043644 0.499343
N5_3 N 0.350207 0.074033 0.30027
C13_3 C 0.314777 0.071473 0.400703
Co2_3 Co 0.43657(46) 0.10135(78) 0.33333
H5_3 H 0.337107 0.088353 0.480483
H3_3 H 0.162210 0.008750 0.793530
N3_3 N 0.150220 0.952920 0.94116
N4_3 N 0.259300 0.942840 0.96694
C5_3 C 0.107370 0.892630 0.999890
C6_3 C 0.132510 0.967800 0.831400
C10_3 C 0.073300 0.926690 0.770450
F3_3 F 0.056540 0.943450 0.657570
C11_3 C 0.283883 0.935887 0.84726
N7_3 N 0.047080 0.849780 0.94116
O4_3 O 0.282143 0.966067 0.751487
N8_3 N 0.310463 0.894477 0.836937
C15_3 C 0.032200 0.867490 0.831400
C16_3 C 0.311613 0.862927 0.940927
Co5_3 Co 0.33145(63) 0.89677(76) 0.66667
N10_3 N 0.057160 0.740700 0.96694
H8_3 H 0.329773 0.835247 0.931657
N9_3 N 0.977130 0.749320 0.170270
H7_3 H 0.991250 0.837790 0.793530
C7_3 C 0.090030 0.351890 0.067370
H4_3 H 0.084580 0.329560 0.147150
C12_3 C 0.131440 0.419210 0.060900
F4_3 F 0.164550 0.454240 0.166010
C11_4 C 0.064113 0.34800 0.84726
O4_4 O 0.033933 0.316077 0.751487
N8_4 N 0.105523 0.415987 0.836937
C16_4 C 0.137073 0.448687 0.940927
Co5_4 Co 0.10323(76) 0.43469(43) 0.66667
H8_4 H 0.164753 0.494527 0.931657
C1_4 C 0.950550 0.269220 0.18059
C2_4 C 0.978280 0.196260 0.274260
O1_4 O 0.948810 0.299400 0.084820
C8_4 C 0.954436 0.201893 0.394233
H1_4 H 0.996440 0.168580 0.264990
F1_4 F 0.956356 0.168783 0.499343
N5_4 N 0.925967 0.276173 0.30027
C13_4 C 0.928527 0.243303 0.400703
Co2_4 Co 0.89865(78) 0.33521(63) 0.33333
H5_4 H 0.911647 0.248753 0.480483
C3_3 C 0.880040 0.11995 0.919550
C4_3 C 0.884670 0.215650 0.845390
O2_3 O 0.907840 0.092160 0.964830
C9_3 C 0.818030 0.18196 0.818560
H2_3 H 0.909760 0.261210 0.828720
F2_3 F 0.787530 0.212470 0.768870
C14_3 C 0.784350 0.115330 0.845390
H6_3 H 0.738790 0.090240 0.828720
N2_3 N 0.145933 0.395017 0.560367
N3_4 N 0.136033 0.516447 0.60783
N4_4 N 0.016873 0.407367 0.63361
C3_4 C 0.21338 0.426757 0.586217
C4_4 C 0.117683 0.335687 0.512057
C5_4 C 0.118593 0.559297 0.666557
C6_4 C 0.168623 0.534157 0.498067
O2_4 O 0.241173 0.482347 0.631497
C9_4 C 0.15137 0.302737 0.485227
H2_4 H 0.072123 0.315217 0.495387
O3_3 O 0.088053 0.544027 0.769397
C10_4 C 0.186723 0.593367 0.437117
H3_4 H 0.179873 0.504457 0.460197
H4_4 H 0.003773 0.421687 0.813817
F2_4 F 0.120863 0.241727 0.435537
F3_4 F 0.220243 0.610127 0.324237
N6_3 N 0.249083 0.395017 0.560367
N7_4 N 0.136033 0.619587 0.60783
O4_5 O 0.017257 0.384523 0.418153
C14_4 C 0.218003 0.335687 0.512057
C15_4 C 0.168623 0.634467 0.498067
Co4_5 Co 0.10323(46) 0.66855(63) 0.66667
H6_4 H 0.243093 0.315217 0.495387
H7_4 H 0.179873 0.675417 0.460197
N9_4 N 0.105523 0.689537 0.836937
N10_4 N 0.016873 0.609507 0.63361
N11_3 N 0.145933 0.750917 0.560367
C7_4 C 0.981443 0.404807 0.734037
C11_5 C 0.98534 0.382783 0.51392
C12_4 C 0.914124 0.378897 0.727566
N8_5 N 0.917347 0.356203 0.503603
C16_5 C 0.884647 0.355053 0.607593
F4_4 F 0.879094 0.376977 0.832676
H8_5 H 0.838807 0.336893 0.598323
N2_4 N 0.604983 0.750917 0.560367
N3_5 N 0.483553 0.619587 0.60783
N4_5 N 0.592633 0.609507 0.63361
C3_5 C 0.573243 0.786627 0.586217
C4_5 C 0.664313 0.781997 0.512057
C5_5 C 0.440703 0.559297 0.666557
C6_5 C 0.465843 0.634467 0.498067
C7_5 C 0.595193 0.576637 0.734037
O2_5 O 0.517653 0.758827 0.631497
C9_5 C 0.697263 0.848637 0.485227
H2_5 H 0.684783 0.756907 0.495387
O3_4 O 0.455973 0.544027 0.769397
C10_5 C 0.406633 0.593357 0.437117
H3_5 H 0.495543 0.675417 0.460197
H4_5 H 0.578313 0.582087 0.813817
F2_5 F 0.758273 0.879137 0.435537
F3_5 F 0.389873 0.610117 0.324237
C11_6 C 0.617217 0.602553 0.51392
N6_4 N 0.604983 0.854067 0.560367
N7_5 N 0.380413 0.516447 0.60783
C12_5 C 0.621103 0.535226 0.727566
O4_6 O 0.615477 0.632733 0.418153
N8_6 N 0.643797 0.561143 0.503603
C14_5 C 0.664313 0.882317 0.512057
Co3_5 Co 0.56531(43) 0.89677(76) 0.66667
C15_5 C 0.365533 0.534157 0.498067
C16_6 C 0.644947 0.529593 0.607593
F4_5 F 0.623023 0.502116 0.832676
H6_5 H 0.684783 0.927877 0.495387
H7_5 H 0.324583 0.504457 0.460197
N10_5 N 0.390493 0.407367 0.63361
H8_6 H 0.663107 0.501913 0.598323
C7_6 C 0.423363 0.018557 0.734037
C11_7 C 0.397447 0.01466 0.51392
C12_6 C 0.464774 0.085876 0.727566
N8_7 N 0.438857 0.082653 0.503603
C16_7 C 0.470407 0.115353 0.607593
F4_6 F 0.497884 0.120906 0.832676
H8_7 H 0.498087 0.161193 0.598323
N2_5 N 0.249083 0.854067 0.560367
N3_6 N 0.380413 0.863967 0.60783
N4_6 N 0.390493 0.983127 0.63361
C3_6 C 0.213373 0.78662 0.586217
C4_6 C 0.218003 0.882317 0.512057
C5_6 C 0.440703 0.881407 0.666557
C6_6 C 0.365533 0.831377 0.498067
O2_6 O 0.241173 0.758827 0.631497
C9_6 C 0.151363 0.84863 0.485227
H2_6 H 0.243093 0.927877 0.495387
O3_5 O 0.455973 0.911947 0.769397
C10_6 C 0.406643 0.813277 0.437117
H3_6 H 0.324583 0.820127 0.460197
H4_6 H 0.417913 0.996227 0.813817
F2_6 F 0.120863 0.879137 0.435537
F3_6 F 0.389883 0.779757 0.324237
N7_6 N 0.483553 0.863967 0.60783
O4_7 O 0.367267 0.982743 0.418153
C14_6 C 0.117683 0.781997 0.512057
C15_6 C 0.465843 0.831377 0.498067
H6_6 H 0.072123 0.756907 0.495387
H7_6 H 0.495543 0.820127 0.460197
N9_5 N 0.584013 0.894477 0.836937
N10_6 N 0.592633 0.983127 0.63361
N2_6 N 0.479267 0.061683 0.227033
N3_7 N 0.469367 0.183113 0.27449
C3_7 C 0.54672 0.093423 0.252883
C4_7 C 0.451017 0.002353 0.178723
C5_7 C 0.451927 0.225963 0.333223
C6_7 C 0.501957 0.200823 0.164733
O2_7 O 0.574507 0.149013 0.298163
O3_6 O 0.421387 0.210693 0.436063
C10_7 C 0.520057 0.260033 0.103783
H3_7 H 0.513207 0.171123 0.126863
N6_5 N 0.582417 0.061683 0.227033
N7_7 N 0.469367 0.286253 0.27449
C14_7 C 0.551337 0.002353 0.178723
Co3_6 Co 0.66479(63) 0.10135(43) 0.33333
C15_7 C 0.501957 0.301133 0.164733
H7_7 H 0.513207 0.342083 0.126863
N9_6 N 0.438857 0.356203 0.503603
N11_4 N 0.479267 0.417583 0.227033
F3_7 F 0.553577 0.276793 0.990903
C9_7 C 0.48471 0.969403 0.151893
H2_7 H 0.405457 0.981883 0.162053
F2_7 F 0.454197 0.908393 0.102203
H6_7 H 0.576427 0.981883 0.162053
C9_8 C 0.030597 0.515303 0.151893
H2_8 H 0.018117 0.423573 0.162053
F2_8 F 0.091607 0.545803 0.102203
H6_8 H 0.018117 0.594543 0.162053
N2_7 N 0.938317 0.417583 0.227033
N3_8 N 0.816887 0.286253 0.27449
C3_8 C 0.906577 0.453293 0.252883
C4_8 C 0.997647 0.448663 0.178723
C5_8 C 0.774037 0.225963 0.333223
C6_8 C 0.799177 0.301133 0.164733
O2_8 O 0.850987 0.425493 0.298163
O3_7 O 0.789307 0.210693 0.436063
C10_8 C 0.739967 0.260023 0.103783
H3_8 H 0.828877 0.342083 0.126863
N6_6 N 0.938317 0.520733 0.227033
N7_8 N 0.713747 0.183113 0.27449
C14_8 C 0.997647 0.548983 0.178723
Co3_7 Co 0.89865(43) 0.56343(76) 0.33333
C15_8 C 0.698867 0.200823 0.164733
H7_8 H 0.657917 0.171123 0.126863
N9_7 N 0.643797 0.082653 0.503603
N10_7 N 0.723827 0.074033 0.30027
F3_8 F 0.723207 0.276783 0.990903
N2_8 N 0.582417 0.520733 0.227033
N3_9 N 0.713747 0.530633 0.27449
C3_9 C 0.546707 0.45328 0.252883
C4_9 C 0.551337 0.548983 0.178723
C5_9 C 0.774037 0.548073 0.333223
C6_9 C 0.698867 0.498043 0.164733
O2_9 O 0.574507 0.425493 0.298163
C9_9 C 0.484697 0.51529 0.151893
H2_9 H 0.576427 0.594543 0.162053
O3_8 O 0.789307 0.578613 0.436063
C10_9 C 0.739977 0.479943 0.103783
H3_9 H 0.657917 0.486793 0.126863
F2_9 F 0.454197 0.545803 0.102203
N7_9 N 0.816887 0.530633 0.27449
C14_9 C 0.451017 0.448663 0.178723
C15_9 C 0.799177 0.498043 0.164733
H6_9 H 0.405457 0.423573 0.162053
H7_9 H 0.828877 0.486793 0.126863
N9_8 N 0.917347 0.561143 0.503603
N10_8 N 0.925967 0.649793 0.30027
F3_9 F 0.723217 0.446423 0.990903
C1_5 C 0.730780 0.049450 0.18059
C2_5 C 0.803740 0.021720 0.274260
O1_5 O 0.700600 0.051190 0.084820
C8_5 C 0.798107 0.045564 0.394233
H1_5 H 0.831420 0.003560 0.264990
F1_5 F 0.831217 0.043644 0.499343
C13_5 C 0.756697 0.071473 0.400703
H5_5 H 0.751247 0.088353 0.480483
C7_7 C 0.648110 0.909970 0.067370
H4_7 H 0.670440 0.915420 0.147150
C12_7 C 0.580790 0.868560 0.060900
F4_7 F 0.545760 0.835450 0.166010
C11_8 C 0.65200 0.935887 0.84726
O4_8 O 0.683923 0.966067 0.751487
C16_8 C 0.551313 0.862927 0.940927
H8_8 H 0.505473 0.835247 0.931657
C11_9 C 0.064113 0.716117 0.84726
O4_9 O 0.033933 0.717857 0.751487
C16_9 C 0.137073 0.688387 0.940927
H8_9 H 0.164753 0.670227 0.931657
C1_6 C 0.950550 0.68133 0.18059
C2_6 C 0.978280 0.782020 0.274260
O1_6 O 0.948810 0.649410 0.084820
C8_6 C 0.954436 0.752543 0.394233
H1_6 H 0.996440 0.827860 0.264990
F1_6 F 0.956356 0.787573 0.499343
C13_6 C 0.928527 0.685223 0.400703
H5_6 H 0.911647 0.662893 0.480483
C7_8 C 0.595193 0.018557 0.734037
C11_10 C 0.617217 0.01466 0.51392
C12_8 C 0.621103 0.085876 0.727566
C16_10 C 0.644947 0.115353 0.607593
F4_8 F 0.623023 0.120906 0.832676
H8_10 H 0.663107 0.161193 0.598323
H4_8 H 0.578313 0.996227 0.813817
O4_10 O 0.615477 0.982743 0.418153
H4_9 H 0.003773 0.582087 0.813817
O4_11 O 0.017257 0.632733 0.418153
C7_9 C 0.981443 0.576637 0.734037
C11_11 C 0.98534 0.602553 0.51392
C12_9 C 0.914124 0.535226 0.727566
C16_11 C 0.884647 0.529593 0.607593
F4_9 F 0.879094 0.502116 0.832676
H8_11 H 0.838807 0.501913 0.598323
C7_10 C 0.423363 0.404807 0.734037
H4_10 H 0.417913 0.421687 0.813817
C11_12 C 0.397447 0.382783 0.51392
C12_10 C 0.464774 0.378897 0.727566
O4_12 O 0.367267 0.384523 0.418153
C16_12 C 0.470407 0.355053 0.607593
F4_10 F 0.497884 0.376977 0.832676
H8_12 H 0.498087 0.336893 0.598323
C7_11 C 0.261860 0.909970 0.067370
O3_9 O 0.122640 0.877360 0.102730
H4_11 H 0.244980 0.915420 0.147150
C12_11 C 0.287769 0.868560 0.060900
F4_11 F 0.289689 0.835450 0.166010
C7_12 C 0.090030 0.738140 0.067370
H4_12 H 0.084580 0.755020 0.147150
C12_12 C 0.131440 0.712231 0.060900
F4_12 F 0.164550 0.710311 0.166010
loop_
_geom_bond_atom_site_label_1
_geom_bond_atom_site_label_2
_geom_bond_site_symmetry_1
_geom_bond_site_symmetry_2
N9 Co4 1_555 1_555
N11 Co4_2 1_555 1_555
Co1 N1 1_555 1_555
N1 C1 1_555 1_555
C1 O1 1_555 1_555
C2 N1 1_555 1_555
C8 C2 1_555 1_555
H1 C2 1_555 1_555
H4 C7 1_555 1_555
F1 C8 1_555 1_555
N5 C1 1_555 1_555
C12 C7 1_555 1_555
C13 C8 1_555 1_555
Co2 N5 1_555 1_555
F4 C12 1_555 1_555
H5 C13 1_555 1_555
N5 C13 1_555 1_555
N2 Co1_2 1_555 1_555
N3 Co1_2 1_555 1_555
N4 Co1_2 1_555 1_555
C3 N2 1_555 1_555
C4 N2 1_555 1_555
C5 N3 1_555 1_555
C6 N3 1_555 1_555
O2 C3 1_555 1_555
C9 C4 1_555 1_555
H2 C4 1_555 1_555
C10 C6 1_555 1_555
H3 C6 1_555 1_555
F2 C9 1_555 1_555
F3 C10 1_555 1_555
C11 N4 1_555 1_555
N6 C3 1_555 1_555
N7 C5 1_555 1_555
O4 C11 1_555 1_555
N8 C11 1_555 1_555
C14 C9 1_555 1_555
Co3_2 N6 1_555 1_555
C15 C10 1_555 1_555
Co5 N8 1_555 1_555
H6 C14 1_555 1_555
H8 C16 1_555 1_555
N6 C14 1_555 1_555
N7 C15 1_555 1_555
N8 C16 1_555 1_555
Co1_3 N1_2 1_555 1_555
N1_2 C1_2 1_555 1_555
C1_2 O1_2 1_555 1_555
C2_2 N1_2 1_555 1_555
C8_2 C2_2 1_555 1_555
H1_2 C2_2 1_555 1_555
H4_2 C7_2 1_555 1_555
F1_2 C8_2 1_555 1_555
N5_2 C1_2 1_555 1_555
C12_2 C7_2 1_555 1_555
C13_2 C8_2 1_555 1_555
Co2_2 N5_2 1_555 1_555
F4_2 C12_2 1_555 1_555
H5_2 C13_2 1_555 1_555
N5_2 C13_2 1_555 1_555
N2_2 Co1_4 1_555 1_555
N3_2 Co1_4 1_555 1_555
N4_2 Co1_4 1_555 1_555
C3_2 N2_2 1_555 1_555
C4_2 N2_2 1_555 1_555
C5_2 N3_2 1_555 1_555
C6_2 N3_2 1_555 1_555
O2_2 C3_2 1_555 1_555
C9_2 C4_2 1_555 1_555
H2_2 C4_2 1_555 1_555
C10_2 C6_2 1_555 1_555
H3_2 C6_2 1_555 1_555
F2_2 C9_2 1_555 1_555
F3_2 C10_2 1_555 1_555
C11_2 N4_2 1_555 1_555
N6_2 C3_2 1_555 1_555
N7_2 C5_2 1_555 1_555
O4_2 C11_2 1_555 1_555
N8_2 C11_2 1_555 1_555
C14_2 C9_2 1_555 1_555
Co3_4 N6_2 1_555 1_555
C15_2 C10_2 1_555 1_555
Co5_2 N8_2 1_555 1_555
H6_2 C14_2 1_555 1_555
H8_2 C16_2 1_555 1_555
N6_2 C14_2 1_555 1_555
N7_2 C15_2 1_555 1_555
N8_2 C16_2 1_555 1_555
N9_2 Co4_3 1_555 1_555
N11_2 Co4_4 1_555 1_555
Co3_3 N1_3 1_555 1_555
N1_3 C1_3 1_555 1_555
C1_3 O1_3 1_555 1_555
C2_3 N1_3 1_555 1_555
C8_3 C2_3 1_555 1_555
H1_3 C2_3 1_555 1_555
F1_3 C8_3 1_555 1_555
N5_3 C1_3 1_555 1_555
C13_3 C8_3 1_555 1_555
Co2_3 N5_3 1_555 1_555
H5_3 C13_3 1_555 1_555
N5_3 C13_3 1_555 1_555
C5_3 N3_3 1_555 1_555
C6_3 N3_3 1_555 1_555
C10_3 C6_3 1_555 1_555
F3_3 C10_3 1_555 1_555
C11_3 N4_3 1_555 1_555
N7_3 C5_3 1_555 1_555
O4_3 C11_3 1_555 1_555
N8_3 C11_3 1_555 1_555
C15_3 C10_3 1_555 1_555
Co5_3 N8_3 1_555 1_555
H8_3 C16_3 1_555 1_555
N7_3 C15_3 1_555 1_555
N8_3 C16_3 1_555 1_555
N9_3 Co3 1_555 1_555
H4_3 C7_3 1_555 1_555
C12_3 C7_3 1_555 1_555
F4_3 C12_3 1_555 1_555
C11_4 N10_2 1_555 1_555
O4_4 C11_4 1_555 1_555
N8_4 C11_4 1_555 1_555
Co5_4 N8_4 1_555 1_555
H8_4 C16_4 1_555 1_555
N8_4 C16_4 1_555 1_555
N9_2 C1_4 1_555 1_555
C1_4 O1_4 1_555 1_555
C2_4 N9_2 1_555 1_555
C8_4 C2_4 1_555 1_555
H1_4 C2_4 1_555 1_555
F1_4 C8_4 1_555 1_555
N5_4 C1_4 1_555 1_555
C13_4 C8_4 1_555 1_555
Co2_4 N5_4 1_555 1_555
H5_4 C13_4 1_555 1_555
N5_4 C13_4 1_555 1_555
C3_3 N11_2 1_555 1_555
C4_3 N11_2 1_555 1_555
O2_3 C3_3 1_555 1_555
C9_3 C4_3 1_555 1_555
H2_3 C4_3 1_555 1_555
F2_3 C9_3 1_555 1_555
N11 C3_3 1_555 1_555
C14_3 C9_3 1_555 1_555
H6_3 C14_3 1_555 1_555
N11 C14_3 1_555 1_555
N2_3 Co5_4 1_555 1_555
N3_4 Co5_4 1_555 1_555
N4_4 Co5_4 1_555 1_555
C3_4 N2_3 1_555 1_555
C4_4 N2_3 1_555 1_555
C5_4 N3_4 1_555 1_555
C6_4 N3_4 1_555 1_555
O2_4 C3_4 1_555 1_555
C9_4 C4_4 1_555 1_555
H2_4 C4_4 1_555 1_555
O3_3 C5_4 1_555 1_555
C10_4 C6_4 1_555 1_555
H3_4 C6_4 1_555 1_555
F2_4 C9_4 1_555 1_555
F3_4 C10_4 1_555 1_555
N6_3 C3_4 1_555 1_555
N7_4 C5_4 1_555 1_555
C14_4 C9_4 1_555 1_555
Co5_2 N6_3 1_555 1_555
C15_4 C10_4 1_555 1_555
Co4_5 N7_4 1_555 1_555
H6_4 C14_4 1_555 1_555
H7_4 C15_4 1_555 1_555
N9_4 Co4_5 1_555 1_555
N10_4 Co4_5 1_555 1_555
N11_3 Co4_5 1_555 1_555
N6_3 C14_4 1_555 1_555
N7_4 C15_4 1_555 1_555
C12_4 C7_4 1_555 1_555
N8_5 C11_5 1_555 1_555
C16_5 C12_4 1_555 1_555
F4_4 C12_4 1_555 1_555
Co2_4 N8_5 1_555 1_555
H8_5 C16_5 1_555 1_555
N8_5 C16_5 1_555 1_555
N2_4 Co5 1_555 1_555
N3_5 Co5 1_555 1_555
N4_5 Co5 1_555 1_555
C3_5 N2_4 1_555 1_555
C4_5 N2_4 1_555 1_555
C5_5 N3_5 1_555 1_555
C6_5 N3_5 1_555 1_555
C7_5 N4_5 1_555 1_555
O2_5 C3_5 1_555 1_555
C9_5 C4_5 1_555 1_555
H2_5 C4_5 1_555 1_555
O3_4 C5_5 1_555 1_555
C10_5 C6_5 1_555 1_555
H3_5 C6_5 1_555 1_555
H4_5 C7_5 1_555 1_555
F2_5 C9_5 1_555 1_555
F3_5 C10_5 1_555 1_555
C11_6 N4_5 1_555 1_555
N6_4 C3_5 1_555 1_555
N7_5 C5_5 1_555 1_555
C12_5 C7_5 1_555 1_555
O4_6 C11_6 1_555 1_555
N8_6 C11_6 1_555 1_555
C14_5 C9_5 1_555 1_555
Co3_5 N6_4 1_555 1_555
C15_5 C10_5 1_555 1_555
Co5_2 N7_5 1_555 1_555
C16_6 C12_5 1_555 1_555
F4_5 C12_5 1_555 1_555
Co2 N8_6 1_555 1_555
H6_5 C14_5 1_555 1_555
H7_5 C15_5 1_555 1_555
N10_5 Co5_2 1_555 1_555
H8_6 C16_6 1_555 1_555
N6_4 C14_5 1_555 1_555
N7_5 C15_5 1_555 1_555
N8_6 C16_6 1_555 1_555
C12_6 C7_6 1_555 1_555
N8_7 C11_7 1_555 1_555
C16_7 C12_6 1_555 1_555
F4_6 C12_6 1_555 1_555
Co2_3 N8_7 1_555 1_555
H8_7 C16_7 1_555 1_555
N8_7 C16_7 1_555 1_555
N2_5 Co5_3 1_555 1_555
N3_6 Co5_3 1_555 1_555
N4_6 Co5_3 1_555 1_555
C3_6 N2_5 1_555 1_555
C4_6 N2_5 1_555 1_555
C5_6 N3_6 1_555 1_555
C6_6 N3_6 1_555 1_555
O2_6 C3_6 1_555 1_555
C9_6 C4_6 1_555 1_555
H2_6 C4_6 1_555 1_555
O3_5 C5_6 1_555 1_555
C10_6 C6_6 1_555 1_555
H3_6 C6_6 1_555 1_555
F2_6 C9_6 1_555 1_555
F3_6 C10_6 1_555 1_555
N11_3 C3_6 1_555 1_555
N7_6 C5_6 1_555 1_555
C14_6 C9_6 1_555 1_555
C15_6 C10_6 1_555 1_555
Co3_5 N7_6 1_555 1_555
H6_6 C14_6 1_555 1_555
H7_6 C15_6 1_555 1_555
N9_5 Co3_5 1_555 1_555
N10_6 Co3_5 1_555 1_555
N11_3 C14_6 1_555 1_555
N7_6 C15_6 1_555 1_555
N2_6 Co2_3 1_555 1_555
N3_7 Co2_3 1_555 1_555
C3_7 N2_6 1_555 1_555
C4_7 N2_6 1_555 1_555
C5_7 N3_7 1_555 1_555
C6_7 N3_7 1_555 1_555
O2_7 C3_7 1_555 1_555
O3_6 C5_7 1_555 1_555
C10_7 C6_7 1_555 1_555
H3_7 C6_7 1_555 1_555
N6_5 C3_7 1_555 1_555
N7_7 C5_7 1_555 1_555
Co3_6 N6_5 1_555 1_555
C15_7 C10_7 1_555 1_555
Co2_2 N7_7 1_555 1_555
H7_7 C15_7 1_555 1_555
N9_6 Co2_2 1_555 1_555
N11_4 Co2_2 1_555 1_555
N6_5 C14_7 1_555 1_555
N7_7 C15_7 1_555 1_555
F2_7 C9_7 1_555 1_555
F2_8 C9_8 1_555 1_555
N2_7 Co2_4 1_555 1_555
N3_8 Co2_4 1_555 1_555
C3_8 N2_7 1_555 1_555
C4_8 N2_7 1_555 1_555
C5_8 N3_8 1_555 1_555
C6_8 N3_8 1_555 1_555
O2_8 C3_8 1_555 1_555
O3_7 C5_8 1_555 1_555
C10_8 C6_8 1_555 1_555
H3_8 C6_8 1_555 1_555
N6_6 C3_8 1_555 1_555
N7_8 C5_8 1_555 1_555
Co3_7 N6_6 1_555 1_555
C15_8 C10_8 1_555 1_555
Co3_6 N7_8 1_555 1_555
H7_8 C15_8 1_555 1_555
N9_7 Co3_6 1_555 1_555
N10_7 Co3_6 1_555 1_555
N6_6 C14_8 1_555 1_555
N7_8 C15_8 1_555 1_555
N2_8 Co2 1_555 1_555
N3_9 Co2 1_555 1_555
C3_9 N2_8 1_555 1_555
C4_9 N2_8 1_555 1_555
C5_9 N3_9 1_555 1_555
C6_9 N3_9 1_555 1_555
O2_9 C3_9 1_555 1_555
C9_9 C4_9 1_555 1_555
H2_9 C4_9 1_555 1_555
O3_8 C5_9 1_555 1_555
C10_9 C6_9 1_555 1_555
H3_9 C6_9 1_555 1_555
F2_9 C9_9 1_555 1_555
N11_4 C3_9 1_555 1_555
N7_9 C5_9 1_555 1_555
C14_9 C9_9 1_555 1_555
C15_9 C10_9 1_555 1_555
Co3_7 N7_9 1_555 1_555
H6_9 C14_9 1_555 1_555
H7_9 C15_9 1_555 1_555
N9_8 Co3_7 1_555 1_555
N10_8 Co3_7 1_555 1_555
N11_4 C14_9 1_555 1_555
N7_9 C15_9 1_555 1_555
N9 C1_5 1_555 1_555
C1_5 O1_5 1_555 1_555
C2_5 N9 1_555 1_555
C8_5 C2_5 1_555 1_555
H1_5 C2_5 1_555 1_555
F1_5 C8_5 1_555 1_555
N10_7 C1_5 1_555 1_555
C13_5 C8_5 1_555 1_555
H5_5 C13_5 1_555 1_555
N10_7 C13_5 1_555 1_555
H4_7 C7_7 1_555 1_555
C12_7 C7_7 1_555 1_555
F4_7 C12_7 1_555 1_555
C11_8 N10 1_555 1_555
O4_8 C11_8 1_555 1_555
N9_5 C11_8 1_555 1_555
H8_8 C16_8 1_555 1_555
N9_5 C16_8 1_555 1_555
C11_9 N10_3 1_555 1_555
O4_9 C11_9 1_555 1_555
N9_4 C11_9 1_555 1_555
H8_9 C16_9 1_555 1_555
N9_4 C16_9 1_555 1_555
N9_3 C1_6 1_555 1_555
C1_6 O1_6 1_555 1_555
C2_6 N9_3 1_555 1_555
C8_6 C2_6 1_555 1_555
H1_6 C2_6 1_555 1_555
F1_6 C8_6 1_555 1_555
N10_8 C1_6 1_555 1_555
C13_6 C8_6 1_555 1_555
H5_6 C13_6 1_555 1_555
N10_8 C13_6 1_555 1_555
C12_8 C7_8 1_555 1_555
N9_7 C11_10 1_555 1_555
C16_10 C12_8 1_555 1_555
F4_8 C12_8 1_555 1_555
H8_10 C16_10 1_555 1_555
N9_7 C16_10 1_555 1_555
C12_9 C7_9 1_555 1_555
N9_8 C11_11 1_555 1_555
C16_11 C12_9 1_555 1_555
F4_9 C12_9 1_555 1_555
H8_11 C16_11 1_555 1_555
N9_8 C16_11 1_555 1_555
C7_10 N10_5 1_555 1_555
H4_10 C7_10 1_555 1_555
C11_12 N10_5 1_555 1_555
C12_10 C7_10 1_555 1_555
O4_12 C11_12 1_555 1_555
N9_6 C11_12 1_555 1_555
C16_12 C12_10 1_555 1_555
F4_10 C12_10 1_555 1_555
H8_12 C16_12 1_555 1_555
N9_6 C16_12 1_555 1_555
H4_11 C7_11 1_555 1_555
C12_11 C7_11 1_555 1_555
F4_11 C12_11 1_555 1_555
H4_12 C7_12 1_555 1_555
C12_12 C7_12 1_555 1_555
F4_12 C12_12 1_555 1_555

#END
