
###############################################################################
#
# This file contains modified crystal structure data generated from the
# MOF subset of the Cambridge Structural Database (CSD) v543 
# hosted by the Cambridge Crystallographic Data Centre (CCDC).
#
# This work is licensed under the Creative Commons
# Attribution-NonCommercial-ShareAlike 4.0 International License.
# To view a copy of this license, visit
# http://creativecommons.org/licenses/by-nc-sa/4.0/
# or send a letter to
# Creative Commons, PO Box 1866, Mountain View, CA 94042, USA.
#
# CIF created using the CSD Python API on 29 September 2022
# The structure has been converted into the P1 space group
# The structure has a 3D framework
# The original CSD entry XOJCAB is in the rhombohedral crystal system
# The framework has been calculated to contain at least 10.0% void space
# The void calculation uses a probe of radius 1.32A, grid spacing 0.4
# The framework is charged, counterions have been retained in the structure
#
###############################################################################

data_XOJCAB
_chemical_formula_moiety         '(C144 H72 Co17 F36 N72 O36 2-)n'
_symmetry_cell_setting           triclinic
_symmetry_space_group_name_H-M   'P 1'
_symmetry_Int_Tables_number      1
_space_group_name_Hall           'P 1'
loop_
_symmetry_equiv_pos_site_id
_symmetry_equiv_pos_as_xyz
1 x,y,z
_cell_length_a                   23.05947(72)
_cell_length_b                   23.05947(72)
_cell_length_c                   12.50476(47)
_cell_angle_alpha                90
_cell_angle_beta                 90
_cell_angle_gamma                120
_cell_volume                     5758.44
loop_
_atom_site_label
_atom_site_type_symbol
_atom_site_fract_x
_atom_site_fract_y
_atom_site_fract_z
Co4 Co 0.76130(31) 0.00065(45) 0.00000
N10 N 0.777490 0.013610 0.170400
Co4_2 Co 0.76130(31) 0.00065(45) 1.00000
H7 H 0.866930 0.021110 0.811200
N11 N 0.797020 0.097250 0.945760
Co1 Co 0.76130(31) 0.76065(32) 0.00000
N4 N 0.777490 0.763880 0.170400
C2 C 0.601530 0.719290 0.045850
C7 C 0.819540 0.809970 0.236590
C8 C 0.536243 0.695177 0.010197
H1 H 0.612780 0.732850 0.118200
O2 O 0.894030 0.788060 0.008980
O3 O 0.762740 0.881370 0.055660
H4 H 0.846570 0.853780 0.208520
F1 F 0.487703 0.690387 0.076207
C11 C 0.736677 0.698443 0.20935
C12 C 0.825601 0.797090 0.343530
O4 O 0.696817 0.654223 0.149213
N8 N 0.741397 0.683513 0.316993
Co3 Co 0.99935(45) 0.76065(32) 0.00000
F4 F 0.869351 0.845630 0.409540
C16 C 0.784427 0.731803 0.379183
Co5 Co 0.66602(45) 0.57203(31) 0.33333
H8 H 0.786737 0.720553 0.451533
Co1_2 Co 0.76130(31) 0.76065(32) 1.00000
N1 N 0.649820 0.724550 0.983660
N2 N 0.797020 0.699770 0.945760
N3 N 0.817180 0.855720 0.927920
C1 C 0.634890 0.704900 0.87602
C3 C 0.865930 0.731860 0.968730
C4 C 0.76847 0.639790 0.902800
C5 C 0.797390 0.898700 0.974350
C6 C 0.854170 0.875660 0.841140
O1 O 0.679110 0.709260 0.815880
C9 C 0.803240 0.606480 0.878950
H2 H 0.721910 0.619100 0.887980
C10 C 0.874710 0.937350 0.792950
H3 H 0.866930 0.845820 0.811200
F2 F 0.7724 0.5448 0.83478
F3 F 0.91275 0.95637 0.70370
N5 N 0.569453 0.680277 0.837067
N6 N 0.902750 0.699770 0.945760
N7 N 0.817180 0.961460 0.927920
C13 C 0.523363 0.676237 0.903257
Co2 Co 0.57268(32) 0.66732(45) 0.66667
C14 C 0.871320 0.639790 0.902800
Co3_2 Co 0.99935(45) 0.76065(32) 1.00000
C15 C 0.854170 0.978510 0.841140
H5 H 0.479553 0.659457 0.875187
H6 H 0.897190 0.619100 0.887980
N9 N 0.649820 0.925270 0.983660
Co1_3 Co 0.23935(32) 0.23870(31) 0.00000
N4_2 N 0.236120 0.222510 0.170400
C2_2 C 0.280710 0.398470 0.045850
C7_2 C 0.190030 0.180460 0.236590
C8_2 C 0.304823 0.463757 0.010197
H1_2 H 0.267150 0.387220 0.118200
O2_2 O 0.211940 0.105970 0.008980
O3_2 O 0.118630 0.237260 0.055660
H4_2 H 0.146220 0.153430 0.208520
F1_2 F 0.309613 0.512297 0.076207
C11_2 C 0.301557 0.263323 0.20935
C12_2 C 0.202910 0.174399 0.343530
O4_2 O 0.345777 0.303183 0.149213
N8_2 N 0.316487 0.258603 0.316993
Co3_3 Co 0.23935(32) 0.00065(45) 0.00000
F4_2 F 0.154370 0.130649 0.409540
C16_2 C 0.268197 0.215573 0.379183
Co5_2 Co 0.42797(31) 0.33398(45) 0.33333
H8_2 H 0.279447 0.213263 0.451533
Co1_4 Co 0.23935(32) 0.23870(31) 1.00000
N1_2 N 0.275450 0.350180 0.983660
N2_2 N 0.300230 0.202980 0.945760
N3_2 N 0.144280 0.182820 0.927920
C1_2 C 0.295100 0.365110 0.87602
C3_2 C 0.268140 0.134070 0.968730
C4_2 C 0.360210 0.23153 0.902800
C5_2 C 0.101300 0.202610 0.974350
C6_2 C 0.124340 0.145830 0.841140
O1_2 O 0.290740 0.320890 0.815880
C9_2 C 0.393520 0.196760 0.878950
H2_2 H 0.380900 0.278090 0.887980
C10_2 C 0.062650 0.125290 0.792950
H3_2 H 0.154180 0.133070 0.811200
F2_2 F 0.4552 0.2276 0.83478
F3_2 F 0.04363 0.08725 0.70370
N5_2 N 0.319723 0.430547 0.837067
N6_2 N 0.300230 0.097250 0.945760
N7_2 N 0.038540 0.182820 0.927920
C13_2 C 0.323763 0.476637 0.903257
Co2_2 Co 0.33268(45) 0.42732(32) 0.66667
C14_2 C 0.360210 0.128680 0.902800
Co3_4 Co 0.23935(32) 0.00065(45) 1.00000
C15_2 C 0.021490 0.145830 0.841140
H5_2 H 0.340543 0.520447 0.875187
H6_2 H 0.380900 0.102810 0.887980
N9_2 N 0.074730 0.350180 0.983660
Co4_3 Co 0.99935(45) 0.23870(31) 0.00000
N10_2 N 0.986390 0.222510 0.170400
Co4_4 Co 0.99935(45) 0.23870(31) 1.00000
H7_2 H 0.978890 0.133070 0.811200
N11_2 N 0.902750 0.202980 0.945760
N4_3 N 0.236120 0.013610 0.170400
C7_3 C 0.190030 0.009570 0.236590
C11_3 C 0.301557 0.038233 0.20935
C12_3 C 0.202910 0.028510 0.343530
O4_3 O 0.345777 0.042593 0.149213
N8_3 N 0.316487 0.057883 0.316993
F4_3 F 0.154370 0.023720 0.409540
C16_3 C 0.268197 0.052623 0.379183
Co5_3 Co 0.42797(31) 0.09398(55) 0.33333
H8_3 H 0.279447 0.066183 0.451533
H3_3 H 0.154180 0.021110 0.811200
C2_3 C 0.280710 0.882240 0.045850
C8_3 C 0.304823 0.841066 0.010197
H1_3 H 0.267150 0.879930 0.118200
O3_3 O 0.118630 0.881370 0.055660
H4_3 H 0.146220 0.992790 0.208520
F1_3 F 0.309613 0.797316 0.076207
N1_3 N 0.275450 0.925270 0.983660
N3_3 N 0.144280 0.961460 0.927920
C1_3 C 0.295100 0.929990 0.87602
C5_3 C 0.101300 0.898690 0.974350
C6_3 C 0.124340 0.978510 0.841140
O1_3 O 0.290740 0.969850 0.815880
C10_3 C 0.062650 0.937360 0.792950
F3_3 F 0.04363 0.95638 0.70370
N5_3 N 0.319723 0.889177 0.837067
N7_3 N 0.038540 0.855720 0.927920
C13_3 C 0.323763 0.847127 0.903257
Co2_3 Co 0.33268(45) 0.90537(55) 0.66667
C15_3 C 0.021490 0.875660 0.841140
H5_3 H 0.340543 0.820097 0.875187
N9_3 N 0.074730 0.724550 0.983660
N10_3 N 0.986390 0.763880 0.170400
H7_3 H 0.978890 0.845820 0.811200
C2_4 C 0.117760 0.398470 0.045850
C8_4 C 0.158934 0.463757 0.010197
H1_4 H 0.120070 0.387220 0.118200
H4_4 H 0.007210 0.153430 0.208520
F1_4 F 0.202684 0.512297 0.076207
C1_4 C 0.070010 0.365110 0.87602
O1_4 O 0.030150 0.320890 0.815880
N5_4 N 0.110823 0.430547 0.837067
C13_4 C 0.152873 0.476637 0.903257
Co2_4 Co 0.09463(55) 0.42732(32) 0.66667
H5_4 H 0.179903 0.520447 0.875187
C7_4 C 0.990430 0.180460 0.236590
O2_3 O 0.894030 0.105970 0.008980
C11_4 C 0.961767 0.263323 0.20935
C12_4 C 0.971490 0.174399 0.343530
O4_4 O 0.957407 0.303183 0.149213
N8_4 N 0.942117 0.258603 0.316993
F4_4 F 0.976280 0.130649 0.409540
C16_4 C 0.947377 0.215573 0.379183
Co5_4 Co 0.90602(55) 0.33398(45) 0.33333
H8_4 H 0.933817 0.213263 0.451533
C3_3 C 0.865930 0.134070 0.968730
C4_3 C 0.871320 0.23153 0.902800
C9_3 C 0.803240 0.196760 0.878950
H2_3 H 0.897190 0.278090 0.887980
F2_3 F 0.7724 0.2276 0.83478
C14_3 C 0.768470 0.128680 0.902800
H6_3 H 0.721910 0.102810 0.887980
N2_3 N 0.130353 0.366437 0.612427
N3_4 N 0.150513 0.522387 0.594587
C3_4 C 0.199263 0.398527 0.635397
C4_4 C 0.10180 0.306457 0.569467
C5_4 C 0.130723 0.565367 0.641017
C6_4 C 0.187503 0.542327 0.507807
O1_5 O 0.012443 0.375927 0.482547
O2_4 O 0.227363 0.454727 0.675647
C9_4 C 0.136573 0.273147 0.545617
H2_4 H 0.055243 0.285767 0.554647
O3_4 O 0.096073 0.548037 0.722327
C10_4 C 0.208043 0.604017 0.459617
H3_4 H 0.200263 0.512487 0.477867
F2_4 F 0.1057 0.2115 0.50145
F3_4 F 0.24608 0.62304 0.37037
N6_3 N 0.236083 0.366437 0.612427
N7_4 N 0.150513 0.628127 0.594587
C14_4 C 0.204653 0.306457 0.569467
C15_4 C 0.187503 0.645177 0.507807
Co4_5 Co 0.09463(31) 0.66732(45) 0.66667
H6_4 H 0.230523 0.285767 0.554647
H7_4 H 0.200263 0.687777 0.477867
N10_4 N 0.110823 0.680277 0.837067
N11_3 N 0.130353 0.763917 0.612427
N1_4 N 0.983153 0.391217 0.650327
C1_5 C 0.968223 0.371567 0.54269
C2_5 C 0.934863 0.385957 0.712517
C8_5 C 0.869576 0.361844 0.676864
H1_5 H 0.946113 0.399517 0.784867
F1_5 F 0.821036 0.357054 0.742874
N5_5 N 0.902787 0.346943 0.503733
C13_5 C 0.856697 0.342903 0.569923
H5_5 H 0.812887 0.326123 0.541853
N9_4 N 0.983153 0.591937 0.650327
N1_5 N 0.608783 0.591937 0.650327
N2_4 N 0.633563 0.763917 0.612427
N3_5 N 0.477613 0.628127 0.594587
C1_6 C 0.628433 0.596657 0.54269
C2_6 C 0.614043 0.548907 0.712517
C3_5 C 0.601473 0.800737 0.635397
C4_5 C 0.693543 0.795347 0.569467
C5_5 C 0.434633 0.565357 0.641017
C6_5 C 0.457673 0.645177 0.507807
O1_6 O 0.624073 0.636517 0.482547
C8_6 C 0.638156 0.507733 0.676864
H1_6 H 0.600483 0.546597 0.784867
O2_5 O 0.545273 0.772637 0.675647
C9_5 C 0.726853 0.863427 0.545617
H2_5 H 0.714233 0.769477 0.554647
O3_5 O 0.451963 0.548037 0.722327
C10_5 C 0.395983 0.604027 0.459617
H3_5 H 0.487513 0.687777 0.477867
F1_6 F 0.642946 0.463983 0.742874
F2_5 F 0.7885 0.8943 0.50145
F3_5 F 0.37696 0.62305 0.37037
N5_6 N 0.653057 0.555843 0.503733
N6_4 N 0.633563 0.869647 0.612427
N7_5 N 0.371873 0.522387 0.594587
C13_6 C 0.657097 0.513793 0.569923
C14_5 C 0.693543 0.898197 0.569467
Co3_5 Co 0.57268(32) 0.90537(55) 0.66667
C15_5 C 0.354823 0.542327 0.507807
H5_6 H 0.673877 0.486763 0.541853
H6_5 H 0.714233 0.944757 0.554647
H7_5 H 0.312223 0.512487 0.477867
N9_5 N 0.408063 0.391217 0.650327
N1_6 N 0.408063 0.016847 0.650327
C1_7 C 0.403343 0.031777 0.54269
C2_7 C 0.451093 0.065137 0.712517
C8_7 C 0.492267 0.130424 0.676864
H1_7 H 0.453403 0.053887 0.784867
F1_7 F 0.536017 0.178964 0.742874
N5_7 N 0.444157 0.097213 0.503733
C13_7 C 0.486207 0.143303 0.569923
H5_7 H 0.513237 0.187113 0.541853
N9_6 N 0.608783 0.016847 0.650327
N2_5 N 0.236083 0.869647 0.612427
N3_6 N 0.371873 0.849487 0.594587
C3_6 C 0.199263 0.800737 0.635397
C4_6 C 0.204653 0.89820 0.569467
C5_6 C 0.434643 0.869277 0.641017
C6_6 C 0.354823 0.812497 0.507807
O1_7 O 0.363483 0.987557 0.482547
O2_6 O 0.227363 0.772637 0.675647
C9_6 C 0.136573 0.863427 0.545617
H2_6 H 0.230523 0.944757 0.554647
O3_6 O 0.451963 0.903927 0.722327
C10_6 C 0.395973 0.791957 0.459617
H3_6 H 0.312223 0.799737 0.477867
F2_6 F 0.1057 0.8943 0.50145
F3_6 F 0.37695 0.75392 0.37037
N7_6 N 0.477613 0.849487 0.594587
C14_6 C 0.101803 0.795347 0.569467
C15_6 C 0.457673 0.812497 0.507807
H6_6 H 0.055243 0.769477 0.554647
H7_6 H 0.487513 0.799737 0.477867
N10_5 N 0.569453 0.889177 0.837067
N2_6 N 0.463687 0.033103 0.279093
N3_7 N 0.483847 0.189053 0.261253
C3_7 C 0.532597 0.065193 0.302063
C5_7 C 0.464057 0.232033 0.307683
C6_7 C 0.520837 0.208993 0.174473
O2_7 O 0.560697 0.121393 0.342313
O3_7 O 0.429407 0.214703 0.388993
C10_7 C 0.541377 0.270683 0.126283
H3_7 H 0.533597 0.179153 0.144533
F3_7 F 0.57942 0.28970 0.03703
N6_5 N 0.569417 0.033103 0.279093
N7_7 N 0.483847 0.294793 0.261253
Co3_6 Co 0.66602(45) 0.09398(32) 0.33333
C15_7 C 0.520837 0.311843 0.174473
H7_7 H 0.533597 0.354443 0.144533
N10_6 N 0.444157 0.346943 0.503733
N11_4 N 0.463687 0.430583 0.279093
C4_7 C 0.43514 0.973123 0.236133
C9_7 C 0.469907 0.939813 0.212283
H2_7 H 0.388577 0.952433 0.221313
F2_7 F 0.4391 0.8781 0.16811
C14_7 C 0.537987 0.973123 0.236133
H6_7 H 0.563857 0.952433 0.221313
C4_8 C 0.026877 0.462013 0.236133
C9_8 C 0.060187 0.530093 0.212283
H2_8 H 0.047567 0.436143 0.221313
F2_8 F 0.1219 0.5609 0.16811
C14_8 C 0.026877 0.564863 0.236133
H6_8 H 0.047567 0.611423 0.221313
N2_7 N 0.966897 0.430583 0.279093
N3_8 N 0.810947 0.294793 0.261253
C3_8 C 0.934807 0.467403 0.302063
C5_8 C 0.767967 0.232023 0.307683
C6_8 C 0.791007 0.311843 0.174473
O2_8 O 0.878607 0.439303 0.342313
O3_8 O 0.785297 0.214703 0.388993
C10_8 C 0.729317 0.270693 0.126283
H3_8 H 0.820847 0.354443 0.144533
F3_8 F 0.71030 0.28971 0.03703
N6_6 N 0.966897 0.536313 0.279093
N7_8 N 0.705207 0.189053 0.261253
Co3_7 Co 0.90602(32) 0.57203(55) 0.33333
C15_8 C 0.688157 0.208993 0.174473
H7_8 H 0.645557 0.179153 0.144533
N9_7 N 0.741397 0.057883 0.316993
N10_7 N 0.653057 0.097213 0.503733
N2_8 N 0.569417 0.536313 0.279093
N3_9 N 0.705207 0.516153 0.261253
C3_9 C 0.532597 0.467403 0.302063
C4_9 C 0.537987 0.56486 0.236133
C5_9 C 0.767977 0.535943 0.307683
C6_9 C 0.688157 0.479163 0.174473
O2_9 O 0.560697 0.439303 0.342313
C9_9 C 0.469907 0.530093 0.212283
H2_9 H 0.563857 0.611423 0.221313
O3_9 O 0.785297 0.570593 0.388993
C10_9 C 0.729307 0.458623 0.126283
H3_9 H 0.645557 0.466403 0.144533
F2_9 F 0.4391 0.5609 0.16811
F3_9 F 0.71029 0.42058 0.03703
N7_9 N 0.810947 0.516153 0.261253
C14_9 C 0.435137 0.462013 0.236133
C15_9 C 0.791007 0.479163 0.174473
H6_9 H 0.388577 0.436143 0.221313
H7_9 H 0.820847 0.466403 0.144533
N9_8 N 0.942117 0.683513 0.316993
N10_8 N 0.902787 0.555843 0.503733
C7_5 C 0.819540 0.009570 0.236590
C11_5 C 0.736677 0.038233 0.20935
C12_5 C 0.825601 0.028510 0.343530
O4_5 O 0.696817 0.042593 0.149213
F4_5 F 0.869351 0.023720 0.409540
C16_5 C 0.784427 0.052623 0.379183
H8_5 H 0.786737 0.066183 0.451533
C2_8 C 0.601530 0.882240 0.045850
C8_8 C 0.536243 0.841066 0.010197
H1_8 H 0.612780 0.879930 0.118200
H4_5 H 0.846570 0.992790 0.208520
F1_8 F 0.487703 0.797316 0.076207
C1_8 C 0.634890 0.929990 0.87602
O1_8 O 0.679110 0.969850 0.815880
C13_8 C 0.523363 0.847127 0.903257
H5_8 H 0.479553 0.820097 0.875187
C2_9 C 0.117760 0.719290 0.045850
C8_9 C 0.158934 0.695177 0.010197
H1_9 H 0.120070 0.732850 0.118200
H4_6 H 0.007210 0.853780 0.208520
F1_9 F 0.202684 0.690387 0.076207
C1_9 C 0.070010 0.704900 0.87602
O1_9 O 0.030150 0.709260 0.815880
C13_9 C 0.152873 0.676237 0.903257
H5_9 H 0.179903 0.659457 0.875187
C7_6 C 0.990430 0.809970 0.236590
C11_6 C 0.961767 0.698443 0.20935
C12_6 C 0.971490 0.797090 0.343530
O4_6 O 0.957407 0.654223 0.149213
F4_6 F 0.976280 0.845630 0.409540
C16_6 C 0.947377 0.731803 0.379183
H8_6 H 0.933817 0.720553 0.451533
C1_10 C 0.628433 0.031777 0.54269
C2_10 C 0.614043 0.065137 0.712517
C8_10 C 0.638156 0.130424 0.676864
H1_10 H 0.600483 0.053887 0.784867
F1_10 F 0.642946 0.178964 0.742874
C13_10 C 0.657097 0.143303 0.569923
H5_10 H 0.673877 0.187113 0.541853
O1_10 O 0.624073 0.987557 0.482547
O1_11 O 0.012443 0.636517 0.482547
C1_11 C 0.968223 0.596657 0.54269
C2_11 C 0.934863 0.548907 0.712517
C8_11 C 0.869576 0.507733 0.676864
H1_11 H 0.946113 0.546597 0.784867
F1_11 F 0.821036 0.463983 0.742874
C13_11 C 0.856697 0.513793 0.569923
H5_11 H 0.812887 0.486763 0.541853
C1_12 C 0.403343 0.371567 0.54269
C2_12 C 0.451093 0.385957 0.712517
O1_12 O 0.363483 0.375927 0.482547
C8_12 C 0.492267 0.361844 0.676864
H1_12 H 0.453403 0.399517 0.784867
F1_12 F 0.536017 0.357054 0.742874
C13_12 C 0.486207 0.342903 0.569923
H5_12 H 0.513237 0.326123 0.541853
loop_
_geom_bond_atom_site_label_1
_geom_bond_atom_site_label_2
_geom_bond_site_symmetry_1
_geom_bond_site_symmetry_2
N10 Co4 1_555 1_555
N11 Co4_2 1_555 1_555
N4 Co1 1_555 1_555
C7 N4 1_555 1_555
C8 C2 1_555 1_555
H1 C2 1_555 1_555
H4 C7 1_555 1_555
F1 C8 1_555 1_555
C11 N4 1_555 1_555
C12 C7 1_555 1_555
O4 C11 1_555 1_555
N8 C11 1_555 1_555
F4 C12 1_555 1_555
C16 C12 1_555 1_555
Co5 N8 1_555 1_555
H8 C16 1_555 1_555
N8 C16 1_555 1_555
Co1_2 N1 1_555 1_555
N1 C1 1_555 1_555
N2 Co1_2 1_555 1_555
N3 Co1_2 1_555 1_555
C1 O1 1_555 1_555
C3 N2 1_555 1_555
C4 N2 1_555 1_555
C5 N3 1_555 1_555
C6 N3 1_555 1_555
C9 C4 1_555 1_555
H2 C4 1_555 1_555
C10 C6 1_555 1_555
H3 C6 1_555 1_555
F2 C9 1_555 1_555
F3 C10 1_555 1_555
N5 C1 1_555 1_555
N6 C3 1_555 1_555
N7 C5 1_555 1_555
Co2 N5 1_555 1_555
C14 C9 1_555 1_555
Co3_2 N6 1_555 1_555
C15 C10 1_555 1_555
H5 C13 1_555 1_555
H6 C14 1_555 1_555
N5 C13 1_555 1_555
N6 C14 1_555 1_555
N7 C15 1_555 1_555
N4_2 Co1_3 1_555 1_555
C7_2 N4_2 1_555 1_555
C8_2 C2_2 1_555 1_555
H1_2 C2_2 1_555 1_555
H4_2 C7_2 1_555 1_555
F1_2 C8_2 1_555 1_555
C11_2 N4_2 1_555 1_555
C12_2 C7_2 1_555 1_555
O4_2 C11_2 1_555 1_555
N8_2 C11_2 1_555 1_555
F4_2 C12_2 1_555 1_555
C16_2 C12_2 1_555 1_555
Co5_2 N8_2 1_555 1_555
H8_2 C16_2 1_555 1_555
N8_2 C16_2 1_555 1_555
Co1_4 N1_2 1_555 1_555
N1_2 C1_2 1_555 1_555
N2_2 Co1_4 1_555 1_555
N3_2 Co1_4 1_555 1_555
C1_2 O1_2 1_555 1_555
C3_2 N2_2 1_555 1_555
C4_2 N2_2 1_555 1_555
C5_2 N3_2 1_555 1_555
C6_2 N3_2 1_555 1_555
C9_2 C4_2 1_555 1_555
H2_2 C4_2 1_555 1_555
C10_2 C6_2 1_555 1_555
H3_2 C6_2 1_555 1_555
F2_2 C9_2 1_555 1_555
F3_2 C10_2 1_555 1_555
N5_2 C1_2 1_555 1_555
N6_2 C3_2 1_555 1_555
N7_2 C5_2 1_555 1_555
Co2_2 N5_2 1_555 1_555
C14_2 C9_2 1_555 1_555
Co3_4 N6_2 1_555 1_555
C15_2 C10_2 1_555 1_555
H5_2 C13_2 1_555 1_555
H6_2 C14_2 1_555 1_555
N5_2 C13_2 1_555 1_555
N6_2 C14_2 1_555 1_555
N7_2 C15_2 1_555 1_555
N10_2 Co4_3 1_555 1_555
N11_2 Co4_4 1_555 1_555
N4_3 Co3_3 1_555 1_555
C7_3 N4_3 1_555 1_555
C11_3 N4_3 1_555 1_555
C12_3 C7_3 1_555 1_555
O4_3 C11_3 1_555 1_555
N8_3 C11_3 1_555 1_555
F4_3 C12_3 1_555 1_555
C16_3 C12_3 1_555 1_555
Co5_3 N8_3 1_555 1_555
H8_3 C16_3 1_555 1_555
N8_3 C16_3 1_555 1_555
C8_3 C2_3 1_555 1_555
H1_3 C2_3 1_555 1_555
F1_3 C8_3 1_555 1_555
N1_3 C1_3 1_555 1_555
C1_3 O1_3 1_555 1_555
C5_3 N3_3 1_555 1_555
C6_3 N3_3 1_555 1_555
C10_3 C6_3 1_555 1_555
F3_3 C10_3 1_555 1_555
N5_3 C1_3 1_555 1_555
N7_3 C5_3 1_555 1_555
Co2_3 N5_3 1_555 1_555
C15_3 C10_3 1_555 1_555
H5_3 C13_3 1_555 1_555
N5_3 C13_3 1_555 1_555
N7_3 C15_3 1_555 1_555
N10_3 Co3 1_555 1_555
C8_4 C2_4 1_555 1_555
H1_4 C2_4 1_555 1_555
F1_4 C8_4 1_555 1_555
N9_2 C1_4 1_555 1_555
C1_4 O1_4 1_555 1_555
N5_4 C1_4 1_555 1_555
Co2_4 N5_4 1_555 1_555
H5_4 C13_4 1_555 1_555
N5_4 C13_4 1_555 1_555
C7_4 N10_2 1_555 1_555
C11_4 N10_2 1_555 1_555
C12_4 C7_4 1_555 1_555
O4_4 C11_4 1_555 1_555
N8_4 C11_4 1_555 1_555
F4_4 C12_4 1_555 1_555
C16_4 C12_4 1_555 1_555
Co5_4 N8_4 1_555 1_555
H8_4 C16_4 1_555 1_555
N8_4 C16_4 1_555 1_555
C3_3 N11_2 1_555 1_555
C4_3 N11_2 1_555 1_555
C9_3 C4_3 1_555 1_555
H2_3 C4_3 1_555 1_555
F2_3 C9_3 1_555 1_555
N11 C3_3 1_555 1_555
C14_3 C9_3 1_555 1_555
H6_3 C14_3 1_555 1_555
N11 C14_3 1_555 1_555
N2_3 Co2_4 1_555 1_555
N3_4 Co2_4 1_555 1_555
C3_4 N2_3 1_555 1_555
C4_4 N2_3 1_555 1_555
C5_4 N3_4 1_555 1_555
C6_4 N3_4 1_555 1_555
O2_4 C3_4 1_555 1_555
C9_4 C4_4 1_555 1_555
H2_4 C4_4 1_555 1_555
O3_4 C5_4 1_555 1_555
C10_4 C6_4 1_555 1_555
H3_4 C6_4 1_555 1_555
F2_4 C9_4 1_555 1_555
F3_4 C10_4 1_555 1_555
N6_3 C3_4 1_555 1_555
N7_4 C5_4 1_555 1_555
C14_4 C9_4 1_555 1_555
Co2_2 N6_3 1_555 1_555
C15_4 C10_4 1_555 1_555
Co4_5 N7_4 1_555 1_555
H6_4 C14_4 1_555 1_555
H7_4 C15_4 1_555 1_555
N10_4 Co4_5 1_555 1_555
N11_3 Co4_5 1_555 1_555
N6_3 C14_4 1_555 1_555
N7_4 C15_4 1_555 1_555
N1_4 C1_5 1_555 1_555
C2_5 N1_4 1_555 1_555
C8_5 C2_5 1_555 1_555
H1_5 C2_5 1_555 1_555
F1_5 C8_5 1_555 1_555
N5_5 C1_5 1_555 1_555
C13_5 C8_5 1_555 1_555
Co5_4 N5_5 1_555 1_555
H5_5 C13_5 1_555 1_555
N5_5 C13_5 1_555 1_555
Co2 N1_5 1_555 1_555
N1_5 C1_6 1_555 1_555
N2_4 Co2 1_555 1_555
N3_5 Co2 1_555 1_555
C1_6 O1_6 1_555 1_555
C2_6 N1_5 1_555 1_555
C3_5 N2_4 1_555 1_555
C4_5 N2_4 1_555 1_555
C5_5 N3_5 1_555 1_555
C6_5 N3_5 1_555 1_555
C8_6 C2_6 1_555 1_555
H1_6 C2_6 1_555 1_555
O2_5 C3_5 1_555 1_555
C9_5 C4_5 1_555 1_555
H2_5 C4_5 1_555 1_555
O3_5 C5_5 1_555 1_555
C10_5 C6_5 1_555 1_555
H3_5 C6_5 1_555 1_555
F1_6 C8_6 1_555 1_555
F2_5 C9_5 1_555 1_555
F3_5 C10_5 1_555 1_555
N5_6 C1_6 1_555 1_555
N6_4 C3_5 1_555 1_555
N7_5 C5_5 1_555 1_555
C13_6 C8_6 1_555 1_555
Co5 N5_6 1_555 1_555
C14_5 C9_5 1_555 1_555
Co3_5 N6_4 1_555 1_555
C15_5 C10_5 1_555 1_555
Co2_2 N7_5 1_555 1_555
H5_6 C13_6 1_555 1_555
H6_5 C14_5 1_555 1_555
H7_5 C15_5 1_555 1_555
N9_5 Co2_2 1_555 1_555
N5_6 C13_6 1_555 1_555
N6_4 C14_5 1_555 1_555
N7_5 C15_5 1_555 1_555
N1_6 C1_7 1_555 1_555
C2_7 N1_6 1_555 1_555
C8_7 C2_7 1_555 1_555
H1_7 C2_7 1_555 1_555
F1_7 C8_7 1_555 1_555
N5_7 C1_7 1_555 1_555
C13_7 C8_7 1_555 1_555
Co5_3 N5_7 1_555 1_555
H5_7 C13_7 1_555 1_555
N5_7 C13_7 1_555 1_555
N2_5 Co2_3 1_555 1_555
N3_6 Co2_3 1_555 1_555
C3_6 N2_5 1_555 1_555
C4_6 N2_5 1_555 1_555
C5_6 N3_6 1_555 1_555
C6_6 N3_6 1_555 1_555
O2_6 C3_6 1_555 1_555
C9_6 C4_6 1_555 1_555
H2_6 C4_6 1_555 1_555
O3_6 C5_6 1_555 1_555
C10_6 C6_6 1_555 1_555
H3_6 C6_6 1_555 1_555
F2_6 C9_6 1_555 1_555
F3_6 C10_6 1_555 1_555
N11_3 C3_6 1_555 1_555
N7_6 C5_6 1_555 1_555
C14_6 C9_6 1_555 1_555
C15_6 C10_6 1_555 1_555
Co3_5 N7_6 1_555 1_555
H6_6 C14_6 1_555 1_555
H7_6 C15_6 1_555 1_555
N10_5 Co3_5 1_555 1_555
N11_3 C14_6 1_555 1_555
N7_6 C15_6 1_555 1_555
N2_6 Co5_3 1_555 1_555
N3_7 Co5_3 1_555 1_555
C3_7 N2_6 1_555 1_555
C5_7 N3_7 1_555 1_555
C6_7 N3_7 1_555 1_555
O2_7 C3_7 1_555 1_555
O3_7 C5_7 1_555 1_555
C10_7 C6_7 1_555 1_555
H3_7 C6_7 1_555 1_555
F3_7 C10_7 1_555 1_555
N6_5 C3_7 1_555 1_555
N7_7 C5_7 1_555 1_555
Co3_6 N6_5 1_555 1_555
C15_7 C10_7 1_555 1_555
Co5_2 N7_7 1_555 1_555
H7_7 C15_7 1_555 1_555
N10_6 Co5_2 1_555 1_555
N11_4 Co5_2 1_555 1_555
N7_7 C15_7 1_555 1_555
C9_7 C4_7 1_555 1_555
H2_7 C4_7 1_555 1_555
F2_7 C9_7 1_555 1_555
C14_7 C9_7 1_555 1_555
H6_7 C14_7 1_555 1_555
C9_8 C4_8 1_555 1_555
H2_8 C4_8 1_555 1_555
F2_8 C9_8 1_555 1_555
C14_8 C9_8 1_555 1_555
H6_8 C14_8 1_555 1_555
N2_7 Co5_4 1_555 1_555
N3_8 Co5_4 1_555 1_555
C3_8 N2_7 1_555 1_555
C5_8 N3_8 1_555 1_555
C6_8 N3_8 1_555 1_555
O2_8 C3_8 1_555 1_555
O3_8 C5_8 1_555 1_555
C10_8 C6_8 1_555 1_555
H3_8 C6_8 1_555 1_555
F3_8 C10_8 1_555 1_555
N6_6 C3_8 1_555 1_555
N7_8 C5_8 1_555 1_555
Co3_7 N6_6 1_555 1_555
C15_8 C10_8 1_555 1_555
Co3_6 N7_8 1_555 1_555
H7_8 C15_8 1_555 1_555
N9_7 Co3_6 1_555 1_555
N10_7 Co3_6 1_555 1_555
N7_8 C15_8 1_555 1_555
N2_8 Co5 1_555 1_555
N3_9 Co5 1_555 1_555
C3_9 N2_8 1_555 1_555
C4_9 N2_8 1_555 1_555
C5_9 N3_9 1_555 1_555
C6_9 N3_9 1_555 1_555
O2_9 C3_9 1_555 1_555
C9_9 C4_9 1_555 1_555
H2_9 C4_9 1_555 1_555
O3_9 C5_9 1_555 1_555
C10_9 C6_9 1_555 1_555
H3_9 C6_9 1_555 1_555
F2_9 C9_9 1_555 1_555
F3_9 C10_9 1_555 1_555
N11_4 C3_9 1_555 1_555
N7_9 C5_9 1_555 1_555
C14_9 C9_9 1_555 1_555
C15_9 C10_9 1_555 1_555
Co3_7 N7_9 1_555 1_555
H6_9 C14_9 1_555 1_555
H7_9 C15_9 1_555 1_555
N9_8 Co3_7 1_555 1_555
N10_8 Co3_7 1_555 1_555
N11_4 C14_9 1_555 1_555
N7_9 C15_9 1_555 1_555
C7_5 N10 1_555 1_555
C11_5 N10 1_555 1_555
C12_5 C7_5 1_555 1_555
O4_5 C11_5 1_555 1_555
N9_7 C11_5 1_555 1_555
F4_5 C12_5 1_555 1_555
C16_5 C12_5 1_555 1_555
H8_5 C16_5 1_555 1_555
N9_7 C16_5 1_555 1_555
C8_8 C2_8 1_555 1_555
H1_8 C2_8 1_555 1_555
F1_8 C8_8 1_555 1_555
N9 C1_8 1_555 1_555
C1_8 O1_8 1_555 1_555
N10_5 C1_8 1_555 1_555
H5_8 C13_8 1_555 1_555
N10_5 C13_8 1_555 1_555
C8_9 C2_9 1_555 1_555
H1_9 C2_9 1_555 1_555
F1_9 C8_9 1_555 1_555
N9_3 C1_9 1_555 1_555
C1_9 O1_9 1_555 1_555
N10_4 C1_9 1_555 1_555
H5_9 C13_9 1_555 1_555
N10_4 C13_9 1_555 1_555
C7_6 N10_3 1_555 1_555
C11_6 N10_3 1_555 1_555
C12_6 C7_6 1_555 1_555
O4_6 C11_6 1_555 1_555
N9_8 C11_6 1_555 1_555
F4_6 C12_6 1_555 1_555
C16_6 C12_6 1_555 1_555
H8_6 C16_6 1_555 1_555
N9_8 C16_6 1_555 1_555
N9_6 C1_10 1_555 1_555
C2_10 N9_6 1_555 1_555
C8_10 C2_10 1_555 1_555
H1_10 C2_10 1_555 1_555
F1_10 C8_10 1_555 1_555
N10_7 C1_10 1_555 1_555
C13_10 C8_10 1_555 1_555
H5_10 C13_10 1_555 1_555
N10_7 C13_10 1_555 1_555
N9_4 C1_11 1_555 1_555
C2_11 N9_4 1_555 1_555
C8_11 C2_11 1_555 1_555
H1_11 C2_11 1_555 1_555
F1_11 C8_11 1_555 1_555
N10_8 C1_11 1_555 1_555
C13_11 C8_11 1_555 1_555
H5_11 C13_11 1_555 1_555
N10_8 C13_11 1_555 1_555
N9_5 C1_12 1_555 1_555
C1_12 O1_12 1_555 1_555
C2_12 N9_5 1_555 1_555
C8_12 C2_12 1_555 1_555
H1_12 C2_12 1_555 1_555
F1_12 C8_12 1_555 1_555
N10_6 C1_12 1_555 1_555
C13_12 C8_12 1_555 1_555
H5_12 C13_12 1_555 1_555
N10_6 C13_12 1_555 1_555

#END
