
###############################################################################
#
# This file contains modified crystal structure data generated from the
# MOF subset of the Cambridge Structural Database (CSD) v543 
# hosted by the Cambridge Crystallographic Data Centre (CCDC).
#
# This work is licensed under the Creative Commons
# Attribution-NonCommercial-ShareAlike 4.0 International License.
# To view a copy of this license, visit
# http://creativecommons.org/licenses/by-nc-sa/4.0/
# or send a letter to
# Creative Commons, PO Box 1866, Mountain View, CA 94042, USA.
#
# CIF created using the CSD Python API on 29 September 2022
# The structure has been converted into the P1 space group
# The structure has a 3D framework
# The original CSD entry XOJVIC is in the monoclinic crystal system
# The framework has been calculated to contain at least 10.0% void space
# The void calculation uses a probe of radius 1.32A, grid spacing 0.4
#
###############################################################################

data_XOJVIC
_chemical_formula_moiety         '(C68 H76 Cd4 N36 O16)n'
_symmetry_cell_setting           triclinic
_symmetry_space_group_name_H-M   'P 1'
_symmetry_Int_Tables_number      1
_space_group_name_Hall           'P 1'
loop_
_symmetry_equiv_pos_site_id
_symmetry_equiv_pos_as_xyz
1 x,y,z
_cell_length_a                   12.6665(16)
_cell_length_b                   18.196(2)
_cell_length_c                   10.9031(14)
_cell_angle_alpha                90
_cell_angle_beta                 103.115(3)
_cell_angle_gamma                90
_cell_volume                     2447.4
loop_
_atom_site_label
_atom_site_type_symbol
_atom_site_fract_x
_atom_site_fract_y
_atom_site_fract_z
H11 H 0.4112 0.0820 0.0175
Cd3 Cd 0.61927(2) 0.208240(13) 0.15273(2)
C27 C 0.1320(3) 0.0378(2) 0.9623(4)
H34 H 0.1733 0.0828 0.9938
H35 H 0.0991 0.0450 0.8717
Cd6 Cd 0.38073(2) 0.791760(13) 0.84727(2)
N18 N 0.2069(2) 0.97498(17) 0.9771(3)
N20 N 0.2930(2) 0.87482(17) 0.9525(3)
C29 C 0.2137(3) 0.9206(2) 0.8991(4)
H37 H 0.1689 0.9149 0.8171
O1 O 0.5314(2) 0.13833(14) 0.2720(2)
O2 O 0.6926(2) 0.08388(15) 0.3299(3)
O3 O 0.6287(2) 0.18237(14) 0.5363(2)
O4 O 0.5254(2) 0.17455(14) 0.6743(2)
N1 N 0.8991(2) 0.26756(18) 0.4591(3)
N2 N 0.9060(3) 0.32614(19) 0.3839(3)
N3 N 0.7665(2) 0.25306(17) 0.2949(3)
N7 N 0.7931(2) 0.02502(17) 0.0229(3)
N9 N 0.7070(2) 0.12518(17) 0.0475(3)
C1 C 0.9750(3) 0.2586(2) 0.5812(4)
H1 H 0.9538 0.2148 0.6239
H2 H 0.9699 0.3020 0.6343
C5 C 0.8240(3) 0.3152(2) 0.2865(4)
H9 H 0.8067 0.3479 0.2169
C6 C 0.8168(3) 0.2253(2) 0.4057(4)
H10 H 0.7964 0.1813 0.4413
C12 C 0.7863(3) 0.0794(2) 0.1009(4)
H18 H 0.8311 0.0851 0.1829
C13 C 0.5298(3) 0.07204(19) 0.5400(3)
C14 C 0.5503(3) 0.04556(19) 0.4270(3)
C16 C 0.5632(3) 0.14840(19) 0.5871(3)
C17 C 0.5976(3) 0.0930(2) 0.3391(3)
Cd7 Cd 0.61927(2) 0.291760(13) 0.65273(2)
O9 O 0.6287(2) 0.31763(14) 0.0363(2)
O12 O 0.5254(2) 0.32545(14) 0.1743(2)
C32 C 0.4789(3) 0.0259(2) 0.6110(3)
H38 H 0.4640 0.0438 0.6872
C10 C 0.8680(3) 0.9622(2) 0.0377(4)
H15 H 0.8267 0.9172 0.0062
H16 H 0.9009 0.9550 0.1283
C15 C 0.5211(3) 0.9741(2) 0.3890(3)
H19 H 0.5360 0.9562 0.3128
Cd4 Cd 0.38073(2) 0.708240(13) 0.34727(2)
O5 O 0.4686(2) 0.86167(14) 0.7280(2)
O6 O 0.3074(2) 0.91612(15) 0.6701(3)
O7 O 0.3713(2) 0.81763(14) 0.4637(2)
O8 O 0.3713(2) 0.68237(14) 0.9637(2)
O10 O 0.4746(2) 0.82545(14) 0.3257(2)
O11 O 0.4746(2) 0.67455(14) 0.8257(2)
N10 N 0.1009(2) 0.73244(18) 0.5409(3)
N11 N 0.0940(3) 0.67386(19) 0.6161(3)
N12 N 0.2335(2) 0.74694(17) 0.7051(3)
C18 C 0.0250(3) 0.7414(2) 0.4188(4)
H20 H 0.0462 0.7852 0.3761
H21 H 0.0301 0.6980 0.3657
C22 C 0.1760(3) 0.6848(2) 0.7135(4)
H28 H 0.1933 0.6521 0.7831
C23 C 0.1832(3) 0.7747(2) 0.5943(4)
H29 H 0.2036 0.8187 0.5587
C30 C 0.4702(3) 0.92796(19) 0.4600(3)
C31 C 0.4497(3) 0.95444(19) 0.5730(3)
C33 C 0.4368(3) 0.85160(19) 0.4129(3)
C34 C 0.4024(3) 0.9070(2) 0.6609(3)
H30 H 0.5888 0.9180 0.9825
N13 N 0.3452(3) 0.30589(19) 0.3114(3)
N14 N 0.3284(3) 0.37305(19) 0.3571(3)
N15 N 0.4649(2) 0.31539(18) 0.4886(3)
C19 C 0.0915(3) 0.2502(2) 0.0697(4)
H22 H 0.1163 0.2044 0.0362
H23 H 0.0962 0.2906 0.0103
C20 C 0.1638(3) 0.2674(3) 0.1984(4)
H24 H 0.1613 0.2259 0.2563
H25 H 0.1359 0.3116 0.2336
C21 C 0.2802(3) 0.2807(3) 0.1906(4)
H26 H 0.2822 0.3180 0.1252
H27 H 0.3114 0.2346 0.1660
C24 C 0.4024(3) 0.3764(2) 0.4633(4)
H30_2 H 0.4112 0.4180 0.5175
C25 C 0.4263(3) 0.2731(2) 0.3896(3)
H31 H 0.4534 0.2257 0.3767
O1_2 O 0.4686(2) 0.63833(14) 0.2280(2)
O2_2 O 0.3074(2) 0.58388(15) 0.1701(3)
N1_2 N 0.1009(2) 0.76756(18) 0.0409(3)
N2_2 N 0.0940(3) 0.82614(19) 0.1161(3)
N3_2 N 0.2335(2) 0.75306(17) 0.2051(3)
N7_2 N 0.2069(2) 0.52502(17) 0.4771(3)
N8 N 0.2825(3) 0.53345(18) 0.5872(3)
N9_2 N 0.2930(2) 0.62518(17) 0.4525(3)
C5_2 C 0.1760(3) 0.8152(2) 0.2135(4)
H9_2 H 0.1933 0.8479 0.2831
C6_2 C 0.1832(3) 0.7253(2) 0.0943(4)
H10_2 H 0.2036 0.6813 0.0587
C9 C 0.0427(3) 0.4731(2) 0.5328(4)
H13 H 0.0079 0.4252 0.5409
H14 H 0.0749 0.4913 0.6187
C10_2 C 0.1320(3) 0.4622(2) 0.4623(4)
H15_2 H 0.1733 0.4172 0.4938
H16_2 H 0.0991 0.4550 0.3717
C11 C 0.3313(3) 0.5947(2) 0.5664(4)
H17 H 0.3891 0.6157 0.6273
C12_2 C 0.2137(3) 0.5794(2) 0.3991(4)
H18_2 H 0.1689 0.5851 0.3171
C14_2 C 0.4497(3) 0.54556(19) 0.0730(3)
C15_2 C 0.4789(3) 0.4741(2) 0.1110(3)
H19_2 H 0.4640 0.4562 0.1872
C17_2 C 0.4024(3) 0.5930(2) 0.1609(3)
N16 N 0.5351(2) 0.68461(18) 0.5114(3)
C18_2 C 0.9750(3) 0.2414(2) 0.0812(4)
H20_2 H 0.9538 0.2852 0.1239
H21_2 H 0.9699 0.1980 0.1343
C30_2 C 0.5298(3) 0.42796(19) 0.0400(3)
C33_2 C 0.5632(3) 0.35160(19) 0.0871(3)
C1_2 C 0.0250(3) 0.7586(2) 0.9188(4)
H1_2 H 0.0462 0.7148 0.8761
H2_2 H 0.0301 0.8020 0.8657
C13_2 C 0.4702(3) 0.57204(19) 0.9600(3)
C16_2 C 0.4368(3) 0.64840(19) 0.9129(3)
O5_2 O 0.5314(2) 0.36167(14) 0.7720(2)
O6_2 O 0.6926(2) 0.41612(15) 0.8299(3)
N10_2 N 0.8991(2) 0.23244(18) 0.9591(3)
N11_2 N 0.9060(3) 0.17386(19) 0.8839(3)
N12_2 N 0.7665(2) 0.24694(17) 0.7949(3)
N21 N 0.7070(2) 0.37482(17) 0.5475(3)
C22_2 C 0.8240(3) 0.1848(2) 0.7865(4)
H28_2 H 0.8067 0.1521 0.7169
C23_2 C 0.8168(3) 0.2747(2) 0.9057(4)
H29_2 H 0.7964 0.3187 0.9413
C31_2 C 0.5503(3) 0.45444(19) 0.9270(3)
C32_2 C 0.5211(3) 0.5259(2) 0.8890(3)
H38_2 H 0.5360 0.5438 0.8128
C34_2 C 0.5976(3) 0.4070(2) 0.8391(3)
N18_2 N 0.7931(2) 0.47498(17) 0.5229(3)
N19 N 0.7175(3) 0.46655(18) 0.4128(3)
C26 C 0.9573(3) 0.5269(2) 0.4672(4)
H32 H 0.9921 0.5748 0.4591
H33 H 0.9251 0.5087 0.3813
C27_2 C 0.8680(3) 0.5378(2) 0.5377(4)
H34_2 H 0.8267 0.5828 0.5062
H35_2 H 0.9009 0.5450 0.6283
C28 C 0.6687(3) 0.4053(2) 0.4336(4)
H36 H 0.6109 0.3843 0.3727
C29_2 C 0.7863(3) 0.4206(2) 0.6009(4)
H37_2 H 0.8311 0.4149 0.6829
N4 N 0.6548(3) 0.69411(19) 0.6886(3)
N5 N 0.6716(3) 0.62695(19) 0.6429(3)
C2 C 0.9085(3) 0.7498(2) 0.9303(4)
H3 H 0.8837 0.7956 0.9638
H4 H 0.9038 0.7094 0.9897
C3 C 0.8362(3) 0.7326(3) 0.8016(4)
H5 H 0.8387 0.7741 0.7437
H6 H 0.8641 0.6884 0.7664
C4 C 0.7198(3) 0.7193(3) 0.8094(4)
H7 H 0.7178 0.6820 0.8748
H8 H 0.6886 0.7654 0.8340
C7 C 0.5976(3) 0.6236(2) 0.5367(4)
H11_2 H 0.5888 0.5820 0.4825
C8 C 0.5737(3) 0.7269(2) 0.6104(3)
H12 H 0.5466 0.7743 0.6233
N4_2 N 0.3452(3) 0.19411(19) 0.8114(3)
N5_2 N 0.3284(3) 0.12695(19) 0.8571(3)
N6 N 0.4649(2) 0.18461(18) 0.9886(3)
C2_2 C 0.0915(3) 0.2498(2) 0.5697(4)
H3_2 H 0.1163 0.2956 0.5362
H4_2 H 0.0962 0.2094 0.5103
C3_2 C 0.1638(3) 0.2326(3) 0.6984(4)
H5_2 H 0.1613 0.2741 0.7563
H6_2 H 0.1359 0.1884 0.7336
C4_2 C 0.2802(3) 0.2193(3) 0.6906(4)
H7_2 H 0.2822 0.1820 0.6252
H8_2 H 0.3114 0.2654 0.6660
C7_2 C 0.4024(3) 0.1236(2) 0.9633(4)
C8_2 C 0.4263(3) 0.2269(2) 0.8896(3)
H12_2 H 0.4534 0.2743 0.8767
C26_2 C 0.0427(3) 0.0269(2) 0.0328(4)
H32_2 H 0.0079 0.0748 0.0409
H33_2 H 0.0749 0.0087 0.1187
N8_2 N 0.7175(3) 0.03345(18) 0.9128(3)
C11_2 C 0.6687(3) 0.0947(2) 0.9336(4)
H17_2 H 0.6109 0.1157 0.8727
N19_2 N 0.2825(3) 0.96655(18) 0.0872(3)
C28_2 C 0.3313(3) 0.9053(2) 0.0664(4)
H36_2 H 0.3891 0.8843 0.1273
N17 N 0.5351(2) 0.81539(18) 0.0114(3)
C9_2 C 0.9573(3) 0.9731(2) 0.9672(4)
H13_2 H 0.9921 0.9252 0.9591
H14_2 H 0.9251 0.9913 0.8813
N13_2 N 0.6548(3) 0.80589(19) 0.1886(3)
N14_2 N 0.6716(3) 0.87305(19) 0.1429(3)
C19_2 C 0.9085(3) 0.7502(2) 0.4303(4)
H22_2 H 0.8837 0.7044 0.4638
H23_2 H 0.9038 0.7906 0.4897
C20_2 C 0.8362(3) 0.7674(3) 0.3016(4)
H24_2 H 0.8387 0.7259 0.2437
H25_2 H 0.8641 0.8116 0.2664
C21_2 C 0.7198(3) 0.7807(3) 0.3094(4)
H26_2 H 0.7178 0.8180 0.3748
H27_2 H 0.6886 0.7346 0.3340
C24_2 C 0.5976(3) 0.8764(2) 0.0367(4)
C25_2 C 0.5737(3) 0.7731(2) 0.1104(3)
H31_2 H 0.5466 0.7257 0.1233
loop_
_geom_bond_atom_site_label_1
_geom_bond_atom_site_label_2
_geom_bond_site_symmetry_1
_geom_bond_site_symmetry_2
H34 C27 1_555 1_555
H35 C27 1_555 1_555
Cd6 N20 1_555 1_555
C29 N18 1_555 1_555
H37 C29 1_555 1_555
N20 C29 1_555 1_555
Cd3 O1 1_555 1_555
O1 C17 1_555 1_555
O2 C17 1_555 1_555
O3 C16 1_555 1_555
O4 C16 1_555 1_555
N1 N2 1_555 1_555
N2 C5 1_555 1_555
N3 Cd3 1_555 1_555
N9 Cd3 1_555 1_555
C1 N1 1_555 1_555
H1 C1 1_555 1_555
H2 C1 1_555 1_555
C5 N3 1_555 1_555
H9 C5 1_555 1_555
C6 N1 1_555 1_555
H10 C6 1_555 1_555
C12 N7 1_555 1_555
H18 C12 1_555 1_555
C13 C14 1_555 1_555
C16 C13 1_555 1_555
C17 C14 1_555 1_555
Cd7 O3 1_555 1_555
O9 Cd3 1_555 1_555
O12 Cd3 1_555 1_555
C32 C13 1_555 1_555
H38 C32 1_555 1_555
O4 Cd7 1_555 1_555
N3 C6 1_555 1_555
N9 C12 1_555 1_555
H15 C10 1_555 1_555
H16 C10 1_555 1_555
C15 H19 1_555 1_555
Cd6 O5 1_555 1_555
Cd4 O7 1_555 1_555
O5 C34 1_555 1_555
O6 C34 1_555 1_555
O7 C33 1_555 1_555
O8 Cd6 1_555 1_555
O10 Cd4 1_555 1_555
O11 Cd6 1_555 1_555
N10 N11 1_555 1_555
N11 C22 1_555 1_555
N12 Cd6 1_555 1_555
C18 N10 1_555 1_555
H20 C18 1_555 1_555
H21 C18 1_555 1_555
C22 N12 1_555 1_555
H28 C22 1_555 1_555
C23 N10 1_555 1_555
H29 C23 1_555 1_555
C30 C15 1_555 1_555
C31 C30 1_555 1_555
C33 O10 1_555 1_555
C34 C31 1_555 1_555
N12 C23 1_555 1_555
C30 C33 1_555 1_555
Cd7 N15 1_555 1_555
N13 N14 1_555 1_555
N14 C24 1_555 1_555
N15 C24 1_555 1_555
H22 C19 1_555 1_555
H23 C19 1_555 1_555
C20 C19 1_555 1_555
H24 C20 1_555 1_555
H25 C20 1_555 1_555
C21 N13 1_555 1_555
H26 C21 1_555 1_555
H27 C21 1_555 1_555
C24 H30_2 1_555 1_555
C25 N13 1_555 1_555
H31 C25 1_555 1_555
N15 C25 1_555 1_555
C20 C21 1_555 1_555
Cd4 O1_2 1_555 1_555
O1_2 C17_2 1_555 1_555
O2_2 C17_2 1_555 1_555
N1_2 N2_2 1_555 1_555
N2_2 C5_2 1_555 1_555
N3_2 Cd4 1_555 1_555
N7_2 N8 1_555 1_555
N8 C11 1_555 1_555
N9_2 Cd4 1_555 1_555
C5_2 N3_2 1_555 1_555
H9_2 C5_2 1_555 1_555
C6_2 N1_2 1_555 1_555
H10_2 C6_2 1_555 1_555
C9 H13 1_555 1_555
H14 C9 1_555 1_555
C10_2 N7_2 1_555 1_555
H15_2 C10_2 1_555 1_555
H16_2 C10_2 1_555 1_555
C11 N9_2 1_555 1_555
H17 C11 1_555 1_555
C12_2 N7_2 1_555 1_555
H18_2 C12_2 1_555 1_555
C14_2 C15_2 1_555 1_555
C15_2 H19_2 1_555 1_555
C17_2 C14_2 1_555 1_555
O9 C33_2 1_555 1_555
N16 Cd4 1_555 1_555
H20_2 C18_2 1_555 1_555
H21_2 C18_2 1_555 1_555
C30_2 C15_2 1_555 1_555
C33_2 O12 1_555 1_555
N3_2 C6_2 1_555 1_555
N9_2 C12_2 1_555 1_555
C9 C10_2 1_555 1_555
C30_2 C33_2 1_555 1_555
O8 C16_2 1_555 1_555
O11 C16_2 1_555 1_555
H1_2 C1_2 1_555 1_555
H2_2 C1_2 1_555 1_555
C16_2 C13_2 1_555 1_555
Cd7 O5_2 1_555 1_555
O5_2 C34_2 1_555 1_555
O6_2 C34_2 1_555 1_555
N10_2 N11_2 1_555 1_555
N11_2 C22_2 1_555 1_555
N12_2 Cd7 1_555 1_555
N21 Cd7 1_555 1_555
C22_2 N12_2 1_555 1_555
H28_2 C22_2 1_555 1_555
C23_2 N10_2 1_555 1_555
H29_2 C23_2 1_555 1_555
C32_2 C13_2 1_555 1_555
H38_2 C32_2 1_555 1_555
C34_2 C31_2 1_555 1_555
N12_2 C23_2 1_555 1_555
C31_2 C32_2 1_555 1_555
N18_2 N19 1_555 1_555
N19 C28 1_555 1_555
N21 C28 1_555 1_555
H32 C26 1_555 1_555
H33 C26 1_555 1_555
C27_2 N18_2 1_555 1_555
H34_2 C27_2 1_555 1_555
H35_2 C27_2 1_555 1_555
C28 H36 1_555 1_555
C29_2 N18_2 1_555 1_555
H37_2 C29_2 1_555 1_555
N21 C29_2 1_555 1_555
C26 C27_2 1_555 1_555
N4 N5 1_555 1_555
N5 C7 1_555 1_555
N16 C7 1_555 1_555
H3 C2 1_555 1_555
H4 C2 1_555 1_555
C3 C2 1_555 1_555
H5 C3 1_555 1_555
H6 C3 1_555 1_555
C4 N4 1_555 1_555
H7 C4 1_555 1_555
H8 C4 1_555 1_555
C7 H11_2 1_555 1_555
C8 N4 1_555 1_555
H12 C8 1_555 1_555
N16 C8 1_555 1_555
C3 C4 1_555 1_555
N4_2 N5_2 1_555 1_555
N5_2 C7_2 1_555 1_555
N6 C7_2 1_555 1_555
H3_2 C2_2 1_555 1_555
H4_2 C2_2 1_555 1_555
C3_2 C2_2 1_555 1_555
H5_2 C3_2 1_555 1_555
H6_2 C3_2 1_555 1_555
C4_2 N4_2 1_555 1_555
H7_2 C4_2 1_555 1_555
H8_2 C4_2 1_555 1_555
C8_2 N4_2 1_555 1_555
H12_2 C8_2 1_555 1_555
H32_2 C26_2 1_555 1_555
H33_2 C26_2 1_555 1_555
N6 C8_2 1_555 1_555
C3_2 C4_2 1_555 1_555
N8_2 C11_2 1_555 1_555
H17_2 C11_2 1_555 1_555
N19_2 C28_2 1_555 1_555
C28_2 H36_2 1_555 1_555
C9_2 H13_2 1_555 1_555
H14_2 C9_2 1_555 1_555
N13_2 N14_2 1_555 1_555
N14_2 C24_2 1_555 1_555
N17 C24_2 1_555 1_555
H22_2 C19_2 1_555 1_555
H23_2 C19_2 1_555 1_555
C20_2 C19_2 1_555 1_555
H24_2 C20_2 1_555 1_555
H25_2 C20_2 1_555 1_555
C21_2 N13_2 1_555 1_555
H26_2 C21_2 1_555 1_555
H27_2 C21_2 1_555 1_555
C25_2 N13_2 1_555 1_555
H31_2 C25_2 1_555 1_555
N17 C25_2 1_555 1_555
C20_2 C21_2 1_555 1_555

#END
