
###############################################################################
#
# This file contains modified crystal structure data generated from the
# MOF subset of the Cambridge Structural Database (CSD) v543 
# hosted by the Cambridge Crystallographic Data Centre (CCDC).
#
# This work is licensed under the Creative Commons
# Attribution-NonCommercial-ShareAlike 4.0 International License.
# To view a copy of this license, visit
# http://creativecommons.org/licenses/by-nc-sa/4.0/
# or send a letter to
# Creative Commons, PO Box 1866, Mountain View, CA 94042, USA.
#
# CIF created using the CSD Python API on 29 September 2022
# The structure has been converted into the P1 space group
# The structure has a 3D framework
# The original CSD entry XOJWOJ is in the monoclinic crystal system
# The framework has been calculated to contain at least 10.0% void space
# The void calculation uses a probe of radius 1.32A, grid spacing 0.4
# The framework is charged, counterions have been retained in the structure
# H atom positions have been added when not included in the experimental data
#
###############################################################################

data_XOJWOJ
_chemical_formula_moiety         '(C80 H112 N16 O40 P8 Zn8)n'
_symmetry_cell_setting           triclinic
_symmetry_space_group_name_H-M   'P 1'
_symmetry_Int_Tables_number      1
_space_group_name_Hall           'P 1'
loop_
_symmetry_equiv_pos_site_id
_symmetry_equiv_pos_as_xyz
1 x,y,z
_cell_length_a                   9.869(3)
_cell_length_b                   17.101(5)
_cell_length_c                   17.320(5)
_cell_angle_alpha                90
_cell_angle_beta                 94.896(4)
_cell_angle_gamma                90
_cell_volume                     2912.43
loop_
_atom_site_label
_atom_site_type_symbol
_atom_site_fract_x
_atom_site_fract_y
_atom_site_fract_z
P1 P 0.35393(15) 0.06128(9) 0.08767(9)
O1 O 0.2049(4) 0.0418(2) 0.0858(2)
O2 O 0.3837(4) 0.1111(2) 0.0175(2)
O4 O 0.5142(5) 0.3265(3) 0.3727(3)
O5 O 0.4822(8) 0.2242(3) 0.4453(3)
O10 O 0.1027(5) 0.3571(3) 0.3301(3)
C1 C 0.3917(6) 0.1201(4) 0.1735(3)
C2 C 0.3569(7) 0.0928(4) 0.2445(4)
H1 H 0.3131 0.0449 0.2477
C3 C 0.3880(7) 0.1375(4) 0.3110(4)
H2 H 0.3658 0.1183 0.3586
C4 C 0.4499(7) 0.2085(4) 0.3082(4)
C5 C 0.4825(8) 0.2372(4) 0.2379(4)
H3 H 0.5238 0.2859 0.2351
C6 C 0.4534(7) 0.1928(4) 0.1706(4)
H4 H 0.4759 0.2123 0.1233
C7 C 0.4844(7) 0.2546(4) 0.3816(4)
C9 C 0.0242(6) 0.1862(4) 0.1609(4)
H5 H 0.0881 0.1475 0.1537
C10 C 0.0562(6) 0.2453(4) 0.2140(4)
H6 H 0.1414 0.2461 0.2415
Zn10 Zn 0.55016(7) 0.39267(4) 0.46320(4)
Zn7 Zn 0.55016(7) 0.10733(4) 0.96320(4)
Zn1 Zn 0.06281(7) 0.96598(4) 0.09974(4)
O3 O 0.4477(4) 0.9907(3) 0.0968(2)
Zn6 Zn 0.44984(7) 0.89267(4) 0.03680(4)
O17 O 0.4858(5) 0.8265(3) 0.1273(3)
O21 O 0.0700(4) 0.8863(2) 0.0183(2)
O24 O 0.0994(5) 0.9112(3) 0.1993(3)
Zn5 Zn 0.06281(7) 0.53402(4) 0.59974(4)
P4 P 0.14646(15) 0.89728(9) 0.94580(9)
O14 O 0.6163(4) 0.8889(2) 0.9825(2)
O20 O 0.1022(4) 0.9714(3) 0.9022(2)
O22 O 0.2986(4) 0.8931(3) 0.9605(2)
O23 O 0.0994(5) 0.5888(3) 0.6993(3)
C22 C 0.1012(6) 0.8166(4) 0.8819(3)
C25 C 0.0370(7) 0.6975(4) 0.7737(4)
C26 C 0.1621(7) 0.6976(4) 0.8173(4)
H15 H 0.2247 0.6581 0.8105
C27 C 0.1936(7) 0.7565(4) 0.8708(4)
H16 H 0.2775 0.7560 0.8997
C28 C 0.0072(7) 0.6394(4) 0.7103(4)
P2 P 0.85354(15) 0.10272(9) 0.05420(9)
O6 O 0.8978(4) 0.0286(3) 0.0978(2)
O8 O 0.7014(4) 0.1069(3) 0.0395(2)
O9 O 0.9006(5) 0.4112(3) 0.3007(3)
C8 C 0.8988(6) 0.1834(4) 0.1181(3)
C11 C 0.9630(7) 0.3025(4) 0.2263(4)
C12 C 0.8379(7) 0.3024(4) 0.1827(4)
H7 H 0.7753 0.3419 0.1895
C13 C 0.8064(7) 0.2435(4) 0.1292(4)
H8 H 0.7225 0.2440 0.1003
C14 C 0.9928(7) 0.3606(4) 0.2897(4)
Zn4 Zn 0.93719(7) 0.46598(4) 0.40026(4)
O7 O 0.9300(4) 0.1137(2) 0.9817(2)
Zn3 Zn 0.93719(7) 0.03402(4) 0.90026(4)
O15 O 0.5523(4) 0.0093(3) 0.9032(2)
O18 O 0.5142(5) 0.1735(3) 0.8727(3)
O25 O 0.9006(5) 0.0888(3) 0.8007(3)
Zn8 Zn 0.44984(7) 0.60733(4) 0.53680(4)
P3 P 0.64607(15) 0.93872(9) 0.91233(9)
O11 O 0.7951(4) 0.9582(2) 0.9142(2)
O16 O 0.4858(5) 0.6735(3) 0.6273(3)
O19 O 0.5178(8) 0.7758(3) 0.5547(3)
O26 O 0.8973(5) 0.6429(3) 0.6699(3)
C15 C 0.6083(6) 0.8799(4) 0.8265(3)
C16 C 0.6431(7) 0.9072(4) 0.7555(4)
H9 H 0.6869 0.9551 0.7523
C17 C 0.6120(7) 0.8625(4) 0.6890(4)
H10 H 0.6342 0.8817 0.6414
C18 C 0.5501(7) 0.7915(4) 0.6918(4)
C19 C 0.5175(8) 0.7628(4) 0.7621(4)
H11 H 0.4762 0.7141 0.7649
C20 C 0.5466(7) 0.8072(4) 0.8294(4)
H12 H 0.5241 0.7877 0.8767
C21 C 0.5156(7) 0.7454(4) 0.6184(4)
C23 C 0.9758(6) 0.8138(4) 0.8391(4)
H13 H 0.9119 0.8525 0.8463
C24 C 0.9438(6) 0.7547(4) 0.7860(4)
H14 H 0.8586 0.7539 0.7585
P2_2 P 0.14646(15) 0.60272(9) 0.44580(9)
O6_2 O 0.1022(4) 0.5286(3) 0.4022(2)
O7_2 O 0.0700(4) 0.6137(2) 0.5183(2)
O8_2 O 0.2986(4) 0.6069(3) 0.4605(2)
C8_2 C 0.1012(6) 0.6834(4) 0.3819(3)
C11_2 C 0.0370(7) 0.8025(4) 0.2737(4)
C12_2 C 0.1621(7) 0.8024(4) 0.3173(4)
H7_2 H 0.2247 0.8419 0.3105
C13_2 C 0.1936(7) 0.7435(4) 0.3708(4)
H8_2 H 0.2775 0.7440 0.3997
C14_2 C 0.0072(7) 0.8606(4) 0.2103(4)
P3_2 P 0.35393(15) 0.43872(9) 0.58767(9)
O11_2 O 0.2049(4) 0.4582(2) 0.5858(2)
O12 O 0.3837(4) 0.3889(2) 0.5175(2)
O13 O 0.6163(4) 0.6111(2) 0.4825(2)
O15_2 O 0.4477(4) 0.5093(3) 0.5968(2)
O19_2 O 0.4822(8) 0.2758(3) 0.9453(3)
O26_2 O 0.1027(5) 0.1429(3) 0.8301(3)
C15_2 C 0.3917(6) 0.3799(4) 0.6735(3)
C16_2 C 0.3569(7) 0.4072(4) 0.7445(4)
H9_2 H 0.3131 0.4551 0.7477
C17_2 C 0.3880(7) 0.3625(4) 0.8110(4)
H10_2 H 0.3658 0.3817 0.8586
C18_2 C 0.4499(7) 0.2915(4) 0.8082(4)
C19_2 C 0.4825(8) 0.2628(4) 0.7379(4)
H11_2 H 0.5238 0.2141 0.7351
C20_2 C 0.4534(7) 0.3072(4) 0.6706(4)
H12_2 H 0.4759 0.2877 0.6233
C21_2 C 0.4844(7) 0.2454(4) 0.8816(4)
C23_2 C 0.0242(6) 0.3138(4) 0.6609(4)
H13_2 H 0.0881 0.3525 0.6537
C24_2 C 0.0562(6) 0.2547(4) 0.7140(4)
H14_2 H 0.1414 0.2539 0.7415
P1_2 P 0.64607(15) 0.56128(9) 0.41233(9)
O1_2 O 0.7951(4) 0.5418(2) 0.4142(2)
O3_2 O 0.5523(4) 0.4907(3) 0.4032(2)
O5_2 O 0.5178(8) 0.7242(3) 0.0547(3)
O10_2 O 0.8973(5) 0.8571(3) 0.1699(3)
C1_2 C 0.6083(6) 0.6201(4) 0.3265(3)
C2_2 C 0.6431(7) 0.5928(4) 0.2555(4)
H1_2 H 0.6869 0.5449 0.2523
C3_2 C 0.6120(7) 0.6375(4) 0.1890(4)
H2_2 H 0.6342 0.6183 0.1414
C4_2 C 0.5501(7) 0.7085(4) 0.1918(4)
C5_2 C 0.5175(8) 0.7372(4) 0.2621(4)
H3_2 H 0.4762 0.7859 0.2649
C6_2 C 0.5466(7) 0.6928(4) 0.3294(4)
H4_2 H 0.5241 0.7123 0.3767
C7_2 C 0.5156(7) 0.7546(4) 0.1184(4)
C9_2 C 0.9758(6) 0.6862(4) 0.3391(4)
H5_2 H 0.9119 0.6475 0.3463
C10_2 C 0.9438(6) 0.7453(4) 0.2860(4)
H6_2 H 0.8586 0.7461 0.2585
P4_2 P 0.85354(15) 0.39728(9) 0.55420(9)
O20_2 O 0.8978(4) 0.4714(3) 0.5978(2)
O21_2 O 0.9300(4) 0.3863(2) 0.4817(2)
O22_2 O 0.7014(4) 0.3931(3) 0.5395(2)
C22_2 C 0.8988(6) 0.3166(4) 0.6181(3)
C25_2 C 0.9630(7) 0.1975(4) 0.7263(4)
C26_2 C 0.8379(7) 0.1976(4) 0.6827(4)
H15_2 H 0.7753 0.1581 0.6895
C27_2 C 0.8064(7) 0.2565(4) 0.6292(4)
H16_2 H 0.7225 0.2560 0.6003
C28_2 C 0.9928(7) 0.1394(4) 0.7897(4)
N3 N 0.0014(11) 0.1616(7) 0.4070(11)
N4 N 0.1649(6) 0.2891(3) 0.4738(3)
H20 H 0.2432 0.3139 0.4857
H21 H 0.0970 0.3168 0.4908
H22 H 0.1514 0.2837 0.4226
C33 C 0.0247(15) 0.1669(7) 0.4832(10)
H31 H 0.0270 0.1147 0.5053
C34 C 0.1697(13) 0.2121(6) 0.5103(6)
H33 H 0.1805 0.2174 0.5663
H34 H 0.2460 0.1823 0.4941
H35 H 0.0467336 0.206578 0.380925
H19 H 0.7352 0.0117 0.1758
N2 N 0.8405(14) 0.0483(10) 0.3291(13)
C31 C 0.7780(19) 0.1017(12) 0.3677(13)
H27 H 0.7458 0.0776 0.4134
H28 H 0.6991 0.1200 0.3355
C32 C 0.8575(15) 0.1654(12) 0.3906(16)
H29 H 0.8213 0.1860 0.4368
H30 H 0.8405 0.2048 0.3506
H32 H 0.9503 0.1950 0.5037
H36 H 0.842796 0.0667011 0.273512
N1 N 0.6905(7) 0.9680(5) 0.1854(4)
H17 H 0.6095 0.9684 0.1585
H18 H 0.7379 0.9269 0.1714
C29 C 0.6729(15) 0.9634(7) 0.2659(6)
H23 H 0.6422 0.9106 0.2753
H24 H 0.5977 0.9978 0.2749
C30 C 0.7828(15) 0.9808(12) 0.3285(8)
H25 H 0.7447 0.9741 0.3779
H26 H 0.8531 0.9415 0.3258
N1_2 N 0.3095(7) 0.4680(5) 0.3146(4)
H17_2 H 0.3905 0.4684 0.3415
H18_2 H 0.2621 0.4269 0.3286
H19_2 H 0.2648 0.5117 0.3242
N2_2 N 0.1595(14) 0.5483(10) 0.1709(13)
C29_2 C 0.3271(15) 0.4634(7) 0.2341(6)
H23_2 H 0.3578 0.4106 0.2247
H24_2 H 0.4023 0.4978 0.2251
C30_2 C 0.2172(15) 0.4808(12) 0.1715(8)
H25_2 H 0.2553 0.4741 0.1221
H26_2 H 0.1469 0.4415 0.1742
C31_2 C 0.2220(19) 0.6017(12) 0.1323(13)
H27_2 H 0.2542 0.5776 0.0866
H28_2 H 0.3009 0.6200 0.1645
C32_2 C 0.1425(15) 0.6654(12) 0.1094(16)
H29_2 H 0.1787 0.6860 0.0632
H30_2 H 0.1595 0.7048 0.1494
H36_2 H 0.157204 0.566701 0.226488
H32_2 H 0.0497 0.6950 0.9963
N3_2 N 0.9986(11) 0.6616(7) 0.0930(11)
N4_2 N 0.8351(6) 0.7891(3) 0.0262(3)
H20_2 H 0.7568 0.8139 0.0143
H21_2 H 0.9030 0.8168 0.0092
H22_2 H 0.8486 0.7837 0.0774
C33_2 C 0.9753(15) 0.6669(7) 0.0168(10)
H34_2 H 0.7540 0.6823 0.0059
H35_2 H 0.953266 0.706578 0.119075
H31_2 H 0.9730 0.6147 0.9947
C34_2 C 0.8303(13) 0.7121(6) 0.9897(6)
H33_2 H 0.8195 0.7174 0.9337
N1_3 N 0.3095(7) 0.0320(5) 0.8146(4)
H17_3 H 0.3905 0.0316 0.8415
H18_3 H 0.2621 0.0731 0.8286
C29_3 C 0.3271(15) 0.0366(7) 0.7341(6)
H23_3 H 0.3578 0.0894 0.7247
H24_3 H 0.4023 0.0022 0.7251
C30_3 C 0.2172(15) 0.0192(12) 0.6715(8)
H25_3 H 0.2553 0.0259 0.6221
H26_3 H 0.1469 0.0585 0.6742
H19_3 H 0.2648 0.9883 0.8242
N2_3 N 0.1595(14) 0.9517(10) 0.6709(13)
C31_3 C 0.2220(19) 0.8983(12) 0.6323(13)
H27_3 H 0.2542 0.9224 0.5866
H28_3 H 0.3009 0.8800 0.6645
C32_3 C 0.1425(15) 0.8346(12) 0.6094(16)
H29_3 H 0.1787 0.8140 0.5632
H30_3 H 0.1595 0.7952 0.6494
H32_3 H 0.0497 0.8050 0.4963
H36_3 H 0.157204 0.933299 0.726488
N3_3 N 0.9986(11) 0.8384(7) 0.5930(11)
N4_3 N 0.8351(6) 0.7109(3) 0.5262(3)
H20_3 H 0.7568 0.6861 0.5143
H21_3 H 0.9030 0.6832 0.5092
H22_3 H 0.8486 0.7163 0.5774
C33_3 C 0.9753(15) 0.8331(7) 0.5168(10)
H31_3 H 0.9730 0.8853 0.4947
C34_3 C 0.8303(13) 0.7879(6) 0.4897(6)
H33_3 H 0.8195 0.7826 0.4337
H34_3 H 0.7540 0.8177 0.5059
H35_3 H 0.953266 0.793422 0.619075
H31_4 H 0.0270 0.3853 0.0053
C34_4 C 0.1697(13) 0.2879(6) 0.0103(6)
H33_4 H 0.1805 0.2826 0.0663
N3_4 N 0.0014(11) 0.3384(7) 0.9070(11)
N4_4 N 0.1649(6) 0.2109(3) 0.9738(3)
H20_4 H 0.2432 0.1861 0.9857
H21_4 H 0.0970 0.1832 0.9908
H22_4 H 0.1514 0.2163 0.9226
C33_4 C 0.0247(15) 0.3331(7) 0.9832(10)
H34_4 H 0.2460 0.3177 0.9941
H35_4 H 0.0467336 0.293422 0.880925
H32_4 H 0.9503 0.3050 0.0037
N1_4 N 0.6905(7) 0.5320(5) 0.6854(4)
H17_4 H 0.6095 0.5316 0.6585
H18_4 H 0.7379 0.5731 0.6714
H19_4 H 0.7352 0.4883 0.6758
N2_4 N 0.8405(14) 0.4517(10) 0.8291(13)
C29_4 C 0.6729(15) 0.5366(7) 0.7659(6)
H23_4 H 0.6422 0.5894 0.7753
H24_4 H 0.5977 0.5022 0.7749
C30_4 C 0.7828(15) 0.5192(12) 0.8285(8)
H25_4 H 0.7447 0.5259 0.8779
H26_4 H 0.8531 0.5585 0.8258
C31_4 C 0.7780(19) 0.3983(12) 0.8677(13)
H27_4 H 0.7458 0.4224 0.9134
H28_4 H 0.6991 0.3800 0.8355
C32_4 C 0.8575(15) 0.3346(12) 0.8906(16)
H29_4 H 0.8213 0.3140 0.9368
H30_4 H 0.8405 0.2952 0.8506
H36_4 H 0.842796 0.433299 0.773512
loop_
_geom_bond_atom_site_label_1
_geom_bond_atom_site_label_2
_geom_bond_site_symmetry_1
_geom_bond_site_symmetry_2
P1 O1 1_555 1_555
O2 P1 1_555 1_555
O4 C7 1_555 1_555
O5 C7 1_555 1_555
C1 P1 1_555 1_555
C2 C1 1_555 1_555
H1 C2 1_555 1_555
C3 C2 1_555 1_555
H2 C3 1_555 1_555
C4 C3 1_555 1_555
C5 C4 1_555 1_555
H3 C5 1_555 1_555
C6 C1 1_555 1_555
H4 C6 1_555 1_555
C7 C4 1_555 1_555
H5 C9 1_555 1_555
C10 C9 1_555 1_555
H6 C10 1_555 1_555
Zn10 O4 1_555 1_555
C5 C6 1_555 1_555
Zn6 O3 1_555 1_555
O17 Zn6 1_555 1_555
O21 Zn1 1_555 1_555
O24 Zn1 1_555 1_555
Zn5 O23 1_555 1_555
P4 O20 1_555 1_555
O23 C28 1_555 1_555
C22 P4 1_555 1_555
C26 C25 1_555 1_555
H15 C26 1_555 1_555
C27 C22 1_555 1_555
H16 C27 1_555 1_555
C28 C25 1_555 1_555
P4 O22 1_555 1_555
C26 C27 1_555 1_555
P2 O6 1_555 1_555
O8 P2 1_555 1_555
O9 C14 1_555 1_555
C8 P2 1_555 1_555
C12 C11 1_555 1_555
H7 C12 1_555 1_555
C13 C8 1_555 1_555
H8 C13 1_555 1_555
C14 C11 1_555 1_555
Zn4 O9 1_555 1_555
C12 C13 1_555 1_555
Zn3 O7 1_555 1_555
O15 Zn7 1_555 1_555
O18 Zn7 1_555 1_555
O25 Zn3 1_555 1_555
Zn8 O16 1_555 1_555
P3 O11 1_555 1_555
O14 P3 1_555 1_555
O16 C21 1_555 1_555
O19 C21 1_555 1_555
C15 P3 1_555 1_555
C16 C15 1_555 1_555
H9 C16 1_555 1_555
C17 C16 1_555 1_555
H10 C17 1_555 1_555
C18 C17 1_555 1_555
C19 C18 1_555 1_555
H11 C19 1_555 1_555
C20 C15 1_555 1_555
H12 C20 1_555 1_555
C21 C18 1_555 1_555
H13 C23 1_555 1_555
C24 C23 1_555 1_555
H14 C24 1_555 1_555
C19 C20 1_555 1_555
Zn8 O8_2 1_555 1_555
P2_2 O6_2 1_555 1_555
O7_2 P2_2 1_555 1_555
O8_2 P2_2 1_555 1_555
O24 C14_2 1_555 1_555
C8_2 P2_2 1_555 1_555
C12_2 C11_2 1_555 1_555
H7_2 C12_2 1_555 1_555
C13_2 C8_2 1_555 1_555
H8_2 C13_2 1_555 1_555
C14_2 C11_2 1_555 1_555
Zn5 O7_2 1_555 1_555
Zn10 O12 1_555 1_555
P3_2 O11_2 1_555 1_555
O11_2 Zn5 1_555 1_555
O12 P3_2 1_555 1_555
O13 Zn8 1_555 1_555
O15_2 Zn8 1_555 1_555
O18 C21_2 1_555 1_555
O19_2 C21_2 1_555 1_555
C15_2 P3_2 1_555 1_555
C16_2 C15_2 1_555 1_555
H9_2 C16_2 1_555 1_555
C17_2 C16_2 1_555 1_555
H10_2 C17_2 1_555 1_555
C18_2 C17_2 1_555 1_555
C19_2 C18_2 1_555 1_555
H11_2 C19_2 1_555 1_555
C20_2 C15_2 1_555 1_555
H12_2 C20_2 1_555 1_555
C21_2 C18_2 1_555 1_555
H13_2 C23_2 1_555 1_555
C24_2 C23_2 1_555 1_555
H14_2 C24_2 1_555 1_555
C12_2 C13_2 1_555 1_555
P3_2 O15_2 1_555 1_555
C19_2 C20_2 1_555 1_555
Zn4 O1_2 1_555 1_555
P1_2 O1_2 1_555 1_555
O13 P1_2 1_555 1_555
O3_2 P1_2 1_555 1_555
O17 C7_2 1_555 1_555
O5_2 C7_2 1_555 1_555
C1_2 P1_2 1_555 1_555
C2_2 C1_2 1_555 1_555
H1_2 C2_2 1_555 1_555
C3_2 C2_2 1_555 1_555
H2_2 C3_2 1_555 1_555
C4_2 C3_2 1_555 1_555
C5_2 C4_2 1_555 1_555
H3_2 C5_2 1_555 1_555
C6_2 C1_2 1_555 1_555
H4_2 C6_2 1_555 1_555
C7_2 C4_2 1_555 1_555
H5_2 C9_2 1_555 1_555
C10_2 C9_2 1_555 1_555
H6_2 C10_2 1_555 1_555
Zn10 O3_2 1_555 1_555
P4_2 O20_2 1_555 1_555
O21_2 Zn4 1_555 1_555
O22_2 Zn10 1_555 1_555
O25 C28_2 1_555 1_555
C22_2 P4_2 1_555 1_555
C26_2 C25_2 1_555 1_555
H15_2 C26_2 1_555 1_555
C27_2 C22_2 1_555 1_555
H16_2 C27_2 1_555 1_555
C28_2 C25_2 1_555 1_555
C5_2 C6_2 1_555 1_555
P4_2 O21_2 1_555 1_555
P4_2 O22_2 1_555 1_555
C26_2 C27_2 1_555 1_555
N4 H20 1_555 1_555
H21 N4 1_555 1_555
H22 N4 1_555 1_555
C33 N3 1_555 1_555
H31 C33 1_555 1_555
C34 N4 1_555 1_555
H33 C34 1_555 1_555
H34 C34 1_555 1_555
C33 C34 1_555 1_555
N3 H35 1_555 1_555
C31 N2 1_555 1_555
H27 C31 1_555 1_555
H28 C31 1_555 1_555
C32 C31 1_555 1_555
H29 C32 1_555 1_555
H30 C32 1_555 1_555
N2 H36 1_555 1_555
N1 H17 1_555 1_555
H18 N1 1_555 1_555
C29 N1 1_555 1_555
H23 C29 1_555 1_555
H24 C29 1_555 1_555
C30 C29 1_555 1_555
H25 C30 1_555 1_555
H26 C30 1_555 1_555
N1_2 H17_2 1_555 1_555
H18_2 N1_2 1_555 1_555
H19_2 N1_2 1_555 1_555
N2_2 C30_2 1_555 1_555
C29_2 N1_2 1_555 1_555
H23_2 C29_2 1_555 1_555
H24_2 C29_2 1_555 1_555
C30_2 C29_2 1_555 1_555
H25_2 C30_2 1_555 1_555
H26_2 C30_2 1_555 1_555
C31_2 N2_2 1_555 1_555
H27_2 C31_2 1_555 1_555
H28_2 C31_2 1_555 1_555
C32_2 C31_2 1_555 1_555
H29_2 C32_2 1_555 1_555
H30_2 C32_2 1_555 1_555
N2_2 H36_2 1_555 1_555
N4_2 H20_2 1_555 1_555
H21_2 N4_2 1_555 1_555
H22_2 N4_2 1_555 1_555
C33_2 N3_2 1_555 1_555
N3_2 H35_2 1_555 1_555
H33_2 C34_2 1_555 1_555
N1_3 H17_3 1_555 1_555
H18_3 N1_3 1_555 1_555
C29_3 N1_3 1_555 1_555
H23_3 C29_3 1_555 1_555
H24_3 C29_3 1_555 1_555
C30_3 C29_3 1_555 1_555
H25_3 C30_3 1_555 1_555
H26_3 C30_3 1_555 1_555
C31_3 N2_3 1_555 1_555
H27_3 C31_3 1_555 1_555
H28_3 C31_3 1_555 1_555
C32_3 C31_3 1_555 1_555
H29_3 C32_3 1_555 1_555
H30_3 C32_3 1_555 1_555
N2_3 H36_3 1_555 1_555
N4_3 H20_3 1_555 1_555
H21_3 N4_3 1_555 1_555
H22_3 N4_3 1_555 1_555
C33_3 N3_3 1_555 1_555
H31_3 C33_3 1_555 1_555
C34_3 N4_3 1_555 1_555
H33_3 C34_3 1_555 1_555
H34_3 C34_3 1_555 1_555
C33_3 C34_3 1_555 1_555
N3_3 H35_3 1_555 1_555
H33_4 C34_4 1_555 1_555
N4_4 H20_4 1_555 1_555
H21_4 N4_4 1_555 1_555
H22_4 N4_4 1_555 1_555
C33_4 N3_4 1_555 1_555
N3_4 H35_4 1_555 1_555
N1_4 H17_4 1_555 1_555
H18_4 N1_4 1_555 1_555
H19_4 N1_4 1_555 1_555
N2_4 C30_4 1_555 1_555
C29_4 N1_4 1_555 1_555
H23_4 C29_4 1_555 1_555
H24_4 C29_4 1_555 1_555
C30_4 C29_4 1_555 1_555
H25_4 C30_4 1_555 1_555
H26_4 C30_4 1_555 1_555
C31_4 N2_4 1_555 1_555
H27_4 C31_4 1_555 1_555
H28_4 C31_4 1_555 1_555
C32_4 C31_4 1_555 1_555
H29_4 C32_4 1_555 1_555
H30_4 C32_4 1_555 1_555
N2_4 H36_4 1_555 1_555

#END
