
###############################################################################
#
# This file contains modified crystal structure data generated from the
# MOF subset of the Cambridge Structural Database (CSD) v543 
# hosted by the Cambridge Crystallographic Data Centre (CCDC).
#
# This work is licensed under the Creative Commons
# Attribution-NonCommercial-ShareAlike 4.0 International License.
# To view a copy of this license, visit
# http://creativecommons.org/licenses/by-nc-sa/4.0/
# or send a letter to
# Creative Commons, PO Box 1866, Mountain View, CA 94042, USA.
#
# CIF created using the CSD Python API on 29 September 2022
# The structure has been converted into the P1 space group
# The structure has a 3D framework
# The original CSD entry XOJWID is in the triclinic crystal system
# The framework has been calculated to contain at least 10.0% void space
# The void calculation uses a probe of radius 1.32A, grid spacing 0.4
# The framework is charged, counterions have been retained in the structure
#
###############################################################################

data_XOJWID
_chemical_formula_moiety         '(C36 H48 N4 O18 P4 Zn4)n'
_symmetry_cell_setting           triclinic
_symmetry_space_group_name_H-M   'P 1'
_symmetry_Int_Tables_number      1
_space_group_name_Hall           'P 1'
loop_
_symmetry_equiv_pos_site_id
_symmetry_equiv_pos_as_xyz
1 x,y,z
_cell_length_a                   10.075(9)
_cell_length_b                   13.051(7)
_cell_length_c                   13.240(9)
_cell_angle_alpha                70.79(4)
_cell_angle_beta                 68.85(4)
_cell_angle_gamma                70.61(4)
_cell_volume                     1487.6
loop_
_atom_site_label
_atom_site_type_symbol
_atom_site_fract_x
_atom_site_fract_y
_atom_site_fract_z
Zn12 Zn 0.16256(7) 0.05451(5) 0.33483(5)
Zn1 Zn 0.43318(7) 0.83363(5) 0.55285(5)
P1 P 0.12993(15) 0.83589(12) 0.52661(12)
O1 O 0.2288(4) 0.8673(4) 0.5679(3)
O3 O 0.1010(5) 0.9167(3) 0.4206(4)
O4 O 0.4467(5) 0.3053(4) 0.4855(4)
O5 O 0.5096(7) 0.3877(4) 0.3072(5)
C1 C 0.2177(6) 0.7035(5) 0.4916(5)
C2 C 0.2193(7) 0.6058(5) 0.5732(5)
H1 H 0.1714 0.6077 0.6474
C3 C 0.2933(7) 0.5032(5) 0.5442(6)
H2 H 0.2937 0.4370 0.5995
C4 C 0.3638(7) 0.4997(5) 0.4371(6)
C5 C 0.3624(8) 0.5971(6) 0.3546(6)
H3 H 0.4107 0.5946 0.2806
C6 C 0.2892(7) 0.6984(5) 0.3820(5)
H4 H 0.2878 0.7640 0.3260
C7 C 0.4474(7) 0.3904(5) 0.4067(6)
Zn9 Zn 0.56682(7) 0.16637(5) 0.44715(5)
O18 O 0.5533(5) 0.6947(4) 0.5145(4)
O22 O 0.4414(5) 0.8744(3) 0.6793(3)
O26 O 0.5416(4) 0.9287(3) 0.4202(3)
O9 O 0.2030(5) 0.0376(4) 0.1865(4)
O10 O 0.2697(6) 0.1980(4) 0.1076(4)
C14 C 0.2589(7) 0.1082(6) 0.1028(6)
P4 P 0.49208(15) 0.03100(12) 0.33598(12)
O12 O 0.0119(4) 0.1780(3) 0.3840(4)
O20 O 0.3280(4) 0.0712(4) 0.3621(3)
O21 O 0.5586(5) 0.1256(3) 0.3207(3)
C23 C 0.6224(7) 0.0616(5) 0.1075(5)
H13 H 0.6197 0.1333 0.1081
C24 C 0.6810(8) 0.0290(6) 0.0106(5)
O8 O 0.4584(4) 0.0713(3) 0.5798(3)
C8 C 0.4330(6) 0.0094(5) 0.7954(5)
C11 C 0.3160(7) 0.0753(5) 0.9953(5)
C12 C 0.3710(8) 0.1477(6) 0.8979(5)
H7 H 0.3690 0.2190 0.8993
C13 C 0.4288(7) 0.1157(5) 0.7986(5)
H8 H 0.4652 0.1655 0.7333
O15 O 0.8990(5) 0.0833(3) 0.5794(4)
H14 H 0.7204 0.0782 0.9460
H6 H 0.2796 0.9218 0.0540
C22 C 0.5670(6) 0.9906(5) 0.2046(5)
C25 C 0.6840(7) 0.9247(5) 0.0047(5)
C26 C 0.6290(8) 0.8523(6) 0.1021(5)
H15 H 0.6310 0.7810 0.1007
C27 C 0.5712(7) 0.8843(5) 0.2014(5)
H16 H 0.5348 0.8345 0.2667
Zn2 Zn 0.83744(7) 0.94549(5) 0.66517(5)
P2 P 0.50792(15) 0.96900(12) 0.66402(12)
O2 O 0.9881(4) 0.8220(3) 0.6160(4)
O6 O 0.6720(4) 0.9288(4) 0.6379(3)
C9 C 0.3776(7) 0.9384(5) 0.8925(5)
H5 H 0.3803 0.8667 0.8919
C10 C 0.3190(8) 0.9710(6) 0.9894(5)
O27 O 0.7970(5) 0.9624(4) 0.8135(4)
O28 O 0.7303(6) 0.8020(4) 0.8924(4)
C28 C 0.7411(7) 0.8918(6) 0.8972(6)
P3 P 0.87007(15) 0.16411(12) 0.47339(12)
O11 O 0.7712(4) 0.1327(4) 0.4321(3)
O19 O 0.4904(7) 0.6123(4) 0.6928(5)
C15 C 0.7823(6) 0.2965(5) 0.5084(5)
C16 C 0.7807(7) 0.3942(5) 0.4268(5)
H9 H 0.8286 0.3923 0.3526
C17 C 0.7067(7) 0.4968(5) 0.4558(6)
H10 H 0.7063 0.5630 0.4005
C18 C 0.6362(7) 0.5003(5) 0.5629(6)
C19 C 0.6376(8) 0.4029(6) 0.6454(6)
H11 H 0.5893 0.4054 0.7194
C20 C 0.7108(7) 0.3016(5) 0.6180(5)
H12 H 0.7122 0.2360 0.6740
C21 C 0.5526(7) 0.6096(5) 0.5933(6)
N1 N 0.3437(8) 0.3178(6) 0.2024(5)
H17 H 0.3287 0.2631 0.1836
H18 H 0.4004 0.2852 0.2491
C29 C 0.2050(12) 0.3793(9) 0.2597(9)
H19 H 0.1593 0.3295 0.3248
H20 H 0.1428 0.4126 0.2110
H21 H 0.2202 0.4369 0.2814
C30 C 0.4224(14) 0.3876(10) 0.1013(8)
H22 H 0.5140 0.3420 0.0671
H23 H 0.4407 0.4452 0.1209
H24 H 0.3640 0.4210 0.0500
N1_2 N 0.6563(8) 0.6822(6) 0.7976(5)
H17_2 H 0.6713 0.7369 0.8164
H18_2 H 0.5996 0.7148 0.7509
C29_2 C 0.7950(12) 0.6207(9) 0.7403(9)
H19_2 H 0.8407 0.6705 0.6752
H20_2 H 0.8572 0.5874 0.7890
H21_2 H 0.7798 0.5631 0.7186
C30_2 C 0.5776(14) 0.6124(10) 0.8987(8)
H22_2 H 0.4860 0.6580 0.9329
H23_2 H 0.5593 0.5548 0.8791
H24_2 H 0.6360 0.5790 0.9500
N2 N 0.1522(7) 0.1144(6) 0.6111(6)
H25 H 0.1090 0.0975 0.5718
H26 H 0.2494 0.0864 0.5865
C31 C 0.1020(9) 0.0591(9) 0.7267(7)
H29 H 0.1499 0.0741 0.7694
C32 C 0.1243(11) 0.2344(9) 0.5873(11)
H30 H 0.1610 0.2635 0.5086
H31 H 0.1728 0.2539 0.6264
H32 H 0.0207 0.2659 0.6112
H27 H 0.1250 0.9800 0.7340
H28 H 0.9979 0.0866 0.7537
H28_2 H 0.0021 0.9134 0.2463
H27_2 H 0.8750 0.0200 0.2660
N2_2 N 0.8478(7) 0.8856(6) 0.3889(6)
H25_2 H 0.8910 0.9025 0.4282
H26_2 H 0.7506 0.9136 0.4135
C31_2 C 0.8980(9) 0.9409(9) 0.2733(7)
H29_2 H 0.8501 0.9259 0.2306
C32_2 C 0.8757(11) 0.7656(9) 0.4127(11)
H30_2 H 0.8390 0.7365 0.4914
H31_2 H 0.8272 0.7461 0.3736
H32_2 H 0.9793 0.7341 0.3888
loop_
_geom_bond_atom_site_label_1
_geom_bond_atom_site_label_2
_geom_bond_site_symmetry_1
_geom_bond_site_symmetry_2
Zn1 O1 1_555 1_555
P1 O1 1_555 1_555
O3 P1 1_555 1_555
O4 C7 1_555 1_555
O5 C7 1_555 1_555
C1 P1 1_555 1_555
C2 C1 1_555 1_555
H1 C2 1_555 1_555
C3 C2 1_555 1_555
H2 C3 1_555 1_555
C4 C3 1_555 1_555
C5 C4 1_555 1_555
H3 C5 1_555 1_555
C6 C1 1_555 1_555
H4 C6 1_555 1_555
C7 C4 1_555 1_555
Zn9 O4 1_555 1_555
O18 Zn1 1_555 1_555
O22 Zn1 1_555 1_555
O26 Zn1 1_555 1_555
C5 C6 1_555 1_555
O9 C14 1_555 1_555
O10 C14 1_555 1_555
Zn9 O21 1_555 1_555
Zn12 O9 1_555 1_555
P4 O20 1_555 1_555
O12 Zn12 1_555 1_555
O20 Zn12 1_555 1_555
O21 P4 1_555 1_555
H13 C23 1_555 1_555
C24 C23 1_555 1_555
C12 C11 1_555 1_555
H7 C12 1_555 1_555
C13 C8 1_555 1_555
H8 C13 1_555 1_555
Zn9 O8 1_555 1_555
C12 C13 1_555 1_555
C26 C25 1_555 1_555
H15 C26 1_555 1_555
C27 C22 1_555 1_555
H16 C27 1_555 1_555
C26 C27 1_555 1_555
Zn2 O2 1_555 1_555
P2 O6 1_555 1_555
O6 Zn2 1_555 1_555
O22 P2 1_555 1_555
H5 C9 1_555 1_555
C10 C9 1_555 1_555
O27 Zn2 1_555 1_555
O28 C28 1_555 1_555
C28 O27 1_555 1_555
Zn9 O11 1_555 1_555
P3 O11 1_555 1_555
O15 P3 1_555 1_555
O18 C21 1_555 1_555
O19 C21 1_555 1_555
C15 P3 1_555 1_555
C16 C15 1_555 1_555
H9 C16 1_555 1_555
C17 C16 1_555 1_555
H10 C17 1_555 1_555
C18 C17 1_555 1_555
C19 C18 1_555 1_555
H11 C19 1_555 1_555
C20 C15 1_555 1_555
H12 C20 1_555 1_555
C21 C18 1_555 1_555
C19 C20 1_555 1_555
N1 H17 1_555 1_555
H18 N1 1_555 1_555
C29 N1 1_555 1_555
H19 C29 1_555 1_555
H20 C29 1_555 1_555
H21 C29 1_555 1_555
C30 N1 1_555 1_555
H22 C30 1_555 1_555
H23 C30 1_555 1_555
H24 C30 1_555 1_555
N1_2 H17_2 1_555 1_555
H18_2 N1_2 1_555 1_555
C29_2 N1_2 1_555 1_555
H19_2 C29_2 1_555 1_555
H20_2 C29_2 1_555 1_555
H21_2 C29_2 1_555 1_555
C30_2 N1_2 1_555 1_555
H22_2 C30_2 1_555 1_555
H23_2 C30_2 1_555 1_555
H24_2 C30_2 1_555 1_555
N2 H25 1_555 1_555
H26 N2 1_555 1_555
C31 N2 1_555 1_555
H29 C31 1_555 1_555
C32 N2 1_555 1_555
H30 C32 1_555 1_555
H31 C32 1_555 1_555
H32 C32 1_555 1_555
N2_2 H25_2 1_555 1_555
H26_2 N2_2 1_555 1_555
C31_2 N2_2 1_555 1_555
H29_2 C31_2 1_555 1_555
C32_2 N2_2 1_555 1_555
H30_2 C32_2 1_555 1_555
H31_2 C32_2 1_555 1_555
H32_2 C32_2 1_555 1_555

#END
