
###############################################################################
#
# This file contains modified crystal structure data generated from the
# MOF subset of the Cambridge Structural Database (CSD) v543 
# hosted by the Cambridge Crystallographic Data Centre (CCDC).
#
# This work is licensed under the Creative Commons
# Attribution-NonCommercial-ShareAlike 4.0 International License.
# To view a copy of this license, visit
# http://creativecommons.org/licenses/by-nc-sa/4.0/
# or send a letter to
# Creative Commons, PO Box 1866, Mountain View, CA 94042, USA.
#
# CIF created using the CSD Python API on 29 September 2022
# The structure has been converted into the P1 space group
# The structure has a 3D framework
# The original CSD entry XOJXEA is in the rhombohedral crystal system
# The framework has been calculated to contain at least 10.0% void space
# The void calculation uses a probe of radius 1.32A, grid spacing 0.4
# The framework is charged, counterions have been retained in the structure
# H atom positions have been added when not included in the experimental data
# Generated hydrogen atom positions removed from atoms on special positions
#
###############################################################################

data_XOJXEA
_chemical_formula_moiety         '(C126 H184 O110 P18 Zn18 10+)n'
_symmetry_cell_setting           triclinic
_symmetry_space_group_name_H-M   'P 1'
_symmetry_Int_Tables_number      1
_space_group_name_Hall           'P 1'
loop_
_symmetry_equiv_pos_site_id
_symmetry_equiv_pos_as_xyz
1 x,y,z
_cell_length_a                   14.018(3)
_cell_length_b                   14.018(3)
_cell_length_c                   31.122(9)
_cell_angle_alpha                90
_cell_angle_beta                 90
_cell_angle_gamma                120
_cell_volume                     5296.27
loop_
_atom_site_label
_atom_site_type_symbol
_atom_site_fract_x
_atom_site_fract_y
_atom_site_fract_z
Zn8 Zn 0.24152(10) 0.00641(17) 0.19827(3)
Zn9 Zn 0.09182(10) 0.66025(17) 0.46839(3)
P3 P 0.0035(3) 0.7771(2) 0.20305(8)
O9 O 0.1158(8) 0.8594(6) 0.1866(2)
O16 O 0.0365(8) 0.6533(11) 0.4106(2)
O21 O 0.0077(12) 0.7918(9) 0.4209(3)
C9 C 0.0100(11) 0.7647(8) 0.2607(3)
C10 C 0.0126(16) 0.3693(13) 0.0554(3)
C11 C 0.0360(13) 0.6900(10) 0.2779(3)
H5 H 0.0715 0.3851 0.0735
H6 H 0.0518 0.6469 0.2598
C12 C 0.0264(16) 0.3720(13) 0.0108(3)
C13 C 0.0387(13) 0.6789(10) 0.3225(3)
H8 H 0.0563 0.6285 0.3340
C15 C 0.0153(13) 0.7422(10) 0.3491(3)
C21 C 0.0188(16) 0.7280(12) 0.3977(3)
Zn7 Zn 0.09823(14) 0.42515(10) 0.86494(3)
O15 O 0.0498(14) 0.3698(8) 0.9227(2)
H7 H 0.0944 0.3896 0.9993
Zn1 Zn 0.90177(14) 0.57485(10) 0.13506(3)
P1 P 0.6632(3) 0.5562(2) 0.13028(8)
O1 O 0.7452(8) 0.5182(6) 0.1400(2)
O2 O 0.5509(8) 0.4739(6) 0.1467(2)
O3 O 0.6972(9) 0.6686(6) 0.1484(2)
C1 C 0.6567(11) 0.5686(8) 0.0726(3)
C2 C 0.6307(13) 0.6433(10) 0.0554(3)
H1 H 0.6149 0.6864 0.0735
C3 C 0.6280(13) 0.6544(10) 0.0108(3)
C5 C 0.6731(13) 0.5156(10) 0.0010(3)
C6 C 0.6771(13) 0.5042(9) 0.0453(3)
H4 H 0.6937 0.4527 0.0565
Zn2 Zn 0.67308(17) 0.09823(14) 0.13506(3)
Zn3 Zn 0.76490(14) 0.75848(10) 0.19827(3)
Zn4 Zn 0.42515(10) 0.32692(17) 0.13506(3)
Zn6 Zn 0.99359(17) 0.23510(14) 0.19827(3)
P2 P 0.8930(4) 0.3368(3) 0.13028(8)
O6 O 0.7730(10) 0.2548(8) 0.1400(2)
O7 O 0.9215(8) 0.8151(6) 0.1933(2)
O8 O 0.9230(10) 0.4491(8) 0.1467(2)
O10 O 0.5261(6) 0.0770(10) 0.1467(2)
O11 O 0.7437(10) 0.8842(8) 0.1866(2)
O12 O 0.9714(11) 0.3028(9) 0.1484(2)
O13 O 0.9695(9) 0.6647(6) 0.1849(2)
O14 O 0.6953(11) 0.0305(9) 0.1849(2)
O17 O 0.9502(14) 0.6302(8) 0.0773(2)
O18 O 0.6800(11) 0.0498(14) 0.0773(2)
O19 O 0.7165(14) 0.7031(8) 0.2560(2)
C8 C 0.9119(14) 0.3433(11) 0.0726(3)
C16 C 0.8425(16) 0.3269(13) 0.0010(3)
C17 C 0.9936(13) 0.8177(10) 0.3323(3)
H10 H 0.9813 0.8630 0.3506
C18 C 0.8271(16) 0.3229(13) 0.0453(3)
C19 C 0.9896(13) 0.8291(9) 0.2880(3)
H11 H 0.7590 0.3063 0.0565
H12 H 0.9730 0.8806 0.2768
O4 O 0.6302(8) 0.6800(11) 0.9227(2)
O5 O 0.6590(12) 0.5415(9) 0.9124(3)
H2 H 0.6104 0.7048 0.9993
C4 C 0.6514(13) 0.5911(10) 0.9842(3)
H3 H 0.6854 0.4703 0.9827
C7 C 0.6479(16) 0.6053(12) 0.9356(3)
Zn5 Zn 0.57485(10) 0.67308(17) 0.86494(3)
O20 O 0.8825(15) 0.3410(12) 0.9124(3)
C14 C 0.9397(16) 0.3486(13) 0.9842(3)
H9 H 0.7849 0.3146 0.9827
C20 C 0.9574(20) 0.3521(16) 0.9356(3)
P1_2 P 0.4438(2) 0.1070(4) 0.13028(8)
O1_2 O 0.4818(6) 0.2270(10) 0.1400(2)
O3_2 O 0.3314(6) 0.0286(11) 0.1484(2)
C1_2 C 0.4314(8) 0.0881(14) 0.0726(3)
C5_2 C 0.4844(10) 0.1575(16) 0.0010(3)
C6_2 C 0.4958(9) 0.1729(16) 0.0453(3)
H4_2 H 0.5473 0.2410 0.0565
Zn9_2 Zn 0.33975(17) 0.43156(20) 0.46839(3)
P3_2 P 0.2229(2) 0.2263(4) 0.20305(8)
O7_2 O 0.1849(6) 0.1063(10) 0.1933(2)
O9_2 O 0.1406(6) 0.2563(10) 0.1866(2)
O13_2 O 0.3353(6) 0.3047(11) 0.1849(2)
O16_2 O 0.3467(11) 0.3831(14) 0.4106(2)
O17_2 O 0.3698(8) 0.3200(16) 0.0773(2)
O19_2 O 0.2969(8) 0.0133(16) 0.2560(2)
O21_2 O 0.2082(9) 0.2158(15) 0.4209(3)
C9_2 C 0.2353(8) 0.2452(14) 0.2607(3)
C11_2 C 0.3100(10) 0.3459(16) 0.2779(3)
H6_2 H 0.3531 0.4048 0.2598
C13_2 C 0.3211(10) 0.3597(16) 0.3225(3)
H8_2 H 0.3715 0.4277 0.3340
C15_2 C 0.2578(10) 0.2730(16) 0.3491(3)
C17_2 C 0.1823(10) 0.1758(16) 0.3323(3)
H10_2 H 0.1370 0.1182 0.3506
C19_2 C 0.1709(9) 0.1604(16) 0.2880(3)
H12_2 H 0.1194 0.0923 0.2768
C21_2 C 0.2720(12) 0.2907(20) 0.3977(3)
O5_2 O 0.4585(9) 0.1175(15) 0.9124(3)
C4_2 C 0.4089(10) 0.0603(16) 0.9842(3)
H3_2 H 0.5297 0.2151 0.9827
C7_2 C 0.3947(12) 0.0426(20) 0.9356(3)
C2_2 C 0.3567(10) 0.9874(16) 0.0554(3)
H1_2 H 0.3136 0.9285 0.0735
C3_2 C 0.3456(10) 0.9736(16) 0.0108(3)
O4_2 O 0.3200(11) 0.9502(14) 0.9227(2)
H2_2 H 0.2952 0.9056 0.9993
Zn5_2 Zn 0.32692(17) 0.90177(20) 0.86494(3)
O7_3 O 0.8937(10) 0.0785(8) 0.1933(2)
O19_3 O 0.9867(16) 0.2835(14) 0.2560(2)
C17_3 C 0.8242(16) 0.0064(13) 0.3323(3)
H10_3 H 0.8818 0.0187 0.3506
C19_3 C 0.8396(16) 0.0104(13) 0.2880(3)
H12_3 H 0.9077 0.0270 0.2768
Zn9_3 Zn 0.56844(20) 0.90818(10) 0.46839(3)
P3_3 P 0.7737(4) 0.9965(3) 0.20305(8)
O16_3 O 0.6169(14) 0.9635(8) 0.4106(2)
O21_3 O 0.7842(15) 0.9923(12) 0.4209(3)
C9_3 C 0.7548(14) 0.9900(11) 0.2607(3)
C11_3 C 0.6541(16) 0.9640(13) 0.2779(3)
H6_3 H 0.5952 0.9482 0.2598
C13_3 C 0.6403(16) 0.9613(13) 0.3225(3)
H8_3 H 0.5723 0.9437 0.3340
C15_3 C 0.7270(16) 0.9847(13) 0.3491(3)
C21_3 C 0.7093(20) 0.9812(16) 0.3977(3)
O3_3 O 0.3639(9) 0.0019(6) 0.4817(2)
H1_3 H 0.2816 0.0197 0.4068
H2_3 H 0.2771 0.0381 0.3326
Zn3_2 Zn 0.43156(14) 0.09182(10) 0.53161(3)
Zn8_2 Zn 0.90818(10) 0.33975(17) 0.53161(3)
P3_4 P 0.6701(3) 0.1105(2) 0.53639(8)
O7_4 O 0.5881(8) 0.1485(6) 0.5267(2)
O9_3 O 0.7824(8) 0.1928(6) 0.5200(2)
O11_2 O 0.4103(10) 0.2176(8) 0.5200(2)
O19_4 O 0.3831(14) 0.0365(8) 0.5894(2)
O21_4 O 0.6743(12) 0.1252(9) 0.7543(3)
C9_4 C 0.6766(11) 0.0981(8) 0.5941(3)
C11_4 C 0.7026(13) 0.0234(10) 0.6113(3)
C13_4 C 0.7053(13) 0.0123(10) 0.6559(3)
C15_4 C 0.6819(13) 0.0756(10) 0.6825(3)
C17_4 C 0.6602(13) 0.1511(10) 0.6657(3)
H10_4 H 0.6479 0.1964 0.6840
C19_4 C 0.6562(13) 0.1625(9) 0.6214(3)
H12_4 H 0.6396 0.2140 0.6102
C21_4 C 0.6854(16) 0.0614(12) 0.7311(3)
P1_3 P 0.3299(3) 0.8895(2) 0.46361(8)
O1_3 O 0.4119(8) 0.8515(6) 0.4733(2)
O2_2 O 0.2176(8) 0.8072(6) 0.4800(2)
O5_3 O 0.3257(12) 0.8748(9) 0.2457(3)
C1_3 C 0.3234(11) 0.9019(8) 0.4059(3)
C2_3 C 0.2974(13) 0.9766(10) 0.3887(3)
C3_3 C 0.2947(13) 0.9877(10) 0.3441(3)
C4_3 C 0.3181(13) 0.9244(10) 0.3175(3)
C5_3 C 0.3398(13) 0.8489(10) 0.3343(3)
H3_3 H 0.3521 0.8036 0.3160
C6_3 C 0.3438(13) 0.8375(9) 0.3786(3)
H4_3 H 0.3604 0.7860 0.3898
C7_3 C 0.3146(16) 0.9386(12) 0.2689(3)
Zn6_2 Zn 0.66025(17) 0.56844(14) 0.53161(3)
Zn9_4 Zn 0.75848(10) 0.99359(17) 0.80173(3)
P2_2 P 0.5597(4) 0.6701(3) 0.46361(8)
O6_2 O 0.4397(10) 0.5881(8) 0.4733(2)
O8_2 O 0.5897(10) 0.7824(8) 0.4800(2)
O10_2 O 0.1928(6) 0.4103(10) 0.4800(2)
O12_2 O 0.6381(11) 0.6361(9) 0.4817(2)
O13_3 O 0.6361(9) 0.9981(6) 0.5183(2)
O14_2 O 0.3619(11) 0.3639(9) 0.5183(2)
O16_4 O 0.7031(8) 0.9867(11) 0.7440(2)
O20_2 O 0.5492(15) 0.6743(12) 0.2457(3)
C8_2 C 0.5786(14) 0.6766(11) 0.4059(3)
C10_2 C 0.6793(16) 0.7026(13) 0.3887(3)
H5_2 H 0.7382 0.7184 0.4068
H6_4 H 0.7184 0.9803 0.5932
C12_2 C 0.6931(16) 0.7053(13) 0.3441(3)
H7_2 H 0.7611 0.7229 0.3326
H8_4 H 0.7229 0.9619 0.6674
C14_2 C 0.6064(16) 0.6819(13) 0.3175(3)
C16_2 C 0.5092(16) 0.6602(13) 0.3343(3)
H9_2 H 0.4516 0.6479 0.3160
C18_2 C 0.4938(16) 0.6562(13) 0.3786(3)
H11_2 H 0.4257 0.6396 0.3898
C20_2 C 0.6241(20) 0.6854(16) 0.2689(3)
P1_4 P 0.1105(2) 0.4403(4) 0.46361(8)
O1_4 O 0.1485(6) 0.5603(10) 0.4733(2)
O5_4 O 0.1252(9) 0.4508(15) 0.2457(3)
C1_4 C 0.0981(8) 0.4214(14) 0.4059(3)
C2_4 C 0.0234(10) 0.3207(16) 0.3887(3)
C3_4 C 0.0123(10) 0.3069(16) 0.3441(3)
C4_4 C 0.0756(10) 0.3936(16) 0.3175(3)
C5_4 C 0.1511(10) 0.4908(16) 0.3343(3)
H3_4 H 0.1964 0.5484 0.3160
C6_4 C 0.1625(9) 0.5062(16) 0.3786(3)
H4_4 H 0.2140 0.5743 0.3898
C7_4 C 0.0614(12) 0.3759(20) 0.2689(3)
Zn9_5 Zn 0.00641(17) 0.76490(20) 0.80173(3)
O13_4 O 0.0019(6) 0.6381(11) 0.5183(2)
O16_5 O 0.0133(11) 0.7165(14) 0.7440(2)
H6_5 H 0.0197 0.7382 0.5932
H8_5 H 0.0381 0.7611 0.6674
O3_4 O 0.9981(6) 0.3619(11) 0.4817(2)
H1_4 H 0.9803 0.2618 0.4068
H2_4 H 0.9619 0.2389 0.3326
P3_5 P 0.8895(2) 0.5597(4) 0.53639(8)
O7_5 O 0.8515(6) 0.4397(10) 0.5267(2)
O9_4 O 0.8072(6) 0.5897(10) 0.5200(2)
O19_5 O 0.9635(8) 0.3467(16) 0.5894(2)
O21_5 O 0.8748(9) 0.5492(15) 0.7543(3)
C9_5 C 0.9019(8) 0.5786(14) 0.5941(3)
C11_5 C 0.9766(10) 0.6793(16) 0.6113(3)
C13_5 C 0.9877(10) 0.6931(16) 0.6559(3)
C15_5 C 0.9244(10) 0.6064(16) 0.6825(3)
C17_5 C 0.8489(10) 0.5092(16) 0.6657(3)
H10_5 H 0.8036 0.4516 0.6840
C19_5 C 0.8375(9) 0.4938(16) 0.6214(3)
H12_5 H 0.7860 0.4257 0.6102
C21_5 C 0.9386(12) 0.6241(20) 0.7311(3)
Zn9_6 Zn 0.23510(20) 0.24152(10) 0.80173(3)
P3_6 P 0.4403(4) 0.3299(3) 0.53639(8)
O7_6 O 0.5603(10) 0.4119(8) 0.5267(2)
O16_6 O 0.2835(14) 0.2969(8) 0.7440(2)
O19_6 O 0.6533(16) 0.6169(14) 0.5894(2)
O21_6 O 0.4508(15) 0.3257(12) 0.7543(3)
C9_6 C 0.4214(14) 0.3234(11) 0.5941(3)
C11_6 C 0.3207(16) 0.2974(13) 0.6113(3)
H6_6 H 0.2618 0.2816 0.5932
C13_6 C 0.3069(16) 0.2947(13) 0.6559(3)
H8_6 H 0.2389 0.2771 0.6674
C15_6 C 0.3936(16) 0.3181(13) 0.6825(3)
C17_6 C 0.4908(16) 0.3398(13) 0.6657(3)
H10_6 H 0.5484 0.3521 0.6840
C19_6 C 0.5062(16) 0.3438(13) 0.6214(3)
H12_6 H 0.5743 0.3604 0.6102
C21_6 C 0.3759(20) 0.3146(16) 0.7311(3)
O21_7 O 0.3410(12) 0.4585(9) 0.0876(3)
H8_7 H 0.3896 0.2952 0.0007
C15_7 C 0.3486(13) 0.4089(10) 0.0158(3)
H10_7 H 0.3146 0.5297 0.0173
C21_7 C 0.3521(16) 0.3947(12) 0.0644(3)
O1_5 O 0.0785(8) 0.1849(6) 0.8067(2)
O3_5 O 0.0305(9) 0.3353(6) 0.8151(2)
C5_5 C 0.0064(13) 0.1823(10) 0.6677(3)
H3_5 H 0.0187 0.1370 0.6494
C6_5 C 0.0104(13) 0.1709(9) 0.7120(3)
H4_5 H 0.0270 0.1194 0.7232
P2_3 P 0.2263(4) 0.0035(3) 0.79695(8)
P3_7 P 0.3368(3) 0.4438(2) 0.86972(8)
O7_7 O 0.2548(8) 0.4818(6) 0.8600(2)
O8_3 O 0.2563(10) 0.1158(8) 0.8134(2)
O9_5 O 0.4491(8) 0.5261(6) 0.8533(2)
O11_3 O 0.0770(10) 0.5509(8) 0.8533(2)
O13_5 O 0.3028(9) 0.3314(6) 0.8516(2)
O20_3 O 0.2158(15) 0.0077(12) 0.5791(3)
C8_3 C 0.2452(14) 0.0100(11) 0.7393(3)
C9_7 C 0.3433(11) 0.4314(8) 0.9274(3)
C10_3 C 0.3459(16) 0.0360(13) 0.7221(3)
C11_7 C 0.3693(13) 0.3567(10) 0.9446(3)
H5_3 H 0.4048 0.0518 0.7402
H6_7 H 0.3851 0.3136 0.9265
C12_3 C 0.3597(16) 0.0387(13) 0.6775(3)
C13_7 C 0.3720(13) 0.3456(10) 0.9892(3)
H7_3 H 0.4277 0.0563 0.6660
C14_3 C 0.2730(16) 0.0153(13) 0.6509(3)
C17_7 C 0.3269(13) 0.4844(10) 0.9990(3)
C19_7 C 0.3229(13) 0.4958(9) 0.9547(3)
H12_7 H 0.3063 0.5473 0.9435
C20_3 C 0.2907(20) 0.0188(16) 0.6023(3)
O6_3 O 0.1063(10) 0.9215(8) 0.8067(2)
O12_3 O 0.3047(11) 0.9695(9) 0.8151(2)
O14_3 O 0.0286(11) 0.6972(9) 0.8516(2)
C16_3 C 0.1758(16) 0.9936(13) 0.6677(3)
H9_3 H 0.1182 0.9813 0.6494
C18_3 C 0.1604(16) 0.9896(13) 0.7120(3)
H11_3 H 0.0923 0.9730 0.7232
P1_5 P 0.9965(3) 0.2229(2) 0.79695(8)
O2_3 O 0.8842(8) 0.1406(6) 0.8134(2)
O5_5 O 0.9923(12) 0.2082(9) 0.5791(3)
C1_5 C 0.9900(11) 0.2353(8) 0.7393(3)
C2_5 C 0.9640(13) 0.3100(10) 0.7221(3)
H1_5 H 0.9482 0.3531 0.7402
C3_5 C 0.9613(13) 0.3211(10) 0.6775(3)
H2_5 H 0.9437 0.3715 0.6660
C4_5 C 0.9847(13) 0.2578(10) 0.6509(3)
C7_5 C 0.9812(16) 0.2720(12) 0.6023(3)
O10_3 O 0.8594(6) 0.7437(10) 0.8134(2)
H8_8 H 0.7048 0.0944 0.0007
C11_8 C 0.6433(10) 0.0126(16) 0.9446(3)
H6_8 H 0.6864 0.0715 0.9265
C13_8 C 0.6544(10) 0.0264(16) 0.9892(3)
O21_8 O 0.5415(9) 0.8825(15) 0.0876(3)
C15_8 C 0.5911(10) 0.9397(16) 0.0158(3)
H10_8 H 0.4703 0.7849 0.0173
C21_8 C 0.6053(12) 0.9574(20) 0.0644(3)
P1_6 P 0.7771(2) 0.7737(4) 0.79695(8)
O1_6 O 0.8151(6) 0.8937(10) 0.8067(2)
O3_6 O 0.6647(6) 0.6953(11) 0.8151(2)
O5_6 O 0.7918(9) 0.7842(15) 0.5791(3)
C1_6 C 0.7647(8) 0.7548(14) 0.7393(3)
C2_6 C 0.6900(10) 0.6541(16) 0.7221(3)
H1_6 H 0.6469 0.5952 0.7402
C3_6 C 0.6789(10) 0.6403(16) 0.6775(3)
H2_6 H 0.6285 0.5723 0.6660
C4_6 C 0.7422(10) 0.7270(16) 0.6509(3)
C5_6 C 0.8177(10) 0.8242(16) 0.6677(3)
H3_6 H 0.8630 0.8818 0.6494
C6_6 C 0.8291(9) 0.8396(16) 0.7120(3)
H4_6 H 0.8806 0.9077 0.7232
C7_6 C 0.7280(12) 0.7093(20) 0.6023(3)
P3_8 P 0.5562(2) 0.8930(4) 0.86972(8)
O7_8 O 0.5182(6) 0.7730(10) 0.8600(2)
O9_6 O 0.4739(6) 0.9230(10) 0.8533(2)
O13_6 O 0.6686(6) 0.9714(11) 0.8516(2)
C9_8 C 0.5686(8) 0.9119(14) 0.9274(3)
C17_8 C 0.5156(10) 0.8425(16) 0.9990(3)
C19_8 C 0.5042(9) 0.8271(16) 0.9547(3)
H12_8 H 0.4527 0.7590 0.9435
O21_9 O 0.1175(15) 0.6590(12) 0.0876(3)
C15_9 C 0.0603(16) 0.6514(13) 0.0158(3)
H10_9 H 0.2151 0.6854 0.0173
C21_9 C 0.0426(20) 0.6479(16) 0.0644(3)
P3_9 P 0.1070(4) 0.6632(3) 0.86972(8)
O7_9 O 0.2270(10) 0.7452(8) 0.8600(2)
C9_9 C 0.0881(14) 0.6567(11) 0.9274(3)
C17_9 C 0.1575(16) 0.6731(13) 0.9990(3)
C19_9 C 0.1729(16) 0.6771(13) 0.9547(3)
H12_9 H 0.2410 0.6937 0.9435
H8_9 H 0.9056 0.6104 0.0007
C11_9 C 0.9874(16) 0.6307(13) 0.9446(3)
H6_9 H 0.9285 0.6149 0.9265
C13_9 C 0.9736(16) 0.6280(13) 0.9892(3)
O22 O 0.3333 0.6667 0.8020(6)
O22_2 O -0.0000 0.0000 0.1353(6)
O22_3 O -0.0000 1.0000 0.1353(6)
H13 H 0.0708042 1.00003 0.135333
H14 H 0.0570723 0.990253 0.120292
O22_4 O 1.0000 0.0000 0.1353(6)
H13_2 H 0.999967 0.0707708 0.135333
H15 H 0.990286 0.0570389 0.120292
O22_5 O 1.0000 1.0000 0.1353(6)
O22_6 O 0.6666 0.3334 0.4687(6)
O22_7 O 0.6667 0.3333 0.1980(6)
O22_8 O 0.0000 -0.0000 0.8647(6)
O22_9 O 0.0000 1.0000 0.8647(6)
H13_3 H 3.33333e-05 0.929229 0.864667
H15_2 H 0.00971395 0.942961 0.879708
O22_10 O 1.0000 -0.0000 0.8647(6)
H13_4 H 0.929196 -3.33333e-05 0.864667
H14_2 H 0.942928 0.00974728 0.879708
O22_11 O 1.0000 1.0000 0.8647(6)
O22_12 O 0.3334 0.6666 0.5313(6)
O23 O 0.467(5) 0.797(3) 0.1847(12)
O23_2 O 0.203(3) 0.670(6) 0.1847(12)
O23_3 O 0.330(6) 0.533(5) 0.1847(12)
O23_4 O 0.134(5) 0.130(3) 0.5180(12)
O23_5 O 0.870(3) 0.003(6) 0.5180(12)
H16 H 0.869667 0.0741708 0.518033
H18 H 0.936453 0.013114 0.502992
H17 H 0.80288 0.946328 0.502992
H17_2 H 0.0536723 0.856553 0.502992
O23_6 O 0.997(6) 0.866(5) 0.5180(12)
H16_2 H 0.925829 0.795496 0.518033
H18_2 H 0.986886 0.923339 0.502992
O23_7 O 0.800(5) 0.464(3) 0.8514(12)
O23_8 O 0.536(3) 0.337(6) 0.8514(12)
O23_9 O 0.663(6) 0.200(5) 0.8514(12)
O23_10 O 0.533(5) 0.203(3) 0.8153(12)
O23_11 O 0.797(3) 0.330(6) 0.8153(12)
O23_12 O 0.670(6) 0.467(5) 0.8153(12)
O23_13 O 0.866(5) 0.870(3) 0.4820(12)
H17_3 H 0.19712 0.0536723 0.497008
O23_14 O 0.130(3) 0.997(6) 0.4820(12)
H16_3 H 0.130333 0.925829 0.481967
H18_3 H 0.0635471 0.986886 0.497008
O23_15 O 0.003(6) 0.134(5) 0.4820(12)
H16_4 H 0.0741708 0.204504 0.481967
H18_4 H 0.013114 0.0766611 0.497008
H17_4 H 0.946328 0.143447 0.497008
O23_16 O 0.200(5) 0.536(3) 0.1486(12)
O23_17 O 0.464(3) 0.663(6) 0.1486(12)
O23_18 O 0.337(6) 0.800(5) 0.1486(12)
loop_
_geom_bond_atom_site_label_1
_geom_bond_atom_site_label_2
_geom_bond_site_symmetry_1
_geom_bond_site_symmetry_2
Zn9 O16 1_555 1_555
O9 P3 1_555 1_555
O16 C21 1_555 1_555
O21 C21 1_555 1_555
C9 P3 1_555 1_555
C11 C9 1_555 1_555
H5 C10 1_555 1_555
H6 C11 1_555 1_555
C12 C10 1_555 1_555
C13 C11 1_555 1_555
H8 C13 1_555 1_555
C15 C13 1_555 1_555
C21 C15 1_555 1_555
Zn7 O15 1_555 1_555
Zn1 O1 1_555 1_555
P1 O1 1_555 1_555
O2 P1 1_555 1_555
O3 P1 1_555 1_555
C1 P1 1_555 1_555
C2 C1 1_555 1_555
H1 C2 1_555 1_555
C3 C2 1_555 1_555
C6 C1 1_555 1_555
H4 C6 1_555 1_555
Zn2 O6 1_555 1_555
Zn3 O3 1_555 1_555
Zn4 O2 1_555 1_555
Zn6 O12 1_555 1_555
P2 O6 1_555 1_555
O7 Zn3 1_555 1_555
O8 Zn1 1_555 1_555
O10 Zn2 1_555 1_555
O11 Zn3 1_555 1_555
O12 P2 1_555 1_555
O13 Zn1 1_555 1_555
O14 Zn2 1_555 1_555
O17 Zn1 1_555 1_555
O18 Zn2 1_555 1_555
O19 Zn3 1_555 1_555
C8 P2 1_555 1_555
H10 C17 1_555 1_555
C18 C8 1_555 1_555
H11 C18 1_555 1_555
H12 C19 1_555 1_555
C5 C6 1_555 1_555
P2 O8 1_555 1_555
C16 C18 1_555 1_555
C17 C19 1_555 1_555
O4 C7 1_555 1_555
O5 C7 1_555 1_555
C7 C4 1_555 1_555
Zn5 O4 1_555 1_555
O20 C20 1_555 1_555
C20 C14 1_555 1_555
Zn4 O1_2 1_555 1_555
P1_2 O1_2 1_555 1_555
O10 P1_2 1_555 1_555
O3_2 P1_2 1_555 1_555
C1_2 P1_2 1_555 1_555
C6_2 C1_2 1_555 1_555
H4_2 C6_2 1_555 1_555
Zn8 O3_2 1_555 1_555
Zn9_2 O16_2 1_555 1_555
P3_2 O7_2 1_555 1_555
O7_2 Zn8 1_555 1_555
O9_2 P3_2 1_555 1_555
O13_2 Zn4 1_555 1_555
O16_2 C21_2 1_555 1_555
O17_2 Zn4 1_555 1_555
O19_2 Zn8 1_555 1_555
O21_2 C21_2 1_555 1_555
C9_2 P3_2 1_555 1_555
C11_2 C9_2 1_555 1_555
H6_2 C11_2 1_555 1_555
C13_2 C11_2 1_555 1_555
H8_2 C13_2 1_555 1_555
C15_2 C13_2 1_555 1_555
C17_2 C15_2 1_555 1_555
H10_2 C17_2 1_555 1_555
C19_2 C9_2 1_555 1_555
H12_2 C19_2 1_555 1_555
C21_2 C15_2 1_555 1_555
C5_2 C6_2 1_555 1_555
P3_2 O13_2 1_555 1_555
C17_2 C19_2 1_555 1_555
O5_2 C7_2 1_555 1_555
C7_2 C4_2 1_555 1_555
H1_2 C2_2 1_555 1_555
C3_2 C2_2 1_555 1_555
Zn5_2 O4_2 1_555 1_555
O7_3 Zn6 1_555 1_555
O19_3 Zn6 1_555 1_555
H10_3 C17_3 1_555 1_555
H12_3 C19_3 1_555 1_555
C17_3 C19_3 1_555 1_555
Zn9_3 O16_3 1_555 1_555
O11 P3_3 1_555 1_555
O16_3 C21_3 1_555 1_555
O21_3 C21_3 1_555 1_555
C9_3 P3_3 1_555 1_555
C11_3 C9_3 1_555 1_555
H6_3 C11_3 1_555 1_555
C13_3 C11_3 1_555 1_555
H8_3 C13_3 1_555 1_555
C15_3 C13_3 1_555 1_555
C21_3 C15_3 1_555 1_555
Zn3_2 O3_3 1_555 1_555
Zn8_2 O9_3 1_555 1_555
P3_4 O7_4 1_555 1_555
O7_4 Zn3_2 1_555 1_555
O9_3 P3_4 1_555 1_555
O11_2 Zn3_2 1_555 1_555
O19_4 Zn3_2 1_555 1_555
O21_4 C21_4 1_555 1_555
C9_4 P3_4 1_555 1_555
C11_4 C9_4 1_555 1_555
C13_4 C11_4 1_555 1_555
C15_4 C13_4 1_555 1_555
C17_4 C15_4 1_555 1_555
H10_4 C17_4 1_555 1_555
C19_4 C9_4 1_555 1_555
H12_4 C19_4 1_555 1_555
C21_4 C15_4 1_555 1_555
C17_4 C19_4 1_555 1_555
Zn9_3 O1_3 1_555 1_555
P1_3 O1_3 1_555 1_555
O2_2 P1_3 1_555 1_555
O5_3 C7_3 1_555 1_555
C1_3 P1_3 1_555 1_555
C2_3 C1_3 1_555 1_555
C3_3 C2_3 1_555 1_555
C4_3 C3_3 1_555 1_555
C5_3 C4_3 1_555 1_555
H3_3 C5_3 1_555 1_555
C6_3 C1_3 1_555 1_555
H4_3 C6_3 1_555 1_555
C7_3 C4_3 1_555 1_555
Zn9_2 O6_2 1_555 1_555
Zn9 O2_2 1_555 1_555
Zn6_2 O12_2 1_555 1_555
Zn9_4 O16_4 1_555 1_555
P2_2 O6_2 1_555 1_555
O8_2 Zn9_3 1_555 1_555
O10_2 Zn9_2 1_555 1_555
O12_2 P2_2 1_555 1_555
O13_3 Zn9_3 1_555 1_555
O14_2 Zn9_2 1_555 1_555
O19 C20_2 1_555 1_555
O20_2 C20_2 1_555 1_555
C8_2 P2_2 1_555 1_555
C10_2 C8_2 1_555 1_555
H5_2 C10_2 1_555 1_555
C12_2 C10_2 1_555 1_555
H7_2 C12_2 1_555 1_555
C14_2 C12_2 1_555 1_555
C16_2 C14_2 1_555 1_555
H9_2 C16_2 1_555 1_555
C18_2 C8_2 1_555 1_555
H11_2 C18_2 1_555 1_555
C20_2 C14_2 1_555 1_555
C5_3 C6_3 1_555 1_555
P2_2 O8_2 1_555 1_555
C16_2 C18_2 1_555 1_555
Zn9 O1_4 1_555 1_555
P1_4 O1_4 1_555 1_555
O10_2 P1_4 1_555 1_555
O5_4 C7_4 1_555 1_555
C1_4 P1_4 1_555 1_555
C2_4 C1_4 1_555 1_555
C3_4 C2_4 1_555 1_555
C4_4 C3_4 1_555 1_555
C5_4 C4_4 1_555 1_555
H3_4 C5_4 1_555 1_555
C6_4 C1_4 1_555 1_555
H4_4 C6_4 1_555 1_555
C7_4 C4_4 1_555 1_555
Zn9_5 O16_5 1_555 1_555
O13_4 Zn9 1_555 1_555
C5_4 C6_4 1_555 1_555
Zn8_2 O3_4 1_555 1_555
Zn6_2 O9_4 1_555 1_555
P3_5 O7_5 1_555 1_555
O7_5 Zn8_2 1_555 1_555
O9_4 P3_5 1_555 1_555
O19_5 Zn8_2 1_555 1_555
O21_5 C21_5 1_555 1_555
C9_5 P3_5 1_555 1_555
C11_5 C9_5 1_555 1_555
C13_5 C11_5 1_555 1_555
C15_5 C13_5 1_555 1_555
C17_5 C15_5 1_555 1_555
H10_5 C17_5 1_555 1_555
C19_5 C9_5 1_555 1_555
H12_5 C19_5 1_555 1_555
C21_5 C15_5 1_555 1_555
C17_5 C19_5 1_555 1_555
Zn9_6 O16_6 1_555 1_555
P3_6 O7_6 1_555 1_555
O7_6 Zn6_2 1_555 1_555
O11_2 P3_6 1_555 1_555
O16_6 C21_6 1_555 1_555
O19_6 Zn6_2 1_555 1_555
O21_6 C21_6 1_555 1_555
C9_6 P3_6 1_555 1_555
C11_6 C9_6 1_555 1_555
H6_6 C11_6 1_555 1_555
C13_6 C11_6 1_555 1_555
H8_6 C13_6 1_555 1_555
C15_6 C13_6 1_555 1_555
C17_6 C15_6 1_555 1_555
H10_6 C17_6 1_555 1_555
C19_6 C9_6 1_555 1_555
H12_6 C19_6 1_555 1_555
C21_6 C15_6 1_555 1_555
P3_6 O14_2 1_555 1_555
C17_6 C19_6 1_555 1_555
O17_2 C21_7 1_555 1_555
O21_7 C21_7 1_555 1_555
C21_7 C15_7 1_555 1_555
Zn9_6 O1_5 1_555 1_555
H3_5 C5_5 1_555 1_555
H4_5 C6_5 1_555 1_555
Zn7 O3_5 1_555 1_555
Zn5 O9_5 1_555 1_555
P3_7 O7_7 1_555 1_555
O7_7 Zn7 1_555 1_555
O8_3 Zn9_6 1_555 1_555
O9_5 P3_7 1_555 1_555
O11_3 Zn7 1_555 1_555
O13_5 Zn9_6 1_555 1_555
O19_4 C20_3 1_555 1_555
O20_3 C20_3 1_555 1_555
C8_3 P2_3 1_555 1_555
C9_7 P3_7 1_555 1_555
C10_3 C8_3 1_555 1_555
C11_7 C9_7 1_555 1_555
H5_3 C10_3 1_555 1_555
H6_7 C11_7 1_555 1_555
C12_3 C10_3 1_555 1_555
C13_7 C11_7 1_555 1_555
H7_3 C12_3 1_555 1_555
C14_3 C12_3 1_555 1_555
C19_7 C9_7 1_555 1_555
H12_7 C19_7 1_555 1_555
C20_3 C14_3 1_555 1_555
C5_5 C6_5 1_555 1_555
P2_3 O8_3 1_555 1_555
P3_7 O13_5 1_555 1_555
C17_7 C19_7 1_555 1_555
Zn9_5 O6_3 1_555 1_555
Zn5_2 O12_3 1_555 1_555
O14_3 Zn9_5 1_555 1_555
H9_3 C16_3 1_555 1_555
H11_3 C18_3 1_555 1_555
C16_3 C18_3 1_555 1_555
O2_3 P1_5 1_555 1_555
O19_5 C7_5 1_555 1_555
O5_5 C7_5 1_555 1_555
C1_5 P1_5 1_555 1_555
C2_5 C1_5 1_555 1_555
H1_5 C2_5 1_555 1_555
C3_5 C2_5 1_555 1_555
H2_5 C3_5 1_555 1_555
C4_5 C3_5 1_555 1_555
C7_5 C4_5 1_555 1_555
H6_8 C11_8 1_555 1_555
C13_8 C11_8 1_555 1_555
O21_8 C21_8 1_555 1_555
C21_8 C15_8 1_555 1_555
Zn9_4 O1_6 1_555 1_555
P1_6 O1_6 1_555 1_555
O10_3 P1_6 1_555 1_555
O3_6 P1_6 1_555 1_555
O19_6 C7_6 1_555 1_555
O5_6 C7_6 1_555 1_555
C1_6 P1_6 1_555 1_555
C2_6 C1_6 1_555 1_555
H1_6 C2_6 1_555 1_555
C3_6 C2_6 1_555 1_555
H2_6 C3_6 1_555 1_555
C4_6 C3_6 1_555 1_555
C5_6 C4_6 1_555 1_555
H3_6 C5_6 1_555 1_555
C6_6 C1_6 1_555 1_555
H4_6 C6_6 1_555 1_555
C7_6 C4_6 1_555 1_555
Zn5 O3_6 1_555 1_555
Zn5_2 O9_6 1_555 1_555
P3_8 O7_8 1_555 1_555
O7_8 Zn5 1_555 1_555
O9_6 P3_8 1_555 1_555
O13_6 Zn9_4 1_555 1_555
C9_8 P3_8 1_555 1_555
C19_8 C9_8 1_555 1_555
H12_8 C19_8 1_555 1_555
C5_6 C6_6 1_555 1_555
P3_8 O13_6 1_555 1_555
C17_8 C19_8 1_555 1_555
O21_9 C21_9 1_555 1_555
C21_9 C15_9 1_555 1_555
P3_9 O7_9 1_555 1_555
O7_9 Zn5_2 1_555 1_555
O11_3 P3_9 1_555 1_555
C9_9 P3_9 1_555 1_555
C19_9 C9_9 1_555 1_555
H12_9 C19_9 1_555 1_555
P3_9 O14_3 1_555 1_555
C17_9 C19_9 1_555 1_555
H6_9 C11_9 1_555 1_555
C13_9 C11_9 1_555 1_555
O22_3 H13 1_555 1_555
O22_3 H14 1_555 1_555
O22_4 H13_2 1_555 1_555
O22_4 H15 1_555 1_555
O22_9 H13_3 1_555 1_555
O22_9 H15_2 1_555 1_555
O22_10 H13_4 1_555 1_555
O22_10 H14_2 1_555 1_555
O23_5 H16 1_555 1_555
O23_5 H18 1_555 1_555
O23_6 H16_2 1_555 1_555
O23_6 H18_2 1_555 1_555
O23_14 H16_3 1_555 1_555
O23_14 H18_3 1_555 1_555
O23_15 H16_4 1_555 1_555
O23_15 H18_4 1_555 1_555

#END
