
###############################################################################
#
# This file contains modified crystal structure data generated from the
# MOF subset of the Cambridge Structural Database (CSD) v543 
# hosted by the Cambridge Crystallographic Data Centre (CCDC).
#
# This work is licensed under the Creative Commons
# Attribution-NonCommercial-ShareAlike 4.0 International License.
# To view a copy of this license, visit
# http://creativecommons.org/licenses/by-nc-sa/4.0/
# or send a letter to
# Creative Commons, PO Box 1866, Mountain View, CA 94042, USA.
#
# CIF created using the CSD Python API on 29 September 2022
# The structure has been converted into the P1 space group
# The structure has a 3D framework
# The original CSD entry XOKHIQ is in the orthorhombic crystal system
# The original CSD entry XOKHIQ is in a Sohncke space group
# The framework has been calculated to contain at least 10.0% void space
# The void calculation uses a probe of radius 1.32A, grid spacing 0.4
#
###############################################################################

data_XOKHIQ
_chemical_formula_moiety         '(C1664 H1600 Cd32 Fe32 N128 O202)n'
_symmetry_cell_setting           triclinic
_symmetry_space_group_name_H-M   'P 1'
_symmetry_Int_Tables_number      1
_space_group_name_Hall           'P 1'
loop_
_symmetry_equiv_pos_site_id
_symmetry_equiv_pos_as_xyz
1 x,y,z
_cell_length_a                   19.2468(5)
_cell_length_b                   54.9054(13)
_cell_length_c                   64.1439(16)
_cell_angle_alpha                90
_cell_angle_beta                 90
_cell_angle_gamma                90
_cell_volume                     67784.3
loop_
_atom_site_label
_atom_site_type_symbol
_atom_site_fract_x
_atom_site_fract_y
_atom_site_fract_z
O8 O 0.0686(4) 0.04713(13) 0.87303(13)
C45 C 0.0187(13) 0.1134(3) 0.7844(3)
H48 H 0.0543 0.1016 0.7817
H49 H 0.0389 0.1274 0.7911
H53 H 0.0358 0.0843 0.8165
H55 H 0.0157 0.1097 0.8259
H73 H 0.0019 0.1771 0.7746
H74 H 0.0297 0.1835 0.7523
H88 H 0.0435 0.0900 0.8807
C83 C 0.0054(5) 0.04600(16) 0.86999(14)
Cd6 Cd 0.09860(4) 0.00692(2) 0.86819(2)
O3 O -0.0000 0.8671(3) 0.0000
Fe5 Fe 0.08459(16) 0.86542(4) 0.01090(3)
O3_2 O -0.0000 0.8671(3) 1.0000
C20 C 0.0055(11) 0.8239(3) 0.9171(2)
H22 H 0.0512 0.8218 0.9232
H23 H 0.0104 0.8236 0.9020
H25 H 0.0047 0.8612 0.9196
H26 H 0.0129 0.8455 0.9540
O30 O 0.0247(4) 0.97365(12) 0.86548(11)
O19 O 0.1481(8) 0.14560(16) 0.01074(14)
N9 N 0.1548(6) 0.25734(16) 0.08448(17)
C119 C 0.1576(10) 0.2790(2) 0.0741(2)
H109 H 0.1592 0.2934 0.0817
C120 C 0.1580(12) 0.2796(2) 0.0531(2)
H110 H 0.1591 0.2945 0.0462
C121 C 0.1569(11) 0.2579(2) 0.0418(2)
H111 H 0.1597 0.2582 0.0273
C122 C 0.1513(11) 0.2355(2) 0.0525(2)
C123 C 0.1518(9) 0.2364(2) 0.0741(2)
H112 H 0.1501 0.2219 0.0815
C124 C 0.2112(9) 0.1458(2) 0.0515(2)
C125 C 0.1525(10) 0.1262(2) 0.0545(2)
H113 H 0.1312 0.1227 0.0413
H114 H 0.1180 0.1323 0.0640
H115 H 0.1724 0.1115 0.0601
C126 C 0.2687(9) 0.1358(3) 0.0379(2)
H116 H 0.2838 0.1204 0.0433
H117 H 0.3070 0.1470 0.0378
H118 H 0.2517 0.1337 0.0239
C127 C 0.2418(9) 0.1520(2) 0.07281(19)
H119 H 0.2076 0.1604 0.0810
H120 H 0.2817 0.1624 0.0710
H121 H 0.2555 0.1373 0.0798
C128 C 0.1770(9) 0.1686(2) 0.0406(2)
C129 C 0.1758(9) 0.1914(2) 0.0502(2)
H122 H 0.1929 0.1925 0.0637
C130 C 0.1509(10) 0.2123(2) 0.0410(2)
C131 C 0.1260(10) 0.2108(2) 0.0210(2)
H123 H 0.1097 0.2247 0.0144
C132 C 0.1251(10) 0.1880(2) 0.0104(2)
C133 C 0.1498(12) 0.1665(2) 0.0205(2)
C148 C 0.1778(13) 0.0595(3) 0.0048(2)
C149 C 0.1202(13) 0.0672(3) 0.0211(2)
H138 H 0.1285 0.0836 0.0257
H139 H 0.1218 0.0564 0.0329
H140 H 0.0752 0.0662 0.0147
C150 C 0.2422(18) 0.0746(3) 0.0065(3)
H142 H 0.2733 0.0673 0.0164
H143 H 0.2302 0.0907 0.0111
C151 C 0.1960(15) 0.0329(3) 0.0097(3)
H144 H 0.1620 0.0224 0.0034
H145 H 0.1962 0.0305 0.0245
H146 H 0.2411 0.0292 0.0041
Cd12 Cd 0.15066(4) 0.25597(2) 0.12037(2)
O27 O -0.0000 0.1329(3) 0.0000
Cd2 Cd 0.65066(4) 0.24403(2) 0.87963(2)
Fe2 Fe 0.83253(18) 0.11650(4) 0.73906(3)
O4 O 0.8938(7) 0.10320(15) 0.75954(14)
O5 O 0.8845(7) 0.14685(15) 0.73887(13)
O6 O 0.7500 0.1229(2) 0.7500
O7 O 0.9753(4) 0.02635(12) 0.86548(11)
O9 O 0.6757(5) 0.20298(15) 0.87550(15)
O10 O 0.7725(4) 0.22343(13) 0.88157(14)
O11 O 0.5400(5) 0.22796(17) 0.8770(2)
O12 O 0.5460(5) 0.26798(18) 0.8812(2)
O14 O 0.7963(3) 0.01627(12) 0.86714(13)
N6 N 0.8174(8) 0.08048(19) 0.72887(15)
N7 N 0.8342(8) 0.12039(19) 0.70618(16)
N8 N 0.8425(9) 0.2493(2) 0.6559(2)
C36 C 0.9136(10) 0.0019(3) 0.9469(2)
H40 H 0.9181 0.0031 0.9613
C37 C 0.9187(8) 0.0231(2) 0.9344(2)
H41 H 0.9242 0.0384 0.9405
C38 C 0.9152(8) 0.0207(2) 0.91299(18)
H42 H 0.9194 0.0344 0.9046
C42 C 0.9045(8) 0.01235(19) 0.79970(16)
C43 C 0.9042(7) 0.01147(17) 0.82121(16)
H46 H 0.9038 0.0262 0.8284
C44 C 0.9634(10) 0.1022(2) 0.7988(2)
H47 H 0.9975 0.1183 0.7715
C46 C 0.9045(13) 0.1219(3) 0.8033(3)
H50 H 0.9249 0.1359 0.8098
H51 H 0.8703 0.1150 0.8125
H52 H 0.8827 0.1265 0.7905
C47 C 0.9981(14) 0.0953(3) 0.8192(3)
H54 H 0.9649 0.0876 0.8282
C48 C 0.9302(8) 0.0797(2) 0.78865(17)
C49 C 0.9319(8) 0.0575(2) 0.79746(18)
H56 H 0.9545 0.0559 0.8102
C50 C 0.9018(9) 0.0362(2) 0.78876(17)
C51 C 0.8698(9) 0.0385(2) 0.76962(19)
H57 H 0.8516 0.0248 0.7631
C52 C 0.8643(10) 0.0614(2) 0.75967(19)
C53 C 0.8961(9) 0.0820(2) 0.76883(18)
C54 C 0.8312(10) 0.0612(2) 0.73969(19)
H58 H 0.8188 0.0462 0.7341
C55 C 0.7859(9) 0.0800(2) 0.70792(17)
H59 H 0.7387 0.0866 0.7089
C56 C 0.7817(8) 0.0537(2) 0.69807(19)
H60 H 0.8273 0.0461 0.6981
H61 H 0.7503 0.0436 0.7061
C57 C 0.7555(8) 0.0563(2) 0.67582(17)
H62 H 0.7084 0.0626 0.6761
H63 H 0.7541 0.0404 0.6693
C58 C 0.8004(8) 0.0731(2) 0.66262(17)
H64 H 0.7820 0.0739 0.6486
H65 H 0.8473 0.0667 0.6619
C59 C 0.8021(9) 0.0987(2) 0.67193(18)
H66 H 0.7558 0.1056 0.6718
H67 H 0.8322 0.1090 0.6637
C60 C 0.8296(9) 0.0972(2) 0.69466(17)
H68 H 0.8766 0.0904 0.6940
C61 C 0.8380(10) 0.1405(2) 0.6965(2)
H69 H 0.8321 0.1403 0.6821
C62 C 0.8512(11) 0.1643(2) 0.7067(2)
C63 C 0.8443(13) 0.1847(2) 0.6944(2)
H70 H 0.8262 0.1832 0.6810
C64 C 0.8637(13) 0.2071(3) 0.7017(2)
C65 C 0.8927(13) 0.2096(3) 0.7217(2)
H71 H 0.9069 0.2248 0.7264
C66 C 0.9002(13) 0.1888(3) 0.7349(2)
C67 C 0.8761(12) 0.1654(2) 0.7274(2)
C68 C 0.9302(13) 0.1920(3) 0.7563(2)
C69 C 0.9910(13) 0.1771(3) 0.7600(3)
H72 H 0.9818 0.1607 0.7555
C70 C 0.8846(12) 0.1827(3) 0.7726(3)
H75 H 0.8412 0.1912 0.7723
H76 H 0.9061 0.1849 0.7860
H77 H 0.8764 0.1656 0.7704
C71 C 0.9490(12) 0.2182(3) 0.7612(3)
H78 H 0.9797 0.2243 0.7506
H79 H 0.9715 0.2190 0.7745
H80 H 0.9075 0.2279 0.7615
C72 C 0.8534(11) 0.2296(2) 0.6681(2)
H81 H 0.8637 0.2149 0.6617
C73 C 0.8501(14) 0.2300(2) 0.6896(3)
C74 C 0.8329(17) 0.2520(4) 0.6989(3)
H82 H 0.8288 0.2524 0.7134
C75 C 0.8207(19) 0.2744(4) 0.6873(3)
H83 H 0.8109 0.2893 0.6935
C76 C 0.8258(13) 0.2705(3) 0.6658(3)
H84 H 0.8168 0.2839 0.6573
C77 C 0.9645(5) 0.06890(16) 0.87140(13)
C78 C 0.8940(6) 0.06941(18) 0.86704(19)
H85 H 0.8704 0.0550 0.8643
C79 C 0.8585(6) 0.09142(18) 0.8668(2)
H86 H 0.8119 0.0916 0.8630
C80 C 0.8912(6) 0.11323(17) 0.87202(14)
C81 C 0.9622(6) 0.11240(19) 0.87667(18)
H87 H 0.9860 0.1267 0.8797
C82 C 0.9969(6) 0.09037(19) 0.87683(18)
C84 C 0.8530(6) 0.13683(17) 0.87226(14)
C85 C 0.7805(6) 0.13721(19) 0.87135(17)
H89 H 0.7562 0.1227 0.8698
C86 C 0.7447(6) 0.15890(19) 0.87271(17)
H90 H 0.6964 0.1590 0.8722
C87 C 0.7809(5) 0.18046(18) 0.87490(16)
C88 C 0.8521(6) 0.18039(19) 0.8756(2)
H91 H 0.8764 0.1949 0.8773
C89 C 0.8877(6) 0.15844(19) 0.8736(2)
H92 H 0.9360 0.1585 0.8733
C90 C 0.7420(7) 0.20424(19) 0.87746(17)
C93 C 0.6500(4) 0.01991(13) 0.8668(2)
H94 H 0.6757 0.0341 0.8652
C94 C 0.5779(4) 0.02091(13) 0.8670(2)
H95 H 0.5553 0.0358 0.8655
C98 C 0.4340(3) 0.24978(19) 0.8775(2)
C99 C 0.3974(5) 0.22804(16) 0.8758(3)
H97 H 0.4212 0.2134 0.8747
C100 C 0.3252(5) 0.22824(16) 0.8760(3)
H98 H 0.3007 0.2137 0.8749
C101 C 0.2896(3) 0.2502(2) 0.8777(3)
C102 C 0.3262(4) 0.27191(17) 0.8793(3)
H99 H 0.3023 0.2866 0.8805
C103 C 0.3984(4) 0.27171(16) 0.8792(2)
H100 H 0.4229 0.2863 0.8803
C104 C 0.5097(8) 0.2489(3) 0.8784(3)
C105 C 0.0660(3) 0.25022(19) 0.8775(2)
C106 C 0.1026(5) 0.27196(16) 0.8758(3)
H101 H 0.0788 0.2866 0.8747
C107 C 0.1748(5) 0.27176(16) 0.8760(3)
H102 H 0.1993 0.2863 0.8749
C108 C 0.2104(3) 0.2498(2) 0.8777(3)
C109 C 0.1738(4) 0.22809(17) 0.8793(3)
H103 H 0.1977 0.2134 0.8805
C110 C 0.1016(4) 0.22829(16) 0.8792(2)
H104 H 0.0771 0.2137 0.8803
O17 O 0.2108(5) 0.02381(17) 0.8698(2)
C112 C 0.3547(4) 0.02357(13) 0.8714(2)
H105 H 0.3322 0.0385 0.8729
C113 C 0.3163(3) 0.00233(15) 0.86901(19)
C116 C 0.4606(3) 0.00034(17) 0.8694(2)
C117 C 0.4269(4) 0.02258(14) 0.8716(2)
H108 H 0.4526 0.0368 0.8732
C118 C 0.2377(6) 0.0033(2) 0.8686(2)
Fe3 Fe 0.08459(16) 0.13458(4) 0.98910(3)
O20 O 0.1313(7) 0.10412(16) 0.98722(13)
N10 N 0.0929(8) 0.16966(19) 0.97703(17)
N11 N 0.0627(7) 0.12988(19) 0.95702(15)
N12 N 0.0942(5) 0.00164(17) 0.90406(13)
N13 N 0.0954(5) 0.00922(15) 0.83247(13)
C134 C 0.1023(10) 0.1884(2) 0.9890(2)
H124 H 0.0936 0.2036 0.9832
C135 C 0.0815(10) 0.1729(2) 0.95462(19)
H125 H 0.1263 0.1707 0.9476
C136 C 0.0518(11) 0.1975(3) 0.9477(2)
H126 H 0.0066 0.2000 0.9540
H127 H 0.0822 0.2105 0.9522
C137 C 0.0452(11) 0.1980(3) 0.9245(2)
H128 H 0.0906 0.1960 0.9182
H129 H 0.0262 0.2135 0.9201
C139 C 0.0253(10) 0.1520(3) 0.92393(19)
H132 H 0.0705 0.1497 0.9175
C140 C 0.0330(9) 0.1518(2) 0.94785(19)
C141 C 0.0638(8) 0.1098(3) 0.94727(19)
H135 H 0.0469 0.1097 0.9337
C142 C 0.0901(10) 0.0862(2) 0.95590(18)
C143 C 0.0830(9) 0.0656(3) 0.94317(19)
H136 H 0.0634 0.0671 0.9300
C144 C 0.1060(8) 0.0424(2) 0.95039(19)
C145 C 0.1353(9) 0.0416(2) 0.97038(19)
H137 H 0.1493 0.0265 0.9754
C146 C 0.1450(11) 0.0614(2) 0.9831(2)
C147 C 0.1235(9) 0.0844(2) 0.97590(18)
H141 H 0.2644 0.0755 0.9932
C152 C 0.1031(7) 0.0212(2) 0.91590(17)
H147 H 0.1131 0.0360 0.9095
C153 C 0.0980(8) 0.0203(2) 0.93787(19)
C157 C 0.0975(9) 0.0302(2) 0.82231(18)
H151 H 0.0972 0.0446 0.8299
C158 C 0.1002(11) 0.0313(2) 0.80039(19)
H152 H 0.1031 0.0462 0.7935
C159 C 0.0983(11) 0.0097(2) 0.78939(18)
H153 H 0.0990 0.0100 0.7749
Cd8 Cd 0.84934(4) 0.24403(2) 0.62037(2)
Cd11 Cd 0.84934(4) 0.25597(2) 0.87963(2)
Fe6 Fe 0.66747(18) 0.11650(4) 0.76094(3)
O27_2 O -0.0000 0.1329(3) 1.0000
O34 O 0.7275(4) 0.27657(13) 0.88157(14)
N18 N 0.6548(6) 0.24266(16) 0.91552(17)
N20 N 0.6575(9) 0.2493(2) 0.8441(2)
O1 O 0.8519(8) 0.85440(16) 0.01074(14)
O3_3 O 1.0000 0.8671(3) 0.0000
N1 N 0.8452(6) 0.74266(16) 0.08448(17)
C1 C 0.8424(10) 0.7210(2) 0.0741(2)
H1 H 0.8408 0.7066 0.0817
C2 C 0.8420(12) 0.7204(2) 0.0531(2)
H2 H 0.8409 0.7055 0.0462
C3 C 0.8431(11) 0.7421(2) 0.0418(2)
H3 H 0.8403 0.7418 0.0273
C4 C 0.8487(11) 0.7645(2) 0.0525(2)
C5 C 0.8482(9) 0.7636(2) 0.0741(2)
H4 H 0.8499 0.7781 0.0815
C6 C 0.7888(9) 0.8542(2) 0.0515(2)
C7 C 0.8475(10) 0.8738(2) 0.0545(2)
H5 H 0.8688 0.8773 0.0413
H6 H 0.8820 0.8677 0.0640
H7 H 0.8276 0.8885 0.0601
C8 C 0.7313(9) 0.8642(3) 0.0379(2)
H8 H 0.7162 0.8796 0.0433
H9 H 0.6930 0.8530 0.0378
H10 H 0.7483 0.8663 0.0239
C9 C 0.7582(9) 0.8480(2) 0.07281(19)
H11 H 0.7924 0.8396 0.0810
H12 H 0.7183 0.8376 0.0710
H13 H 0.7445 0.8627 0.0798
C10 C 0.8230(9) 0.8314(2) 0.0406(2)
C11 C 0.8242(9) 0.8086(2) 0.0502(2)
H14 H 0.8071 0.8075 0.0637
C12 C 0.8491(10) 0.7877(2) 0.0410(2)
C13 C 0.8740(10) 0.7892(2) 0.0210(2)
H15 H 0.8903 0.7753 0.0144
C14 C 0.8749(10) 0.8120(2) 0.0104(2)
C15 C 0.8502(12) 0.8335(2) 0.0205(2)
C30 C 0.8222(13) 0.9405(3) 0.0048(2)
C31 C 0.8798(13) 0.9328(3) 0.0211(2)
H30 H 0.8715 0.9164 0.0257
H31 H 0.8782 0.9436 0.0329
H32 H 0.9248 0.9338 0.0147
C32 C 0.7578(18) 0.9254(3) 0.0065(3)
H34 H 0.7267 0.9327 0.0164
H35 H 0.7698 0.9093 0.0111
C33 C 0.8040(15) 0.9671(3) 0.0097(3)
H36 H 0.8380 0.9776 0.0034
H37 H 0.8038 0.9695 0.0245
H38 H 0.7589 0.9708 0.0041
Cd13 Cd 0.84934(4) 0.74403(2) 0.12037(2)
Cd1 Cd 0.90140(4) 0.99308(2) 0.86819(2)
Fe1 Fe 0.91541(16) 0.86542(4) 0.98910(3)
O2 O 0.8687(7) 0.89588(16) 0.98722(13)
O3_4 O 1.0000 0.8671(3) 1.0000
O13 O 0.7892(5) 0.97619(17) 0.8698(2)
N2 N 0.9071(8) 0.83034(19) 0.97703(17)
N3 N 0.9373(7) 0.87012(19) 0.95702(15)
N4 N 0.9058(5) 0.99836(17) 0.90406(13)
N5 N 0.9046(5) 0.99078(15) 0.83247(13)
C16 C 0.8977(10) 0.8116(2) 0.9890(2)
H16 H 0.9064 0.7964 0.9832
C17 C 0.9185(10) 0.8271(2) 0.95462(19)
H17 H 0.8737 0.8293 0.9476
C18 C 0.9482(11) 0.8025(3) 0.9477(2)
H18 H 0.9934 0.8000 0.9540
H19 H 0.9178 0.7895 0.9522
C19 C 0.9548(11) 0.8020(3) 0.9245(2)
H20 H 0.9094 0.8040 0.9182
H21 H 0.9738 0.7865 0.9201
C21 C 0.9747(10) 0.8480(3) 0.92393(19)
H24 H 0.9295 0.8503 0.9175
C22 C 0.9670(9) 0.8482(2) 0.94785(19)
C23 C 0.9362(8) 0.8902(3) 0.94727(19)
H27 H 0.9531 0.8903 0.9337
C24 C 0.9099(10) 0.9138(2) 0.95590(18)
C25 C 0.9170(9) 0.9344(3) 0.94317(19)
H28 H 0.9366 0.9329 0.9300
C26 C 0.8940(8) 0.9576(2) 0.95039(19)
C27 C 0.8647(9) 0.9584(2) 0.97038(19)
H29 H 0.8507 0.9735 0.9754
C28 C 0.8550(11) 0.9386(2) 0.9831(2)
C29 C 0.8765(9) 0.9156(2) 0.97590(18)
H33 H 0.7356 0.9245 0.9932
C34 C 0.8969(7) 0.9788(2) 0.91590(17)
H39 H 0.8869 0.9640 0.9095
C35 C 0.9020(8) 0.9797(2) 0.93787(19)
C39 C 0.9025(9) 0.9698(2) 0.82231(18)
H43 H 0.9028 0.9554 0.8299
C40 C 0.8998(11) 0.9687(2) 0.80039(19)
H44 H 0.8969 0.9538 0.7935
C41 C 0.9017(11) 0.9903(2) 0.78939(18)
H45 H 0.9010 0.9900 0.7749
C91 C 0.6453(4) 0.97643(13) 0.8714(2)
H93 H 0.6678 0.9615 0.8729
C92 C 0.6837(3) 0.99767(15) 0.86901(19)
C95 C 0.5394(3) 0.99966(17) 0.8694(2)
C96 C 0.5731(4) 0.97742(14) 0.8716(2)
H96 H 0.5474 0.9632 0.8732
C97 C 0.7623(6) 0.9967(2) 0.8686(2)
O18 O 0.2037(3) 0.98373(12) 0.86714(13)
C114 C 0.3500(4) 0.98009(13) 0.8668(2)
H106 H 0.3243 0.9659 0.8652
C115 C 0.4221(4) 0.97909(13) 0.8670(2)
H107 H 0.4447 0.9642 0.8655
Cd4 Cd 0.34934(4) 0.75597(2) 0.87963(2)
Fe4 Fe 0.16747(18) 0.88350(4) 0.73906(3)
O21 O 0.1062(7) 0.89680(15) 0.75954(14)
O22 O 0.1155(7) 0.85315(15) 0.73887(13)
O25 O 0.3243(5) 0.79702(15) 0.87550(15)
O26 O 0.2275(4) 0.77657(13) 0.88157(14)
N14 N 0.1826(8) 0.91952(19) 0.72887(15)
N15 N 0.1658(8) 0.87961(19) 0.70618(16)
N16 N 0.1575(9) 0.7507(2) 0.6559(2)
C154 C 0.0864(10) 0.9981(3) 0.9469(2)
H148 H 0.0819 0.9969 0.9613
C155 C 0.0813(8) 0.9769(2) 0.9344(2)
H149 H 0.0758 0.9616 0.9405
C156 C 0.0848(8) 0.9793(2) 0.91299(18)
H150 H 0.0806 0.9656 0.9046
C160 C 0.0955(8) 0.98765(19) 0.79970(16)
C161 C 0.0958(7) 0.98853(17) 0.82121(16)
H154 H 0.0962 0.9738 0.8284
C162 C 0.0366(10) 0.8978(2) 0.7988(2)
H155 H 0.0025 0.8817 0.7715
C164 C 0.0955(13) 0.8781(3) 0.8033(3)
H158 H 0.0751 0.8641 0.8098
H159 H 0.1297 0.8850 0.8125
H160 H 0.1173 0.8735 0.7905
C165 C 0.0019(14) 0.9047(3) 0.8192(3)
H162 H 0.0351 0.9124 0.8282
C166 C 0.0698(8) 0.9203(2) 0.78865(17)
C167 C 0.0681(8) 0.9425(2) 0.79746(18)
H164 H 0.0455 0.9441 0.8102
C168 C 0.0982(9) 0.9638(2) 0.78876(17)
C169 C 0.1302(9) 0.9615(2) 0.76962(19)
H165 H 0.1484 0.9752 0.7631
C170 C 0.1357(10) 0.9386(2) 0.75967(19)
C171 C 0.1039(9) 0.9180(2) 0.76883(18)
C172 C 0.1688(10) 0.9388(2) 0.73969(19)
H166 H 0.1812 0.9538 0.7341
C173 C 0.2141(9) 0.9200(2) 0.70792(17)
H167 H 0.2613 0.9134 0.7089
C174 C 0.2183(8) 0.9463(2) 0.69807(19)
H168 H 0.1727 0.9539 0.6981
H169 H 0.2497 0.9564 0.7061
C175 C 0.2445(8) 0.9437(2) 0.67582(17)
H170 H 0.2916 0.9374 0.6761
H171 H 0.2459 0.9596 0.6693
C176 C 0.1996(8) 0.9269(2) 0.66262(17)
H172 H 0.2180 0.9261 0.6486
H173 H 0.1527 0.9333 0.6619
C177 C 0.1979(9) 0.9013(2) 0.67193(18)
H174 H 0.2442 0.8944 0.6718
H175 H 0.1678 0.8910 0.6637
C178 C 0.1704(9) 0.9028(2) 0.69466(17)
H176 H 0.1234 0.9096 0.6940
C179 C 0.1620(10) 0.8595(2) 0.6965(2)
H177 H 0.1679 0.8597 0.6821
C180 C 0.1488(11) 0.8357(2) 0.7067(2)
C181 C 0.1557(13) 0.8153(2) 0.6944(2)
H178 H 0.1738 0.8168 0.6810
C182 C 0.1363(13) 0.7929(3) 0.7017(2)
C183 C 0.1073(13) 0.7904(3) 0.7217(2)
H179 H 0.0931 0.7752 0.7264
C184 C 0.0998(13) 0.8112(3) 0.7349(2)
C185 C 0.1239(12) 0.8346(2) 0.7274(2)
C186 C 0.0698(13) 0.8080(3) 0.7563(2)
C187 C 0.0090(13) 0.8229(3) 0.7600(3)
H180 H 0.0182 0.8393 0.7555
C188 C 0.1154(12) 0.8173(3) 0.7726(3)
H183 H 0.1588 0.8088 0.7723
H184 H 0.0939 0.8151 0.7860
H185 H 0.1236 0.8344 0.7704
C189 C 0.0510(12) 0.7818(3) 0.7612(3)
H186 H 0.0203 0.7757 0.7506
H187 H 0.0285 0.7810 0.7745
H188 H 0.0925 0.7721 0.7615
C190 C 0.1466(11) 0.7704(2) 0.6681(2)
H189 H 0.1363 0.7851 0.6617
C191 C 0.1499(14) 0.7700(2) 0.6896(3)
C192 C 0.1671(17) 0.7480(4) 0.6989(3)
H190 H 0.1712 0.7476 0.7134
C193 C 0.1793(19) 0.7256(4) 0.6873(3)
H191 H 0.1891 0.7107 0.6935
C194 C 0.1742(13) 0.7295(3) 0.6658(3)
H192 H 0.1832 0.7161 0.6573
C195 C 0.0355(5) 0.93110(16) 0.87140(13)
C196 C 0.1060(6) 0.93059(18) 0.86704(19)
H193 H 0.1296 0.9450 0.8643
C197 C 0.1415(6) 0.90858(18) 0.8668(2)
H194 H 0.1881 0.9084 0.8630
C198 C 0.1088(6) 0.88677(17) 0.87202(14)
C199 C 0.0378(6) 0.88760(19) 0.87667(18)
H195 H 0.0140 0.8733 0.8797
C200 C 0.0031(6) 0.90963(19) 0.87683(18)
C202 C 0.1470(6) 0.86317(17) 0.87226(14)
C203 C 0.2195(6) 0.86279(19) 0.87135(17)
H197 H 0.2438 0.8773 0.8698
C204 C 0.2553(6) 0.84110(19) 0.87271(17)
H198 H 0.3036 0.8410 0.8722
C205 C 0.2191(5) 0.81954(18) 0.87490(16)
C206 C 0.1479(6) 0.81961(19) 0.8756(2)
H199 H 0.1236 0.8051 0.8773
C207 C 0.1123(6) 0.84156(19) 0.8736(2)
H200 H 0.0640 0.8415 0.8733
C208 C 0.2580(7) 0.79576(19) 0.87746(17)
Cd7 Cd 0.15066(4) 0.75597(2) 0.62037(2)
Cd9 Cd 0.15066(4) 0.74403(2) 0.87963(2)
O28 O 0.2500 0.8771(2) 0.7500
O32 O 0.9314(4) 0.95287(13) 0.87303(13)
O33 O 0.2725(4) 0.72343(13) 0.88157(14)
O35 O 0.4600(5) 0.77204(17) 0.8770(2)
O36 O 0.4540(5) 0.73202(18) 0.8812(2)
N17 N 0.3452(6) 0.75734(16) 0.91552(17)
N19 N 0.3425(9) 0.7507(2) 0.8441(2)
O27_3 O 1.0000 0.1329(3) 0.0000
O15 O 0.9600(5) 0.27204(17) 0.8770(2)
O16 O 0.9540(5) 0.23202(18) 0.8812(2)
C111 C 0.9903(8) 0.2511(3) 0.8784(3)
C138 C 0.9945(11) 0.1761(3) 0.9171(2)
H130 H 0.9488 0.1782 0.9232
H131 H 0.9896 0.1764 0.9020
H133 H 0.9953 0.1388 0.9196
H134 H 0.9871 0.1545 0.9540
O27_4 O 1.0000 0.1329(3) 1.0000
C163 C 0.9813(13) 0.8866(3) 0.7844(3)
H156 H 0.9457 0.8984 0.7817
H157 H 0.9611 0.8726 0.7911
H161 H 0.9642 0.9157 0.8165
H163 H 0.9843 0.8903 0.8259
H181 H 0.9981 0.8229 0.7746
H182 H 0.9703 0.8165 0.7523
H196 H 0.9565 0.9100 0.8807
C201 C 0.9946(5) 0.95400(16) 0.86999(14)
O15_2 O 0.0400(5) 0.72796(17) 0.8770(2)
O16_2 O 0.0460(5) 0.76798(18) 0.8812(2)
C111_2 C 0.0097(8) 0.7489(3) 0.8784(3)
C98_2 C 0.5660(3) 0.75022(19) 0.8775(2)
C99_2 C 0.6026(5) 0.77196(16) 0.8758(3)
H97_2 H 0.5788 0.7866 0.8747
C100_2 C 0.6748(5) 0.77176(16) 0.8760(3)
H98_2 H 0.6993 0.7863 0.8749
C101_2 C 0.7104(3) 0.7498(2) 0.8777(3)
C102_2 C 0.6738(4) 0.72809(17) 0.8793(3)
H99_2 H 0.6977 0.7134 0.8805
C103_2 C 0.6016(4) 0.72829(16) 0.8792(2)
H100_2 H 0.5771 0.7137 0.8803
C104_2 C 0.4903(8) 0.7511(3) 0.8784(3)
C105_2 C 0.9340(3) 0.74978(19) 0.8775(2)
C106_2 C 0.8974(5) 0.72804(16) 0.8758(3)
H101_2 H 0.9212 0.7134 0.8747
C107_2 C 0.8252(5) 0.72824(16) 0.8760(3)
H102_2 H 0.8007 0.7137 0.8749
C108_2 C 0.7896(3) 0.7502(2) 0.8777(3)
C109_2 C 0.8262(4) 0.77191(17) 0.8793(3)
H103_2 H 0.8023 0.7866 0.8805
C110_2 C 0.8984(4) 0.77171(16) 0.8792(2)
H104_2 H 0.9229 0.7863 0.8803
Fe6_2 Fe 0.33253(18) 0.88350(4) 0.76094(3)
Fe5_2 Fe 0.91541(16) 0.13458(4) 0.01090(3)
C20_2 C 0.0055(11) 0.1761(3) 0.0829(2)
H22_2 H 0.0512 0.1782 0.0768
H23_2 H 0.0104 0.1764 0.0980
H25_2 H 0.0047 0.1388 0.0804
H26_2 H 0.0129 0.1545 0.0460
O30_2 O 0.0247(4) 0.02635(12) 0.13452(11)
O8_2 O 0.0686(4) 0.95287(13) 0.12697(13)
C45_2 C 0.0187(13) 0.8866(3) 0.2156(3)
H48_2 H 0.0543 0.8984 0.2183
H49_2 H 0.0389 0.8726 0.2089
H53_2 H 0.0358 0.9157 0.1835
H55_2 H 0.0157 0.8903 0.1741
H73_2 H 0.0019 0.8229 0.2254
H74_2 H 0.0297 0.8165 0.2477
H88_2 H 0.0435 0.9100 0.1193
C83_2 C 0.0054(5) 0.95400(16) 0.13001(14)
Cd6_2 Cd 0.09860(4) 0.99308(2) 0.13181(2)
Cd1_2 Cd 0.90140(4) 0.00692(2) 0.13181(2)
O2_2 O 0.8687(7) 0.10412(16) 0.01278(13)
O13_2 O 0.7892(5) 0.02381(17) 0.1302(2)
N2_2 N 0.9071(8) 0.16966(19) 0.02297(17)
N3_2 N 0.9373(7) 0.12988(19) 0.04298(15)
N4_2 N 0.9058(5) 0.00164(17) 0.09594(13)
N5_2 N 0.9046(5) 0.00922(15) 0.16753(13)
C16_2 C 0.8977(10) 0.1884(2) 0.0110(2)
H16_2 H 0.9064 0.2036 0.0168
C17_2 C 0.9185(10) 0.1729(2) 0.04538(19)
H17_2 H 0.8737 0.1707 0.0524
C18_2 C 0.9482(11) 0.1975(3) 0.0523(2)
H18_2 H 0.9934 0.2000 0.0460
H19_2 H 0.9178 0.2105 0.0478
C19_2 C 0.9548(11) 0.1980(3) 0.0755(2)
H20_2 H 0.9094 0.1960 0.0818
H21_2 H 0.9738 0.2135 0.0799
C21_2 C 0.9747(10) 0.1520(3) 0.07607(19)
H24_2 H 0.9295 0.1497 0.0825
C22_2 C 0.9670(9) 0.1518(2) 0.05215(19)
C23_2 C 0.9362(8) 0.1098(3) 0.05273(19)
H27_2 H 0.9531 0.1097 0.0663
C24_2 C 0.9099(10) 0.0862(2) 0.04410(18)
C25_2 C 0.9170(9) 0.0656(3) 0.05683(19)
H28_2 H 0.9366 0.0671 0.0700
C26_2 C 0.8940(8) 0.0424(2) 0.04961(19)
C27_2 C 0.8647(9) 0.0416(2) 0.02962(19)
H29_2 H 0.8507 0.0265 0.0246
C28_2 C 0.8550(11) 0.0614(2) 0.0169(2)
C29_2 C 0.8765(9) 0.0844(2) 0.02410(18)
H33_2 H 0.7356 0.0755 0.0068
C34_2 C 0.8969(7) 0.0212(2) 0.08410(17)
H39_2 H 0.8869 0.0360 0.0905
C35_2 C 0.9020(8) 0.0203(2) 0.06213(19)
C39_2 C 0.9025(9) 0.0302(2) 0.17769(18)
H43_2 H 0.9028 0.0446 0.1701
C40_2 C 0.8998(11) 0.0313(2) 0.19961(19)
H44_2 H 0.8969 0.0462 0.2065
C41_2 C 0.9017(11) 0.0097(2) 0.21061(18)
H45_2 H 0.9010 0.0100 0.2251
C91_2 C 0.6453(4) 0.02357(13) 0.1286(2)
H93_2 H 0.6678 0.0385 0.1271
C92_2 C 0.6837(3) 0.00233(15) 0.13099(19)
C95_2 C 0.5394(3) 0.00034(17) 0.1306(2)
C96_2 C 0.5731(4) 0.02258(14) 0.1284(2)
H96_2 H 0.5474 0.0368 0.1268
C97_2 C 0.7623(6) 0.0033(2) 0.1314(2)
O18_2 O 0.2037(3) 0.01627(12) 0.13286(13)
C114_2 C 0.3500(4) 0.01991(13) 0.1332(2)
H106_2 H 0.3243 0.0341 0.1348
C115_2 C 0.4221(4) 0.02091(13) 0.1330(2)
H107_2 H 0.4447 0.0358 0.1345
Cd4_2 Cd 0.34934(4) 0.24403(2) 0.12037(2)
Fe4_2 Fe 0.16747(18) 0.11650(4) 0.26094(3)
O21_2 O 0.1062(7) 0.10320(15) 0.24046(14)
O22_2 O 0.1155(7) 0.14685(15) 0.26113(13)
O25_2 O 0.3243(5) 0.20298(15) 0.12450(15)
O26_2 O 0.2275(4) 0.22343(13) 0.11843(14)
N14_2 N 0.1826(8) 0.08048(19) 0.27113(15)
N15_2 N 0.1658(8) 0.12039(19) 0.29382(16)
N16_2 N 0.1575(9) 0.2493(2) 0.3441(2)
C154_2 C 0.0864(10) 0.0019(3) 0.0531(2)
H148_2 H 0.0819 0.0031 0.0387
C155_2 C 0.0813(8) 0.0231(2) 0.0656(2)
H149_2 H 0.0758 0.0384 0.0595
C156_2 C 0.0848(8) 0.0207(2) 0.08701(18)
H150_2 H 0.0806 0.0344 0.0954
C160_2 C 0.0955(8) 0.01235(19) 0.20030(16)
C161_2 C 0.0958(7) 0.01147(17) 0.17879(16)
H154_2 H 0.0962 0.0262 0.1716
C162_2 C 0.0366(10) 0.1022(2) 0.2012(2)
H155_2 H 0.0025 0.1183 0.2285
C164_2 C 0.0955(13) 0.1219(3) 0.1967(3)
H158_2 H 0.0751 0.1359 0.1902
H159_2 H 0.1297 0.1150 0.1875
H160_2 H 0.1173 0.1265 0.2095
C165_2 C 0.0019(14) 0.0953(3) 0.1808(3)
H162_2 H 0.0351 0.0876 0.1718
C166_2 C 0.0698(8) 0.0797(2) 0.21135(17)
C167_2 C 0.0681(8) 0.0575(2) 0.20254(18)
H164_2 H 0.0455 0.0559 0.1898
C168_2 C 0.0982(9) 0.0362(2) 0.21124(17)
C169_2 C 0.1302(9) 0.0385(2) 0.23038(19)
H165_2 H 0.1484 0.0248 0.2369
C170_2 C 0.1357(10) 0.0614(2) 0.24033(19)
C171_2 C 0.1039(9) 0.0820(2) 0.23117(18)
C172_2 C 0.1688(10) 0.0612(2) 0.26031(19)
H166_2 H 0.1812 0.0462 0.2659
C173_2 C 0.2141(9) 0.0800(2) 0.29208(17)
H167_2 H 0.2613 0.0866 0.2911
C174_2 C 0.2183(8) 0.0537(2) 0.30193(19)
H168_2 H 0.1727 0.0461 0.3019
H169_2 H 0.2497 0.0436 0.2939
C175_2 C 0.2445(8) 0.0563(2) 0.32418(17)
H170_2 H 0.2916 0.0626 0.3239
H171_2 H 0.2459 0.0404 0.3307
C176_2 C 0.1996(8) 0.0731(2) 0.33738(17)
H172_2 H 0.2180 0.0739 0.3514
H173_2 H 0.1527 0.0667 0.3381
C177_2 C 0.1979(9) 0.0987(2) 0.32807(18)
H174_2 H 0.2442 0.1056 0.3282
H175_2 H 0.1678 0.1090 0.3363
C178_2 C 0.1704(9) 0.0972(2) 0.30534(17)
H176_2 H 0.1234 0.0904 0.3060
C179_2 C 0.1620(10) 0.1405(2) 0.3035(2)
H177_2 H 0.1679 0.1403 0.3179
C180_2 C 0.1488(11) 0.1643(2) 0.2933(2)
C181_2 C 0.1557(13) 0.1847(2) 0.3056(2)
H178_2 H 0.1738 0.1832 0.3190
C182_2 C 0.1363(13) 0.2071(3) 0.2983(2)
C183_2 C 0.1073(13) 0.2096(3) 0.2783(2)
H179_2 H 0.0931 0.2248 0.2736
C184_2 C 0.0998(13) 0.1888(3) 0.2651(2)
C185_2 C 0.1239(12) 0.1654(2) 0.2726(2)
C186_2 C 0.0698(13) 0.1920(3) 0.2437(2)
C187_2 C 0.0090(13) 0.1771(3) 0.2400(3)
H180_2 H 0.0182 0.1607 0.2445
C188_2 C 0.1154(12) 0.1827(3) 0.2274(3)
H183_2 H 0.1588 0.1912 0.2277
H184_2 H 0.0939 0.1849 0.2140
H185_2 H 0.1236 0.1656 0.2296
C189_2 C 0.0510(12) 0.2182(3) 0.2388(3)
H186_2 H 0.0203 0.2243 0.2494
H187_2 H 0.0285 0.2190 0.2255
H188_2 H 0.0925 0.2279 0.2385
C190_2 C 0.1466(11) 0.2296(2) 0.3319(2)
H189_2 H 0.1363 0.2149 0.3383
C191_2 C 0.1499(14) 0.2300(2) 0.3104(3)
C192_2 C 0.1671(17) 0.2520(4) 0.3011(3)
H190_2 H 0.1712 0.2524 0.2866
C193_2 C 0.1793(19) 0.2744(4) 0.3127(3)
H191_2 H 0.1891 0.2893 0.3065
C194_2 C 0.1742(13) 0.2705(3) 0.3342(3)
H192_2 H 0.1832 0.2839 0.3427
C195_2 C 0.0355(5) 0.06890(16) 0.12860(13)
C196_2 C 0.1060(6) 0.06941(18) 0.13296(19)
H193_2 H 0.1296 0.0550 0.1357
C197_2 C 0.1415(6) 0.09142(18) 0.1332(2)
H194_2 H 0.1881 0.0916 0.1370
C198_2 C 0.1088(6) 0.11323(17) 0.12798(14)
C199_2 C 0.0378(6) 0.11240(19) 0.12333(18)
H195_2 H 0.0140 0.1267 0.1203
C200_2 C 0.0031(6) 0.09037(19) 0.12317(18)
C202_2 C 0.1470(6) 0.13683(17) 0.12774(14)
C203_2 C 0.2195(6) 0.13721(19) 0.12865(17)
H197_2 H 0.2438 0.1227 0.1302
C204_2 C 0.2553(6) 0.15890(19) 0.12729(17)
H198_2 H 0.3036 0.1590 0.1278
C205_2 C 0.2191(5) 0.18046(18) 0.12510(16)
C206_2 C 0.1479(6) 0.18039(19) 0.1244(2)
H199_2 H 0.1236 0.1949 0.1227
C207_2 C 0.1123(6) 0.15844(19) 0.1264(2)
H200_2 H 0.0640 0.1585 0.1267
C208_2 C 0.2580(7) 0.20424(19) 0.12254(17)
Cd7_2 Cd 0.15066(4) 0.24403(2) 0.37963(2)
O28_2 O 0.2500 0.1229(2) 0.2500
O32_2 O 0.9314(4) 0.04713(13) 0.12697(13)
O33_2 O 0.2725(4) 0.27657(13) 0.11843(14)
O35_2 O 0.4600(5) 0.22796(17) 0.1230(2)
O36_2 O 0.4540(5) 0.26798(18) 0.1188(2)
N17_2 N 0.3452(6) 0.24266(16) 0.08448(17)
N19_2 N 0.3425(9) 0.2493(2) 0.1559(2)
O1_2 O 0.8519(8) 0.14560(16) 0.98926(14)
N1_2 N 0.8452(6) 0.25734(16) 0.91552(17)
C1_2 C 0.8424(10) 0.2790(2) 0.9259(2)
H1_2 H 0.8408 0.2934 0.9183
C2_2 C 0.8420(12) 0.2796(2) 0.9469(2)
H2_2 H 0.8409 0.2945 0.9538
C3_2 C 0.8431(11) 0.2579(2) 0.9582(2)
H3_2 H 0.8403 0.2582 0.9727
C4_2 C 0.8487(11) 0.2355(2) 0.9475(2)
C5_2 C 0.8482(9) 0.2364(2) 0.9259(2)
H4_2 H 0.8499 0.2219 0.9185
C6_2 C 0.7888(9) 0.1458(2) 0.9485(2)
C7_2 C 0.8475(10) 0.1262(2) 0.9455(2)
H5_2 H 0.8688 0.1227 0.9587
H6_2 H 0.8820 0.1323 0.9360
H7_2 H 0.8276 0.1115 0.9399
C8_2 C 0.7313(9) 0.1358(3) 0.9621(2)
H8_2 H 0.7162 0.1204 0.9567
H9_2 H 0.6930 0.1470 0.9622
H10_2 H 0.7483 0.1337 0.9761
C9_2 C 0.7582(9) 0.1520(2) 0.92719(19)
H11_2 H 0.7924 0.1604 0.9190
H12_2 H 0.7183 0.1624 0.9290
H13_2 H 0.7445 0.1373 0.9202
C10_2 C 0.8230(9) 0.1686(2) 0.9594(2)
C11_2 C 0.8242(9) 0.1914(2) 0.9498(2)
H14_2 H 0.8071 0.1925 0.9363
C12_2 C 0.8491(10) 0.2123(2) 0.9590(2)
C13_2 C 0.8740(10) 0.2108(2) 0.9790(2)
H15_2 H 0.8903 0.2247 0.9856
C14_2 C 0.8749(10) 0.1880(2) 0.9896(2)
C15_2 C 0.8502(12) 0.1665(2) 0.9795(2)
C30_2 C 0.8222(13) 0.0595(3) 0.9952(2)
C31_2 C 0.8798(13) 0.0672(3) 0.9789(2)
H30_2 H 0.8715 0.0836 0.9743
H31_2 H 0.8782 0.0564 0.9671
H32_2 H 0.9248 0.0662 0.9853
C32_2 C 0.7578(18) 0.0746(3) 0.9935(3)
H34_2 H 0.7267 0.0673 0.9836
H35_2 H 0.7698 0.0907 0.9889
C33_2 C 0.8040(15) 0.0329(3) 0.9903(3)
H36_2 H 0.8380 0.0224 0.9966
H37_2 H 0.8038 0.0305 0.9755
H38_2 H 0.7589 0.0292 0.9959
Cd2_2 Cd 0.65066(4) 0.75597(2) 0.12037(2)
Fe2_2 Fe 0.83253(18) 0.88350(4) 0.26094(3)
O4_2 O 0.8938(7) 0.89680(15) 0.24046(14)
O5_2 O 0.8845(7) 0.85315(15) 0.26113(13)
O6_2 O 0.7500 0.8771(2) 0.2500
O7_2 O 0.9753(4) 0.97365(12) 0.13452(11)
O9_2 O 0.6757(5) 0.79702(15) 0.12450(15)
O10_2 O 0.7725(4) 0.77657(13) 0.11843(14)
O11_2 O 0.5400(5) 0.77204(17) 0.1230(2)
O12_2 O 0.5460(5) 0.73202(18) 0.1188(2)
O14_2 O 0.7963(3) 0.98373(12) 0.13286(13)
N6_2 N 0.8174(8) 0.91952(19) 0.27113(15)
N7_2 N 0.8342(8) 0.87961(19) 0.29382(16)
N8_2 N 0.8425(9) 0.7507(2) 0.3441(2)
C36_2 C 0.9136(10) 0.9981(3) 0.0531(2)
H40_2 H 0.9181 0.9969 0.0387
C37_2 C 0.9187(8) 0.9769(2) 0.0656(2)
H41_2 H 0.9242 0.9616 0.0595
C38_2 C 0.9152(8) 0.9793(2) 0.08701(18)
H42_2 H 0.9194 0.9656 0.0954
C42_2 C 0.9045(8) 0.98765(19) 0.20030(16)
C43_2 C 0.9042(7) 0.98853(17) 0.17879(16)
H46_2 H 0.9038 0.9738 0.1716
C44_2 C 0.9634(10) 0.8978(2) 0.2012(2)
H47_2 H 0.9975 0.8817 0.2285
C46_2 C 0.9045(13) 0.8781(3) 0.1967(3)
H50_2 H 0.9249 0.8641 0.1902
H51_2 H 0.8703 0.8850 0.1875
H52_2 H 0.8827 0.8735 0.2095
C47_2 C 0.9981(14) 0.9047(3) 0.1808(3)
H54_2 H 0.9649 0.9124 0.1718
C48_2 C 0.9302(8) 0.9203(2) 0.21135(17)
C49_2 C 0.9319(8) 0.9425(2) 0.20254(18)
H56_2 H 0.9545 0.9441 0.1898
C50_2 C 0.9018(9) 0.9638(2) 0.21124(17)
C51_2 C 0.8698(9) 0.9615(2) 0.23038(19)
H57_2 H 0.8516 0.9752 0.2369
C52_2 C 0.8643(10) 0.9386(2) 0.24033(19)
C53_2 C 0.8961(9) 0.9180(2) 0.23117(18)
C54_2 C 0.8312(10) 0.9388(2) 0.26031(19)
H58_2 H 0.8188 0.9538 0.2659
C55_2 C 0.7859(9) 0.9200(2) 0.29208(17)
H59_2 H 0.7387 0.9134 0.2911
C56_2 C 0.7817(8) 0.9463(2) 0.30193(19)
H60_2 H 0.8273 0.9539 0.3019
H61_2 H 0.7503 0.9564 0.2939
C57_2 C 0.7555(8) 0.9437(2) 0.32418(17)
H62_2 H 0.7084 0.9374 0.3239
H63_2 H 0.7541 0.9596 0.3307
C58_2 C 0.8004(8) 0.9269(2) 0.33738(17)
H64_2 H 0.7820 0.9261 0.3514
H65_2 H 0.8473 0.9333 0.3381
C59_2 C 0.8021(9) 0.9013(2) 0.32807(18)
H66_2 H 0.7558 0.8944 0.3282
H67_2 H 0.8322 0.8910 0.3363
C60_2 C 0.8296(9) 0.9028(2) 0.30534(17)
H68_2 H 0.8766 0.9096 0.3060
C61_2 C 0.8380(10) 0.8595(2) 0.3035(2)
H69_2 H 0.8321 0.8597 0.3179
C62_2 C 0.8512(11) 0.8357(2) 0.2933(2)
C63_2 C 0.8443(13) 0.8153(2) 0.3056(2)
H70_2 H 0.8262 0.8168 0.3190
C64_2 C 0.8637(13) 0.7929(3) 0.2983(2)
C65_2 C 0.8927(13) 0.7904(3) 0.2783(2)
H71_2 H 0.9069 0.7752 0.2736
C66_2 C 0.9002(13) 0.8112(3) 0.2651(2)
C67_2 C 0.8761(12) 0.8346(2) 0.2726(2)
C68_2 C 0.9302(13) 0.8080(3) 0.2437(2)
C69_2 C 0.9910(13) 0.8229(3) 0.2400(3)
H72_2 H 0.9818 0.8393 0.2445
C70_2 C 0.8846(12) 0.8173(3) 0.2274(3)
H75_2 H 0.8412 0.8088 0.2277
H76_2 H 0.9061 0.8151 0.2140
H77_2 H 0.8764 0.8344 0.2296
C71_2 C 0.9490(12) 0.7818(3) 0.2388(3)
H78_2 H 0.9797 0.7757 0.2494
H79_2 H 0.9715 0.7810 0.2255
H80_2 H 0.9075 0.7721 0.2385
C72_2 C 0.8534(11) 0.7704(2) 0.3319(2)
H81_2 H 0.8637 0.7851 0.3383
C73_2 C 0.8501(14) 0.7700(2) 0.3104(3)
C74_2 C 0.8329(17) 0.7480(4) 0.3011(3)
H82_2 H 0.8288 0.7476 0.2866
C75_2 C 0.8207(19) 0.7256(4) 0.3127(3)
H83_2 H 0.8109 0.7107 0.3065
C76_2 C 0.8258(13) 0.7295(3) 0.3342(3)
H84_2 H 0.8168 0.7161 0.3427
C77_2 C 0.9645(5) 0.93110(16) 0.12860(13)
C78_2 C 0.8940(6) 0.93059(18) 0.13296(19)
H85_2 H 0.8704 0.9450 0.1357
C79_2 C 0.8585(6) 0.90858(18) 0.1332(2)
H86_2 H 0.8119 0.9084 0.1370
C80_2 C 0.8912(6) 0.88677(17) 0.12798(14)
C81_2 C 0.9622(6) 0.88760(19) 0.12333(18)
H87_2 H 0.9860 0.8733 0.1203
C82_2 C 0.9969(6) 0.90963(19) 0.12317(18)
C84_2 C 0.8530(6) 0.86317(17) 0.12774(14)
C85_2 C 0.7805(6) 0.86279(19) 0.12865(17)
H89_2 H 0.7562 0.8773 0.1302
C86_2 C 0.7447(6) 0.84110(19) 0.12729(17)
H90_2 H 0.6964 0.8410 0.1278
C87_2 C 0.7809(5) 0.81954(18) 0.12510(16)
C88_2 C 0.8521(6) 0.81961(19) 0.1244(2)
H91_2 H 0.8764 0.8051 0.1227
C89_2 C 0.8877(6) 0.84156(19) 0.1264(2)
H92_2 H 0.9360 0.8415 0.1267
C90_2 C 0.7420(7) 0.79576(19) 0.12254(17)
C93_2 C 0.6500(4) 0.98009(13) 0.1332(2)
H94_2 H 0.6757 0.9659 0.1348
C94_2 C 0.5779(4) 0.97909(13) 0.1330(2)
H95_2 H 0.5553 0.9642 0.1345
C98_3 C 0.4340(3) 0.75022(19) 0.1225(2)
C99_3 C 0.3974(5) 0.77196(16) 0.1242(3)
H97_3 H 0.4212 0.7866 0.1253
C100_3 C 0.3252(5) 0.77176(16) 0.1240(3)
H98_3 H 0.3007 0.7863 0.1251
C101_3 C 0.2896(3) 0.7498(2) 0.1223(3)
C102_3 C 0.3262(4) 0.72809(17) 0.1207(3)
H99_3 H 0.3023 0.7134 0.1195
C103_3 C 0.3984(4) 0.72829(16) 0.1208(2)
H100_3 H 0.4229 0.7137 0.1197
C104_3 C 0.5097(8) 0.7511(3) 0.1216(3)
C105_3 C 0.0660(3) 0.74978(19) 0.1225(2)
C106_3 C 0.1026(5) 0.72804(16) 0.1242(3)
H101_3 H 0.0788 0.7134 0.1253
C107_3 C 0.1748(5) 0.72824(16) 0.1240(3)
H102_3 H 0.1993 0.7137 0.1251
C108_3 C 0.2104(3) 0.7502(2) 0.1223(3)
C109_3 C 0.1738(4) 0.77191(17) 0.1207(3)
H103_3 H 0.1977 0.7866 0.1195
C110_3 C 0.1016(4) 0.77171(16) 0.1208(2)
H104_3 H 0.0771 0.7863 0.1197
O17_2 O 0.2108(5) 0.97619(17) 0.1302(2)
C112_2 C 0.3547(4) 0.97643(13) 0.1286(2)
H105_2 H 0.3322 0.9615 0.1271
C113_2 C 0.3163(3) 0.99767(15) 0.13099(19)
C116_2 C 0.4606(3) 0.99966(17) 0.1306(2)
C117_2 C 0.4269(4) 0.97742(14) 0.1284(2)
H108_2 H 0.4526 0.9632 0.1268
C118_2 C 0.2377(6) 0.9967(2) 0.1314(2)
O20_2 O 0.1313(7) 0.89588(16) 0.01278(13)
N10_2 N 0.0929(8) 0.83034(19) 0.02297(17)
N11_2 N 0.0627(7) 0.87012(19) 0.04298(15)
N12_2 N 0.0942(5) 0.99836(17) 0.09594(13)
N13_2 N 0.0954(5) 0.99078(15) 0.16753(13)
C134_2 C 0.1023(10) 0.8116(2) 0.0110(2)
H124_2 H 0.0936 0.7964 0.0168
C135_2 C 0.0815(10) 0.8271(2) 0.04538(19)
H125_2 H 0.1263 0.8293 0.0524
C136_2 C 0.0518(11) 0.8025(3) 0.0523(2)
H126_2 H 0.0066 0.8000 0.0460
H127_2 H 0.0822 0.7895 0.0478
C137_2 C 0.0452(11) 0.8020(3) 0.0755(2)
H128_2 H 0.0906 0.8040 0.0818
H129_2 H 0.0262 0.7865 0.0799
C139_2 C 0.0253(10) 0.8480(3) 0.07607(19)
H132_2 H 0.0705 0.8503 0.0825
C140_2 C 0.0330(9) 0.8482(2) 0.05215(19)
C141_2 C 0.0638(8) 0.8902(3) 0.05273(19)
H135_2 H 0.0469 0.8903 0.0663
C142_2 C 0.0901(10) 0.9138(2) 0.04410(18)
C143_2 C 0.0830(9) 0.9344(3) 0.05683(19)
H136_2 H 0.0634 0.9329 0.0700
C144_2 C 0.1060(8) 0.9576(2) 0.04961(19)
C145_2 C 0.1353(9) 0.9584(2) 0.02962(19)
H137_2 H 0.1493 0.9735 0.0246
C146_2 C 0.1450(11) 0.9386(2) 0.0169(2)
C147_2 C 0.1235(9) 0.9156(2) 0.02410(18)
H141_2 H 0.2644 0.9245 0.0068
C152_2 C 0.1031(7) 0.9788(2) 0.08410(17)
H147_2 H 0.1131 0.9640 0.0905
C153_2 C 0.0980(8) 0.9797(2) 0.06213(19)
C157_2 C 0.0975(9) 0.9698(2) 0.17769(18)
H151_2 H 0.0972 0.9554 0.1701
C158_2 C 0.1002(11) 0.9687(2) 0.19961(19)
H152_2 H 0.1031 0.9538 0.2065
C159_2 C 0.0983(11) 0.9903(2) 0.21061(18)
H153_2 H 0.0990 0.9900 0.2251
Cd8_2 Cd 0.84934(4) 0.75597(2) 0.37963(2)
Fe6_3 Fe 0.66747(18) 0.88350(4) 0.23906(3)
O34_2 O 0.7275(4) 0.72343(13) 0.11843(14)
N18_2 N 0.6548(6) 0.75734(16) 0.08448(17)
N20_2 N 0.6575(9) 0.7507(2) 0.1559(2)
O19_2 O 0.1481(8) 0.85440(16) 0.98926(14)
N9_2 N 0.1548(6) 0.74266(16) 0.91552(17)
C119_2 C 0.1576(10) 0.7210(2) 0.9259(2)
H109_2 H 0.1592 0.7066 0.9183
C120_2 C 0.1580(12) 0.7204(2) 0.9469(2)
H110_2 H 0.1591 0.7055 0.9538
C121_2 C 0.1569(11) 0.7421(2) 0.9582(2)
H111_2 H 0.1597 0.7418 0.9727
C122_2 C 0.1513(11) 0.7645(2) 0.9475(2)
C123_2 C 0.1518(9) 0.7636(2) 0.9259(2)
H112_2 H 0.1501 0.7781 0.9185
C124_2 C 0.2112(9) 0.8542(2) 0.9485(2)
C125_2 C 0.1525(10) 0.8738(2) 0.9455(2)
H113_2 H 0.1312 0.8773 0.9587
H114_2 H 0.1180 0.8677 0.9360
H115_2 H 0.1724 0.8885 0.9399
C126_2 C 0.2687(9) 0.8642(3) 0.9621(2)
H116_2 H 0.2838 0.8796 0.9567
H117_2 H 0.3070 0.8530 0.9622
H118_2 H 0.2517 0.8663 0.9761
C127_2 C 0.2418(9) 0.8480(2) 0.92719(19)
H119_2 H 0.2076 0.8396 0.9190
H120_2 H 0.2817 0.8376 0.9290
H121_2 H 0.2555 0.8627 0.9202
C128_2 C 0.1770(9) 0.8314(2) 0.9594(2)
C129_2 C 0.1758(9) 0.8086(2) 0.9498(2)
H122_2 H 0.1929 0.8075 0.9363
C130_2 C 0.1509(10) 0.7877(2) 0.9590(2)
C131_2 C 0.1260(10) 0.7892(2) 0.9790(2)
H123_2 H 0.1097 0.7753 0.9856
C132_2 C 0.1251(10) 0.8120(2) 0.9896(2)
C133_2 C 0.1498(12) 0.8335(2) 0.9795(2)
C148_2 C 0.1778(13) 0.9405(3) 0.9952(2)
C149_2 C 0.1202(13) 0.9328(3) 0.9789(2)
H138_2 H 0.1285 0.9164 0.9743
H139_2 H 0.1218 0.9436 0.9671
H140_2 H 0.0752 0.9338 0.9853
C150_2 C 0.2422(18) 0.9254(3) 0.9935(3)
H142_2 H 0.2733 0.9327 0.9836
H143_2 H 0.2302 0.9093 0.9889
C151_2 C 0.1960(15) 0.9671(3) 0.9903(3)
H144_2 H 0.1620 0.9776 0.9966
H145_2 H 0.1962 0.9695 0.9755
H146_2 H 0.2411 0.9708 0.9959
C163_2 C 0.9813(13) 0.1134(3) 0.2156(3)
H156_2 H 0.9457 0.1016 0.2183
H157_2 H 0.9611 0.1274 0.2089
H161_2 H 0.9642 0.0843 0.1835
H163_2 H 0.9843 0.1097 0.1741
H181_2 H 0.9981 0.1771 0.2254
H182_2 H 0.9703 0.1835 0.2477
H196_2 H 0.9565 0.0900 0.1193
C201_2 C 0.9946(5) 0.04600(16) 0.13001(14)
O15_3 O 0.9600(5) 0.72796(17) 0.1230(2)
O16_3 O 0.9540(5) 0.76798(18) 0.1188(2)
C111_3 C 0.9903(8) 0.7489(3) 0.1216(3)
C138_2 C 0.9945(11) 0.8239(3) 0.0829(2)
H130_2 H 0.9488 0.8218 0.0768
H131_2 H 0.9896 0.8236 0.0980
H133_2 H 0.9953 0.8612 0.0804
H134_2 H 0.9871 0.8455 0.0460
O15_4 O 0.0400(5) 0.27204(17) 0.1230(2)
O16_4 O 0.0460(5) 0.23202(18) 0.1188(2)
C111_4 C 0.0097(8) 0.2511(3) 0.1216(3)
C98_4 C 0.5660(3) 0.24978(19) 0.1225(2)
C99_4 C 0.6026(5) 0.22804(16) 0.1242(3)
H97_4 H 0.5788 0.2134 0.1253
C100_4 C 0.6748(5) 0.22824(16) 0.1240(3)
H98_4 H 0.6993 0.2137 0.1251
C101_4 C 0.7104(3) 0.2502(2) 0.1223(3)
C102_4 C 0.6738(4) 0.27191(17) 0.1207(3)
H99_4 H 0.6977 0.2866 0.1195
C103_4 C 0.6016(4) 0.27171(16) 0.1208(2)
H100_4 H 0.5771 0.2863 0.1197
C104_4 C 0.4903(8) 0.2489(3) 0.1216(3)
C105_4 C 0.9340(3) 0.25022(19) 0.1225(2)
C106_4 C 0.8974(5) 0.27196(16) 0.1242(3)
H101_4 H 0.9212 0.2866 0.1253
C107_4 C 0.8252(5) 0.27176(16) 0.1240(3)
H102_4 H 0.8007 0.2863 0.1251
C108_4 C 0.7896(3) 0.2498(2) 0.1223(3)
C109_4 C 0.8262(4) 0.22809(17) 0.1207(3)
H103_4 H 0.8023 0.2134 0.1195
C110_4 C 0.8984(4) 0.22829(16) 0.1208(2)
H104_4 H 0.9229 0.2137 0.1197
Fe6_4 Fe 0.33253(18) 0.11650(4) 0.23906(3)
O3_5 O 0.0000 0.3671(3) 0.5000
O8_3 O 0.0686(4) 0.54713(13) 0.37303(13)
C20_3 C 0.0055(11) 0.3239(3) 0.4171(2)
H22_3 H 0.0512 0.3218 0.4232
H23_3 H 0.0104 0.3236 0.4020
H25_3 H 0.0047 0.3612 0.4196
H26_3 H 0.0129 0.3455 0.4540
C45_3 C 0.0187(13) 0.6134(3) 0.2844(3)
H48_3 H 0.0543 0.6016 0.2817
H49_3 H 0.0389 0.6274 0.2911
H53_3 H 0.0358 0.5843 0.3165
H55_3 H 0.0157 0.6097 0.3259
H73_3 H 0.0019 0.6771 0.2746
H74_3 H 0.0297 0.6835 0.2523
H88_3 H 0.0435 0.5900 0.3807
C83_3 C 0.0054(5) 0.54600(16) 0.36999(14)
Cd6_3 Cd 0.09860(4) 0.50692(2) 0.36819(2)
Fe5_3 Fe 0.08459(16) 0.36542(4) 0.51090(3)
O30_3 O 0.0247(4) 0.47365(12) 0.36548(11)
Cd1_3 Cd 0.90140(4) 0.49308(2) 0.36819(2)
Cd2_3 Cd 0.65066(4) 0.74403(2) 0.37963(2)
Fe1_2 Fe 0.91541(16) 0.36542(4) 0.48910(3)
Fe2_3 Fe 0.83253(18) 0.61650(4) 0.23906(3)
O1_3 O 0.8519(8) 0.35440(16) 0.51074(14)
O2_3 O 0.8687(7) 0.39588(16) 0.48722(13)
O3_6 O 1.0000 0.3671(3) 0.5000
O4_3 O 0.8938(7) 0.60320(15) 0.25954(14)
O5_3 O 0.8845(7) 0.64685(15) 0.23887(13)
O6_3 O 0.7500 0.6229(2) 0.2500
O7_3 O 0.9753(4) 0.52635(12) 0.36548(11)
O9_3 O 0.6757(5) 0.70298(15) 0.37550(15)
O10_3 O 0.7725(4) 0.72343(13) 0.38157(14)
O11_3 O 0.5400(5) 0.72796(17) 0.3770(2)
O12_3 O 0.5460(5) 0.76798(18) 0.3812(2)
O13_3 O 0.7892(5) 0.47619(17) 0.3698(2)
O14_3 O 0.7963(3) 0.51627(12) 0.36714(13)
N1_3 N 0.8452(6) 0.24266(16) 0.58448(17)
N2_3 N 0.9071(8) 0.33034(19) 0.47703(17)
N3_3 N 0.9373(7) 0.37012(19) 0.45702(15)
N4_3 N 0.9058(5) 0.49836(17) 0.40406(13)
N5_3 N 0.9046(5) 0.49078(15) 0.33247(13)
N6_3 N 0.8174(8) 0.58048(19) 0.22887(15)
N7_3 N 0.8342(8) 0.62039(19) 0.20618(16)
N8_3 N 0.8425(9) 0.7493(2) 0.1559(2)
C1_3 C 0.8424(10) 0.2210(2) 0.5741(2)
H1_3 H 0.8408 0.2066 0.5817
C2_3 C 0.8420(12) 0.2204(2) 0.5531(2)
H2_3 H 0.8409 0.2055 0.5462
C3_3 C 0.8431(11) 0.2421(2) 0.5418(2)
H3_3 H 0.8403 0.2418 0.5273
C4_3 C 0.8487(11) 0.2645(2) 0.5525(2)
C5_3 C 0.8482(9) 0.2636(2) 0.5741(2)
H4_3 H 0.8499 0.2781 0.5815
C6_3 C 0.7888(9) 0.3542(2) 0.5515(2)
C7_3 C 0.8475(10) 0.3738(2) 0.5545(2)
H5_3 H 0.8688 0.3773 0.5413
H6_3 H 0.8820 0.3677 0.5640
H7_3 H 0.8276 0.3885 0.5601
C8_3 C 0.7313(9) 0.3642(3) 0.5379(2)
H8_3 H 0.7162 0.3796 0.5433
H9_3 H 0.6930 0.3530 0.5378
H10_3 H 0.7483 0.3663 0.5239
C9_3 C 0.7582(9) 0.3480(2) 0.57281(19)
H11_3 H 0.7924 0.3396 0.5810
H12_3 H 0.7183 0.3376 0.5710
H13_3 H 0.7445 0.3627 0.5798
C10_3 C 0.8230(9) 0.3314(2) 0.5406(2)
C11_3 C 0.8242(9) 0.3086(2) 0.5502(2)
H14_3 H 0.8071 0.3075 0.5637
C12_3 C 0.8491(10) 0.2877(2) 0.5410(2)
C13_3 C 0.8740(10) 0.2892(2) 0.5210(2)
H15_3 H 0.8903 0.2753 0.5144
C14_3 C 0.8749(10) 0.3120(2) 0.5104(2)
C15_3 C 0.8502(12) 0.3335(2) 0.5205(2)
C16_3 C 0.8977(10) 0.3116(2) 0.4890(2)
H16_3 H 0.9064 0.2964 0.4832
C17_3 C 0.9185(10) 0.3271(2) 0.45462(19)
H17_3 H 0.8737 0.3293 0.4476
C18_3 C 0.9482(11) 0.3025(3) 0.4477(2)
H18_3 H 0.9934 0.3000 0.4540
H19_3 H 0.9178 0.2895 0.4522
C19_3 C 0.9548(11) 0.3020(3) 0.4245(2)
H20_3 H 0.9094 0.3040 0.4182
H21_3 H 0.9738 0.2865 0.4201
C21_3 C 0.9747(10) 0.3480(3) 0.42393(19)
H24_3 H 0.9295 0.3503 0.4175
C22_3 C 0.9670(9) 0.3482(2) 0.44785(19)
C23_3 C 0.9362(8) 0.3902(3) 0.44727(19)
H27_3 H 0.9531 0.3903 0.4337
C24_3 C 0.9099(10) 0.4138(2) 0.45590(18)
C25_3 C 0.9170(9) 0.4344(3) 0.44317(19)
H28_3 H 0.9366 0.4329 0.4300
C26_3 C 0.8940(8) 0.4576(2) 0.45039(19)
C27_3 C 0.8647(9) 0.4584(2) 0.47038(19)
H29_3 H 0.8507 0.4735 0.4754
C28_3 C 0.8550(11) 0.4386(2) 0.4831(2)
C29_3 C 0.8765(9) 0.4156(2) 0.47590(18)
C30_3 C 0.8222(13) 0.4405(3) 0.5048(2)
C31_3 C 0.8798(13) 0.4328(3) 0.5211(2)
H30_3 H 0.8715 0.4164 0.5257
H31_3 H 0.8782 0.4436 0.5329
H32_3 H 0.9248 0.4338 0.5147
C32_3 C 0.7578(18) 0.4254(3) 0.5065(3)
H33_3 H 0.7356 0.4245 0.4932
H34_3 H 0.7267 0.4327 0.5164
H35_3 H 0.7698 0.4093 0.5111
C33_3 C 0.8040(15) 0.4671(3) 0.5097(3)
H36_3 H 0.8380 0.4776 0.5034
H37_3 H 0.8038 0.4695 0.5245
H38_3 H 0.7589 0.4708 0.5041
C34_3 C 0.8969(7) 0.4788(2) 0.41590(17)
H39_3 H 0.8869 0.4640 0.4095
C35_3 C 0.9020(8) 0.4797(2) 0.43787(19)
C36_3 C 0.9136(10) 0.5019(3) 0.4469(2)
H40_3 H 0.9181 0.5031 0.4613
C37_3 C 0.9187(8) 0.5231(2) 0.4344(2)
H41_3 H 0.9242 0.5384 0.4405
C38_3 C 0.9152(8) 0.5207(2) 0.41299(18)
H42_3 H 0.9194 0.5344 0.4046
C39_3 C 0.9025(9) 0.4698(2) 0.32231(18)
H43_3 H 0.9028 0.4554 0.3299
C40_3 C 0.8998(11) 0.4687(2) 0.30039(19)
H44_3 H 0.8969 0.4538 0.2935
C41_3 C 0.9017(11) 0.4903(2) 0.28939(18)
H45_3 H 0.9010 0.4900 0.2749
C42_3 C 0.9045(8) 0.51235(19) 0.29970(16)
C43_3 C 0.9042(7) 0.51147(17) 0.32121(16)
H46_3 H 0.9038 0.5262 0.3284
C44_3 C 0.9634(10) 0.6022(2) 0.2988(2)
H47_3 H 0.9975 0.6183 0.2715
C46_3 C 0.9045(13) 0.6219(3) 0.3033(3)
H50_3 H 0.9249 0.6359 0.3098
H51_3 H 0.8703 0.6150 0.3125
H52_3 H 0.8827 0.6265 0.2905
C47_3 C 0.9981(14) 0.5953(3) 0.3192(3)
H54_3 H 0.9649 0.5876 0.3282
C48_3 C 0.9302(8) 0.5797(2) 0.28865(17)
C49_3 C 0.9319(8) 0.5575(2) 0.29746(18)
H56_3 H 0.9545 0.5559 0.3102
C50_3 C 0.9018(9) 0.5362(2) 0.28876(17)
C51_3 C 0.8698(9) 0.5385(2) 0.26962(19)
H57_3 H 0.8516 0.5248 0.2631
C52_3 C 0.8643(10) 0.5614(2) 0.25967(19)
C53_3 C 0.8961(9) 0.5820(2) 0.26883(18)
C54_3 C 0.8312(10) 0.5612(2) 0.23969(19)
H58_3 H 0.8188 0.5462 0.2341
C55_3 C 0.7859(9) 0.5800(2) 0.20792(17)
H59_3 H 0.7387 0.5866 0.2089
C56_3 C 0.7817(8) 0.5537(2) 0.19807(19)
H60_3 H 0.8273 0.5461 0.1981
H61_3 H 0.7503 0.5436 0.2061
C57_3 C 0.7555(8) 0.5563(2) 0.17582(17)
H62_3 H 0.7084 0.5626 0.1761
H63_3 H 0.7541 0.5404 0.1693
C58_3 C 0.8004(8) 0.5731(2) 0.16262(17)
H64_3 H 0.7820 0.5739 0.1486
H65_3 H 0.8473 0.5667 0.1619
C59_3 C 0.8021(9) 0.5987(2) 0.17193(18)
H66_3 H 0.7558 0.6056 0.1718
H67_3 H 0.8322 0.6090 0.1637
C60_3 C 0.8296(9) 0.5972(2) 0.19466(17)
H68_3 H 0.8766 0.5904 0.1940
C61_3 C 0.8380(10) 0.6405(2) 0.1965(2)
H69_3 H 0.8321 0.6403 0.1821
C62_3 C 0.8512(11) 0.6643(2) 0.2067(2)
C63_3 C 0.8443(13) 0.6847(2) 0.1944(2)
H70_3 H 0.8262 0.6832 0.1810
C64_3 C 0.8637(13) 0.7071(3) 0.2017(2)
C65_3 C 0.8927(13) 0.7096(3) 0.2217(2)
H71_3 H 0.9069 0.7248 0.2264
C66_3 C 0.9002(13) 0.6888(3) 0.2349(2)
C67_3 C 0.8761(12) 0.6654(2) 0.2274(2)
C68_3 C 0.9302(13) 0.6920(3) 0.2563(2)
C69_3 C 0.9910(13) 0.6771(3) 0.2600(3)
H72_3 H 0.9818 0.6607 0.2555
C70_3 C 0.8846(12) 0.6827(3) 0.2726(3)
H75_3 H 0.8412 0.6912 0.2723
H76_3 H 0.9061 0.6849 0.2860
H77_3 H 0.8764 0.6656 0.2704
C71_3 C 0.9490(12) 0.7182(3) 0.2612(3)
H78_3 H 0.9797 0.7243 0.2506
H79_3 H 0.9715 0.7190 0.2745
H80_3 H 0.9075 0.7279 0.2615
C72_3 C 0.8534(11) 0.7296(2) 0.1681(2)
H81_3 H 0.8637 0.7149 0.1617
C73_3 C 0.8501(14) 0.7300(2) 0.1896(3)
C74_3 C 0.8329(17) 0.7520(4) 0.1989(3)
H82_3 H 0.8288 0.7524 0.2134
C75_3 C 0.8207(19) 0.7744(4) 0.1873(3)
H83_3 H 0.8109 0.7893 0.1935
C76_3 C 0.8258(13) 0.7705(3) 0.1658(3)
H84_3 H 0.8168 0.7839 0.1573
C77_3 C 0.9645(5) 0.56890(16) 0.37140(13)
C78_3 C 0.8940(6) 0.56941(18) 0.36704(19)
H85_3 H 0.8704 0.5550 0.3643
C79_3 C 0.8585(6) 0.59142(18) 0.3668(2)
H86_3 H 0.8119 0.5916 0.3630
C80_3 C 0.8912(6) 0.61323(17) 0.37202(14)
C81_3 C 0.9622(6) 0.61240(19) 0.37667(18)
H87_3 H 0.9860 0.6267 0.3797
C82_3 C 0.9969(6) 0.59037(19) 0.37683(18)
C84_3 C 0.8530(6) 0.63683(17) 0.37226(14)
C85_3 C 0.7805(6) 0.63721(19) 0.37135(17)
H89_3 H 0.7562 0.6227 0.3698
C86_3 C 0.7447(6) 0.65890(19) 0.37271(17)
H90_3 H 0.6964 0.6590 0.3722
C87_3 C 0.7809(5) 0.68046(18) 0.37490(16)
C88_3 C 0.8521(6) 0.68039(19) 0.3756(2)
H91_3 H 0.8764 0.6949 0.3773
C89_3 C 0.8877(6) 0.65844(19) 0.3736(2)
H92_3 H 0.9360 0.6585 0.3733
C90_3 C 0.7420(7) 0.70424(19) 0.37746(17)
C91_3 C 0.6453(4) 0.47643(13) 0.3714(2)
H93_3 H 0.6678 0.4615 0.3729
C92_3 C 0.6837(3) 0.49767(15) 0.36901(19)
C93_3 C 0.6500(4) 0.51991(13) 0.3668(2)
H94_3 H 0.6757 0.5341 0.3652
C94_3 C 0.5779(4) 0.52091(13) 0.3670(2)
H95_3 H 0.5553 0.5358 0.3655
C95_3 C 0.5394(3) 0.49966(17) 0.3694(2)
C96_3 C 0.5731(4) 0.47742(14) 0.3716(2)
H96_3 H 0.5474 0.4632 0.3732
C97_3 C 0.7623(6) 0.4967(2) 0.3686(2)
C98_5 C 0.4340(3) 0.74978(19) 0.3775(2)
C99_5 C 0.3974(5) 0.72804(16) 0.3758(3)
H97_5 H 0.4212 0.7134 0.3747
C100_5 C 0.3252(5) 0.72824(16) 0.3760(3)
H98_5 H 0.3007 0.7137 0.3749
C101_5 C 0.2896(3) 0.7502(2) 0.3777(3)
C102_5 C 0.3262(4) 0.77191(17) 0.3793(3)
H99_5 H 0.3023 0.7866 0.3805
C103_5 C 0.3984(4) 0.77171(16) 0.3792(2)
H100_5 H 0.4229 0.7863 0.3803
C104_5 C 0.5097(8) 0.7489(3) 0.3784(3)
C105_5 C 0.0660(3) 0.75022(19) 0.3775(2)
C106_5 C 0.1026(5) 0.77196(16) 0.3758(3)
H101_5 H 0.0788 0.7866 0.3747
C107_5 C 0.1748(5) 0.77176(16) 0.3760(3)
H102_5 H 0.1993 0.7863 0.3749
C108_5 C 0.2104(3) 0.7498(2) 0.3777(3)
C109_5 C 0.1738(4) 0.72809(17) 0.3793(3)
H103_5 H 0.1977 0.7134 0.3805
C110_5 C 0.1016(4) 0.72829(16) 0.3792(2)
H104_5 H 0.0771 0.7137 0.3803
O17_3 O 0.2108(5) 0.52381(17) 0.3698(2)
O18_3 O 0.2037(3) 0.48373(12) 0.36714(13)
C112_3 C 0.3547(4) 0.52357(13) 0.3714(2)
H105_3 H 0.3322 0.5385 0.3729
C113_3 C 0.3163(3) 0.50233(15) 0.36901(19)
C114_3 C 0.3500(4) 0.48009(13) 0.3668(2)
H106_3 H 0.3243 0.4659 0.3652
C115_3 C 0.4221(4) 0.47909(13) 0.3670(2)
H107_3 H 0.4447 0.4642 0.3655
C116_3 C 0.4606(3) 0.50034(17) 0.3694(2)
C117_3 C 0.4269(4) 0.52258(14) 0.3716(2)
H108_3 H 0.4526 0.5368 0.3732
C118_3 C 0.2377(6) 0.5033(2) 0.3686(2)
Cd4_3 Cd 0.34934(4) 0.25597(2) 0.37963(2)
Fe3_2 Fe 0.08459(16) 0.63458(4) 0.48910(3)
Fe4_3 Fe 0.16747(18) 0.38350(4) 0.23906(3)
O19_3 O 0.1481(8) 0.64560(16) 0.51074(14)
O20_3 O 0.1313(7) 0.60412(16) 0.48722(13)
O21_3 O 0.1062(7) 0.39680(15) 0.25954(14)
O22_3 O 0.1155(7) 0.35315(15) 0.23887(13)
O25_3 O 0.3243(5) 0.29702(15) 0.37550(15)
O26_3 O 0.2275(4) 0.27657(13) 0.38157(14)
N9_3 N 0.1548(6) 0.75734(16) 0.58448(17)
N10_3 N 0.0929(8) 0.66966(19) 0.47703(17)
N11_3 N 0.0627(7) 0.62988(19) 0.45702(15)
N12_3 N 0.0942(5) 0.50164(17) 0.40406(13)
N13_3 N 0.0954(5) 0.50922(15) 0.33247(13)
N14_3 N 0.1826(8) 0.41952(19) 0.22887(15)
N15_3 N 0.1658(8) 0.37961(19) 0.20618(16)
N16_3 N 0.1575(9) 0.2507(2) 0.1559(2)
C119_3 C 0.1576(10) 0.7790(2) 0.5741(2)
H109_3 H 0.1592 0.7934 0.5817
C120_3 C 0.1580(12) 0.7796(2) 0.5531(2)
H110_3 H 0.1591 0.7945 0.5462
C121_3 C 0.1569(11) 0.7579(2) 0.5418(2)
H111_3 H 0.1597 0.7582 0.5273
C122_3 C 0.1513(11) 0.7355(2) 0.5525(2)
C123_3 C 0.1518(9) 0.7364(2) 0.5741(2)
H112_3 H 0.1501 0.7219 0.5815
C124_3 C 0.2112(9) 0.6458(2) 0.5515(2)
C125_3 C 0.1525(10) 0.6262(2) 0.5545(2)
H113_3 H 0.1312 0.6227 0.5413
H114_3 H 0.1180 0.6323 0.5640
H115_3 H 0.1724 0.6115 0.5601
C126_3 C 0.2687(9) 0.6358(3) 0.5379(2)
H116_3 H 0.2838 0.6204 0.5433
H117_3 H 0.3070 0.6470 0.5378
H118_3 H 0.2517 0.6337 0.5239
C127_3 C 0.2418(9) 0.6520(2) 0.57281(19)
H119_3 H 0.2076 0.6604 0.5810
H120_3 H 0.2817 0.6624 0.5710
H121_3 H 0.2555 0.6373 0.5798
C128_3 C 0.1770(9) 0.6686(2) 0.5406(2)
C129_3 C 0.1758(9) 0.6914(2) 0.5502(2)
H122_3 H 0.1929 0.6925 0.5637
C130_3 C 0.1509(10) 0.7123(2) 0.5410(2)
C131_3 C 0.1260(10) 0.7108(2) 0.5210(2)
H123_3 H 0.1097 0.7247 0.5144
C132_3 C 0.1251(10) 0.6880(2) 0.5104(2)
C133_3 C 0.1498(12) 0.6665(2) 0.5205(2)
C134_3 C 0.1023(10) 0.6884(2) 0.4890(2)
H124_3 H 0.0936 0.7036 0.4832
C135_3 C 0.0815(10) 0.6729(2) 0.45462(19)
H125_3 H 0.1263 0.6707 0.4476
C136_3 C 0.0518(11) 0.6975(3) 0.4477(2)
H126_3 H 0.0066 0.7000 0.4540
H127_3 H 0.0822 0.7105 0.4522
C137_3 C 0.0452(11) 0.6980(3) 0.4245(2)
H128_3 H 0.0906 0.6960 0.4182
H129_3 H 0.0262 0.7135 0.4201
C139_3 C 0.0253(10) 0.6520(3) 0.42393(19)
H132_3 H 0.0705 0.6497 0.4175
C140_3 C 0.0330(9) 0.6518(2) 0.44785(19)
C141_3 C 0.0638(8) 0.6098(3) 0.44727(19)
H135_3 H 0.0469 0.6097 0.4337
C142_3 C 0.0901(10) 0.5862(2) 0.45590(18)
C143_3 C 0.0830(9) 0.5656(3) 0.44317(19)
H136_3 H 0.0634 0.5671 0.4300
C144_3 C 0.1060(8) 0.5424(2) 0.45039(19)
C145_3 C 0.1353(9) 0.5416(2) 0.47038(19)
H137_3 H 0.1493 0.5265 0.4754
C146_3 C 0.1450(11) 0.5614(2) 0.4831(2)
C147_3 C 0.1235(9) 0.5844(2) 0.47590(18)
C148_3 C 0.1778(13) 0.5595(3) 0.5048(2)
C149_3 C 0.1202(13) 0.5672(3) 0.5211(2)
H138_3 H 0.1285 0.5836 0.5257
H139_3 H 0.1218 0.5564 0.5329
H140_3 H 0.0752 0.5662 0.5147
C150_3 C 0.2422(18) 0.5746(3) 0.5065(3)
H141_3 H 0.2644 0.5755 0.4932
H142_3 H 0.2733 0.5673 0.5164
H143_3 H 0.2302 0.5907 0.5111
C151_3 C 0.1960(15) 0.5329(3) 0.5097(3)
H144_3 H 0.1620 0.5224 0.5034
H145_3 H 0.1962 0.5305 0.5245
H146_3 H 0.2411 0.5292 0.5041
C152_3 C 0.1031(7) 0.5212(2) 0.41590(17)
H147_3 H 0.1131 0.5360 0.4095
C153_3 C 0.0980(8) 0.5203(2) 0.43787(19)
C154_3 C 0.0864(10) 0.4981(3) 0.4469(2)
H148_3 H 0.0819 0.4969 0.4613
C155_3 C 0.0813(8) 0.4769(2) 0.4344(2)
H149_3 H 0.0758 0.4616 0.4405
C156_3 C 0.0848(8) 0.4793(2) 0.41299(18)
H150_3 H 0.0806 0.4656 0.4046
C157_3 C 0.0975(9) 0.5302(2) 0.32231(18)
H151_3 H 0.0972 0.5446 0.3299
C158_3 C 0.1002(11) 0.5313(2) 0.30039(19)
H152_3 H 0.1031 0.5462 0.2935
C159_3 C 0.0983(11) 0.5097(2) 0.28939(18)
H153_3 H 0.0990 0.5100 0.2749
C160_3 C 0.0955(8) 0.48765(19) 0.29970(16)
C161_3 C 0.0958(7) 0.48853(17) 0.32121(16)
H154_3 H 0.0962 0.4738 0.3284
C162_3 C 0.0366(10) 0.3978(2) 0.2988(2)
H155_3 H 0.0025 0.3817 0.2715
C164_3 C 0.0955(13) 0.3781(3) 0.3033(3)
H158_3 H 0.0751 0.3641 0.3098
H159_3 H 0.1297 0.3850 0.3125
H160_3 H 0.1173 0.3735 0.2905
C165_3 C 0.0019(14) 0.4047(3) 0.3192(3)
H162_3 H 0.0351 0.4124 0.3282
C166_3 C 0.0698(8) 0.4203(2) 0.28865(17)
C167_3 C 0.0681(8) 0.4425(2) 0.29746(18)
H164_3 H 0.0455 0.4441 0.3102
C168_3 C 0.0982(9) 0.4638(2) 0.28876(17)
C169_3 C 0.1302(9) 0.4615(2) 0.26962(19)
H165_3 H 0.1484 0.4752 0.2631
C170_3 C 0.1357(10) 0.4386(2) 0.25967(19)
C171_3 C 0.1039(9) 0.4180(2) 0.26883(18)
C172_3 C 0.1688(10) 0.4388(2) 0.23969(19)
H166_3 H 0.1812 0.4538 0.2341
C173_3 C 0.2141(9) 0.4200(2) 0.20792(17)
H167_3 H 0.2613 0.4134 0.2089
C174_3 C 0.2183(8) 0.4463(2) 0.19807(19)
H168_3 H 0.1727 0.4539 0.1981
H169_3 H 0.2497 0.4564 0.2061
C175_3 C 0.2445(8) 0.4437(2) 0.17582(17)
H170_3 H 0.2916 0.4374 0.1761
H171_3 H 0.2459 0.4596 0.1693
C176_3 C 0.1996(8) 0.4269(2) 0.16262(17)
H172_3 H 0.2180 0.4261 0.1486
H173_3 H 0.1527 0.4333 0.1619
C177_3 C 0.1979(9) 0.4013(2) 0.17193(18)
H174_3 H 0.2442 0.3944 0.1718
H175_3 H 0.1678 0.3910 0.1637
C178_3 C 0.1704(9) 0.4028(2) 0.19466(17)
H176_3 H 0.1234 0.4096 0.1940
C179_3 C 0.1620(10) 0.3595(2) 0.1965(2)
H177_3 H 0.1679 0.3597 0.1821
C180_3 C 0.1488(11) 0.3357(2) 0.2067(2)
C181_3 C 0.1557(13) 0.3153(2) 0.1944(2)
H178_3 H 0.1738 0.3168 0.1810
C182_3 C 0.1363(13) 0.2929(3) 0.2017(2)
C183_3 C 0.1073(13) 0.2904(3) 0.2217(2)
H179_3 H 0.0931 0.2752 0.2264
C184_3 C 0.0998(13) 0.3112(3) 0.2349(2)
C185_3 C 0.1239(12) 0.3346(2) 0.2274(2)
C186_3 C 0.0698(13) 0.3080(3) 0.2563(2)
C187_3 C 0.0090(13) 0.3229(3) 0.2600(3)
H180_3 H 0.0182 0.3393 0.2555
C188_3 C 0.1154(12) 0.3173(3) 0.2726(3)
H183_3 H 0.1588 0.3088 0.2723
H184_3 H 0.0939 0.3151 0.2860
H185_3 H 0.1236 0.3344 0.2704
C189_3 C 0.0510(12) 0.2818(3) 0.2612(3)
H186_3 H 0.0203 0.2757 0.2506
H187_3 H 0.0285 0.2810 0.2745
H188_3 H 0.0925 0.2721 0.2615
C190_3 C 0.1466(11) 0.2704(2) 0.1681(2)
H189_3 H 0.1363 0.2851 0.1617
C191_3 C 0.1499(14) 0.2700(2) 0.1896(3)
C192_3 C 0.1671(17) 0.2480(4) 0.1989(3)
H190_3 H 0.1712 0.2476 0.2134
C193_3 C 0.1793(19) 0.2256(4) 0.1873(3)
H191_3 H 0.1891 0.2107 0.1935
C194_3 C 0.1742(13) 0.2295(3) 0.1658(3)
H192_3 H 0.1832 0.2161 0.1573
C195_3 C 0.0355(5) 0.43110(16) 0.37140(13)
C196_3 C 0.1060(6) 0.43059(18) 0.36704(19)
H193_3 H 0.1296 0.4450 0.3643
C197_3 C 0.1415(6) 0.40858(18) 0.3668(2)
H194_3 H 0.1881 0.4084 0.3630
C198_3 C 0.1088(6) 0.38677(17) 0.37202(14)
C199_3 C 0.0378(6) 0.38760(19) 0.37667(18)
H195_3 H 0.0140 0.3733 0.3797
C200_3 C 0.0031(6) 0.40963(19) 0.37683(18)
C202_3 C 0.1470(6) 0.36317(17) 0.37226(14)
C203_3 C 0.2195(6) 0.36279(19) 0.37135(17)
H197_3 H 0.2438 0.3773 0.3698
C204_3 C 0.2553(6) 0.34110(19) 0.37271(17)
H198_3 H 0.3036 0.3410 0.3722
C205_3 C 0.2191(5) 0.31954(18) 0.37490(16)
C206_3 C 0.1479(6) 0.31961(19) 0.3756(2)
H199_3 H 0.1236 0.3051 0.3773
C207_3 C 0.1123(6) 0.34156(19) 0.3736(2)
H200_3 H 0.0640 0.3415 0.3733
C208_3 C 0.2580(7) 0.29576(19) 0.37746(17)
Fe6_5 Fe 0.66747(18) 0.61650(4) 0.26094(3)
O27_5 O -0.0000 0.6329(3) 0.5000
O28_3 O 0.2500 0.3771(2) 0.2500
O32_3 O 0.9314(4) 0.45287(13) 0.37303(13)
O33_3 O 0.2725(4) 0.22343(13) 0.38157(14)
O34_3 O 0.7275(4) 0.77657(13) 0.38157(14)
O35_3 O 0.4600(5) 0.27204(17) 0.3770(2)
O36_3 O 0.4540(5) 0.23202(18) 0.3812(2)
N17_3 N 0.3452(6) 0.25734(16) 0.41552(17)
N18_3 N 0.6548(6) 0.74266(16) 0.41552(17)
N19_3 N 0.3425(9) 0.2507(2) 0.3441(2)
N20_3 N 0.6575(9) 0.7493(2) 0.3441(2)
O15_5 O 0.9600(5) 0.77204(17) 0.3770(2)
O16_5 O 0.9540(5) 0.73202(18) 0.3812(2)
C111_5 C 0.9903(8) 0.7511(3) 0.3784(3)
C138_3 C 0.9945(11) 0.6761(3) 0.4171(2)
H130_3 H 0.9488 0.6782 0.4232
H131_3 H 0.9896 0.6764 0.4020
H133_3 H 0.9953 0.6388 0.4196
H134_3 H 0.9871 0.6545 0.4540
C163_3 C 0.9813(13) 0.3866(3) 0.2844(3)
H156_3 H 0.9457 0.3984 0.2817
H157_3 H 0.9611 0.3726 0.2911
H161_3 H 0.9642 0.4157 0.3165
H163_3 H 0.9843 0.3903 0.3259
H181_3 H 0.9981 0.3229 0.2746
H182_3 H 0.9703 0.3165 0.2523
H196_3 H 0.9565 0.4100 0.3807
C201_3 C 0.9946(5) 0.45400(16) 0.36999(14)
O27_6 O 1.0000 0.6329(3) 0.5000
O15_6 O 0.0400(5) 0.22796(17) 0.3770(2)
O16_6 O 0.0460(5) 0.26798(18) 0.3812(2)
C111_6 C 0.0097(8) 0.2489(3) 0.3784(3)
C98_6 C 0.5660(3) 0.25022(19) 0.3775(2)
C99_6 C 0.6026(5) 0.27196(16) 0.3758(3)
H97_6 H 0.5788 0.2866 0.3747
C100_6 C 0.6748(5) 0.27176(16) 0.3760(3)
H98_6 H 0.6993 0.2863 0.3749
C101_6 C 0.7104(3) 0.2498(2) 0.3777(3)
C102_6 C 0.6738(4) 0.22809(17) 0.3793(3)
H99_6 H 0.6977 0.2134 0.3805
C103_6 C 0.6016(4) 0.22829(16) 0.3792(2)
H100_6 H 0.5771 0.2137 0.3803
C104_6 C 0.4903(8) 0.2511(3) 0.3784(3)
C105_6 C 0.9340(3) 0.24978(19) 0.3775(2)
C106_6 C 0.8974(5) 0.22804(16) 0.3758(3)
H101_6 H 0.9212 0.2134 0.3747
C107_6 C 0.8252(5) 0.22824(16) 0.3760(3)
H102_6 H 0.8007 0.2137 0.3749
C108_6 C 0.7896(3) 0.2502(2) 0.3777(3)
C109_6 C 0.8262(4) 0.27191(17) 0.3793(3)
H103_6 H 0.8023 0.2866 0.3805
C110_6 C 0.8984(4) 0.27171(16) 0.3792(2)
H104_6 H 0.9229 0.2863 0.3803
Fe6_6 Fe 0.33253(18) 0.38350(4) 0.26094(3)
Fe5_4 Fe 0.91541(16) 0.63458(4) 0.51090(3)
O8_4 O 0.0686(4) 0.45287(13) 0.62697(13)
C20_4 C 0.0055(11) 0.6761(3) 0.5829(2)
H22_4 H 0.0512 0.6782 0.5768
H23_4 H 0.0104 0.6764 0.5980
H25_4 H 0.0047 0.6388 0.5804
H26_4 H 0.0129 0.6545 0.5460
C45_4 C 0.0187(13) 0.3866(3) 0.7156(3)
H48_4 H 0.0543 0.3984 0.7183
H49_4 H 0.0389 0.3726 0.7089
H53_4 H 0.0358 0.4157 0.6835
H55_4 H 0.0157 0.3903 0.6741
H73_4 H 0.0019 0.3229 0.7254
H74_4 H 0.0297 0.3165 0.7477
H88_4 H 0.0435 0.4100 0.6193
C83_4 C 0.0054(5) 0.45400(16) 0.63001(14)
Cd6_4 Cd 0.09860(4) 0.49308(2) 0.63181(2)
O30_4 O 0.0247(4) 0.52635(12) 0.63452(11)
Cd1_4 Cd 0.90140(4) 0.50692(2) 0.63181(2)
Cd2_4 Cd 0.65066(4) 0.25597(2) 0.62037(2)
Fe2_4 Fe 0.83253(18) 0.38350(4) 0.76094(3)
O1_4 O 0.8519(8) 0.64560(16) 0.48926(14)
O2_4 O 0.8687(7) 0.60412(16) 0.51278(13)
O4_4 O 0.8938(7) 0.39680(15) 0.74046(14)
O5_4 O 0.8845(7) 0.35315(15) 0.76113(13)
O6_4 O 0.7500 0.3771(2) 0.7500
O7_4 O 0.9753(4) 0.47365(12) 0.63452(11)
O9_4 O 0.6757(5) 0.29702(15) 0.62450(15)
O10_4 O 0.7725(4) 0.27657(13) 0.61843(14)
O11_4 O 0.5400(5) 0.27204(17) 0.6230(2)
O12_4 O 0.5460(5) 0.23202(18) 0.6188(2)
O13_4 O 0.7892(5) 0.52381(17) 0.6302(2)
O14_4 O 0.7963(3) 0.48373(12) 0.63286(13)
N1_4 N 0.8452(6) 0.75734(16) 0.41552(17)
N2_4 N 0.9071(8) 0.66966(19) 0.52297(17)
N3_4 N 0.9373(7) 0.62988(19) 0.54298(15)
N4_4 N 0.9058(5) 0.50164(17) 0.59594(13)
N5_4 N 0.9046(5) 0.50922(15) 0.66753(13)
N6_4 N 0.8174(8) 0.41952(19) 0.77113(15)
N7_4 N 0.8342(8) 0.37961(19) 0.79382(16)
N8_4 N 0.8425(9) 0.2507(2) 0.8441(2)
C1_4 C 0.8424(10) 0.7790(2) 0.4259(2)
H1_4 H 0.8408 0.7934 0.4183
C2_4 C 0.8420(12) 0.7796(2) 0.4469(2)
H2_4 H 0.8409 0.7945 0.4538
C3_4 C 0.8431(11) 0.7579(2) 0.4582(2)
H3_4 H 0.8403 0.7582 0.4727
C4_4 C 0.8487(11) 0.7355(2) 0.4475(2)
C5_4 C 0.8482(9) 0.7364(2) 0.4259(2)
H4_4 H 0.8499 0.7219 0.4185
C6_4 C 0.7888(9) 0.6458(2) 0.4485(2)
C7_4 C 0.8475(10) 0.6262(2) 0.4455(2)
H5_4 H 0.8688 0.6227 0.4587
H6_4 H 0.8820 0.6323 0.4360
H7_4 H 0.8276 0.6115 0.4399
C8_4 C 0.7313(9) 0.6358(3) 0.4621(2)
H8_4 H 0.7162 0.6204 0.4567
H9_4 H 0.6930 0.6470 0.4622
H10_4 H 0.7483 0.6337 0.4761
C9_4 C 0.7582(9) 0.6520(2) 0.42719(19)
H11_4 H 0.7924 0.6604 0.4190
H12_4 H 0.7183 0.6624 0.4290
H13_4 H 0.7445 0.6373 0.4202
C10_4 C 0.8230(9) 0.6686(2) 0.4594(2)
C11_4 C 0.8242(9) 0.6914(2) 0.4498(2)
H14_4 H 0.8071 0.6925 0.4363
C12_4 C 0.8491(10) 0.7123(2) 0.4590(2)
C13_4 C 0.8740(10) 0.7108(2) 0.4790(2)
H15_4 H 0.8903 0.7247 0.4856
C14_4 C 0.8749(10) 0.6880(2) 0.4896(2)
C15_4 C 0.8502(12) 0.6665(2) 0.4795(2)
C16_4 C 0.8977(10) 0.6884(2) 0.5110(2)
H16_4 H 0.9064 0.7036 0.5168
C17_4 C 0.9185(10) 0.6729(2) 0.54538(19)
H17_4 H 0.8737 0.6707 0.5524
C18_4 C 0.9482(11) 0.6975(3) 0.5523(2)
H18_4 H 0.9934 0.7000 0.5460
H19_4 H 0.9178 0.7105 0.5478
C19_4 C 0.9548(11) 0.6980(3) 0.5755(2)
H20_4 H 0.9094 0.6960 0.5818
H21_4 H 0.9738 0.7135 0.5799
C21_4 C 0.9747(10) 0.6520(3) 0.57607(19)
H24_4 H 0.9295 0.6497 0.5825
C22_4 C 0.9670(9) 0.6518(2) 0.55215(19)
C23_4 C 0.9362(8) 0.6098(3) 0.55273(19)
H27_4 H 0.9531 0.6097 0.5663
C24_4 C 0.9099(10) 0.5862(2) 0.54410(18)
C25_4 C 0.9170(9) 0.5656(3) 0.55683(19)
H28_4 H 0.9366 0.5671 0.5700
C26_4 C 0.8940(8) 0.5424(2) 0.54961(19)
C27_4 C 0.8647(9) 0.5416(2) 0.52962(19)
H29_4 H 0.8507 0.5265 0.5246
C28_4 C 0.8550(11) 0.5614(2) 0.5169(2)
C29_4 C 0.8765(9) 0.5844(2) 0.52410(18)
C30_4 C 0.8222(13) 0.5595(3) 0.4952(2)
C31_4 C 0.8798(13) 0.5672(3) 0.4789(2)
H30_4 H 0.8715 0.5836 0.4743
H31_4 H 0.8782 0.5564 0.4671
H32_4 H 0.9248 0.5662 0.4853
C32_4 C 0.7578(18) 0.5746(3) 0.4935(3)
H33_4 H 0.7356 0.5755 0.5068
H34_4 H 0.7267 0.5673 0.4836
H35_4 H 0.7698 0.5907 0.4889
C33_4 C 0.8040(15) 0.5329(3) 0.4903(3)
H36_4 H 0.8380 0.5224 0.4966
H37_4 H 0.8038 0.5305 0.4755
H38_4 H 0.7589 0.5292 0.4959
C34_4 C 0.8969(7) 0.5212(2) 0.58410(17)
H39_4 H 0.8869 0.5360 0.5905
C35_4 C 0.9020(8) 0.5203(2) 0.56213(19)
C36_4 C 0.9136(10) 0.4981(3) 0.5531(2)
H40_4 H 0.9181 0.4969 0.5387
C37_4 C 0.9187(8) 0.4769(2) 0.5656(2)
H41_4 H 0.9242 0.4616 0.5595
C38_4 C 0.9152(8) 0.4793(2) 0.58701(18)
H42_4 H 0.9194 0.4656 0.5954
C39_4 C 0.9025(9) 0.5302(2) 0.67769(18)
H43_4 H 0.9028 0.5446 0.6701
C40_4 C 0.8998(11) 0.5313(2) 0.69961(19)
H44_4 H 0.8969 0.5462 0.7065
C41_4 C 0.9017(11) 0.5097(2) 0.71061(18)
H45_4 H 0.9010 0.5100 0.7251
C42_4 C 0.9045(8) 0.48765(19) 0.70030(16)
C43_4 C 0.9042(7) 0.48853(17) 0.67879(16)
H46_4 H 0.9038 0.4738 0.6716
C44_4 C 0.9634(10) 0.3978(2) 0.7012(2)
H47_4 H 0.9975 0.3817 0.7285
C46_4 C 0.9045(13) 0.3781(3) 0.6967(3)
H50_4 H 0.9249 0.3641 0.6902
H51_4 H 0.8703 0.3850 0.6875
H52_4 H 0.8827 0.3735 0.7095
C47_4 C 0.9981(14) 0.4047(3) 0.6808(3)
H54_4 H 0.9649 0.4124 0.6718
C48_4 C 0.9302(8) 0.4203(2) 0.71135(17)
C49_4 C 0.9319(8) 0.4425(2) 0.70254(18)
H56_4 H 0.9545 0.4441 0.6898
C50_4 C 0.9018(9) 0.4638(2) 0.71124(17)
C51_4 C 0.8698(9) 0.4615(2) 0.73038(19)
H57_4 H 0.8516 0.4752 0.7369
C52_4 C 0.8643(10) 0.4386(2) 0.74033(19)
C53_4 C 0.8961(9) 0.4180(2) 0.73117(18)
C54_4 C 0.8312(10) 0.4388(2) 0.76031(19)
H58_4 H 0.8188 0.4538 0.7659
C55_4 C 0.7859(9) 0.4200(2) 0.79208(17)
H59_4 H 0.7387 0.4134 0.7911
C56_4 C 0.7817(8) 0.4463(2) 0.80193(19)
H60_4 H 0.8273 0.4539 0.8019
H61_4 H 0.7503 0.4564 0.7939
C57_4 C 0.7555(8) 0.4437(2) 0.82418(17)
H62_4 H 0.7084 0.4374 0.8239
H63_4 H 0.7541 0.4596 0.8307
C58_4 C 0.8004(8) 0.4269(2) 0.83738(17)
H64_4 H 0.7820 0.4261 0.8514
H65_4 H 0.8473 0.4333 0.8381
C59_4 C 0.8021(9) 0.4013(2) 0.82807(18)
H66_4 H 0.7558 0.3944 0.8282
H67_4 H 0.8322 0.3910 0.8363
C60_4 C 0.8296(9) 0.4028(2) 0.80534(17)
H68_4 H 0.8766 0.4096 0.8060
C61_4 C 0.8380(10) 0.3595(2) 0.8035(2)
H69_4 H 0.8321 0.3597 0.8179
C62_4 C 0.8512(11) 0.3357(2) 0.7933(2)
C63_4 C 0.8443(13) 0.3153(2) 0.8056(2)
H70_4 H 0.8262 0.3168 0.8190
C64_4 C 0.8637(13) 0.2929(3) 0.7983(2)
C65_4 C 0.8927(13) 0.2904(3) 0.7783(2)
H71_4 H 0.9069 0.2752 0.7736
C66_4 C 0.9002(13) 0.3112(3) 0.7651(2)
C67_4 C 0.8761(12) 0.3346(2) 0.7726(2)
C68_4 C 0.9302(13) 0.3080(3) 0.7437(2)
C69_4 C 0.9910(13) 0.3229(3) 0.7400(3)
H72_4 H 0.9818 0.3393 0.7445
C70_4 C 0.8846(12) 0.3173(3) 0.7274(3)
H75_4 H 0.8412 0.3088 0.7277
H76_4 H 0.9061 0.3151 0.7140
H77_4 H 0.8764 0.3344 0.7296
C71_4 C 0.9490(12) 0.2818(3) 0.7388(3)
H78_4 H 0.9797 0.2757 0.7494
H79_4 H 0.9715 0.2810 0.7255
H80_4 H 0.9075 0.2721 0.7385
C72_4 C 0.8534(11) 0.2704(2) 0.8319(2)
H81_4 H 0.8637 0.2851 0.8383
C73_4 C 0.8501(14) 0.2700(2) 0.8104(3)
C74_4 C 0.8329(17) 0.2480(4) 0.8011(3)
H82_4 H 0.8288 0.2476 0.7866
C75_4 C 0.8207(19) 0.2256(4) 0.8127(3)
H83_4 H 0.8109 0.2107 0.8065
C76_4 C 0.8258(13) 0.2295(3) 0.8342(3)
H84_4 H 0.8168 0.2161 0.8427
C77_4 C 0.9645(5) 0.43110(16) 0.62860(13)
C78_4 C 0.8940(6) 0.43059(18) 0.63296(19)
H85_4 H 0.8704 0.4450 0.6357
C79_4 C 0.8585(6) 0.40858(18) 0.6332(2)
H86_4 H 0.8119 0.4084 0.6370
C80_4 C 0.8912(6) 0.38677(17) 0.62798(14)
C81_4 C 0.9622(6) 0.38760(19) 0.62333(18)
H87_4 H 0.9860 0.3733 0.6203
C82_4 C 0.9969(6) 0.40963(19) 0.62317(18)
C84_4 C 0.8530(6) 0.36317(17) 0.62774(14)
C85_4 C 0.7805(6) 0.36279(19) 0.62865(17)
H89_4 H 0.7562 0.3773 0.6302
C86_4 C 0.7447(6) 0.34110(19) 0.62729(17)
H90_4 H 0.6964 0.3410 0.6278
C87_4 C 0.7809(5) 0.31954(18) 0.62510(16)
C88_4 C 0.8521(6) 0.31961(19) 0.6244(2)
H91_4 H 0.8764 0.3051 0.6227
C89_4 C 0.8877(6) 0.34156(19) 0.6264(2)
H92_4 H 0.9360 0.3415 0.6267
C90_4 C 0.7420(7) 0.29576(19) 0.62254(17)
C91_4 C 0.6453(4) 0.52357(13) 0.6286(2)
H93_4 H 0.6678 0.5385 0.6271
C92_4 C 0.6837(3) 0.50233(15) 0.63099(19)
C93_4 C 0.6500(4) 0.48009(13) 0.6332(2)
H94_4 H 0.6757 0.4659 0.6348
C94_4 C 0.5779(4) 0.47909(13) 0.6330(2)
H95_4 H 0.5553 0.4642 0.6345
C95_4 C 0.5394(3) 0.50034(17) 0.6306(2)
C96_4 C 0.5731(4) 0.52258(14) 0.6284(2)
H96_4 H 0.5474 0.5368 0.6268
C97_4 C 0.7623(6) 0.5033(2) 0.6314(2)
C98_7 C 0.4340(3) 0.25022(19) 0.6225(2)
C99_7 C 0.3974(5) 0.27196(16) 0.6242(3)
H97_7 H 0.4212 0.2866 0.6253
C100_7 C 0.3252(5) 0.27176(16) 0.6240(3)
H98_7 H 0.3007 0.2863 0.6251
C101_7 C 0.2896(3) 0.2498(2) 0.6223(3)
C102_7 C 0.3262(4) 0.22809(17) 0.6207(3)
H99_7 H 0.3023 0.2134 0.6195
C103_7 C 0.3984(4) 0.22829(16) 0.6208(2)
H100_7 H 0.4229 0.2137 0.6197
C104_7 C 0.5097(8) 0.2511(3) 0.6216(3)
C105_7 C 0.0660(3) 0.24978(19) 0.6225(2)
C106_7 C 0.1026(5) 0.22804(16) 0.6242(3)
H101_7 H 0.0788 0.2134 0.6253
C107_7 C 0.1748(5) 0.22824(16) 0.6240(3)
H102_7 H 0.1993 0.2137 0.6251
C108_7 C 0.2104(3) 0.2502(2) 0.6223(3)
C109_7 C 0.1738(4) 0.27191(17) 0.6207(3)
H103_7 H 0.1977 0.2866 0.6195
C110_7 C 0.1016(4) 0.27171(16) 0.6208(2)
H104_7 H 0.0771 0.2863 0.6197
O17_4 O 0.2108(5) 0.47619(17) 0.6302(2)
O18_4 O 0.2037(3) 0.51627(12) 0.63286(13)
C112_4 C 0.3547(4) 0.47643(13) 0.6286(2)
H105_4 H 0.3322 0.4615 0.6271
C113_4 C 0.3163(3) 0.49767(15) 0.63099(19)
C114_4 C 0.3500(4) 0.51991(13) 0.6332(2)
H106_4 H 0.3243 0.5341 0.6348
C115_4 C 0.4221(4) 0.52091(13) 0.6330(2)
H107_4 H 0.4447 0.5358 0.6345
C116_4 C 0.4606(3) 0.49966(17) 0.6306(2)
C117_4 C 0.4269(4) 0.47742(14) 0.6284(2)
H108_4 H 0.4526 0.4632 0.6268
C118_4 C 0.2377(6) 0.4967(2) 0.6314(2)
Cd4_4 Cd 0.34934(4) 0.74403(2) 0.62037(2)
Fe4_4 Fe 0.16747(18) 0.61650(4) 0.76094(3)
O19_4 O 0.1481(8) 0.35440(16) 0.48926(14)
O20_4 O 0.1313(7) 0.39588(16) 0.51278(13)
O21_4 O 0.1062(7) 0.60320(15) 0.74046(14)
O22_4 O 0.1155(7) 0.64685(15) 0.76113(13)
O25_4 O 0.3243(5) 0.70298(15) 0.62450(15)
O26_4 O 0.2275(4) 0.72343(13) 0.61843(14)
N9_4 N 0.1548(6) 0.24266(16) 0.41552(17)
N10_4 N 0.0929(8) 0.33034(19) 0.52297(17)
N11_4 N 0.0627(7) 0.37012(19) 0.54298(15)
N12_4 N 0.0942(5) 0.49836(17) 0.59594(13)
N13_4 N 0.0954(5) 0.49078(15) 0.66753(13)
N14_4 N 0.1826(8) 0.58048(19) 0.77113(15)
N15_4 N 0.1658(8) 0.62039(19) 0.79382(16)
N16_4 N 0.1575(9) 0.7493(2) 0.8441(2)
C119_4 C 0.1576(10) 0.2210(2) 0.4259(2)
H109_4 H 0.1592 0.2066 0.4183
C120_4 C 0.1580(12) 0.2204(2) 0.4469(2)
H110_4 H 0.1591 0.2055 0.4538
C121_4 C 0.1569(11) 0.2421(2) 0.4582(2)
H111_4 H 0.1597 0.2418 0.4727
C122_4 C 0.1513(11) 0.2645(2) 0.4475(2)
C123_4 C 0.1518(9) 0.2636(2) 0.4259(2)
H112_4 H 0.1501 0.2781 0.4185
C124_4 C 0.2112(9) 0.3542(2) 0.4485(2)
C125_4 C 0.1525(10) 0.3738(2) 0.4455(2)
H113_4 H 0.1312 0.3773 0.4587
H114_4 H 0.1180 0.3677 0.4360
H115_4 H 0.1724 0.3885 0.4399
C126_4 C 0.2687(9) 0.3642(3) 0.4621(2)
H116_4 H 0.2838 0.3796 0.4567
H117_4 H 0.3070 0.3530 0.4622
H118_4 H 0.2517 0.3663 0.4761
C127_4 C 0.2418(9) 0.3480(2) 0.42719(19)
H119_4 H 0.2076 0.3396 0.4190
H120_4 H 0.2817 0.3376 0.4290
H121_4 H 0.2555 0.3627 0.4202
C128_4 C 0.1770(9) 0.3314(2) 0.4594(2)
C129_4 C 0.1758(9) 0.3086(2) 0.4498(2)
H122_4 H 0.1929 0.3075 0.4363
C130_4 C 0.1509(10) 0.2877(2) 0.4590(2)
C131_4 C 0.1260(10) 0.2892(2) 0.4790(2)
H123_4 H 0.1097 0.2753 0.4856
C132_4 C 0.1251(10) 0.3120(2) 0.4896(2)
C133_4 C 0.1498(12) 0.3335(2) 0.4795(2)
C134_4 C 0.1023(10) 0.3116(2) 0.5110(2)
H124_4 H 0.0936 0.2964 0.5168
C135_4 C 0.0815(10) 0.3271(2) 0.54538(19)
H125_4 H 0.1263 0.3293 0.5524
C136_4 C 0.0518(11) 0.3025(3) 0.5523(2)
H126_4 H 0.0066 0.3000 0.5460
H127_4 H 0.0822 0.2895 0.5478
C137_4 C 0.0452(11) 0.3020(3) 0.5755(2)
H128_4 H 0.0906 0.3040 0.5818
H129_4 H 0.0262 0.2865 0.5799
C139_4 C 0.0253(10) 0.3480(3) 0.57607(19)
H132_4 H 0.0705 0.3503 0.5825
C140_4 C 0.0330(9) 0.3482(2) 0.55215(19)
C141_4 C 0.0638(8) 0.3902(3) 0.55273(19)
H135_4 H 0.0469 0.3903 0.5663
C142_4 C 0.0901(10) 0.4138(2) 0.54410(18)
C143_4 C 0.0830(9) 0.4344(3) 0.55683(19)
H136_4 H 0.0634 0.4329 0.5700
C144_4 C 0.1060(8) 0.4576(2) 0.54961(19)
C145_4 C 0.1353(9) 0.4584(2) 0.52962(19)
H137_4 H 0.1493 0.4735 0.5246
C146_4 C 0.1450(11) 0.4386(2) 0.5169(2)
C147_4 C 0.1235(9) 0.4156(2) 0.52410(18)
C148_4 C 0.1778(13) 0.4405(3) 0.4952(2)
C149_4 C 0.1202(13) 0.4328(3) 0.4789(2)
H138_4 H 0.1285 0.4164 0.4743
H139_4 H 0.1218 0.4436 0.4671
H140_4 H 0.0752 0.4338 0.4853
C150_4 C 0.2422(18) 0.4254(3) 0.4935(3)
H141_4 H 0.2644 0.4245 0.5068
H142_4 H 0.2733 0.4327 0.4836
H143_4 H 0.2302 0.4093 0.4889
C151_4 C 0.1960(15) 0.4671(3) 0.4903(3)
H144_4 H 0.1620 0.4776 0.4966
H145_4 H 0.1962 0.4695 0.4755
H146_4 H 0.2411 0.4708 0.4959
C152_4 C 0.1031(7) 0.4788(2) 0.58410(17)
H147_4 H 0.1131 0.4640 0.5905
C153_4 C 0.0980(8) 0.4797(2) 0.56213(19)
C154_4 C 0.0864(10) 0.5019(3) 0.5531(2)
H148_4 H 0.0819 0.5031 0.5387
C155_4 C 0.0813(8) 0.5231(2) 0.5656(2)
H149_4 H 0.0758 0.5384 0.5595
C156_4 C 0.0848(8) 0.5207(2) 0.58701(18)
H150_4 H 0.0806 0.5344 0.5954
C157_4 C 0.0975(9) 0.4698(2) 0.67769(18)
H151_4 H 0.0972 0.4554 0.6701
C158_4 C 0.1002(11) 0.4687(2) 0.69961(19)
H152_4 H 0.1031 0.4538 0.7065
C159_4 C 0.0983(11) 0.4903(2) 0.71061(18)
H153_4 H 0.0990 0.4900 0.7251
C160_4 C 0.0955(8) 0.51235(19) 0.70030(16)
C161_4 C 0.0958(7) 0.51147(17) 0.67879(16)
H154_4 H 0.0962 0.5262 0.6716
C162_4 C 0.0366(10) 0.6022(2) 0.7012(2)
H155_4 H 0.0025 0.6183 0.7285
C164_4 C 0.0955(13) 0.6219(3) 0.6967(3)
H158_4 H 0.0751 0.6359 0.6902
H159_4 H 0.1297 0.6150 0.6875
H160_4 H 0.1173 0.6265 0.7095
C165_4 C 0.0019(14) 0.5953(3) 0.6808(3)
H162_4 H 0.0351 0.5876 0.6718
C166_4 C 0.0698(8) 0.5797(2) 0.71135(17)
C167_4 C 0.0681(8) 0.5575(2) 0.70254(18)
H164_4 H 0.0455 0.5559 0.6898
C168_4 C 0.0982(9) 0.5362(2) 0.71124(17)
C169_4 C 0.1302(9) 0.5385(2) 0.73038(19)
H165_4 H 0.1484 0.5248 0.7369
C170_4 C 0.1357(10) 0.5614(2) 0.74033(19)
C171_4 C 0.1039(9) 0.5820(2) 0.73117(18)
C172_4 C 0.1688(10) 0.5612(2) 0.76031(19)
H166_4 H 0.1812 0.5462 0.7659
C173_4 C 0.2141(9) 0.5800(2) 0.79208(17)
H167_4 H 0.2613 0.5866 0.7911
C174_4 C 0.2183(8) 0.5537(2) 0.80193(19)
H168_4 H 0.1727 0.5461 0.8019
H169_4 H 0.2497 0.5436 0.7939
C175_4 C 0.2445(8) 0.5563(2) 0.82418(17)
H170_4 H 0.2916 0.5626 0.8239
H171_4 H 0.2459 0.5404 0.8307
C176_4 C 0.1996(8) 0.5731(2) 0.83738(17)
H172_4 H 0.2180 0.5739 0.8514
H173_4 H 0.1527 0.5667 0.8381
C177_4 C 0.1979(9) 0.5987(2) 0.82807(18)
H174_4 H 0.2442 0.6056 0.8282
H175_4 H 0.1678 0.6090 0.8363
C178_4 C 0.1704(9) 0.5972(2) 0.80534(17)
H176_4 H 0.1234 0.5904 0.8060
C179_4 C 0.1620(10) 0.6405(2) 0.8035(2)
H177_4 H 0.1679 0.6403 0.8179
C180_4 C 0.1488(11) 0.6643(2) 0.7933(2)
C181_4 C 0.1557(13) 0.6847(2) 0.8056(2)
H178_4 H 0.1738 0.6832 0.8190
C182_4 C 0.1363(13) 0.7071(3) 0.7983(2)
C183_4 C 0.1073(13) 0.7096(3) 0.7783(2)
H179_4 H 0.0931 0.7248 0.7736
C184_4 C 0.0998(13) 0.6888(3) 0.7651(2)
C185_4 C 0.1239(12) 0.6654(2) 0.7726(2)
C186_4 C 0.0698(13) 0.6920(3) 0.7437(2)
C187_4 C 0.0090(13) 0.6771(3) 0.7400(3)
H180_4 H 0.0182 0.6607 0.7445
C188_4 C 0.1154(12) 0.6827(3) 0.7274(3)
H183_4 H 0.1588 0.6912 0.7277
H184_4 H 0.0939 0.6849 0.7140
H185_4 H 0.1236 0.6656 0.7296
C189_4 C 0.0510(12) 0.7182(3) 0.7388(3)
H186_4 H 0.0203 0.7243 0.7494
H187_4 H 0.0285 0.7190 0.7255
H188_4 H 0.0925 0.7279 0.7385
C190_4 C 0.1466(11) 0.7296(2) 0.8319(2)
H189_4 H 0.1363 0.7149 0.8383
C191_4 C 0.1499(14) 0.7300(2) 0.8104(3)
C192_4 C 0.1671(17) 0.7520(4) 0.8011(3)
H190_4 H 0.1712 0.7524 0.7866
C193_4 C 0.1793(19) 0.7744(4) 0.8127(3)
H191_4 H 0.1891 0.7893 0.8065
C194_4 C 0.1742(13) 0.7705(3) 0.8342(3)
H192_4 H 0.1832 0.7839 0.8427
C195_4 C 0.0355(5) 0.56890(16) 0.62860(13)
C196_4 C 0.1060(6) 0.56941(18) 0.63296(19)
H193_4 H 0.1296 0.5550 0.6357
C197_4 C 0.1415(6) 0.59142(18) 0.6332(2)
H194_4 H 0.1881 0.5916 0.6370
C198_4 C 0.1088(6) 0.61323(17) 0.62798(14)
C199_4 C 0.0378(6) 0.61240(19) 0.62333(18)
H195_4 H 0.0140 0.6267 0.6203
C200_4 C 0.0031(6) 0.59037(19) 0.62317(18)
C202_4 C 0.1470(6) 0.63683(17) 0.62774(14)
C203_4 C 0.2195(6) 0.63721(19) 0.62865(17)
H197_4 H 0.2438 0.6227 0.6302
C204_4 C 0.2553(6) 0.65890(19) 0.62729(17)
H198_4 H 0.3036 0.6590 0.6278
C205_4 C 0.2191(5) 0.68046(18) 0.62510(16)
C206_4 C 0.1479(6) 0.68039(19) 0.6244(2)
H199_4 H 0.1236 0.6949 0.6227
C207_4 C 0.1123(6) 0.65844(19) 0.6264(2)
H200_4 H 0.0640 0.6585 0.6267
C208_4 C 0.2580(7) 0.70424(19) 0.62254(17)
Fe6_7 Fe 0.66747(18) 0.38350(4) 0.73906(3)
O28_4 O 0.2500 0.6229(2) 0.7500
O32_4 O 0.9314(4) 0.54713(13) 0.62697(13)
O33_4 O 0.2725(4) 0.77657(13) 0.61843(14)
O34_4 O 0.7275(4) 0.22343(13) 0.61843(14)
O35_4 O 0.4600(5) 0.72796(17) 0.6230(2)
O36_4 O 0.4540(5) 0.76798(18) 0.6188(2)
N17_4 N 0.3452(6) 0.74266(16) 0.58448(17)
N18_4 N 0.6548(6) 0.25734(16) 0.58448(17)
N19_4 N 0.3425(9) 0.7493(2) 0.6559(2)
N20_4 N 0.6575(9) 0.2507(2) 0.6559(2)
O15_7 O 0.9600(5) 0.22796(17) 0.6230(2)
O16_7 O 0.9540(5) 0.26798(18) 0.6188(2)
C111_7 C 0.9903(8) 0.2489(3) 0.6216(3)
C138_4 C 0.9945(11) 0.3239(3) 0.5829(2)
H130_4 H 0.9488 0.3218 0.5768
H131_4 H 0.9896 0.3236 0.5980
H133_4 H 0.9953 0.3612 0.5804
H134_4 H 0.9871 0.3455 0.5460
C163_4 C 0.9813(13) 0.6134(3) 0.7156(3)
H156_4 H 0.9457 0.6016 0.7183
H157_4 H 0.9611 0.6274 0.7089
H161_4 H 0.9642 0.5843 0.6835
H163_4 H 0.9843 0.6097 0.6741
H181_4 H 0.9981 0.6771 0.7254
H182_4 H 0.9703 0.6835 0.7477
H196_4 H 0.9565 0.5900 0.6193
C201_4 C 0.9946(5) 0.54600(16) 0.63001(14)
O15_8 O 0.0400(5) 0.77204(17) 0.6230(2)
O16_8 O 0.0460(5) 0.73202(18) 0.6188(2)
C111_8 C 0.0097(8) 0.7511(3) 0.6216(3)
C98_8 C 0.5660(3) 0.74978(19) 0.6225(2)
C99_8 C 0.6026(5) 0.72804(16) 0.6242(3)
H97_8 H 0.5788 0.7134 0.6253
C100_8 C 0.6748(5) 0.72824(16) 0.6240(3)
H98_8 H 0.6993 0.7137 0.6251
C101_8 C 0.7104(3) 0.7502(2) 0.6223(3)
C102_8 C 0.6738(4) 0.77191(17) 0.6207(3)
H99_8 H 0.6977 0.7866 0.6195
C103_8 C 0.6016(4) 0.77171(16) 0.6208(2)
H100_8 H 0.5771 0.7863 0.6197
C104_8 C 0.4903(8) 0.7489(3) 0.6216(3)
C105_8 C 0.9340(3) 0.75022(19) 0.6225(2)
C106_8 C 0.8974(5) 0.77196(16) 0.6242(3)
H101_8 H 0.9212 0.7866 0.6253
C107_8 C 0.8252(5) 0.77176(16) 0.6240(3)
H102_8 H 0.8007 0.7863 0.6251
C108_8 C 0.7896(3) 0.7498(2) 0.6223(3)
C109_8 C 0.8262(4) 0.72809(17) 0.6207(3)
H103_8 H 0.8023 0.7134 0.6195
C110_8 C 0.8984(4) 0.72829(16) 0.6208(2)
H104_8 H 0.9229 0.7137 0.6197
Fe6_8 Fe 0.33253(18) 0.61650(4) 0.73906(3)
O4_5 O 0.3938(7) 0.10320(15) 0.25954(14)
O5_5 O 0.3845(7) 0.14685(15) 0.23887(13)
O7_5 O 0.4753(4) 0.02635(12) 0.36548(11)
O8_5 O 0.5686(4) 0.04713(13) 0.37303(13)
O9_5 O 0.1757(5) 0.20298(15) 0.37550(15)
O14_5 O 0.2963(3) 0.01627(12) 0.36714(13)
N6_5 N 0.3174(8) 0.08048(19) 0.22887(15)
N7_5 N 0.3342(8) 0.12039(19) 0.20618(16)
C36_5 C 0.4136(10) 0.0019(3) 0.4469(2)
H40_5 H 0.4181 0.0031 0.4613
C37_5 C 0.4187(8) 0.0231(2) 0.4344(2)
H41_5 H 0.4242 0.0384 0.4405
C38_5 C 0.4152(8) 0.0207(2) 0.41299(18)
H42_5 H 0.4194 0.0344 0.4046
C42_5 C 0.4045(8) 0.01235(19) 0.29970(16)
C43_5 C 0.4042(7) 0.01147(17) 0.32121(16)
H46_5 H 0.4038 0.0262 0.3284
C44_5 C 0.4634(10) 0.1022(2) 0.2988(2)
C45_5 C 0.5187(13) 0.1134(3) 0.2844(3)
H47_5 H 0.4975 0.1183 0.2715
H48_5 H 0.5543 0.1016 0.2817
H49_5 H 0.5389 0.1274 0.2911
C46_5 C 0.4045(13) 0.1219(3) 0.3033(3)
H50_5 H 0.4249 0.1359 0.3098
H51_5 H 0.3703 0.1150 0.3125
H52_5 H 0.3827 0.1265 0.2905
C47_5 C 0.4981(14) 0.0953(3) 0.3192(3)
H53_5 H 0.5358 0.0843 0.3165
H54_5 H 0.4649 0.0876 0.3282
H55_5 H 0.5157 0.1097 0.3259
C48_5 C 0.4302(8) 0.0797(2) 0.28865(17)
C49_5 C 0.4319(8) 0.0575(2) 0.29746(18)
H56_5 H 0.4545 0.0559 0.3102
C50_5 C 0.4018(9) 0.0362(2) 0.28876(17)
C51_5 C 0.3698(9) 0.0385(2) 0.26962(19)
H57_5 H 0.3516 0.0248 0.2631
C52_5 C 0.3643(10) 0.0614(2) 0.25967(19)
C53_5 C 0.3961(9) 0.0820(2) 0.26883(18)
C54_5 C 0.3312(10) 0.0612(2) 0.23969(19)
H58_5 H 0.3188 0.0462 0.2341
C55_5 C 0.2859(9) 0.0800(2) 0.20792(17)
H59_5 H 0.2387 0.0866 0.2089
C56_5 C 0.2817(8) 0.0537(2) 0.19807(19)
H60_5 H 0.3273 0.0461 0.1981
H61_5 H 0.2503 0.0436 0.2061
C57_5 C 0.2555(8) 0.0563(2) 0.17582(17)
H62_5 H 0.2084 0.0626 0.1761
H63_5 H 0.2541 0.0404 0.1693
C58_5 C 0.3004(8) 0.0731(2) 0.16262(17)
H64_5 H 0.2820 0.0739 0.1486
H65_5 H 0.3473 0.0667 0.1619
C59_5 C 0.3021(9) 0.0987(2) 0.17193(18)
H66_5 H 0.2558 0.1056 0.1718
H67_5 H 0.3322 0.1090 0.1637
C60_5 C 0.3296(9) 0.0972(2) 0.19466(17)
H68_5 H 0.3766 0.0904 0.1940
C61_5 C 0.3380(10) 0.1405(2) 0.1965(2)
H69_5 H 0.3321 0.1403 0.1821
C62_5 C 0.3512(11) 0.1643(2) 0.2067(2)
C63_5 C 0.3443(13) 0.1847(2) 0.1944(2)
H70_5 H 0.3262 0.1832 0.1810
C64_5 C 0.3637(13) 0.2071(3) 0.2017(2)
C65_5 C 0.3927(13) 0.2096(3) 0.2217(2)
H71_5 H 0.4069 0.2248 0.2264
C66_5 C 0.4002(13) 0.1888(3) 0.2349(2)
C67_5 C 0.3761(12) 0.1654(2) 0.2274(2)
C68_5 C 0.4302(13) 0.1920(3) 0.2563(2)
C69_5 C 0.4910(13) 0.1771(3) 0.2600(3)
H72_5 H 0.4818 0.1607 0.2555
H73_5 H 0.5019 0.1771 0.2746
H74_5 H 0.5297 0.1835 0.2523
C70_5 C 0.3846(12) 0.1827(3) 0.2726(3)
H75_5 H 0.3412 0.1912 0.2723
H76_5 H 0.4061 0.1849 0.2860
H77_5 H 0.3764 0.1656 0.2704
C71_5 C 0.4490(12) 0.2182(3) 0.2612(3)
H78_5 H 0.4797 0.2243 0.2506
H79_5 H 0.4715 0.2190 0.2745
H80_5 H 0.4075 0.2279 0.2615
C72_5 C 0.3534(11) 0.2296(2) 0.1681(2)
H81_5 H 0.3637 0.2149 0.1617
C73_5 C 0.3501(14) 0.2300(2) 0.1896(3)
C74_5 C 0.3329(17) 0.2520(4) 0.1989(3)
H82_5 H 0.3288 0.2524 0.2134
C75_5 C 0.3207(19) 0.2744(4) 0.1873(3)
H83_5 H 0.3109 0.2893 0.1935
C76_5 C 0.3258(13) 0.2705(3) 0.1658(3)
H84_5 H 0.3168 0.2839 0.1573
C77_5 C 0.4645(5) 0.06890(16) 0.37140(13)
C78_5 C 0.3940(6) 0.06941(18) 0.36704(19)
H85_5 H 0.3704 0.0550 0.3643
C79_5 C 0.3585(6) 0.09142(18) 0.3668(2)
H86_5 H 0.3119 0.0916 0.3630
C80_5 C 0.3912(6) 0.11323(17) 0.37202(14)
C81_5 C 0.4622(6) 0.11240(19) 0.37667(18)
H87_5 H 0.4860 0.1267 0.3797
C82_5 C 0.4969(6) 0.09037(19) 0.37683(18)
H88_5 H 0.5435 0.0900 0.3807
C83_5 C 0.5054(5) 0.04600(16) 0.36999(14)
C84_5 C 0.3530(6) 0.13683(17) 0.37226(14)
C85_5 C 0.2805(6) 0.13721(19) 0.37135(17)
H89_5 H 0.2562 0.1227 0.3698
C86_5 C 0.2447(6) 0.15890(19) 0.37271(17)
H90_5 H 0.1964 0.1590 0.3722
C87_5 C 0.2809(5) 0.18046(18) 0.37490(16)
C88_5 C 0.3521(6) 0.18039(19) 0.3756(2)
H91_5 H 0.3764 0.1949 0.3773
C89_5 C 0.3877(6) 0.15844(19) 0.3736(2)
H92_5 H 0.4360 0.1585 0.3733
C90_5 C 0.2420(7) 0.20424(19) 0.37746(17)
C93_5 C 0.1500(4) 0.01991(13) 0.3668(2)
H94_5 H 0.1757 0.0341 0.3652
C94_5 C 0.0779(4) 0.02091(13) 0.3670(2)
H95_5 H 0.0553 0.0358 0.3655
Cd6_5 Cd 0.59860(4) 0.00692(2) 0.36819(2)
Cd1_5 Cd 0.40140(4) 0.99308(2) 0.36819(2)
Fe1_3 Fe 0.41541(16) 0.86542(4) 0.48910(3)
O1_5 O 0.3519(8) 0.85440(16) 0.51074(14)
O2_5 O 0.3687(7) 0.89588(16) 0.48722(13)
O3_7 O 0.5000 0.8671(3) 0.5000
O13_5 O 0.2892(5) 0.97619(17) 0.3698(2)
N2_5 N 0.4071(8) 0.83034(19) 0.47703(17)
N3_5 N 0.4373(7) 0.87012(19) 0.45702(15)
N4_5 N 0.4058(5) 0.99836(17) 0.40406(13)
N5_5 N 0.4046(5) 0.99078(15) 0.33247(13)
C1_5 C 0.3424(10) 0.7210(2) 0.5741(2)
H1_5 H 0.3408 0.7066 0.5817
C2_5 C 0.3420(12) 0.7204(2) 0.5531(2)
H2_5 H 0.3409 0.7055 0.5462
C3_5 C 0.3431(11) 0.7421(2) 0.5418(2)
H3_5 H 0.3403 0.7418 0.5273
C4_5 C 0.3487(11) 0.7645(2) 0.5525(2)
C5_5 C 0.3482(9) 0.7636(2) 0.5741(2)
H4_5 H 0.3499 0.7781 0.5815
C6_5 C 0.2888(9) 0.8542(2) 0.5515(2)
C7_5 C 0.3475(10) 0.8738(2) 0.5545(2)
H5_5 H 0.3688 0.8773 0.5413
H6_5 H 0.3820 0.8677 0.5640
H7_5 H 0.3276 0.8885 0.5601
C8_5 C 0.2313(9) 0.8642(3) 0.5379(2)
H8_5 H 0.2162 0.8796 0.5433
H9_5 H 0.1930 0.8530 0.5378
H10_5 H 0.2483 0.8663 0.5239
C9_5 C 0.2582(9) 0.8480(2) 0.57281(19)
H11_5 H 0.2924 0.8396 0.5810
H12_5 H 0.2183 0.8376 0.5710
H13_5 H 0.2445 0.8627 0.5798
C10_5 C 0.3230(9) 0.8314(2) 0.5406(2)
C11_5 C 0.3242(9) 0.8086(2) 0.5502(2)
H14_5 H 0.3071 0.8075 0.5637
C12_5 C 0.3491(10) 0.7877(2) 0.5410(2)
C13_5 C 0.3740(10) 0.7892(2) 0.5210(2)
H15_5 H 0.3903 0.7753 0.5144
C14_5 C 0.3749(10) 0.8120(2) 0.5104(2)
C15_5 C 0.3502(12) 0.8335(2) 0.5205(2)
C16_5 C 0.3977(10) 0.8116(2) 0.4890(2)
H16_5 H 0.4064 0.7964 0.4832
C17_5 C 0.4185(10) 0.8271(2) 0.45462(19)
H17_5 H 0.3737 0.8293 0.4476
C18_5 C 0.4482(11) 0.8025(3) 0.4477(2)
H18_5 H 0.4934 0.8000 0.4540
H19_5 H 0.4178 0.7895 0.4522
C19_5 C 0.4548(11) 0.8020(3) 0.4245(2)
H20_5 H 0.4094 0.8040 0.4182
H21_5 H 0.4738 0.7865 0.4201
C20_5 C 0.5055(11) 0.8239(3) 0.4171(2)
H22_5 H 0.5512 0.8218 0.4232
H23_5 H 0.5104 0.8236 0.4020
C21_5 C 0.4747(10) 0.8480(3) 0.42393(19)
H24_5 H 0.4295 0.8503 0.4175
H25_5 H 0.5047 0.8612 0.4196
C22_5 C 0.4670(9) 0.8482(2) 0.44785(19)
H26_5 H 0.5129 0.8455 0.4540
C23_5 C 0.4362(8) 0.8902(3) 0.44727(19)
H27_5 H 0.4531 0.8903 0.4337
C24_5 C 0.4099(10) 0.9138(2) 0.45590(18)
C25_5 C 0.4170(9) 0.9344(3) 0.44317(19)
H28_5 H 0.4366 0.9329 0.4300
C26_5 C 0.3940(8) 0.9576(2) 0.45039(19)
C27_5 C 0.3647(9) 0.9584(2) 0.47038(19)
H29_5 H 0.3507 0.9735 0.4754
C28_5 C 0.3550(11) 0.9386(2) 0.4831(2)
C29_5 C 0.3765(9) 0.9156(2) 0.47590(18)
C30_5 C 0.3222(13) 0.9405(3) 0.5048(2)
C31_5 C 0.3798(13) 0.9328(3) 0.5211(2)
H30_5 H 0.3715 0.9164 0.5257
H31_5 H 0.3782 0.9436 0.5329
H32_5 H 0.4248 0.9338 0.5147
C32_5 C 0.2578(18) 0.9254(3) 0.5065(3)
H33_5 H 0.2356 0.9245 0.4932
H34_5 H 0.2267 0.9327 0.5164
H35_5 H 0.2698 0.9093 0.5111
C33_5 C 0.3040(15) 0.9671(3) 0.5097(3)
H36_5 H 0.3380 0.9776 0.5034
H37_5 H 0.3038 0.9695 0.5245
H38_5 H 0.2589 0.9708 0.5041
C34_5 C 0.3969(7) 0.9788(2) 0.41590(17)
H39_5 H 0.3869 0.9640 0.4095
C35_5 C 0.4020(8) 0.9797(2) 0.43787(19)
C39_5 C 0.4025(9) 0.9698(2) 0.32231(18)
H43_5 H 0.4028 0.9554 0.3299
C40_5 C 0.3998(11) 0.9687(2) 0.30039(19)
H44_5 H 0.3969 0.9538 0.2935
C41_5 C 0.4017(11) 0.9903(2) 0.28939(18)
H45_5 H 0.4010 0.9900 0.2749
C91_5 C 0.1453(4) 0.97643(13) 0.3714(2)
H93_5 H 0.1678 0.9615 0.3729
C92_5 C 0.1837(3) 0.99767(15) 0.36901(19)
C95_5 C 0.0394(3) 0.99966(17) 0.3694(2)
C96_5 C 0.0731(4) 0.97742(14) 0.3716(2)
H96_5 H 0.0474 0.9632 0.3732
C97_5 C 0.2623(6) 0.9967(2) 0.3686(2)
Fe5_5 Fe 0.58459(16) 0.86542(4) 0.51090(3)
O30_5 O 0.5247(4) 0.97365(12) 0.36548(11)
O32_5 O 0.4314(4) 0.95287(13) 0.37303(13)
O17_5 O 0.7108(5) 0.02381(17) 0.3698(2)
C112_5 C 0.8547(4) 0.02357(13) 0.3714(2)
H105_5 H 0.8322 0.0385 0.3729
C113_5 C 0.8163(3) 0.00233(15) 0.36901(19)
C116_5 C 0.9606(3) 0.00034(17) 0.3694(2)
C117_5 C 0.9269(4) 0.02258(14) 0.3716(2)
H108_5 H 0.9526 0.0368 0.3732
C118_5 C 0.7377(6) 0.0033(2) 0.3686(2)
Fe3_3 Fe 0.58459(16) 0.13458(4) 0.48910(3)
O19_5 O 0.6481(8) 0.14560(16) 0.51074(14)
O20_5 O 0.6313(7) 0.10412(16) 0.48722(13)
N10_5 N 0.5929(8) 0.16966(19) 0.47703(17)
N11_5 N 0.5627(7) 0.12988(19) 0.45702(15)
N12_5 N 0.5942(5) 0.00164(17) 0.40406(13)
N13_5 N 0.5954(5) 0.00922(15) 0.33247(13)
C119_5 C 0.6576(10) 0.2790(2) 0.5741(2)
H109_5 H 0.6592 0.2934 0.5817
C120_5 C 0.6580(12) 0.2796(2) 0.5531(2)
H110_5 H 0.6591 0.2945 0.5462
C121_5 C 0.6569(11) 0.2579(2) 0.5418(2)
H111_5 H 0.6597 0.2582 0.5273
C122_5 C 0.6513(11) 0.2355(2) 0.5525(2)
C123_5 C 0.6518(9) 0.2364(2) 0.5741(2)
H112_5 H 0.6501 0.2219 0.5815
C124_5 C 0.7112(9) 0.1458(2) 0.5515(2)
C125_5 C 0.6525(10) 0.1262(2) 0.5545(2)
H113_5 H 0.6312 0.1227 0.5413
H114_5 H 0.6180 0.1323 0.5640
H115_5 H 0.6724 0.1115 0.5601
C126_5 C 0.7687(9) 0.1358(3) 0.5379(2)
H116_5 H 0.7838 0.1204 0.5433
H117_5 H 0.8070 0.1470 0.5378
H118_5 H 0.7517 0.1337 0.5239
C127_5 C 0.7418(9) 0.1520(2) 0.57281(19)
H119_5 H 0.7076 0.1604 0.5810
H120_5 H 0.7817 0.1624 0.5710
H121_5 H 0.7555 0.1373 0.5798
C128_5 C 0.6770(9) 0.1686(2) 0.5406(2)
C129_5 C 0.6758(9) 0.1914(2) 0.5502(2)
H122_5 H 0.6929 0.1925 0.5637
C130_5 C 0.6509(10) 0.2123(2) 0.5410(2)
C131_5 C 0.6260(10) 0.2108(2) 0.5210(2)
H123_5 H 0.6097 0.2247 0.5144
C132_5 C 0.6251(10) 0.1880(2) 0.5104(2)
C133_5 C 0.6498(12) 0.1665(2) 0.5205(2)
C134_5 C 0.6023(10) 0.1884(2) 0.4890(2)
H124_5 H 0.5936 0.2036 0.4832
C135_5 C 0.5815(10) 0.1729(2) 0.45462(19)
H125_5 H 0.6263 0.1707 0.4476
C136_5 C 0.5518(11) 0.1975(3) 0.4477(2)
H126_5 H 0.5066 0.2000 0.4540
H127_5 H 0.5822 0.2105 0.4522
C137_5 C 0.5452(11) 0.1980(3) 0.4245(2)
H128_5 H 0.5906 0.1960 0.4182
H129_5 H 0.5262 0.2135 0.4201
C138_5 C 0.4945(11) 0.1761(3) 0.4171(2)
H130_5 H 0.4488 0.1782 0.4232
H131_5 H 0.4896 0.1764 0.4020
C139_5 C 0.5253(10) 0.1520(3) 0.42393(19)
H132_5 H 0.5705 0.1497 0.4175
H133_5 H 0.4953 0.1388 0.4196
C140_5 C 0.5330(9) 0.1518(2) 0.44785(19)
H134_5 H 0.4871 0.1545 0.4540
C141_5 C 0.5638(8) 0.1098(3) 0.44727(19)
H135_5 H 0.5469 0.1097 0.4337
C142_5 C 0.5901(10) 0.0862(2) 0.45590(18)
C143_5 C 0.5830(9) 0.0656(3) 0.44317(19)
H136_5 H 0.5634 0.0671 0.4300
C144_5 C 0.6060(8) 0.0424(2) 0.45039(19)
C145_5 C 0.6353(9) 0.0416(2) 0.47038(19)
H137_5 H 0.6493 0.0265 0.4754
C146_5 C 0.6450(11) 0.0614(2) 0.4831(2)
C147_5 C 0.6235(9) 0.0844(2) 0.47590(18)
C148_5 C 0.6778(13) 0.0595(3) 0.5048(2)
C149_5 C 0.6202(13) 0.0672(3) 0.5211(2)
H138_5 H 0.6285 0.0836 0.5257
H139_5 H 0.6218 0.0564 0.5329
H140_5 H 0.5752 0.0662 0.5147
C150_5 C 0.7422(18) 0.0746(3) 0.5065(3)
H141_5 H 0.7644 0.0755 0.4932
H142_5 H 0.7733 0.0673 0.5164
H143_5 H 0.7302 0.0907 0.5111
C151_5 C 0.6960(15) 0.0329(3) 0.5097(3)
H144_5 H 0.6620 0.0224 0.5034
H145_5 H 0.6962 0.0305 0.5245
H146_5 H 0.7411 0.0292 0.5041
C152_5 C 0.6031(7) 0.0212(2) 0.41590(17)
H147_5 H 0.6131 0.0360 0.4095
C153_5 C 0.5980(8) 0.0203(2) 0.43787(19)
C157_5 C 0.5975(9) 0.0302(2) 0.32231(18)
H151_5 H 0.5972 0.0446 0.3299
C158_5 C 0.6002(11) 0.0313(2) 0.30039(19)
H152_5 H 0.6031 0.0462 0.2935
C159_5 C 0.5983(11) 0.0097(2) 0.28939(18)
H153_5 H 0.5990 0.0100 0.2749
O27_7 O 0.5000 0.1329(3) 0.5000
O18_5 O 0.7037(3) 0.98373(12) 0.36714(13)
C114_5 C 0.8500(4) 0.98009(13) 0.3668(2)
H106_5 H 0.8243 0.9659 0.3652
C115_5 C 0.9221(4) 0.97909(13) 0.3670(2)
H107_5 H 0.9447 0.9642 0.3655
O21_5 O 0.6062(7) 0.89680(15) 0.25954(14)
O22_5 O 0.6155(7) 0.85315(15) 0.23887(13)
O25_5 O 0.8243(5) 0.79702(15) 0.37550(15)
N14_5 N 0.6826(8) 0.91952(19) 0.22887(15)
N15_5 N 0.6658(8) 0.87961(19) 0.20618(16)
C154_5 C 0.5864(10) 0.9981(3) 0.4469(2)
H148_5 H 0.5819 0.9969 0.4613
C155_5 C 0.5813(8) 0.9769(2) 0.4344(2)
H149_5 H 0.5758 0.9616 0.4405
C156_5 C 0.5848(8) 0.9793(2) 0.41299(18)
H150_5 H 0.5806 0.9656 0.4046
C160_5 C 0.5955(8) 0.98765(19) 0.29970(16)
C161_5 C 0.5958(7) 0.98853(17) 0.32121(16)
H154_5 H 0.5962 0.9738 0.3284
C162_5 C 0.5366(10) 0.8978(2) 0.2988(2)
C163_5 C 0.4813(13) 0.8866(3) 0.2844(3)
H155_5 H 0.5025 0.8817 0.2715
H156_5 H 0.4457 0.8984 0.2817
H157_5 H 0.4611 0.8726 0.2911
C164_5 C 0.5955(13) 0.8781(3) 0.3033(3)
H158_5 H 0.5751 0.8641 0.3098
H159_5 H 0.6297 0.8850 0.3125
H160_5 H 0.6173 0.8735 0.2905
C165_5 C 0.5019(14) 0.9047(3) 0.3192(3)
H161_5 H 0.4642 0.9157 0.3165
H162_5 H 0.5351 0.9124 0.3282
H163_5 H 0.4843 0.8903 0.3259
C166_5 C 0.5698(8) 0.9203(2) 0.28865(17)
C167_5 C 0.5681(8) 0.9425(2) 0.29746(18)
H164_5 H 0.5455 0.9441 0.3102
C168_5 C 0.5982(9) 0.9638(2) 0.28876(17)
C169_5 C 0.6302(9) 0.9615(2) 0.26962(19)
H165_5 H 0.6484 0.9752 0.2631
C170_5 C 0.6357(10) 0.9386(2) 0.25967(19)
C171_5 C 0.6039(9) 0.9180(2) 0.26883(18)
C172_5 C 0.6688(10) 0.9388(2) 0.23969(19)
H166_5 H 0.6812 0.9538 0.2341
C173_5 C 0.7141(9) 0.9200(2) 0.20792(17)
H167_5 H 0.7613 0.9134 0.2089
C174_5 C 0.7183(8) 0.9463(2) 0.19807(19)
H168_5 H 0.6727 0.9539 0.1981
H169_5 H 0.7497 0.9564 0.2061
C175_5 C 0.7445(8) 0.9437(2) 0.17582(17)
H170_5 H 0.7916 0.9374 0.1761
H171_5 H 0.7459 0.9596 0.1693
C176_5 C 0.6996(8) 0.9269(2) 0.16262(17)
H172_5 H 0.7180 0.9261 0.1486
H173_5 H 0.6527 0.9333 0.1619
C177_5 C 0.6979(9) 0.9013(2) 0.17193(18)
H174_5 H 0.7442 0.8944 0.1718
H175_5 H 0.6678 0.8910 0.1637
C178_5 C 0.6704(9) 0.9028(2) 0.19466(17)
H176_5 H 0.6234 0.9096 0.1940
C179_5 C 0.6620(10) 0.8595(2) 0.1965(2)
H177_5 H 0.6679 0.8597 0.1821
C180_5 C 0.6488(11) 0.8357(2) 0.2067(2)
C181_5 C 0.6557(13) 0.8153(2) 0.1944(2)
H178_5 H 0.6738 0.8168 0.1810
C182_5 C 0.6363(13) 0.7929(3) 0.2017(2)
C183_5 C 0.6073(13) 0.7904(3) 0.2217(2)
H179_5 H 0.5931 0.7752 0.2264
C184_5 C 0.5998(13) 0.8112(3) 0.2349(2)
C185_5 C 0.6239(12) 0.8346(2) 0.2274(2)
C186_5 C 0.5698(13) 0.8080(3) 0.2563(2)
C187_5 C 0.5090(13) 0.8229(3) 0.2600(3)
H180_5 H 0.5182 0.8393 0.2555
H181_5 H 0.4981 0.8229 0.2746
H182_5 H 0.4703 0.8165 0.2523
C188_5 C 0.6154(12) 0.8173(3) 0.2726(3)
H183_5 H 0.6588 0.8088 0.2723
H184_5 H 0.5939 0.8151 0.2860
H185_5 H 0.6236 0.8344 0.2704
C189_5 C 0.5510(12) 0.7818(3) 0.2612(3)
H186_5 H 0.5203 0.7757 0.2506
H187_5 H 0.5285 0.7810 0.2745
H188_5 H 0.5925 0.7721 0.2615
C190_5 C 0.6466(11) 0.7704(2) 0.1681(2)
H189_5 H 0.6363 0.7851 0.1617
C191_5 C 0.6499(14) 0.7700(2) 0.1896(3)
C192_5 C 0.6671(17) 0.7480(4) 0.1989(3)
H190_5 H 0.6712 0.7476 0.2134
C193_5 C 0.6793(19) 0.7256(4) 0.1873(3)
H191_5 H 0.6891 0.7107 0.1935
C194_5 C 0.6742(13) 0.7295(3) 0.1658(3)
H192_5 H 0.6832 0.7161 0.1573
C195_5 C 0.5355(5) 0.93110(16) 0.37140(13)
C196_5 C 0.6060(6) 0.93059(18) 0.36704(19)
H193_5 H 0.6296 0.9450 0.3643
C197_5 C 0.6415(6) 0.90858(18) 0.3668(2)
H194_5 H 0.6881 0.9084 0.3630
C198_5 C 0.6088(6) 0.88677(17) 0.37202(14)
C199_5 C 0.5378(6) 0.88760(19) 0.37667(18)
H195_5 H 0.5140 0.8733 0.3797
C200_5 C 0.5031(6) 0.90963(19) 0.37683(18)
H196_5 H 0.4565 0.9100 0.3807
C201_5 C 0.4946(5) 0.95400(16) 0.36999(14)
C202_5 C 0.6470(6) 0.86317(17) 0.37226(14)
C203_5 C 0.7195(6) 0.86279(19) 0.37135(17)
H197_5 H 0.7438 0.8773 0.3698
C204_5 C 0.7553(6) 0.84110(19) 0.37271(17)
H198_5 H 0.8036 0.8410 0.3722
C205_5 C 0.7191(5) 0.81954(18) 0.37490(16)
C206_5 C 0.6479(6) 0.81961(19) 0.3756(2)
H199_5 H 0.6236 0.8051 0.3773
C207_5 C 0.6123(6) 0.84156(19) 0.3736(2)
H200_5 H 0.5640 0.8415 0.3733
C208_5 C 0.7580(7) 0.79576(19) 0.37746(17)
Fe5_6 Fe 0.41541(16) 0.13458(4) 0.51090(3)
Cd1_6 Cd 0.40140(4) 0.00692(2) 0.63181(2)
O1_6 O 0.3519(8) 0.14560(16) 0.48926(14)
O2_6 O 0.3687(7) 0.10412(16) 0.51278(13)
O13_6 O 0.2892(5) 0.02381(17) 0.6302(2)
N2_6 N 0.4071(8) 0.16966(19) 0.52297(17)
N3_6 N 0.4373(7) 0.12988(19) 0.54298(15)
N4_6 N 0.4058(5) 0.00164(17) 0.59594(13)
N5_6 N 0.4046(5) 0.00922(15) 0.66753(13)
C1_6 C 0.3424(10) 0.2790(2) 0.4259(2)
H1_6 H 0.3408 0.2934 0.4183
C2_6 C 0.3420(12) 0.2796(2) 0.4469(2)
H2_6 H 0.3409 0.2945 0.4538
C3_6 C 0.3431(11) 0.2579(2) 0.4582(2)
H3_6 H 0.3403 0.2582 0.4727
C4_6 C 0.3487(11) 0.2355(2) 0.4475(2)
C5_6 C 0.3482(9) 0.2364(2) 0.4259(2)
H4_6 H 0.3499 0.2219 0.4185
C6_6 C 0.2888(9) 0.1458(2) 0.4485(2)
C7_6 C 0.3475(10) 0.1262(2) 0.4455(2)
H5_6 H 0.3688 0.1227 0.4587
H6_6 H 0.3820 0.1323 0.4360
H7_6 H 0.3276 0.1115 0.4399
C8_6 C 0.2313(9) 0.1358(3) 0.4621(2)
H8_6 H 0.2162 0.1204 0.4567
H9_6 H 0.1930 0.1470 0.4622
H10_6 H 0.2483 0.1337 0.4761
C9_6 C 0.2582(9) 0.1520(2) 0.42719(19)
H11_6 H 0.2924 0.1604 0.4190
H12_6 H 0.2183 0.1624 0.4290
H13_6 H 0.2445 0.1373 0.4202
C10_6 C 0.3230(9) 0.1686(2) 0.4594(2)
C11_6 C 0.3242(9) 0.1914(2) 0.4498(2)
H14_6 H 0.3071 0.1925 0.4363
C12_6 C 0.3491(10) 0.2123(2) 0.4590(2)
C13_6 C 0.3740(10) 0.2108(2) 0.4790(2)
H15_6 H 0.3903 0.2247 0.4856
C14_6 C 0.3749(10) 0.1880(2) 0.4896(2)
C15_6 C 0.3502(12) 0.1665(2) 0.4795(2)
C16_6 C 0.3977(10) 0.1884(2) 0.5110(2)
H16_6 H 0.4064 0.2036 0.5168
C17_6 C 0.4185(10) 0.1729(2) 0.54538(19)
H17_6 H 0.3737 0.1707 0.5524
C18_6 C 0.4482(11) 0.1975(3) 0.5523(2)
H18_6 H 0.4934 0.2000 0.5460
H19_6 H 0.4178 0.2105 0.5478
C19_6 C 0.4548(11) 0.1980(3) 0.5755(2)
H20_6 H 0.4094 0.1960 0.5818
H21_6 H 0.4738 0.2135 0.5799
C20_6 C 0.5055(11) 0.1761(3) 0.5829(2)
H22_6 H 0.5512 0.1782 0.5768
H23_6 H 0.5104 0.1764 0.5980
C21_6 C 0.4747(10) 0.1520(3) 0.57607(19)
H24_6 H 0.4295 0.1497 0.5825
H25_6 H 0.5047 0.1388 0.5804
C22_6 C 0.4670(9) 0.1518(2) 0.55215(19)
H26_6 H 0.5129 0.1545 0.5460
C23_6 C 0.4362(8) 0.1098(3) 0.55273(19)
H27_6 H 0.4531 0.1097 0.5663
C24_6 C 0.4099(10) 0.0862(2) 0.54410(18)
C25_6 C 0.4170(9) 0.0656(3) 0.55683(19)
H28_6 H 0.4366 0.0671 0.5700
C26_6 C 0.3940(8) 0.0424(2) 0.54961(19)
C27_6 C 0.3647(9) 0.0416(2) 0.52962(19)
H29_6 H 0.3507 0.0265 0.5246
C28_6 C 0.3550(11) 0.0614(2) 0.5169(2)
C29_6 C 0.3765(9) 0.0844(2) 0.52410(18)
C30_6 C 0.3222(13) 0.0595(3) 0.4952(2)
C31_6 C 0.3798(13) 0.0672(3) 0.4789(2)
H30_6 H 0.3715 0.0836 0.4743
H31_6 H 0.3782 0.0564 0.4671
H32_6 H 0.4248 0.0662 0.4853
C32_6 C 0.2578(18) 0.0746(3) 0.4935(3)
H33_6 H 0.2356 0.0755 0.5068
H34_6 H 0.2267 0.0673 0.4836
H35_6 H 0.2698 0.0907 0.4889
C33_6 C 0.3040(15) 0.0329(3) 0.4903(3)
H36_6 H 0.3380 0.0224 0.4966
H37_6 H 0.3038 0.0305 0.4755
H38_6 H 0.2589 0.0292 0.4959
C34_6 C 0.3969(7) 0.0212(2) 0.58410(17)
H39_6 H 0.3869 0.0360 0.5905
C35_6 C 0.4020(8) 0.0203(2) 0.56213(19)
C39_6 C 0.4025(9) 0.0302(2) 0.67769(18)
H43_6 H 0.4028 0.0446 0.6701
C40_6 C 0.3998(11) 0.0313(2) 0.69961(19)
H44_6 H 0.3969 0.0462 0.7065
C41_6 C 0.4017(11) 0.0097(2) 0.71061(18)
H45_6 H 0.4010 0.0100 0.7251
C91_6 C 0.1453(4) 0.02357(13) 0.6286(2)
H93_6 H 0.1678 0.0385 0.6271
C92_6 C 0.1837(3) 0.00233(15) 0.63099(19)
C95_6 C 0.0394(3) 0.00034(17) 0.6306(2)
C96_6 C 0.0731(4) 0.02258(14) 0.6284(2)
H96_6 H 0.0474 0.0368 0.6268
C97_6 C 0.2623(6) 0.0033(2) 0.6314(2)
O30_6 O 0.5247(4) 0.02635(12) 0.63452(11)
O32_6 O 0.4314(4) 0.04713(13) 0.62697(13)
O4_6 O 0.3938(7) 0.89680(15) 0.74046(14)
O5_6 O 0.3845(7) 0.85315(15) 0.76113(13)
O7_6 O 0.4753(4) 0.97365(12) 0.63452(11)
O8_6 O 0.5686(4) 0.95287(13) 0.62697(13)
O9_6 O 0.1757(5) 0.79702(15) 0.62450(15)
O14_6 O 0.2963(3) 0.98373(12) 0.63286(13)
N6_6 N 0.3174(8) 0.91952(19) 0.77113(15)
N7_6 N 0.3342(8) 0.87961(19) 0.79382(16)
C36_6 C 0.4136(10) 0.9981(3) 0.5531(2)
H40_6 H 0.4181 0.9969 0.5387
C37_6 C 0.4187(8) 0.9769(2) 0.5656(2)
H41_6 H 0.4242 0.9616 0.5595
C38_6 C 0.4152(8) 0.9793(2) 0.58701(18)
H42_6 H 0.4194 0.9656 0.5954
C42_6 C 0.4045(8) 0.98765(19) 0.70030(16)
C43_6 C 0.4042(7) 0.98853(17) 0.67879(16)
H46_6 H 0.4038 0.9738 0.6716
C44_6 C 0.4634(10) 0.8978(2) 0.7012(2)
C45_6 C 0.5187(13) 0.8866(3) 0.7156(3)
H47_6 H 0.4975 0.8817 0.7285
H48_6 H 0.5543 0.8984 0.7183
H49_6 H 0.5389 0.8726 0.7089
C46_6 C 0.4045(13) 0.8781(3) 0.6967(3)
H50_6 H 0.4249 0.8641 0.6902
H51_6 H 0.3703 0.8850 0.6875
H52_6 H 0.3827 0.8735 0.7095
C47_6 C 0.4981(14) 0.9047(3) 0.6808(3)
H53_6 H 0.5358 0.9157 0.6835
H54_6 H 0.4649 0.9124 0.6718
H55_6 H 0.5157 0.8903 0.6741
C48_6 C 0.4302(8) 0.9203(2) 0.71135(17)
C49_6 C 0.4319(8) 0.9425(2) 0.70254(18)
H56_6 H 0.4545 0.9441 0.6898
C50_6 C 0.4018(9) 0.9638(2) 0.71124(17)
C51_6 C 0.3698(9) 0.9615(2) 0.73038(19)
H57_6 H 0.3516 0.9752 0.7369
C52_6 C 0.3643(10) 0.9386(2) 0.74033(19)
C53_6 C 0.3961(9) 0.9180(2) 0.73117(18)
C54_6 C 0.3312(10) 0.9388(2) 0.76031(19)
H58_6 H 0.3188 0.9538 0.7659
C55_6 C 0.2859(9) 0.9200(2) 0.79208(17)
H59_6 H 0.2387 0.9134 0.7911
C56_6 C 0.2817(8) 0.9463(2) 0.80193(19)
H60_6 H 0.3273 0.9539 0.8019
H61_6 H 0.2503 0.9564 0.7939
C57_6 C 0.2555(8) 0.9437(2) 0.82418(17)
H62_6 H 0.2084 0.9374 0.8239
H63_6 H 0.2541 0.9596 0.8307
C58_6 C 0.3004(8) 0.9269(2) 0.83738(17)
H64_6 H 0.2820 0.9261 0.8514
H65_6 H 0.3473 0.9333 0.8381
C59_6 C 0.3021(9) 0.9013(2) 0.82807(18)
H66_6 H 0.2558 0.8944 0.8282
H67_6 H 0.3322 0.8910 0.8363
C60_6 C 0.3296(9) 0.9028(2) 0.80534(17)
H68_6 H 0.3766 0.9096 0.8060
C61_6 C 0.3380(10) 0.8595(2) 0.8035(2)
H69_6 H 0.3321 0.8597 0.8179
C62_6 C 0.3512(11) 0.8357(2) 0.7933(2)
C63_6 C 0.3443(13) 0.8153(2) 0.8056(2)
H70_6 H 0.3262 0.8168 0.8190
C64_6 C 0.3637(13) 0.7929(3) 0.7983(2)
C65_6 C 0.3927(13) 0.7904(3) 0.7783(2)
H71_6 H 0.4069 0.7752 0.7736
C66_6 C 0.4002(13) 0.8112(3) 0.7651(2)
C67_6 C 0.3761(12) 0.8346(2) 0.7726(2)
C68_6 C 0.4302(13) 0.8080(3) 0.7437(2)
C69_6 C 0.4910(13) 0.8229(3) 0.7400(3)
H72_6 H 0.4818 0.8393 0.7445
H73_6 H 0.5019 0.8229 0.7254
H74_6 H 0.5297 0.8165 0.7477
C70_6 C 0.3846(12) 0.8173(3) 0.7274(3)
H75_6 H 0.3412 0.8088 0.7277
H76_6 H 0.4061 0.8151 0.7140
H77_6 H 0.3764 0.8344 0.7296
C71_6 C 0.4490(12) 0.7818(3) 0.7388(3)
H78_6 H 0.4797 0.7757 0.7494
H79_6 H 0.4715 0.7810 0.7255
H80_6 H 0.4075 0.7721 0.7385
C72_6 C 0.3534(11) 0.7704(2) 0.8319(2)
H81_6 H 0.3637 0.7851 0.8383
C73_6 C 0.3501(14) 0.7700(2) 0.8104(3)
C74_6 C 0.3329(17) 0.7480(4) 0.8011(3)
H82_6 H 0.3288 0.7476 0.7866
C75_6 C 0.3207(19) 0.7256(4) 0.8127(3)
H83_6 H 0.3109 0.7107 0.8065
C76_6 C 0.3258(13) 0.7295(3) 0.8342(3)
H84_6 H 0.3168 0.7161 0.8427
C77_6 C 0.4645(5) 0.93110(16) 0.62860(13)
C78_6 C 0.3940(6) 0.93059(18) 0.63296(19)
H85_6 H 0.3704 0.9450 0.6357
C79_6 C 0.3585(6) 0.90858(18) 0.6332(2)
H86_6 H 0.3119 0.9084 0.6370
C80_6 C 0.3912(6) 0.88677(17) 0.62798(14)
C81_6 C 0.4622(6) 0.88760(19) 0.62333(18)
H87_6 H 0.4860 0.8733 0.6203
C82_6 C 0.4969(6) 0.90963(19) 0.62317(18)
H88_6 H 0.5435 0.9100 0.6193
C83_6 C 0.5054(5) 0.95400(16) 0.63001(14)
C84_6 C 0.3530(6) 0.86317(17) 0.62774(14)
C85_6 C 0.2805(6) 0.86279(19) 0.62865(17)
H89_6 H 0.2562 0.8773 0.6302
C86_6 C 0.2447(6) 0.84110(19) 0.62729(17)
H90_6 H 0.1964 0.8410 0.6278
C87_6 C 0.2809(5) 0.81954(18) 0.62510(16)
C88_6 C 0.3521(6) 0.81961(19) 0.6244(2)
H91_6 H 0.3764 0.8051 0.6227
C89_6 C 0.3877(6) 0.84156(19) 0.6264(2)
H92_6 H 0.4360 0.8415 0.6267
C90_6 C 0.2420(7) 0.79576(19) 0.62254(17)
C93_6 C 0.1500(4) 0.98009(13) 0.6332(2)
H94_6 H 0.1757 0.9659 0.6348
C94_6 C 0.0779(4) 0.97909(13) 0.6330(2)
H95_6 H 0.0553 0.9642 0.6345
Cd6_6 Cd 0.59860(4) 0.99308(2) 0.63181(2)
O18_6 O 0.7037(3) 0.01627(12) 0.63286(13)
C114_6 C 0.8500(4) 0.01991(13) 0.6332(2)
H106_6 H 0.8243 0.0341 0.6348
C115_6 C 0.9221(4) 0.02091(13) 0.6330(2)
H107_6 H 0.9447 0.0358 0.6345
O21_6 O 0.6062(7) 0.10320(15) 0.74046(14)
O22_6 O 0.6155(7) 0.14685(15) 0.76113(13)
O25_6 O 0.8243(5) 0.20298(15) 0.62450(15)
N14_6 N 0.6826(8) 0.08048(19) 0.77113(15)
N15_6 N 0.6658(8) 0.12039(19) 0.79382(16)
C154_6 C 0.5864(10) 0.0019(3) 0.5531(2)
H148_6 H 0.5819 0.0031 0.5387
C155_6 C 0.5813(8) 0.0231(2) 0.5656(2)
H149_6 H 0.5758 0.0384 0.5595
C156_6 C 0.5848(8) 0.0207(2) 0.58701(18)
H150_6 H 0.5806 0.0344 0.5954
C160_6 C 0.5955(8) 0.01235(19) 0.70030(16)
C161_6 C 0.5958(7) 0.01147(17) 0.67879(16)
H154_6 H 0.5962 0.0262 0.6716
C162_6 C 0.5366(10) 0.1022(2) 0.7012(2)
C163_6 C 0.4813(13) 0.1134(3) 0.7156(3)
H155_6 H 0.5025 0.1183 0.7285
H156_6 H 0.4457 0.1016 0.7183
H157_6 H 0.4611 0.1274 0.7089
C164_6 C 0.5955(13) 0.1219(3) 0.6967(3)
H158_6 H 0.5751 0.1359 0.6902
H159_6 H 0.6297 0.1150 0.6875
H160_6 H 0.6173 0.1265 0.7095
C165_6 C 0.5019(14) 0.0953(3) 0.6808(3)
H161_6 H 0.4642 0.0843 0.6835
H162_6 H 0.5351 0.0876 0.6718
H163_6 H 0.4843 0.1097 0.6741
C166_6 C 0.5698(8) 0.0797(2) 0.71135(17)
C167_6 C 0.5681(8) 0.0575(2) 0.70254(18)
H164_6 H 0.5455 0.0559 0.6898
C168_6 C 0.5982(9) 0.0362(2) 0.71124(17)
C169_6 C 0.6302(9) 0.0385(2) 0.73038(19)
H165_6 H 0.6484 0.0248 0.7369
C170_6 C 0.6357(10) 0.0614(2) 0.74033(19)
C171_6 C 0.6039(9) 0.0820(2) 0.73117(18)
C172_6 C 0.6688(10) 0.0612(2) 0.76031(19)
H166_6 H 0.6812 0.0462 0.7659
C173_6 C 0.7141(9) 0.0800(2) 0.79208(17)
H167_6 H 0.7613 0.0866 0.7911
C174_6 C 0.7183(8) 0.0537(2) 0.80193(19)
H168_6 H 0.6727 0.0461 0.8019
H169_6 H 0.7497 0.0436 0.7939
C175_6 C 0.7445(8) 0.0563(2) 0.82418(17)
H170_6 H 0.7916 0.0626 0.8239
H171_6 H 0.7459 0.0404 0.8307
C176_6 C 0.6996(8) 0.0731(2) 0.83738(17)
H172_6 H 0.7180 0.0739 0.8514
H173_6 H 0.6527 0.0667 0.8381
C177_6 C 0.6979(9) 0.0987(2) 0.82807(18)
H174_6 H 0.7442 0.1056 0.8282
H175_6 H 0.6678 0.1090 0.8363
C178_6 C 0.6704(9) 0.0972(2) 0.80534(17)
H176_6 H 0.6234 0.0904 0.8060
C179_6 C 0.6620(10) 0.1405(2) 0.8035(2)
H177_6 H 0.6679 0.1403 0.8179
C180_6 C 0.6488(11) 0.1643(2) 0.7933(2)
C181_6 C 0.6557(13) 0.1847(2) 0.8056(2)
H178_6 H 0.6738 0.1832 0.8190
C182_6 C 0.6363(13) 0.2071(3) 0.7983(2)
C183_6 C 0.6073(13) 0.2096(3) 0.7783(2)
H179_6 H 0.5931 0.2248 0.7736
C184_6 C 0.5998(13) 0.1888(3) 0.7651(2)
C185_6 C 0.6239(12) 0.1654(2) 0.7726(2)
C186_6 C 0.5698(13) 0.1920(3) 0.7437(2)
C187_6 C 0.5090(13) 0.1771(3) 0.7400(3)
H180_6 H 0.5182 0.1607 0.7445
H181_6 H 0.4981 0.1771 0.7254
H182_6 H 0.4703 0.1835 0.7477
C188_6 C 0.6154(12) 0.1827(3) 0.7274(3)
H183_6 H 0.6588 0.1912 0.7277
H184_6 H 0.5939 0.1849 0.7140
H185_6 H 0.6236 0.1656 0.7296
C189_6 C 0.5510(12) 0.2182(3) 0.7388(3)
H186_6 H 0.5203 0.2243 0.7494
H187_6 H 0.5285 0.2190 0.7255
H188_6 H 0.5925 0.2279 0.7385
C190_6 C 0.6466(11) 0.2296(2) 0.8319(2)
H189_6 H 0.6363 0.2149 0.8383
C191_6 C 0.6499(14) 0.2300(2) 0.8104(3)
C192_6 C 0.6671(17) 0.2520(4) 0.8011(3)
H190_6 H 0.6712 0.2524 0.7866
C193_6 C 0.6793(19) 0.2744(4) 0.8127(3)
H191_6 H 0.6891 0.2893 0.8065
C194_6 C 0.6742(13) 0.2705(3) 0.8342(3)
H192_6 H 0.6832 0.2839 0.8427
C195_6 C 0.5355(5) 0.06890(16) 0.62860(13)
C196_6 C 0.6060(6) 0.06941(18) 0.63296(19)
H193_6 H 0.6296 0.0550 0.6357
C197_6 C 0.6415(6) 0.09142(18) 0.6332(2)
H194_6 H 0.6881 0.0916 0.6370
C198_6 C 0.6088(6) 0.11323(17) 0.62798(14)
C199_6 C 0.5378(6) 0.11240(19) 0.62333(18)
H195_6 H 0.5140 0.1267 0.6203
C200_6 C 0.5031(6) 0.09037(19) 0.62317(18)
H196_6 H 0.4565 0.0900 0.6193
C201_6 C 0.4946(5) 0.04600(16) 0.63001(14)
C202_6 C 0.6470(6) 0.13683(17) 0.62774(14)
C203_6 C 0.7195(6) 0.13721(19) 0.62865(17)
H197_6 H 0.7438 0.1227 0.6302
C204_6 C 0.7553(6) 0.15890(19) 0.62729(17)
H198_6 H 0.8036 0.1590 0.6278
C205_6 C 0.7191(5) 0.18046(18) 0.62510(16)
C206_6 C 0.6479(6) 0.18039(19) 0.6244(2)
H199_6 H 0.6236 0.1949 0.6227
C207_6 C 0.6123(6) 0.15844(19) 0.6264(2)
H200_6 H 0.5640 0.1585 0.6267
C208_6 C 0.7580(7) 0.20424(19) 0.62254(17)
O17_6 O 0.7108(5) 0.97619(17) 0.6302(2)
C112_6 C 0.8547(4) 0.97643(13) 0.6286(2)
H105_6 H 0.8322 0.9615 0.6271
C113_6 C 0.8163(3) 0.99767(15) 0.63099(19)
C116_6 C 0.9606(3) 0.99966(17) 0.6306(2)
C117_6 C 0.9269(4) 0.97742(14) 0.6284(2)
H108_6 H 0.9526 0.9632 0.6268
C118_6 C 0.7377(6) 0.9967(2) 0.6314(2)
O19_6 O 0.6481(8) 0.85440(16) 0.48926(14)
O20_6 O 0.6313(7) 0.89588(16) 0.51278(13)
N10_6 N 0.5929(8) 0.83034(19) 0.52297(17)
N11_6 N 0.5627(7) 0.87012(19) 0.54298(15)
N12_6 N 0.5942(5) 0.99836(17) 0.59594(13)
N13_6 N 0.5954(5) 0.99078(15) 0.66753(13)
C119_6 C 0.6576(10) 0.7210(2) 0.4259(2)
H109_6 H 0.6592 0.7066 0.4183
C120_6 C 0.6580(12) 0.7204(2) 0.4469(2)
H110_6 H 0.6591 0.7055 0.4538
C121_6 C 0.6569(11) 0.7421(2) 0.4582(2)
H111_6 H 0.6597 0.7418 0.4727
C122_6 C 0.6513(11) 0.7645(2) 0.4475(2)
C123_6 C 0.6518(9) 0.7636(2) 0.4259(2)
H112_6 H 0.6501 0.7781 0.4185
C124_6 C 0.7112(9) 0.8542(2) 0.4485(2)
C125_6 C 0.6525(10) 0.8738(2) 0.4455(2)
H113_6 H 0.6312 0.8773 0.4587
H114_6 H 0.6180 0.8677 0.4360
H115_6 H 0.6724 0.8885 0.4399
C126_6 C 0.7687(9) 0.8642(3) 0.4621(2)
H116_6 H 0.7838 0.8796 0.4567
H117_6 H 0.8070 0.8530 0.4622
H118_6 H 0.7517 0.8663 0.4761
C127_6 C 0.7418(9) 0.8480(2) 0.42719(19)
H119_6 H 0.7076 0.8396 0.4190
H120_6 H 0.7817 0.8376 0.4290
H121_6 H 0.7555 0.8627 0.4202
C128_6 C 0.6770(9) 0.8314(2) 0.4594(2)
C129_6 C 0.6758(9) 0.8086(2) 0.4498(2)
H122_6 H 0.6929 0.8075 0.4363
C130_6 C 0.6509(10) 0.7877(2) 0.4590(2)
C131_6 C 0.6260(10) 0.7892(2) 0.4790(2)
H123_6 H 0.6097 0.7753 0.4856
C132_6 C 0.6251(10) 0.8120(2) 0.4896(2)
C133_6 C 0.6498(12) 0.8335(2) 0.4795(2)
C134_6 C 0.6023(10) 0.8116(2) 0.5110(2)
H124_6 H 0.5936 0.7964 0.5168
C135_6 C 0.5815(10) 0.8271(2) 0.54538(19)
H125_6 H 0.6263 0.8293 0.5524
C136_6 C 0.5518(11) 0.8025(3) 0.5523(2)
H126_6 H 0.5066 0.8000 0.5460
H127_6 H 0.5822 0.7895 0.5478
C137_6 C 0.5452(11) 0.8020(3) 0.5755(2)
H128_6 H 0.5906 0.8040 0.5818
H129_6 H 0.5262 0.7865 0.5799
C138_6 C 0.4945(11) 0.8239(3) 0.5829(2)
H130_6 H 0.4488 0.8218 0.5768
H131_6 H 0.4896 0.8236 0.5980
C139_6 C 0.5253(10) 0.8480(3) 0.57607(19)
H132_6 H 0.5705 0.8503 0.5825
H133_6 H 0.4953 0.8612 0.5804
C140_6 C 0.5330(9) 0.8482(2) 0.55215(19)
H134_6 H 0.4871 0.8455 0.5460
C141_6 C 0.5638(8) 0.8902(3) 0.55273(19)
H135_6 H 0.5469 0.8903 0.5663
C142_6 C 0.5901(10) 0.9138(2) 0.54410(18)
C143_6 C 0.5830(9) 0.9344(3) 0.55683(19)
H136_6 H 0.5634 0.9329 0.5700
C144_6 C 0.6060(8) 0.9576(2) 0.54961(19)
C145_6 C 0.6353(9) 0.9584(2) 0.52962(19)
H137_6 H 0.6493 0.9735 0.5246
C146_6 C 0.6450(11) 0.9386(2) 0.5169(2)
C147_6 C 0.6235(9) 0.9156(2) 0.52410(18)
C148_6 C 0.6778(13) 0.9405(3) 0.4952(2)
C149_6 C 0.6202(13) 0.9328(3) 0.4789(2)
H138_6 H 0.6285 0.9164 0.4743
H139_6 H 0.6218 0.9436 0.4671
H140_6 H 0.5752 0.9338 0.4853
C150_6 C 0.7422(18) 0.9254(3) 0.4935(3)
H141_6 H 0.7644 0.9245 0.5068
H142_6 H 0.7733 0.9327 0.4836
H143_6 H 0.7302 0.9093 0.4889
C151_6 C 0.6960(15) 0.9671(3) 0.4903(3)
H144_6 H 0.6620 0.9776 0.4966
H145_6 H 0.6962 0.9695 0.4755
H146_6 H 0.7411 0.9708 0.4959
C152_6 C 0.6031(7) 0.9788(2) 0.58410(17)
H147_6 H 0.6131 0.9640 0.5905
C153_6 C 0.5980(8) 0.9797(2) 0.56213(19)
C157_6 C 0.5975(9) 0.9698(2) 0.67769(18)
H151_6 H 0.5972 0.9554 0.6701
C158_6 C 0.6002(11) 0.9687(2) 0.69961(19)
H152_6 H 0.6031 0.9538 0.7065
C159_6 C 0.5983(11) 0.9903(2) 0.71061(18)
H153_6 H 0.5990 0.9900 0.7251
O1_7 O 0.3519(8) 0.35440(16) 0.01074(14)
O3_8 O 0.5000 0.3671(3) 0.0000
C1_7 C 0.3424(10) 0.2210(2) 0.0741(2)
H1_7 H 0.3408 0.2066 0.0817
C2_7 C 0.3420(12) 0.2204(2) 0.0531(2)
H2_7 H 0.3409 0.2055 0.0462
C3_7 C 0.3431(11) 0.2421(2) 0.0418(2)
H3_7 H 0.3403 0.2418 0.0273
C4_7 C 0.3487(11) 0.2645(2) 0.0525(2)
C5_7 C 0.3482(9) 0.2636(2) 0.0741(2)
H4_7 H 0.3499 0.2781 0.0815
C6_7 C 0.2888(9) 0.3542(2) 0.0515(2)
C7_7 C 0.3475(10) 0.3738(2) 0.0545(2)
H5_7 H 0.3688 0.3773 0.0413
H6_7 H 0.3820 0.3677 0.0640
H7_7 H 0.3276 0.3885 0.0601
C8_7 C 0.2313(9) 0.3642(3) 0.0379(2)
H8_7 H 0.2162 0.3796 0.0433
H9_7 H 0.1930 0.3530 0.0378
H10_7 H 0.2483 0.3663 0.0239
C9_7 C 0.2582(9) 0.3480(2) 0.07281(19)
H11_7 H 0.2924 0.3396 0.0810
H12_7 H 0.2183 0.3376 0.0710
H13_7 H 0.2445 0.3627 0.0798
C10_7 C 0.3230(9) 0.3314(2) 0.0406(2)
C11_7 C 0.3242(9) 0.3086(2) 0.0502(2)
H14_7 H 0.3071 0.3075 0.0637
C12_7 C 0.3491(10) 0.2877(2) 0.0410(2)
C13_7 C 0.3740(10) 0.2892(2) 0.0210(2)
H15_7 H 0.3903 0.2753 0.0144
C14_7 C 0.3749(10) 0.3120(2) 0.0104(2)
C15_7 C 0.3502(12) 0.3335(2) 0.0205(2)
C30_7 C 0.3222(13) 0.4405(3) 0.0048(2)
C31_7 C 0.3798(13) 0.4328(3) 0.0211(2)
H30_7 H 0.3715 0.4164 0.0257
H31_7 H 0.3782 0.4436 0.0329
H32_7 H 0.4248 0.4338 0.0147
C32_7 C 0.2578(18) 0.4254(3) 0.0065(3)
H34_7 H 0.2267 0.4327 0.0164
H35_7 H 0.2698 0.4093 0.0111
C33_7 C 0.3040(15) 0.4671(3) 0.0097(3)
H36_7 H 0.3380 0.4776 0.0034
H37_7 H 0.3038 0.4695 0.0245
H38_7 H 0.2589 0.4708 0.0041
Fe5_7 Fe 0.58459(16) 0.36542(4) 0.01090(3)
Cd1_7 Cd 0.40140(4) 0.49308(2) 0.86819(2)
Fe1_4 Fe 0.41541(16) 0.36542(4) 0.98910(3)
O2_7 O 0.3687(7) 0.39588(16) 0.98722(13)
O3_9 O 0.5000 0.3671(3) 1.0000
O4_7 O 0.3938(7) 0.60320(15) 0.75954(14)
O5_7 O 0.3845(7) 0.64685(15) 0.73887(13)
O7_7 O 0.4753(4) 0.52635(12) 0.86548(11)
O8_7 O 0.5686(4) 0.54713(13) 0.87303(13)
O9_7 O 0.1757(5) 0.70298(15) 0.87550(15)
O13_7 O 0.2892(5) 0.47619(17) 0.8698(2)
O14_7 O 0.2963(3) 0.51627(12) 0.86714(13)
N2_7 N 0.4071(8) 0.33034(19) 0.97703(17)
N3_7 N 0.4373(7) 0.37012(19) 0.95702(15)
N4_7 N 0.4058(5) 0.49836(17) 0.90406(13)
N5_7 N 0.4046(5) 0.49078(15) 0.83247(13)
N6_7 N 0.3174(8) 0.58048(19) 0.72887(15)
N7_7 N 0.3342(8) 0.62039(19) 0.70618(16)
C16_7 C 0.3977(10) 0.3116(2) 0.9890(2)
H16_7 H 0.4064 0.2964 0.9832
C17_7 C 0.4185(10) 0.3271(2) 0.95462(19)
H17_7 H 0.3737 0.3293 0.9476
C18_7 C 0.4482(11) 0.3025(3) 0.9477(2)
H18_7 H 0.4934 0.3000 0.9540
H19_7 H 0.4178 0.2895 0.9522
C19_7 C 0.4548(11) 0.3020(3) 0.9245(2)
H20_7 H 0.4094 0.3040 0.9182
H21_7 H 0.4738 0.2865 0.9201
C20_7 C 0.5055(11) 0.3239(3) 0.9171(2)
H22_7 H 0.5512 0.3218 0.9232
H23_7 H 0.5104 0.3236 0.9020
C21_7 C 0.4747(10) 0.3480(3) 0.92393(19)
H24_7 H 0.4295 0.3503 0.9175
H25_7 H 0.5047 0.3612 0.9196
C22_7 C 0.4670(9) 0.3482(2) 0.94785(19)
H26_7 H 0.5129 0.3455 0.9540
C23_7 C 0.4362(8) 0.3902(3) 0.94727(19)
H27_7 H 0.4531 0.3903 0.9337
C24_7 C 0.4099(10) 0.4138(2) 0.95590(18)
C25_7 C 0.4170(9) 0.4344(3) 0.94317(19)
H28_7 H 0.4366 0.4329 0.9300
C26_7 C 0.3940(8) 0.4576(2) 0.95039(19)
C27_7 C 0.3647(9) 0.4584(2) 0.97038(19)
H29_7 H 0.3507 0.4735 0.9754
C28_7 C 0.3550(11) 0.4386(2) 0.9831(2)
C29_7 C 0.3765(9) 0.4156(2) 0.97590(18)
H33_7 H 0.2356 0.4245 0.9932
C34_7 C 0.3969(7) 0.4788(2) 0.91590(17)
H39_7 H 0.3869 0.4640 0.9095
C35_7 C 0.4020(8) 0.4797(2) 0.93787(19)
C36_7 C 0.4136(10) 0.5019(3) 0.9469(2)
H40_7 H 0.4181 0.5031 0.9613
C37_7 C 0.4187(8) 0.5231(2) 0.9344(2)
H41_7 H 0.4242 0.5384 0.9405
C38_7 C 0.4152(8) 0.5207(2) 0.91299(18)
H42_7 H 0.4194 0.5344 0.9046
C39_7 C 0.4025(9) 0.4698(2) 0.82231(18)
H43_7 H 0.4028 0.4554 0.8299
C40_7 C 0.3998(11) 0.4687(2) 0.80039(19)
H44_7 H 0.3969 0.4538 0.7935
C41_7 C 0.4017(11) 0.4903(2) 0.78939(18)
H45_7 H 0.4010 0.4900 0.7749
C42_7 C 0.4045(8) 0.51235(19) 0.79970(16)
C43_7 C 0.4042(7) 0.51147(17) 0.82121(16)
H46_7 H 0.4038 0.5262 0.8284
C44_7 C 0.4634(10) 0.6022(2) 0.7988(2)
C45_7 C 0.5187(13) 0.6134(3) 0.7844(3)
H47_7 H 0.4975 0.6183 0.7715
H48_7 H 0.5543 0.6016 0.7817
H49_7 H 0.5389 0.6274 0.7911
C46_7 C 0.4045(13) 0.6219(3) 0.8033(3)
H50_7 H 0.4249 0.6359 0.8098
H51_7 H 0.3703 0.6150 0.8125
H52_7 H 0.3827 0.6265 0.7905
C47_7 C 0.4981(14) 0.5953(3) 0.8192(3)
H53_7 H 0.5358 0.5843 0.8165
H54_7 H 0.4649 0.5876 0.8282
H55_7 H 0.5157 0.6097 0.8259
C48_7 C 0.4302(8) 0.5797(2) 0.78865(17)
C49_7 C 0.4319(8) 0.5575(2) 0.79746(18)
H56_7 H 0.4545 0.5559 0.8102
C50_7 C 0.4018(9) 0.5362(2) 0.78876(17)
C51_7 C 0.3698(9) 0.5385(2) 0.76962(19)
H57_7 H 0.3516 0.5248 0.7631
C52_7 C 0.3643(10) 0.5614(2) 0.75967(19)
C53_7 C 0.3961(9) 0.5820(2) 0.76883(18)
C54_7 C 0.3312(10) 0.5612(2) 0.73969(19)
H58_7 H 0.3188 0.5462 0.7341
C55_7 C 0.2859(9) 0.5800(2) 0.70792(17)
H59_7 H 0.2387 0.5866 0.7089
C56_7 C 0.2817(8) 0.5537(2) 0.69807(19)
H60_7 H 0.3273 0.5461 0.6981
H61_7 H 0.2503 0.5436 0.7061
C57_7 C 0.2555(8) 0.5563(2) 0.67582(17)
H62_7 H 0.2084 0.5626 0.6761
H63_7 H 0.2541 0.5404 0.6693
C58_7 C 0.3004(8) 0.5731(2) 0.66262(17)
H64_7 H 0.2820 0.5739 0.6486
H65_7 H 0.3473 0.5667 0.6619
C59_7 C 0.3021(9) 0.5987(2) 0.67193(18)
H66_7 H 0.2558 0.6056 0.6718
H67_7 H 0.3322 0.6090 0.6637
C60_7 C 0.3296(9) 0.5972(2) 0.69466(17)
H68_7 H 0.3766 0.5904 0.6940
C61_7 C 0.3380(10) 0.6405(2) 0.6965(2)
H69_7 H 0.3321 0.6403 0.6821
C62_7 C 0.3512(11) 0.6643(2) 0.7067(2)
C63_7 C 0.3443(13) 0.6847(2) 0.6944(2)
H70_7 H 0.3262 0.6832 0.6810
C64_7 C 0.3637(13) 0.7071(3) 0.7017(2)
C65_7 C 0.3927(13) 0.7096(3) 0.7217(2)
H71_7 H 0.4069 0.7248 0.7264
C66_7 C 0.4002(13) 0.6888(3) 0.7349(2)
C67_7 C 0.3761(12) 0.6654(2) 0.7274(2)
C68_7 C 0.4302(13) 0.6920(3) 0.7563(2)
C69_7 C 0.4910(13) 0.6771(3) 0.7600(3)
H72_7 H 0.4818 0.6607 0.7555
H73_7 H 0.5019 0.6771 0.7746
H74_7 H 0.5297 0.6835 0.7523
C70_7 C 0.3846(12) 0.6827(3) 0.7726(3)
H75_7 H 0.3412 0.6912 0.7723
H76_7 H 0.4061 0.6849 0.7860
H77_7 H 0.3764 0.6656 0.7704
C71_7 C 0.4490(12) 0.7182(3) 0.7612(3)
H78_7 H 0.4797 0.7243 0.7506
H79_7 H 0.4715 0.7190 0.7745
H80_7 H 0.4075 0.7279 0.7615
C72_7 C 0.3534(11) 0.7296(2) 0.6681(2)
H81_7 H 0.3637 0.7149 0.6617
C73_7 C 0.3501(14) 0.7300(2) 0.6896(3)
C74_7 C 0.3329(17) 0.7520(4) 0.6989(3)
H82_7 H 0.3288 0.7524 0.7134
C75_7 C 0.3207(19) 0.7744(4) 0.6873(3)
H83_7 H 0.3109 0.7893 0.6935
C76_7 C 0.3258(13) 0.7705(3) 0.6658(3)
H84_7 H 0.3168 0.7839 0.6573
C77_7 C 0.4645(5) 0.56890(16) 0.87140(13)
C78_7 C 0.3940(6) 0.56941(18) 0.86704(19)
H85_7 H 0.3704 0.5550 0.8643
C79_7 C 0.3585(6) 0.59142(18) 0.8668(2)
H86_7 H 0.3119 0.5916 0.8630
C80_7 C 0.3912(6) 0.61323(17) 0.87202(14)
C81_7 C 0.4622(6) 0.61240(19) 0.87667(18)
H87_7 H 0.4860 0.6267 0.8797
C82_7 C 0.4969(6) 0.59037(19) 0.87683(18)
H88_7 H 0.5435 0.5900 0.8807
C83_7 C 0.5054(5) 0.54600(16) 0.86999(14)
C84_7 C 0.3530(6) 0.63683(17) 0.87226(14)
C85_7 C 0.2805(6) 0.63721(19) 0.87135(17)
H89_7 H 0.2562 0.6227 0.8698
C86_7 C 0.2447(6) 0.65890(19) 0.87271(17)
H90_7 H 0.1964 0.6590 0.8722
C87_7 C 0.2809(5) 0.68046(18) 0.87490(16)
C88_7 C 0.3521(6) 0.68039(19) 0.8756(2)
H91_7 H 0.3764 0.6949 0.8773
C89_7 C 0.3877(6) 0.65844(19) 0.8736(2)
H92_7 H 0.4360 0.6585 0.8733
C90_7 C 0.2420(7) 0.70424(19) 0.87746(17)
C91_7 C 0.1453(4) 0.47643(13) 0.8714(2)
H93_7 H 0.1678 0.4615 0.8729
C92_7 C 0.1837(3) 0.49767(15) 0.86901(19)
C93_7 C 0.1500(4) 0.51991(13) 0.8668(2)
H94_7 H 0.1757 0.5341 0.8652
C94_7 C 0.0779(4) 0.52091(13) 0.8670(2)
H95_7 H 0.0553 0.5358 0.8655
C95_7 C 0.0394(3) 0.49966(17) 0.8694(2)
C96_7 C 0.0731(4) 0.47742(14) 0.8716(2)
H96_7 H 0.0474 0.4632 0.8732
C97_7 C 0.2623(6) 0.4967(2) 0.8686(2)
Cd6_7 Cd 0.59860(4) 0.50692(2) 0.86819(2)
O30_7 O 0.5247(4) 0.47365(12) 0.86548(11)
O32_7 O 0.4314(4) 0.45287(13) 0.87303(13)
O19_7 O 0.6481(8) 0.64560(16) 0.01074(14)
C119_7 C 0.6576(10) 0.7790(2) 0.0741(2)
H109_7 H 0.6592 0.7934 0.0817
C120_7 C 0.6580(12) 0.7796(2) 0.0531(2)
H110_7 H 0.6591 0.7945 0.0462
C121_7 C 0.6569(11) 0.7579(2) 0.0418(2)
H111_7 H 0.6597 0.7582 0.0273
C122_7 C 0.6513(11) 0.7355(2) 0.0525(2)
C123_7 C 0.6518(9) 0.7364(2) 0.0741(2)
H112_7 H 0.6501 0.7219 0.0815
C124_7 C 0.7112(9) 0.6458(2) 0.0515(2)
C125_7 C 0.6525(10) 0.6262(2) 0.0545(2)
H113_7 H 0.6312 0.6227 0.0413
H114_7 H 0.6180 0.6323 0.0640
H115_7 H 0.6724 0.6115 0.0601
C126_7 C 0.7687(9) 0.6358(3) 0.0379(2)
H116_7 H 0.7838 0.6204 0.0433
H117_7 H 0.8070 0.6470 0.0378
H118_7 H 0.7517 0.6337 0.0239
C127_7 C 0.7418(9) 0.6520(2) 0.07281(19)
H119_7 H 0.7076 0.6604 0.0810
H120_7 H 0.7817 0.6624 0.0710
H121_7 H 0.7555 0.6373 0.0798
C128_7 C 0.6770(9) 0.6686(2) 0.0406(2)
C129_7 C 0.6758(9) 0.6914(2) 0.0502(2)
H122_7 H 0.6929 0.6925 0.0637
C130_7 C 0.6509(10) 0.7123(2) 0.0410(2)
C131_7 C 0.6260(10) 0.7108(2) 0.0210(2)
H123_7 H 0.6097 0.7247 0.0144
C132_7 C 0.6251(10) 0.6880(2) 0.0104(2)
C133_7 C 0.6498(12) 0.6665(2) 0.0205(2)
C148_7 C 0.6778(13) 0.5595(3) 0.0048(2)
C149_7 C 0.6202(13) 0.5672(3) 0.0211(2)
H138_7 H 0.6285 0.5836 0.0257
H139_7 H 0.6218 0.5564 0.0329
H140_7 H 0.5752 0.5662 0.0147
C150_7 C 0.7422(18) 0.5746(3) 0.0065(3)
H142_7 H 0.7733 0.5673 0.0164
H143_7 H 0.7302 0.5907 0.0111
C151_7 C 0.6960(15) 0.5329(3) 0.0097(3)
H144_7 H 0.6620 0.5224 0.0034
H145_7 H 0.6962 0.5305 0.0245
H146_7 H 0.7411 0.5292 0.0041
O27_8 O 0.5000 0.6329(3) 0.0000
O17_7 O 0.7108(5) 0.52381(17) 0.8698(2)
O18_7 O 0.7037(3) 0.48373(12) 0.86714(13)
C112_7 C 0.8547(4) 0.52357(13) 0.8714(2)
H105_7 H 0.8322 0.5385 0.8729
C113_7 C 0.8163(3) 0.50233(15) 0.86901(19)
C114_7 C 0.8500(4) 0.48009(13) 0.8668(2)
H106_7 H 0.8243 0.4659 0.8652
C115_7 C 0.9221(4) 0.47909(13) 0.8670(2)
H107_7 H 0.9447 0.4642 0.8655
C116_7 C 0.9606(3) 0.50034(17) 0.8694(2)
C117_7 C 0.9269(4) 0.52258(14) 0.8716(2)
H108_7 H 0.9526 0.5368 0.8732
C118_7 C 0.7377(6) 0.5033(2) 0.8686(2)
Fe3_4 Fe 0.58459(16) 0.63458(4) 0.98910(3)
O20_7 O 0.6313(7) 0.60412(16) 0.98722(13)
O21_7 O 0.6062(7) 0.39680(15) 0.75954(14)
O22_7 O 0.6155(7) 0.35315(15) 0.73887(13)
O25_7 O 0.8243(5) 0.29702(15) 0.87550(15)
N10_7 N 0.5929(8) 0.66966(19) 0.97703(17)
N11_7 N 0.5627(7) 0.62988(19) 0.95702(15)
N12_7 N 0.5942(5) 0.50164(17) 0.90406(13)
N13_7 N 0.5954(5) 0.50922(15) 0.83247(13)
N14_7 N 0.6826(8) 0.41952(19) 0.72887(15)
N15_7 N 0.6658(8) 0.37961(19) 0.70618(16)
C134_7 C 0.6023(10) 0.6884(2) 0.9890(2)
H124_7 H 0.5936 0.7036 0.9832
C135_7 C 0.5815(10) 0.6729(2) 0.95462(19)
H125_7 H 0.6263 0.6707 0.9476
C136_7 C 0.5518(11) 0.6975(3) 0.9477(2)
H126_7 H 0.5066 0.7000 0.9540
H127_7 H 0.5822 0.7105 0.9522
C137_7 C 0.5452(11) 0.6980(3) 0.9245(2)
H128_7 H 0.5906 0.6960 0.9182
H129_7 H 0.5262 0.7135 0.9201
C138_7 C 0.4945(11) 0.6761(3) 0.9171(2)
H130_7 H 0.4488 0.6782 0.9232
H131_7 H 0.4896 0.6764 0.9020
C139_7 C 0.5253(10) 0.6520(3) 0.92393(19)
H132_7 H 0.5705 0.6497 0.9175
H133_7 H 0.4953 0.6388 0.9196
C140_7 C 0.5330(9) 0.6518(2) 0.94785(19)
H134_7 H 0.4871 0.6545 0.9540
C141_7 C 0.5638(8) 0.6098(3) 0.94727(19)
H135_7 H 0.5469 0.6097 0.9337
C142_7 C 0.5901(10) 0.5862(2) 0.95590(18)
C143_7 C 0.5830(9) 0.5656(3) 0.94317(19)
H136_7 H 0.5634 0.5671 0.9300
C144_7 C 0.6060(8) 0.5424(2) 0.95039(19)
C145_7 C 0.6353(9) 0.5416(2) 0.97038(19)
H137_7 H 0.6493 0.5265 0.9754
C146_7 C 0.6450(11) 0.5614(2) 0.9831(2)
C147_7 C 0.6235(9) 0.5844(2) 0.97590(18)
H141_7 H 0.7644 0.5755 0.9932
C152_7 C 0.6031(7) 0.5212(2) 0.91590(17)
H147_7 H 0.6131 0.5360 0.9095
C153_7 C 0.5980(8) 0.5203(2) 0.93787(19)
C154_7 C 0.5864(10) 0.4981(3) 0.9469(2)
H148_7 H 0.5819 0.4969 0.9613
C155_7 C 0.5813(8) 0.4769(2) 0.9344(2)
H149_7 H 0.5758 0.4616 0.9405
C156_7 C 0.5848(8) 0.4793(2) 0.91299(18)
H150_7 H 0.5806 0.4656 0.9046
C157_7 C 0.5975(9) 0.5302(2) 0.82231(18)
H151_7 H 0.5972 0.5446 0.8299
C158_7 C 0.6002(11) 0.5313(2) 0.80039(19)
H152_7 H 0.6031 0.5462 0.7935
C159_7 C 0.5983(11) 0.5097(2) 0.78939(18)
H153_7 H 0.5990 0.5100 0.7749
C160_7 C 0.5955(8) 0.48765(19) 0.79970(16)
C161_7 C 0.5958(7) 0.48853(17) 0.82121(16)
H154_7 H 0.5962 0.4738 0.8284
C162_7 C 0.5366(10) 0.3978(2) 0.7988(2)
C163_7 C 0.4813(13) 0.3866(3) 0.7844(3)
H155_7 H 0.5025 0.3817 0.7715
H156_7 H 0.4457 0.3984 0.7817
H157_7 H 0.4611 0.3726 0.7911
C164_7 C 0.5955(13) 0.3781(3) 0.8033(3)
H158_7 H 0.5751 0.3641 0.8098
H159_7 H 0.6297 0.3850 0.8125
H160_7 H 0.6173 0.3735 0.7905
C165_7 C 0.5019(14) 0.4047(3) 0.8192(3)
H161_7 H 0.4642 0.4157 0.8165
H162_7 H 0.5351 0.4124 0.8282
H163_7 H 0.4843 0.3903 0.8259
C166_7 C 0.5698(8) 0.4203(2) 0.78865(17)
C167_7 C 0.5681(8) 0.4425(2) 0.79746(18)
H164_7 H 0.5455 0.4441 0.8102
C168_7 C 0.5982(9) 0.4638(2) 0.78876(17)
C169_7 C 0.6302(9) 0.4615(2) 0.76962(19)
H165_7 H 0.6484 0.4752 0.7631
C170_7 C 0.6357(10) 0.4386(2) 0.75967(19)
C171_7 C 0.6039(9) 0.4180(2) 0.76883(18)
C172_7 C 0.6688(10) 0.4388(2) 0.73969(19)
H166_7 H 0.6812 0.4538 0.7341
C173_7 C 0.7141(9) 0.4200(2) 0.70792(17)
H167_7 H 0.7613 0.4134 0.7089
C174_7 C 0.7183(8) 0.4463(2) 0.69807(19)
H168_7 H 0.6727 0.4539 0.6981
H169_7 H 0.7497 0.4564 0.7061
C175_7 C 0.7445(8) 0.4437(2) 0.67582(17)
H170_7 H 0.7916 0.4374 0.6761
H171_7 H 0.7459 0.4596 0.6693
C176_7 C 0.6996(8) 0.4269(2) 0.66262(17)
H172_7 H 0.7180 0.4261 0.6486
H173_7 H 0.6527 0.4333 0.6619
C177_7 C 0.6979(9) 0.4013(2) 0.67193(18)
H174_7 H 0.7442 0.3944 0.6718
H175_7 H 0.6678 0.3910 0.6637
C178_7 C 0.6704(9) 0.4028(2) 0.69466(17)
H176_7 H 0.6234 0.4096 0.6940
C179_7 C 0.6620(10) 0.3595(2) 0.6965(2)
H177_7 H 0.6679 0.3597 0.6821
C180_7 C 0.6488(11) 0.3357(2) 0.7067(2)
C181_7 C 0.6557(13) 0.3153(2) 0.6944(2)
H178_7 H 0.6738 0.3168 0.6810
C182_7 C 0.6363(13) 0.2929(3) 0.7017(2)
C183_7 C 0.6073(13) 0.2904(3) 0.7217(2)
H179_7 H 0.5931 0.2752 0.7264
C184_7 C 0.5998(13) 0.3112(3) 0.7349(2)
C185_7 C 0.6239(12) 0.3346(2) 0.7274(2)
C186_7 C 0.5698(13) 0.3080(3) 0.7563(2)
C187_7 C 0.5090(13) 0.3229(3) 0.7600(3)
H180_7 H 0.5182 0.3393 0.7555
H181_7 H 0.4981 0.3229 0.7746
H182_7 H 0.4703 0.3165 0.7523
C188_7 C 0.6154(12) 0.3173(3) 0.7726(3)
H183_7 H 0.6588 0.3088 0.7723
H184_7 H 0.5939 0.3151 0.7860
H185_7 H 0.6236 0.3344 0.7704
C189_7 C 0.5510(12) 0.2818(3) 0.7612(3)
H186_7 H 0.5203 0.2757 0.7506
H187_7 H 0.5285 0.2810 0.7745
H188_7 H 0.5925 0.2721 0.7615
C190_7 C 0.6466(11) 0.2704(2) 0.6681(2)
H189_7 H 0.6363 0.2851 0.6617
C191_7 C 0.6499(14) 0.2700(2) 0.6896(3)
C192_7 C 0.6671(17) 0.2480(4) 0.6989(3)
H190_7 H 0.6712 0.2476 0.7134
C193_7 C 0.6793(19) 0.2256(4) 0.6873(3)
H191_7 H 0.6891 0.2107 0.6935
C194_7 C 0.6742(13) 0.2295(3) 0.6658(3)
H192_7 H 0.6832 0.2161 0.6573
C195_7 C 0.5355(5) 0.43110(16) 0.87140(13)
C196_7 C 0.6060(6) 0.43059(18) 0.86704(19)
H193_7 H 0.6296 0.4450 0.8643
C197_7 C 0.6415(6) 0.40858(18) 0.8668(2)
H194_7 H 0.6881 0.4084 0.8630
C198_7 C 0.6088(6) 0.38677(17) 0.87202(14)
C199_7 C 0.5378(6) 0.38760(19) 0.87667(18)
H195_7 H 0.5140 0.3733 0.8797
C200_7 C 0.5031(6) 0.40963(19) 0.87683(18)
H196_7 H 0.4565 0.4100 0.8807
C201_7 C 0.4946(5) 0.45400(16) 0.86999(14)
C202_7 C 0.6470(6) 0.36317(17) 0.87226(14)
C203_7 C 0.7195(6) 0.36279(19) 0.87135(17)
H197_7 H 0.7438 0.3773 0.8698
C204_7 C 0.7553(6) 0.34110(19) 0.87271(17)
H198_7 H 0.8036 0.3410 0.8722
C205_7 C 0.7191(5) 0.31954(18) 0.87490(16)
C206_7 C 0.6479(6) 0.31961(19) 0.8756(2)
H199_7 H 0.6236 0.3051 0.8773
C207_7 C 0.6123(6) 0.34156(19) 0.8736(2)
H200_7 H 0.5640 0.3415 0.8733
C208_7 C 0.7580(7) 0.29576(19) 0.87746(17)
O27_9 O 0.5000 0.6329(3) 1.0000
Fe5_8 Fe 0.41541(16) 0.63458(4) 0.01090(3)
Cd1_8 Cd 0.40140(4) 0.50692(2) 0.13181(2)
O2_8 O 0.3687(7) 0.60412(16) 0.01278(13)
O4_8 O 0.3938(7) 0.39680(15) 0.24046(14)
O5_8 O 0.3845(7) 0.35315(15) 0.26113(13)
O7_8 O 0.4753(4) 0.47365(12) 0.13452(11)
O8_8 O 0.5686(4) 0.45287(13) 0.12697(13)
O9_8 O 0.1757(5) 0.29702(15) 0.12450(15)
O13_8 O 0.2892(5) 0.52381(17) 0.1302(2)
O14_8 O 0.2963(3) 0.48373(12) 0.13286(13)
N2_8 N 0.4071(8) 0.66966(19) 0.02297(17)
N3_8 N 0.4373(7) 0.62988(19) 0.04298(15)
N4_8 N 0.4058(5) 0.50164(17) 0.09594(13)
N5_8 N 0.4046(5) 0.50922(15) 0.16753(13)
N6_8 N 0.3174(8) 0.41952(19) 0.27113(15)
N7_8 N 0.3342(8) 0.37961(19) 0.29382(16)
C16_8 C 0.3977(10) 0.6884(2) 0.0110(2)
H16_8 H 0.4064 0.7036 0.0168
C17_8 C 0.4185(10) 0.6729(2) 0.04538(19)
H17_8 H 0.3737 0.6707 0.0524
C18_8 C 0.4482(11) 0.6975(3) 0.0523(2)
H18_8 H 0.4934 0.7000 0.0460
H19_8 H 0.4178 0.7105 0.0478
C19_8 C 0.4548(11) 0.6980(3) 0.0755(2)
H20_8 H 0.4094 0.6960 0.0818
H21_8 H 0.4738 0.7135 0.0799
C20_8 C 0.5055(11) 0.6761(3) 0.0829(2)
H22_8 H 0.5512 0.6782 0.0768
H23_8 H 0.5104 0.6764 0.0980
C21_8 C 0.4747(10) 0.6520(3) 0.07607(19)
H24_8 H 0.4295 0.6497 0.0825
H25_8 H 0.5047 0.6388 0.0804
C22_8 C 0.4670(9) 0.6518(2) 0.05215(19)
H26_8 H 0.5129 0.6545 0.0460
C23_8 C 0.4362(8) 0.6098(3) 0.05273(19)
H27_8 H 0.4531 0.6097 0.0663
C24_8 C 0.4099(10) 0.5862(2) 0.04410(18)
C25_8 C 0.4170(9) 0.5656(3) 0.05683(19)
H28_8 H 0.4366 0.5671 0.0700
C26_8 C 0.3940(8) 0.5424(2) 0.04961(19)
C27_8 C 0.3647(9) 0.5416(2) 0.02962(19)
H29_8 H 0.3507 0.5265 0.0246
C28_8 C 0.3550(11) 0.5614(2) 0.0169(2)
C29_8 C 0.3765(9) 0.5844(2) 0.02410(18)
H33_8 H 0.2356 0.5755 0.0068
C34_8 C 0.3969(7) 0.5212(2) 0.08410(17)
H39_8 H 0.3869 0.5360 0.0905
C35_8 C 0.4020(8) 0.5203(2) 0.06213(19)
C36_8 C 0.4136(10) 0.4981(3) 0.0531(2)
H40_8 H 0.4181 0.4969 0.0387
C37_8 C 0.4187(8) 0.4769(2) 0.0656(2)
H41_8 H 0.4242 0.4616 0.0595
C38_8 C 0.4152(8) 0.4793(2) 0.08701(18)
H42_8 H 0.4194 0.4656 0.0954
C39_8 C 0.4025(9) 0.5302(2) 0.17769(18)
H43_8 H 0.4028 0.5446 0.1701
C40_8 C 0.3998(11) 0.5313(2) 0.19961(19)
H44_8 H 0.3969 0.5462 0.2065
C41_8 C 0.4017(11) 0.5097(2) 0.21061(18)
H45_8 H 0.4010 0.5100 0.2251
C42_8 C 0.4045(8) 0.48765(19) 0.20030(16)
C43_8 C 0.4042(7) 0.48853(17) 0.17879(16)
H46_8 H 0.4038 0.4738 0.1716
C44_8 C 0.4634(10) 0.3978(2) 0.2012(2)
C45_8 C 0.5187(13) 0.3866(3) 0.2156(3)
H47_8 H 0.4975 0.3817 0.2285
H48_8 H 0.5543 0.3984 0.2183
H49_8 H 0.5389 0.3726 0.2089
C46_8 C 0.4045(13) 0.3781(3) 0.1967(3)
H50_8 H 0.4249 0.3641 0.1902
H51_8 H 0.3703 0.3850 0.1875
H52_8 H 0.3827 0.3735 0.2095
C47_8 C 0.4981(14) 0.4047(3) 0.1808(3)
H53_8 H 0.5358 0.4157 0.1835
H54_8 H 0.4649 0.4124 0.1718
H55_8 H 0.5157 0.3903 0.1741
C48_8 C 0.4302(8) 0.4203(2) 0.21135(17)
C49_8 C 0.4319(8) 0.4425(2) 0.20254(18)
H56_8 H 0.4545 0.4441 0.1898
C50_8 C 0.4018(9) 0.4638(2) 0.21124(17)
C51_8 C 0.3698(9) 0.4615(2) 0.23038(19)
H57_8 H 0.3516 0.4752 0.2369
C52_8 C 0.3643(10) 0.4386(2) 0.24033(19)
C53_8 C 0.3961(9) 0.4180(2) 0.23117(18)
C54_8 C 0.3312(10) 0.4388(2) 0.26031(19)
H58_8 H 0.3188 0.4538 0.2659
C55_8 C 0.2859(9) 0.4200(2) 0.29208(17)
H59_8 H 0.2387 0.4134 0.2911
C56_8 C 0.2817(8) 0.4463(2) 0.30193(19)
H60_8 H 0.3273 0.4539 0.3019
H61_8 H 0.2503 0.4564 0.2939
C57_8 C 0.2555(8) 0.4437(2) 0.32418(17)
H62_8 H 0.2084 0.4374 0.3239
H63_8 H 0.2541 0.4596 0.3307
C58_8 C 0.3004(8) 0.4269(2) 0.33738(17)
H64_8 H 0.2820 0.4261 0.3514
H65_8 H 0.3473 0.4333 0.3381
C59_8 C 0.3021(9) 0.4013(2) 0.32807(18)
H66_8 H 0.2558 0.3944 0.3282
H67_8 H 0.3322 0.3910 0.3363
C60_8 C 0.3296(9) 0.4028(2) 0.30534(17)
H68_8 H 0.3766 0.4096 0.3060
C61_8 C 0.3380(10) 0.3595(2) 0.3035(2)
H69_8 H 0.3321 0.3597 0.3179
C62_8 C 0.3512(11) 0.3357(2) 0.2933(2)
C63_8 C 0.3443(13) 0.3153(2) 0.3056(2)
H70_8 H 0.3262 0.3168 0.3190
C64_8 C 0.3637(13) 0.2929(3) 0.2983(2)
C65_8 C 0.3927(13) 0.2904(3) 0.2783(2)
H71_8 H 0.4069 0.2752 0.2736
C66_8 C 0.4002(13) 0.3112(3) 0.2651(2)
C67_8 C 0.3761(12) 0.3346(2) 0.2726(2)
C68_8 C 0.4302(13) 0.3080(3) 0.2437(2)
C69_8 C 0.4910(13) 0.3229(3) 0.2400(3)
H72_8 H 0.4818 0.3393 0.2445
H73_8 H 0.5019 0.3229 0.2254
H74_8 H 0.5297 0.3165 0.2477
C70_8 C 0.3846(12) 0.3173(3) 0.2274(3)
H75_8 H 0.3412 0.3088 0.2277
H76_8 H 0.4061 0.3151 0.2140
H77_8 H 0.3764 0.3344 0.2296
C71_8 C 0.4490(12) 0.2818(3) 0.2388(3)
H78_8 H 0.4797 0.2757 0.2494
H79_8 H 0.4715 0.2810 0.2255
H80_8 H 0.4075 0.2721 0.2385
C72_8 C 0.3534(11) 0.2704(2) 0.3319(2)
H81_8 H 0.3637 0.2851 0.3383
C73_8 C 0.3501(14) 0.2700(2) 0.3104(3)
C74_8 C 0.3329(17) 0.2480(4) 0.3011(3)
H82_8 H 0.3288 0.2476 0.2866
C75_8 C 0.3207(19) 0.2256(4) 0.3127(3)
H83_8 H 0.3109 0.2107 0.3065
C76_8 C 0.3258(13) 0.2295(3) 0.3342(3)
H84_8 H 0.3168 0.2161 0.3427
C77_8 C 0.4645(5) 0.43110(16) 0.12860(13)
C78_8 C 0.3940(6) 0.43059(18) 0.13296(19)
H85_8 H 0.3704 0.4450 0.1357
C79_8 C 0.3585(6) 0.40858(18) 0.1332(2)
H86_8 H 0.3119 0.4084 0.1370
C80_8 C 0.3912(6) 0.38677(17) 0.12798(14)
C81_8 C 0.4622(6) 0.38760(19) 0.12333(18)
H87_8 H 0.4860 0.3733 0.1203
C82_8 C 0.4969(6) 0.40963(19) 0.12317(18)
H88_8 H 0.5435 0.4100 0.1193
C83_8 C 0.5054(5) 0.45400(16) 0.13001(14)
C84_8 C 0.3530(6) 0.36317(17) 0.12774(14)
C85_8 C 0.2805(6) 0.36279(19) 0.12865(17)
H89_8 H 0.2562 0.3773 0.1302
C86_8 C 0.2447(6) 0.34110(19) 0.12729(17)
H90_8 H 0.1964 0.3410 0.1278
C87_8 C 0.2809(5) 0.31954(18) 0.12510(16)
C88_8 C 0.3521(6) 0.31961(19) 0.1244(2)
H91_8 H 0.3764 0.3051 0.1227
C89_8 C 0.3877(6) 0.34156(19) 0.1264(2)
H92_8 H 0.4360 0.3415 0.1267
C90_8 C 0.2420(7) 0.29576(19) 0.12254(17)
C91_8 C 0.1453(4) 0.52357(13) 0.1286(2)
H93_8 H 0.1678 0.5385 0.1271
C92_8 C 0.1837(3) 0.50233(15) 0.13099(19)
C93_8 C 0.1500(4) 0.48009(13) 0.1332(2)
H94_8 H 0.1757 0.4659 0.1348
C94_8 C 0.0779(4) 0.47909(13) 0.1330(2)
H95_8 H 0.0553 0.4642 0.1345
C95_8 C 0.0394(3) 0.50034(17) 0.1306(2)
C96_8 C 0.0731(4) 0.52258(14) 0.1284(2)
H96_8 H 0.0474 0.5368 0.1268
C97_8 C 0.2623(6) 0.5033(2) 0.1314(2)
Cd6_8 Cd 0.59860(4) 0.49308(2) 0.13181(2)
O30_8 O 0.5247(4) 0.52635(12) 0.13452(11)
O32_8 O 0.4314(4) 0.54713(13) 0.12697(13)
O1_8 O 0.3519(8) 0.64560(16) 0.98926(14)
C1_8 C 0.3424(10) 0.7790(2) 0.9259(2)
H1_8 H 0.3408 0.7934 0.9183
C2_8 C 0.3420(12) 0.7796(2) 0.9469(2)
H2_8 H 0.3409 0.7945 0.9538
C3_8 C 0.3431(11) 0.7579(2) 0.9582(2)
H3_8 H 0.3403 0.7582 0.9727
C4_8 C 0.3487(11) 0.7355(2) 0.9475(2)
C5_8 C 0.3482(9) 0.7364(2) 0.9259(2)
H4_8 H 0.3499 0.7219 0.9185
C6_8 C 0.2888(9) 0.6458(2) 0.9485(2)
C7_8 C 0.3475(10) 0.6262(2) 0.9455(2)
H5_8 H 0.3688 0.6227 0.9587
H6_8 H 0.3820 0.6323 0.9360
H7_8 H 0.3276 0.6115 0.9399
C8_8 C 0.2313(9) 0.6358(3) 0.9621(2)
H8_8 H 0.2162 0.6204 0.9567
H9_8 H 0.1930 0.6470 0.9622
H10_8 H 0.2483 0.6337 0.9761
C9_8 C 0.2582(9) 0.6520(2) 0.92719(19)
H11_8 H 0.2924 0.6604 0.9190
H12_8 H 0.2183 0.6624 0.9290
H13_8 H 0.2445 0.6373 0.9202
C10_8 C 0.3230(9) 0.6686(2) 0.9594(2)
C11_8 C 0.3242(9) 0.6914(2) 0.9498(2)
H14_8 H 0.3071 0.6925 0.9363
C12_8 C 0.3491(10) 0.7123(2) 0.9590(2)
C13_8 C 0.3740(10) 0.7108(2) 0.9790(2)
H15_8 H 0.3903 0.7247 0.9856
C14_8 C 0.3749(10) 0.6880(2) 0.9896(2)
C15_8 C 0.3502(12) 0.6665(2) 0.9795(2)
C30_8 C 0.3222(13) 0.5595(3) 0.9952(2)
C31_8 C 0.3798(13) 0.5672(3) 0.9789(2)
H30_8 H 0.3715 0.5836 0.9743
H31_8 H 0.3782 0.5564 0.9671
H32_8 H 0.4248 0.5662 0.9853
C32_8 C 0.2578(18) 0.5746(3) 0.9935(3)
H34_8 H 0.2267 0.5673 0.9836
H35_8 H 0.2698 0.5907 0.9889
C33_8 C 0.3040(15) 0.5329(3) 0.9903(3)
H36_8 H 0.3380 0.5224 0.9966
H37_8 H 0.3038 0.5305 0.9755
H38_8 H 0.2589 0.5292 0.9959
O17_8 O 0.7108(5) 0.47619(17) 0.1302(2)
O18_8 O 0.7037(3) 0.51627(12) 0.13286(13)
C112_8 C 0.8547(4) 0.47643(13) 0.1286(2)
H105_8 H 0.8322 0.4615 0.1271
C113_8 C 0.8163(3) 0.49767(15) 0.13099(19)
C114_8 C 0.8500(4) 0.51991(13) 0.1332(2)
H106_8 H 0.8243 0.5341 0.1348
C115_8 C 0.9221(4) 0.52091(13) 0.1330(2)
H107_8 H 0.9447 0.5358 0.1345
C116_8 C 0.9606(3) 0.49966(17) 0.1306(2)
C117_8 C 0.9269(4) 0.47742(14) 0.1284(2)
H108_8 H 0.9526 0.4632 0.1268
C118_8 C 0.7377(6) 0.4967(2) 0.1314(2)
O20_8 O 0.6313(7) 0.39588(16) 0.01278(13)
O21_8 O 0.6062(7) 0.60320(15) 0.24046(14)
O22_8 O 0.6155(7) 0.64685(15) 0.26113(13)
O25_8 O 0.8243(5) 0.70298(15) 0.12450(15)
N10_8 N 0.5929(8) 0.33034(19) 0.02297(17)
N11_8 N 0.5627(7) 0.37012(19) 0.04298(15)
N12_8 N 0.5942(5) 0.49836(17) 0.09594(13)
N13_8 N 0.5954(5) 0.49078(15) 0.16753(13)
N14_8 N 0.6826(8) 0.58048(19) 0.27113(15)
N15_8 N 0.6658(8) 0.62039(19) 0.29382(16)
C134_8 C 0.6023(10) 0.3116(2) 0.0110(2)
H124_8 H 0.5936 0.2964 0.0168
C135_8 C 0.5815(10) 0.3271(2) 0.04538(19)
H125_8 H 0.6263 0.3293 0.0524
C136_8 C 0.5518(11) 0.3025(3) 0.0523(2)
H126_8 H 0.5066 0.3000 0.0460
H127_8 H 0.5822 0.2895 0.0478
C137_8 C 0.5452(11) 0.3020(3) 0.0755(2)
H128_8 H 0.5906 0.3040 0.0818
H129_8 H 0.5262 0.2865 0.0799
C138_8 C 0.4945(11) 0.3239(3) 0.0829(2)
H130_8 H 0.4488 0.3218 0.0768
H131_8 H 0.4896 0.3236 0.0980
C139_8 C 0.5253(10) 0.3480(3) 0.07607(19)
H132_8 H 0.5705 0.3503 0.0825
H133_8 H 0.4953 0.3612 0.0804
C140_8 C 0.5330(9) 0.3482(2) 0.05215(19)
H134_8 H 0.4871 0.3455 0.0460
C141_8 C 0.5638(8) 0.3902(3) 0.05273(19)
H135_8 H 0.5469 0.3903 0.0663
C142_8 C 0.5901(10) 0.4138(2) 0.04410(18)
C143_8 C 0.5830(9) 0.4344(3) 0.05683(19)
H136_8 H 0.5634 0.4329 0.0700
C144_8 C 0.6060(8) 0.4576(2) 0.04961(19)
C145_8 C 0.6353(9) 0.4584(2) 0.02962(19)
H137_8 H 0.6493 0.4735 0.0246
C146_8 C 0.6450(11) 0.4386(2) 0.0169(2)
C147_8 C 0.6235(9) 0.4156(2) 0.02410(18)
H141_8 H 0.7644 0.4245 0.0068
C152_8 C 0.6031(7) 0.4788(2) 0.08410(17)
H147_8 H 0.6131 0.4640 0.0905
C153_8 C 0.5980(8) 0.4797(2) 0.06213(19)
C154_8 C 0.5864(10) 0.5019(3) 0.0531(2)
H148_8 H 0.5819 0.5031 0.0387
C155_8 C 0.5813(8) 0.5231(2) 0.0656(2)
H149_8 H 0.5758 0.5384 0.0595
C156_8 C 0.5848(8) 0.5207(2) 0.08701(18)
H150_8 H 0.5806 0.5344 0.0954
C157_8 C 0.5975(9) 0.4698(2) 0.17769(18)
H151_8 H 0.5972 0.4554 0.1701
C158_8 C 0.6002(11) 0.4687(2) 0.19961(19)
H152_8 H 0.6031 0.4538 0.2065
C159_8 C 0.5983(11) 0.4903(2) 0.21061(18)
H153_8 H 0.5990 0.4900 0.2251
C160_8 C 0.5955(8) 0.51235(19) 0.20030(16)
C161_8 C 0.5958(7) 0.51147(17) 0.17879(16)
H154_8 H 0.5962 0.5262 0.1716
C162_8 C 0.5366(10) 0.6022(2) 0.2012(2)
C163_8 C 0.4813(13) 0.6134(3) 0.2156(3)
H155_8 H 0.5025 0.6183 0.2285
H156_8 H 0.4457 0.6016 0.2183
H157_8 H 0.4611 0.6274 0.2089
C164_8 C 0.5955(13) 0.6219(3) 0.1967(3)
H158_8 H 0.5751 0.6359 0.1902
H159_8 H 0.6297 0.6150 0.1875
H160_8 H 0.6173 0.6265 0.2095
C165_8 C 0.5019(14) 0.5953(3) 0.1808(3)
H161_8 H 0.4642 0.5843 0.1835
H162_8 H 0.5351 0.5876 0.1718
H163_8 H 0.4843 0.6097 0.1741
C166_8 C 0.5698(8) 0.5797(2) 0.21135(17)
C167_8 C 0.5681(8) 0.5575(2) 0.20254(18)
H164_8 H 0.5455 0.5559 0.1898
C168_8 C 0.5982(9) 0.5362(2) 0.21124(17)
C169_8 C 0.6302(9) 0.5385(2) 0.23038(19)
H165_8 H 0.6484 0.5248 0.2369
C170_8 C 0.6357(10) 0.5614(2) 0.24033(19)
C171_8 C 0.6039(9) 0.5820(2) 0.23117(18)
C172_8 C 0.6688(10) 0.5612(2) 0.26031(19)
H166_8 H 0.6812 0.5462 0.2659
C173_8 C 0.7141(9) 0.5800(2) 0.29208(17)
H167_8 H 0.7613 0.5866 0.2911
C174_8 C 0.7183(8) 0.5537(2) 0.30193(19)
H168_8 H 0.6727 0.5461 0.3019
H169_8 H 0.7497 0.5436 0.2939
C175_8 C 0.7445(8) 0.5563(2) 0.32418(17)
H170_8 H 0.7916 0.5626 0.3239
H171_8 H 0.7459 0.5404 0.3307
C176_8 C 0.6996(8) 0.5731(2) 0.33738(17)
H172_8 H 0.7180 0.5739 0.3514
H173_8 H 0.6527 0.5667 0.3381
C177_8 C 0.6979(9) 0.5987(2) 0.32807(18)
H174_8 H 0.7442 0.6056 0.3282
H175_8 H 0.6678 0.6090 0.3363
C178_8 C 0.6704(9) 0.5972(2) 0.30534(17)
H176_8 H 0.6234 0.5904 0.3060
C179_8 C 0.6620(10) 0.6405(2) 0.3035(2)
H177_8 H 0.6679 0.6403 0.3179
C180_8 C 0.6488(11) 0.6643(2) 0.2933(2)
C181_8 C 0.6557(13) 0.6847(2) 0.3056(2)
H178_8 H 0.6738 0.6832 0.3190
C182_8 C 0.6363(13) 0.7071(3) 0.2983(2)
C183_8 C 0.6073(13) 0.7096(3) 0.2783(2)
H179_8 H 0.5931 0.7248 0.2736
C184_8 C 0.5998(13) 0.6888(3) 0.2651(2)
C185_8 C 0.6239(12) 0.6654(2) 0.2726(2)
C186_8 C 0.5698(13) 0.6920(3) 0.2437(2)
C187_8 C 0.5090(13) 0.6771(3) 0.2400(3)
H180_8 H 0.5182 0.6607 0.2445
H181_8 H 0.4981 0.6771 0.2254
H182_8 H 0.4703 0.6835 0.2477
C188_8 C 0.6154(12) 0.6827(3) 0.2274(3)
H183_8 H 0.6588 0.6912 0.2277
H184_8 H 0.5939 0.6849 0.2140
H185_8 H 0.6236 0.6656 0.2296
C189_8 C 0.5510(12) 0.7182(3) 0.2388(3)
H186_8 H 0.5203 0.7243 0.2494
H187_8 H 0.5285 0.7190 0.2255
H188_8 H 0.5925 0.7279 0.2385
C190_8 C 0.6466(11) 0.7296(2) 0.3319(2)
H189_8 H 0.6363 0.7149 0.3383
C191_8 C 0.6499(14) 0.7300(2) 0.3104(3)
C192_8 C 0.6671(17) 0.7520(4) 0.3011(3)
H190_8 H 0.6712 0.7524 0.2866
C193_8 C 0.6793(19) 0.7744(4) 0.3127(3)
H191_8 H 0.6891 0.7893 0.3065
C194_8 C 0.6742(13) 0.7705(3) 0.3342(3)
H192_8 H 0.6832 0.7839 0.3427
C195_8 C 0.5355(5) 0.56890(16) 0.12860(13)
C196_8 C 0.6060(6) 0.56941(18) 0.13296(19)
H193_8 H 0.6296 0.5550 0.1357
C197_8 C 0.6415(6) 0.59142(18) 0.1332(2)
H194_8 H 0.6881 0.5916 0.1370
C198_8 C 0.6088(6) 0.61323(17) 0.12798(14)
C199_8 C 0.5378(6) 0.61240(19) 0.12333(18)
H195_8 H 0.5140 0.6267 0.1203
C200_8 C 0.5031(6) 0.59037(19) 0.12317(18)
H196_8 H 0.4565 0.5900 0.1193
C201_8 C 0.4946(5) 0.54600(16) 0.13001(14)
C202_8 C 0.6470(6) 0.63683(17) 0.12774(14)
C203_8 C 0.7195(6) 0.63721(19) 0.12865(17)
H197_8 H 0.7438 0.6227 0.1302
C204_8 C 0.7553(6) 0.65890(19) 0.12729(17)
H198_8 H 0.8036 0.6590 0.1278
C205_8 C 0.7191(5) 0.68046(18) 0.12510(16)
C206_8 C 0.6479(6) 0.68039(19) 0.1244(2)
H199_8 H 0.6236 0.6949 0.1227
C207_8 C 0.6123(6) 0.65844(19) 0.1264(2)
H200_8 H 0.5640 0.6585 0.1267
C208_8 C 0.7580(7) 0.70424(19) 0.12254(17)
O19_8 O 0.6481(8) 0.35440(16) 0.98926(14)
C119_8 C 0.6576(10) 0.2210(2) 0.9259(2)
H109_8 H 0.6592 0.2066 0.9183
C120_8 C 0.6580(12) 0.2204(2) 0.9469(2)
H110_8 H 0.6591 0.2055 0.9538
C121_8 C 0.6569(11) 0.2421(2) 0.9582(2)
H111_8 H 0.6597 0.2418 0.9727
C122_8 C 0.6513(11) 0.2645(2) 0.9475(2)
C123_8 C 0.6518(9) 0.2636(2) 0.9259(2)
H112_8 H 0.6501 0.2781 0.9185
C124_8 C 0.7112(9) 0.3542(2) 0.9485(2)
C125_8 C 0.6525(10) 0.3738(2) 0.9455(2)
H113_8 H 0.6312 0.3773 0.9587
H114_8 H 0.6180 0.3677 0.9360
H115_8 H 0.6724 0.3885 0.9399
C126_8 C 0.7687(9) 0.3642(3) 0.9621(2)
H116_8 H 0.7838 0.3796 0.9567
H117_8 H 0.8070 0.3530 0.9622
H118_8 H 0.7517 0.3663 0.9761
C127_8 C 0.7418(9) 0.3480(2) 0.92719(19)
H119_8 H 0.7076 0.3396 0.9190
H120_8 H 0.7817 0.3376 0.9290
H121_8 H 0.7555 0.3627 0.9202
C128_8 C 0.6770(9) 0.3314(2) 0.9594(2)
C129_8 C 0.6758(9) 0.3086(2) 0.9498(2)
H122_8 H 0.6929 0.3075 0.9363
C130_8 C 0.6509(10) 0.2877(2) 0.9590(2)
C131_8 C 0.6260(10) 0.2892(2) 0.9790(2)
H123_8 H 0.6097 0.2753 0.9856
C132_8 C 0.6251(10) 0.3120(2) 0.9896(2)
C133_8 C 0.6498(12) 0.3335(2) 0.9795(2)
C148_8 C 0.6778(13) 0.4405(3) 0.9952(2)
C149_8 C 0.6202(13) 0.4328(3) 0.9789(2)
H138_8 H 0.6285 0.4164 0.9743
H139_8 H 0.6218 0.4436 0.9671
H140_8 H 0.5752 0.4338 0.9853
C150_8 C 0.7422(18) 0.4254(3) 0.9935(3)
H142_8 H 0.7733 0.4327 0.9836
H143_8 H 0.7302 0.4093 0.9889
C151_8 C 0.6960(15) 0.4671(3) 0.9903(3)
H144_8 H 0.6620 0.4776 0.9966
H145_8 H 0.6962 0.4695 0.9755
H146_8 H 0.7411 0.4708 0.9959
loop_
_geom_bond_atom_site_label_1
_geom_bond_atom_site_label_2
_geom_bond_site_symmetry_1
_geom_bond_site_symmetry_2
O8 C83 1_555 1_555
H48 C45 1_555 1_555
H49 C45 1_555 1_555
O8 Cd6 1_555 1_555
Fe5 O3 1_555 1_555
H22 C20 1_555 1_555
H23 C20 1_555 1_555
O19 C133 1_555 1_555
N9 C119 1_555 1_555
C119 H109 1_555 1_555
C120 C119 1_555 1_555
H110 C120 1_555 1_555
C121 C120 1_555 1_555
H111 C121 1_555 1_555
C122 C121 1_555 1_555
C123 N9 1_555 1_555
H112 C123 1_555 1_555
C124 C125 1_555 1_555
C125 H113 1_555 1_555
H114 C125 1_555 1_555
H115 C125 1_555 1_555
C126 C124 1_555 1_555
H116 C126 1_555 1_555
H117 C126 1_555 1_555
H118 C126 1_555 1_555
C127 C124 1_555 1_555
H119 C127 1_555 1_555
H120 C127 1_555 1_555
H121 C127 1_555 1_555
C128 C124 1_555 1_555
C129 C128 1_555 1_555
H122 C129 1_555 1_555
C130 C122 1_555 1_555
C131 C130 1_555 1_555
H123 C131 1_555 1_555
C132 C131 1_555 1_555
C133 C128 1_555 1_555
C149 C148 1_555 1_555
H138 C149 1_555 1_555
H139 C149 1_555 1_555
H140 C149 1_555 1_555
C150 C148 1_555 1_555
H142 C150 1_555 1_555
H143 C150 1_555 1_555
C151 C148 1_555 1_555
H144 C151 1_555 1_555
H145 C151 1_555 1_555
H146 C151 1_555 1_555
Cd12 N9 1_555 1_555
C122 C123 1_555 1_555
C129 C130 1_555 1_555
C132 C133 1_555 1_555
Cd2 O9 1_555 1_555
Fe2 O4 1_555 1_555
O4 C53 1_555 1_555
O5 Fe2 1_555 1_555
O6 Fe2 1_555 1_555
O9 C90 1_555 1_555
O10 Cd2 1_555 1_555
O11 Cd2 1_555 1_555
O12 Cd2 1_555 1_555
N6 Fe2 1_555 1_555
N7 Fe2 1_555 1_555
N8 C72 1_555 1_555
H40 C36 1_555 1_555
C37 C36 1_555 1_555
H41 C37 1_555 1_555
H42 C38 1_555 1_555
H46 C43 1_555 1_555
C46 C44 1_555 1_555
H50 C46 1_555 1_555
H51 C46 1_555 1_555
H52 C46 1_555 1_555
C47 C44 1_555 1_555
H54 C47 1_555 1_555
C48 C44 1_555 1_555
C49 C48 1_555 1_555
H56 C49 1_555 1_555
C50 C42 1_555 1_555
C51 C50 1_555 1_555
H57 C51 1_555 1_555
C52 C51 1_555 1_555
C53 C48 1_555 1_555
C54 N6 1_555 1_555
H58 C54 1_555 1_555
C55 N6 1_555 1_555
H59 C55 1_555 1_555
C56 C55 1_555 1_555
H60 C56 1_555 1_555
H61 C56 1_555 1_555
C57 C56 1_555 1_555
H62 C57 1_555 1_555
H63 C57 1_555 1_555
C58 C57 1_555 1_555
H64 C58 1_555 1_555
H65 C58 1_555 1_555
C59 C58 1_555 1_555
H66 C59 1_555 1_555
H67 C59 1_555 1_555
C60 N7 1_555 1_555
H68 C60 1_555 1_555
C61 N7 1_555 1_555
H69 C61 1_555 1_555
C62 C61 1_555 1_555
C63 C62 1_555 1_555
H70 C63 1_555 1_555
C64 C63 1_555 1_555
C65 C64 1_555 1_555
H71 C65 1_555 1_555
C66 C65 1_555 1_555
C67 O5 1_555 1_555
C68 C66 1_555 1_555
C69 C68 1_555 1_555
H72 C69 1_555 1_555
C70 C68 1_555 1_555
H75 C70 1_555 1_555
H76 C70 1_555 1_555
H77 C70 1_555 1_555
C71 C68 1_555 1_555
H78 C71 1_555 1_555
H79 C71 1_555 1_555
H80 C71 1_555 1_555
C72 H81 1_555 1_555
C73 C64 1_555 1_555
C74 C73 1_555 1_555
H82 C74 1_555 1_555
C75 C74 1_555 1_555
H83 C75 1_555 1_555
C76 N8 1_555 1_555
H84 C76 1_555 1_555
C77 C78 1_555 1_555
C78 H85 1_555 1_555
C79 C78 1_555 1_555
H86 C79 1_555 1_555
C80 C79 1_555 1_555
C81 C80 1_555 1_555
H87 C81 1_555 1_555
C82 C77 1_555 1_555
C84 C80 1_555 1_555
C85 C84 1_555 1_555
H89 C85 1_555 1_555
C86 C85 1_555 1_555
H90 C86 1_555 1_555
C87 C86 1_555 1_555
C88 C87 1_555 1_555
H91 C88 1_555 1_555
C89 C84 1_555 1_555
H92 C89 1_555 1_555
C90 O10 1_555 1_555
H94 C93 1_555 1_555
C94 C93 1_555 1_555
H95 C94 1_555 1_555
C98 C99 1_555 1_555
C99 H97 1_555 1_555
C100 C99 1_555 1_555
H98 C100 1_555 1_555
C101 C100 1_555 1_555
C102 C101 1_555 1_555
H99 C102 1_555 1_555
C103 C98 1_555 1_555
H100 C103 1_555 1_555
C104 O11 1_555 1_555
C105 C106 1_555 1_555
C106 H101 1_555 1_555
C107 C106 1_555 1_555
H102 C107 1_555 1_555
C108 C101 1_555 1_555
C109 C108 1_555 1_555
H103 C109 1_555 1_555
C110 C105 1_555 1_555
H104 C110 1_555 1_555
O17 C118 1_555 1_555
C112 H105 1_555 1_555
C113 C112 1_555 1_555
C117 C112 1_555 1_555
H108 C117 1_555 1_555
C118 C113 1_555 1_555
Cd6 O17 1_555 1_555
O20 Fe3 1_555 1_555
N10 Fe3 1_555 1_555
N11 Fe3 1_555 1_555
N12 Cd6 1_555 1_555
N13 Cd6 1_555 1_555
C134 N10 1_555 1_555
H124 C134 1_555 1_555
C135 N10 1_555 1_555
H125 C135 1_555 1_555
C136 C135 1_555 1_555
H126 C136 1_555 1_555
H127 C136 1_555 1_555
C137 C136 1_555 1_555
H128 C137 1_555 1_555
H129 C137 1_555 1_555
H132 C139 1_555 1_555
C140 N11 1_555 1_555
C141 N11 1_555 1_555
H135 C141 1_555 1_555
C142 C141 1_555 1_555
C143 C142 1_555 1_555
H136 C143 1_555 1_555
C144 C143 1_555 1_555
C145 C144 1_555 1_555
H137 C145 1_555 1_555
C146 C145 1_555 1_555
C147 O20 1_555 1_555
C152 N12 1_555 1_555
H147 C152 1_555 1_555
C153 C144 1_555 1_555
C157 N13 1_555 1_555
H151 C157 1_555 1_555
C158 C157 1_555 1_555
H152 C158 1_555 1_555
C159 C158 1_555 1_555
H153 C159 1_555 1_555
Cd8 N8 1_555 1_555
Cd11 O10 1_555 1_555
Fe6 O6 1_555 1_555
O27_2 Fe3 1_555 1_555
O34 Cd2 1_555 1_555
N18 Cd2 1_555 1_555
N20 Cd2 1_555 1_555
O12 C104 1_555 1_555
C37 C38 1_555 1_555
C42 C43 1_555 1_555
C49 C50 1_555 1_555
C52 C53 1_555 1_555
C52 C54 1_555 1_555
C55 C60 1_555 1_555
C59 C60 1_555 1_555
C62 C67 1_555 1_555
C66 C67 1_555 1_555
C72 C73 1_555 1_555
C75 C76 1_555 1_555
C81 C82 1_555 1_555
C87 C90 1_555 1_555
C88 C89 1_555 1_555
C98 C104 1_555 1_555
C102 C103 1_555 1_555
C107 C108 1_555 1_555
C109 C110 1_555 1_555
C116 C117 1_555 1_555
C135 C140 1_555 1_555
C139 C140 1_555 1_555
C142 C147 1_555 1_555
C146 C147 1_555 1_555
C152 C153 1_555 1_555
Cd11 O34 1_555 1_555
O1 C15 1_555 1_555
N1 C1 1_555 1_555
C1 H1 1_555 1_555
C2 C1 1_555 1_555
H2 C2 1_555 1_555
C3 C2 1_555 1_555
H3 C3 1_555 1_555
C4 C3 1_555 1_555
C5 N1 1_555 1_555
H4 C5 1_555 1_555
C6 C7 1_555 1_555
C7 H5 1_555 1_555
H6 C7 1_555 1_555
H7 C7 1_555 1_555
C8 C6 1_555 1_555
H8 C8 1_555 1_555
H9 C8 1_555 1_555
H10 C8 1_555 1_555
C9 C6 1_555 1_555
H11 C9 1_555 1_555
H12 C9 1_555 1_555
H13 C9 1_555 1_555
C10 C6 1_555 1_555
C11 C10 1_555 1_555
H14 C11 1_555 1_555
C12 C4 1_555 1_555
C13 C12 1_555 1_555
H15 C13 1_555 1_555
C14 C13 1_555 1_555
C15 C10 1_555 1_555
C31 C30 1_555 1_555
H30 C31 1_555 1_555
H31 C31 1_555 1_555
H32 C31 1_555 1_555
C32 C30 1_555 1_555
H34 C32 1_555 1_555
H35 C32 1_555 1_555
C33 C30 1_555 1_555
H36 C33 1_555 1_555
H37 C33 1_555 1_555
H38 C33 1_555 1_555
Cd13 N1 1_555 1_555
C4 C5 1_555 1_555
C11 C12 1_555 1_555
C14 C15 1_555 1_555
O2 Fe1 1_555 1_555
O3_4 Fe1 1_555 1_555
O13 Cd1 1_555 1_555
N2 Fe1 1_555 1_555
N3 Fe1 1_555 1_555
N4 Cd1 1_555 1_555
N5 Cd1 1_555 1_555
C16 N2 1_555 1_555
H16 C16 1_555 1_555
C17 N2 1_555 1_555
H17 C17 1_555 1_555
C18 C17 1_555 1_555
H18 C18 1_555 1_555
H19 C18 1_555 1_555
C19 C18 1_555 1_555
H20 C19 1_555 1_555
H21 C19 1_555 1_555
H24 C21 1_555 1_555
C22 N3 1_555 1_555
C23 N3 1_555 1_555
H27 C23 1_555 1_555
C24 C23 1_555 1_555
C25 C24 1_555 1_555
H28 C25 1_555 1_555
C26 C25 1_555 1_555
C27 C26 1_555 1_555
H29 C27 1_555 1_555
C28 C27 1_555 1_555
C29 O2 1_555 1_555
C34 N4 1_555 1_555
H39 C34 1_555 1_555
C35 C26 1_555 1_555
C39 N5 1_555 1_555
H43 C39 1_555 1_555
C40 C39 1_555 1_555
H44 C40 1_555 1_555
C41 C40 1_555 1_555
H45 C41 1_555 1_555
C91 H93 1_555 1_555
C92 C91 1_555 1_555
C96 C91 1_555 1_555
H96 C96 1_555 1_555
C97 O13 1_555 1_555
H106 C114 1_555 1_555
C115 C114 1_555 1_555
H107 C115 1_555 1_555
Cd4 O25 1_555 1_555
Fe4 O21 1_555 1_555
O21 C171 1_555 1_555
O22 Fe4 1_555 1_555
O25 C208 1_555 1_555
O26 Cd4 1_555 1_555
N14 Fe4 1_555 1_555
N15 Fe4 1_555 1_555
N16 C190 1_555 1_555
H148 C154 1_555 1_555
C155 C154 1_555 1_555
H149 C155 1_555 1_555
H150 C156 1_555 1_555
H154 C161 1_555 1_555
C164 C162 1_555 1_555
H158 C164 1_555 1_555
H159 C164 1_555 1_555
H160 C164 1_555 1_555
C165 C162 1_555 1_555
H162 C165 1_555 1_555
C166 C162 1_555 1_555
C167 C166 1_555 1_555
H164 C167 1_555 1_555
C168 C160 1_555 1_555
C169 C168 1_555 1_555
H165 C169 1_555 1_555
C170 C169 1_555 1_555
C171 C166 1_555 1_555
C172 N14 1_555 1_555
H166 C172 1_555 1_555
C173 N14 1_555 1_555
H167 C173 1_555 1_555
C174 C173 1_555 1_555
H168 C174 1_555 1_555
H169 C174 1_555 1_555
C175 C174 1_555 1_555
H170 C175 1_555 1_555
H171 C175 1_555 1_555
C176 C175 1_555 1_555
H172 C176 1_555 1_555
H173 C176 1_555 1_555
C177 C176 1_555 1_555
H174 C177 1_555 1_555
H175 C177 1_555 1_555
C178 N15 1_555 1_555
H176 C178 1_555 1_555
C179 N15 1_555 1_555
H177 C179 1_555 1_555
C180 C179 1_555 1_555
C181 C180 1_555 1_555
H178 C181 1_555 1_555
C182 C181 1_555 1_555
C183 C182 1_555 1_555
H179 C183 1_555 1_555
C184 C183 1_555 1_555
C185 O22 1_555 1_555
C186 C184 1_555 1_555
C187 C186 1_555 1_555
H180 C187 1_555 1_555
C188 C186 1_555 1_555
H183 C188 1_555 1_555
H184 C188 1_555 1_555
H185 C188 1_555 1_555
C189 C186 1_555 1_555
H186 C189 1_555 1_555
H187 C189 1_555 1_555
H188 C189 1_555 1_555
C190 H189 1_555 1_555
C191 C182 1_555 1_555
C192 C191 1_555 1_555
H190 C192 1_555 1_555
C193 C192 1_555 1_555
H191 C193 1_555 1_555
C194 N16 1_555 1_555
H192 C194 1_555 1_555
C195 C196 1_555 1_555
C196 H193 1_555 1_555
C197 C196 1_555 1_555
H194 C197 1_555 1_555
C198 C197 1_555 1_555
C199 C198 1_555 1_555
H195 C199 1_555 1_555
C200 C195 1_555 1_555
C202 C198 1_555 1_555
C203 C202 1_555 1_555
H197 C203 1_555 1_555
C204 C203 1_555 1_555
H198 C204 1_555 1_555
C205 C204 1_555 1_555
C206 C205 1_555 1_555
H199 C206 1_555 1_555
C207 C202 1_555 1_555
H200 C207 1_555 1_555
C208 O26 1_555 1_555
Cd7 N16 1_555 1_555
Cd9 O26 1_555 1_555
O28 Fe4 1_555 1_555
O32 Cd1 1_555 1_555
O33 Cd4 1_555 1_555
O35 Cd4 1_555 1_555
O36 Cd4 1_555 1_555
N17 Cd4 1_555 1_555
N19 Cd4 1_555 1_555
C17 C22 1_555 1_555
C21 C22 1_555 1_555
C24 C29 1_555 1_555
C28 C29 1_555 1_555
C34 C35 1_555 1_555
C92 C97 1_555 1_555
C95 C96 1_555 1_555
C155 C156 1_555 1_555
C160 C161 1_555 1_555
C167 C168 1_555 1_555
C170 C171 1_555 1_555
C170 C172 1_555 1_555
C173 C178 1_555 1_555
C177 C178 1_555 1_555
C180 C185 1_555 1_555
C184 C185 1_555 1_555
C190 C191 1_555 1_555
C193 C194 1_555 1_555
C199 C200 1_555 1_555
C205 C208 1_555 1_555
C206 C207 1_555 1_555
Cd9 O33 1_555 1_555
O15 C111 1_555 1_555
O16 C111 1_555 1_555
H130 C138 1_555 1_555
H131 C138 1_555 1_555
Cd11 O15 1_555 1_555
O16 Cd11 1_555 1_555
O32 C201 1_555 1_555
H156 C163 1_555 1_555
H157 C163 1_555 1_555
O15_2 C111_2 1_555 1_555
O16_2 C111_2 1_555 1_555
Cd9 O15_2 1_555 1_555
O16_2 Cd9 1_555 1_555
C98_2 C99_2 1_555 1_555
C99_2 H97_2 1_555 1_555
C100_2 C99_2 1_555 1_555
H98_2 C100_2 1_555 1_555
C101_2 C100_2 1_555 1_555
C102_2 C101_2 1_555 1_555
H99_2 C102_2 1_555 1_555
C103_2 C98_2 1_555 1_555
H100_2 C103_2 1_555 1_555
C104_2 O35 1_555 1_555
C105_2 C106_2 1_555 1_555
C106_2 H101_2 1_555 1_555
C107_2 C106_2 1_555 1_555
H102_2 C107_2 1_555 1_555
C108_2 C101_2 1_555 1_555
C109_2 C108_2 1_555 1_555
H103_2 C109_2 1_555 1_555
C110_2 C105_2 1_555 1_555
H104_2 C110_2 1_555 1_555
Fe6_2 O28 1_555 1_555
O36 C104_2 1_555 1_555
C98_2 C104_2 1_555 1_555
C102_2 C103_2 1_555 1_555
C107_2 C108_2 1_555 1_555
C109_2 C110_2 1_555 1_555
Fe5_2 O27_3 1_555 1_555
H22_2 C20_2 1_555 1_555
H23_2 C20_2 1_555 1_555
O8_2 C83_2 1_555 1_555
H48_2 C45_2 1_555 1_555
H49_2 C45_2 1_555 1_555
O8_2 Cd6_2 1_555 1_555
O2_2 Fe5_2 1_555 1_555
O13_2 Cd1_2 1_555 1_555
N2_2 Fe5_2 1_555 1_555
N3_2 Fe5_2 1_555 1_555
N4_2 Cd1_2 1_555 1_555
N5_2 Cd1_2 1_555 1_555
C16_2 N2_2 1_555 1_555
H16_2 C16_2 1_555 1_555
C17_2 N2_2 1_555 1_555
H17_2 C17_2 1_555 1_555
C18_2 C17_2 1_555 1_555
H18_2 C18_2 1_555 1_555
H19_2 C18_2 1_555 1_555
C19_2 C18_2 1_555 1_555
H20_2 C19_2 1_555 1_555
H21_2 C19_2 1_555 1_555
H24_2 C21_2 1_555 1_555
C22_2 N3_2 1_555 1_555
C23_2 N3_2 1_555 1_555
H27_2 C23_2 1_555 1_555
C24_2 C23_2 1_555 1_555
C25_2 C24_2 1_555 1_555
H28_2 C25_2 1_555 1_555
C26_2 C25_2 1_555 1_555
C27_2 C26_2 1_555 1_555
H29_2 C27_2 1_555 1_555
C28_2 C27_2 1_555 1_555
C29_2 O2_2 1_555 1_555
C34_2 N4_2 1_555 1_555
H39_2 C34_2 1_555 1_555
C35_2 C26_2 1_555 1_555
C39_2 N5_2 1_555 1_555
H43_2 C39_2 1_555 1_555
C40_2 C39_2 1_555 1_555
H44_2 C40_2 1_555 1_555
C41_2 C40_2 1_555 1_555
H45_2 C41_2 1_555 1_555
C91_2 H93_2 1_555 1_555
C92_2 C91_2 1_555 1_555
C96_2 C91_2 1_555 1_555
H96_2 C96_2 1_555 1_555
C97_2 O13_2 1_555 1_555
H106_2 C114_2 1_555 1_555
C115_2 C114_2 1_555 1_555
H107_2 C115_2 1_555 1_555
Cd4_2 O25_2 1_555 1_555
Fe4_2 O21_2 1_555 1_555
O21_2 C171_2 1_555 1_555
O22_2 Fe4_2 1_555 1_555
O25_2 C208_2 1_555 1_555
O26_2 Cd4_2 1_555 1_555
N14_2 Fe4_2 1_555 1_555
N15_2 Fe4_2 1_555 1_555
N16_2 C190_2 1_555 1_555
H148_2 C154_2 1_555 1_555
C155_2 C154_2 1_555 1_555
H149_2 C155_2 1_555 1_555
H150_2 C156_2 1_555 1_555
H154_2 C161_2 1_555 1_555
C164_2 C162_2 1_555 1_555
H158_2 C164_2 1_555 1_555
H159_2 C164_2 1_555 1_555
H160_2 C164_2 1_555 1_555
C165_2 C162_2 1_555 1_555
H162_2 C165_2 1_555 1_555
C166_2 C162_2 1_555 1_555
C167_2 C166_2 1_555 1_555
H164_2 C167_2 1_555 1_555
C168_2 C160_2 1_555 1_555
C169_2 C168_2 1_555 1_555
H165_2 C169_2 1_555 1_555
C170_2 C169_2 1_555 1_555
C171_2 C166_2 1_555 1_555
C172_2 N14_2 1_555 1_555
H166_2 C172_2 1_555 1_555
C173_2 N14_2 1_555 1_555
H167_2 C173_2 1_555 1_555
C174_2 C173_2 1_555 1_555
H168_2 C174_2 1_555 1_555
H169_2 C174_2 1_555 1_555
C175_2 C174_2 1_555 1_555
H170_2 C175_2 1_555 1_555
H171_2 C175_2 1_555 1_555
C176_2 C175_2 1_555 1_555
H172_2 C176_2 1_555 1_555
H173_2 C176_2 1_555 1_555
C177_2 C176_2 1_555 1_555
H174_2 C177_2 1_555 1_555
H175_2 C177_2 1_555 1_555
C178_2 N15_2 1_555 1_555
H176_2 C178_2 1_555 1_555
C179_2 N15_2 1_555 1_555
H177_2 C179_2 1_555 1_555
C180_2 C179_2 1_555 1_555
C181_2 C180_2 1_555 1_555
H178_2 C181_2 1_555 1_555
C182_2 C181_2 1_555 1_555
C183_2 C182_2 1_555 1_555
H179_2 C183_2 1_555 1_555
C184_2 C183_2 1_555 1_555
C185_2 O22_2 1_555 1_555
C186_2 C184_2 1_555 1_555
C187_2 C186_2 1_555 1_555
H180_2 C187_2 1_555 1_555
C188_2 C186_2 1_555 1_555
H183_2 C188_2 1_555 1_555
H184_2 C188_2 1_555 1_555
H185_2 C188_2 1_555 1_555
C189_2 C186_2 1_555 1_555
H186_2 C189_2 1_555 1_555
H187_2 C189_2 1_555 1_555
H188_2 C189_2 1_555 1_555
C190_2 H189_2 1_555 1_555
C191_2 C182_2 1_555 1_555
C192_2 C191_2 1_555 1_555
H190_2 C192_2 1_555 1_555
C193_2 C192_2 1_555 1_555
H191_2 C193_2 1_555 1_555
C194_2 N16_2 1_555 1_555
H192_2 C194_2 1_555 1_555
C195_2 C196_2 1_555 1_555
C196_2 H193_2 1_555 1_555
C197_2 C196_2 1_555 1_555
H194_2 C197_2 1_555 1_555
C198_2 C197_2 1_555 1_555
C199_2 C198_2 1_555 1_555
H195_2 C199_2 1_555 1_555
C200_2 C195_2 1_555 1_555
C202_2 C198_2 1_555 1_555
C203_2 C202_2 1_555 1_555
H197_2 C203_2 1_555 1_555
C204_2 C203_2 1_555 1_555
H198_2 C204_2 1_555 1_555
C205_2 C204_2 1_555 1_555
C206_2 C205_2 1_555 1_555
H199_2 C206_2 1_555 1_555
C207_2 C202_2 1_555 1_555
H200_2 C207_2 1_555 1_555
C208_2 O26_2 1_555 1_555
Cd7_2 N16_2 1_555 1_555
Cd12 O26_2 1_555 1_555
O28_2 Fe4_2 1_555 1_555
O32_2 Cd1_2 1_555 1_555
O33_2 Cd4_2 1_555 1_555
O35_2 Cd4_2 1_555 1_555
O36_2 Cd4_2 1_555 1_555
N17_2 Cd4_2 1_555 1_555
N19_2 Cd4_2 1_555 1_555
C17_2 C22_2 1_555 1_555
C21_2 C22_2 1_555 1_555
C24_2 C29_2 1_555 1_555
C28_2 C29_2 1_555 1_555
C34_2 C35_2 1_555 1_555
C92_2 C97_2 1_555 1_555
C95_2 C96_2 1_555 1_555
C155_2 C156_2 1_555 1_555
C160_2 C161_2 1_555 1_555
C167_2 C168_2 1_555 1_555
C170_2 C171_2 1_555 1_555
C170_2 C172_2 1_555 1_555
C173_2 C178_2 1_555 1_555
C177_2 C178_2 1_555 1_555
C180_2 C185_2 1_555 1_555
C184_2 C185_2 1_555 1_555
C190_2 C191_2 1_555 1_555
C193_2 C194_2 1_555 1_555
C199_2 C200_2 1_555 1_555
C205_2 C208_2 1_555 1_555
C206_2 C207_2 1_555 1_555
Cd12 O33_2 1_555 1_555
O1_2 C15_2 1_555 1_555
N1_2 C1_2 1_555 1_555
C1_2 H1_2 1_555 1_555
C2_2 C1_2 1_555 1_555
H2_2 C2_2 1_555 1_555
C3_2 C2_2 1_555 1_555
H3_2 C3_2 1_555 1_555
C4_2 C3_2 1_555 1_555
C5_2 N1_2 1_555 1_555
H4_2 C5_2 1_555 1_555
C6_2 C7_2 1_555 1_555
C7_2 H5_2 1_555 1_555
H6_2 C7_2 1_555 1_555
H7_2 C7_2 1_555 1_555
C8_2 C6_2 1_555 1_555
H8_2 C8_2 1_555 1_555
H9_2 C8_2 1_555 1_555
H10_2 C8_2 1_555 1_555
C9_2 C6_2 1_555 1_555
H11_2 C9_2 1_555 1_555
H12_2 C9_2 1_555 1_555
H13_2 C9_2 1_555 1_555
C10_2 C6_2 1_555 1_555
C11_2 C10_2 1_555 1_555
H14_2 C11_2 1_555 1_555
C12_2 C4_2 1_555 1_555
C13_2 C12_2 1_555 1_555
H15_2 C13_2 1_555 1_555
C14_2 C13_2 1_555 1_555
C15_2 C10_2 1_555 1_555
C31_2 C30_2 1_555 1_555
H30_2 C31_2 1_555 1_555
H31_2 C31_2 1_555 1_555
H32_2 C31_2 1_555 1_555
C32_2 C30_2 1_555 1_555
H34_2 C32_2 1_555 1_555
H35_2 C32_2 1_555 1_555
C33_2 C30_2 1_555 1_555
H36_2 C33_2 1_555 1_555
H37_2 C33_2 1_555 1_555
H38_2 C33_2 1_555 1_555
Cd11 N1_2 1_555 1_555
C4_2 C5_2 1_555 1_555
C11_2 C12_2 1_555 1_555
C14_2 C15_2 1_555 1_555
Cd2_2 O9_2 1_555 1_555
Fe2_2 O4_2 1_555 1_555
O4_2 C53_2 1_555 1_555
O5_2 Fe2_2 1_555 1_555
O6_2 Fe2_2 1_555 1_555
O9_2 C90_2 1_555 1_555
O10_2 Cd2_2 1_555 1_555
O11_2 Cd2_2 1_555 1_555
O12_2 Cd2_2 1_555 1_555
N6_2 Fe2_2 1_555 1_555
N7_2 Fe2_2 1_555 1_555
N8_2 C72_2 1_555 1_555
H40_2 C36_2 1_555 1_555
C37_2 C36_2 1_555 1_555
H41_2 C37_2 1_555 1_555
H42_2 C38_2 1_555 1_555
H46_2 C43_2 1_555 1_555
C46_2 C44_2 1_555 1_555
H50_2 C46_2 1_555 1_555
H51_2 C46_2 1_555 1_555
H52_2 C46_2 1_555 1_555
C47_2 C44_2 1_555 1_555
H54_2 C47_2 1_555 1_555
C48_2 C44_2 1_555 1_555
C49_2 C48_2 1_555 1_555
H56_2 C49_2 1_555 1_555
C50_2 C42_2 1_555 1_555
C51_2 C50_2 1_555 1_555
H57_2 C51_2 1_555 1_555
C52_2 C51_2 1_555 1_555
C53_2 C48_2 1_555 1_555
C54_2 N6_2 1_555 1_555
H58_2 C54_2 1_555 1_555
C55_2 N6_2 1_555 1_555
H59_2 C55_2 1_555 1_555
C56_2 C55_2 1_555 1_555
H60_2 C56_2 1_555 1_555
H61_2 C56_2 1_555 1_555
C57_2 C56_2 1_555 1_555
H62_2 C57_2 1_555 1_555
H63_2 C57_2 1_555 1_555
C58_2 C57_2 1_555 1_555
H64_2 C58_2 1_555 1_555
H65_2 C58_2 1_555 1_555
C59_2 C58_2 1_555 1_555
H66_2 C59_2 1_555 1_555
H67_2 C59_2 1_555 1_555
C60_2 N7_2 1_555 1_555
H68_2 C60_2 1_555 1_555
C61_2 N7_2 1_555 1_555
H69_2 C61_2 1_555 1_555
C62_2 C61_2 1_555 1_555
C63_2 C62_2 1_555 1_555
H70_2 C63_2 1_555 1_555
C64_2 C63_2 1_555 1_555
C65_2 C64_2 1_555 1_555
H71_2 C65_2 1_555 1_555
C66_2 C65_2 1_555 1_555
C67_2 O5_2 1_555 1_555
C68_2 C66_2 1_555 1_555
C69_2 C68_2 1_555 1_555
H72_2 C69_2 1_555 1_555
C70_2 C68_2 1_555 1_555
H75_2 C70_2 1_555 1_555
H76_2 C70_2 1_555 1_555
H77_2 C70_2 1_555 1_555
C71_2 C68_2 1_555 1_555
H78_2 C71_2 1_555 1_555
H79_2 C71_2 1_555 1_555
H80_2 C71_2 1_555 1_555
C72_2 H81_2 1_555 1_555
C73_2 C64_2 1_555 1_555
C74_2 C73_2 1_555 1_555
H82_2 C74_2 1_555 1_555
C75_2 C74_2 1_555 1_555
H83_2 C75_2 1_555 1_555
C76_2 N8_2 1_555 1_555
H84_2 C76_2 1_555 1_555
C77_2 C78_2 1_555 1_555
C78_2 H85_2 1_555 1_555
C79_2 C78_2 1_555 1_555
H86_2 C79_2 1_555 1_555
C80_2 C79_2 1_555 1_555
C81_2 C80_2 1_555 1_555
H87_2 C81_2 1_555 1_555
C82_2 C77_2 1_555 1_555
C84_2 C80_2 1_555 1_555
C85_2 C84_2 1_555 1_555
H89_2 C85_2 1_555 1_555
C86_2 C85_2 1_555 1_555
H90_2 C86_2 1_555 1_555
C87_2 C86_2 1_555 1_555
C88_2 C87_2 1_555 1_555
H91_2 C88_2 1_555 1_555
C89_2 C84_2 1_555 1_555
H92_2 C89_2 1_555 1_555
C90_2 O10_2 1_555 1_555
H94_2 C93_2 1_555 1_555
C94_2 C93_2 1_555 1_555
H95_2 C94_2 1_555 1_555
C98_3 C99_3 1_555 1_555
C99_3 H97_3 1_555 1_555
C100_3 C99_3 1_555 1_555
H98_3 C100_3 1_555 1_555
C101_3 C100_3 1_555 1_555
C102_3 C101_3 1_555 1_555
H99_3 C102_3 1_555 1_555
C103_3 C98_3 1_555 1_555
H100_3 C103_3 1_555 1_555
C104_3 O11_2 1_555 1_555
C105_3 C106_3 1_555 1_555
C106_3 H101_3 1_555 1_555
C107_3 C106_3 1_555 1_555
H102_3 C107_3 1_555 1_555
C108_3 C101_3 1_555 1_555
C109_3 C108_3 1_555 1_555
H103_3 C109_3 1_555 1_555
C110_3 C105_3 1_555 1_555
H104_3 C110_3 1_555 1_555
O17_2 C118_2 1_555 1_555
C112_2 H105_2 1_555 1_555
C113_2 C112_2 1_555 1_555
C117_2 C112_2 1_555 1_555
H108_2 C117_2 1_555 1_555
C118_2 C113_2 1_555 1_555
Cd6_2 O17_2 1_555 1_555
O20_2 Fe5 1_555 1_555
N10_2 Fe5 1_555 1_555
N11_2 Fe5 1_555 1_555
N12_2 Cd6_2 1_555 1_555
N13_2 Cd6_2 1_555 1_555
C134_2 N10_2 1_555 1_555
H124_2 C134_2 1_555 1_555
C135_2 N10_2 1_555 1_555
H125_2 C135_2 1_555 1_555
C136_2 C135_2 1_555 1_555
H126_2 C136_2 1_555 1_555
H127_2 C136_2 1_555 1_555
C137_2 C136_2 1_555 1_555
H128_2 C137_2 1_555 1_555
H129_2 C137_2 1_555 1_555
H132_2 C139_2 1_555 1_555
C140_2 N11_2 1_555 1_555
C141_2 N11_2 1_555 1_555
H135_2 C141_2 1_555 1_555
C142_2 C141_2 1_555 1_555
C143_2 C142_2 1_555 1_555
H136_2 C143_2 1_555 1_555
C144_2 C143_2 1_555 1_555
C145_2 C144_2 1_555 1_555
H137_2 C145_2 1_555 1_555
C146_2 C145_2 1_555 1_555
C147_2 O20_2 1_555 1_555
C152_2 N12_2 1_555 1_555
H147_2 C152_2 1_555 1_555
C153_2 C144_2 1_555 1_555
C157_2 N13_2 1_555 1_555
H151_2 C157_2 1_555 1_555
C158_2 C157_2 1_555 1_555
H152_2 C158_2 1_555 1_555
C159_2 C158_2 1_555 1_555
H153_2 C159_2 1_555 1_555
Cd8_2 N8_2 1_555 1_555
Cd13 O10_2 1_555 1_555
Fe6_3 O6_2 1_555 1_555
O34_2 Cd2_2 1_555 1_555
N18_2 Cd2_2 1_555 1_555
N20_2 Cd2_2 1_555 1_555
O12_2 C104_3 1_555 1_555
C37_2 C38_2 1_555 1_555
C42_2 C43_2 1_555 1_555
C49_2 C50_2 1_555 1_555
C52_2 C53_2 1_555 1_555
C52_2 C54_2 1_555 1_555
C55_2 C60_2 1_555 1_555
C59_2 C60_2 1_555 1_555
C62_2 C67_2 1_555 1_555
C66_2 C67_2 1_555 1_555
C72_2 C73_2 1_555 1_555
C75_2 C76_2 1_555 1_555
C81_2 C82_2 1_555 1_555
C87_2 C90_2 1_555 1_555
C88_2 C89_2 1_555 1_555
C98_3 C104_3 1_555 1_555
C102_3 C103_3 1_555 1_555
C107_3 C108_3 1_555 1_555
C109_3 C110_3 1_555 1_555
C116_2 C117_2 1_555 1_555
C135_2 C140_2 1_555 1_555
C139_2 C140_2 1_555 1_555
C142_2 C147_2 1_555 1_555
C146_2 C147_2 1_555 1_555
C152_2 C153_2 1_555 1_555
Cd13 O34_2 1_555 1_555
O19_2 C133_2 1_555 1_555
N9_2 C119_2 1_555 1_555
C119_2 H109_2 1_555 1_555
C120_2 C119_2 1_555 1_555
H110_2 C120_2 1_555 1_555
C121_2 C120_2 1_555 1_555
H111_2 C121_2 1_555 1_555
C122_2 C121_2 1_555 1_555
C123_2 N9_2 1_555 1_555
H112_2 C123_2 1_555 1_555
C124_2 C125_2 1_555 1_555
C125_2 H113_2 1_555 1_555
H114_2 C125_2 1_555 1_555
H115_2 C125_2 1_555 1_555
C126_2 C124_2 1_555 1_555
H116_2 C126_2 1_555 1_555
H117_2 C126_2 1_555 1_555
H118_2 C126_2 1_555 1_555
C127_2 C124_2 1_555 1_555
H119_2 C127_2 1_555 1_555
H120_2 C127_2 1_555 1_555
H121_2 C127_2 1_555 1_555
C128_2 C124_2 1_555 1_555
C129_2 C128_2 1_555 1_555
H122_2 C129_2 1_555 1_555
C130_2 C122_2 1_555 1_555
C131_2 C130_2 1_555 1_555
H123_2 C131_2 1_555 1_555
C132_2 C131_2 1_555 1_555
C133_2 C128_2 1_555 1_555
C149_2 C148_2 1_555 1_555
H138_2 C149_2 1_555 1_555
H139_2 C149_2 1_555 1_555
H140_2 C149_2 1_555 1_555
C150_2 C148_2 1_555 1_555
H142_2 C150_2 1_555 1_555
H143_2 C150_2 1_555 1_555
C151_2 C148_2 1_555 1_555
H144_2 C151_2 1_555 1_555
H145_2 C151_2 1_555 1_555
H146_2 C151_2 1_555 1_555
Cd9 N9_2 1_555 1_555
C122_2 C123_2 1_555 1_555
C129_2 C130_2 1_555 1_555
C132_2 C133_2 1_555 1_555
O32_2 C201_2 1_555 1_555
H156_2 C163_2 1_555 1_555
H157_2 C163_2 1_555 1_555
O15_3 C111_3 1_555 1_555
O16_3 C111_3 1_555 1_555
H130_2 C138_2 1_555 1_555
H131_2 C138_2 1_555 1_555
Cd13 O15_3 1_555 1_555
O16_3 Cd13 1_555 1_555
O15_4 C111_4 1_555 1_555
O16_4 C111_4 1_555 1_555
Cd12 O15_4 1_555 1_555
O16_4 Cd12 1_555 1_555
C98_4 C99_4 1_555 1_555
C99_4 H97_4 1_555 1_555
C100_4 C99_4 1_555 1_555
H98_4 C100_4 1_555 1_555
C101_4 C100_4 1_555 1_555
C102_4 C101_4 1_555 1_555
H99_4 C102_4 1_555 1_555
C103_4 C98_4 1_555 1_555
H100_4 C103_4 1_555 1_555
C104_4 O35_2 1_555 1_555
C105_4 C106_4 1_555 1_555
C106_4 H101_4 1_555 1_555
C107_4 C106_4 1_555 1_555
H102_4 C107_4 1_555 1_555
C108_4 C101_4 1_555 1_555
C109_4 C108_4 1_555 1_555
H103_4 C109_4 1_555 1_555
C110_4 C105_4 1_555 1_555
H104_4 C110_4 1_555 1_555
Fe6_4 O28_2 1_555 1_555
O36_2 C104_4 1_555 1_555
C98_4 C104_4 1_555 1_555
C102_4 C103_4 1_555 1_555
C107_4 C108_4 1_555 1_555
C109_4 C110_4 1_555 1_555
O8_3 C83_3 1_555 1_555
H22_3 C20_3 1_555 1_555
H23_3 C20_3 1_555 1_555
H48_3 C45_3 1_555 1_555
H49_3 C45_3 1_555 1_555
Fe5_3 O3_5 1_555 1_555
O8_3 Cd6_3 1_555 1_555
Cd6_3 O30_3 1_555 1_555
Cd1_3 O7_3 1_555 1_555
Cd2_3 O9_3 1_555 1_555
Fe1_2 O1_3 1_555 1_555
Fe2_3 O4_3 1_555 1_555
O1_3 C15_3 1_555 1_555
O2_3 Fe1_2 1_555 1_555
O3_6 Fe1_2 1_555 1_555
O4_3 C53_3 1_555 1_555
O5_3 Fe2_3 1_555 1_555
O6_3 Fe2_3 1_555 1_555
O9_3 C90_3 1_555 1_555
O10_3 Cd2_3 1_555 1_555
O11_3 Cd2_3 1_555 1_555
O12_3 Cd2_3 1_555 1_555
O13_3 Cd1_3 1_555 1_555
O14_3 Cd1_3 1_555 1_555
N1_3 C1_3 1_555 1_555
N2_3 Fe1_2 1_555 1_555
N3_3 Fe1_2 1_555 1_555
N4_3 Cd1_3 1_555 1_555
N5_3 Cd1_3 1_555 1_555
N6_3 Fe2_3 1_555 1_555
N7_3 Fe2_3 1_555 1_555
N8_3 C72_3 1_555 1_555
C1_3 H1_3 1_555 1_555
C2_3 C1_3 1_555 1_555
H2_3 C2_3 1_555 1_555
C3_3 C2_3 1_555 1_555
H3_3 C3_3 1_555 1_555
C4_3 C3_3 1_555 1_555
C5_3 N1_3 1_555 1_555
H4_3 C5_3 1_555 1_555
C6_3 C7_3 1_555 1_555
C7_3 H5_3 1_555 1_555
H6_3 C7_3 1_555 1_555
H7_3 C7_3 1_555 1_555
C8_3 C6_3 1_555 1_555
H8_3 C8_3 1_555 1_555
H9_3 C8_3 1_555 1_555
H10_3 C8_3 1_555 1_555
C9_3 C6_3 1_555 1_555
H11_3 C9_3 1_555 1_555
H12_3 C9_3 1_555 1_555
H13_3 C9_3 1_555 1_555
C10_3 C6_3 1_555 1_555
C11_3 C10_3 1_555 1_555
H14_3 C11_3 1_555 1_555
C12_3 C4_3 1_555 1_555
C13_3 C12_3 1_555 1_555
H15_3 C13_3 1_555 1_555
C14_3 C13_3 1_555 1_555
C15_3 C10_3 1_555 1_555
C16_3 N2_3 1_555 1_555
H16_3 C16_3 1_555 1_555
C17_3 N2_3 1_555 1_555
H17_3 C17_3 1_555 1_555
C18_3 C17_3 1_555 1_555
H18_3 C18_3 1_555 1_555
H19_3 C18_3 1_555 1_555
C19_3 C18_3 1_555 1_555
H20_3 C19_3 1_555 1_555
H21_3 C19_3 1_555 1_555
H24_3 C21_3 1_555 1_555
C22_3 N3_3 1_555 1_555
C23_3 N3_3 1_555 1_555
H27_3 C23_3 1_555 1_555
C24_3 C23_3 1_555 1_555
C25_3 C24_3 1_555 1_555
H28_3 C25_3 1_555 1_555
C26_3 C25_3 1_555 1_555
C27_3 C26_3 1_555 1_555
H29_3 C27_3 1_555 1_555
C28_3 C27_3 1_555 1_555
C29_3 O2_3 1_555 1_555
C30_3 C28_3 1_555 1_555
C31_3 C30_3 1_555 1_555
H30_3 C31_3 1_555 1_555
H31_3 C31_3 1_555 1_555
H32_3 C31_3 1_555 1_555
C32_3 C30_3 1_555 1_555
H33_3 C32_3 1_555 1_555
H34_3 C32_3 1_555 1_555
H35_3 C32_3 1_555 1_555
C33_3 C30_3 1_555 1_555
H36_3 C33_3 1_555 1_555
H37_3 C33_3 1_555 1_555
H38_3 C33_3 1_555 1_555
C34_3 N4_3 1_555 1_555
H39_3 C34_3 1_555 1_555
C35_3 C26_3 1_555 1_555
C36_3 C35_3 1_555 1_555
H40_3 C36_3 1_555 1_555
C37_3 C36_3 1_555 1_555
H41_3 C37_3 1_555 1_555
C38_3 N4_3 1_555 1_555
H42_3 C38_3 1_555 1_555
C39_3 N5_3 1_555 1_555
H43_3 C39_3 1_555 1_555
C40_3 C39_3 1_555 1_555
H44_3 C40_3 1_555 1_555
C41_3 C40_3 1_555 1_555
H45_3 C41_3 1_555 1_555
C42_3 C41_3 1_555 1_555
C43_3 N5_3 1_555 1_555
H46_3 C43_3 1_555 1_555
C46_3 C44_3 1_555 1_555
H50_3 C46_3 1_555 1_555
H51_3 C46_3 1_555 1_555
H52_3 C46_3 1_555 1_555
C47_3 C44_3 1_555 1_555
H54_3 C47_3 1_555 1_555
C48_3 C44_3 1_555 1_555
C49_3 C48_3 1_555 1_555
H56_3 C49_3 1_555 1_555
C50_3 C42_3 1_555 1_555
C51_3 C50_3 1_555 1_555
H57_3 C51_3 1_555 1_555
C52_3 C51_3 1_555 1_555
C53_3 C48_3 1_555 1_555
C54_3 N6_3 1_555 1_555
H58_3 C54_3 1_555 1_555
C55_3 N6_3 1_555 1_555
H59_3 C55_3 1_555 1_555
C56_3 C55_3 1_555 1_555
H60_3 C56_3 1_555 1_555
H61_3 C56_3 1_555 1_555
C57_3 C56_3 1_555 1_555
H62_3 C57_3 1_555 1_555
H63_3 C57_3 1_555 1_555
C58_3 C57_3 1_555 1_555
H64_3 C58_3 1_555 1_555
H65_3 C58_3 1_555 1_555
C59_3 C58_3 1_555 1_555
H66_3 C59_3 1_555 1_555
H67_3 C59_3 1_555 1_555
C60_3 N7_3 1_555 1_555
H68_3 C60_3 1_555 1_555
C61_3 N7_3 1_555 1_555
H69_3 C61_3 1_555 1_555
C62_3 C61_3 1_555 1_555
C63_3 C62_3 1_555 1_555
H70_3 C63_3 1_555 1_555
C64_3 C63_3 1_555 1_555
C65_3 C64_3 1_555 1_555
H71_3 C65_3 1_555 1_555
C66_3 C65_3 1_555 1_555
C67_3 O5_3 1_555 1_555
C68_3 C66_3 1_555 1_555
C69_3 C68_3 1_555 1_555
H72_3 C69_3 1_555 1_555
C70_3 C68_3 1_555 1_555
H75_3 C70_3 1_555 1_555
H76_3 C70_3 1_555 1_555
H77_3 C70_3 1_555 1_555
C71_3 C68_3 1_555 1_555
H78_3 C71_3 1_555 1_555
H79_3 C71_3 1_555 1_555
H80_3 C71_3 1_555 1_555
C72_3 H81_3 1_555 1_555
C73_3 C64_3 1_555 1_555
C74_3 C73_3 1_555 1_555
H82_3 C74_3 1_555 1_555
C75_3 C74_3 1_555 1_555
H83_3 C75_3 1_555 1_555
C76_3 N8_3 1_555 1_555
H84_3 C76_3 1_555 1_555
C77_3 C78_3 1_555 1_555
C78_3 H85_3 1_555 1_555
C79_3 C78_3 1_555 1_555
H86_3 C79_3 1_555 1_555
C80_3 C79_3 1_555 1_555
C81_3 C80_3 1_555 1_555
H87_3 C81_3 1_555 1_555
C82_3 C77_3 1_555 1_555
C84_3 C80_3 1_555 1_555
C85_3 C84_3 1_555 1_555
H89_3 C85_3 1_555 1_555
C86_3 C85_3 1_555 1_555
H90_3 C86_3 1_555 1_555
C87_3 C86_3 1_555 1_555
C88_3 C87_3 1_555 1_555
H91_3 C88_3 1_555 1_555
C89_3 C84_3 1_555 1_555
H92_3 C89_3 1_555 1_555
C90_3 O10_3 1_555 1_555
C91_3 H93_3 1_555 1_555
C92_3 C91_3 1_555 1_555
C93_3 C92_3 1_555 1_555
H94_3 C93_3 1_555 1_555
C94_3 C93_3 1_555 1_555
H95_3 C94_3 1_555 1_555
C95_3 C94_3 1_555 1_555
C96_3 C91_3 1_555 1_555
H96_3 C96_3 1_555 1_555
C97_3 O13_3 1_555 1_555
C98_5 C99_5 1_555 1_555
C99_5 H97_5 1_555 1_555
C100_5 C99_5 1_555 1_555
H98_5 C100_5 1_555 1_555
C101_5 C100_5 1_555 1_555
C102_5 C101_5 1_555 1_555
H99_5 C102_5 1_555 1_555
C103_5 C98_5 1_555 1_555
H100_5 C103_5 1_555 1_555
C104_5 O11_3 1_555 1_555
C105_5 C106_5 1_555 1_555
C106_5 H101_5 1_555 1_555
C107_5 C106_5 1_555 1_555
H102_5 C107_5 1_555 1_555
C108_5 C101_5 1_555 1_555
C109_5 C108_5 1_555 1_555
H103_5 C109_5 1_555 1_555
C110_5 C105_5 1_555 1_555
H104_5 C110_5 1_555 1_555
O17_3 C118_3 1_555 1_555
O18_3 C118_3 1_555 1_555
C112_3 H105_3 1_555 1_555
C113_3 C112_3 1_555 1_555
C114_3 C113_3 1_555 1_555
H106_3 C114_3 1_555 1_555
C115_3 C114_3 1_555 1_555
H107_3 C115_3 1_555 1_555
C116_3 C95_3 1_555 1_555
C117_3 C112_3 1_555 1_555
H108_3 C117_3 1_555 1_555
C118_3 C113_3 1_555 1_555
Cd6_3 O17_3 1_555 1_555
Cd4_3 O25_3 1_555 1_555
Fe3_2 O19_3 1_555 1_555
Fe4_3 O21_3 1_555 1_555
O19_3 C133_3 1_555 1_555
O20_3 Fe3_2 1_555 1_555
O21_3 C171_3 1_555 1_555
O22_3 Fe4_3 1_555 1_555
O25_3 C208_3 1_555 1_555
O26_3 Cd4_3 1_555 1_555
N9_3 C119_3 1_555 1_555
N10_3 Fe3_2 1_555 1_555
N11_3 Fe3_2 1_555 1_555
N12_3 Cd6_3 1_555 1_555
N13_3 Cd6_3 1_555 1_555
N14_3 Fe4_3 1_555 1_555
N15_3 Fe4_3 1_555 1_555
N16_3 C190_3 1_555 1_555
C119_3 H109_3 1_555 1_555
C120_3 C119_3 1_555 1_555
H110_3 C120_3 1_555 1_555
C121_3 C120_3 1_555 1_555
H111_3 C121_3 1_555 1_555
C122_3 C121_3 1_555 1_555
C123_3 N9_3 1_555 1_555
H112_3 C123_3 1_555 1_555
C124_3 C125_3 1_555 1_555
C125_3 H113_3 1_555 1_555
H114_3 C125_3 1_555 1_555
H115_3 C125_3 1_555 1_555
C126_3 C124_3 1_555 1_555
H116_3 C126_3 1_555 1_555
H117_3 C126_3 1_555 1_555
H118_3 C126_3 1_555 1_555
C127_3 C124_3 1_555 1_555
H119_3 C127_3 1_555 1_555
H120_3 C127_3 1_555 1_555
H121_3 C127_3 1_555 1_555
C128_3 C124_3 1_555 1_555
C129_3 C128_3 1_555 1_555
H122_3 C129_3 1_555 1_555
C130_3 C122_3 1_555 1_555
C131_3 C130_3 1_555 1_555
H123_3 C131_3 1_555 1_555
C132_3 C131_3 1_555 1_555
C133_3 C128_3 1_555 1_555
C134_3 N10_3 1_555 1_555
H124_3 C134_3 1_555 1_555
C135_3 N10_3 1_555 1_555
H125_3 C135_3 1_555 1_555
C136_3 C135_3 1_555 1_555
H126_3 C136_3 1_555 1_555
H127_3 C136_3 1_555 1_555
C137_3 C136_3 1_555 1_555
H128_3 C137_3 1_555 1_555
H129_3 C137_3 1_555 1_555
H132_3 C139_3 1_555 1_555
C140_3 N11_3 1_555 1_555
C141_3 N11_3 1_555 1_555
H135_3 C141_3 1_555 1_555
C142_3 C141_3 1_555 1_555
C143_3 C142_3 1_555 1_555
H136_3 C143_3 1_555 1_555
C144_3 C143_3 1_555 1_555
C145_3 C144_3 1_555 1_555
H137_3 C145_3 1_555 1_555
C146_3 C145_3 1_555 1_555
C147_3 O20_3 1_555 1_555
C148_3 C146_3 1_555 1_555
C149_3 C148_3 1_555 1_555
H138_3 C149_3 1_555 1_555
H139_3 C149_3 1_555 1_555
H140_3 C149_3 1_555 1_555
C150_3 C148_3 1_555 1_555
H141_3 C150_3 1_555 1_555
H142_3 C150_3 1_555 1_555
H143_3 C150_3 1_555 1_555
C151_3 C148_3 1_555 1_555
H144_3 C151_3 1_555 1_555
H145_3 C151_3 1_555 1_555
H146_3 C151_3 1_555 1_555
C152_3 N12_3 1_555 1_555
H147_3 C152_3 1_555 1_555
C153_3 C144_3 1_555 1_555
C154_3 C153_3 1_555 1_555
H148_3 C154_3 1_555 1_555
C155_3 C154_3 1_555 1_555
H149_3 C155_3 1_555 1_555
C156_3 N12_3 1_555 1_555
H150_3 C156_3 1_555 1_555
C157_3 N13_3 1_555 1_555
H151_3 C157_3 1_555 1_555
C158_3 C157_3 1_555 1_555
H152_3 C158_3 1_555 1_555
C159_3 C158_3 1_555 1_555
H153_3 C159_3 1_555 1_555
C160_3 C159_3 1_555 1_555
C161_3 N13_3 1_555 1_555
H154_3 C161_3 1_555 1_555
C164_3 C162_3 1_555 1_555
H158_3 C164_3 1_555 1_555
H159_3 C164_3 1_555 1_555
H160_3 C164_3 1_555 1_555
C165_3 C162_3 1_555 1_555
H162_3 C165_3 1_555 1_555
C166_3 C162_3 1_555 1_555
C167_3 C166_3 1_555 1_555
H164_3 C167_3 1_555 1_555
C168_3 C160_3 1_555 1_555
C169_3 C168_3 1_555 1_555
H165_3 C169_3 1_555 1_555
C170_3 C169_3 1_555 1_555
C171_3 C166_3 1_555 1_555
C172_3 N14_3 1_555 1_555
H166_3 C172_3 1_555 1_555
C173_3 N14_3 1_555 1_555
H167_3 C173_3 1_555 1_555
C174_3 C173_3 1_555 1_555
H168_3 C174_3 1_555 1_555
H169_3 C174_3 1_555 1_555
C175_3 C174_3 1_555 1_555
H170_3 C175_3 1_555 1_555
H171_3 C175_3 1_555 1_555
C176_3 C175_3 1_555 1_555
H172_3 C176_3 1_555 1_555
H173_3 C176_3 1_555 1_555
C177_3 C176_3 1_555 1_555
H174_3 C177_3 1_555 1_555
H175_3 C177_3 1_555 1_555
C178_3 N15_3 1_555 1_555
H176_3 C178_3 1_555 1_555
C179_3 N15_3 1_555 1_555
H177_3 C179_3 1_555 1_555
C180_3 C179_3 1_555 1_555
C181_3 C180_3 1_555 1_555
H178_3 C181_3 1_555 1_555
C182_3 C181_3 1_555 1_555
C183_3 C182_3 1_555 1_555
H179_3 C183_3 1_555 1_555
C184_3 C183_3 1_555 1_555
C185_3 O22_3 1_555 1_555
C186_3 C184_3 1_555 1_555
C187_3 C186_3 1_555 1_555
H180_3 C187_3 1_555 1_555
C188_3 C186_3 1_555 1_555
H183_3 C188_3 1_555 1_555
H184_3 C188_3 1_555 1_555
H185_3 C188_3 1_555 1_555
C189_3 C186_3 1_555 1_555
H186_3 C189_3 1_555 1_555
H187_3 C189_3 1_555 1_555
H188_3 C189_3 1_555 1_555
C190_3 H189_3 1_555 1_555
C191_3 C182_3 1_555 1_555
C192_3 C191_3 1_555 1_555
H190_3 C192_3 1_555 1_555
C193_3 C192_3 1_555 1_555
H191_3 C193_3 1_555 1_555
C194_3 N16_3 1_555 1_555
H192_3 C194_3 1_555 1_555
C195_3 C196_3 1_555 1_555
C196_3 H193_3 1_555 1_555
C197_3 C196_3 1_555 1_555
H194_3 C197_3 1_555 1_555
C198_3 C197_3 1_555 1_555
C199_3 C198_3 1_555 1_555
H195_3 C199_3 1_555 1_555
C200_3 C195_3 1_555 1_555
C202_3 C198_3 1_555 1_555
C203_3 C202_3 1_555 1_555
H197_3 C203_3 1_555 1_555
C204_3 C203_3 1_555 1_555
H198_3 C204_3 1_555 1_555
C205_3 C204_3 1_555 1_555
C206_3 C205_3 1_555 1_555
H199_3 C206_3 1_555 1_555
C207_3 C202_3 1_555 1_555
H200_3 C207_3 1_555 1_555
C208_3 O26_3 1_555 1_555
Cd12 N16_3 1_555 1_555
Cd13 N8_3 1_555 1_555
Cd7_2 O26_3 1_555 1_555
Cd8_2 O10_3 1_555 1_555
Cd7 N9_3 1_555 1_555
Cd8 N1_3 1_555 1_555
Fe6_5 O6_3 1_555 1_555
O27_5 Fe3_2 1_555 1_555
O28_3 Fe4_3 1_555 1_555
O32_3 Cd1_3 1_555 1_555
O33_3 Cd4_3 1_555 1_555
O34_3 Cd2_3 1_555 1_555
O35_3 Cd4_3 1_555 1_555
O36_3 Cd4_3 1_555 1_555
N17_3 Cd4_3 1_555 1_555
N18_3 Cd2_3 1_555 1_555
N19_3 Cd4_3 1_555 1_555
N20_3 Cd2_3 1_555 1_555
O12_3 C104_5 1_555 1_555
O14_3 C97_3 1_555 1_555
C4_3 C5_3 1_555 1_555
C11_3 C12_3 1_555 1_555
C14_3 C15_3 1_555 1_555
C14_3 C16_3 1_555 1_555
C17_3 C22_3 1_555 1_555
C21_3 C22_3 1_555 1_555
C24_3 C29_3 1_555 1_555
C28_3 C29_3 1_555 1_555
C34_3 C35_3 1_555 1_555
C37_3 C38_3 1_555 1_555
C42_3 C43_3 1_555 1_555
C49_3 C50_3 1_555 1_555
C52_3 C53_3 1_555 1_555
C52_3 C54_3 1_555 1_555
C55_3 C60_3 1_555 1_555
C59_3 C60_3 1_555 1_555
C62_3 C67_3 1_555 1_555
C66_3 C67_3 1_555 1_555
C72_3 C73_3 1_555 1_555
C75_3 C76_3 1_555 1_555
C81_3 C82_3 1_555 1_555
C87_3 C90_3 1_555 1_555
C88_3 C89_3 1_555 1_555
C92_3 C97_3 1_555 1_555
C95_3 C96_3 1_555 1_555
C98_5 C104_5 1_555 1_555
C102_5 C103_5 1_555 1_555
C107_5 C108_5 1_555 1_555
C109_5 C110_5 1_555 1_555
O18_3 Cd6_3 1_555 1_555
C115_3 C116_3 1_555 1_555
C116_3 C117_3 1_555 1_555
C122_3 C123_3 1_555 1_555
C129_3 C130_3 1_555 1_555
C132_3 C133_3 1_555 1_555
C132_3 C134_3 1_555 1_555
C135_3 C140_3 1_555 1_555
C139_3 C140_3 1_555 1_555
C142_3 C147_3 1_555 1_555
C146_3 C147_3 1_555 1_555
C152_3 C153_3 1_555 1_555
C155_3 C156_3 1_555 1_555
C160_3 C161_3 1_555 1_555
C167_3 C168_3 1_555 1_555
C170_3 C171_3 1_555 1_555
C170_3 C172_3 1_555 1_555
C173_3 C178_3 1_555 1_555
C177_3 C178_3 1_555 1_555
C180_3 C185_3 1_555 1_555
C184_3 C185_3 1_555 1_555
C190_3 C191_3 1_555 1_555
C193_3 C194_3 1_555 1_555
C199_3 C200_3 1_555 1_555
C205_3 C208_3 1_555 1_555
C206_3 C207_3 1_555 1_555
Cd7_2 O33_3 1_555 1_555
Cd8_2 O34_3 1_555 1_555
O15_5 C111_5 1_555 1_555
O16_5 C111_5 1_555 1_555
O32_3 C201_3 1_555 1_555
H130_3 C138_3 1_555 1_555
H131_3 C138_3 1_555 1_555
H156_3 C163_3 1_555 1_555
H157_3 C163_3 1_555 1_555
Cd8_2 O15_5 1_555 1_555
O16_5 Cd8_2 1_555 1_555
O15_6 C111_6 1_555 1_555
O16_6 C111_6 1_555 1_555
Cd7_2 O15_6 1_555 1_555
O16_6 Cd7_2 1_555 1_555
C98_6 C99_6 1_555 1_555
C99_6 H97_6 1_555 1_555
C100_6 C99_6 1_555 1_555
H98_6 C100_6 1_555 1_555
C101_6 C100_6 1_555 1_555
C102_6 C101_6 1_555 1_555
H99_6 C102_6 1_555 1_555
C103_6 C98_6 1_555 1_555
H100_6 C103_6 1_555 1_555
C104_6 O35_3 1_555 1_555
C105_6 C106_6 1_555 1_555
C106_6 H101_6 1_555 1_555
C107_6 C106_6 1_555 1_555
H102_6 C107_6 1_555 1_555
C108_6 C101_6 1_555 1_555
C109_6 C108_6 1_555 1_555
H103_6 C109_6 1_555 1_555
C110_6 C105_6 1_555 1_555
H104_6 C110_6 1_555 1_555
Fe6_6 O28_3 1_555 1_555
O36_3 C104_6 1_555 1_555
C98_6 C104_6 1_555 1_555
C102_6 C103_6 1_555 1_555
C107_6 C108_6 1_555 1_555
C109_6 C110_6 1_555 1_555
Fe5_4 O27_6 1_555 1_555
O8_4 C83_4 1_555 1_555
H22_4 C20_4 1_555 1_555
H23_4 C20_4 1_555 1_555
H48_4 C45_4 1_555 1_555
H49_4 C45_4 1_555 1_555
O8_4 Cd6_4 1_555 1_555
Cd6_4 O30_4 1_555 1_555
Cd1_4 O7_4 1_555 1_555
Cd2_4 O9_4 1_555 1_555
Fe5_4 O1_4 1_555 1_555
Fe2_4 O4_4 1_555 1_555
O1_4 C15_4 1_555 1_555
O2_4 Fe5_4 1_555 1_555
O4_4 C53_4 1_555 1_555
O5_4 Fe2_4 1_555 1_555
O6_4 Fe2_4 1_555 1_555
O9_4 C90_4 1_555 1_555
O10_4 Cd2_4 1_555 1_555
O11_4 Cd2_4 1_555 1_555
O12_4 Cd2_4 1_555 1_555
O13_4 Cd1_4 1_555 1_555
O14_4 Cd1_4 1_555 1_555
N1_4 C1_4 1_555 1_555
N2_4 Fe5_4 1_555 1_555
N3_4 Fe5_4 1_555 1_555
N4_4 Cd1_4 1_555 1_555
N5_4 Cd1_4 1_555 1_555
N6_4 Fe2_4 1_555 1_555
N7_4 Fe2_4 1_555 1_555
N8_4 C72_4 1_555 1_555
C1_4 H1_4 1_555 1_555
C2_4 C1_4 1_555 1_555
H2_4 C2_4 1_555 1_555
C3_4 C2_4 1_555 1_555
H3_4 C3_4 1_555 1_555
C4_4 C3_4 1_555 1_555
C5_4 N1_4 1_555 1_555
H4_4 C5_4 1_555 1_555
C6_4 C7_4 1_555 1_555
C7_4 H5_4 1_555 1_555
H6_4 C7_4 1_555 1_555
H7_4 C7_4 1_555 1_555
C8_4 C6_4 1_555 1_555
H8_4 C8_4 1_555 1_555
H9_4 C8_4 1_555 1_555
H10_4 C8_4 1_555 1_555
C9_4 C6_4 1_555 1_555
H11_4 C9_4 1_555 1_555
H12_4 C9_4 1_555 1_555
H13_4 C9_4 1_555 1_555
C10_4 C6_4 1_555 1_555
C11_4 C10_4 1_555 1_555
H14_4 C11_4 1_555 1_555
C12_4 C4_4 1_555 1_555
C13_4 C12_4 1_555 1_555
H15_4 C13_4 1_555 1_555
C14_4 C13_4 1_555 1_555
C15_4 C10_4 1_555 1_555
C16_4 N2_4 1_555 1_555
H16_4 C16_4 1_555 1_555
C17_4 N2_4 1_555 1_555
H17_4 C17_4 1_555 1_555
C18_4 C17_4 1_555 1_555
H18_4 C18_4 1_555 1_555
H19_4 C18_4 1_555 1_555
C19_4 C18_4 1_555 1_555
H20_4 C19_4 1_555 1_555
H21_4 C19_4 1_555 1_555
H24_4 C21_4 1_555 1_555
C22_4 N3_4 1_555 1_555
C23_4 N3_4 1_555 1_555
H27_4 C23_4 1_555 1_555
C24_4 C23_4 1_555 1_555
C25_4 C24_4 1_555 1_555
H28_4 C25_4 1_555 1_555
C26_4 C25_4 1_555 1_555
C27_4 C26_4 1_555 1_555
H29_4 C27_4 1_555 1_555
C28_4 C27_4 1_555 1_555
C29_4 O2_4 1_555 1_555
C30_4 C28_4 1_555 1_555
C31_4 C30_4 1_555 1_555
H30_4 C31_4 1_555 1_555
H31_4 C31_4 1_555 1_555
H32_4 C31_4 1_555 1_555
C32_4 C30_4 1_555 1_555
H33_4 C32_4 1_555 1_555
H34_4 C32_4 1_555 1_555
H35_4 C32_4 1_555 1_555
C33_4 C30_4 1_555 1_555
H36_4 C33_4 1_555 1_555
H37_4 C33_4 1_555 1_555
H38_4 C33_4 1_555 1_555
C34_4 N4_4 1_555 1_555
H39_4 C34_4 1_555 1_555
C35_4 C26_4 1_555 1_555
C36_4 C35_4 1_555 1_555
H40_4 C36_4 1_555 1_555
C37_4 C36_4 1_555 1_555
H41_4 C37_4 1_555 1_555
C38_4 N4_4 1_555 1_555
H42_4 C38_4 1_555 1_555
C39_4 N5_4 1_555 1_555
H43_4 C39_4 1_555 1_555
C40_4 C39_4 1_555 1_555
H44_4 C40_4 1_555 1_555
C41_4 C40_4 1_555 1_555
H45_4 C41_4 1_555 1_555
C42_4 C41_4 1_555 1_555
C43_4 N5_4 1_555 1_555
H46_4 C43_4 1_555 1_555
C46_4 C44_4 1_555 1_555
H50_4 C46_4 1_555 1_555
H51_4 C46_4 1_555 1_555
H52_4 C46_4 1_555 1_555
C47_4 C44_4 1_555 1_555
H54_4 C47_4 1_555 1_555
C48_4 C44_4 1_555 1_555
C49_4 C48_4 1_555 1_555
H56_4 C49_4 1_555 1_555
C50_4 C42_4 1_555 1_555
C51_4 C50_4 1_555 1_555
H57_4 C51_4 1_555 1_555
C52_4 C51_4 1_555 1_555
C53_4 C48_4 1_555 1_555
C54_4 N6_4 1_555 1_555
H58_4 C54_4 1_555 1_555
C55_4 N6_4 1_555 1_555
H59_4 C55_4 1_555 1_555
C56_4 C55_4 1_555 1_555
H60_4 C56_4 1_555 1_555
H61_4 C56_4 1_555 1_555
C57_4 C56_4 1_555 1_555
H62_4 C57_4 1_555 1_555
H63_4 C57_4 1_555 1_555
C58_4 C57_4 1_555 1_555
H64_4 C58_4 1_555 1_555
H65_4 C58_4 1_555 1_555
C59_4 C58_4 1_555 1_555
H66_4 C59_4 1_555 1_555
H67_4 C59_4 1_555 1_555
C60_4 N7_4 1_555 1_555
H68_4 C60_4 1_555 1_555
C61_4 N7_4 1_555 1_555
H69_4 C61_4 1_555 1_555
C62_4 C61_4 1_555 1_555
C63_4 C62_4 1_555 1_555
H70_4 C63_4 1_555 1_555
C64_4 C63_4 1_555 1_555
C65_4 C64_4 1_555 1_555
H71_4 C65_4 1_555 1_555
C66_4 C65_4 1_555 1_555
C67_4 O5_4 1_555 1_555
C68_4 C66_4 1_555 1_555
C69_4 C68_4 1_555 1_555
H72_4 C69_4 1_555 1_555
C70_4 C68_4 1_555 1_555
H75_4 C70_4 1_555 1_555
H76_4 C70_4 1_555 1_555
H77_4 C70_4 1_555 1_555
C71_4 C68_4 1_555 1_555
H78_4 C71_4 1_555 1_555
H79_4 C71_4 1_555 1_555
H80_4 C71_4 1_555 1_555
C72_4 H81_4 1_555 1_555
C73_4 C64_4 1_555 1_555
C74_4 C73_4 1_555 1_555
H82_4 C74_4 1_555 1_555
C75_4 C74_4 1_555 1_555
H83_4 C75_4 1_555 1_555
C76_4 N8_4 1_555 1_555
H84_4 C76_4 1_555 1_555
C77_4 C78_4 1_555 1_555
C78_4 H85_4 1_555 1_555
C79_4 C78_4 1_555 1_555
H86_4 C79_4 1_555 1_555
C80_4 C79_4 1_555 1_555
C81_4 C80_4 1_555 1_555
H87_4 C81_4 1_555 1_555
C82_4 C77_4 1_555 1_555
C84_4 C80_4 1_555 1_555
C85_4 C84_4 1_555 1_555
H89_4 C85_4 1_555 1_555
C86_4 C85_4 1_555 1_555
H90_4 C86_4 1_555 1_555
C87_4 C86_4 1_555 1_555
C88_4 C87_4 1_555 1_555
H91_4 C88_4 1_555 1_555
C89_4 C84_4 1_555 1_555
H92_4 C89_4 1_555 1_555
C90_4 O10_4 1_555 1_555
C91_4 H93_4 1_555 1_555
C92_4 C91_4 1_555 1_555
C93_4 C92_4 1_555 1_555
H94_4 C93_4 1_555 1_555
C94_4 C93_4 1_555 1_555
H95_4 C94_4 1_555 1_555
C95_4 C94_4 1_555 1_555
C96_4 C91_4 1_555 1_555
H96_4 C96_4 1_555 1_555
C97_4 O13_4 1_555 1_555
C98_7 C99_7 1_555 1_555
C99_7 H97_7 1_555 1_555
C100_7 C99_7 1_555 1_555
H98_7 C100_7 1_555 1_555
C101_7 C100_7 1_555 1_555
C102_7 C101_7 1_555 1_555
H99_7 C102_7 1_555 1_555
C103_7 C98_7 1_555 1_555
H100_7 C103_7 1_555 1_555
C104_7 O11_4 1_555 1_555
C105_7 C106_7 1_555 1_555
C106_7 H101_7 1_555 1_555
C107_7 C106_7 1_555 1_555
H102_7 C107_7 1_555 1_555
C108_7 C101_7 1_555 1_555
C109_7 C108_7 1_555 1_555
H103_7 C109_7 1_555 1_555
C110_7 C105_7 1_555 1_555
H104_7 C110_7 1_555 1_555
O17_4 C118_4 1_555 1_555
O18_4 C118_4 1_555 1_555
C112_4 H105_4 1_555 1_555
C113_4 C112_4 1_555 1_555
C114_4 C113_4 1_555 1_555
H106_4 C114_4 1_555 1_555
C115_4 C114_4 1_555 1_555
H107_4 C115_4 1_555 1_555
C116_4 C95_4 1_555 1_555
C117_4 C112_4 1_555 1_555
H108_4 C117_4 1_555 1_555
C118_4 C113_4 1_555 1_555
Cd6_4 O17_4 1_555 1_555
Cd4_4 O25_4 1_555 1_555
Fe5_3 O19_4 1_555 1_555
Fe4_4 O21_4 1_555 1_555
O19_4 C133_4 1_555 1_555
O20_4 Fe5_3 1_555 1_555
O21_4 C171_4 1_555 1_555
O22_4 Fe4_4 1_555 1_555
O25_4 C208_4 1_555 1_555
O26_4 Cd4_4 1_555 1_555
N9_4 C119_4 1_555 1_555
N10_4 Fe5_3 1_555 1_555
N11_4 Fe5_3 1_555 1_555
N12_4 Cd6_4 1_555 1_555
N13_4 Cd6_4 1_555 1_555
N14_4 Fe4_4 1_555 1_555
N15_4 Fe4_4 1_555 1_555
N16_4 C190_4 1_555 1_555
C119_4 H109_4 1_555 1_555
C120_4 C119_4 1_555 1_555
H110_4 C120_4 1_555 1_555
C121_4 C120_4 1_555 1_555
H111_4 C121_4 1_555 1_555
C122_4 C121_4 1_555 1_555
C123_4 N9_4 1_555 1_555
H112_4 C123_4 1_555 1_555
C124_4 C125_4 1_555 1_555
C125_4 H113_4 1_555 1_555
H114_4 C125_4 1_555 1_555
H115_4 C125_4 1_555 1_555
C126_4 C124_4 1_555 1_555
H116_4 C126_4 1_555 1_555
H117_4 C126_4 1_555 1_555
H118_4 C126_4 1_555 1_555
C127_4 C124_4 1_555 1_555
H119_4 C127_4 1_555 1_555
H120_4 C127_4 1_555 1_555
H121_4 C127_4 1_555 1_555
C128_4 C124_4 1_555 1_555
C129_4 C128_4 1_555 1_555
H122_4 C129_4 1_555 1_555
C130_4 C122_4 1_555 1_555
C131_4 C130_4 1_555 1_555
H123_4 C131_4 1_555 1_555
C132_4 C131_4 1_555 1_555
C133_4 C128_4 1_555 1_555
C134_4 N10_4 1_555 1_555
H124_4 C134_4 1_555 1_555
C135_4 N10_4 1_555 1_555
H125_4 C135_4 1_555 1_555
C136_4 C135_4 1_555 1_555
H126_4 C136_4 1_555 1_555
H127_4 C136_4 1_555 1_555
C137_4 C136_4 1_555 1_555
H128_4 C137_4 1_555 1_555
H129_4 C137_4 1_555 1_555
H132_4 C139_4 1_555 1_555
C140_4 N11_4 1_555 1_555
C141_4 N11_4 1_555 1_555
H135_4 C141_4 1_555 1_555
C142_4 C141_4 1_555 1_555
C143_4 C142_4 1_555 1_555
H136_4 C143_4 1_555 1_555
C144_4 C143_4 1_555 1_555
C145_4 C144_4 1_555 1_555
H137_4 C145_4 1_555 1_555
C146_4 C145_4 1_555 1_555
C147_4 O20_4 1_555 1_555
C148_4 C146_4 1_555 1_555
C149_4 C148_4 1_555 1_555
H138_4 C149_4 1_555 1_555
H139_4 C149_4 1_555 1_555
H140_4 C149_4 1_555 1_555
C150_4 C148_4 1_555 1_555
H141_4 C150_4 1_555 1_555
H142_4 C150_4 1_555 1_555
H143_4 C150_4 1_555 1_555
C151_4 C148_4 1_555 1_555
H144_4 C151_4 1_555 1_555
H145_4 C151_4 1_555 1_555
H146_4 C151_4 1_555 1_555
C152_4 N12_4 1_555 1_555
H147_4 C152_4 1_555 1_555
C153_4 C144_4 1_555 1_555
C154_4 C153_4 1_555 1_555
H148_4 C154_4 1_555 1_555
C155_4 C154_4 1_555 1_555
H149_4 C155_4 1_555 1_555
C156_4 N12_4 1_555 1_555
H150_4 C156_4 1_555 1_555
C157_4 N13_4 1_555 1_555
H151_4 C157_4 1_555 1_555
C158_4 C157_4 1_555 1_555
H152_4 C158_4 1_555 1_555
C159_4 C158_4 1_555 1_555
H153_4 C159_4 1_555 1_555
C160_4 C159_4 1_555 1_555
C161_4 N13_4 1_555 1_555
H154_4 C161_4 1_555 1_555
C164_4 C162_4 1_555 1_555
H158_4 C164_4 1_555 1_555
H159_4 C164_4 1_555 1_555
H160_4 C164_4 1_555 1_555
C165_4 C162_4 1_555 1_555
H162_4 C165_4 1_555 1_555
C166_4 C162_4 1_555 1_555
C167_4 C166_4 1_555 1_555
H164_4 C167_4 1_555 1_555
C168_4 C160_4 1_555 1_555
C169_4 C168_4 1_555 1_555
H165_4 C169_4 1_555 1_555
C170_4 C169_4 1_555 1_555
C171_4 C166_4 1_555 1_555
C172_4 N14_4 1_555 1_555
H166_4 C172_4 1_555 1_555
C173_4 N14_4 1_555 1_555
H167_4 C173_4 1_555 1_555
C174_4 C173_4 1_555 1_555
H168_4 C174_4 1_555 1_555
H169_4 C174_4 1_555 1_555
C175_4 C174_4 1_555 1_555
H170_4 C175_4 1_555 1_555
H171_4 C175_4 1_555 1_555
C176_4 C175_4 1_555 1_555
H172_4 C176_4 1_555 1_555
H173_4 C176_4 1_555 1_555
C177_4 C176_4 1_555 1_555
H174_4 C177_4 1_555 1_555
H175_4 C177_4 1_555 1_555
C178_4 N15_4 1_555 1_555
H176_4 C178_4 1_555 1_555
C179_4 N15_4 1_555 1_555
H177_4 C179_4 1_555 1_555
C180_4 C179_4 1_555 1_555
C181_4 C180_4 1_555 1_555
H178_4 C181_4 1_555 1_555
C182_4 C181_4 1_555 1_555
C183_4 C182_4 1_555 1_555
H179_4 C183_4 1_555 1_555
C184_4 C183_4 1_555 1_555
C185_4 O22_4 1_555 1_555
C186_4 C184_4 1_555 1_555
C187_4 C186_4 1_555 1_555
H180_4 C187_4 1_555 1_555
C188_4 C186_4 1_555 1_555
H183_4 C188_4 1_555 1_555
H184_4 C188_4 1_555 1_555
H185_4 C188_4 1_555 1_555
C189_4 C186_4 1_555 1_555
H186_4 C189_4 1_555 1_555
H187_4 C189_4 1_555 1_555
H188_4 C189_4 1_555 1_555
C190_4 H189_4 1_555 1_555
C191_4 C182_4 1_555 1_555
C192_4 C191_4 1_555 1_555
H190_4 C192_4 1_555 1_555
C193_4 C192_4 1_555 1_555
H191_4 C193_4 1_555 1_555
C194_4 N16_4 1_555 1_555
H192_4 C194_4 1_555 1_555
C195_4 C196_4 1_555 1_555
C196_4 H193_4 1_555 1_555
C197_4 C196_4 1_555 1_555
H194_4 C197_4 1_555 1_555
C198_4 C197_4 1_555 1_555
C199_4 C198_4 1_555 1_555
H195_4 C199_4 1_555 1_555
C200_4 C195_4 1_555 1_555
C202_4 C198_4 1_555 1_555
C203_4 C202_4 1_555 1_555
H197_4 C203_4 1_555 1_555
C204_4 C203_4 1_555 1_555
H198_4 C204_4 1_555 1_555
C205_4 C204_4 1_555 1_555
C206_4 C205_4 1_555 1_555
H199_4 C206_4 1_555 1_555
C207_4 C202_4 1_555 1_555
H200_4 C207_4 1_555 1_555
C208_4 O26_4 1_555 1_555
Cd9 N16_4 1_555 1_555
Cd11 N8_4 1_555 1_555
Cd7 O26_4 1_555 1_555
Cd8 O10_4 1_555 1_555
Cd7_2 N9_4 1_555 1_555
Cd8_2 N1_4 1_555 1_555
Fe6_7 O6_4 1_555 1_555
O28_4 Fe4_4 1_555 1_555
O32_4 Cd1_4 1_555 1_555
O33_4 Cd4_4 1_555 1_555
O34_4 Cd2_4 1_555 1_555
O35_4 Cd4_4 1_555 1_555
O36_4 Cd4_4 1_555 1_555
N17_4 Cd4_4 1_555 1_555
N18_4 Cd2_4 1_555 1_555
N19_4 Cd4_4 1_555 1_555
N20_4 Cd2_4 1_555 1_555
O12_4 C104_7 1_555 1_555
O14_4 C97_4 1_555 1_555
C4_4 C5_4 1_555 1_555
C11_4 C12_4 1_555 1_555
C14_4 C15_4 1_555 1_555
C14_4 C16_4 1_555 1_555
C17_4 C22_4 1_555 1_555
C21_4 C22_4 1_555 1_555
C24_4 C29_4 1_555 1_555
C28_4 C29_4 1_555 1_555
C34_4 C35_4 1_555 1_555
C37_4 C38_4 1_555 1_555
C42_4 C43_4 1_555 1_555
C49_4 C50_4 1_555 1_555
C52_4 C53_4 1_555 1_555
C52_4 C54_4 1_555 1_555
C55_4 C60_4 1_555 1_555
C59_4 C60_4 1_555 1_555
C62_4 C67_4 1_555 1_555
C66_4 C67_4 1_555 1_555
C72_4 C73_4 1_555 1_555
C75_4 C76_4 1_555 1_555
C81_4 C82_4 1_555 1_555
C87_4 C90_4 1_555 1_555
C88_4 C89_4 1_555 1_555
C92_4 C97_4 1_555 1_555
C95_4 C96_4 1_555 1_555
C98_7 C104_7 1_555 1_555
C102_7 C103_7 1_555 1_555
C107_7 C108_7 1_555 1_555
C109_7 C110_7 1_555 1_555
O18_4 Cd6_4 1_555 1_555
C115_4 C116_4 1_555 1_555
C116_4 C117_4 1_555 1_555
C122_4 C123_4 1_555 1_555
C129_4 C130_4 1_555 1_555
C132_4 C133_4 1_555 1_555
C132_4 C134_4 1_555 1_555
C135_4 C140_4 1_555 1_555
C139_4 C140_4 1_555 1_555
C142_4 C147_4 1_555 1_555
C146_4 C147_4 1_555 1_555
C152_4 C153_4 1_555 1_555
C155_4 C156_4 1_555 1_555
C160_4 C161_4 1_555 1_555
C167_4 C168_4 1_555 1_555
C170_4 C171_4 1_555 1_555
C170_4 C172_4 1_555 1_555
C173_4 C178_4 1_555 1_555
C177_4 C178_4 1_555 1_555
C180_4 C185_4 1_555 1_555
C184_4 C185_4 1_555 1_555
C190_4 C191_4 1_555 1_555
C193_4 C194_4 1_555 1_555
C199_4 C200_4 1_555 1_555
C205_4 C208_4 1_555 1_555
C206_4 C207_4 1_555 1_555
Cd7 O33_4 1_555 1_555
Cd8 O34_4 1_555 1_555
O15_7 C111_7 1_555 1_555
O16_7 C111_7 1_555 1_555
O32_4 C201_4 1_555 1_555
H130_4 C138_4 1_555 1_555
H131_4 C138_4 1_555 1_555
H156_4 C163_4 1_555 1_555
H157_4 C163_4 1_555 1_555
Cd8 O15_7 1_555 1_555
O16_7 Cd8 1_555 1_555
O15_8 C111_8 1_555 1_555
O16_8 C111_8 1_555 1_555
Cd7 O15_8 1_555 1_555
O16_8 Cd7 1_555 1_555
C98_8 C99_8 1_555 1_555
C99_8 H97_8 1_555 1_555
C100_8 C99_8 1_555 1_555
H98_8 C100_8 1_555 1_555
C101_8 C100_8 1_555 1_555
C102_8 C101_8 1_555 1_555
H99_8 C102_8 1_555 1_555
C103_8 C98_8 1_555 1_555
H100_8 C103_8 1_555 1_555
C104_8 O35_4 1_555 1_555
C105_8 C106_8 1_555 1_555
C106_8 H101_8 1_555 1_555
C107_8 C106_8 1_555 1_555
H102_8 C107_8 1_555 1_555
C108_8 C101_8 1_555 1_555
C109_8 C108_8 1_555 1_555
H103_8 C109_8 1_555 1_555
C110_8 C105_8 1_555 1_555
H104_8 C110_8 1_555 1_555
Fe6_8 O28_4 1_555 1_555
O36_4 C104_8 1_555 1_555
C98_8 C104_8 1_555 1_555
C102_8 C103_8 1_555 1_555
C107_8 C108_8 1_555 1_555
C109_8 C110_8 1_555 1_555
Cd7_2 O9_5 1_555 1_555
Fe6_4 O4_5 1_555 1_555
O4_5 C53_5 1_555 1_555
O5_5 Fe6_4 1_555 1_555
O7_5 C83_5 1_555 1_555
O8_5 C83_5 1_555 1_555
O9_5 C90_5 1_555 1_555
N6_5 Fe6_4 1_555 1_555
N7_5 Fe6_4 1_555 1_555
N19_2 C72_5 1_555 1_555
H40_5 C36_5 1_555 1_555
C37_5 C36_5 1_555 1_555
H41_5 C37_5 1_555 1_555
H42_5 C38_5 1_555 1_555
H46_5 C43_5 1_555 1_555
C44_5 C45_5 1_555 1_555
C45_5 H47_5 1_555 1_555
H48_5 C45_5 1_555 1_555
H49_5 C45_5 1_555 1_555
C46_5 C44_5 1_555 1_555
H50_5 C46_5 1_555 1_555
H51_5 C46_5 1_555 1_555
H52_5 C46_5 1_555 1_555
C47_5 C44_5 1_555 1_555
H53_5 C47_5 1_555 1_555
H54_5 C47_5 1_555 1_555
H55_5 C47_5 1_555 1_555
C48_5 C44_5 1_555 1_555
C49_5 C48_5 1_555 1_555
H56_5 C49_5 1_555 1_555
C50_5 C42_5 1_555 1_555
C51_5 C50_5 1_555 1_555
H57_5 C51_5 1_555 1_555
C52_5 C51_5 1_555 1_555
C53_5 C48_5 1_555 1_555
C54_5 N6_5 1_555 1_555
H58_5 C54_5 1_555 1_555
C55_5 N6_5 1_555 1_555
H59_5 C55_5 1_555 1_555
C56_5 C55_5 1_555 1_555
H60_5 C56_5 1_555 1_555
H61_5 C56_5 1_555 1_555
C57_5 C56_5 1_555 1_555
H62_5 C57_5 1_555 1_555
H63_5 C57_5 1_555 1_555
C58_5 C57_5 1_555 1_555
H64_5 C58_5 1_555 1_555
H65_5 C58_5 1_555 1_555
C59_5 C58_5 1_555 1_555
H66_5 C59_5 1_555 1_555
H67_5 C59_5 1_555 1_555
C60_5 N7_5 1_555 1_555
H68_5 C60_5 1_555 1_555
C61_5 N7_5 1_555 1_555
H69_5 C61_5 1_555 1_555
C62_5 C61_5 1_555 1_555
C63_5 C62_5 1_555 1_555
H70_5 C63_5 1_555 1_555
C64_5 C63_5 1_555 1_555
C65_5 C64_5 1_555 1_555
H71_5 C65_5 1_555 1_555
C66_5 C65_5 1_555 1_555
C67_5 O5_5 1_555 1_555
C68_5 C66_5 1_555 1_555
C69_5 C68_5 1_555 1_555
H72_5 C69_5 1_555 1_555
H73_5 C69_5 1_555 1_555
H74_5 C69_5 1_555 1_555
C70_5 C68_5 1_555 1_555
H75_5 C70_5 1_555 1_555
H76_5 C70_5 1_555 1_555
H77_5 C70_5 1_555 1_555
C71_5 C68_5 1_555 1_555
H78_5 C71_5 1_555 1_555
H79_5 C71_5 1_555 1_555
H80_5 C71_5 1_555 1_555
C72_5 H81_5 1_555 1_555
C73_5 C64_5 1_555 1_555
C74_5 C73_5 1_555 1_555
H82_5 C74_5 1_555 1_555
C75_5 C74_5 1_555 1_555
H83_5 C75_5 1_555 1_555
C76_5 N19_2 1_555 1_555
H84_5 C76_5 1_555 1_555
C77_5 C78_5 1_555 1_555
C78_5 H85_5 1_555 1_555
C79_5 C78_5 1_555 1_555
H86_5 C79_5 1_555 1_555
C80_5 C79_5 1_555 1_555
C81_5 C80_5 1_555 1_555
H87_5 C81_5 1_555 1_555
C82_5 C77_5 1_555 1_555
H88_5 C82_5 1_555 1_555
C83_5 C77_5 1_555 1_555
C84_5 C80_5 1_555 1_555
C85_5 C84_5 1_555 1_555
H89_5 C85_5 1_555 1_555
C86_5 C85_5 1_555 1_555
H90_5 C86_5 1_555 1_555
C87_5 C86_5 1_555 1_555
C88_5 C87_5 1_555 1_555
H91_5 C88_5 1_555 1_555
C89_5 C84_5 1_555 1_555
H92_5 C89_5 1_555 1_555
C90_5 O33_3 1_555 1_555
H94_5 C93_5 1_555 1_555
C94_5 C93_5 1_555 1_555
H95_5 C94_5 1_555 1_555
Cd6_5 O7_5 1_555 1_555
O8_5 Cd6_5 1_555 1_555
C37_5 C38_5 1_555 1_555
C42_5 C43_5 1_555 1_555
C49_5 C50_5 1_555 1_555
C52_5 C53_5 1_555 1_555
C52_5 C54_5 1_555 1_555
C55_5 C60_5 1_555 1_555
C59_5 C60_5 1_555 1_555
C62_5 C67_5 1_555 1_555
C66_5 C67_5 1_555 1_555
C72_5 C73_5 1_555 1_555
C75_5 C76_5 1_555 1_555
C81_5 C82_5 1_555 1_555
C87_5 C90_5 1_555 1_555
C88_5 C89_5 1_555 1_555
Fe1_3 O1_5 1_555 1_555
O1_5 C15_5 1_555 1_555
O2_5 Fe1_3 1_555 1_555
O3_7 Fe1_3 1_555 1_555
O13_5 Cd1_5 1_555 1_555
N17_4 C1_5 1_555 1_555
N2_5 Fe1_3 1_555 1_555
N3_5 Fe1_3 1_555 1_555
N4_5 Cd1_5 1_555 1_555
N5_5 Cd1_5 1_555 1_555
C1_5 H1_5 1_555 1_555
C2_5 C1_5 1_555 1_555
H2_5 C2_5 1_555 1_555
C3_5 C2_5 1_555 1_555
H3_5 C3_5 1_555 1_555
C4_5 C3_5 1_555 1_555
C5_5 N17_4 1_555 1_555
H4_5 C5_5 1_555 1_555
C6_5 C7_5 1_555 1_555
C7_5 H5_5 1_555 1_555
H6_5 C7_5 1_555 1_555
H7_5 C7_5 1_555 1_555
C8_5 C6_5 1_555 1_555
H8_5 C8_5 1_555 1_555
H9_5 C8_5 1_555 1_555
H10_5 C8_5 1_555 1_555
C9_5 C6_5 1_555 1_555
H11_5 C9_5 1_555 1_555
H12_5 C9_5 1_555 1_555
H13_5 C9_5 1_555 1_555
C10_5 C6_5 1_555 1_555
C11_5 C10_5 1_555 1_555
H14_5 C11_5 1_555 1_555
C12_5 C4_5 1_555 1_555
C13_5 C12_5 1_555 1_555
H15_5 C13_5 1_555 1_555
C14_5 C13_5 1_555 1_555
C15_5 C10_5 1_555 1_555
C16_5 N2_5 1_555 1_555
H16_5 C16_5 1_555 1_555
C17_5 N2_5 1_555 1_555
H17_5 C17_5 1_555 1_555
C18_5 C17_5 1_555 1_555
H18_5 C18_5 1_555 1_555
H19_5 C18_5 1_555 1_555
C19_5 C18_5 1_555 1_555
H20_5 C19_5 1_555 1_555
H21_5 C19_5 1_555 1_555
C20_5 C19_5 1_555 1_555
H22_5 C20_5 1_555 1_555
H23_5 C20_5 1_555 1_555
C21_5 C20_5 1_555 1_555
H24_5 C21_5 1_555 1_555
H25_5 C21_5 1_555 1_555
C22_5 N3_5 1_555 1_555
H26_5 C22_5 1_555 1_555
C23_5 N3_5 1_555 1_555
H27_5 C23_5 1_555 1_555
C24_5 C23_5 1_555 1_555
C25_5 C24_5 1_555 1_555
H28_5 C25_5 1_555 1_555
C26_5 C25_5 1_555 1_555
C27_5 C26_5 1_555 1_555
H29_5 C27_5 1_555 1_555
C28_5 C27_5 1_555 1_555
C29_5 O2_5 1_555 1_555
C30_5 C28_5 1_555 1_555
C31_5 C30_5 1_555 1_555
H30_5 C31_5 1_555 1_555
H31_5 C31_5 1_555 1_555
H32_5 C31_5 1_555 1_555
C32_5 C30_5 1_555 1_555
H33_5 C32_5 1_555 1_555
H34_5 C32_5 1_555 1_555
H35_5 C32_5 1_555 1_555
C33_5 C30_5 1_555 1_555
H36_5 C33_5 1_555 1_555
H37_5 C33_5 1_555 1_555
H38_5 C33_5 1_555 1_555
C34_5 N4_5 1_555 1_555
H39_5 C34_5 1_555 1_555
C35_5 C26_5 1_555 1_555
C39_5 N5_5 1_555 1_555
H43_5 C39_5 1_555 1_555
C40_5 C39_5 1_555 1_555
H44_5 C40_5 1_555 1_555
C41_5 C40_5 1_555 1_555
H45_5 C41_5 1_555 1_555
C91_5 H93_5 1_555 1_555
C92_5 C91_5 1_555 1_555
C96_5 C91_5 1_555 1_555
H96_5 C96_5 1_555 1_555
C97_5 O13_5 1_555 1_555
Fe5_5 O3_7 1_555 1_555
O30_5 Cd1_5 1_555 1_555
O32_5 Cd1_5 1_555 1_555
C4_5 C5_5 1_555 1_555
C11_5 C12_5 1_555 1_555
C14_5 C15_5 1_555 1_555
C14_5 C16_5 1_555 1_555
C17_5 C22_5 1_555 1_555
C21_5 C22_5 1_555 1_555
C24_5 C29_5 1_555 1_555
C28_5 C29_5 1_555 1_555
C34_5 C35_5 1_555 1_555
C92_5 C97_5 1_555 1_555
C95_5 C96_5 1_555 1_555
O17_5 C118_5 1_555 1_555
C112_5 H105_5 1_555 1_555
C113_5 C112_5 1_555 1_555
C117_5 C112_5 1_555 1_555
H108_5 C117_5 1_555 1_555
C118_5 C113_5 1_555 1_555
Cd6_5 O17_5 1_555 1_555
Fe3_3 O19_5 1_555 1_555
O19_5 C133_5 1_555 1_555
O20_5 Fe3_3 1_555 1_555
N18_4 C119_5 1_555 1_555
N10_5 Fe3_3 1_555 1_555
N11_5 Fe3_3 1_555 1_555
N12_5 Cd6_5 1_555 1_555
N13_5 Cd6_5 1_555 1_555
C119_5 H109_5 1_555 1_555
C120_5 C119_5 1_555 1_555
H110_5 C120_5 1_555 1_555
C121_5 C120_5 1_555 1_555
H111_5 C121_5 1_555 1_555
C122_5 C121_5 1_555 1_555
C123_5 N18_4 1_555 1_555
H112_5 C123_5 1_555 1_555
C124_5 C125_5 1_555 1_555
C125_5 H113_5 1_555 1_555
H114_5 C125_5 1_555 1_555
H115_5 C125_5 1_555 1_555
C126_5 C124_5 1_555 1_555
H116_5 C126_5 1_555 1_555
H117_5 C126_5 1_555 1_555
H118_5 C126_5 1_555 1_555
C127_5 C124_5 1_555 1_555
H119_5 C127_5 1_555 1_555
H120_5 C127_5 1_555 1_555
H121_5 C127_5 1_555 1_555
C128_5 C124_5 1_555 1_555
C129_5 C128_5 1_555 1_555
H122_5 C129_5 1_555 1_555
C130_5 C122_5 1_555 1_555
C131_5 C130_5 1_555 1_555
H123_5 C131_5 1_555 1_555
C132_5 C131_5 1_555 1_555
C133_5 C128_5 1_555 1_555
C134_5 N10_5 1_555 1_555
H124_5 C134_5 1_555 1_555
C135_5 N10_5 1_555 1_555
H125_5 C135_5 1_555 1_555
C136_5 C135_5 1_555 1_555
H126_5 C136_5 1_555 1_555
H127_5 C136_5 1_555 1_555
C137_5 C136_5 1_555 1_555
H128_5 C137_5 1_555 1_555
H129_5 C137_5 1_555 1_555
C138_5 C137_5 1_555 1_555
H130_5 C138_5 1_555 1_555
H131_5 C138_5 1_555 1_555
C139_5 C138_5 1_555 1_555
H132_5 C139_5 1_555 1_555
H133_5 C139_5 1_555 1_555
C140_5 N11_5 1_555 1_555
H134_5 C140_5 1_555 1_555
C141_5 N11_5 1_555 1_555
H135_5 C141_5 1_555 1_555
C142_5 C141_5 1_555 1_555
C143_5 C142_5 1_555 1_555
H136_5 C143_5 1_555 1_555
C144_5 C143_5 1_555 1_555
C145_5 C144_5 1_555 1_555
H137_5 C145_5 1_555 1_555
C146_5 C145_5 1_555 1_555
C147_5 O20_5 1_555 1_555
C148_5 C146_5 1_555 1_555
C149_5 C148_5 1_555 1_555
H138_5 C149_5 1_555 1_555
H139_5 C149_5 1_555 1_555
H140_5 C149_5 1_555 1_555
C150_5 C148_5 1_555 1_555
H141_5 C150_5 1_555 1_555
H142_5 C150_5 1_555 1_555
H143_5 C150_5 1_555 1_555
C151_5 C148_5 1_555 1_555
H144_5 C151_5 1_555 1_555
H145_5 C151_5 1_555 1_555
H146_5 C151_5 1_555 1_555
C152_5 N12_5 1_555 1_555
H147_5 C152_5 1_555 1_555
C153_5 C144_5 1_555 1_555
C157_5 N13_5 1_555 1_555
H151_5 C157_5 1_555 1_555
C158_5 C157_5 1_555 1_555
H152_5 C158_5 1_555 1_555
C159_5 C158_5 1_555 1_555
H153_5 C159_5 1_555 1_555
O27_7 Fe3_3 1_555 1_555
C116_5 C117_5 1_555 1_555
C122_5 C123_5 1_555 1_555
C129_5 C130_5 1_555 1_555
C132_5 C133_5 1_555 1_555
C132_5 C134_5 1_555 1_555
C135_5 C140_5 1_555 1_555
C139_5 C140_5 1_555 1_555
C142_5 C147_5 1_555 1_555
C146_5 C147_5 1_555 1_555
C152_5 C153_5 1_555 1_555
H106_5 C114_5 1_555 1_555
C115_5 C114_5 1_555 1_555
H107_5 C115_5 1_555 1_555
Cd8_2 O25_5 1_555 1_555
Fe6_3 O21_5 1_555 1_555
O21_5 C171_5 1_555 1_555
O22_5 Fe6_3 1_555 1_555
O32_5 C201_5 1_555 1_555
O25_5 C208_5 1_555 1_555
N14_5 Fe6_3 1_555 1_555
N15_5 Fe6_3 1_555 1_555
N20_2 C190_5 1_555 1_555
H148_5 C154_5 1_555 1_555
C155_5 C154_5 1_555 1_555
H149_5 C155_5 1_555 1_555
H150_5 C156_5 1_555 1_555
H154_5 C161_5 1_555 1_555
C162_5 C163_5 1_555 1_555
C163_5 H155_5 1_555 1_555
H156_5 C163_5 1_555 1_555
H157_5 C163_5 1_555 1_555
C164_5 C162_5 1_555 1_555
H158_5 C164_5 1_555 1_555
H159_5 C164_5 1_555 1_555
H160_5 C164_5 1_555 1_555
C165_5 C162_5 1_555 1_555
H161_5 C165_5 1_555 1_555
H162_5 C165_5 1_555 1_555
H163_5 C165_5 1_555 1_555
C166_5 C162_5 1_555 1_555
C167_5 C166_5 1_555 1_555
H164_5 C167_5 1_555 1_555
C168_5 C160_5 1_555 1_555
C169_5 C168_5 1_555 1_555
H165_5 C169_5 1_555 1_555
C170_5 C169_5 1_555 1_555
C171_5 C166_5 1_555 1_555
C172_5 N14_5 1_555 1_555
H166_5 C172_5 1_555 1_555
C173_5 N14_5 1_555 1_555
H167_5 C173_5 1_555 1_555
C174_5 C173_5 1_555 1_555
H168_5 C174_5 1_555 1_555
H169_5 C174_5 1_555 1_555
C175_5 C174_5 1_555 1_555
H170_5 C175_5 1_555 1_555
H171_5 C175_5 1_555 1_555
C176_5 C175_5 1_555 1_555
H172_5 C176_5 1_555 1_555
H173_5 C176_5 1_555 1_555
C177_5 C176_5 1_555 1_555
H174_5 C177_5 1_555 1_555
H175_5 C177_5 1_555 1_555
C178_5 N15_5 1_555 1_555
H176_5 C178_5 1_555 1_555
C179_5 N15_5 1_555 1_555
H177_5 C179_5 1_555 1_555
C180_5 C179_5 1_555 1_555
C181_5 C180_5 1_555 1_555
H178_5 C181_5 1_555 1_555
C182_5 C181_5 1_555 1_555
C183_5 C182_5 1_555 1_555
H179_5 C183_5 1_555 1_555
C184_5 C183_5 1_555 1_555
C185_5 O22_5 1_555 1_555
C186_5 C184_5 1_555 1_555
C187_5 C186_5 1_555 1_555
H180_5 C187_5 1_555 1_555
H181_5 C187_5 1_555 1_555
H182_5 C187_5 1_555 1_555
C188_5 C186_5 1_555 1_555
H183_5 C188_5 1_555 1_555
H184_5 C188_5 1_555 1_555
H185_5 C188_5 1_555 1_555
C189_5 C186_5 1_555 1_555
H186_5 C189_5 1_555 1_555
H187_5 C189_5 1_555 1_555
H188_5 C189_5 1_555 1_555
C190_5 H189_5 1_555 1_555
C191_5 C182_5 1_555 1_555
C192_5 C191_5 1_555 1_555
H190_5 C192_5 1_555 1_555
C193_5 C192_5 1_555 1_555
H191_5 C193_5 1_555 1_555
C194_5 N20_2 1_555 1_555
H192_5 C194_5 1_555 1_555
C195_5 C196_5 1_555 1_555
C196_5 H193_5 1_555 1_555
C197_5 C196_5 1_555 1_555
H194_5 C197_5 1_555 1_555
C198_5 C197_5 1_555 1_555
C199_5 C198_5 1_555 1_555
H195_5 C199_5 1_555 1_555
C200_5 C195_5 1_555 1_555
H196_5 C200_5 1_555 1_555
C201_5 O30_5 1_555 1_555
C202_5 C198_5 1_555 1_555
C203_5 C202_5 1_555 1_555
H197_5 C203_5 1_555 1_555
C204_5 C203_5 1_555 1_555
H198_5 C204_5 1_555 1_555
C205_5 C204_5 1_555 1_555
C206_5 C205_5 1_555 1_555
H199_5 C206_5 1_555 1_555
C207_5 C202_5 1_555 1_555
H200_5 C207_5 1_555 1_555
C208_5 O34_3 1_555 1_555
C155_5 C156_5 1_555 1_555
C160_5 C161_5 1_555 1_555
C167_5 C168_5 1_555 1_555
C170_5 C171_5 1_555 1_555
C170_5 C172_5 1_555 1_555
C173_5 C178_5 1_555 1_555
C177_5 C178_5 1_555 1_555
C180_5 C185_5 1_555 1_555
C184_5 C185_5 1_555 1_555
C190_5 C191_5 1_555 1_555
C193_5 C194_5 1_555 1_555
C195_5 C201_5 1_555 1_555
C199_5 C200_5 1_555 1_555
C205_5 C208_5 1_555 1_555
C206_5 C207_5 1_555 1_555
Fe5_6 O27_7 1_555 1_555
Fe5_6 O1_6 1_555 1_555
O1_6 C15_6 1_555 1_555
O2_6 Fe5_6 1_555 1_555
O13_6 Cd1_6 1_555 1_555
N17_3 C1_6 1_555 1_555
N2_6 Fe5_6 1_555 1_555
N3_6 Fe5_6 1_555 1_555
N4_6 Cd1_6 1_555 1_555
N5_6 Cd1_6 1_555 1_555
C1_6 H1_6 1_555 1_555
C2_6 C1_6 1_555 1_555
H2_6 C2_6 1_555 1_555
C3_6 C2_6 1_555 1_555
H3_6 C3_6 1_555 1_555
C4_6 C3_6 1_555 1_555
C5_6 N17_3 1_555 1_555
H4_6 C5_6 1_555 1_555
C6_6 C7_6 1_555 1_555
C7_6 H5_6 1_555 1_555
H6_6 C7_6 1_555 1_555
H7_6 C7_6 1_555 1_555
C8_6 C6_6 1_555 1_555
H8_6 C8_6 1_555 1_555
H9_6 C8_6 1_555 1_555
H10_6 C8_6 1_555 1_555
C9_6 C6_6 1_555 1_555
H11_6 C9_6 1_555 1_555
H12_6 C9_6 1_555 1_555
H13_6 C9_6 1_555 1_555
C10_6 C6_6 1_555 1_555
C11_6 C10_6 1_555 1_555
H14_6 C11_6 1_555 1_555
C12_6 C4_6 1_555 1_555
C13_6 C12_6 1_555 1_555
H15_6 C13_6 1_555 1_555
C14_6 C13_6 1_555 1_555
C15_6 C10_6 1_555 1_555
C16_6 N2_6 1_555 1_555
H16_6 C16_6 1_555 1_555
C17_6 N2_6 1_555 1_555
H17_6 C17_6 1_555 1_555
C18_6 C17_6 1_555 1_555
H18_6 C18_6 1_555 1_555
H19_6 C18_6 1_555 1_555
C19_6 C18_6 1_555 1_555
H20_6 C19_6 1_555 1_555
H21_6 C19_6 1_555 1_555
C20_6 C19_6 1_555 1_555
H22_6 C20_6 1_555 1_555
H23_6 C20_6 1_555 1_555
C21_6 C20_6 1_555 1_555
H24_6 C21_6 1_555 1_555
H25_6 C21_6 1_555 1_555
C22_6 N3_6 1_555 1_555
H26_6 C22_6 1_555 1_555
C23_6 N3_6 1_555 1_555
H27_6 C23_6 1_555 1_555
C24_6 C23_6 1_555 1_555
C25_6 C24_6 1_555 1_555
H28_6 C25_6 1_555 1_555
C26_6 C25_6 1_555 1_555
C27_6 C26_6 1_555 1_555
H29_6 C27_6 1_555 1_555
C28_6 C27_6 1_555 1_555
C29_6 O2_6 1_555 1_555
C30_6 C28_6 1_555 1_555
C31_6 C30_6 1_555 1_555
H30_6 C31_6 1_555 1_555
H31_6 C31_6 1_555 1_555
H32_6 C31_6 1_555 1_555
C32_6 C30_6 1_555 1_555
H33_6 C32_6 1_555 1_555
H34_6 C32_6 1_555 1_555
H35_6 C32_6 1_555 1_555
C33_6 C30_6 1_555 1_555
H36_6 C33_6 1_555 1_555
H37_6 C33_6 1_555 1_555
H38_6 C33_6 1_555 1_555
C34_6 N4_6 1_555 1_555
H39_6 C34_6 1_555 1_555
C35_6 C26_6 1_555 1_555
C39_6 N5_6 1_555 1_555
H43_6 C39_6 1_555 1_555
C40_6 C39_6 1_555 1_555
H44_6 C40_6 1_555 1_555
C41_6 C40_6 1_555 1_555
H45_6 C41_6 1_555 1_555
C91_6 H93_6 1_555 1_555
C92_6 C91_6 1_555 1_555
C96_6 C91_6 1_555 1_555
H96_6 C96_6 1_555 1_555
C97_6 O13_6 1_555 1_555
O30_6 Cd1_6 1_555 1_555
O32_6 Cd1_6 1_555 1_555
C4_6 C5_6 1_555 1_555
C11_6 C12_6 1_555 1_555
C14_6 C15_6 1_555 1_555
C14_6 C16_6 1_555 1_555
C17_6 C22_6 1_555 1_555
C21_6 C22_6 1_555 1_555
C24_6 C29_6 1_555 1_555
C28_6 C29_6 1_555 1_555
C34_6 C35_6 1_555 1_555
C92_6 C97_6 1_555 1_555
C95_6 C96_6 1_555 1_555
Cd7 O9_6 1_555 1_555
Fe6_2 O4_6 1_555 1_555
O4_6 C53_6 1_555 1_555
O5_6 Fe6_2 1_555 1_555
O7_6 C83_6 1_555 1_555
O8_6 C83_6 1_555 1_555
O9_6 C90_6 1_555 1_555
N6_6 Fe6_2 1_555 1_555
N7_6 Fe6_2 1_555 1_555
N19 C72_6 1_555 1_555
H40_6 C36_6 1_555 1_555
C37_6 C36_6 1_555 1_555
H41_6 C37_6 1_555 1_555
H42_6 C38_6 1_555 1_555
H46_6 C43_6 1_555 1_555
C44_6 C45_6 1_555 1_555
C45_6 H47_6 1_555 1_555
H48_6 C45_6 1_555 1_555
H49_6 C45_6 1_555 1_555
C46_6 C44_6 1_555 1_555
H50_6 C46_6 1_555 1_555
H51_6 C46_6 1_555 1_555
H52_6 C46_6 1_555 1_555
C47_6 C44_6 1_555 1_555
H53_6 C47_6 1_555 1_555
H54_6 C47_6 1_555 1_555
H55_6 C47_6 1_555 1_555
C48_6 C44_6 1_555 1_555
C49_6 C48_6 1_555 1_555
H56_6 C49_6 1_555 1_555
C50_6 C42_6 1_555 1_555
C51_6 C50_6 1_555 1_555
H57_6 C51_6 1_555 1_555
C52_6 C51_6 1_555 1_555
C53_6 C48_6 1_555 1_555
C54_6 N6_6 1_555 1_555
H58_6 C54_6 1_555 1_555
C55_6 N6_6 1_555 1_555
H59_6 C55_6 1_555 1_555
C56_6 C55_6 1_555 1_555
H60_6 C56_6 1_555 1_555
H61_6 C56_6 1_555 1_555
C57_6 C56_6 1_555 1_555
H62_6 C57_6 1_555 1_555
H63_6 C57_6 1_555 1_555
C58_6 C57_6 1_555 1_555
H64_6 C58_6 1_555 1_555
H65_6 C58_6 1_555 1_555
C59_6 C58_6 1_555 1_555
H66_6 C59_6 1_555 1_555
H67_6 C59_6 1_555 1_555
C60_6 N7_6 1_555 1_555
H68_6 C60_6 1_555 1_555
C61_6 N7_6 1_555 1_555
H69_6 C61_6 1_555 1_555
C62_6 C61_6 1_555 1_555
C63_6 C62_6 1_555 1_555
H70_6 C63_6 1_555 1_555
C64_6 C63_6 1_555 1_555
C65_6 C64_6 1_555 1_555
H71_6 C65_6 1_555 1_555
C66_6 C65_6 1_555 1_555
C67_6 O5_6 1_555 1_555
C68_6 C66_6 1_555 1_555
C69_6 C68_6 1_555 1_555
H72_6 C69_6 1_555 1_555
H73_6 C69_6 1_555 1_555
H74_6 C69_6 1_555 1_555
C70_6 C68_6 1_555 1_555
H75_6 C70_6 1_555 1_555
H76_6 C70_6 1_555 1_555
H77_6 C70_6 1_555 1_555
C71_6 C68_6 1_555 1_555
H78_6 C71_6 1_555 1_555
H79_6 C71_6 1_555 1_555
H80_6 C71_6 1_555 1_555
C72_6 H81_6 1_555 1_555
C73_6 C64_6 1_555 1_555
C74_6 C73_6 1_555 1_555
H82_6 C74_6 1_555 1_555
C75_6 C74_6 1_555 1_555
H83_6 C75_6 1_555 1_555
C76_6 N19 1_555 1_555
H84_6 C76_6 1_555 1_555
C77_6 C78_6 1_555 1_555
C78_6 H85_6 1_555 1_555
C79_6 C78_6 1_555 1_555
H86_6 C79_6 1_555 1_555
C80_6 C79_6 1_555 1_555
C81_6 C80_6 1_555 1_555
H87_6 C81_6 1_555 1_555
C82_6 C77_6 1_555 1_555
H88_6 C82_6 1_555 1_555
C83_6 C77_6 1_555 1_555
C84_6 C80_6 1_555 1_555
C85_6 C84_6 1_555 1_555
H89_6 C85_6 1_555 1_555
C86_6 C85_6 1_555 1_555
H90_6 C86_6 1_555 1_555
C87_6 C86_6 1_555 1_555
C88_6 C87_6 1_555 1_555
H91_6 C88_6 1_555 1_555
C89_6 C84_6 1_555 1_555
H92_6 C89_6 1_555 1_555
C90_6 O33_4 1_555 1_555
H94_6 C93_6 1_555 1_555
C94_6 C93_6 1_555 1_555
H95_6 C94_6 1_555 1_555
Cd6_6 O7_6 1_555 1_555
O8_6 Cd6_6 1_555 1_555
C37_6 C38_6 1_555 1_555
C42_6 C43_6 1_555 1_555
C49_6 C50_6 1_555 1_555
C52_6 C53_6 1_555 1_555
C52_6 C54_6 1_555 1_555
C55_6 C60_6 1_555 1_555
C59_6 C60_6 1_555 1_555
C62_6 C67_6 1_555 1_555
C66_6 C67_6 1_555 1_555
C72_6 C73_6 1_555 1_555
C75_6 C76_6 1_555 1_555
C81_6 C82_6 1_555 1_555
C87_6 C90_6 1_555 1_555
C88_6 C89_6 1_555 1_555
H106_6 C114_6 1_555 1_555
C115_6 C114_6 1_555 1_555
H107_6 C115_6 1_555 1_555
Cd8 O25_6 1_555 1_555
Fe6 O21_6 1_555 1_555
O21_6 C171_6 1_555 1_555
O22_6 Fe6 1_555 1_555
O32_6 C201_6 1_555 1_555
O25_6 C208_6 1_555 1_555
N14_6 Fe6 1_555 1_555
N15_6 Fe6 1_555 1_555
N20 C190_6 1_555 1_555
H148_6 C154_6 1_555 1_555
C155_6 C154_6 1_555 1_555
H149_6 C155_6 1_555 1_555
H150_6 C156_6 1_555 1_555
H154_6 C161_6 1_555 1_555
C162_6 C163_6 1_555 1_555
C163_6 H155_6 1_555 1_555
H156_6 C163_6 1_555 1_555
H157_6 C163_6 1_555 1_555
C164_6 C162_6 1_555 1_555
H158_6 C164_6 1_555 1_555
H159_6 C164_6 1_555 1_555
H160_6 C164_6 1_555 1_555
C165_6 C162_6 1_555 1_555
H161_6 C165_6 1_555 1_555
H162_6 C165_6 1_555 1_555
H163_6 C165_6 1_555 1_555
C166_6 C162_6 1_555 1_555
C167_6 C166_6 1_555 1_555
H164_6 C167_6 1_555 1_555
C168_6 C160_6 1_555 1_555
C169_6 C168_6 1_555 1_555
H165_6 C169_6 1_555 1_555
C170_6 C169_6 1_555 1_555
C171_6 C166_6 1_555 1_555
C172_6 N14_6 1_555 1_555
H166_6 C172_6 1_555 1_555
C173_6 N14_6 1_555 1_555
H167_6 C173_6 1_555 1_555
C174_6 C173_6 1_555 1_555
H168_6 C174_6 1_555 1_555
H169_6 C174_6 1_555 1_555
C175_6 C174_6 1_555 1_555
H170_6 C175_6 1_555 1_555
H171_6 C175_6 1_555 1_555
C176_6 C175_6 1_555 1_555
H172_6 C176_6 1_555 1_555
H173_6 C176_6 1_555 1_555
C177_6 C176_6 1_555 1_555
H174_6 C177_6 1_555 1_555
H175_6 C177_6 1_555 1_555
C178_6 N15_6 1_555 1_555
H176_6 C178_6 1_555 1_555
C179_6 N15_6 1_555 1_555
H177_6 C179_6 1_555 1_555
C180_6 C179_6 1_555 1_555
C181_6 C180_6 1_555 1_555
H178_6 C181_6 1_555 1_555
C182_6 C181_6 1_555 1_555
C183_6 C182_6 1_555 1_555
H179_6 C183_6 1_555 1_555
C184_6 C183_6 1_555 1_555
C185_6 O22_6 1_555 1_555
C186_6 C184_6 1_555 1_555
C187_6 C186_6 1_555 1_555
H180_6 C187_6 1_555 1_555
H181_6 C187_6 1_555 1_555
H182_6 C187_6 1_555 1_555
C188_6 C186_6 1_555 1_555
H183_6 C188_6 1_555 1_555
H184_6 C188_6 1_555 1_555
H185_6 C188_6 1_555 1_555
C189_6 C186_6 1_555 1_555
H186_6 C189_6 1_555 1_555
H187_6 C189_6 1_555 1_555
H188_6 C189_6 1_555 1_555
C190_6 H189_6 1_555 1_555
C191_6 C182_6 1_555 1_555
C192_6 C191_6 1_555 1_555
H190_6 C192_6 1_555 1_555
C193_6 C192_6 1_555 1_555
H191_6 C193_6 1_555 1_555
C194_6 N20 1_555 1_555
H192_6 C194_6 1_555 1_555
C195_6 C196_6 1_555 1_555
C196_6 H193_6 1_555 1_555
C197_6 C196_6 1_555 1_555
H194_6 C197_6 1_555 1_555
C198_6 C197_6 1_555 1_555
C199_6 C198_6 1_555 1_555
H195_6 C199_6 1_555 1_555
C200_6 C195_6 1_555 1_555
H196_6 C200_6 1_555 1_555
C201_6 O30_6 1_555 1_555
C202_6 C198_6 1_555 1_555
C203_6 C202_6 1_555 1_555
H197_6 C203_6 1_555 1_555
C204_6 C203_6 1_555 1_555
H198_6 C204_6 1_555 1_555
C205_6 C204_6 1_555 1_555
C206_6 C205_6 1_555 1_555
H199_6 C206_6 1_555 1_555
C207_6 C202_6 1_555 1_555
H200_6 C207_6 1_555 1_555
C208_6 O34_4 1_555 1_555
C155_6 C156_6 1_555 1_555
C160_6 C161_6 1_555 1_555
C167_6 C168_6 1_555 1_555
C170_6 C171_6 1_555 1_555
C170_6 C172_6 1_555 1_555
C173_6 C178_6 1_555 1_555
C177_6 C178_6 1_555 1_555
C180_6 C185_6 1_555 1_555
C184_6 C185_6 1_555 1_555
C190_6 C191_6 1_555 1_555
C193_6 C194_6 1_555 1_555
C195_6 C201_6 1_555 1_555
C199_6 C200_6 1_555 1_555
C205_6 C208_6 1_555 1_555
C206_6 C207_6 1_555 1_555
O17_6 C118_6 1_555 1_555
C112_6 H105_6 1_555 1_555
C113_6 C112_6 1_555 1_555
C117_6 C112_6 1_555 1_555
H108_6 C117_6 1_555 1_555
C118_6 C113_6 1_555 1_555
Cd6_6 O17_6 1_555 1_555
Fe5_5 O19_6 1_555 1_555
O19_6 C133_6 1_555 1_555
O20_6 Fe5_5 1_555 1_555
N18_3 C119_6 1_555 1_555
N10_6 Fe5_5 1_555 1_555
N11_6 Fe5_5 1_555 1_555
N12_6 Cd6_6 1_555 1_555
N13_6 Cd6_6 1_555 1_555
C119_6 H109_6 1_555 1_555
C120_6 C119_6 1_555 1_555
H110_6 C120_6 1_555 1_555
C121_6 C120_6 1_555 1_555
H111_6 C121_6 1_555 1_555
C122_6 C121_6 1_555 1_555
C123_6 N18_3 1_555 1_555
H112_6 C123_6 1_555 1_555
C124_6 C125_6 1_555 1_555
C125_6 H113_6 1_555 1_555
H114_6 C125_6 1_555 1_555
H115_6 C125_6 1_555 1_555
C126_6 C124_6 1_555 1_555
H116_6 C126_6 1_555 1_555
H117_6 C126_6 1_555 1_555
H118_6 C126_6 1_555 1_555
C127_6 C124_6 1_555 1_555
H119_6 C127_6 1_555 1_555
H120_6 C127_6 1_555 1_555
H121_6 C127_6 1_555 1_555
C128_6 C124_6 1_555 1_555
C129_6 C128_6 1_555 1_555
H122_6 C129_6 1_555 1_555
C130_6 C122_6 1_555 1_555
C131_6 C130_6 1_555 1_555
H123_6 C131_6 1_555 1_555
C132_6 C131_6 1_555 1_555
C133_6 C128_6 1_555 1_555
C134_6 N10_6 1_555 1_555
H124_6 C134_6 1_555 1_555
C135_6 N10_6 1_555 1_555
H125_6 C135_6 1_555 1_555
C136_6 C135_6 1_555 1_555
H126_6 C136_6 1_555 1_555
H127_6 C136_6 1_555 1_555
C137_6 C136_6 1_555 1_555
H128_6 C137_6 1_555 1_555
H129_6 C137_6 1_555 1_555
C138_6 C137_6 1_555 1_555
H130_6 C138_6 1_555 1_555
H131_6 C138_6 1_555 1_555
C139_6 C138_6 1_555 1_555
H132_6 C139_6 1_555 1_555
H133_6 C139_6 1_555 1_555
C140_6 N11_6 1_555 1_555
H134_6 C140_6 1_555 1_555
C141_6 N11_6 1_555 1_555
H135_6 C141_6 1_555 1_555
C142_6 C141_6 1_555 1_555
C143_6 C142_6 1_555 1_555
H136_6 C143_6 1_555 1_555
C144_6 C143_6 1_555 1_555
C145_6 C144_6 1_555 1_555
H137_6 C145_6 1_555 1_555
C146_6 C145_6 1_555 1_555
C147_6 O20_6 1_555 1_555
C148_6 C146_6 1_555 1_555
C149_6 C148_6 1_555 1_555
H138_6 C149_6 1_555 1_555
H139_6 C149_6 1_555 1_555
H140_6 C149_6 1_555 1_555
C150_6 C148_6 1_555 1_555
H141_6 C150_6 1_555 1_555
H142_6 C150_6 1_555 1_555
H143_6 C150_6 1_555 1_555
C151_6 C148_6 1_555 1_555
H144_6 C151_6 1_555 1_555
H145_6 C151_6 1_555 1_555
H146_6 C151_6 1_555 1_555
C152_6 N12_6 1_555 1_555
H147_6 C152_6 1_555 1_555
C153_6 C144_6 1_555 1_555
C157_6 N13_6 1_555 1_555
H151_6 C157_6 1_555 1_555
C158_6 C157_6 1_555 1_555
H152_6 C158_6 1_555 1_555
C159_6 C158_6 1_555 1_555
H153_6 C159_6 1_555 1_555
C116_6 C117_6 1_555 1_555
C122_6 C123_6 1_555 1_555
C129_6 C130_6 1_555 1_555
C132_6 C133_6 1_555 1_555
C132_6 C134_6 1_555 1_555
C135_6 C140_6 1_555 1_555
C139_6 C140_6 1_555 1_555
C142_6 C147_6 1_555 1_555
C146_6 C147_6 1_555 1_555
C152_6 C153_6 1_555 1_555
O1_7 C15_7 1_555 1_555
N17_2 C1_7 1_555 1_555
C1_7 H1_7 1_555 1_555
C2_7 C1_7 1_555 1_555
H2_7 C2_7 1_555 1_555
C3_7 C2_7 1_555 1_555
H3_7 C3_7 1_555 1_555
C4_7 C3_7 1_555 1_555
C5_7 N17_2 1_555 1_555
H4_7 C5_7 1_555 1_555
C6_7 C7_7 1_555 1_555
C7_7 H5_7 1_555 1_555
H6_7 C7_7 1_555 1_555
H7_7 C7_7 1_555 1_555
C8_7 C6_7 1_555 1_555
H8_7 C8_7 1_555 1_555
H9_7 C8_7 1_555 1_555
H10_7 C8_7 1_555 1_555
C9_7 C6_7 1_555 1_555
H11_7 C9_7 1_555 1_555
H12_7 C9_7 1_555 1_555
H13_7 C9_7 1_555 1_555
C10_7 C6_7 1_555 1_555
C11_7 C10_7 1_555 1_555
H14_7 C11_7 1_555 1_555
C12_7 C4_7 1_555 1_555
C13_7 C12_7 1_555 1_555
H15_7 C13_7 1_555 1_555
C14_7 C13_7 1_555 1_555
C15_7 C10_7 1_555 1_555
C31_7 C30_7 1_555 1_555
H30_7 C31_7 1_555 1_555
H31_7 C31_7 1_555 1_555
H32_7 C31_7 1_555 1_555
C32_7 C30_7 1_555 1_555
H34_7 C32_7 1_555 1_555
H35_7 C32_7 1_555 1_555
C33_7 C30_7 1_555 1_555
H36_7 C33_7 1_555 1_555
H37_7 C33_7 1_555 1_555
H38_7 C33_7 1_555 1_555
Fe5_7 O3_8 1_555 1_555
C4_7 C5_7 1_555 1_555
C11_7 C12_7 1_555 1_555
C14_7 C15_7 1_555 1_555
Cd1_7 O7_7 1_555 1_555
Cd9 O9_7 1_555 1_555
Fe6_8 O4_7 1_555 1_555
O2_7 Fe1_4 1_555 1_555
O3_9 Fe1_4 1_555 1_555
O4_7 C53_7 1_555 1_555
O5_7 Fe6_8 1_555 1_555
O7_7 C83_7 1_555 1_555
O8_7 C83_7 1_555 1_555
O9_7 C90_7 1_555 1_555
O13_7 Cd1_7 1_555 1_555
O14_7 Cd1_7 1_555 1_555
N2_7 Fe1_4 1_555 1_555
N3_7 Fe1_4 1_555 1_555
N4_7 Cd1_7 1_555 1_555
N5_7 Cd1_7 1_555 1_555
N6_7 Fe6_8 1_555 1_555
N7_7 Fe6_8 1_555 1_555
N19_4 C72_7 1_555 1_555
C16_7 N2_7 1_555 1_555
H16_7 C16_7 1_555 1_555
C17_7 N2_7 1_555 1_555
H17_7 C17_7 1_555 1_555
C18_7 C17_7 1_555 1_555
H18_7 C18_7 1_555 1_555
H19_7 C18_7 1_555 1_555
C19_7 C18_7 1_555 1_555
H20_7 C19_7 1_555 1_555
H21_7 C19_7 1_555 1_555
C20_7 C19_7 1_555 1_555
H22_7 C20_7 1_555 1_555
H23_7 C20_7 1_555 1_555
C21_7 C20_7 1_555 1_555
H24_7 C21_7 1_555 1_555
H25_7 C21_7 1_555 1_555
C22_7 N3_7 1_555 1_555
H26_7 C22_7 1_555 1_555
C23_7 N3_7 1_555 1_555
H27_7 C23_7 1_555 1_555
C24_7 C23_7 1_555 1_555
C25_7 C24_7 1_555 1_555
H28_7 C25_7 1_555 1_555
C26_7 C25_7 1_555 1_555
C27_7 C26_7 1_555 1_555
H29_7 C27_7 1_555 1_555
C28_7 C27_7 1_555 1_555
C29_7 O2_7 1_555 1_555
C34_7 N4_7 1_555 1_555
H39_7 C34_7 1_555 1_555
C35_7 C26_7 1_555 1_555
C36_7 C35_7 1_555 1_555
H40_7 C36_7 1_555 1_555
C37_7 C36_7 1_555 1_555
H41_7 C37_7 1_555 1_555
C38_7 N4_7 1_555 1_555
H42_7 C38_7 1_555 1_555
C39_7 N5_7 1_555 1_555
H43_7 C39_7 1_555 1_555
C40_7 C39_7 1_555 1_555
H44_7 C40_7 1_555 1_555
C41_7 C40_7 1_555 1_555
H45_7 C41_7 1_555 1_555
C42_7 C41_7 1_555 1_555
C43_7 N5_7 1_555 1_555
H46_7 C43_7 1_555 1_555
C44_7 C45_7 1_555 1_555
C45_7 H47_7 1_555 1_555
H48_7 C45_7 1_555 1_555
H49_7 C45_7 1_555 1_555
C46_7 C44_7 1_555 1_555
H50_7 C46_7 1_555 1_555
H51_7 C46_7 1_555 1_555
H52_7 C46_7 1_555 1_555
C47_7 C44_7 1_555 1_555
H53_7 C47_7 1_555 1_555
H54_7 C47_7 1_555 1_555
H55_7 C47_7 1_555 1_555
C48_7 C44_7 1_555 1_555
C49_7 C48_7 1_555 1_555
H56_7 C49_7 1_555 1_555
C50_7 C42_7 1_555 1_555
C51_7 C50_7 1_555 1_555
H57_7 C51_7 1_555 1_555
C52_7 C51_7 1_555 1_555
C53_7 C48_7 1_555 1_555
C54_7 N6_7 1_555 1_555
H58_7 C54_7 1_555 1_555
C55_7 N6_7 1_555 1_555
H59_7 C55_7 1_555 1_555
C56_7 C55_7 1_555 1_555
H60_7 C56_7 1_555 1_555
H61_7 C56_7 1_555 1_555
C57_7 C56_7 1_555 1_555
H62_7 C57_7 1_555 1_555
H63_7 C57_7 1_555 1_555
C58_7 C57_7 1_555 1_555
H64_7 C58_7 1_555 1_555
H65_7 C58_7 1_555 1_555
C59_7 C58_7 1_555 1_555
H66_7 C59_7 1_555 1_555
H67_7 C59_7 1_555 1_555
C60_7 N7_7 1_555 1_555
H68_7 C60_7 1_555 1_555
C61_7 N7_7 1_555 1_555
H69_7 C61_7 1_555 1_555
C62_7 C61_7 1_555 1_555
C63_7 C62_7 1_555 1_555
H70_7 C63_7 1_555 1_555
C64_7 C63_7 1_555 1_555
C65_7 C64_7 1_555 1_555
H71_7 C65_7 1_555 1_555
C66_7 C65_7 1_555 1_555
C67_7 O5_7 1_555 1_555
C68_7 C66_7 1_555 1_555
C69_7 C68_7 1_555 1_555
H72_7 C69_7 1_555 1_555
H73_7 C69_7 1_555 1_555
H74_7 C69_7 1_555 1_555
C70_7 C68_7 1_555 1_555
H75_7 C70_7 1_555 1_555
H76_7 C70_7 1_555 1_555
H77_7 C70_7 1_555 1_555
C71_7 C68_7 1_555 1_555
H78_7 C71_7 1_555 1_555
H79_7 C71_7 1_555 1_555
H80_7 C71_7 1_555 1_555
C72_7 H81_7 1_555 1_555
C73_7 C64_7 1_555 1_555
C74_7 C73_7 1_555 1_555
H82_7 C74_7 1_555 1_555
C75_7 C74_7 1_555 1_555
H83_7 C75_7 1_555 1_555
C76_7 N19_4 1_555 1_555
H84_7 C76_7 1_555 1_555
C77_7 C78_7 1_555 1_555
C78_7 H85_7 1_555 1_555
C79_7 C78_7 1_555 1_555
H86_7 C79_7 1_555 1_555
C80_7 C79_7 1_555 1_555
C81_7 C80_7 1_555 1_555
H87_7 C81_7 1_555 1_555
C82_7 C77_7 1_555 1_555
H88_7 C82_7 1_555 1_555
C83_7 C77_7 1_555 1_555
C84_7 C80_7 1_555 1_555
C85_7 C84_7 1_555 1_555
H89_7 C85_7 1_555 1_555
C86_7 C85_7 1_555 1_555
H90_7 C86_7 1_555 1_555
C87_7 C86_7 1_555 1_555
C88_7 C87_7 1_555 1_555
H91_7 C88_7 1_555 1_555
C89_7 C84_7 1_555 1_555
H92_7 C89_7 1_555 1_555
C90_7 O33 1_555 1_555
C91_7 H93_7 1_555 1_555
C92_7 C91_7 1_555 1_555
C93_7 C92_7 1_555 1_555
H94_7 C93_7 1_555 1_555
C94_7 C93_7 1_555 1_555
H95_7 C94_7 1_555 1_555
C95_7 C94_7 1_555 1_555
C96_7 C91_7 1_555 1_555
H96_7 C96_7 1_555 1_555
C97_7 O13_7 1_555 1_555
Cd6_7 O7_7 1_555 1_555
O30_7 Cd1_7 1_555 1_555
O32_7 Cd1_7 1_555 1_555
O8_7 Cd6_7 1_555 1_555
O14_7 C97_7 1_555 1_555
C17_7 C22_7 1_555 1_555
C21_7 C22_7 1_555 1_555
C24_7 C29_7 1_555 1_555
C28_7 C29_7 1_555 1_555
C34_7 C35_7 1_555 1_555
C37_7 C38_7 1_555 1_555
C42_7 C43_7 1_555 1_555
C49_7 C50_7 1_555 1_555
C52_7 C53_7 1_555 1_555
C52_7 C54_7 1_555 1_555
C55_7 C60_7 1_555 1_555
C59_7 C60_7 1_555 1_555
C62_7 C67_7 1_555 1_555
C66_7 C67_7 1_555 1_555
C72_7 C73_7 1_555 1_555
C75_7 C76_7 1_555 1_555
C81_7 C82_7 1_555 1_555
C87_7 C90_7 1_555 1_555
C88_7 C89_7 1_555 1_555
C92_7 C97_7 1_555 1_555
C95_7 C96_7 1_555 1_555
Cd6_7 O30_7 1_555 1_555
O19_7 C133_7 1_555 1_555
N18_2 C119_7 1_555 1_555
C119_7 H109_7 1_555 1_555
C120_7 C119_7 1_555 1_555
H110_7 C120_7 1_555 1_555
C121_7 C120_7 1_555 1_555
H111_7 C121_7 1_555 1_555
C122_7 C121_7 1_555 1_555
C123_7 N18_2 1_555 1_555
H112_7 C123_7 1_555 1_555
C124_7 C125_7 1_555 1_555
C125_7 H113_7 1_555 1_555
H114_7 C125_7 1_555 1_555
H115_7 C125_7 1_555 1_555
C126_7 C124_7 1_555 1_555
H116_7 C126_7 1_555 1_555
H117_7 C126_7 1_555 1_555
H118_7 C126_7 1_555 1_555
C127_7 C124_7 1_555 1_555
H119_7 C127_7 1_555 1_555
H120_7 C127_7 1_555 1_555
H121_7 C127_7 1_555 1_555
C128_7 C124_7 1_555 1_555
C129_7 C128_7 1_555 1_555
H122_7 C129_7 1_555 1_555
C130_7 C122_7 1_555 1_555
C131_7 C130_7 1_555 1_555
H123_7 C131_7 1_555 1_555
C132_7 C131_7 1_555 1_555
C133_7 C128_7 1_555 1_555
C149_7 C148_7 1_555 1_555
H138_7 C149_7 1_555 1_555
H139_7 C149_7 1_555 1_555
H140_7 C149_7 1_555 1_555
C150_7 C148_7 1_555 1_555
H142_7 C150_7 1_555 1_555
H143_7 C150_7 1_555 1_555
C151_7 C148_7 1_555 1_555
H144_7 C151_7 1_555 1_555
H145_7 C151_7 1_555 1_555
H146_7 C151_7 1_555 1_555
C122_7 C123_7 1_555 1_555
C129_7 C130_7 1_555 1_555
C132_7 C133_7 1_555 1_555
O17_7 C118_7 1_555 1_555
O18_7 C118_7 1_555 1_555
C112_7 H105_7 1_555 1_555
C113_7 C112_7 1_555 1_555
C114_7 C113_7 1_555 1_555
H106_7 C114_7 1_555 1_555
C115_7 C114_7 1_555 1_555
H107_7 C115_7 1_555 1_555
C117_7 C112_7 1_555 1_555
H108_7 C117_7 1_555 1_555
C118_7 C113_7 1_555 1_555
Cd6_7 O17_7 1_555 1_555
Cd11 O25_7 1_555 1_555
Fe6_7 O21_7 1_555 1_555
O20_7 Fe3_4 1_555 1_555
O21_7 C171_7 1_555 1_555
O22_7 Fe6_7 1_555 1_555
O32_7 C201_7 1_555 1_555
O25_7 C208_7 1_555 1_555
N10_7 Fe3_4 1_555 1_555
N11_7 Fe3_4 1_555 1_555
N12_7 Cd6_7 1_555 1_555
N13_7 Cd6_7 1_555 1_555
N14_7 Fe6_7 1_555 1_555
N15_7 Fe6_7 1_555 1_555
N20_4 C190_7 1_555 1_555
C134_7 N10_7 1_555 1_555
H124_7 C134_7 1_555 1_555
C135_7 N10_7 1_555 1_555
H125_7 C135_7 1_555 1_555
C136_7 C135_7 1_555 1_555
H126_7 C136_7 1_555 1_555
H127_7 C136_7 1_555 1_555
C137_7 C136_7 1_555 1_555
H128_7 C137_7 1_555 1_555
H129_7 C137_7 1_555 1_555
C138_7 C137_7 1_555 1_555
H130_7 C138_7 1_555 1_555
H131_7 C138_7 1_555 1_555
C139_7 C138_7 1_555 1_555
H132_7 C139_7 1_555 1_555
H133_7 C139_7 1_555 1_555
C140_7 N11_7 1_555 1_555
H134_7 C140_7 1_555 1_555
C141_7 N11_7 1_555 1_555
H135_7 C141_7 1_555 1_555
C142_7 C141_7 1_555 1_555
C143_7 C142_7 1_555 1_555
H136_7 C143_7 1_555 1_555
C144_7 C143_7 1_555 1_555
C145_7 C144_7 1_555 1_555
H137_7 C145_7 1_555 1_555
C146_7 C145_7 1_555 1_555
C147_7 O20_7 1_555 1_555
C152_7 N12_7 1_555 1_555
H147_7 C152_7 1_555 1_555
C153_7 C144_7 1_555 1_555
C154_7 C153_7 1_555 1_555
H148_7 C154_7 1_555 1_555
C155_7 C154_7 1_555 1_555
H149_7 C155_7 1_555 1_555
C156_7 N12_7 1_555 1_555
H150_7 C156_7 1_555 1_555
C157_7 N13_7 1_555 1_555
H151_7 C157_7 1_555 1_555
C158_7 C157_7 1_555 1_555
H152_7 C158_7 1_555 1_555
C159_7 C158_7 1_555 1_555
H153_7 C159_7 1_555 1_555
C160_7 C159_7 1_555 1_555
C161_7 N13_7 1_555 1_555
H154_7 C161_7 1_555 1_555
C162_7 C163_7 1_555 1_555
C163_7 H155_7 1_555 1_555
H156_7 C163_7 1_555 1_555
H157_7 C163_7 1_555 1_555
C164_7 C162_7 1_555 1_555
H158_7 C164_7 1_555 1_555
H159_7 C164_7 1_555 1_555
H160_7 C164_7 1_555 1_555
C165_7 C162_7 1_555 1_555
H161_7 C165_7 1_555 1_555
H162_7 C165_7 1_555 1_555
H163_7 C165_7 1_555 1_555
C166_7 C162_7 1_555 1_555
C167_7 C166_7 1_555 1_555
H164_7 C167_7 1_555 1_555
C168_7 C160_7 1_555 1_555
C169_7 C168_7 1_555 1_555
H165_7 C169_7 1_555 1_555
C170_7 C169_7 1_555 1_555
C171_7 C166_7 1_555 1_555
C172_7 N14_7 1_555 1_555
H166_7 C172_7 1_555 1_555
C173_7 N14_7 1_555 1_555
H167_7 C173_7 1_555 1_555
C174_7 C173_7 1_555 1_555
H168_7 C174_7 1_555 1_555
H169_7 C174_7 1_555 1_555
C175_7 C174_7 1_555 1_555
H170_7 C175_7 1_555 1_555
H171_7 C175_7 1_555 1_555
C176_7 C175_7 1_555 1_555
H172_7 C176_7 1_555 1_555
H173_7 C176_7 1_555 1_555
C177_7 C176_7 1_555 1_555
H174_7 C177_7 1_555 1_555
H175_7 C177_7 1_555 1_555
C178_7 N15_7 1_555 1_555
H176_7 C178_7 1_555 1_555
C179_7 N15_7 1_555 1_555
H177_7 C179_7 1_555 1_555
C180_7 C179_7 1_555 1_555
C181_7 C180_7 1_555 1_555
H178_7 C181_7 1_555 1_555
C182_7 C181_7 1_555 1_555
C183_7 C182_7 1_555 1_555
H179_7 C183_7 1_555 1_555
C184_7 C183_7 1_555 1_555
C185_7 O22_7 1_555 1_555
C186_7 C184_7 1_555 1_555
C187_7 C186_7 1_555 1_555
H180_7 C187_7 1_555 1_555
H181_7 C187_7 1_555 1_555
H182_7 C187_7 1_555 1_555
C188_7 C186_7 1_555 1_555
H183_7 C188_7 1_555 1_555
H184_7 C188_7 1_555 1_555
H185_7 C188_7 1_555 1_555
C189_7 C186_7 1_555 1_555
H186_7 C189_7 1_555 1_555
H187_7 C189_7 1_555 1_555
H188_7 C189_7 1_555 1_555
C190_7 H189_7 1_555 1_555
C191_7 C182_7 1_555 1_555
C192_7 C191_7 1_555 1_555
H190_7 C192_7 1_555 1_555
C193_7 C192_7 1_555 1_555
H191_7 C193_7 1_555 1_555
C194_7 N20_4 1_555 1_555
H192_7 C194_7 1_555 1_555
C195_7 C196_7 1_555 1_555
C196_7 H193_7 1_555 1_555
C197_7 C196_7 1_555 1_555
H194_7 C197_7 1_555 1_555
C198_7 C197_7 1_555 1_555
C199_7 C198_7 1_555 1_555
H195_7 C199_7 1_555 1_555
C200_7 C195_7 1_555 1_555
H196_7 C200_7 1_555 1_555
C201_7 O30_7 1_555 1_555
C202_7 C198_7 1_555 1_555
C203_7 C202_7 1_555 1_555
H197_7 C203_7 1_555 1_555
C204_7 C203_7 1_555 1_555
H198_7 C204_7 1_555 1_555
C205_7 C204_7 1_555 1_555
C206_7 C205_7 1_555 1_555
H199_7 C206_7 1_555 1_555
C207_7 C202_7 1_555 1_555
H200_7 C207_7 1_555 1_555
C208_7 O34 1_555 1_555
O27_9 Fe3_4 1_555 1_555
O18_7 Cd6_7 1_555 1_555
C115_7 C116_7 1_555 1_555
C116_7 C117_7 1_555 1_555
C135_7 C140_7 1_555 1_555
C139_7 C140_7 1_555 1_555
C142_7 C147_7 1_555 1_555
C146_7 C147_7 1_555 1_555
C152_7 C153_7 1_555 1_555
C155_7 C156_7 1_555 1_555
C160_7 C161_7 1_555 1_555
C167_7 C168_7 1_555 1_555
C170_7 C171_7 1_555 1_555
C170_7 C172_7 1_555 1_555
C173_7 C178_7 1_555 1_555
C177_7 C178_7 1_555 1_555
C180_7 C185_7 1_555 1_555
C184_7 C185_7 1_555 1_555
C190_7 C191_7 1_555 1_555
C193_7 C194_7 1_555 1_555
C195_7 C201_7 1_555 1_555
C199_7 C200_7 1_555 1_555
C205_7 C208_7 1_555 1_555
C206_7 C207_7 1_555 1_555
Fe5_8 O27_8 1_555 1_555
Cd1_8 O7_8 1_555 1_555
Cd12 O9_8 1_555 1_555
Fe6_6 O4_8 1_555 1_555
O2_8 Fe5_8 1_555 1_555
O4_8 C53_8 1_555 1_555
O5_8 Fe6_6 1_555 1_555
O7_8 C83_8 1_555 1_555
O8_8 C83_8 1_555 1_555
O9_8 C90_8 1_555 1_555
O13_8 Cd1_8 1_555 1_555
O14_8 Cd1_8 1_555 1_555
N2_8 Fe5_8 1_555 1_555
N3_8 Fe5_8 1_555 1_555
N4_8 Cd1_8 1_555 1_555
N5_8 Cd1_8 1_555 1_555
N6_8 Fe6_6 1_555 1_555
N7_8 Fe6_6 1_555 1_555
N19_3 C72_8 1_555 1_555
C16_8 N2_8 1_555 1_555
H16_8 C16_8 1_555 1_555
C17_8 N2_8 1_555 1_555
H17_8 C17_8 1_555 1_555
C18_8 C17_8 1_555 1_555
H18_8 C18_8 1_555 1_555
H19_8 C18_8 1_555 1_555
C19_8 C18_8 1_555 1_555
H20_8 C19_8 1_555 1_555
H21_8 C19_8 1_555 1_555
C20_8 C19_8 1_555 1_555
H22_8 C20_8 1_555 1_555
H23_8 C20_8 1_555 1_555
C21_8 C20_8 1_555 1_555
H24_8 C21_8 1_555 1_555
H25_8 C21_8 1_555 1_555
C22_8 N3_8 1_555 1_555
H26_8 C22_8 1_555 1_555
C23_8 N3_8 1_555 1_555
H27_8 C23_8 1_555 1_555
C24_8 C23_8 1_555 1_555
C25_8 C24_8 1_555 1_555
H28_8 C25_8 1_555 1_555
C26_8 C25_8 1_555 1_555
C27_8 C26_8 1_555 1_555
H29_8 C27_8 1_555 1_555
C28_8 C27_8 1_555 1_555
C29_8 O2_8 1_555 1_555
C34_8 N4_8 1_555 1_555
H39_8 C34_8 1_555 1_555
C35_8 C26_8 1_555 1_555
C36_8 C35_8 1_555 1_555
H40_8 C36_8 1_555 1_555
C37_8 C36_8 1_555 1_555
H41_8 C37_8 1_555 1_555
C38_8 N4_8 1_555 1_555
H42_8 C38_8 1_555 1_555
C39_8 N5_8 1_555 1_555
H43_8 C39_8 1_555 1_555
C40_8 C39_8 1_555 1_555
H44_8 C40_8 1_555 1_555
C41_8 C40_8 1_555 1_555
H45_8 C41_8 1_555 1_555
C42_8 C41_8 1_555 1_555
C43_8 N5_8 1_555 1_555
H46_8 C43_8 1_555 1_555
C44_8 C45_8 1_555 1_555
C45_8 H47_8 1_555 1_555
H48_8 C45_8 1_555 1_555
H49_8 C45_8 1_555 1_555
C46_8 C44_8 1_555 1_555
H50_8 C46_8 1_555 1_555
H51_8 C46_8 1_555 1_555
H52_8 C46_8 1_555 1_555
C47_8 C44_8 1_555 1_555
H53_8 C47_8 1_555 1_555
H54_8 C47_8 1_555 1_555
H55_8 C47_8 1_555 1_555
C48_8 C44_8 1_555 1_555
C49_8 C48_8 1_555 1_555
H56_8 C49_8 1_555 1_555
C50_8 C42_8 1_555 1_555
C51_8 C50_8 1_555 1_555
H57_8 C51_8 1_555 1_555
C52_8 C51_8 1_555 1_555
C53_8 C48_8 1_555 1_555
C54_8 N6_8 1_555 1_555
H58_8 C54_8 1_555 1_555
C55_8 N6_8 1_555 1_555
H59_8 C55_8 1_555 1_555
C56_8 C55_8 1_555 1_555
H60_8 C56_8 1_555 1_555
H61_8 C56_8 1_555 1_555
C57_8 C56_8 1_555 1_555
H62_8 C57_8 1_555 1_555
H63_8 C57_8 1_555 1_555
C58_8 C57_8 1_555 1_555
H64_8 C58_8 1_555 1_555
H65_8 C58_8 1_555 1_555
C59_8 C58_8 1_555 1_555
H66_8 C59_8 1_555 1_555
H67_8 C59_8 1_555 1_555
C60_8 N7_8 1_555 1_555
H68_8 C60_8 1_555 1_555
C61_8 N7_8 1_555 1_555
H69_8 C61_8 1_555 1_555
C62_8 C61_8 1_555 1_555
C63_8 C62_8 1_555 1_555
H70_8 C63_8 1_555 1_555
C64_8 C63_8 1_555 1_555
C65_8 C64_8 1_555 1_555
H71_8 C65_8 1_555 1_555
C66_8 C65_8 1_555 1_555
C67_8 O5_8 1_555 1_555
C68_8 C66_8 1_555 1_555
C69_8 C68_8 1_555 1_555
H72_8 C69_8 1_555 1_555
H73_8 C69_8 1_555 1_555
H74_8 C69_8 1_555 1_555
C70_8 C68_8 1_555 1_555
H75_8 C70_8 1_555 1_555
H76_8 C70_8 1_555 1_555
H77_8 C70_8 1_555 1_555
C71_8 C68_8 1_555 1_555
H78_8 C71_8 1_555 1_555
H79_8 C71_8 1_555 1_555
H80_8 C71_8 1_555 1_555
C72_8 H81_8 1_555 1_555
C73_8 C64_8 1_555 1_555
C74_8 C73_8 1_555 1_555
H82_8 C74_8 1_555 1_555
C75_8 C74_8 1_555 1_555
H83_8 C75_8 1_555 1_555
C76_8 N19_3 1_555 1_555
H84_8 C76_8 1_555 1_555
C77_8 C78_8 1_555 1_555
C78_8 H85_8 1_555 1_555
C79_8 C78_8 1_555 1_555
H86_8 C79_8 1_555 1_555
C80_8 C79_8 1_555 1_555
C81_8 C80_8 1_555 1_555
H87_8 C81_8 1_555 1_555
C82_8 C77_8 1_555 1_555
H88_8 C82_8 1_555 1_555
C83_8 C77_8 1_555 1_555
C84_8 C80_8 1_555 1_555
C85_8 C84_8 1_555 1_555
H89_8 C85_8 1_555 1_555
C86_8 C85_8 1_555 1_555
H90_8 C86_8 1_555 1_555
C87_8 C86_8 1_555 1_555
C88_8 C87_8 1_555 1_555
H91_8 C88_8 1_555 1_555
C89_8 C84_8 1_555 1_555
H92_8 C89_8 1_555 1_555
C90_8 O33_2 1_555 1_555
C91_8 H93_8 1_555 1_555
C92_8 C91_8 1_555 1_555
C93_8 C92_8 1_555 1_555
H94_8 C93_8 1_555 1_555
C94_8 C93_8 1_555 1_555
H95_8 C94_8 1_555 1_555
C95_8 C94_8 1_555 1_555
C96_8 C91_8 1_555 1_555
H96_8 C96_8 1_555 1_555
C97_8 O13_8 1_555 1_555
Cd6_8 O7_8 1_555 1_555
O30_8 Cd1_8 1_555 1_555
O32_8 Cd1_8 1_555 1_555
O8_8 Cd6_8 1_555 1_555
O14_8 C97_8 1_555 1_555
C17_8 C22_8 1_555 1_555
C21_8 C22_8 1_555 1_555
C24_8 C29_8 1_555 1_555
C28_8 C29_8 1_555 1_555
C34_8 C35_8 1_555 1_555
C37_8 C38_8 1_555 1_555
C42_8 C43_8 1_555 1_555
C49_8 C50_8 1_555 1_555
C52_8 C53_8 1_555 1_555
C52_8 C54_8 1_555 1_555
C55_8 C60_8 1_555 1_555
C59_8 C60_8 1_555 1_555
C62_8 C67_8 1_555 1_555
C66_8 C67_8 1_555 1_555
C72_8 C73_8 1_555 1_555
C75_8 C76_8 1_555 1_555
C81_8 C82_8 1_555 1_555
C87_8 C90_8 1_555 1_555
C88_8 C89_8 1_555 1_555
C92_8 C97_8 1_555 1_555
C95_8 C96_8 1_555 1_555
Cd6_8 O30_8 1_555 1_555
O1_8 C15_8 1_555 1_555
N17 C1_8 1_555 1_555
C1_8 H1_8 1_555 1_555
C2_8 C1_8 1_555 1_555
H2_8 C2_8 1_555 1_555
C3_8 C2_8 1_555 1_555
H3_8 C3_8 1_555 1_555
C4_8 C3_8 1_555 1_555
C5_8 N17 1_555 1_555
H4_8 C5_8 1_555 1_555
C6_8 C7_8 1_555 1_555
C7_8 H5_8 1_555 1_555
H6_8 C7_8 1_555 1_555
H7_8 C7_8 1_555 1_555
C8_8 C6_8 1_555 1_555
H8_8 C8_8 1_555 1_555
H9_8 C8_8 1_555 1_555
H10_8 C8_8 1_555 1_555
C9_8 C6_8 1_555 1_555
H11_8 C9_8 1_555 1_555
H12_8 C9_8 1_555 1_555
H13_8 C9_8 1_555 1_555
C10_8 C6_8 1_555 1_555
C11_8 C10_8 1_555 1_555
H14_8 C11_8 1_555 1_555
C12_8 C4_8 1_555 1_555
C13_8 C12_8 1_555 1_555
H15_8 C13_8 1_555 1_555
C14_8 C13_8 1_555 1_555
C15_8 C10_8 1_555 1_555
C31_8 C30_8 1_555 1_555
H30_8 C31_8 1_555 1_555
H31_8 C31_8 1_555 1_555
H32_8 C31_8 1_555 1_555
C32_8 C30_8 1_555 1_555
H34_8 C32_8 1_555 1_555
H35_8 C32_8 1_555 1_555
C33_8 C30_8 1_555 1_555
H36_8 C33_8 1_555 1_555
H37_8 C33_8 1_555 1_555
H38_8 C33_8 1_555 1_555
C4_8 C5_8 1_555 1_555
C11_8 C12_8 1_555 1_555
C14_8 C15_8 1_555 1_555
O17_8 C118_8 1_555 1_555
O18_8 C118_8 1_555 1_555
C112_8 H105_8 1_555 1_555
C113_8 C112_8 1_555 1_555
C114_8 C113_8 1_555 1_555
H106_8 C114_8 1_555 1_555
C115_8 C114_8 1_555 1_555
H107_8 C115_8 1_555 1_555
C117_8 C112_8 1_555 1_555
H108_8 C117_8 1_555 1_555
C118_8 C113_8 1_555 1_555
Cd6_8 O17_8 1_555 1_555
Cd13 O25_8 1_555 1_555
Fe6_5 O21_8 1_555 1_555
O20_8 Fe5_7 1_555 1_555
O21_8 C171_8 1_555 1_555
O22_8 Fe6_5 1_555 1_555
O32_8 C201_8 1_555 1_555
O25_8 C208_8 1_555 1_555
N10_8 Fe5_7 1_555 1_555
N11_8 Fe5_7 1_555 1_555
N12_8 Cd6_8 1_555 1_555
N13_8 Cd6_8 1_555 1_555
N14_8 Fe6_5 1_555 1_555
N15_8 Fe6_5 1_555 1_555
N20_3 C190_8 1_555 1_555
C134_8 N10_8 1_555 1_555
H124_8 C134_8 1_555 1_555
C135_8 N10_8 1_555 1_555
H125_8 C135_8 1_555 1_555
C136_8 C135_8 1_555 1_555
H126_8 C136_8 1_555 1_555
H127_8 C136_8 1_555 1_555
C137_8 C136_8 1_555 1_555
H128_8 C137_8 1_555 1_555
H129_8 C137_8 1_555 1_555
C138_8 C137_8 1_555 1_555
H130_8 C138_8 1_555 1_555
H131_8 C138_8 1_555 1_555
C139_8 C138_8 1_555 1_555
H132_8 C139_8 1_555 1_555
H133_8 C139_8 1_555 1_555
C140_8 N11_8 1_555 1_555
H134_8 C140_8 1_555 1_555
C141_8 N11_8 1_555 1_555
H135_8 C141_8 1_555 1_555
C142_8 C141_8 1_555 1_555
C143_8 C142_8 1_555 1_555
H136_8 C143_8 1_555 1_555
C144_8 C143_8 1_555 1_555
C145_8 C144_8 1_555 1_555
H137_8 C145_8 1_555 1_555
C146_8 C145_8 1_555 1_555
C147_8 O20_8 1_555 1_555
C152_8 N12_8 1_555 1_555
H147_8 C152_8 1_555 1_555
C153_8 C144_8 1_555 1_555
C154_8 C153_8 1_555 1_555
H148_8 C154_8 1_555 1_555
C155_8 C154_8 1_555 1_555
H149_8 C155_8 1_555 1_555
C156_8 N12_8 1_555 1_555
H150_8 C156_8 1_555 1_555
C157_8 N13_8 1_555 1_555
H151_8 C157_8 1_555 1_555
C158_8 C157_8 1_555 1_555
H152_8 C158_8 1_555 1_555
C159_8 C158_8 1_555 1_555
H153_8 C159_8 1_555 1_555
C160_8 C159_8 1_555 1_555
C161_8 N13_8 1_555 1_555
H154_8 C161_8 1_555 1_555
C162_8 C163_8 1_555 1_555
C163_8 H155_8 1_555 1_555
H156_8 C163_8 1_555 1_555
H157_8 C163_8 1_555 1_555
C164_8 C162_8 1_555 1_555
H158_8 C164_8 1_555 1_555
H159_8 C164_8 1_555 1_555
H160_8 C164_8 1_555 1_555
C165_8 C162_8 1_555 1_555
H161_8 C165_8 1_555 1_555
H162_8 C165_8 1_555 1_555
H163_8 C165_8 1_555 1_555
C166_8 C162_8 1_555 1_555
C167_8 C166_8 1_555 1_555
H164_8 C167_8 1_555 1_555
C168_8 C160_8 1_555 1_555
C169_8 C168_8 1_555 1_555
H165_8 C169_8 1_555 1_555
C170_8 C169_8 1_555 1_555
C171_8 C166_8 1_555 1_555
C172_8 N14_8 1_555 1_555
H166_8 C172_8 1_555 1_555
C173_8 N14_8 1_555 1_555
H167_8 C173_8 1_555 1_555
C174_8 C173_8 1_555 1_555
H168_8 C174_8 1_555 1_555
H169_8 C174_8 1_555 1_555
C175_8 C174_8 1_555 1_555
H170_8 C175_8 1_555 1_555
H171_8 C175_8 1_555 1_555
C176_8 C175_8 1_555 1_555
H172_8 C176_8 1_555 1_555
H173_8 C176_8 1_555 1_555
C177_8 C176_8 1_555 1_555
H174_8 C177_8 1_555 1_555
H175_8 C177_8 1_555 1_555
C178_8 N15_8 1_555 1_555
H176_8 C178_8 1_555 1_555
C179_8 N15_8 1_555 1_555
H177_8 C179_8 1_555 1_555
C180_8 C179_8 1_555 1_555
C181_8 C180_8 1_555 1_555
H178_8 C181_8 1_555 1_555
C182_8 C181_8 1_555 1_555
C183_8 C182_8 1_555 1_555
H179_8 C183_8 1_555 1_555
C184_8 C183_8 1_555 1_555
C185_8 O22_8 1_555 1_555
C186_8 C184_8 1_555 1_555
C187_8 C186_8 1_555 1_555
H180_8 C187_8 1_555 1_555
H181_8 C187_8 1_555 1_555
H182_8 C187_8 1_555 1_555
C188_8 C186_8 1_555 1_555
H183_8 C188_8 1_555 1_555
H184_8 C188_8 1_555 1_555
H185_8 C188_8 1_555 1_555
C189_8 C186_8 1_555 1_555
H186_8 C189_8 1_555 1_555
H187_8 C189_8 1_555 1_555
H188_8 C189_8 1_555 1_555
C190_8 H189_8 1_555 1_555
C191_8 C182_8 1_555 1_555
C192_8 C191_8 1_555 1_555
H190_8 C192_8 1_555 1_555
C193_8 C192_8 1_555 1_555
H191_8 C193_8 1_555 1_555
C194_8 N20_3 1_555 1_555
H192_8 C194_8 1_555 1_555
C195_8 C196_8 1_555 1_555
C196_8 H193_8 1_555 1_555
C197_8 C196_8 1_555 1_555
H194_8 C197_8 1_555 1_555
C198_8 C197_8 1_555 1_555
C199_8 C198_8 1_555 1_555
H195_8 C199_8 1_555 1_555
C200_8 C195_8 1_555 1_555
H196_8 C200_8 1_555 1_555
C201_8 O30_8 1_555 1_555
C202_8 C198_8 1_555 1_555
C203_8 C202_8 1_555 1_555
H197_8 C203_8 1_555 1_555
C204_8 C203_8 1_555 1_555
H198_8 C204_8 1_555 1_555
C205_8 C204_8 1_555 1_555
C206_8 C205_8 1_555 1_555
H199_8 C206_8 1_555 1_555
C207_8 C202_8 1_555 1_555
H200_8 C207_8 1_555 1_555
C208_8 O34_2 1_555 1_555
O18_8 Cd6_8 1_555 1_555
C115_8 C116_8 1_555 1_555
C116_8 C117_8 1_555 1_555
C135_8 C140_8 1_555 1_555
C139_8 C140_8 1_555 1_555
C142_8 C147_8 1_555 1_555
C146_8 C147_8 1_555 1_555
C152_8 C153_8 1_555 1_555
C155_8 C156_8 1_555 1_555
C160_8 C161_8 1_555 1_555
C167_8 C168_8 1_555 1_555
C170_8 C171_8 1_555 1_555
C170_8 C172_8 1_555 1_555
C173_8 C178_8 1_555 1_555
C177_8 C178_8 1_555 1_555
C180_8 C185_8 1_555 1_555
C184_8 C185_8 1_555 1_555
C190_8 C191_8 1_555 1_555
C193_8 C194_8 1_555 1_555
C195_8 C201_8 1_555 1_555
C199_8 C200_8 1_555 1_555
C205_8 C208_8 1_555 1_555
C206_8 C207_8 1_555 1_555
O19_8 C133_8 1_555 1_555
N18 C119_8 1_555 1_555
C119_8 H109_8 1_555 1_555
C120_8 C119_8 1_555 1_555
H110_8 C120_8 1_555 1_555
C121_8 C120_8 1_555 1_555
H111_8 C121_8 1_555 1_555
C122_8 C121_8 1_555 1_555
C123_8 N18 1_555 1_555
H112_8 C123_8 1_555 1_555
C124_8 C125_8 1_555 1_555
C125_8 H113_8 1_555 1_555
H114_8 C125_8 1_555 1_555
H115_8 C125_8 1_555 1_555
C126_8 C124_8 1_555 1_555
H116_8 C126_8 1_555 1_555
H117_8 C126_8 1_555 1_555
H118_8 C126_8 1_555 1_555
C127_8 C124_8 1_555 1_555
H119_8 C127_8 1_555 1_555
H120_8 C127_8 1_555 1_555
H121_8 C127_8 1_555 1_555
C128_8 C124_8 1_555 1_555
C129_8 C128_8 1_555 1_555
H122_8 C129_8 1_555 1_555
C130_8 C122_8 1_555 1_555
C131_8 C130_8 1_555 1_555
H123_8 C131_8 1_555 1_555
C132_8 C131_8 1_555 1_555
C133_8 C128_8 1_555 1_555
C149_8 C148_8 1_555 1_555
H138_8 C149_8 1_555 1_555
H139_8 C149_8 1_555 1_555
H140_8 C149_8 1_555 1_555
C150_8 C148_8 1_555 1_555
H142_8 C150_8 1_555 1_555
H143_8 C150_8 1_555 1_555
C151_8 C148_8 1_555 1_555
H144_8 C151_8 1_555 1_555
H145_8 C151_8 1_555 1_555
H146_8 C151_8 1_555 1_555
C122_8 C123_8 1_555 1_555
C129_8 C130_8 1_555 1_555
C132_8 C133_8 1_555 1_555

#END
