
###############################################################################
#
# This file contains modified crystal structure data generated from the
# MOF subset of the Cambridge Structural Database (CSD) v543 
# hosted by the Cambridge Crystallographic Data Centre (CCDC).
#
# This work is licensed under the Creative Commons
# Attribution-NonCommercial-ShareAlike 4.0 International License.
# To view a copy of this license, visit
# http://creativecommons.org/licenses/by-nc-sa/4.0/
# or send a letter to
# Creative Commons, PO Box 1866, Mountain View, CA 94042, USA.
#
# CIF created using the CSD Python API on 29 September 2022
# The structure has been converted into the P1 space group
# The structure has a 3D framework
# The original CSD entry XOKHIP is in the orthorhombic crystal system
# The framework has been calculated to contain at least 10.0% void space
# The void calculation uses a probe of radius 1.32A, grid spacing 0.4
# H atom positions have been added when not included in the experimental data
#
###############################################################################

data_XOKHIP
_chemical_formula_moiety         '(C160 H76 Br20 O87 Sm8 Zn8)n'
_symmetry_cell_setting           triclinic
_symmetry_space_group_name_H-M   'P 1'
_symmetry_Int_Tables_number      1
_space_group_name_Hall           'P 1'
loop_
_symmetry_equiv_pos_site_id
_symmetry_equiv_pos_as_xyz
1 x,y,z
_cell_length_a                   14.4811(11)
_cell_length_b                   12.2069(9)
_cell_length_c                   28.550(2)
_cell_angle_alpha                90
_cell_angle_beta                 90
_cell_angle_gamma                90
_cell_volume                     5046.76
loop_
_atom_site_label
_atom_site_type_symbol
_atom_site_fract_x
_atom_site_fract_y
_atom_site_fract_z
Sm2 Sm 0.50700(3) 0.38426(4) 0.394919(16)
Br5 Br 0.60881(9) 0.12382(10) 0.21612(4)
Zn2 Zn 0.81074(9) 0.33154(10) 0.45094(4)
O3 O 0.7544(5) 0.1973(6) 0.4264(3)
O4 O 0.6124(5) 0.2683(6) 0.4366(3)
O17 O 0.4380(5) 0.2162(6) 0.3793(2)
O18 O 0.3428(5) 0.0770(6) 0.3970(3)
O22 O 0.7381(6) 0.4296(7) 0.4921(3)
C2 C 0.6534(8) 0.0270(8) 0.3729(4)
H1 H 0.6983 0.0583 0.3526
C3 C 0.6274(8) 0.0819(8) 0.4135(4)
C4 C 0.5627(8) 0.0336(9) 0.4430(4)
H2 H 0.5441 0.0709 0.4706
C8 C 0.6663(8) 0.1925(8) 0.4250(4)
C33 C 0.4288(8) 0.0671(8) 0.3258(3)
C37 C 0.5199(7) 0.0589(10) 0.2570(4)
C38 C 0.4952(8) 0.1148(8) 0.2977(4)
H15 H 0.5229 0.1828 0.3057
C39 C 0.4023(8) 0.1237(8) 0.3699(4)
Sm7 Sm 0.00700(3) 0.11574(4) 0.394919(16)
Zn5 Zn 0.31074(9) 0.16846(10) 0.45094(4)
O23 O 0.4141(5) 0.5427(6) 0.4016(3)
O25 O 0.6019(5) 0.5800(7) 0.3647(3)
O26 O 0.6084(5) 0.5128(6) 0.4367(2)
O27 O 0.4310(5) 0.4226(6) 0.3218(2)
O28 O 0.6278(5) 0.3297(6) 0.3419(2)
O30 O 0.4403(5) 0.3670(6) 0.4694(2)
O31 O 0.8836(6) 0.2814(6) 0.5047(2)
O32 O 0.8428(5) 0.4230(6) 0.3970(3)
H18 H 0.7187 0.388886 0.520558
H19 H 0.7766 0.493341 0.501354
Sm1 Sm 0.52570(4) 0.61218(4) 0.292250(16)
Br1 Br 0.44253(11) 0.86732(12) 0.47529(5)
Br2 Br 0.20988(12) 0.64600(13) 0.54659(5)
Br3 Br 0.36670(9) 0.09343(9) 0.15405(4)
Br4 Br 0.47358(13) 0.33050(10) 0.09724(5)
Zn1 Zn 0.72301(9) 0.82531(9) 0.23395(4)
O1 O 0.5984(5) 0.7784(6) 0.3074(3)
O2 O 0.6942(5) 0.9138(5) 0.2896(3)
O5 O 0.4049(5) 0.6660(6) 0.3449(3)
O7 O 0.1019(5) 0.9200(7) 0.3647(3)
O8 O 0.1084(5) 0.9872(6) 0.4367(2)
O9 O 0.4271(5) 0.4804(6) 0.2489(3)
O11 O 0.1278(5) 0.1703(6) 0.3419(2)
O12 O 0.1168(5) 0.0424(6) 0.2847(3)
O14 O 0.6164(6) 0.7814(6) 0.0047(2)
O15 O 0.6465(5) 0.7788(6) 0.1806(3)
O16 O 0.5950(6) 0.6314(6) 0.2184(2)
O19 O 0.2859(5) 0.8059(6) 0.2581(3)
O20 O 0.4213(5) 0.7280(6) 0.2484(2)
O21 O 0.7961(6) 0.9282(6) 0.1942(2)
C1 C 0.6130(7) 0.9241(8) 0.3616(4)
C5 C 0.5250(8) 0.9324(8) 0.4329(4)
C6 C 0.5494(7) 0.8769(7) 0.3915(4)
H3 H 0.5225 0.8080 0.3842
C7 C 0.6376(7) 0.8663(8) 0.3166(3)
C9 C 0.3050(6) 0.6792(8) 0.4114(4)
C10 C 0.2531(6) 0.7693(8) 0.3927(4)
H4 H 0.2605 0.7930 0.3613
C11 C 0.1910(7) 0.8203(8) 0.4232(4)
C12 C 0.1777(8) 0.7859(10) 0.4690(4)
H5 H 0.1365 0.8234 0.4893
C13 C 0.2259(8) 0.6963(10) 0.4838(4)
C14 C 0.2883(8) 0.6422(9) 0.4558(3)
H6 H 0.3196 0.5793 0.4673
C15 C 0.1296(7) 0.9157(8) 0.4071(4)
C16 C 0.3818(7) 0.6240(9) 0.3839(3)
C17 C 0.3531(7) 0.3125(7) 0.2658(3)
C18 C 0.2843(7) 0.2654(8) 0.2930(4)
H7 H 0.2706 0.2964 0.3228
C19 C 0.2354(8) 0.1754(8) 0.2784(3)
C20 C 0.2576(8) 0.1237(8) 0.2350(4)
H8 H 0.2244 0.0614 0.2244
C21 C 0.3298(8) 0.1681(8) 0.2089(3)
C22 C 0.3724(7) 0.2660(8) 0.2226(3)
H9 H 0.4149 0.3008 0.2021
C23 C 0.4052(7) 0.4109(8) 0.2798(3)
C24 C 0.1546(8) 0.1270(8) 0.3041(4)
C25 C 0.5681(8) 0.6313(9) 0.0515(4)
C26 C 0.5923(8) 0.6845(8) 0.0939(4)
H10 H 0.6155 0.7573 0.0933
C27 C 0.5823(9) 0.6307(8) 0.1362(4)
C28 C 0.5448(8) 0.5247(9) 0.1379(4)
H11 H 0.5370 0.4870 0.1667
C29 C 0.5194(9) 0.4770(8) 0.0952(5)
C30 C 0.5327(8) 0.5275(9) 0.0528(4)
H12 H 0.5174 0.4906 0.0246
C31 C 0.5806(8) 0.6853(9) 0.0043(3)
C32 C 0.6085(7) 0.6825(9) 0.1828(4)
C34 C 0.3853(7) 0.9722(9) 0.3136(3)
H13 H 0.3355 0.9448 0.3318
C35 C 0.4158(7) 0.9154(8) 0.2735(4)
C36 C 0.4841(7) 0.9586(8) 0.2451(3)
H14 H 0.5055 0.9201 0.2183
C40 C 0.3712(7) 0.8082(8) 0.2585(3)
Sm4 Sm 0.02570(4) 0.88782(4) 0.292250(16)
Zn3 Zn 0.22301(9) 0.67469(9) 0.23395(4)
O29 O 0.6168(5) 0.4576(6) 0.2847(3)
O33 O 0.7859(5) 0.6941(6) 0.2581(3)
H16 H 0.852332 0.951503 0.211432
H17 H 0.814342 0.890792 0.164733
O13 O 0.5597(5) 0.6330(6) 0.9694(2)
Sm8 Sm 0.49300(3) 0.61574(4) 0.894919(16)
Zn4 Zn 0.68926(9) 0.83154(10) 0.95094(4)
Sm3 Sm 0.97430(4) 0.11218(4) 0.792250(16)
Sm1_2 Sm 0.47430(4) 0.38782(4) 0.792250(16)
Br1_2 Br 0.55747(11) 0.13268(12) 0.97529(5)
Br3_2 Br 0.63330(9) 0.90657(9) 0.65405(4)
Br4_2 Br 0.52642(13) 0.66950(10) 0.59724(5)
Zn1_2 Zn 0.27699(9) 0.17469(9) 0.73395(4)
O1_2 O 0.4016(5) 0.2216(6) 0.8074(3)
O2_2 O 0.3058(5) 0.0862(5) 0.7896(3)
O5_2 O 0.5951(5) 0.3340(6) 0.8449(3)
O6 O 0.5859(5) 0.4573(6) 0.9016(3)
O7_2 O 0.8981(5) 0.0800(7) 0.8647(3)
O8_2 O 0.8916(5) 0.0128(6) 0.9367(2)
O9_2 O 0.5729(5) 0.5196(6) 0.7489(3)
O10 O 0.5690(5) 0.5774(6) 0.8218(2)
O11_2 O 0.8722(5) 0.8297(6) 0.8419(2)
O12_2 O 0.8832(5) 0.9576(6) 0.7847(3)
O14_2 O 0.3836(6) 0.2186(6) 0.5047(2)
O15_2 O 0.3535(5) 0.2212(6) 0.6806(3)
O16_2 O 0.4050(6) 0.3686(6) 0.7184(2)
O19_2 O 0.7141(5) 0.1941(6) 0.7581(3)
O20_2 O 0.5787(5) 0.2720(6) 0.7484(2)
O21_2 O 0.2039(6) 0.0718(6) 0.6942(2)
C1_2 C 0.3870(7) 0.0759(8) 0.8616(4)
C5_2 C 0.4750(8) 0.0676(8) 0.9329(4)
C6_2 C 0.4506(7) 0.1231(7) 0.8915(4)
H3_2 H 0.4775 0.1920 0.8842
C7_2 C 0.3624(7) 0.1337(8) 0.8166(3)
C9_2 C 0.6950(6) 0.3208(8) 0.9114(4)
C10_2 C 0.7469(6) 0.2307(8) 0.8927(4)
H4_2 H 0.7395 0.2070 0.8613
C11_2 C 0.8090(7) 0.1797(8) 0.9232(4)
C12_2 C 0.8223(8) 0.2141(10) 0.9690(4)
H5_2 H 0.8635 0.1766 0.9893
C13_2 C 0.7741(8) 0.3037(10) 0.9838(4)
C14_2 C 0.7117(8) 0.3578(9) 0.9558(3)
H6_2 H 0.6804 0.4207 0.9673
C15_2 C 0.8704(7) 0.0843(8) 0.9071(4)
C16_2 C 0.6182(7) 0.3760(9) 0.8839(3)
C17_2 C 0.6469(7) 0.6875(7) 0.7658(3)
C18_2 C 0.7157(7) 0.7346(8) 0.7930(4)
H7_2 H 0.7294 0.7036 0.8228
C19_2 C 0.7646(8) 0.8246(8) 0.7784(3)
C20_2 C 0.7424(8) 0.8763(8) 0.7350(4)
H8_2 H 0.7756 0.9386 0.7244
C21_2 C 0.6702(8) 0.8319(8) 0.7089(3)
C22_2 C 0.6276(7) 0.7340(8) 0.7226(3)
H9_2 H 0.5851 0.6992 0.7021
C23_2 C 0.5948(7) 0.5891(8) 0.7798(3)
C24_2 C 0.8454(8) 0.8730(8) 0.8041(4)
C25_2 C 0.4319(8) 0.3687(9) 0.5515(4)
C26_2 C 0.4077(8) 0.3155(8) 0.5939(4)
H10_2 H 0.3845 0.2427 0.5933
C27_2 C 0.4177(9) 0.3693(8) 0.6362(4)
C28_2 C 0.4552(8) 0.4753(9) 0.6379(4)
H11_2 H 0.4630 0.5130 0.6667
C29_2 C 0.4806(9) 0.5230(8) 0.5952(5)
C30_2 C 0.4673(8) 0.4725(9) 0.5528(4)
H12_2 H 0.4826 0.5094 0.5246
C31_2 C 0.4194(8) 0.3147(9) 0.5043(3)
C32_2 C 0.3915(7) 0.3175(9) 0.6828(4)
C34_2 C 0.6147(7) 0.0278(9) 0.8136(3)
H13_2 H 0.6645 0.0552 0.8318
C35_2 C 0.5842(7) 0.0846(8) 0.7735(4)
C36_2 C 0.5159(7) 0.0414(8) 0.7451(3)
H14_2 H 0.4945 0.0799 0.7183
C40_2 C 0.6288(7) 0.1918(8) 0.7585(3)
Sm6 Sm 0.99300(3) 0.88426(4) 0.894919(16)
Zn3_2 Zn 0.77699(9) 0.32531(9) 0.73395(4)
O24 O 0.3981(5) 0.4200(7) 0.8647(3)
O29_2 O 0.3832(5) 0.5424(6) 0.7847(3)
O33_2 O 0.2141(5) 0.3059(6) 0.7581(3)
H16_2 H 0.147668 0.0484969 0.711432
H17_2 H 0.185658 0.109208 0.664733
O31_2 O 0.1164(6) 0.7186(6) 0.0047(2)
H18_2 H 0.2813 0.611114 0.020558
H19_2 H 0.2234 0.506659 0.00135369
Br5_2 Br 0.39119(9) 0.87618(10) 0.71612(4)
Zn2_2 Zn 0.18926(9) 0.66846(10) 0.95094(4)
O3_2 O 0.2456(5) 0.8027(6) 0.9264(3)
O4_2 O 0.3876(5) 0.7317(6) 0.9366(3)
O17_2 O 0.5620(5) 0.7838(6) 0.8793(2)
O18_2 O 0.6572(5) 0.9230(6) 0.8970(3)
O22_2 O 0.2619(6) 0.5704(7) 0.9921(3)
C2_2 C 0.3466(8) 0.9730(8) 0.8729(4)
H1_2 H 0.3017 0.9417 0.8526
C3_2 C 0.3726(8) 0.9181(8) 0.9135(4)
C4_2 C 0.4373(8) 0.9664(9) 0.9430(4)
H2_2 H 0.4559 0.9291 0.9706
C8_2 C 0.3337(8) 0.8075(8) 0.9250(4)
C33_2 C 0.5712(8) 0.9329(8) 0.8258(3)
C37_2 C 0.4801(7) 0.9411(10) 0.7570(4)
C38_2 C 0.5048(8) 0.8852(8) 0.7977(4)
H15_2 H 0.4771 0.8172 0.8057
C39_2 C 0.5977(8) 0.8763(8) 0.8699(4)
O26_2 O 0.3916(5) 0.4872(6) 0.9367(2)
O28_2 O 0.3722(5) 0.6703(6) 0.8419(2)
O32_2 O 0.1572(5) 0.5770(6) 0.8970(3)
O23_2 O 0.0859(5) 0.0427(6) 0.9016(3)
Br1_3 Br 0.05747(11) 0.36732(12) 0.97529(5)
O5_3 O 0.0951(5) 0.1660(6) 0.8449(3)
O17_3 O 0.0620(5) 0.7162(6) 0.8793(2)
O20_3 O 0.0787(5) 0.2280(6) 0.7484(2)
C9_3 C 0.1950(6) 0.1792(8) 0.9114(4)
C10_3 C 0.2469(6) 0.2693(8) 0.8927(4)
H4_3 H 0.2395 0.2930 0.8613
C11_3 C 0.3090(7) 0.3203(8) 0.9232(4)
C12_3 C 0.3223(8) 0.2859(10) 0.9690(4)
H5_3 H 0.3635 0.3234 0.9893
C13_3 C 0.2741(8) 0.1963(10) 0.9838(4)
C14_3 C 0.2117(8) 0.1422(9) 0.9558(3)
H6_3 H 0.1804 0.0793 0.9673
C15_3 C 0.3704(7) 0.4157(8) 0.9071(4)
C16_3 C 0.1182(7) 0.1240(9) 0.8839(3)
C33_3 C 0.0712(8) 0.5671(8) 0.8258(3)
C34_3 C 0.1147(7) 0.4722(9) 0.8136(3)
H13_3 H 0.1645 0.4448 0.8318
C35_3 C 0.0842(7) 0.4154(8) 0.7735(4)
C36_3 C 0.0159(7) 0.4586(8) 0.7451(3)
C38_3 C 0.0048(8) 0.6148(8) 0.7977(4)
C39_3 C 0.0977(8) 0.6237(8) 0.8699(4)
C40_3 C 0.1288(7) 0.3082(8) 0.7585(3)
O27_2 O 0.0690(5) 0.9226(6) 0.8218(2)
O30_2 O 0.0597(5) 0.8670(6) 0.9694(2)
Br3_3 Br 0.13330(9) 0.59343(9) 0.65405(4)
Br4_3 Br 0.02642(13) 0.83050(10) 0.59724(5)
O9_3 O 0.0729(5) 0.9804(6) 0.7489(3)
C17_3 C 0.1469(7) 0.8125(7) 0.7658(3)
C18_3 C 0.2157(7) 0.7654(8) 0.7930(4)
H7_3 H 0.2294 0.7964 0.8228
C19_3 C 0.2646(8) 0.6754(8) 0.7784(3)
C20_3 C 0.2424(8) 0.6237(8) 0.7350(4)
H8_3 H 0.2756 0.5614 0.7244
C21_3 C 0.1702(8) 0.6681(8) 0.7089(3)
C22_3 C 0.1276(7) 0.7660(8) 0.7226(3)
H9_3 H 0.0851 0.8008 0.7021
C23_3 C 0.0948(7) 0.9109(8) 0.7798(3)
C24_3 C 0.3454(8) 0.6270(8) 0.8041(4)
H18_3 H 0.7813 0.888886 0.020558
H19_3 H 0.7234 0.993341 0.00135369
Br5_3 Br 0.89119(9) 0.62382(10) 0.71612(4)
O1_3 O 0.9016(5) 0.2784(6) 0.8074(3)
O2_3 O 0.8058(5) 0.4138(5) 0.7896(3)
O3_3 O 0.7456(5) 0.6973(6) 0.9264(3)
O4_3 O 0.8876(5) 0.7683(6) 0.9366(3)
O13_2 O 0.9403(5) 0.1330(6) 0.4694(2)
O15_3 O 0.8535(5) 0.2788(6) 0.6806(3)
O16_3 O 0.9050(6) 0.1314(6) 0.7184(2)
O21_3 O 0.7039(6) 0.4282(6) 0.6942(2)
O22_3 O 0.7619(6) 0.9296(7) 0.9921(3)
C1_3 C 0.8870(7) 0.4241(8) 0.8616(4)
C2_3 C 0.8466(8) 0.5270(8) 0.8729(4)
H1_3 H 0.8017 0.5583 0.8526
C3_3 C 0.8726(8) 0.5819(8) 0.9135(4)
C4_3 C 0.9373(8) 0.5336(9) 0.9430(4)
H2_3 H 0.9559 0.5709 0.9706
C5_3 C 0.9750(8) 0.4324(8) 0.9329(4)
C6_3 C 0.9506(7) 0.3769(7) 0.8915(4)
H3_3 H 0.9775 0.3080 0.8842
C7_3 C 0.8624(7) 0.3663(8) 0.8166(3)
C8_3 C 0.8337(8) 0.6925(8) 0.9250(4)
C25_3 C 0.9319(8) 0.1313(9) 0.5515(4)
C26_3 C 0.9077(8) 0.1845(8) 0.5939(4)
H10_3 H 0.8845 0.2573 0.5933
C27_3 C 0.9177(9) 0.1307(8) 0.6362(4)
C28_3 C 0.9552(8) 0.0247(9) 0.6379(4)
C30_3 C 0.9673(8) 0.0275(9) 0.5528(4)
C31_3 C 0.9194(8) 0.1853(9) 0.5043(3)
C32_3 C 0.8915(7) 0.1825(9) 0.6828(4)
H14_3 H 0.9945 0.4201 0.7183
C37_3 C 0.9801(7) 0.5589(10) 0.7570(4)
H15_3 H 0.9771 0.6828 0.8057
H16_3 H 0.647668 0.451503 0.711432
H17_3 H 0.685658 0.390792 0.664733
H11_3 H 0.9630 0.9870 0.6667
C29_3 C 0.9806(9) 0.9770(8) 0.5952(5)
H12_3 H 0.9826 0.9906 0.5246
H11_4 H 0.0370 0.0130 0.1667
C29_4 C 0.0194(9) 0.0230(8) 0.0952(5)
H12_4 H 0.0174 0.0094 0.0246
Br5_4 Br 0.10881(9) 0.37618(10) 0.21612(4)
O1_4 O 0.0984(5) 0.7216(6) 0.3074(3)
O2_4 O 0.1942(5) 0.5862(5) 0.2896(3)
O3_4 O 0.2544(5) 0.3027(6) 0.4264(3)
O4_4 O 0.1124(5) 0.2317(6) 0.4366(3)
O15_4 O 0.1465(5) 0.7212(6) 0.1806(3)
O16_4 O 0.0950(6) 0.8686(6) 0.2184(2)
O21_4 O 0.2961(6) 0.5718(6) 0.1942(2)
O22_4 O 0.2381(6) 0.0704(7) 0.4921(3)
C1_4 C 0.1130(7) 0.5759(8) 0.3616(4)
C2_4 C 0.1534(8) 0.4730(8) 0.3729(4)
H1_4 H 0.1983 0.4417 0.3526
C3_4 C 0.1274(8) 0.4181(8) 0.4135(4)
C4_4 C 0.0627(8) 0.4664(9) 0.4430(4)
H2_4 H 0.0441 0.4291 0.4706
C5_4 C 0.0250(8) 0.5676(8) 0.4329(4)
C6_4 C 0.0494(7) 0.6231(7) 0.3915(4)
H3_4 H 0.0225 0.6920 0.3842
C7_4 C 0.1376(7) 0.6337(8) 0.3166(3)
C8_4 C 0.1663(8) 0.3075(8) 0.4250(4)
C25_4 C 0.0681(8) 0.8687(9) 0.0515(4)
C26_4 C 0.0923(8) 0.8155(8) 0.0939(4)
H10_4 H 0.1155 0.7427 0.0933
C27_4 C 0.0823(9) 0.8693(8) 0.1362(4)
C28_4 C 0.0448(8) 0.9753(9) 0.1379(4)
C30_4 C 0.0327(8) 0.9725(9) 0.0528(4)
C31_4 C 0.0806(8) 0.8147(9) 0.0043(3)
C32_4 C 0.1085(7) 0.8175(9) 0.1828(4)
H14_4 H 0.0055 0.5799 0.2183
C37_4 C 0.0199(7) 0.4411(10) 0.2570(4)
H15_4 H 0.0229 0.3172 0.3057
H16_4 H 0.352332 0.548497 0.211432
H17_4 H 0.314342 0.609208 0.164733
H18_4 H 0.2187 0.111114 0.520558
H19_4 H 0.2766 0.00665861 0.501354
Br3_4 Br 0.86670(9) 0.40657(9) 0.15405(4)
Br4_4 Br 0.97358(13) 0.16950(10) 0.09724(5)
O9_4 O 0.9271(5) 0.0196(6) 0.2489(3)
O10_2 O 0.9310(5) 0.0774(6) 0.3218(2)
C17_4 C 0.8531(7) 0.1875(7) 0.2658(3)
C18_4 C 0.7843(7) 0.2346(8) 0.2930(4)
H7_4 H 0.7706 0.2036 0.3228
C19_4 C 0.7354(8) 0.3246(8) 0.2784(3)
C20_4 C 0.7576(8) 0.3763(8) 0.2350(4)
H8_4 H 0.7244 0.4386 0.2244
C21_4 C 0.8298(8) 0.3319(8) 0.2089(3)
C22_4 C 0.8724(7) 0.2340(8) 0.2226(3)
H9_4 H 0.9149 0.1992 0.2021
C23_4 C 0.9052(7) 0.0891(8) 0.2798(3)
C24_4 C 0.6546(8) 0.3730(8) 0.3041(4)
Br1_4 Br 0.94253(11) 0.63268(12) 0.47529(5)
Br2_2 Br 0.70988(12) 0.85400(13) 0.54659(5)
O5_4 O 0.9049(5) 0.8340(6) 0.3449(3)
O6_2 O 0.9141(5) 0.9573(6) 0.4016(3)
O17_4 O 0.9380(5) 0.2838(6) 0.3793(2)
O20_4 O 0.9213(5) 0.7720(6) 0.2484(2)
C9_4 C 0.8050(6) 0.8208(8) 0.4114(4)
C10_4 C 0.7531(6) 0.7307(8) 0.3927(4)
H4_4 H 0.7605 0.7070 0.3613
C11_4 C 0.6910(7) 0.6797(8) 0.4232(4)
C12_4 C 0.6777(8) 0.7141(10) 0.4690(4)
H5_4 H 0.6365 0.6766 0.4893
C13_4 C 0.7259(8) 0.8037(10) 0.4838(4)
C14_4 C 0.7883(8) 0.8578(9) 0.4558(3)
H6_4 H 0.8196 0.9207 0.4673
C15_4 C 0.6296(7) 0.5843(8) 0.4071(4)
C16_4 C 0.8818(7) 0.8760(9) 0.3839(3)
C33_4 C 0.9288(8) 0.4329(8) 0.3258(3)
C34_4 C 0.8853(7) 0.5278(9) 0.3136(3)
H13_4 H 0.8355 0.5552 0.3318
C35_4 C 0.9158(7) 0.5846(8) 0.2735(4)
C36_4 C 0.9841(7) 0.5414(8) 0.2451(3)
C38_4 C 0.9952(8) 0.3852(8) 0.2977(4)
C39_4 C 0.9023(8) 0.3763(8) 0.3699(4)
C40_4 C 0.8712(7) 0.6918(8) 0.2585(3)
Br2_3 Br 0.79012(12) 0.35400(13) 0.04659(5)
Br2_4 Br 0.29012(12) 0.14600(13) 0.04659(5)
loop_
_geom_bond_atom_site_label_1
_geom_bond_atom_site_label_2
_geom_bond_site_symmetry_1
_geom_bond_site_symmetry_2
Sm2 O4 1_555 1_555
Br5 C37 1_555 1_555
Zn2 O3 1_555 1_555
O3 C8 1_555 1_555
O4 C8 1_555 1_555
O17 Sm2 1_555 1_555
O18 C39 1_555 1_555
O22 Zn2 1_555 1_555
C2 H1 1_555 1_555
C3 C2 1_555 1_555
C4 C3 1_555 1_555
H2 C4 1_555 1_555
C8 C3 1_555 1_555
C38 C33 1_555 1_555
H15 C38 1_555 1_555
C39 O17 1_555 1_555
Zn5 O18 1_555 1_555
O23 Sm2 1_555 1_555
O25 Sm2 1_555 1_555
O26 Sm2 1_555 1_555
O27 Sm2 1_555 1_555
O28 Sm2 1_555 1_555
O30 Sm2 1_555 1_555
O31 Zn2 1_555 1_555
O32 Zn2 1_555 1_555
C33 C39 1_555 1_555
C37 C38 1_555 1_555
O22 H18 1_555 1_555
O22 H19 1_555 1_555
Sm1 O1 1_555 1_555
Br1 C5 1_555 1_555
Br2 C13 1_555 1_555
Br3 C21 1_555 1_555
Br4 C29 1_555 1_555
Zn1 O2 1_555 1_555
O1 C7 1_555 1_555
O2 C7 1_555 1_555
O5 Sm1 1_555 1_555
O23 C16 1_555 1_555
O7 C15 1_555 1_555
O8 C15 1_555 1_555
O9 Sm1 1_555 1_555
O27 Sm1 1_555 1_555
O11 C24 1_555 1_555
O12 C24 1_555 1_555
O14 C31 1_555 1_555
O15 Zn1 1_555 1_555
O16 Sm1 1_555 1_555
O19 C40 1_555 1_555
O20 Sm1 1_555 1_555
O21 Zn1 1_555 1_555
C6 C1 1_555 1_555
H3 C6 1_555 1_555
C7 C1 1_555 1_555
C9 C10 1_555 1_555
C10 H4 1_555 1_555
C11 C10 1_555 1_555
C12 C11 1_555 1_555
H5 C12 1_555 1_555
C13 C12 1_555 1_555
C14 C9 1_555 1_555
H6 C14 1_555 1_555
C15 C11 1_555 1_555
C16 O5 1_555 1_555
C17 C18 1_555 1_555
C18 H7 1_555 1_555
C19 C18 1_555 1_555
C20 C19 1_555 1_555
H8 C20 1_555 1_555
C21 C20 1_555 1_555
C22 C17 1_555 1_555
H9 C22 1_555 1_555
C23 O9 1_555 1_555
C24 C19 1_555 1_555
C25 C26 1_555 1_555
C26 H10 1_555 1_555
C27 C26 1_555 1_555
C28 C27 1_555 1_555
H11 C28 1_555 1_555
C29 C28 1_555 1_555
C30 C25 1_555 1_555
H12 C30 1_555 1_555
C31 C25 1_555 1_555
C32 O15 1_555 1_555
C34 H13 1_555 1_555
C35 C34 1_555 1_555
C36 C35 1_555 1_555
H14 C36 1_555 1_555
C40 O20 1_555 1_555
Sm4 O7 1_555 1_555
Sm7 O11 1_555 1_555
Zn3 O19 1_555 1_555
O25 Sm1 1_555 1_555
O29 Sm1 1_555 1_555
O33 Zn1 1_555 1_555
O27 C23 1_555 1_555
O16 C32 1_555 1_555
C5 C6 1_555 1_555
C9 C16 1_555 1_555
C13 C14 1_555 1_555
C17 C23 1_555 1_555
C21 C22 1_555 1_555
C27 C32 1_555 1_555
C29 C30 1_555 1_555
C35 C40 1_555 1_555
O21 H16 1_555 1_555
O21 H17 1_555 1_555
Sm8 O13 1_555 1_555
Sm1_2 O1_2 1_555 1_555
Br1_2 C5_2 1_555 1_555
Br3_2 C21_2 1_555 1_555
Br4_2 C29_2 1_555 1_555
Zn1_2 O2_2 1_555 1_555
O1_2 C7_2 1_555 1_555
O2_2 C7_2 1_555 1_555
O5_2 Sm1_2 1_555 1_555
O6 C16_2 1_555 1_555
O7_2 C15_2 1_555 1_555
O8_2 C15_2 1_555 1_555
O9_2 Sm1_2 1_555 1_555
O10 Sm1_2 1_555 1_555
O11_2 C24_2 1_555 1_555
O12_2 C24_2 1_555 1_555
O30 C31_2 1_555 1_555
O14_2 C31_2 1_555 1_555
O15_2 Zn1_2 1_555 1_555
O16_2 Sm1_2 1_555 1_555
O19_2 C40_2 1_555 1_555
O20_2 Sm1_2 1_555 1_555
O21_2 Zn1_2 1_555 1_555
C6_2 C1_2 1_555 1_555
H3_2 C6_2 1_555 1_555
C7_2 C1_2 1_555 1_555
C9_2 C10_2 1_555 1_555
C10_2 H4_2 1_555 1_555
C11_2 C10_2 1_555 1_555
C12_2 C11_2 1_555 1_555
H5_2 C12_2 1_555 1_555
C13_2 C12_2 1_555 1_555
C14_2 C9_2 1_555 1_555
H6_2 C14_2 1_555 1_555
C15_2 C11_2 1_555 1_555
C16_2 O5_2 1_555 1_555
C17_2 C18_2 1_555 1_555
C18_2 H7_2 1_555 1_555
C19_2 C18_2 1_555 1_555
C20_2 C19_2 1_555 1_555
H8_2 C20_2 1_555 1_555
C21_2 C20_2 1_555 1_555
C22_2 C17_2 1_555 1_555
H9_2 C22_2 1_555 1_555
C23_2 O9_2 1_555 1_555
C24_2 C19_2 1_555 1_555
C25_2 C26_2 1_555 1_555
C26_2 H10_2 1_555 1_555
C27_2 C26_2 1_555 1_555
C28_2 C27_2 1_555 1_555
H11_2 C28_2 1_555 1_555
C29_2 C28_2 1_555 1_555
C30_2 C25_2 1_555 1_555
H12_2 C30_2 1_555 1_555
C31_2 C25_2 1_555 1_555
C32_2 O15_2 1_555 1_555
C34_2 H13_2 1_555 1_555
C35_2 C34_2 1_555 1_555
C36_2 C35_2 1_555 1_555
H14_2 C36_2 1_555 1_555
C40_2 O20_2 1_555 1_555
Sm3 O7_2 1_555 1_555
Sm8 O6 1_555 1_555
Sm6 O11_2 1_555 1_555
Zn3_2 O19_2 1_555 1_555
Zn5 O14_2 1_555 1_555
O24 Sm1_2 1_555 1_555
O29_2 Sm1_2 1_555 1_555
O33_2 Zn1_2 1_555 1_555
O10 C23_2 1_555 1_555
O10 Sm8 1_555 1_555
O16_2 C32_2 1_555 1_555
C5_2 C6_2 1_555 1_555
C9_2 C16_2 1_555 1_555
C13_2 C14_2 1_555 1_555
C17_2 C23_2 1_555 1_555
C21_2 C22_2 1_555 1_555
C27_2 C32_2 1_555 1_555
C29_2 C30_2 1_555 1_555
C35_2 C40_2 1_555 1_555
Sm8 O24 1_555 1_555
O21_2 H16_2 1_555 1_555
O21_2 H17_2 1_555 1_555
Sm8 O4_2 1_555 1_555
Br5_2 C37_2 1_555 1_555
Zn2_2 O3_2 1_555 1_555
O3_2 C8_2 1_555 1_555
O4_2 C8_2 1_555 1_555
O17_2 Sm8 1_555 1_555
O18_2 C39_2 1_555 1_555
O22_2 Zn2_2 1_555 1_555
C2_2 H1_2 1_555 1_555
C3_2 C2_2 1_555 1_555
C4_2 C3_2 1_555 1_555
H2_2 C4_2 1_555 1_555
C8_2 C3_2 1_555 1_555
C38_2 C33_2 1_555 1_555
H15_2 C38_2 1_555 1_555
C39_2 O17_2 1_555 1_555
Zn4 O18_2 1_555 1_555
O26_2 Sm8 1_555 1_555
O28_2 Sm8 1_555 1_555
O32_2 Zn2_2 1_555 1_555
C33_2 C39_2 1_555 1_555
C37_2 C38_2 1_555 1_555
O23_2 C16_3 1_555 1_555
O24 C15_3 1_555 1_555
O26_2 C15_3 1_555 1_555
O32_2 C39_3 1_555 1_555
O33_2 C40_3 1_555 1_555
C9_3 C10_3 1_555 1_555
C10_3 H4_3 1_555 1_555
C11_3 C10_3 1_555 1_555
C12_3 C11_3 1_555 1_555
H5_3 C12_3 1_555 1_555
C13_3 C12_3 1_555 1_555
C14_3 C9_3 1_555 1_555
H6_3 C14_3 1_555 1_555
C15_3 C11_3 1_555 1_555
C16_3 O5_3 1_555 1_555
C33_3 C34_3 1_555 1_555
C34_3 H13_3 1_555 1_555
C35_3 C34_3 1_555 1_555
C36_3 C35_3 1_555 1_555
C38_3 C33_3 1_555 1_555
C39_3 O17_3 1_555 1_555
C40_3 O20_3 1_555 1_555
C9_3 C16_3 1_555 1_555
C13_3 C14_3 1_555 1_555
C33_3 C39_3 1_555 1_555
C35_3 C40_3 1_555 1_555
Br3_3 C21_3 1_555 1_555
O28_2 C24_3 1_555 1_555
O29_2 C24_3 1_555 1_555
C17_3 C18_3 1_555 1_555
C18_3 H7_3 1_555 1_555
C19_3 C18_3 1_555 1_555
C20_3 C19_3 1_555 1_555
H8_3 C20_3 1_555 1_555
C21_3 C20_3 1_555 1_555
C22_3 C17_3 1_555 1_555
H9_3 C22_3 1_555 1_555
C23_3 O9_3 1_555 1_555
C24_3 C19_3 1_555 1_555
O27_2 C23_3 1_555 1_555
C17_3 C23_3 1_555 1_555
C21_3 C22_3 1_555 1_555
Sm3 O1_3 1_555 1_555
Sm6 O4_3 1_555 1_555
Br5_3 C37_3 1_555 1_555
Zn3_2 O2_3 1_555 1_555
Zn4 O3_3 1_555 1_555
O1_3 C7_3 1_555 1_555
O2_3 C7_3 1_555 1_555
O3_3 C8_3 1_555 1_555
O4_3 C8_3 1_555 1_555
O13_2 C31_3 1_555 1_555
O31 C31_3 1_555 1_555
O15_3 Zn3_2 1_555 1_555
O16_3 Sm3 1_555 1_555
O21_3 Zn3_2 1_555 1_555
O22_3 Zn4 1_555 1_555
C1_3 C2_3 1_555 1_555
C2_3 H1_3 1_555 1_555
C3_3 C2_3 1_555 1_555
C4_3 C3_3 1_555 1_555
H2_3 C4_3 1_555 1_555
C5_3 C4_3 1_555 1_555
C6_3 C1_3 1_555 1_555
H3_3 C6_3 1_555 1_555
C7_3 C1_3 1_555 1_555
C8_3 C3_3 1_555 1_555
C25_3 C26_3 1_555 1_555
C26_3 H10_3 1_555 1_555
C27_3 C26_3 1_555 1_555
C28_3 C27_3 1_555 1_555
C30_3 C25_3 1_555 1_555
C31_3 C25_3 1_555 1_555
C32_3 O15_3 1_555 1_555
O16_3 C32_3 1_555 1_555
C5_3 C6_3 1_555 1_555
C27_3 C32_3 1_555 1_555
O21_3 H16_3 1_555 1_555
O21_3 H17_3 1_555 1_555
Sm4 O1_4 1_555 1_555
Sm7 O4_4 1_555 1_555
Br5_4 C37_4 1_555 1_555
Zn3 O2_4 1_555 1_555
Zn5 O3_4 1_555 1_555
O1_4 C7_4 1_555 1_555
O2_4 C7_4 1_555 1_555
O3_4 C8_4 1_555 1_555
O4_4 C8_4 1_555 1_555
O31_2 C31_4 1_555 1_555
O15_4 Zn3 1_555 1_555
O16_4 Sm4 1_555 1_555
O21_4 Zn3 1_555 1_555
O22_4 Zn5 1_555 1_555
C1_4 C2_4 1_555 1_555
C2_4 H1_4 1_555 1_555
C3_4 C2_4 1_555 1_555
C4_4 C3_4 1_555 1_555
H2_4 C4_4 1_555 1_555
C5_4 C4_4 1_555 1_555
C6_4 C1_4 1_555 1_555
H3_4 C6_4 1_555 1_555
C7_4 C1_4 1_555 1_555
C8_4 C3_4 1_555 1_555
C25_4 C26_4 1_555 1_555
C26_4 H10_4 1_555 1_555
C27_4 C26_4 1_555 1_555
C28_4 C27_4 1_555 1_555
C30_4 C25_4 1_555 1_555
C31_4 C25_4 1_555 1_555
C32_4 O15_4 1_555 1_555
O16_4 C32_4 1_555 1_555
C5_4 C6_4 1_555 1_555
C27_4 C32_4 1_555 1_555
O21_4 H16_4 1_555 1_555
O21_4 H17_4 1_555 1_555
O22_4 H18_4 1_555 1_555
O22_4 H19_4 1_555 1_555
Br3_4 C21_4 1_555 1_555
O28 C24_4 1_555 1_555
O29 C24_4 1_555 1_555
C17_4 C18_4 1_555 1_555
C18_4 H7_4 1_555 1_555
C19_4 C18_4 1_555 1_555
C20_4 C19_4 1_555 1_555
H8_4 C20_4 1_555 1_555
C21_4 C20_4 1_555 1_555
C22_4 C17_4 1_555 1_555
H9_4 C22_4 1_555 1_555
C23_4 O9_4 1_555 1_555
C24_4 C19_4 1_555 1_555
O10_2 C23_4 1_555 1_555
C17_4 C23_4 1_555 1_555
C21_4 C22_4 1_555 1_555
Br2_2 C13_4 1_555 1_555
O6_2 C16_4 1_555 1_555
O25 C15_4 1_555 1_555
O26 C15_4 1_555 1_555
O32 C39_4 1_555 1_555
O33 C40_4 1_555 1_555
C9_4 C10_4 1_555 1_555
C10_4 H4_4 1_555 1_555
C11_4 C10_4 1_555 1_555
C12_4 C11_4 1_555 1_555
H5_4 C12_4 1_555 1_555
C13_4 C12_4 1_555 1_555
C14_4 C9_4 1_555 1_555
H6_4 C14_4 1_555 1_555
C15_4 C11_4 1_555 1_555
C16_4 O5_4 1_555 1_555
C33_4 C34_4 1_555 1_555
C34_4 H13_4 1_555 1_555
C35_4 C34_4 1_555 1_555
C36_4 C35_4 1_555 1_555
C38_4 C33_4 1_555 1_555
C39_4 O17_4 1_555 1_555
C40_4 O20_4 1_555 1_555
C9_4 C16_4 1_555 1_555
C13_4 C14_4 1_555 1_555
C33_4 C39_4 1_555 1_555
C35_4 C40_4 1_555 1_555

#END
