
###############################################################################
#
# This file contains modified crystal structure data generated from the
# MOF subset of the Cambridge Structural Database (CSD) v543 
# hosted by the Cambridge Crystallographic Data Centre (CCDC).
#
# This work is licensed under the Creative Commons
# Attribution-NonCommercial-ShareAlike 4.0 International License.
# To view a copy of this license, visit
# http://creativecommons.org/licenses/by-nc-sa/4.0/
# or send a letter to
# Creative Commons, PO Box 1866, Mountain View, CA 94042, USA.
#
# CIF created using the CSD Python API on 29 September 2022
# The structure has been converted into the P1 space group
# The structure has a 3D framework
# The original CSD entry XOKHAH is in the orthorhombic crystal system
# The framework has been calculated to contain at least 10.0% void space
# The void calculation uses a probe of radius 1.32A, grid spacing 0.4
# H atom positions have been added when not included in the experimental data
#
###############################################################################

data_XOKHAH
_chemical_formula_moiety         '(C192 H108 N16 O69 Zn14)n'
_symmetry_cell_setting           triclinic
_symmetry_space_group_name_H-M   'P 1'
_symmetry_Int_Tables_number      1
_space_group_name_Hall           'P 1'
loop_
_symmetry_equiv_pos_site_id
_symmetry_equiv_pos_as_xyz
1 x,y,z
_cell_length_a                   18.777(9)
_cell_length_b                   13.657(6)
_cell_length_c                   19.983(9)
_cell_angle_alpha                90
_cell_angle_beta                 90
_cell_angle_gamma                90
_cell_volume                     5124.39
loop_
_atom_site_label
_atom_site_type_symbol
_atom_site_fract_x
_atom_site_fract_y
_atom_site_fract_z
O18 O 0.0512(3) 0.2273(4) 0.0838(3)
C33 C 0.0075(4) 0.2041(5) 0.0385(4)
C34 C 0.0033(4) 0.0973(5) 0.0196(4)
C35 C 0.0356(4) 0.0248(6) 0.0576(4)
H18 H 0.0607 0.0415 0.0961
Zn6 Zn 0.06072(4) 0.36632(6) 0.10727(4)
N1 N 0.1512(3) 0.6131(4) 0.0571(3)
N2 N 0.0232(3) 0.6249(4) 0.1141(3)
O7 O 0.2646(4) 0.6578(5) 0.2659(3)
O8 O 0.1333(4) 0.6571(6) 0.3279(3)
O9 O 0.0537(2) 0.4409(4) 0.0235(2)
C12 C 0.0308(4) 0.9296(6) 0.0387(4)
H6 H 0.0510 0.8815 0.0656
C13 C 0.2129(4) 0.6099(6) 0.0257(5)
C14 C 0.2788(4) 0.6204(7) 0.0599(5)
H8 H 0.3218 0.6183 0.0370
C15 C 0.2768(5) 0.6335(6) 0.1274(5)
H9 H 0.3190 0.6398 0.1514
C16 C 0.2128(4) 0.6376(6) 0.1598(4)
C17 C 0.2122(5) 0.6490(6) 0.2323(4)
C18 C 0.1396(6) 0.6516(7) 0.2661(4)
C19 C 0.0737(5) 0.6486(6) 0.2229(4)
C20 C 0.0058(5) 0.6614(7) 0.2498(4)
H10 H 0.0002 0.6724 0.2955
C23 C 0.0808(4) 0.6332(5) 0.1560(4)
C24 C 0.1515(3) 0.6264(5) 0.1229(3)
H13 H 0.090(5) 0.434(8) 0.005(5)
Zn2 Zn 0.04892(4) 0.59348(6) 0.00970(4)
O1 O 0.3666(3) 0.6102(4) 0.6728(3)
O2 O 0.2828(3) 0.6280(5) 0.5960(3)
O3 O 0.1018(2) 0.5755(4) 0.9172(2)
O4 O 0.0218(3) 0.6059(4) 0.8363(2)
O5 O 0.0337(3) 0.7399(4) 0.9913(3)
C1 C 0.2459(4) 0.6045(5) 0.7069(4)
C2 C 0.2643(4) 0.5935(6) 0.7727(4)
H1 H 0.3120 0.5897 0.7852
C3 C 0.2109(4) 0.5881(6) 0.8207(4)
H2 H 0.2240 0.5811 0.8653
C4 C 0.1406(4) 0.5927(6) 0.8056(4)
C5 C 0.1225(4) 0.6013(6) 0.7379(3)
H3 H 0.0748 0.6024 0.7255
C6 C 0.1744(4) 0.6079(6) 0.6896(4)
H4 H 0.1614 0.6148 0.6450
C7 C 0.3021(5) 0.6146(5) 0.6527(4)
C8 C 0.0840(4) 0.5906(5) 0.8584(4)
H7 H 0.2133 0.6006 0.9796
Zn5 Zn 0.43928(4) 0.63368(6) 0.60727(4)
O16 O 0.9663(3) 0.2601(4) 0.0087(3)
C36 C 0.9692(4) 0.0704(6) 0.9613(4)
H19 H 0.9490 0.1185 0.9344
Zn9 Zn 0.95108(4) 0.40652(6) 0.99030(4)
O6 O 0.9488(3) 0.7727(4) 0.9162(3)
C9 C 0.9925(4) 0.7959(5) 0.9615(4)
C10 C 0.9967(4) 0.9027(5) 0.9804(4)
C11 C 0.9644(4) 0.9752(6) 0.9424(4)
H5 H 0.9393 0.9585 0.9039
Zn1 Zn 0.93928(4) 0.63368(6) 0.89273(4)
N3 N 0.6512(3) 0.6131(4) 0.4429(3)
N4 N 0.5232(3) 0.6249(4) 0.3859(3)
O10 O 0.8666(3) 0.6102(4) 0.8272(3)
O12 O 0.7828(3) 0.6280(5) 0.9040(3)
O13 O 0.6018(2) 0.5755(4) 0.5828(2)
O14 O 0.5218(3) 0.6059(4) 0.6637(2)
O15 O 0.5337(3) 0.7399(4) 0.5087(3)
O17 O 0.4488(3) 0.7727(4) 0.5838(3)
O19 O 0.7646(4) 0.6578(5) 0.2341(3)
O20 O 0.6333(4) 0.6571(6) 0.1721(3)
O21 O 0.4463(2) 0.5591(4) 0.5235(2)
O22 O 0.5537(2) 0.4409(4) 0.4765(2)
O23 O 0.9463(2) 0.5591(4) 0.9765(2)
C25 C 0.7459(4) 0.6045(5) 0.7931(4)
C26 C 0.7643(4) 0.5935(6) 0.7273(4)
H14 H 0.8120 0.5897 0.7148
C27 C 0.7109(4) 0.5881(6) 0.6793(4)
H15 H 0.7240 0.5811 0.6347
C28 C 0.6406(4) 0.5927(6) 0.6944(4)
C29 C 0.6225(4) 0.6013(6) 0.7621(3)
H16 H 0.5748 0.6024 0.7745
C30 C 0.6744(4) 0.6079(6) 0.8104(4)
H17 H 0.6614 0.6148 0.8550
C31 C 0.8021(5) 0.6146(5) 0.8473(4)
C32 C 0.5840(4) 0.5906(5) 0.6416(4)
C37 C 0.7129(4) 0.6099(6) 0.4743(5)
H20 H 0.7133 0.6006 0.5204
C38 C 0.7788(4) 0.6204(7) 0.4401(5)
H21 H 0.8218 0.6183 0.4630
C39 C 0.7768(5) 0.6335(6) 0.3726(5)
H22 H 0.8190 0.6398 0.3486
C40 C 0.7128(4) 0.6376(6) 0.3402(4)
C41 C 0.7122(5) 0.6490(6) 0.2677(4)
C42 C 0.6396(6) 0.6516(7) 0.2339(4)
C43 C 0.5737(5) 0.6486(6) 0.2771(4)
C44 C 0.5058(5) 0.6614(7) 0.2502(4)
H23 H 0.5002 0.6724 0.2045
C45 C 0.4489(5) 0.6579(8) 0.2903(5)
H24 H 0.4035 0.6679 0.2730
C46 C 0.4583(4) 0.6389(6) 0.3581(4)
H25 H 0.4183 0.6357 0.3855
C47 C 0.5808(4) 0.6332(5) 0.3440(4)
C48 C 0.6515(3) 0.6264(5) 0.3771(3)
H26 H 0.410(5) 0.566(8) 0.505(5)
H27 H 0.590(5) 0.434(8) 0.495(5)
H28 H 0.910(5) 0.566(8) 0.995(5)
Zn7 Zn 0.54892(4) 0.59348(6) 0.49030(4)
H29 H 0.51385 0.405739 0.49863
O11 O 0.1334(3) 0.3898(4) 0.1728(3)
N1_2 N 0.3488(3) 0.3869(4) 0.5571(3)
N2_2 N 0.4768(3) 0.3751(4) 0.6141(3)
O2_2 O 0.2172(3) 0.3720(5) 0.0960(3)
O3_2 O 0.3982(2) 0.4245(4) 0.4172(2)
O4_2 O 0.4782(3) 0.3941(4) 0.3363(2)
O5_2 O 0.4663(3) 0.2601(4) 0.4913(3)
O6_2 O 0.5512(3) 0.2273(4) 0.4162(3)
O7_2 O 0.2354(4) 0.3422(5) 0.7659(3)
O8_2 O 0.3667(4) 0.3429(6) 0.8279(3)
C1_2 C 0.2541(4) 0.3955(5) 0.2069(4)
C2_2 C 0.2357(4) 0.4065(6) 0.2727(4)
H1_2 H 0.1880 0.4103 0.2852
C3_2 C 0.2891(4) 0.4119(6) 0.3207(4)
H2_2 H 0.2760 0.4189 0.3653
C4_2 C 0.3594(4) 0.4073(6) 0.3056(4)
C5_2 C 0.3775(4) 0.3987(6) 0.2379(3)
H3_2 H 0.4252 0.3976 0.2255
C6_2 C 0.3256(4) 0.3921(6) 0.1896(4)
H4_2 H 0.3386 0.3852 0.1450
C7_2 C 0.1979(5) 0.3854(5) 0.1527(4)
C8_2 C 0.4160(4) 0.4094(5) 0.3584(4)
C9_2 C 0.5075(4) 0.2041(5) 0.4615(4)
C10_2 C 0.5033(4) 0.0973(5) 0.4804(4)
C11_2 C 0.5356(4) 0.0248(6) 0.4424(4)
H5_2 H 0.5607 0.0415 0.4039
C12_2 C 0.4692(4) 0.0704(6) 0.5387(4)
H6_2 H 0.4490 0.1185 0.5656
C13_2 C 0.2871(4) 0.3901(6) 0.5257(5)
H7_2 H 0.2867 0.3994 0.4796
C14_2 C 0.2212(4) 0.3796(7) 0.5599(5)
H8_2 H 0.1782 0.3817 0.5370
C15_2 C 0.2232(5) 0.3665(6) 0.6274(5)
H9_2 H 0.1810 0.3602 0.6514
C16_2 C 0.2872(4) 0.3624(6) 0.6598(4)
C17_2 C 0.2878(5) 0.3510(6) 0.7323(4)
C18_2 C 0.3604(6) 0.3484(7) 0.7661(4)
C19_2 C 0.4263(5) 0.3514(6) 0.7229(4)
C20_2 C 0.4942(5) 0.3386(7) 0.7498(4)
H10_2 H 0.4998 0.3276 0.7955
C21 C 0.5511(5) 0.3421(8) 0.7097(5)
H11 H 0.5965 0.3321 0.7270
C22 C 0.5417(4) 0.3611(6) 0.6419(4)
H12 H 0.5817 0.3643 0.6145
C23_2 C 0.4192(4) 0.3668(5) 0.6560(4)
C24_2 C 0.3485(3) 0.3736(5) 0.6229(3)
Zn1_2 Zn 0.56072(4) 0.36632(6) 0.39273(4)
Zn2_2 Zn 0.45108(4) 0.40652(6) 0.50970(4)
O10_2 O 0.6334(3) 0.3898(4) 0.3272(3)
O12_2 O 0.7172(3) 0.3720(5) 0.4040(3)
O13_2 O 0.8982(2) 0.4245(4) 0.0828(2)
O14_2 O 0.9782(3) 0.3941(4) 0.1637(2)
C25_2 C 0.7541(4) 0.3955(5) 0.2931(4)
C26_2 C 0.7357(4) 0.4065(6) 0.2273(4)
H14_2 H 0.6880 0.4103 0.2148
C27_2 C 0.7891(4) 0.4119(6) 0.1793(4)
H15_2 H 0.7760 0.4189 0.1347
C28_2 C 0.8594(4) 0.4073(6) 0.1944(4)
C29_2 C 0.8775(4) 0.3987(6) 0.2621(3)
H16_2 H 0.9252 0.3976 0.2745
C30_2 C 0.8256(4) 0.3921(6) 0.3104(4)
H17_2 H 0.8386 0.3852 0.3550
C31_2 C 0.6979(5) 0.3854(5) 0.3473(4)
C32_2 C 0.9160(4) 0.4094(5) 0.1416(4)
H20_2 H 0.7867 0.3994 0.0204
N3_2 N 0.8488(3) 0.3869(4) 0.9429(3)
N4_2 N 0.9768(3) 0.3751(4) 0.8859(3)
O19_2 O 0.7354(4) 0.3422(5) 0.7341(3)
O20_2 O 0.8667(4) 0.3429(6) 0.6721(3)
C37_2 C 0.7871(4) 0.3901(6) 0.9743(5)
C38_2 C 0.7212(4) 0.3796(7) 0.9401(5)
H21_2 H 0.6782 0.3817 0.9630
C39_2 C 0.7232(5) 0.3665(6) 0.8726(5)
H22_2 H 0.6810 0.3602 0.8486
C40_2 C 0.7872(4) 0.3624(6) 0.8402(4)
C41_2 C 0.7878(5) 0.3510(6) 0.7677(4)
C42_2 C 0.8604(6) 0.3484(7) 0.7339(4)
C43_2 C 0.9263(5) 0.3514(6) 0.7771(4)
C44_2 C 0.9942(5) 0.3386(7) 0.7502(4)
H23_2 H 0.9998 0.3276 0.7045
C47_2 C 0.9192(4) 0.3668(5) 0.8440(4)
C48_2 C 0.8485(3) 0.3736(5) 0.8771(3)
H29_2 H 0.98615 0.594261 0.99863
C33_2 C 0.4925(4) 0.7959(5) 0.5385(4)
C34_2 C 0.4967(4) 0.9027(5) 0.5196(4)
C35_2 C 0.4644(4) 0.9752(6) 0.5576(4)
H18_2 H 0.4393 0.9585 0.5961
C36_2 C 0.5308(4) 0.9296(6) 0.4613(4)
H19_2 H 0.5510 0.8815 0.4344
H29_3 H 0.48615 0.594261 0.50137
H29_4 H 0.0138497 0.405739 0.00137022
C21_2 C 0.9489(5) 0.6579(8) 0.2097(5)
H11_2 H 0.9035 0.6679 0.2270
C22_2 C 0.9583(4) 0.6389(6) 0.1419(4)
H12_2 H 0.9183 0.6357 0.1145
C45_2 C 0.0511(5) 0.3421(8) 0.7903(5)
H24_2 H 0.0965 0.3321 0.7730
C46_2 C 0.0417(4) 0.3611(6) 0.8581(4)
H25_2 H 0.0817 0.3643 0.8855
N3_3 N 0.3488(3) 0.1131(4) 0.0571(3)
N4_3 N 0.4768(3) 0.1249(4) 0.1141(3)
O19_3 O 0.2354(4) 0.1578(5) 0.2659(3)
O20_3 O 0.3667(4) 0.1571(6) 0.3279(3)
C37_3 C 0.2871(4) 0.1099(6) 0.0257(5)
C38_3 C 0.2212(4) 0.1204(7) 0.0599(5)
H21_3 H 0.1782 0.1183 0.0370
C39_3 C 0.2232(5) 0.1335(6) 0.1274(5)
H22_3 H 0.1810 0.1398 0.1514
C40_3 C 0.2872(4) 0.1376(6) 0.1598(4)
C41_3 C 0.2878(5) 0.1490(6) 0.2323(4)
C42_3 C 0.3604(6) 0.1516(7) 0.2661(4)
C43_3 C 0.4263(5) 0.1486(6) 0.2229(4)
C44_3 C 0.4942(5) 0.1614(7) 0.2498(4)
H23_3 H 0.4998 0.1724 0.2955
C45_3 C 0.5511(5) 0.1579(8) 0.2097(5)
H24_3 H 0.5965 0.1679 0.2270
C46_3 C 0.5417(4) 0.1389(6) 0.1419(4)
H25_3 H 0.5817 0.1357 0.1145
C47_3 C 0.4192(4) 0.1332(5) 0.1560(4)
C48_3 C 0.3485(3) 0.1264(5) 0.1229(3)
Zn7_2 Zn 0.45108(4) 0.09348(6) 0.00970(4)
O6_3 O 0.0512(3) 0.2727(4) 0.5838(3)
C9_3 C 0.0075(4) 0.2959(5) 0.5385(4)
C10_3 C 0.0033(4) 0.4027(5) 0.5196(4)
C11_3 C 0.0356(4) 0.4752(6) 0.5576(4)
H5_3 H 0.0607 0.4585 0.5961
C21_3 C 0.0511(5) 0.1579(8) 0.2903(5)
H11_3 H 0.0965 0.1679 0.2730
C22_3 C 0.0417(4) 0.1389(6) 0.3581(4)
H12_3 H 0.0817 0.1357 0.3855
Zn1_3 Zn 0.06072(4) 0.13368(6) 0.60727(4)
O10_3 O 0.1334(3) 0.1102(4) 0.6728(3)
O11_2 O 0.6334(3) 0.1102(4) 0.8272(3)
O12_3 O 0.2172(3) 0.1280(5) 0.5960(3)
O13_3 O 0.3982(2) 0.0755(4) 0.9172(2)
O14_3 O 0.4782(3) 0.1059(4) 0.8363(2)
O15_2 O 0.4663(3) 0.2399(4) 0.9913(3)
O16_2 O 0.0337(3) 0.7601(4) 0.4913(3)
O17_2 O 0.5512(3) 0.2727(4) 0.9162(3)
O21_2 O 0.5537(2) 0.0591(4) 0.9765(2)
O23_2 O 0.0537(2) 0.0591(4) 0.5235(2)
C25_3 C 0.2541(4) 0.1045(5) 0.7069(4)
C26_3 C 0.2357(4) 0.0935(6) 0.7727(4)
H14_3 H 0.1880 0.0897 0.7852
C27_3 C 0.2891(4) 0.0881(6) 0.8207(4)
H15_3 H 0.2760 0.0811 0.8653
C28_3 C 0.3594(4) 0.0927(6) 0.8056(4)
C29_3 C 0.3775(4) 0.1013(6) 0.7379(3)
H16_3 H 0.4252 0.1024 0.7255
C30_3 C 0.3256(4) 0.1079(6) 0.6896(4)
H17_3 H 0.3386 0.1148 0.6450
C31_3 C 0.1979(5) 0.1146(5) 0.6527(4)
C32_3 C 0.4160(4) 0.0906(5) 0.8584(4)
C36_3 C 0.0308(4) 0.5704(6) 0.5387(4)
H19_3 H 0.0510 0.6185 0.5656
H20_3 H 0.2867 0.1006 0.9796
H26_2 H 0.590(5) 0.066(8) 0.995(5)
H28_2 H 0.090(5) 0.066(8) 0.505(5)
Zn4 Zn 0.56072(4) 0.13368(6) 0.89273(4)
Zn9_2 Zn 0.04892(4) 0.90652(6) 0.50970(4)
O22_2 O 0.4463(2) 0.9409(4) 0.0235(2)
H27_2 H 0.410(5) 0.934(8) 0.005(5)
H29_5 H 0.48615 0.905739 0.00137022
N1_3 N 0.8488(3) 0.1131(4) 0.4429(3)
N2_3 N 0.9768(3) 0.1249(4) 0.3859(3)
O2_3 O 0.7172(3) 0.1280(5) 0.9040(3)
O3_3 O 0.8982(2) 0.0755(4) 0.5828(2)
O4_3 O 0.9782(3) 0.1059(4) 0.6637(2)
O5_3 O 0.9663(3) 0.2399(4) 0.5087(3)
O7_3 O 0.7354(4) 0.1578(5) 0.2341(3)
O8_3 O 0.8667(4) 0.1571(6) 0.1721(3)
C1_3 C 0.7541(4) 0.1045(5) 0.7931(4)
C2_3 C 0.7357(4) 0.0935(6) 0.7273(4)
H1_3 H 0.6880 0.0897 0.7148
C3_3 C 0.7891(4) 0.0881(6) 0.6793(4)
H2_3 H 0.7760 0.0811 0.6347
C4_3 C 0.8594(4) 0.0927(6) 0.6944(4)
C5_3 C 0.8775(4) 0.1013(6) 0.7621(3)
H3_3 H 0.9252 0.1024 0.7745
C6_3 C 0.8256(4) 0.1079(6) 0.8104(4)
H4_3 H 0.8386 0.1148 0.8550
C7_3 C 0.6979(5) 0.1146(5) 0.8473(4)
C8_3 C 0.9160(4) 0.0906(5) 0.6416(4)
C12_3 C 0.9692(4) 0.4296(6) 0.4613(4)
H6_3 H 0.9490 0.3815 0.4344
C13_3 C 0.7871(4) 0.1099(6) 0.4743(5)
H7_3 H 0.7867 0.1006 0.5204
C14_3 C 0.7212(4) 0.1204(7) 0.4401(5)
H8_3 H 0.6782 0.1183 0.4630
C15_3 C 0.7232(5) 0.1335(6) 0.3726(5)
H9_3 H 0.6810 0.1398 0.3486
C16_3 C 0.7872(4) 0.1376(6) 0.3402(4)
C17_3 C 0.7878(5) 0.1490(6) 0.2677(4)
C18_3 C 0.8604(6) 0.1516(7) 0.2339(4)
C19_3 C 0.9263(5) 0.1486(6) 0.2771(4)
C20_3 C 0.9942(5) 0.1614(7) 0.2502(4)
H10_3 H 0.9998 0.1724 0.2045
C23_3 C 0.9192(4) 0.1332(5) 0.3440(4)
C24_3 C 0.8485(3) 0.1264(5) 0.3771(3)
Zn2_3 Zn 0.95108(4) 0.09348(6) 0.49030(4)
O18_2 O 0.9488(3) 0.7273(4) 0.4162(3)
C33_3 C 0.9925(4) 0.7041(5) 0.4615(4)
C34_3 C 0.9967(4) 0.5973(5) 0.4804(4)
C35_3 C 0.9644(4) 0.5248(6) 0.4424(4)
H18_3 H 0.9393 0.5415 0.4039
Zn6_2 Zn 0.93928(4) 0.86632(6) 0.39273(4)
O9_2 O 0.9463(2) 0.9409(4) 0.4765(2)
H13_2 H 0.910(5) 0.934(8) 0.495(5)
H29_6 H 0.0138497 0.0942609 0.50137
O1_2 O 0.8666(3) 0.8898(4) 0.3272(3)
O2_4 O 0.7828(3) 0.8720(5) 0.4040(3)
O3_4 O 0.6018(2) 0.9245(4) 0.0828(2)
O4_4 O 0.5218(3) 0.8941(4) 0.1637(2)
O5_4 O 0.5337(3) 0.7601(4) 0.0087(3)
O6_4 O 0.4488(3) 0.7273(4) 0.0838(3)
C1_4 C 0.7459(4) 0.8955(5) 0.2931(4)
C2_4 C 0.7643(4) 0.9065(6) 0.2273(4)
H1_4 H 0.8120 0.9103 0.2148
C3_4 C 0.7109(4) 0.9119(6) 0.1793(4)
H2_4 H 0.7240 0.9189 0.1347
C4_4 C 0.6406(4) 0.9073(6) 0.1944(4)
C5_4 C 0.6225(4) 0.8987(6) 0.2621(3)
H3_4 H 0.5748 0.8976 0.2745
C6_4 C 0.6744(4) 0.8921(6) 0.3104(4)
H4_4 H 0.6614 0.8852 0.3550
C7_4 C 0.8021(5) 0.8854(5) 0.3473(4)
C8_4 C 0.5840(4) 0.9094(5) 0.1416(4)
C9_4 C 0.4925(4) 0.7041(5) 0.0385(4)
C10_4 C 0.4967(4) 0.5973(5) 0.0196(4)
C11_4 C 0.4644(4) 0.5248(6) 0.0576(4)
H5_4 H 0.4393 0.5415 0.0961
H7_4 H 0.7133 0.8994 0.0204
Zn1_4 Zn 0.43928(4) 0.86632(6) 0.10727(4)
N3_4 N 0.1512(3) 0.8869(4) 0.5571(3)
N4_4 N 0.0232(3) 0.8751(4) 0.6141(3)
O10_4 O 0.3666(3) 0.8898(4) 0.1728(3)
O12_4 O 0.2828(3) 0.8720(5) 0.0960(3)
O13_4 O 0.1018(2) 0.9245(4) 0.4172(2)
O14_4 O 0.0218(3) 0.8941(4) 0.3363(2)
O19_4 O 0.2646(4) 0.8422(5) 0.7659(3)
O20_4 O 0.1333(4) 0.8429(6) 0.8279(3)
C25_4 C 0.2459(4) 0.8955(5) 0.2069(4)
C26_4 C 0.2643(4) 0.9065(6) 0.2727(4)
H14_4 H 0.3120 0.9103 0.2852
C27_4 C 0.2109(4) 0.9119(6) 0.3207(4)
H15_4 H 0.2240 0.9189 0.3653
C28_4 C 0.1406(4) 0.9073(6) 0.3056(4)
C29_4 C 0.1225(4) 0.8987(6) 0.2379(3)
H16_4 H 0.0748 0.8976 0.2255
C30_4 C 0.1744(4) 0.8921(6) 0.1896(4)
H17_4 H 0.1614 0.8852 0.1450
C31_4 C 0.3021(5) 0.8854(5) 0.1527(4)
C32_4 C 0.0840(4) 0.9094(5) 0.3584(4)
C36_4 C 0.4692(4) 0.4296(6) 0.0387(4)
H19_4 H 0.4490 0.3815 0.0656
C37_4 C 0.2129(4) 0.8901(6) 0.5257(5)
H20_4 H 0.2133 0.8994 0.4796
C38_4 C 0.2788(4) 0.8796(7) 0.5599(5)
H21_4 H 0.3218 0.8817 0.5370
C39_4 C 0.2768(5) 0.8665(6) 0.6274(5)
H22_4 H 0.3190 0.8602 0.6514
C40_4 C 0.2128(4) 0.8624(6) 0.6598(4)
C41_4 C 0.2122(5) 0.8510(6) 0.7323(4)
C42_4 C 0.1396(6) 0.8484(7) 0.7661(4)
C43_4 C 0.0737(5) 0.8514(6) 0.7229(4)
C44_4 C 0.0058(5) 0.8386(7) 0.7498(4)
H23_4 H 0.0002 0.8276 0.7955
C47_4 C 0.0808(4) 0.8668(5) 0.6560(4)
C48_4 C 0.1515(3) 0.8736(5) 0.6229(3)
N1_4 N 0.6512(3) 0.8869(4) 0.9429(3)
N2_4 N 0.5232(3) 0.8751(4) 0.8859(3)
O7_4 O 0.7646(4) 0.8422(5) 0.7341(3)
O8_4 O 0.6333(4) 0.8429(6) 0.6721(3)
C12_4 C 0.5308(4) 0.5704(6) 0.9613(4)
H6_4 H 0.5510 0.6185 0.9344
C13_4 C 0.7129(4) 0.8901(6) 0.9743(5)
C14_4 C 0.7788(4) 0.8796(7) 0.9401(5)
H8_4 H 0.8218 0.8817 0.9630
C15_4 C 0.7768(5) 0.8665(6) 0.8726(5)
H9_4 H 0.8190 0.8602 0.8486
C16_4 C 0.7128(4) 0.8624(6) 0.8402(4)
C17_4 C 0.7122(5) 0.8510(6) 0.7677(4)
C18_4 C 0.6396(6) 0.8484(7) 0.7339(4)
C19_4 C 0.5737(5) 0.8514(6) 0.7771(4)
C20_4 C 0.5058(5) 0.8386(7) 0.7502(4)
H10_4 H 0.5002 0.8276 0.7045
C21_4 C 0.4489(5) 0.8421(8) 0.7903(5)
H11_4 H 0.4035 0.8321 0.7730
C22_4 C 0.4583(4) 0.8611(6) 0.8581(4)
H12_4 H 0.4183 0.8643 0.8855
C23_4 C 0.5808(4) 0.8668(5) 0.8440(4)
C24_4 C 0.6515(3) 0.8736(5) 0.8771(3)
Zn2_4 Zn 0.54892(4) 0.90652(6) 0.99030(4)
C33_4 C 0.5075(4) 0.2959(5) 0.9615(4)
C34_4 C 0.5033(4) 0.4027(5) 0.9804(4)
C35_4 C 0.5356(4) 0.4752(6) 0.9424(4)
H18_4 H 0.5607 0.4585 0.9039
C45_4 C 0.9489(5) 0.8421(8) 0.7097(5)
H24_4 H 0.9035 0.8321 0.7270
C46_4 C 0.9583(4) 0.8611(6) 0.6419(4)
H25_4 H 0.9183 0.8643 0.6145
H29_7 H 0.51385 0.0942609 0.99863
H29_8 H 0.98615 0.905739 0.49863
loop_
_geom_bond_atom_site_label_1
_geom_bond_atom_site_label_2
_geom_bond_site_symmetry_1
_geom_bond_site_symmetry_2
O18 C33 1_555 1_555
C33 C34 1_555 1_555
C34 C35 1_555 1_555
H18 C35 1_555 1_555
Zn6 O18 1_555 1_555
N1 C13 1_555 1_555
O7 C17 1_555 1_555
O8 C18 1_555 1_555
O9 H13 1_555 1_555
H6 C12 1_555 1_555
C14 C13 1_555 1_555
H8 C14 1_555 1_555
C15 C14 1_555 1_555
H9 C15 1_555 1_555
C16 C15 1_555 1_555
C17 C16 1_555 1_555
C18 C17 1_555 1_555
C19 C18 1_555 1_555
C20 C19 1_555 1_555
H10 C20 1_555 1_555
C23 N2 1_555 1_555
C24 N1 1_555 1_555
Zn2 N1 1_555 1_555
Zn6 O9 1_555 1_555
N2 Zn2 1_555 1_555
O9 Zn2 1_555 1_555
C16 C24 1_555 1_555
C19 C23 1_555 1_555
C23 C24 1_555 1_555
O1 C7 1_555 1_555
O2 C7 1_555 1_555
O3 C8 1_555 1_555
O4 C8 1_555 1_555
C1 C2 1_555 1_555
C2 H1 1_555 1_555
C3 C2 1_555 1_555
H2 C3 1_555 1_555
C4 C3 1_555 1_555
C5 C4 1_555 1_555
H3 C5 1_555 1_555
C6 C1 1_555 1_555
H4 C6 1_555 1_555
C7 C1 1_555 1_555
C8 C4 1_555 1_555
Zn5 O1 1_555 1_555
C5 C6 1_555 1_555
H19 C36 1_555 1_555
O6 C9 1_555 1_555
C9 C10 1_555 1_555
C10 C11 1_555 1_555
C11 H5 1_555 1_555
N3 C37 1_555 1_555
N4 C46 1_555 1_555
O10 Zn1 1_555 1_555
O12 C31 1_555 1_555
O13 C32 1_555 1_555
O14 C32 1_555 1_555
O15 Zn7 1_555 1_555
O17 Zn5 1_555 1_555
O19 C41 1_555 1_555
O20 C42 1_555 1_555
O21 H26 1_555 1_555
O22 H27 1_555 1_555
O23 Zn1 1_555 1_555
C25 C26 1_555 1_555
C26 H14 1_555 1_555
C27 C26 1_555 1_555
H15 C27 1_555 1_555
C28 C27 1_555 1_555
C29 C28 1_555 1_555
H16 C29 1_555 1_555
C30 C25 1_555 1_555
H17 C30 1_555 1_555
C31 O10 1_555 1_555
C32 C28 1_555 1_555
C37 H20 1_555 1_555
C38 C37 1_555 1_555
H21 C38 1_555 1_555
C39 C38 1_555 1_555
H22 C39 1_555 1_555
C40 C39 1_555 1_555
C41 C40 1_555 1_555
C42 C41 1_555 1_555
C43 C42 1_555 1_555
C44 C43 1_555 1_555
H23 C44 1_555 1_555
C45 C44 1_555 1_555
H24 C45 1_555 1_555
C46 C45 1_555 1_555
H25 C46 1_555 1_555
C47 N4 1_555 1_555
C48 N3 1_555 1_555
H28 O23 1_555 1_555
Zn5 O14 1_555 1_555
Zn7 N3 1_555 1_555
O6 Zn1 1_555 1_555
N4 Zn7 1_555 1_555
O13 Zn7 1_555 1_555
O21 Zn5 1_555 1_555
O21 Zn7 1_555 1_555
O22 Zn7 1_555 1_555
O23 Zn9 1_555 1_555
C25 C31 1_555 1_555
C29 C30 1_555 1_555
C40 C48 1_555 1_555
C43 C47 1_555 1_555
C47 C48 1_555 1_555
O22 H29 1_555 1_555
O11 Zn6 1_555 1_555
N1_2 C13_2 1_555 1_555
N2_2 C22 1_555 1_555
O11 C7_2 1_555 1_555
O2_2 C7_2 1_555 1_555
O3_2 C8_2 1_555 1_555
O4_2 C8_2 1_555 1_555
O5_2 C9_2 1_555 1_555
O6_2 C9_2 1_555 1_555
O7_2 C17_2 1_555 1_555
O8_2 C18_2 1_555 1_555
C1_2 C2_2 1_555 1_555
C2_2 H1_2 1_555 1_555
C3_2 C2_2 1_555 1_555
H2_2 C3_2 1_555 1_555
C4_2 C3_2 1_555 1_555
C5_2 C4_2 1_555 1_555
H3_2 C5_2 1_555 1_555
C6_2 C1_2 1_555 1_555
H4_2 C6_2 1_555 1_555
C7_2 C1_2 1_555 1_555
C8_2 C4_2 1_555 1_555
C9_2 C10_2 1_555 1_555
C10_2 C11_2 1_555 1_555
C11_2 H5_2 1_555 1_555
C12_2 C10_2 1_555 1_555
H6_2 C12_2 1_555 1_555
C13_2 H7_2 1_555 1_555
C14_2 C13_2 1_555 1_555
H8_2 C14_2 1_555 1_555
C15_2 C14_2 1_555 1_555
H9_2 C15_2 1_555 1_555
C16_2 C15_2 1_555 1_555
C17_2 C16_2 1_555 1_555
C18_2 C17_2 1_555 1_555
C19_2 C18_2 1_555 1_555
C20_2 C19_2 1_555 1_555
H10_2 C20_2 1_555 1_555
C21 C20_2 1_555 1_555
H11 C21 1_555 1_555
C22 C21 1_555 1_555
H12 C22 1_555 1_555
C23_2 N2_2 1_555 1_555
C24_2 N1_2 1_555 1_555
Zn1_2 O4_2 1_555 1_555
Zn2_2 N1_2 1_555 1_555
O10_2 Zn1_2 1_555 1_555
O12_2 C31_2 1_555 1_555
O13_2 C32_2 1_555 1_555
O14_2 C32_2 1_555 1_555
O22 Zn1_2 1_555 1_555
C25_2 C26_2 1_555 1_555
C26_2 H14_2 1_555 1_555
C27_2 C26_2 1_555 1_555
H15_2 C27_2 1_555 1_555
C28_2 C27_2 1_555 1_555
C29_2 C28_2 1_555 1_555
H16_2 C29_2 1_555 1_555
C30_2 C25_2 1_555 1_555
H17_2 C30_2 1_555 1_555
C31_2 O10_2 1_555 1_555
C32_2 C28_2 1_555 1_555
N2_2 Zn2_2 1_555 1_555
O3_2 Zn2_2 1_555 1_555
O5_2 Zn2_2 1_555 1_555
O6_2 Zn1_2 1_555 1_555
O21 Zn2_2 1_555 1_555
C5_2 C6_2 1_555 1_555
C16_2 C24_2 1_555 1_555
C19_2 C23_2 1_555 1_555
C23_2 C24_2 1_555 1_555
Zn2_2 O22 1_555 1_555
C25_2 C31_2 1_555 1_555
C29_2 C30_2 1_555 1_555
N3_2 C37_2 1_555 1_555
O19_2 C41_2 1_555 1_555
O20_2 C42_2 1_555 1_555
C38_2 C37_2 1_555 1_555
H21_2 C38_2 1_555 1_555
C39_2 C38_2 1_555 1_555
H22_2 C39_2 1_555 1_555
C40_2 C39_2 1_555 1_555
C41_2 C40_2 1_555 1_555
C42_2 C41_2 1_555 1_555
C43_2 C42_2 1_555 1_555
C44_2 C43_2 1_555 1_555
H23_2 C44_2 1_555 1_555
C47_2 N4_2 1_555 1_555
C48_2 N3_2 1_555 1_555
Zn9 N3_2 1_555 1_555
N4_2 Zn9 1_555 1_555
C40_2 C48_2 1_555 1_555
C43_2 C47_2 1_555 1_555
C47_2 C48_2 1_555 1_555
O23 H29_2 1_555 1_555
O15 C33_2 1_555 1_555
O17 C33_2 1_555 1_555
C33_2 C34_2 1_555 1_555
C34_2 C35_2 1_555 1_555
H18_2 C35_2 1_555 1_555
H19_2 C36_2 1_555 1_555
C34_2 C36_2 1_555 1_555
O21 H29_3 1_555 1_555
O9 H29_4 1_555 1_555
H11_2 C21_2 1_555 1_555
C22_2 C21_2 1_555 1_555
H12_2 C22_2 1_555 1_555
H24_2 C45_2 1_555 1_555
C46_2 C45_2 1_555 1_555
H25_2 C46_2 1_555 1_555
N3_3 C37_3 1_555 1_555
N4_3 C46_3 1_555 1_555
O19_3 C41_3 1_555 1_555
O20_3 C42_3 1_555 1_555
C38_3 C37_3 1_555 1_555
H21_3 C38_3 1_555 1_555
C39_3 C38_3 1_555 1_555
H22_3 C39_3 1_555 1_555
C40_3 C39_3 1_555 1_555
C41_3 C40_3 1_555 1_555
C42_3 C41_3 1_555 1_555
C43_3 C42_3 1_555 1_555
C44_3 C43_3 1_555 1_555
H23_3 C44_3 1_555 1_555
C45_3 C44_3 1_555 1_555
H24_3 C45_3 1_555 1_555
C46_3 C45_3 1_555 1_555
H25_3 C46_3 1_555 1_555
C47_3 N4_3 1_555 1_555
C48_3 N3_3 1_555 1_555
Zn7_2 N3_3 1_555 1_555
N4_3 Zn7_2 1_555 1_555
C40_3 C48_3 1_555 1_555
C43_3 C47_3 1_555 1_555
C47_3 C48_3 1_555 1_555
O6_3 C9_3 1_555 1_555
C9_3 C10_3 1_555 1_555
C10_3 C11_3 1_555 1_555
C11_3 H5_3 1_555 1_555
H11_3 C21_3 1_555 1_555
C22_3 C21_3 1_555 1_555
H12_3 C22_3 1_555 1_555
O10_3 Zn1_3 1_555 1_555
O11_2 Zn4 1_555 1_555
O12_3 C31_3 1_555 1_555
O13_3 C32_3 1_555 1_555
O14_3 C32_3 1_555 1_555
O17_2 Zn4 1_555 1_555
O21_2 H26_2 1_555 1_555
O23_2 Zn1_3 1_555 1_555
C25_3 C26_3 1_555 1_555
C26_3 H14_3 1_555 1_555
C27_3 C26_3 1_555 1_555
H15_3 C27_3 1_555 1_555
C28_3 C27_3 1_555 1_555
C29_3 C28_3 1_555 1_555
H16_3 C29_3 1_555 1_555
C30_3 C25_3 1_555 1_555
H17_3 C30_3 1_555 1_555
C31_3 O10_3 1_555 1_555
C32_3 C28_3 1_555 1_555
C36_3 C11_3 1_555 1_555
H19_3 C36_3 1_555 1_555
H28_2 O23_2 1_555 1_555
Zn4 O14_3 1_555 1_555
Zn9_2 O16_2 1_555 1_555
O6_3 Zn1_3 1_555 1_555
O21_2 Zn4 1_555 1_555
C25_3 C31_3 1_555 1_555
C29_3 C30_3 1_555 1_555
O22_2 H27_2 1_555 1_555
O22_2 H29_5 1_555 1_555
N1_3 C13_3 1_555 1_555
O11_2 C7_3 1_555 1_555
O2_3 C7_3 1_555 1_555
O3_3 C8_3 1_555 1_555
O4_3 C8_3 1_555 1_555
O7_3 C17_3 1_555 1_555
O8_3 C18_3 1_555 1_555
C1_3 C2_3 1_555 1_555
C2_3 H1_3 1_555 1_555
C3_3 C2_3 1_555 1_555
H2_3 C3_3 1_555 1_555
C4_3 C3_3 1_555 1_555
C5_3 C4_3 1_555 1_555
H3_3 C5_3 1_555 1_555
C6_3 C1_3 1_555 1_555
H4_3 C6_3 1_555 1_555
C7_3 C1_3 1_555 1_555
C8_3 C4_3 1_555 1_555
H6_3 C12_3 1_555 1_555
C13_3 H7_3 1_555 1_555
C14_3 C13_3 1_555 1_555
H8_3 C14_3 1_555 1_555
C15_3 C14_3 1_555 1_555
H9_3 C15_3 1_555 1_555
C16_3 C15_3 1_555 1_555
C17_3 C16_3 1_555 1_555
C18_3 C17_3 1_555 1_555
C19_3 C18_3 1_555 1_555
C20_3 C19_3 1_555 1_555
H10_3 C20_3 1_555 1_555
C23_3 N2_3 1_555 1_555
C24_3 N1_3 1_555 1_555
Zn2_3 N1_3 1_555 1_555
O18_2 C33_3 1_555 1_555
C33_3 C34_3 1_555 1_555
C34_3 C35_3 1_555 1_555
C35_3 C12_3 1_555 1_555
H18_3 C35_3 1_555 1_555
Zn6_2 O18_2 1_555 1_555
N2_3 Zn2_3 1_555 1_555
O3_3 Zn2_3 1_555 1_555
O5_3 Zn2_3 1_555 1_555
C5_3 C6_3 1_555 1_555
C16_3 C24_3 1_555 1_555
C19_3 C23_3 1_555 1_555
C23_3 C24_3 1_555 1_555
O9_2 H13_2 1_555 1_555
Zn6_2 O9_2 1_555 1_555
O23_2 H29_6 1_555 1_555
O1_2 C7_4 1_555 1_555
O2_4 C7_4 1_555 1_555
O3_4 C8_4 1_555 1_555
O4_4 C8_4 1_555 1_555
O5_4 C9_4 1_555 1_555
O6_4 C9_4 1_555 1_555
C1_4 C2_4 1_555 1_555
C2_4 H1_4 1_555 1_555
C3_4 C2_4 1_555 1_555
H2_4 C3_4 1_555 1_555
C4_4 C3_4 1_555 1_555
C5_4 C4_4 1_555 1_555
H3_4 C5_4 1_555 1_555
C6_4 C1_4 1_555 1_555
H4_4 C6_4 1_555 1_555
C7_4 C1_4 1_555 1_555
C8_4 C4_4 1_555 1_555
C9_4 C10_4 1_555 1_555
C10_4 C11_4 1_555 1_555
C11_4 H5_4 1_555 1_555
Zn1_4 O4_4 1_555 1_555
N3_4 C37_4 1_555 1_555
O10_4 Zn1_4 1_555 1_555
O12_4 C31_4 1_555 1_555
O13_4 C32_4 1_555 1_555
O14_4 C32_4 1_555 1_555
O19_4 C41_4 1_555 1_555
O20_4 C42_4 1_555 1_555
O22_2 Zn1_4 1_555 1_555
C25_4 C26_4 1_555 1_555
C26_4 H14_4 1_555 1_555
C27_4 C26_4 1_555 1_555
H15_4 C27_4 1_555 1_555
C28_4 C27_4 1_555 1_555
C29_4 C28_4 1_555 1_555
H16_4 C29_4 1_555 1_555
C30_4 C25_4 1_555 1_555
H17_4 C30_4 1_555 1_555
C31_4 O10_4 1_555 1_555
C32_4 C28_4 1_555 1_555
C36_4 C11_4 1_555 1_555
H19_4 C36_4 1_555 1_555
C37_4 H20_4 1_555 1_555
C38_4 C37_4 1_555 1_555
H21_4 C38_4 1_555 1_555
C39_4 C38_4 1_555 1_555
H22_4 C39_4 1_555 1_555
C40_4 C39_4 1_555 1_555
C41_4 C40_4 1_555 1_555
C42_4 C41_4 1_555 1_555
C43_4 C42_4 1_555 1_555
C44_4 C43_4 1_555 1_555
H23_4 C44_4 1_555 1_555
C47_4 N4_4 1_555 1_555
C48_4 N3_4 1_555 1_555
Zn6_2 O1_2 1_555 1_555
Zn9_2 N3_4 1_555 1_555
O6_4 Zn1_4 1_555 1_555
C5_4 C6_4 1_555 1_555
N4_4 Zn9_2 1_555 1_555
O13_4 Zn9_2 1_555 1_555
C25_4 C31_4 1_555 1_555
C29_4 C30_4 1_555 1_555
C40_4 C48_4 1_555 1_555
C43_4 C47_4 1_555 1_555
C47_4 C48_4 1_555 1_555
N1_4 C13_4 1_555 1_555
N2_4 C22_4 1_555 1_555
O7_4 C17_4 1_555 1_555
O8_4 C18_4 1_555 1_555
H6_4 C12_4 1_555 1_555
C14_4 C13_4 1_555 1_555
H8_4 C14_4 1_555 1_555
C15_4 C14_4 1_555 1_555
H9_4 C15_4 1_555 1_555
C16_4 C15_4 1_555 1_555
C17_4 C16_4 1_555 1_555
C18_4 C17_4 1_555 1_555
C19_4 C18_4 1_555 1_555
C20_4 C19_4 1_555 1_555
H10_4 C20_4 1_555 1_555
C21_4 C20_4 1_555 1_555
H11_4 C21_4 1_555 1_555
C22_4 C21_4 1_555 1_555
H12_4 C22_4 1_555 1_555
C23_4 N2_4 1_555 1_555
C24_4 N1_4 1_555 1_555
Zn2_4 N1_4 1_555 1_555
O15_2 C33_4 1_555 1_555
O17_2 C33_4 1_555 1_555
C33_4 C34_4 1_555 1_555
C34_4 C35_4 1_555 1_555
C35_4 C12_4 1_555 1_555
H18_4 C35_4 1_555 1_555
N2_4 Zn2_4 1_555 1_555
C16_4 C24_4 1_555 1_555
C19_4 C23_4 1_555 1_555
C23_4 C24_4 1_555 1_555
H24_4 C45_4 1_555 1_555
C46_4 C45_4 1_555 1_555
H25_4 C46_4 1_555 1_555
O21_2 H29_7 1_555 1_555
O9_2 H29_8 1_555 1_555

#END
