
###############################################################################
#
# This file contains modified crystal structure data generated from the
# MOF subset of the Cambridge Structural Database (CSD) v543 
# hosted by the Cambridge Crystallographic Data Centre (CCDC).
#
# This work is licensed under the Creative Commons
# Attribution-NonCommercial-ShareAlike 4.0 International License.
# To view a copy of this license, visit
# http://creativecommons.org/licenses/by-nc-sa/4.0/
# or send a letter to
# Creative Commons, PO Box 1866, Mountain View, CA 94042, USA.
#
# CIF created using the CSD Python API on 29 September 2022
# The structure has been converted into the P1 space group
# The structure has a 3D framework
# The original CSD entry XOKHOW is in the monoclinic crystal system
# The original CSD entry XOKHOW is in a Sohncke space group
# The framework has been calculated to contain at least 10.0% void space
# The void calculation uses a probe of radius 1.32A, grid spacing 0.4
# H atom positions have been added when not included in the experimental data
#
###############################################################################

data_XOKHOW
_chemical_formula_moiety         '(C388 H392 Fe8 N32 O51 Zn8)n'
_symmetry_cell_setting           triclinic
_symmetry_space_group_name_H-M   'P 1'
_symmetry_Int_Tables_number      1
_space_group_name_Hall           'P 1'
loop_
_symmetry_equiv_pos_site_id
_symmetry_equiv_pos_as_xyz
1 x,y,z
_cell_length_a                   14.400(3)
_cell_length_b                   37.700(8)
_cell_length_c                   27.200(5)
_cell_angle_alpha                90
_cell_angle_beta                 100.00(3)
_cell_angle_gamma                90
_cell_volume                     14542
loop_
_atom_site_label
_atom_site_type_symbol
_atom_site_fract_x
_atom_site_fract_y
_atom_site_fract_z
H95 H 0.0102 0.4554 0.4557
O14 O 0.1958(5) 0.4407(2) 0.6982(2)
O15 O 0.2362(5) 0.3886(2) 0.6945(2)
C98 C 0.1849(7) 0.4117(3) 0.6776(3)
C99 C 0.1354(4) 0.40822(16) 0.62257(16)
C100 C 0.0802(4) 0.43717(14) 0.60429(18)
H98 H 0.0791 0.4573 0.6240
C101 C 0.0267(4) 0.43606(14) 0.55658(19)
C102 C 0.0284(4) 0.40601(16) 0.52714(16)
C103 C 0.0836(4) 0.37706(14) 0.54542(19)
H100 H 0.0847 0.3569 0.5257
C104 C 0.1371(4) 0.37816(14) 0.5931(2)
H101 H 0.1740 0.3588 0.6054
Zn5 Zn 0.29998(9) 0.40655(3) 0.75956(4)
Zn1 Zn 0.70002(9) 0.40655(3) 0.24044(4)
O2 O 0.6966(6) 0.1712(2) 0.0458(3)
O3 O 0.5000 0.1611(3) 0.0000
O7 O 0.5874(5) 0.4259(2) 0.2569(3)
O8 O 0.5308(5) 0.4292(2) 0.1770(3)
O9 O 0.8042(5) 0.4407(2) 0.3018(2)
O10 O 0.7638(5) 0.3886(2) 0.3055(2)
C19 C 0.6862(11) 0.0388(3) 0.0388(4)
C21 C 0.7762(10) 0.0577(3) 0.0651(5)
H22 H 0.8306 0.0449 0.0589
H23 H 0.7762 0.0586 0.1004
H24 H 0.7778 0.0814 0.0523
C22 C 0.6028(10) 0.0535(3) 0.0604(5)
H25 H 0.6069 0.0455 0.0942
H26 H 0.5450 0.0452 0.0408
H27 H 0.6042 0.0789 0.0597
C24 C 0.6677(5) 0.2313(2) 0.04179(17)
C25 C 0.6625(5) 0.26254(16) 0.0683(2)
H29 H 0.6437 0.2835 0.0514
C26 C 0.6852(6) 0.26245(16) 0.1201(2)
C27 C 0.7133(6) 0.2311(2) 0.14539(17)
H30 H 0.7285 0.2311 0.1800
C28 C 0.7185(7) 0.19991(16) 0.1188(2)
C29 C 0.6957(6) 0.20000(16) 0.0670(2)
C30 C 0.7450(5) 0.33383(14) 0.22186(18)
H31 H 0.7846 0.3372 0.2523
C31 C 0.7481(5) 0.30214(13) 0.1961(2)
H32 H 0.7898 0.2843 0.2093
C32 C 0.6889(5) 0.29704(13) 0.1505(2)
C33 C 0.6266(4) 0.32364(18) 0.1308(2)
H33 H 0.5870 0.3202 0.1003
C34 C 0.6235(4) 0.35533(15) 0.1565(2)
H34 H 0.5818 0.3731 0.1433
N6 N 0.6827(4) 0.36043(11) 0.20208(18)
C35 C 0.7449(10) 0.1650(3) 0.1508(4)
C36 C 0.7603(11) 0.1699(3) 0.2078(4)
H35 H 0.7044 0.1798 0.2172
H36 H 0.8124 0.1857 0.2179
H37 H 0.7738 0.1474 0.2239
C37 C 0.8349(10) 0.1522(3) 0.1401(4)
H38 H 0.8762 0.1720 0.1383
H39 H 0.8248 0.1398 0.1089
H40 H 0.8631 0.1365 0.1662
C38 C 0.6650(10) 0.1377(3) 0.1351(5)
H41 H 0.6916 0.1144 0.1347
H42 H 0.6316 0.1435 0.1024
H43 H 0.6222 0.1383 0.1585
C77 C 0.5272(7) 0.4357(3) 0.2200(4)
C78 C 0.4176(5) 0.45812(18) 0.2745(2)
H86 H 0.4492 0.4435 0.2994
C79 C 0.3435(5) 0.4792(2) 0.2838(2)
H87 H 0.3254 0.4787 0.3150
C80 C 0.2962(5) 0.5011(2) 0.2465(2)
C81 C 0.3232(6) 0.5019(2) 0.1999(2)
H88 H 0.2916 0.5165 0.1749
C82 C 0.3974(6) 0.4808(2) 0.19054(18)
H89 H 0.4154 0.4813 0.1593
C83 C 0.4446(5) 0.4589(2) 0.2278(2)
C84 C 0.0632(5) 0.5664(2) 0.2687(3)
C85 C 0.0799(5) 0.55931(19) 0.2209(2)
H90 H 0.0399 0.5685 0.1933
C86 C 0.1566(5) 0.5385(2) 0.21427(18)
H91 H 0.1678 0.5338 0.1823
C87 C 0.2164(5) 0.5248(2) 0.2555(2)
C88 C 0.1997(6) 0.5319(3) 0.3033(2)
H92 H 0.2397 0.5227 0.3309
C89 C 0.1230(6) 0.5526(3) 0.30998(19)
H93 H 0.1118 0.5574 0.3420
C91 C 0.8151(7) 0.4117(3) 0.3224(3)
C92 C 0.8646(4) 0.40822(16) 0.37743(16)
C93 C 0.9198(4) 0.43717(14) 0.39571(18)
H94 H 0.9209 0.4573 0.3760
C94 C 0.9733(4) 0.43606(14) 0.44342(19)
C95 C 0.9716(4) 0.40601(16) 0.47286(16)
C96 C 0.9164(4) 0.37706(14) 0.45458(19)
H96 H 0.9153 0.3569 0.4743
C97 C 0.8629(4) 0.37816(14) 0.4069(2)
H97 H 0.8260 0.3588 0.3946
H99 H 0.9898 0.4554 0.5443
Fe5 Fe 0.38749(14) 0.15511(4) 0.01436(5)
N18 N 0.7410(4) 0.44166(11) 0.19199(17)
Fe1 Fe 0.61251(14) 0.15511(4) 0.98564(5)
O1 O 0.6568(6) 0.1065(2) 0.9949(2)
O3_2 O 0.5000 0.1611(3) 1.0000
N1 N 0.6232(7) 0.2074(2) 0.9570(3)
N2 N 0.5944(7) 0.1483(2) 0.9077(3)
C1 C 0.6227(10) 0.2106(3) 0.9047(3)
H2 H 0.6870 0.2072 0.8984
C2 C 0.5659(12) 0.1825(3) 0.8826(4)
H3 H 0.5017 0.1874 0.8881
C3 C 0.5624(12) 0.1827(4) 0.8258(3)
H4 H 0.6253 0.1790 0.8185
H5 H 0.5225 0.1635 0.8107
C4 C 0.5262(12) 0.2159(3) 0.8046(4)
H6 H 0.5352 0.2161 0.7700
H7 H 0.4587 0.2158 0.8041
C5 C 0.5618(14) 0.2481(4) 0.8262(5)
H8 H 0.5153 0.2666 0.8166
H9 H 0.6180 0.2544 0.8130
C6 C 0.5861(12) 0.2465(3) 0.8835(4)
H10 H 0.6335 0.2643 0.8948
H11 H 0.5301 0.2525 0.8971
C7 C 0.6090(9) 0.1186(3) 0.8856(4)
H12 H 0.6002 0.1186 0.8509
C8 C 0.6732(5) 0.04549(15) 0.98263(13)
C9 C 0.6502(5) 0.07906(13) 0.96311(17)
C10 C 0.6389(6) 0.08468(13) 0.91191(18)
C11 C 0.6506(6) 0.05672(16) 0.88022(13)
H13 H 0.6430 0.0605 0.8460
C12 C 0.6735(6) 0.02314(14) 0.89974(18)
C13 C 0.6848(5) 0.01753(12) 0.95094(19)
C17 C 0.7528(5) 0.00374(10) 0.82795(19)
H17 H 0.7652 0.0273 0.8211
C23 C 0.6374(9) 0.2327(3) 0.9867(4)
H28 H 0.6278 0.2552 0.9728
Zn2 Zn 0.80308(9) 0.61674(3) 0.25873(4)
Fe2 Fe 0.61511(13) 0.36847(4) 0.48491(5)
O4 O 0.6528(6) 0.41680(17) 0.49187(19)
O5 O 0.7033(6) 0.35385(17) 0.5401(3)
O6 O 0.5000 0.3703(3) 0.5000
O11 O 0.9725(7) 0.5985(3) 0.3230(3)
O12 O 0.9182(5) 0.59710(14) 0.24064(19)
O13 O 0.7175(8) 0.6257(5) 0.1921(4)
H1 H 0.6629 0.6211 0.1945
N3 N 0.6127(6) 0.3753(2) 0.4092(3)
N4 N 0.6156(8) 0.3175(2) 0.4611(3)
C39 C 0.6018(10) 0.3423(3) 0.3783(4)
H44 H 0.6668 0.3347 0.3779
C40 C 0.5620(8) 0.3133(2) 0.4072(3)
H45 H 0.4948 0.3178 0.4067
C41 C 0.5738(10) 0.2756(3) 0.3839(4)
H46 H 0.5379 0.2577 0.3982
H47 H 0.6395 0.2685 0.3888
C42 C 0.5326(14) 0.2818(3) 0.3263(4)
H48 H 0.5334 0.2590 0.3100
H49 H 0.4669 0.2883 0.3243
C43 C 0.5712(12) 0.3059(3) 0.2978(4)
H50 H 0.5388 0.3051 0.2634
H51 H 0.6375 0.3007 0.2985
C44 C 0.5582(9) 0.3458(3) 0.3231(3)
H52 H 0.5905 0.3639 0.3071
H53 H 0.4920 0.3521 0.3193
C45 C 0.6309(7) 0.2888(3) 0.4912(4)
H54 H 0.6207 0.2662 0.4774
C46 C 0.6618(5) 0.29225(19) 0.54245(17)
C47 C 0.6959(6) 0.32319(15) 0.5669(3)
C48 C 0.7286(6) 0.32276(17) 0.6181(3)
C49 C 0.7272(5) 0.2914(2) 0.64480(19)
H55 H 0.7491 0.2911 0.6790
C50 C 0.6931(6) 0.26044(16) 0.6203(2)
C51 C 0.6604(5) 0.26087(15) 0.5691(2)
H56 H 0.6376 0.2402 0.5528
C52 C 0.7550(4) 0.1922(2) 0.7205(2)
H57 H 0.7989 0.1900 0.7497
C53 C 0.7512(5) 0.22324(18) 0.6925(3)
H58 H 0.7925 0.2418 0.7031
C54 C 0.6856(5) 0.22654(15) 0.6488(3)
C55 C 0.6239(5) 0.19885(18) 0.63302(19)
H59 H 0.5800 0.2011 0.6038
C56 C 0.6277(4) 0.16786(16) 0.6610(2)
H60 H 0.5864 0.1493 0.6504
N7 N 0.6933(4) 0.16456(16) 0.70472(19)
C57 C 0.7743(10) 0.3567(3) 0.6459(4)
C58 C 0.6987(9) 0.3856(3) 0.6400(4)
H61 H 0.6424 0.3764 0.6497
H62 H 0.6850 0.3930 0.6057
H63 H 0.7211 0.4055 0.6607
C59 C 0.8593(9) 0.3690(3) 0.6256(4)
H64 H 0.8539 0.3616 0.5914
H65 H 0.9150 0.3588 0.6449
H66 H 0.8633 0.3944 0.6274
C60 C 0.8028(9) 0.3492(3) 0.7027(4)
H67 H 0.8502 0.3310 0.7078
H68 H 0.7485 0.3414 0.7158
H69 H 0.8274 0.3704 0.7196
C61 C 0.6224(8) 0.4037(3) 0.3873(3)
H70 H 0.6170 0.4027 0.3527
C62 C 0.6777(5) 0.47591(15) 0.48048(14)
C63 C 0.6878(5) 0.50407(12) 0.4488(2)
H71 H 0.7035 0.5265 0.4620
C64 C 0.6743(5) 0.49874(13) 0.39752(19)
C65 C 0.6507(4) 0.46526(16) 0.37784(14)
H72 H 0.6417 0.4617 0.3435
C66 C 0.6406(5) 0.43710(12) 0.40948(19)
C67 C 0.6541(5) 0.44242(13) 0.46080(18)
C68 C 0.7547(5) 0.58665(13) 0.3521(2)
H73 H 0.7815 0.6076 0.3660
C69 C 0.7271(6) 0.56051(16) 0.38258(16)
H74 H 0.7355 0.5640 0.4169
C70 C 0.6871(5) 0.52921(14) 0.36177(19)
C71 C 0.6746(5) 0.52405(14) 0.3104(2)
H75 H 0.6478 0.5031 0.2965
C72 C 0.7022(6) 0.55019(16) 0.27993(15)
H76 H 0.6938 0.5467 0.2456
N8 N 0.7422(5) 0.58149(13) 0.3007(2)
C73 C 0.6877(7) 0.4840(2) 0.5387(3)
C74 C 0.5979(8) 0.4736(3) 0.5579(3)
H77 H 0.5492 0.4906 0.5465
H78 H 0.6102 0.4732 0.5937
H79 H 0.5779 0.4505 0.5455
C75 C 0.7745(8) 0.4637(3) 0.5645(3)
H80 H 0.7739 0.4624 0.5997
H81 H 0.8305 0.4758 0.5590
H82 H 0.7738 0.4402 0.5510
C76 C 0.7036(9) 0.5238(3) 0.5498(3)
H83 H 0.7137 0.5276 0.5853
H84 H 0.6492 0.5369 0.5343
H85 H 0.7579 0.5317 0.5368
C90 C 0.9792(8) 0.5889(3) 0.2779(4)
Zn4 Zn 0.19692(9) 0.61674(3) 0.74127(4)
Fe4 Fe 0.38489(13) 0.36847(4) 0.51509(5)
O18 O 0.3472(6) 0.41680(17) 0.50813(19)
O19 O 0.2967(6) 0.35385(17) 0.4599(3)
O22 O 0.0275(7) 0.5985(3) 0.6770(3)
O23 O 0.0818(5) 0.59710(14) 0.75936(19)
O24 O 0.2825(8) 0.6257(5) 0.8079(4)
H102 H 0.3371 0.6211 0.8055
N11 N 0.3873(6) 0.3753(2) 0.5908(3)
N12 N 0.3844(8) 0.3175(2) 0.5389(3)
C143 C 0.3982(10) 0.3423(3) 0.6217(4)
H145 H 0.3332 0.3347 0.6221
C144 C 0.4380(8) 0.3133(2) 0.5928(3)
H146 H 0.5052 0.3178 0.5933
C145 C 0.4262(10) 0.2756(3) 0.6161(4)
H147 H 0.4621 0.2577 0.6018
H148 H 0.3605 0.2685 0.6112
C146 C 0.4674(14) 0.2818(3) 0.6737(4)
H149 H 0.4666 0.2590 0.6900
H150 H 0.5331 0.2883 0.6757
C147 C 0.4288(12) 0.3059(3) 0.7022(4)
H151 H 0.4612 0.3051 0.7366
H152 H 0.3625 0.3007 0.7015
C148 C 0.4418(9) 0.3458(3) 0.6769(3)
H153 H 0.4095 0.3639 0.6929
H154 H 0.5080 0.3521 0.6807
C149 C 0.3691(7) 0.2888(3) 0.5088(4)
H155 H 0.3793 0.2662 0.5226
C150 C 0.3382(5) 0.29225(19) 0.45755(17)
C151 C 0.3041(6) 0.32319(15) 0.4331(3)
C152 C 0.2714(6) 0.32276(17) 0.3819(3)
C153 C 0.2728(5) 0.2914(2) 0.35520(19)
H156 H 0.2509 0.2911 0.3210
C154 C 0.3069(6) 0.26044(16) 0.3797(2)
C155 C 0.3396(5) 0.26087(15) 0.4309(2)
H157 H 0.3624 0.2402 0.4472
C156 C 0.2450(4) 0.1922(2) 0.2795(2)
H158 H 0.2011 0.1900 0.2503
C157 C 0.2488(5) 0.22324(18) 0.3075(3)
H159 H 0.2075 0.2418 0.2969
C158 C 0.3144(5) 0.22654(15) 0.3512(3)
C159 C 0.3761(5) 0.19885(18) 0.36698(19)
H160 H 0.4200 0.2011 0.3962
C160 C 0.3723(4) 0.16786(16) 0.3390(2)
H161 H 0.4136 0.1493 0.3496
N15 N 0.3067(4) 0.16456(16) 0.29528(19)
C161 C 0.2257(10) 0.3567(3) 0.3541(4)
C162 C 0.3013(9) 0.3856(3) 0.3600(4)
H162 H 0.3576 0.3764 0.3503
H163 H 0.3150 0.3930 0.3943
H164 H 0.2789 0.4055 0.3393
C163 C 0.1407(9) 0.3690(3) 0.3744(4)
H165 H 0.1461 0.3616 0.4086
H166 H 0.0850 0.3588 0.3551
H167 H 0.1367 0.3944 0.3726
C164 C 0.1972(9) 0.3492(3) 0.2973(4)
H168 H 0.1498 0.3310 0.2922
H169 H 0.2515 0.3414 0.2842
H170 H 0.1726 0.3704 0.2804
C165 C 0.3776(8) 0.4037(3) 0.6127(3)
H171 H 0.3830 0.4027 0.6473
C166 C 0.3223(5) 0.47591(15) 0.51952(14)
C167 C 0.3122(5) 0.50407(12) 0.5512(2)
H172 H 0.2965 0.5265 0.5380
C168 C 0.3257(5) 0.49874(13) 0.60248(19)
C169 C 0.3493(4) 0.46526(16) 0.62216(14)
H173 H 0.3583 0.4617 0.6565
C170 C 0.3594(5) 0.43710(12) 0.59052(19)
C171 C 0.3459(5) 0.44242(13) 0.53920(18)
C172 C 0.2453(5) 0.58665(13) 0.6479(2)
H174 H 0.2185 0.6076 0.6340
C173 C 0.2729(6) 0.56051(16) 0.61742(16)
H175 H 0.2645 0.5640 0.5831
C174 C 0.3129(5) 0.52921(14) 0.63823(19)
C175 C 0.3254(5) 0.52405(14) 0.6896(2)
H176 H 0.3522 0.5031 0.7035
C176 C 0.2978(6) 0.55019(16) 0.72007(15)
H177 H 0.3062 0.5467 0.7544
N16 N 0.2578(5) 0.58149(13) 0.6993(2)
C177 C 0.3123(7) 0.4840(2) 0.4613(3)
C178 C 0.4021(8) 0.4736(3) 0.4421(3)
H178 H 0.4508 0.4906 0.4535
H179 H 0.3898 0.4732 0.4063
H180 H 0.4221 0.4505 0.4545
C179 C 0.2255(8) 0.4637(3) 0.4355(3)
H181 H 0.2261 0.4624 0.4003
H182 H 0.1695 0.4758 0.4410
H183 H 0.2262 0.4402 0.4490
C180 C 0.2964(9) 0.5238(3) 0.4502(3)
H184 H 0.2863 0.5276 0.4147
H185 H 0.3508 0.5369 0.4657
H186 H 0.2421 0.5317 0.4632
C194 C 0.0208(8) 0.5889(3) 0.7221(4)
Zn8 Zn 0.30308(9) 0.11674(3) 0.25873(4)
Zn9 Zn 0.69692(9) 0.11674(3) 0.74127(4)
N19 N 0.1933(4) 0.66456(16) 0.70472(19)
N20 N 0.8067(4) 0.66456(16) 0.29528(19)
H195 H 0.737362 0.610373 0.166101
H196 H 0.262638 0.610373 0.833899
O16 O 0.3432(6) 0.1065(2) 0.0051(2)
N9 N 0.3768(7) 0.2074(2) 0.0430(3)
N10 N 0.4056(7) 0.1483(2) 0.0923(3)
C105 C 0.3773(10) 0.2106(3) 0.0953(3)
H103 H 0.3130 0.2072 0.1016
C106 C 0.4341(12) 0.1825(3) 0.1174(4)
H104 H 0.4983 0.1874 0.1119
C107 C 0.4376(12) 0.1827(4) 0.1742(3)
H105 H 0.3747 0.1790 0.1815
H106 H 0.4775 0.1635 0.1893
C108 C 0.4738(12) 0.2159(3) 0.1954(4)
H107 H 0.4648 0.2161 0.2300
H108 H 0.5413 0.2158 0.1959
C109 C 0.4382(14) 0.2481(4) 0.1738(5)
H109 H 0.4847 0.2666 0.1834
H110 H 0.3820 0.2544 0.1870
C110 C 0.4139(12) 0.2465(3) 0.1165(4)
H111 H 0.3665 0.2643 0.1052
H112 H 0.4699 0.2525 0.1029
C111 C 0.3910(9) 0.1186(3) 0.1144(4)
H113 H 0.3998 0.1186 0.1491
C112 C 0.3268(5) 0.04549(15) 0.01737(13)
C113 C 0.3498(5) 0.07906(13) 0.03689(17)
C114 C 0.3611(6) 0.08468(13) 0.08809(18)
C115 C 0.3494(6) 0.05672(16) 0.11978(13)
H114 H 0.3570 0.0605 0.1540
C116 C 0.3265(6) 0.02314(14) 0.10026(18)
C117 C 0.3152(5) 0.01753(12) 0.04906(19)
C121 C 0.2472(5) 0.00374(10) 0.17205(19)
H118 H 0.2348 0.0273 0.1789
C127 C 0.3626(9) 0.2327(3) 0.0133(4)
H129 H 0.3722 0.2552 0.0272
O17 O 0.3034(6) 0.1712(2) 0.9542(3)
O20 O 0.4126(5) 0.4259(2) 0.7431(3)
O21 O 0.4692(5) 0.4292(2) 0.8230(3)
C123 C 0.3138(11) 0.0388(3) 0.9612(4)
C125 C 0.2238(10) 0.0577(3) 0.9349(5)
H123 H 0.1694 0.0449 0.9411
H124 H 0.2238 0.0586 0.8996
H125 H 0.2222 0.0814 0.9477
C126 C 0.3972(10) 0.0535(3) 0.9396(5)
H126 H 0.3931 0.0455 0.9058
H127 H 0.4550 0.0452 0.9592
H128 H 0.3958 0.0789 0.9403
C128 C 0.3323(5) 0.2313(2) 0.95821(17)
C129 C 0.3375(5) 0.26254(16) 0.9317(2)
H130 H 0.3563 0.2835 0.9486
C130 C 0.3148(6) 0.26245(16) 0.8799(2)
C131 C 0.2867(6) 0.2311(2) 0.85461(17)
H131 H 0.2715 0.2311 0.8200
C132 C 0.2815(7) 0.19991(16) 0.8812(2)
C133 C 0.3043(6) 0.20000(16) 0.9330(2)
C134 C 0.2550(5) 0.33383(14) 0.77814(18)
H132 H 0.2154 0.3372 0.7477
C135 C 0.2519(5) 0.30214(13) 0.8039(2)
H133 H 0.2102 0.2843 0.7907
C136 C 0.3111(5) 0.29704(13) 0.8495(2)
C137 C 0.3734(4) 0.32364(18) 0.8692(2)
H134 H 0.4130 0.3202 0.8997
C138 C 0.3765(4) 0.35533(15) 0.8435(2)
H135 H 0.4182 0.3731 0.8567
N14 N 0.3173(4) 0.36043(11) 0.79792(18)
C139 C 0.2551(10) 0.1650(3) 0.8492(4)
C140 C 0.2397(11) 0.1699(3) 0.7922(4)
H136 H 0.2956 0.1798 0.7828
H137 H 0.1876 0.1857 0.7821
H138 H 0.2262 0.1474 0.7761
C141 C 0.1651(10) 0.1522(3) 0.8599(4)
H139 H 0.1238 0.1720 0.8617
H140 H 0.1752 0.1398 0.8911
H141 H 0.1369 0.1365 0.8338
C142 C 0.3350(10) 0.1377(3) 0.8649(5)
H142 H 0.3084 0.1144 0.8653
H143 H 0.3684 0.1435 0.8976
H144 H 0.3778 0.1383 0.8415
C181 C 0.4728(7) 0.4357(3) 0.7800(4)
C182 C 0.5824(5) 0.45812(18) 0.7255(2)
H187 H 0.5508 0.4435 0.7006
C183 C 0.6565(5) 0.4792(2) 0.7162(2)
H188 H 0.6746 0.4787 0.6850
C184 C 0.7038(5) 0.5011(2) 0.7535(2)
C185 C 0.6768(6) 0.5019(2) 0.8001(2)
H189 H 0.7084 0.5165 0.8251
C186 C 0.6026(6) 0.4808(2) 0.80946(18)
H190 H 0.5846 0.4813 0.8407
C187 C 0.5554(5) 0.4589(2) 0.7722(2)
C188 C 0.9368(5) 0.5664(2) 0.7313(3)
C189 C 0.9201(5) 0.55931(19) 0.7791(2)
H191 H 0.9601 0.5685 0.8067
C190 C 0.8434(5) 0.5385(2) 0.78573(18)
H192 H 0.8322 0.5338 0.8177
C191 C 0.7836(5) 0.5248(2) 0.7445(2)
C192 C 0.8003(6) 0.5319(3) 0.6967(2)
H193 H 0.7603 0.5227 0.6691
C193 C 0.8770(6) 0.5526(3) 0.69002(19)
H194 H 0.8882 0.5574 0.6580
N17 N 0.2590(4) 0.44166(11) 0.80801(17)
Fe1_2 Fe 0.11251(14) 0.65511(4) 0.98564(5)
O1_2 O 0.1568(6) 0.6065(2) 0.9949(2)
O3_3 O -0.0000 0.6611(3) 1.0000
N1_2 N 0.1232(7) 0.7074(2) 0.9570(3)
N2_2 N 0.0944(7) 0.6483(2) 0.9077(3)
C1_2 C 0.1227(10) 0.7106(3) 0.9047(3)
H2_2 H 0.1870 0.7072 0.8984
C2_2 C 0.0659(12) 0.6825(3) 0.8826(4)
H3_2 H 0.0017 0.6874 0.8881
C3_2 C 0.0624(12) 0.6827(4) 0.8258(3)
H4_2 H 0.1253 0.6790 0.8185
H5_2 H 0.0225 0.6635 0.8107
C4_2 C 0.0262(12) 0.7159(3) 0.8046(4)
H6_2 H 0.0352 0.7161 0.7700
C5_2 C 0.0618(14) 0.7481(4) 0.8262(5)
H8_2 H 0.0153 0.7666 0.8166
H9_2 H 0.1180 0.7544 0.8130
C6_2 C 0.0861(12) 0.7465(3) 0.8835(4)
H10_2 H 0.1335 0.7643 0.8948
H11_2 H 0.0301 0.7525 0.8971
C7_2 C 0.1090(9) 0.6186(3) 0.8856(4)
H12_2 H 0.1002 0.6186 0.8509
C8_2 C 0.1732(5) 0.54549(15) 0.98263(13)
C9_2 C 0.1502(5) 0.57906(13) 0.96311(17)
C10_2 C 0.1389(6) 0.58468(13) 0.91191(18)
C11_2 C 0.1506(6) 0.55672(16) 0.88022(13)
H13_2 H 0.1430 0.5605 0.8460
C12_2 C 0.1735(6) 0.52314(14) 0.89974(18)
C13_2 C 0.1848(5) 0.51753(12) 0.95094(19)
H14 H 0.2002 0.4951 0.9640
C14 C 0.2156(4) 0.43341(10) 0.84839(19)
H15 H 0.2032 0.4099 0.8552
C15 C 0.1908(5) 0.46032(14) 0.87856(17)
H16 H 0.1618 0.4548 0.9056
C16 C 0.2094(5) 0.49548(12) 0.86834(18)
C17_2 C 0.2528(5) 0.50374(10) 0.82795(19)
H17_2 H 0.2652 0.5273 0.8211
C18 C 0.2776(4) 0.47683(13) 0.79779(16)
H18 H 0.3066 0.4823 0.7708
C23_2 C 0.1374(9) 0.7327(3) 0.9867(4)
H28_2 H 0.1278 0.7552 0.9728
O11_2 O 0.4725(7) 0.0985(3) 0.3230(3)
O12_2 O 0.4182(5) 0.09710(14) 0.24064(19)
O13_2 O 0.2175(8) 0.1257(5) 0.1921(4)
H1_2 H 0.1629 0.1211 0.1945
C63_2 C 0.1878(5) 0.00407(12) 0.4488(2)
H71_2 H 0.2035 0.0265 0.4620
C68_2 C 0.2547(5) 0.08665(13) 0.3521(2)
H73_2 H 0.2815 0.1076 0.3660
C69_2 C 0.2271(6) 0.06051(16) 0.38258(16)
H74_2 H 0.2355 0.0640 0.4169
C70_2 C 0.1871(5) 0.02921(14) 0.36177(19)
C71_2 C 0.1746(5) 0.02405(14) 0.3104(2)
H75_2 H 0.1478 0.0031 0.2965
C72_2 C 0.2022(6) 0.05019(16) 0.27993(15)
H76_2 H 0.1938 0.0467 0.2456
N8_2 N 0.2422(5) 0.08149(13) 0.3007(2)
C76_2 C 0.2036(9) 0.0238(3) 0.5498(3)
H83_2 H 0.2137 0.0276 0.5853
H84_2 H 0.1492 0.0369 0.5343
H85_2 H 0.2579 0.0317 0.5368
C80_2 C 0.7962(5) 0.0011(2) 0.2465(2)
C81_2 C 0.8232(6) 0.0019(2) 0.1999(2)
H88_2 H 0.7916 0.0165 0.1749
C84_2 C 0.5632(5) 0.0664(2) 0.2687(3)
C85_2 C 0.5799(5) 0.05931(19) 0.2209(2)
H90_2 H 0.5399 0.0685 0.1933
C86_2 C 0.6566(5) 0.0385(2) 0.21427(18)
H91_2 H 0.6678 0.0338 0.1823
C87_2 C 0.7164(5) 0.0248(2) 0.2555(2)
C88_2 C 0.6997(6) 0.0319(3) 0.3033(2)
H92_2 H 0.7397 0.0227 0.3309
C89_2 C 0.6230(6) 0.0526(3) 0.30998(19)
H93_2 H 0.6118 0.0574 0.3420
C90_2 C 0.4792(8) 0.0889(3) 0.2779(4)
H195_2 H 0.237362 0.110373 0.166101
Fe2_2 Fe 0.11511(13) 0.86847(4) 0.48491(5)
O3_4 O 1.0000 0.6611(3) 0.0000
O4_2 O 0.1528(6) 0.91680(17) 0.49187(19)
O5_2 O 0.2033(6) 0.85385(17) 0.5401(3)
O6_2 O -0.0000 0.8703(3) 0.5000
N3_2 N 0.1127(6) 0.8753(2) 0.4092(3)
N4_2 N 0.1156(8) 0.8175(2) 0.4611(3)
C39_2 C 0.1018(10) 0.8423(3) 0.3783(4)
H44_2 H 0.1668 0.8347 0.3779
C40_2 C 0.0620(8) 0.8133(2) 0.4072(3)
C41_2 C 0.0738(10) 0.7756(3) 0.3839(4)
H46_2 H 0.0379 0.7577 0.3982
H47_2 H 0.1395 0.7685 0.3888
C42_2 C 0.0326(14) 0.7818(3) 0.3263(4)
H48_2 H 0.0334 0.7590 0.3100
C43_2 C 0.0712(12) 0.8059(3) 0.2978(4)
H50_2 H 0.0388 0.8051 0.2634
H51_2 H 0.1375 0.8007 0.2985
C44_2 C 0.0582(9) 0.8458(3) 0.3231(3)
H52_2 H 0.0905 0.8639 0.3071
C45_2 C 0.1309(7) 0.7888(3) 0.4912(4)
H54_2 H 0.1207 0.7662 0.4774
C46_2 C 0.1618(5) 0.79225(19) 0.54245(17)
C47_2 C 0.1959(6) 0.82319(15) 0.5669(3)
C48_2 C 0.2286(6) 0.82276(17) 0.6181(3)
C49_2 C 0.2272(5) 0.7914(2) 0.64480(19)
H55_2 H 0.2491 0.7911 0.6790
C50_2 C 0.1931(6) 0.76044(16) 0.6203(2)
C51_2 C 0.1604(5) 0.76087(15) 0.5691(2)
H56_2 H 0.1376 0.7402 0.5528
C52_2 C 0.2550(4) 0.6922(2) 0.7205(2)
H57_2 H 0.2989 0.6900 0.7497
C53_2 C 0.2512(5) 0.72324(18) 0.6925(3)
H58_2 H 0.2925 0.7418 0.7031
C54_2 C 0.1856(5) 0.72654(15) 0.6488(3)
C55_2 C 0.1239(5) 0.69885(18) 0.63302(19)
H59_2 H 0.0800 0.7011 0.6038
C56_2 C 0.1277(4) 0.66786(16) 0.6610(2)
H60_2 H 0.0864 0.6493 0.6504
C57_2 C 0.2743(10) 0.8567(3) 0.6459(4)
C58_2 C 0.1987(9) 0.8856(3) 0.6400(4)
H61_2 H 0.1424 0.8764 0.6497
H62_2 H 0.1850 0.8930 0.6057
H63_2 H 0.2211 0.9055 0.6607
C59_2 C 0.3593(9) 0.8690(3) 0.6256(4)
H64_2 H 0.3539 0.8616 0.5914
H65_2 H 0.4150 0.8588 0.6449
H66_2 H 0.3633 0.8944 0.6274
C60_2 C 0.3028(9) 0.8492(3) 0.7027(4)
H67_2 H 0.3502 0.8310 0.7078
H68_2 H 0.2485 0.8414 0.7158
H69_2 H 0.3274 0.8704 0.7196
C61_2 C 0.1224(8) 0.9037(3) 0.3873(3)
H70_2 H 0.1170 0.9027 0.3527
C62_2 C 0.1777(5) 0.97591(15) 0.48048(14)
C64_2 C 0.1743(5) 0.99874(13) 0.39752(19)
C65_2 C 0.1507(4) 0.96526(16) 0.37784(14)
H72_2 H 0.1417 0.9617 0.3435
C66_2 C 0.1406(5) 0.93710(12) 0.40948(19)
C67_2 C 0.1541(5) 0.94242(13) 0.46080(18)
C73_2 C 0.1877(7) 0.9840(2) 0.5387(3)
C74_2 C 0.0979(8) 0.9736(3) 0.5579(3)
H77_2 H 0.0492 0.9906 0.5465
H78_2 H 0.1102 0.9732 0.5937
H79_2 H 0.0779 0.9505 0.5455
C75_2 C 0.2745(8) 0.9637(3) 0.5645(3)
H80_2 H 0.2739 0.9624 0.5997
H81_2 H 0.3305 0.9758 0.5590
H82_2 H 0.2738 0.9402 0.5510
C78_2 C 0.9176(5) 0.95812(18) 0.2745(2)
H86_2 H 0.9492 0.9435 0.2994
C79_2 C 0.8435(5) 0.9792(2) 0.2838(2)
H87_2 H 0.8254 0.9787 0.3150
C82_2 C 0.8974(6) 0.9808(2) 0.19054(18)
H89_2 H 0.9154 0.9813 0.1593
C83_2 C 0.9446(5) 0.9589(2) 0.2278(2)
H146_2 H 0.0052 0.8178 0.5933
H150_2 H 0.0331 0.7883 0.6757
H154_2 H 0.0080 0.8521 0.6807
Fe5_2 Fe 0.88749(14) 0.65511(4) 0.01436(5)
O22_2 O 0.5275(7) 0.0985(3) 0.6770(3)
O23_2 O 0.5818(5) 0.09710(14) 0.75936(19)
O24_2 O 0.7825(8) 0.1257(5) 0.8079(4)
H102_2 H 0.8371 0.1211 0.8055
C167_2 C 0.8122(5) 0.00407(12) 0.5512(2)
H172_2 H 0.7965 0.0265 0.5380
C172_2 C 0.7453(5) 0.08665(13) 0.6479(2)
H174_2 H 0.7185 0.1076 0.6340
C173_2 C 0.7729(6) 0.06051(16) 0.61742(16)
H175_2 H 0.7645 0.0640 0.5831
C174_2 C 0.8129(5) 0.02921(14) 0.63823(19)
C175_2 C 0.8254(5) 0.02405(14) 0.6896(2)
H176_2 H 0.8522 0.0031 0.7035
C176_2 C 0.7978(6) 0.05019(16) 0.72007(15)
H177_2 H 0.8062 0.0467 0.7544
N16_2 N 0.7578(5) 0.08149(13) 0.6993(2)
C180_2 C 0.7964(9) 0.0238(3) 0.4502(3)
H184_2 H 0.7863 0.0276 0.4147
H185_2 H 0.8508 0.0369 0.4657
H186_2 H 0.7421 0.0317 0.4632
C184_2 C 0.2038(5) 0.0011(2) 0.7535(2)
C185_2 C 0.1768(6) 0.0019(2) 0.8001(2)
H189_2 H 0.2084 0.0165 0.8251
C188_2 C 0.4368(5) 0.0664(2) 0.7313(3)
C189_2 C 0.4201(5) 0.05931(19) 0.7791(2)
H191_2 H 0.4601 0.0685 0.8067
C190_2 C 0.3434(5) 0.0385(2) 0.78573(18)
H192_2 H 0.3322 0.0338 0.8177
C191_2 C 0.2836(5) 0.0248(2) 0.7445(2)
C192_2 C 0.3003(6) 0.0319(3) 0.6967(2)
H193_2 H 0.2603 0.0227 0.6691
C193_2 C 0.3770(6) 0.0526(3) 0.69002(19)
H194_2 H 0.3882 0.0574 0.6580
C194_2 C 0.5208(8) 0.0889(3) 0.7221(4)
H196_2 H 0.762638 0.110373 0.833899
O6_3 O 1.0000 0.8703(3) 0.5000
H45_2 H 0.9948 0.8178 0.4067
H49_2 H 0.9669 0.7883 0.3243
H53_2 H 0.9920 0.8521 0.3193
Fe4_2 Fe 0.88489(13) 0.86847(4) 0.51509(5)
O18_2 O 0.8472(6) 0.91680(17) 0.50813(19)
O19_2 O 0.7967(6) 0.85385(17) 0.4599(3)
N11_2 N 0.8873(6) 0.8753(2) 0.5908(3)
N12_2 N 0.8844(8) 0.8175(2) 0.5389(3)
C143_2 C 0.8982(10) 0.8423(3) 0.6217(4)
H145_2 H 0.8332 0.8347 0.6221
C144_2 C 0.9380(8) 0.8133(2) 0.5928(3)
C145_2 C 0.9262(10) 0.7756(3) 0.6161(4)
H147_2 H 0.9621 0.7577 0.6018
H148_2 H 0.8605 0.7685 0.6112
C146_2 C 0.9674(14) 0.7818(3) 0.6737(4)
H149_2 H 0.9666 0.7590 0.6900
C147_2 C 0.9288(12) 0.8059(3) 0.7022(4)
H151_2 H 0.9612 0.8051 0.7366
H152_2 H 0.8625 0.8007 0.7015
C148_2 C 0.9418(9) 0.8458(3) 0.6769(3)
H153_2 H 0.9095 0.8639 0.6929
C149_2 C 0.8691(7) 0.7888(3) 0.5088(4)
H155_2 H 0.8793 0.7662 0.5226
C150_2 C 0.8382(5) 0.79225(19) 0.45755(17)
C151_2 C 0.8041(6) 0.82319(15) 0.4331(3)
C152_2 C 0.7714(6) 0.82276(17) 0.3819(3)
C153_2 C 0.7728(5) 0.7914(2) 0.35520(19)
H156_2 H 0.7509 0.7911 0.3210
C154_2 C 0.8069(6) 0.76044(16) 0.3797(2)
C155_2 C 0.8396(5) 0.76087(15) 0.4309(2)
H157_2 H 0.8624 0.7402 0.4472
C156_2 C 0.7450(4) 0.6922(2) 0.2795(2)
H158_2 H 0.7011 0.6900 0.2503
C157_2 C 0.7488(5) 0.72324(18) 0.3075(3)
H159_2 H 0.7075 0.7418 0.2969
C158_2 C 0.8144(5) 0.72654(15) 0.3512(3)
C159_2 C 0.8761(5) 0.69885(18) 0.36698(19)
H160_2 H 0.9200 0.7011 0.3962
C160_2 C 0.8723(4) 0.66786(16) 0.3390(2)
H161_2 H 0.9136 0.6493 0.3496
C161_2 C 0.7257(10) 0.8567(3) 0.3541(4)
C162_2 C 0.8013(9) 0.8856(3) 0.3600(4)
H162_2 H 0.8576 0.8764 0.3503
H163_2 H 0.8150 0.8930 0.3943
H164_2 H 0.7789 0.9055 0.3393
C163_2 C 0.6407(9) 0.8690(3) 0.3744(4)
H165_2 H 0.6461 0.8616 0.4086
H166_2 H 0.5850 0.8588 0.3551
H167_2 H 0.6367 0.8944 0.3726
C164_2 C 0.6972(9) 0.8492(3) 0.2973(4)
H168_2 H 0.6498 0.8310 0.2922
H169_2 H 0.7515 0.8414 0.2842
H170_2 H 0.6726 0.8704 0.2804
C165_2 C 0.8776(8) 0.9037(3) 0.6127(3)
H171_2 H 0.8830 0.9027 0.6473
C166_2 C 0.8223(5) 0.97591(15) 0.51952(14)
C168_2 C 0.8257(5) 0.99874(13) 0.60248(19)
C169_2 C 0.8493(4) 0.96526(16) 0.62216(14)
H173_2 H 0.8583 0.9617 0.6565
C170_2 C 0.8594(5) 0.93710(12) 0.59052(19)
C171_2 C 0.8459(5) 0.94242(13) 0.53920(18)
C177_2 C 0.8123(7) 0.9840(2) 0.4613(3)
C178_2 C 0.9021(8) 0.9736(3) 0.4421(3)
H178_2 H 0.9508 0.9906 0.4535
H179_2 H 0.8898 0.9732 0.4063
H180_2 H 0.9221 0.9505 0.4545
C179_2 C 0.7255(8) 0.9637(3) 0.4355(3)
H181_2 H 0.7261 0.9624 0.4003
H182_2 H 0.6695 0.9758 0.4410
H183_2 H 0.7262 0.9402 0.4490
C182_2 C 0.0824(5) 0.95812(18) 0.7255(2)
H187_2 H 0.0508 0.9435 0.7006
C183_2 C 0.1565(5) 0.9792(2) 0.7162(2)
H188_2 H 0.1746 0.9787 0.6850
C186_2 C 0.1026(6) 0.9808(2) 0.80946(18)
H190_2 H 0.0846 0.9813 0.8407
C187_2 C 0.0554(5) 0.9589(2) 0.7722(2)
O16_2 O 0.8432(6) 0.6065(2) 0.0051(2)
N9_2 N 0.8768(7) 0.7074(2) 0.0430(3)
N10_2 N 0.9056(7) 0.6483(2) 0.0923(3)
C105_2 C 0.8773(10) 0.7106(3) 0.0953(3)
H103_2 H 0.8130 0.7072 0.1016
C106_2 C 0.9341(12) 0.6825(3) 0.1174(4)
H104_2 H 0.9983 0.6874 0.1119
C107_2 C 0.9376(12) 0.6827(4) 0.1742(3)
H105_2 H 0.8747 0.6790 0.1815
H106_2 H 0.9775 0.6635 0.1893
C108_2 C 0.9738(12) 0.7159(3) 0.1954(4)
H107_2 H 0.9648 0.7161 0.2300
C109_2 C 0.9382(14) 0.7481(4) 0.1738(5)
H109_2 H 0.9847 0.7666 0.1834
H110_2 H 0.8820 0.7544 0.1870
C110_2 C 0.9139(12) 0.7465(3) 0.1165(4)
H111_2 H 0.8665 0.7643 0.1052
H112_2 H 0.9699 0.7525 0.1029
C111_2 C 0.8910(9) 0.6186(3) 0.1144(4)
H113_2 H 0.8998 0.6186 0.1491
C112_2 C 0.8268(5) 0.54549(15) 0.01737(13)
C113_2 C 0.8498(5) 0.57906(13) 0.03689(17)
C114_2 C 0.8611(6) 0.58468(13) 0.08809(18)
C115_2 C 0.8494(6) 0.55672(16) 0.11978(13)
H114_2 H 0.8570 0.5605 0.1540
C116_2 C 0.8265(6) 0.52314(14) 0.10026(18)
C117_2 C 0.8152(5) 0.51753(12) 0.04906(19)
H115 H 0.7998 0.4951 0.0360
C118 C 0.7844(4) 0.43341(10) 0.15161(19)
H116 H 0.7968 0.4099 0.1448
C119 C 0.8092(5) 0.46032(14) 0.12144(17)
H117 H 0.8382 0.4548 0.0944
C120 C 0.7906(5) 0.49548(12) 0.13166(18)
C121_2 C 0.7472(5) 0.50374(10) 0.17205(19)
H118_2 H 0.7348 0.5273 0.1789
C122 C 0.7224(4) 0.47683(13) 0.20221(16)
H119 H 0.6934 0.4823 0.2292
C127_2 C 0.8626(9) 0.7327(3) 0.0133(4)
H129_2 H 0.8722 0.7552 0.0272
C20 C 0.6935(12) 0.9990(3) 0.0516(4)
H19 H 0.7453 0.9888 0.0386
H20 H 0.6360 0.9873 0.0371
H21 H 0.7037 0.9960 0.0872
H14_2 H 0.7002 0.9951 0.9640
C14_2 C 0.7156(4) 0.93341(10) 0.84839(19)
H15_2 H 0.7032 0.9099 0.8552
C15_2 C 0.6908(5) 0.96032(14) 0.87856(17)
H16_2 H 0.6618 0.9548 0.9056
C16_2 C 0.7094(5) 0.99548(12) 0.86834(18)
C18_2 C 0.7776(4) 0.97683(13) 0.79779(16)
H18_2 H 0.8066 0.9823 0.7708
N5 N 0.7590(4) 0.94166(11) 0.80801(17)
Zn7 Zn 0.79998(9) 0.90655(3) 0.75956(4)
H115_2 H 0.2998 0.9951 0.0360
C118_2 C 0.2844(4) 0.93341(10) 0.15161(19)
H116_2 H 0.2968 0.9099 0.1448
C119_2 C 0.3092(5) 0.96032(14) 0.12144(17)
H117_2 H 0.3382 0.9548 0.0944
C120_2 C 0.2906(5) 0.99548(12) 0.13166(18)
C122_2 C 0.2224(4) 0.97683(13) 0.20221(16)
H119_2 H 0.1934 0.9823 0.2292
N13 N 0.2410(4) 0.94166(11) 0.19199(17)
Zn6 Zn 0.20002(9) 0.90655(3) 0.24044(4)
O2_2 O 0.1966(6) 0.6712(2) 0.0458(3)
O3_5 O 0.0000 0.6611(3) 0.0000
O7_2 O 0.0874(5) 0.9259(2) 0.2569(3)
O8_2 O 0.0308(5) 0.9292(2) 0.1770(3)
O9_2 O 0.3042(5) 0.9407(2) 0.3018(2)
O10_2 O 0.2638(5) 0.8886(2) 0.3055(2)
C19_2 C 0.1862(11) 0.5388(3) 0.0388(4)
C20_2 C 0.1935(12) 0.4990(3) 0.0516(4)
H19_2 H 0.2453 0.4888 0.0386
H20_2 H 0.1360 0.4873 0.0371
H21_2 H 0.2037 0.4960 0.0872
C21_2 C 0.2762(10) 0.5577(3) 0.0651(5)
H22_2 H 0.3306 0.5449 0.0589
H23_2 H 0.2762 0.5586 0.1004
H24_2 H 0.2778 0.5814 0.0523
C22_2 C 0.1028(10) 0.5535(3) 0.0604(5)
H25_2 H 0.1069 0.5455 0.0942
H26_2 H 0.0450 0.5452 0.0408
H27_2 H 0.1042 0.5789 0.0597
C24_2 C 0.1677(5) 0.7313(2) 0.04179(17)
C25_2 C 0.1625(5) 0.76254(16) 0.0683(2)
H29_2 H 0.1437 0.7835 0.0514
C26_2 C 0.1852(6) 0.76245(16) 0.1201(2)
C27_2 C 0.2133(6) 0.7311(2) 0.14539(17)
H30_2 H 0.2285 0.7311 0.1800
C28_2 C 0.2185(7) 0.69991(16) 0.1188(2)
C29_2 C 0.1957(6) 0.70000(16) 0.0670(2)
C30_2 C 0.2450(5) 0.83383(14) 0.22186(18)
H31_2 H 0.2846 0.8372 0.2523
C31_2 C 0.2481(5) 0.80214(13) 0.1961(2)
H32_2 H 0.2898 0.7843 0.2093
C32_2 C 0.1889(5) 0.79704(13) 0.1505(2)
C33_2 C 0.1266(4) 0.82364(18) 0.1308(2)
H33_2 H 0.0870 0.8202 0.1003
C34_2 C 0.1235(4) 0.85533(15) 0.1565(2)
H34_2 H 0.0818 0.8731 0.1433
N6_2 N 0.1827(4) 0.86043(11) 0.20208(18)
C35_2 C 0.2449(10) 0.6650(3) 0.1508(4)
C36_2 C 0.2603(11) 0.6699(3) 0.2078(4)
H35_2 H 0.2044 0.6798 0.2172
H36_2 H 0.3124 0.6857 0.2179
H37_2 H 0.2738 0.6474 0.2239
C37_2 C 0.3349(10) 0.6522(3) 0.1401(4)
H38_2 H 0.3762 0.6720 0.1383
H39_2 H 0.3248 0.6398 0.1089
H40_2 H 0.3631 0.6365 0.1662
C38_2 C 0.1650(10) 0.6377(3) 0.1351(5)
H41_2 H 0.1916 0.6144 0.1347
H42_2 H 0.1316 0.6435 0.1024
H43_2 H 0.1222 0.6383 0.1585
C77_2 C 0.0272(7) 0.9357(3) 0.2200(4)
C91_2 C 0.3151(7) 0.9117(3) 0.3224(3)
C92_2 C 0.3646(4) 0.90822(16) 0.37743(16)
C93_2 C 0.4198(4) 0.93717(14) 0.39571(18)
H94_2 H 0.4209 0.9573 0.3760
C94_2 C 0.4733(4) 0.93606(14) 0.44342(19)
H95_2 H 0.5102 0.9554 0.4557
C95_2 C 0.4716(4) 0.90601(16) 0.47286(16)
C96_2 C 0.4164(4) 0.87706(14) 0.45458(19)
H96_2 H 0.4153 0.8569 0.4743
C97_2 C 0.3629(4) 0.87816(14) 0.4069(2)
H97_2 H 0.3260 0.8588 0.3946
O14_2 O 0.6958(5) 0.9407(2) 0.6982(2)
O15_2 O 0.7362(5) 0.8886(2) 0.6945(2)
C98_2 C 0.6849(7) 0.9117(3) 0.6776(3)
C99_2 C 0.6354(4) 0.90822(16) 0.62257(16)
C100_2 C 0.5802(4) 0.93717(14) 0.60429(18)
H98_2 H 0.5791 0.9573 0.6240
C101_2 C 0.5267(4) 0.93606(14) 0.55658(19)
H99_2 H 0.4898 0.9554 0.5443
C102_2 C 0.5284(4) 0.90601(16) 0.52714(16)
C103_2 C 0.5836(4) 0.87706(14) 0.54542(19)
H100_2 H 0.5847 0.8569 0.5257
C104_2 C 0.6371(4) 0.87816(14) 0.5931(2)
H101_2 H 0.6740 0.8588 0.6054
O3_6 O 1.0000 0.6611(3) 1.0000
H7_2 H 0.9587 0.7158 0.8041
H108_2 H 0.0413 0.7158 0.1959
O17_2 O 0.8034(6) 0.6712(2) 0.9542(3)
O20_2 O 0.9126(5) 0.9259(2) 0.7431(3)
O21_2 O 0.9692(5) 0.9292(2) 0.8230(3)
C123_2 C 0.8138(11) 0.5388(3) 0.9612(4)
C124 C 0.8065(12) 0.4990(3) 0.9484(4)
H120 H 0.7547 0.4888 0.9614
H121 H 0.8640 0.4873 0.9629
H122 H 0.7963 0.4960 0.9128
C125_2 C 0.7238(10) 0.5577(3) 0.9349(5)
H123_2 H 0.6694 0.5449 0.9411
H124_2 H 0.7238 0.5586 0.8996
H125_2 H 0.7222 0.5814 0.9477
C126_2 C 0.8972(10) 0.5535(3) 0.9396(5)
H126_2 H 0.8931 0.5455 0.9058
H127_2 H 0.9550 0.5452 0.9592
H128_2 H 0.8958 0.5789 0.9403
C128_2 C 0.8323(5) 0.7313(2) 0.95821(17)
C129_2 C 0.8375(5) 0.76254(16) 0.9317(2)
H130_2 H 0.8563 0.7835 0.9486
C130_2 C 0.8148(6) 0.76245(16) 0.8799(2)
C131_2 C 0.7867(6) 0.7311(2) 0.85461(17)
H131_2 H 0.7715 0.7311 0.8200
C132_2 C 0.7815(7) 0.69991(16) 0.8812(2)
C133_2 C 0.8043(6) 0.70000(16) 0.9330(2)
C134_2 C 0.7550(5) 0.83383(14) 0.77814(18)
H132_2 H 0.7154 0.8372 0.7477
C135_2 C 0.7519(5) 0.80214(13) 0.8039(2)
H133_2 H 0.7102 0.7843 0.7907
C136_2 C 0.8111(5) 0.79704(13) 0.8495(2)
C137_2 C 0.8734(4) 0.82364(18) 0.8692(2)
H134_2 H 0.9130 0.8202 0.8997
C138_2 C 0.8765(4) 0.85533(15) 0.8435(2)
H135_2 H 0.9182 0.8731 0.8567
N14_2 N 0.8173(4) 0.86043(11) 0.79792(18)
C139_2 C 0.7551(10) 0.6650(3) 0.8492(4)
C140_2 C 0.7397(11) 0.6699(3) 0.7922(4)
H136_2 H 0.7956 0.6798 0.7828
H137_2 H 0.6876 0.6857 0.7821
H138_2 H 0.7262 0.6474 0.7761
C141_2 C 0.6651(10) 0.6522(3) 0.8599(4)
H139_2 H 0.6238 0.6720 0.8617
H140_2 H 0.6752 0.6398 0.8911
H141_2 H 0.6369 0.6365 0.8338
C142_2 C 0.8350(10) 0.6377(3) 0.8649(5)
H142_2 H 0.8084 0.6144 0.8653
H143_2 H 0.8684 0.6435 0.8976
H144_2 H 0.8778 0.6383 0.8415
C181_2 C 0.9728(7) 0.9357(3) 0.7800(4)
C124_2 C 0.3065(12) 0.9990(3) 0.9484(4)
H120_2 H 0.2547 0.9888 0.9614
H121_2 H 0.3640 0.9873 0.9629
H122_2 H 0.2963 0.9960 0.9128
loop_
_geom_bond_atom_site_label_1
_geom_bond_atom_site_label_2
_geom_bond_site_symmetry_1
_geom_bond_site_symmetry_2
O14 C98 1_555 1_555
O15 C98 1_555 1_555
C98 C99 1_555 1_555
C99 C100 1_555 1_555
C100 H98 1_555 1_555
C101 C100 1_555 1_555
C103 C102 1_555 1_555
H100 C103 1_555 1_555
C104 C99 1_555 1_555
H101 C104 1_555 1_555
Zn5 O14 1_555 1_555
O15 Zn5 1_555 1_555
C101 C102 1_555 1_555
C103 C104 1_555 1_555
Zn1 O7 1_555 1_555
O7 C77 1_555 1_555
O8 C77 1_555 1_555
O9 Zn1 1_555 1_555
O10 Zn1 1_555 1_555
C21 C19 1_555 1_555
H22 C21 1_555 1_555
H23 C21 1_555 1_555
H24 C21 1_555 1_555
C22 C19 1_555 1_555
H25 C22 1_555 1_555
H26 C22 1_555 1_555
H27 C22 1_555 1_555
C25 C24 1_555 1_555
H29 C25 1_555 1_555
C26 C25 1_555 1_555
C27 C26 1_555 1_555
H30 C27 1_555 1_555
C28 C27 1_555 1_555
C29 O2 1_555 1_555
C30 H31 1_555 1_555
C31 C30 1_555 1_555
H32 C31 1_555 1_555
C32 C26 1_555 1_555
C33 C32 1_555 1_555
H33 C33 1_555 1_555
C34 C33 1_555 1_555
H34 C34 1_555 1_555
N6 Zn1 1_555 1_555
C35 C28 1_555 1_555
C36 C35 1_555 1_555
H35 C36 1_555 1_555
H36 C36 1_555 1_555
H37 C36 1_555 1_555
C37 C35 1_555 1_555
H38 C37 1_555 1_555
H39 C37 1_555 1_555
H40 C37 1_555 1_555
C38 C35 1_555 1_555
H41 C38 1_555 1_555
H42 C38 1_555 1_555
H43 C38 1_555 1_555
C77 C83 1_555 1_555
C78 H86 1_555 1_555
C79 C78 1_555 1_555
H87 C79 1_555 1_555
C80 C79 1_555 1_555
C81 C80 1_555 1_555
H88 C81 1_555 1_555
C82 C81 1_555 1_555
H89 C82 1_555 1_555
C83 C78 1_555 1_555
C84 C85 1_555 1_555
C85 H90 1_555 1_555
C86 C85 1_555 1_555
H91 C86 1_555 1_555
C87 C80 1_555 1_555
C88 C87 1_555 1_555
H92 C88 1_555 1_555
C89 C84 1_555 1_555
H93 C89 1_555 1_555
C91 O9 1_555 1_555
C92 C91 1_555 1_555
C93 C92 1_555 1_555
H94 C93 1_555 1_555
C94 C93 1_555 1_555
C95 C94 1_555 1_555
C96 C95 1_555 1_555
H96 C96 1_555 1_555
C97 C92 1_555 1_555
H97 C97 1_555 1_555
Fe5 O3 1_555 1_555
N18 Zn1 1_555 1_555
O10 C91 1_555 1_555
C24 C29 1_555 1_555
C28 C29 1_555 1_555
C30 N6 1_555 1_555
C31 C32 1_555 1_555
C34 N6 1_555 1_555
C82 C83 1_555 1_555
C86 C87 1_555 1_555
C88 C89 1_555 1_555
C96 C97 1_555 1_555
Fe1 O1 1_555 1_555
O1 C9 1_555 1_555
O3_2 Fe1 1_555 1_555
N1 Fe1 1_555 1_555
N2 Fe1 1_555 1_555
C1 N1 1_555 1_555
H2 C1 1_555 1_555
C2 N2 1_555 1_555
H3 C2 1_555 1_555
C3 C2 1_555 1_555
H4 C3 1_555 1_555
H5 C3 1_555 1_555
C4 C3 1_555 1_555
H6 C4 1_555 1_555
H7 C4 1_555 1_555
C5 C4 1_555 1_555
H8 C5 1_555 1_555
H9 C5 1_555 1_555
C6 C1 1_555 1_555
H10 C6 1_555 1_555
H11 C6 1_555 1_555
C7 N2 1_555 1_555
H12 C7 1_555 1_555
C8 C9 1_555 1_555
C9 C10 1_555 1_555
C10 C7 1_555 1_555
C11 C10 1_555 1_555
H13 C11 1_555 1_555
C12 C11 1_555 1_555
C13 C8 1_555 1_555
H17 C17 1_555 1_555
C23 N1 1_555 1_555
H28 C23 1_555 1_555
C1 C2 1_555 1_555
C5 C6 1_555 1_555
C12 C13 1_555 1_555
Zn2 O12 1_555 1_555
Fe2 O4 1_555 1_555
O4 C67 1_555 1_555
O5 Fe2 1_555 1_555
O6 Fe2 1_555 1_555
O11 C90 1_555 1_555
O12 C90 1_555 1_555
O13 Zn2 1_555 1_555
H1 O13 1_555 1_555
N3 Fe2 1_555 1_555
N4 Fe2 1_555 1_555
C39 N3 1_555 1_555
H44 C39 1_555 1_555
C40 N4 1_555 1_555
H45 C40 1_555 1_555
C41 C40 1_555 1_555
H46 C41 1_555 1_555
H47 C41 1_555 1_555
C42 C41 1_555 1_555
H48 C42 1_555 1_555
H49 C42 1_555 1_555
C43 C42 1_555 1_555
H50 C43 1_555 1_555
H51 C43 1_555 1_555
C44 C39 1_555 1_555
H52 C44 1_555 1_555
H53 C44 1_555 1_555
C45 N4 1_555 1_555
H54 C45 1_555 1_555
C46 C45 1_555 1_555
C47 O5 1_555 1_555
C48 C47 1_555 1_555
C49 C48 1_555 1_555
H55 C49 1_555 1_555
C50 C49 1_555 1_555
C51 C46 1_555 1_555
H56 C51 1_555 1_555
C52 H57 1_555 1_555
C53 C52 1_555 1_555
H58 C53 1_555 1_555
C54 C50 1_555 1_555
C55 C54 1_555 1_555
H59 C55 1_555 1_555
C56 C55 1_555 1_555
H60 C56 1_555 1_555
N7 C52 1_555 1_555
C57 C48 1_555 1_555
C58 C57 1_555 1_555
H61 C58 1_555 1_555
H62 C58 1_555 1_555
H63 C58 1_555 1_555
C59 C57 1_555 1_555
H64 C59 1_555 1_555
H65 C59 1_555 1_555
H66 C59 1_555 1_555
C60 C57 1_555 1_555
H67 C60 1_555 1_555
H68 C60 1_555 1_555
H69 C60 1_555 1_555
C61 N3 1_555 1_555
H70 C61 1_555 1_555
C62 C63 1_555 1_555
C63 H71 1_555 1_555
C64 C63 1_555 1_555
C65 C64 1_555 1_555
H72 C65 1_555 1_555
C66 C61 1_555 1_555
C67 C62 1_555 1_555
C68 H73 1_555 1_555
C69 C68 1_555 1_555
H74 C69 1_555 1_555
C70 C64 1_555 1_555
C71 C70 1_555 1_555
H75 C71 1_555 1_555
C72 C71 1_555 1_555
H76 C72 1_555 1_555
N8 Zn2 1_555 1_555
C73 C62 1_555 1_555
C74 C73 1_555 1_555
H77 C74 1_555 1_555
H78 C74 1_555 1_555
H79 C74 1_555 1_555
C75 C73 1_555 1_555
H80 C75 1_555 1_555
H81 C75 1_555 1_555
H82 C75 1_555 1_555
C76 C73 1_555 1_555
H83 C76 1_555 1_555
H84 C76 1_555 1_555
H85 C76 1_555 1_555
Zn4 O23 1_555 1_555
Fe4 O6 1_555 1_555
O18 Fe4 1_555 1_555
O19 Fe4 1_555 1_555
O22 C194 1_555 1_555
O23 C194 1_555 1_555
O24 Zn4 1_555 1_555
H102 O24 1_555 1_555
N11 Fe4 1_555 1_555
N12 Fe4 1_555 1_555
C143 N11 1_555 1_555
H145 C143 1_555 1_555
C144 N12 1_555 1_555
H146 C144 1_555 1_555
C145 C144 1_555 1_555
H147 C145 1_555 1_555
H148 C145 1_555 1_555
C146 C145 1_555 1_555
H149 C146 1_555 1_555
H150 C146 1_555 1_555
C147 C146 1_555 1_555
H151 C147 1_555 1_555
H152 C147 1_555 1_555
C148 C143 1_555 1_555
H153 C148 1_555 1_555
H154 C148 1_555 1_555
C149 N12 1_555 1_555
H155 C149 1_555 1_555
C150 C149 1_555 1_555
C151 O19 1_555 1_555
C152 C151 1_555 1_555
C153 C152 1_555 1_555
H156 C153 1_555 1_555
C154 C153 1_555 1_555
C155 C150 1_555 1_555
H157 C155 1_555 1_555
C156 H158 1_555 1_555
C157 C156 1_555 1_555
H159 C157 1_555 1_555
C158 C154 1_555 1_555
C159 C158 1_555 1_555
H160 C159 1_555 1_555
C160 C159 1_555 1_555
H161 C160 1_555 1_555
N15 C156 1_555 1_555
C161 C152 1_555 1_555
C162 C161 1_555 1_555
H162 C162 1_555 1_555
H163 C162 1_555 1_555
H164 C162 1_555 1_555
C163 C161 1_555 1_555
H165 C163 1_555 1_555
H166 C163 1_555 1_555
H167 C163 1_555 1_555
C164 C161 1_555 1_555
H168 C164 1_555 1_555
H169 C164 1_555 1_555
H170 C164 1_555 1_555
C165 N11 1_555 1_555
H171 C165 1_555 1_555
C166 C167 1_555 1_555
C167 H172 1_555 1_555
C168 C167 1_555 1_555
C169 C168 1_555 1_555
H173 C169 1_555 1_555
C170 C165 1_555 1_555
C171 O18 1_555 1_555
C172 H174 1_555 1_555
C173 C172 1_555 1_555
H175 C173 1_555 1_555
C174 C168 1_555 1_555
C175 C174 1_555 1_555
H176 C175 1_555 1_555
C176 C175 1_555 1_555
H177 C176 1_555 1_555
N16 Zn4 1_555 1_555
C177 C166 1_555 1_555
C178 C177 1_555 1_555
H178 C178 1_555 1_555
H179 C178 1_555 1_555
H180 C178 1_555 1_555
C179 C177 1_555 1_555
H181 C179 1_555 1_555
H182 C179 1_555 1_555
H183 C179 1_555 1_555
C180 C177 1_555 1_555
H184 C180 1_555 1_555
H185 C180 1_555 1_555
H186 C180 1_555 1_555
Zn8 N15 1_555 1_555
Zn9 N7 1_555 1_555
N19 Zn4 1_555 1_555
N20 Zn2 1_555 1_555
C39 C40 1_555 1_555
C43 C44 1_555 1_555
C46 C47 1_555 1_555
C50 C51 1_555 1_555
C53 C54 1_555 1_555
C56 N7 1_555 1_555
C65 C66 1_555 1_555
C66 C67 1_555 1_555
C68 N8 1_555 1_555
C69 C70 1_555 1_555
C72 N8 1_555 1_555
C143 C144 1_555 1_555
C147 C148 1_555 1_555
C150 C151 1_555 1_555
C154 C155 1_555 1_555
C157 C158 1_555 1_555
C160 N15 1_555 1_555
C166 C171 1_555 1_555
C169 C170 1_555 1_555
C170 C171 1_555 1_555
C172 N16 1_555 1_555
C173 C174 1_555 1_555
C176 N16 1_555 1_555
O13 H195 1_555 1_555
O24 H196 1_555 1_555
Fe5 O16 1_555 1_555
O16 C113 1_555 1_555
N9 Fe5 1_555 1_555
N10 Fe5 1_555 1_555
C105 N9 1_555 1_555
H103 C105 1_555 1_555
C106 N10 1_555 1_555
H104 C106 1_555 1_555
C107 C106 1_555 1_555
H105 C107 1_555 1_555
H106 C107 1_555 1_555
C108 C107 1_555 1_555
H107 C108 1_555 1_555
H108 C108 1_555 1_555
C109 C108 1_555 1_555
H109 C109 1_555 1_555
H110 C109 1_555 1_555
C110 C105 1_555 1_555
H111 C110 1_555 1_555
H112 C110 1_555 1_555
C111 N10 1_555 1_555
H113 C111 1_555 1_555
C112 C113 1_555 1_555
C113 C114 1_555 1_555
C114 C111 1_555 1_555
C115 C114 1_555 1_555
H114 C115 1_555 1_555
C116 C115 1_555 1_555
C117 C112 1_555 1_555
H118 C121 1_555 1_555
C127 N9 1_555 1_555
H129 C127 1_555 1_555
C105 C106 1_555 1_555
C109 C110 1_555 1_555
C116 C117 1_555 1_555
Zn5 O20 1_555 1_555
O20 C181 1_555 1_555
O21 C181 1_555 1_555
C125 C123 1_555 1_555
H123 C125 1_555 1_555
H124 C125 1_555 1_555
H125 C125 1_555 1_555
C126 C123 1_555 1_555
H126 C126 1_555 1_555
H127 C126 1_555 1_555
H128 C126 1_555 1_555
C129 C128 1_555 1_555
H130 C129 1_555 1_555
C130 C129 1_555 1_555
C131 C130 1_555 1_555
H131 C131 1_555 1_555
C132 C131 1_555 1_555
C133 O17 1_555 1_555
C134 H132 1_555 1_555
C135 C134 1_555 1_555
H133 C135 1_555 1_555
C136 C130 1_555 1_555
C137 C136 1_555 1_555
H134 C137 1_555 1_555
C138 C137 1_555 1_555
H135 C138 1_555 1_555
N14 Zn5 1_555 1_555
C139 C132 1_555 1_555
C140 C139 1_555 1_555
H136 C140 1_555 1_555
H137 C140 1_555 1_555
H138 C140 1_555 1_555
C141 C139 1_555 1_555
H139 C141 1_555 1_555
H140 C141 1_555 1_555
H141 C141 1_555 1_555
C142 C139 1_555 1_555
H142 C142 1_555 1_555
H143 C142 1_555 1_555
H144 C142 1_555 1_555
C181 C187 1_555 1_555
C182 H187 1_555 1_555
C183 C182 1_555 1_555
H188 C183 1_555 1_555
C184 C183 1_555 1_555
C185 C184 1_555 1_555
H189 C185 1_555 1_555
C186 C185 1_555 1_555
H190 C186 1_555 1_555
C187 C182 1_555 1_555
C188 C189 1_555 1_555
C189 H191 1_555 1_555
C190 C189 1_555 1_555
H192 C190 1_555 1_555
C191 C184 1_555 1_555
C192 C191 1_555 1_555
H193 C192 1_555 1_555
C193 C188 1_555 1_555
H194 C193 1_555 1_555
N17 Zn5 1_555 1_555
C128 C133 1_555 1_555
C132 C133 1_555 1_555
C134 N14 1_555 1_555
C135 C136 1_555 1_555
C138 N14 1_555 1_555
C186 C187 1_555 1_555
C190 C191 1_555 1_555
C192 C193 1_555 1_555
Fe1_2 O1_2 1_555 1_555
O1_2 C9_2 1_555 1_555
O3_3 Fe1_2 1_555 1_555
N1_2 Fe1_2 1_555 1_555
N2_2 Fe1_2 1_555 1_555
C1_2 N1_2 1_555 1_555
H2_2 C1_2 1_555 1_555
C2_2 N2_2 1_555 1_555
H3_2 C2_2 1_555 1_555
C3_2 C2_2 1_555 1_555
H4_2 C3_2 1_555 1_555
H5_2 C3_2 1_555 1_555
C4_2 C3_2 1_555 1_555
H6_2 C4_2 1_555 1_555
C5_2 C4_2 1_555 1_555
H8_2 C5_2 1_555 1_555
H9_2 C5_2 1_555 1_555
C6_2 C1_2 1_555 1_555
H10_2 C6_2 1_555 1_555
H11_2 C6_2 1_555 1_555
C7_2 N2_2 1_555 1_555
H12_2 C7_2 1_555 1_555
C8_2 C9_2 1_555 1_555
C9_2 C10_2 1_555 1_555
C10_2 C7_2 1_555 1_555
C11_2 C10_2 1_555 1_555
H13_2 C11_2 1_555 1_555
C12_2 C11_2 1_555 1_555
C13_2 C8_2 1_555 1_555
H14 C13_2 1_555 1_555
C14 H15 1_555 1_555
C15 C14 1_555 1_555
H16 C15 1_555 1_555
C16 C12_2 1_555 1_555
C17_2 C16 1_555 1_555
H17_2 C17_2 1_555 1_555
C18 C17_2 1_555 1_555
H18 C18 1_555 1_555
N17 C14 1_555 1_555
C23_2 N1_2 1_555 1_555
H28_2 C23_2 1_555 1_555
C1_2 C2_2 1_555 1_555
C5_2 C6_2 1_555 1_555
C12_2 C13_2 1_555 1_555
C15 C16 1_555 1_555
C18 N17 1_555 1_555
Zn8 O12_2 1_555 1_555
O11_2 C90_2 1_555 1_555
O12_2 C90_2 1_555 1_555
O13_2 Zn8 1_555 1_555
H1_2 O13_2 1_555 1_555
C63_2 H71_2 1_555 1_555
C68_2 H73_2 1_555 1_555
C69_2 C68_2 1_555 1_555
H74_2 C69_2 1_555 1_555
C71_2 C70_2 1_555 1_555
H75_2 C71_2 1_555 1_555
C72_2 C71_2 1_555 1_555
H76_2 C72_2 1_555 1_555
N8_2 Zn8 1_555 1_555
H83_2 C76_2 1_555 1_555
H84_2 C76_2 1_555 1_555
H85_2 C76_2 1_555 1_555
C81_2 C80_2 1_555 1_555
H88_2 C81_2 1_555 1_555
C84_2 C85_2 1_555 1_555
C85_2 H90_2 1_555 1_555
C86_2 C85_2 1_555 1_555
H91_2 C86_2 1_555 1_555
C87_2 C80_2 1_555 1_555
C88_2 C87_2 1_555 1_555
H92_2 C88_2 1_555 1_555
C89_2 C84_2 1_555 1_555
H93_2 C89_2 1_555 1_555
C90_2 C84_2 1_555 1_555
C68_2 N8_2 1_555 1_555
C69_2 C70_2 1_555 1_555
C72_2 N8_2 1_555 1_555
C86_2 C87_2 1_555 1_555
C88_2 C89_2 1_555 1_555
O13_2 H195_2 1_555 1_555
Fe2_2 O4_2 1_555 1_555
O4_2 C67_2 1_555 1_555
O5_2 Fe2_2 1_555 1_555
O6_2 Fe2_2 1_555 1_555
N3_2 Fe2_2 1_555 1_555
N4_2 Fe2_2 1_555 1_555
C39_2 N3_2 1_555 1_555
H44_2 C39_2 1_555 1_555
C40_2 N4_2 1_555 1_555
C41_2 C40_2 1_555 1_555
H46_2 C41_2 1_555 1_555
H47_2 C41_2 1_555 1_555
C42_2 C41_2 1_555 1_555
H48_2 C42_2 1_555 1_555
C43_2 C42_2 1_555 1_555
H50_2 C43_2 1_555 1_555
H51_2 C43_2 1_555 1_555
C44_2 C39_2 1_555 1_555
H52_2 C44_2 1_555 1_555
C45_2 N4_2 1_555 1_555
H54_2 C45_2 1_555 1_555
C46_2 C45_2 1_555 1_555
C47_2 O5_2 1_555 1_555
C48_2 C47_2 1_555 1_555
C49_2 C48_2 1_555 1_555
H55_2 C49_2 1_555 1_555
C50_2 C49_2 1_555 1_555
C51_2 C46_2 1_555 1_555
H56_2 C51_2 1_555 1_555
C52_2 H57_2 1_555 1_555
C53_2 C52_2 1_555 1_555
H58_2 C53_2 1_555 1_555
C54_2 C50_2 1_555 1_555
C55_2 C54_2 1_555 1_555
H59_2 C55_2 1_555 1_555
C56_2 C55_2 1_555 1_555
H60_2 C56_2 1_555 1_555
N19 C52_2 1_555 1_555
C57_2 C48_2 1_555 1_555
C58_2 C57_2 1_555 1_555
H61_2 C58_2 1_555 1_555
H62_2 C58_2 1_555 1_555
H63_2 C58_2 1_555 1_555
C59_2 C57_2 1_555 1_555
H64_2 C59_2 1_555 1_555
H65_2 C59_2 1_555 1_555
H66_2 C59_2 1_555 1_555
C60_2 C57_2 1_555 1_555
H67_2 C60_2 1_555 1_555
H68_2 C60_2 1_555 1_555
H69_2 C60_2 1_555 1_555
C61_2 N3_2 1_555 1_555
H70_2 C61_2 1_555 1_555
C65_2 C64_2 1_555 1_555
H72_2 C65_2 1_555 1_555
C66_2 C61_2 1_555 1_555
C67_2 C62_2 1_555 1_555
C73_2 C62_2 1_555 1_555
C74_2 C73_2 1_555 1_555
H77_2 C74_2 1_555 1_555
H78_2 C74_2 1_555 1_555
H79_2 C74_2 1_555 1_555
C75_2 C73_2 1_555 1_555
H80_2 C75_2 1_555 1_555
H81_2 C75_2 1_555 1_555
H82_2 C75_2 1_555 1_555
C78_2 H86_2 1_555 1_555
C79_2 C78_2 1_555 1_555
H87_2 C79_2 1_555 1_555
H89_2 C82_2 1_555 1_555
C83_2 C78_2 1_555 1_555
Fe5_2 O3_4 1_555 1_555
C39_2 C40_2 1_555 1_555
C43_2 C44_2 1_555 1_555
C46_2 C47_2 1_555 1_555
C50_2 C51_2 1_555 1_555
C53_2 C54_2 1_555 1_555
C56_2 N19 1_555 1_555
C65_2 C66_2 1_555 1_555
C66_2 C67_2 1_555 1_555
C82_2 C83_2 1_555 1_555
Zn9 O23_2 1_555 1_555
O22_2 C194_2 1_555 1_555
O23_2 C194_2 1_555 1_555
O24_2 Zn9 1_555 1_555
H102_2 O24_2 1_555 1_555
C167_2 H172_2 1_555 1_555
C172_2 H174_2 1_555 1_555
C173_2 C172_2 1_555 1_555
H175_2 C173_2 1_555 1_555
C175_2 C174_2 1_555 1_555
H176_2 C175_2 1_555 1_555
C176_2 C175_2 1_555 1_555
H177_2 C176_2 1_555 1_555
N16_2 Zn9 1_555 1_555
H184_2 C180_2 1_555 1_555
H185_2 C180_2 1_555 1_555
H186_2 C180_2 1_555 1_555
C185_2 C184_2 1_555 1_555
H189_2 C185_2 1_555 1_555
C188_2 C189_2 1_555 1_555
C189_2 H191_2 1_555 1_555
C190_2 C189_2 1_555 1_555
H192_2 C190_2 1_555 1_555
C191_2 C184_2 1_555 1_555
C192_2 C191_2 1_555 1_555
H193_2 C192_2 1_555 1_555
C193_2 C188_2 1_555 1_555
H194_2 C193_2 1_555 1_555
C194_2 C188_2 1_555 1_555
C172_2 N16_2 1_555 1_555
C173_2 C174_2 1_555 1_555
C176_2 N16_2 1_555 1_555
C190_2 C191_2 1_555 1_555
C192_2 C193_2 1_555 1_555
O24_2 H196_2 1_555 1_555
Fe4_2 O6_3 1_555 1_555
O18_2 Fe4_2 1_555 1_555
O19_2 Fe4_2 1_555 1_555
N11_2 Fe4_2 1_555 1_555
N12_2 Fe4_2 1_555 1_555
C143_2 N11_2 1_555 1_555
H145_2 C143_2 1_555 1_555
C144_2 N12_2 1_555 1_555
C145_2 C144_2 1_555 1_555
H147_2 C145_2 1_555 1_555
H148_2 C145_2 1_555 1_555
C146_2 C145_2 1_555 1_555
H149_2 C146_2 1_555 1_555
C147_2 C146_2 1_555 1_555
H151_2 C147_2 1_555 1_555
H152_2 C147_2 1_555 1_555
C148_2 C143_2 1_555 1_555
H153_2 C148_2 1_555 1_555
C149_2 N12_2 1_555 1_555
H155_2 C149_2 1_555 1_555
C150_2 C149_2 1_555 1_555
C151_2 O19_2 1_555 1_555
C152_2 C151_2 1_555 1_555
C153_2 C152_2 1_555 1_555
H156_2 C153_2 1_555 1_555
C154_2 C153_2 1_555 1_555
C155_2 C150_2 1_555 1_555
H157_2 C155_2 1_555 1_555
C156_2 H158_2 1_555 1_555
C157_2 C156_2 1_555 1_555
H159_2 C157_2 1_555 1_555
C158_2 C154_2 1_555 1_555
C159_2 C158_2 1_555 1_555
H160_2 C159_2 1_555 1_555
C160_2 C159_2 1_555 1_555
H161_2 C160_2 1_555 1_555
N20 C156_2 1_555 1_555
C161_2 C152_2 1_555 1_555
C162_2 C161_2 1_555 1_555
H162_2 C162_2 1_555 1_555
H163_2 C162_2 1_555 1_555
H164_2 C162_2 1_555 1_555
C163_2 C161_2 1_555 1_555
H165_2 C163_2 1_555 1_555
H166_2 C163_2 1_555 1_555
H167_2 C163_2 1_555 1_555
C164_2 C161_2 1_555 1_555
H168_2 C164_2 1_555 1_555
H169_2 C164_2 1_555 1_555
H170_2 C164_2 1_555 1_555
C165_2 N11_2 1_555 1_555
H171_2 C165_2 1_555 1_555
C169_2 C168_2 1_555 1_555
H173_2 C169_2 1_555 1_555
C170_2 C165_2 1_555 1_555
C171_2 O18_2 1_555 1_555
C177_2 C166_2 1_555 1_555
C178_2 C177_2 1_555 1_555
H178_2 C178_2 1_555 1_555
H179_2 C178_2 1_555 1_555
H180_2 C178_2 1_555 1_555
C179_2 C177_2 1_555 1_555
H181_2 C179_2 1_555 1_555
H182_2 C179_2 1_555 1_555
H183_2 C179_2 1_555 1_555
C182_2 H187_2 1_555 1_555
C183_2 C182_2 1_555 1_555
H188_2 C183_2 1_555 1_555
H190_2 C186_2 1_555 1_555
C187_2 C182_2 1_555 1_555
C143_2 C144_2 1_555 1_555
C147_2 C148_2 1_555 1_555
C150_2 C151_2 1_555 1_555
C154_2 C155_2 1_555 1_555
C157_2 C158_2 1_555 1_555
C160_2 N20 1_555 1_555
C166_2 C171_2 1_555 1_555
C169_2 C170_2 1_555 1_555
C170_2 C171_2 1_555 1_555
C186_2 C187_2 1_555 1_555
Fe5_2 O16_2 1_555 1_555
O16_2 C113_2 1_555 1_555
N9_2 Fe5_2 1_555 1_555
N10_2 Fe5_2 1_555 1_555
C105_2 N9_2 1_555 1_555
H103_2 C105_2 1_555 1_555
C106_2 N10_2 1_555 1_555
H104_2 C106_2 1_555 1_555
C107_2 C106_2 1_555 1_555
H105_2 C107_2 1_555 1_555
H106_2 C107_2 1_555 1_555
C108_2 C107_2 1_555 1_555
H107_2 C108_2 1_555 1_555
C109_2 C108_2 1_555 1_555
H109_2 C109_2 1_555 1_555
H110_2 C109_2 1_555 1_555
C110_2 C105_2 1_555 1_555
H111_2 C110_2 1_555 1_555
H112_2 C110_2 1_555 1_555
C111_2 N10_2 1_555 1_555
H113_2 C111_2 1_555 1_555
C112_2 C113_2 1_555 1_555
C113_2 C114_2 1_555 1_555
C114_2 C111_2 1_555 1_555
C115_2 C114_2 1_555 1_555
H114_2 C115_2 1_555 1_555
C116_2 C115_2 1_555 1_555
C117_2 C112_2 1_555 1_555
H115 C117_2 1_555 1_555
C118 H116 1_555 1_555
C119 C118 1_555 1_555
H117 C119 1_555 1_555
C120 C116_2 1_555 1_555
C121_2 C120 1_555 1_555
H118_2 C121_2 1_555 1_555
C122 C121_2 1_555 1_555
H119 C122 1_555 1_555
N18 C118 1_555 1_555
C127_2 N9_2 1_555 1_555
H129_2 C127_2 1_555 1_555
C105_2 C106_2 1_555 1_555
C109_2 C110_2 1_555 1_555
C116_2 C117_2 1_555 1_555
C119 C120 1_555 1_555
C122 N18 1_555 1_555
H19 C20 1_555 1_555
H20 C20 1_555 1_555
H21 C20 1_555 1_555
C14_2 H15_2 1_555 1_555
C15_2 C14_2 1_555 1_555
H16_2 C15_2 1_555 1_555
H18_2 C18_2 1_555 1_555
N5 C14_2 1_555 1_555
Zn7 N5 1_555 1_555
C15_2 C16_2 1_555 1_555
C18_2 N5 1_555 1_555
C118_2 H116_2 1_555 1_555
C119_2 C118_2 1_555 1_555
H117_2 C119_2 1_555 1_555
H119_2 C122_2 1_555 1_555
N13 C118_2 1_555 1_555
Zn6 N13 1_555 1_555
C119_2 C120_2 1_555 1_555
C122_2 N13 1_555 1_555
Zn6 O7_2 1_555 1_555
O7_2 C77_2 1_555 1_555
O8_2 C77_2 1_555 1_555
O9_2 Zn6 1_555 1_555
O10_2 Zn6 1_555 1_555
C20_2 C19_2 1_555 1_555
H19_2 C20_2 1_555 1_555
H20_2 C20_2 1_555 1_555
H21_2 C20_2 1_555 1_555
C21_2 C19_2 1_555 1_555
H22_2 C21_2 1_555 1_555
H23_2 C21_2 1_555 1_555
H24_2 C21_2 1_555 1_555
C22_2 C19_2 1_555 1_555
H25_2 C22_2 1_555 1_555
H26_2 C22_2 1_555 1_555
H27_2 C22_2 1_555 1_555
C25_2 C24_2 1_555 1_555
H29_2 C25_2 1_555 1_555
C26_2 C25_2 1_555 1_555
C27_2 C26_2 1_555 1_555
H30_2 C27_2 1_555 1_555
C28_2 C27_2 1_555 1_555
C29_2 O2_2 1_555 1_555
C30_2 H31_2 1_555 1_555
C31_2 C30_2 1_555 1_555
H32_2 C31_2 1_555 1_555
C32_2 C26_2 1_555 1_555
C33_2 C32_2 1_555 1_555
H33_2 C33_2 1_555 1_555
C34_2 C33_2 1_555 1_555
H34_2 C34_2 1_555 1_555
N6_2 Zn6 1_555 1_555
C35_2 C28_2 1_555 1_555
C36_2 C35_2 1_555 1_555
H35_2 C36_2 1_555 1_555
H36_2 C36_2 1_555 1_555
H37_2 C36_2 1_555 1_555
C37_2 C35_2 1_555 1_555
H38_2 C37_2 1_555 1_555
H39_2 C37_2 1_555 1_555
H40_2 C37_2 1_555 1_555
C38_2 C35_2 1_555 1_555
H41_2 C38_2 1_555 1_555
H42_2 C38_2 1_555 1_555
H43_2 C38_2 1_555 1_555
C91_2 O9_2 1_555 1_555
C92_2 C91_2 1_555 1_555
C93_2 C92_2 1_555 1_555
H94_2 C93_2 1_555 1_555
C94_2 C93_2 1_555 1_555
H95_2 C94_2 1_555 1_555
C95_2 C94_2 1_555 1_555
C96_2 C95_2 1_555 1_555
H96_2 C96_2 1_555 1_555
C97_2 C92_2 1_555 1_555
H97_2 C97_2 1_555 1_555
O14_2 C98_2 1_555 1_555
O15_2 C98_2 1_555 1_555
C98_2 C99_2 1_555 1_555
C99_2 C100_2 1_555 1_555
C100_2 H98_2 1_555 1_555
C101_2 C100_2 1_555 1_555
H99_2 C101_2 1_555 1_555
C102_2 C95_2 1_555 1_555
C103_2 C102_2 1_555 1_555
H100_2 C103_2 1_555 1_555
C104_2 C99_2 1_555 1_555
H101_2 C104_2 1_555 1_555
Zn7 O14_2 1_555 1_555
O10_2 C91_2 1_555 1_555
C24_2 C29_2 1_555 1_555
C28_2 C29_2 1_555 1_555
C30_2 N6_2 1_555 1_555
C31_2 C32_2 1_555 1_555
C34_2 N6_2 1_555 1_555
C96_2 C97_2 1_555 1_555
O15_2 Zn7 1_555 1_555
C101_2 C102_2 1_555 1_555
C103_2 C104_2 1_555 1_555
Zn7 O20_2 1_555 1_555
O20_2 C181_2 1_555 1_555
O21_2 C181_2 1_555 1_555
C124 C123_2 1_555 1_555
H120 C124 1_555 1_555
H121 C124 1_555 1_555
H122 C124 1_555 1_555
C125_2 C123_2 1_555 1_555
H123_2 C125_2 1_555 1_555
H124_2 C125_2 1_555 1_555
H125_2 C125_2 1_555 1_555
C126_2 C123_2 1_555 1_555
H126_2 C126_2 1_555 1_555
H127_2 C126_2 1_555 1_555
H128_2 C126_2 1_555 1_555
C129_2 C128_2 1_555 1_555
H130_2 C129_2 1_555 1_555
C130_2 C129_2 1_555 1_555
C131_2 C130_2 1_555 1_555
H131_2 C131_2 1_555 1_555
C132_2 C131_2 1_555 1_555
C133_2 O17_2 1_555 1_555
C134_2 H132_2 1_555 1_555
C135_2 C134_2 1_555 1_555
H133_2 C135_2 1_555 1_555
C136_2 C130_2 1_555 1_555
C137_2 C136_2 1_555 1_555
H134_2 C137_2 1_555 1_555
C138_2 C137_2 1_555 1_555
H135_2 C138_2 1_555 1_555
N14_2 Zn7 1_555 1_555
C139_2 C132_2 1_555 1_555
C140_2 C139_2 1_555 1_555
H136_2 C140_2 1_555 1_555
H137_2 C140_2 1_555 1_555
H138_2 C140_2 1_555 1_555
C141_2 C139_2 1_555 1_555
H139_2 C141_2 1_555 1_555
H140_2 C141_2 1_555 1_555
H141_2 C141_2 1_555 1_555
C142_2 C139_2 1_555 1_555
H142_2 C142_2 1_555 1_555
H143_2 C142_2 1_555 1_555
H144_2 C142_2 1_555 1_555
C128_2 C133_2 1_555 1_555
C132_2 C133_2 1_555 1_555
C134_2 N14_2 1_555 1_555
C135_2 C136_2 1_555 1_555
C138_2 N14_2 1_555 1_555
H120_2 C124_2 1_555 1_555
H121_2 C124_2 1_555 1_555
H122_2 C124_2 1_555 1_555

#END
