
###############################################################################
#
# This file contains modified crystal structure data generated from the
# MOF subset of the Cambridge Structural Database (CSD) v543 
# hosted by the Cambridge Crystallographic Data Centre (CCDC).
#
# This work is licensed under the Creative Commons
# Attribution-NonCommercial-ShareAlike 4.0 International License.
# To view a copy of this license, visit
# http://creativecommons.org/licenses/by-nc-sa/4.0/
# or send a letter to
# Creative Commons, PO Box 1866, Mountain View, CA 94042, USA.
#
# CIF created using the CSD Python API on 29 September 2022
# The structure has been converted into the P1 space group
# The structure has a 3D framework
# The original CSD entry XOKHAH01 is in the orthorhombic crystal system
# The framework has been calculated to contain at least 10.0% void space
# The void calculation uses a probe of radius 1.32A, grid spacing 0.4
#
###############################################################################

data_XOKHAH01
_chemical_formula_moiety         '(C192 H104 N16 O72 Zn16)n'
_symmetry_cell_setting           triclinic
_symmetry_space_group_name_H-M   'P 1'
_symmetry_Int_Tables_number      1
_space_group_name_Hall           'P 1'
loop_
_symmetry_equiv_pos_site_id
_symmetry_equiv_pos_as_xyz
1 x,y,z
_cell_length_a                   13.8660(16)
_cell_length_b                   18.942(2)
_cell_length_c                   19.033(2)
_cell_angle_alpha                90
_cell_angle_beta                 90
_cell_angle_gamma                90
_cell_volume                     4999.01
loop_
_atom_site_label
_atom_site_type_symbol
_atom_site_fract_x
_atom_site_fract_y
_atom_site_fract_z
O22 O 0.0557(2) 0.01870(18) 0.44399(17)
Zn8 Zn 0.09550(4) 0.98385(3) 0.54452(3)
Zn2 Zn 0.90450(4) 0.01615(3) 0.45548(3)
N1 N 0.8807(3) 0.0601(2) 0.3518(2)
N2 N 0.8848(3) 0.1294(2) 0.4726(2)
C11 C 0.5678(4) 0.0406(3) 0.4668(3)
H5 H 0.6132 0.0689 0.4446
C13 C 0.8777(4) 0.1623(3) 0.5346(3)
H7 H 0.8841 0.1358 0.5754
C14 C 0.8613(5) 0.2341(4) 0.5405(4)
H8 H 0.8536 0.2550 0.5844
C15 C 0.8566(5) 0.2735(3) 0.4806(4)
H9 H 0.8488 0.3222 0.4833
C16 C 0.8634(4) 0.2410(3) 0.4161(3)
C17 C 0.8562(5) 0.2825(3) 0.3501(4)
C18 C 0.8552(5) 0.2425(3) 0.2800(4)
C19 C 0.8625(4) 0.1647(3) 0.2828(3)
C20 C 0.8564(5) 0.1246(4) 0.2226(3)
H10 H 0.8485 0.1465 0.1792
C21 C 0.8619(5) 0.0534(4) 0.2265(3)
H11 H 0.8579 0.0256 0.1863
C22 C 0.8739(5) 0.0232(3) 0.2928(3)
C23 C 0.8745(3) 0.1302(3) 0.3467(3)
C24 C 0.8759(3) 0.1688(2) 0.4142(3)
O4 O 0.7586(2) 0.00599(19) 0.47749(17)
O8 O 0.8465(4) 0.2749(3) 0.2259(3)
O9 O 0.8516(5) 0.3461(3) 0.3499(3)
H13 H 0.930(4) 0.006(2) 0.579(2)
C25 C 0.2969(3) 0.0287(2) 0.4847(2)
C26 C 0.4029(3) 0.0146(3) 0.4919(2)
C28 C 0.4704(4) 0.0542(3) 0.4581(3)
H15 H 0.4509 0.0908 0.4288
O10 O 0.2715(2) 0.07569(17) 0.44089(17)
Zn3 Zn 0.13518(4) 0.10328(3) 0.43244(2)
C29 C 0.1037(3) 0.1464(3) 0.5739(2)
C30 C 0.1016(4) 0.2025(2) 0.6304(2)
C31 C 0.0900(5) 0.1828(3) 0.6993(2)
H16 H 0.0796 0.1356 0.7105
C32 C 0.0936(4) 0.2329(3) 0.7523(3)
H17 H 0.0862 0.2189 0.7988
C33 C 0.1079(3) 0.3030(2) 0.7370(2)
C34 C 0.1150(4) 0.3575(3) 0.7940(3)
C35 C 0.1172(4) 0.3226(3) 0.6670(2)
H18 H 0.1253 0.3700 0.6556
C36 C 0.1145(4) 0.2726(3) 0.6141(2)
H19 H 0.1216 0.2863 0.5675
H25 H 0.1228 0.0257 0.7042
O12 O 0.1167(3) 0.16818(17) 0.51167(16)
O13 O 0.0906(3) 0.08407(16) 0.59109(16)
O14 O 0.1214(3) 0.4201(2) 0.7790(2)
O15 O 0.1123(3) 0.33337(19) 0.85599(17)
Zn5 Zn 0.13518(4) 0.39672(3) 0.93244(2)
O19 O 0.1123(3) 0.16663(19) 0.35599(17)
Zn1 Zn 0.86482(4) 0.89672(3) 0.56756(2)
C1 C 0.8963(3) 0.8536(3) 0.4261(2)
C2 C 0.8984(4) 0.7975(2) 0.3696(2)
C3 C 0.9100(5) 0.8172(3) 0.3007(2)
H1 H 0.9204 0.8644 0.2895
C4 C 0.9064(4) 0.7671(3) 0.2477(3)
H2 H 0.9138 0.7811 0.2012
C5 C 0.8921(3) 0.6970(2) 0.2630(2)
C6 C 0.8850(4) 0.6425(3) 0.2060(3)
C7 C 0.8828(4) 0.6774(3) 0.3330(2)
H3 H 0.8747 0.6300 0.3444
C8 C 0.8855(4) 0.7274(3) 0.3859(2)
H4 H 0.8784 0.7137 0.4325
C9 C 0.7031(3) 0.9713(2) 0.5153(2)
C10 C 0.5971(3) 0.9854(3) 0.5081(2)
C12 C 0.5296(4) 0.9458(3) 0.5419(3)
H6 H 0.5491 0.9092 0.5712
H12 H 0.8772 0.9743 0.2958
O1 O 0.8833(3) 0.83182(17) 0.48833(16)
O2 O 0.9094(3) 0.91593(16) 0.40891(16)
O3 O 0.7285(2) 0.92431(17) 0.55911(17)
O5 O 0.8786(3) 0.5799(2) 0.2210(2)
O6 O 0.8877(3) 0.66663(19) 0.14401(17)
O7 O 0.9443(2) 0.98130(18) 0.55601(17)
C27 C 0.4322(4) 0.9594(3) 0.5332(3)
H14 H 0.3868 0.9311 0.5554
O11 O 0.2414(2) 0.99401(19) 0.52251(17)
N3 N 0.1193(3) 0.9399(2) 0.6482(2)
N4 N 0.1152(3) 0.8706(2) 0.5274(2)
C37 C 0.1223(4) 0.8377(3) 0.4654(3)
H20 H 0.1159 0.8642 0.4246
C38 C 0.1387(5) 0.7659(4) 0.4595(4)
H21 H 0.1464 0.7450 0.4156
C39 C 0.1434(5) 0.7265(3) 0.5194(4)
H22 H 0.1512 0.6778 0.5167
C40 C 0.1366(4) 0.7590(3) 0.5839(3)
C41 C 0.1438(5) 0.7175(3) 0.6499(4)
C42 C 0.1448(5) 0.7575(3) 0.7200(4)
C43 C 0.1375(4) 0.8353(3) 0.7172(3)
C44 C 0.1436(5) 0.8754(4) 0.7774(3)
H23 H 0.1515 0.8535 0.8208
C45 C 0.1381(5) 0.9466(4) 0.7735(3)
H24 H 0.1421 0.9744 0.8137
C46 C 0.1261(5) 0.9768(3) 0.7072(3)
C47 C 0.1255(3) 0.8698(3) 0.6533(3)
C48 C 0.1241(3) 0.8312(2) 0.5858(3)
O17 O 0.1535(4) 0.7251(3) 0.7741(3)
O18 O 0.1484(5) 0.6539(3) 0.6501(3)
H26 H 0.070(4) 0.994(2) 0.421(2)
Zn6 Zn 0.86482(4) 0.60328(3) 0.06756(2)
O20 O 0.8877(3) 0.83337(19) 0.64401(17)
Zn7 Zn 0.09550(4) 0.51615(3) 0.04452(3)
O21 O 0.0557(2) 0.48130(18) 0.94399(17)
N1_2 N 0.1193(3) 0.5601(2) 0.1482(2)
N2_2 N 0.1152(3) 0.6294(2) 0.0274(2)
C1_2 C 0.1037(3) 0.3536(3) 0.0739(2)
C2_2 C 0.1016(4) 0.2975(2) 0.1304(2)
C3_2 C 0.0900(5) 0.3172(3) 0.1993(2)
H1_2 H 0.0796 0.3644 0.2105
C4_2 C 0.0936(4) 0.2671(3) 0.2523(3)
H2_2 H 0.0862 0.2811 0.2988
C5_2 C 0.1079(3) 0.1970(2) 0.2370(2)
C6_2 C 0.1150(4) 0.1425(3) 0.2940(3)
C7_2 C 0.1172(4) 0.1774(3) 0.1670(2)
H3_2 H 0.1253 0.1300 0.1556
C8_2 C 0.1145(4) 0.2274(3) 0.1141(2)
H4_2 H 0.1216 0.2137 0.0675
C11_2 C 0.4322(4) 0.5406(3) 0.0332(3)
H5_2 H 0.3868 0.5689 0.0554
C15_2 C 0.1434(5) 0.7735(3) 0.0194(4)
H9_2 H 0.1512 0.8222 0.0167
C16_2 C 0.1366(4) 0.7410(3) 0.0839(3)
C17_2 C 0.1438(5) 0.7825(3) 0.1499(4)
C18_2 C 0.1448(5) 0.7425(3) 0.2200(4)
C19_2 C 0.1375(4) 0.6647(3) 0.2172(3)
C20_2 C 0.1436(5) 0.6246(4) 0.2774(3)
H10_2 H 0.1515 0.6465 0.3208
C21_2 C 0.1381(5) 0.5534(4) 0.2735(3)
H11_2 H 0.1421 0.5256 0.3137
C22_2 C 0.1261(5) 0.5232(3) 0.2072(3)
H12_2 H 0.1228 0.4743 0.2042
C23_2 C 0.1255(3) 0.6302(3) 0.1533(3)
C24_2 C 0.1241(3) 0.6688(2) 0.0858(3)
O1_2 O 0.1167(3) 0.33182(17) 0.01167(16)
O2_2 O 0.0906(3) 0.41593(16) 0.09109(16)
O4_2 O 0.2414(2) 0.50599(19) 0.02251(17)
O5_2 O 0.1214(3) 0.0799(2) 0.2790(2)
O8_2 O 0.1535(4) 0.7749(3) 0.2741(3)
O9_2 O 0.1484(5) 0.8461(3) 0.1501(3)
C25_2 C 0.7031(3) 0.5287(2) 0.0153(2)
C26_2 C 0.5971(3) 0.5146(3) 0.0081(2)
C28_2 C 0.5296(4) 0.5542(3) 0.0419(3)
H15_2 H 0.5491 0.5908 0.0712
O10_2 O 0.7285(2) 0.57569(17) 0.05911(17)
C37_2 C 0.8777(4) 0.3377(3) 0.0346(3)
H20_2 H 0.8841 0.3642 0.0754
C38_2 C 0.8613(5) 0.2659(4) 0.0405(4)
H21_2 H 0.8536 0.2450 0.0844
O16 O 0.9443(2) 0.51870(18) 0.05601(17)
H26_2 H 0.930(4) 0.494(2) 0.079(2)
C9_2 C 0.2969(3) 0.4713(2) 0.9847(2)
C10_2 C 0.4029(3) 0.4854(3) 0.9919(2)
C12_2 C 0.4704(4) 0.4458(3) 0.9581(3)
H6_2 H 0.4509 0.4092 0.9288
C13_2 C 0.1223(4) 0.6623(3) 0.9654(3)
H7_2 H 0.1159 0.6358 0.9246
C14_2 C 0.1387(5) 0.7341(4) 0.9595(4)
H8_2 H 0.1464 0.7550 0.9156
O3_2 O 0.2715(2) 0.42431(17) 0.94089(17)
H13_2 H 0.070(4) 0.506(2) 0.921(2)
C27_2 C 0.5678(4) 0.4594(3) 0.9668(3)
H14_2 H 0.6132 0.4311 0.9446
O11_2 O 0.7586(2) 0.49401(19) 0.97749(17)
Zn4 Zn 0.90450(4) 0.48385(3) 0.95548(3)
N3_2 N 0.8807(3) 0.4399(2) 0.8518(2)
N4_2 N 0.8848(3) 0.3706(2) 0.9726(2)
C29_2 C 0.8963(3) 0.6464(3) 0.9261(2)
C30_2 C 0.8984(4) 0.7025(2) 0.8696(2)
C31_2 C 0.9100(5) 0.6828(3) 0.8007(2)
H16_2 H 0.9204 0.6356 0.7895
C32_2 C 0.9064(4) 0.7329(3) 0.7477(3)
H17_2 H 0.9138 0.7189 0.7012
C33_2 C 0.8921(3) 0.8030(2) 0.7630(2)
C34_2 C 0.8850(4) 0.8575(3) 0.7060(3)
C35_2 C 0.8828(4) 0.8226(3) 0.8330(2)
H18_2 H 0.8747 0.8700 0.8444
C36_2 C 0.8855(4) 0.7726(3) 0.8859(2)
H19_2 H 0.8784 0.7863 0.9325
C39_2 C 0.8566(5) 0.2265(3) 0.9806(4)
H22_2 H 0.8488 0.1778 0.9833
C40_2 C 0.8634(4) 0.2590(3) 0.9161(3)
C41_2 C 0.8562(5) 0.2175(3) 0.8501(4)
C42_2 C 0.8552(5) 0.2575(3) 0.7800(4)
C43_2 C 0.8625(4) 0.3353(3) 0.7828(3)
C44_2 C 0.8564(5) 0.3754(4) 0.7226(3)
H23_2 H 0.8485 0.3535 0.6792
C45_2 C 0.8619(5) 0.4466(4) 0.7265(3)
H24_2 H 0.8579 0.4744 0.6863
C46_2 C 0.8739(5) 0.4768(3) 0.7928(3)
H25_2 H 0.8772 0.5257 0.7958
C47_2 C 0.8745(3) 0.3698(3) 0.8467(3)
C48_2 C 0.8759(3) 0.3312(2) 0.9142(3)
O12_2 O 0.8833(3) 0.66818(17) 0.98833(16)
O13_2 O 0.9094(3) 0.58407(16) 0.90891(16)
O14_2 O 0.8786(3) 0.9201(2) 0.7210(2)
O17_2 O 0.8465(4) 0.2251(3) 0.7259(3)
O18_2 O 0.8516(5) 0.1539(3) 0.8499(3)
C27_3 C 0.0678(4) 0.0406(3) 0.0332(3)
H14_3 H 0.1132 0.0689 0.0554
O11_3 O 0.2586(2) 0.00599(19) 0.02251(17)
Zn4_2 Zn 0.40450(4) 0.01615(3) 0.04452(3)
N3_3 N 0.3807(3) 0.0601(2) 0.1482(2)
N4_3 N 0.3848(3) 0.1294(2) 0.0274(2)
C39_3 C 0.3566(5) 0.2735(3) 0.0194(4)
H22_3 H 0.3488 0.3222 0.0167
C40_3 C 0.3634(4) 0.2410(3) 0.0839(3)
C41_3 C 0.3562(5) 0.2825(3) 0.1499(4)
C42_3 C 0.3552(5) 0.2425(3) 0.2200(4)
C43_3 C 0.3625(4) 0.1647(3) 0.2172(3)
C44_3 C 0.3564(5) 0.1246(4) 0.2774(3)
H23_3 H 0.3485 0.1465 0.3208
C45_3 C 0.3619(5) 0.0534(4) 0.2735(3)
H24_3 H 0.3579 0.0256 0.3137
C46_3 C 0.3739(5) 0.0232(3) 0.2072(3)
C47_3 C 0.3745(3) 0.1302(3) 0.1533(3)
C48_3 C 0.3759(3) 0.1688(2) 0.0858(3)
O17_3 O 0.3465(4) 0.2749(3) 0.2741(3)
O18_3 O 0.3516(5) 0.3461(3) 0.1501(3)
O21_2 O 0.5557(2) 0.01870(18) 0.05601(17)
C29_3 C 0.3963(3) 0.8536(3) 0.0739(2)
C30_3 C 0.3984(4) 0.7975(2) 0.1304(2)
C31_3 C 0.4100(5) 0.8172(3) 0.1993(2)
H16_3 H 0.4204 0.8644 0.2105
C32_3 C 0.4064(4) 0.7671(3) 0.2523(3)
H17_3 H 0.4138 0.7811 0.2988
C33_3 C 0.3921(3) 0.6970(2) 0.2370(2)
C34_3 C 0.3850(4) 0.6425(3) 0.2940(3)
C35_3 C 0.3828(4) 0.6774(3) 0.1670(2)
H18_3 H 0.3747 0.6300 0.1556
C36_3 C 0.3855(4) 0.7274(3) 0.1141(2)
H19_3 H 0.3784 0.7137 0.0675
H25_3 H 0.3772 0.9743 0.2042
O12_3 O 0.3833(3) 0.83182(17) 0.01167(16)
O13_3 O 0.4094(3) 0.91593(16) 0.09109(16)
O14_3 O 0.3786(3) 0.5799(2) 0.2790(2)
O15_2 O 0.3877(3) 0.66663(19) 0.35599(17)
Zn5_2 Zn 0.36482(4) 0.60328(3) 0.43244(2)
C25_3 C 0.2031(3) 0.9713(2) 0.9847(2)
C26_3 C 0.0971(3) 0.9854(3) 0.9919(2)
C28_3 C 0.0296(4) 0.9458(3) 0.9581(3)
H15_3 H 0.0491 0.9092 0.9288
O10_3 O 0.2285(2) 0.92431(17) 0.94089(17)
Zn3_2 Zn 0.36482(4) 0.89672(3) 0.93244(2)
O16_2 O 0.4443(2) 0.98130(18) 0.94399(17)
Zn7_2 Zn 0.59550(4) 0.98385(3) 0.95548(3)
O19_2 O 0.3877(3) 0.83337(19) 0.85599(17)
Zn1_2 Zn 0.63518(4) 0.10328(3) 0.06756(2)
C9_3 C 0.7969(3) 0.0287(2) 0.0153(2)
C10_3 C 0.9029(3) 0.0146(3) 0.0081(2)
C12_3 C 0.9704(4) 0.0542(3) 0.0419(3)
H6_3 H 0.9509 0.0908 0.0712
O3_3 O 0.7715(2) 0.07569(17) 0.05911(17)
O20_2 O 0.6123(3) 0.16663(19) 0.14401(17)
C1_3 C 0.6037(3) 0.1464(3) 0.9261(2)
C2_3 C 0.6016(4) 0.2025(2) 0.8696(2)
C3_3 C 0.5900(5) 0.1828(3) 0.8007(2)
H1_3 H 0.5796 0.1356 0.7895
C4_3 C 0.5936(4) 0.2329(3) 0.7477(3)
H2_3 H 0.5862 0.2189 0.7012
C5_3 C 0.6079(3) 0.3030(2) 0.7630(2)
C6_3 C 0.6150(4) 0.3575(3) 0.7060(3)
C7_3 C 0.6172(4) 0.3226(3) 0.8330(2)
H3_3 H 0.6253 0.3700 0.8444
C8_3 C 0.6145(4) 0.2726(3) 0.8859(2)
H4_3 H 0.6216 0.2863 0.9325
H12_3 H 0.6228 0.0257 0.7958
O1_3 O 0.6167(3) 0.16818(17) 0.98833(16)
O2_3 O 0.5906(3) 0.08407(16) 0.90891(16)
O5_3 O 0.6214(3) 0.4201(2) 0.7210(2)
O6_2 O 0.6123(3) 0.33337(19) 0.64401(17)
Zn6_2 Zn 0.63518(4) 0.39672(3) 0.56756(2)
N1_3 N 0.6193(3) 0.9399(2) 0.8518(2)
N2_3 N 0.6152(3) 0.8706(2) 0.9726(2)
C11_3 C 0.9322(4) 0.9594(3) 0.9668(3)
H5_3 H 0.8868 0.9311 0.9446
C15_3 C 0.6434(5) 0.7265(3) 0.9806(4)
H9_3 H 0.6512 0.6778 0.9833
C16_3 C 0.6366(4) 0.7590(3) 0.9161(3)
C17_3 C 0.6438(5) 0.7175(3) 0.8501(4)
C18_3 C 0.6448(5) 0.7575(3) 0.7800(4)
C19_3 C 0.6375(4) 0.8353(3) 0.7828(3)
C20_3 C 0.6436(5) 0.8754(4) 0.7226(3)
H10_3 H 0.6515 0.8535 0.6792
C21_3 C 0.6381(5) 0.9466(4) 0.7265(3)
H11_3 H 0.6421 0.9744 0.6863
C22_3 C 0.6261(5) 0.9768(3) 0.7928(3)
C23_3 C 0.6255(3) 0.8698(3) 0.8467(3)
C24_3 C 0.6241(3) 0.8312(2) 0.9142(3)
O4_3 O 0.7414(2) 0.99401(19) 0.97749(17)
O8_3 O 0.6535(4) 0.7251(3) 0.7259(3)
O9_3 O 0.6484(5) 0.6539(3) 0.8499(3)
Zn2_2 Zn 0.40450(4) 0.48385(3) 0.54452(3)
N1_4 N 0.3807(3) 0.4399(2) 0.6482(2)
N2_4 N 0.3848(3) 0.3706(2) 0.5274(2)
C1_4 C 0.3963(3) 0.6464(3) 0.5739(2)
C2_4 C 0.3984(4) 0.7025(2) 0.6304(2)
C3_4 C 0.4100(5) 0.6828(3) 0.6993(2)
H1_4 H 0.4204 0.6356 0.7105
C4_4 C 0.4064(4) 0.7329(3) 0.7523(3)
H2_4 H 0.4138 0.7189 0.7988
C5_4 C 0.3921(3) 0.8030(2) 0.7370(2)
C6_4 C 0.3850(4) 0.8575(3) 0.7940(3)
C7_4 C 0.3828(4) 0.8226(3) 0.6670(2)
H3_4 H 0.3747 0.8700 0.6556
C8_4 C 0.3855(4) 0.7726(3) 0.6141(2)
H4_4 H 0.3784 0.7863 0.5675
C9_4 C 0.2031(3) 0.5287(2) 0.4847(2)
C10_4 C 0.0971(3) 0.5146(3) 0.4919(2)
C11_4 C 0.0678(4) 0.4594(3) 0.5332(3)
H5_4 H 0.1132 0.4311 0.5554
C12_4 C 0.0296(4) 0.5542(3) 0.4581(3)
H6_4 H 0.0491 0.5908 0.4288
C13_3 C 0.3777(4) 0.3377(3) 0.4654(3)
H7_3 H 0.3841 0.3642 0.4246
C14_3 C 0.3613(5) 0.2659(4) 0.4595(4)
H8_3 H 0.3536 0.2450 0.4156
C15_4 C 0.3566(5) 0.2265(3) 0.5194(4)
H9_4 H 0.3488 0.1778 0.5167
C16_4 C 0.3634(4) 0.2590(3) 0.5839(3)
C17_4 C 0.3562(5) 0.2175(3) 0.6499(4)
C18_4 C 0.3552(5) 0.2575(3) 0.7200(4)
C19_4 C 0.3625(4) 0.3353(3) 0.7172(3)
C20_4 C 0.3564(5) 0.3754(4) 0.7774(3)
H10_4 H 0.3485 0.3535 0.8208
C21_4 C 0.3619(5) 0.4466(4) 0.7735(3)
H11_4 H 0.3579 0.4744 0.8137
C22_4 C 0.3739(5) 0.4768(3) 0.7072(3)
H12_4 H 0.3772 0.5257 0.7042
C23_4 C 0.3745(3) 0.3698(3) 0.6533(3)
C24_4 C 0.3759(3) 0.3312(2) 0.5858(3)
O1_4 O 0.3833(3) 0.66818(17) 0.51167(16)
O2_4 O 0.4094(3) 0.58407(16) 0.59109(16)
O3_4 O 0.2285(2) 0.57569(17) 0.44089(17)
O4_4 O 0.2586(2) 0.49401(19) 0.52251(17)
O5_4 O 0.3786(3) 0.9201(2) 0.7790(2)
O7_2 O 0.4443(2) 0.51870(18) 0.44399(17)
O8_4 O 0.3465(4) 0.2251(3) 0.7741(3)
O9_4 O 0.3516(5) 0.1539(3) 0.6501(3)
H13_3 H 0.430(4) 0.494(2) 0.421(2)
Zn8_2 Zn 0.59550(4) 0.51615(3) 0.45548(3)
O22_2 O 0.5557(2) 0.48130(18) 0.55601(17)
C25_4 C 0.7969(3) 0.4713(2) 0.5153(2)
C26_4 C 0.9029(3) 0.4854(3) 0.5081(2)
C27_4 C 0.9322(4) 0.5406(3) 0.4668(3)
H14_4 H 0.8868 0.5689 0.4446
C28_4 C 0.9704(4) 0.4458(3) 0.5419(3)
H15_4 H 0.9509 0.4092 0.5712
O10_4 O 0.7715(2) 0.42431(17) 0.55911(17)
O11_4 O 0.7414(2) 0.50599(19) 0.47749(17)
N3_4 N 0.6193(3) 0.5601(2) 0.3518(2)
N4_4 N 0.6152(3) 0.6294(2) 0.4726(2)
C29_4 C 0.6037(3) 0.3536(3) 0.4261(2)
C30_4 C 0.6016(4) 0.2975(2) 0.3696(2)
C31_4 C 0.5900(5) 0.3172(3) 0.3007(2)
H16_4 H 0.5796 0.3644 0.2895
C32_4 C 0.5936(4) 0.2671(3) 0.2477(3)
H17_4 H 0.5862 0.2811 0.2012
C33_4 C 0.6079(3) 0.1970(2) 0.2630(2)
C34_4 C 0.6150(4) 0.1425(3) 0.2060(3)
C35_4 C 0.6172(4) 0.1774(3) 0.3330(2)
H18_4 H 0.6253 0.1300 0.3444
C36_4 C 0.6145(4) 0.2274(3) 0.3859(2)
H19_4 H 0.6216 0.2137 0.4325
C37_3 C 0.6223(4) 0.6623(3) 0.5346(3)
H20_3 H 0.6159 0.6358 0.5754
C38_3 C 0.6387(5) 0.7341(4) 0.5405(4)
H21_3 H 0.6464 0.7550 0.5844
C39_4 C 0.6434(5) 0.7735(3) 0.4806(4)
H22_4 H 0.6512 0.8222 0.4833
C40_4 C 0.6366(4) 0.7410(3) 0.4161(3)
C41_4 C 0.6438(5) 0.7825(3) 0.3501(4)
C42_4 C 0.6448(5) 0.7425(3) 0.2800(4)
C43_4 C 0.6375(4) 0.6647(3) 0.2828(3)
C44_4 C 0.6436(5) 0.6246(4) 0.2226(3)
H23_4 H 0.6515 0.6465 0.1792
C45_4 C 0.6381(5) 0.5534(4) 0.2265(3)
H24_4 H 0.6421 0.5256 0.1863
C46_4 C 0.6261(5) 0.5232(3) 0.2928(3)
H25_4 H 0.6228 0.4743 0.2958
C47_4 C 0.6255(3) 0.6302(3) 0.3467(3)
C48_4 C 0.6241(3) 0.6688(2) 0.4142(3)
O12_4 O 0.6167(3) 0.33182(17) 0.48833(16)
O13_4 O 0.5906(3) 0.41593(16) 0.40891(16)
O14_4 O 0.6214(3) 0.0799(2) 0.2210(2)
O17_4 O 0.6535(4) 0.7749(3) 0.2259(3)
O18_4 O 0.6484(5) 0.8461(3) 0.3499(3)
H26_3 H 0.570(4) 0.506(2) 0.579(2)
C37_4 C 0.3777(4) 0.1623(3) 0.9654(3)
H20_4 H 0.3841 0.1358 0.9246
C38_4 C 0.3613(5) 0.2341(4) 0.9595(4)
H21_4 H 0.3536 0.2550 0.9156
H26_4 H 0.430(4) 0.006(2) 0.921(2)
C13_4 C 0.6223(4) 0.8377(3) 0.0346(3)
H7_4 H 0.6159 0.8642 0.0754
C14_4 C 0.6387(5) 0.7659(4) 0.0405(4)
H8_4 H 0.6464 0.7450 0.0844
H13_4 H 0.570(4) 0.994(2) 0.079(2)
loop_
_geom_bond_atom_site_label_1
_geom_bond_atom_site_label_2
_geom_bond_site_symmetry_1
_geom_bond_site_symmetry_2
Zn2 N1 1_555 1_555
N1 C22 1_555 1_555
N2 Zn2 1_555 1_555
C11 H5 1_555 1_555
C13 N2 1_555 1_555
H7 C13 1_555 1_555
C14 C13 1_555 1_555
H8 C14 1_555 1_555
C15 C14 1_555 1_555
H9 C15 1_555 1_555
C16 C15 1_555 1_555
C17 C16 1_555 1_555
C18 C17 1_555 1_555
C19 C18 1_555 1_555
C20 C19 1_555 1_555
H10 C20 1_555 1_555
C21 C20 1_555 1_555
H11 C21 1_555 1_555
C22 C21 1_555 1_555
C23 N1 1_555 1_555
C24 N2 1_555 1_555
O4 Zn2 1_555 1_555
O8 C18 1_555 1_555
O9 C17 1_555 1_555
C25 C26 1_555 1_555
C28 C11 1_555 1_555
H15 C28 1_555 1_555
O10 C25 1_555 1_555
Zn3 O10 1_555 1_555
C29 C30 1_555 1_555
C30 C31 1_555 1_555
C31 H16 1_555 1_555
C32 C31 1_555 1_555
H17 C32 1_555 1_555
C33 C32 1_555 1_555
C34 C33 1_555 1_555
C35 C33 1_555 1_555
H18 C35 1_555 1_555
C36 C30 1_555 1_555
H19 C36 1_555 1_555
O12 Zn3 1_555 1_555
O14 C34 1_555 1_555
O15 C34 1_555 1_555
O22 Zn3 1_555 1_555
Zn5 O15 1_555 1_555
O19 Zn3 1_555 1_555
C16 C24 1_555 1_555
C19 C23 1_555 1_555
C23 C24 1_555 1_555
C26 C28 1_555 1_555
C29 O12 1_555 1_555
C29 O13 1_555 1_555
C35 C36 1_555 1_555
Zn1 O1 1_555 1_555
C1 C2 1_555 1_555
C2 C3 1_555 1_555
C3 H1 1_555 1_555
C4 C3 1_555 1_555
H2 C4 1_555 1_555
C5 C4 1_555 1_555
C6 C5 1_555 1_555
C7 C5 1_555 1_555
H3 C7 1_555 1_555
C8 C2 1_555 1_555
H4 C8 1_555 1_555
C9 C10 1_555 1_555
C12 C10 1_555 1_555
H6 C12 1_555 1_555
O1 C1 1_555 1_555
O3 Zn1 1_555 1_555
O5 C6 1_555 1_555
O6 C6 1_555 1_555
O7 Zn1 1_555 1_555
C27 C12 1_555 1_555
H14 C27 1_555 1_555
Zn8 O11 1_555 1_555
N3 Zn8 1_555 1_555
N4 Zn8 1_555 1_555
C37 N4 1_555 1_555
H20 C37 1_555 1_555
C38 C37 1_555 1_555
H21 C38 1_555 1_555
C39 C38 1_555 1_555
H22 C39 1_555 1_555
C40 C39 1_555 1_555
C41 C40 1_555 1_555
C42 C41 1_555 1_555
C43 C42 1_555 1_555
C44 C43 1_555 1_555
H23 C44 1_555 1_555
C45 C44 1_555 1_555
H24 C45 1_555 1_555
C46 N3 1_555 1_555
C47 N3 1_555 1_555
C48 N4 1_555 1_555
O17 C42 1_555 1_555
O18 C41 1_555 1_555
Zn6 O6 1_555 1_555
O20 Zn1 1_555 1_555
C1 O2 1_555 1_555
C7 C8 1_555 1_555
C9 O3 1_555 1_555
C40 C48 1_555 1_555
C43 C47 1_555 1_555
C45 C46 1_555 1_555
C47 C48 1_555 1_555
Zn7 N1_2 1_555 1_555
N1_2 C22_2 1_555 1_555
N2_2 Zn7 1_555 1_555
C1_2 C2_2 1_555 1_555
C2_2 C3_2 1_555 1_555
C3_2 H1_2 1_555 1_555
C4_2 C3_2 1_555 1_555
H2_2 C4_2 1_555 1_555
C5_2 C4_2 1_555 1_555
C6_2 C5_2 1_555 1_555
C7_2 C5_2 1_555 1_555
H3_2 C7_2 1_555 1_555
C8_2 C2_2 1_555 1_555
H4_2 C8_2 1_555 1_555
C11_2 H5_2 1_555 1_555
H9_2 C15_2 1_555 1_555
C16_2 C15_2 1_555 1_555
C17_2 C16_2 1_555 1_555
C18_2 C17_2 1_555 1_555
C19_2 C18_2 1_555 1_555
C20_2 C19_2 1_555 1_555
H10_2 C20_2 1_555 1_555
C21_2 C20_2 1_555 1_555
H11_2 C21_2 1_555 1_555
C22_2 C21_2 1_555 1_555
H12_2 C22_2 1_555 1_555
C23_2 N1_2 1_555 1_555
C24_2 N2_2 1_555 1_555
O1_2 C1_2 1_555 1_555
O2_2 Zn7 1_555 1_555
O4_2 Zn7 1_555 1_555
O5_2 C6_2 1_555 1_555
O19 C6_2 1_555 1_555
O8_2 C18_2 1_555 1_555
O9_2 C17_2 1_555 1_555
C25_2 C26_2 1_555 1_555
C28_2 C11_2 1_555 1_555
H15_2 C28_2 1_555 1_555
O10_2 C25_2 1_555 1_555
Zn6 O10_2 1_555 1_555
H20_2 C37_2 1_555 1_555
C38_2 C37_2 1_555 1_555
H21_2 C38_2 1_555 1_555
O16 Zn6 1_555 1_555
H26_2 O16 1_555 1_555
C1_2 O2_2 1_555 1_555
C7_2 C8_2 1_555 1_555
C16_2 C24_2 1_555 1_555
C19_2 C23_2 1_555 1_555
C23_2 C24_2 1_555 1_555
C26_2 C28_2 1_555 1_555
C9_2 C10_2 1_555 1_555
C12_2 C10_2 1_555 1_555
H6_2 C12_2 1_555 1_555
H7_2 C13_2 1_555 1_555
C14_2 C13_2 1_555 1_555
H8_2 C14_2 1_555 1_555
O3_2 Zn5 1_555 1_555
O21 Zn5 1_555 1_555
H13_2 O21 1_555 1_555
C27_2 C12_2 1_555 1_555
H14_2 C27_2 1_555 1_555
Zn4 O11_2 1_555 1_555
N3_2 Zn4 1_555 1_555
N4_2 Zn4 1_555 1_555
C29_2 C30_2 1_555 1_555
C30_2 C31_2 1_555 1_555
C31_2 H16_2 1_555 1_555
C32_2 C31_2 1_555 1_555
H17_2 C32_2 1_555 1_555
C33_2 C32_2 1_555 1_555
C34_2 C33_2 1_555 1_555
C35_2 C33_2 1_555 1_555
H18_2 C35_2 1_555 1_555
C36_2 C30_2 1_555 1_555
H19_2 C36_2 1_555 1_555
H22_2 C39_2 1_555 1_555
C40_2 C39_2 1_555 1_555
C41_2 C40_2 1_555 1_555
C42_2 C41_2 1_555 1_555
C43_2 C42_2 1_555 1_555
C44_2 C43_2 1_555 1_555
H23_2 C44_2 1_555 1_555
C45_2 C44_2 1_555 1_555
H24_2 C45_2 1_555 1_555
C46_2 N3_2 1_555 1_555
H25_2 C46_2 1_555 1_555
C47_2 N3_2 1_555 1_555
C48_2 N4_2 1_555 1_555
O13_2 Zn4 1_555 1_555
O14_2 C34_2 1_555 1_555
O20 C34_2 1_555 1_555
O17_2 C42_2 1_555 1_555
O18_2 C41_2 1_555 1_555
C9_2 O3_2 1_555 1_555
C29_2 O12_2 1_555 1_555
C29_2 O13_2 1_555 1_555
C35_2 C36_2 1_555 1_555
C40_2 C48_2 1_555 1_555
C43_2 C47_2 1_555 1_555
C45_2 C46_2 1_555 1_555
C47_2 C48_2 1_555 1_555
H14_3 C27_3 1_555 1_555
Zn4_2 O11_3 1_555 1_555
N3_3 Zn4_2 1_555 1_555
N4_3 Zn4_2 1_555 1_555
H22_3 C39_3 1_555 1_555
C40_3 C39_3 1_555 1_555
C41_3 C40_3 1_555 1_555
C42_3 C41_3 1_555 1_555
C43_3 C42_3 1_555 1_555
C44_3 C43_3 1_555 1_555
H23_3 C44_3 1_555 1_555
C45_3 C44_3 1_555 1_555
H24_3 C45_3 1_555 1_555
C46_3 N3_3 1_555 1_555
C47_3 N3_3 1_555 1_555
C48_3 N4_3 1_555 1_555
O17_3 C42_3 1_555 1_555
O18_3 C41_3 1_555 1_555
O21_2 Zn4_2 1_555 1_555
C40_3 C48_3 1_555 1_555
C43_3 C47_3 1_555 1_555
C45_3 C46_3 1_555 1_555
C47_3 C48_3 1_555 1_555
C29_3 C30_3 1_555 1_555
C30_3 C31_3 1_555 1_555
C31_3 H16_3 1_555 1_555
C32_3 C31_3 1_555 1_555
H17_3 C32_3 1_555 1_555
C33_3 C32_3 1_555 1_555
C34_3 C33_3 1_555 1_555
C35_3 C33_3 1_555 1_555
H18_3 C35_3 1_555 1_555
C36_3 C30_3 1_555 1_555
H19_3 C36_3 1_555 1_555
O14_3 C34_3 1_555 1_555
O15_2 C34_3 1_555 1_555
Zn5_2 O15_2 1_555 1_555
C29_3 O12_3 1_555 1_555
C29_3 O13_3 1_555 1_555
C35_3 C36_3 1_555 1_555
C25_3 C26_3 1_555 1_555
H15_3 C28_3 1_555 1_555
O10_3 C25_3 1_555 1_555
Zn3_2 O10_3 1_555 1_555
O16_2 Zn3_2 1_555 1_555
Zn7_2 O16_2 1_555 1_555
O19_2 Zn3_2 1_555 1_555
C26_3 C28_3 1_555 1_555
C9_3 C10_3 1_555 1_555
C12_3 C10_3 1_555 1_555
H6_3 C12_3 1_555 1_555
O3_3 Zn1_2 1_555 1_555
O21_2 Zn1_2 1_555 1_555
O20_2 Zn1_2 1_555 1_555
C9_3 O3_3 1_555 1_555
C1_3 C2_3 1_555 1_555
C2_3 C3_3 1_555 1_555
C3_3 H1_3 1_555 1_555
C4_3 C3_3 1_555 1_555
H2_3 C4_3 1_555 1_555
C5_3 C4_3 1_555 1_555
C6_3 C5_3 1_555 1_555
C7_3 C5_3 1_555 1_555
H3_3 C7_3 1_555 1_555
C8_3 C2_3 1_555 1_555
H4_3 C8_3 1_555 1_555
O1_3 C1_3 1_555 1_555
O5_3 C6_3 1_555 1_555
O6_2 C6_3 1_555 1_555
Zn6_2 O6_2 1_555 1_555
C1_3 O2_3 1_555 1_555
C7_3 C8_3 1_555 1_555
Zn7_2 N1_3 1_555 1_555
N1_3 C22_3 1_555 1_555
N2_3 Zn7_2 1_555 1_555
C11_3 H5_3 1_555 1_555
H9_3 C15_3 1_555 1_555
C16_3 C15_3 1_555 1_555
C17_3 C16_3 1_555 1_555
C18_3 C17_3 1_555 1_555
C19_3 C18_3 1_555 1_555
C20_3 C19_3 1_555 1_555
H10_3 C20_3 1_555 1_555
C21_3 C20_3 1_555 1_555
H11_3 C21_3 1_555 1_555
C22_3 C21_3 1_555 1_555
C23_3 N1_3 1_555 1_555
C24_3 N2_3 1_555 1_555
O4_3 Zn7_2 1_555 1_555
O8_3 C18_3 1_555 1_555
O9_3 C17_3 1_555 1_555
C16_3 C24_3 1_555 1_555
C19_3 C23_3 1_555 1_555
C23_3 C24_3 1_555 1_555
Zn5_2 O1_4 1_555 1_555
Zn2_2 N1_4 1_555 1_555
N1_4 C22_4 1_555 1_555
N2_4 Zn2_2 1_555 1_555
C1_4 C2_4 1_555 1_555
C2_4 C3_4 1_555 1_555
C3_4 H1_4 1_555 1_555
C4_4 C3_4 1_555 1_555
H2_4 C4_4 1_555 1_555
C5_4 C4_4 1_555 1_555
C6_4 C5_4 1_555 1_555
C7_4 C5_4 1_555 1_555
H3_4 C7_4 1_555 1_555
C8_4 C2_4 1_555 1_555
H4_4 C8_4 1_555 1_555
C9_4 C10_4 1_555 1_555
C10_4 C11_4 1_555 1_555
C11_4 H5_4 1_555 1_555
C12_4 C10_4 1_555 1_555
H6_4 C12_4 1_555 1_555
C13_3 N2_4 1_555 1_555
H7_3 C13_3 1_555 1_555
C14_3 C13_3 1_555 1_555
H8_3 C14_3 1_555 1_555
C15_4 C14_3 1_555 1_555
H9_4 C15_4 1_555 1_555
C16_4 C15_4 1_555 1_555
C17_4 C16_4 1_555 1_555
C18_4 C17_4 1_555 1_555
C19_4 C18_4 1_555 1_555
C20_4 C19_4 1_555 1_555
H10_4 C20_4 1_555 1_555
C21_4 C20_4 1_555 1_555
H11_4 C21_4 1_555 1_555
C22_4 C21_4 1_555 1_555
H12_4 C22_4 1_555 1_555
C23_4 N1_4 1_555 1_555
C24_4 N2_4 1_555 1_555
O1_4 C1_4 1_555 1_555
O2_4 Zn2_2 1_555 1_555
O3_4 Zn5_2 1_555 1_555
O4_4 Zn2_2 1_555 1_555
O5_4 C6_4 1_555 1_555
O19_2 C6_4 1_555 1_555
O7_2 Zn5_2 1_555 1_555
O8_4 C18_4 1_555 1_555
O9_4 C17_4 1_555 1_555
H13_3 O7_2 1_555 1_555
Zn8_2 O7_2 1_555 1_555
O22_2 Zn2_2 1_555 1_555
Zn2_2 O7_2 1_555 1_555
C1_4 O2_4 1_555 1_555
C7_4 C8_4 1_555 1_555
C9_4 O3_4 1_555 1_555
C9_4 O4_4 1_555 1_555
C16_4 C24_4 1_555 1_555
C19_4 C23_4 1_555 1_555
C23_4 C24_4 1_555 1_555
Zn8_2 O22_2 1_555 1_555
C25_4 C26_4 1_555 1_555
C26_4 C27_4 1_555 1_555
H14_4 C27_4 1_555 1_555
H15_4 C28_4 1_555 1_555
O10_4 C25_4 1_555 1_555
O11_4 C25_4 1_555 1_555
Zn6_2 O10_4 1_555 1_555
Zn8_2 O11_4 1_555 1_555
N3_4 Zn8_2 1_555 1_555
N4_4 Zn8_2 1_555 1_555
C29_4 C30_4 1_555 1_555
C30_4 C31_4 1_555 1_555
C31_4 H16_4 1_555 1_555
C32_4 C31_4 1_555 1_555
H17_4 C32_4 1_555 1_555
C33_4 C32_4 1_555 1_555
C34_4 C33_4 1_555 1_555
C35_4 C33_4 1_555 1_555
H18_4 C35_4 1_555 1_555
C36_4 C30_4 1_555 1_555
H19_4 C36_4 1_555 1_555
C37_3 N4_4 1_555 1_555
H20_3 C37_3 1_555 1_555
C38_3 C37_3 1_555 1_555
H21_3 C38_3 1_555 1_555
C39_4 C38_3 1_555 1_555
H22_4 C39_4 1_555 1_555
C40_4 C39_4 1_555 1_555
C41_4 C40_4 1_555 1_555
C42_4 C41_4 1_555 1_555
C43_4 C42_4 1_555 1_555
C44_4 C43_4 1_555 1_555
H23_4 C44_4 1_555 1_555
C45_4 C44_4 1_555 1_555
H24_4 C45_4 1_555 1_555
C46_4 N3_4 1_555 1_555
H25_4 C46_4 1_555 1_555
C47_4 N3_4 1_555 1_555
C48_4 N4_4 1_555 1_555
O12_4 Zn6_2 1_555 1_555
O13_4 Zn8_2 1_555 1_555
O14_4 C34_4 1_555 1_555
O20_2 C34_4 1_555 1_555
O22_2 Zn6_2 1_555 1_555
O17_4 C42_4 1_555 1_555
O18_4 C41_4 1_555 1_555
H26_3 O22_2 1_555 1_555
C26_4 C28_4 1_555 1_555
C29_4 O12_4 1_555 1_555
C29_4 O13_4 1_555 1_555
C35_4 C36_4 1_555 1_555
C40_4 C48_4 1_555 1_555
C43_4 C47_4 1_555 1_555
C45_4 C46_4 1_555 1_555
C47_4 C48_4 1_555 1_555
H20_4 C37_4 1_555 1_555
C38_4 C37_4 1_555 1_555
H21_4 C38_4 1_555 1_555
H7_4 C13_4 1_555 1_555
C14_4 C13_4 1_555 1_555
H8_4 C14_4 1_555 1_555

#END
