
###############################################################################
#
# This file contains modified crystal structure data generated from the
# MOF subset of the Cambridge Structural Database (CSD) v543 
# hosted by the Cambridge Crystallographic Data Centre (CCDC).
#
# This work is licensed under the Creative Commons
# Attribution-NonCommercial-ShareAlike 4.0 International License.
# To view a copy of this license, visit
# http://creativecommons.org/licenses/by-nc-sa/4.0/
# or send a letter to
# Creative Commons, PO Box 1866, Mountain View, CA 94042, USA.
#
# CIF created using the CSD Python API on 29 September 2022
# The structure has been converted into the P1 space group
# The structure has a 3D framework
# The original CSD entry XOLGEM is in the rhombohedral crystal system
# The framework has been calculated to contain at least 10.0% void space
# The void calculation uses a probe of radius 1.32A, grid spacing 0.4
# The framework is charged, counterions have been retained in the structure
#
###############################################################################

data_XOLGEM
_chemical_formula_moiety         '(C288 H72 Co76 Li9 N216 O324 55-)n'
_symmetry_cell_setting           triclinic
_symmetry_space_group_name_H-M   'P 1'
_symmetry_Int_Tables_number      1
_space_group_name_Hall           'P 1'
loop_
_symmetry_equiv_pos_site_id
_symmetry_equiv_pos_as_xyz
1 x,y,z
_cell_length_a                   17.6972(11)
_cell_length_b                   17.6972(11)
_cell_length_c                   76.397(5)
_cell_angle_alpha                90
_cell_angle_beta                 90
_cell_angle_gamma                120
_cell_volume                     20721.3
loop_
_atom_site_label
_atom_site_type_symbol
_atom_site_fract_x
_atom_site_fract_y
_atom_site_fract_z
Co1 Co -0.0000 -0.0000 0.5000
O1 O 0.10991(19) 0.0516(2) 0.48445(3)
H1 H 0.1566 0.0913 0.4901
H2 H 0.1040 0.0774 0.4751
O6 O 0.05831(28) 0.10991(19) 0.51555(3)
H11 H 0.0653 0.1566 0.5099
H12 H 0.0266 0.1040 0.5249
Co1_2 Co 0.0000 1.0000 0.5000
O5 O 0.0516(2) 0.94169(28) 0.51555(3)
H9 H 0.0913 0.9347 0.5099
H10 H 0.0774 0.9734 0.5249
Co1_3 Co 1.0000 -0.0000 0.5000
O2 O 0.9484(2) 0.05831(28) 0.48445(3)
H3 H 0.9087 0.0653 0.4901
H4 H 0.9226 0.0266 0.4751
Co1_4 Co 1.0000 1.0000 0.5000
O3 O 0.94169(28) 0.89009(19) 0.48445(3)
H5 H 0.9347 0.8434 0.4901
H6 H 0.9734 0.8960 0.4751
O4 O 0.89009(19) 0.9484(2) 0.51555(3)
H7 H 0.8434 0.9087 0.5099
H8 H 0.8960 0.9226 0.5249
Co1_5 Co 0.0000 0.0000 -0.0000
O3_2 O 0.05160(34) 0.10991(19) 0.01555(3)
H5_2 H 0.0913 0.1566 0.0099
H6_2 H 0.0774 0.1040 0.0249
Co1_6 Co -0.0000 -0.0000 1.0000
O5_2 O 0.10991(34) 0.05831(28) 0.98445(3)
H9_2 H 0.1566 0.0653 0.9901
H10_2 H 0.1040 0.0266 0.9751
Co1_7 Co 0.0000 1.0000 -0.0000
O1_2 O 0.05831(28) 0.9484(2) 0.01555(3)
H1_2 H 0.0653 0.9087 0.0099
H2_2 H 0.0266 0.9226 0.0249
Co1_8 Co 0.0000 1.0000 1.0000
Co1_9 Co 1.0000 0.0000 -0.0000
Co1_10 Co 1.0000 -0.0000 1.0000
O4_2 O 0.94169(28) 0.0516(2) 0.98445(3)
H7_2 H 0.9347 0.0913 0.9901
H8_2 H 0.9734 0.0774 0.9751
Co1_11 Co 1.0000 1.0000 -0.0000
O2_2 O 0.89009(34) 0.94169(28) 0.01555(3)
H3_2 H 0.8434 0.9347 0.0099
H4_2 H 0.8960 0.9734 0.0249
Co1_12 Co 1.0000 1.0000 1.0000
O6_2 O 0.94840(34) 0.89009(19) 0.98445(3)
H11_2 H 0.9087 0.8434 0.9901
H12_2 H 0.9226 0.8960 0.9751
Co1_13 Co 0.6667 0.3333 0.8333
O1_3 O 0.77658(19) 0.3849(2) 0.81778(3)
H1_3 H 0.8233 0.4246 0.8234
H2_3 H 0.7707 0.4107 0.8084
O2_3 O 0.6151(2) 0.39164(28) 0.81778(3)
H3_3 H 0.5754 0.3986 0.8234
H4_3 H 0.5893 0.3599 0.8084
O3_3 O 0.60836(28) 0.22342(19) 0.81778(3)
H5_3 H 0.6014 0.1767 0.8234
H6_3 H 0.6401 0.2293 0.8084
O4_3 O 0.55676(19) 0.2817(2) 0.84888(3)
H7_3 H 0.5101 0.2420 0.8432
H8_3 H 0.5627 0.2559 0.8582
O5_3 O 0.7183(2) 0.27502(28) 0.84888(3)
H9_3 H 0.7580 0.2680 0.8432
H10_3 H 0.7441 0.3067 0.8582
O6_3 O 0.72498(28) 0.44324(19) 0.84888(3)
H11_3 H 0.7320 0.4899 0.8432
H12_3 H 0.6933 0.4373 0.8582
Co1_14 Co 0.6667 0.3333 0.3333
O1_4 O 0.72498(28) 0.2817(2) 0.34888(3)
H1_4 H 0.7320 0.2420 0.3432
H2_4 H 0.6933 0.2559 0.3582
O2_4 O 0.55676(34) 0.27502(28) 0.34888(3)
H3_4 H 0.5101 0.2680 0.3432
H4_4 H 0.5627 0.3067 0.3582
O3_4 O 0.71827(34) 0.44324(19) 0.34888(3)
H5_4 H 0.7580 0.4899 0.3432
H6_4 H 0.7441 0.4373 0.3582
O4_4 O 0.60836(28) 0.3849(2) 0.31778(3)
H7_4 H 0.6014 0.4246 0.3234
H8_4 H 0.6401 0.4107 0.3084
O5_4 O 0.77658(34) 0.39164(28) 0.31778(3)
H9_4 H 0.8233 0.3986 0.3234
H10_4 H 0.7707 0.3599 0.3084
O6_4 O 0.61507(34) 0.22342(19) 0.31778(3)
H11_4 H 0.5754 0.1767 0.3234
H12_4 H 0.5893 0.2293 0.3084
Co1_15 Co 0.3333 0.6667 0.1667
O1_5 O 0.44324(19) 0.7183(2) 0.15112(3)
H1_5 H 0.4899 0.7580 0.1568
H2_5 H 0.4373 0.7441 0.1418
O2_5 O 0.2817(2) 0.72498(28) 0.15112(3)
H3_5 H 0.2420 0.7320 0.1568
H4_5 H 0.2559 0.6933 0.1418
O3_5 O 0.27502(28) 0.55676(19) 0.15112(3)
H5_5 H 0.2680 0.5101 0.1568
H6_5 H 0.3067 0.5627 0.1418
O4_5 O 0.22342(19) 0.6151(2) 0.18222(3)
H7_5 H 0.1767 0.5754 0.1766
H8_5 H 0.2293 0.5893 0.1916
O5_5 O 0.3849(2) 0.60836(28) 0.18222(3)
H9_5 H 0.4246 0.6014 0.1766
H10_5 H 0.4107 0.6401 0.1916
O6_5 O 0.39164(28) 0.77658(19) 0.18222(3)
H11_5 H 0.3986 0.8233 0.1766
H12_5 H 0.3599 0.7707 0.1916
Co1_16 Co 0.3333 0.6667 0.6667
O1_6 O 0.39164(28) 0.6151(2) 0.68222(3)
H1_6 H 0.3986 0.5754 0.6766
H2_6 H 0.3599 0.5893 0.6916
O2_6 O 0.22342(34) 0.60836(28) 0.68222(3)
H3_6 H 0.1767 0.6014 0.6766
H4_6 H 0.2293 0.6401 0.6916
O3_6 O 0.38493(34) 0.77658(19) 0.68222(3)
H5_6 H 0.4246 0.8233 0.6766
H6_6 H 0.4107 0.7707 0.6916
O4_6 O 0.27502(28) 0.7183(2) 0.65112(3)
H7_6 H 0.2680 0.7580 0.6568
H8_6 H 0.3067 0.7441 0.6418
O5_6 O 0.44324(34) 0.72498(28) 0.65112(3)
H9_6 H 0.4899 0.7320 0.6568
H10_6 H 0.4373 0.6933 0.6418
O6_6 O 0.28173(34) 0.55676(19) 0.65112(3)
H11_6 H 0.2420 0.5101 0.6568
H12_6 H 0.2559 0.5627 0.6418
Co2 Co 0.0000 -0.0000 0.431197(12)
C9 C 0.1647(4) 0.0258(6) 0.42061(6)
C16 C 0.3623(4) 0.0261(6) 0.53263(8)
Li2 Li 0.3333 0.0345(11) 0.4167
N11 N 0.2337(3) 0.0128(4) 0.49552(6)
N12 N 0.2809(3) 0.0473(4) 0.50938(6)
O15 O 0.1070(2) 0.0445(4) 0.41612(4)
O16 O 0.2339(3) 0.0483(4) 0.41309(5)
O22 O 0.3814(3) 0.1029(4) 0.53710(5)
C18 C 0.0290(4) 0.1701(3) 0.43692(5)
C19 C 0.0656(5) 0.2437(4) 0.44737(5)
C20 C 0.0718(6) 0.3314(4) 0.44818(7)
C21 C 0.1701(6) 0.4306(4) 0.50545(9)
C22 C 0.0818(5) 0.3489(4) 0.50676(7)
C23 C 0.0079(5) 0.3116(3) 0.51686(7)
Co5 Co 0.16787(7) 0.32796(5) 0.477172(7)
N13 N 0.0523(4) 0.1159(3) 0.44389(5)
N14 N 0.1021(4) 0.1506(3) 0.45789(5)
N15 N 0.1106(4) 0.2283(3) 0.45981(4)
N16 N 0.0653(4) 0.2887(3) 0.49366(5)
O25 O 0.0352(4) 0.3530(3) 0.43692(5)
O26 O 0.1159(3) 0.3793(2) 0.46083(4)
O27 O 0.2155(4) 0.4338(2) 0.49250(5)
O28 O 0.1912(5) 0.4874(3) 0.51642(6)
O29 O 0.0195(5) 0.4062(3) 0.53997(5)
C25 C 0.1389(5) 0.1647(4) 0.57939(6)
C26 C 0.1701(3) 0.1411(3) 0.56308(5)
C27 C 0.2437(4) 0.1781(3) 0.55263(5)
C28 C 0.3314(4) 0.2596(4) 0.55182(7)
C29 C 0.4306(4) 0.2605(5) 0.49455(9)
C30 C 0.3489(4) 0.2671(3) 0.49324(7)
C31 C 0.3116(3) 0.3037(4) 0.48314(7)
C32 C 0.3362(5) 0.3623(4) 0.46737(8)
Co6 Co 0.0000 0.0000 0.568803(12)
Co7 Co 0.32796(5) 0.16009(5) 0.522828(7)
N19 N 0.1159(3) 0.0636(3) 0.55611(5)
N20 N 0.1506(3) 0.0485(3) 0.54211(5)
N21 N 0.2283(3) 0.1177(3) 0.54019(4)
N22 N 0.2887(3) 0.2234(3) 0.50634(5)
N23 N 0.2209(3) 0.2337(3) 0.50448(6)
N24 N 0.2336(3) 0.2809(3) 0.49062(6)
O31 O 0.0625(3) 0.1070(2) 0.58388(4)
O32 O 0.1856(3) 0.2339(3) 0.58691(5)
O33 O 0.3530(3) 0.3178(3) 0.56308(5)
O34 O 0.3793(2) 0.2634(2) 0.53917(4)
O35 O 0.4338(2) 0.2183(3) 0.50750(5)
O36 O 0.4874(3) 0.2962(4) 0.48358(6)
O37 O 0.4062(3) 0.3867(4) 0.46003(5)
O38 O 0.2785(3) 0.3814(3) 0.46290(5)
Li4 Li 0.2988(11) 0.3333 0.5833
O57 O 0.4328(3) 0.1477(3) 0.42024(5)
O59 O 0.0197(3) 0.3685(4) 0.39641(5)
Co2_2 Co 0.0000 1.0000 0.431197(12)
C10 C 0.1411(3) 0.9710(4) 0.43692(5)
C11 C 0.1781(3) 0.9344(5) 0.44737(5)
C12 C 0.2596(4) 0.9282(6) 0.44818(7)
C13 C 0.2605(5) 0.8299(6) 0.50545(9)
C14 C 0.2671(3) 0.9182(5) 0.50676(7)
C15 C 0.3037(4) 0.9921(5) 0.51686(7)
Co4 Co 0.16009(5) 0.83213(7) 0.477172(7)
N7 N 0.0636(3) 0.9477(4) 0.44389(5)
N8 N 0.0485(3) 0.8979(4) 0.45789(5)
N9 N 0.1177(3) 0.8894(4) 0.45981(4)
N10 N 0.2234(3) 0.9347(4) 0.49366(5)
O17 O 0.3178(3) 0.9648(4) 0.43692(5)
O18 O 0.2634(2) 0.8841(3) 0.46083(4)
O19 O 0.2183(3) 0.7845(4) 0.49250(5)
O20 O 0.2962(4) 0.8088(5) 0.51642(6)
O21 O 0.3867(4) 0.9805(5) 0.53997(5)
Co6_2 Co 0.0000 1.0000 0.568803(12)
C41 C 0.0258(6) 0.8611(5) 0.57939(6)
C48 C 0.0261(6) 0.6638(5) 0.46737(8)
N35 N 0.0128(4) 0.7791(3) 0.50448(6)
N36 N 0.0473(4) 0.7664(3) 0.49062(6)
O47 O 0.0445(4) 0.9375(3) 0.58388(4)
O48 O 0.0483(4) 0.8144(3) 0.58691(5)
O54 O 0.1029(4) 0.7215(3) 0.46290(5)
Li6 Li 0.0345(11) 0.7012(11) 0.5833
O60 O 0.3489(3) 0.9803(3) 0.39641(5)
Co2_3 Co 1.0000 -0.0000 0.431197(12)
C17 C 0.9742(6) 0.1389(5) 0.42061(6)
C24 C 0.9739(6) 0.3362(5) 0.53263(8)
Li3 Li 0.9655(11) 0.2988(11) 0.4167
N17 N 0.9872(4) 0.2209(3) 0.49552(6)
N18 N 0.9527(4) 0.2336(3) 0.50938(6)
O23 O 0.9555(4) 0.0625(3) 0.41612(4)
O24 O 0.9517(4) 0.1856(3) 0.41309(5)
O30 O 0.8971(4) 0.2785(3) 0.53710(5)
Co6_3 Co 1.0000 0.0000 0.568803(12)
C34 C 0.8589(3) 0.0290(4) 0.56308(5)
C35 C 0.8219(3) 0.0656(5) 0.55263(5)
C36 C 0.7404(4) 0.0718(6) 0.55182(7)
C37 C 0.7395(5) 0.1701(6) 0.49455(9)
C38 C 0.7329(3) 0.0818(5) 0.49324(7)
C39 C 0.6963(4) 0.0079(5) 0.48314(7)
Co8 Co 0.83991(5) 0.16787(7) 0.522828(7)
N25 N 0.9364(3) 0.0523(4) 0.55611(5)
N26 N 0.9515(3) 0.1021(4) 0.54211(5)
N27 N 0.8823(3) 0.1106(4) 0.54019(4)
N28 N 0.7766(3) 0.0653(4) 0.50634(5)
O41 O 0.6822(3) 0.0352(4) 0.56308(5)
O42 O 0.7366(2) 0.1159(3) 0.53917(4)
O43 O 0.7817(3) 0.2155(4) 0.50750(5)
O44 O 0.7038(4) 0.1912(5) 0.48358(6)
O45 O 0.6133(4) 0.0195(5) 0.46003(5)
O56 O 0.8523(3) 0.2850(4) 0.42024(5)
C1 C 0.8611(5) 0.8353(4) 0.42061(6)
C2 C 0.8299(3) 0.8589(3) 0.43692(5)
C3 C 0.7563(4) 0.8219(3) 0.44737(5)
C4 C 0.6686(4) 0.7404(4) 0.44818(7)
C5 C 0.5694(4) 0.7395(5) 0.50545(9)
C6 C 0.6511(4) 0.7329(3) 0.50676(7)
C7 C 0.6884(3) 0.6963(4) 0.51686(7)
C8 C 0.6638(5) 0.6377(4) 0.53263(8)
Co2_4 Co 1.0000 1.0000 0.431197(12)
Co3 Co 0.67204(5) 0.83991(5) 0.477172(7)
Li1 Li 0.7012(11) 0.6667 0.4167
N1 N 0.8841(3) 0.9364(3) 0.44389(5)
N2 N 0.8494(3) 0.9515(3) 0.45789(5)
N3 N 0.7717(3) 0.8823(3) 0.45981(4)
N4 N 0.7113(3) 0.7766(3) 0.49366(5)
N5 N 0.7791(3) 0.7663(3) 0.49552(6)
N6 N 0.7664(3) 0.7191(3) 0.50938(6)
O7 O 0.9375(3) 0.8930(2) 0.41612(4)
O8 O 0.8144(3) 0.7661(3) 0.41309(5)
O9 O 0.6470(3) 0.6822(3) 0.43692(5)
O10 O 0.6207(2) 0.7366(2) 0.46083(4)
O11 O 0.5662(2) 0.7817(3) 0.49250(5)
O12 O 0.5126(3) 0.7038(4) 0.51642(6)
O13 O 0.5938(3) 0.6133(4) 0.53997(5)
O14 O 0.7215(3) 0.6186(3) 0.53710(5)
Co6_4 Co 1.0000 1.0000 0.568803(12)
C33 C 0.8353(4) 0.9742(6) 0.57939(6)
C40 C 0.6377(4) 0.9739(6) 0.46737(8)
N29 N 0.7663(3) 0.9872(4) 0.50448(6)
N30 N 0.7191(3) 0.9527(4) 0.49062(6)
O39 O 0.8930(2) 0.9555(4) 0.58388(4)
O40 O 0.7661(3) 0.9517(4) 0.58691(5)
O46 O 0.6186(3) 0.8971(4) 0.46290(5)
C42 C 0.9710(4) 0.8299(3) 0.56308(5)
C43 C 0.9344(5) 0.7563(4) 0.55263(5)
C44 C 0.9282(6) 0.6686(4) 0.55182(7)
C45 C 0.8299(6) 0.5694(4) 0.49455(9)
C46 C 0.9182(5) 0.6511(4) 0.49324(7)
C47 C 0.9921(5) 0.6884(3) 0.48314(7)
Co9 Co 0.83213(7) 0.67204(5) 0.522828(7)
N31 N 0.9477(4) 0.8841(3) 0.55611(5)
N32 N 0.8979(4) 0.8494(3) 0.54211(5)
N33 N 0.8894(4) 0.7717(3) 0.54019(4)
N34 N 0.9347(4) 0.7113(3) 0.50634(5)
O49 O 0.9648(4) 0.6470(3) 0.56308(5)
O50 O 0.8841(3) 0.6207(2) 0.53917(4)
O51 O 0.7845(4) 0.5662(2) 0.50750(5)
O52 O 0.8088(5) 0.5126(3) 0.48358(6)
O53 O 0.9805(5) 0.5938(3) 0.46003(5)
Li5 Li 0.6667 0.9655(11) 0.5833
O55 O 0.7150(4) 0.5672(3) 0.42024(5)
O58 O 0.6315(4) 0.6511(3) 0.39641(5)
C1_2 C 0.0258(6) 0.1647(4) 0.07939(6)
Co2_5 Co 0.0000 -0.0000 0.068803(12)
Li1_2 Li 0.0345(11) 0.3333 0.0833
N5_2 N 0.0128(4) 0.2337(3) 0.00448(6)
O7_2 O 0.0445(4) 0.1070(2) 0.08388(4)
O8_2 O 0.0483(4) 0.2339(3) 0.08691(5)
C10_2 C 0.1701(5) 0.0290(4) 0.06308(5)
C11_2 C 0.2437(6) 0.0656(5) 0.05263(5)
C12_2 C 0.3314(7) 0.0718(6) 0.05182(7)
Co4_2 Co 0.32796(9) 0.16787(7) 0.022828(7)
N7_2 N 0.1159(5) 0.0523(4) 0.05611(5)
N8_2 N 0.1506(5) 0.1021(4) 0.04211(5)
N9_2 N 0.2283(5) 0.1106(4) 0.04019(4)
N10_2 N 0.2887(5) 0.0653(4) 0.00634(5)
O17_2 O 0.3530(5) 0.0352(4) 0.06308(5)
O18_2 O 0.3793(4) 0.1159(3) 0.03917(4)
O19_2 O 0.4338(5) 0.2155(4) 0.00750(5)
C45_2 C 0.2605(7) 0.4306(4) 0.00545(9)
C46_2 C 0.2671(6) 0.3489(4) 0.00676(7)
C47_2 C 0.3037(6) 0.3116(3) 0.01686(7)
C48_2 C 0.3623(8) 0.3362(5) 0.03263(8)
N36_2 N 0.2809(5) 0.2336(3) 0.00938(6)
O52_2 O 0.2962(6) 0.4874(3) 0.01642(6)
O53_2 O 0.3867(6) 0.4062(3) 0.03997(5)
O54_2 O 0.3814(5) 0.2785(3) 0.03710(5)
O55_2 O 0.1477(5) 0.4328(3) 0.07976(5)
O60_2 O 0.3685(4) 0.0197(3) 0.10359(5)
C8_2 C 0.0261(6) 0.3623(4) 0.96737(8)
N6_2 N 0.0473(4) 0.2809(3) 0.99062(6)
O14_2 O 0.1029(4) 0.3814(3) 0.96290(5)
C13_2 C 0.4306(8) 0.1701(6) 0.99455(9)
C14_2 C 0.3489(6) 0.0818(5) 0.99324(7)
C15_2 C 0.3116(6) 0.0079(5) 0.98314(7)
O20_2 O 0.4874(6) 0.1912(5) 0.98358(6)
O21_2 O 0.4062(6) 0.0195(5) 0.96003(5)
Co6_5 Co -0.0000 -0.0000 0.931197(12)
C41_2 C 0.1647(8) 0.1389(5) 0.92061(6)
C42_2 C 0.1411(5) 0.1701(3) 0.93692(5)
C43_2 C 0.1781(6) 0.2437(4) 0.94737(5)
C44_2 C 0.2596(7) 0.3314(4) 0.94818(7)
Co9_2 Co 0.16009(9) 0.32796(5) 0.977172(7)
N31_2 N 0.0636(5) 0.1159(3) 0.94389(5)
N32_2 N 0.0485(5) 0.1506(3) 0.95789(5)
N33_2 N 0.1177(5) 0.2283(3) 0.95981(4)
N34_2 N 0.2234(5) 0.2887(3) 0.99366(5)
N35_2 N 0.2337(5) 0.2209(3) 0.99552(6)
O47_2 O 0.1070(5) 0.0625(3) 0.91612(4)
O48_2 O 0.2339(5) 0.1856(3) 0.91309(5)
O49_2 O 0.3178(5) 0.3530(3) 0.93692(5)
O50_2 O 0.2634(4) 0.3793(2) 0.96083(4)
O51_2 O 0.2183(4) 0.4338(2) 0.99250(5)
Li6_2 Li 0.3333(16) 0.2988(11) 0.9167
Co2_6 Co 0.0000 1.0000 0.068803(12)
C9_2 C 0.1389(7) 0.9742(6) 0.07939(6)
Li2_2 Li 0.2988(11) 0.9655(11) 0.0833
N11_2 N 0.2209(5) 0.9872(4) 0.00448(6)
O15_2 O 0.0625(4) 0.9555(4) 0.08388(4)
O16_2 O 0.1856(5) 0.9517(4) 0.08691(5)
C29_2 C 0.1701(6) 0.7395(5) 0.00545(9)
C30_2 C 0.0818(5) 0.7329(3) 0.00676(7)
C31_2 C 0.0079(5) 0.6963(4) 0.01686(7)
O36_2 O 0.1912(5) 0.7038(4) 0.01642(6)
O37_2 O 0.0195(5) 0.6133(4) 0.03997(5)
O57_2 O 0.2850(4) 0.8523(3) 0.07976(5)
C16_2 C 0.3362(7) 0.9739(6) 0.96737(8)
N12_2 N 0.2336(5) 0.9527(4) 0.99062(6)
O22_2 O 0.2785(5) 0.8971(4) 0.96290(5)
C26_2 C 0.0290(4) 0.8589(3) 0.93692(5)
C27_2 C 0.0656(5) 0.8219(3) 0.94737(5)
C28_2 C 0.0718(6) 0.7404(4) 0.94818(7)
Co6_6 Co 0.0000 1.0000 0.931197(12)
Co7_2 Co 0.16787(7) 0.83991(5) 0.977172(7)
N19_2 N 0.0523(4) 0.9364(3) 0.94389(5)
N20_2 N 0.1021(4) 0.9515(3) 0.95789(5)
N21_2 N 0.1106(4) 0.8823(3) 0.95981(4)
N22_2 N 0.0653(4) 0.7766(3) 0.99366(5)
O33_2 O 0.0352(4) 0.6822(3) 0.93692(5)
O34_2 O 0.1159(3) 0.7366(2) 0.96083(4)
O35_2 O 0.2155(4) 0.7817(3) 0.99250(5)
C2_2 C 0.9710(4) 0.1411(3) 0.06308(5)
C3_2 C 0.9344(5) 0.1781(3) 0.05263(5)
C4_2 C 0.9282(6) 0.2596(4) 0.05182(7)
Co2_7 Co 1.0000 -0.0000 0.068803(12)
Co3_2 Co 0.83213(7) 0.16009(5) 0.022828(7)
N1_2 N 0.9477(4) 0.0636(3) 0.05611(5)
N2_2 N 0.8979(4) 0.0485(3) 0.04211(5)
N3_2 N 0.8894(4) 0.1177(3) 0.04019(4)
N4_2 N 0.9347(4) 0.2234(3) 0.00634(5)
O9_2 O 0.9648(4) 0.3178(3) 0.06308(5)
O10_2 O 0.8841(3) 0.2634(2) 0.03917(4)
O11_2 O 0.7845(4) 0.2183(3) 0.00750(5)
C40_2 C 0.6638(7) 0.0261(6) 0.03263(8)
N30_2 N 0.7664(5) 0.0473(4) 0.00938(6)
O46_2 O 0.7215(5) 0.1029(4) 0.03710(5)
O58_2 O 0.9803(5) 0.3489(3) 0.10359(5)
C5_2 C 0.8299(6) 0.2605(5) 0.99455(9)
C6_2 C 0.9182(5) 0.2671(3) 0.99324(7)
C7_2 C 0.9921(5) 0.3037(4) 0.98314(7)
O12_2 O 0.8088(5) 0.2962(4) 0.98358(6)
O13_2 O 0.9805(5) 0.3867(4) 0.96003(5)
Co6_7 Co 1.0000 -0.0000 0.931197(12)
C33_2 C 0.8611(7) 0.0258(6) 0.92061(6)
N29_2 N 0.7791(5) 0.0128(4) 0.99552(6)
O39_2 O 0.9375(4) 0.0445(4) 0.91612(4)
O40_2 O 0.8144(5) 0.0483(4) 0.91309(5)
Li5_2 Li 0.7012(11) 0.0345(11) 0.9167
Co2_8 Co 1.0000 1.0000 0.068803(12)
C17_2 C 0.8353(8) 0.8611(5) 0.07939(6)
C18_2 C 0.8589(5) 0.8299(3) 0.06308(5)
C19_2 C 0.8219(6) 0.7563(4) 0.05263(5)
C20_2 C 0.7404(7) 0.6686(4) 0.05182(7)
Co5_2 Co 0.83991(9) 0.67204(5) 0.022828(7)
Li3_2 Li 0.6667(16) 0.7012(11) 0.0833
N13_2 N 0.9364(5) 0.8841(3) 0.05611(5)
N14_2 N 0.9515(5) 0.8494(3) 0.04211(5)
N15_2 N 0.8823(5) 0.7717(3) 0.04019(4)
N16_2 N 0.7766(5) 0.7113(3) 0.00634(5)
N17_2 N 0.7663(5) 0.7791(3) 0.00448(6)
O23_2 O 0.8930(5) 0.9375(3) 0.08388(4)
O24_2 O 0.7661(5) 0.8144(3) 0.08691(5)
O25_2 O 0.6822(5) 0.6470(3) 0.06308(5)
O26_2 O 0.7366(4) 0.6207(2) 0.03917(4)
O27_2 O 0.7817(4) 0.5662(2) 0.00750(5)
C32_2 C 0.9739(6) 0.6377(4) 0.03263(8)
N24_2 N 0.9527(4) 0.7191(3) 0.00938(6)
O38_2 O 0.8971(4) 0.6186(3) 0.03710(5)
C37_2 C 0.5694(8) 0.8299(6) 0.00545(9)
C38_2 C 0.6511(6) 0.9182(5) 0.00676(7)
C39_2 C 0.6884(6) 0.9921(5) 0.01686(7)
O44_2 O 0.5126(6) 0.8088(5) 0.01642(6)
O45_2 O 0.5938(6) 0.9805(5) 0.03997(5)
O56_2 O 0.5672(5) 0.7150(4) 0.07976(5)
O59_2 O 0.6511(5) 0.6315(4) 0.10359(5)
C21_2 C 0.7395(7) 0.5694(4) 0.99455(9)
C22_2 C 0.7329(6) 0.6511(4) 0.99324(7)
C23_2 C 0.6963(6) 0.6884(3) 0.98314(7)
C24_2 C 0.6377(8) 0.6638(5) 0.96737(8)
N18_2 N 0.7191(5) 0.7664(3) 0.99062(6)
O28_2 O 0.7038(6) 0.5126(3) 0.98358(6)
O29_2 O 0.6133(6) 0.5938(3) 0.96003(5)
O30_2 O 0.6186(5) 0.7215(3) 0.96290(5)
C25_2 C 0.9742(6) 0.8353(4) 0.92061(6)
Co6_8 Co 1.0000 1.0000 0.931197(12)
N23_2 N 0.9872(4) 0.7663(3) 0.99552(6)
O31_2 O 0.9555(4) 0.8930(2) 0.91612(4)
O32_2 O 0.9517(4) 0.7661(3) 0.91309(5)
C34_2 C 0.8299(5) 0.9710(4) 0.93692(5)
C35_2 C 0.7563(6) 0.9344(5) 0.94737(5)
C36_2 C 0.6686(7) 0.9282(6) 0.94818(7)
Co8_2 Co 0.67204(9) 0.83213(7) 0.977172(7)
N25_2 N 0.8841(5) 0.9477(4) 0.94389(5)
N26_2 N 0.8494(5) 0.8979(4) 0.95789(5)
N27_2 N 0.7717(5) 0.8894(4) 0.95981(4)
N28_2 N 0.7113(5) 0.9347(4) 0.99366(5)
O41_2 O 0.6470(5) 0.9648(4) 0.93692(5)
O42_2 O 0.6207(4) 0.8841(3) 0.96083(4)
O43_2 O 0.5662(5) 0.7845(4) 0.99250(5)
Li4_2 Li 0.9655(11) 0.6667 0.9167
C16_3 C 0.0290(4) 0.3594(6) 0.86596(8)
Li2_3 Li -0.0000 0.3678(11) 0.7500
O21_3 O 0.0534(4) 0.3138(5) 0.87330(5)
O22_3 O 0.0481(3) 0.4362(4) 0.87043(5)
C29_3 C 0.0973(4) 0.5938(5) 0.82788(9)
C30_3 C 0.0156(4) 0.6004(3) 0.82657(7)
C32_3 C 0.0029(5) 0.6956(4) 0.80070(8)
O33_3 O 0.0197(3) 0.6511(3) 0.89641(5)
O34_3 O 0.0460(2) 0.5967(2) 0.87250(4)
O35_3 O 0.1005(2) 0.5516(3) 0.84083(5)
O36_3 O 0.1541(3) 0.6295(4) 0.81691(6)
O37_3 O 0.0729(3) 0.7200(4) 0.79336(5)
O57_3 O 0.0994(3) 0.4811(3) 0.75358(5)
O60_3 O 0.0155(3) 0.3137(3) 0.72975(5)
C1_3 C 0.5278(5) 0.1686(4) 0.75394(6)
C2_3 C 0.4966(3) 0.1922(3) 0.77025(5)
C3_3 C 0.4230(4) 0.1552(3) 0.78070(5)
C4_3 C 0.3353(4) 0.0737(4) 0.78151(7)
C5_3 C 0.2361(4) 0.0728(5) 0.83878(9)
C6_3 C 0.3178(4) 0.0662(3) 0.84009(7)
C7_3 C 0.3551(3) 0.0296(4) 0.85019(7)
Co2_9 Co 0.6667 0.3333 0.764530(12)
Co3_3 Co 0.33871(5) 0.17324(5) 0.810505(7)
Li1_3 Li 0.3679(11) 0.0000 0.7500
N1_3 N 0.5508(3) 0.2697(3) 0.77722(5)
N2_3 N 0.5161(3) 0.2848(3) 0.79122(5)
N3_3 N 0.4384(3) 0.2156(3) 0.79314(4)
N4_3 N 0.3780(3) 0.1099(3) 0.82699(5)
N5_3 N 0.4458(3) 0.0996(3) 0.82885(6)
N6_3 N 0.4331(3) 0.0524(3) 0.84271(6)
O7_3 O 0.6042(3) 0.2263(2) 0.74945(4)
O8_3 O 0.4811(3) 0.0994(3) 0.74642(5)
O9_3 O 0.3137(3) 0.0155(3) 0.77025(5)
O10_3 O 0.2874(2) 0.0699(2) 0.79416(4)
O11_3 O 0.2329(2) 0.1150(3) 0.82583(5)
O12_3 O 0.1793(3) 0.0371(4) 0.84975(6)
C9_3 C 0.8314(4) 0.3591(6) 0.75394(6)
C10_3 C 0.8078(3) 0.3043(4) 0.77025(5)
C11_3 C 0.8448(3) 0.2677(5) 0.78070(5)
C12_3 C 0.9263(4) 0.2615(6) 0.78151(7)
C13_3 C 0.9272(5) 0.1632(6) 0.83878(9)
C14_3 C 0.9338(3) 0.2515(5) 0.84009(7)
C15_3 C 0.9704(4) 0.3254(5) 0.85019(7)
Co4_3 Co 0.82676(5) 0.16546(7) 0.810505(7)
Li2_4 Li 1.0000 0.3678(11) 0.7500
N7_3 N 0.7303(3) 0.2810(4) 0.77722(5)
N8_3 N 0.7152(3) 0.2312(4) 0.79122(5)
N9_3 N 0.7844(3) 0.2227(4) 0.79314(4)
N10_3 N 0.8901(3) 0.2680(4) 0.82699(5)
N11_3 N 0.9004(3) 0.3461(4) 0.82885(6)
N12_3 N 0.9476(3) 0.3806(4) 0.84271(6)
O15_3 O 0.7737(2) 0.3778(4) 0.74945(4)
O16_3 O 0.9006(3) 0.3816(4) 0.74642(5)
O17_3 O 0.9845(3) 0.2981(4) 0.77025(5)
O18_3 O 0.9301(2) 0.2174(3) 0.79416(4)
O19_3 O 0.8850(3) 0.1178(4) 0.82583(5)
O20_3 O 0.9629(4) 0.1421(5) 0.84975(6)
C17_3 C 0.6409(6) 0.4722(5) 0.75394(6)
C18_3 C 0.6957(4) 0.5034(3) 0.77025(5)
C19_3 C 0.7323(5) 0.5770(4) 0.78070(5)
C20_3 C 0.7385(6) 0.6647(4) 0.78151(7)
C21_3 C 0.8368(6) 0.7639(4) 0.83878(9)
C22_3 C 0.7485(5) 0.6822(4) 0.84009(7)
C23_3 C 0.6746(5) 0.6449(3) 0.85019(7)
C24_3 C 0.6406(6) 0.6695(5) 0.86596(8)
Co5_3 Co 0.83454(7) 0.66129(5) 0.810505(7)
Li3_3 Li 0.6322(11) 0.6321(11) 0.7500
N13_3 N 0.7190(4) 0.4492(3) 0.77722(5)
N14_3 N 0.7688(4) 0.4839(3) 0.79122(5)
N15_3 N 0.7773(4) 0.5616(3) 0.79314(4)
N16_3 N 0.7320(4) 0.6220(3) 0.82699(5)
N17_3 N 0.6539(4) 0.5542(3) 0.82885(6)
N18_3 N 0.6194(4) 0.5669(3) 0.84271(6)
O23_3 O 0.6222(4) 0.3958(3) 0.74945(4)
O24_3 O 0.6184(4) 0.5189(3) 0.74642(5)
O25_3 O 0.7019(4) 0.6863(3) 0.77025(5)
O26_3 O 0.7826(3) 0.7126(2) 0.79416(4)
O27_3 O 0.8822(4) 0.7671(2) 0.82583(5)
O28_3 O 0.8579(5) 0.8207(3) 0.84975(6)
O29_3 O 0.6862(5) 0.7395(3) 0.87330(5)
O30_3 O 0.5638(4) 0.6118(3) 0.87043(5)
C25_3 C 0.8056(5) 0.4980(4) 0.91272(6)
C26_3 C 0.8368(3) 0.4744(3) 0.89641(5)
C27_3 C 0.9104(4) 0.5114(3) 0.88596(5)
C28_3 C 0.9981(4) 0.5929(4) 0.88515(7)
C31_3 C 0.9783(3) 0.6370(4) 0.81647(7)
Co6_9 Co 0.6667 0.3333 0.902136(12)
Co7_3 Co 0.99463(5) 0.49342(5) 0.856161(7)
N19_3 N 0.7826(3) 0.3969(3) 0.88944(5)
N20_3 N 0.8173(3) 0.3818(3) 0.87544(5)
N21_3 N 0.8950(3) 0.4510(3) 0.87352(4)
N22_3 N 0.9554(3) 0.5567(3) 0.83967(5)
N23_3 N 0.8876(3) 0.5670(3) 0.83781(6)
N24_3 N 0.9003(3) 0.6142(3) 0.82395(6)
O31_3 O 0.7292(3) 0.4403(2) 0.91721(4)
O32_3 O 0.8523(3) 0.5672(3) 0.92024(5)
O38_3 O 0.9452(3) 0.7147(3) 0.79623(5)
C33_3 C 0.5020(4) 0.3075(6) 0.91272(6)
C34_3 C 0.5256(3) 0.3623(4) 0.89641(5)
C35_3 C 0.4886(3) 0.3989(5) 0.88596(5)
C36_3 C 0.4071(4) 0.4051(6) 0.88515(7)
C37_3 C 0.4062(5) 0.5034(6) 0.82788(9)
C38_3 C 0.3996(3) 0.4151(5) 0.82657(7)
C39_3 C 0.3630(4) 0.3412(5) 0.81647(7)
C40_3 C 0.3044(4) 0.3072(6) 0.80070(8)
Co8_3 Co 0.50658(5) 0.50120(7) 0.856161(7)
N25_3 N 0.6031(3) 0.3856(4) 0.88944(5)
N26_3 N 0.6182(3) 0.4354(4) 0.87544(5)
N27_3 N 0.5490(3) 0.4439(4) 0.87352(4)
N28_3 N 0.4433(3) 0.3986(4) 0.83967(5)
N29_3 N 0.4330(3) 0.3205(4) 0.83781(6)
N30_3 N 0.3858(3) 0.2860(4) 0.82395(6)
O39_3 O 0.5597(2) 0.2888(4) 0.91721(4)
O40_3 O 0.4328(3) 0.2850(4) 0.92024(5)
O41_3 O 0.3489(3) 0.3685(4) 0.89641(5)
O42_3 O 0.4033(2) 0.4492(3) 0.87250(4)
O43_3 O 0.4484(3) 0.5488(4) 0.84083(5)
O44_3 O 0.3705(4) 0.5245(5) 0.81691(6)
O45_3 O 0.2800(4) 0.3528(5) 0.79336(5)
O46_3 O 0.2853(3) 0.2304(4) 0.79623(5)
C41_3 C 0.6925(6) 0.1944(5) 0.91272(6)
C42_3 C 0.6377(4) 0.1632(3) 0.89641(5)
C43_3 C 0.6011(5) 0.0896(4) 0.88596(5)
C44_3 C 0.5949(6) 0.0019(4) 0.88515(7)
C47_3 C 0.6588(5) 0.0217(3) 0.81647(7)
Co9_3 Co 0.49880(7) 0.00537(5) 0.856161(7)
N31_3 N 0.6144(4) 0.2174(3) 0.88944(5)
N32_3 N 0.5646(4) 0.1827(3) 0.87544(5)
N33_3 N 0.5561(4) 0.1050(3) 0.87352(4)
N34_3 N 0.6014(4) 0.0446(3) 0.83967(5)
N35_3 N 0.6795(4) 0.1124(3) 0.83781(6)
N36_3 N 0.7140(4) 0.0997(3) 0.82395(6)
O47_3 O 0.7112(4) 0.2708(3) 0.91721(4)
O48_3 O 0.7150(4) 0.1477(3) 0.92024(5)
O54_3 O 0.7696(4) 0.0548(3) 0.79623(5)
O56_3 O 0.5189(3) 0.6184(4) 0.75358(5)
O59_3 O 0.6863(3) 0.7019(4) 0.72975(5)
C8_3 C 0.3305(5) 0.9710(4) 0.86596(8)
Li1_4 Li 0.3679(11) 1.0000 0.7500
O13_3 O 0.2605(3) 0.9466(4) 0.87330(5)
O14_3 O 0.3882(3) 0.9519(3) 0.87043(5)
C45_3 C 0.4966(6) 0.9027(4) 0.82788(9)
C46_3 C 0.5849(5) 0.9844(4) 0.82657(7)
C48_3 C 0.6928(6) 0.9971(5) 0.80070(8)
O49_3 O 0.6315(4) 0.9803(3) 0.89641(5)
O50_3 O 0.5508(3) 0.9540(2) 0.87250(4)
O51_3 O 0.4512(4) 0.8995(2) 0.84083(5)
O52_3 O 0.4755(5) 0.8459(3) 0.81691(6)
O53_3 O 0.6472(5) 0.9271(3) 0.79336(5)
O55_3 O 0.3816(4) 0.9006(3) 0.75358(5)
O58_3 O 0.2981(4) 0.9845(3) 0.72975(5)
C13_4 C 0.0973(8) 0.5034(6) 0.32788(9)
C14_4 C 0.0156(6) 0.4151(5) 0.32657(7)
C16_4 C 0.0029(7) 0.3072(6) 0.30070(8)
O18_4 O 0.0460(4) 0.4492(3) 0.37250(4)
O19_4 O 0.1005(5) 0.5488(4) 0.34083(5)
O20_4 O 0.1541(6) 0.5245(5) 0.31691(6)
O21_4 O 0.0729(6) 0.3528(5) 0.29336(5)
C48_4 C 0.0290(8) 0.6695(5) 0.36596(8)
O53_4 O 0.0534(6) 0.7395(3) 0.37330(5)
O54_4 O 0.0481(5) 0.6118(3) 0.37043(5)
Li6_3 Li -0.0000(16) 0.6321(11) 0.2500
C1_4 C 0.6925(6) 0.4980(4) 0.41272(6)
C2_4 C 0.6377(4) 0.4744(3) 0.39641(5)
C3_4 C 0.6011(5) 0.5114(3) 0.38596(5)
C4_4 C 0.5949(6) 0.5929(4) 0.38515(7)
C5_4 C 0.4966(6) 0.5938(5) 0.32788(9)
C6_4 C 0.5849(5) 0.6004(3) 0.32657(7)
C7_4 C 0.6588(5) 0.6370(4) 0.31647(7)
C8_4 C 0.6928(6) 0.6956(4) 0.30070(8)
Co2_10 Co 0.6667 0.3333 0.402136(12)
Co3_4 Co 0.49880(7) 0.49342(5) 0.356161(7)
N1_4 N 0.6144(4) 0.3969(3) 0.38944(5)
N2_4 N 0.5646(4) 0.3818(3) 0.37544(5)
N3_4 N 0.5561(4) 0.4510(3) 0.37352(4)
N4_4 N 0.6014(4) 0.5567(3) 0.33967(5)
N5_4 N 0.6795(4) 0.5670(3) 0.33781(6)
N6_4 N 0.7140(4) 0.6142(3) 0.32395(6)
O7_4 O 0.7112(4) 0.4403(2) 0.41721(4)
O10_4 O 0.5508(3) 0.5967(2) 0.37250(4)
O11_4 O 0.4512(4) 0.5516(3) 0.34083(5)
O12_4 O 0.4755(5) 0.6295(4) 0.31691(6)
O13_4 O 0.6472(5) 0.7200(4) 0.29336(5)
O14_4 O 0.7696(4) 0.7147(3) 0.29623(5)
C9_4 C 0.8056(7) 0.3075(6) 0.41272(6)
C10_4 C 0.8368(5) 0.3623(4) 0.39641(5)
C11_4 C 0.9104(6) 0.3989(5) 0.38596(5)
C12_4 C 0.9981(7) 0.4051(6) 0.38515(7)
C15_4 C 0.9783(6) 0.3412(5) 0.31647(7)
Co4_4 Co 0.99463(9) 0.50120(7) 0.356161(7)
N7_4 N 0.7826(5) 0.3856(4) 0.38944(5)
N8_4 N 0.8173(5) 0.4354(4) 0.37544(5)
N9_4 N 0.8950(5) 0.4439(4) 0.37352(4)
N10_4 N 0.9554(5) 0.3986(4) 0.33967(5)
N11_4 N 0.8876(5) 0.3205(4) 0.33781(6)
N12_4 N 0.9003(5) 0.2860(4) 0.32395(6)
O15_4 O 0.7292(4) 0.2888(4) 0.41721(4)
O22_4 O 0.9452(5) 0.2304(4) 0.29623(5)
C17_4 C 0.5020(8) 0.1944(5) 0.41272(6)
C18_4 C 0.5256(5) 0.1632(3) 0.39641(5)
C19_4 C 0.4886(6) 0.0896(4) 0.38596(5)
C20_4 C 0.4071(7) 0.0019(4) 0.38515(7)
C23_4 C 0.3630(6) 0.0217(3) 0.31647(7)
Co5_4 Co 0.50658(9) 0.00537(5) 0.356161(7)
N13_4 N 0.6031(5) 0.2174(3) 0.38944(5)
N14_4 N 0.6182(5) 0.1827(3) 0.37544(5)
N15_4 N 0.5490(5) 0.1050(3) 0.37352(4)
N16_4 N 0.4433(5) 0.0446(3) 0.33967(5)
N17_4 N 0.4330(5) 0.1124(3) 0.33781(6)
N18_4 N 0.3858(5) 0.0997(3) 0.32395(6)
O23_4 O 0.5597(5) 0.2708(3) 0.41721(4)
O30_4 O 0.2853(5) 0.0548(3) 0.29623(5)
C25_4 C 0.6409(6) 0.1686(4) 0.25394(6)
C26_4 C 0.6957(4) 0.1922(3) 0.27025(5)
C27_4 C 0.7323(5) 0.1552(3) 0.28070(5)
C28_4 C 0.7385(6) 0.0737(4) 0.28151(7)
C29_4 C 0.8368(6) 0.0728(5) 0.33878(9)
C30_4 C 0.7485(5) 0.0662(3) 0.34009(7)
C31_4 C 0.6746(5) 0.0296(4) 0.35019(7)
Co6_10 Co 0.6667 0.3333 0.264530(12)
Co7_4 Co 0.83454(7) 0.17324(5) 0.310505(7)
N19_4 N 0.7190(4) 0.2697(3) 0.27722(5)
N20_4 N 0.7688(4) 0.2848(3) 0.29122(5)
N21_4 N 0.7773(4) 0.2156(3) 0.29314(4)
N22_4 N 0.7320(4) 0.1099(3) 0.32699(5)
N23_4 N 0.6539(4) 0.0996(3) 0.32885(6)
N24_4 N 0.6194(4) 0.0524(3) 0.34271(6)
O31_4 O 0.6222(4) 0.2263(2) 0.24945(4)
O32_4 O 0.6184(4) 0.0994(3) 0.24642(5)
O33_4 O 0.7019(4) 0.0155(3) 0.27025(5)
O34_4 O 0.7826(3) 0.0699(2) 0.29416(4)
O35_4 O 0.8822(4) 0.1150(3) 0.32583(5)
O36_4 O 0.8579(5) 0.0371(4) 0.34975(6)
C33_4 C 0.5278(7) 0.3591(6) 0.25394(6)
C34_4 C 0.4966(5) 0.3043(4) 0.27025(5)
C35_4 C 0.4230(6) 0.2677(5) 0.28070(5)
C36_4 C 0.3353(7) 0.2615(6) 0.28151(7)
C37_4 C 0.2361(8) 0.1632(6) 0.33878(9)
C38_4 C 0.3178(6) 0.2515(5) 0.34009(7)
C39_4 C 0.3551(6) 0.3254(5) 0.35019(7)
C40_4 C 0.3305(7) 0.3594(6) 0.36596(8)
Co8_4 Co 0.33871(9) 0.16546(7) 0.310505(7)
N25_4 N 0.5508(5) 0.2810(4) 0.27722(5)
N26_4 N 0.5161(5) 0.2312(4) 0.29122(5)
N27_4 N 0.4384(5) 0.2227(4) 0.29314(4)
N28_4 N 0.3780(5) 0.2680(4) 0.32699(5)
N29_4 N 0.4458(5) 0.3461(4) 0.32885(6)
N30_4 N 0.4331(5) 0.3806(4) 0.34271(6)
O39_4 O 0.6042(4) 0.3778(4) 0.24945(4)
O40_4 O 0.4811(5) 0.3816(4) 0.24642(5)
O41_4 O 0.3137(5) 0.2981(4) 0.27025(5)
O42_4 O 0.2874(4) 0.2174(3) 0.29416(4)
O43_4 O 0.2329(5) 0.1178(4) 0.32583(5)
O44_4 O 0.1793(6) 0.1421(5) 0.34975(6)
O45_4 O 0.2605(6) 0.3138(5) 0.37330(5)
O46_4 O 0.3882(5) 0.4362(4) 0.37043(5)
C41_4 C 0.8314(8) 0.4722(5) 0.25394(6)
C42_4 C 0.8078(5) 0.5034(3) 0.27025(5)
C43_4 C 0.8448(6) 0.5770(4) 0.28070(5)
C44_4 C 0.9263(7) 0.6647(4) 0.28151(7)
C45_4 C 0.9272(7) 0.7639(4) 0.33878(9)
C46_4 C 0.9338(6) 0.6822(4) 0.34009(7)
C47_4 C 0.9704(6) 0.6449(3) 0.35019(7)
Co9_4 Co 0.82676(9) 0.66129(5) 0.310505(7)
N31_4 N 0.7303(5) 0.4492(3) 0.27722(5)
N32_4 N 0.7152(5) 0.4839(3) 0.29122(5)
N33_4 N 0.7844(5) 0.5616(3) 0.29314(4)
N34_4 N 0.8901(5) 0.6220(3) 0.32699(5)
N35_4 N 0.9004(5) 0.5542(3) 0.32885(6)
N36_4 N 0.9476(5) 0.5669(3) 0.34271(6)
O47_4 O 0.7737(5) 0.3958(3) 0.24945(4)
O48_4 O 0.9006(5) 0.5189(3) 0.24642(5)
O49_4 O 0.9845(5) 0.6863(3) 0.27025(5)
O50_4 O 0.9301(4) 0.7126(2) 0.29416(4)
O51_4 O 0.8850(4) 0.7671(2) 0.32583(5)
O52_4 O 0.9629(6) 0.8207(3) 0.34975(6)
Li4_3 Li 0.6322(11) 0.0000 0.2500
Li5_3 Li 0.3679(11) 0.3678(11) 0.2500
Li6_4 Li 1.0000(16) 0.6321(11) 0.2500
C21_4 C 0.4062(7) 0.9027(4) 0.32788(9)
C22_4 C 0.3996(6) 0.9844(4) 0.32657(7)
C24_4 C 0.3044(8) 0.9971(5) 0.30070(8)
O26_4 O 0.4033(4) 0.9540(2) 0.37250(4)
O27_4 O 0.4484(4) 0.8995(2) 0.34083(5)
O28_4 O 0.3705(6) 0.8459(3) 0.31691(6)
O29_4 O 0.2800(6) 0.9271(3) 0.29336(5)
C32_4 C 0.6406(6) 0.9710(4) 0.36596(8)
O37_4 O 0.6862(5) 0.9466(4) 0.37330(5)
O38_4 O 0.5638(4) 0.9519(3) 0.37043(5)
Li4_4 Li 0.6322(11) 1.0000 0.2500
C21_5 C 0.5034(6) 0.0973(4) 0.17212(9)
C22_5 C 0.4151(5) 0.0156(4) 0.17343(7)
C24_5 C 0.3072(6) 0.0029(5) 0.19930(8)
O26_5 O 0.4492(3) 0.0460(2) 0.12750(4)
O27_5 O 0.5488(4) 0.1005(2) 0.15917(5)
O28_5 O 0.5245(5) 0.1541(3) 0.18309(6)
O29_5 O 0.3528(5) 0.0729(3) 0.20664(5)
C32_5 C 0.6695(5) 0.0290(4) 0.13404(8)
O37_5 O 0.7395(3) 0.0534(4) 0.12670(5)
O38_5 O 0.6118(3) 0.0481(3) 0.12957(5)
C1_5 C 0.1944(5) 0.5020(4) 0.08728(6)
C2_5 C 0.1632(3) 0.5256(3) 0.10359(5)
C3_5 C 0.0896(4) 0.4886(3) 0.11404(5)
C4_5 C 0.0019(4) 0.4071(4) 0.11485(7)
C7_5 C 0.0217(3) 0.3630(4) 0.18353(7)
Co2_11 Co 0.3333 0.6667 0.097864(12)
Co3_5 Co 0.00537(5) 0.50658(5) 0.143839(7)
N1_5 N 0.2174(3) 0.6031(3) 0.11056(5)
N2_5 N 0.1827(3) 0.6182(3) 0.12456(5)
N3_5 N 0.1050(3) 0.5490(3) 0.12648(4)
N4_5 N 0.0446(3) 0.4433(3) 0.16033(5)
N5_5 N 0.1124(3) 0.4330(3) 0.16219(6)
N6_5 N 0.0997(3) 0.3858(3) 0.17605(6)
O7_5 O 0.2708(3) 0.5597(2) 0.08279(4)
O14_5 O 0.0548(3) 0.2853(3) 0.20377(5)
C9_5 C 0.4980(4) 0.6925(6) 0.08728(6)
C10_5 C 0.4744(3) 0.6377(4) 0.10359(5)
C11_5 C 0.5114(3) 0.6011(5) 0.11404(5)
C12_5 C 0.5929(4) 0.5949(6) 0.11485(7)
C13_5 C 0.5938(5) 0.4966(6) 0.17212(9)
C14_5 C 0.6004(3) 0.5849(5) 0.17343(7)
C15_5 C 0.6370(4) 0.6588(5) 0.18353(7)
C16_5 C 0.6956(4) 0.6928(6) 0.19930(8)
Co4_5 Co 0.49342(5) 0.49880(7) 0.143839(7)
N7_5 N 0.3969(3) 0.6144(4) 0.11056(5)
N8_5 N 0.3818(3) 0.5646(4) 0.12456(5)
N9_5 N 0.4510(3) 0.5561(4) 0.12648(4)
N10_5 N 0.5567(3) 0.6014(4) 0.16033(5)
N11_5 N 0.5670(3) 0.6795(4) 0.16219(6)
N12_5 N 0.6142(3) 0.7140(4) 0.17605(6)
O15_5 O 0.4403(2) 0.7112(4) 0.08279(4)
O18_5 O 0.5967(2) 0.5508(3) 0.12750(4)
O19_5 O 0.5516(3) 0.4512(4) 0.15917(5)
O20_5 O 0.6295(4) 0.4755(5) 0.18309(6)
O21_5 O 0.7200(4) 0.6472(5) 0.20664(5)
O22_5 O 0.7147(3) 0.7696(4) 0.20377(5)
C17_5 C 0.3075(6) 0.8056(5) 0.08728(6)
C18_5 C 0.3623(4) 0.8368(3) 0.10359(5)
C19_5 C 0.3989(5) 0.9104(4) 0.11404(5)
C20_5 C 0.4051(6) 0.9981(4) 0.11485(7)
C23_5 C 0.3412(5) 0.9783(3) 0.18353(7)
Co5_5 Co 0.50120(7) 0.99463(5) 0.143839(7)
N13_5 N 0.3856(4) 0.7826(3) 0.11056(5)
N14_5 N 0.4354(4) 0.8173(3) 0.12456(5)
N15_5 N 0.4439(4) 0.8950(3) 0.12648(4)
N16_5 N 0.3986(4) 0.9554(3) 0.16033(5)
N17_5 N 0.3205(4) 0.8876(3) 0.16219(6)
N18_5 N 0.2860(4) 0.9003(3) 0.17605(6)
O23_5 O 0.2888(4) 0.7292(3) 0.08279(4)
O30_5 O 0.2304(4) 0.9452(3) 0.20377(5)
C25_5 C 0.4722(5) 0.8314(4) 0.24606(6)
C26_5 C 0.5034(3) 0.8078(3) 0.22975(5)
C27_5 C 0.5770(4) 0.8448(3) 0.21930(5)
C28_5 C 0.6647(4) 0.9263(4) 0.21849(7)
C29_5 C 0.7639(4) 0.9272(5) 0.16122(9)
C30_5 C 0.6822(4) 0.9338(3) 0.15991(7)
C31_5 C 0.6449(3) 0.9704(4) 0.14981(7)
Co6_11 Co 0.3333 0.6667 0.235470(12)
Co7_5 Co 0.66129(5) 0.82676(5) 0.189495(7)
N19_5 N 0.4492(3) 0.7303(3) 0.22278(5)
N20_5 N 0.4839(3) 0.7152(3) 0.20878(5)
N21_5 N 0.5616(3) 0.7844(3) 0.20686(4)
N22_5 N 0.6220(3) 0.8901(3) 0.17301(5)
N23_5 N 0.5542(3) 0.9004(3) 0.17115(6)
N24_5 N 0.5669(3) 0.9476(3) 0.15729(6)
O31_5 O 0.3958(3) 0.7737(2) 0.25055(4)
O32_5 O 0.5189(3) 0.9006(3) 0.25358(5)
O33_5 O 0.6863(3) 0.9845(3) 0.22975(5)
O34_5 O 0.7126(2) 0.9301(2) 0.20584(4)
O35_5 O 0.7671(2) 0.8850(3) 0.17417(5)
O36_5 O 0.8207(3) 0.9629(4) 0.15025(6)
C33_5 C 0.1686(4) 0.6409(6) 0.24606(6)
C34_5 C 0.1922(3) 0.6957(4) 0.22975(5)
C35_5 C 0.1552(3) 0.7323(5) 0.21930(5)
C36_5 C 0.0737(4) 0.7385(6) 0.21849(7)
C37_5 C 0.0728(5) 0.8368(6) 0.16122(9)
C38_5 C 0.0662(3) 0.7485(5) 0.15991(7)
C39_5 C 0.0296(4) 0.6746(5) 0.14981(7)
Co8_5 Co 0.17324(5) 0.83454(7) 0.189495(7)
N25_5 N 0.2697(3) 0.7190(4) 0.22278(5)
N26_5 N 0.2848(3) 0.7688(4) 0.20878(5)
N27_5 N 0.2156(3) 0.7773(4) 0.20686(4)
N28_5 N 0.1099(3) 0.7320(4) 0.17301(5)
N29_5 N 0.0996(3) 0.6539(4) 0.17115(6)
N30_5 N 0.0524(3) 0.6194(4) 0.15729(6)
O39_5 O 0.2263(2) 0.6222(4) 0.25055(4)
O40_5 O 0.0994(3) 0.6184(4) 0.25358(5)
O41_5 O 0.0155(3) 0.7019(4) 0.22975(5)
O42_5 O 0.0699(2) 0.7826(3) 0.20584(4)
O43_5 O 0.1150(3) 0.8822(4) 0.17417(5)
O44_5 O 0.0371(4) 0.8579(5) 0.15025(6)
C41_5 C 0.3591(6) 0.5278(5) 0.24606(6)
C42_5 C 0.3043(4) 0.4966(3) 0.22975(5)
C43_5 C 0.2677(5) 0.4230(4) 0.21930(5)
C44_5 C 0.2615(6) 0.3353(4) 0.21849(7)
C45_5 C 0.1632(6) 0.2361(4) 0.16122(9)
C46_5 C 0.2515(5) 0.3178(4) 0.15991(7)
C47_5 C 0.3254(5) 0.3551(3) 0.14981(7)
C48_5 C 0.3594(6) 0.3305(5) 0.13404(8)
Co9_5 Co 0.16546(7) 0.33871(5) 0.189495(7)
N31_5 N 0.2810(4) 0.5508(3) 0.22278(5)
N32_5 N 0.2312(4) 0.5161(3) 0.20878(5)
N33_5 N 0.2227(4) 0.4384(3) 0.20686(4)
N34_5 N 0.2680(4) 0.3780(3) 0.17301(5)
N35_5 N 0.3461(4) 0.4458(3) 0.17115(6)
N36_5 N 0.3806(4) 0.4331(3) 0.15729(6)
O47_5 O 0.3778(4) 0.6042(3) 0.25055(4)
O48_5 O 0.3816(4) 0.4811(3) 0.25358(5)
O49_5 O 0.2981(4) 0.3137(3) 0.22975(5)
O50_5 O 0.2174(3) 0.2874(2) 0.20584(4)
O51_5 O 0.1178(4) 0.2329(2) 0.17417(5)
O52_5 O 0.1421(5) 0.1793(3) 0.15025(6)
O53_5 O 0.3138(5) 0.2605(3) 0.12670(5)
O54_5 O 0.4362(4) 0.3882(3) 0.12957(5)
C5_5 C 0.9027(4) 0.4062(5) 0.17212(9)
C6_5 C 0.9844(4) 0.3996(3) 0.17343(7)
C8_5 C 0.9971(5) 0.3044(4) 0.19930(8)
O10_5 O 0.9540(2) 0.4033(2) 0.12750(4)
O11_5 O 0.8995(2) 0.4484(3) 0.15917(5)
O12_5 O 0.8459(3) 0.3705(4) 0.18309(6)
O13_5 O 0.9271(3) 0.2800(4) 0.20664(5)
C40_5 C 0.9710(4) 0.6406(6) 0.13404(8)
O45_5 O 0.9466(4) 0.6862(5) 0.12670(5)
O46_5 O 0.9519(3) 0.5638(4) 0.12957(5)
C8_6 C 0.3594(6) 0.0290(4) 0.63404(8)
O13_6 O 0.3138(5) 0.0534(4) 0.62670(5)
O14_6 O 0.4362(4) 0.0481(3) 0.62957(5)
C45_6 C 0.5938(7) 0.0973(4) 0.67212(9)
C46_6 C 0.6004(6) 0.0156(4) 0.67343(7)
C48_6 C 0.6956(8) 0.0029(5) 0.69930(8)
O49_6 O 0.6511(5) 0.0197(3) 0.60359(5)
O50_6 O 0.5967(4) 0.0460(2) 0.62750(4)
O51_6 O 0.5516(4) 0.1005(2) 0.65917(5)
O52_6 O 0.6295(6) 0.1541(3) 0.68309(6)
O53_6 O 0.7200(6) 0.0729(3) 0.70664(5)
C1_6 C 0.3591(6) 0.8314(4) 0.74606(6)
C2_6 C 0.3043(4) 0.8078(3) 0.72975(5)
C3_6 C 0.2677(5) 0.8448(3) 0.71930(5)
C4_6 C 0.2615(6) 0.9263(4) 0.71849(7)
C5_6 C 0.1632(6) 0.9272(5) 0.66122(9)
C6_6 C 0.2515(5) 0.9338(3) 0.65991(7)
C7_6 C 0.3254(5) 0.9704(4) 0.64981(7)
Co2_12 Co 0.3333 0.6667 0.735470(12)
Co3_6 Co 0.16546(7) 0.82676(5) 0.689495(7)
N1_6 N 0.2810(4) 0.7303(3) 0.72278(5)
N2_6 N 0.2312(4) 0.7152(3) 0.70878(5)
N3_6 N 0.2227(4) 0.7844(3) 0.70686(4)
N4_6 N 0.2680(4) 0.8901(3) 0.67301(5)
N5_6 N 0.3461(4) 0.9004(3) 0.67115(6)
N6_6 N 0.3806(4) 0.9476(3) 0.65729(6)
O7_6 O 0.3778(4) 0.7737(2) 0.75055(4)
O10_6 O 0.2174(3) 0.9301(2) 0.70584(4)
O11_6 O 0.1178(4) 0.8850(3) 0.67417(5)
O12_6 O 0.1421(5) 0.9629(4) 0.65025(6)
C9_6 C 0.4722(7) 0.6409(6) 0.74606(6)
C10_6 C 0.5034(5) 0.6957(4) 0.72975(5)
C11_6 C 0.5770(6) 0.7323(5) 0.71930(5)
C12_6 C 0.6647(7) 0.7385(6) 0.71849(7)
C13_6 C 0.7639(8) 0.8368(6) 0.66122(9)
C14_6 C 0.6822(6) 0.7485(5) 0.65991(7)
C15_6 C 0.6449(6) 0.6746(5) 0.64981(7)
C16_6 C 0.6695(7) 0.6406(6) 0.63404(8)
Co4_6 Co 0.66129(9) 0.83454(7) 0.689495(7)
N7_6 N 0.4492(5) 0.7190(4) 0.72278(5)
N8_6 N 0.4839(5) 0.7688(4) 0.70878(5)
N9_6 N 0.5616(5) 0.7773(4) 0.70686(4)
N10_6 N 0.6220(5) 0.7320(4) 0.67301(5)
N11_6 N 0.5542(5) 0.6539(4) 0.67115(6)
N12_6 N 0.5669(5) 0.6194(4) 0.65729(6)
O15_6 O 0.3958(4) 0.6222(4) 0.75055(4)
O18_6 O 0.7126(4) 0.7826(3) 0.70584(4)
O19_6 O 0.7671(5) 0.8822(4) 0.67417(5)
O20_6 O 0.8207(6) 0.8579(5) 0.65025(6)
O21_6 O 0.7395(6) 0.6862(5) 0.62670(5)
O22_6 O 0.6118(5) 0.5638(4) 0.62957(5)
C17_6 C 0.1686(8) 0.5278(5) 0.74606(6)
C18_6 C 0.1922(5) 0.4966(3) 0.72975(5)
C19_6 C 0.1552(6) 0.4230(4) 0.71930(5)
C20_6 C 0.0737(7) 0.3353(4) 0.71849(7)
C21_6 C 0.0728(7) 0.2361(4) 0.66122(9)
C22_6 C 0.0662(6) 0.3178(4) 0.65991(7)
C23_6 C 0.0296(6) 0.3551(3) 0.64981(7)
Co5_6 Co 0.17324(9) 0.33871(5) 0.689495(7)
N13_6 N 0.2697(5) 0.5508(3) 0.72278(5)
N14_6 N 0.2848(5) 0.5161(3) 0.70878(5)
N15_6 N 0.2156(5) 0.4384(3) 0.70686(4)
N16_6 N 0.1099(5) 0.3780(3) 0.67301(5)
N17_6 N 0.0996(5) 0.4458(3) 0.67115(6)
N18_6 N 0.0524(5) 0.4331(3) 0.65729(6)
O23_6 O 0.2263(5) 0.6042(3) 0.75055(4)
O26_6 O 0.0699(4) 0.2874(2) 0.70584(4)
O27_6 O 0.1150(4) 0.2329(2) 0.67417(5)
O28_6 O 0.0371(6) 0.1793(3) 0.65025(6)
C25_6 C 0.3075(6) 0.5020(4) 0.58728(6)
C26_6 C 0.3623(4) 0.5256(3) 0.60359(5)
C27_6 C 0.3989(5) 0.4886(3) 0.61404(5)
C28_6 C 0.4051(6) 0.4071(4) 0.61485(7)
C29_6 C 0.5034(6) 0.4062(5) 0.67212(9)
C30_6 C 0.4151(5) 0.3996(3) 0.67343(7)
C31_6 C 0.3412(5) 0.3630(4) 0.68353(7)
C32_6 C 0.3072(6) 0.3044(4) 0.69930(8)
Co6_12 Co 0.3333 0.6667 0.597864(12)
Co7_6 Co 0.50120(7) 0.50658(5) 0.643839(7)
N19_6 N 0.3856(4) 0.6031(3) 0.61056(5)
N20_6 N 0.4354(4) 0.6182(3) 0.62456(5)
N21_6 N 0.4439(4) 0.5490(3) 0.62648(4)
N22_6 N 0.3986(4) 0.4433(3) 0.66033(5)
N23_6 N 0.3205(4) 0.4330(3) 0.66219(6)
N24_6 N 0.2860(4) 0.3858(3) 0.67605(6)
O31_6 O 0.2888(4) 0.5597(2) 0.58279(4)
O32_6 O 0.2850(4) 0.4328(3) 0.57976(5)
O33_6 O 0.3685(4) 0.3489(3) 0.60359(5)
O34_6 O 0.4492(3) 0.4033(2) 0.62750(4)
O35_6 O 0.5488(4) 0.4484(3) 0.65917(5)
O36_6 O 0.5245(5) 0.3705(4) 0.68309(6)
O37_6 O 0.3528(5) 0.2800(4) 0.70664(5)
O38_6 O 0.2304(4) 0.2853(3) 0.70377(5)
C33_6 C 0.1944(7) 0.6925(6) 0.58728(6)
C34_6 C 0.1632(5) 0.6377(4) 0.60359(5)
C35_6 C 0.0896(6) 0.6011(5) 0.61404(5)
C36_6 C 0.0019(7) 0.5949(6) 0.61485(7)
C39_6 C 0.0217(6) 0.6588(5) 0.68353(7)
Co8_6 Co 0.00537(9) 0.49880(7) 0.643839(7)
N25_6 N 0.2174(5) 0.6144(4) 0.61056(5)
N26_6 N 0.1827(5) 0.5646(4) 0.62456(5)
N27_6 N 0.1050(5) 0.5561(4) 0.62648(4)
N28_6 N 0.0446(5) 0.6014(4) 0.66033(5)
N29_6 N 0.1124(5) 0.6795(4) 0.66219(6)
N30_6 N 0.0997(5) 0.7140(4) 0.67605(6)
O39_6 O 0.2708(4) 0.7112(4) 0.58279(4)
O40_6 O 0.1477(5) 0.7150(4) 0.57976(5)
O46_6 O 0.0548(5) 0.7696(4) 0.70377(5)
C41_6 C 0.4980(8) 0.8056(5) 0.58728(6)
C42_6 C 0.4744(5) 0.8368(3) 0.60359(5)
C43_6 C 0.5114(6) 0.9104(4) 0.61404(5)
C44_6 C 0.5929(7) 0.9981(4) 0.61485(7)
C47_6 C 0.6370(6) 0.9783(3) 0.68353(7)
Co9_6 Co 0.49342(9) 0.99463(5) 0.643839(7)
N31_6 N 0.3969(5) 0.7826(3) 0.61056(5)
N32_6 N 0.3818(5) 0.8173(3) 0.62456(5)
N33_6 N 0.4510(5) 0.8950(3) 0.62648(4)
N34_6 N 0.5567(5) 0.9554(3) 0.66033(5)
N35_6 N 0.5670(5) 0.8876(3) 0.66219(6)
N36_6 N 0.6142(5) 0.9003(3) 0.67605(6)
O47_6 O 0.4403(5) 0.7292(3) 0.58279(4)
O48_6 O 0.5672(5) 0.8523(3) 0.57976(5)
O54_6 O 0.7147(5) 0.9452(3) 0.70377(5)
C24_6 C 0.9710(8) 0.3305(5) 0.63404(8)
O29_6 O 0.9466(6) 0.2605(3) 0.62670(5)
O30_6 O 0.9519(5) 0.3882(3) 0.62957(5)
C37_6 C 0.9027(8) 0.4966(6) 0.67212(9)
C38_6 C 0.9844(6) 0.5849(5) 0.67343(7)
C40_6 C 0.9971(7) 0.6928(6) 0.69930(8)
O41_6 O 0.9803(5) 0.6315(4) 0.60359(5)
O42_6 O 0.9540(4) 0.5508(3) 0.62750(4)
O43_6 O 0.8995(5) 0.4512(4) 0.65917(5)
O44_6 O 0.8459(6) 0.4755(5) 0.68309(6)
O45_6 O 0.9271(6) 0.6472(5) 0.70664(5)
loop_
_geom_bond_atom_site_label_1
_geom_bond_atom_site_label_2
_geom_bond_site_symmetry_1
_geom_bond_site_symmetry_2
Co1 O1 1_555 1_555
O1 H1 1_555 1_555
H2 O1 1_555 1_555
O6 Co1 1_555 1_555
H11 O6 1_555 1_555
H12 O6 1_555 1_555
O5 Co1_2 1_555 1_555
H9 O5 1_555 1_555
H10 O5 1_555 1_555
O2 Co1_3 1_555 1_555
H3 O2 1_555 1_555
H4 O2 1_555 1_555
O3 Co1_4 1_555 1_555
H5 O3 1_555 1_555
H6 O3 1_555 1_555
O4 Co1_4 1_555 1_555
H7 O4 1_555 1_555
H8 O4 1_555 1_555
O3_2 Co1_5 1_555 1_555
H5_2 O3_2 1_555 1_555
H6_2 O3_2 1_555 1_555
O5_2 Co1_6 1_555 1_555
H9_2 O5_2 1_555 1_555
H10_2 O5_2 1_555 1_555
Co1_7 O1_2 1_555 1_555
O1_2 H1_2 1_555 1_555
H2_2 O1_2 1_555 1_555
O4_2 Co1_10 1_555 1_555
H7_2 O4_2 1_555 1_555
H8_2 O4_2 1_555 1_555
O2_2 Co1_11 1_555 1_555
H3_2 O2_2 1_555 1_555
H4_2 O2_2 1_555 1_555
O6_2 Co1_12 1_555 1_555
H11_2 O6_2 1_555 1_555
H12_2 O6_2 1_555 1_555
Co1_13 O1_3 1_555 1_555
O1_3 H1_3 1_555 1_555
H2_3 O1_3 1_555 1_555
O2_3 Co1_13 1_555 1_555
H3_3 O2_3 1_555 1_555
H4_3 O2_3 1_555 1_555
O3_3 Co1_13 1_555 1_555
H5_3 O3_3 1_555 1_555
H6_3 O3_3 1_555 1_555
O4_3 Co1_13 1_555 1_555
H7_3 O4_3 1_555 1_555
H8_3 O4_3 1_555 1_555
O5_3 Co1_13 1_555 1_555
H9_3 O5_3 1_555 1_555
H10_3 O5_3 1_555 1_555
O6_3 Co1_13 1_555 1_555
H11_3 O6_3 1_555 1_555
H12_3 O6_3 1_555 1_555
Co1_14 O1_4 1_555 1_555
O1_4 H1_4 1_555 1_555
H2_4 O1_4 1_555 1_555
O2_4 Co1_14 1_555 1_555
H3_4 O2_4 1_555 1_555
H4_4 O2_4 1_555 1_555
O3_4 Co1_14 1_555 1_555
H5_4 O3_4 1_555 1_555
H6_4 O3_4 1_555 1_555
O4_4 Co1_14 1_555 1_555
H7_4 O4_4 1_555 1_555
H8_4 O4_4 1_555 1_555
O5_4 Co1_14 1_555 1_555
H9_4 O5_4 1_555 1_555
H10_4 O5_4 1_555 1_555
O6_4 Co1_14 1_555 1_555
H11_4 O6_4 1_555 1_555
H12_4 O6_4 1_555 1_555
Co1_15 O1_5 1_555 1_555
O1_5 H1_5 1_555 1_555
H2_5 O1_5 1_555 1_555
O2_5 Co1_15 1_555 1_555
H3_5 O2_5 1_555 1_555
H4_5 O2_5 1_555 1_555
O3_5 Co1_15 1_555 1_555
H5_5 O3_5 1_555 1_555
H6_5 O3_5 1_555 1_555
O4_5 Co1_15 1_555 1_555
H7_5 O4_5 1_555 1_555
H8_5 O4_5 1_555 1_555
O5_5 Co1_15 1_555 1_555
H9_5 O5_5 1_555 1_555
H10_5 O5_5 1_555 1_555
O6_5 Co1_15 1_555 1_555
H11_5 O6_5 1_555 1_555
H12_5 O6_5 1_555 1_555
Co1_16 O1_6 1_555 1_555
O1_6 H1_6 1_555 1_555
H2_6 O1_6 1_555 1_555
O2_6 Co1_16 1_555 1_555
H3_6 O2_6 1_555 1_555
H4_6 O2_6 1_555 1_555
O3_6 Co1_16 1_555 1_555
H5_6 O3_6 1_555 1_555
H6_6 O3_6 1_555 1_555
O4_6 Co1_16 1_555 1_555
H7_6 O4_6 1_555 1_555
H8_6 O4_6 1_555 1_555
O5_6 Co1_16 1_555 1_555
H9_6 O5_6 1_555 1_555
H10_6 O5_6 1_555 1_555
O6_6 Co1_16 1_555 1_555
H11_6 O6_6 1_555 1_555
H12_6 O6_6 1_555 1_555
Li2 O16 1_555 1_555
O15 Co2 1_555 1_555
O16 C9 1_555 1_555
O22 C16 1_555 1_555
C18 C19 1_555 1_555
C19 C20 1_555 1_555
C20 O25 1_555 1_555
C21 C22 1_555 1_555
C22 C23 1_555 1_555
Co5 N15 1_555 1_555
N13 Co2 1_555 1_555
N14 N13 1_555 1_555
N15 C19 1_555 1_555
N16 C22 1_555 1_555
O26 C20 1_555 1_555
O27 C21 1_555 1_555
O28 C21 1_555 1_555
C25 C26 1_555 1_555
C26 C27 1_555 1_555
C27 C28 1_555 1_555
C28 O33 1_555 1_555
C29 C30 1_555 1_555
C30 C31 1_555 1_555
C31 C32 1_555 1_555
C32 O37 1_555 1_555
Co6 N19 1_555 1_555
Co7 N12 1_555 1_555
N19 C26 1_555 1_555
N20 N19 1_555 1_555
N21 C27 1_555 1_555
N22 C30 1_555 1_555
N23 N22 1_555 1_555
N24 Co5 1_555 1_555
O31 C25 1_555 1_555
O32 C25 1_555 1_555
O33 Li4 1_555 1_555
O34 C28 1_555 1_555
O35 C29 1_555 1_555
O36 C29 1_555 1_555
O38 Co5 1_555 1_555
Li4 O32 1_555 1_555
O57 Li2 1_555 1_555
C9 O15 1_555 1_555
N11 N12 1_555 1_555
O22 Co7 1_555 1_555
C18 N13 1_555 1_555
Co5 N16 1_555 1_555
Co5 O26 1_555 1_555
Co5 O27 1_555 1_555
N14 N15 1_555 1_555
C31 N24 1_555 1_555
C32 O38 1_555 1_555
Co6 O31 1_555 1_555
Co7 N21 1_555 1_555
Co7 N22 1_555 1_555
Co7 O34 1_555 1_555
Co7 O35 1_555 1_555
N20 N21 1_555 1_555
N23 N24 1_555 1_555
C10 C11 1_555 1_555
C11 C12 1_555 1_555
C12 O17 1_555 1_555
C13 C14 1_555 1_555
C14 C15 1_555 1_555
Co4 N9 1_555 1_555
N7 Co2_2 1_555 1_555
N8 N7 1_555 1_555
N9 C11 1_555 1_555
N10 C14 1_555 1_555
O18 C12 1_555 1_555
O19 C13 1_555 1_555
O20 C13 1_555 1_555
N36 Co4 1_555 1_555
O47 Co6_2 1_555 1_555
O48 C41 1_555 1_555
O54 Co4 1_555 1_555
Li6 O48 1_555 1_555
C10 N7 1_555 1_555
Co4 N10 1_555 1_555
Co4 O18 1_555 1_555
Co4 O19 1_555 1_555
N8 N9 1_555 1_555
C41 O47 1_555 1_555
C48 O54 1_555 1_555
N35 N36 1_555 1_555
Li3 O24 1_555 1_555
O23 Co2_3 1_555 1_555
O24 C17 1_555 1_555
O30 C24 1_555 1_555
C34 C35 1_555 1_555
C35 C36 1_555 1_555
C36 O41 1_555 1_555
C37 C38 1_555 1_555
C38 C39 1_555 1_555
Co8 N18 1_555 1_555
N25 Co6_3 1_555 1_555
N26 N25 1_555 1_555
N27 C35 1_555 1_555
N28 C38 1_555 1_555
O42 C36 1_555 1_555
O43 C37 1_555 1_555
O44 C37 1_555 1_555
O56 Li3 1_555 1_555
C17 O23 1_555 1_555
N17 N18 1_555 1_555
O30 Co8 1_555 1_555
C34 N25 1_555 1_555
Co8 N27 1_555 1_555
Co8 N28 1_555 1_555
Co8 O42 1_555 1_555
Co8 O43 1_555 1_555
N26 N27 1_555 1_555
C1 C2 1_555 1_555
C2 C3 1_555 1_555
C3 C4 1_555 1_555
C4 O9 1_555 1_555
C5 C6 1_555 1_555
C6 C7 1_555 1_555
C7 C8 1_555 1_555
C8 O13 1_555 1_555
Co2_4 N1 1_555 1_555
Co3 N3 1_555 1_555
Li1 O8 1_555 1_555
N1 C2 1_555 1_555
N2 N1 1_555 1_555
N3 C3 1_555 1_555
N4 C6 1_555 1_555
N5 N4 1_555 1_555
N6 C7 1_555 1_555
O7 C1 1_555 1_555
O8 C1 1_555 1_555
O9 Li1 1_555 1_555
O10 C4 1_555 1_555
O11 C5 1_555 1_555
O12 C5 1_555 1_555
O14 C8 1_555 1_555
N30 Co3 1_555 1_555
O39 Co6_4 1_555 1_555
O40 C33 1_555 1_555
O46 Co3 1_555 1_555
C42 C43 1_555 1_555
C43 C44 1_555 1_555
C44 O49 1_555 1_555
C45 C46 1_555 1_555
C46 C47 1_555 1_555
Co9 N6 1_555 1_555
N31 Co6_4 1_555 1_555
N32 N31 1_555 1_555
N33 C43 1_555 1_555
N34 C46 1_555 1_555
O50 C44 1_555 1_555
O51 C45 1_555 1_555
O52 C45 1_555 1_555
Li5 O40 1_555 1_555
O55 Li1 1_555 1_555
O58 Li1 1_555 1_555
Co2_4 O7 1_555 1_555
Co3 N4 1_555 1_555
Co3 O10 1_555 1_555
Co3 O11 1_555 1_555
N2 N3 1_555 1_555
N5 N6 1_555 1_555
O14 Co9 1_555 1_555
C33 O39 1_555 1_555
C40 O46 1_555 1_555
N29 N30 1_555 1_555
C42 N31 1_555 1_555
Co9 N33 1_555 1_555
Co9 N34 1_555 1_555
Co9 O50 1_555 1_555
Co9 O51 1_555 1_555
N32 N33 1_555 1_555
Li1_2 O8_2 1_555 1_555
O7_2 C1_2 1_555 1_555
O8_2 C1_2 1_555 1_555
C10_2 C11_2 1_555 1_555
C11_2 C12_2 1_555 1_555
C12_2 O17_2 1_555 1_555
Co4_2 N9_2 1_555 1_555
N7_2 Co2_5 1_555 1_555
N8_2 N7_2 1_555 1_555
N9_2 C11_2 1_555 1_555
O18_2 C12_2 1_555 1_555
C45_2 C46_2 1_555 1_555
C46_2 C47_2 1_555 1_555
C47_2 C48_2 1_555 1_555
C48_2 O53_2 1_555 1_555
N36_2 Co4_2 1_555 1_555
O52_2 C45_2 1_555 1_555
O54_2 Co4_2 1_555 1_555
O55_2 Li1_2 1_555 1_555
Co2_5 O7_2 1_555 1_555
C10_2 N7_2 1_555 1_555
Co4_2 N10_2 1_555 1_555
Co4_2 O18_2 1_555 1_555
Co4_2 O19_2 1_555 1_555
N8_2 N9_2 1_555 1_555
C47_2 N36_2 1_555 1_555
C48_2 O54_2 1_555 1_555
O14_2 C8_2 1_555 1_555
C13_2 C14_2 1_555 1_555
C14_2 C15_2 1_555 1_555
O20_2 C13_2 1_555 1_555
C41_2 C42_2 1_555 1_555
C42_2 C43_2 1_555 1_555
C43_2 C44_2 1_555 1_555
C44_2 O49_2 1_555 1_555
Co9_2 N6_2 1_555 1_555
N31_2 Co6_5 1_555 1_555
N32_2 N31_2 1_555 1_555
N33_2 C43_2 1_555 1_555
N35_2 N34_2 1_555 1_555
O47_2 Co6_5 1_555 1_555
O48_2 C41_2 1_555 1_555
O49_2 Li6_2 1_555 1_555
O50_2 C44_2 1_555 1_555
Li6_2 O48_2 1_555 1_555
O14_2 Co9_2 1_555 1_555
C41_2 O47_2 1_555 1_555
C42_2 N31_2 1_555 1_555
Co9_2 N33_2 1_555 1_555
Co9_2 N34_2 1_555 1_555
Co9_2 O50_2 1_555 1_555
Co9_2 O51_2 1_555 1_555
N32_2 N33_2 1_555 1_555
Li2_2 O16_2 1_555 1_555
O15_2 Co2_6 1_555 1_555
O16_2 C9_2 1_555 1_555
C29_2 C30_2 1_555 1_555
C30_2 C31_2 1_555 1_555
O36_2 C29_2 1_555 1_555
O57_2 Li2_2 1_555 1_555
C9_2 O15_2 1_555 1_555
O22_2 C16_2 1_555 1_555
C26_2 C27_2 1_555 1_555
C27_2 C28_2 1_555 1_555
C28_2 O33_2 1_555 1_555
Co6_6 N19_2 1_555 1_555
Co7_2 N12_2 1_555 1_555
N19_2 C26_2 1_555 1_555
N20_2 N19_2 1_555 1_555
N21_2 C27_2 1_555 1_555
O34_2 C28_2 1_555 1_555
O22_2 Co7_2 1_555 1_555
Co7_2 N21_2 1_555 1_555
Co7_2 N22_2 1_555 1_555
Co7_2 O34_2 1_555 1_555
Co7_2 O35_2 1_555 1_555
N20_2 N21_2 1_555 1_555
C2_2 C3_2 1_555 1_555
C3_2 C4_2 1_555 1_555
C4_2 O9_2 1_555 1_555
Co2_7 N1_2 1_555 1_555
Co3_2 N3_2 1_555 1_555
N1_2 C2_2 1_555 1_555
N2_2 N1_2 1_555 1_555
N3_2 C3_2 1_555 1_555
O10_2 C4_2 1_555 1_555
N30_2 Co3_2 1_555 1_555
O46_2 Co3_2 1_555 1_555
Co3_2 N4_2 1_555 1_555
Co3_2 O10_2 1_555 1_555
Co3_2 O11_2 1_555 1_555
N2_2 N3_2 1_555 1_555
C40_2 O46_2 1_555 1_555
C5_2 C6_2 1_555 1_555
C6_2 C7_2 1_555 1_555
O12_2 C5_2 1_555 1_555
O39_2 Co6_7 1_555 1_555
O40_2 C33_2 1_555 1_555
Li5_2 O40_2 1_555 1_555
C33_2 O39_2 1_555 1_555
C17_2 C18_2 1_555 1_555
C18_2 C19_2 1_555 1_555
C19_2 C20_2 1_555 1_555
C20_2 O25_2 1_555 1_555
Co5_2 N15_2 1_555 1_555
Li3_2 O24_2 1_555 1_555
N13_2 Co2_8 1_555 1_555
N14_2 N13_2 1_555 1_555
N15_2 C19_2 1_555 1_555
N17_2 N16_2 1_555 1_555
O23_2 Co2_8 1_555 1_555
O24_2 C17_2 1_555 1_555
O25_2 Li3_2 1_555 1_555
O26_2 C20_2 1_555 1_555
N24_2 Co5_2 1_555 1_555
O38_2 Co5_2 1_555 1_555
C37_2 C38_2 1_555 1_555
C38_2 C39_2 1_555 1_555
O44_2 C37_2 1_555 1_555
O56_2 Li3_2 1_555 1_555
O59_2 Li3_2 1_555 1_555
C17_2 O23_2 1_555 1_555
C18_2 N13_2 1_555 1_555
Co5_2 N16_2 1_555 1_555
Co5_2 O26_2 1_555 1_555
Co5_2 O27_2 1_555 1_555
N14_2 N15_2 1_555 1_555
C32_2 O38_2 1_555 1_555
C21_2 C22_2 1_555 1_555
C22_2 C23_2 1_555 1_555
C23_2 C24_2 1_555 1_555
C24_2 O29_2 1_555 1_555
N18_2 C23_2 1_555 1_555
O28_2 C21_2 1_555 1_555
O30_2 C24_2 1_555 1_555
O31_2 C25_2 1_555 1_555
O32_2 C25_2 1_555 1_555
C34_2 C35_2 1_555 1_555
C35_2 C36_2 1_555 1_555
C36_2 O41_2 1_555 1_555
Co8_2 N18_2 1_555 1_555
N25_2 Co6_8 1_555 1_555
N26_2 N25_2 1_555 1_555
N27_2 C35_2 1_555 1_555
O42_2 C36_2 1_555 1_555
Li4_2 O32_2 1_555 1_555
O30_2 Co8_2 1_555 1_555
Co6_8 O31_2 1_555 1_555
C34_2 N25_2 1_555 1_555
Co8_2 N27_2 1_555 1_555
Co8_2 N28_2 1_555 1_555
Co8_2 O42_2 1_555 1_555
Co8_2 O43_2 1_555 1_555
N26_2 N27_2 1_555 1_555
C16_3 O21_3 1_555 1_555
O22_3 C16_3 1_555 1_555
C29_3 C30_3 1_555 1_555
C32_3 O37_3 1_555 1_555
O35_3 C29_3 1_555 1_555
O36_3 C29_3 1_555 1_555
O57_3 Li2_3 1_555 1_555
O60_3 Li2_3 1_555 1_555
C1_3 C2_3 1_555 1_555
C2_3 C3_3 1_555 1_555
C3_3 C4_3 1_555 1_555
C4_3 O9_3 1_555 1_555
C5_3 C6_3 1_555 1_555
C6_3 C7_3 1_555 1_555
Co2_9 N1_3 1_555 1_555
Co3_3 N3_3 1_555 1_555
Li1_3 O8_3 1_555 1_555
N1_3 C2_3 1_555 1_555
N2_3 N1_3 1_555 1_555
N3_3 C3_3 1_555 1_555
N4_3 C6_3 1_555 1_555
N5_3 N4_3 1_555 1_555
N6_3 C7_3 1_555 1_555
O7_3 C1_3 1_555 1_555
O8_3 C1_3 1_555 1_555
O9_3 Li1_3 1_555 1_555
O10_3 C4_3 1_555 1_555
O11_3 C5_3 1_555 1_555
O12_3 C5_3 1_555 1_555
C9_3 C10_3 1_555 1_555
C10_3 C11_3 1_555 1_555
C11_3 C12_3 1_555 1_555
C12_3 O17_3 1_555 1_555
C13_3 C14_3 1_555 1_555
C14_3 C15_3 1_555 1_555
Co4_3 N9_3 1_555 1_555
Li2_4 O16_3 1_555 1_555
N7_3 Co2_9 1_555 1_555
N8_3 N7_3 1_555 1_555
N9_3 C11_3 1_555 1_555
N10_3 C14_3 1_555 1_555
N11_3 N10_3 1_555 1_555
N12_3 C15_3 1_555 1_555
O15_3 Co2_9 1_555 1_555
O16_3 C9_3 1_555 1_555
O17_3 Li2_4 1_555 1_555
O18_3 C12_3 1_555 1_555
O19_3 C13_3 1_555 1_555
O20_3 C13_3 1_555 1_555
C17_3 C18_3 1_555 1_555
C18_3 C19_3 1_555 1_555
C19_3 C20_3 1_555 1_555
C20_3 O25_3 1_555 1_555
C21_3 C22_3 1_555 1_555
C22_3 C23_3 1_555 1_555
C23_3 C24_3 1_555 1_555
C24_3 O29_3 1_555 1_555
Co5_3 N15_3 1_555 1_555
Li3_3 O24_3 1_555 1_555
N13_3 Co2_9 1_555 1_555
N14_3 N13_3 1_555 1_555
N15_3 C19_3 1_555 1_555
N16_3 C22_3 1_555 1_555
N17_3 N16_3 1_555 1_555
N18_3 C23_3 1_555 1_555
O23_3 Co2_9 1_555 1_555
O24_3 C17_3 1_555 1_555
O25_3 Li3_3 1_555 1_555
O26_3 C20_3 1_555 1_555
O27_3 C21_3 1_555 1_555
O28_3 C21_3 1_555 1_555
O30_3 C24_3 1_555 1_555
C25_3 C26_3 1_555 1_555
C26_3 C27_3 1_555 1_555
C27_3 C28_3 1_555 1_555
Co6_9 N19_3 1_555 1_555
Co7_3 N12_3 1_555 1_555
N19_3 C26_3 1_555 1_555
N20_3 N19_3 1_555 1_555
N21_3 C27_3 1_555 1_555
N23_3 N22_3 1_555 1_555
N24_3 Co5_3 1_555 1_555
O31_3 C25_3 1_555 1_555
O32_3 C25_3 1_555 1_555
O38_3 Co5_3 1_555 1_555
C33_3 C34_3 1_555 1_555
C34_3 C35_3 1_555 1_555
C35_3 C36_3 1_555 1_555
C36_3 O41_3 1_555 1_555
C37_3 C38_3 1_555 1_555
C38_3 C39_3 1_555 1_555
C39_3 C40_3 1_555 1_555
C40_3 O45_3 1_555 1_555
Co8_3 N18_3 1_555 1_555
N25_3 Co6_9 1_555 1_555
N26_3 N25_3 1_555 1_555
N27_3 C35_3 1_555 1_555
N28_3 C38_3 1_555 1_555
N29_3 N28_3 1_555 1_555
N30_3 Co3_3 1_555 1_555
O39_3 Co6_9 1_555 1_555
O40_3 C33_3 1_555 1_555
O41_3 Li6_2 1_555 1_555
O42_3 C36_3 1_555 1_555
O43_3 C37_3 1_555 1_555
O44_3 C37_3 1_555 1_555
O46_3 Co3_3 1_555 1_555
C41_3 C42_3 1_555 1_555
C42_3 C43_3 1_555 1_555
C43_3 C44_3 1_555 1_555
Co9_3 N6_3 1_555 1_555
N31_3 Co6_9 1_555 1_555
N32_3 N31_3 1_555 1_555
N33_3 C43_3 1_555 1_555
N35_3 N34_3 1_555 1_555
N36_3 Co4_3 1_555 1_555
O47_3 Co6_9 1_555 1_555
O48_3 C41_3 1_555 1_555
O54_3 Co4_3 1_555 1_555
Li4_2 O32_3 1_555 1_555
Li6_2 O40_3 1_555 1_555
Li5_2 O48_3 1_555 1_555
O56_3 Li3_3 1_555 1_555
O59_3 Li3_3 1_555 1_555
Co2_9 O7_3 1_555 1_555
Co3_3 N4_3 1_555 1_555
Co3_3 O10_3 1_555 1_555
Co3_3 O11_3 1_555 1_555
N2_3 N3_3 1_555 1_555
N5_3 N6_3 1_555 1_555
C9_3 O15_3 1_555 1_555
C10_3 N7_3 1_555 1_555
Co4_3 N10_3 1_555 1_555
Co4_3 O18_3 1_555 1_555
Co4_3 O19_3 1_555 1_555
N8_3 N9_3 1_555 1_555
N11_3 N12_3 1_555 1_555
C17_3 O23_3 1_555 1_555
C18_3 N13_3 1_555 1_555
Co5_3 N16_3 1_555 1_555
Co5_3 O26_3 1_555 1_555
Co5_3 O27_3 1_555 1_555
N14_3 N15_3 1_555 1_555
N17_3 N18_3 1_555 1_555
O30_3 Co8_3 1_555 1_555
C31_3 N24_3 1_555 1_555
Co6_9 O31_3 1_555 1_555
Co7_3 N21_3 1_555 1_555
Co7_3 N22_3 1_555 1_555
N20_3 N21_3 1_555 1_555
N23_3 N24_3 1_555 1_555
C33_3 O39_3 1_555 1_555
C34_3 N25_3 1_555 1_555
C39_3 N30_3 1_555 1_555
C40_3 O46_3 1_555 1_555
Co8_3 N27_3 1_555 1_555
Co8_3 N28_3 1_555 1_555
Co8_3 O42_3 1_555 1_555
Co8_3 O43_3 1_555 1_555
N26_3 N27_3 1_555 1_555
N29_3 N30_3 1_555 1_555
C41_3 O47_3 1_555 1_555
C42_3 N31_3 1_555 1_555
C47_3 N36_3 1_555 1_555
Co9_3 N33_3 1_555 1_555
Co9_3 N34_3 1_555 1_555
N32_3 N33_3 1_555 1_555
N35_3 N36_3 1_555 1_555
C8_3 O13_3 1_555 1_555
O14_3 C8_3 1_555 1_555
C45_3 C46_3 1_555 1_555
C48_3 O53_3 1_555 1_555
O51_3 C45_3 1_555 1_555
O52_3 C45_3 1_555 1_555
O55_3 Li1_4 1_555 1_555
O58_3 Li1_4 1_555 1_555
C13_4 C14_4 1_555 1_555
C16_4 O21_4 1_555 1_555
O19_4 C13_4 1_555 1_555
O20_4 C13_4 1_555 1_555
C48_4 O53_4 1_555 1_555
C48_4 O54_4 1_555 1_555
C1_4 C2_4 1_555 1_555
C2_4 C3_4 1_555 1_555
C3_4 C4_4 1_555 1_555
C4_4 O58 1_555 1_555
C5_4 C6_4 1_555 1_555
C6_4 C7_4 1_555 1_555
C7_4 C8_4 1_555 1_555
C8_4 O13_4 1_555 1_555
Co2_10 N1_4 1_555 1_555
Co3_4 N3_4 1_555 1_555
N1_4 C2_4 1_555 1_555
N2_4 N1_4 1_555 1_555
N3_4 C3_4 1_555 1_555
N4_4 C6_4 1_555 1_555
N5_4 N4_4 1_555 1_555
N6_4 C7_4 1_555 1_555
O7_4 C1_4 1_555 1_555
O55 C1_4 1_555 1_555
O10_4 C4_4 1_555 1_555
O11_4 C5_4 1_555 1_555
O12_4 C5_4 1_555 1_555
O14_4 C8_4 1_555 1_555
C9_4 C10_4 1_555 1_555
C10_4 C11_4 1_555 1_555
C11_4 C12_4 1_555 1_555
Co4_4 N9_4 1_555 1_555
N7_4 Co2_10 1_555 1_555
N8_4 N7_4 1_555 1_555
N9_4 C11_4 1_555 1_555
N11_4 N10_4 1_555 1_555
N12_4 C15_4 1_555 1_555
O15_4 Co2_10 1_555 1_555
O56 C9_4 1_555 1_555
C17_4 C18_4 1_555 1_555
C18_4 C19_4 1_555 1_555
C19_4 C20_4 1_555 1_555
Co5_4 N15_4 1_555 1_555
N13_4 Co2_10 1_555 1_555
N14_4 N13_4 1_555 1_555
N15_4 C19_4 1_555 1_555
N17_4 N16_4 1_555 1_555
N18_4 C23_4 1_555 1_555
O23_4 Co2_10 1_555 1_555
O57 C17_4 1_555 1_555
C25_4 C26_4 1_555 1_555
C26_4 C27_4 1_555 1_555
C27_4 C28_4 1_555 1_555
C28_4 O33_4 1_555 1_555
C29_4 C30_4 1_555 1_555
C30_4 C31_4 1_555 1_555
Co6_10 N19_4 1_555 1_555
Co7_4 N12_4 1_555 1_555
N19_4 C26_4 1_555 1_555
N20_4 N19_4 1_555 1_555
N21_4 C27_4 1_555 1_555
N22_4 C30_4 1_555 1_555
N23_4 N22_4 1_555 1_555
N24_4 Co5_4 1_555 1_555
O31_4 C25_4 1_555 1_555
O32_4 C25_4 1_555 1_555
O33_4 Li4_3 1_555 1_555
O34_4 C28_4 1_555 1_555
O35_4 C29_4 1_555 1_555
O36_4 C29_4 1_555 1_555
C33_4 C34_4 1_555 1_555
C34_4 C35_4 1_555 1_555
C35_4 C36_4 1_555 1_555
C36_4 O41_4 1_555 1_555
C37_4 C38_4 1_555 1_555
C38_4 C39_4 1_555 1_555
C39_4 C40_4 1_555 1_555
C40_4 O45_4 1_555 1_555
Co8_4 N18_4 1_555 1_555
N25_4 Co6_10 1_555 1_555
N26_4 N25_4 1_555 1_555
N27_4 C35_4 1_555 1_555
N28_4 C38_4 1_555 1_555
N29_4 N28_4 1_555 1_555
N30_4 Co3_4 1_555 1_555
O39_4 Co6_10 1_555 1_555
O40_4 C33_4 1_555 1_555
O41_4 Li5_3 1_555 1_555
O42_4 C36_4 1_555 1_555
O43_4 C37_4 1_555 1_555
O44_4 C37_4 1_555 1_555
O46_4 Co3_4 1_555 1_555
C41_4 C42_4 1_555 1_555
C42_4 C43_4 1_555 1_555
C43_4 C44_4 1_555 1_555
C44_4 O49_4 1_555 1_555
C45_4 C46_4 1_555 1_555
C46_4 C47_4 1_555 1_555
Co9_4 N6_4 1_555 1_555
N31_4 Co6_10 1_555 1_555
N32_4 N31_4 1_555 1_555
N33_4 C43_4 1_555 1_555
N34_4 C46_4 1_555 1_555
N35_4 N34_4 1_555 1_555
N36_4 Co4_4 1_555 1_555
O47_4 Co6_10 1_555 1_555
O48_4 C41_4 1_555 1_555
O49_4 Li6_4 1_555 1_555
O50_4 C44_4 1_555 1_555
O51_4 C45_4 1_555 1_555
O52_4 C45_4 1_555 1_555
Li4_3 O32_4 1_555 1_555
Li5_3 O40_4 1_555 1_555
Li6_4 O48_4 1_555 1_555
Co2_10 O7_4 1_555 1_555
Co3_4 N4_4 1_555 1_555
Co3_4 O10_4 1_555 1_555
Co3_4 O11_4 1_555 1_555
N2_4 N3_4 1_555 1_555
N5_4 N6_4 1_555 1_555
O14_4 Co9_4 1_555 1_555
C9_4 O15_4 1_555 1_555
C10_4 N7_4 1_555 1_555
Co4_4 N10_4 1_555 1_555
N8_4 N9_4 1_555 1_555
N11_4 N12_4 1_555 1_555
O22_4 Co7_4 1_555 1_555
C17_4 O23_4 1_555 1_555
C18_4 N13_4 1_555 1_555
Co5_4 N16_4 1_555 1_555
N14_4 N15_4 1_555 1_555
N17_4 N18_4 1_555 1_555
O30_4 Co8_4 1_555 1_555
C31_4 N24_4 1_555 1_555
Co6_10 O31_4 1_555 1_555
Co7_4 N21_4 1_555 1_555
Co7_4 N22_4 1_555 1_555
Co7_4 O34_4 1_555 1_555
Co7_4 O35_4 1_555 1_555
N20_4 N21_4 1_555 1_555
N23_4 N24_4 1_555 1_555
C33_4 O39_4 1_555 1_555
C34_4 N25_4 1_555 1_555
C39_4 N30_4 1_555 1_555
C40_4 O46_4 1_555 1_555
Co8_4 N27_4 1_555 1_555
Co8_4 N28_4 1_555 1_555
Co8_4 O42_4 1_555 1_555
Co8_4 O43_4 1_555 1_555
N26_4 N27_4 1_555 1_555
N29_4 N30_4 1_555 1_555
C41_4 O47_4 1_555 1_555
C42_4 N31_4 1_555 1_555
C47_4 N36_4 1_555 1_555
Co9_4 N33_4 1_555 1_555
Co9_4 N34_4 1_555 1_555
Co9_4 O50_4 1_555 1_555
Co9_4 O51_4 1_555 1_555
N32_4 N33_4 1_555 1_555
N35_4 N36_4 1_555 1_555
C21_4 C22_4 1_555 1_555
C24_4 O29_4 1_555 1_555
O27_4 C21_4 1_555 1_555
O28_4 C21_4 1_555 1_555
C32_4 O37_4 1_555 1_555
C32_4 O38_4 1_555 1_555
C21_5 C22_5 1_555 1_555
C24_5 O29_5 1_555 1_555
O27_5 C21_5 1_555 1_555
O28_5 C21_5 1_555 1_555
C32_5 O37_5 1_555 1_555
C32_5 O38_5 1_555 1_555
C1_5 C2_5 1_555 1_555
C2_5 C3_5 1_555 1_555
C3_5 C4_5 1_555 1_555
Co2_11 N1_5 1_555 1_555
Co3_5 N3_5 1_555 1_555
N1_5 C2_5 1_555 1_555
N2_5 N1_5 1_555 1_555
N3_5 C3_5 1_555 1_555
N5_5 N4_5 1_555 1_555
N6_5 C7_5 1_555 1_555
O7_5 C1_5 1_555 1_555
O55_2 C1_5 1_555 1_555
C9_5 C10_5 1_555 1_555
C10_5 C11_5 1_555 1_555
C11_5 C12_5 1_555 1_555
C12_5 O59_2 1_555 1_555
C13_5 C14_5 1_555 1_555
C14_5 C15_5 1_555 1_555
C15_5 C16_5 1_555 1_555
C16_5 O21_5 1_555 1_555
Co4_5 N9_5 1_555 1_555
N7_5 Co2_11 1_555 1_555
N8_5 N7_5 1_555 1_555
N9_5 C11_5 1_555 1_555
N10_5 C14_5 1_555 1_555
N11_5 N10_5 1_555 1_555
N12_5 C15_5 1_555 1_555
O15_5 Co2_11 1_555 1_555
O56_2 C9_5 1_555 1_555
O18_5 C12_5 1_555 1_555
O19_5 C13_5 1_555 1_555
O20_5 C13_5 1_555 1_555
O22_5 C16_5 1_555 1_555
C17_5 C18_5 1_555 1_555
C18_5 C19_5 1_555 1_555
C19_5 C20_5 1_555 1_555
Co5_5 N15_5 1_555 1_555
N13_5 Co2_11 1_555 1_555
N14_5 N13_5 1_555 1_555
N15_5 C19_5 1_555 1_555
N17_5 N16_5 1_555 1_555
N18_5 C23_5 1_555 1_555
O23_5 Co2_11 1_555 1_555
O57_2 C17_5 1_555 1_555
C25_5 C26_5 1_555 1_555
C26_5 C27_5 1_555 1_555
C27_5 C28_5 1_555 1_555
C28_5 O33_5 1_555 1_555
C29_5 C30_5 1_555 1_555
C30_5 C31_5 1_555 1_555
Co6_11 N19_5 1_555 1_555
Co7_5 N12_5 1_555 1_555
N19_5 C26_5 1_555 1_555
N20_5 N19_5 1_555 1_555
N21_5 C27_5 1_555 1_555
N22_5 C30_5 1_555 1_555
N23_5 N22_5 1_555 1_555
N24_5 Co5_5 1_555 1_555
O31_5 C25_5 1_555 1_555
O32_5 C25_5 1_555 1_555
O33_5 Li4_4 1_555 1_555
O34_5 C28_5 1_555 1_555
O35_5 C29_5 1_555 1_555
O36_5 C29_5 1_555 1_555
C33_5 C34_5 1_555 1_555
C34_5 C35_5 1_555 1_555
C35_5 C36_5 1_555 1_555
C36_5 O41_5 1_555 1_555
C37_5 C38_5 1_555 1_555
C38_5 C39_5 1_555 1_555
Co8_5 N18_5 1_555 1_555
N25_5 Co6_11 1_555 1_555
N26_5 N25_5 1_555 1_555
N27_5 C35_5 1_555 1_555
N28_5 C38_5 1_555 1_555
N29_5 N28_5 1_555 1_555
N30_5 Co3_5 1_555 1_555
O39_5 Co6_11 1_555 1_555
O40_5 C33_5 1_555 1_555
O41_5 Li6_3 1_555 1_555
O42_5 C36_5 1_555 1_555
O43_5 C37_5 1_555 1_555
O44_5 C37_5 1_555 1_555
C41_5 C42_5 1_555 1_555
C42_5 C43_5 1_555 1_555
C43_5 C44_5 1_555 1_555
C44_5 O49_5 1_555 1_555
C45_5 C46_5 1_555 1_555
C46_5 C47_5 1_555 1_555
C47_5 C48_5 1_555 1_555
C48_5 O53_5 1_555 1_555
Co9_5 N6_5 1_555 1_555
N31_5 Co6_11 1_555 1_555
N32_5 N31_5 1_555 1_555
N33_5 C43_5 1_555 1_555
N34_5 C46_5 1_555 1_555
N35_5 N34_5 1_555 1_555
N36_5 Co4_5 1_555 1_555
O47_5 Co6_11 1_555 1_555
O48_5 C41_5 1_555 1_555
O49_5 Li5_3 1_555 1_555
O50_5 C44_5 1_555 1_555
O51_5 C45_5 1_555 1_555
O52_5 C45_5 1_555 1_555
O54_5 Co4_5 1_555 1_555
Li4_4 O32_5 1_555 1_555
Li6_3 O40_5 1_555 1_555
Li5_3 O48_5 1_555 1_555
Co2_11 O7_5 1_555 1_555
Co3_5 N4_5 1_555 1_555
N2_5 N3_5 1_555 1_555
N5_5 N6_5 1_555 1_555
O14_5 Co9_5 1_555 1_555
C9_5 O15_5 1_555 1_555
C10_5 N7_5 1_555 1_555
Co4_5 N10_5 1_555 1_555
Co4_5 O18_5 1_555 1_555
Co4_5 O19_5 1_555 1_555
N8_5 N9_5 1_555 1_555
N11_5 N12_5 1_555 1_555
O22_5 Co7_5 1_555 1_555
C17_5 O23_5 1_555 1_555
C18_5 N13_5 1_555 1_555
Co5_5 N16_5 1_555 1_555
N14_5 N15_5 1_555 1_555
N17_5 N18_5 1_555 1_555
O30_5 Co8_5 1_555 1_555
C31_5 N24_5 1_555 1_555
Co6_11 O31_5 1_555 1_555
Co7_5 N21_5 1_555 1_555
Co7_5 N22_5 1_555 1_555
Co7_5 O34_5 1_555 1_555
Co7_5 O35_5 1_555 1_555
N20_5 N21_5 1_555 1_555
N23_5 N24_5 1_555 1_555
C33_5 O39_5 1_555 1_555
C34_5 N25_5 1_555 1_555
C39_5 N30_5 1_555 1_555
Co8_5 N27_5 1_555 1_555
Co8_5 N28_5 1_555 1_555
Co8_5 O42_5 1_555 1_555
Co8_5 O43_5 1_555 1_555
N26_5 N27_5 1_555 1_555
N29_5 N30_5 1_555 1_555
C41_5 O47_5 1_555 1_555
C42_5 N31_5 1_555 1_555
C47_5 N36_5 1_555 1_555
C48_5 O54_5 1_555 1_555
Co9_5 N33_5 1_555 1_555
Co9_5 N34_5 1_555 1_555
Co9_5 O50_5 1_555 1_555
Co9_5 O51_5 1_555 1_555
N32_5 N33_5 1_555 1_555
N35_5 N36_5 1_555 1_555
C5_5 C6_5 1_555 1_555
C8_5 O13_5 1_555 1_555
O11_5 C5_5 1_555 1_555
O12_5 C5_5 1_555 1_555
C40_5 O45_5 1_555 1_555
C40_5 O46_5 1_555 1_555
C8_6 O13_6 1_555 1_555
O14_6 C8_6 1_555 1_555
C45_6 C46_6 1_555 1_555
C48_6 O53_6 1_555 1_555
O51_6 C45_6 1_555 1_555
O52_6 C45_6 1_555 1_555
C1_6 C2_6 1_555 1_555
C2_6 C3_6 1_555 1_555
C3_6 C4_6 1_555 1_555
C4_6 O58_3 1_555 1_555
C5_6 C6_6 1_555 1_555
C6_6 C7_6 1_555 1_555
Co2_12 N1_6 1_555 1_555
Co3_6 N3_6 1_555 1_555
N1_6 C2_6 1_555 1_555
N2_6 N1_6 1_555 1_555
N3_6 C3_6 1_555 1_555
N4_6 C6_6 1_555 1_555
N5_6 N4_6 1_555 1_555
N6_6 C7_6 1_555 1_555
O7_6 C1_6 1_555 1_555
O55_3 C1_6 1_555 1_555
O10_6 C4_6 1_555 1_555
O11_6 C5_6 1_555 1_555
O12_6 C5_6 1_555 1_555
C9_6 C10_6 1_555 1_555
C10_6 C11_6 1_555 1_555
C11_6 C12_6 1_555 1_555
C12_6 O59_3 1_555 1_555
C13_6 C14_6 1_555 1_555
C14_6 C15_6 1_555 1_555
C15_6 C16_6 1_555 1_555
C16_6 O21_6 1_555 1_555
Co4_6 N9_6 1_555 1_555
N7_6 Co2_12 1_555 1_555
N8_6 N7_6 1_555 1_555
N9_6 C11_6 1_555 1_555
N10_6 C14_6 1_555 1_555
N11_6 N10_6 1_555 1_555
N12_6 C15_6 1_555 1_555
O15_6 Co2_12 1_555 1_555
O56_3 C9_6 1_555 1_555
O18_6 C12_6 1_555 1_555
O19_6 C13_6 1_555 1_555
O20_6 C13_6 1_555 1_555
O22_6 C16_6 1_555 1_555
C17_6 C18_6 1_555 1_555
C18_6 C19_6 1_555 1_555
C19_6 C20_6 1_555 1_555
C20_6 O60_3 1_555 1_555
C21_6 C22_6 1_555 1_555
C22_6 C23_6 1_555 1_555
Co5_6 N15_6 1_555 1_555
N13_6 Co2_12 1_555 1_555
N14_6 N13_6 1_555 1_555
N15_6 C19_6 1_555 1_555
N16_6 C22_6 1_555 1_555
N17_6 N16_6 1_555 1_555
N18_6 C23_6 1_555 1_555
O23_6 Co2_12 1_555 1_555
O57_3 C17_6 1_555 1_555
O26_6 C20_6 1_555 1_555
O27_6 C21_6 1_555 1_555
O28_6 C21_6 1_555 1_555
C25_6 C26_6 1_555 1_555
C26_6 C27_6 1_555 1_555
C27_6 C28_6 1_555 1_555
C28_6 O33_6 1_555 1_555
C29_6 C30_6 1_555 1_555
C30_6 C31_6 1_555 1_555
C31_6 C32_6 1_555 1_555
C32_6 O37_6 1_555 1_555
Co6_12 N19_6 1_555 1_555
Co7_6 N12_6 1_555 1_555
N19_6 C26_6 1_555 1_555
N20_6 N19_6 1_555 1_555
N21_6 C27_6 1_555 1_555
N22_6 C30_6 1_555 1_555
N23_6 N22_6 1_555 1_555
N24_6 Co5_6 1_555 1_555
O31_6 C25_6 1_555 1_555
O32_6 C25_6 1_555 1_555
O33_6 Li4 1_555 1_555
O34_6 C28_6 1_555 1_555
O35_6 C29_6 1_555 1_555
O36_6 C29_6 1_555 1_555
O38_6 Co5_6 1_555 1_555
C33_6 C34_6 1_555 1_555
C34_6 C35_6 1_555 1_555
C35_6 C36_6 1_555 1_555
Co8_6 N18_6 1_555 1_555
N25_6 Co6_12 1_555 1_555
N26_6 N25_6 1_555 1_555
N27_6 C35_6 1_555 1_555
N29_6 N28_6 1_555 1_555
N30_6 Co3_6 1_555 1_555
O39_6 Co6_12 1_555 1_555
O40_6 C33_6 1_555 1_555
O46_6 Co3_6 1_555 1_555
C41_6 C42_6 1_555 1_555
C42_6 C43_6 1_555 1_555
C43_6 C44_6 1_555 1_555
Co9_6 N6_6 1_555 1_555
N31_6 Co6_12 1_555 1_555
N32_6 N31_6 1_555 1_555
N33_6 C43_6 1_555 1_555
N35_6 N34_6 1_555 1_555
N36_6 Co4_6 1_555 1_555
O47_6 Co6_12 1_555 1_555
O48_6 C41_6 1_555 1_555
O54_6 Co4_6 1_555 1_555
Li4 O32_6 1_555 1_555
Li6 O40_6 1_555 1_555
Li5 O48_6 1_555 1_555
Co2_12 O7_6 1_555 1_555
Co3_6 N4_6 1_555 1_555
Co3_6 O10_6 1_555 1_555
Co3_6 O11_6 1_555 1_555
N2_6 N3_6 1_555 1_555
N5_6 N6_6 1_555 1_555
C9_6 O15_6 1_555 1_555
C10_6 N7_6 1_555 1_555
Co4_6 N10_6 1_555 1_555
Co4_6 O18_6 1_555 1_555
Co4_6 O19_6 1_555 1_555
N8_6 N9_6 1_555 1_555
N11_6 N12_6 1_555 1_555
O22_6 Co7_6 1_555 1_555
C17_6 O23_6 1_555 1_555
C18_6 N13_6 1_555 1_555
Co5_6 N16_6 1_555 1_555
Co5_6 O26_6 1_555 1_555
Co5_6 O27_6 1_555 1_555
N14_6 N15_6 1_555 1_555
N17_6 N18_6 1_555 1_555
C31_6 N24_6 1_555 1_555
C32_6 O38_6 1_555 1_555
Co6_12 O31_6 1_555 1_555
Co7_6 N21_6 1_555 1_555
Co7_6 N22_6 1_555 1_555
Co7_6 O34_6 1_555 1_555
Co7_6 O35_6 1_555 1_555
N20_6 N21_6 1_555 1_555
N23_6 N24_6 1_555 1_555
C33_6 O39_6 1_555 1_555
C34_6 N25_6 1_555 1_555
C39_6 N30_6 1_555 1_555
Co8_6 N27_6 1_555 1_555
Co8_6 N28_6 1_555 1_555
N26_6 N27_6 1_555 1_555
N29_6 N30_6 1_555 1_555
C41_6 O47_6 1_555 1_555
C42_6 N31_6 1_555 1_555
C47_6 N36_6 1_555 1_555
Co9_6 N33_6 1_555 1_555
Co9_6 N34_6 1_555 1_555
N32_6 N33_6 1_555 1_555
N35_6 N36_6 1_555 1_555
C24_6 O29_6 1_555 1_555
O30_6 C24_6 1_555 1_555
C37_6 C38_6 1_555 1_555
C40_6 O45_6 1_555 1_555
O43_6 C37_6 1_555 1_555
O44_6 C37_6 1_555 1_555

#END
