
###############################################################################
#
# This file contains modified crystal structure data generated from the
# MOF subset of the Cambridge Structural Database (CSD) v543 
# hosted by the Cambridge Crystallographic Data Centre (CCDC).
#
# This work is licensed under the Creative Commons
# Attribution-NonCommercial-ShareAlike 4.0 International License.
# To view a copy of this license, visit
# http://creativecommons.org/licenses/by-nc-sa/4.0/
# or send a letter to
# Creative Commons, PO Box 1866, Mountain View, CA 94042, USA.
#
# CIF created using the CSD Python API on 29 September 2022
# The structure has been converted into the P1 space group
# The structure has a 3D framework
# The original CSD entry XOLSUO is in the orthorhombic crystal system
# The original CSD entry XOLSUO is in a Sohncke space group
# The framework has been calculated to contain at least 10.0% void space
# The void calculation uses a probe of radius 1.32A, grid spacing 0.4
#
###############################################################################

data_XOLSUO
_chemical_formula_moiety         '(C208 H128 Co28 N32 O104)n'
_symmetry_cell_setting           triclinic
_symmetry_space_group_name_H-M   'P 1'
_symmetry_Int_Tables_number      1
_space_group_name_Hall           'P 1'
loop_
_symmetry_equiv_pos_site_id
_symmetry_equiv_pos_as_xyz
1 x,y,z
_cell_length_a                   20.383(4)
_cell_length_b                   22.674(5)
_cell_length_c                   23.215(5)
_cell_angle_alpha                90
_cell_angle_beta                 90
_cell_angle_gamma                90
_cell_volume                     10729.1
loop_
_atom_site_label
_atom_site_type_symbol
_atom_site_fract_x
_atom_site_fract_y
_atom_site_fract_z
Co10 Co 0.0000 0.21111(4) 0.2500
Co4 Co 0.70133(5) 0.0000 0.0000
O3 O 0.9004(2) 0.13551(18) 0.14251(18)
O4 O 0.9330(3) 0.1446(2) 0.2339(2)
O11 O 0.6961(3) 0.0266(2) 0.0869(2)
O12 O 0.6637(3) 0.1032(2) 0.1357(2)
O13 O 0.6298(3) 0.0099(4) 0.1899(3)
H1 H 0.634(3) 0.013(3) 0.2307(8)
H2 H 0.620(3) 0.0472(19) 0.1695(19)
C8 C 0.8774(5) 0.0381(4) 0.2649(3)
H7 H 0.9106 0.0523 0.2886
C9 C 0.8644(3) 0.0659(3) 0.2117(3)
C10 C 0.8155(3) 0.0419(3) 0.1782(2)
H8 H 0.8074 0.0587 0.1423
C12 C 0.9039(3) 0.1197(2) 0.1946(2)
C26 C 0.6843(5) 0.0812(4) 0.0951(4)
H16 H 0.6936 0.1062 0.0644
O16 O 0.0996(2) 0.13551(18) 0.35749(18)
O17 O 0.0670(3) 0.1446(2) 0.2661(2)
O24 O 0.3039(3) 0.0266(2) 0.4131(2)
O25 O 0.3363(3) 0.1032(2) 0.3643(2)
O26 O 0.3702(3) 0.0099(4) 0.3101(3)
H17 H 0.366(3) 0.013(3) 0.2693(8)
H18 H 0.380(3) 0.0472(19) 0.3305(19)
C34 C 0.1226(5) 0.0381(4) 0.2351(3)
H23 H 0.0894 0.0523 0.2114
C35 C 0.1356(3) 0.0659(3) 0.2883(3)
C36 C 0.1845(3) 0.0419(3) 0.3218(2)
H24 H 0.1926 0.0587 0.3577
C38 C 0.0961(3) 0.1197(2) 0.3054(2)
C52 C 0.3157(5) 0.0812(4) 0.4049(4)
H32 H 0.3064 0.1062 0.4356
Co7 Co 0.05364(3) 0.20791(3) 0.39193(3)
Co8 Co 0.94636(3) 0.20791(3) 0.10807(3)
Co10_2 Co 1.0000 0.21111(4) 0.2500
Co13 Co 0.29867(5) 0.0000 0.5000
Co4_2 Co 0.70133(5) 0.0000 1.0000
O32 O 0.7726(2) 0.0625(2) 0.98864(18)
O35 O 0.6299(3) 0.0618(2) 0.98041(19)
Co1 Co 0.55364(3) 0.70791(3) 0.39193(3)
Co2 Co 0.5000 0.71111(4) 0.2500
Co3 Co 0.69949(4) 0.95622(3) 0.14611(3)
Co4_3 Co 0.70133(5) 1.0000 0.0000
O1 O 0.5692(2) 0.7756(2) 0.26326(19)
O2 O 0.6107(2) 0.76762(19) 0.35273(19)
O5 O 0.7274(2) 0.5625(2) 0.51136(18)
O6 O 0.7299(2) 0.59000(19) 0.60411(17)
O7 O 0.3751(2) 0.9055(2) 0.38992(17)
O8 O 0.3701(3) 0.9382(2) 0.48041(19)
O9 O 0.4723(2) 0.7068(3) 0.3372(2)
O10 O 0.4592(3) 0.6493(2) 0.4114(2)
N1 N 0.7024(3) 0.9056(2) 0.2218(2)
N2 N 0.7790(2) 0.9956(2) 0.1946(2)
N3 N 0.5966(3) 0.6951(2) 0.47220(19)
N4 N 0.5098(2) 0.7765(2) 0.44169(19)
C1 C 0.6583(3) 0.8633(2) 0.2358(2)
H3 H 0.6262 0.8534 0.2090
C2 C 0.6586(3) 0.8342(3) 0.2879(2)
C3 C 0.7044(4) 0.8530(4) 0.3296(3)
H4 H 0.7028 0.8377 0.3668
C4 C 0.7520(5) 0.8944(4) 0.3149(3)
H5 H 0.7863 0.9036 0.3398
C5 C 0.7458(4) 0.9212(3) 0.2619(3)
C6 C 0.7898(4) 0.9714(3) 0.2467(3)
C7 C 0.8418(5) 0.9913(5) 0.2810(4)
H6 H 0.8518 0.9718 0.3152
C11 C 0.6081(3) 0.7887(3) 0.3020(2)
C13 C 0.6379(3) 0.6505(3) 0.4861(2)
H9 H 0.6501 0.6238 0.4575
C14 C 0.6623(3) 0.6432(3) 0.5406(3)
C15 C 0.6420(4) 0.6795(4) 0.5839(3)
H10 H 0.6569 0.6743 0.6214
C16 C 0.5986(5) 0.7245(4) 0.5704(4)
H11 H 0.5833 0.7494 0.5993
C17 C 0.5784(4) 0.7325(4) 0.5153(3)
C18 C 0.5301(4) 0.7790(3) 0.4976(3)
C19 C 0.5102(5) 0.8227(4) 0.5372(3)
H12 H 0.5261 0.8240 0.5747
C20 C 0.4658(5) 0.8636(4) 0.5167(3)
H13 H 0.4518 0.8936 0.5411
C21 C 0.4415(3) 0.8615(3) 0.4618(3)
C22 C 0.4662(3) 0.8183(2) 0.4255(2)
H14 H 0.4518 0.8181 0.3875
C23 C 0.7110(3) 0.5943(2) 0.5528(2)
C24 C 0.3919(3) 0.9051(3) 0.4426(2)
C25 C 0.4385(4) 0.6698(4) 0.3643(3)
H15 H 0.3982 0.6575 0.3498
Co5 Co 0.44636(3) 0.70791(3) 0.10807(3)
Co6 Co 0.30051(4) 0.95622(3) 0.35389(3)
O14 O 0.4308(2) 0.7756(2) 0.23674(19)
O15 O 0.3893(2) 0.76762(19) 0.14727(19)
O20 O 0.6249(2) 0.9055(2) 0.11008(17)
O21 O 0.6299(3) 0.9382(2) 0.01959(19)
O22 O 0.5277(2) 0.7068(3) 0.1628(2)
O23 O 0.5408(3) 0.6493(2) 0.0886(2)
N5 N 0.2976(3) 0.9056(2) 0.2782(2)
N6 N 0.2210(2) 0.9956(2) 0.3054(2)
N7 N 0.4034(3) 0.6951(2) 0.02780(19)
N8 N 0.4902(2) 0.7765(2) 0.05831(19)
C27 C 0.3417(3) 0.8633(2) 0.2642(2)
H19 H 0.3738 0.8534 0.2910
C28 C 0.3414(3) 0.8342(3) 0.2121(2)
C29 C 0.2956(4) 0.8530(4) 0.1704(3)
H20 H 0.2972 0.8377 0.1332
C30 C 0.2480(5) 0.8944(4) 0.1851(3)
H21 H 0.2137 0.9036 0.1602
C31 C 0.2542(4) 0.9212(3) 0.2381(3)
C32 C 0.2102(4) 0.9714(3) 0.2533(3)
C33 C 0.1582(5) 0.9913(5) 0.2190(4)
H22 H 0.1482 0.9718 0.1848
C37 C 0.3919(3) 0.7887(3) 0.1980(2)
C39 C 0.3621(3) 0.6505(3) 0.0139(2)
H25 H 0.3499 0.6238 0.0425
C44 C 0.4699(4) 0.7790(3) 0.0024(3)
C47 C 0.5585(3) 0.8615(3) 0.0382(3)
C48 C 0.5338(3) 0.8183(2) 0.0745(2)
H30 H 0.5482 0.8181 0.1125
C50 C 0.6081(3) 0.9051(3) 0.0574(2)
C51 C 0.5615(4) 0.6698(4) 0.1357(3)
H31 H 0.6018 0.6575 0.1502
Co11 Co 0.80051(4) 0.54378(3) 0.64611(3)
Co13_2 Co 0.29867(5) 1.0000 0.5000
Co14 Co 0.20133(5) 0.5000 0.0000
Co15 Co 0.79867(5) 0.5000 0.5000
O27 O 0.4004(2) 0.63551(18) 0.14251(18)
O28 O 0.5996(2) 0.63551(18) 0.35749(18)
O29 O 0.4330(3) 0.6446(2) 0.2339(2)
O30 O 0.5670(3) 0.6446(2) 0.2661(2)
O31 O 0.7726(2) 0.9375(2) 0.01136(18)
O33 O 0.7701(2) 0.91000(19) 0.10411(17)
O34 O 0.2299(2) 0.91000(19) 0.39589(17)
Co4_4 Co 0.70133(5) 1.0000 1.0000
O18 O 0.2726(2) 0.5625(2) 0.98864(18)
O19 O 0.2701(2) 0.59000(19) 0.89589(17)
C40 C 0.3377(3) 0.6432(3) 0.9594(3)
C41 C 0.3580(4) 0.6795(4) 0.9161(3)
H26 H 0.3431 0.6743 0.8786
C42 C 0.4014(5) 0.7245(4) 0.9296(4)
H27 H 0.4167 0.7494 0.9007
C43 C 0.4216(4) 0.7325(4) 0.9847(3)
C45 C 0.4898(5) 0.8227(4) 0.9628(3)
H28 H 0.4739 0.8240 0.9253
C46 C 0.5342(5) 0.8636(4) 0.9833(3)
H29 H 0.5482 0.8936 0.9589
C49 C 0.2890(3) 0.5943(2) 0.9472(2)
Co12 Co 0.19949(4) 0.54378(3) 0.85389(3)
Co14_2 Co 0.20133(5) 0.5000 1.0000
O36 O 0.6961(3) 0.9734(2) 0.9131(2)
Co9 Co -0.0000 0.78889(4) 0.7500
O5_2 O 0.2726(2) 0.4375(2) 0.01136(18)
O6_2 O 0.2701(2) 0.41000(19) 0.10411(17)
C14_2 C 0.3377(3) 0.3568(3) 0.0406(3)
C15_2 C 0.3580(4) 0.3205(4) 0.0839(3)
H10_2 H 0.3431 0.3257 0.1214
C16_2 C 0.4014(5) 0.2755(4) 0.0704(4)
H11_2 H 0.4167 0.2506 0.0993
C17_2 C 0.4216(4) 0.2675(4) 0.0153(3)
C19_2 C 0.4898(5) 0.1773(4) 0.0372(3)
H12_2 H 0.4739 0.1760 0.0747
C20_2 C 0.5342(5) 0.1364(4) 0.0167(3)
H13_2 H 0.5482 0.1064 0.0411
C23_2 C 0.2890(3) 0.4057(2) 0.0528(2)
Co11_2 Co 0.19949(4) 0.45622(3) 0.14611(3)
Co1_2 Co 0.44636(3) 0.29209(3) 0.89193(3)
Co2_2 Co 0.5000 0.28889(4) 0.7500
Co3_2 Co 0.30051(4) 0.04378(3) 0.64611(3)
O1_2 O 0.4308(2) 0.2244(2) 0.76326(19)
O2_2 O 0.3893(2) 0.23238(19) 0.85273(19)
O7_2 O 0.6249(2) 0.0945(2) 0.88992(17)
O9_2 O 0.5277(2) 0.2932(3) 0.8372(2)
O10_2 O 0.5408(3) 0.3507(2) 0.9114(2)
N1_2 N 0.2976(3) 0.0944(2) 0.7218(2)
N2_2 N 0.2210(2) 0.0044(2) 0.6946(2)
N3_2 N 0.4034(3) 0.3049(2) 0.97220(19)
N4_2 N 0.4902(2) 0.2235(2) 0.94169(19)
C1_2 C 0.3417(3) 0.1367(2) 0.7358(2)
H3_2 H 0.3738 0.1466 0.7090
C2_2 C 0.3414(3) 0.1658(3) 0.7879(2)
C3_2 C 0.2956(4) 0.1470(4) 0.8296(3)
H4_2 H 0.2972 0.1623 0.8668
C4_2 C 0.2480(5) 0.1056(4) 0.8149(3)
H5_2 H 0.2137 0.0964 0.8398
C5_2 C 0.2542(4) 0.0788(3) 0.7619(3)
C6_2 C 0.2102(4) 0.0286(3) 0.7467(3)
C7_2 C 0.1582(5) 0.0087(5) 0.7810(4)
H6_2 H 0.1482 0.0282 0.8152
C11_2 C 0.3919(3) 0.2113(3) 0.8020(2)
C13_2 C 0.3621(3) 0.3495(3) 0.9861(2)
H9_2 H 0.3499 0.3762 0.9575
C18_2 C 0.4699(4) 0.2210(3) 0.9976(3)
C21_2 C 0.5585(3) 0.1385(3) 0.9618(3)
C22_2 C 0.5338(3) 0.1817(2) 0.9255(2)
H14_2 H 0.5482 0.1819 0.8875
C24_2 C 0.6081(3) 0.0949(3) 0.9426(2)
C25_2 C 0.5615(4) 0.3302(4) 0.8643(3)
H15_2 H 0.6018 0.3425 0.8498
Co5_2 Co 0.55364(3) 0.29209(3) 0.60807(3)
Co6_2 Co 0.69949(4) 0.04378(3) 0.85389(3)
O14_2 O 0.5692(2) 0.2244(2) 0.73674(19)
O15_2 O 0.6107(2) 0.23238(19) 0.64727(19)
O18_2 O 0.7274(2) 0.4375(2) 0.48864(18)
O19_2 O 0.7299(2) 0.41000(19) 0.39589(17)
O20_2 O 0.3751(2) 0.0945(2) 0.61008(17)
O21_2 O 0.3701(3) 0.0618(2) 0.51959(19)
O22_2 O 0.4723(2) 0.2932(3) 0.6628(2)
O23_2 O 0.4592(3) 0.3507(2) 0.5886(2)
N5_2 N 0.7024(3) 0.0944(2) 0.7782(2)
N6_2 N 0.7790(2) 0.0044(2) 0.8054(2)
N7_2 N 0.5966(3) 0.3049(2) 0.52780(19)
N8_2 N 0.5098(2) 0.2235(2) 0.55831(19)
C27_2 C 0.6583(3) 0.1367(2) 0.7642(2)
H19_2 H 0.6262 0.1466 0.7910
C28_2 C 0.6586(3) 0.1658(3) 0.7121(2)
C29_2 C 0.7044(4) 0.1470(4) 0.6704(3)
H20_2 H 0.7028 0.1623 0.6332
C30_2 C 0.7520(5) 0.1056(4) 0.6851(3)
H21_2 H 0.7863 0.0964 0.6602
C31_2 C 0.7458(4) 0.0788(3) 0.7381(3)
C32_2 C 0.7898(4) 0.0286(3) 0.7533(3)
C33_2 C 0.8418(5) 0.0087(5) 0.7190(4)
H22_2 H 0.8518 0.0282 0.6848
C37_2 C 0.6081(3) 0.2113(3) 0.6980(2)
C39_2 C 0.6379(3) 0.3495(3) 0.5139(2)
H25_2 H 0.6501 0.3762 0.5425
C40_2 C 0.6623(3) 0.3568(3) 0.4594(3)
C41_2 C 0.6420(4) 0.3205(4) 0.4161(3)
H26_2 H 0.6569 0.3257 0.3786
C42_2 C 0.5986(5) 0.2755(4) 0.4296(4)
H27_2 H 0.5833 0.2506 0.4007
C43_2 C 0.5784(4) 0.2675(4) 0.4847(3)
C44_2 C 0.5301(4) 0.2210(3) 0.5024(3)
C45_2 C 0.5102(5) 0.1773(4) 0.4628(3)
H28_2 H 0.5261 0.1760 0.4253
C46_2 C 0.4658(5) 0.1364(4) 0.4833(3)
H29_2 H 0.4518 0.1064 0.4589
C47_2 C 0.4415(3) 0.1385(3) 0.5382(3)
C48_2 C 0.4662(3) 0.1817(2) 0.5745(2)
H30_2 H 0.4518 0.1819 0.6125
C49_2 C 0.7110(3) 0.4057(2) 0.4472(2)
C50_2 C 0.3919(3) 0.0949(3) 0.5574(2)
C51_2 C 0.4385(4) 0.3302(4) 0.6357(3)
H31_2 H 0.3982 0.3425 0.6502
Co12_2 Co 0.80051(4) 0.45622(3) 0.35389(3)
O27_2 O 0.5996(2) 0.36449(18) 0.64251(18)
O28_2 O 0.4004(2) 0.36449(18) 0.85749(18)
O29_2 O 0.5670(3) 0.3554(2) 0.7339(2)
O30_2 O 0.4330(3) 0.3554(2) 0.7661(2)
O31_2 O 0.2274(2) 0.0625(2) 0.51136(18)
O33_2 O 0.2299(2) 0.09000(19) 0.60411(17)
O34_2 O 0.7701(2) 0.09000(19) 0.89589(17)
O3_2 O 0.0996(2) 0.86449(18) 0.64251(18)
O4_2 O 0.0670(3) 0.8554(2) 0.7339(2)
O11_2 O 0.3039(3) 0.9734(2) 0.5869(2)
O12_2 O 0.3363(3) 0.8968(2) 0.6357(2)
O13_2 O 0.3702(3) 0.9901(4) 0.6899(3)
H1_2 H 0.366(3) 0.987(3) 0.7307(8)
H2_2 H 0.380(3) 0.9528(19) 0.6695(19)
C8_2 C 0.1226(5) 0.9619(4) 0.7649(3)
H7_2 H 0.0894 0.9477 0.7886
C9_2 C 0.1356(3) 0.9341(3) 0.7117(3)
C10_2 C 0.1845(3) 0.9581(3) 0.6782(2)
H8_2 H 0.1926 0.9413 0.6423
C12_2 C 0.0961(3) 0.8803(2) 0.6946(2)
C26_2 C 0.3157(5) 0.9188(4) 0.5951(4)
H16_2 H 0.3064 0.8938 0.5644
O16_2 O 0.9004(2) 0.86449(18) 0.85749(18)
O17_2 O 0.9330(3) 0.8554(2) 0.7661(2)
O25_2 O 0.6637(3) 0.8968(2) 0.8643(2)
O26_2 O 0.6298(3) 0.9901(4) 0.8101(3)
H17_2 H 0.634(3) 0.987(3) 0.7693(8)
H18_2 H 0.620(3) 0.9528(19) 0.8305(19)
C34_2 C 0.8774(5) 0.9619(4) 0.7351(3)
H23_2 H 0.9106 0.9477 0.7114
C35_2 C 0.8644(3) 0.9341(3) 0.7883(3)
C36_2 C 0.8155(3) 0.9581(3) 0.8218(2)
H24_2 H 0.8074 0.9413 0.8577
C38_2 C 0.9039(3) 0.8803(2) 0.8054(2)
C52_2 C 0.6843(5) 0.9188(4) 0.9049(4)
H32_2 H 0.6936 0.8938 0.9356
Co7_2 Co 0.94636(3) 0.79209(3) 0.89193(3)
Co8_2 Co 0.05364(3) 0.79209(3) 0.60807(3)
Co9_2 Co 1.0000 0.78889(4) 0.7500
O32_2 O 0.2274(2) 0.9375(2) 0.48864(18)
O1_3 O 0.0692(2) 0.2756(2) 0.26326(19)
O2_3 O 0.1107(2) 0.26762(19) 0.35273(19)
O11_3 O 0.1961(3) 0.5266(2) 0.0869(2)
O12_3 O 0.1637(3) 0.6032(2) 0.1357(2)
O13_3 O 0.1298(3) 0.5099(4) 0.1899(3)
H1_3 H 0.134(3) 0.513(3) 0.2307(8)
H2_3 H 0.120(3) 0.5472(19) 0.1695(19)
N1_3 N 0.2024(3) 0.4056(2) 0.2218(2)
N2_3 N 0.2790(2) 0.4956(2) 0.1946(2)
N3_3 N 0.0966(3) 0.1951(2) 0.47220(19)
N4_3 N 0.0098(2) 0.2765(2) 0.44169(19)
C1_3 C 0.1583(3) 0.3633(2) 0.2358(2)
H3_3 H 0.1262 0.3534 0.2090
C2_3 C 0.1586(3) 0.3342(3) 0.2879(2)
C3_3 C 0.2044(4) 0.3530(4) 0.3296(3)
H4_3 H 0.2028 0.3377 0.3668
C4_3 C 0.2520(5) 0.3944(4) 0.3149(3)
H5_3 H 0.2863 0.4036 0.3398
C5_3 C 0.2458(4) 0.4212(3) 0.2619(3)
C6_3 C 0.2898(4) 0.4714(3) 0.2467(3)
C7_3 C 0.3418(5) 0.4913(5) 0.2810(4)
H6_3 H 0.3518 0.4718 0.3152
C8_3 C 0.3774(5) 0.5381(4) 0.2649(3)
H7_3 H 0.4106 0.5523 0.2886
C9_3 C 0.3644(3) 0.5659(3) 0.2117(3)
C10_3 C 0.3155(3) 0.5419(3) 0.1782(2)
H8_3 H 0.3074 0.5587 0.1423
C11_3 C 0.1081(3) 0.2887(3) 0.3020(2)
C12_3 C 0.4039(3) 0.6197(2) 0.1946(2)
C13_3 C 0.1379(3) 0.1505(3) 0.4861(2)
H9_3 H 0.1501 0.1238 0.4575
C14_3 C 0.1623(3) 0.1432(3) 0.5406(3)
C15_3 C 0.1420(4) 0.1795(4) 0.5839(3)
H10_3 H 0.1569 0.1743 0.6214
C16_3 C 0.0986(5) 0.2245(4) 0.5704(4)
H11_3 H 0.0833 0.2494 0.5993
C17_3 C 0.0784(4) 0.2325(4) 0.5153(3)
C18_3 C 0.0301(4) 0.2790(3) 0.4976(3)
C19_3 C 0.0102(5) 0.3227(4) 0.5372(3)
H12_3 H 0.0261 0.3240 0.5747
C23_3 C 0.2110(3) 0.0943(2) 0.5528(2)
C26_3 C 0.1843(5) 0.5812(4) 0.0951(4)
H16_3 H 0.1936 0.6062 0.0644
O20_3 O 0.1249(2) 0.4055(2) 0.11008(17)
O21_3 O 0.1299(3) 0.4382(2) 0.01959(19)
O22_3 O 0.0277(2) 0.2068(3) 0.1628(2)
O23_3 O 0.0408(3) 0.1493(2) 0.0886(2)
C47_3 C 0.0585(3) 0.3615(3) 0.0382(3)
C48_3 C 0.0338(3) 0.3183(2) 0.0745(2)
H30_3 H 0.0482 0.3181 0.1125
C50_3 C 0.1081(3) 0.4051(3) 0.0574(2)
C51_3 C 0.0615(4) 0.1698(4) 0.1357(3)
H31_3 H 0.1018 0.1575 0.1502
C46_3 C 0.0342(5) 0.3636(4) 0.9833(3)
H29_3 H 0.0482 0.3936 0.9589
O35_2 O 0.1299(3) 0.5618(2) 0.98041(19)
O36_2 O 0.1961(3) 0.4734(2) 0.9131(2)
O7_3 O 0.8751(2) 0.4055(2) 0.38992(17)
O8_2 O 0.8701(3) 0.4382(2) 0.48041(19)
O9_3 O 0.9723(2) 0.2068(3) 0.3372(2)
O10_3 O 0.9592(3) 0.1493(2) 0.4114(2)
C20_3 C 0.9658(5) 0.3636(4) 0.5167(3)
H13_3 H 0.9518 0.3936 0.5411
C21_3 C 0.9415(3) 0.3615(3) 0.4618(3)
C22_3 C 0.9662(3) 0.3183(2) 0.4255(2)
H14_3 H 0.9518 0.3181 0.3875
C24_3 C 0.8919(3) 0.4051(3) 0.4426(2)
C25_3 C 0.9385(4) 0.1698(4) 0.3643(3)
H15_3 H 0.8982 0.1575 0.3498
O14_3 O 0.9308(2) 0.2756(2) 0.23674(19)
O15_3 O 0.8893(2) 0.26762(19) 0.14727(19)
O24_2 O 0.8039(3) 0.5266(2) 0.4131(2)
O25_3 O 0.8363(3) 0.6032(2) 0.3643(2)
O26_3 O 0.8702(3) 0.5099(4) 0.3101(3)
H17_3 H 0.866(3) 0.513(3) 0.2693(8)
H18_3 H 0.880(3) 0.5472(19) 0.3305(19)
N5_3 N 0.7976(3) 0.4056(2) 0.2782(2)
N6_3 N 0.7210(2) 0.4956(2) 0.3054(2)
N7_3 N 0.9034(3) 0.1951(2) 0.02780(19)
N8_3 N 0.9902(2) 0.2765(2) 0.05831(19)
C27_3 C 0.8417(3) 0.3633(2) 0.2642(2)
H19_3 H 0.8738 0.3534 0.2910
C28_3 C 0.8414(3) 0.3342(3) 0.2121(2)
C29_3 C 0.7956(4) 0.3530(4) 0.1704(3)
H20_3 H 0.7972 0.3377 0.1332
C30_3 C 0.7480(5) 0.3944(4) 0.1851(3)
H21_3 H 0.7137 0.4036 0.1602
C31_3 C 0.7542(4) 0.4212(3) 0.2381(3)
C32_3 C 0.7102(4) 0.4714(3) 0.2533(3)
C33_3 C 0.6582(5) 0.4913(5) 0.2190(4)
H22_3 H 0.6482 0.4718 0.1848
C34_3 C 0.6226(5) 0.5381(4) 0.2351(3)
H23_3 H 0.5894 0.5523 0.2114
C35_3 C 0.6356(3) 0.5659(3) 0.2883(3)
C36_3 C 0.6845(3) 0.5419(3) 0.3218(2)
H24_3 H 0.6926 0.5587 0.3577
C37_3 C 0.8919(3) 0.2887(3) 0.1980(2)
C38_3 C 0.5961(3) 0.6197(2) 0.3054(2)
C39_3 C 0.8621(3) 0.1505(3) 0.0139(2)
H25_3 H 0.8499 0.1238 0.0425
C44_3 C 0.9699(4) 0.2790(3) 0.0024(3)
C52_3 C 0.8157(5) 0.5812(4) 0.4049(4)
H32_3 H 0.8064 0.6062 0.4356
C40_3 C 0.8377(3) 0.1432(3) 0.9594(3)
C41_3 C 0.8580(4) 0.1795(4) 0.9161(3)
H26_3 H 0.8431 0.1743 0.8786
C42_3 C 0.9014(5) 0.2245(4) 0.9296(4)
H27_3 H 0.9167 0.2494 0.9007
C43_3 C 0.9216(4) 0.2325(4) 0.9847(3)
C45_3 C 0.9898(5) 0.3227(4) 0.9628(3)
H28_3 H 0.9739 0.3240 0.9253
C49_3 C 0.7890(3) 0.0943(2) 0.9472(2)
C20_4 C 0.0342(5) 0.6364(4) 0.0167(3)
H13_4 H 0.0482 0.6064 0.0411
O7_4 O 0.1249(2) 0.5945(2) 0.88992(17)
O9_4 O 0.0277(2) 0.7932(3) 0.8372(2)
O10_4 O 0.0408(3) 0.8507(2) 0.9114(2)
C21_4 C 0.0585(3) 0.6385(3) 0.9618(3)
C22_4 C 0.0338(3) 0.6817(2) 0.9255(2)
H14_4 H 0.0482 0.6819 0.8875
C24_4 C 0.1081(3) 0.5949(3) 0.9426(2)
C25_4 C 0.0615(4) 0.8302(4) 0.8643(3)
H15_4 H 0.1018 0.8425 0.8498
O14_4 O 0.0692(2) 0.7244(2) 0.73674(19)
O15_4 O 0.1107(2) 0.73238(19) 0.64727(19)
O25_4 O 0.1637(3) 0.3968(2) 0.8643(2)
O26_4 O 0.1298(3) 0.4901(4) 0.8101(3)
H17_4 H 0.134(3) 0.487(3) 0.7693(8)
H18_4 H 0.120(3) 0.4528(19) 0.8305(19)
N5_4 N 0.2024(3) 0.5944(2) 0.7782(2)
N6_4 N 0.2790(2) 0.5044(2) 0.8054(2)
N7_4 N 0.0966(3) 0.8049(2) 0.52780(19)
N8_4 N 0.0098(2) 0.7235(2) 0.55831(19)
C27_4 C 0.1583(3) 0.6367(2) 0.7642(2)
H19_4 H 0.1262 0.6466 0.7910
C28_4 C 0.1586(3) 0.6658(3) 0.7121(2)
C29_4 C 0.2044(4) 0.6470(4) 0.6704(3)
H20_4 H 0.2028 0.6623 0.6332
C30_4 C 0.2520(5) 0.6056(4) 0.6851(3)
H21_4 H 0.2863 0.5964 0.6602
C31_4 C 0.2458(4) 0.5788(3) 0.7381(3)
C32_4 C 0.2898(4) 0.5286(3) 0.7533(3)
C33_4 C 0.3418(5) 0.5087(5) 0.7190(4)
H22_4 H 0.3518 0.5282 0.6848
C34_4 C 0.3774(5) 0.4619(4) 0.7351(3)
H23_4 H 0.4106 0.4477 0.7114
C35_4 C 0.3644(3) 0.4341(3) 0.7883(3)
C36_4 C 0.3155(3) 0.4581(3) 0.8218(2)
H24_4 H 0.3074 0.4413 0.8577
C37_4 C 0.1081(3) 0.7113(3) 0.6980(2)
C38_4 C 0.4039(3) 0.3803(2) 0.8054(2)
C39_4 C 0.1379(3) 0.8495(3) 0.5139(2)
H25_4 H 0.1501 0.8762 0.5425
C40_4 C 0.1623(3) 0.8568(3) 0.4594(3)
C41_4 C 0.1420(4) 0.8205(4) 0.4161(3)
H26_4 H 0.1569 0.8257 0.3786
C42_4 C 0.0986(5) 0.7755(4) 0.4296(4)
H27_4 H 0.0833 0.7506 0.4007
C43_4 C 0.0784(4) 0.7675(4) 0.4847(3)
C44_4 C 0.0301(4) 0.7210(3) 0.5024(3)
C45_4 C 0.0102(5) 0.6773(4) 0.4628(3)
H28_4 H 0.0261 0.6760 0.4253
C49_4 C 0.2110(3) 0.9057(2) 0.4472(2)
C52_4 C 0.1843(5) 0.4188(4) 0.9049(4)
H32_4 H 0.1936 0.3938 0.9356
C14_4 C 0.8377(3) 0.8568(3) 0.0406(3)
C15_4 C 0.8580(4) 0.8205(4) 0.0839(3)
H10_4 H 0.8431 0.8257 0.1214
C16_4 C 0.9014(5) 0.7755(4) 0.0704(4)
H11_4 H 0.9167 0.7506 0.0993
C17_4 C 0.9216(4) 0.7675(4) 0.0153(3)
C19_4 C 0.9898(5) 0.6773(4) 0.0372(3)
H12_4 H 0.9739 0.6760 0.0747
C23_4 C 0.7890(3) 0.9057(2) 0.0528(2)
O1_4 O 0.9308(2) 0.7244(2) 0.76326(19)
O2_4 O 0.8893(2) 0.73238(19) 0.85273(19)
O11_4 O 0.8039(3) 0.4734(2) 0.5869(2)
O12_4 O 0.8363(3) 0.3968(2) 0.6357(2)
O13_4 O 0.8702(3) 0.4901(4) 0.6899(3)
H1_4 H 0.866(3) 0.487(3) 0.7307(8)
H2_4 H 0.880(3) 0.4528(19) 0.6695(19)
N1_4 N 0.7976(3) 0.5944(2) 0.7218(2)
N2_4 N 0.7210(2) 0.5044(2) 0.6946(2)
N3_4 N 0.9034(3) 0.8049(2) 0.97220(19)
N4_4 N 0.9902(2) 0.7235(2) 0.94169(19)
C1_4 C 0.8417(3) 0.6367(2) 0.7358(2)
H3_4 H 0.8738 0.6466 0.7090
C2_4 C 0.8414(3) 0.6658(3) 0.7879(2)
C3_4 C 0.7956(4) 0.6470(4) 0.8296(3)
H4_4 H 0.7972 0.6623 0.8668
C4_4 C 0.7480(5) 0.6056(4) 0.8149(3)
H5_4 H 0.7137 0.5964 0.8398
C5_4 C 0.7542(4) 0.5788(3) 0.7619(3)
C6_4 C 0.7102(4) 0.5286(3) 0.7467(3)
C7_4 C 0.6582(5) 0.5087(5) 0.7810(4)
H6_4 H 0.6482 0.5282 0.8152
C8_4 C 0.6226(5) 0.4619(4) 0.7649(3)
H7_4 H 0.5894 0.4477 0.7886
C9_4 C 0.6356(3) 0.4341(3) 0.7117(3)
C10_4 C 0.6845(3) 0.4581(3) 0.6782(2)
H8_4 H 0.6926 0.4413 0.6423
C11_4 C 0.8919(3) 0.7113(3) 0.8020(2)
C12_4 C 0.5961(3) 0.3803(2) 0.6946(2)
C13_4 C 0.8621(3) 0.8495(3) 0.9861(2)
H9_4 H 0.8499 0.8762 0.9575
C18_4 C 0.9699(4) 0.7210(3) 0.9976(3)
C26_4 C 0.8157(5) 0.4188(4) 0.5951(4)
H16_4 H 0.8064 0.3938 0.5644
O20_4 O 0.8751(2) 0.5945(2) 0.61008(17)
O21_4 O 0.8701(3) 0.5618(2) 0.51959(19)
O22_4 O 0.9723(2) 0.7932(3) 0.6628(2)
O23_4 O 0.9592(3) 0.8507(2) 0.5886(2)
C46_4 C 0.9658(5) 0.6364(4) 0.4833(3)
H29_4 H 0.9518 0.6064 0.4589
C47_4 C 0.9415(3) 0.6385(3) 0.5382(3)
C48_4 C 0.9662(3) 0.6817(2) 0.5745(2)
H30_4 H 0.9518 0.6819 0.6125
C50_4 C 0.8919(3) 0.5949(3) 0.5574(2)
C51_4 C 0.9385(4) 0.8302(4) 0.6357(3)
H31_4 H 0.8982 0.8425 0.6502
loop_
_geom_bond_atom_site_label_1
_geom_bond_atom_site_label_2
_geom_bond_site_symmetry_1
_geom_bond_site_symmetry_2
Co4 O11 1_555 1_555
O3 C12 1_555 1_555
O4 C12 1_555 1_555
O11 C26 1_555 1_555
O12 C26 1_555 1_555
H1 O13 1_555 1_555
H2 O13 1_555 1_555
H7 C8 1_555 1_555
C9 C8 1_555 1_555
H8 C10 1_555 1_555
C12 C9 1_555 1_555
C26 H16 1_555 1_555
O16 C38 1_555 1_555
O17 C38 1_555 1_555
O25 C52 1_555 1_555
H17 O26 1_555 1_555
H18 O26 1_555 1_555
H23 C34 1_555 1_555
C35 C34 1_555 1_555
H24 C36 1_555 1_555
C38 C35 1_555 1_555
C52 O24 1_555 1_555
H32 C52 1_555 1_555
Co7 O16 1_555 1_555
Co8 O3 1_555 1_555
Co10 O17 1_555 1_555
Co10_2 O4 1_555 1_555
C9 C10 1_555 1_555
O24 Co13 1_555 1_555
C35 C36 1_555 1_555
O32 Co4_2 1_555 1_555
O35 Co4_2 1_555 1_555
Co1 O2 1_555 1_555
Co2 O1 1_555 1_555
O1 C11 1_555 1_555
O2 C11 1_555 1_555
O5 C23 1_555 1_555
O6 C23 1_555 1_555
O7 C24 1_555 1_555
O8 C24 1_555 1_555
O9 Co1 1_555 1_555
O10 Co1 1_555 1_555
N1 Co3 1_555 1_555
N2 Co3 1_555 1_555
N3 Co1 1_555 1_555
N4 Co1 1_555 1_555
C1 N1 1_555 1_555
H3 C1 1_555 1_555
C2 C1 1_555 1_555
C3 C2 1_555 1_555
H4 C3 1_555 1_555
C4 C3 1_555 1_555
H5 C4 1_555 1_555
C5 N1 1_555 1_555
C6 N2 1_555 1_555
C7 C6 1_555 1_555
H6 C7 1_555 1_555
C11 C2 1_555 1_555
C13 N3 1_555 1_555
H9 C13 1_555 1_555
C14 C13 1_555 1_555
C15 C14 1_555 1_555
H10 C15 1_555 1_555
C16 C15 1_555 1_555
H11 C16 1_555 1_555
C17 N3 1_555 1_555
C18 N4 1_555 1_555
C19 C18 1_555 1_555
H12 C19 1_555 1_555
C20 C19 1_555 1_555
H13 C20 1_555 1_555
C21 C20 1_555 1_555
C22 N4 1_555 1_555
H14 C22 1_555 1_555
C23 C14 1_555 1_555
C24 C21 1_555 1_555
C25 O9 1_555 1_555
H15 C25 1_555 1_555
Co5 O15 1_555 1_555
Co6 O7 1_555 1_555
O14 Co2 1_555 1_555
O15 C37 1_555 1_555
O20 Co3 1_555 1_555
O21 Co4_3 1_555 1_555
O22 Co2 1_555 1_555
O23 Co5 1_555 1_555
N5 Co6 1_555 1_555
N6 Co6 1_555 1_555
N7 Co5 1_555 1_555
N8 Co5 1_555 1_555
C27 N5 1_555 1_555
H19 C27 1_555 1_555
C28 C27 1_555 1_555
C29 C28 1_555 1_555
H20 C29 1_555 1_555
C30 C29 1_555 1_555
H21 C30 1_555 1_555
C31 N5 1_555 1_555
C32 N6 1_555 1_555
C33 C32 1_555 1_555
H22 C33 1_555 1_555
C37 O14 1_555 1_555
C39 N7 1_555 1_555
H25 C39 1_555 1_555
C44 N8 1_555 1_555
C48 N8 1_555 1_555
H30 C48 1_555 1_555
C50 O20 1_555 1_555
C51 O22 1_555 1_555
H31 C51 1_555 1_555
Co11 O6 1_555 1_555
Co13_2 O8 1_555 1_555
Co15 O5 1_555 1_555
O27 Co5 1_555 1_555
O28 Co1 1_555 1_555
O29 Co2 1_555 1_555
O30 Co2 1_555 1_555
O31 Co4_3 1_555 1_555
O33 Co3 1_555 1_555
O34 Co6 1_555 1_555
Co2 O9 1_555 1_555
O10 C25 1_555 1_555
C4 C5 1_555 1_555
C5 C6 1_555 1_555
C16 C17 1_555 1_555
C17 C18 1_555 1_555
C21 C22 1_555 1_555
Co5 O22 1_555 1_555
O21 C50 1_555 1_555
O23 C51 1_555 1_555
C28 C37 1_555 1_555
C30 C31 1_555 1_555
C31 C32 1_555 1_555
C47 C48 1_555 1_555
C47 C50 1_555 1_555
O18 C49 1_555 1_555
O19 C49 1_555 1_555
C41 C40 1_555 1_555
H26 C41 1_555 1_555
C42 C41 1_555 1_555
H27 C42 1_555 1_555
H28 C45 1_555 1_555
C46 C45 1_555 1_555
H29 C46 1_555 1_555
C49 C40 1_555 1_555
Co12 O19 1_555 1_555
Co14_2 O18 1_555 1_555
O36 Co4_4 1_555 1_555
C42 C43 1_555 1_555
O5_2 C23_2 1_555 1_555
O6_2 C23_2 1_555 1_555
C15_2 C14_2 1_555 1_555
H10_2 C15_2 1_555 1_555
C16_2 C15_2 1_555 1_555
H11_2 C16_2 1_555 1_555
H12_2 C19_2 1_555 1_555
C20_2 C19_2 1_555 1_555
H13_2 C20_2 1_555 1_555
C23_2 C14_2 1_555 1_555
Co11_2 O6_2 1_555 1_555
Co14 O5_2 1_555 1_555
C16_2 C17_2 1_555 1_555
Co1_2 O2_2 1_555 1_555
Co2_2 O1_2 1_555 1_555
O1_2 C11_2 1_555 1_555
O2_2 C11_2 1_555 1_555
O7_2 C24_2 1_555 1_555
O35 C24_2 1_555 1_555
O9_2 Co1_2 1_555 1_555
O10_2 Co1_2 1_555 1_555
N1_2 Co3_2 1_555 1_555
N2_2 Co3_2 1_555 1_555
N3_2 Co1_2 1_555 1_555
N4_2 Co1_2 1_555 1_555
C1_2 N1_2 1_555 1_555
H3_2 C1_2 1_555 1_555
C2_2 C1_2 1_555 1_555
C3_2 C2_2 1_555 1_555
H4_2 C3_2 1_555 1_555
C4_2 C3_2 1_555 1_555
H5_2 C4_2 1_555 1_555
C5_2 N1_2 1_555 1_555
C6_2 N2_2 1_555 1_555
C7_2 C6_2 1_555 1_555
H6_2 C7_2 1_555 1_555
C11_2 C2_2 1_555 1_555
C13_2 N3_2 1_555 1_555
H9_2 C13_2 1_555 1_555
C18_2 N4_2 1_555 1_555
C22_2 N4_2 1_555 1_555
H14_2 C22_2 1_555 1_555
C24_2 C21_2 1_555 1_555
C25_2 O9_2 1_555 1_555
H15_2 C25_2 1_555 1_555
Co5_2 O15_2 1_555 1_555
Co6_2 O7_2 1_555 1_555
O14_2 Co2_2 1_555 1_555
O15_2 C37_2 1_555 1_555
O18_2 C49_2 1_555 1_555
O19_2 C49_2 1_555 1_555
O20_2 Co3_2 1_555 1_555
O21_2 Co13 1_555 1_555
O22_2 Co2_2 1_555 1_555
O23_2 Co5_2 1_555 1_555
N5_2 Co6_2 1_555 1_555
N6_2 Co6_2 1_555 1_555
N7_2 Co5_2 1_555 1_555
N8_2 Co5_2 1_555 1_555
C27_2 N5_2 1_555 1_555
H19_2 C27_2 1_555 1_555
C28_2 C27_2 1_555 1_555
C29_2 C28_2 1_555 1_555
H20_2 C29_2 1_555 1_555
C30_2 C29_2 1_555 1_555
H21_2 C30_2 1_555 1_555
C31_2 N5_2 1_555 1_555
C32_2 N6_2 1_555 1_555
C33_2 C32_2 1_555 1_555
H22_2 C33_2 1_555 1_555
C37_2 O14_2 1_555 1_555
C39_2 N7_2 1_555 1_555
H25_2 C39_2 1_555 1_555
C40_2 C39_2 1_555 1_555
C41_2 C40_2 1_555 1_555
H26_2 C41_2 1_555 1_555
C42_2 C41_2 1_555 1_555
H27_2 C42_2 1_555 1_555
C43_2 N7_2 1_555 1_555
C44_2 N8_2 1_555 1_555
C45_2 C44_2 1_555 1_555
H28_2 C45_2 1_555 1_555
C46_2 C45_2 1_555 1_555
H29_2 C46_2 1_555 1_555
C47_2 C46_2 1_555 1_555
C48_2 N8_2 1_555 1_555
H30_2 C48_2 1_555 1_555
C49_2 C40_2 1_555 1_555
C50_2 O20_2 1_555 1_555
C51_2 O22_2 1_555 1_555
H31_2 C51_2 1_555 1_555
Co12_2 O19_2 1_555 1_555
Co15 O18_2 1_555 1_555
O27_2 Co5_2 1_555 1_555
O28_2 Co1_2 1_555 1_555
O29_2 Co2_2 1_555 1_555
O30_2 Co2_2 1_555 1_555
O31_2 Co13 1_555 1_555
O33_2 Co3_2 1_555 1_555
O34_2 Co6_2 1_555 1_555
Co2_2 O9_2 1_555 1_555
O10_2 C25_2 1_555 1_555
C4_2 C5_2 1_555 1_555
C5_2 C6_2 1_555 1_555
C21_2 C22_2 1_555 1_555
Co5_2 O22_2 1_555 1_555
O21_2 C50_2 1_555 1_555
O23_2 C51_2 1_555 1_555
C28_2 C37_2 1_555 1_555
C30_2 C31_2 1_555 1_555
C31_2 C32_2 1_555 1_555
C42_2 C43_2 1_555 1_555
C43_2 C44_2 1_555 1_555
C47_2 C48_2 1_555 1_555
C47_2 C50_2 1_555 1_555
Co13_2 O11_2 1_555 1_555
O3_2 C12_2 1_555 1_555
O4_2 C12_2 1_555 1_555
O11_2 C26_2 1_555 1_555
O12_2 C26_2 1_555 1_555
H1_2 O13_2 1_555 1_555
H2_2 O13_2 1_555 1_555
H7_2 C8_2 1_555 1_555
C9_2 C8_2 1_555 1_555
H8_2 C10_2 1_555 1_555
C12_2 C9_2 1_555 1_555
C26_2 H16_2 1_555 1_555
O16_2 C38_2 1_555 1_555
O17_2 C38_2 1_555 1_555
O25_2 C52_2 1_555 1_555
H17_2 O26_2 1_555 1_555
H18_2 O26_2 1_555 1_555
H23_2 C34_2 1_555 1_555
C35_2 C34_2 1_555 1_555
H24_2 C36_2 1_555 1_555
C38_2 C35_2 1_555 1_555
C52_2 O36 1_555 1_555
H32_2 C52_2 1_555 1_555
Co7_2 O16_2 1_555 1_555
Co8_2 O3_2 1_555 1_555
Co9_2 O17_2 1_555 1_555
Co9 O4_2 1_555 1_555
O32_2 Co13_2 1_555 1_555
C9_2 C10_2 1_555 1_555
C35_2 C36_2 1_555 1_555
Co7 O2_3 1_555 1_555
Co10 O1_3 1_555 1_555
Co11_2 O11_3 1_555 1_555
Co14 O11_3 1_555 1_555
O1_3 C11_3 1_555 1_555
O2_3 C11_3 1_555 1_555
O27 C12_3 1_555 1_555
O29 C12_3 1_555 1_555
O31_2 C23_3 1_555 1_555
O33_2 C23_3 1_555 1_555
O11_3 C26_3 1_555 1_555
O12_3 C26_3 1_555 1_555
O13_3 Co11_2 1_555 1_555
H1_3 O13_3 1_555 1_555
H2_3 O13_3 1_555 1_555
N1_3 Co11_2 1_555 1_555
N2_3 Co11_2 1_555 1_555
N3_3 Co7 1_555 1_555
N4_3 Co7 1_555 1_555
C1_3 N1_3 1_555 1_555
H3_3 C1_3 1_555 1_555
C2_3 C1_3 1_555 1_555
C3_3 C2_3 1_555 1_555
H4_3 C3_3 1_555 1_555
C4_3 C3_3 1_555 1_555
H5_3 C4_3 1_555 1_555
C5_3 N1_3 1_555 1_555
C6_3 N2_3 1_555 1_555
C7_3 C6_3 1_555 1_555
H6_3 C7_3 1_555 1_555
C8_3 C7_3 1_555 1_555
H7_3 C8_3 1_555 1_555
C9_3 C8_3 1_555 1_555
C10_3 N2_3 1_555 1_555
H8_3 C10_3 1_555 1_555
C11_3 C2_3 1_555 1_555
C12_3 C9_3 1_555 1_555
C13_3 N3_3 1_555 1_555
H9_3 C13_3 1_555 1_555
C14_3 C13_3 1_555 1_555
C15_3 C14_3 1_555 1_555
H10_3 C15_3 1_555 1_555
C16_3 C15_3 1_555 1_555
H11_3 C16_3 1_555 1_555
C17_3 N3_3 1_555 1_555
C18_3 N4_3 1_555 1_555
C19_3 C18_3 1_555 1_555
H12_3 C19_3 1_555 1_555
C23_3 C14_3 1_555 1_555
C26_3 H16_3 1_555 1_555
O20_3 Co11_2 1_555 1_555
O21_3 Co14 1_555 1_555
O22_3 Co10 1_555 1_555
H30_3 C48_3 1_555 1_555
C50_3 O20_3 1_555 1_555
C51_3 O22_3 1_555 1_555
H31_3 C51_3 1_555 1_555
C4_3 C5_3 1_555 1_555
C5_3 C6_3 1_555 1_555
C9_3 C10_3 1_555 1_555
C16_3 C17_3 1_555 1_555
C17_3 C18_3 1_555 1_555
O21_3 C50_3 1_555 1_555
O23_3 C51_3 1_555 1_555
C47_3 C48_3 1_555 1_555
C47_3 C50_3 1_555 1_555
H29_3 C46_3 1_555 1_555
O35_2 Co14_2 1_555 1_555
O36_2 Co14_2 1_555 1_555
O7_3 C24_3 1_555 1_555
O8_2 C24_3 1_555 1_555
H13_3 C20_3 1_555 1_555
C21_3 C20_3 1_555 1_555
H14_3 C22_3 1_555 1_555
C24_3 C21_3 1_555 1_555
C25_3 O9_3 1_555 1_555
H15_3 C25_3 1_555 1_555
Co8 O15_3 1_555 1_555
Co12_2 O7_3 1_555 1_555
O14_3 Co10_2 1_555 1_555
O15_3 C37_3 1_555 1_555
O28 C38_3 1_555 1_555
O30 C38_3 1_555 1_555
O24_2 Co12_2 1_555 1_555
O25_3 C52_3 1_555 1_555
O26_3 Co12_2 1_555 1_555
H17_3 O26_3 1_555 1_555
H18_3 O26_3 1_555 1_555
N5_3 Co12_2 1_555 1_555
N6_3 Co12_2 1_555 1_555
N7_3 Co8 1_555 1_555
N8_3 Co8 1_555 1_555
C27_3 N5_3 1_555 1_555
H19_3 C27_3 1_555 1_555
C28_3 C27_3 1_555 1_555
C29_3 C28_3 1_555 1_555
H20_3 C29_3 1_555 1_555
C30_3 C29_3 1_555 1_555
H21_3 C30_3 1_555 1_555
C31_3 N5_3 1_555 1_555
C32_3 N6_3 1_555 1_555
C33_3 C32_3 1_555 1_555
H22_3 C33_3 1_555 1_555
C34_3 C33_3 1_555 1_555
H23_3 C34_3 1_555 1_555
C35_3 C34_3 1_555 1_555
C36_3 N6_3 1_555 1_555
H24_3 C36_3 1_555 1_555
C37_3 O14_3 1_555 1_555
C38_3 C35_3 1_555 1_555
C39_3 N7_3 1_555 1_555
H25_3 C39_3 1_555 1_555
C44_3 N8_3 1_555 1_555
C52_3 O24_2 1_555 1_555
H32_3 C52_3 1_555 1_555
Co15 O8_2 1_555 1_555
Co10_2 O9_3 1_555 1_555
O10_3 C25_3 1_555 1_555
C21_3 C22_3 1_555 1_555
O24_2 Co15 1_555 1_555
C28_3 C37_3 1_555 1_555
C30_3 C31_3 1_555 1_555
C31_3 C32_3 1_555 1_555
C35_3 C36_3 1_555 1_555
O32 C49_3 1_555 1_555
O34_2 C49_3 1_555 1_555
C41_3 C40_3 1_555 1_555
H26_3 C41_3 1_555 1_555
C42_3 C41_3 1_555 1_555
H27_3 C42_3 1_555 1_555
H28_3 C45_3 1_555 1_555
C49_3 C40_3 1_555 1_555
C42_3 C43_3 1_555 1_555
H13_4 C20_4 1_555 1_555
O7_4 C24_4 1_555 1_555
O35_2 C24_4 1_555 1_555
H14_4 C22_4 1_555 1_555
C24_4 C21_4 1_555 1_555
C25_4 O9_4 1_555 1_555
H15_4 C25_4 1_555 1_555
Co8_2 O15_4 1_555 1_555
Co12 O7_4 1_555 1_555
O14_4 Co9 1_555 1_555
O15_4 C37_4 1_555 1_555
O28_2 C38_4 1_555 1_555
O30_2 C38_4 1_555 1_555
O32_2 C49_4 1_555 1_555
O34 C49_4 1_555 1_555
O36_2 Co12 1_555 1_555
O25_4 C52_4 1_555 1_555
O26_4 Co12 1_555 1_555
H17_4 O26_4 1_555 1_555
H18_4 O26_4 1_555 1_555
N5_4 Co12 1_555 1_555
N6_4 Co12 1_555 1_555
N7_4 Co8_2 1_555 1_555
N8_4 Co8_2 1_555 1_555
C27_4 N5_4 1_555 1_555
H19_4 C27_4 1_555 1_555
C28_4 C27_4 1_555 1_555
C29_4 C28_4 1_555 1_555
H20_4 C29_4 1_555 1_555
C30_4 C29_4 1_555 1_555
H21_4 C30_4 1_555 1_555
C31_4 N5_4 1_555 1_555
C32_4 N6_4 1_555 1_555
C33_4 C32_4 1_555 1_555
H22_4 C33_4 1_555 1_555
C34_4 C33_4 1_555 1_555
H23_4 C34_4 1_555 1_555
C35_4 C34_4 1_555 1_555
C36_4 N6_4 1_555 1_555
H24_4 C36_4 1_555 1_555
C37_4 O14_4 1_555 1_555
C38_4 C35_4 1_555 1_555
C39_4 N7_4 1_555 1_555
H25_4 C39_4 1_555 1_555
C40_4 C39_4 1_555 1_555
C41_4 C40_4 1_555 1_555
H26_4 C41_4 1_555 1_555
C42_4 C41_4 1_555 1_555
H27_4 C42_4 1_555 1_555
C43_4 N7_4 1_555 1_555
C44_4 N8_4 1_555 1_555
C45_4 C44_4 1_555 1_555
H28_4 C45_4 1_555 1_555
C49_4 C40_4 1_555 1_555
C52_4 O36_2 1_555 1_555
H32_4 C52_4 1_555 1_555
Co9 O9_4 1_555 1_555
O10_4 C25_4 1_555 1_555
C21_4 C22_4 1_555 1_555
C28_4 C37_4 1_555 1_555
C30_4 C31_4 1_555 1_555
C31_4 C32_4 1_555 1_555
C35_4 C36_4 1_555 1_555
C42_4 C43_4 1_555 1_555
C43_4 C44_4 1_555 1_555
O31 C23_4 1_555 1_555
O33 C23_4 1_555 1_555
C15_4 C14_4 1_555 1_555
H10_4 C15_4 1_555 1_555
C16_4 C15_4 1_555 1_555
H11_4 C16_4 1_555 1_555
H12_4 C19_4 1_555 1_555
C23_4 C14_4 1_555 1_555
C16_4 C17_4 1_555 1_555
Co7_2 O2_4 1_555 1_555
Co9_2 O1_4 1_555 1_555
Co11 O11_4 1_555 1_555
Co15 O11_4 1_555 1_555
O1_4 C11_4 1_555 1_555
O2_4 C11_4 1_555 1_555
O27_2 C12_4 1_555 1_555
O29_2 C12_4 1_555 1_555
O11_4 C26_4 1_555 1_555
O12_4 C26_4 1_555 1_555
O13_4 Co11 1_555 1_555
H1_4 O13_4 1_555 1_555
H2_4 O13_4 1_555 1_555
N1_4 Co11 1_555 1_555
N2_4 Co11 1_555 1_555
N3_4 Co7_2 1_555 1_555
N4_4 Co7_2 1_555 1_555
C1_4 N1_4 1_555 1_555
H3_4 C1_4 1_555 1_555
C2_4 C1_4 1_555 1_555
C3_4 C2_4 1_555 1_555
H4_4 C3_4 1_555 1_555
C4_4 C3_4 1_555 1_555
H5_4 C4_4 1_555 1_555
C5_4 N1_4 1_555 1_555
C6_4 N2_4 1_555 1_555
C7_4 C6_4 1_555 1_555
H6_4 C7_4 1_555 1_555
C8_4 C7_4 1_555 1_555
H7_4 C8_4 1_555 1_555
C9_4 C8_4 1_555 1_555
C10_4 N2_4 1_555 1_555
H8_4 C10_4 1_555 1_555
C11_4 C2_4 1_555 1_555
C12_4 C9_4 1_555 1_555
C13_4 N3_4 1_555 1_555
H9_4 C13_4 1_555 1_555
C18_4 N4_4 1_555 1_555
C26_4 H16_4 1_555 1_555
O20_4 Co11 1_555 1_555
O21_4 Co15 1_555 1_555
O22_4 Co9_2 1_555 1_555
H29_4 C46_4 1_555 1_555
C47_4 C46_4 1_555 1_555
H30_4 C48_4 1_555 1_555
C50_4 O20_4 1_555 1_555
C51_4 O22_4 1_555 1_555
H31_4 C51_4 1_555 1_555
C4_4 C5_4 1_555 1_555
C5_4 C6_4 1_555 1_555
C9_4 C10_4 1_555 1_555
O21_4 C50_4 1_555 1_555
O23_4 C51_4 1_555 1_555
C47_4 C48_4 1_555 1_555
C47_4 C50_4 1_555 1_555

#END
