
###############################################################################
#
# This file contains modified crystal structure data generated from the
# MOF subset of the Cambridge Structural Database (CSD) v543 
# hosted by the Cambridge Crystallographic Data Centre (CCDC).
#
# This work is licensed under the Creative Commons
# Attribution-NonCommercial-ShareAlike 4.0 International License.
# To view a copy of this license, visit
# http://creativecommons.org/licenses/by-nc-sa/4.0/
# or send a letter to
# Creative Commons, PO Box 1866, Mountain View, CA 94042, USA.
#
# CIF created using the CSD Python API on 29 September 2022
# The structure has been converted into the P1 space group
# The structure has a 3D framework
# The original CSD entry XOLYEE is in the triclinic crystal system
# The framework has been calculated to contain at least 10.0% void space
# The void calculation uses a probe of radius 1.32A, grid spacing 0.4
#
###############################################################################

data_XOLYEE
_chemical_formula_moiety         '(C28 H16 Cu3 N4 O17)n'
_symmetry_cell_setting           triclinic
_symmetry_space_group_name_H-M   'P 1'
_symmetry_Int_Tables_number      1
_space_group_name_Hall           'P 1'
loop_
_symmetry_equiv_pos_site_id
_symmetry_equiv_pos_as_xyz
1 x,y,z
_cell_length_a                   6.855(3)
_cell_length_b                   10.691(5)
_cell_length_c                   11.195(5)
_cell_angle_alpha                86.992(5)
_cell_angle_beta                 88.439(6)
_cell_angle_gamma                88.351(6)
_cell_volume                     818.704
loop_
_atom_site_label
_atom_site_type_symbol
_atom_site_fract_x
_atom_site_fract_y
_atom_site_fract_z
O6 O 0.4674(8) 0.5791(5) 0.1885(7)
O7 O 0.4580(9) 0.3798(5) 0.1991(7)
N2 N 0.3834(8) 0.4829(5) 0.2141(6)
C3 C 0.0883(9) 0.3803(5) 0.2953(6)
H2 H 0.1430 0.3037 0.2742
C10 C 0.1855(9) 0.4907(5) 0.2701(6)
C12 C 0.1080(9) 0.6073(5) 0.2965(5)
H7 H 0.1767 0.6797 0.2775
O12 O 0.1661(7) 0.0345(4) 0.3126(4)
C2 C 0.2033(9) 0.0883(6) 0.0564(5)
H1 H 0.1714 0.1597 0.0976
Cu4 Cu 0.19610(10) 0.99407(6) 0.69016(6)
Cu3 Cu 0.80390(10) 0.00593(6) 0.30984(6)
O1 O 0.6845(6) 0.2681(4) 0.4687(4)
O2 O 0.8169(6) 0.1874(4) 0.3024(4)
N1 N 0.7739(7) 0.0107(4) 0.1298(4)
C1 C 0.7947(8) 0.2706(5) 0.3777(5)
C5 C 0.9079(8) 0.3872(5) 0.3526(5)
C6 C 0.8282(9) 0.5030(5) 0.3824(5)
H3 H 0.7082 0.5069 0.4231
C9 C 0.7074(9) 0.1154(6) 0.0714(5)
H5 H 0.6771 0.1855 0.1149
C13 C 0.8250(8) 0.7365(5) 0.3752(5)
O8 O 0.8883(6) 0.8301(3) 0.3168(4)
O9 O 0.6864(6) 0.7335(4) 0.4513(4)
C14 C 0.9257(9) 0.6129(5) 0.3519(5)
H8 H 0.7493 0.0012 0.5346
Cu5 Cu 0.49180(10) 0.86460(6) 0.48045(6)
Cu7 Cu 0.50820(10) 0.13540(6) 0.51955(6)
O11 O 0.3118(5) 0.0018(3) 0.5297(3)
O5 O 0.5755(7) 0.0971(5) 0.7082(4)
C4 C 0.7319(9) 0.0205(6) 0.8822(5)
C7 C 0.6822(9) 0.1232(6) 0.9498(5)
H4 H 0.6323 0.1967 0.9127
C8 C 0.7113(9) 0.0281(6) 0.7475(5)
O3 O 0.6882(5) 0.9982(3) 0.4703(3)
C11 C 0.8134(9) 0.9103(5) 0.0654(5)
H6 H 0.8542 0.8361 0.1054
O10 O 0.3155(6) 0.7319(4) 0.5313(4)
O13 O 0.4245(7) 0.9029(5) 0.2918(4)
C11_2 C 0.1866(9) 0.0897(5) 0.9346(5)
H6_2 H 0.1458 0.1639 0.8946
O14 O 0.1117(6) 0.1699(3) 0.6832(4)
O15 O 0.3136(6) 0.2665(4) 0.5487(4)
C4_2 C 0.2681(9) 0.9795(6) 0.1178(5)
C7_2 C 0.3178(9) 0.8768(6) 0.0502(5)
H4_2 H 0.3677 0.8033 0.0873
C8_2 C 0.2887(9) 0.9719(6) 0.2525(5)
O2_2 O 0.1831(6) 0.8126(4) 0.6976(4)
N1_2 N 0.2261(7) 0.9893(4) 0.8702(4)
C1_2 C 0.2053(8) 0.7294(5) 0.6223(5)
C5_2 C 0.0921(8) 0.6128(5) 0.6474(5)
C6_2 C 0.1718(9) 0.4970(5) 0.6176(5)
H3_2 H 0.2918 0.4931 0.5769
C9_2 C 0.2926(9) 0.8846(6) 0.9286(5)
H5_2 H 0.3229 0.8145 0.8851
C13_2 C 0.1750(8) 0.2635(5) 0.6248(5)
C14_2 C 0.0743(9) 0.3871(5) 0.6481(5)
H8_2 H 0.2507 0.9988 0.4654
O4 O 0.8339(7) 0.9655(4) 0.6874(4)
C2_2 C 0.7967(9) 0.9117(6) 0.9436(5)
H1_2 H 0.8286 0.8403 0.9024
O6_2 O 0.5326(8) 0.4209(5) 0.8115(7)
O7_2 O 0.5420(9) 0.6202(5) 0.8009(7)
N2_2 N 0.6166(8) 0.5171(5) 0.7859(6)
C3_2 C 0.9117(9) 0.6197(5) 0.7047(6)
H2_2 H 0.8570 0.6963 0.7258
C10_2 C 0.8145(9) 0.5093(5) 0.7299(6)
C12_2 C 0.8920(9) 0.3927(5) 0.7035(5)
H7_2 H 0.8233 0.3203 0.7225
loop_
_geom_bond_atom_site_label_1
_geom_bond_atom_site_label_2
_geom_bond_site_symmetry_1
_geom_bond_site_symmetry_2
O6 N2 1_555 1_555
O7 N2 1_555 1_555
N2 C10 1_555 1_555
C3 H2 1_555 1_555
C10 C3 1_555 1_555
C12 C10 1_555 1_555
H7 C12 1_555 1_555
C2 H1 1_555 1_555
Cu3 O2 1_555 1_555
O1 C1 1_555 1_555
O2 C1 1_555 1_555
N1 Cu3 1_555 1_555
C1 C5 1_555 1_555
C6 C5 1_555 1_555
H3 C6 1_555 1_555
C9 N1 1_555 1_555
H5 C9 1_555 1_555
C13 O8 1_555 1_555
O9 C13 1_555 1_555
C14 C6 1_555 1_555
Cu5 O9 1_555 1_555
Cu7 O1 1_555 1_555
C13 C14 1_555 1_555
Cu7 O11 1_555 1_555
O5 C8 1_555 1_555
C7 C4 1_555 1_555
H4 C7 1_555 1_555
C8 C4 1_555 1_555
Cu7 O5 1_555 1_555
Cu5 O3 1_555 1_555
H6 C11 1_555 1_555
O10 Cu5 1_555 1_555
O13 Cu5 1_555 1_555
H6_2 C11_2 1_555 1_555
O15 Cu7 1_555 1_555
O13 C8_2 1_555 1_555
C7_2 C4_2 1_555 1_555
H4_2 C7_2 1_555 1_555
C8_2 C4_2 1_555 1_555
Cu4 O2_2 1_555 1_555
O10 C1_2 1_555 1_555
O2_2 C1_2 1_555 1_555
N1_2 Cu4 1_555 1_555
C1_2 C5_2 1_555 1_555
C6_2 C5_2 1_555 1_555
H3_2 C6_2 1_555 1_555
C9_2 N1_2 1_555 1_555
H5_2 C9_2 1_555 1_555
C13_2 O14 1_555 1_555
O15 C13_2 1_555 1_555
C14_2 C6_2 1_555 1_555
C13_2 C14_2 1_555 1_555
C2_2 H1_2 1_555 1_555
O6_2 N2_2 1_555 1_555
O7_2 N2_2 1_555 1_555
N2_2 C10_2 1_555 1_555
C3_2 H2_2 1_555 1_555
C10_2 C3_2 1_555 1_555
C12_2 C10_2 1_555 1_555
H7_2 C12_2 1_555 1_555

#END
