
###############################################################################
#
# This file contains modified crystal structure data generated from the
# MOF subset of the Cambridge Structural Database (CSD) v543 
# hosted by the Cambridge Crystallographic Data Centre (CCDC).
#
# This work is licensed under the Creative Commons
# Attribution-NonCommercial-ShareAlike 4.0 International License.
# To view a copy of this license, visit
# http://creativecommons.org/licenses/by-nc-sa/4.0/
# or send a letter to
# Creative Commons, PO Box 1866, Mountain View, CA 94042, USA.
#
# CIF created using the CSD Python API on 29 September 2022
# The structure has been converted into the P1 space group
# The structure has a 3D framework
# The original CSD entry XOMCOT is in the monoclinic crystal system
# The framework has been calculated to contain at least 10.0% void space
# The void calculation uses a probe of radius 1.32A, grid spacing 0.4
#
###############################################################################

data_XOMCOT
_chemical_formula_moiety         '(C248 H168 Co8 N40 O28)n'
_symmetry_cell_setting           triclinic
_symmetry_space_group_name_H-M   'P 1'
_symmetry_Int_Tables_number      1
_space_group_name_Hall           'P 1'
loop_
_symmetry_equiv_pos_site_id
_symmetry_equiv_pos_as_xyz
1 x,y,z
_cell_length_a                   20.365(3)
_cell_length_b                   20.119(3)
_cell_length_c                   17.311(3)
_cell_angle_alpha                90
_cell_angle_beta                 103.166(3)
_cell_angle_gamma                90
_cell_volume                     6906.28
loop_
_atom_site_label
_atom_site_type_symbol
_atom_site_fract_x
_atom_site_fract_y
_atom_site_fract_z
C16 C 0.31195(18) 0.11464(17) 0.0753(2)
H12 H 0.2706 0.1047 0.0868
C17 C 0.4157(2) 0.1380(2) 0.0879(2)
H13 H 0.4609 0.1468 0.1103
C18 C 0.3873(2) 0.1395(2) 0.0094(2)
N3 N 0.32061(15) 0.12323(16) 0.00150(17)
N4 N 0.36857(14) 0.12187(13) 0.12983(16)
Co6 Co 0.38409(2) 0.12816(2) 0.25581(3)
Co1 Co 0.87510(2) 0.13550(2) 0.26328(3)
C1 C 0.8778(2) 0.2088(3) 0.4233(3)
H1 H 0.8402 0.2339 0.4000
C2 C 0.9134(2) 0.2158(3) 0.4997(3)
H2 H 0.9051 0.2456 0.5375
C3 C 0.95709(18) 0.13844(17) 0.4384(2)
H3 H 0.9860 0.1055 0.4283
C19 C 0.7954(2) 0.1363(2) 0.0860(2)
H15 H 0.7593 0.1576 0.1000
C20 C 0.8886(2) 0.0925(3) 0.0941(3)
H16 H 0.9324 0.0775 0.1138
C21 C 0.8556(3) 0.0886(4) 0.0183(3)
N1 N 0.90468(15) 0.16027(16) 0.38584(18)
N2 N 0.96409(15) 0.16933(16) 0.50887(18)
N5 N 0.85064(15) 0.12067(14) 0.13710(17)
N6 N 0.79545(16) 0.11891(15) 0.01198(18)
N13 N 0.86852(13) 0.24264(13) 0.23927(16)
O9 O 0.76035(14) 0.14635(13) 0.26423(19)
O10 O 0.81366(13) 0.05274(13) 0.28271(18)
O11 O 0.95551(12) 0.06829(13) 0.27658(16)
H17 H 0.8712 0.0687 0.9773
C22 C 0.74334(19) 0.12468(19) 0.9413(2)
C23 C 0.7189(2) 0.1856(2) 0.9119(2)
H18 H 0.7353 0.2242 0.9391
C24 C 0.6701(2) 0.1895(2) 0.8426(2)
H19 H 0.6533 0.2308 0.8238
C25 C 0.64547(19) 0.13238(17) 0.7997(2)
C26 C 0.6697(2) 0.0723(2) 0.8310(2)
H20 H 0.6524 0.0334 0.8052
C27 C 0.7194(2) 0.0683(2) 0.9004(3)
H21 H 0.7365 0.0271 0.9192
C28 C 0.59417(19) 0.13577(17) 0.7232(2)
C29 C 0.5496(2) 0.1893(2) 0.7046(2)
H22 H 0.5529 0.2243 0.7403
C30 C 0.5013(2) 0.1916(2) 0.6353(2)
H23 H 0.4718 0.2275 0.6245
C31 C 0.49654(19) 0.14002(19) 0.5813(2)
C32 C 0.5390(2) 0.0861(2) 0.5980(2)
H24 H 0.5350 0.0510 0.5623
C33 C 0.5877(2) 0.0849(2) 0.6684(2)
H25 H 0.6169 0.0487 0.6791
C34 C 0.3798(2) 0.1624(2) 0.4985(2)
H26 H 0.3586 0.1768 0.5377
C35 C 0.3520(2) 0.1572(2) 0.4209(2)
H27 H 0.3073 0.1672 0.3974
C36 C 0.45403(19) 0.12641(18) 0.4363(2)
H28 H 0.4944 0.1110 0.4264
C37 C 0.5115(2) 0.0903(2) 0.2691(2)
C38 C 0.57589(16) 0.05225(16) 0.2713(2)
C39 C 0.63692(17) 0.08530(16) 0.2755(2)
H29 H 0.6381 0.1315 0.2778
C40 C 0.76082(18) 0.08519(18) 0.2750(2)
C41 C 0.69607(16) 0.05014(16) 0.2764(2)
C50 C 0.24679(19) 0.10047(19) 0.2470(2)
C51 C 0.18746(16) 0.06167(15) 0.26099(19)
C55 C 0.07191(15) 0.06083(15) 0.27327(18)
C56 C 0.00725(19) 0.09921(19) 0.2709(2)
C57 C 0.12903(16) 0.09486(15) 0.26506(19)
H38 H 0.1280 0.1410 0.2622
N7 N 0.44593(16) 0.14246(16) 0.50890(17)
N8 N 0.39876(15) 0.13482(14) 0.38084(17)
O1 O 0.45835(13) 0.05763(15) 0.26419(16)
O2 O 0.51187(17) 0.15124(15) 0.2719(2)
O5 O 0.30232(13) 0.06987(13) 0.25637(16)
O6 O 0.23860(16) 0.15885(14) 0.2266(2)
O8 O 0.00797(17) 0.15959(14) 0.2623(2)
N12 N 0.37771(12) 0.23418(13) 0.24732(15)
C42 C 0.69309(15) 0.98113(15) 0.2730(2)
H30 H 0.7323 0.9571 0.2744
C43 C 0.63289(15) 0.94738(15) 0.26769(19)
C44 C 0.57473(16) 0.98357(16) 0.2667(2)
H31 H 0.5341 0.9612 0.2629
C45 C 0.63011(15) 0.87351(15) 0.2623(2)
C46 C 0.67573(16) 0.83327(15) 0.3133(2)
H32 H 0.7099 0.8522 0.3519
C47 C 0.67026(16) 0.76557(16) 0.3067(2)
H33 H 0.7015 0.7398 0.3415
C48 C 0.57842(17) 0.77306(16) 0.2026(2)
H34 H 0.5453 0.7529 0.1637
C49 C 0.58041(17) 0.84112(16) 0.2066(2)
H35 H 0.5481 0.8659 0.1717
C52 C 0.18859(16) 0.99226(15) 0.26648(19)
H36 H 0.2280 0.9696 0.2647
C53 C 0.13228(15) 0.95650(15) 0.27449(19)
C54 C 0.07402(15) 0.99180(15) 0.27886(19)
H37 H 0.0361 0.9688 0.2856
C58 C 0.13295(16) 0.88287(16) 0.2740(2)
C59 C 0.1898(2) 0.84608(19) 0.2768(3)
H39 H 0.2310 0.8677 0.2824
C60 C 0.1877(2) 0.77836(19) 0.2716(4)
H40 H 0.2282 0.7558 0.2759
C61 C 0.07738(19) 0.77812(17) 0.2614(3)
H41 H 0.0370 0.7553 0.2572
C62 C 0.07568(18) 0.84631(17) 0.2679(3)
H42 H 0.0352 0.8675 0.2681
N9 N 0.62229(12) 0.73418(13) 0.25268(15)
N10 N 0.13148(13) 0.74264(13) 0.26073(16)
Co5 Co 0.12490(2) 0.63550(2) 0.23672(3)
Co7 Co 0.61591(2) 0.62816(2) 0.24419(3)
O7 O 0.04449(12) 0.56829(13) 0.22342(16)
C34_2 C 0.6202(2) 0.6624(2) 0.0015(2)
C35_2 C 0.6480(2) 0.6572(2) 0.0791(2)
H27_2 H 0.6927 0.6672 0.1026
C36_2 C 0.54597(19) 0.62641(18) 0.0637(2)
H28_2 H 0.5056 0.6110 0.0736
C37_2 C 0.4885(2) 0.5903(2) 0.2309(2)
C38_2 C 0.42411(16) 0.55225(16) 0.2287(2)
C39_2 C 0.36308(17) 0.58530(16) 0.2245(2)
H29_2 H 0.3619 0.6315 0.2222
C40_2 C 0.23918(18) 0.58519(18) 0.2250(2)
C41_2 C 0.30393(16) 0.55014(16) 0.2236(2)
C42_2 C 0.30691(15) 0.48113(15) 0.2270(2)
H30_2 H 0.2677 0.4571 0.2256
C43_2 C 0.36711(15) 0.44738(15) 0.23231(19)
C44_2 C 0.42527(16) 0.48357(16) 0.2333(2)
H31_2 H 0.4659 0.4612 0.2371
C45_2 C 0.36989(15) 0.37351(15) 0.2377(2)
C46_2 C 0.32427(16) 0.33327(15) 0.1867(2)
H32_2 H 0.2901 0.3522 0.1481
C47_2 C 0.32974(16) 0.26557(16) 0.1933(2)
H33_2 H 0.2985 0.2398 0.1585
C48_2 C 0.42158(17) 0.27306(16) 0.2974(2)
H34_2 H 0.4547 0.2529 0.3363
C49_2 C 0.41959(17) 0.34112(16) 0.2934(2)
H35_2 H 0.4519 0.3659 0.3283
C50_2 C 0.75321(19) 0.60047(19) 0.2530(2)
C51_2 C 0.81254(16) 0.56167(15) 0.23901(19)
C52_2 C 0.81141(16) 0.49226(15) 0.23352(19)
H36_2 H 0.7720 0.4696 0.2353
C53_2 C 0.86772(15) 0.45650(15) 0.22551(19)
C54_2 C 0.92598(15) 0.49180(15) 0.22114(19)
H37_2 H 0.9639 0.4688 0.2144
C55_2 C 0.92809(15) 0.56083(15) 0.22673(18)
C56_2 C 0.99275(19) 0.59921(19) 0.2291(2)
C57_2 C 0.87097(16) 0.59486(15) 0.23494(19)
H38_2 H 0.8720 0.6410 0.2378
C58_2 C 0.86705(16) 0.38287(16) 0.2260(2)
C59_2 C 0.8102(2) 0.34608(19) 0.2232(3)
H39_2 H 0.7690 0.3677 0.2176
C60_2 C 0.8123(2) 0.27836(19) 0.2284(4)
H40_2 H 0.7718 0.2558 0.2241
C61_2 C 0.92262(19) 0.27812(17) 0.2386(3)
H41_2 H 0.9630 0.2553 0.2428
C62_2 C 0.92432(18) 0.34631(17) 0.2321(3)
H42_2 H 0.9648 0.3675 0.2319
N8_2 N 0.60124(15) 0.63482(14) 0.11916(17)
O1_2 O 0.54165(13) 0.55763(15) 0.23581(16)
O2_2 O 0.48813(17) 0.65124(15) 0.2281(2)
O3 O 0.23965(14) 0.64635(13) 0.23577(19)
O4 O 0.18634(13) 0.55274(13) 0.21729(18)
O5_2 O 0.69768(13) 0.56987(13) 0.24363(16)
O6_2 O 0.76140(16) 0.65885(14) 0.2734(2)
O8_2 O 0.99203(17) 0.65959(14) 0.2377(2)
N11 N 0.63143(14) 0.62187(13) 0.37017(16)
C1_2 C 0.1222(2) 0.7088(3) 0.0767(3)
H1_2 H 0.1598 0.7339 0.1000
C2_2 C 0.0866(2) 0.7158(3) 0.0003(3)
C3_2 C 0.04291(18) 0.63844(17) 0.0616(2)
H3_2 H 0.0140 0.6055 0.0717
C19_2 C 0.2046(2) 0.6363(2) 0.4140(2)
H15_2 H 0.2407 0.6576 0.4000
C20_2 C 0.1114(2) 0.5925(3) 0.4059(3)
H16_2 H 0.0676 0.5775 0.3862
C21_2 C 0.1444(3) 0.5886(4) 0.4817(3)
H17_2 H 0.1288 0.5687 0.5227
C22_2 C 0.25666(19) 0.62468(19) 0.5587(2)
C23_2 C 0.2811(2) 0.6856(2) 0.5881(2)
H18_2 H 0.2647 0.7242 0.5609
C24_2 C 0.3299(2) 0.6895(2) 0.6574(2)
H19_2 H 0.3467 0.7308 0.6762
C25_2 C 0.35453(19) 0.63238(17) 0.7003(2)
C26_2 C 0.3303(2) 0.5723(2) 0.6690(2)
H20_2 H 0.3476 0.5334 0.6948
C27_2 C 0.2806(2) 0.5683(2) 0.5996(3)
H21_2 H 0.2635 0.5271 0.5808
C28_2 C 0.40583(19) 0.63577(17) 0.7768(2)
C29_2 C 0.4504(2) 0.6893(2) 0.7954(2)
H22_2 H 0.4471 0.7243 0.7597
C30_2 C 0.4987(2) 0.6916(2) 0.8647(2)
H23_2 H 0.5282 0.7275 0.8755
C31_2 C 0.50346(19) 0.64002(19) 0.9187(2)
C32_2 C 0.4610(2) 0.5861(2) 0.9020(2)
H24_2 H 0.4650 0.5510 0.9377
C33_2 C 0.4123(2) 0.5849(2) 0.8316(2)
H25_2 H 0.3831 0.5487 0.8209
H26_2 H 0.6414 0.6768 0.9623
N1_2 N 0.09532(15) 0.66027(16) 0.11416(18)
N5_2 N 0.14936(15) 0.62067(14) 0.36290(17)
N6_2 N 0.20455(16) 0.61891(15) 0.48802(18)
N7_2 N 0.55407(16) 0.64246(16) 0.99110(17)
C4 C 0.98354(18) 0.65968(19) 0.9216(2)
C5 C 0.95982(18) 0.71439(17) 0.8740(2)
H4 H 0.9771 0.7566 0.8881
C6 C 0.91073(19) 0.70518(17) 0.8063(2)
H5 H 0.8952 0.7417 0.7745
C7 C 0.88334(17) 0.64298(16) 0.7835(2)
C8 C 0.90804(18) 0.58893(18) 0.8326(2)
H6 H 0.8904 0.5467 0.8195
C9 C 0.95810(18) 0.59777(18) 0.8998(2)
H7 H 0.9750 0.5612 0.9309
C10 C 0.82984(17) 0.63557(16) 0.7096(2)
C11 C 0.78248(18) 0.68600(18) 0.6868(2)
H8 H 0.7842 0.7235 0.7186
C12 C 0.73340(19) 0.68114(19) 0.6181(2)
H9 H 0.7020 0.7151 0.6039
C13 C 0.73049(18) 0.62610(19) 0.5699(2)
C14 C 0.7762(2) 0.57521(19) 0.5924(2)
H10 H 0.7738 0.5375 0.5608
C15 C 0.82566(19) 0.58000(18) 0.6617(2)
H11 H 0.8564 0.5455 0.6762
C16_2 C 0.68805(18) 0.61464(17) 0.4247(2)
H12_2 H 0.7294 0.6047 0.4132
C17_2 C 0.5843(2) 0.6380(2) 0.4121(2)
H13_2 H 0.5391 0.6468 0.3897
C18_2 C 0.6127(2) 0.6395(2) 0.4906(2)
H14 H 0.5913 0.6496 0.5312
N3_2 N 0.67939(15) 0.62323(16) 0.49850(17)
C4_2 C 0.01646(18) 0.15968(19) 0.5784(2)
C5_2 C 0.04018(18) 0.21439(17) 0.6260(2)
H4_2 H 0.0229 0.2566 0.6119
C6_2 C 0.08927(19) 0.20518(17) 0.6937(2)
H5_2 H 0.1048 0.2417 0.7255
C7_2 C 0.11666(17) 0.14298(16) 0.7165(2)
C8_2 C 0.09196(18) 0.08893(18) 0.6674(2)
H6_2 H 0.1096 0.0467 0.6805
C9_2 C 0.04190(18) 0.09777(18) 0.6002(2)
H7_2 H 0.0250 0.0612 0.5691
C10_2 C 0.17016(17) 0.13557(16) 0.7904(2)
C11_2 C 0.21752(18) 0.18600(18) 0.8132(2)
H8_2 H 0.2158 0.2235 0.7814
C12_2 C 0.26660(19) 0.18114(19) 0.8819(2)
H9_2 H 0.2980 0.2151 0.8961
C13_2 C 0.26951(18) 0.12610(19) 0.9301(2)
C14_2 C 0.2238(2) 0.07521(19) 0.9076(2)
H10_2 H 0.2262 0.0375 0.9392
C15_2 C 0.17434(19) 0.08000(18) 0.8383(2)
H11_2 H 0.1436 0.0455 0.8238
H14_2 H 0.4087 0.1496 0.9688
H2_2 H 0.0949 0.7456 0.9625
N2_2 N 0.03591(15) 0.66933(16) 0.99113(18)
O7_2 O 0.04449(12) 0.93171(13) 0.72342(16)
Co3 Co 0.12490(2) 0.86450(2) 0.73672(3)
C42_3 C 0.30691(15) 0.01887(15) 0.7270(2)
H30_3 H 0.2677 0.0429 0.7256
C43_3 C 0.36711(15) 0.05262(15) 0.73231(19)
C44_3 C 0.42527(16) 0.01643(16) 0.7333(2)
H31_3 H 0.4659 0.0388 0.7371
C45_3 C 0.36989(15) 0.12649(15) 0.7377(2)
C46_3 C 0.32427(16) 0.16673(15) 0.6867(2)
H32_3 H 0.2901 0.1478 0.6481
C47_3 C 0.32974(16) 0.23443(16) 0.6933(2)
H33_3 H 0.2985 0.2602 0.6585
C48_3 C 0.42158(17) 0.22694(16) 0.7974(2)
H34_3 H 0.4547 0.2471 0.8363
C49_3 C 0.41959(17) 0.15888(16) 0.7934(2)
H35_3 H 0.4519 0.1341 0.8283
C52_3 C 0.81141(16) 0.00774(15) 0.73352(19)
H36_3 H 0.7720 0.0304 0.7353
C53_3 C 0.86772(15) 0.04350(15) 0.72551(19)
C54_3 C 0.92598(15) 0.00820(15) 0.72114(19)
H37_3 H 0.9639 0.0312 0.7144
C58_3 C 0.86705(16) 0.11713(16) 0.7260(2)
C59_3 C 0.8102(2) 0.15392(19) 0.7232(3)
H39_3 H 0.7690 0.1323 0.7176
C60_3 C 0.8123(2) 0.22164(19) 0.7284(4)
H40_3 H 0.7718 0.2442 0.7241
C61_3 C 0.92262(19) 0.22188(17) 0.7386(3)
H41_3 H 0.9630 0.2447 0.7428
C62_3 C 0.92432(18) 0.15369(17) 0.7321(3)
H42_3 H 0.9648 0.1325 0.7319
N9_2 N 0.37771(12) 0.26582(13) 0.74732(15)
N10_2 N 0.86852(13) 0.25736(13) 0.73927(16)
Co5_2 Co 0.87510(2) 0.36450(2) 0.76328(3)
Co7_2 Co 0.38409(2) 0.37184(2) 0.75581(3)
Co2 Co 0.61591(2) 0.87184(2) 0.74419(3)
H17_3 H 0.1288 0.9313 0.0227
C22_3 C 0.25666(19) 0.87532(19) 0.0587(2)
C23_3 C 0.2811(2) 0.8144(2) 0.0881(2)
H18_3 H 0.2647 0.7758 0.0609
C24_3 C 0.3299(2) 0.8105(2) 0.1574(2)
H19_3 H 0.3467 0.7692 0.1762
C25_3 C 0.35453(19) 0.86762(17) 0.2003(2)
C26_3 C 0.3303(2) 0.9277(2) 0.1690(2)
H20_3 H 0.3476 0.9666 0.1948
C27_3 C 0.2806(2) 0.9317(2) 0.0996(3)
H21_3 H 0.2635 0.9729 0.0808
C28_3 C 0.40583(19) 0.86423(17) 0.2768(2)
C29_3 C 0.4504(2) 0.8107(2) 0.2954(2)
H22_3 H 0.4471 0.7757 0.2597
C30_3 C 0.4987(2) 0.8084(2) 0.3647(2)
H23_3 H 0.5282 0.7725 0.3755
C31_3 C 0.50346(19) 0.85998(19) 0.4187(2)
C32_3 C 0.4610(2) 0.9139(2) 0.4020(2)
H24_3 H 0.4650 0.9490 0.4377
C33_3 C 0.4123(2) 0.9151(2) 0.3316(2)
H25_3 H 0.3831 0.9513 0.3209
C34_3 C 0.6202(2) 0.8376(2) 0.5015(2)
H26_3 H 0.6414 0.8232 0.4623
C35_3 C 0.6480(2) 0.8428(2) 0.5791(2)
H27_3 H 0.6927 0.8328 0.6026
C36_3 C 0.54597(19) 0.87359(18) 0.5637(2)
H28_3 H 0.5056 0.8890 0.5736
C37_3 C 0.4885(2) 0.9097(2) 0.7309(2)
C38_3 C 0.42411(16) 0.94775(16) 0.7287(2)
C39_3 C 0.36308(17) 0.91470(16) 0.7245(2)
H29_3 H 0.3619 0.8685 0.7222
C40_3 C 0.23918(18) 0.91481(18) 0.7250(2)
C41_3 C 0.30393(16) 0.94986(16) 0.7236(2)
C50_3 C 0.75321(19) 0.89953(19) 0.7530(2)
C51_3 C 0.81254(16) 0.93833(15) 0.73901(19)
C55_3 C 0.92809(15) 0.93917(15) 0.72673(18)
C56_3 C 0.99275(19) 0.90079(19) 0.7291(2)
C57_3 C 0.87097(16) 0.90514(15) 0.73494(19)
H38_3 H 0.8720 0.8590 0.7378
N7_3 N 0.55407(16) 0.85754(16) 0.49110(17)
N8_3 N 0.60124(15) 0.86518(14) 0.61916(17)
O1_3 O 0.54165(13) 0.94237(15) 0.73581(16)
O2_3 O 0.48813(17) 0.84876(15) 0.7281(2)
O3_2 O 0.23965(14) 0.85365(13) 0.73577(19)
O4_2 O 0.18634(13) 0.94726(13) 0.71729(18)
O5_3 O 0.69768(13) 0.93013(13) 0.74363(16)
O6_3 O 0.76140(16) 0.84115(14) 0.7734(2)
O8_3 O 0.99203(17) 0.84041(14) 0.7377(2)
N11_2 N 0.63143(14) 0.87813(13) 0.87017(16)
N12_2 N 0.62229(12) 0.76582(13) 0.75268(15)
C1_3 C 0.1222(2) 0.7912(3) 0.5767(3)
H1_3 H 0.1598 0.7661 0.6000
C2_3 C 0.0866(2) 0.7842(3) 0.5003(3)
H2_3 H 0.0949 0.7544 0.4625
C3_3 C 0.04291(18) 0.86156(17) 0.5616(2)
H3_3 H 0.0140 0.8945 0.5717
C19_3 C 0.2046(2) 0.8637(2) 0.9140(2)
H15_3 H 0.2407 0.8424 0.9000
C20_3 C 0.1114(2) 0.9075(3) 0.9059(3)
H16_3 H 0.0676 0.9225 0.8862
C21_3 C 0.1444(3) 0.9114(4) 0.9817(3)
N1_3 N 0.09532(15) 0.83973(16) 0.61416(18)
N2_3 N 0.03591(15) 0.83067(16) 0.49113(18)
N5_3 N 0.14936(15) 0.87933(14) 0.86290(17)
N6_3 N 0.20455(16) 0.88109(15) 0.98802(18)
N13_2 N 0.13148(13) 0.75736(13) 0.76073(16)
C16_3 C 0.68805(18) 0.88536(17) 0.9247(2)
H12_3 H 0.7294 0.8953 0.9132
C17_3 C 0.5843(2) 0.8620(2) 0.9121(2)
H13_3 H 0.5391 0.8532 0.8897
C18_3 C 0.6127(2) 0.8605(2) 0.9906(2)
N3_3 N 0.67939(15) 0.87677(16) 0.99850(17)
C4_3 C 0.01646(18) 0.34032(19) 0.0784(2)
C5_3 C 0.04018(18) 0.28561(17) 0.1260(2)
H4_3 H 0.0229 0.2434 0.1119
C6_3 C 0.08927(19) 0.29482(17) 0.1937(2)
H5_3 H 0.1048 0.2583 0.2255
C7_3 C 0.11666(17) 0.35702(16) 0.2165(2)
C8_3 C 0.09196(18) 0.41107(18) 0.1674(2)
H6_3 H 0.1096 0.4533 0.1805
C9_3 C 0.04190(18) 0.40223(18) 0.1002(2)
H7_3 H 0.0250 0.4388 0.0691
C10_3 C 0.17016(17) 0.36443(16) 0.2904(2)
C11_3 C 0.21752(18) 0.31400(18) 0.3132(2)
H8_3 H 0.2158 0.2765 0.2814
C12_3 C 0.26660(19) 0.31886(19) 0.3819(2)
H9_3 H 0.2980 0.2849 0.3961
C13_3 C 0.26951(18) 0.37390(19) 0.4301(2)
C14_3 C 0.2238(2) 0.42479(19) 0.4076(2)
H10_3 H 0.2262 0.4625 0.4392
C15_3 C 0.17434(19) 0.42000(18) 0.3383(2)
H11_3 H 0.1436 0.4545 0.3238
C16_4 C 0.31195(18) 0.38536(17) 0.5753(2)
H12_4 H 0.2706 0.3953 0.5868
C17_4 C 0.4157(2) 0.3620(2) 0.5879(2)
H13_4 H 0.4609 0.3532 0.6103
C18_4 C 0.3873(2) 0.3605(2) 0.5094(2)
H14_3 H 0.4087 0.3504 0.4688
N3_4 N 0.32061(15) 0.37677(16) 0.50150(17)
N4_2 N 0.36857(14) 0.37813(13) 0.62983(16)
C1_4 C 0.8778(2) 0.2912(3) 0.9233(3)
H1_4 H 0.8402 0.2661 0.9000
C2_4 C 0.9134(2) 0.2842(3) 0.9997(3)
C3_4 C 0.95709(18) 0.36156(17) 0.9384(2)
H3_4 H 0.9860 0.3945 0.9283
C19_4 C 0.7954(2) 0.3637(2) 0.5860(2)
H15_4 H 0.7593 0.3424 0.6000
C20_4 C 0.8886(2) 0.4075(3) 0.5941(3)
H16_4 H 0.9324 0.4225 0.6138
C21_4 C 0.8556(3) 0.4114(4) 0.5183(3)
H17_4 H 0.8712 0.4313 0.4773
C22_4 C 0.74334(19) 0.37532(19) 0.4413(2)
C23_4 C 0.7189(2) 0.3144(2) 0.4119(2)
H18_4 H 0.7353 0.2758 0.4391
C24_4 C 0.6701(2) 0.3105(2) 0.3426(2)
H19_4 H 0.6533 0.2692 0.3238
C25_4 C 0.64547(19) 0.36762(17) 0.2997(2)
C26_4 C 0.6697(2) 0.4277(2) 0.3310(2)
H20_4 H 0.6524 0.4666 0.3052
C27_4 C 0.7194(2) 0.4317(2) 0.4004(3)
H21_4 H 0.7365 0.4729 0.4192
C28_4 C 0.59417(19) 0.36423(17) 0.2232(2)
C29_4 C 0.5496(2) 0.3107(2) 0.2046(2)
H22_4 H 0.5529 0.2757 0.2403
C30_4 C 0.5013(2) 0.3084(2) 0.1353(2)
H23_4 H 0.4718 0.2725 0.1245
C31_4 C 0.49654(19) 0.35998(19) 0.0813(2)
C32_4 C 0.5390(2) 0.4139(2) 0.0980(2)
H24_4 H 0.5350 0.4490 0.0623
C33_4 C 0.5877(2) 0.4151(2) 0.1684(2)
H25_4 H 0.6169 0.4513 0.1791
H26_4 H 0.3586 0.3232 0.0377
N1_4 N 0.90468(15) 0.33973(16) 0.88584(18)
N5_4 N 0.85064(15) 0.37933(14) 0.63710(17)
N6_4 N 0.79545(16) 0.38109(15) 0.51198(18)
N7_4 N 0.44593(16) 0.35754(16) 0.00890(17)
O9_2 O 0.76035(14) 0.35365(13) 0.76423(19)
O10_2 O 0.81366(13) 0.44726(13) 0.78271(18)
O11_2 O 0.95551(12) 0.43171(13) 0.77658(16)
C34_4 C 0.3798(2) 0.3376(2) 0.9985(2)
C35_4 C 0.3520(2) 0.3428(2) 0.9209(2)
H27_4 H 0.3073 0.3328 0.8974
C36_4 C 0.45403(19) 0.37359(18) 0.9363(2)
H28_4 H 0.4944 0.3890 0.9264
C37_4 C 0.5115(2) 0.4097(2) 0.7691(2)
C38_4 C 0.57589(16) 0.44775(16) 0.7713(2)
C39_4 C 0.63692(17) 0.41470(16) 0.7755(2)
H29_4 H 0.6381 0.3685 0.7778
C40_4 C 0.76082(18) 0.41481(18) 0.7750(2)
C41_4 C 0.69607(16) 0.44986(16) 0.7764(2)
C42_4 C 0.69309(15) 0.51887(15) 0.7730(2)
H30_4 H 0.7323 0.5429 0.7744
C43_4 C 0.63289(15) 0.55262(15) 0.76769(19)
C44_4 C 0.57473(16) 0.51643(16) 0.7667(2)
H31_4 H 0.5341 0.5388 0.7629
C45_4 C 0.63011(15) 0.62649(15) 0.7623(2)
C46_4 C 0.67573(16) 0.66673(15) 0.8133(2)
H32_4 H 0.7099 0.6478 0.8519
C47_4 C 0.67026(16) 0.73443(16) 0.8067(2)
H33_4 H 0.7015 0.7602 0.8415
C48_4 C 0.57842(17) 0.72694(16) 0.7026(2)
H34_4 H 0.5453 0.7471 0.6637
C49_4 C 0.58041(17) 0.65888(16) 0.7066(2)
H35_4 H 0.5481 0.6341 0.6717
C50_4 C 0.24679(19) 0.39953(19) 0.7470(2)
C51_4 C 0.18746(16) 0.43833(15) 0.76099(19)
C52_4 C 0.18859(16) 0.50774(15) 0.76648(19)
H36_4 H 0.2280 0.5304 0.7647
C53_4 C 0.13228(15) 0.54350(15) 0.77449(19)
C54_4 C 0.07402(15) 0.50820(15) 0.77886(19)
H37_4 H 0.0361 0.5312 0.7856
C55_4 C 0.07191(15) 0.43917(15) 0.77327(18)
C56_4 C 0.00725(19) 0.40079(19) 0.7709(2)
C57_4 C 0.12903(16) 0.40514(15) 0.76506(19)
H38_4 H 0.1280 0.3590 0.7622
C58_4 C 0.13295(16) 0.61713(16) 0.7740(2)
C59_4 C 0.1898(2) 0.65392(19) 0.7768(3)
H39_4 H 0.2310 0.6323 0.7824
C60_4 C 0.1877(2) 0.72164(19) 0.7716(4)
H40_4 H 0.2282 0.7442 0.7759
C61_4 C 0.07738(19) 0.72188(17) 0.7614(3)
H41_4 H 0.0370 0.7447 0.7572
C62_4 C 0.07568(18) 0.65369(17) 0.7679(3)
H42_4 H 0.0352 0.6325 0.7681
N8_4 N 0.39876(15) 0.36518(14) 0.88084(17)
O1_4 O 0.45835(13) 0.44237(15) 0.76419(16)
O2_4 O 0.51187(17) 0.34876(15) 0.7719(2)
O5_4 O 0.30232(13) 0.43013(13) 0.75637(16)
O6_4 O 0.23860(16) 0.34115(14) 0.7266(2)
O8_4 O 0.00797(17) 0.34041(14) 0.7623(2)
C4_4 C 0.98354(18) 0.84032(19) 0.4216(2)
C5_4 C 0.95982(18) 0.78561(17) 0.3740(2)
H4_4 H 0.9771 0.7434 0.3881
C6_4 C 0.91073(19) 0.79482(17) 0.3063(2)
H5_4 H 0.8952 0.7583 0.2745
C7_4 C 0.88334(17) 0.85702(16) 0.2835(2)
C8_4 C 0.90804(18) 0.91107(18) 0.3326(2)
H6_4 H 0.8904 0.9533 0.3195
C9_4 C 0.95810(18) 0.90223(18) 0.3998(2)
H7_4 H 0.9750 0.9388 0.4309
C10_4 C 0.82984(17) 0.86443(16) 0.2096(2)
C11_4 C 0.78248(18) 0.81400(18) 0.1868(2)
H8_4 H 0.7842 0.7765 0.2186
C12_4 C 0.73340(19) 0.81886(19) 0.1181(2)
H9_4 H 0.7020 0.7849 0.1039
C13_4 C 0.73049(18) 0.87390(19) 0.0699(2)
C14_4 C 0.7762(2) 0.92479(19) 0.0924(2)
H10_4 H 0.7738 0.9625 0.0608
C15_4 C 0.82566(19) 0.92000(18) 0.1617(2)
H11_4 H 0.8564 0.9545 0.1762
H14_4 H 0.5913 0.8504 0.0312
H2_4 H 0.9051 0.2544 0.0375
N2_4 N 0.96409(15) 0.33067(16) 0.00887(18)
loop_
_geom_bond_atom_site_label_1
_geom_bond_atom_site_label_2
_geom_bond_site_symmetry_1
_geom_bond_site_symmetry_2
C16 H12 1_555 1_555
C17 H13 1_555 1_555
C18 C17 1_555 1_555
N4 C16 1_555 1_555
Co6 N4 1_555 1_555
C16 N3 1_555 1_555
C17 N4 1_555 1_555
C18 N3 1_555 1_555
Co1 N1 1_555 1_555
C1 H1 1_555 1_555
C2 C1 1_555 1_555
H2 C2 1_555 1_555
C3 H3 1_555 1_555
C19 H15 1_555 1_555
C20 H16 1_555 1_555
C21 C20 1_555 1_555
N1 C1 1_555 1_555
N2 C2 1_555 1_555
N5 Co1 1_555 1_555
N6 C19 1_555 1_555
N13 Co1 1_555 1_555
O9 Co1 1_555 1_555
O10 Co1 1_555 1_555
O11 Co1 1_555 1_555
C3 N1 1_555 1_555
C3 N2 1_555 1_555
C19 N5 1_555 1_555
C20 N5 1_555 1_555
C21 N6 1_555 1_555
Co6 N8 1_555 1_555
C22 C23 1_555 1_555
C23 H18 1_555 1_555
C24 C23 1_555 1_555
H19 C24 1_555 1_555
C25 C24 1_555 1_555
C26 C25 1_555 1_555
H20 C26 1_555 1_555
C27 C22 1_555 1_555
H21 C27 1_555 1_555
C28 C25 1_555 1_555
C29 C28 1_555 1_555
H22 C29 1_555 1_555
C30 C29 1_555 1_555
H23 C30 1_555 1_555
C31 C30 1_555 1_555
C32 C31 1_555 1_555
H24 C32 1_555 1_555
C33 C28 1_555 1_555
H25 C33 1_555 1_555
C34 H26 1_555 1_555
C35 C34 1_555 1_555
H27 C35 1_555 1_555
C36 H28 1_555 1_555
C37 C38 1_555 1_555
C38 C39 1_555 1_555
C39 H29 1_555 1_555
C40 C41 1_555 1_555
C41 C39 1_555 1_555
C50 C51 1_555 1_555
C56 C55 1_555 1_555
C57 C51 1_555 1_555
H38 C57 1_555 1_555
N7 C31 1_555 1_555
N8 C35 1_555 1_555
O1 Co6 1_555 1_555
O2 C37 1_555 1_555
O9 C40 1_555 1_555
O10 C40 1_555 1_555
O5 Co6 1_555 1_555
O6 C50 1_555 1_555
O8 C56 1_555 1_555
N12 Co6 1_555 1_555
C26 C27 1_555 1_555
C32 C33 1_555 1_555
C34 N7 1_555 1_555
C36 N7 1_555 1_555
C36 N8 1_555 1_555
C37 O1 1_555 1_555
C50 O5 1_555 1_555
C55 C57 1_555 1_555
H30 C42 1_555 1_555
C43 C42 1_555 1_555
H31 C44 1_555 1_555
C45 C43 1_555 1_555
C46 C45 1_555 1_555
H32 C46 1_555 1_555
C47 C46 1_555 1_555
H33 C47 1_555 1_555
C48 H34 1_555 1_555
C49 C45 1_555 1_555
H35 C49 1_555 1_555
C52 H36 1_555 1_555
C53 C52 1_555 1_555
C54 C53 1_555 1_555
H37 C54 1_555 1_555
C58 C53 1_555 1_555
C59 C58 1_555 1_555
H39 C59 1_555 1_555
C60 C59 1_555 1_555
H40 C60 1_555 1_555
C61 H41 1_555 1_555
C62 C58 1_555 1_555
H42 C62 1_555 1_555
N9 C47 1_555 1_555
N10 C60 1_555 1_555
Co5 N10 1_555 1_555
Co7 N9 1_555 1_555
C43 C44 1_555 1_555
C48 C49 1_555 1_555
C48 N9 1_555 1_555
C61 C62 1_555 1_555
C61 N10 1_555 1_555
Co5 O7 1_555 1_555
Co7 N8_2 1_555 1_555
C35_2 C34_2 1_555 1_555
H27_2 C35_2 1_555 1_555
C36_2 H28_2 1_555 1_555
C37_2 C38_2 1_555 1_555
C38_2 C39_2 1_555 1_555
C39_2 H29_2 1_555 1_555
C40_2 C41_2 1_555 1_555
C41_2 C39_2 1_555 1_555
C42_2 C41_2 1_555 1_555
H30_2 C42_2 1_555 1_555
C43_2 C42_2 1_555 1_555
C44_2 C38_2 1_555 1_555
H31_2 C44_2 1_555 1_555
C45_2 C43_2 1_555 1_555
C46_2 C45_2 1_555 1_555
H32_2 C46_2 1_555 1_555
C47_2 C46_2 1_555 1_555
H33_2 C47_2 1_555 1_555
C48_2 H34_2 1_555 1_555
C49_2 C45_2 1_555 1_555
H35_2 C49_2 1_555 1_555
C50_2 C51_2 1_555 1_555
C51_2 C52_2 1_555 1_555
C52_2 H36_2 1_555 1_555
C53_2 C52_2 1_555 1_555
C54_2 C53_2 1_555 1_555
H37_2 C54_2 1_555 1_555
C55_2 C54_2 1_555 1_555
C56_2 C55_2 1_555 1_555
C57_2 C51_2 1_555 1_555
H38_2 C57_2 1_555 1_555
C58_2 C53_2 1_555 1_555
C59_2 C58_2 1_555 1_555
H39_2 C59_2 1_555 1_555
C60_2 C59_2 1_555 1_555
H40_2 C60_2 1_555 1_555
C61_2 H41_2 1_555 1_555
C62_2 C58_2 1_555 1_555
H42_2 C62_2 1_555 1_555
N8_2 C35_2 1_555 1_555
N12 C47_2 1_555 1_555
N13 C60_2 1_555 1_555
O1_2 Co7 1_555 1_555
O2_2 C37_2 1_555 1_555
O3 C40_2 1_555 1_555
O4 C40_2 1_555 1_555
O5_2 Co7 1_555 1_555
O6_2 C50_2 1_555 1_555
O8_2 C56_2 1_555 1_555
Co5 O3 1_555 1_555
N11 Co7 1_555 1_555
C36_2 N8_2 1_555 1_555
C37_2 O1_2 1_555 1_555
C43_2 C44_2 1_555 1_555
C48_2 C49_2 1_555 1_555
C48_2 N12 1_555 1_555
C50_2 O5_2 1_555 1_555
C55_2 C57_2 1_555 1_555
C61_2 C62_2 1_555 1_555
C61_2 N13 1_555 1_555
O4 Co5 1_555 1_555
Co5 N1_2 1_555 1_555
C1_2 H1_2 1_555 1_555
C2_2 C1_2 1_555 1_555
C3_2 H3_2 1_555 1_555
C19_2 H15_2 1_555 1_555
C20_2 H16_2 1_555 1_555
C21_2 C20_2 1_555 1_555
H17_2 C21_2 1_555 1_555
C22_2 C23_2 1_555 1_555
C23_2 H18_2 1_555 1_555
C24_2 C23_2 1_555 1_555
H19_2 C24_2 1_555 1_555
C25_2 C24_2 1_555 1_555
C26_2 C25_2 1_555 1_555
H20_2 C26_2 1_555 1_555
C27_2 C22_2 1_555 1_555
H21_2 C27_2 1_555 1_555
C28_2 C25_2 1_555 1_555
C29_2 C28_2 1_555 1_555
H22_2 C29_2 1_555 1_555
C30_2 C29_2 1_555 1_555
H23_2 C30_2 1_555 1_555
C31_2 C30_2 1_555 1_555
C32_2 C31_2 1_555 1_555
H24_2 C32_2 1_555 1_555
C33_2 C28_2 1_555 1_555
H25_2 C33_2 1_555 1_555
N1_2 C1_2 1_555 1_555
N5_2 Co5 1_555 1_555
N6_2 C19_2 1_555 1_555
N7_2 C31_2 1_555 1_555
C3_2 N1_2 1_555 1_555
C19_2 N5_2 1_555 1_555
C20_2 N5_2 1_555 1_555
C21_2 N6_2 1_555 1_555
C22_2 N6_2 1_555 1_555
C26_2 C27_2 1_555 1_555
C32_2 C33_2 1_555 1_555
C4 C5 1_555 1_555
C5 H4 1_555 1_555
C6 C5 1_555 1_555
H5 C6 1_555 1_555
C7 C6 1_555 1_555
C8 C7 1_555 1_555
H6 C8 1_555 1_555
C9 C4 1_555 1_555
H7 C9 1_555 1_555
C10 C7 1_555 1_555
C11 C10 1_555 1_555
H8 C11 1_555 1_555
C12 C11 1_555 1_555
H9 C12 1_555 1_555
C13 C12 1_555 1_555
C14 C13 1_555 1_555
H10 C14 1_555 1_555
C15 C10 1_555 1_555
H11 C15 1_555 1_555
C16_2 H12_2 1_555 1_555
C17_2 H13_2 1_555 1_555
C18_2 C17_2 1_555 1_555
H14 C18_2 1_555 1_555
N3_2 C13 1_555 1_555
N11 C16_2 1_555 1_555
C8 C9 1_555 1_555
C14 C15 1_555 1_555
C16_2 N3_2 1_555 1_555
C17_2 N11 1_555 1_555
C18_2 N3_2 1_555 1_555
C4_2 C5_2 1_555 1_555
C5_2 H4_2 1_555 1_555
C6_2 C5_2 1_555 1_555
H5_2 C6_2 1_555 1_555
C7_2 C6_2 1_555 1_555
C8_2 C7_2 1_555 1_555
H6_2 C8_2 1_555 1_555
C9_2 C4_2 1_555 1_555
H7_2 C9_2 1_555 1_555
C10_2 C7_2 1_555 1_555
C11_2 C10_2 1_555 1_555
H8_2 C11_2 1_555 1_555
C12_2 C11_2 1_555 1_555
H9_2 C12_2 1_555 1_555
C13_2 C12_2 1_555 1_555
C14_2 C13_2 1_555 1_555
H10_2 C14_2 1_555 1_555
C15_2 C10_2 1_555 1_555
H11_2 C15_2 1_555 1_555
C8_2 C9_2 1_555 1_555
C14_2 C15_2 1_555 1_555
Co3 O7_2 1_555 1_555
H30_3 C42_3 1_555 1_555
C43_3 C42_3 1_555 1_555
H31_3 C44_3 1_555 1_555
C45_3 C43_3 1_555 1_555
C46_3 C45_3 1_555 1_555
H32_3 C46_3 1_555 1_555
C47_3 C46_3 1_555 1_555
H33_3 C47_3 1_555 1_555
C48_3 H34_3 1_555 1_555
C49_3 C45_3 1_555 1_555
H35_3 C49_3 1_555 1_555
C52_3 H36_3 1_555 1_555
C53_3 C52_3 1_555 1_555
C54_3 C53_3 1_555 1_555
H37_3 C54_3 1_555 1_555
C58_3 C53_3 1_555 1_555
C59_3 C58_3 1_555 1_555
H39_3 C59_3 1_555 1_555
C60_3 C59_3 1_555 1_555
H40_3 C60_3 1_555 1_555
C61_3 H41_3 1_555 1_555
C62_3 C58_3 1_555 1_555
H42_3 C62_3 1_555 1_555
N9_2 C47_3 1_555 1_555
N10_2 C60_3 1_555 1_555
Co5_2 N10_2 1_555 1_555
Co7_2 N9_2 1_555 1_555
C43_3 C44_3 1_555 1_555
C48_3 C49_3 1_555 1_555
C48_3 N9_2 1_555 1_555
C61_3 C62_3 1_555 1_555
C61_3 N10_2 1_555 1_555
Co2 N8_3 1_555 1_555
C22_3 C23_3 1_555 1_555
C23_3 H18_3 1_555 1_555
C24_3 C23_3 1_555 1_555
H19_3 C24_3 1_555 1_555
C25_3 C24_3 1_555 1_555
C26_3 C25_3 1_555 1_555
H20_3 C26_3 1_555 1_555
C27_3 C22_3 1_555 1_555
H21_3 C27_3 1_555 1_555
C28_3 C25_3 1_555 1_555
C29_3 C28_3 1_555 1_555
H22_3 C29_3 1_555 1_555
C30_3 C29_3 1_555 1_555
H23_3 C30_3 1_555 1_555
C31_3 C30_3 1_555 1_555
C32_3 C31_3 1_555 1_555
H24_3 C32_3 1_555 1_555
C33_3 C28_3 1_555 1_555
H25_3 C33_3 1_555 1_555
C34_3 H26_3 1_555 1_555
C35_3 C34_3 1_555 1_555
H27_3 C35_3 1_555 1_555
C36_3 H28_3 1_555 1_555
C37_3 C38_3 1_555 1_555
C38_3 C39_3 1_555 1_555
C39_3 H29_3 1_555 1_555
C40_3 C41_3 1_555 1_555
C41_3 C39_3 1_555 1_555
C50_3 C51_3 1_555 1_555
C56_3 C55_3 1_555 1_555
C57_3 C51_3 1_555 1_555
H38_3 C57_3 1_555 1_555
N7_3 C31_3 1_555 1_555
N8_3 C35_3 1_555 1_555
O1_3 Co2 1_555 1_555
O2_3 C37_3 1_555 1_555
O3_2 C40_3 1_555 1_555
O4_2 C40_3 1_555 1_555
O5_3 Co2 1_555 1_555
O6_3 C50_3 1_555 1_555
O8_3 C56_3 1_555 1_555
Co3 O3_2 1_555 1_555
N11_2 Co2 1_555 1_555
N12_2 Co2 1_555 1_555
C26_3 C27_3 1_555 1_555
C32_3 C33_3 1_555 1_555
C34_3 N7_3 1_555 1_555
C36_3 N7_3 1_555 1_555
C36_3 N8_3 1_555 1_555
C37_3 O1_3 1_555 1_555
C50_3 O5_3 1_555 1_555
C55_3 C57_3 1_555 1_555
O4_2 Co3 1_555 1_555
Co3 N1_3 1_555 1_555
C1_3 H1_3 1_555 1_555
C2_3 C1_3 1_555 1_555
H2_3 C2_3 1_555 1_555
C3_3 H3_3 1_555 1_555
C19_3 H15_3 1_555 1_555
C20_3 H16_3 1_555 1_555
C21_3 C20_3 1_555 1_555
N1_3 C1_3 1_555 1_555
N2_3 C2_3 1_555 1_555
N5_3 Co3 1_555 1_555
N6_3 C19_3 1_555 1_555
N13_2 Co3 1_555 1_555
C3_3 N1_3 1_555 1_555
C3_3 N2_3 1_555 1_555
C19_3 N5_3 1_555 1_555
C20_3 N5_3 1_555 1_555
C21_3 N6_3 1_555 1_555
C16_3 H12_3 1_555 1_555
C17_3 H13_3 1_555 1_555
C18_3 C17_3 1_555 1_555
N11_2 C16_3 1_555 1_555
C16_3 N3_3 1_555 1_555
C17_3 N11_2 1_555 1_555
C18_3 N3_3 1_555 1_555
C4_3 C5_3 1_555 1_555
C5_3 H4_3 1_555 1_555
C6_3 C5_3 1_555 1_555
H5_3 C6_3 1_555 1_555
C7_3 C6_3 1_555 1_555
C8_3 C7_3 1_555 1_555
H6_3 C8_3 1_555 1_555
C9_3 C4_3 1_555 1_555
H7_3 C9_3 1_555 1_555
C10_3 C7_3 1_555 1_555
C11_3 C10_3 1_555 1_555
H8_3 C11_3 1_555 1_555
C12_3 C11_3 1_555 1_555
H9_3 C12_3 1_555 1_555
C13_3 C12_3 1_555 1_555
C14_3 C13_3 1_555 1_555
H10_3 C14_3 1_555 1_555
C15_3 C10_3 1_555 1_555
H11_3 C15_3 1_555 1_555
C16_4 H12_4 1_555 1_555
C17_4 H13_4 1_555 1_555
C18_4 C17_4 1_555 1_555
H14_3 C18_4 1_555 1_555
N3_4 C13_3 1_555 1_555
N4_2 C16_4 1_555 1_555
Co7_2 N4_2 1_555 1_555
C8_3 C9_3 1_555 1_555
C14_3 C15_3 1_555 1_555
C16_4 N3_4 1_555 1_555
C17_4 N4_2 1_555 1_555
C18_4 N3_4 1_555 1_555
Co5_2 N1_4 1_555 1_555
C1_4 H1_4 1_555 1_555
C2_4 C1_4 1_555 1_555
C3_4 H3_4 1_555 1_555
C19_4 H15_4 1_555 1_555
C20_4 H16_4 1_555 1_555
C21_4 C20_4 1_555 1_555
H17_4 C21_4 1_555 1_555
C22_4 C23_4 1_555 1_555
C23_4 H18_4 1_555 1_555
C24_4 C23_4 1_555 1_555
H19_4 C24_4 1_555 1_555
C25_4 C24_4 1_555 1_555
C26_4 C25_4 1_555 1_555
H20_4 C26_4 1_555 1_555
C27_4 C22_4 1_555 1_555
H21_4 C27_4 1_555 1_555
C28_4 C25_4 1_555 1_555
C29_4 C28_4 1_555 1_555
H22_4 C29_4 1_555 1_555
C30_4 C29_4 1_555 1_555
H23_4 C30_4 1_555 1_555
C31_4 C30_4 1_555 1_555
C32_4 C31_4 1_555 1_555
H24_4 C32_4 1_555 1_555
C33_4 C28_4 1_555 1_555
H25_4 C33_4 1_555 1_555
N1_4 C1_4 1_555 1_555
N5_4 Co5_2 1_555 1_555
N6_4 C19_4 1_555 1_555
N7_4 C31_4 1_555 1_555
O9_2 Co5_2 1_555 1_555
O10_2 Co5_2 1_555 1_555
O11_2 Co5_2 1_555 1_555
C3_4 N1_4 1_555 1_555
C19_4 N5_4 1_555 1_555
C20_4 N5_4 1_555 1_555
C21_4 N6_4 1_555 1_555
C22_4 N6_4 1_555 1_555
C26_4 C27_4 1_555 1_555
C32_4 C33_4 1_555 1_555
Co7_2 N8_4 1_555 1_555
C35_4 C34_4 1_555 1_555
H27_4 C35_4 1_555 1_555
C36_4 H28_4 1_555 1_555
C37_4 C38_4 1_555 1_555
C38_4 C39_4 1_555 1_555
C39_4 H29_4 1_555 1_555
C40_4 C41_4 1_555 1_555
C41_4 C39_4 1_555 1_555
C42_4 C41_4 1_555 1_555
H30_4 C42_4 1_555 1_555
C43_4 C42_4 1_555 1_555
C44_4 C38_4 1_555 1_555
H31_4 C44_4 1_555 1_555
C45_4 C43_4 1_555 1_555
C46_4 C45_4 1_555 1_555
H32_4 C46_4 1_555 1_555
C47_4 C46_4 1_555 1_555
H33_4 C47_4 1_555 1_555
C48_4 H34_4 1_555 1_555
C49_4 C45_4 1_555 1_555
H35_4 C49_4 1_555 1_555
C50_4 C51_4 1_555 1_555
C51_4 C52_4 1_555 1_555
C52_4 H36_4 1_555 1_555
C53_4 C52_4 1_555 1_555
C54_4 C53_4 1_555 1_555
H37_4 C54_4 1_555 1_555
C55_4 C54_4 1_555 1_555
C56_4 C55_4 1_555 1_555
C57_4 C51_4 1_555 1_555
H38_4 C57_4 1_555 1_555
C58_4 C53_4 1_555 1_555
C59_4 C58_4 1_555 1_555
H39_4 C59_4 1_555 1_555
C60_4 C59_4 1_555 1_555
H40_4 C60_4 1_555 1_555
C61_4 H41_4 1_555 1_555
C62_4 C58_4 1_555 1_555
H42_4 C62_4 1_555 1_555
N8_4 C35_4 1_555 1_555
N12_2 C47_4 1_555 1_555
N13_2 C60_4 1_555 1_555
O1_4 Co7_2 1_555 1_555
O2_4 C37_4 1_555 1_555
O9_2 C40_4 1_555 1_555
O10_2 C40_4 1_555 1_555
O5_4 Co7_2 1_555 1_555
O6_4 C50_4 1_555 1_555
O8_4 C56_4 1_555 1_555
C36_4 N8_4 1_555 1_555
C37_4 O1_4 1_555 1_555
C43_4 C44_4 1_555 1_555
C48_4 C49_4 1_555 1_555
C48_4 N12_2 1_555 1_555
C50_4 O5_4 1_555 1_555
C55_4 C57_4 1_555 1_555
C61_4 C62_4 1_555 1_555
C61_4 N13_2 1_555 1_555
C4_4 C5_4 1_555 1_555
C5_4 H4_4 1_555 1_555
C6_4 C5_4 1_555 1_555
H5_4 C6_4 1_555 1_555
C7_4 C6_4 1_555 1_555
C8_4 C7_4 1_555 1_555
H6_4 C8_4 1_555 1_555
C9_4 C4_4 1_555 1_555
H7_4 C9_4 1_555 1_555
C10_4 C7_4 1_555 1_555
C11_4 C10_4 1_555 1_555
H8_4 C11_4 1_555 1_555
C12_4 C11_4 1_555 1_555
H9_4 C12_4 1_555 1_555
C13_4 C12_4 1_555 1_555
C14_4 C13_4 1_555 1_555
H10_4 C14_4 1_555 1_555
C15_4 C10_4 1_555 1_555
H11_4 C15_4 1_555 1_555
C8_4 C9_4 1_555 1_555
C14_4 C15_4 1_555 1_555

#END
