
###############################################################################
#
# This file contains modified crystal structure data generated from the
# MOF subset of the Cambridge Structural Database (CSD) v543 
# hosted by the Cambridge Crystallographic Data Centre (CCDC).
#
# This work is licensed under the Creative Commons
# Attribution-NonCommercial-ShareAlike 4.0 International License.
# To view a copy of this license, visit
# http://creativecommons.org/licenses/by-nc-sa/4.0/
# or send a letter to
# Creative Commons, PO Box 1866, Mountain View, CA 94042, USA.
#
# CIF created using the CSD Python API on 29 September 2022
# The structure has been converted into the P1 space group
# The structure has a 3D framework
# The original CSD entry XOMCIN is in the triclinic crystal system
# The framework has been calculated to contain at least 10.0% void space
# The void calculation uses a probe of radius 1.32A, grid spacing 0.4
#
###############################################################################

data_XOMCIN
_chemical_formula_moiety         '(C174 H140 N16 Ni12 O64)n'
_symmetry_cell_setting           triclinic
_symmetry_space_group_name_H-M   'P 1'
_symmetry_Int_Tables_number      1
_space_group_name_Hall           'P 1'
loop_
_symmetry_equiv_pos_site_id
_symmetry_equiv_pos_as_xyz
1 x,y,z
_cell_length_a                   10.9495(17)
_cell_length_b                   22.0856(14)
_cell_length_c                   28.3314(10)
_cell_angle_alpha                100.496(2)
_cell_angle_beta                 99.542(3)
_cell_angle_gamma                101.674(2)
_cell_volume                     6449.57
loop_
_atom_site_label
_atom_site_type_symbol
_atom_site_fract_x
_atom_site_fract_y
_atom_site_fract_z
C65 C 0.0847(4) 0.23323(18) 0.51940(13)
O19 O 0.1567(2) 0.19605(10) 0.51300(8)
O20 O 0.1190(2) 0.29313(11) 0.52340(8)
Ni8 Ni 0.31182(5) 0.02689(2) 0.161413(17)
Ni10 Ni 0.34370(4) 0.20096(2) 0.522022(16)
Ni12 Ni 0.26586(4) 0.33915(2) 0.497643(16)
C40 C 0.2995(4) 0.15041(18) 0.29076(13)
C41 C 0.2316(4) 0.18371(17) 0.26587(14)
H22 H 0.2253 0.1779 0.2321
C42 C 0.1711(4) 0.22615(18) 0.28897(13)
C43 C 0.1897(4) 0.23785(17) 0.33969(13)
H23 H 0.1513 0.2670 0.3557
C44 C 0.2645(4) 0.20723(17) 0.36773(13)
C45 C 0.3166(4) 0.16144(18) 0.34233(13)
H24 H 0.3626 0.1383 0.3595
C46 C 0.0169(4) 0.29604(17) 0.18947(13)
H25 H 0.0301 0.3048 0.1596
C47 C 0.1037(4) 0.26915(17) 0.21574(13)
H26 H 0.1720 0.2591 0.2031
C48 C 0.0859(4) 0.25788(17) 0.26055(13)
C51 C 0.3602(4) 0.10518(18) 0.26179(13)
C52 C 0.2818(4) 0.22543(18) 0.42197(13)
C53 C 0.7328(4) 0.19996(18) 0.52956(13)
C54 C 0.7080(4) 0.13644(17) 0.52598(13)
H29 H 0.6274 0.1151 0.5282
C55 C 0.8008(4) 0.10186(18) 0.51897(13)
C56 C 0.9237(4) 0.13568(18) 0.51713(13)
H30 H 0.9861 0.1135 0.5125
C57 C 0.9542(4) 0.20142(17) 0.52209(13)
C58 C 0.8586(3) 0.23675(18) 0.52886(13)
H31 H 0.8764 0.2806 0.5326
C60 C 0.6893(3) 0.00043(17) 0.53595(13)
H33 H 0.6559 0.0240 0.5590
C61 C 0.7684(4) 0.03021(18) 0.50995(13)
H34 H 0.8761 0.0155 0.4593
C64 C 0.6265(3) 0.23374(17) 0.53354(12)
C66 C 0.2623(4) 0.46549(17) 0.62764(14)
C67 C 0.2825(4) 0.47909(18) 0.67805(13)
H36 H 0.3330 0.4582 0.6958
C68 C 0.2279(4) 0.52410(17) 0.70309(12)
C69 C 0.1530(4) 0.55404(18) 0.67552(13)
H37 H 0.1195 0.5852 0.6918
C70 C 0.1252(4) 0.53923(17) 0.62340(13)
C71 C 0.1863(4) 0.49711(18) 0.60013(15)
H38 H 0.1773 0.4896 0.5662
C74 C 0.0365(3) 0.56879(16) 0.59609(13)
C75 C 0.0518(4) 0.58039(17) 0.55004(13)
H41 H 0.1183 0.5697 0.5365
C77 C 0.3166(4) 0.41751(19) 0.59909(13)
C78 C 0.2498(4) 0.54243(17) 0.75735(12)
C79 C 0.1659(4) 0.47650(18) 0.93624(14)
H43 H 0.0992 0.4548 0.9100
C80 C 0.1512(4) 0.47597(18) 0.98441(13)
H44 H 0.0752 0.4539 0.9902
C83 C 0.3780(4) 0.54155(18) 0.96626(14)
H47 H 0.4537 0.5632 0.9601
C84 C 0.4141(4) 0.21534(18) 0.72958(13)
H48 H 0.4217 0.1723 0.7215
H49 H 0.3555 0.2184 0.7511
H50 H 0.4961 0.2426 0.7456
C85 C 0.2636(4) 0.27219(18) 0.67539(13)
H51 H 0.2890 0.3029 0.6567
H52 H 0.2531 0.2934 0.7066
H53 H 0.1843 0.2435 0.6578
C86 C 0.3880(4) 0.20493(19) 0.63603(14)
C87 C 0.4934(4) 0.16993(18) 0.64198(14)
H54 H 0.5066 0.1522 0.6102
H55 H 0.4695 0.1365 0.6585
H56 H 0.5708 0.1989 0.6610
N7 N 0.2787(3) 0.50901(15) 0.92756(11)
N8 N 0.3655(3) 0.23532(15) 0.68324(11)
Ni5 Ni 0.21197(5) 0.65038(2) 0.834889(17)
Ni6 Ni 0.28698(5) 0.50900(2) 0.854533(17)
O13 O 0.3412(2) 0.10227(12) 0.21667(9)
O14 O 0.4109(2) 0.06695(11) 0.28305(9)
O15 O 0.3427(2) 0.19684(11) 0.44784(8)
O16 O 0.2381(2) 0.27034(11) 0.43774(8)
O17 O 0.5243(2) 0.19560(11) 0.53378(8)
O18 O 0.6426(2) 0.29076(12) 0.53288(9)
O21 O 0.3008(2) 0.41641(12) 0.55306(9)
O22 O 0.3722(2) 0.38404(12) 0.61892(8)
O23 O 0.2958(2) 0.50819(12) 0.78273(9)
O24 O 0.2111(2) 0.58980(12) 0.77234(9)
O25 O 0.3414(2) 0.21202(11) 0.59542(8)
H57 H 0.5259 0.0052 0.1957
H58 H 0.4638 0.0108 0.2342
O27 O 0.4004(2) 0.30218(10) 0.54000(8)
H59 H 0.4736 0.3142 0.5337
H60 H 0.4055 0.3160 0.5705
O28 O 0.3476(2) 0.61247(11) 0.87619(9)
H61 H 0.3512 0.6249 0.9067
H62 H 0.4212 0.6252 0.8705
O30 O 0.4512(2) 0.07701(11) 0.13172(9)
H65 H 0.4176 0.0978 0.1129
H66 H 0.5158 0.1056 0.1578
O31 O 0.4144(2) 0.38960(11) 0.47191(8)
H67 H 0.4929 0.3975 0.4955
H68 H 0.3970 0.4292 0.4672
O32 O 0.3764(2) 0.71814(12) 0.82083(9)
H69 H 0.3978 0.7568 0.8456
H70 H 0.3533 0.7272 0.7891
N9 N 0.2414(3) 0.40866(14) 0.83745(10)
N10 N 0.1707(3) 0.06077(15) 0.12251(11)
N11 N 0.0869(3) 0.69015(14) 0.79353(11)
N12 N 0.2926(3) 0.10168(15) 0.50704(11)
N13 N 0.1358(3) 0.37843(15) 0.45737(11)
O35 O 0.4704(2) 0.50660(12) 0.86861(9)
O36 O 0.0528(2) 0.59374(12) 0.84857(9)
O37 O 0.0991(2) 0.50159(12) 0.83881(9)
O38 O 0.2147(2) 0.71644(12) 0.89247(9)
C29 C 0.2363(4) 0.78811(17) 0.96476(13)
C30 C 0.1454(4) 0.81447(18) 0.93909(13)
H16 H 0.1075 0.7950 0.9065
C31 C 0.1110(4) 0.86773(18) 0.96045(13)
C35 C 0.0143(4) 0.89310(18) 0.93251(14)
C36 C 0.0337(4) 0.96098(16) 0.93308(12)
H20 H 0.1082 0.9904 0.9503
C39 C 0.2678(4) 0.73156(18) 0.93740(13)
O11 O 0.3366(2) 0.70199(12) 0.95866(9)
C33 C 0.1841(4) 0.12239(17) 0.12472(13)
H18 H 0.2563 0.1507 0.1451
C34 C 0.0964(3) 0.14560(17) 0.09836(13)
H19 H 0.1111 0.1892 0.1011
C37 C 0.0640(4) 0.02200(18) 0.09314(13)
C26 C 0.0249(4) 0.53768(18) 0.84487(14)
C49 C 0.0168(4) 0.72437(17) 0.72087(14)
H27 H 0.0294 0.7292 0.6900
C50 C 0.0974(4) 0.69961(17) 0.75030(13)
H28 H 0.1656 0.6886 0.7381
C72 C 0.1497(4) 0.38729(18) 0.41306(13)
H39 H 0.2155 0.3746 0.4001
C73 C 0.0674(4) 0.41532(18) 0.38528(14)
H40 H 0.0813 0.4232 0.3552
C76 C 0.0349(4) 0.39165(16) 0.47510(13)
H42 H 0.0225 0.3819 0.5048
C1 C 0.2116(4) 0.10948(18) 0.80771(14)
C2 C 0.0869(4) 0.07650(18) 0.80385(12)
H1 H 0.0677 0.0327 0.8002
C4 C 0.0183(4) 0.17391(17) 0.80969(13)
C5 C 0.1435(4) 0.20687(17) 0.81362(13)
C6 C 0.2398(4) 0.17336(17) 0.81151(13)
H3 H 0.3230 0.1949 0.8127
C7 C 0.3223(4) 0.07801(17) 0.80584(14)
C9 C 0.1447(4) 0.37431(17) 0.80140(13)
H4 H 0.0979 0.3955 0.7825
C10 C 0.1106(4) 0.30904(17) 0.79070(14)
H5 H 0.0440 0.2867 0.7646
C11 C 0.1775(4) 0.27717(17) 0.81970(13)
C12 C 0.2787(4) 0.31312(18) 0.85747(13)
H6 H 0.3256 0.2929 0.8772
C13 C 0.3088(4) 0.37636(17) 0.86548(14)
H7 H 0.3771 0.3993 0.8907
C14 C 0.6707(4) 0.50570(18) 0.85093(14)
C15 C 0.6438(4) 0.44172(18) 0.84580(12)
H8 H 0.5624 0.4205 0.8472
C16 C 0.7363(4) 0.40619(17) 0.83842(13)
C17 C 0.8579(4) 0.43926(18) 0.83573(14)
H9 H 0.9196 0.4172 0.8295
C18 C 0.8872(4) 0.50698(17) 0.84250(13)
C19 C 0.7983(4) 0.54040(18) 0.85180(13)
H10 H 0.8195 0.5845 0.8585
C20 C 0.5963(4) 0.24025(18) 0.85027(13)
H11 H 0.5439 0.2204 0.8685
C21 C 0.6248(4) 0.30712(18) 0.85704(13)
H12 H 0.5903 0.3315 0.8792
C22 C 0.7076(4) 0.33650(17) 0.82932(14)
C23 C 0.7476(4) 0.29972(17) 0.79557(13)
H13 H 0.7954 0.3179 0.7753
C24 C 0.7185(4) 0.23415(17) 0.79039(13)
H14 H 0.7511 0.2099 0.7674
C25 C 0.5674(4) 0.53802(17) 0.86116(13)
C27 C 0.7460(4) 0.12844(18) 0.96314(13)
C28 C 0.7118(4) 0.18297(18) 0.98572(14)
H15 H 0.6541 0.2000 0.9676
C32 C 0.8270(4) 0.10142(18) 0.99090(13)
H17 H 0.8407 0.0624 0.9773
C38 C 0.6930(4) 0.09622(18) 0.90996(13)
C59 C 0.3406(4) 0.06586(17) 0.47268(13)
H32 H 0.3937 0.0861 0.4549
C62 C 0.1803(4) 0.00510(19) 0.52427(14)
C63 C 0.2132(4) 0.07088(19) 0.53387(14)
H35 H 0.1827 0.0944 0.5580
N2 N 0.6464(3) 0.20445(14) 0.81664(11)
Ni1 Ni 0.60096(5) 0.10697(2) 0.807808(17)
O1 O 0.4066(2) 0.10481(12) 0.78748(9)
O2 O 0.3205(2) 0.02734(12) 0.82042(8)
O6 O 0.5805(2) 0.59733(12) 0.85909(9)
O9 O 0.7217(2) 0.04405(11) 0.89738(9)
O10 O 0.6328(2) 0.12357(11) 0.88311(8)
O26 O 0.5451(2) 0.00583(11) 0.79604(9)
O29 O 0.5636(2) 0.09441(12) 0.73115(9)
H63 H 0.4826 0.0863 0.7259
H64 H 0.5839 0.0609 0.7185
O33 O 0.8276(2) 0.01600(12) 0.81222(9)
O34 O 0.7796(2) 0.11046(12) 0.80436(9)
C3 C 0.9914(4) 0.10853(18) 0.80546(13)
H2 H 0.9534 0.1953 0.8099
C8 C 0.8676(4) 0.07364(18) 0.81041(13)
C3_2 C 0.0086(4) 0.89147(18) 0.19454(13)
H2_2 H 0.0466 0.8047 0.1901
C8_2 C 0.1324(4) 0.92636(18) 0.18959(13)
O3 O 0.1724(2) 0.98400(12) 0.18778(9)
O4 O 0.2204(2) 0.88954(12) 0.19564(9)
Ni7 Ni 0.39904(5) 0.89303(2) 0.192192(17)
C1_2 C 0.7884(4) 0.89052(18) 0.19229(14)
C2_2 C 0.9131(4) 0.92350(18) 0.19615(12)
H1_2 H 0.9323 0.9673 0.1998
C4_2 C 0.9817(4) 0.82609(17) 0.19031(13)
C5_2 C 0.8565(4) 0.79313(17) 0.18638(13)
C6_2 C 0.7602(4) 0.82664(17) 0.18849(13)
H3_2 H 0.6770 0.8051 0.1873
C7_2 C 0.6777(4) 0.92199(17) 0.19416(14)
C9_2 C 0.8553(4) 0.62569(17) 0.19860(13)
H4_2 H 0.9021 0.6045 0.2175
C10_2 C 0.8894(4) 0.69096(17) 0.20930(14)
H5_2 H 0.9560 0.7133 0.2354
C11_2 C 0.8225(4) 0.72283(17) 0.18030(13)
C12_2 C 0.7213(4) 0.68688(18) 0.14253(13)
H6_2 H 0.6744 0.7071 0.1228
C13_2 C 0.6912(4) 0.62364(17) 0.13452(14)
H7_2 H 0.6229 0.6007 0.1093
C14_2 C 0.3293(4) 0.49430(18) 0.14907(14)
C15_2 C 0.3562(4) 0.55828(18) 0.15420(12)
H8_2 H 0.4376 0.5795 0.1528
C16_2 C 0.2637(4) 0.59381(17) 0.16158(13)
C17_2 C 0.1421(4) 0.56074(18) 0.16427(14)
H9_2 H 0.0804 0.5828 0.1705
C18_2 C 0.1128(4) 0.49302(17) 0.15750(13)
C19_2 C 0.2017(4) 0.45960(18) 0.14820(13)
H10_2 H 0.1805 0.4155 0.1415
C20_2 C 0.4037(4) 0.75975(18) 0.14973(13)
H11_2 H 0.4561 0.7796 0.1315
C21_2 C 0.3752(4) 0.69288(18) 0.14296(13)
H12_2 H 0.4097 0.6685 0.1208
C22_2 C 0.2924(4) 0.66350(17) 0.17068(14)
C23_2 C 0.2524(4) 0.70028(17) 0.20443(13)
H13_2 H 0.2046 0.6821 0.2247
C24_2 C 0.2815(4) 0.76585(17) 0.20961(13)
H14_2 H 0.2489 0.7901 0.2326
C25_2 C 0.4326(4) 0.46198(17) 0.13884(13)
C27_2 C 0.2540(4) 0.87156(18) 0.03686(13)
C28_2 C 0.2882(4) 0.81703(18) 0.01428(14)
H15_2 H 0.3459 0.8000 0.0324
C32_2 C 0.1730(4) 0.89858(18) 0.00910(13)
H17_2 H 0.1593 0.9376 0.0227
C38_2 C 0.3070(4) 0.90378(18) 0.09004(13)
C59_2 C 0.6594(4) 0.93414(17) 0.52732(13)
H32_2 H 0.6063 0.9139 0.5451
C62_2 C 0.8197(4) 0.99490(19) 0.47573(14)
C63_2 C 0.7868(4) 0.92912(19) 0.46613(14)
H35_2 H 0.8173 0.9056 0.4420
N1 N 0.7586(3) 0.59134(14) 0.16255(10)
N2_2 N 0.3536(3) 0.79555(14) 0.18336(11)
N5 N 0.7074(3) 0.89832(15) 0.49296(11)
O1_2 O 0.5934(2) 0.89519(12) 0.21252(9)
O2_2 O 0.6795(2) 0.97266(12) 0.17958(8)
O5 O 0.5296(2) 0.49340(12) 0.13139(9)
O6_2 O 0.4195(2) 0.40267(12) 0.14091(9)
O9_2 O 0.2783(2) 0.95595(11) 0.10262(9)
O10_2 O 0.3672(2) 0.87643(11) 0.11689(8)
O26_2 O 0.4549(2) 0.99417(11) 0.20396(9)
O29_2 O 0.4364(2) 0.90559(12) 0.26885(9)
H63_2 H 0.5174 0.9137 0.2741
H64_2 H 0.4161 0.9391 0.2815
Ni11 Ni 0.65630(4) 0.79904(2) 0.477978(16)
Ni18 Ni 0.71302(5) 0.49100(2) 0.145467(17)
C49_2 C 0.9832(4) 0.27563(17) 0.27913(14)
H27_2 H 0.9706 0.2708 0.3100
C50_2 C 0.9026(4) 0.30039(17) 0.24970(13)
H28_2 H 0.8344 0.3114 0.2619
C72_2 C 0.8503(4) 0.61271(18) 0.58694(13)
H39_2 H 0.7845 0.6254 0.5999
C73_2 C 0.9326(4) 0.58468(18) 0.61472(14)
H40_2 H 0.9187 0.5768 0.6448
C76_2 C 0.9651(4) 0.60835(16) 0.52490(13)
H42_2 H 0.9775 0.6181 0.4952
N4 N 0.9131(3) 0.30985(14) 0.20647(11)
N6 N 0.8642(3) 0.62157(15) 0.54263(11)
Ni13 Ni 0.73414(4) 0.66085(2) 0.502357(16)
Ni16 Ni 0.78803(5) 0.34962(2) 0.165111(17)
C26_2 C 0.9751(4) 0.46232(18) 0.15513(14)
O7 O 0.9472(2) 0.40626(12) 0.15143(9)
O8 O 0.9009(2) 0.49841(12) 0.16119(9)
C33_2 C 0.8159(4) 0.87761(17) 0.87528(13)
H18_2 H 0.7437 0.8493 0.8549
C34_2 C 0.9036(3) 0.85440(17) 0.90164(13)
H19_2 H 0.8889 0.8108 0.8989
C37_2 C 0.9360(4) 0.97800(18) 0.90686(13)
N3 N 0.8293(3) 0.93923(15) 0.87749(11)
Ni9 Ni 0.68818(5) 0.97311(2) 0.838587(17)
C29_2 C 0.7637(4) 0.21189(17) 0.03524(13)
C30_2 C 0.8546(4) 0.18553(18) 0.06091(13)
H16_2 H 0.8925 0.2050 0.0935
C31_2 C 0.8890(4) 0.13227(18) 0.03955(13)
C35_2 C 0.9857(4) 0.10690(18) 0.06749(14)
C36_2 C 0.9663(4) 0.03902(16) 0.06692(12)
H20_2 H 0.8918 0.0096 0.0497
C39_2 C 0.7322(4) 0.26844(18) 0.06260(13)
O11_2 O 0.6634(2) 0.29801(12) 0.04134(9)
O12 O 0.7853(2) 0.28356(12) 0.10753(9)
C40_2 C 0.7005(4) 0.84959(18) 0.70924(13)
C41_2 C 0.7684(4) 0.81629(17) 0.73413(14)
H22_2 H 0.7747 0.8221 0.7679
C42_2 C 0.8289(4) 0.77385(18) 0.71103(13)
C43_2 C 0.8103(4) 0.76215(17) 0.66031(13)
H23_2 H 0.8487 0.7330 0.6443
C44_2 C 0.7355(4) 0.79277(17) 0.63227(13)
C45_2 C 0.6834(4) 0.83856(18) 0.65767(13)
H24_2 H 0.6374 0.8617 0.6405
C46_2 C 0.9831(4) 0.70396(17) 0.81053(13)
H25_2 H 0.9699 0.6952 0.8404
C47_2 C 0.8963(4) 0.73085(17) 0.78426(13)
H26_2 H 0.8280 0.7409 0.7969
C48_2 C 0.9141(4) 0.74212(17) 0.73945(13)
C51_2 C 0.6398(4) 0.89482(18) 0.73821(13)
C52_2 C 0.7182(4) 0.77457(18) 0.57803(13)
C53_2 C 0.2672(4) 0.80004(18) 0.47044(13)
C54_2 C 0.2920(4) 0.86356(17) 0.47402(13)
H29_2 H 0.3726 0.8849 0.4718
C55_2 C 0.1992(4) 0.89814(18) 0.48103(13)
C56_2 C 0.0763(4) 0.86432(18) 0.48287(13)
H30_2 H 0.0139 0.8865 0.4875
C57_2 C 0.0458(4) 0.79858(17) 0.47791(13)
C58_2 C 0.1414(3) 0.76325(18) 0.47114(13)
H31_2 H 0.1236 0.7194 0.4674
C60_2 C 0.3107(3) 0.99957(17) 0.46405(13)
H33_2 H 0.3441 0.9760 0.4410
C61_2 C 0.2316(4) 0.96979(18) 0.49005(13)
H34_2 H 0.1239 0.9845 0.5407
C64_2 C 0.3735(3) 0.76626(17) 0.46646(12)
C66_2 C 0.7377(4) 0.53451(17) 0.37236(14)
C67_2 C 0.7175(4) 0.52091(18) 0.32195(13)
H36_2 H 0.6670 0.5418 0.3042
C68_2 C 0.7721(4) 0.47590(17) 0.29691(12)
C69_2 C 0.8470(4) 0.44596(18) 0.32448(13)
H37_2 H 0.8805 0.4148 0.3082
C70_2 C 0.8748(4) 0.46077(17) 0.37660(13)
C71_2 C 0.8137(4) 0.50289(18) 0.39987(15)
H38_2 H 0.8227 0.5104 0.4338
C74_2 C 0.9635(3) 0.43121(16) 0.40391(13)
C75_2 C 0.9482(4) 0.41961(17) 0.44996(13)
H41_2 H 0.8817 0.4303 0.4635
C77_2 C 0.6834(4) 0.58249(19) 0.40091(13)
C78_2 C 0.7502(4) 0.45757(17) 0.24265(12)
C79_2 C 0.8341(4) 0.52350(18) 0.06376(14)
H43_2 H 0.9008 0.5452 0.0900
C80_2 C 0.8488(4) 0.52403(18) 0.01559(13)
H44_2 H 0.9248 0.5461 0.0098
C83_2 C 0.6220(4) 0.45845(18) 0.03374(14)
H47_2 H 0.5463 0.4368 0.0399
C84_2 C 0.5859(4) 0.78466(18) 0.27042(13)
H48_2 H 0.5783 0.8277 0.2785
H49_2 H 0.6445 0.7816 0.2489
H50_2 H 0.5039 0.7574 0.2544
C85_2 C 0.7364(4) 0.72781(18) 0.32461(13)
H51_2 H 0.7110 0.6971 0.3433
H52_2 H 0.7469 0.7066 0.2934
H53_2 H 0.8157 0.7565 0.3422
C86_2 C 0.6120(4) 0.79507(19) 0.36397(14)
C87_2 C 0.5066(4) 0.83007(18) 0.35802(14)
H54_2 H 0.4934 0.8478 0.3898
H55_2 H 0.5305 0.8635 0.3415
H56_2 H 0.4292 0.8011 0.3390
N7_2 N 0.7213(3) 0.49099(15) 0.07244(11)
N8_2 N 0.6345(3) 0.76468(15) 0.31676(11)
O13_2 O 0.6588(2) 0.89773(12) 0.78333(9)
O14_2 O 0.5891(2) 0.93305(11) 0.71695(9)
O15_2 O 0.6573(2) 0.80316(11) 0.55216(8)
O16_2 O 0.7619(2) 0.72966(11) 0.56226(8)
O17_2 O 0.4757(2) 0.80440(11) 0.46622(8)
O18_2 O 0.3574(2) 0.70924(12) 0.46712(9)
O21_2 O 0.6992(2) 0.58359(12) 0.44694(9)
O22_2 O 0.6278(2) 0.61596(12) 0.38108(8)
O23_2 O 0.7042(2) 0.49181(12) 0.21727(9)
O24_2 O 0.7889(2) 0.41020(12) 0.22766(9)
O25_2 O 0.6586(2) 0.78798(11) 0.40458(8)
H57_2 H 0.4741 0.9948 0.8043
H58_2 H 0.5362 0.9892 0.7658
O27_2 O 0.5996(2) 0.69782(10) 0.46000(8)
H59_2 H 0.5264 0.6858 0.4663
H60_2 H 0.5945 0.6840 0.4295
O28_2 O 0.6524(2) 0.38753(11) 0.12381(9)
H61_2 H 0.6488 0.3751 0.0933
H62_2 H 0.5788 0.3748 0.1295
O30_2 O 0.5488(2) 0.92299(11) 0.86828(9)
H65_2 H 0.5824 0.9022 0.8871
H66_2 H 0.4842 0.8944 0.8422
O31_2 O 0.5856(2) 0.61040(11) 0.52809(8)
H67_2 H 0.5071 0.6025 0.5045
H68_2 H 0.6030 0.5708 0.5328
O32_2 O 0.6236(2) 0.28186(12) 0.17917(9)
H69_2 H 0.6022 0.2432 0.1544
H70_2 H 0.6467 0.2728 0.2109
O39 O 0.8433(2) 0.80395(10) 0.48700(8)
O40 O 0.8810(2) 0.70687(11) 0.47660(8)
C65_2 C 0.9153(4) 0.76677(18) 0.48060(13)
C81 C 0.2514(3) 0.50877(17) 0.02356(14)
H45 H 0.2428 0.5086 0.0557
C82 C 0.3658(4) 0.54218(18) 0.01433(14)
H46 H 0.4328 0.5645 0.0403
H21 H 0.9438 0.0213 0.9095
H21_2 H 0.0562 0.9787 0.0905
C81_2 C 0.7486(3) 0.49123(17) 0.97644(14)
H45_2 H 0.7572 0.4914 0.9443
C82_2 C 0.6342(4) 0.45782(18) 0.98567(14)
H46_2 H 0.5672 0.4355 0.9597
loop_
_geom_bond_atom_site_label_1
_geom_bond_atom_site_label_2
_geom_bond_site_symmetry_1
_geom_bond_site_symmetry_2
O19 C65 1_555 1_555
O20 C65 1_555 1_555
Ni10 O19 1_555 1_555
Ni12 O20 1_555 1_555
C40 C41 1_555 1_555
C41 H22 1_555 1_555
C42 C41 1_555 1_555
C43 C42 1_555 1_555
H23 C43 1_555 1_555
C44 C43 1_555 1_555
C45 C40 1_555 1_555
H24 C45 1_555 1_555
C46 H25 1_555 1_555
C47 C46 1_555 1_555
H26 C47 1_555 1_555
C48 C42 1_555 1_555
C51 C40 1_555 1_555
C52 C44 1_555 1_555
C53 C54 1_555 1_555
C54 H29 1_555 1_555
C55 C54 1_555 1_555
C56 C55 1_555 1_555
H30 C56 1_555 1_555
C57 C56 1_555 1_555
C58 C53 1_555 1_555
H31 C58 1_555 1_555
H33 C60 1_555 1_555
C61 C55 1_555 1_555
C64 C53 1_555 1_555
C66 C67 1_555 1_555
C67 H36 1_555 1_555
C68 C67 1_555 1_555
C69 C68 1_555 1_555
H37 C69 1_555 1_555
C70 C69 1_555 1_555
C71 C66 1_555 1_555
H38 C71 1_555 1_555
C74 C70 1_555 1_555
C75 C74 1_555 1_555
H41 C75 1_555 1_555
C77 C66 1_555 1_555
C78 C68 1_555 1_555
C79 H43 1_555 1_555
C80 C79 1_555 1_555
H44 C80 1_555 1_555
H47 C83 1_555 1_555
C84 H48 1_555 1_555
H49 C84 1_555 1_555
H50 C84 1_555 1_555
C85 H51 1_555 1_555
H52 C85 1_555 1_555
H53 C85 1_555 1_555
C86 C87 1_555 1_555
C87 H54 1_555 1_555
H55 C87 1_555 1_555
H56 C87 1_555 1_555
N7 C79 1_555 1_555
N8 C84 1_555 1_555
Ni10 O15 1_555 1_555
Ni12 O16 1_555 1_555
Ni5 O24 1_555 1_555
Ni6 N7 1_555 1_555
O13 C51 1_555 1_555
O14 C51 1_555 1_555
O15 C52 1_555 1_555
O16 C52 1_555 1_555
O17 C64 1_555 1_555
O18 C64 1_555 1_555
O21 C77 1_555 1_555
O22 C77 1_555 1_555
O23 C78 1_555 1_555
O24 C78 1_555 1_555
O25 C86 1_555 1_555
O27 Ni10 1_555 1_555
H59 O27 1_555 1_555
H60 O27 1_555 1_555
O28 Ni5 1_555 1_555
H61 O28 1_555 1_555
H62 O28 1_555 1_555
O30 Ni8 1_555 1_555
H65 O30 1_555 1_555
H66 O30 1_555 1_555
O31 Ni12 1_555 1_555
H67 O31 1_555 1_555
H68 O31 1_555 1_555
O32 Ni5 1_555 1_555
H69 O32 1_555 1_555
H70 O32 1_555 1_555
N9 Ni6 1_555 1_555
N10 Ni8 1_555 1_555
N11 Ni5 1_555 1_555
N12 Ni10 1_555 1_555
N13 Ni12 1_555 1_555
O35 Ni6 1_555 1_555
O36 Ni5 1_555 1_555
O37 Ni6 1_555 1_555
O38 Ni5 1_555 1_555
C44 C45 1_555 1_555
C47 C48 1_555 1_555
C57 C58 1_555 1_555
C60 C61 1_555 1_555
C70 C71 1_555 1_555
C83 N7 1_555 1_555
C85 N8 1_555 1_555
C86 N8 1_555 1_555
Ni8 O13 1_555 1_555
Ni10 O17 1_555 1_555
Ni10 O25 1_555 1_555
Ni12 O21 1_555 1_555
Ni12 O27 1_555 1_555
Ni6 O23 1_555 1_555
Ni6 O28 1_555 1_555
C30 C29 1_555 1_555
H16 C30 1_555 1_555
C31 C30 1_555 1_555
C35 C31 1_555 1_555
C36 C35 1_555 1_555
H20 C36 1_555 1_555
C39 C29 1_555 1_555
O11 C39 1_555 1_555
O38 C39 1_555 1_555
C33 H18 1_555 1_555
C34 C33 1_555 1_555
H19 C34 1_555 1_555
N10 C33 1_555 1_555
C37 N10 1_555 1_555
O36 C26 1_555 1_555
O37 C26 1_555 1_555
H27 C49 1_555 1_555
C50 C49 1_555 1_555
H28 C50 1_555 1_555
C72 H39 1_555 1_555
C73 C72 1_555 1_555
H40 C73 1_555 1_555
H42 C76 1_555 1_555
N13 C72 1_555 1_555
C50 N11 1_555 1_555
C76 N13 1_555 1_555
C1 C2 1_555 1_555
C2 H1 1_555 1_555
C5 C4 1_555 1_555
C6 C1 1_555 1_555
H3 C6 1_555 1_555
C7 C1 1_555 1_555
C9 H4 1_555 1_555
C10 C9 1_555 1_555
H5 C10 1_555 1_555
C11 C5 1_555 1_555
C12 C11 1_555 1_555
H6 C12 1_555 1_555
C13 C12 1_555 1_555
H7 C13 1_555 1_555
C14 C15 1_555 1_555
C15 H8 1_555 1_555
C16 C15 1_555 1_555
C17 C16 1_555 1_555
H9 C17 1_555 1_555
C18 C17 1_555 1_555
C19 C14 1_555 1_555
H10 C19 1_555 1_555
C20 H11 1_555 1_555
C21 C20 1_555 1_555
H12 C21 1_555 1_555
C22 C16 1_555 1_555
C23 C22 1_555 1_555
H13 C23 1_555 1_555
C24 C23 1_555 1_555
H14 C24 1_555 1_555
C25 C14 1_555 1_555
C27 C28 1_555 1_555
C28 H15 1_555 1_555
C32 C27 1_555 1_555
H17 C32 1_555 1_555
C38 C27 1_555 1_555
C59 H32 1_555 1_555
C63 C62 1_555 1_555
H35 C63 1_555 1_555
N9 C9 1_555 1_555
N2 C20 1_555 1_555
N12 C59 1_555 1_555
Ni1 N2 1_555 1_555
O1 C7 1_555 1_555
O2 C7 1_555 1_555
O35 C25 1_555 1_555
O6 C25 1_555 1_555
O9 C38 1_555 1_555
O10 C38 1_555 1_555
O26 Ni1 1_555 1_555
O29 Ni1 1_555 1_555
H63 O29 1_555 1_555
H64 O29 1_555 1_555
O34 Ni1 1_555 1_555
C5 C6 1_555 1_555
C10 C11 1_555 1_555
C13 N9 1_555 1_555
C18 C19 1_555 1_555
C21 C22 1_555 1_555
C24 N2 1_555 1_555
C63 N12 1_555 1_555
Ni1 O1 1_555 1_555
Ni1 O10 1_555 1_555
C8 C3 1_555 1_555
O33 C8 1_555 1_555
O34 C8 1_555 1_555
C8_2 C3_2 1_555 1_555
O3 C8_2 1_555 1_555
O4 C8_2 1_555 1_555
Ni7 O4 1_555 1_555
C1_2 C2_2 1_555 1_555
C2_2 H1_2 1_555 1_555
C5_2 C4_2 1_555 1_555
C6_2 C1_2 1_555 1_555
H3_2 C6_2 1_555 1_555
C7_2 C1_2 1_555 1_555
C9_2 H4_2 1_555 1_555
C10_2 C9_2 1_555 1_555
H5_2 C10_2 1_555 1_555
C11_2 C5_2 1_555 1_555
C12_2 C11_2 1_555 1_555
H6_2 C12_2 1_555 1_555
C13_2 C12_2 1_555 1_555
H7_2 C13_2 1_555 1_555
C14_2 C15_2 1_555 1_555
C15_2 H8_2 1_555 1_555
C16_2 C15_2 1_555 1_555
C17_2 C16_2 1_555 1_555
H9_2 C17_2 1_555 1_555
C18_2 C17_2 1_555 1_555
C19_2 C14_2 1_555 1_555
H10_2 C19_2 1_555 1_555
C20_2 H11_2 1_555 1_555
C21_2 C20_2 1_555 1_555
H12_2 C21_2 1_555 1_555
C22_2 C16_2 1_555 1_555
C23_2 C22_2 1_555 1_555
H13_2 C23_2 1_555 1_555
C24_2 C23_2 1_555 1_555
H14_2 C24_2 1_555 1_555
C25_2 C14_2 1_555 1_555
C27_2 C28_2 1_555 1_555
C28_2 H15_2 1_555 1_555
C32_2 C27_2 1_555 1_555
H17_2 C32_2 1_555 1_555
C38_2 C27_2 1_555 1_555
C59_2 H32_2 1_555 1_555
C63_2 C62_2 1_555 1_555
H35_2 C63_2 1_555 1_555
N1 C9_2 1_555 1_555
N2_2 C20_2 1_555 1_555
N5 C59_2 1_555 1_555
Ni7 N2_2 1_555 1_555
O1_2 C7_2 1_555 1_555
O2_2 C7_2 1_555 1_555
O5 C25_2 1_555 1_555
O6_2 C25_2 1_555 1_555
O9_2 C38_2 1_555 1_555
O10_2 C38_2 1_555 1_555
O26_2 Ni7 1_555 1_555
O29_2 Ni7 1_555 1_555
H63_2 O29_2 1_555 1_555
H64_2 O29_2 1_555 1_555
Ni11 N5 1_555 1_555
Ni18 N1 1_555 1_555
C5_2 C6_2 1_555 1_555
C10_2 C11_2 1_555 1_555
C13_2 N1 1_555 1_555
C18_2 C19_2 1_555 1_555
C21_2 C22_2 1_555 1_555
C24_2 N2_2 1_555 1_555
C63_2 N5 1_555 1_555
Ni7 O1_2 1_555 1_555
Ni7 O10_2 1_555 1_555
O5 Ni18 1_555 1_555
H27_2 C49_2 1_555 1_555
C50_2 C49_2 1_555 1_555
H28_2 C50_2 1_555 1_555
C72_2 H39_2 1_555 1_555
C73_2 C72_2 1_555 1_555
H40_2 C73_2 1_555 1_555
H42_2 C76_2 1_555 1_555
N6 C72_2 1_555 1_555
Ni13 N6 1_555 1_555
Ni16 N4 1_555 1_555
C50_2 N4 1_555 1_555
C76_2 N6 1_555 1_555
O7 C26_2 1_555 1_555
O8 C26_2 1_555 1_555
Ni16 O7 1_555 1_555
Ni18 O8 1_555 1_555
C33_2 H18_2 1_555 1_555
C34_2 C33_2 1_555 1_555
H19_2 C34_2 1_555 1_555
N3 C33_2 1_555 1_555
Ni9 N3 1_555 1_555
C37_2 N3 1_555 1_555
C30_2 C29_2 1_555 1_555
H16_2 C30_2 1_555 1_555
C31_2 C30_2 1_555 1_555
C35_2 C31_2 1_555 1_555
C36_2 C35_2 1_555 1_555
H20_2 C36_2 1_555 1_555
C39_2 C29_2 1_555 1_555
O11_2 C39_2 1_555 1_555
O12 C39_2 1_555 1_555
Ni16 O12 1_555 1_555
C40_2 C41_2 1_555 1_555
C41_2 H22_2 1_555 1_555
C42_2 C41_2 1_555 1_555
C43_2 C42_2 1_555 1_555
H23_2 C43_2 1_555 1_555
C44_2 C43_2 1_555 1_555
C45_2 C40_2 1_555 1_555
H24_2 C45_2 1_555 1_555
C46_2 H25_2 1_555 1_555
C47_2 C46_2 1_555 1_555
H26_2 C47_2 1_555 1_555
C48_2 C42_2 1_555 1_555
C51_2 C40_2 1_555 1_555
C52_2 C44_2 1_555 1_555
C53_2 C54_2 1_555 1_555
C54_2 H29_2 1_555 1_555
C55_2 C54_2 1_555 1_555
C56_2 C55_2 1_555 1_555
H30_2 C56_2 1_555 1_555
C57_2 C56_2 1_555 1_555
C58_2 C53_2 1_555 1_555
H31_2 C58_2 1_555 1_555
H33_2 C60_2 1_555 1_555
C61_2 C55_2 1_555 1_555
C64_2 C53_2 1_555 1_555
C66_2 C67_2 1_555 1_555
C67_2 H36_2 1_555 1_555
C68_2 C67_2 1_555 1_555
C69_2 C68_2 1_555 1_555
H37_2 C69_2 1_555 1_555
C70_2 C69_2 1_555 1_555
C71_2 C66_2 1_555 1_555
H38_2 C71_2 1_555 1_555
C74_2 C70_2 1_555 1_555
C75_2 C74_2 1_555 1_555
H41_2 C75_2 1_555 1_555
C77_2 C66_2 1_555 1_555
C78_2 C68_2 1_555 1_555
C79_2 H43_2 1_555 1_555
C80_2 C79_2 1_555 1_555
H44_2 C80_2 1_555 1_555
H47_2 C83_2 1_555 1_555
C84_2 H48_2 1_555 1_555
H49_2 C84_2 1_555 1_555
H50_2 C84_2 1_555 1_555
C85_2 H51_2 1_555 1_555
H52_2 C85_2 1_555 1_555
H53_2 C85_2 1_555 1_555
C86_2 C87_2 1_555 1_555
C87_2 H54_2 1_555 1_555
H55_2 C87_2 1_555 1_555
H56_2 C87_2 1_555 1_555
N7_2 C79_2 1_555 1_555
N8_2 C84_2 1_555 1_555
Ni11 O15_2 1_555 1_555
Ni13 O16_2 1_555 1_555
Ni16 O24_2 1_555 1_555
Ni18 N7_2 1_555 1_555
O13_2 C51_2 1_555 1_555
O14_2 C51_2 1_555 1_555
O15_2 C52_2 1_555 1_555
O16_2 C52_2 1_555 1_555
O17_2 C64_2 1_555 1_555
O18_2 C64_2 1_555 1_555
O21_2 C77_2 1_555 1_555
O22_2 C77_2 1_555 1_555
O23_2 C78_2 1_555 1_555
O24_2 C78_2 1_555 1_555
O25_2 C86_2 1_555 1_555
O27_2 Ni11 1_555 1_555
H59_2 O27_2 1_555 1_555
H60_2 O27_2 1_555 1_555
O28_2 Ni16 1_555 1_555
H61_2 O28_2 1_555 1_555
H62_2 O28_2 1_555 1_555
O30_2 Ni9 1_555 1_555
H65_2 O30_2 1_555 1_555
H66_2 O30_2 1_555 1_555
O31_2 Ni13 1_555 1_555
H67_2 O31_2 1_555 1_555
H68_2 O31_2 1_555 1_555
O32_2 Ni16 1_555 1_555
H69_2 O32_2 1_555 1_555
H70_2 O32_2 1_555 1_555
O39 Ni11 1_555 1_555
O40 Ni13 1_555 1_555
C44_2 C45_2 1_555 1_555
C47_2 C48_2 1_555 1_555
C57_2 C58_2 1_555 1_555
C60_2 C61_2 1_555 1_555
C70_2 C71_2 1_555 1_555
C83_2 N7_2 1_555 1_555
C85_2 N8_2 1_555 1_555
C86_2 N8_2 1_555 1_555
Ni9 O13_2 1_555 1_555
Ni11 O17_2 1_555 1_555
Ni11 O25_2 1_555 1_555
Ni13 O21_2 1_555 1_555
Ni13 O27_2 1_555 1_555
Ni18 O23_2 1_555 1_555
Ni18 O28_2 1_555 1_555
O39 C65_2 1_555 1_555
O40 C65_2 1_555 1_555
H45 C81 1_555 1_555
C82 C81 1_555 1_555
H46 C82 1_555 1_555
H45_2 C81_2 1_555 1_555
C82_2 C81_2 1_555 1_555
H46_2 C82_2 1_555 1_555

#END
