
###############################################################################
#
# This file contains modified crystal structure data generated from the
# MOF subset of the Cambridge Structural Database (CSD) v543 
# hosted by the Cambridge Crystallographic Data Centre (CCDC).
#
# This work is licensed under the Creative Commons
# Attribution-NonCommercial-ShareAlike 4.0 International License.
# To view a copy of this license, visit
# http://creativecommons.org/licenses/by-nc-sa/4.0/
# or send a letter to
# Creative Commons, PO Box 1866, Mountain View, CA 94042, USA.
#
# CIF created using the CSD Python API on 29 September 2022
# The structure has been converted into the P1 space group
# The structure has a 3D framework
# The original CSD entry XOMDOU is in the hexagonal crystal system
# The original CSD entry XOMDOU is in a Sohncke space group
# The framework has been calculated to contain at least 10.0% void space
# The void calculation uses a probe of radius 1.32A, grid spacing 0.4
# The framework is charged, counterions have been retained in the structure
#
###############################################################################

data_XOMDOU
_chemical_formula_moiety         '(C264 H240 Ag18 F108 N72 O24 Sb24 6-)n'
_symmetry_cell_setting           triclinic
_symmetry_space_group_name_H-M   'P 1'
_symmetry_Int_Tables_number      1
_space_group_name_Hall           'P 1'
loop_
_symmetry_equiv_pos_site_id
_symmetry_equiv_pos_as_xyz
1 x,y,z
_cell_length_a                   15.825(5)
_cell_length_b                   15.825(5)
_cell_length_c                   43.703(19)
_cell_angle_alpha                90
_cell_angle_beta                 90
_cell_angle_gamma                120
_cell_volume                     9478.28
loop_
_atom_site_label
_atom_site_type_symbol
_atom_site_fract_x
_atom_site_fract_y
_atom_site_fract_z
C38 C 0.53611(17) 0.02338(15) 0.08960(6)
H36 H 0.5968 0.0375 0.0983
C39 C 0.43860(17) 0.07429(16) 0.06320(6)
C40 C 0.42496(19) 0.14741(18) 0.05145(7)
H37 H 0.4759 0.2136 0.0520
C41 C 0.3368(2) 0.12234(19) 0.03916(7)
H38 H 0.3267 0.1718 0.0306
C42 C 0.2591(2) 0.0243(2) 0.03871(7)
H39 H 0.1983 0.0085 0.0297
N12 N 0.52775(14) 0.09463(13) 0.07685(5)
O3 O 0.60143(12) 0.18444(12) 0.07634(5)
Ag6 Ag 0.773129(12) 0.226869(23) 0.0834
Ag1 Ag 0.413163(10) 0.586837(10) 0.0833
Ag2 Ag 0.247573(10) 0.752427(10) 0.0833
C1 C 0.58777(16) 0.66765(16) 0.03511(5)
C2 C 0.63950(17) 0.65174(19) 0.05893(6)
H1 H 0.6079 0.6249 0.0779
C3 C 0.73437(17) 0.6748(2) 0.05479(7)
H2 H 0.7673 0.6614 0.0706
C4 C 0.78456(18) 0.7192(2) 0.02689(7)
H3 H 0.8509 0.7361 0.0245
C5 C 0.73790(16) 0.73747(17) 0.00352(6)
C6 C 0.64003(15) 0.70877(15) 0.00738(5)
C8 C 0.45110(15) 0.66488(14) 0.01676(5)
C9 C 0.35199(16) 0.65086(16) 0.02149(6)
H7 H 0.2575 0.6949 0.0068
C12 C 0.1292(2) 0.3704(2) 0.07719(8)
H11 H 0.1847 0.4090 0.0908
H12 H 0.1335 0.3147 0.0692
H13 H 0.0682 0.3467 0.0886
C13 C 0.13125(18) 0.43402(17) 0.05054(7)
H14 H 0.1829 0.4427 0.0360
H15 H 0.0680 0.3999 0.0396
C14 C 0.14946(15) 0.53143(17) 0.06048(6)
C15 C 0.07175(15) 0.54193(17) 0.07609(6)
C21 C 0.04601(18) 0.72796(18) 0.11559(7)
H20 H 0.1114 0.7806 0.1157
C22 C 0.02517(16) 0.63737(17) 0.10232(6)
N2 N 0.49602(13) 0.64793(13) 0.03976(5)
N3 N 0.31257(13) 0.61222(13) 0.04712(5)
N4 N 0.22864(13) 0.61122(13) 0.05670(5)
N5 N 0.09657(14) 0.62856(14) 0.08927(5)
C23 C 0.33235(16) 0.41223(16) 0.13156(5)
C24 C 0.34826(19) 0.36050(17) 0.10774(6)
H21 H 0.3751 0.3921 0.0888
C25 C 0.3252(2) 0.26563(17) 0.11188(7)
H22 H 0.3386 0.2327 0.0961
C26 C 0.2808(2) 0.21544(18) 0.13978(7)
H23 H 0.2639 0.1491 0.1422
C27 C 0.26253(17) 0.26210(16) 0.16315(6)
H24 H 0.2312 0.2285 0.1814
C28 C 0.29123(15) 0.35997(15) 0.15929(5)
C29 C 0.30035(15) 0.50390(15) 0.17867(6)
H25 H 0.2916 0.5391 0.1948
C30 C 0.33512(14) 0.54890(15) 0.14991(5)
C31 C 0.34914(16) 0.64801(16) 0.14518(6)
C32 C 0.32184(16) 0.69613(15) 0.16952(6)
H26 H 0.2633 0.6460 0.1805
H27 H 0.3051 0.7425 0.1599
C33 C 0.4039(2) 0.7506(2) 0.19245(7)
H28 H 0.4228 0.7056 0.2014
H29 H 0.3816 0.7775 0.2087
H30 H 0.4602 0.8039 0.1821
C34 C 0.6296(2) 0.8708(2) 0.08948(8)
H31 H 0.5910 0.8153 0.0759
H32 H 0.6853 0.8665 0.0975
H33 H 0.6533 0.9318 0.0781
C35 C 0.56598(17) 0.86875(18) 0.11613(7)
H34 H 0.5573 0.8171 0.1307
H35 H 0.6001 0.9320 0.1271
C36 C 0.46857(17) 0.85054(15) 0.10619(6)
C37 C 0.45807(17) 0.92825(15) 0.09058(6)
C43 C 0.27204(18) 0.95399(18) 0.05108(7)
H40 H 0.2194 0.8886 0.0510
C44 C 0.36263(17) 0.97483(16) 0.06435(6)
N7 N 0.28014(13) 0.41367(13) 0.18315(4)
N8 N 0.35207(13) 0.50398(13) 0.12691(5)
N9 N 0.38778(13) 0.68743(13) 0.11955(5)
N10 N 0.38878(13) 0.77136(13) 0.10997(5)
N11 N 0.37144(14) 0.90343(14) 0.07740(5)
O4 O 0.25085(12) 0.37048(11) 0.20992(4)
Ag4 Ag 0.226869(23) 0.45374(2) 0.2500
Ag3 Ag 0.54626(2) 0.773129(12) 0.9167
H4 H 0.7715 0.7688 0.9853
C7 C 0.49610(15) 0.69965(15) 0.98800(6)
H5 H 0.4609 0.7084 0.9719
C10 C 0.30387(15) 0.67816(16) 0.99715(6)
H6 H 0.3540 0.7367 0.9862
C11 C 0.2494(2) 0.5961(2) 0.97422(7)
H8 H 0.2944 0.5772 0.9653
H9 H 0.2225 0.6184 0.9580
H10 H 0.1961 0.5398 0.9846
N1 N 0.58633(13) 0.71986(13) 0.98352(4)
O2 O 0.62952(11) 0.74915(12) 0.95675(4)
O5 O 0.41699(17) 0.81556(12) 0.92366(5)
O6 O 0.41699(17) 0.60143(12) 0.90967(5)
O7 O 0.62952(11) 0.88037(16) 0.87658(4)
C16 C 0.97662(15) 0.46389(17) 0.07707(6)
H16 H 0.9625 0.4032 0.0684
C17 C 0.92571(16) 0.56140(17) 0.10347(6)
C18 C 0.85259(18) 0.57504(19) 0.11522(7)
H17 H 0.7864 0.5241 0.1147
C19 C 0.87766(19) 0.6632(2) 0.12751(7)
H18 H 0.8282 0.6733 0.1361
C20 C 0.9757(2) 0.7409(2) 0.12796(7)
H19 H 0.9915 0.8017 0.1370
N6 N 0.90537(13) 0.47225(14) 0.08982(5)
O1 O 0.81556(12) 0.39857(12) 0.09033(5)
Ag1_2 Ag 0.413163(10) 0.826326(14) 0.7500
Ag2_2 Ag 0.247573(10) 0.495146(14) 0.7500
Ag3_2 Ag 0.226871(12) 0.773131(23) 0.5834
C1_2 C 0.33235(16) 0.92012(23) 0.70178(5)
C2_2 C 0.34826(19) 0.98776(25) 0.72560(6)
H1_2 H 0.3751 0.9830 0.7446
C6_2 C 0.29123(15) 0.93126(21) 0.67405(5)
C7_2 C 0.30035(15) 0.79645(21) 0.65467(6)
H5_2 H 0.2916 0.7525 0.6386
C8_2 C 0.33512(14) 0.78622(21) 0.68343(5)
C9_2 C 0.34914(16) 0.70113(23) 0.68816(6)
C10_2 C 0.32184(16) 0.62571(22) 0.66382(6)
H6_2 H 0.2633 0.6173 0.6529
H7_2 H 0.3051 0.5626 0.6735
C11_2 C 0.4039(2) 0.6533(3) 0.64089(7)
H8_2 H 0.4228 0.7172 0.6320
H9_2 H 0.3816 0.6041 0.6247
H10_2 H 0.4602 0.6563 0.6513
C12_2 C 0.6296(2) 0.7588(3) 0.74386(8)
H11_2 H 0.5910 0.7757 0.7575
H12_2 H 0.6853 0.8188 0.7359
H13_2 H 0.6533 0.7215 0.7553
C13_2 C 0.56598(17) 0.69723(25) 0.71721(7)
H14_2 H 0.5573 0.7402 0.7027
H15_2 H 0.6001 0.6681 0.7063
C14_2 C 0.46857(17) 0.61803(23) 0.72715(6)
C15_2 C 0.45807(17) 0.52982(23) 0.74276(6)
C16_2 C 0.53611(17) 0.51273(23) 0.74374(6)
H16_2 H 0.5968 0.5593 0.7351
C17_2 C 0.43860(17) 0.36431(23) 0.77014(6)
C18_2 C 0.42496(19) 0.27755(26) 0.78189(7)
H17_2 H 0.4759 0.2623 0.7814
C19_2 C 0.3368(2) 0.21446(28) 0.79418(7)
H18_2 H 0.3267 0.1549 0.8028
C20_2 C 0.2591(2) 0.2348(3) 0.79463(7)
H19_2 H 0.1983 0.1898 0.8037
C21_2 C 0.27204(18) 0.31805(25) 0.78226(7)
H20_2 H 0.2194 0.3308 0.7824
C22_2 C 0.36263(17) 0.38780(23) 0.76899(6)
N1_2 N 0.28014(13) 0.86647(18) 0.65019(4)
N2_2 N 0.35207(13) 0.84809(18) 0.70643(5)
N3_2 N 0.38778(13) 0.70035(18) 0.71379(5)
N4_2 N 0.38878(13) 0.61742(18) 0.72337(5)
N5_2 N 0.37144(14) 0.46801(20) 0.75594(5)
N6_2 N 0.52775(14) 0.43312(19) 0.75649(5)
O1_2 O 0.60143(12) 0.41699(17) 0.75700(5)
O2_2 O 0.25085(12) 0.88037(16) 0.62342(4)
C23_2 C 0.58777(16) 0.92012(23) 0.79822(5)
C24_2 C 0.63950(17) 0.98776(25) 0.77440(6)
H21_2 H 0.6079 0.9830 0.7554
C28_2 C 0.64003(15) 0.93126(21) 0.82595(5)
C29_2 C 0.49610(15) 0.79645(21) 0.84533(6)
H25_2 H 0.4609 0.7525 0.8614
C30_2 C 0.45110(15) 0.78622(21) 0.81657(5)
C31_2 C 0.35199(16) 0.70113(23) 0.81184(6)
C32_2 C 0.30387(15) 0.62571(22) 0.83618(6)
H26_2 H 0.3540 0.6173 0.8471
H27_2 H 0.2575 0.5626 0.8265
C33_2 C 0.2494(2) 0.6533(3) 0.85911(7)
H28_2 H 0.2944 0.7172 0.8680
H29_2 H 0.2225 0.6041 0.8753
H30_2 H 0.1961 0.6563 0.8487
C34_2 C 0.1292(2) 0.7588(3) 0.75614(8)
H31_2 H 0.1847 0.7757 0.7425
H32_2 H 0.1335 0.8188 0.7641
H33_2 H 0.0682 0.7215 0.7447
C35_2 C 0.13125(18) 0.69723(25) 0.78279(7)
H34_2 H 0.1829 0.7402 0.7973
H35_2 H 0.0680 0.6681 0.7937
C36_2 C 0.14946(15) 0.61803(23) 0.77285(6)
C37_2 C 0.07175(15) 0.52982(23) 0.75724(6)
C43_2 C 0.04601(18) 0.31805(25) 0.71774(7)
H40_2 H 0.1114 0.3308 0.7176
C44_2 C 0.02517(16) 0.38780(23) 0.73101(6)
N7_2 N 0.58633(13) 0.86647(18) 0.84981(4)
N8_2 N 0.49602(13) 0.84809(18) 0.79357(5)
N9_2 N 0.31257(13) 0.70035(18) 0.78621(5)
N10_2 N 0.22864(13) 0.61742(18) 0.77663(5)
N11_2 N 0.09657(14) 0.46801(20) 0.74406(5)
Ag5 Ag 0.773131(23) 0.546260(26) 0.7500
O5_2 O 0.18444(12) 0.60143(21) 0.59033(5)
O6_2 O 0.39857(12) 0.81556(21) 0.57634(5)
O7_2 O 0.11963(16) 0.74915(19) 0.54325(4)
C38_2 C 0.97662(15) 0.51273(23) 0.75626(6)
H36_2 H 0.9625 0.5593 0.7649
C39_2 C 0.92571(16) 0.36431(23) 0.72986(6)
C40_2 C 0.85259(18) 0.27755(26) 0.71811(7)
H37_2 H 0.7864 0.2623 0.7186
C41_2 C 0.87766(19) 0.21446(28) 0.70582(7)
H38_2 H 0.8282 0.1549 0.6972
C42_2 C 0.9757(2) 0.2348(3) 0.70537(7)
H39_2 H 0.9915 0.1898 0.6963
N12_2 N 0.90537(13) 0.43312(19) 0.74351(5)
O3_2 O 0.81556(12) 0.41699(17) 0.74300(5)
C16_3 C 0.48727(23) 0.02338(15) 0.41040(6)
H16_3 H 0.4407 0.0375 0.4017
C17_3 C 0.63569(23) 0.07429(16) 0.43680(6)
C18_3 C 0.72245(26) 0.14741(18) 0.44855(7)
H17_3 H 0.7377 0.2136 0.4480
C19_3 C 0.78554(28) 0.12234(19) 0.46084(7)
H18_3 H 0.8451 0.1718 0.4694
C20_3 C 0.7652(3) 0.0243(2) 0.46129(7)
H19_3 H 0.8102 0.0085 0.4703
N6_3 N 0.56688(19) 0.09463(13) 0.42315(5)
O1_3 O 0.58301(17) 0.18444(12) 0.42366(5)
Ag5_2 Ag 0.453740(26) 0.226871(12) 0.4167
Ag1_3 Ag 0.173674(14) 0.586837(10) 0.4166
Ag2_3 Ag 0.504854(14) 0.752427(10) 0.4166
C1_3 C 0.07988(23) 0.41223(16) 0.36844(5)
C2_3 C 0.01224(25) 0.36050(17) 0.39226(6)
H1_3 H 0.0170 0.3921 0.4112
C6_3 C 0.06874(21) 0.35997(15) 0.34071(5)
C7_3 C 0.20355(21) 0.50390(15) 0.32133(6)
H5_3 H 0.2475 0.5391 0.3052
C8_3 C 0.21378(21) 0.54890(15) 0.35009(5)
C9_3 C 0.29887(23) 0.64801(16) 0.35482(6)
C10_3 C 0.37429(22) 0.69613(15) 0.33048(6)
H6_3 H 0.3827 0.6460 0.3195
H7_3 H 0.4374 0.7425 0.3401
C11_3 C 0.3467(3) 0.7506(2) 0.30755(7)
H8_3 H 0.2828 0.7056 0.2986
H9_3 H 0.3959 0.7775 0.2913
H10_3 H 0.3437 0.8039 0.3179
C12_3 C 0.2412(3) 0.8708(2) 0.41052(8)
H11_3 H 0.2243 0.8153 0.4241
H12_3 H 0.1812 0.8665 0.4025
H13_3 H 0.2785 0.9318 0.4219
C13_3 C 0.30277(25) 0.86875(18) 0.38387(7)
H14_3 H 0.2598 0.8171 0.3693
H15_3 H 0.3319 0.9320 0.3729
C14_3 C 0.38197(23) 0.85054(15) 0.39381(6)
C15_3 C 0.47018(23) 0.92825(15) 0.40942(6)
C21_3 C 0.68195(25) 0.95399(18) 0.44892(7)
H20_3 H 0.6692 0.8886 0.4490
C22_3 C 0.61220(23) 0.97483(16) 0.43565(6)
N1_3 N 0.13353(18) 0.41367(13) 0.31685(4)
N2_3 N 0.15191(18) 0.50398(13) 0.37309(5)
N3_3 N 0.29965(18) 0.68743(13) 0.38045(5)
N4_3 N 0.38258(18) 0.77136(13) 0.39003(5)
N5_3 N 0.53199(20) 0.90343(14) 0.42260(5)
O2_3 O 0.11963(16) 0.37048(11) 0.29008(4)
C23_3 C 0.07988(23) 0.66765(16) 0.46489(5)
C24_3 C 0.01224(25) 0.65174(19) 0.44107(6)
H21_3 H 0.0170 0.6249 0.4221
C28_3 C 0.06874(21) 0.70877(15) 0.49262(5)
C29_3 C 0.20355(21) 0.69965(15) 0.51200(6)
H25_3 H 0.2475 0.7084 0.5281
C30_3 C 0.21378(21) 0.66488(14) 0.48324(5)
C31_3 C 0.29887(23) 0.65086(16) 0.47851(6)
C32_3 C 0.37429(22) 0.67816(16) 0.50285(6)
H26_3 H 0.3827 0.7367 0.5138
H27_3 H 0.4374 0.6949 0.4932
C33_3 C 0.3467(3) 0.5961(2) 0.52578(7)
H28_3 H 0.2828 0.5772 0.5347
H29_3 H 0.3959 0.6184 0.5420
H30_3 H 0.3437 0.5398 0.5154
C34_3 C 0.2412(3) 0.3704(2) 0.42281(8)
H31_3 H 0.2243 0.4090 0.4092
H32_3 H 0.1812 0.3147 0.4308
H33_3 H 0.2785 0.3467 0.4114
C35_3 C 0.30277(25) 0.43402(17) 0.44946(7)
H34_3 H 0.2598 0.4427 0.4640
H35_3 H 0.3319 0.3999 0.4604
C36_3 C 0.38197(23) 0.53143(17) 0.43952(6)
C37_3 C 0.47018(23) 0.54193(17) 0.42391(6)
C38_3 C 0.48727(23) 0.46389(17) 0.42293(6)
H36_3 H 0.4407 0.4032 0.4316
C39_3 C 0.63569(23) 0.56140(17) 0.39653(6)
C40_3 C 0.72245(26) 0.57504(19) 0.38478(7)
H37_3 H 0.7377 0.5241 0.3853
C41_3 C 0.78554(28) 0.6632(2) 0.37249(7)
H38_3 H 0.8451 0.6733 0.3639
C42_3 C 0.7652(3) 0.7409(2) 0.37204(7)
H39_3 H 0.8102 0.8017 0.3630
C43_3 C 0.68195(25) 0.72796(18) 0.38441(7)
H40_3 H 0.6692 0.7806 0.3843
C44_3 C 0.61220(23) 0.63737(17) 0.39768(6)
N7_3 N 0.13353(18) 0.71986(13) 0.51648(4)
N8_3 N 0.15191(18) 0.64793(13) 0.46024(5)
N9_3 N 0.29965(18) 0.61222(13) 0.45288(5)
N10_3 N 0.38258(18) 0.61122(13) 0.44330(5)
N11_3 N 0.53199(20) 0.62856(14) 0.41073(5)
N12_3 N 0.56688(19) 0.47225(14) 0.41018(5)
O3_3 O 0.58301(17) 0.39857(12) 0.40967(5)
O5_3 O 0.39857(21) 0.58301(17) 0.25700(5)
O6_3 O 0.18444(21) 0.58301(17) 0.24300(5)
C16_4 C 0.02338(15) 0.53611(17) 0.57707(6)
H16_4 H 0.0375 0.5968 0.5684
C17_4 C 0.07429(16) 0.43860(17) 0.60347(6)
C18_4 C 0.14741(18) 0.42496(19) 0.61522(7)
H17_4 H 0.2136 0.4759 0.6147
C19_4 C 0.12234(19) 0.3368(2) 0.62751(7)
H18_4 H 0.1718 0.3267 0.6361
C20_4 C 0.0243(2) 0.2591(2) 0.62796(7)
H19_4 H 0.0085 0.1983 0.6370
N6_4 N 0.09463(13) 0.52775(14) 0.58982(5)
Ag1_4 Ag 0.586837(10) 0.413163(10) 0.5833
Ag2_4 Ag 0.752427(10) 0.247573(10) 0.5833
C1_4 C 0.41223(16) 0.33235(16) 0.53511(5)
C2_4 C 0.36050(17) 0.34826(19) 0.55893(6)
H1_4 H 0.3921 0.3751 0.5779
C3_2 C 0.26563(17) 0.3252(2) 0.55479(7)
H2_2 H 0.2327 0.3386 0.5706
C4_2 C 0.21544(18) 0.2808(2) 0.52689(7)
H3_2 H 0.1491 0.2639 0.5245
C5_2 C 0.26210(16) 0.26253(17) 0.50352(6)
H4_2 H 0.2285 0.2312 0.4853
C6_4 C 0.35997(15) 0.29123(15) 0.50738(5)
C7_4 C 0.50390(15) 0.30035(15) 0.48800(6)
H5_4 H 0.5391 0.2916 0.4719
C8_4 C 0.54890(15) 0.33512(14) 0.51676(5)
C9_4 C 0.64801(16) 0.34914(16) 0.52149(6)
C10_4 C 0.69613(15) 0.32184(16) 0.49715(6)
H6_4 H 0.6460 0.2633 0.4862
H7_4 H 0.7425 0.3051 0.5068
C11_4 C 0.7506(2) 0.4039(2) 0.47422(7)
H8_4 H 0.7056 0.4228 0.4653
H9_4 H 0.7775 0.3816 0.4580
H10_4 H 0.8039 0.4602 0.4846
C12_4 C 0.8708(2) 0.6296(2) 0.57719(8)
H11_4 H 0.8153 0.5910 0.5908
H12_4 H 0.8665 0.6853 0.5692
H13_4 H 0.9318 0.6533 0.5886
C13_4 C 0.86875(18) 0.56598(17) 0.55054(7)
H14_4 H 0.8171 0.5573 0.5360
H15_4 H 0.9320 0.6001 0.5396
C14_4 C 0.85054(15) 0.46857(17) 0.56048(6)
C15_4 C 0.92825(15) 0.45807(17) 0.57609(6)
C21_4 C 0.95399(18) 0.27204(18) 0.61559(7)
H20_4 H 0.8886 0.2194 0.6157
C22_4 C 0.97483(16) 0.36263(17) 0.60232(6)
N1_4 N 0.41367(13) 0.28014(13) 0.48352(4)
N2_4 N 0.50398(13) 0.35207(13) 0.53976(5)
N3_4 N 0.68743(13) 0.38778(13) 0.54712(5)
N4_4 N 0.77136(13) 0.38878(13) 0.55670(5)
N5_4 N 0.90343(14) 0.37144(14) 0.58927(5)
O2_4 O 0.37048(11) 0.25085(12) 0.45675(4)
C23_4 C 0.66765(16) 0.58777(16) 0.63156(5)
C24_4 C 0.65174(19) 0.63950(17) 0.60774(6)
H21_4 H 0.6249 0.6079 0.5888
C25_2 C 0.6748(2) 0.73437(17) 0.61188(7)
H22_2 H 0.6614 0.7673 0.5961
C26_2 C 0.7192(2) 0.78456(18) 0.63978(7)
H23_2 H 0.7361 0.8509 0.6422
C27_2 C 0.73747(17) 0.73790(16) 0.66315(6)
H24_2 H 0.7688 0.7715 0.6814
C28_4 C 0.70877(15) 0.64003(15) 0.65929(5)
C29_4 C 0.69965(15) 0.49610(15) 0.67867(6)
H25_4 H 0.7084 0.4609 0.6948
C30_4 C 0.66488(14) 0.45110(15) 0.64991(5)
C31_4 C 0.65086(16) 0.35199(16) 0.64518(6)
C32_4 C 0.67816(16) 0.30387(15) 0.66952(6)
H26_4 H 0.7367 0.3540 0.6805
H27_4 H 0.6949 0.2575 0.6599
C33_4 C 0.5961(2) 0.2494(2) 0.69245(7)
H28_4 H 0.5772 0.2944 0.7014
H29_4 H 0.6184 0.2225 0.7087
H30_4 H 0.5398 0.1961 0.6821
C34_4 C 0.3704(2) 0.1292(2) 0.58948(8)
H31_4 H 0.4090 0.1847 0.5759
H32_4 H 0.3147 0.1335 0.5975
H33_4 H 0.3467 0.0682 0.5781
C35_4 C 0.43402(17) 0.13125(18) 0.61613(7)
H34_4 H 0.4427 0.1829 0.6307
H35_4 H 0.3999 0.0680 0.6271
C36_4 C 0.53143(17) 0.14946(15) 0.60619(6)
C37_4 C 0.54193(17) 0.07175(15) 0.59058(6)
C43_4 C 0.72796(18) 0.04601(18) 0.55108(7)
H40_4 H 0.7806 0.1114 0.5510
C44_4 C 0.63737(17) 0.02517(16) 0.56435(6)
N7_4 N 0.71986(13) 0.58633(13) 0.68315(4)
N8_4 N 0.64793(13) 0.49602(13) 0.62691(5)
N9_4 N 0.61222(13) 0.31257(13) 0.61955(5)
N10_4 N 0.61122(13) 0.22864(13) 0.60997(5)
N11_4 N 0.62856(14) 0.09657(14) 0.57740(5)
O4_2 O 0.74915(12) 0.62952(11) 0.70992(4)
O7_3 O 0.37048(11) 0.11963(16) 0.37658(4)
C38_4 C 0.46389(17) 0.97662(15) 0.58960(6)
H36_4 H 0.4032 0.9625 0.5983
C39_4 C 0.56140(17) 0.92571(16) 0.56320(6)
C40_4 C 0.57504(19) 0.85259(18) 0.55145(7)
H37_4 H 0.5241 0.7864 0.5520
C41_4 C 0.6632(2) 0.87766(19) 0.53916(7)
H38_4 H 0.6733 0.8282 0.5306
C42_4 C 0.7409(2) 0.9757(2) 0.53871(7)
H39_4 H 0.8017 0.9915 0.5297
N12_4 N 0.47225(14) 0.90537(13) 0.57685(5)
C38_5 C 0.02338(15) 0.48727(23) 0.25626(6)
H36_5 H 0.0375 0.4407 0.2649
C39_5 C 0.07429(16) 0.63569(23) 0.22986(6)
C40_5 C 0.14741(18) 0.72245(26) 0.21811(7)
H37_5 H 0.2136 0.7377 0.2186
C41_5 C 0.12234(19) 0.78554(28) 0.20582(7)
H38_5 H 0.1718 0.8451 0.1972
C42_5 C 0.0243(2) 0.7652(3) 0.20537(7)
H39_5 H 0.0085 0.8102 0.1963
N12_5 N 0.09463(13) 0.56688(19) 0.24351(5)
Ag1_5 Ag 0.586837(10) 0.173674(14) 0.2500
Ag2_5 Ag 0.752427(10) 0.504854(14) 0.2500
C1_5 C 0.66765(16) 0.07988(23) 0.20178(5)
C2_5 C 0.65174(19) 0.01224(25) 0.22560(6)
H1_5 H 0.6249 0.0170 0.2446
C6_5 C 0.70877(15) 0.06874(21) 0.17405(5)
C7_5 C 0.69965(15) 0.20355(21) 0.15467(6)
H5_5 H 0.7084 0.2475 0.1386
C8_5 C 0.66488(14) 0.21378(21) 0.18343(5)
C9_5 C 0.65086(16) 0.29887(23) 0.18816(6)
C10_5 C 0.67816(16) 0.37429(22) 0.16382(6)
H6_5 H 0.7367 0.3827 0.1529
H7_5 H 0.6949 0.4374 0.1735
C11_5 C 0.5961(2) 0.3467(3) 0.14089(7)
H8_5 H 0.5772 0.2828 0.1320
H9_5 H 0.6184 0.3959 0.1247
H10_5 H 0.5398 0.3437 0.1513
C12_5 C 0.3704(2) 0.2412(3) 0.24386(8)
H11_5 H 0.4090 0.2243 0.2575
H12_5 H 0.3147 0.1812 0.2359
H13_5 H 0.3467 0.2785 0.2553
C13_5 C 0.43402(17) 0.30277(25) 0.21721(7)
H14_5 H 0.4427 0.2598 0.2027
H15_5 H 0.3999 0.3319 0.2063
C14_5 C 0.53143(17) 0.38197(23) 0.22715(6)
C15_5 C 0.54193(17) 0.47018(23) 0.24276(6)
C16_5 C 0.46389(17) 0.48727(23) 0.24374(6)
H16_5 H 0.4032 0.4407 0.2351
C17_5 C 0.56140(17) 0.63569(23) 0.27014(6)
C18_5 C 0.57504(19) 0.72245(26) 0.28189(7)
H17_5 H 0.5241 0.7377 0.2814
C19_5 C 0.6632(2) 0.78554(28) 0.29418(7)
H18_5 H 0.6733 0.8451 0.3028
C20_5 C 0.7409(2) 0.7652(3) 0.29463(7)
H19_5 H 0.8017 0.8102 0.3037
C21_5 C 0.72796(18) 0.68195(25) 0.28226(7)
H20_5 H 0.7806 0.6692 0.2824
C22_5 C 0.63737(17) 0.61220(23) 0.26899(6)
N1_5 N 0.71986(13) 0.13353(18) 0.15019(4)
N2_5 N 0.64793(13) 0.15191(18) 0.20643(5)
N3_5 N 0.61222(13) 0.29965(18) 0.21379(5)
N4_5 N 0.61122(13) 0.38258(18) 0.22337(5)
N5_5 N 0.62856(14) 0.53199(20) 0.25594(5)
N6_5 N 0.47225(14) 0.56688(19) 0.25649(5)
O2_5 O 0.74915(12) 0.11963(16) 0.12342(4)
C23_5 C 0.41223(16) 0.07988(23) 0.29822(5)
C24_5 C 0.36050(17) 0.01224(25) 0.27440(6)
H21_5 H 0.3921 0.0170 0.2554
C28_5 C 0.35997(15) 0.06874(21) 0.32595(5)
C29_5 C 0.50390(15) 0.20355(21) 0.34533(6)
H25_5 H 0.5391 0.2475 0.3614
C30_5 C 0.54890(15) 0.21378(21) 0.31657(5)
C31_5 C 0.64801(16) 0.29887(23) 0.31184(6)
C32_5 C 0.69613(15) 0.37429(22) 0.33618(6)
H26_5 H 0.6460 0.3827 0.3471
H27_5 H 0.7425 0.4374 0.3265
C33_5 C 0.7506(2) 0.3467(3) 0.35911(7)
H28_5 H 0.7056 0.2828 0.3680
H29_5 H 0.7775 0.3959 0.3753
H30_5 H 0.8039 0.3437 0.3487
C34_5 C 0.8708(2) 0.2412(3) 0.25614(8)
H31_5 H 0.8153 0.2243 0.2425
H32_5 H 0.8665 0.1812 0.2641
H33_5 H 0.9318 0.2785 0.2447
C35_5 C 0.86875(18) 0.30277(25) 0.28279(7)
H34_5 H 0.8171 0.2598 0.2973
H35_5 H 0.9320 0.3319 0.2937
C36_5 C 0.85054(15) 0.38197(23) 0.27285(6)
C37_5 C 0.92825(15) 0.47018(23) 0.25724(6)
C43_5 C 0.95399(18) 0.68195(25) 0.21774(7)
H40_5 H 0.8886 0.6692 0.2176
C44_5 C 0.97483(16) 0.61220(23) 0.23101(6)
N7_5 N 0.41367(13) 0.13353(18) 0.34981(4)
N8_5 N 0.50398(13) 0.15191(18) 0.29357(5)
N9_5 N 0.68743(13) 0.29965(18) 0.28621(5)
N10_5 N 0.77136(13) 0.38258(18) 0.27663(5)
N11_5 N 0.90343(14) 0.53199(20) 0.24406(5)
O7_4 O 0.88037(16) 0.25085(19) 0.04325(4)
C29_6 C 0.79645(21) 0.30035(15) 0.01200(6)
H25_6 H 0.7525 0.2916 0.0281
C32_6 C 0.62571(22) 0.32184(16) 0.00285(6)
H26_6 H 0.6173 0.2633 0.0138
C33_6 C 0.6533(3) 0.4039(2) 0.02578(7)
H28_6 H 0.7172 0.4228 0.0347
H29_6 H 0.6041 0.3816 0.0420
H30_6 H 0.6563 0.4602 0.0154
N7_6 N 0.86647(18) 0.28014(13) 0.01648(4)
Ag1_6 Ag 0.826326(14) 0.413163(10) 0.9166
Ag2_6 Ag 0.495146(14) 0.247573(10) 0.9166
C1_6 C 0.92012(23) 0.58777(16) 0.86844(5)
C2_6 C 0.98776(25) 0.63950(17) 0.89226(6)
H1_6 H 0.9830 0.6079 0.9112
C6_6 C 0.93126(21) 0.64003(15) 0.84071(5)
C7_6 C 0.79645(21) 0.49610(15) 0.82133(6)
H5_6 H 0.7525 0.4609 0.8052
C8_6 C 0.78622(21) 0.45110(15) 0.85009(5)
C9_6 C 0.70113(23) 0.35199(16) 0.85482(6)
C10_6 C 0.62571(22) 0.30387(15) 0.83048(6)
H6_6 H 0.6173 0.3540 0.8195
H7_6 H 0.5626 0.2575 0.8401
C11_6 C 0.6533(3) 0.2494(2) 0.80755(7)
H8_6 H 0.7172 0.2944 0.7986
H9_6 H 0.6041 0.2225 0.7913
H10_6 H 0.6563 0.1961 0.8179
C12_6 C 0.7588(3) 0.1292(2) 0.91052(8)
H11_6 H 0.7757 0.1847 0.9241
H12_6 H 0.8188 0.1335 0.9025
H13_6 H 0.7215 0.0682 0.9219
C13_6 C 0.69723(25) 0.13125(18) 0.88387(7)
H14_6 H 0.7402 0.1829 0.8693
H15_6 H 0.6681 0.0680 0.8729
C14_6 C 0.61803(23) 0.14946(15) 0.89381(6)
C15_6 C 0.52982(23) 0.07175(15) 0.90942(6)
C21_6 C 0.31805(25) 0.04601(18) 0.94892(7)
H20_6 H 0.3308 0.1114 0.9490
C22_6 C 0.38780(23) 0.02517(16) 0.93565(6)
N1_6 N 0.86647(18) 0.58633(13) 0.81685(4)
N2_6 N 0.84809(18) 0.49602(13) 0.87309(5)
N3_6 N 0.70035(18) 0.31257(13) 0.88045(5)
N4_6 N 0.61742(18) 0.22864(13) 0.89003(5)
N5_6 N 0.46801(20) 0.09657(14) 0.92260(5)
O2_6 O 0.88037(16) 0.62952(11) 0.79008(4)
C23_6 C 0.92012(23) 0.33235(16) 0.96489(5)
C24_6 C 0.98776(25) 0.34826(19) 0.94107(6)
H21_6 H 0.9830 0.3751 0.9221
C28_6 C 0.93126(21) 0.29123(15) 0.99262(5)
C30_6 C 0.78622(21) 0.33512(14) 0.98324(5)
C31_6 C 0.70113(23) 0.34914(16) 0.97851(6)
H27_6 H 0.5626 0.3051 0.9932
C34_6 C 0.7588(3) 0.6296(2) 0.92281(8)
H31_6 H 0.7757 0.5910 0.9092
H32_6 H 0.8188 0.6853 0.9308
H33_6 H 0.7215 0.6533 0.9114
C35_6 C 0.69723(25) 0.56598(17) 0.94946(7)
H34_6 H 0.7402 0.5573 0.9640
H35_6 H 0.6681 0.6001 0.9604
C36_6 C 0.61803(23) 0.46857(17) 0.93952(6)
C37_6 C 0.52982(23) 0.45807(17) 0.92391(6)
C38_6 C 0.51273(23) 0.53611(17) 0.92293(6)
H36_6 H 0.5593 0.5968 0.9316
C39_6 C 0.36431(23) 0.43860(17) 0.89653(6)
C40_6 C 0.27755(26) 0.42496(19) 0.88478(7)
H37_6 H 0.2623 0.4759 0.8853
C41_6 C 0.21446(28) 0.3368(2) 0.87249(7)
H38_6 H 0.1549 0.3267 0.8639
C42_6 C 0.2348(3) 0.2591(2) 0.87204(7)
H39_6 H 0.1898 0.1983 0.8630
C43_6 C 0.31805(25) 0.27204(18) 0.88441(7)
H40_6 H 0.3308 0.2194 0.8843
C44_6 C 0.38780(23) 0.36263(17) 0.89768(6)
N8_6 N 0.84809(18) 0.35207(13) 0.96024(5)
N9_6 N 0.70035(18) 0.38778(13) 0.95288(5)
N10_6 N 0.61742(18) 0.38878(13) 0.94330(5)
N11_6 N 0.46801(20) 0.37144(14) 0.91073(5)
N12_6 N 0.43312(19) 0.52775(14) 0.91018(5)
C16_6 C 0.51273(23) 0.97662(15) 0.91040(6)
H16_6 H 0.5593 0.9625 0.9017
C17_6 C 0.36431(23) 0.92571(16) 0.93680(6)
C18_6 C 0.27755(26) 0.85259(18) 0.94855(7)
H17_6 H 0.2623 0.7864 0.9480
C19_6 C 0.21446(28) 0.87766(19) 0.96084(7)
H18_6 H 0.1549 0.8282 0.9694
C20_6 C 0.2348(3) 0.9757(2) 0.96129(7)
H19_6 H 0.1898 0.9915 0.9703
N6_6 N 0.43312(19) 0.90537(13) 0.92315(5)
C3_3 C 0.3252(2) 0.05957(26) 0.72146(7)
H2_3 H 0.3386 0.1059 0.7373
C4_3 C 0.2808(2) 0.06536(27) 0.69356(7)
H3_3 H 0.2639 0.1148 0.6912
C5_3 C 0.26253(17) 0.00043(23) 0.67019(6)
H4_3 H 0.2312 0.0027 0.6520
C25_3 C 0.73437(17) 0.05957(26) 0.77854(7)
H22_3 H 0.7673 0.1059 0.7627
C26_3 C 0.78456(18) 0.06536(27) 0.80644(7)
H23_3 H 0.8509 0.1148 0.8088
C27_3 C 0.73790(16) 0.00043(23) 0.82981(6)
H24_3 H 0.7715 0.0027 0.8480
C3_4 C 0.94043(26) 0.26563(17) 0.38812(7)
H2_4 H 0.8941 0.2327 0.4039
C4_4 C 0.93464(27) 0.21544(18) 0.36022(7)
H3_4 H 0.8852 0.1491 0.3578
C5_4 C 0.99957(23) 0.26210(16) 0.33685(6)
H4_4 H 0.9973 0.2285 0.3186
C25_4 C 0.94043(26) 0.6748(2) 0.44521(7)
H22_4 H 0.8941 0.6614 0.4294
C26_4 C 0.93464(27) 0.7192(2) 0.47311(7)
H23_4 H 0.8852 0.7361 0.4755
C27_4 C 0.99957(23) 0.73747(17) 0.49648(6)
H24_4 H 0.9973 0.7688 0.5147
C3_5 C 0.6748(2) 0.94043(26) 0.22146(7)
H2_5 H 0.6614 0.8941 0.2373
C4_5 C 0.7192(2) 0.93464(27) 0.19356(7)
H3_5 H 0.7361 0.8852 0.1912
C5_5 C 0.73747(17) 0.99957(23) 0.17019(6)
H4_5 H 0.7688 0.9973 0.1520
C25_5 C 0.26563(17) 0.94043(26) 0.27854(7)
H22_5 H 0.2327 0.8941 0.2627
C26_5 C 0.21544(18) 0.93464(27) 0.30644(7)
H23_5 H 0.1491 0.8852 0.3088
C27_5 C 0.26210(16) 0.99957(23) 0.32981(6)
H24_5 H 0.2285 0.9973 0.3480
H24_6 H 0.0027 0.2312 0.0147
C3_6 C 0.05957(26) 0.73437(17) 0.88812(7)
H2_6 H 0.1059 0.7673 0.9039
C4_6 C 0.06536(27) 0.78456(18) 0.86022(7)
H3_6 H 0.1148 0.8509 0.8578
C5_6 C 0.00043(23) 0.73790(16) 0.83685(6)
H4_6 H 0.0027 0.7715 0.8186
C25_6 C 0.05957(26) 0.3252(2) 0.94521(7)
H22_6 H 0.1059 0.3386 0.9294
C26_6 C 0.06536(27) 0.2808(2) 0.97311(7)
H23_6 H 0.1148 0.2639 0.9755
C27_6 C 0.00043(23) 0.26253(17) 0.99648(6)
F2 F 0.41790(13) 0.35229(14) 0.03561(4)
F4 F 0.24640(10) 0.25969(11) 0.00888(4)
F6 F 0.32482(13) 0.44616(12) 0.02083(5)
F1 F 0.48534(12) 0.48239(11) 0.99077(4)
F3 F 0.40526(11) 0.29376(11) 0.97870(4)
F5 F 0.31414(13) 0.39044(15) 0.96358(5)
Sb1 Sb 0.365278(10) 0.370872(11) 0.999561(4)
F1_2 F 0.51761(11) 0.00295(16) 0.65744(4)
F2_2 F 0.64771(14) 0.06561(19) 0.70228(4)
F3_2 F 0.70624(11) 0.11150(16) 0.64537(4)
F4_2 F 0.74031(11) 0.98671(15) 0.67555(4)
F5_2 F 0.60956(15) 0.92370(20) 0.63025(5)
F6_2 F 0.55384(12) 0.87866(18) 0.68750(5)
Sb1_2 Sb 0.629128(11) 0.994406(15) 0.666228(4)
F4_3 F 0.01329(15) 0.75360(10) 0.34221(4)
F5_3 F 0.07630(20) 0.68586(13) 0.29691(5)
F6_3 F 0.12134(18) 0.67518(13) 0.35416(5)
Sb1_3 Sb 0.005594(15) 0.634722(10) 0.332894(4)
F1_3 F 0.99705(16) 0.51466(12) 0.32410(4)
F2_3 F 0.93439(19) 0.58210(13) 0.36894(4)
F3_3 F 0.88850(16) 0.59474(11) 0.31203(4)
F1_4 F 0.51466(12) 0.51761(11) 0.49077(4)
F2_4 F 0.58210(13) 0.64771(14) 0.53561(4)
F3_4 F 0.59474(11) 0.70624(11) 0.47870(4)
F4_4 F 0.75360(10) 0.74031(11) 0.50888(4)
F5_4 F 0.68586(13) 0.60956(15) 0.46358(5)
F6_4 F 0.67518(13) 0.55384(12) 0.52083(5)
Sb1_4 Sb 0.634722(10) 0.629128(11) 0.499561(4)
F4_5 F 0.25969(11) 0.01329(15) 0.17555(4)
F5_5 F 0.39044(15) 0.07630(20) 0.13025(5)
F6_5 F 0.44616(12) 0.12134(18) 0.18750(5)
Sb1_5 Sb 0.370872(11) 0.005594(15) 0.166228(4)
F1_5 F 0.48239(11) 0.99705(16) 0.15744(4)
F2_5 F 0.35229(14) 0.93439(19) 0.20228(4)
F3_5 F 0.29376(11) 0.88850(16) 0.14537(4)
F1_6 F 0.00295(16) 0.48534(12) 0.82410(4)
F2_6 F 0.06561(19) 0.41790(13) 0.86894(4)
F3_6 F 0.11150(16) 0.40526(11) 0.81203(4)
F4_6 F 0.98671(15) 0.24640(10) 0.84221(4)
F5_6 F 0.92370(20) 0.31414(13) 0.79691(5)
F6_6 F 0.87866(18) 0.32482(13) 0.85416(5)
Sb1_6 Sb 0.994406(15) 0.365278(10) 0.832894(4)
F1_7 F 0.48239(11) 0.48534(12) 0.67590(4)
F2_7 F 0.35229(14) 0.41790(13) 0.63106(4)
F3_7 F 0.29376(11) 0.40526(11) 0.68797(4)
F4_7 F 0.25969(11) 0.24640(10) 0.65779(4)
F5_7 F 0.39044(15) 0.31414(13) 0.70309(5)
F6_7 F 0.44616(12) 0.32482(13) 0.64584(5)
Sb1_7 Sb 0.370872(11) 0.365278(10) 0.667106(4)
F1_8 F 0.00295(16) 0.51761(11) 0.00923(4)
F3_8 F 0.11150(16) 0.70624(11) 0.02130(4)
F2_8 F 0.06561(19) 0.64771(14) 0.96439(4)
F5_8 F 0.92370(20) 0.60956(15) 0.03642(5)
Sb1_8 Sb 0.994406(15) 0.629128(11) 0.000439(4)
F4_8 F 0.98671(15) 0.74031(11) 0.99112(4)
F6_8 F 0.87866(18) 0.55384(12) 0.97917(5)
F4_9 F 0.75360(10) 0.01329(15) 0.32445(4)
F5_9 F 0.68586(13) 0.07630(20) 0.36975(5)
F6_9 F 0.67518(13) 0.12134(18) 0.31250(5)
Sb1_9 Sb 0.634722(10) 0.005594(15) 0.333772(4)
F1_9 F 0.51466(12) 0.99705(16) 0.34256(4)
F2_9 F 0.58210(13) 0.93439(19) 0.29772(4)
F3_9 F 0.59474(11) 0.88850(16) 0.35463(4)
F1_10 F 0.51761(11) 0.51466(12) 0.17590(4)
F2_10 F 0.64771(14) 0.58210(13) 0.13106(4)
F3_10 F 0.70624(11) 0.59474(11) 0.18797(4)
F4_10 F 0.74031(11) 0.75360(10) 0.15779(4)
F5_10 F 0.60956(15) 0.68586(13) 0.20309(5)
F6_10 F 0.55384(12) 0.67518(13) 0.14584(5)
Sb1_10 Sb 0.629128(11) 0.634722(10) 0.167106(4)
F4_11 F 0.01329(15) 0.25969(11) 0.49112(4)
F5_11 F 0.07630(20) 0.39044(15) 0.53642(5)
F6_11 F 0.12134(18) 0.44616(12) 0.47917(5)
Sb1_11 Sb 0.005594(15) 0.370872(11) 0.500439(4)
F1_11 F 0.99705(16) 0.48239(11) 0.50923(4)
F2_11 F 0.93439(19) 0.35229(14) 0.46439(4)
F3_11 F 0.88850(16) 0.29376(11) 0.52130(4)
F1_12 F 0.48534(12) 0.00295(16) 0.84256(4)
F2_12 F 0.41790(13) 0.06561(19) 0.79772(4)
F3_12 F 0.40526(11) 0.11150(16) 0.85463(4)
F4_12 F 0.24640(10) 0.98671(15) 0.82445(4)
F5_12 F 0.31414(13) 0.92370(20) 0.86975(5)
F6_12 F 0.32482(13) 0.87866(18) 0.81250(5)
Sb1_12 Sb 0.365278(10) 0.994406(15) 0.833772(4)
F8 F 0.07371(13) 0.40812(16) 0.20302(4)
F9 F 0.08438(14) 0.3328(2) 0.15131(5)
Sb2 Sb -0.0000 0.37067(2) 0.1667
F10 F 0.08197(17) 0.49107(26) 0.14961(7)
F7 F 0.91803(17) 0.4091(2) 0.18372(7)
Sb2_2 Sb 1.0000 0.37067(2) 0.1667
F11 F 0.92629(13) 0.33441(21) 0.13031(4)
F12 F 0.91562(14) 0.24842(24) 0.18202(5)
F7_2 F 0.5909(2) 0.50893(26) 0.85039(7)
F8_2 F 0.59188(16) 0.66559(21) 0.86969(4)
F9_2 F 0.6672(2) 0.75158(24) 0.81798(5)
Sb2_3 Sb 0.62933(2) 0.62933(2) 0.8334
F10_2 F 0.50893(26) 0.59090(31) 0.81628(7)
F11_2 F 0.66559(21) 0.59188(25) 0.79698(4)
F12_2 F 0.75158(24) 0.66720(28) 0.84869(5)
F7_3 F 0.49107(26) 0.08197(17) 0.51705(7)
Sb2_4 Sb 0.37067(2) 0.0000 0.5000
F11_3 F 0.40812(25) 0.07371(13) 0.46365(4)
F12_3 F 0.33280(28) 0.08438(14) 0.51536(5)
F8_3 F 0.33441(21) 0.92629(13) 0.53635(4)
F9_3 F 0.24842(24) 0.91562(14) 0.48464(5)
Sb2_5 Sb 0.37067(2) 1.0000 0.5000
F10_3 F 0.40910(31) 0.91803(17) 0.48295(7)
F7_4 F 0.08197(17) 0.5909(2) 0.68372(7)
Sb2_6 Sb -0.0000 0.62933(2) 0.6667
F11_4 F 0.07371(13) 0.66559(21) 0.63031(4)
F12_4 F 0.08438(14) 0.75158(24) 0.68202(5)
F8_4 F 0.92629(13) 0.59188(16) 0.70302(4)
F9_4 F 0.91562(14) 0.6672(2) 0.65131(5)
Sb2_7 Sb 1.0000 0.62933(2) 0.6667
F10_4 F 0.91803(17) 0.50893(26) 0.64961(7)
F7_5 F 0.4091(2) 0.49107(26) 0.35039(7)
F8_5 F 0.40812(16) 0.33441(21) 0.36969(4)
F9_5 F 0.3328(2) 0.24842(24) 0.31798(5)
Sb2_8 Sb 0.37067(2) 0.37067(2) 0.3334
F10_5 F 0.49107(26) 0.40910(31) 0.31628(7)
F11_5 F 0.33441(21) 0.40812(25) 0.29698(4)
F12_5 F 0.24842(24) 0.33280(28) 0.34869(5)
F8_6 F 0.66559(21) 0.07371(13) 0.03635(4)
Sb2_9 Sb 0.62933(2) -0.0000 0.0000
F9_6 F 0.75158(24) 0.08438(14) 0.98464(5)
F10_6 F 0.59090(31) 0.08197(17) 0.98295(7)
Sb2_10 Sb 0.62933(2) 0.0000 1.0000
F7_6 F 0.50893(26) 0.91803(17) 0.01705(7)
Sb2_11 Sb 0.62933(2) 1.0000 0.0000
F12_6 F 0.66720(28) 0.91562(14) 0.01536(5)
F11_6 F 0.59188(25) 0.92629(13) 0.96365(4)
Sb2_12 Sb 0.62933(2) 1.0000 1.0000
loop_
_geom_bond_atom_site_label_1
_geom_bond_atom_site_label_2
_geom_bond_site_symmetry_1
_geom_bond_site_symmetry_2
H36 C38 1_555 1_555
C39 C40 1_555 1_555
C40 H37 1_555 1_555
C41 C40 1_555 1_555
H38 C41 1_555 1_555
C42 C41 1_555 1_555
H39 C42 1_555 1_555
N12 C38 1_555 1_555
O3 N12 1_555 1_555
Ag6 O3 1_555 1_555
C39 N12 1_555 1_555
Ag1 N2 1_555 1_555
Ag2 N4 1_555 1_555
C1 C2 1_555 1_555
C2 H1 1_555 1_555
C3 C2 1_555 1_555
H2 C3 1_555 1_555
C4 C3 1_555 1_555
H3 C4 1_555 1_555
C5 C4 1_555 1_555
C6 C1 1_555 1_555
C9 C8 1_555 1_555
C12 H11 1_555 1_555
H12 C12 1_555 1_555
H13 C12 1_555 1_555
C13 C12 1_555 1_555
H14 C13 1_555 1_555
H15 C13 1_555 1_555
C14 C13 1_555 1_555
C15 C14 1_555 1_555
H20 C21 1_555 1_555
N2 C1 1_555 1_555
N3 Ag1 1_555 1_555
N4 C14 1_555 1_555
N5 Ag2 1_555 1_555
C23 C24 1_555 1_555
C24 H21 1_555 1_555
C25 C24 1_555 1_555
H22 C25 1_555 1_555
C26 C25 1_555 1_555
H23 C26 1_555 1_555
C27 C26 1_555 1_555
H24 C27 1_555 1_555
C28 C23 1_555 1_555
C29 H25 1_555 1_555
C30 C29 1_555 1_555
C31 C30 1_555 1_555
C32 C31 1_555 1_555
H26 C32 1_555 1_555
H27 C32 1_555 1_555
C33 C32 1_555 1_555
H28 C33 1_555 1_555
H29 C33 1_555 1_555
H30 C33 1_555 1_555
C34 H31 1_555 1_555
H32 C34 1_555 1_555
H33 C34 1_555 1_555
C35 C34 1_555 1_555
H34 C35 1_555 1_555
H35 C35 1_555 1_555
C36 C35 1_555 1_555
C37 C36 1_555 1_555
H40 C43 1_555 1_555
N7 C28 1_555 1_555
N8 Ag1 1_555 1_555
N9 Ag1 1_555 1_555
N10 Ag2 1_555 1_555
N11 Ag2 1_555 1_555
O4 N7 1_555 1_555
Ag4 O4 1_555 1_555
C5 C6 1_555 1_555
C8 N2 1_555 1_555
C9 N3 1_555 1_555
C15 N5 1_555 1_555
C21 C22 1_555 1_555
C22 N5 1_555 1_555
N3 N4 1_555 1_555
C23 N8 1_555 1_555
C27 C28 1_555 1_555
C29 N7 1_555 1_555
C30 N8 1_555 1_555
C31 N9 1_555 1_555
C36 N10 1_555 1_555
C37 N11 1_555 1_555
C43 C44 1_555 1_555
C44 N11 1_555 1_555
N9 N10 1_555 1_555
Ag3 O2 1_555 1_555
C7 H5 1_555 1_555
H6 C10 1_555 1_555
C11 C10 1_555 1_555
H8 C11 1_555 1_555
H9 C11 1_555 1_555
H10 C11 1_555 1_555
O2 N1 1_555 1_555
O5 Ag3 1_555 1_555
O6 Ag3 1_555 1_555
O7 Ag3 1_555 1_555
C7 N1 1_555 1_555
H16 C16 1_555 1_555
C17 C18 1_555 1_555
C18 H17 1_555 1_555
C19 C18 1_555 1_555
H18 C19 1_555 1_555
C20 C19 1_555 1_555
H19 C20 1_555 1_555
N6 C16 1_555 1_555
O1 N6 1_555 1_555
Ag6 O1 1_555 1_555
C17 N6 1_555 1_555
Ag1_2 N2_2 1_555 1_555
Ag2_2 N4_2 1_555 1_555
Ag3_2 O2_2 1_555 1_555
C1_2 C2_2 1_555 1_555
C2_2 H1_2 1_555 1_555
C6_2 C1_2 1_555 1_555
C7_2 H5_2 1_555 1_555
C8_2 C7_2 1_555 1_555
C9_2 C8_2 1_555 1_555
C10_2 C9_2 1_555 1_555
H6_2 C10_2 1_555 1_555
H7_2 C10_2 1_555 1_555
C11_2 C10_2 1_555 1_555
H8_2 C11_2 1_555 1_555
H9_2 C11_2 1_555 1_555
H10_2 C11_2 1_555 1_555
C12_2 H11_2 1_555 1_555
H12_2 C12_2 1_555 1_555
H13_2 C12_2 1_555 1_555
C13_2 C12_2 1_555 1_555
H14_2 C13_2 1_555 1_555
H15_2 C13_2 1_555 1_555
C14_2 C13_2 1_555 1_555
C15_2 C14_2 1_555 1_555
C16_2 C15_2 1_555 1_555
H16_2 C16_2 1_555 1_555
C17_2 C18_2 1_555 1_555
C18_2 H17_2 1_555 1_555
C19_2 C18_2 1_555 1_555
H18_2 C19_2 1_555 1_555
C20_2 C19_2 1_555 1_555
H19_2 C20_2 1_555 1_555
C21_2 C20_2 1_555 1_555
H20_2 C21_2 1_555 1_555
C22_2 C17_2 1_555 1_555
N1_2 C6_2 1_555 1_555
N2_2 C1_2 1_555 1_555
N3_2 Ag1_2 1_555 1_555
N4_2 C14_2 1_555 1_555
N5_2 Ag2_2 1_555 1_555
N6_2 C16_2 1_555 1_555
O1_2 N6_2 1_555 1_555
O2_2 N1_2 1_555 1_555
C23_2 C24_2 1_555 1_555
C24_2 H21_2 1_555 1_555
C28_2 C23_2 1_555 1_555
C29_2 H25_2 1_555 1_555
C30_2 C29_2 1_555 1_555
C31_2 C30_2 1_555 1_555
C32_2 C31_2 1_555 1_555
H26_2 C32_2 1_555 1_555
H27_2 C32_2 1_555 1_555
C33_2 C32_2 1_555 1_555
H28_2 C33_2 1_555 1_555
H29_2 C33_2 1_555 1_555
H30_2 C33_2 1_555 1_555
C34_2 H31_2 1_555 1_555
H32_2 C34_2 1_555 1_555
H33_2 C34_2 1_555 1_555
C35_2 C34_2 1_555 1_555
H34_2 C35_2 1_555 1_555
H35_2 C35_2 1_555 1_555
C36_2 C35_2 1_555 1_555
C37_2 C36_2 1_555 1_555
H40_2 C43_2 1_555 1_555
N7_2 C28_2 1_555 1_555
N8_2 Ag1_2 1_555 1_555
N9_2 Ag1_2 1_555 1_555
N10_2 Ag2_2 1_555 1_555
N11_2 Ag2_2 1_555 1_555
O7 N7_2 1_555 1_555
Ag5 O1_2 1_555 1_555
O5_2 Ag3_2 1_555 1_555
O6_2 Ag3_2 1_555 1_555
O7_2 Ag3_2 1_555 1_555
C7_2 N1_2 1_555 1_555
C8_2 N2_2 1_555 1_555
C9_2 N3_2 1_555 1_555
C15_2 N5_2 1_555 1_555
C17_2 N6_2 1_555 1_555
C21_2 C22_2 1_555 1_555
C22_2 N5_2 1_555 1_555
N3_2 N4_2 1_555 1_555
C23_2 N8_2 1_555 1_555
C29_2 N7_2 1_555 1_555
C30_2 N8_2 1_555 1_555
C31_2 N9_2 1_555 1_555
C36_2 N10_2 1_555 1_555
C37_2 N11_2 1_555 1_555
C43_2 C44_2 1_555 1_555
C44_2 N11_2 1_555 1_555
N9_2 N10_2 1_555 1_555
H36_2 C38_2 1_555 1_555
C39_2 C40_2 1_555 1_555
C40_2 H37_2 1_555 1_555
C41_2 C40_2 1_555 1_555
H38_2 C41_2 1_555 1_555
C42_2 C41_2 1_555 1_555
H39_2 C42_2 1_555 1_555
N12_2 C38_2 1_555 1_555
O3_2 N12_2 1_555 1_555
Ag5 O3_2 1_555 1_555
C39_2 N12_2 1_555 1_555
H16_3 C16_3 1_555 1_555
C17_3 C18_3 1_555 1_555
C18_3 H17_3 1_555 1_555
C19_3 C18_3 1_555 1_555
H18_3 C19_3 1_555 1_555
C20_3 C19_3 1_555 1_555
H19_3 C20_3 1_555 1_555
N6_3 C16_3 1_555 1_555
O1_3 N6_3 1_555 1_555
Ag5_2 O1_3 1_555 1_555
C17_3 N6_3 1_555 1_555
Ag1_3 N2_3 1_555 1_555
Ag2_3 N4_3 1_555 1_555
Ag4 O2_3 1_555 1_555
C1_3 C2_3 1_555 1_555
C2_3 H1_3 1_555 1_555
C6_3 C1_3 1_555 1_555
C7_3 H5_3 1_555 1_555
C8_3 C7_3 1_555 1_555
C9_3 C8_3 1_555 1_555
C10_3 C9_3 1_555 1_555
H6_3 C10_3 1_555 1_555
H7_3 C10_3 1_555 1_555
C11_3 C10_3 1_555 1_555
H8_3 C11_3 1_555 1_555
H9_3 C11_3 1_555 1_555
H10_3 C11_3 1_555 1_555
C12_3 H11_3 1_555 1_555
H12_3 C12_3 1_555 1_555
H13_3 C12_3 1_555 1_555
C13_3 C12_3 1_555 1_555
H14_3 C13_3 1_555 1_555
H15_3 C13_3 1_555 1_555
C14_3 C13_3 1_555 1_555
C15_3 C14_3 1_555 1_555
H20_3 C21_3 1_555 1_555
N1_3 C6_3 1_555 1_555
N2_3 C1_3 1_555 1_555
N3_3 Ag1_3 1_555 1_555
N4_3 C14_3 1_555 1_555
N5_3 Ag2_3 1_555 1_555
O2_3 N1_3 1_555 1_555
C23_3 C24_3 1_555 1_555
C24_3 H21_3 1_555 1_555
C28_3 C23_3 1_555 1_555
C29_3 H25_3 1_555 1_555
C30_3 C29_3 1_555 1_555
C31_3 C30_3 1_555 1_555
C32_3 C31_3 1_555 1_555
H26_3 C32_3 1_555 1_555
H27_3 C32_3 1_555 1_555
C33_3 C32_3 1_555 1_555
H28_3 C33_3 1_555 1_555
H29_3 C33_3 1_555 1_555
H30_3 C33_3 1_555 1_555
C34_3 H31_3 1_555 1_555
H32_3 C34_3 1_555 1_555
H33_3 C34_3 1_555 1_555
C35_3 C34_3 1_555 1_555
H34_3 C35_3 1_555 1_555
H35_3 C35_3 1_555 1_555
C36_3 C35_3 1_555 1_555
C37_3 C36_3 1_555 1_555
C38_3 C37_3 1_555 1_555
H36_3 C38_3 1_555 1_555
C39_3 C40_3 1_555 1_555
C40_3 H37_3 1_555 1_555
C41_3 C40_3 1_555 1_555
H38_3 C41_3 1_555 1_555
C42_3 C41_3 1_555 1_555
H39_3 C42_3 1_555 1_555
C43_3 C42_3 1_555 1_555
H40_3 C43_3 1_555 1_555
C44_3 C39_3 1_555 1_555
N7_3 C28_3 1_555 1_555
N8_3 Ag1_3 1_555 1_555
N9_3 Ag1_3 1_555 1_555
N10_3 Ag2_3 1_555 1_555
N11_3 Ag2_3 1_555 1_555
N12_3 C38_3 1_555 1_555
O3_3 N12_3 1_555 1_555
O7_2 N7_3 1_555 1_555
Ag5_2 O3_3 1_555 1_555
O5_3 Ag4 1_555 1_555
O6_3 Ag4 1_555 1_555
C7_3 N1_3 1_555 1_555
C8_3 N2_3 1_555 1_555
C9_3 N3_3 1_555 1_555
C15_3 N5_3 1_555 1_555
C21_3 C22_3 1_555 1_555
C22_3 N5_3 1_555 1_555
N3_3 N4_3 1_555 1_555
C23_3 N8_3 1_555 1_555
C29_3 N7_3 1_555 1_555
C30_3 N8_3 1_555 1_555
C31_3 N9_3 1_555 1_555
C36_3 N10_3 1_555 1_555
C37_3 N11_3 1_555 1_555
C39_3 N12_3 1_555 1_555
C43_3 C44_3 1_555 1_555
C44_3 N11_3 1_555 1_555
N9_3 N10_3 1_555 1_555
H16_4 C16_4 1_555 1_555
C17_4 C18_4 1_555 1_555
C18_4 H17_4 1_555 1_555
C19_4 C18_4 1_555 1_555
H18_4 C19_4 1_555 1_555
C20_4 C19_4 1_555 1_555
H19_4 C20_4 1_555 1_555
N6_4 C16_4 1_555 1_555
O5_2 N6_4 1_555 1_555
C17_4 N6_4 1_555 1_555
Ag1_4 N2_4 1_555 1_555
Ag2_4 N4_4 1_555 1_555
Ag5_2 O2_4 1_555 1_555
C1_4 C2_4 1_555 1_555
C2_4 H1_4 1_555 1_555
C3_2 C2_4 1_555 1_555
H2_2 C3_2 1_555 1_555
C4_2 C3_2 1_555 1_555
H3_2 C4_2 1_555 1_555
C5_2 C4_2 1_555 1_555
H4_2 C5_2 1_555 1_555
C6_4 C1_4 1_555 1_555
C7_4 H5_4 1_555 1_555
C8_4 C7_4 1_555 1_555
C9_4 C8_4 1_555 1_555
C10_4 C9_4 1_555 1_555
H6_4 C10_4 1_555 1_555
H7_4 C10_4 1_555 1_555
C11_4 C10_4 1_555 1_555
H8_4 C11_4 1_555 1_555
H9_4 C11_4 1_555 1_555
H10_4 C11_4 1_555 1_555
C12_4 H11_4 1_555 1_555
H12_4 C12_4 1_555 1_555
H13_4 C12_4 1_555 1_555
C13_4 C12_4 1_555 1_555
H14_4 C13_4 1_555 1_555
H15_4 C13_4 1_555 1_555
C14_4 C13_4 1_555 1_555
C15_4 C14_4 1_555 1_555
H20_4 C21_4 1_555 1_555
N1_4 C6_4 1_555 1_555
N2_4 C1_4 1_555 1_555
N3_4 Ag1_4 1_555 1_555
N4_4 C14_4 1_555 1_555
N5_4 Ag2_4 1_555 1_555
O2_4 N1_4 1_555 1_555
C23_4 C24_4 1_555 1_555
C24_4 H21_4 1_555 1_555
C25_2 C24_4 1_555 1_555
H22_2 C25_2 1_555 1_555
C26_2 C25_2 1_555 1_555
H23_2 C26_2 1_555 1_555
C27_2 C26_2 1_555 1_555
H24_2 C27_2 1_555 1_555
C28_4 C23_4 1_555 1_555
C29_4 H25_4 1_555 1_555
C30_4 C29_4 1_555 1_555
C31_4 C30_4 1_555 1_555
C32_4 C31_4 1_555 1_555
H26_4 C32_4 1_555 1_555
H27_4 C32_4 1_555 1_555
C33_4 C32_4 1_555 1_555
H28_4 C33_4 1_555 1_555
H29_4 C33_4 1_555 1_555
H30_4 C33_4 1_555 1_555
C34_4 H31_4 1_555 1_555
H32_4 C34_4 1_555 1_555
H33_4 C34_4 1_555 1_555
C35_4 C34_4 1_555 1_555
H34_4 C35_4 1_555 1_555
H35_4 C35_4 1_555 1_555
C36_4 C35_4 1_555 1_555
C37_4 C36_4 1_555 1_555
H40_4 C43_4 1_555 1_555
N7_4 C28_4 1_555 1_555
N8_4 Ag1_4 1_555 1_555
N9_4 Ag1_4 1_555 1_555
N10_4 Ag2_4 1_555 1_555
N11_4 Ag2_4 1_555 1_555
O4_2 N7_4 1_555 1_555
Ag5 O4_2 1_555 1_555
O7_3 Ag5_2 1_555 1_555
C5_2 C6_4 1_555 1_555
C7_4 N1_4 1_555 1_555
C8_4 N2_4 1_555 1_555
C9_4 N3_4 1_555 1_555
C15_4 N5_4 1_555 1_555
C21_4 C22_4 1_555 1_555
C22_4 N5_4 1_555 1_555
N3_4 N4_4 1_555 1_555
C23_4 N8_4 1_555 1_555
C27_2 C28_4 1_555 1_555
C29_4 N7_4 1_555 1_555
C30_4 N8_4 1_555 1_555
C31_4 N9_4 1_555 1_555
C36_4 N10_4 1_555 1_555
C37_4 N11_4 1_555 1_555
C43_4 C44_4 1_555 1_555
C44_4 N11_4 1_555 1_555
N9_4 N10_4 1_555 1_555
H36_4 C38_4 1_555 1_555
C39_4 C40_4 1_555 1_555
C40_4 H37_4 1_555 1_555
C41_4 C40_4 1_555 1_555
H38_4 C41_4 1_555 1_555
C42_4 C41_4 1_555 1_555
H39_4 C42_4 1_555 1_555
N12_4 C38_4 1_555 1_555
O6_2 N12_4 1_555 1_555
C39_4 N12_4 1_555 1_555
H36_5 C38_5 1_555 1_555
C39_5 C40_5 1_555 1_555
C40_5 H37_5 1_555 1_555
C41_5 C40_5 1_555 1_555
H38_5 C41_5 1_555 1_555
C42_5 C41_5 1_555 1_555
H39_5 C42_5 1_555 1_555
N12_5 C38_5 1_555 1_555
O6_3 N12_5 1_555 1_555
C39_5 N12_5 1_555 1_555
Ag1_5 N2_5 1_555 1_555
Ag2_5 N4_5 1_555 1_555
Ag6 O2_5 1_555 1_555
C1_5 C2_5 1_555 1_555
C2_5 H1_5 1_555 1_555
C6_5 C1_5 1_555 1_555
C7_5 H5_5 1_555 1_555
C8_5 C7_5 1_555 1_555
C9_5 C8_5 1_555 1_555
C10_5 C9_5 1_555 1_555
H6_5 C10_5 1_555 1_555
H7_5 C10_5 1_555 1_555
C11_5 C10_5 1_555 1_555
H8_5 C11_5 1_555 1_555
H9_5 C11_5 1_555 1_555
H10_5 C11_5 1_555 1_555
C12_5 H11_5 1_555 1_555
H12_5 C12_5 1_555 1_555
H13_5 C12_5 1_555 1_555
C13_5 C12_5 1_555 1_555
H14_5 C13_5 1_555 1_555
H15_5 C13_5 1_555 1_555
C14_5 C13_5 1_555 1_555
C15_5 C14_5 1_555 1_555
C16_5 C15_5 1_555 1_555
H16_5 C16_5 1_555 1_555
C17_5 C18_5 1_555 1_555
C18_5 H17_5 1_555 1_555
C19_5 C18_5 1_555 1_555
H18_5 C19_5 1_555 1_555
C20_5 C19_5 1_555 1_555
H19_5 C20_5 1_555 1_555
C21_5 C20_5 1_555 1_555
H20_5 C21_5 1_555 1_555
C22_5 C17_5 1_555 1_555
N1_5 C6_5 1_555 1_555
N2_5 C1_5 1_555 1_555
N3_5 Ag1_5 1_555 1_555
N4_5 C14_5 1_555 1_555
N5_5 Ag2_5 1_555 1_555
N6_5 C16_5 1_555 1_555
O5_3 N6_5 1_555 1_555
O2_5 N1_5 1_555 1_555
C23_5 C24_5 1_555 1_555
C24_5 H21_5 1_555 1_555
C28_5 C23_5 1_555 1_555
C29_5 H25_5 1_555 1_555
C30_5 C29_5 1_555 1_555
C31_5 C30_5 1_555 1_555
C32_5 C31_5 1_555 1_555
H26_5 C32_5 1_555 1_555
H27_5 C32_5 1_555 1_555
C33_5 C32_5 1_555 1_555
H28_5 C33_5 1_555 1_555
H29_5 C33_5 1_555 1_555
H30_5 C33_5 1_555 1_555
C34_5 H31_5 1_555 1_555
H32_5 C34_5 1_555 1_555
H33_5 C34_5 1_555 1_555
C35_5 C34_5 1_555 1_555
H34_5 C35_5 1_555 1_555
H35_5 C35_5 1_555 1_555
C36_5 C35_5 1_555 1_555
C37_5 C36_5 1_555 1_555
H40_5 C43_5 1_555 1_555
N7_5 C28_5 1_555 1_555
N8_5 Ag1_5 1_555 1_555
N9_5 Ag1_5 1_555 1_555
N10_5 Ag2_5 1_555 1_555
N11_5 Ag2_5 1_555 1_555
O7_3 N7_5 1_555 1_555
O7_4 Ag6 1_555 1_555
C7_5 N1_5 1_555 1_555
C8_5 N2_5 1_555 1_555
C9_5 N3_5 1_555 1_555
C15_5 N5_5 1_555 1_555
C17_5 N6_5 1_555 1_555
C21_5 C22_5 1_555 1_555
C22_5 N5_5 1_555 1_555
N3_5 N4_5 1_555 1_555
C23_5 N8_5 1_555 1_555
C29_5 N7_5 1_555 1_555
C30_5 N8_5 1_555 1_555
C31_5 N9_5 1_555 1_555
C36_5 N10_5 1_555 1_555
C37_5 N11_5 1_555 1_555
C43_5 C44_5 1_555 1_555
C44_5 N11_5 1_555 1_555
N9_5 N10_5 1_555 1_555
C29_6 H25_6 1_555 1_555
H26_6 C32_6 1_555 1_555
C33_6 C32_6 1_555 1_555
H28_6 C33_6 1_555 1_555
H29_6 C33_6 1_555 1_555
H30_6 C33_6 1_555 1_555
O7_4 N7_6 1_555 1_555
C29_6 N7_6 1_555 1_555
Ag1_6 N2_6 1_555 1_555
Ag2_6 N4_6 1_555 1_555
Ag5 O2_6 1_555 1_555
C1_6 C2_6 1_555 1_555
C2_6 H1_6 1_555 1_555
C6_6 C1_6 1_555 1_555
C7_6 H5_6 1_555 1_555
C8_6 C7_6 1_555 1_555
C9_6 C8_6 1_555 1_555
C10_6 C9_6 1_555 1_555
H6_6 C10_6 1_555 1_555
H7_6 C10_6 1_555 1_555
C11_6 C10_6 1_555 1_555
H8_6 C11_6 1_555 1_555
H9_6 C11_6 1_555 1_555
H10_6 C11_6 1_555 1_555
C12_6 H11_6 1_555 1_555
H12_6 C12_6 1_555 1_555
H13_6 C12_6 1_555 1_555
C13_6 C12_6 1_555 1_555
H14_6 C13_6 1_555 1_555
H15_6 C13_6 1_555 1_555
C14_6 C13_6 1_555 1_555
C15_6 C14_6 1_555 1_555
H20_6 C21_6 1_555 1_555
N1_6 C6_6 1_555 1_555
N2_6 C1_6 1_555 1_555
N3_6 Ag1_6 1_555 1_555
N4_6 C14_6 1_555 1_555
N5_6 Ag2_6 1_555 1_555
O2_6 N1_6 1_555 1_555
C23_6 C24_6 1_555 1_555
C24_6 H21_6 1_555 1_555
C28_6 C23_6 1_555 1_555
C31_6 C30_6 1_555 1_555
C34_6 H31_6 1_555 1_555
H32_6 C34_6 1_555 1_555
H33_6 C34_6 1_555 1_555
C35_6 C34_6 1_555 1_555
H34_6 C35_6 1_555 1_555
H35_6 C35_6 1_555 1_555
C36_6 C35_6 1_555 1_555
C37_6 C36_6 1_555 1_555
C38_6 C37_6 1_555 1_555
H36_6 C38_6 1_555 1_555
C39_6 C40_6 1_555 1_555
C40_6 H37_6 1_555 1_555
C41_6 C40_6 1_555 1_555
H38_6 C41_6 1_555 1_555
C42_6 C41_6 1_555 1_555
H39_6 C42_6 1_555 1_555
C43_6 C42_6 1_555 1_555
H40_6 C43_6 1_555 1_555
C44_6 C39_6 1_555 1_555
N8_6 Ag1_6 1_555 1_555
N9_6 Ag1_6 1_555 1_555
N10_6 Ag2_6 1_555 1_555
N11_6 Ag2_6 1_555 1_555
N12_6 C38_6 1_555 1_555
O6 N12_6 1_555 1_555
C7_6 N1_6 1_555 1_555
C8_6 N2_6 1_555 1_555
C9_6 N3_6 1_555 1_555
C15_6 N5_6 1_555 1_555
C21_6 C22_6 1_555 1_555
C22_6 N5_6 1_555 1_555
N3_6 N4_6 1_555 1_555
C23_6 N8_6 1_555 1_555
C30_6 N8_6 1_555 1_555
C31_6 N9_6 1_555 1_555
C36_6 N10_6 1_555 1_555
C37_6 N11_6 1_555 1_555
C39_6 N12_6 1_555 1_555
C43_6 C44_6 1_555 1_555
C44_6 N11_6 1_555 1_555
N9_6 N10_6 1_555 1_555
H16_6 C16_6 1_555 1_555
C17_6 C18_6 1_555 1_555
C18_6 H17_6 1_555 1_555
C19_6 C18_6 1_555 1_555
H18_6 C19_6 1_555 1_555
C20_6 C19_6 1_555 1_555
H19_6 C20_6 1_555 1_555
N6_6 C16_6 1_555 1_555
O5 N6_6 1_555 1_555
C17_6 N6_6 1_555 1_555
H2_3 C3_3 1_555 1_555
C4_3 C3_3 1_555 1_555
H3_3 C4_3 1_555 1_555
C5_3 C4_3 1_555 1_555
H4_3 C5_3 1_555 1_555
H22_3 C25_3 1_555 1_555
C26_3 C25_3 1_555 1_555
H23_3 C26_3 1_555 1_555
C27_3 C26_3 1_555 1_555
H24_3 C27_3 1_555 1_555
H2_4 C3_4 1_555 1_555
C4_4 C3_4 1_555 1_555
H3_4 C4_4 1_555 1_555
C5_4 C4_4 1_555 1_555
H4_4 C5_4 1_555 1_555
H22_4 C25_4 1_555 1_555
C26_4 C25_4 1_555 1_555
H23_4 C26_4 1_555 1_555
C27_4 C26_4 1_555 1_555
H24_4 C27_4 1_555 1_555
H2_5 C3_5 1_555 1_555
C4_5 C3_5 1_555 1_555
H3_5 C4_5 1_555 1_555
C5_5 C4_5 1_555 1_555
H4_5 C5_5 1_555 1_555
H22_5 C25_5 1_555 1_555
C26_5 C25_5 1_555 1_555
H23_5 C26_5 1_555 1_555
C27_5 C26_5 1_555 1_555
H24_5 C27_5 1_555 1_555
H2_6 C3_6 1_555 1_555
C4_6 C3_6 1_555 1_555
H3_6 C4_6 1_555 1_555
C5_6 C4_6 1_555 1_555
H4_6 C5_6 1_555 1_555
H22_6 C25_6 1_555 1_555
C26_6 C25_6 1_555 1_555
H23_6 C26_6 1_555 1_555
C27_6 C26_6 1_555 1_555
F1 Sb1 1_555 1_555
F3 Sb1 1_555 1_555
F5 Sb1 1_555 1_555
F4_2 Sb1_2 1_555 1_555
F5_2 Sb1_2 1_555 1_555
F6_2 Sb1_2 1_555 1_555
F4_3 Sb1_3 1_555 1_555
F5_3 Sb1_3 1_555 1_555
F6_3 Sb1_3 1_555 1_555
F1_4 Sb1_4 1_555 1_555
F2_4 Sb1_4 1_555 1_555
F3_4 Sb1_4 1_555 1_555
F4_4 Sb1_4 1_555 1_555
F5_4 Sb1_4 1_555 1_555
F6_4 Sb1_4 1_555 1_555
F4_5 Sb1_5 1_555 1_555
F5_5 Sb1_5 1_555 1_555
F6_5 Sb1_5 1_555 1_555
F4_6 Sb1_6 1_555 1_555
F5_6 Sb1_6 1_555 1_555
F6_6 Sb1_6 1_555 1_555
F1_7 Sb1_7 1_555 1_555
F2_7 Sb1_7 1_555 1_555
F3_7 Sb1_7 1_555 1_555
F4_7 Sb1_7 1_555 1_555
F5_7 Sb1_7 1_555 1_555
F6_7 Sb1_7 1_555 1_555
F5_8 Sb1_8 1_555 1_555
F4_9 Sb1_9 1_555 1_555
F5_9 Sb1_9 1_555 1_555
F6_9 Sb1_9 1_555 1_555
F1_10 Sb1_10 1_555 1_555
F2_10 Sb1_10 1_555 1_555
F3_10 Sb1_10 1_555 1_555
F4_10 Sb1_10 1_555 1_555
F5_10 Sb1_10 1_555 1_555
F6_10 Sb1_10 1_555 1_555
F4_11 Sb1_11 1_555 1_555
F5_11 Sb1_11 1_555 1_555
F6_11 Sb1_11 1_555 1_555
F4_12 Sb1_12 1_555 1_555
F5_12 Sb1_12 1_555 1_555
F6_12 Sb1_12 1_555 1_555
F8 Sb2 1_555 1_555
F9 Sb2 1_555 1_555
Sb2 F10 1_555 1_555
F7 Sb2_2 1_555 1_555
F11 Sb2_2 1_555 1_555
F12 Sb2_2 1_555 1_555
F7_2 Sb2_3 1_555 1_555
F8_2 Sb2_3 1_555 1_555
F9_2 Sb2_3 1_555 1_555
Sb2_3 F10_2 1_555 1_555
F11_2 Sb2_3 1_555 1_555
F12_2 Sb2_3 1_555 1_555
F7_3 Sb2_4 1_555 1_555
F11_3 Sb2_4 1_555 1_555
F12_3 Sb2_4 1_555 1_555
F8_3 Sb2_5 1_555 1_555
F9_3 Sb2_5 1_555 1_555
Sb2_5 F10_3 1_555 1_555
F7_4 Sb2_6 1_555 1_555
F11_4 Sb2_6 1_555 1_555
F12_4 Sb2_6 1_555 1_555
F8_4 Sb2_7 1_555 1_555
F9_4 Sb2_7 1_555 1_555
Sb2_7 F10_4 1_555 1_555
F7_5 Sb2_8 1_555 1_555
F8_5 Sb2_8 1_555 1_555
F9_5 Sb2_8 1_555 1_555
Sb2_8 F10_5 1_555 1_555
F11_5 Sb2_8 1_555 1_555
F12_5 Sb2_8 1_555 1_555
F8_6 Sb2_9 1_555 1_555
F10_6 Sb2_10 1_555 1_555
F9_6 Sb2_10 1_555 1_555
F7_6 Sb2_11 1_555 1_555
F12_6 Sb2_11 1_555 1_555
F11_6 Sb2_12 1_555 1_555

#END
