
###############################################################################
#
# This file contains modified crystal structure data generated from the
# MOF subset of the Cambridge Structural Database (CSD) v543 
# hosted by the Cambridge Crystallographic Data Centre (CCDC).
#
# This work is licensed under the Creative Commons
# Attribution-NonCommercial-ShareAlike 4.0 International License.
# To view a copy of this license, visit
# http://creativecommons.org/licenses/by-nc-sa/4.0/
# or send a letter to
# Creative Commons, PO Box 1866, Mountain View, CA 94042, USA.
#
# CIF created using the CSD Python API on 29 September 2022
# The structure has been converted into the P1 space group
# The structure has a 3D framework
# The original CSD entry XOMJOY is in the orthorhombic crystal system
# The original CSD entry XOMJOY is in a Sohncke space group
# The framework has been calculated to contain at least 10.0% void space
# The void calculation uses a probe of radius 1.32A, grid spacing 0.4
#
###############################################################################

data_XOMJOY
_chemical_formula_moiety         '(C392 H344 Cl24 Gd8 N16 O72)n'
_symmetry_cell_setting           triclinic
_symmetry_space_group_name_H-M   'P 1'
_symmetry_Int_Tables_number      1
_space_group_name_Hall           'P 1'
loop_
_symmetry_equiv_pos_site_id
_symmetry_equiv_pos_as_xyz
1 x,y,z
_cell_length_a                   12.816(3)
_cell_length_b                   34.481(7)
_cell_length_c                   24.816(5)
_cell_angle_alpha                90
_cell_angle_beta                 90
_cell_angle_gamma                90
_cell_volume                     10966.4
loop_
_atom_site_label
_atom_site_type_symbol
_atom_site_fract_x
_atom_site_fract_y
_atom_site_fract_z
H20 H 0.0660 0.3160 0.0053
H22 H 0.0297 0.2866 0.0881
H34 H 0.0212 0.1128 0.3604
H40 H 0.0521 0.1790 0.3382
O4 O 0.0260(4) 0.33947(16) 0.8125(2)
H15 H 0.0050 0.3152 0.9077
Gd3 Gd 0.15399(2) 0.385037(7) 0.785715(10)
Gd1 Gd 0.65399(2) 0.114963(7) 0.214285(10)
O1 O 0.6832(5) 0.12177(15) 0.11758(17)
O2 O 0.7482(4) 0.16811(13) 0.16739(18)
O3 O 0.7415(4) 0.27317(14) 0.0151(2)
O7 O 0.5152(5) 0.07824(18) 0.1901(2)
O8 O 0.3490(5) 0.07038(15) 0.2118(2)
O10 O 0.8270(3) 0.11795(15) 0.25345(18)
N1 N 0.7519(7) 0.05522(19) 0.1818(3)
C1 C 0.8438(8) 0.0421(3) 0.2053(5)
H1 H 0.8714 0.0549 0.2350
C2 C 0.8946(10) 0.0099(4) 0.1842(7)
H2 H 0.9562 0.0011 0.1999
C4 C 0.7615(15) 0.0039(4) 0.1163(5)
C5 C 0.7107(11) 0.0361(3) 0.1374(5)
H5 H 0.6491 0.0449 0.1217
N2 N 0.9291(5) 0.1467(2) 0.3171(3)
C7 C 0.7645(5) 0.23464(18) 0.0214(3)
C8 C 0.7383(5) 0.21365(19) 0.0682(3)
H6 H 0.7043 0.2260 0.0965
C9 C 0.7631(5) 0.17475(18) 0.0721(3)
C10 C 0.8182(4) 0.15605(18) 0.0306(2)
C11 C 0.8504(5) 0.11709(17) 0.0347(3)
H7 H 0.8327 0.1027 0.0650
C16 C 0.7287(5) 0.1534(2) 0.1222(2)
C17 C 0.6878(6) 0.2934(2) 0.0574(3)
H10 H 0.7225 0.2893 0.0916
H11 H 0.6164 0.2842 0.0603
C18 C 0.6894(7) 0.3363(2) 0.0424(5)
H12 H 0.6540 0.3510 0.0697
H13 H 0.6549 0.3399 0.0084
H14 H 0.7604 0.3450 0.0397
C30 C 0.9951(6) 0.3085(2) 0.0142(3)
C31 C 0.9823(7) 0.3057(3) 0.0741(4)
H21 H 0.9972 0.3304 0.0902
H23 H 0.9120 0.2983 0.0824
C32 C 0.3982(6) 0.0101(3) 0.0267(3)
C33 C 0.4624(6) 0.0411(2) 0.0351(3)
C34 C 0.4687(6) 0.0588(2) 0.0860(3)
H24 H 0.5131 0.0798 0.0912
C35 C 0.4093(5) 0.04529(18) 0.1283(3)
C36 C 0.3389(6) 0.0144(2) 0.1206(3)
H25 H 0.2781 0.0096 0.1968
C42 C 0.4250(7) 0.0659(2) 0.1811(3)
H28 H 0.6392 0.0813 0.0221
H29 H 0.5436 0.1083 0.0094
C45 C 0.8679(5) 0.1461(3) 0.2732(3)
H33 H 0.8559 0.1697 0.2563
C46 C 0.9567(9) 0.1100(3) 0.3404(5)
H35 H 0.9686 0.0913 0.3118
C47 C 0.8719(13) 0.0944(4) 0.3781(6)
H36 H 0.8939 0.0700 0.3929
H37 H 0.8083 0.0909 0.3583
H38 H 0.8605 0.1126 0.4068
C48 C 0.9768(7) 0.1818(3) 0.3391(5)
H39 H 0.9583 0.2037 0.3165
C49 C 0.9424(10) 0.1898(4) 0.3962(5)
H41 H 0.9754 0.2130 0.4090
H42 H 0.9620 0.1684 0.4188
H43 H 0.8680 0.1929 0.3972
O17 O 0.5260(4) 0.16053(16) 0.1875(2)
O18 O 0.3596(3) 0.15777(13) 0.2149(2)
O19 O 0.4718(4) 0.22907(14) 0.00803(19)
C63 C 0.3186(5) 0.28253(18) 0.0203(3)
C69 C 0.4078(6) 0.39973(19) 0.0059(3)
C70 C 0.4357(6) 0.37899(19) 0.0519(3)
H55 H 0.4746 0.3909 0.0789
C71 C 0.4056(5) 0.34087(19) 0.0572(3)
H56 H 0.4238 0.3272 0.0881
C72 C 0.3469(5) 0.32215(17) 0.0161(2)
C76 C 0.3514(5) 0.25794(16) 0.0672(2)
C77 C 0.4268(5) 0.22975(19) 0.0584(3)
C78 C 0.4537(5) 0.20322(17) 0.0991(3)
H62 H 0.5050 0.1848 0.0923
C79 C 0.4066(4) 0.20381(17) 0.1479(3)
C80 C 0.3309(5) 0.23290(17) 0.1603(2)
C81 C 0.2811(5) 0.23651(19) 0.2124(3)
H63 H 0.2980 0.2195 0.2401
C82 C 0.2094(6) 0.2650(2) 0.2205(3)
C83 C 0.1810(6) 0.2914(2) 0.1800(3)
H64 H 0.1293 0.3098 0.1863
C84 C 0.2298(6) 0.2898(2) 0.1317(3)
H65 H 0.2143 0.3086 0.1061
C85 C 0.3047(4) 0.26026(17) 0.1184(2)
C86 C 0.4337(6) 0.17188(19) 0.1875(3)
H66 H 0.4478 0.1722 0.0004
Cl5 Cl 0.4519(2) 0.44771(6) 0.00022(11)
Cl6 Cl 0.14848(18) 0.26822(7) 0.28393(8)
O21 O 0.6404(3) 0.15777(13) 0.2851(2)
O22 O 0.6510(5) 0.07038(15) 0.2882(2)
Gd5 Gd 0.34601(2) 0.114963(7) 0.285715(10)
O5 O 0.8596(3) 0.34223(13) 0.7851(2)
O6 O 0.9718(4) 0.27093(14) 0.99197(19)
O9 O 0.5200(5) 0.05412(19) 0.9918(2)
C6 C 0.8186(5) 0.21747(18) 0.9797(3)
C12 C 0.9078(6) 0.10027(19) 0.9941(3)
C13 C 0.9357(6) 0.12101(19) 0.9481(3)
H8 H 0.9746 0.1091 0.9211
C14 C 0.9056(5) 0.15913(19) 0.9428(3)
H9 H 0.9238 0.1728 0.9119
C15 C 0.8469(5) 0.17785(17) 0.9839(2)
C19 C 0.8514(5) 0.24206(16) 0.9328(2)
C20 C 0.9268(5) 0.27025(19) 0.9416(3)
C21 C 0.9537(5) 0.29678(17) 0.9009(3)
C22 C 0.9066(4) 0.29619(17) 0.8521(3)
C23 C 0.8309(5) 0.26710(17) 0.8397(2)
C24 C 0.7811(5) 0.26349(19) 0.7876(3)
H16 H 0.7980 0.2805 0.7599
C25 C 0.7094(6) 0.2350(2) 0.7795(3)
C26 C 0.6810(6) 0.2086(2) 0.8200(3)
H17 H 0.6293 0.1902 0.8137
C27 C 0.7298(6) 0.2102(2) 0.8683(3)
H18 H 0.7143 0.1914 0.8939
C28 C 0.8047(4) 0.23974(17) 0.8816(2)
C29 C 0.9337(6) 0.32812(19) 0.8125(3)
H19 H 0.9478 0.3278 0.9996
C43 C 0.5840(9) 0.0865(3) 0.9963(4)
C44 C 0.6288(10) 0.0959(4) 0.9448(4)
H30 H 0.6726 0.1183 0.9483
H31 H 0.5741 0.1012 0.9194
H32 H 0.6697 0.0744 0.9322
Cl1 Cl 0.9519(2) 0.05229(6) 0.99978(11)
Cl2 Cl 0.64848(18) 0.23178(7) 0.71607(8)
C57 C 0.2759(7) 0.0009(3) 0.8377(4)
C58 C 0.2127(12) 0.0309(5) 0.8488(6)
C59 C 0.2072(11) 0.0495(5) 0.8985(6)
H51 H 0.1643 0.0709 0.9035
C60 C 0.2662(9) 0.0354(4) 0.9393(5)
H52 H 0.2607 0.0467 0.9732
C61 C 0.3370(6) 0.0036(2) 0.9318(4)
Cl4 Cl 0.1352(4) 0.05077(17) 0.7965(2)
O14 O 0.1832(5) 0.37823(15) 0.88242(17)
O15 O 0.2482(4) 0.33189(13) 0.83261(18)
O16 O 0.2415(4) 0.22683(14) 0.9849(2)
C64 C 0.2645(5) 0.26536(18) 0.9786(3)
C65 C 0.2383(5) 0.28635(19) 0.9318(3)
H53 H 0.2043 0.2740 0.9035
C66 C 0.2631(5) 0.32525(18) 0.9279(3)
C67 C 0.3182(4) 0.34395(18) 0.9694(2)
C68 C 0.3504(5) 0.38291(17) 0.9653(3)
H54 H 0.3327 0.3973 0.9350
C73 C 0.2287(5) 0.3466(2) 0.8778(2)
C74 C 0.1878(6) 0.2066(2) 0.9426(3)
H57 H 0.2225 0.2107 0.9084
H58 H 0.1164 0.2158 0.9397
C75 C 0.1894(7) 0.1637(2) 0.9576(5)
H59 H 0.1540 0.1490 0.9303
H60 H 0.1549 0.1601 0.9916
H61 H 0.2604 0.1550 0.9603
C87 C 0.4951(6) 0.1915(2) 0.9858(3)
H67 H 0.5660 0.1840 0.9947
C88 C 0.4823(7) 0.1943(3) 0.9259(4)
H68 H 0.4972 0.1696 0.9098
H69 H 0.5297 0.2134 0.9119
H70 H 0.4120 0.2017 0.9176
O20 O 0.3270(3) 0.38205(15) 0.74655(18)
N3 N 0.4291(5) 0.3533(2) 0.6829(3)
C89 C 0.3679(5) 0.3539(3) 0.7268(3)
H71 H 0.3559 0.3303 0.7437
C90 C 0.4567(9) 0.3900(3) 0.6596(5)
H72 H 0.5212 0.3872 0.6396
H73 H 0.4686 0.4087 0.6882
C91 C 0.3719(13) 0.4056(4) 0.6219(6)
H74 H 0.3939 0.4300 0.6071
H75 H 0.3083 0.4091 0.6417
H76 H 0.3605 0.3874 0.5932
C92 C 0.4768(7) 0.3182(3) 0.6609(5)
H77 H 0.4583 0.2963 0.6835
H78 H 0.5521 0.3210 0.6618
C93 C 0.4424(10) 0.3102(4) 0.6038(5)
H79 H 0.4754 0.2870 0.5910
H80 H 0.4620 0.3316 0.5812
H81 H 0.3680 0.3071 0.6028
N4 N 0.2519(7) 0.44478(19) 0.8182(3)
C94 C 0.3438(8) 0.4579(3) 0.7947(5)
H82 H 0.3714 0.4451 0.7650
C95 C 0.3946(10) 0.4901(4) 0.8158(7)
H83 H 0.4562 0.4989 0.8001
C96 C 0.3535(14) 0.5092(3) 0.8603(6)
H84 H 0.3874 0.5308 0.8743
C97 C 0.2615(15) 0.4961(4) 0.8837(5)
H85 H 0.2339 0.5089 0.9135
C98 C 0.2107(11) 0.4639(3) 0.8626(5)
H86 H 0.1491 0.4551 0.8783
Gd4 Gd 0.84601(2) 0.385037(7) 0.714285(10)
O24 O 0.1404(3) 0.34223(13) 0.7149(2)
O25 O 0.0152(5) 0.42176(18) 0.8099(2)
O26 O 0.1510(5) 0.42962(15) 0.7118(2)
C3 C 0.8535(14) 0.9908(3) 0.1397(6)
H3 H 0.8874 0.9692 0.1257
H4 H 0.7339 0.9911 0.0865
C37 C 0.2759(7) 0.9991(3) 0.1623(4)
C38 C 0.2127(12) 0.9691(5) 0.1512(6)
C39 C 0.2072(11) 0.9505(5) 0.1015(6)
H26 H 0.1643 0.9291 0.0965
C40 C 0.2662(9) 0.9646(4) 0.0607(5)
H27 H 0.2607 0.9533 0.0268
C41 C 0.3370(6) 0.9964(2) 0.0682(4)
Cl3 Cl 0.1352(4) 0.94923(17) 0.2035(2)
O11 O 0.5200(5) 0.94588(19) 0.0082(2)
C52 C 0.5840(9) 0.9135(3) 0.0037(4)
C53 C 0.6288(10) 0.9041(4) 0.0552(4)
H46 H 0.6726 0.8817 0.0517
H47 H 0.5741 0.8988 0.0806
H48 H 0.6697 0.9256 0.0678
C50 C 0.3982(6) 0.9899(3) 0.9733(3)
C51 C 0.4624(6) 0.9589(2) 0.9649(3)
H44 H 0.6392 0.9187 0.9779
H45 H 0.5436 0.8917 0.9906
C54 C 0.4687(6) 0.9412(2) 0.9140(3)
H49 H 0.5131 0.9202 0.9088
C55 C 0.4093(5) 0.95471(18) 0.8717(3)
C56 C 0.3389(6) 0.9856(2) 0.8794(3)
H50 H 0.2781 0.9904 0.8032
C62 C 0.4250(7) 0.9341(2) 0.8189(3)
O12 O 0.5152(5) 0.92176(18) 0.8099(2)
O13 O 0.3490(5) 0.92962(15) 0.7882(2)
Gd6 Gd 0.65399(2) 0.885037(7) 0.785715(10)
Gd7 Gd 0.34601(2) 0.885037(7) 0.714285(10)
C3_2 C 0.1465(14) 0.0092(3) 0.6397(6)
H3_2 H 0.1126 0.0308 0.6257
H4_2 H 0.2661 0.0089 0.5865
C37_2 C 0.7241(7) 0.0009(3) 0.6623(4)
C38_2 C 0.7873(12) 0.0309(5) 0.6512(6)
C39_2 C 0.7928(11) 0.0495(5) 0.6015(6)
H26_2 H 0.8357 0.0709 0.5965
C40_2 C 0.7338(9) 0.0354(4) 0.5607(5)
H27_2 H 0.7393 0.0467 0.5268
C41_2 C 0.6630(6) 0.0036(2) 0.5682(4)
Cl3_2 Cl 0.8648(4) 0.05077(17) 0.7035(2)
C50_2 C 0.6018(6) 0.0101(3) 0.4733(3)
C51_2 C 0.5376(6) 0.0411(2) 0.4649(3)
O11_2 O 0.4800(5) 0.05412(19) 0.5082(2)
C52_2 C 0.4160(9) 0.0865(3) 0.5037(4)
H44_2 H 0.3608 0.0813 0.4779
H45_2 H 0.4564 0.1083 0.4906
C53_2 C 0.3712(10) 0.0959(4) 0.5552(4)
H46_2 H 0.3274 0.1183 0.5517
H47_2 H 0.4259 0.1012 0.5806
H48_2 H 0.3303 0.0744 0.5678
C54_2 C 0.5313(6) 0.0588(2) 0.4140(3)
H49_2 H 0.4869 0.0798 0.4088
C55_2 C 0.5907(5) 0.04529(18) 0.3717(3)
C56_2 C 0.6611(6) 0.0144(2) 0.3794(3)
H50_2 H 0.7219 0.0096 0.3032
C62_2 C 0.5750(7) 0.0659(2) 0.3189(3)
O12_2 O 0.4848(5) 0.07824(18) 0.3099(2)
O1_2 O 0.3168(5) 0.87823(15) 0.61758(17)
O2_2 O 0.2518(4) 0.83189(13) 0.66739(18)
O3_2 O 0.2585(4) 0.72683(14) 0.5151(2)
O5_2 O 0.1404(3) 0.65777(13) 0.2851(2)
O6_2 O 0.0282(4) 0.72907(14) 0.49197(19)
O7_2 O 0.4848(5) 0.92176(18) 0.6901(2)
O8_2 O 0.6510(5) 0.92962(15) 0.7118(2)
O9_2 O 0.4800(5) 0.94588(19) 0.4918(2)
O10_2 O 0.1730(3) 0.88205(15) 0.75345(18)
N1_2 N 0.2481(7) 0.94478(19) 0.6818(3)
C1_2 C 0.1562(8) 0.9579(3) 0.7053(5)
H1_2 H 0.1286 0.9451 0.7350
C2_2 C 0.1054(10) 0.9901(4) 0.6842(7)
H2_2 H 0.0438 0.9989 0.6999
C4_2 C 0.2385(15) 0.9961(4) 0.6163(5)
C5_2 C 0.2893(11) 0.9639(3) 0.6374(5)
H5_2 H 0.3509 0.9551 0.6217
N2_2 N 0.0709(5) 0.8533(2) 0.8171(3)
C6_2 C 0.1814(5) 0.78253(18) 0.4797(3)
C7_2 C 0.2355(5) 0.76536(18) 0.5214(3)
C8_2 C 0.2617(5) 0.78635(19) 0.5682(3)
H6_2 H 0.2957 0.7740 0.5965
C9_2 C 0.2369(5) 0.82525(18) 0.5721(3)
C10_2 C 0.1818(4) 0.84395(18) 0.5306(2)
C11_2 C 0.1496(5) 0.88291(17) 0.5347(3)
H7_2 H 0.1673 0.8973 0.5650
C12_2 C 0.0922(6) 0.89973(19) 0.4941(3)
C13_2 C 0.0643(6) 0.87899(19) 0.4481(3)
H8_2 H 0.0254 0.8909 0.4211
C14_2 C 0.0944(5) 0.84087(19) 0.4428(3)
H9_2 H 0.0762 0.8272 0.4119
C15_2 C 0.1531(5) 0.82215(17) 0.4839(2)
C16_2 C 0.2713(5) 0.8466(2) 0.6222(2)
C17_2 C 0.3122(6) 0.7066(2) 0.5574(3)
H10_2 H 0.2775 0.7107 0.5916
H11_2 H 0.3836 0.7158 0.5603
C18_2 C 0.3106(7) 0.6637(2) 0.5424(5)
H12_2 H 0.3460 0.6490 0.5697
H13_2 H 0.3451 0.6601 0.5084
H14_2 H 0.2396 0.6550 0.5397
C19_2 C 0.1486(5) 0.75794(16) 0.4328(2)
C20_2 C 0.0732(5) 0.72975(19) 0.4416(3)
C21_2 C 0.0463(5) 0.70322(17) 0.4009(3)
C22_2 C 0.0934(4) 0.70381(17) 0.3521(3)
C23_2 C 0.1691(5) 0.73290(17) 0.3397(2)
C24_2 C 0.2189(5) 0.73651(19) 0.2876(3)
H16_2 H 0.2020 0.7195 0.2599
C25_2 C 0.2906(6) 0.7650(2) 0.2795(3)
C26_2 C 0.3190(6) 0.7914(2) 0.3200(3)
H17_2 H 0.3707 0.8098 0.3137
C27_2 C 0.2702(6) 0.7898(2) 0.3683(3)
H18_2 H 0.2857 0.8086 0.3939
C28_2 C 0.1953(4) 0.76026(17) 0.3816(2)
C29_2 C 0.0663(6) 0.67188(19) 0.3125(3)
C30_2 C 0.0049(6) 0.6915(2) 0.5142(3)
H19_2 H 0.0522 0.6722 0.4996
C31_2 C 0.0177(7) 0.6943(3) 0.5741(4)
H21_2 H 0.0028 0.6696 0.5902
H23_2 H 0.0880 0.7017 0.5824
C32_2 C 0.6018(6) 0.9899(3) 0.5267(3)
C33_2 C 0.5376(6) 0.9589(2) 0.5351(3)
C34_2 C 0.5313(6) 0.9412(2) 0.5860(3)
H24_2 H 0.4869 0.9202 0.5912
C35_2 C 0.5907(5) 0.95471(18) 0.6283(3)
C36_2 C 0.6611(6) 0.9856(2) 0.6206(3)
H25_2 H 0.7219 0.9904 0.6968
C42_2 C 0.5750(7) 0.9341(2) 0.6811(3)
C43_2 C 0.4160(9) 0.9135(3) 0.4963(4)
H28_2 H 0.3608 0.9187 0.5221
H29_2 H 0.4564 0.8917 0.5094
C44_2 C 0.3712(10) 0.9041(4) 0.4448(4)
H30_2 H 0.3274 0.8817 0.4483
H31_2 H 0.4259 0.8988 0.4194
H32_2 H 0.3303 0.9256 0.4322
C45_2 C 0.1321(5) 0.8539(3) 0.7732(3)
H33_2 H 0.1441 0.8303 0.7563
C46_2 C 0.0433(9) 0.8900(3) 0.8404(5)
H35_2 H 0.0314 0.9087 0.8118
C47_2 C 0.1281(13) 0.9056(4) 0.8781(6)
H36_2 H 0.1061 0.9300 0.8929
H37_2 H 0.1917 0.9091 0.8583
H38_2 H 0.1395 0.8874 0.9068
C48_2 C 0.0232(7) 0.8182(3) 0.8391(5)
H39_2 H 0.0417 0.7963 0.8165
C49_2 C 0.0576(10) 0.8102(4) 0.8962(5)
H41_2 H 0.0246 0.7870 0.9090
H42_2 H 0.0380 0.8316 0.9188
H43_2 H 0.1320 0.8071 0.8972
Cl1_2 Cl 0.0481(2) 0.94771(6) 0.49978(11)
Cl2_2 Cl 0.35152(18) 0.76822(7) 0.21607(8)
C57_2 C 0.7241(7) 0.9991(3) 0.3377(4)
C58_2 C 0.7873(12) 0.9691(5) 0.3488(6)
C59_2 C 0.7928(11) 0.9505(5) 0.3985(6)
H51_2 H 0.8357 0.9291 0.4035
C60_2 C 0.7338(9) 0.9646(4) 0.4393(5)
H52_2 H 0.7393 0.9533 0.4732
C61_2 C 0.6630(6) 0.9964(2) 0.4318(4)
Cl4_2 Cl 0.8648(4) 0.94923(17) 0.2965(2)
O14_2 O 0.8168(5) 0.62177(15) 0.38242(17)
O15_2 O 0.7518(4) 0.66811(13) 0.33261(18)
O16_2 O 0.7585(4) 0.77317(14) 0.4849(2)
O17_2 O 0.4740(4) 0.83947(16) 0.6875(2)
O18_2 O 0.6404(3) 0.84223(13) 0.7149(2)
O19_2 O 0.5282(4) 0.77093(14) 0.50803(19)
C63_2 C 0.6814(5) 0.71747(18) 0.5203(3)
C64_2 C 0.7355(5) 0.73464(18) 0.4786(3)
C65_2 C 0.7617(5) 0.71365(19) 0.4318(3)
H53_2 H 0.7957 0.7260 0.4035
C66_2 C 0.7369(5) 0.67475(18) 0.4279(3)
C67_2 C 0.6818(4) 0.65605(18) 0.4694(2)
C68_2 C 0.6496(5) 0.61709(17) 0.4653(3)
H54_2 H 0.6673 0.6027 0.4350
C69_2 C 0.5922(6) 0.60027(19) 0.5059(3)
C70_2 C 0.5643(6) 0.62101(19) 0.5519(3)
H55_2 H 0.5254 0.6091 0.5789
C71_2 C 0.5944(5) 0.65913(19) 0.5572(3)
H56_2 H 0.5762 0.6728 0.5881
C72_2 C 0.6531(5) 0.67785(17) 0.5161(2)
C73_2 C 0.7713(5) 0.6534(2) 0.3778(2)
C74_2 C 0.8122(6) 0.7934(2) 0.4426(3)
H57_2 H 0.7775 0.7893 0.4084
H58_2 H 0.8836 0.7842 0.4397
C75_2 C 0.8106(7) 0.8363(2) 0.4576(5)
H59_2 H 0.8460 0.8510 0.4303
H60_2 H 0.8451 0.8399 0.4916
H61_2 H 0.7396 0.8450 0.4603
C76_2 C 0.6486(5) 0.74206(16) 0.5672(2)
C77_2 C 0.5732(5) 0.77025(19) 0.5584(3)
C78_2 C 0.5463(5) 0.79678(17) 0.5991(3)
H62_2 H 0.4950 0.8152 0.5923
C79_2 C 0.5934(4) 0.79619(17) 0.6479(3)
C80_2 C 0.6691(5) 0.76710(17) 0.6603(2)
C81_2 C 0.7189(5) 0.76349(19) 0.7124(3)
H63_2 H 0.7020 0.7805 0.7401
C82_2 C 0.7906(6) 0.7350(2) 0.7205(3)
C83_2 C 0.8190(6) 0.7086(2) 0.6800(3)
H64_2 H 0.8707 0.6902 0.6863
C84_2 C 0.7702(6) 0.7102(2) 0.6317(3)
H65_2 H 0.7857 0.6914 0.6061
C85_2 C 0.6953(4) 0.73974(17) 0.6184(2)
C86_2 C 0.5663(6) 0.82812(19) 0.6875(3)
C87_2 C 0.5049(6) 0.8085(2) 0.4858(3)
H66_2 H 0.5522 0.8278 0.5004
H67_2 H 0.4340 0.8160 0.4947
C88_2 C 0.5177(7) 0.8057(3) 0.4259(4)
H68_2 H 0.5028 0.8304 0.4098
H69_2 H 0.4703 0.7866 0.4119
H70_2 H 0.5880 0.7983 0.4176
Cl5_2 Cl 0.5481(2) 0.55229(6) 0.50022(11)
Cl6_2 Cl 0.85152(18) 0.73178(7) 0.78393(8)
Gd2 Gd 0.84601(2) 0.614963(7) 0.285715(10)
O20_2 O 0.6730(3) 0.61795(15) 0.24655(18)
N3_2 N 0.5709(5) 0.6467(2) 0.1829(3)
C89_2 C 0.6321(5) 0.6461(3) 0.2268(3)
H71_2 H 0.6441 0.6697 0.2437
C90_2 C 0.5433(9) 0.6100(3) 0.1596(5)
H72_2 H 0.4788 0.6128 0.1396
H73_2 H 0.5314 0.5913 0.1882
C91_2 C 0.6281(13) 0.5944(4) 0.1219(6)
H74_2 H 0.6061 0.5700 0.1071
H75_2 H 0.6917 0.5909 0.1417
H76_2 H 0.6395 0.6126 0.0932
C92_2 C 0.5232(7) 0.6818(3) 0.1609(5)
H77_2 H 0.5417 0.7037 0.1835
H78_2 H 0.4479 0.6790 0.1618
C93_2 C 0.5576(10) 0.6898(4) 0.1038(5)
H79_2 H 0.5246 0.7130 0.0910
H80_2 H 0.5380 0.6684 0.0812
H81_2 H 0.6320 0.6929 0.1028
N4_2 N 0.7481(7) 0.55522(19) 0.3182(3)
C94_2 C 0.6562(8) 0.5421(3) 0.2947(5)
H82_2 H 0.6286 0.5549 0.2650
C95_2 C 0.6054(10) 0.5099(4) 0.3158(7)
H83_2 H 0.5438 0.5011 0.3001
C96_2 C 0.6465(14) 0.4908(3) 0.3603(6)
H84_2 H 0.6126 0.4692 0.3743
C97_2 C 0.7385(15) 0.5039(4) 0.3837(5)
H85_2 H 0.7661 0.4911 0.4135
C98_2 C 0.7893(11) 0.5361(3) 0.3626(5)
H86_2 H 0.8509 0.5449 0.3783
O21_2 O 0.3596(3) 0.84223(13) 0.7851(2)
Gd4_2 Gd 0.15399(2) 0.614963(7) 0.214285(10)
O23 O 0.9740(4) 0.66053(16) 0.3125(2)
O24_2 O 0.8596(3) 0.65777(13) 0.2149(2)
O25_2 O 0.9848(5) 0.57824(18) 0.3099(2)
O26_2 O 0.8490(5) 0.57038(15) 0.2118(2)
H15_2 H 0.9950 0.6848 0.4077
H20_2 H 0.9340 0.6840 0.5053
H22_2 H 0.9703 0.7134 0.5881
H34_2 H 0.9788 0.8872 0.8604
H40_2 H 0.9479 0.8210 0.8382
O1_3 O 0.3168(5) 0.12177(15) 0.38242(17)
O2_3 O 0.2518(4) 0.16811(13) 0.33261(18)
O3_3 O 0.2585(4) 0.27317(14) 0.4849(2)
O6_3 O 0.0282(4) 0.27093(14) 0.50803(19)
O10_3 O 0.1730(3) 0.11795(15) 0.24655(18)
N1_3 N 0.2481(7) 0.05522(19) 0.3182(3)
C1_3 C 0.1562(8) 0.0421(3) 0.2947(5)
H1_3 H 0.1286 0.0549 0.2650
C2_3 C 0.1054(10) 0.0099(4) 0.3158(7)
H2_3 H 0.0438 0.0011 0.3001
C4_3 C 0.2385(15) 0.0039(4) 0.3837(5)
C5_3 C 0.2893(11) 0.0361(3) 0.3626(5)
H5_3 H 0.3509 0.0449 0.3783
N2_3 N 0.0709(5) 0.1467(2) 0.1829(3)
C6_3 C 0.1814(5) 0.21747(18) 0.5203(3)
C7_3 C 0.2355(5) 0.23464(18) 0.4786(3)
C8_3 C 0.2617(5) 0.21365(19) 0.4318(3)
H6_3 H 0.2957 0.2260 0.4035
C9_3 C 0.2369(5) 0.17475(18) 0.4279(3)
C10_3 C 0.1818(4) 0.15605(18) 0.4694(2)
C11_3 C 0.1496(5) 0.11709(17) 0.4653(3)
H7_3 H 0.1673 0.1027 0.4350
C12_3 C 0.0922(6) 0.10027(19) 0.5059(3)
C13_3 C 0.0643(6) 0.12101(19) 0.5519(3)
H8_3 H 0.0254 0.1091 0.5789
C14_3 C 0.0944(5) 0.15913(19) 0.5572(3)
H9_3 H 0.0762 0.1728 0.5881
C15_3 C 0.1531(5) 0.17785(17) 0.5161(2)
C16_3 C 0.2713(5) 0.1534(2) 0.3778(2)
C17_3 C 0.3122(6) 0.2934(2) 0.4426(3)
H10_3 H 0.2775 0.2893 0.4084
H11_3 H 0.3836 0.2842 0.4397
C18_3 C 0.3106(7) 0.3363(2) 0.4576(5)
H12_3 H 0.3460 0.3510 0.4303
H13_3 H 0.3451 0.3399 0.4916
H14_3 H 0.2396 0.3450 0.4603
C19_3 C 0.1486(5) 0.24206(16) 0.5672(2)
C20_3 C 0.0732(5) 0.27025(19) 0.5584(3)
C21_3 C 0.0463(5) 0.29678(17) 0.5991(3)
C22_3 C 0.0934(4) 0.29619(17) 0.6479(3)
C23_3 C 0.1691(5) 0.26710(17) 0.6603(2)
C24_3 C 0.2189(5) 0.26349(19) 0.7124(3)
H16_3 H 0.2020 0.2805 0.7401
C25_3 C 0.2906(6) 0.2350(2) 0.7205(3)
C26_3 C 0.3190(6) 0.2086(2) 0.6800(3)
H17_3 H 0.3707 0.1902 0.6863
C27_3 C 0.2702(6) 0.2102(2) 0.6317(3)
H18_3 H 0.2857 0.1914 0.6061
C28_3 C 0.1953(4) 0.23974(17) 0.6184(2)
C29_3 C 0.0663(6) 0.32812(19) 0.6875(3)
C30_3 C 0.0049(6) 0.3085(2) 0.4858(3)
H19_3 H 0.0522 0.3278 0.5004
C31_3 C 0.0177(7) 0.3057(3) 0.4259(4)
H21_3 H 0.0028 0.3304 0.4098
H23_3 H 0.0880 0.2983 0.4176
C45_3 C 0.1321(5) 0.1461(3) 0.2268(3)
H33_3 H 0.1441 0.1697 0.2437
C46_3 C 0.0433(9) 0.1100(3) 0.1596(5)
H35_3 H 0.0314 0.0913 0.1882
C47_3 C 0.1281(13) 0.0944(4) 0.1219(6)
H36_3 H 0.1061 0.0700 0.1071
H37_3 H 0.1917 0.0909 0.1417
H38_3 H 0.1395 0.1126 0.0932
C48_3 C 0.0232(7) 0.1818(3) 0.1609(5)
H39_3 H 0.0417 0.2037 0.1835
C49_3 C 0.0576(10) 0.1898(4) 0.1038(5)
H41_3 H 0.0246 0.2130 0.0910
H42_3 H 0.0380 0.1684 0.0812
H43_3 H 0.1320 0.1929 0.1028
Cl1_3 Cl 0.0481(2) 0.05229(6) 0.50022(11)
Cl2_3 Cl 0.35152(18) 0.23178(7) 0.78393(8)
O14_3 O 0.8168(5) 0.37823(15) 0.61758(17)
O15_3 O 0.7518(4) 0.33189(13) 0.66739(18)
O16_3 O 0.7585(4) 0.22683(14) 0.5151(2)
O17_3 O 0.4740(4) 0.16053(16) 0.3125(2)
O19_3 O 0.5282(4) 0.22907(14) 0.49197(19)
C63_3 C 0.6814(5) 0.28253(18) 0.4797(3)
C64_3 C 0.7355(5) 0.26536(18) 0.5214(3)
C65_3 C 0.7617(5) 0.28635(19) 0.5682(3)
H53_3 H 0.7957 0.2740 0.5965
C66_3 C 0.7369(5) 0.32525(18) 0.5721(3)
C67_3 C 0.6818(4) 0.34395(18) 0.5306(2)
C68_3 C 0.6496(5) 0.38291(17) 0.5347(3)
H54_3 H 0.6673 0.3973 0.5650
C69_3 C 0.5922(6) 0.39973(19) 0.4941(3)
C70_3 C 0.5643(6) 0.37899(19) 0.4481(3)
H55_3 H 0.5254 0.3909 0.4211
C71_3 C 0.5944(5) 0.34087(19) 0.4428(3)
H56_3 H 0.5762 0.3272 0.4119
C72_3 C 0.6531(5) 0.32215(17) 0.4839(2)
C73_3 C 0.7713(5) 0.3466(2) 0.6222(2)
C74_3 C 0.8122(6) 0.2066(2) 0.5574(3)
H57_3 H 0.7775 0.2107 0.5916
H58_3 H 0.8836 0.2158 0.5603
C75_3 C 0.8106(7) 0.1637(2) 0.5424(5)
H59_3 H 0.8460 0.1490 0.5697
H60_3 H 0.8451 0.1601 0.5084
H61_3 H 0.7396 0.1550 0.5397
C76_3 C 0.6486(5) 0.25794(16) 0.4328(2)
C77_3 C 0.5732(5) 0.22975(19) 0.4416(3)
C78_3 C 0.5463(5) 0.20322(17) 0.4009(3)
H62_3 H 0.4950 0.1848 0.4077
C79_3 C 0.5934(4) 0.20381(17) 0.3521(3)
C80_3 C 0.6691(5) 0.23290(17) 0.3397(2)
C81_3 C 0.7189(5) 0.23651(19) 0.2876(3)
H63_3 H 0.7020 0.2195 0.2599
C82_3 C 0.7906(6) 0.2650(2) 0.2795(3)
C83_3 C 0.8190(6) 0.2914(2) 0.3200(3)
H64_3 H 0.8707 0.3098 0.3137
C84_3 C 0.7702(6) 0.2898(2) 0.3683(3)
H65_3 H 0.7857 0.3086 0.3939
C85_3 C 0.6953(4) 0.26026(17) 0.3816(2)
C86_3 C 0.5663(6) 0.17188(19) 0.3125(3)
C87_3 C 0.5049(6) 0.1915(2) 0.5142(3)
H66_3 H 0.5522 0.1722 0.4996
H67_3 H 0.4340 0.1840 0.5053
C88_3 C 0.5177(7) 0.1943(3) 0.5741(4)
H68_3 H 0.5028 0.1696 0.5902
H69_3 H 0.4703 0.2134 0.5881
H70_3 H 0.5880 0.2017 0.5824
Cl5_3 Cl 0.5481(2) 0.44771(6) 0.49978(11)
Cl6_3 Cl 0.85152(18) 0.26822(7) 0.21607(8)
O20_3 O 0.6730(3) 0.38205(15) 0.75345(18)
N3_3 N 0.5709(5) 0.3533(2) 0.8171(3)
C89_3 C 0.6321(5) 0.3539(3) 0.7732(3)
H71_3 H 0.6441 0.3303 0.7563
C90_3 C 0.5433(9) 0.3900(3) 0.8404(5)
H72_3 H 0.4788 0.3872 0.8604
H73_3 H 0.5314 0.4087 0.8118
C91_3 C 0.6281(13) 0.4056(4) 0.8781(6)
H74_3 H 0.6061 0.4300 0.8929
H75_3 H 0.6917 0.4091 0.8583
H76_3 H 0.6395 0.3874 0.9068
C92_3 C 0.5232(7) 0.3182(3) 0.8391(5)
H77_3 H 0.5417 0.2963 0.8165
H78_3 H 0.4479 0.3210 0.8382
C93_3 C 0.5576(10) 0.3102(4) 0.8962(5)
H79_3 H 0.5246 0.2870 0.9090
H80_3 H 0.5380 0.3316 0.9188
H81_3 H 0.6320 0.3071 0.8972
N4_3 N 0.7481(7) 0.44478(19) 0.6818(3)
C94_3 C 0.6562(8) 0.4579(3) 0.7053(5)
H82_3 H 0.6286 0.4451 0.7350
C95_3 C 0.6054(10) 0.4901(4) 0.6842(7)
H83_3 H 0.5438 0.4989 0.6999
C96_3 C 0.6465(14) 0.5092(3) 0.6397(6)
H84_3 H 0.6126 0.5308 0.6257
C97_3 C 0.7385(15) 0.4961(4) 0.6163(5)
H85_3 H 0.7661 0.5089 0.5865
C98_3 C 0.7893(11) 0.4639(3) 0.6374(5)
H86_3 H 0.8509 0.4551 0.6217
O23_2 O 0.9740(4) 0.33947(16) 0.6875(2)
O25_3 O 0.9848(5) 0.42176(18) 0.6901(2)
O26_3 O 0.8490(5) 0.42962(15) 0.7882(2)
C3_3 C 0.1465(14) 0.9908(3) 0.3603(6)
H3_3 H 0.1126 0.9692 0.3743
H4_3 H 0.2661 0.9911 0.4135
H15_3 H 0.9950 0.3152 0.5923
H20_3 H 0.9340 0.3160 0.4947
H22_3 H 0.9703 0.2866 0.4119
H34_3 H 0.9788 0.1128 0.1396
H40_3 H 0.9479 0.1790 0.1618
O4_2 O 0.0260(4) 0.66053(16) 0.1875(2)
H15_4 H 0.0050 0.6848 0.0923
H20_4 H 0.0660 0.6840 0.9947
H22_4 H 0.0297 0.7134 0.9119
H34_4 H 0.0212 0.8872 0.6396
H40_4 H 0.0521 0.8210 0.6618
C3_4 C 0.8535(14) 0.0092(3) 0.8603(6)
H3_4 H 0.8874 0.0308 0.8743
H4_4 H 0.7339 0.0089 0.9135
O6_4 O 0.9718(4) 0.72907(14) 0.00803(19)
C6_4 C 0.8186(5) 0.78253(18) 0.0203(3)
C12_4 C 0.9078(6) 0.89973(19) 0.0059(3)
C13_4 C 0.9357(6) 0.87899(19) 0.0519(3)
H8_4 H 0.9746 0.8909 0.0789
C14_4 C 0.9056(5) 0.84087(19) 0.0572(3)
H9_4 H 0.9238 0.8272 0.0881
C15_4 C 0.8469(5) 0.82215(17) 0.0161(2)
C19_4 C 0.8514(5) 0.75794(16) 0.0672(2)
C20_4 C 0.9268(5) 0.72975(19) 0.0584(3)
C21_4 C 0.9537(5) 0.70322(17) 0.0991(3)
C22_4 C 0.9066(4) 0.70381(17) 0.1479(3)
C23_4 C 0.8309(5) 0.73290(17) 0.1603(2)
C24_4 C 0.7811(5) 0.73651(19) 0.2124(3)
H16_4 H 0.7980 0.7195 0.2401
C25_4 C 0.7094(6) 0.7650(2) 0.2205(3)
C26_4 C 0.6810(6) 0.7914(2) 0.1800(3)
H17_4 H 0.6293 0.8098 0.1863
C27_4 C 0.7298(6) 0.7898(2) 0.1317(3)
H18_4 H 0.7143 0.8086 0.1061
C28_4 C 0.8047(4) 0.76026(17) 0.1184(2)
C29_4 C 0.9337(6) 0.67188(19) 0.1875(3)
H19_4 H 0.9478 0.6722 0.0004
Cl1_4 Cl 0.9519(2) 0.94771(6) 0.00022(11)
Cl2_4 Cl 0.64848(18) 0.76822(7) 0.28393(8)
O14_4 O 0.1832(5) 0.62177(15) 0.11758(17)
O15_4 O 0.2482(4) 0.66811(13) 0.16739(18)
O16_4 O 0.2415(4) 0.77317(14) 0.0151(2)
C64_4 C 0.2645(5) 0.73464(18) 0.0214(3)
C65_4 C 0.2383(5) 0.71365(19) 0.0682(3)
H53_4 H 0.2043 0.7260 0.0965
C66_4 C 0.2631(5) 0.67475(18) 0.0721(3)
C67_4 C 0.3182(4) 0.65605(18) 0.0306(2)
C68_4 C 0.3504(5) 0.61709(17) 0.0347(3)
H54_4 H 0.3327 0.6027 0.0650
C73_4 C 0.2287(5) 0.6534(2) 0.1222(2)
C74_4 C 0.1878(6) 0.7934(2) 0.0574(3)
H57_4 H 0.2225 0.7893 0.0916
H58_4 H 0.1164 0.7842 0.0603
C75_4 C 0.1894(7) 0.8363(2) 0.0424(5)
H59_4 H 0.1540 0.8510 0.0697
H60_4 H 0.1549 0.8399 0.0084
H61_4 H 0.2604 0.8450 0.0397
C87_4 C 0.4951(6) 0.8085(2) 0.0142(3)
H67_4 H 0.5660 0.8160 0.0053
C88_4 C 0.4823(7) 0.8057(3) 0.0741(4)
H68_4 H 0.4972 0.8304 0.0902
H69_4 H 0.5297 0.7866 0.0881
H70_4 H 0.4120 0.7983 0.0824
O20_4 O 0.3270(3) 0.61795(15) 0.25345(18)
N3_4 N 0.4291(5) 0.6467(2) 0.3171(3)
C89_4 C 0.3679(5) 0.6461(3) 0.2732(3)
H71_4 H 0.3559 0.6697 0.2563
C90_4 C 0.4567(9) 0.6100(3) 0.3404(5)
H72_4 H 0.5212 0.6128 0.3604
H73_4 H 0.4686 0.5913 0.3118
C91_4 C 0.3719(13) 0.5944(4) 0.3781(6)
H74_4 H 0.3939 0.5700 0.3929
H75_4 H 0.3083 0.5909 0.3583
H76_4 H 0.3605 0.6126 0.4068
C92_4 C 0.4768(7) 0.6818(3) 0.3391(5)
H77_4 H 0.4583 0.7037 0.3165
H78_4 H 0.5521 0.6790 0.3382
C93_4 C 0.4424(10) 0.6898(4) 0.3962(5)
H79_4 H 0.4754 0.7130 0.4090
H80_4 H 0.4620 0.6684 0.4188
H81_4 H 0.3680 0.6929 0.3972
N4_4 N 0.2519(7) 0.55522(19) 0.1818(3)
C94_4 C 0.3438(8) 0.5421(3) 0.2053(5)
H82_4 H 0.3714 0.5549 0.2350
C95_4 C 0.3946(10) 0.5099(4) 0.1842(7)
H83_4 H 0.4562 0.5011 0.1999
C96_4 C 0.3535(14) 0.4908(3) 0.1397(6)
H84_4 H 0.3874 0.4692 0.1257
C97_4 C 0.2615(15) 0.5039(4) 0.1163(5)
H85_4 H 0.2339 0.4911 0.0865
C98_4 C 0.2107(11) 0.5361(3) 0.1374(5)
H86_4 H 0.1491 0.5449 0.1217
O25_4 O 0.0152(5) 0.57824(18) 0.1901(2)
O26_4 O 0.1510(5) 0.57038(15) 0.2882(2)
O1_4 O 0.6832(5) 0.87823(15) 0.88242(17)
O2_4 O 0.7482(4) 0.83189(13) 0.83261(18)
O3_4 O 0.7415(4) 0.72683(14) 0.9849(2)
O10_4 O 0.8270(3) 0.88205(15) 0.74655(18)
N1_4 N 0.7519(7) 0.94478(19) 0.8182(3)
C1_4 C 0.8438(8) 0.9579(3) 0.7947(5)
H1_4 H 0.8714 0.9451 0.7650
C2_4 C 0.8946(10) 0.9901(4) 0.8158(7)
H2_4 H 0.9562 0.9989 0.8001
C4_4 C 0.7615(15) 0.9961(4) 0.8837(5)
C5_4 C 0.7107(11) 0.9639(3) 0.8626(5)
H5_4 H 0.6491 0.9551 0.8783
N2_4 N 0.9291(5) 0.8533(2) 0.6829(3)
C7_4 C 0.7645(5) 0.76536(18) 0.9786(3)
C8_4 C 0.7383(5) 0.78635(19) 0.9318(3)
H6_4 H 0.7043 0.7740 0.9035
C9_4 C 0.7631(5) 0.82525(18) 0.9279(3)
C10_4 C 0.8182(4) 0.84395(18) 0.9694(2)
C11_4 C 0.8504(5) 0.88291(17) 0.9653(3)
H7_4 H 0.8327 0.8973 0.9350
C16_4 C 0.7287(5) 0.8466(2) 0.8778(2)
C17_4 C 0.6878(6) 0.7066(2) 0.9426(3)
H10_4 H 0.7225 0.7107 0.9084
H11_4 H 0.6164 0.7158 0.9397
C18_4 C 0.6894(7) 0.6637(2) 0.9576(5)
H12_4 H 0.6540 0.6490 0.9303
H13_4 H 0.6549 0.6601 0.9916
H14_4 H 0.7604 0.6550 0.9603
C30_4 C 0.9951(6) 0.6915(2) 0.9858(3)
C31_4 C 0.9823(7) 0.6943(3) 0.9259(4)
H21_4 H 0.9972 0.6696 0.9098
H23_4 H 0.9120 0.7017 0.9176
C45_4 C 0.8679(5) 0.8539(3) 0.7268(3)
H33_4 H 0.8559 0.8303 0.7437
C46_4 C 0.9567(9) 0.8900(3) 0.6596(5)
H35_4 H 0.9686 0.9087 0.6882
C47_4 C 0.8719(13) 0.9056(4) 0.6219(6)
H36_4 H 0.8939 0.9300 0.6071
H37_4 H 0.8083 0.9091 0.6417
H38_4 H 0.8605 0.8874 0.5932
C48_4 C 0.9768(7) 0.8182(3) 0.6609(5)
H39_4 H 0.9583 0.7963 0.6835
C49_4 C 0.9424(10) 0.8102(4) 0.6038(5)
H41_4 H 0.9754 0.7870 0.5910
H42_4 H 0.9620 0.8316 0.5812
H43_4 H 0.8680 0.8071 0.6028
O17_4 O 0.5260(4) 0.83947(16) 0.8125(2)
O19_4 O 0.4718(4) 0.77093(14) 0.99197(19)
C63_4 C 0.3186(5) 0.71747(18) 0.9797(3)
C69_4 C 0.4078(6) 0.60027(19) 0.9941(3)
C70_4 C 0.4357(6) 0.62101(19) 0.9481(3)
H55_4 H 0.4746 0.6091 0.9211
C71_4 C 0.4056(5) 0.65913(19) 0.9428(3)
H56_4 H 0.4238 0.6728 0.9119
C72_4 C 0.3469(5) 0.67785(17) 0.9839(2)
C76_4 C 0.3514(5) 0.74206(16) 0.9328(2)
C77_4 C 0.4268(5) 0.77025(19) 0.9416(3)
C78_4 C 0.4537(5) 0.79678(17) 0.9009(3)
H62_4 H 0.5050 0.8152 0.9077
C79_4 C 0.4066(4) 0.79619(17) 0.8521(3)
C80_4 C 0.3309(5) 0.76710(17) 0.8397(2)
C81_4 C 0.2811(5) 0.76349(19) 0.7876(3)
H63_4 H 0.2980 0.7805 0.7599
C82_4 C 0.2094(6) 0.7350(2) 0.7795(3)
C83_4 C 0.1810(6) 0.7086(2) 0.8200(3)
H64_4 H 0.1293 0.6902 0.8137
C84_4 C 0.2298(6) 0.7102(2) 0.8683(3)
H65_4 H 0.2143 0.6914 0.8939
C85_4 C 0.3047(4) 0.73974(17) 0.8816(2)
C86_4 C 0.4337(6) 0.82812(19) 0.8125(3)
H66_4 H 0.4478 0.8278 0.9996
Cl5_4 Cl 0.4519(2) 0.55229(6) 0.99978(11)
Cl6_4 Cl 0.14848(18) 0.73178(7) 0.71607(8)
H24_3 H 0.0131 0.5798 0.0912
H28_3 H 0.1392 0.5813 0.0221
H29_3 H 0.0436 0.6083 0.0094
O11_3 O 0.0200(5) 0.44588(19) 0.0082(2)
C52_3 C 0.0840(9) 0.4135(3) 0.0037(4)
C53_3 C 0.1288(10) 0.4041(4) 0.0552(4)
H46_3 H 0.1726 0.3817 0.0517
H47_3 H 0.0741 0.3988 0.0806
H48_3 H 0.1697 0.4256 0.0678
O9_3 O 0.0200(5) 0.55412(19) 0.9918(2)
C43_3 C 0.0840(9) 0.5865(3) 0.9963(4)
C44_3 C 0.1288(10) 0.5959(4) 0.9448(4)
H30_3 H 0.1726 0.6183 0.9483
H31_3 H 0.0741 0.6012 0.9194
H32_3 H 0.1697 0.5744 0.9322
H44_3 H 0.1392 0.4187 0.9779
H45_3 H 0.0436 0.3917 0.9906
H49_3 H 0.0131 0.4202 0.9088
C32_3 C 0.8982(6) 0.5101(3) 0.0267(3)
C33_3 C 0.9624(6) 0.5411(2) 0.0351(3)
C34_3 C 0.9687(6) 0.5588(2) 0.0860(3)
C35_3 C 0.9093(5) 0.54529(18) 0.1283(3)
C36_3 C 0.8389(6) 0.5144(2) 0.1206(3)
C37_3 C 0.7759(7) 0.4991(3) 0.1623(4)
H25_3 H 0.7781 0.5096 0.1968
C38_3 C 0.7127(12) 0.4691(5) 0.1512(6)
C39_3 C 0.7072(11) 0.4505(5) 0.1015(6)
H26_3 H 0.6643 0.4291 0.0965
C40_3 C 0.7662(9) 0.4646(4) 0.0607(5)
H27_3 H 0.7607 0.4533 0.0268
C41_3 C 0.8370(6) 0.4964(2) 0.0682(4)
C42_3 C 0.9250(7) 0.5659(2) 0.1811(3)
Cl3_3 Cl 0.6352(4) 0.44923(17) 0.2035(2)
C50_3 C 0.8982(6) 0.4899(3) 0.9733(3)
C51_3 C 0.9624(6) 0.4589(2) 0.9649(3)
C54_3 C 0.9687(6) 0.4412(2) 0.9140(3)
C55_3 C 0.9093(5) 0.45471(18) 0.8717(3)
C56_3 C 0.8389(6) 0.4856(2) 0.8794(3)
C57_3 C 0.7759(7) 0.5009(3) 0.8377(4)
H50_3 H 0.7781 0.4904 0.8032
C58_3 C 0.7127(12) 0.5309(5) 0.8488(6)
C59_3 C 0.7072(11) 0.5495(5) 0.8985(6)
H51_3 H 0.6643 0.5709 0.9035
C60_3 C 0.7662(9) 0.5354(4) 0.9393(5)
H52_3 H 0.7607 0.5467 0.9732
C61_3 C 0.8370(6) 0.5036(2) 0.9318(4)
Cl4_3 Cl 0.6352(4) 0.55077(17) 0.7965(2)
C62_3 C 0.9250(7) 0.4341(2) 0.8189(3)
C32_4 C 0.1018(6) 0.4899(3) 0.5267(3)
C33_4 C 0.0376(6) 0.4589(2) 0.5351(3)
C34_4 C 0.0313(6) 0.4412(2) 0.5860(3)
C35_4 C 0.0907(5) 0.45471(18) 0.6283(3)
C36_4 C 0.1611(6) 0.4856(2) 0.6206(3)
C37_4 C 0.2241(7) 0.5009(3) 0.6623(4)
H25_4 H 0.2219 0.4904 0.6968
C38_4 C 0.2873(12) 0.5309(5) 0.6512(6)
C39_4 C 0.2928(11) 0.5495(5) 0.6015(6)
H26_4 H 0.3357 0.5709 0.5965
C40_4 C 0.2338(9) 0.5354(4) 0.5607(5)
H27_4 H 0.2393 0.5467 0.5268
C41_4 C 0.1630(6) 0.5036(2) 0.5682(4)
C42_4 C 0.0750(7) 0.4341(2) 0.6811(3)
Cl3_4 Cl 0.3648(4) 0.55077(17) 0.7035(2)
C50_4 C 0.1018(6) 0.5101(3) 0.4733(3)
C51_4 C 0.0376(6) 0.5411(2) 0.4649(3)
C54_4 C 0.0313(6) 0.5588(2) 0.4140(3)
C55_4 C 0.0907(5) 0.54529(18) 0.3717(3)
C56_4 C 0.1611(6) 0.5144(2) 0.3794(3)
C57_4 C 0.2241(7) 0.4991(3) 0.3377(4)
H50_4 H 0.2219 0.5096 0.3032
C58_4 C 0.2873(12) 0.4691(5) 0.3488(6)
C59_4 C 0.2928(11) 0.4505(5) 0.3985(6)
H51_4 H 0.3357 0.4291 0.4035
C60_4 C 0.2338(9) 0.4646(4) 0.4393(5)
H52_4 H 0.2393 0.4533 0.4732
C61_4 C 0.1630(6) 0.4964(2) 0.4318(4)
Cl4_4 Cl 0.3648(4) 0.44923(17) 0.2965(2)
C62_4 C 0.0750(7) 0.5659(2) 0.3189(3)
O9_4 O 0.9800(5) 0.44588(19) 0.4918(2)
H24_4 H 0.9869 0.4202 0.5912
C43_4 C 0.9160(9) 0.4135(3) 0.4963(4)
H28_4 H 0.8608 0.4187 0.5221
H29_4 H 0.9564 0.3917 0.5094
C44_4 C 0.8712(10) 0.4041(4) 0.4448(4)
H30_4 H 0.8274 0.3817 0.4483
H31_4 H 0.9259 0.3988 0.4194
H32_4 H 0.8303 0.4256 0.4322
O11_4 O 0.9800(5) 0.55412(19) 0.5082(2)
C52_4 C 0.9160(9) 0.5865(3) 0.5037(4)
H44_4 H 0.8608 0.5813 0.4779
H45_4 H 0.9564 0.6083 0.4906
C53_4 C 0.8712(10) 0.5959(4) 0.5552(4)
H46_4 H 0.8274 0.6183 0.5517
H47_4 H 0.9259 0.6012 0.5806
H48_4 H 0.8303 0.5744 0.5678
H49_4 H 0.9869 0.5798 0.4088
loop_
_geom_bond_atom_site_label_1
_geom_bond_atom_site_label_2
_geom_bond_site_symmetry_1
_geom_bond_site_symmetry_2
Gd3 O4 1_555 1_555
Gd1 O1 1_555 1_555
O1 C16 1_555 1_555
O2 Gd1 1_555 1_555
O3 C7 1_555 1_555
O7 Gd1 1_555 1_555
O8 C42 1_555 1_555
O10 Gd1 1_555 1_555
N1 Gd1 1_555 1_555
C1 N1 1_555 1_555
H1 C1 1_555 1_555
C2 C1 1_555 1_555
H2 C2 1_555 1_555
C5 N1 1_555 1_555
H5 C5 1_555 1_555
N2 C45 1_555 1_555
C7 C8 1_555 1_555
C8 H6 1_555 1_555
C9 C8 1_555 1_555
C10 C9 1_555 1_555
C11 C10 1_555 1_555
H7 C11 1_555 1_555
C16 O2 1_555 1_555
C17 O3 1_555 1_555
H10 C17 1_555 1_555
H11 C17 1_555 1_555
C18 C17 1_555 1_555
H12 C18 1_555 1_555
H13 C18 1_555 1_555
H14 C18 1_555 1_555
C31 C30 1_555 1_555
H21 C31 1_555 1_555
H23 C31 1_555 1_555
C32 C33 1_555 1_555
C33 C34 1_555 1_555
C34 H24 1_555 1_555
C35 C34 1_555 1_555
C36 C35 1_555 1_555
C42 O7 1_555 1_555
C45 O10 1_555 1_555
H33 C45 1_555 1_555
C46 N2 1_555 1_555
H35 C46 1_555 1_555
C47 C46 1_555 1_555
H36 C47 1_555 1_555
H37 C47 1_555 1_555
H38 C47 1_555 1_555
C48 N2 1_555 1_555
H39 C48 1_555 1_555
C49 C48 1_555 1_555
H41 C49 1_555 1_555
H42 C49 1_555 1_555
H43 C49 1_555 1_555
O17 Gd1 1_555 1_555
O18 C86 1_555 1_555
O19 C77 1_555 1_555
C70 C69 1_555 1_555
H55 C70 1_555 1_555
C71 C70 1_555 1_555
H56 C71 1_555 1_555
C72 C63 1_555 1_555
C76 C63 1_555 1_555
C77 C76 1_555 1_555
C78 C77 1_555 1_555
H62 C78 1_555 1_555
C79 C78 1_555 1_555
C80 C79 1_555 1_555
C81 C80 1_555 1_555
H63 C81 1_555 1_555
C82 C81 1_555 1_555
C83 C82 1_555 1_555
H64 C83 1_555 1_555
C84 C83 1_555 1_555
H65 C84 1_555 1_555
C85 C76 1_555 1_555
C86 O17 1_555 1_555
Cl5 C69 1_555 1_555
Cl6 C82 1_555 1_555
O21 Gd1 1_555 1_555
O22 Gd1 1_555 1_555
Gd5 O8 1_555 1_555
C4 C5 1_555 1_555
C9 C16 1_555 1_555
C35 C42 1_555 1_555
O18 Gd5 1_555 1_555
C71 C72 1_555 1_555
C79 C86 1_555 1_555
C80 C85 1_555 1_555
C84 C85 1_555 1_555
O5 C29 1_555 1_555
O6 C20 1_555 1_555
C13 C12 1_555 1_555
H8 C13 1_555 1_555
C14 C13 1_555 1_555
H9 C14 1_555 1_555
C15 C6 1_555 1_555
C19 C6 1_555 1_555
C20 C19 1_555 1_555
C21 C20 1_555 1_555
C22 C21 1_555 1_555
C23 C22 1_555 1_555
C24 C23 1_555 1_555
H16 C24 1_555 1_555
C25 C24 1_555 1_555
C26 C25 1_555 1_555
H17 C26 1_555 1_555
C27 C26 1_555 1_555
H18 C27 1_555 1_555
C28 C19 1_555 1_555
C29 C22 1_555 1_555
C43 O9 1_555 1_555
C44 C43 1_555 1_555
H30 C44 1_555 1_555
H31 C44 1_555 1_555
H32 C44 1_555 1_555
Cl1 C12 1_555 1_555
Cl2 C25 1_555 1_555
C58 C57 1_555 1_555
C59 C58 1_555 1_555
H51 C59 1_555 1_555
C60 C59 1_555 1_555
H52 C60 1_555 1_555
Cl4 C58 1_555 1_555
O14 C73 1_555 1_555
O15 C73 1_555 1_555
O16 C64 1_555 1_555
C64 C65 1_555 1_555
C65 H53 1_555 1_555
C66 C65 1_555 1_555
C67 C66 1_555 1_555
C68 C67 1_555 1_555
H54 C68 1_555 1_555
C73 C66 1_555 1_555
C74 O16 1_555 1_555
H57 C74 1_555 1_555
H58 C74 1_555 1_555
C75 C74 1_555 1_555
H59 C75 1_555 1_555
H60 C75 1_555 1_555
H61 C75 1_555 1_555
H67 C87 1_555 1_555
C88 C87 1_555 1_555
H68 C88 1_555 1_555
H69 C88 1_555 1_555
H70 C88 1_555 1_555
Gd3 O14 1_555 1_555
O20 Gd3 1_555 1_555
N3 C89 1_555 1_555
C89 O20 1_555 1_555
H71 C89 1_555 1_555
C90 N3 1_555 1_555
H72 C90 1_555 1_555
H73 C90 1_555 1_555
C91 C90 1_555 1_555
H74 C91 1_555 1_555
H75 C91 1_555 1_555
H76 C91 1_555 1_555
C92 N3 1_555 1_555
H77 C92 1_555 1_555
H78 C92 1_555 1_555
C93 C92 1_555 1_555
H79 C93 1_555 1_555
H80 C93 1_555 1_555
H81 C93 1_555 1_555
N4 Gd3 1_555 1_555
C94 N4 1_555 1_555
H82 C94 1_555 1_555
C95 C94 1_555 1_555
H83 C95 1_555 1_555
C96 C95 1_555 1_555
H84 C96 1_555 1_555
C97 C96 1_555 1_555
H85 C97 1_555 1_555
C98 N4 1_555 1_555
H86 C98 1_555 1_555
Gd4 O5 1_555 1_555
O24 Gd3 1_555 1_555
O25 Gd3 1_555 1_555
O26 Gd3 1_555 1_555
C14 C15 1_555 1_555
C23 C28 1_555 1_555
C27 C28 1_555 1_555
C60 C61 1_555 1_555
O15 Gd3 1_555 1_555
C97 C98 1_555 1_555
H3 C3 1_555 1_555
C38 C37 1_555 1_555
C39 C38 1_555 1_555
H26 C39 1_555 1_555
C40 C39 1_555 1_555
H27 C40 1_555 1_555
Cl3 C38 1_555 1_555
C52 O11 1_555 1_555
C53 C52 1_555 1_555
H46 C53 1_555 1_555
H47 C53 1_555 1_555
H48 C53 1_555 1_555
C40 C41 1_555 1_555
C51 C50 1_555 1_555
C54 C51 1_555 1_555
H49 C54 1_555 1_555
C55 C54 1_555 1_555
C56 C55 1_555 1_555
C62 C55 1_555 1_555
O12 C62 1_555 1_555
O13 C62 1_555 1_555
Gd6 O12 1_555 1_555
Gd7 O13 1_555 1_555
H3_2 C3_2 1_555 1_555
C38_2 C37_2 1_555 1_555
C39_2 C38_2 1_555 1_555
H26_2 C39_2 1_555 1_555
C40_2 C39_2 1_555 1_555
H27_2 C40_2 1_555 1_555
Cl3_2 C38_2 1_555 1_555
C51_2 C50_2 1_555 1_555
O11_2 C51_2 1_555 1_555
C52_2 O11_2 1_555 1_555
H44_2 C52_2 1_555 1_555
H45_2 C52_2 1_555 1_555
C53_2 C52_2 1_555 1_555
H46_2 C53_2 1_555 1_555
H47_2 C53_2 1_555 1_555
H48_2 C53_2 1_555 1_555
C54_2 C51_2 1_555 1_555
H49_2 C54_2 1_555 1_555
C55_2 C54_2 1_555 1_555
C56_2 C55_2 1_555 1_555
C62_2 C55_2 1_555 1_555
O12_2 C62_2 1_555 1_555
O22 C62_2 1_555 1_555
Gd5 O12_2 1_555 1_555
C40_2 C41_2 1_555 1_555
Gd7 O1_2 1_555 1_555
O1_2 C16_2 1_555 1_555
O2_2 Gd7 1_555 1_555
O3_2 C7_2 1_555 1_555
O5_2 C29_2 1_555 1_555
O6_2 C20_2 1_555 1_555
O7_2 Gd7 1_555 1_555
O8_2 C42_2 1_555 1_555
O9_2 C33_2 1_555 1_555
O10_2 Gd7 1_555 1_555
N1_2 Gd7 1_555 1_555
C1_2 N1_2 1_555 1_555
H1_2 C1_2 1_555 1_555
C2_2 C1_2 1_555 1_555
H2_2 C2_2 1_555 1_555
C5_2 N1_2 1_555 1_555
H5_2 C5_2 1_555 1_555
N2_2 C45_2 1_555 1_555
C6_2 C7_2 1_555 1_555
C7_2 C8_2 1_555 1_555
C8_2 H6_2 1_555 1_555
C9_2 C8_2 1_555 1_555
C10_2 C9_2 1_555 1_555
C11_2 C10_2 1_555 1_555
H7_2 C11_2 1_555 1_555
C12_2 C11_2 1_555 1_555
C13_2 C12_2 1_555 1_555
H8_2 C13_2 1_555 1_555
C14_2 C13_2 1_555 1_555
H9_2 C14_2 1_555 1_555
C15_2 C6_2 1_555 1_555
C16_2 O2_2 1_555 1_555
C17_2 O3_2 1_555 1_555
H10_2 C17_2 1_555 1_555
H11_2 C17_2 1_555 1_555
C18_2 C17_2 1_555 1_555
H12_2 C18_2 1_555 1_555
H13_2 C18_2 1_555 1_555
H14_2 C18_2 1_555 1_555
C19_2 C6_2 1_555 1_555
C20_2 C19_2 1_555 1_555
C21_2 C20_2 1_555 1_555
C22_2 C21_2 1_555 1_555
C23_2 C22_2 1_555 1_555
C24_2 C23_2 1_555 1_555
H16_2 C24_2 1_555 1_555
C25_2 C24_2 1_555 1_555
C26_2 C25_2 1_555 1_555
H17_2 C26_2 1_555 1_555
C27_2 C26_2 1_555 1_555
H18_2 C27_2 1_555 1_555
C28_2 C19_2 1_555 1_555
C29_2 C22_2 1_555 1_555
C30_2 O6_2 1_555 1_555
H19_2 C30_2 1_555 1_555
C31_2 C30_2 1_555 1_555
H21_2 C31_2 1_555 1_555
H23_2 C31_2 1_555 1_555
C32_2 C33_2 1_555 1_555
C33_2 C34_2 1_555 1_555
C34_2 H24_2 1_555 1_555
C35_2 C34_2 1_555 1_555
C36_2 C35_2 1_555 1_555
C42_2 O7_2 1_555 1_555
C43_2 O9_2 1_555 1_555
H28_2 C43_2 1_555 1_555
H29_2 C43_2 1_555 1_555
C44_2 C43_2 1_555 1_555
H30_2 C44_2 1_555 1_555
H31_2 C44_2 1_555 1_555
H32_2 C44_2 1_555 1_555
C45_2 O10_2 1_555 1_555
H33_2 C45_2 1_555 1_555
C46_2 N2_2 1_555 1_555
H35_2 C46_2 1_555 1_555
C47_2 C46_2 1_555 1_555
H36_2 C47_2 1_555 1_555
H37_2 C47_2 1_555 1_555
H38_2 C47_2 1_555 1_555
C48_2 N2_2 1_555 1_555
H39_2 C48_2 1_555 1_555
C49_2 C48_2 1_555 1_555
H41_2 C49_2 1_555 1_555
H42_2 C49_2 1_555 1_555
H43_2 C49_2 1_555 1_555
Cl1_2 C12_2 1_555 1_555
Cl2_2 C25_2 1_555 1_555
C58_2 C57_2 1_555 1_555
C59_2 C58_2 1_555 1_555
H51_2 C59_2 1_555 1_555
C60_2 C59_2 1_555 1_555
H52_2 C60_2 1_555 1_555
Cl4_2 C58_2 1_555 1_555
O14_2 C73_2 1_555 1_555
O15_2 C73_2 1_555 1_555
O16_2 C64_2 1_555 1_555
O17_2 Gd7 1_555 1_555
O18_2 C86_2 1_555 1_555
O19_2 C77_2 1_555 1_555
C63_2 C64_2 1_555 1_555
C64_2 C65_2 1_555 1_555
C65_2 H53_2 1_555 1_555
C66_2 C65_2 1_555 1_555
C67_2 C66_2 1_555 1_555
C68_2 C67_2 1_555 1_555
H54_2 C68_2 1_555 1_555
C69_2 C68_2 1_555 1_555
C70_2 C69_2 1_555 1_555
H55_2 C70_2 1_555 1_555
C71_2 C70_2 1_555 1_555
H56_2 C71_2 1_555 1_555
C72_2 C63_2 1_555 1_555
C73_2 C66_2 1_555 1_555
C74_2 O16_2 1_555 1_555
H57_2 C74_2 1_555 1_555
H58_2 C74_2 1_555 1_555
C75_2 C74_2 1_555 1_555
H59_2 C75_2 1_555 1_555
H60_2 C75_2 1_555 1_555
H61_2 C75_2 1_555 1_555
C76_2 C63_2 1_555 1_555
C77_2 C76_2 1_555 1_555
C78_2 C77_2 1_555 1_555
H62_2 C78_2 1_555 1_555
C79_2 C78_2 1_555 1_555
C80_2 C79_2 1_555 1_555
C81_2 C80_2 1_555 1_555
H63_2 C81_2 1_555 1_555
C82_2 C81_2 1_555 1_555
C83_2 C82_2 1_555 1_555
H64_2 C83_2 1_555 1_555
C84_2 C83_2 1_555 1_555
H65_2 C84_2 1_555 1_555
C85_2 C76_2 1_555 1_555
C86_2 O17_2 1_555 1_555
C87_2 O19_2 1_555 1_555
H66_2 C87_2 1_555 1_555
H67_2 C87_2 1_555 1_555
C88_2 C87_2 1_555 1_555
H68_2 C88_2 1_555 1_555
H69_2 C88_2 1_555 1_555
H70_2 C88_2 1_555 1_555
Cl5_2 C69_2 1_555 1_555
Cl6_2 C82_2 1_555 1_555
Gd2 O14_2 1_555 1_555
O20_2 Gd2 1_555 1_555
N3_2 C89_2 1_555 1_555
C89_2 O20_2 1_555 1_555
H71_2 C89_2 1_555 1_555
C90_2 N3_2 1_555 1_555
H72_2 C90_2 1_555 1_555
H73_2 C90_2 1_555 1_555
C91_2 C90_2 1_555 1_555
H74_2 C91_2 1_555 1_555
H75_2 C91_2 1_555 1_555
H76_2 C91_2 1_555 1_555
C92_2 N3_2 1_555 1_555
H77_2 C92_2 1_555 1_555
H78_2 C92_2 1_555 1_555
C93_2 C92_2 1_555 1_555
H79_2 C93_2 1_555 1_555
H80_2 C93_2 1_555 1_555
H81_2 C93_2 1_555 1_555
N4_2 Gd2 1_555 1_555
C94_2 N4_2 1_555 1_555
H82_2 C94_2 1_555 1_555
C95_2 C94_2 1_555 1_555
H83_2 C95_2 1_555 1_555
C96_2 C95_2 1_555 1_555
H84_2 C96_2 1_555 1_555
C97_2 C96_2 1_555 1_555
H85_2 C97_2 1_555 1_555
C98_2 N4_2 1_555 1_555
H86_2 C98_2 1_555 1_555
O21_2 Gd7 1_555 1_555
Gd4_2 O5_2 1_555 1_555
Gd6 O8_2 1_555 1_555
O23 Gd2 1_555 1_555
O24_2 Gd2 1_555 1_555
O25_2 Gd2 1_555 1_555
O26_2 Gd2 1_555 1_555
C4_2 C5_2 1_555 1_555
C9_2 C16_2 1_555 1_555
C10_2 C15_2 1_555 1_555
C14_2 C15_2 1_555 1_555
C23_2 C28_2 1_555 1_555
C27_2 C28_2 1_555 1_555
C35_2 C42_2 1_555 1_555
C60_2 C61_2 1_555 1_555
O15_2 Gd2 1_555 1_555
O18_2 Gd6 1_555 1_555
C67_2 C72_2 1_555 1_555
C71_2 C72_2 1_555 1_555
C79_2 C86_2 1_555 1_555
C80_2 C85_2 1_555 1_555
C84_2 C85_2 1_555 1_555
C97_2 C98_2 1_555 1_555
Gd5 O1_3 1_555 1_555
O1_3 C16_3 1_555 1_555
O2_3 Gd5 1_555 1_555
O3_3 C7_3 1_555 1_555
O24 C29_3 1_555 1_555
O6_3 C20_3 1_555 1_555
O10_3 Gd5 1_555 1_555
N1_3 Gd5 1_555 1_555
C1_3 N1_3 1_555 1_555
H1_3 C1_3 1_555 1_555
C2_3 C1_3 1_555 1_555
H2_3 C2_3 1_555 1_555
C5_3 N1_3 1_555 1_555
H5_3 C5_3 1_555 1_555
N2_3 C45_3 1_555 1_555
C6_3 C7_3 1_555 1_555
C7_3 C8_3 1_555 1_555
C8_3 H6_3 1_555 1_555
C9_3 C8_3 1_555 1_555
C10_3 C9_3 1_555 1_555
C11_3 C10_3 1_555 1_555
H7_3 C11_3 1_555 1_555
C12_3 C11_3 1_555 1_555
C13_3 C12_3 1_555 1_555
H8_3 C13_3 1_555 1_555
C14_3 C13_3 1_555 1_555
H9_3 C14_3 1_555 1_555
C15_3 C6_3 1_555 1_555
C16_3 O2_3 1_555 1_555
C17_3 O3_3 1_555 1_555
H10_3 C17_3 1_555 1_555
H11_3 C17_3 1_555 1_555
C18_3 C17_3 1_555 1_555
H12_3 C18_3 1_555 1_555
H13_3 C18_3 1_555 1_555
H14_3 C18_3 1_555 1_555
C19_3 C6_3 1_555 1_555
C20_3 C19_3 1_555 1_555
C21_3 C20_3 1_555 1_555
C22_3 C21_3 1_555 1_555
C23_3 C22_3 1_555 1_555
C24_3 C23_3 1_555 1_555
H16_3 C24_3 1_555 1_555
C25_3 C24_3 1_555 1_555
C26_3 C25_3 1_555 1_555
H17_3 C26_3 1_555 1_555
C27_3 C26_3 1_555 1_555
H18_3 C27_3 1_555 1_555
C28_3 C19_3 1_555 1_555
C29_3 C22_3 1_555 1_555
C30_3 O6_3 1_555 1_555
H19_3 C30_3 1_555 1_555
C31_3 C30_3 1_555 1_555
H21_3 C31_3 1_555 1_555
H23_3 C31_3 1_555 1_555
C45_3 O10_3 1_555 1_555
H33_3 C45_3 1_555 1_555
C46_3 N2_3 1_555 1_555
H35_3 C46_3 1_555 1_555
C47_3 C46_3 1_555 1_555
H36_3 C47_3 1_555 1_555
H37_3 C47_3 1_555 1_555
H38_3 C47_3 1_555 1_555
C48_3 N2_3 1_555 1_555
H39_3 C48_3 1_555 1_555
C49_3 C48_3 1_555 1_555
H41_3 C49_3 1_555 1_555
H42_3 C49_3 1_555 1_555
H43_3 C49_3 1_555 1_555
Cl1_3 C12_3 1_555 1_555
Cl2_3 C25_3 1_555 1_555
O14_3 C73_3 1_555 1_555
O15_3 C73_3 1_555 1_555
O16_3 C64_3 1_555 1_555
O17_3 Gd5 1_555 1_555
O21 C86_3 1_555 1_555
O19_3 C77_3 1_555 1_555
C63_3 C64_3 1_555 1_555
C64_3 C65_3 1_555 1_555
C65_3 H53_3 1_555 1_555
C66_3 C65_3 1_555 1_555
C67_3 C66_3 1_555 1_555
C68_3 C67_3 1_555 1_555
H54_3 C68_3 1_555 1_555
C69_3 C68_3 1_555 1_555
C70_3 C69_3 1_555 1_555
H55_3 C70_3 1_555 1_555
C71_3 C70_3 1_555 1_555
H56_3 C71_3 1_555 1_555
C72_3 C63_3 1_555 1_555
C73_3 C66_3 1_555 1_555
C74_3 O16_3 1_555 1_555
H57_3 C74_3 1_555 1_555
H58_3 C74_3 1_555 1_555
C75_3 C74_3 1_555 1_555
H59_3 C75_3 1_555 1_555
H60_3 C75_3 1_555 1_555
H61_3 C75_3 1_555 1_555
C76_3 C63_3 1_555 1_555
C77_3 C76_3 1_555 1_555
C78_3 C77_3 1_555 1_555
H62_3 C78_3 1_555 1_555
C79_3 C78_3 1_555 1_555
C80_3 C79_3 1_555 1_555
C81_3 C80_3 1_555 1_555
H63_3 C81_3 1_555 1_555
C82_3 C81_3 1_555 1_555
C83_3 C82_3 1_555 1_555
H64_3 C83_3 1_555 1_555
C84_3 C83_3 1_555 1_555
H65_3 C84_3 1_555 1_555
C85_3 C76_3 1_555 1_555
C86_3 O17_3 1_555 1_555
C87_3 O19_3 1_555 1_555
H66_3 C87_3 1_555 1_555
H67_3 C87_3 1_555 1_555
C88_3 C87_3 1_555 1_555
H68_3 C88_3 1_555 1_555
H69_3 C88_3 1_555 1_555
H70_3 C88_3 1_555 1_555
Cl5_3 C69_3 1_555 1_555
Cl6_3 C82_3 1_555 1_555
Gd4 O14_3 1_555 1_555
O20_3 Gd4 1_555 1_555
N3_3 C89_3 1_555 1_555
C89_3 O20_3 1_555 1_555
H71_3 C89_3 1_555 1_555
C90_3 N3_3 1_555 1_555
H72_3 C90_3 1_555 1_555
H73_3 C90_3 1_555 1_555
C91_3 C90_3 1_555 1_555
H74_3 C91_3 1_555 1_555
H75_3 C91_3 1_555 1_555
H76_3 C91_3 1_555 1_555
C92_3 N3_3 1_555 1_555
H77_3 C92_3 1_555 1_555
H78_3 C92_3 1_555 1_555
C93_3 C92_3 1_555 1_555
H79_3 C93_3 1_555 1_555
H80_3 C93_3 1_555 1_555
H81_3 C93_3 1_555 1_555
N4_3 Gd4 1_555 1_555
C94_3 N4_3 1_555 1_555
H82_3 C94_3 1_555 1_555
C95_3 C94_3 1_555 1_555
H83_3 C95_3 1_555 1_555
C96_3 C95_3 1_555 1_555
H84_3 C96_3 1_555 1_555
C97_3 C96_3 1_555 1_555
H85_3 C97_3 1_555 1_555
C98_3 N4_3 1_555 1_555
H86_3 C98_3 1_555 1_555
O23_2 Gd4 1_555 1_555
O25_3 Gd4 1_555 1_555
O26_3 Gd4 1_555 1_555
C4_3 C5_3 1_555 1_555
C9_3 C16_3 1_555 1_555
C10_3 C15_3 1_555 1_555
C14_3 C15_3 1_555 1_555
C23_3 C28_3 1_555 1_555
C27_3 C28_3 1_555 1_555
O15_3 Gd4 1_555 1_555
C67_3 C72_3 1_555 1_555
C71_3 C72_3 1_555 1_555
C79_3 C86_3 1_555 1_555
C80_3 C85_3 1_555 1_555
C84_3 C85_3 1_555 1_555
C97_3 C98_3 1_555 1_555
H3_3 C3_3 1_555 1_555
Gd4_2 O4_2 1_555 1_555
H3_4 C3_4 1_555 1_555
O24_2 C29_4 1_555 1_555
O6_4 C20_4 1_555 1_555
C13_4 C12_4 1_555 1_555
H8_4 C13_4 1_555 1_555
C14_4 C13_4 1_555 1_555
H9_4 C14_4 1_555 1_555
C15_4 C6_4 1_555 1_555
C19_4 C6_4 1_555 1_555
C20_4 C19_4 1_555 1_555
C21_4 C20_4 1_555 1_555
C22_4 C21_4 1_555 1_555
C23_4 C22_4 1_555 1_555
C24_4 C23_4 1_555 1_555
H16_4 C24_4 1_555 1_555
C25_4 C24_4 1_555 1_555
C26_4 C25_4 1_555 1_555
H17_4 C26_4 1_555 1_555
C27_4 C26_4 1_555 1_555
H18_4 C27_4 1_555 1_555
C28_4 C19_4 1_555 1_555
C29_4 C22_4 1_555 1_555
Cl1_4 C12_4 1_555 1_555
Cl2_4 C25_4 1_555 1_555
O14_4 C73_4 1_555 1_555
O15_4 C73_4 1_555 1_555
O16_4 C64_4 1_555 1_555
C64_4 C65_4 1_555 1_555
C65_4 H53_4 1_555 1_555
C66_4 C65_4 1_555 1_555
C67_4 C66_4 1_555 1_555
C68_4 C67_4 1_555 1_555
H54_4 C68_4 1_555 1_555
C73_4 C66_4 1_555 1_555
C74_4 O16_4 1_555 1_555
H57_4 C74_4 1_555 1_555
H58_4 C74_4 1_555 1_555
C75_4 C74_4 1_555 1_555
H59_4 C75_4 1_555 1_555
H60_4 C75_4 1_555 1_555
H61_4 C75_4 1_555 1_555
H67_4 C87_4 1_555 1_555
C88_4 C87_4 1_555 1_555
H68_4 C88_4 1_555 1_555
H69_4 C88_4 1_555 1_555
H70_4 C88_4 1_555 1_555
Gd4_2 O14_4 1_555 1_555
O20_4 Gd4_2 1_555 1_555
N3_4 C89_4 1_555 1_555
C89_4 O20_4 1_555 1_555
H71_4 C89_4 1_555 1_555
C90_4 N3_4 1_555 1_555
H72_4 C90_4 1_555 1_555
H73_4 C90_4 1_555 1_555
C91_4 C90_4 1_555 1_555
H74_4 C91_4 1_555 1_555
H75_4 C91_4 1_555 1_555
H76_4 C91_4 1_555 1_555
C92_4 N3_4 1_555 1_555
H77_4 C92_4 1_555 1_555
H78_4 C92_4 1_555 1_555
C93_4 C92_4 1_555 1_555
H79_4 C93_4 1_555 1_555
H80_4 C93_4 1_555 1_555
H81_4 C93_4 1_555 1_555
N4_4 Gd4_2 1_555 1_555
C94_4 N4_4 1_555 1_555
H82_4 C94_4 1_555 1_555
C95_4 C94_4 1_555 1_555
H83_4 C95_4 1_555 1_555
C96_4 C95_4 1_555 1_555
H84_4 C96_4 1_555 1_555
C97_4 C96_4 1_555 1_555
H85_4 C97_4 1_555 1_555
C98_4 N4_4 1_555 1_555
H86_4 C98_4 1_555 1_555
O25_4 Gd4_2 1_555 1_555
O26_4 Gd4_2 1_555 1_555
C14_4 C15_4 1_555 1_555
C23_4 C28_4 1_555 1_555
C27_4 C28_4 1_555 1_555
O15_4 Gd4_2 1_555 1_555
C97_4 C98_4 1_555 1_555
Gd6 O1_4 1_555 1_555
O1_4 C16_4 1_555 1_555
O2_4 Gd6 1_555 1_555
O3_4 C7_4 1_555 1_555
O10_4 Gd6 1_555 1_555
N1_4 Gd6 1_555 1_555
C1_4 N1_4 1_555 1_555
H1_4 C1_4 1_555 1_555
C2_4 C1_4 1_555 1_555
H2_4 C2_4 1_555 1_555
C5_4 N1_4 1_555 1_555
H5_4 C5_4 1_555 1_555
N2_4 C45_4 1_555 1_555
C7_4 C8_4 1_555 1_555
C8_4 H6_4 1_555 1_555
C9_4 C8_4 1_555 1_555
C10_4 C9_4 1_555 1_555
C11_4 C10_4 1_555 1_555
H7_4 C11_4 1_555 1_555
C16_4 O2_4 1_555 1_555
C17_4 O3_4 1_555 1_555
H10_4 C17_4 1_555 1_555
H11_4 C17_4 1_555 1_555
C18_4 C17_4 1_555 1_555
H12_4 C18_4 1_555 1_555
H13_4 C18_4 1_555 1_555
H14_4 C18_4 1_555 1_555
C31_4 C30_4 1_555 1_555
H21_4 C31_4 1_555 1_555
H23_4 C31_4 1_555 1_555
C45_4 O10_4 1_555 1_555
H33_4 C45_4 1_555 1_555
C46_4 N2_4 1_555 1_555
H35_4 C46_4 1_555 1_555
C47_4 C46_4 1_555 1_555
H36_4 C47_4 1_555 1_555
H37_4 C47_4 1_555 1_555
H38_4 C47_4 1_555 1_555
C48_4 N2_4 1_555 1_555
H39_4 C48_4 1_555 1_555
C49_4 C48_4 1_555 1_555
H41_4 C49_4 1_555 1_555
H42_4 C49_4 1_555 1_555
H43_4 C49_4 1_555 1_555
O17_4 Gd6 1_555 1_555
O21_2 C86_4 1_555 1_555
O19_4 C77_4 1_555 1_555
C70_4 C69_4 1_555 1_555
H55_4 C70_4 1_555 1_555
C71_4 C70_4 1_555 1_555
H56_4 C71_4 1_555 1_555
C72_4 C63_4 1_555 1_555
C76_4 C63_4 1_555 1_555
C77_4 C76_4 1_555 1_555
C78_4 C77_4 1_555 1_555
H62_4 C78_4 1_555 1_555
C79_4 C78_4 1_555 1_555
C80_4 C79_4 1_555 1_555
C81_4 C80_4 1_555 1_555
H63_4 C81_4 1_555 1_555
C82_4 C81_4 1_555 1_555
C83_4 C82_4 1_555 1_555
H64_4 C83_4 1_555 1_555
C84_4 C83_4 1_555 1_555
H65_4 C84_4 1_555 1_555
C85_4 C76_4 1_555 1_555
C86_4 O17_4 1_555 1_555
Cl5_4 C69_4 1_555 1_555
Cl6_4 C82_4 1_555 1_555
C4_4 C5_4 1_555 1_555
C9_4 C16_4 1_555 1_555
C71_4 C72_4 1_555 1_555
C79_4 C86_4 1_555 1_555
C80_4 C85_4 1_555 1_555
C84_4 C85_4 1_555 1_555
C52_3 O11_3 1_555 1_555
C53_3 C52_3 1_555 1_555
H46_3 C53_3 1_555 1_555
H47_3 C53_3 1_555 1_555
H48_3 C53_3 1_555 1_555
C43_3 O9_3 1_555 1_555
C44_3 C43_3 1_555 1_555
H30_3 C44_3 1_555 1_555
H31_3 C44_3 1_555 1_555
H32_3 C44_3 1_555 1_555
O26_2 C42_3 1_555 1_555
C32_3 C33_3 1_555 1_555
C33_3 C34_3 1_555 1_555
C35_3 C34_3 1_555 1_555
C36_3 C35_3 1_555 1_555
C37_3 C36_3 1_555 1_555
H25_3 C37_3 1_555 1_555
C38_3 C37_3 1_555 1_555
C39_3 C38_3 1_555 1_555
H26_3 C39_3 1_555 1_555
C40_3 C39_3 1_555 1_555
H27_3 C40_3 1_555 1_555
C41_3 C32_3 1_555 1_555
Cl3_3 C38_3 1_555 1_555
C35_3 C42_3 1_555 1_555
C36_3 C41_3 1_555 1_555
C40_3 C41_3 1_555 1_555
C51_3 C50_3 1_555 1_555
C54_3 C51_3 1_555 1_555
C55_3 C54_3 1_555 1_555
C56_3 C55_3 1_555 1_555
C57_3 C56_3 1_555 1_555
H50_3 C57_3 1_555 1_555
C58_3 C57_3 1_555 1_555
C59_3 C58_3 1_555 1_555
H51_3 C59_3 1_555 1_555
C60_3 C59_3 1_555 1_555
H52_3 C60_3 1_555 1_555
C61_3 C50_3 1_555 1_555
Cl4_3 C58_3 1_555 1_555
C62_3 C55_3 1_555 1_555
O26_3 C62_3 1_555 1_555
C56_3 C61_3 1_555 1_555
C60_3 C61_3 1_555 1_555
O26 C42_4 1_555 1_555
C32_4 C33_4 1_555 1_555
C33_4 C34_4 1_555 1_555
C35_4 C34_4 1_555 1_555
C36_4 C35_4 1_555 1_555
C37_4 C36_4 1_555 1_555
H25_4 C37_4 1_555 1_555
C38_4 C37_4 1_555 1_555
C39_4 C38_4 1_555 1_555
H26_4 C39_4 1_555 1_555
C40_4 C39_4 1_555 1_555
H27_4 C40_4 1_555 1_555
C41_4 C32_4 1_555 1_555
Cl3_4 C38_4 1_555 1_555
C50_4 C32_4 1_555 1_555
C51_4 C50_4 1_555 1_555
C54_4 C51_4 1_555 1_555
C55_4 C54_4 1_555 1_555
C56_4 C55_4 1_555 1_555
C57_4 C56_4 1_555 1_555
H50_4 C57_4 1_555 1_555
C58_4 C57_4 1_555 1_555
C59_4 C58_4 1_555 1_555
H51_4 C59_4 1_555 1_555
C60_4 C59_4 1_555 1_555
H52_4 C60_4 1_555 1_555
C61_4 C50_4 1_555 1_555
Cl4_4 C58_4 1_555 1_555
C62_4 C55_4 1_555 1_555
O26_4 C62_4 1_555 1_555
C35_4 C42_4 1_555 1_555
C36_4 C41_4 1_555 1_555
C40_4 C41_4 1_555 1_555
C56_4 C61_4 1_555 1_555
C60_4 C61_4 1_555 1_555
C43_4 O9_4 1_555 1_555
H28_4 C43_4 1_555 1_555
H29_4 C43_4 1_555 1_555
C44_4 C43_4 1_555 1_555
H30_4 C44_4 1_555 1_555
H31_4 C44_4 1_555 1_555
H32_4 C44_4 1_555 1_555
C52_4 O11_4 1_555 1_555
H44_4 C52_4 1_555 1_555
H45_4 C52_4 1_555 1_555
C53_4 C52_4 1_555 1_555
H46_4 C53_4 1_555 1_555
H47_4 C53_4 1_555 1_555
H48_4 C53_4 1_555 1_555

#END
