
###############################################################################
#
# This file contains modified crystal structure data generated from the
# MOF subset of the Cambridge Structural Database (CSD) v543 
# hosted by the Cambridge Crystallographic Data Centre (CCDC).
#
# This work is licensed under the Creative Commons
# Attribution-NonCommercial-ShareAlike 4.0 International License.
# To view a copy of this license, visit
# http://creativecommons.org/licenses/by-nc-sa/4.0/
# or send a letter to
# Creative Commons, PO Box 1866, Mountain View, CA 94042, USA.
#
# CIF created using the CSD Python API on 29 September 2022
# The structure has been converted into the P1 space group
# The structure has a 3D framework
# The original CSD entry XOMJUE is in the orthorhombic crystal system
# The original CSD entry XOMJUE is in a Sohncke space group
# The framework has been calculated to contain at least 10.0% void space
# The void calculation uses a probe of radius 1.32A, grid spacing 0.4
#
###############################################################################

data_XOMJUE
_chemical_formula_moiety         '(C392 H344 Cl24 Er8 N16 O72)n'
_symmetry_cell_setting           triclinic
_symmetry_space_group_name_H-M   'P 1'
_symmetry_Int_Tables_number      1
_space_group_name_Hall           'P 1'
loop_
_symmetry_equiv_pos_site_id
_symmetry_equiv_pos_as_xyz
1 x,y,z
_cell_length_a                   12.776(3)
_cell_length_b                   34.298(7)
_cell_length_c                   24.724(5)
_cell_angle_alpha                90
_cell_angle_beta                 90
_cell_angle_gamma                90
_cell_volume                     10833.8
loop_
_atom_site_label
_atom_site_type_symbol
_atom_site_fract_x
_atom_site_fract_y
_atom_site_fract_z
H20 H 0.0671 0.3173 0.0050
H22 H 0.0286 0.2884 0.0894
H34 H 0.0186 0.1130 0.3608
H40 H 0.0502 0.1792 0.3382
O4 O 0.0278(4) 0.34035(18) 0.8127(2)
H15 H 0.0056 0.3167 0.9080
Er3 Er 0.15453(2) 0.384740(8) 0.785652(10)
Er1 Er 0.65453(2) 0.115260(8) 0.214348(10)
O1 O 0.6846(4) 0.12155(15) 0.11967(17)
O2 O 0.7465(4) 0.16859(14) 0.16938(18)
O3 O 0.7417(4) 0.27413(15) 0.0162(2)
O7 O 0.5195(5) 0.07800(18) 0.1900(2)
O8 O 0.3525(5) 0.07227(14) 0.2121(2)
O10 O 0.8247(4) 0.11863(17) 0.25357(18)
N1 N 0.7531(7) 0.05514(19) 0.1835(3)
C1 C 0.8464(8) 0.0431(3) 0.2071(4)
H1 H 0.8714 0.0557 0.2379
C2 C 0.9025(9) 0.0123(4) 0.1849(6)
H2 H 0.9649 0.0043 0.2007
C4 C 0.7719(13) 0.0055(3) 0.1153(5)
C5 C 0.7158(9) 0.0363(3) 0.1376(4)
H5 H 0.6534 0.0444 0.1217
N2 N 0.9261(5) 0.1473(2) 0.3165(3)
C7 C 0.7645(5) 0.2353(2) 0.0230(3)
C8 C 0.7376(6) 0.2145(2) 0.0692(3)
H6 H 0.7019 0.2269 0.0971
C9 C 0.7640(5) 0.1751(2) 0.0737(3)
C10 C 0.8512(6) 0.1165(2) 0.0350(3)
H7 H 0.8336 0.1017 0.0652
C15 C 0.8187(5) 0.1562(2) 0.0315(2)
C16 C 0.7296(6) 0.1535(2) 0.1238(2)
C17 C 0.6877(6) 0.2942(2) 0.0585(3)
H10 H 0.7222 0.2899 0.0930
H11 H 0.6160 0.2851 0.0612
C18 C 0.6903(8) 0.3373(3) 0.0437(4)
H12 H 0.6551 0.3521 0.0712
H13 H 0.6558 0.3411 0.0096
H14 H 0.7617 0.3458 0.0410
C30 C 0.9956(7) 0.3103(3) 0.0141(3)
C31 C 0.9823(8) 0.3079(3) 0.0751(3)
H21 H 0.9985 0.3327 0.0910
H23 H 0.9112 0.3011 0.0835
C32 C 0.3963(6) 0.0102(3) 0.0266(3)
C33 C 0.4625(6) 0.0409(3) 0.0350(3)
C34 C 0.4702(6) 0.0592(2) 0.0859(3)
H24 H 0.5161 0.0800 0.0907
C35 C 0.4094(6) 0.0462(2) 0.1287(3)
C36 C 0.2753(7) 0.0004(3) 0.1637(4)
H25 H 0.2794 0.0112 0.1982
C41 C 0.3365(6) 0.0157(2) 0.1214(3)
C42 C 0.4295(7) 0.0670(2) 0.1811(3)
H28 H 0.6491 0.0759 0.0195
H29 H 0.5589 0.1064 0.0102
C45 C 0.8651(7) 0.1471(3) 0.2731(3)
H33 H 0.8524 0.1709 0.2564
C46 C 0.9544(10) 0.1102(3) 0.3403(4)
H35 H 0.9665 0.0912 0.3119
C47 C 0.8669(14) 0.0960(4) 0.3773(6)
H36 H 0.8863 0.0714 0.3930
H37 H 0.8037 0.0930 0.3568
H38 H 0.8557 0.1147 0.4056
C48 C 0.9748(8) 0.1824(3) 0.3387(4)
H39 H 0.9578 0.2044 0.3157
C49 C 0.9416(10) 0.1915(4) 0.3948(5)
H41 H 0.9760 0.2148 0.4069
H42 H 0.9600 0.1702 0.4182
H43 H 0.8672 0.1953 0.3957
O17 O 0.5278(4) 0.15965(18) 0.1873(2)
O18 O 0.3623(4) 0.15725(14) 0.2158(2)
O19 O 0.4705(4) 0.22768(16) 0.0070(2)
C63 C 0.3190(5) 0.2822(2) 0.0193(3)
C68 C 0.4077(6) 0.3998(2) 0.0055(3)
C69 C 0.4349(6) 0.3790(2) 0.0520(3)
H55 H 0.4725 0.3911 0.0795
C70 C 0.4060(6) 0.3404(2) 0.0572(3)
H56 H 0.4246 0.3265 0.0881
C71 C 0.3475(6) 0.32176(19) 0.0152(2)
C76 C 0.3512(6) 0.25713(18) 0.0667(2)
C77 C 0.4270(5) 0.2288(2) 0.0574(3)
C78 C 0.4545(5) 0.2020(2) 0.0987(2)
H62 H 0.5056 0.1833 0.0920
C79 C 0.4074(5) 0.20319(19) 0.1477(3)
C80 C 0.2835(5) 0.2365(2) 0.2130(3)
H63 H 0.3019 0.2199 0.2412
C81 C 0.2109(6) 0.2653(2) 0.2210(3)
C82 C 0.1821(7) 0.2915(2) 0.1798(3)
H64 H 0.1301 0.3100 0.1858
C83 C 0.2307(6) 0.2896(2) 0.1311(3)
H65 H 0.2149 0.3083 0.1051
C84 C 0.3056(5) 0.2599(2) 0.1184(3)
C85 C 0.3313(5) 0.23216(19) 0.1602(2)
C86 C 0.4355(6) 0.1709(2) 0.1880(3)
H66 H 0.4490 0.1702 0.0009
Cl5 Cl 0.4508(2) 0.44818(6) 0.00027(11)
Cl6 Cl 0.15080(19) 0.26910(7) 0.28485(8)
O21 O 0.6377(4) 0.15725(14) 0.2842(2)
O22 O 0.6475(5) 0.07227(14) 0.2879(2)
Er5 Er 0.34547(2) 0.115260(8) 0.285652(10)
O5 O 0.8623(4) 0.34275(14) 0.7842(2)
O6 O 0.9705(4) 0.27232(16) 0.9930(2)
O9 O 0.5208(5) 0.0532(2) 0.9910(2)
C6 C 0.8190(5) 0.2178(2) 0.9807(3)
C11 C 0.9077(6) 0.1002(2) 0.9945(3)
C12 C 0.9349(6) 0.1210(2) 0.9480(3)
H8 H 0.9725 0.1089 0.9205
C13 C 0.9060(6) 0.1596(2) 0.9428(3)
H9 H 0.9246 0.1735 0.9119
C14 C 0.8475(6) 0.17824(19) 0.9848(2)
C19 C 0.8512(6) 0.24287(18) 0.9333(2)
C20 C 0.9270(5) 0.2712(2) 0.9426(3)
C21 C 0.9545(5) 0.2980(2) 0.9013(2)
C22 C 0.9074(5) 0.29681(19) 0.8523(3)
C23 C 0.7835(5) 0.2635(2) 0.7870(3)
H16 H 0.8019 0.2801 0.7588
C24 C 0.7109(6) 0.2347(2) 0.7790(3)
C25 C 0.6821(7) 0.2085(2) 0.8202(3)
H17 H 0.6301 0.1900 0.8142
C26 C 0.7307(6) 0.2104(2) 0.8689(3)
H18 H 0.7149 0.1917 0.8949
C27 C 0.8056(5) 0.2401(2) 0.8816(3)
C28 C 0.8313(5) 0.26784(19) 0.8398(2)
C29 C 0.9355(6) 0.3291(2) 0.8120(3)
H19 H 0.9490 0.3298 0.9991
C43 C 0.5926(10) 0.0834(4) 0.9954(4)
C44 C 0.6342(11) 0.0920(4) 0.9417(4)
H30 H 0.6831 0.1132 0.9441
H31 H 0.5778 0.0992 0.9180
H32 H 0.6689 0.0694 0.9277
Cl1 Cl 0.9508(2) 0.05182(6) 0.99973(11)
Cl2 Cl 0.65080(19) 0.23090(7) 0.71515(8)
C58 C 0.2102(10) 0.0300(4) 0.8461(5)
C59 C 0.2034(10) 0.0482(4) 0.8956(6)
H51 H 0.1590 0.0694 0.9004
C60 C 0.2632(9) 0.0346(3) 0.9379(5)
H52 H 0.2573 0.0463 0.9717
C61 C 0.3343(7) 0.0027(2) 0.9309(3)
Cl4 Cl 0.1328(3) 0.04914(14) 0.79327(19)
O14 O 0.1846(4) 0.37845(15) 0.88033(17)
O15 O 0.2465(4) 0.33141(14) 0.83062(18)
O16 O 0.2417(4) 0.22587(15) 0.9838(2)
C64 C 0.2645(5) 0.2647(2) 0.9770(3)
C65 C 0.2376(6) 0.2855(2) 0.9308(3)
H53 H 0.2019 0.2731 0.9029
C66 C 0.2640(5) 0.3249(2) 0.9263(3)
C67 C 0.3512(6) 0.3835(2) 0.9650(3)
H54 H 0.3336 0.3983 0.9348
C72 C 0.3187(5) 0.3438(2) 0.9685(2)
C73 C 0.2296(6) 0.3465(2) 0.8762(2)
C74 C 0.1877(6) 0.2058(2) 0.9415(3)
H57 H 0.2222 0.2101 0.9070
H58 H 0.1160 0.2149 0.9388
C75 C 0.1903(8) 0.1627(3) 0.9563(4)
H59 H 0.1551 0.1479 0.9288
H60 H 0.1558 0.1589 0.9904
H61 H 0.2617 0.1542 0.9590
C87 C 0.4956(7) 0.1897(3) 0.9859(3)
H67 H 0.5671 0.1827 0.9950
C88 C 0.4823(8) 0.1921(3) 0.9249(3)
H68 H 0.4985 0.1673 0.9090
H69 H 0.5286 0.2116 0.9106
H70 H 0.4112 0.1989 0.9165
O20 O 0.3247(4) 0.38137(17) 0.74643(18)
N3 N 0.4261(5) 0.3527(2) 0.6835(3)
C89 C 0.3651(7) 0.3529(3) 0.7269(3)
H71 H 0.3524 0.3291 0.7436
C90 C 0.4544(10) 0.3898(3) 0.6597(4)
H72 H 0.5186 0.3870 0.6392
H73 H 0.4665 0.4088 0.6881
C91 C 0.3669(14) 0.4040(4) 0.6227(6)
H74 H 0.3863 0.4286 0.6070
H75 H 0.3037 0.4070 0.6432
H76 H 0.3557 0.3853 0.5944
C92 C 0.4748(8) 0.3176(3) 0.6613(4)
H77 H 0.4578 0.2956 0.6843
H78 H 0.5502 0.3208 0.6618
C93 C 0.4416(10) 0.3085(4) 0.6052(5)
H79 H 0.4760 0.2852 0.5931
H80 H 0.4600 0.3298 0.5818
H81 H 0.3672 0.3047 0.6043
N4 N 0.2531(7) 0.44486(19) 0.8165(3)
C94 C 0.3464(8) 0.4569(3) 0.7929(4)
H82 H 0.3714 0.4443 0.7621
C95 C 0.4025(9) 0.4877(4) 0.8151(6)
H83 H 0.4649 0.4957 0.7993
C96 C 0.3652(12) 0.5065(3) 0.8611(6)
H84 H 0.4027 0.5271 0.8760
C97 C 0.2719(13) 0.4945(3) 0.8847(5)
H85 H 0.2469 0.5071 0.9154
C98 C 0.2158(9) 0.4637(3) 0.8624(4)
H86 H 0.1534 0.4556 0.8783
Er4 Er 0.84547(2) 0.384740(8) 0.714348(10)
O24 O 0.1377(4) 0.34275(14) 0.7158(2)
O25 O 0.0195(5) 0.42200(18) 0.8100(2)
O26 O 0.1475(5) 0.42773(14) 0.7121(2)
C3 C 0.8652(12) 0.9935(3) 0.1389(6)
H3 H 0.9027 0.9729 0.1240
H4 H 0.7469 0.9929 0.0846
C37 C 0.2102(10) 0.9700(4) 0.1539(5)
C38 C 0.2034(10) 0.9518(4) 0.1044(6)
H26 H 0.1590 0.9306 0.0996
C39 C 0.2632(9) 0.9654(3) 0.0621(5)
H27 H 0.2573 0.9537 0.0283
C40 C 0.3343(7) 0.9973(2) 0.0691(3)
Cl3 Cl 0.1328(3) 0.95086(14) 0.20673(19)
O11 O 0.5208(5) 0.9468(2) 0.0090(2)
C52 C 0.5926(10) 0.9166(4) 0.0046(4)
C53 C 0.6342(11) 0.9080(4) 0.0583(4)
H46 H 0.6831 0.8868 0.0559
H47 H 0.5778 0.9008 0.0820
H48 H 0.6689 0.9306 0.0723
C50 C 0.3963(6) 0.9898(3) 0.9734(3)
C51 C 0.4625(6) 0.9591(3) 0.9650(3)
H44 H 0.6491 0.9241 0.9805
H45 H 0.5589 0.8936 0.9898
C54 C 0.4702(6) 0.9408(2) 0.9141(3)
H49 H 0.5161 0.9200 0.9093
C55 C 0.4094(6) 0.9538(2) 0.8713(3)
C56 C 0.3365(6) 0.9843(2) 0.8786(3)
C57 C 0.2753(7) 0.9996(3) 0.8363(4)
H50 H 0.2794 0.9888 0.8018
C62 C 0.4295(7) 0.9330(2) 0.8189(3)
O12 O 0.5195(5) 0.92200(18) 0.8100(2)
O13 O 0.3525(5) 0.92773(14) 0.7879(2)
Er6 Er 0.65453(2) 0.884740(8) 0.785652(10)
Er7 Er 0.34547(2) 0.884740(8) 0.714348(10)
C3_2 C 0.1348(12) 0.0065(3) 0.6389(6)
H3_2 H 0.0973 0.0271 0.6240
H4_2 H 0.2531 0.0071 0.5846
C37_2 C 0.7898(10) 0.0300(4) 0.6539(5)
C38_2 C 0.7966(10) 0.0482(4) 0.6044(6)
H26_2 H 0.8410 0.0694 0.5996
C39_2 C 0.7368(9) 0.0346(3) 0.5621(5)
H27_2 H 0.7427 0.0463 0.5283
C40_2 C 0.6657(7) 0.0027(2) 0.5691(3)
Cl3_2 Cl 0.8672(3) 0.04914(14) 0.70673(19)
C50_2 C 0.6037(6) 0.0102(3) 0.4734(3)
C51_2 C 0.5375(6) 0.0409(3) 0.4650(3)
O11_2 O 0.4792(5) 0.0532(2) 0.5090(2)
C52_2 C 0.4074(10) 0.0834(4) 0.5046(4)
H44_2 H 0.3509 0.0759 0.4805
H45_2 H 0.4411 0.1064 0.4898
C53_2 C 0.3658(11) 0.0920(4) 0.5583(4)
H46_2 H 0.3169 0.1132 0.5559
H47_2 H 0.4222 0.0992 0.5820
H48_2 H 0.3311 0.0694 0.5723
C54_2 C 0.5298(6) 0.0592(2) 0.4141(3)
H49_2 H 0.4839 0.0800 0.4093
C55_2 C 0.5906(6) 0.0462(2) 0.3713(3)
C56_2 C 0.6635(6) 0.0157(2) 0.3786(3)
C57_2 C 0.7247(7) 0.0004(3) 0.3363(4)
H50_2 H 0.7206 0.0112 0.3018
C62_2 C 0.5705(7) 0.0670(2) 0.3189(3)
O12_2 O 0.4805(5) 0.07800(18) 0.3100(2)
O1_2 O 0.3154(4) 0.87845(15) 0.61967(17)
O2_2 O 0.2535(4) 0.83141(14) 0.66938(18)
O3_2 O 0.2583(4) 0.72587(15) 0.5162(2)
O5_2 O 0.1377(4) 0.65725(14) 0.2842(2)
O6_2 O 0.0295(4) 0.72768(16) 0.4930(2)
O7_2 O 0.4805(5) 0.92200(18) 0.6900(2)
O8_2 O 0.6475(5) 0.92773(14) 0.7121(2)
O9_2 O 0.4792(5) 0.9468(2) 0.4910(2)
O10_2 O 0.1753(4) 0.88137(17) 0.75357(18)
N1_2 N 0.2469(7) 0.94486(19) 0.6835(3)
C1_2 C 0.1536(8) 0.9569(3) 0.7071(4)
H1_2 H 0.1286 0.9443 0.7379
C2_2 C 0.0975(9) 0.9877(4) 0.6849(6)
H2_2 H 0.0351 0.9957 0.7007
C4_2 C 0.2281(13) 0.9945(3) 0.6153(5)
C5_2 C 0.2842(9) 0.9637(3) 0.6376(4)
H5_2 H 0.3466 0.9556 0.6217
N2_2 N 0.0739(5) 0.8527(2) 0.8165(3)
C6_2 C 0.1810(5) 0.7822(2) 0.4807(3)
C7_2 C 0.2355(5) 0.7647(2) 0.5230(3)
C8_2 C 0.2624(6) 0.7855(2) 0.5692(3)
H6_2 H 0.2981 0.7731 0.5971
C9_2 C 0.2360(5) 0.8249(2) 0.5737(3)
C10_2 C 0.1488(6) 0.8835(2) 0.5350(3)
H7_2 H 0.1664 0.8983 0.5652
C11_2 C 0.0923(6) 0.8998(2) 0.4945(3)
C12_2 C 0.0651(6) 0.8790(2) 0.4480(3)
H8_2 H 0.0275 0.8911 0.4205
C13_2 C 0.0940(6) 0.8404(2) 0.4428(3)
H9_2 H 0.0754 0.8265 0.4119
C14_2 C 0.1525(6) 0.82176(19) 0.4848(2)
C15_2 C 0.1813(5) 0.8438(2) 0.5315(2)
C16_2 C 0.2704(6) 0.8465(2) 0.6238(2)
C17_2 C 0.3123(6) 0.7058(2) 0.5585(3)
H10_2 H 0.2778 0.7101 0.5930
H11_2 H 0.3840 0.7149 0.5612
C18_2 C 0.3097(8) 0.6627(3) 0.5437(4)
H12_2 H 0.3449 0.6479 0.5712
H13_2 H 0.3442 0.6589 0.5096
H14_2 H 0.2383 0.6542 0.5410
C19_2 C 0.1488(6) 0.75713(18) 0.4333(2)
C20_2 C 0.0730(5) 0.7288(2) 0.4426(3)
C21_2 C 0.0455(5) 0.7020(2) 0.4013(2)
C22_2 C 0.0926(5) 0.70319(19) 0.3523(3)
C23_2 C 0.2165(5) 0.7365(2) 0.2870(3)
H16_2 H 0.1981 0.7199 0.2588
C24_2 C 0.2891(6) 0.7653(2) 0.2790(3)
C25_2 C 0.3179(7) 0.7915(2) 0.3202(3)
H17_2 H 0.3699 0.8100 0.3142
C26_2 C 0.2693(6) 0.7896(2) 0.3689(3)
H18_2 H 0.2851 0.8083 0.3949
C27_2 C 0.1944(5) 0.7599(2) 0.3816(3)
C28_2 C 0.1687(5) 0.73216(19) 0.3398(2)
C29_2 C 0.0645(6) 0.6709(2) 0.3120(3)
C30_2 C 0.0044(7) 0.6897(3) 0.5141(3)
H19_2 H 0.0510 0.6702 0.4991
C31_2 C 0.0177(8) 0.6921(3) 0.5751(3)
H21_2 H 0.0015 0.6673 0.5910
H23_2 H 0.0888 0.6989 0.5835
C32_2 C 0.6037(6) 0.9898(3) 0.5266(3)
C33_2 C 0.5375(6) 0.9591(3) 0.5350(3)
C34_2 C 0.5298(6) 0.9408(2) 0.5859(3)
H24_2 H 0.4839 0.9200 0.5907
C35_2 C 0.5906(6) 0.9538(2) 0.6287(3)
C36_2 C 0.7247(7) 0.9996(3) 0.6637(4)
H25_2 H 0.7206 0.9888 0.6982
C41_2 C 0.6635(6) 0.9843(2) 0.6214(3)
C42_2 C 0.5705(7) 0.9330(2) 0.6811(3)
C43_2 C 0.4074(10) 0.9166(4) 0.4954(4)
H28_2 H 0.3509 0.9241 0.5195
H29_2 H 0.4411 0.8936 0.5102
C44_2 C 0.3658(11) 0.9080(4) 0.4417(4)
H30_2 H 0.3169 0.8868 0.4441
H31_2 H 0.4222 0.9008 0.4180
H32_2 H 0.3311 0.9306 0.4277
C45_2 C 0.1349(7) 0.8529(3) 0.7731(3)
H33_2 H 0.1476 0.8291 0.7564
C46_2 C 0.0456(10) 0.8898(3) 0.8403(4)
H35_2 H 0.0335 0.9088 0.8119
C47_2 C 0.1331(14) 0.9040(4) 0.8773(6)
H36_2 H 0.1137 0.9286 0.8930
H37_2 H 0.1963 0.9070 0.8568
H38_2 H 0.1443 0.8853 0.9056
C48_2 C 0.0252(8) 0.8176(3) 0.8387(4)
H39_2 H 0.0422 0.7956 0.8157
C49_2 C 0.0584(10) 0.8085(4) 0.8948(5)
H41_2 H 0.0240 0.7852 0.9069
H42_2 H 0.0400 0.8298 0.9182
H43_2 H 0.1328 0.8047 0.8957
Cl1_2 Cl 0.0492(2) 0.94818(6) 0.49973(11)
Cl2_2 Cl 0.34920(19) 0.76910(7) 0.21515(8)
C58_2 C 0.7898(10) 0.9700(4) 0.3461(5)
C59_2 C 0.7966(10) 0.9518(4) 0.3956(6)
H51_2 H 0.8410 0.9306 0.4004
C60_2 C 0.7368(9) 0.9654(3) 0.4379(5)
H52_2 H 0.7427 0.9537 0.4717
C61_2 C 0.6657(7) 0.9973(2) 0.4309(3)
Cl4_2 Cl 0.8672(3) 0.95086(14) 0.29327(19)
O14_2 O 0.8154(4) 0.62155(15) 0.38033(17)
O15_2 O 0.7535(4) 0.66859(14) 0.33062(18)
O16_2 O 0.7583(4) 0.77413(15) 0.4838(2)
O17_2 O 0.4722(4) 0.84035(18) 0.6873(2)
O18_2 O 0.6377(4) 0.84275(14) 0.7158(2)
O19_2 O 0.5295(4) 0.77232(16) 0.5070(2)
C63_2 C 0.6810(5) 0.7178(2) 0.5193(3)
C64_2 C 0.7355(5) 0.7353(2) 0.4770(3)
C65_2 C 0.7624(6) 0.7145(2) 0.4308(3)
H53_2 H 0.7981 0.7269 0.4029
C66_2 C 0.7360(5) 0.6751(2) 0.4263(3)
C67_2 C 0.6488(6) 0.6165(2) 0.4650(3)
H54_2 H 0.6664 0.6017 0.4348
C68_2 C 0.5923(6) 0.6002(2) 0.5055(3)
C69_2 C 0.5651(6) 0.6210(2) 0.5520(3)
H55_2 H 0.5275 0.6089 0.5795
C70_2 C 0.5940(6) 0.6596(2) 0.5572(3)
H56_2 H 0.5754 0.6735 0.5881
C71_2 C 0.6525(6) 0.67824(19) 0.5152(2)
C72_2 C 0.6813(5) 0.6562(2) 0.4685(2)
C73_2 C 0.7704(6) 0.6535(2) 0.3762(2)
C74_2 C 0.8123(6) 0.7942(2) 0.4415(3)
H57_2 H 0.7778 0.7899 0.4070
H58_2 H 0.8840 0.7851 0.4388
C75_2 C 0.8097(8) 0.8373(3) 0.4563(4)
H59_2 H 0.8449 0.8521 0.4288
H60_2 H 0.8442 0.8411 0.4904
H61_2 H 0.7383 0.8458 0.4590
C76_2 C 0.6488(6) 0.74287(18) 0.5667(2)
C77_2 C 0.5730(5) 0.7712(2) 0.5574(3)
C78_2 C 0.5455(5) 0.7980(2) 0.5987(2)
H62_2 H 0.4944 0.8167 0.5920
C79_2 C 0.5926(5) 0.79681(19) 0.6477(3)
C80_2 C 0.7165(5) 0.7635(2) 0.7130(3)
H63_2 H 0.6981 0.7801 0.7412
C81_2 C 0.7891(6) 0.7347(2) 0.7210(3)
C82_2 C 0.8179(7) 0.7085(2) 0.6798(3)
H64_2 H 0.8699 0.6900 0.6858
C83_2 C 0.7693(6) 0.7104(2) 0.6311(3)
H65_2 H 0.7851 0.6917 0.6051
C84_2 C 0.6944(5) 0.7401(2) 0.6184(3)
C85_2 C 0.6687(5) 0.76784(19) 0.6602(2)
C86_2 C 0.5645(6) 0.8291(2) 0.6880(3)
C87_2 C 0.5044(7) 0.8103(3) 0.4859(3)
H66_2 H 0.5510 0.8298 0.5009
H67_2 H 0.4329 0.8173 0.4950
C88_2 C 0.5177(8) 0.8079(3) 0.4249(3)
H68_2 H 0.5015 0.8327 0.4090
H69_2 H 0.4714 0.7884 0.4106
H70_2 H 0.5888 0.8011 0.4165
Cl5_2 Cl 0.5492(2) 0.55182(6) 0.50027(11)
Cl6_2 Cl 0.84920(19) 0.73090(7) 0.78485(8)
Er2 Er 0.84547(2) 0.615260(8) 0.285652(10)
O20_2 O 0.6753(4) 0.61863(17) 0.24643(18)
N3_2 N 0.5739(5) 0.6473(2) 0.1835(3)
C89_2 C 0.6349(7) 0.6471(3) 0.2269(3)
H71_2 H 0.6476 0.6709 0.2436
C90_2 C 0.5456(10) 0.6102(3) 0.1597(4)
H72_2 H 0.4814 0.6130 0.1392
H73_2 H 0.5335 0.5912 0.1881
C91_2 C 0.6331(14) 0.5960(4) 0.1227(6)
H74_2 H 0.6137 0.5714 0.1070
H75_2 H 0.6963 0.5930 0.1432
H76_2 H 0.6443 0.6147 0.0944
C92_2 C 0.5252(8) 0.6824(3) 0.1613(4)
H77_2 H 0.5422 0.7044 0.1843
H78_2 H 0.4498 0.6792 0.1618
C93_2 C 0.5584(10) 0.6915(4) 0.1052(5)
H79_2 H 0.5240 0.7148 0.0931
H80_2 H 0.5400 0.6702 0.0818
H81_2 H 0.6328 0.6953 0.1043
N4_2 N 0.7469(7) 0.55514(19) 0.3165(3)
C94_2 C 0.6536(8) 0.5431(3) 0.2929(4)
H82_2 H 0.6286 0.5557 0.2621
C95_2 C 0.5975(9) 0.5123(4) 0.3151(6)
H83_2 H 0.5351 0.5043 0.2993
C96_2 C 0.6348(12) 0.4935(3) 0.3611(6)
H84_2 H 0.5973 0.4729 0.3760
C97_2 C 0.7281(13) 0.5055(3) 0.3847(5)
H85_2 H 0.7531 0.4929 0.4154
C98_2 C 0.7842(9) 0.5363(3) 0.3624(4)
H86_2 H 0.8466 0.5444 0.3783
O21_2 O 0.3623(4) 0.84275(14) 0.7842(2)
Er4_2 Er 0.15453(2) 0.615260(8) 0.214348(10)
O23 O 0.9722(4) 0.65965(18) 0.3127(2)
O24_2 O 0.8623(4) 0.65725(14) 0.2158(2)
O25_2 O 0.9805(5) 0.57800(18) 0.3100(2)
O26_2 O 0.8525(5) 0.57227(14) 0.2121(2)
H15_2 H 0.9944 0.6833 0.4080
H20_2 H 0.9329 0.6827 0.5050
H22_2 H 0.9714 0.7116 0.5894
H34_2 H 0.9814 0.8870 0.8608
H40_2 H 0.9498 0.8208 0.8382
O1_3 O 0.3154(4) 0.12155(15) 0.38033(17)
O2_3 O 0.2535(4) 0.16859(14) 0.33062(18)
O3_3 O 0.2583(4) 0.27413(15) 0.4838(2)
O6_3 O 0.0295(4) 0.27232(16) 0.5070(2)
O10_3 O 0.1753(4) 0.11863(17) 0.24643(18)
N1_3 N 0.2469(7) 0.05514(19) 0.3165(3)
C1_3 C 0.1536(8) 0.0431(3) 0.2929(4)
H1_3 H 0.1286 0.0557 0.2621
C2_3 C 0.0975(9) 0.0123(4) 0.3151(6)
H2_3 H 0.0351 0.0043 0.2993
C4_3 C 0.2281(13) 0.0055(3) 0.3847(5)
C5_3 C 0.2842(9) 0.0363(3) 0.3624(4)
H5_3 H 0.3466 0.0444 0.3783
N2_3 N 0.0739(5) 0.1473(2) 0.1835(3)
C6_3 C 0.1810(5) 0.2178(2) 0.5193(3)
C7_3 C 0.2355(5) 0.2353(2) 0.4770(3)
C8_3 C 0.2624(6) 0.2145(2) 0.4308(3)
H6_3 H 0.2981 0.2269 0.4029
C9_3 C 0.2360(5) 0.1751(2) 0.4263(3)
C10_3 C 0.1488(6) 0.1165(2) 0.4650(3)
H7_3 H 0.1664 0.1017 0.4348
C11_3 C 0.0923(6) 0.1002(2) 0.5055(3)
C12_3 C 0.0651(6) 0.1210(2) 0.5520(3)
H8_3 H 0.0275 0.1089 0.5795
C13_3 C 0.0940(6) 0.1596(2) 0.5572(3)
H9_3 H 0.0754 0.1735 0.5881
C14_3 C 0.1525(6) 0.17824(19) 0.5152(2)
C15_3 C 0.1813(5) 0.1562(2) 0.4685(2)
C16_3 C 0.2704(6) 0.1535(2) 0.3762(2)
C17_3 C 0.3123(6) 0.2942(2) 0.4415(3)
H10_3 H 0.2778 0.2899 0.4070
H11_3 H 0.3840 0.2851 0.4388
C18_3 C 0.3097(8) 0.3373(3) 0.4563(4)
H12_3 H 0.3449 0.3521 0.4288
H13_3 H 0.3442 0.3411 0.4904
H14_3 H 0.2383 0.3458 0.4590
C19_3 C 0.1488(6) 0.24287(18) 0.5667(2)
C20_3 C 0.0730(5) 0.2712(2) 0.5574(3)
C21_3 C 0.0455(5) 0.2980(2) 0.5987(2)
C22_3 C 0.0926(5) 0.29681(19) 0.6477(3)
C23_3 C 0.2165(5) 0.2635(2) 0.7130(3)
H16_3 H 0.1981 0.2801 0.7412
C24_3 C 0.2891(6) 0.2347(2) 0.7210(3)
C25_3 C 0.3179(7) 0.2085(2) 0.6798(3)
H17_3 H 0.3699 0.1900 0.6858
C26_3 C 0.2693(6) 0.2104(2) 0.6311(3)
H18_3 H 0.2851 0.1917 0.6051
C27_3 C 0.1944(5) 0.2401(2) 0.6184(3)
C28_3 C 0.1687(5) 0.26784(19) 0.6602(2)
C29_3 C 0.0645(6) 0.3291(2) 0.6880(3)
C30_3 C 0.0044(7) 0.3103(3) 0.4859(3)
H19_3 H 0.0510 0.3298 0.5009
C31_3 C 0.0177(8) 0.3079(3) 0.4249(3)
H21_3 H 0.0015 0.3327 0.4090
H23_3 H 0.0888 0.3011 0.4165
C45_3 C 0.1349(7) 0.1471(3) 0.2269(3)
H33_3 H 0.1476 0.1709 0.2436
C46_3 C 0.0456(10) 0.1102(3) 0.1597(4)
H35_3 H 0.0335 0.0912 0.1881
C47_3 C 0.1331(14) 0.0960(4) 0.1227(6)
H36_3 H 0.1137 0.0714 0.1070
H37_3 H 0.1963 0.0930 0.1432
H38_3 H 0.1443 0.1147 0.0944
C48_3 C 0.0252(8) 0.1824(3) 0.1613(4)
H39_3 H 0.0422 0.2044 0.1843
C49_3 C 0.0584(10) 0.1915(4) 0.1052(5)
H41_3 H 0.0240 0.2148 0.0931
H42_3 H 0.0400 0.1702 0.0818
H43_3 H 0.1328 0.1953 0.1043
Cl1_3 Cl 0.0492(2) 0.05182(6) 0.50027(11)
Cl2_3 Cl 0.34920(19) 0.23090(7) 0.78485(8)
O14_3 O 0.8154(4) 0.37845(15) 0.61967(17)
O15_3 O 0.7535(4) 0.33141(14) 0.66938(18)
O16_3 O 0.7583(4) 0.22587(15) 0.5162(2)
O17_3 O 0.4722(4) 0.15965(18) 0.3127(2)
O19_3 O 0.5295(4) 0.22768(16) 0.4930(2)
C63_3 C 0.6810(5) 0.2822(2) 0.4807(3)
C64_3 C 0.7355(5) 0.2647(2) 0.5230(3)
C65_3 C 0.7624(6) 0.2855(2) 0.5692(3)
H53_3 H 0.7981 0.2731 0.5971
C66_3 C 0.7360(5) 0.3249(2) 0.5737(3)
C67_3 C 0.6488(6) 0.3835(2) 0.5350(3)
H54_3 H 0.6664 0.3983 0.5652
C68_3 C 0.5923(6) 0.3998(2) 0.4945(3)
C69_3 C 0.5651(6) 0.3790(2) 0.4480(3)
H55_3 H 0.5275 0.3911 0.4205
C70_3 C 0.5940(6) 0.3404(2) 0.4428(3)
H56_3 H 0.5754 0.3265 0.4119
C71_3 C 0.6525(6) 0.32176(19) 0.4848(2)
C72_3 C 0.6813(5) 0.3438(2) 0.5315(2)
C73_3 C 0.7704(6) 0.3465(2) 0.6238(2)
C74_3 C 0.8123(6) 0.2058(2) 0.5585(3)
H57_3 H 0.7778 0.2101 0.5930
H58_3 H 0.8840 0.2149 0.5612
C75_3 C 0.8097(8) 0.1627(3) 0.5437(4)
H59_3 H 0.8449 0.1479 0.5712
H60_3 H 0.8442 0.1589 0.5096
H61_3 H 0.7383 0.1542 0.5410
C76_3 C 0.6488(6) 0.25713(18) 0.4333(2)
C77_3 C 0.5730(5) 0.2288(2) 0.4426(3)
C78_3 C 0.5455(5) 0.2020(2) 0.4013(2)
H62_3 H 0.4944 0.1833 0.4080
C79_3 C 0.5926(5) 0.20319(19) 0.3523(3)
C80_3 C 0.7165(5) 0.2365(2) 0.2870(3)
H63_3 H 0.6981 0.2199 0.2588
C81_3 C 0.7891(6) 0.2653(2) 0.2790(3)
C82_3 C 0.8179(7) 0.2915(2) 0.3202(3)
H64_3 H 0.8699 0.3100 0.3142
C83_3 C 0.7693(6) 0.2896(2) 0.3689(3)
H65_3 H 0.7851 0.3083 0.3949
C84_3 C 0.6944(5) 0.2599(2) 0.3816(3)
C85_3 C 0.6687(5) 0.23216(19) 0.3398(2)
C86_3 C 0.5645(6) 0.1709(2) 0.3120(3)
C87_3 C 0.5044(7) 0.1897(3) 0.5141(3)
H66_3 H 0.5510 0.1702 0.4991
H67_3 H 0.4329 0.1827 0.5050
C88_3 C 0.5177(8) 0.1921(3) 0.5751(3)
H68_3 H 0.5015 0.1673 0.5910
H69_3 H 0.4714 0.2116 0.5894
H70_3 H 0.5888 0.1989 0.5835
Cl5_3 Cl 0.5492(2) 0.44818(6) 0.49973(11)
Cl6_3 Cl 0.84920(19) 0.26910(7) 0.21515(8)
O20_3 O 0.6753(4) 0.38137(17) 0.75357(18)
N3_3 N 0.5739(5) 0.3527(2) 0.8165(3)
C89_3 C 0.6349(7) 0.3529(3) 0.7731(3)
H71_3 H 0.6476 0.3291 0.7564
C90_3 C 0.5456(10) 0.3898(3) 0.8403(4)
H72_3 H 0.4814 0.3870 0.8608
H73_3 H 0.5335 0.4088 0.8119
C91_3 C 0.6331(14) 0.4040(4) 0.8773(6)
H74_3 H 0.6137 0.4286 0.8930
H75_3 H 0.6963 0.4070 0.8568
H76_3 H 0.6443 0.3853 0.9056
C92_3 C 0.5252(8) 0.3176(3) 0.8387(4)
H77_3 H 0.5422 0.2956 0.8157
H78_3 H 0.4498 0.3208 0.8382
C93_3 C 0.5584(10) 0.3085(4) 0.8948(5)
H79_3 H 0.5240 0.2852 0.9069
H80_3 H 0.5400 0.3298 0.9182
H81_3 H 0.6328 0.3047 0.8957
N4_3 N 0.7469(7) 0.44486(19) 0.6835(3)
C94_3 C 0.6536(8) 0.4569(3) 0.7071(4)
H82_3 H 0.6286 0.4443 0.7379
C95_3 C 0.5975(9) 0.4877(4) 0.6849(6)
H83_3 H 0.5351 0.4957 0.7007
C96_3 C 0.6348(12) 0.5065(3) 0.6389(6)
H84_3 H 0.5973 0.5271 0.6240
C97_3 C 0.7281(13) 0.4945(3) 0.6153(5)
H85_3 H 0.7531 0.5071 0.5846
C98_3 C 0.7842(9) 0.4637(3) 0.6376(4)
H86_3 H 0.8466 0.4556 0.6217
O23_2 O 0.9722(4) 0.34035(18) 0.6873(2)
O25_3 O 0.9805(5) 0.42200(18) 0.6900(2)
O26_3 O 0.8525(5) 0.42773(14) 0.7879(2)
C3_3 C 0.1348(12) 0.9935(3) 0.3611(6)
H3_3 H 0.0973 0.9729 0.3760
H4_3 H 0.2531 0.9929 0.4154
H15_3 H 0.9944 0.3167 0.5920
H20_3 H 0.9329 0.3173 0.4950
H22_3 H 0.9714 0.2884 0.4106
H34_3 H 0.9814 0.1130 0.1392
H40_3 H 0.9498 0.1792 0.1618
O4_2 O 0.0278(4) 0.65965(18) 0.1873(2)
H15_4 H 0.0056 0.6833 0.0920
H20_4 H 0.0671 0.6827 0.9950
H22_4 H 0.0286 0.7116 0.9106
H34_4 H 0.0186 0.8870 0.6392
H40_4 H 0.0502 0.8208 0.6618
C3_4 C 0.8652(12) 0.0065(3) 0.8611(6)
H3_4 H 0.9027 0.0271 0.8760
H4_4 H 0.7469 0.0071 0.9154
O6_4 O 0.9705(4) 0.72768(16) 0.0070(2)
C6_4 C 0.8190(5) 0.7822(2) 0.0193(3)
C11_4 C 0.9077(6) 0.8998(2) 0.0055(3)
C12_4 C 0.9349(6) 0.8790(2) 0.0520(3)
H8_4 H 0.9725 0.8911 0.0795
C13_4 C 0.9060(6) 0.8404(2) 0.0572(3)
H9_4 H 0.9246 0.8265 0.0881
C14_4 C 0.8475(6) 0.82176(19) 0.0152(2)
C19_4 C 0.8512(6) 0.75713(18) 0.0667(2)
C20_4 C 0.9270(5) 0.7288(2) 0.0574(3)
C21_4 C 0.9545(5) 0.7020(2) 0.0987(2)
C22_4 C 0.9074(5) 0.70319(19) 0.1477(3)
C23_4 C 0.7835(5) 0.7365(2) 0.2130(3)
H16_4 H 0.8019 0.7199 0.2412
C24_4 C 0.7109(6) 0.7653(2) 0.2210(3)
C25_4 C 0.6821(7) 0.7915(2) 0.1798(3)
H17_4 H 0.6301 0.8100 0.1858
C26_4 C 0.7307(6) 0.7896(2) 0.1311(3)
H18_4 H 0.7149 0.8083 0.1051
C27_4 C 0.8056(5) 0.7599(2) 0.1184(3)
C28_4 C 0.8313(5) 0.73216(19) 0.1602(2)
C29_4 C 0.9355(6) 0.6709(2) 0.1880(3)
H19_4 H 0.9490 0.6702 0.0009
Cl1_4 Cl 0.9508(2) 0.94818(6) 0.00027(11)
Cl2_4 Cl 0.65080(19) 0.76910(7) 0.28485(8)
O14_4 O 0.1846(4) 0.62155(15) 0.11967(17)
O15_4 O 0.2465(4) 0.66859(14) 0.16938(18)
O16_4 O 0.2417(4) 0.77413(15) 0.0162(2)
C64_4 C 0.2645(5) 0.7353(2) 0.0230(3)
C65_4 C 0.2376(6) 0.7145(2) 0.0692(3)
H53_4 H 0.2019 0.7269 0.0971
C66_4 C 0.2640(5) 0.6751(2) 0.0737(3)
C67_4 C 0.3512(6) 0.6165(2) 0.0350(3)
H54_4 H 0.3336 0.6017 0.0652
C72_4 C 0.3187(5) 0.6562(2) 0.0315(2)
C73_4 C 0.2296(6) 0.6535(2) 0.1238(2)
C74_4 C 0.1877(6) 0.7942(2) 0.0585(3)
H57_4 H 0.2222 0.7899 0.0930
H58_4 H 0.1160 0.7851 0.0612
C75_4 C 0.1903(8) 0.8373(3) 0.0437(4)
H59_4 H 0.1551 0.8521 0.0712
H60_4 H 0.1558 0.8411 0.0096
H61_4 H 0.2617 0.8458 0.0410
C87_4 C 0.4956(7) 0.8103(3) 0.0141(3)
H67_4 H 0.5671 0.8173 0.0050
C88_4 C 0.4823(8) 0.8079(3) 0.0751(3)
H68_4 H 0.4985 0.8327 0.0910
H69_4 H 0.5286 0.7884 0.0894
H70_4 H 0.4112 0.8011 0.0835
O20_4 O 0.3247(4) 0.61863(17) 0.25357(18)
N3_4 N 0.4261(5) 0.6473(2) 0.3165(3)
C89_4 C 0.3651(7) 0.6471(3) 0.2731(3)
H71_4 H 0.3524 0.6709 0.2564
C90_4 C 0.4544(10) 0.6102(3) 0.3403(4)
H72_4 H 0.5186 0.6130 0.3608
H73_4 H 0.4665 0.5912 0.3119
C91_4 C 0.3669(14) 0.5960(4) 0.3773(6)
H74_4 H 0.3863 0.5714 0.3930
H75_4 H 0.3037 0.5930 0.3568
H76_4 H 0.3557 0.6147 0.4056
C92_4 C 0.4748(8) 0.6824(3) 0.3387(4)
H77_4 H 0.4578 0.7044 0.3157
H78_4 H 0.5502 0.6792 0.3382
C93_4 C 0.4416(10) 0.6915(4) 0.3948(5)
H79_4 H 0.4760 0.7148 0.4069
H80_4 H 0.4600 0.6702 0.4182
H81_4 H 0.3672 0.6953 0.3957
N4_4 N 0.2531(7) 0.55514(19) 0.1835(3)
C94_4 C 0.3464(8) 0.5431(3) 0.2071(4)
H82_4 H 0.3714 0.5557 0.2379
C95_4 C 0.4025(9) 0.5123(4) 0.1849(6)
H83_4 H 0.4649 0.5043 0.2007
C96_4 C 0.3652(12) 0.4935(3) 0.1389(6)
H84_4 H 0.4027 0.4729 0.1240
C97_4 C 0.2719(13) 0.5055(3) 0.1153(5)
H85_4 H 0.2469 0.4929 0.0846
C98_4 C 0.2158(9) 0.5363(3) 0.1376(4)
H86_4 H 0.1534 0.5444 0.1217
O25_4 O 0.0195(5) 0.57800(18) 0.1900(2)
O26_4 O 0.1475(5) 0.57227(14) 0.2879(2)
O1_4 O 0.6846(4) 0.87845(15) 0.88033(17)
O2_4 O 0.7465(4) 0.83141(14) 0.83062(18)
O3_4 O 0.7417(4) 0.72587(15) 0.9838(2)
O10_4 O 0.8247(4) 0.88137(17) 0.74643(18)
N1_4 N 0.7531(7) 0.94486(19) 0.8165(3)
C1_4 C 0.8464(8) 0.9569(3) 0.7929(4)
H1_4 H 0.8714 0.9443 0.7621
C2_4 C 0.9025(9) 0.9877(4) 0.8151(6)
H2_4 H 0.9649 0.9957 0.7993
C4_4 C 0.7719(13) 0.9945(3) 0.8847(5)
C5_4 C 0.7158(9) 0.9637(3) 0.8624(4)
H5_4 H 0.6534 0.9556 0.8783
N2_4 N 0.9261(5) 0.8527(2) 0.6835(3)
C7_4 C 0.7645(5) 0.7647(2) 0.9770(3)
C8_4 C 0.7376(6) 0.7855(2) 0.9308(3)
H6_4 H 0.7019 0.7731 0.9029
C9_4 C 0.7640(5) 0.8249(2) 0.9263(3)
C10_4 C 0.8512(6) 0.8835(2) 0.9650(3)
H7_4 H 0.8336 0.8983 0.9348
C15_4 C 0.8187(5) 0.8438(2) 0.9685(2)
C16_4 C 0.7296(6) 0.8465(2) 0.8762(2)
C17_4 C 0.6877(6) 0.7058(2) 0.9415(3)
H10_4 H 0.7222 0.7101 0.9070
H11_4 H 0.6160 0.7149 0.9388
C18_4 C 0.6903(8) 0.6627(3) 0.9563(4)
H12_4 H 0.6551 0.6479 0.9288
H13_4 H 0.6558 0.6589 0.9904
H14_4 H 0.7617 0.6542 0.9590
C30_4 C 0.9956(7) 0.6897(3) 0.9859(3)
C31_4 C 0.9823(8) 0.6921(3) 0.9249(3)
H21_4 H 0.9985 0.6673 0.9090
H23_4 H 0.9112 0.6989 0.9165
C45_4 C 0.8651(7) 0.8529(3) 0.7269(3)
H33_4 H 0.8524 0.8291 0.7436
C46_4 C 0.9544(10) 0.8898(3) 0.6597(4)
H35_4 H 0.9665 0.9088 0.6881
C47_4 C 0.8669(14) 0.9040(4) 0.6227(6)
H36_4 H 0.8863 0.9286 0.6070
H37_4 H 0.8037 0.9070 0.6432
H38_4 H 0.8557 0.8853 0.5944
C48_4 C 0.9748(8) 0.8176(3) 0.6613(4)
H39_4 H 0.9578 0.7956 0.6843
C49_4 C 0.9416(10) 0.8085(4) 0.6052(5)
H41_4 H 0.9760 0.7852 0.5931
H42_4 H 0.9600 0.8298 0.5818
H43_4 H 0.8672 0.8047 0.6043
O17_4 O 0.5278(4) 0.84035(18) 0.8127(2)
O19_4 O 0.4705(4) 0.77232(16) 0.9930(2)
C63_4 C 0.3190(5) 0.7178(2) 0.9807(3)
C68_4 C 0.4077(6) 0.6002(2) 0.9945(3)
C69_4 C 0.4349(6) 0.6210(2) 0.9480(3)
H55_4 H 0.4725 0.6089 0.9205
C70_4 C 0.4060(6) 0.6596(2) 0.9428(3)
H56_4 H 0.4246 0.6735 0.9119
C71_4 C 0.3475(6) 0.67824(19) 0.9848(2)
C76_4 C 0.3512(6) 0.74287(18) 0.9333(2)
C77_4 C 0.4270(5) 0.7712(2) 0.9426(3)
C78_4 C 0.4545(5) 0.7980(2) 0.9013(2)
H62_4 H 0.5056 0.8167 0.9080
C79_4 C 0.4074(5) 0.79681(19) 0.8523(3)
C80_4 C 0.2835(5) 0.7635(2) 0.7870(3)
H63_4 H 0.3019 0.7801 0.7588
C81_4 C 0.2109(6) 0.7347(2) 0.7790(3)
C82_4 C 0.1821(7) 0.7085(2) 0.8202(3)
H64_4 H 0.1301 0.6900 0.8142
C83_4 C 0.2307(6) 0.7104(2) 0.8689(3)
H65_4 H 0.2149 0.6917 0.8949
C84_4 C 0.3056(5) 0.7401(2) 0.8816(3)
C85_4 C 0.3313(5) 0.76784(19) 0.8398(2)
C86_4 C 0.4355(6) 0.8291(2) 0.8120(3)
H66_4 H 0.4490 0.8298 0.9991
Cl5_4 Cl 0.4508(2) 0.55182(6) 0.99973(11)
Cl6_4 Cl 0.15080(19) 0.73090(7) 0.71515(8)
H24_3 H 0.0161 0.5800 0.0907
H28_3 H 0.1491 0.5759 0.0195
H29_3 H 0.0589 0.6064 0.0102
O11_3 O 0.0208(5) 0.4468(2) 0.0090(2)
C52_3 C 0.0926(10) 0.4166(4) 0.0046(4)
C53_3 C 0.1342(11) 0.4080(4) 0.0583(4)
H46_3 H 0.1831 0.3868 0.0559
H47_3 H 0.0778 0.4008 0.0820
H48_3 H 0.1689 0.4306 0.0723
O9_3 O 0.0208(5) 0.5532(2) 0.9910(2)
C43_3 C 0.0926(10) 0.5834(4) 0.9954(4)
C44_3 C 0.1342(11) 0.5920(4) 0.9417(4)
H30_3 H 0.1831 0.6132 0.9441
H31_3 H 0.0778 0.5992 0.9180
H32_3 H 0.1689 0.5694 0.9277
H44_3 H 0.1491 0.4241 0.9805
H45_3 H 0.0589 0.3936 0.9898
H49_3 H 0.0161 0.4200 0.9093
C32_3 C 0.8963(6) 0.5102(3) 0.0266(3)
C33_3 C 0.9625(6) 0.5409(3) 0.0350(3)
C34_3 C 0.9702(6) 0.5592(2) 0.0859(3)
C35_3 C 0.9094(6) 0.5462(2) 0.1287(3)
C36_3 C 0.7753(7) 0.5004(3) 0.1637(4)
H25_3 H 0.7794 0.5112 0.1982
C37_3 C 0.7102(10) 0.4700(4) 0.1539(5)
C38_3 C 0.7034(10) 0.4518(4) 0.1044(6)
H26_3 H 0.6590 0.4306 0.0996
C39_3 C 0.7632(9) 0.4654(3) 0.0621(5)
H27_3 H 0.7573 0.4537 0.0283
C40_3 C 0.8343(7) 0.4973(2) 0.0691(3)
C41_3 C 0.8365(6) 0.5157(2) 0.1214(3)
C42_3 C 0.9295(7) 0.5670(2) 0.1811(3)
Cl3_3 Cl 0.6328(3) 0.45086(14) 0.20673(19)
C50_3 C 0.8963(6) 0.4898(3) 0.9734(3)
C51_3 C 0.9625(6) 0.4591(3) 0.9650(3)
C54_3 C 0.9702(6) 0.4408(2) 0.9141(3)
C55_3 C 0.9094(6) 0.4538(2) 0.8713(3)
C56_3 C 0.8365(6) 0.4843(2) 0.8786(3)
C57_3 C 0.7753(7) 0.4996(3) 0.8363(4)
H50_3 H 0.7794 0.4888 0.8018
C58_3 C 0.7102(10) 0.5300(4) 0.8461(5)
C59_3 C 0.7034(10) 0.5482(4) 0.8956(6)
H51_3 H 0.6590 0.5694 0.9004
C60_3 C 0.7632(9) 0.5346(3) 0.9379(5)
H52_3 H 0.7573 0.5463 0.9717
C61_3 C 0.8343(7) 0.5027(2) 0.9309(3)
Cl4_3 Cl 0.6328(3) 0.54914(14) 0.79327(19)
C62_3 C 0.9295(7) 0.4330(2) 0.8189(3)
C32_4 C 0.1037(6) 0.4898(3) 0.5266(3)
C33_4 C 0.0375(6) 0.4591(3) 0.5350(3)
C34_4 C 0.0298(6) 0.4408(2) 0.5859(3)
C35_4 C 0.0906(6) 0.4538(2) 0.6287(3)
C36_4 C 0.2247(7) 0.4996(3) 0.6637(4)
H25_4 H 0.2206 0.4888 0.6982
C37_4 C 0.2898(10) 0.5300(4) 0.6539(5)
C38_4 C 0.2966(10) 0.5482(4) 0.6044(6)
H26_4 H 0.3410 0.5694 0.5996
C39_4 C 0.2368(9) 0.5346(3) 0.5621(5)
H27_4 H 0.2427 0.5463 0.5283
C40_4 C 0.1657(7) 0.5027(2) 0.5691(3)
C41_4 C 0.1635(6) 0.4843(2) 0.6214(3)
C42_4 C 0.0705(7) 0.4330(2) 0.6811(3)
Cl3_4 Cl 0.3672(3) 0.54914(14) 0.70673(19)
C50_4 C 0.1037(6) 0.5102(3) 0.4734(3)
C51_4 C 0.0375(6) 0.5409(3) 0.4650(3)
C54_4 C 0.0298(6) 0.5592(2) 0.4141(3)
C55_4 C 0.0906(6) 0.5462(2) 0.3713(3)
C56_4 C 0.1635(6) 0.5157(2) 0.3786(3)
C57_4 C 0.2247(7) 0.5004(3) 0.3363(4)
H50_4 H 0.2206 0.5112 0.3018
C58_4 C 0.2898(10) 0.4700(4) 0.3461(5)
C59_4 C 0.2966(10) 0.4518(4) 0.3956(6)
H51_4 H 0.3410 0.4306 0.4004
C60_4 C 0.2368(9) 0.4654(3) 0.4379(5)
H52_4 H 0.2427 0.4537 0.4717
C61_4 C 0.1657(7) 0.4973(2) 0.4309(3)
Cl4_4 Cl 0.3672(3) 0.45086(14) 0.29327(19)
C62_4 C 0.0705(7) 0.5670(2) 0.3189(3)
O9_4 O 0.9792(5) 0.4468(2) 0.4910(2)
H24_4 H 0.9839 0.4200 0.5907
C43_4 C 0.9074(10) 0.4166(4) 0.4954(4)
H28_4 H 0.8509 0.4241 0.5195
H29_4 H 0.9411 0.3936 0.5102
C44_4 C 0.8658(11) 0.4080(4) 0.4417(4)
H30_4 H 0.8169 0.3868 0.4441
H31_4 H 0.9222 0.4008 0.4180
H32_4 H 0.8311 0.4306 0.4277
O11_4 O 0.9792(5) 0.5532(2) 0.5090(2)
C52_4 C 0.9074(10) 0.5834(4) 0.5046(4)
H44_4 H 0.8509 0.5759 0.4805
H45_4 H 0.9411 0.6064 0.4898
C53_4 C 0.8658(11) 0.5920(4) 0.5583(4)
H46_4 H 0.8169 0.6132 0.5559
H47_4 H 0.9222 0.5992 0.5820
H48_4 H 0.8311 0.5694 0.5723
H49_4 H 0.9839 0.5800 0.4093
loop_
_geom_bond_atom_site_label_1
_geom_bond_atom_site_label_2
_geom_bond_site_symmetry_1
_geom_bond_site_symmetry_2
Er3 O4 1_555 1_555
Er1 O1 1_555 1_555
O1 C16 1_555 1_555
O2 Er1 1_555 1_555
O3 C7 1_555 1_555
O7 Er1 1_555 1_555
O8 C42 1_555 1_555
O10 Er1 1_555 1_555
N1 Er1 1_555 1_555
C1 N1 1_555 1_555
H1 C1 1_555 1_555
C2 C1 1_555 1_555
H2 C2 1_555 1_555
C5 N1 1_555 1_555
H5 C5 1_555 1_555
N2 C45 1_555 1_555
C7 C8 1_555 1_555
C8 H6 1_555 1_555
C9 C8 1_555 1_555
C10 H7 1_555 1_555
C15 C9 1_555 1_555
C16 O2 1_555 1_555
C17 O3 1_555 1_555
H10 C17 1_555 1_555
H11 C17 1_555 1_555
C18 C17 1_555 1_555
H12 C18 1_555 1_555
H13 C18 1_555 1_555
H14 C18 1_555 1_555
C31 C30 1_555 1_555
H21 C31 1_555 1_555
H23 C31 1_555 1_555
C32 C33 1_555 1_555
C33 C34 1_555 1_555
C34 H24 1_555 1_555
C35 C34 1_555 1_555
C36 H25 1_555 1_555
C41 C35 1_555 1_555
C42 O7 1_555 1_555
C45 O10 1_555 1_555
H33 C45 1_555 1_555
C46 N2 1_555 1_555
H35 C46 1_555 1_555
C47 C46 1_555 1_555
H36 C47 1_555 1_555
H37 C47 1_555 1_555
H38 C47 1_555 1_555
C48 N2 1_555 1_555
H39 C48 1_555 1_555
C49 C48 1_555 1_555
H41 C49 1_555 1_555
H42 C49 1_555 1_555
H43 C49 1_555 1_555
O17 Er1 1_555 1_555
O18 C86 1_555 1_555
O19 C77 1_555 1_555
C69 C68 1_555 1_555
H55 C69 1_555 1_555
C70 C69 1_555 1_555
H56 C70 1_555 1_555
C71 C63 1_555 1_555
C76 C63 1_555 1_555
C77 C76 1_555 1_555
C78 C77 1_555 1_555
H62 C78 1_555 1_555
C79 C78 1_555 1_555
C80 H63 1_555 1_555
C81 C80 1_555 1_555
C82 C81 1_555 1_555
H64 C82 1_555 1_555
C83 C82 1_555 1_555
H65 C83 1_555 1_555
C84 C76 1_555 1_555
C85 C79 1_555 1_555
C86 O17 1_555 1_555
Cl5 C68 1_555 1_555
Cl6 C81 1_555 1_555
O21 Er1 1_555 1_555
O22 Er1 1_555 1_555
Er5 O8 1_555 1_555
C4 C5 1_555 1_555
C9 C16 1_555 1_555
C10 C15 1_555 1_555
C35 C42 1_555 1_555
C36 C41 1_555 1_555
O18 Er5 1_555 1_555
C70 C71 1_555 1_555
C79 C86 1_555 1_555
C80 C85 1_555 1_555
C83 C84 1_555 1_555
C84 C85 1_555 1_555
O5 C29 1_555 1_555
O6 C20 1_555 1_555
C12 C11 1_555 1_555
H8 C12 1_555 1_555
C13 C12 1_555 1_555
H9 C13 1_555 1_555
C14 C6 1_555 1_555
C19 C6 1_555 1_555
C20 C19 1_555 1_555
C21 C20 1_555 1_555
C22 C21 1_555 1_555
C23 H16 1_555 1_555
C24 C23 1_555 1_555
C25 C24 1_555 1_555
H17 C25 1_555 1_555
C26 C25 1_555 1_555
H18 C26 1_555 1_555
C27 C19 1_555 1_555
C28 C22 1_555 1_555
C29 C22 1_555 1_555
C43 O9 1_555 1_555
C44 C43 1_555 1_555
H30 C44 1_555 1_555
H31 C44 1_555 1_555
H32 C44 1_555 1_555
Cl1 C11 1_555 1_555
Cl2 C24 1_555 1_555
C59 C58 1_555 1_555
H51 C59 1_555 1_555
C60 C59 1_555 1_555
H52 C60 1_555 1_555
Cl4 C58 1_555 1_555
O14 C73 1_555 1_555
O15 C73 1_555 1_555
O16 C64 1_555 1_555
C64 C65 1_555 1_555
C65 H53 1_555 1_555
C66 C65 1_555 1_555
C67 H54 1_555 1_555
C72 C66 1_555 1_555
C73 C66 1_555 1_555
C74 O16 1_555 1_555
H57 C74 1_555 1_555
H58 C74 1_555 1_555
C75 C74 1_555 1_555
H59 C75 1_555 1_555
H60 C75 1_555 1_555
H61 C75 1_555 1_555
H67 C87 1_555 1_555
C88 C87 1_555 1_555
H68 C88 1_555 1_555
H69 C88 1_555 1_555
H70 C88 1_555 1_555
Er3 O14 1_555 1_555
O20 Er3 1_555 1_555
N3 C89 1_555 1_555
C89 O20 1_555 1_555
H71 C89 1_555 1_555
C90 N3 1_555 1_555
H72 C90 1_555 1_555
H73 C90 1_555 1_555
C91 C90 1_555 1_555
H74 C91 1_555 1_555
H75 C91 1_555 1_555
H76 C91 1_555 1_555
C92 N3 1_555 1_555
H77 C92 1_555 1_555
H78 C92 1_555 1_555
C93 C92 1_555 1_555
H79 C93 1_555 1_555
H80 C93 1_555 1_555
H81 C93 1_555 1_555
N4 Er3 1_555 1_555
C94 N4 1_555 1_555
H82 C94 1_555 1_555
C95 C94 1_555 1_555
H83 C95 1_555 1_555
C96 C95 1_555 1_555
H84 C96 1_555 1_555
C97 C96 1_555 1_555
H85 C97 1_555 1_555
C98 N4 1_555 1_555
H86 C98 1_555 1_555
Er4 O5 1_555 1_555
O24 Er3 1_555 1_555
O25 Er3 1_555 1_555
O26 Er3 1_555 1_555
C13 C14 1_555 1_555
C23 C28 1_555 1_555
C26 C27 1_555 1_555
C27 C28 1_555 1_555
C60 C61 1_555 1_555
O15 Er3 1_555 1_555
C67 C72 1_555 1_555
C97 C98 1_555 1_555
H3 C3 1_555 1_555
C38 C37 1_555 1_555
H26 C38 1_555 1_555
C39 C38 1_555 1_555
H27 C39 1_555 1_555
Cl3 C37 1_555 1_555
C52 O11 1_555 1_555
C53 C52 1_555 1_555
H46 C53 1_555 1_555
H47 C53 1_555 1_555
H48 C53 1_555 1_555
C39 C40 1_555 1_555
C51 C50 1_555 1_555
C54 C51 1_555 1_555
H49 C54 1_555 1_555
C55 C54 1_555 1_555
C56 C55 1_555 1_555
C57 C56 1_555 1_555
H50 C57 1_555 1_555
C62 C55 1_555 1_555
O12 C62 1_555 1_555
O13 C62 1_555 1_555
Er6 O12 1_555 1_555
Er7 O13 1_555 1_555
H3_2 C3_2 1_555 1_555
C38_2 C37_2 1_555 1_555
H26_2 C38_2 1_555 1_555
C39_2 C38_2 1_555 1_555
H27_2 C39_2 1_555 1_555
Cl3_2 C37_2 1_555 1_555
C51_2 C50_2 1_555 1_555
O11_2 C51_2 1_555 1_555
C52_2 O11_2 1_555 1_555
H44_2 C52_2 1_555 1_555
H45_2 C52_2 1_555 1_555
C53_2 C52_2 1_555 1_555
H46_2 C53_2 1_555 1_555
H47_2 C53_2 1_555 1_555
H48_2 C53_2 1_555 1_555
C54_2 C51_2 1_555 1_555
H49_2 C54_2 1_555 1_555
C55_2 C54_2 1_555 1_555
C56_2 C55_2 1_555 1_555
C57_2 C56_2 1_555 1_555
H50_2 C57_2 1_555 1_555
C62_2 C55_2 1_555 1_555
O12_2 C62_2 1_555 1_555
O22 C62_2 1_555 1_555
Er5 O12_2 1_555 1_555
C39_2 C40_2 1_555 1_555
Er7 O1_2 1_555 1_555
O1_2 C16_2 1_555 1_555
O2_2 Er7 1_555 1_555
O3_2 C7_2 1_555 1_555
O5_2 C29_2 1_555 1_555
O6_2 C20_2 1_555 1_555
O7_2 Er7 1_555 1_555
O8_2 C42_2 1_555 1_555
O9_2 C33_2 1_555 1_555
O10_2 Er7 1_555 1_555
N1_2 Er7 1_555 1_555
C1_2 N1_2 1_555 1_555
H1_2 C1_2 1_555 1_555
C2_2 C1_2 1_555 1_555
H2_2 C2_2 1_555 1_555
C5_2 N1_2 1_555 1_555
H5_2 C5_2 1_555 1_555
N2_2 C45_2 1_555 1_555
C6_2 C7_2 1_555 1_555
C7_2 C8_2 1_555 1_555
C8_2 H6_2 1_555 1_555
C9_2 C8_2 1_555 1_555
C10_2 H7_2 1_555 1_555
C11_2 C10_2 1_555 1_555
C12_2 C11_2 1_555 1_555
H8_2 C12_2 1_555 1_555
C13_2 C12_2 1_555 1_555
H9_2 C13_2 1_555 1_555
C14_2 C6_2 1_555 1_555
C15_2 C9_2 1_555 1_555
C16_2 O2_2 1_555 1_555
C17_2 O3_2 1_555 1_555
H10_2 C17_2 1_555 1_555
H11_2 C17_2 1_555 1_555
C18_2 C17_2 1_555 1_555
H12_2 C18_2 1_555 1_555
H13_2 C18_2 1_555 1_555
H14_2 C18_2 1_555 1_555
C19_2 C6_2 1_555 1_555
C20_2 C19_2 1_555 1_555
C21_2 C20_2 1_555 1_555
C22_2 C21_2 1_555 1_555
C23_2 H16_2 1_555 1_555
C24_2 C23_2 1_555 1_555
C25_2 C24_2 1_555 1_555
H17_2 C25_2 1_555 1_555
C26_2 C25_2 1_555 1_555
H18_2 C26_2 1_555 1_555
C27_2 C19_2 1_555 1_555
C28_2 C22_2 1_555 1_555
C29_2 C22_2 1_555 1_555
C30_2 O6_2 1_555 1_555
H19_2 C30_2 1_555 1_555
C31_2 C30_2 1_555 1_555
H21_2 C31_2 1_555 1_555
H23_2 C31_2 1_555 1_555
C32_2 C33_2 1_555 1_555
C33_2 C34_2 1_555 1_555
C34_2 H24_2 1_555 1_555
C35_2 C34_2 1_555 1_555
C36_2 H25_2 1_555 1_555
C41_2 C35_2 1_555 1_555
C42_2 O7_2 1_555 1_555
C43_2 O9_2 1_555 1_555
H28_2 C43_2 1_555 1_555
H29_2 C43_2 1_555 1_555
C44_2 C43_2 1_555 1_555
H30_2 C44_2 1_555 1_555
H31_2 C44_2 1_555 1_555
H32_2 C44_2 1_555 1_555
C45_2 O10_2 1_555 1_555
H33_2 C45_2 1_555 1_555
C46_2 N2_2 1_555 1_555
H35_2 C46_2 1_555 1_555
C47_2 C46_2 1_555 1_555
H36_2 C47_2 1_555 1_555
H37_2 C47_2 1_555 1_555
H38_2 C47_2 1_555 1_555
C48_2 N2_2 1_555 1_555
H39_2 C48_2 1_555 1_555
C49_2 C48_2 1_555 1_555
H41_2 C49_2 1_555 1_555
H42_2 C49_2 1_555 1_555
H43_2 C49_2 1_555 1_555
Cl1_2 C11_2 1_555 1_555
Cl2_2 C24_2 1_555 1_555
C59_2 C58_2 1_555 1_555
H51_2 C59_2 1_555 1_555
C60_2 C59_2 1_555 1_555
H52_2 C60_2 1_555 1_555
Cl4_2 C58_2 1_555 1_555
O14_2 C73_2 1_555 1_555
O15_2 C73_2 1_555 1_555
O16_2 C64_2 1_555 1_555
O17_2 Er7 1_555 1_555
O18_2 C86_2 1_555 1_555
O19_2 C77_2 1_555 1_555
C63_2 C64_2 1_555 1_555
C64_2 C65_2 1_555 1_555
C65_2 H53_2 1_555 1_555
C66_2 C65_2 1_555 1_555
C67_2 H54_2 1_555 1_555
C68_2 C67_2 1_555 1_555
C69_2 C68_2 1_555 1_555
H55_2 C69_2 1_555 1_555
C70_2 C69_2 1_555 1_555
H56_2 C70_2 1_555 1_555
C71_2 C63_2 1_555 1_555
C72_2 C66_2 1_555 1_555
C73_2 C66_2 1_555 1_555
C74_2 O16_2 1_555 1_555
H57_2 C74_2 1_555 1_555
H58_2 C74_2 1_555 1_555
C75_2 C74_2 1_555 1_555
H59_2 C75_2 1_555 1_555
H60_2 C75_2 1_555 1_555
H61_2 C75_2 1_555 1_555
C76_2 C63_2 1_555 1_555
C77_2 C76_2 1_555 1_555
C78_2 C77_2 1_555 1_555
H62_2 C78_2 1_555 1_555
C79_2 C78_2 1_555 1_555
C80_2 H63_2 1_555 1_555
C81_2 C80_2 1_555 1_555
C82_2 C81_2 1_555 1_555
H64_2 C82_2 1_555 1_555
C83_2 C82_2 1_555 1_555
H65_2 C83_2 1_555 1_555
C84_2 C76_2 1_555 1_555
C85_2 C79_2 1_555 1_555
C86_2 O17_2 1_555 1_555
C87_2 O19_2 1_555 1_555
H66_2 C87_2 1_555 1_555
H67_2 C87_2 1_555 1_555
C88_2 C87_2 1_555 1_555
H68_2 C88_2 1_555 1_555
H69_2 C88_2 1_555 1_555
H70_2 C88_2 1_555 1_555
Cl5_2 C68_2 1_555 1_555
Cl6_2 C81_2 1_555 1_555
Er2 O14_2 1_555 1_555
O20_2 Er2 1_555 1_555
N3_2 C89_2 1_555 1_555
C89_2 O20_2 1_555 1_555
H71_2 C89_2 1_555 1_555
C90_2 N3_2 1_555 1_555
H72_2 C90_2 1_555 1_555
H73_2 C90_2 1_555 1_555
C91_2 C90_2 1_555 1_555
H74_2 C91_2 1_555 1_555
H75_2 C91_2 1_555 1_555
H76_2 C91_2 1_555 1_555
C92_2 N3_2 1_555 1_555
H77_2 C92_2 1_555 1_555
H78_2 C92_2 1_555 1_555
C93_2 C92_2 1_555 1_555
H79_2 C93_2 1_555 1_555
H80_2 C93_2 1_555 1_555
H81_2 C93_2 1_555 1_555
N4_2 Er2 1_555 1_555
C94_2 N4_2 1_555 1_555
H82_2 C94_2 1_555 1_555
C95_2 C94_2 1_555 1_555
H83_2 C95_2 1_555 1_555
C96_2 C95_2 1_555 1_555
H84_2 C96_2 1_555 1_555
C97_2 C96_2 1_555 1_555
H85_2 C97_2 1_555 1_555
C98_2 N4_2 1_555 1_555
H86_2 C98_2 1_555 1_555
O21_2 Er7 1_555 1_555
Er4_2 O5_2 1_555 1_555
Er6 O8_2 1_555 1_555
O23 Er2 1_555 1_555
O24_2 Er2 1_555 1_555
O25_2 Er2 1_555 1_555
O26_2 Er2 1_555 1_555
C4_2 C5_2 1_555 1_555
C9_2 C16_2 1_555 1_555
C10_2 C15_2 1_555 1_555
C13_2 C14_2 1_555 1_555
C14_2 C15_2 1_555 1_555
C23_2 C28_2 1_555 1_555
C26_2 C27_2 1_555 1_555
C27_2 C28_2 1_555 1_555
C35_2 C42_2 1_555 1_555
C36_2 C41_2 1_555 1_555
C60_2 C61_2 1_555 1_555
O15_2 Er2 1_555 1_555
O18_2 Er6 1_555 1_555
C67_2 C72_2 1_555 1_555
C70_2 C71_2 1_555 1_555
C71_2 C72_2 1_555 1_555
C79_2 C86_2 1_555 1_555
C80_2 C85_2 1_555 1_555
C83_2 C84_2 1_555 1_555
C84_2 C85_2 1_555 1_555
C97_2 C98_2 1_555 1_555
Er5 O1_3 1_555 1_555
O1_3 C16_3 1_555 1_555
O2_3 Er5 1_555 1_555
O3_3 C7_3 1_555 1_555
O24 C29_3 1_555 1_555
O6_3 C20_3 1_555 1_555
O10_3 Er5 1_555 1_555
N1_3 Er5 1_555 1_555
C1_3 N1_3 1_555 1_555
H1_3 C1_3 1_555 1_555
C2_3 C1_3 1_555 1_555
H2_3 C2_3 1_555 1_555
C5_3 N1_3 1_555 1_555
H5_3 C5_3 1_555 1_555
N2_3 C45_3 1_555 1_555
C6_3 C7_3 1_555 1_555
C7_3 C8_3 1_555 1_555
C8_3 H6_3 1_555 1_555
C9_3 C8_3 1_555 1_555
C10_3 H7_3 1_555 1_555
C11_3 C10_3 1_555 1_555
C12_3 C11_3 1_555 1_555
H8_3 C12_3 1_555 1_555
C13_3 C12_3 1_555 1_555
H9_3 C13_3 1_555 1_555
C14_3 C6_3 1_555 1_555
C15_3 C9_3 1_555 1_555
C16_3 O2_3 1_555 1_555
C17_3 O3_3 1_555 1_555
H10_3 C17_3 1_555 1_555
H11_3 C17_3 1_555 1_555
C18_3 C17_3 1_555 1_555
H12_3 C18_3 1_555 1_555
H13_3 C18_3 1_555 1_555
H14_3 C18_3 1_555 1_555
C19_3 C6_3 1_555 1_555
C20_3 C19_3 1_555 1_555
C21_3 C20_3 1_555 1_555
C22_3 C21_3 1_555 1_555
C23_3 H16_3 1_555 1_555
C24_3 C23_3 1_555 1_555
C25_3 C24_3 1_555 1_555
H17_3 C25_3 1_555 1_555
C26_3 C25_3 1_555 1_555
H18_3 C26_3 1_555 1_555
C27_3 C19_3 1_555 1_555
C28_3 C22_3 1_555 1_555
C29_3 C22_3 1_555 1_555
C30_3 O6_3 1_555 1_555
H19_3 C30_3 1_555 1_555
C31_3 C30_3 1_555 1_555
H21_3 C31_3 1_555 1_555
H23_3 C31_3 1_555 1_555
C45_3 O10_3 1_555 1_555
H33_3 C45_3 1_555 1_555
C46_3 N2_3 1_555 1_555
H35_3 C46_3 1_555 1_555
C47_3 C46_3 1_555 1_555
H36_3 C47_3 1_555 1_555
H37_3 C47_3 1_555 1_555
H38_3 C47_3 1_555 1_555
C48_3 N2_3 1_555 1_555
H39_3 C48_3 1_555 1_555
C49_3 C48_3 1_555 1_555
H41_3 C49_3 1_555 1_555
H42_3 C49_3 1_555 1_555
H43_3 C49_3 1_555 1_555
Cl1_3 C11_3 1_555 1_555
Cl2_3 C24_3 1_555 1_555
O14_3 C73_3 1_555 1_555
O15_3 C73_3 1_555 1_555
O16_3 C64_3 1_555 1_555
O17_3 Er5 1_555 1_555
O21 C86_3 1_555 1_555
O19_3 C77_3 1_555 1_555
C63_3 C64_3 1_555 1_555
C64_3 C65_3 1_555 1_555
C65_3 H53_3 1_555 1_555
C66_3 C65_3 1_555 1_555
C67_3 H54_3 1_555 1_555
C68_3 C67_3 1_555 1_555
C69_3 C68_3 1_555 1_555
H55_3 C69_3 1_555 1_555
C70_3 C69_3 1_555 1_555
H56_3 C70_3 1_555 1_555
C71_3 C63_3 1_555 1_555
C72_3 C66_3 1_555 1_555
C73_3 C66_3 1_555 1_555
C74_3 O16_3 1_555 1_555
H57_3 C74_3 1_555 1_555
H58_3 C74_3 1_555 1_555
C75_3 C74_3 1_555 1_555
H59_3 C75_3 1_555 1_555
H60_3 C75_3 1_555 1_555
H61_3 C75_3 1_555 1_555
C76_3 C63_3 1_555 1_555
C77_3 C76_3 1_555 1_555
C78_3 C77_3 1_555 1_555
H62_3 C78_3 1_555 1_555
C79_3 C78_3 1_555 1_555
C80_3 H63_3 1_555 1_555
C81_3 C80_3 1_555 1_555
C82_3 C81_3 1_555 1_555
H64_3 C82_3 1_555 1_555
C83_3 C82_3 1_555 1_555
H65_3 C83_3 1_555 1_555
C84_3 C76_3 1_555 1_555
C85_3 C79_3 1_555 1_555
C86_3 O17_3 1_555 1_555
C87_3 O19_3 1_555 1_555
H66_3 C87_3 1_555 1_555
H67_3 C87_3 1_555 1_555
C88_3 C87_3 1_555 1_555
H68_3 C88_3 1_555 1_555
H69_3 C88_3 1_555 1_555
H70_3 C88_3 1_555 1_555
Cl5_3 C68_3 1_555 1_555
Cl6_3 C81_3 1_555 1_555
Er4 O14_3 1_555 1_555
O20_3 Er4 1_555 1_555
N3_3 C89_3 1_555 1_555
C89_3 O20_3 1_555 1_555
H71_3 C89_3 1_555 1_555
C90_3 N3_3 1_555 1_555
H72_3 C90_3 1_555 1_555
H73_3 C90_3 1_555 1_555
C91_3 C90_3 1_555 1_555
H74_3 C91_3 1_555 1_555
H75_3 C91_3 1_555 1_555
H76_3 C91_3 1_555 1_555
C92_3 N3_3 1_555 1_555
H77_3 C92_3 1_555 1_555
H78_3 C92_3 1_555 1_555
C93_3 C92_3 1_555 1_555
H79_3 C93_3 1_555 1_555
H80_3 C93_3 1_555 1_555
H81_3 C93_3 1_555 1_555
N4_3 Er4 1_555 1_555
C94_3 N4_3 1_555 1_555
H82_3 C94_3 1_555 1_555
C95_3 C94_3 1_555 1_555
H83_3 C95_3 1_555 1_555
C96_3 C95_3 1_555 1_555
H84_3 C96_3 1_555 1_555
C97_3 C96_3 1_555 1_555
H85_3 C97_3 1_555 1_555
C98_3 N4_3 1_555 1_555
H86_3 C98_3 1_555 1_555
O23_2 Er4 1_555 1_555
O25_3 Er4 1_555 1_555
O26_3 Er4 1_555 1_555
C4_3 C5_3 1_555 1_555
C9_3 C16_3 1_555 1_555
C10_3 C15_3 1_555 1_555
C13_3 C14_3 1_555 1_555
C14_3 C15_3 1_555 1_555
C23_3 C28_3 1_555 1_555
C26_3 C27_3 1_555 1_555
C27_3 C28_3 1_555 1_555
O15_3 Er4 1_555 1_555
C67_3 C72_3 1_555 1_555
C70_3 C71_3 1_555 1_555
C71_3 C72_3 1_555 1_555
C79_3 C86_3 1_555 1_555
C80_3 C85_3 1_555 1_555
C83_3 C84_3 1_555 1_555
C84_3 C85_3 1_555 1_555
C97_3 C98_3 1_555 1_555
H3_3 C3_3 1_555 1_555
Er4_2 O4_2 1_555 1_555
H3_4 C3_4 1_555 1_555
O24_2 C29_4 1_555 1_555
O6_4 C20_4 1_555 1_555
C12_4 C11_4 1_555 1_555
H8_4 C12_4 1_555 1_555
C13_4 C12_4 1_555 1_555
H9_4 C13_4 1_555 1_555
C14_4 C6_4 1_555 1_555
C19_4 C6_4 1_555 1_555
C20_4 C19_4 1_555 1_555
C21_4 C20_4 1_555 1_555
C22_4 C21_4 1_555 1_555
C23_4 H16_4 1_555 1_555
C24_4 C23_4 1_555 1_555
C25_4 C24_4 1_555 1_555
H17_4 C25_4 1_555 1_555
C26_4 C25_4 1_555 1_555
H18_4 C26_4 1_555 1_555
C27_4 C19_4 1_555 1_555
C28_4 C22_4 1_555 1_555
C29_4 C22_4 1_555 1_555
Cl1_4 C11_4 1_555 1_555
Cl2_4 C24_4 1_555 1_555
O14_4 C73_4 1_555 1_555
O15_4 C73_4 1_555 1_555
O16_4 C64_4 1_555 1_555
C64_4 C65_4 1_555 1_555
C65_4 H53_4 1_555 1_555
C66_4 C65_4 1_555 1_555
C67_4 H54_4 1_555 1_555
C72_4 C66_4 1_555 1_555
C73_4 C66_4 1_555 1_555
C74_4 O16_4 1_555 1_555
H57_4 C74_4 1_555 1_555
H58_4 C74_4 1_555 1_555
C75_4 C74_4 1_555 1_555
H59_4 C75_4 1_555 1_555
H60_4 C75_4 1_555 1_555
H61_4 C75_4 1_555 1_555
H67_4 C87_4 1_555 1_555
C88_4 C87_4 1_555 1_555
H68_4 C88_4 1_555 1_555
H69_4 C88_4 1_555 1_555
H70_4 C88_4 1_555 1_555
Er4_2 O14_4 1_555 1_555
O20_4 Er4_2 1_555 1_555
N3_4 C89_4 1_555 1_555
C89_4 O20_4 1_555 1_555
H71_4 C89_4 1_555 1_555
C90_4 N3_4 1_555 1_555
H72_4 C90_4 1_555 1_555
H73_4 C90_4 1_555 1_555
C91_4 C90_4 1_555 1_555
H74_4 C91_4 1_555 1_555
H75_4 C91_4 1_555 1_555
H76_4 C91_4 1_555 1_555
C92_4 N3_4 1_555 1_555
H77_4 C92_4 1_555 1_555
H78_4 C92_4 1_555 1_555
C93_4 C92_4 1_555 1_555
H79_4 C93_4 1_555 1_555
H80_4 C93_4 1_555 1_555
H81_4 C93_4 1_555 1_555
N4_4 Er4_2 1_555 1_555
C94_4 N4_4 1_555 1_555
H82_4 C94_4 1_555 1_555
C95_4 C94_4 1_555 1_555
H83_4 C95_4 1_555 1_555
C96_4 C95_4 1_555 1_555
H84_4 C96_4 1_555 1_555
C97_4 C96_4 1_555 1_555
H85_4 C97_4 1_555 1_555
C98_4 N4_4 1_555 1_555
H86_4 C98_4 1_555 1_555
O25_4 Er4_2 1_555 1_555
O26_4 Er4_2 1_555 1_555
C13_4 C14_4 1_555 1_555
C23_4 C28_4 1_555 1_555
C26_4 C27_4 1_555 1_555
C27_4 C28_4 1_555 1_555
O15_4 Er4_2 1_555 1_555
C67_4 C72_4 1_555 1_555
C97_4 C98_4 1_555 1_555
Er6 O1_4 1_555 1_555
O1_4 C16_4 1_555 1_555
O2_4 Er6 1_555 1_555
O3_4 C7_4 1_555 1_555
O10_4 Er6 1_555 1_555
N1_4 Er6 1_555 1_555
C1_4 N1_4 1_555 1_555
H1_4 C1_4 1_555 1_555
C2_4 C1_4 1_555 1_555
H2_4 C2_4 1_555 1_555
C5_4 N1_4 1_555 1_555
H5_4 C5_4 1_555 1_555
N2_4 C45_4 1_555 1_555
C7_4 C8_4 1_555 1_555
C8_4 H6_4 1_555 1_555
C9_4 C8_4 1_555 1_555
C10_4 H7_4 1_555 1_555
C15_4 C9_4 1_555 1_555
C16_4 O2_4 1_555 1_555
C17_4 O3_4 1_555 1_555
H10_4 C17_4 1_555 1_555
H11_4 C17_4 1_555 1_555
C18_4 C17_4 1_555 1_555
H12_4 C18_4 1_555 1_555
H13_4 C18_4 1_555 1_555
H14_4 C18_4 1_555 1_555
C31_4 C30_4 1_555 1_555
H21_4 C31_4 1_555 1_555
H23_4 C31_4 1_555 1_555
C45_4 O10_4 1_555 1_555
H33_4 C45_4 1_555 1_555
C46_4 N2_4 1_555 1_555
H35_4 C46_4 1_555 1_555
C47_4 C46_4 1_555 1_555
H36_4 C47_4 1_555 1_555
H37_4 C47_4 1_555 1_555
H38_4 C47_4 1_555 1_555
C48_4 N2_4 1_555 1_555
H39_4 C48_4 1_555 1_555
C49_4 C48_4 1_555 1_555
H41_4 C49_4 1_555 1_555
H42_4 C49_4 1_555 1_555
H43_4 C49_4 1_555 1_555
O17_4 Er6 1_555 1_555
O21_2 C86_4 1_555 1_555
O19_4 C77_4 1_555 1_555
C69_4 C68_4 1_555 1_555
H55_4 C69_4 1_555 1_555
C70_4 C69_4 1_555 1_555
H56_4 C70_4 1_555 1_555
C71_4 C63_4 1_555 1_555
C76_4 C63_4 1_555 1_555
C77_4 C76_4 1_555 1_555
C78_4 C77_4 1_555 1_555
H62_4 C78_4 1_555 1_555
C79_4 C78_4 1_555 1_555
C80_4 H63_4 1_555 1_555
C81_4 C80_4 1_555 1_555
C82_4 C81_4 1_555 1_555
H64_4 C82_4 1_555 1_555
C83_4 C82_4 1_555 1_555
H65_4 C83_4 1_555 1_555
C84_4 C76_4 1_555 1_555
C85_4 C79_4 1_555 1_555
C86_4 O17_4 1_555 1_555
Cl5_4 C68_4 1_555 1_555
Cl6_4 C81_4 1_555 1_555
C4_4 C5_4 1_555 1_555
C9_4 C16_4 1_555 1_555
C10_4 C15_4 1_555 1_555
C70_4 C71_4 1_555 1_555
C79_4 C86_4 1_555 1_555
C80_4 C85_4 1_555 1_555
C83_4 C84_4 1_555 1_555
C84_4 C85_4 1_555 1_555
C52_3 O11_3 1_555 1_555
C53_3 C52_3 1_555 1_555
H46_3 C53_3 1_555 1_555
H47_3 C53_3 1_555 1_555
H48_3 C53_3 1_555 1_555
C43_3 O9_3 1_555 1_555
C44_3 C43_3 1_555 1_555
H30_3 C44_3 1_555 1_555
H31_3 C44_3 1_555 1_555
H32_3 C44_3 1_555 1_555
O26_2 C42_3 1_555 1_555
C32_3 C33_3 1_555 1_555
C33_3 C34_3 1_555 1_555
C35_3 C34_3 1_555 1_555
C36_3 H25_3 1_555 1_555
C37_3 C36_3 1_555 1_555
C38_3 C37_3 1_555 1_555
H26_3 C38_3 1_555 1_555
C39_3 C38_3 1_555 1_555
H27_3 C39_3 1_555 1_555
C40_3 C32_3 1_555 1_555
C41_3 C35_3 1_555 1_555
Cl3_3 C37_3 1_555 1_555
C35_3 C42_3 1_555 1_555
C36_3 C41_3 1_555 1_555
C39_3 C40_3 1_555 1_555
C40_3 C41_3 1_555 1_555
C51_3 C50_3 1_555 1_555
C54_3 C51_3 1_555 1_555
C55_3 C54_3 1_555 1_555
C56_3 C55_3 1_555 1_555
C57_3 C56_3 1_555 1_555
H50_3 C57_3 1_555 1_555
C58_3 C57_3 1_555 1_555
C59_3 C58_3 1_555 1_555
H51_3 C59_3 1_555 1_555
C60_3 C59_3 1_555 1_555
H52_3 C60_3 1_555 1_555
C61_3 C50_3 1_555 1_555
Cl4_3 C58_3 1_555 1_555
C62_3 C55_3 1_555 1_555
O26_3 C62_3 1_555 1_555
C56_3 C61_3 1_555 1_555
C60_3 C61_3 1_555 1_555
O26 C42_4 1_555 1_555
C32_4 C33_4 1_555 1_555
C33_4 C34_4 1_555 1_555
C35_4 C34_4 1_555 1_555
C36_4 H25_4 1_555 1_555
C37_4 C36_4 1_555 1_555
C38_4 C37_4 1_555 1_555
H26_4 C38_4 1_555 1_555
C39_4 C38_4 1_555 1_555
H27_4 C39_4 1_555 1_555
C40_4 C32_4 1_555 1_555
C41_4 C35_4 1_555 1_555
Cl3_4 C37_4 1_555 1_555
C50_4 C32_4 1_555 1_555
C51_4 C50_4 1_555 1_555
C54_4 C51_4 1_555 1_555
C55_4 C54_4 1_555 1_555
C56_4 C55_4 1_555 1_555
C57_4 C56_4 1_555 1_555
H50_4 C57_4 1_555 1_555
C58_4 C57_4 1_555 1_555
C59_4 C58_4 1_555 1_555
H51_4 C59_4 1_555 1_555
C60_4 C59_4 1_555 1_555
H52_4 C60_4 1_555 1_555
C61_4 C50_4 1_555 1_555
Cl4_4 C58_4 1_555 1_555
C62_4 C55_4 1_555 1_555
O26_4 C62_4 1_555 1_555
C35_4 C42_4 1_555 1_555
C36_4 C41_4 1_555 1_555
C39_4 C40_4 1_555 1_555
C40_4 C41_4 1_555 1_555
C56_4 C61_4 1_555 1_555
C60_4 C61_4 1_555 1_555
C43_4 O9_4 1_555 1_555
H28_4 C43_4 1_555 1_555
H29_4 C43_4 1_555 1_555
C44_4 C43_4 1_555 1_555
H30_4 C44_4 1_555 1_555
H31_4 C44_4 1_555 1_555
H32_4 C44_4 1_555 1_555
C52_4 O11_4 1_555 1_555
H44_4 C52_4 1_555 1_555
H45_4 C52_4 1_555 1_555
C53_4 C52_4 1_555 1_555
H46_4 C53_4 1_555 1_555
H47_4 C53_4 1_555 1_555
H48_4 C53_4 1_555 1_555

#END
