
###############################################################################
#
# This file contains modified crystal structure data generated from the
# MOF subset of the Cambridge Structural Database (CSD) v543 
# hosted by the Cambridge Crystallographic Data Centre (CCDC).
#
# This work is licensed under the Creative Commons
# Attribution-NonCommercial-ShareAlike 4.0 International License.
# To view a copy of this license, visit
# http://creativecommons.org/licenses/by-nc-sa/4.0/
# or send a letter to
# Creative Commons, PO Box 1866, Mountain View, CA 94042, USA.
#
# CIF created using the CSD Python API on 29 September 2022
# The structure has been converted into the P1 space group
# The structure has a 3D framework
# The original CSD entry XOMMOD is in the monoclinic crystal system
# The framework has been calculated to contain at least 10.0% void space
# The void calculation uses a probe of radius 1.32A, grid spacing 0.4
# H atom positions have been added when not included in the experimental data
#
###############################################################################

data_XOMMOD
_chemical_formula_moiety         '(C172 H152 Co8 N16 O38)n'
_symmetry_cell_setting           triclinic
_symmetry_space_group_name_H-M   'P 1'
_symmetry_Int_Tables_number      1
_space_group_name_Hall           'P 1'
loop_
_symmetry_equiv_pos_site_id
_symmetry_equiv_pos_as_xyz
1 x,y,z
_cell_length_a                   10.1012(10)
_cell_length_b                   15.8278(16)
_cell_length_c                   27.754(3)
_cell_angle_alpha                90
_cell_angle_beta                 92.249(2)
_cell_angle_gamma                90
_cell_volume                     4433.89
loop_
_atom_site_label
_atom_site_type_symbol
_atom_site_fract_x
_atom_site_fract_y
_atom_site_fract_z
H11 H 0.0601 0.1786 0.4800
H12 H 0.0024 0.1350 0.4330
Co3 Co 0.06839(5) 0.50026(3) 0.233530(16)
Co6 Co 0.08361(5) 0.27585(3) 0.228863(15)
C18 C 0.4590(4) 0.1071(2) 0.65270(12)
C19 C 0.4227(4) 0.1133(2) 0.59991(12)
C20 C 0.4130(4) 0.1927(2) 0.57795(13)
H13 H 0.4270 0.2414 0.5962
C21 C 0.3829(4) 0.1989(2) 0.52922(13)
C22 C 0.3616(4) 0.1249(2) 0.50197(12)
C23 C 0.3685(5) 0.0457(3) 0.52355(14)
C24 C 0.4001(4) 0.0409(3) 0.57247(13)
C25 C 0.3667(4) 0.2771(2) 0.49745(13)
C26 C 0.3419(4) 0.2367(2) 0.44804(12)
C27 C 0.3223(4) 0.2747(2) 0.40309(13)
H16 H 0.3261 0.3332 0.4003
C28 C 0.2970(4) 0.2251(2) 0.36232(12)
C29 C 0.2892(4) 0.1376(2) 0.36654(13)
H17 H 0.2697 0.1050 0.3393
C30 C 0.3103(4) 0.0983(3) 0.41086(13)
H18 H 0.3075 0.0398 0.4135
C31 C 0.3358(4) 0.1489(2) 0.45133(13)
C32 C 0.2748(4) 0.2661(2) 0.31371(13)
C33 C 0.2465(5) 0.3300(3) 0.51216(15)
H19 H 0.2383 0.3789 0.4918
H20 H 0.2590 0.3474 0.5452
H21 H 0.1675 0.2965 0.5086
C34 C 0.4909(5) 0.3333(3) 0.49948(15)
H22 H 0.4765 0.3815 0.4789
H23 H 0.5652 0.3016 0.4887
H24 H 0.5086 0.3519 0.5320
O5 O 0.4558(3) 0.17370(16) 0.67691(9)
O6 O 0.4882(3) 0.03457(16) 0.66931(8)
O7 O 0.2191(3) 0.22249(16) 0.28021(8)
O8 O 0.3105(3) 0.34145(18) 0.30877(9)
O9 O 0.6952(2) 0.10641(14) 0.72900(8)
O11 O 0.4929(3) 0.03967(16) 0.79497(8)
Co4 Co 0.58361(5) 0.22415(3) 0.728863(15)
C1 C 0.7576(4) 0.2232(3) 0.64223(13)
C2 C 0.7916(4) 0.2646(3) 0.59544(13)
C3 C 0.8152(4) 0.2164(2) 0.55469(13)
H1 H 0.8116 0.1578 0.5562
C4 C 0.8441(4) 0.2559(2) 0.51193(12)
C5 C 0.8526(4) 0.3439(2) 0.51003(12)
C6 C 0.8289(4) 0.3933(3) 0.55045(13)
H2 H 0.8341 0.4519 0.5491
C7 C 0.7974(4) 0.3524(3) 0.59298(13)
H3 H 0.7798 0.3843 0.6201
C8 C 0.8693(4) 0.2167(2) 0.46249(13)
C9 C 0.8996(4) 0.2955(2) 0.43332(12)
C10 C 0.9305(4) 0.3011(2) 0.38516(12)
H4 H 0.9394 0.2524 0.3668
C11 C 0.9481(4) 0.3804(2) 0.36447(12)
C12 C 0.9363(4) 0.4529(2) 0.39239(12)
H5 H 0.9489 0.5056 0.3785
C13 C 0.9060(4) 0.4478(2) 0.44077(13)
H6 H 0.8988 0.4964 0.4593
C14 C 0.8868(4) 0.3688(2) 0.46089(12)
C15 C 0.7420(5) 0.1746(3) 0.44144(15)
H7 H 0.7230 0.1250 0.4598
H8 H 0.7545 0.1590 0.4085
H9 H 0.6694 0.2135 0.4429
C16 C 0.9829(5) 0.1528(3) 0.46500(16)
H10 H 0.9576 0.1047 0.4836
C17 C 0.9775(4) 0.3865(2) 0.31179(12)
H14 H 0.3523 0.9970 0.5055
H15 H 0.4064 0.9882 0.5872
C35 C 0.3776(5) 0.8590(3) 0.69456(16)
H25 H 0.3551 0.8882 0.6663
C36 C 0.3263(5) 0.7848(3) 0.7073(2)
H26 H 0.2629 0.7534 0.6900
C37 C 0.4700(4) 0.8260(3) 0.76246(15)
H27 H 0.5236 0.8268 0.7905
C38 C 0.3578(5) 0.6881(3) 0.77891(19)
H28 H 0.2649 0.6875 0.7864
H29 H 0.4095 0.6897 0.8091
C39 C 0.3906(5) 0.6084(3) 0.75187(19)
H30 H 0.3486 0.6106 0.7199
H31 H 0.4856 0.6053 0.7483
C40 C 0.3450(5) 0.5304(3) 0.77734(18)
H32 H 0.3889 0.5271 0.8090
H33 H 0.2503 0.5339 0.7817
C41 C 0.3194(4) 0.4321(3) 0.70564(17)
H34 H 0.2544 0.4617 0.6880
C42 C 0.3775(4) 0.3598(3) 0.69286(15)
H35 H 0.3583 0.3304 0.6644
C43 C 0.4635(4) 0.3940(2) 0.76145(14)
H36 H 0.5149 0.3939 0.7900
N1 N 0.4702(3) 0.33525(19) 0.72809(11)
N2 N 0.3745(3) 0.4538(2) 0.74975(13)
N3 N 0.3856(4) 0.7641(2) 0.75089(14)
N4 N 0.4687(3) 0.88587(19) 0.72957(11)
O1 O 0.7005(3) 0.26753(17) 0.67301(9)
O2 O 0.7865(3) 0.14604(19) 0.64745(10)
O3 O 0.9929(3) 0.46033(16) 0.29497(8)
O4 O 0.9820(3) 0.31927(16) 0.28823(8)
O10 O 0.7328(3) 0.93602(17) 0.76031(11)
Co1 Co 0.56839(5) 0.99974(3) 0.733530(16)
O12 O 0.4820(3) 0.18073(16) 0.78823(8)
O14 O 0.7191(3) 0.27751(16) 0.78021(8)
H37 H 0.760231 0.893472 0.736374
H38 H 0.806224 0.976712 0.766703
C1_2 C 0.2576(4) 0.2768(3) 0.14223(13)
C2_2 C 0.2916(4) 0.2354(3) 0.09544(13)
C3_2 C 0.3152(4) 0.2836(2) 0.05469(13)
H1_2 H 0.3116 0.3422 0.0562
C4_2 C 0.3441(4) 0.2441(2) 0.01193(12)
C5_2 C 0.3526(4) 0.1561(2) 0.01003(12)
C6_2 C 0.3289(4) 0.1067(3) 0.05045(13)
H2_2 H 0.3341 0.0481 0.0491
C7_2 C 0.2974(4) 0.1476(3) 0.09298(13)
H3_2 H 0.2798 0.1157 0.1201
H36_2 H 0.0149 0.1061 0.2900
O1_2 O 0.2005(3) 0.23247(17) 0.17301(9)
O2_2 O 0.2865(3) 0.35396(19) 0.14745(10)
O15 O 0.1952(2) 0.39359(14) 0.22900(8)
C8_2 C 0.3693(4) 0.2833(2) 0.96249(13)
C9_2 C 0.3996(4) 0.2045(2) 0.93332(12)
C10_2 C 0.4305(4) 0.1989(2) 0.88516(12)
H4_2 H 0.4394 0.2476 0.8668
C11_2 C 0.4481(4) 0.1196(2) 0.86447(12)
C12_2 C 0.4363(4) 0.0471(2) 0.89239(12)
C13_2 C 0.4060(4) 0.0522(2) 0.94077(13)
H6_2 H 0.3988 0.0036 0.9593
C14_2 C 0.3868(4) 0.1312(2) 0.96089(12)
C15_2 C 0.2420(5) 0.3254(3) 0.94144(15)
H7_2 H 0.2230 0.3750 0.9598
H8_2 H 0.2545 0.3410 0.9085
H9_2 H 0.1694 0.2865 0.9429
C16_2 C 0.4829(5) 0.3472(3) 0.96500(16)
H10_2 H 0.4576 0.3953 0.9836
H11_2 H 0.5601 0.3214 0.9800
H12_2 H 0.5024 0.3650 0.9330
C17_2 C 0.4775(4) 0.1135(2) 0.81179(12)
H24_2 H 0.0086 0.1481 0.0320
H27_2 H 0.0236 0.6732 0.2905
O10_2 O 0.2328(3) 0.56398(17) 0.26031(11)
H37_2 H 0.260231 0.606528 0.236374
H38_2 H 0.306224 0.523288 0.266703
H5_2 H 0.4489 0.9944 0.8785
H23_2 H 0.0652 0.1984 0.9887
C41_2 C 0.8194(4) 0.0679(3) 0.20564(17)
H34_2 H 0.7544 0.0383 0.1880
C42_2 C 0.8775(4) 0.1402(3) 0.19286(15)
H35_2 H 0.8583 0.1696 0.1644
C43_2 C 0.9635(4) 0.1060(2) 0.26145(14)
N1_2 N 0.9702(3) 0.16475(19) 0.22809(11)
N2_2 N 0.8745(3) 0.0462(2) 0.24975(13)
O13 O 0.9558(3) 0.32630(16) 0.17691(9)
C18_2 C 0.9590(4) 0.3929(2) 0.15270(12)
C19_2 C 0.9227(4) 0.3867(2) 0.09991(12)
C20_2 C 0.9130(4) 0.3073(2) 0.07795(13)
H13_2 H 0.9270 0.2586 0.0962
C21_2 C 0.8829(4) 0.3011(2) 0.02922(13)
C22_2 C 0.8616(4) 0.3751(2) 0.00197(12)
C23_2 C 0.8685(5) 0.4543(3) 0.02355(14)
H14_2 H 0.8523 0.5030 0.0055
C24_2 C 0.9001(4) 0.4591(3) 0.07247(13)
H15_2 H 0.9064 0.5118 0.0872
C33_2 C 0.7465(5) 0.1700(3) 0.01216(15)
H20_2 H 0.7590 0.1526 0.0452
H21_2 H 0.6675 0.2035 0.0086
C35_2 C 0.8776(5) 0.6410(3) 0.19456(16)
H25_2 H 0.8551 0.6118 0.1663
C36_2 C 0.8263(5) 0.7152(3) 0.2073(2)
H26_2 H 0.7629 0.7466 0.1900
C37_2 C 0.9700(4) 0.6740(3) 0.26246(15)
C38_2 C 0.8578(5) 0.8119(3) 0.27891(19)
H28_2 H 0.7649 0.8125 0.2864
H29_2 H 0.9095 0.8103 0.3091
C39_2 C 0.8906(5) 0.8916(3) 0.25187(19)
H30_2 H 0.8486 0.8894 0.2199
H31_2 H 0.9856 0.8947 0.2483
C40_2 C 0.8450(5) 0.9696(3) 0.27734(18)
H32_2 H 0.8889 0.9729 0.3090
H33_2 H 0.7503 0.9661 0.2817
N3_2 N 0.8856(4) 0.7359(2) 0.25089(14)
N4_2 N 0.9687(3) 0.61413(19) 0.22957(11)
O6_2 O 0.9882(3) 0.46543(16) 0.16931(8)
C25_2 C 0.8667(4) 0.2229(2) 0.99745(13)
C26_2 C 0.8419(4) 0.2633(2) 0.94804(12)
C27_2 C 0.8223(4) 0.2253(2) 0.90309(13)
H16_2 H 0.8261 0.1668 0.9003
C28_2 C 0.7970(4) 0.2749(2) 0.86232(12)
C29_2 C 0.7892(4) 0.3624(2) 0.86654(13)
H17_2 H 0.7697 0.3950 0.8393
C30_2 C 0.8103(4) 0.4017(3) 0.91086(13)
H18_2 H 0.8075 0.4602 0.9135
C31_2 C 0.8358(4) 0.3511(2) 0.95133(13)
C32_2 C 0.7748(4) 0.2339(2) 0.81371(13)
H19_2 H 0.7383 0.1211 0.9918
C34_2 C 0.9909(5) 0.1667(3) 0.99948(15)
H22_2 H 0.9765 0.1185 0.9789
O8_2 O 0.8105(3) 0.15855(18) 0.80877(9)
C25_3 C 0.1333(4) 0.7771(2) 0.00255(13)
C26_3 C 0.1581(4) 0.7367(2) 0.05196(12)
C27_3 C 0.1777(4) 0.7747(2) 0.09691(13)
H16_3 H 0.1739 0.8332 0.0997
C28_3 C 0.2030(4) 0.7251(2) 0.13768(12)
C29_3 C 0.2108(4) 0.6376(2) 0.13346(13)
H17_3 H 0.2303 0.6050 0.1607
C30_3 C 0.1897(4) 0.5983(3) 0.08914(13)
H18_3 H 0.1925 0.5398 0.0865
C31_3 C 0.1642(4) 0.6489(2) 0.04867(13)
C32_3 C 0.2252(4) 0.7661(2) 0.18629(13)
H19_3 H 0.2617 0.8789 0.0082
C34_3 C 0.0091(5) 0.8333(3) 0.00052(15)
H22_3 H 0.0235 0.8815 0.0211
O7_2 O 0.2809(3) 0.72249(16) 0.21979(8)
O8_3 O 0.1895(3) 0.84145(18) 0.19123(9)
Co5 Co 0.41639(5) 0.77585(3) 0.271137(15)
C18_3 C 0.0410(4) 0.6071(2) 0.84730(12)
C19_3 C 0.0773(4) 0.6133(2) 0.90009(12)
C20_3 C 0.0870(4) 0.6927(2) 0.92205(13)
H13_3 H 0.0730 0.7414 0.9038
C21_3 C 0.1171(4) 0.6989(2) 0.97078(13)
C22_3 C 0.1384(4) 0.6249(2) 0.99803(12)
C23_3 C 0.1315(5) 0.5457(3) 0.97645(14)
H14_3 H 0.1477 0.4970 0.9945
C24_3 C 0.0999(4) 0.5409(3) 0.92753(13)
H15_3 H 0.0936 0.4882 0.9128
C33_3 C 0.2535(5) 0.8300(3) 0.98784(15)
H20_3 H 0.2410 0.8474 0.9548
H21_3 H 0.3325 0.7965 0.9914
C35_3 C 0.1224(5) 0.3590(3) 0.80544(16)
H25_3 H 0.1449 0.3882 0.8337
C36_3 C 0.1737(5) 0.2848(3) 0.7927(2)
H26_3 H 0.2371 0.2534 0.8100
C37_3 C 0.0300(4) 0.3260(3) 0.73754(15)
C38_3 C 0.1422(5) 0.1881(3) 0.72109(19)
H28_3 H 0.2351 0.1875 0.7136
H29_3 H 0.0905 0.1897 0.6909
C39_3 C 0.1094(5) 0.1084(3) 0.74813(19)
H30_3 H 0.1514 0.1106 0.7801
H31_3 H 0.0144 0.1053 0.7517
C40_3 C 0.1550(5) 0.0304(3) 0.72266(18)
H32_3 H 0.1111 0.0271 0.6910
H33_3 H 0.2497 0.0339 0.7183
N3_3 N 0.1144(4) 0.2641(2) 0.74911(14)
N4_3 N 0.0313(3) 0.38587(19) 0.77043(11)
O5_2 O 0.0442(3) 0.67370(16) 0.82309(9)
O6_3 O 0.0118(3) 0.53457(16) 0.83069(8)
O11_2 O 0.0071(3) 0.53967(16) 0.70503(8)
C41_3 C 0.1806(4) 0.9321(3) 0.79436(17)
H34_3 H 0.2456 0.9617 0.8120
C42_3 C 0.1225(4) 0.8598(3) 0.80714(15)
H35_3 H 0.1417 0.8304 0.8356
C43_3 C 0.0365(4) 0.8940(2) 0.73855(14)
N1_3 N 0.0298(3) 0.83525(19) 0.77191(11)
N2_3 N 0.1255(3) 0.9538(2) 0.75025(13)
O12_2 O 0.0180(3) 0.68073(16) 0.71177(8)
H5_3 H 0.5511 0.0056 0.1215
H23_3 H 0.9348 0.8016 0.0113
Co3_2 Co 0.43161(5) 0.00026(3) 0.266470(16)
H24_3 H 0.9914 0.8519 0.9680
H27_3 H 0.9764 0.3268 0.7095
O9_2 O 0.8048(2) 0.60641(14) 0.77100(8)
O10_3 O 0.7672(3) 0.43602(17) 0.73969(11)
Co1_2 Co 0.93161(5) 0.49974(3) 0.766470(16)
Co4_2 Co 0.91639(5) 0.72415(3) 0.771137(15)
H37_3 H 0.739769 0.393472 0.763626
H38_3 H 0.693776 0.476712 0.733297
C8_3 C 0.6307(4) 0.7167(2) 0.03751(13)
C9_3 C 0.6004(4) 0.7955(2) 0.06668(12)
C10_3 C 0.5695(4) 0.8011(2) 0.11484(12)
H4_3 H 0.5606 0.7524 0.1332
C11_3 C 0.5519(4) 0.8804(2) 0.13553(12)
C12_3 C 0.5637(4) 0.9529(2) 0.10761(12)
C13_3 C 0.5940(4) 0.9478(2) 0.05923(13)
H6_3 H 0.6012 0.9964 0.0407
C14_3 C 0.6132(4) 0.8688(2) 0.03911(12)
C15_3 C 0.7580(5) 0.6746(3) 0.05856(15)
H7_3 H 0.7770 0.6250 0.0402
H8_3 H 0.7455 0.6590 0.0915
H9_3 H 0.8306 0.7135 0.0571
C16_3 C 0.5171(5) 0.6528(3) 0.03500(16)
H10_3 H 0.5424 0.6047 0.0164
H11_3 H 0.4399 0.6786 0.0200
H12_3 H 0.4976 0.6350 0.0670
C17_3 C 0.5225(4) 0.8865(2) 0.18821(12)
O3_2 O 0.5071(3) 0.96033(16) 0.20503(8)
O4_2 O 0.5180(3) 0.81927(16) 0.21177(8)
C1_3 C 0.7424(4) 0.7232(3) 0.85777(13)
C2_3 C 0.7084(4) 0.7646(3) 0.90456(13)
C3_3 C 0.6848(4) 0.7164(2) 0.94531(13)
H1_3 H 0.6884 0.6578 0.9438
C4_3 C 0.6559(4) 0.7559(2) 0.98807(12)
C5_3 C 0.6474(4) 0.8439(2) 0.98997(12)
C6_3 C 0.6711(4) 0.8933(3) 0.94955(13)
H2_3 H 0.6659 0.9519 0.9509
C7_3 C 0.7026(4) 0.8524(3) 0.90702(13)
H3_3 H 0.7202 0.8843 0.8799
H36_3 H 0.9851 0.8939 0.7100
O1_3 O 0.7995(3) 0.76753(17) 0.82699(9)
O2_3 O 0.7135(3) 0.64604(19) 0.85255(10)
O14_2 O 0.7809(3) 0.77751(16) 0.71979(8)
C1_4 C 0.2424(4) 0.7768(3) 0.35777(13)
C2_4 C 0.2084(4) 0.7354(3) 0.40456(13)
C3_4 C 0.1848(4) 0.7836(2) 0.44531(13)
H1_4 H 0.1884 0.8422 0.4438
C4_4 C 0.1559(4) 0.7441(2) 0.48807(12)
C5_4 C 0.1474(4) 0.6561(2) 0.48997(12)
C6_4 C 0.1711(4) 0.6067(3) 0.44955(13)
H2_4 H 0.1659 0.5481 0.4509
C7_4 C 0.2026(4) 0.6476(3) 0.40702(13)
H3_4 H 0.2202 0.6157 0.3799
C8_4 C 0.1307(4) 0.7833(2) 0.53751(13)
C9_4 C 0.1004(4) 0.7045(2) 0.56668(12)
C10_4 C 0.0695(4) 0.6989(2) 0.61484(12)
H4_4 H 0.0606 0.7476 0.6332
C11_4 C 0.0519(4) 0.6196(2) 0.63553(12)
C12_4 C 0.0637(4) 0.5471(2) 0.60761(12)
H5_4 H 0.0511 0.4944 0.6215
C13_4 C 0.0940(4) 0.5522(2) 0.55923(13)
H6_4 H 0.1012 0.5036 0.5407
C14_4 C 0.1132(4) 0.6312(2) 0.53911(12)
C15_4 C 0.2580(5) 0.8254(3) 0.55856(15)
H7_4 H 0.2770 0.8750 0.5402
H8_4 H 0.2455 0.8410 0.5915
H9_4 H 0.3306 0.7865 0.5571
C16_4 C 0.0171(5) 0.8472(3) 0.53500(16)
H10_4 H 0.0424 0.8953 0.5164
C17_4 C 0.0225(4) 0.6135(2) 0.68821(12)
H14_4 H 0.6477 0.0030 0.4945
H15_4 H 0.5936 0.0118 0.4128
C35_4 C 0.6224(5) 0.1410(3) 0.30544(16)
H25_4 H 0.6449 0.1118 0.3337
C36_4 C 0.6737(5) 0.2152(3) 0.2927(2)
H26_4 H 0.7371 0.2466 0.3100
C37_4 C 0.5300(4) 0.1740(3) 0.23754(15)
H27_4 H 0.4764 0.1732 0.2095
C38_4 C 0.6422(5) 0.3119(3) 0.22109(19)
H28_4 H 0.7351 0.3125 0.2136
H29_4 H 0.5905 0.3103 0.1909
C39_4 C 0.6094(5) 0.3916(3) 0.24813(19)
H30_4 H 0.6514 0.3894 0.2801
H31_4 H 0.5144 0.3947 0.2517
C40_4 C 0.6550(5) 0.4696(3) 0.22266(18)
H32_4 H 0.6111 0.4729 0.1910
H33_4 H 0.7497 0.4661 0.2183
C41_4 C 0.6806(4) 0.5679(3) 0.29436(17)
H34_4 H 0.7456 0.5383 0.3120
C42_4 C 0.6225(4) 0.6402(3) 0.30714(15)
H35_4 H 0.6417 0.6696 0.3356
C43_4 C 0.5365(4) 0.6060(2) 0.23855(14)
H36_4 H 0.4851 0.6061 0.2100
N1_4 N 0.5298(3) 0.66475(19) 0.27191(11)
N2_4 N 0.6255(3) 0.5462(2) 0.25025(13)
N3_4 N 0.6144(4) 0.2359(2) 0.24911(14)
N4_4 N 0.5313(3) 0.11413(19) 0.27043(11)
O1_4 O 0.2995(3) 0.73247(17) 0.32699(9)
O2_4 O 0.2135(3) 0.85396(19) 0.35255(10)
O10_4 O 0.2672(3) 0.06398(17) 0.23969(11)
O13_2 O 0.5442(3) 0.82630(16) 0.32309(9)
O15_2 O 0.3048(2) 0.89359(14) 0.27100(8)
H37_4 H 0.239769 0.106528 0.263626
H38_4 H 0.193776 0.023288 0.233297
C18_4 C 0.5410(4) 0.8929(2) 0.34730(12)
C19_4 C 0.5773(4) 0.8867(2) 0.40009(12)
C20_4 C 0.5870(4) 0.8073(2) 0.42205(13)
H13_4 H 0.5730 0.7586 0.4038
C21_4 C 0.6171(4) 0.8011(2) 0.47078(13)
C22_4 C 0.6384(4) 0.8751(2) 0.49803(12)
C23_4 C 0.6315(5) 0.9543(3) 0.47645(14)
C24_4 C 0.5999(4) 0.9591(3) 0.42753(13)
C25_4 C 0.6333(4) 0.7229(2) 0.50255(13)
C26_4 C 0.6581(4) 0.7633(2) 0.55196(12)
C27_4 C 0.6777(4) 0.7253(2) 0.59691(13)
H16_4 H 0.6739 0.6668 0.5997
C28_4 C 0.7030(4) 0.7749(2) 0.63768(12)
C29_4 C 0.7108(4) 0.8624(2) 0.63346(13)
H17_4 H 0.7303 0.8950 0.6607
C30_4 C 0.6897(4) 0.9017(3) 0.58914(13)
H18_4 H 0.6925 0.9602 0.5865
C31_4 C 0.6642(4) 0.8511(2) 0.54867(13)
C32_4 C 0.7252(4) 0.7339(2) 0.68629(13)
C33_4 C 0.7535(5) 0.6700(3) 0.48784(15)
H19_4 H 0.7617 0.6211 0.5082
H20_4 H 0.7410 0.6526 0.4548
H21_4 H 0.8325 0.7035 0.4914
C34_4 C 0.5091(5) 0.6667(3) 0.50052(15)
H22_4 H 0.5235 0.6185 0.5211
H23_4 H 0.4348 0.6984 0.5113
H24_4 H 0.4914 0.6481 0.4680
O6_4 O 0.5118(3) 0.96543(16) 0.33069(8)
O8_4 O 0.6895(3) 0.65855(18) 0.69123(9)
H11_4 H 0.9399 0.8214 0.5200
H12_4 H 0.9976 0.8650 0.5670
loop_
_geom_bond_atom_site_label_1
_geom_bond_atom_site_label_2
_geom_bond_site_symmetry_1
_geom_bond_site_symmetry_2
C18 C19 1_555 1_555
C19 C20 1_555 1_555
C20 H13 1_555 1_555
C21 C20 1_555 1_555
C22 C21 1_555 1_555
C23 C22 1_555 1_555
C24 C19 1_555 1_555
C25 C21 1_555 1_555
C26 C25 1_555 1_555
C27 C26 1_555 1_555
H16 C27 1_555 1_555
C28 C27 1_555 1_555
C29 C28 1_555 1_555
H17 C29 1_555 1_555
C30 C29 1_555 1_555
H18 C30 1_555 1_555
C31 C22 1_555 1_555
C32 C28 1_555 1_555
C33 C25 1_555 1_555
H19 C33 1_555 1_555
H20 C33 1_555 1_555
H21 C33 1_555 1_555
C34 C25 1_555 1_555
H22 C34 1_555 1_555
H23 C34 1_555 1_555
H24 C34 1_555 1_555
O5 C18 1_555 1_555
O6 C18 1_555 1_555
O7 C32 1_555 1_555
O8 C32 1_555 1_555
Co4 O5 1_555 1_555
Co6 O7 1_555 1_555
C23 C24 1_555 1_555
C26 C31 1_555 1_555
C30 C31 1_555 1_555
O9 Co4 1_555 1_555
C1 C2 1_555 1_555
C2 C3 1_555 1_555
C3 H1 1_555 1_555
C4 C3 1_555 1_555
C5 C4 1_555 1_555
C6 C5 1_555 1_555
H2 C6 1_555 1_555
C7 C2 1_555 1_555
H3 C7 1_555 1_555
C8 C4 1_555 1_555
C9 C8 1_555 1_555
C10 C9 1_555 1_555
H4 C10 1_555 1_555
C11 C10 1_555 1_555
C12 C11 1_555 1_555
H5 C12 1_555 1_555
C13 C12 1_555 1_555
H6 C13 1_555 1_555
C14 C5 1_555 1_555
C15 C8 1_555 1_555
H7 C15 1_555 1_555
H8 C15 1_555 1_555
H9 C15 1_555 1_555
C16 C8 1_555 1_555
H10 C16 1_555 1_555
C17 C11 1_555 1_555
C35 H25 1_555 1_555
C36 C35 1_555 1_555
H26 C36 1_555 1_555
C37 H27 1_555 1_555
C38 H28 1_555 1_555
H29 C38 1_555 1_555
C39 C38 1_555 1_555
H30 C39 1_555 1_555
H31 C39 1_555 1_555
C40 C39 1_555 1_555
H32 C40 1_555 1_555
H33 C40 1_555 1_555
C41 H34 1_555 1_555
C42 C41 1_555 1_555
H35 C42 1_555 1_555
C43 H36 1_555 1_555
N1 C42 1_555 1_555
N2 C40 1_555 1_555
N3 C36 1_555 1_555
N4 C35 1_555 1_555
O1 C1 1_555 1_555
O2 C1 1_555 1_555
O3 C17 1_555 1_555
O4 C17 1_555 1_555
O10 Co1 1_555 1_555
Co1 N4 1_555 1_555
Co4 N1 1_555 1_555
O12 Co4 1_555 1_555
O14 Co4 1_555 1_555
C6 C7 1_555 1_555
C9 C14 1_555 1_555
C13 C14 1_555 1_555
C37 N3 1_555 1_555
C37 N4 1_555 1_555
C38 N3 1_555 1_555
C41 N2 1_555 1_555
C43 N1 1_555 1_555
C43 N2 1_555 1_555
O1 Co4 1_555 1_555
O10 H37 1_555 1_555
O10 H38 1_555 1_555
C1_2 C2_2 1_555 1_555
C2_2 C3_2 1_555 1_555
C3_2 H1_2 1_555 1_555
C4_2 C3_2 1_555 1_555
C5_2 C4_2 1_555 1_555
C6_2 C5_2 1_555 1_555
H2_2 C6_2 1_555 1_555
C7_2 C2_2 1_555 1_555
H3_2 C7_2 1_555 1_555
O1_2 C1_2 1_555 1_555
O2_2 C1_2 1_555 1_555
O15 Co6 1_555 1_555
C6_2 C7_2 1_555 1_555
O1_2 Co6 1_555 1_555
C9_2 C8_2 1_555 1_555
C10_2 C9_2 1_555 1_555
H4_2 C10_2 1_555 1_555
C11_2 C10_2 1_555 1_555
C12_2 C11_2 1_555 1_555
C13_2 C12_2 1_555 1_555
H6_2 C13_2 1_555 1_555
C15_2 C8_2 1_555 1_555
H7_2 C15_2 1_555 1_555
H8_2 C15_2 1_555 1_555
H9_2 C15_2 1_555 1_555
C16_2 C8_2 1_555 1_555
H10_2 C16_2 1_555 1_555
H11_2 C16_2 1_555 1_555
H12_2 C16_2 1_555 1_555
C17_2 C11_2 1_555 1_555
O11 C17_2 1_555 1_555
O12 C17_2 1_555 1_555
C9_2 C14_2 1_555 1_555
C13_2 C14_2 1_555 1_555
O15 Co3 1_555 1_555
O10_2 Co3 1_555 1_555
O10_2 H37_2 1_555 1_555
O10_2 H38_2 1_555 1_555
C41_2 H34_2 1_555 1_555
C42_2 C41_2 1_555 1_555
H35_2 C42_2 1_555 1_555
N1_2 C42_2 1_555 1_555
C41_2 N2_2 1_555 1_555
C43_2 N1_2 1_555 1_555
C43_2 N2_2 1_555 1_555
C18_2 C19_2 1_555 1_555
C19_2 C20_2 1_555 1_555
C20_2 H13_2 1_555 1_555
C21_2 C20_2 1_555 1_555
C22_2 C21_2 1_555 1_555
C23_2 C22_2 1_555 1_555
H14_2 C23_2 1_555 1_555
C24_2 C19_2 1_555 1_555
H15_2 C24_2 1_555 1_555
H20_2 C33_2 1_555 1_555
H21_2 C33_2 1_555 1_555
C35_2 H25_2 1_555 1_555
C36_2 C35_2 1_555 1_555
H26_2 C36_2 1_555 1_555
C38_2 H28_2 1_555 1_555
H29_2 C38_2 1_555 1_555
C39_2 C38_2 1_555 1_555
H30_2 C39_2 1_555 1_555
H31_2 C39_2 1_555 1_555
C40_2 C39_2 1_555 1_555
H32_2 C40_2 1_555 1_555
H33_2 C40_2 1_555 1_555
N3_2 C36_2 1_555 1_555
N4_2 C35_2 1_555 1_555
O13 C18_2 1_555 1_555
O6_2 C18_2 1_555 1_555
C23_2 C24_2 1_555 1_555
C37_2 N3_2 1_555 1_555
C37_2 N4_2 1_555 1_555
C38_2 N3_2 1_555 1_555
C26_2 C25_2 1_555 1_555
C27_2 C26_2 1_555 1_555
H16_2 C27_2 1_555 1_555
C28_2 C27_2 1_555 1_555
C29_2 C28_2 1_555 1_555
H17_2 C29_2 1_555 1_555
C30_2 C29_2 1_555 1_555
H18_2 C30_2 1_555 1_555
C32_2 C28_2 1_555 1_555
C34_2 C25_2 1_555 1_555
H22_2 C34_2 1_555 1_555
O14 C32_2 1_555 1_555
O8_2 C32_2 1_555 1_555
C26_2 C31_2 1_555 1_555
C30_2 C31_2 1_555 1_555
C26_3 C25_3 1_555 1_555
C27_3 C26_3 1_555 1_555
H16_3 C27_3 1_555 1_555
C28_3 C27_3 1_555 1_555
C29_3 C28_3 1_555 1_555
H17_3 C29_3 1_555 1_555
C30_3 C29_3 1_555 1_555
H18_3 C30_3 1_555 1_555
C32_3 C28_3 1_555 1_555
C34_3 C25_3 1_555 1_555
H22_3 C34_3 1_555 1_555
O7_2 C32_3 1_555 1_555
O8_3 C32_3 1_555 1_555
Co5 O7_2 1_555 1_555
C26_3 C31_3 1_555 1_555
C30_3 C31_3 1_555 1_555
C18_3 C19_3 1_555 1_555
C19_3 C20_3 1_555 1_555
C20_3 H13_3 1_555 1_555
C21_3 C20_3 1_555 1_555
C22_3 C21_3 1_555 1_555
C23_3 C22_3 1_555 1_555
H14_3 C23_3 1_555 1_555
C24_3 C19_3 1_555 1_555
H15_3 C24_3 1_555 1_555
H20_3 C33_3 1_555 1_555
H21_3 C33_3 1_555 1_555
C35_3 H25_3 1_555 1_555
C36_3 C35_3 1_555 1_555
H26_3 C36_3 1_555 1_555
C38_3 H28_3 1_555 1_555
H29_3 C38_3 1_555 1_555
C39_3 C38_3 1_555 1_555
H30_3 C39_3 1_555 1_555
H31_3 C39_3 1_555 1_555
C40_3 C39_3 1_555 1_555
H32_3 C40_3 1_555 1_555
H33_3 C40_3 1_555 1_555
N3_3 C36_3 1_555 1_555
N4_3 C35_3 1_555 1_555
O5_2 C18_3 1_555 1_555
O6_3 C18_3 1_555 1_555
C23_3 C24_3 1_555 1_555
C37_3 N3_3 1_555 1_555
C37_3 N4_3 1_555 1_555
C38_3 N3_3 1_555 1_555
C41_3 H34_3 1_555 1_555
C42_3 C41_3 1_555 1_555
H35_3 C42_3 1_555 1_555
N1_3 C42_3 1_555 1_555
C41_3 N2_3 1_555 1_555
C43_3 N1_3 1_555 1_555
C43_3 N2_3 1_555 1_555
O9_2 Co1_2 1_555 1_555
O10_3 Co1_2 1_555 1_555
O9_2 Co4_2 1_555 1_555
O10_3 H37_3 1_555 1_555
O10_3 H38_3 1_555 1_555
C9_3 C8_3 1_555 1_555
C10_3 C9_3 1_555 1_555
H4_3 C10_3 1_555 1_555
C11_3 C10_3 1_555 1_555
C12_3 C11_3 1_555 1_555
C13_3 C12_3 1_555 1_555
H6_3 C13_3 1_555 1_555
C15_3 C8_3 1_555 1_555
H7_3 C15_3 1_555 1_555
H8_3 C15_3 1_555 1_555
H9_3 C15_3 1_555 1_555
C16_3 C8_3 1_555 1_555
H10_3 C16_3 1_555 1_555
H11_3 C16_3 1_555 1_555
H12_3 C16_3 1_555 1_555
C17_3 C11_3 1_555 1_555
O3_2 C17_3 1_555 1_555
O4_2 C17_3 1_555 1_555
Co5 O4_2 1_555 1_555
C9_3 C14_3 1_555 1_555
C13_3 C14_3 1_555 1_555
C1_3 C2_3 1_555 1_555
C2_3 C3_3 1_555 1_555
C3_3 H1_3 1_555 1_555
C4_3 C3_3 1_555 1_555
C5_3 C4_3 1_555 1_555
C6_3 C5_3 1_555 1_555
H2_3 C6_3 1_555 1_555
C7_3 C2_3 1_555 1_555
H3_3 C7_3 1_555 1_555
O1_3 C1_3 1_555 1_555
O2_3 C1_3 1_555 1_555
O14_2 Co4_2 1_555 1_555
C6_3 C7_3 1_555 1_555
O1_3 Co4_2 1_555 1_555
C1_4 C2_4 1_555 1_555
C2_4 C3_4 1_555 1_555
C3_4 H1_4 1_555 1_555
C4_4 C3_4 1_555 1_555
C5_4 C4_4 1_555 1_555
C6_4 C5_4 1_555 1_555
H2_4 C6_4 1_555 1_555
C7_4 C2_4 1_555 1_555
H3_4 C7_4 1_555 1_555
C8_4 C4_4 1_555 1_555
C9_4 C8_4 1_555 1_555
C10_4 C9_4 1_555 1_555
H4_4 C10_4 1_555 1_555
C11_4 C10_4 1_555 1_555
C12_4 C11_4 1_555 1_555
H5_4 C12_4 1_555 1_555
C13_4 C12_4 1_555 1_555
H6_4 C13_4 1_555 1_555
C14_4 C5_4 1_555 1_555
C15_4 C8_4 1_555 1_555
H7_4 C15_4 1_555 1_555
H8_4 C15_4 1_555 1_555
H9_4 C15_4 1_555 1_555
C16_4 C8_4 1_555 1_555
H10_4 C16_4 1_555 1_555
C17_4 C11_4 1_555 1_555
C35_4 H25_4 1_555 1_555
C36_4 C35_4 1_555 1_555
H26_4 C36_4 1_555 1_555
C37_4 H27_4 1_555 1_555
C38_4 H28_4 1_555 1_555
H29_4 C38_4 1_555 1_555
C39_4 C38_4 1_555 1_555
H30_4 C39_4 1_555 1_555
H31_4 C39_4 1_555 1_555
C40_4 C39_4 1_555 1_555
H32_4 C40_4 1_555 1_555
H33_4 C40_4 1_555 1_555
C41_4 H34_4 1_555 1_555
C42_4 C41_4 1_555 1_555
H35_4 C42_4 1_555 1_555
C43_4 H36_4 1_555 1_555
N1_4 C42_4 1_555 1_555
N2_4 C40_4 1_555 1_555
N3_4 C36_4 1_555 1_555
N4_4 C35_4 1_555 1_555
O1_4 C1_4 1_555 1_555
O2_4 C1_4 1_555 1_555
O11_2 C17_4 1_555 1_555
O12_2 C17_4 1_555 1_555
O10_4 Co3_2 1_555 1_555
Co3_2 N4_4 1_555 1_555
Co5 N1_4 1_555 1_555
O13_2 Co5 1_555 1_555
O15_2 Co5 1_555 1_555
C6_4 C7_4 1_555 1_555
C9_4 C14_4 1_555 1_555
C13_4 C14_4 1_555 1_555
C37_4 N3_4 1_555 1_555
C37_4 N4_4 1_555 1_555
C38_4 N3_4 1_555 1_555
C41_4 N2_4 1_555 1_555
C43_4 N1_4 1_555 1_555
C43_4 N2_4 1_555 1_555
O1_4 Co5 1_555 1_555
O10_4 H37_4 1_555 1_555
O10_4 H38_4 1_555 1_555
C18_4 C19_4 1_555 1_555
C19_4 C20_4 1_555 1_555
C20_4 H13_4 1_555 1_555
C21_4 C20_4 1_555 1_555
C22_4 C21_4 1_555 1_555
C23_4 C22_4 1_555 1_555
C24_4 C19_4 1_555 1_555
C25_4 C21_4 1_555 1_555
C26_4 C25_4 1_555 1_555
C27_4 C26_4 1_555 1_555
H16_4 C27_4 1_555 1_555
C28_4 C27_4 1_555 1_555
C29_4 C28_4 1_555 1_555
H17_4 C29_4 1_555 1_555
C30_4 C29_4 1_555 1_555
H18_4 C30_4 1_555 1_555
C31_4 C22_4 1_555 1_555
C32_4 C28_4 1_555 1_555
C33_4 C25_4 1_555 1_555
H19_4 C33_4 1_555 1_555
H20_4 C33_4 1_555 1_555
H21_4 C33_4 1_555 1_555
C34_4 C25_4 1_555 1_555
H22_4 C34_4 1_555 1_555
H23_4 C34_4 1_555 1_555
H24_4 C34_4 1_555 1_555
O13_2 C18_4 1_555 1_555
O6_4 C18_4 1_555 1_555
O14_2 C32_4 1_555 1_555
O8_4 C32_4 1_555 1_555
C23_4 C24_4 1_555 1_555
C26_4 C31_4 1_555 1_555
C30_4 C31_4 1_555 1_555

#END
