
###############################################################################
#
# This file contains modified crystal structure data generated from the
# MOF subset of the Cambridge Structural Database (CSD) v543 
# hosted by the Cambridge Crystallographic Data Centre (CCDC).
#
# This work is licensed under the Creative Commons
# Attribution-NonCommercial-ShareAlike 4.0 International License.
# To view a copy of this license, visit
# http://creativecommons.org/licenses/by-nc-sa/4.0/
# or send a letter to
# Creative Commons, PO Box 1866, Mountain View, CA 94042, USA.
#
# CIF created using the CSD Python API on 29 September 2022
# The structure has been converted into the P1 space group
# The structure has a 3D framework
# The original CSD entry XOPMIA is in the triclinic crystal system
# The framework has been calculated to contain at least 10.0% void space
# The void calculation uses a probe of radius 1.32A, grid spacing 0.4
#
###############################################################################

data_XOPMIA
_chemical_formula_moiety         '(C104 H72 Cd4 N16 O20)n'
_symmetry_cell_setting           triclinic
_symmetry_space_group_name_H-M   'P 1'
_symmetry_Int_Tables_number      1
_space_group_name_Hall           'P 1'
loop_
_symmetry_equiv_pos_site_id
_symmetry_equiv_pos_as_xyz
1 x,y,z
_cell_length_a                   9.0720(18)
_cell_length_b                   13.140(3)
_cell_length_c                   30.700(6)
_cell_angle_alpha                92.72(3)
_cell_angle_beta                 90.20(3)
_cell_angle_gamma                90.01(3)
_cell_volume                     3655.48
loop_
_atom_site_label
_atom_site_type_symbol
_atom_site_fract_x
_atom_site_fract_y
_atom_site_fract_z
N2 N 0.0613(9) 0.1058(6) 0.4562(3)
N3 N 0.1604(9) 0.0297(6) 0.4682(3)
H15 H 0.0076 0.5661 0.1277
H16 H 0.0056 0.6443 0.1976
C34 C 0.0529(11) 0.1776(7) 0.4863(3)
H21 H 0.1073 0.1726 0.5126
Cd7 Cd 0.13557(7) 0.42152(4) 0.036956(17)
O14 O 0.0529(7) 0.4593(5) 0.9541(2)
N10 N 0.0387(9) 0.7088(6) 0.9560(2)
N4 N 0.4612(9) 0.7098(5) 0.4556(2)
C35 C 0.1822(11) 0.9632(7) 0.4367(3)
H22 H 0.1353 0.9704 0.4093
C36 C 0.2797(11) 0.8764(7) 0.4434(3)
C37 C 0.3628(14) 0.8695(8) 0.4807(4)
H23 H 0.3590 0.9223 0.5029
C38 C 0.4515(12) 0.7857(8) 0.4859(3)
H24 H 0.5077 0.7818 0.5119
C39 C 0.3816(11) 0.7125(7) 0.4194(3)
H25 H 0.3848 0.6568 0.3985
C40 C 0.2919(11) 0.7979(7) 0.4118(3)
H26 H 0.2401 0.8016 0.3850
Cd3 Cd 0.63503(7) 0.57854(4) 0.462894(17)
O1 O 0.7113(7) 0.6584(5) 0.52646(18)
O2 O 0.5551(7) 0.5409(5) 0.5456(2)
O3 O 0.6373(9) 0.8094(5) 0.7231(2)
O4 O 0.8436(7) 0.5696(5) 0.88832(18)
O5 O 0.7028(7) 0.6902(5) 0.91999(19)
O6 O 0.6553(7) 0.5699(5) 0.38812(19)
O7 O 0.7960(7) 0.6904(5) 0.42009(18)
O8 O 0.8650(9) 0.8084(5) 0.2233(2)
O9 O 0.7874(7) 0.6581(5) 0.02650(18)
O10 O 0.9471(7) 0.5407(5) 0.0459(2)
N1 N 0.7871(9) 0.4393(5) 0.4707(2)
C1 C 0.6373(9) 0.6176(6) 0.5549(3)
C2 C 0.6426(9) 0.6611(6) 0.6007(3)
C3 C 0.7344(11) 0.7435(7) 0.6102(3)
H1 H 0.7951 0.7688 0.5880
C4 C 0.7386(12) 0.7896(7) 0.6521(3)
H2 H 0.8039 0.8447 0.6587
C5 C 0.6477(11) 0.7545(7) 0.6834(3)
C6 C 0.5549(11) 0.6709(7) 0.6751(3)
H3 H 0.4932 0.6468 0.6974
C7 C 0.5546(10) 0.6238(7) 0.6337(3)
H4 H 0.4942 0.5657 0.6278
C8 C 0.6624(11) 0.7609(7) 0.7615(3)
C9 C 0.7621(11) 0.6833(7) 0.7647(3)
H5 H 0.8101 0.6555 0.7394
C10 C 0.7924(10) 0.6459(7) 0.8053(3)
H6 H 0.8636 0.5934 0.8078
C11 C 0.7194(9) 0.6843(6) 0.8424(3)
C12 C 0.6147(10) 0.7606(7) 0.8378(3)
H7 H 0.5621 0.7859 0.8627
C13 C 0.5855(11) 0.8002(7) 0.7978(3)
H8 H 0.5149 0.8530 0.7951
C14 C 0.7559(10) 0.6460(6) 0.8863(3)
C15 C 0.7429(10) 0.6465(7) 0.3862(3)
C16 C 0.7804(9) 0.6850(7) 0.3424(2)
C17 C 0.7071(11) 0.6455(7) 0.3050(3)
H9 H 0.6357 0.5932 0.3075
C18 C 0.7384(11) 0.6825(7) 0.2646(3)
H10 H 0.6913 0.6545 0.2391
C19 C 0.8385(11) 0.7603(7) 0.2619(3)
C20 C 0.9167(11) 0.8002(7) 0.2981(3)
H11 H 0.9880 0.8525 0.2955
C21 C 0.8852(10) 0.7598(7) 0.3381(3)
H12 H 0.9376 0.7845 0.3633
C22 C 0.8550(12) 0.7533(7) 0.1838(3)
C23 C 0.7623(11) 0.7884(7) 0.1523(3)
H13 H 0.6961 0.8427 0.1592
C24 C 0.7661(11) 0.7437(7) 0.1103(3)
H14 H 0.7053 0.7694 0.0881
C25 C 0.8598(10) 0.6607(6) 0.1008(3)
C26 C 0.9465(11) 0.6238(7) 0.1337(3)
C27 C 0.9452(11) 0.6698(7) 0.1752(3)
C28 C 0.8673(9) 0.6173(6) 0.0548(3)
C29 C 0.8553(9) 0.4258(7) 0.5082(3)
H17 H 0.8438 0.4752 0.5315
C30 C 0.9443(10) 0.3399(7) 0.5142(3)
H18 H 0.9935 0.3316 0.5411
C31 C 0.9592(10) 0.2672(7) 0.4799(3)
C32 C 0.8855(11) 0.2822(7) 0.4409(3)
H19 H 0.8932 0.2338 0.4170
C33 C 0.8006(10) 0.3691(7) 0.4376(3)
H20 H 0.7501 0.3795 0.4110
C44 C 0.5590(10) 0.3395(7) 0.0143(3)
H29 H 0.5127 0.3305 0.0416
C45 C 0.6449(9) 0.4251(7) 0.0084(3)
H30 H 0.6557 0.4748 0.0317
H31 H 0.3920 0.1740 0.0127
Cd4 Cd 0.36497(7) 0.42146(4) 0.537106(17)
Cd6 Cd 0.86443(7) 0.57848(4) 0.963044(17)
O11 O 0.4449(7) 0.4591(5) 0.4544(2)
N5 N 0.7122(8) 0.4392(5) 0.9709(2)
N6 N 0.4367(9) 0.1060(6) 0.9566(3)
N7 N 0.3396(10) 0.0300(6) 0.9683(3)
C41 C 0.6975(10) 0.3697(7) 0.9380(3)
H27 H 0.7468 0.3804 0.9113
C42 C 0.6129(11) 0.2822(7) 0.9412(3)
H28 H 0.6045 0.2341 0.9173
C43 C 0.5411(10) 0.2667(6) 0.9801(3)
C46 C 0.4465(11) 0.1782(6) 0.9865(3)
C47 C 0.3168(11) 0.9625(7) 0.9370(3)
H32 H 0.3642 0.9688 0.9097
C48 C 0.2189(11) 0.8766(6) 0.9434(3)
C49 C 0.2076(12) 0.7974(7) 0.9120(3)
H33 H 0.2607 0.8000 0.8855
C50 C 0.1180(12) 0.7136(7) 0.9196(3)
H34 H 0.1133 0.6587 0.8984
C51 C 0.0474(13) 0.7860(8) 0.9857(3)
C52 C 0.1357(14) 0.8699(8) 0.9812(3)
N8 N 0.9613(9) 0.2912(6) 0.0440(2)
C47_2 C 0.6832(11) 0.0375(7) 0.0630(3)
H32_2 H 0.6358 0.0312 0.0903
C48_2 C 0.7811(11) 0.1234(6) 0.0566(3)
C49_2 C 0.7924(12) 0.2026(7) 0.0880(3)
H33_2 H 0.7393 0.2000 0.1145
C50_2 C 0.8820(12) 0.2864(7) 0.0804(3)
H34_2 H 0.8867 0.3413 0.1016
C51_2 C 0.9526(13) 0.2140(8) 0.0143(3)
C52_2 C 0.8643(14) 0.1301(8) 0.0188(3)
N5_2 N 0.2878(8) 0.5608(5) 0.0291(2)
N6_2 N 0.5633(9) 0.8940(6) 0.0434(3)
N7_2 N 0.6604(10) 0.9700(6) 0.0317(3)
C41_2 C 0.3025(10) 0.6303(7) 0.0620(3)
H27_2 H 0.2532 0.6196 0.0887
C42_2 C 0.3871(11) 0.7178(7) 0.0588(3)
H28_2 H 0.3955 0.7659 0.0827
C43_2 C 0.4589(10) 0.7333(6) 0.0199(3)
C46_2 C 0.5535(11) 0.8218(6) 0.0135(3)
O12 O 0.1564(7) 0.4304(5) 0.11168(18)
O13 O 0.2972(7) 0.3098(5) 0.08001(19)
O1_2 O 0.2887(7) 0.3416(5) 0.47354(18)
O3_2 O 0.3627(9) 0.1906(5) 0.2769(2)
O6_2 O 0.3447(7) 0.4301(5) 0.61188(19)
O7_2 O 0.2040(7) 0.3096(5) 0.57991(18)
O8_2 O 0.1350(9) 0.1916(5) 0.7767(2)
O9_2 O 0.2126(7) 0.3419(5) 0.97350(18)
N1_2 N 0.2129(9) 0.5607(5) 0.5293(2)
C1_2 C 0.3627(9) 0.3824(6) 0.4451(3)
C2_2 C 0.3574(9) 0.3389(6) 0.3993(3)
C3_2 C 0.2656(11) 0.2565(7) 0.3898(3)
H1_2 H 0.2049 0.2312 0.4120
C4_2 C 0.2614(12) 0.2104(7) 0.3479(3)
H2_2 H 0.1961 0.1553 0.3413
C5_2 C 0.3523(11) 0.2455(7) 0.3166(3)
C6_2 C 0.4451(11) 0.3291(7) 0.3249(3)
H3_2 H 0.5068 0.3532 0.3026
C7_2 C 0.4454(10) 0.3762(7) 0.3663(3)
H4_2 H 0.5058 0.4343 0.3722
C8_2 C 0.3376(11) 0.2391(7) 0.2385(3)
C9_2 C 0.2379(11) 0.3167(7) 0.2353(3)
H5_2 H 0.1899 0.3445 0.2606
C10_2 C 0.2076(10) 0.3541(7) 0.1947(3)
H6_2 H 0.1364 0.4066 0.1922
C11_2 C 0.2806(9) 0.3157(6) 0.1576(3)
C12_2 C 0.3853(10) 0.2394(7) 0.1622(3)
H7_2 H 0.4379 0.2141 0.1373
C13_2 C 0.4145(11) 0.1998(7) 0.2022(3)
H8_2 H 0.4851 0.1470 0.2049
C14_2 C 0.2441(10) 0.3540(6) 0.1137(3)
C15_2 C 0.2571(10) 0.3535(7) 0.6138(3)
C16_2 C 0.2196(9) 0.3150(7) 0.6576(2)
C17_2 C 0.2929(11) 0.3545(7) 0.6950(3)
H9_2 H 0.3643 0.4068 0.6925
C18_2 C 0.2616(11) 0.3175(7) 0.7354(3)
H10_2 H 0.3087 0.3455 0.7609
C19_2 C 0.1615(11) 0.2397(7) 0.7381(3)
C20_2 C 0.0833(11) 0.1998(7) 0.7019(3)
H11_2 H 0.0120 0.1475 0.7045
C21_2 C 0.1148(10) 0.2402(7) 0.6619(3)
H12_2 H 0.0624 0.2155 0.6367
C22_2 C 0.1450(12) 0.2467(7) 0.8162(3)
C23_2 C 0.2377(11) 0.2116(7) 0.8477(3)
H13_2 H 0.3039 0.1573 0.8408
C24_2 C 0.2339(11) 0.2563(7) 0.8897(3)
H14_2 H 0.2947 0.2306 0.9119
C25_2 C 0.1402(10) 0.3393(6) 0.8992(3)
C26_2 C 0.0535(11) 0.3762(7) 0.8663(3)
C27_2 C 0.0548(11) 0.3302(7) 0.8248(3)
C28_2 C 0.1327(9) 0.3827(6) 0.9452(3)
C29_2 C 0.1447(9) 0.5742(7) 0.4918(3)
H17_2 H 0.1562 0.5248 0.4685
C30_2 C 0.0557(10) 0.6601(7) 0.4858(3)
H18_2 H 0.0065 0.6684 0.4589
C31_2 C 0.0408(10) 0.7328(7) 0.5201(3)
C32_2 C 0.1145(11) 0.7178(7) 0.5591(3)
H19_2 H 0.1068 0.7662 0.5830
C33_2 C 0.1994(10) 0.6309(7) 0.5624(3)
H20_2 H 0.2499 0.6205 0.5890
C44_2 C 0.4410(10) 0.6605(7) 0.9857(3)
H29_2 H 0.4873 0.6695 0.9584
C45_2 C 0.3551(9) 0.5749(7) 0.9916(3)
H30_2 H 0.3443 0.5252 0.9683
H31_2 H 0.6080 0.8260 0.9873
N9 N 0.5388(9) 0.2902(5) 0.5444(2)
C35_2 C 0.8178(11) 0.0368(7) 0.5633(3)
H22_2 H 0.8647 0.0296 0.5907
C36_2 C 0.7203(11) 0.1236(7) 0.5566(3)
C37_2 C 0.6372(14) 0.1305(8) 0.5193(4)
H23_2 H 0.6410 0.0777 0.4971
C38_2 C 0.5485(12) 0.2143(8) 0.5141(3)
H24_2 H 0.4923 0.2182 0.4881
C39_2 C 0.6184(11) 0.2875(7) 0.5806(3)
H25_2 H 0.6152 0.3432 0.6015
C40_2 C 0.7081(11) 0.2021(7) 0.5882(3)
H26_2 H 0.7599 0.1984 0.6150
N2_2 N 0.9387(9) 0.8942(6) 0.5438(3)
N3_2 N 0.8396(9) 0.9703(6) 0.5318(3)
H15_2 H 0.9924 0.4339 0.8723
H16_2 H 0.9944 0.3557 0.8024
C34_2 C 0.9471(11) 0.8224(7) 0.5137(3)
H21_2 H 0.8927 0.8274 0.4874
H36 H 0.1399 0.9225 0.0035
H35 H 0.9896 0.7829 0.0113
H35_2 H 0.0104 0.2171 0.9887
H36_2 H 0.8601 0.0775 0.9965
loop_
_geom_bond_atom_site_label_1
_geom_bond_atom_site_label_2
_geom_bond_site_symmetry_1
_geom_bond_site_symmetry_2
N2 N3 1_555 1_555
C34 N2 1_555 1_555
H21 C34 1_555 1_555
N4 C38 1_555 1_555
C35 H22 1_555 1_555
C36 C35 1_555 1_555
C37 C36 1_555 1_555
H23 C37 1_555 1_555
C38 C37 1_555 1_555
H24 C38 1_555 1_555
C39 N4 1_555 1_555
H25 C39 1_555 1_555
C40 C36 1_555 1_555
H26 C40 1_555 1_555
Cd3 N4 1_555 1_555
C39 C40 1_555 1_555
Cd3 O1 1_555 1_555
O1 C1 1_555 1_555
O2 Cd3 1_555 1_555
O3 C5 1_555 1_555
O4 C14 1_555 1_555
O5 C14 1_555 1_555
O6 Cd3 1_555 1_555
O7 Cd3 1_555 1_555
O8 C19 1_555 1_555
O9 C28 1_555 1_555
N1 Cd3 1_555 1_555
C1 O2 1_555 1_555
C2 C1 1_555 1_555
C3 C2 1_555 1_555
H1 C3 1_555 1_555
C4 C3 1_555 1_555
H2 C4 1_555 1_555
C5 C4 1_555 1_555
C6 C5 1_555 1_555
H3 C6 1_555 1_555
C7 C2 1_555 1_555
H4 C7 1_555 1_555
C8 O3 1_555 1_555
C9 C8 1_555 1_555
H5 C9 1_555 1_555
C10 C9 1_555 1_555
H6 C10 1_555 1_555
C11 C10 1_555 1_555
C12 C11 1_555 1_555
H7 C12 1_555 1_555
C13 C8 1_555 1_555
H8 C13 1_555 1_555
C14 C11 1_555 1_555
C15 O6 1_555 1_555
C16 C15 1_555 1_555
C17 C16 1_555 1_555
H9 C17 1_555 1_555
C18 C17 1_555 1_555
H10 C18 1_555 1_555
C19 C18 1_555 1_555
C20 C19 1_555 1_555
H11 C20 1_555 1_555
C21 C16 1_555 1_555
H12 C21 1_555 1_555
C22 O8 1_555 1_555
C23 C22 1_555 1_555
H13 C23 1_555 1_555
C24 C23 1_555 1_555
H14 C24 1_555 1_555
C25 C24 1_555 1_555
C26 C25 1_555 1_555
C27 C22 1_555 1_555
C28 O10 1_555 1_555
C29 N1 1_555 1_555
H17 C29 1_555 1_555
C30 C29 1_555 1_555
H18 C30 1_555 1_555
C31 C30 1_555 1_555
C32 C31 1_555 1_555
H19 C32 1_555 1_555
C33 N1 1_555 1_555
H20 C33 1_555 1_555
H29 C44 1_555 1_555
H30 C45 1_555 1_555
Cd4 O2 1_555 1_555
Cd6 O4 1_555 1_555
O11 Cd3 1_555 1_555
O5 Cd6 1_555 1_555
O7 C15 1_555 1_555
C6 C7 1_555 1_555
C12 C13 1_555 1_555
C20 C21 1_555 1_555
C25 C28 1_555 1_555
C26 C27 1_555 1_555
C32 C33 1_555 1_555
C44 C45 1_555 1_555
Cd4 O11 1_555 1_555
N5 Cd6 1_555 1_555
N6 N7 1_555 1_555
C41 N5 1_555 1_555
H27 C41 1_555 1_555
C42 C41 1_555 1_555
H28 C42 1_555 1_555
C43 C42 1_555 1_555
C46 N6 1_555 1_555
C43 C46 1_555 1_555
N10 C50 1_555 1_555
C47 H32 1_555 1_555
C48 C47 1_555 1_555
C49 C48 1_555 1_555
H33 C49 1_555 1_555
C50 C49 1_555 1_555
H34 C50 1_555 1_555
C51 N10 1_555 1_555
C52 C48 1_555 1_555
C51 C52 1_555 1_555
N8 C50_2 1_555 1_555
C47_2 H32_2 1_555 1_555
C48_2 C47_2 1_555 1_555
C49_2 C48_2 1_555 1_555
H33_2 C49_2 1_555 1_555
C50_2 C49_2 1_555 1_555
H34_2 C50_2 1_555 1_555
C51_2 N8 1_555 1_555
C52_2 C48_2 1_555 1_555
C51_2 C52_2 1_555 1_555
N5_2 Cd7 1_555 1_555
N6_2 N7_2 1_555 1_555
C41_2 N5_2 1_555 1_555
H27_2 C41_2 1_555 1_555
C42_2 C41_2 1_555 1_555
H28_2 C42_2 1_555 1_555
C43_2 C42_2 1_555 1_555
C46_2 N6_2 1_555 1_555
O12 Cd7 1_555 1_555
O13 Cd7 1_555 1_555
C43_2 C46_2 1_555 1_555
Cd4 O1_2 1_555 1_555
O1_2 C1_2 1_555 1_555
O3_2 C5_2 1_555 1_555
O12 C14_2 1_555 1_555
O13 C14_2 1_555 1_555
O6_2 Cd4 1_555 1_555
O7_2 Cd4 1_555 1_555
O8_2 C19_2 1_555 1_555
O9_2 C28_2 1_555 1_555
N1_2 Cd4 1_555 1_555
C1_2 O11 1_555 1_555
C2_2 C1_2 1_555 1_555
C3_2 C2_2 1_555 1_555
H1_2 C3_2 1_555 1_555
C4_2 C3_2 1_555 1_555
H2_2 C4_2 1_555 1_555
C5_2 C4_2 1_555 1_555
C6_2 C5_2 1_555 1_555
H3_2 C6_2 1_555 1_555
C7_2 C2_2 1_555 1_555
H4_2 C7_2 1_555 1_555
C8_2 O3_2 1_555 1_555
C9_2 C8_2 1_555 1_555
H5_2 C9_2 1_555 1_555
C10_2 C9_2 1_555 1_555
H6_2 C10_2 1_555 1_555
C11_2 C10_2 1_555 1_555
C12_2 C11_2 1_555 1_555
H7_2 C12_2 1_555 1_555
C13_2 C8_2 1_555 1_555
H8_2 C13_2 1_555 1_555
C14_2 C11_2 1_555 1_555
C15_2 O6_2 1_555 1_555
C16_2 C15_2 1_555 1_555
C17_2 C16_2 1_555 1_555
H9_2 C17_2 1_555 1_555
C18_2 C17_2 1_555 1_555
H10_2 C18_2 1_555 1_555
C19_2 C18_2 1_555 1_555
C20_2 C19_2 1_555 1_555
H11_2 C20_2 1_555 1_555
C21_2 C16_2 1_555 1_555
H12_2 C21_2 1_555 1_555
C22_2 O8_2 1_555 1_555
C23_2 C22_2 1_555 1_555
H13_2 C23_2 1_555 1_555
C24_2 C23_2 1_555 1_555
H14_2 C24_2 1_555 1_555
C25_2 C24_2 1_555 1_555
C26_2 C25_2 1_555 1_555
C27_2 C22_2 1_555 1_555
C28_2 O14 1_555 1_555
C29_2 N1_2 1_555 1_555
H17_2 C29_2 1_555 1_555
C30_2 C29_2 1_555 1_555
H18_2 C30_2 1_555 1_555
C31_2 C30_2 1_555 1_555
C32_2 C31_2 1_555 1_555
H19_2 C32_2 1_555 1_555
C33_2 N1_2 1_555 1_555
H20_2 C33_2 1_555 1_555
H29_2 C44_2 1_555 1_555
H30_2 C45_2 1_555 1_555
N9 Cd4 1_555 1_555
O7_2 C15_2 1_555 1_555
C6_2 C7_2 1_555 1_555
C12_2 C13_2 1_555 1_555
C20_2 C21_2 1_555 1_555
C25_2 C28_2 1_555 1_555
C26_2 C27_2 1_555 1_555
C32_2 C33_2 1_555 1_555
C44_2 C45_2 1_555 1_555
N9 C38_2 1_555 1_555
C35_2 H22_2 1_555 1_555
C36_2 C35_2 1_555 1_555
C37_2 C36_2 1_555 1_555
H23_2 C37_2 1_555 1_555
C38_2 C37_2 1_555 1_555
H24_2 C38_2 1_555 1_555
C39_2 N9 1_555 1_555
H25_2 C39_2 1_555 1_555
C40_2 C36_2 1_555 1_555
H26_2 C40_2 1_555 1_555
C39_2 C40_2 1_555 1_555
N2_2 N3_2 1_555 1_555
C34_2 N2_2 1_555 1_555
H21_2 C34_2 1_555 1_555

#END
