
###############################################################################
#
# This file contains modified crystal structure data generated from the
# MOF subset of the Cambridge Structural Database (CSD) v543 
# hosted by the Cambridge Crystallographic Data Centre (CCDC).
#
# This work is licensed under the Creative Commons
# Attribution-NonCommercial-ShareAlike 4.0 International License.
# To view a copy of this license, visit
# http://creativecommons.org/licenses/by-nc-sa/4.0/
# or send a letter to
# Creative Commons, PO Box 1866, Mountain View, CA 94042, USA.
#
# CIF created using the CSD Python API on 29 September 2022
# The structure has been converted into the P1 space group
# The structure has a 3D framework
# The original CSD entry XOPVII is in the triclinic crystal system
# The framework has been calculated to contain at least 10.0% void space
# The void calculation uses a probe of radius 1.32A, grid spacing 0.4
#
###############################################################################

data_XOPVII
_chemical_formula_moiety         '(C40 H26 N6 Ni2 O8)n'
_symmetry_cell_setting           triclinic
_symmetry_space_group_name_H-M   'P 1'
_symmetry_Int_Tables_number      1
_space_group_name_Hall           'P 1'
loop_
_symmetry_equiv_pos_site_id
_symmetry_equiv_pos_as_xyz
1 x,y,z
_cell_length_a                   8.793(2)
_cell_length_b                   10.091(3)
_cell_length_c                   15.404(4)
_cell_angle_alpha                87.826(4)
_cell_angle_beta                 88.941(5)
_cell_angle_gamma                73.318(4)
_cell_volume                     1308.29
loop_
_atom_site_label
_atom_site_type_symbol
_atom_site_fract_x
_atom_site_fract_y
_atom_site_fract_z
_atom_site_U_iso_or_equiv
_atom_site_thermal_displace_type
Ni6 Ni 0.05223(5) 0.07877(4) 0.35688(3) 0.0209 Uani
N8 N 0.0268(3) 0.0539(3) 0.22426(18) 0.0280 Uani
C31 C 0.0776(7) 0.1255(5) 0.1648(3) 0.0724 Uani
H22 H 0.1228 0.1927 0.1825 0.0860 Uiso
C32 C 0.0684(8) 0.1079(6) 0.0775(3) 0.0863 Uani
H23 H 0.1068 0.1633 0.0384 0.1030 Uiso
C33 C 0.0050(5) 0.0118(4) 0.0468(2) 0.0368 Uani
C14 C 0.0495(7) 0.0639(5) 0.8911(3) 0.0677 Uani
H11 H 0.0954 0.1316 0.9070 0.0810 Uiso
C15 C 0.0356(6) 0.0389(5) 0.8043(3) 0.0641 Uani
H12 H 0.0735 0.0920 0.7634 0.0770 Uiso
O9 O 0.1319(3) 0.0097(2) 0.61595(14) 0.0261 Uani
N4 N 0.7637(3) 0.1125(3) 0.64504(18) 0.0260 Uani
N6 N 0.1298(3) 0.7296(3) 0.65139(18) 0.0270 Uani
C21 C 0.6255(5) 0.1161(4) 0.6817(3) 0.0463 Uani
H14 H 0.6127 0.0348 0.7070 0.0560 Uiso
C22 C 0.4998(5) 0.2343(4) 0.6844(3) 0.0548 Uani
H15 H 0.4046 0.2308 0.7103 0.0660 Uiso
C23 C 0.5132(4) 0.3559(4) 0.6494(2) 0.0355 Uani
C24 C 0.6563(5) 0.3540(4) 0.6136(3) 0.0657 Uani
H16 H 0.6736 0.4354 0.5912 0.0790 Uiso
C25 C 0.7758(5) 0.2304(4) 0.6105(3) 0.0550 Uani
H17 H 0.8703 0.2306 0.5824 0.0660 Uiso
C26 C 0.1185(6) 0.6195(4) 0.6087(3) 0.0638 Uani
H18 H 0.0256 0.6256 0.5788 0.0760 Uiso
C27 C 0.2415(6) 0.4960(4) 0.6076(3) 0.0640 Uani
H19 H 0.2301 0.4217 0.5771 0.0760 Uiso
C28 C 0.3792(4) 0.4845(4) 0.6515(2) 0.0346 Uani
C29 C 0.3894(5) 0.5969(4) 0.6945(3) 0.0583 Uani
H20 H 0.4813 0.5945 0.7242 0.0700 Uiso
C30 C 0.2608(5) 0.7155(4) 0.6934(3) 0.0471 Uani
H21 H 0.2690 0.7899 0.7249 0.0560 Uiso
O5 O 0.2129(3) 0.1901(2) 0.33529(15) 0.0276 Uani
O6 O 0.2743(3) 0.3420(3) 0.41790(19) 0.0510 Uani
O7 O 0.0649(3) 0.1135(2) 0.48633(14) 0.0236 Uani
C36 C 0.2805(4) 0.2235(4) 0.3995(2) 0.0281 Uani
C37 C 0.3876(4) 0.1076(3) 0.4539(2) 0.0241 Uani
C38 C 0.5502(4) 0.0758(3) 0.4366(2) 0.0280 Uani
H26 H 0.5851 0.1281 0.3939 0.0330 Uiso
C39 C 0.3386(4) 0.0290(3) 0.5203(2) 0.0244 Uani
C40 C 0.1647(4) 0.0522(3) 0.5419(2) 0.0213 Uani
Ni7 Ni 0.94777(5) 0.92123(4) 0.64312(3) 0.0209 Uani
C34 C 0.9505(7) 0.9361(5) 0.1089(3) 0.0677 Uani
H24 H 0.9046 0.8684 0.0930 0.0810 Uiso
C35 C 0.9644(6) 0.9611(5) 0.1957(3) 0.0641 Uani
H25 H 0.9265 0.9080 0.2366 0.0770 Uiso
O1 O 0.7871(3) 0.8099(2) 0.66471(15) 0.0276 Uani
O2 O 0.7257(3) 0.6580(3) 0.58210(19) 0.0510 Uani
O3 O 0.9351(3) 0.8865(2) 0.51367(14) 0.0236 Uani
O4 O 0.8681(3) 0.9903(2) 0.38405(14) 0.0261 Uani
N3 N 0.9732(3) 0.9461(3) 0.77574(18) 0.0280 Uani
C11 C 0.9224(7) 0.8745(5) 0.8352(3) 0.0724 Uani
H9 H 0.8772 0.8073 0.8175 0.0860 Uiso
C12 C 0.9316(8) 0.8921(6) 0.9225(3) 0.0863 Uani
H10 H 0.8932 0.8367 0.9616 0.1030 Uiso
C13 C 0.9950(5) 0.9882(4) 0.9532(2) 0.0368 Uani
C16 C 0.7195(4) 0.7765(4) 0.6005(2) 0.0281 Uani
C17 C 0.6124(4) 0.8924(3) 0.5461(2) 0.0241 Uani
C18 C 0.4498(4) 0.9242(3) 0.5634(2) 0.0280 Uani
H13 H 0.4149 0.8719 0.6061 0.0330 Uiso
C19 C 0.6614(4) 0.9710(3) 0.4797(2) 0.0244 Uani
C20 C 0.8353(4) 0.9478(3) 0.4581(2) 0.0213 Uani
N5 N 0.2363(3) 0.8875(3) 0.35496(18) 0.0260 Uani
N7 N 0.8702(3) 0.2704(3) 0.34861(18) 0.0270 Uani
C1 C 0.3745(5) 0.8839(4) 0.3183(3) 0.0463 Uani
H1 H 0.3873 0.9652 0.2930 0.0560 Uiso
C2 C 0.5002(5) 0.7657(4) 0.3156(3) 0.0548 Uani
H2 H 0.5954 0.7692 0.2897 0.0660 Uiso
C3 C 0.4868(4) 0.6441(4) 0.3506(2) 0.0355 Uani
C4 C 0.3437(5) 0.6460(4) 0.3864(3) 0.0657 Uani
H3 H 0.3264 0.5646 0.4088 0.0790 Uiso
C5 C 0.2242(5) 0.7696(4) 0.3895(3) 0.0550 Uani
H4 H 0.1297 0.7694 0.4176 0.0660 Uiso
C6 C 0.8815(6) 0.3805(4) 0.3913(3) 0.0638 Uani
H5 H 0.9744 0.3744 0.4212 0.0760 Uiso
C7 C 0.7585(6) 0.5040(4) 0.3924(3) 0.0640 Uani
H6 H 0.7699 0.5783 0.4229 0.0760 Uiso
C8 C 0.6208(4) 0.5155(4) 0.3485(2) 0.0346 Uani
C9 C 0.6106(5) 0.4031(4) 0.3055(3) 0.0583 Uani
H7 H 0.5187 0.4055 0.2758 0.0700 Uiso
C10 C 0.7392(5) 0.2845(4) 0.3066(3) 0.0471 Uani
H8 H 0.7310 0.2101 0.2751 0.0560 Uiso
loop_
_atom_site_aniso_label
_atom_site_aniso_U_11
_atom_site_aniso_U_22
_atom_site_aniso_U_33
_atom_site_aniso_U_23
_atom_site_aniso_U_13
_atom_site_aniso_U_12
Ni6 0.0162 0.0212 0.0194 -0.0024 0.00035 0.00414
N8 0.0296 0.0288 0.0221 -0.0016 0 -0.0029
C31 0.127 0.093 0.026 -0.005 -0.002 -0.077
C32 0.162 0.111 0.022 0.006 0.003 -0.098
C33 0.043 0.045 0.021 -0.0059 0.0016 -0.01
C14 0.113 0.09 0.026 -0.004 -0.005 -0.07
C15 0.106 0.087 0.022 -0.002 0.004 -0.064
O9 0.0188 0.0334 0.023 0.0003 0.0008 -0.0028
N4 0.0186 0.0238 0.03 -0.0048 0.0015 0.0033
N6 0.0179 0.0253 0.0303 -0.0062 -0.0015 0.0065
C21 0.038 0.028 0.064 0.007 0.02 0.0022
C22 0.029 0.036 0.087 0.007 0.029 0.0075
C23 0.029 0.0246 0.041 0.0016 0.0012 0.0107
C24 0.047 0.029 0.105 0.021 0.033 0.01
C25 0.03 0.03 0.092 0.008 0.028 0.0093
C26 0.049 0.047 0.078 -0.023 -0.021 0.018
C27 0.059 0.04 0.078 -0.022 -0.014 0.013
C28 0.024 0.0277 0.043 -0.0021 0.0029 0.0072
C29 0.041 0.044 0.073 -0.009 -0.018 0.017
C30 0.037 0.034 0.06 -0.014 -0.012 0.0084
O5 0.0232 0.0279 0.0287 0.0025 -0.0013 -0.0031
O6 0.049 0.0301 0.073 -0.0006 -0.0226 -0.0087
O7 0.0179 0.0265 0.0205 0 -0.0026 0.0029
C36 0.0216 0.0296 0.032 0.0021 0.0008 -0.006
C37 0.0179 0.0278 0.0245 -0.0006 -0.0057 -0.0031
C38 0.0193 0.034 0.028 0.0055 0.0013 -0.0043
C39 0.0178 0.0282 0.0252 -0.0036 -0.0003 -0.0031
C40 0.0183 0.0212 0.0228 -0.005 -0.0007 -0.0025
Ni7 0.0162 0.0212 0.0194 -0.0024 0.00035 0.00414
C34 0.113 0.09 0.026 -0.004 -0.005 -0.07
C35 0.106 0.087 0.022 -0.002 0.004 -0.064
O1 0.0232 0.0279 0.0287 0.0025 -0.0013 -0.0031
O2 0.049 0.0301 0.073 -0.0006 -0.0226 -0.0087
O3 0.0179 0.0265 0.0205 0 -0.0026 0.0029
O4 0.0188 0.0334 0.023 0.0003 0.0008 -0.0028
N3 0.0296 0.0288 0.0221 -0.0016 0 -0.0029
C11 0.127 0.093 0.026 -0.005 -0.002 -0.077
C12 0.162 0.111 0.022 0.006 0.003 -0.098
C13 0.043 0.045 0.021 -0.0059 0.0016 -0.01
C16 0.0216 0.0296 0.032 0.0021 0.0008 -0.006
C17 0.0179 0.0278 0.0245 -0.0006 -0.0057 -0.0031
C18 0.0193 0.034 0.028 0.0055 0.0013 -0.0043
C19 0.0178 0.0282 0.0252 -0.0036 -0.0003 -0.0031
C20 0.0183 0.0212 0.0228 -0.005 -0.0007 -0.0025
N5 0.0186 0.0238 0.03 -0.0048 0.0015 0.0033
N7 0.0179 0.0253 0.0303 -0.0062 -0.0015 0.0065
C1 0.038 0.028 0.064 0.007 0.02 0.0022
C2 0.029 0.036 0.087 0.007 0.029 0.0075
C3 0.029 0.0246 0.041 0.0016 0.0012 0.0107
C4 0.047 0.029 0.105 0.021 0.033 0.01
C5 0.03 0.03 0.092 0.008 0.028 0.0093
C6 0.049 0.047 0.078 -0.023 -0.021 0.018
C7 0.059 0.04 0.078 -0.022 -0.014 0.013
C8 0.024 0.0277 0.043 -0.0021 0.0029 0.0072
C9 0.041 0.044 0.073 -0.009 -0.018 0.017
C10 0.037 0.034 0.06 -0.014 -0.012 0.0084
loop_
_geom_bond_atom_site_label_1
_geom_bond_atom_site_label_2
_geom_bond_site_symmetry_1
_geom_bond_site_symmetry_2
Ni6 N8 1_555 1_555
N8 C31 1_555 1_555
C31 H22 1_555 1_555
C32 C31 1_555 1_555
H23 C32 1_555 1_555
C32 C33 1_555 1_555
H11 C14 1_555 1_555
H12 C15 1_555 1_555
C14 C15 1_555 1_555
N4 C21 1_555 1_555
C21 H14 1_555 1_555
C22 C21 1_555 1_555
H15 C22 1_555 1_555
C23 C22 1_555 1_555
C24 C23 1_555 1_555
H16 C24 1_555 1_555
C25 N4 1_555 1_555
H17 C25 1_555 1_555
C26 N6 1_555 1_555
H18 C26 1_555 1_555
C27 C26 1_555 1_555
H19 C27 1_555 1_555
C28 C23 1_555 1_555
C29 C28 1_555 1_555
H20 C29 1_555 1_555
C30 N6 1_555 1_555
H21 C30 1_555 1_555
C24 C25 1_555 1_555
C27 C28 1_555 1_555
C29 C30 1_555 1_555
Ni6 O5 1_555 1_555
O5 C36 1_555 1_555
O6 C36 1_555 1_555
O7 Ni6 1_555 1_555
O9 C40 1_555 1_555
C36 C37 1_555 1_555
C37 C38 1_555 1_555
H26 C38 1_555 1_555
C40 O7 1_555 1_555
C37 C39 1_555 1_555
C39 C40 1_555 1_555
H24 C34 1_555 1_555
H25 C35 1_555 1_555
C34 C35 1_555 1_555
Ni7 O1 1_555 1_555
O1 C16 1_555 1_555
O2 C16 1_555 1_555
O3 Ni7 1_555 1_555
O4 C20 1_555 1_555
N3 Ni7 1_555 1_555
C11 N3 1_555 1_555
H9 C11 1_555 1_555
C12 C11 1_555 1_555
H10 C12 1_555 1_555
C13 C12 1_555 1_555
C16 C17 1_555 1_555
C17 C18 1_555 1_555
C18 H13 1_555 1_555
C19 C17 1_555 1_555
C20 O3 1_555 1_555
C19 C20 1_555 1_555
N7 C6 1_555 1_555
C1 N5 1_555 1_555
H1 C1 1_555 1_555
C2 C1 1_555 1_555
H2 C2 1_555 1_555
C3 C2 1_555 1_555
C4 C3 1_555 1_555
H3 C4 1_555 1_555
C5 N5 1_555 1_555
H4 C5 1_555 1_555
C6 H5 1_555 1_555
C7 C6 1_555 1_555
H6 C7 1_555 1_555
C8 C3 1_555 1_555
C9 C8 1_555 1_555
H7 C9 1_555 1_555
C10 N7 1_555 1_555
H8 C10 1_555 1_555
C4 C5 1_555 1_555
C7 C8 1_555 1_555
C9 C10 1_555 1_555

#END
