
###############################################################################
#
# This file contains modified crystal structure data generated from the
# MOF subset of the Cambridge Structural Database (CSD) v543 
# hosted by the Cambridge Crystallographic Data Centre (CCDC).
#
# This work is licensed under the Creative Commons
# Attribution-NonCommercial-ShareAlike 4.0 International License.
# To view a copy of this license, visit
# http://creativecommons.org/licenses/by-nc-sa/4.0/
# or send a letter to
# Creative Commons, PO Box 1866, Mountain View, CA 94042, USA.
#
# CIF created using the CSD Python API on 29 September 2022
# The structure has been converted into the P1 space group
# The structure has a 3D framework
# The original CSD entry XOPWIJ is in the monoclinic crystal system
# The framework has been calculated to contain at least 10.0% void space
# The void calculation uses a probe of radius 1.32A, grid spacing 0.4
#
###############################################################################

data_XOPWIJ
_chemical_formula_moiety         '(C40 H48 Cd4 N8 O19 S8)n'
_symmetry_cell_setting           triclinic
_symmetry_space_group_name_H-M   'P 1'
_symmetry_Int_Tables_number      1
_space_group_name_Hall           'P 1'
loop_
_symmetry_equiv_pos_site_id
_symmetry_equiv_pos_as_xyz
1 x,y,z
_cell_length_a                   7.1760(13)
_cell_length_b                   10.5145(18)
_cell_length_c                   20.899(4)
_cell_angle_alpha                90
_cell_angle_beta                 99.300(3)
_cell_angle_gamma                90
_cell_volume                     1556.15
loop_
_atom_site_label
_atom_site_type_symbol
_atom_site_fract_x
_atom_site_fract_y
_atom_site_fract_z
Cd1 Cd 0.00956(4) 0.22394(2) 0.256995(11)
N2 N 0.0373(5) 0.1292(3) 0.15846(13)
O1 O 0.1316(4) 0.4077(3) 0.21671(14)
O2 O 0.3302(4) 0.1987(3) 0.29919(17)
O3 O 0.0228(4) 0.0196(2) 0.30576(15)
C4 C 0.0159(7) 0.3330(4) 0.46913(18)
H3 H 0.0279 0.2877 0.5078
C5 C 0.0153(7) 0.2699(4) 0.41122(19)
H4 H 0.0301 0.1820 0.4123
C6 C 0.0370(9) 0.2022(4) 0.1064(2)
H5 H 0.0465 0.2897 0.1125
C7 C 0.0233(9) 0.1559(4) 0.04398(19)
H6 H 0.0241 0.2114 0.0094
C8 C 0.0084(5) 0.0268(3) 0.03346(15)
C10 C 0.0248(6) 0.0052(3) 0.14817(16)
H9 H 0.253(3) 0.437(5) 0.212(2)
H10 H 0.024(4) 0.459(4) 0.203(2)
H11 H 0.423(8) 0.206(7) 0.272(3)
H12 H 0.379(9) 0.162(6) 0.3400(17)
N3 N 0.0051(4) 0.6726(3) 0.64577(13)
S4 S 0.34845(14) 0.72166(9) 0.78609(5)
C11 C 0.0248(6) 0.5465(4) 0.64587(17)
H13 H 0.0405 0.5041 0.6854
C12 C 0.0231(6) 0.4760(3) 0.59009(16)
H14 H 0.0365 0.3881 0.5925
C13 C 0.0013(5) 0.5362(3) 0.53063(15)
N1 N 0.9949(4) 0.3274(3) 0.35423(13)
O4 O 0.7034(5) 0.0207(4) 0.3194(3)
C1 C 0.9752(6) 0.4535(4) 0.35413(17)
H1 H 0.9595 0.4959 0.3146
C2 C 0.9769(6) 0.5240(3) 0.40991(16)
H2 H 0.9635 0.6119 0.4075
C3 C 0.9987(5) 0.4638(3) 0.46937(15)
Cd2 Cd 0.99044(4) 0.77606(2) 0.743005(11)
Cd5 Cd 0.49044(4) 0.72394(2) 0.243005(11)
N5 N 0.9627(5) 0.8708(3) 0.84154(13)
O6 O 0.8684(4) 0.5923(3) 0.78329(14)
O7 O 0.6698(4) 0.8013(3) 0.70081(17)
O8 O 0.4772(4) 0.5196(2) 0.19424(15)
O9 O 0.9772(4) 0.9804(2) 0.69424(15)
O10 O 0.7966(5) 0.5207(4) 0.1806(3)
O11 O 0.5705(9) 0.4243(5) 0.10084(17)
S3 S 0.65155(14) 0.27834(9) 0.21391(5)
S5 S 0.62288(14) 0.44793(9) 0.16839(4)
C14 C 0.9841(7) 0.6670(4) 0.53087(18)
H15 H 0.9721 0.7123 0.4922
C15 C 0.9847(7) 0.7301(4) 0.58878(19)
H16 H 0.9699 0.8180 0.5877
H21 H 0.747(3) 0.563(5) 0.788(2)
H22 H 0.976(4) 0.541(4) 0.797(2)
H23 H 0.577(8) 0.794(7) 0.728(3)
H24 H 0.621(9) 0.838(6) 0.6600(17)
O5 O 0.9295(9) 0.9243(5) 0.39916(17)
S1 S 0.84845(14) 0.77834(9) 0.28609(5)
S2 S 0.87712(14) 0.94793(9) 0.33161(4)
C16 C 0.9630(9) 0.7978(4) 0.8936(2)
H17 H 0.9535 0.7103 0.8875
C17 C 0.9767(9) 0.8441(4) 0.95602(19)
H18 H 0.9759 0.7886 0.9906
C18 C 0.9916(5) 0.9732(3) 0.96654(15)
C20 C 0.9752(6) 0.9948(3) 0.85183(16)
C2_2 C 0.5231(6) 0.0240(3) 0.09009(16)
H2_2 H 0.5365 0.1119 0.0925
H15_2 H 0.5279 0.2123 0.0078
Cd2_2 Cd 0.50956(4) 0.27606(2) 0.756995(11)
N3_2 N 0.4949(4) 0.1726(3) 0.85423(13)
N5_2 N 0.5373(5) 0.3708(3) 0.65846(13)
O6_2 O 0.6316(4) 0.0923(3) 0.71671(14)
O7_2 O 0.8302(4) 0.3013(3) 0.79919(17)
O9_2 O 0.5228(4) 0.4804(2) 0.80576(15)
S4_2 S 0.15155(14) 0.22166(9) 0.71391(5)
C11_2 C 0.4752(6) 0.0465(4) 0.85413(17)
H13_2 H 0.4595 0.0041 0.8146
C13_2 C 0.4987(5) 0.0362(3) 0.96937(15)
C14_2 C 0.5159(7) 0.1670(4) 0.96913(18)
C15_2 C 0.5153(7) 0.2301(4) 0.91122(19)
H16_2 H 0.5301 0.3180 0.9123
H21_2 H 0.753(3) 0.063(5) 0.712(2)
H22_2 H 0.524(4) 0.041(4) 0.703(2)
H23_2 H 0.923(8) 0.294(7) 0.772(3)
H24_2 H 0.879(9) 0.338(6) 0.8400(17)
N1_2 N 0.5051(4) 0.8274(3) 0.14577(13)
N2_2 N 0.4627(5) 0.6292(3) 0.34154(13)
O1_2 O 0.3684(4) 0.9077(3) 0.28329(14)
O2_2 O 0.1698(4) 0.6987(3) 0.20081(17)
C1_2 C 0.5248(6) 0.9535(4) 0.14587(17)
H1_2 H 0.5405 0.9959 0.1854
C3_2 C 0.5013(5) 0.9638(3) 0.03063(15)
C4_2 C 0.4841(7) 0.8330(4) 0.03087(18)
C5_2 C 0.4847(7) 0.7699(4) 0.08878(19)
H4_2 H 0.4699 0.6820 0.0877
C6_2 C 0.4630(9) 0.7022(4) 0.3936(2)
H5_2 H 0.4535 0.7897 0.3875
C7_2 C 0.4767(9) 0.6559(4) 0.45602(19)
H6_2 H 0.4759 0.7114 0.4906
C8_2 C 0.4916(5) 0.5268(3) 0.46654(15)
C9 C 0.4904(6) 0.4510(4) 0.41307(17)
H7 H 0.4998 0.3632 0.4178
C10_2 C 0.4752(6) 0.5052(3) 0.35183(16)
H8 H 0.4738 0.4516 0.3163
H9_2 H 0.247(3) 0.937(5) 0.288(2)
H10_2 H 0.476(4) 0.959(4) 0.297(2)
H11_2 H 0.077(8) 0.706(7) 0.228(3)
H12_2 H 0.121(9) 0.662(6) 0.1600(17)
C16_2 C 0.5370(9) 0.2978(4) 0.6064(2)
H17_2 H 0.5465 0.2103 0.6125
C17_2 C 0.5233(9) 0.3441(4) 0.54398(19)
H18_2 H 0.5241 0.2886 0.5094
C18_2 C 0.5084(5) 0.4732(3) 0.53346(15)
C19 C 0.5096(6) 0.5490(4) 0.58693(17)
H19 H 0.5002 0.6368 0.5822
C20_2 C 0.5248(6) 0.4948(3) 0.64817(16)
H20 H 0.5262 0.5484 0.6837
H3_2 H 0.4721 0.7877 0.9922
C12_2 C 0.4769(6) 0.9760(3) 0.90991(16)
H14_2 H 0.4635 0.8881 0.9075
O5_2 O 0.0705(9) 0.0757(5) 0.60084(17)
S2_2 S 0.12288(14) 0.05207(9) 0.66839(4)
O4_2 O 0.2966(5) 0.9793(4) 0.6806(3)
O10_2 O 0.2034(5) 0.4793(4) 0.8194(3)
O11_2 O 0.4295(9) 0.5757(5) 0.89916(17)
S5_2 S 0.37712(14) 0.55207(9) 0.83161(4)
C9_2 C 0.0096(6) 0.9510(4) 0.08693(17)
H7_2 H 0.0002 0.8632 0.0822
H8_2 H 0.0262 0.9516 0.1837
C19_2 C 0.9904(6) 0.0490(4) 0.91307(17)
H19_2 H 0.9998 0.1368 0.9178
H20_2 H 0.9738 0.0484 0.8163
loop_
_geom_bond_atom_site_label_1
_geom_bond_atom_site_label_2
_geom_bond_site_symmetry_1
_geom_bond_site_symmetry_2
N2 Cd1 1_555 1_555
O1 Cd1 1_555 1_555
O2 Cd1 1_555 1_555
O3 Cd1 1_555 1_555
H3 C4 1_555 1_555
H4 C5 1_555 1_555
C6 N2 1_555 1_555
H5 C6 1_555 1_555
C7 C6 1_555 1_555
H6 C7 1_555 1_555
C8 C7 1_555 1_555
C10 N2 1_555 1_555
H9 O1 1_555 1_555
H10 O1 1_555 1_555
H11 O2 1_555 1_555
H12 O2 1_555 1_555
N3 C11 1_555 1_555
C11 H13 1_555 1_555
C12 C11 1_555 1_555
H14 C12 1_555 1_555
C4 C5 1_555 1_555
C12 C13 1_555 1_555
N1 C1 1_555 1_555
C1 H1 1_555 1_555
C2 C1 1_555 1_555
H2 C2 1_555 1_555
C3 C2 1_555 1_555
Cd5 O8 1_555 1_555
N5 Cd2 1_555 1_555
O6 Cd2 1_555 1_555
O7 Cd2 1_555 1_555
O8 S5 1_555 1_555
O9 Cd2 1_555 1_555
O10 S5 1_555 1_555
O11 S5 1_555 1_555
S5 S3 1_555 1_555
H15 C14 1_555 1_555
H16 C15 1_555 1_555
H21 O6 1_555 1_555
H22 O6 1_555 1_555
H23 O7 1_555 1_555
H24 O7 1_555 1_555
C14 C15 1_555 1_555
O5 S2 1_555 1_555
S1 S2 1_555 1_555
Cd5 S1 1_555 1_555
N5 C16 1_555 1_555
C16 H17 1_555 1_555
C17 C16 1_555 1_555
H18 C17 1_555 1_555
C20 N5 1_555 1_555
C17 C18 1_555 1_555
H2_2 C2_2 1_555 1_555
Cd2_2 N3_2 1_555 1_555
N3_2 C11_2 1_555 1_555
N5_2 Cd2_2 1_555 1_555
O6_2 Cd2_2 1_555 1_555
O7_2 Cd2_2 1_555 1_555
O9_2 Cd2_2 1_555 1_555
S4_2 Cd2_2 1_555 1_555
C11_2 H13_2 1_555 1_555
C14_2 C13_2 1_555 1_555
C15_2 N3_2 1_555 1_555
H16_2 C15_2 1_555 1_555
H21_2 O6_2 1_555 1_555
H22_2 O6_2 1_555 1_555
H23_2 O7_2 1_555 1_555
H24_2 O7_2 1_555 1_555
C14_2 C15_2 1_555 1_555
Cd5 N1_2 1_555 1_555
N1_2 C1_2 1_555 1_555
N2_2 Cd5 1_555 1_555
O1_2 Cd5 1_555 1_555
O2_2 Cd5 1_555 1_555
C1_2 H1_2 1_555 1_555
C4_2 C3_2 1_555 1_555
C5_2 N1_2 1_555 1_555
H4_2 C5_2 1_555 1_555
C6_2 N2_2 1_555 1_555
H5_2 C6_2 1_555 1_555
C7_2 C6_2 1_555 1_555
H6_2 C7_2 1_555 1_555
C8_2 C7_2 1_555 1_555
C9 C8_2 1_555 1_555
H7 C9 1_555 1_555
C10_2 N2_2 1_555 1_555
H8 C10_2 1_555 1_555
H9_2 O1_2 1_555 1_555
H10_2 O1_2 1_555 1_555
H11_2 O2_2 1_555 1_555
H12_2 O2_2 1_555 1_555
N5_2 C16_2 1_555 1_555
C16_2 H17_2 1_555 1_555
C17_2 C16_2 1_555 1_555
H18_2 C17_2 1_555 1_555
C18_2 C8_2 1_555 1_555
C19 C18_2 1_555 1_555
H19 C19 1_555 1_555
C20_2 N5_2 1_555 1_555
H20 C20_2 1_555 1_555
C4_2 C5_2 1_555 1_555
C9 C10_2 1_555 1_555
C17_2 C18_2 1_555 1_555
C19 C20_2 1_555 1_555
H14_2 C12_2 1_555 1_555
O5_2 S2_2 1_555 1_555
S4_2 S2_2 1_555 1_555
O9_2 S5_2 1_555 1_555
O10_2 S5_2 1_555 1_555
O11_2 S5_2 1_555 1_555
S5_2 S4 1_555 1_555
H7_2 C9_2 1_555 1_555
H19_2 C19_2 1_555 1_555

#END
