
###############################################################################
#
# This file contains modified crystal structure data generated from the
# MOF subset of the Cambridge Structural Database (CSD) v543 
# hosted by the Cambridge Crystallographic Data Centre (CCDC).
#
# This work is licensed under the Creative Commons
# Attribution-NonCommercial-ShareAlike 4.0 International License.
# To view a copy of this license, visit
# http://creativecommons.org/licenses/by-nc-sa/4.0/
# or send a letter to
# Creative Commons, PO Box 1866, Mountain View, CA 94042, USA.
#
# CIF created using the CSD Python API on 29 September 2022
# The structure has been converted into the P1 space group
# The structure has a 3D framework
# The original CSD entry XORDUG is in the monoclinic crystal system
# The framework has been calculated to contain at least 10.0% void space
# The void calculation uses a probe of radius 1.32A, grid spacing 0.4
# The framework is charged, counterions have been retained in the structure
# H atom positions have been added when not included in the experimental data
#
###############################################################################

data_XORDUG
_chemical_formula_moiety         '(C528 H416 N28 O314 Zn60 12-)n'
_symmetry_cell_setting           triclinic
_symmetry_space_group_name_H-M   'P 1'
_symmetry_Int_Tables_number      1
_space_group_name_Hall           'P 1'
loop_
_symmetry_equiv_pos_site_id
_symmetry_equiv_pos_as_xyz
1 x,y,z
_cell_length_a                   35.8753(3)
_cell_length_b                   24.4464(2)
_cell_length_c                   32.1563(3)
_cell_angle_alpha                90
_cell_angle_beta                 114.0770(10)
_cell_angle_gamma                90
_cell_volume                     25748.2
loop_
_atom_site_label
_atom_site_type_symbol
_atom_site_fract_x
_atom_site_fract_y
_atom_site_fract_z
Zn9 Zn 0.00400(3) 0.18117(3) 0.73432(3)
O67 O 0.0055(2) 0.1117(2) 0.76189(18)
O68 O 0.0040(4) 0.1633(3) 0.8188(3)
O69 O 0.0040(2) 0.06589(19) 0.95707(17)
C100 C 0.0054(3) 0.1184(3) 0.8013(3)
C101 C 0.0042(3) 0.0673(3) 0.8276(3)
C102 C 0.0021(3) 0.0680(2) 0.8687(2)
H34 H 0.0023 0.1019 0.8832
C106 C 0.0066(3) 0.0151(3) 0.8081(2)
H36 H 0.0103 0.0139 0.7806
Zn41 Zn 0.00527(2) 0.02304(3) 0.45979(3)
O102 O 0.05494(16) 0.2167(2) 0.77194(18)
O107 O 0.00411(15) 0.16919(19) 0.67362(15)
O64 O 0.43508(15) 0.4819(2) 0.00075(19)
Zn19 Zn 0.49552(2) 0.47637(3) 0.04081(3)
Zn39 Zn 0.30034(3) 0.47811(5) 0.05653(4)
O84 O 0.2073(2) 0.4696(3) 0.0129(3)
Zn1 Zn 0.50448(2) 0.52363(3) 0.95919(3)
Zn2 Zn 0.19942(3) 0.47150(4) 0.94798(4)
Zn3 Zn 0.31794(3) 0.52586(4) 0.73027(4)
Zn4 Zn 0.24410(3) 0.60108(4) 0.74500(3)
Zn5 Zn 0.01421(3) 0.57555(3) 0.49443(3)
Zn6 Zn 0.17738(3) 0.44277(5) 0.42242(4)
Zn7 Zn 0.18575(3) 0.51886(4) 0.27701(4)
Zn8 Zn 0.00181(2) 0.81296(3) 0.78860(3)
O43 O 0.1673(2) 0.4271(4) 0.4788(2)
O44 O 0.2253(2) 0.4073(3) 0.5371(2)
O45 O 0.2646(2) 0.5127(3) 0.6810(2)
O46 O 0.2191(3) 0.5716(4) 0.6859(3)
O47 O 0.06761(18) 0.5466(3) 0.5025(2)
O48 O 0.0854(3) 0.5966(4) 0.5650(3)
O51 O 0.00171(17) 0.64678(18) 0.46462(16)
O52 O 0.00781(19) 0.69180(18) 0.52718(15)
O54 O 0.00408(17) 0.93801(18) 0.45877(17)
O55 O 0.2129(2) 0.6603(3) 0.7529(3)
O56 O 0.1657(2) 0.6110(3) 0.7624(4)
O57 O 0.05042(18) 0.7086(2) 0.7779(2)
O58 O 0.05266(17) 0.7996(2) 0.7823(2)
O59 O 0.17084(16) 0.9020(2) 0.7822(2)
O60 O 0.21533(19) 0.8553(3) 0.7614(3)
O61 O 0.3262(2) 0.5288(4) 0.7948(2)
O62 O 0.26699(16) 0.5515(3) 0.7967(2)
O63 O 0.44354(15) 0.5187(2) 0.94207(19)
O65 O 0.24248(18) 0.4989(3) 0.9302(3)
O66 O 0.2945(3) 0.4738(4) 0.9922(3)
O71 O 0.0025(2) 0.8725(2) 0.82819(18)
O72 O 0.0091(3) 0.9123(3) 0.7708(2)
O73 O 0.1332(2) 0.4625(4) 0.3618(2)
O74 O 0.1772(2) 0.4940(3) 0.3371(3)
O75 O 0.1229(3) 0.4917(4) 0.2505(3)
O76 O 0.2080(3) 0.4403(3) 0.2751(3)
O77 O 0.1589(2) 0.5281(3) 0.9331(2)
O79 O 0.1808(6) 0.5247(4) 0.4439(5)
O80 O 0.3632(5) 0.4831(6) 0.7311(5)
N1 N 0.2191(3) 0.3584(3) 0.2486(3)
N2 N 0.1110(2) 0.5925(3) 0.8964(3)
C64 C 0.1914(3) 0.4333(4) 0.5187(3)
C65 C 0.1822(3) 0.4722(4) 0.5480(3)
C66 C 0.2110(2) 0.4844(3) 0.5922(3)
H22 H 0.2370 0.4671 0.6038
C67 C 0.2013(2) 0.5216(4) 0.6187(3)
C68 C 0.1634(3) 0.5475(4) 0.6018(3)
H23 H 0.1572 0.5741 0.6196
C69 C 0.1349(2) 0.5340(3) 0.5584(3)
C70 C 0.1443(3) 0.4976(3) 0.5315(3)
H24 H 0.1249 0.4898 0.5016
C71 C 0.2312(3) 0.5357(4) 0.6646(3)
C72 C 0.0925(3) 0.5605(3) 0.5405(4)
H25 H 0.0005 0.7070 0.4041
C76 C 0.00097(19) 0.7436(3) 0.4620(2)
C77 C 0.00135(19) 0.7929(2) 0.4834(2)
H26 H 0.0027 0.7939 0.5135
C80 C 0.0035(2) 0.6910(2) 0.4878(2)
C82 C 0.1812(2) 0.6545(4) 0.7597(3)
C83 C 0.1620(2) 0.7071(3) 0.7652(3)
C84 C 0.1254(2) 0.7050(3) 0.7705(3)
H28 H 0.1128 0.6710 0.7710
C85 C 0.1075(2) 0.7544(3) 0.7751(2)
C86 C 0.1266(2) 0.8045(3) 0.7758(3)
H29 H 0.1143 0.8375 0.7794
C87 C 0.1642(2) 0.8061(3) 0.7713(2)
C88 C 0.1807(2) 0.7561(3) 0.7666(2)
H30 H 0.2063 0.7561 0.7642
C89 C 0.0665(2) 0.7549(3) 0.7788(2)
C90 C 0.1854(2) 0.8584(3) 0.7727(3)
C91 C 0.3031(3) 0.5346(4) 0.8146(3)
C92 C 0.3191(2) 0.5215(4) 0.8623(3)
C93 C 0.3610(2) 0.5172(3) 0.8885(3)
H31 H 0.3794 0.5227 0.8743
C94 C 0.3766(2) 0.5050(3) 0.9347(3)
C95 C 0.3501(2) 0.4965(3) 0.9567(3)
H32 H 0.3610 0.4877 0.9882
C96 C 0.3081(2) 0.5011(3) 0.9321(3)
C97 C 0.2928(2) 0.5147(4) 0.8851(3)
H33 H 0.2643 0.5193 0.8685
C98 C 0.4220(2) 0.5013(3) 0.9618(3)
C99 C 0.2799(3) 0.4915(3) 0.9540(3)
C104 C 0.0002(2) 0.9701(2) 0.8702(2)
C105 C 0.0035(3) 0.9678(3) 0.8282(2)
C108 C 0.0068(3) 0.9154(3) 0.8084(3)
C109 C 0.1433(3) 0.4801(3) 0.3306(3)
C110 C 0.1068(5) 0.4872(8) 0.2864(6)
H37 H 0.0882 0.4554 0.2804
H38 H 0.0915 0.5207 0.2871
C111 C 0.2105(2) 0.3914(3) 0.2789(2)
C112 C 0.2044(5) 0.3623(5) 0.3173(4)
H39 H 0.1829 0.3807 0.3233
H40 H 0.2299 0.3631 0.3448
H41 H 0.1965 0.3242 0.3085
C113 C 0.2245(5) 0.3868(7) 0.2136(5)
H42 H 0.1985 0.4030 0.1932
H43 H 0.2341 0.3615 0.1965
H44 H 0.2447 0.4158 0.2269
C114 C 0.2224(5) 0.3013(4) 0.2512(6)
H45 H 0.2040 0.2867 0.2641
H46 H 0.2506 0.2911 0.2707
H47 H 0.2150 0.2862 0.2206
C115 C 0.14402(17) 0.5589(3) 0.9015(2)
C116 C 0.1603(3) 0.5632(6) 0.8649(3)
H48 H 0.1863 0.5435 0.8747
H49 H 0.1646 0.6018 0.8599
H50 H 0.1406 0.5472 0.8366
C117 C 0.0931(5) 0.6289(5) 0.8600(4)
H51 H 0.1141 0.6442 0.8514
H52 H 0.0796 0.6585 0.8691
H53 H 0.0728 0.6094 0.8339
C118 C 0.0962(5) 0.5883(7) 0.9303(4)
H54 H 0.0778 0.5568 0.9239
H55 H 0.0812 0.6217 0.9307
H56 H 0.1191 0.5835 0.9600
O82 O 0.50281(17) 0.5415(3) 0.89841(19)
N4 N 0.4722(5) 0.5745(6) 0.8251(4)
C123 C 0.4761(4) 0.5416(6) 0.8586(5)
C124 C 0.4481(5) 0.4879(7) 0.8447(6)
H66 H 0.4473 0.4713 0.8720
H67 H 0.4204 0.4978 0.8235
H68 H 0.4595 0.4616 0.8300
C125 C 0.4451(6) 0.5657(9) 0.7776(5)
H69 H 0.4218 0.5433 0.7758
H70 H 0.4352 0.6010 0.7628
H71 H 0.4599 0.5468 0.7621
C126 C 0.5000(6) 0.6201(7) 0.8347(7)
H72 H 0.5179 0.6151 0.8186
H73 H 0.4844 0.6541 0.8244
H74 H 0.5167 0.6221 0.8675
Zn25 Zn 0.01421(3) 0.92445(3) 0.99443(3)
Zn29 Zn 0.18575(3) 0.98114(4) 0.77701(4)
Zn30 Zn 0.00181(2) 0.68704(3) 0.28860(3)
Zn33 Zn 0.24651(3) 0.35519(5) 0.50653(3)
Zn38 Zn 0.25987(3) 0.90405(4) 0.76311(4)
O85 O 0.17623(17) 0.5300(3) 0.21011(19)
O86 O 0.33250(19) 0.6029(2) 0.7245(3)
O87 O 0.2896(2) 0.6481(3) 0.7455(4)
O92 O 0.50433(19) 0.6003(2) 0.9851(2)
O93 O 0.50424(18) 0.4383(2) 0.95520(19)
O99 O 0.24917(18) 0.5407(3) 0.3135(2)
O100 O 0.2376(3) 0.4464(4) 0.4413(3)
O101 O 0.1679(3) 0.3634(3) 0.4022(2)
O103 O 0.1944(3) 0.3917(3) 0.9403(2)
O104 O 0.1529(3) 0.4269(4) 0.8782(3)
O111 O 0.17084(16) 0.5980(2) 0.2822(2)
O113 O 0.56492(15) 0.5181(2) 0.99925(19)
H99 H 0.203272 0.528621 0.474641
H100 H 0.186187 0.548746 0.422076
H103 H 0.367061 0.489709 0.702643
H104 H 0.388344 0.493814 0.757753
Zn24 Zn 0.98579(3) 0.07555(3) 0.00557(3)
C103 C 0.9996(2) 0.0193(2) 0.8900(2)
C107 C 0.9958(2) 0.0210(2) 0.9347(2)
O110 O 0.94958(18) 0.2086(2) 0.7221(2)
Zn10 Zn 0.75349(3) 0.64481(5) 0.49347(3)
Zn11 Zn 0.50560(3) 0.67893(3) 0.23695(3)
Zn12 Zn 0.49948(2) 0.81118(3) 0.21356(3)
Zn13 Zn 0.51711(3) 0.92260(3) 0.02039(3)
Zn14 Zn 0.25987(3) 0.59595(4) 0.26311(4)
O1 O 0.05623(15) 0.5209(2) 0.06150(19)
O2 O 0.06549(15) 0.4840(2) 0.00243(17)
O3 O 0.2570(2) 0.5089(3) 0.0709(3)
O5 O 0.23528(17) 0.5530(3) 0.2066(2)
O7 O 0.29136(19) 0.6550(2) 0.2539(3)
O8 O 0.3403(3) 0.6060(3) 0.2455(4)
O9 O 0.45050(15) 0.7079(2) 0.22214(19)
O10 O 0.44953(18) 0.7995(2) 0.2221(2)
O11 O 0.33250(19) 0.8971(2) 0.2245(3)
O12 O 0.2896(2) 0.8519(3) 0.2455(4)
O13 O 0.4955(3) 0.4072(4) 0.2672(3)
O14 O 0.5073(3) 0.3692(2) 0.3315(3)
O15 O 0.51805(14) 0.47812(19) 0.46531(16)
O16 O 0.49963(19) 0.5651(2) 0.45400(18)
O17 O 0.5025(2) 0.6072(2) 0.26129(17)
O18 O 0.5010(3) 0.6601(3) 0.3171(2)
O19 O 0.50675(17) 0.6684(2) 0.17584(17)
O20 O 0.5097(3) 0.7583(2) 0.1729(2)
O21 O 0.50167(17) 0.8524(2) 0.03800(16)
O24 O 0.49576(18) 0.5617(2) 0.04480(19)
O25 O 0.55762(17) 0.7101(2) 0.2765(2)
O26 O 0.5449(2) 0.7994(3) 0.2719(2)
O27 O 0.6766(2) 0.6435(3) 0.4120(2)
O28 O 0.72343(17) 0.7027(3) 0.45356(19)
O29 O 0.6926(2) 0.9003(3) 0.4324(2)
O30 O 0.6503(3) 0.9309(3) 0.3662(4)
O31 O 0.5807(2) 0.6038(4) 0.5219(3)
O32 O 0.57142(18) 0.5476(3) 0.5691(2)
O33 O 0.6923(2) 0.4552(3) 0.6918(2)
O34 O 0.75083(18) 0.4593(3) 0.6865(2)
O35 O 0.7191(2) 0.6145(3) 0.5210(2)
O36 O 0.7624(3) 0.5536(4) 0.5587(3)
O37 O 0.7950(2) 0.6909(3) 0.5387(2)
O38 O 0.8321(3) 0.6366(3) 0.5978(2)
O39 O 0.9547(2) 0.8078(2) 0.7315(2)
O40 O 0.94506(16) 0.7167(2) 0.72806(18)
O41 O 0.8056(3) 0.8917(3) 0.5597(2)
O42 O 0.8471(3) 0.9269(4) 0.6218(3)
O49 O 0.9961(2) 0.7415(2) 0.33180(17)
O50 O 0.99589(15) 0.83081(19) 0.32638(15)
O53 O 0.99489(17) 0.89863(18) 0.51666(18)
O70 O 0.98241(14) 0.97874(15) 0.94655(14)
O81 O 0.3437(3) 0.5334(5) 0.0770(4)
C1 C 0.07778(19) 0.5038(2) 0.0418(2)
C2 C 0.12350(18) 0.5079(3) 0.0679(2)
C3 C 0.1496(2) 0.4989(3) 0.0463(2)
H1 H 0.1392 0.4888 0.0151
C4 C 0.1916(2) 0.5050(3) 0.0721(3)
C5 C 0.2069(2) 0.5192(3) 0.1169(3)
H2 H 0.2354 0.5252 0.1330
C6 C 0.1816(2) 0.5251(3) 0.1395(2)
C7 C 0.13955(19) 0.5192(3) 0.1152(2)
H3 H 0.1218 0.5228 0.1302
C8 C 0.2206(2) 0.4944(3) 0.0495(4)
C9 C 0.1981(2) 0.5366(3) 0.1892(2)
C10 C 0.3242(3) 0.6486(4) 0.2469(4)
C11 C 0.3430(2) 0.7017(3) 0.2407(3)
C12 C 0.3786(3) 0.7037(3) 0.2346(3)
H4 H 0.3923 0.6705 0.2343
C13 C 0.3951(2) 0.7523(3) 0.2288(3)
C14 C 0.3759(2) 0.8012(3) 0.2289(3)
H5 H 0.3878 0.8345 0.2250
C15 C 0.3394(3) 0.8025(4) 0.2345(3)
C16 C 0.3233(2) 0.7513(3) 0.2412(3)
H6 H 0.2990 0.7508 0.2462
C17 C 0.4347(2) 0.7528(3) 0.2239(3)
C18 C 0.3186(3) 0.8534(4) 0.2349(3)
C19 C 0.5022(3) 0.4101(4) 0.3072(3)
C20 C 0.5025(3) 0.4645(3) 0.3297(3)
C21 C 0.5048(2) 0.4669(3) 0.3739(3)
H7 H 0.5070 0.4342 0.3908
C22 C 0.5039(2) 0.5175(2) 0.3934(2)
C23 C 0.5018(3) 0.5653(3) 0.3687(2)
H8 H 0.5005 0.5999 0.3816
C24 C 0.5015(2) 0.5627(3) 0.3256(2)
C25 C 0.5013(3) 0.5120(3) 0.3063(3)
H9 H 0.5002 0.5100 0.2764
C26 C 0.5073(2) 0.5198(3) 0.4409(2)
C27 C 0.5024(3) 0.6145(3) 0.3010(3)
C28 C 0.5062(2) 0.7123(3) 0.1554(2)
C29 C 0.50418(19) 0.7091(2) 0.1073(2)
C30 C 0.5034(2) 0.7579(3) 0.0850(2)
H10 H 0.5043 0.7921 0.0994
C31 C 0.5013(2) 0.7555(3) 0.0403(2)
C32 C 0.5014(2) 0.7054(3) 0.0204(2)
C33 C 0.5017(2) 0.6564(3) 0.0434(2)
C34 C 0.5034(2) 0.6590(3) 0.0881(2)
H12 H 0.5041 0.6264 0.1044
C35 C 0.5013(2) 0.8078(3) 0.0154(3)
C36 C 0.5008(2) 0.6014(3) 0.0221(2)
C37 C 0.5669(2) 0.7597(3) 0.2896(3)
C38 C 0.6052(3) 0.7703(3) 0.3303(3)
C39 C 0.6289(2) 0.7266(3) 0.3553(2)
H13 H 0.6207 0.6900 0.3463
C40 C 0.6648(2) 0.7376(3) 0.3937(3)
C41 C 0.6770(2) 0.7912(3) 0.4057(3)
H14 H 0.7014 0.7986 0.4317
C42 C 0.6537(3) 0.8342(4) 0.3797(3)
C43 C 0.6186(3) 0.8241(4) 0.3419(3)
H15 H 0.6033 0.8536 0.3236
C44 C 0.6903(2) 0.6896(3) 0.4209(3)
C45 C 0.6663(3) 0.8923(4) 0.3925(3)
C46 C 0.5932(3) 0.5706(5) 0.5531(4)
C47 C 0.6386(3) 0.5558(4) 0.5761(3)
C48 C 0.6553(2) 0.5233(4) 0.6147(3)
H16 H 0.6388 0.5109 0.6296
C49 C 0.6964(2) 0.5088(4) 0.6317(3)
C50 C 0.7206(2) 0.5269(4) 0.6104(3)
H17 H 0.7485 0.5165 0.6217
C51 C 0.7039(3) 0.5605(4) 0.5721(3)
C52 C 0.6629(3) 0.5752(5) 0.5545(3)
H18 H 0.6516 0.5980 0.5284
C53 C 0.7155(3) 0.4740(4) 0.6743(3)
C54 C 0.7312(3) 0.5792(4) 0.5504(3)
C55 C 0.8212(3) 0.6811(4) 0.5784(3)
C56 C 0.8422(2) 0.7313(4) 0.6061(2)
C57 C 0.8768(2) 0.7256(3) 0.6467(2)
H19 H 0.8864 0.6901 0.6581
C58 C 0.8972(2) 0.7710(3) 0.6705(2)
C59 C 0.8819(3) 0.8236(3) 0.6552(3)
H20 H 0.8950 0.8550 0.6723
C60 C 0.8469(3) 0.8292(4) 0.6140(3)
C61 C 0.8284(3) 0.7831(4) 0.5897(3)
H21 H 0.8058 0.7870 0.5612
C62 C 0.9344(2) 0.7646(3) 0.7126(2)
C63 C 0.8326(3) 0.8858(4) 0.5989(4)
C73 C 0.99660(19) 0.7879(3) 0.3481(2)
C74 C 0.99805(18) 0.7907(2) 0.39437(18)
C75 C 0.99994(18) 0.7411(2) 0.4178(2)
C78 C 0.99968(19) 0.8427(2) 0.4588(2)
C79 C 0.99782(18) 0.8404(2) 0.4150(2)
H27 H 0.9964 0.8734 0.3988
C81 C 0.9993(2) 0.8975(2) 0.4798(2)
H35 H 0.9984 0.9371 0.8850
C122 C 0.0075(4) 0.4798(6) 0.1811(5)
H63 H 0.0273 0.4841 0.1674
H65 H 0.0199 0.4918 0.2129
Zn21 Zn 0.80058(3) 0.97150(4) 0.55202(4)
Zn22 Zn 0.31794(3) 0.97414(4) 0.23027(4)
Zn23 Zn 0.24410(3) 0.89892(4) 0.24500(3)
Zn26 Zn 0.82262(3) 0.55723(5) 0.57758(4)
Zn28 Zn 0.81425(3) 0.48114(4) 0.72299(4)
Zn31 Zn 0.99600(3) 0.68117(3) 0.76568(3)
Zn32 Zn 0.99600(3) 0.81883(3) 0.26568(3)
Zn34 Zn 0.50052(2) 0.31118(3) 0.28644(3)
Zn35 Zn 0.48289(3) 0.42260(3) 0.47961(3)
Zn36 Zn 0.51711(3) 0.57740(3) 0.52039(3)
Zn37 Zn 0.74013(3) 0.40405(4) 0.73689(4)
Zn40 Zn 0.69966(3) 0.97811(5) 0.44347(4)
Zn43 Zn 0.99473(2) 0.97696(3) 0.54021(3)
O88 O 0.5045(3) 0.9072(4) 0.2328(3)
O89 O 0.4927(3) 0.8692(2) 0.1685(3)
O90 O 0.48195(14) 0.97812(19) 0.03469(16)
O94 O 0.3074(2) 0.4003(3) 0.0676(2)
O95 O 0.5807(2) 0.8962(4) 0.0219(3)
O96 O 0.57142(18) 0.9524(3) 0.0691(2)
O97 O 0.3077(2) 0.5448(3) 0.3082(2)
O105 O 0.7747(2) 0.5927(3) 0.4629(2)
O106 O 0.9961(2) 0.7585(2) 0.83180(17)
O112 O 0.21533(19) 0.6447(3) 0.2614(3)
O115 O 0.9960(2) 0.56589(19) 0.54293(17)
O116 O 0.98241(14) 0.52126(15) 0.44655(14)
H101 H 0.352792 0.539573 0.110221
H102 H 0.367131 0.520444 0.0707247
O22 O 0.5017(3) 0.8066(3) 0.9779(2)
H11 H 0.5012 0.7041 0.9908
Zn42 Zn 0.00527(2) 0.47696(3) 0.95979(3)
O91 O 0.49963(19) 0.9349(2) 0.95400(18)
Zn16 Zn 0.99473(2) 0.52304(3) 0.04021(3)
O78 O 0.99337(17) 0.5316(3) 0.10048(19)
N3 N 0.9709(2) 0.5136(3) 0.1556(2)
C119 C 0.9660(4) 0.5345(6) 0.1172(5)
C120 C 0.9308(5) 0.5685(6) 0.0917(6)
H57 H 0.9331 0.5825 0.0643
H58 H 0.9297 0.5993 0.1108
H59 H 0.9058 0.5467 0.0829
C121 C 0.9431(5) 0.5243(7) 0.1758(6)
H60 H 0.9554 0.5504 0.2009
H61 H 0.9368 0.4902 0.1875
H62 H 0.9179 0.5399 0.1529
H64 H 0.9995 0.4413 0.1797
O108 O 0.99489(17) 0.60137(18) 0.01666(18)
O109 O 0.99592(17) 0.43801(18) 0.04123(17)
O83 O 0.93451(15) 0.5160(2) 0.99757(17)
O78_2 O 0.00663(17) 0.0316(3) 0.39952(19)
N3_2 N 0.0291(2) 0.0136(3) 0.3444(2)
C119_2 C 0.0340(4) 0.0345(6) 0.3828(5)
C120_2 C 0.0692(5) 0.0685(6) 0.4083(6)
H57_2 H 0.0669 0.0825 0.4357
H58_2 H 0.0703 0.0993 0.3892
H59_2 H 0.0942 0.0467 0.4171
C121_2 C 0.0569(5) 0.0243(7) 0.3242(6)
H60_2 H 0.0446 0.0504 0.2991
H62_2 H 0.0821 0.0399 0.3471
O83_2 O 0.06549(15) 0.0160(2) 0.50243(17)
O108_2 O 0.00511(17) 0.10137(18) 0.48334(18)
H61_2 H 0.0632 0.9902 0.3125
H64_2 H 0.0005 0.9413 0.3203
Zn10_2 Zn 0.24651(3) 0.14481(5) 0.00653(3)
Zn11_2 Zn 0.49440(3) 0.17893(3) 0.26305(3)
Zn14_2 Zn 0.74013(3) 0.09595(4) 0.23689(4)
O1_2 O 0.94377(15) 0.0209(2) 0.43850(19)
O3_2 O 0.7430(2) 0.0089(3) 0.4291(3)
O5_2 O 0.76472(17) 0.0530(3) 0.2934(2)
O6 O 0.82377(17) 0.0300(3) 0.28989(19)
O7_2 O 0.70864(19) 0.1550(2) 0.2461(3)
O8_2 O 0.6597(3) 0.1060(3) 0.2545(4)
O9_2 O 0.54950(15) 0.2079(2) 0.27786(19)
O10_2 O 0.55047(18) 0.2995(2) 0.2779(2)
O11_2 O 0.66750(19) 0.3971(2) 0.2755(3)
O12_2 O 0.7104(2) 0.3519(3) 0.2545(4)
O16_2 O 0.50037(19) 0.0651(2) 0.04600(18)
O17_2 O 0.4975(2) 0.1072(2) 0.23871(17)
O18_2 O 0.4990(3) 0.1601(3) 0.1829(2)
O19_2 O 0.49325(17) 0.1684(2) 0.32416(17)
O20_2 O 0.4903(3) 0.2583(2) 0.3271(2)
O21_2 O 0.49833(17) 0.3524(2) 0.46200(16)
O22_2 O 0.4983(3) 0.3066(3) 0.5221(2)
O23 O 0.49567(19) 0.1003(2) 0.5149(2)
O24_2 O 0.50424(18) 0.0617(2) 0.45520(19)
O25_2 O 0.44238(17) 0.2101(2) 0.2235(2)
O26_2 O 0.4551(2) 0.2994(3) 0.2281(2)
O27_2 O 0.3234(2) 0.1435(3) 0.0880(2)
O28_2 O 0.27657(17) 0.2027(3) 0.04644(19)
O30_2 O 0.3497(3) 0.4309(3) 0.1338(4)
O49_2 O 0.0039(2) 0.2415(2) 0.16820(17)
O50_2 O 0.00411(15) 0.33081(19) 0.17362(15)
O81_2 O 0.6563(3) 0.0334(5) 0.4230(4)
C1_2 C 0.92222(19) 0.0038(2) 0.4582(2)
C2_2 C 0.87650(18) 0.0079(3) 0.4321(2)
C4_2 C 0.8084(2) 0.0050(3) 0.4279(3)
C5_2 C 0.7931(2) 0.0192(3) 0.3831(3)
H2_2 H 0.7646 0.0252 0.3670
C6_2 C 0.8184(2) 0.0251(3) 0.3605(2)
C7_2 C 0.86045(19) 0.0192(3) 0.3848(2)
H3_2 H 0.8782 0.0228 0.3698
C9_2 C 0.8019(2) 0.0366(3) 0.3108(2)
C10_2 C 0.6758(3) 0.1486(4) 0.2531(4)
C11_2 C 0.6570(2) 0.2017(3) 0.2593(3)
C12_2 C 0.6214(3) 0.2037(3) 0.2654(3)
H4_2 H 0.6077 0.1705 0.2657
C13_2 C 0.6049(2) 0.2523(3) 0.2712(3)
C14_2 C 0.6241(2) 0.3012(3) 0.2711(3)
H5_2 H 0.6122 0.3345 0.2750
C15_2 C 0.6606(3) 0.3025(4) 0.2655(3)
C16_2 C 0.6767(2) 0.2513(3) 0.2588(3)
H6_2 H 0.7010 0.2508 0.2538
C17_2 C 0.5653(2) 0.2528(3) 0.2761(3)
C18_2 C 0.6814(3) 0.3534(4) 0.2651(3)
C22_2 C 0.4961(2) 0.0175(2) 0.1066(2)
C23_2 C 0.4982(3) 0.0653(3) 0.1313(2)
H8_2 H 0.4995 0.0999 0.1184
C24_2 C 0.4985(2) 0.0627(3) 0.1744(2)
C25_2 C 0.4987(3) 0.0120(3) 0.1937(3)
H9_2 H 0.4998 0.0100 0.2236
C26_2 C 0.4927(2) 0.0198(3) 0.0591(2)
C27_2 C 0.4976(3) 0.1145(3) 0.1990(3)
C28_2 C 0.4938(2) 0.2123(3) 0.3446(2)
C29_2 C 0.49582(19) 0.2091(2) 0.3927(2)
C30_2 C 0.4966(2) 0.2579(3) 0.4150(2)
H10_2 H 0.4957 0.2921 0.4006
C31_2 C 0.4987(2) 0.2555(3) 0.4597(2)
C32_2 C 0.4986(2) 0.2054(3) 0.4796(2)
H11_2 H 0.4988 0.2041 0.5092
C33_2 C 0.4983(2) 0.1564(3) 0.4566(2)
C34_2 C 0.4966(2) 0.1590(3) 0.4119(2)
H12_2 H 0.4959 0.1264 0.3956
C35_2 C 0.4987(2) 0.3078(3) 0.4846(3)
C36_2 C 0.4992(2) 0.1014(3) 0.4779(2)
C37_2 C 0.4331(2) 0.2597(3) 0.2104(3)
C38_2 C 0.3948(3) 0.2703(3) 0.1697(3)
C39_2 C 0.3711(2) 0.2266(3) 0.1447(2)
H13_2 H 0.3793 0.1900 0.1537
C40_2 C 0.3352(2) 0.2376(3) 0.1063(3)
C41_2 C 0.3230(2) 0.2912(3) 0.0943(3)
H14_2 H 0.2986 0.2986 0.0683
C42_2 C 0.3463(3) 0.3342(4) 0.1203(3)
C43_2 C 0.3814(3) 0.3241(4) 0.1581(3)
H15_2 H 0.3967 0.3536 0.1764
C44_2 C 0.3097(2) 0.1896(3) 0.0791(3)
C45_2 C 0.3337(3) 0.3923(4) 0.1075(3)
C73_2 C 0.00340(19) 0.2879(3) 0.1519(2)
C74_2 C 0.00195(18) 0.2907(2) 0.10563(18)
C75_2 C 0.00006(18) 0.2411(2) 0.0822(2)
C78_2 C 0.00032(19) 0.3427(2) 0.0412(2)
C79_2 C 0.00218(18) 0.3404(2) 0.0850(2)
H27_2 H 0.0036 0.3734 0.1012
C81_2 C 0.0007(2) 0.3975(2) 0.0202(2)
Zn17 Zn 0.49552(2) 0.02363(3) 0.54081(3)
Zn22_2 Zn 0.68206(3) 0.47414(4) 0.26973(4)
Zn23_2 Zn 0.75590(3) 0.39892(4) 0.25500(3)
Zn27 Zn 0.81425(3) 0.01886(4) 0.22299(4)
Zn32_2 Zn 0.00400(3) 0.31883(3) 0.23432(3)
O91_2 O 0.50037(19) 0.4349(2) 0.54600(18)
O95_2 O 0.4193(2) 0.3962(4) 0.4781(3)
O96_2 O 0.42858(18) 0.4524(3) 0.4309(2)
O97_2 O 0.6923(2) 0.0448(3) 0.1918(2)
O98 O 0.75083(18) 0.0407(3) 0.1865(2)
O105_2 O 0.2253(2) 0.0927(3) 0.0371(2)
O112_2 O 0.78467(19) 0.1447(3) 0.2386(3)
O116_2 O 0.01759(14) 0.02126(15) 0.05345(14)
H101_2 H 0.647208 0.0395734 0.389779
H102_2 H 0.632869 0.0204442 0.429275
O31_2 O 0.4193(2) 0.1038(4) 0.9781(3)
O32_2 O 0.42858(18) 0.0476(3) 0.9309(2)
O35_2 O 0.2809(2) 0.1145(3) 0.9790(2)
O36_2 O 0.2376(3) 0.0536(4) 0.9413(3)
O37_2 O 0.2050(2) 0.1909(3) 0.9613(2)
O38_2 O 0.1679(3) 0.1366(3) 0.9022(2)
O39_2 O 0.0453(2) 0.3078(2) 0.7685(2)
O53_2 O 0.00511(17) 0.39863(18) 0.98334(18)
O70_2 O 0.01759(14) 0.47874(15) 0.55345(14)
C46_2 C 0.4068(3) 0.0706(5) 0.9469(4)
C47_2 C 0.3614(3) 0.0558(4) 0.9239(3)
C48_2 C 0.3447(2) 0.0233(4) 0.8853(3)
H16_2 H 0.3612 0.0109 0.8704
C49_2 C 0.3036(2) 0.0088(4) 0.8683(3)
C50_2 C 0.2794(2) 0.0269(4) 0.8896(3)
H17_2 H 0.2515 0.0165 0.8783
C51_2 C 0.2961(3) 0.0605(4) 0.9279(3)
C52_2 C 0.3371(3) 0.0752(5) 0.9455(3)
H18_2 H 0.3484 0.0980 0.9716
C54_2 C 0.2688(3) 0.0792(4) 0.9496(3)
C55_2 C 0.1788(3) 0.1811(4) 0.9216(3)
C56_2 C 0.1578(2) 0.2313(4) 0.8939(2)
C57_2 C 0.1232(2) 0.2256(3) 0.8533(2)
H19_2 H 0.1136 0.1901 0.8419
C58_2 C 0.1028(2) 0.2710(3) 0.8295(2)
C59_2 C 0.1181(3) 0.3236(3) 0.8448(3)
H20_2 H 0.1050 0.3550 0.8277
C60_2 C 0.1531(3) 0.3292(4) 0.8860(3)
C61_2 C 0.1716(3) 0.2831(4) 0.9103(3)
H21_2 H 0.1942 0.2870 0.9388
C62_2 C 0.0656(2) 0.2646(3) 0.7874(2)
C63_2 C 0.1674(3) 0.3858(4) 0.9011(4)
C103_2 C 0.0004(2) 0.5193(2) 0.6100(2)
H35_2 H 0.0016 0.4371 0.6150
C107_2 C 0.0042(2) 0.5210(2) 0.5653(2)
Zn26_2 Zn 0.17738(3) 0.05723(5) 0.92242(4)
Zn36_2 Zn 0.48289(3) 0.07740(3) 0.97961(3)
O106_2 O 0.0039(2) 0.2585(2) 0.66820(17)
O2_2 O 0.93451(15) 0.9840(2) 0.49757(17)
O4 O 0.7927(2) 0.9696(3) 0.4871(3)
C3_2 C 0.8504(2) 0.9989(3) 0.4537(2)
H1_2 H 0.8608 0.9888 0.4849
C8_2 C 0.7794(2) 0.9944(3) 0.4505(4)
C19_2 C 0.4978(3) 0.9101(4) 0.1928(3)
C20_2 C 0.4975(3) 0.9645(3) 0.1703(3)
C21_2 C 0.4952(2) 0.9669(3) 0.1261(3)
H7_2 H 0.4930 0.9342 0.1092
C122_2 C 0.9925(4) 0.9798(6) 0.3189(5)
H63_2 H 0.9727 0.9841 0.3326
H65_2 H 0.9801 0.9918 0.2871
Zn18 Zn 0.50448(2) 0.97637(3) 0.45919(3)
O114 O 0.7055(3) 0.9738(4) 0.5078(3)
O33_2 O 0.3077(2) 0.9552(3) 0.8082(2)
O34_2 O 0.24917(18) 0.9593(3) 0.8135(2)
C53_2 C 0.2845(3) 0.9740(4) 0.8257(3)
O51_2 O 0.99829(17) 0.14678(18) 0.03538(16)
O79_2 O 0.8192(6) 0.0247(4) 0.0561(5)
H25_2 H 0.9995 0.2070 0.0959
C76_2 C 0.99903(19) 0.2436(3) 0.0380(2)
C77_2 C 0.99865(19) 0.2929(2) 0.0166(2)
C80_2 C 0.9965(2) 0.1910(2) 0.0122(2)
H38_2 H 0.9085 0.0207 0.2129
Zn30_2 Zn 0.99819(2) 0.18704(3) 0.21140(3)
O111_2 O 0.82916(16) 0.0980(2) 0.2178(2)
H99_2 H 0.796728 0.0286211 0.0253592
H100_2 H 0.813813 0.0487461 0.0779238
Zn3_2 Zn 0.68206(3) 0.02586(4) 0.76973(4)
Zn4_2 Zn 0.75590(3) 0.10108(4) 0.75500(3)
Zn8_2 Zn 0.99819(2) 0.31296(3) 0.71140(3)
O45_2 O 0.7354(2) 0.0127(3) 0.8190(2)
O46_2 O 0.7809(3) 0.0716(4) 0.8141(3)
O47_2 O 0.93239(18) 0.0466(3) 0.9975(2)
O48_2 O 0.9146(3) 0.0966(4) 0.9350(3)
O52_2 O 0.99219(19) 0.19180(18) 0.97282(15)
O55_2 O 0.7871(2) 0.1603(3) 0.7471(3)
O56_2 O 0.8343(2) 0.1110(3) 0.7376(4)
O58_2 O 0.94734(17) 0.2996(2) 0.7177(2)
O59_2 O 0.82916(16) 0.4020(2) 0.7178(2)
O60_2 O 0.78467(19) 0.3553(3) 0.7386(3)
O61_2 O 0.6738(2) 0.0288(4) 0.7052(2)
O62_2 O 0.73301(16) 0.0515(3) 0.7033(2)
O63_2 O 0.55646(15) 0.0187(2) 0.55793(19)
O67_2 O 0.9945(2) 0.6117(2) 0.73811(18)
O68_2 O 0.9960(4) 0.6633(3) 0.6812(3)
O71_2 O 0.9975(2) 0.3725(2) 0.67181(18)
O72_2 O 0.9909(3) 0.4123(3) 0.7292(2)
O77_2 O 0.8411(2) 0.0281(3) 0.5669(2)
N2_2 N 0.8890(2) 0.0925(3) 0.6036(3)
C67_2 C 0.7987(2) 0.0216(4) 0.8813(3)
C68_2 C 0.8366(3) 0.0475(4) 0.8982(3)
H23_2 H 0.8428 0.0741 0.8804
C69_2 C 0.8651(2) 0.0340(3) 0.9416(3)
C71_2 C 0.7688(3) 0.0357(4) 0.8354(3)
C72_2 C 0.9075(3) 0.0605(3) 0.9595(4)
H26_2 H 0.9973 0.2939 0.9865
C82_2 C 0.8188(2) 0.1545(4) 0.7403(3)
C83_2 C 0.8380(2) 0.2071(3) 0.7348(3)
C84_2 C 0.8746(2) 0.2050(3) 0.7295(3)
H28_2 H 0.8872 0.1710 0.7290
C85_2 C 0.8925(2) 0.2544(3) 0.7249(2)
C86_2 C 0.8734(2) 0.3045(3) 0.7242(3)
H29_2 H 0.8857 0.3375 0.7206
C87_2 C 0.8358(2) 0.3061(3) 0.7287(2)
C88_2 C 0.8193(2) 0.2561(3) 0.7334(2)
H30_2 H 0.7937 0.2561 0.7358
C89_2 C 0.9335(2) 0.2549(3) 0.7212(2)
C90_2 C 0.8146(2) 0.3584(3) 0.7273(3)
C91_2 C 0.6969(3) 0.0346(4) 0.6854(3)
C92_2 C 0.6809(2) 0.0215(4) 0.6377(3)
C93_2 C 0.6390(2) 0.0172(3) 0.6115(3)
H31_2 H 0.6206 0.0227 0.6257
C94_2 C 0.6234(2) 0.0050(3) 0.5653(3)
C96_2 C 0.6919(2) 0.0011(3) 0.5679(3)
C97_2 C 0.7072(2) 0.0147(4) 0.6149(3)
H33_2 H 0.7357 0.0193 0.6315
C98_2 C 0.5780(2) 0.0013(3) 0.5382(3)
C100_2 C 0.9946(3) 0.6184(3) 0.6987(3)
C101_2 C 0.9958(3) 0.5673(3) 0.6724(3)
C102_2 C 0.9979(3) 0.5680(2) 0.6313(2)
H34_2 H 0.9977 0.6019 0.6168
C104_2 C 0.9998(2) 0.4701(2) 0.6298(2)
C105_2 C 0.9965(3) 0.4678(3) 0.6718(2)
C106_2 C 0.9934(3) 0.5151(3) 0.6919(2)
H36_2 H 0.9897 0.5139 0.7194
C108_2 C 0.9932(3) 0.4154(3) 0.6916(3)
C115_2 C 0.85598(17) 0.0589(3) 0.5985(2)
C116_2 C 0.8397(3) 0.0632(6) 0.6351(3)
H48_2 H 0.8137 0.0435 0.6253
H49_2 H 0.8354 0.1018 0.6401
H50_2 H 0.8594 0.0472 0.6634
C117_2 C 0.9069(5) 0.1289(5) 0.6400(4)
H51_2 H 0.8859 0.1442 0.6486
H52_2 H 0.9204 0.1585 0.6309
H53_2 H 0.9272 0.1094 0.6661
C118_2 C 0.9038(5) 0.0883(7) 0.5697(4)
H54_2 H 0.9222 0.0568 0.5761
H55_2 H 0.9188 0.1217 0.5693
H56_2 H 0.8809 0.0835 0.5400
O82_2 O 0.49719(17) 0.0415(3) 0.60159(19)
N4_2 N 0.5278(5) 0.0745(6) 0.6749(4)
C123_2 C 0.5239(4) 0.0416(6) 0.6414(5)
C125_2 C 0.5549(6) 0.0657(9) 0.7224(5)
H69_2 H 0.5782 0.0433 0.7242
H70_2 H 0.5648 0.1010 0.7372
H71_2 H 0.5401 0.0468 0.7379
C126_2 C 0.5000(6) 0.1201(7) 0.6653(7)
H72_2 H 0.4821 0.1151 0.6814
H73_2 H 0.5156 0.1541 0.6756
H74_2 H 0.4833 0.1221 0.6325
Zn25_2 Zn 0.98579(3) 0.42445(3) 0.50557(3)
O86_2 O 0.66750(19) 0.1029(2) 0.7755(3)
O87_2 O 0.7104(2) 0.1481(3) 0.7545(4)
O107_2 O 0.99589(15) 0.66919(19) 0.82638(15)
O113_2 O 0.43508(15) 0.0181(2) 0.50075(19)
Zn6_2 Zn 0.82262(3) 0.94277(5) 0.07758(4)
O43_2 O 0.8327(2) 0.9271(4) 0.0212(2)
O73_2 O 0.8668(2) 0.9625(4) 0.1382(2)
O74_2 O 0.8228(2) 0.9940(3) 0.1629(3)
O75_2 O 0.8771(3) 0.9917(4) 0.2495(3)
O76_2 O 0.7920(3) 0.9403(3) 0.2249(3)
N1_2 N 0.7809(3) 0.8584(3) 0.2514(3)
C109_2 C 0.8567(3) 0.9801(3) 0.1694(3)
C110_2 C 0.8932(5) 0.9872(8) 0.2136(6)
H37_2 H 0.9118 0.9554 0.2196
C111_2 C 0.7895(2) 0.8914(3) 0.2211(2)
C112_2 C 0.7956(5) 0.8623(5) 0.1827(4)
H39_2 H 0.8171 0.8807 0.1767
H40_2 H 0.7701 0.8631 0.1552
H41_2 H 0.8035 0.8242 0.1915
C113_2 C 0.7755(5) 0.8868(7) 0.2864(5)
H42_2 H 0.8015 0.9030 0.3068
H43_2 H 0.7659 0.8615 0.3035
H44_2 H 0.7553 0.9158 0.2731
C114_2 C 0.7776(5) 0.8013(4) 0.2488(6)
H45_2 H 0.7960 0.7867 0.2359
H46_2 H 0.7494 0.7911 0.2293
H47_2 H 0.7850 0.7862 0.2794
O100_2 O 0.7624(3) 0.9464(4) 0.0587(3)
O101_2 O 0.8321(3) 0.8634(3) 0.0978(2)
O44_2 O 0.7747(2) 0.9073(3) 0.9629(2)
O64_2 O 0.56492(15) 0.9819(2) 0.49925(19)
O65_2 O 0.75752(18) 0.9989(3) 0.5698(3)
O80_2 O 0.6368(5) 0.9831(6) 0.7689(5)
C64_2 C 0.8086(3) 0.9333(4) 0.9813(3)
C65_2 C 0.8178(3) 0.9722(4) 0.9520(3)
C66_2 C 0.7890(2) 0.9844(3) 0.9078(3)
H22_2 H 0.7630 0.9671 0.8962
C70_2 C 0.8557(3) 0.9976(3) 0.9685(3)
H24_2 H 0.8751 0.9898 0.9984
C95_2 C 0.6499(2) 0.9965(3) 0.5433(3)
H32_2 H 0.6390 0.9877 0.5118
C99_2 C 0.7201(3) 0.9915(3) 0.5460(3)
C124_2 C 0.5519(5) 0.9879(7) 0.6553(6)
H66_2 H 0.5527 0.9713 0.6280
H67_2 H 0.5796 0.9978 0.6765
H68_2 H 0.5405 0.9616 0.6700
Zn33_2 Zn 0.75349(3) 0.85519(5) 0.99347(3)
O93_2 O 0.49576(18) 0.9383(2) 0.54480(19)
H103_2 H 0.632939 0.989709 0.797357
H104_2 H 0.611656 0.993814 0.742247
O78_3 O 0.00663(17) 0.4684(3) 0.89952(19)
N3_3 N 0.0291(2) 0.4864(3) 0.8444(2)
C119_3 C 0.0340(4) 0.4655(6) 0.8828(5)
C120_3 C 0.0692(5) 0.4315(6) 0.9083(6)
H57_3 H 0.0669 0.4175 0.9357
H58_3 H 0.0703 0.4007 0.8892
H59_3 H 0.0942 0.4533 0.9171
C121_3 C 0.0569(5) 0.4757(7) 0.8242(6)
H60_3 H 0.0446 0.4496 0.7991
H61_3 H 0.0632 0.5098 0.8125
H62_3 H 0.0821 0.4601 0.8471
H64_3 H 0.0005 0.5587 0.8203
O109_2 O 0.00408(17) 0.56199(18) 0.95877(17)
O22_3 O 0.4983(3) 0.1934(3) 0.0221(2)
O23_2 O 0.49567(19) 0.3997(2) 0.0149(2)
H11_3 H 0.4988 0.2959 0.0092
Zn20 Zn 0.80058(3) 0.52850(4) 0.05202(4)
O114_2 O 0.7055(3) 0.5262(4) 0.0078(3)
Zn11_3 Zn 0.49440(3) 0.32107(3) 0.76305(3)
Zn12_2 Zn 0.50052(2) 0.18882(3) 0.78644(3)
Zn15 Zn 0.69966(3) 0.52189(5) 0.94347(4)
O1_3 O 0.94377(15) 0.4791(2) 0.93850(19)
O3_3 O 0.7430(2) 0.4911(3) 0.9291(3)
O4_2 O 0.7927(2) 0.5304(3) 0.9871(3)
O5_3 O 0.76472(17) 0.4470(3) 0.7934(2)
O6_2 O 0.82377(17) 0.4700(3) 0.78989(19)
O7_3 O 0.70864(19) 0.3450(2) 0.7461(3)
O8_3 O 0.6597(3) 0.3940(3) 0.7545(4)
O9_3 O 0.54950(15) 0.2921(2) 0.77786(19)
O10_3 O 0.55047(18) 0.2005(2) 0.7779(2)
O13_2 O 0.5045(3) 0.5928(4) 0.7328(3)
O14_2 O 0.4927(3) 0.6308(2) 0.6685(3)
O15_2 O 0.48195(14) 0.52188(19) 0.53469(16)
O17_3 O 0.4975(2) 0.3928(2) 0.73871(17)
O18_3 O 0.4990(3) 0.3399(3) 0.6829(2)
O19_3 O 0.49325(17) 0.3316(2) 0.82416(17)
O20_3 O 0.4903(3) 0.2417(2) 0.8271(2)
O21_3 O 0.49833(17) 0.1476(2) 0.96200(16)
O25_3 O 0.44238(17) 0.2899(2) 0.7235(2)
O26_3 O 0.4551(2) 0.2006(3) 0.7281(2)
O27_3 O 0.3234(2) 0.3565(3) 0.5880(2)
O28_3 O 0.27657(17) 0.2973(3) 0.54644(19)
O29_2 O 0.3074(2) 0.0997(3) 0.5676(2)
O30_3 O 0.3497(3) 0.0691(3) 0.6338(4)
O35_3 O 0.2809(2) 0.3855(3) 0.4790(2)
O37_3 O 0.2050(2) 0.3091(3) 0.4613(2)
O39_3 O 0.0453(2) 0.1922(2) 0.2685(2)
O40_2 O 0.05494(16) 0.2833(2) 0.27194(18)
O41_2 O 0.1944(3) 0.1083(3) 0.4403(2)
O42_2 O 0.1529(3) 0.0731(4) 0.3782(3)
O81_3 O 0.6563(3) 0.4666(5) 0.9230(4)
C1_3 C 0.92222(19) 0.4962(2) 0.9582(2)
C2_3 C 0.87650(18) 0.4921(3) 0.9321(2)
C3_3 C 0.8504(2) 0.5011(3) 0.9537(2)
H1_3 H 0.8608 0.5112 0.9849
C4_3 C 0.8084(2) 0.4950(3) 0.9279(3)
C5_3 C 0.7931(2) 0.4808(3) 0.8831(3)
H2_3 H 0.7646 0.4748 0.8670
C6_3 C 0.8184(2) 0.4749(3) 0.8605(2)
C7_3 C 0.86045(19) 0.4808(3) 0.8848(2)
H3_3 H 0.8782 0.4772 0.8698
C8_3 C 0.7794(2) 0.5056(3) 0.9505(4)
C9_3 C 0.8019(2) 0.4634(3) 0.8108(2)
C10_3 C 0.6758(3) 0.3514(4) 0.7531(4)
C11_3 C 0.6570(2) 0.2983(3) 0.7593(3)
C12_3 C 0.6214(3) 0.2963(3) 0.7654(3)
H4_3 H 0.6077 0.3295 0.7657
C13_3 C 0.6049(2) 0.2477(3) 0.7712(3)
C14_3 C 0.6241(2) 0.1988(3) 0.7711(3)
H5_3 H 0.6122 0.1655 0.7750
C15_3 C 0.6606(3) 0.1975(4) 0.7655(3)
C16_3 C 0.6767(2) 0.2487(3) 0.7588(3)
H6_3 H 0.7010 0.2492 0.7538
C17_3 C 0.5653(2) 0.2472(3) 0.7761(3)
C18_3 C 0.6814(3) 0.1466(4) 0.7651(3)
C19_3 C 0.4978(3) 0.5899(4) 0.6928(3)
C20_3 C 0.4975(3) 0.5355(3) 0.6703(3)
C21_3 C 0.4952(2) 0.5331(3) 0.6261(3)
H7_3 H 0.4930 0.5658 0.6092
C22_3 C 0.4961(2) 0.4825(2) 0.6066(2)
C23_3 C 0.4982(3) 0.4347(3) 0.6313(2)
H8_3 H 0.4995 0.4001 0.6184
C24_3 C 0.4985(2) 0.4373(3) 0.6744(2)
C25_3 C 0.4987(3) 0.4880(3) 0.6937(3)
H9_3 H 0.4998 0.4900 0.7236
C26_3 C 0.4927(2) 0.4802(3) 0.5591(2)
C27_3 C 0.4976(3) 0.3855(3) 0.6990(3)
C28_3 C 0.4938(2) 0.2877(3) 0.8446(2)
C29_3 C 0.49582(19) 0.2909(2) 0.8927(2)
C30_3 C 0.4966(2) 0.2421(3) 0.9150(2)
H10_3 H 0.4957 0.2079 0.9006
C31_3 C 0.4987(2) 0.2445(3) 0.9597(2)
C32_3 C 0.4986(2) 0.2946(3) 0.9796(2)
C33_3 C 0.4983(2) 0.3436(3) 0.9566(2)
C34_3 C 0.4966(2) 0.3410(3) 0.9119(2)
H12_3 H 0.4959 0.3736 0.8956
C35_3 C 0.4987(2) 0.1922(3) 0.9846(3)
C36_3 C 0.4992(2) 0.3986(3) 0.9779(2)
C37_3 C 0.4331(2) 0.2403(3) 0.7104(3)
C38_3 C 0.3948(3) 0.2297(3) 0.6697(3)
C39_3 C 0.3711(2) 0.2734(3) 0.6447(2)
H13_3 H 0.3793 0.3100 0.6537
C40_3 C 0.3352(2) 0.2624(3) 0.6063(3)
C41_3 C 0.3230(2) 0.2088(3) 0.5943(3)
H14_3 H 0.2986 0.2014 0.5683
C42_3 C 0.3463(3) 0.1658(4) 0.6203(3)
C43_3 C 0.3814(3) 0.1759(4) 0.6581(3)
H15_3 H 0.3967 0.1464 0.6764
C44_3 C 0.3097(2) 0.3104(3) 0.5791(3)
C45_3 C 0.3337(3) 0.1077(4) 0.6075(3)
C46_3 C 0.4068(3) 0.4294(5) 0.4469(4)
C47_3 C 0.3614(3) 0.4442(4) 0.4239(3)
C48_3 C 0.3447(2) 0.4767(4) 0.3853(3)
H16_3 H 0.3612 0.4891 0.3704
C49_3 C 0.3036(2) 0.4912(4) 0.3683(3)
C50_3 C 0.2794(2) 0.4731(4) 0.3896(3)
H17_3 H 0.2515 0.4835 0.3783
C51_3 C 0.2961(3) 0.4395(4) 0.4279(3)
C52_3 C 0.3371(3) 0.4248(5) 0.4455(3)
H18_3 H 0.3484 0.4020 0.4716
C53_3 C 0.2845(3) 0.5260(4) 0.3257(3)
C54_3 C 0.2688(3) 0.4208(4) 0.4496(3)
C55_3 C 0.1788(3) 0.3189(4) 0.4216(3)
C56_3 C 0.1578(2) 0.2687(4) 0.3939(2)
C57_3 C 0.1232(2) 0.2744(3) 0.3533(2)
H19_3 H 0.1136 0.3099 0.3419
C58_3 C 0.1028(2) 0.2290(3) 0.3295(2)
C59_3 C 0.1181(3) 0.1764(3) 0.3448(3)
H20_3 H 0.1050 0.1450 0.3277
C60_3 C 0.1531(3) 0.1708(4) 0.3860(3)
C61_3 C 0.1716(3) 0.2169(4) 0.4103(3)
H21_3 H 0.1942 0.2130 0.4388
C62_3 C 0.0656(2) 0.2354(3) 0.2874(2)
C63_3 C 0.1674(3) 0.1142(4) 0.4011(4)
C73_3 C 0.00340(19) 0.2121(3) 0.6519(2)
C74_3 C 0.00195(18) 0.2093(2) 0.60563(18)
C75_3 C 0.00006(18) 0.2589(2) 0.5822(2)
C78_3 C 0.00032(19) 0.1573(2) 0.5412(2)
C79_3 C 0.00218(18) 0.1596(2) 0.5850(2)
H27_3 H 0.0036 0.1266 0.6012
C81_3 C 0.0007(2) 0.1025(2) 0.5202(2)
H35_3 H 0.0016 0.0629 0.1150
C122_3 C 0.9925(4) 0.5202(6) 0.8189(5)
H63_3 H 0.9727 0.5159 0.8326
H65_3 H 0.9801 0.5082 0.7871
Zn21_2 Zn 0.19942(3) 0.02850(4) 0.44798(4)
Zn34_2 Zn 0.49948(2) 0.68882(3) 0.71356(3)
Zn40_2 Zn 0.30034(3) 0.02189(5) 0.55653(4)
O88_2 O 0.4955(3) 0.0928(4) 0.7672(3)
O89_2 O 0.5073(3) 0.1308(2) 0.8315(3)
O90_2 O 0.51805(14) 0.02188(19) 0.96531(16)
O94_2 O 0.6926(2) 0.5997(3) 0.9324(2)
O115_2 O 0.0040(2) 0.43411(19) 0.45707(17)
H101_3 H 0.647208 0.460427 0.889779
H102_3 H 0.632869 0.479556 0.929275
C103_3 C 0.0004(2) 0.9807(2) 0.1100(2)
C107_3 C 0.0042(2) 0.9790(2) 0.0653(2)
O110_2 O 0.05042(18) 0.7914(2) 0.2779(2)
O43_3 O 0.8327(2) 0.5729(4) 0.5212(2)
O45_3 O 0.7354(2) 0.4873(3) 0.3190(2)
O46_3 O 0.7809(3) 0.4284(4) 0.3141(3)
O47_3 O 0.93239(18) 0.4534(3) 0.4975(2)
O48_3 O 0.9146(3) 0.4034(4) 0.4350(3)
O51_3 O 0.99829(17) 0.35322(18) 0.53538(16)
O52_3 O 0.99219(19) 0.30820(18) 0.47282(15)
O54_2 O 0.99592(17) 0.06199(18) 0.54123(17)
O55_3 O 0.7871(2) 0.3397(3) 0.2471(3)
O56_3 O 0.8343(2) 0.3890(3) 0.2376(4)
O57_2 O 0.94958(18) 0.2914(2) 0.2221(2)
O58_3 O 0.94734(17) 0.2004(2) 0.2177(2)
O61_3 O 0.6738(2) 0.4712(4) 0.2052(2)
O62_3 O 0.73301(16) 0.4485(3) 0.2033(2)
O63_3 O 0.55646(15) 0.4813(2) 0.05793(19)
O65_3 O 0.75752(18) 0.5011(3) 0.0698(3)
O71_3 O 0.9975(2) 0.1275(2) 0.17181(18)
O72_3 O 0.9909(3) 0.0877(3) 0.2292(2)
O73_3 O 0.8668(2) 0.5375(4) 0.6382(2)
O74_3 O 0.8228(2) 0.5060(3) 0.6629(3)
O75_3 O 0.8771(3) 0.5083(4) 0.7495(3)
O76_3 O 0.7920(3) 0.5597(3) 0.7249(3)
O77_3 O 0.8411(2) 0.4719(3) 0.0669(2)
O79_3 O 0.8192(6) 0.4753(4) 0.5561(5)
O80_3 O 0.6368(5) 0.5169(6) 0.2689(5)
N1_3 N 0.7809(3) 0.6416(3) 0.7514(3)
N2_3 N 0.8890(2) 0.4075(3) 0.1036(3)
C64_3 C 0.8086(3) 0.5667(4) 0.4813(3)
C65_3 C 0.8178(3) 0.5278(4) 0.4520(3)
C66_3 C 0.7890(2) 0.5156(3) 0.4078(3)
H22_3 H 0.7630 0.5329 0.3962
C67_3 C 0.7987(2) 0.4784(4) 0.3813(3)
C68_3 C 0.8366(3) 0.4525(4) 0.3982(3)
H23_3 H 0.8428 0.4259 0.3804
C69_3 C 0.8651(2) 0.4660(3) 0.4416(3)
C70_3 C 0.8557(3) 0.5024(3) 0.4685(3)
H24_3 H 0.8751 0.5102 0.4984
C71_3 C 0.7688(3) 0.4643(4) 0.3354(3)
C72_3 C 0.9075(3) 0.4395(3) 0.4595(4)
H25_3 H 0.9995 0.2930 0.5959
C76_3 C 0.99903(19) 0.2564(3) 0.5380(2)
C77_3 C 0.99865(19) 0.2071(2) 0.5166(2)
H26_3 H 0.9973 0.2061 0.4865
C80_3 C 0.9965(2) 0.3090(2) 0.5122(2)
C82_3 C 0.8188(2) 0.3455(4) 0.2403(3)
C83_3 C 0.8380(2) 0.2929(3) 0.2348(3)
C84_3 C 0.8746(2) 0.2950(3) 0.2295(3)
H28_3 H 0.8872 0.3290 0.2290
C85_3 C 0.8925(2) 0.2456(3) 0.2249(2)
C86_3 C 0.8734(2) 0.1955(3) 0.2242(3)
H29_3 H 0.8857 0.1625 0.2206
C87_3 C 0.8358(2) 0.1939(3) 0.2287(2)
C88_3 C 0.8193(2) 0.2439(3) 0.2334(2)
H30_3 H 0.7937 0.2439 0.2358
C89_3 C 0.9335(2) 0.2451(3) 0.2212(2)
C90_3 C 0.8146(2) 0.1416(3) 0.2273(3)
C91_3 C 0.6969(3) 0.4654(4) 0.1854(3)
C92_3 C 0.6809(2) 0.4785(4) 0.1377(3)
C93_3 C 0.6390(2) 0.4828(3) 0.1115(3)
H31_3 H 0.6206 0.4773 0.1257
C94_3 C 0.6234(2) 0.4950(3) 0.0653(3)
C95_3 C 0.6499(2) 0.5035(3) 0.0433(3)
H32_3 H 0.6390 0.5123 0.0118
C96_3 C 0.6919(2) 0.4989(3) 0.0679(3)
C97_3 C 0.7072(2) 0.4853(4) 0.1149(3)
H33_3 H 0.7357 0.4807 0.1315
C98_3 C 0.5780(2) 0.4987(3) 0.0382(3)
C99_3 C 0.7201(3) 0.5085(3) 0.0460(3)
C104_3 C 0.9998(2) 0.0299(2) 0.1298(2)
C105_3 C 0.9965(3) 0.0322(3) 0.1718(2)
C108_3 C 0.9932(3) 0.0846(3) 0.1916(3)
C109_3 C 0.8567(3) 0.5199(3) 0.6694(3)
C110_3 C 0.8932(5) 0.5128(8) 0.7136(6)
H37_3 H 0.9118 0.5446 0.7196
H38_3 H 0.9085 0.4793 0.7129
C111_3 C 0.7895(2) 0.6086(3) 0.7211(2)
C112_3 C 0.7956(5) 0.6377(5) 0.6827(4)
H39_3 H 0.8171 0.6193 0.6767
H40_3 H 0.7701 0.6369 0.6552
H41_3 H 0.8035 0.6758 0.6915
C113_3 C 0.7755(5) 0.6132(7) 0.7864(5)
H42_3 H 0.8015 0.5970 0.8068
H43_3 H 0.7659 0.6385 0.8035
H44_3 H 0.7553 0.5842 0.7731
C114_3 C 0.7776(5) 0.6987(4) 0.7488(6)
H45_3 H 0.7960 0.7133 0.7359
H46_3 H 0.7494 0.7089 0.7293
H47_3 H 0.7850 0.7138 0.7794
C115_3 C 0.85598(17) 0.4411(3) 0.0985(2)
C116_3 C 0.8397(3) 0.4368(6) 0.1351(3)
H48_3 H 0.8137 0.4565 0.1253
H49_3 H 0.8354 0.3982 0.1401
H50_3 H 0.8594 0.4528 0.1634
C117_3 C 0.9069(5) 0.3711(5) 0.1400(4)
H51_3 H 0.8859 0.3558 0.1486
H52_3 H 0.9204 0.3415 0.1309
H53_3 H 0.9272 0.3906 0.1661
C118_3 C 0.9038(5) 0.4117(7) 0.0697(4)
H54_3 H 0.9222 0.4432 0.0761
H55_3 H 0.9188 0.3783 0.0693
H56_3 H 0.8809 0.4165 0.0400
O82_3 O 0.49719(17) 0.4585(3) 0.10159(19)
N4_3 N 0.5278(5) 0.4255(6) 0.1749(4)
C123_3 C 0.5239(4) 0.4584(6) 0.1414(5)
C124_3 C 0.5519(5) 0.5121(7) 0.1553(6)
H66_3 H 0.5527 0.5287 0.1280
H67_3 H 0.5796 0.5022 0.1765
H68_3 H 0.5405 0.5384 0.1700
C125_3 C 0.5549(6) 0.4343(9) 0.2224(5)
H69_3 H 0.5782 0.4567 0.2242
H70_3 H 0.5648 0.3990 0.2372
H71_3 H 0.5401 0.4532 0.2379
C126_3 C 0.5000(6) 0.3799(7) 0.1653(7)
H72_3 H 0.4821 0.3849 0.1814
H73_3 H 0.5156 0.3459 0.1756
H74_3 H 0.4833 0.3779 0.1325
O103_2 O 0.8056(3) 0.6083(3) 0.0597(2)
O104_2 O 0.8471(3) 0.5731(4) 0.1218(3)
H99_3 H 0.796728 0.471379 0.525359
H100_3 H 0.813813 0.451254 0.577924
H103_3 H 0.632939 0.510291 0.297357
H104_3 H 0.611656 0.506186 0.242247
O67_3 O 0.9945(2) 0.8883(2) 0.23811(18)
O68_3 O 0.9960(4) 0.8367(3) 0.1812(3)
O69_2 O 0.9960(2) 0.93411(19) 0.04293(17)
C100_3 C 0.9946(3) 0.8816(3) 0.1987(3)
C101_3 C 0.9958(3) 0.9327(3) 0.1724(3)
C102_3 C 0.9979(3) 0.9320(2) 0.1313(2)
H34_3 H 0.9977 0.8981 0.1168
C106_3 C 0.9934(3) 0.9849(3) 0.1919(2)
H36_3 H 0.9897 0.9861 0.2194
O102_2 O 0.94506(16) 0.7833(2) 0.22806(18)
O65_4 O 0.24248(18) 0.0011(3) 0.4302(3)
O66_2 O 0.2945(3) 0.0262(4) 0.4922(3)
O80_4 O 0.3632(5) 0.0169(6) 0.2311(5)
C64_4 C 0.1914(3) 0.0667(4) 0.0187(3)
C65_4 C 0.1822(3) 0.0278(4) 0.0480(3)
C66_4 C 0.2110(2) 0.0156(3) 0.0922(3)
H22_4 H 0.2370 0.0329 0.1038
C70_4 C 0.1443(3) 0.0024(3) 0.0315(3)
H24_4 H 0.1249 0.0102 0.0016
C95_4 C 0.3501(2) 0.0035(3) 0.4567(3)
H32_4 H 0.3610 0.0123 0.4882
C99_4 C 0.2799(3) 0.0085(3) 0.4540(3)
C124_4 C 0.4481(5) 0.0121(7) 0.3447(6)
H66_4 H 0.4473 0.0287 0.3720
H67_4 H 0.4204 0.0022 0.3235
H68_4 H 0.4595 0.0384 0.3300
O84_2 O 0.2073(2) 0.0304(3) 0.5129(3)
H103_4 H 0.367061 0.0102906 0.202643
H104_4 H 0.388344 0.00618611 0.257753
O43_4 O 0.1673(2) 0.0729(4) 0.9788(2)
O73_4 O 0.1332(2) 0.0375(4) 0.8618(2)
O74_4 O 0.1772(2) 0.0060(3) 0.8371(3)
O75_4 O 0.1229(3) 0.0083(4) 0.7505(3)
O76_4 O 0.2080(3) 0.0597(3) 0.7751(3)
N1_4 N 0.2191(3) 0.1416(3) 0.7486(3)
C109_4 C 0.1433(3) 0.0199(3) 0.8306(3)
C110_4 C 0.1068(5) 0.0128(8) 0.7864(6)
H37_4 H 0.0882 0.0446 0.7804
C111_4 C 0.2105(2) 0.1086(3) 0.7789(2)
C112_4 C 0.2044(5) 0.1377(5) 0.8173(4)
H39_4 H 0.1829 0.1193 0.8233
H40_4 H 0.2299 0.1369 0.8448
H41_4 H 0.1965 0.1758 0.8085
C113_4 C 0.2245(5) 0.1132(7) 0.7136(5)
H42_4 H 0.1985 0.0970 0.6932
H43_4 H 0.2341 0.1385 0.6965
H44_4 H 0.2447 0.0842 0.7269
C114_4 C 0.2224(5) 0.1987(4) 0.7512(6)
H45_4 H 0.2040 0.2133 0.7641
H46_4 H 0.2506 0.2089 0.7707
H47_4 H 0.2150 0.2138 0.7206
O45_4 O 0.2646(2) 0.9873(3) 0.1810(2)
O46_4 O 0.2191(3) 0.9284(4) 0.1859(3)
O47_4 O 0.06761(18) 0.9534(3) 0.0025(2)
O48_4 O 0.0854(3) 0.9034(4) 0.0650(3)
O52_4 O 0.00781(19) 0.80820(18) 0.02718(15)
O55_4 O 0.2129(2) 0.8397(3) 0.2529(3)
O56_4 O 0.1657(2) 0.8890(3) 0.2624(4)
O58_4 O 0.05266(17) 0.7004(2) 0.2823(2)
O61_4 O 0.3262(2) 0.9712(4) 0.2948(2)
O62_4 O 0.26699(16) 0.9485(3) 0.2967(2)
O63_4 O 0.44354(15) 0.9813(2) 0.44207(19)
O67_4 O 0.0055(2) 0.3883(2) 0.26189(18)
O68_4 O 0.0040(4) 0.3367(3) 0.3188(3)
O71_4 O 0.0025(2) 0.6275(2) 0.32819(18)
O72_4 O 0.0091(3) 0.5877(3) 0.2708(2)
O77_4 O 0.1589(2) 0.9719(3) 0.4331(2)
N2_4 N 0.1110(2) 0.9075(3) 0.3964(3)
C67_4 C 0.2013(2) 0.9784(4) 0.1187(3)
C68_4 C 0.1634(3) 0.9525(4) 0.1018(3)
H23_4 H 0.1572 0.9259 0.1196
C69_4 C 0.1349(2) 0.9660(3) 0.0584(3)
C71_4 C 0.2312(3) 0.9643(4) 0.1646(3)
C72_4 C 0.0925(3) 0.9395(3) 0.0405(4)
H26_4 H 0.0027 0.7061 0.0135
C82_4 C 0.1812(2) 0.8455(4) 0.2597(3)
C83_4 C 0.1620(2) 0.7929(3) 0.2652(3)
C84_4 C 0.1254(2) 0.7950(3) 0.2705(3)
H28_4 H 0.1128 0.8290 0.2710
C85_4 C 0.1075(2) 0.7456(3) 0.2751(2)
C86_4 C 0.1266(2) 0.6955(3) 0.2758(3)
H29_4 H 0.1143 0.6625 0.2794
C87_4 C 0.1642(2) 0.6939(3) 0.2713(2)
C88_4 C 0.1807(2) 0.7439(3) 0.2666(2)
H30_4 H 0.2063 0.7439 0.2642
C89_4 C 0.0665(2) 0.7451(3) 0.2788(2)
C90_4 C 0.1854(2) 0.6416(3) 0.2727(3)
C91_4 C 0.3031(3) 0.9654(4) 0.3146(3)
C92_4 C 0.3191(2) 0.9785(4) 0.3623(3)
C93_4 C 0.3610(2) 0.9828(3) 0.3885(3)
H31_4 H 0.3794 0.9773 0.3743
C94_4 C 0.3766(2) 0.9950(3) 0.4347(3)
C96_4 C 0.3081(2) 0.9989(3) 0.4321(3)
C97_4 C 0.2928(2) 0.9853(4) 0.3851(3)
H33_4 H 0.2643 0.9807 0.3685
C98_4 C 0.4220(2) 0.9987(3) 0.4618(3)
C100_4 C 0.0054(3) 0.3816(3) 0.3013(3)
C101_4 C 0.0042(3) 0.4327(3) 0.3276(3)
C102_4 C 0.0021(3) 0.4320(2) 0.3687(2)
H34_4 H 0.0023 0.3981 0.3832
C104_4 C 0.0002(2) 0.5299(2) 0.3702(2)
C105_4 C 0.0035(3) 0.5322(3) 0.3282(2)
C106_4 C 0.0066(3) 0.4849(3) 0.3081(2)
H36_4 H 0.0103 0.4861 0.2806
C108_4 C 0.0068(3) 0.5846(3) 0.3084(3)
C115_4 C 0.14402(17) 0.9411(3) 0.4015(2)
C116_4 C 0.1603(3) 0.9368(6) 0.3649(3)
H48_4 H 0.1863 0.9565 0.3747
H49_4 H 0.1646 0.8982 0.3599
H50_4 H 0.1406 0.9528 0.3366
C117_4 C 0.0931(5) 0.8711(5) 0.3600(4)
H51_4 H 0.1141 0.8558 0.3514
H52_4 H 0.0796 0.8415 0.3691
H53_4 H 0.0728 0.8906 0.3339
C118_4 C 0.0962(5) 0.9117(7) 0.4303(4)
H54_4 H 0.0778 0.9432 0.4239
H55_4 H 0.0812 0.8783 0.4307
H56_4 H 0.1191 0.9165 0.4600
O82_4 O 0.50281(17) 0.9585(3) 0.39841(19)
N4_4 N 0.4722(5) 0.9255(6) 0.3251(4)
C123_4 C 0.4761(4) 0.9584(6) 0.3586(5)
C125_4 C 0.4451(6) 0.9343(9) 0.2776(5)
H69_4 H 0.4218 0.9567 0.2758
H70_4 H 0.4352 0.8990 0.2628
H71_4 H 0.4599 0.9532 0.2621
C126_4 C 0.5000(6) 0.8799(7) 0.3347(7)
H72_4 H 0.5179 0.8849 0.3186
H73_4 H 0.4844 0.8459 0.3244
H74_4 H 0.5167 0.8779 0.3675
O92_2 O 0.50433(19) 0.8997(2) 0.4851(2)
O51_4 O 0.00171(17) 0.85322(18) 0.96462(16)
O79_4 O 0.1808(6) 0.9753(4) 0.9439(5)
H25_4 H 0.0005 0.7930 0.9041
C76_4 C 0.00097(19) 0.7564(3) 0.9620(2)
C77_4 C 0.00135(19) 0.7071(2) 0.9834(2)
C80_4 C 0.0035(2) 0.8090(2) 0.9878(2)
H38_4 H 0.0915 0.9793 0.7871
O85_2 O 0.17623(17) 0.9700(3) 0.71011(19)
H99_4 H 0.203272 0.971379 0.974641
H100_4 H 0.186187 0.951254 0.922076
C53_4 C 0.7155(3) 0.0260(4) 0.1743(3)
C3_4 C 0.1496(2) 0.0011(3) 0.5463(2)
H1_4 H 0.1392 0.0112 0.5151
C8_4 C 0.2206(2) 0.0056(3) 0.5495(4)
C19_4 C 0.5022(3) 0.0899(4) 0.8072(3)
C20_4 C 0.5025(3) 0.0355(3) 0.8297(3)
C21_4 C 0.5048(2) 0.0331(3) 0.8739(3)
H7_4 H 0.5070 0.0658 0.8908
C122_4 C 0.0075(4) 0.0202(6) 0.6811(5)
H63_4 H 0.0273 0.0159 0.6674
H65_4 H 0.0199 0.0082 0.7129
O35_4 O 0.7191(2) 0.8855(3) 0.0210(2)
O37_4 O 0.7950(2) 0.8091(3) 0.0387(2)
O39_4 O 0.9547(2) 0.6922(2) 0.2315(2)
C46_4 C 0.5932(3) 0.9294(5) 0.0531(4)
C47_4 C 0.6386(3) 0.9442(4) 0.0761(3)
C48_4 C 0.6553(2) 0.9767(4) 0.1147(3)
H16_4 H 0.6388 0.9891 0.1296
C49_4 C 0.6964(2) 0.9912(4) 0.1317(3)
C50_4 C 0.7206(2) 0.9731(4) 0.1104(3)
H17_4 H 0.7485 0.9835 0.1217
C51_4 C 0.7039(3) 0.9395(4) 0.0721(3)
C52_4 C 0.6629(3) 0.9248(5) 0.0545(3)
H18_4 H 0.6516 0.9020 0.0284
C54_4 C 0.7312(3) 0.9208(4) 0.0504(3)
C55_4 C 0.8212(3) 0.8189(4) 0.0784(3)
C56_4 C 0.8422(2) 0.7687(4) 0.1061(2)
C57_4 C 0.8768(2) 0.7744(3) 0.1467(2)
H19_4 H 0.8864 0.8099 0.1581
C58_4 C 0.8972(2) 0.7290(3) 0.1705(2)
C59_4 C 0.8819(3) 0.6764(3) 0.1552(3)
H20_4 H 0.8950 0.6450 0.1723
C60_4 C 0.8469(3) 0.6708(4) 0.1140(3)
C61_4 C 0.8284(3) 0.7169(4) 0.0897(3)
H21_4 H 0.8058 0.7130 0.0612
C62_4 C 0.9344(2) 0.7354(3) 0.2126(2)
C63_4 C 0.8326(3) 0.6142(4) 0.0989(4)
C103_4 C 0.9996(2) 0.4807(2) 0.3900(2)
H35_4 H 0.9984 0.5629 0.3850
C107_4 C 0.9958(2) 0.4790(2) 0.4347(2)
Zn11_4 Zn 0.50560(3) 0.82107(3) 0.73695(3)
O1_4 O 0.05623(15) 0.9791(2) 0.56150(19)
O3_4 O 0.2570(2) 0.9911(3) 0.5709(3)
O5_4 O 0.23528(17) 0.9470(3) 0.7066(2)
O7_4 O 0.29136(19) 0.8450(2) 0.7539(3)
O8_4 O 0.3403(3) 0.8940(3) 0.7455(4)
O9_4 O 0.45050(15) 0.7921(2) 0.72214(19)
O10_4 O 0.44953(18) 0.7005(2) 0.7221(2)
O17_4 O 0.5025(2) 0.8928(2) 0.76129(17)
O18_4 O 0.5010(3) 0.8399(3) 0.8171(2)
O19_4 O 0.50675(17) 0.8316(2) 0.67584(17)
O20_4 O 0.5097(3) 0.7417(2) 0.6729(2)
O21_4 O 0.50167(17) 0.6476(2) 0.53800(16)
O22_4 O 0.5017(3) 0.6934(3) 0.4779(2)
O25_4 O 0.55762(17) 0.7899(2) 0.7765(2)
O26_4 O 0.5449(2) 0.7006(3) 0.7719(2)
O27_4 O 0.6766(2) 0.8565(3) 0.9120(2)
O28_4 O 0.72343(17) 0.7973(3) 0.95356(19)
O30_4 O 0.6503(3) 0.5691(3) 0.8662(4)
O81_4 O 0.3437(3) 0.9666(5) 0.5770(4)
C1_4 C 0.07778(19) 0.9962(2) 0.5418(2)
C2_4 C 0.12350(18) 0.9921(3) 0.5679(2)
C4_4 C 0.1916(2) 0.9950(3) 0.5721(3)
C5_4 C 0.2069(2) 0.9808(3) 0.6169(3)
H2_4 H 0.2354 0.9748 0.6330
C6_4 C 0.1816(2) 0.9749(3) 0.6395(2)
C7_4 C 0.13955(19) 0.9808(3) 0.6152(2)
H3_4 H 0.1218 0.9772 0.6302
C9_4 C 0.1981(2) 0.9634(3) 0.6892(2)
C10_4 C 0.3242(3) 0.8514(4) 0.7469(4)
C11_4 C 0.3430(2) 0.7983(3) 0.7407(3)
C12_4 C 0.3786(3) 0.7963(3) 0.7346(3)
H4_4 H 0.3923 0.8295 0.7343
C13_4 C 0.3951(2) 0.7477(3) 0.7288(3)
C14_4 C 0.3759(2) 0.6988(3) 0.7289(3)
H5_4 H 0.3878 0.6655 0.7250
C15_4 C 0.3394(3) 0.6975(4) 0.7345(3)
C16_4 C 0.3233(2) 0.7487(3) 0.7412(3)
H6_4 H 0.2990 0.7492 0.7462
C17_4 C 0.4347(2) 0.7472(3) 0.7239(3)
C18_4 C 0.3186(3) 0.6466(4) 0.7349(3)
C22_4 C 0.5039(2) 0.9825(2) 0.8934(2)
C23_4 C 0.5018(3) 0.9347(3) 0.8687(2)
H8_4 H 0.5005 0.9001 0.8816
C24_4 C 0.5015(2) 0.9373(3) 0.8256(2)
C25_4 C 0.5013(3) 0.9880(3) 0.8063(3)
H9_4 H 0.5002 0.9900 0.7764
C26_4 C 0.5073(2) 0.9802(3) 0.9409(2)
C27_4 C 0.5024(3) 0.8855(3) 0.8010(3)
C28_4 C 0.5062(2) 0.7877(3) 0.6554(2)
C29_4 C 0.50418(19) 0.7909(2) 0.6073(2)
C30_4 C 0.5034(2) 0.7421(3) 0.5850(2)
H10_4 H 0.5043 0.7079 0.5994
C31_4 C 0.5013(2) 0.7445(3) 0.5403(2)
C32_4 C 0.5014(2) 0.7946(3) 0.5204(2)
H11_4 H 0.5012 0.7959 0.4908
C33_4 C 0.5017(2) 0.8436(3) 0.5434(2)
C34_4 C 0.5034(2) 0.8410(3) 0.5881(2)
H12_4 H 0.5041 0.8736 0.6044
C35_4 C 0.5013(2) 0.6922(3) 0.5154(3)
C36_4 C 0.5008(2) 0.8986(3) 0.5221(2)
C37_4 C 0.5669(2) 0.7403(3) 0.7896(3)
C38_4 C 0.6052(3) 0.7297(3) 0.8303(3)
C39_4 C 0.6289(2) 0.7734(3) 0.8553(2)
H13_4 H 0.6207 0.8100 0.8463
C40_4 C 0.6648(2) 0.7624(3) 0.8937(3)
C41_4 C 0.6770(2) 0.7088(3) 0.9057(3)
H14_4 H 0.7014 0.7014 0.9317
C42_4 C 0.6537(3) 0.6658(4) 0.8797(3)
C43_4 C 0.6186(3) 0.6759(4) 0.8419(3)
H15_4 H 0.6033 0.6464 0.8236
C44_4 C 0.6903(2) 0.8104(3) 0.9209(3)
C45_4 C 0.6663(3) 0.6077(4) 0.8925(3)
C73_4 C 0.99660(19) 0.7121(3) 0.8481(2)
C74_4 C 0.99805(18) 0.7093(2) 0.89437(18)
C75_4 C 0.99994(18) 0.7589(2) 0.9178(2)
C78_4 C 0.99968(19) 0.6573(2) 0.9588(2)
C79_4 C 0.99782(18) 0.6596(2) 0.9150(2)
H27_4 H 0.9964 0.6266 0.8988
C81_4 C 0.9993(2) 0.6025(2) 0.9798(2)
H101_4 H 0.352792 0.960427 0.610221
H102_4 H 0.367131 0.979556 0.570725
H61_4 H 0.9368 0.0098 0.6875
H64_4 H 0.9995 0.0587 0.6797
O78_4 O 0.99337(17) 0.9684(3) 0.60048(19)
N3_4 N 0.9709(2) 0.9864(3) 0.6556(2)
C119_4 C 0.9660(4) 0.9655(6) 0.6172(5)
C120_4 C 0.9308(5) 0.9315(6) 0.5917(6)
H57_4 H 0.9331 0.9175 0.5643
H58_4 H 0.9297 0.9007 0.6108
H59_4 H 0.9058 0.9533 0.5829
C121_4 C 0.9431(5) 0.9757(7) 0.6758(6)
H60_4 H 0.9554 0.9496 0.7009
H62_4 H 0.9179 0.9601 0.6529
N5 N 0.3509(3) 0.4961(5) 0.2539(4)
H75 H 0.3483 0.4721 0.2742
H76 H 0.3468 0.5304 0.2621
C127 C 0.3201(4) 0.4841(8) 0.2087(5)
H77 H 0.3327 0.4837 0.1868
H78 H 0.2988 0.5124 0.1999
H79 H 0.3078 0.4484 0.2089
C128 C 0.3920(3) 0.4923(9) 0.2557(7)
H80 H 0.3943 0.5160 0.2323
H81 H 0.3977 0.4544 0.2503
H82 H 0.4117 0.5040 0.2858
H76_2 H 0.6532 0.0304 0.2379
H78_2 H 0.7012 0.0124 0.3001
H80_2 H 0.6057 0.0160 0.2677
H82_2 H 0.5883 0.0040 0.2142
N5_2 N 0.6491(3) 0.9961(5) 0.2461(4)
H75_2 H 0.6517 0.9721 0.2258
C127_2 C 0.6799(4) 0.9841(8) 0.2913(5)
H77_2 H 0.6673 0.9837 0.3132
H79_2 H 0.6922 0.9484 0.2911
C128_2 C 0.6080(3) 0.9923(9) 0.2443(7)
H81_2 H 0.6023 0.9544 0.2497
N5_3 N 0.6491(3) 0.5039(5) 0.7461(4)
H75_3 H 0.6517 0.5279 0.7258
H76_3 H 0.6532 0.4696 0.7379
C127_3 C 0.6799(4) 0.5159(8) 0.7913(5)
H77_3 H 0.6673 0.5163 0.8132
H78_3 H 0.7012 0.4876 0.8001
H79_3 H 0.6922 0.5516 0.7911
C128_3 C 0.6080(3) 0.5077(9) 0.7443(7)
H80_3 H 0.6057 0.4840 0.7677
H81_3 H 0.6023 0.5456 0.7497
H82_3 H 0.5883 0.4960 0.7142
N5_4 N 0.3509(3) 0.0039(5) 0.7539(4)
H75_4 H 0.3483 0.0279 0.7742
C127_4 C 0.3201(4) 0.0159(8) 0.7087(5)
H77_4 H 0.3327 0.0163 0.6868
H79_4 H 0.3078 0.0516 0.7089
C128_4 C 0.3920(3) 0.0077(9) 0.7557(7)
H81_4 H 0.3977 0.0456 0.7503
H76_4 H 0.3468 0.9696 0.7621
H78_4 H 0.2988 0.9876 0.6999
H80_4 H 0.3943 0.9840 0.7323
H82_4 H 0.4117 0.9960 0.7858
N6 N 0.6866(6) 0.7922(8) 0.5393(10)
H83 H 0.6684 0.7858 0.5102
H84 H 0.6722 0.8018 0.5559
C129 C 0.7092(7) 0.7421(7) 0.5581(8)
H85 H 0.7160 0.7240 0.5350
H86 H 0.6924 0.7176 0.5676
H87 H 0.7344 0.7511 0.5846
C130 C 0.7129(7) 0.8372(8) 0.5394(8)
H88 H 0.7188 0.8351 0.5122
H89 H 0.7385 0.8351 0.5667
H90 H 0.6993 0.8720 0.5393
N6_2 N 0.3134(6) 0.2922(8) 0.9607(10)
H83_2 H 0.3316 0.2858 0.9898
H84_2 H 0.3278 0.3018 0.9441
C129_2 C 0.2908(7) 0.2421(7) 0.9419(8)
H85_2 H 0.2840 0.2240 0.9650
H86_2 H 0.3076 0.2176 0.9324
H87_2 H 0.2656 0.2511 0.9154
C130_2 C 0.2871(7) 0.3372(8) 0.9606(8)
H88_2 H 0.2812 0.3351 0.9878
H89_2 H 0.2615 0.3351 0.9333
H90_2 H 0.3007 0.3720 0.9607
N6_3 N 0.3134(6) 0.2078(8) 0.4607(10)
H83_3 H 0.3316 0.2142 0.4898
H84_3 H 0.3278 0.1982 0.4441
C129_3 C 0.2908(7) 0.2579(7) 0.4419(8)
H85_3 H 0.2840 0.2760 0.4650
H86_3 H 0.3076 0.2824 0.4324
H87_3 H 0.2656 0.2489 0.4154
C130_3 C 0.2871(7) 0.1628(8) 0.4606(8)
H88_3 H 0.2812 0.1649 0.4878
H89_3 H 0.2615 0.1649 0.4333
H90_3 H 0.3007 0.1280 0.4607
N6_4 N 0.6866(6) 0.7078(8) 0.0393(10)
H83_4 H 0.6684 0.7142 0.0102
H84_4 H 0.6722 0.6982 0.0559
C129_4 C 0.7092(7) 0.7579(7) 0.0581(8)
H85_4 H 0.7160 0.7760 0.0350
H86_4 H 0.6924 0.7824 0.0676
H87_4 H 0.7344 0.7489 0.0846
C130_4 C 0.7129(7) 0.6628(8) 0.0394(8)
H88_4 H 0.7188 0.6649 0.0122
H89_4 H 0.7385 0.6649 0.0667
H90_4 H 0.6993 0.6280 0.0393
N7 N 0.4326(4) 0.3086(6) 0.5502(4)
H91 H 0.4157 0.2966 0.5220
H92 H 0.4541 0.3258 0.5477
C131 C 0.4107(5) 0.3478(6) 0.5661(6)
H93 H 0.4093 0.3831 0.5511
H94 H 0.4251 0.3523 0.5992
H95 H 0.3830 0.3343 0.5588
C132 C 0.4475(7) 0.2619(7) 0.5805(7)
H96 H 0.4755 0.2691 0.6026
H97 H 0.4472 0.2293 0.5626
H98 H 0.4299 0.2559 0.5967
N7_2 N 0.5674(4) 0.8086(6) 0.9498(4)
H91_2 H 0.5843 0.7966 0.9780
H92_2 H 0.5459 0.8258 0.9523
C131_2 C 0.5893(5) 0.8478(6) 0.9339(6)
H93_2 H 0.5907 0.8831 0.9489
H94_2 H 0.5749 0.8523 0.9008
H95_2 H 0.6170 0.8343 0.9412
C132_2 C 0.5525(7) 0.7619(7) 0.9195(7)
H96_2 H 0.5245 0.7691 0.8974
H97_2 H 0.5528 0.7293 0.9374
H98_2 H 0.5701 0.7559 0.9033
N7_3 N 0.5674(4) 0.6914(6) 0.4498(4)
H91_3 H 0.5843 0.7034 0.4780
H92_3 H 0.5459 0.6742 0.4523
C131_3 C 0.5893(5) 0.6522(6) 0.4339(6)
H93_3 H 0.5907 0.6169 0.4489
H94_3 H 0.5749 0.6477 0.4008
H95_3 H 0.6170 0.6657 0.4412
C132_3 C 0.5525(7) 0.7381(7) 0.4195(7)
H96_3 H 0.5245 0.7309 0.3974
H97_3 H 0.5528 0.7707 0.4374
H98_3 H 0.5701 0.7441 0.4033
N7_4 N 0.4326(4) 0.1914(6) 0.0502(4)
H91_4 H 0.4157 0.2034 0.0220
H92_4 H 0.4541 0.1742 0.0477
C131_4 C 0.4107(5) 0.1522(6) 0.0661(6)
H93_4 H 0.4093 0.1169 0.0511
H94_4 H 0.4251 0.1477 0.0992
H95_4 H 0.3830 0.1657 0.0588
C132_4 C 0.4475(7) 0.2381(7) 0.0805(7)
H96_4 H 0.4755 0.2309 0.1026
H97_4 H 0.4472 0.2707 0.0626
H98_4 H 0.4299 0.2441 0.0967
loop_
_geom_bond_atom_site_label_1
_geom_bond_atom_site_label_2
_geom_bond_site_symmetry_1
_geom_bond_site_symmetry_2
Zn9 O67 1_555 1_555
O67 C100 1_555 1_555
O68 C100 1_555 1_555
C100 C101 1_555 1_555
C101 C102 1_555 1_555
C102 H34 1_555 1_555
C106 C101 1_555 1_555
H36 C106 1_555 1_555
O102 Zn9 1_555 1_555
O107 Zn9 1_555 1_555
Zn19 O64 1_555 1_555
Zn1 O63 1_555 1_555
Zn2 O65 1_555 1_555
Zn3 O45 1_555 1_555
Zn4 O46 1_555 1_555
Zn5 O47 1_555 1_555
Zn6 O43 1_555 1_555
Zn7 O74 1_555 1_555
O43 C64 1_555 1_555
O44 C64 1_555 1_555
O45 C71 1_555 1_555
O46 C71 1_555 1_555
O47 C72 1_555 1_555
O48 C72 1_555 1_555
O51 Zn5 1_555 1_555
O52 C80 1_555 1_555
O55 Zn4 1_555 1_555
O56 C82 1_555 1_555
O57 C89 1_555 1_555
O58 Zn8 1_555 1_555
O59 C90 1_555 1_555
O60 C90 1_555 1_555
O61 Zn3 1_555 1_555
O62 Zn4 1_555 1_555
O63 C98 1_555 1_555
O65 C99 1_555 1_555
O66 C99 1_555 1_555
O71 Zn8 1_555 1_555
O72 Zn8 1_555 1_555
O73 Zn6 1_555 1_555
O74 C109 1_555 1_555
O75 Zn7 1_555 1_555
O76 Zn7 1_555 1_555
O77 Zn2 1_555 1_555
O79 Zn6 1_555 1_555
O80 Zn3 1_555 1_555
N1 C111 1_555 1_555
N2 C115 1_555 1_555
C64 C65 1_555 1_555
C65 C66 1_555 1_555
C66 H22 1_555 1_555
C67 C66 1_555 1_555
C68 C67 1_555 1_555
H23 C68 1_555 1_555
C69 C68 1_555 1_555
C70 C65 1_555 1_555
H24 C70 1_555 1_555
C71 C67 1_555 1_555
C72 C69 1_555 1_555
C77 C76 1_555 1_555
H26 C77 1_555 1_555
C80 O51 1_555 1_555
C82 O55 1_555 1_555
C83 C82 1_555 1_555
C84 C83 1_555 1_555
H28 C84 1_555 1_555
C85 C84 1_555 1_555
C86 C85 1_555 1_555
H29 C86 1_555 1_555
C87 C86 1_555 1_555
C88 C83 1_555 1_555
H30 C88 1_555 1_555
C89 O58 1_555 1_555
C90 C87 1_555 1_555
C91 O61 1_555 1_555
C92 C91 1_555 1_555
C93 C92 1_555 1_555
H31 C93 1_555 1_555
C94 C93 1_555 1_555
C95 C94 1_555 1_555
H32 C95 1_555 1_555
C96 C95 1_555 1_555
C97 C92 1_555 1_555
H33 C97 1_555 1_555
C98 C94 1_555 1_555
C99 C96 1_555 1_555
C105 C104 1_555 1_555
C108 O71 1_555 1_555
C109 O73 1_555 1_555
C110 O75 1_555 1_555
H37 C110 1_555 1_555
H38 C110 1_555 1_555
C111 O76 1_555 1_555
C112 C111 1_555 1_555
H39 C112 1_555 1_555
H40 C112 1_555 1_555
H41 C112 1_555 1_555
C113 N1 1_555 1_555
H42 C113 1_555 1_555
H43 C113 1_555 1_555
H44 C113 1_555 1_555
C114 N1 1_555 1_555
H45 C114 1_555 1_555
H46 C114 1_555 1_555
H47 C114 1_555 1_555
C115 O77 1_555 1_555
C116 C115 1_555 1_555
H48 C116 1_555 1_555
H49 C116 1_555 1_555
H50 C116 1_555 1_555
C117 N2 1_555 1_555
H51 C117 1_555 1_555
H52 C117 1_555 1_555
H53 C117 1_555 1_555
C118 N2 1_555 1_555
H54 C118 1_555 1_555
H55 C118 1_555 1_555
H56 C118 1_555 1_555
O82 Zn1 1_555 1_555
N4 C123 1_555 1_555
C123 O82 1_555 1_555
C124 C123 1_555 1_555
H66 C124 1_555 1_555
H67 C124 1_555 1_555
H68 C124 1_555 1_555
C125 N4 1_555 1_555
H69 C125 1_555 1_555
H70 C125 1_555 1_555
H71 C125 1_555 1_555
C126 N4 1_555 1_555
H72 C126 1_555 1_555
H73 C126 1_555 1_555
H74 C126 1_555 1_555
Zn29 O59 1_555 1_555
Zn33 O44 1_555 1_555
Zn38 O60 1_555 1_555
O85 Zn7 1_555 1_555
O86 Zn3 1_555 1_555
O87 Zn4 1_555 1_555
O92 Zn1 1_555 1_555
O93 Zn1 1_555 1_555
O99 Zn7 1_555 1_555
O100 Zn6 1_555 1_555
O101 Zn6 1_555 1_555
O103 Zn2 1_555 1_555
O104 Zn2 1_555 1_555
O111 Zn7 1_555 1_555
O113 Zn1 1_555 1_555
O62 C91 1_555 1_555
O72 C108 1_555 1_555
C69 C70 1_555 1_555
C76 C80 1_555 1_555
C85 C89 1_555 1_555
C87 C88 1_555 1_555
C96 C97 1_555 1_555
C105 C108 1_555 1_555
C109 C110 1_555 1_555
O79 H99 1_555 1_555
O79 H100 1_555 1_555
O80 H103 1_555 1_555
O80 H104 1_555 1_555
C107 C103 1_555 1_555
Zn10 O28 1_555 1_555
Zn11 O9 1_555 1_555
Zn12 O10 1_555 1_555
Zn13 O21 1_555 1_555
Zn14 O5 1_555 1_555
Zn39 O3 1_555 1_555
O1 C1 1_555 1_555
O2 C1 1_555 1_555
O3 C8 1_555 1_555
O84 C8 1_555 1_555
O5 C9 1_555 1_555
O85 C9 1_555 1_555
O7 Zn14 1_555 1_555
O8 C10 1_555 1_555
O9 C17 1_555 1_555
O10 C17 1_555 1_555
O11 C18 1_555 1_555
O12 C18 1_555 1_555
O13 C19 1_555 1_555
O14 C19 1_555 1_555
O15 C26 1_555 1_555
O16 C26 1_555 1_555
O17 Zn11 1_555 1_555
O18 C27 1_555 1_555
O19 Zn11 1_555 1_555
O20 Zn12 1_555 1_555
O21 C35 1_555 1_555
O24 C36 1_555 1_555
O25 Zn11 1_555 1_555
O26 Zn12 1_555 1_555
O27 C44 1_555 1_555
O28 C44 1_555 1_555
O29 C45 1_555 1_555
O30 C45 1_555 1_555
O31 C46 1_555 1_555
O32 C46 1_555 1_555
O33 C53 1_555 1_555
O34 C53 1_555 1_555
O35 Zn10 1_555 1_555
O36 C54 1_555 1_555
O37 Zn10 1_555 1_555
O38 C55 1_555 1_555
O39 C62 1_555 1_555
O40 C62 1_555 1_555
O41 C63 1_555 1_555
O42 C63 1_555 1_555
O49 C73 1_555 1_555
O50 C73 1_555 1_555
O53 C81 1_555 1_555
O81 Zn39 1_555 1_555
C1 C2 1_555 1_555
C2 C3 1_555 1_555
C3 H1 1_555 1_555
C4 C3 1_555 1_555
C5 C4 1_555 1_555
H2 C5 1_555 1_555
C6 C5 1_555 1_555
C7 C2 1_555 1_555
H3 C7 1_555 1_555
C8 C4 1_555 1_555
C9 C6 1_555 1_555
C10 O7 1_555 1_555
C11 C10 1_555 1_555
C12 C11 1_555 1_555
H4 C12 1_555 1_555
C13 C12 1_555 1_555
C14 C13 1_555 1_555
H5 C14 1_555 1_555
C15 C14 1_555 1_555
C16 C11 1_555 1_555
H6 C16 1_555 1_555
C17 C13 1_555 1_555
C18 C15 1_555 1_555
C19 C20 1_555 1_555
C20 C21 1_555 1_555
C21 H7 1_555 1_555
C22 C21 1_555 1_555
C23 C22 1_555 1_555
H8 C23 1_555 1_555
C24 C23 1_555 1_555
C25 C20 1_555 1_555
H9 C25 1_555 1_555
C26 C22 1_555 1_555
C27 O17 1_555 1_555
C28 O19 1_555 1_555
C29 C28 1_555 1_555
C30 C29 1_555 1_555
H10 C30 1_555 1_555
C31 C30 1_555 1_555
C32 C31 1_555 1_555
C33 C32 1_555 1_555
C34 C29 1_555 1_555
H12 C34 1_555 1_555
C35 C31 1_555 1_555
C36 C33 1_555 1_555
C37 O25 1_555 1_555
C38 C37 1_555 1_555
C39 C38 1_555 1_555
H13 C39 1_555 1_555
C40 C39 1_555 1_555
C41 C40 1_555 1_555
H14 C41 1_555 1_555
C42 C41 1_555 1_555
C43 C38 1_555 1_555
H15 C43 1_555 1_555
C44 C40 1_555 1_555
C45 C42 1_555 1_555
C46 C47 1_555 1_555
C47 C48 1_555 1_555
C48 H16 1_555 1_555
C49 C48 1_555 1_555
C50 C49 1_555 1_555
H17 C50 1_555 1_555
C51 C50 1_555 1_555
C52 C47 1_555 1_555
H18 C52 1_555 1_555
C53 C49 1_555 1_555
C54 O35 1_555 1_555
C55 O37 1_555 1_555
C56 C55 1_555 1_555
C57 C56 1_555 1_555
H19 C57 1_555 1_555
C58 C57 1_555 1_555
C59 C58 1_555 1_555
H20 C59 1_555 1_555
C60 C59 1_555 1_555
C61 C56 1_555 1_555
H21 C61 1_555 1_555
C62 C58 1_555 1_555
C63 C60 1_555 1_555
C73 C74 1_555 1_555
C74 C75 1_555 1_555
C79 C74 1_555 1_555
H27 C79 1_555 1_555
C81 C78 1_555 1_555
H63 C122 1_555 1_555
H65 C122 1_555 1_555
Zn19 O24 1_555 1_555
Zn21 O41 1_555 1_555
Zn22 O11 1_555 1_555
Zn23 O12 1_555 1_555
Zn26 O36 1_555 1_555
Zn28 O34 1_555 1_555
Zn31 O40 1_555 1_555
Zn32 O50 1_555 1_555
Zn34 O13 1_555 1_555
Zn35 O15 1_555 1_555
Zn36 O16 1_555 1_555
Zn37 O33 1_555 1_555
Zn40 O29 1_555 1_555
Zn43 O53 1_555 1_555
O88 Zn12 1_555 1_555
O89 Zn12 1_555 1_555
O90 Zn13 1_555 1_555
O94 Zn39 1_555 1_555
O95 Zn13 1_555 1_555
O96 Zn13 1_555 1_555
O97 Zn14 1_555 1_555
O99 Zn14 1_555 1_555
O105 Zn10 1_555 1_555
O112 Zn14 1_555 1_555
O14 Zn34 1_555 1_555
O20 C28 1_555 1_555
O26 C37 1_555 1_555
O31 Zn36 1_555 1_555
O32 Zn36 1_555 1_555
O34 Zn37 1_555 1_555
O38 Zn26 1_555 1_555
O42 Zn21 1_555 1_555
C6 C7 1_555 1_555
C15 C16 1_555 1_555
C24 C25 1_555 1_555
C24 C27 1_555 1_555
C33 C34 1_555 1_555
C42 C43 1_555 1_555
C51 C52 1_555 1_555
C51 C54 1_555 1_555
C60 C61 1_555 1_555
C78 C79 1_555 1_555
O81 H101 1_555 1_555
O81 H102 1_555 1_555
O78 Zn16 1_555 1_555
N3 C119 1_555 1_555
C119 O78 1_555 1_555
C120 C119 1_555 1_555
H57 C120 1_555 1_555
H58 C120 1_555 1_555
H59 C120 1_555 1_555
C121 N3 1_555 1_555
H60 C121 1_555 1_555
H61 C121 1_555 1_555
H62 C121 1_555 1_555
O108 Zn16 1_555 1_555
O109 Zn16 1_555 1_555
O78_2 Zn41 1_555 1_555
N3_2 C119_2 1_555 1_555
C119_2 O78_2 1_555 1_555
C120_2 C119_2 1_555 1_555
H57_2 C120_2 1_555 1_555
H58_2 C120_2 1_555 1_555
H59_2 C120_2 1_555 1_555
C121_2 N3_2 1_555 1_555
H60_2 C121_2 1_555 1_555
H62_2 C121_2 1_555 1_555
O83_2 Zn41 1_555 1_555
O108_2 Zn41 1_555 1_555
Zn10_2 O28_2 1_555 1_555
Zn11_2 O9_2 1_555 1_555
Zn34 O10_2 1_555 1_555
Zn35 O21_2 1_555 1_555
Zn14_2 O5_2 1_555 1_555
O1_2 C1_2 1_555 1_555
O5_2 C9_2 1_555 1_555
O6 C9_2 1_555 1_555
O7_2 Zn14_2 1_555 1_555
O8_2 C10_2 1_555 1_555
O9_2 C17_2 1_555 1_555
O10_2 C17_2 1_555 1_555
O11_2 C18_2 1_555 1_555
O12_2 C18_2 1_555 1_555
O16_2 C26_2 1_555 1_555
O17_2 Zn11_2 1_555 1_555
O18_2 C27_2 1_555 1_555
O19_2 Zn11_2 1_555 1_555
O20_2 Zn34 1_555 1_555
O21_2 C35_2 1_555 1_555
O22_2 C35_2 1_555 1_555
O23 C36_2 1_555 1_555
O24_2 C36_2 1_555 1_555
O25_2 Zn11_2 1_555 1_555
O26_2 Zn34 1_555 1_555
O27_2 C44_2 1_555 1_555
O28_2 C44_2 1_555 1_555
O94 C45_2 1_555 1_555
O30_2 C45_2 1_555 1_555
O49_2 C73_2 1_555 1_555
O50_2 C73_2 1_555 1_555
C1_2 C2_2 1_555 1_555
C5_2 C4_2 1_555 1_555
H2_2 C5_2 1_555 1_555
C6_2 C5_2 1_555 1_555
C7_2 C2_2 1_555 1_555
H3_2 C7_2 1_555 1_555
C9_2 C6_2 1_555 1_555
C10_2 O7_2 1_555 1_555
C11_2 C10_2 1_555 1_555
C12_2 C11_2 1_555 1_555
H4_2 C12_2 1_555 1_555
C13_2 C12_2 1_555 1_555
C14_2 C13_2 1_555 1_555
H5_2 C14_2 1_555 1_555
C15_2 C14_2 1_555 1_555
C16_2 C11_2 1_555 1_555
H6_2 C16_2 1_555 1_555
C17_2 C13_2 1_555 1_555
C18_2 C15_2 1_555 1_555
C23_2 C22_2 1_555 1_555
H8_2 C23_2 1_555 1_555
C24_2 C23_2 1_555 1_555
H9_2 C25_2 1_555 1_555
C26_2 C22_2 1_555 1_555
C27_2 O17_2 1_555 1_555
C28_2 O19_2 1_555 1_555
C29_2 C28_2 1_555 1_555
C30_2 C29_2 1_555 1_555
H10_2 C30_2 1_555 1_555
C31_2 C30_2 1_555 1_555
C32_2 C31_2 1_555 1_555
H11_2 C32_2 1_555 1_555
C33_2 C32_2 1_555 1_555
C34_2 C29_2 1_555 1_555
H12_2 C34_2 1_555 1_555
C35_2 C31_2 1_555 1_555
C36_2 C33_2 1_555 1_555
C37_2 O25_2 1_555 1_555
C38_2 C37_2 1_555 1_555
C39_2 C38_2 1_555 1_555
H13_2 C39_2 1_555 1_555
C40_2 C39_2 1_555 1_555
C41_2 C40_2 1_555 1_555
H14_2 C41_2 1_555 1_555
C42_2 C41_2 1_555 1_555
C43_2 C38_2 1_555 1_555
H15_2 C43_2 1_555 1_555
C44_2 C40_2 1_555 1_555
C45_2 C42_2 1_555 1_555
C73_2 C74_2 1_555 1_555
C74_2 C75_2 1_555 1_555
C79_2 C74_2 1_555 1_555
H27_2 C79_2 1_555 1_555
C81_2 C78_2 1_555 1_555
Zn17 O23 1_555 1_555
Zn22_2 O11_2 1_555 1_555
Zn23_2 O12_2 1_555 1_555
Zn27 O6 1_555 1_555
Zn32_2 O50_2 1_555 1_555
O91_2 Zn35 1_555 1_555
O95_2 Zn35 1_555 1_555
O96_2 Zn35 1_555 1_555
O97_2 Zn14_2 1_555 1_555
O98 Zn14_2 1_555 1_555
O105_2 Zn10_2 1_555 1_555
O112_2 Zn14_2 1_555 1_555
O20_2 C28_2 1_555 1_555
O26_2 C37_2 1_555 1_555
C6_2 C7_2 1_555 1_555
C15_2 C16_2 1_555 1_555
C24_2 C25_2 1_555 1_555
C24_2 C27_2 1_555 1_555
C33_2 C34_2 1_555 1_555
C42_2 C43_2 1_555 1_555
C78_2 C79_2 1_555 1_555
Zn27 O98 1_555 1_555
O81_2 H101_2 1_555 1_555
O81_2 H102_2 1_555 1_555
O31_2 C46_2 1_555 1_555
O32_2 C46_2 1_555 1_555
O36_2 C54_2 1_555 1_555
O38_2 C55_2 1_555 1_555
O39_2 C62_2 1_555 1_555
O102 C62_2 1_555 1_555
O103 C63_2 1_555 1_555
O104 C63_2 1_555 1_555
O70_2 C107_2 1_555 1_555
C46_2 C47_2 1_555 1_555
C47_2 C48_2 1_555 1_555
C48_2 H16_2 1_555 1_555
C49_2 C48_2 1_555 1_555
C50_2 C49_2 1_555 1_555
H17_2 C50_2 1_555 1_555
C51_2 C50_2 1_555 1_555
C52_2 C47_2 1_555 1_555
H18_2 C52_2 1_555 1_555
C54_2 O35_2 1_555 1_555
C55_2 O37_2 1_555 1_555
C56_2 C55_2 1_555 1_555
C57_2 C56_2 1_555 1_555
H19_2 C57_2 1_555 1_555
C58_2 C57_2 1_555 1_555
C59_2 C58_2 1_555 1_555
H20_2 C59_2 1_555 1_555
C60_2 C59_2 1_555 1_555
C61_2 C56_2 1_555 1_555
H21_2 C61_2 1_555 1_555
C62_2 C58_2 1_555 1_555
C63_2 C60_2 1_555 1_555
C107_2 C103_2 1_555 1_555
Zn26_2 O36_2 1_555 1_555
Zn42 O53_2 1_555 1_555
O31_2 Zn36_2 1_555 1_555
O32_2 Zn36_2 1_555 1_555
O38_2 Zn26_2 1_555 1_555
C51_2 C52_2 1_555 1_555
C51_2 C54_2 1_555 1_555
C60_2 C61_2 1_555 1_555
O4 C8_2 1_555 1_555
O88 C19_2 1_555 1_555
O89 C19_2 1_555 1_555
C3_2 H1_2 1_555 1_555
C19_2 C20_2 1_555 1_555
C20_2 C21_2 1_555 1_555
C21_2 H7_2 1_555 1_555
H63_2 C122_2 1_555 1_555
H65_2 C122_2 1_555 1_555
Zn21 O4 1_555 1_555
Zn43 O2_2 1_555 1_555
O114 Zn40 1_555 1_555
O33_2 C53_2 1_555 1_555
O34_2 C53_2 1_555 1_555
Zn29 O34_2 1_555 1_555
Zn38 O33_2 1_555 1_555
O34_2 Zn38 1_555 1_555
O51_2 Zn24 1_555 1_555
C77_2 C76_2 1_555 1_555
C80_2 O51_2 1_555 1_555
O111_2 Zn27 1_555 1_555
C76_2 C80_2 1_555 1_555
O79_2 H99_2 1_555 1_555
O79_2 H100_2 1_555 1_555
Zn17 O63_2 1_555 1_555
Zn3_2 O45_2 1_555 1_555
Zn4_2 O46_2 1_555 1_555
Zn31 O67_2 1_555 1_555
O45_2 C71_2 1_555 1_555
O46_2 C71_2 1_555 1_555
O47_2 C72_2 1_555 1_555
O48_2 C72_2 1_555 1_555
O55_2 Zn4_2 1_555 1_555
O56_2 C82_2 1_555 1_555
O110 C89_2 1_555 1_555
O58_2 Zn8_2 1_555 1_555
O59_2 C90_2 1_555 1_555
O60_2 C90_2 1_555 1_555
O61_2 Zn3_2 1_555 1_555
O62_2 Zn4_2 1_555 1_555
O63_2 C98_2 1_555 1_555
O67_2 C100_2 1_555 1_555
O68_2 C100_2 1_555 1_555
O71_2 Zn8_2 1_555 1_555
O72_2 Zn8_2 1_555 1_555
N2_2 C115_2 1_555 1_555
C68_2 C67_2 1_555 1_555
H23_2 C68_2 1_555 1_555
C69_2 C68_2 1_555 1_555
C71_2 C67_2 1_555 1_555
C72_2 C69_2 1_555 1_555
C82_2 O55_2 1_555 1_555
C83_2 C82_2 1_555 1_555
C84_2 C83_2 1_555 1_555
H28_2 C84_2 1_555 1_555
C85_2 C84_2 1_555 1_555
C86_2 C85_2 1_555 1_555
H29_2 C86_2 1_555 1_555
C87_2 C86_2 1_555 1_555
C88_2 C83_2 1_555 1_555
H30_2 C88_2 1_555 1_555
C89_2 O58_2 1_555 1_555
C90_2 C87_2 1_555 1_555
C91_2 O61_2 1_555 1_555
C92_2 C91_2 1_555 1_555
C93_2 C92_2 1_555 1_555
H31_2 C93_2 1_555 1_555
C94_2 C93_2 1_555 1_555
C97_2 C92_2 1_555 1_555
H33_2 C97_2 1_555 1_555
C98_2 C94_2 1_555 1_555
C100_2 C101_2 1_555 1_555
C101_2 C102_2 1_555 1_555
C102_2 H34_2 1_555 1_555
C105_2 C104_2 1_555 1_555
C106_2 C101_2 1_555 1_555
H36_2 C106_2 1_555 1_555
C108_2 O71_2 1_555 1_555
C115_2 O77_2 1_555 1_555
C116_2 C115_2 1_555 1_555
H48_2 C116_2 1_555 1_555
H49_2 C116_2 1_555 1_555
H50_2 C116_2 1_555 1_555
C117_2 N2_2 1_555 1_555
H51_2 C117_2 1_555 1_555
H52_2 C117_2 1_555 1_555
H53_2 C117_2 1_555 1_555
C118_2 N2_2 1_555 1_555
H54_2 C118_2 1_555 1_555
H55_2 C118_2 1_555 1_555
H56_2 C118_2 1_555 1_555
O82_2 Zn17 1_555 1_555
N4_2 C123_2 1_555 1_555
C123_2 O82_2 1_555 1_555
C125_2 N4_2 1_555 1_555
H69_2 C125_2 1_555 1_555
H70_2 C125_2 1_555 1_555
H71_2 C125_2 1_555 1_555
C126_2 N4_2 1_555 1_555
H72_2 C126_2 1_555 1_555
H73_2 C126_2 1_555 1_555
H74_2 C126_2 1_555 1_555
Zn28 O59_2 1_555 1_555
Zn37 O60_2 1_555 1_555
O86_2 Zn3_2 1_555 1_555
O87_2 Zn4_2 1_555 1_555
O107_2 Zn31 1_555 1_555
O113_2 Zn17 1_555 1_555
O62_2 C91_2 1_555 1_555
O72_2 C108_2 1_555 1_555
C85_2 C89_2 1_555 1_555
C87_2 C88_2 1_555 1_555
C96_2 C97_2 1_555 1_555
C105_2 C106_2 1_555 1_555
C105_2 C108_2 1_555 1_555
Zn6_2 O43_2 1_555 1_555
O73_2 Zn6_2 1_555 1_555
O74_2 C109_2 1_555 1_555
N1_2 C111_2 1_555 1_555
C109_2 O73_2 1_555 1_555
C110_2 O75_2 1_555 1_555
H37_2 C110_2 1_555 1_555
C111_2 O76_2 1_555 1_555
C112_2 C111_2 1_555 1_555
H39_2 C112_2 1_555 1_555
H40_2 C112_2 1_555 1_555
H41_2 C112_2 1_555 1_555
C113_2 N1_2 1_555 1_555
H42_2 C113_2 1_555 1_555
H43_2 C113_2 1_555 1_555
H44_2 C113_2 1_555 1_555
C114_2 N1_2 1_555 1_555
H45_2 C114_2 1_555 1_555
H46_2 C114_2 1_555 1_555
H47_2 C114_2 1_555 1_555
O100_2 Zn6_2 1_555 1_555
O101_2 Zn6_2 1_555 1_555
C109_2 C110_2 1_555 1_555
Zn21 O65_2 1_555 1_555
O44_2 C64_2 1_555 1_555
O65_2 C99_2 1_555 1_555
O114 C99_2 1_555 1_555
C64_2 C65_2 1_555 1_555
C65_2 C66_2 1_555 1_555
C66_2 H22_2 1_555 1_555
C70_2 C65_2 1_555 1_555
H24_2 C70_2 1_555 1_555
H32_2 C95_2 1_555 1_555
H66_2 C124_2 1_555 1_555
H67_2 C124_2 1_555 1_555
H68_2 C124_2 1_555 1_555
Zn18 O64_2 1_555 1_555
Zn33_2 O44_2 1_555 1_555
O80_2 H103_2 1_555 1_555
O80_2 H104_2 1_555 1_555
O78_3 Zn42 1_555 1_555
N3_3 C119_3 1_555 1_555
C119_3 O78_3 1_555 1_555
C120_3 C119_3 1_555 1_555
H57_3 C120_3 1_555 1_555
H58_3 C120_3 1_555 1_555
H59_3 C120_3 1_555 1_555
C121_3 N3_3 1_555 1_555
H60_3 C121_3 1_555 1_555
H61_3 C121_3 1_555 1_555
H62_3 C121_3 1_555 1_555
O109_2 Zn42 1_555 1_555
Zn19 O23_2 1_555 1_555
Zn33 O28_3 1_555 1_555
Zn11_3 O9_3 1_555 1_555
Zn12_2 O10_3 1_555 1_555
Zn36_2 O21_3 1_555 1_555
Zn37 O5_3 1_555 1_555
Zn15 O3_3 1_555 1_555
O1_3 C1_3 1_555 1_555
O83 C1_3 1_555 1_555
O3_3 C8_3 1_555 1_555
O4_2 C8_3 1_555 1_555
O5_3 C9_3 1_555 1_555
O6_2 C9_3 1_555 1_555
O7_3 Zn37 1_555 1_555
O8_3 C10_3 1_555 1_555
O9_3 C17_3 1_555 1_555
O10_3 C17_3 1_555 1_555
O86_2 C18_3 1_555 1_555
O87_2 C18_3 1_555 1_555
O13_2 C19_3 1_555 1_555
O14_2 C19_3 1_555 1_555
O15_2 C26_3 1_555 1_555
O91_2 C26_3 1_555 1_555
O17_3 Zn11_3 1_555 1_555
O18_3 C27_3 1_555 1_555
O19_3 Zn11_3 1_555 1_555
O20_3 Zn12_2 1_555 1_555
O21_3 C35_3 1_555 1_555
O93 C36_3 1_555 1_555
O25_3 Zn11_3 1_555 1_555
O26_3 Zn12_2 1_555 1_555
O27_3 C44_3 1_555 1_555
O28_3 C44_3 1_555 1_555
O29_2 C45_3 1_555 1_555
O30_3 C45_3 1_555 1_555
O95_2 C46_3 1_555 1_555
O96_2 C46_3 1_555 1_555
O97 C53_3 1_555 1_555
O99 C53_3 1_555 1_555
O35_3 Zn33 1_555 1_555
O100 C54_3 1_555 1_555
O37_3 Zn33 1_555 1_555
O101 C55_3 1_555 1_555
O39_3 C62_3 1_555 1_555
O40_2 C62_3 1_555 1_555
O41_2 C63_3 1_555 1_555
O42_2 C63_3 1_555 1_555
O106_2 C73_3 1_555 1_555
O107 C73_3 1_555 1_555
O108_2 C81_3 1_555 1_555
O81_3 Zn15 1_555 1_555
C1_3 C2_3 1_555 1_555
C2_3 C3_3 1_555 1_555
C3_3 H1_3 1_555 1_555
C4_3 C3_3 1_555 1_555
C5_3 C4_3 1_555 1_555
H2_3 C5_3 1_555 1_555
C6_3 C5_3 1_555 1_555
C7_3 C2_3 1_555 1_555
H3_3 C7_3 1_555 1_555
C8_3 C4_3 1_555 1_555
C9_3 C6_3 1_555 1_555
C10_3 O7_3 1_555 1_555
C11_3 C10_3 1_555 1_555
C12_3 C11_3 1_555 1_555
H4_3 C12_3 1_555 1_555
C13_3 C12_3 1_555 1_555
C14_3 C13_3 1_555 1_555
H5_3 C14_3 1_555 1_555
C15_3 C14_3 1_555 1_555
C16_3 C11_3 1_555 1_555
H6_3 C16_3 1_555 1_555
C17_3 C13_3 1_555 1_555
C18_3 C15_3 1_555 1_555
C19_3 C20_3 1_555 1_555
C20_3 C21_3 1_555 1_555
C21_3 H7_3 1_555 1_555
C22_3 C21_3 1_555 1_555
C23_3 C22_3 1_555 1_555
H8_3 C23_3 1_555 1_555
C24_3 C23_3 1_555 1_555
C25_3 C20_3 1_555 1_555
H9_3 C25_3 1_555 1_555
C26_3 C22_3 1_555 1_555
C27_3 O17_3 1_555 1_555
C28_3 O19_3 1_555 1_555
C29_3 C28_3 1_555 1_555
C30_3 C29_3 1_555 1_555
H10_3 C30_3 1_555 1_555
C31_3 C30_3 1_555 1_555
C32_3 C31_3 1_555 1_555
C33_3 C32_3 1_555 1_555
C34_3 C29_3 1_555 1_555
H12_3 C34_3 1_555 1_555
C35_3 C31_3 1_555 1_555
C36_3 C33_3 1_555 1_555
C37_3 O25_3 1_555 1_555
C38_3 C37_3 1_555 1_555
C39_3 C38_3 1_555 1_555
H13_3 C39_3 1_555 1_555
C40_3 C39_3 1_555 1_555
C41_3 C40_3 1_555 1_555
H14_3 C41_3 1_555 1_555
C42_3 C41_3 1_555 1_555
C43_3 C38_3 1_555 1_555
H15_3 C43_3 1_555 1_555
C44_3 C40_3 1_555 1_555
C45_3 C42_3 1_555 1_555
C46_3 C47_3 1_555 1_555
C47_3 C48_3 1_555 1_555
C48_3 H16_3 1_555 1_555
C49_3 C48_3 1_555 1_555
C50_3 C49_3 1_555 1_555
H17_3 C50_3 1_555 1_555
C51_3 C50_3 1_555 1_555
C52_3 C47_3 1_555 1_555
H18_3 C52_3 1_555 1_555
C53_3 C49_3 1_555 1_555
C54_3 O35_3 1_555 1_555
C55_3 O37_3 1_555 1_555
C56_3 C55_3 1_555 1_555
C57_3 C56_3 1_555 1_555
H19_3 C57_3 1_555 1_555
C58_3 C57_3 1_555 1_555
C59_3 C58_3 1_555 1_555
H20_3 C59_3 1_555 1_555
C60_3 C59_3 1_555 1_555
C61_3 C56_3 1_555 1_555
H21_3 C61_3 1_555 1_555
C62_3 C58_3 1_555 1_555
C63_3 C60_3 1_555 1_555
C73_3 C74_3 1_555 1_555
C74_3 C75_3 1_555 1_555
C79_3 C74_3 1_555 1_555
H27_3 C79_3 1_555 1_555
C81_3 C78_3 1_555 1_555
H63_3 C122_3 1_555 1_555
H65_3 C122_3 1_555 1_555
Zn21_2 O41_2 1_555 1_555
Zn28 O6_2 1_555 1_555
Zn32_2 O40_2 1_555 1_555
Zn34_2 O13_2 1_555 1_555
Zn36 O15_2 1_555 1_555
Zn40_2 O29_2 1_555 1_555
O88_2 Zn12_2 1_555 1_555
O89_2 Zn12_2 1_555 1_555
O90_2 Zn36_2 1_555 1_555
O94_2 Zn15 1_555 1_555
O14_2 Zn34_2 1_555 1_555
O20_3 C28_3 1_555 1_555
O26_3 C37_3 1_555 1_555
O42_2 Zn21_2 1_555 1_555
C6_3 C7_3 1_555 1_555
C15_3 C16_3 1_555 1_555
C24_3 C25_3 1_555 1_555
C24_3 C27_3 1_555 1_555
C33_3 C34_3 1_555 1_555
C42_3 C43_3 1_555 1_555
C51_3 C52_3 1_555 1_555
C51_3 C54_3 1_555 1_555
C60_3 C61_3 1_555 1_555
C78_3 C79_3 1_555 1_555
O81_3 H101_3 1_555 1_555
O81_3 H102_3 1_555 1_555
C107_3 C103_3 1_555 1_555
Zn19 O63_3 1_555 1_555
Zn20 O65_3 1_555 1_555
Zn22_2 O45_3 1_555 1_555
Zn23_2 O46_3 1_555 1_555
Zn25_2 O47_3 1_555 1_555
Zn26 O43_3 1_555 1_555
Zn28 O74_3 1_555 1_555
O43_3 C64_3 1_555 1_555
O105 C64_3 1_555 1_555
O45_3 C71_3 1_555 1_555
O46_3 C71_3 1_555 1_555
O47_3 C72_3 1_555 1_555
O48_3 C72_3 1_555 1_555
O51_3 Zn25_2 1_555 1_555
O52_3 C80_3 1_555 1_555
O55_3 Zn23_2 1_555 1_555
O56_3 C82_3 1_555 1_555
O57_2 C89_3 1_555 1_555
O58_3 Zn30_2 1_555 1_555
O111_2 C90_3 1_555 1_555
O112_2 C90_3 1_555 1_555
O61_3 Zn22_2 1_555 1_555
O62_3 Zn23_2 1_555 1_555
O63_3 C98_3 1_555 1_555
O65_3 C99_3 1_555 1_555
O114_2 C99_3 1_555 1_555
O71_3 Zn30_2 1_555 1_555
O72_3 Zn30_2 1_555 1_555
O73_3 Zn26 1_555 1_555
O74_3 C109_3 1_555 1_555
O75_3 Zn28 1_555 1_555
O76_3 Zn28 1_555 1_555
O77_3 Zn20 1_555 1_555
O79_3 Zn26 1_555 1_555
O80_3 Zn22_2 1_555 1_555
N1_3 C111_3 1_555 1_555
N2_3 C115_3 1_555 1_555
C64_3 C65_3 1_555 1_555
C65_3 C66_3 1_555 1_555
C66_3 H22_3 1_555 1_555
C67_3 C66_3 1_555 1_555
C68_3 C67_3 1_555 1_555
H23_3 C68_3 1_555 1_555
C69_3 C68_3 1_555 1_555
C70_3 C65_3 1_555 1_555
H24_3 C70_3 1_555 1_555
C71_3 C67_3 1_555 1_555
C72_3 C69_3 1_555 1_555
C77_3 C76_3 1_555 1_555
H26_3 C77_3 1_555 1_555
C80_3 O51_3 1_555 1_555
C82_3 O55_3 1_555 1_555
C83_3 C82_3 1_555 1_555
C84_3 C83_3 1_555 1_555
H28_3 C84_3 1_555 1_555
C85_3 C84_3 1_555 1_555
C86_3 C85_3 1_555 1_555
H29_3 C86_3 1_555 1_555
C87_3 C86_3 1_555 1_555
C88_3 C83_3 1_555 1_555
H30_3 C88_3 1_555 1_555
C89_3 O58_3 1_555 1_555
C90_3 C87_3 1_555 1_555
C91_3 O61_3 1_555 1_555
C92_3 C91_3 1_555 1_555
C93_3 C92_3 1_555 1_555
H31_3 C93_3 1_555 1_555
C94_3 C93_3 1_555 1_555
C95_3 C94_3 1_555 1_555
H32_3 C95_3 1_555 1_555
C96_3 C95_3 1_555 1_555
C97_3 C92_3 1_555 1_555
H33_3 C97_3 1_555 1_555
C98_3 C94_3 1_555 1_555
C99_3 C96_3 1_555 1_555
C105_3 C104_3 1_555 1_555
C108_3 O71_3 1_555 1_555
C109_3 O73_3 1_555 1_555
C110_3 O75_3 1_555 1_555
H37_3 C110_3 1_555 1_555
H38_3 C110_3 1_555 1_555
C111_3 O76_3 1_555 1_555
C112_3 C111_3 1_555 1_555
H39_3 C112_3 1_555 1_555
H40_3 C112_3 1_555 1_555
H41_3 C112_3 1_555 1_555
C113_3 N1_3 1_555 1_555
H42_3 C113_3 1_555 1_555
H43_3 C113_3 1_555 1_555
H44_3 C113_3 1_555 1_555
C114_3 N1_3 1_555 1_555
H45_3 C114_3 1_555 1_555
H46_3 C114_3 1_555 1_555
H47_3 C114_3 1_555 1_555
C115_3 O77_3 1_555 1_555
C116_3 C115_3 1_555 1_555
H48_3 C116_3 1_555 1_555
H49_3 C116_3 1_555 1_555
H50_3 C116_3 1_555 1_555
C117_3 N2_3 1_555 1_555
H51_3 C117_3 1_555 1_555
H52_3 C117_3 1_555 1_555
H53_3 C117_3 1_555 1_555
C118_3 N2_3 1_555 1_555
H54_3 C118_3 1_555 1_555
H55_3 C118_3 1_555 1_555
H56_3 C118_3 1_555 1_555
O82_3 Zn19 1_555 1_555
N4_3 C123_3 1_555 1_555
C123_3 O82_3 1_555 1_555
C124_3 C123_3 1_555 1_555
H66_3 C124_3 1_555 1_555
H67_3 C124_3 1_555 1_555
H68_3 C124_3 1_555 1_555
C125_3 N4_3 1_555 1_555
H69_3 C125_3 1_555 1_555
H70_3 C125_3 1_555 1_555
H71_3 C125_3 1_555 1_555
C126_3 N4_3 1_555 1_555
H72_3 C126_3 1_555 1_555
H73_3 C126_3 1_555 1_555
H74_3 C126_3 1_555 1_555
O103_2 Zn20 1_555 1_555
O104_2 Zn20 1_555 1_555
O62_3 C91_3 1_555 1_555
O72_3 C108_3 1_555 1_555
C69_3 C70_3 1_555 1_555
C76_3 C80_3 1_555 1_555
C85_3 C89_3 1_555 1_555
C87_3 C88_3 1_555 1_555
C96_3 C97_3 1_555 1_555
C105_3 C108_3 1_555 1_555
C109_3 C110_3 1_555 1_555
O79_3 H99_3 1_555 1_555
O79_3 H100_3 1_555 1_555
O80_3 H103_3 1_555 1_555
O80_3 H104_3 1_555 1_555
Zn32 O67_3 1_555 1_555
O67_3 C100_3 1_555 1_555
O68_3 C100_3 1_555 1_555
C100_3 C101_3 1_555 1_555
C101_3 C102_3 1_555 1_555
C102_3 H34_3 1_555 1_555
C106_3 C101_3 1_555 1_555
H36_3 C106_3 1_555 1_555
O102_2 Zn32 1_555 1_555
Zn21_2 O65_4 1_555 1_555
O105_2 C64_4 1_555 1_555
O65_4 C99_4 1_555 1_555
O66_2 C99_4 1_555 1_555
C64_4 C65_4 1_555 1_555
C65_4 C66_4 1_555 1_555
C66_4 H22_4 1_555 1_555
C70_4 C65_4 1_555 1_555
H24_4 C70_4 1_555 1_555
H32_4 C95_4 1_555 1_555
H66_4 C124_4 1_555 1_555
H67_4 C124_4 1_555 1_555
H68_4 C124_4 1_555 1_555
Zn40_2 O66_2 1_555 1_555
O84_2 Zn21_2 1_555 1_555
O80_4 H103_4 1_555 1_555
O80_4 H104_4 1_555 1_555
Zn26_2 O43_4 1_555 1_555
O73_4 Zn26_2 1_555 1_555
O74_4 C109_4 1_555 1_555
N1_4 C111_4 1_555 1_555
C109_4 O73_4 1_555 1_555
C110_4 O75_4 1_555 1_555
H37_4 C110_4 1_555 1_555
C111_4 O76_4 1_555 1_555
C112_4 C111_4 1_555 1_555
H39_4 C112_4 1_555 1_555
H40_4 C112_4 1_555 1_555
H41_4 C112_4 1_555 1_555
C113_4 N1_4 1_555 1_555
H42_4 C113_4 1_555 1_555
H43_4 C113_4 1_555 1_555
H44_4 C113_4 1_555 1_555
C114_4 N1_4 1_555 1_555
H45_4 C114_4 1_555 1_555
H46_4 C114_4 1_555 1_555
H47_4 C114_4 1_555 1_555
C109_4 C110_4 1_555 1_555
Zn18 O63_4 1_555 1_555
Zn22 O45_4 1_555 1_555
Zn23 O46_4 1_555 1_555
Zn32_2 O67_4 1_555 1_555
O45_4 C71_4 1_555 1_555
O46_4 C71_4 1_555 1_555
O47_4 C72_4 1_555 1_555
O48_4 C72_4 1_555 1_555
O55_4 Zn23 1_555 1_555
O56_4 C82_4 1_555 1_555
O110_2 C89_4 1_555 1_555
O58_4 Zn30 1_555 1_555
O111 C90_4 1_555 1_555
O112 C90_4 1_555 1_555
O61_4 Zn22 1_555 1_555
O62_4 Zn23 1_555 1_555
O63_4 C98_4 1_555 1_555
O67_4 C100_4 1_555 1_555
O68_4 C100_4 1_555 1_555
O71_4 Zn30 1_555 1_555
O72_4 Zn30 1_555 1_555
N2_4 C115_4 1_555 1_555
C68_4 C67_4 1_555 1_555
H23_4 C68_4 1_555 1_555
C69_4 C68_4 1_555 1_555
C71_4 C67_4 1_555 1_555
C72_4 C69_4 1_555 1_555
C82_4 O55_4 1_555 1_555
C83_4 C82_4 1_555 1_555
C84_4 C83_4 1_555 1_555
H28_4 C84_4 1_555 1_555
C85_4 C84_4 1_555 1_555
C86_4 C85_4 1_555 1_555
H29_4 C86_4 1_555 1_555
C87_4 C86_4 1_555 1_555
C88_4 C83_4 1_555 1_555
H30_4 C88_4 1_555 1_555
C89_4 O58_4 1_555 1_555
C90_4 C87_4 1_555 1_555
C91_4 O61_4 1_555 1_555
C92_4 C91_4 1_555 1_555
C93_4 C92_4 1_555 1_555
H31_4 C93_4 1_555 1_555
C94_4 C93_4 1_555 1_555
C97_4 C92_4 1_555 1_555
H33_4 C97_4 1_555 1_555
C98_4 C94_4 1_555 1_555
C100_4 C101_4 1_555 1_555
C101_4 C102_4 1_555 1_555
C102_4 H34_4 1_555 1_555
C105_4 C104_4 1_555 1_555
C106_4 C101_4 1_555 1_555
H36_4 C106_4 1_555 1_555
C108_4 O71_4 1_555 1_555
C115_4 O77_4 1_555 1_555
C116_4 C115_4 1_555 1_555
H48_4 C116_4 1_555 1_555
H49_4 C116_4 1_555 1_555
H50_4 C116_4 1_555 1_555
C117_4 N2_4 1_555 1_555
H51_4 C117_4 1_555 1_555
H52_4 C117_4 1_555 1_555
H53_4 C117_4 1_555 1_555
C118_4 N2_4 1_555 1_555
H54_4 C118_4 1_555 1_555
H55_4 C118_4 1_555 1_555
H56_4 C118_4 1_555 1_555
O82_4 Zn18 1_555 1_555
N4_4 C123_4 1_555 1_555
C123_4 O82_4 1_555 1_555
C125_4 N4_4 1_555 1_555
H69_4 C125_4 1_555 1_555
H70_4 C125_4 1_555 1_555
H71_4 C125_4 1_555 1_555
C126_4 N4_4 1_555 1_555
H72_4 C126_4 1_555 1_555
H73_4 C126_4 1_555 1_555
H74_4 C126_4 1_555 1_555
O92_2 Zn18 1_555 1_555
O62_4 C91_4 1_555 1_555
O72_4 C108_4 1_555 1_555
C85_4 C89_4 1_555 1_555
C87_4 C88_4 1_555 1_555
C96_4 C97_4 1_555 1_555
C105_4 C106_4 1_555 1_555
C105_4 C108_4 1_555 1_555
O51_4 Zn25 1_555 1_555
C77_4 C76_4 1_555 1_555
C80_4 O51_4 1_555 1_555
O85_2 Zn29 1_555 1_555
C76_4 C80_4 1_555 1_555
O79_4 H99_4 1_555 1_555
O79_4 H100_4 1_555 1_555
O97_2 C53_4 1_555 1_555
O98 C53_4 1_555 1_555
O84_2 C8_4 1_555 1_555
O88_2 C19_4 1_555 1_555
O89_2 C19_4 1_555 1_555
C3_4 H1_4 1_555 1_555
C19_4 C20_4 1_555 1_555
C20_4 C21_4 1_555 1_555
C21_4 H7_4 1_555 1_555
H63_4 C122_4 1_555 1_555
H65_4 C122_4 1_555 1_555
O95 C46_4 1_555 1_555
O96 C46_4 1_555 1_555
O100_2 C54_4 1_555 1_555
O101_2 C55_4 1_555 1_555
O39_4 C62_4 1_555 1_555
O102_2 C62_4 1_555 1_555
O103_2 C63_4 1_555 1_555
O104_2 C63_4 1_555 1_555
O116 C107_4 1_555 1_555
C46_4 C47_4 1_555 1_555
C47_4 C48_4 1_555 1_555
C48_4 H16_4 1_555 1_555
C49_4 C48_4 1_555 1_555
C50_4 C49_4 1_555 1_555
H17_4 C50_4 1_555 1_555
C51_4 C50_4 1_555 1_555
C52_4 C47_4 1_555 1_555
H18_4 C52_4 1_555 1_555
C54_4 O35_4 1_555 1_555
C55_4 O37_4 1_555 1_555
C56_4 C55_4 1_555 1_555
C57_4 C56_4 1_555 1_555
H19_4 C57_4 1_555 1_555
C58_4 C57_4 1_555 1_555
C59_4 C58_4 1_555 1_555
H20_4 C59_4 1_555 1_555
C60_4 C59_4 1_555 1_555
C61_4 C56_4 1_555 1_555
H21_4 C61_4 1_555 1_555
C62_4 C58_4 1_555 1_555
C63_4 C60_4 1_555 1_555
C107_4 C103_4 1_555 1_555
C51_4 C52_4 1_555 1_555
C51_4 C54_4 1_555 1_555
C60_4 C61_4 1_555 1_555
Zn33_2 O28_4 1_555 1_555
Zn11_4 O9_4 1_555 1_555
Zn34_2 O10_4 1_555 1_555
Zn36 O21_4 1_555 1_555
Zn38 O5_4 1_555 1_555
O1_4 C1_4 1_555 1_555
O5_4 C9_4 1_555 1_555
O85_2 C9_4 1_555 1_555
O7_4 Zn38 1_555 1_555
O8_4 C10_4 1_555 1_555
O9_4 C17_4 1_555 1_555
O10_4 C17_4 1_555 1_555
O86 C18_4 1_555 1_555
O87 C18_4 1_555 1_555
O91 C26_4 1_555 1_555
O17_4 Zn11_4 1_555 1_555
O18_4 C27_4 1_555 1_555
O19_4 Zn11_4 1_555 1_555
O20_4 Zn34_2 1_555 1_555
O21_4 C35_4 1_555 1_555
O22_4 C35_4 1_555 1_555
O92_2 C36_4 1_555 1_555
O93_2 C36_4 1_555 1_555
O25_4 Zn11_4 1_555 1_555
O26_4 Zn34_2 1_555 1_555
O27_4 C44_4 1_555 1_555
O28_4 C44_4 1_555 1_555
O94_2 C45_4 1_555 1_555
O30_4 C45_4 1_555 1_555
O106 C73_4 1_555 1_555
O107_2 C73_4 1_555 1_555
C1_4 C2_4 1_555 1_555
C5_4 C4_4 1_555 1_555
H2_4 C5_4 1_555 1_555
C6_4 C5_4 1_555 1_555
C7_4 C2_4 1_555 1_555
H3_4 C7_4 1_555 1_555
C9_4 C6_4 1_555 1_555
C10_4 O7_4 1_555 1_555
C11_4 C10_4 1_555 1_555
C12_4 C11_4 1_555 1_555
H4_4 C12_4 1_555 1_555
C13_4 C12_4 1_555 1_555
C14_4 C13_4 1_555 1_555
H5_4 C14_4 1_555 1_555
C15_4 C14_4 1_555 1_555
C16_4 C11_4 1_555 1_555
H6_4 C16_4 1_555 1_555
C17_4 C13_4 1_555 1_555
C18_4 C15_4 1_555 1_555
C23_4 C22_4 1_555 1_555
H8_4 C23_4 1_555 1_555
C24_4 C23_4 1_555 1_555
H9_4 C25_4 1_555 1_555
C26_4 C22_4 1_555 1_555
C27_4 O17_4 1_555 1_555
C28_4 O19_4 1_555 1_555
C29_4 C28_4 1_555 1_555
C30_4 C29_4 1_555 1_555
H10_4 C30_4 1_555 1_555
C31_4 C30_4 1_555 1_555
C32_4 C31_4 1_555 1_555
H11_4 C32_4 1_555 1_555
C33_4 C32_4 1_555 1_555
C34_4 C29_4 1_555 1_555
H12_4 C34_4 1_555 1_555
C35_4 C31_4 1_555 1_555
C36_4 C33_4 1_555 1_555
C37_4 O25_4 1_555 1_555
C38_4 C37_4 1_555 1_555
C39_4 C38_4 1_555 1_555
H13_4 C39_4 1_555 1_555
C40_4 C39_4 1_555 1_555
C41_4 C40_4 1_555 1_555
H14_4 C41_4 1_555 1_555
C42_4 C41_4 1_555 1_555
C43_4 C38_4 1_555 1_555
H15_4 C43_4 1_555 1_555
C44_4 C40_4 1_555 1_555
C45_4 C42_4 1_555 1_555
C73_4 C74_4 1_555 1_555
C74_4 C75_4 1_555 1_555
C79_4 C74_4 1_555 1_555
H27_4 C79_4 1_555 1_555
C81_4 C78_4 1_555 1_555
O20_4 C28_4 1_555 1_555
O26_4 C37_4 1_555 1_555
C6_4 C7_4 1_555 1_555
C15_4 C16_4 1_555 1_555
C24_4 C25_4 1_555 1_555
C24_4 C27_4 1_555 1_555
C33_4 C34_4 1_555 1_555
C42_4 C43_4 1_555 1_555
C78_4 C79_4 1_555 1_555
O81_4 H101_4 1_555 1_555
O81_4 H102_4 1_555 1_555
O78_4 Zn43 1_555 1_555
N3_4 C119_4 1_555 1_555
C119_4 O78_4 1_555 1_555
C120_4 C119_4 1_555 1_555
H57_4 C120_4 1_555 1_555
H58_4 C120_4 1_555 1_555
H59_4 C120_4 1_555 1_555
C121_4 N3_4 1_555 1_555
H60_4 C121_4 1_555 1_555
H62_4 C121_4 1_555 1_555
N5 H75 1_555 1_555
H76 N5 1_555 1_555
C127 N5 1_555 1_555
H77 C127 1_555 1_555
H78 C127 1_555 1_555
H79 C127 1_555 1_555
C128 N5 1_555 1_555
H80 C128 1_555 1_555
H81 C128 1_555 1_555
H82 C128 1_555 1_555
N5_2 H75_2 1_555 1_555
C127_2 N5_2 1_555 1_555
H77_2 C127_2 1_555 1_555
H79_2 C127_2 1_555 1_555
C128_2 N5_2 1_555 1_555
H81_2 C128_2 1_555 1_555
N5_3 H75_3 1_555 1_555
H76_3 N5_3 1_555 1_555
C127_3 N5_3 1_555 1_555
H77_3 C127_3 1_555 1_555
H78_3 C127_3 1_555 1_555
H79_3 C127_3 1_555 1_555
C128_3 N5_3 1_555 1_555
H80_3 C128_3 1_555 1_555
H81_3 C128_3 1_555 1_555
H82_3 C128_3 1_555 1_555
N5_4 H75_4 1_555 1_555
C127_4 N5_4 1_555 1_555
H77_4 C127_4 1_555 1_555
H79_4 C127_4 1_555 1_555
C128_4 N5_4 1_555 1_555
H81_4 C128_4 1_555 1_555
N6 H83 1_555 1_555
H84 N6 1_555 1_555
C129 N6 1_555 1_555
H85 C129 1_555 1_555
H86 C129 1_555 1_555
H87 C129 1_555 1_555
C130 N6 1_555 1_555
H88 C130 1_555 1_555
H89 C130 1_555 1_555
H90 C130 1_555 1_555
N6_2 H83_2 1_555 1_555
H84_2 N6_2 1_555 1_555
C129_2 N6_2 1_555 1_555
H85_2 C129_2 1_555 1_555
H86_2 C129_2 1_555 1_555
H87_2 C129_2 1_555 1_555
C130_2 N6_2 1_555 1_555
H88_2 C130_2 1_555 1_555
H89_2 C130_2 1_555 1_555
H90_2 C130_2 1_555 1_555
N6_3 H83_3 1_555 1_555
H84_3 N6_3 1_555 1_555
C129_3 N6_3 1_555 1_555
H85_3 C129_3 1_555 1_555
H86_3 C129_3 1_555 1_555
H87_3 C129_3 1_555 1_555
C130_3 N6_3 1_555 1_555
H88_3 C130_3 1_555 1_555
H89_3 C130_3 1_555 1_555
H90_3 C130_3 1_555 1_555
N6_4 H83_4 1_555 1_555
H84_4 N6_4 1_555 1_555
C129_4 N6_4 1_555 1_555
H85_4 C129_4 1_555 1_555
H86_4 C129_4 1_555 1_555
H87_4 C129_4 1_555 1_555
C130_4 N6_4 1_555 1_555
H88_4 C130_4 1_555 1_555
H89_4 C130_4 1_555 1_555
H90_4 C130_4 1_555 1_555
N7 H91 1_555 1_555
H92 N7 1_555 1_555
C131 N7 1_555 1_555
H93 C131 1_555 1_555
H94 C131 1_555 1_555
H95 C131 1_555 1_555
C132 N7 1_555 1_555
H96 C132 1_555 1_555
H97 C132 1_555 1_555
H98 C132 1_555 1_555
N7_2 H91_2 1_555 1_555
H92_2 N7_2 1_555 1_555
C131_2 N7_2 1_555 1_555
H93_2 C131_2 1_555 1_555
H94_2 C131_2 1_555 1_555
H95_2 C131_2 1_555 1_555
C132_2 N7_2 1_555 1_555
H96_2 C132_2 1_555 1_555
H97_2 C132_2 1_555 1_555
H98_2 C132_2 1_555 1_555
N7_3 H91_3 1_555 1_555
H92_3 N7_3 1_555 1_555
C131_3 N7_3 1_555 1_555
H93_3 C131_3 1_555 1_555
H94_3 C131_3 1_555 1_555
H95_3 C131_3 1_555 1_555
C132_3 N7_3 1_555 1_555
H96_3 C132_3 1_555 1_555
H97_3 C132_3 1_555 1_555
H98_3 C132_3 1_555 1_555
N7_4 H91_4 1_555 1_555
H92_4 N7_4 1_555 1_555
C131_4 N7_4 1_555 1_555
H93_4 C131_4 1_555 1_555
H94_4 C131_4 1_555 1_555
H95_4 C131_4 1_555 1_555
C132_4 N7_4 1_555 1_555
H96_4 C132_4 1_555 1_555
H97_4 C132_4 1_555 1_555
H98_4 C132_4 1_555 1_555

#END
