
###############################################################################
#
# This file contains modified crystal structure data generated from the
# MOF subset of the Cambridge Structural Database (CSD) v543 
# hosted by the Cambridge Crystallographic Data Centre (CCDC).
#
# This work is licensed under the Creative Commons
# Attribution-NonCommercial-ShareAlike 4.0 International License.
# To view a copy of this license, visit
# http://creativecommons.org/licenses/by-nc-sa/4.0/
# or send a letter to
# Creative Commons, PO Box 1866, Mountain View, CA 94042, USA.
#
# CIF created using the CSD Python API on 29 September 2022
# The structure has been converted into the P1 space group
# The structure has a 3D framework
# The original CSD entry XORGUI is in the monoclinic crystal system
# The framework has been calculated to contain at least 10.0% void space
# The void calculation uses a probe of radius 1.32A, grid spacing 0.4
#
###############################################################################

data_XORGUI
_chemical_formula_moiety         '(C32 H16 Cd4 N28)n'
_symmetry_cell_setting           triclinic
_symmetry_space_group_name_H-M   'P 1'
_symmetry_Int_Tables_number      1
_space_group_name_Hall           'P 1'
loop_
_symmetry_equiv_pos_site_id
_symmetry_equiv_pos_as_xyz
1 x,y,z
_cell_length_a                   9.9480(14)
_cell_length_b                   10.1981(14)
_cell_length_c                   12.8656(18)
_cell_angle_alpha                90
_cell_angle_beta                 106.089(2)
_cell_angle_gamma                90
_cell_volume                     1254.1
loop_
_atom_site_label
_atom_site_type_symbol
_atom_site_fract_x
_atom_site_fract_y
_atom_site_fract_z
Cd1 Cd 0.20267(4) 0.17157(3) 0.21739(3)
N1 N 0.4008(5) 0.1712(4) 0.7698(4)
N4 N 0.0203(5) 0.4408(5) 0.4080(3)
C2 C 0.4185(6) 0.1105(5) 0.6826(4)
C3 C 0.4872(7) 0.1375(6) 0.8642(5)
H2 H 0.4766 0.1764 0.9269
C4 C 0.5236(7) 0.0183(6) 0.6911(5)
C5 C 0.5946(7) 0.0448(7) 0.8730(5)
H4 H 0.6543 0.0248 0.9407
N5 N 0.2441(5) 0.1583(4) 0.4054(3)
N6 N 0.0709(5) 0.3336(4) 0.2744(4)
N7 N 0.2343(5) 0.2493(4) 0.5612(3)
N8 N 0.3359(5) 0.0922(4) 0.4857(4)
C6 C 0.0904(6) 0.3418(5) 0.3821(4)
C7 C 0.1849(5) 0.2520(5) 0.4512(4)
C8 C 0.3280(6) 0.1488(5) 0.5770(4)
Cd4 Cd 0.20267(4) 0.32843(3) 0.71739(3)
N9 N 0.4008(5) 0.3288(4) 0.2698(4)
N10 N 0.0500(5) 0.0031(4) 0.1866(3)
N11 N 0.3884(5) 0.0149(5) 0.2150(4)
N12 N 0.2343(5) 0.2507(4) 0.0612(3)
N3 N 0.6116(5) 0.9851(5) 0.7850(4)
H3 H 0.5325 0.9782 0.6284
Cd3 Cd 0.79733(4) 0.82843(3) 0.78261(3)
N2 N 0.9500(5) 0.5031(4) 0.3134(3)
C1 C 0.9823(6) 0.4361(5) 0.2358(4)
H1 H 0.9486 0.4565 0.1627
Cd2 Cd 0.79733(4) 0.67157(3) 0.28261(3)
N4_2 N 0.9797(5) 0.9408(5) 0.0920(3)
N5_2 N 0.7559(5) 0.6583(4) 0.0946(3)
N6_2 N 0.9291(5) 0.8336(4) 0.2256(4)
N8_2 N 0.6641(5) 0.5922(4) 0.0143(4)
C6_2 C 0.9096(6) 0.8418(5) 0.1179(4)
C7_2 C 0.8151(5) 0.7520(5) 0.0488(4)
N9_2 N 0.5992(5) 0.8288(4) 0.2302(4)
N11_2 N 0.6116(5) 0.5149(5) 0.2850(4)
N12_2 N 0.7657(5) 0.7507(4) 0.4388(3)
N1_2 N 0.5992(5) 0.6712(4) 0.7302(4)
N3_2 N 0.3884(5) 0.4851(5) 0.7150(4)
C2_2 C 0.5815(6) 0.6105(5) 0.8174(4)
C3_2 C 0.5128(7) 0.6375(6) 0.6358(5)
H2_2 H 0.5234 0.6764 0.5731
C4_2 C 0.4764(7) 0.5183(6) 0.8089(5)
H3_2 H 0.4675 0.4782 0.8716
C5_2 C 0.4054(7) 0.5448(7) 0.6270(5)
H4_2 H 0.3457 0.5248 0.5593
N7_2 N 0.7657(5) 0.7493(4) 0.9388(3)
C8_2 C 0.6720(6) 0.6488(5) 0.9230(4)
N2_2 N 0.0500(5) 0.4969(4) 0.6866(3)
C1_2 C 0.0177(6) 0.5639(5) 0.7642(4)
H1_2 H 0.0514 0.5435 0.8373
H3_3 H 0.4675 0.0218 0.3716
N4_3 N 0.9797(5) 0.5592(5) 0.5920(3)
C2_3 C 0.5815(6) 0.8895(5) 0.3174(4)
C3_3 C 0.5128(7) 0.8625(6) 0.1358(5)
H2_3 H 0.5234 0.8236 0.0731
C4_3 C 0.4764(7) 0.9817(6) 0.3089(5)
C5_3 C 0.4054(7) 0.9552(7) 0.1270(5)
H4_3 H 0.3457 0.9752 0.0593
N5_3 N 0.7559(5) 0.8417(4) 0.5946(3)
N6_3 N 0.9291(5) 0.6664(4) 0.7256(4)
N8_3 N 0.6641(5) 0.9078(4) 0.5143(4)
C6_3 C 0.9096(6) 0.6582(5) 0.6179(4)
C7_3 C 0.8151(5) 0.7480(5) 0.5488(4)
C8_3 C 0.6720(6) 0.8512(5) 0.4230(4)
N10_2 N 0.9500(5) 0.9969(4) 0.8134(3)
C2_4 C 0.4185(6) 0.3895(5) 0.1826(4)
C3_4 C 0.4872(7) 0.3625(6) 0.3642(5)
H2_4 H 0.4766 0.3236 0.4269
C4_4 C 0.5236(7) 0.4817(6) 0.1911(5)
H3_4 H 0.5325 0.5218 0.1284
C5_4 C 0.5946(7) 0.4552(7) 0.3730(5)
H4_4 H 0.6543 0.4752 0.4407
C8_4 C 0.3280(6) 0.3512(5) 0.0770(4)
N4_4 N 0.0203(5) 0.0592(5) 0.9080(3)
N5_4 N 0.2441(5) 0.3417(4) 0.9054(3)
N6_4 N 0.0709(5) 0.1664(4) 0.7744(4)
N8_4 N 0.3359(5) 0.4078(4) 0.9857(4)
C6_4 C 0.0904(6) 0.1582(5) 0.8821(4)
C7_4 C 0.1849(5) 0.2480(5) 0.9512(4)
C1_3 C 0.0177(6) 0.9361(5) 0.2642(4)
H1_3 H 0.0514 0.9565 0.3373
C1_4 C 0.9823(6) 0.0639(5) 0.7358(4)
H1_4 H 0.9486 0.0435 0.6627
loop_
_geom_bond_atom_site_label_1
_geom_bond_atom_site_label_2
_geom_bond_site_symmetry_1
_geom_bond_site_symmetry_2
Cd1 N5 1_555 1_555
N1 C2 1_555 1_555
N4 C6 1_555 1_555
C2 C4 1_555 1_555
C3 N1 1_555 1_555
H2 C3 1_555 1_555
H4 C5 1_555 1_555
N5 N8 1_555 1_555
N6 Cd1 1_555 1_555
N7 C7 1_555 1_555
N8 C8 1_555 1_555
C6 N6 1_555 1_555
C7 N5 1_555 1_555
C8 C2 1_555 1_555
Cd4 N1 1_555 1_555
N9 Cd1 1_555 1_555
N10 Cd1 1_555 1_555
N11 Cd1 1_555 1_555
N12 Cd1 1_555 1_555
C3 C5 1_555 1_555
N7 C8 1_555 1_555
N7 Cd4 1_555 1_555
C6 C7 1_555 1_555
Cd3 N3 1_555 1_555
C1 N2 1_555 1_555
H1 C1 1_555 1_555
Cd2 N2 1_555 1_555
Cd2 N5_2 1_555 1_555
N4_2 C6_2 1_555 1_555
N5_2 N8_2 1_555 1_555
N6_2 Cd2 1_555 1_555
C6_2 N6_2 1_555 1_555
C7_2 N5_2 1_555 1_555
N9_2 Cd2 1_555 1_555
N11_2 Cd2 1_555 1_555
N12_2 Cd2 1_555 1_555
C6_2 C7_2 1_555 1_555
N1_2 C2_2 1_555 1_555
N3_2 C4_2 1_555 1_555
C2_2 C4_2 1_555 1_555
C3_2 N1_2 1_555 1_555
H2_2 C3_2 1_555 1_555
C4_2 H3_2 1_555 1_555
C5_2 N3_2 1_555 1_555
H4_2 C5_2 1_555 1_555
C8_2 C2_2 1_555 1_555
Cd4 N3_2 1_555 1_555
Cd3 N1_2 1_555 1_555
C3_2 C5_2 1_555 1_555
N7_2 C8_2 1_555 1_555
N7_2 Cd3 1_555 1_555
C1_2 N2_2 1_555 1_555
H1_2 C1_2 1_555 1_555
Cd4 N2_2 1_555 1_555
Cd3 N5_3 1_555 1_555
N9_2 C2_3 1_555 1_555
N4_3 C6_3 1_555 1_555
C2_3 C4_3 1_555 1_555
C3_3 N9_2 1_555 1_555
H2_3 C3_3 1_555 1_555
H4_3 C5_3 1_555 1_555
N5_3 N8_3 1_555 1_555
N6_3 Cd3 1_555 1_555
N12_2 C7_3 1_555 1_555
N8_3 C8_3 1_555 1_555
C6_3 N6_3 1_555 1_555
C7_3 N5_3 1_555 1_555
C8_3 C2_3 1_555 1_555
N10_2 Cd3 1_555 1_555
C3_3 C5_3 1_555 1_555
N12_2 C8_3 1_555 1_555
C6_3 C7_3 1_555 1_555
N9 C2_4 1_555 1_555
N11_2 C4_4 1_555 1_555
C2_4 C4_4 1_555 1_555
C3_4 N9 1_555 1_555
H2_4 C3_4 1_555 1_555
C4_4 H3_4 1_555 1_555
C5_4 N11_2 1_555 1_555
H4_4 C5_4 1_555 1_555
C8_4 C2_4 1_555 1_555
C3_4 C5_4 1_555 1_555
N12 C8_4 1_555 1_555
Cd4 N5_4 1_555 1_555
N4_4 C6_4 1_555 1_555
N5_4 N8_4 1_555 1_555
N6_4 Cd4 1_555 1_555
C6_4 N6_4 1_555 1_555
C7_4 N5_4 1_555 1_555
C6_4 C7_4 1_555 1_555
H1_3 C1_3 1_555 1_555
H1_4 C1_4 1_555 1_555

#END
