
###############################################################################
#
# This file contains modified crystal structure data generated from the
# MOF subset of the Cambridge Structural Database (CSD) v543 
# hosted by the Cambridge Crystallographic Data Centre (CCDC).
#
# This work is licensed under the Creative Commons
# Attribution-NonCommercial-ShareAlike 4.0 International License.
# To view a copy of this license, visit
# http://creativecommons.org/licenses/by-nc-sa/4.0/
# or send a letter to
# Creative Commons, PO Box 1866, Mountain View, CA 94042, USA.
#
# CIF created using the CSD Python API on 29 September 2022
# The structure has been converted into the P1 space group
# The structure has a 3D framework
# The original CSD entry XORHET is in the tetragonal crystal system
# The original CSD entry XORHET is in a Sohncke space group
# The framework has been calculated to contain at least 10.0% void space
# The void calculation uses a probe of radius 1.32A, grid spacing 0.4
#
###############################################################################

data_XORHET
_chemical_formula_moiety         '(C128 H96 Co18 N128 O16)n'
_symmetry_cell_setting           triclinic
_symmetry_space_group_name_H-M   'P 1'
_symmetry_Int_Tables_number      1
_space_group_name_Hall           'P 1'
loop_
_symmetry_equiv_pos_site_id
_symmetry_equiv_pos_as_xyz
1 x,y,z
_cell_length_a                   18.341(4)
_cell_length_b                   18.341(4)
_cell_length_c                   17.503(5)
_cell_angle_alpha                90
_cell_angle_beta                 90
_cell_angle_gamma                90
_cell_volume                     5887.87
loop_
_atom_site_label
_atom_site_type_symbol
_atom_site_fract_x
_atom_site_fract_y
_atom_site_fract_z
O4 O 0.04003(16) 0.0450(2) 0.18720(17)
H17 H 0.0398 0.0035 0.1656
H18 H 0.0764 0.0478 0.2171
Co1 Co 0.84010(2) 0.84010(2) 0.0000
N1 N 0.73514(14) 0.83261(15) 0.04401(14)
N2 N 0.85199(16) 0.94289(15) 0.05710(15)
N3 N 0.88852(14) 0.81101(14) 0.10614(14)
N4 N 0.67761(14) 0.86860(14) 0.01160(15)
C1 C 0.7099(2) 0.8045(2) 0.1084(2)
C2 C 0.87987(18) 0.93848(19) 0.12673(18)
C3 C 0.89894(19) 0.86611(18) 0.15344(19)
N6 N 0.91158(17) 0.74997(15) 0.14401(15)
C4 C 0.62098(18) 0.85826(17) 0.05829(17)
N7 N 0.63714(16) 0.81884(18) 0.11999(17)
H1 H 0.7385 0.7778 0.1422
N9 N 0.9261(2) 0.84538(18) 0.22180(17)
C6 C 0.9337(3) 0.7742(2) 0.2117(2)
C7 C 0.55388(18) 0.89503(18) 0.03837(17)
H2 H 0.9530 0.7436 0.2490
O2 O 0.9550(2) 0.95997(16) 0.31280(17)
C10 C 0.44915(18) 0.93604(19) 0.02625(19)
H6 H 0.9965 0.9602 0.3344
H7 H 0.9522 0.9236 0.2829
C12 C 0.37182(19) 0.9485(2) 0.0437(2)
C14 C 0.3281(3) 0.9964(3) 0.0045(3)
C15 C 0.2762(2) 0.9153(3) 0.1185(2)
H11 H 0.2561 0.8877 0.1578
C16 C 0.2319(3) 0.9645(4) 0.0792(3)
H12 H 0.1833 0.9692 0.0934
Co4 Co 0.93261(2) 0.65364(2) 0.08623(2)
N26 N 0.93764(17) 0.55433(15) 0.02239(15)
N27 N 0.98923(14) 0.60880(14) 0.17882(14)
N28 N 0.84600(17) 0.59309(16) 0.14860(17)
N29 N 0.48923(14) 0.89120(14) 0.07118(14)
N32 N 0.96467(17) 0.48562(17) 0.03116(17)
Co6 Co 0.43261(2) 0.84636(2) 0.16377(2)
N36 N 0.34600(17) 0.90691(16) 0.10140(17)
Co1_2 Co 0.84010(2) 0.84010(2) 1.0000
Co2 Co 0.65364(2) 0.93261(2) 0.91377(2)
N10 N 0.55433(15) 0.93764(17) 0.97761(15)
N11 N 0.60880(14) 0.98923(14) 0.82118(14)
N12 N 0.59309(16) 0.84600(17) 0.85140(17)
N13 N 0.48562(17) 0.96467(17) 0.96884(17)
N17 N 0.83261(15) 0.73514(14) 0.95599(14)
N18 N 0.94289(15) 0.85199(16) 0.94290(15)
N19 N 0.81101(14) 0.88852(14) 0.89386(14)
N20 N 0.86860(14) 0.67761(14) 0.98840(15)
C17 C 0.8045(2) 0.7099(2) 0.8916(2)
C18 C 0.93848(19) 0.87987(18) 0.87327(18)
C19 C 0.86611(18) 0.89894(19) 0.84656(19)
N22 N 0.74997(15) 0.91158(17) 0.85599(15)
C20 C 0.85826(17) 0.62098(18) 0.94171(17)
N23 N 0.81884(18) 0.63714(16) 0.88001(17)
H13 H 0.7778 0.7385 0.8578
N25 N 0.84538(18) 0.9261(2) 0.77820(17)
C22 C 0.7742(2) 0.9337(3) 0.7883(2)
C23 C 0.89503(18) 0.55388(18) 0.96163(17)
H14 H 0.7436 0.9530 0.7510
N33 N 0.89120(14) 0.48923(14) 0.92882(14)
C26 C 0.93604(19) 0.44915(18) 0.97375(19)
Co7 Co 0.84636(2) 0.43261(2) 0.83623(2)
C28 C 0.9485(2) 0.37182(19) 0.9563(2)
N37 N 0.90691(16) 0.34600(17) 0.89860(17)
C30 C 0.9964(3) 0.3281(3) 0.9955(3)
C31 C 0.9153(3) 0.2762(2) 0.8815(2)
H23 H 0.8877 0.2561 0.8422
C32 C 0.9645(4) 0.2319(3) 0.9208(3)
H24 H 0.9692 0.1833 0.9066
Co1_3 Co 0.15990(2) 0.15990(2) 0.5000
N1_2 N 0.26486(14) 0.16739(15) 0.54401(14)
N2_2 N 0.14801(16) 0.05711(15) 0.55710(15)
N3_2 N 0.11148(14) 0.18899(14) 0.60614(14)
N4_2 N 0.32239(14) 0.13140(14) 0.51160(15)
C1_2 C 0.2901(2) 0.1955(2) 0.6084(2)
C2_2 C 0.12013(18) 0.06152(19) 0.62673(18)
C3_2 C 0.10106(19) 0.13389(18) 0.65344(19)
N6_2 N 0.08842(17) 0.25003(15) 0.64401(15)
C4_2 C 0.37902(18) 0.14174(17) 0.55829(17)
Co2_2 Co 0.34636(2) 0.06739(2) 0.41377(2)
N7_2 N 0.36286(16) 0.18116(18) 0.61999(17)
H1_2 H 0.2615 0.2222 0.6422
N9_2 N 0.0739(2) 0.15462(18) 0.72180(17)
C6_2 C 0.0663(3) 0.2258(2) 0.7117(2)
C7_2 C 0.44612(18) 0.10497(18) 0.53837(17)
N10_2 N 0.44567(15) 0.06236(17) 0.47761(15)
N11_2 N 0.39120(14) 0.01077(14) 0.32118(14)
N12_2 N 0.40691(16) 0.15400(17) 0.35140(17)
H2_2 H 0.0470 0.2564 0.7490
N13_2 N 0.51438(17) 0.03533(17) 0.46884(17)
O2_2 O 0.0450(2) 0.04003(16) 0.81280(17)
C10_2 C 0.55085(18) 0.06396(19) 0.52625(19)
H6_2 H 0.0035 0.0398 0.8344
H7_2 H 0.0478 0.0764 0.7829
C12_2 C 0.62818(19) 0.0515(2) 0.5437(2)
C14_2 C 0.6719(3) 0.0036(3) 0.5045(3)
C15_2 C 0.7238(2) 0.0847(3) 0.6185(2)
H11_2 H 0.7439 0.1123 0.6578
C16_2 C 0.7681(3) 0.0355(4) 0.5792(3)
H12_2 H 0.8167 0.0308 0.5934
N17_2 N 0.16739(15) 0.26486(14) 0.45599(14)
N18_2 N 0.05711(15) 0.14801(16) 0.44290(15)
N19_2 N 0.18899(14) 0.11148(14) 0.39386(14)
N20_2 N 0.13140(14) 0.32239(14) 0.48840(15)
C17_2 C 0.1955(2) 0.2901(2) 0.3916(2)
C18_2 C 0.06152(19) 0.12013(18) 0.37327(18)
C19_2 C 0.13389(18) 0.10106(19) 0.34656(19)
N22_2 N 0.25003(15) 0.08842(17) 0.35599(15)
Co4_2 Co 0.06739(2) 0.34636(2) 0.58623(2)
C20_2 C 0.14174(17) 0.37902(18) 0.44171(17)
N23_2 N 0.18116(18) 0.36286(16) 0.38001(17)
H13_2 H 0.2222 0.2615 0.3578
N25_2 N 0.15462(18) 0.0739(2) 0.27820(17)
C22_2 C 0.2258(2) 0.0663(3) 0.2883(2)
N26_2 N 0.06236(17) 0.44567(15) 0.52239(15)
N27_2 N 0.01077(14) 0.39120(14) 0.67882(14)
N28_2 N 0.15400(17) 0.40691(16) 0.64860(17)
C23_2 C 0.10497(18) 0.44612(18) 0.46163(17)
H14_2 H 0.2564 0.0470 0.2510
N29_2 N 0.51077(14) 0.10880(14) 0.57118(14)
N32_2 N 0.03533(17) 0.51438(17) 0.53116(17)
N33_2 N 0.10880(14) 0.51077(14) 0.42882(14)
Co6_2 Co 0.56739(2) 0.15364(2) 0.66377(2)
C26_2 C 0.06396(19) 0.55085(18) 0.47375(19)
Co7_2 Co 0.15364(2) 0.56739(2) 0.33623(2)
N36_2 N 0.65400(17) 0.09309(16) 0.60140(17)
C28_2 C 0.0515(2) 0.62818(19) 0.4563(2)
N37_2 N 0.09309(16) 0.65400(17) 0.39860(17)
C30_2 C 0.0036(3) 0.6719(3) 0.4955(3)
C31_2 C 0.0847(3) 0.7238(2) 0.3815(2)
H23_2 H 0.1123 0.7439 0.3422
C32_2 C 0.0355(4) 0.7681(3) 0.4208(3)
H24_2 H 0.0308 0.8167 0.4066
O4_2 O 0.95997(16) 0.9550(2) 0.68720(17)
H17_2 H 0.9602 0.9965 0.6656
H18_2 H 0.9236 0.9522 0.7171
N32_3 N 0.01438(17) 0.46467(17) 0.78116(17)
C26_3 C 0.05085(18) 0.43604(19) 0.72375(19)
C28_3 C 0.12818(19) 0.4485(2) 0.7063(2)
C30_3 C 0.1719(3) 0.4964(3) 0.7455(3)
C31_3 C 0.2238(2) 0.4153(3) 0.6315(2)
H22 H 0.1526 0.5239 0.7853
N38 N 0.2433(2) 0.5037(3) 0.7263(3)
H23_3 H 0.2439 0.3877 0.5922
C32_3 C 0.2681(3) 0.4645(4) 0.6708(3)
H24_3 H 0.3167 0.4692 0.6566
Co3 Co 0.44392(3) 0.44392(3) -0.0000
O2_3 O 0.54003(16) 0.4550(2) 0.06280(17)
H6_3 H 0.5398 0.4965 0.0844
H7_3 H 0.5764 0.4522 0.0329
N30 N 0.38967(15) 0.49580(15) 0.09090(16)
N31 N 0.40670(19) 0.35262(17) 0.07162(19)
Co1_4 Co 0.65990(2) 0.34010(2) 0.7500
N1_3 N 0.66739(15) 0.23514(14) 0.79401(14)
N2_3 N 0.55711(15) 0.35199(16) 0.80710(15)
N3_3 N 0.68899(14) 0.38852(14) 0.85614(14)
N4_3 N 0.63140(14) 0.17761(14) 0.76160(15)
C1_3 C 0.6955(2) 0.2099(2) 0.8584(2)
N5 N 0.48362(15) 0.34072(17) 0.79223(17)
C2_3 C 0.56152(19) 0.37987(18) 0.87673(18)
C3_3 C 0.63389(18) 0.39894(19) 0.90344(19)
N6_3 N 0.75003(15) 0.41158(17) 0.89401(15)
C4_3 C 0.64174(17) 0.12098(18) 0.80829(17)
N7_3 N 0.68116(18) 0.13714(16) 0.86999(17)
H1_3 H 0.7222 0.2385 0.8922
C5 C 0.44970(19) 0.3650(2) 0.8539(2)
N8 N 0.49580(15) 0.38967(15) 0.90910(16)
N9_3 N 0.65462(18) 0.4261(2) 0.97180(17)
C6_3 C 0.7258(2) 0.4337(3) 0.9617(2)
C7_3 C 0.60497(18) 0.05388(18) 0.78837(17)
N10_3 N 0.56236(17) 0.05433(15) 0.72761(15)
O1 O 0.47511(14) 0.19742(15) 0.71970(14)
C8 C 0.3734(2) 0.3702(2) 0.8660(2)
Co3_2 Co 0.44392(3) 0.44392(3) 1.0000
H2_3 H 0.7564 0.4530 0.9990
H3 H 0.4856 0.2393 0.7375
H4 H 0.4403 0.2013 0.6879
N14 N 0.35262(17) 0.40670(19) 0.92838(19)
C9 C 0.3203(2) 0.3400(3) 0.8168(3)
C11 C 0.2796(2) 0.4144(3) 0.9397(3)
H5 H 0.3355 0.3145 0.7737
N15 N 0.2493(2) 0.3470(4) 0.8302(3)
H8 H 0.2624 0.4420 0.9805
C13 C 0.2324(3) 0.3822(4) 0.8917(4)
H9 H 0.1832 0.3854 0.9038
N17_3 N 0.76486(14) 0.33261(15) 0.70599(14)
N18_3 N 0.64801(16) 0.44289(15) 0.69290(15)
N19_3 N 0.61148(14) 0.31101(14) 0.64386(14)
N20_3 N 0.82239(14) 0.36860(14) 0.73840(15)
C17_3 C 0.7901(2) 0.3045(2) 0.6416(2)
N21 N 0.65928(17) 0.51638(15) 0.70777(17)
C18_3 C 0.62013(18) 0.43848(19) 0.62327(18)
C19_3 C 0.60106(19) 0.36611(18) 0.59656(19)
N22_3 N 0.58842(17) 0.24997(15) 0.60599(15)
C20_3 C 0.87902(18) 0.35826(17) 0.69171(17)
N23_3 N 0.86286(16) 0.31884(18) 0.63001(17)
H13_3 H 0.7615 0.2778 0.6078
C21 C 0.6350(2) 0.55030(19) 0.6461(2)
N24 N 0.61033(15) 0.50420(15) 0.59090(16)
N25_3 N 0.5739(2) 0.34538(18) 0.52820(17)
C22_3 C 0.5663(3) 0.2742(2) 0.5383(2)
N26_3 N 0.94567(15) 0.43764(17) 0.77239(15)
O3 O 0.80258(15) 0.52489(14) 0.78030(14)
C23_3 C 0.94612(18) 0.39503(18) 0.71163(17)
C24 C 0.6298(2) 0.6266(2) 0.6340(2)
Co5 Co 0.55608(3) 0.55608(3) 0.5000
H14_3 H 0.5470 0.2436 0.5010
O4_3 O 0.4550(2) 0.54003(16) 0.93720(17)
H15 H 0.7607 0.5144 0.7625
H16 H 0.7987 0.5597 0.8121
N34 N 0.59330(19) 0.64738(17) 0.57162(19)
C25 C 0.6600(3) 0.6797(2) 0.6832(3)
H17_3 H 0.4965 0.5398 0.9156
H18_3 H 0.4522 0.5764 0.9671
C27 C 0.5856(3) 0.7204(2) 0.5603(3)
H19 H 0.6855 0.6645 0.7263
N35 N 0.6530(4) 0.7507(2) 0.6698(3)
H20 H 0.5580 0.7376 0.5195
C29 C 0.6178(4) 0.7676(3) 0.6083(4)
H21 H 0.6146 0.8168 0.5962
N13_3 N 0.53533(17) 0.98562(17) 0.71884(17)
C10_3 C 0.56396(19) 0.94915(18) 0.77625(19)
C12_3 C 0.5515(2) 0.87182(19) 0.7937(2)
C14_3 C 0.5036(3) 0.8281(3) 0.7545(3)
C15_3 C 0.5847(3) 0.7762(2) 0.8685(2)
H10 H 0.4761 0.8474 0.7147
N16 N 0.4963(3) 0.7567(2) 0.7737(3)
H11_3 H 0.6123 0.7561 0.9078
C16_3 C 0.5355(4) 0.7319(3) 0.8292(3)
H12_3 H 0.5308 0.6833 0.8434
N13_4 N 0.46467(17) 0.01438(17) 0.21884(17)
C10_4 C 0.43604(19) 0.05085(18) 0.27625(19)
C12_4 C 0.4485(2) 0.12818(19) 0.2937(2)
C14_4 C 0.4964(3) 0.1719(3) 0.2545(3)
C15_4 C 0.4153(3) 0.2238(2) 0.3685(2)
H10_2 H 0.5239 0.1526 0.2147
N16_2 N 0.5037(3) 0.2433(2) 0.2737(3)
H11_4 H 0.3877 0.2439 0.4078
C16_4 C 0.4645(4) 0.2681(3) 0.3292(3)
H12_4 H 0.4692 0.3167 0.3434
Co1_5 Co 0.34010(2) 0.65990(2) 0.2500
N1_4 N 0.33261(15) 0.76486(14) 0.29401(14)
N2_4 N 0.44289(15) 0.64801(16) 0.30710(15)
N3_4 N 0.31101(14) 0.61148(14) 0.35614(14)
N4_4 N 0.36860(14) 0.82239(14) 0.26160(15)
C1_4 C 0.3045(2) 0.7901(2) 0.3584(2)
N5_2 N 0.51638(15) 0.65928(17) 0.29223(17)
C2_4 C 0.43848(19) 0.62013(18) 0.37673(18)
C3_4 C 0.36611(18) 0.60106(19) 0.40344(19)
N6_4 N 0.24997(15) 0.58842(17) 0.39401(15)
C4_4 C 0.35826(17) 0.87902(18) 0.30829(17)
N7_4 N 0.31884(18) 0.86286(16) 0.36999(17)
H1_4 H 0.2778 0.7615 0.3922
C5_2 C 0.55030(19) 0.6350(2) 0.3539(2)
N8_2 N 0.50420(15) 0.61033(15) 0.40910(16)
N9_4 N 0.34538(18) 0.5739(2) 0.47180(17)
C6_4 C 0.2742(2) 0.5663(3) 0.4617(2)
C7_4 C 0.39503(18) 0.94612(18) 0.28837(17)
N10_4 N 0.43764(17) 0.94567(15) 0.22761(15)
O1_2 O 0.52489(14) 0.80258(15) 0.21970(14)
C8_2 C 0.6266(2) 0.6298(2) 0.3660(2)
H2_4 H 0.2436 0.5470 0.4990
H3_2 H 0.5144 0.7607 0.2375
H4_2 H 0.5597 0.7987 0.1879
N14_2 N 0.64738(17) 0.59330(19) 0.42838(19)
C9_2 C 0.6797(2) 0.6600(3) 0.3168(3)
O2_4 O 0.45997(16) 0.5450(2) 0.56280(17)
C11_2 C 0.7204(2) 0.5856(3) 0.4397(3)
H5_2 H 0.6645 0.6855 0.2737
N15_2 N 0.7507(2) 0.6530(4) 0.3302(3)
H6_4 H 0.4602 0.5035 0.5844
H7_4 H 0.4236 0.5478 0.5329
H8_2 H 0.7376 0.5580 0.4805
C13_2 C 0.7676(3) 0.6178(4) 0.3917(4)
H9_2 H 0.8168 0.6146 0.4038
N17_4 N 0.23514(14) 0.66739(15) 0.20599(14)
N18_4 N 0.35199(16) 0.55711(15) 0.19290(15)
N19_4 N 0.38852(14) 0.68899(14) 0.14386(14)
N20_4 N 0.17761(14) 0.63140(14) 0.23840(15)
C17_4 C 0.2099(2) 0.6955(2) 0.1416(2)
N21_2 N 0.34072(17) 0.48362(15) 0.20777(17)
C18_4 C 0.37987(18) 0.56152(19) 0.12327(18)
C19_4 C 0.39894(19) 0.63389(18) 0.09656(19)
N22_4 N 0.41158(17) 0.75003(15) 0.10599(15)
C20_4 C 0.12098(18) 0.64174(17) 0.19171(17)
N23_4 N 0.13714(16) 0.68116(18) 0.13001(17)
H13_4 H 0.2385 0.7222 0.1078
C21_2 C 0.3650(2) 0.44970(19) 0.1461(2)
N25_4 N 0.4261(2) 0.65462(18) 0.02820(17)
C22_4 C 0.4337(3) 0.7258(2) 0.0383(2)
N26_4 N 0.05433(15) 0.56236(17) 0.27239(15)
O3_2 O 0.19742(15) 0.47511(14) 0.28030(14)
C23_4 C 0.05388(18) 0.60497(18) 0.21163(17)
C24_2 C 0.3702(2) 0.3734(2) 0.1340(2)
H14_4 H 0.4530 0.7564 0.0010
O4_4 O 0.5450(2) 0.45997(16) 0.43720(17)
H15_2 H 0.2393 0.4856 0.2625
H16_2 H 0.2013 0.4403 0.3121
C25_2 C 0.3400(3) 0.3203(2) 0.1832(3)
H17_4 H 0.5035 0.4602 0.4156
H18_4 H 0.5478 0.4236 0.4671
C27_2 C 0.4144(3) 0.2796(2) 0.0603(3)
H19_2 H 0.3145 0.3355 0.2263
N35_2 N 0.3470(4) 0.2493(2) 0.1698(3)
H20_2 H 0.4420 0.2624 0.0195
C29_2 C 0.3822(4) 0.2324(3) 0.1083(4)
H21_2 H 0.3854 0.1832 0.0962
N32_4 N 0.98562(17) 0.53533(17) 0.28116(17)
C26_4 C 0.94915(18) 0.56396(19) 0.22375(19)
C28_4 C 0.87182(19) 0.5515(2) 0.2063(2)
C30_4 C 0.8281(3) 0.5036(3) 0.2455(3)
C31_4 C 0.7762(2) 0.5847(3) 0.1315(2)
H22_2 H 0.8474 0.4761 0.2853
N38_2 N 0.7567(2) 0.4963(3) 0.2263(3)
H23_4 H 0.7561 0.6123 0.0922
C32_4 C 0.7319(3) 0.5355(4) 0.1708(3)
H24_4 H 0.6833 0.5308 0.1566
O3_3 O 0.02489(14) 0.69742(15) 0.03030(14)
H15_3 H 0.0144 0.7393 0.0125
H16_3 H 0.0597 0.7013 0.0621
H22_3 H 0.0239 0.3474 0.0353
N21_3 N 0.01638(15) 0.84072(17) 0.95777(17)
C21_3 C 0.05030(19) 0.8650(2) 0.8961(2)
N24_2 N 0.00420(15) 0.88967(15) 0.84090(16)
C24_3 C 0.1266(2) 0.8702(2) 0.8840(2)
Co5_2 Co 0.05608(3) 0.94392(3) 0.7500
N34_2 N 0.14738(17) 0.90670(19) 0.82162(19)
C25_3 C 0.1797(2) 0.8400(3) 0.9332(3)
C27_3 C 0.2204(2) 0.9144(3) 0.8103(3)
H19_3 H 0.1645 0.8145 0.9763
N35_3 N 0.2507(2) 0.8470(4) 0.9198(3)
H20_3 H 0.2376 0.9420 0.7695
C29_3 C 0.2676(3) 0.8822(4) 0.8583(4)
H21_3 H 0.3168 0.8854 0.8462
N38_3 N 0.0037(3) 0.2567(2) 0.9763(3)
N5_3 N 0.15928(17) 0.98362(15) 0.54223(17)
C5_3 C 0.1350(2) 0.94970(19) 0.6039(2)
N8_3 N 0.11033(15) 0.99580(15) 0.65910(16)
O1_3 O 0.30258(15) 0.97511(14) 0.46970(14)
C8_3 C 0.1298(2) 0.8734(2) 0.6160(2)
H3_3 H 0.2607 0.9856 0.4875
H4_3 H 0.2987 0.9403 0.4379
N14_3 N 0.09330(19) 0.85262(17) 0.67838(19)
C9_3 C 0.1600(3) 0.8203(2) 0.5668(3)
C11_3 C 0.0856(3) 0.7796(2) 0.6897(3)
H5_3 H 0.1855 0.8355 0.5237
N15_3 N 0.1530(4) 0.7493(2) 0.5802(3)
H8_3 H 0.0580 0.7624 0.7305
C13_3 C 0.1178(4) 0.7324(3) 0.6417(4)
H9_3 H 0.1146 0.6832 0.6538
H10_3 H 0.6526 0.9761 0.4647
N16_3 N 0.7433(2) 0.9963(3) 0.5237(3)
N5_4 N 0.84072(17) 0.01638(15) 0.04223(17)
C5_4 C 0.8650(2) 0.05030(19) 0.1039(2)
N8_4 N 0.88967(15) 0.00420(15) 0.15910(16)
C8_4 C 0.8702(2) 0.1266(2) 0.1160(2)
Co3_3 Co 0.94392(3) 0.05608(3) 0.2500
N14_4 N 0.90670(19) 0.14738(17) 0.17838(19)
C9_4 C 0.8400(3) 0.1797(2) 0.0668(3)
C11_4 C 0.9144(3) 0.2204(2) 0.1897(3)
H5_4 H 0.8145 0.1645 0.0237
N15_4 N 0.8470(4) 0.2507(2) 0.0802(3)
H8_4 H 0.9420 0.2376 0.2305
C13_4 C 0.8822(4) 0.2676(3) 0.1417(4)
H9_4 H 0.8854 0.3168 0.1538
N16_4 N 0.2567(2) 0.0037(3) 0.0237(3)
N30_2 N 0.99580(15) 0.11033(15) 0.34090(16)
N31_2 N 0.85262(17) 0.09330(19) 0.32162(19)
N21_4 N 0.98362(15) 0.15928(17) 0.45777(17)
C21_4 C 0.94970(19) 0.1350(2) 0.3961(2)
O3_4 O 0.97511(14) 0.30258(15) 0.53030(14)
C24_4 C 0.8734(2) 0.1298(2) 0.3840(2)
H15_4 H 0.9856 0.2607 0.5125
H16_4 H 0.9403 0.2987 0.5621
C25_4 C 0.8203(2) 0.1600(3) 0.4332(3)
C27_4 C 0.7796(2) 0.0856(3) 0.3103(3)
H19_4 H 0.8355 0.1855 0.4763
N35_4 N 0.7493(2) 0.1530(4) 0.4198(3)
H20_4 H 0.7624 0.0580 0.2695
C29_4 C 0.7324(3) 0.1178(4) 0.3583(4)
H21_4 H 0.6832 0.1146 0.3462
H22_4 H 0.9761 0.6526 0.5353
N38_4 N 0.9963(3) 0.7433(2) 0.4763(3)
O1_4 O 0.69742(15) 0.02489(14) 0.96970(14)
H3_4 H 0.7393 0.0144 0.9875
H4_4 H 0.7013 0.0597 0.9379
H10_4 H 0.3474 0.0239 0.9647
loop_
_geom_bond_atom_site_label_1
_geom_bond_atom_site_label_2
_geom_bond_site_symmetry_1
_geom_bond_site_symmetry_2
H17 O4 1_555 1_555
H18 O4 1_555 1_555
Co1 N1 1_555 1_555
N1 N4 1_555 1_555
N2 Co1 1_555 1_555
N3 Co1 1_555 1_555
N4 C4 1_555 1_555
C1 N1 1_555 1_555
C2 N2 1_555 1_555
C3 N3 1_555 1_555
N6 N3 1_555 1_555
C4 N7 1_555 1_555
N7 C1 1_555 1_555
H1 C1 1_555 1_555
N9 C3 1_555 1_555
C6 N6 1_555 1_555
C7 C4 1_555 1_555
H2 C6 1_555 1_555
H6 O2 1_555 1_555
H7 O2 1_555 1_555
C12 C10 1_555 1_555
C14 C12 1_555 1_555
C15 H11 1_555 1_555
C16 C15 1_555 1_555
H12 C16 1_555 1_555
Co4 N6 1_555 1_555
N26 Co4 1_555 1_555
N27 Co4 1_555 1_555
N28 Co4 1_555 1_555
N29 C7 1_555 1_555
N32 N26 1_555 1_555
Co6 N29 1_555 1_555
N36 C12 1_555 1_555
C2 C3 1_555 1_555
N9 C6 1_555 1_555
C10 N29 1_555 1_555
C15 N36 1_555 1_555
Co6 N36 1_555 1_555
N10 Co2 1_555 1_555
N11 Co2 1_555 1_555
N12 Co2 1_555 1_555
N13 N10 1_555 1_555
N17 Co1_2 1_555 1_555
N18 Co1_2 1_555 1_555
N19 Co1_2 1_555 1_555
N20 N17 1_555 1_555
C17 N17 1_555 1_555
C18 N18 1_555 1_555
C19 N19 1_555 1_555
N22 Co2 1_555 1_555
C20 N20 1_555 1_555
N23 C17 1_555 1_555
H13 C17 1_555 1_555
N25 C19 1_555 1_555
C22 N22 1_555 1_555
C23 C20 1_555 1_555
H14 C22 1_555 1_555
N33 C23 1_555 1_555
Co7 N33 1_555 1_555
C28 C26 1_555 1_555
N37 Co7 1_555 1_555
C30 C28 1_555 1_555
C31 N37 1_555 1_555
H23 C31 1_555 1_555
C32 C31 1_555 1_555
H24 C32 1_555 1_555
N19 N22 1_555 1_555
C18 C19 1_555 1_555
C20 N23 1_555 1_555
N25 C22 1_555 1_555
N33 C26 1_555 1_555
C28 N37 1_555 1_555
Co1_3 N1_2 1_555 1_555
N1_2 N4_2 1_555 1_555
N2_2 Co1_3 1_555 1_555
N3_2 Co1_3 1_555 1_555
N4_2 C4_2 1_555 1_555
C1_2 N1_2 1_555 1_555
C2_2 N2_2 1_555 1_555
C3_2 N3_2 1_555 1_555
N6_2 N3_2 1_555 1_555
C4_2 N7_2 1_555 1_555
Co2_2 N4_2 1_555 1_555
N7_2 C1_2 1_555 1_555
H1_2 C1_2 1_555 1_555
N9_2 C3_2 1_555 1_555
C6_2 N6_2 1_555 1_555
C7_2 C4_2 1_555 1_555
N10_2 Co2_2 1_555 1_555
N11_2 Co2_2 1_555 1_555
N12_2 Co2_2 1_555 1_555
H2_2 C6_2 1_555 1_555
N13_2 N10_2 1_555 1_555
C10_2 N13_2 1_555 1_555
H6_2 O2_2 1_555 1_555
H7_2 O2_2 1_555 1_555
C12_2 C10_2 1_555 1_555
C14_2 C12_2 1_555 1_555
C15_2 H11_2 1_555 1_555
C16_2 C15_2 1_555 1_555
H12_2 C16_2 1_555 1_555
N17_2 Co1_3 1_555 1_555
N18_2 Co1_3 1_555 1_555
N19_2 Co1_3 1_555 1_555
N20_2 N17_2 1_555 1_555
C17_2 N17_2 1_555 1_555
C18_2 N18_2 1_555 1_555
C19_2 N19_2 1_555 1_555
N22_2 Co2_2 1_555 1_555
Co4_2 N6_2 1_555 1_555
C20_2 N20_2 1_555 1_555
N23_2 C17_2 1_555 1_555
H13_2 C17_2 1_555 1_555
N25_2 C19_2 1_555 1_555
C22_2 N22_2 1_555 1_555
N26_2 Co4_2 1_555 1_555
N27_2 Co4_2 1_555 1_555
N28_2 Co4_2 1_555 1_555
C23_2 C20_2 1_555 1_555
H14_2 C22_2 1_555 1_555
N29_2 C7_2 1_555 1_555
N32_2 N26_2 1_555 1_555
N33_2 C23_2 1_555 1_555
Co6_2 N29_2 1_555 1_555
C26_2 N32_2 1_555 1_555
Co7_2 N33_2 1_555 1_555
N36_2 C12_2 1_555 1_555
C28_2 C26_2 1_555 1_555
N37_2 Co7_2 1_555 1_555
C30_2 C28_2 1_555 1_555
C31_2 N37_2 1_555 1_555
H23_2 C31_2 1_555 1_555
C32_2 C31_2 1_555 1_555
H24_2 C32_2 1_555 1_555
C2_2 C3_2 1_555 1_555
N9_2 C6_2 1_555 1_555
C7_2 N10_2 1_555 1_555
C10_2 N29_2 1_555 1_555
C15_2 N36_2 1_555 1_555
N19_2 N22_2 1_555 1_555
N20_2 Co4_2 1_555 1_555
C18_2 C19_2 1_555 1_555
C20_2 N23_2 1_555 1_555
N25_2 C22_2 1_555 1_555
N26_2 C23_2 1_555 1_555
N33_2 C26_2 1_555 1_555
Co6_2 N36_2 1_555 1_555
C28_2 N37_2 1_555 1_555
H17_2 O4_2 1_555 1_555
H18_2 O4_2 1_555 1_555
C26_3 N32_3 1_555 1_555
C28_3 C26_3 1_555 1_555
C30_3 C28_3 1_555 1_555
C31_3 N28_2 1_555 1_555
H22 C30_3 1_555 1_555
N38 C30_3 1_555 1_555
H23_3 C31_3 1_555 1_555
C32_3 C31_3 1_555 1_555
H24_3 C32_3 1_555 1_555
N27_2 C26_3 1_555 1_555
C28_3 N28_2 1_555 1_555
N38 C32_3 1_555 1_555
O2_3 Co3 1_555 1_555
H6_3 O2_3 1_555 1_555
H7_3 O2_3 1_555 1_555
N30 Co3 1_555 1_555
N31 Co3 1_555 1_555
Co1_4 N1_3 1_555 1_555
N1_3 N4_3 1_555 1_555
N2_3 Co1_4 1_555 1_555
N3_3 Co1_4 1_555 1_555
N4_3 C4_3 1_555 1_555
C1_3 N1_3 1_555 1_555
N5 N2_3 1_555 1_555
C2_3 N2_3 1_555 1_555
C3_3 N3_3 1_555 1_555
N6_3 N3_3 1_555 1_555
C4_3 N7_3 1_555 1_555
Co6_2 N4_3 1_555 1_555
N7_3 C1_3 1_555 1_555
H1_3 C1_3 1_555 1_555
C5 N5 1_555 1_555
N8 C2_3 1_555 1_555
N9_3 C3_3 1_555 1_555
C6_3 N6_3 1_555 1_555
C7_3 C4_3 1_555 1_555
N10_3 Co6_2 1_555 1_555
O1 Co6_2 1_555 1_555
C8 C5 1_555 1_555
Co3_2 N8 1_555 1_555
H2_3 C6_3 1_555 1_555
H3 O1 1_555 1_555
H4 O1 1_555 1_555
N14 C8 1_555 1_555
C9 C8 1_555 1_555
C11 N14 1_555 1_555
H5 C9 1_555 1_555
N15 C9 1_555 1_555
H8 C11 1_555 1_555
C13 C11 1_555 1_555
H9 C13 1_555 1_555
N17_3 Co1_4 1_555 1_555
N18_3 Co1_4 1_555 1_555
N19_3 Co1_4 1_555 1_555
N20_3 N17_3 1_555 1_555
C17_3 N17_3 1_555 1_555
N21 N18_3 1_555 1_555
C18_3 N18_3 1_555 1_555
C19_3 N19_3 1_555 1_555
N22_3 Co6_2 1_555 1_555
Co7 N6_3 1_555 1_555
C20_3 N20_3 1_555 1_555
N23_3 C17_3 1_555 1_555
H13_3 C17_3 1_555 1_555
C21 N21 1_555 1_555
N24 C18_3 1_555 1_555
N25_3 C19_3 1_555 1_555
C22_3 N22_3 1_555 1_555
N26_3 Co7 1_555 1_555
O3 Co7 1_555 1_555
C23_3 C20_3 1_555 1_555
C24 C21 1_555 1_555
Co5 N24 1_555 1_555
H14_3 C22_3 1_555 1_555
O4_3 Co3_2 1_555 1_555
H15 O3 1_555 1_555
H16 O3 1_555 1_555
N34 C24 1_555 1_555
C25 C24 1_555 1_555
H17_3 O4_3 1_555 1_555
H18_3 O4_3 1_555 1_555
C27 N34 1_555 1_555
H19 C25 1_555 1_555
N35 C25 1_555 1_555
H20 C27 1_555 1_555
C29 C27 1_555 1_555
H21 C29 1_555 1_555
C2_3 C3_3 1_555 1_555
C5 N8 1_555 1_555
N9_3 C6_3 1_555 1_555
C7_3 N10_3 1_555 1_555
Co3_2 N14 1_555 1_555
N15 C13 1_555 1_555
N19_3 N22_3 1_555 1_555
N20_3 Co7 1_555 1_555
C18_3 C19_3 1_555 1_555
C20_3 N23_3 1_555 1_555
C21 N24 1_555 1_555
N25_3 C22_3 1_555 1_555
N26_3 C23_3 1_555 1_555
Co5 N34 1_555 1_555
N35 C29 1_555 1_555
C10_3 N13_3 1_555 1_555
C12_3 C10_3 1_555 1_555
C14_3 C12_3 1_555 1_555
C15_3 H11_3 1_555 1_555
H10 C14_3 1_555 1_555
N16 C14_3 1_555 1_555
C16_3 C15_3 1_555 1_555
H12_3 C16_3 1_555 1_555
N12 C12_3 1_555 1_555
C10_3 N11 1_555 1_555
C15_3 N12 1_555 1_555
N16 C16_3 1_555 1_555
C10_4 N13_4 1_555 1_555
C12_4 C10_4 1_555 1_555
C14_4 C12_4 1_555 1_555
C15_4 H11_4 1_555 1_555
H10_2 C14_4 1_555 1_555
N16_2 C14_4 1_555 1_555
C16_4 C15_4 1_555 1_555
H12_4 C16_4 1_555 1_555
N12_2 C12_4 1_555 1_555
C10_4 N11_2 1_555 1_555
C15_4 N12_2 1_555 1_555
N16_2 C16_4 1_555 1_555
Co1_5 N1_4 1_555 1_555
N1_4 N4_4 1_555 1_555
N2_4 Co1_5 1_555 1_555
N3_4 Co1_5 1_555 1_555
N4_4 C4_4 1_555 1_555
C1_4 N1_4 1_555 1_555
N5_2 N2_4 1_555 1_555
C2_4 N2_4 1_555 1_555
C3_4 N3_4 1_555 1_555
N6_4 N3_4 1_555 1_555
C4_4 N7_4 1_555 1_555
Co6 N4_4 1_555 1_555
N7_4 C1_4 1_555 1_555
H1_4 C1_4 1_555 1_555
C5_2 N5_2 1_555 1_555
N8_2 C2_4 1_555 1_555
N9_4 C3_4 1_555 1_555
C6_4 N6_4 1_555 1_555
C7_4 C4_4 1_555 1_555
N10_4 Co6 1_555 1_555
O1_2 Co6 1_555 1_555
C8_2 C5_2 1_555 1_555
Co5 N8_2 1_555 1_555
H2_4 C6_4 1_555 1_555
H3_2 O1_2 1_555 1_555
H4_2 O1_2 1_555 1_555
N14_2 C8_2 1_555 1_555
C9_2 C8_2 1_555 1_555
O2_4 Co5 1_555 1_555
C11_2 N14_2 1_555 1_555
H5_2 C9_2 1_555 1_555
N15_2 C9_2 1_555 1_555
H6_4 O2_4 1_555 1_555
H7_4 O2_4 1_555 1_555
H8_2 C11_2 1_555 1_555
C13_2 C11_2 1_555 1_555
H9_2 C13_2 1_555 1_555
N17_4 Co1_5 1_555 1_555
N18_4 Co1_5 1_555 1_555
N19_4 Co1_5 1_555 1_555
N20_4 N17_4 1_555 1_555
C17_4 N17_4 1_555 1_555
N21_2 N18_4 1_555 1_555
C18_4 N18_4 1_555 1_555
C19_4 N19_4 1_555 1_555
N22_4 Co6 1_555 1_555
Co7_2 N6_4 1_555 1_555
C20_4 N20_4 1_555 1_555
N23_4 C17_4 1_555 1_555
H13_4 C17_4 1_555 1_555
C21_2 N21_2 1_555 1_555
N30 C18_4 1_555 1_555
N25_4 C19_4 1_555 1_555
C22_4 N22_4 1_555 1_555
N26_4 Co7_2 1_555 1_555
O3_2 Co7_2 1_555 1_555
C23_4 C20_4 1_555 1_555
C24_2 C21_2 1_555 1_555
H14_4 C22_4 1_555 1_555
O4_4 Co5 1_555 1_555
H15_2 O3_2 1_555 1_555
H16_2 O3_2 1_555 1_555
N31 C24_2 1_555 1_555
C25_2 C24_2 1_555 1_555
H17_4 O4_4 1_555 1_555
H18_4 O4_4 1_555 1_555
C27_2 N31 1_555 1_555
H19_2 C25_2 1_555 1_555
N35_2 C25_2 1_555 1_555
H20_2 C27_2 1_555 1_555
C29_2 C27_2 1_555 1_555
H21_2 C29_2 1_555 1_555
C2_4 C3_4 1_555 1_555
C5_2 N8_2 1_555 1_555
N9_4 C6_4 1_555 1_555
C7_4 N10_4 1_555 1_555
Co5 N14_2 1_555 1_555
N15_2 C13_2 1_555 1_555
N19_4 N22_4 1_555 1_555
N20_4 Co7_2 1_555 1_555
C18_4 C19_4 1_555 1_555
C20_4 N23_4 1_555 1_555
C21_2 N30 1_555 1_555
N25_4 C22_4 1_555 1_555
N26_4 C23_4 1_555 1_555
N35_2 C29_2 1_555 1_555
C26_4 N32_4 1_555 1_555
C28_4 C26_4 1_555 1_555
C30_4 C28_4 1_555 1_555
C31_4 N28 1_555 1_555
H22_2 C30_4 1_555 1_555
N38_2 C30_4 1_555 1_555
H23_4 C31_4 1_555 1_555
C32_4 C31_4 1_555 1_555
H24_4 C32_4 1_555 1_555
N27 C26_4 1_555 1_555
C28_4 N28 1_555 1_555
N38_2 C32_4 1_555 1_555
H15_3 O3_3 1_555 1_555
H16_3 O3_3 1_555 1_555
C21_3 N21_3 1_555 1_555
C24_3 C21_3 1_555 1_555
Co5_2 N24_2 1_555 1_555
N34_2 C24_3 1_555 1_555
C25_3 C24_3 1_555 1_555
C27_3 N34_2 1_555 1_555
H19_3 C25_3 1_555 1_555
N35_3 C25_3 1_555 1_555
H20_3 C27_3 1_555 1_555
C29_3 C27_3 1_555 1_555
H21_3 C29_3 1_555 1_555
C21_3 N24_2 1_555 1_555
Co5_2 N34_2 1_555 1_555
N35_3 C29_3 1_555 1_555
C5_3 N5_3 1_555 1_555
C8_3 C5_3 1_555 1_555
Co5_2 N8_3 1_555 1_555
H3_3 O1_3 1_555 1_555
H4_3 O1_3 1_555 1_555
N14_3 C8_3 1_555 1_555
C9_3 C8_3 1_555 1_555
C11_3 N14_3 1_555 1_555
H5_3 C9_3 1_555 1_555
N15_3 C9_3 1_555 1_555
H8_3 C11_3 1_555 1_555
C13_3 C11_3 1_555 1_555
H9_3 C13_3 1_555 1_555
C5_3 N8_3 1_555 1_555
Co5_2 N14_3 1_555 1_555
N15_3 C13_3 1_555 1_555
C5_4 N5_4 1_555 1_555
C8_4 C5_4 1_555 1_555
Co3_3 N8_4 1_555 1_555
N14_4 C8_4 1_555 1_555
C9_4 C8_4 1_555 1_555
C11_4 N14_4 1_555 1_555
H5_4 C9_4 1_555 1_555
N15_4 C9_4 1_555 1_555
H8_4 C11_4 1_555 1_555
C13_4 C11_4 1_555 1_555
H9_4 C13_4 1_555 1_555
N30_2 Co3_3 1_555 1_555
N31_2 Co3_3 1_555 1_555
C5_4 N8_4 1_555 1_555
Co3_3 N14_4 1_555 1_555
N15_4 C13_4 1_555 1_555
C21_4 N21_4 1_555 1_555
C24_4 C21_4 1_555 1_555
H15_4 O3_4 1_555 1_555
H16_4 O3_4 1_555 1_555
N31_2 C24_4 1_555 1_555
C25_4 C24_4 1_555 1_555
C27_4 N31_2 1_555 1_555
H19_4 C25_4 1_555 1_555
N35_4 C25_4 1_555 1_555
H20_4 C27_4 1_555 1_555
C29_4 C27_4 1_555 1_555
H21_4 C29_4 1_555 1_555
C21_4 N30_2 1_555 1_555
N35_4 C29_4 1_555 1_555
H3_4 O1_4 1_555 1_555
H4_4 O1_4 1_555 1_555

#END
