
###############################################################################
#
# This file contains modified crystal structure data generated from the
# MOF subset of the Cambridge Structural Database (CSD) v543 
# hosted by the Cambridge Crystallographic Data Centre (CCDC).
#
# This work is licensed under the Creative Commons
# Attribution-NonCommercial-ShareAlike 4.0 International License.
# To view a copy of this license, visit
# http://creativecommons.org/licenses/by-nc-sa/4.0/
# or send a letter to
# Creative Commons, PO Box 1866, Mountain View, CA 94042, USA.
#
# CIF created using the CSD Python API on 29 September 2022
# The structure has been converted into the P1 space group
# The structure has a 3D framework
# The original CSD entry XORRON is in the tetragonal crystal system
# The framework has been calculated to contain at least 10.0% void space
# The void calculation uses a probe of radius 1.32A, grid spacing 0.4
#
###############################################################################

data_XORRON
_chemical_formula_moiety         '(C56 H59 O65 S8 Tb8)n'
_symmetry_cell_setting           triclinic
_symmetry_space_group_name_H-M   'P 1'
_symmetry_Int_Tables_number      1
_space_group_name_Hall           'P 1'
loop_
_symmetry_equiv_pos_site_id
_symmetry_equiv_pos_as_xyz
1 x,y,z
_cell_length_a                   12.8897(5)
_cell_length_b                   12.8897(5)
_cell_length_c                   16.4462(12)
_cell_angle_alpha                90
_cell_angle_beta                 90
_cell_angle_gamma                90
_cell_volume                     2732.44
loop_
_atom_site_label
_atom_site_type_symbol
_atom_site_fract_x
_atom_site_fract_y
_atom_site_fract_z
Tb6 Tb 0.03256(2) 0.15160(2) 0.57642(2)
Tb2 Tb 0.53256(2) 0.65160(2) 0.07642(2)
O15 O 0.6007(3) 0.4830(3) 0.0628(3)
H12 H 0.6513 0.4727 0.0949
O16 O 0.6794(4) 0.6547(5) 0.1689(4)
H13 H 0.7359 0.6814 0.1524
H14 H 0.6958 0.5968 0.1901
O17 O 0.5530(4) 0.8354(4) 0.1233(3)
H15 H 0.5253 0.8319 0.1701
H16 H 0.5871 0.8905 0.1135
Tb4 Tb 0.46744(2) 0.34840(2) 0.07642(2)
O19 O 0.3893(4) 0.7522(4) 0.0449(3)
O21 O 0.6617(4) 0.7419(4) 0.0062(4)
O22 O 0.4519(4) 0.6551(4) 0.2054(3)
O24 O 0.3993(3) 0.5170(3) 0.0628(3)
Tb1 Tb 0.34840(2) 0.53256(2) 0.92358(2)
S1 S 0.28658(14) 0.43926(13) 0.71847(12)
O1 O 0.1107(4) 0.7478(4) 0.5449(3)
O2 O 0.2419(4) 0.8383(4) 0.4938(4)
O3 O 0.5000 0.5000 0.6790(4)
O4 O 0.3142(5) 0.3435(4) 0.6775(3)
O5 O 0.1754(3) 0.4508(4) 0.7302(3)
O6 O 0.3449(4) 0.4519(4) 0.7946(3)
O7 O 0.5170(3) 0.6007(3) 0.9372(3)
H1 H 0.5273 0.6513 0.9051
O8 O 0.3453(5) 0.6794(4) 0.8311(4)
H2 H 0.3186 0.7359 0.8476
H3 H 0.4032 0.6958 0.8099
O9 O 0.1646(4) 0.5530(4) 0.8767(3)
H4 H 0.1681 0.5253 0.8299
H5 H 0.1095 0.5871 0.8865
C1 C 0.2060(5) 0.7630(6) 0.5323(4)
C2 C 0.2829(5) 0.6869(5) 0.5669(5)
C3 C 0.3865(5) 0.6967(5) 0.5474(5)
H6 H 0.4071 0.7468 0.5101
C4 C 0.4598(5) 0.6329(5) 0.5827(5)
H7 H 0.5298 0.6407 0.5702
C5 C 0.4281(5) 0.5581(5) 0.6362(4)
C6 C 0.3260(5) 0.5411(6) 0.6538(4)
C7 C 0.2511(6) 0.6091(5) 0.6188(5)
H8 H 0.1811 0.6011 0.6309
S2 S 0.71342(14) 0.56074(13) 0.71847(12)
O10 O 0.8893(4) 0.2522(4) 0.5449(3)
O11 O 0.7581(4) 0.1617(4) 0.4938(4)
O12 O 0.6858(5) 0.6565(4) 0.6775(3)
O13 O 0.8246(3) 0.5492(4) 0.7302(3)
O14 O 0.6551(4) 0.5481(4) 0.7946(3)
C8 C 0.7940(5) 0.2370(6) 0.5323(4)
C9 C 0.7171(5) 0.3131(5) 0.5669(5)
C10 C 0.6135(5) 0.3033(5) 0.5474(5)
H9 H 0.5929 0.2532 0.5101
C11 C 0.5402(5) 0.3671(5) 0.5827(5)
H10 H 0.4702 0.3593 0.5702
C12 C 0.5719(5) 0.4419(5) 0.6362(4)
C13 C 0.6740(5) 0.4589(6) 0.6538(4)
C14 C 0.7489(6) 0.3909(5) 0.6188(5)
H11 H 0.8189 0.3989 0.6309
Tb3 Tb 0.65160(2) 0.46744(2) 0.92358(2)
Tb5 Tb 0.84840(2) 0.03256(2) 0.42358(2)
Tb7 Tb 0.15160(2) 0.96744(2) 0.42358(2)
O18 O 0.2478(4) 0.3893(4) 0.9551(3)
O20 O 0.2581(4) 0.6617(4) 0.9938(4)
O23 O 0.4830(3) 0.3993(3) 0.9372(3)
Tb8 Tb 0.96744(2) 0.84840(2) 0.57642(2)
S1_2 S 0.43926(13) 0.71342(14) 0.28153(12)
O1_2 O 0.7478(4) 0.8893(4) 0.4551(3)
O2_2 O 0.8383(4) 0.7581(4) 0.5062(4)
O3_2 O 0.5000 0.5000 0.3210(4)
O4_2 O 0.3435(4) 0.6858(5) 0.3225(3)
O5_2 O 0.4508(4) 0.8246(3) 0.2698(3)
C1_2 C 0.7630(6) 0.7940(5) 0.4677(4)
C2_2 C 0.6869(5) 0.7171(5) 0.4331(5)
C3_2 C 0.6967(5) 0.6135(5) 0.4526(5)
H6_2 H 0.7468 0.5929 0.4899
C4_2 C 0.6329(5) 0.5402(5) 0.4173(5)
H7_2 H 0.6407 0.4702 0.4298
C5_2 C 0.5581(5) 0.5719(5) 0.3638(4)
C6_2 C 0.5411(6) 0.6740(5) 0.3462(4)
C7_2 C 0.6091(5) 0.7489(6) 0.3812(5)
H8_2 H 0.6011 0.8189 0.3691
S2_2 S 0.56074(13) 0.28658(14) 0.28153(12)
O10_2 O 0.2522(4) 0.1107(4) 0.4551(3)
O11_2 O 0.1617(4) 0.2419(4) 0.5062(4)
O12_2 O 0.6565(4) 0.3142(5) 0.3225(3)
O13_2 O 0.5492(4) 0.1754(3) 0.2698(3)
O14_2 O 0.5481(4) 0.3449(4) 0.2054(3)
C8_2 C 0.2370(6) 0.2060(5) 0.4677(4)
C9_2 C 0.3131(5) 0.2829(5) 0.4331(5)
C10_2 C 0.3033(5) 0.3865(5) 0.4526(5)
H9_2 H 0.2532 0.4071 0.4899
C11_2 C 0.3671(5) 0.4598(5) 0.4173(5)
H10_2 H 0.3593 0.5298 0.4298
C12_2 C 0.4419(5) 0.4281(5) 0.3638(4)
C13_2 C 0.4589(6) 0.3260(5) 0.3462(4)
C14_2 C 0.3909(5) 0.2511(6) 0.3812(5)
H11_2 H 0.3989 0.1811 0.3691
H12_2 H 0.4727 0.3487 0.9051
O16_2 O 0.6547(5) 0.3206(4) 0.8311(4)
H13_2 H 0.6814 0.2641 0.8476
H14_2 H 0.5968 0.3042 0.8099
O17_2 O 0.8354(4) 0.4470(4) 0.8767(3)
H15_2 H 0.8319 0.4747 0.8299
H16_2 H 0.8905 0.4129 0.8865
O19_2 O 0.7522(4) 0.6107(4) 0.9551(3)
O21_2 O 0.7419(4) 0.3383(4) 0.9938(4)
H12_3 H 0.3487 0.5273 0.0949
O16_3 O 0.3206(4) 0.3453(5) 0.1689(4)
H13_3 H 0.2641 0.3186 0.1524
H14_3 H 0.3042 0.4032 0.1901
O17_3 O 0.4470(4) 0.1646(4) 0.1233(3)
H15_3 H 0.4747 0.1681 0.1701
H16_3 H 0.4129 0.1095 0.1135
O19_3 O 0.6107(4) 0.2478(4) 0.0449(3)
O21_3 O 0.3383(4) 0.2581(4) 0.0062(4)
O3_3 O 0.0000 0.0000 0.1790(4)
O7_2 O 0.0170(3) 0.1007(3) 0.4372(3)
H1_2 H 0.0273 0.1513 0.4051
H7_3 H 0.0298 0.1407 0.0702
S2_3 S 0.21342(14) 0.06074(13) 0.21847(12)
O12_3 O 0.1858(5) 0.1565(4) 0.1775(3)
O13_3 O 0.3246(3) 0.0492(4) 0.2302(3)
O14_3 O 0.1551(4) 0.0481(4) 0.2946(3)
O16_4 O 0.1794(4) 0.1547(5) 0.6689(4)
H13_4 H 0.2359 0.1814 0.6524
H14_4 H 0.1958 0.0968 0.6901
O17_4 O 0.0530(4) 0.3354(4) 0.6233(3)
H15_4 H 0.0253 0.3319 0.6701
H16_4 H 0.0871 0.3905 0.6135
O3_4 O 0.0000 1.0000 0.1790(4)
C8_3 C 0.2940(5) 0.7370(6) 0.0323(4)
C9_3 C 0.2171(5) 0.8131(5) 0.0669(5)
C10_3 C 0.1135(5) 0.8033(5) 0.0474(5)
H9_3 H 0.0929 0.7532 0.0101
C11_3 C 0.0402(5) 0.8671(5) 0.0827(5)
C12_3 C 0.0719(5) 0.9419(5) 0.1362(4)
C13_3 C 0.1740(5) 0.9589(6) 0.1538(4)
C14_3 C 0.2489(6) 0.8909(5) 0.1188(5)
H11_3 H 0.3189 0.8989 0.1309
O15_2 O 0.1007(3) 0.9830(3) 0.5628(3)
H12_4 H 0.1513 0.9727 0.5949
O3_5 O 1.0000 0.0000 0.1790(4)
O8_2 O 0.8453(5) 0.1794(4) 0.3311(4)
H2_2 H 0.8186 0.2359 0.3476
H3_2 H 0.9032 0.1958 0.3099
O9_2 O 0.6646(4) 0.0530(4) 0.3767(3)
H4_2 H 0.6681 0.0253 0.3299
H5_2 H 0.6095 0.0871 0.3865
C1_3 C 0.7060(5) 0.2630(6) 0.0323(4)
C2_3 C 0.7829(5) 0.1869(5) 0.0669(5)
C3_3 C 0.8865(5) 0.1967(5) 0.0474(5)
H6_3 H 0.9071 0.2468 0.0101
C4_3 C 0.9598(5) 0.1329(5) 0.0827(5)
C5_3 C 0.9281(5) 0.0581(5) 0.1362(4)
C6_3 C 0.8260(5) 0.0411(6) 0.1538(4)
C7_3 C 0.7511(6) 0.1091(5) 0.1188(5)
H8_3 H 0.6811 0.1011 0.1309
O22_2 O 0.9519(4) 0.1551(4) 0.7054(3)
O24_2 O 0.8993(3) 0.0170(3) 0.5628(3)
S1_3 S 0.78658(14) 0.93926(13) 0.21847(12)
O3_6 O 1.0000 1.0000 0.1790(4)
O4_3 O 0.8142(5) 0.8435(4) 0.1775(3)
O5_3 O 0.6754(3) 0.9508(4) 0.2302(3)
O6_2 O 0.8449(4) 0.9519(4) 0.2946(3)
H10_3 H 0.9702 0.8593 0.0702
O23_2 O 0.9830(3) 0.8993(3) 0.4372(3)
O3_7 O 0.0000 -0.0000 0.8210(4)
C1_4 C 0.2630(6) 0.2940(5) 0.9677(4)
C2_4 C 0.1869(5) 0.2171(5) 0.9331(5)
C3_4 C 0.1967(5) 0.1135(5) 0.9526(5)
H6_4 H 0.2468 0.0929 0.9899
C4_4 C 0.1329(5) 0.0402(5) 0.9173(5)
C5_4 C 0.0581(5) 0.0719(5) 0.8638(4)
C6_4 C 0.0411(6) 0.1740(5) 0.8462(4)
C7_4 C 0.1091(5) 0.2489(6) 0.8812(5)
H8_4 H 0.1011 0.3189 0.8691
O3_8 O 0.0000 1.0000 0.8210(4)
H7_4 H 0.1407 0.9702 0.9298
S2_4 S 0.06074(13) 0.78658(14) 0.78153(12)
O12_4 O 0.1565(4) 0.8142(5) 0.8225(3)
O13_4 O 0.0492(4) 0.6754(3) 0.7698(3)
O14_4 O 0.0481(4) 0.8449(4) 0.7054(3)
O16_5 O 0.1547(5) 0.8206(4) 0.3311(4)
H13_5 H 0.1814 0.7641 0.3476
H14_5 H 0.0968 0.8042 0.3099
O17_5 O 0.3354(4) 0.9470(4) 0.3767(3)
H15_5 H 0.3319 0.9747 0.3299
H16_5 H 0.3905 0.9129 0.3865
S1_4 S 0.93926(13) 0.21342(14) 0.78153(12)
O3_9 O 1.0000 -0.0000 0.8210(4)
O4_4 O 0.8435(4) 0.1858(5) 0.8225(3)
O5_4 O 0.9508(4) 0.3246(3) 0.7698(3)
H10_4 H 0.8593 0.0298 0.9298
O3_10 O 1.0000 1.0000 0.8210(4)
C8_4 C 0.7370(6) 0.7060(5) 0.9677(4)
C9_4 C 0.8131(5) 0.7829(5) 0.9331(5)
C10_4 C 0.8033(5) 0.8865(5) 0.9526(5)
H9_4 H 0.7532 0.9071 0.9899
C11_4 C 0.8671(5) 0.9598(5) 0.9173(5)
C12_4 C 0.9419(5) 0.9281(5) 0.8638(4)
C13_4 C 0.9589(6) 0.8260(5) 0.8462(4)
C14_4 C 0.8909(5) 0.7511(6) 0.8812(5)
H11_4 H 0.8989 0.6811 0.8691
H12_5 H 0.9727 0.8487 0.4051
H12_6 H 0.8487 0.0273 0.5949
O16_6 O 0.8206(4) 0.8453(5) 0.6689(4)
H13_6 H 0.7641 0.8186 0.6524
H14_6 H 0.8042 0.9032 0.6901
O17_6 O 0.9470(4) 0.6646(4) 0.6233(3)
H15_6 H 0.9747 0.6681 0.6701
H16_6 H 0.9129 0.6095 0.6135
loop_
_geom_bond_atom_site_label_1
_geom_bond_atom_site_label_2
_geom_bond_site_symmetry_1
_geom_bond_site_symmetry_2
O15 Tb2 1_555 1_555
H12 O15 1_555 1_555
O16 Tb2 1_555 1_555
H13 O16 1_555 1_555
H14 O16 1_555 1_555
O17 Tb2 1_555 1_555
H15 O17 1_555 1_555
H16 O17 1_555 1_555
Tb4 O15 1_555 1_555
O19 Tb2 1_555 1_555
O21 Tb2 1_555 1_555
O22 Tb2 1_555 1_555
Tb2 O24 1_555 1_555
Tb4 O24 1_555 1_555
Tb1 O6 1_555 1_555
S1 O4 1_555 1_555
O1 C1 1_555 1_555
O2 C1 1_555 1_555
O3 C5 1_555 1_555
O5 S1 1_555 1_555
O6 S1 1_555 1_555
O7 Tb1 1_555 1_555
H1 O7 1_555 1_555
O8 Tb1 1_555 1_555
H2 O8 1_555 1_555
H3 O8 1_555 1_555
O9 Tb1 1_555 1_555
H4 O9 1_555 1_555
H5 O9 1_555 1_555
C1 C2 1_555 1_555
C2 C3 1_555 1_555
C3 H6 1_555 1_555
C4 C3 1_555 1_555
H7 C4 1_555 1_555
C5 C4 1_555 1_555
C6 S1 1_555 1_555
C7 C2 1_555 1_555
H8 C7 1_555 1_555
S2 O12 1_555 1_555
O10 C8 1_555 1_555
O11 C8 1_555 1_555
O13 S2 1_555 1_555
O14 S2 1_555 1_555
C8 C9 1_555 1_555
C9 C10 1_555 1_555
C10 H9 1_555 1_555
C11 C10 1_555 1_555
H10 C11 1_555 1_555
C12 O3 1_555 1_555
C13 S2 1_555 1_555
C14 C9 1_555 1_555
H11 C14 1_555 1_555
Tb3 O7 1_555 1_555
Tb5 O11 1_555 1_555
Tb7 O2 1_555 1_555
O18 Tb1 1_555 1_555
O20 Tb1 1_555 1_555
O23 Tb1 1_555 1_555
C5 C6 1_555 1_555
C6 C7 1_555 1_555
O14 Tb3 1_555 1_555
C11 C12 1_555 1_555
C12 C13 1_555 1_555
C13 C14 1_555 1_555
Tb3 O23 1_555 1_555
S1_2 O4_2 1_555 1_555
O1_2 C1_2 1_555 1_555
O2_2 C1_2 1_555 1_555
O3_2 C5_2 1_555 1_555
O5_2 S1_2 1_555 1_555
O22 S1_2 1_555 1_555
C1_2 C2_2 1_555 1_555
C2_2 C3_2 1_555 1_555
C3_2 H6_2 1_555 1_555
C4_2 C3_2 1_555 1_555
H7_2 C4_2 1_555 1_555
C5_2 C4_2 1_555 1_555
C6_2 S1_2 1_555 1_555
C7_2 C2_2 1_555 1_555
H8_2 C7_2 1_555 1_555
S2_2 O12_2 1_555 1_555
O10_2 C8_2 1_555 1_555
O11_2 C8_2 1_555 1_555
O13_2 S2_2 1_555 1_555
O14_2 S2_2 1_555 1_555
C8_2 C9_2 1_555 1_555
C9_2 C10_2 1_555 1_555
C10_2 H9_2 1_555 1_555
C11_2 C10_2 1_555 1_555
H10_2 C11_2 1_555 1_555
C12_2 O3_2 1_555 1_555
C13_2 S2_2 1_555 1_555
C14_2 C9_2 1_555 1_555
H11_2 C14_2 1_555 1_555
Tb6 O11_2 1_555 1_555
Tb8 O2_2 1_555 1_555
C5_2 C6_2 1_555 1_555
C6_2 C7_2 1_555 1_555
O14_2 Tb4 1_555 1_555
C11_2 C12_2 1_555 1_555
C12_2 C13_2 1_555 1_555
C13_2 C14_2 1_555 1_555
H12_2 O23 1_555 1_555
O16_2 Tb3 1_555 1_555
H13_2 O16_2 1_555 1_555
H14_2 O16_2 1_555 1_555
O17_2 Tb3 1_555 1_555
H15_2 O17_2 1_555 1_555
H16_2 O17_2 1_555 1_555
O19_2 Tb3 1_555 1_555
O21_2 Tb3 1_555 1_555
H12_3 O24 1_555 1_555
O16_3 Tb4 1_555 1_555
H13_3 O16_3 1_555 1_555
H14_3 O16_3 1_555 1_555
O17_3 Tb4 1_555 1_555
H15_3 O17_3 1_555 1_555
H16_3 O17_3 1_555 1_555
O19_3 Tb4 1_555 1_555
O21_3 Tb4 1_555 1_555
H1_2 O7_2 1_555 1_555
S2_3 O12_3 1_555 1_555
O13_3 S2_3 1_555 1_555
O14_3 S2_3 1_555 1_555
Tb6 O7_2 1_555 1_555
O16_4 Tb6 1_555 1_555
H13_4 O16_4 1_555 1_555
H14_4 O16_4 1_555 1_555
O17_4 Tb6 1_555 1_555
H15_4 O17_4 1_555 1_555
H16_4 O17_4 1_555 1_555
O19 C8_3 1_555 1_555
C8_3 C9_3 1_555 1_555
C9_3 C10_3 1_555 1_555
C10_3 H9_3 1_555 1_555
C11_3 C10_3 1_555 1_555
C12_3 O3_4 1_555 1_555
C14_3 C9_3 1_555 1_555
H11_3 C14_3 1_555 1_555
H12_4 O15_2 1_555 1_555
C11_3 C12_3 1_555 1_555
C12_3 C13_3 1_555 1_555
C13_3 C14_3 1_555 1_555
O15_2 Tb7 1_555 1_555
O19_3 C1_3 1_555 1_555
O3_5 C5_3 1_555 1_555
O8_2 Tb5 1_555 1_555
H2_2 O8_2 1_555 1_555
H3_2 O8_2 1_555 1_555
O9_2 Tb5 1_555 1_555
H4_2 O9_2 1_555 1_555
H5_2 O9_2 1_555 1_555
C1_3 C2_3 1_555 1_555
C2_3 C3_3 1_555 1_555
C3_3 H6_3 1_555 1_555
C4_3 C3_3 1_555 1_555
C5_3 C4_3 1_555 1_555
C7_3 C2_3 1_555 1_555
H8_3 C7_3 1_555 1_555
O24_2 Tb5 1_555 1_555
C5_3 C6_3 1_555 1_555
C6_3 C7_3 1_555 1_555
S1_3 O4_3 1_555 1_555
O5_3 S1_3 1_555 1_555
O6_2 S1_3 1_555 1_555
Tb8 O23_2 1_555 1_555
O18 C1_4 1_555 1_555
O3_7 C5_4 1_555 1_555
C1_4 C2_4 1_555 1_555
C2_4 C3_4 1_555 1_555
C3_4 H6_4 1_555 1_555
C4_4 C3_4 1_555 1_555
C5_4 C4_4 1_555 1_555
C7_4 C2_4 1_555 1_555
H8_4 C7_4 1_555 1_555
C5_4 C6_4 1_555 1_555
C6_4 C7_4 1_555 1_555
S2_4 O12_4 1_555 1_555
O13_4 S2_4 1_555 1_555
O14_4 S2_4 1_555 1_555
O16_5 Tb7 1_555 1_555
H13_5 O16_5 1_555 1_555
H14_5 O16_5 1_555 1_555
O17_5 Tb7 1_555 1_555
H15_5 O17_5 1_555 1_555
H16_5 O17_5 1_555 1_555
S1_4 O4_4 1_555 1_555
O5_4 S1_4 1_555 1_555
O22_2 S1_4 1_555 1_555
O19_2 C8_4 1_555 1_555
C8_4 C9_4 1_555 1_555
C9_4 C10_4 1_555 1_555
C10_4 H9_4 1_555 1_555
C11_4 C10_4 1_555 1_555
C12_4 O3_10 1_555 1_555
C14_4 C9_4 1_555 1_555
H11_4 C14_4 1_555 1_555
H12_5 O23_2 1_555 1_555
C11_4 C12_4 1_555 1_555
C12_4 C13_4 1_555 1_555
C13_4 C14_4 1_555 1_555
H12_6 O24_2 1_555 1_555
O16_6 Tb8 1_555 1_555
H13_6 O16_6 1_555 1_555
H14_6 O16_6 1_555 1_555
O17_6 Tb8 1_555 1_555
H15_6 O17_6 1_555 1_555
H16_6 O17_6 1_555 1_555

#END
