
###############################################################################
#
# This file contains modified crystal structure data generated from the
# MOF subset of the Cambridge Structural Database (CSD) v543 
# hosted by the Cambridge Crystallographic Data Centre (CCDC).
#
# This work is licensed under the Creative Commons
# Attribution-NonCommercial-ShareAlike 4.0 International License.
# To view a copy of this license, visit
# http://creativecommons.org/licenses/by-nc-sa/4.0/
# or send a letter to
# Creative Commons, PO Box 1866, Mountain View, CA 94042, USA.
#
# CIF created using the CSD Python API on 29 September 2022
# The structure has been converted into the P1 space group
# The structure has a 3D framework
# The original CSD entry XOTSEG is in the triclinic crystal system
# The framework has been calculated to contain at least 10.0% void space
# The void calculation uses a probe of radius 1.32A, grid spacing 0.4
#
###############################################################################

data_XOTSEG
_chemical_formula_moiety         '(C168 H144 Mn6 N8 O34)n'
_symmetry_cell_setting           triclinic
_symmetry_space_group_name_H-M   'P 1'
_symmetry_Int_Tables_number      1
_space_group_name_Hall           'P 1'
loop_
_symmetry_equiv_pos_site_id
_symmetry_equiv_pos_as_xyz
1 x,y,z
_cell_length_a                   13.8783(5)
_cell_length_b                   20.3674(8)
_cell_length_c                   21.0344(5)
_cell_angle_alpha                62.572(3)
_cell_angle_beta                 82.489(3)
_cell_angle_gamma                73.850(3)
_cell_volume                     5069.05
loop_
_atom_site_label
_atom_site_type_symbol
_atom_site_fract_x
_atom_site_fract_y
_atom_site_fract_z
Mn7 Mn 0.08736(7) 0.31757(5) 0.33984(4)
O20 O 0.0424(3) 0.2266(2) 0.45120(19)
C49 C 0.1013(4) 0.0200(3) 0.0412(3)
C62 C 0.0637(5) 0.0629(3) 0.0830(3)
C63 C 0.0383(5) 0.0972(4) 0.1163(3)
C64 C 0.0092(5) 0.1402(3) 0.1588(3)
C68 C 0.0291(5) 0.2350(4) 0.1884(3)
H43 H 0.0575 0.2751 0.1782
C69 C 0.0513(5) 0.1989(4) 0.1449(4)
H44 H 0.0947 0.2143 0.1062
O4 O 0.1557(3) 0.2867(2) 0.4458(2)
C47 C 0.1401(4) 0.0174(3) 0.9273(3)
C48 C 0.1060(4) 0.0604(3) 0.9660(3)
C53 C 0.0728(5) 0.1458(3) 0.9294(3)
H34 H 0.0680 0.1652 0.9638
H35 H 0.0083 0.1612 0.9078
H36 H 0.1206 0.1657 0.8930
C54 C 0.1401(5) 0.0572(4) 0.8505(3)
C55 C 0.1359(5) 0.0886(4) 0.7881(3)
C56 C 0.1268(5) 0.1275(4) 0.7114(3)
C57 C 0.0735(6) 0.1051(4) 0.6749(3)
H37 H 0.0425 0.0655 0.7014
C58 C 0.0662(5) 0.1402(4) 0.6016(3)
H38 H 0.0329 0.1230 0.5790
C59 C 0.1083(5) 0.2011(3) 0.5616(3)
C60 C 0.1591(5) 0.2266(4) 0.5954(3)
H39 H 0.1872 0.2678 0.5682
C61 C 0.1682(5) 0.1904(4) 0.6703(3)
H40 H 0.2014 0.2080 0.6926
C78 C 0.1006(5) 0.2401(3) 0.4819(3)
Mn4 Mn 0.31424(8) 0.29190(6) 0.42329(5)
O1 O 0.3423(4) 0.2442(3) 0.3504(3)
O2 O 0.2012(4) 0.2325(3) 0.3246(3)
O3 O 0.1498(4) 0.4098(3) 0.2742(2)
O14 O 0.3116(4) 0.3355(4) 0.5006(3)
O15 O 0.3563(5) 0.1806(4) 0.5123(3)
O16 O 0.4741(4) 0.2936(4) 0.4040(3)
H1 H 0.5069 0.2581 0.3918
H2 H 0.4802 0.3375 0.3699
O17 O 0.2623(4) 0.4054(3) 0.3432(2)
N1 N 0.4391(11) 0.0749(6) 0.6062(11)
N2 N 0.3556(8) 0.3859(7) 0.5629(6)
C13 C 0.5930(4) 0.0038(3) 0.0745(3)
C27 C 0.5490(4) 0.0492(4) 0.1101(3)
C28 C 0.5096(5) 0.0824(4) 0.1459(3)
C29 C 0.4568(5) 0.1184(4) 0.1890(3)
C30 C 0.5046(5) 0.1502(4) 0.2164(4)
H20 H 0.5722 0.1491 0.2065
C31 C 0.4514(5) 0.1845(4) 0.2595(4)
H21 H 0.4841 0.2064 0.2776
C32 C 0.3523(5) 0.1860(4) 0.2752(3)
C33 C 0.3041(5) 0.1520(4) 0.2483(3)
H22 H 0.2371 0.1514 0.2592
C34 C 0.3577(5) 0.1193(4) 0.2052(3)
H23 H 0.3254 0.0973 0.1869
C35 C 0.2922(6) 0.2243(4) 0.3208(3)
C36 C 0.2068(5) 0.4380(4) 0.2898(3)
C37 C 0.2064(5) 0.5204(3) 0.2398(3)
C38 C 0.1419(6) 0.5632(4) 0.1830(4)
H24 H 0.0972 0.5415 0.1746
C39 C 0.1426(7) 0.6368(4) 0.1388(4)
H25 H 0.0987 0.6649 0.1002
C40 C 0.2089(5) 0.6715(4) 0.1504(3)
C41 C 0.2735(6) 0.6282(4) 0.2079(4)
H26 H 0.3181 0.6499 0.2165
C42 C 0.2727(6) 0.5531(4) 0.2529(4)
H27 H 0.3162 0.5245 0.2917
C43 C 0.2045(5) 0.7507(4) 0.1070(3)
C44 C 0.1918(4) 0.8190(3) 0.0726(3)
C45 C 0.1643(4) 0.9011(3) 0.0365(3)
C50 C 0.1285(4) 0.9414(3) 0.0762(3)
C51 C 0.1222(5) 0.8990(4) 0.1568(3)
H28 H 0.0778 0.8661 0.1696
H29 H 0.0971 0.9349 0.1763
H30 H 0.1878 0.8689 0.1758
C79 C 0.435(3) 0.422(2) 0.5706(12)
H59 H 0.4096 0.4767 0.5501
H60 H 0.4954 0.4098 0.5462
H61 H 0.4491 0.4028 0.6205
C80 C 0.2934(19) 0.3672(12) 0.6165(8)
H62 H 0.2540 0.3380 0.6113
H63 H 0.2499 0.4126 0.6173
H64 H 0.3304 0.3372 0.6605
C81 C 0.3541(8) 0.3741(6) 0.5038(5)
H65 H 0.3903 0.3996 0.4636
C82 C 0.3619(10) 0.0339(7) 0.6303(10)
H66 H 0.3254 0.0422 0.6691
H68 H 0.3168 0.0519 0.5915
C83 C 0.4858(18) 0.0582(12) 0.6499(7)
H69 H 0.5539 0.0384 0.6392
H70 H 0.4638 0.0196 0.6922
H71 H 0.4820 0.1017 0.6578
C84 C 0.4298(9) 0.1415(7) 0.5377(8)
H72 H 0.4884 0.1526 0.5130
O10 O 0.7258(5) 0.2306(4) 0.4787(3)
O11 O 0.5823(9) 0.3022(10) 0.4946(5)
C1 C 0.6658(8) 0.1936(8) 0.6016(6)
C2 C 0.7395(8) 0.1306(7) 0.6258(5)
H3 H 0.7893 0.1200 0.5954
C3 C 0.7395(9) 0.0751(8) 0.7071(4)
H4 H 0.7853 0.0277 0.7264
C4 C 0.6705(6) 0.0983(6) 0.7483(4)
C5 C 0.6007(8) 0.1756(7) 0.7129(5)
H5 H 0.5545 0.1933 0.7412
C6 C 0.6015(9) 0.2214(7) 0.6412(5)
H6 H 0.5589 0.2700 0.6207
C7 C 0.6633(4) 0.0582(5) 0.8244(3)
C8 C 0.6565(4) 0.0272(4) 0.8877(3)
C14 C 0.6041(4) 0.0389(3) 0.9981(3)
C15 C 0.5735(5) 0.1243(3) 0.9565(3)
H7 H 0.6309 0.1428 0.9322
H8 H 0.5464 0.1464 0.9887
H9 H 0.5235 0.1384 0.9219
C46 C 0.1725(4) 0.9382(3) 0.9617(3)
C52 C 0.2137(5) 0.8930(4) 0.9196(3)
H31 H 0.1793 0.8535 0.9335
H32 H 0.2841 0.8704 0.9293
H33 H 0.2040 0.9264 0.8694
C77 C 0.6608(9) 0.2464(8) 0.5159(6)
Mn10 Mn 0.87694(8) 0.24908(6) 0.44151(5)
O6 O 0.9628(4) 0.3921(3) 0.3637(2)
O9 O 0.8134(4) 0.3689(3) 0.3701(3)
O12 O 0.9069(5) 0.1205(3) 0.5103(3)
O13 O 0.8699(4) 0.2768(4) 0.5304(3)
N3 N 0.8715(8) 0.0050(5) 0.5364(5)
N4 N 0.7952(7) 0.3337(5) 0.5972(4)
C10 C 0.6745(4) 0.9122(3) 0.0043(3)
C11 C 0.6647(4) 0.8799(3) 0.0785(3)
C12 C 0.6254(4) 0.9255(3) 0.1140(3)
C17 C 0.6146(5) 0.8894(4) 0.1948(3)
H13 H 0.5450 0.9006 0.2074
H14 H 0.6511 0.9098 0.2143
H15 H 0.6409 0.8352 0.2140
C18 C 0.6954(4) 0.7983(3) 0.1199(3)
C19 C 0.7218(5) 0.7300(4) 0.1561(3)
C20 C 0.7609(5) 0.6498(3) 0.2015(3)
C21 C 0.8586(5) 0.6215(4) 0.2251(4)
H16 H 0.9010 0.6543 0.2103
C22 C 0.8941(5) 0.5460(4) 0.2699(4)
H17 H 0.9608 0.5279 0.2844
C23 C 0.8318(5) 0.4950(4) 0.2947(3)
C24 C 0.7330(6) 0.5233(4) 0.2706(4)
H18 H 0.6913 0.4901 0.2853
C25 C 0.6959(6) 0.5992(4) 0.2257(4)
H19 H 0.6292 0.6175 0.2111
C26 C 0.8730(6) 0.4111(4) 0.3463(3)
H48 H 0.7912 0.0040 0.4647
C73 C 0.8749(9) 0.0732(6) 0.4941(5)
H51 H 0.8534 0.0924 0.4474
C74 C 0.8561(10) 0.2792(8) 0.6592(6)
H52 H 0.8147 0.2671 0.7013
H53 H 0.9070 0.3006 0.6635
H54 H 0.8872 0.2335 0.6540
C75 C 0.7189(15) 0.3963(10) 0.6034(8)
H55 H 0.7452 0.4406 0.5853
H56 H 0.7004 0.3816 0.6528
H57 H 0.6609 0.4079 0.5762
C76 C 0.8090(7) 0.3267(6) 0.5398(5)
H58 H 0.7684 0.3636 0.5012
H67 H 0.3918 0.9804 0.6463
O23 O 0.9006(4) 0.2217(2) 0.3534(2)
O7 O 0.9903(3) 0.3042(2) 0.2802(2)
C65 C 0.9433(7) 0.1177(4) 0.2175(4)
H41 H 0.9149 0.0777 0.2275
C66 C 0.9208(7) 0.1554(4) 0.2604(3)
H42 H 0.8757 0.1417 0.2982
C67 C 0.9658(5) 0.2134(3) 0.2468(3)
C70 C 0.9519(5) 0.2488(3) 0.2980(3)
C9 C 0.6449(4) 0.9923(3) 0.9639(3)
C16 C 0.7160(5) 0.8621(4) 0.9671(3)
H10 H 0.6638 0.8422 0.9621
H11 H 0.7697 0.8206 0.9950
H12 H 0.7408 0.8916 0.9206
C71 C 0.9198(10) 0.9580(8) 0.6014(6)
H45 H 0.9341 0.9887 0.6209
H46 H 0.9814 0.9260 0.5945
H47 H 0.8775 0.9267 0.6340
C72 C 0.8156(12) 0.9693(7) 0.5124(8)
H49 H 0.7600 0.9572 0.5441
H50 H 0.8590 0.9234 0.5125
O21 O 0.0372(4) 0.6079(3) 0.6363(2)
O22 O 0.0097(3) 0.6958(2) 0.7198(2)
Mn8 Mn 0.12306(8) 0.75092(6) 0.55849(5)
O8 O 0.0994(4) 0.7783(2) 0.6466(2)
C65_2 C 0.0567(7) 0.8823(4) 0.7825(4)
H41_2 H 0.0851 0.9223 0.7725
C66_2 C 0.0792(7) 0.8446(4) 0.7396(3)
H42_2 H 0.1243 0.8583 0.7018
C67_2 C 0.0342(5) 0.7866(3) 0.7532(3)
C70_2 C 0.0481(5) 0.7512(3) 0.7020(3)
O9_2 O 0.1866(4) 0.6311(3) 0.6299(3)
O12_2 O 0.0931(5) 0.8795(3) 0.4897(3)
O13_2 O 0.1301(4) 0.7232(4) 0.4696(3)
N3_2 N 0.1285(8) 0.9950(5) 0.4636(5)
N4_2 N 0.2048(7) 0.6663(5) 0.4028(4)
C10_2 C 0.3255(4) 0.0878(3) 0.9957(3)
C11_2 C 0.3353(4) 0.1201(3) 0.9215(3)
C12_2 C 0.3746(4) 0.0745(3) 0.8860(3)
C17_2 C 0.3854(5) 0.1106(4) 0.8052(3)
H13_2 H 0.4550 0.0994 0.7926
H14_2 H 0.3489 0.0902 0.7857
H15_2 H 0.3591 0.1648 0.7860
C18_2 C 0.3046(4) 0.2017(3) 0.8801(3)
C19_2 C 0.2782(5) 0.2700(4) 0.8439(3)
C20_2 C 0.2391(5) 0.3502(3) 0.7985(3)
C21_2 C 0.1414(5) 0.3785(4) 0.7749(4)
H16_2 H 0.0990 0.3457 0.7897
C22_2 C 0.1059(5) 0.4540(4) 0.7301(4)
H17_2 H 0.0392 0.4721 0.7156
C23_2 C 0.1682(5) 0.5050(4) 0.7053(3)
C24_2 C 0.2670(6) 0.4767(4) 0.7294(4)
H18_2 H 0.3087 0.5099 0.7147
C25_2 C 0.3041(6) 0.4008(4) 0.7743(4)
H19_2 H 0.3708 0.3825 0.7889
C26_2 C 0.1270(6) 0.5889(4) 0.6537(3)
H48_2 H 0.2088 0.9960 0.5353
C73_2 C 0.1251(9) 0.9268(6) 0.5059(5)
H51_2 H 0.1466 0.9076 0.5526
C74_2 C 0.1439(10) 0.7208(8) 0.3408(6)
H52_2 H 0.1853 0.7329 0.2987
H53_2 H 0.0930 0.6994 0.3365
H54_2 H 0.1128 0.7665 0.3460
C75_2 C 0.2811(15) 0.6037(10) 0.3966(8)
H55_2 H 0.2548 0.5594 0.4147
H56_2 H 0.2996 0.6184 0.3472
H57_2 H 0.3391 0.5921 0.4238
C76_2 C 0.1910(7) 0.6733(6) 0.4602(5)
H58_2 H 0.2316 0.6364 0.4988
H67_2 H 0.6082 0.0196 0.3537
O24 O 0.2742(5) 0.7694(4) 0.5213(3)
O11_2 O 0.4177(9) 0.6978(10) 0.5054(5)
C1_2 C 0.3342(8) 0.8064(8) 0.3984(6)
C2_2 C 0.2605(8) 0.8694(7) 0.3742(5)
H3_2 H 0.2107 0.8800 0.4046
C3_2 C 0.2605(9) 0.9249(8) 0.2929(4)
H4_2 H 0.2147 0.9723 0.2736
C4_2 C 0.3295(6) 0.9017(6) 0.2517(4)
C5_2 C 0.3993(8) 0.8244(7) 0.2871(5)
H5_2 H 0.4455 0.8067 0.2588
C6_2 C 0.3985(9) 0.7786(7) 0.3588(5)
H6_2 H 0.4411 0.7300 0.3793
C7_2 C 0.3367(4) 0.9418(5) 0.1756(3)
C8_2 C 0.3435(4) 0.9728(4) 0.1123(3)
C14_2 C 0.3959(4) 0.9611(3) 0.0019(3)
C15_2 C 0.4265(5) 0.8757(3) 0.0435(3)
H7_2 H 0.3691 0.8572 0.0678
H8_2 H 0.4536 0.8536 0.0113
H9_2 H 0.4765 0.8616 0.0781
C46_2 C 0.8275(4) 0.0618(3) 0.0383(3)
C52_2 C 0.7863(5) 0.1070(4) 0.0804(3)
H31_2 H 0.8207 0.1465 0.0665
H32_2 H 0.7159 0.1296 0.0707
H33_2 H 0.7960 0.0736 0.1306
C77_2 C 0.3392(9) 0.7536(8) 0.4841(6)
C71_2 C 0.0802(10) 0.0420(8) 0.3986(6)
H45_2 H 0.0659 0.0113 0.3791
H46_2 H 0.0186 0.0740 0.4055
H47_2 H 0.1225 0.0733 0.3660
C72_2 C 0.1844(12) 0.0307(7) 0.4876(8)
H49_2 H 0.2400 0.0428 0.4559
H50_2 H 0.1410 0.0766 0.4875
C9_2 C 0.3551(4) 0.0077(3) 0.0361(3)
C16_2 C 0.2840(5) 0.1379(4) 0.0329(3)
H10_2 H 0.3362 0.1578 0.0379
H11_2 H 0.2303 0.1794 0.0050
H12_2 H 0.2592 0.1084 0.0794
Mn1 Mn 0.68576(8) 0.70810(6) 0.57671(5)
Mn2 Mn 0.91264(7) 0.68243(5) 0.66016(4)
O1_2 O 0.6577(4) 0.7558(3) 0.6496(3)
O2_2 O 0.7988(4) 0.7675(3) 0.6754(3)
O3_2 O 0.8502(4) 0.5902(3) 0.7258(2)
O14_2 O 0.6884(4) 0.6645(4) 0.4994(3)
O15_2 O 0.6437(5) 0.8194(4) 0.4877(3)
O16_2 O 0.5259(4) 0.7064(4) 0.5960(3)
H1_2 H 0.4931 0.7419 0.6082
H2_2 H 0.5198 0.6625 0.6301
O17_2 O 0.7377(4) 0.5946(3) 0.6568(2)
N1_2 N 0.5609(11) 0.9251(6) 0.3938(11)
N2_2 N 0.6444(8) 0.6141(7) 0.4371(6)
C13_2 C 0.4070(4) 0.9962(3) 0.9255(3)
C27_2 C 0.4510(4) 0.9508(4) 0.8899(3)
C28_2 C 0.4904(5) 0.9176(4) 0.8541(3)
C29_2 C 0.5432(5) 0.8816(4) 0.8110(3)
C30_2 C 0.4954(5) 0.8498(4) 0.7836(4)
H20_2 H 0.4278 0.8509 0.7935
C31_2 C 0.5486(5) 0.8155(4) 0.7405(4)
H21_2 H 0.5159 0.7936 0.7224
C32_2 C 0.6477(5) 0.8140(4) 0.7248(3)
C33_2 C 0.6959(5) 0.8480(4) 0.7517(3)
H22_2 H 0.7629 0.8486 0.7408
C34_2 C 0.6423(5) 0.8807(4) 0.7948(3)
H23_2 H 0.6746 0.9027 0.8131
C35_2 C 0.7078(6) 0.7757(4) 0.6792(3)
C36_2 C 0.7932(5) 0.5620(4) 0.7102(3)
C37_2 C 0.7936(5) 0.4796(3) 0.7602(3)
C38_2 C 0.8581(6) 0.4368(4) 0.8170(4)
H24_2 H 0.9028 0.4585 0.8254
C39_2 C 0.8574(7) 0.3632(4) 0.8612(4)
H25_2 H 0.9013 0.3351 0.8998
C40_2 C 0.7911(5) 0.3285(4) 0.8496(3)
C41_2 C 0.7265(6) 0.3718(4) 0.7921(4)
H26_2 H 0.6819 0.3501 0.7835
C42_2 C 0.7273(6) 0.4469(4) 0.7471(4)
H27_2 H 0.6838 0.4755 0.7083
C43_2 C 0.7955(5) 0.2493(4) 0.8930(3)
C44_2 C 0.8082(4) 0.1810(3) 0.9274(3)
C45_2 C 0.8357(4) 0.0989(3) 0.9635(3)
C50_2 C 0.8715(4) 0.0586(3) 0.9238(3)
C51_2 C 0.8778(5) 0.1010(4) 0.8432(3)
H28_2 H 0.9222 0.1339 0.8304
H29_2 H 0.9029 0.0651 0.8237
H30_2 H 0.8122 0.1311 0.8242
C79_2 C 0.565(3) 0.578(2) 0.4294(12)
H59_2 H 0.5904 0.5233 0.4499
H60_2 H 0.5046 0.5902 0.4538
H61_2 H 0.5509 0.5972 0.3795
C80_2 C 0.7066(19) 0.6328(12) 0.3835(8)
H62_2 H 0.7460 0.6620 0.3887
H63_2 H 0.7501 0.5874 0.3827
H64_2 H 0.6696 0.6628 0.3395
C81_2 C 0.6459(8) 0.6259(6) 0.4962(5)
H65_2 H 0.6097 0.6004 0.5364
C82_2 C 0.6381(10) 0.9661(7) 0.3697(10)
H66_2 H 0.6746 0.9578 0.3309
H68_2 H 0.6832 0.9481 0.4085
C83_2 C 0.5142(18) 0.9418(12) 0.3501(7)
H69_2 H 0.4461 0.9616 0.3608
H70_2 H 0.5362 0.9804 0.3078
H71_2 H 0.5180 0.8983 0.3422
C84_2 C 0.5702(9) 0.8585(7) 0.4623(8)
H72_2 H 0.5116 0.8474 0.4870
O18 O 0.8443(3) 0.7133(2) 0.5542(2)
O19 O 0.9576(3) 0.7734(2) 0.54880(19)
C47_2 C 0.8599(4) 0.9826(3) 0.0727(3)
C48_2 C 0.8940(4) 0.9396(3) 0.0340(3)
C53_2 C 0.9272(5) 0.8542(3) 0.0706(3)
H34_2 H 0.9320 0.8348 0.0362
H35_2 H 0.9917 0.8388 0.0922
H36_2 H 0.8794 0.8343 0.1070
C54_2 C 0.8599(5) 0.9428(4) 0.1495(3)
C55_2 C 0.8641(5) 0.9114(4) 0.2119(3)
C56_2 C 0.8732(5) 0.8725(4) 0.2886(3)
C57_2 C 0.9265(6) 0.8949(4) 0.3251(3)
H37_2 H 0.9575 0.9345 0.2986
C58_2 C 0.9338(5) 0.8598(4) 0.3984(3)
H38_2 H 0.9671 0.8770 0.4210
C59_2 C 0.8917(5) 0.7989(3) 0.4384(3)
C60_2 C 0.8409(5) 0.7734(4) 0.4046(3)
H39_2 H 0.8128 0.7322 0.4318
C61_2 C 0.8318(5) 0.8096(4) 0.3297(3)
H40_2 H 0.7986 0.7920 0.3074
C78_2 C 0.8994(5) 0.7599(3) 0.5181(3)
C49_2 C 0.8987(4) 0.9800(3) 0.9588(3)
C62_2 C 0.9363(5) 0.9371(3) 0.9170(3)
C63_2 C 0.9617(5) 0.9028(4) 0.8837(3)
C64_2 C 0.9908(5) 0.8598(3) 0.8412(3)
C68_2 C 0.9709(5) 0.7650(4) 0.8116(3)
H43_2 H 0.9425 0.7249 0.8218
C69_2 C 0.9487(5) 0.8011(4) 0.8551(4)
H44_2 H 0.9053 0.7857 0.8938
loop_
_geom_bond_atom_site_label_1
_geom_bond_atom_site_label_2
_geom_bond_site_symmetry_1
_geom_bond_site_symmetry_2
Mn7 O20 1_555 1_555
C62 C49 1_555 1_555
C63 C62 1_555 1_555
C64 C63 1_555 1_555
H43 C68 1_555 1_555
C69 C64 1_555 1_555
H44 C69 1_555 1_555
C68 C69 1_555 1_555
O4 C78 1_555 1_555
O20 C78 1_555 1_555
C48 C47 1_555 1_555
C53 C48 1_555 1_555
H34 C53 1_555 1_555
H35 C53 1_555 1_555
H36 C53 1_555 1_555
C54 C47 1_555 1_555
C55 C54 1_555 1_555
C56 C55 1_555 1_555
C57 C56 1_555 1_555
H37 C57 1_555 1_555
C58 C57 1_555 1_555
H38 C58 1_555 1_555
C59 C58 1_555 1_555
C60 C59 1_555 1_555
H39 C60 1_555 1_555
C61 C56 1_555 1_555
H40 C61 1_555 1_555
C78 C59 1_555 1_555
Mn4 O4 1_555 1_555
Mn7 O4 1_555 1_555
C60 C61 1_555 1_555
Mn4 O1 1_555 1_555
Mn7 O2 1_555 1_555
O1 C35 1_555 1_555
O2 C35 1_555 1_555
O3 Mn7 1_555 1_555
O14 Mn4 1_555 1_555
O15 Mn4 1_555 1_555
O16 Mn4 1_555 1_555
H1 O16 1_555 1_555
H2 O16 1_555 1_555
O17 Mn4 1_555 1_555
N1 C82 1_555 1_555
N2 C79 1_555 1_555
C27 C13 1_555 1_555
C28 C27 1_555 1_555
C29 C28 1_555 1_555
C30 C29 1_555 1_555
H20 C30 1_555 1_555
C31 C30 1_555 1_555
H21 C31 1_555 1_555
C32 C31 1_555 1_555
C33 C32 1_555 1_555
H22 C33 1_555 1_555
C34 C29 1_555 1_555
H23 C34 1_555 1_555
C35 C32 1_555 1_555
C36 O3 1_555 1_555
C37 C36 1_555 1_555
C38 C37 1_555 1_555
H24 C38 1_555 1_555
C39 C38 1_555 1_555
H25 C39 1_555 1_555
C40 C39 1_555 1_555
C41 C40 1_555 1_555
H26 C41 1_555 1_555
C42 C37 1_555 1_555
H27 C42 1_555 1_555
C43 C40 1_555 1_555
C44 C43 1_555 1_555
C45 C44 1_555 1_555
C50 C45 1_555 1_555
C51 C50 1_555 1_555
H28 C51 1_555 1_555
H29 C51 1_555 1_555
H30 C51 1_555 1_555
C79 H59 1_555 1_555
H60 C79 1_555 1_555
H61 C79 1_555 1_555
C80 N2 1_555 1_555
H62 C80 1_555 1_555
H63 C80 1_555 1_555
H64 C80 1_555 1_555
C81 O14 1_555 1_555
H65 C81 1_555 1_555
C82 H66 1_555 1_555
H68 C82 1_555 1_555
C83 N1 1_555 1_555
H69 C83 1_555 1_555
H70 C83 1_555 1_555
H71 C83 1_555 1_555
C84 O15 1_555 1_555
H72 C84 1_555 1_555
O17 C36 1_555 1_555
N1 C84 1_555 1_555
N2 C81 1_555 1_555
C33 C34 1_555 1_555
C41 C42 1_555 1_555
O10 C77 1_555 1_555
O11 C77 1_555 1_555
C1 C2 1_555 1_555
C2 H3 1_555 1_555
C3 C2 1_555 1_555
H4 C3 1_555 1_555
C4 C3 1_555 1_555
C5 C4 1_555 1_555
H5 C5 1_555 1_555
C6 C1 1_555 1_555
H6 C6 1_555 1_555
C7 C4 1_555 1_555
C8 C7 1_555 1_555
C15 C14 1_555 1_555
H7 C15 1_555 1_555
H8 C15 1_555 1_555
H9 C15 1_555 1_555
C52 C46 1_555 1_555
H31 C52 1_555 1_555
H32 C52 1_555 1_555
H33 C52 1_555 1_555
C77 C1 1_555 1_555
Mn10 O10 1_555 1_555
C5 C6 1_555 1_555
Mn10 O9 1_555 1_555
O6 C26 1_555 1_555
O9 C26 1_555 1_555
O12 Mn10 1_555 1_555
O13 Mn10 1_555 1_555
N4 C74 1_555 1_555
C11 C10 1_555 1_555
C12 C11 1_555 1_555
C17 C12 1_555 1_555
H13 C17 1_555 1_555
H14 C17 1_555 1_555
H15 C17 1_555 1_555
C18 C11 1_555 1_555
C19 C18 1_555 1_555
C20 C19 1_555 1_555
C21 C20 1_555 1_555
H16 C21 1_555 1_555
C22 C21 1_555 1_555
H17 C22 1_555 1_555
C23 C22 1_555 1_555
C24 C23 1_555 1_555
H18 C24 1_555 1_555
C25 C20 1_555 1_555
H19 C25 1_555 1_555
C26 C23 1_555 1_555
C73 O12 1_555 1_555
H51 C73 1_555 1_555
C74 H52 1_555 1_555
H53 C74 1_555 1_555
H54 C74 1_555 1_555
C75 N4 1_555 1_555
H55 C75 1_555 1_555
H56 C75 1_555 1_555
H57 C75 1_555 1_555
C76 O13 1_555 1_555
H58 C76 1_555 1_555
O23 Mn10 1_555 1_555
N3 C73 1_555 1_555
N4 C76 1_555 1_555
C24 C25 1_555 1_555
O7 C70 1_555 1_555
O23 C70 1_555 1_555
H41 C65 1_555 1_555
C66 C65 1_555 1_555
H42 C66 1_555 1_555
C67 C66 1_555 1_555
C70 C67 1_555 1_555
H10 C16 1_555 1_555
H11 C16 1_555 1_555
H12 C16 1_555 1_555
C71 H45 1_555 1_555
H46 C71 1_555 1_555
H47 C71 1_555 1_555
H49 C72 1_555 1_555
H50 C72 1_555 1_555
O22 C70_2 1_555 1_555
O8 C70_2 1_555 1_555
H41_2 C65_2 1_555 1_555
C66_2 C65_2 1_555 1_555
H42_2 C66_2 1_555 1_555
C67_2 C66_2 1_555 1_555
C70_2 C67_2 1_555 1_555
Mn8 O8 1_555 1_555
Mn8 O9_2 1_555 1_555
O21 C26_2 1_555 1_555
O9_2 C26_2 1_555 1_555
O12_2 Mn8 1_555 1_555
O13_2 Mn8 1_555 1_555
N4_2 C74_2 1_555 1_555
C11_2 C10_2 1_555 1_555
C12_2 C11_2 1_555 1_555
C17_2 C12_2 1_555 1_555
H13_2 C17_2 1_555 1_555
H14_2 C17_2 1_555 1_555
H15_2 C17_2 1_555 1_555
C18_2 C11_2 1_555 1_555
C19_2 C18_2 1_555 1_555
C20_2 C19_2 1_555 1_555
C21_2 C20_2 1_555 1_555
H16_2 C21_2 1_555 1_555
C22_2 C21_2 1_555 1_555
H17_2 C22_2 1_555 1_555
C23_2 C22_2 1_555 1_555
C24_2 C23_2 1_555 1_555
H18_2 C24_2 1_555 1_555
C25_2 C20_2 1_555 1_555
H19_2 C25_2 1_555 1_555
C26_2 C23_2 1_555 1_555
C73_2 O12_2 1_555 1_555
H51_2 C73_2 1_555 1_555
C74_2 H52_2 1_555 1_555
H53_2 C74_2 1_555 1_555
H54_2 C74_2 1_555 1_555
C75_2 N4_2 1_555 1_555
H55_2 C75_2 1_555 1_555
H56_2 C75_2 1_555 1_555
H57_2 C75_2 1_555 1_555
C76_2 O13_2 1_555 1_555
H58_2 C76_2 1_555 1_555
O24 Mn8 1_555 1_555
N3_2 C73_2 1_555 1_555
N4_2 C76_2 1_555 1_555
C24_2 C25_2 1_555 1_555
O24 C77_2 1_555 1_555
O11_2 C77_2 1_555 1_555
C1_2 C2_2 1_555 1_555
C2_2 H3_2 1_555 1_555
C3_2 C2_2 1_555 1_555
H4_2 C3_2 1_555 1_555
C4_2 C3_2 1_555 1_555
C5_2 C4_2 1_555 1_555
H5_2 C5_2 1_555 1_555
C6_2 C1_2 1_555 1_555
H6_2 C6_2 1_555 1_555
C7_2 C4_2 1_555 1_555
C8_2 C7_2 1_555 1_555
C15_2 C14_2 1_555 1_555
H7_2 C15_2 1_555 1_555
H8_2 C15_2 1_555 1_555
H9_2 C15_2 1_555 1_555
C52_2 C46_2 1_555 1_555
H31_2 C52_2 1_555 1_555
H32_2 C52_2 1_555 1_555
H33_2 C52_2 1_555 1_555
C77_2 C1_2 1_555 1_555
C5_2 C6_2 1_555 1_555
C71_2 H45_2 1_555 1_555
H46_2 C71_2 1_555 1_555
H47_2 C71_2 1_555 1_555
H49_2 C72_2 1_555 1_555
H50_2 C72_2 1_555 1_555
H10_2 C16_2 1_555 1_555
H11_2 C16_2 1_555 1_555
H12_2 C16_2 1_555 1_555
Mn1 O1_2 1_555 1_555
Mn2 O2_2 1_555 1_555
O1_2 C35_2 1_555 1_555
O2_2 C35_2 1_555 1_555
O3_2 Mn2 1_555 1_555
O14_2 Mn1 1_555 1_555
O15_2 Mn1 1_555 1_555
O16_2 Mn1 1_555 1_555
H1_2 O16_2 1_555 1_555
H2_2 O16_2 1_555 1_555
O17_2 Mn1 1_555 1_555
N1_2 C82_2 1_555 1_555
N2_2 C79_2 1_555 1_555
C27_2 C13_2 1_555 1_555
C28_2 C27_2 1_555 1_555
C29_2 C28_2 1_555 1_555
C30_2 C29_2 1_555 1_555
H20_2 C30_2 1_555 1_555
C31_2 C30_2 1_555 1_555
H21_2 C31_2 1_555 1_555
C32_2 C31_2 1_555 1_555
C33_2 C32_2 1_555 1_555
H22_2 C33_2 1_555 1_555
C34_2 C29_2 1_555 1_555
H23_2 C34_2 1_555 1_555
C35_2 C32_2 1_555 1_555
C36_2 O3_2 1_555 1_555
C37_2 C36_2 1_555 1_555
C38_2 C37_2 1_555 1_555
H24_2 C38_2 1_555 1_555
C39_2 C38_2 1_555 1_555
H25_2 C39_2 1_555 1_555
C40_2 C39_2 1_555 1_555
C41_2 C40_2 1_555 1_555
H26_2 C41_2 1_555 1_555
C42_2 C37_2 1_555 1_555
H27_2 C42_2 1_555 1_555
C43_2 C40_2 1_555 1_555
C44_2 C43_2 1_555 1_555
C45_2 C44_2 1_555 1_555
C50_2 C45_2 1_555 1_555
C51_2 C50_2 1_555 1_555
H28_2 C51_2 1_555 1_555
H29_2 C51_2 1_555 1_555
H30_2 C51_2 1_555 1_555
C79_2 H59_2 1_555 1_555
H60_2 C79_2 1_555 1_555
H61_2 C79_2 1_555 1_555
C80_2 N2_2 1_555 1_555
H62_2 C80_2 1_555 1_555
H63_2 C80_2 1_555 1_555
H64_2 C80_2 1_555 1_555
C81_2 O14_2 1_555 1_555
H65_2 C81_2 1_555 1_555
C82_2 H66_2 1_555 1_555
H68_2 C82_2 1_555 1_555
C83_2 N1_2 1_555 1_555
H69_2 C83_2 1_555 1_555
H70_2 C83_2 1_555 1_555
H71_2 C83_2 1_555 1_555
C84_2 O15_2 1_555 1_555
H72_2 C84_2 1_555 1_555
O18 Mn1 1_555 1_555
O19 Mn2 1_555 1_555
Mn2 O18 1_555 1_555
O17_2 C36_2 1_555 1_555
N1_2 C84_2 1_555 1_555
N2_2 C81_2 1_555 1_555
C33_2 C34_2 1_555 1_555
C41_2 C42_2 1_555 1_555
O18 C78_2 1_555 1_555
O19 C78_2 1_555 1_555
C48_2 C47_2 1_555 1_555
C53_2 C48_2 1_555 1_555
H34_2 C53_2 1_555 1_555
H35_2 C53_2 1_555 1_555
H36_2 C53_2 1_555 1_555
C54_2 C47_2 1_555 1_555
C55_2 C54_2 1_555 1_555
C56_2 C55_2 1_555 1_555
C57_2 C56_2 1_555 1_555
H37_2 C57_2 1_555 1_555
C58_2 C57_2 1_555 1_555
H38_2 C58_2 1_555 1_555
C59_2 C58_2 1_555 1_555
C60_2 C59_2 1_555 1_555
H39_2 C60_2 1_555 1_555
C61_2 C56_2 1_555 1_555
H40_2 C61_2 1_555 1_555
C78_2 C59_2 1_555 1_555
C60_2 C61_2 1_555 1_555
C62_2 C49_2 1_555 1_555
C63_2 C62_2 1_555 1_555
C64_2 C63_2 1_555 1_555
H43_2 C68_2 1_555 1_555
C69_2 C64_2 1_555 1_555
H44_2 C69_2 1_555 1_555
C68_2 C69_2 1_555 1_555

#END
