
###############################################################################
#
# This file contains modified crystal structure data generated from the
# MOF subset of the Cambridge Structural Database (CSD) v543 
# hosted by the Cambridge Crystallographic Data Centre (CCDC).
#
# This work is licensed under the Creative Commons
# Attribution-NonCommercial-ShareAlike 4.0 International License.
# To view a copy of this license, visit
# http://creativecommons.org/licenses/by-nc-sa/4.0/
# or send a letter to
# Creative Commons, PO Box 1866, Mountain View, CA 94042, USA.
#
# CIF created using the CSD Python API on 29 September 2022
# The structure has been converted into the P1 space group
# The structure has a 3D framework
# The original CSD entry XOTSIK is in the orthorhombic crystal system
# The framework has been calculated to contain at least 10.0% void space
# The void calculation uses a probe of radius 1.32A, grid spacing 0.4
# H atom positions have been added when not included in the experimental data
#
###############################################################################

data_XOTSIK
_chemical_formula_moiety         '(C636 H484 Cd22 N20 O114)n'
_symmetry_cell_setting           triclinic
_symmetry_space_group_name_H-M   'P 1'
_symmetry_Int_Tables_number      1
_space_group_name_Hall           'P 1'
loop_
_symmetry_equiv_pos_site_id
_symmetry_equiv_pos_as_xyz
1 x,y,z
_cell_length_a                   42.439(10)
_cell_length_b                   13.969(4)
_cell_length_c                   33.470(8)
_cell_angle_alpha                90
_cell_angle_beta                 90
_cell_angle_gamma                90
_cell_volume                     19842
loop_
_atom_site_label
_atom_site_type_symbol
_atom_site_fract_x
_atom_site_fract_y
_atom_site_fract_z
C9 C 0.0064(3) 0.1737(10) 0.3133(4)
C30 C 0.0316(3) 0.1279(12) 0.3226(5)
H18 H 0.0315 0.0862 0.3442
C31 C 0.0058(4) 0.2213(12) 0.2756(5)
C32 C 0.0598(3) 0.1903(11) 0.2676(4)
C33 C 0.0325(4) 0.2364(13) 0.2574(5)
H20 H 0.0330 0.2804 0.2365
C34 C 0.0590(4) 0.1404(12) 0.3003(5)
H21 H 0.0776 0.1118 0.3092
O3 O 0.1121(2) 0.1560(8) 0.2546(3)
C35 C 0.0883(4) 0.2052(13) 0.2419(5)
O5 O 0.0876(2) 0.2589(9) 0.2140(3)
Cd5 Cd 0.137440(19) 0.30601(7) 0.19966(3)
Cd7 Cd 0.16103(2) 0.08417(7) 0.24666(3)
O11 O 0.1318(2) 0.4256(7) 0.1561(3)
O12 O 0.1742(2) 0.4956(7) 0.1314(3)
C49 C 0.0992(4) 0.3570(11) 0.0427(4)
H38 H 0.0812 0.3200 0.0388
C54 C 0.1101(4) 0.3688(12) 0.0810(5)
H43 H 0.1004 0.3385 0.1024
C61 C 0.1488(3) 0.4516(10) 0.1276(4)
C62 C 0.1363(3) 0.4278(10) 0.0865(4)
C65 C 0.1130(3) 0.3962(9) 0.0105(4)
C69 C 0.1522(3) 0.4704(10) 0.0535(4)
H53 H 0.1694 0.5109 0.0571
C77 C 0.1406(3) 0.4478(11) 0.0154(5)
Cd10 Cd 0.18277(2) 0.53515(7) 0.19420(3)
Cd3 Cd 0.31723(2) 0.03515(7) 0.69420(3)
C44 C 0.0866(3) 0.3450(9) 0.8962(3)
C45 C 0.2632(3) 0.1099(10) 0.7208(4)
C46 C 0.0705(3) 0.3133(9) 0.8148(3)
C47 C 0.1032(3) 0.3165(9) 0.8264(3)
C48 C 0.2343(3) 0.1576(10) 0.7354(4)
C50 C 0.1453(3) 0.3467(10) 0.8811(4)
H39 H 0.1502 0.2970 0.8999
H40 H 0.1586 0.3405 0.8580
H41 H 0.1487 0.4080 0.8933
C51 C 0.1792(3) 0.2004(11) 0.7282(4)
H42 H 0.1607 0.1987 0.7133
C52 C 0.0143(3) 0.3420(10) 0.8294(4)
C53 C 0.1097(3) 0.3377(10) 0.8680(4)
C56 C 0.1781(3) 0.2439(10) 0.7603(4)
C57 C 0.2055(3) 0.1530(10) 0.7117(4)
H44 H 0.2046 0.1209 0.6874
C58 C 0.0483(3) 0.3321(10) 0.8421(4)
C59 C 0.1497(3) 0.2812(10) 0.7791(4)
C60 C 0.0547(3) 0.3426(10) 0.8828(4)
C63 C 0.0278(3) 0.3503(10) 0.9149(4)
H45 H 0.0368 0.3448 0.9411
H46 H 0.0175 0.4111 0.9124
H47 H 0.0128 0.2998 0.9108
C64 C 0.0932(3) 0.3648(11) 0.9366(4)
C66 C 0.2326(3) 0.2128(11) 0.7700(4)
H48 H 0.2505 0.2189 0.7859
C68 C 0.0638(3) 0.2981(10) 0.7713(4)
H50 H 0.0751 0.2430 0.7620
H51 H 0.0416 0.2880 0.7676
H52 H 0.0703 0.3535 0.7565
C71 C 0.1263(3) 0.3032(9) 0.8000(3)
C74 C 0.2073(3) 0.2552(11) 0.7807(4)
H55 H 0.2079 0.2954 0.8028
O13 O 0.26455(19) 0.0759(7) 0.6856(3)
O14 O 0.2856(2) 0.1025(7) 0.7457(3)
H58 H 0.1516 0.4680 0.9929
C78 C 0.1013(3) 0.3786(10) 0.9701(4)
O23 O 0.3560(2) 0.0584(8) 0.7317(3)
O17 O 0.30607(19) 0.8701(6) 0.7031(3)
O22 O 0.3258(2) 0.9956(7) 0.6314(3)
C1 C 0.7528(3) 0.1272(10) 0.2410(4)
H1 H 0.7480 0.0788 0.2229
C2 C 0.8869(3) 0.1330(9) 0.4277(3)
C3 C 0.7316(3) 0.1984(9) 0.2483(4)
C4 C 0.9218(3) 0.1549(10) 0.3729(4)
C5 C 0.9164(3) 0.1377(10) 0.4121(4)
C6 C 0.8640(3) 0.1723(9) 0.3615(3)
C7 C 0.9450(3) 0.1249(10) 0.4399(4)
H2 H 0.9564 0.1841 0.4414
H3 H 0.9584 0.0758 0.4294
H4 H 0.9378 0.1070 0.4660
C8 C 0.9519(3) 0.1623(9) 0.3555(3)
C10 C 0.8608(3) 0.1499(10) 0.4029(4)
C11 C 0.7812(3) 0.1273(10) 0.2603(3)
H5 H 0.7962 0.0814 0.2540
C12 C 0.8805(3) 0.1078(10) 0.4697(4)
C13 C 0.8278(3) 0.1414(10) 0.4197(4)
H6 H 0.8230 0.0752 0.4244
H7 H 0.8130 0.1674 0.4009
H8 H 0.8265 0.1762 0.4443
C14 C 0.9007(3) 0.1900(11) 0.3006(4)
H9 H 0.9139 0.2448 0.2964
H10 H 0.8807 0.2000 0.2876
H11 H 0.9107 0.1343 0.2895
C16 C 0.8953(3) 0.1749(10) 0.3462(4)
C17 C 0.7879(3) 0.1994(9) 0.2906(3)
C19 C 0.7377(3) 0.2672(11) 0.2756(4)
H13 H 0.7230 0.3153 0.2798
C20 C 0.9757(3) 0.1676(10) 0.3387(4)
C21 C 0.7645(3) 0.2679(10) 0.2967(4)
H14 H 0.7676 0.3152 0.3158
C22 C 0.8394(3) 0.1837(10) 0.3362(4)
C23 C 0.8641(3) 0.0832(11) 0.5743(4)
H15 H 0.8647 0.1498 0.5737
C25 C 0.8686(3) 0.0328(10) 0.5397(4)
C26 C 0.8759(3) 0.0806(9) 0.5025(4)
C27 C 0.8155(3) 0.1929(10) 0.3141(4)
C29 C 0.8587(3) 0.0386(13) 0.6093(5)
H17 H 0.8558 0.0755 0.6321
H19 H 0.9869 0.2409 0.2643
O4 O 0.69393(19) 0.1299(6) 0.2031(3)
C36 C 0.7009(3) 0.1944(9) 0.2291(3)
O7 O 0.68020(19) 0.2584(7) 0.2352(2)
O9 O 0.8552(3) 0.0611(9) 0.7640(3)
H22 H 0.8479 0.0993 0.7883
H23 H 0.8714 0.1032 0.7496
N2 N 0.7518(3) 0.0409(10) 0.7067(4)
C39 C 0.7804(3) 0.0240(9) 0.7148(4)
H28 H 0.7956 0.0566 0.7001
C40 C 0.7411(4) 0.1179(14) 0.6743(5)
H29 H 0.7347 0.1758 0.6876
H30 H 0.7237 0.0930 0.6592
H31 H 0.7583 0.1315 0.6566
H33 H 0.7088 0.0457 0.7333
Cd6 Cd 0.637440(19) 0.19399(7) 0.19966(3)
Cd8 Cd 0.66103(2) 0.41583(7) 0.24666(3)
Cd1 Cd 0.862560(19) 0.69399(7) 0.69966(3)
Cd2 Cd 0.83897(2) 0.91583(7) 0.74666(3)
O1 O 0.8471(2) 0.9399(7) 0.6822(3)
C15 C 0.8630(3) 0.8868(10) 0.5752(4)
H12 H 0.8638 0.8203 0.5755
C18 C 0.8575(3) 0.9400(11) 0.6127(4)
C24 C 0.8518(3) 0.8908(11) 0.6533(4)
C28 C 0.8667(3) 0.9320(11) 0.5426(4)
H16 H 0.8682 0.8965 0.5192
O2 O 0.8539(2) 0.8021(7) 0.6509(3)
O6 O 0.8352(2) 0.8721(8) 0.8119(3)
O8 O 0.7892(2) 0.9710(7) 0.7392(3)
N1 N 0.8661(3) 0.7707(10) 0.8524(4)
C37 C 0.8490(3) 0.7898(11) 0.8182(4)
H24 H 0.8472 0.7422 0.7989
C38 C 0.8679(4) 0.8408(13) 0.8867(5)
H25 H 0.8891 0.8643 0.8890
H26 H 0.8620 0.8093 0.9110
H27 H 0.8539 0.8934 0.8817
C41 C 0.7254(4) 0.9993(14) 0.7307(5)
H32 H 0.7174 0.9433 0.7175
H34 H 0.7330 0.9821 0.7567
C42 C 0.8828(4) 0.6735(12) 0.8566(5)
H35 H 0.8718 0.6348 0.8758
H36 H 0.9041 0.6836 0.8655
H37 H 0.8830 0.6416 0.8312
O10 O 0.8702(2) 0.5923(7) 0.7518(3)
C43 C 0.8747(3) 0.5081(12) 0.7502(5)
C55 C 0.9876(3) 0.3594(9) 0.8186(3)
C67 C 0.9258(3) 0.5257(12) 0.7842(4)
H49 H 0.9228 0.5913 0.7814
C70 C 0.9558(3) 0.4888(11) 0.8025(4)
H54 H 0.9709 0.5309 0.8122
C72 C 0.9026(3) 0.4640(10) 0.7714(4)
C73 C 0.9603(3) 0.3908(11) 0.8045(4)
C75 C 0.9371(4) 0.3286(14) 0.7899(5)
H56 H 0.9403 0.2628 0.7893
C76 C 0.9070(4) 0.3717(12) 0.7755(4)
H57 H 0.8905 0.3308 0.7691
O15 O 0.8560(2) 0.4416(8) 0.7317(3)
O16 O 0.8879(2) 0.8440(8) 0.7546(3)
O18 O 0.80607(19) 0.6299(6) 0.7031(3)
O19 O 0.9124(2) 0.7411(9) 0.7140(3)
O20 O 0.81980(19) 0.7584(7) 0.7352(2)
Cd9 Cd 0.68277(2) 0.96485(7) 0.19420(3)
Cd11 Cd 0.81723(2) 0.46485(7) 0.69420(3)
O21 O 0.8682(2) 0.5744(7) 0.6561(3)
O1_2 O 0.1529(2) 0.0601(7) 0.1822(3)
C15_2 C 0.1370(3) 0.1132(10) 0.0752(4)
H12_2 H 0.1362 0.1797 0.0755
C18_2 C 0.1425(3) 0.0600(11) 0.1127(4)
C24_2 C 0.1482(3) 0.1092(11) 0.1533(4)
C28_2 C 0.1333(3) 0.0680(11) 0.0426(4)
H16_2 H 0.1318 0.1035 0.0192
O2_2 O 0.1461(2) 0.1979(7) 0.1509(3)
O6_2 O 0.1648(2) 0.1279(8) 0.3119(3)
O8_2 O 0.2108(2) 0.0290(7) 0.2392(3)
N1_2 N 0.1339(3) 0.2293(10) 0.3524(4)
C37_2 C 0.1510(3) 0.2102(11) 0.3182(4)
H24_2 H 0.1528 0.2578 0.2989
C38_2 C 0.1321(4) 0.1592(13) 0.3867(5)
H25_2 H 0.1109 0.1357 0.3890
H26_2 H 0.1380 0.1907 0.4110
H27_2 H 0.1461 0.1066 0.3817
C41_2 C 0.2746(4) 0.0007(14) 0.2307(5)
H32_2 H 0.2826 0.0567 0.2175
H34_2 H 0.2670 0.0179 0.2567
C42_2 C 0.1172(4) 0.3265(12) 0.3566(5)
H35_2 H 0.1282 0.3652 0.3758
H36_2 H 0.0959 0.3164 0.3655
H37_2 H 0.1170 0.3584 0.3312
O10_2 O 0.1298(2) 0.4077(7) 0.2518(3)
C43_2 C 0.1253(3) 0.4919(12) 0.2502(5)
C55_2 C 0.0124(3) 0.6406(9) 0.3186(3)
C67_2 C 0.0742(3) 0.4743(12) 0.2842(4)
H49_2 H 0.0772 0.4087 0.2814
C70_2 C 0.0442(3) 0.5112(11) 0.3025(4)
H54_2 H 0.0291 0.4691 0.3122
C72_2 C 0.0974(3) 0.5360(10) 0.2714(4)
C73_2 C 0.0397(3) 0.6092(11) 0.3045(4)
C75_2 C 0.0629(4) 0.6714(14) 0.2899(5)
H56_2 H 0.0597 0.7372 0.2893
C76_2 C 0.0930(4) 0.6283(12) 0.2755(4)
H57_2 H 0.1095 0.6692 0.2691
O15_2 O 0.1440(2) 0.5584(8) 0.2317(3)
O18_2 O 0.19393(19) 0.3701(6) 0.2031(3)
O20_2 O 0.18020(19) 0.2416(7) 0.2352(2)
C1_2 C 0.2472(3) 0.8728(10) 0.7410(4)
H1_2 H 0.2520 0.9212 0.7229
C2_2 C 0.1131(3) 0.8670(9) 0.9277(3)
C3_2 C 0.2684(3) 0.8016(9) 0.7483(4)
C4_2 C 0.0782(3) 0.8451(10) 0.8729(4)
C5_2 C 0.0836(3) 0.8623(10) 0.9121(4)
C6_2 C 0.1360(3) 0.8277(9) 0.8615(3)
C7_2 C 0.0550(3) 0.8751(10) 0.9399(4)
H2_2 H 0.0436 0.8159 0.9414
H3_2 H 0.0416 0.9242 0.9294
H4_2 H 0.0622 0.8930 0.9660
C8_2 C 0.0481(3) 0.8377(9) 0.8555(3)
C10_2 C 0.1392(3) 0.8501(10) 0.9029(4)
C11_2 C 0.2188(3) 0.8727(10) 0.7603(3)
H5_2 H 0.2038 0.9186 0.7540
C12_2 C 0.1195(3) 0.8922(10) 0.9697(4)
C13_2 C 0.1722(3) 0.8586(10) 0.9197(4)
H6_2 H 0.1770 0.9248 0.9244
H7_2 H 0.1870 0.8326 0.9009
H8_2 H 0.1735 0.8238 0.9443
C14_2 C 0.0993(3) 0.8100(11) 0.8006(4)
H9_2 H 0.0861 0.7552 0.7964
H10_2 H 0.1193 0.8000 0.7876
H11_2 H 0.0893 0.8657 0.7895
C16_2 C 0.1047(3) 0.8251(10) 0.8462(4)
C17_2 C 0.2121(3) 0.8006(9) 0.7906(3)
C19_2 C 0.2623(3) 0.7328(11) 0.7756(4)
H13_2 H 0.2770 0.6847 0.7798
C20_2 C 0.0243(3) 0.8324(10) 0.8387(4)
C21_2 C 0.2355(3) 0.7321(10) 0.7967(4)
H14_2 H 0.2324 0.6848 0.8158
C22_2 C 0.1606(3) 0.8163(10) 0.8362(4)
C27_2 C 0.1845(3) 0.8071(10) 0.8141(4)
H19_2 H 0.0131 0.7591 0.7643
C36_2 C 0.2991(3) 0.8056(9) 0.7291(3)
O7_2 O 0.31980(19) 0.7416(7) 0.7352(2)
Cd6_2 Cd 0.362560(19) 0.80601(7) 0.69966(3)
Cd8_2 Cd 0.33897(2) 0.58417(7) 0.74666(3)
O22_2 O 0.6742(2) 0.0044(7) 0.1314(3)
O12_2 O 0.8258(2) 0.5044(7) 0.6314(3)
C44_2 C 0.9134(3) 0.6550(9) 0.3962(3)
C45_2 C 0.7368(3) 0.8901(10) 0.2208(4)
C46_2 C 0.9295(3) 0.6867(9) 0.3148(3)
C47_2 C 0.8968(3) 0.6835(9) 0.3264(3)
C48_2 C 0.7657(3) 0.8424(10) 0.2354(4)
C49_2 C 0.9008(4) 0.6430(11) 0.5427(4)
H38_2 H 0.9188 0.6800 0.5388
C50_2 C 0.8547(3) 0.6533(10) 0.3811(4)
H39_2 H 0.8498 0.7030 0.3999
H40_2 H 0.8414 0.6595 0.3580
H41_2 H 0.8513 0.5920 0.3933
C51_2 C 0.8208(3) 0.7996(11) 0.2282(4)
H42_2 H 0.8393 0.8013 0.2133
C52_2 C 0.9857(3) 0.6580(10) 0.3294(4)
C53_2 C 0.8903(3) 0.6623(10) 0.3680(4)
C54_2 C 0.8899(4) 0.6312(12) 0.5810(5)
H43_2 H 0.8996 0.6615 0.6024
C56_2 C 0.8219(3) 0.7561(10) 0.2603(4)
C57_2 C 0.7945(3) 0.8470(10) 0.2117(4)
H44_2 H 0.7954 0.8791 0.1874
C58_2 C 0.9517(3) 0.6679(10) 0.3421(4)
C59_2 C 0.8503(3) 0.7188(10) 0.2791(4)
C60_2 C 0.9453(3) 0.6574(10) 0.3828(4)
C61_2 C 0.8512(3) 0.5484(10) 0.6276(4)
C62_2 C 0.8637(3) 0.5722(10) 0.5865(4)
C63_2 C 0.9722(3) 0.6497(10) 0.4149(4)
H45_2 H 0.9632 0.6552 0.4411
H46_2 H 0.9825 0.5889 0.4124
H47_2 H 0.9872 0.7002 0.4108
C64_2 C 0.9068(3) 0.6352(11) 0.4366(4)
C65_2 C 0.8870(3) 0.6038(9) 0.5105(4)
C66_2 C 0.7674(3) 0.7872(11) 0.2700(4)
H48_2 H 0.7495 0.7811 0.2859
C68_2 C 0.9362(3) 0.7019(10) 0.2713(4)
H50_2 H 0.9249 0.7570 0.2620
H51_2 H 0.9584 0.7120 0.2676
H52_2 H 0.9297 0.6465 0.2565
C69_2 C 0.8478(3) 0.5296(10) 0.5535(4)
H53_2 H 0.8306 0.4891 0.5571
C71_2 C 0.8737(3) 0.6968(9) 0.3000(3)
C74_2 C 0.7927(3) 0.7448(11) 0.2807(4)
H55_2 H 0.7921 0.7046 0.3028
O13_2 O 0.73545(19) 0.9241(7) 0.1856(3)
O14_2 O 0.7144(2) 0.8975(7) 0.2457(3)
C77_2 C 0.8594(3) 0.5522(11) 0.5154(5)
H58_2 H 0.8484 0.5320 0.4929
C78_2 C 0.8987(3) 0.6214(10) 0.4701(4)
O23_2 O 0.6440(2) 0.9416(8) 0.2317(3)
C9_2 C 0.9936(3) 0.8263(10) 0.8133(4)
C30_2 C 0.9684(3) 0.8721(12) 0.8226(5)
H18_2 H 0.9685 0.9138 0.8442
C31_2 C 0.9942(4) 0.7787(12) 0.7756(5)
C32_2 C 0.9402(3) 0.8097(11) 0.7676(4)
C33_2 C 0.9675(4) 0.7636(13) 0.7574(5)
H20_2 H 0.9670 0.7196 0.7365
C34_2 C 0.9410(4) 0.8596(12) 0.8003(5)
H21_2 H 0.9224 0.8882 0.8092
C35_2 C 0.9117(4) 0.7948(13) 0.7419(5)
O1_3 O 0.6529(2) 0.4399(7) 0.1822(3)
C15_3 C 0.6370(3) 0.3868(10) 0.0752(4)
H12_3 H 0.6362 0.3203 0.0755
C18_3 C 0.6425(3) 0.4400(11) 0.1127(4)
C23_2 C 0.6359(3) 0.5832(11) 0.0743(4)
H15_2 H 0.6353 0.6498 0.0737
C24_3 C 0.6482(3) 0.3908(11) 0.1533(4)
C25_2 C 0.6314(3) 0.5328(10) 0.0397(4)
C26_2 C 0.6241(3) 0.5806(9) 0.0025(4)
C28_3 C 0.6333(3) 0.4320(11) 0.0426(4)
H16_3 H 0.6318 0.3965 0.0192
C29_2 C 0.6413(3) 0.5386(13) 0.1093(5)
H17_2 H 0.6442 0.5755 0.1321
O2_3 O 0.6461(2) 0.3021(7) 0.1509(3)
O6_3 O 0.6648(2) 0.3721(8) 0.3119(3)
O8_3 O 0.7108(2) 0.4710(7) 0.2392(3)
O9_2 O 0.6448(3) 0.5611(9) 0.2640(3)
H22_2 H 0.6521 0.5993 0.2883
H23_2 H 0.6286 0.6032 0.2496
N1_3 N 0.6339(3) 0.2707(10) 0.3524(4)
C37_3 C 0.6510(3) 0.2898(11) 0.3182(4)
H24_3 H 0.6528 0.2422 0.2989
C38_3 C 0.6321(4) 0.3408(13) 0.3867(5)
H25_3 H 0.6109 0.3643 0.3890
H26_3 H 0.6380 0.3093 0.4110
H27_3 H 0.6461 0.3934 0.3817
N2_2 N 0.7482(3) 0.5409(10) 0.2067(4)
C39_2 C 0.7196(3) 0.5240(9) 0.2148(4)
H28_2 H 0.7044 0.5566 0.2001
C40_2 C 0.7589(4) 0.6179(14) 0.1743(5)
H29_2 H 0.7653 0.6758 0.1876
H30_2 H 0.7763 0.5930 0.1592
H31_2 H 0.7417 0.6315 0.1566
C41_3 C 0.7746(4) 0.4993(14) 0.2307(5)
H32_3 H 0.7826 0.4433 0.2175
H33_2 H 0.7912 0.5457 0.2333
H34_3 H 0.7670 0.4821 0.2567
C42_3 C 0.6172(4) 0.1735(12) 0.3566(5)
H35_3 H 0.6282 0.1348 0.3758
H36_3 H 0.5959 0.1836 0.3655
H37_3 H 0.6170 0.1416 0.3312
O10_3 O 0.6298(2) 0.0923(7) 0.2518(3)
C43_3 C 0.6253(3) 0.0081(12) 0.2502(5)
C67_3 C 0.5742(3) 0.0257(12) 0.2842(4)
H49_3 H 0.5772 0.0913 0.2814
H53_3 H 0.3306 0.0109 0.5571
H54_3 H 0.5291 0.0309 0.3122
O16_2 O 0.6121(2) 0.3440(8) 0.2546(3)
O19_2 O 0.5876(2) 0.2411(9) 0.2140(3)
O21_2 O 0.6318(2) 0.0744(7) 0.1561(3)
C1_3 C 0.7472(3) 0.6272(10) 0.7410(4)
H1_3 H 0.7520 0.5788 0.7229
C2_3 C 0.6131(3) 0.6330(9) 0.9277(3)
C3_3 C 0.7684(3) 0.6984(9) 0.7483(4)
C4_3 C 0.5782(3) 0.6549(10) 0.8729(4)
C5_3 C 0.5836(3) 0.6377(10) 0.9121(4)
C6_3 C 0.6360(3) 0.6723(9) 0.8615(3)
C7_3 C 0.5550(3) 0.6249(10) 0.9399(4)
H2_3 H 0.5436 0.6841 0.9414
H3_3 H 0.5416 0.5758 0.9294
H4_3 H 0.5622 0.6070 0.9660
C8_3 C 0.5481(3) 0.6623(9) 0.8555(3)
C9_3 C 0.4936(3) 0.6737(10) 0.8133(4)
C10_3 C 0.6392(3) 0.6499(10) 0.9029(4)
C11_3 C 0.7188(3) 0.6273(10) 0.7603(3)
H5_3 H 0.7038 0.5814 0.7540
C12_3 C 0.6195(3) 0.6078(10) 0.9697(4)
C13_3 C 0.6722(3) 0.6414(10) 0.9197(4)
H6_3 H 0.6770 0.5752 0.9244
H7_3 H 0.6870 0.6674 0.9009
H8_3 H 0.6735 0.6762 0.9443
C14_3 C 0.5993(3) 0.6900(11) 0.8006(4)
H9_3 H 0.5861 0.7448 0.7964
H10_3 H 0.6193 0.7000 0.7876
H11_3 H 0.5893 0.6343 0.7895
C16_3 C 0.6047(3) 0.6749(10) 0.8462(4)
C17_3 C 0.7121(3) 0.6994(9) 0.7906(3)
C19_3 C 0.7623(3) 0.7672(11) 0.7756(4)
H13_3 H 0.7770 0.8153 0.7798
C20_3 C 0.5243(3) 0.6676(10) 0.8387(4)
C21_3 C 0.7355(3) 0.7679(10) 0.7967(4)
H14_3 H 0.7324 0.8152 0.8158
C22_3 C 0.6606(3) 0.6837(10) 0.8362(4)
C27_3 C 0.6845(3) 0.6929(10) 0.8141(4)
C30_3 C 0.4684(3) 0.6279(12) 0.8226(5)
H18_3 H 0.4685 0.5862 0.8442
C31_3 C 0.4942(4) 0.7213(12) 0.7756(5)
H19_3 H 0.5131 0.7409 0.7643
C32_3 C 0.4402(3) 0.6903(11) 0.7676(4)
C33_3 C 0.4675(4) 0.7364(13) 0.7574(5)
H20_3 H 0.4670 0.7804 0.7365
C34_3 C 0.4410(4) 0.6404(12) 0.8003(5)
H21_3 H 0.4224 0.6118 0.8092
O3_2 O 0.3879(2) 0.6560(8) 0.7546(3)
C35_3 C 0.4117(4) 0.7052(13) 0.7419(5)
O5_2 O 0.4124(2) 0.7589(9) 0.7140(3)
C36_3 C 0.7991(3) 0.6944(9) 0.7291(3)
O11_2 O 0.3682(2) 0.9256(7) 0.6561(3)
C44_3 C 0.4134(3) 0.8450(9) 0.3962(3)
C45_3 C 0.2368(3) 0.6099(10) 0.2208(4)
C46_3 C 0.4295(3) 0.8133(9) 0.3148(3)
C47_3 C 0.3968(3) 0.8165(9) 0.3264(3)
C48_3 C 0.2657(3) 0.6576(10) 0.2354(4)
C49_3 C 0.4008(4) 0.8570(11) 0.5427(4)
H38_3 H 0.4188 0.8200 0.5388
C50_3 C 0.3547(3) 0.8467(10) 0.3811(4)
H39_3 H 0.3498 0.7970 0.3999
H40_3 H 0.3414 0.8405 0.3580
H41_3 H 0.3513 0.9080 0.3933
C51_3 C 0.3208(3) 0.7004(11) 0.2282(4)
H42_3 H 0.3393 0.6987 0.2133
C52_3 C 0.4857(3) 0.8420(10) 0.3294(4)
C53_3 C 0.3903(3) 0.8377(10) 0.3680(4)
C54_3 C 0.3899(4) 0.8688(12) 0.5810(5)
H43_3 H 0.3996 0.8385 0.6024
C55_3 C 0.5124(3) 0.8594(9) 0.3186(3)
C56_3 C 0.3219(3) 0.7439(10) 0.2603(4)
C57_3 C 0.2945(3) 0.6530(10) 0.2117(4)
H44_3 H 0.2954 0.6209 0.1874
C58_3 C 0.4517(3) 0.8321(10) 0.3421(4)
C59_3 C 0.3503(3) 0.7812(10) 0.2791(4)
C60_3 C 0.4453(3) 0.8426(10) 0.3828(4)
C61_3 C 0.3512(3) 0.9516(10) 0.6276(4)
C62_3 C 0.3637(3) 0.9278(10) 0.5865(4)
C63_3 C 0.4722(3) 0.8503(10) 0.4149(4)
H45_3 H 0.4632 0.8448 0.4411
H46_3 H 0.4825 0.9111 0.4124
H47_3 H 0.4872 0.7998 0.4108
C64_3 C 0.4068(3) 0.8648(11) 0.4366(4)
C65_3 C 0.3870(3) 0.8962(9) 0.5105(4)
C66_3 C 0.2674(3) 0.7128(11) 0.2700(4)
H48_3 H 0.2495 0.7189 0.2859
C68_3 C 0.4362(3) 0.7981(10) 0.2713(4)
H50_3 H 0.4249 0.7430 0.2620
H51_3 H 0.4584 0.7880 0.2676
H52_3 H 0.4297 0.8535 0.2565
C69_3 C 0.3478(3) 0.9704(10) 0.5535(4)
C70_3 C 0.5442(3) 0.9888(11) 0.3025(4)
C71_3 C 0.3737(3) 0.8032(9) 0.3000(3)
C72_3 C 0.5974(3) 0.9640(10) 0.2714(4)
C73_3 C 0.5397(3) 0.8908(11) 0.3045(4)
C74_3 C 0.2927(3) 0.7552(11) 0.2807(4)
H55_3 H 0.2921 0.7954 0.3028
C75_3 C 0.5629(4) 0.8286(14) 0.2899(5)
H56_3 H 0.5597 0.7628 0.2893
C76_3 C 0.5930(4) 0.8717(12) 0.2755(4)
H57_3 H 0.6095 0.8308 0.2691
O13_3 O 0.23545(19) 0.5759(7) 0.1856(3)
O14_3 O 0.2144(2) 0.6025(7) 0.2457(3)
C77_3 C 0.3594(3) 0.9478(11) 0.5154(5)
H58_3 H 0.3484 0.9680 0.4929
C78_3 C 0.3987(3) 0.8786(10) 0.4701(4)
C49_4 C 0.5992(4) 0.1430(11) 0.0427(4)
H38_4 H 0.5812 0.1800 0.0388
C54_4 C 0.6101(4) 0.1312(12) 0.0810(5)
H43_4 H 0.6004 0.1615 0.1024
C61_4 C 0.6488(3) 0.0484(10) 0.1276(4)
C62_4 C 0.6363(3) 0.0722(10) 0.0865(4)
C65_4 C 0.6130(3) 0.1038(9) 0.0105(4)
C69_4 C 0.6522(3) 0.0296(10) 0.0535(4)
C77_4 C 0.6406(3) 0.0522(11) 0.0154(5)
C44_4 C 0.5866(3) 0.1550(9) 0.8962(3)
C45_4 C 0.7632(3) 0.3901(10) 0.7208(4)
C46_4 C 0.5705(3) 0.1867(9) 0.8148(3)
C47_4 C 0.6032(3) 0.1835(9) 0.8264(3)
C48_4 C 0.7343(3) 0.3424(10) 0.7354(4)
C50_4 C 0.6453(3) 0.1533(10) 0.8811(4)
H39_4 H 0.6502 0.2030 0.8999
H40_4 H 0.6586 0.1595 0.8580
H41_4 H 0.6487 0.0920 0.8933
C51_4 C 0.6792(3) 0.2996(11) 0.7282(4)
H42_4 H 0.6607 0.3013 0.7133
C52_4 C 0.5143(3) 0.1580(10) 0.8294(4)
C53_4 C 0.6097(3) 0.1623(10) 0.8680(4)
C55_4 C 0.4876(3) 0.1406(9) 0.8186(3)
C56_4 C 0.6781(3) 0.2561(10) 0.7603(4)
C57_4 C 0.7055(3) 0.3470(10) 0.7117(4)
H44_4 H 0.7046 0.3791 0.6874
C58_4 C 0.5483(3) 0.1679(10) 0.8421(4)
C59_4 C 0.6497(3) 0.2188(10) 0.7791(4)
C60_4 C 0.5547(3) 0.1574(10) 0.8828(4)
C63_4 C 0.5278(3) 0.1497(10) 0.9149(4)
H45_4 H 0.5368 0.1552 0.9411
H46_4 H 0.5175 0.0889 0.9124
H47_4 H 0.5128 0.2002 0.9108
C64_4 C 0.5932(3) 0.1352(11) 0.9366(4)
C66_4 C 0.7326(3) 0.2872(11) 0.7700(4)
H48_4 H 0.7505 0.2811 0.7859
C68_4 C 0.5638(3) 0.2019(10) 0.7713(4)
H50_4 H 0.5751 0.2570 0.7620
H51_4 H 0.5416 0.2120 0.7676
H52_4 H 0.5703 0.1465 0.7565
C70_4 C 0.4558(3) 0.0112(11) 0.8025(4)
C71_4 C 0.6263(3) 0.1968(9) 0.8000(3)
C72_4 C 0.4026(3) 0.0360(10) 0.7714(4)
C73_4 C 0.4603(3) 0.1092(11) 0.8045(4)
C74_4 C 0.7073(3) 0.2448(11) 0.7807(4)
H55_4 H 0.7079 0.2046 0.8028
C75_4 C 0.4371(4) 0.1714(14) 0.7899(5)
H56_4 H 0.4403 0.2372 0.7893
C76_4 C 0.4070(4) 0.1283(12) 0.7755(4)
H57_4 H 0.3905 0.1692 0.7691
O13_4 O 0.76455(19) 0.4241(7) 0.6856(3)
O14_4 O 0.7856(2) 0.3975(7) 0.7457(3)
H58_4 H 0.6516 0.0320 0.9929
C78_4 C 0.6013(3) 0.1214(10) 0.9701(4)
H53_4 H 0.6694 0.9891 0.0571
O1_4 O 0.3471(2) 0.5601(7) 0.6822(3)
C1_4 C 0.2528(3) 0.3728(10) 0.2410(4)
H1_4 H 0.2480 0.4212 0.2229
C2_4 C 0.3869(3) 0.3670(9) 0.4277(3)
C3_4 C 0.2316(3) 0.3016(9) 0.2483(4)
C4_4 C 0.4218(3) 0.3451(10) 0.3729(4)
C5_4 C 0.4164(3) 0.3623(10) 0.4121(4)
C6_4 C 0.3640(3) 0.3277(9) 0.3615(3)
C7_4 C 0.4450(3) 0.3751(10) 0.4399(4)
H2_4 H 0.4564 0.3159 0.4414
H3_4 H 0.4584 0.4242 0.4294
H4_4 H 0.4378 0.3930 0.4660
C8_4 C 0.4519(3) 0.3377(9) 0.3555(3)
C9_4 C 0.5064(3) 0.3263(10) 0.3133(4)
C10_4 C 0.3608(3) 0.3501(10) 0.4029(4)
C11_4 C 0.2812(3) 0.3727(10) 0.2603(3)
H5_4 H 0.2962 0.4186 0.2540
C12_4 C 0.3805(3) 0.3922(10) 0.4697(4)
C13_4 C 0.3278(3) 0.3586(10) 0.4197(4)
H6_4 H 0.3230 0.4248 0.4244
H7_4 H 0.3130 0.3326 0.4009
H8_4 H 0.3265 0.3238 0.4443
C14_4 C 0.4007(3) 0.3100(11) 0.3006(4)
H9_4 H 0.4139 0.2552 0.2964
H10_4 H 0.3807 0.3000 0.2876
H11_4 H 0.4107 0.3657 0.2895
C15_4 C 0.3630(3) 0.6132(10) 0.5752(4)
H12_4 H 0.3638 0.6797 0.5755
C16_4 C 0.3953(3) 0.3251(10) 0.3462(4)
C17_4 C 0.2879(3) 0.3006(9) 0.2906(3)
C18_4 C 0.3575(3) 0.5600(11) 0.6127(4)
C19_4 C 0.2377(3) 0.2328(11) 0.2756(4)
H13_4 H 0.2230 0.1847 0.2798
C20_4 C 0.4757(3) 0.3324(10) 0.3387(4)
C21_4 C 0.2645(3) 0.2321(10) 0.2967(4)
H14_4 H 0.2676 0.1848 0.3158
C22_4 C 0.3394(3) 0.3163(10) 0.3362(4)
C23_3 C 0.3641(3) 0.4168(11) 0.5743(4)
H15_3 H 0.3647 0.3502 0.5737
C24_4 C 0.3518(3) 0.6092(11) 0.6533(4)
C25_3 C 0.3686(3) 0.4672(10) 0.5397(4)
C26_3 C 0.3759(3) 0.4194(9) 0.5025(4)
C27_4 C 0.3155(3) 0.3071(10) 0.3141(4)
C28_4 C 0.3667(3) 0.5680(11) 0.5426(4)
H16_4 H 0.3682 0.6035 0.5192
C29_3 C 0.3587(3) 0.4614(13) 0.6093(5)
H17_3 H 0.3558 0.4245 0.6321
C30_4 C 0.5316(3) 0.3721(12) 0.3226(5)
H18_4 H 0.5315 0.4138 0.3442
C31_4 C 0.5058(4) 0.2787(12) 0.2756(5)
H19_4 H 0.4869 0.2591 0.2643
O2_4 O 0.3539(2) 0.6979(7) 0.6509(3)
C32_4 C 0.5598(3) 0.3097(11) 0.2676(4)
C33_4 C 0.5325(4) 0.2636(13) 0.2574(5)
H20_4 H 0.5330 0.2196 0.2365
C34_4 C 0.5590(4) 0.3596(12) 0.3003(5)
H21_4 H 0.5776 0.3882 0.3092
C35_4 C 0.5883(4) 0.2948(13) 0.2419(5)
C36_4 C 0.2009(3) 0.3056(9) 0.2291(3)
O6_4 O 0.3352(2) 0.6279(8) 0.8119(3)
O8_4 O 0.2892(2) 0.5290(7) 0.7392(3)
O9_3 O 0.3552(3) 0.4389(9) 0.7640(3)
H22_3 H 0.3479 0.4007 0.7883
H23_3 H 0.3714 0.3968 0.7496
N1_4 N 0.3661(3) 0.7293(10) 0.8524(4)
C37_4 C 0.3490(3) 0.7102(11) 0.8182(4)
H24_4 H 0.3472 0.7578 0.7989
C38_4 C 0.3679(4) 0.6592(13) 0.8867(5)
H25_4 H 0.3891 0.6357 0.8890
H26_4 H 0.3620 0.6907 0.9110
H27_4 H 0.3539 0.6066 0.8817
N2_3 N 0.2518(3) 0.4591(10) 0.7067(4)
C39_3 C 0.2804(3) 0.4760(9) 0.7148(4)
H28_3 H 0.2956 0.4434 0.7001
C40_3 C 0.2411(4) 0.3821(14) 0.6743(5)
H29_3 H 0.2347 0.3242 0.6876
H30_3 H 0.2237 0.4070 0.6592
H31_3 H 0.2583 0.3685 0.6566
C41_4 C 0.2254(4) 0.5007(14) 0.7307(5)
H32_4 H 0.2174 0.5567 0.7175
H33_3 H 0.2088 0.4543 0.7333
H34_4 H 0.2330 0.5179 0.7567
C42_4 C 0.3828(4) 0.8265(12) 0.8566(5)
H35_4 H 0.3718 0.8652 0.8758
H36_4 H 0.4041 0.8164 0.8655
H37_4 H 0.3830 0.8584 0.8312
O10_4 O 0.3702(2) 0.9077(7) 0.7518(3)
C43_4 C 0.3747(3) 0.9919(12) 0.7502(5)
C67_4 C 0.4258(3) 0.9743(12) 0.7842(4)
H49_4 H 0.4228 0.9087 0.7814
H54_4 H 0.4709 0.9691 0.8122
C23_4 C 0.1359(3) 0.9168(11) 0.0743(4)
H15_4 H 0.1353 0.8502 0.0737
C25_4 C 0.1314(3) 0.9672(10) 0.0397(4)
C26_4 C 0.1241(3) 0.9194(9) 0.0025(4)
C29_4 C 0.1413(3) 0.9614(13) 0.1093(5)
H17_4 H 0.1442 0.9245 0.1321
O9_4 O 0.1448(3) 0.9389(9) 0.2640(3)
H22_4 H 0.1521 0.9007 0.2883
H23_4 H 0.1286 0.8968 0.2496
N2_4 N 0.2482(3) 0.9591(10) 0.2067(4)
C39_4 C 0.2196(3) 0.9760(9) 0.2148(4)
H28_4 H 0.2044 0.9434 0.2001
C40_4 C 0.2589(4) 0.8821(14) 0.1743(5)
H29_4 H 0.2653 0.8242 0.1876
H30_4 H 0.2763 0.9070 0.1592
H31_4 H 0.2417 0.8685 0.1566
H33_4 H 0.2912 0.9543 0.2333
O25 O 0.2662(2) 0.3849(8) 0.0212(3)
O29 O 0.2983(2) 0.2677(7) 0.0008(3)
H72 H 0.2099 0.3378 0.0151
C145 C 0.2707(3) 0.3056(10) 0.0032(4)
Cd22 Cd 0.32083(2) 0.42399(7) 0.00371(3)
C80 C 0.1004(3) 0.0676(9) 0.8177(4)
C84 C 0.0691(3) 0.0736(10) 0.8289(4)
C88 C 0.0617(3) 0.0903(10) 0.8707(4)
C90 C 0.1167(3) 0.0882(10) 0.8884(4)
C91 C 0.0864(3) 0.1015(9) 0.9004(4)
C94 C 0.1074(3) 0.0503(10) 0.7786(4)
C101 C 0.1240(3) 0.0753(9) 0.8466(4)
C105 C 0.0785(3) 0.1172(10) 0.9428(3)
H65 H 0.0576 0.0938 0.9479
H66 H 0.0794 0.1844 0.9486
H67 H 0.0933 0.0837 0.9593
C107 C 0.2458(3) 0.1654(10) 0.9777(4)
H68 H 0.2656 0.1364 0.9770
C111 C 0.2128(3) 0.2838(10) 0.9993(4)
C113 C 0.1893(3) 0.1606(10) 0.9597(4)
C115 C 0.2188(3) 0.1178(12) 0.9599(4)
H74 H 0.2213 0.0577 0.9484
C125 C 0.0295(3) 0.0899(10) 0.8828(4)
C126 C 0.1206(3) 0.0165(10) 0.6996(4)
C129 C 0.0422(3) 0.0644(11) 0.7983(4)
H81 H 0.0508 0.0606 0.7719
H82 H 0.0286 0.1193 0.8002
H83 H 0.0302 0.0076 0.8038
C130 C 0.1635(3) 0.1269(10) 0.9383(4)
C133 C 0.1593(3) 0.0650(10) 0.8343(4)
H88 H 0.1667 0.1248 0.8238
H89 H 0.1613 0.0161 0.8143
H90 H 0.1715 0.0478 0.8573
C134 C 0.1864(3) 0.2417(11) 0.9813(4)
H91 H 0.1667 0.2701 0.9842
C136 C 0.1154(4) 0.0388(12) 0.7457(5)
C137 C 0.2423(3) 0.2494(10) 0.9949(3)
C141 C 0.0030(4) 0.0909(12) 0.8930(4)
C142 C 0.1418(3) 0.1090(11) 0.9148(4)
C148 C 0.1119(4) 0.0530(13) 0.6318(5)
H98 H 0.0999 0.0839 0.6124
C150 C 0.1052(4) 0.0670(12) 0.6719(5)
H99 H 0.0901 0.1115 0.6795
O38 O 0.1265(3) 0.0287(11) 0.5520(4)
Cd18 Cd 0.13521(2) 0.14881(7) 0.51097(3)
C95 C 0.0687(3) 0.3453(11) 0.4397(4)
C104 C 0.0106(3) 0.3840(11) 0.4037(4)
C108 C 0.0639(3) 0.4238(11) 0.4238(4)
H69 H 0.0795 0.4704 0.4255
C118 C 0.0361(3) 0.4459(12) 0.4032(4)
H75 H 0.0347 0.5029 0.3890
C127 C 0.0439(4) 0.2773(13) 0.4405(5)
H79 H 0.0472 0.2174 0.4519
C140 C 0.0146(4) 0.3009(12) 0.4241(4)
C146 C 0.0986(3) 0.3205(11) 0.4619(4)
O32 O 0.1206(2) 0.3754(7) 0.4582(3)
O33 O 0.0998(2) 0.2407(8) 0.4777(3)
Cd15 Cd 0.17100(2) 0.37876(7) 0.47737(3)
C110 C 0.1439(4) 0.9507(14) 0.6904(6)
H71 H 0.1533 0.9132 0.7100
C135 C 0.1525(4) 0.9434(12) 0.6503(5)
H92 H 0.1693 0.9046 0.6430
C144 C 0.1357(4) 0.9950(12) 0.6206(5)
O37 O 0.1641(3) 0.9326(11) 0.5667(4)
C149 C 0.1448(5) 0.9872(16) 0.5732(6)
Cd20 Cd 0.17917(2) 0.92399(7) 0.50371(3)
Cd14 Cd 0.82083(2) 0.07601(7) 0.00371(3)
O40 O 0.7662(2) 0.1151(8) 0.0212(3)
O42 O 0.7983(2) 0.2323(7) 0.0008(3)
O45 O 0.8359(3) 0.0674(11) 0.0667(4)
Cd13 Cd 0.86479(2) 0.85119(7) 0.01097(3)
O24 O 0.67782(17) 0.2849(6) 0.4708(2)
O27 O 0.68945(18) 0.4088(6) 0.5086(3)
C79 C 0.8988(3) 0.4116(10) 0.3777(4)
C81 C 0.6975(3) 0.3501(10) 0.4834(4)
O30 O 0.8606(2) 0.7529(8) 0.0645(3)
O31 O 0.8362(2) 0.6190(7) 0.0441(3)
C82 C 0.8675(3) 0.4214(9) 0.3606(3)
C83 C 0.7273(2) 0.3529(9) 0.4638(3)
C85 C 0.9246(3) 0.4169(9) 0.3528(3)
C86 C 0.9554(3) 0.4099(10) 0.3689(4)
C87 C 0.8401(3) 0.4056(10) 0.3863(4)
C89 C 0.8714(3) 0.5412(10) 0.1829(4)
C92 C 0.8508(3) 0.6694(10) 0.0707(4)
C93 C 0.8892(3) 0.4517(9) 0.2965(3)
C96 C 0.8858(3) 0.4748(10) 0.2544(4)
C97 C 0.9491(3) 0.4473(11) 0.2852(4)
H59 H 0.9570 0.3840 0.2806
H60 H 0.9651 0.4856 0.2976
H61 H 0.9431 0.4758 0.2602
C99 C 0.7359(3) 0.3052(10) 0.4297(4)
H63 H 0.7217 0.2630 0.4180
C100 C 0.8163(3) 0.3889(10) 0.4057(4)
C102 C 0.7872(3) 0.3801(10) 0.4259(4)
C103 C 0.7804(3) 0.4250(11) 0.4631(4)
H64 H 0.7959 0.4628 0.4750
C106 C 0.9200(3) 0.4419(11) 0.3130(4)
C109 C 0.8466(3) 0.5367(11) 0.1192(4)
H70 H 0.8339 0.5052 0.1007
C112 C 0.9817(3) 0.4035(10) 0.3823(4)
C121 C 0.7653(3) 0.3182(10) 0.4122(4)
H76 H 0.7702 0.2820 0.3897
C122 C 0.8636(2) 0.4405(8) 0.3204(3)
C123 C 0.7527(3) 0.4148(11) 0.4815(4)
H77 H 0.7490 0.4463 0.5055
C124 C 0.8536(3) 0.4909(12) 0.1548(4)
H78 H 0.8467 0.4288 0.1598
C128 C 0.8747(3) 0.6812(12) 0.1368(4)
H80 H 0.8817 0.7429 0.1313
C131 C 0.9013(3) 0.3920(11) 0.4222(4)
H84 H 0.9114 0.3313 0.4264
H85 H 0.8806 0.3906 0.4338
H86 H 0.9136 0.4416 0.4347
C138 C 0.8808(4) 0.6334(13) 0.1752(5)
H93 H 0.8915 0.6670 0.1950
C139 C 0.8780(3) 0.5002(11) 0.2213(4)
H94 H 0.9977 0.2592 0.4272
C143 C 0.8577(3) 0.6279(10) 0.1097(4)
C147 C 0.8318(3) 0.4548(12) 0.3047(5)
H95 H 0.8275 0.5221 0.3026
H96 H 0.8168 0.4259 0.3225
H97 H 0.8301 0.4257 0.2788
N4 N 0.7381(3) 0.5758(10) 0.0316(4)
C151 C 0.7651(3) 0.5712(10) 0.0205(4)
H100 H 0.7785 0.5326 0.0355
C152 C 0.7235(4) 0.5110(14) 0.0660(5)
H101 H 0.7280 0.5393 0.0915
H102 H 0.7327 0.4482 0.0648
H103 H 0.7011 0.5064 0.0625
C153 C 0.7156(4) 0.6474(13) 0.0158(5)
H105 H 0.7236 0.7107 0.0208
H106 H 0.6956 0.6399 0.0288
N5 N 0.8620(4) 0.3727(13) 0.0184(5)
H114 H 0.9025 0.4254 0.0036
C158 C 0.8377(6) 0.4034(18) 0.0160(7)
H117 H 0.8227 0.3905 0.0355
C159 C 0.8598(8) 0.305(3) 0.0616(10)
H118 H 0.8758 0.2561 0.0609
H119 H 0.8394 0.2755 0.0633
H120 H 0.8631 0.3454 0.0844
Cd16 Cd 0.67100(2) 0.12124(7) 0.47737(3)
Cd19 Cd 0.63521(2) 0.35119(7) 0.51097(3)
Cd21 Cd 0.67917(2) 0.57601(7) 0.50371(3)
O41 O 0.81055(18) 0.9088(6) 0.0086(3)
O46 O 0.8735(3) 0.9713(11) 0.0520(4)
Cd12 Cd 0.82900(2) 0.62124(7) 0.97737(3)
O26 O 0.8662(2) 0.9746(7) 0.9656(3)
C98 C 0.9605(3) 0.9963(10) 0.9252(4)
H62 H 0.9737 0.9434 0.9232
C132 C 0.9312(3) 0.9851(11) 0.9417(4)
H87 H 0.9244 0.9260 0.9512
O34 O 0.8145(2) 0.5967(7) 0.9108(3)
O35 O 0.7771(2) 0.6125(7) 0.9912(3)
O36 O 0.8307(3) 0.4590(9) 0.9847(4)
N3 N 0.7833(3) 0.5310(10) 0.8629(4)
H104 H 0.7131 0.6383 0.9876
C154 C 0.7920(4) 0.5478(13) 0.9022(5)
H107 H 0.7801 0.5205 0.9226
C155 C 0.7498(6) 0.4690(19) 0.8575(7)
H108 H 0.7385 0.4926 0.8347
H109 H 0.7371 0.4764 0.8811
H110 H 0.7547 0.4025 0.8537
C156 C 0.8071(6) 0.563(2) 0.8345(8)
H111 H 0.8277 0.5488 0.8448
H112 H 0.8052 0.6312 0.8307
H113 H 0.8041 0.5312 0.8094
C157 C 0.8890(5) 0.3740(17) 0.9951(6)
H115 H 0.8833 0.3833 0.9676
H116 H 0.9000 0.3143 0.9979
O39 O 0.82218(17) 0.7849(6) 0.9708(2)
O43 O 0.8794(2) 0.6246(7) 0.9582(3)
O44 O 0.9002(2) 0.7593(8) 0.9777(3)
O27_2 O 0.31055(18) 0.5912(6) 0.0086(3)
H77_2 H 0.2510 0.5537 0.0055
Cd19_2 Cd 0.36479(2) 0.64881(7) 0.01097(3)
O24_2 O 0.32218(17) 0.7151(6) 0.9708(2)
O26_2 O 0.1338(2) 0.0254(7) 0.4656(3)
C79_2 C 0.1012(3) 0.5884(10) 0.8777(4)
C81_2 C 0.3025(3) 0.6499(10) 0.9834(4)
O30_2 O 0.1394(2) 0.2471(8) 0.5645(3)
O31_2 O 0.1638(2) 0.3810(7) 0.5441(3)
C82_2 C 0.1325(3) 0.5786(9) 0.8606(3)
C83_2 C 0.2727(2) 0.6471(9) 0.9638(3)
C85_2 C 0.0754(3) 0.5831(9) 0.8528(3)
C86_2 C 0.0446(3) 0.5901(10) 0.8689(4)
C87_2 C 0.1599(3) 0.5944(10) 0.8863(4)
C89_2 C 0.1286(3) 0.4588(10) 0.6829(4)
C92_2 C 0.1492(3) 0.3306(10) 0.5707(4)
C93_2 C 0.1108(3) 0.5483(9) 0.7965(3)
C96_2 C 0.1142(3) 0.5252(10) 0.7544(4)
C97_2 C 0.0509(3) 0.5527(11) 0.7852(4)
H59_2 H 0.0430 0.6160 0.7806
H60_2 H 0.0349 0.5144 0.7976
H61_2 H 0.0569 0.5242 0.7602
C98_2 C 0.0395(3) 0.0037(10) 0.4252(4)
H62_2 H 0.0263 0.0566 0.4232
C99_2 C 0.2641(3) 0.6948(10) 0.9297(4)
H63_2 H 0.2783 0.7370 0.9180
C100_2 C 0.1837(3) 0.6111(10) 0.9057(4)
C102_2 C 0.2128(3) 0.6199(10) 0.9259(4)
C103_2 C 0.2196(3) 0.5750(11) 0.9631(4)
H64_2 H 0.2041 0.5372 0.9750
C106_2 C 0.0800(3) 0.5581(11) 0.8130(4)
C109_2 C 0.1534(3) 0.4633(11) 0.6192(4)
H70_2 H 0.1661 0.4948 0.6007
C112_2 C 0.0183(3) 0.5965(10) 0.8823(4)
C121_2 C 0.2347(3) 0.6818(10) 0.9122(4)
H76_2 H 0.2298 0.7180 0.8897
C122_2 C 0.1364(2) 0.5595(8) 0.8204(3)
C123_2 C 0.2473(3) 0.5852(11) 0.9815(4)
C124_2 C 0.1464(3) 0.5091(12) 0.6548(4)
H78_2 H 0.1533 0.5712 0.6598
C128_2 C 0.1253(3) 0.3188(12) 0.6368(4)
H80_2 H 0.1183 0.2571 0.6313
C131_2 C 0.0987(3) 0.6080(11) 0.9222(4)
H84_2 H 0.0886 0.6687 0.9264
H85_2 H 0.1194 0.6094 0.9338
H86_2 H 0.0864 0.5584 0.9347
C132_2 C 0.0688(3) 0.0149(11) 0.4417(4)
H87_2 H 0.0756 0.0740 0.4512
C138_2 C 0.1192(4) 0.3666(13) 0.6752(5)
H93_2 H 0.1085 0.3330 0.6950
C139_2 C 0.1220(3) 0.4998(11) 0.7213(4)
H94_2 H 0.0023 0.7408 0.9272
C143_2 C 0.1423(3) 0.3721(10) 0.6097(4)
C147_2 C 0.1682(3) 0.5452(12) 0.8047(5)
H95_2 H 0.1725 0.4779 0.8026
H96_2 H 0.1832 0.5741 0.8225
H97_2 H 0.1699 0.5743 0.7788
O34_2 O 0.1855(2) 0.4033(7) 0.4108(3)
O35_2 O 0.2229(2) 0.3875(7) 0.4912(3)
O36_2 O 0.1693(3) 0.5410(9) 0.4847(4)
N3_2 N 0.2167(3) 0.4690(10) 0.3629(4)
N4_2 N 0.2619(3) 0.4242(10) 0.5316(4)
C151_2 C 0.2349(3) 0.4288(10) 0.5205(4)
H100_2 H 0.2215 0.4674 0.5355
C152_2 C 0.2765(4) 0.4890(14) 0.5660(5)
H101_2 H 0.2720 0.4607 0.5915
H102_2 H 0.2673 0.5518 0.5648
H103_2 H 0.2989 0.4936 0.5625
C153_2 C 0.2844(4) 0.3526(13) 0.5158(5)
H104_2 H 0.2869 0.3617 0.4876
H105_2 H 0.2764 0.2893 0.5208
H106_2 H 0.3044 0.3601 0.5288
C154_2 C 0.2080(4) 0.4522(13) 0.4022(5)
H107_2 H 0.2199 0.4795 0.4226
C155_2 C 0.2502(6) 0.5310(19) 0.3575(7)
H108_2 H 0.2615 0.5074 0.3347
H109_2 H 0.2629 0.5236 0.3811
H110_2 H 0.2453 0.5975 0.3537
C156_2 C 0.1929(6) 0.437(2) 0.3345(8)
H111_2 H 0.1723 0.4512 0.3448
H112_2 H 0.1948 0.3688 0.3307
H113_2 H 0.1959 0.4688 0.3094
N5_2 N 0.1380(4) 0.6273(13) 0.5184(5)
C157_2 C 0.1110(5) 0.6260(17) 0.4951(6)
H114_2 H 0.0975 0.5746 0.5036
H115_2 H 0.1167 0.6167 0.4676
H116_2 H 0.1000 0.6857 0.4979
C158_2 C 0.1623(6) 0.5966(18) 0.5160(7)
H117_2 H 0.1773 0.6095 0.5355
C159_2 C 0.1402(8) 0.695(3) 0.5616(10)
H118_2 H 0.1242 0.7439 0.5609
H119_2 H 0.1606 0.7245 0.5633
H120_2 H 0.1369 0.6546 0.5844
Cd16_2 Cd 0.32900(2) 0.87876(7) 0.97737(3)
O39_2 O 0.17782(17) 0.2151(6) 0.4708(2)
O41_2 O 0.18945(18) 0.0912(6) 0.5086(3)
O28 O 0.1355(2) 0.8707(8) 0.4745(3)
C114 C 0.0797(4) 0.8516(14) 0.4238(5)
H73 H 0.0942 0.8017 0.4243
C116 C 0.0293(4) 0.9183(12) 0.4116(5)
C117 C 0.0877(3) 0.9345(12) 0.4437(4)
C119 C 0.1225(4) 0.9435(12) 0.4645(4)
C120 C 0.0524(5) 0.8366(16) 0.4035(6)
O40_2 O 0.2338(2) 0.8849(8) 0.5212(3)
O42_2 O 0.2017(2) 0.7677(7) 0.5008(3)
H121 H 0.0476766 0.775353 0.384282
C95_2 C 0.9313(3) 0.6547(11) 0.9397(4)
C104_2 C 0.9894(3) 0.6160(11) 0.9037(4)
C108_2 C 0.9361(3) 0.5762(11) 0.9238(4)
H69_2 H 0.9205 0.5296 0.9255
C110_2 C 0.8561(4) 0.0493(14) 0.1904(6)
H71_2 H 0.8467 0.0868 0.2100
C118_2 C 0.9639(3) 0.5541(12) 0.9032(4)
H75_2 H 0.9653 0.4971 0.8890
C127_2 C 0.9561(4) 0.7227(13) 0.9405(5)
H79_2 H 0.9528 0.7826 0.9519
C135_2 C 0.8475(4) 0.0566(12) 0.1503(5)
H92_2 H 0.8307 0.0954 0.1430
C140_2 C 0.9854(4) 0.6991(12) 0.9241(4)
C144_2 C 0.8643(4) 0.0050(12) 0.1206(5)
C146_2 C 0.9014(3) 0.6795(11) 0.9619(4)
C149_2 C 0.8552(5) 0.0128(16) 0.0732(6)
O25_2 O 0.7338(2) 0.6151(8) 0.5212(3)
O29_2 O 0.7017(2) 0.7323(7) 0.5008(3)
C80_2 C 0.8996(3) 0.9324(9) 0.3177(4)
C84_2 C 0.9309(3) 0.9264(10) 0.3289(4)
C88_2 C 0.9383(3) 0.9097(10) 0.3707(4)
C90_2 C 0.8833(3) 0.9118(10) 0.3884(4)
C91_2 C 0.9136(3) 0.8985(9) 0.4004(4)
C94_2 C 0.8926(3) 0.9497(10) 0.2786(4)
C101_2 C 0.8760(3) 0.9247(9) 0.3466(4)
C105_2 C 0.9215(3) 0.8828(10) 0.4428(3)
H65_2 H 0.9424 0.9062 0.4479
H66_2 H 0.9206 0.8156 0.4486
H67_2 H 0.9067 0.9163 0.4593
C107_2 C 0.7542(3) 0.8346(10) 0.4777(4)
H68_2 H 0.7344 0.8636 0.4770
C111_2 C 0.7872(3) 0.7162(10) 0.4993(4)
H72_2 H 0.7901 0.6622 0.5151
C113_2 C 0.8107(3) 0.8394(10) 0.4597(4)
C115_2 C 0.7812(3) 0.8822(12) 0.4599(4)
H74_2 H 0.7787 0.9423 0.4484
C125_2 C 0.9705(3) 0.9101(10) 0.3828(4)
C126_2 C 0.8794(3) 0.9835(10) 0.1996(4)
C129_2 C 0.9578(3) 0.9356(11) 0.2983(4)
H81_2 H 0.9492 0.9394 0.2719
H82_2 H 0.9714 0.8807 0.3002
H83_2 H 0.9698 0.9924 0.3038
C130_2 C 0.8365(3) 0.8731(10) 0.4383(4)
C133_2 C 0.8407(3) 0.9350(10) 0.3343(4)
H88_2 H 0.8333 0.8752 0.3238
H89_2 H 0.8387 0.9839 0.3143
H90_2 H 0.8285 0.9522 0.3573
C134_2 C 0.8136(3) 0.7583(11) 0.4813(4)
H91_2 H 0.8333 0.7299 0.4842
C136_2 C 0.8846(4) 0.9612(12) 0.2457(5)
C137_2 C 0.7577(3) 0.7506(10) 0.4949(3)
C141_2 C 0.9970(4) 0.9091(12) 0.3930(4)
C142_2 C 0.8582(3) 0.8910(11) 0.4148(4)
C145_2 C 0.7293(3) 0.6944(10) 0.5032(4)
C148_2 C 0.8881(4) 0.9470(13) 0.1318(5)
H98_2 H 0.9001 0.9161 0.1124
C150_2 C 0.8948(4) 0.9330(12) 0.1719(5)
H99_2 H 0.9099 0.8885 0.1795
O26_3 O 0.6338(2) 0.4746(7) 0.4656(3)
O28_2 O 0.6355(2) 0.6293(8) 0.4745(3)
C80_3 C 0.3996(3) 0.5676(9) 0.3177(4)
O30_3 O 0.6394(2) 0.2529(8) 0.5645(3)
O31_3 O 0.6638(2) 0.1190(7) 0.5441(3)
C84_3 C 0.4309(3) 0.5736(10) 0.3289(4)
C88_3 C 0.4383(3) 0.5903(10) 0.3707(4)
C89_3 C 0.6286(3) 0.0412(10) 0.6829(4)
C90_3 C 0.3833(3) 0.5882(10) 0.3884(4)
C91_3 C 0.4136(3) 0.6015(9) 0.4004(4)
C92_3 C 0.6492(3) 0.1694(10) 0.5707(4)
C94_3 C 0.3926(3) 0.5503(10) 0.2786(4)
C98_3 C 0.5395(3) 0.4963(10) 0.4252(4)
H62_3 H 0.5263 0.4434 0.4232
C101_3 C 0.3760(3) 0.5753(9) 0.3466(4)
C105_3 C 0.4215(3) 0.6172(10) 0.4428(3)
H65_3 H 0.4424 0.5938 0.4479
H66_3 H 0.4206 0.6844 0.4486
H67_3 H 0.4067 0.5837 0.4593
C107_3 C 0.2542(3) 0.6654(10) 0.4777(4)
H68_3 H 0.2344 0.6364 0.4770
C109_3 C 0.6534(3) 0.0367(11) 0.6192(4)
H70_3 H 0.6661 0.0052 0.6007
C110_3 C 0.3561(4) 0.4507(14) 0.1904(6)
H71_3 H 0.3467 0.4132 0.2100
C111_3 C 0.2872(3) 0.7838(10) 0.4993(4)
H72_3 H 0.2901 0.8378 0.5151
C113_3 C 0.3107(3) 0.6606(10) 0.4597(4)
C114_2 C 0.5797(4) 0.6484(14) 0.4238(5)
H73_2 H 0.5942 0.6983 0.4243
C115_3 C 0.2812(3) 0.6178(12) 0.4599(4)
H74_3 H 0.2787 0.5577 0.4484
C116_2 C 0.5293(4) 0.5817(12) 0.4116(5)
C117_2 C 0.5877(3) 0.5655(12) 0.4437(4)
H75_3 H 0.4653 0.0029 0.8890
C119_2 C 0.6225(4) 0.5565(12) 0.4645(4)
C120_2 C 0.5524(5) 0.6634(16) 0.4035(6)
C125_3 C 0.4705(3) 0.5899(10) 0.3828(4)
C126_3 C 0.3794(3) 0.5165(10) 0.1996(4)
C128_3 C 0.6253(3) 0.1812(12) 0.6368(4)
H80_3 H 0.6183 0.2429 0.6313
C129_3 C 0.4578(3) 0.5644(11) 0.2983(4)
H81_3 H 0.4492 0.5606 0.2719
H82_3 H 0.4714 0.6193 0.3002
H83_3 H 0.4698 0.5076 0.3038
C130_3 C 0.3365(3) 0.6269(10) 0.4383(4)
C132_3 C 0.5688(3) 0.4851(11) 0.4417(4)
H87_3 H 0.5756 0.4260 0.4512
C133_3 C 0.3407(3) 0.5650(10) 0.3343(4)
H88_3 H 0.3333 0.6248 0.3238
H89_3 H 0.3387 0.5161 0.3143
H90_3 H 0.3285 0.5478 0.3573
C134_3 C 0.3136(3) 0.7417(11) 0.4813(4)
H91_3 H 0.3333 0.7701 0.4842
C135_3 C 0.3475(4) 0.4434(12) 0.1503(5)
H92_3 H 0.3307 0.4046 0.1430
C136_3 C 0.3846(4) 0.5388(12) 0.2457(5)
C137_3 C 0.2577(3) 0.7494(10) 0.4949(3)
C138_3 C 0.6192(4) 0.1334(13) 0.6752(5)
H93_3 H 0.6085 0.1670 0.6950
C139_3 C 0.6220(3) 0.0002(11) 0.7213(4)
C141_3 C 0.4970(4) 0.5909(12) 0.3930(4)
C142_3 C 0.3582(3) 0.6090(11) 0.4148(4)
C143_3 C 0.6423(3) 0.1279(10) 0.6097(4)
C144_3 C 0.3643(4) 0.4950(12) 0.1206(5)
C145_3 C 0.2293(3) 0.8056(10) 0.5032(4)
H95_3 H 0.6725 0.0221 0.8026
C148_3 C 0.3881(4) 0.5530(13) 0.1318(5)
H98_3 H 0.4001 0.5839 0.1124
O34_3 O 0.6855(2) 0.0967(7) 0.4108(3)
O35_3 O 0.7229(2) 0.1125(7) 0.4912(3)
O37_2 O 0.3359(3) 0.4326(11) 0.0667(4)
C149_3 C 0.3552(5) 0.4872(16) 0.0732(6)
C150_3 C 0.3948(4) 0.5670(12) 0.1719(5)
H99_3 H 0.4099 0.6115 0.1795
N3_3 N 0.7167(3) 0.0310(10) 0.3629(4)
N4_3 N 0.7619(3) 0.0758(10) 0.5316(4)
C151_3 C 0.7349(3) 0.0712(10) 0.5205(4)
H100_3 H 0.7215 0.0326 0.5355
C152_3 C 0.7765(4) 0.0110(14) 0.5660(5)
H101_3 H 0.7720 0.0393 0.5915
H103_3 H 0.7989 0.0064 0.5625
C153_3 C 0.7844(4) 0.1474(13) 0.5158(5)
H104_3 H 0.7869 0.1383 0.4876
H105_3 H 0.7764 0.2107 0.5208
H106_3 H 0.8044 0.1399 0.5288
C154_3 C 0.7080(4) 0.0478(13) 0.4022(5)
H107_3 H 0.7199 0.0205 0.4226
C156_3 C 0.6929(6) 0.063(2) 0.3345(8)
H111_3 H 0.6723 0.0488 0.3448
H112_3 H 0.6948 0.1312 0.3307
H113_3 H 0.6959 0.0312 0.3094
O38_2 O 0.3735(3) 0.5287(11) 0.0520(4)
O43_2 O 0.6206(2) 0.1246(7) 0.4582(3)
O44_2 O 0.5998(2) 0.2593(8) 0.4777(3)
O45_2 O 0.6641(3) 0.5674(11) 0.5667(4)
O46_2 O 0.6265(3) 0.4713(11) 0.5520(4)
H121_2 H 0.547677 0.724647 0.384282
H77_3 H 0.7510 0.9463 0.0055
C79_3 C 0.6012(3) 0.9116(10) 0.8777(4)
C81_3 C 0.8025(3) 0.8501(10) 0.9834(4)
C82_3 C 0.6325(3) 0.9214(9) 0.8606(3)
C83_3 C 0.7727(2) 0.8529(9) 0.9638(3)
C85_3 C 0.5754(3) 0.9169(9) 0.8528(3)
C86_3 C 0.5446(3) 0.9099(10) 0.8689(4)
C87_3 C 0.6599(3) 0.9056(10) 0.8863(4)
C93_3 C 0.6108(3) 0.9517(9) 0.7965(3)
C95_3 C 0.4313(3) 0.8453(11) 0.9397(4)
C96_3 C 0.6142(3) 0.9748(10) 0.7544(4)
C97_3 C 0.5509(3) 0.9473(11) 0.7852(4)
H59_3 H 0.5430 0.8840 0.7806
H60_3 H 0.5349 0.9856 0.7976
H61_3 H 0.5569 0.9758 0.7602
C99_3 C 0.7641(3) 0.8052(10) 0.9297(4)
H63_3 H 0.7783 0.7630 0.9180
C100_3 C 0.6837(3) 0.8889(10) 0.9057(4)
C102_3 C 0.7128(3) 0.8801(10) 0.9259(4)
C103_3 C 0.7196(3) 0.9250(11) 0.9631(4)
H64_3 H 0.7041 0.9628 0.9750
C104_3 C 0.4894(3) 0.8840(11) 0.9037(4)
C106_3 C 0.5800(3) 0.9419(11) 0.8130(4)
C108_3 C 0.4361(3) 0.9238(11) 0.9238(4)
H69_3 H 0.4205 0.9704 0.9255
C112_3 C 0.5183(3) 0.9035(10) 0.8823(4)
C118_3 C 0.4639(3) 0.9459(12) 0.9032(4)
C121_3 C 0.7347(3) 0.8182(10) 0.9122(4)
H76_3 H 0.7298 0.7820 0.8897
C122_3 C 0.6364(2) 0.9405(8) 0.8204(3)
C123_3 C 0.7473(3) 0.9148(11) 0.9815(4)
C124_3 C 0.6464(3) 0.9909(12) 0.6548(4)
H78_3 H 0.6533 0.9288 0.6598
C127_3 C 0.4561(4) 0.7773(13) 0.9405(5)
H79_3 H 0.4528 0.7174 0.9519
C131_3 C 0.5987(3) 0.8920(11) 0.9222(4)
H84_3 H 0.5886 0.8313 0.9264
H85_3 H 0.6194 0.8906 0.9338
H86_3 H 0.5864 0.9416 0.9347
C140_3 C 0.4854(4) 0.8009(12) 0.9241(4)
H94_3 H 0.5023 0.7592 0.9272
C146_3 C 0.4014(3) 0.8205(11) 0.9619(4)
C147_3 C 0.6682(3) 0.9548(12) 0.8047(5)
H96_3 H 0.6832 0.9259 0.8225
H97_3 H 0.6699 0.9257 0.7788
O32_2 O 0.3794(2) 0.8754(7) 0.9582(3)
O33_2 O 0.4002(2) 0.7407(8) 0.9777(3)
O36_3 O 0.6693(3) 0.9590(9) 0.4847(4)
H102_3 H 0.7673 0.9482 0.5648
C155_3 C 0.7502(6) 0.9690(19) 0.3575(7)
H108_3 H 0.7615 0.9926 0.3347
H109_3 H 0.7629 0.9764 0.3811
H110_3 H 0.7453 0.9025 0.3537
N5_3 N 0.6380(4) 0.8727(13) 0.5184(5)
C157_3 C 0.6110(5) 0.8740(17) 0.4951(6)
H114_3 H 0.5975 0.9254 0.5036
H115_3 H 0.6167 0.8833 0.4676
H116_3 H 0.6000 0.8143 0.4979
C158_3 C 0.6623(6) 0.9034(18) 0.5160(7)
H117_3 H 0.6773 0.8905 0.5355
C159_3 C 0.6402(8) 0.805(3) 0.5616(10)
H118_3 H 0.6242 0.7561 0.5609
H119_3 H 0.6606 0.7755 0.5633
H120_3 H 0.6369 0.8454 0.5844
C79_4 C 0.3988(3) 0.0884(10) 0.3777(4)
C81_4 C 0.1975(3) 0.1499(10) 0.4834(4)
C82_4 C 0.3675(3) 0.0786(9) 0.3606(3)
C83_4 C 0.2273(2) 0.1471(9) 0.4638(3)
C85_4 C 0.4246(3) 0.0831(9) 0.3528(3)
C86_4 C 0.4554(3) 0.0901(10) 0.3689(4)
C87_4 C 0.3401(3) 0.0944(10) 0.3863(4)
C93_4 C 0.3892(3) 0.0483(9) 0.2965(3)
C95_4 C 0.5687(3) 0.1547(11) 0.4397(4)
C96_4 C 0.3858(3) 0.0252(10) 0.2544(4)
C97_4 C 0.4491(3) 0.0527(11) 0.2852(4)
H59_4 H 0.4570 0.1160 0.2806
H60_4 H 0.4651 0.0144 0.2976
H61_4 H 0.4431 0.0242 0.2602
C99_4 C 0.2359(3) 0.1948(10) 0.4297(4)
H63_4 H 0.2217 0.2370 0.4180
C100_4 C 0.3163(3) 0.1111(10) 0.4057(4)
C102_4 C 0.2872(3) 0.1199(10) 0.4259(4)
C103_4 C 0.2804(3) 0.0750(11) 0.4631(4)
H64_4 H 0.2959 0.0372 0.4750
C104_4 C 0.5106(3) 0.1160(11) 0.4037(4)
C106_4 C 0.4200(3) 0.0581(11) 0.3130(4)
C108_4 C 0.5639(3) 0.0762(11) 0.4238(4)
H69_4 H 0.5795 0.0296 0.4255
C112_4 C 0.4817(3) 0.0965(10) 0.3823(4)
C118_4 C 0.5361(3) 0.0541(12) 0.4032(4)
C121_4 C 0.2653(3) 0.1818(10) 0.4122(4)
H76_4 H 0.2702 0.2180 0.3897
C122_4 C 0.3636(2) 0.0595(8) 0.3204(3)
C123_4 C 0.2527(3) 0.0852(11) 0.4815(4)
H77_4 H 0.2490 0.0537 0.5055
C124_4 C 0.3536(3) 0.0091(12) 0.1548(4)
H78_4 H 0.3467 0.0712 0.1598
C127_4 C 0.5439(4) 0.2227(13) 0.4405(5)
H79_4 H 0.5472 0.2826 0.4519
C131_4 C 0.4013(3) 0.1080(11) 0.4222(4)
H84_4 H 0.4114 0.1687 0.4264
H85_4 H 0.3806 0.1094 0.4338
H86_4 H 0.4136 0.0584 0.4347
C140_4 C 0.5146(4) 0.1991(12) 0.4241(4)
H94_4 H 0.4977 0.2408 0.4272
C146_4 C 0.5986(3) 0.1795(11) 0.4619(4)
C147_4 C 0.3318(3) 0.0452(12) 0.3047(5)
H96_4 H 0.3168 0.0741 0.3225
H97_4 H 0.3301 0.0743 0.2788
H102_4 H 0.2327 0.0518 0.0648
N5_4 N 0.3620(4) 0.1273(13) 0.0184(5)
H114_4 H 0.4025 0.0746 0.0036
C158_4 C 0.3377(6) 0.0966(18) 0.0160(7)
H117_4 H 0.3227 0.1095 0.0355
C159_4 C 0.3598(8) 0.195(3) 0.0616(10)
H118_4 H 0.3758 0.2439 0.0609
H119_4 H 0.3394 0.2245 0.0633
H120_4 H 0.3631 0.1546 0.0844
O30_4 O 0.3606(2) 0.7471(8) 0.0645(3)
O31_4 O 0.3362(2) 0.8810(7) 0.0441(3)
C89_4 C 0.3714(3) 0.9588(10) 0.1829(4)
C92_4 C 0.3508(3) 0.8306(10) 0.0707(4)
C109_4 C 0.3466(3) 0.9633(11) 0.1192(4)
H70_4 H 0.3339 0.9948 0.1007
H72_4 H 0.7099 0.1622 0.0151
H75_4 H 0.5347 0.9971 0.3890
C128_4 C 0.3747(3) 0.8188(12) 0.1368(4)
H80_4 H 0.3817 0.7571 0.1313
C138_4 C 0.3808(4) 0.8666(13) 0.1752(5)
H93_4 H 0.3915 0.8330 0.1950
C139_4 C 0.3780(3) 0.9998(11) 0.2213(4)
C143_4 C 0.3577(3) 0.8721(10) 0.1097(4)
C145_4 C 0.7707(3) 0.1944(10) 0.0032(4)
H95_4 H 0.3275 0.9779 0.3026
N4_4 N 0.2381(3) 0.9242(10) 0.0316(4)
C151_4 C 0.2651(3) 0.9288(10) 0.0205(4)
H100_4 H 0.2785 0.9674 0.0355
C152_4 C 0.2235(4) 0.9890(14) 0.0660(5)
H101_4 H 0.2280 0.9607 0.0915
H103_4 H 0.2011 0.9936 0.0625
C153_4 C 0.2156(4) 0.8526(13) 0.0158(5)
H105_4 H 0.2236 0.7893 0.0208
H106_4 H 0.1956 0.8601 0.0288
O26_4 O 0.3662(2) 0.5254(7) 0.9656(3)
O28_3 O 0.3645(2) 0.3707(8) 0.9745(3)
C80_4 C 0.6004(3) 0.4324(9) 0.8177(4)
C84_4 C 0.5691(3) 0.4264(10) 0.8289(4)
C88_4 C 0.5617(3) 0.4097(10) 0.8707(4)
C90_4 C 0.6167(3) 0.4118(10) 0.8884(4)
C91_4 C 0.5864(3) 0.3985(9) 0.9004(4)
C94_4 C 0.6074(3) 0.4497(10) 0.7786(4)
C98_4 C 0.4605(3) 0.5037(10) 0.9252(4)
H62_4 H 0.4737 0.5566 0.9232
C101_4 C 0.6240(3) 0.4247(9) 0.8466(4)
C105_4 C 0.5785(3) 0.3828(10) 0.9428(3)
H65_4 H 0.5576 0.4062 0.9479
H66_4 H 0.5794 0.3156 0.9486
H67_4 H 0.5933 0.4163 0.9593
C107_4 C 0.7458(3) 0.3346(10) 0.9777(4)
H68_4 H 0.7656 0.3636 0.9770
C110_4 C 0.6439(4) 0.5493(14) 0.6904(6)
H71_4 H 0.6533 0.5868 0.7100
C111_4 C 0.7128(3) 0.2162(10) 0.9993(4)
C113_4 C 0.6893(3) 0.3394(10) 0.9597(4)
C114_3 C 0.4203(4) 0.3516(14) 0.9238(5)
H73_3 H 0.4058 0.3017 0.9243
C115_4 C 0.7188(3) 0.3822(12) 0.9599(4)
H74_4 H 0.7213 0.4423 0.9484
C116_3 C 0.4707(4) 0.4183(12) 0.9116(5)
C117_3 C 0.4123(3) 0.4345(12) 0.9437(4)
C119_3 C 0.3775(4) 0.4435(12) 0.9645(4)
C120_3 C 0.4476(5) 0.3366(16) 0.9035(6)
C125_4 C 0.5295(3) 0.4101(10) 0.8828(4)
C126_4 C 0.6206(3) 0.4835(10) 0.6996(4)
C129_4 C 0.5422(3) 0.4356(11) 0.7983(4)
H81_4 H 0.5508 0.4394 0.7719
H82_4 H 0.5286 0.3807 0.8002
H83_4 H 0.5302 0.4924 0.8038
C130_4 C 0.6635(3) 0.3731(10) 0.9383(4)
C132_4 C 0.4312(3) 0.5149(11) 0.9417(4)
H87_4 H 0.4244 0.5740 0.9512
C133_4 C 0.6593(3) 0.4350(10) 0.8343(4)
H88_4 H 0.6667 0.3752 0.8238
H89_4 H 0.6613 0.4839 0.8143
H90_4 H 0.6715 0.4522 0.8573
C134_4 C 0.6864(3) 0.2583(11) 0.9813(4)
H91_4 H 0.6667 0.2299 0.9842
C135_4 C 0.6525(4) 0.5566(12) 0.6503(5)
H92_4 H 0.6693 0.5954 0.6430
C136_4 C 0.6154(4) 0.4612(12) 0.7457(5)
C137_4 C 0.7423(3) 0.2506(10) 0.9949(3)
C141_4 C 0.5030(4) 0.4091(12) 0.8930(4)
C142_4 C 0.6418(3) 0.3910(11) 0.9148(4)
C144_4 C 0.6357(4) 0.5050(12) 0.6206(5)
C148_4 C 0.6119(4) 0.4470(13) 0.6318(5)
H98_4 H 0.5999 0.4161 0.6124
O34_4 O 0.3145(2) 0.9033(7) 0.9108(3)
O35_4 O 0.2771(2) 0.8875(7) 0.9912(3)
C149_4 C 0.6448(5) 0.5128(16) 0.5732(6)
C150_4 C 0.6052(4) 0.4330(12) 0.6719(5)
H99_4 H 0.5901 0.3885 0.6795
N3_4 N 0.2833(3) 0.9690(10) 0.8629(4)
H104_4 H 0.2131 0.8617 0.9876
C154_4 C 0.2920(4) 0.9522(13) 0.9022(5)
H107_4 H 0.2801 0.9795 0.9226
C156_4 C 0.3071(6) 0.937(2) 0.8345(8)
H111_4 H 0.3277 0.9512 0.8448
H112_4 H 0.3052 0.8688 0.8307
H113_4 H 0.3041 0.9688 0.8094
H121_3 H 0.452323 0.275353 0.884282
O28_4 O 0.8645(2) 0.1293(8) 0.9745(3)
C114_4 C 0.9203(4) 0.1484(14) 0.9238(5)
H73_4 H 0.9058 0.1983 0.9243
C116_4 C 0.9707(4) 0.0817(12) 0.9116(5)
C117_4 C 0.9123(3) 0.0655(12) 0.9437(4)
C119_4 C 0.8775(4) 0.0565(12) 0.9645(4)
C120_4 C 0.9476(5) 0.1634(16) 0.9035(6)
H121_4 H 0.952323 0.224647 0.884282
O36_4 O 0.3307(3) 0.0410(9) 0.9847(4)
C155_4 C 0.2498(6) 0.0310(19) 0.8575(7)
H108_4 H 0.2385 0.0074 0.8347
H109_4 H 0.2371 0.0236 0.8811
H110_4 H 0.2547 0.0975 0.8537
C157_4 C 0.3890(5) 0.1260(17) 0.9951(6)
H115_4 H 0.3833 0.1167 0.9676
H116_4 H 0.4000 0.1857 0.9979
loop_
_geom_bond_atom_site_label_1
_geom_bond_atom_site_label_2
_geom_bond_site_symmetry_1
_geom_bond_site_symmetry_2
C30 C9 1_555 1_555
H18 C30 1_555 1_555
C31 C9 1_555 1_555
C32 C33 1_555 1_555
C33 C31 1_555 1_555
H20 C33 1_555 1_555
C34 C30 1_555 1_555
H21 C34 1_555 1_555
O3 C35 1_555 1_555
C35 C32 1_555 1_555
O5 C35 1_555 1_555
Cd5 O5 1_555 1_555
Cd7 O3 1_555 1_555
C32 C34 1_555 1_555
O11 C61 1_555 1_555
O12 C61 1_555 1_555
C49 H38 1_555 1_555
C54 C49 1_555 1_555
H43 C54 1_555 1_555
C61 C62 1_555 1_555
C62 C54 1_555 1_555
C65 C49 1_555 1_555
C69 C62 1_555 1_555
H53 C69 1_555 1_555
C77 C65 1_555 1_555
Cd5 O11 1_555 1_555
Cd10 O12 1_555 1_555
C69 C77 1_555 1_555
Cd3 O13 1_555 1_555
C44 C53 1_555 1_555
C45 C48 1_555 1_555
C46 C47 1_555 1_555
C47 C53 1_555 1_555
C48 C57 1_555 1_555
C50 H39 1_555 1_555
H40 C50 1_555 1_555
H41 C50 1_555 1_555
C51 H42 1_555 1_555
C53 C50 1_555 1_555
C56 C51 1_555 1_555
C57 C51 1_555 1_555
H44 C57 1_555 1_555
C58 C46 1_555 1_555
C59 C56 1_555 1_555
C60 C44 1_555 1_555
C63 C60 1_555 1_555
H45 C63 1_555 1_555
H46 C63 1_555 1_555
H47 C63 1_555 1_555
C64 C44 1_555 1_555
C66 C48 1_555 1_555
H48 C66 1_555 1_555
C68 C46 1_555 1_555
H50 C68 1_555 1_555
H51 C68 1_555 1_555
H52 C68 1_555 1_555
C71 C47 1_555 1_555
C74 C56 1_555 1_555
H55 C74 1_555 1_555
O13 C45 1_555 1_555
O14 Cd3 1_555 1_555
C78 C64 1_555 1_555
O23 Cd3 1_555 1_555
C45 O14 1_555 1_555
C52 C58 1_555 1_555
C58 C60 1_555 1_555
C59 C71 1_555 1_555
C66 C74 1_555 1_555
C1 H1 1_555 1_555
C2 C5 1_555 1_555
C3 C1 1_555 1_555
C4 C5 1_555 1_555
C5 C7 1_555 1_555
C6 C10 1_555 1_555
C7 H2 1_555 1_555
H3 C7 1_555 1_555
H4 C7 1_555 1_555
C8 C4 1_555 1_555
C10 C2 1_555 1_555
C11 C1 1_555 1_555
H5 C11 1_555 1_555
C12 C2 1_555 1_555
C13 C10 1_555 1_555
H6 C13 1_555 1_555
H7 C13 1_555 1_555
H8 C13 1_555 1_555
C14 H9 1_555 1_555
H10 C14 1_555 1_555
H11 C14 1_555 1_555
C16 C4 1_555 1_555
C17 C11 1_555 1_555
C19 C3 1_555 1_555
H13 C19 1_555 1_555
C20 C8 1_555 1_555
C21 C17 1_555 1_555
H14 C21 1_555 1_555
C22 C6 1_555 1_555
C23 H15 1_555 1_555
C25 C23 1_555 1_555
C26 C12 1_555 1_555
C27 C17 1_555 1_555
H17 C29 1_555 1_555
O4 C36 1_555 1_555
C36 C3 1_555 1_555
O7 C36 1_555 1_555
H22 O9 1_555 1_555
H23 O9 1_555 1_555
N2 C39 1_555 1_555
H28 C39 1_555 1_555
C40 N2 1_555 1_555
H29 C40 1_555 1_555
H30 C40 1_555 1_555
H31 C40 1_555 1_555
Cd6 O4 1_555 1_555
Cd8 O7 1_555 1_555
C6 C16 1_555 1_555
C14 C16 1_555 1_555
C19 C21 1_555 1_555
C22 C27 1_555 1_555
C23 C29 1_555 1_555
C25 C26 1_555 1_555
O7 Cd6 1_555 1_555
Cd1 O2 1_555 1_555
Cd2 O1 1_555 1_555
O1 C24 1_555 1_555
C15 H12 1_555 1_555
C18 C15 1_555 1_555
C24 C18 1_555 1_555
C28 C15 1_555 1_555
H16 C28 1_555 1_555
O2 C24 1_555 1_555
O6 Cd2 1_555 1_555
O8 Cd2 1_555 1_555
N1 C37 1_555 1_555
C37 O6 1_555 1_555
H24 C37 1_555 1_555
C38 N1 1_555 1_555
H25 C38 1_555 1_555
H26 C38 1_555 1_555
H27 C38 1_555 1_555
H32 C41 1_555 1_555
H34 C41 1_555 1_555
C42 N1 1_555 1_555
H35 C42 1_555 1_555
H36 C42 1_555 1_555
H37 C42 1_555 1_555
O10 Cd1 1_555 1_555
C43 O10 1_555 1_555
C55 C73 1_555 1_555
C67 H49 1_555 1_555
C70 C67 1_555 1_555
H54 C70 1_555 1_555
C72 C43 1_555 1_555
C73 C70 1_555 1_555
C75 C73 1_555 1_555
H56 C75 1_555 1_555
C76 C72 1_555 1_555
H57 C76 1_555 1_555
O15 C43 1_555 1_555
O16 Cd2 1_555 1_555
O18 Cd1 1_555 1_555
O19 Cd1 1_555 1_555
O20 Cd1 1_555 1_555
Cd11 O15 1_555 1_555
O21 Cd1 1_555 1_555
Cd2 O20 1_555 1_555
C67 C72 1_555 1_555
C75 C76 1_555 1_555
O18 Cd11 1_555 1_555
Cd5 O2_2 1_555 1_555
Cd7 O1_2 1_555 1_555
O1_2 C24_2 1_555 1_555
C15_2 H12_2 1_555 1_555
C18_2 C15_2 1_555 1_555
C24_2 C18_2 1_555 1_555
C28_2 C15_2 1_555 1_555
H16_2 C28_2 1_555 1_555
O2_2 C24_2 1_555 1_555
O6_2 Cd7 1_555 1_555
O8_2 Cd7 1_555 1_555
N1_2 C37_2 1_555 1_555
C37_2 O6_2 1_555 1_555
H24_2 C37_2 1_555 1_555
C38_2 N1_2 1_555 1_555
H25_2 C38_2 1_555 1_555
H26_2 C38_2 1_555 1_555
H27_2 C38_2 1_555 1_555
H32_2 C41_2 1_555 1_555
H34_2 C41_2 1_555 1_555
C42_2 N1_2 1_555 1_555
H35_2 C42_2 1_555 1_555
H36_2 C42_2 1_555 1_555
H37_2 C42_2 1_555 1_555
O10_2 Cd5 1_555 1_555
C43_2 O10_2 1_555 1_555
C55_2 C73_2 1_555 1_555
C67_2 H49_2 1_555 1_555
C70_2 C67_2 1_555 1_555
H54_2 C70_2 1_555 1_555
C72_2 C43_2 1_555 1_555
C73_2 C70_2 1_555 1_555
C75_2 C73_2 1_555 1_555
H56_2 C75_2 1_555 1_555
C76_2 C72_2 1_555 1_555
H57_2 C76_2 1_555 1_555
O15_2 C43_2 1_555 1_555
O18_2 Cd5 1_555 1_555
O20_2 Cd5 1_555 1_555
Cd10 O15_2 1_555 1_555
Cd7 O20_2 1_555 1_555
C67_2 C72_2 1_555 1_555
C75_2 C76_2 1_555 1_555
O18_2 Cd10 1_555 1_555
C1_2 H1_2 1_555 1_555
C2_2 C5_2 1_555 1_555
C3_2 C1_2 1_555 1_555
C4_2 C5_2 1_555 1_555
C5_2 C7_2 1_555 1_555
C6_2 C10_2 1_555 1_555
C7_2 H2_2 1_555 1_555
H3_2 C7_2 1_555 1_555
H4_2 C7_2 1_555 1_555
C8_2 C4_2 1_555 1_555
C10_2 C2_2 1_555 1_555
C11_2 C1_2 1_555 1_555
H5_2 C11_2 1_555 1_555
C12_2 C2_2 1_555 1_555
C13_2 C10_2 1_555 1_555
H6_2 C13_2 1_555 1_555
H7_2 C13_2 1_555 1_555
H8_2 C13_2 1_555 1_555
C14_2 H9_2 1_555 1_555
H10_2 C14_2 1_555 1_555
H11_2 C14_2 1_555 1_555
C16_2 C4_2 1_555 1_555
C17_2 C11_2 1_555 1_555
C19_2 C3_2 1_555 1_555
H13_2 C19_2 1_555 1_555
C20_2 C8_2 1_555 1_555
C21_2 C17_2 1_555 1_555
H14_2 C21_2 1_555 1_555
C22_2 C6_2 1_555 1_555
C27_2 C17_2 1_555 1_555
O17 C36_2 1_555 1_555
C36_2 C3_2 1_555 1_555
O7_2 C36_2 1_555 1_555
Cd6_2 O17 1_555 1_555
Cd8_2 O7_2 1_555 1_555
C6_2 C16_2 1_555 1_555
C14_2 C16_2 1_555 1_555
C19_2 C21_2 1_555 1_555
C22_2 C27_2 1_555 1_555
O7_2 Cd6_2 1_555 1_555
Cd9 O13_2 1_555 1_555
O21 C61_2 1_555 1_555
O12_2 C61_2 1_555 1_555
C44_2 C53_2 1_555 1_555
C45_2 C48_2 1_555 1_555
C46_2 C47_2 1_555 1_555
C47_2 C53_2 1_555 1_555
C48_2 C57_2 1_555 1_555
C49_2 H38_2 1_555 1_555
C50_2 H39_2 1_555 1_555
H40_2 C50_2 1_555 1_555
H41_2 C50_2 1_555 1_555
C51_2 H42_2 1_555 1_555
C53_2 C50_2 1_555 1_555
C54_2 C49_2 1_555 1_555
H43_2 C54_2 1_555 1_555
C56_2 C51_2 1_555 1_555
C57_2 C51_2 1_555 1_555
H44_2 C57_2 1_555 1_555
C58_2 C46_2 1_555 1_555
C59_2 C56_2 1_555 1_555
C60_2 C44_2 1_555 1_555
C61_2 C62_2 1_555 1_555
C62_2 C54_2 1_555 1_555
C63_2 C60_2 1_555 1_555
H45_2 C63_2 1_555 1_555
H46_2 C63_2 1_555 1_555
H47_2 C63_2 1_555 1_555
C64_2 C44_2 1_555 1_555
C65_2 C49_2 1_555 1_555
C66_2 C48_2 1_555 1_555
H48_2 C66_2 1_555 1_555
C68_2 C46_2 1_555 1_555
H50_2 C68_2 1_555 1_555
H51_2 C68_2 1_555 1_555
H52_2 C68_2 1_555 1_555
C69_2 C62_2 1_555 1_555
H53_2 C69_2 1_555 1_555
C71_2 C47_2 1_555 1_555
C74_2 C56_2 1_555 1_555
H55_2 C74_2 1_555 1_555
O13_2 C45_2 1_555 1_555
O14_2 Cd9 1_555 1_555
C77_2 C65_2 1_555 1_555
H58_2 C77_2 1_555 1_555
C78_2 C64_2 1_555 1_555
Cd11 O12_2 1_555 1_555
O23_2 Cd9 1_555 1_555
C45_2 O14_2 1_555 1_555
C52_2 C58_2 1_555 1_555
C58_2 C60_2 1_555 1_555
C59_2 C71_2 1_555 1_555
C65_2 C78_2 1_555 1_555
C66_2 C74_2 1_555 1_555
C69_2 C77_2 1_555 1_555
C30_2 C9_2 1_555 1_555
H18_2 C30_2 1_555 1_555
C31_2 C9_2 1_555 1_555
C32_2 C33_2 1_555 1_555
C33_2 C31_2 1_555 1_555
H20_2 C33_2 1_555 1_555
C34_2 C30_2 1_555 1_555
H21_2 C34_2 1_555 1_555
O16 C35_2 1_555 1_555
C35_2 C32_2 1_555 1_555
O19 C35_2 1_555 1_555
C32_2 C34_2 1_555 1_555
Cd6 O2_3 1_555 1_555
Cd8 O1_3 1_555 1_555
O1_3 C24_3 1_555 1_555
C15_3 H12_3 1_555 1_555
C18_3 C15_3 1_555 1_555
C23_2 H15_2 1_555 1_555
C24_3 C18_3 1_555 1_555
C25_2 C23_2 1_555 1_555
C28_3 C15_3 1_555 1_555
H16_3 C28_3 1_555 1_555
C29_2 C18_3 1_555 1_555
H17_2 C29_2 1_555 1_555
O2_3 C24_3 1_555 1_555
O6_3 Cd8 1_555 1_555
O8_3 Cd8 1_555 1_555
O9_2 Cd8 1_555 1_555
H22_2 O9_2 1_555 1_555
H23_2 O9_2 1_555 1_555
N1_3 C37_3 1_555 1_555
C37_3 O6_3 1_555 1_555
H24_3 C37_3 1_555 1_555
C38_3 N1_3 1_555 1_555
H25_3 C38_3 1_555 1_555
H26_3 C38_3 1_555 1_555
H27_3 C38_3 1_555 1_555
N2_2 C39_2 1_555 1_555
C39_2 O8_3 1_555 1_555
H28_2 C39_2 1_555 1_555
C40_2 N2_2 1_555 1_555
H29_2 C40_2 1_555 1_555
H30_2 C40_2 1_555 1_555
H31_2 C40_2 1_555 1_555
C41_3 N2_2 1_555 1_555
H32_3 C41_3 1_555 1_555
H33_2 C41_3 1_555 1_555
H34_3 C41_3 1_555 1_555
C42_3 N1_3 1_555 1_555
H35_3 C42_3 1_555 1_555
H36_3 C42_3 1_555 1_555
H37_3 C42_3 1_555 1_555
O10_3 Cd6 1_555 1_555
C43_3 O10_3 1_555 1_555
C67_3 H49_3 1_555 1_555
O16_2 Cd8 1_555 1_555
O19_2 Cd6 1_555 1_555
O21_2 Cd6 1_555 1_555
C23_2 C29_2 1_555 1_555
C25_2 C26_2 1_555 1_555
C25_2 C28_3 1_555 1_555
C1_3 H1_3 1_555 1_555
C2_3 C5_3 1_555 1_555
C3_3 C1_3 1_555 1_555
C4_3 C5_3 1_555 1_555
C5_3 C7_3 1_555 1_555
C6_3 C10_3 1_555 1_555
C7_3 H2_3 1_555 1_555
H3_3 C7_3 1_555 1_555
H4_3 C7_3 1_555 1_555
C8_3 C4_3 1_555 1_555
C9_3 C20_3 1_555 1_555
C10_3 C2_3 1_555 1_555
C11_3 C1_3 1_555 1_555
H5_3 C11_3 1_555 1_555
C12_3 C2_3 1_555 1_555
C13_3 C10_3 1_555 1_555
H6_3 C13_3 1_555 1_555
H7_3 C13_3 1_555 1_555
H8_3 C13_3 1_555 1_555
C14_3 H9_3 1_555 1_555
H10_3 C14_3 1_555 1_555
H11_3 C14_3 1_555 1_555
C16_3 C4_3 1_555 1_555
C17_3 C11_3 1_555 1_555
C19_3 C3_3 1_555 1_555
H13_3 C19_3 1_555 1_555
C20_3 C8_3 1_555 1_555
C21_3 C17_3 1_555 1_555
H14_3 C21_3 1_555 1_555
C22_3 C6_3 1_555 1_555
C27_3 C17_3 1_555 1_555
C30_3 C9_3 1_555 1_555
H18_3 C30_3 1_555 1_555
C31_3 C9_3 1_555 1_555
H19_3 C31_3 1_555 1_555
C32_3 C33_3 1_555 1_555
C33_3 C31_3 1_555 1_555
H20_3 C33_3 1_555 1_555
C34_3 C30_3 1_555 1_555
H21_3 C34_3 1_555 1_555
O3_2 C35_3 1_555 1_555
C35_3 C32_3 1_555 1_555
O18 C36_3 1_555 1_555
O5_2 C35_3 1_555 1_555
C36_3 C3_3 1_555 1_555
O20 C36_3 1_555 1_555
Cd6_2 O5_2 1_555 1_555
Cd8_2 O3_2 1_555 1_555
C6_3 C16_3 1_555 1_555
C14_3 C16_3 1_555 1_555
C19_3 C21_3 1_555 1_555
C22_3 C27_3 1_555 1_555
C32_3 C34_3 1_555 1_555
Cd10 O13_3 1_555 1_555
O11_2 C61_3 1_555 1_555
O22 C61_3 1_555 1_555
C44_3 C53_3 1_555 1_555
C45_3 C48_3 1_555 1_555
C46_3 C47_3 1_555 1_555
C47_3 C53_3 1_555 1_555
C48_3 C57_3 1_555 1_555
C49_3 H38_3 1_555 1_555
C50_3 H39_3 1_555 1_555
H40_3 C50_3 1_555 1_555
H41_3 C50_3 1_555 1_555
C51_3 H42_3 1_555 1_555
C52_3 C55_3 1_555 1_555
C53_3 C50_3 1_555 1_555
C54_3 C49_3 1_555 1_555
H43_3 C54_3 1_555 1_555
C55_3 C73_3 1_555 1_555
C56_3 C51_3 1_555 1_555
C57_3 C51_3 1_555 1_555
H44_3 C57_3 1_555 1_555
C58_3 C46_3 1_555 1_555
C59_3 C56_3 1_555 1_555
C60_3 C44_3 1_555 1_555
C61_3 C62_3 1_555 1_555
C62_3 C54_3 1_555 1_555
C63_3 C60_3 1_555 1_555
H45_3 C63_3 1_555 1_555
H46_3 C63_3 1_555 1_555
H47_3 C63_3 1_555 1_555
C64_3 C44_3 1_555 1_555
C65_3 C49_3 1_555 1_555
C66_3 C48_3 1_555 1_555
H48_3 C66_3 1_555 1_555
C68_3 C46_3 1_555 1_555
H50_3 C68_3 1_555 1_555
H51_3 C68_3 1_555 1_555
H52_3 C68_3 1_555 1_555
C69_3 C62_3 1_555 1_555
C71_3 C47_3 1_555 1_555
C73_3 C70_3 1_555 1_555
C74_3 C56_3 1_555 1_555
H55_3 C74_3 1_555 1_555
C75_3 C73_3 1_555 1_555
H56_3 C75_3 1_555 1_555
C76_3 C72_3 1_555 1_555
H57_3 C76_3 1_555 1_555
O13_3 C45_3 1_555 1_555
O14_3 Cd10 1_555 1_555
C77_3 C65_3 1_555 1_555
H58_3 C77_3 1_555 1_555
C78_3 C64_3 1_555 1_555
Cd6_2 O11_2 1_555 1_555
C45_3 O14_3 1_555 1_555
C52_3 C58_3 1_555 1_555
C58_3 C60_3 1_555 1_555
C59_3 C71_3 1_555 1_555
C65_3 C78_3 1_555 1_555
C66_3 C74_3 1_555 1_555
C69_3 C77_3 1_555 1_555
C75_3 C76_3 1_555 1_555
O21_2 C61_4 1_555 1_555
O22_2 C61_4 1_555 1_555
C49_4 H38_4 1_555 1_555
C54_4 C49_4 1_555 1_555
H43_4 C54_4 1_555 1_555
C61_4 C62_4 1_555 1_555
C62_4 C54_4 1_555 1_555
C65_4 C49_4 1_555 1_555
C69_4 C62_4 1_555 1_555
C77_4 C65_4 1_555 1_555
C69_4 C77_4 1_555 1_555
Cd11 O13_4 1_555 1_555
C44_4 C53_4 1_555 1_555
C45_4 C48_4 1_555 1_555
C46_4 C47_4 1_555 1_555
C47_4 C53_4 1_555 1_555
C48_4 C57_4 1_555 1_555
C50_4 H39_4 1_555 1_555
H40_4 C50_4 1_555 1_555
H41_4 C50_4 1_555 1_555
C51_4 H42_4 1_555 1_555
C52_4 C55_4 1_555 1_555
C53_4 C50_4 1_555 1_555
C55_4 C73_4 1_555 1_555
C56_4 C51_4 1_555 1_555
C57_4 C51_4 1_555 1_555
H44_4 C57_4 1_555 1_555
C58_4 C46_4 1_555 1_555
C59_4 C56_4 1_555 1_555
C60_4 C44_4 1_555 1_555
C63_4 C60_4 1_555 1_555
H45_4 C63_4 1_555 1_555
H46_4 C63_4 1_555 1_555
H47_4 C63_4 1_555 1_555
C64_4 C44_4 1_555 1_555
C66_4 C48_4 1_555 1_555
H48_4 C66_4 1_555 1_555
C68_4 C46_4 1_555 1_555
H50_4 C68_4 1_555 1_555
H51_4 C68_4 1_555 1_555
H52_4 C68_4 1_555 1_555
C71_4 C47_4 1_555 1_555
C73_4 C70_4 1_555 1_555
C74_4 C56_4 1_555 1_555
H55_4 C74_4 1_555 1_555
C75_4 C73_4 1_555 1_555
H56_4 C75_4 1_555 1_555
C76_4 C72_4 1_555 1_555
H57_4 C76_4 1_555 1_555
O13_4 C45_4 1_555 1_555
O14_4 Cd11 1_555 1_555
C78_4 C64_4 1_555 1_555
C45_4 O14_4 1_555 1_555
C52_4 C58_4 1_555 1_555
C58_4 C60_4 1_555 1_555
C59_4 C71_4 1_555 1_555
C66_4 C74_4 1_555 1_555
C75_4 C76_4 1_555 1_555
Cd6_2 O2_4 1_555 1_555
Cd8_2 O1_4 1_555 1_555
O1_4 C24_4 1_555 1_555
C1_4 H1_4 1_555 1_555
C2_4 C5_4 1_555 1_555
C3_4 C1_4 1_555 1_555
C4_4 C5_4 1_555 1_555
C5_4 C7_4 1_555 1_555
C6_4 C10_4 1_555 1_555
C7_4 H2_4 1_555 1_555
H3_4 C7_4 1_555 1_555
H4_4 C7_4 1_555 1_555
C8_4 C4_4 1_555 1_555
C9_4 C20_4 1_555 1_555
C10_4 C2_4 1_555 1_555
C11_4 C1_4 1_555 1_555
H5_4 C11_4 1_555 1_555
C12_4 C2_4 1_555 1_555
C13_4 C10_4 1_555 1_555
H6_4 C13_4 1_555 1_555
H7_4 C13_4 1_555 1_555
H8_4 C13_4 1_555 1_555
C14_4 H9_4 1_555 1_555
H10_4 C14_4 1_555 1_555
H11_4 C14_4 1_555 1_555
C15_4 H12_4 1_555 1_555
C16_4 C4_4 1_555 1_555
C17_4 C11_4 1_555 1_555
C18_4 C15_4 1_555 1_555
C19_4 C3_4 1_555 1_555
H13_4 C19_4 1_555 1_555
C20_4 C8_4 1_555 1_555
C21_4 C17_4 1_555 1_555
H14_4 C21_4 1_555 1_555
C22_4 C6_4 1_555 1_555
C23_3 H15_3 1_555 1_555
C24_4 C18_4 1_555 1_555
C25_3 C23_3 1_555 1_555
C26_3 C12_4 1_555 1_555
C27_4 C17_4 1_555 1_555
C28_4 C15_4 1_555 1_555
H16_4 C28_4 1_555 1_555
C29_3 C18_4 1_555 1_555
H17_3 C29_3 1_555 1_555
C30_4 C9_4 1_555 1_555
H18_4 C30_4 1_555 1_555
C31_4 C9_4 1_555 1_555
H19_4 C31_4 1_555 1_555
O2_4 C24_4 1_555 1_555
C32_4 C33_4 1_555 1_555
C33_4 C31_4 1_555 1_555
H20_4 C33_4 1_555 1_555
C34_4 C30_4 1_555 1_555
H21_4 C34_4 1_555 1_555
O16_2 C35_4 1_555 1_555
C35_4 C32_4 1_555 1_555
O18_2 C36_4 1_555 1_555
O19_2 C35_4 1_555 1_555
C36_4 C3_4 1_555 1_555
O6_4 Cd8_2 1_555 1_555
O20_2 C36_4 1_555 1_555
O8_4 Cd8_2 1_555 1_555
O9_3 Cd8_2 1_555 1_555
H22_3 O9_3 1_555 1_555
H23_3 O9_3 1_555 1_555
N1_4 C37_4 1_555 1_555
C37_4 O6_4 1_555 1_555
H24_4 C37_4 1_555 1_555
C38_4 N1_4 1_555 1_555
H25_4 C38_4 1_555 1_555
H26_4 C38_4 1_555 1_555
H27_4 C38_4 1_555 1_555
N2_3 C39_3 1_555 1_555
C39_3 O8_4 1_555 1_555
H28_3 C39_3 1_555 1_555
C40_3 N2_3 1_555 1_555
H29_3 C40_3 1_555 1_555
H30_3 C40_3 1_555 1_555
H31_3 C40_3 1_555 1_555
C41_4 N2_3 1_555 1_555
H32_4 C41_4 1_555 1_555
H33_3 C41_4 1_555 1_555
H34_4 C41_4 1_555 1_555
C42_4 N1_4 1_555 1_555
H35_4 C42_4 1_555 1_555
H36_4 C42_4 1_555 1_555
H37_4 C42_4 1_555 1_555
O10_4 Cd6_2 1_555 1_555
C43_4 O10_4 1_555 1_555
C67_4 H49_4 1_555 1_555
C6_4 C16_4 1_555 1_555
C14_4 C16_4 1_555 1_555
C19_4 C21_4 1_555 1_555
C22_4 C27_4 1_555 1_555
C23_3 C29_3 1_555 1_555
C25_3 C26_3 1_555 1_555
C25_3 C28_4 1_555 1_555
C32_4 C34_4 1_555 1_555
C23_4 H15_4 1_555 1_555
C25_4 C23_4 1_555 1_555
H17_4 C29_4 1_555 1_555
H22_4 O9_4 1_555 1_555
H23_4 O9_4 1_555 1_555
N2_4 C39_4 1_555 1_555
H28_4 C39_4 1_555 1_555
C40_4 N2_4 1_555 1_555
H29_4 C40_4 1_555 1_555
H30_4 C40_4 1_555 1_555
H31_4 C40_4 1_555 1_555
C23_4 C29_4 1_555 1_555
C25_4 C26_4 1_555 1_555
O25 C145 1_555 1_555
O29 C145 1_555 1_555
Cd22 O25 1_555 1_555
O29 Cd22 1_555 1_555
C80 C84 1_555 1_555
C84 C88 1_555 1_555
C88 C91 1_555 1_555
C90 C91 1_555 1_555
C91 C105 1_555 1_555
C94 C80 1_555 1_555
C101 C80 1_555 1_555
C105 H65 1_555 1_555
H66 C105 1_555 1_555
H67 C105 1_555 1_555
C107 H68 1_555 1_555
C113 C115 1_555 1_555
C115 C107 1_555 1_555
H74 C115 1_555 1_555
C125 C88 1_555 1_555
C129 C84 1_555 1_555
H81 C129 1_555 1_555
H82 C129 1_555 1_555
H83 C129 1_555 1_555
C130 C113 1_555 1_555
C133 C101 1_555 1_555
H88 C133 1_555 1_555
H89 C133 1_555 1_555
H90 C133 1_555 1_555
C134 C111 1_555 1_555
H91 C134 1_555 1_555
C136 C94 1_555 1_555
C137 C107 1_555 1_555
C142 C90 1_555 1_555
H98 C148 1_555 1_555
C150 C126 1_555 1_555
H99 C150 1_555 1_555
Cd18 O38 1_555 1_555
C90 C101 1_555 1_555
C111 C137 1_555 1_555
C113 C134 1_555 1_555
C125 C141 1_555 1_555
C126 C136 1_555 1_555
C130 C142 1_555 1_555
C148 C150 1_555 1_555
C95 C108 1_555 1_555
C108 H69 1_555 1_555
C118 C104 1_555 1_555
H75 C118 1_555 1_555
C127 C95 1_555 1_555
H79 C127 1_555 1_555
C140 C104 1_555 1_555
C146 C95 1_555 1_555
O32 C146 1_555 1_555
O33 C146 1_555 1_555
Cd15 O32 1_555 1_555
Cd18 O33 1_555 1_555
C108 C118 1_555 1_555
C127 C140 1_555 1_555
C110 H71 1_555 1_555
C135 C110 1_555 1_555
H92 C135 1_555 1_555
C144 C135 1_555 1_555
O37 C149 1_555 1_555
C149 C144 1_555 1_555
Cd20 O37 1_555 1_555
O40 Cd14 1_555 1_555
O42 Cd14 1_555 1_555
O45 Cd14 1_555 1_555
O24 C81 1_555 1_555
O27 C81 1_555 1_555
C79 C82 1_555 1_555
C81 C83 1_555 1_555
O30 Cd13 1_555 1_555
O31 C92 1_555 1_555
C82 C87 1_555 1_555
C83 C99 1_555 1_555
C85 C79 1_555 1_555
C86 C85 1_555 1_555
C87 C100 1_555 1_555
C89 C124 1_555 1_555
C92 O30 1_555 1_555
C93 C96 1_555 1_555
C96 C139 1_555 1_555
C97 H59 1_555 1_555
H60 C97 1_555 1_555
H61 C97 1_555 1_555
C99 H63 1_555 1_555
C100 C102 1_555 1_555
C102 C103 1_555 1_555
C103 H64 1_555 1_555
C106 C85 1_555 1_555
C109 H70 1_555 1_555
C112 C86 1_555 1_555
C121 C99 1_555 1_555
H76 C121 1_555 1_555
C122 C82 1_555 1_555
C123 C83 1_555 1_555
H77 C123 1_555 1_555
C124 C109 1_555 1_555
H78 C124 1_555 1_555
C128 H80 1_555 1_555
C131 C79 1_555 1_555
H84 C131 1_555 1_555
H85 C131 1_555 1_555
H86 C131 1_555 1_555
C138 C89 1_555 1_555
H93 C138 1_555 1_555
C139 C89 1_555 1_555
C143 C92 1_555 1_555
C147 C122 1_555 1_555
H95 C147 1_555 1_555
H96 C147 1_555 1_555
H97 C147 1_555 1_555
N4 C151 1_555 1_555
H100 C151 1_555 1_555
C152 N4 1_555 1_555
H101 C152 1_555 1_555
H102 C152 1_555 1_555
H103 C152 1_555 1_555
C153 N4 1_555 1_555
H105 C153 1_555 1_555
H106 C153 1_555 1_555
H117 C158 1_555 1_555
C159 N5 1_555 1_555
H118 C159 1_555 1_555
H119 C159 1_555 1_555
H120 C159 1_555 1_555
Cd16 O24 1_555 1_555
Cd19 O24 1_555 1_555
Cd21 O27 1_555 1_555
O41 Cd13 1_555 1_555
O46 Cd13 1_555 1_555
O27 Cd19 1_555 1_555
C93 C106 1_555 1_555
C93 C122 1_555 1_555
C97 C106 1_555 1_555
C102 C121 1_555 1_555
C103 C123 1_555 1_555
C109 C143 1_555 1_555
C128 C138 1_555 1_555
C128 C143 1_555 1_555
N5 C158 1_555 1_555
C98 H62 1_555 1_555
C132 C98 1_555 1_555
H87 C132 1_555 1_555
O34 Cd12 1_555 1_555
O35 Cd12 1_555 1_555
O36 Cd12 1_555 1_555
N3 C154 1_555 1_555
C154 O34 1_555 1_555
H107 C154 1_555 1_555
C155 N3 1_555 1_555
H108 C155 1_555 1_555
H109 C155 1_555 1_555
H110 C155 1_555 1_555
C156 N3 1_555 1_555
H111 C156 1_555 1_555
H112 C156 1_555 1_555
H113 C156 1_555 1_555
H115 C157 1_555 1_555
H116 C157 1_555 1_555
O39 Cd12 1_555 1_555
O43 Cd12 1_555 1_555
Cd22 O27_2 1_555 1_555
O27_2 Cd19_2 1_555 1_555
Cd15 O31_2 1_555 1_555
Cd18 O26_2 1_555 1_555
O24_2 C81_2 1_555 1_555
C79_2 C82_2 1_555 1_555
C81_2 C83_2 1_555 1_555
O30_2 Cd18 1_555 1_555
O31_2 C92_2 1_555 1_555
C82_2 C87_2 1_555 1_555
C83_2 C99_2 1_555 1_555
C85_2 C79_2 1_555 1_555
C86_2 C85_2 1_555 1_555
C87_2 C100_2 1_555 1_555
C89_2 C124_2 1_555 1_555
C92_2 O30_2 1_555 1_555
C93_2 C96_2 1_555 1_555
C96_2 C139_2 1_555 1_555
C97_2 H59_2 1_555 1_555
H60_2 C97_2 1_555 1_555
H61_2 C97_2 1_555 1_555
C98_2 H62_2 1_555 1_555
C99_2 H63_2 1_555 1_555
C100_2 C102_2 1_555 1_555
C102_2 C103_2 1_555 1_555
C103_2 H64_2 1_555 1_555
C106_2 C85_2 1_555 1_555
C109_2 H70_2 1_555 1_555
C112_2 C86_2 1_555 1_555
C121_2 C99_2 1_555 1_555
H76_2 C121_2 1_555 1_555
C122_2 C82_2 1_555 1_555
C123_2 C83_2 1_555 1_555
C124_2 C109_2 1_555 1_555
H78_2 C124_2 1_555 1_555
C128_2 H80_2 1_555 1_555
C131_2 C79_2 1_555 1_555
H84_2 C131_2 1_555 1_555
H85_2 C131_2 1_555 1_555
H86_2 C131_2 1_555 1_555
C132_2 C98_2 1_555 1_555
H87_2 C132_2 1_555 1_555
C138_2 C89_2 1_555 1_555
H93_2 C138_2 1_555 1_555
C139_2 C89_2 1_555 1_555
C143_2 C92_2 1_555 1_555
C147_2 C122_2 1_555 1_555
H95_2 C147_2 1_555 1_555
H96_2 C147_2 1_555 1_555
H97_2 C147_2 1_555 1_555
O34_2 Cd15 1_555 1_555
O35_2 Cd15 1_555 1_555
O36_2 Cd15 1_555 1_555
N3_2 C154_2 1_555 1_555
N4_2 C151_2 1_555 1_555
C151_2 O35_2 1_555 1_555
H100_2 C151_2 1_555 1_555
C152_2 N4_2 1_555 1_555
H101_2 C152_2 1_555 1_555
H102_2 C152_2 1_555 1_555
H103_2 C152_2 1_555 1_555
C153_2 N4_2 1_555 1_555
H104_2 C153_2 1_555 1_555
H105_2 C153_2 1_555 1_555
H106_2 C153_2 1_555 1_555
C154_2 O34_2 1_555 1_555
H107_2 C154_2 1_555 1_555
C155_2 N3_2 1_555 1_555
H108_2 C155_2 1_555 1_555
H109_2 C155_2 1_555 1_555
H110_2 C155_2 1_555 1_555
C156_2 N3_2 1_555 1_555
H111_2 C156_2 1_555 1_555
H112_2 C156_2 1_555 1_555
H113_2 C156_2 1_555 1_555
N5_2 C157_2 1_555 1_555
C157_2 H114_2 1_555 1_555
H115_2 C157_2 1_555 1_555
H116_2 C157_2 1_555 1_555
C158_2 O36_2 1_555 1_555
H117_2 C158_2 1_555 1_555
C159_2 N5_2 1_555 1_555
H118_2 C159_2 1_555 1_555
H119_2 C159_2 1_555 1_555
H120_2 C159_2 1_555 1_555
Cd16_2 O24_2 1_555 1_555
O39_2 Cd15 1_555 1_555
O41_2 Cd18 1_555 1_555
Cd18 O39_2 1_555 1_555
C93_2 C106_2 1_555 1_555
C93_2 C122_2 1_555 1_555
C97_2 C106_2 1_555 1_555
C102_2 C121_2 1_555 1_555
C103_2 C123_2 1_555 1_555
C109_2 C143_2 1_555 1_555
C128_2 C138_2 1_555 1_555
C128_2 C143_2 1_555 1_555
N5_2 C158_2 1_555 1_555
O28 Cd20 1_555 1_555
C114 H73 1_555 1_555
C117 C114 1_555 1_555
C119 O28 1_555 1_555
C120 C114 1_555 1_555
O40_2 Cd20 1_555 1_555
O42_2 Cd20 1_555 1_555
C116 C120 1_555 1_555
C117 C119 1_555 1_555
C120 H121 1_555 1_555
C95_2 C108_2 1_555 1_555
C108_2 H69_2 1_555 1_555
C110_2 H71_2 1_555 1_555
C118_2 C104_2 1_555 1_555
H75_2 C118_2 1_555 1_555
C127_2 C95_2 1_555 1_555
H79_2 C127_2 1_555 1_555
C135_2 C110_2 1_555 1_555
H92_2 C135_2 1_555 1_555
C140_2 C104_2 1_555 1_555
C144_2 C135_2 1_555 1_555
C146_2 C95_2 1_555 1_555
O43 C146_2 1_555 1_555
O44 C146_2 1_555 1_555
O45 C149_2 1_555 1_555
C149_2 C144_2 1_555 1_555
C108_2 C118_2 1_555 1_555
C127_2 C140_2 1_555 1_555
O25_2 C145_2 1_555 1_555
O29_2 C145_2 1_555 1_555
C80_2 C84_2 1_555 1_555
C84_2 C88_2 1_555 1_555
C88_2 C91_2 1_555 1_555
C90_2 C91_2 1_555 1_555
C91_2 C105_2 1_555 1_555
C94_2 C80_2 1_555 1_555
C101_2 C80_2 1_555 1_555
C105_2 H65_2 1_555 1_555
H66_2 C105_2 1_555 1_555
H67_2 C105_2 1_555 1_555
C107_2 H68_2 1_555 1_555
C111_2 H72_2 1_555 1_555
C113_2 C115_2 1_555 1_555
C115_2 C107_2 1_555 1_555
H74_2 C115_2 1_555 1_555
C125_2 C88_2 1_555 1_555
C129_2 C84_2 1_555 1_555
H81_2 C129_2 1_555 1_555
H82_2 C129_2 1_555 1_555
H83_2 C129_2 1_555 1_555
C130_2 C113_2 1_555 1_555
C133_2 C101_2 1_555 1_555
H88_2 C133_2 1_555 1_555
H89_2 C133_2 1_555 1_555
H90_2 C133_2 1_555 1_555
C134_2 C111_2 1_555 1_555
H91_2 C134_2 1_555 1_555
C136_2 C94_2 1_555 1_555
C137_2 C107_2 1_555 1_555
C142_2 C90_2 1_555 1_555
C145_2 C137_2 1_555 1_555
H98_2 C148_2 1_555 1_555
C150_2 C126_2 1_555 1_555
H99_2 C150_2 1_555 1_555
Cd21 O25_2 1_555 1_555
O29_2 Cd21 1_555 1_555
C90_2 C101_2 1_555 1_555
C111_2 C137_2 1_555 1_555
C113_2 C134_2 1_555 1_555
C125_2 C141_2 1_555 1_555
C126_2 C136_2 1_555 1_555
C130_2 C142_2 1_555 1_555
C148_2 C150_2 1_555 1_555
Cd16 O31_3 1_555 1_555
Cd19 O26_3 1_555 1_555
Cd21 O26_3 1_555 1_555
O40_2 C145_3 1_555 1_555
O26_3 C119_2 1_555 1_555
O28_2 Cd21 1_555 1_555
O42_2 C145_3 1_555 1_555
C80_3 C84_3 1_555 1_555
O30_3 Cd19 1_555 1_555
O31_3 C92_3 1_555 1_555
C84_3 C88_3 1_555 1_555
C88_3 C91_3 1_555 1_555
C90_3 C91_3 1_555 1_555
C91_3 C105_3 1_555 1_555
C92_3 O30_3 1_555 1_555
C94_3 C80_3 1_555 1_555
C98_3 H62_3 1_555 1_555
C101_3 C80_3 1_555 1_555
C105_3 H65_3 1_555 1_555
H66_3 C105_3 1_555 1_555
H67_3 C105_3 1_555 1_555
C107_3 H68_3 1_555 1_555
C109_3 H70_3 1_555 1_555
C110_3 H71_3 1_555 1_555
C111_3 H72_3 1_555 1_555
C113_3 C115_3 1_555 1_555
C114_2 H73_2 1_555 1_555
C115_3 C107_3 1_555 1_555
H74_3 C115_3 1_555 1_555
C116_2 C98_3 1_555 1_555
C117_2 C114_2 1_555 1_555
C119_2 O28_2 1_555 1_555
C120_2 C114_2 1_555 1_555
C125_3 C88_3 1_555 1_555
C126_3 C110_3 1_555 1_555
C128_3 H80_3 1_555 1_555
C129_3 C84_3 1_555 1_555
H81_3 C129_3 1_555 1_555
H82_3 C129_3 1_555 1_555
H83_3 C129_3 1_555 1_555
C130_3 C113_3 1_555 1_555
C132_3 C98_3 1_555 1_555
H87_3 C132_3 1_555 1_555
C133_3 C101_3 1_555 1_555
H88_3 C133_3 1_555 1_555
H89_3 C133_3 1_555 1_555
H90_3 C133_3 1_555 1_555
C134_3 C111_3 1_555 1_555
H91_3 C134_3 1_555 1_555
C135_3 C110_3 1_555 1_555
H92_3 C135_3 1_555 1_555
C136_3 C94_3 1_555 1_555
C137_3 C107_3 1_555 1_555
C138_3 C89_3 1_555 1_555
H93_3 C138_3 1_555 1_555
C139_3 C89_3 1_555 1_555
C141_3 C116_2 1_555 1_555
C142_3 C90_3 1_555 1_555
C143_3 C92_3 1_555 1_555
C144_3 C135_3 1_555 1_555
C145_3 C137_3 1_555 1_555
C148_3 C144_3 1_555 1_555
H98_3 C148_3 1_555 1_555
O34_3 Cd16 1_555 1_555
O35_3 Cd16 1_555 1_555
O37_2 C149_3 1_555 1_555
C149_3 C144_3 1_555 1_555
C150_3 C126_3 1_555 1_555
H99_3 C150_3 1_555 1_555
N3_3 C154_3 1_555 1_555
N4_3 C151_3 1_555 1_555
C151_3 O35_3 1_555 1_555
H100_3 C151_3 1_555 1_555
C152_3 N4_3 1_555 1_555
H101_3 C152_3 1_555 1_555
H103_3 C152_3 1_555 1_555
C153_3 N4_3 1_555 1_555
H104_3 C153_3 1_555 1_555
H105_3 C153_3 1_555 1_555
H106_3 C153_3 1_555 1_555
C154_3 O34_3 1_555 1_555
H107_3 C154_3 1_555 1_555
C156_3 N3_3 1_555 1_555
H111_3 C156_3 1_555 1_555
H112_3 C156_3 1_555 1_555
H113_3 C156_3 1_555 1_555
O38_2 C149_3 1_555 1_555
Cd19_2 O38_2 1_555 1_555
Cd22 O37_2 1_555 1_555
O43_2 Cd16 1_555 1_555
O44_2 Cd19 1_555 1_555
O45_2 Cd21 1_555 1_555
O46_2 Cd19 1_555 1_555
C90_3 C101_3 1_555 1_555
C109_3 C143_3 1_555 1_555
C111_3 C137_3 1_555 1_555
C113_3 C134_3 1_555 1_555
C116_2 C120_2 1_555 1_555
C117_2 C119_2 1_555 1_555
C117_2 C132_3 1_555 1_555
C125_3 C141_3 1_555 1_555
C126_3 C136_3 1_555 1_555
C128_3 C138_3 1_555 1_555
C128_3 C143_3 1_555 1_555
C130_3 C142_3 1_555 1_555
C148_3 C150_3 1_555 1_555
C120_2 H121_2 1_555 1_555
O39 C81_3 1_555 1_555
C79_3 C82_3 1_555 1_555
C81_3 C83_3 1_555 1_555
C82_3 C87_3 1_555 1_555
C83_3 C99_3 1_555 1_555
C85_3 C79_3 1_555 1_555
C86_3 C85_3 1_555 1_555
C87_3 C100_3 1_555 1_555
C93_3 C96_3 1_555 1_555
C95_3 C108_3 1_555 1_555
C97_3 H59_3 1_555 1_555
H60_3 C97_3 1_555 1_555
H61_3 C97_3 1_555 1_555
C99_3 H63_3 1_555 1_555
C100_3 C102_3 1_555 1_555
C102_3 C103_3 1_555 1_555
C103_3 H64_3 1_555 1_555
C104_3 C112_3 1_555 1_555
C106_3 C85_3 1_555 1_555
C108_3 H69_3 1_555 1_555
C112_3 C86_3 1_555 1_555
C118_3 C104_3 1_555 1_555
C121_3 C99_3 1_555 1_555
H76_3 C121_3 1_555 1_555
C122_3 C82_3 1_555 1_555
C123_3 C83_3 1_555 1_555
H78_3 C124_3 1_555 1_555
C127_3 C95_3 1_555 1_555
H79_3 C127_3 1_555 1_555
C131_3 C79_3 1_555 1_555
H84_3 C131_3 1_555 1_555
H85_3 C131_3 1_555 1_555
H86_3 C131_3 1_555 1_555
C140_3 C104_3 1_555 1_555
H94_3 C140_3 1_555 1_555
C146_3 C95_3 1_555 1_555
C147_3 C122_3 1_555 1_555
H96_3 C147_3 1_555 1_555
H97_3 C147_3 1_555 1_555
O32_2 C146_3 1_555 1_555
O33_2 C146_3 1_555 1_555
H108_3 C155_3 1_555 1_555
H109_3 C155_3 1_555 1_555
H110_3 C155_3 1_555 1_555
N5_3 C157_3 1_555 1_555
C157_3 H114_3 1_555 1_555
H115_3 C157_3 1_555 1_555
H116_3 C157_3 1_555 1_555
C158_3 O36_3 1_555 1_555
H117_3 C158_3 1_555 1_555
C159_3 N5_3 1_555 1_555
H118_3 C159_3 1_555 1_555
H119_3 C159_3 1_555 1_555
H120_3 C159_3 1_555 1_555
Cd16_2 O32_2 1_555 1_555
C93_3 C106_3 1_555 1_555
C93_3 C122_3 1_555 1_555
C97_3 C106_3 1_555 1_555
C102_3 C121_3 1_555 1_555
C103_3 C123_3 1_555 1_555
C108_3 C118_3 1_555 1_555
C127_3 C140_3 1_555 1_555
N5_3 C158_3 1_555 1_555
O39_2 C81_4 1_555 1_555
O41_2 C81_4 1_555 1_555
C79_4 C82_4 1_555 1_555
C81_4 C83_4 1_555 1_555
C82_4 C87_4 1_555 1_555
C83_4 C99_4 1_555 1_555
C85_4 C79_4 1_555 1_555
C86_4 C85_4 1_555 1_555
C87_4 C100_4 1_555 1_555
C93_4 C96_4 1_555 1_555
C95_4 C108_4 1_555 1_555
C97_4 H59_4 1_555 1_555
H60_4 C97_4 1_555 1_555
H61_4 C97_4 1_555 1_555
C99_4 H63_4 1_555 1_555
C100_4 C102_4 1_555 1_555
C102_4 C103_4 1_555 1_555
C103_4 H64_4 1_555 1_555
C104_4 C112_4 1_555 1_555
C106_4 C85_4 1_555 1_555
C108_4 H69_4 1_555 1_555
C112_4 C86_4 1_555 1_555
C118_4 C104_4 1_555 1_555
C121_4 C99_4 1_555 1_555
H76_4 C121_4 1_555 1_555
C122_4 C82_4 1_555 1_555
C123_4 C83_4 1_555 1_555
H77_4 C123_4 1_555 1_555
H78_4 C124_4 1_555 1_555
C127_4 C95_4 1_555 1_555
H79_4 C127_4 1_555 1_555
C131_4 C79_4 1_555 1_555
H84_4 C131_4 1_555 1_555
H85_4 C131_4 1_555 1_555
H86_4 C131_4 1_555 1_555
C140_4 C104_4 1_555 1_555
H94_4 C140_4 1_555 1_555
C146_4 C95_4 1_555 1_555
C147_4 C122_4 1_555 1_555
H96_4 C147_4 1_555 1_555
H97_4 C147_4 1_555 1_555
O43_2 C146_4 1_555 1_555
O44_2 C146_4 1_555 1_555
H117_4 C158_4 1_555 1_555
C159_4 N5_4 1_555 1_555
H118_4 C159_4 1_555 1_555
H119_4 C159_4 1_555 1_555
H120_4 C159_4 1_555 1_555
C93_4 C106_4 1_555 1_555
C93_4 C122_4 1_555 1_555
C97_4 C106_4 1_555 1_555
C102_4 C121_4 1_555 1_555
C103_4 C123_4 1_555 1_555
C108_4 C118_4 1_555 1_555
C127_4 C140_4 1_555 1_555
N5_4 C158_4 1_555 1_555
O40 C145_4 1_555 1_555
O42 C145_4 1_555 1_555
O30_4 Cd19_2 1_555 1_555
O31_4 C92_4 1_555 1_555
C92_4 O30_4 1_555 1_555
C109_4 H70_4 1_555 1_555
C128_4 H80_4 1_555 1_555
C138_4 C89_4 1_555 1_555
H93_4 C138_4 1_555 1_555
C139_4 C89_4 1_555 1_555
C143_4 C92_4 1_555 1_555
N4_4 C151_4 1_555 1_555
H100_4 C151_4 1_555 1_555
C152_4 N4_4 1_555 1_555
H101_4 C152_4 1_555 1_555
H103_4 C152_4 1_555 1_555
C153_4 N4_4 1_555 1_555
H105_4 C153_4 1_555 1_555
H106_4 C153_4 1_555 1_555
C109_4 C143_4 1_555 1_555
C128_4 C138_4 1_555 1_555
C128_4 C143_4 1_555 1_555
O26_4 C119_3 1_555 1_555
C80_4 C84_4 1_555 1_555
C84_4 C88_4 1_555 1_555
C88_4 C91_4 1_555 1_555
C90_4 C91_4 1_555 1_555
C91_4 C105_4 1_555 1_555
C94_4 C80_4 1_555 1_555
C98_4 H62_4 1_555 1_555
C101_4 C80_4 1_555 1_555
C105_4 H65_4 1_555 1_555
H66_4 C105_4 1_555 1_555
H67_4 C105_4 1_555 1_555
C107_4 H68_4 1_555 1_555
C110_4 H71_4 1_555 1_555
C113_4 C115_4 1_555 1_555
C114_3 H73_3 1_555 1_555
C115_4 C107_4 1_555 1_555
H74_4 C115_4 1_555 1_555
C116_3 C98_4 1_555 1_555
C117_3 C114_3 1_555 1_555
C119_3 O28_3 1_555 1_555
C120_3 C114_3 1_555 1_555
C125_4 C88_4 1_555 1_555
C126_4 C110_4 1_555 1_555
C129_4 C84_4 1_555 1_555
H81_4 C129_4 1_555 1_555
H82_4 C129_4 1_555 1_555
H83_4 C129_4 1_555 1_555
C130_4 C113_4 1_555 1_555
C132_4 C98_4 1_555 1_555
H87_4 C132_4 1_555 1_555
C133_4 C101_4 1_555 1_555
H88_4 C133_4 1_555 1_555
H89_4 C133_4 1_555 1_555
H90_4 C133_4 1_555 1_555
C134_4 C111_4 1_555 1_555
H91_4 C134_4 1_555 1_555
C135_4 C110_4 1_555 1_555
H92_4 C135_4 1_555 1_555
C136_4 C94_4 1_555 1_555
C137_4 C107_4 1_555 1_555
C141_4 C116_3 1_555 1_555
C142_4 C90_4 1_555 1_555
C144_4 C135_4 1_555 1_555
C148_4 C144_4 1_555 1_555
H98_4 C148_4 1_555 1_555
O34_4 Cd16_2 1_555 1_555
O35_4 Cd16_2 1_555 1_555
O45_2 C149_4 1_555 1_555
C149_4 C144_4 1_555 1_555
C150_4 C126_4 1_555 1_555
H99_4 C150_4 1_555 1_555
N3_4 C154_4 1_555 1_555
C154_4 O34_4 1_555 1_555
H107_4 C154_4 1_555 1_555
C156_4 N3_4 1_555 1_555
H111_4 C156_4 1_555 1_555
H112_4 C156_4 1_555 1_555
H113_4 C156_4 1_555 1_555
O46_2 C149_4 1_555 1_555
C90_4 C101_4 1_555 1_555
C111_4 C137_4 1_555 1_555
C113_4 C134_4 1_555 1_555
C116_3 C120_3 1_555 1_555
C117_3 C119_3 1_555 1_555
C117_3 C132_4 1_555 1_555
C125_4 C141_4 1_555 1_555
C126_4 C136_4 1_555 1_555
C130_4 C142_4 1_555 1_555
C148_4 C150_4 1_555 1_555
C120_3 H121_3 1_555 1_555
C114_4 H73_4 1_555 1_555
C117_4 C114_4 1_555 1_555
C119_4 O28_4 1_555 1_555
C120_4 C114_4 1_555 1_555
C116_4 C120_4 1_555 1_555
C117_4 C119_4 1_555 1_555
C120_4 H121_4 1_555 1_555
H108_4 C155_4 1_555 1_555
H109_4 C155_4 1_555 1_555
H110_4 C155_4 1_555 1_555
H115_4 C157_4 1_555 1_555
H116_4 C157_4 1_555 1_555

#END
