
###############################################################################
#
# This file contains modified crystal structure data generated from the
# MOF subset of the Cambridge Structural Database (CSD) v543 
# hosted by the Cambridge Crystallographic Data Centre (CCDC).
#
# This work is licensed under the Creative Commons
# Attribution-NonCommercial-ShareAlike 4.0 International License.
# To view a copy of this license, visit
# http://creativecommons.org/licenses/by-nc-sa/4.0/
# or send a letter to
# Creative Commons, PO Box 1866, Mountain View, CA 94042, USA.
#
# CIF created using the CSD Python API on 29 September 2022
# The structure has been converted into the P1 space group
# The structure has a 3D framework
# The original CSD entry XOVPON is in the triclinic crystal system
# The framework has been calculated to contain at least 10.0% void space
# The void calculation uses a probe of radius 1.32A, grid spacing 0.4
#
###############################################################################

data_XOVPON
_chemical_formula_moiety         '(C18 H32 Ce2 O14)n'
_symmetry_cell_setting           triclinic
_symmetry_space_group_name_H-M   'P 1'
_symmetry_Int_Tables_number      1
_space_group_name_Hall           'P 1'
loop_
_symmetry_equiv_pos_site_id
_symmetry_equiv_pos_as_xyz
1 x,y,z
_cell_length_a                   8.6842(17)
_cell_length_b                   9.942(2)
_cell_length_c                   11.733(2)
_cell_angle_alpha                74.67(3)
_cell_angle_beta                 69.85(3)
_cell_angle_gamma                86.02(3)
_cell_volume                     916.905
loop_
_atom_site_label
_atom_site_type_symbol
_atom_site_fract_x
_atom_site_fract_y
_atom_site_fract_z
_atom_site_U_iso_or_equiv
_atom_site_thermal_displace_type
O22 O 0.0655(9) 0.4657(8) 0.3893(7) 0.0247 Uani
O3 O 0.0982(8) 0.6163(8) 0.6842(7) 0.0227 Uani
Ce3 Ce 0.25445(6) 0.52223(6) 0.48809(5) 0.0136 Uani
C7 C 0.0316(19) 0.0232(15) 0.4286(13) 0.0457 Uani
H9 H 0.0216 0.1235 0.4022 0.0550 Uiso
H11 H 0.2438 0.0183 0.2797 0.0450 Uiso
H12 H 0.2799 0.0324 0.3981 0.0450 Uiso
H18 H 0.0367 0.0198 0.6029 0.0550 Uiso
C16 C 0.1550(14) 0.3851(13) 0.0838(10) 0.0278 Uani
H25 H 0.0941 0.2990 0.1033 0.0340 Uiso
H26 H 0.0872 0.4620 0.0610 0.0340 Uiso
C17 C 0.1887(13) 0.3954(14) 0.1978(9) 0.0284 Uani
H27 H 0.2665 0.4722 0.1726 0.0340 Uiso
H28 H 0.2425 0.3108 0.2262 0.0340 Uiso
C18 C 0.0476(12) 0.4159(10) 0.3069(9) 0.0167 Uani
O1 O 0.5756(9) 0.5448(8) 0.3720(6) 0.0211 Uani
O2 O 0.4257(8) 0.6076(8) 0.2516(6) 0.0234 Uani
C1 C 0.5690(12) 0.5867(10) 0.2597(9) 0.0148 Uani
C2 C 0.7183(14) 0.6105(13) 0.1474(10) 0.0293 Uani
H1 H 0.7954 0.5380 0.1612 0.0350 Uiso
H2 H 0.7688 0.6991 0.1366 0.0350 Uiso
C3 C 0.6873(13) 0.6118(13) 0.0285(9) 0.0263 Uani
H3 H 0.6237 0.6928 0.0077 0.0310 Uiso
H4 H 0.6222 0.5294 0.0432 0.0310 Uiso
O5 O 0.1379(9) 0.7480(8) 0.4003(7) 0.0272 Uani
O6 O 0.3575(10) 0.7834(9) 0.4399(8) 0.0326 Uani
C8 C 0.2107(16) 0.9854(12) 0.3704(13) 0.0374 Uani
C9 C 0.2364(14) 0.8291(12) 0.4061(11) 0.0274 Uani
O7 O 0.3781(10) 0.2993(8) 0.4137(8) 0.0323 Uani
H13 H 0.3356 0.2914 0.3594 0.0490 Uiso
H14 H 0.4710 0.3408 0.3721 0.0490 Uiso
O8 O 0.1296(9) 0.2960(8) 0.6518(7) 0.0266 Uani
H15 H 0.0318 0.2847 0.6531 0.0400 Uiso
H16 H 0.1213 0.2991 0.7256 0.0400 Uiso
O11 O 0.4244(9) 0.4552(8) 0.6280(6) 0.0211 Uani
O12 O 0.5743(8) 0.3924(8) 0.7484(6) 0.0234 Uani
C13 C 0.4310(12) 0.4133(10) 0.7403(9) 0.0148 Uani
C14 C 0.2817(14) 0.3895(13) 0.8526(10) 0.0293 Uani
H21 H 0.2046 0.4620 0.8388 0.0350 Uiso
H22 H 0.2312 0.3009 0.8634 0.0350 Uiso
C15 C 0.3127(13) 0.3882(13) 0.9715(9) 0.0263 Uani
H23 H 0.3763 0.3072 0.9923 0.0310 Uiso
H24 H 0.3778 0.4706 0.9568 0.0310 Uiso
Ce2 Ce 0.74555(6) 0.47777(6) 0.51191(5) 0.0136 Uani
O15 O 0.6219(10) 0.7007(8) 0.5863(8) 0.0323 Uani
H29 H 0.6644 0.7086 0.6406 0.0490 Uiso
H30 H 0.5290 0.6592 0.6279 0.0490 Uiso
O16 O 0.8704(9) 0.7040(8) 0.3482(7) 0.0266 Uani
H31 H 0.9682 0.7153 0.3469 0.0400 Uiso
H32 H 0.8787 0.7009 0.2744 0.0400 Uiso
O20 O 0.9018(8) 0.3837(8) 0.3158(7) 0.0227 Uani
O21 O 0.9345(9) 0.5343(8) 0.6107(7) 0.0247 Uani
O23 O 0.8621(9) 0.2520(8) 0.5997(7) 0.0272 Uani
O24 O 0.6425(10) 0.2166(9) 0.5601(8) 0.0326 Uani
C4 C 0.8450(14) 0.6149(13) 0.9162(10) 0.0278 Uani
H5 H 0.9059 0.7010 0.8967 0.0340 Uiso
H6 H 0.9128 0.5380 0.9390 0.0340 Uiso
C5 C 0.8113(13) 0.6046(14) 0.8022(9) 0.0284 Uani
H7 H 0.7335 0.5278 0.8274 0.0340 Uiso
H8 H 0.7575 0.6892 0.7738 0.0340 Uiso
C6 C 0.9524(12) 0.5841(10) 0.6931(9) 0.0167 Uani
C11 C 0.7893(16) 0.0146(12) 0.6296(13) 0.0374 Uani
C12 C 0.7636(14) 0.1709(12) 0.5939(11) 0.0274 Uani
H10 H 0.9633 0.9802 0.3971 0.0550 Uiso
C10 C 0.9684(19) 0.9768(15) 0.5714(13) 0.0457 Uani
H17 H 0.9784 0.8765 0.5978 0.0550 Uiso
H19 H 0.7562 0.9817 0.7203 0.0450 Uiso
H20 H 0.7201 0.9676 0.6019 0.0450 Uiso
loop_
_atom_site_aniso_label
_atom_site_aniso_U_11
_atom_site_aniso_U_22
_atom_site_aniso_U_33
_atom_site_aniso_U_23
_atom_site_aniso_U_13
_atom_site_aniso_U_12
O22 0.021 0.032 0.026 -0.018 -0.005 -0.005
O3 0.013 0.039 0.023 -0.016 -0.009 0.002
Ce3 0.0114 0.0169 0.0129 -0.00424 -0.00428 0.00054
C7 0.054 0.036 0.042 -0.011 -0.013 0.021
C16 0.022 0.044 0.02 -0.017 -0.005 0.007
C17 0.016 0.056 0.011 -0.011 0 0.001
C18 0.02 0.012 0.019 -0.003 -0.009 0.003
O1 0.02 0.029 0.013 -0.004 -0.005 0
O2 0.015 0.042 0.008 -0.004 0 0.004
C1 0.017 0.017 0.013 -0.001 -0.01 -0.001
C2 0.029 0.035 0.017 -0.001 -0.003 -0.002
C3 0.018 0.05 0.009 -0.012 0.002 -0.005
O5 0.025 0.024 0.033 -0.006 -0.012 0.004
O6 0.024 0.032 0.047 -0.017 -0.013 -0.001
C8 0.039 0.023 0.045 -0.01 -0.007 0.001
C9 0.022 0.028 0.03 -0.017 0 0.006
O7 0.03 0.03 0.039 -0.012 -0.013 0.006
O8 0.024 0.028 0.026 0.003 -0.013 -0.003
O11 0.02 0.029 0.013 -0.004 -0.005 0
O12 0.015 0.042 0.008 -0.004 0 0.004
C13 0.017 0.017 0.013 -0.001 -0.01 -0.001
C14 0.029 0.035 0.017 -0.001 -0.003 -0.002
C15 0.018 0.05 0.009 -0.012 0.002 -0.005
Ce2 0.0114 0.0169 0.0129 -0.00424 -0.00428 0.00054
O15 0.03 0.03 0.039 -0.012 -0.013 0.006
O16 0.024 0.028 0.026 0.003 -0.013 -0.003
O20 0.013 0.039 0.023 -0.016 -0.009 0.002
O21 0.021 0.032 0.026 -0.018 -0.005 -0.005
O23 0.025 0.024 0.033 -0.006 -0.012 0.004
O24 0.024 0.032 0.047 -0.017 -0.013 -0.001
C4 0.022 0.044 0.02 -0.017 -0.005 0.007
C5 0.016 0.056 0.011 -0.011 0 0.001
C6 0.02 0.012 0.019 -0.003 -0.009 0.003
C11 0.039 0.023 0.045 -0.01 -0.007 0.001
C12 0.022 0.028 0.03 -0.017 0 0.006
C10 0.054 0.036 0.042 -0.011 -0.013 0.021
loop_
_geom_bond_atom_site_label_1
_geom_bond_atom_site_label_2
_geom_bond_site_symmetry_1
_geom_bond_site_symmetry_2
Ce3 O3 1_555 1_555
C7 H9 1_555 1_555
H25 C16 1_555 1_555
H26 C16 1_555 1_555
C17 C16 1_555 1_555
H27 C17 1_555 1_555
H28 C17 1_555 1_555
C18 C17 1_555 1_555
O22 C18 1_555 1_555
Ce3 O22 1_555 1_555
Ce3 O1 1_555 1_555
O1 C1 1_555 1_555
O2 Ce3 1_555 1_555
C1 O2 1_555 1_555
C2 C1 1_555 1_555
H1 C2 1_555 1_555
H2 C2 1_555 1_555
C3 C2 1_555 1_555
H3 C3 1_555 1_555
H4 C3 1_555 1_555
O5 Ce3 1_555 1_555
O6 Ce3 1_555 1_555
C9 O5 1_555 1_555
O7 Ce3 1_555 1_555
H13 O7 1_555 1_555
H14 O7 1_555 1_555
O8 Ce3 1_555 1_555
H15 O8 1_555 1_555
H16 O8 1_555 1_555
O11 Ce3 1_555 1_555
O12 C13 1_555 1_555
C13 O11 1_555 1_555
C14 C13 1_555 1_555
H21 C14 1_555 1_555
H22 C14 1_555 1_555
C15 C14 1_555 1_555
H23 C15 1_555 1_555
H24 C15 1_555 1_555
Ce2 O1 1_555 1_555
O15 Ce2 1_555 1_555
H29 O15 1_555 1_555
H30 O15 1_555 1_555
O16 Ce2 1_555 1_555
H31 O16 1_555 1_555
H32 O16 1_555 1_555
O20 Ce2 1_555 1_555
O21 Ce2 1_555 1_555
O23 Ce2 1_555 1_555
O24 Ce2 1_555 1_555
O6 C9 1_555 1_555
C8 C9 1_555 1_555
O11 Ce2 1_555 1_555
O12 Ce2 1_555 1_555
H5 C4 1_555 1_555
H6 C4 1_555 1_555
C5 C4 1_555 1_555
H7 C5 1_555 1_555
H8 C5 1_555 1_555
C6 C5 1_555 1_555
O21 C6 1_555 1_555
C12 C11 1_555 1_555
O23 C12 1_555 1_555
O24 C12 1_555 1_555
H17 C10 1_555 1_555

#END
