
###############################################################################
#
# This file contains modified crystal structure data generated from the
# MOF subset of the Cambridge Structural Database (CSD) v543 
# hosted by the Cambridge Crystallographic Data Centre (CCDC).
#
# This work is licensed under the Creative Commons
# Attribution-NonCommercial-ShareAlike 4.0 International License.
# To view a copy of this license, visit
# http://creativecommons.org/licenses/by-nc-sa/4.0/
# or send a letter to
# Creative Commons, PO Box 1866, Mountain View, CA 94042, USA.
#
# CIF created using the CSD Python API on 29 September 2022
# The structure has been converted into the P1 space group
# The structure has a 3D framework
# The original CSD entry XOVPIH is in the triclinic crystal system
# The framework has been calculated to contain at least 10.0% void space
# The void calculation uses a probe of radius 1.32A, grid spacing 0.4
#
###############################################################################

data_XOVPIH
_chemical_formula_moiety         '(C18 H32 Ce2 O16)n'
_symmetry_cell_setting           triclinic
_symmetry_space_group_name_H-M   'P 1'
_symmetry_Int_Tables_number      1
_space_group_name_Hall           'P 1'
loop_
_symmetry_equiv_pos_site_id
_symmetry_equiv_pos_as_xyz
1 x,y,z
_cell_length_a                   9.2275(18)
_cell_length_b                   9.771(2)
_cell_length_c                   10.699(2)
_cell_angle_alpha                67.81(3)
_cell_angle_beta                 84.49(3)
_cell_angle_gamma                61.84(3)
_cell_volume                     783.468
loop_
_atom_site_label
_atom_site_type_symbol
_atom_site_fract_x
_atom_site_fract_y
_atom_site_fract_z
_atom_site_U_iso_or_equiv
_atom_site_thermal_displace_type
C9 C 0.4583(7) 0.0052(8) 0.4396(6) 0.0359 Uani
H11 H 0.4130 0.1188 0.3723 0.0430 Uiso
C11 C 0.4238(7) 0.1167(8) 0.6257(5) 0.0324 Uani
C12 C 0.5106(6) 0.0945(6) 0.7489(5) 0.0254 Uani
O9 O 0.6258(5) 0.1339(6) 0.7351(4) 0.0352 Uani
O10 O 0.4748(5) 0.0320(5) 0.8660(4) 0.0317 Uani
H17 H 0.3298 0.0967 0.6512 0.0390 Uiso
H18 H 0.3833 0.2311 0.5606 0.0390 Uiso
H20 H 0.6328 0.0190 0.5315 0.0430 Uiso
O17 O 0.0082(5) 0.0500(5) 0.1110(4) 0.0328 Uani
Ce3 Ce 0.27715(3) 0.95616(3) 0.01686(2) 0.0210 Uani
Ce6 Ce 0.72285(3) 0.04384(3) 0.98314(2) 0.0210 Uani
O1 O 0.0785(5) 0.2323(4) 0.8288(4) 0.0281 Uani
O2 O 0.1929(5) 0.2655(5) 0.9785(4) 0.0296 Uani
C1 C 0.0940(6) 0.3273(6) 0.8773(5) 0.0246 Uani
C3 C 0.0784(6) 0.6158(6) 0.7840(6) 0.0286 Uani
H3 H 0.1199 0.6030 0.8698 0.0340 Uiso
H4 H 0.1719 0.5740 0.7341 0.0340 Uiso
C5 C 0.0442(7) 0.9114(6) 0.6782(5) 0.0279 Uani
H7 H 0.1403 0.8731 0.6297 0.0330 Uiso
C6 C 0.0966(6) 0.9133(6) 0.8069(5) 0.0237 Uani
O3 O 0.2429(5) 0.8804(5) 0.8274(4) 0.0324 Uani
O5 O 0.3742(5) 0.8661(6) 0.2649(4) 0.0352 Uani
O6 O 0.5252(5) 0.9680(5) 0.1340(4) 0.0317 Uani
C7 C 0.4894(6) 0.9055(6) 0.2511(5) 0.0254 Uani
C8 C 0.5762(7) 0.8833(8) 0.3743(5) 0.0324 Uani
H9 H 0.6702 0.9033 0.3488 0.0390 Uiso
H10 H 0.6167 0.7689 0.4394 0.0390 Uiso
H12 H 0.3672 0.9810 0.4685 0.0430 Uiso
O7 O 0.2457(5) 0.7012(5) 0.1497(5) 0.0414 Uani
H13 H 0.2728 0.6837 0.2314 0.0620 Uiso
H14 H 0.1552 0.7006 0.1491 0.0620 Uiso
O8 O 0.5363(5) 0.6896(5) 0.0384(5) 0.0376 Uani
H15 H 0.5621 0.6124 0.0078 0.0560 Uiso
H16 H 0.6200 0.7094 0.0279 0.0560 Uiso
C10 C 0.5417(7) 0.9948(8) 0.5604(6) 0.0359 Uani
H19 H 0.5870 0.8812 0.6277 0.0430 Uiso
H8 H 0.9667 0.0250 0.6208 0.0330 Uiso
C2 C 0.9857(7) 0.5149(7) 0.8100(6) 0.0310 Uani
H1 H 0.8988 0.5510 0.8670 0.0370 Uiso
H2 H 0.9337 0.5393 0.7242 0.0370 Uiso
C4 C 0.9642(6) 0.7996(6) 0.7035(5) 0.0274 Uani
H5 H 0.8680 0.8381 0.7519 0.0330 Uiso
H6 H 0.9264 0.8111 0.6168 0.0330 Uiso
O4 O 0.9918(5) 0.9500(5) 0.8890(4) 0.0328 Uani
C14 C 0.0143(7) 0.4851(7) 0.1900(6) 0.0310 Uani
H21 H 0.1012 0.4490 0.1330 0.0370 Uiso
H22 H 0.0663 0.4607 0.2758 0.0370 Uiso
C16 C 0.0358(6) 0.2004(6) 0.2965(5) 0.0274 Uani
H25 H 0.1320 0.1619 0.2481 0.0330 Uiso
H26 H 0.0736 0.1889 0.3832 0.0330 Uiso
H28 H 0.0333 0.9750 0.3792 0.0330 Uiso
O19 O 0.7571(5) 0.1196(5) 0.1726(4) 0.0324 Uani
O15 O 0.7543(5) 0.2988(5) 0.8503(5) 0.0414 Uani
H29 H 0.7272 0.3163 0.7686 0.0620 Uiso
H30 H 0.8448 0.2994 0.8509 0.0620 Uiso
O16 O 0.4637(5) 0.3104(5) 0.9616(5) 0.0376 Uani
H31 H 0.4379 0.3876 0.9922 0.0560 Uiso
H32 H 0.3800 0.2906 0.9721 0.0560 Uiso
O11 O 0.9215(5) 0.7677(4) 0.1712(4) 0.0281 Uani
O12 O 0.8071(5) 0.7345(5) 0.0215(4) 0.0296 Uani
C13 C 0.9060(6) 0.6727(6) 0.1227(5) 0.0246 Uani
C15 C 0.9216(6) 0.3842(6) 0.2160(6) 0.0286 Uani
H23 H 0.8801 0.3970 0.1302 0.0340 Uiso
H24 H 0.8281 0.4260 0.2659 0.0340 Uiso
C17 C 0.9558(7) 0.0886(6) 0.3218(5) 0.0279 Uani
H27 H 0.8597 0.1269 0.3703 0.0330 Uiso
C18 C 0.9034(6) 0.0867(6) 0.1931(5) 0.0237 Uani
loop_
_atom_site_aniso_label
_atom_site_aniso_U_11
_atom_site_aniso_U_22
_atom_site_aniso_U_33
_atom_site_aniso_U_23
_atom_site_aniso_U_13
_atom_site_aniso_U_12
C9 0.04 0.041 0.03 -0.018 0.003 -0.018
C11 0.033 0.042 0.023 -0.014 0.0032 -0.017
C12 0.031 0.021 0.02 -0.0065 0.0054 -0.0106
O9 0.043 0.046 0.0247 -0.0099 0.0088 -0.0308
O10 0.04 0.033 0.0209 -0.0076 0.0103 -0.0197
O17 0.037 0.0287 0.035 -0.0167 0.0168 -0.016
Ce3 0.02667 0.01487 0.01945 -0.00502 0.00733 -0.01042
Ce6 0.02667 0.01487 0.01945 -0.00502 0.00733 -0.01042
O1 0.0367 0.0166 0.0281 -0.004 0.001 -0.0133
O2 0.0357 0.0222 0.0297 -0.0087 0.0048 -0.0138
C1 0.03 0.021 0.025 -0.0074 0.0109 -0.0161
C3 0.033 0.018 0.032 -0.007 0.005 -0.0122
C5 0.038 0.022 0.022 -0.0078 0.0066 -0.014
C6 0.032 0.0147 0.022 -0.0054 0.0058 -0.0109
O3 0.0333 0.035 0.034 -0.0173 0.0065 -0.0174
O5 0.043 0.046 0.0247 -0.0099 0.0088 -0.0308
O6 0.04 0.033 0.0209 -0.0076 0.0103 -0.0197
C7 0.031 0.021 0.02 -0.0065 0.0054 -0.0106
C8 0.033 0.042 0.023 -0.014 0.0032 -0.017
O7 0.033 0.026 0.055 -0.0017 0.0022 -0.0163
O8 0.027 0.0211 0.058 -0.0112 0.0059 -0.0094
C10 0.04 0.041 0.03 -0.018 0.003 -0.018
C2 0.033 0.019 0.037 -0.007 0.003 -0.012
C4 0.033 0.019 0.027 -0.0063 -0.0003 -0.011
O4 0.037 0.0287 0.035 -0.0167 0.0168 -0.016
C14 0.033 0.019 0.037 -0.007 0.003 -0.012
C16 0.033 0.019 0.027 -0.0063 -0.0003 -0.011
O19 0.0333 0.035 0.034 -0.0173 0.0065 -0.0174
O15 0.033 0.026 0.055 -0.0017 0.0022 -0.0163
O16 0.027 0.0211 0.058 -0.0112 0.0059 -0.0094
O11 0.0367 0.0166 0.0281 -0.004 0.001 -0.0133
O12 0.0357 0.0222 0.0297 -0.0087 0.0048 -0.0138
C13 0.03 0.021 0.025 -0.0074 0.0109 -0.0161
C15 0.033 0.018 0.032 -0.007 0.005 -0.0122
C17 0.038 0.022 0.022 -0.0078 0.0066 -0.014
C18 0.032 0.0147 0.022 -0.0054 0.0058 -0.0109
loop_
_geom_bond_atom_site_label_1
_geom_bond_atom_site_label_2
_geom_bond_site_symmetry_1
_geom_bond_site_symmetry_2
H11 C9 1_555 1_555
C12 C11 1_555 1_555
O9 C12 1_555 1_555
O10 C12 1_555 1_555
H17 C11 1_555 1_555
H18 C11 1_555 1_555
Ce6 O9 1_555 1_555
O10 Ce6 1_555 1_555
O1 C1 1_555 1_555
C1 O2 1_555 1_555
H3 C3 1_555 1_555
H4 C3 1_555 1_555
H7 C5 1_555 1_555
C6 C5 1_555 1_555
O3 C6 1_555 1_555
O5 Ce3 1_555 1_555
O6 Ce3 1_555 1_555
C7 O5 1_555 1_555
C8 C7 1_555 1_555
H9 C8 1_555 1_555
H10 C8 1_555 1_555
O7 Ce3 1_555 1_555
H13 O7 1_555 1_555
H14 O7 1_555 1_555
O8 Ce3 1_555 1_555
H15 O8 1_555 1_555
H16 O8 1_555 1_555
H19 C10 1_555 1_555
O6 C7 1_555 1_555
H1 C2 1_555 1_555
H2 C2 1_555 1_555
H5 C4 1_555 1_555
H6 C4 1_555 1_555
C14 H21 1_555 1_555
H22 C14 1_555 1_555
H25 C16 1_555 1_555
H26 C16 1_555 1_555
O15 Ce6 1_555 1_555
H29 O15 1_555 1_555
H30 O15 1_555 1_555
O16 Ce6 1_555 1_555
H31 O16 1_555 1_555
H32 O16 1_555 1_555
O11 C13 1_555 1_555
O12 C13 1_555 1_555
H23 C15 1_555 1_555
H24 C15 1_555 1_555
H27 C17 1_555 1_555
C18 C17 1_555 1_555
C18 O19 1_555 1_555

#END
