
###############################################################################
#
# This file contains modified crystal structure data generated from the
# MOF subset of the Cambridge Structural Database (CSD) v543 
# hosted by the Cambridge Crystallographic Data Centre (CCDC).
#
# This work is licensed under the Creative Commons
# Attribution-NonCommercial-ShareAlike 4.0 International License.
# To view a copy of this license, visit
# http://creativecommons.org/licenses/by-nc-sa/4.0/
# or send a letter to
# Creative Commons, PO Box 1866, Mountain View, CA 94042, USA.
#
# CIF created using the CSD Python API on 29 September 2022
# The structure has been converted into the P1 space group
# The structure has a 3D framework
# The original CSD entry XOVVEK is in the triclinic crystal system
# The framework has been calculated to contain at least 10.0% void space
# The void calculation uses a probe of radius 1.32A, grid spacing 0.4
# H atom positions have been added when not included in the experimental data
# Generated hydrogen atom positions removed from atoms on special positions
#
###############################################################################

data_XOVVEK
_chemical_formula_moiety         '(C44 H36 N18 O18 Zn10)n'
_symmetry_cell_setting           triclinic
_symmetry_space_group_name_H-M   'P 1'
_symmetry_Int_Tables_number      1
_space_group_name_Hall           'P 1'
loop_
_symmetry_equiv_pos_site_id
_symmetry_equiv_pos_as_xyz
1 x,y,z
_cell_length_a                   9.758(4)
_cell_length_b                   11.890(4)
_cell_length_c                   15.220(6)
_cell_angle_alpha                95.544(7)
_cell_angle_beta                 99.068(7)
_cell_angle_gamma                112.874(6)
_cell_volume                     1582.29
loop_
_atom_site_label
_atom_site_type_symbol
_atom_site_fract_x
_atom_site_fract_y
_atom_site_fract_z
H2 H 0.0730 0.1767 0.0129
Zn7 Zn 0.00986(7) 0.92810(6) 0.20549(4)
Zn13 Zn 0.55713(7) 0.89077(6) 0.43142(4)
O16 O 0.1573(6) 0.1503(4) 0.2174(4)
O18 O 0.0959(5) 0.3095(4) 0.2274(4)
O20 O 0.4607(7) 0.7117(5) 0.3947(4)
O23 O 0.6938(7) 0.7442(5) 0.4603(4)
C37 C 0.1892(7) 0.2588(6) 0.2462(4)
C38 C 0.5667(9) 0.6735(6) 0.4171(5)
C39 C 0.3436(7) 0.3412(6) 0.3034(4)
C40 C 0.3801(7) 0.4629(6) 0.3360(4)
H25 H 0.3073 0.4948 0.3240
C41 C 0.5239(7) 0.5394(6) 0.3868(4)
C42 C 0.6281(9) 0.4887(8) 0.4082(5)
H26 H 0.7233 0.5383 0.4445
C43 C 0.5938(8) 0.3670(7) 0.3769(6)
H27 H 0.6654 0.3344 0.3915
C44 C 0.4533(8) 0.2933(7) 0.3239(5)
H28 H 0.4305 0.2111 0.3013
Zn3 Zn 0.44287(7) 0.10923(6) 0.56858(4)
N4 N 0.1223(6) 0.0148(5) 0.7285(4)
N6 N 0.3018(6) 0.0368(5) 0.6504(3)
C3 C 0.1968(8) 0.0747(6) 0.6695(4)
H3 H 0.1774 0.1366 0.6442
N19 N 0.6181(6) 0.0619(5) 0.6061(3)
N21 N 0.3457(6) 0.0238(5) 0.4419(3)
O13 O 0.1082(5) 0.2568(4) 0.8031(3)
O21 O 0.5393(7) 0.2883(5) 0.6053(4)
N5 N 0.1840(6) 0.9322(5) 0.7486(3)
C4 C 0.2896(8) 0.9485(6) 0.7014(4)
H4 H 0.3495 0.9038 0.7030
Zn16 Zn 0.10884(8) 0.81187(6) 0.83079(4)
Zn1 Zn 0.5000 0.0000 0.0000
Zn4 Zn 0.89116(8) 0.18813(6) 0.16921(4)
N2 N 0.8659(5) 0.1146(5) 0.0415(3)
N15 N 0.8160(6) 0.0678(5) 0.2514(3)
O10 O 0.5724(5) 0.1563(4) 0.1112(3)
O11 O 0.8002(5) 0.3075(4) 0.1676(4)
O12 O 0.8918(5) 0.7432(4) 0.1969(3)
O15 O 0.7279(6) 0.7913(4) 0.1085(4)
H15 H 0.3163 0.0338 0.1435
C26 C 0.7104(8) 0.0515(6) 0.2986(4)
H18 H 0.6505 0.0962 0.2970
C28 C 0.2273(7) 0.0270(6) 0.3891(4)
H20 H 0.1801 0.0783 0.4046
C29 C 0.6569(7) 0.2675(5) 0.1356(4)
C30 C 0.7599(7) 0.7137(6) 0.1479(4)
C31 C 0.5987(7) 0.3665(6) 0.1268(4)
C32 C 0.6990(7) 0.4894(6) 0.1453(4)
H21 H 0.8023 0.5104 0.1655
C33 C 0.6487(7) 0.5826(5) 0.1343(4)
C34 C 0.4913(7) 0.5496(6) 0.1074(5)
H22 H 0.4561 0.6112 0.1003
C35 C 0.3880(7) 0.4263(7) 0.0911(5)
H23 H 0.2840 0.4053 0.0753
C36 C 0.4427(7) 0.3335(6) 0.0988(4)
H24 H 0.3751 0.2504 0.0854
Zn1_2 Zn 0.5000 0.0000 1.0000
Zn2 Zn 0.99014(7) 0.07190(6) 0.79451(4)
N1 N 0.7254(5) 0.0390(5) 0.9858(3)
N3 N 0.9071(5) 0.0692(5) 0.9062(3)
N9 N 0.8178(6) 0.0516(5) 0.6894(3)
O9 O 0.4921(6) 0.1190(4) 0.9080(3)
C1 C 0.7576(6) 0.0155(5) 0.9070(4)
C2 C 0.9693(7) 0.1296(6) 0.9914(4)
C5 C 0.7201(8) 0.1045(7) 0.6831(4)
H5 H 0.7232 0.1648 0.7280
Zn1_3 Zn 0.5000 1.0000 0.0000
N10 N 0.2746(5) 0.9610(5) 0.0142(3)
N12 N 0.0929(5) 0.9308(5) 0.0938(3)
N13 N 0.8777(6) 0.9852(5) 0.2715(4)
N17 N 0.6982(6) 0.9632(5) 0.3496(3)
N18 N 0.3819(6) 0.9381(5) 0.3939(3)
N22 N 0.6543(6) 0.9762(5) 0.5581(3)
N23 N 0.1822(6) 0.9484(5) 0.3106(3)
O24 O 0.5079(6) 0.8810(4) 0.0920(3)
C23 C 0.2424(6) 0.9845(5) 0.0930(4)
C24 C 0.0307(7) 0.8704(6) 0.0086(4)
C25 C 0.8032(8) 0.9253(6) 0.3305(4)
H17 H 0.8226 0.8634 0.3558
C27 C 0.2799(8) 0.8955(7) 0.3169(4)
H19 H 0.2768 0.8352 0.2720
Zn1_4 Zn 0.5000 1.0000 1.0000
O1 O 0.4276(5) 0.8437(4) 0.8888(3)
O2 O 0.1998(5) 0.6925(4) 0.8324(4)
O4 O 0.2721(6) 0.2087(4) 0.8915(4)
O5 O 0.8427(6) 0.8497(4) 0.7826(4)
O6 O 0.9041(5) 0.6905(4) 0.7726(4)
O8 O 0.3062(7) 0.2558(5) 0.5397(4)
H1 H 0.6837 0.9662 0.8565
C6 C 0.7727(7) 0.9730(6) 0.6109(4)
H6 H 0.8199 0.9217 0.5954
C7 C 0.3431(7) 0.7325(5) 0.8644(4)
C8 C 0.2401(7) 0.2863(6) 0.8521(4)
C9 C 0.4013(7) 0.6335(6) 0.8732(4)
C10 C 0.3010(7) 0.5106(6) 0.8547(4)
H7 H 0.1977 0.4896 0.8345
C11 C 0.3513(7) 0.4174(5) 0.8657(4)
C12 C 0.5087(7) 0.4504(6) 0.8926(5)
H8 H 0.5439 0.3888 0.8997
C13 C 0.6120(7) 0.5737(7) 0.9089(5)
H9 H 0.7160 0.5947 0.9247
C14 C 0.5573(7) 0.6665(6) 0.9012(4)
H10 H 0.6249 0.7496 0.9146
C15 C 0.8108(7) 0.7412(6) 0.7538(4)
C16 C 0.4333(9) 0.3265(6) 0.5829(5)
C17 C 0.6564(7) 0.6588(6) 0.6966(4)
C18 C 0.6199(7) 0.5371(6) 0.6640(4)
H11 H 0.6927 0.5052 0.6760
C19 C 0.4761(7) 0.4606(6) 0.6132(4)
C20 C 0.3719(9) 0.5113(8) 0.5918(5)
H12 H 0.2767 0.4617 0.5555
C21 C 0.4062(8) 0.6330(7) 0.6231(6)
H13 H 0.3346 0.6656 0.6085
C22 C 0.5467(8) 0.7067(7) 0.6761(5)
H14 H 0.5695 0.7889 0.6987
N11 N 0.1341(5) 0.8854(5) 0.9585(3)
H16 H 0.9270 0.8233 0.9871
loop_
_geom_bond_atom_site_label_1
_geom_bond_atom_site_label_2
_geom_bond_site_symmetry_1
_geom_bond_site_symmetry_2
Zn13 O20 1_555 1_555
O20 C38 1_555 1_555
O23 C38 1_555 1_555
C37 O16 1_555 1_555
C38 C41 1_555 1_555
C39 C37 1_555 1_555
C40 C39 1_555 1_555
H25 C40 1_555 1_555
C41 C40 1_555 1_555
C42 C41 1_555 1_555
H26 C42 1_555 1_555
C43 C42 1_555 1_555
H27 C43 1_555 1_555
C44 C39 1_555 1_555
H28 C44 1_555 1_555
O18 C37 1_555 1_555
C43 C44 1_555 1_555
Zn3 N6 1_555 1_555
N6 C3 1_555 1_555
C3 N4 1_555 1_555
H3 C3 1_555 1_555
N19 Zn3 1_555 1_555
N21 Zn3 1_555 1_555
O21 Zn3 1_555 1_555
C4 N5 1_555 1_555
H4 C4 1_555 1_555
Zn16 N5 1_555 1_555
Zn4 N2 1_555 1_555
N15 Zn4 1_555 1_555
O10 Zn1 1_555 1_555
O11 Zn4 1_555 1_555
O12 C30 1_555 1_555
O15 C30 1_555 1_555
C26 N15 1_555 1_555
H18 C26 1_555 1_555
C28 N21 1_555 1_555
H20 C28 1_555 1_555
C29 O10 1_555 1_555
C30 C33 1_555 1_555
C31 C29 1_555 1_555
C32 C31 1_555 1_555
H21 C32 1_555 1_555
C33 C32 1_555 1_555
C34 C33 1_555 1_555
H22 C34 1_555 1_555
C35 C34 1_555 1_555
H23 C35 1_555 1_555
C36 C31 1_555 1_555
H24 C36 1_555 1_555
O11 C29 1_555 1_555
C35 C36 1_555 1_555
Zn1_2 N1 1_555 1_555
Zn2 N3 1_555 1_555
N3 C1 1_555 1_555
N9 Zn2 1_555 1_555
O9 Zn1_2 1_555 1_555
C1 N1 1_555 1_555
C2 N3 1_555 1_555
C5 N19 1_555 1_555
H5 C5 1_555 1_555
N9 C5 1_555 1_555
Zn7 N12 1_555 1_555
Zn13 N17 1_555 1_555
N10 Zn1_3 1_555 1_555
N12 C23 1_555 1_555
N17 C25 1_555 1_555
N18 Zn13 1_555 1_555
N22 Zn13 1_555 1_555
N23 Zn7 1_555 1_555
O24 Zn1_3 1_555 1_555
C23 N10 1_555 1_555
C25 N13 1_555 1_555
H17 C25 1_555 1_555
C27 N18 1_555 1_555
H19 C27 1_555 1_555
N12 C24 1_555 1_555
N23 C27 1_555 1_555
N22 C6 1_555 1_555
O1 Zn1_4 1_555 1_555
O2 C7 1_555 1_555
O13 C8 1_555 1_555
O4 C8 1_555 1_555
O6 C15 1_555 1_555
O21 C16 1_555 1_555
O8 C16 1_555 1_555
H6 C6 1_555 1_555
C7 O1 1_555 1_555
C8 C11 1_555 1_555
C9 C7 1_555 1_555
C10 C9 1_555 1_555
H7 C10 1_555 1_555
C11 C10 1_555 1_555
C12 C11 1_555 1_555
H8 C12 1_555 1_555
C13 C12 1_555 1_555
H9 C13 1_555 1_555
C14 C9 1_555 1_555
H10 C14 1_555 1_555
C15 O5 1_555 1_555
C16 C19 1_555 1_555
C17 C15 1_555 1_555
C18 C17 1_555 1_555
H11 C18 1_555 1_555
C19 C18 1_555 1_555
C20 C19 1_555 1_555
H12 C20 1_555 1_555
C21 C20 1_555 1_555
H13 C21 1_555 1_555
C22 C17 1_555 1_555
H14 C22 1_555 1_555
Zn16 O2 1_555 1_555
N11 Zn16 1_555 1_555
C13 C14 1_555 1_555
C21 C22 1_555 1_555

#END
