
###############################################################################
#
# This file contains modified crystal structure data generated from the
# MOF subset of the Cambridge Structural Database (CSD) v543 
# hosted by the Cambridge Crystallographic Data Centre (CCDC).
#
# This work is licensed under the Creative Commons
# Attribution-NonCommercial-ShareAlike 4.0 International License.
# To view a copy of this license, visit
# http://creativecommons.org/licenses/by-nc-sa/4.0/
# or send a letter to
# Creative Commons, PO Box 1866, Mountain View, CA 94042, USA.
#
# CIF created using the CSD Python API on 29 September 2022
# The structure has been converted into the P1 space group
# The structure has a 3D framework
# The original CSD entry XOVVOU is in the monoclinic crystal system
# The framework has been calculated to contain at least 10.0% void space
# The void calculation uses a probe of radius 1.32A, grid spacing 0.4
#
###############################################################################

data_XOVVOU
_chemical_formula_moiety         '(C132 H78 N58 O72 Zn16)n'
_symmetry_cell_setting           triclinic
_symmetry_space_group_name_H-M   'P 1'
_symmetry_Int_Tables_number      1
_space_group_name_Hall           'P 1'
loop_
_symmetry_equiv_pos_site_id
_symmetry_equiv_pos_as_xyz
1 x,y,z
_cell_length_a                   23.769(3)
_cell_length_b                   13.7612(13)
_cell_length_c                   14.0822(14)
_cell_angle_alpha                90
_cell_angle_beta                 92.911(2)
_cell_angle_gamma                90
_cell_volume                     4600.2
loop_
_atom_site_label
_atom_site_type_symbol
_atom_site_fract_x
_atom_site_fract_y
_atom_site_fract_z
N8 N -0.0000 0.0923(6) 0.2500
O3 O 0.5578(2) 0.0604(4) 0.1949(5)
H10 H 0.5761 0.1047 0.2202
O18 O 0.0438(3) 0.1340(4) 0.2725(5)
Zn1 Zn 0.30784(3) 0.84581(4) 0.01279(4)
Zn2 Zn 0.20778(3) 0.76890(4) 0.38988(4)
C1 C 0.2717(2) 0.8048(4) 0.2100(3)
H1 H 0.2947 0.8535 0.2362
C2 C 0.2133(3) 0.6902(4) 0.1940(4)
H2 H 0.1876 0.6418 0.2076
C3 C 0.1910(2) 0.5588(4) 0.4370(4)
H3 H 0.1665 0.5480 0.3845
C4 C 0.2440(3) 0.5350(4) 0.5587(4)
H4 H 0.2643 0.5048 0.6087
C5 C 0.4759(3) 0.8274(5) 0.0696(5)
C6 C 0.5029(3) 0.9066(5) 0.1114(6)
H5 H 0.4824 0.9616 0.1262
C7 C 0.5612(3) 0.9038(5) 0.1315(5)
C8 C 0.5914(3) 0.8213(5) 0.1134(5)
H6 H 0.6301 0.8190 0.1267
C9 C 0.5629(3) 0.7416(5) 0.0748(5)
C10 C 0.5055(3) 0.7443(5) 0.0517(5)
H7 H 0.4873 0.6906 0.0245
C11 C 0.4120(3) 0.8356(6) 0.0553(7)
C12 C 0.5913(3) 0.9877(5) 0.1777(6)
C13 C 0.0475(3) 0.8362(4) 0.2844(4)
C14 C 0.0000 0.7872(6) 0.2500
H8 H 0.0000 0.7197 0.2500
C15 C 0.0000 0.9856(6) 0.2500
C16 C 0.0479(3) 0.9371(4) 0.2864(5)
H9 H 0.0791 0.9712 0.3113
C17 C 0.0993(2) 0.7822(4) 0.3203(4)
N1 N 0.2689(2) 0.7819(3) 0.1181(3)
N2 N 0.2301(2) 0.7080(3) 0.1075(3)
N3 N 0.2375(2) 0.7498(3) 0.2605(3)
N4 N 0.21123(19) 0.6449(3) 0.4617(3)
N5 N 0.2459(2) 0.6303(3) 0.5414(3)
N6 N 0.2102(2) 0.4884(3) 0.4967(3)
N7 N 0.5940(3) 0.6517(5) 0.0635(5)
O2 O 0.3854(3) 0.8914(5) 0.1054(7)
O4 O 0.6419(2) 0.9892(4) 0.1974(4)
O5 O 0.6450(3) 0.6512(4) 0.0819(5)
O6 O 0.5669(3) 0.5788(4) 0.0382(5)
O7 O 0.13622(19) 0.8341(3) 0.3648(3)
O8 O 0.10527(19) 0.6956(3) 0.3059(4)
Zn5 Zn 0.19216(3) 0.34581(4) 0.48721(4)
Zn9 Zn 0.29222(3) 0.73110(4) 0.61012(4)
N16 N 0.2541(2) 0.8697(3) 0.4586(3)
N20 N 0.2898(2) 0.9884(3) 0.0033(3)
O1 O 0.3872(3) 0.7866(6) 0.9930(5)
Zn6 Zn 0.19216(3) 0.65419(4) 0.98721(4)
N11 N 0.2699(2) 0.7920(3) 0.8925(3)
C14_2 C 1.0000 0.7872(6) 0.2500
H8_2 H 1.0000 0.7197 0.2500
C15_2 C 1.0000 0.9856(6) 0.2500
Zn3 Zn 0.69216(3) 0.84581(4) 0.48721(4)
Zn4 Zn 0.80784(3) 0.34581(4) 0.01279(4)
Zn7 Zn 0.80784(3) 0.65419(4) 0.51279(4)
Zn8 Zn 0.79222(3) 0.76890(4) 0.11012(4)
C18 C 0.7283(2) 0.8048(4) 0.2900(3)
H11 H 0.7053 0.8535 0.2638
C19 C 0.7867(3) 0.6902(4) 0.3060(4)
H12 H 0.8124 0.6418 0.2924
C20 C 0.8090(2) 0.5588(4) 0.0630(4)
H13 H 0.8335 0.5480 0.1155
C22 C 0.5241(3) 0.8274(5) 0.4304(5)
C23 C 0.4971(3) 0.9066(5) 0.3886(6)
H15 H 0.5176 0.9616 0.3738
C24 C 0.4388(3) 0.9038(5) 0.3685(5)
C25 C 0.4086(3) 0.8213(5) 0.3866(5)
H16 H 0.3699 0.8190 0.3733
C26 C 0.4371(3) 0.7416(5) 0.4252(5)
C27 C 0.4945(3) 0.7443(5) 0.4483(5)
H17 H 0.5127 0.6906 0.4755
C28 C 0.5880(3) 0.8356(6) 0.4447(7)
C29 C 0.4087(3) 0.9877(5) 0.3223(6)
C30 C 0.9525(3) 0.8362(4) 0.2156(4)
C31 C 0.9521(3) 0.9371(4) 0.2136(5)
H18 H 0.9209 0.9712 0.1887
C32 C 0.9007(2) 0.7822(4) 0.1797(4)
N9 N 0.7311(2) 0.7819(3) 0.3819(3)
N10 N 0.7699(2) 0.7080(3) 0.3925(3)
N12 N 0.7301(2) 0.7920(3) 0.6075(3)
N13 N 0.7625(2) 0.7498(3) 0.2395(3)
N14 N 0.78877(19) 0.6449(3) 0.0383(3)
N17 N 0.7459(2) 0.8697(3) 0.0414(3)
N18 N 0.7898(2) 0.4884(3) 0.0033(3)
N19 N 0.7102(2) 0.9884(3) 0.4967(3)
N21 N 0.4060(3) 0.6517(5) 0.4365(5)
O10 O 0.6128(3) 0.7866(6) 0.5070(5)
O11 O 0.6146(3) 0.8914(5) 0.3946(7)
O13 O 0.3581(2) 0.9892(4) 0.3026(4)
O14 O 0.3550(3) 0.6512(4) 0.4181(5)
O15 O 0.4331(3) 0.5788(4) 0.4618(5)
O16 O 0.86378(19) 0.8341(3) 0.1352(3)
O17 O 0.89473(19) 0.6956(3) 0.1941(4)
Zn10 Zn 0.70778(3) 0.73110(4) 0.88988(4)
C21 C 0.7560(3) 0.5350(4) 0.9413(4)
H14 H 0.7357 0.5048 0.8913
N15 N 0.7541(2) 0.6303(3) 0.9586(3)
Zn2_2 Zn 0.70778(3) 0.26890(4) 0.38988(4)
C1_2 C 0.7717(2) 0.3048(4) 0.2100(3)
H1_2 H 0.7947 0.3535 0.2362
C2_2 C 0.7133(3) 0.1902(4) 0.1940(4)
H2_2 H 0.6876 0.1418 0.2076
C3_2 C 0.6910(2) 0.0588(4) 0.4370(4)
H3_2 H 0.6665 0.0480 0.3845
C4_2 C 0.7440(3) 0.0350(4) 0.5587(4)
H4_2 H 0.7643 0.0048 0.6087
C5_2 C 0.9759(3) 0.3274(5) 0.0696(5)
H5_2 H 0.9824 0.4616 0.1262
H7_2 H 0.9873 0.1906 0.0245
C11_2 C 0.9120(3) 0.3356(6) 0.0553(7)
C13_2 C 0.5475(3) 0.3362(4) 0.2844(4)
C14_3 C 0.5000 0.2872(6) 0.2500
H8_3 H 0.5000 0.2197 0.2500
C15_3 C 0.5000 0.4856(6) 0.2500
C16_2 C 0.5479(3) 0.4371(4) 0.2864(5)
H9_2 H 0.5791 0.4712 0.3113
C17_2 C 0.5993(2) 0.2822(4) 0.3203(4)
N1_2 N 0.7689(2) 0.2819(3) 0.1181(3)
N2_2 N 0.7301(2) 0.2080(3) 0.1075(3)
N3_2 N 0.7375(2) 0.2498(3) 0.2605(3)
N4_2 N 0.71123(19) 0.1449(3) 0.4617(3)
N5_2 N 0.7459(2) 0.1303(3) 0.5414(3)
N8_2 N 0.5000 0.5923(6) 0.2500
O2_2 O 0.8854(3) 0.3914(5) 0.1054(7)
O7_2 O 0.63622(19) 0.3341(3) 0.3648(3)
O8_2 O 0.60527(19) 0.1956(3) 0.3059(4)
O9 O 0.4562(3) 0.6340(4) 0.2275(5)
Zn7_2 Zn 0.30784(3) 0.15419(4) 0.51279(4)
Zn8_2 Zn 0.29222(3) 0.26890(4) 0.11012(4)
Zn9_2 Zn 0.79222(3) 0.23110(4) 0.61012(4)
C18_2 C 0.2283(2) 0.3048(4) 0.2900(3)
H11_2 H 0.2053 0.3535 0.2638
C19_2 C 0.2867(3) 0.1902(4) 0.3060(4)
H12_2 H 0.3124 0.1418 0.2924
C20_2 C 0.3090(2) 0.0588(4) 0.0630(4)
H13_2 H 0.3335 0.0480 0.1155
C22_2 C 0.0241(3) 0.3274(5) 0.4304(5)
H15_2 H 0.0176 0.4616 0.3738
H17_2 H 0.0127 0.1906 0.4755
C28_2 C 0.0880(3) 0.3356(6) 0.4447(7)
C30_2 C 0.4525(3) 0.3362(4) 0.2156(4)
C31_2 C 0.4521(3) 0.4371(4) 0.2136(5)
H18_2 H 0.4209 0.4712 0.1887
C32_2 C 0.4007(2) 0.2822(4) 0.1797(4)
N9_2 N 0.2311(2) 0.2819(3) 0.3819(3)
N10_2 N 0.2699(2) 0.2080(3) 0.3925(3)
N12_2 N 0.2301(2) 0.2920(3) 0.6075(3)
N13_2 N 0.2625(2) 0.2498(3) 0.2395(3)
N14_2 N 0.28877(19) 0.1449(3) 0.0383(3)
N16_2 N 0.7541(2) 0.3697(3) 0.4586(3)
N17_2 N 0.2459(2) 0.3697(3) 0.0414(3)
O10_2 O 0.1128(3) 0.2866(6) 0.5070(5)
O11_2 O 0.1146(3) 0.3914(5) 0.3946(7)
O16_2 O 0.36378(19) 0.3341(3) 0.1352(3)
O17_2 O 0.39473(19) 0.1956(3) 0.1941(4)
O18_2 O 0.5438(3) 0.6340(4) 0.2725(5)
O1_2 O 0.8872(3) 0.2866(6) 0.9930(5)
Zn6_2 Zn 0.69216(3) 0.15419(4) 0.98721(4)
Zn10_2 Zn 0.20778(3) 0.23110(4) 0.88988(4)
C21_2 C 0.2560(3) 0.0350(4) 0.9413(4)
H14_2 H 0.2357 0.0048 0.8913
N11_2 N 0.7699(2) 0.2920(3) 0.8925(3)
N15_2 N 0.2541(2) 0.1303(3) 0.9586(3)
C21_3 C 0.2440(3) 0.4650(4) 0.0587(4)
H14_3 H 0.2643 0.4952 0.1087
C14_4 C 0.0000 0.2128(6) 0.7500
H8_4 H -0.0000 0.2803 0.7500
C15_4 C -0.0000 0.0144(6) 0.7500
C18_3 C 0.2717(2) 0.1952(4) 0.7100(3)
H11_3 H 0.2947 0.1465 0.7362
C19_3 C 0.2133(3) 0.3098(4) 0.6940(4)
H12_3 H 0.1876 0.3582 0.7076
C20_3 C 0.1910(2) 0.4412(4) 0.9370(4)
H13_3 H 0.1665 0.4520 0.8845
C22_3 C 0.4759(3) 0.1726(5) 0.5696(5)
C23_2 C 0.5029(3) 0.0934(5) 0.6114(6)
H15_3 H 0.4824 0.0384 0.6262
C24_2 C 0.5612(3) 0.0962(5) 0.6315(5)
C25_2 C 0.5914(3) 0.1787(5) 0.6134(5)
H16_2 H 0.6301 0.1810 0.6267
C26_2 C 0.5629(3) 0.2584(5) 0.5748(5)
C27_2 C 0.5055(3) 0.2557(5) 0.5517(5)
H17_3 H 0.4873 0.3094 0.5245
C28_3 C 0.4120(3) 0.1644(6) 0.5553(7)
C29_2 C 0.5913(3) 0.0123(5) 0.6777(6)
C30_3 C 0.0475(3) 0.1638(4) 0.7844(4)
C31_3 C 0.0479(3) 0.0629(4) 0.7864(5)
H18_3 H 0.0791 0.0288 0.8113
C32_3 C 0.0993(2) 0.2178(4) 0.8203(4)
N9_3 N 0.2689(2) 0.2181(3) 0.6181(3)
N13_3 N 0.2375(2) 0.2502(3) 0.7605(3)
N14_3 N 0.21123(19) 0.3551(3) 0.9617(3)
N18_2 N 0.2102(2) 0.5116(3) 0.9967(3)
N19_2 N 0.2898(2) 0.0116(3) 0.5033(3)
N21_2 N 0.5940(3) 0.3483(5) 0.5635(5)
O10_3 O 0.3872(3) 0.2134(6) 0.4930(5)
O11_3 O 0.3854(3) 0.1086(5) 0.6054(7)
O13_2 O 0.6419(2) 0.0108(4) 0.6974(4)
O14_2 O 0.6450(3) 0.3488(4) 0.5819(5)
O15_2 O 0.5669(3) 0.4212(4) 0.5382(5)
O16_3 O 0.13622(19) 0.1659(3) 0.8648(3)
O17_3 O 0.10527(19) 0.3044(3) 0.8059(4)
O1_3 O 0.6128(3) 0.2134(6) 0.0070(5)
C1_3 C 0.7283(2) 0.1952(4) 0.7900(3)
H1_3 H 0.7053 0.1465 0.7638
C2_3 C 0.7867(3) 0.3098(4) 0.8060(4)
H2_3 H 0.8124 0.3582 0.7924
C3_3 C 0.8090(2) 0.4412(4) 0.5630(4)
H3_3 H 0.8335 0.4520 0.6155
C4_3 C 0.7560(3) 0.4650(4) 0.4413(4)
H4_3 H 0.7357 0.4952 0.3913
C5_3 C 0.5241(3) 0.1726(5) 0.9304(5)
C6_2 C 0.4971(3) 0.0934(5) 0.8886(6)
H5_3 H 0.5176 0.0384 0.8738
C7_2 C 0.4388(3) 0.0962(5) 0.8685(5)
C8_2 C 0.4086(3) 0.1787(5) 0.8866(5)
H6_2 H 0.3699 0.1810 0.8733
C9_2 C 0.4371(3) 0.2584(5) 0.9252(5)
C10_2 C 0.4945(3) 0.2557(5) 0.9483(5)
H7_3 H 0.5127 0.3094 0.9755
C11_3 C 0.5880(3) 0.1644(6) 0.9447(7)
C12_2 C 0.4087(3) 0.0123(5) 0.8223(6)
C13_3 C 0.9525(3) 0.1638(4) 0.7156(4)
C14_5 C 1.0000 0.2128(6) 0.7500
H8_5 H 1.0000 0.2803 0.7500
C15_5 C 1.0000 0.0144(6) 0.7500
C16_3 C 0.9521(3) 0.0629(4) 0.7136(5)
H9_3 H 0.9209 0.0288 0.6887
C17_3 C 0.9007(2) 0.2178(4) 0.6797(4)
N1_3 N 0.7311(2) 0.2181(3) 0.8819(3)
N3_3 N 0.7625(2) 0.2502(3) 0.7395(3)
N4_3 N 0.78877(19) 0.3551(3) 0.5383(3)
N6_2 N 0.7898(2) 0.5116(3) 0.5033(3)
N7_2 N 0.4060(3) 0.3483(5) 0.9365(5)
O2_3 O 0.6146(3) 0.1086(5) 0.8946(7)
O4_2 O 0.3581(2) 0.0108(4) 0.8026(4)
O5_2 O 0.3550(3) 0.3488(4) 0.9181(5)
O6_2 O 0.4331(3) 0.4212(4) 0.9618(5)
O7_3 O 0.86378(19) 0.1659(3) 0.6352(3)
O8_3 O 0.89473(19) 0.3044(3) 0.6941(4)
N20_2 N 0.7102(2) 0.0116(3) 0.9967(3)
O1_4 O 0.1128(3) 0.7134(6) 0.0070(5)
C21_4 C 0.7440(3) 0.9650(4) 0.0587(4)
H14_4 H 0.7643 0.9952 0.1087
C1_4 C 0.2283(2) 0.6952(4) 0.7900(3)
H1_4 H 0.2053 0.6465 0.7638
C2_4 C 0.2867(3) 0.8098(4) 0.8060(4)
H2_4 H 0.3124 0.8582 0.7924
C3_4 C 0.3090(2) 0.9412(4) 0.5630(4)
H3_4 H 0.3335 0.9520 0.6155
C4_4 C 0.2560(3) 0.9650(4) 0.4413(4)
H4_4 H 0.2357 0.9952 0.3913
C5_4 C 0.0241(3) 0.6726(5) 0.9304(5)
H5_4 H 0.0176 0.5384 0.8738
H7_4 H 0.0127 0.8094 0.9755
C11_4 C 0.0880(3) 0.6644(6) 0.9447(7)
C13_4 C 0.4525(3) 0.6638(4) 0.7156(4)
C14_6 C 0.5000 0.7128(6) 0.7500
H8_6 H 0.5000 0.7803 0.7500
C15_6 C 0.5000 0.5144(6) 0.7500
C16_4 C 0.4521(3) 0.5629(4) 0.7136(5)
H9_4 H 0.4209 0.5288 0.6887
C17_4 C 0.4007(2) 0.7178(4) 0.6797(4)
N1_4 N 0.2311(2) 0.7181(3) 0.8819(3)
N3_4 N 0.2625(2) 0.7502(3) 0.7395(3)
N4_4 N 0.28877(19) 0.8551(3) 0.5383(3)
N8_3 N 0.5000 0.4077(6) 0.7500
O2_4 O 0.1146(3) 0.6086(5) 0.8946(7)
O7_4 O 0.36378(19) 0.6659(3) 0.6352(3)
O8_4 O 0.39473(19) 0.8044(3) 0.6941(4)
O9_2 O 0.5438(3) 0.3660(4) 0.7725(5)
C18_4 C 0.7717(2) 0.6952(4) 0.7100(3)
H11_4 H 0.7947 0.6465 0.7362
C19_4 C 0.7133(3) 0.8098(4) 0.6940(4)
H12_4 H 0.6876 0.8582 0.7076
C20_4 C 0.6910(2) 0.9412(4) 0.9370(4)
H13_4 H 0.6665 0.9520 0.8845
C22_4 C 0.9759(3) 0.6726(5) 0.5696(5)
H15_4 H 0.9824 0.5384 0.6262
H17_4 H 0.9873 0.8094 0.5245
C28_4 C 0.9120(3) 0.6644(6) 0.5553(7)
C30_4 C 0.5475(3) 0.6638(4) 0.7844(4)
C31_4 C 0.5479(3) 0.5629(4) 0.7864(5)
H18_4 H 0.5791 0.5288 0.8113
C32_4 C 0.5993(2) 0.7178(4) 0.8203(4)
N9_4 N 0.7689(2) 0.7181(3) 0.6181(3)
N13_4 N 0.7375(2) 0.7502(3) 0.7605(3)
N14_4 N 0.71123(19) 0.8551(3) 0.9617(3)
O10_4 O 0.8872(3) 0.7134(6) 0.4930(5)
O11_4 O 0.8854(3) 0.6086(5) 0.6054(7)
O16_4 O 0.63622(19) 0.6659(3) 0.8648(3)
O17_4 O 0.60527(19) 0.8044(3) 0.8059(4)
O18_3 O 0.4562(3) 0.3660(4) 0.7275(5)
N8_4 N 1.0000 0.0923(6) 0.2500
O9_3 O 0.9562(3) 0.1340(4) 0.2275(5)
O12 O 0.4422(2) 0.0604(4) 0.3051(5)
H19 H 0.4239 0.1047 0.2798
C6_3 C 0.0029(3) 0.4066(5) 0.1114(6)
C7_3 C 0.0612(3) 0.4038(5) 0.1315(5)
C8_3 C 0.0914(3) 0.3213(5) 0.1134(5)
H6_3 H 0.1301 0.3190 0.1267
C9_3 C 0.0629(3) 0.2416(5) 0.0748(5)
C10_3 C 0.0055(3) 0.2443(5) 0.0517(5)
C12_3 C 0.0913(3) 0.4877(5) 0.1777(6)
N7_3 N 0.0940(3) 0.1517(5) 0.0635(5)
O3_2 O 0.0578(2) 0.5604(4) 0.1949(5)
H10_2 H 0.0761 0.6047 0.2202
O4_3 O 0.1419(2) 0.4892(4) 0.1974(4)
O5_3 O 0.1450(3) 0.1512(4) 0.0819(5)
O6_3 O 0.0669(3) 0.0788(4) 0.0382(5)
C23_3 C 0.9971(3) 0.4066(5) 0.3886(6)
C24_3 C 0.9388(3) 0.4038(5) 0.3685(5)
C25_3 C 0.9086(3) 0.3213(5) 0.3866(5)
H16_3 H 0.8699 0.3190 0.3733
C26_3 C 0.9371(3) 0.2416(5) 0.4252(5)
C27_3 C 0.9945(3) 0.2443(5) 0.4483(5)
C29_3 C 0.9087(3) 0.4877(5) 0.3223(6)
N21_3 N 0.9060(3) 0.1517(5) 0.4365(5)
O12_2 O 0.9422(2) 0.5604(4) 0.3051(5)
H19_2 H 0.9239 0.6047 0.2798
O13_3 O 0.8581(2) 0.4892(4) 0.3026(4)
O14_3 O 0.8550(3) 0.1512(4) 0.4181(5)
O15_3 O 0.9331(3) 0.0788(4) 0.4618(5)
N8_5 N 0.0000 0.9077(6) 0.7500
O9_4 O 0.0438(3) 0.8660(4) 0.7725(5)
O12_3 O 0.5578(2) 0.9396(4) 0.6949(5)
H19_3 H 0.5761 0.8953 0.7202
N8_6 N 1.0000 0.9077(6) 0.7500
O3_3 O 0.4422(2) 0.9396(4) 0.8051(5)
H10_3 H 0.4239 0.8953 0.7798
O18_4 O 0.9562(3) 0.8660(4) 0.7275(5)
C23_4 C 0.0029(3) 0.5934(5) 0.6114(6)
C24_4 C 0.0612(3) 0.5962(5) 0.6315(5)
C25_4 C 0.0914(3) 0.6787(5) 0.6134(5)
H16_4 H 0.1301 0.6810 0.6267
C26_4 C 0.0629(3) 0.7584(5) 0.5748(5)
C27_4 C 0.0055(3) 0.7557(5) 0.5517(5)
C29_4 C 0.0913(3) 0.5123(5) 0.6777(6)
N21_4 N 0.0940(3) 0.8483(5) 0.5635(5)
O12_4 O 0.0578(2) 0.4396(4) 0.6949(5)
H19_4 H 0.0761 0.3953 0.7202
O13_4 O 0.1419(2) 0.5108(4) 0.6974(4)
O14_4 O 0.1450(3) 0.8488(4) 0.5819(5)
O15_4 O 0.0669(3) 0.9212(4) 0.5382(5)
C6_4 C 0.9971(3) 0.5934(5) 0.8886(6)
C7_4 C 0.9388(3) 0.5962(5) 0.8685(5)
C8_4 C 0.9086(3) 0.6787(5) 0.8866(5)
H6_4 H 0.8699 0.6810 0.8733
C9_4 C 0.9371(3) 0.7584(5) 0.9252(5)
C10_4 C 0.9945(3) 0.7557(5) 0.9483(5)
C12_4 C 0.9087(3) 0.5123(5) 0.8223(6)
N7_4 N 0.9060(3) 0.8483(5) 0.9365(5)
O3_4 O 0.9422(2) 0.4396(4) 0.8051(5)
H10_4 H 0.9239 0.3953 0.7798
O4_4 O 0.8581(2) 0.5108(4) 0.8026(4)
O5_4 O 0.8550(3) 0.8488(4) 0.9181(5)
O6_4 O 0.9331(3) 0.9212(4) 0.9618(5)
loop_
_geom_bond_atom_site_label_1
_geom_bond_atom_site_label_2
_geom_bond_site_symmetry_1
_geom_bond_site_symmetry_2
H10 O3 1_555 1_555
O18 N8 1_555 1_555
Zn1 N1 1_555 1_555
Zn2 N3 1_555 1_555
C1 H1 1_555 1_555
C2 H2 1_555 1_555
C3 H3 1_555 1_555
C4 H4 1_555 1_555
C5 C6 1_555 1_555
C6 H5 1_555 1_555
C7 C6 1_555 1_555
C8 C7 1_555 1_555
H6 C8 1_555 1_555
C9 C8 1_555 1_555
C10 C5 1_555 1_555
H7 C10 1_555 1_555
C11 C5 1_555 1_555
C12 C7 1_555 1_555
C13 C14 1_555 1_555
C14 H8 1_555 1_555
C15 C16 1_555 1_555
C16 C13 1_555 1_555
H9 C16 1_555 1_555
C17 C13 1_555 1_555
N1 C1 1_555 1_555
N2 C2 1_555 1_555
N3 C1 1_555 1_555
N4 Zn2 1_555 1_555
N5 C4 1_555 1_555
N6 C3 1_555 1_555
N7 C9 1_555 1_555
O2 Zn1 1_555 1_555
O4 C12 1_555 1_555
O5 N7 1_555 1_555
O6 N7 1_555 1_555
O7 Zn2 1_555 1_555
O8 C17 1_555 1_555
Zn5 N6 1_555 1_555
Zn9 N5 1_555 1_555
N16 Zn2 1_555 1_555
N20 Zn1 1_555 1_555
C2 N3 1_555 1_555
C3 N4 1_555 1_555
C4 N6 1_555 1_555
C9 C10 1_555 1_555
C11 O2 1_555 1_555
C17 O7 1_555 1_555
N1 N2 1_555 1_555
N4 N5 1_555 1_555
C14_2 H8_2 1_555 1_555
Zn3 N9 1_555 1_555
Zn4 N18 1_555 1_555
Zn7 N10 1_555 1_555
Zn8 N13 1_555 1_555
C18 H11 1_555 1_555
C19 H12 1_555 1_555
C20 H13 1_555 1_555
C22 C23 1_555 1_555
C23 H15 1_555 1_555
C24 C23 1_555 1_555
C25 C24 1_555 1_555
H16 C25 1_555 1_555
C26 C25 1_555 1_555
C27 C22 1_555 1_555
H17 C27 1_555 1_555
C28 C22 1_555 1_555
C29 C24 1_555 1_555
C30 C14_2 1_555 1_555
C31 C15_2 1_555 1_555
H18 C31 1_555 1_555
C32 C30 1_555 1_555
N9 C18 1_555 1_555
N10 C19 1_555 1_555
N12 Zn3 1_555 1_555
N13 C18 1_555 1_555
N14 Zn8 1_555 1_555
N17 Zn8 1_555 1_555
N18 C20 1_555 1_555
N19 Zn3 1_555 1_555
N21 C26 1_555 1_555
O10 Zn3 1_555 1_555
O11 Zn3 1_555 1_555
O13 C29 1_555 1_555
O14 N21 1_555 1_555
O15 N21 1_555 1_555
O16 Zn8 1_555 1_555
O17 C32 1_555 1_555
C19 N13 1_555 1_555
C20 N14 1_555 1_555
C26 C27 1_555 1_555
C28 O10 1_555 1_555
C28 O11 1_555 1_555
C30 C31 1_555 1_555
C32 O16 1_555 1_555
N9 N10 1_555 1_555
Zn10 N15 1_555 1_555
C21 H14 1_555 1_555
N15 C21 1_555 1_555
Zn4 N1_2 1_555 1_555
Zn2_2 N3_2 1_555 1_555
C1_2 H1_2 1_555 1_555
C2_2 H2_2 1_555 1_555
C3_2 H3_2 1_555 1_555
C4_2 H4_2 1_555 1_555
C11_2 C5_2 1_555 1_555
C13_2 C14_3 1_555 1_555
C14_3 H8_3 1_555 1_555
C15_3 C16_2 1_555 1_555
C16_2 C13_2 1_555 1_555
H9_2 C16_2 1_555 1_555
C17_2 C13_2 1_555 1_555
N1_2 C1_2 1_555 1_555
N2_2 C2_2 1_555 1_555
N3_2 C1_2 1_555 1_555
N4_2 Zn2_2 1_555 1_555
N5_2 C4_2 1_555 1_555
N8_2 C15_3 1_555 1_555
O2_2 Zn4 1_555 1_555
O7_2 Zn2_2 1_555 1_555
O8_2 C17_2 1_555 1_555
O9 N8_2 1_555 1_555
Zn5 N9_2 1_555 1_555
Zn7_2 N10_2 1_555 1_555
Zn8_2 N13_2 1_555 1_555
Zn9_2 N5_2 1_555 1_555
C18_2 H11_2 1_555 1_555
C19_2 H12_2 1_555 1_555
C20_2 H13_2 1_555 1_555
C28_2 C22_2 1_555 1_555
C30_2 C14_3 1_555 1_555
C31_2 C15_3 1_555 1_555
H18_2 C31_2 1_555 1_555
C32_2 C30_2 1_555 1_555
N9_2 C18_2 1_555 1_555
N10_2 C19_2 1_555 1_555
N12_2 Zn5 1_555 1_555
N13_2 C18_2 1_555 1_555
N14_2 Zn8_2 1_555 1_555
N16_2 Zn2_2 1_555 1_555
N17_2 Zn8_2 1_555 1_555
O10_2 Zn5 1_555 1_555
O11_2 Zn5 1_555 1_555
O16_2 Zn8_2 1_555 1_555
O17_2 C32_2 1_555 1_555
O18_2 N8_2 1_555 1_555
C2_2 N3_2 1_555 1_555
C3_2 N4_2 1_555 1_555
C11_2 O2_2 1_555 1_555
C17_2 O7_2 1_555 1_555
N1_2 N2_2 1_555 1_555
N4_2 N5_2 1_555 1_555
C19_2 N13_2 1_555 1_555
C20_2 N14_2 1_555 1_555
C28_2 O10_2 1_555 1_555
C28_2 O11_2 1_555 1_555
C30_2 C31_2 1_555 1_555
C32_2 O16_2 1_555 1_555
N9_2 N10_2 1_555 1_555
Zn10_2 N15_2 1_555 1_555
C21_2 H14_2 1_555 1_555
N15_2 C21_2 1_555 1_555
C21_3 H14_3 1_555 1_555
N17_2 C21_3 1_555 1_555
C14_4 H8_4 1_555 1_555
Zn7_2 N9_3 1_555 1_555
Zn6 N18_2 1_555 1_555
Zn10_2 N13_3 1_555 1_555
C18_3 H11_3 1_555 1_555
C19_3 H12_3 1_555 1_555
C20_3 H13_3 1_555 1_555
C22_3 C23_2 1_555 1_555
C23_2 H15_3 1_555 1_555
C24_2 C23_2 1_555 1_555
C25_2 C24_2 1_555 1_555
H16_2 C25_2 1_555 1_555
C26_2 C25_2 1_555 1_555
C27_2 C22_3 1_555 1_555
H17_3 C27_2 1_555 1_555
C28_3 C22_3 1_555 1_555
C29_2 C24_2 1_555 1_555
C30_3 C14_4 1_555 1_555
C31_3 C15_4 1_555 1_555
H18_3 C31_3 1_555 1_555
C32_3 C30_3 1_555 1_555
N9_3 C18_3 1_555 1_555
N12_2 C19_3 1_555 1_555
N13_3 C18_3 1_555 1_555
N14_3 Zn10_2 1_555 1_555
N18_2 C20_3 1_555 1_555
N19_2 Zn7_2 1_555 1_555
N21_2 C26_2 1_555 1_555
O10_3 Zn7_2 1_555 1_555
O11_3 Zn7_2 1_555 1_555
O13_2 C29_2 1_555 1_555
O14_2 N21_2 1_555 1_555
O15_2 N21_2 1_555 1_555
O16_3 Zn10_2 1_555 1_555
O17_3 C32_3 1_555 1_555
C19_3 N13_3 1_555 1_555
C20_3 N14_3 1_555 1_555
C26_2 C27_2 1_555 1_555
C28_3 O10_3 1_555 1_555
C28_3 O11_3 1_555 1_555
C30_3 C31_3 1_555 1_555
C32_3 O16_3 1_555 1_555
N9_3 N12_2 1_555 1_555
Zn6_2 N1_3 1_555 1_555
Zn9_2 N3_3 1_555 1_555
C1_3 H1_3 1_555 1_555
C2_3 H2_3 1_555 1_555
C3_3 H3_3 1_555 1_555
C4_3 H4_3 1_555 1_555
C5_3 C6_2 1_555 1_555
C6_2 H5_3 1_555 1_555
C7_2 C6_2 1_555 1_555
C8_2 C7_2 1_555 1_555
H6_2 C8_2 1_555 1_555
C9_2 C8_2 1_555 1_555
C10_2 C5_3 1_555 1_555
H7_3 C10_2 1_555 1_555
C11_3 C5_3 1_555 1_555
C12_2 C7_2 1_555 1_555
C13_3 C14_5 1_555 1_555
C14_5 H8_5 1_555 1_555
C15_5 C16_3 1_555 1_555
C16_3 C13_3 1_555 1_555
H9_3 C16_3 1_555 1_555
C17_3 C13_3 1_555 1_555
N1_3 C1_3 1_555 1_555
N11_2 C2_3 1_555 1_555
N3_3 C1_3 1_555 1_555
N4_3 Zn9_2 1_555 1_555
N16_2 C4_3 1_555 1_555
N6_2 C3_3 1_555 1_555
N7_2 C9_2 1_555 1_555
O2_3 Zn6_2 1_555 1_555
O4_2 C12_2 1_555 1_555
O5_2 N7_2 1_555 1_555
O6_2 N7_2 1_555 1_555
O7_3 Zn9_2 1_555 1_555
O8_3 C17_3 1_555 1_555
Zn7 N6_2 1_555 1_555
N20_2 Zn6_2 1_555 1_555
C2_3 N3_3 1_555 1_555
C3_3 N4_3 1_555 1_555
C4_3 N6_2 1_555 1_555
C9_2 C10_2 1_555 1_555
C11_3 O2_3 1_555 1_555
C17_3 O7_3 1_555 1_555
N1_3 N11_2 1_555 1_555
N4_3 N16_2 1_555 1_555
C21_4 H14_4 1_555 1_555
N17 C21_4 1_555 1_555
Zn6 N1_4 1_555 1_555
Zn9 N3_4 1_555 1_555
C1_4 H1_4 1_555 1_555
C2_4 H2_4 1_555 1_555
C3_4 H3_4 1_555 1_555
C4_4 H4_4 1_555 1_555
C11_4 C5_4 1_555 1_555
C13_4 C14_6 1_555 1_555
C14_6 H8_6 1_555 1_555
C15_6 C16_4 1_555 1_555
C16_4 C13_4 1_555 1_555
H9_4 C16_4 1_555 1_555
C17_4 C13_4 1_555 1_555
N1_4 C1_4 1_555 1_555
N11 C2_4 1_555 1_555
N3_4 C1_4 1_555 1_555
N4_4 Zn9 1_555 1_555
N16 C4_4 1_555 1_555
N8_3 C15_6 1_555 1_555
O2_4 Zn6 1_555 1_555
O7_4 Zn9 1_555 1_555
O8_4 C17_4 1_555 1_555
O9_2 N8_3 1_555 1_555
Zn7 N9_4 1_555 1_555
Zn10 N13_4 1_555 1_555
C18_4 H11_4 1_555 1_555
C19_4 H12_4 1_555 1_555
C20_4 H13_4 1_555 1_555
C28_4 C22_4 1_555 1_555
C30_4 C14_6 1_555 1_555
C31_4 C15_6 1_555 1_555
H18_4 C31_4 1_555 1_555
C32_4 C30_4 1_555 1_555
N9_4 C18_4 1_555 1_555
N12 C19_4 1_555 1_555
N13_4 C18_4 1_555 1_555
N14_4 Zn10 1_555 1_555
O10_4 Zn7 1_555 1_555
O11_4 Zn7 1_555 1_555
O16_4 Zn10 1_555 1_555
O17_4 C32_4 1_555 1_555
O18_3 N8_3 1_555 1_555
C2_4 N3_4 1_555 1_555
C3_4 N4_4 1_555 1_555
C11_4 O2_4 1_555 1_555
C17_4 O7_4 1_555 1_555
N1_4 N11 1_555 1_555
N4_4 N16 1_555 1_555
C19_4 N13_4 1_555 1_555
C20_4 N14_4 1_555 1_555
C28_4 O10_4 1_555 1_555
C28_4 O11_4 1_555 1_555
C30_4 C31_4 1_555 1_555
C32_4 O16_4 1_555 1_555
N9_4 N12 1_555 1_555
O9_3 N8_4 1_555 1_555
H19 O12 1_555 1_555
C7_3 C6_3 1_555 1_555
C8_3 C7_3 1_555 1_555
H6_3 C8_3 1_555 1_555
C9_3 C8_3 1_555 1_555
C12_3 C7_3 1_555 1_555
N7_3 C9_3 1_555 1_555
O3_2 C12_3 1_555 1_555
H10_2 O3_2 1_555 1_555
O4_3 C12_3 1_555 1_555
O5_3 N7_3 1_555 1_555
O6_3 N7_3 1_555 1_555
C9_3 C10_3 1_555 1_555
C24_3 C23_3 1_555 1_555
C25_3 C24_3 1_555 1_555
H16_3 C25_3 1_555 1_555
C26_3 C25_3 1_555 1_555
C29_3 C24_3 1_555 1_555
N21_3 C26_3 1_555 1_555
O12_2 C29_3 1_555 1_555
H19_2 O12_2 1_555 1_555
O13_3 C29_3 1_555 1_555
O14_3 N21_3 1_555 1_555
O15_3 N21_3 1_555 1_555
C26_3 C27_3 1_555 1_555
O9_4 N8_5 1_555 1_555
H19_3 O12_3 1_555 1_555
H10_3 O3_3 1_555 1_555
O18_4 N8_6 1_555 1_555
C24_4 C23_4 1_555 1_555
C25_4 C24_4 1_555 1_555
H16_4 C25_4 1_555 1_555
C26_4 C25_4 1_555 1_555
C29_4 C24_4 1_555 1_555
N21_4 C26_4 1_555 1_555
O12_4 C29_4 1_555 1_555
H19_4 O12_4 1_555 1_555
O13_4 C29_4 1_555 1_555
O14_4 N21_4 1_555 1_555
O15_4 N21_4 1_555 1_555
C26_4 C27_4 1_555 1_555
C7_4 C6_4 1_555 1_555
C8_4 C7_4 1_555 1_555
H6_4 C8_4 1_555 1_555
C9_4 C8_4 1_555 1_555
C12_4 C7_4 1_555 1_555
N7_4 C9_4 1_555 1_555
O3_4 C12_4 1_555 1_555
H10_4 O3_4 1_555 1_555
O4_4 C12_4 1_555 1_555
O5_4 N7_4 1_555 1_555
O6_4 N7_4 1_555 1_555
C9_4 C10_4 1_555 1_555

#END
