
###############################################################################
#
# This file contains modified crystal structure data generated from the
# MOF subset of the Cambridge Structural Database (CSD) v543 
# hosted by the Cambridge Crystallographic Data Centre (CCDC).
#
# This work is licensed under the Creative Commons
# Attribution-NonCommercial-ShareAlike 4.0 International License.
# To view a copy of this license, visit
# http://creativecommons.org/licenses/by-nc-sa/4.0/
# or send a letter to
# Creative Commons, PO Box 1866, Mountain View, CA 94042, USA.
#
# CIF created using the CSD Python API on 29 September 2022
# The structure has been converted into the P1 space group
# The structure has a 3D framework
# The original CSD entry XOVVIO is in the triclinic crystal system
# The framework has been calculated to contain at least 10.0% void space
# The void calculation uses a probe of radius 1.32A, grid spacing 0.4
# H atom positions have been added when not included in the experimental data
# Generated hydrogen atom positions removed from atoms on special positions
#
###############################################################################

data_XOVVIO
_chemical_formula_moiety         '(C44 H36 N18 O22 Zn10)n'
_symmetry_cell_setting           triclinic
_symmetry_space_group_name_H-M   'P 1'
_symmetry_Int_Tables_number      1
_space_group_name_Hall           'P 1'
loop_
_symmetry_equiv_pos_site_id
_symmetry_equiv_pos_as_xyz
1 x,y,z
_cell_length_a                   9.924(2)
_cell_length_b                   11.738(2)
_cell_length_c                   15.203(3)
_cell_angle_alpha                94.77(3)
_cell_angle_beta                 98.94(3)
_cell_angle_gamma                112.62(3)
_cell_volume                     1594.92
loop_
_atom_site_label
_atom_site_type_symbol
_atom_site_fract_x
_atom_site_fract_y
_atom_site_fract_z
O6 O 0.1357(5) 0.1513(5) 0.2092(3)
O7 O 0.0790(5) 0.3131(5) 0.2353(4)
O8 O 0.4601(5) 0.7107(5) 0.4015(4)
O9 O 0.6883(5) 0.7292(5) 0.4580(4)
O10 O 0.6556(7) 0.2842(6) 0.3790(6)
H2 H 0.7372 0.3313 0.4095
C4 C 0.2242(7) 0.0218(6) 0.3925(4)
H6 H 0.1724 0.0675 0.4113
C15 C 0.1715(7) 0.2595(7) 0.2448(4)
C16 C 0.5584(7) 0.6640(7) 0.4182(4)
C17 C 0.3231(7) 0.3345(6) 0.3007(4)
C18 C 0.3671(7) 0.4595(6) 0.3354(4)
H12 H 0.3004 0.4974 0.3250
C19 C 0.5086(7) 0.5274(6) 0.3849(4)
C20 C 0.6086(8) 0.4718(8) 0.4009(5)
H13 H 0.7044 0.5179 0.4345
C21 C 0.5649(7) 0.3477(7) 0.3668(5)
C22 C 0.4222(8) 0.2794(7) 0.3158(5)
H14 H 0.3938 0.1961 0.2919
N6 N 0.3436(6) 0.0216(5) 0.4421(3)
Zn10 Zn 0.55672(7) 0.89140(7) 0.43165(5)
Zn12 Zn 0.44328(7) 0.10860(7) 0.56835(5)
Zn2 Zn 0.01456(7) 0.93243(7) 0.20794(5)
C3 C 0.2871(7) 0.9024(7) 0.3156(4)
H5 H 0.2893 0.8472 0.2688
N4 N 0.1836(6) 0.9499(5) 0.3120(3)
N5 N 0.3858(6) 0.9425(5) 0.3925(3)
H18 H 0.0634 0.1772 0.0092
N12 N 0.0998(5) 0.9325(5) 0.0963(3)
C6 C 0.7067(7) 0.0457(7) 0.2962(4)
H8 H 0.6444 0.0881 0.2918
N8 N 0.8144(6) 0.0644(5) 0.2501(3)
Zn16 Zn 0.88625(8) 0.18484(7) 0.16654(5)
Zn1 Zn 0.5000 0.0000 0.0000
O1 O 0.5658(5) 0.1516(4) 0.1114(3)
O2 O 0.7914(5) 0.3025(5) 0.1632(4)
O3 O 0.8920(5) 0.7448(4) 0.1946(3)
O4 O 0.7288(6) 0.7983(5) 0.1114(4)
O5 O 0.2464(5) 0.4002(5) 0.0638(4)
H1 H 0.2302 0.4632 0.0599
H3 H 0.3182 0.0349 0.1445
C5 C 0.8058(7) 0.9230(7) 0.3332(5)
H7 H 0.8269 0.8622 0.3606
C7 C 0.6511(7) 0.2653(6) 0.1337(4)
C8 C 0.7611(7) 0.7170(6) 0.1475(5)
C9 C 0.5951(7) 0.3657(6) 0.1266(4)
C10 C 0.6977(7) 0.4903(6) 0.1466(5)
H9 H 0.7984 0.5095 0.1673
C11 C 0.6494(7) 0.5854(6) 0.1356(4)
C12 C 0.4987(8) 0.5571(7) 0.1082(5)
H10 H 0.4660 0.6208 0.1014
C13 C 0.3969(7) 0.4335(7) 0.0909(5)
C14 C 0.4432(7) 0.3369(6) 0.0993(4)
H11 H 0.3742 0.2542 0.0870
N7 N 0.8787(6) 0.9825(5) 0.2743(3)
N9 N 0.6975(6) 0.9591(5) 0.3499(3)
N14 N 0.8602(6) 0.1145(5) 0.0384(3)
N20 N 0.6564(6) 0.9784(5) 0.5579(3)
Zn1_2 Zn 0.5000 0.0000 1.0000
Zn7 Zn 0.98544(7) 0.06757(7) 0.79206(5)
O26 O 0.4965(6) 0.1250(5) 0.9088(3)
C23 C 0.7544(7) 0.0147(6) 0.9053(4)
C24 C 0.9619(7) 0.1296(6) 0.9885(4)
N10 N 0.7238(5) 0.0399(5) 0.9841(3)
N11 N 0.9002(5) 0.0675(5) 0.9037(3)
Zn1_3 Zn 0.5000 1.0000 0.0000
O11 O 0.5035(6) 0.8750(5) 0.0912(3)
C1 C 0.2456(7) 0.9853(6) 0.0947(4)
C2 C 0.0381(7) 0.8704(6) 0.0115(4)
N1 N 0.2762(5) 0.9601(5) 0.0159(3)
Zn1_4 Zn 0.5000 1.0000 1.0000
N3 N 0.1398(6) 0.8855(5) 0.9616(3)
Zn15 Zn 0.11375(8) 0.81516(7) 0.83346(5)
O12 O 0.4342(5) 0.8484(4) 0.8886(3)
O13 O 0.2086(5) 0.6975(5) 0.8368(4)
O14 O 0.1080(5) 0.2552(4) 0.8054(3)
O15 O 0.2712(6) 0.2017(5) 0.8886(4)
O16 O 0.7536(5) 0.5998(5) 0.9362(4)
H15 H 0.7698 0.5368 0.9401
H17 H 0.6818 0.9651 0.8555
C29 C 0.3489(7) 0.7347(6) 0.8663(4)
C30 C 0.2389(7) 0.2830(6) 0.8525(5)
C31 C 0.4049(7) 0.6343(6) 0.8734(4)
C32 C 0.3023(7) 0.5097(6) 0.8534(5)
H23 H 0.2016 0.4905 0.8327
C33 C 0.3506(7) 0.4146(6) 0.8644(4)
C34 C 0.5013(8) 0.4429(7) 0.8918(5)
H24 H 0.5340 0.3792 0.8986
C35 C 0.6031(7) 0.5665(7) 0.9091(5)
C36 C 0.5568(7) 0.6631(6) 0.9007(4)
H25 H 0.6258 0.7458 0.9130
N23 N 0.1213(6) 0.0175(5) 0.7257(3)
N25 N 0.1856(6) 0.9356(5) 0.7499(3)
H4 H 0.9366 0.8228 0.9908
O20 O 0.9210(5) 0.6869(5) 0.7647(4)
C25 C 0.7129(7) 0.0976(7) 0.6844(4)
H19 H 0.7107 0.1528 0.7312
N15 N 0.8164(6) 0.0501(5) 0.6880(3)
N16 N 0.6142(6) 0.0575(5) 0.6075(3)
O18 O 0.8643(5) 0.8487(5) 0.7908(3)
C26 C 0.7758(7) 0.9782(6) 0.6075(4)
H20 H 0.8276 0.9325 0.5887
O23 O 0.5399(5) 0.2893(5) 0.5985(4)
C27 C 0.1942(7) 0.0770(7) 0.6668(5)
H21 H 0.1731 0.1378 0.6394
N26 N 0.3025(6) 0.0409(5) 0.6501(3)
C28 C 0.2933(7) 0.9543(7) 0.7038(4)
H22 H 0.3556 0.9119 0.7082
O24 O 0.3117(5) 0.2708(5) 0.5420(4)
O25 O 0.3444(7) 0.7158(6) 0.6210(6)
H16 H 0.2628 0.6687 0.5905
C37 C 0.8285(7) 0.7405(7) 0.7552(4)
C38 C 0.4416(7) 0.3360(7) 0.5818(4)
C39 C 0.6769(7) 0.6655(6) 0.6993(4)
C40 C 0.6329(7) 0.5405(6) 0.6646(4)
H26 H 0.6996 0.5026 0.6750
C41 C 0.4914(7) 0.4726(6) 0.6151(4)
C42 C 0.3914(8) 0.5282(8) 0.5991(5)
H27 H 0.2956 0.4821 0.5655
C43 C 0.4351(7) 0.6523(7) 0.6332(5)
C44 C 0.5778(8) 0.7206(7) 0.6842(5)
H28 H 0.6062 0.8039 0.7081
loop_
_geom_bond_atom_site_label_1
_geom_bond_atom_site_label_2
_geom_bond_site_symmetry_1
_geom_bond_site_symmetry_2
O7 C15 1_555 1_555
O8 C16 1_555 1_555
O9 C16 1_555 1_555
O10 H2 1_555 1_555
C4 H6 1_555 1_555
C15 O6 1_555 1_555
C16 C19 1_555 1_555
C17 C15 1_555 1_555
C18 C17 1_555 1_555
H12 C18 1_555 1_555
C19 C18 1_555 1_555
C20 C19 1_555 1_555
H13 C20 1_555 1_555
C21 O10 1_555 1_555
C22 C17 1_555 1_555
H14 C22 1_555 1_555
N6 C4 1_555 1_555
Zn10 O8 1_555 1_555
Zn12 N6 1_555 1_555
C20 C21 1_555 1_555
C21 C22 1_555 1_555
C3 H5 1_555 1_555
N4 Zn2 1_555 1_555
N5 C3 1_555 1_555
Zn10 N5 1_555 1_555
N12 Zn2 1_555 1_555
C3 N4 1_555 1_555
C6 H8 1_555 1_555
N8 C6 1_555 1_555
N8 Zn16 1_555 1_555
Zn1 O1 1_555 1_555
Zn10 N9 1_555 1_555
Zn16 O2 1_555 1_555
O1 C7 1_555 1_555
O2 C7 1_555 1_555
O3 C8 1_555 1_555
O4 C8 1_555 1_555
O5 H1 1_555 1_555
C5 H7 1_555 1_555
C7 C9 1_555 1_555
C8 C11 1_555 1_555
C9 C10 1_555 1_555
C10 H9 1_555 1_555
C11 C10 1_555 1_555
C12 C11 1_555 1_555
H10 C12 1_555 1_555
C13 O5 1_555 1_555
C14 C9 1_555 1_555
H11 C14 1_555 1_555
N9 C5 1_555 1_555
N14 Zn16 1_555 1_555
N20 Zn10 1_555 1_555
C5 N7 1_555 1_555
C12 C13 1_555 1_555
C13 C14 1_555 1_555
Zn7 N11 1_555 1_555
O26 Zn1_2 1_555 1_555
N10 Zn1_2 1_555 1_555
N11 C23 1_555 1_555
C23 N10 1_555 1_555
C24 N11 1_555 1_555
O11 Zn1_3 1_555 1_555
N1 Zn1_3 1_555 1_555
N12 C1 1_555 1_555
C1 N1 1_555 1_555
C2 N12 1_555 1_555
Zn15 N3 1_555 1_555
O12 Zn1_4 1_555 1_555
O13 Zn15 1_555 1_555
O14 C30 1_555 1_555
O15 C30 1_555 1_555
O16 H15 1_555 1_555
C29 O12 1_555 1_555
C30 C33 1_555 1_555
C31 C29 1_555 1_555
C32 C31 1_555 1_555
H23 C32 1_555 1_555
C33 C32 1_555 1_555
C34 C33 1_555 1_555
H24 C34 1_555 1_555
C35 O16 1_555 1_555
C36 C31 1_555 1_555
H25 C36 1_555 1_555
N25 Zn15 1_555 1_555
O13 C29 1_555 1_555
C34 C35 1_555 1_555
C35 C36 1_555 1_555
Zn12 N16 1_555 1_555
C25 H19 1_555 1_555
N15 Zn7 1_555 1_555
N16 C25 1_555 1_555
C25 N15 1_555 1_555
C26 H20 1_555 1_555
N20 C26 1_555 1_555
Zn12 O23 1_555 1_555
C27 H21 1_555 1_555
N26 Zn12 1_555 1_555
C27 N23 1_555 1_555
C27 N26 1_555 1_555
C28 H22 1_555 1_555
C28 N25 1_555 1_555
O18 C37 1_555 1_555
O24 C38 1_555 1_555
O25 H16 1_555 1_555
C37 O20 1_555 1_555
C38 O23 1_555 1_555
C39 C37 1_555 1_555
C40 C39 1_555 1_555
H26 C40 1_555 1_555
C41 C38 1_555 1_555
C42 C41 1_555 1_555
H27 C42 1_555 1_555
C43 O25 1_555 1_555
C44 C39 1_555 1_555
H28 C44 1_555 1_555
C40 C41 1_555 1_555
C42 C43 1_555 1_555
C43 C44 1_555 1_555

#END
