
###############################################################################
#
# This file contains modified crystal structure data generated from the
# MOF subset of the Cambridge Structural Database (CSD) v543 
# hosted by the Cambridge Crystallographic Data Centre (CCDC).
#
# This work is licensed under the Creative Commons
# Attribution-NonCommercial-ShareAlike 4.0 International License.
# To view a copy of this license, visit
# http://creativecommons.org/licenses/by-nc-sa/4.0/
# or send a letter to
# Creative Commons, PO Box 1866, Mountain View, CA 94042, USA.
#
# CIF created using the CSD Python API on 29 September 2022
# The structure has been converted into the P1 space group
# The structure has a 3D framework
# The original CSD entry XOVYUD is in the orthorhombic crystal system
# The original CSD entry XOVYUD is in a Sohncke space group
# The framework has been calculated to contain at least 10.0% void space
# The void calculation uses a probe of radius 1.32A, grid spacing 0.4
# The framework is charged, counterions have been retained in the structure
#
###############################################################################

data_XOVYUD
_chemical_formula_moiety         '(C56 H112 Cd12 Cl6 N8 O47 P10)n'
_symmetry_cell_setting           triclinic
_symmetry_space_group_name_H-M   'P 1'
_symmetry_Int_Tables_number      1
_space_group_name_Hall           'P 1'
loop_
_symmetry_equiv_pos_site_id
_symmetry_equiv_pos_as_xyz
1 x,y,z
_cell_length_a                   7.0360(7)
_cell_length_b                   15.8921(16)
_cell_length_c                   26.561(3)
_cell_angle_alpha                90
_cell_angle_beta                 90
_cell_angle_gamma                90
_cell_volume                     2969.97
loop_
_atom_site_label
_atom_site_type_symbol
_atom_site_fract_x
_atom_site_fract_y
_atom_site_fract_z
Cd8 Cd 0.22340(9) 0.00851(4) 0.88659(2)
Cd1 Cd 0.40698(9) 0.48019(4) 0.01432(2)
Cd2 Cd 0.65304(8) 0.24602(4) 0.00230(2)
P2 P 0.4034(3) 0.32828(13) 0.09905(8)
O1 O 0.0889(9) 0.4704(4) 0.0230(2)
O6 O 0.4408(9) 0.4224(3) 0.0936(2)
O7 O 0.2190(8) 0.3020(4) 0.0744(2)
O8 O 0.5747(9) 0.2755(4) 0.0827(2)
O12 O 0.0265(12) 0.5415(6) 0.1202(3)
H3 H 0.0240 0.5949 0.1194
H4 H 0.0742 0.5251 0.1479
N2 N 0.3810(11) 0.2288(4) 0.1869(3)
H6 H 0.4977 0.2078 0.1792
C8 C 0.3712(14) 0.3170(6) 0.1670(3)
H18 H 0.4678 0.3503 0.1838
H19 H 0.2486 0.3405 0.1760
C9 C 0.363(2) 0.2300(7) 0.2435(4)
H20 H 0.2396 0.2517 0.2529
H21 H 0.4593 0.2670 0.2576
C10 C 0.388(2) 0.1419(6) 0.2651(4)
H22 H 0.5142 0.1211 0.2571
H23 H 0.3754 0.1438 0.3014
C11 C 0.2400(17) 0.0828(6) 0.2433(4)
H24 H 0.1142 0.1031 0.2534
C12 C 0.2495(17) 0.0834(6) 0.1869(4)
H25 H 0.1478 0.0485 0.1737
H26 H 0.3691 0.0586 0.1764
C13 C 0.2333(15) 0.1707(6) 0.1641(4)
H27 H 0.2519 0.1675 0.1280
H28 H 0.1072 0.1931 0.1703
Cd9 Cd 0.72340(9) 0.49149(4) 0.11341(2)
Cl3 Cl 0.9180(4) 0.15231(17) 0.04191(13)
O13 O 0.3956(8) 0.1549(3) 0.0071(2)
O15 O 0.7316(8) 0.4740(3) 0.0283(2)
O17 O 0.3790(13) 0.5998(5) 0.0560(4)
Cl1 Cl 0.4067(4) 0.5622(3) 0.93085(13)
Cl2 Cl 0.4180(4) 0.34769(17) 0.95809(13)
O4 O 0.1214(12) 0.8728(4) 0.8946(3)
H5 H 0.0934 0.5766 0.9395
H11 H 0.1027 0.7182 0.9749
C5 C 0.0013(17) 0.7022(5) 0.8790(4)
H14 H 0.1388 0.7019 0.8815
Cd6 Cd 0.15304(8) 0.25398(4) 0.99770(2)
O14 O 0.8956(8) 0.3451(3) 0.9929(2)
O19 O 0.7190(8) 0.1980(4) 0.9256(2)
O9 O 0.3435(10) 0.9834(5) 0.3046(3)
O10 O 0.1828(19) 0.9363(8) 0.2396(5)
C14 C 0.2658(19) 0.9932(7) 0.2643(4)
Cd10 Cd 0.27660(9) 0.99149(4) 0.38659(2)
Cd5 Cd 0.90698(9) 0.01981(4) 0.98568(2)
P1 P 0.9064(3) 0.44044(11) 0.00001(8)
O11 O 0.8827(10) 0.3584(4) 0.1187(3)
H1 H 0.9988 0.3661 0.1263
H2 H 0.8299 0.3287 0.1414
H9 H 0.9195 0.6107 0.0083
O16 O 0.6214(12) 0.6272(4) 0.1054(3)
O20 O 0.6565(10) 0.4834(5) 0.1954(3)
P1_2 P 0.9064(3) 0.44044(11) 1.00001(8)
O5 O 0.8790(13) 0.9002(5) 0.9440(4)
N1 N 0.9650(10) 0.5777(4) 0.9353(3)
C1 C 0.8979(13) 0.4885(5) 0.9378(3)
H7 H 0.9747 0.4550 0.9151
H8 H 0.7678 0.4864 0.9257
C2 C 0.8870(14) 0.6333(5) 0.9755(3)
H10 H 0.7496 0.6353 0.9729
C3 C 0.9660(13) 0.7201(5) 0.9705(3)
H12 H 0.9136 0.7555 0.9968
C4 C 0.9200(14) 0.7586(5) 0.9193(4)
H13 H 0.7815 0.7565 0.9156
H15 H 0.9675 0.7241 0.8461
C6 C 0.9277(18) 0.6133(6) 0.8840(4)
H16 H 0.7920 0.6128 0.8776
H17 H 0.9883 0.5780 0.8589
C7 C 0.9764(15) 0.8533(6) 0.9188(4)
Cd4 Cd 0.09302(9) 0.51981(4) 0.51432(2)
O18 O 0.0592(9) 0.5776(3) 0.5936(2)
O9_2 O 0.1565(10) 0.0166(5) 0.8046(3)
O10_2 O 0.3172(19) 0.0637(8) 0.7396(5)
C14_2 C 0.2342(19) 0.0068(7) 0.7643(4)
Cd3 Cd 0.77660(9) 0.50851(4) 0.61341(2)
Cl1_2 Cl 0.0933(4) 0.4378(3) 0.43085(13)
Cl2_2 Cl 0.0820(4) 0.65231(17) 0.45809(13)
P1_3 P 0.5936(3) 0.55956(11) 0.50001(8)
P2_2 P 0.0966(3) 0.67172(13) 0.59905(8)
O1_2 O 0.4111(9) 0.5296(4) 0.5230(2)
O2 O 0.6044(8) 0.6549(3) 0.4929(2)
O3 O 0.7684(8) 0.5260(3) 0.5283(2)
O4_2 O 0.3786(12) 0.1272(4) 0.3946(3)
O5_2 O 0.6210(13) 0.0998(5) 0.4440(4)
O7_2 O 0.2810(8) 0.6980(4) 0.5744(2)
O11_2 O 0.6173(10) 0.6416(4) 0.6187(3)
H1_2 H 0.5012 0.6339 0.6263
H2_2 H 0.6701 0.6713 0.6414
O12_2 O 0.4735(12) 0.4585(6) 0.6202(3)
H3_2 H 0.4760 0.4051 0.6194
H4_2 H 0.4258 0.4749 0.6479
N1_2 N 0.5350(10) 0.4223(4) 0.4353(3)
H5_2 H 0.4066 0.4234 0.4395
N2_2 N 0.1190(11) 0.7712(4) 0.6869(3)
H6_2 H 0.0023 0.7922 0.6792
C1_2 C 0.6021(13) 0.5115(5) 0.4378(3)
H7_2 H 0.5253 0.5450 0.4151
H8_2 H 0.7322 0.5136 0.4257
C2_2 C 0.6130(14) 0.3667(5) 0.4755(3)
H9_2 H 0.5805 0.3893 0.5083
H10_2 H 0.7504 0.3647 0.4729
C3_2 C 0.5340(13) 0.2799(5) 0.4705(3)
H11_2 H 0.3973 0.2818 0.4749
H12_2 H 0.5864 0.2445 0.4968
C4_2 C 0.5800(14) 0.2414(5) 0.4193(4)
H13_2 H 0.7185 0.2435 0.4156
C5_2 C 0.4987(17) 0.2978(5) 0.3790(4)
H14_2 H 0.3612 0.2981 0.3815
H15_2 H 0.5325 0.2759 0.3461
C6_2 C 0.5723(18) 0.3867(6) 0.3840(4)
H16_2 H 0.7080 0.3872 0.3776
H17_2 H 0.5117 0.4220 0.3589
C7_2 C 0.5236(15) 0.1467(6) 0.4188(4)
C8_2 C 0.1288(14) 0.6830(6) 0.6670(3)
H18_2 H 0.0322 0.6497 0.6838
H19_2 H 0.2514 0.6595 0.6760
C9_2 C 0.137(2) 0.7700(7) 0.7435(4)
H20_2 H 0.2604 0.7483 0.7529
H21_2 H 0.0407 0.7330 0.7576
C10_2 C 0.112(2) 0.8581(6) 0.7651(4)
H23_2 H 0.1246 0.8562 0.8014
C11_2 C 0.2600(17) 0.9172(6) 0.7433(4)
H24_2 H 0.3858 0.8969 0.7534
C12_2 C 0.2505(17) 0.9166(6) 0.6869(4)
H25_2 H 0.3522 0.9515 0.6737
H26_2 H 0.1309 0.9414 0.6764
C13_2 C 0.2667(15) 0.8293(6) 0.6641(4)
H27_2 H 0.2481 0.8325 0.6280
H28_2 H 0.3928 0.8069 0.6703
Cd6_2 Cd 0.34696(8) 0.74602(4) 0.49770(2)
Cd7 Cd 0.84696(8) 0.75398(4) 0.50230(2)
O13_2 O 0.1044(8) 0.8451(3) 0.5071(2)
O16_2 O 0.8786(12) 0.3728(4) 0.6054(3)
O17_2 O 0.1210(13) 0.4002(5) 0.5560(4)
O20_2 O 0.8435(10) 0.5166(5) 0.6954(3)
Cd5_2 Cd 0.59302(9) 0.98019(4) 0.48568(2)
O8_2 O 0.9253(9) 0.7245(4) 0.5827(2)
H22_2 H 0.9858 0.8789 0.7571
Cl3_2 Cl 0.5820(4) 0.84769(17) 0.54191(13)
O19_2 O 0.7810(8) 0.8020(4) 0.4256(2)
N1_3 N 0.0350(10) 0.0777(4) 0.5647(3)
C2_3 C 0.1130(14) 0.1333(5) 0.5245(3)
H9_3 H 0.0805 0.1107 0.4917
H10_3 H 0.2504 0.1353 0.5271
C3_3 C 0.0340(13) 0.2201(5) 0.5295(3)
H12_3 H 0.0864 0.2555 0.5032
C4_3 C 0.0800(14) 0.2586(5) 0.5807(4)
H13_3 H 0.2185 0.2565 0.5844
H15_3 H 0.0325 0.2241 0.6539
C6_3 C 0.0723(18) 0.1133(6) 0.6160(4)
H16_3 H 0.2080 0.1128 0.6224
H17_3 H 0.0117 0.0780 0.6411
C7_3 C 0.0236(15) 0.3533(6) 0.5812(4)
P1_4 P 0.0936(3) 0.94044(11) 0.49999(8)
O3_2 O 0.2684(8) 0.9740(3) 0.4717(2)
O11_3 O 0.1173(10) 0.8584(4) 0.3813(3)
H1_3 H 0.0012 0.8661 0.3737
H2_3 H 0.1701 0.8287 0.3586
C1_3 C 0.1021(13) 0.9885(5) 0.5622(3)
H7_3 H 0.0253 0.9550 0.5849
H8_3 H 0.2322 0.9864 0.5743
O18_2 O 0.5592(9) 0.9224(3) 0.4064(2)
Cl1_3 Cl 0.5933(4) 0.0622(3) 0.56915(13)
O12_3 O 0.9735(12) 0.0415(6) 0.3798(3)
H3_3 H 0.9760 0.0949 0.3806
H4_3 H 0.9258 0.0251 0.3521
H5_3 H 0.9066 0.0766 0.5605
H11_3 H 0.8973 0.2182 0.5251
C5_3 C 0.9987(17) 0.2022(5) 0.6210(4)
H14_3 H 0.8612 0.2019 0.6185
P2_3 P 0.5966(3) 0.82828(13) 0.40095(8)
O1_3 O 0.9111(9) 0.9704(4) 0.4770(2)
O8_3 O 0.4253(9) 0.7755(4) 0.4173(2)
O10_3 O 0.8172(19) 0.4363(8) 0.2604(5)
N2_3 N 0.6190(11) 0.7288(4) 0.3131(3)
H6_3 H 0.5023 0.7078 0.3208
C8_3 C 0.6288(14) 0.8170(6) 0.3330(3)
H18_3 H 0.5322 0.8503 0.3162
H19_3 H 0.7514 0.8405 0.3240
C9_3 C 0.637(2) 0.7300(7) 0.2565(4)
H20_3 H 0.7604 0.7517 0.2471
H21_3 H 0.5407 0.7670 0.2424
C10_3 C 0.612(2) 0.6419(6) 0.2349(4)
H22_3 H 0.4858 0.6211 0.2429
H23_3 H 0.6246 0.6438 0.1986
C11_3 C 0.7600(17) 0.5828(6) 0.2567(4)
H24_3 H 0.8858 0.6031 0.2466
C12_3 C 0.7505(17) 0.5834(6) 0.3131(4)
H25_3 H 0.8522 0.5485 0.3263
H26_3 H 0.6309 0.5586 0.3236
C13_3 C 0.7667(15) 0.6707(6) 0.3359(4)
H27_3 H 0.7481 0.6675 0.3720
H28_3 H 0.8928 0.6931 0.3297
C14_3 C 0.7342(19) 0.4932(7) 0.2357(4)
O8_4 O 0.0747(9) 0.2245(4) 0.9173(2)
H22_4 H 0.0142 0.3789 0.7429
O15_2 O 0.2316(8) 0.0260(3) 0.9717(2)
P1_5 P 0.4064(3) 0.05956(11) -0.00001(8)
C1_4 C 0.3979(13) 0.0115(5) 0.0622(3)
H7_4 H 0.4747 0.0450 0.0849
H8_4 H 0.2678 0.0136 0.0743
P1_6 P 0.4064(3) 0.05956(11) 0.99999(8)
P2_4 P 0.9034(3) 0.17172(13) 0.90095(8)
O1_4 O 0.5889(9) 0.0296(4) 0.9770(2)
O6_2 O 0.9408(9) 0.0776(3) 0.9064(2)
O10_4 O 0.6828(19) 0.5637(8) 0.7604(5)
O11_4 O 0.3827(10) 0.1416(4) 0.8813(3)
H1_4 H 0.4988 0.1339 0.8737
H2_4 H 0.3299 0.1713 0.8586
N2_4 N 0.8810(11) 0.2712(4) 0.8131(3)
H6_4 H 0.9977 0.2922 0.8208
C8_4 C 0.8712(14) 0.1830(6) 0.8330(3)
H18_4 H 0.9678 0.1497 0.8162
H19_4 H 0.7486 0.1595 0.8240
C9_4 C 0.863(2) 0.2700(7) 0.7565(4)
H20_4 H 0.7396 0.2483 0.7471
H21_4 H 0.9593 0.2330 0.7424
C10_4 C 0.888(2) 0.3581(6) 0.7349(4)
H23_4 H 0.8754 0.3562 0.6986
C11_4 C 0.7400(17) 0.4172(6) 0.7567(4)
H24_4 H 0.6142 0.3969 0.7466
C12_4 C 0.7495(17) 0.4166(6) 0.8131(4)
H25_4 H 0.6478 0.4515 0.8263
H26_4 H 0.8691 0.4414 0.8236
C13_4 C 0.7333(15) 0.3293(6) 0.8359(4)
H27_4 H 0.7519 0.3325 0.8720
H28_4 H 0.6072 0.3069 0.8297
C14_4 C 0.7658(19) 0.5068(7) 0.7357(4)
Cl1_4 Cl 0.9067(4) 0.9378(3) 0.06915(13)
N1_4 N 0.4650(10) 0.9223(4) 0.0647(3)
H5_4 H 0.5934 0.9234 0.0605
C2_4 C 0.3870(14) 0.8667(5) 0.0245(3)
H10_4 H 0.2496 0.8647 0.0271
C3_4 C 0.4660(13) 0.7799(5) 0.0295(3)
H11_4 H 0.6027 0.7818 0.0251
H12_4 H 0.4136 0.7445 0.0032
C4_4 C 0.4200(14) 0.7414(5) 0.0807(4)
H13_4 H 0.2815 0.7435 0.0844
C5_4 C 0.5013(17) 0.7978(5) 0.1210(4)
H14_4 H 0.6388 0.7981 0.1185
H15_4 H 0.4675 0.7759 0.1539
C6_4 C 0.4277(18) 0.8867(6) 0.1160(4)
H16_4 H 0.2920 0.8872 0.1224
H17_4 H 0.4883 0.9220 0.1411
C7_4 C 0.4764(15) 0.6467(6) 0.0812(4)
O12_4 O 0.5265(12) 0.9585(6) 0.8798(3)
H3_4 H 0.5240 0.9051 0.8806
H4_4 H 0.5742 0.9749 0.8521
H9_4 H 0.4195 0.8893 0.9917
loop_
_geom_bond_atom_site_label_1
_geom_bond_atom_site_label_2
_geom_bond_site_symmetry_1
_geom_bond_site_symmetry_2
P2 O6 1_555 1_555
O1 Cd1 1_555 1_555
O6 Cd1 1_555 1_555
O7 P2 1_555 1_555
O8 Cd2 1_555 1_555
H3 O12 1_555 1_555
H4 O12 1_555 1_555
N2 H6 1_555 1_555
C8 P2 1_555 1_555
H18 C8 1_555 1_555
H19 C8 1_555 1_555
C9 N2 1_555 1_555
H20 C9 1_555 1_555
H21 C9 1_555 1_555
C10 C9 1_555 1_555
H22 C10 1_555 1_555
H23 C10 1_555 1_555
C11 C10 1_555 1_555
H24 C11 1_555 1_555
C12 C11 1_555 1_555
H25 C12 1_555 1_555
H26 C12 1_555 1_555
C13 N2 1_555 1_555
H27 C13 1_555 1_555
H28 C13 1_555 1_555
Cd9 O6 1_555 1_555
Cl3 Cd2 1_555 1_555
O13 Cd2 1_555 1_555
O15 Cd1 1_555 1_555
O17 Cd1 1_555 1_555
P2 O8 1_555 1_555
N2 C8 1_555 1_555
C12 C13 1_555 1_555
Cd9 O15 1_555 1_555
H14 C5 1_555 1_555
Cd6 Cl2 1_555 1_555
O9 C14 1_555 1_555
O10 C14 1_555 1_555
Cd10 O9 1_555 1_555
O15 P1 1_555 1_555
O11 Cd9 1_555 1_555
H1 O11 1_555 1_555
H2 O11 1_555 1_555
O16 Cd9 1_555 1_555
O20 Cd9 1_555 1_555
O14 P1_2 1_555 1_555
O5 C7 1_555 1_555
C1 P1_2 1_555 1_555
H7 C1 1_555 1_555
H8 C1 1_555 1_555
C2 N1 1_555 1_555
H10 C2 1_555 1_555
C3 C2 1_555 1_555
H12 C3 1_555 1_555
C4 C3 1_555 1_555
H13 C4 1_555 1_555
C6 N1 1_555 1_555
H16 C6 1_555 1_555
H17 C6 1_555 1_555
C7 C4 1_555 1_555
N1 C1 1_555 1_555
Cd4 O18 1_555 1_555
O9_2 C14_2 1_555 1_555
O10_2 C14_2 1_555 1_555
Cd8 O9_2 1_555 1_555
Cd4 Cl1_2 1_555 1_555
Cd3 O3 1_555 1_555
Cl2_2 Cd4 1_555 1_555
P1_3 O1_2 1_555 1_555
P2_2 O18 1_555 1_555
O1_2 Cd4 1_555 1_555
O2 P1_3 1_555 1_555
O3 P1_3 1_555 1_555
O4_2 C7_2 1_555 1_555
O5_2 C7_2 1_555 1_555
O7_2 P2_2 1_555 1_555
O11_2 Cd3 1_555 1_555
H1_2 O11_2 1_555 1_555
H2_2 O11_2 1_555 1_555
O12_2 Cd3 1_555 1_555
H3_2 O12_2 1_555 1_555
H4_2 O12_2 1_555 1_555
N1_2 H5_2 1_555 1_555
N2_2 H6_2 1_555 1_555
C1_2 P1_3 1_555 1_555
H7_2 C1_2 1_555 1_555
H8_2 C1_2 1_555 1_555
C2_2 N1_2 1_555 1_555
H9_2 C2_2 1_555 1_555
H10_2 C2_2 1_555 1_555
C3_2 C2_2 1_555 1_555
H11_2 C3_2 1_555 1_555
H12_2 C3_2 1_555 1_555
C4_2 C3_2 1_555 1_555
H13_2 C4_2 1_555 1_555
C5_2 C4_2 1_555 1_555
H14_2 C5_2 1_555 1_555
H15_2 C5_2 1_555 1_555
C6_2 N1_2 1_555 1_555
H16_2 C6_2 1_555 1_555
H17_2 C6_2 1_555 1_555
C7_2 C4_2 1_555 1_555
C8_2 P2_2 1_555 1_555
H18_2 C8_2 1_555 1_555
H19_2 C8_2 1_555 1_555
C9_2 N2_2 1_555 1_555
H20_2 C9_2 1_555 1_555
H21_2 C9_2 1_555 1_555
C10_2 C9_2 1_555 1_555
H23_2 C10_2 1_555 1_555
C11_2 C10_2 1_555 1_555
H24_2 C11_2 1_555 1_555
C12_2 C11_2 1_555 1_555
H25_2 C12_2 1_555 1_555
H26_2 C12_2 1_555 1_555
C13_2 N2_2 1_555 1_555
H27_2 C13_2 1_555 1_555
H28_2 C13_2 1_555 1_555
Cd6_2 Cl2_2 1_555 1_555
Cd7 O2 1_555 1_555
O16_2 Cd3 1_555 1_555
O17_2 Cd4 1_555 1_555
O20_2 Cd3 1_555 1_555
O2 Cd6_2 1_555 1_555
O7_2 Cd6_2 1_555 1_555
N1_2 C1_2 1_555 1_555
N2_2 C8_2 1_555 1_555
C5_2 C6_2 1_555 1_555
C12_2 C13_2 1_555 1_555
Cd6_2 O13_2 1_555 1_555
O8_2 Cd7 1_555 1_555
Cl3_2 Cd7 1_555 1_555
O19_2 Cd7 1_555 1_555
O17_2 C7_3 1_555 1_555
C2_3 N1_3 1_555 1_555
H9_3 C2_3 1_555 1_555
H10_3 C2_3 1_555 1_555
C3_3 C2_3 1_555 1_555
H12_3 C3_3 1_555 1_555
C4_3 C3_3 1_555 1_555
H13_3 C4_3 1_555 1_555
C6_3 N1_3 1_555 1_555
H16_3 C6_3 1_555 1_555
H17_3 C6_3 1_555 1_555
C7_3 C4_3 1_555 1_555
Cd10 O3_2 1_555 1_555
O13_2 P1_4 1_555 1_555
O3_2 P1_4 1_555 1_555
O11_3 Cd10 1_555 1_555
H1_3 O11_3 1_555 1_555
H2_3 O11_3 1_555 1_555
C1_3 P1_4 1_555 1_555
H7_3 C1_3 1_555 1_555
H8_3 C1_3 1_555 1_555
Cd5_2 O3_2 1_555 1_555
O18_2 Cd10 1_555 1_555
Cd5_2 O18_2 1_555 1_555
H3_3 O12_3 1_555 1_555
H4_3 O12_3 1_555 1_555
H14_3 C5_3 1_555 1_555
Cd6_2 Cl3_2 1_555 1_555
Cl3_2 Cd5_2 1_555 1_555
P2_3 O18_2 1_555 1_555
O1_3 Cd5_2 1_555 1_555
O19_2 P2_3 1_555 1_555
O8_3 Cd6_2 1_555 1_555
O20 C14_3 1_555 1_555
O10_3 C14_3 1_555 1_555
N2_3 H6_3 1_555 1_555
C8_3 P2_3 1_555 1_555
H18_3 C8_3 1_555 1_555
H19_3 C8_3 1_555 1_555
C9_3 N2_3 1_555 1_555
H20_3 C9_3 1_555 1_555
H21_3 C9_3 1_555 1_555
C10_3 C9_3 1_555 1_555
H22_3 C10_3 1_555 1_555
H23_3 C10_3 1_555 1_555
C11_3 C10_3 1_555 1_555
H24_3 C11_3 1_555 1_555
C12_3 C11_3 1_555 1_555
H25_3 C12_3 1_555 1_555
H26_3 C12_3 1_555 1_555
C13_3 N2_3 1_555 1_555
H27_3 C13_3 1_555 1_555
H28_3 C13_3 1_555 1_555
C14_3 C11_3 1_555 1_555
P2_3 O8_3 1_555 1_555
N2_3 C8_3 1_555 1_555
C12_3 C13_3 1_555 1_555
O8_4 Cd6 1_555 1_555
Cd8 O15_2 1_555 1_555
O13 P1_5 1_555 1_555
C1_4 P1_5 1_555 1_555
H7_4 C1_4 1_555 1_555
H8_4 C1_4 1_555 1_555
P1_6 O1_4 1_555 1_555
P2_4 O6_2 1_555 1_555
O1_4 Cd5 1_555 1_555
O15_2 P1_6 1_555 1_555
O6_2 Cd5 1_555 1_555
O19 P2_4 1_555 1_555
O20_2 C14_4 1_555 1_555
O10_4 C14_4 1_555 1_555
O11_4 Cd8 1_555 1_555
H1_4 O11_4 1_555 1_555
H2_4 O11_4 1_555 1_555
N2_4 H6_4 1_555 1_555
C8_4 P2_4 1_555 1_555
H18_4 C8_4 1_555 1_555
H19_4 C8_4 1_555 1_555
C9_4 N2_4 1_555 1_555
H20_4 C9_4 1_555 1_555
H21_4 C9_4 1_555 1_555
C10_4 C9_4 1_555 1_555
H23_4 C10_4 1_555 1_555
C11_4 C10_4 1_555 1_555
H24_4 C11_4 1_555 1_555
C12_4 C11_4 1_555 1_555
H25_4 C12_4 1_555 1_555
H26_4 C12_4 1_555 1_555
C13_4 N2_4 1_555 1_555
H27_4 C13_4 1_555 1_555
H28_4 C13_4 1_555 1_555
C14_4 C11_4 1_555 1_555
N2_4 C8_4 1_555 1_555
C12_4 C13_4 1_555 1_555
O16 C7_4 1_555 1_555
O17 C7_4 1_555 1_555
N1_4 H5_4 1_555 1_555
C2_4 N1_4 1_555 1_555
H10_4 C2_4 1_555 1_555
C3_4 C2_4 1_555 1_555
H11_4 C3_4 1_555 1_555
H12_4 C3_4 1_555 1_555
C4_4 C3_4 1_555 1_555
H13_4 C4_4 1_555 1_555
C5_4 C4_4 1_555 1_555
H14_4 C5_4 1_555 1_555
H15_4 C5_4 1_555 1_555
C6_4 N1_4 1_555 1_555
H16_4 C6_4 1_555 1_555
H17_4 C6_4 1_555 1_555
C7_4 C4_4 1_555 1_555
C5_4 C6_4 1_555 1_555
H3_4 O12_4 1_555 1_555
H4_4 O12_4 1_555 1_555

#END
