
###############################################################################
#
# This file contains modified crystal structure data generated from the
# MOF subset of the Cambridge Structural Database (CSD) v543 
# hosted by the Cambridge Crystallographic Data Centre (CCDC).
#
# This work is licensed under the Creative Commons
# Attribution-NonCommercial-ShareAlike 4.0 International License.
# To view a copy of this license, visit
# http://creativecommons.org/licenses/by-nc-sa/4.0/
# or send a letter to
# Creative Commons, PO Box 1866, Mountain View, CA 94042, USA.
#
# CIF created using the CSD Python API on 29 September 2022
# The structure has been converted into the P1 space group
# The structure has a 3D framework
# The original CSD entry XOXGUN is in the tetragonal crystal system
# The original CSD entry XOXGUN is in a Sohncke space group
# The framework has been calculated to contain at least 10.0% void space
# The void calculation uses a probe of radius 1.32A, grid spacing 0.4
#
###############################################################################

data_XOXGUN
_chemical_formula_moiety         '(C208 H168 N16 Ni8 O36)n'
_symmetry_cell_setting           triclinic
_symmetry_space_group_name_H-M   'P 1'
_symmetry_Int_Tables_number      1
_space_group_name_Hall           'P 1'
loop_
_symmetry_equiv_pos_site_id
_symmetry_equiv_pos_as_xyz
1 x,y,z
_cell_length_a                   15.8465(14)
_cell_length_b                   15.8465(14)
_cell_length_c                   21.775(3)
_cell_angle_alpha                90
_cell_angle_beta                 90
_cell_angle_gamma                90
_cell_volume                     5467.95
loop_
_atom_site_label
_atom_site_type_symbol
_atom_site_fract_x
_atom_site_fract_y
_atom_site_fract_z
C10 C 0.3260(6) 0.0115(7) 0.0428(5)
C11 C 0.3979(7) 0.0196(9) 0.0071(7)
C12 C 0.3312(6) 0.0398(7) 0.1029(5)
H8 H 0.2849 0.0341 0.1288
C13 C 0.4702(6) 0.0553(8) 0.0276(6)
H9 H 0.5167 0.0591 0.0016
C14 C 0.4060(6) 0.0774(7) 0.1250(6)
H10 H 0.4088 0.0964 0.1654
C15 C 0.4754(5) 0.0859(5) 0.0866(5)
C16 C 0.5557(5) 0.1308(6) 0.1075(5)
O3 O 0.6148(3) 0.1369(3) 0.0703(3)
O4 O 0.5538(4) 0.1592(4) 0.1618(3)
Ni3 Ni 0.72577(6) 0.20670(6) 0.08021(5)
C17 C 0.6268(5) 0.4479(6) 0.1949(5)
C18 C 0.5875(5) 0.5294(6) 0.2128(5)
C19 C 0.5332(6) 0.5715(7) 0.1729(7)
H11 H 0.5222 0.5500 0.1339
C20 C 0.5993(8) 0.5626(9) 0.2692(7)
H12 H 0.6340 0.5342 0.2968
C21 C 0.5607(8) 0.6391(10) 0.2880(7)
H13 H 0.5707 0.6603 0.3271
C22 C 0.4960(8) 0.6458(8) 0.1921(9)
H14 H 0.4599 0.6728 0.1648
C23 C 0.5078(7) 0.6824(9) 0.2477(8)
C24 C 0.4644(9) 0.7608(11) 0.2602(8)
H15 H 0.4201 0.7720 0.2334
C25 C 0.4743(8) 0.8119(11) 0.2972(8)
H16 H 0.5161 0.7964 0.3250
C26 C 0.4377(7) 0.8972(8) 0.3124(7)
C27 C 0.3833(7) 0.9402(8) 0.2734(6)
H17 H 0.3695 0.9162 0.2357
C28 C 0.4575(7) 0.9350(8) 0.3657(7)
H18 H 0.4947 0.9076 0.3920
H39 H 0.3040 0.9988 0.6102
O5 O 0.6858(3) 0.4195(4) 0.2290(3)
O6 O 0.6011(4) 0.4133(4) 0.1479(3)
Ni4 Ni 0.74807(6) 0.30477(6) 0.22567(5)
C1 C 0.8088(5) 0.1269(5) 0.1933(4)
C2 C 0.8488(5) 0.0495(5) 0.2191(5)
C4 C 0.8755(7) 0.0446(6) 0.2804(5)
H2 H 0.8693 0.0910 0.3061
C29 C 0.9882(6) 0.4261(6) 0.1334(5)
H19 H 0.9638 0.4422 0.1704
C30 C 0.9814(7) 0.3485(6) 0.0389(5)
H20 H 0.9531 0.3124 0.0122
C31 C 0.9478(6) 0.3695(5) 0.0948(4)
C32 C 0.8652(5) 0.3292(5) 0.1160(4)
C37 C 0.8644(6) 0.1187(7) 0.0137(5)
H25 H 0.8936 0.1344 0.0490
C42 C 0.5927(7) 0.3047(8) 0.0085(6)
H30 H 0.5558 0.2779 0.0354
C43 C 0.5799(6) 0.2725(6) 0.2912(5)
H31 H 0.5593 0.3057 0.2593
C44 C 0.5229(6) 0.2459(7) 0.3338(6)
H32 H 0.4653 0.2558 0.3293
C45 C 0.5544(8) 0.2044(8) 0.3827(6)
H33 H 0.5185 0.1887 0.4145
C46 C 0.6362(7) 0.1856(7) 0.3864(6)
H34 H 0.6573 0.1550 0.4194
C47 C 0.6883(7) 0.2125(7) 0.3401(6)
H35 H 0.7455 0.2002 0.3429
C48 C 0.7996(8) 0.4021(10) 0.3358(8)
H36 H 0.7499 0.4319 0.3291
C49 C 0.8500(8) 0.4163(10) 0.3896(7)
H37 H 0.8300 0.4510 0.4208
C50 C 0.9252(8) 0.3797(10) 0.3949(8)
H38 H 0.9597 0.3922 0.4282
C51 C 0.9488(9) 0.3299(10) 0.3560(7)
C52 C 0.9007(8) 0.3116(11) 0.3071(7)
H40 H 0.9213 0.2726 0.2790
O1 O 0.7784(4) 0.1212(4) 0.1406(3)
O2 O 0.8078(4) 0.1897(3) 0.2285(3)
O7 O 0.8355(4) 0.3545(3) 0.1668(3)
O8 O 0.8332(4) 0.2764(3) 0.0806(3)
O9 O 0.6708(3) 0.2690(4) 0.1539(3)
H41 H 0.642(4) 0.314(2) 0.148(5)
H42 H 0.635(3) 0.229(3) 0.156(5)
N1 N 0.7850(5) 0.1358(5) 0.0095(4)
N2 N 0.6735(5) 0.2903(5) 0.0138(4)
N3 N 0.6611(4) 0.2560(5) 0.2906(4)
N4 N 0.8268(4) 0.3449(5) 0.2963(4)
C5 C 0.0294(6) 0.9112(8) 0.0529(6)
H3 H 0.0316 0.9271 0.0940
C7 C 0.0993(6) 0.9239(6) 0.0166(5)
C8 C 0.1764(6) 0.9601(7) 0.0451(5)
H5 H 0.1736 0.9735 0.0866
C9 C 0.2484(6) 0.9751(7) 0.0166(5)
C3 C 0.0225(5) 0.8651(6) 0.9315(5)
H1 H 0.0212 0.8505 0.8901
C6 C 0.0948(5) 0.9026(6) 0.9558(5)
H4 H 0.1407 0.9132 0.9303
H6 H 0.2504 0.9610 0.9752
H7 H 0.3965 0.9994 0.9670
H39_2 H 0.6960 0.0012 0.1102
C17_2 C 0.3732(5) 0.5521(6) 0.6949(5)
C18_2 C 0.4125(5) 0.4706(6) 0.7128(5)
C19_2 C 0.4668(6) 0.4285(7) 0.6729(7)
H11_2 H 0.4778 0.4500 0.6339
C20_2 C 0.4007(8) 0.4374(9) 0.7692(7)
H12_2 H 0.3660 0.4658 0.7968
C21_2 C 0.4393(8) 0.3609(10) 0.7880(7)
H13_2 H 0.4293 0.3397 0.8271
C22_2 C 0.5040(8) 0.3542(8) 0.6921(9)
H14_2 H 0.5401 0.3272 0.6648
C23_2 C 0.4922(7) 0.3176(9) 0.7477(8)
C24_2 C 0.5356(9) 0.2392(11) 0.7602(8)
H15_2 H 0.5799 0.2280 0.7334
C25_2 C 0.5257(8) 0.1881(11) 0.7972(8)
H16_2 H 0.4839 0.2036 0.8250
C26_2 C 0.5623(7) 0.1028(8) 0.8124(7)
C27_2 C 0.6167(7) 0.0598(8) 0.7734(6)
H17_2 H 0.6305 0.0838 0.7357
C28_2 C 0.5425(7) 0.0650(8) 0.8657(7)
H18_2 H 0.5053 0.0924 0.8920
O5_2 O 0.3142(3) 0.5805(4) 0.7290(3)
O6_2 O 0.3989(4) 0.5867(4) 0.6479(3)
Ni4_2 Ni 0.25193(6) 0.69523(6) 0.72567(5)
C10_2 C 0.6740(6) 0.9885(7) 0.5428(5)
C11_2 C 0.6021(7) 0.9804(9) 0.5071(7)
C12_2 C 0.6688(6) 0.9602(7) 0.6029(5)
H8_2 H 0.7151 0.9659 0.6288
C13_2 C 0.5298(6) 0.9447(8) 0.5276(6)
H9_2 H 0.4833 0.9409 0.5016
C14_2 C 0.5940(6) 0.9226(7) 0.6250(6)
H10_2 H 0.5912 0.9036 0.6654
C15_2 C 0.5246(5) 0.9141(5) 0.5866(5)
C16_2 C 0.4443(5) 0.8692(6) 0.6075(5)
O3_2 O 0.3852(3) 0.8631(3) 0.5703(3)
O4_2 O 0.4462(4) 0.8408(4) 0.6618(3)
Ni3_2 Ni 0.27423(6) 0.79330(6) 0.58021(5)
C1_2 C 0.1912(5) 0.8731(5) 0.6933(4)
C2_2 C 0.1512(5) 0.9505(5) 0.7191(5)
C4_2 C 0.1245(7) 0.9554(6) 0.7804(5)
H2_2 H 0.1307 0.9090 0.8061
C29_2 C 0.0118(6) 0.5739(6) 0.6334(5)
H19_2 H 0.0362 0.5578 0.6704
C30_2 C 0.0186(7) 0.6515(6) 0.5389(5)
H20_2 H 0.0469 0.6876 0.5122
C31_2 C 0.0522(6) 0.6305(5) 0.5948(4)
C32_2 C 0.1348(5) 0.6708(5) 0.6160(4)
C33 C 0.2549(6) 0.8850(7) 0.4585(5)
H21 H 0.3119 0.8719 0.4552
C34 C 0.2168(8) 0.9248(9) 0.4107(6)
H22 H 0.2476 0.9377 0.3755
C35 C 0.1299(9) 0.9465(8) 0.4143(6)
H23 H 0.1021 0.9748 0.3828
C36 C 0.0914(8) 0.9235(8) 0.4659(6)
H24 H 0.0344 0.9354 0.4708
C37_2 C 0.1356(6) 0.8813(7) 0.5137(5)
H25_2 H 0.1064 0.8656 0.5490
C38 C 0.2757(7) 0.6688(7) 0.4748(6)
H26 H 0.2177 0.6770 0.4781
C39 C 0.3048(9) 0.6159(7) 0.4307(6)
H27 H 0.2668 0.5888 0.4048
C40 C 0.3906(9) 0.6019(7) 0.4238(7)
H28 H 0.4122 0.5673 0.3931
C41 C 0.4403(8) 0.6417(9) 0.4645(8)
H29 H 0.4983 0.6330 0.4630
C42_2 C 0.4073(7) 0.6953(8) 0.5085(6)
H30_2 H 0.4442 0.7221 0.5354
C43_2 C 0.4201(6) 0.7275(6) 0.7912(5)
H31_2 H 0.4407 0.6943 0.7593
C44_2 C 0.4771(6) 0.7541(7) 0.8338(6)
H32_2 H 0.5347 0.7442 0.8293
C45_2 C 0.4456(8) 0.7956(8) 0.8827(6)
H33_2 H 0.4815 0.8113 0.9145
C46_2 C 0.3638(7) 0.8144(7) 0.8864(6)
H34_2 H 0.3427 0.8450 0.9194
C47_2 C 0.3117(7) 0.7875(7) 0.8401(6)
H35_2 H 0.2545 0.7998 0.8429
C48_2 C 0.2004(8) 0.5979(10) 0.8358(8)
H36_2 H 0.2501 0.5681 0.8291
C49_2 C 0.1500(8) 0.5837(10) 0.8896(7)
H37_2 H 0.1700 0.5490 0.9208
C50_2 C 0.0748(8) 0.6203(10) 0.8949(8)
H38_2 H 0.0403 0.6078 0.9282
C51_2 C 0.0512(9) 0.6701(10) 0.8560(7)
C52_2 C 0.0993(8) 0.6884(11) 0.8071(7)
H40_2 H 0.0787 0.7274 0.7790
O1_2 O 0.2216(4) 0.8788(4) 0.6406(3)
O2_2 O 0.1922(4) 0.8103(3) 0.7285(3)
O7_2 O 0.1645(4) 0.6455(3) 0.6668(3)
O8_2 O 0.1668(4) 0.7236(3) 0.5806(3)
O9_2 O 0.3292(3) 0.7310(4) 0.6539(3)
H41_2 H 0.358(4) 0.686(2) 0.648(5)
H42_2 H 0.365(3) 0.771(3) 0.656(5)
N1_2 N 0.2150(5) 0.8642(5) 0.5095(4)
N2_2 N 0.3265(5) 0.7097(5) 0.5138(4)
N3_2 N 0.3389(4) 0.7440(5) 0.7906(4)
N4_2 N 0.1732(4) 0.6551(5) 0.7963(4)
C4_3 C 0.9554(6) 0.8755(7) 0.0304(5)
H2_3 H 0.9090 0.8693 0.0561
C43_3 C 0.7275(6) 0.5799(6) 0.0412(5)
H31_3 H 0.6943 0.5593 0.0093
C44_3 C 0.7541(7) 0.5229(6) 0.0838(6)
H32_3 H 0.7442 0.4653 0.0793
C45_3 C 0.7956(8) 0.5544(8) 0.1327(6)
H33_3 H 0.8113 0.5185 0.1645
C46_3 C 0.8144(7) 0.6362(7) 0.1364(6)
H34_3 H 0.8450 0.6573 0.1694
C47_3 C 0.7875(7) 0.6883(7) 0.0901(6)
H35_3 H 0.7998 0.7455 0.0929
C48_3 C 0.5979(10) 0.7996(8) 0.0858(8)
H36_3 H 0.5681 0.7499 0.0791
C49_3 C 0.5837(10) 0.8500(8) 0.1396(7)
H37_3 H 0.5490 0.8300 0.1708
C50_3 C 0.6203(10) 0.9252(8) 0.1449(8)
H38_3 H 0.6078 0.9597 0.1782
C51_3 C 0.6701(10) 0.9488(9) 0.1060(7)
C52_3 C 0.6884(11) 0.9007(8) 0.0571(7)
H40_3 H 0.7274 0.9213 0.0290
N3_3 N 0.7440(5) 0.6611(4) 0.0406(4)
N4_3 N 0.6551(5) 0.8268(4) 0.0463(4)
Ni1 Ni 0.79330(6) 0.72577(6) 0.83021(5)
Ni2 Ni 0.69523(6) 0.74807(6) 0.97567(5)
C1_3 C 0.8731(5) 0.8088(5) 0.9433(4)
C2_3 C 0.9505(5) 0.8488(5) 0.9691(5)
C29_3 C 0.5739(6) 0.9882(6) 0.8834(5)
H19_3 H 0.5578 0.9638 0.9204
C30_3 C 0.6515(6) 0.9814(7) 0.7889(5)
H20_3 H 0.6876 0.9531 0.7622
C31_3 C 0.6305(5) 0.9478(6) 0.8448(4)
C32_3 C 0.6708(5) 0.8652(5) 0.8660(4)
C33_2 C 0.8850(7) 0.7451(6) 0.7085(5)
H21_2 H 0.8719 0.6881 0.7052
C34_2 C 0.9248(9) 0.7832(8) 0.6607(6)
H22_2 H 0.9377 0.7524 0.6255
C35_2 C 0.9465(8) 0.8701(9) 0.6643(6)
H23_2 H 0.9748 0.8979 0.6328
C36_2 C 0.9235(8) 0.9086(8) 0.7159(6)
H24_2 H 0.9354 0.9656 0.7208
C37_3 C 0.8813(7) 0.8644(6) 0.7637(5)
H25_3 H 0.8656 0.8936 0.7990
C38_2 C 0.6688(7) 0.7243(7) 0.7248(6)
H26_2 H 0.6770 0.7823 0.7281
C39_2 C 0.6159(7) 0.6952(9) 0.6807(6)
H27_2 H 0.5888 0.7332 0.6548
C40_2 C 0.6019(7) 0.6094(9) 0.6738(7)
H28_2 H 0.5673 0.5878 0.6431
C41_2 C 0.6417(9) 0.5597(8) 0.7145(8)
H29_2 H 0.6330 0.5017 0.7130
C42_3 C 0.6953(8) 0.5927(7) 0.7585(6)
H30_3 H 0.7221 0.5558 0.7854
O1_3 O 0.8788(4) 0.7784(4) 0.8906(3)
O2_3 O 0.8103(3) 0.8078(4) 0.9785(3)
O7_3 O 0.6455(3) 0.8355(4) 0.9168(3)
O8_3 O 0.7236(3) 0.8332(4) 0.8306(3)
O9_3 O 0.7310(4) 0.6708(3) 0.9039(3)
H41_3 H 0.686(2) 0.642(4) 0.898(5)
H42_3 H 0.771(3) 0.635(3) 0.906(5)
N1_3 N 0.8642(5) 0.7850(5) 0.7595(4)
N2_3 N 0.7097(5) 0.6735(5) 0.7638(4)
O10 O 0.8631(3) 0.6148(3) 0.8203(3)
O11 O 0.5805(4) 0.6858(3) 0.9790(3)
C10_3 C 0.9885(7) 0.3260(6) 0.7928(5)
C11_3 C 0.9804(9) 0.3979(7) 0.7571(7)
C12_3 C 0.9602(7) 0.3312(6) 0.8529(5)
H8_3 H 0.9659 0.2849 0.8788
C13_3 C 0.9447(8) 0.4702(6) 0.7776(6)
H9_3 H 0.9409 0.5167 0.7516
C14_3 C 0.9226(7) 0.4060(6) 0.8750(6)
H10_3 H 0.9036 0.4088 0.9154
C15_3 C 0.9141(5) 0.4754(5) 0.8366(5)
C16_3 C 0.8692(6) 0.5557(5) 0.8575(5)
O4_3 O 0.8408(4) 0.5538(4) 0.9118(3)
C17_3 C 0.5521(6) 0.6268(5) 0.9449(5)
C18_3 C 0.4706(6) 0.5875(5) 0.9628(5)
C19_3 C 0.4285(7) 0.5332(6) 0.9229(7)
H11_3 H 0.4500 0.5222 0.8839
C22_3 C 0.3542(8) 0.4960(8) 0.9421(9)
H14_3 H 0.3272 0.4599 0.9148
C23_3 C 0.3176(9) 0.5078(7) 0.9977(8)
H15_3 H 0.2280 0.4201 0.9834
H17_3 H 0.0838 0.3695 0.9857
O6_3 O 0.5867(4) 0.6011(4) 0.8979(3)
Ni1_2 Ni 0.20670(6) 0.27423(6) 0.33021(5)
Ni2_2 Ni 0.30477(6) 0.25193(6) 0.47567(5)
C1_4 C 0.1269(5) 0.1912(5) 0.4433(4)
C2_4 C 0.0495(5) 0.1512(5) 0.4691(5)
C4_4 C 0.0446(6) 0.1245(7) 0.5304(5)
H2_4 H 0.0910 0.1307 0.5561
C29_4 C 0.4261(6) 0.0118(6) 0.3834(5)
H19_4 H 0.4422 0.0362 0.4204
C30_4 C 0.3485(6) 0.0186(7) 0.2889(5)
H20_4 H 0.3124 0.0469 0.2622
C31_4 C 0.3695(5) 0.0522(6) 0.3448(4)
C32_4 C 0.3292(5) 0.1348(5) 0.3660(4)
C33_3 C 0.1150(7) 0.2549(6) 0.2085(5)
H21_3 H 0.1281 0.3119 0.2052
C34_3 C 0.0752(9) 0.2168(8) 0.1607(6)
H22_3 H 0.0623 0.2476 0.1255
C35_3 C 0.0535(8) 0.1299(9) 0.1643(6)
H23_3 H 0.0252 0.1021 0.1328
C36_3 C 0.0765(8) 0.0914(8) 0.2159(6)
H24_3 H 0.0646 0.0344 0.2208
C37_4 C 0.1187(7) 0.1356(6) 0.2637(5)
H25_4 H 0.1344 0.1064 0.2990
C38_3 C 0.3312(7) 0.2757(7) 0.2248(6)
H26_3 H 0.3230 0.2177 0.2281
C39_3 C 0.3841(7) 0.3048(9) 0.1807(6)
H27_3 H 0.4112 0.2668 0.1548
C40_3 C 0.3981(7) 0.3906(9) 0.1738(7)
H28_3 H 0.4327 0.4122 0.1431
C41_3 C 0.3583(9) 0.4403(8) 0.2145(8)
H29_3 H 0.3670 0.4983 0.2130
C42_4 C 0.3047(8) 0.4073(7) 0.2585(6)
H30_4 H 0.2779 0.4442 0.2854
C43_4 C 0.2725(6) 0.4201(6) 0.5412(5)
H31_4 H 0.3057 0.4407 0.5093
C44_4 C 0.2459(7) 0.4771(6) 0.5838(6)
H32_4 H 0.2558 0.5347 0.5793
C45_4 C 0.2044(8) 0.4456(8) 0.6327(6)
H33_4 H 0.1887 0.4815 0.6645
C46_4 C 0.1856(7) 0.3638(7) 0.6364(6)
H34_4 H 0.1550 0.3427 0.6694
C47_4 C 0.2125(7) 0.3117(7) 0.5901(6)
H35_4 H 0.2002 0.2545 0.5929
C48_4 C 0.4021(10) 0.2004(8) 0.5858(8)
H36_4 H 0.4319 0.2501 0.5791
C49_4 C 0.4163(10) 0.1500(8) 0.6396(7)
H37_4 H 0.4510 0.1700 0.6708
C50_4 C 0.3797(10) 0.0748(8) 0.6449(8)
H38_4 H 0.3922 0.0403 0.6782
C51_4 C 0.3299(10) 0.0512(9) 0.6060(7)
C52_4 C 0.3116(11) 0.0993(8) 0.5571(7)
H40_4 H 0.2726 0.0787 0.5290
O1_4 O 0.1212(4) 0.2216(4) 0.3906(3)
O2_4 O 0.1897(3) 0.1922(4) 0.4785(3)
O7_4 O 0.3545(3) 0.1645(4) 0.4168(3)
O8_4 O 0.2764(3) 0.1668(4) 0.3306(3)
O9_4 O 0.2690(4) 0.3292(3) 0.4039(3)
H41_4 H 0.314(2) 0.358(4) 0.398(5)
H42_4 H 0.229(3) 0.365(3) 0.406(5)
N1_4 N 0.1358(5) 0.2150(5) 0.2595(4)
N2_4 N 0.2903(5) 0.3265(5) 0.2638(4)
N3_4 N 0.2560(5) 0.3389(4) 0.5406(4)
N4_4 N 0.3449(5) 0.1732(4) 0.5463(4)
O10_2 O 0.1369(3) 0.3852(3) 0.3203(3)
O11_2 O 0.4195(4) 0.3142(3) 0.4790(3)
C17_4 C 0.4479(6) 0.3732(5) 0.4449(5)
C18_4 C 0.5294(6) 0.4125(5) 0.4628(5)
C19_4 C 0.5715(7) 0.4668(6) 0.4229(7)
H11_4 H 0.5500 0.4778 0.3839
C20_3 C 0.5626(9) 0.4007(8) 0.5192(7)
H12_3 H 0.5342 0.3660 0.5468
C21_3 C 0.6391(10) 0.4393(8) 0.5380(7)
H13_3 H 0.6603 0.4293 0.5771
C22_4 C 0.6458(8) 0.5040(8) 0.4421(9)
H14_4 H 0.6728 0.5401 0.4148
C23_4 C 0.6824(9) 0.4922(7) 0.4977(8)
C24_3 C 0.7608(11) 0.5356(9) 0.5102(8)
H15_4 H 0.7720 0.5799 0.4834
C25_3 C 0.8119(11) 0.5257(8) 0.5472(8)
H16_3 H 0.7964 0.4839 0.5750
C26_3 C 0.8972(8) 0.5623(7) 0.5624(7)
C27_3 C 0.9402(8) 0.6167(7) 0.5234(6)
H17_4 H 0.9162 0.6305 0.4857
C28_3 C 0.9350(8) 0.5425(7) 0.6157(7)
H18_3 H 0.9076 0.5053 0.6420
H39_3 H 0.9988 0.6960 0.8602
O6_4 O 0.4133(4) 0.3989(4) 0.3979(3)
C10_4 C 0.0115(7) 0.6740(6) 0.2928(5)
C11_4 C 0.0196(9) 0.6021(7) 0.2571(7)
C12_4 C 0.0398(7) 0.6688(6) 0.3529(5)
H8_4 H 0.0341 0.7151 0.3788
C13_4 C 0.0553(8) 0.5298(6) 0.2776(6)
H9_4 H 0.0591 0.4833 0.2516
C14_4 C 0.0774(7) 0.5940(6) 0.3750(6)
H10_4 H 0.0964 0.5912 0.4154
C15_4 C 0.0859(5) 0.5246(5) 0.3366(5)
C16_4 C 0.1308(6) 0.4443(5) 0.3575(5)
O4_4 O 0.1592(4) 0.4462(4) 0.4118(3)
C3_2 C 0.9775(5) 0.1349(6) 0.4315(5)
H1_2 H 0.9788 0.1495 0.3901
C5_2 C 0.9706(6) 0.0888(8) 0.5529(6)
H3_2 H 0.9684 0.0729 0.5940
C6_2 C 0.9052(5) 0.0974(6) 0.4558(5)
H4_2 H 0.8593 0.0868 0.4303
C7_2 C 0.9007(6) 0.0761(6) 0.5166(5)
C8_2 C 0.8236(6) 0.0399(7) 0.5451(5)
H5_2 H 0.8264 0.0265 0.5866
C9_2 C 0.7516(6) 0.0249(7) 0.5166(5)
H6_2 H 0.7496 0.0390 0.4752
H7_2 H 0.6035 0.0006 0.4670
C3_3 C 0.1349(6) 0.0225(5) 0.6815(5)
H1_3 H 0.1495 0.0212 0.6401
C5_3 C 0.0888(8) 0.0294(6) 0.8029(6)
H3_3 H 0.0729 0.0316 0.8440
C6_3 C 0.0974(6) 0.0948(5) 0.7058(5)
H4_3 H 0.0868 0.1407 0.6803
C7_3 C 0.0761(6) 0.0993(6) 0.7666(5)
C8_3 C 0.0399(7) 0.1764(6) 0.7951(5)
H5_3 H 0.0265 0.1736 0.8366
C9_3 C 0.0249(7) 0.2484(6) 0.7666(5)
H6_3 H 0.0390 0.2504 0.7252
H7_3 H 0.0006 0.3965 0.7170
C20_4 C 0.4374(9) 0.5993(8) 0.0192(7)
H12_4 H 0.4658 0.6340 0.0468
C21_4 C 0.3609(10) 0.5607(8) 0.0380(7)
H13_4 H 0.3397 0.5707 0.0771
C24_4 C 0.2392(11) 0.4644(9) 0.0102(8)
C25_4 C 0.1881(11) 0.4743(8) 0.0472(8)
H16_4 H 0.2036 0.5161 0.0750
C26_4 C 0.1028(8) 0.4377(7) 0.0624(7)
C27_4 C 0.0598(8) 0.3833(7) 0.0234(6)
C28_4 C 0.0650(8) 0.4575(7) 0.1157(7)
H18_4 H 0.0924 0.4947 0.1420
H39_4 H 0.0012 0.3040 0.3602
C33_4 C 0.7451(6) 0.1150(7) 0.9585(5)
H21_4 H 0.6881 0.1281 0.9552
C34_4 C 0.7832(8) 0.0752(9) 0.9107(6)
H22_4 H 0.7524 0.0623 0.8755
C35_4 C 0.8701(9) 0.0535(8) 0.9143(6)
H23_4 H 0.8979 0.0252 0.8828
C36_4 C 0.9086(8) 0.0765(8) 0.9659(6)
H24_4 H 0.9656 0.0646 0.9708
C38_4 C 0.7243(7) 0.3312(7) 0.9748(6)
H26_4 H 0.7823 0.3230 0.9781
C39_4 C 0.6952(9) 0.3841(7) 0.9307(6)
H27_4 H 0.7332 0.4112 0.9048
C40_4 C 0.6094(9) 0.3981(7) 0.9238(7)
H28_4 H 0.5878 0.4327 0.8931
C41_4 C 0.5597(8) 0.3583(9) 0.9645(8)
H29_4 H 0.5017 0.3670 0.9630
C3_4 C 0.8651(6) 0.9775(5) 0.1815(5)
H1_4 H 0.8505 0.9788 0.1401
C5_4 C 0.9112(8) 0.9706(6) 0.3029(6)
H3_4 H 0.9271 0.9684 0.3440
C6_4 C 0.9026(6) 0.9052(5) 0.2058(5)
H4_4 H 0.9132 0.8593 0.1803
C7_4 C 0.9239(6) 0.9007(6) 0.2666(5)
C8_4 C 0.9601(7) 0.8236(6) 0.2951(5)
H5_4 H 0.9735 0.8264 0.3366
C9_4 C 0.9751(7) 0.7516(6) 0.2666(5)
H6_4 H 0.9610 0.7496 0.2252
H7_4 H 0.9994 0.6035 0.2170
loop_
_geom_bond_atom_site_label_1
_geom_bond_atom_site_label_2
_geom_bond_site_symmetry_1
_geom_bond_site_symmetry_2
C11 C10 1_555 1_555
C12 C10 1_555 1_555
H8 C12 1_555 1_555
C13 C11 1_555 1_555
H9 C13 1_555 1_555
C14 C12 1_555 1_555
H10 C14 1_555 1_555
C15 C13 1_555 1_555
C16 C15 1_555 1_555
O3 C16 1_555 1_555
O4 C16 1_555 1_555
Ni3 O3 1_555 1_555
C14 C15 1_555 1_555
C17 C18 1_555 1_555
C18 C19 1_555 1_555
C19 H11 1_555 1_555
C20 C18 1_555 1_555
H12 C20 1_555 1_555
C21 C20 1_555 1_555
H13 C21 1_555 1_555
C22 C19 1_555 1_555
H14 C22 1_555 1_555
C23 C21 1_555 1_555
C24 C23 1_555 1_555
H15 C24 1_555 1_555
C25 C24 1_555 1_555
H16 C25 1_555 1_555
C26 C25 1_555 1_555
C27 C26 1_555 1_555
H17 C27 1_555 1_555
C28 C26 1_555 1_555
H18 C28 1_555 1_555
O5 C17 1_555 1_555
O6 C17 1_555 1_555
Ni4 O5 1_555 1_555
C22 C23 1_555 1_555
Ni3 O1 1_555 1_555
Ni4 O2 1_555 1_555
C1 C2 1_555 1_555
C4 C2 1_555 1_555
H2 C4 1_555 1_555
H19 C29 1_555 1_555
H20 C30 1_555 1_555
C31 C29 1_555 1_555
C32 C31 1_555 1_555
H25 C37 1_555 1_555
H30 C42 1_555 1_555
C43 H31 1_555 1_555
C44 C43 1_555 1_555
H32 C44 1_555 1_555
C45 C44 1_555 1_555
H33 C45 1_555 1_555
C46 C45 1_555 1_555
H34 C46 1_555 1_555
C47 C46 1_555 1_555
H35 C47 1_555 1_555
C48 H36 1_555 1_555
C49 C48 1_555 1_555
H37 C49 1_555 1_555
C50 C49 1_555 1_555
H38 C50 1_555 1_555
C51 C50 1_555 1_555
C52 C51 1_555 1_555
H40 C52 1_555 1_555
O1 C1 1_555 1_555
O2 C1 1_555 1_555
O7 Ni4 1_555 1_555
O8 Ni3 1_555 1_555
O9 Ni3 1_555 1_555
H41 O9 1_555 1_555
H42 O9 1_555 1_555
N1 Ni3 1_555 1_555
N2 Ni3 1_555 1_555
N3 Ni4 1_555 1_555
N4 Ni4 1_555 1_555
Ni4 O9 1_555 1_555
C30 C31 1_555 1_555
C32 O7 1_555 1_555
C32 O8 1_555 1_555
C37 N1 1_555 1_555
C42 N2 1_555 1_555
C43 N3 1_555 1_555
C47 N3 1_555 1_555
C48 N4 1_555 1_555
C52 N4 1_555 1_555
H3 C5 1_555 1_555
C7 C5 1_555 1_555
C8 C7 1_555 1_555
H5 C8 1_555 1_555
C9 C8 1_555 1_555
C3 H1 1_555 1_555
C6 C3 1_555 1_555
H4 C6 1_555 1_555
C17_2 C18_2 1_555 1_555
C18_2 C19_2 1_555 1_555
C19_2 H11_2 1_555 1_555
C20_2 C18_2 1_555 1_555
H12_2 C20_2 1_555 1_555
C21_2 C20_2 1_555 1_555
H13_2 C21_2 1_555 1_555
C22_2 C19_2 1_555 1_555
H14_2 C22_2 1_555 1_555
C23_2 C21_2 1_555 1_555
C24_2 C23_2 1_555 1_555
H15_2 C24_2 1_555 1_555
C25_2 C24_2 1_555 1_555
H16_2 C25_2 1_555 1_555
C26_2 C25_2 1_555 1_555
C27_2 C26_2 1_555 1_555
H17_2 C27_2 1_555 1_555
C28_2 C26_2 1_555 1_555
H18_2 C28_2 1_555 1_555
O5_2 C17_2 1_555 1_555
O6_2 C17_2 1_555 1_555
Ni4_2 O5_2 1_555 1_555
C22_2 C23_2 1_555 1_555
C11_2 C10_2 1_555 1_555
C12_2 C10_2 1_555 1_555
H8_2 C12_2 1_555 1_555
C13_2 C11_2 1_555 1_555
H9_2 C13_2 1_555 1_555
C14_2 C12_2 1_555 1_555
H10_2 C14_2 1_555 1_555
C15_2 C13_2 1_555 1_555
C16_2 C15_2 1_555 1_555
O3_2 C16_2 1_555 1_555
O4_2 C16_2 1_555 1_555
Ni3_2 O3_2 1_555 1_555
C14_2 C15_2 1_555 1_555
Ni3_2 O1_2 1_555 1_555
Ni4_2 O2_2 1_555 1_555
C1_2 C2_2 1_555 1_555
C4_2 C2_2 1_555 1_555
H2_2 C4_2 1_555 1_555
H19_2 C29_2 1_555 1_555
H20_2 C30_2 1_555 1_555
C31_2 C29_2 1_555 1_555
C32_2 C31_2 1_555 1_555
C33 H21 1_555 1_555
C34 C33 1_555 1_555
H22 C34 1_555 1_555
C35 C34 1_555 1_555
H23 C35 1_555 1_555
C36 C35 1_555 1_555
H24 C36 1_555 1_555
C37_2 C36 1_555 1_555
H25_2 C37_2 1_555 1_555
C38 H26 1_555 1_555
C39 C38 1_555 1_555
H27 C39 1_555 1_555
C40 C39 1_555 1_555
H28 C40 1_555 1_555
C41 C40 1_555 1_555
H29 C41 1_555 1_555
C42_2 C41 1_555 1_555
H30_2 C42_2 1_555 1_555
C43_2 H31_2 1_555 1_555
C44_2 C43_2 1_555 1_555
H32_2 C44_2 1_555 1_555
C45_2 C44_2 1_555 1_555
H33_2 C45_2 1_555 1_555
C46_2 C45_2 1_555 1_555
H34_2 C46_2 1_555 1_555
C47_2 C46_2 1_555 1_555
H35_2 C47_2 1_555 1_555
C48_2 H36_2 1_555 1_555
C49_2 C48_2 1_555 1_555
H37_2 C49_2 1_555 1_555
C50_2 C49_2 1_555 1_555
H38_2 C50_2 1_555 1_555
C51_2 C50_2 1_555 1_555
C52_2 C51_2 1_555 1_555
H40_2 C52_2 1_555 1_555
O1_2 C1_2 1_555 1_555
O2_2 C1_2 1_555 1_555
O7_2 Ni4_2 1_555 1_555
O8_2 Ni3_2 1_555 1_555
O9_2 Ni3_2 1_555 1_555
H41_2 O9_2 1_555 1_555
H42_2 O9_2 1_555 1_555
N1_2 Ni3_2 1_555 1_555
N2_2 Ni3_2 1_555 1_555
N3_2 Ni4_2 1_555 1_555
N4_2 Ni4_2 1_555 1_555
Ni4_2 O9_2 1_555 1_555
C30_2 C31_2 1_555 1_555
C32_2 O7_2 1_555 1_555
C32_2 O8_2 1_555 1_555
C33 N1_2 1_555 1_555
C37_2 N1_2 1_555 1_555
C38 N2_2 1_555 1_555
C42_2 N2_2 1_555 1_555
C43_2 N3_2 1_555 1_555
C47_2 N3_2 1_555 1_555
C48_2 N4_2 1_555 1_555
C52_2 N4_2 1_555 1_555
H2_3 C4_3 1_555 1_555
C43_3 H31_3 1_555 1_555
C44_3 C43_3 1_555 1_555
H32_3 C44_3 1_555 1_555
C45_3 C44_3 1_555 1_555
H33_3 C45_3 1_555 1_555
C46_3 C45_3 1_555 1_555
H34_3 C46_3 1_555 1_555
C47_3 C46_3 1_555 1_555
H35_3 C47_3 1_555 1_555
C48_3 H36_3 1_555 1_555
C49_3 C48_3 1_555 1_555
H37_3 C49_3 1_555 1_555
C50_3 C49_3 1_555 1_555
H38_3 C50_3 1_555 1_555
C51_3 C50_3 1_555 1_555
C52_3 C51_3 1_555 1_555
H40_3 C52_3 1_555 1_555
C43_3 N3_3 1_555 1_555
C47_3 N3_3 1_555 1_555
C48_3 N4_3 1_555 1_555
C52_3 N4_3 1_555 1_555
Ni1 O1_3 1_555 1_555
Ni2 O2_3 1_555 1_555
C1_3 C2_3 1_555 1_555
H19_3 C29_3 1_555 1_555
H20_3 C30_3 1_555 1_555
C31_3 C29_3 1_555 1_555
C32_3 C31_3 1_555 1_555
C33_2 H21_2 1_555 1_555
C34_2 C33_2 1_555 1_555
H22_2 C34_2 1_555 1_555
C35_2 C34_2 1_555 1_555
H23_2 C35_2 1_555 1_555
C36_2 C35_2 1_555 1_555
H24_2 C36_2 1_555 1_555
C37_3 C36_2 1_555 1_555
H25_3 C37_3 1_555 1_555
C38_2 H26_2 1_555 1_555
C39_2 C38_2 1_555 1_555
H27_2 C39_2 1_555 1_555
C40_2 C39_2 1_555 1_555
H28_2 C40_2 1_555 1_555
C41_2 C40_2 1_555 1_555
H29_2 C41_2 1_555 1_555
C42_3 C41_2 1_555 1_555
H30_3 C42_3 1_555 1_555
O1_3 C1_3 1_555 1_555
O2_3 C1_3 1_555 1_555
O7_3 Ni2 1_555 1_555
O8_3 Ni1 1_555 1_555
O9_3 Ni1 1_555 1_555
H41_3 O9_3 1_555 1_555
H42_3 O9_3 1_555 1_555
N1_3 Ni1 1_555 1_555
N2_3 Ni1 1_555 1_555
O10 Ni1 1_555 1_555
O11 Ni2 1_555 1_555
Ni2 O9_3 1_555 1_555
C30_3 C31_3 1_555 1_555
C32_3 O7_3 1_555 1_555
C32_3 O8_3 1_555 1_555
C33_2 N1_3 1_555 1_555
C37_3 N1_3 1_555 1_555
C38_2 N2_3 1_555 1_555
C42_3 N2_3 1_555 1_555
C11_3 C10_3 1_555 1_555
C12_3 C10_3 1_555 1_555
H8_3 C12_3 1_555 1_555
C13_3 C11_3 1_555 1_555
H9_3 C13_3 1_555 1_555
C14_3 C12_3 1_555 1_555
H10_3 C14_3 1_555 1_555
C15_3 C13_3 1_555 1_555
C16_3 C15_3 1_555 1_555
O10 C16_3 1_555 1_555
O4_3 C16_3 1_555 1_555
C14_3 C15_3 1_555 1_555
C17_3 C18_3 1_555 1_555
C18_3 C19_3 1_555 1_555
C19_3 H11_3 1_555 1_555
C22_3 C19_3 1_555 1_555
H14_3 C22_3 1_555 1_555
O11 C17_3 1_555 1_555
O6_3 C17_3 1_555 1_555
C22_3 C23_3 1_555 1_555
Ni1_2 O1_4 1_555 1_555
Ni2_2 O2_4 1_555 1_555
C1_4 C2_4 1_555 1_555
C4_4 C2_4 1_555 1_555
H2_4 C4_4 1_555 1_555
H19_4 C29_4 1_555 1_555
H20_4 C30_4 1_555 1_555
C31_4 C29_4 1_555 1_555
C32_4 C31_4 1_555 1_555
C33_3 H21_3 1_555 1_555
C34_3 C33_3 1_555 1_555
H22_3 C34_3 1_555 1_555
C35_3 C34_3 1_555 1_555
H23_3 C35_3 1_555 1_555
C36_3 C35_3 1_555 1_555
H24_3 C36_3 1_555 1_555
C37_4 C36_3 1_555 1_555
H25_4 C37_4 1_555 1_555
C38_3 H26_3 1_555 1_555
C39_3 C38_3 1_555 1_555
H27_3 C39_3 1_555 1_555
C40_3 C39_3 1_555 1_555
H28_3 C40_3 1_555 1_555
C41_3 C40_3 1_555 1_555
H29_3 C41_3 1_555 1_555
C42_4 C41_3 1_555 1_555
H30_4 C42_4 1_555 1_555
C43_4 H31_4 1_555 1_555
C44_4 C43_4 1_555 1_555
H32_4 C44_4 1_555 1_555
C45_4 C44_4 1_555 1_555
H33_4 C45_4 1_555 1_555
C46_4 C45_4 1_555 1_555
H34_4 C46_4 1_555 1_555
C47_4 C46_4 1_555 1_555
H35_4 C47_4 1_555 1_555
C48_4 H36_4 1_555 1_555
C49_4 C48_4 1_555 1_555
H37_4 C49_4 1_555 1_555
C50_4 C49_4 1_555 1_555
H38_4 C50_4 1_555 1_555
C51_4 C50_4 1_555 1_555
C52_4 C51_4 1_555 1_555
H40_4 C52_4 1_555 1_555
O1_4 C1_4 1_555 1_555
O2_4 C1_4 1_555 1_555
O7_4 Ni2_2 1_555 1_555
O8_4 Ni1_2 1_555 1_555
O9_4 Ni1_2 1_555 1_555
H41_4 O9_4 1_555 1_555
H42_4 O9_4 1_555 1_555
N1_4 Ni1_2 1_555 1_555
N2_4 Ni1_2 1_555 1_555
N3_4 Ni2_2 1_555 1_555
N4_4 Ni2_2 1_555 1_555
O10_2 Ni1_2 1_555 1_555
O11_2 Ni2_2 1_555 1_555
Ni2_2 O9_4 1_555 1_555
C30_4 C31_4 1_555 1_555
C32_4 O7_4 1_555 1_555
C32_4 O8_4 1_555 1_555
C33_3 N1_4 1_555 1_555
C37_4 N1_4 1_555 1_555
C38_3 N2_4 1_555 1_555
C42_4 N2_4 1_555 1_555
C43_4 N3_4 1_555 1_555
C47_4 N3_4 1_555 1_555
C48_4 N4_4 1_555 1_555
C52_4 N4_4 1_555 1_555
C17_4 C18_4 1_555 1_555
C18_4 C19_4 1_555 1_555
C19_4 H11_4 1_555 1_555
C20_3 C18_4 1_555 1_555
H12_3 C20_3 1_555 1_555
C21_3 C20_3 1_555 1_555
H13_3 C21_3 1_555 1_555
C22_4 C19_4 1_555 1_555
H14_4 C22_4 1_555 1_555
C23_4 C21_3 1_555 1_555
C24_3 C23_4 1_555 1_555
H15_4 C24_3 1_555 1_555
C25_3 C24_3 1_555 1_555
H16_3 C25_3 1_555 1_555
C26_3 C25_3 1_555 1_555
C27_3 C26_3 1_555 1_555
H17_4 C27_3 1_555 1_555
C28_3 C26_3 1_555 1_555
H18_3 C28_3 1_555 1_555
O11_2 C17_4 1_555 1_555
O6_4 C17_4 1_555 1_555
C22_4 C23_4 1_555 1_555
C11_4 C10_4 1_555 1_555
C12_4 C10_4 1_555 1_555
H8_4 C12_4 1_555 1_555
C13_4 C11_4 1_555 1_555
H9_4 C13_4 1_555 1_555
C14_4 C12_4 1_555 1_555
H10_4 C14_4 1_555 1_555
C15_4 C13_4 1_555 1_555
C16_4 C15_4 1_555 1_555
O10_2 C16_4 1_555 1_555
O4_4 C16_4 1_555 1_555
C14_4 C15_4 1_555 1_555
C3_2 H1_2 1_555 1_555
H3_2 C5_2 1_555 1_555
C6_2 C3_2 1_555 1_555
H4_2 C6_2 1_555 1_555
C7_2 C5_2 1_555 1_555
C8_2 C7_2 1_555 1_555
H5_2 C8_2 1_555 1_555
C9_2 C8_2 1_555 1_555
H6_2 C9_2 1_555 1_555
C6_2 C7_2 1_555 1_555
C3_3 H1_3 1_555 1_555
H3_3 C5_3 1_555 1_555
C6_3 C3_3 1_555 1_555
H4_3 C6_3 1_555 1_555
C7_3 C5_3 1_555 1_555
C8_3 C7_3 1_555 1_555
H5_3 C8_3 1_555 1_555
C9_3 C8_3 1_555 1_555
H6_3 C9_3 1_555 1_555
C6_3 C7_3 1_555 1_555
H12_4 C20_4 1_555 1_555
C21_4 C20_4 1_555 1_555
H13_4 C21_4 1_555 1_555
C25_4 C24_4 1_555 1_555
H16_4 C25_4 1_555 1_555
C26_4 C25_4 1_555 1_555
C27_4 C26_4 1_555 1_555
C28_4 C26_4 1_555 1_555
H18_4 C28_4 1_555 1_555
C33_4 H21_4 1_555 1_555
C34_4 C33_4 1_555 1_555
H22_4 C34_4 1_555 1_555
C35_4 C34_4 1_555 1_555
H23_4 C35_4 1_555 1_555
C36_4 C35_4 1_555 1_555
H24_4 C36_4 1_555 1_555
C38_4 H26_4 1_555 1_555
C39_4 C38_4 1_555 1_555
H27_4 C39_4 1_555 1_555
C40_4 C39_4 1_555 1_555
H28_4 C40_4 1_555 1_555
C41_4 C40_4 1_555 1_555
H29_4 C41_4 1_555 1_555
C3_4 H1_4 1_555 1_555
H3_4 C5_4 1_555 1_555
C6_4 C3_4 1_555 1_555
H4_4 C6_4 1_555 1_555
C7_4 C5_4 1_555 1_555
C8_4 C7_4 1_555 1_555
H5_4 C8_4 1_555 1_555
C9_4 C8_4 1_555 1_555
H6_4 C9_4 1_555 1_555
C6_4 C7_4 1_555 1_555

#END
