
###############################################################################
#
# This file contains modified crystal structure data generated from the
# MOF subset of the Cambridge Structural Database (CSD) v543 
# hosted by the Cambridge Crystallographic Data Centre (CCDC).
#
# This work is licensed under the Creative Commons
# Attribution-NonCommercial-ShareAlike 4.0 International License.
# To view a copy of this license, visit
# http://creativecommons.org/licenses/by-nc-sa/4.0/
# or send a letter to
# Creative Commons, PO Box 1866, Mountain View, CA 94042, USA.
#
# CIF created using the CSD Python API on 29 September 2022
# The structure has been converted into the P1 space group
# The structure has a 3D framework
# The original CSD entry XOXMED is in the monoclinic crystal system
# The framework has been calculated to contain at least 10.0% void space
# The void calculation uses a probe of radius 1.32A, grid spacing 0.4
# H atom positions have been added when not included in the experimental data
#
###############################################################################

data_XOXMED
_chemical_formula_moiety         '(C424 H336 N32 O112 Zn16)n'
_symmetry_cell_setting           triclinic
_symmetry_space_group_name_H-M   'P 1'
_symmetry_Int_Tables_number      1
_space_group_name_Hall           'P 1'
loop_
_symmetry_equiv_pos_site_id
_symmetry_equiv_pos_as_xyz
1 x,y,z
_cell_length_a                   23.275(4)
_cell_length_b                   25.486(4)
_cell_length_c                   49.521(7)
_cell_angle_alpha                90
_cell_angle_beta                 117.409(6)
_cell_angle_gamma                90
_cell_volume                     26077.6
loop_
_atom_site_label
_atom_site_type_symbol
_atom_site_fract_x
_atom_site_fract_y
_atom_site_fract_z
Zn5 Zn 0.03948(3) 0.622377(16) 0.301955(9)
Zn8 Zn 0.01174(3) 0.722779(17) 0.333943(9)
C17 C 0.3894(3) 0.8637(3) 0.00443(13)
H25 H 0.4292 0.8750 0.0039
H26 H 0.3997 0.8525 0.0251
C19 C 0.5002(4) 0.7667(3) 0.02032(15)
C20 C 0.5545(3) 0.7583(3) 0.05082(13)
C21 C 0.5390(3) 0.7352(2) 0.07407(16)
C22 C 0.4793(4) 0.7212(3) 0.06550(16)
C23 C 0.4210(4) 0.7297(4) 0.0344(2)
C24 C 0.6142(3) 0.7739(3) 0.05739(11)
H30 H 0.6234 0.7886 0.0421
C25 C 0.6637(3) 0.7682(2) 0.08773(10)
H31 H 0.7064 0.7798 0.0930
C26 C 0.6503(3) 0.7464(2) 0.10932(12)
C27 C 0.5888(3) 0.7286(2) 0.10316(13)
C28 C 0.5751(3) 0.7074(2) 0.12543(14)
C29 C 0.5152(3) 0.6900(2) 0.11936(14)
H32 H 0.5051 0.6746 0.1342
C30 C 0.4664(3) 0.6978(3) 0.0865(2)
H33 H 0.4237 0.6853 0.0802
C31 C 0.7015(3) 0.7415(2) 0.14091(12)
C32 C 0.6298(3) 0.6994(2) 0.15758(15)
C33 C 0.7442(2) 0.71108(19) 0.19275(9)
C34 C 0.7583(2) 0.75040(19) 0.21382(11)
C35 C 0.8191(2) 0.74116(18) 0.24194(9)
H34 H 0.8323 0.7661 0.2579
C36 C 0.8558(2) 0.69938(16) 0.24566(9)
C37 C 0.8368(2) 0.65996(17) 0.22532(9)
H35 H 0.8615 0.6287 0.2294
C38 C 0.7767(2) 0.66628(18) 0.19661(10)
C39 C 0.7217(2) 0.80040(16) 0.20849(10)
H36 H 0.7109 0.8137 0.1881
H37 H 0.7483 0.8263 0.2238
H38 H 0.6818 0.7942 0.2101
C40 C 0.7550(2) 0.62076(16) 0.17333(10)
H39 H 0.7106 0.6106 0.1683
H40 H 0.7839 0.5907 0.1821
H41 H 0.7567 0.6322 0.1548
C104 C 0.9200(3) 0.69415(18) 0.27401(10)
N1 N 0.4396(3) 0.7521(2) 0.01446(12)
N2 N 0.6874(2) 0.71939(15) 0.16267(9)
O5 O 0.3642(3) 0.7190(2) 0.02821(11)
O6 O 0.7585(2) 0.75738(13) 0.14867(7)
O7 O 0.6188(2) 0.67940(18) 0.17604(9)
O22 O 0.96052(15) 0.66248(12) 0.27306(5)
O23 O 0.92815(13) 0.72125(10) 0.29784(6)
C5 C 0.0281(3) 0.97343(17) 0.76943(9)
H11 H 0.0658 0.9610 0.7687
C10 C 0.2253(3) 0.8094(2) 0.90116(13)
C11 C 0.2824(3) 0.7931(2) 0.92961(13)
C12 C 0.3057(3) 0.8299(2) 0.95545(12)
H22 H 0.2844 0.8624 0.9538
C13 C 0.3582(3) 0.8164(3) 0.98162(14)
C14 C 0.3859(3) 0.7670(3) 0.98570(15)
C15 C 0.3656(4) 0.7329(3) 0.96281(18)
C16 C 0.3107(3) 0.7425(2) 0.93632(17)
H23 H 0.2912 0.7148 0.9222
H24 H 0.3588 0.8931 0.9984
C18 C 0.3943(4) 0.6739(3) 0.96127(17)
H27 H 0.4407 0.6766 0.9674
H28 H 0.3716 0.6604 0.9405
H29 H 0.3877 0.6501 0.9751
C41 C 0.1144(2) 0.82209(18) 0.77512(8)
C42 C 0.1162(2) 0.81571(17) 0.74487(10)
C43 C 0.1266(2) 0.76403(17) 0.73734(9)
H42 H 0.1374 0.7362 0.7516
C44 C 0.1201(2) 0.75490(18) 0.70707(10)
C45 C 0.1059(2) 0.79908(18) 0.68780(9)
C46 C 0.0985(2) 0.84855(18) 0.69688(10)
C47 C 0.1053(2) 0.85765(15) 0.72563(8)
H43 H 0.1024 0.8923 0.7320
C48 C 0.1213(3) 0.69783(17) 0.69719(10)
H44 H 0.0769 0.6847 0.6860
H45 H 0.1454 0.6760 0.7152
H46 H 0.1424 0.6965 0.6840
C49 C 0.0882(2) 0.89525(15) 0.67463(9)
H47 H 0.1288 0.9025 0.6739
H48 H 0.0749 0.9265 0.6818
H49 H 0.0546 0.8860 0.6542
C50 C 0.0359(4) 0.7727(2) 0.63699(12)
C51 C 0.0216(3) 0.76778(16) 0.60419(10)
C52 C 0.0704(3) 0.7805(2) 0.59638(12)
C53 C 0.1322(4) 0.7948(3) 0.61771(11)
C54 C 0.1452(4) 0.8005(2) 0.65095(12)
C58 C 0.0581(3) 0.7734(2) 0.56550(11)
C59 C 0.1075(4) 0.7844(2) 0.55803(15)
C60 C 0.1664(3) 0.8056(3) 0.57799(14)
H52 H 0.1966 0.8178 0.5715
C61 C 0.1796(3) 0.8084(3) 0.61003(12)
H53 H 0.2208 0.8195 0.6253
C63 C 0.0933(4) 0.7804(3) 0.52596(12)
C64 C 0.0246(3) 0.7370(3) 0.47562(11)
C67 C 0.0181(3) 0.70935(19) 0.42133(9)
C68 C 0.0408(3) 0.67528(19) 0.44573(11)
H55 H 0.0583 0.6425 0.4440
C69 C 0.0387(3) 0.6872(2) 0.47266(12)
H58 H 0.0183 0.8524 0.4672
C71 C 0.0593(3) 0.6477(2) 0.49723(12)
H59 H 0.0519 0.6124 0.4884
H60 H 0.0341 0.6523 0.5084
H61 H 0.1054 0.6523 0.5112
C72 C 0.0849(3) 0.68375(18) 0.83723(10)
C73 C 0.0961(3) 0.62657(18) 0.84241(9)
C74 C 0.1407(3) 0.60104(17) 0.83787(10)
H62 H 0.1669 0.6215 0.8318
C75 C 0.1532(3) 0.54559(19) 0.84125(12)
C76 C 0.1128(4) 0.51925(17) 0.84824(10)
C77 C 0.0658(3) 0.54070(18) 0.85449(10)
C78 C 0.0591(3) 0.59733(16) 0.85078(8)
H63 H 0.0271 0.6144 0.8544
C79 C 0.2014(3) 0.51864(18) 0.83476(15)
H64 H 0.2270 0.5447 0.8304
H65 H 0.1792 0.4956 0.8171
H66 H 0.2301 0.4976 0.8524
C80 C 0.0206(3) 0.5111(2) 0.86420(13)
H69 H 0.0466 0.4896 0.8821
C81 C 0.0766(3) 0.43552(15) 0.82103(9)
C82 C 0.0783(2) 0.37766(13) 0.82100(8)
C83 C 0.1136(2) 0.35073(14) 0.84889(8)
C84 C 0.1495(3) 0.37867(15) 0.87661(10)
C85 C 0.1489(3) 0.43615(16) 0.87695(10)
C86 C 0.0469(2) 0.35021(14) 0.79519(9)
H70 H 0.0230 0.3684 0.7766
C87 C 0.0486(2) 0.29468(13) 0.79510(8)
H71 H 0.0267 0.2758 0.7766
C88 C 0.0813(2) 0.26911(13) 0.82140(8)
C89 C 0.1167(2) 0.29588(14) 0.84768(8)
C90 C 0.1527(2) 0.26770(14) 0.87633(8)
C91 C 0.1883(2) 0.29610(15) 0.90313(8)
H72 H 0.2154 0.2783 0.9215
C92 C 0.1838(3) 0.35106(16) 0.90274(8)
H73 H 0.2055 0.3697 0.9214
C93 C 0.0762(2) 0.21176(14) 0.82081(9)
C94 C 0.1543(2) 0.21099(15) 0.87622(9)
C95 C 0.1168(2) 0.12756(14) 0.85048(9)
C96 C 0.1837(3) 0.12693(19) 0.82216(13)
H74 H 0.1714 0.1107 0.8023
H75 H 0.2304 0.1231 0.8350
H76 H 0.1723 0.1643 0.8194
C97 C 0.1436(3) 0.04540(17) 0.83722(9)
H77 H 0.1618 0.0253 0.8269
C98 C 0.0489(2) 0.13446(16) 0.87756(10)
H78 H 0.0796 0.1571 0.8938
H79 H 0.0282 0.1105 0.8859
H80 H 0.0158 0.1562 0.8617
C99 C 0.0851(2) 0.04875(15) 0.86404(8)
H81 H 0.0633 0.0312 0.8736
C100 C 0.0845(2) 0.10319(16) 0.86413(8)
C101 C 0.1477(2) 0.09991(17) 0.83742(9)
C102 C 0.1130(2) 0.02009(14) 0.85192(9)
C105 C 0.0254(3) 0.6948(2) 0.39297(11)
N3 N 0.0954(3) 0.79030(16) 0.65730(9)
N4 N 0.0329(3) 0.75756(18) 0.50526(9)
N5 N 0.1138(2) 0.46158(11) 0.84867(7)
N6 N 0.11772(18) 0.18513(10) 0.84922(7)
O1 O 0.07715(14) 0.82393(8) 0.83584(5)
O2 O 0.21367(19) 0.77939(14) 0.87709(10)
O3 O 0.19324(16) 0.84840(11) 0.90052(6)
O4 O 0.5107(2) 0.7842(2) 0.99960(9)
O8 O 0.14228(17) 0.78638(10) 0.79513(6)
O9 O 0.08949(14) 0.86413(10) 0.77848(5)
O11 O 0.1985(2) 0.81379(18) 0.66979(8)
O13 O 0.1310(2) 0.7844(2) 0.51744(8)
O14 O 0.0362(2) 0.70471(11) 0.83753(7)
O15 O 0.12872(17) 0.70854(12) 0.83406(6)
O16 O 0.1825(2) 0.46277(11) 0.89929(6)
O17 O 0.04164(17) 0.46106(9) 0.79768(6)
O18 O 0.18852(15) 0.18467(10) 0.89913(6)
O19 O 0.04306(14) 0.18521(9) 0.79856(5)
O21 O 0.06110(17) 0.65453(12) 0.39561(6)
O26 O 0.00118(19) 0.94235(13) 0.77850(8)
O28 O 0.2215(3) 0.8499(4) 0.84169(13)
Zn1 Zn 0.14907(3) 0.784155(17) 0.835574(9)
Zn2 Zn 0.03948(3) 0.877623(16) 0.801955(9)
Zn3 Zn 0.01174(3) 0.777221(17) 0.833943(9)
Zn4 Zn 0.10521(3) 0.865290(16) 0.872418(9)
O30 O 0.06110(17) 0.84547(12) 0.89561(6)
O33 O 0.12051(18) 0.93572(10) 0.83308(7)
O34 O 0.10663(16) 0.94085(10) 0.87448(6)
Zn9 Zn 0.10521(3) 0.634710(16) 0.372418(9)
H83 H 0.233368 0.868397 0.861197
H84 H 0.260961 0.834571 0.841936
C103 C 0.1159(3) 0.96186(15) 0.85437(10)
C1 C 0.8994(6) 0.9054(4) 0.8651(3)
H1 H 0.8581 0.9214 0.8614
H2 H 0.9185 0.8878 0.8850
H3 H 0.8921 0.8796 0.8492
C2 C 0.8617(4) 0.9945(4) 0.81897(19)
H4 H 0.8275 0.9856 0.8248
H5 H 0.8424 0.9935 0.7965
C4 C 0.9461(7) 0.9483(4) 0.8650(3)
H9 H 0.9442 0.9807 0.8757
H10 H 0.9913 0.9359 0.8733
C55 C 0.9591(3) 0.75380(18) 0.58215(11)
H50 H 0.9256 0.7491 0.5878
C56 C 0.9463(3) 0.7470(2) 0.55245(11)
H51 H 0.9044 0.7369 0.5374
C57 C 0.9941(3) 0.7549(2) 0.54507(11)
C62 C 0.9825(4) 0.7477(3) 0.51216(13)
C65 C 0.9993(3) 0.7752(2) 0.45230(12)
C66 C 0.9996(3) 0.75913(19) 0.42418(10)
H54 H 0.9869 0.7832 0.4078
C70 C 0.9797(3) 0.8319(2) 0.45429(12)
H56 H 0.9497 0.8323 0.4631
H57 H 0.9585 0.8473 0.4339
H67 H 0.9915 0.4884 0.8475
H68 H 0.9951 0.5364 0.8691
C106 C 0.9322(4) 0.9320(3) 0.81536(17)
H82 H 0.9085 0.9382 0.7941
N8 N 0.9154(3) 0.9546(3) 0.83234(12)
O10 O 0.9947(2) 0.76186(13) 0.64452(7)
O12 O 0.9286(2) 0.73121(16) 0.49225(7)
O20 O 0.99685(15) 0.72253(10) 0.37015(6)
O27 O 0.98133(18) 0.89957(12) 0.82515(6)
O29 O 0.99685(15) 0.77747(10) 0.87015(6)
O31 O 0.96052(15) 0.83752(12) 0.77306(5)
O32 O 0.92815(13) 0.77875(10) 0.79784(6)
H65_2 H 0.1792 0.0044 0.3171
H66_2 H 0.2301 0.0024 0.3524
H69_2 H 0.0466 0.0104 0.3821
C81_2 C 0.0766(3) 0.06448(15) 0.32103(9)
C82_2 C 0.0783(2) 0.12234(13) 0.32100(8)
C83_2 C 0.1136(2) 0.14927(14) 0.34889(8)
C84_2 C 0.1495(3) 0.12133(15) 0.37661(10)
C85_2 C 0.1489(3) 0.06385(16) 0.37695(10)
C86_2 C 0.0469(2) 0.14979(14) 0.29519(9)
H70_2 H 0.0230 0.1316 0.2766
C87_2 C 0.0486(2) 0.20532(13) 0.29510(8)
H71_2 H 0.0267 0.2242 0.2766
C88_2 C 0.0813(2) 0.23089(13) 0.32140(8)
C89_2 C 0.1167(2) 0.20412(14) 0.34768(8)
C90_2 C 0.1527(2) 0.23230(14) 0.37633(8)
C91_2 C 0.1883(2) 0.20390(15) 0.40313(8)
H72_2 H 0.2154 0.2217 0.4215
C92_2 C 0.1838(3) 0.14894(16) 0.40274(8)
H73_2 H 0.2055 0.1303 0.4214
C93_2 C 0.0762(2) 0.28824(14) 0.32081(9)
C94_2 C 0.1543(2) 0.28901(15) 0.37622(9)
C95_2 C 0.1168(2) 0.37244(14) 0.35048(9)
C96_2 C 0.1837(3) 0.37307(19) 0.32216(13)
H74_2 H 0.1714 0.3893 0.3023
H75_2 H 0.2304 0.3769 0.3350
H76_2 H 0.1723 0.3357 0.3194
C97_2 C 0.1436(3) 0.45460(17) 0.33722(9)
H77_2 H 0.1618 0.4747 0.3269
C98_2 C 0.0489(2) 0.36554(16) 0.37756(10)
H78_2 H 0.0796 0.3429 0.3938
H79_2 H 0.0282 0.3895 0.3859
H80_2 H 0.0158 0.3438 0.3617
C99_2 C 0.0851(2) 0.45125(15) 0.36404(8)
H81_2 H 0.0633 0.4688 0.3736
C100_2 C 0.0845(2) 0.39681(16) 0.36413(8)
C101_2 C 0.1477(2) 0.40009(17) 0.33742(9)
C102_2 C 0.1130(2) 0.47991(14) 0.35192(9)
C103_2 C 0.1159(3) 0.53814(15) 0.35437(10)
N5_2 N 0.1138(2) 0.03842(11) 0.34867(7)
N6_2 N 0.11772(18) 0.31487(10) 0.34922(7)
O16_2 O 0.1825(2) 0.03723(11) 0.39929(6)
O17_2 O 0.04164(17) 0.03894(9) 0.29768(6)
O18_2 O 0.18852(15) 0.31533(10) 0.39913(6)
O19_2 O 0.04306(14) 0.31479(9) 0.29856(5)
O24 O 0.12051(18) 0.56428(10) 0.33308(7)
O25 O 0.10663(16) 0.55915(10) 0.37448(6)
C5_2 C 0.0281(3) 0.52657(17) 0.26943(9)
H11_2 H 0.0658 0.5390 0.2687
C6 C 0.0528(5) 0.4445(3) 0.2513(2)
H12 H 0.0879 0.4299 0.2702
H13 H 0.0732 0.4700 0.2433
C7 C 0.0307(5) 0.4059(4) 0.23163(15)
H14 H 0.0656 0.3808 0.2357
H16 H 0.0145 0.4199 0.2110
C10_2 C 0.2253(3) 0.6906(2) 0.40116(13)
C11_2 C 0.2824(3) 0.7069(2) 0.42961(13)
C12_2 C 0.3057(3) 0.6701(2) 0.45545(12)
H22_2 H 0.2844 0.6376 0.4538
C13_2 C 0.3582(3) 0.6836(3) 0.48162(14)
C14_2 C 0.3859(3) 0.7330(3) 0.48570(15)
C15_2 C 0.3656(4) 0.7671(3) 0.46281(18)
C16_2 C 0.3107(3) 0.7575(2) 0.43632(17)
H23_2 H 0.2912 0.7852 0.4222
C17_2 C 0.3894(3) 0.6363(3) 0.50443(13)
H24_2 H 0.3588 0.6069 0.4984
H25_2 H 0.4292 0.6250 0.5039
H26_2 H 0.3997 0.6475 0.5251
C18_2 C 0.3943(4) 0.8261(3) 0.46127(17)
H27_2 H 0.4407 0.8234 0.4674
H28_2 H 0.3716 0.8396 0.4405
H29_2 H 0.3877 0.8499 0.4751
C19_2 C 0.5002(4) 0.7333(3) 0.52032(15)
C20_2 C 0.5545(3) 0.7417(3) 0.55082(13)
C21_2 C 0.5390(3) 0.7648(2) 0.57407(16)
C22_2 C 0.4793(4) 0.7788(3) 0.56550(16)
C23_2 C 0.4210(4) 0.7703(4) 0.5344(2)
C24_2 C 0.6142(3) 0.7261(3) 0.55739(11)
H30_2 H 0.6234 0.7114 0.5421
C25_2 C 0.6637(3) 0.7318(2) 0.58773(10)
H31_2 H 0.7064 0.7202 0.5930
C26_2 C 0.6503(3) 0.7536(2) 0.60932(12)
C27_2 C 0.5888(3) 0.7714(2) 0.60316(13)
C28_2 C 0.5751(3) 0.7926(2) 0.62543(14)
C29_2 C 0.5152(3) 0.8100(2) 0.61936(14)
H32_2 H 0.5051 0.8254 0.6342
C30_2 C 0.4664(3) 0.8022(3) 0.5865(2)
H33_2 H 0.4237 0.8147 0.5802
C31_2 C 0.7015(3) 0.7585(2) 0.64091(12)
C32_2 C 0.6298(3) 0.8006(2) 0.65758(15)
C33_2 C 0.7442(2) 0.78892(19) 0.69275(9)
C34_2 C 0.7583(2) 0.74960(19) 0.71382(11)
C35_2 C 0.8191(2) 0.75884(18) 0.74194(9)
H34_2 H 0.8323 0.7339 0.7579
C36_2 C 0.8558(2) 0.80062(16) 0.74566(9)
C37_2 C 0.8368(2) 0.84004(17) 0.72532(9)
H35_2 H 0.8615 0.8713 0.7294
C38_2 C 0.7767(2) 0.83372(18) 0.69661(10)
C39_2 C 0.7217(2) 0.69960(16) 0.70849(10)
H36_2 H 0.7109 0.6863 0.6881
H37_2 H 0.7483 0.6737 0.7238
H38_2 H 0.6818 0.7058 0.7101
C40_2 C 0.7550(2) 0.87924(16) 0.67333(10)
H39_2 H 0.7106 0.8894 0.6683
H40_2 H 0.7839 0.9093 0.6821
H41_2 H 0.7567 0.8678 0.6548
C41_2 C 0.1144(2) 0.67791(18) 0.27512(8)
C42_2 C 0.1162(2) 0.68429(17) 0.24487(10)
C43_2 C 0.1266(2) 0.73597(17) 0.23734(9)
H42_2 H 0.1374 0.7638 0.2516
C44_2 C 0.1201(2) 0.74510(18) 0.20707(10)
C45_2 C 0.1059(2) 0.70092(18) 0.18780(9)
C46_2 C 0.0985(2) 0.65145(18) 0.19688(10)
C47_2 C 0.1053(2) 0.64235(15) 0.22563(8)
H43_2 H 0.1024 0.6077 0.2320
C48_2 C 0.1213(3) 0.80217(17) 0.19719(10)
H44_2 H 0.0769 0.8153 0.1860
H45_2 H 0.1454 0.8240 0.2152
H46_2 H 0.1424 0.8035 0.1840
C49_2 C 0.0882(2) 0.60475(15) 0.17463(9)
H47_2 H 0.1288 0.5975 0.1739
H48_2 H 0.0749 0.5735 0.1818
H49_2 H 0.0546 0.6140 0.1542
C50_2 C 0.0359(4) 0.7273(2) 0.13699(12)
C51_2 C 0.0216(3) 0.73222(16) 0.10419(10)
C52_2 C 0.0704(3) 0.7195(2) 0.09638(12)
C53_2 C 0.1322(4) 0.7052(3) 0.11771(11)
C54_2 C 0.1452(4) 0.6995(2) 0.15095(12)
C58_2 C 0.0581(3) 0.7266(2) 0.06550(11)
C59_2 C 0.1075(4) 0.7156(2) 0.05803(15)
C60_2 C 0.1664(3) 0.6944(3) 0.07799(14)
H52_2 H 0.1966 0.6822 0.0715
C61_2 C 0.1796(3) 0.6916(3) 0.11003(12)
H53_2 H 0.2208 0.6805 0.1253
C63_2 C 0.0933(4) 0.7196(3) 0.02596(12)
H60_2 H 0.0341 0.8477 0.0084
H61_2 H 0.1054 0.8477 0.0112
C72_2 C 0.0849(3) 0.81625(18) 0.33723(10)
C73_2 C 0.0961(3) 0.87343(18) 0.34241(9)
C74_2 C 0.1407(3) 0.89896(17) 0.33787(10)
H62_2 H 0.1669 0.8785 0.3318
C75_2 C 0.1532(3) 0.95441(19) 0.34125(12)
C76_2 C 0.1128(4) 0.98075(17) 0.34824(10)
C77_2 C 0.0658(3) 0.95930(18) 0.35449(10)
C78_2 C 0.0591(3) 0.90267(16) 0.35078(8)
H63_2 H 0.0271 0.8856 0.3544
C79_2 C 0.2014(3) 0.98136(18) 0.33476(15)
H64_2 H 0.2270 0.9553 0.3304
C80_2 C 0.0206(3) 0.9889(2) 0.36420(13)
C104_2 C 0.9200(3) 0.80585(18) 0.77401(10)
N1_2 N 0.4396(3) 0.7479(2) 0.51446(12)
N2_2 N 0.6874(2) 0.78061(15) 0.66267(9)
N3_2 N 0.0954(3) 0.70970(16) 0.15730(9)
N4_2 N 0.0329(3) 0.74244(18) 0.00526(9)
N7 N 0.0101(3) 0.47417(17) 0.25992(9)
O1_2 O 0.07715(14) 0.67607(8) 0.33584(5)
O2_2 O 0.21367(19) 0.72061(14) 0.37709(10)
O3_2 O 0.19324(16) 0.65160(11) 0.40052(6)
O4_2 O 0.5107(2) 0.7158(2) 0.49960(9)
O5_2 O 0.3642(3) 0.7810(2) 0.52821(11)
O6_2 O 0.7585(2) 0.74262(13) 0.64867(7)
O7_2 O 0.6188(2) 0.82060(18) 0.67604(9)
O8_2 O 0.14228(17) 0.71362(10) 0.29513(6)
O9_2 O 0.08949(14) 0.63587(10) 0.27848(5)
O11_2 O 0.1985(2) 0.68621(18) 0.16979(8)
O13_2 O 0.1310(2) 0.7156(2) 0.01744(8)
O14_2 O 0.0362(2) 0.79529(11) 0.33753(7)
O15_2 O 0.12872(17) 0.79146(12) 0.33406(6)
O26_2 O 0.00118(19) 0.55765(13) 0.27850(8)
O28_2 O 0.2215(3) 0.6501(4) 0.34169(13)
Zn1_2 Zn 0.14907(3) 0.715845(17) 0.335574(9)
H83_2 H 0.233368 0.631603 0.361197
H84_2 H 0.260961 0.665429 0.341936
C64_2 C 0.0246(3) 0.7630(3) 0.97562(11)
C67_2 C 0.0181(3) 0.79065(19) 0.92133(9)
C68_2 C 0.0408(3) 0.82472(19) 0.94573(11)
H55_2 H 0.0583 0.8575 0.9440
C69_2 C 0.0387(3) 0.8128(2) 0.97266(12)
H58_2 H 0.0183 0.6476 0.9672
C71_2 C 0.0593(3) 0.8523(2) 0.99723(12)
H59_2 H 0.0519 0.8876 0.9884
C105_2 C 0.0254(3) 0.8052(2) 0.89297(11)
C1_2 C 0.8994(6) 0.5946(4) 0.3651(3)
H1_2 H 0.8581 0.5786 0.3614
H2_2 H 0.9185 0.6122 0.3850
H3_2 H 0.8921 0.6204 0.3492
C2_2 C 0.8617(4) 0.5055(4) 0.31897(19)
H4_2 H 0.8275 0.5144 0.3248
H5_2 H 0.8424 0.5065 0.2965
C3 C 0.8899(4) 0.4439(3) 0.3315(2)
H6 H 0.9239 0.4457 0.3527
H7 H 0.8544 0.4219 0.3303
H8 H 0.9078 0.4288 0.3188
C4_2 C 0.9461(7) 0.5517(4) 0.3650(3)
H9_2 H 0.9442 0.5193 0.3757
H10_2 H 0.9913 0.5641 0.3733
H15 H 0.9954 0.3882 0.2336
C8 C 0.9550(9) 0.4456(4) 0.2670(4)
H17 H 0.9688 0.4096 0.2651
H18 H 0.9192 0.4526 0.2465
C9 C 0.9246(7) 0.4332(7) 0.2758(5)
H19 H 0.8882 0.4136 0.2602
H20 H 0.9486 0.4104 0.2934
H21 H 0.9081 0.4637 0.2821
C55_2 C 0.9591(3) 0.74620(18) 0.08215(11)
H50_2 H 0.9256 0.7509 0.0878
C56_2 C 0.9463(3) 0.7530(2) 0.05245(11)
H51_2 H 0.9044 0.7631 0.0374
C57_2 C 0.9941(3) 0.7451(2) 0.04507(11)
C62_2 C 0.9825(4) 0.7523(3) 0.01216(13)
H68_2 H 0.9951 0.9636 0.3691
C106_2 C 0.9322(4) 0.5680(3) 0.31536(17)
H82_2 H 0.9085 0.5618 0.2941
N8_2 N 0.9154(3) 0.5454(3) 0.33234(12)
O10_2 O 0.9947(2) 0.73814(13) 0.14452(7)
O27_2 O 0.98133(18) 0.60043(12) 0.32515(6)
C65_2 C 0.9993(3) 0.7248(2) 0.95230(12)
C66_2 C 0.9996(3) 0.74087(19) 0.92418(10)
H54_2 H 0.9869 0.7168 0.9078
C70_2 C 0.9797(3) 0.6681(2) 0.95429(12)
H56_2 H 0.9497 0.6677 0.9631
H57_2 H 0.9585 0.6527 0.9339
O12_2 O 0.9286(2) 0.76879(16) 0.99225(7)
C6_2 C 0.0528(5) 0.0555(3) 0.7513(2)
H12_2 H 0.0879 0.0701 0.7702
H13_2 H 0.0732 0.0300 0.7433
C7_2 C 0.0307(5) 0.0941(4) 0.73163(15)
H14_2 H 0.0656 0.1192 0.7357
H16_2 H 0.0145 0.0801 0.7110
N7_2 N 0.0101(3) 0.02583(17) 0.75992(9)
C3_2 C 0.8899(4) 0.0561(3) 0.8315(2)
H6_2 H 0.9239 0.0543 0.8527
H7_2 H 0.8544 0.0781 0.8303
H8_2 H 0.9078 0.0712 0.8188
H15_2 H 0.9954 0.1118 0.7336
C8_2 C 0.9550(9) 0.0544(4) 0.7670(4)
H17_2 H 0.9688 0.0904 0.7651
H18_2 H 0.9192 0.0474 0.7465
C9_2 C 0.9246(7) 0.0668(7) 0.7758(5)
H19_2 H 0.8882 0.0864 0.7602
H20_2 H 0.9486 0.0896 0.7934
H21_2 H 0.9081 0.0363 0.7821
C65_3 C 0.0007(3) 0.2752(2) 0.04770(12)
C66_3 C 0.0004(3) 0.25913(19) 0.07582(10)
H54_3 H 0.0131 0.2832 0.0922
C70_3 C 0.0203(3) 0.3319(2) 0.04571(12)
H56_3 H 0.0503 0.3323 0.0369
H57_3 H 0.0415 0.3473 0.0661
O12_3 O 0.0714(2) 0.23121(16) 0.00775(7)
O20_2 O 0.00315(15) 0.22253(10) 0.12985(6)
C1_3 C 0.1006(6) 0.4054(4) 0.6349(3)
H1_3 H 0.1419 0.4214 0.6386
H2_3 H 0.0815 0.3878 0.6150
H3_3 H 0.1079 0.3796 0.6508
C2_3 C 0.1383(4) 0.4945(4) 0.68103(19)
H4_3 H 0.1725 0.4856 0.6752
H5_3 H 0.1576 0.4935 0.7035
C3_3 C 0.1101(4) 0.5561(3) 0.6685(2)
H6_3 H 0.0761 0.5543 0.6473
H7_3 H 0.1456 0.5781 0.6697
H8_3 H 0.0922 0.5712 0.6812
C4_3 C 0.0539(7) 0.4483(4) 0.6350(3)
H9_3 H 0.0558 0.4807 0.6243
H10_3 H 0.0087 0.4359 0.6267
H15_3 H 0.0046 0.6118 0.7664
C8_3 C 0.0450(9) 0.5544(4) 0.7330(4)
H17_3 H 0.0312 0.5904 0.7349
H18_3 H 0.0808 0.5474 0.7535
C9_3 C 0.0754(7) 0.5668(7) 0.7242(5)
H19_3 H 0.1118 0.5864 0.7398
H20_3 H 0.0514 0.5896 0.7066
H21_3 H 0.0919 0.5363 0.7179
C55_3 C 0.0409(3) 0.25380(18) 0.91785(11)
H50_3 H 0.0744 0.2491 0.9122
C56_3 C 0.0537(3) 0.2470(2) 0.94755(11)
H51_3 H 0.0956 0.2369 0.9626
C57_3 C 0.0059(3) 0.2549(2) 0.95493(11)
C62_3 C 0.0175(4) 0.2477(3) 0.98784(13)
H68_3 H 0.0049 0.0364 0.6309
C106_3 C 0.0678(4) 0.4320(3) 0.68464(17)
H82_3 H 0.0915 0.4382 0.7059
N8_3 N 0.0846(3) 0.4546(3) 0.66766(12)
O10_3 O 0.0053(2) 0.26186(13) 0.85548(7)
O27_3 O 0.01867(18) 0.39957(12) 0.67485(6)
O29_2 O 0.00315(15) 0.27747(10) 0.62985(6)
O31_2 O 0.03948(15) 0.33752(12) 0.72694(5)
O32_2 O 0.07185(13) 0.27875(10) 0.70216(6)
C64_3 C 0.9754(3) 0.2370(3) 0.02438(11)
C67_3 C 0.9819(3) 0.20935(19) 0.07867(9)
C68_3 C 0.9592(3) 0.17528(19) 0.05427(11)
H55_3 H 0.9417 0.1425 0.0560
C69_3 C 0.9613(3) 0.1872(2) 0.02734(12)
H58_3 H 0.9817 0.3524 0.0328
C71_3 C 0.9407(3) 0.1477(2) 0.00277(12)
H59_3 H 0.9481 0.1124 0.0116
C105_3 C 0.9746(3) 0.1948(2) 0.10703(11)
O21_2 O 0.93890(17) 0.15453(12) 0.10439(6)
Zn7 Zn 0.98826(3) 0.222779(17) 0.166057(9)
Zn9_2 Zn 0.89479(3) 0.134710(16) 0.127582(9)
C5_3 C 0.9719(3) 0.47343(17) 0.73057(9)
H11_3 H 0.9342 0.4610 0.7313
C6_3 C 0.9472(5) 0.5555(3) 0.7487(2)
H12_3 H 0.9121 0.5701 0.7298
H13_3 H 0.9268 0.5300 0.7567
C7_3 C 0.9693(5) 0.5941(4) 0.76837(15)
H14_3 H 0.9344 0.6192 0.7643
H16_3 H 0.9855 0.5801 0.7890
C10_3 C 0.7747(3) 0.3094(2) 0.59884(13)
C11_3 C 0.7176(3) 0.2931(2) 0.57039(13)
C12_3 C 0.6943(3) 0.3299(2) 0.54455(12)
H22_3 H 0.7156 0.3624 0.5462
C13_3 C 0.6418(3) 0.3164(3) 0.51838(14)
C14_3 C 0.6141(3) 0.2670(3) 0.51430(15)
C15_3 C 0.6344(4) 0.2329(3) 0.53719(18)
C16_3 C 0.6893(3) 0.2425(2) 0.56368(17)
H23_3 H 0.7088 0.2148 0.5778
C17_3 C 0.6106(3) 0.3637(3) 0.49557(13)
H24_3 H 0.6412 0.3931 0.5016
H25_3 H 0.5708 0.3750 0.4961
H26_3 H 0.6003 0.3525 0.4749
C18_3 C 0.6057(4) 0.1739(3) 0.53873(17)
H27_3 H 0.5593 0.1766 0.5326
H28_3 H 0.6284 0.1604 0.5595
H29_3 H 0.6123 0.1501 0.5249
C19_3 C 0.4998(4) 0.2667(3) 0.47968(15)
C20_3 C 0.4455(3) 0.2583(3) 0.44918(13)
C21_3 C 0.4610(3) 0.2352(2) 0.42593(16)
C22_3 C 0.5207(4) 0.2212(3) 0.43450(16)
C23_3 C 0.5790(4) 0.2297(4) 0.4656(2)
C24_3 C 0.3858(3) 0.2739(3) 0.44261(11)
H30_3 H 0.3766 0.2886 0.4579
C25_3 C 0.3363(3) 0.2682(2) 0.41227(10)
H31_3 H 0.2936 0.2798 0.4070
C26_3 C 0.3497(3) 0.2464(2) 0.39068(12)
C27_3 C 0.4112(3) 0.2286(2) 0.39684(13)
C28_3 C 0.4249(3) 0.2074(2) 0.37457(14)
C29_3 C 0.4848(3) 0.1900(2) 0.38064(14)
H32_3 H 0.4949 0.1746 0.3658
C30_3 C 0.5336(3) 0.1978(3) 0.4135(2)
H33_3 H 0.5763 0.1853 0.4198
C31_3 C 0.2985(3) 0.2415(2) 0.35909(12)
C32_3 C 0.3702(3) 0.1994(2) 0.34242(15)
C33_3 C 0.2558(2) 0.21108(19) 0.30725(9)
C34_3 C 0.2417(2) 0.25040(19) 0.28618(11)
C35_3 C 0.1809(2) 0.24116(18) 0.25806(9)
H34_3 H 0.1677 0.2661 0.2421
C36_3 C 0.1442(2) 0.19938(16) 0.25434(9)
C37_3 C 0.1632(2) 0.15996(17) 0.27468(9)
H35_3 H 0.1385 0.1287 0.2706
C38_3 C 0.2233(2) 0.16628(18) 0.30339(10)
C39_3 C 0.2783(2) 0.30040(16) 0.29151(10)
H36_3 H 0.2891 0.3137 0.3119
H37_3 H 0.2517 0.3263 0.2762
H38_3 H 0.3182 0.2942 0.2899
C40_3 C 0.2450(2) 0.12076(16) 0.32667(10)
H39_3 H 0.2894 0.1106 0.3317
H40_3 H 0.2161 0.0907 0.3179
H41_3 H 0.2433 0.1322 0.3452
C41_3 C 0.8856(2) 0.32209(18) 0.72488(8)
C42_3 C 0.8838(2) 0.31571(17) 0.75513(10)
C43_3 C 0.8734(2) 0.26403(17) 0.76266(9)
H42_3 H 0.8626 0.2362 0.7484
C44_3 C 0.8799(2) 0.25490(18) 0.79293(10)
C45_3 C 0.8941(2) 0.29908(18) 0.81220(9)
C46_3 C 0.9015(2) 0.34855(18) 0.80312(10)
C47_3 C 0.8947(2) 0.35765(15) 0.77437(8)
H43_3 H 0.8976 0.3923 0.7680
C48_3 C 0.8787(3) 0.19783(17) 0.80281(10)
H44_3 H 0.9231 0.1847 0.8140
H45_3 H 0.8546 0.1760 0.7848
H46_3 H 0.8576 0.1965 0.8160
C49_3 C 0.9118(2) 0.39525(15) 0.82537(9)
H47_3 H 0.8712 0.4025 0.8261
H48_3 H 0.9251 0.4265 0.8182
H49_3 H 0.9454 0.3860 0.8458
C50_3 C 0.9641(4) 0.2727(2) 0.86301(12)
C51_3 C 0.9784(3) 0.26778(16) 0.89581(10)
C52_3 C 0.9296(3) 0.2805(2) 0.90362(12)
C53_3 C 0.8678(4) 0.2948(3) 0.88229(11)
C54_3 C 0.8548(4) 0.3005(2) 0.84905(12)
C58_3 C 0.9419(3) 0.2734(2) 0.93450(11)
C59_3 C 0.8925(4) 0.2844(2) 0.94197(15)
C60_3 C 0.8336(3) 0.3056(3) 0.92201(14)
H52_3 H 0.8034 0.3178 0.9285
C61_3 C 0.8204(3) 0.3084(3) 0.88997(12)
H53_3 H 0.7792 0.3195 0.8747
C63_3 C 0.9067(4) 0.2804(3) 0.97404(12)
H60_3 H 0.9659 0.1523 0.9916
H61_3 H 0.8946 0.1523 0.9888
C72_3 C 0.9151(3) 0.18375(18) 0.66277(10)
C73_3 C 0.9039(3) 0.12657(18) 0.65759(9)
C74_3 C 0.8593(3) 0.10104(17) 0.66213(10)
H62_3 H 0.8331 0.1215 0.6682
C75_3 C 0.8468(3) 0.04559(19) 0.65875(12)
C76_3 C 0.8872(4) 0.01925(17) 0.65176(10)
C77_3 C 0.9342(3) 0.04070(18) 0.64551(10)
C78_3 C 0.9409(3) 0.09733(16) 0.64922(8)
H63_3 H 0.9729 0.1144 0.6456
C79_3 C 0.7986(3) 0.01864(18) 0.66524(15)
H64_3 H 0.7730 0.0447 0.6696
C80_3 C 0.9794(3) 0.0111(2) 0.63580(13)
C104_3 C 0.0800(3) 0.19415(18) 0.22599(10)
N1_3 N 0.5604(3) 0.2521(2) 0.48554(12)
N2_3 N 0.3126(2) 0.21939(15) 0.33733(9)
N3_3 N 0.9046(3) 0.29030(16) 0.84270(9)
N4_3 N 0.9671(3) 0.25756(18) 0.99474(9)
N7_3 N 0.9899(3) 0.52583(17) 0.74008(9)
O1_3 O 0.92285(14) 0.32393(8) 0.66416(5)
O2_3 O 0.78633(19) 0.27939(14) 0.62291(10)
O3_3 O 0.80676(16) 0.34840(11) 0.59948(6)
O4_3 O 0.4893(2) 0.2842(2) 0.50040(9)
O5_3 O 0.6358(3) 0.2190(2) 0.47179(11)
O6_3 O 0.2415(2) 0.25738(13) 0.35133(7)
O7_3 O 0.3812(2) 0.17940(18) 0.32396(9)
O8_3 O 0.85772(17) 0.28638(10) 0.70487(6)
O9_3 O 0.91051(14) 0.36413(10) 0.72152(5)
O11_3 O 0.8015(2) 0.31379(18) 0.83021(8)
O13_3 O 0.8690(2) 0.2844(2) 0.98256(8)
O14_3 O 0.9638(2) 0.20471(11) 0.66247(7)
O15_3 O 0.87128(17) 0.20854(12) 0.66594(6)
O22_2 O 0.03948(15) 0.16248(12) 0.22694(5)
O23_2 O 0.07185(13) 0.22125(10) 0.20216(6)
O26_3 O 0.99882(19) 0.44235(13) 0.72150(8)
O28_3 O 0.7785(3) 0.3499(4) 0.65831(13)
Zn1_3 Zn 0.85093(3) 0.284155(17) 0.664426(9)
Zn2_2 Zn 0.96052(3) 0.377623(16) 0.698045(9)
Zn3_2 Zn 0.98826(3) 0.277221(17) 0.666057(9)
Zn4_2 Zn 0.89479(3) 0.365290(16) 0.627582(9)
O30_2 O 0.93890(17) 0.34547(12) 0.60439(6)
O33_2 O 0.87949(18) 0.43572(10) 0.66692(7)
O34_2 O 0.89337(16) 0.44085(10) 0.62552(6)
H83_3 H 0.766632 0.368397 0.638803
H84_3 H 0.739039 0.334571 0.658064
H65_3 H 0.8208 0.9956 0.6829
H66_3 H 0.7699 0.9976 0.6476
H69_3 H 0.9534 0.9896 0.6179
C81_3 C 0.9234(3) 0.93552(15) 0.67897(9)
C82_3 C 0.9217(2) 0.87766(13) 0.67900(8)
C83_3 C 0.8864(2) 0.85073(14) 0.65111(8)
C84_3 C 0.8505(3) 0.87867(15) 0.62339(10)
C85_3 C 0.8511(3) 0.93615(16) 0.62305(10)
C86_3 C 0.9531(2) 0.85021(14) 0.70481(9)
H70_3 H 0.9770 0.8684 0.7234
C87_3 C 0.9514(2) 0.79468(13) 0.70490(8)
H71_3 H 0.9733 0.7758 0.7234
C88_3 C 0.9187(2) 0.76911(13) 0.67860(8)
C89_3 C 0.8833(2) 0.79588(14) 0.65232(8)
C90_3 C 0.8473(2) 0.76770(14) 0.62367(8)
C91_3 C 0.8117(2) 0.79610(15) 0.59687(8)
H72_3 H 0.7846 0.7783 0.5785
C92_3 C 0.8162(3) 0.85106(16) 0.59726(8)
H73_3 H 0.7945 0.8697 0.5786
C93_3 C 0.9238(2) 0.71176(14) 0.67919(9)
C94_3 C 0.8457(2) 0.71099(15) 0.62378(9)
C95_3 C 0.8832(2) 0.62756(14) 0.64952(9)
C96_3 C 0.8163(3) 0.62693(19) 0.67784(13)
H74_3 H 0.8286 0.6107 0.6977
H75_3 H 0.7696 0.6231 0.6650
H76_3 H 0.8277 0.6643 0.6806
C97_3 C 0.8564(3) 0.54540(17) 0.66278(9)
H77_3 H 0.8382 0.5253 0.6731
C98_3 C 0.9511(2) 0.63446(16) 0.62244(10)
H78_3 H 0.9204 0.6571 0.6062
H79_3 H 0.9718 0.6105 0.6141
H80_3 H 0.9842 0.6562 0.6383
C99_3 C 0.9149(2) 0.54875(15) 0.63596(8)
H81_3 H 0.9367 0.5312 0.6264
C100_3 C 0.9155(2) 0.60319(16) 0.63587(8)
C101_3 C 0.8523(2) 0.59991(17) 0.66258(9)
C102_3 C 0.8870(2) 0.52009(14) 0.64808(9)
C103_3 C 0.8841(3) 0.46186(15) 0.64563(10)
N5_3 N 0.8862(2) 0.96158(11) 0.65133(7)
N6_3 N 0.88228(18) 0.68513(10) 0.65078(7)
O16_3 O 0.8175(2) 0.96277(11) 0.60071(6)
O17_3 O 0.95836(17) 0.96106(9) 0.70232(6)
O18_3 O 0.81148(15) 0.68467(10) 0.60087(6)
O19_3 O 0.95694(14) 0.68521(9) 0.70144(5)
Zn5_2 Zn 0.96052(3) 0.122377(16) 0.198045(9)
C1_4 C 0.1006(6) 0.0946(4) 0.1349(3)
H1_4 H 0.1419 0.0786 0.1386
H2_4 H 0.0815 0.1122 0.1150
H3_4 H 0.1079 0.1204 0.1508
C2_4 C 0.1383(4) 0.0055(4) 0.18103(19)
H4_4 H 0.1725 0.0144 0.1752
H5_4 H 0.1576 0.0065 0.2035
C4_4 C 0.0539(7) 0.0517(4) 0.1350(3)
H9_4 H 0.0558 0.0193 0.1243
H10_4 H 0.0087 0.0641 0.1267
C55_4 C 0.0409(3) 0.24620(18) 0.41785(11)
H50_4 H 0.0744 0.2509 0.4122
C56_4 C 0.0537(3) 0.2530(2) 0.44755(11)
H51_4 H 0.0956 0.2631 0.4626
C57_4 C 0.0059(3) 0.2451(2) 0.45493(11)
C62_4 C 0.0175(4) 0.2523(3) 0.48784(13)
C65_4 C 0.0007(3) 0.2248(2) 0.54770(12)
C66_4 C 0.0004(3) 0.24087(19) 0.57582(10)
H54_4 H 0.0131 0.2168 0.5922
C70_4 C 0.0203(3) 0.1681(2) 0.54571(12)
H56_4 H 0.0503 0.1677 0.5369
H57_4 H 0.0415 0.1527 0.5661
H67_2 H 0.0085 0.5116 0.1525
H68_4 H 0.0049 0.4636 0.1309
C106_4 C 0.0678(4) 0.0680(3) 0.18464(17)
H82_4 H 0.0915 0.0618 0.2059
N8_4 N 0.0846(3) 0.0454(3) 0.16766(12)
O10_4 O 0.0053(2) 0.23814(13) 0.35548(7)
O12_4 O 0.0714(2) 0.26879(16) 0.50775(7)
O27_4 O 0.01867(18) 0.10043(12) 0.17485(6)
C103_4 C 0.8841(3) 0.03814(15) 0.14563(10)
O24_2 O 0.87949(18) 0.06428(10) 0.16692(7)
O25_2 O 0.89337(16) 0.05915(10) 0.12552(6)
C5_4 C 0.9719(3) 0.02657(17) 0.23057(9)
H11_4 H 0.9342 0.0390 0.2313
C10_4 C 0.7747(3) 0.1906(2) 0.09884(13)
C11_4 C 0.7176(3) 0.2069(2) 0.07039(13)
C12_4 C 0.6943(3) 0.1701(2) 0.04455(12)
H22_4 H 0.7156 0.1376 0.0462
C13_4 C 0.6418(3) 0.1836(3) 0.01838(14)
C14_4 C 0.6141(3) 0.2330(3) 0.01430(15)
C15_4 C 0.6344(4) 0.2671(3) 0.03719(18)
C16_4 C 0.6893(3) 0.2575(2) 0.06368(17)
H23_4 H 0.7088 0.2852 0.0778
H24_4 H 0.6412 0.1069 0.0016
C18_4 C 0.6057(4) 0.3261(3) 0.03873(17)
H27_4 H 0.5593 0.3234 0.0326
H28_4 H 0.6284 0.3396 0.0595
H29_4 H 0.6123 0.3499 0.0249
C41_4 C 0.8856(2) 0.17791(18) 0.22488(8)
C42_4 C 0.8838(2) 0.18429(17) 0.25513(10)
C43_4 C 0.8734(2) 0.23597(17) 0.26266(9)
H42_4 H 0.8626 0.2638 0.2484
C44_4 C 0.8799(2) 0.24510(18) 0.29293(10)
C45_4 C 0.8941(2) 0.20092(18) 0.31220(9)
C46_4 C 0.9015(2) 0.15145(18) 0.30312(10)
C47_4 C 0.8947(2) 0.14235(15) 0.27437(8)
H43_4 H 0.8976 0.1077 0.2680
C48_4 C 0.8787(3) 0.30217(17) 0.30281(10)
H44_4 H 0.9231 0.3153 0.3140
H45_4 H 0.8546 0.3240 0.2848
H46_4 H 0.8576 0.3035 0.3160
C49_4 C 0.9118(2) 0.10475(15) 0.32537(9)
H47_4 H 0.8712 0.0975 0.3261
H48_4 H 0.9251 0.0735 0.3182
H49_4 H 0.9454 0.1140 0.3458
C50_4 C 0.9641(4) 0.2273(2) 0.36301(12)
C51_4 C 0.9784(3) 0.23222(16) 0.39581(10)
C52_4 C 0.9296(3) 0.2195(2) 0.40362(12)
C53_4 C 0.8678(4) 0.2052(3) 0.38229(11)
C54_4 C 0.8548(4) 0.1995(2) 0.34905(12)
C58_4 C 0.9419(3) 0.2266(2) 0.43450(11)
C59_4 C 0.8925(4) 0.2156(2) 0.44197(15)
C60_4 C 0.8336(3) 0.1944(3) 0.42201(14)
H52_4 H 0.8034 0.1822 0.4285
C61_4 C 0.8204(3) 0.1916(3) 0.38997(12)
H53_4 H 0.7792 0.1805 0.3747
C63_4 C 0.9067(4) 0.2196(3) 0.47404(12)
C64_4 C 0.9754(3) 0.2630(3) 0.52438(11)
C67_4 C 0.9819(3) 0.29065(19) 0.57867(9)
C68_4 C 0.9592(3) 0.32472(19) 0.55427(11)
H55_4 H 0.9417 0.3575 0.5560
C69_4 C 0.9613(3) 0.3128(2) 0.52734(12)
H58_4 H 0.9817 0.1476 0.5328
C71_4 C 0.9407(3) 0.3523(2) 0.50277(12)
H59_4 H 0.9481 0.3876 0.5116
H60_4 H 0.9659 0.3477 0.4916
H61_4 H 0.8946 0.3477 0.4888
C72_4 C 0.9151(3) 0.31625(18) 0.16277(10)
C73_4 C 0.9039(3) 0.37343(18) 0.15759(9)
C74_4 C 0.8593(3) 0.39896(17) 0.16213(10)
H62_4 H 0.8331 0.3785 0.1682
C75_4 C 0.8468(3) 0.45441(19) 0.15875(12)
C76_4 C 0.8872(4) 0.48075(17) 0.15176(10)
C77_4 C 0.9342(3) 0.45930(18) 0.14551(10)
C78_4 C 0.9409(3) 0.40267(16) 0.14922(8)
H63_4 H 0.9729 0.3856 0.1456
C79_4 C 0.7986(3) 0.48136(18) 0.16524(15)
H64_4 H 0.7730 0.4553 0.1696
H65_4 H 0.8208 0.5044 0.1829
H66_4 H 0.7699 0.5024 0.1476
C80_4 C 0.9794(3) 0.4889(2) 0.13580(13)
H69_4 H 0.9534 0.5104 0.1179
C81_4 C 0.9234(3) 0.56448(15) 0.17897(9)
C82_4 C 0.9217(2) 0.62234(13) 0.17900(8)
C83_4 C 0.8864(2) 0.64927(14) 0.15111(8)
C84_4 C 0.8505(3) 0.62133(15) 0.12339(10)
C85_4 C 0.8511(3) 0.56385(16) 0.12305(10)
C86_4 C 0.9531(2) 0.64979(14) 0.20481(9)
H70_4 H 0.9770 0.6316 0.2234
C87_4 C 0.9514(2) 0.70532(13) 0.20490(8)
H71_4 H 0.9733 0.7242 0.2234
C88_4 C 0.9187(2) 0.73089(13) 0.17860(8)
C89_4 C 0.8833(2) 0.70412(14) 0.15232(8)
C90_4 C 0.8473(2) 0.73230(14) 0.12367(8)
C91_4 C 0.8117(2) 0.70390(15) 0.09687(8)
H72_4 H 0.7846 0.7217 0.0785
C92_4 C 0.8162(3) 0.64894(16) 0.09726(8)
H73_4 H 0.7945 0.6303 0.0786
C93_4 C 0.9238(2) 0.78824(14) 0.17919(9)
C94_4 C 0.8457(2) 0.78901(15) 0.12378(9)
C95_4 C 0.8832(2) 0.87244(14) 0.14952(9)
C96_4 C 0.8163(3) 0.87307(19) 0.17784(13)
H74_4 H 0.8286 0.8893 0.1977
H75_4 H 0.7696 0.8769 0.1650
H76_4 H 0.8277 0.8357 0.1806
C97_4 C 0.8564(3) 0.95460(17) 0.16278(9)
H77_4 H 0.8382 0.9747 0.1731
C98_4 C 0.9511(2) 0.86554(16) 0.12244(10)
H78_4 H 0.9204 0.8429 0.1062
H79_4 H 0.9718 0.8895 0.1141
H80_4 H 0.9842 0.8438 0.1383
C99_4 C 0.9149(2) 0.95125(15) 0.13596(8)
H81_4 H 0.9367 0.9688 0.1264
C100_4 C 0.9155(2) 0.89681(16) 0.13587(8)
C101_4 C 0.8523(2) 0.90009(17) 0.16258(9)
C102_4 C 0.8870(2) 0.97991(14) 0.14808(9)
C105_4 C 0.9746(3) 0.3052(2) 0.60703(11)
N3_4 N 0.9046(3) 0.20970(16) 0.34270(9)
N4_4 N 0.9671(3) 0.24244(18) 0.49474(9)
N5_4 N 0.8862(2) 0.53842(11) 0.15133(7)
N6_4 N 0.88228(18) 0.81487(10) 0.15078(7)
O1_4 O 0.92285(14) 0.17607(8) 0.16416(5)
O2_4 O 0.78633(19) 0.22061(14) 0.12291(10)
O3_4 O 0.80676(16) 0.15160(11) 0.09948(6)
O4_4 O 0.4893(2) 0.2158(2) 0.00040(9)
O8_4 O 0.85772(17) 0.21362(10) 0.20487(6)
O9_4 O 0.91051(14) 0.13587(10) 0.22152(5)
O11_4 O 0.8015(2) 0.18621(18) 0.33021(8)
O13_4 O 0.8690(2) 0.2156(2) 0.48256(8)
O14_4 O 0.9638(2) 0.29529(11) 0.16247(7)
O15_4 O 0.87128(17) 0.29146(12) 0.16594(6)
O16_4 O 0.8175(2) 0.53723(11) 0.10071(6)
O17_4 O 0.95836(17) 0.53894(9) 0.20232(6)
O18_4 O 0.81148(15) 0.81533(10) 0.10087(6)
O19_4 O 0.95694(14) 0.81479(9) 0.20144(5)
O26_4 O 0.99882(19) 0.05765(13) 0.22150(8)
O28_4 O 0.7785(3) 0.1501(4) 0.15831(13)
Zn1_4 Zn 0.85093(3) 0.215845(17) 0.164426(9)
H83_4 H 0.766632 0.131603 0.138803
H84_4 H 0.739039 0.165429 0.158064
C17_4 C 0.6106(3) 0.1363(3) 0.99557(13)
H25_4 H 0.5708 0.1250 0.9961
H26_4 H 0.6003 0.1475 0.9749
C19_4 C 0.4998(4) 0.2333(3) 0.97968(15)
C20_4 C 0.4455(3) 0.2417(3) 0.94918(13)
C21_4 C 0.4610(3) 0.2648(2) 0.92593(16)
C22_4 C 0.5207(4) 0.2788(3) 0.93450(16)
C23_4 C 0.5790(4) 0.2703(4) 0.9656(2)
C24_4 C 0.3858(3) 0.2261(3) 0.94261(11)
H30_4 H 0.3766 0.2114 0.9579
C25_4 C 0.3363(3) 0.2318(2) 0.91227(10)
H31_4 H 0.2936 0.2202 0.9070
C26_4 C 0.3497(3) 0.2536(2) 0.89068(12)
C27_4 C 0.4112(3) 0.2714(2) 0.89684(13)
C28_4 C 0.4249(3) 0.2926(2) 0.87457(14)
C29_4 C 0.4848(3) 0.3100(2) 0.88064(14)
H32_4 H 0.4949 0.3254 0.8658
C30_4 C 0.5336(3) 0.3022(3) 0.9135(2)
H33_4 H 0.5763 0.3147 0.9198
C31_4 C 0.2985(3) 0.2585(2) 0.85909(12)
C32_4 C 0.3702(3) 0.3006(2) 0.84242(15)
C33_4 C 0.2558(2) 0.28892(19) 0.80725(9)
C34_4 C 0.2417(2) 0.24960(19) 0.78618(11)
C35_4 C 0.1809(2) 0.25884(18) 0.75806(9)
H34_4 H 0.1677 0.2339 0.7421
C36_4 C 0.1442(2) 0.30062(16) 0.75434(9)
C37_4 C 0.1632(2) 0.34004(17) 0.77468(9)
H35_4 H 0.1385 0.3713 0.7706
C38_4 C 0.2233(2) 0.33372(18) 0.80339(10)
C39_4 C 0.2783(2) 0.19960(16) 0.79151(10)
H36_4 H 0.2891 0.1863 0.8119
H37_4 H 0.2517 0.1737 0.7762
H38_4 H 0.3182 0.2058 0.7899
C40_4 C 0.2450(2) 0.37924(16) 0.82667(10)
H39_4 H 0.2894 0.3894 0.8317
H40_4 H 0.2161 0.4093 0.8179
H41_4 H 0.2433 0.3678 0.8452
C104_4 C 0.0800(3) 0.30585(18) 0.72599(10)
N1_4 N 0.5604(3) 0.2479(2) 0.98554(12)
N2_4 N 0.3126(2) 0.28061(15) 0.83733(9)
O5_4 O 0.6358(3) 0.2810(2) 0.97179(11)
O6_4 O 0.2415(2) 0.24262(13) 0.85133(7)
O7_4 O 0.3812(2) 0.32060(18) 0.82396(9)
H67_3 H 0.0085 0.9884 0.6525
C3_4 C 0.1101(4) 0.9439(3) 0.1685(2)
H6_4 H 0.0761 0.9457 0.1473
H7_4 H 0.1456 0.9219 0.1697
H8_4 H 0.0922 0.9288 0.1812
H15_4 H 0.0046 0.8882 0.2664
C8_4 C 0.0450(9) 0.9456(4) 0.2330(4)
H17_4 H 0.0312 0.9096 0.2349
H18_4 H 0.0808 0.9526 0.2535
C9_4 C 0.0754(7) 0.9332(7) 0.2242(5)
H19_4 H 0.1118 0.9136 0.2398
H20_4 H 0.0514 0.9104 0.2066
H21_4 H 0.0919 0.9637 0.2179
C6_4 C 0.9472(5) 0.9445(3) 0.2487(2)
H12_4 H 0.9121 0.9299 0.2298
H13_4 H 0.9268 0.9700 0.2567
C7_4 C 0.9693(5) 0.9059(4) 0.26837(15)
H14_4 H 0.9344 0.8808 0.2643
H16_4 H 0.9855 0.9199 0.2890
N7_4 N 0.9899(3) 0.97417(17) 0.24008(9)
H67_4 H 0.9915 0.0116 0.3475
loop_
_geom_bond_atom_site_label_1
_geom_bond_atom_site_label_2
_geom_bond_site_symmetry_1
_geom_bond_site_symmetry_2
H25 C17 1_555 1_555
H26 C17 1_555 1_555
C19 C20 1_555 1_555
C20 C21 1_555 1_555
C21 C22 1_555 1_555
C22 C23 1_555 1_555
C23 N1 1_555 1_555
C24 C20 1_555 1_555
H30 C24 1_555 1_555
C25 C24 1_555 1_555
H31 C25 1_555 1_555
C26 C25 1_555 1_555
C27 C21 1_555 1_555
C28 C27 1_555 1_555
C29 C28 1_555 1_555
H32 C29 1_555 1_555
C30 C22 1_555 1_555
H33 C30 1_555 1_555
C31 C26 1_555 1_555
C32 C28 1_555 1_555
C33 C34 1_555 1_555
C34 C35 1_555 1_555
C35 H34 1_555 1_555
C36 C35 1_555 1_555
C37 C36 1_555 1_555
H35 C37 1_555 1_555
C38 C33 1_555 1_555
C39 C34 1_555 1_555
H36 C39 1_555 1_555
H37 C39 1_555 1_555
H38 C39 1_555 1_555
C40 C38 1_555 1_555
H39 C40 1_555 1_555
H40 C40 1_555 1_555
H41 C40 1_555 1_555
C104 C36 1_555 1_555
N2 C31 1_555 1_555
O5 C23 1_555 1_555
O6 C31 1_555 1_555
O7 C32 1_555 1_555
O22 C104 1_555 1_555
O23 C104 1_555 1_555
C19 N1 1_555 1_555
C26 C27 1_555 1_555
C29 C30 1_555 1_555
C32 N2 1_555 1_555
C33 N2 1_555 1_555
C37 C38 1_555 1_555
C5 H11 1_555 1_555
C10 C11 1_555 1_555
C11 C12 1_555 1_555
C12 H22 1_555 1_555
C13 C12 1_555 1_555
C14 C13 1_555 1_555
C15 C14 1_555 1_555
C16 C11 1_555 1_555
H23 C16 1_555 1_555
C18 C15 1_555 1_555
H27 C18 1_555 1_555
H28 C18 1_555 1_555
H29 C18 1_555 1_555
C41 C42 1_555 1_555
C42 C43 1_555 1_555
C43 H42 1_555 1_555
C44 C43 1_555 1_555
C45 C44 1_555 1_555
C46 C45 1_555 1_555
C47 C42 1_555 1_555
H43 C47 1_555 1_555
C48 C44 1_555 1_555
H44 C48 1_555 1_555
H45 C48 1_555 1_555
H46 C48 1_555 1_555
C49 C46 1_555 1_555
H47 C49 1_555 1_555
H48 C49 1_555 1_555
H49 C49 1_555 1_555
C50 C51 1_555 1_555
C51 C52 1_555 1_555
C52 C53 1_555 1_555
C53 C54 1_555 1_555
C54 N3 1_555 1_555
C58 C52 1_555 1_555
C59 C58 1_555 1_555
C60 C59 1_555 1_555
H52 C60 1_555 1_555
C61 C53 1_555 1_555
H53 C61 1_555 1_555
C63 C59 1_555 1_555
C68 C67 1_555 1_555
H55 C68 1_555 1_555
C69 C64 1_555 1_555
C71 C69 1_555 1_555
H59 C71 1_555 1_555
H60 C71 1_555 1_555
H61 C71 1_555 1_555
C72 C73 1_555 1_555
C73 C74 1_555 1_555
C74 H62 1_555 1_555
C75 C74 1_555 1_555
C76 C75 1_555 1_555
C77 C76 1_555 1_555
C78 C73 1_555 1_555
H63 C78 1_555 1_555
C79 C75 1_555 1_555
H64 C79 1_555 1_555
H65 C79 1_555 1_555
H66 C79 1_555 1_555
C80 C77 1_555 1_555
H69 C80 1_555 1_555
C81 C82 1_555 1_555
C82 C83 1_555 1_555
C83 C84 1_555 1_555
C84 C85 1_555 1_555
C85 N5 1_555 1_555
C86 C82 1_555 1_555
H70 C86 1_555 1_555
C87 C86 1_555 1_555
H71 C87 1_555 1_555
C88 C87 1_555 1_555
C89 C83 1_555 1_555
C90 C89 1_555 1_555
C91 C90 1_555 1_555
H72 C91 1_555 1_555
C92 C84 1_555 1_555
H73 C92 1_555 1_555
C93 C88 1_555 1_555
C94 C90 1_555 1_555
C95 C100 1_555 1_555
C96 H74 1_555 1_555
H75 C96 1_555 1_555
H76 C96 1_555 1_555
C97 H77 1_555 1_555
C98 H78 1_555 1_555
H79 C98 1_555 1_555
H80 C98 1_555 1_555
C99 H81 1_555 1_555
C100 C98 1_555 1_555
C101 C95 1_555 1_555
C102 C97 1_555 1_555
C105 C67 1_555 1_555
N3 C45 1_555 1_555
N5 C76 1_555 1_555
N6 C93 1_555 1_555
O1 Zn1 1_555 1_555
O2 C10 1_555 1_555
O3 C10 1_555 1_555
O8 C41 1_555 1_555
O9 C41 1_555 1_555
O11 C54 1_555 1_555
O13 C63 1_555 1_555
O14 C72 1_555 1_555
O15 C72 1_555 1_555
O16 C85 1_555 1_555
O17 C81 1_555 1_555
O18 C94 1_555 1_555
O19 C93 1_555 1_555
O21 C105 1_555 1_555
O26 C5 1_555 1_555
O28 Zn1 1_555 1_555
Zn1 O2 1_555 1_555
Zn2 O1 1_555 1_555
Zn3 O1 1_555 1_555
Zn4 O1 1_555 1_555
O30 Zn4 1_555 1_555
O33 Zn2 1_555 1_555
O34 Zn4 1_555 1_555
Zn9 O21 1_555 1_555
C15 C16 1_555 1_555
C46 C47 1_555 1_555
C50 N3 1_555 1_555
C60 C61 1_555 1_555
C63 N4 1_555 1_555
C64 N4 1_555 1_555
C68 C69 1_555 1_555
C77 C78 1_555 1_555
C81 N5 1_555 1_555
C88 C89 1_555 1_555
C91 C92 1_555 1_555
C94 N6 1_555 1_555
C95 N6 1_555 1_555
C96 C101 1_555 1_555
C97 C101 1_555 1_555
C99 C100 1_555 1_555
C99 C102 1_555 1_555
O3 Zn4 1_555 1_555
O8 Zn1 1_555 1_555
O9 Zn2 1_555 1_555
O14 Zn3 1_555 1_555
O15 Zn1 1_555 1_555
O26 Zn2 1_555 1_555
O28 H83 1_555 1_555
O28 H84 1_555 1_555
O33 C103 1_555 1_555
O34 C103 1_555 1_555
C1 H1 1_555 1_555
H2 C1 1_555 1_555
H3 C1 1_555 1_555
C2 H4 1_555 1_555
H5 C2 1_555 1_555
C4 C1 1_555 1_555
H9 C4 1_555 1_555
H10 C4 1_555 1_555
H50 C55 1_555 1_555
C56 C55 1_555 1_555
H51 C56 1_555 1_555
C57 C56 1_555 1_555
C62 C57 1_555 1_555
C65 C66 1_555 1_555
C66 H54 1_555 1_555
C70 C65 1_555 1_555
H56 C70 1_555 1_555
H57 C70 1_555 1_555
C106 H82 1_555 1_555
N8 C2 1_555 1_555
O12 C62 1_555 1_555
O27 C106 1_555 1_555
C4 N8 1_555 1_555
C106 N8 1_555 1_555
C81_2 C82_2 1_555 1_555
C82_2 C83_2 1_555 1_555
C83_2 C84_2 1_555 1_555
C84_2 C85_2 1_555 1_555
C85_2 N5_2 1_555 1_555
C86_2 C82_2 1_555 1_555
H70_2 C86_2 1_555 1_555
C87_2 C86_2 1_555 1_555
H71_2 C87_2 1_555 1_555
C88_2 C87_2 1_555 1_555
C89_2 C83_2 1_555 1_555
C90_2 C89_2 1_555 1_555
C91_2 C90_2 1_555 1_555
H72_2 C91_2 1_555 1_555
C92_2 C84_2 1_555 1_555
H73_2 C92_2 1_555 1_555
C93_2 C88_2 1_555 1_555
C94_2 C90_2 1_555 1_555
C95_2 C100_2 1_555 1_555
C96_2 H74_2 1_555 1_555
H75_2 C96_2 1_555 1_555
H76_2 C96_2 1_555 1_555
C97_2 H77_2 1_555 1_555
C98_2 H78_2 1_555 1_555
H79_2 C98_2 1_555 1_555
H80_2 C98_2 1_555 1_555
C99_2 H81_2 1_555 1_555
C100_2 C98_2 1_555 1_555
C101_2 C95_2 1_555 1_555
C102_2 C97_2 1_555 1_555
C103_2 C102_2 1_555 1_555
N6_2 C93_2 1_555 1_555
O16_2 C85_2 1_555 1_555
O17_2 C81_2 1_555 1_555
O18_2 C94_2 1_555 1_555
O19_2 C93_2 1_555 1_555
O24 C103_2 1_555 1_555
O25 C103_2 1_555 1_555
Zn5 O24 1_555 1_555
Zn9 O25 1_555 1_555
C81_2 N5_2 1_555 1_555
C88_2 C89_2 1_555 1_555
C91_2 C92_2 1_555 1_555
C94_2 N6_2 1_555 1_555
C95_2 N6_2 1_555 1_555
C96_2 C101_2 1_555 1_555
C97_2 C101_2 1_555 1_555
C99_2 C100_2 1_555 1_555
C99_2 C102_2 1_555 1_555
C5_2 H11_2 1_555 1_555
C6 H12 1_555 1_555
H13 C6 1_555 1_555
C7 C6 1_555 1_555
H14 C7 1_555 1_555
H16 C7 1_555 1_555
C10_2 C11_2 1_555 1_555
C11_2 C12_2 1_555 1_555
C12_2 H22_2 1_555 1_555
C13_2 C12_2 1_555 1_555
C14_2 C13_2 1_555 1_555
C15_2 C14_2 1_555 1_555
C16_2 C11_2 1_555 1_555
H23_2 C16_2 1_555 1_555
C17_2 C13_2 1_555 1_555
H24_2 C17_2 1_555 1_555
H25_2 C17_2 1_555 1_555
H26_2 C17_2 1_555 1_555
C18_2 C15_2 1_555 1_555
H27_2 C18_2 1_555 1_555
H28_2 C18_2 1_555 1_555
H29_2 C18_2 1_555 1_555
C19_2 C20_2 1_555 1_555
C20_2 C21_2 1_555 1_555
C21_2 C22_2 1_555 1_555
C22_2 C23_2 1_555 1_555
C23_2 N1_2 1_555 1_555
C24_2 C20_2 1_555 1_555
H30_2 C24_2 1_555 1_555
C25_2 C24_2 1_555 1_555
H31_2 C25_2 1_555 1_555
C26_2 C25_2 1_555 1_555
C27_2 C21_2 1_555 1_555
C28_2 C27_2 1_555 1_555
C29_2 C28_2 1_555 1_555
H32_2 C29_2 1_555 1_555
C30_2 C22_2 1_555 1_555
H33_2 C30_2 1_555 1_555
C31_2 C26_2 1_555 1_555
C32_2 C28_2 1_555 1_555
C33_2 C34_2 1_555 1_555
C34_2 C35_2 1_555 1_555
C35_2 H34_2 1_555 1_555
C36_2 C35_2 1_555 1_555
C37_2 C36_2 1_555 1_555
H35_2 C37_2 1_555 1_555
C38_2 C33_2 1_555 1_555
C39_2 C34_2 1_555 1_555
H36_2 C39_2 1_555 1_555
H37_2 C39_2 1_555 1_555
H38_2 C39_2 1_555 1_555
C40_2 C38_2 1_555 1_555
H39_2 C40_2 1_555 1_555
H40_2 C40_2 1_555 1_555
H41_2 C40_2 1_555 1_555
C41_2 C42_2 1_555 1_555
C42_2 C43_2 1_555 1_555
C43_2 H42_2 1_555 1_555
C44_2 C43_2 1_555 1_555
C45_2 C44_2 1_555 1_555
C46_2 C45_2 1_555 1_555
C47_2 C42_2 1_555 1_555
H43_2 C47_2 1_555 1_555
C48_2 C44_2 1_555 1_555
H44_2 C48_2 1_555 1_555
H45_2 C48_2 1_555 1_555
H46_2 C48_2 1_555 1_555
C49_2 C46_2 1_555 1_555
H47_2 C49_2 1_555 1_555
H48_2 C49_2 1_555 1_555
H49_2 C49_2 1_555 1_555
C50_2 C51_2 1_555 1_555
C51_2 C52_2 1_555 1_555
C52_2 C53_2 1_555 1_555
C53_2 C54_2 1_555 1_555
C54_2 N3_2 1_555 1_555
C58_2 C52_2 1_555 1_555
C59_2 C58_2 1_555 1_555
C60_2 C59_2 1_555 1_555
H52_2 C60_2 1_555 1_555
C61_2 C53_2 1_555 1_555
H53_2 C61_2 1_555 1_555
C63_2 C59_2 1_555 1_555
C72_2 C73_2 1_555 1_555
C73_2 C74_2 1_555 1_555
C74_2 H62_2 1_555 1_555
C75_2 C74_2 1_555 1_555
C76_2 C75_2 1_555 1_555
C77_2 C76_2 1_555 1_555
C78_2 C73_2 1_555 1_555
H63_2 C78_2 1_555 1_555
C79_2 C75_2 1_555 1_555
H64_2 C79_2 1_555 1_555
C80_2 C77_2 1_555 1_555
C104_2 C36_2 1_555 1_555
N1_2 C14_2 1_555 1_555
N2_2 C31_2 1_555 1_555
N3_2 C45_2 1_555 1_555
N7 C5_2 1_555 1_555
O1_2 Zn1_2 1_555 1_555
O2_2 C10_2 1_555 1_555
O3_2 C10_2 1_555 1_555
O4_2 C19_2 1_555 1_555
O5_2 C23_2 1_555 1_555
O6_2 C31_2 1_555 1_555
O7_2 C32_2 1_555 1_555
O8_2 C41_2 1_555 1_555
O9_2 C41_2 1_555 1_555
O11_2 C54_2 1_555 1_555
O13_2 C63_2 1_555 1_555
O14_2 C72_2 1_555 1_555
O15_2 C72_2 1_555 1_555
O31 C104_2 1_555 1_555
O32 C104_2 1_555 1_555
O26_2 C5_2 1_555 1_555
O28_2 Zn1_2 1_555 1_555
Zn1_2 O2_2 1_555 1_555
Zn5 O1_2 1_555 1_555
Zn8 O1_2 1_555 1_555
Zn9 O1_2 1_555 1_555
C6 N7 1_555 1_555
C15_2 C16_2 1_555 1_555
C19_2 N1_2 1_555 1_555
C26_2 C27_2 1_555 1_555
C29_2 C30_2 1_555 1_555
C32_2 N2_2 1_555 1_555
C33_2 N2_2 1_555 1_555
C37_2 C38_2 1_555 1_555
C46_2 C47_2 1_555 1_555
C50_2 N3_2 1_555 1_555
C60_2 C61_2 1_555 1_555
C63_2 N4_2 1_555 1_555
C77_2 C78_2 1_555 1_555
O3_2 Zn9 1_555 1_555
O8_2 Zn1_2 1_555 1_555
O9_2 Zn5 1_555 1_555
O14_2 Zn8 1_555 1_555
O15_2 Zn1_2 1_555 1_555
O26_2 Zn5 1_555 1_555
O28_2 H83_2 1_555 1_555
O28_2 H84_2 1_555 1_555
C68_2 C67_2 1_555 1_555
H55_2 C68_2 1_555 1_555
C69_2 C64_2 1_555 1_555
C71_2 C69_2 1_555 1_555
H59_2 C71_2 1_555 1_555
C105_2 C67_2 1_555 1_555
O30 C105_2 1_555 1_555
C68_2 C69_2 1_555 1_555
C1_2 H1_2 1_555 1_555
H2_2 C1_2 1_555 1_555
H3_2 C1_2 1_555 1_555
C2_2 H4_2 1_555 1_555
H5_2 C2_2 1_555 1_555
C3 C2_2 1_555 1_555
H6 C3 1_555 1_555
H7 C3 1_555 1_555
H8 C3 1_555 1_555
C4_2 C1_2 1_555 1_555
H9_2 C4_2 1_555 1_555
H10_2 C4_2 1_555 1_555
C8 H17 1_555 1_555
H18 C8 1_555 1_555
C9 C8 1_555 1_555
H19 C9 1_555 1_555
H20 C9 1_555 1_555
H21 C9 1_555 1_555
H50_2 C55_2 1_555 1_555
C56_2 C55_2 1_555 1_555
H51_2 C56_2 1_555 1_555
C57_2 C56_2 1_555 1_555
C62_2 C57_2 1_555 1_555
C106_2 H82_2 1_555 1_555
N8_2 C2_2 1_555 1_555
O27_2 C106_2 1_555 1_555
C4_2 N8_2 1_555 1_555
C106_2 N8_2 1_555 1_555
C65_2 C66_2 1_555 1_555
C66_2 H54_2 1_555 1_555
C70_2 C65_2 1_555 1_555
H56_2 C70_2 1_555 1_555
H57_2 C70_2 1_555 1_555
C6_2 H12_2 1_555 1_555
H13_2 C6_2 1_555 1_555
C7_2 C6_2 1_555 1_555
H14_2 C7_2 1_555 1_555
H16_2 C7_2 1_555 1_555
C6_2 N7_2 1_555 1_555
H6_2 C3_2 1_555 1_555
H7_2 C3_2 1_555 1_555
H8_2 C3_2 1_555 1_555
C8_2 H17_2 1_555 1_555
H18_2 C8_2 1_555 1_555
C9_2 C8_2 1_555 1_555
H19_2 C9_2 1_555 1_555
H20_2 C9_2 1_555 1_555
H21_2 C9_2 1_555 1_555
C65_3 C66_3 1_555 1_555
C66_3 H54_3 1_555 1_555
C70_3 C65_3 1_555 1_555
H56_3 C70_3 1_555 1_555
H57_3 C70_3 1_555 1_555
C1_3 H1_3 1_555 1_555
H2_3 C1_3 1_555 1_555
H3_3 C1_3 1_555 1_555
C2_3 H4_3 1_555 1_555
H5_3 C2_3 1_555 1_555
C3_3 C2_3 1_555 1_555
H6_3 C3_3 1_555 1_555
H7_3 C3_3 1_555 1_555
H8_3 C3_3 1_555 1_555
C4_3 C1_3 1_555 1_555
H9_3 C4_3 1_555 1_555
H10_3 C4_3 1_555 1_555
C8_3 H17_3 1_555 1_555
H18_3 C8_3 1_555 1_555
C9_3 C8_3 1_555 1_555
H19_3 C9_3 1_555 1_555
H20_3 C9_3 1_555 1_555
H21_3 C9_3 1_555 1_555
H50_3 C55_3 1_555 1_555
C56_3 C55_3 1_555 1_555
H51_3 C56_3 1_555 1_555
C57_3 C56_3 1_555 1_555
C62_3 C57_3 1_555 1_555
C106_3 H82_3 1_555 1_555
N8_3 C2_3 1_555 1_555
O27_3 C106_3 1_555 1_555
C4_3 N8_3 1_555 1_555
C106_3 N8_3 1_555 1_555
C68_3 C67_3 1_555 1_555
H55_3 C68_3 1_555 1_555
C69_3 C64_3 1_555 1_555
C71_3 C69_3 1_555 1_555
H59_3 C71_3 1_555 1_555
C105_3 C67_3 1_555 1_555
O21_2 C105_3 1_555 1_555
Zn9_2 O21_2 1_555 1_555
C68_3 C69_3 1_555 1_555
C5_3 H11_3 1_555 1_555
C6_3 H12_3 1_555 1_555
H13_3 C6_3 1_555 1_555
C7_3 C6_3 1_555 1_555
H14_3 C7_3 1_555 1_555
H16_3 C7_3 1_555 1_555
C10_3 C11_3 1_555 1_555
C11_3 C12_3 1_555 1_555
C12_3 H22_3 1_555 1_555
C13_3 C12_3 1_555 1_555
C14_3 C13_3 1_555 1_555
C15_3 C14_3 1_555 1_555
C16_3 C11_3 1_555 1_555
H23_3 C16_3 1_555 1_555
C17_3 C13_3 1_555 1_555
H24_3 C17_3 1_555 1_555
H25_3 C17_3 1_555 1_555
H26_3 C17_3 1_555 1_555
C18_3 C15_3 1_555 1_555
H27_3 C18_3 1_555 1_555
H28_3 C18_3 1_555 1_555
H29_3 C18_3 1_555 1_555
C19_3 C20_3 1_555 1_555
C20_3 C21_3 1_555 1_555
C21_3 C22_3 1_555 1_555
C22_3 C23_3 1_555 1_555
C23_3 N1_3 1_555 1_555
C24_3 C20_3 1_555 1_555
H30_3 C24_3 1_555 1_555
C25_3 C24_3 1_555 1_555
H31_3 C25_3 1_555 1_555
C26_3 C25_3 1_555 1_555
C27_3 C21_3 1_555 1_555
C28_3 C27_3 1_555 1_555
C29_3 C28_3 1_555 1_555
H32_3 C29_3 1_555 1_555
C30_3 C22_3 1_555 1_555
H33_3 C30_3 1_555 1_555
C31_3 C26_3 1_555 1_555
C32_3 C28_3 1_555 1_555
C33_3 C34_3 1_555 1_555
C34_3 C35_3 1_555 1_555
C35_3 H34_3 1_555 1_555
C36_3 C35_3 1_555 1_555
C37_3 C36_3 1_555 1_555
H35_3 C37_3 1_555 1_555
C38_3 C33_3 1_555 1_555
C39_3 C34_3 1_555 1_555
H36_3 C39_3 1_555 1_555
H37_3 C39_3 1_555 1_555
H38_3 C39_3 1_555 1_555
C40_3 C38_3 1_555 1_555
H39_3 C40_3 1_555 1_555
H40_3 C40_3 1_555 1_555
H41_3 C40_3 1_555 1_555
C41_3 C42_3 1_555 1_555
C42_3 C43_3 1_555 1_555
C43_3 H42_3 1_555 1_555
C44_3 C43_3 1_555 1_555
C45_3 C44_3 1_555 1_555
C46_3 C45_3 1_555 1_555
C47_3 C42_3 1_555 1_555
H43_3 C47_3 1_555 1_555
C48_3 C44_3 1_555 1_555
H44_3 C48_3 1_555 1_555
H45_3 C48_3 1_555 1_555
H46_3 C48_3 1_555 1_555
C49_3 C46_3 1_555 1_555
H47_3 C49_3 1_555 1_555
H48_3 C49_3 1_555 1_555
H49_3 C49_3 1_555 1_555
C50_3 C51_3 1_555 1_555
C51_3 C52_3 1_555 1_555
C52_3 C53_3 1_555 1_555
C53_3 C54_3 1_555 1_555
C54_3 N3_3 1_555 1_555
C58_3 C52_3 1_555 1_555
C59_3 C58_3 1_555 1_555
C60_3 C59_3 1_555 1_555
H52_3 C60_3 1_555 1_555
C61_3 C53_3 1_555 1_555
H53_3 C61_3 1_555 1_555
C63_3 C59_3 1_555 1_555
C72_3 C73_3 1_555 1_555
C73_3 C74_3 1_555 1_555
C74_3 H62_3 1_555 1_555
C75_3 C74_3 1_555 1_555
C76_3 C75_3 1_555 1_555
C77_3 C76_3 1_555 1_555
C78_3 C73_3 1_555 1_555
H63_3 C78_3 1_555 1_555
C79_3 C75_3 1_555 1_555
H64_3 C79_3 1_555 1_555
C80_3 C77_3 1_555 1_555
C104_3 C36_3 1_555 1_555
N1_3 C14_3 1_555 1_555
N2_3 C31_3 1_555 1_555
N3_3 C45_3 1_555 1_555
N7_3 C5_3 1_555 1_555
O1_3 Zn1_3 1_555 1_555
O2_3 C10_3 1_555 1_555
O3_3 C10_3 1_555 1_555
O4_3 C19_3 1_555 1_555
O5_3 C23_3 1_555 1_555
O6_3 C31_3 1_555 1_555
O7_3 C32_3 1_555 1_555
O8_3 C41_3 1_555 1_555
O9_3 C41_3 1_555 1_555
O11_3 C54_3 1_555 1_555
O13_3 C63_3 1_555 1_555
O14_3 C72_3 1_555 1_555
O15_3 C72_3 1_555 1_555
O22_2 C104_3 1_555 1_555
O23_2 C104_3 1_555 1_555
O26_3 C5_3 1_555 1_555
O28_3 Zn1_3 1_555 1_555
Zn1_3 O2_3 1_555 1_555
Zn2_2 O1_3 1_555 1_555
Zn3_2 O1_3 1_555 1_555
Zn4_2 O1_3 1_555 1_555
O30_2 Zn4_2 1_555 1_555
O33_2 Zn2_2 1_555 1_555
O34_2 Zn4_2 1_555 1_555
C6_3 N7_3 1_555 1_555
C15_3 C16_3 1_555 1_555
C19_3 N1_3 1_555 1_555
C26_3 C27_3 1_555 1_555
C29_3 C30_3 1_555 1_555
C32_3 N2_3 1_555 1_555
C33_3 N2_3 1_555 1_555
C37_3 C38_3 1_555 1_555
C46_3 C47_3 1_555 1_555
C50_3 N3_3 1_555 1_555
C60_3 C61_3 1_555 1_555
C63_3 N4_3 1_555 1_555
C77_3 C78_3 1_555 1_555
O3_3 Zn4_2 1_555 1_555
O8_3 Zn1_3 1_555 1_555
O9_3 Zn2_2 1_555 1_555
O14_3 Zn3_2 1_555 1_555
O15_3 Zn1_3 1_555 1_555
O26_3 Zn2_2 1_555 1_555
O28_3 H83_3 1_555 1_555
O28_3 H84_3 1_555 1_555
C81_3 C82_3 1_555 1_555
C82_3 C83_3 1_555 1_555
C83_3 C84_3 1_555 1_555
C84_3 C85_3 1_555 1_555
C85_3 N5_3 1_555 1_555
C86_3 C82_3 1_555 1_555
H70_3 C86_3 1_555 1_555
C87_3 C86_3 1_555 1_555
H71_3 C87_3 1_555 1_555
C88_3 C87_3 1_555 1_555
C89_3 C83_3 1_555 1_555
C90_3 C89_3 1_555 1_555
C91_3 C90_3 1_555 1_555
H72_3 C91_3 1_555 1_555
C92_3 C84_3 1_555 1_555
H73_3 C92_3 1_555 1_555
C93_3 C88_3 1_555 1_555
C94_3 C90_3 1_555 1_555
C95_3 C100_3 1_555 1_555
C96_3 H74_3 1_555 1_555
H75_3 C96_3 1_555 1_555
H76_3 C96_3 1_555 1_555
C97_3 H77_3 1_555 1_555
C98_3 H78_3 1_555 1_555
H79_3 C98_3 1_555 1_555
H80_3 C98_3 1_555 1_555
C99_3 H81_3 1_555 1_555
C100_3 C98_3 1_555 1_555
C101_3 C95_3 1_555 1_555
C102_3 C97_3 1_555 1_555
C103_3 C102_3 1_555 1_555
N6_3 C93_3 1_555 1_555
O16_3 C85_3 1_555 1_555
O17_3 C81_3 1_555 1_555
O18_3 C94_3 1_555 1_555
O19_3 C93_3 1_555 1_555
O33_2 C103_3 1_555 1_555
O34_2 C103_3 1_555 1_555
C81_3 N5_3 1_555 1_555
C88_3 C89_3 1_555 1_555
C91_3 C92_3 1_555 1_555
C94_3 N6_3 1_555 1_555
C95_3 N6_3 1_555 1_555
C96_3 C101_3 1_555 1_555
C97_3 C101_3 1_555 1_555
C99_3 C100_3 1_555 1_555
C99_3 C102_3 1_555 1_555
C1_4 H1_4 1_555 1_555
H2_4 C1_4 1_555 1_555
H3_4 C1_4 1_555 1_555
C2_4 H4_4 1_555 1_555
H5_4 C2_4 1_555 1_555
C4_4 C1_4 1_555 1_555
H9_4 C4_4 1_555 1_555
H10_4 C4_4 1_555 1_555
H50_4 C55_4 1_555 1_555
C56_4 C55_4 1_555 1_555
H51_4 C56_4 1_555 1_555
C57_4 C56_4 1_555 1_555
C62_4 C57_4 1_555 1_555
C65_4 C66_4 1_555 1_555
C66_4 H54_4 1_555 1_555
C70_4 C65_4 1_555 1_555
H56_4 C70_4 1_555 1_555
H57_4 C70_4 1_555 1_555
C106_4 H82_4 1_555 1_555
N8_4 C2_4 1_555 1_555
O12_4 C62_4 1_555 1_555
O27_4 C106_4 1_555 1_555
C4_4 N8_4 1_555 1_555
C106_4 N8_4 1_555 1_555
O24_2 C103_4 1_555 1_555
O25_2 C103_4 1_555 1_555
Zn5_2 O24_2 1_555 1_555
Zn9_2 O25_2 1_555 1_555
C5_4 H11_4 1_555 1_555
C10_4 C11_4 1_555 1_555
C11_4 C12_4 1_555 1_555
C12_4 H22_4 1_555 1_555
C13_4 C12_4 1_555 1_555
C14_4 C13_4 1_555 1_555
C15_4 C14_4 1_555 1_555
C16_4 C11_4 1_555 1_555
H23_4 C16_4 1_555 1_555
C18_4 C15_4 1_555 1_555
H27_4 C18_4 1_555 1_555
H28_4 C18_4 1_555 1_555
H29_4 C18_4 1_555 1_555
C41_4 C42_4 1_555 1_555
C42_4 C43_4 1_555 1_555
C43_4 H42_4 1_555 1_555
C44_4 C43_4 1_555 1_555
C45_4 C44_4 1_555 1_555
C46_4 C45_4 1_555 1_555
C47_4 C42_4 1_555 1_555
H43_4 C47_4 1_555 1_555
C48_4 C44_4 1_555 1_555
H44_4 C48_4 1_555 1_555
H45_4 C48_4 1_555 1_555
H46_4 C48_4 1_555 1_555
C49_4 C46_4 1_555 1_555
H47_4 C49_4 1_555 1_555
H48_4 C49_4 1_555 1_555
H49_4 C49_4 1_555 1_555
C50_4 C51_4 1_555 1_555
C51_4 C52_4 1_555 1_555
C52_4 C53_4 1_555 1_555
C53_4 C54_4 1_555 1_555
C54_4 N3_4 1_555 1_555
C58_4 C52_4 1_555 1_555
C59_4 C58_4 1_555 1_555
C60_4 C59_4 1_555 1_555
H52_4 C60_4 1_555 1_555
C61_4 C53_4 1_555 1_555
H53_4 C61_4 1_555 1_555
C63_4 C59_4 1_555 1_555
C68_4 C67_4 1_555 1_555
H55_4 C68_4 1_555 1_555
C69_4 C64_4 1_555 1_555
C71_4 C69_4 1_555 1_555
H59_4 C71_4 1_555 1_555
H60_4 C71_4 1_555 1_555
H61_4 C71_4 1_555 1_555
C72_4 C73_4 1_555 1_555
C73_4 C74_4 1_555 1_555
C74_4 H62_4 1_555 1_555
C75_4 C74_4 1_555 1_555
C76_4 C75_4 1_555 1_555
C77_4 C76_4 1_555 1_555
C78_4 C73_4 1_555 1_555
H63_4 C78_4 1_555 1_555
C79_4 C75_4 1_555 1_555
H64_4 C79_4 1_555 1_555
H65_4 C79_4 1_555 1_555
H66_4 C79_4 1_555 1_555
C80_4 C77_4 1_555 1_555
H69_4 C80_4 1_555 1_555
C81_4 C82_4 1_555 1_555
C82_4 C83_4 1_555 1_555
C83_4 C84_4 1_555 1_555
C84_4 C85_4 1_555 1_555
C85_4 N5_4 1_555 1_555
C86_4 C82_4 1_555 1_555
H70_4 C86_4 1_555 1_555
C87_4 C86_4 1_555 1_555
H71_4 C87_4 1_555 1_555
C88_4 C87_4 1_555 1_555
C89_4 C83_4 1_555 1_555
C90_4 C89_4 1_555 1_555
C91_4 C90_4 1_555 1_555
H72_4 C91_4 1_555 1_555
C92_4 C84_4 1_555 1_555
H73_4 C92_4 1_555 1_555
C93_4 C88_4 1_555 1_555
C94_4 C90_4 1_555 1_555
C95_4 C100_4 1_555 1_555
C96_4 H74_4 1_555 1_555
H75_4 C96_4 1_555 1_555
H76_4 C96_4 1_555 1_555
C97_4 H77_4 1_555 1_555
C98_4 H78_4 1_555 1_555
H79_4 C98_4 1_555 1_555
H80_4 C98_4 1_555 1_555
C99_4 H81_4 1_555 1_555
C100_4 C98_4 1_555 1_555
C101_4 C95_4 1_555 1_555
C102_4 C97_4 1_555 1_555
C105_4 C67_4 1_555 1_555
N3_4 C45_4 1_555 1_555
N5_4 C76_4 1_555 1_555
N6_4 C93_4 1_555 1_555
O1_4 Zn1_4 1_555 1_555
O2_4 C10_4 1_555 1_555
O3_4 C10_4 1_555 1_555
O8_4 C41_4 1_555 1_555
O9_4 C41_4 1_555 1_555
O11_4 C54_4 1_555 1_555
O13_4 C63_4 1_555 1_555
O14_4 C72_4 1_555 1_555
O15_4 C72_4 1_555 1_555
O16_4 C85_4 1_555 1_555
O17_4 C81_4 1_555 1_555
O18_4 C94_4 1_555 1_555
O19_4 C93_4 1_555 1_555
O30_2 C105_4 1_555 1_555
O26_4 C5_4 1_555 1_555
O28_4 Zn1_4 1_555 1_555
Zn1_4 O2_4 1_555 1_555
Zn5_2 O1_4 1_555 1_555
Zn7 O1_4 1_555 1_555
Zn9_2 O1_4 1_555 1_555
C15_4 C16_4 1_555 1_555
C46_4 C47_4 1_555 1_555
C50_4 N3_4 1_555 1_555
C60_4 C61_4 1_555 1_555
C63_4 N4_4 1_555 1_555
C64_4 N4_4 1_555 1_555
C68_4 C69_4 1_555 1_555
C77_4 C78_4 1_555 1_555
C81_4 N5_4 1_555 1_555
C88_4 C89_4 1_555 1_555
C91_4 C92_4 1_555 1_555
C94_4 N6_4 1_555 1_555
C95_4 N6_4 1_555 1_555
C96_4 C101_4 1_555 1_555
C97_4 C101_4 1_555 1_555
C99_4 C100_4 1_555 1_555
C99_4 C102_4 1_555 1_555
O3_4 Zn9_2 1_555 1_555
O8_4 Zn1_4 1_555 1_555
O9_4 Zn5_2 1_555 1_555
O14_4 Zn7 1_555 1_555
O15_4 Zn1_4 1_555 1_555
O26_4 Zn5_2 1_555 1_555
O28_4 H83_4 1_555 1_555
O28_4 H84_4 1_555 1_555
H25_4 C17_4 1_555 1_555
H26_4 C17_4 1_555 1_555
C19_4 C20_4 1_555 1_555
C20_4 C21_4 1_555 1_555
C21_4 C22_4 1_555 1_555
C22_4 C23_4 1_555 1_555
C23_4 N1_4 1_555 1_555
C24_4 C20_4 1_555 1_555
H30_4 C24_4 1_555 1_555
C25_4 C24_4 1_555 1_555
H31_4 C25_4 1_555 1_555
C26_4 C25_4 1_555 1_555
C27_4 C21_4 1_555 1_555
C28_4 C27_4 1_555 1_555
C29_4 C28_4 1_555 1_555
H32_4 C29_4 1_555 1_555
C30_4 C22_4 1_555 1_555
H33_4 C30_4 1_555 1_555
C31_4 C26_4 1_555 1_555
C32_4 C28_4 1_555 1_555
C33_4 C34_4 1_555 1_555
C34_4 C35_4 1_555 1_555
C35_4 H34_4 1_555 1_555
C36_4 C35_4 1_555 1_555
C37_4 C36_4 1_555 1_555
H35_4 C37_4 1_555 1_555
C38_4 C33_4 1_555 1_555
C39_4 C34_4 1_555 1_555
H36_4 C39_4 1_555 1_555
H37_4 C39_4 1_555 1_555
H38_4 C39_4 1_555 1_555
C40_4 C38_4 1_555 1_555
H39_4 C40_4 1_555 1_555
H40_4 C40_4 1_555 1_555
H41_4 C40_4 1_555 1_555
C104_4 C36_4 1_555 1_555
N2_4 C31_4 1_555 1_555
O5_4 C23_4 1_555 1_555
O6_4 C31_4 1_555 1_555
O7_4 C32_4 1_555 1_555
O31_2 C104_4 1_555 1_555
O32_2 C104_4 1_555 1_555
C19_4 N1_4 1_555 1_555
C26_4 C27_4 1_555 1_555
C29_4 C30_4 1_555 1_555
C32_4 N2_4 1_555 1_555
C33_4 N2_4 1_555 1_555
C37_4 C38_4 1_555 1_555
H6_4 C3_4 1_555 1_555
H7_4 C3_4 1_555 1_555
H8_4 C3_4 1_555 1_555
C8_4 H17_4 1_555 1_555
H18_4 C8_4 1_555 1_555
C9_4 C8_4 1_555 1_555
H19_4 C9_4 1_555 1_555
H20_4 C9_4 1_555 1_555
H21_4 C9_4 1_555 1_555
C6_4 H12_4 1_555 1_555
H13_4 C6_4 1_555 1_555
C7_4 C6_4 1_555 1_555
H14_4 C7_4 1_555 1_555
H16_4 C7_4 1_555 1_555
C6_4 N7_4 1_555 1_555

#END
