
###############################################################################
#
# This file contains modified crystal structure data generated from the
# MOF subset of the Cambridge Structural Database (CSD) v543 
# hosted by the Cambridge Crystallographic Data Centre (CCDC).
#
# This work is licensed under the Creative Commons
# Attribution-NonCommercial-ShareAlike 4.0 International License.
# To view a copy of this license, visit
# http://creativecommons.org/licenses/by-nc-sa/4.0/
# or send a letter to
# Creative Commons, PO Box 1866, Mountain View, CA 94042, USA.
#
# CIF created using the CSD Python API on 29 September 2022
# The structure has been converted into the P1 space group
# The structure has a 3D framework
# The original CSD entry XOXTOW is in the cubic crystal system
# The framework has been calculated to contain at least 10.0% void space
# The void calculation uses a probe of radius 1.32A, grid spacing 0.4
#
###############################################################################

data_XOXTOW
_chemical_formula_moiety         '(C192 H120 Fe24 N24 O126)n'
_symmetry_cell_setting           triclinic
_symmetry_space_group_name_H-M   'P 1'
_symmetry_Int_Tables_number      1
_space_group_name_Hall           'P 1'
loop_
_symmetry_equiv_pos_site_id
_symmetry_equiv_pos_as_xyz
1 x,y,z
_cell_length_a                   21.9389(7)
_cell_length_b                   21.9389(7)
_cell_length_c                   21.9389(7)
_cell_angle_alpha                90
_cell_angle_beta                 90
_cell_angle_gamma                90
_cell_volume                     10559.5
loop_
_atom_site_label
_atom_site_type_symbol
_atom_site_fract_x
_atom_site_fract_y
_atom_site_fract_z
O2 O 0.10775(8) 0.25549(10) 0.24900(9)
O3 O 0.14940(8) 0.29618(11) 0.16591(9)
C2 C 0.10522(11) 0.27917(12) 0.19751(13)
C3 C 0.04322(12) 0.28752(15) 0.16891(13)
C4 C 0.04051(13) 0.2963(2) 0.10686(14)
H1 H 0.076878 0.297894 0.083413
Fe2 Fe 0.18010(2) 0.23995(2) 0.30368(2)
O11 O 0.11504(10) 0.23803(12) 0.37052(11)
H9 H 0.075735 0.258949 0.371327
H10 H 0.115340 0.216360 0.409502
O13 O 0.25100(9) 0.24451(10) 0.60775(8)
O14 O 0.33409(9) 0.20382(11) 0.64940(8)
O15 O 0.23765(9) 0.22634(10) 0.37494(9)
O16 O 0.31917(10) 0.18699(11) 0.32956(8)
C17 C 0.29093(13) 0.20695(13) 0.37515(11)
C18 C 0.30249(13) 0.22083(12) 0.60522(11)
C19 C 0.33109(13) 0.21248(15) 0.54322(12)
C20 C 0.39314(14) 0.2037(2) 0.54051(13)
H13 H 0.416587 0.202106 0.576878
C21 C 0.38728(15) 0.1966(2) 0.43141(13)
H14 H 0.406629 0.189919 0.393258
C22 C 0.29706(13) 0.21537(14) 0.49015(12)
H15 H 0.254626 0.223795 0.492064
C23 C 0.32508(13) 0.20590(15) 0.43393(12)
C24 C 0.42121(15) 0.1971(2) 0.48406(14)
N3 N 0.48604(13) 0.1929(2) 0.47671(12)
O17 O 0.74900(9) 0.24451(10) 0.39225(8)
O18 O 0.66591(9) 0.20382(11) 0.35060(8)
O19 O 0.76235(9) 0.22634(10) 0.62506(9)
O20 O 0.68083(10) 0.18699(11) 0.67044(8)
C25 C 0.70907(13) 0.20695(13) 0.62485(11)
C26 C 0.69751(13) 0.22083(12) 0.39478(11)
C27 C 0.66891(13) 0.21248(15) 0.45678(12)
C28 C 0.60686(14) 0.2037(2) 0.45949(13)
H16 H 0.583413 0.202106 0.423122
C29 C 0.61272(15) 0.1966(2) 0.56859(13)
H17 H 0.593371 0.189919 0.606742
C30 C 0.70294(13) 0.21537(14) 0.50985(12)
H18 H 0.745374 0.223795 0.507936
C31 C 0.67492(13) 0.20590(15) 0.56607(12)
C32 C 0.57879(15) 0.1971(2) 0.51594(14)
N4 N 0.51396(13) 0.1929(2) 0.52329(12)
O32 O 0.24063(8) 0.24063(8) 0.24063(8)
Fe10 Fe 0.30368(2) 0.18010(2) 0.23995(2)
Fe12 Fe 0.69632(2) 0.18010(2) 0.76005(2)
Fe13 Fe 0.31990(2) 0.19632(2) 0.73995(2)
Fe15 Fe 0.19632(2) 0.26005(2) 0.68010(2)
Fe16 Fe 0.68010(2) 0.19632(2) 0.26005(2)
Fe17 Fe 0.80368(2) 0.26005(2) 0.31990(2)
Fe21 Fe 0.81990(2) 0.23995(2) 0.69632(2)
Fe22 Fe 0.23995(2) 0.30368(2) 0.18010(2)
O40 O 0.16591(9) 0.14940(8) 0.29618(11)
O47 O 0.18699(11) 0.32956(8) 0.31917(10)
O9 O 0.12506(9) 0.27366(10) 0.73765(9)
O10 O 0.17044(8) 0.31301(11) 0.81917(10)
C9 C 0.12485(11) 0.29305(13) 0.79093(13)
C13 C 0.06859(13) 0.3034(2) 0.88728(15)
H7 H 0.106742 0.310081 0.906629
C14 C 0.00985(12) 0.28463(14) 0.79706(13)
H8 H 0.007936 0.276205 0.754626
C15 C 0.06607(12) 0.29410(15) 0.82508(13)
C16 C 0.01594(14) 0.3029(2) 0.92121(15)
N2 N 0.02329(12) 0.3071(2) 0.98604(13)
Fe11 Fe 0.26005(2) 0.31990(2) 0.80368(2)
Fe1 Fe 0.73995(2) 0.31990(2) 0.19632(2)
O1 O 0.74063(8) 0.25937(8) 0.25937(8)
O4 O 0.87494(9) 0.27366(10) 0.26235(9)
O5 O 0.82956(8) 0.31301(11) 0.18083(10)
C1 C 0.87515(11) 0.29305(13) 0.20907(13)
C5 C 0.93141(13) 0.3034(2) 0.11272(15)
H2 H 0.893258 0.310081 0.093371
C6 C 0.99015(12) 0.28463(14) 0.20294(13)
H3 H 0.992064 0.276205 0.245374
C7 C 0.93393(12) 0.29410(15) 0.17492(13)
C8 C 0.98406(14) 0.3029(2) 0.07879(15)
O6 O 0.73803(12) 0.38496(10) 0.12948(11)
H4 H 0.758949 0.424265 0.128673
H5 H 0.716360 0.384660 0.090498
N1 N 0.97671(12) 0.3071(2) 0.01396(13)
Fe4 Fe 0.81990(2) 0.76005(2) 0.30368(2)
O21 O 0.75549(10) 0.39225(8) 0.25100(9)
O22 O 0.79618(11) 0.35060(8) 0.33409(9)
O23 O 0.77366(10) 0.62506(9) 0.23765(9)
O24 O 0.81301(11) 0.67044(8) 0.31917(10)
C33 C 0.79305(13) 0.62485(11) 0.29093(13)
C34 C 0.77917(12) 0.39478(11) 0.30249(13)
C35 C 0.78752(15) 0.45678(12) 0.33109(13)
C36 C 0.7963(2) 0.45949(13) 0.39314(14)
H19 H 0.797894 0.423122 0.416587
C37 C 0.8034(2) 0.56859(13) 0.38728(15)
H20 H 0.810081 0.606742 0.406629
C38 C 0.78463(14) 0.50985(12) 0.29706(13)
H21 H 0.776205 0.507936 0.254626
C39 C 0.79410(15) 0.56607(12) 0.32508(13)
C40 C 0.8029(2) 0.51594(14) 0.42121(15)
O25 O 0.88496(10) 0.76197(12) 0.37052(11)
H22 H 0.924265 0.741051 0.371327
H23 H 0.884660 0.783640 0.409502
N5 N 0.8071(2) 0.52329(12) 0.48604(13)
O26 O 0.75549(10) 0.60775(8) 0.74900(9)
O27 O 0.79618(11) 0.64940(8) 0.66591(9)
O28 O 0.77366(10) 0.37494(9) 0.76235(9)
O29 O 0.81301(11) 0.32956(8) 0.68083(10)
C41 C 0.79305(13) 0.37515(11) 0.70907(13)
C42 C 0.77917(12) 0.60522(11) 0.69751(13)
C43 C 0.78752(15) 0.54322(12) 0.66891(13)
C44 C 0.7963(2) 0.54051(13) 0.60686(14)
H24 H 0.797894 0.576878 0.583413
C45 C 0.8034(2) 0.43141(13) 0.61272(15)
H25 H 0.810081 0.393258 0.593371
C46 C 0.78463(14) 0.49015(12) 0.70294(13)
H26 H 0.776205 0.492064 0.745374
C47 C 0.79410(15) 0.43393(12) 0.67492(13)
C48 C 0.8029(2) 0.48406(14) 0.57879(15)
N6 N 0.8071(2) 0.47671(12) 0.51396(13)
O30 O 0.61504(10) 0.12948(11) 0.26197(12)
H27 H 0.575735 0.128673 0.241051
H28 H 0.615340 0.090498 0.283640
O31 O 0.87052(11) 0.26197(12) 0.38496(10)
H29 H 0.871327 0.241051 0.424265
H30 H 0.909502 0.283640 0.384660
Fe7 Fe 0.76005(2) 0.69632(2) 0.18010(2)
Fe8 Fe 0.73995(2) 0.68010(2) 0.80368(2)
Fe9 Fe 0.76005(2) 0.30368(2) 0.81990(2)
Fe18 Fe 0.80368(2) 0.73995(2) 0.68010(2)
O33 O 0.75937(8) 0.75937(8) 0.24063(8)
O35 O 0.89225(8) 0.74451(10) 0.24900(9)
O38 O 0.60775(8) 0.25100(9) 0.24451(10)
O41 O 0.83409(9) 0.85060(8) 0.29618(11)
O42 O 0.64940(8) 0.33409(9) 0.20382(11)
O43 O 0.72634(10) 0.26235(9) 0.12506(9)
O44 O 0.73765(9) 0.12506(9) 0.27366(10)
O46 O 0.76235(9) 0.77366(10) 0.37494(9)
O49 O 0.68699(11) 0.18083(10) 0.17044(8)
O50 O 0.81917(10) 0.17044(8) 0.31301(11)
O7 O 0.89225(8) 0.25549(10) 0.75100(9)
O8 O 0.85060(8) 0.29618(11) 0.83409(9)
C10 C 0.89478(11) 0.27917(12) 0.80249(13)
C11 C 0.95678(12) 0.28752(15) 0.83109(13)
C12 C 0.95949(13) 0.2963(2) 0.89314(14)
H6 H 0.923122 0.297894 0.916587
O12 O 0.76197(12) 0.37052(11) 0.88496(10)
H11 H 0.741051 0.371327 0.924265
H12 H 0.783640 0.409502 0.884660
O34 O 0.75937(8) 0.24063(8) 0.75937(8)
O37 O 0.74451(10) 0.24900(9) 0.89225(8)
O48 O 0.67044(8) 0.31917(10) 0.81301(11)
Fe4_2 Fe 0.26005(2) 0.68010(2) 0.19632(2)
O23_2 O 0.12506(9) 0.72634(10) 0.26235(9)
O24_2 O 0.17044(8) 0.68699(11) 0.18083(10)
C33_2 C 0.12485(11) 0.70695(13) 0.20907(13)
C37_2 C 0.06859(13) 0.6966(2) 0.11272(15)
H20_2 H 0.106742 0.689919 0.093371
C38_2 C 0.00985(12) 0.71537(14) 0.20294(13)
H21_2 H 0.007936 0.723795 0.245374
C39_2 C 0.06607(12) 0.70590(15) 0.17492(13)
C40_2 C 0.01594(14) 0.6971(2) 0.07879(15)
O25_2 O 0.26197(12) 0.61504(10) 0.12948(11)
H22_2 H 0.241051 0.575735 0.128673
H23_2 H 0.283640 0.615340 0.090498
N5_2 N 0.02329(12) 0.6929(2) 0.01396(13)
Fe7_2 Fe 0.19632(2) 0.73995(2) 0.31990(2)
O33_2 O 0.25937(8) 0.74063(8) 0.25937(8)
O35_2 O 0.24451(10) 0.60775(8) 0.25100(9)
O41_2 O 0.35060(8) 0.66591(9) 0.20382(11)
O46_2 O 0.27366(10) 0.73765(9) 0.12506(9)
O26_2 O 0.10775(8) 0.74451(10) 0.75100(9)
O27_2 O 0.14940(8) 0.70382(11) 0.83409(9)
C42_2 C 0.10522(11) 0.72083(12) 0.80249(13)
C43_2 C 0.04322(12) 0.71248(15) 0.83109(13)
C44_2 C 0.04051(13) 0.7037(2) 0.89314(14)
H24_2 H 0.076878 0.702106 0.916587
Fe8_2 Fe 0.18010(2) 0.76005(2) 0.69632(2)
Fe18_2 Fe 0.23995(2) 0.69632(2) 0.81990(2)
O12_2 O 0.87052(11) 0.73803(12) 0.61504(10)
H11_2 H 0.871327 0.758949 0.575735
H12_2 H 0.909502 0.716360 0.615340
C17_2 C 0.70695(13) 0.20907(13) 0.12485(11)
C21_2 C 0.6966(2) 0.11272(15) 0.06859(13)
H14_2 H 0.689919 0.093371 0.106742
C22_2 C 0.71537(14) 0.20294(13) 0.00985(12)
H15_2 H 0.723795 0.245374 0.007936
C23_2 C 0.70590(15) 0.17492(13) 0.06607(12)
C24_2 C 0.6971(2) 0.07879(15) 0.01594(14)
N3_2 N 0.6929(2) 0.01396(13) 0.02329(12)
O22_2 O 0.85060(8) 0.70382(11) 0.16591(9)
C34_2 C 0.89478(11) 0.72083(12) 0.19751(13)
C35_2 C 0.95678(12) 0.71248(15) 0.16891(13)
C36_2 C 0.95949(13) 0.7037(2) 0.10686(14)
H19_2 H 0.923122 0.702106 0.083413
Fe5 Fe 0.69632(2) 0.81990(2) 0.23995(2)
O30_2 O 0.62948(11) 0.88496(10) 0.23803(12)
H27_2 H 0.628673 0.924265 0.258949
H28_2 H 0.590498 0.884660 0.216360
O31_2 O 0.76197(12) 0.62948(11) 0.11504(10)
H29_2 H 0.741051 0.628673 0.075735
H30_2 H 0.783640 0.590498 0.115340
O34_2 O 0.74063(8) 0.74063(8) 0.74063(8)
O36 O 0.74451(10) 0.75100(9) 0.10775(8)
O37_2 O 0.74900(9) 0.75549(10) 0.60775(8)
O38_2 O 0.75100(9) 0.89225(8) 0.25549(10)
O39 O 0.70382(11) 0.83409(9) 0.14940(8)
O44_2 O 0.62506(9) 0.76235(9) 0.22634(10)
O45 O 0.87494(9) 0.72634(10) 0.73765(9)
O48_2 O 0.81917(10) 0.82956(8) 0.68699(11)
O49_2 O 0.68083(10) 0.81301(11) 0.32956(8)
O50_2 O 0.67044(8) 0.68083(10) 0.18699(11)
O14_2 O 0.70382(11) 0.16591(9) 0.85060(8)
C18_2 C 0.72083(12) 0.19751(13) 0.89478(11)
C19_2 C 0.71248(15) 0.16891(13) 0.95678(12)
C20_2 C 0.7037(2) 0.10686(14) 0.95949(13)
H13_2 H 0.702106 0.083413 0.923122
O29_2 O 0.82956(8) 0.68699(11) 0.81917(10)
C41_2 C 0.87515(11) 0.70695(13) 0.79093(13)
C45_2 C 0.93141(13) 0.6966(2) 0.88728(15)
H25_2 H 0.893258 0.689919 0.906629
C46_2 C 0.99015(12) 0.71537(14) 0.79706(13)
H26_2 H 0.992064 0.723795 0.754626
C47_2 C 0.93393(12) 0.70590(15) 0.82508(13)
C48_2 C 0.98406(14) 0.6971(2) 0.92121(15)
N6_2 N 0.97671(12) 0.6929(2) 0.98604(13)
C26_2 C 0.72083(12) 0.80249(13) 0.10522(11)
C27_2 C 0.71248(15) 0.83109(13) 0.04322(12)
C28_2 C 0.7037(2) 0.89314(14) 0.04051(13)
H16_2 H 0.702106 0.916587 0.076878
O19_2 O 0.72634(10) 0.73765(9) 0.87494(9)
O20_2 O 0.68699(11) 0.81917(10) 0.82956(8)
C25_2 C 0.70695(13) 0.79093(13) 0.87515(11)
C29_2 C 0.6966(2) 0.88728(15) 0.93141(13)
H17_2 H 0.689919 0.906629 0.893258
C30_2 C 0.71537(14) 0.79706(13) 0.99015(12)
H18_2 H 0.723795 0.754626 0.992064
C31_2 C 0.70590(15) 0.82508(13) 0.93393(12)
C32_2 C 0.6971(2) 0.92121(15) 0.98406(14)
N4_2 N 0.6929(2) 0.98604(13) 0.97671(12)
Fe12_2 Fe 0.68010(2) 0.80368(2) 0.73995(2)
O22_3 O 0.20382(11) 0.64940(8) 0.33409(9)
O23_3 O 0.22634(10) 0.37494(9) 0.23765(9)
C33_3 C 0.20695(13) 0.37515(11) 0.29093(13)
C34_3 C 0.22083(12) 0.60522(11) 0.30249(13)
C35_3 C 0.21248(15) 0.54322(12) 0.33109(13)
C36_3 C 0.2037(2) 0.54051(13) 0.39314(14)
H19_3 H 0.202106 0.576878 0.416587
C37_3 C 0.1966(2) 0.43141(13) 0.38728(15)
H20_3 H 0.189919 0.393258 0.406629
C38_3 C 0.21537(14) 0.49015(12) 0.29706(13)
H21_3 H 0.223795 0.492064 0.254626
C39_3 C 0.20590(15) 0.43393(12) 0.32508(13)
C40_3 C 0.1971(2) 0.48406(14) 0.42121(15)
N5_3 N 0.1929(2) 0.47671(12) 0.48604(13)
O26_3 O 0.24451(10) 0.39225(8) 0.74900(9)
O27_3 O 0.20382(11) 0.35060(8) 0.66591(9)
O28_2 O 0.22634(10) 0.62506(9) 0.76235(9)
O29_3 O 0.18699(11) 0.67044(8) 0.68083(10)
C41_3 C 0.20695(13) 0.62485(11) 0.70907(13)
C42_3 C 0.22083(12) 0.39478(11) 0.69751(13)
C43_3 C 0.21248(15) 0.45678(12) 0.66891(13)
C44_3 C 0.2037(2) 0.45949(13) 0.60686(14)
H24_3 H 0.202106 0.423122 0.583413
C45_3 C 0.1966(2) 0.56859(13) 0.61272(15)
H25_3 H 0.189919 0.606742 0.593371
C46_3 C 0.21537(14) 0.50985(12) 0.70294(13)
H26_3 H 0.223795 0.507936 0.745374
C47_3 C 0.20590(15) 0.56607(12) 0.67492(13)
C48_3 C 0.1971(2) 0.51594(14) 0.57879(15)
N6_3 N 0.1929(2) 0.52329(12) 0.51396(13)
Fe5_2 Fe 0.31990(2) 0.80368(2) 0.26005(2)
O30_3 O 0.38496(10) 0.87052(11) 0.26197(12)
H27_3 H 0.424265 0.871327 0.241051
H28_3 H 0.384660 0.909502 0.283640
O31_3 O 0.12948(11) 0.73803(12) 0.38496(10)
H29_3 H 0.128673 0.758949 0.424265
H30_3 H 0.090498 0.716360 0.384660
O36_2 O 0.25100(9) 0.75549(10) 0.39225(8)
O38_3 O 0.39225(8) 0.74900(9) 0.24451(10)
O39_2 O 0.33409(9) 0.79618(11) 0.35060(8)
O44_3 O 0.26235(9) 0.87494(9) 0.27366(10)
O49_3 O 0.31301(11) 0.81917(10) 0.17044(8)
O50_3 O 0.18083(10) 0.82956(8) 0.31301(11)
O12_3 O 0.23803(12) 0.62948(11) 0.88496(10)
H11_3 H 0.258949 0.628673 0.924265
H12_3 H 0.216360 0.590498 0.884660
O34_3 O 0.24063(8) 0.75937(8) 0.75937(8)
O37_3 O 0.25549(10) 0.75100(9) 0.89225(8)
O48_3 O 0.32956(8) 0.68083(10) 0.81301(11)
O14_3 O 0.66591(9) 0.79618(11) 0.64940(8)
C17_3 C 0.70907(13) 0.79305(13) 0.37515(11)
C18_3 C 0.69751(13) 0.77917(12) 0.60522(11)
C19_3 C 0.66891(13) 0.78752(15) 0.54322(12)
C20_3 C 0.60686(14) 0.7963(2) 0.54051(13)
H13_3 H 0.583413 0.797894 0.576878
C21_3 C 0.61272(15) 0.8034(2) 0.43141(13)
H14_3 H 0.593371 0.810081 0.393258
C22_3 C 0.70294(13) 0.78463(14) 0.49015(12)
H15_3 H 0.745374 0.776205 0.492064
C23_3 C 0.67492(13) 0.79410(15) 0.43393(12)
C24_3 C 0.57879(15) 0.8029(2) 0.48406(14)
N3_3 N 0.51396(13) 0.8071(2) 0.47671(12)
O19_3 O 0.23765(9) 0.77366(10) 0.62506(9)
O20_3 O 0.31917(10) 0.81301(11) 0.67044(8)
C25_3 C 0.29093(13) 0.79305(13) 0.62485(11)
C26_3 C 0.30249(13) 0.77917(12) 0.39478(11)
C27_3 C 0.33109(13) 0.78752(15) 0.45678(12)
C28_3 C 0.39314(14) 0.7963(2) 0.45949(13)
H16_3 H 0.416587 0.797894 0.423122
C29_3 C 0.38728(15) 0.8034(2) 0.56859(13)
H17_3 H 0.406629 0.810081 0.606742
C30_3 C 0.29706(13) 0.78463(14) 0.50985(12)
H18_3 H 0.254626 0.776205 0.507936
C31_3 C 0.32508(13) 0.79410(15) 0.56607(12)
C32_3 C 0.42121(15) 0.8029(2) 0.51594(14)
N4_3 N 0.48604(13) 0.8071(2) 0.52329(12)
Fe12_3 Fe 0.30368(2) 0.81990(2) 0.76005(2)
O17_2 O 0.25549(10) 0.24900(9) 0.10775(8)
O18_2 O 0.29618(11) 0.16591(9) 0.14940(8)
C26_4 C 0.27917(12) 0.19751(13) 0.10522(11)
C27_4 C 0.28752(15) 0.16891(13) 0.04322(12)
C28_4 C 0.2963(2) 0.10686(14) 0.04051(13)
H16_4 H 0.297894 0.083413 0.076878
O19_4 O 0.27366(10) 0.26235(9) 0.87494(9)
O20_4 O 0.31301(11) 0.18083(10) 0.82956(8)
C25_4 C 0.29305(13) 0.20907(13) 0.87515(11)
C29_4 C 0.3034(2) 0.11272(15) 0.93141(13)
H17_4 H 0.310081 0.093371 0.893258
C30_4 C 0.28463(14) 0.20294(13) 0.99015(12)
H18_4 H 0.276205 0.245374 0.992064
C31_4 C 0.29410(15) 0.17492(13) 0.93393(12)
C32_4 C 0.3029(2) 0.07879(15) 0.98406(14)
N4_4 N 0.3071(2) 0.01396(13) 0.97671(12)
O12_4 O 0.12948(11) 0.26197(12) 0.61504(10)
H11_4 H 0.128673 0.241051 0.575735
H12_4 H 0.090498 0.283640 0.615340
C17_4 C 0.29305(13) 0.79093(13) 0.12485(11)
C21_4 C 0.3034(2) 0.88728(15) 0.06859(13)
H14_4 H 0.310081 0.906629 0.106742
C22_4 C 0.28463(14) 0.79706(13) 0.00985(12)
H15_4 H 0.276205 0.754626 0.007936
C23_4 C 0.29410(15) 0.82508(13) 0.06607(12)
C24_4 C 0.3029(2) 0.92121(15) 0.01594(14)
N3_4 N 0.3071(2) 0.98604(13) 0.02329(12)
O30_4 O 0.37052(11) 0.11504(10) 0.23803(12)
H27_4 H 0.371327 0.075735 0.258949
H28_4 H 0.409502 0.115340 0.216360
O31_4 O 0.23803(12) 0.37052(11) 0.11504(10)
H29_4 H 0.258949 0.371327 0.075735
H30_4 H 0.216360 0.409502 0.115340
O34_4 O 0.25937(8) 0.25937(8) 0.74063(8)
O38_4 O 0.24900(9) 0.10775(8) 0.25549(10)
O44_4 O 0.37494(9) 0.23765(9) 0.22634(10)
O48_4 O 0.18083(10) 0.17044(8) 0.68699(11)
O50_4 O 0.32956(8) 0.31917(10) 0.18699(11)
O14_4 O 0.29618(11) 0.83409(9) 0.85060(8)
C18_4 C 0.27917(12) 0.80249(13) 0.89478(11)
C19_4 C 0.28752(15) 0.83109(13) 0.95678(12)
C20_4 C 0.2963(2) 0.89314(14) 0.95949(13)
H13_4 H 0.297894 0.916587 0.923122
C18_5 C 0.19751(13) 0.10522(11) 0.27917(12)
C19_5 C 0.16891(13) 0.04322(12) 0.28752(15)
C20_5 C 0.10686(14) 0.04051(13) 0.2963(2)
H13_5 H 0.083413 0.076878 0.297894
C1_2 C 0.62485(11) 0.70907(13) 0.20695(13)
C2_2 C 0.39478(11) 0.69751(13) 0.22083(12)
C3_2 C 0.45678(12) 0.66891(13) 0.21248(15)
C4_2 C 0.45949(13) 0.60686(14) 0.2037(2)
H1_2 H 0.423122 0.583413 0.202106
C5_2 C 0.56859(13) 0.61272(15) 0.1966(2)
H2_2 H 0.606742 0.593371 0.189919
C6_2 C 0.50985(12) 0.70294(13) 0.21537(14)
H3_2 H 0.507936 0.745374 0.223795
C7_2 C 0.56607(12) 0.67492(13) 0.20590(15)
C8_2 C 0.51594(14) 0.57879(15) 0.1971(2)
N1_2 N 0.52329(12) 0.51396(13) 0.1929(2)
C9_2 C 0.37515(11) 0.29093(13) 0.20695(13)
C10_2 C 0.60522(11) 0.30249(13) 0.22083(12)
C11_2 C 0.54322(12) 0.33109(13) 0.21248(15)
C12_2 C 0.54051(13) 0.39314(14) 0.2037(2)
H6_2 H 0.576878 0.416587 0.202106
C13_2 C 0.43141(13) 0.38728(15) 0.1966(2)
H7_2 H 0.393258 0.406629 0.189919
C14_2 C 0.49015(12) 0.29706(13) 0.21537(14)
H8_2 H 0.492064 0.254626 0.223795
C15_2 C 0.43393(12) 0.32508(13) 0.20590(15)
C16_2 C 0.48406(14) 0.42121(15) 0.1971(2)
N2_2 N 0.47671(12) 0.48604(13) 0.1929(2)
C17_5 C 0.20907(13) 0.87515(11) 0.29305(13)
C21_5 C 0.11272(15) 0.93141(13) 0.3034(2)
H14_5 H 0.093371 0.893258 0.310081
C22_5 C 0.20294(13) 0.99015(12) 0.28463(14)
H15_5 H 0.245374 0.992064 0.276205
C23_5 C 0.17492(13) 0.93393(12) 0.29410(15)
C24_5 C 0.07879(15) 0.98406(14) 0.3029(2)
N3_5 N 0.01396(13) 0.97671(12) 0.3071(2)
O25_3 O 0.61504(10) 0.87052(11) 0.73803(12)
H22_3 H 0.575735 0.871327 0.758949
H23_3 H 0.615340 0.909502 0.716360
O35_3 O 0.60775(8) 0.74900(9) 0.75549(10)
O46_3 O 0.73765(9) 0.87494(9) 0.72634(10)
C25_5 C 0.79093(13) 0.12485(11) 0.29305(13)
C29_5 C 0.88728(15) 0.06859(13) 0.3034(2)
H17_5 H 0.906629 0.106742 0.310081
C30_5 C 0.79706(13) 0.00985(12) 0.28463(14)
H18_5 H 0.754626 0.007936 0.276205
C31_5 C 0.82508(13) 0.06607(12) 0.29410(15)
C32_5 C 0.92121(15) 0.01594(14) 0.3029(2)
N4_5 N 0.98604(13) 0.02329(12) 0.3071(2)
C26_5 C 0.80249(13) 0.89478(11) 0.27917(12)
C27_5 C 0.83109(13) 0.95678(12) 0.28752(15)
C28_5 C 0.89314(14) 0.95949(13) 0.2963(2)
H16_5 H 0.916587 0.923122 0.297894
O11_2 O 0.11504(10) 0.76197(12) 0.62948(11)
H9_2 H 0.075735 0.741051 0.628673
H10_2 H 0.115340 0.783640 0.590498
O40_2 O 0.16591(9) 0.85060(8) 0.70382(11)
O6_2 O 0.73803(12) 0.61504(10) 0.87052(11)
H4_2 H 0.758949 0.575735 0.871327
H5_2 H 0.716360 0.615340 0.909502
O25_4 O 0.88496(10) 0.23803(12) 0.62948(11)
H22_4 H 0.924265 0.258949 0.628673
H23_4 H 0.884660 0.216360 0.590498
O41_3 O 0.83409(9) 0.14940(8) 0.70382(11)
O42_2 O 0.64940(8) 0.66591(9) 0.79618(11)
O2_2 O 0.39225(8) 0.25100(9) 0.75549(10)
O3_2 O 0.35060(8) 0.33409(9) 0.79618(11)
O4_2 O 0.62506(9) 0.23765(9) 0.77366(10)
C1_3 C 0.62485(11) 0.29093(13) 0.79305(13)
C2_3 C 0.39478(11) 0.30249(13) 0.77917(12)
C3_3 C 0.45678(12) 0.33109(13) 0.78752(15)
C4_3 C 0.45949(13) 0.39314(14) 0.7963(2)
H1_3 H 0.423122 0.416587 0.797894
C5_3 C 0.56859(13) 0.38728(15) 0.8034(2)
H2_3 H 0.606742 0.406629 0.810081
C6_3 C 0.50985(12) 0.29706(13) 0.78463(14)
H3_3 H 0.507936 0.254626 0.776205
C7_3 C 0.56607(12) 0.32508(13) 0.79410(15)
C8_3 C 0.51594(14) 0.42121(15) 0.8029(2)
N1_3 N 0.52329(12) 0.48604(13) 0.8071(2)
O9_2 O 0.37494(9) 0.76235(9) 0.77366(10)
C9_3 C 0.37515(11) 0.70907(13) 0.79305(13)
C10_3 C 0.60522(11) 0.69751(13) 0.77917(12)
C11_3 C 0.54322(12) 0.66891(13) 0.78752(15)
C12_3 C 0.54051(13) 0.60686(14) 0.7963(2)
H6_3 H 0.576878 0.583413 0.797894
C13_3 C 0.43141(13) 0.61272(15) 0.8034(2)
H7_3 H 0.393258 0.593371 0.810081
C14_3 C 0.49015(12) 0.70294(13) 0.78463(14)
H8_3 H 0.492064 0.745374 0.776205
C15_3 C 0.43393(12) 0.67492(13) 0.79410(15)
C16_3 C 0.48406(14) 0.57879(15) 0.8029(2)
N2_3 N 0.47671(12) 0.51396(13) 0.8071(2)
O11_3 O 0.38496(10) 0.12948(11) 0.73803(12)
H9_3 H 0.424265 0.128673 0.758949
H10_3 H 0.384660 0.090498 0.716360
O15_2 O 0.26235(9) 0.12506(9) 0.72634(10)
C17_6 C 0.20907(13) 0.12485(11) 0.70695(13)
C21_6 C 0.11272(15) 0.06859(13) 0.6966(2)
H14_6 H 0.093371 0.106742 0.689919
C22_6 C 0.20294(13) 0.00985(12) 0.71537(14)
H15_6 H 0.245374 0.007936 0.723795
C23_6 C 0.17492(13) 0.06607(12) 0.70590(15)
C24_6 C 0.07879(15) 0.01594(14) 0.6971(2)
N3_6 N 0.01396(13) 0.02329(12) 0.6929(2)
O31_5 O 0.62948(11) 0.11504(10) 0.76197(12)
H29_5 H 0.628673 0.075735 0.741051
H30_5 H 0.590498 0.115340 0.783640
O36_3 O 0.75100(9) 0.10775(8) 0.74451(10)
O13_2 O 0.24900(9) 0.89225(8) 0.74451(10)
C18_6 C 0.19751(13) 0.89478(11) 0.72083(12)
C19_6 C 0.16891(13) 0.95678(12) 0.71248(15)
C20_6 C 0.10686(14) 0.95949(13) 0.7037(2)
H13_6 H 0.083413 0.923122 0.702106
C26_6 C 0.80249(13) 0.10522(11) 0.72083(12)
C27_6 C 0.83109(13) 0.04322(12) 0.71248(15)
C28_6 C 0.89314(14) 0.04051(13) 0.7037(2)
H16_6 H 0.916587 0.076878 0.702106
C25_6 C 0.79093(13) 0.87515(11) 0.70695(13)
C29_6 C 0.88728(15) 0.93141(13) 0.6966(2)
H17_6 H 0.906629 0.893258 0.689919
C30_6 C 0.79706(13) 0.99015(12) 0.71537(14)
H18_6 H 0.754626 0.992064 0.723795
C31_6 C 0.82508(13) 0.93393(12) 0.70590(15)
C32_6 C 0.92121(15) 0.98406(14) 0.6971(2)
N4_6 N 0.98604(13) 0.97671(12) 0.6929(2)
O6_3 O 0.26197(12) 0.38496(10) 0.87052(11)
H4_3 H 0.241051 0.424265 0.871327
H5_3 H 0.283640 0.384660 0.909502
O25_5 O 0.37052(11) 0.88496(10) 0.76197(12)
H22_5 H 0.371327 0.924265 0.741051
H23_5 H 0.409502 0.884660 0.783640
loop_
_geom_bond_atom_site_label_1
_geom_bond_atom_site_label_2
_geom_bond_site_symmetry_1
_geom_bond_site_symmetry_2
O2 C2 1_555 1_555
O3 C2 1_555 1_555
C2 C3 1_555 1_555
C3 C4 1_555 1_555
C4 H1 1_555 1_555
Fe2 O2 1_555 1_555
O11 Fe2 1_555 1_555
H9 O11 1_555 1_555
H10 O11 1_555 1_555
O13 C18 1_555 1_555
O14 C18 1_555 1_555
O15 Fe2 1_555 1_555
O16 C17 1_555 1_555
C17 O15 1_555 1_555
C18 C19 1_555 1_555
C19 C20 1_555 1_555
C20 H13 1_555 1_555
C21 H14 1_555 1_555
C22 C19 1_555 1_555
H15 C22 1_555 1_555
C23 C17 1_555 1_555
C24 C20 1_555 1_555
N3 C24 1_555 1_555
O17 C26 1_555 1_555
O18 C26 1_555 1_555
O19 C25 1_555 1_555
O20 C25 1_555 1_555
C25 C31 1_555 1_555
C26 C27 1_555 1_555
C27 C28 1_555 1_555
C28 H16 1_555 1_555
C29 H17 1_555 1_555
C30 C27 1_555 1_555
H18 C30 1_555 1_555
C31 C29 1_555 1_555
C32 C28 1_555 1_555
N4 N3 1_555 1_555
O32 Fe2 1_555 1_555
Fe10 O16 1_555 1_555
Fe12 O20 1_555 1_555
Fe13 O14 1_555 1_555
Fe15 O13 1_555 1_555
Fe16 O18 1_555 1_555
Fe17 O17 1_555 1_555
Fe21 O19 1_555 1_555
Fe22 O3 1_555 1_555
O40 Fe2 1_555 1_555
O47 Fe2 1_555 1_555
C21 C23 1_555 1_555
C21 C24 1_555 1_555
C22 C23 1_555 1_555
C29 C32 1_555 1_555
C30 C31 1_555 1_555
C32 N4 1_555 1_555
O32 Fe10 1_555 1_555
O32 Fe22 1_555 1_555
O9 C9 1_555 1_555
O10 C9 1_555 1_555
C9 C15 1_555 1_555
C13 H7 1_555 1_555
H8 C14 1_555 1_555
C15 C13 1_555 1_555
Fe11 O10 1_555 1_555
Fe15 O9 1_555 1_555
C13 C16 1_555 1_555
C14 C15 1_555 1_555
C16 N2 1_555 1_555
Fe1 O1 1_555 1_555
O1 Fe16 1_555 1_555
O4 C1 1_555 1_555
O5 Fe1 1_555 1_555
C1 O5 1_555 1_555
C5 H2 1_555 1_555
H3 C6 1_555 1_555
C7 C1 1_555 1_555
O6 Fe1 1_555 1_555
H4 O6 1_555 1_555
H5 O6 1_555 1_555
N1 C8 1_555 1_555
Fe4 O24 1_555 1_555
O21 Fe1 1_555 1_555
O22 C34 1_555 1_555
O23 C33 1_555 1_555
O24 C33 1_555 1_555
C33 C39 1_555 1_555
C34 O21 1_555 1_555
C35 C34 1_555 1_555
C36 C35 1_555 1_555
H19 C36 1_555 1_555
C37 H20 1_555 1_555
C38 C35 1_555 1_555
H21 C38 1_555 1_555
C39 C37 1_555 1_555
C40 C36 1_555 1_555
O25 Fe4 1_555 1_555
H22 O25 1_555 1_555
H23 O25 1_555 1_555
N5 C40 1_555 1_555
O26 C42 1_555 1_555
O27 C42 1_555 1_555
O28 C41 1_555 1_555
O29 C41 1_555 1_555
C41 C47 1_555 1_555
C42 C43 1_555 1_555
C43 C44 1_555 1_555
C44 H24 1_555 1_555
C45 H25 1_555 1_555
C46 C43 1_555 1_555
H26 C46 1_555 1_555
C47 C45 1_555 1_555
C48 C44 1_555 1_555
N6 N5 1_555 1_555
Fe16 O30 1_555 1_555
O30 H27 1_555 1_555
H28 O30 1_555 1_555
Fe17 O1 1_555 1_555
O31 Fe17 1_555 1_555
H29 O31 1_555 1_555
H30 O31 1_555 1_555
Fe7 O23 1_555 1_555
Fe8 O26 1_555 1_555
Fe9 O28 1_555 1_555
Fe18 O27 1_555 1_555
Fe21 O29 1_555 1_555
O33 Fe4 1_555 1_555
O35 Fe4 1_555 1_555
O38 Fe16 1_555 1_555
O41 Fe4 1_555 1_555
O42 Fe1 1_555 1_555
O43 Fe1 1_555 1_555
O44 Fe16 1_555 1_555
O46 Fe4 1_555 1_555
O49 Fe16 1_555 1_555
O50 Fe17 1_555 1_555
O4 Fe17 1_555 1_555
C5 C7 1_555 1_555
C5 C8 1_555 1_555
C6 C7 1_555 1_555
O22 Fe17 1_555 1_555
C37 C40 1_555 1_555
C38 C39 1_555 1_555
C45 C48 1_555 1_555
C46 C47 1_555 1_555
C48 N6 1_555 1_555
Fe7 O33 1_555 1_555
O7 C10 1_555 1_555
O8 C10 1_555 1_555
C10 C11 1_555 1_555
C11 C12 1_555 1_555
C12 H6 1_555 1_555
Fe9 O8 1_555 1_555
O12 Fe9 1_555 1_555
H11 O12 1_555 1_555
H12 O12 1_555 1_555
Fe21 O7 1_555 1_555
O34 Fe9 1_555 1_555
O37 Fe9 1_555 1_555
O48 Fe9 1_555 1_555
Fe21 O34 1_555 1_555
Fe4_2 O24_2 1_555 1_555
O23_2 C33_2 1_555 1_555
O24_2 C33_2 1_555 1_555
C33_2 C39_2 1_555 1_555
C37_2 H20_2 1_555 1_555
H21_2 C38_2 1_555 1_555
C39_2 C37_2 1_555 1_555
O25_2 Fe4_2 1_555 1_555
H22_2 O25_2 1_555 1_555
H23_2 O25_2 1_555 1_555
N5_2 C40_2 1_555 1_555
Fe7_2 O23_2 1_555 1_555
O33_2 Fe4_2 1_555 1_555
O35_2 Fe4_2 1_555 1_555
O41_2 Fe4_2 1_555 1_555
O46_2 Fe4_2 1_555 1_555
C37_2 C40_2 1_555 1_555
C38_2 C39_2 1_555 1_555
Fe7_2 O33_2 1_555 1_555
O26_2 C42_2 1_555 1_555
O27_2 C42_2 1_555 1_555
C42_2 C43_2 1_555 1_555
C43_2 C44_2 1_555 1_555
C44_2 H24_2 1_555 1_555
Fe8_2 O26_2 1_555 1_555
Fe18_2 O27_2 1_555 1_555
O33 Fe5 1_555 1_555
O12_2 Fe18 1_555 1_555
H11_2 O12_2 1_555 1_555
H12_2 O12_2 1_555 1_555
O49 C17_2 1_555 1_555
C17_2 O43 1_555 1_555
C21_2 H14_2 1_555 1_555
H15_2 C22_2 1_555 1_555
C23_2 C17_2 1_555 1_555
N3_2 C24_2 1_555 1_555
O22_2 C34_2 1_555 1_555
C34_2 O35 1_555 1_555
C35_2 C34_2 1_555 1_555
C36_2 C35_2 1_555 1_555
H19_2 C36_2 1_555 1_555
Fe5 O30_2 1_555 1_555
O30_2 H27_2 1_555 1_555
H28_2 O30_2 1_555 1_555
O31_2 Fe7 1_555 1_555
H29_2 O31_2 1_555 1_555
H30_2 O31_2 1_555 1_555
O34_2 Fe18 1_555 1_555
O36 Fe7 1_555 1_555
O37_2 Fe18 1_555 1_555
O38_2 Fe5 1_555 1_555
O39 Fe5 1_555 1_555
O44_2 Fe5 1_555 1_555
O45 Fe18 1_555 1_555
O48_2 Fe18 1_555 1_555
O49_2 Fe5 1_555 1_555
O50_2 Fe7 1_555 1_555
C21_2 C23_2 1_555 1_555
C21_2 C24_2 1_555 1_555
C22_2 C23_2 1_555 1_555
O22_2 Fe7 1_555 1_555
Fe8 O34_2 1_555 1_555
O37 C18_2 1_555 1_555
O14_2 C18_2 1_555 1_555
C18_2 C19_2 1_555 1_555
C19_2 C20_2 1_555 1_555
C20_2 H13_2 1_555 1_555
O45 C41_2 1_555 1_555
O29_2 C41_2 1_555 1_555
C41_2 C47_2 1_555 1_555
C45_2 H25_2 1_555 1_555
H26_2 C46_2 1_555 1_555
C47_2 C45_2 1_555 1_555
Fe12 O14_2 1_555 1_555
Fe8 O29_2 1_555 1_555
C45_2 C48_2 1_555 1_555
C46_2 C47_2 1_555 1_555
C48_2 N6_2 1_555 1_555
O36 C26_2 1_555 1_555
O39 C26_2 1_555 1_555
C26_2 C27_2 1_555 1_555
C27_2 C28_2 1_555 1_555
C28_2 H16_2 1_555 1_555
O19_2 C25_2 1_555 1_555
O20_2 C25_2 1_555 1_555
C25_2 C31_2 1_555 1_555
C29_2 H17_2 1_555 1_555
H18_2 C30_2 1_555 1_555
C31_2 C29_2 1_555 1_555
Fe12_2 O20_2 1_555 1_555
Fe8 O19_2 1_555 1_555
C29_2 C32_2 1_555 1_555
C30_2 C31_2 1_555 1_555
C32_2 N4_2 1_555 1_555
O33_2 Fe5_2 1_555 1_555
O22_3 C34_3 1_555 1_555
O23_3 C33_3 1_555 1_555
O47 C33_3 1_555 1_555
C33_3 C39_3 1_555 1_555
C34_3 O35_2 1_555 1_555
C35_3 C34_3 1_555 1_555
C36_3 C35_3 1_555 1_555
H19_3 C36_3 1_555 1_555
C37_3 H20_3 1_555 1_555
C38_3 C35_3 1_555 1_555
H21_3 C38_3 1_555 1_555
C39_3 C37_3 1_555 1_555
C40_3 C36_3 1_555 1_555
N5_3 C40_3 1_555 1_555
O26_3 C42_3 1_555 1_555
O27_3 C42_3 1_555 1_555
O28_2 C41_3 1_555 1_555
O29_3 C41_3 1_555 1_555
C41_3 C47_3 1_555 1_555
C42_3 C43_3 1_555 1_555
C43_3 C44_3 1_555 1_555
C44_3 H24_3 1_555 1_555
C45_3 H25_3 1_555 1_555
C46_3 C43_3 1_555 1_555
H26_3 C46_3 1_555 1_555
C47_3 C45_3 1_555 1_555
C48_3 C44_3 1_555 1_555
N6_3 N5_3 1_555 1_555
Fe5_2 O30_3 1_555 1_555
O30_3 H27_3 1_555 1_555
H28_3 O30_3 1_555 1_555
O31_3 Fe7_2 1_555 1_555
H29_3 O31_3 1_555 1_555
H30_3 O31_3 1_555 1_555
Fe22 O23_3 1_555 1_555
Fe11 O26_3 1_555 1_555
Fe18_2 O28_2 1_555 1_555
Fe15 O27_3 1_555 1_555
Fe8_2 O29_3 1_555 1_555
O36_2 Fe7_2 1_555 1_555
O38_3 Fe5_2 1_555 1_555
O39_2 Fe5_2 1_555 1_555
O44_3 Fe5_2 1_555 1_555
O49_3 Fe5_2 1_555 1_555
O50_3 Fe7_2 1_555 1_555
O22_3 Fe7_2 1_555 1_555
C37_3 C40_3 1_555 1_555
C38_3 C39_3 1_555 1_555
C45_3 C48_3 1_555 1_555
C46_3 C47_3 1_555 1_555
C48_3 N6_3 1_555 1_555
O12_3 Fe18_2 1_555 1_555
H11_3 O12_3 1_555 1_555
H12_3 O12_3 1_555 1_555
O34_3 Fe18_2 1_555 1_555
O37_3 Fe18_2 1_555 1_555
O48_3 Fe18_2 1_555 1_555
Fe8_2 O34_3 1_555 1_555
O37_2 C18_3 1_555 1_555
O14_3 C18_3 1_555 1_555
O49_2 C17_3 1_555 1_555
C17_3 O46 1_555 1_555
C18_3 C19_3 1_555 1_555
C19_3 C20_3 1_555 1_555
C20_3 H13_3 1_555 1_555
C21_3 H14_3 1_555 1_555
C22_3 C19_3 1_555 1_555
H15_3 C22_3 1_555 1_555
C23_3 C17_3 1_555 1_555
C24_3 C20_3 1_555 1_555
N3_3 C24_3 1_555 1_555
O36_2 C26_3 1_555 1_555
O39_2 C26_3 1_555 1_555
O19_3 C25_3 1_555 1_555
O20_3 C25_3 1_555 1_555
C25_3 C31_3 1_555 1_555
C26_3 C27_3 1_555 1_555
C27_3 C28_3 1_555 1_555
C28_3 H16_3 1_555 1_555
C29_3 H17_3 1_555 1_555
C30_3 C27_3 1_555 1_555
H18_3 C30_3 1_555 1_555
C31_3 C29_3 1_555 1_555
C32_3 C28_3 1_555 1_555
N4_3 N3_3 1_555 1_555
Fe12_3 O20_3 1_555 1_555
Fe12_2 O14_3 1_555 1_555
Fe8_2 O19_3 1_555 1_555
C21_3 C23_3 1_555 1_555
C21_3 C24_3 1_555 1_555
C22_3 C23_3 1_555 1_555
C29_3 C32_3 1_555 1_555
C30_3 C31_3 1_555 1_555
C32_3 N4_3 1_555 1_555
O17_2 C26_4 1_555 1_555
O18_2 C26_4 1_555 1_555
C26_4 C27_4 1_555 1_555
C27_4 C28_4 1_555 1_555
C28_4 H16_4 1_555 1_555
Fe10 O18_2 1_555 1_555
Fe22 O17_2 1_555 1_555
O19_4 C25_4 1_555 1_555
O20_4 C25_4 1_555 1_555
C25_4 C31_4 1_555 1_555
C29_4 H17_4 1_555 1_555
H18_4 C30_4 1_555 1_555
C31_4 C29_4 1_555 1_555
Fe13 O20_4 1_555 1_555
Fe11 O19_4 1_555 1_555
C29_4 C32_4 1_555 1_555
C30_4 C31_4 1_555 1_555
C32_4 N4_4 1_555 1_555
O12_4 Fe15 1_555 1_555
H11_4 O12_4 1_555 1_555
H12_4 O12_4 1_555 1_555
O49_3 C17_4 1_555 1_555
C17_4 O46_2 1_555 1_555
C21_4 H14_4 1_555 1_555
H15_4 C22_4 1_555 1_555
C23_4 C17_4 1_555 1_555
N3_4 C24_4 1_555 1_555
Fe10 O30_4 1_555 1_555
O30_4 H27_4 1_555 1_555
H28_4 O30_4 1_555 1_555
O31_4 Fe22 1_555 1_555
H29_4 O31_4 1_555 1_555
H30_4 O31_4 1_555 1_555
O34_4 Fe15 1_555 1_555
O38_4 Fe10 1_555 1_555
O44_4 Fe10 1_555 1_555
O48_4 Fe15 1_555 1_555
O50_4 Fe22 1_555 1_555
C21_4 C23_4 1_555 1_555
C21_4 C24_4 1_555 1_555
C22_4 C23_4 1_555 1_555
Fe11 O34_4 1_555 1_555
O37_3 C18_4 1_555 1_555
O14_4 C18_4 1_555 1_555
C18_4 C19_4 1_555 1_555
C19_4 C20_4 1_555 1_555
C20_4 H13_4 1_555 1_555
Fe12_3 O14_4 1_555 1_555
O38_4 C18_5 1_555 1_555
O40 C18_5 1_555 1_555
C18_5 C19_5 1_555 1_555
C19_5 C20_5 1_555 1_555
C20_5 H13_5 1_555 1_555
O38_3 C2_2 1_555 1_555
O41_2 C2_2 1_555 1_555
O44_2 C1_2 1_555 1_555
C1_2 O50_2 1_555 1_555
C2_2 C3_2 1_555 1_555
C3_2 C4_2 1_555 1_555
C4_2 H1_2 1_555 1_555
C5_2 H2_2 1_555 1_555
C6_2 C3_2 1_555 1_555
H3_2 C6_2 1_555 1_555
C7_2 C1_2 1_555 1_555
C8_2 C4_2 1_555 1_555
N1_2 C8_2 1_555 1_555
O38 C10_2 1_555 1_555
O42 C10_2 1_555 1_555
O44_4 C9_2 1_555 1_555
O50_4 C9_2 1_555 1_555
C9_2 C15_2 1_555 1_555
C10_2 C11_2 1_555 1_555
C11_2 C12_2 1_555 1_555
C12_2 H6_2 1_555 1_555
C13_2 H7_2 1_555 1_555
C14_2 C11_2 1_555 1_555
H8_2 C14_2 1_555 1_555
C15_2 C13_2 1_555 1_555
C16_2 C12_2 1_555 1_555
N2_2 N1_2 1_555 1_555
O50_3 C17_5 1_555 1_555
C17_5 O44_3 1_555 1_555
C21_5 H14_5 1_555 1_555
H15_5 C22_5 1_555 1_555
C23_5 C17_5 1_555 1_555
N3_5 C24_5 1_555 1_555
C5_2 C7_2 1_555 1_555
C5_2 C8_2 1_555 1_555
C6_2 C7_2 1_555 1_555
C13_2 C16_2 1_555 1_555
C14_2 C15_2 1_555 1_555
C16_2 N2_2 1_555 1_555
C21_5 C23_5 1_555 1_555
C21_5 C24_5 1_555 1_555
C22_5 C23_5 1_555 1_555
O25_3 Fe12_2 1_555 1_555
H22_3 O25_3 1_555 1_555
H23_3 O25_3 1_555 1_555
O34_2 Fe12_2 1_555 1_555
O35_3 Fe12_2 1_555 1_555
O46_3 Fe12_2 1_555 1_555
O44 C25_5 1_555 1_555
O50 C25_5 1_555 1_555
C25_5 C31_5 1_555 1_555
C29_5 H17_5 1_555 1_555
H18_5 C30_5 1_555 1_555
C31_5 C29_5 1_555 1_555
C29_5 C32_5 1_555 1_555
C30_5 C31_5 1_555 1_555
C32_5 N4_5 1_555 1_555
O38_2 C26_5 1_555 1_555
O41 C26_5 1_555 1_555
C26_5 C27_5 1_555 1_555
C27_5 C28_5 1_555 1_555
C28_5 H16_5 1_555 1_555
O11_2 Fe8_2 1_555 1_555
H9_2 O11_2 1_555 1_555
H10_2 O11_2 1_555 1_555
O40_2 Fe8_2 1_555 1_555
O34_3 Fe12_3 1_555 1_555
O6_2 Fe8 1_555 1_555
H4_2 O6_2 1_555 1_555
H5_2 O6_2 1_555 1_555
O25_4 Fe21 1_555 1_555
H22_4 O25_4 1_555 1_555
H23_4 O25_4 1_555 1_555
O41_3 Fe21 1_555 1_555
O42_2 Fe8 1_555 1_555
O2_2 C2_3 1_555 1_555
O3_2 C2_3 1_555 1_555
O4_2 C1_3 1_555 1_555
C1_3 O48 1_555 1_555
C2_3 C3_3 1_555 1_555
C3_3 C4_3 1_555 1_555
C4_3 H1_3 1_555 1_555
C5_3 H2_3 1_555 1_555
C6_3 C3_3 1_555 1_555
H3_3 C6_3 1_555 1_555
C7_3 C1_3 1_555 1_555
C8_3 C4_3 1_555 1_555
N1_3 C8_3 1_555 1_555
O35_3 C10_3 1_555 1_555
O42_2 C10_3 1_555 1_555
O9_2 C9_3 1_555 1_555
O48_3 C9_3 1_555 1_555
C9_3 C15_3 1_555 1_555
C10_3 C11_3 1_555 1_555
C11_3 C12_3 1_555 1_555
C12_3 H6_3 1_555 1_555
C13_3 H7_3 1_555 1_555
C14_3 C11_3 1_555 1_555
H8_3 C14_3 1_555 1_555
C15_3 C13_3 1_555 1_555
C16_3 C12_3 1_555 1_555
N2_3 N1_3 1_555 1_555
Fe13 O2_2 1_555 1_555
O11_3 Fe13 1_555 1_555
H9_3 O11_3 1_555 1_555
H10_3 O11_3 1_555 1_555
O15_2 Fe13 1_555 1_555
O48_4 C17_6 1_555 1_555
C17_6 O15_2 1_555 1_555
C21_6 H14_6 1_555 1_555
H15_6 C22_6 1_555 1_555
C23_6 C17_6 1_555 1_555
N3_6 C24_6 1_555 1_555
Fe12 O34 1_555 1_555
O31_5 Fe12 1_555 1_555
H29_5 O31_5 1_555 1_555
H30_5 O31_5 1_555 1_555
O34_4 Fe13 1_555 1_555
Fe12_3 O9_2 1_555 1_555
Fe11 O3_2 1_555 1_555
O36_3 Fe12 1_555 1_555
O4_2 Fe12 1_555 1_555
C5_3 C7_3 1_555 1_555
C5_3 C8_3 1_555 1_555
C6_3 C7_3 1_555 1_555
C13_3 C16_3 1_555 1_555
C14_3 C15_3 1_555 1_555
C16_3 N2_3 1_555 1_555
C21_6 C23_6 1_555 1_555
C21_6 C24_6 1_555 1_555
C22_6 C23_6 1_555 1_555
O13_2 C18_6 1_555 1_555
O40_2 C18_6 1_555 1_555
C18_6 C19_6 1_555 1_555
C19_6 C20_6 1_555 1_555
C20_6 H13_6 1_555 1_555
Fe12_3 O13_2 1_555 1_555
O36_3 C26_6 1_555 1_555
O41_3 C26_6 1_555 1_555
C26_6 C27_6 1_555 1_555
C27_6 C28_6 1_555 1_555
C28_6 H16_6 1_555 1_555
O46_3 C25_6 1_555 1_555
O48_2 C25_6 1_555 1_555
C25_6 C31_6 1_555 1_555
C29_6 H17_6 1_555 1_555
H18_6 C30_6 1_555 1_555
C31_6 C29_6 1_555 1_555
C29_6 C32_6 1_555 1_555
C30_6 C31_6 1_555 1_555
C32_6 N4_6 1_555 1_555
O6_3 Fe11 1_555 1_555
H4_3 O6_3 1_555 1_555
H5_3 O6_3 1_555 1_555
O25_5 Fe12_3 1_555 1_555
H22_5 O25_5 1_555 1_555
H23_5 O25_5 1_555 1_555

#END
