
###############################################################################
#
# This file contains modified crystal structure data generated from the
# MOF subset of the Cambridge Structural Database (CSD) v543 
# hosted by the Cambridge Crystallographic Data Centre (CCDC).
#
# This work is licensed under the Creative Commons
# Attribution-NonCommercial-ShareAlike 4.0 International License.
# To view a copy of this license, visit
# http://creativecommons.org/licenses/by-nc-sa/4.0/
# or send a letter to
# Creative Commons, PO Box 1866, Mountain View, CA 94042, USA.
#
# CIF created using the CSD Python API on 29 September 2022
# The structure has been converted into the P1 space group
# The structure has a 3D framework
# The original CSD entry XOXTUC is in the cubic crystal system
# The framework has been calculated to contain at least 10.0% void space
# The void calculation uses a probe of radius 1.32A, grid spacing 0.4
#
###############################################################################

data_XOXTUC
_chemical_formula_moiety         '(C192 H120 Fe24 N24 O124)n'
_symmetry_cell_setting           triclinic
_symmetry_space_group_name_H-M   'P 1'
_symmetry_Int_Tables_number      1
_space_group_name_Hall           'P 1'
loop_
_symmetry_equiv_pos_site_id
_symmetry_equiv_pos_as_xyz
1 x,y,z
_cell_length_a                   21.9834(5)
_cell_length_b                   21.9834(5)
_cell_length_c                   21.9834(5)
_cell_angle_alpha                90
_cell_angle_beta                 90
_cell_angle_gamma                90
_cell_volume                     10623.9
loop_
_atom_site_label
_atom_site_type_symbol
_atom_site_fract_x
_atom_site_fract_y
_atom_site_fract_z
O20 O 0.24991(13) 0.74486(15) 0.10641(13)
O21 O 0.16656(14) 0.70442(17) 0.14866(13)
C25 C 0.19781(19) 0.72193(18) 0.10385(16)
C30 C 0.16889(19) 0.7139(2) 0.04257(18)
C31 C 0.1070(2) 0.7050(3) 0.04036(19)
H20 H 0.083872 0.702614 0.076792
Fe14 Fe 0.17959(3) 0.69675(3) 0.23884(2)
Fe16 Fe 0.30325(3) 0.76116(2) 0.17959(3)
Fe1 Fe 0.76116(2) 0.82041(3) 0.69675(3)
O1 O 0.75974(12) 0.75974(12) 0.75974(12)
O2 O 0.67149(13) 0.81330(16) 0.68138(15)
O3 O 0.62591(13) 0.77469(16) 0.76291(14)
O4 O 0.39359(13) 0.75514(15) 0.74991(13)
O5 O 0.35134(13) 0.79558(17) 0.66656(14)
C1 C 0.39615(16) 0.77807(18) 0.69781(19)
C2 C 0.51108(17) 0.7837(2) 0.70386(19)
H1 H 0.509130 0.775689 0.746289
C3 C 0.62557(17) 0.7936(2) 0.70993(19)
C4 C 0.56751(17) 0.7932(2) 0.67538(19)
C5 C 0.56922(19) 0.8031(3) 0.6124(2)
H2 H 0.606867 0.811703 0.592952
C6 C 0.45743(18) 0.7861(2) 0.66889(19)
C7 C 0.45964(19) 0.7950(3) 0.6070(2)
H3 H 0.423208 0.797386 0.583872
C8 C 0.5165(2) 0.8005(3) 0.5785(2)
O6 O 0.76330(18) 0.88628(16) 0.62783(16)
H4 H 0.767247 0.926892 0.631790
H5 H 0.760457 0.880392 0.587391
N1 N 0.52418(18) 0.8027(3) 0.51396(18)
O7 O 0.32851(13) 0.81330(16) 0.31862(15)
O8 O 0.37409(13) 0.77469(16) 0.23709(14)
O9 O 0.60641(13) 0.75514(15) 0.25009(13)
O10 O 0.64866(13) 0.79558(17) 0.33344(14)
C9 C 0.60385(16) 0.77807(18) 0.30219(19)
C10 C 0.48892(17) 0.7837(2) 0.29614(19)
H6 H 0.490870 0.775689 0.253711
C11 C 0.37443(17) 0.7936(2) 0.29007(19)
C12 C 0.43249(17) 0.7932(2) 0.32462(19)
C13 C 0.43078(19) 0.8031(3) 0.3876(2)
H7 H 0.393133 0.811703 0.407048
C14 C 0.54257(18) 0.7861(2) 0.33111(19)
C15 C 0.54036(19) 0.7950(3) 0.3930(2)
H8 H 0.576792 0.797386 0.416128
C16 C 0.4835(2) 0.8005(3) 0.4215(2)
N2 N 0.47582(18) 0.8027(3) 0.48604(18)
Fe2 Fe 0.32041(3) 0.73884(2) 0.80325(3)
O11 O 0.38628(16) 0.73670(18) 0.87217(16)
H9 H 0.426892 0.732753 0.868210
H10 H 0.380392 0.739543 0.912609
Fe3 Fe 0.73884(2) 0.80325(3) 0.32041(3)
O12 O 0.73670(18) 0.87217(16) 0.38628(16)
H11 H 0.732753 0.868210 0.426892
H12 H 0.739543 0.912609 0.380392
O18 O 0.18138(15) 0.68670(16) 0.82851(13)
O19 O 0.26291(14) 0.72531(16) 0.87409(13)
C26 C 0.20386(19) 0.7163(2) 0.98892(17)
H18 H 0.246289 0.724311 0.990870
C27 C 0.20993(19) 0.7064(2) 0.87443(17)
C28 C 0.17538(19) 0.7068(2) 0.93249(17)
C29 C 0.1124(2) 0.6969(3) 0.93078(19)
H19 H 0.092952 0.688297 0.893133
C32 C 0.0785(2) 0.6995(3) 0.9835(2)
N4 N 0.01396(18) 0.6973(3) 0.97582(18)
O22 O 0.81330(16) 0.68138(15) 0.67149(13)
O23 O 0.77469(16) 0.76291(14) 0.62591(13)
O24 O 0.75514(15) 0.74991(13) 0.39359(13)
O25 O 0.79558(17) 0.66656(14) 0.35134(13)
C33 C 0.77807(18) 0.69781(19) 0.39615(16)
C34 C 0.7837(2) 0.70386(19) 0.51108(17)
H21 H 0.775689 0.746289 0.509130
C35 C 0.7936(2) 0.70993(19) 0.62557(17)
C36 C 0.7932(2) 0.67538(19) 0.56751(17)
C37 C 0.8031(3) 0.6124(2) 0.56922(19)
H22 H 0.811703 0.592952 0.606867
C38 C 0.7861(2) 0.66889(19) 0.45743(18)
C39 C 0.7950(3) 0.6070(2) 0.45964(19)
H23 H 0.797386 0.583872 0.423208
C40 C 0.8005(3) 0.5785(2) 0.5165(2)
N5 N 0.8027(3) 0.51396(18) 0.52418(18)
O26 O 0.81330(16) 0.31862(15) 0.32851(13)
O27 O 0.77469(16) 0.23709(14) 0.37409(13)
O28 O 0.75514(15) 0.25009(13) 0.60641(13)
O29 O 0.79558(17) 0.33344(14) 0.64866(13)
C41 C 0.77807(18) 0.30219(19) 0.60385(16)
C42 C 0.7837(2) 0.29614(19) 0.48892(17)
H24 H 0.775689 0.253711 0.490870
C43 C 0.7936(2) 0.29007(19) 0.37443(17)
C44 C 0.7932(2) 0.32462(19) 0.43249(17)
C45 C 0.8031(3) 0.3876(2) 0.43078(19)
H25 H 0.811703 0.407048 0.393133
C46 C 0.7861(2) 0.33111(19) 0.54257(18)
C47 C 0.7950(3) 0.3930(2) 0.54036(19)
H26 H 0.797386 0.416128 0.576792
C48 C 0.8005(3) 0.4215(2) 0.4835(2)
N6 N 0.8027(3) 0.48604(18) 0.47582(18)
Fe5 Fe 0.82041(3) 0.69675(3) 0.76116(2)
O30 O 0.88628(16) 0.62783(16) 0.76330(18)
H27 H 0.926892 0.631790 0.767247
H28 H 0.880392 0.587391 0.760457
Fe6 Fe 0.69675(3) 0.76116(2) 0.82041(3)
O31 O 0.62783(16) 0.76330(18) 0.88628(16)
H29 H 0.631790 0.767247 0.926892
H30 H 0.587391 0.760457 0.880392
O32 O 0.25974(12) 0.74026(12) 0.74026(12)
Fe7 Fe 0.73884(2) 0.19675(3) 0.67959(3)
Fe8 Fe 0.76116(2) 0.17959(3) 0.30325(3)
Fe9 Fe 0.80325(3) 0.67959(3) 0.26116(2)
Fe10 Fe 0.23884(2) 0.82041(3) 0.30325(3)
Fe11 Fe 0.19675(3) 0.67959(3) 0.73884(2)
Fe17 Fe 0.82041(3) 0.30325(3) 0.23884(2)
Fe19 Fe 0.67959(3) 0.73884(2) 0.19675(3)
Fe20 Fe 0.26116(2) 0.80325(3) 0.67959(3)
Fe21 Fe 0.80325(3) 0.32041(3) 0.73884(2)
O34 O 0.74026(12) 0.74026(12) 0.25974(12)
O35 O 0.31330(16) 0.82851(13) 0.81862(15)
O36 O 0.82851(13) 0.81862(15) 0.31330(16)
O37 O 0.68138(15) 0.67149(13) 0.81330(16)
O39 O 0.76291(14) 0.62591(13) 0.77469(16)
O40 O 0.72531(16) 0.87409(13) 0.26291(14)
O41 O 0.74486(15) 0.89359(13) 0.75009(13)
O42 O 0.75009(13) 0.74486(15) 0.89359(13)
O44 O 0.89359(13) 0.75009(13) 0.74486(15)
O45 O 0.70442(17) 0.85134(13) 0.83344(14)
O46 O 0.83344(14) 0.70442(17) 0.85134(13)
O48 O 0.33344(14) 0.64866(13) 0.79558(17)
O49 O 0.85134(13) 0.83344(14) 0.70442(17)
O13 O 0.81862(15) 0.68670(16) 0.17149(13)
O14 O 0.73709(14) 0.72531(16) 0.12591(13)
C18 C 0.79614(19) 0.7163(2) 0.01108(17)
H13 H 0.753711 0.724311 0.009130
C19 C 0.79007(19) 0.7064(2) 0.12557(17)
C20 C 0.82462(19) 0.7068(2) 0.06751(17)
C21 C 0.8876(2) 0.6969(3) 0.06922(19)
H14 H 0.907048 0.688297 0.106867
C24 C 0.9215(2) 0.6995(3) 0.0165(2)
O17 O 0.87217(16) 0.61372(16) 0.26330(18)
H16 H 0.868210 0.573108 0.267247
H17 H 0.912609 0.619608 0.260457
N3 N 0.98604(18) 0.6973(3) 0.02418(18)
O38 O 0.87409(13) 0.73709(14) 0.27469(16)
O43 O 0.74991(13) 0.60641(13) 0.24486(15)
C17 C 0.80219(19) 0.72193(18) 0.89615(16)
C22 C 0.83111(19) 0.7139(2) 0.95743(18)
C23 C 0.8930(2) 0.7050(3) 0.95964(19)
H15 H 0.916128 0.702614 0.923208
O7_2 O 0.31330(16) 0.17149(13) 0.18138(15)
O8_2 O 0.27469(16) 0.12591(13) 0.26291(14)
C10_2 C 0.2837(2) 0.01108(17) 0.20386(19)
H6_2 H 0.275689 0.009130 0.246289
C11_2 C 0.2936(2) 0.12557(17) 0.20993(19)
C12_2 C 0.2932(2) 0.06751(17) 0.17538(19)
C13_2 C 0.3031(3) 0.06922(19) 0.1124(2)
H7_2 H 0.311703 0.106867 0.092952
C16_2 C 0.3005(3) 0.0165(2) 0.0785(2)
N2_2 N 0.3027(3) 0.02418(18) 0.01396(18)
Fe10_2 Fe 0.32041(3) 0.26116(2) 0.19675(3)
Fe15 Fe 0.26116(2) 0.19675(3) 0.32041(3)
O4_2 O 0.25514(15) 0.10641(13) 0.75009(13)
O5_2 O 0.29558(17) 0.14866(13) 0.83344(14)
C1_2 C 0.27807(18) 0.10385(16) 0.80219(19)
C6_2 C 0.2861(2) 0.04257(18) 0.83111(19)
C7_2 C 0.2950(3) 0.04036(19) 0.8930(2)
H3_2 H 0.297386 0.076792 0.916128
Fe2_2 Fe 0.23884(2) 0.17959(3) 0.69675(3)
O11_2 O 0.23670(18) 0.11372(16) 0.62783(16)
H9_2 H 0.232753 0.073108 0.631790
H10_2 H 0.239543 0.119608 0.587391
O13_2 O 0.18670(16) 0.68138(15) 0.32851(13)
O14_2 O 0.22531(16) 0.76291(14) 0.37409(13)
O15 O 0.24486(15) 0.74991(13) 0.60641(13)
O16 O 0.20442(17) 0.66656(14) 0.64866(13)
C17_2 C 0.22193(18) 0.69781(19) 0.60385(16)
C18_2 C 0.2163(2) 0.70386(19) 0.48892(17)
H13_2 H 0.224311 0.746289 0.490870
C19_2 C 0.2064(2) 0.70993(19) 0.37443(17)
C20_2 C 0.2068(2) 0.67538(19) 0.43249(17)
C21_2 C 0.1969(3) 0.6124(2) 0.43078(19)
H14_2 H 0.188297 0.592952 0.393133
C22_2 C 0.2139(2) 0.66889(19) 0.54257(18)
C23_2 C 0.2050(3) 0.6070(2) 0.54036(19)
H15_2 H 0.202614 0.583872 0.576792
C24_2 C 0.1995(3) 0.5785(2) 0.4835(2)
O17_2 O 0.11372(16) 0.62783(16) 0.23670(18)
H16_2 H 0.073108 0.631790 0.232753
H17_2 H 0.119608 0.587391 0.239543
N3_2 N 0.1973(3) 0.51396(18) 0.47582(18)
O18_2 O 0.18670(16) 0.31862(15) 0.67149(13)
O19_2 O 0.22531(16) 0.23709(14) 0.62591(13)
O20_2 O 0.24486(15) 0.25009(13) 0.39359(13)
O21_2 O 0.20442(17) 0.33344(14) 0.35134(13)
C25_2 C 0.22193(18) 0.30219(19) 0.39615(16)
C26_2 C 0.2163(2) 0.29614(19) 0.51108(17)
H18_2 H 0.224311 0.253711 0.509130
C27_2 C 0.2064(2) 0.29007(19) 0.62557(17)
C28_2 C 0.2068(2) 0.32462(19) 0.56751(17)
C29_2 C 0.1969(3) 0.3876(2) 0.56922(19)
H19_2 H 0.188297 0.407048 0.606867
C30_2 C 0.2139(2) 0.33111(19) 0.45743(18)
C31_2 C 0.2050(3) 0.3930(2) 0.45964(19)
H20_2 H 0.202614 0.416128 0.423208
C32_2 C 0.1995(3) 0.4215(2) 0.5165(2)
N4_2 N 0.1973(3) 0.48604(18) 0.52418(18)
O32_2 O 0.24026(12) 0.24026(12) 0.75974(12)
Fe11_2 Fe 0.17959(3) 0.30325(3) 0.76116(2)
Fe14_2 Fe 0.19675(3) 0.32041(3) 0.26116(2)
Fe20_2 Fe 0.30325(3) 0.23884(2) 0.82041(3)
O33 O 0.24026(12) 0.75974(12) 0.24026(12)
O35_2 O 0.32851(13) 0.18670(16) 0.68138(15)
O38_2 O 0.23709(14) 0.62591(13) 0.22531(16)
O43_2 O 0.10641(13) 0.75009(13) 0.25514(15)
O48_2 O 0.14866(13) 0.16656(14) 0.70442(17)
O9_2 O 0.25514(15) 0.89359(13) 0.24991(13)
O10_2 O 0.29558(17) 0.85134(13) 0.16656(14)
C9_2 C 0.27807(18) 0.89615(16) 0.19781(19)
C14_2 C 0.2861(2) 0.95743(18) 0.16889(19)
C15_2 C 0.2950(3) 0.95964(19) 0.1070(2)
H8_2 H 0.297386 0.923208 0.083872
O12_2 O 0.37217(16) 0.76330(18) 0.11372(16)
H11_2 H 0.368210 0.767247 0.073108
H12_2 H 0.412609 0.760457 0.119608
O36_2 O 0.31862(15) 0.67149(13) 0.18670(16)
O3_2 O 0.27469(16) 0.87409(13) 0.73709(14)
C2_2 C 0.2837(2) 0.98892(17) 0.79614(19)
H1_2 H 0.275689 0.990870 0.753711
C3_2 C 0.2936(2) 0.87443(17) 0.79007(19)
C4_2 C 0.2932(2) 0.93249(17) 0.82462(19)
C5_2 C 0.3031(3) 0.93078(19) 0.8876(2)
H2_2 H 0.311703 0.893133 0.907048
C8_2 C 0.3005(3) 0.9835(2) 0.9215(2)
N1_2 N 0.3027(3) 0.97582(18) 0.98604(18)
O30_2 O 0.12783(16) 0.61372(16) 0.73670(18)
H27_2 H 0.131790 0.573108 0.732753
H28_2 H 0.087391 0.619608 0.739543
O31_2 O 0.26330(18) 0.87217(16) 0.61372(16)
H29_2 H 0.267247 0.868210 0.573108
H30_2 H 0.260457 0.912609 0.619608
O37_2 O 0.17149(13) 0.81862(15) 0.68670(16)
O39_2 O 0.12591(13) 0.73709(14) 0.72531(16)
O44_2 O 0.25009(13) 0.60641(13) 0.75514(15)
O13_3 O 0.18138(15) 0.31330(16) 0.17149(13)
O14_3 O 0.26291(14) 0.27469(16) 0.12591(13)
C18_3 C 0.20386(19) 0.2837(2) 0.01108(17)
H13_3 H 0.246289 0.275689 0.009130
C19_3 C 0.20993(19) 0.2936(2) 0.12557(17)
C20_3 C 0.17538(19) 0.2932(2) 0.06751(17)
C21_3 C 0.1124(2) 0.3031(3) 0.06922(19)
H14_3 H 0.092952 0.311703 0.106867
C24_3 C 0.0785(2) 0.3005(3) 0.0165(2)
O17_3 O 0.12783(16) 0.38628(16) 0.26330(18)
H16_3 H 0.131790 0.426892 0.267247
H17_3 H 0.087391 0.380392 0.260457
N3_3 N 0.01396(18) 0.3027(3) 0.02418(18)
O33_2 O 0.25974(12) 0.25974(12) 0.25974(12)
O38_3 O 0.12591(13) 0.26291(14) 0.27469(16)
O43_3 O 0.25009(13) 0.39359(13) 0.24486(15)
O15_2 O 0.24991(13) 0.25514(15) 0.89359(13)
O16_2 O 0.16656(14) 0.29558(17) 0.85134(13)
C17_3 C 0.19781(19) 0.27807(18) 0.89615(16)
C22_3 C 0.16889(19) 0.2861(2) 0.95743(18)
C23_3 C 0.1070(2) 0.2950(3) 0.95964(19)
H15_3 H 0.083872 0.297386 0.923208
O20_3 O 0.75009(13) 0.25514(15) 0.10641(13)
O21_3 O 0.83344(14) 0.29558(17) 0.14866(13)
C25_3 C 0.80219(19) 0.27807(18) 0.10385(16)
C30_3 C 0.83111(19) 0.2861(2) 0.04257(18)
C31_3 C 0.8930(2) 0.2950(3) 0.04036(19)
H20_3 H 0.916128 0.297386 0.076792
Fe16_2 Fe 0.69675(3) 0.23884(2) 0.17959(3)
O3_3 O 0.37409(13) 0.22531(16) 0.76291(14)
O4_3 O 0.60641(13) 0.24486(15) 0.74991(13)
O5_3 O 0.64866(13) 0.20442(17) 0.66656(14)
C1_3 C 0.60385(16) 0.22193(18) 0.69781(19)
C2_3 C 0.48892(17) 0.2163(2) 0.70386(19)
H1_3 H 0.490870 0.224311 0.746289
C3_3 C 0.37443(17) 0.2064(2) 0.70993(19)
C4_3 C 0.43249(17) 0.2068(2) 0.67538(19)
C5_3 C 0.43078(19) 0.1969(3) 0.6124(2)
H2_3 H 0.393133 0.188297 0.592952
C6_3 C 0.54257(18) 0.2139(2) 0.66889(19)
C7_3 C 0.54036(19) 0.2050(3) 0.6070(2)
H3_3 H 0.576792 0.202614 0.583872
C8_3 C 0.4835(2) 0.1995(3) 0.5785(2)
N1_3 N 0.47582(18) 0.1973(3) 0.51396(18)
O7_3 O 0.67149(13) 0.18670(16) 0.31862(15)
O8_3 O 0.62591(13) 0.22531(16) 0.23709(14)
O9_3 O 0.39359(13) 0.24486(15) 0.25009(13)
O10_3 O 0.35134(13) 0.20442(17) 0.33344(14)
C9_3 C 0.39615(16) 0.22193(18) 0.30219(19)
C10_3 C 0.51108(17) 0.2163(2) 0.29614(19)
H6_3 H 0.509130 0.224311 0.253711
C11_3 C 0.62557(17) 0.2064(2) 0.29007(19)
C12_3 C 0.56751(17) 0.2068(2) 0.32462(19)
C13_3 C 0.56922(19) 0.1969(3) 0.3876(2)
H7_3 H 0.606867 0.188297 0.407048
C14_3 C 0.45743(18) 0.2139(2) 0.33111(19)
C15_3 C 0.45964(19) 0.2050(3) 0.3930(2)
H8_3 H 0.423208 0.202614 0.416128
C16_3 C 0.5165(2) 0.1995(3) 0.4215(2)
N2_3 N 0.52418(18) 0.1973(3) 0.48604(18)
Fe2_3 Fe 0.67959(3) 0.26116(2) 0.80325(3)
O11_3 O 0.61372(16) 0.26330(18) 0.87217(16)
H9_3 H 0.573108 0.267247 0.868210
H10_3 H 0.619608 0.260457 0.912609
O12_3 O 0.26330(18) 0.12783(16) 0.38628(16)
H11_3 H 0.267247 0.131790 0.426892
H12_3 H 0.260457 0.087391 0.380392
O18_3 O 0.81862(15) 0.31330(16) 0.82851(13)
O19_3 O 0.73709(14) 0.27469(16) 0.87409(13)
C26_3 C 0.79614(19) 0.2837(2) 0.98892(17)
H18_3 H 0.753711 0.275689 0.990870
C27_3 C 0.79007(19) 0.2936(2) 0.87443(17)
C28_3 C 0.82462(19) 0.2932(2) 0.93249(17)
C29_3 C 0.8876(2) 0.3031(3) 0.93078(19)
H19_3 H 0.907048 0.311703 0.893133
C32_3 C 0.9215(2) 0.3005(3) 0.9835(2)
N4_3 N 0.98604(18) 0.3027(3) 0.97582(18)
O30_3 O 0.11372(16) 0.37217(16) 0.76330(18)
H27_3 H 0.073108 0.368210 0.767247
H28_3 H 0.119608 0.412609 0.760457
O31_3 O 0.37217(16) 0.23670(18) 0.88628(16)
H29_3 H 0.368210 0.232753 0.926892
H30_3 H 0.412609 0.239543 0.880392
O32_3 O 0.74026(12) 0.25974(12) 0.74026(12)
O35_3 O 0.68670(16) 0.17149(13) 0.81862(15)
O36_3 O 0.17149(13) 0.18138(15) 0.31330(16)
O37_3 O 0.31862(15) 0.32851(13) 0.81330(16)
O39_3 O 0.23709(14) 0.37409(13) 0.77469(16)
O44_3 O 0.10641(13) 0.24991(13) 0.74486(15)
O48_3 O 0.66656(14) 0.35134(13) 0.79558(17)
O9_4 O 0.74486(15) 0.10641(13) 0.24991(13)
O10_4 O 0.70442(17) 0.14866(13) 0.16656(14)
C9_4 C 0.72193(18) 0.10385(16) 0.19781(19)
C14_4 C 0.7139(2) 0.04257(18) 0.16889(19)
C15_4 C 0.7050(3) 0.04036(19) 0.1070(2)
H8_4 H 0.702614 0.076792 0.083872
O12_4 O 0.62783(16) 0.23670(18) 0.11372(16)
H11_4 H 0.631790 0.232753 0.073108
H12_4 H 0.587391 0.239543 0.119608
O34_2 O 0.75974(12) 0.24026(12) 0.24026(12)
O36_4 O 0.68138(15) 0.32851(13) 0.18670(16)
O3_4 O 0.72531(16) 0.12591(13) 0.73709(14)
C2_4 C 0.7163(2) 0.01108(17) 0.79614(19)
H1_4 H 0.724311 0.009130 0.753711
C3_4 C 0.7064(2) 0.12557(17) 0.79007(19)
C4_4 C 0.7068(2) 0.06751(17) 0.82462(19)
C5_4 C 0.6969(3) 0.06922(19) 0.8876(2)
H2_4 H 0.688297 0.106867 0.907048
C8_4 C 0.6995(3) 0.0165(2) 0.9215(2)
N1_4 N 0.6973(3) 0.02418(18) 0.98604(18)
O30_4 O 0.87217(16) 0.38628(16) 0.73670(18)
H27_4 H 0.868210 0.426892 0.732753
H28_4 H 0.912609 0.380392 0.739543
O31_4 O 0.73670(18) 0.12783(16) 0.61372(16)
H29_4 H 0.732753 0.131790 0.573108
H30_4 H 0.739543 0.087391 0.619608
O37_4 O 0.82851(13) 0.18138(15) 0.68670(16)
O39_4 O 0.87409(13) 0.26291(14) 0.72531(16)
O44_4 O 0.74991(13) 0.39359(13) 0.75514(15)
O7_4 O 0.68670(16) 0.82851(13) 0.18138(15)
C10_4 C 0.7163(2) 0.98892(17) 0.20386(19)
H6_4 H 0.724311 0.990870 0.246289
C11_4 C 0.7064(2) 0.87443(17) 0.20993(19)
C12_4 C 0.7068(2) 0.93249(17) 0.17538(19)
C13_4 C 0.6969(3) 0.93078(19) 0.1124(2)
H7_4 H 0.688297 0.893133 0.092952
C16_4 C 0.6995(3) 0.9835(2) 0.0785(2)
N2_4 N 0.6973(3) 0.97582(18) 0.01396(18)
C1_4 C 0.72193(18) 0.89615(16) 0.80219(19)
C6_4 C 0.7139(2) 0.95743(18) 0.83111(19)
C7_4 C 0.7050(3) 0.95964(19) 0.8930(2)
H3_4 H 0.702614 0.923208 0.916128
O17_4 O 0.88628(16) 0.37217(16) 0.23670(18)
H16_4 H 0.926892 0.368210 0.232753
H17_4 H 0.880392 0.412609 0.239543
O38_4 O 0.76291(14) 0.37409(13) 0.22531(16)
O43_4 O 0.89359(13) 0.24991(13) 0.25514(15)
C1_5 C 0.10385(16) 0.19781(19) 0.72193(18)
C6_5 C 0.04257(18) 0.16889(19) 0.7139(2)
C7_5 C 0.04036(19) 0.1070(2) 0.7050(3)
H3_5 H 0.076792 0.083872 0.702614
C17_4 C 0.69781(19) 0.39615(16) 0.77807(18)
C18_4 C 0.70386(19) 0.51108(17) 0.7837(2)
H13_4 H 0.746289 0.509130 0.775689
C19_4 C 0.70993(19) 0.62557(17) 0.7936(2)
C20_4 C 0.67538(19) 0.56751(17) 0.7932(2)
C21_4 C 0.6124(2) 0.56922(19) 0.8031(3)
H14_4 H 0.592952 0.606867 0.811703
C22_4 C 0.66889(19) 0.45743(18) 0.7861(2)
C23_4 C 0.6070(2) 0.45964(19) 0.7950(3)
H15_4 H 0.583872 0.423208 0.797386
C24_4 C 0.5785(2) 0.5165(2) 0.8005(3)
N3_4 N 0.51396(18) 0.52418(18) 0.8027(3)
C25_4 C 0.30219(19) 0.60385(16) 0.77807(18)
C26_4 C 0.29614(19) 0.48892(17) 0.7837(2)
H18_4 H 0.253711 0.490870 0.775689
C27_4 C 0.29007(19) 0.37443(17) 0.7936(2)
C28_4 C 0.32462(19) 0.43249(17) 0.7932(2)
C29_4 C 0.3876(2) 0.43078(19) 0.8031(3)
H19_4 H 0.407048 0.393133 0.811703
C30_4 C 0.33111(19) 0.54257(18) 0.7861(2)
C31_4 C 0.3930(2) 0.54036(19) 0.7950(3)
H20_4 H 0.416128 0.576792 0.797386
C32_4 C 0.4215(2) 0.4835(2) 0.8005(3)
N4_4 N 0.48604(18) 0.47582(18) 0.8027(3)
C10_5 C 0.01108(17) 0.79614(19) 0.7163(2)
H6_5 H 0.009130 0.753711 0.724311
C11_5 C 0.12557(17) 0.79007(19) 0.7064(2)
C12_5 C 0.06751(17) 0.82462(19) 0.7068(2)
C13_5 C 0.06922(19) 0.8876(2) 0.6969(3)
H7_5 H 0.106867 0.907048 0.688297
C16_5 C 0.0165(2) 0.9215(2) 0.6995(3)
N2_5 N 0.02418(18) 0.98604(18) 0.6973(3)
C2_5 C 0.98892(17) 0.20386(19) 0.7163(2)
H1_5 H 0.990870 0.246289 0.724311
C3_5 C 0.87443(17) 0.20993(19) 0.7064(2)
C4_5 C 0.93249(17) 0.17538(19) 0.7068(2)
C5_5 C 0.93078(19) 0.1124(2) 0.6969(3)
H2_5 H 0.893133 0.092952 0.688297
C8_5 C 0.9835(2) 0.0785(2) 0.6995(3)
N1_5 N 0.97582(18) 0.01396(18) 0.6973(3)
C9_5 C 0.89615(16) 0.80219(19) 0.72193(18)
C14_5 C 0.95743(18) 0.83111(19) 0.7139(2)
C15_5 C 0.95964(19) 0.8930(2) 0.7050(3)
H8_5 H 0.923208 0.916128 0.702614
O6_2 O 0.76330(18) 0.11372(16) 0.37217(16)
H4_2 H 0.767247 0.073108 0.368210
H5_2 H 0.760457 0.119608 0.412609
O11_4 O 0.38628(16) 0.26330(18) 0.12783(16)
H9_4 H 0.426892 0.267247 0.131790
H10_4 H 0.380392 0.260457 0.087391
O48_4 O 0.33344(14) 0.35134(13) 0.20442(17)
O49_2 O 0.85134(13) 0.16656(14) 0.29558(17)
C10_6 C 0.01108(17) 0.20386(19) 0.2837(2)
H6_6 H 0.009130 0.246289 0.275689
C11_6 C 0.12557(17) 0.20993(19) 0.2936(2)
C12_6 C 0.06751(17) 0.17538(19) 0.2932(2)
C13_6 C 0.06922(19) 0.1124(2) 0.3031(3)
H7_6 H 0.106867 0.092952 0.311703
C16_6 C 0.0165(2) 0.0785(2) 0.3005(3)
N2_6 N 0.02418(18) 0.01396(18) 0.3027(3)
O5_4 O 0.14866(13) 0.83344(14) 0.29558(17)
C1_6 C 0.10385(16) 0.80219(19) 0.27807(18)
C6_6 C 0.04257(18) 0.83111(19) 0.2861(2)
C7_6 C 0.04036(19) 0.8930(2) 0.2950(3)
H3_6 H 0.076792 0.916128 0.297386
O16_3 O 0.66656(14) 0.64866(13) 0.20442(17)
C17_5 C 0.69781(19) 0.60385(16) 0.22193(18)
C18_5 C 0.70386(19) 0.48892(17) 0.2163(2)
H13_5 H 0.746289 0.490870 0.224311
C19_5 C 0.70993(19) 0.37443(17) 0.2064(2)
C20_5 C 0.67538(19) 0.43249(17) 0.2068(2)
C21_5 C 0.6124(2) 0.43078(19) 0.1969(3)
H14_5 H 0.592952 0.393133 0.188297
C22_5 C 0.66889(19) 0.54257(18) 0.2139(2)
C23_5 C 0.6070(2) 0.54036(19) 0.2050(3)
H15_5 H 0.583872 0.576792 0.202614
C24_5 C 0.5785(2) 0.4835(2) 0.1995(3)
N3_5 N 0.51396(18) 0.47582(18) 0.1973(3)
C25_5 C 0.30219(19) 0.39615(16) 0.22193(18)
C26_5 C 0.29614(19) 0.51108(17) 0.2163(2)
H18_5 H 0.253711 0.509130 0.224311
C27_5 C 0.29007(19) 0.62557(17) 0.2064(2)
C28_5 C 0.32462(19) 0.56751(17) 0.2068(2)
C29_5 C 0.3876(2) 0.56922(19) 0.1969(3)
H19_5 H 0.407048 0.606867 0.188297
C30_5 C 0.33111(19) 0.45743(18) 0.2139(2)
C31_5 C 0.3930(2) 0.45964(19) 0.2050(3)
H20_5 H 0.416128 0.423208 0.202614
C32_5 C 0.4215(2) 0.5165(2) 0.1995(3)
N4_5 N 0.48604(18) 0.52418(18) 0.1973(3)
C9_6 C 0.89615(16) 0.19781(19) 0.27807(18)
C14_6 C 0.95743(18) 0.16889(19) 0.2861(2)
C15_6 C 0.95964(19) 0.1070(2) 0.2950(3)
H8_6 H 0.923208 0.083872 0.297386
C2_6 C 0.98892(17) 0.79614(19) 0.2837(2)
H1_6 H 0.990870 0.753711 0.275689
C3_6 C 0.87443(17) 0.79007(19) 0.2936(2)
C4_6 C 0.93249(17) 0.82462(19) 0.2932(2)
C5_6 C 0.93078(19) 0.8876(2) 0.3031(3)
H2_6 H 0.893133 0.907048 0.311703
C8_6 C 0.9835(2) 0.9215(2) 0.3005(3)
N1_6 N 0.97582(18) 0.98604(18) 0.3027(3)
O30_5 O 0.61372(16) 0.73670(18) 0.12783(16)
H27_5 H 0.573108 0.732753 0.131790
H28_5 H 0.619608 0.739543 0.087391
O17_5 O 0.23670(18) 0.88628(16) 0.37217(16)
H16_5 H 0.232753 0.926892 0.368210
H17_5 H 0.239543 0.880392 0.412609
loop_
_geom_bond_atom_site_label_1
_geom_bond_atom_site_label_2
_geom_bond_site_symmetry_1
_geom_bond_site_symmetry_2
O20 C25 1_555 1_555
O21 C25 1_555 1_555
C25 C30 1_555 1_555
C31 C30 1_555 1_555
H20 C31 1_555 1_555
Fe14 O21 1_555 1_555
Fe16 O20 1_555 1_555
Fe1 O1 1_555 1_555
O1 Fe5 1_555 1_555
O2 Fe1 1_555 1_555
O3 C3 1_555 1_555
O4 C1 1_555 1_555
O5 C1 1_555 1_555
C1 C6 1_555 1_555
C2 H1 1_555 1_555
C3 O2 1_555 1_555
C4 C2 1_555 1_555
C5 C4 1_555 1_555
H2 C5 1_555 1_555
C6 C2 1_555 1_555
C7 C6 1_555 1_555
H3 C7 1_555 1_555
C8 C5 1_555 1_555
O6 Fe1 1_555 1_555
H4 O6 1_555 1_555
H5 O6 1_555 1_555
N1 C8 1_555 1_555
O7 C11 1_555 1_555
O8 C11 1_555 1_555
O9 C9 1_555 1_555
O10 C9 1_555 1_555
C9 C14 1_555 1_555
C10 H6 1_555 1_555
C11 C12 1_555 1_555
C12 C10 1_555 1_555
C13 C12 1_555 1_555
H7 C13 1_555 1_555
C14 C10 1_555 1_555
C15 C14 1_555 1_555
H8 C15 1_555 1_555
C16 C13 1_555 1_555
N2 N1 1_555 1_555
Fe2 O4 1_555 1_555
O11 Fe2 1_555 1_555
H9 O11 1_555 1_555
H10 O11 1_555 1_555
Fe3 O10 1_555 1_555
O12 Fe3 1_555 1_555
H11 O12 1_555 1_555
H12 O12 1_555 1_555
O18 C27 1_555 1_555
O19 Fe2 1_555 1_555
C26 H18 1_555 1_555
C27 O19 1_555 1_555
C28 C26 1_555 1_555
C29 C28 1_555 1_555
H19 C29 1_555 1_555
C32 C29 1_555 1_555
O22 C35 1_555 1_555
O23 Fe1 1_555 1_555
O24 Fe3 1_555 1_555
O25 C33 1_555 1_555
C33 O24 1_555 1_555
C34 H21 1_555 1_555
C35 O23 1_555 1_555
C36 C34 1_555 1_555
C37 C36 1_555 1_555
H22 C37 1_555 1_555
C38 C33 1_555 1_555
C39 C38 1_555 1_555
H23 C39 1_555 1_555
C40 C37 1_555 1_555
N5 C40 1_555 1_555
O26 C43 1_555 1_555
O27 C43 1_555 1_555
O28 C41 1_555 1_555
O29 C41 1_555 1_555
C41 C46 1_555 1_555
C42 H24 1_555 1_555
C43 C44 1_555 1_555
C44 C42 1_555 1_555
C45 C44 1_555 1_555
H25 C45 1_555 1_555
C46 C42 1_555 1_555
C47 C46 1_555 1_555
H26 C47 1_555 1_555
C48 C45 1_555 1_555
N6 N5 1_555 1_555
Fe5 O22 1_555 1_555
O30 Fe5 1_555 1_555
H27 O30 1_555 1_555
H28 O30 1_555 1_555
Fe6 O1 1_555 1_555
O31 Fe6 1_555 1_555
H29 O31 1_555 1_555
H30 O31 1_555 1_555
O32 Fe2 1_555 1_555
Fe7 O28 1_555 1_555
Fe8 O27 1_555 1_555
Fe9 O25 1_555 1_555
Fe10 O7 1_555 1_555
Fe11 O18 1_555 1_555
Fe16 O8 1_555 1_555
Fe17 O26 1_555 1_555
Fe19 O9 1_555 1_555
Fe20 O5 1_555 1_555
Fe21 O29 1_555 1_555
O34 Fe3 1_555 1_555
O35 Fe2 1_555 1_555
O36 Fe3 1_555 1_555
O37 Fe6 1_555 1_555
O39 Fe5 1_555 1_555
O40 Fe3 1_555 1_555
O41 Fe1 1_555 1_555
O42 Fe6 1_555 1_555
O44 Fe5 1_555 1_555
O45 Fe6 1_555 1_555
O46 Fe5 1_555 1_555
O48 Fe2 1_555 1_555
O49 Fe1 1_555 1_555
O3 Fe6 1_555 1_555
C3 C4 1_555 1_555
C7 C8 1_555 1_555
C15 C16 1_555 1_555
C16 N2 1_555 1_555
C27 C28 1_555 1_555
C32 N4 1_555 1_555
C34 C38 1_555 1_555
C35 C36 1_555 1_555
C39 C40 1_555 1_555
C47 C48 1_555 1_555
C48 N6 1_555 1_555
O32 Fe11 1_555 1_555
O32 Fe20 1_555 1_555
Fe9 O34 1_555 1_555
Fe19 O34 1_555 1_555
Fe9 O13 1_555 1_555
O13 C19 1_555 1_555
O14 C19 1_555 1_555
C18 H13 1_555 1_555
C19 C20 1_555 1_555
C20 C18 1_555 1_555
C21 C20 1_555 1_555
H14 C21 1_555 1_555
C24 C21 1_555 1_555
O17 Fe9 1_555 1_555
H16 O17 1_555 1_555
H17 O17 1_555 1_555
N3 C24 1_555 1_555
Fe19 O14 1_555 1_555
O38 Fe9 1_555 1_555
O43 Fe9 1_555 1_555
O42 C17 1_555 1_555
O46 C17 1_555 1_555
C17 C22 1_555 1_555
C23 C22 1_555 1_555
H15 C23 1_555 1_555
O7_2 C11_2 1_555 1_555
O8_2 C11_2 1_555 1_555
C10_2 H6_2 1_555 1_555
C11_2 C12_2 1_555 1_555
C12_2 C10_2 1_555 1_555
C13_2 C12_2 1_555 1_555
H7_2 C13_2 1_555 1_555
C16_2 C13_2 1_555 1_555
Fe10_2 O7_2 1_555 1_555
Fe15 O8_2 1_555 1_555
C16_2 N2_2 1_555 1_555
O4_2 C1_2 1_555 1_555
O5_2 C1_2 1_555 1_555
C1_2 C6_2 1_555 1_555
C7_2 C6_2 1_555 1_555
H3_2 C7_2 1_555 1_555
Fe2_2 O4_2 1_555 1_555
O11_2 Fe2_2 1_555 1_555
H9_2 O11_2 1_555 1_555
H10_2 O11_2 1_555 1_555
Fe14 O13_2 1_555 1_555
O13_2 C19_2 1_555 1_555
O14_2 C19_2 1_555 1_555
O15 C17_2 1_555 1_555
O16 C17_2 1_555 1_555
C17_2 C22_2 1_555 1_555
C18_2 H13_2 1_555 1_555
C19_2 C20_2 1_555 1_555
C20_2 C18_2 1_555 1_555
C21_2 C20_2 1_555 1_555
H14_2 C21_2 1_555 1_555
C22_2 C18_2 1_555 1_555
C23_2 C22_2 1_555 1_555
H15_2 C23_2 1_555 1_555
C24_2 C21_2 1_555 1_555
O17_2 Fe14 1_555 1_555
H16_2 O17_2 1_555 1_555
H17_2 O17_2 1_555 1_555
N3_2 C24_2 1_555 1_555
O18_2 C27_2 1_555 1_555
O19_2 Fe2_2 1_555 1_555
O20_2 C25_2 1_555 1_555
O21_2 C25_2 1_555 1_555
C25_2 C30_2 1_555 1_555
C26_2 H18_2 1_555 1_555
C27_2 O19_2 1_555 1_555
C28_2 C26_2 1_555 1_555
C29_2 C28_2 1_555 1_555
H19_2 C29_2 1_555 1_555
C30_2 C26_2 1_555 1_555
C31_2 C30_2 1_555 1_555
H20_2 C31_2 1_555 1_555
C32_2 C29_2 1_555 1_555
N4_2 N3_2 1_555 1_555
O32_2 Fe2_2 1_555 1_555
Fe11_2 O18_2 1_555 1_555
Fe20 O15 1_555 1_555
Fe11 O16 1_555 1_555
Fe14_2 O21_2 1_555 1_555
Fe15 O20_2 1_555 1_555
Fe10 O14_2 1_555 1_555
Fe20_2 O5_2 1_555 1_555
O33 Fe14 1_555 1_555
O35_2 Fe2_2 1_555 1_555
O38_2 Fe14 1_555 1_555
O43_2 Fe14 1_555 1_555
O48_2 Fe2_2 1_555 1_555
C23_2 C24_2 1_555 1_555
C27_2 C28_2 1_555 1_555
C31_2 C32_2 1_555 1_555
C32_2 N4_2 1_555 1_555
O32_2 Fe11_2 1_555 1_555
O32_2 Fe20_2 1_555 1_555
Fe10 O33 1_555 1_555
O9_2 C9_2 1_555 1_555
O10_2 C9_2 1_555 1_555
C9_2 C14_2 1_555 1_555
C15_2 C14_2 1_555 1_555
H8_2 C15_2 1_555 1_555
Fe16 O10_2 1_555 1_555
O12_2 Fe16 1_555 1_555
H11_2 O12_2 1_555 1_555
H12_2 O12_2 1_555 1_555
Fe10 O9_2 1_555 1_555
O33 Fe16 1_555 1_555
O36_2 Fe16 1_555 1_555
O3_2 C3_2 1_555 1_555
C2_2 H1_2 1_555 1_555
C3_2 O35 1_555 1_555
C4_2 C2_2 1_555 1_555
C5_2 C4_2 1_555 1_555
H2_2 C5_2 1_555 1_555
C8_2 C5_2 1_555 1_555
N1_2 C8_2 1_555 1_555
O30_2 Fe11 1_555 1_555
H27_2 O30_2 1_555 1_555
H28_2 O30_2 1_555 1_555
O31_2 Fe20 1_555 1_555
H29_2 O31_2 1_555 1_555
H30_2 O31_2 1_555 1_555
O37_2 Fe20 1_555 1_555
O39_2 Fe11 1_555 1_555
O44_2 Fe11 1_555 1_555
O3_2 Fe20 1_555 1_555
C3_2 C4_2 1_555 1_555
Fe14_2 O13_3 1_555 1_555
O13_3 C19_3 1_555 1_555
O14_3 C19_3 1_555 1_555
C18_3 H13_3 1_555 1_555
C19_3 C20_3 1_555 1_555
C20_3 C18_3 1_555 1_555
C21_3 C20_3 1_555 1_555
H14_3 C21_3 1_555 1_555
C24_3 C21_3 1_555 1_555
O17_3 Fe14_2 1_555 1_555
H16_3 O17_3 1_555 1_555
H17_3 O17_3 1_555 1_555
N3_3 C24_3 1_555 1_555
Fe10_2 O14_3 1_555 1_555
O33_2 Fe14_2 1_555 1_555
O38_3 Fe14_2 1_555 1_555
O43_3 Fe14_2 1_555 1_555
Fe10_2 O33_2 1_555 1_555
O15_2 C17_3 1_555 1_555
O16_2 C17_3 1_555 1_555
C17_3 C22_3 1_555 1_555
C23_3 C22_3 1_555 1_555
H15_3 C23_3 1_555 1_555
Fe20_2 O15_2 1_555 1_555
Fe11_2 O16_2 1_555 1_555
O20_3 C25_3 1_555 1_555
O21_3 C25_3 1_555 1_555
C25_3 C30_3 1_555 1_555
C31_3 C30_3 1_555 1_555
H20_3 C31_3 1_555 1_555
Fe17 O21_3 1_555 1_555
Fe16_2 O20_3 1_555 1_555
O3_3 C3_3 1_555 1_555
O4_3 C1_3 1_555 1_555
O5_3 C1_3 1_555 1_555
C1_3 C6_3 1_555 1_555
C2_3 H1_3 1_555 1_555
C3_3 O35_2 1_555 1_555
C4_3 C2_3 1_555 1_555
C5_3 C4_3 1_555 1_555
H2_3 C5_3 1_555 1_555
C6_3 C2_3 1_555 1_555
C7_3 C6_3 1_555 1_555
H3_3 C7_3 1_555 1_555
C8_3 C5_3 1_555 1_555
N1_3 C8_3 1_555 1_555
O7_3 C11_3 1_555 1_555
O8_3 C11_3 1_555 1_555
O9_3 C9_3 1_555 1_555
O10_3 C9_3 1_555 1_555
C9_3 C14_3 1_555 1_555
C10_3 H6_3 1_555 1_555
C11_3 C12_3 1_555 1_555
C12_3 C10_3 1_555 1_555
C13_3 C12_3 1_555 1_555
H7_3 C13_3 1_555 1_555
C14_3 C10_3 1_555 1_555
C15_3 C14_3 1_555 1_555
H8_3 C15_3 1_555 1_555
C16_3 C13_3 1_555 1_555
N2_3 N1_3 1_555 1_555
Fe2_3 O4_3 1_555 1_555
O11_3 Fe2_3 1_555 1_555
H9_3 O11_3 1_555 1_555
H10_3 O11_3 1_555 1_555
Fe15 O10_3 1_555 1_555
O12_3 Fe15 1_555 1_555
H11_3 O12_3 1_555 1_555
H12_3 O12_3 1_555 1_555
O18_3 C27_3 1_555 1_555
O19_3 Fe2_3 1_555 1_555
C26_3 H18_3 1_555 1_555
C27_3 O19_3 1_555 1_555
C28_3 C26_3 1_555 1_555
C29_3 C28_3 1_555 1_555
H19_3 C29_3 1_555 1_555
C32_3 C29_3 1_555 1_555
O30_3 Fe11_2 1_555 1_555
H27_3 O30_3 1_555 1_555
H28_3 O30_3 1_555 1_555
O31_3 Fe20_2 1_555 1_555
H29_3 O31_3 1_555 1_555
H30_3 O31_3 1_555 1_555
O32_3 Fe2_3 1_555 1_555
Fe8 O7_3 1_555 1_555
Fe21 O18_3 1_555 1_555
Fe16_2 O8_3 1_555 1_555
Fe10_2 O9_3 1_555 1_555
Fe7 O5_3 1_555 1_555
O33_2 Fe15 1_555 1_555
O35_3 Fe2_3 1_555 1_555
O36_3 Fe15 1_555 1_555
O37_3 Fe20_2 1_555 1_555
O39_3 Fe11_2 1_555 1_555
O44_3 Fe11_2 1_555 1_555
O48_3 Fe2_3 1_555 1_555
O3_3 Fe20_2 1_555 1_555
C3_3 C4_3 1_555 1_555
C7_3 C8_3 1_555 1_555
C15_3 C16_3 1_555 1_555
C16_3 N2_3 1_555 1_555
C27_3 C28_3 1_555 1_555
C32_3 N4_3 1_555 1_555
O32_3 Fe21 1_555 1_555
O32_3 Fe7 1_555 1_555
O9_4 C9_4 1_555 1_555
O10_4 C9_4 1_555 1_555
C9_4 C14_4 1_555 1_555
C15_4 C14_4 1_555 1_555
H8_4 C15_4 1_555 1_555
Fe16_2 O10_4 1_555 1_555
O12_4 Fe16_2 1_555 1_555
H11_4 O12_4 1_555 1_555
H12_4 O12_4 1_555 1_555
Fe8 O9_4 1_555 1_555
O34_2 Fe16_2 1_555 1_555
O36_4 Fe16_2 1_555 1_555
Fe17 O34_2 1_555 1_555
Fe8 O34_2 1_555 1_555
O3_4 C3_4 1_555 1_555
C2_4 H1_4 1_555 1_555
C3_4 O35_3 1_555 1_555
C4_4 C2_4 1_555 1_555
C5_4 C4_4 1_555 1_555
H2_4 C5_4 1_555 1_555
C8_4 C5_4 1_555 1_555
N1_4 C8_4 1_555 1_555
O30_4 Fe21 1_555 1_555
H27_4 O30_4 1_555 1_555
H28_4 O30_4 1_555 1_555
O31_4 Fe7 1_555 1_555
H29_4 O31_4 1_555 1_555
H30_4 O31_4 1_555 1_555
O37_4 Fe7 1_555 1_555
O39_4 Fe21 1_555 1_555
O44_4 Fe21 1_555 1_555
O3_4 Fe7 1_555 1_555
C3_4 C4_4 1_555 1_555
O7_4 C11_4 1_555 1_555
O40 C11_4 1_555 1_555
C10_4 H6_4 1_555 1_555
C11_4 C12_4 1_555 1_555
C12_4 C10_4 1_555 1_555
C13_4 C12_4 1_555 1_555
H7_4 C13_4 1_555 1_555
C16_4 C13_4 1_555 1_555
Fe19 O7_4 1_555 1_555
C16_4 N2_4 1_555 1_555
O41 C1_4 1_555 1_555
O45 C1_4 1_555 1_555
C1_4 C6_4 1_555 1_555
C7_4 C6_4 1_555 1_555
H3_4 C7_4 1_555 1_555
O17_4 Fe17 1_555 1_555
H16_4 O17_4 1_555 1_555
H17_4 O17_4 1_555 1_555
O38_4 Fe17 1_555 1_555
O43_4 Fe17 1_555 1_555
O44_3 C1_5 1_555 1_555
O48_2 C1_5 1_555 1_555
C1_5 C6_5 1_555 1_555
C7_5 C6_5 1_555 1_555
H3_5 C7_5 1_555 1_555
O37 C19_4 1_555 1_555
O39 C19_4 1_555 1_555
O44_4 C17_4 1_555 1_555
O48_3 C17_4 1_555 1_555
C17_4 C22_4 1_555 1_555
C18_4 H13_4 1_555 1_555
C19_4 C20_4 1_555 1_555
C20_4 C18_4 1_555 1_555
C21_4 C20_4 1_555 1_555
H14_4 C21_4 1_555 1_555
C22_4 C18_4 1_555 1_555
C23_4 C22_4 1_555 1_555
H15_4 C23_4 1_555 1_555
C24_4 C21_4 1_555 1_555
N3_4 C24_4 1_555 1_555
O37_3 C27_4 1_555 1_555
O44_2 C25_4 1_555 1_555
O48 C25_4 1_555 1_555
C25_4 C30_4 1_555 1_555
C26_4 H18_4 1_555 1_555
C27_4 O39_3 1_555 1_555
C28_4 C26_4 1_555 1_555
C29_4 C28_4 1_555 1_555
H19_4 C29_4 1_555 1_555
C30_4 C26_4 1_555 1_555
C31_4 C30_4 1_555 1_555
H20_4 C31_4 1_555 1_555
C32_4 C29_4 1_555 1_555
N4_4 N3_4 1_555 1_555
C23_4 C24_4 1_555 1_555
C27_4 C28_4 1_555 1_555
C31_4 C32_4 1_555 1_555
C32_4 N4_4 1_555 1_555
O37_2 C11_5 1_555 1_555
O39_2 C11_5 1_555 1_555
C10_5 H6_5 1_555 1_555
C11_5 C12_5 1_555 1_555
C12_5 C10_5 1_555 1_555
C13_5 C12_5 1_555 1_555
H7_5 C13_5 1_555 1_555
C16_5 C13_5 1_555 1_555
C16_5 N2_5 1_555 1_555
O39_4 C3_5 1_555 1_555
C2_5 H1_5 1_555 1_555
C3_5 O37_4 1_555 1_555
C4_5 C2_5 1_555 1_555
C5_5 C4_5 1_555 1_555
H2_5 C5_5 1_555 1_555
C8_5 C5_5 1_555 1_555
N1_5 C8_5 1_555 1_555
C3_5 C4_5 1_555 1_555
O44 C9_5 1_555 1_555
O49 C9_5 1_555 1_555
C9_5 C14_5 1_555 1_555
C15_5 C14_5 1_555 1_555
H8_5 C15_5 1_555 1_555
O6_2 Fe8 1_555 1_555
H4_2 O6_2 1_555 1_555
H5_2 O6_2 1_555 1_555
O11_4 Fe10_2 1_555 1_555
H9_4 O11_4 1_555 1_555
H10_4 O11_4 1_555 1_555
O48_4 Fe10_2 1_555 1_555
O49_2 Fe8 1_555 1_555
O36_3 C11_6 1_555 1_555
O38_3 C11_6 1_555 1_555
C10_6 H6_6 1_555 1_555
C11_6 C12_6 1_555 1_555
C12_6 C10_6 1_555 1_555
C13_6 C12_6 1_555 1_555
H7_6 C13_6 1_555 1_555
C16_6 C13_6 1_555 1_555
C16_6 N2_6 1_555 1_555
O43_2 C1_6 1_555 1_555
O5_4 C1_6 1_555 1_555
C1_6 C6_6 1_555 1_555
C7_6 C6_6 1_555 1_555
H3_6 C7_6 1_555 1_555
O36_4 C19_5 1_555 1_555
O38_4 C19_5 1_555 1_555
O43 C17_5 1_555 1_555
O16_3 C17_5 1_555 1_555
C17_5 C22_5 1_555 1_555
C18_5 H13_5 1_555 1_555
C19_5 C20_5 1_555 1_555
C20_5 C18_5 1_555 1_555
C21_5 C20_5 1_555 1_555
H14_5 C21_5 1_555 1_555
C22_5 C18_5 1_555 1_555
C23_5 C22_5 1_555 1_555
H15_5 C23_5 1_555 1_555
C24_5 C21_5 1_555 1_555
N3_5 C24_5 1_555 1_555
O36_2 C27_5 1_555 1_555
O43_3 C25_5 1_555 1_555
O48_4 C25_5 1_555 1_555
C25_5 C30_5 1_555 1_555
C26_5 H18_5 1_555 1_555
C27_5 O38_2 1_555 1_555
C28_5 C26_5 1_555 1_555
C29_5 C28_5 1_555 1_555
H19_5 C29_5 1_555 1_555
C30_5 C26_5 1_555 1_555
C31_5 C30_5 1_555 1_555
H20_5 C31_5 1_555 1_555
C32_5 C29_5 1_555 1_555
N4_5 N3_5 1_555 1_555
Fe19 O16_3 1_555 1_555
Fe10 O5_4 1_555 1_555
C23_5 C24_5 1_555 1_555
C27_5 C28_5 1_555 1_555
C31_5 C32_5 1_555 1_555
C32_5 N4_5 1_555 1_555
O43_4 C9_6 1_555 1_555
O49_2 C9_6 1_555 1_555
C9_6 C14_6 1_555 1_555
C15_6 C14_6 1_555 1_555
H8_6 C15_6 1_555 1_555
O38 C3_6 1_555 1_555
C2_6 H1_6 1_555 1_555
C3_6 O36 1_555 1_555
C4_6 C2_6 1_555 1_555
C5_6 C4_6 1_555 1_555
H2_6 C5_6 1_555 1_555
C8_6 C5_6 1_555 1_555
N1_6 C8_6 1_555 1_555
O30_5 Fe19 1_555 1_555
H27_5 O30_5 1_555 1_555
H28_5 O30_5 1_555 1_555
C3_6 C4_6 1_555 1_555
O17_5 Fe10 1_555 1_555
H16_5 O17_5 1_555 1_555
H17_5 O17_5 1_555 1_555

#END
