
###############################################################################
#
# This file contains modified crystal structure data generated from the
# MOF subset of the Cambridge Structural Database (CSD) v543 
# hosted by the Cambridge Crystallographic Data Centre (CCDC).
#
# This work is licensed under the Creative Commons
# Attribution-NonCommercial-ShareAlike 4.0 International License.
# To view a copy of this license, visit
# http://creativecommons.org/licenses/by-nc-sa/4.0/
# or send a letter to
# Creative Commons, PO Box 1866, Mountain View, CA 94042, USA.
#
# CIF created using the CSD Python API on 29 September 2022
# The structure has been converted into the P1 space group
# The structure has a 3D framework
# The original CSD entry XOXZUI is in the tetragonal crystal system
# The framework has been calculated to contain at least 10.0% void space
# The void calculation uses a probe of radius 1.32A, grid spacing 0.4
# H atom positions have been added when not included in the experimental data
#
###############################################################################

data_XOXZUI
_chemical_formula_moiety         '(C160 H108 N76 O32 Zn16)n'
_symmetry_cell_setting           triclinic
_symmetry_space_group_name_H-M   'P 1'
_symmetry_Int_Tables_number      1
_space_group_name_Hall           'P 1'
loop_
_symmetry_equiv_pos_site_id
_symmetry_equiv_pos_as_xyz
1 x,y,z
_cell_length_a                   13.3591(19)
_cell_length_b                   13.3591(19)
_cell_length_c                   42.446(5)
_cell_angle_alpha                90
_cell_angle_beta                 90
_cell_angle_gamma                90
_cell_volume                     7575.15
loop_
_atom_site_label
_atom_site_type_symbol
_atom_site_fract_x
_atom_site_fract_y
_atom_site_fract_z
Zn1 Zn 0.33746(5) 0.22571(5) 0.28444(2)
N1 N 0.6417(4) 0.2754(3) 0.27276(11)
N2 N 0.6254(4) 0.2112(4) 0.24794(10)
N3 N 0.4822(7) 0.2325(7) 0.27279(15)
O1 O 0.2932(5) 0.1712(4) 0.32428(11)
O2 O 0.3853(4) 0.3024(5) 0.33733(11)
C1 C 0.5552(4) 0.2873(4) 0.28683(13)
H1 H 0.544834 0.329195 0.304631
C2 C 0.5301(4) 0.1885(4) 0.24911(14)
H2 H 0.498408 0.144894 0.234505
C3 C 0.3305(7) 0.2316(8) 0.34485(18)
C4 C 0.3057(9) 0.2136(9) 0.37870(10)
C5 C 0.3510(8) 0.2713(8) 0.40195(14)
H3 H 0.399465 0.320145 0.396350
C6 C 0.3253(9) 0.2574(8) 0.43338(12)
H4 H 0.356203 0.296811 0.449264
C7 C 0.2543(9) 0.1859(9) 0.44157(10)
C8 C 0.2090(8) 0.1283(8) 0.41832(14)
H5 H 0.160544 0.079377 0.423920
C9 C 0.2347(8) 0.1421(8) 0.38689(12)
H6 H 0.203804 0.102711 0.371006
N4 N 0.1586(7) 0.1097(7) 0.48375(15)
N5 N 0.2941(10) 0.1900(9) 0.500000
C10 C 0.2346(12) 0.1583(11) 0.4751(2)
O3 O 0.2932(5) 0.1712(4) 0.67572(11)
O4 O 0.3853(4) 0.3024(5) 0.66267(11)
C11 C 0.3305(7) 0.2316(8) 0.65515(18)
C12 C 0.3057(9) 0.2136(9) 0.62130(10)
C13 C 0.3510(8) 0.2713(8) 0.59805(14)
H7 H 0.399465 0.320145 0.603650
C14 C 0.3253(9) 0.2574(8) 0.56662(12)
H8 H 0.356203 0.296811 0.550736
C15 C 0.2543(9) 0.1859(9) 0.55843(10)
C16 C 0.2090(8) 0.1283(8) 0.58168(14)
H9 H 0.160544 0.079377 0.576080
C17 C 0.2347(8) 0.1421(8) 0.61311(12)
H10 H 0.203804 0.102711 0.628994
N6 N 0.1586(7) 0.1097(7) 0.51625(15)
C18 C 0.2346(12) 0.1583(11) 0.5249(2)
Zn2 Zn 0.77429(5) 0.33746(5) 0.28444(2)
N7 N 0.7246(3) 0.6417(4) 0.27276(11)
N8 N 0.7888(4) 0.6254(4) 0.24794(10)
N9 N 0.7675(7) 0.4822(7) 0.27279(15)
C19 C 0.7127(4) 0.5552(4) 0.28683(13)
H11 H 0.670805 0.544834 0.304631
C20 C 0.8115(4) 0.5301(4) 0.24911(14)
H12 H 0.855106 0.498408 0.234505
Zn3 Zn 0.66254(5) 0.77429(5) 0.28444(2)
Zn4 Zn 0.33746(5) 0.22571(5) 0.71556(2)
Zn5 Zn 0.83746(5) 0.72571(5) 0.21556(2)
Zn6 Zn 0.72571(5) 0.16254(5) 0.21556(2)
N10 N 0.2754(3) 0.3583(4) 0.27276(11)
N11 N 0.8746(4) 0.2888(4) 0.25206(10)
N12 N 0.2888(4) 0.1254(4) 0.25206(10)
O5 O 0.8288(4) 0.2932(5) 0.32428(11)
O6 O 0.6976(5) 0.3853(4) 0.33733(11)
H13 H 0.361155 0.225725 0.5
N1_2 N 0.3583(4) 0.7246(3) 0.27276(11)
N2_2 N 0.3746(4) 0.7888(4) 0.24794(10)
N3_2 N 0.5178(7) 0.7675(7) 0.27279(15)
O1_2 O 0.7068(5) 0.8288(4) 0.32428(11)
O2_2 O 0.6147(4) 0.6976(5) 0.33733(11)
C1_2 C 0.4448(4) 0.7127(4) 0.28683(13)
H1_2 H 0.455166 0.670805 0.304631
C2_2 C 0.4699(4) 0.8115(4) 0.24911(14)
H2_2 H 0.501592 0.855106 0.234505
C3_2 C 0.6695(7) 0.7684(8) 0.34485(18)
C4_2 C 0.6943(9) 0.7864(9) 0.37870(10)
C5_2 C 0.6490(8) 0.7287(8) 0.40195(14)
H3_2 H 0.600535 0.679855 0.396350
C6_2 C 0.6747(9) 0.7426(8) 0.43338(12)
H4_2 H 0.643797 0.703189 0.449264
C7_2 C 0.7457(9) 0.8141(9) 0.44157(10)
C8_2 C 0.7910(8) 0.8717(8) 0.41832(14)
H5_2 H 0.839456 0.920623 0.423920
C9_2 C 0.7653(8) 0.8579(8) 0.38689(12)
H6_2 H 0.796196 0.897289 0.371006
N4_2 N 0.8414(7) 0.8903(7) 0.48375(15)
N5_2 N 0.7059(10) 0.8100(9) 0.500000
C10_2 C 0.7654(12) 0.8417(11) 0.4751(2)
O3_2 O 0.7068(5) 0.8288(4) 0.67572(11)
O4_2 O 0.6147(4) 0.6976(5) 0.66267(11)
C11_2 C 0.6695(7) 0.7684(8) 0.65515(18)
C12_2 C 0.6943(9) 0.7864(9) 0.62130(10)
C13_2 C 0.6490(8) 0.7287(8) 0.59805(14)
H7_2 H 0.600535 0.679855 0.603650
C14_2 C 0.6747(9) 0.7426(8) 0.56662(12)
H8_2 H 0.643797 0.703189 0.550736
C15_2 C 0.7457(9) 0.8141(9) 0.55843(10)
C16_2 C 0.7910(8) 0.8717(8) 0.58168(14)
H9_2 H 0.839456 0.920623 0.576080
C17_2 C 0.7653(8) 0.8579(8) 0.61311(12)
H10_2 H 0.796196 0.897289 0.628994
N6_2 N 0.8414(7) 0.8903(7) 0.51625(15)
C18_2 C 0.7654(12) 0.8417(11) 0.5249(2)
Zn2_2 Zn 0.22571(5) 0.66254(5) 0.28444(2)
N8_2 N 0.2112(4) 0.3746(4) 0.24794(10)
N9_2 N 0.2325(7) 0.5178(7) 0.27279(15)
C19_2 C 0.2873(4) 0.4448(4) 0.28683(13)
H11_2 H 0.329195 0.455166 0.304631
C20_2 C 0.1885(4) 0.4699(4) 0.24911(14)
H12_2 H 0.144894 0.501592 0.234505
Zn4_2 Zn 0.66254(5) 0.77429(5) 0.71556(2)
Zn5_2 Zn 0.16254(5) 0.27429(5) 0.21556(2)
Zn6_2 Zn 0.27429(5) 0.83746(5) 0.21556(2)
N11_2 N 0.1254(4) 0.7112(4) 0.25206(10)
N12_2 N 0.7112(4) 0.8746(4) 0.25206(10)
O5_2 O 0.1712(4) 0.7068(5) 0.32428(11)
O6_2 O 0.3024(5) 0.6147(4) 0.33733(11)
H13_2 H 0.638845 0.774275 0.5
C3_3 C 0.7684(8) 0.3305(7) 0.34485(18)
C4_3 C 0.7864(9) 0.3057(9) 0.37870(10)
C5_3 C 0.7287(8) 0.3510(8) 0.40195(14)
H3_3 H 0.679855 0.399465 0.396350
C6_3 C 0.7426(8) 0.3253(9) 0.43338(12)
H4_3 H 0.703189 0.356203 0.449264
C7_3 C 0.8141(9) 0.2543(9) 0.44157(10)
C8_3 C 0.8717(8) 0.2090(8) 0.41832(14)
H5_3 H 0.920623 0.160544 0.423920
C9_3 C 0.8579(8) 0.2347(8) 0.38689(12)
H6_3 H 0.897289 0.203804 0.371006
N4_3 N 0.8903(7) 0.1586(7) 0.48375(15)
N5_3 N 0.8100(9) 0.2941(10) 0.500000
C10_3 C 0.8417(11) 0.2346(12) 0.4751(2)
O3_3 O 0.8288(4) 0.2932(5) 0.67572(11)
O4_3 O 0.6976(5) 0.3853(4) 0.66267(11)
C11_3 C 0.7684(8) 0.3305(7) 0.65515(18)
C12_3 C 0.7864(9) 0.3057(9) 0.62130(10)
C13_3 C 0.7287(8) 0.3510(8) 0.59805(14)
H7_3 H 0.679855 0.399465 0.603650
C14_3 C 0.7426(8) 0.3253(9) 0.56662(12)
H8_3 H 0.703189 0.356203 0.550736
C15_3 C 0.8141(9) 0.2543(9) 0.55843(10)
C16_3 C 0.8717(8) 0.2090(8) 0.58168(14)
H9_3 H 0.920623 0.160544 0.576080
C17_3 C 0.8579(8) 0.2347(8) 0.61311(12)
H10_3 H 0.897289 0.203804 0.628994
N6_3 N 0.8903(7) 0.1586(7) 0.51625(15)
C18_3 C 0.8417(11) 0.2346(12) 0.5249(2)
Zn4_3 Zn 0.77429(5) 0.33746(5) 0.71556(2)
H13_3 H 0.774275 0.361155 0.5
C3_4 C 0.2316(8) 0.6695(7) 0.34485(18)
C4_4 C 0.2136(9) 0.6943(9) 0.37870(10)
C5_4 C 0.2713(8) 0.6490(8) 0.40195(14)
H3_4 H 0.320145 0.600535 0.396350
C6_4 C 0.2574(8) 0.6747(9) 0.43338(12)
H4_4 H 0.296811 0.643797 0.449264
C7_4 C 0.1859(9) 0.7457(9) 0.44157(10)
C8_4 C 0.1283(8) 0.7910(8) 0.41832(14)
H5_4 H 0.079377 0.839456 0.423920
C9_4 C 0.1421(8) 0.7653(8) 0.38689(12)
H6_4 H 0.102711 0.796196 0.371006
N4_4 N 0.1097(7) 0.8414(7) 0.48375(15)
N5_4 N 0.1900(9) 0.7059(10) 0.500000
C10_4 C 0.1583(11) 0.7654(12) 0.4751(2)
O3_4 O 0.1712(4) 0.7068(5) 0.67572(11)
O4_4 O 0.3024(5) 0.6147(4) 0.66267(11)
C11_4 C 0.2316(8) 0.6695(7) 0.65515(18)
C12_4 C 0.2136(9) 0.6943(9) 0.62130(10)
C13_4 C 0.2713(8) 0.6490(8) 0.59805(14)
H7_4 H 0.320145 0.600535 0.603650
C14_4 C 0.2574(8) 0.6747(9) 0.56662(12)
H8_4 H 0.296811 0.643797 0.550736
C15_4 C 0.1859(9) 0.7457(9) 0.55843(10)
C16_4 C 0.1283(8) 0.7910(8) 0.58168(14)
H9_4 H 0.079377 0.839456 0.576080
C17_4 C 0.1421(8) 0.7653(8) 0.61311(12)
H10_4 H 0.102711 0.796196 0.628994
N6_4 N 0.1097(7) 0.8414(7) 0.51625(15)
C18_4 C 0.1583(11) 0.7654(12) 0.5249(2)
Zn4_4 Zn 0.22571(5) 0.66254(5) 0.71556(2)
H13_4 H 0.225725 0.638845 0.5
N7_2 N 0.2246(3) 0.1417(4) 0.77276(11)
N8_3 N 0.2888(4) 0.1254(4) 0.74794(10)
C19_3 C 0.2127(4) 0.0552(4) 0.78683(13)
H11_3 H 0.170805 0.044834 0.804631
C20_3 C 0.3115(4) 0.0301(4) 0.74911(14)
Zn3_2 Zn 0.16254(5) 0.27429(5) 0.78444(2)
N1_3 N 0.1417(4) 0.7754(3) 0.77276(11)
N2_3 N 0.1254(4) 0.7112(4) 0.74794(10)
C1_3 C 0.0552(4) 0.7873(4) 0.78683(13)
H1_3 H 0.044834 0.829195 0.804631
C2_3 C 0.0301(4) 0.6885(4) 0.74911(14)
Zn2_3 Zn 0.27429(5) 0.83746(5) 0.78444(2)
N9_3 N 0.2675(7) 0.9822(7) 0.77279(15)
H12_3 H 0.355106 0.998408 0.734505
N11_3 N 0.3746(4) 0.7888(4) 0.75206(10)
O5_3 O 0.3288(4) 0.7932(5) 0.82428(11)
O6_3 O 0.1976(5) 0.8853(4) 0.83733(11)
N5_5 N 0.7941(10) 0.6900(9) -0.000000
O3_5 O 0.7932(5) 0.6712(4) 0.17572(11)
O4_5 O 0.8853(4) 0.8024(5) 0.16267(11)
C11_5 C 0.8305(7) 0.7316(8) 0.15515(18)
C12_5 C 0.8057(9) 0.7136(9) 0.12130(10)
C13_5 C 0.8510(8) 0.7713(8) 0.09805(14)
H7_5 H 0.899465 0.820145 0.103650
C14_5 C 0.8253(9) 0.7574(8) 0.06662(12)
H8_5 H 0.856203 0.796811 0.050736
C15_5 C 0.7543(9) 0.6859(9) 0.05843(10)
C16_5 C 0.7090(8) 0.6283(8) 0.08168(14)
H9_5 H 0.660544 0.579377 0.076080
C17_5 C 0.7347(8) 0.6421(8) 0.11311(12)
H10_5 H 0.703804 0.602711 0.128994
N6_5 N 0.6586(7) 0.6097(7) 0.01625(15)
C18_5 C 0.7346(12) 0.6583(11) 0.0249(2)
H13_5 H 0.861155 0.725725 -5.55112e-17
Zn1_2 Zn 0.83746(5) 0.72571(5) 0.78444(2)
N3_3 N 0.9822(7) 0.7325(7) 0.77279(15)
O1_3 O 0.7932(5) 0.6712(4) 0.82428(11)
O2_3 O 0.8853(4) 0.8024(5) 0.83733(11)
H2_3 H 0.998408 0.644894 0.734505
C3_5 C 0.8305(7) 0.7316(8) 0.84485(18)
C4_5 C 0.8057(9) 0.7136(9) 0.87870(10)
C5_5 C 0.8510(8) 0.7713(8) 0.90195(14)
H3_5 H 0.899465 0.820145 0.896350
C6_5 C 0.8253(9) 0.7574(8) 0.93338(12)
H4_5 H 0.856203 0.796811 0.949264
C7_5 C 0.7543(9) 0.6859(9) 0.94157(10)
C8_5 C 0.7090(8) 0.6283(8) 0.91832(14)
H5_5 H 0.660544 0.579377 0.923920
C9_5 C 0.7347(8) 0.6421(8) 0.88689(12)
H6_5 H 0.703804 0.602711 0.871006
N4_5 N 0.6586(7) 0.6097(7) 0.98375(15)
N5_6 N 0.7941(10) 0.6900(9) 1.000000
C10_5 C 0.7346(12) 0.6583(11) 0.9751(2)
N10_2 N 0.7754(3) 0.8583(4) 0.77276(11)
N12_3 N 0.7888(4) 0.6254(4) 0.75206(10)
H13_6 H 0.861155 0.725725 1
N5_7 N 0.2059(10) 0.3100(9) -0.000000
O3_6 O 0.2068(5) 0.3288(4) 0.17572(11)
O4_6 O 0.1147(4) 0.1976(5) 0.16267(11)
C11_6 C 0.1695(7) 0.2684(8) 0.15515(18)
C12_6 C 0.1943(9) 0.2864(9) 0.12130(10)
C13_6 C 0.1490(8) 0.2287(8) 0.09805(14)
H7_6 H 0.100535 0.179855 0.103650
C14_6 C 0.1747(9) 0.2426(8) 0.06662(12)
H8_6 H 0.143797 0.203189 0.050736
C15_6 C 0.2457(9) 0.3141(9) 0.05843(10)
C16_6 C 0.2910(8) 0.3717(8) 0.08168(14)
H9_6 H 0.339456 0.420623 0.076080
C17_6 C 0.2653(8) 0.3579(8) 0.11311(12)
H10_6 H 0.296196 0.397289 0.128994
N6_6 N 0.3414(7) 0.3903(7) 0.01625(15)
C18_6 C 0.2654(12) 0.3417(11) 0.0249(2)
H13_7 H 0.138845 0.274275 -5.55112e-17
N3_4 N 0.0178(7) 0.2675(7) 0.77279(15)
O1_4 O 0.2068(5) 0.3288(4) 0.82428(11)
O2_4 O 0.1147(4) 0.1976(5) 0.83733(11)
H2_4 H 0.001592 0.355106 0.734505
C3_6 C 0.1695(7) 0.2684(8) 0.84485(18)
C4_6 C 0.1943(9) 0.2864(9) 0.87870(10)
C5_6 C 0.1490(8) 0.2287(8) 0.90195(14)
H3_6 H 0.100535 0.179855 0.896350
C6_6 C 0.1747(9) 0.2426(8) 0.93338(12)
H4_6 H 0.143797 0.203189 0.949264
C7_6 C 0.2457(9) 0.3141(9) 0.94157(10)
C8_6 C 0.2910(8) 0.3717(8) 0.91832(14)
H5_6 H 0.339456 0.420623 0.923920
C9_6 C 0.2653(8) 0.3579(8) 0.88689(12)
H6_6 H 0.296196 0.397289 0.871006
N4_6 N 0.3414(7) 0.3903(7) 0.98375(15)
N5_8 N 0.2059(10) 0.3100(9) 1.000000
C10_6 C 0.2654(12) 0.3417(11) 0.9751(2)
N12_4 N 0.2112(4) 0.3746(4) 0.75206(10)
H13_8 H 0.138845 0.274275 1
N1_4 N 0.8583(4) 0.2246(3) 0.77276(11)
N2_4 N 0.8746(4) 0.2888(4) 0.74794(10)
C1_4 C 0.9448(4) 0.2127(4) 0.78683(13)
H1_4 H 0.955166 0.170805 0.804631
C2_4 C 0.9699(4) 0.3115(4) 0.74911(14)
Zn2_4 Zn 0.72571(5) 0.16254(5) 0.78444(2)
N9_4 N 0.7325(7) 0.0178(7) 0.77279(15)
H12_4 H 0.644894 0.001592 0.734505
N11_4 N 0.6254(4) 0.2112(4) 0.75206(10)
O5_4 O 0.6712(4) 0.2068(5) 0.82428(11)
O6_4 O 0.8024(5) 0.1147(4) 0.83733(11)
N8_4 N 0.7112(4) 0.8746(4) 0.74794(10)
C19_4 C 0.7873(4) 0.9448(4) 0.78683(13)
H11_4 H 0.829195 0.955166 0.804631
C20_4 C 0.6885(4) 0.9699(4) 0.74911(14)
N5_9 N 0.3100(9) 0.7941(10) -0.000000
O3_7 O 0.3288(4) 0.7932(5) 0.17572(11)
O4_7 O 0.1976(5) 0.8853(4) 0.16267(11)
C11_7 C 0.2684(8) 0.8305(7) 0.15515(18)
C12_7 C 0.2864(9) 0.8057(9) 0.12130(10)
C13_7 C 0.2287(8) 0.8510(8) 0.09805(14)
H7_7 H 0.179855 0.899465 0.103650
C14_7 C 0.2426(8) 0.8253(9) 0.06662(12)
H8_7 H 0.203189 0.856203 0.050736
C15_7 C 0.3141(9) 0.7543(9) 0.05843(10)
C16_7 C 0.3717(8) 0.7090(8) 0.08168(14)
H9_7 H 0.420623 0.660544 0.076080
C17_7 C 0.3579(8) 0.7347(8) 0.11311(12)
H10_7 H 0.397289 0.703804 0.128994
N6_7 N 0.3903(7) 0.6586(7) 0.01625(15)
C18_7 C 0.3417(11) 0.7346(12) 0.0249(2)
H13_9 H 0.274275 0.861155 -5.55112e-17
C3_7 C 0.2684(8) 0.8305(7) 0.84485(18)
C4_7 C 0.2864(9) 0.8057(9) 0.87870(10)
C5_7 C 0.2287(8) 0.8510(8) 0.90195(14)
H3_7 H 0.179855 0.899465 0.896350
C6_7 C 0.2426(8) 0.8253(9) 0.93338(12)
H4_7 H 0.203189 0.856203 0.949264
C7_7 C 0.3141(9) 0.7543(9) 0.94157(10)
C8_7 C 0.3717(8) 0.7090(8) 0.91832(14)
H5_7 H 0.420623 0.660544 0.923920
C9_7 C 0.3579(8) 0.7347(8) 0.88689(12)
H6_7 H 0.397289 0.703804 0.871006
N4_7 N 0.3903(7) 0.6586(7) 0.98375(15)
N5_10 N 0.3100(9) 0.7941(10) 1.000000
C10_7 C 0.3417(11) 0.7346(12) 0.9751(2)
H13_10 H 0.274275 0.861155 1
N5_11 N 0.6900(9) 0.2059(10) -0.000000
O3_8 O 0.6712(4) 0.2068(5) 0.17572(11)
O4_8 O 0.8024(5) 0.1147(4) 0.16267(11)
C11_8 C 0.7316(8) 0.1695(7) 0.15515(18)
C12_8 C 0.7136(9) 0.1943(9) 0.12130(10)
C13_8 C 0.7713(8) 0.1490(8) 0.09805(14)
H7_8 H 0.820145 0.100535 0.103650
C14_8 C 0.7574(8) 0.1747(9) 0.06662(12)
H8_8 H 0.796811 0.143797 0.050736
C15_8 C 0.6859(9) 0.2457(9) 0.05843(10)
C16_8 C 0.6283(8) 0.2910(8) 0.08168(14)
H9_8 H 0.579377 0.339456 0.076080
C17_8 C 0.6421(8) 0.2653(8) 0.11311(12)
H10_8 H 0.602711 0.296196 0.128994
N6_8 N 0.6097(7) 0.3414(7) 0.01625(15)
C18_8 C 0.6583(11) 0.2654(12) 0.0249(2)
H13_11 H 0.725725 0.138845 -5.55112e-17
C3_8 C 0.7316(8) 0.1695(7) 0.84485(18)
C4_8 C 0.7136(9) 0.1943(9) 0.87870(10)
C5_8 C 0.7713(8) 0.1490(8) 0.90195(14)
H3_8 H 0.820145 0.100535 0.896350
C6_8 C 0.7574(8) 0.1747(9) 0.93338(12)
H4_8 H 0.796811 0.143797 0.949264
C7_8 C 0.6859(9) 0.2457(9) 0.94157(10)
C8_8 C 0.6283(8) 0.2910(8) 0.91832(14)
H5_8 H 0.579377 0.339456 0.923920
C9_8 C 0.6421(8) 0.2653(8) 0.88689(12)
H6_8 H 0.602711 0.296196 0.871006
N4_8 N 0.6097(7) 0.3414(7) 0.98375(15)
N5_12 N 0.6900(9) 0.2059(10) 1.000000
C10_8 C 0.6583(11) 0.2654(12) 0.9751(2)
H13_12 H 0.725725 0.138845 1
N1_5 N 0.3583(4) 0.7246(3) 0.72724(11)
N3_5 N 0.5178(7) 0.7675(7) 0.72721(15)
C1_5 C 0.4448(4) 0.7127(4) 0.71317(13)
H1_5 H 0.455166 0.670805 0.695369
C2_5 C 0.4699(4) 0.8115(4) 0.75089(14)
H2_5 H 0.501592 0.855106 0.765495
N7_3 N 0.2754(3) 0.3583(4) 0.72724(11)
N9_5 N 0.2325(7) 0.5178(7) 0.72721(15)
C19_5 C 0.2873(4) 0.4448(4) 0.71317(13)
H11_5 H 0.329195 0.455166 0.695369
C20_5 C 0.1885(4) 0.4699(4) 0.75089(14)
H12_5 H 0.144894 0.501592 0.765495
N10_3 N 0.7246(3) 0.6417(4) 0.72724(11)
N1_6 N 0.6417(4) 0.2754(3) 0.72724(11)
N3_6 N 0.4822(7) 0.2325(7) 0.72721(15)
C1_6 C 0.5552(4) 0.2873(4) 0.71317(13)
H1_6 H 0.544834 0.329195 0.695369
C2_6 C 0.5301(4) 0.1885(4) 0.75089(14)
H2_6 H 0.498408 0.144894 0.765495
N9_6 N 0.7675(7) 0.4822(7) 0.72721(15)
C19_6 C 0.7127(4) 0.5552(4) 0.71317(13)
H11_6 H 0.670805 0.544834 0.695369
C20_6 C 0.8115(4) 0.5301(4) 0.75089(14)
H12_6 H 0.855106 0.498408 0.765495
N3_7 N 0.0178(7) 0.2675(7) 0.22721(15)
H2_7 H 0.001592 0.355106 0.265495
N10_4 N 0.2246(3) 0.1417(4) 0.22724(11)
N1_7 N 0.8583(4) 0.2246(3) 0.22724(11)
C1_7 C 0.9448(4) 0.2127(4) 0.21317(13)
H1_7 H 0.955166 0.170805 0.195369
C2_7 C 0.9699(4) 0.3115(4) 0.25089(14)
N9_7 N 0.7325(7) 0.0178(7) 0.22721(15)
H12_7 H 0.644894 0.001592 0.265495
N7_4 N 0.7754(3) 0.8583(4) 0.22724(11)
C19_7 C 0.7873(4) 0.9448(4) 0.21317(13)
H11_7 H 0.829195 0.955166 0.195369
C20_7 C 0.6885(4) 0.9699(4) 0.25089(14)
C19_8 C 0.2127(4) 0.0552(4) 0.21317(13)
H11_8 H 0.170805 0.044834 0.195369
C20_8 C 0.3115(4) 0.0301(4) 0.25089(14)
N1_8 N 0.1417(4) 0.7754(3) 0.22724(11)
C1_8 C 0.0552(4) 0.7873(4) 0.21317(13)
H1_8 H 0.044834 0.829195 0.195369
C2_8 C 0.0301(4) 0.6885(4) 0.25089(14)
N9_8 N 0.2675(7) 0.9822(7) 0.22721(15)
H12_8 H 0.355106 0.998408 0.265495
N3_8 N 0.9822(7) 0.7325(7) 0.22721(15)
H2_8 H 0.998408 0.644894 0.265495
loop_
_geom_bond_atom_site_label_1
_geom_bond_atom_site_label_2
_geom_bond_site_symmetry_1
_geom_bond_site_symmetry_2
Zn1 N3 1_555 1_555
N1 N2 1_555 1_555
N2 C2 1_555 1_555
N3 C1 1_555 1_555
O1 Zn1 1_555 1_555
O2 Zn1 1_555 1_555
C1 N1 1_555 1_555
H1 C1 1_555 1_555
C2 N3 1_555 1_555
H2 C2 1_555 1_555
C3 O1 1_555 1_555
C4 C3 1_555 1_555
C5 C4 1_555 1_555
H3 C5 1_555 1_555
C6 C5 1_555 1_555
H4 C6 1_555 1_555
C7 C6 1_555 1_555
C8 C7 1_555 1_555
H5 C8 1_555 1_555
C9 C4 1_555 1_555
H6 C9 1_555 1_555
N4 C10 1_555 1_555
N5 C10 1_555 1_555
C10 C7 1_555 1_555
O3 C11 1_555 1_555
O4 C11 1_555 1_555
C11 C12 1_555 1_555
C12 C13 1_555 1_555
C13 H7 1_555 1_555
C14 C13 1_555 1_555
H8 C14 1_555 1_555
C15 C14 1_555 1_555
C16 C15 1_555 1_555
H9 C16 1_555 1_555
C17 C12 1_555 1_555
H10 C17 1_555 1_555
N6 N4 1_555 1_555
C18 N5 1_555 1_555
Zn2 N1 1_555 1_555
N7 N8 1_555 1_555
N8 C20 1_555 1_555
N9 Zn2 1_555 1_555
C19 N7 1_555 1_555
H11 C19 1_555 1_555
C20 N9 1_555 1_555
H12 C20 1_555 1_555
Zn3 N7 1_555 1_555
Zn4 O3 1_555 1_555
Zn5 N8 1_555 1_555
Zn6 N2 1_555 1_555
N10 Zn1 1_555 1_555
N11 Zn2 1_555 1_555
N12 Zn1 1_555 1_555
O5 Zn2 1_555 1_555
O6 Zn2 1_555 1_555
O2 C3 1_555 1_555
C8 C9 1_555 1_555
O4 Zn4 1_555 1_555
C15 C18 1_555 1_555
C16 C17 1_555 1_555
N6 C18 1_555 1_555
N9 C19 1_555 1_555
N5 H13 1_555 1_555
Zn3 N3_2 1_555 1_555
N1_2 N2_2 1_555 1_555
N2_2 C2_2 1_555 1_555
N3_2 C1_2 1_555 1_555
O1_2 Zn3 1_555 1_555
O2_2 Zn3 1_555 1_555
C1_2 N1_2 1_555 1_555
H1_2 C1_2 1_555 1_555
C2_2 N3_2 1_555 1_555
H2_2 C2_2 1_555 1_555
C3_2 O1_2 1_555 1_555
C4_2 C3_2 1_555 1_555
C5_2 C4_2 1_555 1_555
H3_2 C5_2 1_555 1_555
C6_2 C5_2 1_555 1_555
H4_2 C6_2 1_555 1_555
C7_2 C6_2 1_555 1_555
C8_2 C7_2 1_555 1_555
H5_2 C8_2 1_555 1_555
C9_2 C4_2 1_555 1_555
H6_2 C9_2 1_555 1_555
N4_2 C10_2 1_555 1_555
N5_2 C10_2 1_555 1_555
C10_2 C7_2 1_555 1_555
O3_2 C11_2 1_555 1_555
O4_2 C11_2 1_555 1_555
C11_2 C12_2 1_555 1_555
C12_2 C13_2 1_555 1_555
C13_2 H7_2 1_555 1_555
C14_2 C13_2 1_555 1_555
H8_2 C14_2 1_555 1_555
C15_2 C14_2 1_555 1_555
C16_2 C15_2 1_555 1_555
H9_2 C16_2 1_555 1_555
C17_2 C12_2 1_555 1_555
H10_2 C17_2 1_555 1_555
N6_2 N4_2 1_555 1_555
C18_2 N5_2 1_555 1_555
Zn2_2 N1_2 1_555 1_555
N10 N8_2 1_555 1_555
N8_2 C20_2 1_555 1_555
N9_2 Zn2_2 1_555 1_555
C19_2 N10 1_555 1_555
H11_2 C19_2 1_555 1_555
C20_2 N9_2 1_555 1_555
H12_2 C20_2 1_555 1_555
Zn4_2 O3_2 1_555 1_555
Zn5_2 N8_2 1_555 1_555
Zn6_2 N2_2 1_555 1_555
N11_2 Zn2_2 1_555 1_555
N12_2 Zn3 1_555 1_555
O5_2 Zn2_2 1_555 1_555
O6_2 Zn2_2 1_555 1_555
O2_2 C3_2 1_555 1_555
C8_2 C9_2 1_555 1_555
O4_2 Zn4_2 1_555 1_555
C15_2 C18_2 1_555 1_555
C16_2 C17_2 1_555 1_555
N6_2 C18_2 1_555 1_555
N9_2 C19_2 1_555 1_555
N5_2 H13_2 1_555 1_555
C3_3 O5 1_555 1_555
C4_3 C3_3 1_555 1_555
C5_3 C4_3 1_555 1_555
H3_3 C5_3 1_555 1_555
C6_3 C5_3 1_555 1_555
H4_3 C6_3 1_555 1_555
C7_3 C6_3 1_555 1_555
C8_3 C7_3 1_555 1_555
H5_3 C8_3 1_555 1_555
C9_3 C4_3 1_555 1_555
H6_3 C9_3 1_555 1_555
N4_3 C10_3 1_555 1_555
N5_3 C10_3 1_555 1_555
C10_3 C7_3 1_555 1_555
O3_3 C11_3 1_555 1_555
O4_3 C11_3 1_555 1_555
C11_3 C12_3 1_555 1_555
C12_3 C13_3 1_555 1_555
C13_3 H7_3 1_555 1_555
C14_3 C13_3 1_555 1_555
H8_3 C14_3 1_555 1_555
C15_3 C14_3 1_555 1_555
C16_3 C15_3 1_555 1_555
H9_3 C16_3 1_555 1_555
C17_3 C12_3 1_555 1_555
H10_3 C17_3 1_555 1_555
N6_3 N4_3 1_555 1_555
C18_3 N5_3 1_555 1_555
Zn4_3 O3_3 1_555 1_555
O6 C3_3 1_555 1_555
C8_3 C9_3 1_555 1_555
O4_3 Zn4_3 1_555 1_555
C15_3 C18_3 1_555 1_555
C16_3 C17_3 1_555 1_555
N6_3 C18_3 1_555 1_555
N5_3 H13_3 1_555 1_555
C3_4 O5_2 1_555 1_555
C4_4 C3_4 1_555 1_555
C5_4 C4_4 1_555 1_555
H3_4 C5_4 1_555 1_555
C6_4 C5_4 1_555 1_555
H4_4 C6_4 1_555 1_555
C7_4 C6_4 1_555 1_555
C8_4 C7_4 1_555 1_555
H5_4 C8_4 1_555 1_555
C9_4 C4_4 1_555 1_555
H6_4 C9_4 1_555 1_555
N4_4 C10_4 1_555 1_555
N5_4 C10_4 1_555 1_555
C10_4 C7_4 1_555 1_555
O3_4 C11_4 1_555 1_555
O4_4 C11_4 1_555 1_555
C11_4 C12_4 1_555 1_555
C12_4 C13_4 1_555 1_555
C13_4 H7_4 1_555 1_555
C14_4 C13_4 1_555 1_555
H8_4 C14_4 1_555 1_555
C15_4 C14_4 1_555 1_555
C16_4 C15_4 1_555 1_555
H9_4 C16_4 1_555 1_555
C17_4 C12_4 1_555 1_555
H10_4 C17_4 1_555 1_555
N6_4 N4_4 1_555 1_555
C18_4 N5_4 1_555 1_555
Zn4_4 O3_4 1_555 1_555
O6_2 C3_4 1_555 1_555
C8_4 C9_4 1_555 1_555
O4_4 Zn4_4 1_555 1_555
C15_4 C18_4 1_555 1_555
C16_4 C17_4 1_555 1_555
N6_4 C18_4 1_555 1_555
N5_4 H13_4 1_555 1_555
N7_2 N8_3 1_555 1_555
N8_3 C20_3 1_555 1_555
C19_3 N7_2 1_555 1_555
H11_3 C19_3 1_555 1_555
Zn3_2 N7_2 1_555 1_555
Zn4 N8_3 1_555 1_555
N1_3 N2_3 1_555 1_555
N2_3 C2_3 1_555 1_555
C1_3 N1_3 1_555 1_555
H1_3 C1_3 1_555 1_555
Zn2_3 N1_3 1_555 1_555
N9_3 Zn2_3 1_555 1_555
Zn4_4 N2_3 1_555 1_555
N11_3 Zn2_3 1_555 1_555
O5_3 Zn2_3 1_555 1_555
O6_3 Zn2_3 1_555 1_555
O3_5 C11_5 1_555 1_555
O4_5 C11_5 1_555 1_555
C11_5 C12_5 1_555 1_555
C12_5 C13_5 1_555 1_555
C13_5 H7_5 1_555 1_555
C14_5 C13_5 1_555 1_555
H8_5 C14_5 1_555 1_555
C15_5 C14_5 1_555 1_555
C16_5 C15_5 1_555 1_555
H9_5 C16_5 1_555 1_555
C17_5 C12_5 1_555 1_555
H10_5 C17_5 1_555 1_555
C18_5 N5_5 1_555 1_555
Zn5 O3_5 1_555 1_555
O4_5 Zn5 1_555 1_555
C15_5 C18_5 1_555 1_555
C16_5 C17_5 1_555 1_555
N6_5 C18_5 1_555 1_555
N5_5 H13_5 1_555 1_555
Zn1_2 N3_3 1_555 1_555
O1_3 Zn1_2 1_555 1_555
O2_3 Zn1_2 1_555 1_555
C3_5 O1_3 1_555 1_555
C4_5 C3_5 1_555 1_555
C5_5 C4_5 1_555 1_555
H3_5 C5_5 1_555 1_555
C6_5 C5_5 1_555 1_555
H4_5 C6_5 1_555 1_555
C7_5 C6_5 1_555 1_555
C8_5 C7_5 1_555 1_555
H5_5 C8_5 1_555 1_555
C9_5 C4_5 1_555 1_555
H6_5 C9_5 1_555 1_555
N4_5 C10_5 1_555 1_555
N5_6 C10_5 1_555 1_555
C10_5 C7_5 1_555 1_555
N10_2 Zn1_2 1_555 1_555
N12_3 Zn1_2 1_555 1_555
O2_3 C3_5 1_555 1_555
C8_5 C9_5 1_555 1_555
N5_6 H13_6 1_555 1_555
O3_6 C11_6 1_555 1_555
O4_6 C11_6 1_555 1_555
C11_6 C12_6 1_555 1_555
C12_6 C13_6 1_555 1_555
C13_6 H7_6 1_555 1_555
C14_6 C13_6 1_555 1_555
H8_6 C14_6 1_555 1_555
C15_6 C14_6 1_555 1_555
C16_6 C15_6 1_555 1_555
H9_6 C16_6 1_555 1_555
C17_6 C12_6 1_555 1_555
H10_6 C17_6 1_555 1_555
C18_6 N5_7 1_555 1_555
Zn5_2 O3_6 1_555 1_555
O4_6 Zn5_2 1_555 1_555
C15_6 C18_6 1_555 1_555
C16_6 C17_6 1_555 1_555
N6_6 C18_6 1_555 1_555
N5_7 H13_7 1_555 1_555
Zn3_2 N3_4 1_555 1_555
O1_4 Zn3_2 1_555 1_555
O2_4 Zn3_2 1_555 1_555
C3_6 O1_4 1_555 1_555
C4_6 C3_6 1_555 1_555
C5_6 C4_6 1_555 1_555
H3_6 C5_6 1_555 1_555
C6_6 C5_6 1_555 1_555
H4_6 C6_6 1_555 1_555
C7_6 C6_6 1_555 1_555
C8_6 C7_6 1_555 1_555
H5_6 C8_6 1_555 1_555
C9_6 C4_6 1_555 1_555
H6_6 C9_6 1_555 1_555
N4_6 C10_6 1_555 1_555
N5_8 C10_6 1_555 1_555
C10_6 C7_6 1_555 1_555
N12_4 Zn3_2 1_555 1_555
O2_4 C3_6 1_555 1_555
C8_6 C9_6 1_555 1_555
N5_8 H13_8 1_555 1_555
N1_4 N2_4 1_555 1_555
N2_4 C2_4 1_555 1_555
C1_4 N1_4 1_555 1_555
H1_4 C1_4 1_555 1_555
Zn2_4 N1_4 1_555 1_555
N9_4 Zn2_4 1_555 1_555
Zn4_3 N2_4 1_555 1_555
N11_4 Zn2_4 1_555 1_555
O5_4 Zn2_4 1_555 1_555
O6_4 Zn2_4 1_555 1_555
N10_2 N8_4 1_555 1_555
N8_4 C20_4 1_555 1_555
C19_4 N10_2 1_555 1_555
H11_4 C19_4 1_555 1_555
Zn4_2 N8_4 1_555 1_555
O3_7 C11_7 1_555 1_555
O4_7 C11_7 1_555 1_555
C11_7 C12_7 1_555 1_555
C12_7 C13_7 1_555 1_555
C13_7 H7_7 1_555 1_555
C14_7 C13_7 1_555 1_555
H8_7 C14_7 1_555 1_555
C15_7 C14_7 1_555 1_555
C16_7 C15_7 1_555 1_555
H9_7 C16_7 1_555 1_555
C17_7 C12_7 1_555 1_555
H10_7 C17_7 1_555 1_555
C18_7 N5_9 1_555 1_555
Zn6_2 O3_7 1_555 1_555
O4_7 Zn6_2 1_555 1_555
C15_7 C18_7 1_555 1_555
C16_7 C17_7 1_555 1_555
N6_7 C18_7 1_555 1_555
N5_9 H13_9 1_555 1_555
C3_7 O5_3 1_555 1_555
C4_7 C3_7 1_555 1_555
C5_7 C4_7 1_555 1_555
H3_7 C5_7 1_555 1_555
C6_7 C5_7 1_555 1_555
H4_7 C6_7 1_555 1_555
C7_7 C6_7 1_555 1_555
C8_7 C7_7 1_555 1_555
H5_7 C8_7 1_555 1_555
C9_7 C4_7 1_555 1_555
H6_7 C9_7 1_555 1_555
N4_7 C10_7 1_555 1_555
N5_10 C10_7 1_555 1_555
C10_7 C7_7 1_555 1_555
O6_3 C3_7 1_555 1_555
C8_7 C9_7 1_555 1_555
N5_10 H13_10 1_555 1_555
O3_8 C11_8 1_555 1_555
O4_8 C11_8 1_555 1_555
C11_8 C12_8 1_555 1_555
C12_8 C13_8 1_555 1_555
C13_8 H7_8 1_555 1_555
C14_8 C13_8 1_555 1_555
H8_8 C14_8 1_555 1_555
C15_8 C14_8 1_555 1_555
C16_8 C15_8 1_555 1_555
H9_8 C16_8 1_555 1_555
C17_8 C12_8 1_555 1_555
H10_8 C17_8 1_555 1_555
C18_8 N5_11 1_555 1_555
Zn6 O3_8 1_555 1_555
O4_8 Zn6 1_555 1_555
C15_8 C18_8 1_555 1_555
C16_8 C17_8 1_555 1_555
N6_8 C18_8 1_555 1_555
N5_11 H13_11 1_555 1_555
C3_8 O5_4 1_555 1_555
C4_8 C3_8 1_555 1_555
C5_8 C4_8 1_555 1_555
H3_8 C5_8 1_555 1_555
C6_8 C5_8 1_555 1_555
H4_8 C6_8 1_555 1_555
C7_8 C6_8 1_555 1_555
C8_8 C7_8 1_555 1_555
H5_8 C8_8 1_555 1_555
C9_8 C4_8 1_555 1_555
H6_8 C9_8 1_555 1_555
N4_8 C10_8 1_555 1_555
N5_12 C10_8 1_555 1_555
C10_8 C7_8 1_555 1_555
O6_4 C3_8 1_555 1_555
C8_8 C9_8 1_555 1_555
N5_12 H13_12 1_555 1_555
Zn4_2 N3_5 1_555 1_555
N1_5 N11_3 1_555 1_555
N11_3 C2_5 1_555 1_555
N3_5 C1_5 1_555 1_555
C1_5 N1_5 1_555 1_555
H1_5 C1_5 1_555 1_555
C2_5 N3_5 1_555 1_555
H2_5 C2_5 1_555 1_555
Zn4_4 N1_5 1_555 1_555
N7_3 N12_4 1_555 1_555
N12_4 C20_5 1_555 1_555
N9_5 Zn4_4 1_555 1_555
C19_5 N7_3 1_555 1_555
H11_5 C19_5 1_555 1_555
C20_5 N9_5 1_555 1_555
H12_5 C20_5 1_555 1_555
Zn4 N7_3 1_555 1_555
N10_3 Zn4_2 1_555 1_555
N9_5 C19_5 1_555 1_555
Zn4 N3_6 1_555 1_555
N1_6 N11_4 1_555 1_555
N11_4 C2_6 1_555 1_555
N3_6 C1_6 1_555 1_555
C1_6 N1_6 1_555 1_555
H1_6 C1_6 1_555 1_555
C2_6 N3_6 1_555 1_555
H2_6 C2_6 1_555 1_555
Zn4_3 N1_6 1_555 1_555
N10_3 N12_3 1_555 1_555
N12_3 C20_6 1_555 1_555
N9_6 Zn4_3 1_555 1_555
C19_6 N10_3 1_555 1_555
H11_6 C19_6 1_555 1_555
C20_6 N9_6 1_555 1_555
H12_6 C20_6 1_555 1_555
N9_6 C19_6 1_555 1_555
Zn5_2 N3_7 1_555 1_555
N10_4 Zn5_2 1_555 1_555
N1_7 N11 1_555 1_555
N11 C2_7 1_555 1_555
C1_7 N1_7 1_555 1_555
H1_7 C1_7 1_555 1_555
Zn6 N1_7 1_555 1_555
N9_7 Zn6 1_555 1_555
N7_4 N12_2 1_555 1_555
N12_2 C20_7 1_555 1_555
C19_7 N7_4 1_555 1_555
H11_7 C19_7 1_555 1_555
Zn5 N7_4 1_555 1_555
N10_4 N12 1_555 1_555
N12 C20_8 1_555 1_555
C19_8 N10_4 1_555 1_555
H11_8 C19_8 1_555 1_555
N1_8 N11_2 1_555 1_555
N11_2 C2_8 1_555 1_555
C1_8 N1_8 1_555 1_555
H1_8 C1_8 1_555 1_555
Zn6_2 N1_8 1_555 1_555
N9_8 Zn6_2 1_555 1_555
Zn5 N3_8 1_555 1_555

#END
