
###############################################################################
#
# This file contains modified crystal structure data generated from the
# MOF subset of the Cambridge Structural Database (CSD) v543 
# hosted by the Cambridge Crystallographic Data Centre (CCDC).
#
# This work is licensed under the Creative Commons
# Attribution-NonCommercial-ShareAlike 4.0 International License.
# To view a copy of this license, visit
# http://creativecommons.org/licenses/by-nc-sa/4.0/
# or send a letter to
# Creative Commons, PO Box 1866, Mountain View, CA 94042, USA.
#
# CIF created using the CSD Python API on 29 September 2022
# The structure has been converted into the P1 space group
# The structure has a 3D framework
# The original CSD entry XOZGIF is in the monoclinic crystal system
# The original CSD entry XOZGIF is in a Sohncke space group
# The framework has been calculated to contain at least 10.0% void space
# The void calculation uses a probe of radius 1.32A, grid spacing 0.4
#
###############################################################################

data_XOZGIF
_chemical_formula_moiety         '(C288 H192 I48 N96 Zn24)n'
_symmetry_cell_setting           triclinic
_symmetry_space_group_name_H-M   'P 1'
_symmetry_Int_Tables_number      1
_space_group_name_Hall           'P 1'
loop_
_symmetry_equiv_pos_site_id
_symmetry_equiv_pos_as_xyz
1 x,y,z
_cell_length_a                   36.2576(4)
_cell_length_b                   14.34286(13)
_cell_length_c                   34.8216(4)
_cell_angle_alpha                90
_cell_angle_beta                 108.3979(11)
_cell_angle_gamma                90
_cell_volume                     17183
loop_
_atom_site_label
_atom_site_type_symbol
_atom_site_fract_x
_atom_site_fract_y
_atom_site_fract_z
C3 C 0.7110(5) 0.5939(14) 0.0554(6)
H3 H 0.726481 0.634688 0.075605
C4 C 0.7954(5) 0.0927(13) 0.0758(5)
H4 H 0.782674 0.057332 0.052253
C5 C 0.8043(5) 0.2296(12) 0.1155(5)
H5 H 0.796566 0.290920 0.119929
N1 N 0.6797(4) 0.6305(9) 0.0253(4)
N3 N 0.7333(4) 0.1703(10) 0.0172(3)
N4 N 0.8471(3) 0.1027(10) 0.1386(4)
N12 N 0.7405(4) 0.3127(10) 0.0548(4)
C15 C 0.7829(4) 0.1800(12) 0.0806(4)
C25 C 0.7206(4) 0.5007(12) 0.0573(5)
H14 H 0.741513 0.476410 0.078941
C37 C 0.8283(5) 0.0546(12) 0.1069(5)
C40 C 0.8363(6) 0.1895(14) 0.1434(5)
H22 H 0.850827 0.224369 0.166427
C41 C 0.6989(4) 0.4442(12) 0.0266(5)
C46 C 0.7508(4) 0.2239(10) 0.0484(5)
C57 C 0.7106(4) 0.3438(11) 0.0242(4)
Zn7 Zn 0.89269(6) 0.04349(17) 0.18406(7)
Zn8 Zn 0.66805(7) 0.77179(17) 0.02070(7)
Zn2 Zn 0.16805(7) 0.27179(17) 0.02070(7)
I3 I 0.40762(3) 0.86164(10) 0.66417(4)
I4 I 0.23075(4) 0.36538(10) 0.04760(4)
Zn4 Zn 0.39559(6) 0.70022(16) 0.68865(6)
C1 C 0.6894(5) 0.0642(13) 0.9485(5)
H1 H 0.703020 0.029281 0.971891
C2 C 0.6573(6) 0.1619(12) 0.8797(5)
H2 H 0.646664 0.195973 0.855304
N2 N 0.6913(4) 0.2952(10) 0.9910(4)
C6 C 0.0311(4) 0.2979(10) 0.1739(4)
N5 N 0.6356(4) 0.4584(11) 0.5602(4)
N6 N 0.6581(4) 0.0663(9) 0.8778(4)
N7 N 0.6182(4) 0.1052(11) 0.7822(4)
N8 N 0.4405(4) 0.6150(10) 0.6857(4)
N9 N 0.5488(4) 0.4662(11) 0.6481(4)
N10 N 0.5911(4) 0.3383(10) 0.6707(4)
N11 N 0.1819(4) 0.1140(9) 0.5274(4)
C7 C 0.2101(4) 0.5316(11) 0.4912(4)
C8 C 0.5898(5) 0.2479(12) 0.7274(4)
N13 N 0.2384(3) 0.5701(9) 0.5190(3)
N14 N 0.1598(4) 0.6696(11) 0.3795(4)
N15 N 0.5434(3) 0.3735(12) 0.7030(4)
C9 C 0.2881(4) 0.5609(10) 0.5842(4)
C10 C 0.2026(5) 0.2999(13) 0.5284(5)
C11 C 0.1915(4) 0.5821(11) 0.4530(4)
C12 C 0.6716(6) 0.0188(14) 0.9113(5)
C13 C 0.3280(6) 0.6903(14) 0.6102(6)
H7 H 0.335719 0.752359 0.606885
C14 C 0.2199(5) 0.2374(14) 0.5621(5)
H8 H 0.238867 0.259523 0.586023
C16 C 0.4816(4) 0.5662(13) 0.6482(5)
H9 H 0.489268 0.571534 0.624558
C17 C 0.0771(5) 0.3334(11) 0.1464(5)
C18 C 0.5668(6) 0.2129(15) 0.7532(7)
H10 H 0.541975 0.238012 0.751197
C19 C 0.1363(6) 0.5991(14) 0.2626(5)
H11 H 0.161471 0.623537 0.265917
C20 C 0.5737(5) 0.3256(13) 0.6972(5)
C21 C 0.4898(4) 0.5021(13) 0.7145(5)
H12 H 0.502012 0.460396 0.735975
C22 C 0.5016(4) 0.5057(10) 0.6808(4)
C23 C 0.0973(5) 0.3182(12) 0.1157(5)
C24 C 0.4596(5) 0.5606(13) 0.7171(4)
H13 H 0.452592 0.561749 0.741214
C26 C 0.5977(5) 0.5144(13) 0.6008(6)
H15 H 0.585025 0.564761 0.609172
C27 C 0.6866(5) 0.1617(12) 0.9506(5)
C28 C 0.6330(5) 0.3704(14) 0.5741(5)
H16 H 0.643855 0.319774 0.563784
C29 C 0.5965(4) 0.4269(12) 0.6158(6)
C30 C 0.3375(4) 0.5531(11) 0.6480(4)
H17 H 0.350358 0.520160 0.672211
C31 C 0.7043(5) 0.2126(11) 0.9882(5)
C32 C 0.2559(4) 0.5173(12) 0.5528(4)
C33 C 0.2156(5) 0.3970(11) 0.5270(5)
C34 C 0.6241(6) 0.2042(15) 0.7294(7)
H18 H 0.637761 0.221320 0.711291
C35 C 0.1727(6) 0.2659(12) 0.4967(5)
H19 H 0.159067 0.305483 0.474970
C38 C 0.5779(4) 0.4099(13) 0.6457(5)
C39 C 0.6154(6) 0.3535(12) 0.6021(6)
H21 H 0.615622 0.292371 0.612714
C42 C 0.3086(5) 0.5092(13) 0.6191(5)
H23 H 0.302364 0.445847 0.622162
C43 C 0.5334(5) 0.4463(14) 0.6762(5)
C44 C 0.0869(4) 0.4937(11) 0.2294(4)
C45 C 0.1240(5) 0.5261(15) 0.2363(6)
H24 H 0.140689 0.498661 0.223253
C49 C 0.1759(5) 0.7188(10) 0.4132(5)
H27 H 0.175770 0.784913 0.411588
C50 C 0.4501(6) 0.6176(15) 0.6527(5)
H28 H 0.435299 0.655439 0.630913
C51 C 0.5832(6) 0.1421(14) 0.7801(5)
H29 H 0.569698 0.118924 0.797474
C52 C 0.1589(5) 0.5774(10) 0.3825(4)
H30 H 0.148323 0.542470 0.358367
C53 C 0.6577(6) 0.5724(15) 0.9975(6)
H31 H 0.635287 0.595481 0.977351
C55 C 0.1234(7) 0.3793(18) 0.1115(7)
H33 H 0.127886 0.434839 0.127133
C56 C 0.1627(6) 0.1727(12) 0.4969(5)
H34 H 0.141782 0.149106 0.475100
C58 C 0.1722(5) 0.5300(12) 0.4181(4)
H35 H 0.168534 0.464612 0.419342
N16 N 0.2448(4) 0.4324(9) 0.5570(4)
N17 N 0.3490(4) 0.6419(9) 0.6442(3)
C59 C 0.1928(4) 0.6766(11) 0.4509(4)
H36 H 0.204898 0.712875 0.474308
N18 N 0.1955(3) 0.4421(9) 0.4938(3)
N19 N 0.1166(4) 0.6369(11) 0.2831(4)
C60 C 0.0724(4) 0.4178(11) 0.2004(4)
N21 N 0.0915(4) 0.4026(10) 0.1732(4)
C61 C 0.6180(5) 0.5296(13) 0.5725(6)
H37 H 0.619134 0.590542 0.562225
N22 N 0.0465(3) 0.2804(9) 0.1451(4)
C62 C 0.6387(5) 0.1348(17) 0.7581(6)
H38 H 0.663309 0.107931 0.760795
N23 N 0.0427(4) 0.3659(10) 0.2026(4)
C63 C 0.0908(6) 0.2380(16) 0.0912(6)
H39 H 0.072247 0.192289 0.092520
C64 C 0.6670(5) 0.4806(13) 0.9975(5)
H40 H 0.651222 0.440865 0.976998
C65 C 0.2090(5) 0.1503(13) 0.5589(5)
H41 H 0.221260 0.109886 0.580803
C66 C 0.2977(5) 0.6549(13) 0.5819(5)
H42 H 0.282666 0.692802 0.560269
C67 C 0.0668(5) 0.5292(15) 0.2503(4)
H43 H 0.041873 0.504945 0.248116
C68 C 0.1443(7) 0.3640(17) 0.0847(7)
H44 H 0.162376 0.409802 0.082349
C69 C 0.6709(6) 0.2088(14) 0.9143(5)
H45 H 0.669880 0.274979 0.914124
C70 C 0.0817(5) 0.6016(13) 0.2757(5)
H46 H 0.065382 0.628999 0.289284
H47 H 0.007717 0.256304 0.238398
C72 C 0.1124(7) 0.2285(14) 0.0651(7)
H48 H 0.107538 0.175708 0.047769
N24 N 0.1397(4) 0.2884(11) 0.0627(4)
Zn6 Zn 0.1408(2) 0.7407(8) 0.3256(4)
I8 I 0.08416(9) 0.8385(2) 0.32945(9)
I9 I 0.20421(6) 0.79884(19) 0.31628(8)
I10 I 0.38765(13) 0.6725(4) 0.75807(12)
Zn9 Zn 0.66670(6) 0.47370(16) 0.51966(7)
N25 N 0.1797(4) 0.1305(9) 0.0253(4)
I2 I 0.88097(3) 0.06441(11) 0.25173(4)
C36 C 0.9996(4) 0.2422(13) 0.1767(5)
C47 C 0.9609(4) 0.1731(12) 0.2143(5)
H25 H 0.955628 0.166457 0.239191
C48 C 0.9460(5) 0.1414(14) 0.1466(5)
H26 H 0.930619 0.109267 0.123165
C54 C 0.9744(4) 0.1965(12) 0.1433(5)
H32 H 0.977543 0.204947 0.117479
N20 N 0.9377(4) 0.1284(10) 0.1822(4)
C71 C 0.9918(5) 0.2281(11) 0.2141(4)
C3_2 C 0.2110(5) 0.0939(14) 0.0554(6)
H3_2 H 0.226481 0.134688 0.075605
C25_2 C 0.2206(4) 0.0007(12) 0.0573(5)
C4_2 C 0.2954(5) 0.5927(13) 0.0758(5)
H4_2 H 0.282674 0.557332 0.052253
C5_2 C 0.3043(5) 0.7296(12) 0.1155(5)
H5_2 H 0.296566 0.790920 0.119929
N3_2 N 0.2333(4) 0.6703(10) 0.0172(3)
N4_2 N 0.3471(3) 0.6027(10) 0.1386(4)
N12_2 N 0.2405(4) 0.8127(10) 0.0548(4)
C15_2 C 0.2829(4) 0.6800(12) 0.0806(4)
H14_2 H 0.241513 0.976410 0.078941
C37_2 C 0.3283(5) 0.5546(12) 0.1069(5)
H20 H 0.336412 0.492693 0.104136
C40_2 C 0.3363(6) 0.6895(14) 0.1434(5)
H22_2 H 0.350827 0.724369 0.166427
C41_2 C 0.1989(4) 0.9442(12) 0.0266(5)
C46_2 C 0.2508(4) 0.7239(10) 0.0484(5)
C57_2 C 0.2106(4) 0.8438(11) 0.0242(4)
Zn7_2 Zn 0.39269(6) 0.54349(17) 0.18406(7)
I1 I 0.72738(3) 0.37070(9) 0.54603(3)
I2_2 I 0.38097(3) 0.56441(11) 0.25173(4)
I4_2 I 0.73075(4) 0.86538(10) 0.04760(4)
I5 I 0.62406(4) 0.44188(12) 0.44801(4)
I6 I 0.40361(4) 0.38211(10) 0.15910(5)
C6_2 C 0.5311(4) 0.7979(10) 0.1739(4)
N11_2 N 0.6819(4) 0.6140(9) 0.5274(4)
C10_2 C 0.7026(5) 0.7999(13) 0.5284(5)
C14_2 C 0.7199(5) 0.7374(14) 0.5621(5)
H8_2 H 0.738867 0.759523 0.586023
C17_2 C 0.5771(5) 0.8334(11) 0.1464(5)
C23_2 C 0.5973(5) 0.8182(12) 0.1157(5)
C33_2 C 0.7156(5) 0.8970(11) 0.5270(5)
C35_2 C 0.6727(6) 0.7659(12) 0.4967(5)
H19_2 H 0.659067 0.805483 0.474970
C36_2 C 0.4996(4) 0.7422(13) 0.1767(5)
H23_2 H 0.802364 0.945847 0.622162
C44_2 C 0.5869(4) 0.9937(11) 0.2294(4)
H24_2 H 0.640689 0.998661 0.223253
C47_2 C 0.4609(4) 0.6731(12) 0.2143(5)
H25_2 H 0.455628 0.666457 0.239191
C48_2 C 0.4460(5) 0.6414(14) 0.1466(5)
H26_2 H 0.430619 0.609267 0.123165
C54_2 C 0.4744(4) 0.6965(12) 0.1433(5)
H32_2 H 0.477543 0.704947 0.117479
C55_2 C 0.6234(7) 0.8793(18) 0.1115(7)
H33_2 H 0.627886 0.934839 0.127133
C56_2 C 0.6627(6) 0.6727(12) 0.4969(5)
H34_2 H 0.641782 0.649106 0.475100
H35_2 H 0.668534 0.964612 0.419342
N16_2 N 0.7448(4) 0.9324(9) 0.5570(4)
N18_2 N 0.6955(3) 0.9421(9) 0.4938(3)
C60_2 C 0.5724(4) 0.9178(11) 0.2004(4)
N20_2 N 0.4377(4) 0.6284(10) 0.1822(4)
N21_2 N 0.5915(4) 0.9026(10) 0.1732(4)
N22_2 N 0.5465(3) 0.7804(9) 0.1451(4)
N23_2 N 0.5427(4) 0.8659(10) 0.2026(4)
C63_2 C 0.5908(6) 0.7380(16) 0.0912(6)
H39_2 H 0.572247 0.692289 0.092520
C65_2 C 0.7090(5) 0.6503(13) 0.5589(5)
H41_2 H 0.721260 0.609886 0.580803
C68_2 C 0.6443(7) 0.8640(17) 0.0847(7)
H44_2 H 0.662376 0.909802 0.082349
C71_2 C 0.4918(5) 0.7281(11) 0.2141(4)
H47_2 H 0.507717 0.756304 0.238398
C72_2 C 0.6124(7) 0.7285(14) 0.0651(7)
H48_2 H 0.607538 0.675708 0.047769
N24_2 N 0.6397(4) 0.7884(11) 0.0627(4)
I11 I 0.1266(4) 0.3017(6) 0.9472(4)
H20_2 H 0.836412 0.992693 0.104136
I1_2 I 0.22738(3) 0.87070(9) 0.54603(3)
Zn3 Zn 0.16670(6) 0.97370(16) 0.51966(7)
I5_2 I 0.12406(4) 0.94188(12) 0.44801(4)
Zn5 Zn 0.64079(7) 0.99707(18) 0.82276(6)
I7 I 0.70311(6) 0.93479(14) 0.81291(5)
H6 H 0.669449 0.952791 0.910564
I12 I 0.58585(19) 0.8918(2) 0.82422(13)
N27 N 0.1356(4) 0.9584(11) 0.5602(4)
Zn5_2 Zn 0.14079(7) 0.49707(18) 0.82276(6)
C1_2 C 0.1894(5) 0.5642(13) 0.9485(5)
H1_2 H 0.203020 0.529281 0.971891
C2_2 C 0.1573(6) 0.6619(12) 0.8797(5)
H2_2 H 0.146664 0.695973 0.855304
I7_2 I 0.20311(6) 0.43479(14) 0.81291(5)
N2_2 N 0.1913(4) 0.7952(10) 0.9910(4)
N6_2 N 0.1581(4) 0.5663(9) 0.8778(4)
N7_2 N 0.1182(4) 0.6052(11) 0.7822(4)
N9_2 N 0.0488(4) 0.9662(11) 0.6481(4)
N10_2 N 0.0911(4) 0.8383(10) 0.6707(4)
C8_2 C 0.0898(5) 0.7479(12) 0.7274(4)
N15_2 N 0.0434(3) 0.8735(12) 0.7030(4)
C12_2 C 0.1716(6) 0.5188(14) 0.9113(5)
H6_2 H 0.169449 0.452791 0.910564
C18_2 C 0.0668(6) 0.7129(15) 0.7532(7)
H10_2 H 0.041975 0.738012 0.751197
C20_2 C 0.0737(5) 0.8256(13) 0.6972(5)
H12_2 H 0.002012 0.960396 0.735975
C27_2 C 0.1866(5) 0.6617(12) 0.9506(5)
C28_2 C 0.1330(5) 0.8704(14) 0.5741(5)
H16_2 H 0.143855 0.819774 0.563784
C29_2 C 0.0965(4) 0.9269(12) 0.6158(6)
C31_2 C 0.2043(5) 0.7126(11) 0.9882(5)
C34_2 C 0.1241(6) 0.7042(15) 0.7294(7)
H18_2 H 0.137761 0.721320 0.711291
C38_2 C 0.0779(4) 0.9099(13) 0.6457(5)
C39_2 C 0.1154(6) 0.8535(12) 0.6021(6)
H21_2 H 0.115622 0.792371 0.612714
C43_2 C 0.0334(5) 0.9463(14) 0.6762(5)
C51_2 C 0.0832(6) 0.6421(14) 0.7801(5)
H29_2 H 0.069698 0.618924 0.797474
C62_2 C 0.1387(5) 0.6348(17) 0.7581(6)
H38_2 H 0.163309 0.607931 0.760795
C64_2 C 0.1670(5) 0.9806(13) 0.9975(5)
H40_2 H 0.151222 0.940865 0.976998
C69_2 C 0.1709(6) 0.7088(14) 0.9143(5)
H45_2 H 0.169880 0.774979 0.914124
I12_2 I 0.08585(19) 0.3918(2) 0.82422(13)
I6_2 I 0.90361(4) 0.88211(10) 0.15910(5)
Zn1 Zn 0.10731(6) 0.04349(17) 0.81594(7)
I2_3 I 0.11903(3) 0.06441(11) 0.74827(4)
C36_3 C 0.0004(4) 0.2422(13) 0.8233(5)
C47_3 C 0.0391(4) 0.1731(12) 0.7857(5)
H25_3 H 0.044372 0.166457 0.760809
C48_3 C 0.0540(5) 0.1414(14) 0.8534(5)
H26_3 H 0.069381 0.109267 0.876835
C54_3 C 0.0256(4) 0.1965(12) 0.8567(5)
H32_3 H 0.022457 0.204947 0.882521
N20_3 N 0.0623(4) 0.1284(10) 0.8178(4)
C71_3 C 0.0082(5) 0.2281(11) 0.7859(4)
N26 N 0.1529(3) 0.1027(10) 0.8614(4)
Zn2_2 Zn 0.83195(7) 0.27179(17) 0.97930(7)
I3_2 I 0.59238(3) 0.86164(10) 0.33583(4)
I4_3 I 0.76925(4) 0.36538(10) 0.95240(4)
Zn4_2 Zn 0.60441(6) 0.70022(16) 0.31135(6)
C1_3 C 0.3106(5) 0.0642(13) 0.0515(5)
H1_3 H 0.296980 0.029281 0.028109
C2_3 C 0.3427(6) 0.1619(12) 0.1203(5)
H2_3 H 0.353336 0.195973 0.144696
N2_3 N 0.3087(4) 0.2952(10) 0.0090(4)
C6_3 C 0.9689(4) 0.2979(10) 0.8261(4)
N5_2 N 0.3644(4) 0.4584(11) 0.4398(4)
N6_3 N 0.3419(4) 0.0663(9) 0.1222(4)
N7_3 N 0.3818(4) 0.1052(11) 0.2178(4)
N8_2 N 0.5595(4) 0.6150(10) 0.3143(4)
N9_3 N 0.4512(4) 0.4662(11) 0.3519(4)
N10_3 N 0.4089(4) 0.3383(10) 0.3293(4)
N11_3 N 0.8181(4) 0.1140(9) 0.4726(4)
C7_2 C 0.7899(4) 0.5316(11) 0.5088(4)
C8_3 C 0.4102(5) 0.2479(12) 0.2726(4)
N13_2 N 0.7616(3) 0.5701(9) 0.4810(3)
N14_2 N 0.8402(4) 0.6696(11) 0.6205(4)
N15_3 N 0.4566(3) 0.3735(12) 0.2970(4)
C9_2 C 0.7119(4) 0.5609(10) 0.4158(4)
C10_3 C 0.7974(5) 0.2999(13) 0.4716(5)
C11_2 C 0.8085(4) 0.5821(11) 0.5470(4)
C12_3 C 0.3284(6) 0.0188(14) 0.0887(5)
C13_2 C 0.6720(6) 0.6903(14) 0.3898(6)
H7_2 H 0.664281 0.752359 0.393115
C14_3 C 0.7801(5) 0.2374(14) 0.4379(5)
H8_3 H 0.761133 0.259523 0.413977
C16_2 C 0.5184(4) 0.5662(13) 0.3518(5)
H9_2 H 0.510732 0.571534 0.375442
C17_3 C 0.9229(5) 0.3334(11) 0.8536(5)
C18_3 C 0.4332(6) 0.2129(15) 0.2468(7)
H10_3 H 0.458025 0.238012 0.248803
C19_2 C 0.8637(6) 0.5991(14) 0.7374(5)
H11_2 H 0.838529 0.623537 0.734083
C20_3 C 0.4263(5) 0.3256(13) 0.3028(5)
C21_2 C 0.5102(4) 0.5021(13) 0.2855(5)
H12_3 H 0.497988 0.460396 0.264025
C22_2 C 0.4984(4) 0.5057(10) 0.3192(4)
C23_3 C 0.9027(5) 0.3182(12) 0.8843(5)
C24_2 C 0.5404(5) 0.5606(13) 0.2829(4)
H13_2 H 0.547408 0.561749 0.258786
C26_2 C 0.4023(5) 0.5144(13) 0.3992(6)
H15_2 H 0.414975 0.564761 0.390828
C27_3 C 0.3134(5) 0.1617(12) 0.0494(5)
C28_3 C 0.3670(5) 0.3704(14) 0.4259(5)
H16_3 H 0.356145 0.319774 0.436216
C29_3 C 0.4035(4) 0.4269(12) 0.3842(6)
C30_2 C 0.6625(4) 0.5531(11) 0.3520(4)
H17_2 H 0.649642 0.520160 0.327789
C31_3 C 0.2957(5) 0.2126(11) 0.0118(5)
C32_2 C 0.7441(4) 0.5173(12) 0.4472(4)
C33_3 C 0.7844(5) 0.3970(11) 0.4730(5)
C34_3 C 0.3759(6) 0.2042(15) 0.2706(7)
H18_3 H 0.362239 0.221320 0.288709
C35_3 C 0.8273(6) 0.2659(12) 0.5033(5)
H19_3 H 0.840933 0.305483 0.525030
C38_3 C 0.4221(4) 0.4099(13) 0.3543(5)
C39_3 C 0.3846(6) 0.3535(12) 0.3979(6)
H21_3 H 0.384378 0.292371 0.387286
C42_2 C 0.6914(5) 0.5092(13) 0.3809(5)
H23_3 H 0.697636 0.445847 0.377838
C43_3 C 0.4666(5) 0.4463(14) 0.3238(5)
C44_3 C 0.9131(4) 0.4937(11) 0.7706(4)
C45_2 C 0.8760(5) 0.5261(15) 0.7637(6)
H24_3 H 0.859311 0.498661 0.776747
C49_2 C 0.8241(5) 0.7188(10) 0.5868(5)
H27_2 H 0.824230 0.784913 0.588412
C50_2 C 0.5499(6) 0.6176(15) 0.3473(5)
H28_2 H 0.564701 0.655439 0.369087
C51_3 C 0.4168(6) 0.1421(14) 0.2199(5)
H29_3 H 0.430302 0.118924 0.202526
C52_2 C 0.8411(5) 0.5774(10) 0.6175(4)
H30_2 H 0.851677 0.542470 0.641633
C53_2 C 0.3423(6) 0.5724(15) 0.0025(6)
H31_2 H 0.364713 0.595481 0.022649
C55_3 C 0.8766(7) 0.3793(18) 0.8885(7)
H33_3 H 0.872114 0.434839 0.872867
C56_3 C 0.8373(6) 0.1727(12) 0.5031(5)
H34_3 H 0.858218 0.149106 0.524900
C58_2 C 0.8278(5) 0.5300(12) 0.5819(4)
H35_3 H 0.831466 0.464612 0.580658
N16_3 N 0.7552(4) 0.4324(9) 0.4430(4)
N17_2 N 0.6510(4) 0.6419(9) 0.3558(3)
C59_2 C 0.8072(4) 0.6766(11) 0.5491(4)
H36_2 H 0.795102 0.712875 0.525692
N18_3 N 0.8045(3) 0.4421(9) 0.5062(3)
N19_2 N 0.8834(4) 0.6369(11) 0.7169(4)
C60_3 C 0.9276(4) 0.4178(11) 0.7996(4)
N21_3 N 0.9085(4) 0.4026(10) 0.8268(4)
C61_2 C 0.3820(5) 0.5296(13) 0.4275(6)
H37_2 H 0.380866 0.590542 0.437775
N22_3 N 0.9535(3) 0.2804(9) 0.8549(4)
C62_3 C 0.3613(5) 0.1348(17) 0.2419(6)
H38_3 H 0.336691 0.107931 0.239205
N23_3 N 0.9573(4) 0.3659(10) 0.7974(4)
C63_3 C 0.9092(6) 0.2380(16) 0.9088(6)
H39_3 H 0.927753 0.192289 0.907480
C64_3 C 0.3330(5) 0.4806(13) 0.0025(5)
H40_3 H 0.348778 0.440865 0.023002
C65_3 C 0.7910(5) 0.1503(13) 0.4411(5)
H41_3 H 0.778740 0.109886 0.419197
C66_2 C 0.7023(5) 0.6549(13) 0.4181(5)
H42_2 H 0.717334 0.692802 0.439731
C67_2 C 0.9332(5) 0.5292(15) 0.7497(4)
H43_2 H 0.958127 0.504945 0.751884
C68_3 C 0.8557(7) 0.3640(17) 0.9153(7)
H44_3 H 0.837624 0.409802 0.917651
C69_3 C 0.3291(6) 0.2088(14) 0.0857(5)
H45_3 H 0.330120 0.274979 0.085876
C70_2 C 0.9183(5) 0.6016(13) 0.7243(5)
H46_2 H 0.934618 0.628999 0.710716
H47_3 H 0.992283 0.256304 0.761602
C72_3 C 0.8876(7) 0.2285(14) 0.9349(7)
H48_3 H 0.892462 0.175708 0.952231
N24_3 N 0.8603(4) 0.2884(11) 0.9373(4)
Zn6_2 Zn 0.8592(2) 0.7407(8) 0.6744(4)
I8_2 I 0.91584(9) 0.8385(2) 0.67055(9)
I9_2 I 0.79579(6) 0.79884(19) 0.68372(8)
I10_2 I 0.61235(13) 0.6725(4) 0.24193(12)
Zn9_2 Zn 0.33330(6) 0.47370(16) 0.48034(7)
N25_2 N 0.8203(4) 0.1305(9) 0.9747(4)
C3_3 C 0.2890(5) 0.5939(14) 0.9446(6)
H3_3 H 0.273519 0.634688 0.924395
C4_3 C 0.2046(5) 0.0927(13) 0.9242(5)
H4_3 H 0.217326 0.057332 0.947747
C5_3 C 0.1957(5) 0.2296(12) 0.8845(5)
H5_3 H 0.203434 0.290920 0.880071
N1_2 N 0.3203(4) 0.6305(9) 0.9747(4)
N3_3 N 0.2667(4) 0.1703(10) 0.9828(3)
N12_3 N 0.2595(4) 0.3127(10) 0.9452(4)
C15_3 C 0.2171(4) 0.1800(12) 0.9194(4)
C25_3 C 0.2794(4) 0.5007(12) 0.9427(5)
H14_3 H 0.258487 0.476410 0.921059
C37_3 C 0.1717(5) 0.0546(12) 0.8931(5)
C40_3 C 0.1637(6) 0.1895(14) 0.8566(5)
H22_3 H 0.149173 0.224369 0.833573
C41_3 C 0.3011(4) 0.4442(12) 0.9734(5)
C46_3 C 0.2492(4) 0.2239(10) 0.9516(5)
C57_3 C 0.2894(4) 0.3438(11) 0.9758(4)
Zn8_2 Zn 0.33195(7) 0.77179(17) 0.97930(7)
I1_3 I 0.27262(3) 0.37070(9) 0.45397(3)
Zn1_2 Zn 0.60731(6) 0.54349(17) 0.81594(7)
I2_4 I 0.61903(3) 0.56441(11) 0.74827(4)
I4_4 I 0.26925(4) 0.86538(10) 0.95240(4)
I5_3 I 0.37594(4) 0.44188(12) 0.55199(4)
I6_3 I 0.59639(4) 0.38211(10) 0.84090(5)
C6_4 C 0.4689(4) 0.7979(10) 0.8261(4)
N11_4 N 0.3181(4) 0.6140(9) 0.4726(4)
C10_4 C 0.2974(5) 0.7999(13) 0.4716(5)
C14_4 C 0.2801(5) 0.7374(14) 0.4379(5)
H8_4 H 0.261133 0.759523 0.413977
C17_4 C 0.4229(5) 0.8334(11) 0.8536(5)
C23_4 C 0.4027(5) 0.8182(12) 0.8843(5)
C33_4 C 0.2844(5) 0.8970(11) 0.4730(5)
C35_4 C 0.3273(6) 0.7659(12) 0.5033(5)
H19_4 H 0.340933 0.805483 0.525030
C36_4 C 0.5004(4) 0.7422(13) 0.8233(5)
H23_4 H 0.197636 0.945847 0.377838
C44_4 C 0.4131(4) 0.9937(11) 0.7706(4)
H24_4 H 0.359311 0.998661 0.776747
C47_4 C 0.5391(4) 0.6731(12) 0.7857(5)
H25_4 H 0.544372 0.666457 0.760809
C48_4 C 0.5540(5) 0.6414(14) 0.8534(5)
H26_4 H 0.569381 0.609267 0.876835
C54_4 C 0.5256(4) 0.6965(12) 0.8567(5)
H32_4 H 0.522457 0.704947 0.882521
C55_4 C 0.3766(7) 0.8793(18) 0.8885(7)
H33_4 H 0.372114 0.934839 0.872867
C56_4 C 0.3373(6) 0.6727(12) 0.5031(5)
H34_4 H 0.358218 0.649106 0.524900
H35_4 H 0.331466 0.964612 0.580658
N16_4 N 0.2552(4) 0.9324(9) 0.4430(4)
N18_4 N 0.3045(3) 0.9421(9) 0.5062(3)
C60_4 C 0.4276(4) 0.9178(11) 0.7996(4)
N20_4 N 0.5623(4) 0.6284(10) 0.8178(4)
N21_4 N 0.4085(4) 0.9026(10) 0.8268(4)
N22_4 N 0.4535(3) 0.7804(9) 0.8549(4)
N23_4 N 0.4573(4) 0.8659(10) 0.7974(4)
C63_4 C 0.4092(6) 0.7380(16) 0.9088(6)
H39_4 H 0.427753 0.692289 0.907480
C65_4 C 0.2910(5) 0.6503(13) 0.4411(5)
H41_4 H 0.278740 0.609886 0.419197
C68_4 C 0.3557(7) 0.8640(17) 0.9153(7)
H44_4 H 0.337624 0.909802 0.917651
C71_4 C 0.5082(5) 0.7281(11) 0.7859(4)
H47_4 H 0.492283 0.756304 0.761602
C72_4 C 0.3876(7) 0.7285(14) 0.9349(7)
H48_4 H 0.392462 0.675708 0.952231
N24_4 N 0.3603(4) 0.7884(11) 0.9373(4)
N26_2 N 0.6529(3) 0.6027(10) 0.8614(4)
C3_4 C 0.7890(5) 0.0939(14) 0.9446(6)
H3_4 H 0.773519 0.134688 0.924395
C25_4 C 0.7794(4) 0.0007(12) 0.9427(5)
C4_4 C 0.7046(5) 0.5927(13) 0.9242(5)
H4_4 H 0.717326 0.557332 0.947747
C5_4 C 0.6957(5) 0.7296(12) 0.8845(5)
H5_4 H 0.703434 0.790920 0.880071
N3_4 N 0.7667(4) 0.6703(10) 0.9828(3)
N12_4 N 0.7595(4) 0.8127(10) 0.9452(4)
C15_4 C 0.7171(4) 0.6800(12) 0.9194(4)
H14_4 H 0.758487 0.976410 0.921059
C37_4 C 0.6717(5) 0.5546(12) 0.8931(5)
H20_3 H 0.663588 0.492693 0.895864
C40_4 C 0.6637(6) 0.6895(14) 0.8566(5)
H22_4 H 0.649173 0.724369 0.833573
C41_4 C 0.8011(4) 0.9442(12) 0.9734(5)
C46_4 C 0.7492(4) 0.7239(10) 0.9516(5)
C57_4 C 0.7894(4) 0.8438(11) 0.9758(4)
I6_4 I 0.09639(4) 0.88211(10) 0.84090(5)
I11_2 I 0.8734(4) 0.3017(6) 0.0528(4)
I1_4 I 0.77262(3) 0.87070(9) 0.45397(3)
Zn3_2 Zn 0.83330(6) 0.97370(16) 0.48034(7)
I5_4 I 0.87594(4) 0.94188(12) 0.55199(4)
Zn5_3 Zn 0.35921(7) 0.99707(18) 0.17724(6)
I7_3 I 0.29689(6) 0.93479(14) 0.18709(5)
H6_3 H 0.330551 0.952791 0.089436
I12_3 I 0.41415(19) 0.8918(2) 0.17578(13)
N27_2 N 0.8644(4) 0.9584(11) 0.4398(4)
Zn5_4 Zn 0.85921(7) 0.49707(18) 0.17724(6)
C1_4 C 0.8106(5) 0.5642(13) 0.0515(5)
H1_4 H 0.796980 0.529281 0.028109
C2_4 C 0.8427(6) 0.6619(12) 0.1203(5)
H2_4 H 0.853336 0.695973 0.144696
I7_4 I 0.79689(6) 0.43479(14) 0.18709(5)
N2_4 N 0.8087(4) 0.7952(10) 0.0090(4)
N6_4 N 0.8419(4) 0.5663(9) 0.1222(4)
N7_4 N 0.8818(4) 0.6052(11) 0.2178(4)
N9_4 N 0.9512(4) 0.9662(11) 0.3519(4)
N10_4 N 0.9089(4) 0.8383(10) 0.3293(4)
C8_4 C 0.9102(5) 0.7479(12) 0.2726(4)
N15_4 N 0.9566(3) 0.8735(12) 0.2970(4)
C12_4 C 0.8284(6) 0.5188(14) 0.0887(5)
H6_4 H 0.830551 0.452791 0.089436
C18_4 C 0.9332(6) 0.7129(15) 0.2468(7)
H10_4 H 0.958025 0.738012 0.248803
C20_4 C 0.9263(5) 0.8256(13) 0.3028(5)
H12_4 H 0.997988 0.960396 0.264025
C27_4 C 0.8134(5) 0.6617(12) 0.0494(5)
C28_4 C 0.8670(5) 0.8704(14) 0.4259(5)
H16_4 H 0.856145 0.819774 0.436216
C29_4 C 0.9035(4) 0.9269(12) 0.3842(6)
C31_4 C 0.7957(5) 0.7126(11) 0.0118(5)
C34_4 C 0.8759(6) 0.7042(15) 0.2706(7)
H18_4 H 0.862239 0.721320 0.288709
C38_4 C 0.9221(4) 0.9099(13) 0.3543(5)
C39_4 C 0.8846(6) 0.8535(12) 0.3979(6)
H21_4 H 0.884378 0.792371 0.387286
C43_4 C 0.9666(5) 0.9463(14) 0.3238(5)
C51_4 C 0.9168(6) 0.6421(14) 0.2199(5)
H29_4 H 0.930302 0.618924 0.202526
C62_4 C 0.8613(5) 0.6348(17) 0.2419(6)
H38_4 H 0.836691 0.607931 0.239205
C64_4 C 0.8330(5) 0.9806(13) 0.0025(5)
H40_4 H 0.848778 0.940865 0.023002
C69_4 C 0.8291(6) 0.7088(14) 0.0857(5)
H45_4 H 0.830120 0.774979 0.085876
I12_4 I 0.91415(19) 0.3918(2) 0.17578(13)
H20_4 H 0.163588 0.992693 0.895864
C22_3 C 0.0016(4) 0.0057(10) 0.6808(4)
C26_3 C 0.0977(5) 0.0144(13) 0.6008(6)
H15_3 H 0.085025 0.064761 0.609172
C53_3 C 0.1577(6) 0.0724(15) 0.9975(6)
H31_3 H 0.135287 0.095481 0.977351
C61_3 C 0.1180(5) 0.0296(13) 0.5725(6)
H37_3 H 0.119134 0.090542 0.562225
I3_3 I 0.90762(3) 0.36164(10) 0.66417(4)
Zn4_3 Zn 0.89559(6) 0.20022(16) 0.68865(6)
N8_3 N 0.9405(4) 0.1150(10) 0.6857(4)
C7_3 C 0.7101(4) 0.0316(11) 0.4912(4)
N13_3 N 0.7384(3) 0.0701(9) 0.5190(3)
N14_3 N 0.6598(4) 0.1696(11) 0.3795(4)
C9_3 C 0.7881(4) 0.0609(10) 0.5842(4)
C11_3 C 0.6915(4) 0.0821(11) 0.4530(4)
C13_3 C 0.8280(6) 0.1903(14) 0.6102(6)
H7_3 H 0.835719 0.252359 0.606885
C16_3 C 0.9816(4) 0.0662(13) 0.6482(5)
H9_3 H 0.989268 0.071534 0.624558
C19_3 C 0.6363(6) 0.0991(14) 0.2626(5)
H11_3 H 0.661471 0.123537 0.265917
C21_3 C 0.9898(4) 0.0021(13) 0.7145(5)
C24_3 C 0.9596(5) 0.0606(13) 0.7171(4)
H13_3 H 0.952592 0.061749 0.741214
C30_3 C 0.8375(4) 0.0531(11) 0.6480(4)
H17_3 H 0.850358 0.020160 0.672211
C32_3 C 0.7559(4) 0.0173(12) 0.5528(4)
C42_3 C 0.8086(5) 0.0092(13) 0.6191(5)
C45_3 C 0.6240(5) 0.0261(15) 0.2363(6)
C49_3 C 0.6759(5) 0.2188(10) 0.4132(5)
H27_3 H 0.675770 0.284913 0.411588
C50_3 C 0.9501(6) 0.1176(15) 0.6527(5)
H28_3 H 0.935299 0.155439 0.630913
C52_3 C 0.6589(5) 0.0774(10) 0.3825(4)
H30_3 H 0.648323 0.042470 0.358367
C58_3 C 0.6722(5) 0.0300(12) 0.4181(4)
N17_3 N 0.8490(4) 0.1419(9) 0.6442(3)
C59_3 C 0.6928(4) 0.1766(11) 0.4509(4)
H36_3 H 0.704898 0.212875 0.474308
N19_3 N 0.6166(4) 0.1369(11) 0.2831(4)
C66_3 C 0.7977(5) 0.1549(13) 0.5819(5)
H42_3 H 0.782666 0.192802 0.560269
C67_3 C 0.5668(5) 0.0292(15) 0.2503(4)
H43_3 H 0.541873 0.004945 0.248116
C70_3 C 0.5817(5) 0.1016(13) 0.2757(5)
H46_3 H 0.565382 0.128999 0.289284
Zn6_3 Zn 0.6408(2) 0.2407(8) 0.3256(4)
I8_3 I 0.58416(9) 0.3385(2) 0.32945(9)
I9_3 I 0.70421(6) 0.29884(19) 0.31628(8)
I10_3 I 0.88765(13) 0.1725(4) 0.75807(12)
I11_3 I 0.6266(4) 0.8017(6) 0.9472(4)
I3_4 I 0.09238(3) 0.36164(10) 0.33583(4)
Zn4_4 Zn 0.10441(6) 0.20022(16) 0.31135(6)
N8_4 N 0.0595(4) 0.1150(10) 0.3143(4)
C7_4 C 0.2899(4) 0.0316(11) 0.5088(4)
N13_4 N 0.2616(3) 0.0701(9) 0.4810(3)
N14_4 N 0.3402(4) 0.1696(11) 0.6205(4)
C9_4 C 0.2119(4) 0.0609(10) 0.4158(4)
C11_4 C 0.3085(4) 0.0821(11) 0.5470(4)
C13_4 C 0.1720(6) 0.1903(14) 0.3898(6)
H7_4 H 0.164281 0.252359 0.393115
C16_4 C 0.0184(4) 0.0662(13) 0.3518(5)
H9_4 H 0.010732 0.071534 0.375442
C19_4 C 0.3637(6) 0.0991(14) 0.7374(5)
H11_4 H 0.338529 0.123537 0.734083
C21_4 C 0.0102(4) 0.0021(13) 0.2855(5)
C24_4 C 0.0404(5) 0.0606(13) 0.2829(4)
H13_4 H 0.047408 0.061749 0.258786
C30_4 C 0.1625(4) 0.0531(11) 0.3520(4)
H17_4 H 0.149642 0.020160 0.327789
C32_4 C 0.2441(4) 0.0173(12) 0.4472(4)
C42_4 C 0.1914(5) 0.0092(13) 0.3809(5)
C45_4 C 0.3760(5) 0.0261(15) 0.7637(6)
C49_4 C 0.3241(5) 0.2188(10) 0.5868(5)
H27_4 H 0.324230 0.284913 0.588412
C50_4 C 0.0499(6) 0.1176(15) 0.3473(5)
H28_4 H 0.064701 0.155439 0.369087
C52_4 C 0.3411(5) 0.0774(10) 0.6175(4)
H30_4 H 0.351677 0.042470 0.641633
C58_4 C 0.3278(5) 0.0300(12) 0.5819(4)
N17_4 N 0.1510(4) 0.1419(9) 0.3558(3)
C59_4 C 0.3072(4) 0.1766(11) 0.5491(4)
H36_4 H 0.295102 0.212875 0.525692
N19_4 N 0.3834(4) 0.1369(11) 0.7169(4)
C66_4 C 0.2023(5) 0.1549(13) 0.4181(5)
H42_4 H 0.217334 0.192802 0.439731
C67_4 C 0.4332(5) 0.0292(15) 0.7497(4)
H43_4 H 0.458127 0.004945 0.751884
C70_4 C 0.4183(5) 0.1016(13) 0.7243(5)
H46_4 H 0.434618 0.128999 0.710716
Zn6_4 Zn 0.3592(2) 0.2407(8) 0.6744(4)
I8_4 I 0.41584(9) 0.3385(2) 0.67055(9)
I9_4 I 0.29579(6) 0.29884(19) 0.68372(8)
I10_4 I 0.11235(13) 0.1725(4) 0.24193(12)
I11_4 I 0.3734(4) 0.8017(6) 0.0528(4)
C22_4 C 0.9984(4) 0.0057(10) 0.3192(4)
C26_4 C 0.9023(5) 0.0144(13) 0.3992(6)
H15_4 H 0.914975 0.064761 0.390828
C53_4 C 0.8423(6) 0.0724(15) 0.0025(6)
H31_4 H 0.864713 0.095481 0.022649
C61_4 C 0.8820(5) 0.0296(13) 0.4275(6)
H37_4 H 0.880866 0.090542 0.437775
loop_
_geom_bond_atom_site_label_1
_geom_bond_atom_site_label_2
_geom_bond_site_symmetry_1
_geom_bond_site_symmetry_2
C3 H3 1_555 1_555
C4 H4 1_555 1_555
C5 H5 1_555 1_555
N1 C3 1_555 1_555
N4 C37 1_555 1_555
N12 C46 1_555 1_555
C15 C4 1_555 1_555
C25 C3 1_555 1_555
H14 C25 1_555 1_555
C37 C4 1_555 1_555
C40 C5 1_555 1_555
H22 C40 1_555 1_555
C41 C25 1_555 1_555
C46 N3 1_555 1_555
Zn7 N4 1_555 1_555
Zn8 N1 1_555 1_555
C5 C15 1_555 1_555
N4 C40 1_555 1_555
N12 C57 1_555 1_555
C15 C46 1_555 1_555
C41 C57 1_555 1_555
Zn2 I4 1_555 1_555
I3 Zn4 1_555 1_555
Zn4 N8 1_555 1_555
C1 H1 1_555 1_555
C2 H2 1_555 1_555
N2 C31 1_555 1_555
N5 C28 1_555 1_555
N8 C24 1_555 1_555
N9 C38 1_555 1_555
N10 C20 1_555 1_555
C7 N13 1_555 1_555
C8 C18 1_555 1_555
N13 C32 1_555 1_555
N14 C49 1_555 1_555
N15 C20 1_555 1_555
C9 C32 1_555 1_555
C10 C14 1_555 1_555
C11 C7 1_555 1_555
C12 C1 1_555 1_555
C13 H7 1_555 1_555
C14 H8 1_555 1_555
C16 H9 1_555 1_555
C17 C23 1_555 1_555
C18 H10 1_555 1_555
C19 H11 1_555 1_555
C20 C8 1_555 1_555
C21 H12 1_555 1_555
C22 C16 1_555 1_555
C23 C55 1_555 1_555
C24 C21 1_555 1_555
H13 C24 1_555 1_555
C26 H15 1_555 1_555
C27 C1 1_555 1_555
C28 H16 1_555 1_555
C29 C26 1_555 1_555
C30 H17 1_555 1_555
C31 C27 1_555 1_555
C32 N16 1_555 1_555
C33 C10 1_555 1_555
C34 C8 1_555 1_555
H18 C34 1_555 1_555
C35 C10 1_555 1_555
H19 C35 1_555 1_555
C38 N10 1_555 1_555
C39 C28 1_555 1_555
H21 C39 1_555 1_555
C42 C9 1_555 1_555
H23 C42 1_555 1_555
C43 N9 1_555 1_555
C44 C45 1_555 1_555
C45 C19 1_555 1_555
H24 C45 1_555 1_555
C49 H27 1_555 1_555
C50 N8 1_555 1_555
H28 C50 1_555 1_555
C51 N7 1_555 1_555
H29 C51 1_555 1_555
C52 N14 1_555 1_555
H30 C52 1_555 1_555
H31 C53 1_555 1_555
C55 H33 1_555 1_555
C56 N11 1_555 1_555
H34 C56 1_555 1_555
C58 C11 1_555 1_555
H35 C58 1_555 1_555
N16 C33 1_555 1_555
N17 Zn4 1_555 1_555
C59 C11 1_555 1_555
H36 C59 1_555 1_555
N18 C7 1_555 1_555
N19 C19 1_555 1_555
C60 C44 1_555 1_555
N21 C17 1_555 1_555
C61 N5 1_555 1_555
H37 C61 1_555 1_555
N22 C6 1_555 1_555
C62 N7 1_555 1_555
H38 C62 1_555 1_555
N23 C6 1_555 1_555
C63 C23 1_555 1_555
H39 C63 1_555 1_555
H40 C64 1_555 1_555
C65 N11 1_555 1_555
H41 C65 1_555 1_555
C66 C9 1_555 1_555
H42 C66 1_555 1_555
C67 C44 1_555 1_555
H43 C67 1_555 1_555
C68 C55 1_555 1_555
H44 C68 1_555 1_555
C69 C2 1_555 1_555
H45 C69 1_555 1_555
C70 N19 1_555 1_555
H46 C70 1_555 1_555
C72 C63 1_555 1_555
H48 C72 1_555 1_555
N24 Zn2 1_555 1_555
Zn6 N14 1_555 1_555
I8 Zn6 1_555 1_555
I9 Zn6 1_555 1_555
I10 Zn4 1_555 1_555
Zn9 N5 1_555 1_555
N25 Zn2 1_555 1_555
C2 N6 1_555 1_555
N6 C12 1_555 1_555
N15 C43 1_555 1_555
C13 N17 1_555 1_555
C13 C66 1_555 1_555
C14 C65 1_555 1_555
C16 C50 1_555 1_555
C17 N22 1_555 1_555
C18 C51 1_555 1_555
C21 C22 1_555 1_555
C22 C43 1_555 1_555
C26 C61 1_555 1_555
C27 C69 1_555 1_555
C29 C38 1_555 1_555
C29 C39 1_555 1_555
C30 C42 1_555 1_555
C30 N17 1_555 1_555
C33 N18 1_555 1_555
C34 C62 1_555 1_555
C35 C56 1_555 1_555
C49 C59 1_555 1_555
C52 C58 1_555 1_555
C53 C64 1_555 1_555
N19 Zn6 1_555 1_555
C60 N21 1_555 1_555
C60 N23 1_555 1_555
C67 C70 1_555 1_555
C68 N24 1_555 1_555
C72 N24 1_555 1_555
Zn7 I2 1_555 1_555
C36 C54 1_555 1_555
C47 H25 1_555 1_555
C48 H26 1_555 1_555
C54 C48 1_555 1_555
H32 C54 1_555 1_555
N20 Zn7 1_555 1_555
C71 C36 1_555 1_555
C47 N20 1_555 1_555
C47 C71 1_555 1_555
C48 N20 1_555 1_555
C3_2 H3_2 1_555 1_555
N25 C3_2 1_555 1_555
C25_2 C3_2 1_555 1_555
C4_2 H4_2 1_555 1_555
C5_2 H5_2 1_555 1_555
N4_2 C37_2 1_555 1_555
N12_2 C46_2 1_555 1_555
C15_2 C4_2 1_555 1_555
C37_2 C4_2 1_555 1_555
H20 C37_2 1_555 1_555
C40_2 C5_2 1_555 1_555
H22_2 C40_2 1_555 1_555
C46_2 N3_2 1_555 1_555
Zn7_2 N4_2 1_555 1_555
C5_2 C15_2 1_555 1_555
N4_2 C40_2 1_555 1_555
N12_2 C57_2 1_555 1_555
C15_2 C46_2 1_555 1_555
C41_2 C57_2 1_555 1_555
I1 Zn9 1_555 1_555
Zn7_2 I2_2 1_555 1_555
Zn8 I4_2 1_555 1_555
Zn9 I5 1_555 1_555
I6 Zn7_2 1_555 1_555
C6_2 C36_2 1_555 1_555
N11_2 Zn9 1_555 1_555
C10_2 C14_2 1_555 1_555
C14_2 H8_2 1_555 1_555
C17_2 C23_2 1_555 1_555
C23_2 C55_2 1_555 1_555
C33_2 C10_2 1_555 1_555
C35_2 C10_2 1_555 1_555
H19_2 C35_2 1_555 1_555
C36_2 C54_2 1_555 1_555
C47_2 H25_2 1_555 1_555
C48_2 H26_2 1_555 1_555
C54_2 C48_2 1_555 1_555
H32_2 C54_2 1_555 1_555
C55_2 H33_2 1_555 1_555
C56_2 N11_2 1_555 1_555
H34_2 C56_2 1_555 1_555
N16_2 C33_2 1_555 1_555
C60_2 C44_2 1_555 1_555
N20_2 Zn7_2 1_555 1_555
N21_2 C17_2 1_555 1_555
N22_2 C6_2 1_555 1_555
N23_2 C6_2 1_555 1_555
C63_2 C23_2 1_555 1_555
H39_2 C63_2 1_555 1_555
C65_2 N11_2 1_555 1_555
H41_2 C65_2 1_555 1_555
C68_2 C55_2 1_555 1_555
H44_2 C68_2 1_555 1_555
C71_2 C36_2 1_555 1_555
H47_2 C71_2 1_555 1_555
C72_2 C63_2 1_555 1_555
H48_2 C72_2 1_555 1_555
N24_2 Zn8 1_555 1_555
C14_2 C65_2 1_555 1_555
C17_2 N22_2 1_555 1_555
C33_2 N18_2 1_555 1_555
C35_2 C56_2 1_555 1_555
C47_2 N20_2 1_555 1_555
C47_2 C71_2 1_555 1_555
C48_2 N20_2 1_555 1_555
C60_2 N21_2 1_555 1_555
C60_2 N23_2 1_555 1_555
C68_2 N24_2 1_555 1_555
C72_2 N24_2 1_555 1_555
I1_2 Zn3 1_555 1_555
Zn3 I5_2 1_555 1_555
Zn5 I7 1_555 1_555
I12 Zn5 1_555 1_555
N27 Zn3 1_555 1_555
Zn5_2 I7_2 1_555 1_555
C1_2 H1_2 1_555 1_555
C2_2 H2_2 1_555 1_555
N2_2 C31_2 1_555 1_555
N27 C28_2 1_555 1_555
N6_2 Zn5_2 1_555 1_555
N7_2 Zn5_2 1_555 1_555
N9_2 C38_2 1_555 1_555
N10_2 C20_2 1_555 1_555
C8_2 C18_2 1_555 1_555
N15_2 C20_2 1_555 1_555
C12_2 C1_2 1_555 1_555
H6_2 C12_2 1_555 1_555
C18_2 H10_2 1_555 1_555
C20_2 C8_2 1_555 1_555
C27_2 C1_2 1_555 1_555
C28_2 H16_2 1_555 1_555
C31_2 C27_2 1_555 1_555
C34_2 C8_2 1_555 1_555
H18_2 C34_2 1_555 1_555
C38_2 N10_2 1_555 1_555
C39_2 C28_2 1_555 1_555
H21_2 C39_2 1_555 1_555
C43_2 N9_2 1_555 1_555
C51_2 N7_2 1_555 1_555
H29_2 C51_2 1_555 1_555
C62_2 N7_2 1_555 1_555
H38_2 C62_2 1_555 1_555
H40_2 C64_2 1_555 1_555
C69_2 C2_2 1_555 1_555
H45_2 C69_2 1_555 1_555
I12_2 Zn5_2 1_555 1_555
C2_2 N6_2 1_555 1_555
N6_2 C12_2 1_555 1_555
N15_2 C43_2 1_555 1_555
C18_2 C51_2 1_555 1_555
C27_2 C69_2 1_555 1_555
C29_2 C38_2 1_555 1_555
C29_2 C39_2 1_555 1_555
C34_2 C62_2 1_555 1_555
Zn1 I2_3 1_555 1_555
C36_3 C54_3 1_555 1_555
C47_3 H25_3 1_555 1_555
C48_3 H26_3 1_555 1_555
C54_3 C48_3 1_555 1_555
H32_3 C54_3 1_555 1_555
N20_3 Zn1 1_555 1_555
C71_3 C36_3 1_555 1_555
N26 Zn1 1_555 1_555
C47_3 N20_3 1_555 1_555
C47_3 C71_3 1_555 1_555
C48_3 N20_3 1_555 1_555
Zn2_2 I4_3 1_555 1_555
I3_2 Zn4_2 1_555 1_555
Zn4_2 N8_2 1_555 1_555
C1_3 H1_3 1_555 1_555
C2_3 H2_3 1_555 1_555
N2_3 C31_3 1_555 1_555
N5_2 C28_3 1_555 1_555
N8_2 C24_2 1_555 1_555
N9_3 C38_3 1_555 1_555
N10_3 C20_3 1_555 1_555
C7_2 N13_2 1_555 1_555
C8_3 C18_3 1_555 1_555
N13_2 C32_2 1_555 1_555
N14_2 C49_2 1_555 1_555
N15_3 C20_3 1_555 1_555
C9_2 C32_2 1_555 1_555
C10_3 C14_3 1_555 1_555
C11_2 C7_2 1_555 1_555
C12_3 C1_3 1_555 1_555
C13_2 H7_2 1_555 1_555
C14_3 H8_3 1_555 1_555
C16_2 H9_2 1_555 1_555
C17_3 C23_3 1_555 1_555
C18_3 H10_3 1_555 1_555
C19_2 H11_2 1_555 1_555
C20_3 C8_3 1_555 1_555
C21_2 H12_3 1_555 1_555
C22_2 C16_2 1_555 1_555
C23_3 C55_3 1_555 1_555
C24_2 C21_2 1_555 1_555
H13_2 C24_2 1_555 1_555
C26_2 H15_2 1_555 1_555
C27_3 C1_3 1_555 1_555
C28_3 H16_3 1_555 1_555
C29_3 C26_2 1_555 1_555
C30_2 H17_2 1_555 1_555
C31_3 C27_3 1_555 1_555
C32_2 N16_3 1_555 1_555
C33_3 C10_3 1_555 1_555
C34_3 C8_3 1_555 1_555
H18_3 C34_3 1_555 1_555
C35_3 C10_3 1_555 1_555
H19_3 C35_3 1_555 1_555
C38_3 N10_3 1_555 1_555
C39_3 C28_3 1_555 1_555
H21_3 C39_3 1_555 1_555
C42_2 C9_2 1_555 1_555
H23_3 C42_2 1_555 1_555
C43_3 N9_3 1_555 1_555
C44_3 C45_2 1_555 1_555
C45_2 C19_2 1_555 1_555
H24_3 C45_2 1_555 1_555
C49_2 H27_2 1_555 1_555
C50_2 N8_2 1_555 1_555
H28_2 C50_2 1_555 1_555
C51_3 N7_3 1_555 1_555
H29_3 C51_3 1_555 1_555
C52_2 N14_2 1_555 1_555
H30_2 C52_2 1_555 1_555
H31_2 C53_2 1_555 1_555
C55_3 H33_3 1_555 1_555
C56_3 N11_3 1_555 1_555
H34_3 C56_3 1_555 1_555
C58_2 C11_2 1_555 1_555
H35_3 C58_2 1_555 1_555
N16_3 C33_3 1_555 1_555
N17_2 Zn4_2 1_555 1_555
C59_2 C11_2 1_555 1_555
H36_2 C59_2 1_555 1_555
N18_3 C7_2 1_555 1_555
N19_2 C19_2 1_555 1_555
C60_3 C44_3 1_555 1_555
N21_3 C17_3 1_555 1_555
C61_2 N5_2 1_555 1_555
H37_2 C61_2 1_555 1_555
N22_3 C6_3 1_555 1_555
C62_3 N7_3 1_555 1_555
H38_3 C62_3 1_555 1_555
N23_3 C6_3 1_555 1_555
C63_3 C23_3 1_555 1_555
H39_3 C63_3 1_555 1_555
H40_3 C64_3 1_555 1_555
C65_3 N11_3 1_555 1_555
H41_3 C65_3 1_555 1_555
C66_2 C9_2 1_555 1_555
H42_2 C66_2 1_555 1_555
C67_2 C44_3 1_555 1_555
H43_2 C67_2 1_555 1_555
C68_3 C55_3 1_555 1_555
H44_3 C68_3 1_555 1_555
C69_3 C2_3 1_555 1_555
H45_3 C69_3 1_555 1_555
C70_2 N19_2 1_555 1_555
H46_2 C70_2 1_555 1_555
C72_3 C63_3 1_555 1_555
H48_3 C72_3 1_555 1_555
N24_3 Zn2_2 1_555 1_555
Zn6_2 N14_2 1_555 1_555
I8_2 Zn6_2 1_555 1_555
I9_2 Zn6_2 1_555 1_555
I10_2 Zn4_2 1_555 1_555
Zn9_2 N5_2 1_555 1_555
N25_2 Zn2_2 1_555 1_555
C2_3 N6_3 1_555 1_555
N6_3 C12_3 1_555 1_555
N15_3 C43_3 1_555 1_555
C13_2 N17_2 1_555 1_555
C13_2 C66_2 1_555 1_555
C14_3 C65_3 1_555 1_555
C16_2 C50_2 1_555 1_555
C17_3 N22_3 1_555 1_555
C18_3 C51_3 1_555 1_555
C21_2 C22_2 1_555 1_555
C22_2 C43_3 1_555 1_555
C26_2 C61_2 1_555 1_555
C27_3 C69_3 1_555 1_555
C29_3 C38_3 1_555 1_555
C29_3 C39_3 1_555 1_555
C30_2 C42_2 1_555 1_555
C30_2 N17_2 1_555 1_555
C33_3 N18_3 1_555 1_555
C34_3 C62_3 1_555 1_555
C35_3 C56_3 1_555 1_555
C49_2 C59_2 1_555 1_555
C52_2 C58_2 1_555 1_555
C53_2 C64_3 1_555 1_555
N19_2 Zn6_2 1_555 1_555
C60_3 N21_3 1_555 1_555
C60_3 N23_3 1_555 1_555
C67_2 C70_2 1_555 1_555
C68_3 N24_3 1_555 1_555
C72_3 N24_3 1_555 1_555
C3_3 H3_3 1_555 1_555
C4_3 H4_3 1_555 1_555
C5_3 H5_3 1_555 1_555
N1_2 C3_3 1_555 1_555
N26 C37_3 1_555 1_555
N12_3 C46_3 1_555 1_555
C15_3 C4_3 1_555 1_555
C25_3 C3_3 1_555 1_555
H14_3 C25_3 1_555 1_555
C37_3 C4_3 1_555 1_555
C40_3 C5_3 1_555 1_555
H22_3 C40_3 1_555 1_555
C41_3 C25_3 1_555 1_555
C46_3 N3_3 1_555 1_555
Zn8_2 N1_2 1_555 1_555
C5_3 C15_3 1_555 1_555
N26 C40_3 1_555 1_555
N12_3 C57_3 1_555 1_555
C15_3 C46_3 1_555 1_555
C41_3 C57_3 1_555 1_555
I1_3 Zn9_2 1_555 1_555
Zn1_2 I2_4 1_555 1_555
Zn8_2 I4_4 1_555 1_555
Zn9_2 I5_3 1_555 1_555
I6_3 Zn1_2 1_555 1_555
C6_4 C36_4 1_555 1_555
N11_4 Zn9_2 1_555 1_555
C10_4 C14_4 1_555 1_555
C14_4 H8_4 1_555 1_555
C17_4 C23_4 1_555 1_555
C23_4 C55_4 1_555 1_555
C33_4 C10_4 1_555 1_555
C35_4 C10_4 1_555 1_555
H19_4 C35_4 1_555 1_555
C36_4 C54_4 1_555 1_555
C47_4 H25_4 1_555 1_555
C48_4 H26_4 1_555 1_555
C54_4 C48_4 1_555 1_555
H32_4 C54_4 1_555 1_555
C55_4 H33_4 1_555 1_555
C56_4 N11_4 1_555 1_555
H34_4 C56_4 1_555 1_555
N16_4 C33_4 1_555 1_555
C60_4 C44_4 1_555 1_555
N20_4 Zn1_2 1_555 1_555
N21_4 C17_4 1_555 1_555
N22_4 C6_4 1_555 1_555
N23_4 C6_4 1_555 1_555
C63_4 C23_4 1_555 1_555
H39_4 C63_4 1_555 1_555
C65_4 N11_4 1_555 1_555
H41_4 C65_4 1_555 1_555
C68_4 C55_4 1_555 1_555
H44_4 C68_4 1_555 1_555
C71_4 C36_4 1_555 1_555
H47_4 C71_4 1_555 1_555
C72_4 C63_4 1_555 1_555
H48_4 C72_4 1_555 1_555
N24_4 Zn8_2 1_555 1_555
N26_2 Zn1_2 1_555 1_555
C14_4 C65_4 1_555 1_555
C17_4 N22_4 1_555 1_555
C33_4 N18_4 1_555 1_555
C35_4 C56_4 1_555 1_555
C47_4 N20_4 1_555 1_555
C47_4 C71_4 1_555 1_555
C48_4 N20_4 1_555 1_555
C60_4 N21_4 1_555 1_555
C60_4 N23_4 1_555 1_555
C68_4 N24_4 1_555 1_555
C72_4 N24_4 1_555 1_555
C3_4 H3_4 1_555 1_555
N25_2 C3_4 1_555 1_555
C25_4 C3_4 1_555 1_555
C4_4 H4_4 1_555 1_555
C5_4 H5_4 1_555 1_555
N26_2 C37_4 1_555 1_555
N12_4 C46_4 1_555 1_555
C15_4 C4_4 1_555 1_555
C37_4 C4_4 1_555 1_555
H20_3 C37_4 1_555 1_555
C40_4 C5_4 1_555 1_555
H22_4 C40_4 1_555 1_555
C46_4 N3_4 1_555 1_555
C5_4 C15_4 1_555 1_555
N26_2 C40_4 1_555 1_555
N12_4 C57_4 1_555 1_555
C15_4 C46_4 1_555 1_555
C41_4 C57_4 1_555 1_555
I1_4 Zn3_2 1_555 1_555
Zn3_2 I5_4 1_555 1_555
Zn5_3 I7_3 1_555 1_555
I12_3 Zn5_3 1_555 1_555
N27_2 Zn3_2 1_555 1_555
Zn5_4 I7_4 1_555 1_555
C1_4 H1_4 1_555 1_555
C2_4 H2_4 1_555 1_555
N2_4 C31_4 1_555 1_555
N27_2 C28_4 1_555 1_555
N6_4 Zn5_4 1_555 1_555
N7_4 Zn5_4 1_555 1_555
N9_4 C38_4 1_555 1_555
N10_4 C20_4 1_555 1_555
C8_4 C18_4 1_555 1_555
N15_4 C20_4 1_555 1_555
C12_4 C1_4 1_555 1_555
H6_4 C12_4 1_555 1_555
C18_4 H10_4 1_555 1_555
C20_4 C8_4 1_555 1_555
C27_4 C1_4 1_555 1_555
C28_4 H16_4 1_555 1_555
C31_4 C27_4 1_555 1_555
C34_4 C8_4 1_555 1_555
H18_4 C34_4 1_555 1_555
C38_4 N10_4 1_555 1_555
C39_4 C28_4 1_555 1_555
H21_4 C39_4 1_555 1_555
C43_4 N9_4 1_555 1_555
C51_4 N7_4 1_555 1_555
H29_4 C51_4 1_555 1_555
C62_4 N7_4 1_555 1_555
H38_4 C62_4 1_555 1_555
H40_4 C64_4 1_555 1_555
C69_4 C2_4 1_555 1_555
H45_4 C69_4 1_555 1_555
I12_4 Zn5_4 1_555 1_555
C2_4 N6_4 1_555 1_555
N6_4 C12_4 1_555 1_555
N15_4 C43_4 1_555 1_555
C18_4 C51_4 1_555 1_555
C27_4 C69_4 1_555 1_555
C29_4 C38_4 1_555 1_555
C29_4 C39_4 1_555 1_555
C34_4 C62_4 1_555 1_555
C26_3 H15_3 1_555 1_555
H31_3 C53_3 1_555 1_555
H37_3 C61_3 1_555 1_555
C26_3 C61_3 1_555 1_555
I3_3 Zn4_3 1_555 1_555
Zn4_3 N8_3 1_555 1_555
N8_3 C24_3 1_555 1_555
C7_3 N13_3 1_555 1_555
N13_3 C32_3 1_555 1_555
N14_3 C49_3 1_555 1_555
C9_3 C32_3 1_555 1_555
C11_3 C7_3 1_555 1_555
C13_3 H7_3 1_555 1_555
C16_3 H9_3 1_555 1_555
C19_3 H11_3 1_555 1_555
C24_3 C21_3 1_555 1_555
H13_3 C24_3 1_555 1_555
C30_3 H17_3 1_555 1_555
C42_3 C9_3 1_555 1_555
C45_3 C19_3 1_555 1_555
C49_3 H27_3 1_555 1_555
C50_3 N8_3 1_555 1_555
H28_3 C50_3 1_555 1_555
C52_3 N14_3 1_555 1_555
H30_3 C52_3 1_555 1_555
C58_3 C11_3 1_555 1_555
N17_3 Zn4_3 1_555 1_555
C59_3 C11_3 1_555 1_555
H36_3 C59_3 1_555 1_555
N19_3 C19_3 1_555 1_555
C66_3 C9_3 1_555 1_555
H42_3 C66_3 1_555 1_555
H43_3 C67_3 1_555 1_555
C70_3 N19_3 1_555 1_555
H46_3 C70_3 1_555 1_555
Zn6_3 N14_3 1_555 1_555
I8_3 Zn6_3 1_555 1_555
I9_3 Zn6_3 1_555 1_555
I10_3 Zn4_3 1_555 1_555
C13_3 N17_3 1_555 1_555
C13_3 C66_3 1_555 1_555
C16_3 C50_3 1_555 1_555
C30_3 C42_3 1_555 1_555
C30_3 N17_3 1_555 1_555
C49_3 C59_3 1_555 1_555
C52_3 C58_3 1_555 1_555
N19_3 Zn6_3 1_555 1_555
C67_3 C70_3 1_555 1_555
I3_4 Zn4_4 1_555 1_555
Zn4_4 N8_4 1_555 1_555
N8_4 C24_4 1_555 1_555
C7_4 N13_4 1_555 1_555
N13_4 C32_4 1_555 1_555
N14_4 C49_4 1_555 1_555
C9_4 C32_4 1_555 1_555
C11_4 C7_4 1_555 1_555
C13_4 H7_4 1_555 1_555
C16_4 H9_4 1_555 1_555
C19_4 H11_4 1_555 1_555
C24_4 C21_4 1_555 1_555
H13_4 C24_4 1_555 1_555
C30_4 H17_4 1_555 1_555
C42_4 C9_4 1_555 1_555
C45_4 C19_4 1_555 1_555
C49_4 H27_4 1_555 1_555
C50_4 N8_4 1_555 1_555
H28_4 C50_4 1_555 1_555
C52_4 N14_4 1_555 1_555
H30_4 C52_4 1_555 1_555
C58_4 C11_4 1_555 1_555
N17_4 Zn4_4 1_555 1_555
C59_4 C11_4 1_555 1_555
H36_4 C59_4 1_555 1_555
N19_4 C19_4 1_555 1_555
C66_4 C9_4 1_555 1_555
H42_4 C66_4 1_555 1_555
H43_4 C67_4 1_555 1_555
C70_4 N19_4 1_555 1_555
H46_4 C70_4 1_555 1_555
Zn6_4 N14_4 1_555 1_555
I8_4 Zn6_4 1_555 1_555
I9_4 Zn6_4 1_555 1_555
I10_4 Zn4_4 1_555 1_555
C13_4 N17_4 1_555 1_555
C13_4 C66_4 1_555 1_555
C16_4 C50_4 1_555 1_555
C30_4 C42_4 1_555 1_555
C30_4 N17_4 1_555 1_555
C49_4 C59_4 1_555 1_555
C52_4 C58_4 1_555 1_555
N19_4 Zn6_4 1_555 1_555
C67_4 C70_4 1_555 1_555
C26_4 H15_4 1_555 1_555
H31_4 C53_4 1_555 1_555
H37_4 C61_4 1_555 1_555
C26_4 C61_4 1_555 1_555

#END
