
###############################################################################
#
# This file contains modified crystal structure data generated from the
# MOF subset of the Cambridge Structural Database (CSD) v543 
# hosted by the Cambridge Crystallographic Data Centre (CCDC).
#
# This work is licensed under the Creative Commons
# Attribution-NonCommercial-ShareAlike 4.0 International License.
# To view a copy of this license, visit
# http://creativecommons.org/licenses/by-nc-sa/4.0/
# or send a letter to
# Creative Commons, PO Box 1866, Mountain View, CA 94042, USA.
#
# CIF created using the CSD Python API on 29 September 2022
# The structure has been converted into the P1 space group
# The structure has a 3D framework
# The original CSD entry XUCNOZ is in the monoclinic crystal system
# The framework has been calculated to contain at least 10.0% void space
# The void calculation uses a probe of radius 1.32A, grid spacing 0.4
# H atom positions have been added when not included in the experimental data
# Generated hydrogen atom positions removed from atoms on special positions
#
###############################################################################

data_XUCNOZ
_chemical_formula_moiety         '(C144 H288 Cd8 N24 O144 P24 Zn30)n'
_symmetry_cell_setting           triclinic
_symmetry_space_group_name_H-M   'P 1'
_symmetry_Int_Tables_number      1
_space_group_name_Hall           'P 1'
loop_
_symmetry_equiv_pos_site_id
_symmetry_equiv_pos_as_xyz
1 x,y,z
_cell_length_a                   21.982(4)
_cell_length_b                   15.977(3)
_cell_length_c                   25.818(5)
_cell_angle_alpha                90
_cell_angle_beta                 109.50(3)
_cell_angle_gamma                90
_cell_volume                     8547.35
loop_
_atom_site_label
_atom_site_type_symbol
_atom_site_fract_x
_atom_site_fract_y
_atom_site_fract_z
C31 C 0.0570(3) 0.1796(4) 0.0763(3)
C32 C 0.0373(3) 0.2233(4) 0.0201(3)
C33 C 0.0759(3) 0.3068(4) 0.0220(3)
H47 H 0.1082 0.2998 0.0043
H48 H 0.0969 0.3253 0.0595
H50 H 0.0360 0.4250 0.0023
Cd6 Cd 0.15568(2) 0.10512(3) 0.18309(2)
O33 O 0.1173(2) 0.1686(3) 0.0989(2)
O36 O 0.0144(2) 0.1575(3) 0.09538(18)
H19 H 0.4550 0.3147 0.0068
C16 C 0.4760(3) 0.1321(4) 0.0095(3)
H22 H 0.4841 0.1361 0.0487
H25 H 0.5735 0.1369 0.0217
C18 C 0.5669(3) 0.2823(4) 0.0560(3)
H26 H 0.5539 0.2479 0.0814
H27 H 0.5551 0.3398 0.0603
O12 O 0.7199(2) 0.4790(2) 0.01509(17)
O15 O 0.6817(2) 0.3567(3) 0.10301(17)
O16 O 0.6791(2) 0.1988(3) 0.10809(18)
O17 O 0.6632(2) 0.2697(3) 0.01550(16)
P3 P 0.65408(8) 0.27507(10) 0.07221(7)
Zn4 Zn 0.7500 0.2500 -0.0000
C19 C 0.8753(4) 0.6058(4) 0.1512(3)
H28 H 0.8533 0.6586 0.1509
H29 H 0.9201 0.6116 0.1742
C20 C 0.8701(4) 0.5799(4) 0.0928(3)
H30 H 0.9026 0.6074 0.0809
H31 H 0.8276 0.5918 0.0667
C21 C 0.8824(3) 0.4857(4) 0.1002(3)
H32 H 0.9279 0.4741 0.1181
H33 H 0.8675 0.4569 0.0651
C22 C 0.8704(3) 0.3836(4) 0.1675(2)
H34 H 0.9166 0.3899 0.1849
H35 H 0.8515 0.3759 0.1962
C23 C 0.8426(3) 0.5350(4) 0.1718(3)
H36 H 0.8665 0.5227 0.2105
C24 C 0.7734(3) 0.5582(4) 0.1645(3)
C25 C 0.7818(3) 0.0231(4) 0.2129(3)
H41 H 0.6318 0.0523 0.1163
H42 H 0.6710 0.0381 0.0425
C35 C 0.9658(3) 0.3409(4) 0.0046(3)
H51 H 0.9689 0.3594 0.0411
Cd2 Cd 0.65568(2) 0.60512(3) 0.18309(2)
Cd5 Cd 0.84432(2) 0.10512(3) 0.31691(2)
N4 N 0.8437(3) 0.4598(3) 0.1361(2)
N5 N 0.9672(3) 0.2461(3) 0.0015(2)
N6 N 0.7483(3) 0.0126(3) 0.1117(2)
O19 O 0.9134(2) 0.2730(3) 0.10714(18)
O20 O 0.7962(2) 0.3177(2) 0.07229(17)
O21 O 0.8383(2) 0.2207(3) 0.15590(18)
O22 O 0.7261(2) 0.5199(2) 0.13124(17)
O23 O 0.7650(2) 0.6167(3) 0.19467(18)
O24 O 0.6581(3) 0.7438(4) 0.2157(3)
O25 O 0.5963(2) 0.4873(3) 0.1293(2)
O26 O 0.7853(2) 0.1016(2) 0.20644(18)
O29 O 0.6976(2) 0.4892(3) 0.24060(17)
O30 O 0.7731(2) 0.1407(2) 0.04842(16)
O31 O 0.8826(2) 0.0797(3) 0.05344(18)
O35 O 0.6173(2) 0.6686(3) 0.0989(2)
P4 P 0.85390(8) 0.29152(10) 0.12305(7)
P5 P 0.81059(8) 0.06233(10) 0.04087(7)
Zn5 Zn 0.92040(4) 0.19291(4) 0.05254(3)
Zn6 Zn 0.74814(4) 0.42580(4) 0.08705(3)
Zn7 Zn 0.76306(4) 0.14429(4) 0.12821(3)
O40 O 0.5653(4) 0.6007(5) 0.2096(3)
C3 C 0.6176(3) 0.0143(4) 0.8998(3)
H5 H 0.5721 0.0259 0.8819
H6 H 0.6325 0.0431 0.9349
C4 C 0.6296(3) 0.1164(4) 0.8325(2)
H7 H 0.5834 0.1101 0.8151
H8 H 0.6485 0.1241 0.8038
C7 C 0.7182(3) 0.4769(4) 0.7871(3)
C8 C 0.7483(4) 0.5336(4) 0.8361(2)
H10 H 0.7233 0.5854 0.8326
C9 C 0.8190(4) 0.5533(5) 0.8424(3)
H11 H 0.8287 0.5356 0.8100
H12 H 0.8274 0.6129 0.8476
C10 C 0.8600(4) 0.5043(5) 0.8932(3)
H13 H 0.9009 0.5321 0.9114
H14 H 0.8682 0.4477 0.8837
C11 C 0.8164(3) 0.5050(4) 0.9294(3)
H15 H 0.8290 0.4619 0.9575
H16 H 0.8173 0.5590 0.9468
C12 C 0.6968(3) 0.5113(4) 0.9076(3)
H17 H 0.6569 0.5120 0.8766
H18 H 0.7040 0.5672 0.9232
C13 C 0.4430(3) 0.3204(4) 0.9237(3)
C14 C 0.4627(3) 0.2767(4) 0.9799(3)
C15 C 0.4241(3) 0.1932(4) 0.9780(3)
H20 H 0.3918 0.2002 0.9957
H21 H 0.4031 0.1747 0.9405
H23 H 0.4640 0.0750 0.9977
C17 C 0.5342(3) 0.1591(4) 0.9954(3)
H24 H 0.5311 0.1406 0.9589
N1 N 0.6563(3) 0.0402(3) 0.8639(2)
N2 N 0.5328(3) 0.2539(3) 0.9985(2)
N3 N 0.7517(3) 0.4874(3) 0.8883(2)
O1 O 0.5866(2) 0.2270(3) 0.89286(18)
O2 O 0.7038(2) 0.1823(2) 0.92771(17)
O3 O 0.6617(2) 0.2793(3) 0.84410(18)
O7 O 0.9037(2) 0.0127(3) 0.8707(2)
O8 O 0.7147(2) 0.3984(2) 0.79356(18)
O9 O 0.6976(2) 0.5108(3) 0.74060(17)
O10 O 0.7269(2) 0.3593(2) 0.95158(16)
O11 O 0.6174(2) 0.4203(3) 0.94656(18)
O13 O 0.3827(2) 0.3314(3) 0.9011(2)
O14 O 0.4856(2) 0.3425(3) 0.90462(18)
P1 P 0.64610(8) 0.20848(10) 0.87695(7)
P2 P 0.68941(8) 0.43767(10) 0.95913(7)
Zn1 Zn 0.57960(4) 0.30709(4) 0.94746(3)
Zn2 Zn 0.75186(4) 0.07420(4) 0.91295(3)
Zn3 Zn 0.73694(4) 0.35571(4) 0.87179(3)
Zn4_2 Zn 0.7500 0.2500 1.0000
H52 H 0.9265 0.3631 0.9783
C36 C 0.9331(3) 0.2177(4) 0.9440(3)
H53 H 0.9461 0.2521 0.9186
H54 H 0.9449 0.1602 0.9397
Cd3 Cd 0.65568(2) 0.39488(3) 0.68309(2)
Cd4 Cd 0.34432(2) 0.39488(3) 0.81691(2)
O28 O 0.8024(2) 0.0108(3) 0.75940(17)
O32 O 0.7801(2) 0.0210(2) 0.98491(17)
O37 O 0.8183(2) 0.1433(3) 0.89699(17)
O38 O 0.8209(2) 0.3012(3) 0.89191(18)
O39 O 0.8368(2) 0.2303(3) 0.98450(16)
P6 P 0.84592(8) 0.22493(10) 0.92779(7)
C26 C 0.7517(4) 0.9664(4) 0.1639(2)
H37 H 0.7767 0.9146 0.1674
C27 C 0.6810(4) 0.9467(5) 0.1576(3)
H38 H 0.6713 0.9644 0.1900
H39 H 0.6726 0.8871 0.1524
C28 C 0.6400(4) 0.9957(5) 0.1068(3)
H40 H 0.5991 0.9679 0.0886
C29 C 0.6836(3) 0.9950(4) 0.0706(3)
H43 H 0.6827 0.9410 0.0532
C30 C 0.8032(3) 0.9887(4) 0.0924(3)
H44 H 0.8431 0.9880 0.1234
H45 H 0.7960 0.9328 0.0768
O27 O 0.8024(2) 0.9892(3) 0.25940(17)
C1 C 0.6247(4) 0.8942(4) 0.8488(3)
H1 H 0.6467 0.8414 0.8491
H2 H 0.5799 0.8884 0.8258
C2 C 0.6299(4) 0.9201(4) 0.9072(3)
H3 H 0.5974 0.8926 0.9191
H4 H 0.6724 0.9082 0.9333
C5 C 0.6574(3) 0.9650(4) 0.8282(3)
H9 H 0.6335 0.9773 0.7895
C6 C 0.7266(3) 0.9418(4) 0.8355(3)
Cd1 Cd 0.84432(2) 0.89488(3) 0.81691(2)
O4 O 0.7739(2) 0.9801(2) 0.86876(17)
O5 O 0.7350(2) 0.8833(3) 0.80533(18)
O6 O 0.8419(3) 0.7562(4) 0.7843(3)
O18 O 0.9347(4) 0.8993(5) 0.7904(3)
O34 O 0.8827(2) 0.8314(3) 0.9011(2)
C3_2 C 0.3824(3) 0.0143(4) 0.6002(3)
H5_2 H 0.4279 0.0259 0.6181
H6_2 H 0.3675 0.0431 0.5651
C4_2 C 0.3704(3) 0.1164(4) 0.6675(2)
H7_2 H 0.4166 0.1101 0.6849
H8_2 H 0.3515 0.1241 0.6962
C7_2 C 0.2818(3) 0.4769(4) 0.7129(3)
C8_2 C 0.2517(4) 0.5336(4) 0.6639(2)
H10_2 H 0.2767 0.5854 0.6674
C9_2 C 0.1810(4) 0.5533(5) 0.6576(3)
H11_2 H 0.1713 0.5356 0.6900
H12_2 H 0.1726 0.6129 0.6524
C10_2 C 0.1400(4) 0.5043(5) 0.6068(3)
H13_2 H 0.0991 0.5321 0.5886
H14_2 H 0.1318 0.4477 0.6163
C11_2 C 0.1836(3) 0.5050(4) 0.5706(3)
H15_2 H 0.1710 0.4619 0.5425
H16_2 H 0.1827 0.5590 0.5532
C12_2 C 0.3032(3) 0.5113(4) 0.5924(3)
H17_2 H 0.3431 0.5120 0.6234
H18_2 H 0.2960 0.5672 0.5768
C13_2 C 0.5570(3) 0.3204(4) 0.5763(3)
C14_2 C 0.5373(3) 0.2767(4) 0.5201(3)
H19_2 H 0.5450 0.3147 0.4932
C15_2 C 0.5759(3) 0.1932(4) 0.5220(3)
H20_2 H 0.6082 0.2002 0.5043
H21_2 H 0.5969 0.1747 0.5595
C16_2 C 0.5240(3) 0.1321(4) 0.4905(3)
H22_2 H 0.5159 0.1361 0.4513
H23_2 H 0.5360 0.0750 0.5023
C17_2 C 0.4658(3) 0.1591(4) 0.5046(3)
H24_2 H 0.4689 0.1406 0.5411
H25_2 H 0.4265 0.1369 0.4783
C18_2 C 0.4331(3) 0.2823(4) 0.4440(3)
H26_2 H 0.4461 0.2479 0.4186
H27_2 H 0.4449 0.3398 0.4397
N1_2 N 0.3437(3) 0.0402(3) 0.6361(2)
N2_2 N 0.4672(3) 0.2539(3) 0.5015(2)
N3_2 N 0.2483(3) 0.4874(3) 0.6117(2)
O1_2 O 0.4134(2) 0.2270(3) 0.60714(18)
O2_2 O 0.2962(2) 0.1823(2) 0.57229(17)
O3_2 O 0.3383(2) 0.2793(3) 0.65590(18)
O7_2 O 0.0963(2) 0.0127(3) 0.6293(2)
O8_2 O 0.2853(2) 0.3984(2) 0.70644(18)
O9_2 O 0.3024(2) 0.5108(3) 0.75940(17)
O10_2 O 0.2731(2) 0.3593(2) 0.54842(16)
O11_2 O 0.3826(2) 0.4203(3) 0.55344(18)
O12_2 O 0.2801(2) 0.4790(2) 0.48491(17)
O13_2 O 0.6173(2) 0.3314(3) 0.5989(2)
O14_2 O 0.5144(2) 0.3425(3) 0.59538(18)
O15_2 O 0.3183(2) 0.3567(3) 0.39699(17)
O16_2 O 0.3209(2) 0.1988(3) 0.39191(18)
O17_2 O 0.3368(2) 0.2697(3) 0.48450(16)
P1_2 P 0.35390(8) 0.20848(10) 0.62305(7)
P2_2 P 0.31059(8) 0.43767(10) 0.54087(7)
P3_2 P 0.34592(8) 0.27507(10) 0.42779(7)
Zn1_2 Zn 0.42040(4) 0.30709(4) 0.55254(3)
Zn2_2 Zn 0.24814(4) 0.07420(4) 0.58705(3)
Zn3_2 Zn 0.26306(4) 0.35571(4) 0.62821(3)
Zn4_3 Zn 0.2500 0.2500 0.5000
C19_2 C 0.1247(4) 0.6058(4) 0.3488(3)
H28_2 H 0.1467 0.6586 0.3491
H29_2 H 0.0799 0.6116 0.3258
C20_2 C 0.1299(4) 0.5799(4) 0.4072(3)
H30_2 H 0.0974 0.6074 0.4191
H31_2 H 0.1724 0.5918 0.4333
C21_2 C 0.1176(3) 0.4857(4) 0.3998(3)
H32_2 H 0.0721 0.4741 0.3819
H33_2 H 0.1325 0.4569 0.4349
C22_2 C 0.1296(3) 0.3836(4) 0.3325(2)
H34_2 H 0.0834 0.3899 0.3151
H35_2 H 0.1485 0.3759 0.3038
C23_2 C 0.1574(3) 0.5350(4) 0.3282(3)
H36_2 H 0.1335 0.5227 0.2895
C24_2 C 0.2266(3) 0.5582(4) 0.3355(3)
C25_2 C 0.2182(3) 0.0231(4) 0.2871(3)
H41_2 H 0.3682 0.0523 0.3837
H42_2 H 0.3290 0.0381 0.4575
C35_2 C 0.0342(3) 0.3409(4) 0.4954(3)
H51_2 H 0.0311 0.3594 0.4589
H52_2 H 0.0735 0.3631 0.5217
C36_2 C 0.0669(3) 0.2177(4) 0.5560(3)
H53_2 H 0.0539 0.2521 0.5814
H54_2 H 0.0551 0.1602 0.5603
Cd2_2 Cd 0.34432(2) 0.60512(3) 0.31691(2)
N4_2 N 0.1563(3) 0.4598(3) 0.3639(2)
N5_2 N 0.0328(3) 0.2461(3) 0.4985(2)
N6_2 N 0.2517(3) 0.0126(3) 0.3883(2)
O19_2 O 0.0866(2) 0.2730(3) 0.39286(18)
O20_2 O 0.2038(2) 0.3177(2) 0.42771(17)
O21_2 O 0.1617(2) 0.2207(3) 0.34410(18)
O22_2 O 0.2739(2) 0.5199(2) 0.36876(17)
O23_2 O 0.2350(2) 0.6167(3) 0.30533(18)
O24_2 O 0.3419(3) 0.7438(4) 0.2843(3)
O25_2 O 0.4037(2) 0.4873(3) 0.3707(2)
O26_2 O 0.2147(2) 0.1016(2) 0.29356(18)
O28_2 O 0.1976(2) 0.0108(3) 0.74060(17)
O29_2 O 0.3024(2) 0.4892(3) 0.25940(17)
O30_2 O 0.2269(2) 0.1407(2) 0.45158(16)
O31_2 O 0.1174(2) 0.0797(3) 0.44656(18)
O32_2 O 0.2199(2) 0.0210(2) 0.51509(17)
O35_2 O 0.3827(2) 0.6686(3) 0.4011(2)
O37_2 O 0.1817(2) 0.1433(3) 0.60301(17)
O38_2 O 0.1791(2) 0.3012(3) 0.60809(18)
O39_2 O 0.1632(2) 0.2303(3) 0.51550(16)
P4_2 P 0.14610(8) 0.29152(10) 0.37695(7)
P5_2 P 0.18941(8) 0.06233(10) 0.45913(7)
P6_2 P 0.15408(8) 0.22493(10) 0.57221(7)
Zn5_2 Zn 0.07960(4) 0.19291(4) 0.44746(3)
Zn6_2 Zn 0.25186(4) 0.42580(4) 0.41295(3)
Zn7_2 Zn 0.23694(4) 0.14429(4) 0.37179(3)
O40_2 O 0.4347(4) 0.6007(5) 0.2904(3)
C1_2 C 0.3753(4) 0.8942(4) 0.6512(3)
H1_2 H 0.3533 0.8414 0.6509
H2_2 H 0.4201 0.8884 0.6742
C2_2 C 0.3701(4) 0.9201(4) 0.5928(3)
H3_2 H 0.4026 0.8926 0.5809
H4_2 H 0.3276 0.9082 0.5667
C5_2 C 0.3426(3) 0.9650(4) 0.6718(3)
H9_2 H 0.3665 0.9773 0.7105
C6_2 C 0.2734(3) 0.9418(4) 0.6645(3)
Cd1_2 Cd 0.15568(2) 0.89488(3) 0.68309(2)
O4_2 O 0.2261(2) 0.9801(2) 0.63124(17)
O5_2 O 0.2650(2) 0.8833(3) 0.69467(18)
O6_2 O 0.1581(3) 0.7562(4) 0.7157(3)
O18_2 O 0.0653(4) 0.8993(5) 0.7096(3)
C26_2 C 0.2483(4) 0.9664(4) 0.3361(2)
H37_2 H 0.2233 0.9146 0.3326
C27_2 C 0.3190(4) 0.9467(5) 0.3424(3)
H38_2 H 0.3287 0.9644 0.3100
H39_2 H 0.3274 0.8871 0.3476
C28_2 C 0.3600(4) 0.9957(5) 0.3932(3)
H40_2 H 0.4009 0.9679 0.4114
C29_2 C 0.3164(3) 0.9950(4) 0.4294(3)
H43_2 H 0.3173 0.9410 0.4468
C30_2 C 0.1968(3) 0.9887(4) 0.4076(3)
H44_2 H 0.1569 0.9880 0.3766
H45_2 H 0.2040 0.9328 0.4232
O27_2 O 0.1976(2) 0.9892(3) 0.24060(17)
O34_2 O 0.1173(2) 0.8314(3) 0.5989(2)
C31_2 C 0.9430(3) 0.1796(4) 0.4237(3)
C32_2 C 0.9627(3) 0.2233(4) 0.4799(3)
H46 H 0.9550 0.1853 0.5068
C33_2 C 0.9241(3) 0.3068(4) 0.4780(3)
H47_2 H 0.8918 0.2998 0.4957
H48_2 H 0.9031 0.3253 0.4405
C34 C 0.9760(3) 0.3679(4) 0.5095(3)
H49 H 0.9841 0.3639 0.5487
H50_2 H 0.9640 0.4250 0.4977
O33_2 O 0.8827(2) 0.1686(3) 0.4011(2)
O36_2 O 0.9856(2) 0.1575(3) 0.40462(18)
C19_3 C 0.3753(4) 0.1058(4) 0.1512(3)
H28_3 H 0.3533 0.1586 0.1509
H29_3 H 0.4201 0.1116 0.1742
C20_3 C 0.3701(4) 0.0799(4) 0.0928(3)
H30_3 H 0.4026 0.1074 0.0809
H31_3 H 0.3276 0.0918 0.0667
C23_3 C 0.3426(3) 0.0350(4) 0.1718(3)
H36_3 H 0.3665 0.0227 0.2105
C24_3 C 0.2734(3) 0.0582(4) 0.1645(3)
O22_3 O 0.2261(2) 0.0199(2) 0.13124(17)
O23_3 O 0.2650(2) 0.1167(3) 0.19467(18)
O24_3 O 0.1581(3) 0.2438(4) 0.2157(3)
O40_3 O 0.0653(4) 0.1007(5) 0.2096(3)
C8_3 C 0.2483(4) 0.0336(4) 0.8361(2)
H10_3 H 0.2233 0.0854 0.8326
C9_3 C 0.3190(4) 0.0533(5) 0.8424(3)
H11_3 H 0.3287 0.0356 0.8100
H12_3 H 0.3274 0.1129 0.8476
C10_3 C 0.3600(4) 0.0043(5) 0.8932(3)
H13_3 H 0.4009 0.0321 0.9114
C11_3 C 0.3164(3) 0.0050(4) 0.9294(3)
H16_3 H 0.3173 0.0590 0.9468
C12_3 C 0.1968(3) 0.0113(4) 0.9076(3)
H17_3 H 0.1569 0.0120 0.8766
H18_3 H 0.2040 0.0672 0.9232
H25_3 H 0.0735 0.6369 0.0217
C18_3 C 0.0669(3) 0.7823(4) 0.0560(3)
H26_3 H 0.0539 0.7479 0.0814
H27_3 H 0.0551 0.8398 0.0603
O12_3 O 0.2199(2) 0.9790(2) 0.01509(17)
O15_3 O 0.1817(2) 0.8567(3) 0.10301(17)
O16_3 O 0.1791(2) 0.6988(3) 0.10809(18)
O17_3 O 0.1632(2) 0.7697(3) 0.01550(16)
P3_3 P 0.15408(8) 0.77507(10) 0.07221(7)
Zn4_4 Zn 0.2500 0.7500 -0.0000
C21_3 C 0.3824(3) 0.9857(4) 0.1002(3)
H32_3 H 0.4279 0.9741 0.1181
H33_3 H 0.3675 0.9569 0.0651
C22_3 C 0.3704(3) 0.8836(4) 0.1675(2)
H34_3 H 0.4166 0.8899 0.1849
H35_3 H 0.3515 0.8759 0.1962
C25_3 C 0.2818(3) 0.5231(4) 0.2129(3)
C26_3 C 0.2517(4) 0.4664(4) 0.1639(2)
H37_3 H 0.2767 0.4146 0.1674
C27_3 C 0.1810(4) 0.4467(5) 0.1576(3)
H38_3 H 0.1713 0.4644 0.1900
H39_3 H 0.1726 0.3871 0.1524
C28_3 C 0.1400(4) 0.4957(5) 0.1068(3)
H40_3 H 0.0991 0.4679 0.0886
H41_3 H 0.1318 0.5523 0.1163
C29_3 C 0.1836(3) 0.4950(4) 0.0706(3)
H42_3 H 0.1710 0.5381 0.0425
H43_3 H 0.1827 0.4410 0.0532
C30_3 C 0.3032(3) 0.4887(4) 0.0924(3)
H44_3 H 0.3431 0.4880 0.1234
H45_3 H 0.2960 0.4328 0.0768
C31_3 C 0.5570(3) 0.6796(4) 0.0763(3)
C32_3 C 0.5373(3) 0.7233(4) 0.0201(3)
C33_3 C 0.5759(3) 0.8068(4) 0.0220(3)
H47_3 H 0.6082 0.7998 0.0043
H48_3 H 0.5969 0.8253 0.0595
H50_3 H 0.5360 0.9250 0.0023
C35_3 C 0.4658(3) 0.8409(4) 0.0046(3)
H51_3 H 0.4689 0.8594 0.0411
N4_3 N 0.3437(3) 0.9598(3) 0.1361(2)
N5_3 N 0.4672(3) 0.7461(3) 0.0015(2)
N6_3 N 0.2483(3) 0.5126(3) 0.1117(2)
O19_3 O 0.4134(2) 0.7730(3) 0.10714(18)
O20_3 O 0.2962(2) 0.8177(2) 0.07229(17)
O21_3 O 0.3383(2) 0.7207(3) 0.15590(18)
O25_3 O 0.0963(2) 0.9873(3) 0.1293(2)
O26_3 O 0.2853(2) 0.6016(2) 0.20644(18)
O30_3 O 0.2731(2) 0.6407(2) 0.04842(16)
O31_3 O 0.3826(2) 0.5797(3) 0.05344(18)
O36_3 O 0.5144(2) 0.6575(3) 0.09538(18)
P4_3 P 0.35390(8) 0.79152(10) 0.12305(7)
P5_3 P 0.31059(8) 0.56233(10) 0.04087(7)
Zn5_3 Zn 0.42040(4) 0.69291(4) 0.05254(3)
Zn6_3 Zn 0.24814(4) 0.92580(4) 0.08705(3)
Zn7_3 Zn 0.26306(4) 0.64429(4) 0.12821(3)
C1_3 C 0.1247(4) 0.3942(4) 0.8488(3)
H1_3 H 0.1467 0.3414 0.8491
H2_3 H 0.0799 0.3884 0.8258
C2_3 C 0.1299(4) 0.4201(4) 0.9072(3)
H3_3 H 0.0974 0.3926 0.9191
H4_3 H 0.1724 0.4082 0.9333
C3_3 C 0.1176(3) 0.5143(4) 0.8998(3)
H5_3 H 0.0721 0.5259 0.8819
H6_3 H 0.1325 0.5431 0.9349
C4_3 C 0.1296(3) 0.6164(4) 0.8325(2)
H7_3 H 0.0834 0.6101 0.8151
H8_3 H 0.1485 0.6241 0.8038
C5_3 C 0.1574(3) 0.4650(4) 0.8282(3)
H9_3 H 0.1335 0.4773 0.7895
C6_3 C 0.2266(3) 0.4418(4) 0.8355(3)
C7_3 C 0.2182(3) 0.9769(4) 0.7871(3)
H14_3 H 0.3682 0.9477 0.8837
H15_3 H 0.3290 0.9619 0.9575
C17_3 C 0.0342(3) 0.6591(4) 0.9954(3)
H24_3 H 0.0311 0.6406 0.9589
N1_3 N 0.1563(3) 0.5402(3) 0.8639(2)
N2_3 N 0.0328(3) 0.7539(3) 0.9985(2)
N3_3 N 0.2517(3) 0.9874(3) 0.8883(2)
O1_3 O 0.0866(2) 0.7270(3) 0.89286(18)
O2_3 O 0.2038(2) 0.6823(2) 0.92771(17)
O3_3 O 0.1617(2) 0.7793(3) 0.84410(18)
O4_3 O 0.2739(2) 0.4801(2) 0.86876(17)
O5_3 O 0.2350(2) 0.3833(3) 0.80533(18)
O6_3 O 0.3419(3) 0.2562(4) 0.7843(3)
O7_3 O 0.4037(2) 0.5127(3) 0.8707(2)
O8_3 O 0.2147(2) 0.8984(2) 0.79356(18)
O10_3 O 0.2269(2) 0.8593(2) 0.95158(16)
O11_3 O 0.1174(2) 0.9203(3) 0.94656(18)
P1_3 P 0.14610(8) 0.70848(10) 0.87695(7)
P2_3 P 0.18941(8) 0.93767(10) 0.95913(7)
Zn1_3 Zn 0.07960(4) 0.80709(4) 0.94746(3)
Zn2_3 Zn 0.25186(4) 0.57420(4) 0.91295(3)
Zn3_3 Zn 0.23694(4) 0.85571(4) 0.87179(3)
Zn4_5 Zn 0.2500 0.7500 1.0000
O18_3 O 0.4347(4) 0.3993(5) 0.7904(3)
H46_2 H 0.5450 0.6853 0.9932
C34_2 C 0.5240(3) 0.8679(4) 0.9905(3)
H49_2 H 0.5159 0.8639 0.9513
H52_3 H 0.4265 0.8631 0.9783
C36_3 C 0.4331(3) 0.7177(4) 0.9440(3)
H53_3 H 0.4461 0.7521 0.9186
H54_3 H 0.4449 0.6602 0.9397
O32_3 O 0.2801(2) 0.5210(2) 0.98491(17)
O37_3 O 0.3183(2) 0.6433(3) 0.89699(17)
O38_3 O 0.3209(2) 0.8012(3) 0.89191(18)
O39_3 O 0.3368(2) 0.7303(3) 0.98450(16)
P6_3 P 0.34592(8) 0.72493(10) 0.92779(7)
C13_3 C 0.9430(3) 0.8204(4) 0.9237(3)
C14_3 C 0.9627(3) 0.7767(4) 0.9799(3)
C15_3 C 0.9241(3) 0.6932(4) 0.9780(3)
H20_3 H 0.8918 0.7002 0.9957
H21_3 H 0.9031 0.6747 0.9405
H23_3 H 0.9640 0.5750 0.9977
O14_3 O 0.9856(2) 0.8425(3) 0.90462(18)
C13_4 C 0.0570(3) 0.8204(4) 0.5763(3)
C14_4 C 0.0373(3) 0.7767(4) 0.5201(3)
H19_3 H 0.0450 0.8147 0.4932
C15_4 C 0.0759(3) 0.6932(4) 0.5220(3)
H20_4 H 0.1082 0.7002 0.5043
H21_4 H 0.0969 0.6747 0.5595
C16_3 C 0.0240(3) 0.6321(4) 0.4905(3)
H22_3 H 0.0159 0.6361 0.4513
H23_4 H 0.0360 0.5750 0.5023
O14_4 O 0.0144(2) 0.8425(3) 0.59538(18)
C8_4 C 0.7517(4) 0.0336(4) 0.6639(2)
H10_4 H 0.7767 0.0854 0.6674
C9_4 C 0.6810(4) 0.0533(5) 0.6576(3)
H11_4 H 0.6713 0.0356 0.6900
H12_4 H 0.6726 0.1129 0.6524
C10_4 C 0.6400(4) 0.0043(5) 0.6068(3)
H13_4 H 0.5991 0.0321 0.5886
C11_4 C 0.6836(3) 0.0050(4) 0.5706(3)
H16_4 H 0.6827 0.0590 0.5532
C12_4 C 0.8032(3) 0.0113(4) 0.5924(3)
H17_4 H 0.8431 0.0120 0.6234
H18_4 H 0.7960 0.0672 0.5768
C19_4 C 0.6247(4) 0.1058(4) 0.3488(3)
H28_4 H 0.6467 0.1586 0.3491
H29_4 H 0.5799 0.1116 0.3258
C20_4 C 0.6299(4) 0.0799(4) 0.4072(3)
H30_4 H 0.5974 0.1074 0.4191
H31_4 H 0.6724 0.0918 0.4333
C23_4 C 0.6574(3) 0.0350(4) 0.3282(3)
H36_4 H 0.6335 0.0227 0.2895
C24_4 C 0.7266(3) 0.0582(4) 0.3355(3)
O22_4 O 0.7739(2) 0.0199(2) 0.36876(17)
O23_4 O 0.7350(2) 0.1167(3) 0.30533(18)
O24_4 O 0.8419(3) 0.2438(4) 0.2843(3)
O40_4 O 0.9347(4) 0.1007(5) 0.2904(3)
C1_4 C 0.8753(4) 0.3942(4) 0.6512(3)
H1_4 H 0.8533 0.3414 0.6509
H2_4 H 0.9201 0.3884 0.6742
C2_4 C 0.8701(4) 0.4201(4) 0.5928(3)
H3_4 H 0.9026 0.3926 0.5809
H4_4 H 0.8276 0.4082 0.5667
C3_4 C 0.8824(3) 0.5143(4) 0.6002(3)
H5_4 H 0.9279 0.5259 0.6181
H6_4 H 0.8675 0.5431 0.5651
C4_4 C 0.8704(3) 0.6164(4) 0.6675(2)
H7_4 H 0.9166 0.6101 0.6849
H8_4 H 0.8515 0.6241 0.6962
C5_4 C 0.8426(3) 0.4650(4) 0.6718(3)
H9_4 H 0.8665 0.4773 0.7105
C6_4 C 0.7734(3) 0.4418(4) 0.6645(3)
C7_4 C 0.7818(3) 0.9769(4) 0.7129(3)
H14_4 H 0.6318 0.9477 0.6163
H15_4 H 0.6710 0.9619 0.5425
C17_4 C 0.9658(3) 0.6591(4) 0.5046(3)
H24_4 H 0.9689 0.6406 0.5411
H25_4 H 0.9265 0.6369 0.4783
C18_4 C 0.9331(3) 0.7823(4) 0.4440(3)
H26_4 H 0.9461 0.7479 0.4186
H27_4 H 0.9449 0.8398 0.4397
N1_4 N 0.8437(3) 0.5402(3) 0.6361(2)
N2_4 N 0.9672(3) 0.7539(3) 0.5015(2)
N3_4 N 0.7483(3) 0.9874(3) 0.6117(2)
O1_4 O 0.9134(2) 0.7270(3) 0.60714(18)
O2_4 O 0.7962(2) 0.6823(2) 0.57229(17)
O3_4 O 0.8383(2) 0.7793(3) 0.65590(18)
O4_4 O 0.7261(2) 0.4801(2) 0.63124(17)
O5_4 O 0.7650(2) 0.3833(3) 0.69467(18)
O6_4 O 0.6581(3) 0.2562(4) 0.7157(3)
O7_4 O 0.5963(2) 0.5127(3) 0.6293(2)
O8_4 O 0.7853(2) 0.8984(2) 0.70644(18)
O10_4 O 0.7731(2) 0.8593(2) 0.54842(16)
O11_4 O 0.8826(2) 0.9203(3) 0.55344(18)
O12_4 O 0.7801(2) 0.9790(2) 0.48491(17)
O15_4 O 0.8183(2) 0.8567(3) 0.39699(17)
O16_4 O 0.8209(2) 0.6988(3) 0.39191(18)
O17_4 O 0.8368(2) 0.7697(3) 0.48450(16)
P1_4 P 0.85390(8) 0.70848(10) 0.62305(7)
P2_4 P 0.81059(8) 0.93767(10) 0.54087(7)
P3_4 P 0.84592(8) 0.77507(10) 0.42779(7)
Zn1_4 Zn 0.92040(4) 0.80709(4) 0.55254(3)
Zn2_4 Zn 0.74814(4) 0.57420(4) 0.58705(3)
Zn3_4 Zn 0.76306(4) 0.85571(4) 0.62821(3)
Zn4_6 Zn 0.7500 0.7500 0.5000
O18_4 O 0.5653(4) 0.3993(5) 0.7096(3)
C21_4 C 0.6176(3) 0.9857(4) 0.3998(3)
H32_4 H 0.5721 0.9741 0.3819
H33_4 H 0.6325 0.9569 0.4349
C22_4 C 0.6296(3) 0.8836(4) 0.3325(2)
H34_4 H 0.5834 0.8899 0.3151
H35_4 H 0.6485 0.8759 0.3038
C25_4 C 0.7182(3) 0.5231(4) 0.2871(3)
C26_4 C 0.7483(4) 0.4664(4) 0.3361(2)
H37_4 H 0.7233 0.4146 0.3326
C27_4 C 0.8190(4) 0.4467(5) 0.3424(3)
H38_4 H 0.8287 0.4644 0.3100
H39_4 H 0.8274 0.3871 0.3476
C28_4 C 0.8600(4) 0.4957(5) 0.3932(3)
H40_4 H 0.9009 0.4679 0.4114
H41_4 H 0.8682 0.5523 0.3837
C29_4 C 0.8164(3) 0.4950(4) 0.4294(3)
H42_4 H 0.8290 0.5381 0.4575
H43_4 H 0.8173 0.4410 0.4468
C30_4 C 0.6968(3) 0.4887(4) 0.4076(3)
H44_4 H 0.6569 0.4880 0.3766
H45_4 H 0.7040 0.4328 0.4232
C31_4 C 0.4430(3) 0.6796(4) 0.4237(3)
C32_4 C 0.4627(3) 0.7233(4) 0.4799(3)
H46_3 H 0.4550 0.6853 0.5068
C33_4 C 0.4241(3) 0.8068(4) 0.4780(3)
H47_4 H 0.3918 0.7998 0.4957
H48_4 H 0.4031 0.8253 0.4405
C34_3 C 0.4760(3) 0.8679(4) 0.5095(3)
H49_3 H 0.4841 0.8639 0.5487
H50_4 H 0.4640 0.9250 0.4977
C35_4 C 0.5342(3) 0.8409(4) 0.4954(3)
H51_4 H 0.5311 0.8594 0.4589
H52_4 H 0.5735 0.8631 0.5217
C36_4 C 0.5669(3) 0.7177(4) 0.5560(3)
H53_4 H 0.5539 0.7521 0.5814
H54_4 H 0.5551 0.6602 0.5603
N4_4 N 0.6563(3) 0.9598(3) 0.3639(2)
N5_4 N 0.5328(3) 0.7461(3) 0.4985(2)
N6_4 N 0.7517(3) 0.5126(3) 0.3883(2)
O19_4 O 0.5866(2) 0.7730(3) 0.39286(18)
O20_4 O 0.7038(2) 0.8177(2) 0.42771(17)
O21_4 O 0.6617(2) 0.7207(3) 0.34410(18)
O25_4 O 0.9037(2) 0.9873(3) 0.3707(2)
O26_4 O 0.7147(2) 0.6016(2) 0.29356(18)
O30_4 O 0.7269(2) 0.6407(2) 0.45158(16)
O31_4 O 0.6174(2) 0.5797(3) 0.44656(18)
O32_4 O 0.7199(2) 0.5210(2) 0.51509(17)
O36_4 O 0.4856(2) 0.6575(3) 0.40462(18)
O37_4 O 0.6817(2) 0.6433(3) 0.60301(17)
O38_4 O 0.6791(2) 0.8012(3) 0.60809(18)
O39_4 O 0.6632(2) 0.7303(3) 0.51550(16)
P4_4 P 0.64610(8) 0.79152(10) 0.37695(7)
P5_4 P 0.68941(8) 0.56233(10) 0.45913(7)
P6_4 P 0.65408(8) 0.72493(10) 0.57221(7)
Zn5_4 Zn 0.57960(4) 0.69291(4) 0.44746(3)
Zn6_4 Zn 0.75186(4) 0.92580(4) 0.41295(3)
Zn7_4 Zn 0.73694(4) 0.64429(4) 0.37179(3)
H46_4 H 0.0450 0.1853 0.9932
C34_4 C 0.0240(3) 0.3679(4) 0.9905(3)
H49_4 H 0.0159 0.3639 0.9513
H19_4 H 0.9550 0.8147 0.0068
C16_4 C 0.9760(3) 0.6321(4) 0.0095(3)
H22_4 H 0.9841 0.6361 0.0487
loop_
_geom_bond_atom_site_label_1
_geom_bond_atom_site_label_2
_geom_bond_site_symmetry_1
_geom_bond_site_symmetry_2
C31 C32 1_555 1_555
C33 C32 1_555 1_555
H47 C33 1_555 1_555
H48 C33 1_555 1_555
Cd6 O33 1_555 1_555
O33 C31 1_555 1_555
O36 C31 1_555 1_555
H22 C16 1_555 1_555
C18 H26 1_555 1_555
H27 C18 1_555 1_555
O15 P3 1_555 1_555
O16 P3 1_555 1_555
O17 P3 1_555 1_555
P3 C18 1_555 1_555
C19 H28 1_555 1_555
H29 C19 1_555 1_555
C20 C19 1_555 1_555
H30 C20 1_555 1_555
H31 C20 1_555 1_555
C21 C20 1_555 1_555
H32 C21 1_555 1_555
H33 C21 1_555 1_555
C22 H34 1_555 1_555
H35 C22 1_555 1_555
C23 C19 1_555 1_555
H36 C23 1_555 1_555
C24 C23 1_555 1_555
H51 C35 1_555 1_555
Cd2 O23 1_555 1_555
N4 C21 1_555 1_555
O19 P4 1_555 1_555
O20 Zn4 1_555 1_555
O21 P4 1_555 1_555
O22 C24 1_555 1_555
O23 C24 1_555 1_555
O24 Cd2 1_555 1_555
O25 Cd2 1_555 1_555
O26 C25 1_555 1_555
O29 Cd2 1_555 1_555
O30 Zn4 1_555 1_555
O31 P5 1_555 1_555
O35 Cd2 1_555 1_555
P4 C22 1_555 1_555
Zn5 N5 1_555 1_555
Zn6 O12 1_555 1_555
Zn7 O16 1_555 1_555
O40 Cd2 1_555 1_555
O15 Zn6 1_555 1_555
O17 Zn4 1_555 1_555
C22 N4 1_555 1_555
C23 N4 1_555 1_555
C35 N5 1_555 1_555
N4 Zn6 1_555 1_555
N6 Zn7 1_555 1_555
O19 Zn5 1_555 1_555
O20 P4 1_555 1_555
O20 Zn6 1_555 1_555
O21 Zn7 1_555 1_555
O22 Zn6 1_555 1_555
O26 Zn7 1_555 1_555
O30 P5 1_555 1_555
O30 Zn7 1_555 1_555
O31 Zn5 1_555 1_555
H5 C3 1_555 1_555
H6 C3 1_555 1_555
C4 H7 1_555 1_555
H8 C4 1_555 1_555
C7 C8 1_555 1_555
C8 H10 1_555 1_555
C9 C8 1_555 1_555
H11 C9 1_555 1_555
H12 C9 1_555 1_555
C10 C9 1_555 1_555
H13 C10 1_555 1_555
H14 C10 1_555 1_555
C11 C10 1_555 1_555
H15 C11 1_555 1_555
H16 C11 1_555 1_555
C12 H17 1_555 1_555
H18 C12 1_555 1_555
C13 C14 1_555 1_555
C15 C14 1_555 1_555
H20 C15 1_555 1_555
H21 C15 1_555 1_555
H24 C17 1_555 1_555
N1 C3 1_555 1_555
N2 C14 1_555 1_555
N3 C8 1_555 1_555
O1 P1 1_555 1_555
O2 P1 1_555 1_555
O3 P1 1_555 1_555
O8 C7 1_555 1_555
O9 C7 1_555 1_555
O10 P2 1_555 1_555
O11 P2 1_555 1_555
O13 C13 1_555 1_555
O14 C13 1_555 1_555
P1 C4 1_555 1_555
P2 C12 1_555 1_555
Zn1 N2 1_555 1_555
Zn2 N1 1_555 1_555
Zn3 N3 1_555 1_555
Zn4_2 O2 1_555 1_555
C36 H53 1_555 1_555
H54 C36 1_555 1_555
Cd3 O9 1_555 1_555
Cd4 O13 1_555 1_555
O32 Zn2 1_555 1_555
O37 Zn2 1_555 1_555
O38 Zn3 1_555 1_555
O39 Zn4_2 1_555 1_555
P6 C36 1_555 1_555
C4 N1 1_555 1_555
C11 N3 1_555 1_555
C12 N3 1_555 1_555
C17 N2 1_555 1_555
O1 Zn1 1_555 1_555
O2 Zn2 1_555 1_555
O3 Zn3 1_555 1_555
O8 Zn3 1_555 1_555
O10 Zn3 1_555 1_555
O10 Zn4_2 1_555 1_555
O11 Zn1 1_555 1_555
O14 Zn1 1_555 1_555
O37 P6 1_555 1_555
O38 P6 1_555 1_555
O39 P6 1_555 1_555
C26 H37 1_555 1_555
C27 C26 1_555 1_555
H38 C27 1_555 1_555
H39 C27 1_555 1_555
C28 C27 1_555 1_555
H40 C28 1_555 1_555
C29 C28 1_555 1_555
H43 C29 1_555 1_555
C30 H44 1_555 1_555
H45 C30 1_555 1_555
C1 H1 1_555 1_555
H2 C1 1_555 1_555
C2 C1 1_555 1_555
H3 C2 1_555 1_555
H4 C2 1_555 1_555
C5 C1 1_555 1_555
H9 C5 1_555 1_555
C6 C5 1_555 1_555
Cd1 O5 1_555 1_555
O4 C6 1_555 1_555
O5 C6 1_555 1_555
O6 Cd1 1_555 1_555
O18 Cd1 1_555 1_555
O34 Cd1 1_555 1_555
H5_2 C3_2 1_555 1_555
H6_2 C3_2 1_555 1_555
C4_2 H7_2 1_555 1_555
H8_2 C4_2 1_555 1_555
C7_2 C8_2 1_555 1_555
C8_2 H10_2 1_555 1_555
C9_2 C8_2 1_555 1_555
H11_2 C9_2 1_555 1_555
H12_2 C9_2 1_555 1_555
C10_2 C9_2 1_555 1_555
H13_2 C10_2 1_555 1_555
H14_2 C10_2 1_555 1_555
C11_2 C10_2 1_555 1_555
H15_2 C11_2 1_555 1_555
H16_2 C11_2 1_555 1_555
C12_2 H17_2 1_555 1_555
H18_2 C12_2 1_555 1_555
C13_2 C14_2 1_555 1_555
C14_2 H19_2 1_555 1_555
C15_2 C14_2 1_555 1_555
H20_2 C15_2 1_555 1_555
H21_2 C15_2 1_555 1_555
C16_2 C15_2 1_555 1_555
H22_2 C16_2 1_555 1_555
H23_2 C16_2 1_555 1_555
C17_2 C16_2 1_555 1_555
H24_2 C17_2 1_555 1_555
H25_2 C17_2 1_555 1_555
C18_2 H26_2 1_555 1_555
H27_2 C18_2 1_555 1_555
N1_2 C3_2 1_555 1_555
N2_2 C14_2 1_555 1_555
N3_2 C8_2 1_555 1_555
O1_2 P1_2 1_555 1_555
O2_2 P1_2 1_555 1_555
O3_2 P1_2 1_555 1_555
O8_2 C7_2 1_555 1_555
O9_2 C7_2 1_555 1_555
O10_2 P2_2 1_555 1_555
O11_2 P2_2 1_555 1_555
O12_2 P2_2 1_555 1_555
O13_2 C13_2 1_555 1_555
O14_2 C13_2 1_555 1_555
O15_2 P3_2 1_555 1_555
O16_2 P3_2 1_555 1_555
O17_2 P3_2 1_555 1_555
P1_2 C4_2 1_555 1_555
P2_2 C12_2 1_555 1_555
P3_2 C18_2 1_555 1_555
Zn1_2 N2_2 1_555 1_555
Zn2_2 N1_2 1_555 1_555
Zn3_2 N3_2 1_555 1_555
Zn4_3 O2_2 1_555 1_555
C19_2 H28_2 1_555 1_555
H29_2 C19_2 1_555 1_555
C20_2 C19_2 1_555 1_555
H30_2 C20_2 1_555 1_555
H31_2 C20_2 1_555 1_555
C21_2 C20_2 1_555 1_555
H32_2 C21_2 1_555 1_555
H33_2 C21_2 1_555 1_555
C22_2 H34_2 1_555 1_555
H35_2 C22_2 1_555 1_555
C23_2 C19_2 1_555 1_555
H36_2 C23_2 1_555 1_555
C24_2 C23_2 1_555 1_555
H51_2 C35_2 1_555 1_555
H52_2 C35_2 1_555 1_555
C36_2 H53_2 1_555 1_555
H54_2 C36_2 1_555 1_555
Cd2_2 O23_2 1_555 1_555
Cd4 O9_2 1_555 1_555
Cd3 O13_2 1_555 1_555
N4_2 C21_2 1_555 1_555
O19_2 P4_2 1_555 1_555
O20_2 Zn4_3 1_555 1_555
O21_2 P4_2 1_555 1_555
O22_2 C24_2 1_555 1_555
O23_2 C24_2 1_555 1_555
O24_2 Cd2_2 1_555 1_555
O25_2 Cd2_2 1_555 1_555
O26_2 C25_2 1_555 1_555
O29_2 Cd2_2 1_555 1_555
O30_2 Zn4_3 1_555 1_555
O31_2 P5_2 1_555 1_555
O32_2 Zn2_2 1_555 1_555
O35_2 Cd2_2 1_555 1_555
O37_2 Zn2_2 1_555 1_555
O38_2 Zn3_2 1_555 1_555
O39_2 Zn4_3 1_555 1_555
P4_2 C22_2 1_555 1_555
P6_2 C36_2 1_555 1_555
Zn5_2 N5_2 1_555 1_555
Zn6_2 O12_2 1_555 1_555
Zn7_2 O16_2 1_555 1_555
O40_2 Cd2_2 1_555 1_555
C4_2 N1_2 1_555 1_555
C11_2 N3_2 1_555 1_555
C12_2 N3_2 1_555 1_555
C17_2 N2_2 1_555 1_555
C18_2 N2_2 1_555 1_555
O1_2 Zn1_2 1_555 1_555
O2_2 Zn2_2 1_555 1_555
O3_2 Zn3_2 1_555 1_555
O8_2 Zn3_2 1_555 1_555
O10_2 Zn3_2 1_555 1_555
O10_2 Zn4_3 1_555 1_555
O11_2 Zn1_2 1_555 1_555
O14_2 Zn1_2 1_555 1_555
O15_2 Zn6_2 1_555 1_555
O17_2 Zn1_2 1_555 1_555
O17_2 Zn4_3 1_555 1_555
C22_2 N4_2 1_555 1_555
C23_2 N4_2 1_555 1_555
C35_2 N5_2 1_555 1_555
C36_2 N5_2 1_555 1_555
N4_2 Zn6_2 1_555 1_555
N6_2 Zn7_2 1_555 1_555
O19_2 Zn5_2 1_555 1_555
O20_2 P4_2 1_555 1_555
O20_2 Zn6_2 1_555 1_555
O21_2 Zn7_2 1_555 1_555
O22_2 Zn6_2 1_555 1_555
O26_2 Zn7_2 1_555 1_555
O30_2 P5_2 1_555 1_555
O30_2 Zn7_2 1_555 1_555
O31_2 Zn5_2 1_555 1_555
O32_2 P5_2 1_555 1_555
O37_2 P6_2 1_555 1_555
O38_2 P6_2 1_555 1_555
O39_2 P6_2 1_555 1_555
O39_2 Zn5_2 1_555 1_555
C1_2 H1_2 1_555 1_555
H2_2 C1_2 1_555 1_555
C2_2 C1_2 1_555 1_555
H3_2 C2_2 1_555 1_555
H4_2 C2_2 1_555 1_555
C5_2 C1_2 1_555 1_555
H9_2 C5_2 1_555 1_555
C6_2 C5_2 1_555 1_555
Cd1_2 O5_2 1_555 1_555
O4_2 C6_2 1_555 1_555
O5_2 C6_2 1_555 1_555
O6_2 Cd1_2 1_555 1_555
O18_2 Cd1_2 1_555 1_555
C26_2 H37_2 1_555 1_555
C27_2 C26_2 1_555 1_555
H38_2 C27_2 1_555 1_555
H39_2 C27_2 1_555 1_555
C28_2 C27_2 1_555 1_555
H40_2 C28_2 1_555 1_555
C29_2 C28_2 1_555 1_555
H43_2 C29_2 1_555 1_555
C30_2 H44_2 1_555 1_555
H45_2 C30_2 1_555 1_555
O34_2 Cd1_2 1_555 1_555
C31_2 C32_2 1_555 1_555
C32_2 H46 1_555 1_555
C33_2 C32_2 1_555 1_555
H47_2 C33_2 1_555 1_555
H48_2 C33_2 1_555 1_555
C34 C33_2 1_555 1_555
H49 C34 1_555 1_555
H50_2 C34 1_555 1_555
Cd5 O33_2 1_555 1_555
O33_2 C31_2 1_555 1_555
O36_2 C31_2 1_555 1_555
C19_3 H28_3 1_555 1_555
H29_3 C19_3 1_555 1_555
C20_3 C19_3 1_555 1_555
H30_3 C20_3 1_555 1_555
H31_3 C20_3 1_555 1_555
C23_3 C19_3 1_555 1_555
H36_3 C23_3 1_555 1_555
C24_3 C23_3 1_555 1_555
Cd6 O23_3 1_555 1_555
O22_3 C24_3 1_555 1_555
O23_3 C24_3 1_555 1_555
O24_3 Cd6 1_555 1_555
O40_3 Cd6 1_555 1_555
C8_3 H10_3 1_555 1_555
C9_3 C8_3 1_555 1_555
H11_3 C9_3 1_555 1_555
H12_3 C9_3 1_555 1_555
C10_3 C9_3 1_555 1_555
H13_3 C10_3 1_555 1_555
C11_3 C10_3 1_555 1_555
H16_3 C11_3 1_555 1_555
C12_3 H17_3 1_555 1_555
H18_3 C12_3 1_555 1_555
C18_3 H26_3 1_555 1_555
H27_3 C18_3 1_555 1_555
O15_3 P3_3 1_555 1_555
O16_3 P3_3 1_555 1_555
O17_3 P3_3 1_555 1_555
P3_3 C18_3 1_555 1_555
H32_3 C21_3 1_555 1_555
H33_3 C21_3 1_555 1_555
C22_3 H34_3 1_555 1_555
H35_3 C22_3 1_555 1_555
C25_3 C26_3 1_555 1_555
C26_3 H37_3 1_555 1_555
C27_3 C26_3 1_555 1_555
H38_3 C27_3 1_555 1_555
H39_3 C27_3 1_555 1_555
C28_3 C27_3 1_555 1_555
H40_3 C28_3 1_555 1_555
H41_3 C28_3 1_555 1_555
C29_3 C28_3 1_555 1_555
H42_3 C29_3 1_555 1_555
H43_3 C29_3 1_555 1_555
C30_3 H44_3 1_555 1_555
H45_3 C30_3 1_555 1_555
C31_3 C32_3 1_555 1_555
C33_3 C32_3 1_555 1_555
H47_3 C33_3 1_555 1_555
H48_3 C33_3 1_555 1_555
H51_3 C35_3 1_555 1_555
N4_3 C21_3 1_555 1_555
N5_3 C32_3 1_555 1_555
N6_3 C26_3 1_555 1_555
O19_3 P4_3 1_555 1_555
O20_3 Zn4_4 1_555 1_555
O21_3 P4_3 1_555 1_555
O26_3 C25_3 1_555 1_555
O29_2 C25_3 1_555 1_555
O30_3 Zn4_4 1_555 1_555
O31_3 P5_3 1_555 1_555
O35 C31_3 1_555 1_555
O36_3 C31_3 1_555 1_555
P4_3 C22_3 1_555 1_555
P5_3 C30_3 1_555 1_555
Zn5_3 N5_3 1_555 1_555
Zn6_3 O12_3 1_555 1_555
Zn7_3 O16_3 1_555 1_555
O15_3 Zn6_3 1_555 1_555
O17_3 Zn4_4 1_555 1_555
C22_3 N4_3 1_555 1_555
C29_3 N6_3 1_555 1_555
C30_3 N6_3 1_555 1_555
C35_3 N5_3 1_555 1_555
N4_3 Zn6_3 1_555 1_555
N6_3 Zn7_3 1_555 1_555
O19_3 Zn5_3 1_555 1_555
O20_3 P4_3 1_555 1_555
O20_3 Zn6_3 1_555 1_555
O21_3 Zn7_3 1_555 1_555
O26_3 Zn7_3 1_555 1_555
O30_3 P5_3 1_555 1_555
O30_3 Zn7_3 1_555 1_555
O31_3 Zn5_3 1_555 1_555
O36_3 Zn5_3 1_555 1_555
C1_3 H1_3 1_555 1_555
H2_3 C1_3 1_555 1_555
C2_3 C1_3 1_555 1_555
H3_3 C2_3 1_555 1_555
H4_3 C2_3 1_555 1_555
C3_3 C2_3 1_555 1_555
H5_3 C3_3 1_555 1_555
H6_3 C3_3 1_555 1_555
C4_3 H7_3 1_555 1_555
H8_3 C4_3 1_555 1_555
C5_3 C1_3 1_555 1_555
H9_3 C5_3 1_555 1_555
C6_3 C5_3 1_555 1_555
H24_3 C17_3 1_555 1_555
Cd4 O5_3 1_555 1_555
N1_3 C3_3 1_555 1_555
O1_3 P1_3 1_555 1_555
O2_3 P1_3 1_555 1_555
O3_3 P1_3 1_555 1_555
O4_3 C6_3 1_555 1_555
O5_3 C6_3 1_555 1_555
O6_3 Cd4 1_555 1_555
O7_3 Cd4 1_555 1_555
O8_3 C7_3 1_555 1_555
O10_3 P2_3 1_555 1_555
O11_3 P2_3 1_555 1_555
P1_3 C4_3 1_555 1_555
Zn1_3 N2_3 1_555 1_555
Zn2_3 N1_3 1_555 1_555
Zn3_3 N3_3 1_555 1_555
Zn4_5 O2_3 1_555 1_555
O18_3 Cd4 1_555 1_555
H49_2 C34_2 1_555 1_555
C36_3 H53_3 1_555 1_555
H54_3 C36_3 1_555 1_555
O32_3 Zn2_3 1_555 1_555
O37_3 Zn2_3 1_555 1_555
O38_3 Zn3_3 1_555 1_555
O39_3 Zn4_5 1_555 1_555
P6_3 C36_3 1_555 1_555
C4_3 N1_3 1_555 1_555
C5_3 N1_3 1_555 1_555
C17_3 N2_3 1_555 1_555
O1_3 Zn1_3 1_555 1_555
O2_3 Zn2_3 1_555 1_555
O3_3 Zn3_3 1_555 1_555
O4_3 Zn2_3 1_555 1_555
O8_3 Zn3_3 1_555 1_555
O10_3 Zn3_3 1_555 1_555
O10_3 Zn4_5 1_555 1_555
O11_3 Zn1_3 1_555 1_555
O37_3 P6_3 1_555 1_555
O38_3 P6_3 1_555 1_555
O39_3 P6_3 1_555 1_555
C13_3 C14_3 1_555 1_555
C15_3 C14_3 1_555 1_555
H20_3 C15_3 1_555 1_555
H21_3 C15_3 1_555 1_555
O34 C13_3 1_555 1_555
O14_3 C13_3 1_555 1_555
C13_4 C14_4 1_555 1_555
C14_4 H19_3 1_555 1_555
C15_4 C14_4 1_555 1_555
H20_4 C15_4 1_555 1_555
H21_4 C15_4 1_555 1_555
C16_3 C15_4 1_555 1_555
H22_3 C16_3 1_555 1_555
H23_4 C16_3 1_555 1_555
O34_2 C13_4 1_555 1_555
O14_4 C13_4 1_555 1_555
C8_4 H10_4 1_555 1_555
C9_4 C8_4 1_555 1_555
H11_4 C9_4 1_555 1_555
H12_4 C9_4 1_555 1_555
C10_4 C9_4 1_555 1_555
H13_4 C10_4 1_555 1_555
C11_4 C10_4 1_555 1_555
H16_4 C11_4 1_555 1_555
C12_4 H17_4 1_555 1_555
H18_4 C12_4 1_555 1_555
C19_4 H28_4 1_555 1_555
H29_4 C19_4 1_555 1_555
C20_4 C19_4 1_555 1_555
H30_4 C20_4 1_555 1_555
H31_4 C20_4 1_555 1_555
C23_4 C19_4 1_555 1_555
H36_4 C23_4 1_555 1_555
C24_4 C23_4 1_555 1_555
Cd5 O23_4 1_555 1_555
O22_4 C24_4 1_555 1_555
O23_4 C24_4 1_555 1_555
O24_4 Cd5 1_555 1_555
O40_4 Cd5 1_555 1_555
C1_4 H1_4 1_555 1_555
H2_4 C1_4 1_555 1_555
C2_4 C1_4 1_555 1_555
H3_4 C2_4 1_555 1_555
H4_4 C2_4 1_555 1_555
C3_4 C2_4 1_555 1_555
H5_4 C3_4 1_555 1_555
H6_4 C3_4 1_555 1_555
C4_4 H7_4 1_555 1_555
H8_4 C4_4 1_555 1_555
C5_4 C1_4 1_555 1_555
H9_4 C5_4 1_555 1_555
C6_4 C5_4 1_555 1_555
H24_4 C17_4 1_555 1_555
H25_4 C17_4 1_555 1_555
C18_4 H26_4 1_555 1_555
H27_4 C18_4 1_555 1_555
Cd3 O5_4 1_555 1_555
N1_4 C3_4 1_555 1_555
O1_4 P1_4 1_555 1_555
O2_4 P1_4 1_555 1_555
O3_4 P1_4 1_555 1_555
O4_4 C6_4 1_555 1_555
O5_4 C6_4 1_555 1_555
O6_4 Cd3 1_555 1_555
O7_4 Cd3 1_555 1_555
O8_4 C7_4 1_555 1_555
O10_4 P2_4 1_555 1_555
O11_4 P2_4 1_555 1_555
O12_4 P2_4 1_555 1_555
O15_4 P3_4 1_555 1_555
O16_4 P3_4 1_555 1_555
O17_4 P3_4 1_555 1_555
P1_4 C4_4 1_555 1_555
P3_4 C18_4 1_555 1_555
Zn1_4 N2_4 1_555 1_555
Zn2_4 N1_4 1_555 1_555
Zn3_4 N3_4 1_555 1_555
Zn4_6 O2_4 1_555 1_555
O18_4 Cd3 1_555 1_555
H32_4 C21_4 1_555 1_555
H33_4 C21_4 1_555 1_555
C22_4 H34_4 1_555 1_555
H35_4 C22_4 1_555 1_555
C25_4 C26_4 1_555 1_555
C26_4 H37_4 1_555 1_555
C27_4 C26_4 1_555 1_555
H38_4 C27_4 1_555 1_555
H39_4 C27_4 1_555 1_555
C28_4 C27_4 1_555 1_555
H40_4 C28_4 1_555 1_555
H41_4 C28_4 1_555 1_555
C29_4 C28_4 1_555 1_555
H42_4 C29_4 1_555 1_555
H43_4 C29_4 1_555 1_555
C30_4 H44_4 1_555 1_555
H45_4 C30_4 1_555 1_555
C31_4 C32_4 1_555 1_555
C32_4 H46_3 1_555 1_555
C33_4 C32_4 1_555 1_555
H47_4 C33_4 1_555 1_555
H48_4 C33_4 1_555 1_555
C34_3 C33_4 1_555 1_555
H49_3 C34_3 1_555 1_555
H50_4 C34_3 1_555 1_555
C35_4 C34_3 1_555 1_555
H51_4 C35_4 1_555 1_555
H52_4 C35_4 1_555 1_555
C36_4 H53_4 1_555 1_555
H54_4 C36_4 1_555 1_555
N4_4 C21_4 1_555 1_555
N5_4 C32_4 1_555 1_555
N6_4 C26_4 1_555 1_555
O19_4 P4_4 1_555 1_555
O20_4 Zn4_6 1_555 1_555
O21_4 P4_4 1_555 1_555
O26_4 C25_4 1_555 1_555
O29 C25_4 1_555 1_555
O30_4 Zn4_6 1_555 1_555
O31_4 P5_4 1_555 1_555
O32_4 Zn2_4 1_555 1_555
O35_2 C31_4 1_555 1_555
O36_4 C31_4 1_555 1_555
O37_4 Zn2_4 1_555 1_555
O38_4 Zn3_4 1_555 1_555
O39_4 Zn4_6 1_555 1_555
P4_4 C22_4 1_555 1_555
P5_4 C30_4 1_555 1_555
P6_4 C36_4 1_555 1_555
Zn5_4 N5_4 1_555 1_555
Zn6_4 O12_4 1_555 1_555
Zn7_4 O16_4 1_555 1_555
C4_4 N1_4 1_555 1_555
C5_4 N1_4 1_555 1_555
C17_4 N2_4 1_555 1_555
C18_4 N2_4 1_555 1_555
O1_4 Zn1_4 1_555 1_555
O2_4 Zn2_4 1_555 1_555
O3_4 Zn3_4 1_555 1_555
O4_4 Zn2_4 1_555 1_555
O8_4 Zn3_4 1_555 1_555
O10_4 Zn3_4 1_555 1_555
O10_4 Zn4_6 1_555 1_555
O11_4 Zn1_4 1_555 1_555
O15_4 Zn6_4 1_555 1_555
O17_4 Zn1_4 1_555 1_555
O17_4 Zn4_6 1_555 1_555
C22_4 N4_4 1_555 1_555
C29_4 N6_4 1_555 1_555
C30_4 N6_4 1_555 1_555
C35_4 N5_4 1_555 1_555
C36_4 N5_4 1_555 1_555
N4_4 Zn6_4 1_555 1_555
N6_4 Zn7_4 1_555 1_555
O19_4 Zn5_4 1_555 1_555
O20_4 P4_4 1_555 1_555
O20_4 Zn6_4 1_555 1_555
O21_4 Zn7_4 1_555 1_555
O26_4 Zn7_4 1_555 1_555
O30_4 P5_4 1_555 1_555
O30_4 Zn7_4 1_555 1_555
O31_4 Zn5_4 1_555 1_555
O32_4 P5_4 1_555 1_555
O36_4 Zn5_4 1_555 1_555
O37_4 P6_4 1_555 1_555
O38_4 P6_4 1_555 1_555
O39_4 P6_4 1_555 1_555
O39_4 Zn5_4 1_555 1_555
H49_4 C34_4 1_555 1_555
H22_4 C16_4 1_555 1_555

#END
