
###############################################################################
#
# This file contains modified crystal structure data generated from the
# MOF subset of the Cambridge Structural Database (CSD) v543 
# hosted by the Cambridge Crystallographic Data Centre (CCDC).
#
# This work is licensed under the Creative Commons
# Attribution-NonCommercial-ShareAlike 4.0 International License.
# To view a copy of this license, visit
# http://creativecommons.org/licenses/by-nc-sa/4.0/
# or send a letter to
# Creative Commons, PO Box 1866, Mountain View, CA 94042, USA.
#
# CIF created using the CSD Python API on 29 September 2022
# The structure has been converted into the P1 space group
# The structure has a 3D framework
# The original CSD entry XUCSAR01 is in the monoclinic crystal system
# The framework has been calculated to contain at least 10.0% void space
# The void calculation uses a probe of radius 1.32A, grid spacing 0.4
# H atom positions have been added when not included in the experimental data
# Generated hydrogen atom positions removed from atoms on special positions
#
###############################################################################

data_XUCSAR01
_chemical_formula_moiety         '(C84 H104 N24 O92 Y12)n'
_symmetry_cell_setting           triclinic
_symmetry_space_group_name_H-M   'P 1'
_symmetry_Int_Tables_number      1
_space_group_name_Hall           'P 1'
loop_
_symmetry_equiv_pos_site_id
_symmetry_equiv_pos_as_xyz
1 x,y,z
_cell_length_a                   9.6084(5)
_cell_length_b                   15.8032(10)
_cell_length_c                   23.7927(8)
_cell_angle_alpha                90
_cell_angle_beta                 96.840(6)
_cell_angle_gamma                90
_cell_volume                     3587.05
loop_
_atom_site_label
_atom_site_type_symbol
_atom_site_fract_x
_atom_site_fract_y
_atom_site_fract_z
O44 O 0.3936(5) 0.1922(3) 0.7830(2)
O45 O 0.3123(6) 0.2705(4) 0.7077(2)
N12 N 0.0501(7) 0.2414(4) 0.7226(3)
C38 C 0.2978(8) 0.2225(5) 0.7479(3)
C39 C 0.1167(8) 0.1447(5) 0.7979(3)
C40 C 0.1489(8) 0.1992(5) 0.7566(3)
O48 O 0.0127(6) 0.0592(4) 0.8905(2)
H11 H 0.201(7) 0.116(4) 0.823(3)
Y8 Y 0.13081(8) 0.32542(5) 0.97801(3)
Y10 Y 0.13386(8) 0.33480(5) 0.64242(4)
Y16 Y 0.63449(8) 0.17813(5) 0.80701(3)
O12 O 0.5640(6) 0.0404(3) 0.7699(2)
O16 O 0.5268(6) 0.0965(4) 0.8740(2)
C14 C 0.4942(8) 0.0223(5) 0.8624(3)
O6 O 0.0183(5) 0.4116(3) 0.0435(2)
O27 O 0.2883(5) 0.4289(3) 0.0183(2)
O32 O 0.5090(5) 0.4428(3) 0.0591(2)
C27 C 0.4190(8) 0.4179(5) 0.0206(3)
O34 O 0.3929(6) 0.1839(4) 0.1177(2)
O37 O 0.3126(5) 0.2630(3) 0.0436(2)
N10 N 0.0477(7) 0.2332(4) 0.0586(3)
C30 C 0.2973(8) 0.2143(5) 0.0835(4)
C31 C 0.1154(9) 0.1375(5) 0.1335(3)
C32 C 0.1467(8) 0.1922(5) 0.0932(3)
O42 O 0.0149(6) 0.0501(3) 0.2253(2)
H9 H 0.184(6) 0.114(3) 0.155(2)
O49 O 0.1121(5) 0.6932(3) 0.0449(2)
Y11 Y 0.63386(8) 0.16520(5) 0.14242(4)
Y2 Y 0.36614(8) 0.83480(5) 0.85758(4)
O9 O 0.2067(5) 0.9363(4) 0.8164(2)
O11 O 0.4430(6) 0.9696(4) 0.8944(2)
O14 O 0.3453(6) 0.6912(4) 0.8840(3)
O15 O 0.4748(6) 0.9151(3) 0.7905(2)
O17 O 0.3972(7) 0.8312(5) 0.9596(3)
N3 N 0.1251(7) 0.8312(4) 0.8934(3)
C8 C 0.0254(8) 0.8719(5) 0.8593(3)
C12 C 0.0741(8) 0.9243(5) 0.8120(3)
C13 C 0.0834(8) 0.7807(5) 0.9326(3)
C15 C 0.5135(8) 0.9901(5) 0.8022(4)
H4 H 0.156(9) 0.758(5) 0.952(4)
O25 O 0.0494(6) 0.4572(3) 0.9381(2)
C22 C 0.0103(8) 0.5131(5) 0.9694(3)
O28 O 0.8879(5) 0.3068(3) 0.9551(2)
O29 O 0.8132(5) 0.2458(3) 0.8730(2)
O30 O 0.1596(6) 0.1810(3) 0.9529(3)
O31 O 0.0955(6) 0.3136(3) 0.8764(2)
N7 N 0.3703(7) 0.3281(4) 0.9386(3)
N8 N 0.5461(7) 0.2680(4) 0.8883(3)
C23 C 0.4699(8) 0.3677(4) 0.9739(3)
C24 C 0.7946(8) 0.2844(5) 0.9171(3)
C25 C 0.6118(8) 0.3588(5) 0.9680(3)
C26 C 0.6448(8) 0.3061(5) 0.9253(3)
C28 C 0.4132(8) 0.2809(5) 0.8968(3)
H7 H 0.679(9) 0.394(6) 0.987(4)
H8 H 0.354(7) 0.247(4) 0.873(3)
O43 O 0.7928(6) 0.0771(3) 0.8495(2)
O46 O 0.6646(6) 0.3216(3) 0.7811(2)
O47 O 0.6058(6) 0.1810(3) 0.7055(2)
N11 N 0.8769(7) 0.1782(4) 0.7719(3)
C37 C 0.9747(8) 0.1360(5) 0.8045(3)
C41 C 0.9242(8) 0.0861(5) 0.8511(3)
C42 C 0.9198(8) 0.2285(5) 0.7319(4)
H12 H 0.850(7) 0.259(4) 0.709(3)
O51 O 0.6071(6) 0.8161(4) 0.8823(2)
O60 O 0.1877(6) 0.7705(4) 0.7923(2)
N14 N 0.4499(7) 0.7414(4) 0.7774(3)
Y1 Y 0.86919(8) 0.67458(5) 0.02199(3)
O3 O 0.9506(6) 0.5428(3) 0.0619(2)
O4 O 0.1868(5) 0.7542(3) 0.1270(2)
O5 O 0.8404(6) 0.8190(3) 0.0471(3)
O7 O 0.9045(6) 0.6864(3) 0.1236(2)
N1 N 0.6297(7) 0.6719(4) 0.0614(3)
N2 N 0.4539(7) 0.7320(4) 0.1117(3)
C1 C 0.5301(8) 0.6323(4) 0.0261(3)
C2 C 0.2054(8) 0.7156(5) 0.0829(3)
C3 C 0.3882(8) 0.6412(5) 0.0320(3)
C4 C 0.3552(8) 0.6939(5) 0.0747(3)
C6 C 0.5868(8) 0.7191(5) 0.1032(3)
C7 C 0.9897(8) 0.4869(5) 0.0306(3)
H1 H 0.321(9) 0.606(6) 0.013(4)
H2 H 0.646(7) 0.753(4) 0.127(3)
Y3 Y 0.36551(8) 0.82187(5) 0.19299(3)
O19 O 0.2072(6) 0.9229(3) 0.1505(2)
O22 O 0.3354(6) 0.6784(3) 0.2189(2)
O23 O 0.3942(6) 0.8190(3) 0.2945(2)
N5 N 0.1231(7) 0.8218(4) 0.2281(3)
C16 C 0.0253(8) 0.8640(5) 0.1955(3)
C20 C 0.0758(8) 0.9139(5) 0.1489(3)
C21 C 0.0802(8) 0.7715(5) 0.2681(4)
H6 H 0.150(7) 0.741(4) 0.291(3)
O33 O 0.7933(5) 0.0637(4) 0.1836(2)
O35 O 0.5570(6) 0.0304(4) 0.1056(2)
O38 O 0.6547(6) 0.3088(4) 0.1160(3)
O39 O 0.5252(6) 0.0849(3) 0.2095(2)
O41 O 0.6028(7) 0.1688(5) 0.0404(3)
N9 N 0.8749(7) 0.1688(4) 0.1066(3)
C29 C 0.9746(8) 0.1281(5) 0.1407(3)
C33 C 0.9259(8) 0.0757(5) 0.1880(3)
C34 C 0.9166(8) 0.2193(5) 0.0674(3)
C36 C 0.4865(8) 0.0099(5) 0.1978(4)
H10 H 0.844(9) 0.242(5) 0.048(4)
O54 O 0.4360(6) 0.9596(3) 0.2301(2)
O56 O 0.4732(6) 0.9035(4) 0.1260(2)
O57 O 0.6064(5) 0.8078(3) 0.2170(2)
O59 O 0.8123(6) 0.2295(4) 0.2077(2)
N13 N 0.5501(7) 0.2586(4) 0.2226(3)
O1 O 0.7117(5) 0.5711(3) 0.9817(2)
O8 O 0.4910(5) 0.5572(3) 0.9409(2)
C5 C 0.5810(8) 0.5821(5) 0.9794(3)
O13 O 0.6874(5) 0.7370(3) 0.9564(2)
N4 N 0.9523(7) 0.7668(4) 0.9414(3)
C9 C 0.7027(8) 0.7857(5) 0.9165(4)
C10 C 0.8846(9) 0.8625(5) 0.8665(3)
C11 C 0.8533(8) 0.8078(5) 0.9068(3)
O18 O 0.9851(6) 0.9499(3) 0.7747(2)
H3 H 0.816(6) 0.886(3) 0.845(2)
O26 O 0.9817(5) 0.5884(3) 0.9565(2)
C35 C 0.5058(8) 0.9777(5) 0.1376(3)
O21 O 0.6877(6) 0.7295(4) 0.2923(2)
N6 N 0.9499(7) 0.7586(4) 0.2774(3)
C17 C 0.7022(8) 0.7775(5) 0.2521(3)
C18 C 0.8833(8) 0.8553(5) 0.2021(3)
C19 C 0.8511(8) 0.8008(5) 0.2434(3)
O24 O 0.9873(6) 0.9408(4) 0.1095(2)
H5 H 0.799(7) 0.884(4) 0.177(3)
Y12 Y 0.86614(8) 0.66520(5) 0.35758(4)
Y13 Y 0.13449(8) 0.32187(5) 0.30701(3)
O2 O 0.3879(5) 0.1932(3) 0.4551(2)
O4_2 O 0.3132(5) 0.2542(3) 0.3730(2)
N2_2 N 0.0461(7) 0.2320(4) 0.3883(3)
C2_2 C 0.2946(8) 0.2156(5) 0.4171(3)
C3_2 C 0.1118(8) 0.1412(5) 0.4680(3)
C4_2 C 0.1448(8) 0.1939(5) 0.4253(3)
O8_2 O 0.0090(5) 0.0572(3) 0.5591(2)
H1_2 H 0.179(9) 0.106(6) 0.487(4)
O19_2 O 0.2928(6) 0.4229(3) 0.3495(2)
O20 O 0.8936(5) 0.3078(3) 0.2830(2)
O22_2 O 0.1646(6) 0.1784(3) 0.2811(2)
O23_2 O 0.1058(6) 0.3190(3) 0.2055(2)
N5_2 N 0.3769(7) 0.3218(4) 0.2719(3)
C16_2 C 0.4747(8) 0.3640(5) 0.3045(3)
C17_2 C 0.7978(8) 0.2775(5) 0.2479(3)
C18_2 C 0.6167(8) 0.3553(5) 0.2979(3)
C19_2 C 0.6489(8) 0.3008(5) 0.2566(3)
O24_2 O 0.5127(6) 0.4408(4) 0.3905(2)
C20_2 C 0.4242(8) 0.4139(5) 0.3511(3)
C21_2 C 0.4198(8) 0.2715(5) 0.2319(4)
H5_2 H 0.701(7) 0.384(4) 0.323(3)
H6_2 H 0.350(7) 0.241(4) 0.209(3)
Y7 Y 0.63081(8) 0.17458(5) 0.47801(3)
O54_2 O 0.0640(6) 0.4596(3) 0.2699(2)
O56_2 O 0.0268(6) 0.4035(4) 0.3740(2)
C36_2 C 0.0135(8) 0.5099(5) 0.3022(4)
O52 O 0.1071(6) 0.6839(4) 0.3823(2)
O1_2 O 0.7883(5) 0.0711(3) 0.5183(2)
O3_2 O 0.5494(6) 0.0428(3) 0.4381(2)
O5_2 O 0.6596(6) 0.3190(3) 0.4529(3)
O7_2 O 0.5955(6) 0.1864(3) 0.3764(2)
N1_2 N 0.8703(7) 0.1719(4) 0.4386(3)
C1_2 C 0.9699(8) 0.1323(4) 0.4739(3)
C5_2 C 0.9190(8) 0.0821(5) 0.5206(3)
C6_2 C 0.9132(8) 0.2191(5) 0.3968(3)
H2_2 H 0.854(7) 0.253(4) 0.373(3)
O9_2 O 0.2933(5) 0.4363(4) 0.6836(2)
O10 O 0.8929(6) 0.3161(4) 0.6177(2)
O11_2 O 0.0570(6) 0.4696(4) 0.6056(2)
O13_2 O 0.8126(5) 0.2370(3) 0.5436(2)
O14_2 O 0.1547(6) 0.1912(4) 0.6160(3)
O15_2 O 0.0252(6) 0.4151(3) 0.7095(2)
O17_2 O 0.1028(7) 0.3312(5) 0.5404(3)
N3_2 N 0.3749(7) 0.3312(4) 0.6066(3)
N4_2 N 0.5477(7) 0.2668(4) 0.5586(3)
C8_2 C 0.4746(8) 0.3719(5) 0.6407(3)
C9_2 C 0.7973(8) 0.2857(5) 0.5835(4)
C10_2 C 0.6154(9) 0.3625(5) 0.6335(3)
C11_2 C 0.6467(8) 0.3078(5) 0.5932(3)
O18_2 O 0.5149(6) 0.4499(3) 0.7253(2)
C12_2 C 0.4259(8) 0.4243(5) 0.6880(3)
C13_2 C 0.4166(8) 0.2807(5) 0.5674(3)
C14_2 C 0.0058(8) 0.5223(5) 0.6376(3)
H3_2 H 0.684(6) 0.386(3) 0.655(2)
H4_2 H 0.344(9) 0.258(5) 0.548(4)
O26_2 O 0.5183(5) 0.0884(3) 0.5435(2)
C22_2 C 0.4897(8) 0.0131(5) 0.5306(3)
O6_2 O 0.4817(5) 0.9116(3) 0.4565(2)
C7_2 C 0.5103(8) 0.9869(5) 0.4694(3)
O25_2 O 0.4506(6) 0.9572(3) 0.5619(2)
Y4 Y 0.36919(8) 0.82542(5) 0.52199(3)
O27_2 O 0.2117(5) 0.9289(3) 0.4817(2)
O30_2 O 0.3404(6) 0.6810(3) 0.5471(3)
O31_2 O 0.4045(6) 0.8136(3) 0.6236(2)
N7_2 N 0.1297(7) 0.8281(4) 0.5614(3)
C23_2 C 0.0301(8) 0.8677(4) 0.5261(3)
C27_2 C 0.0810(8) 0.9179(5) 0.4794(3)
C28_2 C 0.0868(8) 0.7809(5) 0.6032(3)
H8_2 H 0.146(7) 0.747(4) 0.627(3)
O33_2 O 0.7067(5) 0.5637(4) 0.3164(2)
O35_2 O 0.9430(6) 0.5304(4) 0.3944(2)
O37_2 O 0.1874(5) 0.7630(3) 0.4564(2)
O38_2 O 0.8453(6) 0.8088(4) 0.3840(3)
O39_2 O 0.9748(6) 0.5849(3) 0.2905(2)
O41_2 O 0.8972(7) 0.6688(5) 0.4596(3)
N9_2 N 0.6251(7) 0.6688(4) 0.3934(3)
N10_2 N 0.4523(7) 0.7332(4) 0.4414(3)
C29_2 C 0.5254(8) 0.6281(5) 0.3593(3)
C30_2 C 0.2027(8) 0.7143(5) 0.4165(4)
C31_2 C 0.3846(9) 0.6375(5) 0.3665(3)
C32_2 C 0.3533(8) 0.6922(5) 0.4068(3)
O42_2 O 0.4851(6) 0.5501(3) 0.2747(2)
C33_2 C 0.5741(8) 0.5757(5) 0.3120(3)
C34_2 C 0.5834(8) 0.7193(5) 0.4326(3)
C35_2 C 0.9942(8) 0.4777(5) 0.3624(3)
H9_2 H 0.316(6) 0.614(3) 0.345(2)
H10_2 H 0.656(9) 0.742(5) 0.452(4)
O50 O 0.6121(5) 0.8068(3) 0.5449(2)
O58 O 0.1064(5) 0.6922(3) 0.7170(2)
O12_2 O 0.9360(6) 0.5404(3) 0.7301(2)
O16_2 O 0.9732(6) 0.5965(4) 0.6260(2)
C15_2 C 0.9865(8) 0.4901(5) 0.6978(4)
Y15 Y 0.86551(8) 0.67813(5) 0.69299(3)
O29_2 O 0.6868(5) 0.7458(3) 0.6270(2)
N8_2 N 0.9539(7) 0.7680(4) 0.6117(3)
C24_2 C 0.7054(8) 0.7844(5) 0.5829(3)
C25_2 C 0.8882(8) 0.8588(5) 0.5320(3)
C26_2 C 0.8552(8) 0.8061(5) 0.5747(3)
O32_2 O 0.9910(5) 0.9428(3) 0.4409(2)
H7_2 H 0.821(9) 0.894(6) 0.513(4)
O43_2 O 0.7072(6) 0.5771(3) 0.6505(2)
O46_2 O 0.8354(6) 0.8216(3) 0.7189(2)
O47_2 O 0.8942(6) 0.6810(3) 0.7945(2)
N11_2 N 0.6231(7) 0.6782(4) 0.7281(3)
C37_2 C 0.5253(8) 0.6360(5) 0.6955(3)
C38_2 C 0.2022(8) 0.7225(5) 0.7521(3)
C39_2 C 0.3833(8) 0.6447(5) 0.7021(3)
C40_2 C 0.3511(8) 0.6992(5) 0.7434(3)
O48_2 O 0.4873(6) 0.5592(4) 0.6095(2)
C41_2 C 0.5758(8) 0.5861(5) 0.6489(3)
C42_2 C 0.5802(8) 0.7285(5) 0.7681(4)
H11_2 H 0.299(7) 0.616(4) 0.677(3)
H12_2 H 0.650(7) 0.759(4) 0.791(3)
loop_
_geom_bond_atom_site_label_1
_geom_bond_atom_site_label_2
_geom_bond_site_symmetry_1
_geom_bond_site_symmetry_2
O44 C38 1_555 1_555
O45 C38 1_555 1_555
N12 C40 1_555 1_555
C38 C40 1_555 1_555
C40 C39 1_555 1_555
H11 C39 1_555 1_555
Y10 O45 1_555 1_555
Y16 O44 1_555 1_555
N12 Y10 1_555 1_555
O16 C14 1_555 1_555
Y16 O12 1_555 1_555
O16 Y16 1_555 1_555
O32 C27 1_555 1_555
C27 O27 1_555 1_555
O34 C30 1_555 1_555
C30 O37 1_555 1_555
C32 N10 1_555 1_555
H9 C31 1_555 1_555
Y11 O34 1_555 1_555
C30 C32 1_555 1_555
C31 C32 1_555 1_555
Y2 O9 1_555 1_555
O9 C12 1_555 1_555
O11 Y2 1_555 1_555
O14 Y2 1_555 1_555
O15 Y2 1_555 1_555
O17 Y2 1_555 1_555
N3 Y2 1_555 1_555
C8 N3 1_555 1_555
C12 C8 1_555 1_555
C13 N3 1_555 1_555
C15 O15 1_555 1_555
H4 C13 1_555 1_555
O25 C22 1_555 1_555
O28 C24 1_555 1_555
O29 C24 1_555 1_555
O30 Y8 1_555 1_555
O31 Y8 1_555 1_555
N7 Y8 1_555 1_555
N8 C26 1_555 1_555
C23 N7 1_555 1_555
C24 C26 1_555 1_555
C25 C23 1_555 1_555
C26 C25 1_555 1_555
C28 N7 1_555 1_555
H7 C25 1_555 1_555
H8 C28 1_555 1_555
Y16 O29 1_555 1_555
O43 Y16 1_555 1_555
O46 Y16 1_555 1_555
O47 Y16 1_555 1_555
N11 Y16 1_555 1_555
C37 N11 1_555 1_555
C41 O43 1_555 1_555
C42 N11 1_555 1_555
H12 C42 1_555 1_555
O51 Y2 1_555 1_555
O60 Y2 1_555 1_555
N14 Y2 1_555 1_555
O25 Y8 1_555 1_555
N8 C28 1_555 1_555
N8 Y16 1_555 1_555
C37 C41 1_555 1_555
O49 C2 1_555 1_555
O3 Y1 1_555 1_555
O4 C2 1_555 1_555
O5 Y1 1_555 1_555
O7 Y1 1_555 1_555
N1 Y1 1_555 1_555
N2 C4 1_555 1_555
C1 N1 1_555 1_555
C2 C4 1_555 1_555
C3 C1 1_555 1_555
C4 C3 1_555 1_555
C6 N1 1_555 1_555
C7 O3 1_555 1_555
H1 C3 1_555 1_555
H2 C6 1_555 1_555
Y3 O4 1_555 1_555
O19 Y3 1_555 1_555
O22 Y3 1_555 1_555
O23 Y3 1_555 1_555
N5 Y3 1_555 1_555
C16 N5 1_555 1_555
C20 O19 1_555 1_555
C21 N5 1_555 1_555
H6 C21 1_555 1_555
Y11 O33 1_555 1_555
O33 C33 1_555 1_555
O35 Y11 1_555 1_555
O38 Y11 1_555 1_555
O39 Y11 1_555 1_555
O41 Y11 1_555 1_555
N9 Y11 1_555 1_555
C29 N9 1_555 1_555
C33 C29 1_555 1_555
C34 N9 1_555 1_555
C36 O39 1_555 1_555
H10 C34 1_555 1_555
O54 Y3 1_555 1_555
O56 Y3 1_555 1_555
O57 Y3 1_555 1_555
O59 Y11 1_555 1_555
N13 Y11 1_555 1_555
N2 C6 1_555 1_555
N2 Y3 1_555 1_555
C16 C20 1_555 1_555
O1 C5 1_555 1_555
O8 C5 1_555 1_555
O51 C9 1_555 1_555
C9 O13 1_555 1_555
C11 N4 1_555 1_555
H3 C10 1_555 1_555
C9 C11 1_555 1_555
C10 C11 1_555 1_555
O56 C35 1_555 1_555
O57 C17 1_555 1_555
O21 C17 1_555 1_555
N6 C19 1_555 1_555
C17 C19 1_555 1_555
C19 C18 1_555 1_555
H5 C18 1_555 1_555
Y12 O21 1_555 1_555
N6 Y12 1_555 1_555
O2 C2_2 1_555 1_555
O4_2 C2_2 1_555 1_555
N2_2 C4_2 1_555 1_555
C2_2 C4_2 1_555 1_555
C4_2 C3_2 1_555 1_555
H1_2 C3_2 1_555 1_555
Y13 O4_2 1_555 1_555
O19_2 Y13 1_555 1_555
O20 C17_2 1_555 1_555
O59 C17_2 1_555 1_555
O22_2 Y13 1_555 1_555
O23_2 Y13 1_555 1_555
N5_2 Y13 1_555 1_555
N13 C19_2 1_555 1_555
C16_2 N5_2 1_555 1_555
C17_2 C19_2 1_555 1_555
C18_2 C16_2 1_555 1_555
C19_2 C18_2 1_555 1_555
O24_2 C20_2 1_555 1_555
C20_2 O19_2 1_555 1_555
C21_2 N5_2 1_555 1_555
H5_2 C18_2 1_555 1_555
H6_2 C21_2 1_555 1_555
Y7 O2 1_555 1_555
O54_2 Y13 1_555 1_555
O56_2 Y13 1_555 1_555
N2_2 Y13 1_555 1_555
N13 C21_2 1_555 1_555
C16_2 C20_2 1_555 1_555
O54_2 C36_2 1_555 1_555
Y7 O1_2 1_555 1_555
O1_2 C5_2 1_555 1_555
O3_2 Y7 1_555 1_555
O5_2 Y7 1_555 1_555
O7_2 Y7 1_555 1_555
N1_2 Y7 1_555 1_555
C1_2 N1_2 1_555 1_555
C5_2 C1_2 1_555 1_555
C6_2 N1_2 1_555 1_555
H2_2 C6_2 1_555 1_555
Y10 O9_2 1_555 1_555
O9_2 C12_2 1_555 1_555
O10 C9_2 1_555 1_555
O11_2 Y10 1_555 1_555
O13_2 Y7 1_555 1_555
O14_2 Y10 1_555 1_555
O15_2 Y10 1_555 1_555
O17_2 Y10 1_555 1_555
N3_2 Y10 1_555 1_555
N4_2 Y7 1_555 1_555
C8_2 N3_2 1_555 1_555
C9_2 O13_2 1_555 1_555
C10_2 C8_2 1_555 1_555
C11_2 N4_2 1_555 1_555
O18_2 C12_2 1_555 1_555
C12_2 C8_2 1_555 1_555
C13_2 N3_2 1_555 1_555
C14_2 O11_2 1_555 1_555
H3_2 C10_2 1_555 1_555
H4_2 C13_2 1_555 1_555
O26_2 Y7 1_555 1_555
N4_2 C13_2 1_555 1_555
C9_2 C11_2 1_555 1_555
C10_2 C11_2 1_555 1_555
O26_2 C22_2 1_555 1_555
O6_2 C7_2 1_555 1_555
Y4 O6_2 1_555 1_555
O27_2 Y4 1_555 1_555
O30_2 Y4 1_555 1_555
O31_2 Y4 1_555 1_555
N7_2 Y4 1_555 1_555
C23_2 N7_2 1_555 1_555
C27_2 O27_2 1_555 1_555
C28_2 N7_2 1_555 1_555
H8_2 C28_2 1_555 1_555
Y12 O33_2 1_555 1_555
O33_2 C33_2 1_555 1_555
O52 C30_2 1_555 1_555
O35_2 Y12 1_555 1_555
O37_2 Y4 1_555 1_555
O38_2 Y12 1_555 1_555
O39_2 Y12 1_555 1_555
O41_2 Y12 1_555 1_555
N9_2 Y12 1_555 1_555
N10_2 Y4 1_555 1_555
C29_2 N9_2 1_555 1_555
C30_2 O37_2 1_555 1_555
C31_2 C29_2 1_555 1_555
C32_2 N10_2 1_555 1_555
O42_2 C33_2 1_555 1_555
C33_2 C29_2 1_555 1_555
C34_2 N9_2 1_555 1_555
C35_2 O35_2 1_555 1_555
H9_2 C31_2 1_555 1_555
H10_2 C34_2 1_555 1_555
O50 Y4 1_555 1_555
O25_2 Y4 1_555 1_555
C23_2 C27_2 1_555 1_555
N10_2 C34_2 1_555 1_555
C30_2 C32_2 1_555 1_555
C31_2 C32_2 1_555 1_555
O12_2 C15_2 1_555 1_555
Y15 O12_2 1_555 1_555
O16_2 Y15 1_555 1_555
O50 C24_2 1_555 1_555
O29_2 C24_2 1_555 1_555
N8_2 C26_2 1_555 1_555
C24_2 C26_2 1_555 1_555
C26_2 C25_2 1_555 1_555
H7_2 C25_2 1_555 1_555
Y15 O29_2 1_555 1_555
O43_2 Y15 1_555 1_555
O58 C38_2 1_555 1_555
O60 C38_2 1_555 1_555
O46_2 Y15 1_555 1_555
O47_2 Y15 1_555 1_555
N11_2 Y15 1_555 1_555
N14 C40_2 1_555 1_555
C37_2 N11_2 1_555 1_555
C38_2 C40_2 1_555 1_555
C39_2 C37_2 1_555 1_555
C40_2 C39_2 1_555 1_555
O48_2 C41_2 1_555 1_555
C41_2 O43_2 1_555 1_555
C42_2 N11_2 1_555 1_555
H11_2 C39_2 1_555 1_555
H12_2 C42_2 1_555 1_555
N8_2 Y15 1_555 1_555
N14 C42_2 1_555 1_555
C37_2 C41_2 1_555 1_555

#END
