
###############################################################################
#
# This file contains modified crystal structure data generated from the
# MOF subset of the Cambridge Structural Database (CSD) v543 
# hosted by the Cambridge Crystallographic Data Centre (CCDC).
#
# This work is licensed under the Creative Commons
# Attribution-NonCommercial-ShareAlike 4.0 International License.
# To view a copy of this license, visit
# http://creativecommons.org/licenses/by-nc-sa/4.0/
# or send a letter to
# Creative Commons, PO Box 1866, Mountain View, CA 94042, USA.
#
# CIF created using the CSD Python API on 29 September 2022
# The structure has been converted into the P1 space group
# The structure has a 3D framework
# The original CSD entry XUCSAR is in the monoclinic crystal system
# The framework has been calculated to contain at least 10.0% void space
# The void calculation uses a probe of radius 1.32A, grid spacing 0.4
# H atom positions have been added when not included in the experimental data
# Generated hydrogen atom positions removed from atoms on special positions
#
###############################################################################

data_XUCSAR
_chemical_formula_moiety         '(C28 H40 N8 O32 Y4)n'
_symmetry_cell_setting           triclinic
_symmetry_space_group_name_H-M   'P 1'
_symmetry_Int_Tables_number      1
_space_group_name_Hall           'P 1'
loop_
_symmetry_equiv_pos_site_id
_symmetry_equiv_pos_as_xyz
1 x,y,z
_cell_length_a                   9.6084(5)
_cell_length_b                   15.803(1)
_cell_length_c                   7.9309(8)
_cell_angle_alpha                90
_cell_angle_beta                 96.840(6)
_cell_angle_gamma                90
_cell_volume                     1195.67
loop_
_atom_site_label
_atom_site_type_symbol
_atom_site_fract_x
_atom_site_fract_y
_atom_site_fract_z
Y5 Y 0.13306(4) 0.32737(3) 0.92743(6)
O6 O 0.0235(3) 0.41004(20) 0.1269(4)
O11 O 0.2913(3) 0.4294(2) 0.0515(4)
O16 O 0.5120(3) 0.44449(20) 0.1749(4)
C13 C 0.4232(5) 0.4187(3) 0.0596(6)
O17 O 0.1086(3) 0.68972(19) 0.1442(4)
O19 O 0.3128(3) 0.2625(2) 0.1243(4)
N5 N 0.0480(4) 0.2355(2) 0.1695(5)
O9 O 0.0567(3) 0.4620(2) 0.8135(4)
C8 C 0.0098(4) 0.5150(3) 0.9093(6)
O12 O 0.8914(3) 0.31028(19) 0.8558(4)
O13 O 0.8128(3) 0.2375(2) 0.6243(4)
O14 O 0.1598(3) 0.1835(2) 0.8497(5)
O15 O 0.1014(3) 0.3213(2) 0.6221(4)
N3 N 0.3741(4) 0.3270(2) 0.8171(5)
N4 N 0.5480(4) 0.2645(2) 0.6695(5)
C9 C 0.4732(4) 0.3677(3) 0.9192(6)
C10 C 0.7967(4) 0.2826(3) 0.7485(6)
C11 C 0.6146(4) 0.3588(3) 0.8995(5)
C12 C 0.6468(4) 0.3047(3) 0.7753(6)
C14 C 0.4164(4) 0.2777(3) 0.6963(6)
H3 H 0.686067 0.389172 0.969825
H4 H 0.344898 0.249295 0.622425
Y4 Y 0.63306(4) 0.17263(3) 0.42743(6)
Y1 Y 0.86694(4) 0.67263(3) 0.07257(6)
O3 O 0.9433(3) 0.5380(2) 0.1865(4)
O4 O 0.1872(3) 0.7625(2) 0.3757(4)
O5 O 0.8402(3) 0.8165(2) 0.1503(5)
O7 O 0.8986(3) 0.6787(2) 0.3779(4)
N1 N 0.6259(4) 0.6730(2) 0.1829(5)
N2 N 0.4520(4) 0.7355(2) 0.3305(5)
C1 C 0.5268(4) 0.6323(3) 0.0808(6)
C2 C 0.2033(4) 0.7174(3) 0.2515(6)
C3 C 0.3854(4) 0.6412(3) 0.1005(5)
C4 C 0.3532(4) 0.6953(3) 0.2247(6)
C6 C 0.5836(4) 0.7223(3) 0.3037(6)
C7 C 0.9902(4) 0.4850(3) 0.0907(6)
H1 H 0.313933 0.610828 0.030175
H2 H 0.655102 0.750705 0.377575
Y6 Y 0.36694(4) 0.82737(3) 0.57257(6)
O1 O 0.7087(3) 0.5706(2) 0.9485(4)
O8 O 0.4880(3) 0.55551(20) 0.8251(4)
C5 C 0.5768(5) 0.5813(3) 0.9404(6)
O10 O 0.9765(3) 0.58996(20) 0.8731(4)
O20 O 0.6872(3) 0.7375(2) 0.8757(4)
N6 N 0.9520(4) 0.7645(2) 0.8305(5)
O2 O 0.3914(3) 0.18972(19) 0.3558(4)
C2_2 C 0.2967(4) 0.2174(3) 0.2485(6)
C3_2 C 0.1146(4) 0.1412(3) 0.3995(5)
C4_2 C 0.1468(4) 0.1953(3) 0.2753(6)
O8_2 O 0.0120(3) 0.05551(20) 0.6749(4)
H1_2 H 0.186067 0.110828 0.469825
O1_2 O 0.7913(3) 0.0706(2) 0.5515(4)
O3_2 O 0.5567(3) 0.0380(2) 0.3135(4)
O5_2 O 0.6598(3) 0.3165(2) 0.3497(5)
O7_2 O 0.6014(3) 0.1787(2) 0.1221(4)
N1_2 N 0.8741(4) 0.1730(2) 0.3171(5)
C1_2 C 0.9732(4) 0.1323(3) 0.4192(6)
C5_2 C 0.9232(5) 0.0813(3) 0.5596(6)
C6_2 C 0.9164(4) 0.2223(3) 0.1963(6)
H2_2 H 0.844898 0.250705 0.122425
C8_2 C 0.4902(4) 0.0150(3) 0.5907(6)
O10_2 O 0.5235(3) 0.08996(20) 0.6269(4)
O6_2 O 0.4765(3) 0.91004(20) 0.3731(4)
C7_2 C 0.5098(4) 0.9850(3) 0.4093(6)
O9_2 O 0.4433(3) 0.9620(2) 0.6865(4)
O11_2 O 0.2087(3) 0.9294(2) 0.4485(4)
O14_2 O 0.3402(3) 0.6835(2) 0.6503(5)
O15_2 O 0.3986(3) 0.8213(2) 0.8779(4)
N3_2 N 0.1259(4) 0.8270(2) 0.6829(5)
C9_2 C 0.0268(4) 0.8677(3) 0.5808(6)
C13_2 C 0.0768(5) 0.9187(3) 0.4404(6)
C14_2 C 0.0836(4) 0.7777(3) 0.8037(6)
H4_2 H 0.155102 0.749295 0.877575
O18 O 0.6086(3) 0.81028(19) 0.6442(4)
C10_2 C 0.7033(4) 0.7826(3) 0.7515(6)
C11_2 C 0.8854(4) 0.8588(3) 0.6005(5)
C12_2 C 0.8532(4) 0.8047(3) 0.7247(6)
O16_2 O 0.9880(3) 0.94449(20) 0.3251(4)
H3_2 H 0.813933 0.889172 0.530175
loop_
_geom_bond_atom_site_label_1
_geom_bond_atom_site_label_2
_geom_bond_site_symmetry_1
_geom_bond_site_symmetry_2
O16 C13 1_555 1_555
C13 O11 1_555 1_555
O9 C8 1_555 1_555
O12 C10 1_555 1_555
O13 C10 1_555 1_555
O14 Y5 1_555 1_555
O15 Y5 1_555 1_555
N3 Y5 1_555 1_555
N4 C12 1_555 1_555
C9 N3 1_555 1_555
C10 C12 1_555 1_555
C11 C9 1_555 1_555
C12 C11 1_555 1_555
C14 N3 1_555 1_555
H3 C11 1_555 1_555
H4 C14 1_555 1_555
Y4 O13 1_555 1_555
O9 Y5 1_555 1_555
N4 C14 1_555 1_555
N4 Y4 1_555 1_555
O17 C2 1_555 1_555
O3 Y1 1_555 1_555
O4 C2 1_555 1_555
O5 Y1 1_555 1_555
O7 Y1 1_555 1_555
N1 Y1 1_555 1_555
N2 C4 1_555 1_555
C1 N1 1_555 1_555
C2 C4 1_555 1_555
C3 C1 1_555 1_555
C4 C3 1_555 1_555
C6 N1 1_555 1_555
C7 O3 1_555 1_555
H1 C3 1_555 1_555
H2 C6 1_555 1_555
Y6 O4 1_555 1_555
N2 C6 1_555 1_555
N2 Y6 1_555 1_555
O1 C5 1_555 1_555
O8 C5 1_555 1_555
O2 C2_2 1_555 1_555
O19 C2_2 1_555 1_555
N5 C4_2 1_555 1_555
C2_2 C4_2 1_555 1_555
C4_2 C3_2 1_555 1_555
H1_2 C3_2 1_555 1_555
Y4 O2 1_555 1_555
Y4 O1_2 1_555 1_555
O1_2 C5_2 1_555 1_555
O3_2 Y4 1_555 1_555
O5_2 Y4 1_555 1_555
O7_2 Y4 1_555 1_555
N1_2 Y4 1_555 1_555
C1_2 N1_2 1_555 1_555
C5_2 C1_2 1_555 1_555
C6_2 N1_2 1_555 1_555
H2_2 C6_2 1_555 1_555
O10_2 Y4 1_555 1_555
C8_2 O10_2 1_555 1_555
O6_2 C7_2 1_555 1_555
Y6 O6_2 1_555 1_555
O11_2 Y6 1_555 1_555
O14_2 Y6 1_555 1_555
O15_2 Y6 1_555 1_555
N3_2 Y6 1_555 1_555
C9_2 N3_2 1_555 1_555
C13_2 O11_2 1_555 1_555
C14_2 N3_2 1_555 1_555
H4_2 C14_2 1_555 1_555
O18 Y6 1_555 1_555
O9_2 Y6 1_555 1_555
C9_2 C13_2 1_555 1_555
O18 C10_2 1_555 1_555
O20 C10_2 1_555 1_555
N6 C12_2 1_555 1_555
C10_2 C12_2 1_555 1_555
C12_2 C11_2 1_555 1_555
H3_2 C11_2 1_555 1_555

#END
