
###############################################################################
#
# This file contains modified crystal structure data generated from the
# MOF subset of the Cambridge Structural Database (CSD) v543 
# hosted by the Cambridge Crystallographic Data Centre (CCDC).
#
# This work is licensed under the Creative Commons
# Attribution-NonCommercial-ShareAlike 4.0 International License.
# To view a copy of this license, visit
# http://creativecommons.org/licenses/by-nc-sa/4.0/
# or send a letter to
# Creative Commons, PO Box 1866, Mountain View, CA 94042, USA.
#
# CIF created using the CSD Python API on 29 September 2022
# The structure has been converted into the P1 space group
# The structure has a 3D framework
# The original CSD entry XUDNUH is in the tetragonal crystal system
# The framework has been calculated to contain at least 10.0% void space
# The void calculation uses a probe of radius 1.32A, grid spacing 0.4
# H atom positions have been added when not included in the experimental data
# Generated hydrogen atom positions removed from atoms on special positions
#
###############################################################################

data_XUDNUH
_chemical_formula_moiety         '(C272 H288 Cu32 N16 O92)n'
_symmetry_cell_setting           triclinic
_symmetry_space_group_name_H-M   'P 1'
_symmetry_Int_Tables_number      1
_space_group_name_Hall           'P 1'
loop_
_symmetry_equiv_pos_site_id
_symmetry_equiv_pos_as_xyz
1 x,y,z
_cell_length_a                   26.600(4)
_cell_length_b                   26.600(4)
_cell_length_c                   27.120(5)
_cell_angle_alpha                90
_cell_angle_beta                 90
_cell_angle_gamma                90
_cell_volume                     19189
loop_
_atom_site_label
_atom_site_type_symbol
_atom_site_fract_x
_atom_site_fract_y
_atom_site_fract_z
Cu1 Cu -0.0000 0.0000 0.147563(19)
Cu2 Cu -0.0000 0.0000 0.244790(19)
O6 O -0.0000 0.0000 0.0677(3)
O7 O -0.0000 0.0000 0.3264(2)
O21 O 0.06940(4) 0.02441(5) 0.23740(7)
O24 O 0.07097(4) 0.01920(5) 0.15457(7)
H42 H 0.0339745 0.00919135 0.055495
H44 H 0.0332019 0.0116781 0.338605
Cu1_2 Cu -0.0000 1.0000 0.147563(19)
Cu2_2 Cu -0.0000 1.0000 0.244790(19)
O6_2 O -0.0000 1.0000 0.0677(3)
O7_2 O -0.0000 1.0000 0.3264(2)
O22 O 0.02441(5) 0.93060(4) 0.23740(7)
O25 O 0.01920(5) 0.92903(4) 0.15457(7)
Cu1_3 Cu 1.0000 0.0000 0.147563(19)
Cu2_3 Cu 1.0000 0.0000 0.244790(19)
Cu3 Cu 0.522092(11) 0.044207(16) 0.0000
O3 O 0.56533(7) 0.01475(9) 0.05078(9)
O5 O 0.55814(12) 0.11714(13) 0.0000
O6_3 O 1.0000 0.0000 0.0677(3)
O7_3 O 1.0000 0.0000 0.3264(2)
H6 H 0.6327 0.0167 0.1172
N3 N 0.29034(6) 0.10588(8) 0.19624(9)
O15 O 0.47210(6) 0.06159(9) 0.05037(9)
C35 C 0.09058(6) 0.02854(6) 0.19614(9)
C36 C 0.14371(6) 0.04668(7) 0.19650(9)
C37 C 0.16941(7) 0.05330(10) 0.15161(11)
H21 H 0.1540 0.0452 0.1219
C38 C 0.21803(8) 0.07211(11) 0.15229(11)
H22 H 0.2353 0.0764 0.1228
C39 C 0.24110(7) 0.08447(9) 0.19607(11)
C40 C 0.21559(8) 0.07812(11) 0.23943(11)
H23 H 0.2309 0.0869 0.2690
C41 C 0.16737(7) 0.05876(10) 0.23978(11)
H24 H 0.1509 0.0539 0.2696
C42 C 0.32767(7) 0.08682(9) 0.16489(12)
C43 C 0.33075(8) 0.03636(10) 0.15339(13)
H25 H 0.3074 0.0144 0.1672
C44 C 0.36591(7) 0.01773(10) 0.12323(13)
C45 C 0.40109(7) 0.05034(10) 0.10040(13)
C46 C 0.39886(8) 0.10035(10) 0.11266(13)
H27 H 0.4229 0.1221 0.0997
C47 C 0.36286(8) 0.11940(10) 0.14298(14)
H28 H 0.3615 0.1538 0.1492
C48 C 0.43857(8) 0.03016(12) 0.06424(14)
C49 C 0.29779(7) 0.15096(8) 0.22408(13)
C50 C 0.26112(10) 0.18812(11) 0.2244(2)
H29 H 0.2313 0.1834 0.2070
C51 C 0.34130(8) 0.15870(8) 0.2500
H30 H 0.3660 0.1340 0.2500
C52 C 0.26875(11) 0.23125(11) 0.2500
H31 H 0.2440 0.2560 0.2500
N4 N 0.39412(8) 0.20966(6) 0.30376(9)
O17 O 0.47559(5) 0.43060(4) 0.26260(7)
O18 O 0.48080(5) 0.42903(4) 0.34543(7)
O19 O 0.51475(9) 0.06533(7) 0.44922(9)
O20 O 0.43841(9) 0.02790(6) 0.44963(9)
C53 C 0.47146(6) 0.40942(6) 0.30386(9)
C54 C 0.45332(7) 0.35629(6) 0.30350(9)
C55 C 0.44670(10) 0.33059(7) 0.34839(11)
H32 H 0.4548 0.3460 0.3781
C56 C 0.42789(11) 0.28197(8) 0.34771(11)
H33 H 0.4236 0.2647 0.3772
C57 C 0.41553(9) 0.25890(7) 0.30393(11)
C58 C 0.42188(11) 0.28441(8) 0.26057(11)
H34 H 0.4131 0.2691 0.2310
C59 C 0.44124(10) 0.33263(7) 0.26022(11)
H35 H 0.4461 0.3491 0.2304
C60 C 0.41318(9) 0.17233(7) 0.33511(12)
C61 C 0.46364(10) 0.16925(8) 0.34661(13)
H36 H 0.4856 0.1926 0.3328
C62 C 0.48227(10) 0.13409(7) 0.37677(13)
H37 H 0.5167 0.1327 0.3828
C63 C 0.44966(10) 0.09891(7) 0.39960(13)
C64 C 0.39965(10) 0.10114(8) 0.38734(13)
H38 H 0.3779 0.0771 0.4003
C65 C 0.38060(10) 0.13714(8) 0.35702(14)
H39 H 0.3462 0.1385 0.3508
C66 C 0.46984(12) 0.06143(8) 0.43576(14)
C67 C 0.34904(8) 0.20221(7) 0.27592(13)
C68 C 0.31188(11) 0.23888(10) 0.2756(2)
H40 H 0.3166 0.2687 0.2930
Cu7 Cu 0.5000 0.5000 0.352437(19)
Cu10 Cu 0.5000 0.5000 0.255210(19)
Cu11 Cu 0.544207(16) 0.022092(11) 0.5000
O23 O 0.97559(5) 0.06940(4) 0.23740(7)
O26 O 0.98080(5) 0.07097(4) 0.15457(7)
H41 H 0.975053 0.0248271 0.055495
Cu3_2 Cu 0.522092(11) 0.044207(16) 1.0000
O5_2 O 0.55814(12) 0.11714(13) 1.0000
O28 O 0.56533(7) 0.01475(9) 0.94922(9)
O29 O 0.47210(6) 0.06159(9) 0.94963(9)
Cu1_4 Cu 1.0000 1.0000 0.147563(19)
Cu2_4 Cu 1.0000 1.0000 0.244790(19)
N1 N 0.70966(6) 0.89412(8) 0.19624(9)
O1 O 0.93060(4) 0.97559(5) 0.23740(7)
O2 O 0.92903(4) 0.98080(5) 0.15457(7)
O4 O 0.52790(6) 0.93841(9) 0.05037(9)
O6_4 O 1.0000 1.0000 0.0677(3)
O7_4 O 1.0000 1.0000 0.3264(2)
C1 C 0.90942(6) 0.97146(6) 0.19614(9)
C2 C 0.85629(6) 0.95332(7) 0.19650(9)
C3 C 0.83059(7) 0.94670(10) 0.15161(11)
H1 H 0.8460 0.9548 0.1219
C4 C 0.78197(8) 0.92789(11) 0.15229(11)
H2 H 0.7647 0.9236 0.1228
C5 C 0.75890(7) 0.91553(9) 0.19607(11)
C6 C 0.78441(8) 0.92188(11) 0.23943(11)
H3 H 0.7691 0.9131 0.2690
C7 C 0.83263(7) 0.94124(10) 0.23978(11)
H4 H 0.8491 0.9461 0.2696
C8 C 0.67233(7) 0.91318(9) 0.16489(12)
C9 C 0.66925(8) 0.96364(10) 0.15339(13)
H5 H 0.6926 0.9856 0.1672
C10 C 0.63409(7) 0.98227(10) 0.12323(13)
C11 C 0.59891(7) 0.94966(10) 0.10040(13)
C12 C 0.60114(8) 0.89965(10) 0.11266(13)
H7 H 0.5771 0.8779 0.0997
C13 C 0.63714(8) 0.88060(10) 0.14298(14)
H8 H 0.6385 0.8462 0.1492
C14 C 0.56143(8) 0.96984(12) 0.06424(14)
C15 C 0.70221(7) 0.84904(8) 0.22408(13)
C16 C 0.73888(10) 0.81188(11) 0.2244(2)
H9 H 0.7687 0.8166 0.2070
C17 C 0.65870(8) 0.84130(8) 0.2500
H10 H 0.6340 0.8660 0.2500
C18 C 0.73125(11) 0.76875(11) 0.2500
H11 H 0.7560 0.7440 0.2500
N2 N 0.60588(8) 0.79034(6) 0.30376(9)
O8 O 0.52441(5) 0.56940(4) 0.26260(7)
O9 O 0.51920(5) 0.57097(4) 0.34543(7)
O10 O 0.48525(9) 0.93467(7) 0.44922(9)
O11 O 0.56159(9) 0.97210(6) 0.44963(9)
C19 C 0.52854(6) 0.59058(6) 0.30386(9)
C20 C 0.54668(7) 0.64371(6) 0.30350(9)
C21 C 0.55330(10) 0.66941(7) 0.34839(11)
H12 H 0.5452 0.6540 0.3781
C22 C 0.57211(11) 0.71803(8) 0.34771(11)
H13 H 0.5764 0.7353 0.3772
C23 C 0.58447(9) 0.74110(7) 0.30393(11)
C24 C 0.57812(11) 0.71559(8) 0.26057(11)
H14 H 0.5869 0.7309 0.2310
C25 C 0.55876(10) 0.66737(7) 0.26022(11)
H15 H 0.5539 0.6509 0.2304
C26 C 0.58682(9) 0.82767(7) 0.33511(12)
C27 C 0.53636(10) 0.83075(8) 0.34661(13)
H16 H 0.5144 0.8074 0.3328
C28 C 0.51773(10) 0.86591(7) 0.37677(13)
H17 H 0.4833 0.8673 0.3828
C29 C 0.55034(10) 0.90109(7) 0.39960(13)
C30 C 0.60035(10) 0.89886(8) 0.38734(13)
H18 H 0.6221 0.9229 0.4003
C31 C 0.61940(10) 0.86286(8) 0.35702(14)
H19 H 0.6538 0.8615 0.3508
C32 C 0.53016(12) 0.93857(8) 0.43576(14)
C33 C 0.65096(8) 0.79779(7) 0.27592(13)
C34 C 0.68812(11) 0.76112(10) 0.2756(2)
H20 H 0.6834 0.7313 0.2930
Cu4 Cu 0.477908(11) 0.955793(16) 0.0000
O14 O 0.43467(7) 0.98525(9) 0.05078(9)
O16 O 0.44186(12) 0.88286(13) 0.0000
H26 H 0.3673 0.9833 0.1172
Cu12 Cu 0.455793(16) 0.977908(11) 0.5000
H43 H 0.993513 0.965407 0.338605
Cu4_2 Cu 0.477908(11) 0.955793(16) 1.0000
O16_2 O 0.44186(12) 0.88286(13) 1.0000
O27 O 0.43467(7) 0.98525(9) 0.94922(9)
O30 O 0.52790(6) 0.93841(9) 0.94963(9)
H43_2 H 0.00648745 0.0345928 0.338605
H41_2 H 0.0249472 0.975173 0.055495
H42_2 H 0.966026 0.990809 0.055495
H44_2 H 0.966798 0.988322 0.338605
N1_2 N 0.10588(8) 0.70966(6) 0.19624(9)
O4_2 O 0.06159(9) 0.52790(6) 0.05037(9)
C1_2 C 0.02854(6) 0.90942(6) 0.19614(9)
C2_2 C 0.04668(7) 0.85629(6) 0.19650(9)
C3_2 C 0.05330(10) 0.83059(7) 0.15161(11)
H1_2 H 0.0452 0.8460 0.1219
C4_2 C 0.07211(11) 0.78197(8) 0.15229(11)
H2_2 H 0.0764 0.7647 0.1228
C5_2 C 0.08447(9) 0.75890(7) 0.19607(11)
C6_2 C 0.07812(11) 0.78441(8) 0.23943(11)
H3_2 H 0.0869 0.7691 0.2690
C7_2 C 0.05876(10) 0.83263(7) 0.23978(11)
H4_2 H 0.0539 0.8491 0.2696
C8_2 C 0.08682(9) 0.67233(7) 0.16489(12)
C9_2 C 0.03636(10) 0.66925(8) 0.15339(13)
H5_2 H 0.0144 0.6926 0.1672
C10_2 C 0.01773(10) 0.63409(7) 0.12323(13)
C11_2 C 0.05034(10) 0.59891(7) 0.10040(13)
C12_2 C 0.10035(10) 0.60114(8) 0.11266(13)
H7_2 H 0.1221 0.5771 0.0997
C13_2 C 0.11940(10) 0.63714(8) 0.14298(14)
H8_2 H 0.1538 0.6385 0.1492
C14_2 C 0.03016(12) 0.56143(8) 0.06424(14)
C15_2 C 0.15096(8) 0.70221(7) 0.22408(13)
C16_2 C 0.18812(11) 0.73888(10) 0.2244(2)
H9_2 H 0.1834 0.7687 0.2070
C17_2 C 0.15870(8) 0.65870(8) 0.2500
H10_2 H 0.1340 0.6340 0.2500
C18_2 C 0.23125(11) 0.73125(11) 0.2500
H11_2 H 0.2560 0.7560 0.2500
N2_2 N 0.20966(6) 0.60588(8) 0.30376(9)
O8_2 O 0.43060(4) 0.52441(5) 0.26260(7)
O9_2 O 0.42903(4) 0.51920(5) 0.34543(7)
O10_2 O 0.06533(7) 0.48525(9) 0.44922(9)
O11_2 O 0.02790(6) 0.56159(9) 0.44963(9)
C19_2 C 0.40942(6) 0.52854(6) 0.30386(9)
C20_2 C 0.35629(6) 0.54668(7) 0.30350(9)
C21_2 C 0.33059(7) 0.55330(10) 0.34839(11)
H12_2 H 0.3460 0.5452 0.3781
C22_2 C 0.28197(8) 0.57211(11) 0.34771(11)
H13_2 H 0.2647 0.5764 0.3772
C23_2 C 0.25890(7) 0.58447(9) 0.30393(11)
C24_2 C 0.28441(8) 0.57812(11) 0.26057(11)
H14_2 H 0.2691 0.5869 0.2310
C25_2 C 0.33263(7) 0.55876(10) 0.26022(11)
H15_2 H 0.3491 0.5539 0.2304
C26_2 C 0.17233(7) 0.58682(9) 0.33511(12)
C27_2 C 0.16925(8) 0.53636(10) 0.34661(13)
H16_2 H 0.1926 0.5144 0.3328
C28_2 C 0.13409(7) 0.51773(10) 0.37677(13)
H17_2 H 0.1327 0.4833 0.3828
C29_2 C 0.09891(7) 0.55034(10) 0.39960(13)
C30_2 C 0.10114(8) 0.60035(10) 0.38734(13)
H18_2 H 0.0771 0.6221 0.4003
C31_2 C 0.13714(8) 0.61940(10) 0.35702(14)
H19_2 H 0.1385 0.6538 0.3508
C32_2 C 0.06143(8) 0.53016(12) 0.43576(14)
C33_2 C 0.20221(7) 0.65096(8) 0.27592(13)
C34_2 C 0.23888(10) 0.68812(11) 0.2756(2)
H20_2 H 0.2687 0.6834 0.2930
Cu4_3 Cu 0.044207(16) 0.477908(11) 0.0000
O14_2 O 0.01475(9) 0.43467(7) 0.05078(9)
O16_3 O 0.11714(13) 0.44186(12) 0.0000
H26_2 H 0.0167 0.3673 0.1172
Cu12_2 Cu 0.022092(11) 0.455793(16) 0.5000
H43_3 H 0.0345928 0.993513 0.338605
Cu4_4 Cu 0.044207(16) 0.477908(11) 1.0000
O16_4 O 0.11714(13) 0.44186(12) 1.0000
O27_2 O 0.01475(9) 0.43467(7) 0.94922(9)
O30_2 O 0.06159(9) 0.52790(6) 0.94963(9)
H42_3 H 0.990809 0.0339745 0.055495
H44_3 H 0.988322 0.0332019 0.338605
Cu3_3 Cu 0.955793(16) 0.522092(11) 0.0000
O3_2 O 0.98525(9) 0.56533(7) 0.05078(9)
O5_3 O 0.88286(13) 0.55814(12) 0.0000
H6_2 H 0.9833 0.6327 0.1172
N3_2 N 0.89412(8) 0.29034(6) 0.19624(9)
O15_2 O 0.93841(9) 0.47210(6) 0.05037(9)
C35_2 C 0.97146(6) 0.09058(6) 0.19614(9)
C36_2 C 0.95332(7) 0.14371(6) 0.19650(9)
C37_2 C 0.94670(10) 0.16941(7) 0.15161(11)
H21_2 H 0.9548 0.1540 0.1219
C38_2 C 0.92789(11) 0.21803(8) 0.15229(11)
H22_2 H 0.9236 0.2353 0.1228
C39_2 C 0.91553(9) 0.24110(7) 0.19607(11)
C40_2 C 0.92188(11) 0.21559(8) 0.23943(11)
H23_2 H 0.9131 0.2309 0.2690
C41_2 C 0.94124(10) 0.16737(7) 0.23978(11)
H24_2 H 0.9461 0.1509 0.2696
C42_2 C 0.91318(9) 0.32767(7) 0.16489(12)
C43_2 C 0.96364(10) 0.33075(8) 0.15339(13)
H25_2 H 0.9856 0.3074 0.1672
C44_2 C 0.98227(10) 0.36591(7) 0.12323(13)
C45_2 C 0.94966(10) 0.40109(7) 0.10040(13)
C46_2 C 0.89965(10) 0.39886(8) 0.11266(13)
H27_2 H 0.8779 0.4229 0.0997
C47_2 C 0.88060(10) 0.36286(8) 0.14298(14)
H28_2 H 0.8462 0.3615 0.1492
C48_2 C 0.96984(12) 0.43857(8) 0.06424(14)
C49_2 C 0.84904(8) 0.29779(7) 0.22408(13)
C50_2 C 0.81188(11) 0.26112(10) 0.2244(2)
H29_2 H 0.8166 0.2313 0.2070
C51_2 C 0.84130(8) 0.34130(8) 0.2500
H30_2 H 0.8660 0.3660 0.2500
C52_2 C 0.76875(11) 0.26875(11) 0.2500
H31_2 H 0.7440 0.2440 0.2500
N4_2 N 0.79034(6) 0.39412(8) 0.30376(9)
O17_2 O 0.56940(4) 0.47559(5) 0.26260(7)
O18_2 O 0.57097(4) 0.48080(5) 0.34543(7)
O19_2 O 0.93467(7) 0.51475(9) 0.44922(9)
O20_2 O 0.97210(6) 0.43841(9) 0.44963(9)
C53_2 C 0.59058(6) 0.47146(6) 0.30386(9)
C54_2 C 0.64371(6) 0.45332(7) 0.30350(9)
C55_2 C 0.66941(7) 0.44670(10) 0.34839(11)
H32_2 H 0.6540 0.4548 0.3781
C56_2 C 0.71803(8) 0.42789(11) 0.34771(11)
H33_2 H 0.7353 0.4236 0.3772
C57_2 C 0.74110(7) 0.41553(9) 0.30393(11)
C58_2 C 0.71559(8) 0.42188(11) 0.26057(11)
H34_2 H 0.7309 0.4131 0.2310
C59_2 C 0.66737(7) 0.44124(10) 0.26022(11)
H35_2 H 0.6509 0.4461 0.2304
C60_2 C 0.82767(7) 0.41318(9) 0.33511(12)
C61_2 C 0.83075(8) 0.46364(10) 0.34661(13)
H36_2 H 0.8074 0.4856 0.3328
C62_2 C 0.86591(7) 0.48227(10) 0.37677(13)
H37_2 H 0.8673 0.5167 0.3828
C63_2 C 0.90109(7) 0.44966(10) 0.39960(13)
C64_2 C 0.89886(8) 0.39965(10) 0.38734(13)
H38_2 H 0.9229 0.3779 0.4003
C65_2 C 0.86286(8) 0.38060(10) 0.35702(14)
H39_2 H 0.8615 0.3462 0.3508
C66_2 C 0.93857(8) 0.46984(12) 0.43576(14)
C67_2 C 0.79779(7) 0.34904(8) 0.27592(13)
C68_2 C 0.76112(10) 0.31188(11) 0.2756(2)
H40_2 H 0.7313 0.3166 0.2930
Cu11_2 Cu 0.977908(11) 0.544207(16) 0.5000
H41_3 H 0.975173 0.975053 0.055495
Cu3_4 Cu 0.955793(16) 0.522092(11) 1.0000
O5_4 O 0.88286(13) 0.55814(12) 1.0000
O28_2 O 0.98525(9) 0.56533(7) 0.94922(9)
O29_2 O 0.93841(9) 0.47210(6) 0.94963(9)
H41_4 H 0.0248271 0.0249472 0.055495
H42_4 H 0.00919135 0.966026 0.055495
H44_4 H 0.0116781 0.966798 0.338605
H43_4 H 0.965407 0.00648745 0.338605
O16_5 O 0.05814(12) 0.38286(13) 0.5000
O27_3 O 0.06533(7) 0.48525(9) 0.55078(9)
O29_3 O 0.02790(6) 0.56159(9) 0.55037(9)
O5_5 O 0.94186(12) 0.61714(13) 0.5000
O6_5 O 0.5000 0.5000 0.4323(3)
O7_5 O 0.5000 0.5000 0.1736(2)
O28_3 O 0.93467(7) 0.51475(9) 0.55078(9)
O30_3 O 0.97210(6) 0.43841(9) 0.55037(9)
O5_6 O 0.61714(13) 0.05814(12) 0.5000
O28_4 O 0.51475(9) 0.06533(7) 0.55078(9)
O30_4 O 0.43841(9) 0.02790(6) 0.55037(9)
O16_6 O 0.38286(13) 0.94186(12) 0.5000
O27_4 O 0.48525(9) 0.93467(7) 0.55078(9)
O29_4 O 0.56159(9) 0.97210(6) 0.55037(9)
Cu5 Cu -0.0000 0.0000 0.852437(19)
Cu8 Cu -0.0000 0.0000 0.755210(19)
Cu5_2 Cu -0.0000 1.0000 0.852437(19)
Cu8_2 Cu 0.0000 1.0000 0.755210(19)
N1_3 N 0.29034(6) 0.10588(8) 0.80376(9)
O1_2 O 0.06940(4) 0.02441(5) 0.76260(7)
O2_2 O 0.07097(4) 0.01920(5) 0.84543(7)
O6_6 O 0.0000 0.0000 0.9323(3)
O7_6 O 0.0000 0.0000 0.6736(2)
C1_3 C 0.09058(6) 0.02854(6) 0.80386(9)
C2_3 C 0.14371(6) 0.04668(7) 0.80350(9)
C3_3 C 0.16941(7) 0.05330(10) 0.84839(11)
H1_3 H 0.1540 0.0452 0.8781
C4_3 C 0.21803(8) 0.07211(11) 0.84771(11)
H2_3 H 0.2353 0.0764 0.8772
C5_3 C 0.24110(7) 0.08447(9) 0.80393(11)
C6_3 C 0.21559(8) 0.07812(11) 0.76057(11)
H3_3 H 0.2309 0.0869 0.7310
C7_3 C 0.16737(7) 0.05876(10) 0.76022(11)
H4_3 H 0.1509 0.0539 0.7304
C8_3 C 0.32767(7) 0.08682(9) 0.83511(12)
C9_3 C 0.33075(8) 0.03636(10) 0.84661(13)
H5_3 H 0.3074 0.0144 0.8328
C10_3 C 0.36591(7) 0.01773(10) 0.87677(13)
C11_3 C 0.40109(7) 0.05034(10) 0.89960(13)
C12_3 C 0.39886(8) 0.10035(10) 0.88734(13)
H7_3 H 0.4229 0.1221 0.9003
C13_3 C 0.36286(8) 0.11940(10) 0.85702(14)
H8_3 H 0.3615 0.1538 0.8508
C14_3 C 0.43857(8) 0.03016(12) 0.93576(14)
C15_3 C 0.29779(7) 0.15096(8) 0.77592(13)
C16_3 C 0.26112(10) 0.18812(11) 0.7756(2)
H9_3 H 0.2313 0.1834 0.7930
C17_3 C 0.34130(8) 0.15870(8) 0.7500
H10_3 H 0.3660 0.1340 0.7500
C18_3 C 0.26875(11) 0.23125(11) 0.7500
H11_3 H 0.2440 0.2560 0.7500
N2_3 N 0.39412(8) 0.20966(6) 0.69624(9)
O8_3 O 0.47559(5) 0.43060(4) 0.73740(7)
O9_3 O 0.48080(5) 0.42903(4) 0.65457(7)
C19_3 C 0.47146(6) 0.40942(6) 0.69614(9)
C20_3 C 0.45332(7) 0.35629(6) 0.69650(9)
C21_3 C 0.44670(10) 0.33059(7) 0.65161(11)
H12_3 H 0.4548 0.3460 0.6219
C22_3 C 0.42789(11) 0.28197(8) 0.65229(11)
H13_3 H 0.4236 0.2647 0.6228
C23_3 C 0.41553(9) 0.25890(7) 0.69607(11)
C24_3 C 0.42188(11) 0.28441(8) 0.73943(11)
H14_3 H 0.4131 0.2691 0.7690
C25_3 C 0.44124(10) 0.33263(7) 0.73978(11)
H15_3 H 0.4461 0.3491 0.7696
C26_3 C 0.41318(9) 0.17233(7) 0.66489(12)
C27_3 C 0.46364(10) 0.16925(8) 0.65339(13)
H16_3 H 0.4856 0.1926 0.6672
C28_3 C 0.48227(10) 0.13409(7) 0.62323(13)
H17_3 H 0.5167 0.1327 0.6172
C29_3 C 0.44966(10) 0.09891(7) 0.60040(13)
C30_3 C 0.39965(10) 0.10114(8) 0.61266(13)
H18_3 H 0.3779 0.0771 0.5997
C31_3 C 0.38060(10) 0.13714(8) 0.64298(14)
H19_3 H 0.3462 0.1385 0.6492
C32_3 C 0.46984(12) 0.06143(8) 0.56424(14)
C33_3 C 0.34904(8) 0.20221(7) 0.72408(13)
C34_3 C 0.31188(11) 0.23888(10) 0.7244(2)
H20_3 H 0.3166 0.2687 0.7070
H26_3 H 0.6327 0.0167 0.8828
Cu5_3 Cu 1.0000 0.0000 0.852437(19)
Cu6 Cu 0.5000 0.5000 0.647563(19)
Cu8_3 Cu 1.0000 0.0000 0.755210(19)
Cu9 Cu 0.5000 0.5000 0.744790(19)
H43_5 H 0.00648745 0.0345928 0.661395
O6_7 O 0.0000 1.0000 0.9323(3)
O7_7 O 0.0000 1.0000 0.6736(2)
H6_3 H 0.3673 0.9833 0.8828
N3_3 N 0.70966(6) 0.89412(8) 0.80376(9)
O12 O 0.93060(4) 0.97559(5) 0.76260(7)
O13 O 0.92903(4) 0.98080(5) 0.84543(7)
C35_3 C 0.90942(6) 0.97146(6) 0.80386(9)
C36_3 C 0.85629(6) 0.95332(7) 0.80350(9)
C37_3 C 0.83059(7) 0.94670(10) 0.84839(11)
H21_3 H 0.8460 0.9548 0.8781
C38_3 C 0.78197(8) 0.92789(11) 0.84771(11)
H22_3 H 0.7647 0.9236 0.8772
C39_3 C 0.75890(7) 0.91553(9) 0.80393(11)
C40_3 C 0.78441(8) 0.92188(11) 0.76057(11)
H23_3 H 0.7691 0.9131 0.7310
C41_3 C 0.83263(7) 0.94124(10) 0.76022(11)
H24_3 H 0.8491 0.9461 0.7304
C42_3 C 0.67233(7) 0.91318(9) 0.83511(12)
C43_3 C 0.66925(8) 0.96364(10) 0.84661(13)
H25_3 H 0.6926 0.9856 0.8328
C44_3 C 0.63409(7) 0.98227(10) 0.87677(13)
C45_3 C 0.59891(7) 0.94966(10) 0.89960(13)
C46_3 C 0.60114(8) 0.89965(10) 0.88734(13)
H27_3 H 0.5771 0.8779 0.9003
C47_3 C 0.63714(8) 0.88060(10) 0.85702(14)
H28_3 H 0.6385 0.8462 0.8508
C48_3 C 0.56143(8) 0.96984(12) 0.93576(14)
C49_3 C 0.70221(7) 0.84904(8) 0.77592(13)
C50_3 C 0.73888(10) 0.81188(11) 0.7756(2)
H29_3 H 0.7687 0.8166 0.7930
C51_3 C 0.65870(8) 0.84130(8) 0.7500
H30_3 H 0.6340 0.8660 0.7500
C52_3 C 0.73125(11) 0.76875(11) 0.7500
H31_3 H 0.7560 0.7440 0.7500
N4_3 N 0.60588(8) 0.79034(6) 0.69624(9)
O17_3 O 0.52441(5) 0.56940(4) 0.73740(7)
O18_3 O 0.51920(5) 0.57097(4) 0.65457(7)
C53_3 C 0.52854(6) 0.59058(6) 0.69614(9)
C54_3 C 0.54668(7) 0.64371(6) 0.69650(9)
C55_3 C 0.55330(10) 0.66941(7) 0.65161(11)
H32_3 H 0.5452 0.6540 0.6219
C56_3 C 0.57211(11) 0.71803(8) 0.65229(11)
H33_3 H 0.5764 0.7353 0.6228
C57_3 C 0.58447(9) 0.74110(7) 0.69607(11)
C58_3 C 0.57812(11) 0.71559(8) 0.73943(11)
H34_3 H 0.5869 0.7309 0.7690
C59_3 C 0.55876(10) 0.66737(7) 0.73978(11)
H35_3 H 0.5539 0.6509 0.7696
C60_3 C 0.58682(9) 0.82767(7) 0.66489(12)
C61_3 C 0.53636(10) 0.83075(8) 0.65339(13)
H36_3 H 0.5144 0.8074 0.6672
C62_3 C 0.51773(10) 0.86591(7) 0.62323(13)
H37_3 H 0.4833 0.8673 0.6172
C63_3 C 0.55034(10) 0.90109(7) 0.60040(13)
C64_3 C 0.60035(10) 0.89886(8) 0.61266(13)
H38_3 H 0.6221 0.9229 0.5997
C65_3 C 0.61940(10) 0.86286(8) 0.64298(14)
H39_3 H 0.6538 0.8615 0.6492
C66_3 C 0.53016(12) 0.93857(8) 0.56424(14)
C67_3 C 0.65096(8) 0.79779(7) 0.72408(13)
C68_3 C 0.68812(11) 0.76112(10) 0.7244(2)
H40_3 H 0.6834 0.7313 0.7070
Cu5_4 Cu 1.0000 1.0000 0.852437(19)
Cu8_4 Cu 1.0000 1.0000 0.755210(19)
O23_2 O 0.02441(5) 0.93060(4) 0.76260(7)
O26_2 O 0.01920(5) 0.92903(4) 0.84543(7)
H41_5 H 0.0249472 0.975173 0.944505
O6_8 O 1.0000 0.0000 0.9323(3)
O7_8 O 1.0000 0.0000 0.6736(2)
O22_2 O 0.97559(5) 0.06940(4) 0.76260(7)
O25_2 O 0.98080(5) 0.07097(4) 0.84543(7)
O6_9 O 1.0000 1.0000 0.9323(3)
O7_9 O 1.0000 1.0000 0.6736(2)
H42_5 H 0.966026 0.990809 0.944505
H44_5 H 0.966798 0.988322 0.661395
H42_6 H 0.0339745 0.00919135 0.944505
H44_6 H 0.0332019 0.0116781 0.661395
H41_6 H 0.975053 0.0248271 0.944505
H43_6 H 0.993513 0.965407 0.661395
H6_4 H 0.0167 0.3673 0.8828
N3_4 N 0.10588(8) 0.70966(6) 0.80376(9)
C35_4 C 0.02854(6) 0.90942(6) 0.80386(9)
C36_4 C 0.04668(7) 0.85629(6) 0.80350(9)
C37_4 C 0.05330(10) 0.83059(7) 0.84839(11)
H21_4 H 0.0452 0.8460 0.8781
C38_4 C 0.07211(11) 0.78197(8) 0.84771(11)
H22_4 H 0.0764 0.7647 0.8772
C39_4 C 0.08447(9) 0.75890(7) 0.80393(11)
C40_4 C 0.07812(11) 0.78441(8) 0.76057(11)
H23_4 H 0.0869 0.7691 0.7310
C41_4 C 0.05876(10) 0.83263(7) 0.76022(11)
H24_4 H 0.0539 0.8491 0.7304
C42_4 C 0.08682(9) 0.67233(7) 0.83511(12)
C43_4 C 0.03636(10) 0.66925(8) 0.84661(13)
H25_4 H 0.0144 0.6926 0.8328
C44_4 C 0.01773(10) 0.63409(7) 0.87677(13)
C45_4 C 0.05034(10) 0.59891(7) 0.89960(13)
C46_4 C 0.10035(10) 0.60114(8) 0.88734(13)
H27_4 H 0.1221 0.5771 0.9003
C47_4 C 0.11940(10) 0.63714(8) 0.85702(14)
H28_4 H 0.1538 0.6385 0.8508
C48_4 C 0.03016(12) 0.56143(8) 0.93576(14)
C49_4 C 0.15096(8) 0.70221(7) 0.77592(13)
C50_4 C 0.18812(11) 0.73888(10) 0.7756(2)
H29_4 H 0.1834 0.7687 0.7930
C51_4 C 0.15870(8) 0.65870(8) 0.7500
H30_4 H 0.1340 0.6340 0.7500
C52_4 C 0.23125(11) 0.73125(11) 0.7500
H31_4 H 0.2560 0.7560 0.7500
N4_4 N 0.20966(6) 0.60588(8) 0.69624(9)
O17_4 O 0.43060(4) 0.52441(5) 0.73740(7)
O18_4 O 0.42903(4) 0.51920(5) 0.65457(7)
C53_4 C 0.40942(6) 0.52854(6) 0.69614(9)
C54_4 C 0.35629(6) 0.54668(7) 0.69650(9)
C55_4 C 0.33059(7) 0.55330(10) 0.65161(11)
H32_4 H 0.3460 0.5452 0.6219
C56_4 C 0.28197(8) 0.57211(11) 0.65229(11)
H33_4 H 0.2647 0.5764 0.6228
C57_4 C 0.25890(7) 0.58447(9) 0.69607(11)
C58_4 C 0.28441(8) 0.57812(11) 0.73943(11)
H34_4 H 0.2691 0.5869 0.7690
C59_4 C 0.33263(7) 0.55876(10) 0.73978(11)
H35_4 H 0.3491 0.5539 0.7696
C60_4 C 0.17233(7) 0.58682(9) 0.66489(12)
C61_4 C 0.16925(8) 0.53636(10) 0.65339(13)
H36_4 H 0.1926 0.5144 0.6672
C62_4 C 0.13409(7) 0.51773(10) 0.62323(13)
H37_4 H 0.1327 0.4833 0.6172
C63_4 C 0.09891(7) 0.55034(10) 0.60040(13)
C64_4 C 0.10114(8) 0.60035(10) 0.61266(13)
H38_4 H 0.0771 0.6221 0.5997
C65_4 C 0.13714(8) 0.61940(10) 0.64298(14)
H39_4 H 0.1385 0.6538 0.6492
C66_4 C 0.06143(8) 0.53016(12) 0.56424(14)
C67_4 C 0.20221(7) 0.65096(8) 0.72408(13)
C68_4 C 0.23888(10) 0.68812(11) 0.7244(2)
H40_4 H 0.2687 0.6834 0.7070
H41_7 H 0.0248271 0.0249472 0.944505
H42_7 H 0.00919135 0.966026 0.944505
H44_7 H 0.0116781 0.966798 0.661395
N1_4 N 0.89412(8) 0.29034(6) 0.80376(9)
C1_4 C 0.97146(6) 0.09058(6) 0.80386(9)
C2_4 C 0.95332(7) 0.14371(6) 0.80350(9)
C3_4 C 0.94670(10) 0.16941(7) 0.84839(11)
H1_4 H 0.9548 0.1540 0.8781
C4_4 C 0.92789(11) 0.21803(8) 0.84771(11)
H2_4 H 0.9236 0.2353 0.8772
C5_4 C 0.91553(9) 0.24110(7) 0.80393(11)
C6_4 C 0.92188(11) 0.21559(8) 0.76057(11)
H3_4 H 0.9131 0.2309 0.7310
C7_4 C 0.94124(10) 0.16737(7) 0.76022(11)
H4_4 H 0.9461 0.1509 0.7304
C8_4 C 0.91318(9) 0.32767(7) 0.83511(12)
C9_4 C 0.96364(10) 0.33075(8) 0.84661(13)
H5_4 H 0.9856 0.3074 0.8328
C10_4 C 0.98227(10) 0.36591(7) 0.87677(13)
C11_4 C 0.94966(10) 0.40109(7) 0.89960(13)
C12_4 C 0.89965(10) 0.39886(8) 0.88734(13)
H7_4 H 0.8779 0.4229 0.9003
C13_4 C 0.88060(10) 0.36286(8) 0.85702(14)
H8_4 H 0.8462 0.3615 0.8508
C14_4 C 0.96984(12) 0.43857(8) 0.93576(14)
C15_4 C 0.84904(8) 0.29779(7) 0.77592(13)
C16_4 C 0.81188(11) 0.26112(10) 0.7756(2)
H9_4 H 0.8166 0.2313 0.7930
C17_4 C 0.84130(8) 0.34130(8) 0.7500
H10_4 H 0.8660 0.3660 0.7500
C18_4 C 0.76875(11) 0.26875(11) 0.7500
H11_4 H 0.7440 0.2440 0.7500
N2_4 N 0.79034(6) 0.39412(8) 0.69624(9)
O8_4 O 0.56940(4) 0.47559(5) 0.73740(7)
O9_4 O 0.57097(4) 0.48080(5) 0.65457(7)
C19_4 C 0.59058(6) 0.47146(6) 0.69614(9)
C20_4 C 0.64371(6) 0.45332(7) 0.69650(9)
C21_4 C 0.66941(7) 0.44670(10) 0.65161(11)
H12_4 H 0.6540 0.4548 0.6219
C22_4 C 0.71803(8) 0.42789(11) 0.65229(11)
H13_4 H 0.7353 0.4236 0.6228
C23_4 C 0.74110(7) 0.41553(9) 0.69607(11)
C24_4 C 0.71559(8) 0.42188(11) 0.73943(11)
H14_4 H 0.7309 0.4131 0.7690
C25_4 C 0.66737(7) 0.44124(10) 0.73978(11)
H15_4 H 0.6509 0.4461 0.7696
C26_4 C 0.82767(7) 0.41318(9) 0.66489(12)
C27_4 C 0.83075(8) 0.46364(10) 0.65339(13)
H16_4 H 0.8074 0.4856 0.6672
C28_4 C 0.86591(7) 0.48227(10) 0.62323(13)
H17_4 H 0.8673 0.5167 0.6172
C29_4 C 0.90109(7) 0.44966(10) 0.60040(13)
C30_4 C 0.89886(8) 0.39965(10) 0.61266(13)
H18_4 H 0.9229 0.3779 0.5997
C31_4 C 0.86286(8) 0.38060(10) 0.64298(14)
H19_4 H 0.8615 0.3462 0.6492
C32_4 C 0.93857(8) 0.46984(12) 0.56424(14)
C33_4 C 0.79779(7) 0.34904(8) 0.72408(13)
C34_4 C 0.76112(10) 0.31188(11) 0.7244(2)
H20_4 H 0.7313 0.3166 0.7070
H26_4 H 0.9833 0.6327 0.8828
H43_7 H 0.965407 0.00648745 0.661395
H43_8 H 0.0345928 0.993513 0.661395
H42_8 H 0.990809 0.0339745 0.944505
H44_8 H 0.988322 0.0332019 0.661395
H41_8 H 0.975173 0.975053 0.944505
O6_10 O 0.5000 0.5000 0.5677(3)
O7_10 O 0.5000 0.5000 0.8264(2)
loop_
_geom_bond_atom_site_label_1
_geom_bond_atom_site_label_2
_geom_bond_site_symmetry_1
_geom_bond_site_symmetry_2
O6 Cu1 1_555 1_555
O7 Cu2 1_555 1_555
O21 Cu2 1_555 1_555
O24 Cu1 1_555 1_555
O6 H42 1_555 1_555
O7 H44 1_555 1_555
O6_2 Cu1_2 1_555 1_555
O7_2 Cu2_2 1_555 1_555
O22 Cu2_2 1_555 1_555
O25 Cu1_2 1_555 1_555
Cu3 O3 1_555 1_555
O5 Cu3 1_555 1_555
O6_3 Cu1_3 1_555 1_555
O7_3 Cu2_3 1_555 1_555
N3 C39 1_555 1_555
O21 C35 1_555 1_555
O24 C35 1_555 1_555
O15 Cu3 1_555 1_555
C35 C36 1_555 1_555
C36 C37 1_555 1_555
C37 H21 1_555 1_555
C38 C37 1_555 1_555
H22 C38 1_555 1_555
C39 C38 1_555 1_555
C40 C39 1_555 1_555
H23 C40 1_555 1_555
C41 C36 1_555 1_555
H24 C41 1_555 1_555
C42 N3 1_555 1_555
C43 C42 1_555 1_555
H25 C43 1_555 1_555
C44 C43 1_555 1_555
C45 C44 1_555 1_555
C46 C45 1_555 1_555
H27 C46 1_555 1_555
C47 C42 1_555 1_555
H28 C47 1_555 1_555
C49 N3 1_555 1_555
C50 C49 1_555 1_555
H29 C50 1_555 1_555
C51 C49 1_555 1_555
H30 C51 1_555 1_555
C52 C50 1_555 1_555
H31 C52 1_555 1_555
N4 C57 1_555 1_555
O17 C53 1_555 1_555
O18 C53 1_555 1_555
O19 C66 1_555 1_555
O20 C66 1_555 1_555
C53 C54 1_555 1_555
C54 C55 1_555 1_555
C55 H32 1_555 1_555
C56 C55 1_555 1_555
H33 C56 1_555 1_555
C57 C56 1_555 1_555
C58 C57 1_555 1_555
H34 C58 1_555 1_555
C59 C54 1_555 1_555
H35 C59 1_555 1_555
C60 N4 1_555 1_555
C61 C60 1_555 1_555
H36 C61 1_555 1_555
C62 C61 1_555 1_555
H37 C62 1_555 1_555
C63 C62 1_555 1_555
C64 C63 1_555 1_555
H38 C64 1_555 1_555
C65 C60 1_555 1_555
H39 C65 1_555 1_555
C66 C63 1_555 1_555
C67 C51 1_555 1_555
C68 C52 1_555 1_555
H40 C68 1_555 1_555
Cu7 O18 1_555 1_555
Cu10 O17 1_555 1_555
O23 Cu2_3 1_555 1_555
O26 Cu1_3 1_555 1_555
O15 C48 1_555 1_555
C40 C41 1_555 1_555
C45 C48 1_555 1_555
C46 C47 1_555 1_555
N4 C67 1_555 1_555
O19 Cu11 1_555 1_555
C58 C59 1_555 1_555
C64 C65 1_555 1_555
C67 C68 1_555 1_555
O6_3 H41 1_555 1_555
O5_2 Cu3_2 1_555 1_555
O28 Cu3_2 1_555 1_555
O29 Cu3_2 1_555 1_555
Cu1_4 O2 1_555 1_555
Cu2_4 O1 1_555 1_555
N1 C5 1_555 1_555
O1 C1 1_555 1_555
O2 C1 1_555 1_555
O4 C14 1_555 1_555
O6_4 Cu1_4 1_555 1_555
O7_4 Cu2_4 1_555 1_555
C1 C2 1_555 1_555
C2 C3 1_555 1_555
C3 H1 1_555 1_555
C4 C3 1_555 1_555
H2 C4 1_555 1_555
C5 C4 1_555 1_555
C6 C5 1_555 1_555
H3 C6 1_555 1_555
C7 C2 1_555 1_555
H4 C7 1_555 1_555
C8 N1 1_555 1_555
C9 C8 1_555 1_555
H5 C9 1_555 1_555
C10 C9 1_555 1_555
C11 C10 1_555 1_555
C12 C11 1_555 1_555
H7 C12 1_555 1_555
C13 C8 1_555 1_555
H8 C13 1_555 1_555
C14 C11 1_555 1_555
C15 N1 1_555 1_555
C16 C15 1_555 1_555
H9 C16 1_555 1_555
C17 C15 1_555 1_555
H10 C17 1_555 1_555
C18 C16 1_555 1_555
H11 C18 1_555 1_555
N2 C23 1_555 1_555
O8 C19 1_555 1_555
O9 C19 1_555 1_555
O10 C32 1_555 1_555
O11 C32 1_555 1_555
C19 C20 1_555 1_555
C20 C21 1_555 1_555
C21 H12 1_555 1_555
C22 C21 1_555 1_555
H13 C22 1_555 1_555
C23 C22 1_555 1_555
C24 C23 1_555 1_555
H14 C24 1_555 1_555
C25 C20 1_555 1_555
H15 C25 1_555 1_555
C26 N2 1_555 1_555
C27 C26 1_555 1_555
H16 C27 1_555 1_555
C28 C27 1_555 1_555
H17 C28 1_555 1_555
C29 C28 1_555 1_555
C30 C29 1_555 1_555
H18 C30 1_555 1_555
C31 C26 1_555 1_555
H19 C31 1_555 1_555
C32 C29 1_555 1_555
C33 C17 1_555 1_555
C34 C18 1_555 1_555
H20 C34 1_555 1_555
Cu4 O4 1_555 1_555
O14 Cu4 1_555 1_555
O16 Cu4 1_555 1_555
Cu7 O9 1_555 1_555
Cu10 O8 1_555 1_555
Cu12 O10 1_555 1_555
C6 C7 1_555 1_555
C12 C13 1_555 1_555
N2 C33 1_555 1_555
C24 C25 1_555 1_555
C30 C31 1_555 1_555
C33 C34 1_555 1_555
O7_4 H43 1_555 1_555
O16_2 Cu4_2 1_555 1_555
O27 Cu4_2 1_555 1_555
O30 Cu4_2 1_555 1_555
O7 H43_2 1_555 1_555
O6_2 H41_2 1_555 1_555
O6_4 H42_2 1_555 1_555
O7_4 H44_2 1_555 1_555
N1_2 C5_2 1_555 1_555
O22 C1_2 1_555 1_555
O25 C1_2 1_555 1_555
O4_2 C14_2 1_555 1_555
C1_2 C2_2 1_555 1_555
C2_2 C3_2 1_555 1_555
C3_2 H1_2 1_555 1_555
C4_2 C3_2 1_555 1_555
H2_2 C4_2 1_555 1_555
C5_2 C4_2 1_555 1_555
C6_2 C5_2 1_555 1_555
H3_2 C6_2 1_555 1_555
C7_2 C2_2 1_555 1_555
H4_2 C7_2 1_555 1_555
C8_2 N1_2 1_555 1_555
C9_2 C8_2 1_555 1_555
H5_2 C9_2 1_555 1_555
C10_2 C9_2 1_555 1_555
C11_2 C10_2 1_555 1_555
C12_2 C11_2 1_555 1_555
H7_2 C12_2 1_555 1_555
C13_2 C8_2 1_555 1_555
H8_2 C13_2 1_555 1_555
C14_2 C11_2 1_555 1_555
C15_2 N1_2 1_555 1_555
C16_2 C15_2 1_555 1_555
H9_2 C16_2 1_555 1_555
C17_2 C15_2 1_555 1_555
H10_2 C17_2 1_555 1_555
C18_2 C16_2 1_555 1_555
H11_2 C18_2 1_555 1_555
N2_2 C23_2 1_555 1_555
O8_2 C19_2 1_555 1_555
O9_2 C19_2 1_555 1_555
O10_2 C32_2 1_555 1_555
O11_2 C32_2 1_555 1_555
C19_2 C20_2 1_555 1_555
C20_2 C21_2 1_555 1_555
C21_2 H12_2 1_555 1_555
C22_2 C21_2 1_555 1_555
H13_2 C22_2 1_555 1_555
C23_2 C22_2 1_555 1_555
C24_2 C23_2 1_555 1_555
H14_2 C24_2 1_555 1_555
C25_2 C20_2 1_555 1_555
H15_2 C25_2 1_555 1_555
C26_2 N2_2 1_555 1_555
C27_2 C26_2 1_555 1_555
H16_2 C27_2 1_555 1_555
C28_2 C27_2 1_555 1_555
H17_2 C28_2 1_555 1_555
C29_2 C28_2 1_555 1_555
C30_2 C29_2 1_555 1_555
H18_2 C30_2 1_555 1_555
C31_2 C26_2 1_555 1_555
H19_2 C31_2 1_555 1_555
C32_2 C29_2 1_555 1_555
C33_2 C17_2 1_555 1_555
C34_2 C18_2 1_555 1_555
H20_2 C34_2 1_555 1_555
Cu4_3 O4_2 1_555 1_555
O14_2 Cu4_3 1_555 1_555
O16_3 Cu4_3 1_555 1_555
Cu7 O9_2 1_555 1_555
Cu10 O8_2 1_555 1_555
Cu12_2 O10_2 1_555 1_555
C6_2 C7_2 1_555 1_555
C12_2 C13_2 1_555 1_555
N2_2 C33_2 1_555 1_555
C24_2 C25_2 1_555 1_555
C30_2 C31_2 1_555 1_555
C33_2 C34_2 1_555 1_555
O7_2 H43_3 1_555 1_555
O16_4 Cu4_4 1_555 1_555
O27_2 Cu4_4 1_555 1_555
O30_2 Cu4_4 1_555 1_555
O6_3 H42_3 1_555 1_555
O7_3 H44_3 1_555 1_555
Cu3_3 O3_2 1_555 1_555
O5_3 Cu3_3 1_555 1_555
N3_2 C39_2 1_555 1_555
O23 C35_2 1_555 1_555
O26 C35_2 1_555 1_555
O15_2 Cu3_3 1_555 1_555
C35_2 C36_2 1_555 1_555
C36_2 C37_2 1_555 1_555
C37_2 H21_2 1_555 1_555
C38_2 C37_2 1_555 1_555
H22_2 C38_2 1_555 1_555
C39_2 C38_2 1_555 1_555
C40_2 C39_2 1_555 1_555
H23_2 C40_2 1_555 1_555
C41_2 C36_2 1_555 1_555
H24_2 C41_2 1_555 1_555
C42_2 N3_2 1_555 1_555
C43_2 C42_2 1_555 1_555
H25_2 C43_2 1_555 1_555
C44_2 C43_2 1_555 1_555
C45_2 C44_2 1_555 1_555
C46_2 C45_2 1_555 1_555
H27_2 C46_2 1_555 1_555
C47_2 C42_2 1_555 1_555
H28_2 C47_2 1_555 1_555
C49_2 N3_2 1_555 1_555
C50_2 C49_2 1_555 1_555
H29_2 C50_2 1_555 1_555
C51_2 C49_2 1_555 1_555
H30_2 C51_2 1_555 1_555
C52_2 C50_2 1_555 1_555
H31_2 C52_2 1_555 1_555
N4_2 C57_2 1_555 1_555
O17_2 C53_2 1_555 1_555
O18_2 C53_2 1_555 1_555
O19_2 C66_2 1_555 1_555
O20_2 C66_2 1_555 1_555
C53_2 C54_2 1_555 1_555
C54_2 C55_2 1_555 1_555
C55_2 H32_2 1_555 1_555
C56_2 C55_2 1_555 1_555
H33_2 C56_2 1_555 1_555
C57_2 C56_2 1_555 1_555
C58_2 C57_2 1_555 1_555
H34_2 C58_2 1_555 1_555
C59_2 C54_2 1_555 1_555
H35_2 C59_2 1_555 1_555
C60_2 N4_2 1_555 1_555
C61_2 C60_2 1_555 1_555
H36_2 C61_2 1_555 1_555
C62_2 C61_2 1_555 1_555
H37_2 C62_2 1_555 1_555
C63_2 C62_2 1_555 1_555
C64_2 C63_2 1_555 1_555
H38_2 C64_2 1_555 1_555
C65_2 C60_2 1_555 1_555
H39_2 C65_2 1_555 1_555
C66_2 C63_2 1_555 1_555
C67_2 C51_2 1_555 1_555
C68_2 C52_2 1_555 1_555
H40_2 C68_2 1_555 1_555
Cu7 O18_2 1_555 1_555
Cu10 O17_2 1_555 1_555
O15_2 C48_2 1_555 1_555
C40_2 C41_2 1_555 1_555
C45_2 C48_2 1_555 1_555
C46_2 C47_2 1_555 1_555
N4_2 C67_2 1_555 1_555
O19_2 Cu11_2 1_555 1_555
C58_2 C59_2 1_555 1_555
C64_2 C65_2 1_555 1_555
C67_2 C68_2 1_555 1_555
O6_4 H41_3 1_555 1_555
O5_4 Cu3_4 1_555 1_555
O28_2 Cu3_4 1_555 1_555
O29_2 Cu3_4 1_555 1_555
O6 H41_4 1_555 1_555
O6_2 H42_4 1_555 1_555
O7_2 H44_4 1_555 1_555
O7_3 H43_4 1_555 1_555
O16_5 Cu12_2 1_555 1_555
O27_3 Cu12_2 1_555 1_555
O5_5 Cu11_2 1_555 1_555
O6_5 Cu7 1_555 1_555
O7_5 Cu10 1_555 1_555
O28_3 Cu11_2 1_555 1_555
O5_6 Cu11 1_555 1_555
O28_4 Cu11 1_555 1_555
O16_6 Cu12 1_555 1_555
O27_4 Cu12 1_555 1_555
Cu5 O2_2 1_555 1_555
Cu8 O1_2 1_555 1_555
N1_3 C5_3 1_555 1_555
O1_2 C1_3 1_555 1_555
O2_2 C1_3 1_555 1_555
O29 C14_3 1_555 1_555
O6_6 Cu5 1_555 1_555
O7_6 Cu8 1_555 1_555
C1_3 C2_3 1_555 1_555
C2_3 C3_3 1_555 1_555
C3_3 H1_3 1_555 1_555
C4_3 C3_3 1_555 1_555
H2_3 C4_3 1_555 1_555
C5_3 C4_3 1_555 1_555
C6_3 C5_3 1_555 1_555
H3_3 C6_3 1_555 1_555
C7_3 C2_3 1_555 1_555
H4_3 C7_3 1_555 1_555
C8_3 N1_3 1_555 1_555
C9_3 C8_3 1_555 1_555
H5_3 C9_3 1_555 1_555
C10_3 C9_3 1_555 1_555
C11_3 C10_3 1_555 1_555
C12_3 C11_3 1_555 1_555
H7_3 C12_3 1_555 1_555
C13_3 C8_3 1_555 1_555
H8_3 C13_3 1_555 1_555
C14_3 C11_3 1_555 1_555
C15_3 N1_3 1_555 1_555
C16_3 C15_3 1_555 1_555
H9_3 C16_3 1_555 1_555
C17_3 C15_3 1_555 1_555
H10_3 C17_3 1_555 1_555
C18_3 C16_3 1_555 1_555
H11_3 C18_3 1_555 1_555
N2_3 C23_3 1_555 1_555
O8_3 C19_3 1_555 1_555
O9_3 C19_3 1_555 1_555
O28_4 C32_3 1_555 1_555
O30_4 C32_3 1_555 1_555
C19_3 C20_3 1_555 1_555
C20_3 C21_3 1_555 1_555
C21_3 H12_3 1_555 1_555
C22_3 C21_3 1_555 1_555
H13_3 C22_3 1_555 1_555
C23_3 C22_3 1_555 1_555
C24_3 C23_3 1_555 1_555
H14_3 C24_3 1_555 1_555
C25_3 C20_3 1_555 1_555
H15_3 C25_3 1_555 1_555
C26_3 N2_3 1_555 1_555
C27_3 C26_3 1_555 1_555
H16_3 C27_3 1_555 1_555
C28_3 C27_3 1_555 1_555
H17_3 C28_3 1_555 1_555
C29_3 C28_3 1_555 1_555
C30_3 C29_3 1_555 1_555
H18_3 C30_3 1_555 1_555
C31_3 C26_3 1_555 1_555
H19_3 C31_3 1_555 1_555
C32_3 C29_3 1_555 1_555
C33_3 C17_3 1_555 1_555
C34_3 C18_3 1_555 1_555
H20_3 C34_3 1_555 1_555
Cu6 O9_3 1_555 1_555
Cu9 O8_3 1_555 1_555
C6_3 C7_3 1_555 1_555
C12_3 C13_3 1_555 1_555
N2_3 C33_3 1_555 1_555
C24_3 C25_3 1_555 1_555
C30_3 C31_3 1_555 1_555
C33_3 C34_3 1_555 1_555
O7_6 H43_5 1_555 1_555
O6_7 Cu5_2 1_555 1_555
O7_7 Cu8_2 1_555 1_555
N3_3 C39_3 1_555 1_555
O12 C35_3 1_555 1_555
O13 C35_3 1_555 1_555
C35_3 C36_3 1_555 1_555
C36_3 C37_3 1_555 1_555
C37_3 H21_3 1_555 1_555
C38_3 C37_3 1_555 1_555
H22_3 C38_3 1_555 1_555
C39_3 C38_3 1_555 1_555
C40_3 C39_3 1_555 1_555
H23_3 C40_3 1_555 1_555
C41_3 C36_3 1_555 1_555
H24_3 C41_3 1_555 1_555
C42_3 N3_3 1_555 1_555
C43_3 C42_3 1_555 1_555
H25_3 C43_3 1_555 1_555
C44_3 C43_3 1_555 1_555
C45_3 C44_3 1_555 1_555
C46_3 C45_3 1_555 1_555
H27_3 C46_3 1_555 1_555
C47_3 C42_3 1_555 1_555
H28_3 C47_3 1_555 1_555
C49_3 N3_3 1_555 1_555
C50_3 C49_3 1_555 1_555
H29_3 C50_3 1_555 1_555
C51_3 C49_3 1_555 1_555
H30_3 C51_3 1_555 1_555
C52_3 C50_3 1_555 1_555
H31_3 C52_3 1_555 1_555
N4_3 C57_3 1_555 1_555
O17_3 C53_3 1_555 1_555
O18_3 C53_3 1_555 1_555
O27_4 C66_3 1_555 1_555
O29_4 C66_3 1_555 1_555
C53_3 C54_3 1_555 1_555
C54_3 C55_3 1_555 1_555
C55_3 H32_3 1_555 1_555
C56_3 C55_3 1_555 1_555
H33_3 C56_3 1_555 1_555
C57_3 C56_3 1_555 1_555
C58_3 C57_3 1_555 1_555
H34_3 C58_3 1_555 1_555
C59_3 C54_3 1_555 1_555
H35_3 C59_3 1_555 1_555
C60_3 N4_3 1_555 1_555
C61_3 C60_3 1_555 1_555
H36_3 C61_3 1_555 1_555
C62_3 C61_3 1_555 1_555
H37_3 C62_3 1_555 1_555
C63_3 C62_3 1_555 1_555
C64_3 C63_3 1_555 1_555
H38_3 C64_3 1_555 1_555
C65_3 C60_3 1_555 1_555
H39_3 C65_3 1_555 1_555
C66_3 C63_3 1_555 1_555
C67_3 C51_3 1_555 1_555
C68_3 C52_3 1_555 1_555
H40_3 C68_3 1_555 1_555
Cu5_4 O13 1_555 1_555
Cu6 O18_3 1_555 1_555
Cu8_4 O12 1_555 1_555
Cu9 O17_3 1_555 1_555
O23_2 Cu8_2 1_555 1_555
O26_2 Cu5_2 1_555 1_555
O30 C48_3 1_555 1_555
C40_3 C41_3 1_555 1_555
C45_3 C48_3 1_555 1_555
C46_3 C47_3 1_555 1_555
N4_3 C67_3 1_555 1_555
C58_3 C59_3 1_555 1_555
C64_3 C65_3 1_555 1_555
C67_3 C68_3 1_555 1_555
O6_7 H41_5 1_555 1_555
O6_8 Cu5_3 1_555 1_555
O7_8 Cu8_3 1_555 1_555
O22_2 Cu8_3 1_555 1_555
O25_2 Cu5_3 1_555 1_555
O6_9 Cu5_4 1_555 1_555
O7_9 Cu8_4 1_555 1_555
O6_9 H42_5 1_555 1_555
O7_9 H44_5 1_555 1_555
O6_6 H42_6 1_555 1_555
O7_6 H44_6 1_555 1_555
O6_8 H41_6 1_555 1_555
O7_9 H43_6 1_555 1_555
N3_4 C39_4 1_555 1_555
O23_2 C35_4 1_555 1_555
O26_2 C35_4 1_555 1_555
C35_4 C36_4 1_555 1_555
C36_4 C37_4 1_555 1_555
C37_4 H21_4 1_555 1_555
C38_4 C37_4 1_555 1_555
H22_4 C38_4 1_555 1_555
C39_4 C38_4 1_555 1_555
C40_4 C39_4 1_555 1_555
H23_4 C40_4 1_555 1_555
C41_4 C36_4 1_555 1_555
H24_4 C41_4 1_555 1_555
C42_4 N3_4 1_555 1_555
C43_4 C42_4 1_555 1_555
H25_4 C43_4 1_555 1_555
C44_4 C43_4 1_555 1_555
C45_4 C44_4 1_555 1_555
C46_4 C45_4 1_555 1_555
H27_4 C46_4 1_555 1_555
C47_4 C42_4 1_555 1_555
H28_4 C47_4 1_555 1_555
C49_4 N3_4 1_555 1_555
C50_4 C49_4 1_555 1_555
H29_4 C50_4 1_555 1_555
C51_4 C49_4 1_555 1_555
H30_4 C51_4 1_555 1_555
C52_4 C50_4 1_555 1_555
H31_4 C52_4 1_555 1_555
N4_4 C57_4 1_555 1_555
O17_4 C53_4 1_555 1_555
O18_4 C53_4 1_555 1_555
O27_3 C66_4 1_555 1_555
O29_3 C66_4 1_555 1_555
C53_4 C54_4 1_555 1_555
C54_4 C55_4 1_555 1_555
C55_4 H32_4 1_555 1_555
C56_4 C55_4 1_555 1_555
H33_4 C56_4 1_555 1_555
C57_4 C56_4 1_555 1_555
C58_4 C57_4 1_555 1_555
H34_4 C58_4 1_555 1_555
C59_4 C54_4 1_555 1_555
H35_4 C59_4 1_555 1_555
C60_4 N4_4 1_555 1_555
C61_4 C60_4 1_555 1_555
H36_4 C61_4 1_555 1_555
C62_4 C61_4 1_555 1_555
H37_4 C62_4 1_555 1_555
C63_4 C62_4 1_555 1_555
C64_4 C63_4 1_555 1_555
H38_4 C64_4 1_555 1_555
C65_4 C60_4 1_555 1_555
H39_4 C65_4 1_555 1_555
C66_4 C63_4 1_555 1_555
C67_4 C51_4 1_555 1_555
C68_4 C52_4 1_555 1_555
H40_4 C68_4 1_555 1_555
Cu6 O18_4 1_555 1_555
Cu9 O17_4 1_555 1_555
O30_2 C48_4 1_555 1_555
C40_4 C41_4 1_555 1_555
C45_4 C48_4 1_555 1_555
C46_4 C47_4 1_555 1_555
N4_4 C67_4 1_555 1_555
C58_4 C59_4 1_555 1_555
C64_4 C65_4 1_555 1_555
C67_4 C68_4 1_555 1_555
O6_6 H41_7 1_555 1_555
O6_7 H42_7 1_555 1_555
O7_7 H44_7 1_555 1_555
N1_4 C5_4 1_555 1_555
O22_2 C1_4 1_555 1_555
O25_2 C1_4 1_555 1_555
O29_2 C14_4 1_555 1_555
C1_4 C2_4 1_555 1_555
C2_4 C3_4 1_555 1_555
C3_4 H1_4 1_555 1_555
C4_4 C3_4 1_555 1_555
H2_4 C4_4 1_555 1_555
C5_4 C4_4 1_555 1_555
C6_4 C5_4 1_555 1_555
H3_4 C6_4 1_555 1_555
C7_4 C2_4 1_555 1_555
H4_4 C7_4 1_555 1_555
C8_4 N1_4 1_555 1_555
C9_4 C8_4 1_555 1_555
H5_4 C9_4 1_555 1_555
C10_4 C9_4 1_555 1_555
C11_4 C10_4 1_555 1_555
C12_4 C11_4 1_555 1_555
H7_4 C12_4 1_555 1_555
C13_4 C8_4 1_555 1_555
H8_4 C13_4 1_555 1_555
C14_4 C11_4 1_555 1_555
C15_4 N1_4 1_555 1_555
C16_4 C15_4 1_555 1_555
H9_4 C16_4 1_555 1_555
C17_4 C15_4 1_555 1_555
H10_4 C17_4 1_555 1_555
C18_4 C16_4 1_555 1_555
H11_4 C18_4 1_555 1_555
N2_4 C23_4 1_555 1_555
O8_4 C19_4 1_555 1_555
O9_4 C19_4 1_555 1_555
O28_3 C32_4 1_555 1_555
O30_3 C32_4 1_555 1_555
C19_4 C20_4 1_555 1_555
C20_4 C21_4 1_555 1_555
C21_4 H12_4 1_555 1_555
C22_4 C21_4 1_555 1_555
H13_4 C22_4 1_555 1_555
C23_4 C22_4 1_555 1_555
C24_4 C23_4 1_555 1_555
H14_4 C24_4 1_555 1_555
C25_4 C20_4 1_555 1_555
H15_4 C25_4 1_555 1_555
C26_4 N2_4 1_555 1_555
C27_4 C26_4 1_555 1_555
H16_4 C27_4 1_555 1_555
C28_4 C27_4 1_555 1_555
H17_4 C28_4 1_555 1_555
C29_4 C28_4 1_555 1_555
C30_4 C29_4 1_555 1_555
H18_4 C30_4 1_555 1_555
C31_4 C26_4 1_555 1_555
H19_4 C31_4 1_555 1_555
C32_4 C29_4 1_555 1_555
C33_4 C17_4 1_555 1_555
C34_4 C18_4 1_555 1_555
H20_4 C34_4 1_555 1_555
Cu6 O9_4 1_555 1_555
Cu9 O8_4 1_555 1_555
C6_4 C7_4 1_555 1_555
C12_4 C13_4 1_555 1_555
N2_4 C33_4 1_555 1_555
C24_4 C25_4 1_555 1_555
C30_4 C31_4 1_555 1_555
C33_4 C34_4 1_555 1_555
O7_8 H43_7 1_555 1_555
O7_7 H43_8 1_555 1_555
O6_8 H42_8 1_555 1_555
O7_8 H44_8 1_555 1_555
O6_9 H41_8 1_555 1_555
O6_10 Cu6 1_555 1_555
O7_10 Cu9 1_555 1_555

#END
