
###############################################################################
#
# This file contains modified crystal structure data generated from the
# MOF subset of the Cambridge Structural Database (CSD) v543 
# hosted by the Cambridge Crystallographic Data Centre (CCDC).
#
# This work is licensed under the Creative Commons
# Attribution-NonCommercial-ShareAlike 4.0 International License.
# To view a copy of this license, visit
# http://creativecommons.org/licenses/by-nc-sa/4.0/
# or send a letter to
# Creative Commons, PO Box 1866, Mountain View, CA 94042, USA.
#
# CIF created using the CSD Python API on 29 September 2022
# The structure has been converted into the P1 space group
# The structure has a 3D framework
# The original CSD entry XUDPIX is in the orthorhombic crystal system
# The framework has been calculated to contain at least 10.0% void space
# The void calculation uses a probe of radius 1.32A, grid spacing 0.4
# H atom positions have been added when not included in the experimental data
# Generated hydrogen atom positions removed from atoms on special positions
#
###############################################################################

data_XUDPIX
_chemical_formula_moiety         '(C648 H496 Cu29 N72 O144)n'
_symmetry_cell_setting           triclinic
_symmetry_space_group_name_H-M   'P 1'
_symmetry_Int_Tables_number      1
_space_group_name_Hall           'P 1'
loop_
_symmetry_equiv_pos_site_id
_symmetry_equiv_pos_as_xyz
1 x,y,z
_cell_length_a                   37.441(7)
_cell_length_b                   37.449(7)
_cell_length_c                   27.250(5)
_cell_angle_alpha                90
_cell_angle_beta                 90
_cell_angle_gamma                90
_cell_volume                     38208
loop_
_atom_site_label
_atom_site_type_symbol
_atom_site_fract_x
_atom_site_fract_y
_atom_site_fract_z
Cu1 Cu 0.00102(2) 0.00335(2) 0.14958(2)
Cu3 Cu 0.23856(2) 0.28367(2) 0.03999(3)
N1 N 0.09341(17) 0.30135(14) 0.3418(2)
N2 N 0.09182(16) 0.19675(14) 0.2360(2)
O1 O 0.02520(12) 0.04760(11) 0.17054(18)
O6 O 0.01457(12) 0.04553(11) 0.25101(18)
O11 O 0.01461(18) 0.0120(2) 0.0740(2)
O12 O 0.20498(15) 0.26665(14) 0.0891(2)
O13 O 0.22513(14) 0.21020(14) 0.0903(2)
O14 O 0.02528(12) 0.45707(10) 0.35680(17)
O15 O 0.02990(12) 0.45143(11) 0.27513(17)
O16 O 0.22472(14) 0.29159(14) 0.4905(2)
O17 O 0.20582(14) 0.23482(14) 0.4902(2)
C1 C 0.07391(19) 0.27466(17) 0.3147(3)
C2 C 0.09156(18) 0.24868(16) 0.2884(3)
H1 H 0.1164 0.2487 0.2873
C3 C 0.07297(18) 0.22308(17) 0.2639(3)
C4 C 0.07597(19) 0.16252(17) 0.2290(3)
C5 C 0.0731(2) 0.1463(2) 0.1843(3)
H2 H 0.0822 0.1579 0.1568
C6 C 0.0574(2) 0.11355(19) 0.1784(3)
H3 H 0.0556 0.1035 0.1473
C7 C 0.04399(17) 0.09513(16) 0.2189(3)
C8 C 0.02714(16) 0.06006(15) 0.2129(3)
H8 H 0.2407 0.0067 0.2875
C43 C 0.0486(2) 0.11005(19) 0.2652(3)
H24 H 0.0412 0.0976 0.2930
C44 C 0.0644(2) 0.1438(2) 0.2702(3)
H25 H 0.0672 0.1537 0.3012
C45 C 0.11954(19) 0.20724(17) 0.2043(3)
C46 C 0.1476(2) 0.18339(19) 0.1939(3)
H26 H 0.1479 0.1610 0.2087
C47 C 0.1745(2) 0.19279(19) 0.1623(3)
H27 H 0.1924 0.1765 0.1550
C48 C 0.1751(2) 0.2253(2) 0.1418(3)
C49 C 0.2045(2) 0.2343(2) 0.1045(3)
C50 C 0.1482(2) 0.2494(2) 0.1520(3)
H28 H 0.1491 0.2722 0.1383
C51 C 0.1206(2) 0.24055(17) 0.1816(3)
H29 H 0.1023 0.2568 0.1869
C52 C 0.0364(2) 0.2232(2) 0.2655(4)
H30 H 0.0234 0.2057 0.2491
C53 C 0.0189(2) 0.2498(3) 0.2917(5)
C54 C 0.0366(2) 0.2745(2) 0.3165(4)
H32 H 0.0244 0.2915 0.3349
C55 C 0.08075(19) 0.33753(16) 0.3369(3)
C56 C 0.0736(2) 0.35106(18) 0.2897(3)
H33 H 0.0792 0.3374 0.2622
C57 C 0.0586(2) 0.38445(17) 0.2837(3)
H34 H 0.0533 0.3929 0.2524
C58 C 0.05126(16) 0.40527(16) 0.3244(2)
C59 C 0.03444(15) 0.44074(15) 0.3170(3)
C60 C 0.0592(2) 0.39259(18) 0.3717(3)
H35 H 0.0544 0.4066 0.3991
C61 C 0.0745(2) 0.35848(18) 0.3772(3)
H36 H 0.0803 0.3501 0.4083
C62 C 0.12078(19) 0.29301(16) 0.3746(3)
C63 C 0.1472(2) 0.31775(17) 0.3864(3)
H37 H 0.1462 0.3405 0.3729
C64 C 0.1741(2) 0.30925(18) 0.4170(3)
H38 H 0.1919 0.3259 0.4234
C65 C 0.17526(19) 0.27578(18) 0.4390(3)
C66 C 0.2042(2) 0.2668(2) 0.4757(3)
C67 C 0.1506(2) 0.2520(2) 0.4279(3)
H39 H 0.1521 0.2292 0.4415
C68 C 0.1222(2) 0.26006(17) 0.3962(3)
H40 H 0.1046 0.2432 0.3900
H41 H 0.0131 0.0140 0.3646
N7 N 0.2182(2) 0.33785(15) 0.0405(3)
C72 C 0.1899(3) 0.3502(3) 0.0709(4)
H44 H 0.1805 0.3382 0.0979
N8 N 0.1787(3) 0.3839(3) 0.0529(5)
C73 C 0.1999(4) 0.3925(2) 0.0114(5)
C74 C 0.2243(3) 0.3640(3) 0.0037(4)
C77 C 0.1449(5) 0.4022(7) 0.0751(7)
C78 C 0.0243(5) 0.0037(6) 0.4629(6)
H48 H 0.0407 0.0058 0.4374
N9 N 0.0535(4) 0.0072(5) 0.0100(5)
N10 N 0.02457(18) 0.01039(19) 0.6820(2)
N11 N 0.0280(4) 0.0130(4) 0.59794(19)
C83 C 0.0575(3) 0.0322(4) 0.6175(3)
H57 H 0.0751 0.0438 0.5995
C84 C 0.0554(2) 0.0305(3) 0.6695(3)
H58 H 0.0713 0.0409 0.6915
C85 C 0.0119(6) 0.0047(7) 0.5468(4)
C86 C 0.0345(4) 0.0086(6) 0.5095(7)
H59 H 0.0580 0.0149 0.5160
Cu14 Cu 0.49089(2) 0.00205(2) 0.25387(2)
Cu16 Cu 0.00911(2) 0.49795(2) 0.25387(2)
Cu17 Cu 0.00911(2) 0.00205(2) 0.75387(2)
Cu19 Cu 0.26144(2) 0.21633(2) 0.03999(3)
Cu21 Cu 0.26144(2) 0.28367(2) 0.53999(3)
Cu23 Cu 0.23856(2) 0.21633(2) 0.53999(3)
O46 O 0.27487(14) 0.28980(14) 0.0903(2)
H116 H 0.148951 0.406646 0.114199
H117 H 0.140412 0.427692 0.056888
H118 H 0.121759 0.385027 0.0696988
H45 H 0.1981 0.4131 0.9925
H46 H 0.2413 0.3627 0.9789
C80 C 0.0453(10) 0.0372(7) 0.9783(11)
H50 H 0.0294 0.0532 0.9949
H51 H 0.0341 0.0286 0.9488
H52 H 0.0669 0.0495 0.9700
H54 H 0.0942 0.0004 0.9674
O51 O 0.27528(14) 0.29159(14) 0.9905(2)
O54 O 0.20582(14) 0.26518(14) 0.9902(2)
N3 N 0.19445(15) 0.90888(19) 0.2246(3)
O2 O 0.04497(12) 0.97601(12) 0.1647(2)
O3 O 0.26616(14) 0.79492(16) 0.0812(2)
O4 O 0.20991(17) 0.77551(18) 0.0817(2)
O5 O 0.03889(11) 0.97570(13) 0.24578(19)
O7 O 0.44550(11) 0.97811(13) 0.27184(18)
O8 O 0.23272(14) 0.79443(18) 0.4802(2)
O9 O 0.28887(16) 0.77646(18) 0.4789(2)
O10 O 0.45533(11) 0.97111(12) 0.35204(17)
C9 C 0.05558(17) 0.96924(16) 0.2071(3)
C10 C 0.09080(16) 0.95164(17) 0.2125(3)
C11 C 0.1101(2) 0.9423(2) 0.1720(3)
H4 H 0.0997 0.9453 0.1413
C12 C 0.1445(2) 0.9284(3) 0.1743(4)
H5 H 0.1575 0.9236 0.1461
C13 C 0.15858(18) 0.9221(2) 0.2212(3)
C14 C 0.21886(17) 0.9270(2) 0.2534(3)
C15 C 0.24538(16) 0.9087(2) 0.2797(3)
H6 H 0.2461 0.8839 0.2790
C16 C 0.27000(18) 0.9272(2) 0.3063(3)
C17 C 0.2685(2) 0.9644(2) 0.3091(4)
H7 H 0.2852 0.9769 0.3275
C18 C 0.2425(3) 0.9820(3) 0.2848(5)
C19 C 0.2182(2) 0.9630(3) 0.2554(5)
H9 H 0.2014 0.9755 0.2370
C20 C 0.2043(2) 0.8802(2) 0.1933(3)
C21 C 0.2376(2) 0.8790(2) 0.1728(4)
H10 H 0.2536 0.8973 0.1801
C22 C 0.2487(2) 0.8521(3) 0.1420(4)
H11 H 0.2716 0.8520 0.1289
C23 C 0.2240(2) 0.8240(2) 0.1306(3)
C24 C 0.2358(2) 0.7958(2) 0.0957(4)
C25 C 0.1899(2) 0.8251(2) 0.1508(4)
H12 H 0.1735 0.8074 0.1431
C26 C 0.1803(2) 0.8527(2) 0.1827(3)
H13 H 0.1578 0.8528 0.1969
C27 C 0.13975(18) 0.9307(2) 0.2618(4)
H14 H 0.1495 0.9267 0.2927
C28 C 0.10594(19) 0.9457(2) 0.2575(3)
H15 H 0.0934 0.9518 0.2857
C29 C 0.43655(15) 0.96824(16) 0.3135(3)
C30 C 0.40094(16) 0.95071(17) 0.3192(3)
C31 C 0.38809(18) 0.9405(2) 0.3642(3)
H16 H 0.4024 0.9431 0.3919
C32 C 0.35419(19) 0.9266(2) 0.3687(3)
H17 H 0.3457 0.9200 0.3994
C33 C 0.33290(17) 0.9223(2) 0.3281(3)
C34 C 0.34581(18) 0.9323(2) 0.2824(3)
H18 H 0.3314 0.9296 0.2549
C35 C 0.37909(18) 0.9460(2) 0.2775(3)
H19 H 0.3876 0.9523 0.2466
N4 N 0.29766(15) 0.9082(2) 0.3324(3)
C36 C 0.28929(18) 0.8794(2) 0.3646(3)
C37 C 0.25588(19) 0.8777(2) 0.3876(4)
H20 H 0.2392 0.8954 0.3809
C38 C 0.2472(2) 0.8525(2) 0.4178(4)
H21 H 0.2243 0.8520 0.4311
C39 C 0.2726(2) 0.8254(2) 0.4310(3)
C40 C 0.2636(2) 0.7966(2) 0.4668(3)
C41 C 0.30616(19) 0.8267(2) 0.4085(4)
H22 H 0.3234 0.8097 0.4161
C42 C 0.3139(2) 0.8538(2) 0.3746(3)
H23 H 0.3359 0.8541 0.3588
C79 C 0.0361(4) 0.9993(5) 0.0514(5)
H49 H 0.0439 0.9778 0.0648
Cu4 Cu 0.28340(2) 0.76109(3) 0.03072(4)
O18 O 0.33891(17) 0.7784(2) 0.0295(3)
C82 C 0.0077(2) 0.9996(3) 0.6378(3)
Cu5 Cu 0.49898(2) 0.49665(2) 0.14958(2)
Cu6 Cu 0.50911(2) 0.50205(2) 0.24613(2)
N12 N 0.40659(17) 0.19865(14) 0.3418(2)
N13 N 0.40818(16) 0.30325(14) 0.2360(2)
N14 N 0.30555(15) 0.59112(19) 0.2246(3)
O19 O 0.47480(12) 0.45240(11) 0.17054(18)
O20 O 0.45503(12) 0.52399(12) 0.1647(2)
O21 O 0.23384(14) 0.70508(16) 0.0812(2)
O22 O 0.29009(17) 0.72449(18) 0.0817(2)
O23 O 0.46111(11) 0.52430(13) 0.24578(19)
O24 O 0.48543(12) 0.45447(11) 0.25101(18)
O25 O 0.05450(11) 0.52189(13) 0.27184(18)
O26 O 0.26728(14) 0.70557(18) 0.4802(2)
O27 O 0.21113(16) 0.72354(18) 0.4789(2)
O28 O 0.04467(11) 0.52889(12) 0.35204(17)
O29 O 0.48539(18) 0.4880(2) 0.0740(2)
O30 O 0.29502(15) 0.23335(14) 0.0891(2)
O32 O 0.47472(12) 0.04293(10) 0.35680(17)
O33 O 0.47010(12) 0.04857(11) 0.27513(17)
O34 O 0.27528(14) 0.20841(14) 0.4905(2)
O35 O 0.29418(14) 0.26518(14) 0.4902(2)
C88 C 0.42609(19) 0.22534(17) 0.3147(3)
C89 C 0.40844(18) 0.25132(16) 0.2884(3)
H61 H 0.3836 0.2513 0.2873
C90 C 0.42703(18) 0.27692(17) 0.2639(3)
C91 C 0.42403(19) 0.33748(17) 0.2290(3)
C92 C 0.4269(2) 0.3537(2) 0.1843(3)
H62 H 0.4178 0.3421 0.1568
C93 C 0.4426(2) 0.38645(19) 0.1784(3)
H63 H 0.4444 0.3965 0.1473
C94 C 0.45601(17) 0.40487(16) 0.2189(3)
C95 C 0.47286(16) 0.43994(15) 0.2129(3)
C96 C 0.44442(17) 0.53076(16) 0.2071(3)
C97 C 0.40920(16) 0.54836(17) 0.2125(3)
C98 C 0.3899(2) 0.5577(2) 0.1720(3)
H64 H 0.4003 0.5547 0.1413
C99 C 0.3555(2) 0.5716(3) 0.1743(4)
H65 H 0.3425 0.5764 0.1461
C100 C 0.34142(18) 0.5779(2) 0.2212(3)
C101 C 0.28114(17) 0.5730(2) 0.2534(3)
C102 C 0.25462(16) 0.5913(2) 0.2797(3)
H66 H 0.2539 0.6161 0.2790
C103 C 0.23000(18) 0.5728(2) 0.3063(3)
C104 C 0.2315(2) 0.5356(2) 0.3091(4)
H67 H 0.2148 0.5231 0.3275
C105 C 0.2575(3) 0.5180(3) 0.2848(5)
H68 H 0.2593 0.4933 0.2875
C106 C 0.2818(2) 0.5370(3) 0.2554(5)
H69 H 0.2986 0.5245 0.2370
C107 C 0.2957(2) 0.6198(2) 0.1933(3)
C108 C 0.2624(2) 0.6210(2) 0.1728(4)
H70 H 0.2464 0.6027 0.1801
C109 C 0.2513(2) 0.6479(3) 0.1420(4)
H71 H 0.2284 0.6480 0.1289
C110 C 0.2760(2) 0.6760(2) 0.1306(3)
C111 C 0.2642(2) 0.7042(2) 0.0957(4)
C112 C 0.3101(2) 0.6749(2) 0.1508(4)
H72 H 0.3265 0.6926 0.1431
C113 C 0.3197(2) 0.6473(2) 0.1827(3)
H73 H 0.3422 0.6472 0.1969
C114 C 0.36025(18) 0.5693(2) 0.2618(4)
H74 H 0.3505 0.5733 0.2927
C115 C 0.39406(19) 0.5543(2) 0.2575(3)
H75 H 0.4066 0.5482 0.2857
C116 C 0.06345(15) 0.53176(16) 0.3135(3)
C117 C 0.09906(16) 0.54929(17) 0.3192(3)
C118 C 0.11191(18) 0.5595(2) 0.3642(3)
H76 H 0.0976 0.5569 0.3919
C119 C 0.14581(19) 0.5734(2) 0.3687(3)
H77 H 0.1543 0.5800 0.3994
C120 C 0.16710(17) 0.5777(2) 0.3281(3)
C121 C 0.15419(18) 0.5677(2) 0.2824(3)
H78 H 0.1686 0.5704 0.2549
C122 C 0.12091(18) 0.5540(2) 0.2775(3)
H79 H 0.1124 0.5477 0.2466
N15 N 0.20234(15) 0.5918(2) 0.3324(3)
C123 C 0.21071(18) 0.6206(2) 0.3646(3)
C124 C 0.24412(19) 0.6223(2) 0.3876(4)
H80 H 0.2608 0.6046 0.3809
C125 C 0.2528(2) 0.6475(2) 0.4178(4)
H81 H 0.2757 0.6480 0.4311
C126 C 0.2274(2) 0.6746(2) 0.4310(3)
C127 C 0.2364(2) 0.7034(2) 0.4668(3)
C128 C 0.19384(19) 0.6733(2) 0.4085(4)
H82 H 0.1766 0.6903 0.4161
C129 C 0.1861(2) 0.6462(2) 0.3746(3)
H83 H 0.1641 0.6459 0.3588
C130 C 0.4514(2) 0.38995(19) 0.2652(3)
H84 H 0.4588 0.4024 0.2930
C131 C 0.4356(2) 0.3562(2) 0.2702(3)
H85 H 0.4328 0.3463 0.3012
C132 C 0.38046(19) 0.29276(17) 0.2043(3)
C133 C 0.3524(2) 0.31661(19) 0.1939(3)
H86 H 0.3521 0.3390 0.2087
C134 C 0.3255(2) 0.30721(19) 0.1623(3)
H87 H 0.3076 0.3235 0.1550
C135 C 0.3249(2) 0.2747(2) 0.1418(3)
C136 C 0.2955(2) 0.2657(2) 0.1045(3)
C137 C 0.3518(2) 0.2506(2) 0.1520(3)
H88 H 0.3509 0.2278 0.1383
C138 C 0.3794(2) 0.25945(17) 0.1816(3)
H89 H 0.3977 0.2432 0.1869
C139 C 0.4636(2) 0.2768(2) 0.2655(4)
H90 H 0.4766 0.2943 0.2491
C140 C 0.4811(2) 0.2502(3) 0.2917(5)
H91 H 0.5059 0.2498 0.2919
C141 C 0.4634(2) 0.2255(2) 0.3165(4)
H92 H 0.4756 0.2085 0.3349
C142 C 0.41925(19) 0.16247(16) 0.3369(3)
C143 C 0.4264(2) 0.14894(18) 0.2897(3)
H93 H 0.4208 0.1626 0.2622
C144 C 0.4414(2) 0.11555(17) 0.2837(3)
H94 H 0.4467 0.1071 0.2524
C145 C 0.44874(16) 0.09473(16) 0.3244(2)
C146 C 0.46556(15) 0.05926(15) 0.3170(3)
C147 C 0.4408(2) 0.10741(18) 0.3717(3)
H95 H 0.4456 0.0934 0.3991
C148 C 0.4255(2) 0.14152(18) 0.3772(3)
H96 H 0.4197 0.1499 0.4083
C149 C 0.37922(19) 0.20699(16) 0.3746(3)
C150 C 0.3528(2) 0.18225(17) 0.3864(3)
H97 H 0.3538 0.1595 0.3729
C151 C 0.3259(2) 0.19075(18) 0.4170(3)
H98 H 0.3081 0.1741 0.4234
C152 C 0.32474(19) 0.22422(18) 0.4390(3)
C153 C 0.2958(2) 0.2332(2) 0.4757(3)
C154 C 0.3494(2) 0.2480(2) 0.4279(3)
H99 H 0.3479 0.2708 0.4415
C155 C 0.3778(2) 0.23994(17) 0.3962(3)
H100 H 0.3954 0.2568 0.3900
N16 N 0.2818(2) 0.16215(15) 0.0405(3)
C156 C 0.3101(3) 0.1498(3) 0.0709(4)
H101 H 0.3195 0.1618 0.0979
N17 N 0.3213(3) 0.1161(3) 0.0529(5)
C157 C 0.3001(4) 0.1075(2) 0.0114(5)
C158 C 0.2757(3) 0.1360(3) 0.0037(4)
C159 C 0.3551(5) 0.0978(7) 0.0751(7)
N18 N 0.4465(4) 0.4928(5) 0.0100(5)
C160 C 0.4639(4) 0.5007(5) 0.0514(5)
H104 H 0.4561 0.5222 0.0648
Cu8 Cu 0.21660(2) 0.73891(3) 0.03072(4)
O36 O 0.16109(17) 0.7216(2) 0.0295(3)
Cu10 Cu 0.50102(2) 0.99665(2) 0.35042(2)
O38 O 0.55450(11) 0.47811(13) 0.22816(18)
O44 O 0.54467(11) 0.47111(12) 0.14796(17)
O47 O 0.52528(12) 0.54293(10) 0.14320(17)
O49 O 0.52990(12) 0.54857(11) 0.22487(17)
N19 N 0.52457(18) 0.51039(19) 0.3180(2)
Cu24 Cu 0.21660(2) 0.76109(3) 0.53072(4)
Cu25 Cu 0.28340(2) 0.73891(3) 0.53072(4)
H111 H 0.351049 0.0933542 0.114199
H112 H 0.359588 0.0723075 0.056888
H113 H 0.378241 0.114973 0.0696988
C81 C 0.0740(8) 0.9868(7) 0.9783(9)
H53 H 0.0822 0.9658 0.9951
H55 H 0.0598 0.9799 0.9505
H102 H 0.3019 0.0869 0.9925
H103 H 0.2587 0.1373 0.9789
C161 C 0.4547(10) 0.4628(7) 0.9783(11)
H105 H 0.4706 0.4468 0.9949
H106 H 0.4659 0.4714 0.9488
H107 H 0.4331 0.4505 0.9700
C162 C 0.4260(8) 0.5132(7) 0.9783(9)
H108 H 0.4178 0.5342 0.9951
H109 H 0.4058 0.4996 0.9674
H110 H 0.4402 0.5201 0.9505
O39 O 0.26728(14) 0.79443(18) 0.9802(2)
O40 O 0.23272(14) 0.70557(18) 0.9802(2)
O41 O 0.21113(16) 0.77646(18) 0.9789(2)
O42 O 0.28887(16) 0.72354(18) 0.9789(2)
O52 O 0.22472(14) 0.20841(14) 0.9905(2)
O53 O 0.29418(14) 0.23482(14) 0.9902(2)
H31 H 0.9941 0.2502 0.2919
C69 C 0.9923(2) 0.0004(3) 0.3622(3)
Cu12 Cu 0.99898(2) 0.50335(2) 0.35042(2)
O37 O 0.94550(11) 0.02189(13) 0.22816(18)
O43 O 0.95533(11) 0.02889(12) 0.14796(17)
Cu2 Cu 0.99089(2) 0.99795(2) 0.24613(2)
N5 N 0.97543(18) 0.98961(19) 0.3180(2)
N6 N 0.9720(4) 0.9870(4) 0.40206(19)
C70 C 0.9425(3) 0.9678(4) 0.3825(3)
H42 H 0.9249 0.9562 0.4005
C71 C 0.9446(2) 0.9695(3) 0.3305(3)
H43 H 0.9287 0.9591 0.3085
C75 C 0.9881(6) 0.9953(7) 0.4532(4)
C76 C 0.9655(4) 0.9914(6) 0.4905(7)
H47 H 0.9420 0.9851 0.4840
H56 H 0.9869 0.9860 0.6354
C87 C 0.9757(5) 0.9963(6) 0.5371(6)
H60 H 0.9593 0.9942 0.5626
O48 O 0.97472(12) 0.95707(10) 0.14320(17)
O50 O 0.97010(12) 0.95143(11) 0.22487(17)
C69_2 C 0.5077(2) 0.4996(3) 0.3622(3)
H41_2 H 0.4869 0.4860 0.3646
N6_2 N 0.5280(4) 0.5130(4) 0.40206(19)
C70_2 C 0.5575(3) 0.5322(4) 0.3825(3)
H42_2 H 0.5751 0.5438 0.4005
C71_2 C 0.5554(2) 0.5305(3) 0.3305(3)
H43_2 H 0.5713 0.5409 0.3085
C75_2 C 0.5119(6) 0.5047(7) 0.4532(4)
C76_2 C 0.5345(4) 0.5086(6) 0.4905(7)
H47_2 H 0.5580 0.5149 0.4840
C78_2 C 0.4757(5) 0.4963(6) 0.4629(6)
H48_2 H 0.4593 0.4942 0.4374
N10_2 N 0.47543(18) 0.48961(19) 0.6820(2)
C82_2 C 0.4923(2) 0.5004(3) 0.6378(3)
H56_2 H 0.5131 0.5140 0.6354
N11_2 N 0.4720(4) 0.4870(4) 0.59794(19)
C83_2 C 0.4425(3) 0.4678(4) 0.6175(3)
H57_2 H 0.4249 0.4562 0.5995
C84_2 C 0.4446(2) 0.4695(3) 0.6695(3)
H58_2 H 0.4287 0.4591 0.6915
C85_2 C 0.4881(6) 0.4953(7) 0.5468(4)
C86_2 C 0.4655(4) 0.4914(6) 0.5095(7)
H59_2 H 0.4420 0.4851 0.5160
C87_2 C 0.5243(5) 0.5037(6) 0.5371(6)
H60_2 H 0.5407 0.5058 0.5626
Cu17_2 Cu 0.49089(2) 0.49795(2) 0.75387(2)
H91_2 H 0.0059 0.7502 0.2081
N19_2 N 0.02457(18) 0.48961(19) 0.1820(2)
N3_2 N 0.69445(15) 0.09112(19) 0.2754(3)
O2_2 O 0.54497(12) 0.02399(12) 0.3353(2)
O3_2 O 0.76616(14) 0.20508(16) 0.4188(2)
O4_2 O 0.70991(17) 0.22449(18) 0.4183(2)
O5_2 O 0.53889(11) 0.02430(13) 0.25422(19)
O8_2 O 0.73272(14) 0.20557(18) 0.0198(2)
O9_2 O 0.78887(16) 0.22354(18) 0.0211(2)
C9_2 C 0.55558(17) 0.03076(16) 0.2929(3)
C10_2 C 0.59080(16) 0.04836(17) 0.2875(3)
C11_2 C 0.6101(2) 0.0577(2) 0.3280(3)
H4_2 H 0.5997 0.0547 0.3587
C12_2 C 0.6445(2) 0.0716(3) 0.3257(4)
H5_2 H 0.6575 0.0764 0.3539
C13_2 C 0.65858(18) 0.0779(2) 0.2788(3)
C14_2 C 0.71886(17) 0.0730(2) 0.2466(3)
C15_2 C 0.74538(16) 0.0913(2) 0.2203(3)
H6_2 H 0.7461 0.1161 0.2210
C16_2 C 0.77000(18) 0.0728(2) 0.1937(3)
C17_2 C 0.7685(2) 0.0356(2) 0.1909(4)
H7_2 H 0.7852 0.0231 0.1725
C18_2 C 0.7425(3) 0.0180(3) 0.2152(5)
C19_2 C 0.7182(2) 0.0370(3) 0.2446(5)
H9_2 H 0.7014 0.0245 0.2630
C20_2 C 0.7043(2) 0.1198(2) 0.3067(3)
C21_2 C 0.7376(2) 0.1210(2) 0.3272(4)
H10_2 H 0.7536 0.1027 0.3199
C22_2 C 0.7487(2) 0.1479(3) 0.3580(4)
H11_2 H 0.7716 0.1480 0.3711
C23_2 C 0.7240(2) 0.1760(2) 0.3694(3)
C24_2 C 0.7358(2) 0.2042(2) 0.4043(4)
C25_2 C 0.6899(2) 0.1749(2) 0.3492(4)
H12_2 H 0.6735 0.1926 0.3569
C26_2 C 0.6803(2) 0.1473(2) 0.3173(3)
H13_2 H 0.6578 0.1472 0.3031
C27_2 C 0.63975(18) 0.0693(2) 0.2382(4)
H14_2 H 0.6495 0.0733 0.2073
C28_2 C 0.60594(19) 0.0543(2) 0.2425(3)
H15_2 H 0.5934 0.0482 0.2143
C29_2 C 0.93655(15) 0.03176(16) 0.1865(3)
C30_2 C 0.90094(16) 0.04929(17) 0.1808(3)
C31_2 C 0.88809(18) 0.0595(2) 0.1358(3)
H16_2 H 0.9024 0.0569 0.1081
C32_2 C 0.85419(19) 0.0734(2) 0.1313(3)
H17_2 H 0.8457 0.0800 0.1006
C33_2 C 0.83290(17) 0.0777(2) 0.1719(3)
C34_2 C 0.84581(18) 0.0677(2) 0.2176(3)
H18_2 H 0.8314 0.0704 0.2451
C35_2 C 0.87909(18) 0.0540(2) 0.2225(3)
H19_2 H 0.8876 0.0477 0.2534
N4_2 N 0.79766(15) 0.0918(2) 0.1676(3)
C36_2 C 0.78929(18) 0.1206(2) 0.1354(3)
C37_2 C 0.75588(19) 0.1223(2) 0.1124(4)
H20_2 H 0.7392 0.1046 0.1191
C38_2 C 0.7472(2) 0.1475(2) 0.0822(4)
H21_2 H 0.7243 0.1480 0.0689
C39_2 C 0.7726(2) 0.1746(2) 0.0690(3)
C40_2 C 0.7636(2) 0.2034(2) 0.0332(3)
C41_2 C 0.80616(19) 0.1733(2) 0.0915(4)
H22_2 H 0.8234 0.1903 0.0839
C42_2 C 0.8139(2) 0.1462(2) 0.1254(3)
H23_2 H 0.8359 0.1459 0.1412
N5_2 N 0.47543(18) 0.01039(19) 0.1820(2)
N6_3 N 0.4720(4) 0.0130(4) 0.09794(19)
C70_3 C 0.4425(3) 0.0322(4) 0.1175(3)
H42_3 H 0.4249 0.0438 0.0995
C71_3 C 0.4446(2) 0.0305(3) 0.1695(3)
H43_3 H 0.4287 0.0409 0.1915
C75_3 C 0.4881(6) 0.0047(7) 0.0468(4)
C76_3 C 0.4655(4) 0.0086(6) 0.0095(7)
H47_3 H 0.4420 0.0149 0.0160
C79_2 C 0.5361(4) 0.0007(5) 0.4486(5)
H49_2 H 0.5439 0.0222 0.4352
C81_2 C 0.5740(8) 0.0132(7) 0.5217(9)
H53_2 H 0.5822 0.0342 0.5049
H55_2 H 0.5598 0.0201 0.5495
Cu4_2 Cu 0.78340(2) 0.23891(3) 0.46928(4)
O18_2 O 0.83891(17) 0.2216(2) 0.4705(3)
Cu7 Cu 0.76144(2) 0.78367(2) 0.46001(3)
N12_2 N 0.90659(17) 0.80135(14) 0.1582(2)
N13_2 N 0.90818(16) 0.69675(14) 0.2640(2)
N14_2 N 0.80555(15) 0.40888(19) 0.2754(3)
O19_2 O 0.97480(12) 0.54760(11) 0.32946(18)
O20_2 O 0.95503(12) 0.47601(12) 0.3353(2)
O21_2 O 0.73384(14) 0.29492(16) 0.4188(2)
O22_2 O 0.79009(17) 0.27551(18) 0.4183(2)
O23_2 O 0.96111(11) 0.47570(13) 0.25422(19)
O24_2 O 0.98543(12) 0.54553(11) 0.24899(18)
O26_2 O 0.76728(14) 0.29443(18) 0.0198(2)
O27_2 O 0.71113(16) 0.27646(18) 0.0211(2)
O29_2 O 0.98539(18) 0.5120(2) 0.4260(2)
O30_2 O 0.79502(15) 0.76665(14) 0.4109(2)
O31 O 0.77487(14) 0.71020(14) 0.4097(2)
O34_2 O 0.77528(14) 0.79159(14) 0.0095(2)
O35_2 O 0.79418(14) 0.73482(14) 0.0098(2)
C88_2 C 0.92609(19) 0.77466(17) 0.1853(3)
C89_2 C 0.90844(18) 0.74868(16) 0.2116(3)
H61_2 H 0.8836 0.7487 0.2127
C90_2 C 0.92703(18) 0.72308(17) 0.2361(3)
C91_2 C 0.92403(19) 0.66252(17) 0.2710(3)
C92_2 C 0.9269(2) 0.6463(2) 0.3157(3)
H62_2 H 0.9178 0.6579 0.3432
C93_2 C 0.9426(2) 0.61355(19) 0.3216(3)
H63_2 H 0.9444 0.6035 0.3527
C94_2 C 0.95601(17) 0.59513(16) 0.2811(3)
C95_2 C 0.97286(16) 0.56006(15) 0.2871(3)
C96_2 C 0.94442(17) 0.46924(16) 0.2929(3)
C97_2 C 0.90920(16) 0.45164(17) 0.2875(3)
C98_2 C 0.8899(2) 0.4423(2) 0.3280(3)
H64_2 H 0.9003 0.4453 0.3587
C99_2 C 0.8555(2) 0.4284(3) 0.3257(4)
H65_2 H 0.8425 0.4236 0.3539
C100_2 C 0.84142(18) 0.4221(2) 0.2788(3)
C101_2 C 0.78114(17) 0.4270(2) 0.2466(3)
C102_2 C 0.75462(16) 0.4087(2) 0.2203(3)
H66_2 H 0.7539 0.3839 0.2210
C103_2 C 0.73000(18) 0.4272(2) 0.1937(3)
C104_2 C 0.7315(2) 0.4644(2) 0.1909(4)
H67_2 H 0.7148 0.4769 0.1725
C105_2 C 0.7575(3) 0.4820(3) 0.2152(5)
H68_2 H 0.7593 0.5067 0.2125
C106_2 C 0.7818(2) 0.4630(3) 0.2446(5)
H69_2 H 0.7986 0.4755 0.2630
C107_2 C 0.7957(2) 0.3802(2) 0.3067(3)
C108_2 C 0.7624(2) 0.3790(2) 0.3272(4)
H70_2 H 0.7464 0.3973 0.3199
C109_2 C 0.7513(2) 0.3521(3) 0.3580(4)
H71_2 H 0.7284 0.3520 0.3711
C110_2 C 0.7760(2) 0.3240(2) 0.3694(3)
C111_2 C 0.7642(2) 0.2958(2) 0.4043(4)
C112_2 C 0.8101(2) 0.3251(2) 0.3492(4)
H72_2 H 0.8265 0.3074 0.3569
C113_2 C 0.8197(2) 0.3527(2) 0.3173(3)
H73_2 H 0.8422 0.3528 0.3031
C114_2 C 0.86025(18) 0.4307(2) 0.2382(4)
H74_2 H 0.8505 0.4267 0.2073
C115_2 C 0.89406(19) 0.4457(2) 0.2425(3)
H75_2 H 0.9066 0.4518 0.2143
C116_2 C 0.56345(15) 0.46824(16) 0.1865(3)
C117_2 C 0.59906(16) 0.45071(17) 0.1808(3)
C118_2 C 0.61191(18) 0.4405(2) 0.1358(3)
H76_2 H 0.5976 0.4431 0.1081
C119_2 C 0.64581(19) 0.4266(2) 0.1313(3)
H77_2 H 0.6543 0.4200 0.1006
C120_2 C 0.66710(17) 0.4223(2) 0.1719(3)
C121_2 C 0.65419(18) 0.4323(2) 0.2176(3)
H78_2 H 0.6686 0.4296 0.2451
C122_2 C 0.62091(18) 0.4460(2) 0.2225(3)
H79_2 H 0.6124 0.4523 0.2534
N15_2 N 0.70234(15) 0.4082(2) 0.1676(3)
C123_2 C 0.71071(18) 0.3794(2) 0.1354(3)
C124_2 C 0.74412(19) 0.3777(2) 0.1124(4)
H80_2 H 0.7608 0.3954 0.1191
C125_2 C 0.7528(2) 0.3525(2) 0.0822(4)
H81_2 H 0.7757 0.3520 0.0689
C126_2 C 0.7274(2) 0.3254(2) 0.0690(3)
C127_2 C 0.7364(2) 0.2966(2) 0.0332(3)
C128_2 C 0.69384(19) 0.3267(2) 0.0915(4)
H82_2 H 0.6766 0.3097 0.0839
C129_2 C 0.6861(2) 0.3538(2) 0.1254(3)
H83_2 H 0.6641 0.3541 0.1412
C130_2 C 0.9514(2) 0.61005(19) 0.2348(3)
H84_2 H 0.9588 0.5976 0.2070
C131_2 C 0.9356(2) 0.6438(2) 0.2298(3)
H85_2 H 0.9328 0.6537 0.1988
C132_2 C 0.88046(19) 0.70724(17) 0.2957(3)
C133_2 C 0.8524(2) 0.68339(19) 0.3061(3)
H86_2 H 0.8521 0.6610 0.2913
C134_2 C 0.8255(2) 0.69279(19) 0.3377(3)
H87_2 H 0.8076 0.6765 0.3450
C135_2 C 0.8249(2) 0.7253(2) 0.3582(3)
C136_2 C 0.7955(2) 0.7343(2) 0.3955(3)
C137_2 C 0.8518(2) 0.7494(2) 0.3480(3)
H88_2 H 0.8509 0.7722 0.3617
C138_2 C 0.8794(2) 0.74055(17) 0.3184(3)
H89_2 H 0.8977 0.7568 0.3131
C139_2 C 0.9636(2) 0.7232(2) 0.2345(4)
H90_2 H 0.9766 0.7057 0.2509
C140_2 C 0.9811(2) 0.7498(3) 0.2083(5)
C141_2 C 0.9634(2) 0.7745(2) 0.1835(4)
H92_2 H 0.9756 0.7915 0.1651
C142_2 C 0.91925(19) 0.83753(16) 0.1631(3)
C143_2 C 0.9264(2) 0.85106(18) 0.2103(3)
H93_2 H 0.9208 0.8374 0.2378
C144_2 C 0.9414(2) 0.88445(17) 0.2163(3)
H94_2 H 0.9467 0.8929 0.2476
C145_2 C 0.94874(16) 0.90527(16) 0.1756(2)
C146_2 C 0.96556(15) 0.94074(15) 0.1830(3)
C147_2 C 0.9408(2) 0.89259(18) 0.1283(3)
H95_2 H 0.9456 0.9066 0.1009
C148_2 C 0.9255(2) 0.85848(18) 0.1228(3)
H96_2 H 0.9197 0.8501 0.0917
C149_2 C 0.87922(19) 0.79301(16) 0.1254(3)
C150_2 C 0.8528(2) 0.81775(17) 0.1136(3)
H97_2 H 0.8538 0.8405 0.1271
C151_2 C 0.8259(2) 0.80925(18) 0.0830(3)
H98_2 H 0.8081 0.8259 0.0766
C152_2 C 0.82474(19) 0.77578(18) 0.0610(3)
C153_2 C 0.7958(2) 0.7668(2) 0.0243(3)
C154_2 C 0.8494(2) 0.7520(2) 0.0721(3)
H99_2 H 0.8479 0.7292 0.0585
C155_2 C 0.8778(2) 0.76006(17) 0.1038(3)
H100_2 H 0.8954 0.7432 0.1100
N16_2 N 0.7818(2) 0.83785(15) 0.4595(3)
C156_2 C 0.8101(3) 0.8502(3) 0.4291(4)
H101_2 H 0.8195 0.8382 0.4021
N17_2 N 0.8213(3) 0.8839(3) 0.4471(5)
C157_2 C 0.8001(4) 0.8925(2) 0.4886(5)
H102_2 H 0.8019 0.9131 0.5075
C158_2 C 0.7757(3) 0.8640(3) 0.4963(4)
H103_2 H 0.7587 0.8627 0.5211
C159_2 C 0.8551(5) 0.9022(7) 0.4249(7)
N18_2 N 0.9465(4) 0.5072(5) 0.4900(5)
C160_2 C 0.9639(4) 0.4993(5) 0.4486(5)
H104_2 H 0.9561 0.4778 0.4352
C161_2 C 0.9547(10) 0.5372(7) 0.5217(11)
H105_2 H 0.9706 0.5532 0.5051
H106_2 H 0.9659 0.5286 0.5512
H107_2 H 0.9331 0.5495 0.5300
C162_2 C 0.9260(8) 0.4868(7) 0.5217(9)
H108_2 H 0.9178 0.4658 0.5049
H109_2 H 0.9058 0.5004 0.5326
H110_2 H 0.9402 0.4799 0.5495
Cu8_2 Cu 0.71660(2) 0.26109(3) 0.46928(4)
O36_2 O 0.66109(17) 0.2784(2) 0.4705(3)
Cu18 Cu 0.73856(2) 0.71633(2) 0.46001(3)
O39_2 O 0.76728(14) 0.20557(18) 0.5198(2)
O40_2 O 0.73272(14) 0.29443(18) 0.5198(2)
O41_2 O 0.71113(16) 0.22354(18) 0.5211(2)
O42_2 O 0.78887(16) 0.27646(18) 0.5211(2)
O45 O 0.72513(14) 0.78980(14) 0.4097(2)
O52_2 O 0.72472(14) 0.79159(14) 0.5095(2)
O53_2 O 0.79418(14) 0.76518(14) 0.5098(2)
H111_2 H 0.851049 0.906646 0.385801
H112_2 H 0.859588 0.927692 0.443112
H113_2 H 0.878241 0.885027 0.430301
C82_3 C 0.5077(2) 0.0004(3) 0.8622(3)
H56_3 H 0.4869 0.0140 0.8646
C87_3 C 0.4757(5) 0.0037(6) 0.9629(6)
H60_3 H 0.4593 0.0058 0.9374
Cu20 Cu 0.76144(2) 0.71633(2) 0.96001(3)
Cu22 Cu 0.73856(2) 0.78367(2) 0.96001(3)
Cu24_2 Cu 0.71660(2) 0.23891(3) 0.96928(4)
Cu25_2 Cu 0.78340(2) 0.26109(3) 0.96928(4)
N1_2 N 0.59341(17) 0.69865(14) 0.1582(2)
N2_2 N 0.59182(16) 0.80325(14) 0.2640(2)
O1_2 O 0.52520(12) 0.95240(11) 0.32946(18)
O6_2 O 0.51457(12) 0.95447(11) 0.24899(18)
O11_2 O 0.51461(18) 0.9880(2) 0.4260(2)
O12_2 O 0.70498(15) 0.73335(14) 0.4109(2)
O16_2 O 0.72472(14) 0.70841(14) 0.0095(2)
O17_2 O 0.70582(14) 0.76518(14) 0.0098(2)
C1_2 C 0.57391(19) 0.72534(17) 0.1853(3)
C2_2 C 0.59156(18) 0.75132(16) 0.2116(3)
H1_2 H 0.6164 0.7513 0.2127
C3_2 C 0.57297(18) 0.77692(17) 0.2361(3)
C4_2 C 0.57597(19) 0.83748(17) 0.2710(3)
C5_2 C 0.5731(2) 0.8537(2) 0.3157(3)
H2_2 H 0.5822 0.8421 0.3432
C6_2 C 0.5574(2) 0.88645(19) 0.3216(3)
H3_2 H 0.5556 0.8965 0.3527
C7_2 C 0.54399(17) 0.90487(16) 0.2811(3)
C8_2 C 0.52714(16) 0.93994(15) 0.2871(3)
H8_2 H 0.7407 0.9933 0.2125
C43_2 C 0.5486(2) 0.88995(19) 0.2348(3)
H24_2 H 0.5412 0.9024 0.2070
C44_2 C 0.5644(2) 0.8562(2) 0.2298(3)
H25_2 H 0.5672 0.8463 0.1988
C45_2 C 0.61954(19) 0.79276(17) 0.2957(3)
C46_2 C 0.6476(2) 0.81661(19) 0.3061(3)
H26_2 H 0.6479 0.8390 0.2913
C47_2 C 0.6745(2) 0.80721(19) 0.3377(3)
H27_2 H 0.6924 0.8235 0.3450
C48_2 C 0.6751(2) 0.7747(2) 0.3582(3)
C49_2 C 0.7045(2) 0.7657(2) 0.3955(3)
C50_2 C 0.6482(2) 0.7506(2) 0.3480(3)
H28_2 H 0.6491 0.7278 0.3617
C51_2 C 0.6206(2) 0.75945(17) 0.3184(3)
H29_2 H 0.6023 0.7432 0.3131
C52_2 C 0.5364(2) 0.7768(2) 0.2345(4)
H30_2 H 0.5234 0.7943 0.2509
C53_2 C 0.5189(2) 0.7502(3) 0.2083(5)
H31_2 H 0.4941 0.7498 0.2081
C54_2 C 0.5366(2) 0.7255(2) 0.1835(4)
H32_2 H 0.5244 0.7085 0.1651
C55_2 C 0.58075(19) 0.66247(16) 0.1631(3)
C56_2 C 0.5736(2) 0.64894(18) 0.2103(3)
H33_2 H 0.5792 0.6626 0.2378
C57_2 C 0.5586(2) 0.61555(17) 0.2163(3)
H34_2 H 0.5533 0.6071 0.2476
C58_2 C 0.55126(16) 0.59473(16) 0.1756(2)
C59_2 C 0.53444(15) 0.55926(15) 0.1830(3)
C60_2 C 0.5592(2) 0.60741(18) 0.1283(3)
H35_2 H 0.5544 0.5934 0.1009
C61_2 C 0.5745(2) 0.64152(18) 0.1228(3)
H36_2 H 0.5803 0.6499 0.0917
C62_2 C 0.62078(19) 0.70699(16) 0.1254(3)
C63_2 C 0.6472(2) 0.68225(17) 0.1136(3)
H37_2 H 0.6462 0.6595 0.1271
C64_2 C 0.6741(2) 0.69075(18) 0.0830(3)
H38_2 H 0.6919 0.6741 0.0766
C65_2 C 0.67526(19) 0.72422(18) 0.0610(3)
C66_2 C 0.7042(2) 0.7332(2) 0.0243(3)
C67_2 C 0.6506(2) 0.7480(2) 0.0721(3)
H39_2 H 0.6521 0.7708 0.0585
C68_2 C 0.6222(2) 0.73994(17) 0.1038(3)
H40_2 H 0.6046 0.7568 0.1100
C69_3 C 0.4923(2) 0.9996(3) 0.1378(3)
H41_3 H 0.5131 0.9860 0.1354
N7_2 N 0.7182(2) 0.66215(15) 0.4595(3)
C72_2 C 0.6899(3) 0.6498(3) 0.4291(4)
H44_2 H 0.6805 0.6618 0.4021
N8_2 N 0.6787(3) 0.6161(3) 0.4471(5)
C73_2 C 0.6999(4) 0.6075(2) 0.4886(5)
H45_2 H 0.6981 0.5869 0.5075
C74_2 C 0.7243(3) 0.6360(3) 0.4963(4)
H46_2 H 0.7413 0.6373 0.5211
C77_2 C 0.6449(5) 0.5978(7) 0.4249(7)
C78_3 C 0.5243(5) 0.9963(6) 0.0371(6)
H48_3 H 0.5407 0.9942 0.0626
N9_2 N 0.5535(4) 0.9928(5) 0.4900(5)
C80_2 C 0.5453(10) 0.9628(7) 0.5217(11)
H50_2 H 0.5294 0.9468 0.5051
H51_2 H 0.5341 0.9714 0.5512
H52_2 H 0.5669 0.9505 0.5300
H54_2 H 0.5942 0.9996 0.5326
O51_2 O 0.77528(14) 0.70841(14) 0.5095(2)
O54_2 O 0.70582(14) 0.73482(14) 0.5098(2)
H116_2 H 0.648951 0.593354 0.385801
H117_2 H 0.640412 0.572308 0.443112
H118_2 H 0.621759 0.614973 0.430301
N10_3 N 0.52457(18) 0.98961(19) 0.8180(2)
N11_3 N 0.5280(4) 0.9870(4) 0.90206(19)
C83_3 C 0.5575(3) 0.9678(4) 0.8825(3)
H57_3 H 0.5751 0.9562 0.9005
C84_3 C 0.5554(2) 0.9695(3) 0.8305(3)
H58_3 H 0.5713 0.9591 0.8085
C85_3 C 0.5119(6) 0.9953(7) 0.9532(4)
C86_3 C 0.5345(4) 0.9914(6) 0.9905(7)
H59_3 H 0.5580 0.9851 0.9840
Cu17_3 Cu 0.50911(2) 0.99795(2) 0.74613(2)
C69_4 C 0.0077(2) 0.5004(3) 0.1378(3)
N6_4 N 0.0280(4) 0.4870(4) 0.09794(19)
C70_4 C 0.0575(3) 0.4678(4) 0.1175(3)
H42_4 H 0.0751 0.4562 0.0995
C71_4 C 0.0554(2) 0.4695(3) 0.1695(3)
H43_4 H 0.0713 0.4591 0.1915
C75_4 C 0.0119(6) 0.4953(7) 0.0468(4)
C76_4 C 0.0345(4) 0.4914(6) 0.0095(7)
H47_4 H 0.0580 0.4851 0.0160
H56_4 H 0.0131 0.4860 0.8646
C87_4 C 0.0243(5) 0.4963(6) 0.9629(6)
H60_4 H 0.0407 0.4942 0.9374
H41_4 H 0.9869 0.5140 0.1354
C78_4 C 0.9757(5) 0.5037(6) 0.0371(6)
H48_4 H 0.9593 0.5058 0.0626
N10_4 N 0.97543(18) 0.51039(19) 0.8180(2)
C82_4 C 0.9923(2) 0.4996(3) 0.8622(3)
N11_4 N 0.9720(4) 0.5130(4) 0.90206(19)
C83_4 C 0.9425(3) 0.5322(4) 0.8825(3)
H57_4 H 0.9249 0.5438 0.9005
C84_4 C 0.9446(2) 0.5305(3) 0.8305(3)
H58_4 H 0.9287 0.5409 0.8085
C85_4 C 0.9881(6) 0.5047(7) 0.9532(4)
C86_4 C 0.9655(4) 0.5086(6) 0.9905(7)
H59_4 H 0.9420 0.5149 0.9840
Cu17_4 Cu 0.99089(2) 0.50205(2) 0.74613(2)
Cu11 Cu 0.00102(2) 0.49665(2) 0.64958(2)
O48_2 O 0.02528(12) 0.04293(10) 0.85680(17)
O50_2 O 0.02990(12) 0.04857(11) 0.77513(17)
H31_3 H 0.0059 0.7498 0.7081
O37_2 O 0.05450(11) 0.97811(13) 0.77184(18)
O43_2 O 0.04467(11) 0.97111(12) 0.85204(17)
Cu9 Cu 0.49898(2) 0.00335(2) 0.64958(2)
C81_3 C 0.9260(8) 0.0132(7) 0.0217(9)
H53_3 H 0.9178 0.0342 0.0049
H55_3 H 0.9402 0.0201 0.0495
H102_3 H 0.6981 0.9131 0.0075
H103_3 H 0.7413 0.8627 0.0211
C161_3 C 0.5453(10) 0.5372(7) 0.0217(11)
H105_3 H 0.5294 0.5532 0.0051
H106_3 H 0.5341 0.5286 0.0512
H107_3 H 0.5669 0.5495 0.0300
C162_3 C 0.5740(8) 0.4868(7) 0.0217(9)
H108_3 H 0.5822 0.4658 0.0049
H109_3 H 0.5942 0.5004 0.0326
H110_3 H 0.5598 0.4799 0.0495
N3_3 N 0.80555(15) 0.09112(19) 0.7754(3)
O2_3 O 0.95503(12) 0.02399(12) 0.8353(2)
O3_3 O 0.73384(14) 0.20508(16) 0.9188(2)
O4_3 O 0.79009(17) 0.22449(18) 0.9183(2)
O5_3 O 0.96111(11) 0.02430(13) 0.75422(19)
O7_2 O 0.55450(11) 0.02189(13) 0.72816(18)
O10_2 O 0.54467(11) 0.02889(12) 0.64796(17)
C9_3 C 0.94442(17) 0.03076(16) 0.7929(3)
C10_3 C 0.90920(16) 0.04836(17) 0.7875(3)
C11_3 C 0.8899(2) 0.0577(2) 0.8280(3)
H4_3 H 0.9003 0.0547 0.8587
C12_3 C 0.8555(2) 0.0716(3) 0.8257(4)
H5_3 H 0.8425 0.0764 0.8539
C13_3 C 0.84142(18) 0.0779(2) 0.7788(3)
C14_3 C 0.78114(17) 0.0730(2) 0.7466(3)
C15_3 C 0.75462(16) 0.0913(2) 0.7203(3)
H6_3 H 0.7539 0.1161 0.7210
C16_3 C 0.73000(18) 0.0728(2) 0.6937(3)
C17_3 C 0.7315(2) 0.0356(2) 0.6909(4)
H7_3 H 0.7148 0.0231 0.6725
C18_3 C 0.7575(3) 0.0180(3) 0.7152(5)
C19_3 C 0.7818(2) 0.0370(3) 0.7446(5)
H9_3 H 0.7986 0.0245 0.7630
C20_3 C 0.7957(2) 0.1198(2) 0.8067(3)
C21_3 C 0.7624(2) 0.1210(2) 0.8272(4)
H10_3 H 0.7464 0.1027 0.8199
C22_3 C 0.7513(2) 0.1479(3) 0.8580(4)
H11_3 H 0.7284 0.1480 0.8711
C23_3 C 0.7760(2) 0.1760(2) 0.8694(3)
C24_3 C 0.7642(2) 0.2042(2) 0.9043(4)
C25_3 C 0.8101(2) 0.1749(2) 0.8492(4)
H12_3 H 0.8265 0.1926 0.8569
C26_3 C 0.8197(2) 0.1473(2) 0.8173(3)
H13_3 H 0.8422 0.1472 0.8031
C27_3 C 0.86025(18) 0.0693(2) 0.7382(4)
H14_3 H 0.8505 0.0733 0.7073
C28_3 C 0.89406(19) 0.0543(2) 0.7425(3)
H15_3 H 0.9066 0.0482 0.7143
C29_3 C 0.56345(15) 0.03176(16) 0.6865(3)
C30_3 C 0.59906(16) 0.04929(17) 0.6808(3)
C31_3 C 0.61191(18) 0.0595(2) 0.6358(3)
H16_3 H 0.5976 0.0569 0.6081
C32_3 C 0.64581(19) 0.0734(2) 0.6313(3)
H17_3 H 0.6543 0.0800 0.6006
C33_3 C 0.66710(17) 0.0777(2) 0.6719(3)
C34_3 C 0.65419(18) 0.0677(2) 0.7176(3)
H18_3 H 0.6686 0.0704 0.7451
C35_3 C 0.62091(18) 0.0540(2) 0.7225(3)
H19_3 H 0.6124 0.0477 0.7534
N4_3 N 0.70234(15) 0.0918(2) 0.6676(3)
C36_3 C 0.71071(18) 0.1206(2) 0.6354(3)
C37_3 C 0.74412(19) 0.1223(2) 0.6124(4)
H20_3 H 0.7608 0.1046 0.6191
C38_3 C 0.7528(2) 0.1475(2) 0.5822(4)
H21_3 H 0.7757 0.1480 0.5689
C39_3 C 0.7274(2) 0.1746(2) 0.5690(3)
C40_3 C 0.7364(2) 0.2034(2) 0.5332(3)
C41_3 C 0.69384(19) 0.1733(2) 0.5915(4)
H22_3 H 0.6766 0.1903 0.5839
C42_3 C 0.6861(2) 0.1462(2) 0.6254(3)
H23_3 H 0.6641 0.1459 0.6412
C79_3 C 0.9639(4) 0.0007(5) 0.9486(5)
H49_3 H 0.9561 0.0222 0.9352
O18_3 O 0.66109(17) 0.2216(2) 0.9705(3)
Cu5_2 Cu 0.50102(2) 0.50335(2) 0.85042(2)
N12_3 N 0.59341(17) 0.80135(14) 0.6582(2)
N13_3 N 0.59182(16) 0.69675(14) 0.7640(2)
N14_3 N 0.69445(15) 0.40888(19) 0.7754(3)
O19_3 O 0.52520(12) 0.54760(11) 0.82946(18)
O20_3 O 0.54497(12) 0.47601(12) 0.8353(2)
O21_3 O 0.76616(14) 0.29492(16) 0.9188(2)
O22_3 O 0.70991(17) 0.27551(18) 0.9183(2)
O23_3 O 0.53889(11) 0.47570(13) 0.75422(19)
O24_3 O 0.51457(12) 0.54553(11) 0.74899(18)
O25_2 O 0.94550(11) 0.47811(13) 0.72816(18)
O28_2 O 0.95533(11) 0.47111(12) 0.64796(17)
O29_3 O 0.51461(18) 0.5120(2) 0.9260(2)
O30_3 O 0.70498(15) 0.76665(14) 0.9109(2)
O31_2 O 0.72513(14) 0.71020(14) 0.9097(2)
O32_2 O 0.52528(12) 0.95707(10) 0.64320(17)
O33_2 O 0.52990(12) 0.95143(11) 0.72487(17)
C88_3 C 0.57391(19) 0.77466(17) 0.6853(3)
C89_3 C 0.59156(18) 0.74868(16) 0.7116(3)
H61_3 H 0.6164 0.7487 0.7127
C90_3 C 0.57297(18) 0.72308(17) 0.7361(3)
C91_3 C 0.57597(19) 0.66252(17) 0.7710(3)
C92_3 C 0.5731(2) 0.6463(2) 0.8157(3)
H62_3 H 0.5822 0.6579 0.8432
C93_3 C 0.5574(2) 0.61355(19) 0.8216(3)
H63_3 H 0.5556 0.6035 0.8527
C94_3 C 0.54399(17) 0.59513(16) 0.7811(3)
C95_3 C 0.52714(16) 0.56006(15) 0.7871(3)
C96_3 C 0.55558(17) 0.46924(16) 0.7929(3)
C97_3 C 0.59080(16) 0.45164(17) 0.7875(3)
C98_3 C 0.6101(2) 0.4423(2) 0.8280(3)
H64_3 H 0.5997 0.4453 0.8587
C99_3 C 0.6445(2) 0.4284(3) 0.8257(4)
H65_3 H 0.6575 0.4236 0.8539
C100_3 C 0.65858(18) 0.4221(2) 0.7788(3)
C101_3 C 0.71886(17) 0.4270(2) 0.7466(3)
C102_3 C 0.74538(16) 0.4087(2) 0.7203(3)
H66_3 H 0.7461 0.3839 0.7210
C103_3 C 0.77000(18) 0.4272(2) 0.6937(3)
C104_3 C 0.7685(2) 0.4644(2) 0.6909(4)
H67_3 H 0.7852 0.4769 0.6725
C105_3 C 0.7425(3) 0.4820(3) 0.7152(5)
H68_3 H 0.7407 0.5067 0.7125
C106_3 C 0.7182(2) 0.4630(3) 0.7446(5)
H69_3 H 0.7014 0.4755 0.7630
C107_3 C 0.7043(2) 0.3802(2) 0.8067(3)
C108_3 C 0.7376(2) 0.3790(2) 0.8272(4)
H70_3 H 0.7536 0.3973 0.8199
C109_3 C 0.7487(2) 0.3521(3) 0.8580(4)
H71_3 H 0.7716 0.3520 0.8711
C110_3 C 0.7240(2) 0.3240(2) 0.8694(3)
C111_3 C 0.7358(2) 0.2958(2) 0.9043(4)
C112_3 C 0.6899(2) 0.3251(2) 0.8492(4)
H72_3 H 0.6735 0.3074 0.8569
C113_3 C 0.6803(2) 0.3527(2) 0.8173(3)
H73_3 H 0.6578 0.3528 0.8031
C114_3 C 0.63975(18) 0.4307(2) 0.7382(4)
H74_3 H 0.6495 0.4267 0.7073
C115_3 C 0.60594(19) 0.4457(2) 0.7425(3)
H75_3 H 0.5934 0.4518 0.7143
C116_3 C 0.93655(15) 0.46824(16) 0.6865(3)
C117_3 C 0.90094(16) 0.45071(17) 0.6808(3)
C118_3 C 0.88809(18) 0.4405(2) 0.6358(3)
H76_3 H 0.9024 0.4431 0.6081
C119_3 C 0.85419(19) 0.4266(2) 0.6313(3)
H77_3 H 0.8457 0.4200 0.6006
C120_3 C 0.83290(17) 0.4223(2) 0.6719(3)
C121_3 C 0.84581(18) 0.4323(2) 0.7176(3)
H78_3 H 0.8314 0.4296 0.7451
C122_3 C 0.87909(18) 0.4460(2) 0.7225(3)
H79_3 H 0.8876 0.4523 0.7534
N15_3 N 0.79766(15) 0.4082(2) 0.6676(3)
C123_3 C 0.78929(18) 0.3794(2) 0.6354(3)
C124_3 C 0.75588(19) 0.3777(2) 0.6124(4)
H80_3 H 0.7392 0.3954 0.6191
C125_3 C 0.7472(2) 0.3525(2) 0.5822(4)
H81_3 H 0.7243 0.3520 0.5689
C126_3 C 0.7726(2) 0.3254(2) 0.5690(3)
C127_3 C 0.7636(2) 0.2966(2) 0.5332(3)
C128_3 C 0.80616(19) 0.3267(2) 0.5915(4)
H82_3 H 0.8234 0.3097 0.5839
C129_3 C 0.8139(2) 0.3538(2) 0.6254(3)
H83_3 H 0.8359 0.3541 0.6412
C130_3 C 0.5486(2) 0.61005(19) 0.7348(3)
H84_3 H 0.5412 0.5976 0.7070
C131_3 C 0.5644(2) 0.6438(2) 0.7298(3)
H85_3 H 0.5672 0.6537 0.6988
C132_3 C 0.61954(19) 0.70724(17) 0.7957(3)
C133_3 C 0.6476(2) 0.68339(19) 0.8061(3)
H86_3 H 0.6479 0.6610 0.7913
C134_3 C 0.6745(2) 0.69279(19) 0.8377(3)
H87_3 H 0.6924 0.6765 0.8450
C135_3 C 0.6751(2) 0.7253(2) 0.8582(3)
C136_3 C 0.7045(2) 0.7343(2) 0.8955(3)
C137_3 C 0.6482(2) 0.7494(2) 0.8480(3)
H88_3 H 0.6491 0.7722 0.8617
C138_3 C 0.6206(2) 0.74055(17) 0.8184(3)
H89_3 H 0.6023 0.7568 0.8131
C139_3 C 0.5364(2) 0.7232(2) 0.7345(4)
H90_3 H 0.5234 0.7057 0.7509
C140_3 C 0.5189(2) 0.7498(3) 0.7083(5)
H91_3 H 0.4941 0.7502 0.7081
C141_3 C 0.5366(2) 0.7745(2) 0.6835(4)
H92_3 H 0.5244 0.7915 0.6651
C142_3 C 0.58075(19) 0.83753(16) 0.6631(3)
C143_3 C 0.5736(2) 0.85106(18) 0.7103(3)
H93_3 H 0.5792 0.8374 0.7378
C144_3 C 0.5586(2) 0.88445(17) 0.7163(3)
H94_3 H 0.5533 0.8929 0.7476
C145_3 C 0.55126(16) 0.90527(16) 0.6756(2)
C146_3 C 0.53444(15) 0.94074(15) 0.6830(3)
C147_3 C 0.5592(2) 0.89259(18) 0.6283(3)
H95_3 H 0.5544 0.9066 0.6009
C148_3 C 0.5745(2) 0.85848(18) 0.6228(3)
H96_3 H 0.5803 0.8501 0.5917
C149_3 C 0.62078(19) 0.79301(16) 0.6254(3)
C150_3 C 0.6472(2) 0.81775(17) 0.6136(3)
H97_3 H 0.6462 0.8405 0.6271
C151_3 C 0.6741(2) 0.80925(18) 0.5830(3)
H98_3 H 0.6919 0.8259 0.5766
C152_3 C 0.67526(19) 0.77578(18) 0.5610(3)
C153_3 C 0.7042(2) 0.7668(2) 0.5243(3)
C154_3 C 0.6506(2) 0.7520(2) 0.5721(3)
H99_3 H 0.6521 0.7292 0.5585
C155_3 C 0.6222(2) 0.76006(17) 0.6038(3)
H100_3 H 0.6046 0.7432 0.6100
N16_3 N 0.7182(2) 0.83785(15) 0.9595(3)
C156_3 C 0.6899(3) 0.8502(3) 0.9291(4)
H101_3 H 0.6805 0.8382 0.9021
N17_3 N 0.6787(3) 0.8839(3) 0.9471(5)
C157_3 C 0.6999(4) 0.8925(2) 0.9886(5)
C158_3 C 0.7243(3) 0.8640(3) 0.9963(4)
C159_3 C 0.6449(5) 0.9022(7) 0.9249(7)
N18_3 N 0.5535(4) 0.5072(5) 0.9900(5)
C160_3 C 0.5361(4) 0.4993(5) 0.9486(5)
H104_3 H 0.5439 0.4778 0.9352
O36_3 O 0.83891(17) 0.2784(2) 0.9705(3)
O38_2 O 0.44550(11) 0.52189(13) 0.77184(18)
O44_2 O 0.45533(11) 0.52889(12) 0.85204(17)
O45_2 O 0.77487(14) 0.78980(14) 0.9097(2)
O47_2 O 0.47472(12) 0.45707(10) 0.85680(17)
O49_2 O 0.47010(12) 0.45143(11) 0.77513(17)
H111_3 H 0.648951 0.906646 0.885801
H112_3 H 0.640412 0.927692 0.943112
H113_3 H 0.621759 0.885027 0.930301
H45_3 H 0.8019 0.5869 0.0075
H46_3 H 0.7587 0.6373 0.0211
C80_3 C 0.9547(10) 0.9628(7) 0.0217(11)
H50_3 H 0.9706 0.9468 0.0051
H51_3 H 0.9659 0.9714 0.0512
H52_3 H 0.9331 0.9505 0.0300
H54_3 H 0.9058 0.9996 0.0326
Cu1_2 Cu 0.99898(2) 0.99665(2) 0.85042(2)
N1_3 N 0.90659(17) 0.69865(14) 0.6582(2)
N2_3 N 0.90818(16) 0.80325(14) 0.7640(2)
O1_3 O 0.97480(12) 0.95240(11) 0.82946(18)
O6_3 O 0.98543(12) 0.95447(11) 0.74899(18)
O11_3 O 0.98539(18) 0.9880(2) 0.9260(2)
O12_3 O 0.79502(15) 0.73335(14) 0.9109(2)
O14_2 O 0.97472(12) 0.54293(10) 0.64320(17)
O15_2 O 0.97010(12) 0.54857(11) 0.72487(17)
C1_3 C 0.92609(19) 0.72534(17) 0.6853(3)
C2_3 C 0.90844(18) 0.75132(16) 0.7116(3)
H1_3 H 0.8836 0.7513 0.7127
C3_3 C 0.92703(18) 0.77692(17) 0.7361(3)
C4_3 C 0.92403(19) 0.83748(17) 0.7710(3)
C5_3 C 0.9269(2) 0.8537(2) 0.8157(3)
H2_3 H 0.9178 0.8421 0.8432
C6_3 C 0.9426(2) 0.88645(19) 0.8216(3)
H3_3 H 0.9444 0.8965 0.8527
C7_3 C 0.95601(17) 0.90487(16) 0.7811(3)
C8_3 C 0.97286(16) 0.93994(15) 0.7871(3)
H8_3 H 0.7593 0.9933 0.7125
C43_3 C 0.9514(2) 0.88995(19) 0.7348(3)
H24_3 H 0.9588 0.9024 0.7070
C44_3 C 0.9356(2) 0.8562(2) 0.7298(3)
H25_3 H 0.9328 0.8463 0.6988
C45_3 C 0.88046(19) 0.79276(17) 0.7957(3)
C46_3 C 0.8524(2) 0.81661(19) 0.8061(3)
H26_3 H 0.8521 0.8390 0.7913
C47_3 C 0.8255(2) 0.80721(19) 0.8377(3)
H27_3 H 0.8076 0.8235 0.8450
C48_3 C 0.8249(2) 0.7747(2) 0.8582(3)
C49_3 C 0.7955(2) 0.7657(2) 0.8955(3)
C50_3 C 0.8518(2) 0.7506(2) 0.8480(3)
H28_3 H 0.8509 0.7278 0.8617
C51_3 C 0.8794(2) 0.75945(17) 0.8184(3)
H29_3 H 0.8977 0.7432 0.8131
C52_3 C 0.9636(2) 0.7768(2) 0.7345(4)
H30_3 H 0.9766 0.7943 0.7509
C53_3 C 0.9811(2) 0.7502(3) 0.7083(5)
C54_3 C 0.9634(2) 0.7255(2) 0.6835(4)
H32_3 H 0.9756 0.7085 0.6651
C55_3 C 0.91925(19) 0.66247(16) 0.6631(3)
C56_3 C 0.9264(2) 0.64894(18) 0.7103(3)
H33_3 H 0.9208 0.6626 0.7378
C57_3 C 0.9414(2) 0.61555(17) 0.7163(3)
H34_3 H 0.9467 0.6071 0.7476
C58_3 C 0.94874(16) 0.59473(16) 0.6756(2)
C59_3 C 0.96556(15) 0.55926(15) 0.6830(3)
C60_3 C 0.9408(2) 0.60741(18) 0.6283(3)
H35_3 H 0.9456 0.5934 0.6009
C61_3 C 0.9255(2) 0.64152(18) 0.6228(3)
H36_3 H 0.9197 0.6499 0.5917
C62_3 C 0.87922(19) 0.70699(16) 0.6254(3)
C63_3 C 0.8528(2) 0.68225(17) 0.6136(3)
H37_3 H 0.8538 0.6595 0.6271
C64_3 C 0.8259(2) 0.69075(18) 0.5830(3)
H38_3 H 0.8081 0.6741 0.5766
C65_3 C 0.82474(19) 0.72422(18) 0.5610(3)
C66_3 C 0.7958(2) 0.7332(2) 0.5243(3)
C67_3 C 0.8494(2) 0.7480(2) 0.5721(3)
H39_3 H 0.8479 0.7708 0.5585
C68_3 C 0.8778(2) 0.73994(17) 0.6038(3)
H40_3 H 0.8954 0.7568 0.6100
N7_3 N 0.7818(2) 0.66215(15) 0.9595(3)
C72_3 C 0.8101(3) 0.6498(3) 0.9291(4)
H44_3 H 0.8195 0.6618 0.9021
N8_3 N 0.8213(3) 0.6161(3) 0.9471(5)
C73_3 C 0.8001(4) 0.6075(2) 0.9886(5)
C74_3 C 0.7757(3) 0.6360(3) 0.9963(4)
C77_3 C 0.8551(5) 0.5978(7) 0.9249(7)
N9_3 N 0.9465(4) 0.9928(5) 0.9900(5)
H116_3 H 0.851049 0.593354 0.885801
H117_3 H 0.859588 0.572308 0.943112
H118_3 H 0.878241 0.614973 0.930301
N1_4 N 0.40659(17) 0.30135(14) 0.8418(2)
N2_4 N 0.40818(16) 0.19675(14) 0.7360(2)
O1_4 O 0.47480(12) 0.04760(11) 0.67054(18)
O6_4 O 0.48543(12) 0.04553(11) 0.75101(18)
O11_4 O 0.48539(18) 0.0120(2) 0.5740(2)
O12_4 O 0.29502(15) 0.26665(14) 0.5891(2)
O13_2 O 0.27487(14) 0.21020(14) 0.5903(2)
C1_4 C 0.42609(19) 0.27466(17) 0.8147(3)
C2_4 C 0.40844(18) 0.24868(16) 0.7884(3)
H1_4 H 0.3836 0.2487 0.7873
C3_4 C 0.42703(18) 0.22308(17) 0.7639(3)
C4_4 C 0.42403(19) 0.16252(17) 0.7290(3)
C5_4 C 0.4269(2) 0.1463(2) 0.6843(3)
H2_4 H 0.4178 0.1579 0.6568
C6_4 C 0.4426(2) 0.11355(19) 0.6784(3)
H3_4 H 0.4444 0.1035 0.6473
C7_4 C 0.45601(17) 0.09513(16) 0.7189(3)
C8_4 C 0.47286(16) 0.06006(15) 0.7129(3)
H8_4 H 0.2593 0.0067 0.7875
C43_4 C 0.4514(2) 0.11005(19) 0.7652(3)
H24_4 H 0.4588 0.0976 0.7930
C44_4 C 0.4356(2) 0.1438(2) 0.7702(3)
H25_4 H 0.4328 0.1537 0.8012
C45_4 C 0.38046(19) 0.20724(17) 0.7043(3)
C46_4 C 0.3524(2) 0.18339(19) 0.6939(3)
H26_4 H 0.3521 0.1610 0.7087
C47_4 C 0.3255(2) 0.19279(19) 0.6623(3)
H27_4 H 0.3076 0.1765 0.6550
C48_4 C 0.3249(2) 0.2253(2) 0.6418(3)
C49_4 C 0.2955(2) 0.2343(2) 0.6045(3)
C50_4 C 0.3518(2) 0.2494(2) 0.6520(3)
H28_4 H 0.3509 0.2722 0.6383
C51_4 C 0.3794(2) 0.24055(17) 0.6816(3)
H29_4 H 0.3977 0.2568 0.6869
C52_4 C 0.4636(2) 0.2232(2) 0.7655(4)
H30_4 H 0.4766 0.2057 0.7491
C53_4 C 0.4811(2) 0.2498(3) 0.7917(5)
H31_4 H 0.5059 0.2502 0.7919
C54_4 C 0.4634(2) 0.2745(2) 0.8165(4)
H32_4 H 0.4756 0.2915 0.8349
C55_4 C 0.41925(19) 0.33753(16) 0.8369(3)
C56_4 C 0.4264(2) 0.35106(18) 0.7897(3)
H33_4 H 0.4208 0.3374 0.7622
C57_4 C 0.4414(2) 0.38445(17) 0.7837(3)
H34_4 H 0.4467 0.3929 0.7524
C58_4 C 0.44874(16) 0.40527(16) 0.8244(2)
C59_4 C 0.46556(15) 0.44074(15) 0.8170(3)
C60_4 C 0.4408(2) 0.39259(18) 0.8717(3)
H35_4 H 0.4456 0.4066 0.8991
C61_4 C 0.4255(2) 0.35848(18) 0.8772(3)
H36_4 H 0.4197 0.3501 0.9083
C62_4 C 0.37922(19) 0.29301(16) 0.8746(3)
C63_4 C 0.3528(2) 0.31775(17) 0.8864(3)
H37_4 H 0.3538 0.3405 0.8729
C64_4 C 0.3259(2) 0.30925(18) 0.9170(3)
H38_4 H 0.3081 0.3259 0.9234
C65_4 C 0.32474(19) 0.27578(18) 0.9390(3)
C66_4 C 0.2958(2) 0.2668(2) 0.9757(3)
C67_4 C 0.3494(2) 0.2520(2) 0.9279(3)
H39_4 H 0.3479 0.2292 0.9415
C68_4 C 0.3778(2) 0.26006(17) 0.8962(3)
H40_4 H 0.3954 0.2432 0.8900
N7_4 N 0.2818(2) 0.33785(15) 0.5405(3)
C72_4 C 0.3101(3) 0.3502(3) 0.5709(4)
H44_4 H 0.3195 0.3382 0.5979
N8_4 N 0.3213(3) 0.3839(3) 0.5529(5)
C73_4 C 0.3001(4) 0.3925(2) 0.5114(5)
H45_4 H 0.3019 0.4131 0.4925
C74_4 C 0.2757(3) 0.3640(3) 0.5037(4)
H46_4 H 0.2587 0.3627 0.4789
C77_4 C 0.3551(5) 0.4022(7) 0.5751(7)
N9_4 N 0.4465(4) 0.0072(5) 0.5100(5)
C80_4 C 0.4547(10) 0.0372(7) 0.4783(11)
H50_4 H 0.4706 0.0532 0.4949
H51_4 H 0.4659 0.0286 0.4488
H52_4 H 0.4331 0.0495 0.4700
H54_4 H 0.4058 0.0004 0.4674
O46_2 O 0.22513(14) 0.28980(14) 0.5903(2)
H116_4 H 0.351049 0.406646 0.614199
H117_4 H 0.359588 0.427692 0.556888
H118_4 H 0.378241 0.385027 0.569699
N3_4 N 0.30555(15) 0.90888(19) 0.7246(3)
O2_4 O 0.45503(12) 0.97601(12) 0.6647(2)
O3_4 O 0.23384(14) 0.79492(16) 0.5812(2)
O4_4 O 0.29009(17) 0.77551(18) 0.5817(2)
O5_4 O 0.46111(11) 0.97570(13) 0.74578(19)
C9_4 C 0.44442(17) 0.96924(16) 0.7071(3)
C10_4 C 0.40920(16) 0.95164(17) 0.7125(3)
C11_4 C 0.3899(2) 0.9423(2) 0.6720(3)
H4_4 H 0.4003 0.9453 0.6413
C12_4 C 0.3555(2) 0.9284(3) 0.6743(4)
H5_4 H 0.3425 0.9236 0.6461
C13_4 C 0.34142(18) 0.9221(2) 0.7212(3)
C14_4 C 0.28114(17) 0.9270(2) 0.7534(3)
C15_4 C 0.25462(16) 0.9087(2) 0.7797(3)
H6_4 H 0.2539 0.8839 0.7790
C16_4 C 0.23000(18) 0.9272(2) 0.8063(3)
C17_4 C 0.2315(2) 0.9644(2) 0.8091(4)
H7_4 H 0.2148 0.9769 0.8275
C18_4 C 0.2575(3) 0.9820(3) 0.7848(5)
C19_4 C 0.2818(2) 0.9630(3) 0.7554(5)
H9_4 H 0.2986 0.9755 0.7370
C20_4 C 0.2957(2) 0.8802(2) 0.6933(3)
C21_4 C 0.2624(2) 0.8790(2) 0.6728(4)
H10_4 H 0.2464 0.8973 0.6801
C22_4 C 0.2513(2) 0.8521(3) 0.6420(4)
H11_4 H 0.2284 0.8520 0.6289
C23_4 C 0.2760(2) 0.8240(2) 0.6306(3)
C24_4 C 0.2642(2) 0.7958(2) 0.5957(4)
C25_4 C 0.3101(2) 0.8251(2) 0.6508(4)
H12_4 H 0.3265 0.8074 0.6431
C26_4 C 0.3197(2) 0.8527(2) 0.6827(3)
H13_4 H 0.3422 0.8528 0.6969
C27_4 C 0.36025(18) 0.9307(2) 0.7618(4)
H14_4 H 0.3505 0.9267 0.7927
C28_4 C 0.39406(19) 0.9457(2) 0.7575(3)
H15_4 H 0.4066 0.9518 0.7857
C29_4 C 0.06345(15) 0.96824(16) 0.8135(3)
C30_4 C 0.09906(16) 0.95071(17) 0.8192(3)
C31_4 C 0.11191(18) 0.9405(2) 0.8642(3)
H16_4 H 0.0976 0.9431 0.8919
C32_4 C 0.14581(19) 0.9266(2) 0.8687(3)
H17_4 H 0.1543 0.9200 0.8994
C33_4 C 0.16710(17) 0.9223(2) 0.8281(3)
C34_4 C 0.15419(18) 0.9323(2) 0.7824(3)
H18_4 H 0.1686 0.9296 0.7549
C35_4 C 0.12091(18) 0.9460(2) 0.7775(3)
H19_4 H 0.1124 0.9523 0.7466
N4_4 N 0.20234(15) 0.9082(2) 0.8324(3)
C36_4 C 0.21071(18) 0.8794(2) 0.8646(3)
C37_4 C 0.24412(19) 0.8777(2) 0.8876(4)
H20_4 H 0.2608 0.8954 0.8809
C38_4 C 0.2528(2) 0.8525(2) 0.9178(4)
H21_4 H 0.2757 0.8520 0.9311
C39_4 C 0.2274(2) 0.8254(2) 0.9310(3)
C40_4 C 0.2364(2) 0.7966(2) 0.9668(3)
C41_4 C 0.19384(19) 0.8267(2) 0.9085(4)
H22_4 H 0.1766 0.8097 0.9161
C42_4 C 0.1861(2) 0.8538(2) 0.8746(3)
H23_4 H 0.1641 0.8541 0.8588
C79_4 C 0.4639(4) 0.9993(5) 0.5514(5)
H49_4 H 0.4561 0.9778 0.5648
C81_4 C 0.4260(8) 0.9868(7) 0.4783(9)
H53_4 H 0.4178 0.9658 0.4951
H55_4 H 0.4402 0.9799 0.4505
O18_4 O 0.16109(17) 0.7784(2) 0.5295(3)
N12_4 N 0.09341(17) 0.19865(14) 0.8418(2)
N13_4 N 0.09182(16) 0.30325(14) 0.7360(2)
N14_4 N 0.19445(15) 0.59112(19) 0.7246(3)
O19_4 O 0.02520(12) 0.45240(11) 0.67054(18)
O20_4 O 0.04497(12) 0.52399(12) 0.6647(2)
O21_4 O 0.26616(14) 0.70508(16) 0.5812(2)
O22_4 O 0.20991(17) 0.72449(18) 0.5817(2)
O23_4 O 0.03889(11) 0.52430(13) 0.74578(19)
O24_4 O 0.01457(12) 0.45447(11) 0.75101(18)
O29_4 O 0.01461(18) 0.4880(2) 0.5740(2)
O30_4 O 0.20498(15) 0.23335(14) 0.5891(2)
C88_4 C 0.07391(19) 0.22534(17) 0.8147(3)
C89_4 C 0.09156(18) 0.25132(16) 0.7884(3)
H61_4 H 0.1164 0.2513 0.7873
C90_4 C 0.07297(18) 0.27692(17) 0.7639(3)
C91_4 C 0.07597(19) 0.33748(17) 0.7290(3)
C92_4 C 0.0731(2) 0.3537(2) 0.6843(3)
H62_4 H 0.0822 0.3421 0.6568
C93_4 C 0.0574(2) 0.38645(19) 0.6784(3)
H63_4 H 0.0556 0.3965 0.6473
C94_4 C 0.04399(17) 0.40487(16) 0.7189(3)
C95_4 C 0.02714(16) 0.43994(15) 0.7129(3)
C96_4 C 0.05558(17) 0.53076(16) 0.7071(3)
C97_4 C 0.09080(16) 0.54836(17) 0.7125(3)
C98_4 C 0.1101(2) 0.5577(2) 0.6720(3)
H64_4 H 0.0997 0.5547 0.6413
C99_4 C 0.1445(2) 0.5716(3) 0.6743(4)
H65_4 H 0.1575 0.5764 0.6461
C100_4 C 0.15858(18) 0.5779(2) 0.7212(3)
C101_4 C 0.21886(17) 0.5730(2) 0.7534(3)
C102_4 C 0.24538(16) 0.5913(2) 0.7797(3)
H66_4 H 0.2461 0.6161 0.7790
C103_4 C 0.27000(18) 0.5728(2) 0.8063(3)
C104_4 C 0.2685(2) 0.5356(2) 0.8091(4)
H67_4 H 0.2852 0.5231 0.8275
C105_4 C 0.2425(3) 0.5180(3) 0.7848(5)
H68_4 H 0.2407 0.4933 0.7875
C106_4 C 0.2182(2) 0.5370(3) 0.7554(5)
H69_4 H 0.2014 0.5245 0.7370
C107_4 C 0.2043(2) 0.6198(2) 0.6933(3)
C108_4 C 0.2376(2) 0.6210(2) 0.6728(4)
H70_4 H 0.2536 0.6027 0.6801
C109_4 C 0.2487(2) 0.6479(3) 0.6420(4)
H71_4 H 0.2716 0.6480 0.6289
C110_4 C 0.2240(2) 0.6760(2) 0.6306(3)
C111_4 C 0.2358(2) 0.7042(2) 0.5957(4)
C112_4 C 0.1899(2) 0.6749(2) 0.6508(4)
H72_4 H 0.1735 0.6926 0.6431
C113_4 C 0.1803(2) 0.6473(2) 0.6827(3)
H73_4 H 0.1578 0.6472 0.6969
C114_4 C 0.13975(18) 0.5693(2) 0.7618(4)
H74_4 H 0.1495 0.5733 0.7927
C115_4 C 0.10594(19) 0.5543(2) 0.7575(3)
H75_4 H 0.0934 0.5482 0.7857
C116_4 C 0.43655(15) 0.53176(16) 0.8135(3)
C117_4 C 0.40094(16) 0.54929(17) 0.8192(3)
C118_4 C 0.38809(18) 0.5595(2) 0.8642(3)
H76_4 H 0.4024 0.5569 0.8919
C119_4 C 0.35419(19) 0.5734(2) 0.8687(3)
H77_4 H 0.3457 0.5800 0.8994
C120_4 C 0.33290(17) 0.5777(2) 0.8281(3)
C121_4 C 0.34581(18) 0.5677(2) 0.7824(3)
H78_4 H 0.3314 0.5704 0.7549
C122_4 C 0.37909(18) 0.5540(2) 0.7775(3)
H79_4 H 0.3876 0.5477 0.7466
N15_4 N 0.29766(15) 0.5918(2) 0.8324(3)
C123_4 C 0.28929(18) 0.6206(2) 0.8646(3)
C124_4 C 0.25588(19) 0.6223(2) 0.8876(4)
H80_4 H 0.2392 0.6046 0.8809
C125_4 C 0.2472(2) 0.6475(2) 0.9178(4)
H81_4 H 0.2243 0.6480 0.9311
C126_4 C 0.2726(2) 0.6746(2) 0.9310(3)
C127_4 C 0.2636(2) 0.7034(2) 0.9668(3)
C128_4 C 0.30616(19) 0.6733(2) 0.9085(4)
H82_4 H 0.3234 0.6903 0.9161
C129_4 C 0.3139(2) 0.6462(2) 0.8746(3)
H83_4 H 0.3359 0.6459 0.8588
C130_4 C 0.0486(2) 0.38995(19) 0.7652(3)
H84_4 H 0.0412 0.4024 0.7930
C131_4 C 0.0644(2) 0.3562(2) 0.7702(3)
H85_4 H 0.0672 0.3463 0.8012
C132_4 C 0.11954(19) 0.29276(17) 0.7043(3)
C133_4 C 0.1476(2) 0.31661(19) 0.6939(3)
H86_4 H 0.1479 0.3390 0.7087
C134_4 C 0.1745(2) 0.30721(19) 0.6623(3)
H87_4 H 0.1924 0.3235 0.6550
C135_4 C 0.1751(2) 0.2747(2) 0.6418(3)
C136_4 C 0.2045(2) 0.2657(2) 0.6045(3)
C137_4 C 0.1482(2) 0.2506(2) 0.6520(3)
H88_4 H 0.1491 0.2278 0.6383
C138_4 C 0.1206(2) 0.25945(17) 0.6816(3)
H89_4 H 0.1023 0.2432 0.6869
C139_4 C 0.0364(2) 0.2768(2) 0.7655(4)
H90_4 H 0.0234 0.2943 0.7491
C140_4 C 0.0189(2) 0.2502(3) 0.7917(5)
C141_4 C 0.0366(2) 0.2255(2) 0.8165(4)
H92_4 H 0.0244 0.2085 0.8349
C142_4 C 0.08075(19) 0.16247(16) 0.8369(3)
C143_4 C 0.0736(2) 0.14894(18) 0.7897(3)
H93_4 H 0.0792 0.1626 0.7622
C144_4 C 0.0586(2) 0.11555(17) 0.7837(3)
H94_4 H 0.0533 0.1071 0.7524
C145_4 C 0.05126(16) 0.09473(16) 0.8244(2)
C146_4 C 0.03444(15) 0.05926(15) 0.8170(3)
C147_4 C 0.0592(2) 0.10741(18) 0.8717(3)
H95_4 H 0.0544 0.0934 0.8991
C148_4 C 0.0745(2) 0.14152(18) 0.8772(3)
H96_4 H 0.0803 0.1499 0.9083
C149_4 C 0.12078(19) 0.20699(16) 0.8746(3)
C150_4 C 0.1472(2) 0.18225(17) 0.8864(3)
H97_4 H 0.1462 0.1595 0.8729
C151_4 C 0.1741(2) 0.19075(18) 0.9170(3)
H98_4 H 0.1919 0.1741 0.9234
C152_4 C 0.17526(19) 0.22422(18) 0.9390(3)
C153_4 C 0.2042(2) 0.2332(2) 0.9757(3)
C154_4 C 0.1506(2) 0.2480(2) 0.9279(3)
H99_4 H 0.1521 0.2708 0.9415
C155_4 C 0.1222(2) 0.23994(17) 0.8962(3)
H100_4 H 0.1046 0.2568 0.8900
N16_4 N 0.2182(2) 0.16215(15) 0.5405(3)
C156_4 C 0.1899(3) 0.1498(3) 0.5709(4)
H101_4 H 0.1805 0.1618 0.5979
N17_4 N 0.1787(3) 0.1161(3) 0.5529(5)
C157_4 C 0.1999(4) 0.1075(2) 0.5114(5)
H102_4 H 0.1981 0.0869 0.4925
C158_4 C 0.2243(3) 0.1360(3) 0.5037(4)
H103_4 H 0.2413 0.1373 0.4789
C159_4 C 0.1449(5) 0.0978(7) 0.5751(7)
N18_4 N 0.0535(4) 0.4928(5) 0.5100(5)
C160_4 C 0.0361(4) 0.5007(5) 0.5514(5)
H104_4 H 0.0439 0.5222 0.5648
C161_4 C 0.0453(10) 0.4628(7) 0.4783(11)
H105_4 H 0.0294 0.4468 0.4949
H106_4 H 0.0341 0.4714 0.4488
H107_4 H 0.0669 0.4505 0.4700
C162_4 C 0.0740(8) 0.5132(7) 0.4783(9)
H108_4 H 0.0822 0.5342 0.4951
H109_4 H 0.0942 0.4996 0.4674
H110_4 H 0.0598 0.5201 0.4505
O36_4 O 0.33891(17) 0.7216(2) 0.5295(3)
H111_4 H 0.148951 0.0933542 0.614199
H112_4 H 0.140412 0.0723075 0.556888
H113_4 H 0.121759 0.114973 0.569699
H91_4 H 0.9941 0.2498 0.7919
loop_
_geom_bond_atom_site_label_1
_geom_bond_atom_site_label_2
_geom_bond_site_symmetry_1
_geom_bond_site_symmetry_2
Cu1 O1 1_555 1_555
Cu3 O12 1_555 1_555
N1 C1 1_555 1_555
N2 C3 1_555 1_555
O1 C8 1_555 1_555
O11 Cu1 1_555 1_555
O12 C49 1_555 1_555
O13 C49 1_555 1_555
O14 C59 1_555 1_555
O15 C59 1_555 1_555
O16 C66 1_555 1_555
O17 C66 1_555 1_555
C1 C2 1_555 1_555
C2 H1 1_555 1_555
C3 C2 1_555 1_555
C4 N2 1_555 1_555
C5 C4 1_555 1_555
H2 C5 1_555 1_555
C6 C5 1_555 1_555
H3 C6 1_555 1_555
C7 C6 1_555 1_555
C8 O6 1_555 1_555
C43 C7 1_555 1_555
H24 C43 1_555 1_555
C44 C4 1_555 1_555
H25 C44 1_555 1_555
C45 N2 1_555 1_555
C46 C45 1_555 1_555
H26 C46 1_555 1_555
C47 C46 1_555 1_555
H27 C47 1_555 1_555
C48 C47 1_555 1_555
C49 C48 1_555 1_555
C50 C48 1_555 1_555
H28 C50 1_555 1_555
C51 C45 1_555 1_555
H29 C51 1_555 1_555
C52 C3 1_555 1_555
H30 C52 1_555 1_555
C53 C52 1_555 1_555
C54 C1 1_555 1_555
H32 C54 1_555 1_555
C55 N1 1_555 1_555
C56 C55 1_555 1_555
H33 C56 1_555 1_555
C57 C56 1_555 1_555
H34 C57 1_555 1_555
C58 C57 1_555 1_555
C59 C58 1_555 1_555
C60 C58 1_555 1_555
H35 C60 1_555 1_555
C61 C55 1_555 1_555
H36 C61 1_555 1_555
C62 N1 1_555 1_555
C63 C62 1_555 1_555
H37 C63 1_555 1_555
C64 C63 1_555 1_555
H38 C64 1_555 1_555
C65 C64 1_555 1_555
C66 C65 1_555 1_555
C67 C65 1_555 1_555
H39 C67 1_555 1_555
C68 C62 1_555 1_555
H40 C68 1_555 1_555
N7 Cu3 1_555 1_555
C72 N7 1_555 1_555
H44 C72 1_555 1_555
N8 C72 1_555 1_555
C73 N8 1_555 1_555
C74 N7 1_555 1_555
C77 N8 1_555 1_555
H48 C78 1_555 1_555
C83 N11 1_555 1_555
H57 C83 1_555 1_555
C84 N10 1_555 1_555
H58 C84 1_555 1_555
C85 N11 1_555 1_555
C86 C78 1_555 1_555
H59 C86 1_555 1_555
Cu16 O15 1_555 1_555
Cu17 N10 1_555 1_555
Cu19 O13 1_555 1_555
Cu21 O16 1_555 1_555
Cu23 O17 1_555 1_555
O46 Cu3 1_555 1_555
C7 C8 1_555 1_555
C43 C44 1_555 1_555
C50 C51 1_555 1_555
C53 C54 1_555 1_555
C60 C61 1_555 1_555
C67 C68 1_555 1_555
C73 C74 1_555 1_555
C83 C84 1_555 1_555
C85 C86 1_555 1_555
C77 H116 1_555 1_555
C77 H117 1_555 1_555
C77 H118 1_555 1_555
H50 C80 1_555 1_555
H51 C80 1_555 1_555
H52 C80 1_555 1_555
N3 C13 1_555 1_555
O3 C24 1_555 1_555
O4 C24 1_555 1_555
O5 C9 1_555 1_555
O7 C29 1_555 1_555
O8 C40 1_555 1_555
O9 C40 1_555 1_555
O10 C29 1_555 1_555
C9 O2 1_555 1_555
C10 C9 1_555 1_555
C11 C10 1_555 1_555
H4 C11 1_555 1_555
C12 C11 1_555 1_555
H5 C12 1_555 1_555
C13 C12 1_555 1_555
C14 N3 1_555 1_555
C15 C14 1_555 1_555
H6 C15 1_555 1_555
C16 C15 1_555 1_555
C17 C16 1_555 1_555
H7 C17 1_555 1_555
C18 C17 1_555 1_555
C19 C14 1_555 1_555
H9 C19 1_555 1_555
C20 N3 1_555 1_555
C21 C20 1_555 1_555
H10 C21 1_555 1_555
C22 C21 1_555 1_555
H11 C22 1_555 1_555
C23 C22 1_555 1_555
C24 C23 1_555 1_555
C25 C23 1_555 1_555
H12 C25 1_555 1_555
C26 C20 1_555 1_555
H13 C26 1_555 1_555
C27 C13 1_555 1_555
H14 C27 1_555 1_555
C28 C10 1_555 1_555
H15 C28 1_555 1_555
C29 C30 1_555 1_555
C30 C31 1_555 1_555
C31 H16 1_555 1_555
C32 C31 1_555 1_555
H17 C32 1_555 1_555
C33 C32 1_555 1_555
C34 C33 1_555 1_555
H18 C34 1_555 1_555
C35 C30 1_555 1_555
H19 C35 1_555 1_555
N4 C16 1_555 1_555
C36 N4 1_555 1_555
C37 C36 1_555 1_555
H20 C37 1_555 1_555
C38 C37 1_555 1_555
H21 C38 1_555 1_555
C39 C38 1_555 1_555
C40 C39 1_555 1_555
C41 C39 1_555 1_555
H22 C41 1_555 1_555
C42 C36 1_555 1_555
H23 C42 1_555 1_555
H49 C79 1_555 1_555
Cu4 O3 1_555 1_555
O18 Cu4 1_555 1_555
Cu5 O19 1_555 1_555
Cu6 O23 1_555 1_555
Cu19 O30 1_555 1_555
N12 C88 1_555 1_555
N13 C90 1_555 1_555
N14 C100 1_555 1_555
O19 C95 1_555 1_555
O20 Cu5 1_555 1_555
O21 C111 1_555 1_555
O22 Cu4 1_555 1_555
O23 C96 1_555 1_555
O24 Cu6 1_555 1_555
O25 C116 1_555 1_555
O26 C127 1_555 1_555
O27 C127 1_555 1_555
O28 C116 1_555 1_555
O29 Cu5 1_555 1_555
O30 C136 1_555 1_555
O46 C136 1_555 1_555
O32 C146 1_555 1_555
O33 C146 1_555 1_555
O34 C153 1_555 1_555
O35 C153 1_555 1_555
C88 C89 1_555 1_555
C89 H61 1_555 1_555
C90 C89 1_555 1_555
C91 N13 1_555 1_555
C92 C91 1_555 1_555
H62 C92 1_555 1_555
C93 C92 1_555 1_555
H63 C93 1_555 1_555
C94 C93 1_555 1_555
C95 O24 1_555 1_555
C96 O20 1_555 1_555
C97 C96 1_555 1_555
C98 C97 1_555 1_555
H64 C98 1_555 1_555
C99 C98 1_555 1_555
H65 C99 1_555 1_555
C100 C99 1_555 1_555
C101 N14 1_555 1_555
C102 C101 1_555 1_555
H66 C102 1_555 1_555
C103 C102 1_555 1_555
C104 C103 1_555 1_555
H67 C104 1_555 1_555
C105 C104 1_555 1_555
H68 C105 1_555 1_555
C106 C101 1_555 1_555
H69 C106 1_555 1_555
C107 N14 1_555 1_555
C108 C107 1_555 1_555
H70 C108 1_555 1_555
C109 C108 1_555 1_555
H71 C109 1_555 1_555
C110 C109 1_555 1_555
C111 O22 1_555 1_555
C112 C110 1_555 1_555
H72 C112 1_555 1_555
C113 C107 1_555 1_555
H73 C113 1_555 1_555
C114 C100 1_555 1_555
H74 C114 1_555 1_555
C115 C97 1_555 1_555
H75 C115 1_555 1_555
C116 C117 1_555 1_555
C117 C118 1_555 1_555
C118 H76 1_555 1_555
C119 C118 1_555 1_555
H77 C119 1_555 1_555
C120 C119 1_555 1_555
C121 C120 1_555 1_555
H78 C121 1_555 1_555
C122 C117 1_555 1_555
H79 C122 1_555 1_555
N15 C103 1_555 1_555
C123 N15 1_555 1_555
C124 C123 1_555 1_555
H80 C124 1_555 1_555
C125 C124 1_555 1_555
H81 C125 1_555 1_555
C126 C125 1_555 1_555
C127 C126 1_555 1_555
C128 C126 1_555 1_555
H82 C128 1_555 1_555
C129 C123 1_555 1_555
H83 C129 1_555 1_555
C130 C94 1_555 1_555
H84 C130 1_555 1_555
C131 C91 1_555 1_555
H85 C131 1_555 1_555
C132 N13 1_555 1_555
C133 C132 1_555 1_555
H86 C133 1_555 1_555
C134 C133 1_555 1_555
H87 C134 1_555 1_555
C135 C134 1_555 1_555
C136 C135 1_555 1_555
C137 C135 1_555 1_555
H88 C137 1_555 1_555
C138 C132 1_555 1_555
H89 C138 1_555 1_555
C139 C90 1_555 1_555
H90 C139 1_555 1_555
C140 C139 1_555 1_555
H91 C140 1_555 1_555
C141 C88 1_555 1_555
H92 C141 1_555 1_555
C142 N12 1_555 1_555
C143 C142 1_555 1_555
H93 C143 1_555 1_555
C144 C143 1_555 1_555
H94 C144 1_555 1_555
C145 C144 1_555 1_555
C146 C145 1_555 1_555
C147 C145 1_555 1_555
H95 C147 1_555 1_555
C148 C142 1_555 1_555
H96 C148 1_555 1_555
C149 N12 1_555 1_555
C150 C149 1_555 1_555
H97 C150 1_555 1_555
C151 C150 1_555 1_555
H98 C151 1_555 1_555
C152 C151 1_555 1_555
C153 C152 1_555 1_555
C154 C152 1_555 1_555
H99 C154 1_555 1_555
C155 C149 1_555 1_555
H100 C155 1_555 1_555
N16 Cu19 1_555 1_555
C156 N16 1_555 1_555
H101 C156 1_555 1_555
N17 C156 1_555 1_555
C157 N17 1_555 1_555
C158 N16 1_555 1_555
C159 N17 1_555 1_555
N18 C160 1_555 1_555
C160 O29 1_555 1_555
H104 C160 1_555 1_555
Cu8 O4 1_555 1_555
O36 Cu8 1_555 1_555
Cu10 O10 1_555 1_555
Cu14 O33 1_555 1_555
Cu16 O25 1_555 1_555
Cu21 O35 1_555 1_555
Cu23 O34 1_555 1_555
O38 Cu6 1_555 1_555
O44 Cu5 1_555 1_555
O47 Cu5 1_555 1_555
O49 Cu6 1_555 1_555
N19 Cu6 1_555 1_555
Cu24 O8 1_555 1_555
Cu25 O9 1_555 1_555
C18 C19 1_555 1_555
C25 C26 1_555 1_555
C27 C28 1_555 1_555
C33 N4 1_555 1_555
C34 C35 1_555 1_555
C41 C42 1_555 1_555
O21 Cu8 1_555 1_555
O26 Cu25 1_555 1_555
O27 Cu24 1_555 1_555
C94 C95 1_555 1_555
C105 C106 1_555 1_555
C110 C111 1_555 1_555
C112 C113 1_555 1_555
C114 C115 1_555 1_555
C120 N15 1_555 1_555
C121 C122 1_555 1_555
C128 C129 1_555 1_555
C130 C131 1_555 1_555
C137 C138 1_555 1_555
C140 C141 1_555 1_555
C147 C148 1_555 1_555
C154 C155 1_555 1_555
C157 C158 1_555 1_555
C159 H111 1_555 1_555
C159 H112 1_555 1_555
C159 H113 1_555 1_555
H53 C81 1_555 1_555
H55 C81 1_555 1_555
H105 C161 1_555 1_555
H106 C161 1_555 1_555
H107 C161 1_555 1_555
H108 C162 1_555 1_555
H109 C162 1_555 1_555
H110 C162 1_555 1_555
N5 Cu2 1_555 1_555
C70 N6 1_555 1_555
H42 C70 1_555 1_555
C71 N5 1_555 1_555
H43 C71 1_555 1_555
C75 N6 1_555 1_555
C76 C75 1_555 1_555
H47 C76 1_555 1_555
C87 C76 1_555 1_555
H60 C87 1_555 1_555
O50 Cu2 1_555 1_555
C70 C71 1_555 1_555
C69_2 N19 1_555 1_555
H41_2 C69_2 1_555 1_555
N6_2 C69_2 1_555 1_555
C70_2 N6_2 1_555 1_555
H42_2 C70_2 1_555 1_555
C71_2 N19 1_555 1_555
H43_2 C71_2 1_555 1_555
C75_2 N6_2 1_555 1_555
C76_2 C75_2 1_555 1_555
H47_2 C76_2 1_555 1_555
C78_2 C75_2 1_555 1_555
H48_2 C78_2 1_555 1_555
N10_2 C82_2 1_555 1_555
C82_2 H56_2 1_555 1_555
N11_2 C82_2 1_555 1_555
C83_2 N11_2 1_555 1_555
H57_2 C83_2 1_555 1_555
C84_2 N10_2 1_555 1_555
H58_2 C84_2 1_555 1_555
C85_2 N11_2 1_555 1_555
C86_2 C78_2 1_555 1_555
H59_2 C86_2 1_555 1_555
C87_2 C76_2 1_555 1_555
H60_2 C87_2 1_555 1_555
Cu17_2 N10_2 1_555 1_555
C70_2 C71_2 1_555 1_555
C83_2 C84_2 1_555 1_555
C85_2 C86_2 1_555 1_555
C85_2 C87_2 1_555 1_555
N19_2 Cu16 1_555 1_555
Cu14 O5_2 1_555 1_555
N3_2 C13_2 1_555 1_555
O3_2 C24_2 1_555 1_555
O4_2 C24_2 1_555 1_555
O5_2 C9_2 1_555 1_555
O37 C29_2 1_555 1_555
O8_2 C40_2 1_555 1_555
O9_2 C40_2 1_555 1_555
O43 C29_2 1_555 1_555
C9_2 O2_2 1_555 1_555
C10_2 C9_2 1_555 1_555
C11_2 C10_2 1_555 1_555
H4_2 C11_2 1_555 1_555
C12_2 C11_2 1_555 1_555
H5_2 C12_2 1_555 1_555
C13_2 C12_2 1_555 1_555
C14_2 N3_2 1_555 1_555
C15_2 C14_2 1_555 1_555
H6_2 C15_2 1_555 1_555
C16_2 C15_2 1_555 1_555
C17_2 C16_2 1_555 1_555
H7_2 C17_2 1_555 1_555
C18_2 C17_2 1_555 1_555
C19_2 C14_2 1_555 1_555
H9_2 C19_2 1_555 1_555
C20_2 N3_2 1_555 1_555
C21_2 C20_2 1_555 1_555
H10_2 C21_2 1_555 1_555
C22_2 C21_2 1_555 1_555
H11_2 C22_2 1_555 1_555
C23_2 C22_2 1_555 1_555
C24_2 C23_2 1_555 1_555
C25_2 C23_2 1_555 1_555
H12_2 C25_2 1_555 1_555
C26_2 C20_2 1_555 1_555
H13_2 C26_2 1_555 1_555
C27_2 C13_2 1_555 1_555
H14_2 C27_2 1_555 1_555
C28_2 C10_2 1_555 1_555
H15_2 C28_2 1_555 1_555
C29_2 C30_2 1_555 1_555
C30_2 C31_2 1_555 1_555
C31_2 H16_2 1_555 1_555
C32_2 C31_2 1_555 1_555
H17_2 C32_2 1_555 1_555
C33_2 C32_2 1_555 1_555
C34_2 C33_2 1_555 1_555
H18_2 C34_2 1_555 1_555
C35_2 C30_2 1_555 1_555
H19_2 C35_2 1_555 1_555
N4_2 C16_2 1_555 1_555
C36_2 N4_2 1_555 1_555
C37_2 C36_2 1_555 1_555
H20_2 C37_2 1_555 1_555
C38_2 C37_2 1_555 1_555
H21_2 C38_2 1_555 1_555
C39_2 C38_2 1_555 1_555
C40_2 C39_2 1_555 1_555
C41_2 C39_2 1_555 1_555
H22_2 C41_2 1_555 1_555
C42_2 C36_2 1_555 1_555
H23_2 C42_2 1_555 1_555
N5_2 Cu14 1_555 1_555
C70_3 N6_3 1_555 1_555
H42_3 C70_3 1_555 1_555
C71_3 N5_2 1_555 1_555
H43_3 C71_3 1_555 1_555
C75_3 N6_3 1_555 1_555
C76_3 C75_3 1_555 1_555
H47_3 C76_3 1_555 1_555
H49_2 C79_2 1_555 1_555
H53_2 C81_2 1_555 1_555
H55_2 C81_2 1_555 1_555
Cu4_2 O3_2 1_555 1_555
O18_2 Cu4_2 1_555 1_555
Cu12 O19_2 1_555 1_555
Cu7 O30_2 1_555 1_555
N12_2 C88_2 1_555 1_555
N13_2 C90_2 1_555 1_555
N14_2 C100_2 1_555 1_555
O19_2 C95_2 1_555 1_555
O20_2 Cu12 1_555 1_555
O21_2 C111_2 1_555 1_555
O22_2 Cu4_2 1_555 1_555
O23_2 C96_2 1_555 1_555
O38 C116_2 1_555 1_555
O26_2 C127_2 1_555 1_555
O27_2 C127_2 1_555 1_555
O44 C116_2 1_555 1_555
O29_2 Cu12 1_555 1_555
O30_2 C136_2 1_555 1_555
O31 C136_2 1_555 1_555
O48 C146_2 1_555 1_555
O50 C146_2 1_555 1_555
O34_2 C153_2 1_555 1_555
O35_2 C153_2 1_555 1_555
C88_2 C89_2 1_555 1_555
C89_2 H61_2 1_555 1_555
C90_2 C89_2 1_555 1_555
C91_2 N13_2 1_555 1_555
C92_2 C91_2 1_555 1_555
H62_2 C92_2 1_555 1_555
C93_2 C92_2 1_555 1_555
H63_2 C93_2 1_555 1_555
C94_2 C93_2 1_555 1_555
C95_2 O24_2 1_555 1_555
C96_2 O20_2 1_555 1_555
C97_2 C96_2 1_555 1_555
C98_2 C97_2 1_555 1_555
H64_2 C98_2 1_555 1_555
C99_2 C98_2 1_555 1_555
H65_2 C99_2 1_555 1_555
C100_2 C99_2 1_555 1_555
C101_2 N14_2 1_555 1_555
C102_2 C101_2 1_555 1_555
H66_2 C102_2 1_555 1_555
C103_2 C102_2 1_555 1_555
C104_2 C103_2 1_555 1_555
H67_2 C104_2 1_555 1_555
C105_2 C104_2 1_555 1_555
H68_2 C105_2 1_555 1_555
C106_2 C101_2 1_555 1_555
H69_2 C106_2 1_555 1_555
C107_2 N14_2 1_555 1_555
C108_2 C107_2 1_555 1_555
H70_2 C108_2 1_555 1_555
C109_2 C108_2 1_555 1_555
H71_2 C109_2 1_555 1_555
C110_2 C109_2 1_555 1_555
C111_2 O22_2 1_555 1_555
C112_2 C110_2 1_555 1_555
H72_2 C112_2 1_555 1_555
C113_2 C107_2 1_555 1_555
H73_2 C113_2 1_555 1_555
C114_2 C100_2 1_555 1_555
H74_2 C114_2 1_555 1_555
C115_2 C97_2 1_555 1_555
H75_2 C115_2 1_555 1_555
C116_2 C117_2 1_555 1_555
C117_2 C118_2 1_555 1_555
C118_2 H76_2 1_555 1_555
C119_2 C118_2 1_555 1_555
H77_2 C119_2 1_555 1_555
C120_2 C119_2 1_555 1_555
C121_2 C120_2 1_555 1_555
H78_2 C121_2 1_555 1_555
C122_2 C117_2 1_555 1_555
H79_2 C122_2 1_555 1_555
N15_2 C103_2 1_555 1_555
C123_2 N15_2 1_555 1_555
C124_2 C123_2 1_555 1_555
H80_2 C124_2 1_555 1_555
C125_2 C124_2 1_555 1_555
H81_2 C125_2 1_555 1_555
C126_2 C125_2 1_555 1_555
C127_2 C126_2 1_555 1_555
C128_2 C126_2 1_555 1_555
H82_2 C128_2 1_555 1_555
C129_2 C123_2 1_555 1_555
H83_2 C129_2 1_555 1_555
C130_2 C94_2 1_555 1_555
H84_2 C130_2 1_555 1_555
C131_2 C91_2 1_555 1_555
H85_2 C131_2 1_555 1_555
C132_2 N13_2 1_555 1_555
C133_2 C132_2 1_555 1_555
H86_2 C133_2 1_555 1_555
C134_2 C133_2 1_555 1_555
H87_2 C134_2 1_555 1_555
C135_2 C134_2 1_555 1_555
C136_2 C135_2 1_555 1_555
C137_2 C135_2 1_555 1_555
H88_2 C137_2 1_555 1_555
C138_2 C132_2 1_555 1_555
H89_2 C138_2 1_555 1_555
C139_2 C90_2 1_555 1_555
H90_2 C139_2 1_555 1_555
C140_2 C139_2 1_555 1_555
C141_2 C88_2 1_555 1_555
H92_2 C141_2 1_555 1_555
C142_2 N12_2 1_555 1_555
C143_2 C142_2 1_555 1_555
H93_2 C143_2 1_555 1_555
C144_2 C143_2 1_555 1_555
H94_2 C144_2 1_555 1_555
C145_2 C144_2 1_555 1_555
C146_2 C145_2 1_555 1_555
C147_2 C145_2 1_555 1_555
H95_2 C147_2 1_555 1_555
C148_2 C142_2 1_555 1_555
H96_2 C148_2 1_555 1_555
C149_2 N12_2 1_555 1_555
C150_2 C149_2 1_555 1_555
H97_2 C150_2 1_555 1_555
C151_2 C150_2 1_555 1_555
H98_2 C151_2 1_555 1_555
C152_2 C151_2 1_555 1_555
C153_2 C152_2 1_555 1_555
C154_2 C152_2 1_555 1_555
H99_2 C154_2 1_555 1_555
C155_2 C149_2 1_555 1_555
H100_2 C155_2 1_555 1_555
N16_2 Cu7 1_555 1_555
C156_2 N16_2 1_555 1_555
H101_2 C156_2 1_555 1_555
N17_2 C156_2 1_555 1_555
C157_2 N17_2 1_555 1_555
H102_2 C157_2 1_555 1_555
C158_2 N16_2 1_555 1_555
H103_2 C158_2 1_555 1_555
C159_2 N17_2 1_555 1_555
N18_2 C160_2 1_555 1_555
C160_2 O29_2 1_555 1_555
H104_2 C160_2 1_555 1_555
C161_2 N18_2 1_555 1_555
H105_2 C161_2 1_555 1_555
H106_2 C161_2 1_555 1_555
H107_2 C161_2 1_555 1_555
C162_2 N18_2 1_555 1_555
H108_2 C162_2 1_555 1_555
H109_2 C162_2 1_555 1_555
H110_2 C162_2 1_555 1_555
Cu8_2 O4_2 1_555 1_555
O36_2 Cu8_2 1_555 1_555
Cu18 O31 1_555 1_555
O39_2 Cu4_2 1_555 1_555
O40_2 Cu8_2 1_555 1_555
O41_2 Cu8_2 1_555 1_555
O42_2 Cu4_2 1_555 1_555
O45 Cu7 1_555 1_555
O52_2 Cu7 1_555 1_555
O53_2 Cu7 1_555 1_555
C18_2 C19_2 1_555 1_555
C25_2 C26_2 1_555 1_555
C27_2 C28_2 1_555 1_555
C33_2 N4_2 1_555 1_555
C34_2 C35_2 1_555 1_555
C41_2 C42_2 1_555 1_555
C70_3 C71_3 1_555 1_555
O21_2 Cu8_2 1_555 1_555
C94_2 C95_2 1_555 1_555
C105_2 C106_2 1_555 1_555
C110_2 C111_2 1_555 1_555
C112_2 C113_2 1_555 1_555
C114_2 C115_2 1_555 1_555
C120_2 N15_2 1_555 1_555
C121_2 C122_2 1_555 1_555
C128_2 C129_2 1_555 1_555
C130_2 C131_2 1_555 1_555
C137_2 C138_2 1_555 1_555
C140_2 C141_2 1_555 1_555
C147_2 C148_2 1_555 1_555
C154_2 C155_2 1_555 1_555
C157_2 C158_2 1_555 1_555
C159_2 H111_2 1_555 1_555
C159_2 H112_2 1_555 1_555
C159_2 H113_2 1_555 1_555
C82_3 H56_3 1_555 1_555
H60_3 C87_3 1_555 1_555
Cu10 O1_2 1_555 1_555
Cu18 O12_2 1_555 1_555
N1_2 C1_2 1_555 1_555
N2_2 C3_2 1_555 1_555
O1_2 C8_2 1_555 1_555
O11_2 Cu10 1_555 1_555
O12_2 C49_2 1_555 1_555
O45 C49_2 1_555 1_555
O47 C59_2 1_555 1_555
O49 C59_2 1_555 1_555
O16_2 C66_2 1_555 1_555
O17_2 C66_2 1_555 1_555
C1_2 C2_2 1_555 1_555
C2_2 H1_2 1_555 1_555
C3_2 C2_2 1_555 1_555
C4_2 N2_2 1_555 1_555
C5_2 C4_2 1_555 1_555
H2_2 C5_2 1_555 1_555
C6_2 C5_2 1_555 1_555
H3_2 C6_2 1_555 1_555
C7_2 C6_2 1_555 1_555
C8_2 O6_2 1_555 1_555
C43_2 C7_2 1_555 1_555
H24_2 C43_2 1_555 1_555
C44_2 C4_2 1_555 1_555
H25_2 C44_2 1_555 1_555
C45_2 N2_2 1_555 1_555
C46_2 C45_2 1_555 1_555
H26_2 C46_2 1_555 1_555
C47_2 C46_2 1_555 1_555
H27_2 C47_2 1_555 1_555
C48_2 C47_2 1_555 1_555
C49_2 C48_2 1_555 1_555
C50_2 C48_2 1_555 1_555
H28_2 C50_2 1_555 1_555
C51_2 C45_2 1_555 1_555
H29_2 C51_2 1_555 1_555
C52_2 C3_2 1_555 1_555
H30_2 C52_2 1_555 1_555
C53_2 C52_2 1_555 1_555
H31_2 C53_2 1_555 1_555
C54_2 C1_2 1_555 1_555
H32_2 C54_2 1_555 1_555
C55_2 N1_2 1_555 1_555
C56_2 C55_2 1_555 1_555
H33_2 C56_2 1_555 1_555
C57_2 C56_2 1_555 1_555
H34_2 C57_2 1_555 1_555
C58_2 C57_2 1_555 1_555
C59_2 C58_2 1_555 1_555
C60_2 C58_2 1_555 1_555
H35_2 C60_2 1_555 1_555
C61_2 C55_2 1_555 1_555
H36_2 C61_2 1_555 1_555
C62_2 N1_2 1_555 1_555
C63_2 C62_2 1_555 1_555
H37_2 C63_2 1_555 1_555
C64_2 C63_2 1_555 1_555
H38_2 C64_2 1_555 1_555
C65_2 C64_2 1_555 1_555
C66_2 C65_2 1_555 1_555
C67_2 C65_2 1_555 1_555
H39_2 C67_2 1_555 1_555
C68_2 C62_2 1_555 1_555
H40_2 C68_2 1_555 1_555
H41_3 C69_3 1_555 1_555
N7_2 Cu18 1_555 1_555
C72_2 N7_2 1_555 1_555
H44_2 C72_2 1_555 1_555
N8_2 C72_2 1_555 1_555
C73_2 N8_2 1_555 1_555
H45_2 C73_2 1_555 1_555
C74_2 N7_2 1_555 1_555
H46_2 C74_2 1_555 1_555
C77_2 N8_2 1_555 1_555
H48_3 C78_3 1_555 1_555
C80_2 N9_2 1_555 1_555
H50_2 C80_2 1_555 1_555
H51_2 C80_2 1_555 1_555
H52_2 C80_2 1_555 1_555
O51_2 Cu18 1_555 1_555
O54_2 Cu18 1_555 1_555
C7_2 C8_2 1_555 1_555
C43_2 C44_2 1_555 1_555
C50_2 C51_2 1_555 1_555
C53_2 C54_2 1_555 1_555
C60_2 C61_2 1_555 1_555
C67_2 C68_2 1_555 1_555
C73_2 C74_2 1_555 1_555
C77_2 H116_2 1_555 1_555
C77_2 H117_2 1_555 1_555
C77_2 H118_2 1_555 1_555
C83_3 N11_3 1_555 1_555
H57_3 C83_3 1_555 1_555
C84_3 N10_3 1_555 1_555
H58_3 C84_3 1_555 1_555
C85_3 N11_3 1_555 1_555
H59_3 C86_3 1_555 1_555
Cu17_3 N10_3 1_555 1_555
C83_3 C84_3 1_555 1_555
C85_3 C86_3 1_555 1_555
C69_4 N19_2 1_555 1_555
N6_4 C69_4 1_555 1_555
C70_4 N6_4 1_555 1_555
H42_4 C70_4 1_555 1_555
C71_4 N19_2 1_555 1_555
H43_4 C71_4 1_555 1_555
C75_4 N6_4 1_555 1_555
C76_4 C75_4 1_555 1_555
H47_4 C76_4 1_555 1_555
C70_4 C71_4 1_555 1_555
H60_4 C87_4 1_555 1_555
H48_4 C78_4 1_555 1_555
N10_4 C82_4 1_555 1_555
N11_4 C82_4 1_555 1_555
C83_4 N11_4 1_555 1_555
H57_4 C83_4 1_555 1_555
C84_4 N10_4 1_555 1_555
H58_4 C84_4 1_555 1_555
C85_4 N11_4 1_555 1_555
H59_4 C86_4 1_555 1_555
Cu17_4 N10_4 1_555 1_555
C83_4 C84_4 1_555 1_555
C85_4 C86_4 1_555 1_555
O50_2 Cu17 1_555 1_555
H53_3 C81_3 1_555 1_555
H55_3 C81_3 1_555 1_555
H105_3 C161_3 1_555 1_555
H106_3 C161_3 1_555 1_555
H107_3 C161_3 1_555 1_555
H108_3 C162_3 1_555 1_555
H109_3 C162_3 1_555 1_555
H110_3 C162_3 1_555 1_555
N3_3 C13_3 1_555 1_555
O3_3 C24_3 1_555 1_555
O4_3 C24_3 1_555 1_555
O5_3 C9_3 1_555 1_555
O7_2 C29_3 1_555 1_555
O39_2 C40_3 1_555 1_555
O41_2 C40_3 1_555 1_555
O10_2 C29_3 1_555 1_555
C9_3 O2_3 1_555 1_555
C10_3 C9_3 1_555 1_555
C11_3 C10_3 1_555 1_555
H4_3 C11_3 1_555 1_555
C12_3 C11_3 1_555 1_555
H5_3 C12_3 1_555 1_555
C13_3 C12_3 1_555 1_555
C14_3 N3_3 1_555 1_555
C15_3 C14_3 1_555 1_555
H6_3 C15_3 1_555 1_555
C16_3 C15_3 1_555 1_555
C17_3 C16_3 1_555 1_555
H7_3 C17_3 1_555 1_555
C18_3 C17_3 1_555 1_555
C19_3 C14_3 1_555 1_555
H9_3 C19_3 1_555 1_555
C20_3 N3_3 1_555 1_555
C21_3 C20_3 1_555 1_555
H10_3 C21_3 1_555 1_555
C22_3 C21_3 1_555 1_555
H11_3 C22_3 1_555 1_555
C23_3 C22_3 1_555 1_555
C24_3 C23_3 1_555 1_555
C25_3 C23_3 1_555 1_555
H12_3 C25_3 1_555 1_555
C26_3 C20_3 1_555 1_555
H13_3 C26_3 1_555 1_555
C27_3 C13_3 1_555 1_555
H14_3 C27_3 1_555 1_555
C28_3 C10_3 1_555 1_555
H15_3 C28_3 1_555 1_555
C29_3 C30_3 1_555 1_555
C30_3 C31_3 1_555 1_555
C31_3 H16_3 1_555 1_555
C32_3 C31_3 1_555 1_555
H17_3 C32_3 1_555 1_555
C33_3 C32_3 1_555 1_555
C34_3 C33_3 1_555 1_555
H18_3 C34_3 1_555 1_555
C35_3 C30_3 1_555 1_555
H19_3 C35_3 1_555 1_555
N4_3 C16_3 1_555 1_555
C36_3 N4_3 1_555 1_555
C37_3 C36_3 1_555 1_555
H20_3 C37_3 1_555 1_555
C38_3 C37_3 1_555 1_555
H21_3 C38_3 1_555 1_555
C39_3 C38_3 1_555 1_555
C40_3 C39_3 1_555 1_555
C41_3 C39_3 1_555 1_555
H22_3 C41_3 1_555 1_555
C42_3 C36_3 1_555 1_555
H23_3 C42_3 1_555 1_555
H49_3 C79_3 1_555 1_555
Cu24_2 O3_3 1_555 1_555
O18_3 Cu24_2 1_555 1_555
Cu5_2 O19_3 1_555 1_555
Cu17_2 O23_3 1_555 1_555
Cu22 O30_3 1_555 1_555
N12_3 C88_3 1_555 1_555
N13_3 C90_3 1_555 1_555
N14_3 C100_3 1_555 1_555
O19_3 C95_3 1_555 1_555
O20_3 Cu5_2 1_555 1_555
O21_3 C111_3 1_555 1_555
O22_3 Cu24_2 1_555 1_555
O23_3 C96_3 1_555 1_555
O24_3 Cu17_2 1_555 1_555
O25_2 C116_3 1_555 1_555
O40_2 C127_3 1_555 1_555
O42_2 C127_3 1_555 1_555
O28_2 C116_3 1_555 1_555
O29_3 Cu5_2 1_555 1_555
O30_3 C136_3 1_555 1_555
O31_2 C136_3 1_555 1_555
O32_2 C146_3 1_555 1_555
O33_2 C146_3 1_555 1_555
O52_2 C153_3 1_555 1_555
O54_2 C153_3 1_555 1_555
C88_3 C89_3 1_555 1_555
C89_3 H61_3 1_555 1_555
C90_3 C89_3 1_555 1_555
C91_3 N13_3 1_555 1_555
C92_3 C91_3 1_555 1_555
H62_3 C92_3 1_555 1_555
C93_3 C92_3 1_555 1_555
H63_3 C93_3 1_555 1_555
C94_3 C93_3 1_555 1_555
C95_3 O24_3 1_555 1_555
C96_3 O20_3 1_555 1_555
C97_3 C96_3 1_555 1_555
C98_3 C97_3 1_555 1_555
H64_3 C98_3 1_555 1_555
C99_3 C98_3 1_555 1_555
H65_3 C99_3 1_555 1_555
C100_3 C99_3 1_555 1_555
C101_3 N14_3 1_555 1_555
C102_3 C101_3 1_555 1_555
H66_3 C102_3 1_555 1_555
C103_3 C102_3 1_555 1_555
C104_3 C103_3 1_555 1_555
H67_3 C104_3 1_555 1_555
C105_3 C104_3 1_555 1_555
H68_3 C105_3 1_555 1_555
C106_3 C101_3 1_555 1_555
H69_3 C106_3 1_555 1_555
C107_3 N14_3 1_555 1_555
C108_3 C107_3 1_555 1_555
H70_3 C108_3 1_555 1_555
C109_3 C108_3 1_555 1_555
H71_3 C109_3 1_555 1_555
C110_3 C109_3 1_555 1_555
C111_3 O22_3 1_555 1_555
C112_3 C110_3 1_555 1_555
H72_3 C112_3 1_555 1_555
C113_3 C107_3 1_555 1_555
H73_3 C113_3 1_555 1_555
C114_3 C100_3 1_555 1_555
H74_3 C114_3 1_555 1_555
C115_3 C97_3 1_555 1_555
H75_3 C115_3 1_555 1_555
C116_3 C117_3 1_555 1_555
C117_3 C118_3 1_555 1_555
C118_3 H76_3 1_555 1_555
C119_3 C118_3 1_555 1_555
H77_3 C119_3 1_555 1_555
C120_3 C119_3 1_555 1_555
C121_3 C120_3 1_555 1_555
H78_3 C121_3 1_555 1_555
C122_3 C117_3 1_555 1_555
H79_3 C122_3 1_555 1_555
N15_3 C103_3 1_555 1_555
C123_3 N15_3 1_555 1_555
C124_3 C123_3 1_555 1_555
H80_3 C124_3 1_555 1_555
C125_3 C124_3 1_555 1_555
H81_3 C125_3 1_555 1_555
C126_3 C125_3 1_555 1_555
C127_3 C126_3 1_555 1_555
C128_3 C126_3 1_555 1_555
H82_3 C128_3 1_555 1_555
C129_3 C123_3 1_555 1_555
H83_3 C129_3 1_555 1_555
C130_3 C94_3 1_555 1_555
H84_3 C130_3 1_555 1_555
C131_3 C91_3 1_555 1_555
H85_3 C131_3 1_555 1_555
C132_3 N13_3 1_555 1_555
C133_3 C132_3 1_555 1_555
H86_3 C133_3 1_555 1_555
C134_3 C133_3 1_555 1_555
H87_3 C134_3 1_555 1_555
C135_3 C134_3 1_555 1_555
C136_3 C135_3 1_555 1_555
C137_3 C135_3 1_555 1_555
H88_3 C137_3 1_555 1_555
C138_3 C132_3 1_555 1_555
H89_3 C138_3 1_555 1_555
C139_3 C90_3 1_555 1_555
H90_3 C139_3 1_555 1_555
C140_3 C139_3 1_555 1_555
H91_3 C140_3 1_555 1_555
C141_3 C88_3 1_555 1_555
H92_3 C141_3 1_555 1_555
C142_3 N12_3 1_555 1_555
C143_3 C142_3 1_555 1_555
H93_3 C143_3 1_555 1_555
C144_3 C143_3 1_555 1_555
H94_3 C144_3 1_555 1_555
C145_3 C144_3 1_555 1_555
C146_3 C145_3 1_555 1_555
C147_3 C145_3 1_555 1_555
H95_3 C147_3 1_555 1_555
C148_3 C142_3 1_555 1_555
H96_3 C148_3 1_555 1_555
C149_3 N12_3 1_555 1_555
C150_3 C149_3 1_555 1_555
H97_3 C150_3 1_555 1_555
C151_3 C150_3 1_555 1_555
H98_3 C151_3 1_555 1_555
C152_3 C151_3 1_555 1_555
C153_3 C152_3 1_555 1_555
C154_3 C152_3 1_555 1_555
H99_3 C154_3 1_555 1_555
C155_3 C149_3 1_555 1_555
H100_3 C155_3 1_555 1_555
N16_3 Cu22 1_555 1_555
C156_3 N16_3 1_555 1_555
H101_3 C156_3 1_555 1_555
N17_3 C156_3 1_555 1_555
C157_3 N17_3 1_555 1_555
C158_3 N16_3 1_555 1_555
C159_3 N17_3 1_555 1_555
N18_3 C160_3 1_555 1_555
C160_3 O29_3 1_555 1_555
H104_3 C160_3 1_555 1_555
Cu25_2 O4_3 1_555 1_555
O36_3 Cu25_2 1_555 1_555
Cu9 O10_2 1_555 1_555
Cu17_3 O33_2 1_555 1_555
Cu17_4 O25_2 1_555 1_555
Cu20 O31_2 1_555 1_555
O38_2 Cu17_2 1_555 1_555
O44_2 Cu5_2 1_555 1_555
O45_2 Cu22 1_555 1_555
O47_2 Cu5_2 1_555 1_555
O49_2 Cu17_2 1_555 1_555
C18_3 C19_3 1_555 1_555
C25_3 C26_3 1_555 1_555
C27_3 C28_3 1_555 1_555
C33_3 N4_3 1_555 1_555
C34_3 C35_3 1_555 1_555
C41_3 C42_3 1_555 1_555
O21_3 Cu25_2 1_555 1_555
C94_3 C95_3 1_555 1_555
C105_3 C106_3 1_555 1_555
C110_3 C111_3 1_555 1_555
C112_3 C113_3 1_555 1_555
C114_3 C115_3 1_555 1_555
C120_3 N15_3 1_555 1_555
C121_3 C122_3 1_555 1_555
C128_3 C129_3 1_555 1_555
C130_3 C131_3 1_555 1_555
C137_3 C138_3 1_555 1_555
C140_3 C141_3 1_555 1_555
C147_3 C148_3 1_555 1_555
C154_3 C155_3 1_555 1_555
C157_3 C158_3 1_555 1_555
C159_3 H111_3 1_555 1_555
C159_3 H112_3 1_555 1_555
C159_3 H113_3 1_555 1_555
H50_3 C80_3 1_555 1_555
H51_3 C80_3 1_555 1_555
H52_3 C80_3 1_555 1_555
Cu1_2 O1_3 1_555 1_555
Cu20 O12_3 1_555 1_555
N1_3 C1_3 1_555 1_555
N2_3 C3_3 1_555 1_555
O1_3 C8_3 1_555 1_555
O11_3 Cu1_2 1_555 1_555
O12_3 C49_3 1_555 1_555
O45_2 C49_3 1_555 1_555
O14_2 C59_3 1_555 1_555
O15_2 C59_3 1_555 1_555
O51_2 C66_3 1_555 1_555
O53_2 C66_3 1_555 1_555
C1_3 C2_3 1_555 1_555
C2_3 H1_3 1_555 1_555
C3_3 C2_3 1_555 1_555
C4_3 N2_3 1_555 1_555
C5_3 C4_3 1_555 1_555
H2_3 C5_3 1_555 1_555
C6_3 C5_3 1_555 1_555
H3_3 C6_3 1_555 1_555
C7_3 C6_3 1_555 1_555
C8_3 O6_3 1_555 1_555
C43_3 C7_3 1_555 1_555
H24_3 C43_3 1_555 1_555
C44_3 C4_3 1_555 1_555
H25_3 C44_3 1_555 1_555
C45_3 N2_3 1_555 1_555
C46_3 C45_3 1_555 1_555
H26_3 C46_3 1_555 1_555
C47_3 C46_3 1_555 1_555
H27_3 C47_3 1_555 1_555
C48_3 C47_3 1_555 1_555
C49_3 C48_3 1_555 1_555
C50_3 C48_3 1_555 1_555
H28_3 C50_3 1_555 1_555
C51_3 C45_3 1_555 1_555
H29_3 C51_3 1_555 1_555
C52_3 C3_3 1_555 1_555
H30_3 C52_3 1_555 1_555
C53_3 C52_3 1_555 1_555
C54_3 C1_3 1_555 1_555
H32_3 C54_3 1_555 1_555
C55_3 N1_3 1_555 1_555
C56_3 C55_3 1_555 1_555
H33_3 C56_3 1_555 1_555
C57_3 C56_3 1_555 1_555
H34_3 C57_3 1_555 1_555
C58_3 C57_3 1_555 1_555
C59_3 C58_3 1_555 1_555
C60_3 C58_3 1_555 1_555
H35_3 C60_3 1_555 1_555
C61_3 C55_3 1_555 1_555
H36_3 C61_3 1_555 1_555
C62_3 N1_3 1_555 1_555
C63_3 C62_3 1_555 1_555
H37_3 C63_3 1_555 1_555
C64_3 C63_3 1_555 1_555
H38_3 C64_3 1_555 1_555
C65_3 C64_3 1_555 1_555
C66_3 C65_3 1_555 1_555
C67_3 C65_3 1_555 1_555
H39_3 C67_3 1_555 1_555
C68_3 C62_3 1_555 1_555
H40_3 C68_3 1_555 1_555
N7_3 Cu20 1_555 1_555
C72_3 N7_3 1_555 1_555
H44_3 C72_3 1_555 1_555
N8_3 C72_3 1_555 1_555
C73_3 N8_3 1_555 1_555
C74_3 N7_3 1_555 1_555
C77_3 N8_3 1_555 1_555
Cu17_4 O15_2 1_555 1_555
C7_3 C8_3 1_555 1_555
C43_3 C44_3 1_555 1_555
C50_3 C51_3 1_555 1_555
C53_3 C54_3 1_555 1_555
C60_3 C61_3 1_555 1_555
C67_3 C68_3 1_555 1_555
C73_3 C74_3 1_555 1_555
C77_3 H116_3 1_555 1_555
C77_3 H117_3 1_555 1_555
C77_3 H118_3 1_555 1_555
Cu9 O1_4 1_555 1_555
Cu21 O12_4 1_555 1_555
N1_4 C1_4 1_555 1_555
N2_4 C3_4 1_555 1_555
O1_4 C8_4 1_555 1_555
O11_4 Cu9 1_555 1_555
O12_4 C49_4 1_555 1_555
O13_2 C49_4 1_555 1_555
O47_2 C59_4 1_555 1_555
O49_2 C59_4 1_555 1_555
O51 C66_4 1_555 1_555
O53 C66_4 1_555 1_555
C1_4 C2_4 1_555 1_555
C2_4 H1_4 1_555 1_555
C3_4 C2_4 1_555 1_555
C4_4 N2_4 1_555 1_555
C5_4 C4_4 1_555 1_555
H2_4 C5_4 1_555 1_555
C6_4 C5_4 1_555 1_555
H3_4 C6_4 1_555 1_555
C7_4 C6_4 1_555 1_555
C8_4 O6_4 1_555 1_555
C43_4 C7_4 1_555 1_555
H24_4 C43_4 1_555 1_555
C44_4 C4_4 1_555 1_555
H25_4 C44_4 1_555 1_555
C45_4 N2_4 1_555 1_555
C46_4 C45_4 1_555 1_555
H26_4 C46_4 1_555 1_555
C47_4 C46_4 1_555 1_555
H27_4 C47_4 1_555 1_555
C48_4 C47_4 1_555 1_555
C49_4 C48_4 1_555 1_555
C50_4 C48_4 1_555 1_555
H28_4 C50_4 1_555 1_555
C51_4 C45_4 1_555 1_555
H29_4 C51_4 1_555 1_555
C52_4 C3_4 1_555 1_555
H30_4 C52_4 1_555 1_555
C53_4 C52_4 1_555 1_555
H31_4 C53_4 1_555 1_555
C54_4 C1_4 1_555 1_555
H32_4 C54_4 1_555 1_555
C55_4 N1_4 1_555 1_555
C56_4 C55_4 1_555 1_555
H33_4 C56_4 1_555 1_555
C57_4 C56_4 1_555 1_555
H34_4 C57_4 1_555 1_555
C58_4 C57_4 1_555 1_555
C59_4 C58_4 1_555 1_555
C60_4 C58_4 1_555 1_555
H35_4 C60_4 1_555 1_555
C61_4 C55_4 1_555 1_555
H36_4 C61_4 1_555 1_555
C62_4 N1_4 1_555 1_555
C63_4 C62_4 1_555 1_555
H37_4 C63_4 1_555 1_555
C64_4 C63_4 1_555 1_555
H38_4 C64_4 1_555 1_555
C65_4 C64_4 1_555 1_555
C66_4 C65_4 1_555 1_555
C67_4 C65_4 1_555 1_555
H39_4 C67_4 1_555 1_555
C68_4 C62_4 1_555 1_555
H40_4 C68_4 1_555 1_555
N7_4 Cu21 1_555 1_555
C72_4 N7_4 1_555 1_555
H44_4 C72_4 1_555 1_555
N8_4 C72_4 1_555 1_555
C73_4 N8_4 1_555 1_555
H45_4 C73_4 1_555 1_555
C74_4 N7_4 1_555 1_555
H46_4 C74_4 1_555 1_555
C77_4 N8_4 1_555 1_555
C80_4 N9_4 1_555 1_555
H50_4 C80_4 1_555 1_555
H51_4 C80_4 1_555 1_555
H52_4 C80_4 1_555 1_555
Cu23 O13_2 1_555 1_555
O46_2 Cu21 1_555 1_555
C7_4 C8_4 1_555 1_555
C43_4 C44_4 1_555 1_555
C50_4 C51_4 1_555 1_555
C53_4 C54_4 1_555 1_555
C60_4 C61_4 1_555 1_555
C67_4 C68_4 1_555 1_555
C73_4 C74_4 1_555 1_555
C77_4 H116_4 1_555 1_555
C77_4 H117_4 1_555 1_555
C77_4 H118_4 1_555 1_555
Cu17_3 O5_4 1_555 1_555
N3_4 C13_4 1_555 1_555
O3_4 C24_4 1_555 1_555
O4_4 C24_4 1_555 1_555
O5_4 C9_4 1_555 1_555
O37_2 C29_4 1_555 1_555
O39 C40_4 1_555 1_555
O41 C40_4 1_555 1_555
O43_2 C29_4 1_555 1_555
C9_4 O2_4 1_555 1_555
C10_4 C9_4 1_555 1_555
C11_4 C10_4 1_555 1_555
H4_4 C11_4 1_555 1_555
C12_4 C11_4 1_555 1_555
H5_4 C12_4 1_555 1_555
C13_4 C12_4 1_555 1_555
C14_4 N3_4 1_555 1_555
C15_4 C14_4 1_555 1_555
H6_4 C15_4 1_555 1_555
C16_4 C15_4 1_555 1_555
C17_4 C16_4 1_555 1_555
H7_4 C17_4 1_555 1_555
C18_4 C17_4 1_555 1_555
C19_4 C14_4 1_555 1_555
H9_4 C19_4 1_555 1_555
C20_4 N3_4 1_555 1_555
C21_4 C20_4 1_555 1_555
H10_4 C21_4 1_555 1_555
C22_4 C21_4 1_555 1_555
H11_4 C22_4 1_555 1_555
C23_4 C22_4 1_555 1_555
C24_4 C23_4 1_555 1_555
C25_4 C23_4 1_555 1_555
H12_4 C25_4 1_555 1_555
C26_4 C20_4 1_555 1_555
H13_4 C26_4 1_555 1_555
C27_4 C13_4 1_555 1_555
H14_4 C27_4 1_555 1_555
C28_4 C10_4 1_555 1_555
H15_4 C28_4 1_555 1_555
C29_4 C30_4 1_555 1_555
C30_4 C31_4 1_555 1_555
C31_4 H16_4 1_555 1_555
C32_4 C31_4 1_555 1_555
H17_4 C32_4 1_555 1_555
C33_4 C32_4 1_555 1_555
C34_4 C33_4 1_555 1_555
H18_4 C34_4 1_555 1_555
C35_4 C30_4 1_555 1_555
H19_4 C35_4 1_555 1_555
N4_4 C16_4 1_555 1_555
C36_4 N4_4 1_555 1_555
C37_4 C36_4 1_555 1_555
H20_4 C37_4 1_555 1_555
C38_4 C37_4 1_555 1_555
H21_4 C38_4 1_555 1_555
C39_4 C38_4 1_555 1_555
C40_4 C39_4 1_555 1_555
C41_4 C39_4 1_555 1_555
H22_4 C41_4 1_555 1_555
C42_4 C36_4 1_555 1_555
H23_4 C42_4 1_555 1_555
H49_4 C79_4 1_555 1_555
H53_4 C81_4 1_555 1_555
H55_4 C81_4 1_555 1_555
Cu24 O3_4 1_555 1_555
O18_4 Cu24 1_555 1_555
Cu11 O19_4 1_555 1_555
Cu23 O30_4 1_555 1_555
N12_4 C88_4 1_555 1_555
N13_4 C90_4 1_555 1_555
N14_4 C100_4 1_555 1_555
O19_4 C95_4 1_555 1_555
O20_4 Cu11 1_555 1_555
O21_4 C111_4 1_555 1_555
O22_4 Cu24 1_555 1_555
O23_4 C96_4 1_555 1_555
O38_2 C116_4 1_555 1_555
O40 C127_4 1_555 1_555
O42 C127_4 1_555 1_555
O44_2 C116_4 1_555 1_555
O29_4 Cu11 1_555 1_555
O30_4 C136_4 1_555 1_555
O46_2 C136_4 1_555 1_555
O48_2 C146_4 1_555 1_555
O50_2 C146_4 1_555 1_555
O52 C153_4 1_555 1_555
O54 C153_4 1_555 1_555
C88_4 C89_4 1_555 1_555
C89_4 H61_4 1_555 1_555
C90_4 C89_4 1_555 1_555
C91_4 N13_4 1_555 1_555
C92_4 C91_4 1_555 1_555
H62_4 C92_4 1_555 1_555
C93_4 C92_4 1_555 1_555
H63_4 C93_4 1_555 1_555
C94_4 C93_4 1_555 1_555
C95_4 O24_4 1_555 1_555
C96_4 O20_4 1_555 1_555
C97_4 C96_4 1_555 1_555
C98_4 C97_4 1_555 1_555
H64_4 C98_4 1_555 1_555
C99_4 C98_4 1_555 1_555
H65_4 C99_4 1_555 1_555
C100_4 C99_4 1_555 1_555
C101_4 N14_4 1_555 1_555
C102_4 C101_4 1_555 1_555
H66_4 C102_4 1_555 1_555
C103_4 C102_4 1_555 1_555
C104_4 C103_4 1_555 1_555
H67_4 C104_4 1_555 1_555
C105_4 C104_4 1_555 1_555
H68_4 C105_4 1_555 1_555
C106_4 C101_4 1_555 1_555
H69_4 C106_4 1_555 1_555
C107_4 N14_4 1_555 1_555
C108_4 C107_4 1_555 1_555
H70_4 C108_4 1_555 1_555
C109_4 C108_4 1_555 1_555
H71_4 C109_4 1_555 1_555
C110_4 C109_4 1_555 1_555
C111_4 O22_4 1_555 1_555
C112_4 C110_4 1_555 1_555
H72_4 C112_4 1_555 1_555
C113_4 C107_4 1_555 1_555
H73_4 C113_4 1_555 1_555
C114_4 C100_4 1_555 1_555
H74_4 C114_4 1_555 1_555
C115_4 C97_4 1_555 1_555
H75_4 C115_4 1_555 1_555
C116_4 C117_4 1_555 1_555
C117_4 C118_4 1_555 1_555
C118_4 H76_4 1_555 1_555
C119_4 C118_4 1_555 1_555
H77_4 C119_4 1_555 1_555
C120_4 C119_4 1_555 1_555
C121_4 C120_4 1_555 1_555
H78_4 C121_4 1_555 1_555
C122_4 C117_4 1_555 1_555
H79_4 C122_4 1_555 1_555
N15_4 C103_4 1_555 1_555
C123_4 N15_4 1_555 1_555
C124_4 C123_4 1_555 1_555
H80_4 C124_4 1_555 1_555
C125_4 C124_4 1_555 1_555
H81_4 C125_4 1_555 1_555
C126_4 C125_4 1_555 1_555
C127_4 C126_4 1_555 1_555
C128_4 C126_4 1_555 1_555
H82_4 C128_4 1_555 1_555
C129_4 C123_4 1_555 1_555
H83_4 C129_4 1_555 1_555
C130_4 C94_4 1_555 1_555
H84_4 C130_4 1_555 1_555
C131_4 C91_4 1_555 1_555
H85_4 C131_4 1_555 1_555
C132_4 N13_4 1_555 1_555
C133_4 C132_4 1_555 1_555
H86_4 C133_4 1_555 1_555
C134_4 C133_4 1_555 1_555
H87_4 C134_4 1_555 1_555
C135_4 C134_4 1_555 1_555
C136_4 C135_4 1_555 1_555
C137_4 C135_4 1_555 1_555
H88_4 C137_4 1_555 1_555
C138_4 C132_4 1_555 1_555
H89_4 C138_4 1_555 1_555
C139_4 C90_4 1_555 1_555
H90_4 C139_4 1_555 1_555
C140_4 C139_4 1_555 1_555
C141_4 C88_4 1_555 1_555
H92_4 C141_4 1_555 1_555
C142_4 N12_4 1_555 1_555
C143_4 C142_4 1_555 1_555
H93_4 C143_4 1_555 1_555
C144_4 C143_4 1_555 1_555
H94_4 C144_4 1_555 1_555
C145_4 C144_4 1_555 1_555
C146_4 C145_4 1_555 1_555
C147_4 C145_4 1_555 1_555
H95_4 C147_4 1_555 1_555
C148_4 C142_4 1_555 1_555
H96_4 C148_4 1_555 1_555
C149_4 N12_4 1_555 1_555
C150_4 C149_4 1_555 1_555
H97_4 C150_4 1_555 1_555
C151_4 C150_4 1_555 1_555
H98_4 C151_4 1_555 1_555
C152_4 C151_4 1_555 1_555
C153_4 C152_4 1_555 1_555
C154_4 C152_4 1_555 1_555
H99_4 C154_4 1_555 1_555
C155_4 C149_4 1_555 1_555
H100_4 C155_4 1_555 1_555
N16_4 Cu23 1_555 1_555
C156_4 N16_4 1_555 1_555
H101_4 C156_4 1_555 1_555
N17_4 C156_4 1_555 1_555
C157_4 N17_4 1_555 1_555
H102_4 C157_4 1_555 1_555
C158_4 N16_4 1_555 1_555
H103_4 C158_4 1_555 1_555
C159_4 N17_4 1_555 1_555
N18_4 C160_4 1_555 1_555
C160_4 O29_4 1_555 1_555
H104_4 C160_4 1_555 1_555
C161_4 N18_4 1_555 1_555
H105_4 C161_4 1_555 1_555
H106_4 C161_4 1_555 1_555
H107_4 C161_4 1_555 1_555
C162_4 N18_4 1_555 1_555
H108_4 C162_4 1_555 1_555
H109_4 C162_4 1_555 1_555
H110_4 C162_4 1_555 1_555
Cu25 O4_4 1_555 1_555
O36_4 Cu25 1_555 1_555
C18_4 C19_4 1_555 1_555
C25_4 C26_4 1_555 1_555
C27_4 C28_4 1_555 1_555
C33_4 N4_4 1_555 1_555
C34_4 C35_4 1_555 1_555
C41_4 C42_4 1_555 1_555
O21_4 Cu25 1_555 1_555
C94_4 C95_4 1_555 1_555
C105_4 C106_4 1_555 1_555
C110_4 C111_4 1_555 1_555
C112_4 C113_4 1_555 1_555
C114_4 C115_4 1_555 1_555
C120_4 N15_4 1_555 1_555
C121_4 C122_4 1_555 1_555
C128_4 C129_4 1_555 1_555
C130_4 C131_4 1_555 1_555
C137_4 C138_4 1_555 1_555
C140_4 C141_4 1_555 1_555
C147_4 C148_4 1_555 1_555
C154_4 C155_4 1_555 1_555
C157_4 C158_4 1_555 1_555
C159_4 H111_4 1_555 1_555
C159_4 H112_4 1_555 1_555
C159_4 H113_4 1_555 1_555

#END
