
###############################################################################
#
# This file contains modified crystal structure data generated from the
# MOF subset of the Cambridge Structural Database (CSD) v543 
# hosted by the Cambridge Crystallographic Data Centre (CCDC).
#
# This work is licensed under the Creative Commons
# Attribution-NonCommercial-ShareAlike 4.0 International License.
# To view a copy of this license, visit
# http://creativecommons.org/licenses/by-nc-sa/4.0/
# or send a letter to
# Creative Commons, PO Box 1866, Mountain View, CA 94042, USA.
#
# CIF created using the CSD Python API on 29 September 2022
# The structure has been converted into the P1 space group
# The structure has a 3D framework
# The original CSD entry XUDYEC is in the monoclinic crystal system
# The framework has been calculated to contain at least 10.0% void space
# The void calculation uses a probe of radius 1.32A, grid spacing 0.4
#
###############################################################################

data_XUDYEC
_chemical_formula_moiety         '(C96 H112 Cd8 N40 O24)n'
_symmetry_cell_setting           triclinic
_symmetry_space_group_name_H-M   'P 1'
_symmetry_Int_Tables_number      1
_space_group_name_Hall           'P 1'
loop_
_symmetry_equiv_pos_site_id
_symmetry_equiv_pos_as_xyz
1 x,y,z
_cell_length_a                   36.417(17)
_cell_length_b                   9.831(5)
_cell_length_c                   10.995(5)
_cell_angle_alpha                90
_cell_angle_beta                 106.189(8)
_cell_angle_gamma                90
_cell_volume                     3780.29
loop_
_atom_site_label
_atom_site_type_symbol
_atom_site_fract_x
_atom_site_fract_y
_atom_site_fract_z
C11 C 0.1412(5) 0.0020(13) 0.5914(15)
H9 H 0.1558 0.0397 0.5389
H10 H 0.1412 0.0646 0.6583
Cd1 Cd 0.210247(11) 0.66823(4) 0.36660(4)
O1 O 0.15334(14) 0.6973(6) 0.2034(5)
C1 C 0.0206(2) 0.5151(9) 0.0356(8)
C2 C 0.13757(19) 0.5943(8) 0.2350(7)
C3 C 0.0975(2) 0.5622(9) 0.1638(7)
C5 C 0.0789(2) 0.6360(10) 0.0570(8)
H2 H 0.0921 0.7032 0.0272
C6 C 0.0771(3) 0.4667(14) 0.2054(10)
H3 H 0.0886 0.4169 0.2780
O2 O 0.1782(2) 0.8139(6) 0.4790(7)
N1 N 0.23620(14) 0.5683(5) 0.5555(4)
C7 C 0.0394(2) 0.4429(14) 0.1407(10)
H4 H 0.0263 0.3748 0.1697
N2 N 0.1581(2) 0.8754(8) 0.6448(7)
C8 C 0.1748(3) 0.7923(11) 0.5835(10)
H5 H 0.1848 0.7114 0.6231
C9 C 0.22233(18) 0.4654(6) 0.6052(6)
O3 O 0.15402(15) 0.5229(7) 0.3235(6)
N3 N 0.23355(16) 0.4656(5) 0.7322(5)
N4 N 0.25814(16) 0.6412(5) 0.6570(5)
C10 C 0.25539(19) 0.5790(6) 0.7581(6)
H6 H 0.2672 0.6091 0.8398
N5 N 0.2000(2) 0.3652(6) 0.5361(6)
H7 H 0.1942 0.3670 0.4547
H8 H 0.1917 0.3004 0.5739
H11 H 0.1154 0.9863 0.5412
C12 C 0.1576(6) 0.851(2) 0.7775(15)
H12 H 0.1610 0.7555 0.7962
H13 H 0.1335 0.8799 0.7881
H14 H 0.1779 0.9011 0.8340
Cd5 Cd 0.210247(11) 0.33177(4) 0.86660(4)
Cd6 Cd 0.289753(11) 0.83177(4) 0.63340(4)
N12 N 0.23355(16) 0.5344(5) 0.2322(5)
N14 N 0.24186(16) 0.8588(5) 0.3430(5)
N6 N 0.23620(14) 0.4317(5) 0.0555(4)
N7 N 0.1581(2) 0.1246(8) 0.1448(7)
C20 C 0.1748(3) 0.2077(11) 0.0835(10)
H19 H 0.1848 0.2886 0.1231
C21 C 0.22233(18) 0.5346(6) 0.1052(6)
N9 N 0.25814(16) 0.3588(5) 0.1570(5)
C22 C 0.25539(19) 0.4210(6) 0.2581(6)
H20 H 0.2672 0.3909 0.3398
N10 N 0.2000(2) 0.6348(6) 0.0361(6)
H22 H 0.1917 0.6996 0.0739
H25 H 0.1154 0.0137 0.0412
C24 C 0.1576(6) 0.149(2) 0.2775(15)
H26 H 0.1610 0.2445 0.2962
H27 H 0.1335 0.1201 0.2881
H28 H 0.1779 0.0989 0.3340
Cd4 Cd 0.289753(11) 0.16823(4) 0.13340(4)
O4 O 0.15334(14) 0.3027(6) 0.7034(5)
C13 C 0.0206(2) 0.4849(9) 0.5356(8)
C14 C 0.13757(19) 0.4057(8) 0.7350(7)
C15 C 0.0975(2) 0.4378(9) 0.6638(7)
C16 C 0.0415(2) 0.3881(10) 0.4949(8)
H15 H 0.0299 0.3375 0.4230
C17 C 0.0789(2) 0.3640(10) 0.5570(8)
H16 H 0.0921 0.2968 0.5272
C18 C 0.0771(3) 0.5333(14) 0.7054(10)
H17 H 0.0886 0.5831 0.7780
C19 C 0.0394(2) 0.5571(14) 0.6407(10)
H18 H 0.0263 0.6252 0.6697
O5 O 0.15402(15) 0.4771(7) 0.8235(6)
O6 O 0.1782(2) 0.1861(6) 0.9790(7)
H21 H 0.1942 0.6330 0.9547
N13 N 0.24186(16) 0.1412(5) 0.8430(5)
C4 C 0.5415(2) 0.1119(10) 0.9949(8)
H1 H 0.5299 0.1625 0.9230
C18_2 C 0.4229(3) 0.0333(14) 0.7946(10)
H17_2 H 0.4114 0.0831 0.7220
C19_2 C 0.4606(2) 0.0571(14) 0.8593(10)
H18_2 H 0.4737 0.1252 0.8303
C21_2 C 0.27767(18) 0.0346(6) 0.3948(6)
N8 N 0.26645(16) 0.0344(5) 0.2678(5)
N10_2 N 0.3000(2) 0.1348(6) 0.4639(6)
H21_2 H 0.3058 0.1330 0.5453
H22_2 H 0.3083 0.1996 0.4261
O4_2 O 0.34666(14) 0.8027(6) 0.7966(5)
C13_2 C 0.4794(2) 0.9849(9) 0.9644(8)
C14_2 C 0.36243(19) 0.9057(8) 0.7650(7)
C15_2 C 0.4025(2) 0.9378(9) 0.8362(7)
C17_2 C 0.4211(2) 0.8640(10) 0.9430(8)
H16_2 H 0.4079 0.7968 0.9728
O5_2 O 0.34598(15) 0.9771(7) 0.6765(6)
O6_2 O 0.3218(2) 0.6861(6) 0.5210(7)
N6_2 N 0.26380(14) 0.9317(5) 0.4445(4)
N7_2 N 0.3419(2) 0.6246(8) 0.3552(7)
C20_2 C 0.3252(3) 0.7077(11) 0.4165(10)
H19_2 H 0.3152 0.7886 0.3769
C22_2 C 0.24461(19) 0.9210(6) 0.2419(6)
H20_2 H 0.2328 0.8909 0.1602
C23 C 0.3588(5) 0.4980(13) 0.4086(15)
H23 H 0.3442 0.4603 0.4611
H24 H 0.3588 0.4354 0.3417
H25_2 H 0.3846 0.5137 0.4588
C24_2 C 0.3424(6) 0.649(2) 0.2225(15)
H26_2 H 0.3390 0.7445 0.2038
H27_2 H 0.3665 0.6201 0.2119
H28_2 H 0.3221 0.5989 0.1660
N11 N 0.26645(16) 0.9656(5) 0.7678(5)
O1_2 O 0.34666(14) 0.1973(6) 0.2966(5)
C1_2 C 0.4794(2) 0.0151(9) 0.4644(8)
C2_2 C 0.36243(19) 0.0943(8) 0.2650(7)
C3_2 C 0.4025(2) 0.0622(9) 0.3362(7)
C4_2 C 0.4585(2) 0.1119(10) 0.5051(8)
H1_2 H 0.4701 0.1625 0.5770
C5_2 C 0.4211(2) 0.1360(10) 0.4430(8)
H2_2 H 0.4079 0.2032 0.4728
O2_2 O 0.3218(2) 0.3139(6) 0.0210(7)
O3_2 O 0.34598(15) 0.0229(7) 0.1765(6)
C18_3 C 0.5771(3) 0.0333(14) 0.7054(10)
H17_3 H 0.5886 0.0831 0.7780
C19_3 C 0.5394(2) 0.0571(14) 0.6407(10)
H18_3 H 0.5263 0.1252 0.6697
H21_3 H 0.6942 0.1330 0.9547
N1_2 N 0.26380(14) 0.0683(5) 0.9445(4)
N2_2 N 0.3419(2) 0.3754(8) 0.8552(7)
C8_2 C 0.3252(3) 0.2923(11) 0.9165(10)
H5_2 H 0.3152 0.2114 0.8769
C10_2 C 0.24461(19) 0.0790(6) 0.7419(6)
H6_2 H 0.2328 0.1091 0.6602
C11_2 C 0.3588(5) 0.5020(13) 0.9086(15)
H9_2 H 0.3442 0.5397 0.9611
H10_2 H 0.3588 0.5646 0.8417
H11_2 H 0.3846 0.4863 0.9588
C12_2 C 0.3424(6) 0.351(2) 0.7225(15)
H12_2 H 0.3390 0.2555 0.7038
H13_2 H 0.3665 0.3799 0.7119
H14_2 H 0.3221 0.4011 0.6660
C9_2 C 0.27767(18) 0.9654(6) 0.8948(6)
N5_2 N 0.3000(2) 0.8652(6) 0.9639(6)
H8_2 H 0.3083 0.8004 0.9261
C4_3 C 0.0415(2) 0.6119(10) 0.9949(8)
H1_3 H 0.0299 0.6625 0.9230
C16_2 C 0.9585(2) 0.3881(10) 0.0051(8)
H15_2 H 0.9701 0.3375 0.0770
O4_3 O 0.84666(14) 0.3027(6) 0.7966(5)
C13_3 C 0.9794(2) 0.4849(9) 0.9644(8)
C14_3 C 0.86243(19) 0.4057(8) 0.7650(7)
C15_3 C 0.9025(2) 0.4378(9) 0.8362(7)
C17_3 C 0.9211(2) 0.3640(10) 0.9430(8)
H16_3 H 0.9079 0.2968 0.9728
C18_4 C 0.9229(3) 0.5333(14) 0.7946(10)
H17_4 H 0.9114 0.5831 0.7220
C19_4 C 0.9606(2) 0.5571(14) 0.8593(10)
H18_4 H 0.9737 0.6252 0.8303
O5_3 O 0.84598(15) 0.4771(7) 0.6765(6)
Cd2 Cd 0.789753(11) 0.33177(4) 0.63340(4)
O6_3 O 0.8218(2) 0.1861(6) 0.5210(7)
N6_3 N 0.76380(14) 0.4317(5) 0.4445(4)
N7_3 N 0.8419(2) 0.1246(8) 0.3552(7)
C20_3 C 0.8252(3) 0.2077(11) 0.4165(10)
H19_3 H 0.8152 0.2886 0.3769
C21_3 C 0.77767(18) 0.5346(6) 0.3948(6)
N8_2 N 0.76645(16) 0.5344(5) 0.2678(5)
N9_2 N 0.74186(16) 0.3588(5) 0.3430(5)
C22_3 C 0.74461(19) 0.4210(6) 0.2419(6)
H20_3 H 0.7328 0.3909 0.1602
N10_3 N 0.8000(2) 0.6348(6) 0.4639(6)
H21_4 H 0.8058 0.6330 0.5453
H22_3 H 0.8083 0.6996 0.4261
H25_3 H 0.8846 0.0137 0.4588
C24_3 C 0.8424(6) 0.149(2) 0.2225(15)
H26_3 H 0.8390 0.2445 0.2038
H27_3 H 0.8665 0.1201 0.2119
H28_3 H 0.8221 0.0989 0.1660
Cd3 Cd 0.789753(11) 0.66823(4) 0.13340(4)
Cd4_2 Cd 0.710247(11) 0.16823(4) 0.36660(4)
N11_2 N 0.76645(16) 0.4656(5) 0.7678(5)
N13_2 N 0.75814(16) 0.1412(5) 0.6570(5)
O1_3 O 0.84666(14) 0.6973(6) 0.2966(5)
C1_3 C 0.9794(2) 0.5151(9) 0.4644(8)
C2_3 C 0.86243(19) 0.5943(8) 0.2650(7)
C3_3 C 0.9025(2) 0.5622(9) 0.3362(7)
C4_4 C 0.9585(2) 0.6119(10) 0.5051(8)
H1_4 H 0.9701 0.6625 0.5770
C5_3 C 0.9211(2) 0.6360(10) 0.4430(8)
H2_3 H 0.9079 0.7032 0.4728
C6_2 C 0.9229(3) 0.4667(14) 0.2946(10)
H3_2 H 0.9114 0.4169 0.2220
O2_3 O 0.8218(2) 0.8139(6) 0.0210(7)
C7_2 C 0.9606(2) 0.4429(14) 0.3593(10)
H4_2 H 0.9737 0.3748 0.3303
O3_3 O 0.84598(15) 0.5229(7) 0.1765(6)
H7_2 H 0.8058 0.3670 0.0453
N14_2 N 0.75814(16) 0.8588(5) 0.1570(5)
N1_3 N 0.76380(14) 0.5683(5) 0.9445(4)
N2_3 N 0.8419(2) 0.8754(8) 0.8552(7)
C8_3 C 0.8252(3) 0.7923(11) 0.9165(10)
H5_3 H 0.8152 0.7114 0.8769
C9_3 C 0.77767(18) 0.4654(6) 0.8948(6)
N4_2 N 0.74186(16) 0.6412(5) 0.8430(5)
C10_3 C 0.74461(19) 0.5790(6) 0.7419(6)
H6_3 H 0.7328 0.6091 0.6602
N5_3 N 0.8000(2) 0.3652(6) 0.9639(6)
H8_3 H 0.8083 0.3004 0.9261
H11_3 H 0.8846 0.9863 0.9588
C12_3 C 0.8424(6) 0.851(2) 0.7225(15)
H12_3 H 0.8390 0.7555 0.7038
H13_3 H 0.8665 0.8799 0.7119
H14_3 H 0.8221 0.9011 0.6660
Cd6_2 Cd 0.710247(11) 0.83177(4) 0.86660(4)
O1_4 O 0.65334(14) 0.1973(6) 0.2034(5)
C1_4 C 0.5206(2) 0.0151(9) 0.0356(8)
C2_4 C 0.63757(19) 0.0943(8) 0.2350(7)
C3_4 C 0.5975(2) 0.0622(9) 0.1638(7)
C5_4 C 0.5789(2) 0.1360(10) 0.0570(8)
H2_4 H 0.5921 0.2032 0.0272
O2_4 O 0.6782(2) 0.3139(6) 0.4790(7)
N1_4 N 0.73620(14) 0.0683(5) 0.5555(4)
N2_4 N 0.6581(2) 0.3754(8) 0.6448(7)
C8_4 C 0.6748(3) 0.2923(11) 0.5835(10)
H5_4 H 0.6848 0.2114 0.6231
O3_4 O 0.65402(15) 0.0229(7) 0.3235(6)
C10_4 C 0.75539(19) 0.0790(6) 0.7581(6)
H6_4 H 0.7672 0.1091 0.8398
C11_3 C 0.6412(5) 0.5020(13) 0.5914(15)
H9_3 H 0.6558 0.5397 0.5389
H10_3 H 0.6412 0.5646 0.6583
H11_4 H 0.6154 0.4863 0.5412
C12_4 C 0.6576(6) 0.351(2) 0.7775(15)
H12_4 H 0.6610 0.2555 0.7962
H13_4 H 0.6335 0.3799 0.7881
H14_4 H 0.6779 0.4011 0.8340
N12_2 N 0.73355(16) 0.0344(5) 0.2322(5)
C6_3 C 0.5771(3) 0.9667(14) 0.2054(10)
H3_3 H 0.5886 0.9169 0.2780
C7_3 C 0.5394(2) 0.9429(14) 0.1407(10)
H4_3 H 0.5263 0.8748 0.1697
C9_4 C 0.72233(18) 0.9654(6) 0.6052(6)
N3_2 N 0.73355(16) 0.9656(5) 0.7322(5)
N5_4 N 0.7000(2) 0.8652(6) 0.5361(6)
H7_3 H 0.6942 0.8670 0.4547
H8_4 H 0.6917 0.8004 0.5739
C16_3 C 0.4585(2) 0.8881(10) 0.0051(8)
H15_3 H 0.4701 0.8375 0.0770
C21_4 C 0.72233(18) 0.0346(6) 0.1052(6)
N10_4 N 0.7000(2) 0.1348(6) 0.0361(6)
H22_4 H 0.6917 0.1996 0.0739
N6_4 N 0.73620(14) 0.9317(5) 0.0555(4)
N7_4 N 0.6581(2) 0.6246(8) 0.1448(7)
C20_4 C 0.6748(3) 0.7077(11) 0.0835(10)
H19_4 H 0.6848 0.7886 0.1231
C22_4 C 0.75539(19) 0.9210(6) 0.2581(6)
H20_4 H 0.7672 0.8909 0.3398
C23_2 C 0.6412(5) 0.4980(13) 0.0914(15)
H23_2 H 0.6558 0.4603 0.0389
H24_2 H 0.6412 0.4354 0.1583
H25_4 H 0.6154 0.5137 0.0412
C24_4 C 0.6576(6) 0.649(2) 0.2775(15)
H26_4 H 0.6610 0.7445 0.2962
H27_4 H 0.6335 0.6201 0.2881
H28_4 H 0.6779 0.5989 0.3340
C6_4 C 0.4229(3) 0.9667(14) 0.2946(10)
H3_4 H 0.4114 0.9169 0.2220
C7_4 C 0.4606(2) 0.9429(14) 0.3593(10)
H4_4 H 0.4737 0.8748 0.3303
H7_4 H 0.3058 0.8670 0.0453
O4_4 O 0.65334(14) 0.8027(6) 0.7034(5)
C13_4 C 0.5206(2) 0.9849(9) 0.5356(8)
C14_4 C 0.63757(19) 0.9057(8) 0.7350(7)
C15_4 C 0.5975(2) 0.9378(9) 0.6638(7)
C16_4 C 0.5415(2) 0.8881(10) 0.4949(8)
H15_4 H 0.5299 0.8375 0.4230
C17_4 C 0.5789(2) 0.8640(10) 0.5570(8)
H16_4 H 0.5921 0.7968 0.5272
O5_4 O 0.65402(15) 0.9771(7) 0.8235(6)
O6_4 O 0.6782(2) 0.6861(6) 0.9790(7)
C23_3 C 0.8588(5) 0.9980(13) 0.4086(15)
H23_3 H 0.8442 0.9603 0.4611
H24_3 H 0.8588 0.9354 0.3417
C23_4 C 0.1412(5) 0.9980(13) 0.0914(15)
H23_4 H 0.1558 0.9603 0.0389
H24_4 H 0.1412 0.9354 0.1583
C11_4 C 0.8588(5) 0.0020(13) 0.9086(15)
H9_4 H 0.8442 0.0397 0.9611
H10_4 H 0.8588 0.0646 0.8417
loop_
_geom_bond_atom_site_label_1
_geom_bond_atom_site_label_2
_geom_bond_site_symmetry_1
_geom_bond_site_symmetry_2
H9 C11 1_555 1_555
H10 C11 1_555 1_555
Cd1 O1 1_555 1_555
O1 C2 1_555 1_555
C2 C3 1_555 1_555
C3 C5 1_555 1_555
H2 C5 1_555 1_555
C6 C3 1_555 1_555
H3 C6 1_555 1_555
O2 Cd1 1_555 1_555
N1 Cd1 1_555 1_555
C7 C1 1_555 1_555
H4 C7 1_555 1_555
N2 C8 1_555 1_555
C8 O2 1_555 1_555
H5 C8 1_555 1_555
C9 N1 1_555 1_555
O3 Cd1 1_555 1_555
N3 C9 1_555 1_555
N4 N1 1_555 1_555
C10 N3 1_555 1_555
H6 C10 1_555 1_555
N5 C9 1_555 1_555
H7 N5 1_555 1_555
H8 N5 1_555 1_555
C12 N2 1_555 1_555
H12 C12 1_555 1_555
H13 C12 1_555 1_555
H14 C12 1_555 1_555
Cd5 N3 1_555 1_555
Cd6 N4 1_555 1_555
N12 Cd1 1_555 1_555
N14 Cd1 1_555 1_555
C2 O3 1_555 1_555
C6 C7 1_555 1_555
N4 C10 1_555 1_555
N7 C20 1_555 1_555
H19 C20 1_555 1_555
C21 N6 1_555 1_555
N12 C21 1_555 1_555
N9 N6 1_555 1_555
C22 N12 1_555 1_555
H20 C22 1_555 1_555
N10 C21 1_555 1_555
H22 N10 1_555 1_555
C24 N7 1_555 1_555
H26 C24 1_555 1_555
H27 C24 1_555 1_555
H28 C24 1_555 1_555
Cd4 N9 1_555 1_555
N9 C22 1_555 1_555
O4 C14 1_555 1_555
C14 C15 1_555 1_555
C15 C17 1_555 1_555
C16 C13 1_555 1_555
H15 C16 1_555 1_555
C17 C16 1_555 1_555
H16 C17 1_555 1_555
C18 C15 1_555 1_555
H17 C18 1_555 1_555
C19 C13 1_555 1_555
H18 C19 1_555 1_555
O5 C14 1_555 1_555
Cd5 O4 1_555 1_555
O6 Cd5 1_555 1_555
N13 Cd5 1_555 1_555
C18 C19 1_555 1_555
O5 Cd5 1_555 1_555
C4 H1 1_555 1_555
H17_2 C18_2 1_555 1_555
H18_2 C19_2 1_555 1_555
N8 C21_2 1_555 1_555
N10_2 C21_2 1_555 1_555
H21_2 N10_2 1_555 1_555
H22_2 N10_2 1_555 1_555
Cd4 N8 1_555 1_555
C18_2 C19_2 1_555 1_555
O4_2 C14_2 1_555 1_555
C14_2 C15_2 1_555 1_555
C15_2 C17_2 1_555 1_555
H16_2 C17_2 1_555 1_555
O5_2 C14_2 1_555 1_555
Cd6 O4_2 1_555 1_555
O6_2 Cd6 1_555 1_555
N6_2 Cd6 1_555 1_555
N7_2 C20_2 1_555 1_555
C20_2 O6_2 1_555 1_555
H19_2 C20_2 1_555 1_555
N14 N6_2 1_555 1_555
H20_2 C22_2 1_555 1_555
C23 N7_2 1_555 1_555
H23 C23 1_555 1_555
H24 C23 1_555 1_555
H25_2 C23 1_555 1_555
C24_2 N7_2 1_555 1_555
H26_2 C24_2 1_555 1_555
H27_2 C24_2 1_555 1_555
H28_2 C24_2 1_555 1_555
N11 Cd6 1_555 1_555
O5_2 Cd6 1_555 1_555
N14 C22_2 1_555 1_555
Cd4 O1_2 1_555 1_555
O1_2 C2_2 1_555 1_555
C1_2 C4_2 1_555 1_555
C2_2 C3_2 1_555 1_555
C3_2 C5_2 1_555 1_555
C4_2 H1_2 1_555 1_555
C5_2 C4_2 1_555 1_555
H2_2 C5_2 1_555 1_555
O2_2 Cd4 1_555 1_555
O3_2 Cd4 1_555 1_555
H17_3 C18_3 1_555 1_555
H18_3 C19_3 1_555 1_555
C2_2 O3_2 1_555 1_555
C18_3 C19_3 1_555 1_555
N2_2 C8_2 1_555 1_555
H5_2 C8_2 1_555 1_555
N13 N1_2 1_555 1_555
H6_2 C10_2 1_555 1_555
C11_2 N2_2 1_555 1_555
H9_2 C11_2 1_555 1_555
H10_2 C11_2 1_555 1_555
H11_2 C11_2 1_555 1_555
C12_2 N2_2 1_555 1_555
H12_2 C12_2 1_555 1_555
H13_2 C12_2 1_555 1_555
H14_2 C12_2 1_555 1_555
N13 C10_2 1_555 1_555
N11 C9_2 1_555 1_555
N5_2 C9_2 1_555 1_555
H8_2 N5_2 1_555 1_555
C4_3 H1_3 1_555 1_555
H15_2 C16_2 1_555 1_555
O4_3 C14_3 1_555 1_555
C14_3 C15_3 1_555 1_555
C15_3 C17_3 1_555 1_555
H16_3 C17_3 1_555 1_555
C18_4 C15_3 1_555 1_555
H17_4 C18_4 1_555 1_555
C19_4 C13_3 1_555 1_555
H18_4 C19_4 1_555 1_555
O5_3 C14_3 1_555 1_555
Cd2 O4_3 1_555 1_555
O6_3 Cd2 1_555 1_555
N6_3 Cd2 1_555 1_555
N7_3 C20_3 1_555 1_555
C20_3 O6_3 1_555 1_555
H19_3 C20_3 1_555 1_555
C21_3 N6_3 1_555 1_555
N8_2 C21_3 1_555 1_555
N9_2 N6_3 1_555 1_555
C22_3 N8_2 1_555 1_555
H20_3 C22_3 1_555 1_555
N10_3 C21_3 1_555 1_555
H21_4 N10_3 1_555 1_555
H22_3 N10_3 1_555 1_555
C24_3 N7_3 1_555 1_555
H26_3 C24_3 1_555 1_555
H27_3 C24_3 1_555 1_555
H28_3 C24_3 1_555 1_555
Cd3 N8_2 1_555 1_555
Cd4_2 N9_2 1_555 1_555
N11_2 Cd2 1_555 1_555
N13_2 Cd2 1_555 1_555
C18_4 C19_4 1_555 1_555
O5_3 Cd2 1_555 1_555
N9_2 C22_3 1_555 1_555
Cd3 O1_3 1_555 1_555
O1_3 C2_3 1_555 1_555
C1_3 C4_4 1_555 1_555
C2_3 C3_3 1_555 1_555
C3_3 C5_3 1_555 1_555
C4_4 H1_4 1_555 1_555
C5_3 C4_4 1_555 1_555
H2_3 C5_3 1_555 1_555
C6_2 C3_3 1_555 1_555
H3_2 C6_2 1_555 1_555
O2_3 Cd3 1_555 1_555
C7_2 C1_3 1_555 1_555
H4_2 C7_2 1_555 1_555
O3_3 Cd3 1_555 1_555
N14_2 Cd3 1_555 1_555
C2_3 O3_3 1_555 1_555
C6_2 C7_2 1_555 1_555
N2_3 C8_3 1_555 1_555
H5_3 C8_3 1_555 1_555
C9_3 N1_3 1_555 1_555
N11_2 C9_3 1_555 1_555
N4_2 N1_3 1_555 1_555
C10_3 N11_2 1_555 1_555
H6_3 C10_3 1_555 1_555
N5_3 C9_3 1_555 1_555
H8_3 N5_3 1_555 1_555
C12_3 N2_3 1_555 1_555
H12_3 C12_3 1_555 1_555
H13_3 C12_3 1_555 1_555
H14_3 C12_3 1_555 1_555
Cd6_2 N4_2 1_555 1_555
N4_2 C10_3 1_555 1_555
Cd4_2 O1_4 1_555 1_555
O1_4 C2_4 1_555 1_555
C2_4 C3_4 1_555 1_555
C3_4 C5_4 1_555 1_555
H2_4 C5_4 1_555 1_555
O2_4 Cd4_2 1_555 1_555
N1_4 Cd4_2 1_555 1_555
N2_4 C8_4 1_555 1_555
C8_4 O2_4 1_555 1_555
H5_4 C8_4 1_555 1_555
O3_4 Cd4_2 1_555 1_555
N13_2 N1_4 1_555 1_555
H6_4 C10_4 1_555 1_555
C11_3 N2_4 1_555 1_555
H9_3 C11_3 1_555 1_555
H10_3 C11_3 1_555 1_555
H11_4 C11_3 1_555 1_555
C12_4 N2_4 1_555 1_555
H12_4 C12_4 1_555 1_555
H13_4 C12_4 1_555 1_555
H14_4 C12_4 1_555 1_555
N12_2 Cd4_2 1_555 1_555
C2_4 O3_4 1_555 1_555
N13_2 C10_4 1_555 1_555
H3_3 C6_3 1_555 1_555
H4_3 C7_3 1_555 1_555
N3_2 C9_4 1_555 1_555
N5_4 C9_4 1_555 1_555
H7_3 N5_4 1_555 1_555
H8_4 N5_4 1_555 1_555
H15_3 C16_3 1_555 1_555
Cd6_2 N3_2 1_555 1_555
C6_3 C7_3 1_555 1_555
N12_2 C21_4 1_555 1_555
N10_4 C21_4 1_555 1_555
H22_4 N10_4 1_555 1_555
N7_4 C20_4 1_555 1_555
H19_4 C20_4 1_555 1_555
N14_2 N6_4 1_555 1_555
H20_4 C22_4 1_555 1_555
C23_2 N7_4 1_555 1_555
H23_2 C23_2 1_555 1_555
H24_2 C23_2 1_555 1_555
H25_4 C23_2 1_555 1_555
C24_4 N7_4 1_555 1_555
H26_4 C24_4 1_555 1_555
H27_4 C24_4 1_555 1_555
H28_4 C24_4 1_555 1_555
N14_2 C22_4 1_555 1_555
H3_4 C6_4 1_555 1_555
H4_4 C7_4 1_555 1_555
O4_4 C14_4 1_555 1_555
C14_4 C15_4 1_555 1_555
C15_4 C17_4 1_555 1_555
C16_4 C13_4 1_555 1_555
H15_4 C16_4 1_555 1_555
C17_4 C16_4 1_555 1_555
H16_4 C17_4 1_555 1_555
O5_4 C14_4 1_555 1_555
Cd6_2 O4_4 1_555 1_555
O6_4 Cd6_2 1_555 1_555
C6_4 C7_4 1_555 1_555
O5_4 Cd6_2 1_555 1_555
H23_3 C23_3 1_555 1_555
H24_3 C23_3 1_555 1_555
H23_4 C23_4 1_555 1_555
H24_4 C23_4 1_555 1_555
H9_4 C11_4 1_555 1_555
H10_4 C11_4 1_555 1_555

#END
