
###############################################################################
#
# This file contains modified crystal structure data generated from the
# MOF subset of the Cambridge Structural Database (CSD) v543 
# hosted by the Cambridge Crystallographic Data Centre (CCDC).
#
# This work is licensed under the Creative Commons
# Attribution-NonCommercial-ShareAlike 4.0 International License.
# To view a copy of this license, visit
# http://creativecommons.org/licenses/by-nc-sa/4.0/
# or send a letter to
# Creative Commons, PO Box 1866, Mountain View, CA 94042, USA.
#
# CIF created using the CSD Python API on 29 September 2022
# The structure has been converted into the P1 space group
# The structure has a 3D framework
# The original CSD entry XUDYOM is in the orthorhombic crystal system
# The framework has been calculated to contain at least 10.0% void space
# The void calculation uses a probe of radius 1.32A, grid spacing 0.4
# The framework is charged, counterions have been retained in the structure
# H atom positions have been added when not included in the experimental data
#
###############################################################################

data_XUDYOM
_chemical_formula_moiety         '(C96 H96 In16 N24 O112 2-)n'
_symmetry_cell_setting           triclinic
_symmetry_space_group_name_H-M   'P 1'
_symmetry_Int_Tables_number      1
_space_group_name_Hall           'P 1'
loop_
_symmetry_equiv_pos_site_id
_symmetry_equiv_pos_as_xyz
1 x,y,z
_cell_length_a                   9.3366(14)
_cell_length_b                   21.917(3)
_cell_length_c                   24.057(4)
_cell_angle_alpha                90
_cell_angle_beta                 90
_cell_angle_gamma                90
_cell_volume                     4922.79
loop_
_atom_site_label
_atom_site_type_symbol
_atom_site_fract_x
_atom_site_fract_y
_atom_site_fract_z
In1 In 0.15952(7) 0.10985(3) 0.02502(2)
O2 O 0.1756(7) 0.1959(2) 0.0798(2)
O3 O 0.0374(6) 0.2546(2) 0.1335(2)
O9 O 0.1844(6) 0.3240(2) 0.2743(2)
O10 O 0.1402(7) 0.2045(2) 0.2909(2)
N1 N 0.3681(8) 0.0983(3) 0.0644(3)
N2 N 0.5827(10) 0.1152(3) 0.0999(3)
C2 C 0.0652(11) 0.2070(4) 0.1060(4)
C4 C 0.0474(12) 0.2316(4) 0.2632(3)
C5 C 0.0732(11) 0.3010(4) 0.2519(3)
C8 C 0.4510(11) 0.0466(4) 0.0584(4)
H1 H 0.4213 0.0101 0.0424
C9 C 0.4541(12) 0.1379(4) 0.0896(4)
H2 H 0.4269 0.1774 0.0990
C10 C 0.5826(12) 0.0576(4) 0.0796(4)
H3 H 0.6593 0.0305 0.0802
O16 O 0.1452(6) 0.0112(2) 0.0443(2)
In8 In 0.32446(7) 0.26398(3) 0.32180(2)
H15 H 0.665118 0.136719 0.119203
O33 O 0.2945(6) 0.0992(2) 0.9495(2)
O35 O 0.1038(7) 0.1885(2) 0.9720(2)
O15 O 0.0078(6) 0.9293(2) 0.0331(2)
C11 C 0.0428(11) 0.9829(4) 0.0218(3)
In6 In 0.34048(7) 0.60985(3) 0.02502(2)
In4 In 0.17554(7) 0.73602(3) 0.82180(2)
O17 O 0.0343(6) 0.8875(2) 0.9233(2)
O20 O 0.1624(6) 0.8307(2) 0.8652(2)
O21 O 0.0653(7) 0.7904(2) 0.7574(2)
O22 O 0.0167(6) 0.6716(2) 0.7763(2)
O25 O 0.3364(6) 0.7347(2) 0.8922(2)
O26 O 0.1443(6) 0.6478(2) 0.8716(2)
O27 O 0.2055(6) 0.5992(2) 0.9495(2)
O28 O 0.3962(7) 0.6885(2) 0.9720(2)
C12 C 0.0554(11) 0.8411(4) 0.8942(3)
C16 C 0.3258(10) 0.6926(4) 0.9277(4)
C17 C 0.2155(10) 0.6419(4) 0.9153(4)
O29 O 0.3156(6) 0.6760(2) 0.7743(2)
O31 O 0.3598(7) 0.7955(2) 0.7909(2)
In2 In 0.82446(7) 0.26398(3) 0.17820(2)
O1 O 0.9657(6) 0.1125(2) 0.0767(2)
O4 O 0.8376(6) 0.1693(2) 0.1348(2)
O7 O 0.9347(7) 0.2096(2) 0.2426(2)
O8 O 0.9833(6) 0.3284(2) 0.2237(2)
O11 O 0.6636(6) 0.2653(2) 0.1078(2)
O12 O 0.8557(6) 0.3522(2) 0.1284(2)
O13 O 0.7945(6) 0.4008(2) 0.0505(2)
O14 O 0.6038(7) 0.3115(2) 0.0280(2)
C1 C 0.9446(11) 0.1589(4) 0.1058(3)
C6 C 0.6742(10) 0.3074(4) 0.0723(4)
C7 C 0.7845(10) 0.3581(4) 0.0847(4)
O30 O 0.6844(6) 0.3240(2) 0.2257(2)
O32 O 0.6402(7) 0.2045(2) 0.2091(2)
O6 O 0.9922(6) 0.0707(2) 0.9669(2)
C3 C 0.9572(11) 0.0171(4) 0.9782(3)
In5 In 0.65952(7) 0.39015(3) 0.97498(2)
O34 O 0.7055(6) 0.9008(2) 0.0505(2)
O36 O 0.8962(7) 0.8115(2) 0.0280(2)
O5 O 0.8548(6) 0.9888(2) 0.9557(2)
In3 In 0.84048(7) 0.89015(3) 0.97498(2)
O18 O 0.8244(7) 0.8041(2) 0.9202(2)
O19 O 0.9626(6) 0.7454(2) 0.8665(2)
O23 O 0.8156(6) 0.6760(2) 0.7257(2)
O24 O 0.8598(7) 0.7955(2) 0.7091(2)
N3 N 0.6319(8) 0.9017(3) 0.9356(3)
N4 N 0.4173(10) 0.8848(3) 0.9001(3)
C13 C 0.9348(11) 0.7930(4) 0.8940(4)
C14 C 0.9526(12) 0.7684(4) 0.7368(3)
C15 C 0.9268(11) 0.6990(4) 0.7481(3)
C18 C 0.5490(11) 0.9534(4) 0.9416(4)
H4 H 0.5787 0.9899 0.9576
C19 C 0.5459(12) 0.8621(4) 0.9104(4)
H5 H 0.5731 0.8226 0.9010
C20 C 0.4174(12) 0.9424(4) 0.9204(4)
H6 H 0.3407 0.9695 0.9198
In7 In 0.67554(7) 0.73602(3) 0.67820(2)
H16 H 0.334882 0.863281 0.880797
O5_2 O 0.6452(6) 0.0112(2) 0.4557(2)
O15_2 O 0.4922(6) 0.0707(2) 0.5331(2)
C11_2 C 0.4572(11) 0.0171(4) 0.5218(3)
In3_2 In 0.65952(7) 0.10985(3) 0.47498(2)
O17_2 O 0.4657(6) 0.1125(2) 0.4233(2)
O18_2 O 0.6756(7) 0.1959(2) 0.4202(2)
O19_2 O 0.5374(6) 0.2546(2) 0.3665(2)
O20_2 O 0.3376(6) 0.1693(2) 0.3652(2)
O21_2 O 0.4347(7) 0.2096(2) 0.2574(2)
O22_2 O 0.4833(6) 0.3284(2) 0.2763(2)
O25_2 O 0.1636(6) 0.2653(2) 0.3922(2)
O26_2 O 0.3557(6) 0.3522(2) 0.3716(2)
O27_2 O 0.2945(6) 0.4008(2) 0.4495(2)
O28_2 O 0.1038(7) 0.3115(2) 0.4720(2)
N3_2 N 0.8681(8) 0.0983(3) 0.4356(3)
C12_2 C 0.4446(11) 0.1589(4) 0.3942(3)
C13_2 C 0.5652(11) 0.2070(4) 0.3940(4)
C14_2 C 0.5474(12) 0.2316(4) 0.2368(3)
C15_2 C 0.5732(11) 0.3010(4) 0.2481(3)
C16_2 C 0.1742(10) 0.3074(4) 0.4277(4)
C17_2 C 0.2845(10) 0.3581(4) 0.4153(4)
C18_2 C 0.9510(11) 0.0466(4) 0.4416(4)
H4_2 H 0.9213 0.0101 0.4576
C19_2 C 0.9541(12) 0.1379(4) 0.4104(4)
H5_2 H 0.9269 0.1774 0.4010
In6_2 In 0.15952(7) 0.39015(3) 0.52502(2)
O34_2 O 0.7945(6) 0.0992(2) 0.5505(2)
O36_2 O 0.6038(7) 0.1885(2) 0.5280(2)
In1_2 In 0.34048(7) 0.89015(3) 0.52502(2)
O1_2 O 0.5343(6) 0.8875(2) 0.5767(2)
O2_2 O 0.3244(7) 0.8041(2) 0.5798(2)
O3_2 O 0.4626(6) 0.7454(2) 0.6335(2)
O4_2 O 0.6624(6) 0.8307(2) 0.6348(2)
O6_2 O 0.5078(6) 0.9293(2) 0.4669(2)
O7_2 O 0.5653(7) 0.7904(2) 0.7426(2)
O8_2 O 0.5167(6) 0.6716(2) 0.7237(2)
O11_2 O 0.8364(6) 0.7347(2) 0.6078(2)
O12_2 O 0.6443(6) 0.6478(2) 0.6284(2)
O13_2 O 0.7055(6) 0.5992(2) 0.5505(2)
O14_2 O 0.8962(7) 0.6885(2) 0.5280(2)
N1_2 N 0.1319(8) 0.9017(3) 0.5644(3)
C1_2 C 0.5554(11) 0.8411(4) 0.6058(3)
C2_2 C 0.4348(11) 0.7930(4) 0.6060(4)
C3_2 C 0.5428(11) 0.9829(4) 0.4782(3)
C4_2 C 0.4526(12) 0.7684(4) 0.7632(3)
C5_2 C 0.4268(11) 0.6990(4) 0.7519(3)
C6_2 C 0.8258(10) 0.6926(4) 0.5723(4)
C7_2 C 0.7155(10) 0.6419(4) 0.5847(4)
C8_2 C 0.0490(11) 0.9534(4) 0.5584(4)
H1_2 H 0.0787 0.9899 0.5424
C9_2 C 0.0459(12) 0.8621(4) 0.5896(4)
H2_2 H 0.0731 0.8226 0.5990
O16_2 O 0.3548(6) 0.9888(2) 0.5443(2)
In5_2 In 0.84048(7) 0.60985(3) 0.47498(2)
O33_2 O 0.2055(6) 0.9008(2) 0.4495(2)
O35_2 O 0.3962(7) 0.8115(2) 0.4720(2)
O5_3 O 0.3548(6) 0.5112(2) 0.0443(2)
O6_3 O 0.4922(6) 0.4293(2) 0.0331(2)
C3_3 C 0.4572(11) 0.4829(4) 0.0218(3)
In4_2 In 0.67554(7) 0.76398(3) 0.17820(2)
O17_3 O 0.5343(6) 0.6125(2) 0.0767(2)
O18_3 O 0.3244(7) 0.6959(2) 0.0798(2)
O19_3 O 0.4626(6) 0.7546(2) 0.1335(2)
O20_3 O 0.6624(6) 0.6693(2) 0.1348(2)
O21_3 O 0.5653(7) 0.7096(2) 0.2426(2)
O22_3 O 0.5167(6) 0.8284(2) 0.2237(2)
O23_2 O 0.3156(6) 0.8240(2) 0.2743(2)
O24_2 O 0.3598(7) 0.7045(2) 0.2909(2)
O25_3 O 0.8364(6) 0.7653(2) 0.1078(2)
O26_3 O 0.6443(6) 0.8522(2) 0.1284(2)
N3_3 N 0.1319(8) 0.5983(3) 0.0644(3)
C12_3 C 0.5554(11) 0.6589(4) 0.1058(3)
C13_3 C 0.4348(11) 0.7070(4) 0.1060(4)
C14_3 C 0.4526(12) 0.7316(4) 0.2632(3)
C15_3 C 0.4268(11) 0.8010(4) 0.2519(3)
C16_3 C 0.8258(10) 0.8074(4) 0.0723(4)
C17_3 C 0.7155(10) 0.8581(4) 0.0847(4)
C18_3 C 0.0490(11) 0.5466(4) 0.0584(4)
H4_3 H 0.0787 0.5101 0.0424
C19_3 C 0.0459(12) 0.6379(4) 0.0896(4)
H5_3 H 0.0731 0.6774 0.0990
In7_2 In 0.17554(7) 0.76398(3) 0.32180(2)
O29_2 O 0.8156(6) 0.8240(2) 0.2257(2)
O31_2 O 0.8598(7) 0.7045(2) 0.2091(2)
In2_2 In 0.32446(7) 0.23602(3) 0.82180(2)
O1_3 O 0.4657(6) 0.3875(2) 0.9233(2)
O2_3 O 0.6756(7) 0.3041(2) 0.9202(2)
O3_3 O 0.5374(6) 0.2454(2) 0.8665(2)
O4_3 O 0.3376(6) 0.3307(2) 0.8652(2)
O7_3 O 0.4347(7) 0.2904(2) 0.7574(2)
O8_3 O 0.4833(6) 0.1716(2) 0.7763(2)
O9_2 O 0.6844(6) 0.1760(2) 0.7257(2)
O10_2 O 0.6402(7) 0.2955(2) 0.7091(2)
O11_3 O 0.1636(6) 0.2347(2) 0.8922(2)
O12_3 O 0.3557(6) 0.1478(2) 0.8716(2)
N1_3 N 0.8681(8) 0.4017(3) 0.9356(3)
C1_3 C 0.4446(11) 0.3411(4) 0.8942(3)
C2_3 C 0.5652(11) 0.2930(4) 0.8940(4)
C4_3 C 0.5474(12) 0.2684(4) 0.7368(3)
C5_3 C 0.5732(11) 0.1990(4) 0.7481(3)
C6_3 C 0.1742(10) 0.1926(4) 0.9277(4)
C7_3 C 0.2845(10) 0.1419(4) 0.9153(4)
C8_3 C 0.9510(11) 0.4534(4) 0.9416(4)
H1_3 H 0.9213 0.4899 0.9576
C9_3 C 0.9541(12) 0.3621(4) 0.9104(4)
H2_3 H 0.9269 0.3226 0.9010
O15_3 O 0.5078(6) 0.5707(2) 0.9669(2)
C11_3 C 0.5428(11) 0.5171(4) 0.9782(3)
O16_3 O 0.6452(6) 0.4888(2) 0.9557(2)
In8_2 In 0.82446(7) 0.23602(3) 0.67820(2)
O30_2 O 0.1844(6) 0.1760(2) 0.7743(2)
O32_2 O 0.1402(7) 0.2955(2) 0.7909(2)
O1_4 O 0.0343(6) 0.6125(2) 0.4233(2)
O4_4 O 0.1624(6) 0.6693(2) 0.3652(2)
O5_4 O 0.1452(6) 0.4888(2) 0.5443(2)
O6_4 O 0.0078(6) 0.5707(2) 0.5331(2)
O7_4 O 0.0653(7) 0.7096(2) 0.2574(2)
O8_4 O 0.0167(6) 0.8284(2) 0.2763(2)
O11_4 O 0.3364(6) 0.7653(2) 0.3922(2)
O12_4 O 0.1443(6) 0.8522(2) 0.3716(2)
C1_4 C 0.0554(11) 0.6589(4) 0.3942(3)
C3_4 C 0.0428(11) 0.5171(4) 0.5218(3)
C6_4 C 0.3258(10) 0.8074(4) 0.4277(4)
C7_4 C 0.2155(10) 0.8581(4) 0.4153(4)
O18_4 O 0.1756(7) 0.3041(2) 0.5798(2)
O19_4 O 0.0374(6) 0.2454(2) 0.6335(2)
N3_4 N 0.3681(8) 0.4017(3) 0.5644(3)
N4_2 N 0.5827(10) 0.3848(3) 0.5999(3)
C13_4 C 0.0652(11) 0.2930(4) 0.6060(4)
C14_4 C 0.0474(12) 0.2684(4) 0.7632(3)
C15_4 C 0.0732(11) 0.1990(4) 0.7519(3)
C18_4 C 0.4510(11) 0.4534(4) 0.5584(4)
H4_4 H 0.4213 0.4899 0.5424
C19_4 C 0.4541(12) 0.3621(4) 0.5896(4)
H5_4 H 0.4269 0.3226 0.5990
C20_2 C 0.5826(12) 0.4424(4) 0.5796(4)
H6_2 H 0.6593 0.4695 0.5802
H16_2 H 0.665118 0.363281 0.619203
O2_4 O 0.8244(7) 0.6959(2) 0.4202(2)
O3_4 O 0.9626(6) 0.7546(2) 0.3665(2)
N1_4 N 0.6319(8) 0.5983(3) 0.4356(3)
N2_2 N 0.4173(10) 0.6152(3) 0.4001(3)
C2_4 C 0.9348(11) 0.7070(4) 0.3940(4)
C4_4 C 0.9526(12) 0.7316(4) 0.2368(3)
C5_4 C 0.9268(11) 0.8010(4) 0.2481(3)
C8_4 C 0.5490(11) 0.5466(4) 0.4416(4)
H1_4 H 0.5787 0.5101 0.4576
C9_4 C 0.5459(12) 0.6379(4) 0.4104(4)
H2_4 H 0.5731 0.6774 0.4010
C10_2 C 0.4174(12) 0.5576(4) 0.4204(4)
H3_2 H 0.3407 0.5305 0.4198
O15_4 O 0.9922(6) 0.4293(2) 0.4669(2)
C11_4 C 0.9572(11) 0.4829(4) 0.4782(3)
O16_4 O 0.8548(6) 0.5112(2) 0.4557(2)
O17_4 O 0.9657(6) 0.3875(2) 0.5767(2)
O20_4 O 0.8376(6) 0.3307(2) 0.6348(2)
O21_4 O 0.9347(7) 0.2904(2) 0.7426(2)
O22_4 O 0.9833(6) 0.1716(2) 0.7237(2)
O25_4 O 0.6636(6) 0.2347(2) 0.6078(2)
O26_4 O 0.8557(6) 0.1478(2) 0.6284(2)
C12_4 C 0.9446(11) 0.3411(4) 0.6058(3)
C16_4 C 0.6742(10) 0.1926(4) 0.5723(4)
C17_4 C 0.7845(10) 0.1419(4) 0.5847(4)
H15_2 H 0.334882 0.636719 0.380797
N4_3 N 0.0827(10) 0.1152(3) 0.4001(3)
C20_3 C 0.0826(12) 0.0576(4) 0.4204(4)
H6_3 H 0.1593 0.0305 0.4198
H16_3 H 0.165118 0.136719 0.380797
N2_3 N 0.9173(10) 0.8848(3) 0.5999(3)
C10_3 C 0.9174(12) 0.9424(4) 0.5796(4)
H3_3 H 0.8407 0.9695 0.5802
H15_3 H 0.834882 0.863281 0.619203
N2_4 N 0.0827(10) 0.3848(3) 0.9001(3)
C10_4 C 0.0826(12) 0.4424(4) 0.9204(4)
H3_4 H 0.1593 0.4695 0.9198
H15_4 H 0.165118 0.363281 0.880797
N4_4 N 0.9173(10) 0.6152(3) 0.0999(3)
C20_4 C 0.9174(12) 0.5576(4) 0.0796(4)
H6_4 H 0.8407 0.5305 0.0802
H16_4 H 0.834882 0.636719 0.119203
N5 N 0.1829(9) 0.3707(3) 0.1172(3)
H7 H 0.1795 0.4097 0.1290
H8 H 0.1101 0.3505 0.1334
C21 C 0.1629(11) 0.3694(5) 0.0552(4)
H9 H 0.2414 0.3901 0.0376
H10 H 0.0748 0.3894 0.0457
H11 H 0.1597 0.3278 0.0427
C22 C 0.3203(11) 0.3431(5) 0.1352(4)
H12 H 0.3249 0.3016 0.1225
H13 H 0.3263 0.3440 0.1750
H14 H 0.3985 0.3658 0.1196
N5_2 N 0.3171(9) 0.6293(3) 0.6172(3)
H7_2 H 0.3205 0.5903 0.6290
H8_2 H 0.3899 0.6495 0.6334
C21_2 C 0.3371(11) 0.6306(5) 0.5552(4)
H9_2 H 0.2586 0.6099 0.5376
H10_2 H 0.4252 0.6106 0.5457
H11_2 H 0.3403 0.6722 0.5427
C22_2 C 0.1797(11) 0.6569(5) 0.6352(4)
H12_2 H 0.1751 0.6984 0.6225
H13_2 H 0.1737 0.6560 0.6750
H14_2 H 0.1015 0.6342 0.6196
N5_3 N 0.6829(9) 0.1293(3) 0.8828(3)
H7_3 H 0.6795 0.0903 0.8710
H8_3 H 0.6101 0.1495 0.8666
C21_3 C 0.6629(11) 0.1306(5) 0.9448(4)
H9_3 H 0.7414 0.1099 0.9624
H10_3 H 0.5748 0.1106 0.9543
H11_3 H 0.6597 0.1722 0.9573
C22_3 C 0.8203(11) 0.1569(5) 0.8648(4)
H12_3 H 0.8249 0.1984 0.8775
H13_3 H 0.8263 0.1560 0.8250
H14_3 H 0.8985 0.1342 0.8804
N5_4 N 0.8171(9) 0.8707(3) 0.3828(3)
H7_4 H 0.8205 0.9097 0.3710
H8_4 H 0.8899 0.8505 0.3666
C21_4 C 0.8371(11) 0.8694(5) 0.4448(4)
H9_4 H 0.7586 0.8901 0.4624
H10_4 H 0.9252 0.8894 0.4543
H11_4 H 0.8403 0.8278 0.4573
C22_4 C 0.6797(11) 0.8431(5) 0.3648(4)
H12_4 H 0.6751 0.8016 0.3775
H13_4 H 0.6737 0.8440 0.3250
H14_4 H 0.6015 0.8658 0.3804
N5_5 N 0.8171(9) 0.6293(3) 0.8828(3)
H7_5 H 0.8205 0.5903 0.8710
H8_5 H 0.8899 0.6495 0.8666
C21_5 C 0.8371(11) 0.6306(5) 0.9448(4)
H9_5 H 0.7586 0.6099 0.9624
H10_5 H 0.9252 0.6106 0.9543
H11_5 H 0.8403 0.6722 0.9573
C22_5 C 0.6797(11) 0.6569(5) 0.8648(4)
H12_5 H 0.6751 0.6984 0.8775
H13_5 H 0.6737 0.6560 0.8250
H14_5 H 0.6015 0.6342 0.8804
N5_6 N 0.6829(9) 0.3707(3) 0.3828(3)
H7_6 H 0.6795 0.4097 0.3710
H8_6 H 0.6101 0.3505 0.3666
C21_6 C 0.6629(11) 0.3694(5) 0.4448(4)
H9_6 H 0.7414 0.3901 0.4624
H10_6 H 0.5748 0.3894 0.4543
H11_6 H 0.6597 0.3278 0.4573
C22_6 C 0.8203(11) 0.3431(5) 0.3648(4)
H12_6 H 0.8249 0.3016 0.3775
H13_6 H 0.8263 0.3440 0.3250
H14_6 H 0.8985 0.3658 0.3804
N5_7 N 0.3171(9) 0.8707(3) 0.1172(3)
H7_7 H 0.3205 0.9097 0.1290
H8_7 H 0.3899 0.8505 0.1334
C21_7 C 0.3371(11) 0.8694(5) 0.0552(4)
H9_7 H 0.2586 0.8901 0.0376
H10_7 H 0.4252 0.8894 0.0457
H11_7 H 0.3403 0.8278 0.0427
C22_7 C 0.1797(11) 0.8431(5) 0.1352(4)
H12_7 H 0.1751 0.8016 0.1225
H13_7 H 0.1737 0.8440 0.1750
H14_7 H 0.1015 0.8658 0.1196
N5_8 N 0.1829(9) 0.1293(3) 0.6172(3)
H7_8 H 0.1795 0.0903 0.6290
H8_8 H 0.1101 0.1495 0.6334
C21_8 C 0.1629(11) 0.1306(5) 0.5552(4)
H9_8 H 0.2414 0.1099 0.5376
H10_8 H 0.0748 0.1106 0.5457
H11_8 H 0.1597 0.1722 0.5427
C22_8 C 0.3203(11) 0.1569(5) 0.6352(4)
H12_8 H 0.3249 0.1984 0.6225
H13_8 H 0.3263 0.1560 0.6750
H14_8 H 0.3985 0.1342 0.6196
loop_
_geom_bond_atom_site_label_1
_geom_bond_atom_site_label_2
_geom_bond_site_symmetry_1
_geom_bond_site_symmetry_2
O2 In1 1_555 1_555
O3 C2 1_555 1_555
O9 C5 1_555 1_555
O10 C4 1_555 1_555
N1 In1 1_555 1_555
N2 C9 1_555 1_555
C2 O2 1_555 1_555
C8 N1 1_555 1_555
H1 C8 1_555 1_555
C9 N1 1_555 1_555
H2 C9 1_555 1_555
C10 N2 1_555 1_555
H3 C10 1_555 1_555
O16 In1 1_555 1_555
In8 O9 1_555 1_555
O10 In8 1_555 1_555
C4 C5 1_555 1_555
C8 C10 1_555 1_555
N2 H15 1_555 1_555
O15 C11 1_555 1_555
O20 In4 1_555 1_555
O21 In4 1_555 1_555
O22 In4 1_555 1_555
O25 In4 1_555 1_555
O26 In4 1_555 1_555
O27 C17 1_555 1_555
O28 C16 1_555 1_555
C12 O17 1_555 1_555
C16 O25 1_555 1_555
C17 O26 1_555 1_555
O29 In4 1_555 1_555
O31 In4 1_555 1_555
O20 C12 1_555 1_555
C16 C17 1_555 1_555
O1 C1 1_555 1_555
O4 In2 1_555 1_555
O7 In2 1_555 1_555
O8 In2 1_555 1_555
O11 In2 1_555 1_555
O12 In2 1_555 1_555
O13 C7 1_555 1_555
O14 C6 1_555 1_555
C1 O4 1_555 1_555
C6 O11 1_555 1_555
C7 O12 1_555 1_555
O30 In2 1_555 1_555
O32 In2 1_555 1_555
C6 C7 1_555 1_555
C3 O6 1_555 1_555
In3 O5 1_555 1_555
O18 In3 1_555 1_555
O19 C13 1_555 1_555
O23 C15 1_555 1_555
O24 C14 1_555 1_555
N3 In3 1_555 1_555
N4 C19 1_555 1_555
C13 O18 1_555 1_555
C18 N3 1_555 1_555
H4 C18 1_555 1_555
C19 N3 1_555 1_555
H5 C19 1_555 1_555
C20 N4 1_555 1_555
H6 C20 1_555 1_555
In7 O23 1_555 1_555
O24 In7 1_555 1_555
C14 C15 1_555 1_555
C18 C20 1_555 1_555
N4 H16 1_555 1_555
O15_2 C11_2 1_555 1_555
In3_2 O5_2 1_555 1_555
In8 O19_2 1_555 1_555
O17_2 In3_2 1_555 1_555
O18_2 In3_2 1_555 1_555
O19_2 C13_2 1_555 1_555
O20_2 In8 1_555 1_555
O21_2 In8 1_555 1_555
O22_2 In8 1_555 1_555
O30 C15_2 1_555 1_555
O32 C14_2 1_555 1_555
O25_2 In8 1_555 1_555
O26_2 In8 1_555 1_555
O27_2 C17_2 1_555 1_555
O28_2 C16_2 1_555 1_555
N3_2 In3_2 1_555 1_555
C12_2 O17_2 1_555 1_555
C13_2 O18_2 1_555 1_555
C14_2 O21_2 1_555 1_555
C15_2 O22_2 1_555 1_555
C16_2 O25_2 1_555 1_555
C17_2 O26_2 1_555 1_555
C18_2 N3_2 1_555 1_555
H4_2 C18_2 1_555 1_555
C19_2 N3_2 1_555 1_555
H5_2 C19_2 1_555 1_555
In6_2 O27_2 1_555 1_555
O34_2 In3_2 1_555 1_555
O36_2 In3_2 1_555 1_555
O15_2 In3_2 1_555 1_555
O20_2 C12_2 1_555 1_555
O28_2 In6_2 1_555 1_555
C12_2 C13_2 1_555 1_555
C14_2 C15_2 1_555 1_555
C16_2 C17_2 1_555 1_555
In1_2 O1_2 1_555 1_555
In7 O3_2 1_555 1_555
O1_2 C1_2 1_555 1_555
O2_2 In1_2 1_555 1_555
O3_2 C2_2 1_555 1_555
O4_2 In7 1_555 1_555
O6_2 In1_2 1_555 1_555
O7_2 In7 1_555 1_555
O8_2 In7 1_555 1_555
O29 C5_2 1_555 1_555
O31 C4_2 1_555 1_555
O11_2 In7 1_555 1_555
O12_2 In7 1_555 1_555
O13_2 C7_2 1_555 1_555
O14_2 C6_2 1_555 1_555
N1_2 In1_2 1_555 1_555
C1_2 O4_2 1_555 1_555
C2_2 O2_2 1_555 1_555
C3_2 O6_2 1_555 1_555
C4_2 O7_2 1_555 1_555
C5_2 O8_2 1_555 1_555
C6_2 O11_2 1_555 1_555
C7_2 O12_2 1_555 1_555
C8_2 N1_2 1_555 1_555
H1_2 C8_2 1_555 1_555
C9_2 N1_2 1_555 1_555
H2_2 C9_2 1_555 1_555
O16_2 In1_2 1_555 1_555
In5_2 O13_2 1_555 1_555
O33_2 In1_2 1_555 1_555
O35_2 In1_2 1_555 1_555
O14_2 In5_2 1_555 1_555
C1_2 C2_2 1_555 1_555
C4_2 C5_2 1_555 1_555
C6_2 C7_2 1_555 1_555
O5_3 C3_3 1_555 1_555
C3_3 O6_3 1_555 1_555
In6 O5_3 1_555 1_555
In4_2 O19_3 1_555 1_555
O17_3 In6 1_555 1_555
O18_3 In6 1_555 1_555
O19_3 C13_3 1_555 1_555
O20_3 In4_2 1_555 1_555
O21_3 In4_2 1_555 1_555
O22_3 In4_2 1_555 1_555
O23_2 C15_3 1_555 1_555
O24_2 C14_3 1_555 1_555
O25_3 In4_2 1_555 1_555
O26_3 In4_2 1_555 1_555
O34 C17_3 1_555 1_555
O36 C16_3 1_555 1_555
N3_3 In6 1_555 1_555
C12_3 O17_3 1_555 1_555
C13_3 O18_3 1_555 1_555
C14_3 O21_3 1_555 1_555
C15_3 O22_3 1_555 1_555
C16_3 O25_3 1_555 1_555
C17_3 O26_3 1_555 1_555
C18_3 N3_3 1_555 1_555
H4_3 C18_3 1_555 1_555
C19_3 N3_3 1_555 1_555
H5_3 C19_3 1_555 1_555
In7_2 O23_2 1_555 1_555
O29_2 In4_2 1_555 1_555
O31_2 In4_2 1_555 1_555
O20_3 C12_3 1_555 1_555
O24_2 In7_2 1_555 1_555
C12_3 C13_3 1_555 1_555
C14_3 C15_3 1_555 1_555
C16_3 C17_3 1_555 1_555
In5 O1_3 1_555 1_555
In2_2 O3_3 1_555 1_555
O1_3 C1_3 1_555 1_555
O2_3 In5 1_555 1_555
O3_3 C2_3 1_555 1_555
O4_3 In2_2 1_555 1_555
O7_3 In2_2 1_555 1_555
O8_3 In2_2 1_555 1_555
O9_2 C5_3 1_555 1_555
O10_2 C4_3 1_555 1_555
O11_3 In2_2 1_555 1_555
O12_3 In2_2 1_555 1_555
O33 C7_3 1_555 1_555
O35 C6_3 1_555 1_555
N1_3 In5 1_555 1_555
C1_3 O4_3 1_555 1_555
C2_3 O2_3 1_555 1_555
C4_3 O7_3 1_555 1_555
C5_3 O8_3 1_555 1_555
C6_3 O11_3 1_555 1_555
C7_3 O12_3 1_555 1_555
C8_3 N1_3 1_555 1_555
H1_3 C8_3 1_555 1_555
C9_3 N1_3 1_555 1_555
H2_3 C9_3 1_555 1_555
O15_3 C11_3 1_555 1_555
O16_3 In5 1_555 1_555
In8_2 O9_2 1_555 1_555
O30_2 In2_2 1_555 1_555
O32_2 In2_2 1_555 1_555
O10_2 In8_2 1_555 1_555
C1_3 C2_3 1_555 1_555
C4_3 C5_3 1_555 1_555
C6_3 C7_3 1_555 1_555
C11_3 O16_3 1_555 1_555
O1_4 C1_4 1_555 1_555
O4_4 In7_2 1_555 1_555
O5_4 C3_4 1_555 1_555
O7_4 In7_2 1_555 1_555
O8_4 In7_2 1_555 1_555
O11_4 In7_2 1_555 1_555
O12_4 In7_2 1_555 1_555
O33_2 C7_4 1_555 1_555
O35_2 C6_4 1_555 1_555
C1_4 O4_4 1_555 1_555
C3_4 O6_4 1_555 1_555
C6_4 O11_4 1_555 1_555
C7_4 O12_4 1_555 1_555
In6_2 O5_4 1_555 1_555
O18_4 In6_2 1_555 1_555
O19_4 C13_4 1_555 1_555
O30_2 C15_4 1_555 1_555
O32_2 C14_4 1_555 1_555
N3_4 In6_2 1_555 1_555
N4_2 C19_4 1_555 1_555
C13_4 O18_4 1_555 1_555
C18_4 N3_4 1_555 1_555
H4_4 C18_4 1_555 1_555
C19_4 N3_4 1_555 1_555
H5_4 C19_4 1_555 1_555
C20_2 N4_2 1_555 1_555
H6_2 C20_2 1_555 1_555
C6_4 C7_4 1_555 1_555
C14_4 C15_4 1_555 1_555
C18_4 C20_2 1_555 1_555
N4_2 H16_2 1_555 1_555
O2_4 In5_2 1_555 1_555
O3_4 C2_4 1_555 1_555
O29_2 C5_4 1_555 1_555
O31_2 C4_4 1_555 1_555
N1_4 In5_2 1_555 1_555
N2_2 C9_4 1_555 1_555
C2_4 O2_4 1_555 1_555
C8_4 N1_4 1_555 1_555
H1_4 C8_4 1_555 1_555
C9_4 N1_4 1_555 1_555
H2_4 C9_4 1_555 1_555
C10_2 N2_2 1_555 1_555
H3_2 C10_2 1_555 1_555
O15_4 C11_4 1_555 1_555
O16_4 In5_2 1_555 1_555
O20_4 In8_2 1_555 1_555
O21_4 In8_2 1_555 1_555
O22_4 In8_2 1_555 1_555
O25_4 In8_2 1_555 1_555
O26_4 In8_2 1_555 1_555
O34_2 C17_4 1_555 1_555
O36_2 C16_4 1_555 1_555
C12_4 O17_4 1_555 1_555
C16_4 O25_4 1_555 1_555
C17_4 O26_4 1_555 1_555
C4_4 C5_4 1_555 1_555
C8_4 C10_2 1_555 1_555
C11_4 O16_4 1_555 1_555
O20_4 C12_4 1_555 1_555
C16_4 C17_4 1_555 1_555
N2_2 H15_2 1_555 1_555
C20_3 N4_3 1_555 1_555
H6_3 C20_3 1_555 1_555
N4_3 H16_3 1_555 1_555
C10_3 N2_3 1_555 1_555
H3_3 C10_3 1_555 1_555
N2_3 H15_3 1_555 1_555
C10_4 N2_4 1_555 1_555
H3_4 C10_4 1_555 1_555
N2_4 H15_4 1_555 1_555
C20_4 N4_4 1_555 1_555
H6_4 C20_4 1_555 1_555
N4_4 H16_4 1_555 1_555
N5 H7 1_555 1_555
H8 N5 1_555 1_555
C21 N5 1_555 1_555
H9 C21 1_555 1_555
H10 C21 1_555 1_555
H11 C21 1_555 1_555
C22 N5 1_555 1_555
H12 C22 1_555 1_555
H13 C22 1_555 1_555
H14 C22 1_555 1_555
N5_2 H7_2 1_555 1_555
H8_2 N5_2 1_555 1_555
C21_2 N5_2 1_555 1_555
H9_2 C21_2 1_555 1_555
H10_2 C21_2 1_555 1_555
H11_2 C21_2 1_555 1_555
C22_2 N5_2 1_555 1_555
H12_2 C22_2 1_555 1_555
H13_2 C22_2 1_555 1_555
H14_2 C22_2 1_555 1_555
N5_3 H7_3 1_555 1_555
H8_3 N5_3 1_555 1_555
C21_3 N5_3 1_555 1_555
H9_3 C21_3 1_555 1_555
H10_3 C21_3 1_555 1_555
H11_3 C21_3 1_555 1_555
C22_3 N5_3 1_555 1_555
H12_3 C22_3 1_555 1_555
H13_3 C22_3 1_555 1_555
H14_3 C22_3 1_555 1_555
N5_4 H7_4 1_555 1_555
H8_4 N5_4 1_555 1_555
C21_4 N5_4 1_555 1_555
H9_4 C21_4 1_555 1_555
H10_4 C21_4 1_555 1_555
H11_4 C21_4 1_555 1_555
C22_4 N5_4 1_555 1_555
H12_4 C22_4 1_555 1_555
H13_4 C22_4 1_555 1_555
H14_4 C22_4 1_555 1_555
N5_5 H7_5 1_555 1_555
H8_5 N5_5 1_555 1_555
C21_5 N5_5 1_555 1_555
H9_5 C21_5 1_555 1_555
H10_5 C21_5 1_555 1_555
H11_5 C21_5 1_555 1_555
C22_5 N5_5 1_555 1_555
H12_5 C22_5 1_555 1_555
H13_5 C22_5 1_555 1_555
H14_5 C22_5 1_555 1_555
N5_6 H7_6 1_555 1_555
H8_6 N5_6 1_555 1_555
C21_6 N5_6 1_555 1_555
H9_6 C21_6 1_555 1_555
H10_6 C21_6 1_555 1_555
H11_6 C21_6 1_555 1_555
C22_6 N5_6 1_555 1_555
H12_6 C22_6 1_555 1_555
H13_6 C22_6 1_555 1_555
H14_6 C22_6 1_555 1_555
N5_7 H7_7 1_555 1_555
H8_7 N5_7 1_555 1_555
C21_7 N5_7 1_555 1_555
H9_7 C21_7 1_555 1_555
H10_7 C21_7 1_555 1_555
H11_7 C21_7 1_555 1_555
C22_7 N5_7 1_555 1_555
H12_7 C22_7 1_555 1_555
H13_7 C22_7 1_555 1_555
H14_7 C22_7 1_555 1_555
N5_8 H7_8 1_555 1_555
H8_8 N5_8 1_555 1_555
C21_8 N5_8 1_555 1_555
H9_8 C21_8 1_555 1_555
H10_8 C21_8 1_555 1_555
H11_8 C21_8 1_555 1_555
C22_8 N5_8 1_555 1_555
H12_8 C22_8 1_555 1_555
H13_8 C22_8 1_555 1_555
H14_8 C22_8 1_555 1_555

#END
