
###############################################################################
#
# This file contains modified crystal structure data generated from the
# MOF subset of the Cambridge Structural Database (CSD) v543 
# hosted by the Cambridge Crystallographic Data Centre (CCDC).
#
# This work is licensed under the Creative Commons
# Attribution-NonCommercial-ShareAlike 4.0 International License.
# To view a copy of this license, visit
# http://creativecommons.org/licenses/by-nc-sa/4.0/
# or send a letter to
# Creative Commons, PO Box 1866, Mountain View, CA 94042, USA.
#
# CIF created using the CSD Python API on 29 September 2022
# The structure has been converted into the P1 space group
# The structure has a 3D framework
# The original CSD entry XUFWOM is in the monoclinic crystal system
# The framework has been calculated to contain at least 10.0% void space
# The void calculation uses a probe of radius 1.32A, grid spacing 0.4
# H atom positions have been added when not included in the experimental data
# Generated hydrogen atom positions removed from atoms on special positions
#
###############################################################################

data_XUFWOM
_chemical_formula_moiety         '(C280 H184 N8 O146 Zn30)n'
_symmetry_cell_setting           triclinic
_symmetry_space_group_name_H-M   'P 1'
_symmetry_Int_Tables_number      1
_space_group_name_Hall           'P 1'
loop_
_symmetry_equiv_pos_site_id
_symmetry_equiv_pos_as_xyz
1 x,y,z
_cell_length_a                   38.027(4)
_cell_length_b                   19.030(2)
_cell_length_c                   19.7515(19)
_cell_angle_alpha                90
_cell_angle_beta                 104.123(2)
_cell_angle_gamma                90
_cell_volume                     13861.2
loop_
_atom_site_label
_atom_site_type_symbol
_atom_site_fract_x
_atom_site_fract_y
_atom_site_fract_z
Zn4 Zn 0.0000 0.08954(11) 0.2500
C24 C 0.02464(19) 0.4060(4) 0.3689(4)
O11 O 0.03122(16) 0.4692(4) 0.3800(5)
O12 O 0.04920(12) 0.3591(3) 0.3793(3)
Zn5 Zn 0.09884(2) 0.38890(4) 0.41109(4)
Zn6 Zn 0.10697(2) 0.10900(4) 0.29656(4)
Zn7 Zn 0.18900(2) 0.41066(4) 0.44879(5)
C36 C 0.0696(2) 0.0567(5) 0.3960(5)
C37 C 0.0717(2) 0.0319(5) 0.4676(4)
C41 C 0.10123(18) 0.0205(4) 0.5895(4)
H22 H 0.1208 0.0295 0.6271
C42 C 0.10149(18) 0.0470(4) 0.5251(4)
C44 C 0.13297(18) 0.0900(4) 0.5185(4)
C45 C 0.12742(18) 0.1588(4) 0.4921(4)
H23 H 0.1040 0.1766 0.4781
C46 C 0.15678(17) 0.2004(4) 0.4867(3)
C47 C 0.19168(18) 0.1718(4) 0.5052(3)
H24 H 0.2113 0.1986 0.4999
C48 C 0.19746(17) 0.1049(4) 0.5312(4)
C49 C 0.16736(18) 0.0640(4) 0.5388(4)
H25 H 0.1712 0.0192 0.5579
C50 C 0.15159(18) 0.2741(4) 0.4587(3)
C51 C 0.2344(2) 0.0733(4) 0.5480(4)
C52 C 0.06392(19) 0.2243(4) 0.2520(4)
C53 C 0.05611(18) 0.2955(4) 0.2187(4)
C54 C 0.02045(19) 0.3156(4) 0.1896(4)
H26 H 0.0015 0.2845 0.1893
C55 C 0.01309(17) 0.3830(4) 0.1606(4)
C56 C 0.04248(19) 0.4284(4) 0.1612(4)
H27 H 0.0378 0.4738 0.1438
C57 C 0.07786(17) 0.4072(4) 0.1869(4)
C58 C 0.08504(17) 0.3408(4) 0.2173(4)
H28 H 0.1088 0.3268 0.2365
C60 C 0.10905(18) 0.4539(4) 0.1834(4)
C61 C 0.10989(19) 0.4829(4) 0.1204(4)
H29 H 0.0904 0.4756 0.0821
C62 C 0.1390(2) 0.5229(4) 0.1120(4)
C63 C 0.1681(2) 0.5338(6) 0.1686(5)
H30 H 0.1876 0.5609 0.1637
C64 C 0.1679(2) 0.5041(6) 0.2330(5)
H31 H 0.1875 0.5111 0.2711
C65 C 0.13868(19) 0.4640(5) 0.2403(4)
C66 C 0.1396(2) 0.5521(5) 0.0400(5)
C67 C 0.1397(2) 0.4363(4) 0.3125(4)
C68 C 0.2362(4) 0.2338(9) 0.3659(9)
H32 H 0.2196 0.2727 0.3596
H33 H 0.2522 0.2392 0.3354
H34 H 0.2501 0.2325 0.4135
C69 C 0.2353(3) 0.0988(8) 0.3548(6)
H35 H 0.2181 0.0612 0.3421
H36 H 0.2491 0.0922 0.4020
H37 H 0.2513 0.0989 0.3241
C70 C 0.1803(2) 0.1694(5) 0.3331(5)
H38 H 0.1686 0.2126 0.3299
N2 N 0.2155(2) 0.1676(6) 0.3490(4)
O20 O 0.10012(14) 0.0589(3) 0.3768(3)
O21 O 0.04032(16) 0.0708(5) 0.3585(4)
O24 O 0.17915(13) 0.3066(3) 0.4539(3)
O25 O 0.11969(12) 0.2978(3) 0.4431(3)
O26 O 0.25945(12) 0.1099(3) 0.5345(3)
O27 O 0.23908(15) 0.0129(3) 0.5744(4)
O28 O 0.09685(12) 0.2062(3) 0.2721(3)
O29 O 0.03855(15) 0.1889(3) 0.2599(4)
O32 O 0.16959(15) 0.4136(4) 0.3466(3)
O33 O 0.11234(14) 0.4406(3) 0.3347(3)
O34 O 0.16986(14) 0.5747(4) 0.0345(3)
O36 O 0.16165(13) 0.1140(3) 0.3220(3)
O37 O 0.19597(18) 0.5213(3) 0.4469(6)
Zn15 Zn 0.31100(2) 0.08934(4) 0.55121(5)
O38 O 0.10217(14) 0.0502(3) 0.2145(3)
O40 O 0.04337(18) 0.0653(5) 0.1830(4)
O43 O 0.24055(12) 0.3901(3) 0.4655(3)
O44 O 0.16986(14) 0.4253(4) 0.5345(3)
O46 O 0.11035(13) 0.4489(3) 0.4947(3)
H39 H 0.200882 0.539996 0.49524
H40 H 0.216715 0.532416 0.426435
O35 O 0.11035(13) 0.5511(3) 0.9947(3)
Zn8 Zn 0.09884(2) 0.61110(4) 0.91109(4)
Zn12 Zn 0.18900(2) 0.58934(4) 0.94879(5)
O18 O 0.0000 0.9608(7) 0.2500
C38 C 0.0436(2) 0.9915(5) 0.4780(5)
H20 H 0.0244 0.9811 0.4402
C39 C 0.0432(2) 0.9660(5) 0.5432(5)
H21 H 0.0236 0.9395 0.5490
C40 C 0.0719(2) 0.9797(5) 0.6002(4)
C43 C 0.0722(2) 0.9531(5) 0.6716(4)
O22 O 0.10217(14) 0.9498(3) 0.7145(3)
O23 O 0.04337(18) 0.9347(5) 0.6830(4)
Zn10 Zn 0.10697(2) 0.89100(4) 0.79656(4)
Zn17 Zn 0.0000 0.91046(11) 0.7500
H43 H 0.00866223 0.943406 0.209514
H44 H 0.0163352 0.943406 0.293958
Zn1 Zn 0.90116(2) 0.38890(4) 0.08891(4)
Zn2 Zn 0.89303(2) 0.10900(4) 0.20344(4)
Zn3 Zn 0.81100(2) 0.41066(4) 0.05121(5)
Zn4_2 Zn 1.0000 0.08954(11) 0.2500
C1 C 0.9304(2) 0.0567(5) 0.1040(5)
C2 C 0.9283(2) 0.0319(5) 0.0324(4)
C10 C 0.87258(18) 0.1588(4) 0.0079(4)
H4 H 0.8960 0.1766 0.0219
C11 C 0.84322(17) 0.2004(4) 0.0133(3)
H5 H 0.7887 0.1986 0.0001
C15 C 0.84841(18) 0.2741(4) 0.0413(3)
C17 C 0.93608(19) 0.2243(4) 0.2480(4)
C18 C 0.94389(18) 0.2955(4) 0.2813(4)
C19 C 0.97955(19) 0.3156(4) 0.3104(4)
H7 H 0.9985 0.2845 0.3107
C20 C 0.98691(17) 0.3830(4) 0.3394(4)
C21 C 0.95752(19) 0.4284(4) 0.3388(4)
H8 H 0.9622 0.4738 0.3562
C22 C 0.92214(17) 0.4072(4) 0.3131(4)
C23 C 0.91496(17) 0.3408(4) 0.2827(4)
H9 H 0.8912 0.3268 0.2635
C25 C 0.89095(18) 0.4539(4) 0.3166(4)
C26 C 0.89011(19) 0.4829(4) 0.3796(4)
H10 H 0.9096 0.4756 0.4179
C27 C 0.8610(2) 0.5229(4) 0.3880(4)
C28 C 0.8319(2) 0.5338(6) 0.3314(5)
H11 H 0.8124 0.5609 0.3363
C29 C 0.8321(2) 0.5041(6) 0.2670(5)
H12 H 0.8125 0.5111 0.2289
C30 C 0.86132(19) 0.4640(5) 0.2597(4)
C31 C 0.8604(2) 0.5521(5) 0.4600(5)
C32 C 0.8603(2) 0.4363(4) 0.1875(4)
C33 C 0.7638(4) 0.2338(9) 0.1341(9)
H13 H 0.7804 0.2727 0.1404
H14 H 0.7478 0.2392 0.1646
H15 H 0.7499 0.2325 0.0865
C34 C 0.7647(3) 0.0988(8) 0.1452(6)
H16 H 0.7819 0.0612 0.1579
H17 H 0.7509 0.0922 0.0980
H18 H 0.7487 0.0989 0.1759
C35 C 0.8197(2) 0.1694(5) 0.1669(5)
H19 H 0.8314 0.2126 0.1701
N1 N 0.7845(2) 0.1676(6) 0.1510(4)
O1 O 0.89988(14) 0.0589(3) 0.1232(3)
O2 O 0.95968(16) 0.0708(5) 0.1415(4)
O5 O 0.82085(13) 0.3066(3) 0.0461(3)
O6 O 0.88031(12) 0.2978(3) 0.0569(3)
O9 O 0.90315(12) 0.2062(3) 0.2279(3)
O10 O 0.96145(15) 0.1889(3) 0.2401(4)
O13 O 0.83041(15) 0.4136(4) 0.1534(3)
O14 O 0.88766(14) 0.4406(3) 0.1653(3)
O15 O 0.83014(14) 0.5747(4) 0.4655(3)
O16 O 0.88965(13) 0.5511(3) 0.5053(3)
O17 O 0.83835(13) 0.1140(3) 0.1780(3)
O19 O 0.80403(18) 0.5213(3) 0.0531(6)
C59 C 0.97536(19) 0.4060(4) 0.1311(4)
O30 O 0.96878(16) 0.4692(4) 0.1200(5)
O31 O 0.95080(12) 0.3591(3) 0.1207(3)
Zn9 Zn 0.90116(2) 0.61110(4) 0.58891(4)
Zn13 Zn 0.81100(2) 0.58934(4) 0.55121(5)
O39 O 0.89783(14) 0.0502(3) 0.2855(3)
O41 O 0.95663(18) 0.0653(5) 0.3170(4)
O42 O 0.75945(12) 0.3901(3) 0.0345(3)
O47 O 0.88965(13) 0.4489(3) 0.0053(3)
H41 H 0.799118 0.539996 0.00476012
H42 H 0.783285 0.532416 0.0735649
C6 C 0.89877(18) 0.0205(4) 0.9105(4)
H3 H 0.8792 0.0295 0.8729
C7 C 0.89851(18) 0.0470(4) 0.9749(4)
C9 C 0.86703(18) 0.0900(4) 0.9815(4)
C12 C 0.80832(18) 0.1718(4) 0.9948(3)
C13 C 0.80254(17) 0.1049(4) 0.9688(4)
C14 C 0.83264(18) 0.0640(4) 0.9612(4)
H6 H 0.8288 0.0192 0.9421
C16 C 0.7656(2) 0.0733(4) 0.9520(4)
O7 O 0.74055(12) 0.1099(3) 0.9655(3)
O8 O 0.76092(15) 0.0129(3) 0.9256(4)
Zn14 Zn 0.68900(2) 0.08934(4) 0.94879(5)
O45 O 0.83014(14) 0.4253(4) 0.9655(3)
C3 C 0.9564(2) 0.9915(5) 0.0220(5)
H1 H 0.9756 0.9811 0.0598
O18_2 O 1.0000 0.9608(7) 0.2500
Zn17_2 Zn 1.0000 0.91046(11) 0.7500
C4 C 0.9568(2) 0.9660(5) 0.9568(5)
H2 H 0.9764 0.9395 0.9510
C5 C 0.9281(2) 0.9797(5) 0.8998(4)
C8 C 0.9278(2) 0.9531(5) 0.8284(4)
O3 O 0.89783(14) 0.9498(3) 0.7855(3)
O4 O 0.95663(18) 0.9347(5) 0.8170(4)
Zn11 Zn 0.89303(2) 0.89100(4) 0.70344(4)
H43_2 H 0.991338 0.943406 0.290486
H44_2 H 0.983665 0.943406 0.206042
C27_2 C 0.3610(2) 0.0229(4) 0.3880(4)
C28_2 C 0.3319(2) 0.0338(6) 0.3314(5)
H11_2 H 0.3124 0.0609 0.3363
C29_2 C 0.3321(2) 0.0041(6) 0.2670(5)
H12_2 H 0.3125 0.0111 0.2289
C31_2 C 0.3604(2) 0.0521(5) 0.4600(5)
O15_2 O 0.33014(14) 0.0747(4) 0.4655(3)
O16_2 O 0.38965(13) 0.0511(3) 0.5053(3)
O19_2 O 0.30403(18) 0.0213(3) 0.0531(6)
C62_2 C 0.6390(2) 0.0229(4) 0.1120(4)
C63_2 C 0.6681(2) 0.0338(6) 0.1686(5)
H30_2 H 0.6876 0.0609 0.1637
C64_2 C 0.6679(2) 0.0041(6) 0.2330(5)
H31_2 H 0.6875 0.0111 0.2711
C66_2 C 0.6396(2) 0.0521(5) 0.0400(5)
O34_2 O 0.66986(14) 0.0747(4) 0.0345(3)
O37_2 O 0.69597(18) 0.0213(3) 0.4469(6)
Zn9_2 Zn 0.40116(2) 0.11110(4) 0.58891(4)
H39_2 H 0.700882 0.0399956 0.49524
H40_2 H 0.716715 0.0324162 0.426435
H41_2 H 0.299118 0.0399956 0.00476012
H42_2 H 0.283285 0.0324162 0.0735649
O35_2 O 0.61035(13) 0.0511(3) 0.9947(3)
Zn8_2 Zn 0.59884(2) 0.11110(4) 0.91109(4)
Zn1_2 Zn 0.40116(2) 0.88890(4) 0.08891(4)
Zn2_2 Zn 0.39303(2) 0.60900(4) 0.20344(4)
Zn3_2 Zn 0.31100(2) 0.91066(4) 0.05121(5)
Zn4_3 Zn 0.5000 0.58954(11) 0.2500
C1_2 C 0.4304(2) 0.5567(5) 0.1040(5)
C2_2 C 0.4283(2) 0.5319(5) 0.0324(4)
C3_2 C 0.4564(2) 0.4915(5) 0.0220(5)
H1_2 H 0.4756 0.4811 0.0598
C10_2 C 0.37258(18) 0.6588(4) 0.0079(4)
H4_2 H 0.3960 0.6766 0.0219
C11_2 C 0.34322(17) 0.7004(4) 0.0133(3)
H5_2 H 0.2887 0.6986 0.0001
C15_2 C 0.34841(18) 0.7741(4) 0.0413(3)
C17_2 C 0.43608(19) 0.7243(4) 0.2480(4)
C18_2 C 0.44389(18) 0.7955(4) 0.2813(4)
C19_2 C 0.47955(19) 0.8156(4) 0.3104(4)
H7_2 H 0.4985 0.7845 0.3107
C20_2 C 0.48691(17) 0.8830(4) 0.3394(4)
C21_2 C 0.45752(19) 0.9284(4) 0.3388(4)
H8_2 H 0.4622 0.9738 0.3562
C22_2 C 0.42214(17) 0.9072(4) 0.3131(4)
C23_2 C 0.41496(17) 0.8408(4) 0.2827(4)
H9_2 H 0.3912 0.8268 0.2635
C24_2 C 0.52464(19) 0.9060(4) 0.3689(4)
C25_2 C 0.39095(18) 0.9539(4) 0.3166(4)
C26_2 C 0.39011(19) 0.9829(4) 0.3796(4)
H10_2 H 0.4096 0.9756 0.4179
C30_2 C 0.36132(19) 0.9640(5) 0.2597(4)
C32_2 C 0.3603(2) 0.9363(4) 0.1875(4)
C33_2 C 0.2638(4) 0.7338(9) 0.1341(9)
H13_2 H 0.2804 0.7727 0.1404
H14_2 H 0.2478 0.7392 0.1646
H15_2 H 0.2499 0.7325 0.0865
C34_2 C 0.2647(3) 0.5988(8) 0.1452(6)
H16_2 H 0.2819 0.5612 0.1579
H17_2 H 0.2509 0.5922 0.0980
H18_2 H 0.2487 0.5989 0.1759
C35_2 C 0.3197(2) 0.6694(5) 0.1669(5)
H19_2 H 0.3314 0.7126 0.1701
N1_2 N 0.2845(2) 0.6676(6) 0.1510(4)
O1_2 O 0.39988(14) 0.5589(3) 0.1232(3)
O2_2 O 0.45968(16) 0.5708(5) 0.1415(4)
O5_2 O 0.32085(13) 0.8066(3) 0.0461(3)
O6_2 O 0.38031(12) 0.7978(3) 0.0569(3)
O9_2 O 0.40315(12) 0.7062(3) 0.2279(3)
O10_2 O 0.46145(15) 0.6889(3) 0.2401(4)
O11_2 O 0.53122(16) 0.9692(4) 0.3800(5)
O12_2 O 0.54920(12) 0.8591(3) 0.3793(3)
O13_2 O 0.33041(15) 0.9136(4) 0.1534(3)
O14_2 O 0.38766(14) 0.9406(3) 0.1653(3)
O17_2 O 0.33835(13) 0.6140(3) 0.1780(3)
O18_3 O 0.5000 0.4608(7) 0.2500
Zn5_2 Zn 0.59884(2) 0.88890(4) 0.41109(4)
Zn6_2 Zn 0.60697(2) 0.60900(4) 0.29656(4)
Zn7_2 Zn 0.68900(2) 0.91066(4) 0.44879(5)
C36_2 C 0.5696(2) 0.5567(5) 0.3960(5)
C37_2 C 0.5717(2) 0.5319(5) 0.4676(4)
C38_2 C 0.5436(2) 0.4915(5) 0.4780(5)
H20_2 H 0.5244 0.4811 0.4402
C39_2 C 0.5432(2) 0.4660(5) 0.5432(5)
H21_2 H 0.5236 0.4395 0.5490
C40_2 C 0.5719(2) 0.4797(5) 0.6002(4)
C41_2 C 0.60123(18) 0.5205(4) 0.5895(4)
H22_2 H 0.6208 0.5295 0.6271
C42_2 C 0.60149(18) 0.5470(4) 0.5251(4)
C43_2 C 0.5722(2) 0.4531(5) 0.6716(4)
C44_2 C 0.63297(18) 0.5900(4) 0.5185(4)
C45_2 C 0.62742(18) 0.6588(4) 0.4921(4)
H23_2 H 0.6040 0.6766 0.4781
C46_2 C 0.65678(17) 0.7004(4) 0.4867(3)
C47_2 C 0.69168(18) 0.6718(4) 0.5052(3)
H24_2 H 0.7113 0.6986 0.4999
C48_2 C 0.69746(17) 0.6049(4) 0.5312(4)
C49_2 C 0.66736(18) 0.5640(4) 0.5388(4)
H25_2 H 0.6712 0.5192 0.5579
C50_2 C 0.65159(18) 0.7741(4) 0.4587(3)
C51_2 C 0.7344(2) 0.5733(4) 0.5480(4)
C52_2 C 0.56392(19) 0.7243(4) 0.2520(4)
C53_2 C 0.55611(18) 0.7955(4) 0.2187(4)
C54_2 C 0.52045(19) 0.8156(4) 0.1896(4)
H26_2 H 0.5015 0.7845 0.1893
C55_2 C 0.51309(17) 0.8830(4) 0.1606(4)
C56_2 C 0.54248(19) 0.9284(4) 0.1612(4)
H27_2 H 0.5378 0.9738 0.1438
C57_2 C 0.57786(17) 0.9072(4) 0.1869(4)
C58_2 C 0.58504(17) 0.8408(4) 0.2173(4)
H28_2 H 0.6088 0.8268 0.2365
C59_2 C 0.47536(19) 0.9060(4) 0.1311(4)
C60_2 C 0.60905(18) 0.9539(4) 0.1834(4)
C61_2 C 0.60989(19) 0.9829(4) 0.1204(4)
H29_2 H 0.5904 0.9756 0.0821
C65_2 C 0.63868(19) 0.9640(5) 0.2403(4)
C67_2 C 0.6397(2) 0.9363(4) 0.3125(4)
C68_2 C 0.7362(4) 0.7338(9) 0.3659(9)
H32_2 H 0.7196 0.7727 0.3596
H33_2 H 0.7522 0.7392 0.3354
H34_2 H 0.7501 0.7325 0.4135
C69_2 C 0.7353(3) 0.5988(8) 0.3548(6)
H35_2 H 0.7181 0.5612 0.3421
H36_2 H 0.7491 0.5922 0.4020
H37_2 H 0.7513 0.5989 0.3241
C70_2 C 0.6803(2) 0.6694(5) 0.3331(5)
H38_2 H 0.6686 0.7126 0.3299
N2_2 N 0.7155(2) 0.6676(6) 0.3490(4)
O20_2 O 0.60012(14) 0.5589(3) 0.3768(3)
O21_2 O 0.54032(16) 0.5708(5) 0.3585(4)
O22_2 O 0.60217(14) 0.4498(3) 0.7145(3)
O23_2 O 0.54337(18) 0.4347(5) 0.6830(4)
O24_2 O 0.67915(13) 0.8066(3) 0.4539(3)
O25_2 O 0.61969(12) 0.7978(3) 0.4431(3)
O26_2 O 0.75945(12) 0.6099(3) 0.5345(3)
O27_2 O 0.73908(15) 0.5129(3) 0.5744(4)
O28_2 O 0.59685(12) 0.7062(3) 0.2721(3)
O29_2 O 0.53855(15) 0.6889(3) 0.2599(4)
O30_2 O 0.46878(16) 0.9692(4) 0.1200(5)
O31_2 O 0.45080(12) 0.8591(3) 0.1207(3)
O32_2 O 0.66959(15) 0.9136(4) 0.3466(3)
O33_2 O 0.61234(14) 0.9406(3) 0.3347(3)
O36_2 O 0.66165(13) 0.6140(3) 0.3220(3)
Zn10_2 Zn 0.60697(2) 0.39100(4) 0.79656(4)
Zn17_3 Zn 0.5000 0.41046(11) 0.7500
O38_2 O 0.60217(14) 0.5502(3) 0.2145(3)
O39_2 O 0.39783(14) 0.5502(3) 0.2855(3)
O40_2 O 0.54337(18) 0.5653(5) 0.1830(4)
O41_2 O 0.45663(18) 0.5653(5) 0.3170(4)
O42_2 O 0.25945(12) 0.8901(3) 0.0345(3)
O43_2 O 0.74055(12) 0.8901(3) 0.4655(3)
O44_2 O 0.66986(14) 0.9253(4) 0.5345(3)
O46_2 O 0.61035(13) 0.9489(3) 0.4947(3)
O47_2 O 0.38965(13) 0.9489(3) 0.0053(3)
C4_2 C 0.4568(2) 0.4660(5) 0.9568(5)
H2_2 H 0.4764 0.4395 0.9510
C5_2 C 0.4281(2) 0.4797(5) 0.8998(4)
C6_2 C 0.39877(18) 0.5205(4) 0.9105(4)
H3_2 H 0.3792 0.5295 0.8729
C7_2 C 0.39851(18) 0.5470(4) 0.9749(4)
C8_2 C 0.4278(2) 0.4531(5) 0.8284(4)
C9_2 C 0.36703(18) 0.5900(4) 0.9815(4)
C12_2 C 0.30832(18) 0.6718(4) 0.9948(3)
C13_2 C 0.30254(17) 0.6049(4) 0.9688(4)
C14_2 C 0.33264(18) 0.5640(4) 0.9612(4)
H6_2 H 0.3288 0.5192 0.9421
C16_2 C 0.2656(2) 0.5733(4) 0.9520(4)
O3_2 O 0.39783(14) 0.4498(3) 0.7855(3)
O4_2 O 0.45663(18) 0.4347(5) 0.8170(4)
O7_2 O 0.24055(12) 0.6099(3) 0.9655(3)
O8_2 O 0.26092(15) 0.5129(3) 0.9256(4)
Zn11_2 Zn 0.39303(2) 0.39100(4) 0.70344(4)
O45_2 O 0.33014(14) 0.9253(4) 0.9655(3)
C4_3 C 0.0432(2) 0.0340(5) 0.0432(5)
H2_3 H 0.0236 0.0605 0.0490
C5_3 C 0.0719(2) 0.0203(5) 0.1002(4)
C8_3 C 0.0722(2) 0.0469(5) 0.1716(4)
C3_3 C 0.0436(2) 0.0085(5) 0.9780(5)
H1_3 H 0.0244 0.0189 0.9402
O18_4 O 0.0000 0.0392(7) 0.7500
C6_3 C 0.10123(18) 0.9795(4) 0.0895(4)
H3_3 H 0.1208 0.9705 0.1271
C7_3 C 0.10149(18) 0.9530(4) 0.0251(4)
C9_3 C 0.13297(18) 0.9100(4) 0.0185(4)
C12_3 C 0.19168(18) 0.8282(4) 0.0052(3)
C13_3 C 0.19746(17) 0.8951(4) 0.0312(4)
C14_3 C 0.16736(18) 0.9360(4) 0.0388(4)
H6_3 H 0.1712 0.9808 0.0579
C16_3 C 0.2344(2) 0.9267(4) 0.0480(4)
O8_3 O 0.23908(15) 0.9871(3) 0.0744(4)
C1_3 C 0.0696(2) 0.9433(5) 0.8960(5)
C2_3 C 0.0717(2) 0.9681(5) 0.9676(4)
C10_3 C 0.12742(18) 0.8412(4) 0.9921(4)
H4_3 H 0.1040 0.8234 0.9781
C11_3 C 0.15678(17) 0.7996(4) 0.9867(3)
H5_3 H 0.2113 0.8014 0.9999
C15_3 C 0.15159(18) 0.7259(4) 0.9587(3)
C17_3 C 0.06392(19) 0.7757(4) 0.7520(4)
C18_3 C 0.05611(18) 0.7045(4) 0.7187(4)
C19_3 C 0.02045(19) 0.6844(4) 0.6896(4)
H7_3 H 0.0015 0.7155 0.6893
C20_3 C 0.01309(17) 0.6170(4) 0.6606(4)
C21_3 C 0.04248(19) 0.5716(4) 0.6612(4)
H8_3 H 0.0378 0.5262 0.6438
C22_3 C 0.07786(17) 0.5928(4) 0.6869(4)
C23_3 C 0.08504(17) 0.6592(4) 0.7173(4)
H9_3 H 0.1088 0.6732 0.7365
C25_3 C 0.10905(18) 0.5461(4) 0.6834(4)
C26_3 C 0.10989(19) 0.5171(4) 0.6204(4)
H10_3 H 0.0904 0.5244 0.5821
C27_3 C 0.1390(2) 0.4771(4) 0.6120(4)
C28_3 C 0.1681(2) 0.4662(6) 0.6686(5)
H11_3 H 0.1876 0.4391 0.6637
C29_3 C 0.1679(2) 0.4959(6) 0.7330(5)
H12_3 H 0.1875 0.4889 0.7711
C30_3 C 0.13868(19) 0.5360(5) 0.7403(4)
C31_3 C 0.1396(2) 0.4479(5) 0.5400(5)
C32_3 C 0.1397(2) 0.5637(4) 0.8125(4)
C33_3 C 0.2362(4) 0.7662(9) 0.8659(9)
H13_3 H 0.2196 0.7273 0.8596
H14_3 H 0.2522 0.7608 0.8354
H15_3 H 0.2501 0.7675 0.9135
C34_3 C 0.2353(3) 0.9012(8) 0.8548(6)
H16_3 H 0.2181 0.9388 0.8421
H17_3 H 0.2491 0.9078 0.9020
H18_3 H 0.2513 0.9011 0.8241
C35_3 C 0.1803(2) 0.8306(5) 0.8331(5)
H19_3 H 0.1686 0.7874 0.8299
N1_3 N 0.2155(2) 0.8324(6) 0.8490(4)
O1_3 O 0.10012(14) 0.9411(3) 0.8768(3)
O2_3 O 0.04032(16) 0.9292(5) 0.8585(4)
O5_3 O 0.17915(13) 0.6934(3) 0.9539(3)
O6_3 O 0.11969(12) 0.7022(3) 0.9431(3)
O9_3 O 0.09685(12) 0.7938(3) 0.7721(3)
O10_3 O 0.03855(15) 0.8111(3) 0.7599(4)
O13_3 O 0.16959(15) 0.5864(4) 0.8466(3)
O14_3 O 0.11234(14) 0.5594(3) 0.8347(3)
O17_3 O 0.16165(13) 0.8860(3) 0.8220(3)
O19_3 O 0.19597(18) 0.4787(3) 0.9469(6)
C59_3 C 0.02464(19) 0.5940(4) 0.8689(4)
O30_3 O 0.03122(16) 0.5308(4) 0.8800(5)
O31_3 O 0.04920(12) 0.6409(3) 0.8793(3)
H41_3 H 0.200882 0.460004 0.99524
H42_3 H 0.216715 0.467584 0.926435
O18_5 O 1.0000 0.0392(7) 0.7500
C38_3 C 0.9564(2) 0.0085(5) 0.5220(5)
H20_3 H 0.9756 0.0189 0.5598
C39_3 C 0.9568(2) 0.0340(5) 0.4568(5)
H21_3 H 0.9764 0.0605 0.4510
C40_3 C 0.9281(2) 0.0203(5) 0.3998(4)
C43_3 C 0.9278(2) 0.0469(5) 0.3284(4)
H43_3 H 0.991338 0.0565936 0.790486
H44_3 H 0.983665 0.0565936 0.706042
C24_3 C 0.97536(19) 0.5940(4) 0.6311(4)
O11_3 O 0.96878(16) 0.5308(4) 0.6200(5)
O12_3 O 0.95080(12) 0.6409(3) 0.6207(3)
C36_3 C 0.9304(2) 0.9433(5) 0.6040(5)
C37_3 C 0.9283(2) 0.9681(5) 0.5324(4)
C41_3 C 0.89877(18) 0.9795(4) 0.4105(4)
H22_3 H 0.8792 0.9705 0.3729
C42_3 C 0.89851(18) 0.9530(4) 0.4749(4)
C44_3 C 0.86703(18) 0.9100(4) 0.4815(4)
C45_3 C 0.87258(18) 0.8412(4) 0.5079(4)
H23_3 H 0.8960 0.8234 0.5219
C46_3 C 0.84322(17) 0.7996(4) 0.5133(3)
C47_3 C 0.80832(18) 0.8282(4) 0.4948(3)
H24_3 H 0.7887 0.8014 0.5001
C48_3 C 0.80254(17) 0.8951(4) 0.4688(4)
C49_3 C 0.83264(18) 0.9360(4) 0.4612(4)
H25_3 H 0.8288 0.9808 0.4421
C50_3 C 0.84841(18) 0.7259(4) 0.5413(3)
C51_3 C 0.7656(2) 0.9267(4) 0.4520(4)
C52_3 C 0.93608(19) 0.7757(4) 0.7480(4)
C53_3 C 0.94389(18) 0.7045(4) 0.7813(4)
C54_3 C 0.97955(19) 0.6844(4) 0.8104(4)
H26_3 H 0.9985 0.7155 0.8107
C55_3 C 0.98691(17) 0.6170(4) 0.8394(4)
C56_3 C 0.95752(19) 0.5716(4) 0.8388(4)
H27_3 H 0.9622 0.5262 0.8562
C57_3 C 0.92214(17) 0.5928(4) 0.8131(4)
C58_3 C 0.91496(17) 0.6592(4) 0.7827(4)
H28_3 H 0.8912 0.6732 0.7635
C60_3 C 0.89095(18) 0.5461(4) 0.8166(4)
C61_3 C 0.89011(19) 0.5171(4) 0.8796(4)
H29_3 H 0.9096 0.5244 0.9179
C62_3 C 0.8610(2) 0.4771(4) 0.8880(4)
C63_3 C 0.8319(2) 0.4662(6) 0.8314(5)
H30_3 H 0.8124 0.4391 0.8363
C64_3 C 0.8321(2) 0.4959(6) 0.7670(5)
H31_3 H 0.8125 0.4889 0.7289
C65_3 C 0.86132(19) 0.5360(5) 0.7597(4)
C66_3 C 0.8604(2) 0.4479(5) 0.9600(5)
C67_3 C 0.8603(2) 0.5637(4) 0.6875(4)
C68_3 C 0.7638(4) 0.7662(9) 0.6341(9)
H32_3 H 0.7804 0.7273 0.6404
H33_3 H 0.7478 0.7608 0.6646
H34_3 H 0.7499 0.7675 0.5865
C69_3 C 0.7647(3) 0.9012(8) 0.6452(6)
H35_3 H 0.7819 0.9388 0.6579
H36_3 H 0.7509 0.9078 0.5980
H37_3 H 0.7487 0.9011 0.6759
C70_3 C 0.8197(2) 0.8306(5) 0.6669(5)
H38_3 H 0.8314 0.7874 0.6701
N2_3 N 0.7845(2) 0.8324(6) 0.6510(4)
O20_3 O 0.89988(14) 0.9411(3) 0.6232(3)
O21_3 O 0.95968(16) 0.9292(5) 0.6415(4)
O24_3 O 0.82085(13) 0.6934(3) 0.5461(3)
O25_3 O 0.88031(12) 0.7022(3) 0.5569(3)
O27_3 O 0.76092(15) 0.9871(3) 0.4256(4)
O28_3 O 0.90315(12) 0.7938(3) 0.7279(3)
O29_3 O 0.96145(15) 0.8111(3) 0.7401(4)
O32_3 O 0.83041(15) 0.5864(4) 0.6534(3)
O33_3 O 0.88766(14) 0.5594(3) 0.6653(3)
O36_3 O 0.83835(13) 0.8860(3) 0.6780(3)
O37_3 O 0.80403(18) 0.4787(3) 0.5531(6)
H39_3 H 0.799118 0.460004 0.50476
H40_3 H 0.783285 0.467584 0.573565
H43_4 H 0.00866223 0.0565936 0.709514
H44_4 H 0.0163352 0.0565936 0.793958
C4_4 C 0.5432(2) 0.5340(5) 0.0432(5)
H2_4 H 0.5236 0.5605 0.0490
C5_4 C 0.5719(2) 0.5203(5) 0.1002(4)
C6_4 C 0.60123(18) 0.4795(4) 0.0895(4)
H3_4 H 0.6208 0.4705 0.1271
C7_4 C 0.60149(18) 0.4530(4) 0.0251(4)
C8_4 C 0.5722(2) 0.5469(5) 0.1716(4)
C9_4 C 0.63297(18) 0.4100(4) 0.0185(4)
C12_4 C 0.69168(18) 0.3282(4) 0.0052(3)
C13_4 C 0.69746(17) 0.3951(4) 0.0312(4)
C14_4 C 0.66736(18) 0.4360(4) 0.0388(4)
H6_4 H 0.6712 0.4808 0.0579
C16_4 C 0.7344(2) 0.4267(4) 0.0480(4)
O8_4 O 0.73908(15) 0.4871(3) 0.0744(4)
C1_4 C 0.5696(2) 0.4433(5) 0.8960(5)
C2_4 C 0.5717(2) 0.4681(5) 0.9676(4)
C3_4 C 0.5436(2) 0.5085(5) 0.9780(5)
H1_4 H 0.5244 0.5189 0.9402
C10_4 C 0.62742(18) 0.3412(4) 0.9921(4)
H4_4 H 0.6040 0.3234 0.9781
C11_4 C 0.65678(17) 0.2996(4) 0.9867(3)
H5_4 H 0.7113 0.3014 0.9999
C15_4 C 0.65159(18) 0.2259(4) 0.9587(3)
C17_4 C 0.56392(19) 0.2757(4) 0.7520(4)
C18_4 C 0.55611(18) 0.2045(4) 0.7187(4)
C19_4 C 0.52045(19) 0.1844(4) 0.6896(4)
H7_4 H 0.5015 0.2155 0.6893
C20_4 C 0.51309(17) 0.1170(4) 0.6606(4)
C21_4 C 0.54248(19) 0.0716(4) 0.6612(4)
H8_4 H 0.5378 0.0262 0.6438
C22_4 C 0.57786(17) 0.0928(4) 0.6869(4)
C23_4 C 0.58504(17) 0.1592(4) 0.7173(4)
H9_4 H 0.6088 0.1732 0.7365
C24_4 C 0.47536(19) 0.0940(4) 0.6311(4)
C25_4 C 0.60905(18) 0.0461(4) 0.6834(4)
C26_4 C 0.60989(19) 0.0171(4) 0.6204(4)
H10_4 H 0.5904 0.0244 0.5821
C30_4 C 0.63868(19) 0.0360(5) 0.7403(4)
C32_4 C 0.6397(2) 0.0637(4) 0.8125(4)
C33_4 C 0.7362(4) 0.2662(9) 0.8659(9)
H13_4 H 0.7196 0.2273 0.8596
H14_4 H 0.7522 0.2608 0.8354
H15_4 H 0.7501 0.2675 0.9135
C34_4 C 0.7353(3) 0.4012(8) 0.8548(6)
H16_4 H 0.7181 0.4388 0.8421
H17_4 H 0.7491 0.4078 0.9020
H18_4 H 0.7513 0.4011 0.8241
C35_4 C 0.6803(2) 0.3306(5) 0.8331(5)
H19_4 H 0.6686 0.2874 0.8299
N1_4 N 0.7155(2) 0.3324(6) 0.8490(4)
O1_4 O 0.60012(14) 0.4411(3) 0.8768(3)
O2_4 O 0.54032(16) 0.4292(5) 0.8585(4)
O5_4 O 0.67915(13) 0.1934(3) 0.9539(3)
O6_4 O 0.61969(12) 0.2022(3) 0.9431(3)
O9_4 O 0.59685(12) 0.2938(3) 0.7721(3)
O10_4 O 0.53855(15) 0.3111(3) 0.7599(4)
O11_4 O 0.46878(16) 0.0308(4) 0.6200(5)
O12_4 O 0.45080(12) 0.1409(3) 0.6207(3)
O13_4 O 0.66959(15) 0.0864(4) 0.8466(3)
O14_4 O 0.61234(14) 0.0594(3) 0.8347(3)
O17_4 O 0.66165(13) 0.3860(3) 0.8220(3)
O18_6 O 0.5000 0.5392(7) 0.7500
C36_4 C 0.4304(2) 0.4433(5) 0.6040(5)
C37_4 C 0.4283(2) 0.4681(5) 0.5324(4)
C38_4 C 0.4564(2) 0.5085(5) 0.5220(5)
H20_4 H 0.4756 0.5189 0.5598
C39_4 C 0.4568(2) 0.5340(5) 0.4568(5)
H21_4 H 0.4764 0.5605 0.4510
C40_4 C 0.4281(2) 0.5203(5) 0.3998(4)
C41_4 C 0.39877(18) 0.4795(4) 0.4105(4)
H22_4 H 0.3792 0.4705 0.3729
C42_4 C 0.39851(18) 0.4530(4) 0.4749(4)
C43_4 C 0.4278(2) 0.5469(5) 0.3284(4)
C44_4 C 0.36703(18) 0.4100(4) 0.4815(4)
C45_4 C 0.37258(18) 0.3412(4) 0.5079(4)
H23_4 H 0.3960 0.3234 0.5219
C46_4 C 0.34322(17) 0.2996(4) 0.5133(3)
C47_4 C 0.30832(18) 0.3282(4) 0.4948(3)
H24_4 H 0.2887 0.3014 0.5001
C48_4 C 0.30254(17) 0.3951(4) 0.4688(4)
C49_4 C 0.33264(18) 0.4360(4) 0.4612(4)
H25_4 H 0.3288 0.4808 0.4421
C50_4 C 0.34841(18) 0.2259(4) 0.5413(3)
C51_4 C 0.2656(2) 0.4267(4) 0.4520(4)
C52_4 C 0.43608(19) 0.2757(4) 0.7480(4)
C53_4 C 0.44389(18) 0.2045(4) 0.7813(4)
C54_4 C 0.47955(19) 0.1844(4) 0.8104(4)
H26_4 H 0.4985 0.2155 0.8107
C55_4 C 0.48691(17) 0.1170(4) 0.8394(4)
C56_4 C 0.45752(19) 0.0716(4) 0.8388(4)
H27_4 H 0.4622 0.0262 0.8562
C57_4 C 0.42214(17) 0.0928(4) 0.8131(4)
C58_4 C 0.41496(17) 0.1592(4) 0.7827(4)
H28_4 H 0.3912 0.1732 0.7635
C59_4 C 0.52464(19) 0.0940(4) 0.8689(4)
C60_4 C 0.39095(18) 0.0461(4) 0.8166(4)
C61_4 C 0.39011(19) 0.0171(4) 0.8796(4)
H29_4 H 0.4096 0.0244 0.9179
C65_4 C 0.36132(19) 0.0360(5) 0.7597(4)
C67_4 C 0.3603(2) 0.0637(4) 0.6875(4)
C68_4 C 0.2638(4) 0.2662(9) 0.6341(9)
H32_4 H 0.2804 0.2273 0.6404
H33_4 H 0.2478 0.2608 0.6646
H34_4 H 0.2499 0.2675 0.5865
C69_4 C 0.2647(3) 0.4012(8) 0.6452(6)
H35_4 H 0.2819 0.4388 0.6579
H36_4 H 0.2509 0.4078 0.5980
H37_4 H 0.2487 0.4011 0.6759
C70_4 C 0.3197(2) 0.3306(5) 0.6669(5)
H38_4 H 0.3314 0.2874 0.6701
N2_4 N 0.2845(2) 0.3324(6) 0.6510(4)
O20_4 O 0.39988(14) 0.4411(3) 0.6232(3)
O21_4 O 0.45968(16) 0.4292(5) 0.6415(4)
O24_4 O 0.32085(13) 0.1934(3) 0.5461(3)
O25_4 O 0.38031(12) 0.2022(3) 0.5569(3)
O27_4 O 0.26092(15) 0.4871(3) 0.4256(4)
O28_4 O 0.40315(12) 0.2938(3) 0.7279(3)
O29_4 O 0.46145(15) 0.3111(3) 0.7401(4)
O30_4 O 0.53122(16) 0.0308(4) 0.8800(5)
O31_4 O 0.54920(12) 0.1409(3) 0.8793(3)
O32_4 O 0.33041(15) 0.0864(4) 0.6534(3)
O33_4 O 0.38766(14) 0.0594(3) 0.6653(3)
O36_4 O 0.33835(13) 0.3860(3) 0.6780(3)
C27_4 C 0.6390(2) 0.9771(4) 0.6120(4)
C28_4 C 0.6681(2) 0.9662(6) 0.6686(5)
H11_4 H 0.6876 0.9391 0.6637
C29_4 C 0.6679(2) 0.9959(6) 0.7330(5)
H12_4 H 0.6875 0.9889 0.7711
C31_4 C 0.6396(2) 0.9479(5) 0.5400(5)
O19_4 O 0.69597(18) 0.9787(3) 0.9469(6)
C62_4 C 0.3610(2) 0.9771(4) 0.8880(4)
C63_4 C 0.3319(2) 0.9662(6) 0.8314(5)
H30_4 H 0.3124 0.9391 0.8363
C64_4 C 0.3321(2) 0.9959(6) 0.7670(5)
H31_4 H 0.3125 0.9889 0.7289
C66_4 C 0.3604(2) 0.9479(5) 0.9600(5)
O37_4 O 0.30403(18) 0.9787(3) 0.5531(6)
H39_4 H 0.299118 0.960004 0.50476
H40_4 H 0.283285 0.967584 0.573565
H41_4 H 0.700882 0.960004 0.99524
H42_4 H 0.716715 0.967584 0.926435
loop_
_geom_bond_atom_site_label_1
_geom_bond_atom_site_label_2
_geom_bond_site_symmetry_1
_geom_bond_site_symmetry_2
O11 C24 1_555 1_555
O12 C24 1_555 1_555
Zn5 O12 1_555 1_555
Zn6 O20 1_555 1_555
Zn7 O24 1_555 1_555
C36 C37 1_555 1_555
H22 C41 1_555 1_555
C42 C37 1_555 1_555
C44 C42 1_555 1_555
C45 C44 1_555 1_555
H23 C45 1_555 1_555
C46 C45 1_555 1_555
C47 C46 1_555 1_555
H24 C47 1_555 1_555
C48 C47 1_555 1_555
C49 C44 1_555 1_555
H25 C49 1_555 1_555
C50 C46 1_555 1_555
C51 C48 1_555 1_555
C52 C53 1_555 1_555
C53 C54 1_555 1_555
C54 H26 1_555 1_555
C55 C54 1_555 1_555
C56 C55 1_555 1_555
H27 C56 1_555 1_555
C57 C56 1_555 1_555
C58 C53 1_555 1_555
H28 C58 1_555 1_555
C60 C57 1_555 1_555
C61 C60 1_555 1_555
H29 C61 1_555 1_555
C62 C61 1_555 1_555
C63 C62 1_555 1_555
H30 C63 1_555 1_555
C64 C63 1_555 1_555
H31 C64 1_555 1_555
C65 C60 1_555 1_555
C66 C62 1_555 1_555
C67 C65 1_555 1_555
C68 H32 1_555 1_555
H33 C68 1_555 1_555
H34 C68 1_555 1_555
C69 H35 1_555 1_555
H36 C69 1_555 1_555
H37 C69 1_555 1_555
C70 H38 1_555 1_555
N2 C68 1_555 1_555
O20 C36 1_555 1_555
O21 Zn4 1_555 1_555
O24 C50 1_555 1_555
O25 Zn5 1_555 1_555
O26 C51 1_555 1_555
O27 C51 1_555 1_555
O28 Zn6 1_555 1_555
O29 Zn4 1_555 1_555
O32 Zn7 1_555 1_555
O33 Zn5 1_555 1_555
O34 C66 1_555 1_555
O36 Zn6 1_555 1_555
O37 Zn7 1_555 1_555
Zn15 O26 1_555 1_555
O38 Zn6 1_555 1_555
O40 Zn4 1_555 1_555
O43 Zn7 1_555 1_555
O44 Zn7 1_555 1_555
O46 Zn5 1_555 1_555
C36 O21 1_555 1_555
C41 C42 1_555 1_555
C48 C49 1_555 1_555
C50 O25 1_555 1_555
C52 O28 1_555 1_555
C52 O29 1_555 1_555
C57 C58 1_555 1_555
C64 C65 1_555 1_555
C67 O32 1_555 1_555
C67 O33 1_555 1_555
C69 N2 1_555 1_555
C70 N2 1_555 1_555
C70 O36 1_555 1_555
O37 H39 1_555 1_555
O37 H40 1_555 1_555
Zn8 O35 1_555 1_555
C38 H20 1_555 1_555
C39 C38 1_555 1_555
H21 C39 1_555 1_555
C40 C39 1_555 1_555
C43 C40 1_555 1_555
O22 C43 1_555 1_555
O23 C43 1_555 1_555
Zn10 O22 1_555 1_555
Zn17 O23 1_555 1_555
O18 H43 1_555 1_555
O18 H44 1_555 1_555
Zn1 O6 1_555 1_555
Zn2 O1 1_555 1_555
Zn3 O5 1_555 1_555
Zn4_2 O2 1_555 1_555
C1 C2 1_555 1_555
H4 C10 1_555 1_555
C11 C10 1_555 1_555
C15 C11 1_555 1_555
C17 C18 1_555 1_555
C18 C19 1_555 1_555
C19 H7 1_555 1_555
C20 C19 1_555 1_555
C21 C20 1_555 1_555
H8 C21 1_555 1_555
C22 C21 1_555 1_555
C23 C18 1_555 1_555
H9 C23 1_555 1_555
C25 C22 1_555 1_555
C26 C25 1_555 1_555
H10 C26 1_555 1_555
C27 C26 1_555 1_555
C28 C27 1_555 1_555
H11 C28 1_555 1_555
C29 C28 1_555 1_555
H12 C29 1_555 1_555
C30 C25 1_555 1_555
C31 C27 1_555 1_555
C32 C30 1_555 1_555
C33 H13 1_555 1_555
H14 C33 1_555 1_555
H15 C33 1_555 1_555
C34 H16 1_555 1_555
H17 C34 1_555 1_555
H18 C34 1_555 1_555
C35 H19 1_555 1_555
N1 C33 1_555 1_555
O1 C1 1_555 1_555
O2 C1 1_555 1_555
O5 C15 1_555 1_555
O6 C15 1_555 1_555
O9 Zn2 1_555 1_555
O10 Zn4_2 1_555 1_555
O13 Zn3 1_555 1_555
O14 Zn1 1_555 1_555
O15 C31 1_555 1_555
O16 C31 1_555 1_555
O17 Zn2 1_555 1_555
O19 Zn3 1_555 1_555
O30 C59 1_555 1_555
O31 Zn1 1_555 1_555
Zn9 O16 1_555 1_555
Zn13 O15 1_555 1_555
O39 Zn2 1_555 1_555
O41 Zn4_2 1_555 1_555
O42 Zn3 1_555 1_555
O47 Zn1 1_555 1_555
C17 O9 1_555 1_555
C17 O10 1_555 1_555
C22 C23 1_555 1_555
C29 C30 1_555 1_555
C32 O13 1_555 1_555
C32 O14 1_555 1_555
C34 N1 1_555 1_555
C35 N1 1_555 1_555
C35 O17 1_555 1_555
C59 O31 1_555 1_555
O19 H41 1_555 1_555
O19 H42 1_555 1_555
H3 C6 1_555 1_555
C9 C7 1_555 1_555
C13 C12 1_555 1_555
C14 C9 1_555 1_555
H6 C14 1_555 1_555
C16 C13 1_555 1_555
O7 C16 1_555 1_555
O8 C16 1_555 1_555
Zn14 O7 1_555 1_555
C6 C7 1_555 1_555
C13 C14 1_555 1_555
C3 H1 1_555 1_555
H2 C4 1_555 1_555
C5 C4 1_555 1_555
C8 C5 1_555 1_555
O3 C8 1_555 1_555
O4 C8 1_555 1_555
Zn11 O3 1_555 1_555
Zn17_2 O4 1_555 1_555
O18_2 H43_2 1_555 1_555
O18_2 H44_2 1_555 1_555
C28_2 C27_2 1_555 1_555
H11_2 C28_2 1_555 1_555
C29_2 C28_2 1_555 1_555
H12_2 C29_2 1_555 1_555
C31_2 C27_2 1_555 1_555
O15_2 C31_2 1_555 1_555
O16_2 C31_2 1_555 1_555
C63_2 C62_2 1_555 1_555
H30_2 C63_2 1_555 1_555
C64_2 C63_2 1_555 1_555
H31_2 C64_2 1_555 1_555
C66_2 C62_2 1_555 1_555
O34_2 C66_2 1_555 1_555
Zn9_2 O16_2 1_555 1_555
Zn15 O15_2 1_555 1_555
O37_2 H39_2 1_555 1_555
O37_2 H40_2 1_555 1_555
O19_2 H41_2 1_555 1_555
O19_2 H42_2 1_555 1_555
Zn8_2 O35_2 1_555 1_555
Zn1_2 O6_2 1_555 1_555
Zn2_2 O1_2 1_555 1_555
Zn3_2 O5_2 1_555 1_555
Zn4_3 O2_2 1_555 1_555
C1_2 C2_2 1_555 1_555
C2_2 C3_2 1_555 1_555
C3_2 H1_2 1_555 1_555
H4_2 C10_2 1_555 1_555
C11_2 C10_2 1_555 1_555
C15_2 C11_2 1_555 1_555
C17_2 C18_2 1_555 1_555
C18_2 C19_2 1_555 1_555
C19_2 H7_2 1_555 1_555
C20_2 C19_2 1_555 1_555
C21_2 C20_2 1_555 1_555
H8_2 C21_2 1_555 1_555
C22_2 C21_2 1_555 1_555
C23_2 C18_2 1_555 1_555
H9_2 C23_2 1_555 1_555
C24_2 C20_2 1_555 1_555
C25_2 C22_2 1_555 1_555
C26_2 C25_2 1_555 1_555
H10_2 C26_2 1_555 1_555
C30_2 C25_2 1_555 1_555
C32_2 C30_2 1_555 1_555
C33_2 H13_2 1_555 1_555
H14_2 C33_2 1_555 1_555
H15_2 C33_2 1_555 1_555
C34_2 H16_2 1_555 1_555
H17_2 C34_2 1_555 1_555
H18_2 C34_2 1_555 1_555
C35_2 H19_2 1_555 1_555
N1_2 C33_2 1_555 1_555
O1_2 C1_2 1_555 1_555
O2_2 C1_2 1_555 1_555
O5_2 C15_2 1_555 1_555
O6_2 C15_2 1_555 1_555
O9_2 Zn2_2 1_555 1_555
O10_2 Zn4_3 1_555 1_555
O11_2 C24_2 1_555 1_555
O12_2 C24_2 1_555 1_555
O13_2 Zn3_2 1_555 1_555
O14_2 Zn1_2 1_555 1_555
O17_2 Zn2_2 1_555 1_555
O18_3 Zn4_3 1_555 1_555
Zn5_2 O12_2 1_555 1_555
Zn6_2 O20_2 1_555 1_555
Zn7_2 O24_2 1_555 1_555
C36_2 C37_2 1_555 1_555
C37_2 C38_2 1_555 1_555
C38_2 H20_2 1_555 1_555
C39_2 C38_2 1_555 1_555
H21_2 C39_2 1_555 1_555
C40_2 C39_2 1_555 1_555
C41_2 C40_2 1_555 1_555
H22_2 C41_2 1_555 1_555
C42_2 C37_2 1_555 1_555
C43_2 C40_2 1_555 1_555
C44_2 C42_2 1_555 1_555
C45_2 C44_2 1_555 1_555
H23_2 C45_2 1_555 1_555
C46_2 C45_2 1_555 1_555
C47_2 C46_2 1_555 1_555
H24_2 C47_2 1_555 1_555
C48_2 C47_2 1_555 1_555
C49_2 C44_2 1_555 1_555
H25_2 C49_2 1_555 1_555
C50_2 C46_2 1_555 1_555
C51_2 C48_2 1_555 1_555
C52_2 C53_2 1_555 1_555
C53_2 C54_2 1_555 1_555
C54_2 H26_2 1_555 1_555
C55_2 C54_2 1_555 1_555
C56_2 C55_2 1_555 1_555
H27_2 C56_2 1_555 1_555
C57_2 C56_2 1_555 1_555
C58_2 C53_2 1_555 1_555
H28_2 C58_2 1_555 1_555
C59_2 C55_2 1_555 1_555
C60_2 C57_2 1_555 1_555
C61_2 C60_2 1_555 1_555
H29_2 C61_2 1_555 1_555
C65_2 C60_2 1_555 1_555
C67_2 C65_2 1_555 1_555
C68_2 H32_2 1_555 1_555
H33_2 C68_2 1_555 1_555
H34_2 C68_2 1_555 1_555
C69_2 H35_2 1_555 1_555
H36_2 C69_2 1_555 1_555
H37_2 C69_2 1_555 1_555
C70_2 H38_2 1_555 1_555
N2_2 C68_2 1_555 1_555
O20_2 C36_2 1_555 1_555
O21_2 Zn4_3 1_555 1_555
O22_2 C43_2 1_555 1_555
O23_2 C43_2 1_555 1_555
O24_2 C50_2 1_555 1_555
O25_2 Zn5_2 1_555 1_555
O26_2 C51_2 1_555 1_555
O27_2 C51_2 1_555 1_555
O28_2 Zn6_2 1_555 1_555
O29_2 Zn4_3 1_555 1_555
O30_2 C59_2 1_555 1_555
O31_2 Zn1_2 1_555 1_555
O32_2 Zn7_2 1_555 1_555
O33_2 Zn5_2 1_555 1_555
O36_2 Zn6_2 1_555 1_555
Zn10_2 O22_2 1_555 1_555
Zn13 O26_2 1_555 1_555
Zn17_3 O23_2 1_555 1_555
O38_2 Zn6_2 1_555 1_555
O39_2 Zn2_2 1_555 1_555
O40_2 Zn4_3 1_555 1_555
O41_2 Zn4_3 1_555 1_555
O42_2 Zn3_2 1_555 1_555
O43_2 Zn7_2 1_555 1_555
O44_2 Zn7_2 1_555 1_555
O46_2 Zn5_2 1_555 1_555
O47_2 Zn1_2 1_555 1_555
C17_2 O9_2 1_555 1_555
C17_2 O10_2 1_555 1_555
C22_2 C23_2 1_555 1_555
C32_2 O13_2 1_555 1_555
C32_2 O14_2 1_555 1_555
C34_2 N1_2 1_555 1_555
C35_2 N1_2 1_555 1_555
C35_2 O17_2 1_555 1_555
C36_2 O21_2 1_555 1_555
C41_2 C42_2 1_555 1_555
C48_2 C49_2 1_555 1_555
C50_2 O25_2 1_555 1_555
C52_2 O28_2 1_555 1_555
C52_2 O29_2 1_555 1_555
C57_2 C58_2 1_555 1_555
C59_2 O31_2 1_555 1_555
C67_2 O32_2 1_555 1_555
C67_2 O33_2 1_555 1_555
C69_2 N2_2 1_555 1_555
C70_2 N2_2 1_555 1_555
C70_2 O36_2 1_555 1_555
H2_2 C4_2 1_555 1_555
C5_2 C4_2 1_555 1_555
C6_2 C5_2 1_555 1_555
H3_2 C6_2 1_555 1_555
C8_2 C5_2 1_555 1_555
C9_2 C7_2 1_555 1_555
C13_2 C12_2 1_555 1_555
C14_2 C9_2 1_555 1_555
H6_2 C14_2 1_555 1_555
C16_2 C13_2 1_555 1_555
O3_2 C8_2 1_555 1_555
O4_2 C8_2 1_555 1_555
O7_2 C16_2 1_555 1_555
O8_2 C16_2 1_555 1_555
Zn11_2 O3_2 1_555 1_555
Zn12 O7_2 1_555 1_555
Zn17_3 O4_2 1_555 1_555
C6_2 C7_2 1_555 1_555
C13_2 C14_2 1_555 1_555
H2_3 C4_3 1_555 1_555
C5_3 C4_3 1_555 1_555
C8_3 C5_3 1_555 1_555
O38 C8_3 1_555 1_555
O40 C8_3 1_555 1_555
C3_3 H1_3 1_555 1_555
H3_3 C6_3 1_555 1_555
C9_3 C7_3 1_555 1_555
C13_3 C12_3 1_555 1_555
C14_3 C9_3 1_555 1_555
H6_3 C14_3 1_555 1_555
C16_3 C13_3 1_555 1_555
O42_2 C16_3 1_555 1_555
O8_3 C16_3 1_555 1_555
C6_3 C7_3 1_555 1_555
C13_3 C14_3 1_555 1_555
Zn8 O6_3 1_555 1_555
Zn10 O1_3 1_555 1_555
Zn12 O5_3 1_555 1_555
Zn17 O2_3 1_555 1_555
C1_3 C2_3 1_555 1_555
H4_3 C10_3 1_555 1_555
C11_3 C10_3 1_555 1_555
C15_3 C11_3 1_555 1_555
C17_3 C18_3 1_555 1_555
C18_3 C19_3 1_555 1_555
C19_3 H7_3 1_555 1_555
C20_3 C19_3 1_555 1_555
C21_3 C20_3 1_555 1_555
H8_3 C21_3 1_555 1_555
C22_3 C21_3 1_555 1_555
C23_3 C18_3 1_555 1_555
H9_3 C23_3 1_555 1_555
C25_3 C22_3 1_555 1_555
C26_3 C25_3 1_555 1_555
H10_3 C26_3 1_555 1_555
C27_3 C26_3 1_555 1_555
C28_3 C27_3 1_555 1_555
H11_3 C28_3 1_555 1_555
C29_3 C28_3 1_555 1_555
H12_3 C29_3 1_555 1_555
C30_3 C25_3 1_555 1_555
C31_3 C27_3 1_555 1_555
C32_3 C30_3 1_555 1_555
C33_3 H13_3 1_555 1_555
H14_3 C33_3 1_555 1_555
H15_3 C33_3 1_555 1_555
C34_3 H16_3 1_555 1_555
H17_3 C34_3 1_555 1_555
H18_3 C34_3 1_555 1_555
C35_3 H19_3 1_555 1_555
N1_3 C33_3 1_555 1_555
O1_3 C1_3 1_555 1_555
O2_3 C1_3 1_555 1_555
O5_3 C15_3 1_555 1_555
O6_3 C15_3 1_555 1_555
O9_3 Zn10 1_555 1_555
O10_3 Zn17 1_555 1_555
O13_3 Zn12 1_555 1_555
O14_3 Zn8 1_555 1_555
O44 C31_3 1_555 1_555
O46 C31_3 1_555 1_555
O17_3 Zn10 1_555 1_555
O19_3 Zn12 1_555 1_555
O30_3 C59_3 1_555 1_555
O31_3 Zn8 1_555 1_555
C17_3 O9_3 1_555 1_555
C17_3 O10_3 1_555 1_555
C22_3 C23_3 1_555 1_555
C29_3 C30_3 1_555 1_555
C32_3 O13_3 1_555 1_555
C32_3 O14_3 1_555 1_555
C34_3 N1_3 1_555 1_555
C35_3 N1_3 1_555 1_555
C35_3 O17_3 1_555 1_555
C59_3 O31_3 1_555 1_555
O19_3 H41_3 1_555 1_555
O19_3 H42_3 1_555 1_555
C38_3 H20_3 1_555 1_555
C39_3 C38_3 1_555 1_555
H21_3 C39_3 1_555 1_555
C40_3 C39_3 1_555 1_555
C43_3 C40_3 1_555 1_555
O39 C43_3 1_555 1_555
O41 C43_3 1_555 1_555
O18_5 H43_3 1_555 1_555
O18_5 H44_3 1_555 1_555
O11_3 C24_3 1_555 1_555
O12_3 C24_3 1_555 1_555
Zn9 O12_3 1_555 1_555
Zn11 O20_3 1_555 1_555
Zn13 O24_3 1_555 1_555
C36_3 C37_3 1_555 1_555
H22_3 C41_3 1_555 1_555
C42_3 C37_3 1_555 1_555
C44_3 C42_3 1_555 1_555
C45_3 C44_3 1_555 1_555
H23_3 C45_3 1_555 1_555
C46_3 C45_3 1_555 1_555
C47_3 C46_3 1_555 1_555
H24_3 C47_3 1_555 1_555
C48_3 C47_3 1_555 1_555
C49_3 C44_3 1_555 1_555
H25_3 C49_3 1_555 1_555
C50_3 C46_3 1_555 1_555
C51_3 C48_3 1_555 1_555
C52_3 C53_3 1_555 1_555
C53_3 C54_3 1_555 1_555
C54_3 H26_3 1_555 1_555
C55_3 C54_3 1_555 1_555
C56_3 C55_3 1_555 1_555
H27_3 C56_3 1_555 1_555
C57_3 C56_3 1_555 1_555
C58_3 C53_3 1_555 1_555
H28_3 C58_3 1_555 1_555
C60_3 C57_3 1_555 1_555
C61_3 C60_3 1_555 1_555
H29_3 C61_3 1_555 1_555
C62_3 C61_3 1_555 1_555
C63_3 C62_3 1_555 1_555
H30_3 C63_3 1_555 1_555
C64_3 C63_3 1_555 1_555
H31_3 C64_3 1_555 1_555
C65_3 C60_3 1_555 1_555
C66_3 C62_3 1_555 1_555
C67_3 C65_3 1_555 1_555
C68_3 H32_3 1_555 1_555
H33_3 C68_3 1_555 1_555
H34_3 C68_3 1_555 1_555
C69_3 H35_3 1_555 1_555
H36_3 C69_3 1_555 1_555
H37_3 C69_3 1_555 1_555
C70_3 H38_3 1_555 1_555
N2_3 C68_3 1_555 1_555
O20_3 C36_3 1_555 1_555
O21_3 Zn17_2 1_555 1_555
O24_3 C50_3 1_555 1_555
O25_3 Zn9 1_555 1_555
O43_2 C51_3 1_555 1_555
O27_3 C51_3 1_555 1_555
O28_3 Zn11 1_555 1_555
O29_3 Zn17_2 1_555 1_555
O32_3 Zn13 1_555 1_555
O33_3 Zn9 1_555 1_555
O45 C66_3 1_555 1_555
O36_3 Zn11 1_555 1_555
O37_3 Zn13 1_555 1_555
C36_3 O21_3 1_555 1_555
C41_3 C42_3 1_555 1_555
C48_3 C49_3 1_555 1_555
C50_3 O25_3 1_555 1_555
C52_3 O28_3 1_555 1_555
C52_3 O29_3 1_555 1_555
C57_3 C58_3 1_555 1_555
C64_3 C65_3 1_555 1_555
C67_3 O32_3 1_555 1_555
C67_3 O33_3 1_555 1_555
C69_3 N2_3 1_555 1_555
C70_3 N2_3 1_555 1_555
C70_3 O36_3 1_555 1_555
O37_3 H39_3 1_555 1_555
O37_3 H40_3 1_555 1_555
O18_4 H43_4 1_555 1_555
O18_4 H44_4 1_555 1_555
H2_4 C4_4 1_555 1_555
C5_4 C4_4 1_555 1_555
C6_4 C5_4 1_555 1_555
H3_4 C6_4 1_555 1_555
C8_4 C5_4 1_555 1_555
C9_4 C7_4 1_555 1_555
C13_4 C12_4 1_555 1_555
C14_4 C9_4 1_555 1_555
H6_4 C14_4 1_555 1_555
C16_4 C13_4 1_555 1_555
O38_2 C8_4 1_555 1_555
O40_2 C8_4 1_555 1_555
O42 C16_4 1_555 1_555
O8_4 C16_4 1_555 1_555
C6_4 C7_4 1_555 1_555
C13_4 C14_4 1_555 1_555
Zn8_2 O6_4 1_555 1_555
Zn10_2 O1_4 1_555 1_555
Zn14 O5_4 1_555 1_555
Zn17_3 O2_4 1_555 1_555
C1_4 C2_4 1_555 1_555
C2_4 C3_4 1_555 1_555
C3_4 H1_4 1_555 1_555
H4_4 C10_4 1_555 1_555
C11_4 C10_4 1_555 1_555
C15_4 C11_4 1_555 1_555
C17_4 C18_4 1_555 1_555
C18_4 C19_4 1_555 1_555
C19_4 H7_4 1_555 1_555
C20_4 C19_4 1_555 1_555
C21_4 C20_4 1_555 1_555
H8_4 C21_4 1_555 1_555
C22_4 C21_4 1_555 1_555
C23_4 C18_4 1_555 1_555
H9_4 C23_4 1_555 1_555
C24_4 C20_4 1_555 1_555
C25_4 C22_4 1_555 1_555
C26_4 C25_4 1_555 1_555
H10_4 C26_4 1_555 1_555
C30_4 C25_4 1_555 1_555
C32_4 C30_4 1_555 1_555
C33_4 H13_4 1_555 1_555
H14_4 C33_4 1_555 1_555
H15_4 C33_4 1_555 1_555
C34_4 H16_4 1_555 1_555
H17_4 C34_4 1_555 1_555
H18_4 C34_4 1_555 1_555
C35_4 H19_4 1_555 1_555
N1_4 C33_4 1_555 1_555
O1_4 C1_4 1_555 1_555
O2_4 C1_4 1_555 1_555
O5_4 C15_4 1_555 1_555
O6_4 C15_4 1_555 1_555
O9_4 Zn10_2 1_555 1_555
O10_4 Zn17_3 1_555 1_555
O11_4 C24_4 1_555 1_555
O12_4 C24_4 1_555 1_555
O13_4 Zn14 1_555 1_555
O14_4 Zn8_2 1_555 1_555
O17_4 Zn10_2 1_555 1_555
O18_6 Zn17_3 1_555 1_555
Zn9_2 O12_4 1_555 1_555
Zn11_2 O20_4 1_555 1_555
Zn15 O24_4 1_555 1_555
C36_4 C37_4 1_555 1_555
C37_4 C38_4 1_555 1_555
C38_4 H20_4 1_555 1_555
C39_4 C38_4 1_555 1_555
H21_4 C39_4 1_555 1_555
C40_4 C39_4 1_555 1_555
C41_4 C40_4 1_555 1_555
H22_4 C41_4 1_555 1_555
C42_4 C37_4 1_555 1_555
C43_4 C40_4 1_555 1_555
C44_4 C42_4 1_555 1_555
C45_4 C44_4 1_555 1_555
H23_4 C45_4 1_555 1_555
C46_4 C45_4 1_555 1_555
C47_4 C46_4 1_555 1_555
H24_4 C47_4 1_555 1_555
C48_4 C47_4 1_555 1_555
C49_4 C44_4 1_555 1_555
H25_4 C49_4 1_555 1_555
C50_4 C46_4 1_555 1_555
C51_4 C48_4 1_555 1_555
C52_4 C53_4 1_555 1_555
C53_4 C54_4 1_555 1_555
C54_4 H26_4 1_555 1_555
C55_4 C54_4 1_555 1_555
C56_4 C55_4 1_555 1_555
H27_4 C56_4 1_555 1_555
C57_4 C56_4 1_555 1_555
C58_4 C53_4 1_555 1_555
H28_4 C58_4 1_555 1_555
C59_4 C55_4 1_555 1_555
C60_4 C57_4 1_555 1_555
C61_4 C60_4 1_555 1_555
H29_4 C61_4 1_555 1_555
C65_4 C60_4 1_555 1_555
C67_4 C65_4 1_555 1_555
C68_4 H32_4 1_555 1_555
H33_4 C68_4 1_555 1_555
H34_4 C68_4 1_555 1_555
C69_4 H35_4 1_555 1_555
H36_4 C69_4 1_555 1_555
H37_4 C69_4 1_555 1_555
C70_4 H38_4 1_555 1_555
N2_4 C68_4 1_555 1_555
O20_4 C36_4 1_555 1_555
O21_4 Zn17_3 1_555 1_555
O39_2 C43_4 1_555 1_555
O41_2 C43_4 1_555 1_555
O24_4 C50_4 1_555 1_555
O25_4 Zn9_2 1_555 1_555
O43 C51_4 1_555 1_555
O27_4 C51_4 1_555 1_555
O28_4 Zn11_2 1_555 1_555
O29_4 Zn17_3 1_555 1_555
O30_4 C59_4 1_555 1_555
O31_4 Zn8_2 1_555 1_555
O32_4 Zn15 1_555 1_555
O33_4 Zn9_2 1_555 1_555
O36_4 Zn11_2 1_555 1_555
C17_4 O9_4 1_555 1_555
C17_4 O10_4 1_555 1_555
C22_4 C23_4 1_555 1_555
C32_4 O13_4 1_555 1_555
C32_4 O14_4 1_555 1_555
C34_4 N1_4 1_555 1_555
C35_4 N1_4 1_555 1_555
C35_4 O17_4 1_555 1_555
C36_4 O21_4 1_555 1_555
C41_4 C42_4 1_555 1_555
C48_4 C49_4 1_555 1_555
C50_4 O25_4 1_555 1_555
C52_4 O28_4 1_555 1_555
C52_4 O29_4 1_555 1_555
C57_4 C58_4 1_555 1_555
C59_4 O31_4 1_555 1_555
C67_4 O32_4 1_555 1_555
C67_4 O33_4 1_555 1_555
C69_4 N2_4 1_555 1_555
C70_4 N2_4 1_555 1_555
C70_4 O36_4 1_555 1_555
C28_4 C27_4 1_555 1_555
H11_4 C28_4 1_555 1_555
C29_4 C28_4 1_555 1_555
H12_4 C29_4 1_555 1_555
C31_4 C27_4 1_555 1_555
O44_2 C31_4 1_555 1_555
O46_2 C31_4 1_555 1_555
C63_4 C62_4 1_555 1_555
H30_4 C63_4 1_555 1_555
C64_4 C63_4 1_555 1_555
H31_4 C64_4 1_555 1_555
C66_4 C62_4 1_555 1_555
O45_2 C66_4 1_555 1_555
O37_4 H39_4 1_555 1_555
O37_4 H40_4 1_555 1_555
O19_4 H41_4 1_555 1_555
O19_4 H42_4 1_555 1_555

#END
