
###############################################################################
#
# This file contains modified crystal structure data generated from the
# MOF subset of the Cambridge Structural Database (CSD) v543 
# hosted by the Cambridge Crystallographic Data Centre (CCDC).
#
# This work is licensed under the Creative Commons
# Attribution-NonCommercial-ShareAlike 4.0 International License.
# To view a copy of this license, visit
# http://creativecommons.org/licenses/by-nc-sa/4.0/
# or send a letter to
# Creative Commons, PO Box 1866, Mountain View, CA 94042, USA.
#
# CIF created using the CSD Python API on 29 September 2022
# The structure has been converted into the P1 space group
# The structure has a 3D framework
# The original CSD entry XUFXED is in the triclinic crystal system
# The framework has been calculated to contain at least 10.0% void space
# The void calculation uses a probe of radius 1.32A, grid spacing 0.4
# The framework is charged, counterions have been retained in the structure
# H atom positions have been added when not included in the experimental data
#
###############################################################################

data_XUFXED
_chemical_formula_moiety         '(C288 H308 Cu16 Mo40 N48 O218 P16)n'
_symmetry_cell_setting           triclinic
_symmetry_space_group_name_H-M   'P 1'
_symmetry_Int_Tables_number      1
_space_group_name_Hall           'P 1'
loop_
_symmetry_equiv_pos_site_id
_symmetry_equiv_pos_as_xyz
1 x,y,z
_cell_length_a                   18.861(5)
_cell_length_b                   22.039(5)
_cell_length_c                   29.586(5)
_cell_angle_alpha                90.024(5)
_cell_angle_beta                 90.018(5)
_cell_angle_gamma                90.002(5)
_cell_volume                     12298.2
loop_
_atom_site_label
_atom_site_type_symbol
_atom_site_fract_x
_atom_site_fract_y
_atom_site_fract_z
Mo14 Mo 0.14283(10) 0.31286(9) 0.13103(7)
Mo20 Mo 0.14173(10) 0.17461(9) 0.08044(7)
P6 P 0.0064(3) 0.2876(3) 0.0573(2)
P8 P 0.0276(3) 0.1954(3) 0.1626(2)
O8 O 0.0492(7) 0.2631(6) 0.1692(5)
O26 O 0.0901(7) 0.1573(6) 0.1467(5)
O38 O 0.1956(8) 0.3568(7) 0.0980(5)
O42 O 0.1915(8) 0.1129(7) 0.0924(5)
O62 O 0.1793(7) 0.3237(6) 0.1842(5)
O64 O 0.0623(7) 0.3665(7) 0.1333(5)
O72 O 0.1868(7) 0.2361(6) 0.1172(5)
O74 O 0.0789(7) 0.2689(6) 0.0789(5)
O80 O 0.0555(7) 0.1402(6) 0.0589(5)
O96 O 0.1757(7) 0.1982(6) 0.0294(5)
O107 O 0.004(2) 0.090(3) 0.2899(15)
C20 C 0.0271(12) 0.3526(11) 0.0199(8)
H31 H 0.0659 0.3759 0.0327
H71 H 0.0383 0.1705 0.2379
Cu20 Cu 0.25001(14) 0.32675(12) 0.25007(10)
O100 O 0.0158(14) 0.4275(12) 0.9436(9)
H32 H 0.0421 0.3376 0.9905
Cu14 Cu 0.23041(14) 0.20210(12) 0.96070(9)
N11 N 0.2521(9) 0.2351(7) 0.2501(6)
C1 C 0.2527(14) 0.1397(14) 0.2100(11)
H11 H 0.2521 0.1188 0.1827
C40 C 0.1961(12) 0.0117(11) 0.2727(8)
H49 H 0.1624 0.0316 0.2902
C48 C 0.2497(13) 0.2045(13) 0.2883(10)
H55 H 0.2502 0.2264 0.3151
C76 C 0.2551(13) 0.2075(13) 0.2094(10)
H83 H 0.2584 0.2293 0.1826
C97 C 0.3053(14) 0.0119(13) 0.2300(9)
H99 H 0.3444 0.0323 0.2184
C111 C 0.2515(15) 0.1088(14) 0.2482(11)
C118 C 0.2486(12) 0.0417(10) 0.2493(8)
C124 C 0.2465(13) 0.1402(13) 0.2912(10)
H122 H 0.2415 0.1198 0.3185
Mo1 Mo 0.86413(10) 0.23720(9) 0.12606(7)
Mo3 Mo 0.63595(10) 0.73752(9) 0.12592(7)
Mo5 Mo 0.95392(10) 0.14411(9) 0.05542(7)
Mo7 Mo 0.54630(10) 0.64407(9) 0.05529(7)
Mo9 Mo 0.52577(10) 0.84746(9) 0.16345(7)
Mo11 Mo 0.97443(10) 0.34739(9) 0.16351(7)
Mo13 Mo 0.14170(10) 0.67456(9) 0.41958(7)
Mo15 Mo 0.35848(10) 0.67466(9) 0.08030(7)
Mo17 Mo 0.35725(10) 0.81271(9) 0.13091(7)
Mo18 Mo 0.14286(10) 0.81262(9) 0.36899(7)
P3 P 0.4933(3) 0.7876(3) 0.0573(2)
P4 P 0.0062(3) 0.7879(3) 0.4427(2)
P5 P 0.4726(3) 0.6959(3) 0.1627(2)
P7 P 0.0272(3) 0.6956(3) 0.3375(2)
O1 O 0.0486(6) 0.7626(6) 0.3301(4)
O2 O 0.496(2) 0.5708(19) 0.2930(15)
O3 O 0.4509(6) 0.7637(6) 0.1686(4)
O4 O 0.8713(7) 0.1912(6) 0.0695(4)
O6 O 0.1922(7) 0.6132(7) 0.4076(5)
O9 O 0.9654(7) 0.1891(6) 0.1289(4)
O13 O 0.5343(7) 0.6900(6) 0.1292(5)
O15 O 0.5478(7) 0.8029(6) 0.0948(5)
O16 O 0.9799(7) 0.2368(6) 0.0271(5)
O20 O 0.7019(7) 0.7860(6) 0.1073(5)
O22 O 0.0791(6) 0.7691(6) 0.4218(4)
O27 O 0.1787(7) 0.8225(6) 0.3160(5)
O31 O 0.6795(7) 0.6853(6) 0.1588(5)
O34 O 0.5198(7) 0.7361(6) 0.0278(5)
O40 O 0.9238(7) 0.4088(7) 0.1456(5)
O43 O 0.7990(7) 0.2868(7) 0.1081(5)
O44 O 0.6216(10) 0.5633(9) 0.2683(7)
O45 O 0.6291(6) 0.6923(6) 0.0702(4)
O46 O 0.6732(6) 0.7879(6) 0.0098(5)
H10 H 0.6540 0.7491 0.0179
O48 O 0.9519(7) 0.3032(6) 0.0940(5)
O50 O 0.5951(7) 0.7846(6) 0.1734(4)
O51 O 0.4382(7) 0.8673(7) 0.1333(5)
O52 O 0.0614(7) 0.8692(6) 0.3662(5)
O53 O 0.3208(7) 0.8223(7) 0.1841(5)
O55 O 0.4442(7) 0.6414(6) 0.0585(5)
O56 O 0.0886(7) 0.6571(6) 0.3540(5)
O57 O 0.1928(7) 0.8577(6) 0.4020(5)
O60 O 0.9356(7) 0.0789(7) 0.0843(5)
O63 O 0.3053(8) 0.8573(7) 0.0980(5)
O65 O 0.8268(7) 0.2880(6) 0.0085(5)
O66 O 0.3079(7) 0.6122(7) 0.0928(5)
O67 O 0.1750(7) 0.6984(7) 0.4697(5)
O70 O 0.4215(7) 0.7689(7) 0.0787(5)
O73 O 0.8203(7) 0.1844(7) 0.1583(5)
O77 O 0.0065(13) 0.9226(12) 0.5572(10)
O81 O 0.9351(7) 0.1222(7) 0.0015(5)
O82 O 0.9909(7) 0.3671(7) 0.2176(5)
O83 O 0.5654(8) 0.5781(7) 0.0852(5)
O84 O 0.0551(7) 0.6406(6) 0.4411(5)
O86 O 0.5076(8) 0.8668(7) 0.2183(5)
O87 O 0.4120(7) 0.6576(7) 0.1471(5)
O88 O 0.3133(7) 0.7363(6) 0.1169(4)
O90 O 0.5760(7) 0.9084(7) 0.1449(5)
O94 O 0.9062(7) 0.2851(6) 0.1737(5)
O95 O 0.1855(7) 0.7350(6) 0.3811(5)
O98 O 0.5629(7) 0.6229(7) 0.0015(5)
O106 O 0.8819(9) 0.0637(8) 0.2663(6)
Cu3 Cu 0.73036(14) 0.29795(12) 0.03921(9)
Cu4 Cu 0.76959(14) 0.79790(12) 0.03930(9)
Cu8 Cu 0.25011(15) 0.82655(13) 0.25013(10)
N9 N 0.2495(9) 0.4164(8) 0.2490(6)
N10 N 0.2491(9) 0.7369(8) 0.2498(7)
N12 N 0.2502(9) 0.9182(8) 0.2499(6)
N13 N 0.7825(8) 0.7070(8) 0.0399(6)
N14 N 0.7453(8) 0.3886(7) 0.0411(5)
N16 N 0.7154(9) 0.2059(8) 0.0393(6)
N17 N 0.3339(9) 0.3276(8) 0.2105(6)
N18 N 0.6407(8) 0.3093(7) 0.0737(6)
N19 N 0.1659(9) 0.3292(8) 0.2907(6)
N21 N 0.1669(9) 0.8280(8) 0.2085(6)
C3 C 0.2530(14) 0.7066(13) 0.2869(10)
H13 H 0.2565 0.7287 0.3136
C9 C 0.1671(12) 0.3519(10) 0.3329(8)
H19 H 0.2094 0.3681 0.3438
C11 C 0.2998(12) 0.9487(11) 0.2293(8)
H21 H 0.3337 0.9270 0.2132
C13 C 0.9668(18) 0.1066(11) 0.2164(12)
H23 H 0.9996 0.0801 0.2007
H24 H 0.9234 0.1079 0.1989
C14 C 0.9677(17) 0.3902(16) 0.0146(12)
H25 H 0.9646 0.4170 0.0405
H26 H 0.9254 0.3651 0.0144
C15 C 0.0467(11) 0.8238(10) 0.1535(7)
C16 C 0.2505(13) 0.6414(12) 0.2084(10)
H27 H 0.2523 0.6215 0.1807
C23 C 0.5387(19) 0.8908(16) 0.0138(12)
H34 H 0.5784 0.8638 0.0083
H35 H 0.5495 0.9146 0.0405
C24 C 0.7043(11) 0.1132(11) 0.0781(8)
H36 H 0.6916 0.0925 0.1043
C25 C 0.2012(13) 0.4470(11) 0.2280(9)
H37 H 0.1688 0.4260 0.2102
H39 H 0.0258 0.2953 0.4341
C29 C 0.564(3) 0.578(2) 0.2550(15)
C31 C 0.4574(13) 0.3002(11) 0.1965(9)
H42 H 0.4985 0.2811 0.2064
C32 C 0.9501(12) 0.0782(18) 0.2623(12)
C34 C 0.3026(17) 0.5092(15) 0.2706(11)
H43 H 0.3413 0.5288 0.2835
C38 C 0.7994(11) 0.6773(10) 0.0753(8)
H46 H 0.8166 0.6988 0.1001
C43 C 0.7727(11) 0.5806(10) 0.0405(8)
C44 C 0.2996(13) 0.4443(12) 0.2713(9)
H52 H 0.3330 0.4221 0.2874
C45 C 0.1980(13) 0.9501(11) 0.2678(8)
H53 H 0.1588 0.9285 0.2781
C47 C 0.2511(14) 0.6089(13) 0.2493(10)
C50 C 0.0433(12) 0.3025(10) 0.3044(8)
H57 H 0.0011 0.2863 0.2935
C51 C 0.2523(12) 0.6409(12) 0.2906(9)
H58 H 0.2528 0.6212 0.3184
C56 C 0.0238(12) 0.8551(10) 0.4768(8)
H62 H 0.0478 0.8426 0.5043
H63 H 0.0560 0.8812 0.4602
C57 C 0.6997(12) 0.4253(10) 0.0214(8)
H64 H 0.6607 0.4081 0.0069
C59 C 0.1094(12) 0.3520(11) 0.3604(9)
H65 H 0.1124 0.3707 0.3886
C61 C 0.3340(12) 0.3521(10) 0.1690(8)
H67 H 0.2928 0.3721 0.1601
C62 C 0.7620(11) 0.6133(10) 0.0001(8)
C66 C 0.9983(12) 0.1700(10) 0.2172(8)
H72 H 0.9631 0.1981 0.2286
C69 C 0.7934(11) 0.6132(10) 0.0788(8)
H75 H 0.8030 0.5934 0.1059
C70 C 0.1954(14) 0.5105(13) 0.2308(9)
H76 H 0.1562 0.5306 0.2191
C72 C 0.7628(10) 0.6755(10) 0.0017(8)
C74 C 0.3963(12) 0.3038(11) 0.2233(9)
H81 H 0.3993 0.2885 0.2525
H82 H 0.8257 0.0118 0.0078
C77 C 0.7364(11) 0.1132(11) 0.0013(8)
C78 C 0.7343(11) 0.0141(10) 0.0426(8)
H85 H 0.0260 0.7898 0.0668
C82 C 0.7337(10) 0.1749(10) 0.0028(7)
C83 C 0.1104(11) 0.8496(10) 0.1397(8)
H87 H 0.1142 0.8655 0.1107
C84 C 0.1664(12) 0.8521(10) 0.1674(8)
H88 H 0.2071 0.8717 0.1572
C85 C 0.2472(12) 0.7051(11) 0.2108(9)
H89 H 0.2435 0.7266 0.1839
C86 C 0.7640(11) 0.5148(10) 0.0426(7)
C88 C 0.7262(11) 0.0826(10) 0.0403(8)
C89 C 0.0442(13) 0.8004(11) 0.1978(9)
H90 H 0.0031 0.7830 0.2093
C92 C 0.4762(13) 0.8547(12) 0.0226(9)
H93 H 0.4413 0.8798 0.0378
C94 C 0.7017(11) 0.1752(11) 0.0761(8)
H96 H 0.6897 0.1965 0.1021
C98 C 0.1034(12) 0.3041(11) 0.2772(9)
H100 H 0.1007 0.2873 0.2484
C101 C 0.5020(11) 0.6694(10) 0.2181(7)
H102 H 0.5385 0.6959 0.2299
H103 H 0.4625 0.6690 0.2391
C105 C 0.6455(12) 0.3296(10) 0.1156(8)
H107 H 0.6900 0.3399 0.1268
C110 C 0.0472(11) 0.3253(10) 0.3477(8)
C113 C 0.3894(12) 0.3508(11) 0.1379(9)
H113 H 0.3845 0.3647 0.1084
C114 C 0.7063(12) 0.4888(11) 0.0208(8)
H114 H 0.6728 0.5128 0.0062
C117 C 0.5159(13) 0.3018(11) 0.0812(9)
H117 H 0.4730 0.2897 0.0686
C122 C 0.8090(12) 0.4768(10) 0.0632(8)
H121 H 0.8484 0.4931 0.0777
C126 C 0.5779(12) 0.2990(11) 0.0547(9)
H124 H 0.5750 0.2901 0.0240
C127 C 0.7997(12) 0.4131(11) 0.0642(8)
H125 H 0.8307 0.3887 0.0805
H131 H 0.0360 0.6707 0.2623
C134 C 0.1060(11) 0.8045(10) 0.2236(8)
H133 H 0.1047 0.7900 0.2530
C135 C 0.2500(13) 0.5425(11) 0.2517(8)
C136 C 0.4523(11) 0.3272(10) 0.1542(8)
C137 C 0.5170(10) 0.3216(9) 0.1249(7)
C138 C 0.5864(11) 0.3364(10) 0.1440(8)
H134 H 0.5912 0.3498 0.1737
C140 C 0.531(2) 0.6055(12) 0.2119(16)
H135 H 0.4946 0.5784 0.2017
O114 O 0.3208(7) 0.3230(6) 0.3160(5)
O115 O 0.3242(7) 0.6990(6) 0.0294(5)
Cu11 Cu 0.23038(13) 0.70187(12) 0.53913(9)
Cu16 Cu 0.74998(15) 0.06930(14) 0.24987(11)
Cu17 Cu 0.74991(16) 0.56915(14) 0.24998(11)
N28 N 0.7522(9) 0.8898(8) 0.0408(6)
N29 N 0.8595(9) 0.8096(8) 0.0750(6)
N30 N 0.3351(10) 0.8278(9) 0.2910(7)
H138 H 0.571986 0.607175 0.186013
H150 H 0.847399 0.248055 0.0167763
H9 H 0.6785 0.7902 0.9776
O75 O 0.6758(7) 0.3010(6) 0.9706(5)
O78 O 0.4851(14) 0.9247(13) 0.9412(10)
O103 O 0.9164(17) 0.4713(16) 0.9711(11)
O105 O 0.5846(19) 0.9730(17) 0.9694(12)
H68 H 0.7545 0.5931 0.9729
H78 H 0.7496 0.6972 0.9761
H84 H 0.7449 0.0928 0.9743
H86 H 0.7454 0.1964 0.9768
H92 H 0.4560 0.8418 0.9940
C139 C 0.968(2) 0.4287(18) 0.9718(14)
C142 C 0.5311(19) 0.9334(17) 0.9737(11)
Mo21 Mo 0.64152(10) 0.32534(9) 0.91970(7)
O116 O 0.8243(7) 0.8018(6) 0.9706(5)
H151 H 0.820738 0.290205 0.9752
H152 H 0.890087 0.468729 0.942086
C75 C 0.7919(12) 0.9871(11) 0.0214(8)
C95 C 0.8012(12) 0.9233(11) 0.0194(8)
H97 H 0.8391 0.9056 0.0042
C125 C 0.6986(12) 0.9125(11) 0.0630(8)
H123 H 0.6670 0.8867 0.0775
C133 C 0.6885(12) 0.9743(11) 0.0651(8)
H132 H 0.6508 0.9899 0.0817
O30 O 0.7753(7) 0.0711(7) 0.1837(5)
O41 O 0.7245(7) 0.0720(7) 0.3155(5)
O110 O 0.6221(10) 0.0620(8) 0.2316(6)
N26 N 0.7497(10) 0.1557(8) 0.2503(6)
H145 H 0.819358 0.0950806 0.179411
H146 H 0.782963 0.0290222 0.172727
H147 H 0.677174 0.0911296 0.319123
H148 H 0.723204 0.0300838 0.32777
Mo2 Mo 0.86427(10) 0.73717(9) 0.37403(7)
Mo4 Mo 0.63588(10) 0.23717(9) 0.37403(7)
Mo6 Mo 0.54637(10) 0.14411(9) 0.44475(7)
Mo8 Mo 0.95388(11) 0.64404(9) 0.44466(7)
Mo10 Mo 0.52568(10) 0.34753(9) 0.33646(7)
Mo12 Mo 0.97427(10) 0.84743(9) 0.33656(7)
Mo16 Mo 0.35819(10) 0.17474(9) 0.41964(7)
Mo19 Mo 0.35725(10) 0.31279(9) 0.36884(7)
P1 P 0.4731(3) 0.1960(3) 0.3372(2)
P2 P 0.4934(3) 0.2878(3) 0.4426(2)
O5 O 0.8700(7) 0.6931(6) 0.4293(5)
O7 O 0.9921(8) 0.8659(7) 0.2807(5)
O10 O 0.7006(7) 0.2875(6) 0.3921(4)
O11 O 0.7983(7) 0.7873(6) 0.3916(4)
O12 O 0.5197(6) 0.2366(6) 0.4728(4)
O14 O 0.9508(7) 0.8022(6) 0.4063(5)
O17 O 0.4374(7) 0.3676(6) 0.3652(5)
O18 O 0.5344(7) 0.1888(6) 0.3706(5)
O19 O 0.9645(7) 0.6892(6) 0.3711(5)
O21 O 0.9342(7) 0.5798(6) 0.4144(5)
O23 O 0.4213(6) 0.2682(6) 0.4217(4)
O24 O 0.4507(7) 0.2603(6) 0.3305(4)
O25 O 0.6285(7) 0.1924(6) 0.4294(5)
O28 O 0.5491(7) 0.3046(6) 0.4057(5)
O29 O 0.6786(7) 0.1853(6) 0.3410(5)
O32 O 0.3064(7) 0.3575(6) 0.4024(5)
O33 O 0.7279(7) 0.5725(7) 0.1839(5)
H1 H 0.7156 0.5325 0.1737
H2 H 0.6886 0.5994 0.1791
O35 O 0.6749(7) 0.2887(6) 0.4895(5)
H3 H 0.6802 0.2904 0.5217
H4 H 0.6552 0.2502 0.4810
O36 O 0.8224(7) 0.6846(6) 0.3426(5)
O37 O 0.8257(7) 0.7875(6) 0.4912(5)
H5 H 0.8192 0.7891 0.5234
H6 H 0.8453 0.7489 0.4829
O39 O 0.7747(7) 0.5714(7) 0.3153(5)
H7 H 0.7427 0.5983 0.3307
H8 H 0.8224 0.5858 0.3189
O47 O 0.3075(7) 0.1121(7) 0.4071(5)
O54 O 0.9236(7) 0.9072(7) 0.3549(5)
O58 O 0.5758(7) 0.4075(6) 0.3544(5)
O59 O 0.9814(7) 0.7367(6) 0.4728(5)
O61 O 0.5663(7) 0.0789(6) 0.4150(5)
O68 O 0.4110(7) 0.1567(6) 0.3531(5)
O69 O 0.3242(7) 0.1984(6) 0.4704(5)
O76 O 0.9190(17) 0.9702(15) 0.5303(11)
O79 O 0.4451(7) 0.1409(7) 0.4414(5)
O85 O 0.8790(9) 0.5631(8) 0.2339(6)
O89 O 0.5061(8) 0.3668(7) 0.2818(5)
O91 O 0.5947(7) 0.2855(6) 0.3267(5)
O92 O 0.9044(7) 0.7860(6) 0.3266(5)
O93 O 0.9371(8) 0.6236(7) 0.4985(5)
O97 O 0.3145(7) 0.2369(6) 0.3814(5)
O99 O 0.4853(13) 0.4258(11) 0.5574(9)
O101 O 0.5630(8) 0.1229(7) 0.4995(5)
O102 O 0.5816(17) 0.4703(15) 0.5291(11)
O104 O 0.4952(16) 0.0765(15) 0.2102(11)
O108 O 0.9993(19) 0.5708(19) 0.2116(13)
Cu1 Cu 0.73032(13) 0.79780(12) 0.46086(9)
Cu2 Cu 0.76962(13) 0.29813(12) 0.46087(9)
N1 N 0.7824(9) 0.2074(8) 0.4609(6)
N3 N 0.7567(8) 0.3881(7) 0.4585(5)
N4 N 0.7172(8) 0.7082(8) 0.4589(6)
N5 N 0.7469(9) 0.4803(8) 0.2499(6)
N7 N 0.7510(10) 0.6583(8) 0.2498(6)
N8 N 0.7498(10) 0.9806(8) 0.2494(7)
N20 N 0.8573(8) 0.3109(7) 0.4261(6)
N24 N 0.6414(8) 0.8093(7) 0.4260(6)
C2 C 0.3897(13) 0.8483(12) 0.3619(10)
H12 H 0.3854 0.8597 0.3920
C4 C 0.9652(17) 0.8880(15) 0.4884(12)
H14 H 0.9324 0.8610 0.5036
H15 H 0.9424 0.9013 0.4607
C5 C 0.7148(15) 0.8841(14) 0.2188(10)
H16 H 0.6895 0.8635 0.1967
C6 C 0.7140(13) 0.9483(13) 0.2180(10)
H17 H 0.6885 0.9685 0.1957
C7 C 0.5197(12) 0.8216(11) 0.3744(8)
C8 C 0.6976(14) 0.6922(13) 0.2638(9)
H18 H 0.6583 0.6710 0.2742
C10 C 0.7837(12) 0.3849(11) 0.2169(9)
H20 H 0.8044 0.3642 0.1929
C12 C 0.6454(13) 0.8288(11) 0.3859(9)
H22 H 0.6898 0.8385 0.3743
C17 C 0.7845(13) 0.9495(12) 0.2817(9)
H28 H 0.8092 0.9713 0.3036
C18 C 0.5344(16) 0.3934(15) 0.4845(11)
H29 H 0.5377 0.4225 0.4600
H30 H 0.5772 0.3689 0.4841
C19 C 0.7505(13) 0.2869(11) 0.2491(8)
C21 C 0.7675(10) 0.0144(9) 0.4592(7)
C22 C 0.8056(13) 0.2565(12) 0.2661(8)
H33 H 0.8450 0.2765 0.2778
C26 C 0.7163(12) 0.3857(11) 0.2833(8)
H38 H 0.6919 0.3651 0.3059
C27 C 0.9830(12) 0.3035(10) 0.4198(8)
C28 C 0.6921(13) 0.7531(12) 0.2652(8)
H40 H 0.6517 0.7727 0.2757
C30 C 0.5155(13) 0.8005(11) 0.4206(8)
H41 H 0.4726 0.7896 0.4338
C33 C 0.530(2) 0.4284(16) 0.5306(13)
C35 C 0.7855(13) 0.8835(12) 0.2843(9)
H44 H 0.8084 0.8633 0.3077
C36 C 0.7851(13) 0.4484(12) 0.2179(9)
H45 H 0.8120 0.4695 0.1967
C37 C 0.9491(12) 0.579(2) 0.2406(14)
C39 C 0.531(2) 0.111(2) 0.2880(17)
H47 H 0.4961 0.0851 0.3024
H48 H 0.5710 0.1144 0.3085
C41 C 0.7144(14) 0.4478(13) 0.2840(10)
H50 H 0.6912 0.4680 0.3073
C42 C 0.7648(11) 0.1748(11) 0.4975(8)
H51 H 0.7546 0.1957 0.5240
C46 C 0.4573(13) 0.8003(11) 0.3022(9)
H54 H 0.4980 0.7810 0.2919
C49 C 0.7024(13) 0.4149(11) 0.4393(8)
H56 H 0.6679 0.3895 0.4270
C52 C 0.8058(14) 0.7552(13) 0.2326(9)
H59 H 0.8444 0.7762 0.2209
C53 C 0.7334(10) 0.6760(10) 0.4984(7)
H60 H 0.7420 0.6966 0.5252
C54 C 0.7508(13) 0.7840(11) 0.2499(8)
C55 C 0.8035(14) 0.6900(13) 0.2324(9)
H61 H 0.8411 0.6691 0.2193
C58 C 0.7512(11) 0.3523(10) 0.2521(8)
C60 C 0.8557(12) 0.8298(10) 0.1173(8)
H66 H 0.8118 0.8385 0.1300
C63 C 0.7979(11) 0.1764(11) 0.4250(8)
H69 H 0.8117 0.1974 0.3992
C64 C 0.3318(12) 0.8530(11) 0.3320(8)
H70 H 0.2911 0.8737 0.3408
C65 C 0.7735(11) 0.0805(10) 0.4595(8)
C67 C 0.6913(14) 0.2541(12) 0.2343(9)
H73 H 0.6507 0.2738 0.2242
H74 H 0.6760 0.0120 0.4968
C71 C 0.9211(12) 0.8012(11) 0.0558(9)
H77 H 0.9229 0.7945 0.0247
C73 C 0.5013(10) 0.1688(9) 0.2824(6)
H79 H 0.4610 0.1668 0.2621
H80 H 0.5360 0.1963 0.2696
C79 C 0.9836(12) 0.8018(10) 0.0801(8)
C80 C 0.9814(11) 0.3222(10) 0.3745(8)
C81 C 0.9818(11) 0.8210(9) 0.1253(7)
C87 C 0.7373(10) 0.5138(9) 0.4585(7)
C90 C 0.9183(12) 0.2972(11) 0.4432(9)
H91 H 0.9195 0.2824 0.4726
C91 C 0.7255(10) 0.5795(9) 0.4593(7)
C93 C 0.4747(11) 0.3552(10) 0.4772(8)
H94 H 0.4379 0.3787 0.4625
H95 H 0.4565 0.3421 0.5062
C96 C 0.8011(14) 0.1922(12) 0.2653(9)
H98 H 0.8404 0.1722 0.2772
C99 C 0.7500(11) 0.8516(10) 0.2495(8)
C102 C 0.7914(12) 0.4866(11) 0.4798(8)
H104 H 0.8246 0.5099 0.4953
C103 C 0.6956(13) 0.1886(11) 0.2352(8)
H105 H 0.6566 0.1674 0.2242
C106 C 0.5839(13) 0.8368(12) 0.3575(10)
H108 H 0.5882 0.8519 0.3283
C107 C 0.7947(10) 0.1120(10) 0.4231(7)
H109 H 0.8073 0.0918 0.3967
C108 C 0.8562(11) 0.3305(9) 0.3834(7)
H110 H 0.8129 0.3409 0.3705
C109 C 0.9168(12) 0.3359(10) 0.3578(8)
H111 H 0.9132 0.3494 0.3281
C112 C 0.7366(10) 0.6123(10) 0.4972(8)
H112 H 0.7467 0.5917 0.5239
C115 C 0.5792(12) 0.7975(10) 0.4443(8)
H115 H 0.5779 0.7866 0.4746
C116 C 0.7978(12) 0.4258(11) 0.4789(8)
H116 H 0.8359 0.4093 0.4947
C120 C 0.6906(12) 0.4765(10) 0.4354(8)
H119 H 0.6534 0.4920 0.4183
C121 C 0.7000(10) 0.6757(10) 0.4226(8)
H120 H 0.6843 0.6958 0.3968
C123 C 0.4535(12) 0.8261(10) 0.3450(8)
C128 C 0.7046(10) 0.6138(9) 0.4217(7)
H126 H 0.6933 0.5936 0.3950
C129 C 0.9182(11) 0.8381(10) 0.1427(8)
H127 H 0.9159 0.8553 0.1714
C130 C 0.7608(11) 0.1137(10) 0.4985(8)
H128 H 0.7497 0.0938 0.5254
C131 C 0.3984(11) 0.8049(10) 0.2763(8)
H129 H 0.4011 0.7916 0.2465
C132 C 0.9966(11) 0.6706(10) 0.2834(7)
H130 H 0.9613 0.6989 0.2723
C141 C 0.976(4) 0.9435(17) 0.5183(13)
C143 C 0.558(2) 0.0766(19) 0.2422(15)
C144 C 0.966(2) 0.611(2) 0.2851(13)
H136 H 0.9229 0.6130 0.3026
H137 H 0.9988 0.5848 0.3018
O112 O 0.8250(7) 0.3016(7) 0.5303(5)
O113 O 0.6758(7) 0.8016(6) 0.5296(5)
Cu10 Cu 0.26968(13) 0.20220(12) 0.53914(9)
N25 N 0.7444(8) 0.8871(7) 0.4596(6)
H149 H 0.973566 0.894035 0.572447
H153 H 0.609886 0.468473 0.55738
C68 C 0.7078(13) 0.9873(12) 0.4813(9)
C100 C 0.6966(13) 0.9265(11) 0.4800(8)
H101 H 0.6557 0.9108 0.4932
C104 C 0.8002(12) 0.9132(11) 0.4368(8)
H106 H 0.8323 0.8886 0.4215
C119 C 0.8093(11) 0.9762(10) 0.4364(7)
H118 H 0.8463 0.9923 0.4194
N2 N 0.2556(8) 0.1129(7) 0.5404(6)
C68_2 C 0.2922(13) 0.0127(12) 0.5187(9)
C100_2 C 0.3034(13) 0.0735(11) 0.5200(8)
H101_2 H 0.3443 0.0892 0.5068
C104_2 C 0.1998(12) 0.0868(11) 0.5632(8)
H106_2 H 0.1677 0.1114 0.5785
C119_2 C 0.1907(11) 0.0238(10) 0.5636(7)
H118_2 H 0.1537 0.0077 0.5806
Mo2_2 Mo 0.13573(10) 0.26283(9) 0.62597(7)
Mo4_2 Mo 0.36412(10) 0.76283(9) 0.62597(7)
Mo6_2 Mo 0.45363(10) 0.85589(9) 0.55525(7)
Mo8_2 Mo 0.04612(11) 0.35596(9) 0.55534(7)
Mo10_2 Mo 0.47432(10) 0.65247(9) 0.66354(7)
Mo12_2 Mo 0.02573(10) 0.15257(9) 0.66344(7)
Mo16_2 Mo 0.64181(10) 0.82526(9) 0.58036(7)
Mo19_2 Mo 0.64275(10) 0.68721(9) 0.63116(7)
P1_2 P 0.5269(3) 0.8040(3) 0.6628(2)
P2_2 P 0.5066(3) 0.7122(3) 0.5574(2)
O5_2 O 0.1300(7) 0.3069(6) 0.5707(5)
O7_2 O 0.0079(8) 0.1341(7) 0.7193(5)
O10_2 O 0.2994(7) 0.7125(6) 0.6079(4)
O11_2 O 0.2017(7) 0.2127(6) 0.6084(4)
O12_2 O 0.4803(6) 0.7634(6) 0.5272(4)
O14_2 O 0.0492(7) 0.1978(6) 0.5937(5)
O17_2 O 0.5626(7) 0.6324(6) 0.6348(5)
O18_2 O 0.4656(7) 0.8112(6) 0.6294(5)
O19_2 O 0.0355(7) 0.3108(6) 0.6289(5)
O21_2 O 0.0658(7) 0.4202(6) 0.5856(5)
O23_2 O 0.5787(6) 0.7318(6) 0.5783(4)
O24_2 O 0.5493(7) 0.7397(6) 0.6695(4)
O25_2 O 0.3715(7) 0.8076(6) 0.5706(5)
O28_2 O 0.4509(7) 0.6954(6) 0.5943(5)
O29_2 O 0.3214(7) 0.8147(6) 0.6590(5)
O32_2 O 0.6936(7) 0.6425(6) 0.5976(5)
O33_2 O 0.2721(7) 0.4275(7) 0.8161(5)
H1_2 H 0.2844 0.4675 0.8263
H2_2 H 0.3114 0.4006 0.8209
O35_2 O 0.3251(7) 0.7113(6) 0.5105(5)
H3_2 H 0.3198 0.7096 0.4783
H4_2 H 0.3448 0.7498 0.5190
O36_2 O 0.1776(7) 0.3154(6) 0.6574(5)
O37_2 O 0.1743(7) 0.2125(6) 0.5088(5)
H5_2 H 0.1808 0.2109 0.4766
H6_2 H 0.1547 0.2511 0.5171
O39_2 O 0.2253(7) 0.4286(7) 0.6847(5)
H7_2 H 0.2573 0.4017 0.6693
H8_2 H 0.1776 0.4142 0.6811
O47_2 O 0.6925(7) 0.8879(7) 0.5929(5)
O49 O 0.3779(10) 0.9380(8) 0.7684(6)
O54_2 O 0.0764(7) 0.0928(7) 0.6451(5)
O58_2 O 0.4242(7) 0.5925(6) 0.6456(5)
O59_2 O 0.0186(7) 0.2633(6) 0.5272(5)
O61_2 O 0.4337(7) 0.9211(6) 0.5850(5)
O68_2 O 0.5890(7) 0.8433(6) 0.6469(5)
O71 O 0.6792(7) 0.6770(6) 0.6840(5)
O76_2 O 0.0810(17) 0.0298(15) 0.4697(11)
O79_2 O 0.5549(7) 0.8591(7) 0.5586(5)
O85_2 O 0.1210(9) 0.4369(8) 0.7661(6)
O89_2 O 0.4939(8) 0.6332(7) 0.7182(5)
O91_2 O 0.4053(7) 0.7145(6) 0.6733(5)
O92_2 O 0.0956(7) 0.2140(6) 0.6734(5)
O93_2 O 0.0629(8) 0.3764(7) 0.5015(5)
O97_2 O 0.6855(7) 0.7631(6) 0.6186(5)
O99_2 O 0.5147(13) 0.5742(11) 0.4426(9)
O101_2 O 0.4370(8) 0.8771(7) 0.5005(5)
O102_2 O 0.4184(17) 0.5297(15) 0.4709(11)
O104_2 O 0.5048(16) 0.9235(15) 0.7898(11)
O108_2 O 0.0007(19) 0.4292(19) 0.7884(13)
Cu6 Cu 0.25009(16) 0.43085(14) 0.75002(11)
N1_2 N 0.2176(9) 0.7926(8) 0.5391(6)
N3_2 N 0.2433(8) 0.6119(7) 0.5415(5)
N4_2 N 0.2828(8) 0.2918(8) 0.5411(6)
N5_2 N 0.2531(9) 0.5197(8) 0.7501(6)
N6 N 0.2503(10) 0.8443(8) 0.7497(6)
N7_2 N 0.2490(10) 0.3417(8) 0.7502(6)
N8_2 N 0.2502(10) 0.0194(8) 0.7506(7)
N20_2 N 0.1427(8) 0.6891(7) 0.5739(6)
N22 N 0.1405(9) 0.1904(8) 0.9250(6)
N23 N 0.6649(10) 0.1722(9) 0.7090(7)
N24_2 N 0.3586(8) 0.1907(7) 0.5740(6)
C2_2 C 0.6103(13) 0.1517(12) 0.6381(10)
H12_2 H 0.6146 0.1403 0.6080
C4_2 C 0.0348(17) 0.1120(15) 0.5116(12)
H14_2 H 0.0676 0.1390 0.4964
H15_2 H 0.0576 0.0987 0.5393
C5_2 C 0.2852(15) 0.1159(14) 0.7812(10)
H16_2 H 0.3105 0.1365 0.8033
C6_2 C 0.2860(13) 0.0517(13) 0.7820(10)
H17_2 H 0.3115 0.0315 0.8043
C7_2 C 0.4803(12) 0.1784(11) 0.6256(8)
C8_2 C 0.3024(14) 0.3078(13) 0.7362(9)
H18_2 H 0.3417 0.3290 0.7258
C10_2 C 0.2163(12) 0.6151(11) 0.7831(9)
H20_2 H 0.1956 0.6358 0.8071
C12_2 C 0.3546(13) 0.1712(11) 0.6141(9)
H22_2 H 0.3102 0.1615 0.6257
C17_2 C 0.2155(13) 0.0505(12) 0.7183(9)
H28_2 H 0.1908 0.0287 0.6964
C18_2 C 0.4656(16) 0.6066(15) 0.5155(11)
H29_2 H 0.4623 0.5775 0.5400
H30_2 H 0.4228 0.6311 0.5159
C19_2 C 0.2495(13) 0.7131(11) 0.7509(8)
C21_2 C 0.2325(10) 0.9856(9) 0.5408(7)
C22_2 C 0.1944(13) 0.7435(12) 0.7339(8)
H33_2 H 0.1550 0.7235 0.7222
C26_2 C 0.2837(12) 0.6143(11) 0.7167(8)
H38_2 H 0.3081 0.6349 0.6941
C27_2 C 0.0170(12) 0.6965(10) 0.5802(8)
C28_2 C 0.3079(13) 0.2469(12) 0.7348(8)
H40_2 H 0.3483 0.2273 0.7243
C30_2 C 0.4845(13) 0.1995(11) 0.5794(8)
H41_2 H 0.5274 0.2104 0.5662
C33_2 C 0.470(2) 0.5716(16) 0.4694(13)
C35_2 C 0.2145(13) 0.1165(12) 0.7157(9)
H44_2 H 0.1916 0.1367 0.6923
C36_2 C 0.2149(13) 0.5516(12) 0.7821(9)
H45_2 H 0.1880 0.5305 0.8033
C37_2 C 0.0509(12) 0.421(2) 0.7594(14)
C39_2 C 0.469(2) 0.889(2) 0.7120(17)
H47_2 H 0.5039 0.9149 0.6976
H48_2 H 0.4290 0.8856 0.6915
C41_2 C 0.2856(14) 0.5522(13) 0.7160(10)
H50_2 H 0.3088 0.5320 0.6927
C42_2 C 0.2352(11) 0.8252(11) 0.5025(8)
H51_2 H 0.2454 0.8043 0.4760
C46_2 C 0.5427(13) 0.1997(11) 0.6978(9)
H54_2 H 0.5020 0.2190 0.7081
C49_2 C 0.2976(13) 0.5851(11) 0.5607(8)
H56_2 H 0.3321 0.6105 0.5730
C52_2 C 0.1942(14) 0.2448(13) 0.7674(9)
H59_2 H 0.1556 0.2238 0.7791
C53_2 C 0.2666(10) 0.3240(10) 0.5016(7)
H60_2 H 0.2580 0.3034 0.4748
C54_2 C 0.2492(13) 0.2160(11) 0.7501(8)
C55_2 C 0.1965(14) 0.3100(13) 0.7676(9)
H61_2 H 0.1589 0.3309 0.7807
C58_2 C 0.2488(11) 0.6477(10) 0.7479(8)
C60_2 C 0.1443(12) 0.1702(10) 0.8827(8)
H66_2 H 0.1882 0.1615 0.8700
C63_2 C 0.2021(11) 0.8236(11) 0.5750(8)
H69_2 H 0.1883 0.8026 0.6008
C64_2 C 0.6682(12) 0.1470(11) 0.6680(8)
H70_2 H 0.7089 0.1263 0.6592
C65_2 C 0.2265(11) 0.9195(10) 0.5405(8)
C67_2 C 0.3087(14) 0.7459(12) 0.7657(9)
H73_2 H 0.3493 0.7262 0.7758
H74_2 H 0.3240 0.9880 0.5032
C71_2 C 0.0789(12) 0.1988(11) 0.9442(9)
H77_2 H 0.0771 0.2055 0.9753
C73_2 C 0.4987(10) 0.8312(9) 0.7176(6)
H79_2 H 0.5390 0.8332 0.7379
H80_2 H 0.4640 0.8037 0.7304
C79_2 C 0.0164(12) 0.1982(10) 0.9199(8)
C80_2 C 0.0186(11) 0.6778(10) 0.6255(8)
C81_2 C 0.0182(11) 0.1790(9) 0.8747(7)
C87_2 C 0.2627(10) 0.4862(9) 0.5415(7)
C90_2 C 0.0817(12) 0.7028(11) 0.5568(9)
H91_2 H 0.0805 0.7176 0.5274
C91_2 C 0.2745(10) 0.4205(9) 0.5407(7)
C93_2 C 0.5253(11) 0.6448(10) 0.5228(8)
H94_2 H 0.5621 0.6213 0.5375
H95_2 H 0.5435 0.6579 0.4938
C96_2 C 0.1989(14) 0.8078(12) 0.7347(9)
H98_2 H 0.1596 0.8278 0.7228
C99_2 C 0.2500(11) 0.1484(10) 0.7505(8)
C102_2 C 0.2086(12) 0.5134(11) 0.5202(8)
H104_2 H 0.1754 0.4901 0.5047
C103_2 C 0.3044(13) 0.8114(11) 0.7648(8)
H105_2 H 0.3434 0.8326 0.7758
C106_2 C 0.4161(13) 0.1632(12) 0.6425(10)
H108_2 H 0.4118 0.1481 0.6717
C107_2 C 0.2053(10) 0.8880(10) 0.5769(7)
H109_2 H 0.1927 0.9082 0.6033
C108_2 C 0.1438(11) 0.6695(9) 0.6166(7)
H110_2 H 0.1871 0.6591 0.6295
C109_2 C 0.0832(12) 0.6641(10) 0.6422(8)
H111_2 H 0.0868 0.6506 0.6719
C112_2 C 0.2634(10) 0.3877(10) 0.5028(8)
H112_2 H 0.2533 0.4083 0.4761
C115_2 C 0.4208(12) 0.2025(10) 0.5557(8)
H115_2 H 0.4221 0.2134 0.5254
C116_2 C 0.2022(12) 0.5742(11) 0.5211(8)
H116_2 H 0.1641 0.5907 0.5053
C120_2 C 0.3094(12) 0.5235(10) 0.5646(8)
H119_2 H 0.3466 0.5080 0.5817
C121_2 C 0.3000(10) 0.3243(10) 0.5774(8)
H120_2 H 0.3157 0.3042 0.6032
C123_2 C 0.5465(12) 0.1739(10) 0.6550(8)
C128_2 C 0.2954(10) 0.3862(9) 0.5783(7)
H126_2 H 0.3067 0.4064 0.6050
C129_2 C 0.0818(11) 0.1619(10) 0.8573(8)
H127_2 H 0.0841 0.1447 0.8286
C130_2 C 0.2392(11) 0.8863(10) 0.5015(8)
H128_2 H 0.2503 0.9062 0.4746
C131_2 C 0.6016(11) 0.1951(10) 0.7237(8)
H129_2 H 0.5989 0.2084 0.7535
C132_2 C 0.0034(11) 0.3294(10) 0.7166(7)
H130_2 H 0.0387 0.3011 0.7277
C141_2 C 0.024(4) 0.0565(17) 0.4817(13)
C143_2 C 0.442(2) 0.9234(19) 0.7578(15)
C144_2 C 0.034(2) 0.389(2) 0.7149(13)
H136_2 H 0.0771 0.3870 0.6974
H137_2 H 0.0012 0.4152 0.6982
O109 O 0.3784(10) 0.4367(9) 0.7317(7)
Cu15 Cu 0.25002(15) 0.93070(14) 0.75013(11)
Cu18 Cu 0.74999(14) 0.67325(12) 0.74993(10)
Cu21 Cu 0.74989(15) 0.17345(13) 0.74987(10)
H149_2 H 0.0264338 0.105965 0.427553
H153_2 H 0.390114 0.531527 0.44262
O30_2 O 0.2247(7) 0.9289(7) 0.8163(5)
O41_2 O 0.2755(7) 0.9280(7) 0.6845(5)
O117 O 0.1181(9) 0.9363(8) 0.7337(6)
H145_2 H 0.180642 0.904919 0.820589
H146_2 H 0.217037 0.970978 0.827273
H147_2 H 0.322826 0.90887 0.680877
H148_2 H 0.276796 0.969916 0.67223
N15 N 0.2478(9) 0.1102(8) 0.9592(6)
C75_2 C 0.2081(12) 0.0129(11) 0.9786(8)
C95_2 C 0.1988(12) 0.0767(11) 0.9806(8)
H97_2 H 0.1609 0.0944 0.9958
C125_2 C 0.3014(12) 0.0875(11) 0.9370(8)
H123_2 H 0.3330 0.1133 0.9225
C133_2 C 0.3115(12) 0.0257(11) 0.9349(8)
H132_2 H 0.3492 0.0101 0.9183
H9_2 H 0.3215 0.2098 0.0224
O78_2 O 0.5149(14) 0.0753(13) 0.0588(10)
O103_2 O 0.0836(17) 0.5287(16) 0.0289(11)
O105_2 O 0.4154(19) 0.0270(17) 0.0306(12)
H68_2 H 0.2455 0.4069 0.0271
H78_2 H 0.2504 0.3028 0.0239
H84_2 H 0.2551 0.9072 0.0257
H86_2 H 0.2546 0.8036 0.0232
H92_2 H 0.5440 0.1582 0.0060
C139_2 C 0.032(2) 0.5713(18) 0.0282(14)
C142_2 C 0.4689(19) 0.0666(17) 0.0263(11)
H151_2 H 0.179262 0.709795 0.0248
H152_2 H 0.109913 0.531271 0.0579135
Mo1_2 Mo 0.13587(10) 0.76280(9) 0.87394(7)
Mo3_2 Mo 0.36405(10) 0.26248(9) 0.87408(7)
Mo5_2 Mo 0.04608(10) 0.85589(9) 0.94458(7)
Mo7_2 Mo 0.45370(10) 0.35593(9) 0.94471(7)
Mo9_2 Mo 0.47423(10) 0.15254(9) 0.83655(7)
Mo11_2 Mo 0.02557(10) 0.65261(9) 0.83649(7)
Mo13_2 Mo 0.85830(10) 0.32544(9) 0.58042(7)
Mo17_2 Mo 0.64275(10) 0.18729(9) 0.86909(7)
Mo18_2 Mo 0.85714(10) 0.18738(9) 0.63101(7)
P3_2 P 0.5067(3) 0.2124(3) 0.9427(2)
P4_2 P 0.9938(3) 0.2121(3) 0.5573(2)
P5_2 P 0.5274(3) 0.3041(3) 0.8373(2)
P7_2 P 0.9728(3) 0.3044(3) 0.6625(2)
O1_2 O 0.9514(6) 0.2374(6) 0.6699(4)
O2_2 O 0.504(2) 0.4292(19) 0.7070(15)
O3_2 O 0.5491(6) 0.2363(6) 0.8314(4)
O4_2 O 0.1287(7) 0.8088(6) 0.9305(4)
O6_2 O 0.8078(7) 0.3868(7) 0.5924(5)
O9_2 O 0.0346(7) 0.8109(6) 0.8711(4)
O13_2 O 0.4657(7) 0.3100(6) 0.8708(5)
O15_2 O 0.4522(7) 0.1971(6) 0.9052(5)
O16_2 O 0.0201(7) 0.7632(6) 0.9729(5)
O20_2 O 0.2981(7) 0.2140(6) 0.8927(5)
O22_2 O 0.9209(6) 0.2309(6) 0.5782(4)
O27_2 O 0.8213(7) 0.1775(6) 0.6840(5)
O31_2 O 0.3205(7) 0.3147(6) 0.8412(5)
O34_2 O 0.4802(7) 0.2639(6) 0.9722(5)
O40_2 O 0.0762(7) 0.5912(7) 0.8544(5)
O43_2 O 0.2010(7) 0.7132(7) 0.8919(5)
O45_2 O 0.3709(6) 0.3077(6) 0.9298(4)
O46_2 O 0.3268(6) 0.2121(6) 0.9902(5)
H10_2 H 0.3460 0.2509 0.9821
O48_2 O 0.0481(7) 0.6968(6) 0.9060(5)
O50_2 O 0.4049(7) 0.2154(6) 0.8266(4)
O51_2 O 0.5618(7) 0.1327(7) 0.8667(5)
O52_2 O 0.9386(7) 0.1308(6) 0.6338(5)
O53_2 O 0.6792(7) 0.1777(7) 0.8159(5)
O55_2 O 0.5558(7) 0.3586(6) 0.9415(5)
O56_2 O 0.9114(7) 0.3429(6) 0.6460(5)
O57_2 O 0.8072(7) 0.1423(6) 0.5980(5)
O60_2 O 0.0644(7) 0.9211(7) 0.9157(5)
O63_2 O 0.6947(8) 0.1427(7) 0.9020(5)
O65_2 O 0.1732(7) 0.7120(6) 0.9915(5)
O66_2 O 0.6921(7) 0.3878(7) 0.9072(5)
O70_2 O 0.5785(7) 0.2311(7) 0.9213(5)
O73_2 O 0.1797(7) 0.8156(7) 0.8417(5)
O77_2 O 0.9935(13) 0.0774(12) 0.4428(10)
O81_2 O 0.0649(7) 0.8778(7) 0.9985(5)
O82_2 O 0.0091(7) 0.6329(7) 0.7824(5)
O83_2 O 0.4346(8) 0.4219(7) 0.9148(5)
O84_2 O 0.9449(7) 0.3594(6) 0.5589(5)
O86_2 O 0.4924(8) 0.1332(7) 0.7817(5)
O87_2 O 0.5880(7) 0.3424(7) 0.8529(5)
O88_2 O 0.6867(7) 0.2637(6) 0.8831(4)
O90_2 O 0.4240(7) 0.0916(7) 0.8551(5)
O94_2 O 0.0938(7) 0.7149(6) 0.8263(5)
O95_2 O 0.8145(7) 0.2650(6) 0.6189(5)
O98_2 O 0.4371(7) 0.3771(7) 0.9985(5)
Cu3_2 Cu 0.26964(14) 0.70205(12) 0.96079(9)
N9_2 N 0.7505(9) 0.5836(8) 0.7510(6)
N10_2 N 0.7509(9) 0.2631(8) 0.7502(7)
N12_2 N 0.7498(9) 0.0818(8) 0.7501(6)
N13_2 N 0.2175(8) 0.2930(8) 0.9601(6)
N14_2 N 0.2547(8) 0.6114(7) 0.9589(5)
N16_2 N 0.2846(9) 0.7941(8) 0.9607(6)
N17_2 N 0.6661(9) 0.6724(8) 0.7895(6)
N18_2 N 0.3593(8) 0.6907(7) 0.9263(6)
N19_2 N 0.8341(9) 0.6708(8) 0.7093(6)
N21_2 N 0.8331(9) 0.1720(8) 0.7915(6)
C3_2 C 0.7470(14) 0.2934(13) 0.7131(10)
H13_2 H 0.7435 0.2713 0.6864
C9_2 C 0.8329(12) 0.6481(10) 0.6671(8)
H19_2 H 0.7906 0.6319 0.6562
C11_2 C 0.7002(12) 0.0513(11) 0.7707(8)
H21_2 H 0.6663 0.0730 0.7868
C13_2 C 0.0332(18) 0.8934(11) 0.7836(12)
H23_2 H 0.0004 0.9199 0.7993
H24_2 H 0.0766 0.8921 0.8011
C14_2 C 0.0323(17) 0.6098(16) 0.9854(12)
H25_2 H 0.0354 0.5830 0.9595
H26_2 H 0.0746 0.6349 0.9856
C15_2 C 0.9533(11) 0.1762(10) 0.8465(7)
C16_2 C 0.7495(13) 0.3586(12) 0.7916(10)
H27_2 H 0.7477 0.3785 0.8193
C23_2 C 0.4613(19) 0.1092(16) 0.9862(12)
H34_2 H 0.4216 0.1362 0.9917
H35_2 H 0.4505 0.0854 0.9595
C24_2 C 0.2957(11) 0.8868(11) 0.9219(8)
H36_2 H 0.3084 0.9075 0.8957
C25_2 C 0.7988(13) 0.5530(11) 0.7720(9)
H37_2 H 0.8312 0.5740 0.7898
H39_2 H 0.9742 0.7047 0.5659
C29_2 C 0.436(3) 0.422(2) 0.7450(15)
C31_2 C 0.5426(13) 0.6998(11) 0.8035(9)
H42_2 H 0.5015 0.7189 0.7936
C32_2 C 0.0499(12) 0.9218(18) 0.7377(12)
C34_2 C 0.6974(17) 0.4908(15) 0.7294(11)
H43_2 H 0.6587 0.4712 0.7165
C38_2 C 0.2006(11) 0.3227(10) 0.9247(8)
H46_2 H 0.1834 0.3012 0.8999
C43_2 C 0.2273(11) 0.4194(10) 0.9595(8)
C44_2 C 0.7004(13) 0.5557(12) 0.7287(9)
H52_2 H 0.6670 0.5779 0.7126
C45_2 C 0.8020(13) 0.0499(11) 0.7322(8)
H53_2 H 0.8412 0.0715 0.7219
C47_2 C 0.7489(14) 0.3911(13) 0.7507(10)
C50_2 C 0.9567(12) 0.6975(10) 0.6956(8)
H57_2 H 0.9989 0.7137 0.7065
C51_2 C 0.7477(12) 0.3591(12) 0.7094(9)
H58_2 H 0.7472 0.3788 0.6816
C56_2 C 0.9762(12) 0.1449(10) 0.5232(8)
H62_2 H 0.9522 0.1574 0.4957
H63_2 H 0.9440 0.1188 0.5398
C57_2 C 0.3003(12) 0.5747(10) 0.9786(8)
H64_2 H 0.3393 0.5919 0.9931
C59_2 C 0.8906(12) 0.6480(11) 0.6396(9)
H65_2 H 0.8876 0.6293 0.6114
C61_2 C 0.6660(12) 0.6479(10) 0.8310(8)
H67_2 H 0.7072 0.6279 0.8399
C62_2 C 0.2380(11) 0.3867(10) 0.9999(8)
C66_2 C 0.0017(12) 0.8300(10) 0.7828(8)
H72_2 H 0.0369 0.8019 0.7714
C69_2 C 0.2066(11) 0.3868(10) 0.9212(8)
H75_2 H 0.1970 0.4066 0.8941
C70_2 C 0.8046(14) 0.4895(13) 0.7692(9)
H76_2 H 0.8438 0.4694 0.7809
C72_2 C 0.2372(10) 0.3245(10) 0.9983(8)
C74_2 C 0.6037(12) 0.6962(11) 0.7767(9)
H81_2 H 0.6007 0.7115 0.7475
H82_2 H 0.1743 0.9882 0.9922
C77_2 C 0.2636(11) 0.8868(11) 0.9987(8)
C78_2 C 0.2657(11) 0.9859(10) 0.9574(8)
H85_2 H 0.9740 0.2102 0.9332
C82_2 C 0.2663(10) 0.8251(10) 0.9972(7)
C83_2 C 0.8896(11) 0.1504(10) 0.8603(8)
H87_2 H 0.8858 0.1345 0.8893
C84_2 C 0.8336(12) 0.1479(10) 0.8326(8)
H88_2 H 0.7929 0.1283 0.8428
C85_2 C 0.7528(12) 0.2949(11) 0.7892(9)
H89_2 H 0.7565 0.2734 0.8161
C86_2 C 0.2360(11) 0.4852(10) 0.9574(7)
C88_2 C 0.2738(11) 0.9174(10) 0.9597(8)
C89_2 C 0.9558(13) 0.1996(11) 0.8022(9)
H90_2 H 0.9969 0.2170 0.7907
C92_2 C 0.5238(13) 0.1453(12) 0.9774(9)
H93_2 H 0.5587 0.1202 0.9622
C94_2 C 0.2983(11) 0.8248(11) 0.9239(8)
H96_2 H 0.3103 0.8035 0.8979
C98_2 C 0.8966(12) 0.6959(11) 0.7228(9)
H100_2 H 0.8993 0.7127 0.7516
C101_2 C 0.4980(11) 0.3306(10) 0.7819(7)
H102_2 H 0.4615 0.3041 0.7701
H103_2 H 0.5375 0.3310 0.7609
C105_2 C 0.3545(12) 0.6704(10) 0.8844(8)
H107_2 H 0.3100 0.6601 0.8732
C110_2 C 0.9528(11) 0.6747(10) 0.6523(8)
C113_2 C 0.6106(12) 0.6492(11) 0.8621(9)
H113_2 H 0.6155 0.6353 0.8916
C114_2 C 0.2937(12) 0.5112(11) 0.9792(8)
H114_2 H 0.3272 0.4872 0.9938
C117_2 C 0.4841(13) 0.6982(11) 0.9188(9)
H117_2 H 0.5270 0.7103 0.9314
C122_2 C 0.1910(12) 0.5232(10) 0.9368(8)
H121_2 H 0.1516 0.5069 0.9223
C126_2 C 0.4221(12) 0.7010(11) 0.9453(9)
H124_2 H 0.4250 0.7099 0.9760
C127_2 C 0.2003(12) 0.5869(11) 0.9358(8)
H125_2 H 0.1693 0.6113 0.9195
H131_2 H 0.9640 0.3293 0.7377
C134_2 C 0.8940(11) 0.1955(10) 0.7764(8)
H133_2 H 0.8953 0.2100 0.7470
C135_2 C 0.7500(13) 0.4575(11) 0.7483(8)
C136_2 C 0.5477(11) 0.6728(10) 0.8458(8)
C137_2 C 0.4830(10) 0.6784(9) 0.8751(7)
C138_2 C 0.4136(11) 0.6636(10) 0.8560(8)
H134_2 H 0.4088 0.6502 0.8263
C140_2 C 0.469(2) 0.3945(12) 0.7881(16)
H135_2 H 0.5054 0.4216 0.7983
O111 O 0.8207(7) 0.6763(6) 0.8158(5)
N27 N 0.7479(9) 0.7649(7) 0.7499(6)
H138_2 H 0.428014 0.392825 0.813987
H150_2 H 0.152601 0.751945 0.983224
C1_2 C 0.7473(14) 0.8603(14) 0.7900(11)
H11_2 H 0.7479 0.8812 0.8173
C40_2 C 0.8039(12) 0.9883(11) 0.7273(8)
H49_2 H 0.8376 0.9684 0.7098
C48_2 C 0.7503(13) 0.7955(13) 0.7117(10)
H55_2 H 0.7498 0.7736 0.6849
C76_2 C 0.7449(13) 0.7925(13) 0.7906(10)
H83_2 H 0.7416 0.7707 0.8174
C97_2 C 0.6947(14) 0.9881(13) 0.7700(9)
H99_2 H 0.6556 0.9677 0.7816
C111_2 C 0.7485(15) 0.8912(14) 0.7518(11)
C118_2 C 0.7514(12) 0.9583(10) 0.7507(8)
C124_2 C 0.7535(13) 0.8598(13) 0.7088(10)
H122_2 H 0.7585 0.8802 0.6815
O100_2 O 0.9842(14) 0.5725(12) 0.0564(9)
H32_2 H 0.9579 0.6624 0.0095
Mo14_2 Mo 0.85717(10) 0.68714(9) 0.86897(7)
Mo20_2 Mo 0.85827(10) 0.82539(9) 0.91956(7)
P6_2 P 0.9936(3) 0.7124(3) 0.9427(2)
P8_2 P 0.9724(3) 0.8046(3) 0.8374(2)
O8_2 O 0.9508(7) 0.7369(6) 0.8308(5)
O26_2 O 0.9099(7) 0.8427(6) 0.8533(5)
O38_2 O 0.8044(8) 0.6432(7) 0.9020(5)
O42_2 O 0.8085(8) 0.8871(7) 0.9076(5)
O64_2 O 0.9377(7) 0.6335(7) 0.8667(5)
O72_2 O 0.8132(7) 0.7639(6) 0.8828(5)
O74_2 O 0.9211(7) 0.7311(6) 0.9211(5)
O80_2 O 0.9445(7) 0.8598(6) 0.9411(5)
O107_2 O 0.996(2) 0.910(3) 0.7101(15)
C20_2 C 0.9729(12) 0.6474(11) 0.9801(8)
H31_2 H 0.9341 0.6241 0.9673
H71_2 H 0.9617 0.8295 0.7621
H154 H 0.565156 0.0142615 0.964109
H154_2 H 0.434844 0.985739 0.0358911
H140 H 0.242544 0.0285796 0.376078
O118 O 0.2601(15) 0.9918(14) 0.3919(11)
H139 H 0.312748 0.9918 0.3919
H141 H 0.242541 0.955003 0.376078
O118_2 O 0.7399(15) 0.0082(14) 0.6081(11)
H139_2 H 0.687252 0.0082 0.6081
H141_2 H 0.757459 0.0449974 0.623922
H140_2 H 0.757456 0.97142 0.623922
H143 H 0.220244 0.0289796 0.0923782
O119 O 0.2378(18) 0.9922(16) 0.1082(12)
H142 H 0.290448 0.9922 0.1082
H144 H 0.220241 0.955403 0.0923782
O119_2 O 0.7622(18) 0.0078(16) 0.8918(12)
H142_2 H 0.709552 0.0078 0.8918
H144_2 H 0.779759 0.0445974 0.907622
H143_2 H 0.779756 0.97102 0.907622
loop_
_geom_bond_atom_site_label_1
_geom_bond_atom_site_label_2
_geom_bond_site_symmetry_1
_geom_bond_site_symmetry_2
Mo14 O8 1_555 1_555
Mo20 O26 1_555 1_555
P8 O8 1_555 1_555
O26 P8 1_555 1_555
O38 Mo14 1_555 1_555
O42 Mo20 1_555 1_555
O62 Mo14 1_555 1_555
O72 Mo14 1_555 1_555
O74 Mo14 1_555 1_555
O96 Mo20 1_555 1_555
C20 P6 1_555 1_555
H31 C20 1_555 1_555
Cu20 O62 1_555 1_555
Mo14 O64 1_555 1_555
Mo20 O72 1_555 1_555
Mo20 O74 1_555 1_555
Mo20 O80 1_555 1_555
P6 O74 1_555 1_555
N11 C48 1_555 1_555
C1 H11 1_555 1_555
C40 H49 1_555 1_555
C48 H55 1_555 1_555
C76 N11 1_555 1_555
H83 C76 1_555 1_555
H99 C97 1_555 1_555
C111 C1 1_555 1_555
C118 C40 1_555 1_555
C124 C48 1_555 1_555
H122 C124 1_555 1_555
Cu20 N11 1_555 1_555
C1 C76 1_555 1_555
C97 C118 1_555 1_555
C111 C118 1_555 1_555
C111 C124 1_555 1_555
Mo1 O4 1_555 1_555
Mo3 O13 1_555 1_555
Mo5 O4 1_555 1_555
Mo7 O13 1_555 1_555
Mo9 O3 1_555 1_555
Mo13 O6 1_555 1_555
Mo15 O55 1_555 1_555
Mo17 O3 1_555 1_555
Mo18 O1 1_555 1_555
P3 O15 1_555 1_555
P5 O3 1_555 1_555
P7 O1 1_555 1_555
O2 C29 1_555 1_555
O9 Mo1 1_555 1_555
O13 P5 1_555 1_555
O15 Mo3 1_555 1_555
O16 Mo5 1_555 1_555
O20 Mo3 1_555 1_555
O22 Mo13 1_555 1_555
O27 Mo18 1_555 1_555
O31 Mo3 1_555 1_555
O34 Mo7 1_555 1_555
O40 Mo11 1_555 1_555
O43 Mo1 1_555 1_555
O44 C29 1_555 1_555
O45 Mo3 1_555 1_555
H10 O46 1_555 1_555
O48 Mo1 1_555 1_555
O50 Mo3 1_555 1_555
O51 Mo9 1_555 1_555
O53 Mo17 1_555 1_555
O55 Mo7 1_555 1_555
O56 Mo13 1_555 1_555
O57 Mo18 1_555 1_555
O60 Mo5 1_555 1_555
O63 Mo17 1_555 1_555
O65 Cu3 1_555 1_555
O66 Mo15 1_555 1_555
O67 Mo13 1_555 1_555
O70 Mo15 1_555 1_555
O73 Mo1 1_555 1_555
O81 Mo5 1_555 1_555
O82 Mo11 1_555 1_555
O83 Mo7 1_555 1_555
O86 Mo9 1_555 1_555
O87 Mo15 1_555 1_555
O88 Mo15 1_555 1_555
O90 Mo9 1_555 1_555
O94 Mo1 1_555 1_555
O95 Mo13 1_555 1_555
O98 Mo7 1_555 1_555
O106 C32 1_555 1_555
Cu3 O43 1_555 1_555
Cu4 O20 1_555 1_555
Cu20 N9 1_555 1_555
Cu8 O27 1_555 1_555
N9 C25 1_555 1_555
N10 Cu8 1_555 1_555
N12 Cu8 1_555 1_555
N13 Cu4 1_555 1_555
N14 Cu3 1_555 1_555
N16 Cu3 1_555 1_555
N17 Cu20 1_555 1_555
N18 Cu3 1_555 1_555
N19 Cu20 1_555 1_555
N21 Cu8 1_555 1_555
C3 N10 1_555 1_555
H13 C3 1_555 1_555
C9 N19 1_555 1_555
H19 C9 1_555 1_555
C11 N12 1_555 1_555
H21 C11 1_555 1_555
C13 H23 1_555 1_555
H24 C13 1_555 1_555
C14 H25 1_555 1_555
H26 C14 1_555 1_555
C16 H27 1_555 1_555
C23 H34 1_555 1_555
H35 C23 1_555 1_555
C24 H36 1_555 1_555
C25 H37 1_555 1_555
C29 C140 1_555 1_555
C31 H42 1_555 1_555
C32 C13 1_555 1_555
C34 H43 1_555 1_555
C38 N13 1_555 1_555
H46 C38 1_555 1_555
C43 C62 1_555 1_555
C44 N9 1_555 1_555
H52 C44 1_555 1_555
C45 N12 1_555 1_555
H53 C45 1_555 1_555
C47 C16 1_555 1_555
C50 H57 1_555 1_555
C51 C3 1_555 1_555
H58 C51 1_555 1_555
C56 P4 1_555 1_555
H62 C56 1_555 1_555
H63 C56 1_555 1_555
C57 N14 1_555 1_555
H64 C57 1_555 1_555
C59 C9 1_555 1_555
H65 C59 1_555 1_555
C61 N17 1_555 1_555
H67 C61 1_555 1_555
H72 C66 1_555 1_555
C69 C38 1_555 1_555
H75 C69 1_555 1_555
C70 C25 1_555 1_555
H76 C70 1_555 1_555
C72 N13 1_555 1_555
C74 N17 1_555 1_555
H81 C74 1_555 1_555
C82 N16 1_555 1_555
C83 C15 1_555 1_555
H87 C83 1_555 1_555
C84 N21 1_555 1_555
H88 C84 1_555 1_555
C85 N10 1_555 1_555
H89 C85 1_555 1_555
C86 C43 1_555 1_555
C88 C24 1_555 1_555
C89 C15 1_555 1_555
H90 C89 1_555 1_555
C92 P3 1_555 1_555
H93 C92 1_555 1_555
C94 N16 1_555 1_555
H96 C94 1_555 1_555
C98 N19 1_555 1_555
H100 C98 1_555 1_555
C101 P5 1_555 1_555
H102 C101 1_555 1_555
H103 C101 1_555 1_555
C105 N18 1_555 1_555
H107 C105 1_555 1_555
C110 C50 1_555 1_555
C113 C61 1_555 1_555
H113 C113 1_555 1_555
C114 C57 1_555 1_555
H114 C114 1_555 1_555
C117 H117 1_555 1_555
C122 C86 1_555 1_555
H121 C122 1_555 1_555
C126 N18 1_555 1_555
H124 C126 1_555 1_555
C127 N14 1_555 1_555
H125 C127 1_555 1_555
C134 N21 1_555 1_555
H133 C134 1_555 1_555
C135 C34 1_555 1_555
C136 C31 1_555 1_555
C137 C117 1_555 1_555
C138 C105 1_555 1_555
H134 C138 1_555 1_555
C140 C101 1_555 1_555
H135 C140 1_555 1_555
O114 Cu20 1_555 1_555
O115 Mo15 1_555 1_555
Cu11 O67 1_555 1_555
Cu16 O106 1_555 1_555
Cu17 O44 1_555 1_555
N28 Cu4 1_555 1_555
N29 Cu4 1_555 1_555
N30 Cu8 1_555 1_555
Mo5 O9 1_555 1_555
Mo7 O45 1_555 1_555
Mo9 O15 1_555 1_555
Mo9 O50 1_555 1_555
Mo11 O48 1_555 1_555
Mo11 O94 1_555 1_555
Mo13 O84 1_555 1_555
Mo17 O51 1_555 1_555
Mo17 O70 1_555 1_555
Mo17 O88 1_555 1_555
Mo18 O22 1_555 1_555
Mo18 O52 1_555 1_555
Mo18 O95 1_555 1_555
P3 O34 1_555 1_555
P3 O70 1_555 1_555
P4 O22 1_555 1_555
P5 O87 1_555 1_555
P7 O56 1_555 1_555
O46 Cu4 1_555 1_555
O53 Cu8 1_555 1_555
C13 C66 1_555 1_555
C16 C85 1_555 1_555
C23 C92 1_555 1_555
C24 C94 1_555 1_555
C31 C74 1_555 1_555
C34 C44 1_555 1_555
C43 C69 1_555 1_555
C47 C51 1_555 1_555
C47 C135 1_555 1_555
C50 C98 1_555 1_555
C59 C110 1_555 1_555
C62 C72 1_555 1_555
C70 C135 1_555 1_555
C77 C82 1_555 1_555
C77 C88 1_555 1_555
C78 C88 1_555 1_555
C83 C84 1_555 1_555
C86 C114 1_555 1_555
C89 C134 1_555 1_555
C113 C136 1_555 1_555
C117 C126 1_555 1_555
C122 C127 1_555 1_555
C136 C137 1_555 1_555
C137 C138 1_555 1_555
C140 H138 1_555 1_555
O65 H150 1_555 1_555
O78 C142 1_555 1_555
O103 C139 1_555 1_555
O105 C142 1_555 1_555
Mo21 O75 1_555 1_555
O103 H152 1_555 1_555
N28 C95 1_555 1_555
C95 C75 1_555 1_555
H97 C95 1_555 1_555
C125 N28 1_555 1_555
H123 C125 1_555 1_555
H132 C133 1_555 1_555
C125 C133 1_555 1_555
O30 Cu16 1_555 1_555
O41 Cu16 1_555 1_555
O110 Cu16 1_555 1_555
N26 Cu16 1_555 1_555
O30 H145 1_555 1_555
O30 H146 1_555 1_555
O41 H147 1_555 1_555
O41 H148 1_555 1_555
Mo2 O5 1_555 1_555
Mo4 O10 1_555 1_555
Mo6 O12 1_555 1_555
Mo8 O5 1_555 1_555
Mo10 O17 1_555 1_555
Mo16 O23 1_555 1_555
Mo19 O17 1_555 1_555
P1 O18 1_555 1_555
P2 O12 1_555 1_555
O7 Mo12 1_555 1_555
O10 Cu2 1_555 1_555
O11 Mo2 1_555 1_555
O14 Mo2 1_555 1_555
O18 Mo4 1_555 1_555
O19 Mo2 1_555 1_555
O21 Mo8 1_555 1_555
O23 Mo19 1_555 1_555
O24 Mo10 1_555 1_555
O25 Mo4 1_555 1_555
O28 Mo4 1_555 1_555
O29 Mo4 1_555 1_555
O32 Mo19 1_555 1_555
O33 H1 1_555 1_555
H2 O33 1_555 1_555
O35 H3 1_555 1_555
H4 O35 1_555 1_555
O36 Mo2 1_555 1_555
O37 H5 1_555 1_555
H6 O37 1_555 1_555
O39 H7 1_555 1_555
H8 O39 1_555 1_555
O47 Mo16 1_555 1_555
O110 C143 1_555 1_555
O54 Mo12 1_555 1_555
O58 Mo10 1_555 1_555
O59 Mo8 1_555 1_555
O61 Mo6 1_555 1_555
O68 Mo16 1_555 1_555
O69 Mo16 1_555 1_555
O114 Mo19 1_555 1_555
O76 C141 1_555 1_555
O79 Mo6 1_555 1_555
O85 Cu17 1_555 1_555
O89 Mo10 1_555 1_555
O91 Mo4 1_555 1_555
O92 Mo2 1_555 1_555
O93 Mo8 1_555 1_555
O97 Mo16 1_555 1_555
O99 C33 1_555 1_555
O101 Mo6 1_555 1_555
O102 C33 1_555 1_555
O104 C143 1_555 1_555
O108 C37 1_555 1_555
Cu1 O11 1_555 1_555
Cu2 O35 1_555 1_555
Cu17 O33 1_555 1_555
N1 Cu2 1_555 1_555
N3 Cu2 1_555 1_555
N4 Cu1 1_555 1_555
N5 Cu17 1_555 1_555
N26 C96 1_555 1_555
N7 Cu17 1_555 1_555
N8 C6 1_555 1_555
N20 Cu2 1_555 1_555
N29 C60 1_555 1_555
N30 C64 1_555 1_555
N24 Cu1 1_555 1_555
C2 H12 1_555 1_555
C4 H14 1_555 1_555
H15 C4 1_555 1_555
C5 H16 1_555 1_555
C6 C5 1_555 1_555
H17 C6 1_555 1_555
C7 C30 1_555 1_555
C8 N7 1_555 1_555
H18 C8 1_555 1_555
C10 H20 1_555 1_555
C12 N24 1_555 1_555
H22 C12 1_555 1_555
C17 N8 1_555 1_555
H28 C17 1_555 1_555
C18 H29 1_555 1_555
H30 C18 1_555 1_555
C19 C22 1_555 1_555
C21 C65 1_555 1_555
C22 H33 1_555 1_555
C26 H38 1_555 1_555
C28 C8 1_555 1_555
H40 C28 1_555 1_555
C30 H41 1_555 1_555
C33 C18 1_555 1_555
C35 C17 1_555 1_555
H44 C35 1_555 1_555
C36 N5 1_555 1_555
H45 C36 1_555 1_555
C37 O85 1_555 1_555
C39 H47 1_555 1_555
H48 C39 1_555 1_555
C41 N5 1_555 1_555
H50 C41 1_555 1_555
C42 N1 1_555 1_555
H51 C42 1_555 1_555
C46 H54 1_555 1_555
C49 N3 1_555 1_555
H56 C49 1_555 1_555
C52 H59 1_555 1_555
C53 N4 1_555 1_555
H60 C53 1_555 1_555
C54 C28 1_555 1_555
C55 N7 1_555 1_555
H61 C55 1_555 1_555
C58 C10 1_555 1_555
C60 H66 1_555 1_555
C63 N1 1_555 1_555
H69 C63 1_555 1_555
C64 C2 1_555 1_555
H70 C64 1_555 1_555
C65 C107 1_555 1_555
C67 C19 1_555 1_555
H73 C67 1_555 1_555
C71 N29 1_555 1_555
H77 C71 1_555 1_555
C73 P1 1_555 1_555
H79 C73 1_555 1_555
H80 C73 1_555 1_555
C79 C71 1_555 1_555
C80 C27 1_555 1_555
C81 C79 1_555 1_555
C87 C91 1_555 1_555
C90 N20 1_555 1_555
H91 C90 1_555 1_555
C91 C112 1_555 1_555
C93 P2 1_555 1_555
H94 C93 1_555 1_555
H95 C93 1_555 1_555
C96 C22 1_555 1_555
H98 C96 1_555 1_555
C99 C5 1_555 1_555
C102 C87 1_555 1_555
H104 C102 1_555 1_555
C103 N26 1_555 1_555
H105 C103 1_555 1_555
C106 C7 1_555 1_555
H108 C106 1_555 1_555
C107 C63 1_555 1_555
H109 C107 1_555 1_555
C108 N20 1_555 1_555
H110 C108 1_555 1_555
C109 C80 1_555 1_555
H111 C109 1_555 1_555
C112 C53 1_555 1_555
H112 C112 1_555 1_555
C115 N24 1_555 1_555
H115 C115 1_555 1_555
C116 N3 1_555 1_555
H116 C116 1_555 1_555
C120 C49 1_555 1_555
H119 C120 1_555 1_555
C121 N4 1_555 1_555
H120 C121 1_555 1_555
C123 C2 1_555 1_555
C128 C91 1_555 1_555
H126 C128 1_555 1_555
C129 C60 1_555 1_555
H127 C129 1_555 1_555
C130 C42 1_555 1_555
H128 C130 1_555 1_555
C131 N30 1_555 1_555
H129 C131 1_555 1_555
H130 C132 1_555 1_555
C141 C4 1_555 1_555
C143 C39 1_555 1_555
C144 C37 1_555 1_555
H136 C144 1_555 1_555
H137 C144 1_555 1_555
O112 Cu2 1_555 1_555
O113 Cu1 1_555 1_555
Cu10 O69 1_555 1_555
N25 Cu1 1_555 1_555
Mo6 O18 1_555 1_555
Mo6 O25 1_555 1_555
Mo8 O19 1_555 1_555
Mo10 O28 1_555 1_555
Mo10 O91 1_555 1_555
Mo12 O14 1_555 1_555
Mo12 O92 1_555 1_555
Mo16 O79 1_555 1_555
Mo19 O24 1_555 1_555
Mo19 O97 1_555 1_555
P1 O24 1_555 1_555
P1 O68 1_555 1_555
P2 O23 1_555 1_555
P2 O28 1_555 1_555
O37 Cu1 1_555 1_555
O39 Cu17 1_555 1_555
C7 C123 1_555 1_555
C10 C36 1_555 1_555
C12 C106 1_555 1_555
C18 C93 1_555 1_555
C19 C58 1_555 1_555
C26 C41 1_555 1_555
C26 C58 1_555 1_555
C27 C90 1_555 1_555
C30 C115 1_555 1_555
C35 C99 1_555 1_555
C39 C73 1_555 1_555
C46 C123 1_555 1_555
C46 C131 1_555 1_555
C52 C54 1_555 1_555
C52 C55 1_555 1_555
C54 C99 1_555 1_555
C65 C130 1_555 1_555
C67 C103 1_555 1_555
C81 C129 1_555 1_555
C87 C120 1_555 1_555
C102 C116 1_555 1_555
C108 C109 1_555 1_555
C121 C128 1_555 1_555
C132 C144 1_555 1_555
O102 H153 1_555 1_555
N25 C100 1_555 1_555
C100 C68 1_555 1_555
H101 C100 1_555 1_555
C104 N25 1_555 1_555
H106 C104 1_555 1_555
H118 C119 1_555 1_555
C104 C119 1_555 1_555
N2 C100_2 1_555 1_555
C100_2 C68_2 1_555 1_555
H101_2 C100_2 1_555 1_555
C104_2 N2 1_555 1_555
H106_2 C104_2 1_555 1_555
H118_2 C119_2 1_555 1_555
Cu10 N2 1_555 1_555
C104_2 C119_2 1_555 1_555
Mo2_2 O5_2 1_555 1_555
Mo4_2 O10_2 1_555 1_555
Mo6_2 O12_2 1_555 1_555
Mo8_2 O5_2 1_555 1_555
Mo10_2 O17_2 1_555 1_555
Mo16_2 O23_2 1_555 1_555
Mo19_2 O17_2 1_555 1_555
P1_2 O18_2 1_555 1_555
P2_2 O12_2 1_555 1_555
O7_2 Mo12_2 1_555 1_555
O10_2 Cu11 1_555 1_555
O11_2 Mo2_2 1_555 1_555
O14_2 Mo2_2 1_555 1_555
O18_2 Mo4_2 1_555 1_555
O19_2 Mo2_2 1_555 1_555
O21_2 Mo8_2 1_555 1_555
O23_2 Mo19_2 1_555 1_555
O24_2 Mo10_2 1_555 1_555
O25_2 Mo4_2 1_555 1_555
O28_2 Mo4_2 1_555 1_555
O29_2 Mo4_2 1_555 1_555
O32_2 Mo19_2 1_555 1_555
O33_2 H1_2 1_555 1_555
H2_2 O33_2 1_555 1_555
O35_2 H3_2 1_555 1_555
H4_2 O35_2 1_555 1_555
O36_2 Mo2_2 1_555 1_555
O37_2 H5_2 1_555 1_555
H6_2 O37_2 1_555 1_555
O39_2 H7_2 1_555 1_555
H8_2 O39_2 1_555 1_555
O47_2 Mo16_2 1_555 1_555
O49 C143_2 1_555 1_555
O54_2 Mo12_2 1_555 1_555
O58_2 Mo10_2 1_555 1_555
O59_2 Mo8_2 1_555 1_555
O61_2 Mo6_2 1_555 1_555
O68_2 Mo16_2 1_555 1_555
O113 Mo16_2 1_555 1_555
O71 Mo19_2 1_555 1_555
O76_2 C141_2 1_555 1_555
O79_2 Mo6_2 1_555 1_555
O85_2 Cu6 1_555 1_555
O89_2 Mo10_2 1_555 1_555
O91_2 Mo4_2 1_555 1_555
O92_2 Mo2_2 1_555 1_555
O93_2 Mo8_2 1_555 1_555
O97_2 Mo16_2 1_555 1_555
O99_2 C33_2 1_555 1_555
O101_2 Mo6_2 1_555 1_555
O102_2 C33_2 1_555 1_555
O104_2 C143_2 1_555 1_555
O108_2 C37_2 1_555 1_555
Cu10 O11_2 1_555 1_555
Cu11 O35_2 1_555 1_555
Cu6 O33_2 1_555 1_555
N1_2 Cu11 1_555 1_555
N3_2 Cu11 1_555 1_555
N4_2 Cu10 1_555 1_555
N5_2 Cu6 1_555 1_555
N6 C96_2 1_555 1_555
N7_2 Cu6 1_555 1_555
N8_2 C6_2 1_555 1_555
N20_2 Cu11 1_555 1_555
N22 C60_2 1_555 1_555
N23 C64_2 1_555 1_555
N24_2 Cu10 1_555 1_555
C2_2 H12_2 1_555 1_555
C4_2 H14_2 1_555 1_555
H15_2 C4_2 1_555 1_555
C5_2 H16_2 1_555 1_555
C6_2 C5_2 1_555 1_555
H17_2 C6_2 1_555 1_555
C7_2 C30_2 1_555 1_555
C8_2 N7_2 1_555 1_555
H18_2 C8_2 1_555 1_555
C10_2 H20_2 1_555 1_555
C12_2 N24_2 1_555 1_555
H22_2 C12_2 1_555 1_555
C17_2 N8_2 1_555 1_555
H28_2 C17_2 1_555 1_555
C18_2 H29_2 1_555 1_555
H30_2 C18_2 1_555 1_555
C19_2 C22_2 1_555 1_555
C21_2 C65_2 1_555 1_555
C22_2 H33_2 1_555 1_555
C26_2 H38_2 1_555 1_555
C28_2 C8_2 1_555 1_555
H40_2 C28_2 1_555 1_555
C30_2 H41_2 1_555 1_555
C33_2 C18_2 1_555 1_555
C35_2 C17_2 1_555 1_555
H44_2 C35_2 1_555 1_555
C36_2 N5_2 1_555 1_555
H45_2 C36_2 1_555 1_555
C37_2 O85_2 1_555 1_555
C39_2 H47_2 1_555 1_555
H48_2 C39_2 1_555 1_555
C41_2 N5_2 1_555 1_555
H50_2 C41_2 1_555 1_555
C42_2 N1_2 1_555 1_555
H51_2 C42_2 1_555 1_555
C46_2 H54_2 1_555 1_555
C49_2 N3_2 1_555 1_555
H56_2 C49_2 1_555 1_555
C52_2 H59_2 1_555 1_555
C53_2 N4_2 1_555 1_555
H60_2 C53_2 1_555 1_555
C54_2 C28_2 1_555 1_555
C55_2 N7_2 1_555 1_555
H61_2 C55_2 1_555 1_555
C58_2 C10_2 1_555 1_555
C60_2 H66_2 1_555 1_555
C63_2 N1_2 1_555 1_555
H69_2 C63_2 1_555 1_555
C64_2 C2_2 1_555 1_555
H70_2 C64_2 1_555 1_555
C65_2 C107_2 1_555 1_555
C67_2 C19_2 1_555 1_555
H73_2 C67_2 1_555 1_555
C71_2 N22 1_555 1_555
H77_2 C71_2 1_555 1_555
C73_2 P1_2 1_555 1_555
H79_2 C73_2 1_555 1_555
H80_2 C73_2 1_555 1_555
C79_2 C71_2 1_555 1_555
C80_2 C27_2 1_555 1_555
C81_2 C79_2 1_555 1_555
C87_2 C91_2 1_555 1_555
C90_2 N20_2 1_555 1_555
H91_2 C90_2 1_555 1_555
C91_2 C112_2 1_555 1_555
C93_2 P2_2 1_555 1_555
H94_2 C93_2 1_555 1_555
H95_2 C93_2 1_555 1_555
C96_2 C22_2 1_555 1_555
H98_2 C96_2 1_555 1_555
C99_2 C5_2 1_555 1_555
C102_2 C87_2 1_555 1_555
H104_2 C102_2 1_555 1_555
C103_2 N6 1_555 1_555
H105_2 C103_2 1_555 1_555
C106_2 C7_2 1_555 1_555
H108_2 C106_2 1_555 1_555
C107_2 C63_2 1_555 1_555
H109_2 C107_2 1_555 1_555
C108_2 N20_2 1_555 1_555
H110_2 C108_2 1_555 1_555
C109_2 C80_2 1_555 1_555
H111_2 C109_2 1_555 1_555
C112_2 C53_2 1_555 1_555
H112_2 C112_2 1_555 1_555
C115_2 N24_2 1_555 1_555
H115_2 C115_2 1_555 1_555
C116_2 N3_2 1_555 1_555
H116_2 C116_2 1_555 1_555
C120_2 C49_2 1_555 1_555
H119_2 C120_2 1_555 1_555
C121_2 N4_2 1_555 1_555
H120_2 C121_2 1_555 1_555
C123_2 C2_2 1_555 1_555
C128_2 C91_2 1_555 1_555
H126_2 C128_2 1_555 1_555
C129_2 C60_2 1_555 1_555
H127_2 C129_2 1_555 1_555
C130_2 C42_2 1_555 1_555
H128_2 C130_2 1_555 1_555
C131_2 N23 1_555 1_555
H129_2 C131_2 1_555 1_555
H130_2 C132_2 1_555 1_555
C141_2 C4_2 1_555 1_555
C143_2 C39_2 1_555 1_555
C144_2 C37_2 1_555 1_555
H136_2 C144_2 1_555 1_555
H137_2 C144_2 1_555 1_555
O109 Cu6 1_555 1_555
Cu14 N22 1_555 1_555
Cu15 O49 1_555 1_555
Cu18 O71 1_555 1_555
Cu21 N23 1_555 1_555
Mo6_2 O18_2 1_555 1_555
Mo6_2 O25_2 1_555 1_555
Mo8_2 O19_2 1_555 1_555
Mo10_2 O28_2 1_555 1_555
Mo10_2 O91_2 1_555 1_555
Mo12_2 O14_2 1_555 1_555
Mo12_2 O92_2 1_555 1_555
Mo16_2 O79_2 1_555 1_555
Mo19_2 O24_2 1_555 1_555
Mo19_2 O97_2 1_555 1_555
P1_2 O24_2 1_555 1_555
P1_2 O68_2 1_555 1_555
P2_2 O23_2 1_555 1_555
P2_2 O28_2 1_555 1_555
O37_2 Cu10 1_555 1_555
O39_2 Cu6 1_555 1_555
N6 Cu15 1_555 1_555
C7_2 C123_2 1_555 1_555
C10_2 C36_2 1_555 1_555
C12_2 C106_2 1_555 1_555
C18_2 C93_2 1_555 1_555
C19_2 C58_2 1_555 1_555
C26_2 C41_2 1_555 1_555
C26_2 C58_2 1_555 1_555
C27_2 C90_2 1_555 1_555
C30_2 C115_2 1_555 1_555
C35_2 C99_2 1_555 1_555
C39_2 C73_2 1_555 1_555
C46_2 C123_2 1_555 1_555
C46_2 C131_2 1_555 1_555
C52_2 C54_2 1_555 1_555
C52_2 C55_2 1_555 1_555
C54_2 C99_2 1_555 1_555
C65_2 C130_2 1_555 1_555
C67_2 C103_2 1_555 1_555
C81_2 C129_2 1_555 1_555
C87_2 C120_2 1_555 1_555
C102_2 C116_2 1_555 1_555
C108_2 C109_2 1_555 1_555
C121_2 C128_2 1_555 1_555
C132_2 C144_2 1_555 1_555
O102_2 H153_2 1_555 1_555
O30_2 Cu15 1_555 1_555
O41_2 Cu15 1_555 1_555
O117 Cu15 1_555 1_555
O30_2 H145_2 1_555 1_555
O30_2 H146_2 1_555 1_555
O41_2 H147_2 1_555 1_555
O41_2 H148_2 1_555 1_555
N15 C95_2 1_555 1_555
C95_2 C75_2 1_555 1_555
H97_2 C95_2 1_555 1_555
C125_2 N15 1_555 1_555
H123_2 C125_2 1_555 1_555
H132_2 C133_2 1_555 1_555
Cu14 N15 1_555 1_555
C125_2 C133_2 1_555 1_555
O78_2 C142_2 1_555 1_555
O103_2 C139_2 1_555 1_555
O105_2 C142_2 1_555 1_555
O103_2 H152_2 1_555 1_555
Mo1_2 O4_2 1_555 1_555
Mo3_2 O13_2 1_555 1_555
Mo5_2 O4_2 1_555 1_555
Mo7_2 O13_2 1_555 1_555
Mo9_2 O3_2 1_555 1_555
Mo13_2 O6_2 1_555 1_555
Mo21 O55_2 1_555 1_555
Mo17_2 O3_2 1_555 1_555
Mo18_2 O1_2 1_555 1_555
P3_2 O15_2 1_555 1_555
P5_2 O3_2 1_555 1_555
P7_2 O1_2 1_555 1_555
O2_2 C29_2 1_555 1_555
O9_2 Mo1_2 1_555 1_555
O13_2 P5_2 1_555 1_555
O15_2 Mo3_2 1_555 1_555
O16_2 Mo5_2 1_555 1_555
O20_2 Mo3_2 1_555 1_555
O22_2 Mo13_2 1_555 1_555
O27_2 Mo18_2 1_555 1_555
O31_2 Mo3_2 1_555 1_555
O34_2 Mo7_2 1_555 1_555
O40_2 Mo11_2 1_555 1_555
O43_2 Mo1_2 1_555 1_555
O109 C29_2 1_555 1_555
O45_2 Mo3_2 1_555 1_555
H10_2 O46_2 1_555 1_555
O48_2 Mo1_2 1_555 1_555
O50_2 Mo3_2 1_555 1_555
O51_2 Mo9_2 1_555 1_555
O53_2 Mo17_2 1_555 1_555
O55_2 Mo7_2 1_555 1_555
O56_2 Mo13_2 1_555 1_555
O57_2 Mo18_2 1_555 1_555
O60_2 Mo5_2 1_555 1_555
O63_2 Mo17_2 1_555 1_555
O65_2 Cu3_2 1_555 1_555
O66_2 Mo21 1_555 1_555
O112 Mo13_2 1_555 1_555
O70_2 Mo21 1_555 1_555
O73_2 Mo1_2 1_555 1_555
O81_2 Mo5_2 1_555 1_555
O82_2 Mo11_2 1_555 1_555
O83_2 Mo7_2 1_555 1_555
O86_2 Mo9_2 1_555 1_555
O87_2 Mo21 1_555 1_555
O88_2 Mo21 1_555 1_555
O90_2 Mo9_2 1_555 1_555
O94_2 Mo1_2 1_555 1_555
O95_2 Mo13_2 1_555 1_555
O98_2 Mo7_2 1_555 1_555
O117 C32_2 1_555 1_555
Cu3_2 O43_2 1_555 1_555
Cu14 O20_2 1_555 1_555
Cu18 N9_2 1_555 1_555
Cu21 O27_2 1_555 1_555
N9_2 C25_2 1_555 1_555
N10_2 Cu21 1_555 1_555
N12_2 Cu21 1_555 1_555
N13_2 Cu14 1_555 1_555
N14_2 Cu3_2 1_555 1_555
N16_2 Cu3_2 1_555 1_555
N17_2 Cu18 1_555 1_555
N18_2 Cu3_2 1_555 1_555
N19_2 Cu18 1_555 1_555
N21_2 Cu21 1_555 1_555
C3_2 N10_2 1_555 1_555
H13_2 C3_2 1_555 1_555
C9_2 N19_2 1_555 1_555
H19_2 C9_2 1_555 1_555
C11_2 N12_2 1_555 1_555
H21_2 C11_2 1_555 1_555
C13_2 H23_2 1_555 1_555
H24_2 C13_2 1_555 1_555
C14_2 H25_2 1_555 1_555
H26_2 C14_2 1_555 1_555
C16_2 H27_2 1_555 1_555
C23_2 H34_2 1_555 1_555
H35_2 C23_2 1_555 1_555
C24_2 H36_2 1_555 1_555
C25_2 H37_2 1_555 1_555
C29_2 C140_2 1_555 1_555
C31_2 H42_2 1_555 1_555
C32_2 C13_2 1_555 1_555
C34_2 H43_2 1_555 1_555
C38_2 N13_2 1_555 1_555
H46_2 C38_2 1_555 1_555
C43_2 C62_2 1_555 1_555
C44_2 N9_2 1_555 1_555
H52_2 C44_2 1_555 1_555
C45_2 N12_2 1_555 1_555
H53_2 C45_2 1_555 1_555
C47_2 C16_2 1_555 1_555
C50_2 H57_2 1_555 1_555
C51_2 C3_2 1_555 1_555
H58_2 C51_2 1_555 1_555
C56_2 P4_2 1_555 1_555
H62_2 C56_2 1_555 1_555
H63_2 C56_2 1_555 1_555
C57_2 N14_2 1_555 1_555
H64_2 C57_2 1_555 1_555
C59_2 C9_2 1_555 1_555
H65_2 C59_2 1_555 1_555
C61_2 N17_2 1_555 1_555
H67_2 C61_2 1_555 1_555
H72_2 C66_2 1_555 1_555
C69_2 C38_2 1_555 1_555
H75_2 C69_2 1_555 1_555
C70_2 C25_2 1_555 1_555
H76_2 C70_2 1_555 1_555
C72_2 N13_2 1_555 1_555
C74_2 N17_2 1_555 1_555
H81_2 C74_2 1_555 1_555
C82_2 N16_2 1_555 1_555
C83_2 C15_2 1_555 1_555
H87_2 C83_2 1_555 1_555
C84_2 N21_2 1_555 1_555
H88_2 C84_2 1_555 1_555
C85_2 N10_2 1_555 1_555
H89_2 C85_2 1_555 1_555
C86_2 C43_2 1_555 1_555
C88_2 C24_2 1_555 1_555
C89_2 C15_2 1_555 1_555
H90_2 C89_2 1_555 1_555
C92_2 P3_2 1_555 1_555
H93_2 C92_2 1_555 1_555
C94_2 N16_2 1_555 1_555
H96_2 C94_2 1_555 1_555
C98_2 N19_2 1_555 1_555
H100_2 C98_2 1_555 1_555
C101_2 P5_2 1_555 1_555
H102_2 C101_2 1_555 1_555
H103_2 C101_2 1_555 1_555
C105_2 N18_2 1_555 1_555
H107_2 C105_2 1_555 1_555
C110_2 C50_2 1_555 1_555
C113_2 C61_2 1_555 1_555
H113_2 C113_2 1_555 1_555
C114_2 C57_2 1_555 1_555
H114_2 C114_2 1_555 1_555
C117_2 H117_2 1_555 1_555
C122_2 C86_2 1_555 1_555
H121_2 C122_2 1_555 1_555
C126_2 N18_2 1_555 1_555
H124_2 C126_2 1_555 1_555
C127_2 N14_2 1_555 1_555
H125_2 C127_2 1_555 1_555
C134_2 N21_2 1_555 1_555
H133_2 C134_2 1_555 1_555
C135_2 C34_2 1_555 1_555
C136_2 C31_2 1_555 1_555
C137_2 C117_2 1_555 1_555
C138_2 C105_2 1_555 1_555
H134_2 C138_2 1_555 1_555
C140_2 C101_2 1_555 1_555
H135_2 C140_2 1_555 1_555
O111 Cu18 1_555 1_555
N27 Cu18 1_555 1_555
Mo5_2 O9_2 1_555 1_555
Mo7_2 O45_2 1_555 1_555
Mo9_2 O15_2 1_555 1_555
Mo9_2 O50_2 1_555 1_555
Mo11_2 O48_2 1_555 1_555
Mo11_2 O94_2 1_555 1_555
Mo13_2 O84_2 1_555 1_555
Mo17_2 O51_2 1_555 1_555
Mo17_2 O70_2 1_555 1_555
Mo17_2 O88_2 1_555 1_555
Mo18_2 O22_2 1_555 1_555
Mo18_2 O52_2 1_555 1_555
Mo18_2 O95_2 1_555 1_555
P3_2 O34_2 1_555 1_555
P3_2 O70_2 1_555 1_555
P4_2 O22_2 1_555 1_555
P5_2 O87_2 1_555 1_555
P7_2 O56_2 1_555 1_555
O46_2 Cu14 1_555 1_555
O53_2 Cu21 1_555 1_555
C13_2 C66_2 1_555 1_555
C16_2 C85_2 1_555 1_555
C23_2 C92_2 1_555 1_555
C24_2 C94_2 1_555 1_555
C31_2 C74_2 1_555 1_555
C34_2 C44_2 1_555 1_555
C43_2 C69_2 1_555 1_555
C47_2 C51_2 1_555 1_555
C47_2 C135_2 1_555 1_555
C50_2 C98_2 1_555 1_555
C59_2 C110_2 1_555 1_555
C62_2 C72_2 1_555 1_555
C70_2 C135_2 1_555 1_555
C77_2 C82_2 1_555 1_555
C77_2 C88_2 1_555 1_555
C78_2 C88_2 1_555 1_555
C83_2 C84_2 1_555 1_555
C86_2 C114_2 1_555 1_555
C89_2 C134_2 1_555 1_555
C113_2 C136_2 1_555 1_555
C117_2 C126_2 1_555 1_555
C122_2 C127_2 1_555 1_555
C136_2 C137_2 1_555 1_555
C137_2 C138_2 1_555 1_555
C140_2 H138_2 1_555 1_555
O65_2 H150_2 1_555 1_555
N27 C48_2 1_555 1_555
C1_2 H11_2 1_555 1_555
C40_2 H49_2 1_555 1_555
C48_2 H55_2 1_555 1_555
C76_2 N27 1_555 1_555
H83_2 C76_2 1_555 1_555
H99_2 C97_2 1_555 1_555
C111_2 C1_2 1_555 1_555
C118_2 C40_2 1_555 1_555
C124_2 C48_2 1_555 1_555
H122_2 C124_2 1_555 1_555
C1_2 C76_2 1_555 1_555
C97_2 C118_2 1_555 1_555
C111_2 C118_2 1_555 1_555
C111_2 C124_2 1_555 1_555
Mo14_2 O8_2 1_555 1_555
Mo20_2 O26_2 1_555 1_555
P8_2 O8_2 1_555 1_555
O26_2 P8_2 1_555 1_555
O38_2 Mo14_2 1_555 1_555
O42_2 Mo20_2 1_555 1_555
O111 Mo14_2 1_555 1_555
O72_2 Mo14_2 1_555 1_555
O74_2 Mo14_2 1_555 1_555
O116 Mo20_2 1_555 1_555
C20_2 P6_2 1_555 1_555
H31_2 C20_2 1_555 1_555
Mo14_2 O64_2 1_555 1_555
Mo20_2 O72_2 1_555 1_555
Mo20_2 O74_2 1_555 1_555
Mo20_2 O80_2 1_555 1_555
P6_2 O74_2 1_555 1_555
O118 H139 1_555 1_555
O118 H141 1_555 1_555
O118_2 H139_2 1_555 1_555
O118_2 H141_2 1_555 1_555
O119 H142 1_555 1_555
O119 H144 1_555 1_555
O119_2 H142_2 1_555 1_555
O119_2 H144_2 1_555 1_555

#END
