
###############################################################################
#
# This file contains modified crystal structure data generated from the
# MOF subset of the Cambridge Structural Database (CSD) v543 
# hosted by the Cambridge Crystallographic Data Centre (CCDC).
#
# This work is licensed under the Creative Commons
# Attribution-NonCommercial-ShareAlike 4.0 International License.
# To view a copy of this license, visit
# http://creativecommons.org/licenses/by-nc-sa/4.0/
# or send a letter to
# Creative Commons, PO Box 1866, Mountain View, CA 94042, USA.
#
# CIF created using the CSD Python API on 29 September 2022
# The structure has been converted into the P1 space group
# The structure has a 3D framework
# The original CSD entry XUGDOU is in the monoclinic crystal system
# The framework has been calculated to contain at least 10.0% void space
# The void calculation uses a probe of radius 1.32A, grid spacing 0.4
#
###############################################################################

data_XUGDOU
_chemical_formula_moiety         '(C48 H48 Cd16 N124 O8)n'
_symmetry_cell_setting           triclinic
_symmetry_space_group_name_H-M   'P 1'
_symmetry_Int_Tables_number      1
_space_group_name_Hall           'P 1'
loop_
_symmetry_equiv_pos_site_id
_symmetry_equiv_pos_as_xyz
1 x,y,z
_cell_length_a                   16.538(7)
_cell_length_b                   9.904(4)
_cell_length_c                   21.902(9)
_cell_angle_alpha                90
_cell_angle_beta                 109.804(5)
_cell_angle_gamma                90
_cell_volume                     3375.21
loop_
_atom_site_label
_atom_site_type_symbol
_atom_site_fract_x
_atom_site_fract_y
_atom_site_fract_z
N1 N 0.3686(11) 0.0386(17) 0.0849(6)
N2 N 0.4039(12) 0.1697(16) 0.1018(8)
N3 N 0.4095(13) 0.1958(17) 0.1669(8)
C1 C 0.3776(13) 0.081(2) 0.1902(6)
C2 C 0.2435(14) 0.274(2) 0.4254(10)
C3 C 0.3161(15) 0.179(2) 0.4533(12)
H1 H 0.3217 0.1616 0.4982
H2 H 0.3015 0.0935 0.4302
C4 C 0.4008(15) 0.223(2) 0.4514(11)
C5 C 0.2935(16) 0.004(3) 0.2579(11)
C6 C 0.3883(17) 0.007(3) 0.2593(12)
H4 H 0.4248 0.0584 0.2959
Cd1 Cd 0.10173(9) 0.02975(13) 0.35320(6)
Cd2 Cd 0.36425(9) 0.53919(15) 0.48661(6)
N5 N 0.1606(11) 0.2375(18) 0.3946(8)
N6 N 0.1197(11) 0.3533(16) 0.3801(8)
N7 N 0.1702(11) 0.4551(19) 0.4003(8)
N8 N 0.2496(11) 0.4089(18) 0.4300(8)
N9 N 0.4373(12) 0.3422(19) 0.4717(9)
N10 N 0.5173(11) 0.3312(19) 0.4655(9)
N11 N 0.5250(14) 0.205(2) 0.4434(10)
N12 N 0.4532(13) 0.146(2) 0.4345(10)
N16 N 0.2677(13) 0.049(2) 0.3052(9)
O1 O 0.3760(12) 0.6171(19) 0.3884(8)
H9 H 0.3955 0.6973 0.3928
H10 H 0.3271 0.6162 0.3586
N33 N 0.3686(11) 0.4614(17) 0.5849(6)
Cd8 Cd 0.63575(9) 0.46081(15) 0.51339(6)
N35 N 0.4827(11) 0.6688(19) 0.5345(9)
N39 N 0.2649(10) 0.7257(16) 0.4795(7)
N40 N 0.0125(10) 0.1562(15) 0.2503(7)
N4 N 0.3524(11) 0.9837(15) 0.1395(8)
H3 H 0.4114 0.9161 0.2610
C7 C 0.0213(12) 0.7085(19) 0.3491(9)
C8 C 0.0338(12) 0.703(2) 0.4207(9)
H5 H 0.0385 0.7942 0.4377
H6 H 0.0871 0.6563 0.4433
N13 N 0.1887(11) 0.9965(18) 0.2898(8)
N14 N 0.1736(11) 0.9211(18) 0.2393(8)
N15 N 0.2388(12) 0.924(2) 0.2184(8)
N27 N 0.0130(10) 0.7812(15) 0.2559(7)
N28 N 0.0349(10) 0.8185(15) 0.3182(7)
Cd11 Cd 0.02903(9) 0.88936(13) 0.16435(6)
Cd13 Cd 0.24119(10) 0.82973(18) 0.12005(7)
N38 N 0.1948(10) 0.9097(16) 0.4407(7)
Cd9 Cd 0.36425(9) 0.96081(15) 0.98661(6)
C10 C 0.8848(13) 0.0591(19) 0.4265(9)
C12 C 0.7975(11) 0.1050(19) 0.4973(8)
Cd3 Cd 0.97097(9) 0.38936(13) 0.33565(6)
Cd4 Cd 0.75881(10) 0.32973(18) 0.37995(7)
N17 N 0.9849(10) 0.0806(15) 0.3873(7)
N18 N 0.9378(10) 0.1869(16) 0.3712(8)
N19 N 0.8739(10) 0.1780(15) 0.3954(7)
N21 N 0.8052(10) 0.0903(16) 0.5593(7)
N22 N 0.7663(10) 0.2051(16) 0.5731(7)
N23 N 0.7351(10) 0.2743(16) 0.5205(7)
N24 N 0.7528(10) 0.2146(15) 0.4708(7)
O2 O 0.6668(15) 0.165(3) 0.3154(11)
H11 H 0.6937 0.1202 0.2953
H12 H 0.6245 0.2039 0.2874
N34 N 0.6476(11) 0.4837(15) 0.3605(8)
N36 N 0.8264(11) 0.4211(18) 0.2607(8)
N37 N 0.7612(12) 0.424(2) 0.2816(8)
N41 N 0.9929(10) 0.6090(16) 0.3078(7)
N42 N 0.9870(10) 0.2812(15) 0.2441(7)
N43 N 0.8642(11) 0.4892(16) 0.4312(8)
N44 N 0.9300(10) 0.5082(15) 0.4107(7)
C9 C 0.9601(12) 0.6312(18) 0.4335(8)
C11 C 0.8300(13) 0.9990(18) 0.4607(9)
H7 H 0.8627 0.9313 0.4911
H8 H 0.7812 0.9544 0.4294
N20 N 0.9554(10) 0.9979(15) 0.4222(7)
N25 N 0.9875(10) 0.6562(15) 0.2497(7)
N29 N 0.9183(11) 0.6872(17) 0.4689(8)
N30 N 0.8548(12) 0.5943(18) 0.4653(8)
Cd5 Cd 0.89827(9) 0.52975(13) 0.14680(6)
Cd6 Cd 0.89827(9) 0.97025(13) 0.64680(6)
N41_2 N 0.0071(10) 0.1090(16) 0.1922(7)
N44_2 N 0.0700(10) 0.0082(15) 0.0893(7)
C9_2 C 0.0399(12) 0.1312(18) 0.0665(8)
C10_2 C 0.1152(13) 0.5591(19) 0.0735(9)
C11_2 C 0.1700(13) 0.4990(18) 0.0393(9)
H7_2 H 0.1373 0.4313 0.0089
H8_2 H 0.2188 0.4544 0.0706
C12_2 C 0.2025(11) 0.6050(19) 0.0027(8)
N17_2 N 0.0151(10) 0.5806(15) 0.1127(7)
N18_2 N 0.0622(10) 0.6869(16) 0.1288(8)
N19_2 N 0.1261(10) 0.6780(15) 0.1046(7)
N20_2 N 0.0446(10) 0.4979(15) 0.0778(7)
N24_2 N 0.2472(10) 0.7146(15) 0.0292(7)
N29_2 N 0.0817(11) 0.1872(17) 0.0311(8)
N30_2 N 0.1452(12) 0.0943(18) 0.0347(8)
O2_2 O 0.3332(15) 0.665(3) 0.1846(11)
H11_2 H 0.3063 0.6202 0.2047
H12_2 H 0.3755 0.7039 0.2126
N43_2 N 0.1358(11) 0.9892(16) 0.0688(8)
N21_2 N 0.1948(10) 0.5903(16) 0.9407(7)
N22_2 N 0.2337(10) 0.7051(16) 0.9269(7)
N23_2 N 0.2649(10) 0.7743(16) 0.9795(7)
Cd6_2 Cd 0.10173(9) 0.47025(13) 0.85320(6)
Cd2_2 Cd 0.63575(9) 0.03919(15) 0.01339(6)
O1_2 O 0.6240(12) 0.1171(19) 0.1116(8)
H9_2 H 0.6045 0.1973 0.1072
H10_2 H 0.6729 0.1162 0.1414
N39_2 N 0.7351(10) 0.2257(16) 0.0205(7)
N35_2 N 0.5173(11) 0.1688(19) 0.9655(9)
N1_2 N 0.6314(11) 0.5386(17) 0.4151(6)
N2_2 N 0.5961(12) 0.6697(16) 0.3982(8)
N3_2 N 0.5905(13) 0.6958(17) 0.3331(8)
C1_2 C 0.6224(13) 0.581(2) 0.3098(6)
C2_2 C 0.7565(14) 0.774(2) 0.0746(10)
C3_2 C 0.6839(15) 0.679(2) 0.0467(12)
H1_2 H 0.6783 0.6616 0.0018
H2_2 H 0.6985 0.5935 0.0698
C4_2 C 0.5992(15) 0.723(2) 0.0486(11)
C5_2 C 0.7065(16) 0.504(3) 0.2421(11)
C6_2 C 0.6117(17) 0.507(3) 0.2407(12)
H3_2 H 0.5886 0.4161 0.2390
H4_2 H 0.5752 0.5584 0.2041
C7_2 C 0.9787(12) 0.2085(19) 0.1509(9)
C8_2 C 0.9662(12) 0.203(2) 0.0793(9)
H5_2 H 0.9615 0.2942 0.0623
H6_2 H 0.9129 0.1563 0.0567
N5_2 N 0.8394(11) 0.7375(18) 0.1054(8)
N6_2 N 0.8803(11) 0.8533(16) 0.1199(8)
N7_2 N 0.8298(11) 0.9551(19) 0.0997(8)
N8_2 N 0.7504(11) 0.9089(18) 0.0700(8)
N9_2 N 0.5627(12) 0.8422(19) 0.0283(9)
N10_2 N 0.4827(11) 0.8312(19) 0.0345(9)
N11_2 N 0.4750(14) 0.705(2) 0.0566(10)
N12_2 N 0.5468(13) 0.646(2) 0.0655(10)
N13_2 N 0.8113(11) 0.4965(18) 0.2102(8)
N16_2 N 0.7323(13) 0.549(2) 0.1948(9)
N28_2 N 0.9651(10) 0.3185(15) 0.1818(7)
N38_2 N 0.8052(10) 0.4097(16) 0.0593(7)
N33_2 N 0.6314(11) 0.9614(17) 0.9151(6)
C9_3 C 0.0399(12) 0.3688(18) 0.5665(8)
C11_3 C 0.1700(13) 0.0010(18) 0.5393(9)
H7_3 H 0.1373 0.0687 0.5089
H8_3 H 0.2188 0.0456 0.5706
N20_3 N 0.0446(10) 0.0021(15) 0.5778(7)
N25_2 N 0.0125(10) 0.3438(15) 0.7503(7)
N26 N 0.0071(10) 0.3910(16) 0.6922(7)
N29_3 N 0.0817(11) 0.3128(17) 0.5311(8)
N30_3 N 0.1452(12) 0.4057(18) 0.5347(8)
N31 N 0.1358(11) 0.5108(16) 0.5688(8)
N32 N 0.0700(10) 0.4918(15) 0.5893(7)
Cd10 Cd 0.02903(9) 0.61064(13) 0.66435(6)
Cd12 Cd 0.24119(10) 0.67027(18) 0.62005(7)
C10_3 C 0.1152(13) 0.9409(19) 0.5735(9)
C12_3 C 0.2025(11) 0.8950(19) 0.5027(8)
N17_3 N 0.0151(10) 0.9194(15) 0.6127(7)
N18_3 N 0.0622(10) 0.8131(16) 0.6288(8)
N19_3 N 0.1261(10) 0.8220(15) 0.6046(7)
N22_3 N 0.2337(10) 0.7949(16) 0.4269(7)
N24_3 N 0.2472(10) 0.7854(15) 0.5292(7)
O2_3 O 0.3332(15) 0.835(3) 0.6846(11)
H11_3 H 0.3063 0.8798 0.7047
H12_3 H 0.3755 0.7961 0.7126
N34_2 N 0.3524(11) 0.5163(15) 0.6395(8)
N36_2 N 0.1736(11) 0.5789(18) 0.7393(8)
N37_2 N 0.2388(12) 0.576(2) 0.7184(8)
N42_2 N 0.0130(10) 0.7188(15) 0.7559(7)
N4_2 N 0.6476(11) 0.0163(15) 0.8605(8)
H3_3 H 0.5886 0.0839 0.7390
C7_3 C 0.9787(12) 0.2915(19) 0.6509(9)
C8_3 C 0.9662(12) 0.297(2) 0.5793(9)
H5_3 H 0.9615 0.2058 0.5623
H6_3 H 0.9129 0.3437 0.5567
N13_3 N 0.8113(11) 0.0035(18) 0.7102(8)
N14_2 N 0.8264(11) 0.0789(18) 0.7607(8)
N15_2 N 0.7612(12) 0.076(2) 0.7816(8)
N27_2 N 0.9870(10) 0.2188(15) 0.7441(7)
N28_3 N 0.9651(10) 0.1815(15) 0.6818(7)
Cd11_2 Cd 0.97097(9) 0.11064(13) 0.83565(6)
Cd13_2 Cd 0.75881(10) 0.17027(18) 0.87995(7)
N2_3 N 0.5961(12) 0.8303(16) 0.8982(8)
N3_3 N 0.5905(13) 0.8042(17) 0.8331(8)
C1_3 C 0.6224(13) 0.919(2) 0.8098(6)
C2_3 C 0.7565(14) 0.726(2) 0.5746(10)
C3_3 C 0.6839(15) 0.821(2) 0.5467(12)
H1_3 H 0.6783 0.8384 0.5018
H2_3 H 0.6985 0.9065 0.5698
C4_3 C 0.5992(15) 0.777(2) 0.5486(11)
C5_3 C 0.7065(16) 0.996(3) 0.7421(11)
C6_3 C 0.6117(17) 0.993(3) 0.7407(12)
H4_3 H 0.5752 0.9416 0.7041
N5_3 N 0.8394(11) 0.7625(18) 0.6054(8)
N6_3 N 0.8803(11) 0.6467(16) 0.6199(8)
N7_3 N 0.8298(11) 0.5449(19) 0.5997(8)
N8_3 N 0.7504(11) 0.5911(18) 0.5700(8)
N9_3 N 0.5627(12) 0.6578(19) 0.5283(9)
N11_3 N 0.4750(14) 0.795(2) 0.5566(10)
N12_3 N 0.5468(13) 0.854(2) 0.5655(10)
N16_3 N 0.7323(13) 0.951(2) 0.6948(9)
O1_3 O 0.6240(12) 0.3829(19) 0.6116(8)
H9_3 H 0.6045 0.3027 0.6072
H10_3 H 0.6729 0.3838 0.6414
N40_2 N 0.9875(10) 0.8438(15) 0.7497(7)
N2_4 N 0.4039(12) 0.3303(16) 0.6018(8)
N3_4 N 0.4095(13) 0.3042(17) 0.6669(8)
C1_4 C 0.3776(13) 0.419(2) 0.6902(6)
C2_4 C 0.2435(14) 0.226(2) 0.9254(10)
C3_4 C 0.3161(15) 0.321(2) 0.9533(12)
H1_4 H 0.3217 0.3384 0.9982
H2_4 H 0.3015 0.4065 0.9302
C4_4 C 0.4008(15) 0.277(2) 0.9514(11)
C5_4 C 0.2935(16) 0.496(3) 0.7579(11)
C6_4 C 0.3883(17) 0.493(3) 0.7593(12)
H3_4 H 0.4114 0.5839 0.7610
H4_4 H 0.4248 0.4416 0.7959
C7_4 C 0.0213(12) 0.7915(19) 0.8491(9)
C8_4 C 0.0338(12) 0.797(2) 0.9207(9)
H5_4 H 0.0385 0.7058 0.9377
H6_4 H 0.0871 0.8437 0.9433
N5_4 N 0.1606(11) 0.2625(18) 0.8946(8)
N6_4 N 0.1197(11) 0.1467(16) 0.8801(8)
N7_4 N 0.1702(11) 0.0449(19) 0.9003(8)
N8_4 N 0.2496(11) 0.0911(18) 0.9300(8)
N9_4 N 0.4373(12) 0.1578(19) 0.9717(9)
N11_4 N 0.5250(14) 0.295(2) 0.9434(10)
N12_4 N 0.4532(13) 0.354(2) 0.9345(10)
N13_4 N 0.1887(11) 0.5035(18) 0.7898(8)
N16_4 N 0.2677(13) 0.451(2) 0.8052(9)
N28_4 N 0.0349(10) 0.6815(15) 0.8182(7)
O1_4 O 0.3760(12) 0.8829(19) 0.8884(8)
H9_4 H 0.3955 0.8027 0.8928
H10_4 H 0.3271 0.8838 0.8586
N31_2 N 0.8642(11) 0.0108(16) 0.9312(8)
N22_4 N 0.7663(10) 0.2949(16) 0.0731(7)
C9_4 C 0.9601(12) 0.8688(18) 0.9335(8)
C10_4 C 0.8848(13) 0.4409(19) 0.9265(9)
C11_4 C 0.8300(13) 0.5010(18) 0.9607(9)
H7_4 H 0.8627 0.5687 0.9911
H8_4 H 0.7812 0.5456 0.9294
C12_4 C 0.7975(11) 0.3950(19) 0.9973(8)
N17_4 N 0.9849(10) 0.4194(15) 0.8873(7)
N18_4 N 0.9378(10) 0.3131(16) 0.8712(8)
N19_4 N 0.8739(10) 0.3220(15) 0.8954(7)
N20_4 N 0.9554(10) 0.5021(15) 0.9222(7)
N24_4 N 0.7528(10) 0.2854(15) 0.9708(7)
N26_2 N 0.9929(10) 0.8910(16) 0.8078(7)
N29_4 N 0.9183(11) 0.8128(17) 0.9689(8)
N30_4 N 0.8548(12) 0.9057(18) 0.9653(8)
N32_2 N 0.9300(10) 0.9918(15) 0.9107(7)
O2_4 O 0.6668(15) 0.335(3) 0.8154(11)
H11_4 H 0.6937 0.3798 0.7953
H12_4 H 0.6245 0.2961 0.7874
loop_
_geom_bond_atom_site_label_1
_geom_bond_atom_site_label_2
_geom_bond_site_symmetry_1
_geom_bond_site_symmetry_2
N1 N2 1_555 1_555
N2 N3 1_555 1_555
N3 C1 1_555 1_555
C2 C3 1_555 1_555
C3 H1 1_555 1_555
H2 C3 1_555 1_555
C4 C3 1_555 1_555
C5 C6 1_555 1_555
C6 C1 1_555 1_555
H4 C6 1_555 1_555
Cd1 N5 1_555 1_555
Cd2 N8 1_555 1_555
N5 C2 1_555 1_555
N6 N5 1_555 1_555
N7 N6 1_555 1_555
N8 C2 1_555 1_555
N9 C4 1_555 1_555
N10 N9 1_555 1_555
N11 N10 1_555 1_555
N12 C4 1_555 1_555
N16 C5 1_555 1_555
O1 Cd2 1_555 1_555
H9 O1 1_555 1_555
H10 O1 1_555 1_555
N33 Cd2 1_555 1_555
Cd8 N10 1_555 1_555
N35 Cd2 1_555 1_555
N39 Cd2 1_555 1_555
N40 Cd1 1_555 1_555
Cd2 N9 1_555 1_555
N7 N8 1_555 1_555
N11 N12 1_555 1_555
C7 C8 1_555 1_555
C8 H5 1_555 1_555
H6 C8 1_555 1_555
N14 N13 1_555 1_555
N28 C7 1_555 1_555
Cd11 N14 1_555 1_555
Cd13 N4 1_555 1_555
N14 N15 1_555 1_555
N15 Cd13 1_555 1_555
N27 N28 1_555 1_555
N27 Cd11 1_555 1_555
Cd4 N19 1_555 1_555
N18 Cd3 1_555 1_555
N19 C10 1_555 1_555
N21 C12 1_555 1_555
N22 N21 1_555 1_555
N23 N22 1_555 1_555
N24 C12 1_555 1_555
O2 Cd4 1_555 1_555
H11 O2 1_555 1_555
H12 O2 1_555 1_555
N34 Cd4 1_555 1_555
Cd8 N23 1_555 1_555
N36 Cd3 1_555 1_555
N37 Cd4 1_555 1_555
N41 Cd3 1_555 1_555
N42 Cd3 1_555 1_555
N43 Cd4 1_555 1_555
N44 Cd3 1_555 1_555
Cd4 N24 1_555 1_555
N17 N18 1_555 1_555
N18 N19 1_555 1_555
N23 N24 1_555 1_555
N36 N37 1_555 1_555
N43 N44 1_555 1_555
C11 H7 1_555 1_555
H8 C11 1_555 1_555
N25 N41 1_555 1_555
N29 C9 1_555 1_555
N30 N29 1_555 1_555
N43 N30 1_555 1_555
N44 C9 1_555 1_555
Cd5 N25 1_555 1_555
C10_2 C11_2 1_555 1_555
C11_2 H7_2 1_555 1_555
H8_2 C11_2 1_555 1_555
C12_2 C11_2 1_555 1_555
Cd13 N19_2 1_555 1_555
N18_2 Cd11 1_555 1_555
N19_2 C10_2 1_555 1_555
N20_2 C10_2 1_555 1_555
N24_2 C12_2 1_555 1_555
N40 N41_2 1_555 1_555
N29_2 C9_2 1_555 1_555
N30_2 N29_2 1_555 1_555
N44_2 C9_2 1_555 1_555
O2_2 Cd13 1_555 1_555
H11_2 O2_2 1_555 1_555
H12_2 O2_2 1_555 1_555
N43_2 Cd13 1_555 1_555
Cd13 N24_2 1_555 1_555
N17_2 N18_2 1_555 1_555
N17_2 N20_2 1_555 1_555
N18_2 N19_2 1_555 1_555
N22_2 N21_2 1_555 1_555
N23_2 N22_2 1_555 1_555
Cd6_2 N21_2 1_555 1_555
Cd9 N23_2 1_555 1_555
O1_2 Cd2_2 1_555 1_555
H9_2 O1_2 1_555 1_555
H10_2 O1_2 1_555 1_555
N39_2 Cd2_2 1_555 1_555
N1_2 N2_2 1_555 1_555
N2_2 N3_2 1_555 1_555
N3_2 C1_2 1_555 1_555
C1_2 N34 1_555 1_555
N34 N1_2 1_555 1_555
C2_2 C3_2 1_555 1_555
C3_2 H1_2 1_555 1_555
H2_2 C3_2 1_555 1_555
C4_2 C3_2 1_555 1_555
C5_2 C6_2 1_555 1_555
C6_2 C1_2 1_555 1_555
H3_2 C6_2 1_555 1_555
H4_2 C6_2 1_555 1_555
C7_2 C8_2 1_555 1_555
C8_2 H5_2 1_555 1_555
H6_2 C8_2 1_555 1_555
Cd5 N5_2 1_555 1_555
N5_2 C2_2 1_555 1_555
N6_2 N5_2 1_555 1_555
N7_2 N6_2 1_555 1_555
N8_2 C2_2 1_555 1_555
N9_2 C4_2 1_555 1_555
N10_2 N9_2 1_555 1_555
N11_2 N10_2 1_555 1_555
N12_2 C4_2 1_555 1_555
N13_2 Cd5 1_555 1_555
N36 N13_2 1_555 1_555
N37 C5_2 1_555 1_555
N16_2 C5_2 1_555 1_555
N28_2 C7_2 1_555 1_555
Cd8 N1_2 1_555 1_555
N38_2 Cd5 1_555 1_555
Cd5 N28_2 1_555 1_555
N7_2 N8_2 1_555 1_555
N11_2 N12_2 1_555 1_555
N13_2 N16_2 1_555 1_555
N42 N28_2 1_555 1_555
C11_3 H7_3 1_555 1_555
H8_3 C11_3 1_555 1_555
N25_2 N26 1_555 1_555
N29_3 C9_3 1_555 1_555
N30_3 N29_3 1_555 1_555
N31 N30_3 1_555 1_555
N32 C9_3 1_555 1_555
Cd6_2 N25_2 1_555 1_555
Cd10 N26 1_555 1_555
Cd12 N31 1_555 1_555
N31 N32 1_555 1_555
N32 Cd10 1_555 1_555
Cd12 N19_3 1_555 1_555
N18_3 Cd10 1_555 1_555
N19_3 C10_3 1_555 1_555
N38 C12_3 1_555 1_555
N22_3 N38 1_555 1_555
N39 N22_3 1_555 1_555
N24_3 C12_3 1_555 1_555
O2_3 Cd12 1_555 1_555
H11_3 O2_3 1_555 1_555
H12_3 O2_3 1_555 1_555
N34_2 Cd12 1_555 1_555
N36_2 Cd10 1_555 1_555
N37_2 Cd12 1_555 1_555
N42_2 Cd10 1_555 1_555
Cd12 N24_3 1_555 1_555
N17_3 N18_3 1_555 1_555
N18_3 N19_3 1_555 1_555
N39 N24_3 1_555 1_555
N36_2 N37_2 1_555 1_555
C7_3 C8_3 1_555 1_555
C8_3 H5_3 1_555 1_555
H6_3 C8_3 1_555 1_555
N14_2 N13_3 1_555 1_555
N28_3 C7_3 1_555 1_555
Cd11_2 N14_2 1_555 1_555
Cd13_2 N4_2 1_555 1_555
N14_2 N15_2 1_555 1_555
N15_2 Cd13_2 1_555 1_555
N27_2 N28_3 1_555 1_555
N27_2 Cd11_2 1_555 1_555
N33_2 N2_3 1_555 1_555
N2_3 N3_3 1_555 1_555
N3_3 C1_3 1_555 1_555
C2_3 C3_3 1_555 1_555
C3_3 H1_3 1_555 1_555
H2_3 C3_3 1_555 1_555
C4_3 C3_3 1_555 1_555
C5_3 C6_3 1_555 1_555
C6_3 C1_3 1_555 1_555
H4_3 C6_3 1_555 1_555
Cd6 N5_3 1_555 1_555
Cd8 N8_3 1_555 1_555
N5_3 C2_3 1_555 1_555
N6_3 N5_3 1_555 1_555
N7_3 N6_3 1_555 1_555
N8_3 C2_3 1_555 1_555
N9_3 C4_3 1_555 1_555
N35 N9_3 1_555 1_555
N11_3 N35 1_555 1_555
N12_3 C4_3 1_555 1_555
N16_3 C5_3 1_555 1_555
O1_3 Cd8 1_555 1_555
H9_3 O1_3 1_555 1_555
H10_3 O1_3 1_555 1_555
N40_2 Cd6 1_555 1_555
Cd8 N9_3 1_555 1_555
N7_3 N8_3 1_555 1_555
N11_3 N12_3 1_555 1_555
N33 N2_4 1_555 1_555
N2_4 N3_4 1_555 1_555
N3_4 C1_4 1_555 1_555
C1_4 N34_2 1_555 1_555
N34_2 N33 1_555 1_555
C2_4 C3_4 1_555 1_555
C3_4 H1_4 1_555 1_555
H2_4 C3_4 1_555 1_555
C4_4 C3_4 1_555 1_555
C5_4 C6_4 1_555 1_555
C6_4 C1_4 1_555 1_555
H3_4 C6_4 1_555 1_555
H4_4 C6_4 1_555 1_555
C7_4 C8_4 1_555 1_555
C8_4 H5_4 1_555 1_555
H6_4 C8_4 1_555 1_555
Cd6_2 N5_4 1_555 1_555
N5_4 C2_4 1_555 1_555
N6_4 N5_4 1_555 1_555
N7_4 N6_4 1_555 1_555
N8_4 C2_4 1_555 1_555
N9_4 C4_4 1_555 1_555
N35_2 N9_4 1_555 1_555
N11_4 N35_2 1_555 1_555
N12_4 C4_4 1_555 1_555
N13_4 Cd6_2 1_555 1_555
N36_2 N13_4 1_555 1_555
N37_2 C5_4 1_555 1_555
N16_4 C5_4 1_555 1_555
N28_4 C7_4 1_555 1_555
Cd6_2 N28_4 1_555 1_555
N7_4 N8_4 1_555 1_555
N11_4 N12_4 1_555 1_555
N13_4 N16_4 1_555 1_555
N42_2 N28_4 1_555 1_555
O1_4 Cd9 1_555 1_555
H9_4 O1_4 1_555 1_555
H10_4 O1_4 1_555 1_555
Cd13_2 N31_2 1_555 1_555
N22_4 N38_2 1_555 1_555
N39_2 N22_4 1_555 1_555
C10_4 C11_4 1_555 1_555
C11_4 H7_4 1_555 1_555
H8_4 C11_4 1_555 1_555
C12_4 C11_4 1_555 1_555
Cd13_2 N19_4 1_555 1_555
N18_4 Cd11_2 1_555 1_555
N19_4 C10_4 1_555 1_555
N20_4 C10_4 1_555 1_555
N24_4 C12_4 1_555 1_555
N40_2 N26_2 1_555 1_555
N29_4 C9_4 1_555 1_555
N30_4 N29_4 1_555 1_555
N32_2 C9_4 1_555 1_555
O2_4 Cd13_2 1_555 1_555
H11_4 O2_4 1_555 1_555
H12_4 O2_4 1_555 1_555
Cd13_2 N24_4 1_555 1_555
N17_4 N18_4 1_555 1_555
N17_4 N20_4 1_555 1_555
N18_4 N19_4 1_555 1_555

#END
