
###############################################################################
#
# This file contains modified crystal structure data generated from the
# MOF subset of the Cambridge Structural Database (CSD) v543 
# hosted by the Cambridge Crystallographic Data Centre (CCDC).
#
# This work is licensed under the Creative Commons
# Attribution-NonCommercial-ShareAlike 4.0 International License.
# To view a copy of this license, visit
# http://creativecommons.org/licenses/by-nc-sa/4.0/
# or send a letter to
# Creative Commons, PO Box 1866, Mountain View, CA 94042, USA.
#
# CIF created using the CSD Python API on 29 September 2022
# The structure has been converted into the P1 space group
# The structure has a 3D framework
# The original CSD entry XUGROI is in the monoclinic crystal system
# The framework has been calculated to contain at least 10.0% void space
# The void calculation uses a probe of radius 1.32A, grid spacing 0.4
# H atom positions have been added when not included in the experimental data
#
###############################################################################

data_XUGROI
_chemical_formula_moiety         '(C136 H88 Cu8 O40)n'
_symmetry_cell_setting           triclinic
_symmetry_space_group_name_H-M   'P 1'
_symmetry_Int_Tables_number      1
_space_group_name_Hall           'P 1'
loop_
_symmetry_equiv_pos_site_id
_symmetry_equiv_pos_as_xyz
1 x,y,z
_cell_length_a                   17.714(7)
_cell_length_b                   12.567(5)
_cell_length_c                   25.643(9)
_cell_angle_alpha                90
_cell_angle_beta                 93.440(6)
_cell_angle_gamma                90
_cell_volume                     5698.15
loop_
_atom_site_label
_atom_site_type_symbol
_atom_site_fract_x
_atom_site_fract_y
_atom_site_fract_z
Cu8 Cu 0.32189(9) 0.27510(15) 0.00327(6)
O12 O 0.2059(5) 0.1096(7) 0.0462(3)
O13 O 0.1714(4) 0.3227(7) 0.0572(3)
H22 H 0.0452607 0.128881 0.0150935
C3 C 0.0012(9) 0.5380(13) 0.6949(5)
H1 H 0.0023 0.5376 0.6586
O6 O 0.1646(5) 0.3451(7) 0.9486(3)
O7 O 0.2941(5) 0.3904(7) 0.9538(3)
O8 O 0.1714(4) 0.6773(7) 0.5572(3)
O9 O 0.2996(5) 0.6328(7) 0.5617(3)
C18 C 0.0658(7) 0.5377(13) 0.7820(5)
C19 C 0.0672(8) 0.5388(12) 0.7256(5)
C21 C 0.1366(10) 0.5504(14) 0.8179(5)
C22 C 0.1480(9) 0.4742(13) 0.8611(5)
H11 H 0.1118 0.4226 0.8668
C23 C 0.2131(9) 0.4806(14) 0.8927(5)
C24 C 0.2637(9) 0.5676(18) 0.8856(6)
H12 H 0.3055 0.5745 0.9090
C25 C 0.2543(10) 0.6393(16) 0.8474(7)
H13 H 0.289(5) 0.691(7) 0.855(3)
C26 C 0.1916(9) 0.6307(15) 0.8112(6)
H14 H 0.1863 0.6773 0.7831
C27 C 0.1455(8) 0.5282(13) 0.6989(5)
C28 C 0.1527(8) 0.5752(13) 0.6555(6)
H15 H 0.1128 0.6163 0.6413
C29 C 0.2200(9) 0.5670(14) 0.6277(6)
C30 C 0.2770(9) 0.4984(14) 0.6477(5)
H16 H 0.3223 0.4923 0.6315
C31 C 0.2648(9) 0.4422(14) 0.6904(6)
H17 H 0.3019 0.3947 0.7028
C32 C 0.1983(9) 0.4514(14) 0.7177(7)
H18 H 0.1898 0.4091 0.7465
C33 C 0.2271(10) 0.3976(15) 0.9352(5)
C34 C 0.2315(9) 0.6313(12) 0.5755(5)
Cu2 Cu 0.17811(9) 0.22490(15) 0.99673(6)
O10 O 0.0553(6) 0.1910(8) 0.9926(5)
Cu3 Cu 0.32189(9) 0.72490(15) 0.50327(6)
Cu5 Cu 0.17811(9) 0.77510(15) 0.49673(6)
O15 O 0.2004(5) 0.1328(7) 0.9383(3)
H21 H 0.0378807 0.174866 0.955923
Cu6 Cu 0.82189(9) 0.77510(15) 0.00327(6)
Cu1 Cu 0.82189(9) 0.22490(15) 0.50327(6)
O1 O 0.8354(5) 0.3451(7) 0.5514(3)
O2 O 0.7059(5) 0.3904(7) 0.5462(3)
O3 O 0.8286(4) 0.6773(7) 0.9428(3)
O4 O 0.7004(5) 0.6328(7) 0.9383(3)
O5 O 0.9447(6) 0.1910(8) 0.5074(5)
C1 C 0.9342(7) 0.5377(13) 0.7180(5)
C2 C 0.9328(8) 0.5388(12) 0.7744(5)
C4 C 0.8634(10) 0.5504(14) 0.6821(5)
C5 C 0.8520(9) 0.4742(13) 0.6389(5)
H2 H 0.8882 0.4226 0.6332
C6 C 0.7869(9) 0.4806(14) 0.6073(5)
C7 C 0.7363(9) 0.5676(18) 0.6144(6)
H3 H 0.6945 0.5745 0.5910
C8 C 0.7457(10) 0.6393(16) 0.6526(7)
H4 H 0.711(5) 0.691(7) 0.645(3)
C9 C 0.8084(9) 0.6307(15) 0.6888(6)
H5 H 0.8137 0.6773 0.7169
C10 C 0.8545(8) 0.5282(13) 0.8011(5)
C11 C 0.8473(8) 0.5752(13) 0.8445(6)
H6 H 0.8872 0.6163 0.8587
C12 C 0.7800(9) 0.5670(14) 0.8723(6)
C13 C 0.7230(9) 0.4984(14) 0.8523(5)
H7 H 0.6777 0.4923 0.8685
C14 C 0.7352(9) 0.4422(14) 0.8096(6)
H8 H 0.6981 0.3947 0.7972
C15 C 0.8017(9) 0.4514(14) 0.7823(7)
H9 H 0.8102 0.4091 0.7535
C16 C 0.7729(10) 0.3976(15) 0.5648(5)
C17 C 0.7685(9) 0.6313(12) 0.9245(5)
C20 C 0.9988(9) 0.5380(13) 0.8051(5)
H10 H 0.9977 0.5376 0.8414
Cu4 Cu 0.67811(9) 0.72490(15) 0.99673(6)
Cu7 Cu 0.67811(9) 0.27510(15) 0.49673(6)
O11 O 0.7941(5) 0.1096(7) 0.4538(3)
O14 O 0.8286(4) 0.3227(7) 0.4428(3)
O16 O 0.7996(5) 0.1328(7) 0.5617(3)
H19 H 0.962119 0.174866 0.544077
H20 H 0.954739 0.128881 0.484906
O3_2 O 0.3286(4) 0.1773(7) 0.9428(3)
C1_2 C 0.4342(7) 0.0377(13) 0.7180(5)
C2_2 C 0.4328(8) 0.0388(12) 0.7744(5)
C3_2 C 0.5012(9) 0.0380(13) 0.6949(5)
H1_2 H 0.5023 0.0376 0.6586
C4_2 C 0.3634(10) 0.0504(14) 0.6821(5)
C7_2 C 0.2363(9) 0.0676(18) 0.6144(6)
H3_2 H 0.1945 0.0745 0.5910
C8_2 C 0.2457(10) 0.1393(16) 0.6526(7)
H4_2 H 0.211(5) 0.191(7) 0.645(3)
C9_2 C 0.3084(9) 0.1307(15) 0.6888(6)
H5_2 H 0.3137 0.1773 0.7169
C10_2 C 0.3545(8) 0.0282(13) 0.8011(5)
C11_2 C 0.3473(8) 0.0752(13) 0.8445(6)
H6_2 H 0.3872 0.1163 0.8587
C12_2 C 0.2800(9) 0.0670(14) 0.8723(6)
C17_2 C 0.2685(9) 0.1313(12) 0.9245(5)
O8_2 O 0.6714(4) 0.1773(7) 0.5572(3)
C18_2 C 0.5658(7) 0.0377(13) 0.7820(5)
C19_2 C 0.5672(8) 0.0388(12) 0.7256(5)
C20_2 C 0.4988(9) 0.0380(13) 0.8051(5)
H10_2 H 0.4977 0.0376 0.8414
C21_2 C 0.6366(10) 0.0504(14) 0.8179(5)
C24_2 C 0.7637(9) 0.0676(18) 0.8856(6)
H12_2 H 0.8055 0.0745 0.9090
C25_2 C 0.7543(10) 0.1393(16) 0.8474(7)
H13_2 H 0.789(5) 0.191(7) 0.855(3)
C26_2 C 0.6916(9) 0.1307(15) 0.8112(6)
H14_2 H 0.6863 0.1773 0.7831
C27_2 C 0.6455(8) 0.0282(13) 0.6989(5)
C28_2 C 0.6527(8) 0.0752(13) 0.6555(6)
H15_2 H 0.6128 0.1163 0.6413
C29_2 C 0.7200(9) 0.0670(14) 0.6277(6)
C34_2 C 0.7315(9) 0.1313(12) 0.5755(5)
O12_2 O 0.7059(5) 0.6096(7) 0.0462(3)
O13_2 O 0.6714(4) 0.8227(7) 0.0572(3)
H22_2 H 0.545261 0.628881 0.0150935
O1_2 O 0.3354(5) 0.8451(7) 0.5514(3)
O2_2 O 0.2059(5) 0.8904(7) 0.5462(3)
O5_2 O 0.4447(6) 0.6910(8) 0.5074(5)
C5_2 C 0.3520(9) 0.9742(13) 0.6389(5)
H2_2 H 0.3882 0.9226 0.6332
C6_2 C 0.2869(9) 0.9806(14) 0.6073(5)
C13_2 C 0.2230(9) 0.9984(14) 0.8523(5)
H7_2 H 0.1777 0.9923 0.8685
C14_2 C 0.2352(9) 0.9422(14) 0.8096(6)
H8_2 H 0.1981 0.8947 0.7972
C15_2 C 0.3017(9) 0.9514(14) 0.7823(7)
H9_2 H 0.3102 0.9091 0.7535
C16_2 C 0.2729(10) 0.8976(15) 0.5648(5)
O6_2 O 0.6646(5) 0.8451(7) 0.9486(3)
O7_2 O 0.7941(5) 0.8904(7) 0.9538(3)
C22_2 C 0.6480(9) 0.9742(13) 0.8611(5)
H11_2 H 0.6118 0.9226 0.8668
C23_2 C 0.7131(9) 0.9806(14) 0.8927(5)
C30_2 C 0.7770(9) 0.9984(14) 0.6477(5)
H16_2 H 0.8223 0.9923 0.6315
C31_2 C 0.7648(9) 0.9422(14) 0.6904(6)
H17_2 H 0.8019 0.8947 0.7028
C32_2 C 0.6983(9) 0.9514(14) 0.7177(7)
H18_2 H 0.6898 0.9091 0.7465
C33_2 C 0.7271(10) 0.8976(15) 0.9352(5)
O10_2 O 0.5553(6) 0.6910(8) 0.9926(5)
O11_2 O 0.2941(5) 0.6096(7) 0.4538(3)
O14_2 O 0.3286(4) 0.8227(7) 0.4428(3)
H19_2 H 0.462119 0.674866 0.544077
H20_2 H 0.454739 0.628881 0.484906
H21_2 H 0.537881 0.674866 0.955923
O1_3 O 0.1646(5) 0.6549(7) 0.4486(3)
O4_2 O 0.2996(5) 0.3672(7) 0.0617(3)
O5_3 O 0.0553(6) 0.8090(8) 0.4926(5)
C1_3 C 0.0658(7) 0.4623(13) 0.2820(5)
C2_3 C 0.0672(8) 0.4612(12) 0.2256(5)
C4_3 C 0.1366(10) 0.4496(14) 0.3179(5)
C5_3 C 0.1480(9) 0.5258(13) 0.3611(5)
H2_3 H 0.1118 0.5774 0.3668
C6_3 C 0.2131(9) 0.5194(14) 0.3927(5)
C7_3 C 0.2637(9) 0.4324(18) 0.3856(6)
H3_3 H 0.3055 0.4255 0.4090
C8_3 C 0.2543(10) 0.3607(16) 0.3474(7)
H4_3 H 0.289(5) 0.309(7) 0.355(3)
C9_3 C 0.1916(9) 0.3693(15) 0.3112(6)
H5_3 H 0.1863 0.3227 0.2831
C10_3 C 0.1455(8) 0.4718(13) 0.1989(5)
C11_3 C 0.1527(8) 0.4248(13) 0.1555(6)
H6_3 H 0.1128 0.3837 0.1413
C12_3 C 0.2200(9) 0.4330(14) 0.1277(6)
C13_3 C 0.2770(9) 0.5016(14) 0.1477(5)
H7_3 H 0.3223 0.5077 0.1315
C14_3 C 0.2648(9) 0.5578(14) 0.1904(6)
H8_3 H 0.3019 0.6053 0.2028
C15_3 C 0.1983(9) 0.5486(14) 0.2177(7)
H9_3 H 0.1898 0.5909 0.2465
C16_3 C 0.2271(10) 0.6024(15) 0.4352(5)
C17_3 C 0.2315(9) 0.3687(12) 0.0755(5)
C20_3 C 0.0012(9) 0.4620(13) 0.1949(5)
H10_3 H 0.0023 0.4624 0.1586
O16_2 O 0.2004(5) 0.8672(7) 0.4383(3)
H19_3 H 0.0378807 0.825134 0.455923
H20_3 H 0.0452607 0.871119 0.515094
C3_3 C 0.9988(9) 0.4620(13) 0.3051(5)
H1_3 H 0.9977 0.4624 0.3414
O6_3 O 0.8354(5) 0.6549(7) 0.0514(3)
O9_2 O 0.7004(5) 0.3672(7) 0.4383(3)
C18_3 C 0.9342(7) 0.4623(13) 0.2180(5)
C19_3 C 0.9328(8) 0.4612(12) 0.2744(5)
C21_3 C 0.8634(10) 0.4496(14) 0.1821(5)
C22_3 C 0.8520(9) 0.5258(13) 0.1389(5)
H11_3 H 0.8882 0.5774 0.1332
C23_3 C 0.7869(9) 0.5194(14) 0.1073(5)
C24_3 C 0.7363(9) 0.4324(18) 0.1144(6)
H12_3 H 0.6945 0.4255 0.0910
C25_3 C 0.7457(10) 0.3607(16) 0.1526(7)
H13_3 H 0.711(5) 0.309(7) 0.145(3)
C26_3 C 0.8084(9) 0.3693(15) 0.1888(6)
H14_3 H 0.8137 0.3227 0.2169
C27_3 C 0.8545(8) 0.4718(13) 0.3011(5)
C28_3 C 0.8473(8) 0.4248(13) 0.3445(6)
H15_3 H 0.8872 0.3837 0.3587
C29_3 C 0.7800(9) 0.4330(14) 0.3723(6)
C30_3 C 0.7230(9) 0.5016(14) 0.3523(5)
H16_3 H 0.6777 0.5077 0.3685
C31_3 C 0.7352(9) 0.5578(14) 0.3096(6)
H17_3 H 0.6981 0.6053 0.2972
C32_3 C 0.8017(9) 0.5486(14) 0.2823(7)
H18_3 H 0.8102 0.5909 0.2535
C33_3 C 0.7729(10) 0.6024(15) 0.0648(5)
C34_3 C 0.7685(9) 0.3687(12) 0.4245(5)
O10_3 O 0.9447(6) 0.8090(8) 0.0074(5)
O15_2 O 0.7996(5) 0.8672(7) 0.0617(3)
H21_3 H 0.962119 0.825134 0.0440769
H22_3 H 0.954739 0.871119 0.984906
O1_4 O 0.6646(5) 0.1549(7) 0.4486(3)
O5_4 O 0.5553(6) 0.3090(8) 0.4926(5)
C5_4 C 0.6480(9) 0.0258(13) 0.3611(5)
H2_4 H 0.6118 0.0774 0.3668
C6_4 C 0.7131(9) 0.0194(14) 0.3927(5)
C13_4 C 0.7770(9) 0.0016(14) 0.1477(5)
H7_4 H 0.8223 0.0077 0.1315
C14_4 C 0.7648(9) 0.0578(14) 0.1904(6)
H8_4 H 0.8019 0.1053 0.2028
C15_4 C 0.6983(9) 0.0486(14) 0.2177(7)
H9_4 H 0.6898 0.0909 0.2465
C16_4 C 0.7271(10) 0.1024(15) 0.4352(5)
O6_4 O 0.3354(5) 0.1549(7) 0.0514(3)
C22_4 C 0.3520(9) 0.0258(13) 0.1389(5)
H11_4 H 0.3882 0.0774 0.1332
C23_4 C 0.2869(9) 0.0194(14) 0.1073(5)
C30_4 C 0.2230(9) 0.0016(14) 0.3523(5)
H16_4 H 0.1777 0.0077 0.3685
C31_4 C 0.2352(9) 0.0578(14) 0.3096(6)
H17_4 H 0.1981 0.1053 0.2972
C32_4 C 0.3017(9) 0.0486(14) 0.2823(7)
H18_4 H 0.3102 0.0909 0.2535
C33_4 C 0.2729(10) 0.1024(15) 0.0648(5)
O10_4 O 0.4447(6) 0.3090(8) 0.0074(5)
H19_4 H 0.537881 0.325134 0.455923
H20_4 H 0.545261 0.371119 0.515094
H21_4 H 0.462119 0.325134 0.0440769
H22_4 H 0.454739 0.371119 0.984906
C1_4 C 0.5658(7) 0.9623(13) 0.2820(5)
C2_4 C 0.5672(8) 0.9612(12) 0.2256(5)
C3_4 C 0.4988(9) 0.9620(13) 0.3051(5)
H1_4 H 0.4977 0.9624 0.3414
C4_4 C 0.6366(10) 0.9496(14) 0.3179(5)
C7_4 C 0.7637(9) 0.9324(18) 0.3856(6)
H3_4 H 0.8055 0.9255 0.4090
C8_4 C 0.7543(10) 0.8607(16) 0.3474(7)
H4_4 H 0.789(5) 0.809(7) 0.355(3)
C9_4 C 0.6916(9) 0.8693(15) 0.3112(6)
H5_4 H 0.6863 0.8227 0.2831
C10_4 C 0.6455(8) 0.9718(13) 0.1989(5)
C11_4 C 0.6527(8) 0.9248(13) 0.1555(6)
H6_4 H 0.6128 0.8837 0.1413
C12_4 C 0.7200(9) 0.9330(14) 0.1277(6)
C17_4 C 0.7315(9) 0.8687(12) 0.0755(5)
C18_4 C 0.4342(7) 0.9623(13) 0.2180(5)
C19_4 C 0.4328(8) 0.9612(12) 0.2744(5)
C20_4 C 0.5012(9) 0.9620(13) 0.1949(5)
H10_4 H 0.5023 0.9624 0.1586
C21_4 C 0.3634(10) 0.9496(14) 0.1821(5)
C24_4 C 0.2363(9) 0.9324(18) 0.1144(6)
H12_4 H 0.1945 0.9255 0.0910
C25_4 C 0.2457(10) 0.8607(16) 0.1526(7)
H13_4 H 0.211(5) 0.809(7) 0.145(3)
C26_4 C 0.3084(9) 0.8693(15) 0.1888(6)
H14_4 H 0.3137 0.8227 0.2169
C27_4 C 0.3545(8) 0.9718(13) 0.3011(5)
C28_4 C 0.3473(8) 0.9248(13) 0.3445(6)
H15_4 H 0.3872 0.8837 0.3587
C29_4 C 0.2800(9) 0.9330(14) 0.3723(6)
C34_4 C 0.2685(9) 0.8687(12) 0.4245(5)
loop_
_geom_bond_atom_site_label_1
_geom_bond_atom_site_label_2
_geom_bond_site_symmetry_1
_geom_bond_site_symmetry_2
H1 C3 1_555 1_555
O6 C33 1_555 1_555
O7 C33 1_555 1_555
O8 C34 1_555 1_555
O9 C34 1_555 1_555
C18 C19 1_555 1_555
C19 C3 1_555 1_555
C21 C18 1_555 1_555
C22 C21 1_555 1_555
H11 C22 1_555 1_555
C23 C22 1_555 1_555
C24 C23 1_555 1_555
H12 C24 1_555 1_555
C25 C24 1_555 1_555
H13 C25 1_555 1_555
C26 C21 1_555 1_555
H14 C26 1_555 1_555
C27 C19 1_555 1_555
C28 C27 1_555 1_555
H15 C28 1_555 1_555
C29 C28 1_555 1_555
C30 C29 1_555 1_555
H16 C30 1_555 1_555
C31 C30 1_555 1_555
H17 C31 1_555 1_555
C32 C27 1_555 1_555
H18 C32 1_555 1_555
C33 C23 1_555 1_555
C34 C29 1_555 1_555
Cu2 O6 1_555 1_555
O10 Cu2 1_555 1_555
Cu3 O9 1_555 1_555
Cu5 O8 1_555 1_555
O15 Cu2 1_555 1_555
C25 C26 1_555 1_555
C31 C32 1_555 1_555
Cu3 Cu5 1_555 1_555
O10 H21 1_555 1_555
Cu1 O1 1_555 1_555
O1 C16 1_555 1_555
O2 C16 1_555 1_555
O3 C17 1_555 1_555
O4 C17 1_555 1_555
O5 Cu1 1_555 1_555
C1 C2 1_555 1_555
C2 C10 1_555 1_555
C4 C1 1_555 1_555
C5 C4 1_555 1_555
H2 C5 1_555 1_555
C6 C5 1_555 1_555
C7 C6 1_555 1_555
H3 C7 1_555 1_555
C8 C7 1_555 1_555
H4 C8 1_555 1_555
C9 C4 1_555 1_555
H5 C9 1_555 1_555
C10 C11 1_555 1_555
C11 H6 1_555 1_555
C12 C11 1_555 1_555
C13 C12 1_555 1_555
H7 C13 1_555 1_555
C14 C13 1_555 1_555
H8 C14 1_555 1_555
C15 C10 1_555 1_555
H9 C15 1_555 1_555
C16 C6 1_555 1_555
C17 C12 1_555 1_555
C20 C2 1_555 1_555
H10 C20 1_555 1_555
Cu4 O4 1_555 1_555
Cu7 Cu1 1_555 1_555
O11 Cu1 1_555 1_555
O14 Cu1 1_555 1_555
O16 Cu1 1_555 1_555
O2 Cu7 1_555 1_555
C8 C9 1_555 1_555
C14 C15 1_555 1_555
O5 H19 1_555 1_555
O5 H20 1_555 1_555
O3_2 C17_2 1_555 1_555
O15 C17_2 1_555 1_555
C1_2 C2_2 1_555 1_555
C2_2 C10_2 1_555 1_555
C3_2 C1_2 1_555 1_555
H1_2 C3_2 1_555 1_555
C4_2 C1_2 1_555 1_555
H3_2 C7_2 1_555 1_555
C8_2 C7_2 1_555 1_555
H4_2 C8_2 1_555 1_555
C9_2 C4_2 1_555 1_555
H5_2 C9_2 1_555 1_555
C10_2 C11_2 1_555 1_555
C11_2 H6_2 1_555 1_555
C12_2 C11_2 1_555 1_555
C17_2 C12_2 1_555 1_555
O8_2 C34_2 1_555 1_555
O16 C34_2 1_555 1_555
C18_2 C19_2 1_555 1_555
C19_2 C3_2 1_555 1_555
C20_2 C2_2 1_555 1_555
H10_2 C20_2 1_555 1_555
C21_2 C18_2 1_555 1_555
H12_2 C24_2 1_555 1_555
C25_2 C24_2 1_555 1_555
H13_2 C25_2 1_555 1_555
C26_2 C21_2 1_555 1_555
H14_2 C26_2 1_555 1_555
C27_2 C19_2 1_555 1_555
C28_2 C27_2 1_555 1_555
H15_2 C28_2 1_555 1_555
C29_2 C28_2 1_555 1_555
C34_2 C29_2 1_555 1_555
Cu7 O8_2 1_555 1_555
C8_2 C9_2 1_555 1_555
C18_2 C20_2 1_555 1_555
C25_2 C26_2 1_555 1_555
Cu3 O1_2 1_555 1_555
O1_2 C16_2 1_555 1_555
O2_2 C16_2 1_555 1_555
O5_2 Cu3 1_555 1_555
H2_2 C5_2 1_555 1_555
C6_2 C5_2 1_555 1_555
H7_2 C13_2 1_555 1_555
C14_2 C13_2 1_555 1_555
H8_2 C14_2 1_555 1_555
H9_2 C15_2 1_555 1_555
C16_2 C6_2 1_555 1_555
O6_2 C33_2 1_555 1_555
O7_2 C33_2 1_555 1_555
H11_2 C22_2 1_555 1_555
C23_2 C22_2 1_555 1_555
H16_2 C30_2 1_555 1_555
C31_2 C30_2 1_555 1_555
H17_2 C31_2 1_555 1_555
H18_2 C32_2 1_555 1_555
C33_2 C23_2 1_555 1_555
Cu4 O6_2 1_555 1_555
O10_2 Cu4 1_555 1_555
O11_2 Cu3 1_555 1_555
O14_2 Cu3 1_555 1_555
O2_2 Cu5 1_555 1_555
C14_2 C15_2 1_555 1_555
C31_2 C32_2 1_555 1_555
O5_2 H19_2 1_555 1_555
O5_2 H20_2 1_555 1_555
O10_2 H21_2 1_555 1_555
Cu5 O1_3 1_555 1_555
O1_3 C16_3 1_555 1_555
O11_2 C16_3 1_555 1_555
O13 C17_3 1_555 1_555
O4_2 C17_3 1_555 1_555
O5_3 Cu5 1_555 1_555
C1_3 C2_3 1_555 1_555
C2_3 C10_3 1_555 1_555
C4_3 C1_3 1_555 1_555
C5_3 C4_3 1_555 1_555
H2_3 C5_3 1_555 1_555
C6_3 C5_3 1_555 1_555
C7_3 C6_3 1_555 1_555
H3_3 C7_3 1_555 1_555
C8_3 C7_3 1_555 1_555
H4_3 C8_3 1_555 1_555
C9_3 C4_3 1_555 1_555
H5_3 C9_3 1_555 1_555
C10_3 C11_3 1_555 1_555
C11_3 H6_3 1_555 1_555
C12_3 C11_3 1_555 1_555
C13_3 C12_3 1_555 1_555
H7_3 C13_3 1_555 1_555
C14_3 C13_3 1_555 1_555
H8_3 C14_3 1_555 1_555
C15_3 C10_3 1_555 1_555
H9_3 C15_3 1_555 1_555
C16_3 C6_3 1_555 1_555
C17_3 C12_3 1_555 1_555
C20_3 C2_3 1_555 1_555
H10_3 C20_3 1_555 1_555
Cu8 O4_2 1_555 1_555
O16_2 Cu5 1_555 1_555
C8_3 C9_3 1_555 1_555
C14_3 C15_3 1_555 1_555
O5_3 H19_3 1_555 1_555
O5_3 H20_3 1_555 1_555
H1_3 C3_3 1_555 1_555
O6_3 C33_3 1_555 1_555
O12_2 C33_3 1_555 1_555
O14 C34_3 1_555 1_555
O9_2 C34_3 1_555 1_555
C18_3 C19_3 1_555 1_555
C19_3 C3_3 1_555 1_555
C21_3 C18_3 1_555 1_555
C22_3 C21_3 1_555 1_555
H11_3 C22_3 1_555 1_555
C23_3 C22_3 1_555 1_555
C24_3 C23_3 1_555 1_555
H12_3 C24_3 1_555 1_555
C25_3 C24_3 1_555 1_555
H13_3 C25_3 1_555 1_555
C26_3 C21_3 1_555 1_555
H14_3 C26_3 1_555 1_555
C27_3 C19_3 1_555 1_555
C28_3 C27_3 1_555 1_555
H15_3 C28_3 1_555 1_555
C29_3 C28_3 1_555 1_555
C30_3 C29_3 1_555 1_555
H16_3 C30_3 1_555 1_555
C31_3 C30_3 1_555 1_555
H17_3 C31_3 1_555 1_555
C32_3 C27_3 1_555 1_555
H18_3 C32_3 1_555 1_555
C33_3 C23_3 1_555 1_555
C34_3 C29_3 1_555 1_555
Cu6 O6_3 1_555 1_555
O10_3 Cu6 1_555 1_555
Cu7 O9_2 1_555 1_555
O15_2 Cu6 1_555 1_555
C25_3 C26_3 1_555 1_555
C31_3 C32_3 1_555 1_555
O10_3 H21_3 1_555 1_555
Cu7 O1_4 1_555 1_555
O1_4 C16_4 1_555 1_555
O11 C16_4 1_555 1_555
O5_4 Cu7 1_555 1_555
H2_4 C5_4 1_555 1_555
C6_4 C5_4 1_555 1_555
H7_4 C13_4 1_555 1_555
C14_4 C13_4 1_555 1_555
H8_4 C14_4 1_555 1_555
H9_4 C15_4 1_555 1_555
C16_4 C6_4 1_555 1_555
O6_4 C33_4 1_555 1_555
O12 C33_4 1_555 1_555
H11_4 C22_4 1_555 1_555
C23_4 C22_4 1_555 1_555
H16_4 C30_4 1_555 1_555
C31_4 C30_4 1_555 1_555
H17_4 C31_4 1_555 1_555
H18_4 C32_4 1_555 1_555
C33_4 C23_4 1_555 1_555
Cu8 O6_4 1_555 1_555
O10_4 Cu8 1_555 1_555
C14_4 C15_4 1_555 1_555
C31_4 C32_4 1_555 1_555
O5_4 H19_4 1_555 1_555
O5_4 H20_4 1_555 1_555
O10_4 H21_4 1_555 1_555
O13_2 C17_4 1_555 1_555
O15_2 C17_4 1_555 1_555
C1_4 C2_4 1_555 1_555
C2_4 C10_4 1_555 1_555
C3_4 C1_4 1_555 1_555
H1_4 C3_4 1_555 1_555
C4_4 C1_4 1_555 1_555
H3_4 C7_4 1_555 1_555
C8_4 C7_4 1_555 1_555
H4_4 C8_4 1_555 1_555
C9_4 C4_4 1_555 1_555
H5_4 C9_4 1_555 1_555
C10_4 C11_4 1_555 1_555
C11_4 H6_4 1_555 1_555
C12_4 C11_4 1_555 1_555
C17_4 C12_4 1_555 1_555
O14_2 C34_4 1_555 1_555
O16_2 C34_4 1_555 1_555
C18_4 C19_4 1_555 1_555
C19_4 C3_4 1_555 1_555
C20_4 C2_4 1_555 1_555
H10_4 C20_4 1_555 1_555
C21_4 C18_4 1_555 1_555
H12_4 C24_4 1_555 1_555
C25_4 C24_4 1_555 1_555
H13_4 C25_4 1_555 1_555
C26_4 C21_4 1_555 1_555
H14_4 C26_4 1_555 1_555
C27_4 C19_4 1_555 1_555
C28_4 C27_4 1_555 1_555
H15_4 C28_4 1_555 1_555
C29_4 C28_4 1_555 1_555
C34_4 C29_4 1_555 1_555
C8_4 C9_4 1_555 1_555
C18_4 C20_4 1_555 1_555
C25_4 C26_4 1_555 1_555

#END
