
###############################################################################
#
# This file contains modified crystal structure data generated from the
# MOF subset of the Cambridge Structural Database (CSD) v543 
# hosted by the Cambridge Crystallographic Data Centre (CCDC).
#
# This work is licensed under the Creative Commons
# Attribution-NonCommercial-ShareAlike 4.0 International License.
# To view a copy of this license, visit
# http://creativecommons.org/licenses/by-nc-sa/4.0/
# or send a letter to
# Creative Commons, PO Box 1866, Mountain View, CA 94042, USA.
#
# CIF created using the CSD Python API on 29 September 2022
# The structure has been converted into the P1 space group
# The structure has a 3D framework
# The original CSD entry XUHVON is in the monoclinic crystal system
# The framework has been calculated to contain at least 10.0% void space
# The void calculation uses a probe of radius 1.32A, grid spacing 0.4
# The framework is charged, counterions have been retained in the structure
#
###############################################################################

data_XUHVON
_chemical_formula_moiety         '(C68 H84 N24 O24 Zn4)n'
_symmetry_cell_setting           triclinic
_symmetry_space_group_name_H-M   'P 1'
_symmetry_Int_Tables_number      1
_space_group_name_Hall           'P 1'
loop_
_symmetry_equiv_pos_site_id
_symmetry_equiv_pos_as_xyz
1 x,y,z
_cell_length_a                   15.9293(4)
_cell_length_b                   10.9222(2)
_cell_length_c                   15.8803(4)
_cell_angle_alpha                90
_cell_angle_beta                 115.246(3)
_cell_angle_gamma                90
_cell_volume                     2499
loop_
_atom_site_label
_atom_site_type_symbol
_atom_site_fract_x
_atom_site_fract_y
_atom_site_fract_z
Zn6 Zn 0.295772(17) 0.08282(2) 0.788470(16)
Zn1 Zn 0.295772(17) 0.41718(2) 0.288470(16)
O1 O 0.27302(17) 0.5316(2) 0.36995(15)
O2 O 0.16233(14) 0.6686(2) 0.32703(13)
O3 O 0.18030(13) 0.9500(2) 0.59125(14)
O4 O 0.32167(14) 0.9967(2) 0.69629(13)
O5 O 0.59150(13) 0.7699(2) 0.72239(13)
O6 O 0.58244(12) 0.63516(18) 0.61594(11)
N1 N 0.19506(14) 0.29317(18) 0.23822(12)
N2 N 0.14321(16) 0.2589(2) 0.28000(14)
N3 N 0.08273(16) 0.1755(2) 0.22665(15)
N4 N 0.17076(15) 0.23315(19) 0.15724(13)
C1 C 0.23907(18) 0.6295(2) 0.37944(16)
C2 C 0.29666(16) 0.7011(2) 0.46640(15)
C3 C 0.25566(16) 0.7871(2) 0.50152(15)
H1 H 0.1920 0.8007 0.4714
C4 C 0.30943(16) 0.8532(2) 0.58179(15)
C5 C 0.40403(16) 0.8327(2) 0.62561(15)
H2 H 0.4403 0.8785 0.6779
C6 C 0.44583(16) 0.7450(2) 0.59282(15)
C7 C 0.39170(16) 0.6796(2) 0.51263(15)
H3 H 0.4192 0.6213 0.4898
C8 C 0.26476(18) 0.9396(2) 0.62486(17)
C9 C 0.54697(17) 0.7165(2) 0.64738(16)
C10 C 0.10102(17) 0.1622(2) 0.15229(16)
C11 C 0.04975(17) 0.0777(2) 0.07440(16)
C17 C 0.08791(19) 0.0372(3) 0.01629(19)
H7 H 0.1474 0.0621 0.0268
Zn5 Zn 0.704228(17) 0.58282(2) 0.711530(16)
O14 O 0.32167(14) 0.5033(2) 0.19629(13)
O16 O 0.41756(12) 0.36484(18) 0.38406(11)
C13 C 0.91209(19) 0.9628(3) 0.98371(19)
H5 H 0.8526 0.9379 0.9732
N5 N 0.80494(14) 0.70683(18) 0.76178(12)
N6 N 0.85679(16) 0.7411(2) 0.72000(14)
N7 N 0.91727(16) 0.8245(2) 0.77335(15)
N8 N 0.82924(15) 0.76685(19) 0.84276(13)
C14 C 0.89898(17) 0.8378(2) 0.84771(16)
C15 C 0.95025(17) 0.9223(2) 0.92560(16)
O7 O 0.72698(17) 0.4684(2) 0.63005(15)
O8 O 0.83767(14) 0.3314(2) 0.67297(13)
O9 O 0.81970(13) 0.0500(2) 0.40875(14)
O10 O 0.67833(14) 0.0033(2) 0.30371(13)
O11 O 0.40850(13) 0.2301(2) 0.27761(13)
C18 C 0.76093(18) 0.3705(2) 0.62056(16)
C19 C 0.70334(16) 0.2989(2) 0.53360(15)
C20 C 0.74434(16) 0.2129(2) 0.49848(15)
H8 H 0.8080 0.1993 0.5286
C21 C 0.69057(16) 0.1468(2) 0.41821(15)
C22 C 0.59597(16) 0.1673(2) 0.37439(15)
H9 H 0.5597 0.1215 0.3221
C23 C 0.55417(16) 0.2550(2) 0.40718(15)
C24 C 0.60830(16) 0.3204(2) 0.48737(15)
H10 H 0.5808 0.3787 0.5102
C25 C 0.73524(18) 0.0604(2) 0.37514(17)
C26 C 0.45303(17) 0.2835(2) 0.35262(16)
O13 O 0.67833(14) 0.4967(2) 0.80371(13)
Zn4 Zn 0.704228(17) 0.91718(2) 0.211530(16)
C12 C 0.03890(19) 0.5404(3) 0.44217(18)
H4 H 0.0657 0.5672 0.4037
C13_2 C 0.08791(19) 0.4628(3) 0.51629(19)
H5_2 H 0.1474 0.4379 0.5268
N5_2 N 0.19506(14) 0.20683(18) 0.73822(12)
N6_2 N 0.14321(16) 0.2411(2) 0.78000(14)
N7_2 N 0.08273(16) 0.3245(2) 0.72665(15)
N8_2 N 0.17076(15) 0.26685(19) 0.65724(13)
C14_2 C 0.10102(17) 0.3378(2) 0.65229(16)
C15_2 C 0.04975(17) 0.4223(2) 0.57440(16)
O15 O 0.41756(12) 0.13516(18) 0.88406(11)
O9_2 O 0.18030(13) 0.5500(2) 0.09125(14)
O11_2 O 0.59150(13) 0.7301(2) 0.22239(13)
O12 O 0.58244(12) 0.86484(18) 0.11594(11)
C20_2 C 0.25566(16) 0.7129(2) 0.00152(15)
C21_2 C 0.30943(16) 0.6468(2) 0.08179(15)
C22_2 C 0.40403(16) 0.6673(2) 0.12561(15)
H9_2 H 0.4403 0.6215 0.1779
C23_2 C 0.44583(16) 0.7550(2) 0.09282(15)
C24_2 C 0.39170(16) 0.8204(2) 0.01263(15)
C25_2 C 0.26476(18) 0.5604(2) 0.12486(17)
C26_2 C 0.54697(17) 0.7835(2) 0.14738(16)
O7_2 O 0.27302(17) 0.9684(2) 0.86995(15)
O8_2 O 0.16233(14) 0.8314(2) 0.82703(13)
C18_2 C 0.23907(18) 0.8705(2) 0.87944(16)
C19_2 C 0.29666(16) 0.7989(2) 0.96640(15)
H8_2 H 0.1920 0.6993 0.9714
H10_2 H 0.4192 0.8787 0.9898
O1_2 O 0.72698(17) 0.0316(2) 0.13005(15)
O2_2 O 0.83767(14) 0.1686(2) 0.17297(13)
C1_2 C 0.76093(18) 0.1295(2) 0.12056(16)
C2_2 C 0.70334(16) 0.2011(2) 0.03360(15)
H1_2 H 0.8080 0.3007 0.0286
H3_2 H 0.5808 0.1213 0.0102
O3_2 O 0.81970(13) 0.4500(2) 0.90875(14)
O5_2 O 0.40850(13) 0.2699(2) 0.77761(13)
C3_2 C 0.74434(16) 0.2871(2) 0.99848(15)
C4_2 C 0.69057(16) 0.3532(2) 0.91821(15)
C5_2 C 0.59597(16) 0.3327(2) 0.87439(15)
H2_2 H 0.5597 0.3785 0.8221
C6_2 C 0.55417(16) 0.2450(2) 0.90718(15)
C7_2 C 0.60830(16) 0.1796(2) 0.98737(15)
C8_2 C 0.73524(18) 0.4396(2) 0.87514(17)
C9_2 C 0.45303(17) 0.2165(2) 0.85262(16)
N1_2 N 0.80494(14) 0.79317(18) 0.26178(12)
N2_2 N 0.85679(16) 0.7589(2) 0.22000(14)
N3_2 N 0.91727(16) 0.6755(2) 0.27335(15)
N4_2 N 0.82924(15) 0.73315(19) 0.34276(13)
C10_2 C 0.89898(17) 0.6622(2) 0.34771(16)
C11_2 C 0.95025(17) 0.5777(2) 0.42560(16)
C16 C 0.96110(19) 0.4596(3) 0.55783(18)
H6 H 0.9343 0.4328 0.5963
C17_2 C 0.91209(19) 0.5372(3) 0.48371(19)
H7_2 H 0.8526 0.5621 0.4732
C16_2 C 0.03890(19) 0.9596(3) 0.94217(18)
H6_2 H 0.0657 0.9328 0.9037
C12_2 C 0.96110(19) 0.0404(3) 0.05783(18)
H4_2 H 0.9343 0.0672 0.0963
N9 N 0.04145(19) 0.5836(3) 0.15861(17)
H11 H 0.0914 0.5604 0.1499
H12 H 0.0617 0.6051 0.2188
C27 C 0.0029(3) 0.6913(4) 0.1027(3)
H13 H 0.0522 0.7416 0.1025
H16 H 0.0174 0.4137 0.1813
H14 H 0.9676 0.7368 0.1283
H15 H 0.9631 0.6672 0.0401
C28 C 0.9828(3) 0.4804(4) 0.1427(3)
H17 H 0.9591 0.4567 0.0784
H18 H 0.9320 0.5006 0.1575
H14_2 H 0.0324 0.2368 0.3717
H15_2 H 0.0369 0.1672 0.4599
H18_2 H 0.0680 0.0006 0.3425
C28_2 C 0.0172(3) 0.9804(4) 0.3573(3)
H17_2 H 0.0409 0.9567 0.4216
N9_2 N 0.95855(19) 0.0836(3) 0.34139(17)
H11_2 H 0.9086 0.0604 0.3501
H12_2 H 0.9383 0.1051 0.2812
C27_2 C 0.9971(3) 0.1913(4) 0.3973(3)
H13_2 H 0.9478 0.2416 0.3975
H16_2 H 0.9826 0.9137 0.3187
H14_3 H 0.0324 0.2632 0.8717
H15_3 H 0.0369 0.3328 0.9599
C28_3 C 0.0172(3) 0.5196(4) 0.8573(3)
H17_3 H 0.0409 0.5433 0.9216
H18_3 H 0.0680 0.4994 0.8425
N9_3 N 0.95855(19) 0.4164(3) 0.84139(17)
H11_3 H 0.9086 0.4396 0.8501
H12_3 H 0.9383 0.3949 0.7812
C27_3 C 0.9971(3) 0.3087(4) 0.8973(3)
H13_3 H 0.9478 0.2584 0.8975
H16_3 H 0.9826 0.5863 0.8187
H16_4 H 0.0174 0.0863 0.6813
N9_4 N 0.04145(19) 0.9164(3) 0.65861(17)
H11_4 H 0.0914 0.9396 0.6499
H12_4 H 0.0617 0.8949 0.7188
C27_4 C 0.0029(3) 0.8087(4) 0.6027(3)
H13_4 H 0.0522 0.7584 0.6025
C28_4 C 0.9828(3) 0.0196(4) 0.6427(3)
H17_4 H 0.9591 0.0433 0.5784
H14_4 H 0.9676 0.7632 0.6283
H15_4 H 0.9631 0.8328 0.5401
H18_4 H 0.9320 0.9994 0.6575
H25 H 0.6982 0.7300 0.0418
H26 H 0.7673 0.7807 0.0035
N10 N 0.6396(3) 0.7629(3) 0.9074(2)
H19 H 0.5922 0.7107 0.8961
H20 H 0.6562 0.7562 0.8601
C29 C 0.6065(4) 0.8888(4) 0.9085(3)
H21 H 0.5538 0.9051 0.8507
H22 H 0.6552 0.9457 0.9165
H23 H 0.5890 0.8973 0.9590
C30 C 0.7159(3) 0.7265(4) 0.9911(3)
H24 H 0.7336 0.6444 0.9846
N10_2 N 0.3604(3) 0.2629(3) 0.5926(2)
H19_2 H 0.4078 0.2107 0.6039
H20_2 H 0.3438 0.2562 0.6399
C29_2 C 0.3935(4) 0.3888(4) 0.5915(3)
H21_2 H 0.4462 0.4051 0.6493
H22_2 H 0.3448 0.4457 0.5835
H23_2 H 0.4110 0.3973 0.5410
C30_2 C 0.2841(3) 0.2265(4) 0.5089(3)
H24_2 H 0.2664 0.1444 0.5154
H25_2 H 0.3018 0.2300 0.4582
H26_2 H 0.2327 0.2807 0.4965
N10_3 N 0.3604(3) 0.2371(3) 0.0926(2)
H19_3 H 0.4078 0.2893 0.1039
H20_3 H 0.3438 0.2438 0.1399
C29_3 C 0.3935(4) 0.1112(4) 0.0915(3)
H21_3 H 0.4462 0.0949 0.1493
H22_3 H 0.3448 0.0543 0.0835
H23_3 H 0.4110 0.1027 0.0410
C30_3 C 0.2841(3) 0.2735(4) 0.0089(3)
H24_3 H 0.2664 0.3556 0.0154
H25_3 H 0.3018 0.2700 0.9582
H26_3 H 0.2327 0.2193 0.9965
N10_4 N 0.6396(3) 0.7371(3) 0.4074(2)
H19_4 H 0.5922 0.7893 0.3961
H20_4 H 0.6562 0.7438 0.3601
C29_4 C 0.6065(4) 0.6112(4) 0.4085(3)
H21_4 H 0.5538 0.5949 0.3507
H22_4 H 0.6552 0.5543 0.4165
H23_4 H 0.5890 0.6027 0.4590
C30_4 C 0.7159(3) 0.7735(4) 0.4911(3)
H24_4 H 0.7336 0.8556 0.4846
H25_4 H 0.6982 0.7700 0.5418
H26_4 H 0.7673 0.7193 0.5035
loop_
_geom_bond_atom_site_label_1
_geom_bond_atom_site_label_2
_geom_bond_site_symmetry_1
_geom_bond_site_symmetry_2
Zn1 O1 1_555 1_555
O1 C1 1_555 1_555
O2 C1 1_555 1_555
O3 C8 1_555 1_555
O4 C8 1_555 1_555
O5 C9 1_555 1_555
O6 C9 1_555 1_555
N1 Zn1 1_555 1_555
N2 N1 1_555 1_555
N3 N2 1_555 1_555
N4 N1 1_555 1_555
C1 C2 1_555 1_555
C2 C3 1_555 1_555
C3 H1 1_555 1_555
C4 C3 1_555 1_555
C5 C4 1_555 1_555
H2 C5 1_555 1_555
C6 C5 1_555 1_555
C7 C2 1_555 1_555
H3 C7 1_555 1_555
C8 C4 1_555 1_555
C9 C6 1_555 1_555
C10 N3 1_555 1_555
C11 C10 1_555 1_555
C17 C11 1_555 1_555
H7 C17 1_555 1_555
Zn5 O6 1_555 1_555
O14 Zn1 1_555 1_555
O16 Zn1 1_555 1_555
N4 C10 1_555 1_555
C6 C7 1_555 1_555
H5 C13 1_555 1_555
N5 N6 1_555 1_555
N6 N7 1_555 1_555
N7 C14 1_555 1_555
N8 N5 1_555 1_555
C14 N8 1_555 1_555
C15 C13 1_555 1_555
Zn5 N5 1_555 1_555
O7 Zn5 1_555 1_555
O8 C18 1_555 1_555
O9 C25 1_555 1_555
O10 C25 1_555 1_555
O11 C26 1_555 1_555
O16 C26 1_555 1_555
C18 O7 1_555 1_555
C19 C18 1_555 1_555
C20 C19 1_555 1_555
H8 C20 1_555 1_555
C21 C20 1_555 1_555
C22 C21 1_555 1_555
H9 C22 1_555 1_555
C23 C22 1_555 1_555
C24 C19 1_555 1_555
H10 C24 1_555 1_555
C25 C21 1_555 1_555
C26 C23 1_555 1_555
O13 Zn5 1_555 1_555
C14 C15 1_555 1_555
C23 C24 1_555 1_555
H4 C12 1_555 1_555
C13_2 C12 1_555 1_555
H5_2 C13_2 1_555 1_555
N5_2 N6_2 1_555 1_555
N6_2 N7_2 1_555 1_555
N7_2 C14_2 1_555 1_555
N8_2 N5_2 1_555 1_555
C14_2 N8_2 1_555 1_555
C15_2 C13_2 1_555 1_555
Zn6 N5_2 1_555 1_555
O15 Zn6 1_555 1_555
C14_2 C15_2 1_555 1_555
O9_2 C25_2 1_555 1_555
O14 C25_2 1_555 1_555
O11_2 C26_2 1_555 1_555
O12 C26_2 1_555 1_555
C21_2 C20_2 1_555 1_555
C22_2 C21_2 1_555 1_555
H9_2 C22_2 1_555 1_555
C23_2 C22_2 1_555 1_555
C25_2 C21_2 1_555 1_555
C26_2 C23_2 1_555 1_555
Zn4 O12 1_555 1_555
C23_2 C24_2 1_555 1_555
O8_2 C18_2 1_555 1_555
C18_2 O7_2 1_555 1_555
C19_2 C18_2 1_555 1_555
O1_2 C1_2 1_555 1_555
O2_2 C1_2 1_555 1_555
C1_2 C2_2 1_555 1_555
O3_2 C8_2 1_555 1_555
O13 C8_2 1_555 1_555
O5_2 C9_2 1_555 1_555
O15 C9_2 1_555 1_555
C4_2 C3_2 1_555 1_555
C5_2 C4_2 1_555 1_555
H2_2 C5_2 1_555 1_555
C6_2 C5_2 1_555 1_555
C8_2 C4_2 1_555 1_555
C9_2 C6_2 1_555 1_555
C6_2 C7_2 1_555 1_555
N1_2 Zn4 1_555 1_555
N2_2 N1_2 1_555 1_555
N3_2 N2_2 1_555 1_555
N4_2 N1_2 1_555 1_555
C10_2 N3_2 1_555 1_555
C11_2 C10_2 1_555 1_555
H6 C16 1_555 1_555
C17_2 C11_2 1_555 1_555
H7_2 C17_2 1_555 1_555
N4_2 C10_2 1_555 1_555
C16 C17_2 1_555 1_555
H6_2 C16_2 1_555 1_555
H4_2 C12_2 1_555 1_555
N9 H11 1_555 1_555
H12 N9 1_555 1_555
C27 N9 1_555 1_555
H13 C27 1_555 1_555
H17 C28 1_555 1_555
H18 C28 1_555 1_555
H17_2 C28_2 1_555 1_555
N9_2 H11_2 1_555 1_555
H12_2 N9_2 1_555 1_555
C27_2 N9_2 1_555 1_555
H13_2 C27_2 1_555 1_555
H17_3 C28_3 1_555 1_555
H18_3 C28_3 1_555 1_555
N9_3 H11_3 1_555 1_555
H12_3 N9_3 1_555 1_555
C27_3 N9_3 1_555 1_555
H13_3 C27_3 1_555 1_555
N9_4 H11_4 1_555 1_555
H12_4 N9_4 1_555 1_555
C27_4 N9_4 1_555 1_555
H13_4 C27_4 1_555 1_555
H17_4 C28_4 1_555 1_555
N10 H19 1_555 1_555
H20 N10 1_555 1_555
C29 N10 1_555 1_555
H21 C29 1_555 1_555
H22 C29 1_555 1_555
H23 C29 1_555 1_555
C30 N10 1_555 1_555
H24 C30 1_555 1_555
N10_2 H19_2 1_555 1_555
H20_2 N10_2 1_555 1_555
C29_2 N10_2 1_555 1_555
H21_2 C29_2 1_555 1_555
H22_2 C29_2 1_555 1_555
H23_2 C29_2 1_555 1_555
C30_2 N10_2 1_555 1_555
H24_2 C30_2 1_555 1_555
H25_2 C30_2 1_555 1_555
H26_2 C30_2 1_555 1_555
N10_3 H19_3 1_555 1_555
H20_3 N10_3 1_555 1_555
C29_3 N10_3 1_555 1_555
H21_3 C29_3 1_555 1_555
H22_3 C29_3 1_555 1_555
H23_3 C29_3 1_555 1_555
C30_3 N10_3 1_555 1_555
H24_3 C30_3 1_555 1_555
N10_4 H19_4 1_555 1_555
H20_4 N10_4 1_555 1_555
C29_4 N10_4 1_555 1_555
H21_4 C29_4 1_555 1_555
H22_4 C29_4 1_555 1_555
H23_4 C29_4 1_555 1_555
C30_4 N10_4 1_555 1_555
H24_4 C30_4 1_555 1_555
H25_4 C30_4 1_555 1_555
H26_4 C30_4 1_555 1_555

#END
