
###############################################################################
#
# This file contains modified crystal structure data generated from the
# MOF subset of the Cambridge Structural Database (CSD) v543 
# hosted by the Cambridge Crystallographic Data Centre (CCDC).
#
# This work is licensed under the Creative Commons
# Attribution-NonCommercial-ShareAlike 4.0 International License.
# To view a copy of this license, visit
# http://creativecommons.org/licenses/by-nc-sa/4.0/
# or send a letter to
# Creative Commons, PO Box 1866, Mountain View, CA 94042, USA.
#
# CIF created using the CSD Python API on 29 September 2022
# The structure has been converted into the P1 space group
# The structure has a 3D framework
# The original CSD entry XUHXOP is in the monoclinic crystal system
# The framework has been calculated to contain at least 10.0% void space
# The void calculation uses a probe of radius 1.32A, grid spacing 0.4
#
###############################################################################

data_XUHXOP
_chemical_formula_moiety         '(C680 H544 Mn28 N56 O88)n'
_symmetry_cell_setting           triclinic
_symmetry_space_group_name_H-M   'P 1'
_symmetry_Int_Tables_number      1
_space_group_name_Hall           'P 1'
loop_
_symmetry_equiv_pos_site_id
_symmetry_equiv_pos_as_xyz
1 x,y,z
_cell_length_a                   43.211(9)
_cell_length_b                   17.597(4)
_cell_length_c                   33.718(7)
_cell_angle_alpha                90
_cell_angle_beta                 129.74(3)
_cell_angle_gamma                90
_cell_volume                     19714.9
loop_
_atom_site_label
_atom_site_type_symbol
_atom_site_fract_x
_atom_site_fract_y
_atom_site_fract_z
O4 O 0.03669(6) 0.03312(12) 0.26388(8)
O5 O 0.05019(7) 0.00698(13) 0.21138(9)
N2 N 0.15659(12) 0.1360(2) 0.30300(16)
C16 C 0.13351(18) 0.2701(3) 0.2792(2)
H13 H 0.1069 0.2584 0.2514
C17 C 0.1466(2) 0.3471(3) 0.2937(3)
H14 H 0.1283 0.3866 0.2758
C18 C 0.1864(2) 0.3630(3) 0.3343(3)
H15 H 0.1947 0.4132 0.3438
C19 C 0.2134(2) 0.3065(3) 0.3604(3)
H16 H 0.2404 0.3182 0.3865
C20 C 0.26022(17) 0.1368(4) 0.4147(3)
H17 H 0.2805 0.1729 0.4339
C21 C 0.26808(18) 0.0612(4) 0.4282(3)
H18 H 0.2939 0.0467 0.4569
C22 C 0.23828(19) 0.0058(4) 0.3999(3)
C23 C 0.19981(17) 0.0251(3) 0.3566(2)
C24 C 0.16187(15) 0.2141(3) 0.3079(2)
C25 C 0.20149(16) 0.2308(3) 0.3489(2)
C26 C 0.22118(16) 0.1586(3) 0.3716(2)
C27 C 0.19221(15) 0.1008(3) 0.3433(2)
C28 C 0.11808(14) 0.0968(3) 0.26532(19)
H21 H 0.1232 0.0466 0.2588
H22 H 0.1023 0.1248 0.2331
C29 C 0.09435(12) 0.0894(2) 0.28366(16)
H23 H 0.0861 0.1396 0.2856
H24 H 0.1116 0.0680 0.3181
C30 C 0.05737(10) 0.03983(19) 0.24895(13)
N9 N 0.00767(8) 0.05724(16) 0.60723(10)
C93 C 0.00153(9) 0.01186(18) 0.52246(12)
C95 C 0.03739(11) 0.0193(2) 0.61331(13)
H76 H 0.0605 0.0082 0.6467
N10 N 0.06938(10) 0.17249(17) 0.40629(12)
C96 C 0.10437(19) 0.2409(3) 0.3794(2)
H77 H 0.0940 0.2109 0.3506
C97 C 0.1296(2) 0.2996(4) 0.3918(3)
H78 H 0.1369 0.3090 0.3716
C98 C 0.1447(2) 0.3462(4) 0.4344(3)
H79 H 0.1614 0.3867 0.4417
C99 C 0.13526(18) 0.3328(3) 0.4652(2)
H80 H 0.1453 0.3642 0.4933
C100 C 0.09941(14) 0.2613(2) 0.52228(17)
H81 H 0.1163 0.3009 0.5437
C101 C 0.07841(16) 0.2210(3) 0.53305(18)
H82 H 0.0810 0.2338 0.5618
C102 C 0.05369(16) 0.1619(3) 0.5021(2)
H83 H 0.0396 0.1360 0.5102
C103 C 0.04909(14) 0.1397(2) 0.45909(18)
H84 H 0.0327 0.0990 0.4388
C104 C 0.09448(14) 0.2268(2) 0.41059(18)
C105 C 0.11046(14) 0.2717(2) 0.45453(18)
C106 C 0.09502(12) 0.2419(2) 0.47841(16)
C107 C 0.06997(12) 0.1808(2) 0.44751(15)
C108 C 0.05386(12) 0.1061(2) 0.37270(14)
H85 H 0.0490 0.1189 0.3411
H86 H 0.0285 0.0907 0.3637
C109 C 0.08393(11) 0.0403(2) 0.39968(13)
H87 H 0.1102 0.0580 0.4126
H88 H 0.0862 0.0236 0.4289
H131 H 0.2514 0.0404 0.2766
Mn7 Mn 0.018570(14) 0.10036(3) 0.678450(17)
Mn1 Mn -0.0000 0.95218(4) 0.2500
Mn2 Mn -0.0000 0.79296(4) 0.2500
O1 O 0.02909(6) 0.87277(12) 0.24924(8)
O10 O 0.02310(7) 0.80957(13) 0.36794(8)
O11 O 0.05315(7) 0.78800(12) 0.33416(8)
N5 N 0.11004(10) 0.68815(19) 0.50104(12)
H19 H 0.2444 0.9553 0.4104
H20 H 0.1799 0.9885 0.3371
C31 C 0.17742(16) 0.7461(3) 0.5583(2)
H25 H 0.1697 0.7934 0.5422
C32 C 0.21777(18) 0.7302(4) 0.6016(3)
H26 H 0.2374 0.7674 0.6143
C33 C 0.22872(19) 0.6581(4) 0.6261(3)
H27 H 0.2552 0.6499 0.6555
C34 C 0.20158(18) 0.6006(4) 0.6078(2)
H28 H 0.2095 0.5537 0.6242
C35 C 0.11904(18) 0.4901(3) 0.5335(2)
H29 H 0.1395 0.4580 0.5588
C36 C 0.08037(19) 0.4626(3) 0.4952(3)
H30 H 0.0752 0.4109 0.4939
C37 C 0.04961(17) 0.5107(3) 0.4592(2)
H31 H 0.0237 0.4914 0.4353
C38 C 0.05644(14) 0.5872(3) 0.45775(19)
H32 H 0.0357 0.6192 0.4328
C39 C 0.15014(13) 0.6878(3) 0.54104(16)
C40 C 0.16125(15) 0.6134(3) 0.56354(16)
C41 C 0.12630(14) 0.5669(3) 0.53282(17)
C42 C 0.09493(13) 0.6143(2) 0.49452(15)
C43 C 0.08666(12) 0.7490(2) 0.46409(13)
H33 H 0.0992 0.7975 0.4803
H34 H 0.0598 0.7492 0.4533
C44 C 0.08403(12) 0.7387(3) 0.41706(14)
H35 H 0.1096 0.7534 0.4264
H36 H 0.0799 0.6852 0.4081
C45 C 0.05093(10) 0.78369(18) 0.36996(12)
H38 H 0.0126 0.7826 0.4721
C48 C 0.00515(15) 0.6834(3) 0.49505(19)
H39 H 0.0239 0.6933 0.5302
C76 C 0.02519(10) 0.92861(19) 0.44097(12)
H61 H 0.0464 0.9031 0.4462
C77 C 0.02949(10) 0.94993(19) 0.48391(12)
H62 H 0.0531 0.9387 0.5168
C94 C 0.03558(11) 0.9957(2) 0.57291(13)
H75 H 0.0570 0.9691 0.5793
Mn5 Mn 0.018570(14) 0.89964(3) 0.178450(17)
Mn6 Mn 0.090695(14) 0.84560(3) 0.318776(18)
O13 O 0.09681(7) 0.94138(13) 0.36369(8)
O14 O 0.03401(6) 0.95640(12) 0.33442(8)
O17 O 0.11673(7) 0.89138(14) 0.28774(9)
O18 O 0.07474(7) 0.85549(13) 0.20450(8)
O19 O 0.08687(7) 0.73908(13) 0.28090(9)
O20 O 0.02159(7) 0.71267(13) 0.23433(8)
N12 N 0.17025(10) 0.8376(2) 0.20208(13)
N13 N 0.07556(10) 0.62560(19) 0.15926(13)
C110 C 0.07119(10) 0.97409(18) 0.36371(12)
C141 C 0.02812(14) 0.7231(2) 0.09343(18)
H113 H 0.0324 0.7589 0.1168
C142 C 0.00127(15) 0.7367(3) 0.04009(19)
C144 C 0.01599(14) 0.6164(2) 0.02190(17)
C145 C 0.07713(13) 0.4683(2) 0.09312(17)
H117 H 0.0653 0.4566 0.0592
C146 C 0.10337(15) 0.4189(3) 0.13203(19)
H118 H 0.1090 0.3728 0.1244
C147 C 0.12177(15) 0.4369(3) 0.1830(2)
H119 H 0.1398 0.4024 0.2088
C148 C 0.11424(13) 0.5037(3) 0.19663(18)
H120 H 0.1264 0.5146 0.2308
C149 C 0.04796(12) 0.6536(2) 0.10961(15)
C150 C 0.04286(12) 0.6002(2) 0.07454(15)
C151 C 0.06832(11) 0.5367(2) 0.10507(15)
C152 C 0.08747(12) 0.5542(2) 0.15685(16)
C153 C 0.08589(13) 0.6629(3) 0.20503(16)
H121 H 0.0874 0.7173 0.2020
H122 H 0.1122 0.6456 0.2352
C154 C 0.05568(12) 0.6468(2) 0.21229(16)
H123 H 0.0611 0.5969 0.2278
H124 H 0.0290 0.6453 0.1787
C155 C 0.05568(10) 0.70445(19) 0.24575(13)
C156 C 0.15137(13) 0.7070(3) 0.16275(16)
H125 H 0.1282 0.7028 0.1590
C157 C 0.16329(14) 0.6491(3) 0.14757(17)
H126 H 0.1480 0.6049 0.1336
C158 C 0.19803(14) 0.6555(3) 0.15278(18)
H127 H 0.2051 0.6161 0.1416
C159 C 0.22187(13) 0.7197(3) 0.17439(17)
H128 H 0.2450 0.7235 0.1779
C160 C 0.26332(14) 0.8901(3) 0.2319(2)
H129 H 0.2807 0.8689 0.2276
C161 C 0.27141(16) 0.9598(3) 0.2548(2)
H130 H 0.2946 0.9856 0.2664
C162 C 0.24535(17) 0.9929(3) 0.2611(2)
C163 C 0.21094(14) 0.9560(3) 0.24460(19)
H132 H 0.1935 0.9780 0.2487
C164 C 0.17531(12) 0.7723(2) 0.18390(15)
C165 C 0.21113(12) 0.7785(2) 0.19078(16)
C166 C 0.22844(12) 0.8513(2) 0.21502(16)
C167 C 0.20279(12) 0.8858(2) 0.22190(16)
C168 C 0.13576(11) 0.8568(3) 0.19841(15)
H133 H 0.1134 0.8238 0.1733
H134 H 0.1277 0.9087 0.1864
C169 C 0.14506(10) 0.8486(2) 0.25028(14)
H135 H 0.1535 0.7968 0.2625
H136 H 0.1672 0.8820 0.2752
C170 C 0.10924(10) 0.86735(19) 0.24706(12)
N15 N 0.15184(9) 0.80605(18) 0.39034(11)
N16 N 0.00767(8) 0.94276(16) 0.10723(10)
N1 N 0.93062(10) 0.17249(17) 0.09371(12)
C1 C 0.89563(19) 0.2409(3) 0.1206(2)
H1 H 0.9060 0.2109 0.1494
C2 C 0.8704(2) 0.2996(4) 0.1082(3)
H2 H 0.8631 0.3090 0.1284
C3 C 0.8553(2) 0.3462(4) 0.0656(3)
H3 H 0.8386 0.3867 0.0583
C4 C 0.86474(18) 0.3328(3) 0.0348(2)
H4 H 0.8547 0.3642 0.0067
C8 C 0.95091(14) 0.1397(2) 0.04091(18)
H8 H 0.9673 0.0990 0.0612
C9 C 0.90552(14) 0.2268(2) 0.08941(18)
C10 C 0.88954(14) 0.2717(2) 0.04547(18)
C11 C 0.90498(12) 0.2419(2) 0.02159(16)
C12 C 0.93003(12) 0.1808(2) 0.05249(15)
C13 C 0.94614(12) 0.1061(2) 0.12730(14)
H9 H 0.9510 0.1189 0.1589
H10 H 0.9715 0.0907 0.1363
C14 C 0.91607(11) 0.0403(2) 0.10032(13)
H11 H 0.8898 0.0580 0.0874
H12 H 0.9138 0.0236 0.0711
H55 H 0.7486 0.0404 0.2234
C79 C 0.96442(11) 0.0043(2) 0.42709(13)
H63 H 0.9430 0.0309 0.4207
C91 C 0.97481(10) 0.07139(19) 0.55903(12)
H73 H 0.9536 0.0969 0.5538
C92 C 0.97051(10) 0.05007(19) 0.51609(12)
H74 H 0.9469 0.0613 0.4832
O15 O 0.96331(6) 0.03312(12) 0.23612(8)
O16 O 0.94981(7) 0.00698(13) 0.28862(9)
N11 N 0.84341(12) 0.1360(2) 0.19700(16)
C111 C 0.86649(18) 0.2701(3) 0.2208(2)
H89 H 0.8931 0.2584 0.2486
C112 C 0.8534(2) 0.3471(3) 0.2063(3)
H90 H 0.8717 0.3866 0.2242
C113 C 0.8136(2) 0.3630(3) 0.1657(3)
H91 H 0.8053 0.4132 0.1562
C114 C 0.7866(2) 0.3065(3) 0.1396(3)
H92 H 0.7596 0.3182 0.1135
C115 C 0.73978(17) 0.1368(4) 0.0853(3)
H93 H 0.7195 0.1729 0.0661
C116 C 0.73192(18) 0.0612(4) 0.0718(3)
H94 H 0.7061 0.0467 0.0431
C117 C 0.76172(19) 0.0058(4) 0.1001(3)
C118 C 0.80019(17) 0.0251(3) 0.1434(2)
C119 C 0.83813(15) 0.2141(3) 0.1921(2)
C120 C 0.79851(16) 0.2308(3) 0.1511(2)
C121 C 0.77882(16) 0.1586(3) 0.1284(2)
C122 C 0.80779(15) 0.1008(3) 0.1567(2)
C123 C 0.88192(14) 0.0968(3) 0.23468(19)
H97 H 0.8768 0.0466 0.2412
H98 H 0.8977 0.1248 0.2669
C124 C 0.90565(12) 0.0894(2) 0.21634(16)
H99 H 0.9139 0.1396 0.2144
H100 H 0.8884 0.0680 0.1819
C125 C 0.94263(10) 0.03983(19) 0.25105(13)
C5 C 0.90059(14) 0.2613(2) 0.97772(17)
H5 H 0.8837 0.3009 0.9563
C6 C 0.92159(16) 0.2210(3) 0.96695(18)
H6 H 0.9190 0.2338 0.9382
C7 C 0.94631(16) 0.1619(3) 0.9979(2)
H7 H 0.9604 0.1360 0.9898
Mn1_2 Mn 1.0000 0.95218(4) 0.2500
Mn2_2 Mn 1.0000 0.79296(4) 0.2500
Mn3 Mn 0.981430(14) 0.89964(3) 0.321550(17)
Mn4 Mn 0.909305(14) 0.84560(3) 0.181224(18)
O2 O 0.90319(7) 0.94138(13) 0.13631(8)
O3 O 0.96599(6) 0.95640(12) 0.16558(8)
O6 O 0.88327(7) 0.89138(14) 0.21226(9)
O7 O 0.92526(7) 0.85549(13) 0.29550(8)
O8 O 0.91313(7) 0.73908(13) 0.21910(9)
O9 O 0.97841(7) 0.71267(13) 0.26567(8)
N3 N 0.82975(10) 0.8376(2) 0.29792(13)
N4 N 0.92444(10) 0.62560(19) 0.34074(13)
N6 N 0.84816(9) 0.80605(18) 0.10966(11)
N7 N 0.99233(8) 0.94276(16) 0.39277(10)
C15 C 0.92881(10) 0.97409(18) 0.13629(12)
C46 C 0.97188(14) 0.7231(2) 0.40657(18)
H37 H 0.9676 0.7589 0.3832
C47 C 0.99873(15) 0.7367(3) 0.45991(19)
C49 C 0.98401(14) 0.6164(2) 0.47810(17)
H40 H 0.9876 0.5818 0.5016
C50 C 0.92287(13) 0.4683(2) 0.40688(17)
H41 H 0.9347 0.4566 0.4408
C51 C 0.89663(15) 0.4189(3) 0.36797(19)
H42 H 0.8910 0.3728 0.3756
C52 C 0.87823(15) 0.4369(3) 0.3170(2)
H43 H 0.8602 0.4024 0.2912
C53 C 0.88576(13) 0.5037(3) 0.30337(18)
H44 H 0.8736 0.5146 0.2692
C54 C 0.95204(12) 0.6536(2) 0.39039(15)
C55 C 0.95714(12) 0.6002(2) 0.42546(15)
C56 C 0.93168(11) 0.5367(2) 0.39493(15)
C57 C 0.91253(12) 0.5542(2) 0.34315(16)
C58 C 0.91411(13) 0.6629(3) 0.29497(16)
H45 H 0.9126 0.7173 0.2980
H46 H 0.8878 0.6456 0.2648
C59 C 0.94432(12) 0.6468(2) 0.28771(16)
H47 H 0.9389 0.5969 0.2722
H48 H 0.9710 0.6453 0.3213
C60 C 0.94432(10) 0.70445(19) 0.25425(13)
C61 C 0.84863(13) 0.7070(3) 0.33725(16)
H49 H 0.8718 0.7028 0.3410
C62 C 0.83671(14) 0.6491(3) 0.35243(17)
H50 H 0.8520 0.6049 0.3664
C63 C 0.80197(14) 0.6555(3) 0.34722(18)
H51 H 0.7949 0.6161 0.3584
C64 C 0.77813(13) 0.7197(3) 0.32561(17)
H52 H 0.7550 0.7235 0.3221
C65 C 0.73668(14) 0.8901(3) 0.2681(2)
H53 H 0.7193 0.8689 0.2724
C66 C 0.72859(16) 0.9598(3) 0.2452(2)
H54 H 0.7054 0.9856 0.2336
C67 C 0.75465(17) 0.9929(3) 0.2389(2)
C68 C 0.78906(14) 0.9560(3) 0.25540(19)
H56 H 0.8065 0.9780 0.2513
C69 C 0.82469(12) 0.7723(2) 0.31610(15)
C70 C 0.78887(12) 0.7785(2) 0.30922(16)
C71 C 0.77156(12) 0.8513(2) 0.28498(16)
C72 C 0.79721(12) 0.8858(2) 0.27810(16)
C73 C 0.86424(11) 0.8568(3) 0.30159(15)
H57 H 0.8866 0.8238 0.3267
H58 H 0.8723 0.9087 0.3136
C74 C 0.85494(10) 0.8486(2) 0.24972(14)
H59 H 0.8465 0.7968 0.2375
H60 H 0.8328 0.8820 0.2248
C75 C 0.89076(10) 0.86735(19) 0.25294(12)
C78 C 0.99847(9) 0.98814(18) 0.47754(12)
C80 C 0.96261(11) 0.9807(2) 0.38669(13)
H64 H 0.9395 0.9918 0.3533
C81 C 0.82655(15) 0.8451(4) 0.06669(18)
H65 H 0.8376 0.8897 0.0656
C82 C 0.78839(16) 0.8247(4) 0.02281(19)
C83 C 0.77067(12) 0.7617(3) 0.02314(18)
C84 C 0.79299(16) 0.7205(4) 0.0675(2)
H67 H 0.7825 0.6759 0.0696
C85 C 0.83090(15) 0.7442(3) 0.1092(2)
H68 H 0.8452 0.7146 0.1390
H70 H 0.7250 0.6457 0.0068
O12 O 0.97091(6) 0.87277(12) 0.25076(8)
O21 O 0.97690(7) 0.80957(13) 0.13206(8)
O22 O 0.94685(7) 0.78800(12) 0.16584(8)
H95 H 0.7556 0.9553 0.0896
H96 H 0.8201 0.9885 0.1629
C131 C 0.91963(19) 0.4626(3) 0.0048(3)
H106 H 0.9248 0.4109 0.0061
C132 C 0.95039(17) 0.5107(3) 0.0408(2)
H107 H 0.9763 0.4914 0.0647
C133 C 0.94356(14) 0.5872(3) 0.04225(19)
H108 H 0.9643 0.6192 0.0672
C137 C 0.90507(13) 0.6143(2) 0.00548(15)
C138 C 0.91334(12) 0.7490(2) 0.03591(13)
H109 H 0.9008 0.7975 0.0197
H110 H 0.9402 0.7492 0.0467
C139 C 0.91597(12) 0.7387(3) 0.08294(14)
H111 H 0.8904 0.7534 0.0736
H112 H 0.9201 0.6852 0.0919
C140 C 0.94907(10) 0.78369(18) 0.13004(12)
H114 H 0.9874 0.7826 0.0279
C143 C 0.99485(15) 0.6834(3) 0.00495(19)
H66 H 0.7750 0.8543 0.9932
N8 N 0.65184(9) 0.69395(18) 0.89034(11)
C86 C 0.67345(15) 0.6549(4) 0.93331(18)
H69 H 0.6624 0.6103 0.9344
C87 C 0.71161(16) 0.6753(4) 0.97719(19)
C88 C 0.72933(12) 0.7383(3) 0.97686(18)
C89 C 0.70701(16) 0.7795(4) 0.9325(2)
H71 H 0.7175 0.8241 0.9304
C90 C 0.66910(15) 0.7558(3) 0.8908(2)
H72 H 0.6548 0.7854 0.8610
N14 N 0.88996(10) 0.68815(19) 0.99896(12)
C126 C 0.82258(16) 0.7461(3) 0.9417(2)
H101 H 0.8303 0.7934 0.9578
C127 C 0.78223(18) 0.7302(4) 0.8984(3)
H102 H 0.7626 0.7674 0.8857
C128 C 0.77128(19) 0.6581(4) 0.8739(3)
H103 H 0.7448 0.6499 0.8445
C129 C 0.79842(18) 0.6006(4) 0.8922(2)
H104 H 0.7905 0.5537 0.8758
C130 C 0.88096(18) 0.4901(3) 0.9665(2)
H105 H 0.8605 0.4580 0.9412
C134 C 0.84986(13) 0.6878(3) 0.95896(16)
C135 C 0.83875(15) 0.6134(3) 0.93646(16)
C136 C 0.87370(14) 0.5669(3) 0.96718(17)
H115 H 0.9761 0.6933 0.9698
Mn8 Mn 0.590695(14) 0.65440(3) 0.818776(18)
C79_2 C 0.03558(11) 0.0043(2) 0.07291(13)
H63_2 H 0.0570 0.0309 0.0793
H74_2 H 0.0531 0.0613 0.0168
C91_2 C 0.02519(10) 0.07139(19) 0.94097(12)
H73_2 H 0.0464 0.0969 0.9462
C92_2 C 0.02949(10) 0.05007(19) 0.98391(12)
C78_2 C 0.00153(9) 0.98814(18) 0.02246(12)
C80_2 C 0.03739(11) 0.9807(2) 0.11331(13)
H64_2 H 0.0605 0.9918 0.1467
C81_2 C 0.17345(15) 0.8451(4) 0.43331(18)
H65_2 H 0.1624 0.8897 0.4344
C82_2 C 0.21161(16) 0.8247(4) 0.47719(19)
H66_2 H 0.2250 0.8543 0.5068
C83_2 C 0.22933(12) 0.7617(3) 0.47686(18)
C84_2 C 0.20701(16) 0.7205(4) 0.4325(2)
H67_2 H 0.2175 0.6759 0.4304
C85_2 C 0.16910(15) 0.7442(3) 0.3908(2)
H68_2 H 0.1548 0.7146 0.3610
N8_2 N 0.34816(9) 0.69395(18) 0.60966(11)
C86_2 C 0.32655(15) 0.6549(4) 0.56669(18)
H69_2 H 0.3376 0.6103 0.5656
C87_2 C 0.28839(16) 0.6753(4) 0.52281(19)
H70_2 H 0.2750 0.6457 0.4932
C88_2 C 0.27067(12) 0.7383(3) 0.52314(18)
C89_2 C 0.29299(16) 0.7795(4) 0.5675(2)
H71_2 H 0.2825 0.8241 0.5696
C90_2 C 0.33090(15) 0.7558(3) 0.6092(2)
H72_2 H 0.3452 0.7854 0.6390
Mn8_2 Mn 0.409305(14) 0.65440(3) 0.681224(18)
N9_2 N 0.99233(8) 0.05724(16) 0.89277(10)
C93_2 C 0.99847(9) 0.01186(18) 0.97754(12)
C95_2 C 0.96261(11) 0.0193(2) 0.88669(13)
H76_2 H 0.9395 0.0082 0.8533
Mn7_2 Mn 0.981430(14) 0.10036(3) 0.821550(17)
C76_2 C 0.97481(10) 0.92861(19) 0.05903(12)
H61_2 H 0.9536 0.9031 0.0538
C77_2 C 0.97051(10) 0.94993(19) 0.01609(12)
H62_2 H 0.9469 0.9387 0.9832
C94_2 C 0.96442(11) 0.9957(2) 0.92709(13)
H75_2 H 0.9430 0.9691 0.9207
Mn1_3 Mn 0.5000 0.45218(4) 0.2500
Mn2_3 Mn 0.5000 0.29296(4) 0.2500
Mn3_2 Mn 0.481430(14) 0.39964(3) 0.321550(17)
Mn4_2 Mn 0.409305(14) 0.34560(3) 0.181224(18)
O1_2 O 0.52909(6) 0.37277(12) 0.24924(8)
O2_2 O 0.40319(7) 0.44138(13) 0.13631(8)
O3_2 O 0.46599(6) 0.45640(12) 0.16558(8)
O4_2 O 0.53669(6) 0.53312(12) 0.26388(8)
O5_2 O 0.55019(7) 0.50698(13) 0.21138(9)
O6_2 O 0.38327(7) 0.39138(14) 0.21226(9)
O7_2 O 0.42526(7) 0.35549(13) 0.29550(8)
O8_2 O 0.41313(7) 0.23908(13) 0.21910(9)
O9_2 O 0.47841(7) 0.21267(13) 0.26567(8)
O10_2 O 0.52310(7) 0.30957(13) 0.36794(8)
O11_2 O 0.55315(7) 0.28800(12) 0.33416(8)
N1_2 N 0.43062(10) 0.67249(17) 0.09371(12)
N2_2 N 0.65659(12) 0.6360(2) 0.30300(16)
N3_2 N 0.32975(10) 0.3376(2) 0.29792(13)
N4_2 N 0.42444(10) 0.12560(19) 0.34074(13)
N5_2 N 0.61004(10) 0.18815(19) 0.50104(12)
N6_2 N 0.34816(9) 0.30605(18) 0.10966(11)
N7_2 N 0.49233(8) 0.44276(16) 0.39277(10)
C1_2 C 0.39563(19) 0.7409(3) 0.1206(2)
H1_2 H 0.4060 0.7109 0.1494
C2_2 C 0.3704(2) 0.7996(4) 0.1082(3)
H2_2 H 0.3631 0.8090 0.1284
C3_2 C 0.3553(2) 0.8462(4) 0.0656(3)
H3_2 H 0.3386 0.8867 0.0583
C4_2 C 0.36474(18) 0.8328(3) 0.0348(2)
H4_2 H 0.3547 0.8642 0.0067
C8_2 C 0.45091(14) 0.6397(2) 0.04091(18)
H8_2 H 0.4673 0.5990 0.0612
C9_2 C 0.40552(14) 0.7268(2) 0.08941(18)
C10_2 C 0.38954(14) 0.7717(2) 0.04547(18)
C11_2 C 0.40498(12) 0.7419(2) 0.02159(16)
C12_2 C 0.43003(12) 0.6808(2) 0.05249(15)
C13_2 C 0.44614(12) 0.6061(2) 0.12730(14)
H9_2 H 0.4510 0.6189 0.1589
H10_2 H 0.4715 0.5907 0.1363
C14_2 C 0.41607(11) 0.5403(2) 0.10032(13)
H11_2 H 0.3898 0.5580 0.0874
H12_2 H 0.4138 0.5236 0.0711
C15_2 C 0.42881(10) 0.47409(18) 0.13629(12)
C16_2 C 0.63351(18) 0.7701(3) 0.2792(2)
H13_2 H 0.6069 0.7584 0.2514
C17_2 C 0.6466(2) 0.8471(3) 0.2937(3)
H14_2 H 0.6283 0.8866 0.2758
C18_2 C 0.6864(2) 0.8630(3) 0.3343(3)
H15_2 H 0.6947 0.9132 0.3438
C19_2 C 0.7134(2) 0.8065(3) 0.3604(3)
H16_2 H 0.7404 0.8182 0.3865
C20_2 C 0.76022(17) 0.6368(4) 0.4147(3)
H17_2 H 0.7805 0.6729 0.4339
C21_2 C 0.76808(18) 0.5612(4) 0.4282(3)
H18_2 H 0.7939 0.5467 0.4569
C22_2 C 0.73828(19) 0.5058(4) 0.3999(3)
H19_2 H 0.7444 0.4553 0.4104
C23_2 C 0.69981(17) 0.5251(3) 0.3566(2)
H20_2 H 0.6799 0.4885 0.3371
C24_2 C 0.66187(15) 0.7141(3) 0.3079(2)
C25_2 C 0.70149(16) 0.7308(3) 0.3489(2)
C26_2 C 0.72118(16) 0.6586(3) 0.3716(2)
C27_2 C 0.69221(15) 0.6008(3) 0.3433(2)
C28_2 C 0.61808(14) 0.5968(3) 0.26532(19)
H21_2 H 0.6232 0.5466 0.2588
H22_2 H 0.6023 0.6248 0.2331
C29_2 C 0.59435(12) 0.5894(2) 0.28366(16)
H23_2 H 0.5861 0.6396 0.2856
H24_2 H 0.6116 0.5680 0.3181
C30_2 C 0.55737(10) 0.53983(19) 0.24895(13)
C31_2 C 0.67742(16) 0.2461(3) 0.5583(2)
H25_2 H 0.6697 0.2934 0.5422
C32_2 C 0.71777(18) 0.2302(4) 0.6016(3)
H26_2 H 0.7374 0.2674 0.6143
C33_2 C 0.72872(19) 0.1581(4) 0.6261(3)
H27_2 H 0.7552 0.1499 0.6555
C34_2 C 0.70158(18) 0.1006(4) 0.6078(2)
H28_2 H 0.7095 0.0537 0.6242
C37_2 C 0.54961(17) 0.0107(3) 0.4592(2)
C38_2 C 0.55644(14) 0.0872(3) 0.45775(19)
H32_2 H 0.5357 0.1192 0.4328
C39_2 C 0.65014(13) 0.1878(3) 0.54104(16)
C40_2 C 0.66125(15) 0.1134(3) 0.56354(16)
C41_2 C 0.62630(14) 0.0669(3) 0.53282(17)
C42_2 C 0.59493(13) 0.1143(2) 0.49452(15)
C43_2 C 0.58666(12) 0.2490(2) 0.46409(13)
H33_2 H 0.5992 0.2975 0.4803
H34_2 H 0.5598 0.2492 0.4533
C44_2 C 0.58403(12) 0.2387(3) 0.41706(14)
H35_2 H 0.6096 0.2534 0.4264
H36_2 H 0.5799 0.1852 0.4081
C45_2 C 0.55093(10) 0.28369(18) 0.36996(12)
C46_2 C 0.47188(14) 0.2231(2) 0.40657(18)
H37_2 H 0.4676 0.2589 0.3832
C47_2 C 0.49873(15) 0.2367(3) 0.45991(19)
H38_2 H 0.5126 0.2826 0.4721
C48_2 C 0.50515(15) 0.1834(3) 0.49505(19)
H39_2 H 0.5239 0.1933 0.5302
C49_2 C 0.48401(14) 0.1164(2) 0.47810(17)
H40_2 H 0.4876 0.0818 0.5016
C53_2 C 0.38576(13) 0.0037(3) 0.30337(18)
H44_2 H 0.3736 0.0146 0.2692
C54_2 C 0.45204(12) 0.1536(2) 0.39039(15)
C55_2 C 0.45714(12) 0.1002(2) 0.42546(15)
C56_2 C 0.43168(11) 0.0367(2) 0.39493(15)
C57_2 C 0.41253(12) 0.0542(2) 0.34315(16)
C58_2 C 0.41411(13) 0.1629(3) 0.29497(16)
H45_2 H 0.4126 0.2173 0.2980
H46_2 H 0.3878 0.1456 0.2648
C59_2 C 0.44432(12) 0.1468(2) 0.28771(16)
H47_2 H 0.4389 0.0969 0.2722
H48_2 H 0.4710 0.1453 0.3213
C60_2 C 0.44432(10) 0.20445(19) 0.25425(13)
C61_2 C 0.34863(13) 0.2070(3) 0.33725(16)
H49_2 H 0.3718 0.2028 0.3410
C62_2 C 0.33671(14) 0.1491(3) 0.35243(17)
H50_2 H 0.3520 0.1049 0.3664
C63_2 C 0.30197(14) 0.1555(3) 0.34722(18)
H51_2 H 0.2949 0.1161 0.3584
C64_2 C 0.27813(13) 0.2197(3) 0.32561(17)
H52_2 H 0.2550 0.2235 0.3221
C65_2 C 0.23668(14) 0.3901(3) 0.2681(2)
H53_2 H 0.2193 0.3689 0.2724
C66_2 C 0.22859(16) 0.4598(3) 0.2452(2)
H54_2 H 0.2054 0.4856 0.2336
C67_2 C 0.25465(17) 0.4929(3) 0.2389(2)
H55_2 H 0.2486 0.5404 0.2234
C68_2 C 0.28906(14) 0.4560(3) 0.25540(19)
H56_2 H 0.3065 0.4780 0.2513
C69_2 C 0.32469(12) 0.2723(2) 0.31610(15)
C70_2 C 0.28887(12) 0.2785(2) 0.30922(16)
C71_2 C 0.27156(12) 0.3513(2) 0.28498(16)
C72_2 C 0.29721(12) 0.3858(2) 0.27810(16)
C73_2 C 0.36424(11) 0.3568(3) 0.30159(15)
H57_2 H 0.3866 0.3238 0.3267
H58_2 H 0.3723 0.4087 0.3136
C74_2 C 0.35494(10) 0.3486(2) 0.24972(14)
H59_2 H 0.3465 0.2968 0.2375
H60_2 H 0.3328 0.3820 0.2248
C75_2 C 0.39076(10) 0.36735(19) 0.25294(12)
C76_3 C 0.52519(10) 0.42861(19) 0.44097(12)
H61_3 H 0.5464 0.4031 0.4462
C77_3 C 0.52949(10) 0.44993(19) 0.48391(12)
H62_3 H 0.5531 0.4387 0.5168
C78_3 C 0.49847(9) 0.48814(18) 0.47754(12)
C79_3 C 0.46442(11) 0.5043(2) 0.42709(13)
H63_3 H 0.4430 0.5309 0.4207
C80_3 C 0.46261(11) 0.4807(2) 0.38669(13)
H64_3 H 0.4395 0.4918 0.3533
C81_3 C 0.32655(15) 0.3451(4) 0.06669(18)
H65_3 H 0.3376 0.3897 0.0656
C82_3 C 0.28839(16) 0.3247(4) 0.02281(19)
C83_3 C 0.27067(12) 0.2617(3) 0.02314(18)
C84_3 C 0.29299(16) 0.2205(4) 0.0675(2)
H67_3 H 0.2825 0.1759 0.0696
C85_3 C 0.33090(15) 0.2442(3) 0.1092(2)
H68_3 H 0.3452 0.2146 0.1390
H70_3 H 0.2250 0.1457 0.0068
N9_3 N 0.50767(8) 0.55724(16) 0.60723(10)
C91_3 C 0.47481(10) 0.57139(19) 0.55903(12)
H73_3 H 0.4536 0.5969 0.5538
C92_3 C 0.47051(10) 0.55007(19) 0.51609(12)
H74_3 H 0.4469 0.5613 0.4832
C93_3 C 0.50153(9) 0.51186(18) 0.52246(12)
C94_3 C 0.53558(11) 0.4957(2) 0.57291(13)
H75_3 H 0.5570 0.4691 0.5793
C95_3 C 0.53739(11) 0.5193(2) 0.61331(13)
H76_3 H 0.5605 0.5082 0.6467
Mn5_2 Mn 0.518570(14) 0.39964(3) 0.178450(17)
Mn6_2 Mn 0.590695(14) 0.34560(3) 0.318776(18)
O12_2 O 0.47091(6) 0.37277(12) 0.25076(8)
O13_2 O 0.59681(7) 0.44138(13) 0.36369(8)
O14_2 O 0.53401(6) 0.45640(12) 0.33442(8)
O15_2 O 0.46331(6) 0.53312(12) 0.23612(8)
O16_2 O 0.44981(7) 0.50698(13) 0.28862(9)
O17_2 O 0.61673(7) 0.39138(14) 0.28774(9)
O18_2 O 0.57474(7) 0.35549(13) 0.20450(8)
O19_2 O 0.58687(7) 0.23908(13) 0.28090(9)
O20_2 O 0.52159(7) 0.21267(13) 0.23433(8)
O21_2 O 0.47690(7) 0.30957(13) 0.13206(8)
O22_2 O 0.44685(7) 0.28800(12) 0.16584(8)
N10_2 N 0.56938(10) 0.67249(17) 0.40629(12)
N11_2 N 0.34341(12) 0.6360(2) 0.19700(16)
N12_2 N 0.67025(10) 0.3376(2) 0.20208(13)
N13_2 N 0.57556(10) 0.12560(19) 0.15926(13)
C96_2 C 0.60437(19) 0.7409(3) 0.3794(2)
H77_2 H 0.5940 0.7109 0.3506
C97_2 C 0.6296(2) 0.7996(4) 0.3918(3)
H78_2 H 0.6369 0.8090 0.3716
C98_2 C 0.6447(2) 0.8462(4) 0.4344(3)
H79_2 H 0.6614 0.8867 0.4417
C99_2 C 0.63526(18) 0.8328(3) 0.4652(2)
H80_2 H 0.6453 0.8642 0.4933
C100_2 C 0.59941(14) 0.7613(2) 0.52228(17)
H81_2 H 0.6163 0.8009 0.5437
C101_2 C 0.57841(16) 0.7210(3) 0.53305(18)
H82_2 H 0.5810 0.7338 0.5618
C102_2 C 0.55369(16) 0.6619(3) 0.5021(2)
H83_2 H 0.5396 0.6360 0.5102
C103_2 C 0.54909(14) 0.6397(2) 0.45909(18)
H84_2 H 0.5327 0.5990 0.4388
C104_2 C 0.59448(14) 0.7268(2) 0.41059(18)
C105_2 C 0.61046(14) 0.7717(2) 0.45453(18)
C106_2 C 0.59502(12) 0.7419(2) 0.47841(16)
C107_2 C 0.56997(12) 0.6808(2) 0.44751(15)
C108_2 C 0.55386(12) 0.6061(2) 0.37270(14)
H85_2 H 0.5490 0.6189 0.3411
H86_2 H 0.5285 0.5907 0.3637
C109_2 C 0.58393(11) 0.5403(2) 0.39968(13)
H87_2 H 0.6102 0.5580 0.4126
H88_2 H 0.5862 0.5236 0.4289
C110_2 C 0.57119(10) 0.47409(18) 0.36371(12)
C111_2 C 0.36649(18) 0.7701(3) 0.2208(2)
H89_2 H 0.3931 0.7584 0.2486
C112_2 C 0.3534(2) 0.8471(3) 0.2063(3)
H90_2 H 0.3717 0.8866 0.2242
C113_2 C 0.3136(2) 0.8630(3) 0.1657(3)
H91_2 H 0.3053 0.9132 0.1562
C114_2 C 0.2866(2) 0.8065(3) 0.1396(3)
H92_2 H 0.2596 0.8182 0.1135
C115_2 C 0.23978(17) 0.6368(4) 0.0853(3)
H93_2 H 0.2195 0.6729 0.0661
C116_2 C 0.23192(18) 0.5612(4) 0.0718(3)
H94_2 H 0.2061 0.5467 0.0431
C117_2 C 0.26172(19) 0.5058(4) 0.1001(3)
H95_2 H 0.2556 0.4553 0.0896
C118_2 C 0.30019(17) 0.5251(3) 0.1434(2)
H96_2 H 0.3201 0.4885 0.1629
C119_2 C 0.33813(15) 0.7141(3) 0.1921(2)
C120_2 C 0.29851(16) 0.7308(3) 0.1511(2)
C121_2 C 0.27882(16) 0.6586(3) 0.1284(2)
C122_2 C 0.30779(15) 0.6008(3) 0.1567(2)
C123_2 C 0.38192(14) 0.5968(3) 0.23468(19)
H97_2 H 0.3768 0.5466 0.2412
H98_2 H 0.3977 0.6248 0.2669
C124_2 C 0.40565(12) 0.5894(2) 0.21634(16)
H99_2 H 0.4139 0.6396 0.2144
H100_2 H 0.3884 0.5680 0.1819
C125_2 C 0.44263(10) 0.53983(19) 0.25105(13)
C132_2 C 0.45039(17) 0.0107(3) 0.0408(2)
C133_2 C 0.44356(14) 0.0872(3) 0.04225(19)
H108_2 H 0.4643 0.1192 0.0672
C137_2 C 0.40507(13) 0.1143(2) 0.00548(15)
C138_2 C 0.41334(12) 0.2490(2) 0.03591(13)
H109_2 H 0.4008 0.2975 0.0197
H110_2 H 0.4402 0.2492 0.0467
C139_2 C 0.41597(12) 0.2387(3) 0.08294(14)
H111_2 H 0.3904 0.2534 0.0736
H112_2 H 0.4201 0.1852 0.0919
C140_2 C 0.44907(10) 0.28369(18) 0.13004(12)
C141_2 C 0.52812(14) 0.2231(2) 0.09343(18)
H113_2 H 0.5324 0.2589 0.1168
C142_2 C 0.50127(15) 0.2367(3) 0.04009(19)
H114_2 H 0.4874 0.2826 0.0279
C143_2 C 0.49485(15) 0.1834(3) 0.00495(19)
C144_2 C 0.51599(14) 0.1164(2) 0.02190(17)
C148_2 C 0.61424(13) 0.0037(3) 0.19663(18)
H120_2 H 0.6264 0.0146 0.2308
C149_2 C 0.54796(12) 0.1536(2) 0.10961(15)
C150_2 C 0.54286(12) 0.1002(2) 0.07454(15)
C151_2 C 0.56832(11) 0.0367(2) 0.10507(15)
C152_2 C 0.58747(12) 0.0542(2) 0.15685(16)
C153_2 C 0.58589(13) 0.1629(3) 0.20503(16)
H121_2 H 0.5874 0.2173 0.2020
H122_2 H 0.6122 0.1456 0.2352
C154_2 C 0.55568(12) 0.1468(2) 0.21229(16)
H123_2 H 0.5611 0.0969 0.2278
H124_2 H 0.5290 0.1453 0.1787
C155_2 C 0.55568(10) 0.20445(19) 0.24575(13)
C156_2 C 0.65137(13) 0.2070(3) 0.16275(16)
H125_2 H 0.6282 0.2028 0.1590
C157_2 C 0.66329(14) 0.1491(3) 0.14757(17)
H126_2 H 0.6480 0.1049 0.1336
C158_2 C 0.69803(14) 0.1555(3) 0.15278(18)
H127_2 H 0.7051 0.1161 0.1416
C159_2 C 0.72187(13) 0.2197(3) 0.17439(17)
H128_2 H 0.7450 0.2235 0.1779
C160_2 C 0.76332(14) 0.3901(3) 0.2319(2)
H129_2 H 0.7807 0.3689 0.2276
C161_2 C 0.77141(16) 0.4598(3) 0.2548(2)
H130_2 H 0.7946 0.4856 0.2664
C162_2 C 0.74535(17) 0.4929(3) 0.2611(2)
H131_2 H 0.7514 0.5404 0.2766
C163_2 C 0.71094(14) 0.4560(3) 0.24460(19)
H132_2 H 0.6935 0.4780 0.2487
C164_2 C 0.67531(12) 0.2723(2) 0.18390(15)
C165_2 C 0.71113(12) 0.2785(2) 0.19078(16)
C166_2 C 0.72844(12) 0.3513(2) 0.21502(16)
C167_2 C 0.70279(12) 0.3858(2) 0.22190(16)
C168_2 C 0.63576(11) 0.3568(3) 0.19841(15)
H133_2 H 0.6134 0.3238 0.1733
H134_2 H 0.6277 0.4087 0.1864
C169_2 C 0.64506(10) 0.3486(2) 0.25028(14)
H135_2 H 0.6535 0.2968 0.2625
H136_2 H 0.6672 0.3820 0.2752
C170_2 C 0.60924(10) 0.36735(19) 0.24706(12)
Mn7_3 Mn 0.518570(14) 0.60036(3) 0.678450(17)
N15_2 N 0.65184(9) 0.30605(18) 0.39034(11)
N16_2 N 0.50767(8) 0.44276(16) 0.10723(10)
C5_2 C 0.40059(14) 0.7613(2) 0.97772(17)
H5_2 H 0.3837 0.8009 0.9563
C6_2 C 0.42159(16) 0.7210(3) 0.96695(18)
H6_2 H 0.4190 0.7338 0.9382
C7_2 C 0.44631(16) 0.6619(3) 0.9979(2)
H7_2 H 0.4604 0.6360 0.9898
H66_3 H 0.2750 0.3543 0.9932
N8_3 N 0.15184(9) 0.19395(18) 0.89034(11)
C86_3 C 0.17345(15) 0.1549(4) 0.93331(18)
H69_3 H 0.1624 0.1103 0.9344
C87_3 C 0.21161(16) 0.1753(4) 0.97719(19)
C88_3 C 0.22933(12) 0.2383(3) 0.97686(18)
C89_3 C 0.20701(16) 0.2795(4) 0.9325(2)
H71_3 H 0.2175 0.3241 0.9304
C90_3 C 0.16910(15) 0.2558(3) 0.8908(2)
H72_3 H 0.1548 0.2854 0.8610
N14_2 N 0.38996(10) 0.18815(19) 0.99896(12)
C126_2 C 0.32258(16) 0.2461(3) 0.9417(2)
H101_2 H 0.3303 0.2934 0.9578
C127_2 C 0.28223(18) 0.2302(4) 0.8984(3)
H102_2 H 0.2626 0.2674 0.8857
C128_2 C 0.27128(19) 0.1581(4) 0.8739(3)
H103_2 H 0.2448 0.1499 0.8445
C129_2 C 0.29842(18) 0.1006(4) 0.8922(2)
H104_2 H 0.2905 0.0537 0.8758
C134_2 C 0.34986(13) 0.1878(3) 0.95896(16)
C135_2 C 0.33875(15) 0.1134(3) 0.93646(16)
C136_2 C 0.37370(14) 0.0669(3) 0.96718(17)
H115_2 H 0.4761 0.1933 0.9698
H116 H 0.5124 0.0818 0.9984
Mn8_3 Mn 0.090695(14) 0.15440(3) 0.818776(18)
C76_4 C 0.47481(10) 0.42861(19) 0.05903(12)
H61_4 H 0.4536 0.4031 0.0538
C77_4 C 0.47051(10) 0.44993(19) 0.01609(12)
C78_4 C 0.50153(9) 0.48814(18) 0.02246(12)
C79_4 C 0.53558(11) 0.5043(2) 0.07291(13)
H63_4 H 0.5570 0.5309 0.0793
C80_4 C 0.53739(11) 0.4807(2) 0.11331(13)
H64_4 H 0.5605 0.4918 0.1467
C81_4 C 0.67345(15) 0.3451(4) 0.43331(18)
H65_4 H 0.6624 0.3897 0.4344
C82_4 C 0.71161(16) 0.3247(4) 0.47719(19)
H66_4 H 0.7250 0.3543 0.5068
C83_4 C 0.72933(12) 0.2617(3) 0.47686(18)
C84_4 C 0.70701(16) 0.2205(4) 0.4325(2)
H67_4 H 0.7175 0.1759 0.4304
C85_4 C 0.66910(15) 0.2442(3) 0.3908(2)
H68_4 H 0.6548 0.2146 0.3610
N8_4 N 0.84816(9) 0.19395(18) 0.60966(11)
C86_4 C 0.82655(15) 0.1549(4) 0.56669(18)
H69_4 H 0.8376 0.1103 0.5656
C87_4 C 0.78839(16) 0.1753(4) 0.52281(19)
H70_4 H 0.7750 0.1457 0.4932
C88_4 C 0.77067(12) 0.2383(3) 0.52314(18)
C89_4 C 0.79299(16) 0.2795(4) 0.5675(2)
H71_4 H 0.7825 0.3241 0.5696
C90_4 C 0.83090(15) 0.2558(3) 0.6092(2)
H72_4 H 0.8452 0.2854 0.6390
H74_4 H 0.5531 0.5613 0.0168
Mn8_4 Mn 0.909305(14) 0.15440(3) 0.681224(18)
H62_4 H 0.4469 0.4387 0.9832
N9_4 N 0.49233(8) 0.55724(16) 0.89277(10)
C91_4 C 0.52519(10) 0.57139(19) 0.94097(12)
H73_4 H 0.5464 0.5969 0.9462
C92_4 C 0.52949(10) 0.55007(19) 0.98391(12)
C93_4 C 0.49847(9) 0.51186(18) 0.97754(12)
C94_4 C 0.46442(11) 0.4957(2) 0.92709(13)
H75_4 H 0.4430 0.4691 0.9207
C95_4 C 0.46261(11) 0.5193(2) 0.88669(13)
H76_4 H 0.4395 0.5082 0.8533
Mn7_4 Mn 0.481430(14) 0.60036(3) 0.821550(17)
N14_3 N 0.11004(10) 0.31185(19) 0.00104(12)
C126_3 C 0.17742(16) 0.2539(3) 0.0583(2)
H101_3 H 0.1697 0.2066 0.0422
C127_3 C 0.21777(18) 0.2698(4) 0.1016(3)
H102_3 H 0.2374 0.2326 0.1143
C128_3 C 0.22872(19) 0.3419(4) 0.1261(3)
H103_3 H 0.2552 0.3501 0.1555
C129_3 C 0.20158(18) 0.3994(4) 0.1078(2)
H104_3 H 0.2095 0.4463 0.1242
C130_2 C 0.11904(18) 0.5099(3) 0.0335(2)
H105_2 H 0.1395 0.5420 0.0588
C134_3 C 0.15014(13) 0.3122(3) 0.04104(16)
C135_3 C 0.16125(15) 0.3866(3) 0.06354(16)
C136_3 C 0.12630(14) 0.4331(3) 0.03282(17)
H115_3 H 0.0239 0.3067 0.0302
Mn1_4 Mn -0.0000 0.04782(4) 0.7500
Mn2_4 Mn -0.0000 0.20704(4) 0.7500
O2_3 O 0.09681(7) 0.05862(13) 0.86369(8)
O3_3 O 0.03401(6) 0.04360(12) 0.83442(8)
O6_3 O 0.11673(7) 0.10862(14) 0.78774(9)
O7_3 O 0.07474(7) 0.14451(13) 0.70450(8)
O8_3 O 0.08687(7) 0.26092(13) 0.78090(9)
O9_3 O 0.02159(7) 0.28733(13) 0.73433(8)
N3_3 N 0.17025(10) 0.1624(2) 0.70208(13)
N4_3 N 0.07556(10) 0.37440(19) 0.65926(13)
C15_3 C 0.07119(10) 0.02591(18) 0.86371(12)
C46_3 C 0.02812(14) 0.2769(2) 0.59343(18)
H37_3 H 0.0324 0.2411 0.6168
C47_3 C 0.00127(15) 0.2633(3) 0.54009(19)
C49_3 C 0.01599(14) 0.3836(2) 0.52190(17)
H40_3 H 0.0124 0.4182 0.4984
C50_2 C 0.07713(13) 0.5317(2) 0.59312(17)
H41_2 H 0.0653 0.5434 0.5592
C51_2 C 0.10337(15) 0.5811(3) 0.63203(19)
H42_2 H 0.1090 0.6272 0.6244
C52_2 C 0.12177(15) 0.5631(3) 0.6830(2)
H43_2 H 0.1398 0.5976 0.7088
C53_3 C 0.11424(13) 0.4963(3) 0.69663(18)
H44_3 H 0.1264 0.4854 0.7308
C54_3 C 0.04796(12) 0.3464(2) 0.60961(15)
C55_3 C 0.04286(12) 0.3998(2) 0.57454(15)
C56_3 C 0.06832(11) 0.4633(2) 0.60507(15)
C57_3 C 0.08747(12) 0.4458(2) 0.65685(16)
C58_3 C 0.08589(13) 0.3371(3) 0.70503(16)
H45_3 H 0.0874 0.2827 0.7020
H46_3 H 0.1122 0.3544 0.7352
C59_3 C 0.05568(12) 0.3532(2) 0.71229(16)
H47_3 H 0.0611 0.4031 0.7278
H48_3 H 0.0290 0.3547 0.6787
C60_3 C 0.05568(10) 0.29555(19) 0.74575(13)
C61_3 C 0.15137(13) 0.2930(3) 0.66275(16)
H49_3 H 0.1282 0.2972 0.6590
C62_3 C 0.16329(14) 0.3509(3) 0.64757(17)
H50_3 H 0.1480 0.3951 0.6336
C63_3 C 0.19803(14) 0.3445(3) 0.65278(18)
H51_3 H 0.2051 0.3839 0.6416
C64_3 C 0.22187(13) 0.2803(3) 0.67439(17)
H52_3 H 0.2450 0.2765 0.6779
C65_3 C 0.26332(14) 0.1099(3) 0.7319(2)
H53_3 H 0.2807 0.1311 0.7276
C66_3 C 0.27141(16) 0.0402(3) 0.7548(2)
H54_3 H 0.2946 0.0144 0.7664
C67_3 C 0.24535(17) 0.0071(3) 0.7611(2)
C68_3 C 0.21094(14) 0.0440(3) 0.74460(19)
H56_3 H 0.1935 0.0220 0.7487
C69_3 C 0.17531(12) 0.2277(2) 0.68390(15)
C70_3 C 0.21113(12) 0.2215(2) 0.69078(16)
C71_3 C 0.22844(12) 0.1487(2) 0.71502(16)
C72_3 C 0.20279(12) 0.1142(2) 0.72190(16)
C73_3 C 0.13576(11) 0.1432(3) 0.69841(15)
H57_3 H 0.1134 0.1762 0.6733
H58_3 H 0.1277 0.0913 0.6864
C74_3 C 0.14506(10) 0.1514(2) 0.75028(14)
H59_3 H 0.1535 0.2032 0.7625
H60_3 H 0.1672 0.1180 0.7752
C75_3 C 0.10924(10) 0.13265(19) 0.74706(12)
O12_3 O 0.02909(6) 0.12723(12) 0.74924(8)
O21_3 O 0.02310(7) 0.19043(13) 0.86794(8)
O22_3 O 0.05315(7) 0.21200(12) 0.83416(8)
H95_3 H 0.2444 0.0447 0.9104
H96_3 H 0.1799 0.0115 0.8371
C131_2 C 0.08037(19) 0.5374(3) 0.9952(3)
H106_2 H 0.0752 0.5891 0.9939
C132_3 C 0.04961(17) 0.4893(3) 0.9592(2)
H107_2 H 0.0237 0.5086 0.9353
C133_3 C 0.05644(14) 0.4128(3) 0.95775(19)
H108_3 H 0.0357 0.3808 0.9328
C137_3 C 0.09493(13) 0.3857(2) 0.99452(15)
C138_3 C 0.08666(12) 0.2510(2) 0.96409(13)
H109_3 H 0.0992 0.2025 0.9803
H110_3 H 0.0598 0.2508 0.9533
C139_3 C 0.08403(12) 0.2613(3) 0.91706(14)
H111_3 H 0.1096 0.2466 0.9264
H112_3 H 0.0799 0.3148 0.9081
C140_3 C 0.05093(10) 0.21631(18) 0.86996(12)
H114_3 H 0.0126 0.2174 0.9721
C143_3 C 0.00515(15) 0.3166(3) 0.99505(19)
C5_3 C 0.09941(14) 0.7387(2) 0.02228(17)
H5_3 H 0.1163 0.6991 0.0437
C6_3 C 0.07841(16) 0.7790(3) 0.03305(18)
H6_3 H 0.0810 0.7662 0.0618
C7_3 C 0.05369(16) 0.8381(3) 0.0021(2)
H7_3 H 0.0396 0.8640 0.0102
N1_3 N 0.06938(10) 0.82751(17) 0.90629(12)
C1_3 C 0.10437(19) 0.7591(3) 0.8794(2)
H1_3 H 0.0940 0.7891 0.8506
C2_3 C 0.1296(2) 0.7004(4) 0.8918(3)
H2_3 H 0.1369 0.6910 0.8716
C3_3 C 0.1447(2) 0.6538(4) 0.9344(3)
H3_3 H 0.1614 0.6133 0.9417
C4_3 C 0.13526(18) 0.6672(3) 0.9652(2)
H4_3 H 0.1453 0.6358 0.9933
C8_3 C 0.04909(14) 0.8603(2) 0.95909(18)
H8_3 H 0.0327 0.9010 0.9388
C9_3 C 0.09448(14) 0.7732(2) 0.91059(18)
C10_3 C 0.11046(14) 0.7283(2) 0.95453(18)
C11_3 C 0.09502(12) 0.7581(2) 0.97841(16)
C12_3 C 0.06997(12) 0.8192(2) 0.94751(15)
C13_3 C 0.05386(12) 0.8939(2) 0.87270(14)
H9_3 H 0.0490 0.8811 0.8411
H10_3 H 0.0285 0.9093 0.8637
C14_3 C 0.08393(11) 0.9597(2) 0.89968(13)
H11_3 H 0.1102 0.9420 0.9126
H12_3 H 0.0862 0.9764 0.9289
H55_3 H 0.2514 0.9596 0.7766
O15_3 O 0.03669(6) 0.96688(12) 0.76388(8)
O16_3 O 0.05019(7) 0.99302(13) 0.71138(9)
N11_3 N 0.15659(12) 0.8640(2) 0.80300(16)
C111_3 C 0.13351(18) 0.7299(3) 0.7792(2)
H89_3 H 0.1069 0.7416 0.7514
C112_3 C 0.1466(2) 0.6529(3) 0.7937(3)
H90_3 H 0.1283 0.6134 0.7758
C113_3 C 0.1864(2) 0.6370(3) 0.8343(3)
H91_3 H 0.1947 0.5868 0.8438
C114_3 C 0.2134(2) 0.6935(3) 0.8604(3)
H92_3 H 0.2404 0.6818 0.8865
C115_3 C 0.26022(17) 0.8632(4) 0.9147(3)
H93_3 H 0.2805 0.8271 0.9339
C116_3 C 0.26808(18) 0.9388(4) 0.9282(3)
H94_3 H 0.2939 0.9533 0.9569
C117_3 C 0.23828(19) 0.9942(4) 0.8999(3)
C118_3 C 0.19981(17) 0.9749(3) 0.8566(2)
C119_3 C 0.16187(15) 0.7859(3) 0.8079(2)
C120_3 C 0.20149(16) 0.7692(3) 0.8489(2)
C121_3 C 0.22118(16) 0.8414(3) 0.8716(2)
C122_3 C 0.19221(15) 0.8992(3) 0.8433(2)
C123_3 C 0.11808(14) 0.9032(3) 0.76532(19)
H97_3 H 0.1232 0.9534 0.7588
H98_3 H 0.1023 0.8752 0.7331
C124_3 C 0.09435(12) 0.9106(2) 0.78366(16)
H99_3 H 0.0861 0.8604 0.7856
H100_3 H 0.1116 0.9320 0.8181
C125_3 C 0.05737(10) 0.96017(19) 0.74895(13)
Mn1_5 Mn 1.0000 0.04782(4) 0.7500
Mn2_5 Mn 1.0000 0.20704(4) 0.7500
O1_3 O 0.97091(6) 0.12723(12) 0.75076(8)
O10_3 O 0.97690(7) 0.19043(13) 0.63206(8)
O11_3 O 0.94685(7) 0.21200(12) 0.66584(8)
N5_3 N 0.88996(10) 0.31185(19) 0.49896(12)
H19_3 H 0.7556 0.0447 0.5896
H20_3 H 0.8201 0.0115 0.6629
C31_3 C 0.82258(16) 0.2539(3) 0.4417(2)
H25_3 H 0.8303 0.2066 0.4578
C32_3 C 0.78223(18) 0.2698(4) 0.3984(3)
H26_3 H 0.7626 0.2326 0.3857
C33_3 C 0.77128(19) 0.3419(4) 0.3739(3)
H27_3 H 0.7448 0.3501 0.3445
C34_3 C 0.79842(18) 0.3994(4) 0.3922(2)
H28_3 H 0.7905 0.4463 0.3758
C35_2 C 0.88096(18) 0.5099(3) 0.4665(2)
H29_2 H 0.8605 0.5420 0.4412
C36_2 C 0.91963(19) 0.5374(3) 0.5048(3)
H30_2 H 0.9248 0.5891 0.5061
C37_3 C 0.95039(17) 0.4893(3) 0.5408(2)
H31_2 H 0.9763 0.5086 0.5647
C38_3 C 0.94356(14) 0.4128(3) 0.54225(19)
H32_3 H 0.9643 0.3808 0.5672
C39_3 C 0.84986(13) 0.3122(3) 0.45896(16)
C40_3 C 0.83875(15) 0.3866(3) 0.43646(16)
C41_3 C 0.87370(14) 0.4331(3) 0.46718(17)
C42_3 C 0.90507(13) 0.3857(2) 0.50548(15)
C43_3 C 0.91334(12) 0.2510(2) 0.53591(13)
H33_3 H 0.9008 0.2025 0.5197
H34_3 H 0.9402 0.2508 0.5467
C44_3 C 0.91597(12) 0.2613(3) 0.58294(14)
H35_3 H 0.8904 0.2466 0.5736
H36_3 H 0.9201 0.3148 0.5919
C45_3 C 0.94907(10) 0.21631(18) 0.63004(12)
H38_3 H 0.9874 0.2174 0.5279
C48_3 C 0.99485(15) 0.3166(3) 0.50495(19)
H39_3 H 0.9761 0.3067 0.4698
O13_3 O 0.90319(7) 0.05862(13) 0.63631(8)
O14_3 O 0.96599(6) 0.04360(12) 0.66558(8)
O17_3 O 0.88327(7) 0.10862(14) 0.71226(9)
O18_3 O 0.92526(7) 0.14451(13) 0.79550(8)
O19_3 O 0.91313(7) 0.26092(13) 0.71910(9)
O20_3 O 0.97841(7) 0.28733(13) 0.76567(8)
N12_3 N 0.82975(10) 0.1624(2) 0.79792(13)
N13_3 N 0.92444(10) 0.37440(19) 0.84074(13)
C110_3 C 0.92881(10) 0.02591(18) 0.63629(12)
C141_3 C 0.97188(14) 0.2769(2) 0.90657(18)
H113_3 H 0.9676 0.2411 0.8832
C142_3 C 0.99873(15) 0.2633(3) 0.95991(19)
C144_3 C 0.98401(14) 0.3836(2) 0.97810(17)
C145_2 C 0.92287(13) 0.5317(2) 0.90688(17)
H117_2 H 0.9347 0.5434 0.9408
C146_2 C 0.89663(15) 0.5811(3) 0.86797(19)
H118_2 H 0.8910 0.6272 0.8756
C147_2 C 0.87823(15) 0.5631(3) 0.8170(2)
H119_2 H 0.8602 0.5976 0.7912
C148_3 C 0.88576(13) 0.4963(3) 0.80337(18)
H120_3 H 0.8736 0.4854 0.7692
C149_3 C 0.95204(12) 0.3464(2) 0.89039(15)
C150_3 C 0.95714(12) 0.3998(2) 0.92546(15)
C151_3 C 0.93168(11) 0.4633(2) 0.89493(15)
C152_3 C 0.91253(12) 0.4458(2) 0.84315(16)
C153_3 C 0.91411(13) 0.3371(3) 0.79497(16)
H121_3 H 0.9126 0.2827 0.7980
H122_3 H 0.8878 0.3544 0.7648
C154_3 C 0.94432(12) 0.3532(2) 0.78771(16)
H123_3 H 0.9389 0.4031 0.7722
H124_3 H 0.9710 0.3547 0.8213
C155_3 C 0.94432(10) 0.29555(19) 0.75425(13)
C156_3 C 0.84863(13) 0.2930(3) 0.83725(16)
H125_3 H 0.8718 0.2972 0.8410
C157_3 C 0.83671(14) 0.3509(3) 0.85243(17)
H126_3 H 0.8520 0.3951 0.8664
C158_3 C 0.80197(14) 0.3445(3) 0.84722(18)
H127_3 H 0.7949 0.3839 0.8584
C159_3 C 0.77813(13) 0.2803(3) 0.82561(17)
H128_3 H 0.7550 0.2765 0.8221
C160_3 C 0.73668(14) 0.1099(3) 0.7681(2)
H129_3 H 0.7193 0.1311 0.7724
C161_3 C 0.72859(16) 0.0402(3) 0.7452(2)
H130_3 H 0.7054 0.0144 0.7336
C162_3 C 0.75465(17) 0.0071(3) 0.7389(2)
C163_3 C 0.78906(14) 0.0440(3) 0.75540(19)
H132_3 H 0.8065 0.0220 0.7513
C164_3 C 0.82469(12) 0.2277(2) 0.81610(15)
C165_3 C 0.78887(12) 0.2215(2) 0.80922(16)
C166_3 C 0.77156(12) 0.1487(2) 0.78498(16)
C167_3 C 0.79721(12) 0.1142(2) 0.77810(16)
C168_3 C 0.86424(11) 0.1432(3) 0.80159(15)
H133_3 H 0.8866 0.1762 0.8267
H134_3 H 0.8723 0.0913 0.8136
C169_3 C 0.85494(10) 0.1514(2) 0.74972(14)
H135_3 H 0.8465 0.2032 0.7375
H136_3 H 0.8328 0.1180 0.7248
C170_3 C 0.89076(10) 0.13265(19) 0.75294(12)
O4_3 O 0.96331(6) 0.96688(12) 0.73612(8)
O5_3 O 0.94981(7) 0.99302(13) 0.78862(9)
N2_3 N 0.84341(12) 0.8640(2) 0.69700(16)
C16_3 C 0.86649(18) 0.7299(3) 0.7208(2)
H13_3 H 0.8931 0.7416 0.7486
C17_3 C 0.8534(2) 0.6529(3) 0.7063(3)
H14_3 H 0.8717 0.6134 0.7242
C18_3 C 0.8136(2) 0.6370(3) 0.6657(3)
H15_3 H 0.8053 0.5868 0.6562
C19_3 C 0.7866(2) 0.6935(3) 0.6396(3)
H16_3 H 0.7596 0.6818 0.6135
C20_3 C 0.73978(17) 0.8632(4) 0.5853(3)
H17_3 H 0.7195 0.8271 0.5661
C21_3 C 0.73192(18) 0.9388(4) 0.5718(3)
H18_3 H 0.7061 0.9533 0.5431
C22_3 C 0.76172(19) 0.9942(4) 0.6001(3)
C23_3 C 0.80019(17) 0.9749(3) 0.6434(2)
C24_3 C 0.83813(15) 0.7859(3) 0.6921(2)
C25_3 C 0.79851(16) 0.7692(3) 0.6511(2)
C26_3 C 0.77882(16) 0.8414(3) 0.6284(2)
C27_3 C 0.80779(15) 0.8992(3) 0.6567(2)
C28_3 C 0.88192(14) 0.9032(3) 0.73468(19)
H21_3 H 0.8768 0.9534 0.7412
H22_3 H 0.8977 0.8752 0.7669
C29_3 C 0.90565(12) 0.9106(2) 0.71634(16)
H23_3 H 0.9139 0.8604 0.7144
H24_3 H 0.8884 0.9320 0.6819
C30_3 C 0.94263(10) 0.96017(19) 0.75105(13)
N10_3 N 0.93062(10) 0.82751(17) 0.59371(12)
C96_3 C 0.89563(19) 0.7591(3) 0.6206(2)
H77_3 H 0.9060 0.7891 0.6494
C97_3 C 0.8704(2) 0.7004(4) 0.6082(3)
H78_3 H 0.8631 0.6910 0.6284
C98_3 C 0.8553(2) 0.6538(4) 0.5656(3)
H79_3 H 0.8386 0.6133 0.5583
C99_3 C 0.86474(18) 0.6672(3) 0.5348(2)
H80_3 H 0.8547 0.6358 0.5067
C100_3 C 0.90059(14) 0.7387(2) 0.47772(17)
H81_3 H 0.8837 0.6991 0.4563
C101_3 C 0.92159(16) 0.7790(3) 0.46695(18)
H82_3 H 0.9190 0.7662 0.4382
C102_3 C 0.94631(16) 0.8381(3) 0.4979(2)
H83_3 H 0.9604 0.8640 0.4898
C103_3 C 0.95091(14) 0.8603(2) 0.54091(18)
H84_3 H 0.9673 0.9010 0.5612
C104_3 C 0.90552(14) 0.7732(2) 0.58941(18)
C105_3 C 0.88954(14) 0.7283(2) 0.54547(18)
C106_3 C 0.90498(12) 0.7581(2) 0.52159(16)
C107_3 C 0.93003(12) 0.8192(2) 0.55249(15)
C108_3 C 0.94614(12) 0.8939(2) 0.62730(14)
H85_3 H 0.9510 0.8811 0.6589
H86_3 H 0.9715 0.9093 0.6363
C109_3 C 0.91607(11) 0.9597(2) 0.60032(13)
H87_3 H 0.8898 0.9420 0.5874
H88_3 H 0.9138 0.9764 0.5711
H131_3 H 0.7486 0.9596 0.7234
C5_4 C 0.59941(14) 0.2387(2) 0.02228(17)
H5_4 H 0.6163 0.1991 0.0437
C6_4 C 0.57841(16) 0.2790(3) 0.03305(18)
H6_4 H 0.5810 0.2662 0.0618
C7_4 C 0.55369(16) 0.3381(3) 0.0021(2)
H7_4 H 0.5396 0.3640 0.0102
N14_4 N 0.61004(10) 0.81185(19) 0.00104(12)
C126_4 C 0.67742(16) 0.7539(3) 0.0583(2)
H101_4 H 0.6697 0.7066 0.0422
C127_4 C 0.71777(18) 0.7698(4) 0.1016(3)
H102_4 H 0.7374 0.7326 0.1143
C128_4 C 0.72872(19) 0.8419(4) 0.1261(3)
H103_4 H 0.7552 0.8501 0.1555
C129_4 C 0.70158(18) 0.8994(4) 0.1078(2)
H104_4 H 0.7095 0.9463 0.1242
C134_4 C 0.65014(13) 0.8122(3) 0.04104(16)
C135_4 C 0.66125(15) 0.8866(3) 0.06354(16)
C136_4 C 0.62630(14) 0.9331(3) 0.03282(17)
H115_4 H 0.5239 0.8067 0.0302
H116_2 H 0.4876 0.9182 0.0016
Mn1_6 Mn 0.5000 0.54782(4) 0.7500
Mn2_6 Mn 0.5000 0.70704(4) 0.7500
O1_4 O 0.47091(6) 0.62723(12) 0.75076(8)
O2_4 O 0.59681(7) 0.55862(13) 0.86369(8)
O3_4 O 0.53401(6) 0.54360(12) 0.83442(8)
O4_4 O 0.46331(6) 0.46688(12) 0.73612(8)
O5_4 O 0.44981(7) 0.49302(13) 0.78862(9)
O6_4 O 0.61673(7) 0.60862(14) 0.78774(9)
O7_4 O 0.57474(7) 0.64451(13) 0.70450(8)
O8_4 O 0.58687(7) 0.76092(13) 0.78090(9)
O9_4 O 0.52159(7) 0.78733(13) 0.73433(8)
O10_4 O 0.47690(7) 0.69043(13) 0.63206(8)
O11_4 O 0.44685(7) 0.71200(12) 0.66584(8)
N1_4 N 0.56938(10) 0.32751(17) 0.90629(12)
N2_4 N 0.34341(12) 0.3640(2) 0.69700(16)
N3_4 N 0.67025(10) 0.6624(2) 0.70208(13)
N4_4 N 0.57556(10) 0.87440(19) 0.65926(13)
N5_4 N 0.38996(10) 0.81185(19) 0.49896(12)
C1_4 C 0.60437(19) 0.2591(3) 0.8794(2)
H1_4 H 0.5940 0.2891 0.8506
C2_4 C 0.6296(2) 0.2004(4) 0.8918(3)
H2_4 H 0.6369 0.1910 0.8716
C3_4 C 0.6447(2) 0.1538(4) 0.9344(3)
H3_4 H 0.6614 0.1133 0.9417
C4_4 C 0.63526(18) 0.1672(3) 0.9652(2)
H4_4 H 0.6453 0.1358 0.9933
C8_4 C 0.54909(14) 0.3603(2) 0.95909(18)
H8_4 H 0.5327 0.4010 0.9388
C9_4 C 0.59448(14) 0.2732(2) 0.91059(18)
C10_4 C 0.61046(14) 0.2283(2) 0.95453(18)
C11_4 C 0.59502(12) 0.2581(2) 0.97841(16)
C12_4 C 0.56997(12) 0.3192(2) 0.94751(15)
C13_4 C 0.55386(12) 0.3939(2) 0.87270(14)
H9_4 H 0.5490 0.3811 0.8411
H10_4 H 0.5285 0.4093 0.8637
C14_4 C 0.58393(11) 0.4597(2) 0.89968(13)
H11_4 H 0.6102 0.4420 0.9126
H12_4 H 0.5862 0.4764 0.9289
C15_4 C 0.57119(10) 0.52591(18) 0.86371(12)
C16_4 C 0.36649(18) 0.2299(3) 0.7208(2)
H13_4 H 0.3931 0.2416 0.7486
C17_4 C 0.3534(2) 0.1529(3) 0.7063(3)
H14_4 H 0.3717 0.1134 0.7242
C18_4 C 0.3136(2) 0.1370(3) 0.6657(3)
H15_4 H 0.3053 0.0868 0.6562
C19_4 C 0.2866(2) 0.1935(3) 0.6396(3)
H16_4 H 0.2596 0.1818 0.6135
C20_4 C 0.23978(17) 0.3632(4) 0.5853(3)
H17_4 H 0.2195 0.3271 0.5661
C21_4 C 0.23192(18) 0.4388(4) 0.5718(3)
H18_4 H 0.2061 0.4533 0.5431
C22_4 C 0.26172(19) 0.4942(4) 0.6001(3)
H19_4 H 0.2556 0.5447 0.5896
C23_4 C 0.30019(17) 0.4749(3) 0.6434(2)
H20_4 H 0.3201 0.5115 0.6629
C24_4 C 0.33813(15) 0.2859(3) 0.6921(2)
C25_4 C 0.29851(16) 0.2692(3) 0.6511(2)
C26_4 C 0.27882(16) 0.3414(3) 0.6284(2)
C27_4 C 0.30779(15) 0.3992(3) 0.6567(2)
C28_4 C 0.38192(14) 0.4032(3) 0.73468(19)
H21_4 H 0.3768 0.4534 0.7412
H22_4 H 0.3977 0.3752 0.7669
C29_4 C 0.40565(12) 0.4106(2) 0.71634(16)
H23_4 H 0.4139 0.3604 0.7144
H24_4 H 0.3884 0.4320 0.6819
C30_4 C 0.44263(10) 0.46017(19) 0.75105(13)
C31_4 C 0.32258(16) 0.7539(3) 0.4417(2)
H25_4 H 0.3303 0.7066 0.4578
C32_4 C 0.28223(18) 0.7698(4) 0.3984(3)
H26_4 H 0.2626 0.7326 0.3857
C33_4 C 0.27128(19) 0.8419(4) 0.3739(3)
H27_4 H 0.2448 0.8501 0.3445
C34_4 C 0.29842(18) 0.8994(4) 0.3922(2)
H28_4 H 0.2905 0.9463 0.3758
C37_4 C 0.45039(17) 0.9893(3) 0.5408(2)
C38_4 C 0.44356(14) 0.9128(3) 0.54225(19)
H32_4 H 0.4643 0.8808 0.5672
C39_4 C 0.34986(13) 0.8122(3) 0.45896(16)
C40_4 C 0.33875(15) 0.8866(3) 0.43646(16)
C41_4 C 0.37370(14) 0.9331(3) 0.46718(17)
C42_4 C 0.40507(13) 0.8857(2) 0.50548(15)
C43_4 C 0.41334(12) 0.7510(2) 0.53591(13)
H33_4 H 0.4008 0.7025 0.5197
H34_4 H 0.4402 0.7508 0.5467
C44_4 C 0.41597(12) 0.7613(3) 0.58294(14)
H35_4 H 0.3904 0.7466 0.5736
H36_4 H 0.4201 0.8148 0.5919
C45_4 C 0.44907(10) 0.71631(18) 0.63004(12)
C46_4 C 0.52812(14) 0.7769(2) 0.59343(18)
H37_4 H 0.5324 0.7411 0.6168
C47_4 C 0.50127(15) 0.7633(3) 0.54009(19)
H38_4 H 0.4874 0.7174 0.5279
C48_4 C 0.49485(15) 0.8166(3) 0.50495(19)
H39_4 H 0.4761 0.8067 0.4698
C49_4 C 0.51599(14) 0.8836(2) 0.52190(17)
H40_4 H 0.5124 0.9182 0.4984
C53_4 C 0.61424(13) 0.9963(3) 0.69663(18)
H44_4 H 0.6264 0.9854 0.7308
C54_4 C 0.54796(12) 0.8464(2) 0.60961(15)
C55_4 C 0.54286(12) 0.8998(2) 0.57454(15)
C56_4 C 0.56832(11) 0.9633(2) 0.60507(15)
C57_4 C 0.58747(12) 0.9458(2) 0.65685(16)
C58_4 C 0.58589(13) 0.8371(3) 0.70503(16)
H45_4 H 0.5874 0.7827 0.7020
H46_4 H 0.6122 0.8544 0.7352
C59_4 C 0.55568(12) 0.8532(2) 0.71229(16)
H47_4 H 0.5611 0.9031 0.7278
H48_4 H 0.5290 0.8547 0.6787
C60_4 C 0.55568(10) 0.79555(19) 0.74575(13)
C61_4 C 0.65137(13) 0.7930(3) 0.66275(16)
H49_4 H 0.6282 0.7972 0.6590
C62_4 C 0.66329(14) 0.8509(3) 0.64757(17)
H50_4 H 0.6480 0.8951 0.6336
C63_4 C 0.69803(14) 0.8445(3) 0.65278(18)
H51_4 H 0.7051 0.8839 0.6416
C64_4 C 0.72187(13) 0.7803(3) 0.67439(17)
H52_4 H 0.7450 0.7765 0.6779
C65_4 C 0.76332(14) 0.6099(3) 0.7319(2)
H53_4 H 0.7807 0.6311 0.7276
C66_4 C 0.77141(16) 0.5402(3) 0.7548(2)
H54_4 H 0.7946 0.5144 0.7664
C67_4 C 0.74535(17) 0.5071(3) 0.7611(2)
H55_4 H 0.7514 0.4596 0.7766
C68_4 C 0.71094(14) 0.5440(3) 0.74460(19)
H56_4 H 0.6935 0.5220 0.7487
C69_4 C 0.67531(12) 0.7277(2) 0.68390(15)
C70_4 C 0.71113(12) 0.7215(2) 0.69078(16)
C71_4 C 0.72844(12) 0.6487(2) 0.71502(16)
C72_4 C 0.70279(12) 0.6142(2) 0.72190(16)
C73_4 C 0.63576(11) 0.6432(3) 0.69841(15)
H57_4 H 0.6134 0.6762 0.6733
H58_4 H 0.6277 0.5913 0.6864
C74_4 C 0.64506(10) 0.6514(2) 0.75028(14)
H59_4 H 0.6535 0.7032 0.7625
H60_4 H 0.6672 0.6180 0.7752
C75_4 C 0.60924(10) 0.63265(19) 0.74706(12)
O12_4 O 0.52909(6) 0.62723(12) 0.74924(8)
O13_4 O 0.40319(7) 0.55862(13) 0.63631(8)
O14_4 O 0.46599(6) 0.54360(12) 0.66558(8)
O15_4 O 0.53669(6) 0.46688(12) 0.76388(8)
O16_4 O 0.55019(7) 0.49302(13) 0.71138(9)
O17_4 O 0.38327(7) 0.60862(14) 0.71226(9)
O18_4 O 0.42526(7) 0.64451(13) 0.79550(8)
O19_4 O 0.41313(7) 0.76092(13) 0.71910(9)
O20_4 O 0.47841(7) 0.78733(13) 0.76567(8)
O21_4 O 0.52310(7) 0.69043(13) 0.86794(8)
O22_4 O 0.55315(7) 0.71200(12) 0.83416(8)
N10_4 N 0.43062(10) 0.32751(17) 0.59371(12)
N11_4 N 0.65659(12) 0.3640(2) 0.80300(16)
N12_4 N 0.32975(10) 0.6624(2) 0.79792(13)
N13_4 N 0.42444(10) 0.87440(19) 0.84074(13)
C96_4 C 0.39563(19) 0.2591(3) 0.6206(2)
H77_4 H 0.4060 0.2891 0.6494
C97_4 C 0.3704(2) 0.2004(4) 0.6082(3)
H78_4 H 0.3631 0.1910 0.6284
C98_4 C 0.3553(2) 0.1538(4) 0.5656(3)
H79_4 H 0.3386 0.1133 0.5583
C99_4 C 0.36474(18) 0.1672(3) 0.5348(2)
H80_4 H 0.3547 0.1358 0.5067
C100_4 C 0.40059(14) 0.2387(2) 0.47772(17)
H81_4 H 0.3837 0.1991 0.4563
C101_4 C 0.42159(16) 0.2790(3) 0.46695(18)
H82_4 H 0.4190 0.2662 0.4382
C102_4 C 0.44631(16) 0.3381(3) 0.4979(2)
H83_4 H 0.4604 0.3640 0.4898
C103_4 C 0.45091(14) 0.3603(2) 0.54091(18)
H84_4 H 0.4673 0.4010 0.5612
C104_4 C 0.40552(14) 0.2732(2) 0.58941(18)
C105_4 C 0.38954(14) 0.2283(2) 0.54547(18)
C106_4 C 0.40498(12) 0.2581(2) 0.52159(16)
C107_4 C 0.43003(12) 0.3192(2) 0.55249(15)
C108_4 C 0.44614(12) 0.3939(2) 0.62730(14)
H85_4 H 0.4510 0.3811 0.6589
H86_4 H 0.4715 0.4093 0.6363
C109_4 C 0.41607(11) 0.4597(2) 0.60032(13)
H87_4 H 0.3898 0.4420 0.5874
H88_4 H 0.4138 0.4764 0.5711
C110_4 C 0.42881(10) 0.52591(18) 0.63629(12)
C111_4 C 0.63351(18) 0.2299(3) 0.7792(2)
H89_4 H 0.6069 0.2416 0.7514
C112_4 C 0.6466(2) 0.1529(3) 0.7937(3)
H90_4 H 0.6283 0.1134 0.7758
C113_4 C 0.6864(2) 0.1370(3) 0.8343(3)
H91_4 H 0.6947 0.0868 0.8438
C114_4 C 0.7134(2) 0.1935(3) 0.8604(3)
H92_4 H 0.7404 0.1818 0.8865
C115_4 C 0.76022(17) 0.3632(4) 0.9147(3)
H93_4 H 0.7805 0.3271 0.9339
C116_4 C 0.76808(18) 0.4388(4) 0.9282(3)
H94_4 H 0.7939 0.4533 0.9569
C117_4 C 0.73828(19) 0.4942(4) 0.8999(3)
H95_4 H 0.7444 0.5447 0.9104
C118_4 C 0.69981(17) 0.4749(3) 0.8566(2)
H96_4 H 0.6799 0.5115 0.8371
C119_4 C 0.66187(15) 0.2859(3) 0.8079(2)
C120_4 C 0.70149(16) 0.2692(3) 0.8489(2)
C121_4 C 0.72118(16) 0.3414(3) 0.8716(2)
C122_4 C 0.69221(15) 0.3992(3) 0.8433(2)
C123_4 C 0.61808(14) 0.4032(3) 0.76532(19)
H97_4 H 0.6232 0.4534 0.7588
H98_4 H 0.6023 0.3752 0.7331
C124_4 C 0.59435(12) 0.4106(2) 0.78366(16)
H99_4 H 0.5861 0.3604 0.7856
H100_4 H 0.6116 0.4320 0.8181
C125_4 C 0.55737(10) 0.46017(19) 0.74895(13)
C132_4 C 0.54961(17) 0.9893(3) 0.9592(2)
C133_4 C 0.55644(14) 0.9128(3) 0.95775(19)
H108_4 H 0.5357 0.8808 0.9328
C137_4 C 0.59493(13) 0.8857(2) 0.99452(15)
C138_4 C 0.58666(12) 0.7510(2) 0.96409(13)
H109_4 H 0.5992 0.7025 0.9803
H110_4 H 0.5598 0.7508 0.9533
C139_4 C 0.58403(12) 0.7613(3) 0.91706(14)
H111_4 H 0.6096 0.7466 0.9264
H112_4 H 0.5799 0.8148 0.9081
C140_4 C 0.55093(10) 0.71631(18) 0.86996(12)
C141_4 C 0.47188(14) 0.7769(2) 0.90657(18)
H113_4 H 0.4676 0.7411 0.8832
C142_4 C 0.49873(15) 0.7633(3) 0.95991(19)
H114_4 H 0.5126 0.7174 0.9721
C143_4 C 0.50515(15) 0.8166(3) 0.99505(19)
C144_4 C 0.48401(14) 0.8836(2) 0.97810(17)
C148_4 C 0.38576(13) 0.9963(3) 0.80337(18)
H120_4 H 0.3736 0.9854 0.7692
C149_4 C 0.45204(12) 0.8464(2) 0.89039(15)
C150_4 C 0.45714(12) 0.8998(2) 0.92546(15)
C151_4 C 0.43168(11) 0.9633(2) 0.89493(15)
C152_4 C 0.41253(12) 0.9458(2) 0.84315(16)
C153_4 C 0.41411(13) 0.8371(3) 0.79497(16)
H121_4 H 0.4126 0.7827 0.7980
H122_4 H 0.3878 0.8544 0.7648
C154_4 C 0.44432(12) 0.8532(2) 0.78771(16)
H123_4 H 0.4389 0.9031 0.7722
H124_4 H 0.4710 0.8547 0.8213
C155_4 C 0.44432(10) 0.79555(19) 0.75425(13)
C156_4 C 0.34863(13) 0.7930(3) 0.83725(16)
H125_4 H 0.3718 0.7972 0.8410
C157_4 C 0.33671(14) 0.8509(3) 0.85243(17)
H126_4 H 0.3520 0.8951 0.8664
C158_4 C 0.30197(14) 0.8445(3) 0.84722(18)
H127_4 H 0.2949 0.8839 0.8584
C159_4 C 0.27813(13) 0.7803(3) 0.82561(17)
H128_4 H 0.2550 0.7765 0.8221
C160_4 C 0.23668(14) 0.6099(3) 0.7681(2)
H129_4 H 0.2193 0.6311 0.7724
C161_4 C 0.22859(16) 0.5402(3) 0.7452(2)
H130_4 H 0.2054 0.5144 0.7336
C162_4 C 0.25465(17) 0.5071(3) 0.7389(2)
H131_4 H 0.2486 0.4596 0.7234
C163_4 C 0.28906(14) 0.5440(3) 0.75540(19)
H132_4 H 0.3065 0.5220 0.7513
C164_4 C 0.32469(12) 0.7277(2) 0.81610(15)
C165_4 C 0.28887(12) 0.7215(2) 0.80922(16)
C166_4 C 0.27156(12) 0.6487(2) 0.78498(16)
C167_4 C 0.29721(12) 0.6142(2) 0.77810(16)
C168_4 C 0.36424(11) 0.6432(3) 0.80159(15)
H133_4 H 0.3866 0.6762 0.8267
H134_4 H 0.3723 0.5913 0.8136
C169_4 C 0.35494(10) 0.6514(2) 0.74972(14)
H135_4 H 0.3465 0.7032 0.7375
H136_4 H 0.3328 0.6180 0.7248
C170_4 C 0.39076(10) 0.63265(19) 0.75294(12)
H116_3 H 0.0124 0.5818 0.9984
C35_3 C 0.61904(18) 0.9901(3) 0.5335(2)
H29_3 H 0.6395 0.9580 0.5588
C36_3 C 0.58037(19) 0.9626(3) 0.4952(3)
H30_3 H 0.5752 0.9109 0.4939
H31_3 H 0.5237 0.9914 0.4353
C50_3 C 0.42287(13) 0.9683(2) 0.40688(17)
H41_3 H 0.4347 0.9566 0.4408
C51_3 C 0.39663(15) 0.9189(3) 0.36797(19)
H42_3 H 0.3910 0.8728 0.3756
C52_3 C 0.37823(15) 0.9369(3) 0.3170(2)
H43_3 H 0.3602 0.9024 0.2912
C131_3 C 0.41963(19) 0.9626(3) 0.0048(3)
H106_3 H 0.4248 0.9109 0.0061
H107_3 H 0.4763 0.9914 0.0647
C145_3 C 0.57713(13) 0.9683(2) 0.09312(17)
H117_3 H 0.5653 0.9566 0.0592
C146_3 C 0.60337(15) 0.9189(3) 0.13203(19)
H118_3 H 0.6090 0.8728 0.1244
C147_3 C 0.62177(15) 0.9369(3) 0.1830(2)
H119_3 H 0.6398 0.9024 0.2088
C130_3 C 0.38096(18) 0.9901(3) 0.9665(2)
H105_3 H 0.3605 0.9580 0.9412
H116_4 H 0.9876 0.4182 0.0016
C130_4 C 0.61904(18) 0.0099(3) 0.0335(2)
H105_4 H 0.6395 0.0420 0.0588
C35_4 C 0.38096(18) 0.0099(3) 0.4665(2)
H29_4 H 0.3605 0.0420 0.4412
C36_4 C 0.41963(19) 0.0374(3) 0.5048(3)
H30_4 H 0.4248 0.0891 0.5061
H31_4 H 0.4763 0.0086 0.5647
C50_4 C 0.57713(13) 0.0317(2) 0.59312(17)
H41_4 H 0.5653 0.0434 0.5592
C51_4 C 0.60337(15) 0.0811(3) 0.63203(19)
H42_4 H 0.6090 0.1272 0.6244
C52_4 C 0.62177(15) 0.0631(3) 0.6830(2)
H43_4 H 0.6398 0.0976 0.7088
C131_4 C 0.58037(19) 0.0374(3) 0.9952(3)
H106_4 H 0.5752 0.0891 0.9939
H107_4 H 0.5237 0.0086 0.9353
C145_4 C 0.42287(13) 0.0317(2) 0.90688(17)
H117_4 H 0.4347 0.0434 0.9408
C146_4 C 0.39663(15) 0.0811(3) 0.86797(19)
H118_4 H 0.3910 0.1272 0.8756
C147_4 C 0.37823(15) 0.0631(3) 0.8170(2)
H119_4 H 0.3602 0.0976 0.7912
loop_
_geom_bond_atom_site_label_1
_geom_bond_atom_site_label_2
_geom_bond_site_symmetry_1
_geom_bond_site_symmetry_2
O5 C30 1_555 1_555
N2 C24 1_555 1_555
C16 H13 1_555 1_555
C17 C16 1_555 1_555
H14 C17 1_555 1_555
C18 C17 1_555 1_555
H15 C18 1_555 1_555
C19 C18 1_555 1_555
H16 C19 1_555 1_555
C20 H17 1_555 1_555
C21 C20 1_555 1_555
H18 C21 1_555 1_555
C22 C21 1_555 1_555
C23 C22 1_555 1_555
C24 C16 1_555 1_555
C25 C19 1_555 1_555
C26 C20 1_555 1_555
C27 N2 1_555 1_555
C28 N2 1_555 1_555
H21 C28 1_555 1_555
H22 C28 1_555 1_555
C29 C28 1_555 1_555
H23 C29 1_555 1_555
H24 C29 1_555 1_555
C30 O4 1_555 1_555
C95 N9 1_555 1_555
H76 C95 1_555 1_555
N10 C104 1_555 1_555
C96 H77 1_555 1_555
C97 C96 1_555 1_555
H78 C97 1_555 1_555
C98 C97 1_555 1_555
H79 C98 1_555 1_555
C99 C98 1_555 1_555
H80 C99 1_555 1_555
C100 H81 1_555 1_555
C101 C100 1_555 1_555
H82 C101 1_555 1_555
C102 C101 1_555 1_555
H83 C102 1_555 1_555
C103 C102 1_555 1_555
H84 C103 1_555 1_555
C104 C96 1_555 1_555
C105 C99 1_555 1_555
C106 C100 1_555 1_555
C107 N10 1_555 1_555
C108 N10 1_555 1_555
H85 C108 1_555 1_555
H86 C108 1_555 1_555
C109 C108 1_555 1_555
H87 C109 1_555 1_555
H88 C109 1_555 1_555
Mn7 N9 1_555 1_555
C23 C27 1_555 1_555
C24 C25 1_555 1_555
C25 C26 1_555 1_555
C26 C27 1_555 1_555
C29 C30 1_555 1_555
C103 C107 1_555 1_555
C104 C105 1_555 1_555
C105 C106 1_555 1_555
C106 C107 1_555 1_555
Mn1 Mn2 1_555 1_555
Mn2 O1 1_555 1_555
O1 Mn1 1_555 1_555
O11 Mn2 1_555 1_555
N5 C39 1_555 1_555
C31 H25 1_555 1_555
C32 C31 1_555 1_555
H26 C32 1_555 1_555
C33 C32 1_555 1_555
H27 C33 1_555 1_555
C34 C33 1_555 1_555
H28 C34 1_555 1_555
C35 H29 1_555 1_555
C36 C35 1_555 1_555
H30 C36 1_555 1_555
C37 C36 1_555 1_555
H31 C37 1_555 1_555
C38 C37 1_555 1_555
H32 C38 1_555 1_555
C39 C31 1_555 1_555
C40 C34 1_555 1_555
C41 C35 1_555 1_555
C42 N5 1_555 1_555
C43 N5 1_555 1_555
H33 C43 1_555 1_555
H34 C43 1_555 1_555
C44 C43 1_555 1_555
H35 C44 1_555 1_555
H36 C44 1_555 1_555
C45 O10 1_555 1_555
H39 C48 1_555 1_555
H61 C76 1_555 1_555
C77 C76 1_555 1_555
H62 C77 1_555 1_555
H75 C94 1_555 1_555
Mn5 Mn1 1_555 1_555
Mn6 O1 1_555 1_555
O13 Mn6 1_555 1_555
O14 Mn1 1_555 1_555
O17 Mn6 1_555 1_555
O18 Mn5 1_555 1_555
O19 Mn6 1_555 1_555
O20 Mn2 1_555 1_555
N12 C164 1_555 1_555
N13 C149 1_555 1_555
C110 O13 1_555 1_555
C141 H113 1_555 1_555
C142 C141 1_555 1_555
C145 H117 1_555 1_555
C146 C145 1_555 1_555
H118 C146 1_555 1_555
C147 C146 1_555 1_555
H119 C147 1_555 1_555
C148 C147 1_555 1_555
H120 C148 1_555 1_555
C149 C141 1_555 1_555
C150 C144 1_555 1_555
C151 C145 1_555 1_555
C152 N13 1_555 1_555
C153 N13 1_555 1_555
H121 C153 1_555 1_555
H122 C153 1_555 1_555
C154 C153 1_555 1_555
H123 C154 1_555 1_555
H124 C154 1_555 1_555
C155 O19 1_555 1_555
C156 H125 1_555 1_555
C157 C156 1_555 1_555
H126 C157 1_555 1_555
C158 C157 1_555 1_555
H127 C158 1_555 1_555
C159 C158 1_555 1_555
H128 C159 1_555 1_555
C160 H129 1_555 1_555
C161 C160 1_555 1_555
H130 C161 1_555 1_555
C162 C161 1_555 1_555
C163 C162 1_555 1_555
H132 C163 1_555 1_555
C164 C156 1_555 1_555
C165 C159 1_555 1_555
C166 C160 1_555 1_555
C167 N12 1_555 1_555
C168 N12 1_555 1_555
H133 C168 1_555 1_555
H134 C168 1_555 1_555
C169 C168 1_555 1_555
H135 C169 1_555 1_555
H136 C169 1_555 1_555
C170 O17 1_555 1_555
N15 Mn6 1_555 1_555
N16 Mn5 1_555 1_555
O1 Mn5 1_555 1_555
O11 C45 1_555 1_555
O11 Mn6 1_555 1_555
C38 C42 1_555 1_555
C39 C40 1_555 1_555
C40 C41 1_555 1_555
C41 C42 1_555 1_555
C44 C45 1_555 1_555
O14 C110 1_555 1_555
O18 C170 1_555 1_555
O20 C155 1_555 1_555
C148 C152 1_555 1_555
C149 C150 1_555 1_555
C150 C151 1_555 1_555
C151 C152 1_555 1_555
C154 C155 1_555 1_555
C163 C167 1_555 1_555
C164 C165 1_555 1_555
C165 C166 1_555 1_555
C166 C167 1_555 1_555
C169 C170 1_555 1_555
N1 C9 1_555 1_555
C1 H1 1_555 1_555
C2 C1 1_555 1_555
H2 C2 1_555 1_555
C3 C2 1_555 1_555
H3 C3 1_555 1_555
C4 C3 1_555 1_555
H4 C4 1_555 1_555
H8 C8 1_555 1_555
C9 C1 1_555 1_555
C10 C4 1_555 1_555
C12 N1 1_555 1_555
C13 N1 1_555 1_555
H9 C13 1_555 1_555
H10 C13 1_555 1_555
C14 C13 1_555 1_555
H11 C14 1_555 1_555
H12 C14 1_555 1_555
H63 C79 1_555 1_555
C91 H73 1_555 1_555
C92 C91 1_555 1_555
H74 C92 1_555 1_555
N11 C119 1_555 1_555
C111 H89 1_555 1_555
C112 C111 1_555 1_555
H90 C112 1_555 1_555
C113 C112 1_555 1_555
H91 C113 1_555 1_555
C114 C113 1_555 1_555
H92 C114 1_555 1_555
C115 H93 1_555 1_555
C116 C115 1_555 1_555
H94 C116 1_555 1_555
C117 C116 1_555 1_555
C118 C117 1_555 1_555
C119 C111 1_555 1_555
C120 C114 1_555 1_555
C121 C115 1_555 1_555
C122 N11 1_555 1_555
C123 N11 1_555 1_555
H97 C123 1_555 1_555
H98 C123 1_555 1_555
C124 C123 1_555 1_555
H99 C124 1_555 1_555
H100 C124 1_555 1_555
C125 O15 1_555 1_555
C8 C12 1_555 1_555
C9 C10 1_555 1_555
C10 C11 1_555 1_555
C11 C12 1_555 1_555
O16 C125 1_555 1_555
C118 C122 1_555 1_555
C119 C120 1_555 1_555
C120 C121 1_555 1_555
C121 C122 1_555 1_555
C124 C125 1_555 1_555
C5 H5 1_555 1_555
C6 C5 1_555 1_555
H6 C6 1_555 1_555
C7 C6 1_555 1_555
H7 C7 1_555 1_555
Mn1_2 Mn2_2 1_555 1_555
Mn3 Mn1_2 1_555 1_555
Mn4 O2 1_555 1_555
O2 C15 1_555 1_555
O3 Mn1_2 1_555 1_555
O6 Mn4 1_555 1_555
O7 Mn3 1_555 1_555
O8 Mn4 1_555 1_555
O9 Mn2_2 1_555 1_555
N3 C69 1_555 1_555
N4 C54 1_555 1_555
N6 Mn4 1_555 1_555
N7 Mn3 1_555 1_555
C15 O3 1_555 1_555
C46 H37 1_555 1_555
C47 C46 1_555 1_555
H40 C49 1_555 1_555
C50 H41 1_555 1_555
C51 C50 1_555 1_555
H42 C51 1_555 1_555
C52 C51 1_555 1_555
H43 C52 1_555 1_555
C53 C52 1_555 1_555
H44 C53 1_555 1_555
C54 C46 1_555 1_555
C55 C49 1_555 1_555
C56 C50 1_555 1_555
C57 N4 1_555 1_555
C58 N4 1_555 1_555
H45 C58 1_555 1_555
H46 C58 1_555 1_555
C59 C58 1_555 1_555
H47 C59 1_555 1_555
H48 C59 1_555 1_555
C60 O8 1_555 1_555
C61 H49 1_555 1_555
C62 C61 1_555 1_555
H50 C62 1_555 1_555
C63 C62 1_555 1_555
H51 C63 1_555 1_555
C64 C63 1_555 1_555
H52 C64 1_555 1_555
C65 H53 1_555 1_555
C66 C65 1_555 1_555
H54 C66 1_555 1_555
C67 C66 1_555 1_555
C68 C67 1_555 1_555
H56 C68 1_555 1_555
C69 C61 1_555 1_555
C70 C64 1_555 1_555
C71 C65 1_555 1_555
C72 N3 1_555 1_555
C73 N3 1_555 1_555
H57 C73 1_555 1_555
H58 C73 1_555 1_555
C74 C73 1_555 1_555
H59 C74 1_555 1_555
H60 C74 1_555 1_555
C75 O6 1_555 1_555
C80 N7 1_555 1_555
H64 C80 1_555 1_555
C81 N6 1_555 1_555
H65 C81 1_555 1_555
C82 C81 1_555 1_555
C83 C82 1_555 1_555
C84 C83 1_555 1_555
H67 C84 1_555 1_555
C85 N6 1_555 1_555
H68 C85 1_555 1_555
O12 Mn1_2 1_555 1_555
O22 Mn2_2 1_555 1_555
H106 C131 1_555 1_555
C132 C131 1_555 1_555
H107 C132 1_555 1_555
C133 C132 1_555 1_555
H108 C133 1_555 1_555
H109 C138 1_555 1_555
H110 C138 1_555 1_555
C139 C138 1_555 1_555
H111 C139 1_555 1_555
H112 C139 1_555 1_555
C140 O21 1_555 1_555
Mn2_2 O12 1_555 1_555
Mn3 O12 1_555 1_555
Mn4 O12 1_555 1_555
Mn4 O22 1_555 1_555
O7 C75 1_555 1_555
O9 C60 1_555 1_555
C53 C57 1_555 1_555
C54 C55 1_555 1_555
C55 C56 1_555 1_555
C56 C57 1_555 1_555
C59 C60 1_555 1_555
C68 C72 1_555 1_555
C69 C70 1_555 1_555
C70 C71 1_555 1_555
C71 C72 1_555 1_555
C74 C75 1_555 1_555
C84 C85 1_555 1_555
O22 C140 1_555 1_555
C133 C137 1_555 1_555
C139 C140 1_555 1_555
N8 C86 1_555 1_555
C86 H69 1_555 1_555
C87 C86 1_555 1_555
C89 C88 1_555 1_555
H71 C89 1_555 1_555
C90 N8 1_555 1_555
H72 C90 1_555 1_555
N14 C134 1_555 1_555
C126 H101 1_555 1_555
C127 C126 1_555 1_555
H102 C127 1_555 1_555
C128 C127 1_555 1_555
H103 C128 1_555 1_555
C129 C128 1_555 1_555
H104 C129 1_555 1_555
C130 H105 1_555 1_555
C134 C126 1_555 1_555
C135 C129 1_555 1_555
C136 C130 1_555 1_555
Mn8 N8 1_555 1_555
C87 C88 1_555 1_555
C89 C90 1_555 1_555
C134 C135 1_555 1_555
C135 C136 1_555 1_555
H63_2 C79_2 1_555 1_555
C91_2 H73_2 1_555 1_555
C92_2 C91_2 1_555 1_555
C80_2 N16 1_555 1_555
H64_2 C80_2 1_555 1_555
C81_2 N15 1_555 1_555
H65_2 C81_2 1_555 1_555
C82_2 C81_2 1_555 1_555
H66_2 C82_2 1_555 1_555
C83_2 C82_2 1_555 1_555
C84_2 C83_2 1_555 1_555
H67_2 C84_2 1_555 1_555
C85_2 N15 1_555 1_555
H68_2 C85_2 1_555 1_555
N8_2 C86_2 1_555 1_555
C86_2 H69_2 1_555 1_555
C87_2 C86_2 1_555 1_555
H70_2 C87_2 1_555 1_555
C88_2 C83_2 1_555 1_555
C89_2 C88_2 1_555 1_555
H71_2 C89_2 1_555 1_555
C90_2 N8_2 1_555 1_555
H72_2 C90_2 1_555 1_555
Mn8_2 N8_2 1_555 1_555
C84_2 C85_2 1_555 1_555
C87_2 C88_2 1_555 1_555
C89_2 C90_2 1_555 1_555
C95_2 N9_2 1_555 1_555
H76_2 C95_2 1_555 1_555
Mn7_2 N9_2 1_555 1_555
H61_2 C76_2 1_555 1_555
C77_2 C76_2 1_555 1_555
H75_2 C94_2 1_555 1_555
Mn1_3 Mn2_3 1_555 1_555
Mn2_3 O1_2 1_555 1_555
Mn3_2 Mn1_3 1_555 1_555
Mn4_2 O2_2 1_555 1_555
O1_2 Mn1_3 1_555 1_555
O2_2 C15_2 1_555 1_555
O3_2 Mn1_3 1_555 1_555
O4_2 Mn1_3 1_555 1_555
O5_2 C30_2 1_555 1_555
O6_2 Mn4_2 1_555 1_555
O7_2 Mn3_2 1_555 1_555
O8_2 Mn4_2 1_555 1_555
O9_2 Mn2_3 1_555 1_555
O10_2 Mn3_2 1_555 1_555
O11_2 Mn2_3 1_555 1_555
N1_2 C9_2 1_555 1_555
N2_2 C24_2 1_555 1_555
N3_2 C69_2 1_555 1_555
N4_2 C54_2 1_555 1_555
N5_2 C39_2 1_555 1_555
N6_2 Mn4_2 1_555 1_555
N7_2 Mn3_2 1_555 1_555
C1_2 H1_2 1_555 1_555
C2_2 C1_2 1_555 1_555
H2_2 C2_2 1_555 1_555
C3_2 C2_2 1_555 1_555
H3_2 C3_2 1_555 1_555
C4_2 C3_2 1_555 1_555
H4_2 C4_2 1_555 1_555
H8_2 C8_2 1_555 1_555
C9_2 C1_2 1_555 1_555
C10_2 C4_2 1_555 1_555
C12_2 N1_2 1_555 1_555
C13_2 N1_2 1_555 1_555
H9_2 C13_2 1_555 1_555
H10_2 C13_2 1_555 1_555
C14_2 C13_2 1_555 1_555
H11_2 C14_2 1_555 1_555
H12_2 C14_2 1_555 1_555
C15_2 O3_2 1_555 1_555
C16_2 H13_2 1_555 1_555
C17_2 C16_2 1_555 1_555
H14_2 C17_2 1_555 1_555
C18_2 C17_2 1_555 1_555
H15_2 C18_2 1_555 1_555
C19_2 C18_2 1_555 1_555
H16_2 C19_2 1_555 1_555
C20_2 H17_2 1_555 1_555
C21_2 C20_2 1_555 1_555
H18_2 C21_2 1_555 1_555
C22_2 C21_2 1_555 1_555
H19_2 C22_2 1_555 1_555
C23_2 C22_2 1_555 1_555
H20_2 C23_2 1_555 1_555
C24_2 C16_2 1_555 1_555
C25_2 C19_2 1_555 1_555
C26_2 C20_2 1_555 1_555
C27_2 N2_2 1_555 1_555
C28_2 N2_2 1_555 1_555
H21_2 C28_2 1_555 1_555
H22_2 C28_2 1_555 1_555
C29_2 C28_2 1_555 1_555
H23_2 C29_2 1_555 1_555
H24_2 C29_2 1_555 1_555
C30_2 O4_2 1_555 1_555
C31_2 H25_2 1_555 1_555
C32_2 C31_2 1_555 1_555
H26_2 C32_2 1_555 1_555
C33_2 C32_2 1_555 1_555
H27_2 C33_2 1_555 1_555
C34_2 C33_2 1_555 1_555
H28_2 C34_2 1_555 1_555
C38_2 C37_2 1_555 1_555
H32_2 C38_2 1_555 1_555
C39_2 C31_2 1_555 1_555
C40_2 C34_2 1_555 1_555
C42_2 N5_2 1_555 1_555
C43_2 N5_2 1_555 1_555
H33_2 C43_2 1_555 1_555
H34_2 C43_2 1_555 1_555
C44_2 C43_2 1_555 1_555
H35_2 C44_2 1_555 1_555
H36_2 C44_2 1_555 1_555
C45_2 O10_2 1_555 1_555
C46_2 H37_2 1_555 1_555
C47_2 C46_2 1_555 1_555
H38_2 C47_2 1_555 1_555
C48_2 C47_2 1_555 1_555
H39_2 C48_2 1_555 1_555
C49_2 C48_2 1_555 1_555
H40_2 C49_2 1_555 1_555
H44_2 C53_2 1_555 1_555
C54_2 C46_2 1_555 1_555
C55_2 C49_2 1_555 1_555
C57_2 N4_2 1_555 1_555
C58_2 N4_2 1_555 1_555
H45_2 C58_2 1_555 1_555
H46_2 C58_2 1_555 1_555
C59_2 C58_2 1_555 1_555
H47_2 C59_2 1_555 1_555
H48_2 C59_2 1_555 1_555
C60_2 O8_2 1_555 1_555
C61_2 H49_2 1_555 1_555
C62_2 C61_2 1_555 1_555
H50_2 C62_2 1_555 1_555
C63_2 C62_2 1_555 1_555
H51_2 C63_2 1_555 1_555
C64_2 C63_2 1_555 1_555
H52_2 C64_2 1_555 1_555
C65_2 H53_2 1_555 1_555
C66_2 C65_2 1_555 1_555
H54_2 C66_2 1_555 1_555
C67_2 C66_2 1_555 1_555
H55_2 C67_2 1_555 1_555
C68_2 C67_2 1_555 1_555
H56_2 C68_2 1_555 1_555
C69_2 C61_2 1_555 1_555
C70_2 C64_2 1_555 1_555
C71_2 C65_2 1_555 1_555
C72_2 N3_2 1_555 1_555
C73_2 N3_2 1_555 1_555
H57_2 C73_2 1_555 1_555
H58_2 C73_2 1_555 1_555
C74_2 C73_2 1_555 1_555
H59_2 C74_2 1_555 1_555
H60_2 C74_2 1_555 1_555
C75_2 O6_2 1_555 1_555
C76_3 N7_2 1_555 1_555
H61_3 C76_3 1_555 1_555
C77_3 C76_3 1_555 1_555
H62_3 C77_3 1_555 1_555
C78_3 C77_3 1_555 1_555
C79_3 C78_3 1_555 1_555
H63_3 C79_3 1_555 1_555
C80_3 N7_2 1_555 1_555
H64_3 C80_3 1_555 1_555
C81_3 N6_2 1_555 1_555
H65_3 C81_3 1_555 1_555
C82_3 C81_3 1_555 1_555
C83_3 C82_3 1_555 1_555
C84_3 C83_3 1_555 1_555
H67_3 C84_3 1_555 1_555
C85_3 N6_2 1_555 1_555
H68_3 C85_3 1_555 1_555
N9_3 C91_3 1_555 1_555
C91_3 H73_3 1_555 1_555
C92_3 C91_3 1_555 1_555
H74_3 C92_3 1_555 1_555
C93_3 C78_3 1_555 1_555
C94_3 C93_3 1_555 1_555
H75_3 C94_3 1_555 1_555
C95_3 N9_3 1_555 1_555
H76_3 C95_3 1_555 1_555
Mn5_2 Mn1_3 1_555 1_555
Mn6_2 O1_2 1_555 1_555
O12_2 Mn1_3 1_555 1_555
O13_2 Mn6_2 1_555 1_555
O14_2 Mn1_3 1_555 1_555
O15_2 Mn1_3 1_555 1_555
O16_2 Mn3_2 1_555 1_555
O17_2 Mn6_2 1_555 1_555
O18_2 Mn5_2 1_555 1_555
O19_2 Mn6_2 1_555 1_555
O20_2 Mn2_3 1_555 1_555
O21_2 Mn5_2 1_555 1_555
O22_2 Mn2_3 1_555 1_555
N10_2 C104_2 1_555 1_555
N11_2 C119_2 1_555 1_555
N12_2 C164_2 1_555 1_555
N13_2 C149_2 1_555 1_555
C96_2 H77_2 1_555 1_555
C97_2 C96_2 1_555 1_555
H78_2 C97_2 1_555 1_555
C98_2 C97_2 1_555 1_555
H79_2 C98_2 1_555 1_555
C99_2 C98_2 1_555 1_555
H80_2 C99_2 1_555 1_555
C100_2 H81_2 1_555 1_555
C101_2 C100_2 1_555 1_555
H82_2 C101_2 1_555 1_555
C102_2 C101_2 1_555 1_555
H83_2 C102_2 1_555 1_555
C103_2 C102_2 1_555 1_555
H84_2 C103_2 1_555 1_555
C104_2 C96_2 1_555 1_555
C105_2 C99_2 1_555 1_555
C106_2 C100_2 1_555 1_555
C107_2 N10_2 1_555 1_555
C108_2 N10_2 1_555 1_555
H85_2 C108_2 1_555 1_555
H86_2 C108_2 1_555 1_555
C109_2 C108_2 1_555 1_555
H87_2 C109_2 1_555 1_555
H88_2 C109_2 1_555 1_555
C110_2 O13_2 1_555 1_555
C111_2 H89_2 1_555 1_555
C112_2 C111_2 1_555 1_555
H90_2 C112_2 1_555 1_555
C113_2 C112_2 1_555 1_555
H91_2 C113_2 1_555 1_555
C114_2 C113_2 1_555 1_555
H92_2 C114_2 1_555 1_555
C115_2 H93_2 1_555 1_555
C116_2 C115_2 1_555 1_555
H94_2 C116_2 1_555 1_555
C117_2 C116_2 1_555 1_555
H95_2 C117_2 1_555 1_555
C118_2 C117_2 1_555 1_555
H96_2 C118_2 1_555 1_555
C119_2 C111_2 1_555 1_555
C120_2 C114_2 1_555 1_555
C121_2 C115_2 1_555 1_555
C122_2 N11_2 1_555 1_555
C123_2 N11_2 1_555 1_555
H97_2 C123_2 1_555 1_555
H98_2 C123_2 1_555 1_555
C124_2 C123_2 1_555 1_555
H99_2 C124_2 1_555 1_555
H100_2 C124_2 1_555 1_555
C125_2 O15_2 1_555 1_555
C133_2 C132_2 1_555 1_555
H108_2 C133_2 1_555 1_555
H109_2 C138_2 1_555 1_555
H110_2 C138_2 1_555 1_555
C139_2 C138_2 1_555 1_555
H111_2 C139_2 1_555 1_555
H112_2 C139_2 1_555 1_555
C140_2 O21_2 1_555 1_555
C141_2 H113_2 1_555 1_555
C142_2 C141_2 1_555 1_555
H114_2 C142_2 1_555 1_555
C143_2 C142_2 1_555 1_555
C144_2 C143_2 1_555 1_555
H120_2 C148_2 1_555 1_555
C149_2 C141_2 1_555 1_555
C150_2 C144_2 1_555 1_555
C152_2 N13_2 1_555 1_555
C153_2 N13_2 1_555 1_555
H121_2 C153_2 1_555 1_555
H122_2 C153_2 1_555 1_555
C154_2 C153_2 1_555 1_555
H123_2 C154_2 1_555 1_555
H124_2 C154_2 1_555 1_555
C155_2 O19_2 1_555 1_555
C156_2 H125_2 1_555 1_555
C157_2 C156_2 1_555 1_555
H126_2 C157_2 1_555 1_555
C158_2 C157_2 1_555 1_555
H127_2 C158_2 1_555 1_555
C159_2 C158_2 1_555 1_555
H128_2 C159_2 1_555 1_555
C160_2 H129_2 1_555 1_555
C161_2 C160_2 1_555 1_555
H130_2 C161_2 1_555 1_555
C162_2 C161_2 1_555 1_555
H131_2 C162_2 1_555 1_555
C163_2 C162_2 1_555 1_555
H132_2 C163_2 1_555 1_555
C164_2 C156_2 1_555 1_555
C165_2 C159_2 1_555 1_555
C166_2 C160_2 1_555 1_555
C167_2 N12_2 1_555 1_555
C168_2 N12_2 1_555 1_555
H133_2 C168_2 1_555 1_555
H134_2 C168_2 1_555 1_555
C169_2 C168_2 1_555 1_555
H135_2 C169_2 1_555 1_555
H136_2 C169_2 1_555 1_555
C170_2 O17_2 1_555 1_555
Mn7_3 N9_3 1_555 1_555
N15_2 Mn6_2 1_555 1_555
N16_2 Mn5_2 1_555 1_555
Mn2_3 O12_2 1_555 1_555
Mn3_2 O12_2 1_555 1_555
Mn3_2 O14_2 1_555 1_555
Mn4_2 O12_2 1_555 1_555
Mn4_2 O22_2 1_555 1_555
O1_2 Mn5_2 1_555 1_555
O3_2 Mn5_2 1_555 1_555
O5_2 Mn5_2 1_555 1_555
O7_2 C75_2 1_555 1_555
O9_2 C60_2 1_555 1_555
O11_2 C45_2 1_555 1_555
O11_2 Mn6_2 1_555 1_555
C8_2 C12_2 1_555 1_555
C9_2 C10_2 1_555 1_555
C10_2 C11_2 1_555 1_555
C11_2 C12_2 1_555 1_555
C14_2 C15_2 1_555 1_555
C23_2 C27_2 1_555 1_555
C24_2 C25_2 1_555 1_555
C25_2 C26_2 1_555 1_555
C26_2 C27_2 1_555 1_555
C29_2 C30_2 1_555 1_555
C38_2 C42_2 1_555 1_555
C39_2 C40_2 1_555 1_555
C40_2 C41_2 1_555 1_555
C41_2 C42_2 1_555 1_555
C44_2 C45_2 1_555 1_555
C53_2 C57_2 1_555 1_555
C54_2 C55_2 1_555 1_555
C55_2 C56_2 1_555 1_555
C56_2 C57_2 1_555 1_555
C59_2 C60_2 1_555 1_555
C68_2 C72_2 1_555 1_555
C69_2 C70_2 1_555 1_555
C70_2 C71_2 1_555 1_555
C71_2 C72_2 1_555 1_555
C74_2 C75_2 1_555 1_555
C79_3 C80_3 1_555 1_555
C84_3 C85_3 1_555 1_555
C92_3 C93_3 1_555 1_555
C94_3 C95_3 1_555 1_555
O14_2 C110_2 1_555 1_555
O16_2 C125_2 1_555 1_555
O18_2 C170_2 1_555 1_555
O20_2 C155_2 1_555 1_555
O22_2 C140_2 1_555 1_555
C103_2 C107_2 1_555 1_555
C104_2 C105_2 1_555 1_555
C105_2 C106_2 1_555 1_555
C106_2 C107_2 1_555 1_555
C109_2 C110_2 1_555 1_555
C118_2 C122_2 1_555 1_555
C119_2 C120_2 1_555 1_555
C120_2 C121_2 1_555 1_555
C121_2 C122_2 1_555 1_555
C124_2 C125_2 1_555 1_555
C133_2 C137_2 1_555 1_555
C139_2 C140_2 1_555 1_555
C148_2 C152_2 1_555 1_555
C149_2 C150_2 1_555 1_555
C150_2 C151_2 1_555 1_555
C151_2 C152_2 1_555 1_555
C154_2 C155_2 1_555 1_555
C163_2 C167_2 1_555 1_555
C164_2 C165_2 1_555 1_555
C165_2 C166_2 1_555 1_555
C166_2 C167_2 1_555 1_555
C169_2 C170_2 1_555 1_555
C5_2 H5_2 1_555 1_555
C6_2 C5_2 1_555 1_555
H6_2 C6_2 1_555 1_555
C7_2 C6_2 1_555 1_555
H7_2 C7_2 1_555 1_555
N8_3 C86_3 1_555 1_555
C86_3 H69_3 1_555 1_555
C87_3 C86_3 1_555 1_555
C89_3 C88_3 1_555 1_555
H71_3 C89_3 1_555 1_555
C90_3 N8_3 1_555 1_555
H72_3 C90_3 1_555 1_555
N14_2 C134_2 1_555 1_555
C126_2 H101_2 1_555 1_555
C127_2 C126_2 1_555 1_555
H102_2 C127_2 1_555 1_555
C128_2 C127_2 1_555 1_555
H103_2 C128_2 1_555 1_555
C129_2 C128_2 1_555 1_555
H104_2 C129_2 1_555 1_555
C134_2 C126_2 1_555 1_555
C135_2 C129_2 1_555 1_555
Mn8_3 N8_3 1_555 1_555
C87_3 C88_3 1_555 1_555
C89_3 C90_3 1_555 1_555
C134_2 C135_2 1_555 1_555
C135_2 C136_2 1_555 1_555
C76_4 N16_2 1_555 1_555
H61_4 C76_4 1_555 1_555
C77_4 C76_4 1_555 1_555
C78_4 C77_4 1_555 1_555
C79_4 C78_4 1_555 1_555
H63_4 C79_4 1_555 1_555
C80_4 N16_2 1_555 1_555
H64_4 C80_4 1_555 1_555
C81_4 N15_2 1_555 1_555
H65_4 C81_4 1_555 1_555
C82_4 C81_4 1_555 1_555
H66_4 C82_4 1_555 1_555
C83_4 C82_4 1_555 1_555
C84_4 C83_4 1_555 1_555
H67_4 C84_4 1_555 1_555
C85_4 N15_2 1_555 1_555
H68_4 C85_4 1_555 1_555
N8_4 C86_4 1_555 1_555
C86_4 H69_4 1_555 1_555
C87_4 C86_4 1_555 1_555
H70_4 C87_4 1_555 1_555
C88_4 C83_4 1_555 1_555
C89_4 C88_4 1_555 1_555
H71_4 C89_4 1_555 1_555
C90_4 N8_4 1_555 1_555
H72_4 C90_4 1_555 1_555
Mn8_4 N8_4 1_555 1_555
C79_4 C80_4 1_555 1_555
C84_4 C85_4 1_555 1_555
C87_4 C88_4 1_555 1_555
C89_4 C90_4 1_555 1_555
N9_4 C91_4 1_555 1_555
C91_4 H73_4 1_555 1_555
C92_4 C91_4 1_555 1_555
C94_4 C93_4 1_555 1_555
H75_4 C94_4 1_555 1_555
C95_4 N9_4 1_555 1_555
H76_4 C95_4 1_555 1_555
Mn7_4 N9_4 1_555 1_555
C92_4 C93_4 1_555 1_555
C94_4 C95_4 1_555 1_555
N14_3 C134_3 1_555 1_555
C126_3 H101_3 1_555 1_555
C127_3 C126_3 1_555 1_555
H102_3 C127_3 1_555 1_555
C128_3 C127_3 1_555 1_555
H103_3 C128_3 1_555 1_555
C129_3 C128_3 1_555 1_555
H104_3 C129_3 1_555 1_555
C130_2 H105_2 1_555 1_555
C134_3 C126_3 1_555 1_555
C135_3 C129_3 1_555 1_555
C136_3 C130_2 1_555 1_555
C134_3 C135_3 1_555 1_555
C135_3 C136_3 1_555 1_555
Mn1_4 Mn2_4 1_555 1_555
Mn7 Mn1_4 1_555 1_555
Mn8_3 O2_3 1_555 1_555
O2_3 C15_3 1_555 1_555
O3_3 Mn1_4 1_555 1_555
O6_3 Mn8_3 1_555 1_555
O7_3 Mn7 1_555 1_555
O8_3 Mn8_3 1_555 1_555
O9_3 Mn2_4 1_555 1_555
N3_3 C69_3 1_555 1_555
N4_3 C54_3 1_555 1_555
C15_3 O3_3 1_555 1_555
C46_3 H37_3 1_555 1_555
C47_3 C46_3 1_555 1_555
H40_3 C49_3 1_555 1_555
C50_2 H41_2 1_555 1_555
C51_2 C50_2 1_555 1_555
H42_2 C51_2 1_555 1_555
C52_2 C51_2 1_555 1_555
H43_2 C52_2 1_555 1_555
C53_3 C52_2 1_555 1_555
H44_3 C53_3 1_555 1_555
C54_3 C46_3 1_555 1_555
C55_3 C49_3 1_555 1_555
C56_3 C50_2 1_555 1_555
C57_3 N4_3 1_555 1_555
C58_3 N4_3 1_555 1_555
H45_3 C58_3 1_555 1_555
H46_3 C58_3 1_555 1_555
C59_3 C58_3 1_555 1_555
H47_3 C59_3 1_555 1_555
H48_3 C59_3 1_555 1_555
C60_3 O8_3 1_555 1_555
C61_3 H49_3 1_555 1_555
C62_3 C61_3 1_555 1_555
H50_3 C62_3 1_555 1_555
C63_3 C62_3 1_555 1_555
H51_3 C63_3 1_555 1_555
C64_3 C63_3 1_555 1_555
H52_3 C64_3 1_555 1_555
C65_3 H53_3 1_555 1_555
C66_3 C65_3 1_555 1_555
H54_3 C66_3 1_555 1_555
C67_3 C66_3 1_555 1_555
C68_3 C67_3 1_555 1_555
H56_3 C68_3 1_555 1_555
C69_3 C61_3 1_555 1_555
C70_3 C64_3 1_555 1_555
C71_3 C65_3 1_555 1_555
C72_3 N3_3 1_555 1_555
C73_3 N3_3 1_555 1_555
H57_3 C73_3 1_555 1_555
H58_3 C73_3 1_555 1_555
C74_3 C73_3 1_555 1_555
H59_3 C74_3 1_555 1_555
H60_3 C74_3 1_555 1_555
C75_3 O6_3 1_555 1_555
O12_3 Mn1_4 1_555 1_555
O22_3 Mn2_4 1_555 1_555
H106_2 C131_2 1_555 1_555
C132_3 C131_2 1_555 1_555
H107_2 C132_3 1_555 1_555
C133_3 C132_3 1_555 1_555
H108_3 C133_3 1_555 1_555
H109_3 C138_3 1_555 1_555
H110_3 C138_3 1_555 1_555
C139_3 C138_3 1_555 1_555
H111_3 C139_3 1_555 1_555
H112_3 C139_3 1_555 1_555
C140_3 O21_3 1_555 1_555
Mn2_4 O12_3 1_555 1_555
Mn7 O12_3 1_555 1_555
Mn8_3 O12_3 1_555 1_555
Mn8_3 O22_3 1_555 1_555
O7_3 C75_3 1_555 1_555
O9_3 C60_3 1_555 1_555
C53_3 C57_3 1_555 1_555
C54_3 C55_3 1_555 1_555
C55_3 C56_3 1_555 1_555
C56_3 C57_3 1_555 1_555
C59_3 C60_3 1_555 1_555
C68_3 C72_3 1_555 1_555
C69_3 C70_3 1_555 1_555
C70_3 C71_3 1_555 1_555
C71_3 C72_3 1_555 1_555
C74_3 C75_3 1_555 1_555
O22_3 C140_3 1_555 1_555
C133_3 C137_3 1_555 1_555
C139_3 C140_3 1_555 1_555
C5_3 H5_3 1_555 1_555
C6_3 C5_3 1_555 1_555
H6_3 C6_3 1_555 1_555
C7_3 C6_3 1_555 1_555
H7_3 C7_3 1_555 1_555
N1_3 C9_3 1_555 1_555
C1_3 H1_3 1_555 1_555
C2_3 C1_3 1_555 1_555
H2_3 C2_3 1_555 1_555
C3_3 C2_3 1_555 1_555
H3_3 C3_3 1_555 1_555
C4_3 C3_3 1_555 1_555
H4_3 C4_3 1_555 1_555
H8_3 C8_3 1_555 1_555
C9_3 C1_3 1_555 1_555
C10_3 C4_3 1_555 1_555
C12_3 N1_3 1_555 1_555
C13_3 N1_3 1_555 1_555
H9_3 C13_3 1_555 1_555
H10_3 C13_3 1_555 1_555
C14_3 C13_3 1_555 1_555
H11_3 C14_3 1_555 1_555
H12_3 C14_3 1_555 1_555
N11_3 C119_3 1_555 1_555
C111_3 H89_3 1_555 1_555
C112_3 C111_3 1_555 1_555
H90_3 C112_3 1_555 1_555
C113_3 C112_3 1_555 1_555
H91_3 C113_3 1_555 1_555
C114_3 C113_3 1_555 1_555
H92_3 C114_3 1_555 1_555
C115_3 H93_3 1_555 1_555
C116_3 C115_3 1_555 1_555
H94_3 C116_3 1_555 1_555
C117_3 C116_3 1_555 1_555
C118_3 C117_3 1_555 1_555
C119_3 C111_3 1_555 1_555
C120_3 C114_3 1_555 1_555
C121_3 C115_3 1_555 1_555
C122_3 N11_3 1_555 1_555
C123_3 N11_3 1_555 1_555
H97_3 C123_3 1_555 1_555
H98_3 C123_3 1_555 1_555
C124_3 C123_3 1_555 1_555
H99_3 C124_3 1_555 1_555
H100_3 C124_3 1_555 1_555
C125_3 O15_3 1_555 1_555
C8_3 C12_3 1_555 1_555
C9_3 C10_3 1_555 1_555
C10_3 C11_3 1_555 1_555
C11_3 C12_3 1_555 1_555
O16_3 C125_3 1_555 1_555
C118_3 C122_3 1_555 1_555
C119_3 C120_3 1_555 1_555
C120_3 C121_3 1_555 1_555
C121_3 C122_3 1_555 1_555
C124_3 C125_3 1_555 1_555
Mn1_5 Mn2_5 1_555 1_555
Mn2_5 O1_3 1_555 1_555
O1_3 Mn1_5 1_555 1_555
O11_3 Mn2_5 1_555 1_555
N5_3 C39_3 1_555 1_555
C31_3 H25_3 1_555 1_555
C32_3 C31_3 1_555 1_555
H26_3 C32_3 1_555 1_555
C33_3 C32_3 1_555 1_555
H27_3 C33_3 1_555 1_555
C34_3 C33_3 1_555 1_555
H28_3 C34_3 1_555 1_555
C35_2 H29_2 1_555 1_555
C36_2 C35_2 1_555 1_555
H30_2 C36_2 1_555 1_555
C37_3 C36_2 1_555 1_555
H31_2 C37_3 1_555 1_555
C38_3 C37_3 1_555 1_555
H32_3 C38_3 1_555 1_555
C39_3 C31_3 1_555 1_555
C40_3 C34_3 1_555 1_555
C41_3 C35_2 1_555 1_555
C42_3 N5_3 1_555 1_555
C43_3 N5_3 1_555 1_555
H33_3 C43_3 1_555 1_555
H34_3 C43_3 1_555 1_555
C44_3 C43_3 1_555 1_555
H35_3 C44_3 1_555 1_555
H36_3 C44_3 1_555 1_555
C45_3 O10_3 1_555 1_555
H39_3 C48_3 1_555 1_555
Mn7_2 Mn1_5 1_555 1_555
Mn8_4 O1_3 1_555 1_555
O13_3 Mn8_4 1_555 1_555
O14_3 Mn1_5 1_555 1_555
O17_3 Mn8_4 1_555 1_555
O18_3 Mn7_2 1_555 1_555
O19_3 Mn8_4 1_555 1_555
O20_3 Mn2_5 1_555 1_555
N12_3 C164_3 1_555 1_555
N13_3 C149_3 1_555 1_555
C110_3 O13_3 1_555 1_555
C141_3 H113_3 1_555 1_555
C142_3 C141_3 1_555 1_555
C145_2 H117_2 1_555 1_555
C146_2 C145_2 1_555 1_555
H118_2 C146_2 1_555 1_555
C147_2 C146_2 1_555 1_555
H119_2 C147_2 1_555 1_555
C148_3 C147_2 1_555 1_555
H120_3 C148_3 1_555 1_555
C149_3 C141_3 1_555 1_555
C150_3 C144_3 1_555 1_555
C151_3 C145_2 1_555 1_555
C152_3 N13_3 1_555 1_555
C153_3 N13_3 1_555 1_555
H121_3 C153_3 1_555 1_555
H122_3 C153_3 1_555 1_555
C154_3 C153_3 1_555 1_555
H123_3 C154_3 1_555 1_555
H124_3 C154_3 1_555 1_555
C155_3 O19_3 1_555 1_555
C156_3 H125_3 1_555 1_555
C157_3 C156_3 1_555 1_555
H126_3 C157_3 1_555 1_555
C158_3 C157_3 1_555 1_555
H127_3 C158_3 1_555 1_555
C159_3 C158_3 1_555 1_555
H128_3 C159_3 1_555 1_555
C160_3 H129_3 1_555 1_555
C161_3 C160_3 1_555 1_555
H130_3 C161_3 1_555 1_555
C162_3 C161_3 1_555 1_555
C163_3 C162_3 1_555 1_555
H132_3 C163_3 1_555 1_555
C164_3 C156_3 1_555 1_555
C165_3 C159_3 1_555 1_555
C166_3 C160_3 1_555 1_555
C167_3 N12_3 1_555 1_555
C168_3 N12_3 1_555 1_555
H133_3 C168_3 1_555 1_555
H134_3 C168_3 1_555 1_555
C169_3 C168_3 1_555 1_555
H135_3 C169_3 1_555 1_555
H136_3 C169_3 1_555 1_555
C170_3 O17_3 1_555 1_555
O1_3 Mn7_2 1_555 1_555
O11_3 C45_3 1_555 1_555
O11_3 Mn8_4 1_555 1_555
C38_3 C42_3 1_555 1_555
C39_3 C40_3 1_555 1_555
C40_3 C41_3 1_555 1_555
C41_3 C42_3 1_555 1_555
C44_3 C45_3 1_555 1_555
O14_3 C110_3 1_555 1_555
O18_3 C170_3 1_555 1_555
O20_3 C155_3 1_555 1_555
C148_3 C152_3 1_555 1_555
C149_3 C150_3 1_555 1_555
C150_3 C151_3 1_555 1_555
C151_3 C152_3 1_555 1_555
C154_3 C155_3 1_555 1_555
C163_3 C167_3 1_555 1_555
C164_3 C165_3 1_555 1_555
C165_3 C166_3 1_555 1_555
C166_3 C167_3 1_555 1_555
C169_3 C170_3 1_555 1_555
O5_3 C30_3 1_555 1_555
N2_3 C24_3 1_555 1_555
C16_3 H13_3 1_555 1_555
C17_3 C16_3 1_555 1_555
H14_3 C17_3 1_555 1_555
C18_3 C17_3 1_555 1_555
H15_3 C18_3 1_555 1_555
C19_3 C18_3 1_555 1_555
H16_3 C19_3 1_555 1_555
C20_3 H17_3 1_555 1_555
C21_3 C20_3 1_555 1_555
H18_3 C21_3 1_555 1_555
C22_3 C21_3 1_555 1_555
C23_3 C22_3 1_555 1_555
C24_3 C16_3 1_555 1_555
C25_3 C19_3 1_555 1_555
C26_3 C20_3 1_555 1_555
C27_3 N2_3 1_555 1_555
C28_3 N2_3 1_555 1_555
H21_3 C28_3 1_555 1_555
H22_3 C28_3 1_555 1_555
C29_3 C28_3 1_555 1_555
H23_3 C29_3 1_555 1_555
H24_3 C29_3 1_555 1_555
C30_3 O4_3 1_555 1_555
N10_3 C104_3 1_555 1_555
C96_3 H77_3 1_555 1_555
C97_3 C96_3 1_555 1_555
H78_3 C97_3 1_555 1_555
C98_3 C97_3 1_555 1_555
H79_3 C98_3 1_555 1_555
C99_3 C98_3 1_555 1_555
H80_3 C99_3 1_555 1_555
C100_3 H81_3 1_555 1_555
C101_3 C100_3 1_555 1_555
H82_3 C101_3 1_555 1_555
C102_3 C101_3 1_555 1_555
H83_3 C102_3 1_555 1_555
C103_3 C102_3 1_555 1_555
H84_3 C103_3 1_555 1_555
C104_3 C96_3 1_555 1_555
C105_3 C99_3 1_555 1_555
C106_3 C100_3 1_555 1_555
C107_3 N10_3 1_555 1_555
C108_3 N10_3 1_555 1_555
H85_3 C108_3 1_555 1_555
H86_3 C108_3 1_555 1_555
C109_3 C108_3 1_555 1_555
H87_3 C109_3 1_555 1_555
H88_3 C109_3 1_555 1_555
C23_3 C27_3 1_555 1_555
C24_3 C25_3 1_555 1_555
C25_3 C26_3 1_555 1_555
C26_3 C27_3 1_555 1_555
C29_3 C30_3 1_555 1_555
C103_3 C107_3 1_555 1_555
C104_3 C105_3 1_555 1_555
C105_3 C106_3 1_555 1_555
C106_3 C107_3 1_555 1_555
C5_4 H5_4 1_555 1_555
C6_4 C5_4 1_555 1_555
H6_4 C6_4 1_555 1_555
C7_4 C6_4 1_555 1_555
H7_4 C7_4 1_555 1_555
N14_4 C134_4 1_555 1_555
C126_4 H101_4 1_555 1_555
C127_4 C126_4 1_555 1_555
H102_4 C127_4 1_555 1_555
C128_4 C127_4 1_555 1_555
H103_4 C128_4 1_555 1_555
C129_4 C128_4 1_555 1_555
H104_4 C129_4 1_555 1_555
C134_4 C126_4 1_555 1_555
C135_4 C129_4 1_555 1_555
C134_4 C135_4 1_555 1_555
C135_4 C136_4 1_555 1_555
Mn1_6 Mn2_6 1_555 1_555
Mn2_6 O1_4 1_555 1_555
Mn7_3 Mn1_6 1_555 1_555
Mn8 O2_4 1_555 1_555
O1_4 Mn1_6 1_555 1_555
O2_4 C15_4 1_555 1_555
O3_4 Mn1_6 1_555 1_555
O4_4 Mn1_6 1_555 1_555
O5_4 C30_4 1_555 1_555
O6_4 Mn8 1_555 1_555
O7_4 Mn7_3 1_555 1_555
O8_4 Mn8 1_555 1_555
O9_4 Mn2_6 1_555 1_555
O10_4 Mn7_3 1_555 1_555
O11_4 Mn2_6 1_555 1_555
N1_4 C9_4 1_555 1_555
N2_4 C24_4 1_555 1_555
N3_4 C69_4 1_555 1_555
N4_4 C54_4 1_555 1_555
N5_4 C39_4 1_555 1_555
C1_4 H1_4 1_555 1_555
C2_4 C1_4 1_555 1_555
H2_4 C2_4 1_555 1_555
C3_4 C2_4 1_555 1_555
H3_4 C3_4 1_555 1_555
C4_4 C3_4 1_555 1_555
H4_4 C4_4 1_555 1_555
H8_4 C8_4 1_555 1_555
C9_4 C1_4 1_555 1_555
C10_4 C4_4 1_555 1_555
C12_4 N1_4 1_555 1_555
C13_4 N1_4 1_555 1_555
H9_4 C13_4 1_555 1_555
H10_4 C13_4 1_555 1_555
C14_4 C13_4 1_555 1_555
H11_4 C14_4 1_555 1_555
H12_4 C14_4 1_555 1_555
C15_4 O3_4 1_555 1_555
C16_4 H13_4 1_555 1_555
C17_4 C16_4 1_555 1_555
H14_4 C17_4 1_555 1_555
C18_4 C17_4 1_555 1_555
H15_4 C18_4 1_555 1_555
C19_4 C18_4 1_555 1_555
H16_4 C19_4 1_555 1_555
C20_4 H17_4 1_555 1_555
C21_4 C20_4 1_555 1_555
H18_4 C21_4 1_555 1_555
C22_4 C21_4 1_555 1_555
H19_4 C22_4 1_555 1_555
C23_4 C22_4 1_555 1_555
H20_4 C23_4 1_555 1_555
C24_4 C16_4 1_555 1_555
C25_4 C19_4 1_555 1_555
C26_4 C20_4 1_555 1_555
C27_4 N2_4 1_555 1_555
C28_4 N2_4 1_555 1_555
H21_4 C28_4 1_555 1_555
H22_4 C28_4 1_555 1_555
C29_4 C28_4 1_555 1_555
H23_4 C29_4 1_555 1_555
H24_4 C29_4 1_555 1_555
C30_4 O4_4 1_555 1_555
C31_4 H25_4 1_555 1_555
C32_4 C31_4 1_555 1_555
H26_4 C32_4 1_555 1_555
C33_4 C32_4 1_555 1_555
H27_4 C33_4 1_555 1_555
C34_4 C33_4 1_555 1_555
H28_4 C34_4 1_555 1_555
C38_4 C37_4 1_555 1_555
H32_4 C38_4 1_555 1_555
C39_4 C31_4 1_555 1_555
C40_4 C34_4 1_555 1_555
C42_4 N5_4 1_555 1_555
C43_4 N5_4 1_555 1_555
H33_4 C43_4 1_555 1_555
H34_4 C43_4 1_555 1_555
C44_4 C43_4 1_555 1_555
H35_4 C44_4 1_555 1_555
H36_4 C44_4 1_555 1_555
C45_4 O10_4 1_555 1_555
C46_4 H37_4 1_555 1_555
C47_4 C46_4 1_555 1_555
H38_4 C47_4 1_555 1_555
C48_4 C47_4 1_555 1_555
H39_4 C48_4 1_555 1_555
C49_4 C48_4 1_555 1_555
H40_4 C49_4 1_555 1_555
H44_4 C53_4 1_555 1_555
C54_4 C46_4 1_555 1_555
C55_4 C49_4 1_555 1_555
C57_4 N4_4 1_555 1_555
C58_4 N4_4 1_555 1_555
H45_4 C58_4 1_555 1_555
H46_4 C58_4 1_555 1_555
C59_4 C58_4 1_555 1_555
H47_4 C59_4 1_555 1_555
H48_4 C59_4 1_555 1_555
C60_4 O8_4 1_555 1_555
C61_4 H49_4 1_555 1_555
C62_4 C61_4 1_555 1_555
H50_4 C62_4 1_555 1_555
C63_4 C62_4 1_555 1_555
H51_4 C63_4 1_555 1_555
C64_4 C63_4 1_555 1_555
H52_4 C64_4 1_555 1_555
C65_4 H53_4 1_555 1_555
C66_4 C65_4 1_555 1_555
H54_4 C66_4 1_555 1_555
C67_4 C66_4 1_555 1_555
H55_4 C67_4 1_555 1_555
C68_4 C67_4 1_555 1_555
H56_4 C68_4 1_555 1_555
C69_4 C61_4 1_555 1_555
C70_4 C64_4 1_555 1_555
C71_4 C65_4 1_555 1_555
C72_4 N3_4 1_555 1_555
C73_4 N3_4 1_555 1_555
H57_4 C73_4 1_555 1_555
H58_4 C73_4 1_555 1_555
C74_4 C73_4 1_555 1_555
H59_4 C74_4 1_555 1_555
H60_4 C74_4 1_555 1_555
C75_4 O6_4 1_555 1_555
Mn7_4 Mn1_6 1_555 1_555
Mn8_2 O1_4 1_555 1_555
O12_4 Mn1_6 1_555 1_555
O13_4 Mn8_2 1_555 1_555
O14_4 Mn1_6 1_555 1_555
O15_4 Mn1_6 1_555 1_555
O16_4 Mn7_3 1_555 1_555
O17_4 Mn8_2 1_555 1_555
O18_4 Mn7_4 1_555 1_555
O19_4 Mn8_2 1_555 1_555
O20_4 Mn2_6 1_555 1_555
O21_4 Mn7_4 1_555 1_555
O22_4 Mn2_6 1_555 1_555
N10_4 C104_4 1_555 1_555
N11_4 C119_4 1_555 1_555
N12_4 C164_4 1_555 1_555
N13_4 C149_4 1_555 1_555
C96_4 H77_4 1_555 1_555
C97_4 C96_4 1_555 1_555
H78_4 C97_4 1_555 1_555
C98_4 C97_4 1_555 1_555
H79_4 C98_4 1_555 1_555
C99_4 C98_4 1_555 1_555
H80_4 C99_4 1_555 1_555
C100_4 H81_4 1_555 1_555
C101_4 C100_4 1_555 1_555
H82_4 C101_4 1_555 1_555
C102_4 C101_4 1_555 1_555
H83_4 C102_4 1_555 1_555
C103_4 C102_4 1_555 1_555
H84_4 C103_4 1_555 1_555
C104_4 C96_4 1_555 1_555
C105_4 C99_4 1_555 1_555
C106_4 C100_4 1_555 1_555
C107_4 N10_4 1_555 1_555
C108_4 N10_4 1_555 1_555
H85_4 C108_4 1_555 1_555
H86_4 C108_4 1_555 1_555
C109_4 C108_4 1_555 1_555
H87_4 C109_4 1_555 1_555
H88_4 C109_4 1_555 1_555
C110_4 O13_4 1_555 1_555
C111_4 H89_4 1_555 1_555
C112_4 C111_4 1_555 1_555
H90_4 C112_4 1_555 1_555
C113_4 C112_4 1_555 1_555
H91_4 C113_4 1_555 1_555
C114_4 C113_4 1_555 1_555
H92_4 C114_4 1_555 1_555
C115_4 H93_4 1_555 1_555
C116_4 C115_4 1_555 1_555
H94_4 C116_4 1_555 1_555
C117_4 C116_4 1_555 1_555
H95_4 C117_4 1_555 1_555
C118_4 C117_4 1_555 1_555
H96_4 C118_4 1_555 1_555
C119_4 C111_4 1_555 1_555
C120_4 C114_4 1_555 1_555
C121_4 C115_4 1_555 1_555
C122_4 N11_4 1_555 1_555
C123_4 N11_4 1_555 1_555
H97_4 C123_4 1_555 1_555
H98_4 C123_4 1_555 1_555
C124_4 C123_4 1_555 1_555
H99_4 C124_4 1_555 1_555
H100_4 C124_4 1_555 1_555
C125_4 O15_4 1_555 1_555
C133_4 C132_4 1_555 1_555
H108_4 C133_4 1_555 1_555
H109_4 C138_4 1_555 1_555
H110_4 C138_4 1_555 1_555
C139_4 C138_4 1_555 1_555
H111_4 C139_4 1_555 1_555
H112_4 C139_4 1_555 1_555
C140_4 O21_4 1_555 1_555
C141_4 H113_4 1_555 1_555
C142_4 C141_4 1_555 1_555
H114_4 C142_4 1_555 1_555
C143_4 C142_4 1_555 1_555
C144_4 C143_4 1_555 1_555
H120_4 C148_4 1_555 1_555
C149_4 C141_4 1_555 1_555
C150_4 C144_4 1_555 1_555
C152_4 N13_4 1_555 1_555
C153_4 N13_4 1_555 1_555
H121_4 C153_4 1_555 1_555
H122_4 C153_4 1_555 1_555
C154_4 C153_4 1_555 1_555
H123_4 C154_4 1_555 1_555
H124_4 C154_4 1_555 1_555
C155_4 O19_4 1_555 1_555
C156_4 H125_4 1_555 1_555
C157_4 C156_4 1_555 1_555
H126_4 C157_4 1_555 1_555
C158_4 C157_4 1_555 1_555
H127_4 C158_4 1_555 1_555
C159_4 C158_4 1_555 1_555
H128_4 C159_4 1_555 1_555
C160_4 H129_4 1_555 1_555
C161_4 C160_4 1_555 1_555
H130_4 C161_4 1_555 1_555
C162_4 C161_4 1_555 1_555
H131_4 C162_4 1_555 1_555
C163_4 C162_4 1_555 1_555
H132_4 C163_4 1_555 1_555
C164_4 C156_4 1_555 1_555
C165_4 C159_4 1_555 1_555
C166_4 C160_4 1_555 1_555
C167_4 N12_4 1_555 1_555
C168_4 N12_4 1_555 1_555
H133_4 C168_4 1_555 1_555
H134_4 C168_4 1_555 1_555
C169_4 C168_4 1_555 1_555
H135_4 C169_4 1_555 1_555
H136_4 C169_4 1_555 1_555
C170_4 O17_4 1_555 1_555
Mn2_6 O12_4 1_555 1_555
Mn7_3 O12_4 1_555 1_555
Mn7_3 O14_4 1_555 1_555
Mn8 O12_4 1_555 1_555
Mn8 O22_4 1_555 1_555
O1_4 Mn7_4 1_555 1_555
O3_4 Mn7_4 1_555 1_555
O5_4 Mn7_4 1_555 1_555
O7_4 C75_4 1_555 1_555
O9_4 C60_4 1_555 1_555
O11_4 C45_4 1_555 1_555
O11_4 Mn8_2 1_555 1_555
C8_4 C12_4 1_555 1_555
C9_4 C10_4 1_555 1_555
C10_4 C11_4 1_555 1_555
C11_4 C12_4 1_555 1_555
C14_4 C15_4 1_555 1_555
C23_4 C27_4 1_555 1_555
C24_4 C25_4 1_555 1_555
C25_4 C26_4 1_555 1_555
C26_4 C27_4 1_555 1_555
C29_4 C30_4 1_555 1_555
C38_4 C42_4 1_555 1_555
C39_4 C40_4 1_555 1_555
C40_4 C41_4 1_555 1_555
C41_4 C42_4 1_555 1_555
C44_4 C45_4 1_555 1_555
C53_4 C57_4 1_555 1_555
C54_4 C55_4 1_555 1_555
C55_4 C56_4 1_555 1_555
C56_4 C57_4 1_555 1_555
C59_4 C60_4 1_555 1_555
C68_4 C72_4 1_555 1_555
C69_4 C70_4 1_555 1_555
C70_4 C71_4 1_555 1_555
C71_4 C72_4 1_555 1_555
C74_4 C75_4 1_555 1_555
O14_4 C110_4 1_555 1_555
O16_4 C125_4 1_555 1_555
O18_4 C170_4 1_555 1_555
O20_4 C155_4 1_555 1_555
O22_4 C140_4 1_555 1_555
C103_4 C107_4 1_555 1_555
C104_4 C105_4 1_555 1_555
C105_4 C106_4 1_555 1_555
C106_4 C107_4 1_555 1_555
C109_4 C110_4 1_555 1_555
C118_4 C122_4 1_555 1_555
C119_4 C120_4 1_555 1_555
C120_4 C121_4 1_555 1_555
C121_4 C122_4 1_555 1_555
C124_4 C125_4 1_555 1_555
C133_4 C137_4 1_555 1_555
C139_4 C140_4 1_555 1_555
C148_4 C152_4 1_555 1_555
C149_4 C150_4 1_555 1_555
C150_4 C151_4 1_555 1_555
C151_4 C152_4 1_555 1_555
C154_4 C155_4 1_555 1_555
C163_4 C167_4 1_555 1_555
C164_4 C165_4 1_555 1_555
C165_4 C166_4 1_555 1_555
C166_4 C167_4 1_555 1_555
C169_4 C170_4 1_555 1_555
C35_3 H29_3 1_555 1_555
C36_3 C35_3 1_555 1_555
H30_3 C36_3 1_555 1_555
C50_3 H41_3 1_555 1_555
C51_3 C50_3 1_555 1_555
H42_3 C51_3 1_555 1_555
C52_3 C51_3 1_555 1_555
H43_3 C52_3 1_555 1_555
H106_3 C131_3 1_555 1_555
C145_3 H117_3 1_555 1_555
C146_3 C145_3 1_555 1_555
H118_3 C146_3 1_555 1_555
C147_3 C146_3 1_555 1_555
H119_3 C147_3 1_555 1_555
C130_3 H105_3 1_555 1_555
C130_4 H105_4 1_555 1_555
C35_4 H29_4 1_555 1_555
C36_4 C35_4 1_555 1_555
H30_4 C36_4 1_555 1_555
C50_4 H41_4 1_555 1_555
C51_4 C50_4 1_555 1_555
H42_4 C51_4 1_555 1_555
C52_4 C51_4 1_555 1_555
H43_4 C52_4 1_555 1_555
H106_4 C131_4 1_555 1_555
C145_4 H117_4 1_555 1_555
C146_4 C145_4 1_555 1_555
H118_4 C146_4 1_555 1_555
C147_4 C146_4 1_555 1_555
H119_4 C147_4 1_555 1_555

#END
