
###############################################################################
#
# This file contains modified crystal structure data generated from the
# MOF subset of the Cambridge Structural Database (CSD) v543 
# hosted by the Cambridge Crystallographic Data Centre (CCDC).
#
# This work is licensed under the Creative Commons
# Attribution-NonCommercial-ShareAlike 4.0 International License.
# To view a copy of this license, visit
# http://creativecommons.org/licenses/by-nc-sa/4.0/
# or send a letter to
# Creative Commons, PO Box 1866, Mountain View, CA 94042, USA.
#
# CIF created using the CSD Python API on 29 September 2022
# The structure has been converted into the P1 space group
# The structure has a 3D framework
# The original CSD entry XUJNOI is in the monoclinic crystal system
# The framework has been calculated to contain at least 10.0% void space
# The void calculation uses a probe of radius 1.32A, grid spacing 0.4
# The framework is charged, counterions have been retained in the structure
#
###############################################################################

data_XUJNOI
_chemical_formula_moiety         '(C176 H64 B6 Cu2 F64 N16 4-)n'
_symmetry_cell_setting           triclinic
_symmetry_space_group_name_H-M   'P 1'
_symmetry_Int_Tables_number      1
_space_group_name_Hall           'P 1'
loop_
_symmetry_equiv_pos_site_id
_symmetry_equiv_pos_as_xyz
1 x,y,z
_cell_length_a                   15.6357(11)
_cell_length_b                   29.2695(12)
_cell_length_c                   16.0766(7)
_cell_angle_alpha                90
_cell_angle_beta                 98.025(2)
_cell_angle_gamma                90
_cell_volume                     7285.39
loop_
_atom_site_label
_atom_site_type_symbol
_atom_site_fract_x
_atom_site_fract_y
_atom_site_fract_z
N4 N 0.1527(3) 0.05347(16) 0.5111(3)
C40 C 0.0293(4) 0.11999(18) 0.5179(4)
C41 C 0.1031(4) 0.12574(17) 0.5585(3)
H13 H 0.1151 0.1522 0.5922
C42 C 0.1684(4) 0.0927(2) 0.5539(4)
H14 H 0.2249 0.0985 0.5819
C43 C 0.0751(4) 0.04701(19) 0.4734(4)
H15 H 0.0627 0.019 0.4444
C44 C 0.0070(4) 0.0794(2) 0.4726(4)
F14 F 0.0019(2) 0.17695(11) 0.6576(2)
Cu4 Cu 0.250 0.00990(3) 0.5
Cu1 Cu 0.750 0.50990(3) 0.0
N5 N 0.7610(3) 0.46722(15) 0.1007(3)
N7 N 0.6527(3) 0.55347(16) 0.0111(3)
Cu1_2 Cu 0.750 0.50990(3) 1.0
N1 N 0.7390(3) 0.46722(15) 0.8993(3)
N2 N 0.3473(3) 0.05347(16) 0.4889(3)
B1 B 0.750 0.2630(3) 0.500
C1 C 0.7472(4) 0.29835(17) 0.5786(3)
C2 C 0.8166(4) 0.32626(19) 0.6062(3)
C3 C 0.8186(4) 0.35941(18) 0.6672(3)
C4 C 0.7452(4) 0.36817(17) 0.7065(3)
C5 C 0.6725(4) 0.34099(19) 0.6770(4)
C6 C 0.6743(4) 0.30876(19) 0.6172(4)
C7 C 0.7433(3) 0.40336(18) 0.7726(3)
C8 C 0.7020(4) 0.39400(19) 0.8417(4)
H1 H 0.6748 0.3653 0.8467
C9 C 0.7007(4) 0.42696(19) 0.9032(4)
H2 H 0.6714 0.4206 0.9498
C10 C 0.7787(4) 0.4753(2) 0.8326(4)
H3 H 0.8061 0.5041 0.8292
C11 C 0.7823(4) 0.44567(18) 0.7706(4)
H4 H 0.8117 0.4536 0.7248
C12 C 0.6681(4) 0.22727(17) 0.4903(4)
C13 C 0.6128(4) 0.21677(18) 0.4210(4)
C14 C 0.5490(4) 0.18379(19) 0.4166(4)
C15 C 0.5396(4) 0.15686(17) 0.4851(4)
C16 C 0.5977(4) 0.16698(19) 0.5589(4)
C17 C 0.6571(4) 0.19920(18) 0.5603(4)
C18 C 0.4707(4) 0.11999(18) 0.4821(4)
C19 C 0.3969(4) 0.12574(17) 0.4415(3)
H5 H 0.3849 0.1522 0.4078
C20 C 0.3316(4) 0.0927(2) 0.4461(4)
H6 H 0.2751 0.0985 0.4181
C21 C 0.4249(4) 0.04701(19) 0.5266(4)
H7 H 0.4373 0.019 0.5556
C22 C 0.4930(4) 0.0794(2) 0.5274(4)
H8 H 0.5494 0.0741 0.5563
F1 F 0.89086(19) 0.32153(10) 0.57164(19)
F2 F 0.8913(2) 0.38368(10) 0.68854(19)
F3 F 0.59901(19) 0.34737(10) 0.7095(2)
F4 F 0.5997(2) 0.28587(10) 0.5960(2)
F5 F 0.6148(2) 0.23907(10) 0.34384(19)
F6 F 0.4981(2) 0.17695(11) 0.3424(2)
F7 F 0.5895(2) 0.14409(11) 0.6299(2)
F8 F 0.7071(2) 0.20696(10) 0.6326(2)
C23 C 0.7528(4) 0.29835(17) 0.4214(3)
C24 C 0.6834(4) 0.32626(19) 0.3938(3)
C25 C 0.6814(4) 0.35941(18) 0.3328(3)
C26 C 0.7548(4) 0.36817(17) 0.2935(3)
C27 C 0.8275(4) 0.34099(19) 0.3230(4)
C28 C 0.8257(4) 0.30876(19) 0.3828(4)
C29 C 0.7567(3) 0.40336(18) 0.2274(3)
C30 C 0.7980(4) 0.39400(19) 0.1583(4)
H9 H 0.8252 0.3653 0.1533
C31 C 0.7993(4) 0.42696(19) 0.0968(4)
H10 H 0.8286 0.4206 0.0502
C32 C 0.7213(4) 0.4753(2) 0.1674(4)
H11 H 0.6939 0.5041 0.1708
C33 C 0.7177(4) 0.44567(18) 0.2294(4)
H12 H 0.6883 0.4536 0.2752
C34 C 0.8319(4) 0.22727(17) 0.5097(4)
C35 C 0.8872(4) 0.21677(18) 0.5790(4)
C36 C 0.9510(4) 0.18379(19) 0.5834(4)
C37 C 0.9604(4) 0.15686(17) 0.5149(4)
C38 C 0.9023(4) 0.16698(19) 0.4411(4)
C39 C 0.8429(4) 0.19920(18) 0.4397(4)
H16 H 0.9506 0.0741 0.4437
F9 F 0.60914(19) 0.32153(10) 0.42836(19)
F10 F 0.6087(2) 0.38368(10) 0.31146(19)
F11 F 0.90099(19) 0.34737(10) 0.2905(2)
F12 F 0.9003(2) 0.28587(10) 0.4040(2)
F13 F 0.8852(2) 0.23907(10) 0.65616(19)
F15 F 0.9105(2) 0.14409(11) 0.3701(2)
F16 F 0.7929(2) 0.20696(10) 0.3674(2)
N6 N 0.8473(3) 0.55347(16) 0.9889(3)
H3_2 H 0.3061 0.0041 0.3292
H11_2 H 0.1939 0.0041 0.6708
N1_2 N 0.2390(3) 0.96722(15) 0.3993(3)
B1_2 B 0.250 0.7630(3) 0.000
C1_2 C 0.2472(4) 0.79835(17) 0.0786(3)
C2_2 C 0.3166(4) 0.82626(19) 0.1062(3)
C3_2 C 0.3186(4) 0.85941(18) 0.1672(3)
C4_2 C 0.2452(4) 0.86817(17) 0.2065(3)
C5_2 C 0.1725(4) 0.84099(19) 0.1770(4)
C6_2 C 0.1743(4) 0.80876(19) 0.1172(4)
C7_2 C 0.2433(3) 0.90336(18) 0.2726(3)
C8_2 C 0.2020(4) 0.89400(19) 0.3417(4)
H1_2 H 0.1748 0.8653 0.3467
C9_2 C 0.2007(4) 0.92696(19) 0.4032(4)
H2_2 H 0.1714 0.9206 0.4498
C10_2 C 0.2787(4) 0.9753(2) 0.3326(4)
C11_2 C 0.2823(4) 0.94567(18) 0.2706(4)
H4_2 H 0.3117 0.9536 0.2248
C16_2 C 0.0977(4) 0.66698(19) 0.0589(4)
C17_2 C 0.1571(4) 0.69920(18) 0.0603(4)
H8_2 H 0.0494 0.5741 0.0563
F1_2 F 0.39086(19) 0.82153(10) 0.07164(19)
F2_2 F 0.3913(2) 0.88368(10) 0.18854(19)
F3_2 F 0.09901(19) 0.84737(10) 0.2095(2)
F4_2 F 0.0997(2) 0.78587(10) 0.0960(2)
F7_2 F 0.0895(2) 0.64409(11) 0.1299(2)
F8_2 F 0.2071(2) 0.70696(10) 0.1326(2)
C34_2 C 0.3319(4) 0.72727(17) 0.0097(4)
C35_2 C 0.3872(4) 0.71677(18) 0.0790(4)
C36_2 C 0.4510(4) 0.68379(19) 0.0834(4)
C37_2 C 0.4604(4) 0.65686(17) 0.0149(4)
C40_2 C 0.5293(4) 0.61999(18) 0.0179(4)
C41_2 C 0.6031(4) 0.62574(17) 0.0585(3)
H13_2 H 0.6151 0.6522 0.0922
C42_2 C 0.6684(4) 0.5927(2) 0.0539(4)
H14_2 H 0.7249 0.5985 0.0819
F13_2 F 0.3852(2) 0.73907(10) 0.15616(19)
F14_2 F 0.5019(2) 0.67695(11) 0.1576(2)
N5_2 N 0.2610(3) 0.96722(15) 0.6007(3)
B1_3 B 0.250 0.7630(3) 1.000
C12_2 C 0.1681(4) 0.72727(17) 0.9903(4)
C13_2 C 0.1128(4) 0.71677(18) 0.9210(4)
C14_2 C 0.0490(4) 0.68379(19) 0.9166(4)
C15_2 C 0.0396(4) 0.65686(17) 0.9851(4)
F5_2 F 0.1148(2) 0.73907(10) 0.84384(19)
C23_2 C 0.2528(4) 0.79835(17) 0.9214(3)
C24_2 C 0.1834(4) 0.82626(19) 0.8938(3)
C25_2 C 0.1814(4) 0.85941(18) 0.8328(3)
C26_2 C 0.2548(4) 0.86817(17) 0.7935(3)
C27_2 C 0.3275(4) 0.84099(19) 0.8230(4)
C28_2 C 0.3257(4) 0.80876(19) 0.8828(4)
C29_2 C 0.2567(3) 0.90336(18) 0.7274(3)
C30_2 C 0.2980(4) 0.89400(19) 0.6583(4)
H9_2 H 0.3252 0.8653 0.6533
C31_2 C 0.2993(4) 0.92696(19) 0.5968(4)
H10_2 H 0.3286 0.9206 0.5502
C32_2 C 0.2213(4) 0.9753(2) 0.6674(4)
C33_2 C 0.2177(4) 0.94567(18) 0.7294(4)
H12_2 H 0.1883 0.9536 0.7752
C38_2 C 0.4023(4) 0.66698(19) 0.9411(4)
C39_2 C 0.3429(4) 0.69920(18) 0.9397(4)
C43_2 C 0.5751(4) 0.54701(19) 0.9734(4)
H15_2 H 0.5627 0.519 0.9444
C44_2 C 0.5070(4) 0.5794(2) 0.9726(4)
H16_2 H 0.4506 0.5741 0.9437
F9_2 F 0.10914(19) 0.82153(10) 0.92836(19)
F10_2 F 0.1087(2) 0.88368(10) 0.81146(19)
F11_2 F 0.40099(19) 0.84737(10) 0.7905(2)
F12_2 F 0.4003(2) 0.78587(10) 0.9040(2)
F15_2 F 0.4105(2) 0.64409(11) 0.8701(2)
F16_2 F 0.2929(2) 0.70696(10) 0.8674(2)
C21_2 C 0.9249(4) 0.54701(19) 0.0266(4)
H7_2 H 0.9373 0.519 0.0556
C22_2 C 0.9930(4) 0.5794(2) 0.0274(4)
C18_2 C 0.9707(4) 0.61999(18) 0.9821(4)
C19_2 C 0.8969(4) 0.62574(17) 0.9415(3)
H5_2 H 0.8849 0.6522 0.9078
C20_2 C 0.8316(4) 0.5927(2) 0.9461(4)
H6_2 H 0.7751 0.5985 0.9181
F6_2 F 0.9981(2) 0.67695(11) 0.8424(2)
Cu2 Cu 0.250 0.49010(3) 0.0
N1_3 N 0.2610(3) 0.53278(15) 0.1007(3)
N2_2 N 0.6527(3) 0.94653(16) 0.5111(3)
B1_4 B 0.250 0.7370(3) 0.500
C1_3 C 0.2528(4) 0.70165(17) 0.4214(3)
C2_3 C 0.1834(4) 0.67374(19) 0.3938(3)
C3_3 C 0.1814(4) 0.64059(18) 0.3328(3)
C4_3 C 0.2548(4) 0.63183(17) 0.2935(3)
C5_3 C 0.3275(4) 0.65901(19) 0.3230(4)
C6_3 C 0.3257(4) 0.69124(19) 0.3828(4)
C7_3 C 0.2567(3) 0.59664(18) 0.2274(3)
C8_3 C 0.2980(4) 0.60600(19) 0.1583(4)
H1_3 H 0.3252 0.6347 0.1533
C9_3 C 0.2993(4) 0.57304(19) 0.0968(4)
H2_3 H 0.3286 0.5794 0.0502
C10_3 C 0.2213(4) 0.5247(2) 0.1674(4)
H3_3 H 0.1939 0.4959 0.1708
C11_3 C 0.2177(4) 0.55433(18) 0.2294(4)
H4_3 H 0.1883 0.5464 0.2752
C12_3 C 0.3319(4) 0.77273(17) 0.5097(4)
C13_3 C 0.3872(4) 0.78323(18) 0.5790(4)
C14_3 C 0.4510(4) 0.81621(19) 0.5834(4)
C15_3 C 0.4604(4) 0.84314(17) 0.5149(4)
C16_3 C 0.4023(4) 0.83302(19) 0.4411(4)
C17_3 C 0.3429(4) 0.80080(18) 0.4397(4)
C18_3 C 0.5293(4) 0.88001(18) 0.5179(4)
C19_3 C 0.6031(4) 0.87426(17) 0.5585(3)
H5_3 H 0.6151 0.8478 0.5922
C20_3 C 0.6684(4) 0.9073(2) 0.5539(4)
H6_3 H 0.7249 0.9015 0.5819
C21_3 C 0.5751(4) 0.95299(19) 0.4734(4)
H7_3 H 0.5627 0.981 0.4444
C22_3 C 0.5070(4) 0.9206(2) 0.4726(4)
H8_3 H 0.4506 0.9259 0.4437
F1_3 F 0.10914(19) 0.67847(10) 0.42836(19)
F2_3 F 0.1087(2) 0.61632(10) 0.31146(19)
F3_3 F 0.40099(19) 0.65263(10) 0.2905(2)
F4_3 F 0.4003(2) 0.71413(10) 0.4040(2)
F5_3 F 0.3852(2) 0.76093(10) 0.65616(19)
F6_3 F 0.5019(2) 0.82305(11) 0.6576(2)
F7_3 F 0.4105(2) 0.85591(11) 0.3701(2)
F8_3 F 0.2929(2) 0.79304(10) 0.3674(2)
N3 N 0.2390(3) 0.53278(15) 0.8993(3)
C23_3 C 0.2472(4) 0.70165(17) 0.5786(3)
C24_3 C 0.3166(4) 0.67374(19) 0.6062(3)
C25_3 C 0.3186(4) 0.64059(18) 0.6672(3)
C26_3 C 0.2452(4) 0.63183(17) 0.7065(3)
C27_3 C 0.1725(4) 0.65901(19) 0.6770(4)
C28_3 C 0.1743(4) 0.69124(19) 0.6172(4)
C29_3 C 0.2433(3) 0.59664(18) 0.7726(3)
C30_3 C 0.2020(4) 0.60600(19) 0.8417(4)
H9_3 H 0.1748 0.6347 0.8467
C31_3 C 0.2007(4) 0.57304(19) 0.9032(4)
H10_3 H 0.1714 0.5794 0.9498
C32_3 C 0.2787(4) 0.5247(2) 0.8326(4)
H11_3 H 0.3061 0.4959 0.8292
C33_3 C 0.2823(4) 0.55433(18) 0.7706(4)
H12_3 H 0.3117 0.5464 0.7248
C34_3 C 0.1681(4) 0.77273(17) 0.4903(4)
C35_3 C 0.1128(4) 0.78323(18) 0.4210(4)
C36_3 C 0.0490(4) 0.81621(19) 0.4166(4)
C37_3 C 0.0396(4) 0.84314(17) 0.4851(4)
C38_3 C 0.0977(4) 0.83302(19) 0.5589(4)
C39_3 C 0.1571(4) 0.80080(18) 0.5603(4)
H16_3 H 0.0494 0.9259 0.5563
F9_3 F 0.39086(19) 0.67847(10) 0.57164(19)
F10_3 F 0.3913(2) 0.61632(10) 0.68854(19)
F11_3 F 0.09901(19) 0.65263(10) 0.7095(2)
F12_3 F 0.0997(2) 0.71413(10) 0.5960(2)
F13_3 F 0.1148(2) 0.76093(10) 0.34384(19)
F15_3 F 0.0895(2) 0.85591(11) 0.6299(2)
F16_3 F 0.2071(2) 0.79304(10) 0.6326(2)
Cu2_2 Cu 0.250 0.49010(3) 1.0
Cu3 Cu 0.750 0.99010(3) 0.5
N6_2 N 0.1527(3) 0.44653(16) 0.0111(3)
N7_2 N 0.3473(3) 0.44653(16) 0.9889(3)
N4_2 N 0.8473(3) 0.94653(16) 0.4889(3)
C40_3 C 0.9707(4) 0.88001(18) 0.4821(4)
C41_3 C 0.8969(4) 0.87426(17) 0.4415(3)
H13_3 H 0.8849 0.8478 0.4078
C42_3 C 0.8316(4) 0.9073(2) 0.4461(4)
H14_3 H 0.7751 0.9015 0.4181
C43_3 C 0.9249(4) 0.95299(19) 0.5266(4)
H15_3 H 0.9373 0.981 0.5556
C44_3 C 0.9930(4) 0.9206(2) 0.5274(4)
F14_3 F 0.9981(2) 0.82305(11) 0.3424(2)
C18_4 C 0.0293(4) 0.38001(18) 0.0179(4)
C19_4 C 0.1031(4) 0.37426(17) 0.0585(3)
H5_4 H 0.1151 0.3478 0.0922
C20_4 C 0.1684(4) 0.4073(2) 0.0539(4)
H6_4 H 0.2249 0.4015 0.0819
F6_4 F 0.0019(2) 0.32305(11) 0.1576(2)
C21_4 C 0.0751(4) 0.45299(19) 0.9734(4)
H7_4 H 0.0627 0.481 0.9444
C22_4 C 0.0070(4) 0.4206(2) 0.9726(4)
B1_5 B 0.750 0.2370(3) 0.000
C12_4 C 0.8319(4) 0.27273(17) 0.0097(4)
C13_4 C 0.8872(4) 0.28323(18) 0.0790(4)
C14_4 C 0.9510(4) 0.31621(19) 0.0834(4)
C15_4 C 0.9604(4) 0.34314(17) 0.0149(4)
F5_4 F 0.8852(2) 0.26093(10) 0.15616(19)
N3_2 N 0.7390(3) 0.03278(15) 0.3993(3)
C23_4 C 0.7472(4) 0.20165(17) 0.0786(3)
C24_4 C 0.8166(4) 0.17374(19) 0.1062(3)
C25_4 C 0.8186(4) 0.14059(18) 0.1672(3)
C26_4 C 0.7452(4) 0.13183(17) 0.2065(3)
C27_4 C 0.6725(4) 0.15901(19) 0.1770(4)
C28_4 C 0.6743(4) 0.19124(19) 0.1172(4)
C29_4 C 0.7433(3) 0.09664(18) 0.2726(3)
C30_4 C 0.7020(4) 0.10600(19) 0.3417(4)
H9_4 H 0.6748 0.1347 0.3467
C31_4 C 0.7007(4) 0.07304(19) 0.4032(4)
H10_4 H 0.6714 0.0794 0.4498
C32_4 C 0.7787(4) 0.0247(2) 0.3326(4)
C33_4 C 0.7823(4) 0.05433(18) 0.2706(4)
H12_4 H 0.8117 0.0464 0.2248
C38_4 C 0.5977(4) 0.33302(19) 0.0589(4)
C39_4 C 0.6571(4) 0.30080(18) 0.0603(4)
C43_4 C 0.4249(4) 0.45299(19) 0.0266(4)
H15_4 H 0.4373 0.481 0.0556
C44_4 C 0.4930(4) 0.4206(2) 0.0274(4)
H16_4 H 0.5494 0.4259 0.0563
F9_4 F 0.89086(19) 0.17847(10) 0.07164(19)
F10_4 F 0.8913(2) 0.11632(10) 0.18854(19)
F11_4 F 0.59901(19) 0.15263(10) 0.2095(2)
F12_4 F 0.5997(2) 0.21413(10) 0.0960(2)
F15_4 F 0.5895(2) 0.35591(11) 0.1299(2)
F16_4 F 0.7071(2) 0.29304(10) 0.1326(2)
N1_4 N 0.7610(3) 0.03278(15) 0.6007(3)
B1_6 B 0.750 0.2370(3) 1.000
C1_4 C 0.7528(4) 0.20165(17) 0.9214(3)
C2_4 C 0.6834(4) 0.17374(19) 0.8938(3)
C3_4 C 0.6814(4) 0.14059(18) 0.8328(3)
C4_4 C 0.7548(4) 0.13183(17) 0.7935(3)
C5_4 C 0.8275(4) 0.15901(19) 0.8230(4)
C6_4 C 0.8257(4) 0.19124(19) 0.8828(4)
C7_4 C 0.7567(3) 0.09664(18) 0.7274(3)
C8_4 C 0.7980(4) 0.10600(19) 0.6583(4)
H1_4 H 0.8252 0.1347 0.6533
C9_4 C 0.7993(4) 0.07304(19) 0.5968(4)
H2_4 H 0.8286 0.0794 0.5502
C10_4 C 0.7213(4) 0.0247(2) 0.6674(4)
C11_4 C 0.7177(4) 0.05433(18) 0.7294(4)
H4_4 H 0.6883 0.0464 0.7752
C16_4 C 0.9023(4) 0.33302(19) 0.9411(4)
C17_4 C 0.8429(4) 0.30080(18) 0.9397(4)
H8_4 H 0.9506 0.4259 0.9437
F1_4 F 0.60914(19) 0.17847(10) 0.92836(19)
F2_4 F 0.6087(2) 0.11632(10) 0.81146(19)
F3_4 F 0.90099(19) 0.15263(10) 0.7905(2)
F4_4 F 0.9003(2) 0.21413(10) 0.9040(2)
F7_4 F 0.9105(2) 0.35591(11) 0.8701(2)
F8_4 F 0.7929(2) 0.29304(10) 0.8674(2)
C34_4 C 0.6681(4) 0.27273(17) 0.9903(4)
C35_4 C 0.6128(4) 0.28323(18) 0.9210(4)
C36_4 C 0.5490(4) 0.31621(19) 0.9166(4)
C37_4 C 0.5396(4) 0.34314(17) 0.9851(4)
C40_4 C 0.4707(4) 0.38001(18) 0.9821(4)
C41_4 C 0.3969(4) 0.37426(17) 0.9415(3)
H13_4 H 0.3849 0.3478 0.9078
C42_4 C 0.3316(4) 0.4073(2) 0.9461(4)
H14_4 H 0.2751 0.4015 0.9181
F13_4 F 0.6148(2) 0.26093(10) 0.84384(19)
F14_4 F 0.4981(2) 0.32305(11) 0.8424(2)
H11_4 H 0.8061 0.9959 0.3292
H3_4 H 0.6939 0.9959 0.6708
loop_
_geom_bond_atom_site_label_1
_geom_bond_atom_site_label_2
_geom_bond_site_symmetry_1
_geom_bond_site_symmetry_2
N4 C42 1_555 1_555
C41 C40 1_555 1_555
H13 C41 1_555 1_555
C42 C41 1_555 1_555
H14 C42 1_555 1_555
C43 N4 1_555 1_555
H15 C43 1_555 1_555
C44 C40 1_555 1_555
Cu4 N4 1_555 1_555
C43 C44 1_555 1_555
N5 Cu1 1_555 1_555
N7 Cu1 1_555 1_555
Cu1_2 N1 1_555 1_555
N1 C9 1_555 1_555
N2 C20 1_555 1_555
B1 C1 1_555 1_555
C1 C2 1_555 1_555
C2 C3 1_555 1_555
C3 C4 1_555 1_555
C4 C5 1_555 1_555
C5 C6 1_555 1_555
C6 C1 1_555 1_555
C7 C4 1_555 1_555
C8 C7 1_555 1_555
H1 C8 1_555 1_555
C9 C8 1_555 1_555
H2 C9 1_555 1_555
C10 N1 1_555 1_555
H3 C10 1_555 1_555
C11 C7 1_555 1_555
H4 C11 1_555 1_555
C12 B1 1_555 1_555
C13 C12 1_555 1_555
C14 C13 1_555 1_555
C15 C14 1_555 1_555
C16 C15 1_555 1_555
C17 C12 1_555 1_555
C18 C15 1_555 1_555
C19 C18 1_555 1_555
H5 C19 1_555 1_555
C20 C19 1_555 1_555
H6 C20 1_555 1_555
C21 N2 1_555 1_555
H7 C21 1_555 1_555
C22 C18 1_555 1_555
H8 C22 1_555 1_555
F1 C2 1_555 1_555
F2 C3 1_555 1_555
F3 C5 1_555 1_555
F4 C6 1_555 1_555
F5 C13 1_555 1_555
F6 C14 1_555 1_555
F7 C16 1_555 1_555
F8 C17 1_555 1_555
N5 C31 1_555 1_555
C23 B1 1_555 1_555
C24 C23 1_555 1_555
C25 C24 1_555 1_555
C26 C25 1_555 1_555
C27 C26 1_555 1_555
C28 C23 1_555 1_555
C29 C26 1_555 1_555
C30 C29 1_555 1_555
H9 C30 1_555 1_555
C31 C30 1_555 1_555
H10 C31 1_555 1_555
C32 N5 1_555 1_555
H11 C32 1_555 1_555
C33 C29 1_555 1_555
H12 C33 1_555 1_555
C34 B1 1_555 1_555
C35 C34 1_555 1_555
C36 C35 1_555 1_555
C37 C36 1_555 1_555
C38 C37 1_555 1_555
C39 C34 1_555 1_555
F9 C24 1_555 1_555
F10 C25 1_555 1_555
F11 C27 1_555 1_555
F12 C28 1_555 1_555
F13 C35 1_555 1_555
F15 C38 1_555 1_555
F16 C39 1_555 1_555
Cu4 N2 1_555 1_555
N6 Cu1_2 1_555 1_555
C10 C11 1_555 1_555
C16 C17 1_555 1_555
C21 C22 1_555 1_555
C27 C28 1_555 1_555
C32 C33 1_555 1_555
C38 C39 1_555 1_555
N1_2 C9_2 1_555 1_555
B1_2 C1_2 1_555 1_555
C1_2 C2_2 1_555 1_555
C2_2 C3_2 1_555 1_555
C3_2 C4_2 1_555 1_555
C4_2 C5_2 1_555 1_555
C5_2 C6_2 1_555 1_555
C6_2 C1_2 1_555 1_555
C7_2 C4_2 1_555 1_555
C8_2 C7_2 1_555 1_555
H1_2 C8_2 1_555 1_555
C9_2 C8_2 1_555 1_555
H2_2 C9_2 1_555 1_555
C10_2 N1_2 1_555 1_555
C11_2 C7_2 1_555 1_555
H4_2 C11_2 1_555 1_555
F1_2 C2_2 1_555 1_555
F2_2 C3_2 1_555 1_555
F3_2 C5_2 1_555 1_555
F4_2 C6_2 1_555 1_555
F7_2 C16_2 1_555 1_555
F8_2 C17_2 1_555 1_555
N7 C42_2 1_555 1_555
C34_2 B1_2 1_555 1_555
C35_2 C34_2 1_555 1_555
C36_2 C35_2 1_555 1_555
C37_2 C36_2 1_555 1_555
C40_2 C37_2 1_555 1_555
C41_2 C40_2 1_555 1_555
H13_2 C41_2 1_555 1_555
C42_2 C41_2 1_555 1_555
H14_2 C42_2 1_555 1_555
F13_2 C35_2 1_555 1_555
F14_2 C36_2 1_555 1_555
C10_2 C11_2 1_555 1_555
C16_2 C17_2 1_555 1_555
C12_2 B1_3 1_555 1_555
C13_2 C12_2 1_555 1_555
C14_2 C13_2 1_555 1_555
C15_2 C14_2 1_555 1_555
F5_2 C13_2 1_555 1_555
N5_2 C31_2 1_555 1_555
C23_2 B1_3 1_555 1_555
C24_2 C23_2 1_555 1_555
C25_2 C24_2 1_555 1_555
C26_2 C25_2 1_555 1_555
C27_2 C26_2 1_555 1_555
C28_2 C23_2 1_555 1_555
C29_2 C26_2 1_555 1_555
C30_2 C29_2 1_555 1_555
H9_2 C30_2 1_555 1_555
C31_2 C30_2 1_555 1_555
H10_2 C31_2 1_555 1_555
C32_2 N5_2 1_555 1_555
C33_2 C29_2 1_555 1_555
H12_2 C33_2 1_555 1_555
H15_2 C43_2 1_555 1_555
H16_2 C44_2 1_555 1_555
F9_2 C24_2 1_555 1_555
F10_2 C25_2 1_555 1_555
F11_2 C27_2 1_555 1_555
F12_2 C28_2 1_555 1_555
F15_2 C38_2 1_555 1_555
F16_2 C39_2 1_555 1_555
C27_2 C28_2 1_555 1_555
C32_2 C33_2 1_555 1_555
C38_2 C39_2 1_555 1_555
C43_2 C44_2 1_555 1_555
H7_2 C21_2 1_555 1_555
C21_2 C22_2 1_555 1_555
N6 C20_2 1_555 1_555
C19_2 C18_2 1_555 1_555
H5_2 C19_2 1_555 1_555
C20_2 C19_2 1_555 1_555
H6_2 C20_2 1_555 1_555
Cu2 N1_3 1_555 1_555
N1_3 C9_3 1_555 1_555
N2_2 C20_3 1_555 1_555
B1_4 C1_3 1_555 1_555
C1_3 C2_3 1_555 1_555
C2_3 C3_3 1_555 1_555
C3_3 C4_3 1_555 1_555
C4_3 C5_3 1_555 1_555
C5_3 C6_3 1_555 1_555
C6_3 C1_3 1_555 1_555
C7_3 C4_3 1_555 1_555
C8_3 C7_3 1_555 1_555
H1_3 C8_3 1_555 1_555
C9_3 C8_3 1_555 1_555
H2_3 C9_3 1_555 1_555
C10_3 N1_3 1_555 1_555
H3_3 C10_3 1_555 1_555
C11_3 C7_3 1_555 1_555
H4_3 C11_3 1_555 1_555
C12_3 B1_4 1_555 1_555
C13_3 C12_3 1_555 1_555
C14_3 C13_3 1_555 1_555
C15_3 C14_3 1_555 1_555
C16_3 C15_3 1_555 1_555
C17_3 C12_3 1_555 1_555
C18_3 C15_3 1_555 1_555
C19_3 C18_3 1_555 1_555
H5_3 C19_3 1_555 1_555
C20_3 C19_3 1_555 1_555
H6_3 C20_3 1_555 1_555
C21_3 N2_2 1_555 1_555
H7_3 C21_3 1_555 1_555
C22_3 C18_3 1_555 1_555
H8_3 C22_3 1_555 1_555
F1_3 C2_3 1_555 1_555
F2_3 C3_3 1_555 1_555
F3_3 C5_3 1_555 1_555
F4_3 C6_3 1_555 1_555
F5_3 C13_3 1_555 1_555
F6_3 C14_3 1_555 1_555
F7_3 C16_3 1_555 1_555
F8_3 C17_3 1_555 1_555
N3 C31_3 1_555 1_555
C23_3 B1_4 1_555 1_555
C24_3 C23_3 1_555 1_555
C25_3 C24_3 1_555 1_555
C26_3 C25_3 1_555 1_555
C27_3 C26_3 1_555 1_555
C28_3 C23_3 1_555 1_555
C29_3 C26_3 1_555 1_555
C30_3 C29_3 1_555 1_555
H9_3 C30_3 1_555 1_555
C31_3 C30_3 1_555 1_555
H10_3 C31_3 1_555 1_555
C32_3 N3 1_555 1_555
H11_3 C32_3 1_555 1_555
C33_3 C29_3 1_555 1_555
H12_3 C33_3 1_555 1_555
C34_3 B1_4 1_555 1_555
C35_3 C34_3 1_555 1_555
C36_3 C35_3 1_555 1_555
C37_3 C36_3 1_555 1_555
C38_3 C37_3 1_555 1_555
C39_3 C34_3 1_555 1_555
F9_3 C24_3 1_555 1_555
F10_3 C25_3 1_555 1_555
F11_3 C27_3 1_555 1_555
F12_3 C28_3 1_555 1_555
F13_3 C35_3 1_555 1_555
F15_3 C38_3 1_555 1_555
F16_3 C39_3 1_555 1_555
Cu2_2 N3 1_555 1_555
Cu3 N2_2 1_555 1_555
N6_2 Cu2 1_555 1_555
C10_3 C11_3 1_555 1_555
C16_3 C17_3 1_555 1_555
C21_3 C22_3 1_555 1_555
C27_3 C28_3 1_555 1_555
C32_3 C33_3 1_555 1_555
C38_3 C39_3 1_555 1_555
N7_2 Cu2_2 1_555 1_555
N4_2 C42_3 1_555 1_555
C41_3 C40_3 1_555 1_555
H13_3 C41_3 1_555 1_555
C42_3 C41_3 1_555 1_555
H14_3 C42_3 1_555 1_555
C43_3 N4_2 1_555 1_555
H15_3 C43_3 1_555 1_555
C44_3 C40_3 1_555 1_555
Cu3 N4_2 1_555 1_555
C43_3 C44_3 1_555 1_555
N6_2 C20_4 1_555 1_555
C19_4 C18_4 1_555 1_555
H5_4 C19_4 1_555 1_555
C20_4 C19_4 1_555 1_555
H6_4 C20_4 1_555 1_555
H7_4 C21_4 1_555 1_555
C21_4 C22_4 1_555 1_555
C12_4 B1_5 1_555 1_555
C13_4 C12_4 1_555 1_555
C14_4 C13_4 1_555 1_555
C15_4 C14_4 1_555 1_555
F5_4 C13_4 1_555 1_555
N3_2 C31_4 1_555 1_555
C23_4 B1_5 1_555 1_555
C24_4 C23_4 1_555 1_555
C25_4 C24_4 1_555 1_555
C26_4 C25_4 1_555 1_555
C27_4 C26_4 1_555 1_555
C28_4 C23_4 1_555 1_555
C29_4 C26_4 1_555 1_555
C30_4 C29_4 1_555 1_555
H9_4 C30_4 1_555 1_555
C31_4 C30_4 1_555 1_555
H10_4 C31_4 1_555 1_555
C32_4 N3_2 1_555 1_555
C33_4 C29_4 1_555 1_555
H12_4 C33_4 1_555 1_555
H15_4 C43_4 1_555 1_555
H16_4 C44_4 1_555 1_555
F9_4 C24_4 1_555 1_555
F10_4 C25_4 1_555 1_555
F11_4 C27_4 1_555 1_555
F12_4 C28_4 1_555 1_555
F15_4 C38_4 1_555 1_555
F16_4 C39_4 1_555 1_555
C27_4 C28_4 1_555 1_555
C32_4 C33_4 1_555 1_555
C38_4 C39_4 1_555 1_555
C43_4 C44_4 1_555 1_555
N1_4 C9_4 1_555 1_555
B1_6 C1_4 1_555 1_555
C1_4 C2_4 1_555 1_555
C2_4 C3_4 1_555 1_555
C3_4 C4_4 1_555 1_555
C4_4 C5_4 1_555 1_555
C5_4 C6_4 1_555 1_555
C6_4 C1_4 1_555 1_555
C7_4 C4_4 1_555 1_555
C8_4 C7_4 1_555 1_555
H1_4 C8_4 1_555 1_555
C9_4 C8_4 1_555 1_555
H2_4 C9_4 1_555 1_555
C10_4 N1_4 1_555 1_555
C11_4 C7_4 1_555 1_555
H4_4 C11_4 1_555 1_555
F1_4 C2_4 1_555 1_555
F2_4 C3_4 1_555 1_555
F3_4 C5_4 1_555 1_555
F4_4 C6_4 1_555 1_555
F7_4 C16_4 1_555 1_555
F8_4 C17_4 1_555 1_555
N7_2 C42_4 1_555 1_555
C34_4 B1_6 1_555 1_555
C35_4 C34_4 1_555 1_555
C36_4 C35_4 1_555 1_555
C37_4 C36_4 1_555 1_555
C40_4 C37_4 1_555 1_555
C41_4 C40_4 1_555 1_555
H13_4 C41_4 1_555 1_555
C42_4 C41_4 1_555 1_555
H14_4 C42_4 1_555 1_555
F13_4 C35_4 1_555 1_555
F14_4 C36_4 1_555 1_555
C10_4 C11_4 1_555 1_555
C16_4 C17_4 1_555 1_555

#END
