
###############################################################################
#
# This file contains modified crystal structure data generated from the
# MOF subset of the Cambridge Structural Database (CSD) v543 
# hosted by the Cambridge Crystallographic Data Centre (CCDC).
#
# This work is licensed under the Creative Commons
# Attribution-NonCommercial-ShareAlike 4.0 International License.
# To view a copy of this license, visit
# http://creativecommons.org/licenses/by-nc-sa/4.0/
# or send a letter to
# Creative Commons, PO Box 1866, Mountain View, CA 94042, USA.
#
# CIF created using the CSD Python API on 29 September 2022
# The structure has been converted into the P1 space group
# The structure has a 3D framework
# The original CSD entry XUJNUO is in the monoclinic crystal system
# The framework has been calculated to contain at least 10.0% void space
# The void calculation uses a probe of radius 1.32A, grid spacing 0.4
# The framework is charged, counterions have been retained in the structure
#
###############################################################################

data_XUJNUO
_chemical_formula_moiety         '(C176 H64 Ag4 B6 F64 N16 2-)n'
_symmetry_cell_setting           triclinic
_symmetry_space_group_name_H-M   'P 1'
_symmetry_Int_Tables_number      1
_space_group_name_Hall           'P 1'
loop_
_symmetry_equiv_pos_site_id
_symmetry_equiv_pos_as_xyz
1 x,y,z
_cell_length_a                   15.197(3)
_cell_length_b                   30.954(4)
_cell_length_c                   16.340(2)
_cell_angle_alpha                90
_cell_angle_beta                 100.440(2)
_cell_angle_gamma                90
_cell_volume                     7559.22
loop_
_atom_site_label
_atom_site_type_symbol
_atom_site_fract_x
_atom_site_fract_y
_atom_site_fract_z
F12 F 0.0052(2) 0.67463(10) 0.6620(2)
N3 N 0.1439(4) 0.55411(17) 0.5198(4)
C23 C 0.0591(5) 0.5512(2) 0.4817(4)
H9 H 0.039561 0.525192 0.453401
C25 C 0.0255(5) 0.62251(19) 0.5217(4)
C26 C 0.1129(5) 0.62549(19) 0.5627(4)
H11 H 0.133484 0.65127 0.5915
C27 C 0.1698(5) 0.5916(2) 0.5620(4)
H12 H 0.229408 0.59404 0.591729
Ag2 Ag 0.250 0.50402(2) 0.500
Ag4 Ag 0.750 0.00402(2) 0.000
Ag4_2 Ag 0.750 0.00402(2) 1.000
F1 F 0.5866(2) 0.65016(10) 0.6260(2)
F2 F 0.7061(2) 0.71112(10) 0.6316(2)
F3 F 0.6121(2) 0.73639(9) 0.3432(2)
F4 F 0.4948(2) 0.67463(10) 0.3380(2)
F5 F 0.5968(2) 0.84381(10) 0.6995(2)
F6 F 0.5955(2) 0.78538(10) 0.5870(2)
F7 F 0.9015(2) 0.87331(10) 0.6956(2)
F8 F 0.8995(2) 0.81536(10) 0.5791(2)
N1 N 0.3561(4) 0.55411(17) 0.4802(4)
N2 N 0.7442(3) 0.95571(14) 0.8925(3)
C1 C 0.4409(5) 0.5512(2) 0.5183(4)
H1 H 0.460439 0.525192 0.546599
C2 C 0.5011(5) 0.58391(19) 0.5188(4)
H2 H 0.561097 0.580318 0.546798
C3 C 0.4745(5) 0.62251(19) 0.4783(4)
C4 C 0.3871(5) 0.62549(19) 0.4373(4)
H3 H 0.366516 0.65127 0.4085
C5 C 0.3302(5) 0.5916(2) 0.4380(4)
H4 H 0.270592 0.59404 0.408271
C6 C 0.5377(4) 0.65838(17) 0.4816(4)
C7 C 0.5942(4) 0.67071(19) 0.5547(4)
C8 C 0.6544(4) 0.70313(18) 0.5568(4)
C9 C 0.6658(4) 0.72836(16) 0.4886(4)
C10 C 0.6081(4) 0.71626(17) 0.4167(4)
C11 C 0.5461(4) 0.68356(18) 0.4125(4)
C12 C 0.7030(4) 0.91715(19) 0.8947(4)
H5 H 0.671613 0.911407 0.938825
C13 C 0.7049(4) 0.88624(18) 0.8357(4)
H6 H 0.676287 0.859271 0.840159
C14 C 0.7480(4) 0.89365(16) 0.7694(4)
C15 C 0.7900(4) 0.93403(18) 0.7679(4)
H7 H 0.820208 0.941052 0.723588
C16 C 0.7875(4) 0.96329(18) 0.8305(4)
H8 H 0.817916 0.990023 0.829407
C17 C 0.7488(4) 0.86105(17) 0.7035(4)
C18 C 0.6751(4) 0.83648(18) 0.6728(4)
C19 C 0.6758(4) 0.80578(18) 0.6128(4)
C20 C 0.7495(4) 0.79594(16) 0.5785(3)
C21 C 0.8224(4) 0.82050(17) 0.6102(3)
C22 C 0.8230(4) 0.85153(17) 0.6687(3)
B1 B 0.750 0.7617(3) 0.500
F9 F 0.9134(2) 0.65016(10) 0.3740(2)
F10 F 0.7939(2) 0.71112(10) 0.3684(2)
F11 F 0.8879(2) 0.73639(9) 0.6568(2)
F13 F 0.9032(2) 0.84381(10) 0.3005(2)
F14 F 0.9045(2) 0.78538(10) 0.4130(2)
F15 F 0.5985(2) 0.87331(10) 0.3044(2)
F16 F 0.6005(2) 0.81536(10) 0.4209(2)
N4 N 0.7558(3) 0.95571(14) 0.1075(3)
C24 C 0.9989(5) 0.58391(19) 0.4812(4)
H10 H 0.938903 0.580318 0.453202
C28 C 0.9623(4) 0.65838(17) 0.5184(4)
C29 C 0.9058(4) 0.67071(19) 0.4453(4)
C30 C 0.8456(4) 0.70313(18) 0.4432(4)
C31 C 0.8342(4) 0.72836(16) 0.5114(4)
C32 C 0.8919(4) 0.71626(17) 0.5833(4)
C33 C 0.9539(4) 0.68356(18) 0.5875(4)
C34 C 0.7970(4) 0.91715(19) 0.1053(4)
H13 H 0.828387 0.911407 0.061175
C35 C 0.7951(4) 0.88624(18) 0.1643(4)
H14 H 0.823713 0.859271 0.159841
C36 C 0.7520(4) 0.89365(16) 0.2306(4)
C37 C 0.7100(4) 0.93403(18) 0.2321(4)
H15 H 0.679792 0.941052 0.276412
C38 C 0.7125(4) 0.96329(18) 0.1695(4)
H16 H 0.682084 0.990023 0.170593
C39 C 0.7512(4) 0.86105(17) 0.2965(4)
C40 C 0.8249(4) 0.83648(18) 0.3272(4)
C41 C 0.8242(4) 0.80578(18) 0.3872(4)
C42 C 0.7505(4) 0.79594(16) 0.4215(3)
C43 C 0.6776(4) 0.82050(17) 0.3898(3)
C44 C 0.6770(4) 0.85153(17) 0.3313(3)
N6 N 0.2442(3) 0.45571(14) 0.3925(3)
N7 N 0.2558(3) 0.45571(14) 0.6075(3)
F1_2 F 0.0866(2) 0.15016(10) 0.1260(2)
F2_2 F 0.2061(2) 0.21112(10) 0.1316(2)
F5_2 F 0.0968(2) 0.34381(10) 0.1995(2)
F6_2 F 0.0955(2) 0.28538(10) 0.0870(2)
F7_2 F 0.4015(2) 0.37331(10) 0.1956(2)
F8_2 F 0.3995(2) 0.31536(10) 0.0791(2)
C2_2 C 0.0011(5) 0.08391(19) 0.0188(4)
H2_2 H 0.061097 0.080318 0.046798
C7_2 C 0.0942(4) 0.17071(19) 0.0547(4)
C8_2 C 0.1544(4) 0.20313(18) 0.0568(4)
C12_2 C 0.2030(4) 0.41715(19) 0.3947(4)
H5_2 H 0.171613 0.411407 0.438825
C13_2 C 0.2049(4) 0.38624(18) 0.3357(4)
H6_2 H 0.176287 0.359271 0.340159
C14_2 C 0.2480(4) 0.39365(16) 0.2694(4)
C15_2 C 0.2900(4) 0.43403(18) 0.2679(4)
H7_2 H 0.320208 0.441052 0.223588
C16_2 C 0.2875(4) 0.46329(18) 0.3305(4)
H8_2 H 0.317916 0.490023 0.329407
C17_2 C 0.2488(4) 0.36105(17) 0.2035(4)
C18_2 C 0.1751(4) 0.33648(18) 0.1728(4)
C19_2 C 0.1758(4) 0.30578(18) 0.1128(4)
C20_2 C 0.2495(4) 0.29594(16) 0.0785(3)
C21_2 C 0.3224(4) 0.32050(17) 0.1102(3)
C22_2 C 0.3230(4) 0.35153(17) 0.1687(3)
B1_2 B 0.250 0.2617(3) 0.000
F11_2 F 0.3879(2) 0.23639(9) 0.1568(2)
F12_2 F 0.5052(2) 0.17463(10) 0.1620(2)
N3_2 N 0.6439(4) 0.05411(17) 0.0198(4)
C25_2 C 0.5255(5) 0.12251(19) 0.0217(4)
C26_2 C 0.6129(5) 0.12549(19) 0.0627(4)
H11_2 H 0.633484 0.15127 0.0915
C27_2 C 0.6698(5) 0.0916(2) 0.0620(4)
H12_2 H 0.729408 0.09404 0.091729
C28_2 C 0.4623(4) 0.15838(17) 0.0184(4)
C31_2 C 0.3342(4) 0.22836(16) 0.0114(4)
C32_2 C 0.3919(4) 0.21626(17) 0.0833(4)
C33_2 C 0.4539(4) 0.18356(18) 0.0875(4)
F3_2 F 0.1121(2) 0.23639(9) 0.8432(2)
C6_2 C 0.0377(4) 0.15838(17) 0.9816(4)
C9_2 C 0.1658(4) 0.22836(16) 0.9886(4)
C10_2 C 0.1081(4) 0.21626(17) 0.9167(4)
C11_2 C 0.0461(4) 0.18356(18) 0.9125(4)
B1_3 B 0.250 0.2617(3) 1.000
F9_2 F 0.4134(2) 0.15016(10) 0.8740(2)
F10_2 F 0.2939(2) 0.21112(10) 0.8684(2)
F13_2 F 0.4032(2) 0.34381(10) 0.8005(2)
F14_2 F 0.4045(2) 0.28538(10) 0.9130(2)
F15_2 F 0.0985(2) 0.37331(10) 0.8044(2)
F16_2 F 0.1005(2) 0.31536(10) 0.9209(2)
C23_2 C 0.5591(5) 0.0512(2) 0.9817(4)
H9_2 H 0.539561 0.025192 0.953401
C24_2 C 0.4989(5) 0.08391(19) 0.9812(4)
H10_2 H 0.438903 0.080318 0.953202
C29_2 C 0.4058(4) 0.17071(19) 0.9453(4)
C30_2 C 0.3456(4) 0.20313(18) 0.9432(4)
C34_2 C 0.2970(4) 0.41715(19) 0.6053(4)
H13_2 H 0.328387 0.411407 0.561175
C35_2 C 0.2951(4) 0.38624(18) 0.6643(4)
H14_2 H 0.323713 0.359271 0.659841
C36_2 C 0.2520(4) 0.39365(16) 0.7306(4)
C37_2 C 0.2100(4) 0.43403(18) 0.7321(4)
H15_2 H 0.179792 0.441052 0.776412
C38_2 C 0.2125(4) 0.46329(18) 0.6695(4)
H16_2 H 0.182084 0.490023 0.670593
C39_2 C 0.2512(4) 0.36105(17) 0.7965(4)
C40_2 C 0.3249(4) 0.33648(18) 0.8272(4)
C41_2 C 0.3242(4) 0.30578(18) 0.8872(4)
C42_2 C 0.2505(4) 0.29594(16) 0.9215(3)
C43_2 C 0.1776(4) 0.32050(17) 0.8898(3)
C44_2 C 0.1770(4) 0.35153(17) 0.8313(3)
C1_2 C 0.9409(5) 0.0512(2) 0.0183(4)
H1_2 H 0.960439 0.025192 0.046599
F4_2 F 0.9948(2) 0.17463(10) 0.8380(2)
N1_2 N 0.8561(4) 0.05411(17) 0.9802(4)
C3_2 C 0.9745(5) 0.12251(19) 0.9783(4)
C4_2 C 0.8871(5) 0.12549(19) 0.9373(4)
H3_2 H 0.866516 0.15127 0.9085
C5_2 C 0.8302(5) 0.0916(2) 0.9380(4)
H4_2 H 0.770592 0.09404 0.908271
Ag1 Ag 0.750 0.49598(2) 0.500
F1_3 F 0.4134(2) 0.34984(10) 0.3740(2)
F2_3 F 0.2939(2) 0.28888(10) 0.3684(2)
F3_3 F 0.3879(2) 0.26361(9) 0.6568(2)
F4_3 F 0.5052(2) 0.32537(10) 0.6620(2)
F5_3 F 0.4032(2) 0.15619(10) 0.3005(2)
F6_3 F 0.4045(2) 0.21462(10) 0.4130(2)
F7_3 F 0.0985(2) 0.12669(10) 0.3044(2)
F8_3 F 0.1005(2) 0.18464(10) 0.4209(2)
N1_3 N 0.6439(4) 0.44589(17) 0.5198(4)
N2_2 N 0.2558(3) 0.04429(14) 0.1075(3)
C1_3 C 0.5591(5) 0.4488(2) 0.4817(4)
H1_3 H 0.539561 0.474808 0.453401
C2_3 C 0.4989(5) 0.41609(19) 0.4812(4)
H2_3 H 0.438903 0.419682 0.453202
C3_3 C 0.5255(5) 0.37749(19) 0.5217(4)
C4_3 C 0.6129(5) 0.37451(19) 0.5627(4)
H3_3 H 0.633484 0.34873 0.5915
C5_3 C 0.6698(5) 0.4084(2) 0.5620(4)
H4_3 H 0.729408 0.40596 0.591729
C6_3 C 0.4623(4) 0.34162(17) 0.5184(4)
C7_3 C 0.4058(4) 0.32929(19) 0.4453(4)
C8_3 C 0.3456(4) 0.29687(18) 0.4432(4)
C9_3 C 0.3342(4) 0.27164(16) 0.5114(4)
C10_3 C 0.3919(4) 0.28374(17) 0.5833(4)
C11_3 C 0.4539(4) 0.31644(18) 0.5875(4)
C12_3 C 0.2970(4) 0.08285(19) 0.1053(4)
H5_3 H 0.328387 0.088593 0.061175
C13_3 C 0.2951(4) 0.11376(18) 0.1643(4)
H6_3 H 0.323713 0.140729 0.159841
C14_3 C 0.2520(4) 0.10635(16) 0.2306(4)
C15_3 C 0.2100(4) 0.06597(18) 0.2321(4)
H7_3 H 0.179792 0.058948 0.276412
C16_3 C 0.2125(4) 0.03671(18) 0.1695(4)
H8_3 H 0.182084 0.009977 0.170593
C17_3 C 0.2512(4) 0.13895(17) 0.2965(4)
C18_3 C 0.3249(4) 0.16352(18) 0.3272(4)
C19_3 C 0.3242(4) 0.19422(18) 0.3872(4)
C20_3 C 0.2505(4) 0.20406(16) 0.4215(3)
C21_3 C 0.1776(4) 0.17950(17) 0.3898(3)
C22_3 C 0.1770(4) 0.14847(17) 0.3313(3)
B1_4 B 0.250 0.2383(3) 0.500
F9_3 F 0.0866(2) 0.34984(10) 0.6260(2)
F10_3 F 0.2061(2) 0.28888(10) 0.6316(2)
F11_3 F 0.1121(2) 0.26361(9) 0.3432(2)
F13_3 F 0.0968(2) 0.15619(10) 0.6995(2)
F14_3 F 0.0955(2) 0.21462(10) 0.5870(2)
F15_3 F 0.4015(2) 0.12669(10) 0.6956(2)
F16_3 F 0.3995(2) 0.18464(10) 0.5791(2)
N4_2 N 0.2442(3) 0.04429(14) 0.8925(3)
C24_3 C 0.0011(5) 0.41609(19) 0.5188(4)
H10_3 H 0.061097 0.419682 0.546798
C28_3 C 0.0377(4) 0.34162(17) 0.4816(4)
C29_3 C 0.0942(4) 0.32929(19) 0.5547(4)
C30_3 C 0.1544(4) 0.29687(18) 0.5568(4)
C31_3 C 0.1658(4) 0.27164(16) 0.4886(4)
C32_3 C 0.1081(4) 0.28374(17) 0.4167(4)
C33_3 C 0.0461(4) 0.31644(18) 0.4125(4)
C34_3 C 0.2030(4) 0.08285(19) 0.8947(4)
H13_3 H 0.171613 0.088593 0.938825
C35_3 C 0.2049(4) 0.11376(18) 0.8357(4)
H14_3 H 0.176287 0.140729 0.840159
C36_3 C 0.2480(4) 0.10635(16) 0.7694(4)
C37_3 C 0.2900(4) 0.06597(18) 0.7679(4)
H15_3 H 0.320208 0.058948 0.723588
C38_3 C 0.2875(4) 0.03671(18) 0.8305(4)
H16_3 H 0.317916 0.009977 0.829407
C39_3 C 0.2488(4) 0.13895(17) 0.7035(4)
C40_3 C 0.1751(4) 0.16352(18) 0.6728(4)
C41_3 C 0.1758(4) 0.19422(18) 0.6128(4)
C42_3 C 0.2495(4) 0.20406(16) 0.5785(3)
C43_3 C 0.3224(4) 0.17950(17) 0.6102(3)
C44_3 C 0.3230(4) 0.14847(17) 0.6687(3)
N5 N 0.8561(4) 0.44589(17) 0.4802(4)
N6_2 N 0.7558(3) 0.54429(14) 0.6075(3)
N7_2 N 0.7442(3) 0.54429(14) 0.3925(3)
Ag3 Ag 0.250 0.99598(2) 0.000
Ag3_2 Ag 0.250 0.99598(2) 1.000
F12_3 F 0.9948(2) 0.32537(10) 0.3380(2)
C23_3 C 0.9409(5) 0.4488(2) 0.5183(4)
H9_3 H 0.960439 0.474808 0.546599
C25_3 C 0.9745(5) 0.37749(19) 0.4783(4)
C26_3 C 0.8871(5) 0.37451(19) 0.4373(4)
H11_3 H 0.866516 0.34873 0.4085
C27_3 C 0.8302(5) 0.4084(2) 0.4380(4)
H12_3 H 0.770592 0.40596 0.408271
F4_4 F 0.0052(2) 0.82537(10) 0.1620(2)
N1_4 N 0.1439(4) 0.94589(17) 0.0198(4)
C3_4 C 0.0255(5) 0.87749(19) 0.0217(4)
C4_4 C 0.1129(5) 0.87451(19) 0.0627(4)
H3_4 H 0.133484 0.84873 0.0915
C5_4 C 0.1698(5) 0.9084(2) 0.0620(4)
H4_4 H 0.229408 0.90596 0.091729
C1_4 C 0.0591(5) 0.9488(2) 0.9817(4)
H1_4 H 0.039561 0.974808 0.953401
N5_2 N 0.3561(4) 0.94589(17) 0.9802(4)
F3_4 F 0.8879(2) 0.76361(9) 0.1568(2)
C6_4 C 0.9623(4) 0.84162(17) 0.0184(4)
C9_4 C 0.8342(4) 0.77164(16) 0.0114(4)
C10_4 C 0.8919(4) 0.78374(17) 0.0833(4)
C11_4 C 0.9539(4) 0.81644(18) 0.0875(4)
B1_5 B 0.750 0.7383(3) 0.000
F9_4 F 0.5866(2) 0.84984(10) 0.1260(2)
F10_4 F 0.7061(2) 0.78888(10) 0.1316(2)
F13_4 F 0.5968(2) 0.65619(10) 0.1995(2)
F14_4 F 0.5955(2) 0.71462(10) 0.0870(2)
F15_4 F 0.9015(2) 0.62669(10) 0.1956(2)
F16_4 F 0.8995(2) 0.68464(10) 0.0791(2)
C23_4 C 0.4409(5) 0.9488(2) 0.0183(4)
H9_4 H 0.460439 0.974808 0.046599
C24_4 C 0.5011(5) 0.91609(19) 0.0188(4)
H10_4 H 0.561097 0.919682 0.046798
C29_4 C 0.5942(4) 0.82929(19) 0.0547(4)
C30_4 C 0.6544(4) 0.79687(18) 0.0568(4)
C34_4 C 0.7030(4) 0.58285(19) 0.3947(4)
H13_4 H 0.671613 0.588593 0.438825
C35_4 C 0.7049(4) 0.61376(18) 0.3357(4)
H14_4 H 0.676287 0.640729 0.340159
C36_4 C 0.7480(4) 0.60635(16) 0.2694(4)
C37_4 C 0.7900(4) 0.56597(18) 0.2679(4)
H15_4 H 0.820208 0.558948 0.223588
C38_4 C 0.7875(4) 0.53671(18) 0.3305(4)
H16_4 H 0.817916 0.509977 0.329407
C39_4 C 0.7488(4) 0.63895(17) 0.2035(4)
C40_4 C 0.6751(4) 0.66352(18) 0.1728(4)
C41_4 C 0.6758(4) 0.69422(18) 0.1128(4)
C42_4 C 0.7495(4) 0.70406(16) 0.0785(3)
C43_4 C 0.8224(4) 0.67950(17) 0.1102(3)
C44_4 C 0.8230(4) 0.64847(17) 0.1687(3)
F1_4 F 0.9134(2) 0.84984(10) 0.8740(2)
F2_4 F 0.7939(2) 0.78888(10) 0.8684(2)
F5_4 F 0.9032(2) 0.65619(10) 0.8005(2)
F6_4 F 0.9045(2) 0.71462(10) 0.9130(2)
F7_4 F 0.5985(2) 0.62669(10) 0.8044(2)
F8_4 F 0.6005(2) 0.68464(10) 0.9209(2)
C2_4 C 0.9989(5) 0.91609(19) 0.9812(4)
H2_4 H 0.938903 0.919682 0.953202
C7_4 C 0.9058(4) 0.82929(19) 0.9453(4)
C8_4 C 0.8456(4) 0.79687(18) 0.9432(4)
C12_4 C 0.7970(4) 0.58285(19) 0.6053(4)
H5_4 H 0.828387 0.588593 0.561175
C13_4 C 0.7951(4) 0.61376(18) 0.6643(4)
H6_4 H 0.823713 0.640729 0.659841
C14_4 C 0.7520(4) 0.60635(16) 0.7306(4)
C15_4 C 0.7100(4) 0.56597(18) 0.7321(4)
H7_4 H 0.679792 0.558948 0.776412
C16_4 C 0.7125(4) 0.53671(18) 0.6695(4)
H8_4 H 0.682084 0.509977 0.670593
C17_4 C 0.7512(4) 0.63895(17) 0.7965(4)
C18_4 C 0.8249(4) 0.66352(18) 0.8272(4)
C19_4 C 0.8242(4) 0.69422(18) 0.8872(4)
C20_4 C 0.7505(4) 0.70406(16) 0.9215(3)
C21_4 C 0.6776(4) 0.67950(17) 0.8898(3)
C22_4 C 0.6770(4) 0.64847(17) 0.8313(3)
B1_6 B 0.750 0.7383(3) 1.000
F11_4 F 0.6121(2) 0.76361(9) 0.8432(2)
F12_4 F 0.4948(2) 0.82537(10) 0.8380(2)
C25_4 C 0.4745(5) 0.87749(19) 0.9783(4)
C26_4 C 0.3871(5) 0.87451(19) 0.9373(4)
H11_4 H 0.366516 0.84873 0.9085
C27_4 C 0.3302(5) 0.9084(2) 0.9380(4)
H12_4 H 0.270592 0.90596 0.908271
C28_4 C 0.5377(4) 0.84162(17) 0.9816(4)
C31_4 C 0.6658(4) 0.77164(16) 0.9886(4)
C32_4 C 0.6081(4) 0.78374(17) 0.9167(4)
C33_4 C 0.5461(4) 0.81644(18) 0.9125(4)
loop_
_geom_bond_atom_site_label_1
_geom_bond_atom_site_label_2
_geom_bond_site_symmetry_1
_geom_bond_site_symmetry_2
N3 C23 1_555 1_555
C23 H9 1_555 1_555
C26 C25 1_555 1_555
H11 C26 1_555 1_555
C27 N3 1_555 1_555
H12 C27 1_555 1_555
Ag2 N3 1_555 1_555
C26 C27 1_555 1_555
Ag2 N1 1_555 1_555
F1 C7 1_555 1_555
F2 C8 1_555 1_555
F3 C10 1_555 1_555
F4 C11 1_555 1_555
F5 C18 1_555 1_555
F6 C19 1_555 1_555
F7 C22 1_555 1_555
F8 C21 1_555 1_555
N1 C1 1_555 1_555
N2 C12 1_555 1_555
C1 H1 1_555 1_555
C2 C1 1_555 1_555
H2 C2 1_555 1_555
C3 C2 1_555 1_555
C4 C3 1_555 1_555
H3 C4 1_555 1_555
C5 N1 1_555 1_555
H4 C5 1_555 1_555
C6 C3 1_555 1_555
C7 C6 1_555 1_555
C8 C7 1_555 1_555
C9 C8 1_555 1_555
C10 C9 1_555 1_555
C11 C6 1_555 1_555
C12 H5 1_555 1_555
C13 C12 1_555 1_555
H6 C13 1_555 1_555
C14 C13 1_555 1_555
C15 C14 1_555 1_555
H7 C15 1_555 1_555
C16 N2 1_555 1_555
H8 C16 1_555 1_555
C17 C14 1_555 1_555
C18 C17 1_555 1_555
C19 C18 1_555 1_555
C20 C19 1_555 1_555
C21 C20 1_555 1_555
C22 C17 1_555 1_555
B1 C9 1_555 1_555
F9 C29 1_555 1_555
F10 C30 1_555 1_555
F11 C32 1_555 1_555
F13 C40 1_555 1_555
F14 C41 1_555 1_555
F15 C44 1_555 1_555
F16 C43 1_555 1_555
N4 C34 1_555 1_555
H10 C24 1_555 1_555
C29 C28 1_555 1_555
C30 C29 1_555 1_555
C31 B1 1_555 1_555
C32 C31 1_555 1_555
C33 C28 1_555 1_555
C34 H13 1_555 1_555
C35 C34 1_555 1_555
H14 C35 1_555 1_555
C36 C35 1_555 1_555
C37 C36 1_555 1_555
H15 C37 1_555 1_555
C38 N4 1_555 1_555
H16 C38 1_555 1_555
C39 C36 1_555 1_555
C40 C39 1_555 1_555
C41 C40 1_555 1_555
C42 B1 1_555 1_555
C43 C42 1_555 1_555
C44 C39 1_555 1_555
N6 Ag2 1_555 1_555
N7 Ag2 1_555 1_555
C4 C5 1_555 1_555
C10 C11 1_555 1_555
C15 C16 1_555 1_555
C20 B1 1_555 1_555
C21 C22 1_555 1_555
C30 C31 1_555 1_555
C32 C33 1_555 1_555
C37 C38 1_555 1_555
C41 C42 1_555 1_555
C43 C44 1_555 1_555
F1_2 C7_2 1_555 1_555
F2_2 C8_2 1_555 1_555
F5_2 C18_2 1_555 1_555
F6_2 C19_2 1_555 1_555
F7_2 C22_2 1_555 1_555
F8_2 C21_2 1_555 1_555
N6 C12_2 1_555 1_555
H2_2 C2_2 1_555 1_555
C8_2 C7_2 1_555 1_555
C12_2 H5_2 1_555 1_555
C13_2 C12_2 1_555 1_555
H6_2 C13_2 1_555 1_555
C14_2 C13_2 1_555 1_555
C15_2 C14_2 1_555 1_555
H7_2 C15_2 1_555 1_555
C16_2 N6 1_555 1_555
H8_2 C16_2 1_555 1_555
C17_2 C14_2 1_555 1_555
C18_2 C17_2 1_555 1_555
C19_2 C18_2 1_555 1_555
C20_2 C19_2 1_555 1_555
C21_2 C20_2 1_555 1_555
C22_2 C17_2 1_555 1_555
F11_2 C32_2 1_555 1_555
F12_2 C33_2 1_555 1_555
C26_2 C25_2 1_555 1_555
H11_2 C26_2 1_555 1_555
C27_2 N3_2 1_555 1_555
H12_2 C27_2 1_555 1_555
C28_2 C25_2 1_555 1_555
C31_2 B1_2 1_555 1_555
C32_2 C31_2 1_555 1_555
C33_2 C28_2 1_555 1_555
Ag4 N3_2 1_555 1_555
C15_2 C16_2 1_555 1_555
C20_2 B1_2 1_555 1_555
C21_2 C22_2 1_555 1_555
C26_2 C27_2 1_555 1_555
C32_2 C33_2 1_555 1_555
F3_2 C10_2 1_555 1_555
C10_2 C9_2 1_555 1_555
C11_2 C6_2 1_555 1_555
B1_3 C9_2 1_555 1_555
F9_2 C29_2 1_555 1_555
F10_2 C30_2 1_555 1_555
F13_2 C40_2 1_555 1_555
F14_2 C41_2 1_555 1_555
F15_2 C44_2 1_555 1_555
F16_2 C43_2 1_555 1_555
N7 C34_2 1_555 1_555
C23_2 H9_2 1_555 1_555
C24_2 C23_2 1_555 1_555
H10_2 C24_2 1_555 1_555
C30_2 C29_2 1_555 1_555
C34_2 H13_2 1_555 1_555
C35_2 C34_2 1_555 1_555
H14_2 C35_2 1_555 1_555
C36_2 C35_2 1_555 1_555
C37_2 C36_2 1_555 1_555
H15_2 C37_2 1_555 1_555
C38_2 N7 1_555 1_555
H16_2 C38_2 1_555 1_555
C39_2 C36_2 1_555 1_555
C40_2 C39_2 1_555 1_555
C41_2 C40_2 1_555 1_555
C42_2 B1_3 1_555 1_555
C43_2 C42_2 1_555 1_555
C44_2 C39_2 1_555 1_555
C10_2 C11_2 1_555 1_555
C37_2 C38_2 1_555 1_555
C41_2 C42_2 1_555 1_555
C43_2 C44_2 1_555 1_555
C1_2 H1_2 1_555 1_555
Ag4_2 N1_2 1_555 1_555
C4_2 C3_2 1_555 1_555
H3_2 C4_2 1_555 1_555
C5_2 N1_2 1_555 1_555
H4_2 C5_2 1_555 1_555
C4_2 C5_2 1_555 1_555
Ag1 N1_3 1_555 1_555
F1_3 C7_3 1_555 1_555
F2_3 C8_3 1_555 1_555
F3_3 C10_3 1_555 1_555
F4_3 C11_3 1_555 1_555
F5_3 C18_3 1_555 1_555
F6_3 C19_3 1_555 1_555
F7_3 C22_3 1_555 1_555
F8_3 C21_3 1_555 1_555
N1_3 C1_3 1_555 1_555
N2_2 C12_3 1_555 1_555
C1_3 H1_3 1_555 1_555
C2_3 C1_3 1_555 1_555
H2_3 C2_3 1_555 1_555
C3_3 C2_3 1_555 1_555
C4_3 C3_3 1_555 1_555
H3_3 C4_3 1_555 1_555
C5_3 N1_3 1_555 1_555
H4_3 C5_3 1_555 1_555
C6_3 C3_3 1_555 1_555
C7_3 C6_3 1_555 1_555
C8_3 C7_3 1_555 1_555
C9_3 C8_3 1_555 1_555
C10_3 C9_3 1_555 1_555
C11_3 C6_3 1_555 1_555
C12_3 H5_3 1_555 1_555
C13_3 C12_3 1_555 1_555
H6_3 C13_3 1_555 1_555
C14_3 C13_3 1_555 1_555
C15_3 C14_3 1_555 1_555
H7_3 C15_3 1_555 1_555
C16_3 N2_2 1_555 1_555
H8_3 C16_3 1_555 1_555
C17_3 C14_3 1_555 1_555
C18_3 C17_3 1_555 1_555
C19_3 C18_3 1_555 1_555
C20_3 C19_3 1_555 1_555
C21_3 C20_3 1_555 1_555
C22_3 C17_3 1_555 1_555
B1_4 C9_3 1_555 1_555
F9_3 C29_3 1_555 1_555
F10_3 C30_3 1_555 1_555
F11_3 C32_3 1_555 1_555
F13_3 C40_3 1_555 1_555
F14_3 C41_3 1_555 1_555
F15_3 C44_3 1_555 1_555
F16_3 C43_3 1_555 1_555
N4_2 C34_3 1_555 1_555
H10_3 C24_3 1_555 1_555
C29_3 C28_3 1_555 1_555
C30_3 C29_3 1_555 1_555
C31_3 B1_4 1_555 1_555
C32_3 C31_3 1_555 1_555
C33_3 C28_3 1_555 1_555
C34_3 H13_3 1_555 1_555
C35_3 C34_3 1_555 1_555
H14_3 C35_3 1_555 1_555
C36_3 C35_3 1_555 1_555
C37_3 C36_3 1_555 1_555
H15_3 C37_3 1_555 1_555
C38_3 N4_2 1_555 1_555
H16_3 C38_3 1_555 1_555
C39_3 C36_3 1_555 1_555
C40_3 C39_3 1_555 1_555
C41_3 C40_3 1_555 1_555
C42_3 B1_4 1_555 1_555
C43_3 C42_3 1_555 1_555
C44_3 C39_3 1_555 1_555
N5 Ag1 1_555 1_555
N6_2 Ag1 1_555 1_555
N7_2 Ag1 1_555 1_555
C4_3 C5_3 1_555 1_555
C10_3 C11_3 1_555 1_555
C15_3 C16_3 1_555 1_555
C20_3 B1_4 1_555 1_555
C21_3 C22_3 1_555 1_555
C30_3 C31_3 1_555 1_555
C32_3 C33_3 1_555 1_555
C37_3 C38_3 1_555 1_555
C41_3 C42_3 1_555 1_555
C43_3 C44_3 1_555 1_555
N5 C23_3 1_555 1_555
C23_3 H9_3 1_555 1_555
C26_3 C25_3 1_555 1_555
H11_3 C26_3 1_555 1_555
C27_3 N5 1_555 1_555
H12_3 C27_3 1_555 1_555
C26_3 C27_3 1_555 1_555
Ag3 N1_4 1_555 1_555
C4_4 C3_4 1_555 1_555
H3_4 C4_4 1_555 1_555
C5_4 N1_4 1_555 1_555
H4_4 C5_4 1_555 1_555
C4_4 C5_4 1_555 1_555
C1_4 H1_4 1_555 1_555
N5_2 Ag3_2 1_555 1_555
F3_4 C10_4 1_555 1_555
C10_4 C9_4 1_555 1_555
C11_4 C6_4 1_555 1_555
B1_5 C9_4 1_555 1_555
F9_4 C29_4 1_555 1_555
F10_4 C30_4 1_555 1_555
F13_4 C40_4 1_555 1_555
F14_4 C41_4 1_555 1_555
F15_4 C44_4 1_555 1_555
F16_4 C43_4 1_555 1_555
N7_2 C34_4 1_555 1_555
C23_4 H9_4 1_555 1_555
C24_4 C23_4 1_555 1_555
H10_4 C24_4 1_555 1_555
C30_4 C29_4 1_555 1_555
C34_4 H13_4 1_555 1_555
C35_4 C34_4 1_555 1_555
H14_4 C35_4 1_555 1_555
C36_4 C35_4 1_555 1_555
C37_4 C36_4 1_555 1_555
H15_4 C37_4 1_555 1_555
C38_4 N7_2 1_555 1_555
H16_4 C38_4 1_555 1_555
C39_4 C36_4 1_555 1_555
C40_4 C39_4 1_555 1_555
C41_4 C40_4 1_555 1_555
C42_4 B1_5 1_555 1_555
C43_4 C42_4 1_555 1_555
C44_4 C39_4 1_555 1_555
C10_4 C11_4 1_555 1_555
C37_4 C38_4 1_555 1_555
C41_4 C42_4 1_555 1_555
C43_4 C44_4 1_555 1_555
F1_4 C7_4 1_555 1_555
F2_4 C8_4 1_555 1_555
F5_4 C18_4 1_555 1_555
F6_4 C19_4 1_555 1_555
F7_4 C22_4 1_555 1_555
F8_4 C21_4 1_555 1_555
N6_2 C12_4 1_555 1_555
H2_4 C2_4 1_555 1_555
C8_4 C7_4 1_555 1_555
C12_4 H5_4 1_555 1_555
C13_4 C12_4 1_555 1_555
H6_4 C13_4 1_555 1_555
C14_4 C13_4 1_555 1_555
C15_4 C14_4 1_555 1_555
H7_4 C15_4 1_555 1_555
C16_4 N6_2 1_555 1_555
H8_4 C16_4 1_555 1_555
C17_4 C14_4 1_555 1_555
C18_4 C17_4 1_555 1_555
C19_4 C18_4 1_555 1_555
C20_4 C19_4 1_555 1_555
C21_4 C20_4 1_555 1_555
C22_4 C17_4 1_555 1_555
F11_4 C32_4 1_555 1_555
F12_4 C33_4 1_555 1_555
C26_4 C25_4 1_555 1_555
H11_4 C26_4 1_555 1_555
C27_4 N5_2 1_555 1_555
H12_4 C27_4 1_555 1_555
C28_4 C25_4 1_555 1_555
C31_4 B1_6 1_555 1_555
C32_4 C31_4 1_555 1_555
C33_4 C28_4 1_555 1_555
C15_4 C16_4 1_555 1_555
C20_4 B1_6 1_555 1_555
C21_4 C22_4 1_555 1_555
C26_4 C27_4 1_555 1_555
C32_4 C33_4 1_555 1_555

#END
