
###############################################################################
#
# This file contains modified crystal structure data generated from the
# MOF subset of the Cambridge Structural Database (CSD) v543 
# hosted by the Cambridge Crystallographic Data Centre (CCDC).
#
# This work is licensed under the Creative Commons
# Attribution-NonCommercial-ShareAlike 4.0 International License.
# To view a copy of this license, visit
# http://creativecommons.org/licenses/by-nc-sa/4.0/
# or send a letter to
# Creative Commons, PO Box 1866, Mountain View, CA 94042, USA.
#
# CIF created using the CSD Python API on 29 September 2022
# The structure has been converted into the P1 space group
# The structure has a 3D framework
# The original CSD entry XUJNEY is in the monoclinic crystal system
# The framework has been calculated to contain at least 10.0% void space
# The void calculation uses a probe of radius 1.32A, grid spacing 0.4
# The framework is charged, counterions have been retained in the structure
#
###############################################################################

data_XUJNEY
_chemical_formula_moiety         '(C416 H144 B8 Cu8 F128 N32 O8)n'
_symmetry_cell_setting           triclinic
_symmetry_space_group_name_H-M   'P 1'
_symmetry_Int_Tables_number      1
_space_group_name_Hall           'P 1'
loop_
_symmetry_equiv_pos_site_id
_symmetry_equiv_pos_as_xyz
1 x,y,z
_cell_length_a                   29.313(3)
_cell_length_b                   20.394(2)
_cell_length_c                   38.674(4)
_cell_angle_alpha                90
_cell_angle_beta                 90.874(5)
_cell_angle_gamma                90
_cell_volume                     23117
loop_
_atom_site_label
_atom_site_type_symbol
_atom_site_fract_x
_atom_site_fract_y
_atom_site_fract_z
Cu1 Cu 0.08877(6) 0.69770(10) 0.42289(4)
N1 N 0.1317(4) 0.6777(7) 0.3820(3)
N2 N 0.5442(4) 0.2347(7) 0.3860(3)
B1 B 0.3631(5) 0.5059(9) 0.1728(4)
F1 F 0.2397(3) 0.4931(4) 0.25766(19)
F2 F 0.2911(2) 0.4442(5) 0.20814(18)
F3 F 0.3654(3) 0.6508(4) 0.19798(19)
F4 F 0.3139(3) 0.6970(5) 0.2474(2)
F5 F 0.4005(3) 0.2868(4) 0.22793(18)
F6 F 0.3592(2) 0.3547(4) 0.18017(16)
F7 F 0.4272(2) 0.5514(4) 0.22392(17)
F8 F 0.4657(2) 0.4838(4) 0.27406(17)
F9 F 0.3582(3) 0.3521(4) 0.07262(18)
F10 F 0.3991(2) 0.4126(4) 0.12460(15)
F11 F 0.2609(3) 0.5221(5) 0.15128(19)
F12 F 0.2213(2) 0.4667(4) 0.09889(18)
F13 F 0.5093(2) 0.5668(4) 0.11332(17)
F14 F 0.4657(2) 0.4981(4) 0.15920(17)
F15 F 0.3292(2) 0.6165(4) 0.13254(16)
F16 F 0.3739(3) 0.6863(5) 0.08613(19)
C1 C 0.1474(5) 0.6155(8) 0.3800(4)
H1 H 0.1383 0.5832 0.3962
C2 C 0.1780(5) 0.5993(8) 0.3528(4)
H2 H 0.1891 0.556 0.3496
C3 C 0.1905(5) 0.6508(9) 0.3314(4)
C4 C 0.1731(5) 0.7124(8) 0.3341(3)
H3 H 0.1819 0.7462 0.3187
C5 C 0.1414(5) 0.7246(8) 0.3606(4)
H4 H 0.1275 0.7664 0.3628
C6 C 0.2207(7) 0.6381(8) 0.3015(5)
C7 C 0.2445(6) 0.6179(8) 0.2825(4)
C8 C 0.2751(5) 0.5977(9) 0.2541(4)
C9 C 0.2711(5) 0.5314(9) 0.2430(4)
C10 C 0.2971(5) 0.5075(9) 0.2170(4)
C11 C 0.3296(5) 0.5443(9) 0.2004(3)
C12 C 0.3330(6) 0.6101(10) 0.2103(4)
C13 C 0.3065(6) 0.6364(10) 0.2391(4)
C14 C 0.5249(5) 0.1962(8) 0.3611(4)
H5 H 0.5289 0.15 0.362
C15 C 0.5001(6) 0.2237(9) 0.3352(4)
H6 H 0.4859 0.1976 0.3178
C16 C 0.4963(4) 0.2899(9) 0.3350(4)
C17 C 0.5144(4) 0.3314(8) 0.3592(4)
H7 H 0.5108 0.3776 0.3577
C18 C 0.5391(4) 0.3010(8) 0.3868(3)
H8 H 0.5516 0.3263 0.4053
C19 C 0.4733(5) 0.3178(8) 0.3055(4)
C20 C 0.4569(4) 0.3493(8) 0.2815(4)
C21 C 0.4357(5) 0.3856(9) 0.2518(4)
C22 C 0.4074(5) 0.3514(9) 0.2279(4)
C23 C 0.3870(5) 0.3907(9) 0.2022(4)
C24 C 0.3912(4) 0.4587(8) 0.1991(3)
C25 C 0.4202(5) 0.4913(9) 0.2231(4)
C26 C 0.4398(5) 0.4528(9) 0.2496(4)
C28 C 0.1615(5) 0.3785(8) 0.0091(3)
H10 H 0.1566 0.4087 0.0273
C29 C 0.2059(6) 0.3465(8) 0.0053(4)
C32 C 0.2407(5) 0.3603(8) 0.0314(4)
C33 C 0.2618(5) 0.3774(9) 0.0524(4)
C34 C 0.2861(5) 0.4029(8) 0.0804(4)
C35 C 0.3335(6) 0.3943(9) 0.0896(4)
C36 C 0.3545(5) 0.4261(8) 0.1202(4)
C37 C 0.3337(4) 0.4681(7) 0.1430(3)
C38 C 0.2859(5) 0.4840(9) 0.1336(4)
C39 C 0.2671(5) 0.4472(8) 0.1049(4)
C42 C 0.5080(5) 0.7095(9) 0.0195(4)
C43 C 0.5530(5) 0.6963(7) 0.0128(3)
H15 H 0.5687 0.667 0.0279
C45 C 0.4848(5) 0.6820(9) 0.0486(4)
C46 C 0.4670(5) 0.6658(9) 0.0698(4)
C47 C 0.4449(5) 0.6316(9) 0.0964(4)
C48 C 0.4637(5) 0.5806(8) 0.1184(3)
C49 C 0.4416(5) 0.5445(8) 0.1438(3)
C50 C 0.3957(5) 0.5527(7) 0.1485(3)
C51 C 0.3749(5) 0.6039(8) 0.1289(3)
C52 C 0.4007(6) 0.6391(9) 0.1044(4)
O1 O 0.0520(3) 0.5862(5) 0.4254(2)
H17 H 0.0321 0.5589 0.4336
H18 H 0.0793 0.5706 0.4287
Cu2 Cu 0.58877(6) 0.19770(10) 0.42289(4)
N5 N 0.0442(4) 0.7347(7) 0.3860(3)
N6 N 0.1382(4) 0.6717(7) 0.4599(3)
N7 N 0.0554(4) 0.7360(6) 0.4636(3)
N3 N 0.1382(4) 0.3283(7) 0.9599(3)
N4 N 0.5554(4) 0.7640(6) 0.9636(3)
C27 C 0.1270(6) 0.3642(10) 0.9859(4)
H9 H 0.0968 0.3798 0.9888
C30 C 0.2190(5) 0.3095(7) 0.9773(3)
H11 H 0.249 0.293 0.974
C31 C 0.1812(5) 0.2994(7) 0.9539(3)
H12 H 0.1852 0.2728 0.934
C40 C 0.5119(5) 0.7807(8) 0.9680(3)
H13 H 0.4977 0.8102 0.9521
C41 C 0.4869(5) 0.7559(8) 0.9955(3)
H14 H 0.4561 0.7692 0.9985
C44 C 0.5773(5) 0.7232(8) 0.9851(4)
H16 H 0.6085 0.7125 0.9818
Cu3 Cu 0.08877(6) 0.30230(10) 0.92289(4)
Cu4 Cu 0.58877(6) 0.80230(10) 0.92289(4)
N4_2 N 0.0554(4) 0.2640(6) 0.9636(3)
C40_2 C 0.0119(5) 0.2807(8) 0.9680(3)
C44_2 C 0.0773(5) 0.2232(8) 0.9851(4)
H16_2 H 0.1085 0.2125 0.9818
C14_2 C 0.0249(5) 0.6962(8) 0.3611(4)
H5_2 H 0.0289 0.65 0.362
C15_2 C 0.0001(6) 0.7237(9) 0.3352(4)
C17_2 C 0.0144(4) 0.8314(8) 0.3592(4)
H7_2 H 0.0108 0.8776 0.3577
C18_2 C 0.0391(4) 0.8010(8) 0.3868(3)
H8_2 H 0.0516 0.8263 0.4053
N1_2 N 0.6317(4) 0.1777(7) 0.3820(3)
B1_2 B 0.8631(5) 0.0059(9) 0.1728(4)
F3_2 F 0.8654(3) 0.1508(4) 0.19798(19)
F4_2 F 0.8139(3) 0.1970(5) 0.2474(2)
F7_2 F 0.9272(2) 0.0514(4) 0.22392(17)
F11_2 F 0.7609(3) 0.0221(5) 0.15128(19)
F15_2 F 0.8292(2) 0.1165(4) 0.13254(16)
F16_2 F 0.8739(3) 0.1863(5) 0.08613(19)
C1_2 C 0.6474(5) 0.1155(8) 0.3800(4)
H1_2 H 0.6383 0.0832 0.3962
C2_2 C 0.6780(5) 0.0993(8) 0.3528(4)
H2_2 H 0.6891 0.056 0.3496
C3_2 C 0.6905(5) 0.1508(9) 0.3314(4)
C4_2 C 0.6731(5) 0.2124(8) 0.3341(3)
H3_2 H 0.6819 0.2462 0.3187
C5_2 C 0.6414(5) 0.2246(8) 0.3606(4)
H4_2 H 0.6275 0.2664 0.3628
C6_2 C 0.7207(7) 0.1381(8) 0.3015(5)
C7_2 C 0.7445(6) 0.1179(8) 0.2825(4)
C8_2 C 0.7751(5) 0.0977(9) 0.2541(4)
C9_2 C 0.7711(5) 0.0314(9) 0.2430(4)
C10_2 C 0.7971(5) 0.0075(9) 0.2170(4)
C11_2 C 0.8296(5) 0.0443(9) 0.2004(3)
C12_2 C 0.8330(6) 0.1101(10) 0.2103(4)
C13_2 C 0.8065(6) 0.1364(10) 0.2391(4)
C45_2 C 0.9848(5) 0.1820(9) 0.0486(4)
C46_2 C 0.9670(5) 0.1658(9) 0.0698(4)
C47_2 C 0.9449(5) 0.1316(9) 0.0964(4)
C48_2 C 0.9637(5) 0.0806(8) 0.1184(3)
C49_2 C 0.9416(5) 0.0445(8) 0.1438(3)
C50_2 C 0.8957(5) 0.0527(7) 0.1485(3)
C51_2 C 0.8749(5) 0.1039(8) 0.1289(3)
C52_2 C 0.9007(6) 0.1391(9) 0.1044(4)
O1_2 O 0.5520(3) 0.0862(5) 0.4254(2)
H17_2 H 0.5321 0.0589 0.4336
H18_2 H 0.5793 0.0706 0.4287
N6_2 N 0.6382(4) 0.1717(7) 0.4599(3)
N7_2 N 0.5554(4) 0.2360(6) 0.4636(3)
N3_2 N 0.6382(4) 0.8283(7) 0.9599(3)
C27_2 C 0.6270(6) 0.8642(10) 0.9859(4)
H9_2 H 0.5968 0.8798 0.9888
C30_2 C 0.7190(5) 0.8095(7) 0.9773(3)
H11_2 H 0.749 0.793 0.974
C31_2 C 0.6812(5) 0.7994(7) 0.9539(3)
H12_2 H 0.6852 0.7728 0.934
N1_3 N 0.1317(4) 0.3223(7) 0.8820(3)
N2_2 N 0.5442(4) 0.7653(7) 0.8860(3)
B1_3 B 0.3631(5) 0.4941(9) 0.6728(4)
F1_2 F 0.2397(3) 0.5069(4) 0.75766(19)
F2_2 F 0.2911(2) 0.5558(5) 0.70814(18)
F3_3 F 0.3654(3) 0.3492(4) 0.69798(19)
F4_3 F 0.3139(3) 0.3030(5) 0.7474(2)
F5_2 F 0.4005(3) 0.7132(4) 0.72793(18)
F6_2 F 0.3592(2) 0.6453(4) 0.68017(16)
F7_3 F 0.4272(2) 0.4486(4) 0.72392(17)
F8_2 F 0.4657(2) 0.5162(4) 0.77406(17)
F9_2 F 0.3582(3) 0.6479(4) 0.57262(18)
F10_2 F 0.3991(2) 0.5874(4) 0.62460(15)
F11_3 F 0.2609(3) 0.4779(5) 0.65128(19)
F12_2 F 0.2213(2) 0.5333(4) 0.59889(18)
F13_2 F 0.5093(2) 0.4332(4) 0.61332(17)
F14_2 F 0.4657(2) 0.5019(4) 0.65920(17)
F15_3 F 0.3292(2) 0.3835(4) 0.63254(16)
F16_3 F 0.3739(3) 0.3137(5) 0.58613(19)
C1_3 C 0.1474(5) 0.3845(8) 0.8800(4)
H1_3 H 0.1383 0.4168 0.8962
C2_3 C 0.1780(5) 0.4007(8) 0.8528(4)
H2_3 H 0.1891 0.444 0.8496
C3_3 C 0.1905(5) 0.3492(9) 0.8314(4)
C4_3 C 0.1731(5) 0.2876(8) 0.8341(3)
H3_3 H 0.1819 0.2538 0.8187
C5_3 C 0.1414(5) 0.2754(8) 0.8606(4)
H4_3 H 0.1275 0.2336 0.8628
C6_3 C 0.2207(7) 0.3619(8) 0.8015(5)
C7_3 C 0.2445(6) 0.3821(8) 0.7825(4)
C8_3 C 0.2751(5) 0.4023(9) 0.7541(4)
C9_3 C 0.2711(5) 0.4686(9) 0.7430(4)
C10_3 C 0.2971(5) 0.4925(9) 0.7170(4)
C11_3 C 0.3296(5) 0.4557(9) 0.7004(3)
C12_3 C 0.3330(6) 0.3899(10) 0.7103(4)
C13_3 C 0.3065(6) 0.3636(10) 0.7391(4)
C14_3 C 0.5249(5) 0.8038(8) 0.8611(4)
H5_3 H 0.5289 0.85 0.862
C15_3 C 0.5001(6) 0.7763(9) 0.8352(4)
H6_2 H 0.4859 0.8024 0.8178
C16_2 C 0.4963(4) 0.7101(9) 0.8350(4)
C17_3 C 0.5144(4) 0.6686(8) 0.8592(4)
H7_3 H 0.5108 0.6224 0.8577
C18_3 C 0.5391(4) 0.6990(8) 0.8868(3)
H8_3 H 0.5516 0.6737 0.9053
C19_2 C 0.4733(5) 0.6822(8) 0.8055(4)
C20_2 C 0.4569(4) 0.6507(8) 0.7815(4)
C21_2 C 0.4357(5) 0.6144(9) 0.7518(4)
C22_2 C 0.4074(5) 0.6486(9) 0.7279(4)
C23_2 C 0.3870(5) 0.6093(9) 0.7022(4)
C24_2 C 0.3912(4) 0.5413(8) 0.6991(3)
C25_2 C 0.4202(5) 0.5087(9) 0.7231(4)
C26_2 C 0.4398(5) 0.5472(9) 0.7496(4)
C27_3 C 0.1270(6) 0.6358(10) 0.4859(4)
H9_3 H 0.0968 0.6202 0.4888
C28_2 C 0.1615(5) 0.6215(8) 0.5091(3)
H10_2 H 0.1566 0.5913 0.5273
C29_2 C 0.2059(6) 0.6535(8) 0.5053(4)
C30_3 C 0.2190(5) 0.6905(7) 0.4773(3)
H11_3 H 0.249 0.707 0.474
C31_3 C 0.1812(5) 0.7006(7) 0.4539(3)
H12_3 H 0.1852 0.7272 0.434
C32_2 C 0.2407(5) 0.6397(8) 0.5314(4)
C33_2 C 0.2618(5) 0.6226(9) 0.5524(4)
C34_2 C 0.2861(5) 0.5971(8) 0.5804(4)
C35_2 C 0.3335(6) 0.6057(9) 0.5896(4)
C36_2 C 0.3545(5) 0.5739(8) 0.6202(4)
C37_2 C 0.3337(4) 0.5319(7) 0.6430(3)
C38_2 C 0.2859(5) 0.5160(9) 0.6336(4)
C39_2 C 0.2671(5) 0.5528(8) 0.6049(4)
C40_3 C 0.5119(5) 0.2193(8) 0.4680(3)
H13_2 H 0.4977 0.1898 0.4521
C41_2 C 0.4869(5) 0.2441(8) 0.4955(3)
H14_2 H 0.4561 0.2308 0.4985
C42_2 C 0.5080(5) 0.2905(9) 0.5195(4)
C43_2 C 0.5530(5) 0.3037(7) 0.5128(3)
H15_2 H 0.5687 0.333 0.5279
C44_3 C 0.5773(5) 0.2768(8) 0.4851(4)
H16_3 H 0.6085 0.2875 0.4818
C45_3 C 0.4848(5) 0.3180(9) 0.5486(4)
C46_3 C 0.4670(5) 0.3342(9) 0.5698(4)
C47_3 C 0.4449(5) 0.3684(9) 0.5964(4)
C48_3 C 0.4637(5) 0.4194(8) 0.6184(3)
C49_3 C 0.4416(5) 0.4555(8) 0.6438(3)
C50_3 C 0.3957(5) 0.4473(7) 0.6485(3)
C51_3 C 0.3749(5) 0.3961(8) 0.6289(3)
C52_3 C 0.4007(6) 0.3609(9) 0.6044(4)
O1_3 O 0.0520(3) 0.4138(5) 0.9254(2)
H17_3 H 0.0321 0.4411 0.9336
H18_3 H 0.0793 0.4294 0.9287
N5_2 N 0.0442(4) 0.2653(7) 0.8860(3)
C14_4 C 0.0249(5) 0.3038(8) 0.8611(4)
H5_4 H 0.0289 0.35 0.862
C15_4 C 0.0001(6) 0.2763(9) 0.8352(4)
C17_4 C 0.0144(4) 0.1686(8) 0.8592(4)
H7_4 H 0.0108 0.1224 0.8577
C18_4 C 0.0391(4) 0.1990(8) 0.8868(3)
H8_4 H 0.0516 0.1737 0.9053
F13_3 F 0.0093(2) 0.9332(4) 0.61332(17)
C40_4 C 0.0119(5) 0.7193(8) 0.4680(3)
C42_3 C 0.0080(5) 0.7905(9) 0.5195(4)
C43_3 C 0.0530(5) 0.8037(7) 0.5128(3)
H15_3 H 0.0687 0.833 0.5279
C44_4 C 0.0773(5) 0.7768(8) 0.4851(4)
H16_4 H 0.1085 0.7875 0.4818
F1_3 F 0.7397(3) 0.0069(4) 0.75766(19)
F2_3 F 0.7911(2) 0.0558(5) 0.70814(18)
F5_3 F 0.9005(3) 0.2132(4) 0.72793(18)
F6_3 F 0.8592(2) 0.1453(4) 0.68017(16)
F8_3 F 0.9657(2) 0.0162(4) 0.77406(17)
F9_3 F 0.8582(3) 0.1479(4) 0.57262(18)
F10_3 F 0.8991(2) 0.0874(4) 0.62460(15)
F12_3 F 0.7213(2) 0.0333(4) 0.59889(18)
F14_3 F 0.9657(2) 0.0019(4) 0.65920(17)
H6_3 H 0.9859 0.3024 0.8178
C16_3 C 0.9963(4) 0.2101(9) 0.8350(4)
C19_3 C 0.9733(5) 0.1822(8) 0.8055(4)
C20_3 C 0.9569(4) 0.1507(8) 0.7815(4)
C21_3 C 0.9357(5) 0.1144(9) 0.7518(4)
C22_3 C 0.9074(5) 0.1486(9) 0.7279(4)
C23_3 C 0.8870(5) 0.1093(9) 0.7022(4)
C24_3 C 0.8912(4) 0.0413(8) 0.6991(3)
C25_3 C 0.9202(5) 0.0087(9) 0.7231(4)
C26_3 C 0.9398(5) 0.0472(9) 0.7496(4)
C27_4 C 0.6270(6) 0.1358(10) 0.4859(4)
H9_4 H 0.5968 0.1202 0.4888
C28_3 C 0.6615(5) 0.1215(8) 0.5091(3)
H10_3 H 0.6566 0.0913 0.5273
C29_3 C 0.7059(6) 0.1535(8) 0.5053(4)
C30_4 C 0.7190(5) 0.1905(7) 0.4773(3)
H11_4 H 0.749 0.207 0.474
C31_4 C 0.6812(5) 0.2006(7) 0.4539(3)
H12_4 H 0.6852 0.2272 0.434
C32_3 C 0.7407(5) 0.1397(8) 0.5314(4)
C33_3 C 0.7618(5) 0.1226(9) 0.5524(4)
C34_3 C 0.7861(5) 0.0971(8) 0.5804(4)
C35_3 C 0.8335(6) 0.1057(9) 0.5896(4)
C36_3 C 0.8545(5) 0.0739(8) 0.6202(4)
C37_3 C 0.8337(4) 0.0319(7) 0.6430(3)
C38_3 C 0.7859(5) 0.0160(9) 0.6336(4)
C39_3 C 0.7671(5) 0.0528(8) 0.6049(4)
N1_4 N 0.6317(4) 0.8223(7) 0.8820(3)
B1_4 B 0.8631(5) 0.9941(9) 0.6728(4)
F3_4 F 0.8654(3) 0.8492(4) 0.69798(19)
F4_4 F 0.8139(3) 0.8030(5) 0.7474(2)
F7_4 F 0.9272(2) 0.9486(4) 0.72392(17)
F11_4 F 0.7609(3) 0.9779(5) 0.65128(19)
F15_4 F 0.8292(2) 0.8835(4) 0.63254(16)
F16_4 F 0.8739(3) 0.8137(5) 0.58613(19)
C1_4 C 0.6474(5) 0.8845(8) 0.8800(4)
H1_4 H 0.6383 0.9168 0.8962
C2_4 C 0.6780(5) 0.9007(8) 0.8528(4)
H2_4 H 0.6891 0.944 0.8496
C3_4 C 0.6905(5) 0.8492(9) 0.8314(4)
C4_4 C 0.6731(5) 0.7876(8) 0.8341(3)
H3_4 H 0.6819 0.7538 0.8187
C5_4 C 0.6414(5) 0.7754(8) 0.8606(4)
H4_4 H 0.6275 0.7336 0.8628
C6_4 C 0.7207(7) 0.8619(8) 0.8015(5)
C7_4 C 0.7445(6) 0.8821(8) 0.7825(4)
C8_4 C 0.7751(5) 0.9023(9) 0.7541(4)
C9_4 C 0.7711(5) 0.9686(9) 0.7430(4)
C10_4 C 0.7971(5) 0.9925(9) 0.7170(4)
C11_4 C 0.8296(5) 0.9557(9) 0.7004(3)
C12_4 C 0.8330(6) 0.8899(10) 0.7103(4)
C13_4 C 0.8065(6) 0.8636(10) 0.7391(4)
H13_3 H 0.9977 0.6898 0.4521
C41_3 C 0.9869(5) 0.7441(8) 0.4955(3)
H14_3 H 0.9561 0.7308 0.4985
C45_4 C 0.9848(5) 0.8180(9) 0.5486(4)
C46_4 C 0.9670(5) 0.8342(9) 0.5698(4)
C47_4 C 0.9449(5) 0.8684(9) 0.5964(4)
C48_4 C 0.9637(5) 0.9194(8) 0.6184(3)
C49_4 C 0.9416(5) 0.9555(8) 0.6438(3)
C50_4 C 0.8957(5) 0.9473(7) 0.6485(3)
C51_4 C 0.8749(5) 0.8961(8) 0.6289(3)
C52_4 C 0.9007(6) 0.8609(9) 0.6044(4)
O1_4 O 0.5520(3) 0.9138(5) 0.9254(2)
H17_4 H 0.5321 0.9411 0.9336
H18_4 H 0.5793 0.9294 0.9287
Cu1_2 Cu 0.91123(6) 0.69770(10) 0.07711(4)
N1_5 N 0.8683(4) 0.6777(7) 0.1180(3)
N2_3 N 0.4558(4) 0.2347(7) 0.1140(3)
N3_3 N 0.8618(4) 0.3283(7) 0.5401(3)
N4_3 N 0.4446(4) 0.7640(6) 0.5364(3)
B1_5 B 0.6369(5) 0.5059(9) 0.3272(4)
F1_4 F 0.7603(3) 0.4931(4) 0.24234(19)
F2_4 F 0.7089(2) 0.4442(5) 0.29186(18)
F3_5 F 0.6346(3) 0.6508(4) 0.30202(19)
F4_5 F 0.6861(3) 0.6970(5) 0.2526(2)
F5_4 F 0.5995(3) 0.2868(4) 0.27207(18)
F6_4 F 0.6408(2) 0.3547(4) 0.31983(16)
F7_5 F 0.5728(2) 0.5514(4) 0.27608(17)
F8_4 F 0.5343(2) 0.4838(4) 0.22594(17)
F9_4 F 0.6418(3) 0.3521(4) 0.42738(18)
F10_4 F 0.6009(2) 0.4126(4) 0.37540(15)
F11_5 F 0.7391(3) 0.5221(5) 0.34872(19)
F12_4 F 0.7787(2) 0.4667(4) 0.40111(18)
F13_4 F 0.4907(2) 0.5668(4) 0.38668(17)
F14_4 F 0.5343(2) 0.4981(4) 0.34080(17)
F15_5 F 0.6708(2) 0.6165(4) 0.36746(16)
F16_5 F 0.6261(3) 0.6863(5) 0.41387(19)
C1_5 C 0.8526(5) 0.6155(8) 0.1200(4)
H1_5 H 0.8617 0.5832 0.1038
C2_5 C 0.8220(5) 0.5993(8) 0.1472(4)
H2_5 H 0.8109 0.556 0.1504
C3_5 C 0.8095(5) 0.6508(9) 0.1686(4)
C4_5 C 0.8269(5) 0.7124(8) 0.1659(3)
H3_5 H 0.8181 0.7462 0.1813
C5_5 C 0.8586(5) 0.7246(8) 0.1394(4)
H4_5 H 0.8725 0.7664 0.1372
C6_5 C 0.7793(7) 0.6381(8) 0.1985(5)
C7_5 C 0.7555(6) 0.6179(8) 0.2175(4)
C8_5 C 0.7249(5) 0.5977(9) 0.2459(4)
C9_5 C 0.7289(5) 0.5314(9) 0.2570(4)
C10_5 C 0.7029(5) 0.5075(9) 0.2830(4)
C11_5 C 0.6704(5) 0.5443(9) 0.2996(3)
C12_5 C 0.6670(6) 0.6101(10) 0.2897(4)
C13_5 C 0.6935(6) 0.6364(10) 0.2609(4)
C14_5 C 0.4751(5) 0.1962(8) 0.1389(4)
H5_5 H 0.4711 0.15 0.138
C15_5 C 0.4999(6) 0.2237(9) 0.1648(4)
H6_4 H 0.5141 0.1976 0.1822
C16_4 C 0.5037(4) 0.2899(9) 0.1650(4)
C17_5 C 0.4856(4) 0.3314(8) 0.1408(4)
H7_5 H 0.4892 0.3776 0.1423
C18_5 C 0.4609(4) 0.3010(8) 0.1132(3)
H8_5 H 0.4484 0.3263 0.0947
C19_4 C 0.5267(5) 0.3178(8) 0.1945(4)
C20_4 C 0.5431(4) 0.3493(8) 0.2185(4)
C21_4 C 0.5643(5) 0.3856(9) 0.2482(4)
C22_4 C 0.5926(5) 0.3514(9) 0.2721(4)
C23_4 C 0.6130(5) 0.3907(9) 0.2978(4)
C24_4 C 0.6088(4) 0.4587(8) 0.3009(3)
C25_4 C 0.5798(5) 0.4913(9) 0.2769(4)
C26_4 C 0.5602(5) 0.4528(9) 0.2504(4)
C27_5 C 0.8730(6) 0.3642(10) 0.5141(4)
H9_5 H 0.9032 0.3798 0.5112
C28_4 C 0.8385(5) 0.3785(8) 0.4909(3)
H10_4 H 0.8434 0.4087 0.4727
C29_4 C 0.7941(6) 0.3465(8) 0.4947(4)
C30_5 C 0.7810(5) 0.3095(7) 0.5227(3)
H11_5 H 0.751 0.293 0.526
C31_5 C 0.8188(5) 0.2994(7) 0.5461(3)
H12_5 H 0.8148 0.2728 0.566
C32_4 C 0.7593(5) 0.3603(8) 0.4686(4)
C33_4 C 0.7382(5) 0.3774(9) 0.4476(4)
C34_4 C 0.7139(5) 0.4029(8) 0.4196(4)
C35_4 C 0.6665(6) 0.3943(9) 0.4104(4)
C36_4 C 0.6455(5) 0.4261(8) 0.3798(4)
C37_4 C 0.6663(4) 0.4681(7) 0.3570(3)
C38_4 C 0.7141(5) 0.4840(9) 0.3664(4)
C39_4 C 0.7329(5) 0.4472(8) 0.3951(4)
C40_5 C 0.4881(5) 0.7807(8) 0.5320(3)
H13_4 H 0.5023 0.8102 0.5479
C41_4 C 0.5131(5) 0.7559(8) 0.5045(3)
H14_4 H 0.5439 0.7692 0.5015
C42_4 C 0.4920(5) 0.7095(9) 0.4805(4)
C43_4 C 0.4470(5) 0.6963(7) 0.4872(3)
H15_4 H 0.4313 0.667 0.4721
C44_5 C 0.4227(5) 0.7232(8) 0.5149(4)
H16_5 H 0.3915 0.7125 0.5182
C45_5 C 0.5152(5) 0.6820(9) 0.4514(4)
C46_5 C 0.5330(5) 0.6658(9) 0.4302(4)
C47_5 C 0.5551(5) 0.6316(9) 0.4036(4)
C48_5 C 0.5363(5) 0.5806(8) 0.3816(3)
C49_5 C 0.5584(5) 0.5445(8) 0.3562(3)
C50_5 C 0.6043(5) 0.5527(7) 0.3515(3)
C51_5 C 0.6251(5) 0.6039(8) 0.3711(3)
C52_5 C 0.5993(6) 0.6391(9) 0.3956(4)
O1_5 O 0.9480(3) 0.5862(5) 0.0746(2)
H17_5 H 0.9679 0.5589 0.0664
H18_5 H 0.9207 0.5706 0.0713
Cu2_2 Cu 0.41123(6) 0.19770(10) 0.07711(4)
Cu3_2 Cu 0.91123(6) 0.30230(10) 0.57711(4)
Cu4_2 Cu 0.41123(6) 0.80230(10) 0.57711(4)
N5_3 N 0.9558(4) 0.7347(7) 0.1140(3)
N6_3 N 0.8618(4) 0.6717(7) 0.0401(3)
N7_3 N 0.9446(4) 0.7360(6) 0.0364(3)
N1_6 N 0.3683(4) 0.1777(7) 0.1180(3)
B1_6 B 0.1369(5) 0.0059(9) 0.3272(4)
F3_6 F 0.1346(3) 0.1508(4) 0.30202(19)
F4_6 F 0.1861(3) 0.1970(5) 0.2526(2)
F7_6 F 0.0728(2) 0.0514(4) 0.27608(17)
F11_6 F 0.2391(3) 0.0221(5) 0.34872(19)
F15_6 F 0.1708(2) 0.1165(4) 0.36746(16)
F16_6 F 0.1261(3) 0.1863(5) 0.41387(19)
C1_6 C 0.3526(5) 0.1155(8) 0.1200(4)
H1_6 H 0.3617 0.0832 0.1038
C2_6 C 0.3220(5) 0.0993(8) 0.1472(4)
H2_6 H 0.3109 0.056 0.1504
C3_6 C 0.3095(5) 0.1508(9) 0.1686(4)
C4_6 C 0.3269(5) 0.2124(8) 0.1659(3)
H3_6 H 0.3181 0.2462 0.1813
C5_6 C 0.3586(5) 0.2246(8) 0.1394(4)
H4_6 H 0.3725 0.2664 0.1372
C6_6 C 0.2793(7) 0.1381(8) 0.1985(5)
C7_6 C 0.2555(6) 0.1179(8) 0.2175(4)
C8_6 C 0.2249(5) 0.0977(9) 0.2459(4)
C9_6 C 0.2289(5) 0.0314(9) 0.2570(4)
C10_6 C 0.2029(5) 0.0075(9) 0.2830(4)
C11_6 C 0.1704(5) 0.0443(9) 0.2996(3)
C12_6 C 0.1670(6) 0.1101(10) 0.2897(4)
C13_6 C 0.1935(6) 0.1364(10) 0.2609(4)
H13_5 H 0.0023 0.3102 0.5479
C41_5 C 0.0131(5) 0.2559(8) 0.5045(3)
H14_5 H 0.0439 0.2692 0.5015
C45_6 C 0.0152(5) 0.1820(9) 0.4514(4)
C46_6 C 0.0330(5) 0.1658(9) 0.4302(4)
C47_6 C 0.0551(5) 0.1316(9) 0.4036(4)
C48_6 C 0.0363(5) 0.0806(8) 0.3816(3)
C49_6 C 0.0584(5) 0.0445(8) 0.3562(3)
C50_6 C 0.1043(5) 0.0527(7) 0.3515(3)
C51_6 C 0.1251(5) 0.1039(8) 0.3711(3)
C52_6 C 0.0993(6) 0.1391(9) 0.3956(4)
O1_6 O 0.4480(3) 0.0862(5) 0.0746(2)
H17_6 H 0.4679 0.0589 0.0664
H18_6 H 0.4207 0.0706 0.0713
N6_4 N 0.3618(4) 0.1717(7) 0.0401(3)
N7_4 N 0.4446(4) 0.2360(6) 0.0364(3)
N3_4 N 0.3618(4) 0.8283(7) 0.5401(3)
F1_5 F 0.2603(3) 0.9931(4) 0.24234(19)
F2_5 F 0.2089(2) 0.9442(5) 0.29186(18)
F5_5 F 0.0995(3) 0.7868(4) 0.27207(18)
F6_5 F 0.1408(2) 0.8547(4) 0.31983(16)
F8_5 F 0.0343(2) 0.9838(4) 0.22594(17)
F9_5 F 0.1418(3) 0.8521(4) 0.42738(18)
F10_5 F 0.1009(2) 0.9126(4) 0.37540(15)
F12_5 F 0.2787(2) 0.9667(4) 0.40111(18)
F14_5 F 0.0343(2) 0.9981(4) 0.34080(17)
H6_5 H 0.0141 0.6976 0.1822
C16_5 C 0.0037(4) 0.7899(9) 0.1650(4)
C19_5 C 0.0267(5) 0.8178(8) 0.1945(4)
C20_5 C 0.0431(4) 0.8493(8) 0.2185(4)
C21_5 C 0.0643(5) 0.8856(9) 0.2482(4)
C22_5 C 0.0926(5) 0.8514(9) 0.2721(4)
C23_5 C 0.1130(5) 0.8907(9) 0.2978(4)
C24_5 C 0.1088(4) 0.9587(8) 0.3009(3)
C25_5 C 0.0798(5) 0.9913(9) 0.2769(4)
C26_5 C 0.0602(5) 0.9528(9) 0.2504(4)
C27_6 C 0.3730(6) 0.8642(10) 0.5141(4)
H9_6 H 0.4032 0.8798 0.5112
C28_5 C 0.3385(5) 0.8785(8) 0.4909(3)
H10_5 H 0.3434 0.9087 0.4727
C29_5 C 0.2941(6) 0.8465(8) 0.4947(4)
C30_6 C 0.2810(5) 0.8095(7) 0.5227(3)
H11_6 H 0.251 0.793 0.526
C31_6 C 0.3188(5) 0.7994(7) 0.5461(3)
H12_6 H 0.3148 0.7728 0.566
C32_5 C 0.2593(5) 0.8603(8) 0.4686(4)
C33_5 C 0.2382(5) 0.8774(9) 0.4476(4)
C34_5 C 0.2139(5) 0.9029(8) 0.4196(4)
C35_5 C 0.1665(6) 0.8943(9) 0.4104(4)
C36_5 C 0.1455(5) 0.9261(8) 0.3798(4)
C37_5 C 0.1663(4) 0.9681(7) 0.3570(3)
C38_5 C 0.2141(5) 0.9840(9) 0.3664(4)
C39_5 C 0.2329(5) 0.9472(8) 0.3951(4)
N4_4 N 0.9446(4) 0.2640(6) 0.5364(3)
F13_5 F 0.9907(2) 0.0668(4) 0.38668(17)
C40_6 C 0.9881(5) 0.2807(8) 0.5320(3)
C42_5 C 0.9920(5) 0.2095(9) 0.4805(4)
C43_5 C 0.9470(5) 0.1963(7) 0.4872(3)
H15_5 H 0.9313 0.167 0.4721
C44_6 C 0.9227(5) 0.2232(8) 0.5149(4)
H16_6 H 0.8915 0.2125 0.5182
C14_6 C 0.9751(5) 0.6962(8) 0.1389(4)
H5_6 H 0.9711 0.65 0.138
C15_6 C 0.9999(6) 0.7237(9) 0.1648(4)
C17_6 C 0.9856(4) 0.8314(8) 0.1408(4)
H7_6 H 0.9892 0.8776 0.1423
C18_6 C 0.9609(4) 0.8010(8) 0.1132(3)
H8_6 H 0.9484 0.8263 0.0947
C27_7 C 0.8730(6) 0.6358(10) 0.0141(4)
H9_7 H 0.9032 0.6202 0.0112
C30_7 C 0.7810(5) 0.6905(7) 0.0227(3)
H11_7 H 0.751 0.707 0.026
C31_7 C 0.8188(5) 0.7006(7) 0.0461(3)
H12_7 H 0.8148 0.7272 0.066
C40_7 C 0.4881(5) 0.2193(8) 0.0320(3)
H13_6 H 0.5023 0.1898 0.0479
C41_6 C 0.5131(5) 0.2441(8) 0.0045(3)
H14_6 H 0.5439 0.2308 0.0015
C44_7 C 0.4227(5) 0.2768(8) 0.0149(4)
H16_7 H 0.3915 0.2875 0.0182
N1_7 N 0.8683(4) 0.3223(7) 0.6180(3)
N2_4 N 0.4558(4) 0.7653(7) 0.6140(3)
B1_7 B 0.6369(5) 0.4941(9) 0.8272(4)
F1_6 F 0.7603(3) 0.5069(4) 0.74234(19)
F2_6 F 0.7089(2) 0.5558(5) 0.79186(18)
F3_7 F 0.6346(3) 0.3492(4) 0.80202(19)
F4_7 F 0.6861(3) 0.3030(5) 0.7526(2)
F5_6 F 0.5995(3) 0.7132(4) 0.77207(18)
F6_6 F 0.6408(2) 0.6453(4) 0.81983(16)
F7_7 F 0.5728(2) 0.4486(4) 0.77608(17)
F8_6 F 0.5343(2) 0.5162(4) 0.72594(17)
F9_6 F 0.6418(3) 0.6479(4) 0.92738(18)
F10_6 F 0.6009(2) 0.5874(4) 0.87540(15)
F11_7 F 0.7391(3) 0.4779(5) 0.84872(19)
F12_6 F 0.7787(2) 0.5333(4) 0.90111(18)
F13_6 F 0.4907(2) 0.4332(4) 0.88668(17)
F14_6 F 0.5343(2) 0.5019(4) 0.84080(17)
F15_7 F 0.6708(2) 0.3835(4) 0.86746(16)
F16_7 F 0.6261(3) 0.3137(5) 0.91387(19)
C1_7 C 0.8526(5) 0.3845(8) 0.6200(4)
H1_7 H 0.8617 0.4168 0.6038
C2_7 C 0.8220(5) 0.4007(8) 0.6472(4)
H2_7 H 0.8109 0.444 0.6504
C3_7 C 0.8095(5) 0.3492(9) 0.6686(4)
C4_7 C 0.8269(5) 0.2876(8) 0.6659(3)
H3_7 H 0.8181 0.2538 0.6813
C5_7 C 0.8586(5) 0.2754(8) 0.6394(4)
H4_7 H 0.8725 0.2336 0.6372
C6_7 C 0.7793(7) 0.3619(8) 0.6985(5)
C7_7 C 0.7555(6) 0.3821(8) 0.7175(4)
C8_7 C 0.7249(5) 0.4023(9) 0.7459(4)
C9_7 C 0.7289(5) 0.4686(9) 0.7570(4)
C10_7 C 0.7029(5) 0.4925(9) 0.7830(4)
C11_7 C 0.6704(5) 0.4557(9) 0.7996(3)
C12_7 C 0.6670(6) 0.3899(10) 0.7897(4)
C13_7 C 0.6935(6) 0.3636(10) 0.7609(4)
C14_7 C 0.4751(5) 0.8038(8) 0.6389(4)
H5_7 H 0.4711 0.85 0.638
C15_7 C 0.4999(6) 0.7763(9) 0.6648(4)
H6_6 H 0.5141 0.8024 0.6822
C16_6 C 0.5037(4) 0.7101(9) 0.6650(4)
C17_7 C 0.4856(4) 0.6686(8) 0.6408(4)
H7_7 H 0.4892 0.6224 0.6423
C18_7 C 0.4609(4) 0.6990(8) 0.6132(3)
H8_7 H 0.4484 0.6737 0.5947
C19_6 C 0.5267(5) 0.6822(8) 0.6945(4)
C20_6 C 0.5431(4) 0.6507(8) 0.7185(4)
C21_6 C 0.5643(5) 0.6144(9) 0.7482(4)
C22_6 C 0.5926(5) 0.6486(9) 0.7721(4)
C23_6 C 0.6130(5) 0.6093(9) 0.7978(4)
C24_6 C 0.6088(4) 0.5413(8) 0.8009(3)
C25_6 C 0.5798(5) 0.5087(9) 0.7769(4)
C26_6 C 0.5602(5) 0.5472(9) 0.7504(4)
C28_6 C 0.8385(5) 0.6215(8) 0.9909(3)
H10_6 H 0.8434 0.5913 0.9727
C29_6 C 0.7941(6) 0.6535(8) 0.9947(4)
C32_6 C 0.7593(5) 0.6397(8) 0.9686(4)
C33_6 C 0.7382(5) 0.6226(9) 0.9476(4)
C34_6 C 0.7139(5) 0.5971(8) 0.9196(4)
C35_6 C 0.6665(6) 0.6057(9) 0.9104(4)
C36_6 C 0.6455(5) 0.5739(8) 0.8798(4)
C37_6 C 0.6663(4) 0.5319(7) 0.8570(3)
C38_6 C 0.7141(5) 0.5160(9) 0.8664(4)
C39_6 C 0.7329(5) 0.5528(8) 0.8951(4)
C42_6 C 0.4920(5) 0.2905(9) 0.9805(4)
C43_6 C 0.4470(5) 0.3037(7) 0.9872(3)
H15_6 H 0.4313 0.333 0.9721
C45_7 C 0.5152(5) 0.3180(9) 0.9514(4)
C46_7 C 0.5330(5) 0.3342(9) 0.9302(4)
C47_7 C 0.5551(5) 0.3684(9) 0.9036(4)
C48_7 C 0.5363(5) 0.4194(8) 0.8816(3)
C49_7 C 0.5584(5) 0.4555(8) 0.8562(3)
C50_7 C 0.6043(5) 0.4473(7) 0.8515(3)
C51_7 C 0.6251(5) 0.3961(8) 0.8711(3)
C52_7 C 0.5993(6) 0.3609(9) 0.8956(4)
O1_7 O 0.9480(3) 0.4138(5) 0.5746(2)
H17_7 H 0.9679 0.4411 0.5664
H18_7 H 0.9207 0.4294 0.5713
N5_4 N 0.9558(4) 0.2653(7) 0.6140(3)
C27_8 C 0.3730(6) 0.1358(10) 0.0141(4)
H9_8 H 0.4032 0.1202 0.0112
C30_8 C 0.2810(5) 0.1905(7) 0.0227(3)
H11_8 H 0.251 0.207 0.026
C31_8 C 0.3188(5) 0.2006(7) 0.0461(3)
H12_8 H 0.3148 0.2272 0.066
N1_8 N 0.3683(4) 0.8223(7) 0.6180(3)
B1_8 B 0.1369(5) 0.9941(9) 0.8272(4)
F3_8 F 0.1346(3) 0.8492(4) 0.80202(19)
F4_8 F 0.1861(3) 0.8030(5) 0.7526(2)
F7_8 F 0.0728(2) 0.9486(4) 0.77608(17)
F11_8 F 0.2391(3) 0.9779(5) 0.84872(19)
F15_8 F 0.1708(2) 0.8835(4) 0.86746(16)
F16_8 F 0.1261(3) 0.8137(5) 0.91387(19)
C1_8 C 0.3526(5) 0.8845(8) 0.6200(4)
H1_8 H 0.3617 0.9168 0.6038
C2_8 C 0.3220(5) 0.9007(8) 0.6472(4)
H2_8 H 0.3109 0.944 0.6504
C3_8 C 0.3095(5) 0.8492(9) 0.6686(4)
C4_8 C 0.3269(5) 0.7876(8) 0.6659(3)
H3_8 H 0.3181 0.7538 0.6813
C5_8 C 0.3586(5) 0.7754(8) 0.6394(4)
H4_8 H 0.3725 0.7336 0.6372
C6_8 C 0.2793(7) 0.8619(8) 0.6985(5)
C7_8 C 0.2555(6) 0.8821(8) 0.7175(4)
C8_8 C 0.2249(5) 0.9023(9) 0.7459(4)
C9_8 C 0.2289(5) 0.9686(9) 0.7570(4)
C10_8 C 0.2029(5) 0.9925(9) 0.7830(4)
C11_8 C 0.1704(5) 0.9557(9) 0.7996(3)
C12_8 C 0.1670(6) 0.8899(10) 0.7897(4)
C13_8 C 0.1935(6) 0.8636(10) 0.7609(4)
C45_8 C 0.0152(5) 0.8180(9) 0.9514(4)
C46_8 C 0.0330(5) 0.8342(9) 0.9302(4)
C47_8 C 0.0551(5) 0.8684(9) 0.9036(4)
C48_8 C 0.0363(5) 0.9194(8) 0.8816(3)
C49_8 C 0.0584(5) 0.9555(8) 0.8562(3)
C50_8 C 0.1043(5) 0.9473(7) 0.8515(3)
C51_8 C 0.1251(5) 0.8961(8) 0.8711(3)
C52_8 C 0.0993(6) 0.8609(9) 0.8956(4)
O1_8 O 0.4480(3) 0.9138(5) 0.5746(2)
H17_8 H 0.4679 0.9411 0.5664
H18_8 H 0.4207 0.9294 0.5713
C14_8 C 0.9751(5) 0.3038(8) 0.6389(4)
H5_8 H 0.9711 0.35 0.638
C15_8 C 0.9999(6) 0.2763(9) 0.6648(4)
C17_8 C 0.9856(4) 0.1686(8) 0.6408(4)
H7_8 H 0.9892 0.1224 0.6423
C18_8 C 0.9609(4) 0.1990(8) 0.6132(3)
H8_8 H 0.9484 0.1737 0.5947
C40_8 C 0.9881(5) 0.7193(8) 0.0320(3)
C44_8 C 0.9227(5) 0.7768(8) 0.0149(4)
H16_8 H 0.8915 0.7875 0.0182
F13_7 F 0.0093(2) 0.0668(4) 0.11332(17)
C42_7 C 0.0080(5) 0.2095(9) 0.0195(4)
C43_7 C 0.0530(5) 0.1963(7) 0.0128(3)
H15_7 H 0.0687 0.167 0.0279
H13_7 H 0.9977 0.3102 0.9521
C41_7 C 0.9869(5) 0.2559(8) 0.9955(3)
H14_7 H 0.9561 0.2692 0.9985
F1_7 F 0.7397(3) 0.9931(4) 0.25766(19)
F2_7 F 0.7911(2) 0.9442(5) 0.20814(18)
F5_7 F 0.9005(3) 0.7868(4) 0.22793(18)
F6_7 F 0.8592(2) 0.8547(4) 0.18017(16)
F8_7 F 0.9657(2) 0.9838(4) 0.27406(17)
F9_7 F 0.8582(3) 0.8521(4) 0.07262(18)
F10_7 F 0.8991(2) 0.9126(4) 0.12460(15)
F12_7 F 0.7213(2) 0.9667(4) 0.09889(18)
F14_7 F 0.9657(2) 0.9981(4) 0.15920(17)
H6_7 H 0.9859 0.6976 0.3178
C16_7 C 0.9963(4) 0.7899(9) 0.3350(4)
C19_7 C 0.9733(5) 0.8178(8) 0.3055(4)
C20_7 C 0.9569(4) 0.8493(8) 0.2815(4)
C21_7 C 0.9357(5) 0.8856(9) 0.2518(4)
C22_7 C 0.9074(5) 0.8514(9) 0.2279(4)
C23_7 C 0.8870(5) 0.8907(9) 0.2022(4)
C24_7 C 0.8912(4) 0.9587(8) 0.1991(3)
C25_7 C 0.9202(5) 0.9913(9) 0.2231(4)
C26_7 C 0.9398(5) 0.9528(9) 0.2496(4)
C28_7 C 0.6615(5) 0.8785(8) 0.0091(3)
H10_7 H 0.6566 0.9087 0.0273
C29_7 C 0.7059(6) 0.8465(8) 0.0053(4)
C32_7 C 0.7407(5) 0.8603(8) 0.0314(4)
C33_7 C 0.7618(5) 0.8774(9) 0.0524(4)
C34_7 C 0.7861(5) 0.9029(8) 0.0804(4)
C35_7 C 0.8335(6) 0.8943(9) 0.0896(4)
C36_7 C 0.8545(5) 0.9261(8) 0.1202(4)
C37_7 C 0.8337(4) 0.9681(7) 0.1430(3)
C38_7 C 0.7859(5) 0.9840(9) 0.1336(4)
C39_7 C 0.7671(5) 0.9472(8) 0.1049(4)
F1_8 F 0.2603(3) 0.0069(4) 0.74234(19)
F2_8 F 0.2089(2) 0.0558(5) 0.79186(18)
F5_8 F 0.0995(3) 0.2132(4) 0.77207(18)
F6_8 F 0.1408(2) 0.1453(4) 0.81983(16)
F8_8 F 0.0343(2) 0.0162(4) 0.72594(17)
F9_8 F 0.1418(3) 0.1479(4) 0.92738(18)
F10_8 F 0.1009(2) 0.0874(4) 0.87540(15)
F12_8 F 0.2787(2) 0.0333(4) 0.90111(18)
F14_8 F 0.0343(2) 0.0019(4) 0.84080(17)
H6_8 H 0.0141 0.3024 0.6822
C16_8 C 0.0037(4) 0.2101(9) 0.6650(4)
C19_8 C 0.0267(5) 0.1822(8) 0.6945(4)
C20_8 C 0.0431(4) 0.1507(8) 0.7185(4)
C21_8 C 0.0643(5) 0.1144(9) 0.7482(4)
C22_8 C 0.0926(5) 0.1486(9) 0.7721(4)
C23_8 C 0.1130(5) 0.1093(9) 0.7978(4)
C24_8 C 0.1088(4) 0.0413(8) 0.8009(3)
C25_8 C 0.0798(5) 0.0087(9) 0.7769(4)
C26_8 C 0.0602(5) 0.0472(9) 0.7504(4)
C28_8 C 0.3385(5) 0.1215(8) 0.9909(3)
H10_8 H 0.3434 0.0913 0.9727
C29_8 C 0.2941(6) 0.1535(8) 0.9947(4)
C32_8 C 0.2593(5) 0.1397(8) 0.9686(4)
C33_8 C 0.2382(5) 0.1226(9) 0.9476(4)
C34_8 C 0.2139(5) 0.0971(8) 0.9196(4)
C35_8 C 0.1665(6) 0.1057(9) 0.9104(4)
C36_8 C 0.1455(5) 0.0739(8) 0.8798(4)
C37_8 C 0.1663(4) 0.0319(7) 0.8570(3)
C38_8 C 0.2141(5) 0.0160(9) 0.8664(4)
C39_8 C 0.2329(5) 0.0528(8) 0.8951(4)
H13_8 H 0.0023 0.6898 0.0479
C41_8 C 0.0131(5) 0.7441(8) 0.0045(3)
H14_8 H 0.0439 0.7308 0.0015
F13_8 F 0.9907(2) 0.9332(4) 0.88668(17)
C42_8 C 0.9920(5) 0.7905(9) 0.9805(4)
C43_8 C 0.9470(5) 0.8037(7) 0.9872(3)
H15_8 H 0.9313 0.833 0.9721
loop_
_geom_bond_atom_site_label_1
_geom_bond_atom_site_label_2
_geom_bond_site_symmetry_1
_geom_bond_site_symmetry_2
Cu1 N1 1_555 1_555
N1 C1 1_555 1_555
N2 C14 1_555 1_555
B1 C11 1_555 1_555
F1 C9 1_555 1_555
F2 C10 1_555 1_555
F3 C12 1_555 1_555
F4 C13 1_555 1_555
F5 C22 1_555 1_555
F6 C23 1_555 1_555
F7 C25 1_555 1_555
F8 C26 1_555 1_555
F9 C35 1_555 1_555
F10 C36 1_555 1_555
F11 C38 1_555 1_555
F12 C39 1_555 1_555
F13 C48 1_555 1_555
F14 C49 1_555 1_555
F15 C51 1_555 1_555
F16 C52 1_555 1_555
C1 H1 1_555 1_555
C2 C1 1_555 1_555
H2 C2 1_555 1_555
C3 C2 1_555 1_555
C4 C3 1_555 1_555
H3 C4 1_555 1_555
C5 N1 1_555 1_555
H4 C5 1_555 1_555
C6 C3 1_555 1_555
C7 C6 1_555 1_555
C8 C7 1_555 1_555
C9 C8 1_555 1_555
C10 C9 1_555 1_555
C11 C10 1_555 1_555
C12 C11 1_555 1_555
C13 C8 1_555 1_555
C14 H5 1_555 1_555
C15 C14 1_555 1_555
H6 C15 1_555 1_555
C16 C15 1_555 1_555
C17 C16 1_555 1_555
H7 C17 1_555 1_555
C18 N2 1_555 1_555
H8 C18 1_555 1_555
C19 C16 1_555 1_555
C20 C19 1_555 1_555
C21 C20 1_555 1_555
C22 C21 1_555 1_555
C23 C22 1_555 1_555
C24 B1 1_555 1_555
C25 C24 1_555 1_555
C26 C21 1_555 1_555
H10 C28 1_555 1_555
C29 C28 1_555 1_555
C32 C29 1_555 1_555
C33 C32 1_555 1_555
C34 C33 1_555 1_555
C35 C34 1_555 1_555
C36 C35 1_555 1_555
C37 B1 1_555 1_555
C38 C37 1_555 1_555
C39 C34 1_555 1_555
C43 C42 1_555 1_555
H15 C43 1_555 1_555
C45 C42 1_555 1_555
C46 C45 1_555 1_555
C47 C46 1_555 1_555
C48 C47 1_555 1_555
C49 C48 1_555 1_555
C50 B1 1_555 1_555
C51 C50 1_555 1_555
C52 C47 1_555 1_555
O1 Cu1 1_555 1_555
H17 O1 1_555 1_555
H18 O1 1_555 1_555
Cu2 N2 1_555 1_555
N5 Cu1 1_555 1_555
N6 Cu1 1_555 1_555
N7 Cu1 1_555 1_555
C4 C5 1_555 1_555
C12 C13 1_555 1_555
C17 C18 1_555 1_555
C23 C24 1_555 1_555
C25 C26 1_555 1_555
C36 C37 1_555 1_555
C38 C39 1_555 1_555
C49 C50 1_555 1_555
C51 C52 1_555 1_555
N3 C27 1_555 1_555
N4 C40 1_555 1_555
C27 H9 1_555 1_555
H11 C30 1_555 1_555
C31 N3 1_555 1_555
H12 C31 1_555 1_555
C40 H13 1_555 1_555
C41 C40 1_555 1_555
H14 C41 1_555 1_555
C44 N4 1_555 1_555
H16 C44 1_555 1_555
Cu3 N3 1_555 1_555
Cu4 N4 1_555 1_555
C30 C31 1_555 1_555
N4_2 C40_2 1_555 1_555
C44_2 N4_2 1_555 1_555
H16_2 C44_2 1_555 1_555
Cu3 N4_2 1_555 1_555
N5 C14_2 1_555 1_555
C14_2 H5_2 1_555 1_555
C15_2 C14_2 1_555 1_555
H7_2 C17_2 1_555 1_555
C18_2 N5 1_555 1_555
H8_2 C18_2 1_555 1_555
C17_2 C18_2 1_555 1_555
Cu2 N1_2 1_555 1_555
N1_2 C1_2 1_555 1_555
B1_2 C11_2 1_555 1_555
F3_2 C12_2 1_555 1_555
F4_2 C13_2 1_555 1_555
F15_2 C51_2 1_555 1_555
F16_2 C52_2 1_555 1_555
C1_2 H1_2 1_555 1_555
C2_2 C1_2 1_555 1_555
H2_2 C2_2 1_555 1_555
C3_2 C2_2 1_555 1_555
C4_2 C3_2 1_555 1_555
H3_2 C4_2 1_555 1_555
C5_2 N1_2 1_555 1_555
H4_2 C5_2 1_555 1_555
C6_2 C3_2 1_555 1_555
C7_2 C6_2 1_555 1_555
C8_2 C7_2 1_555 1_555
C9_2 C8_2 1_555 1_555
C10_2 C9_2 1_555 1_555
C11_2 C10_2 1_555 1_555
C12_2 C11_2 1_555 1_555
C13_2 C8_2 1_555 1_555
C46_2 C45_2 1_555 1_555
C47_2 C46_2 1_555 1_555
C48_2 C47_2 1_555 1_555
C49_2 C48_2 1_555 1_555
C50_2 B1_2 1_555 1_555
C51_2 C50_2 1_555 1_555
C52_2 C47_2 1_555 1_555
O1_2 Cu2 1_555 1_555
H17_2 O1_2 1_555 1_555
H18_2 O1_2 1_555 1_555
N6_2 Cu2 1_555 1_555
N7_2 Cu2 1_555 1_555
C4_2 C5_2 1_555 1_555
C12_2 C13_2 1_555 1_555
C49_2 C50_2 1_555 1_555
C51_2 C52_2 1_555 1_555
N3_2 C27_2 1_555 1_555
C27_2 H9_2 1_555 1_555
H11_2 C30_2 1_555 1_555
C31_2 N3_2 1_555 1_555
H12_2 C31_2 1_555 1_555
Cu4 N3_2 1_555 1_555
C30_2 C31_2 1_555 1_555
Cu3 N1_3 1_555 1_555
N1_3 C1_3 1_555 1_555
N2_2 C14_3 1_555 1_555
N6 C27_3 1_555 1_555
N7_2 C40_3 1_555 1_555
B1_3 C11_3 1_555 1_555
F1_2 C9_3 1_555 1_555
F2_2 C10_3 1_555 1_555
F3_3 C12_3 1_555 1_555
F4_3 C13_3 1_555 1_555
F5_2 C22_2 1_555 1_555
F6_2 C23_2 1_555 1_555
F7_3 C25_2 1_555 1_555
F8_2 C26_2 1_555 1_555
F9_2 C35_2 1_555 1_555
F10_2 C36_2 1_555 1_555
F11_3 C38_2 1_555 1_555
F12_2 C39_2 1_555 1_555
F13_2 C48_3 1_555 1_555
F14_2 C49_3 1_555 1_555
F15_3 C51_3 1_555 1_555
F16_3 C52_3 1_555 1_555
C1_3 H1_3 1_555 1_555
C2_3 C1_3 1_555 1_555
H2_3 C2_3 1_555 1_555
C3_3 C2_3 1_555 1_555
C4_3 C3_3 1_555 1_555
H3_3 C4_3 1_555 1_555
C5_3 N1_3 1_555 1_555
H4_3 C5_3 1_555 1_555
C6_3 C3_3 1_555 1_555
C7_3 C6_3 1_555 1_555
C8_3 C7_3 1_555 1_555
C9_3 C8_3 1_555 1_555
C10_3 C9_3 1_555 1_555
C11_3 C10_3 1_555 1_555
C12_3 C11_3 1_555 1_555
C13_3 C8_3 1_555 1_555
C14_3 H5_3 1_555 1_555
C15_3 C14_3 1_555 1_555
H6_2 C15_3 1_555 1_555
C16_2 C15_3 1_555 1_555
C17_3 C16_2 1_555 1_555
H7_3 C17_3 1_555 1_555
C18_3 N2_2 1_555 1_555
H8_3 C18_3 1_555 1_555
C19_2 C16_2 1_555 1_555
C20_2 C19_2 1_555 1_555
C21_2 C20_2 1_555 1_555
C22_2 C21_2 1_555 1_555
C23_2 C22_2 1_555 1_555
C24_2 B1_3 1_555 1_555
C25_2 C24_2 1_555 1_555
C26_2 C21_2 1_555 1_555
C27_3 H9_3 1_555 1_555
C28_2 C27_3 1_555 1_555
H10_2 C28_2 1_555 1_555
C29_2 C28_2 1_555 1_555
C30_3 C29_2 1_555 1_555
H11_3 C30_3 1_555 1_555
C31_3 N6 1_555 1_555
H12_3 C31_3 1_555 1_555
C32_2 C29_2 1_555 1_555
C33_2 C32_2 1_555 1_555
C34_2 C33_2 1_555 1_555
C35_2 C34_2 1_555 1_555
C36_2 C35_2 1_555 1_555
C37_2 B1_3 1_555 1_555
C38_2 C37_2 1_555 1_555
C39_2 C34_2 1_555 1_555
C40_3 H13_2 1_555 1_555
C41_2 C40_3 1_555 1_555
H14_2 C41_2 1_555 1_555
C42_2 C41_2 1_555 1_555
C43_2 C42_2 1_555 1_555
H15_2 C43_2 1_555 1_555
C44_3 N7_2 1_555 1_555
H16_3 C44_3 1_555 1_555
C45_3 C42_2 1_555 1_555
C46_3 C45_3 1_555 1_555
C47_3 C46_3 1_555 1_555
C48_3 C47_3 1_555 1_555
C49_3 C48_3 1_555 1_555
C50_3 B1_3 1_555 1_555
C51_3 C50_3 1_555 1_555
C52_3 C47_3 1_555 1_555
O1_3 Cu3 1_555 1_555
H17_3 O1_3 1_555 1_555
H18_3 O1_3 1_555 1_555
Cu4 N2_2 1_555 1_555
N5_2 Cu3 1_555 1_555
C4_3 C5_3 1_555 1_555
C12_3 C13_3 1_555 1_555
C17_3 C18_3 1_555 1_555
C23_2 C24_2 1_555 1_555
C25_2 C26_2 1_555 1_555
C30_3 C31_3 1_555 1_555
C36_2 C37_2 1_555 1_555
C38_2 C39_2 1_555 1_555
C43_2 C44_3 1_555 1_555
C49_3 C50_3 1_555 1_555
C51_3 C52_3 1_555 1_555
N5_2 C14_4 1_555 1_555
C14_4 H5_4 1_555 1_555
C15_4 C14_4 1_555 1_555
H7_4 C17_4 1_555 1_555
C18_4 N5_2 1_555 1_555
H8_4 C18_4 1_555 1_555
C17_4 C18_4 1_555 1_555
N7 C40_4 1_555 1_555
C43_3 C42_3 1_555 1_555
H15_3 C43_3 1_555 1_555
C44_4 N7 1_555 1_555
H16_4 C44_4 1_555 1_555
C43_3 C44_4 1_555 1_555
N6_2 C27_4 1_555 1_555
F5_3 C22_3 1_555 1_555
F6_3 C23_3 1_555 1_555
F8_3 C26_3 1_555 1_555
F9_3 C35_3 1_555 1_555
F10_3 C36_3 1_555 1_555
F12_3 C39_3 1_555 1_555
C19_3 C16_3 1_555 1_555
C20_3 C19_3 1_555 1_555
C21_3 C20_3 1_555 1_555
C22_3 C21_3 1_555 1_555
C23_3 C22_3 1_555 1_555
C25_3 C24_3 1_555 1_555
C26_3 C21_3 1_555 1_555
C27_4 H9_4 1_555 1_555
C28_3 C27_4 1_555 1_555
H10_3 C28_3 1_555 1_555
C29_3 C28_3 1_555 1_555
C30_4 C29_3 1_555 1_555
H11_4 C30_4 1_555 1_555
C31_4 N6_2 1_555 1_555
H12_4 C31_4 1_555 1_555
C32_3 C29_3 1_555 1_555
C33_3 C32_3 1_555 1_555
C34_3 C33_3 1_555 1_555
C35_3 C34_3 1_555 1_555
C36_3 C35_3 1_555 1_555
C38_3 C37_3 1_555 1_555
C39_3 C34_3 1_555 1_555
C23_3 C24_3 1_555 1_555
C25_3 C26_3 1_555 1_555
C30_4 C31_4 1_555 1_555
C36_3 C37_3 1_555 1_555
C38_3 C39_3 1_555 1_555
Cu4 N1_4 1_555 1_555
N1_4 C1_4 1_555 1_555
B1_4 C11_4 1_555 1_555
F3_4 C12_4 1_555 1_555
F4_4 C13_4 1_555 1_555
F15_4 C51_4 1_555 1_555
F16_4 C52_4 1_555 1_555
C1_4 H1_4 1_555 1_555
C2_4 C1_4 1_555 1_555
H2_4 C2_4 1_555 1_555
C3_4 C2_4 1_555 1_555
C4_4 C3_4 1_555 1_555
H3_4 C4_4 1_555 1_555
C5_4 N1_4 1_555 1_555
H4_4 C5_4 1_555 1_555
C6_4 C3_4 1_555 1_555
C7_4 C6_4 1_555 1_555
C8_4 C7_4 1_555 1_555
C9_4 C8_4 1_555 1_555
C10_4 C9_4 1_555 1_555
C11_4 C10_4 1_555 1_555
C12_4 C11_4 1_555 1_555
C13_4 C8_4 1_555 1_555
H14_3 C41_3 1_555 1_555
C46_4 C45_4 1_555 1_555
C47_4 C46_4 1_555 1_555
C48_4 C47_4 1_555 1_555
C49_4 C48_4 1_555 1_555
C50_4 B1_4 1_555 1_555
C51_4 C50_4 1_555 1_555
C52_4 C47_4 1_555 1_555
O1_4 Cu4 1_555 1_555
H17_4 O1_4 1_555 1_555
H18_4 O1_4 1_555 1_555
C4_4 C5_4 1_555 1_555
C12_4 C13_4 1_555 1_555
C49_4 C50_4 1_555 1_555
C51_4 C52_4 1_555 1_555
Cu1_2 N1_5 1_555 1_555
N1_5 C1_5 1_555 1_555
N2_3 C14_5 1_555 1_555
N3_3 C27_5 1_555 1_555
N4_3 C40_5 1_555 1_555
B1_5 C11_5 1_555 1_555
F1_4 C9_5 1_555 1_555
F2_4 C10_5 1_555 1_555
F3_5 C12_5 1_555 1_555
F4_5 C13_5 1_555 1_555
F5_4 C22_4 1_555 1_555
F6_4 C23_4 1_555 1_555
F7_5 C25_4 1_555 1_555
F8_4 C26_4 1_555 1_555
F9_4 C35_4 1_555 1_555
F10_4 C36_4 1_555 1_555
F11_5 C38_4 1_555 1_555
F12_4 C39_4 1_555 1_555
F13_4 C48_5 1_555 1_555
F14_4 C49_5 1_555 1_555
F15_5 C51_5 1_555 1_555
F16_5 C52_5 1_555 1_555
C1_5 H1_5 1_555 1_555
C2_5 C1_5 1_555 1_555
H2_5 C2_5 1_555 1_555
C3_5 C2_5 1_555 1_555
C4_5 C3_5 1_555 1_555
H3_5 C4_5 1_555 1_555
C5_5 N1_5 1_555 1_555
H4_5 C5_5 1_555 1_555
C6_5 C3_5 1_555 1_555
C7_5 C6_5 1_555 1_555
C8_5 C7_5 1_555 1_555
C9_5 C8_5 1_555 1_555
C10_5 C9_5 1_555 1_555
C11_5 C10_5 1_555 1_555
C12_5 C11_5 1_555 1_555
C13_5 C8_5 1_555 1_555
C14_5 H5_5 1_555 1_555
C15_5 C14_5 1_555 1_555
H6_4 C15_5 1_555 1_555
C16_4 C15_5 1_555 1_555
C17_5 C16_4 1_555 1_555
H7_5 C17_5 1_555 1_555
C18_5 N2_3 1_555 1_555
H8_5 C18_5 1_555 1_555
C19_4 C16_4 1_555 1_555
C20_4 C19_4 1_555 1_555
C21_4 C20_4 1_555 1_555
C22_4 C21_4 1_555 1_555
C23_4 C22_4 1_555 1_555
C24_4 B1_5 1_555 1_555
C25_4 C24_4 1_555 1_555
C26_4 C21_4 1_555 1_555
C27_5 H9_5 1_555 1_555
C28_4 C27_5 1_555 1_555
H10_4 C28_4 1_555 1_555
C29_4 C28_4 1_555 1_555
C30_5 C29_4 1_555 1_555
H11_5 C30_5 1_555 1_555
C31_5 N3_3 1_555 1_555
H12_5 C31_5 1_555 1_555
C32_4 C29_4 1_555 1_555
C33_4 C32_4 1_555 1_555
C34_4 C33_4 1_555 1_555
C35_4 C34_4 1_555 1_555
C36_4 C35_4 1_555 1_555
C37_4 B1_5 1_555 1_555
C38_4 C37_4 1_555 1_555
C39_4 C34_4 1_555 1_555
C40_5 H13_4 1_555 1_555
C41_4 C40_5 1_555 1_555
H14_4 C41_4 1_555 1_555
C42_4 C41_4 1_555 1_555
C43_4 C42_4 1_555 1_555
H15_4 C43_4 1_555 1_555
C44_5 N4_3 1_555 1_555
H16_5 C44_5 1_555 1_555
C45_5 C42_4 1_555 1_555
C46_5 C45_5 1_555 1_555
C47_5 C46_5 1_555 1_555
C48_5 C47_5 1_555 1_555
C49_5 C48_5 1_555 1_555
C50_5 B1_5 1_555 1_555
C51_5 C50_5 1_555 1_555
C52_5 C47_5 1_555 1_555
O1_5 Cu1_2 1_555 1_555
H17_5 O1_5 1_555 1_555
H18_5 O1_5 1_555 1_555
Cu2_2 N2_3 1_555 1_555
Cu3_2 N3_3 1_555 1_555
Cu4_2 N4_3 1_555 1_555
N5_3 Cu1_2 1_555 1_555
N6_3 Cu1_2 1_555 1_555
N7_3 Cu1_2 1_555 1_555
C4_5 C5_5 1_555 1_555
C12_5 C13_5 1_555 1_555
C17_5 C18_5 1_555 1_555
C23_4 C24_4 1_555 1_555
C25_4 C26_4 1_555 1_555
C30_5 C31_5 1_555 1_555
C36_4 C37_4 1_555 1_555
C38_4 C39_4 1_555 1_555
C43_4 C44_5 1_555 1_555
C49_5 C50_5 1_555 1_555
C51_5 C52_5 1_555 1_555
Cu2_2 N1_6 1_555 1_555
N1_6 C1_6 1_555 1_555
B1_6 C11_6 1_555 1_555
F3_6 C12_6 1_555 1_555
F4_6 C13_6 1_555 1_555
F15_6 C51_6 1_555 1_555
F16_6 C52_6 1_555 1_555
C1_6 H1_6 1_555 1_555
C2_6 C1_6 1_555 1_555
H2_6 C2_6 1_555 1_555
C3_6 C2_6 1_555 1_555
C4_6 C3_6 1_555 1_555
H3_6 C4_6 1_555 1_555
C5_6 N1_6 1_555 1_555
H4_6 C5_6 1_555 1_555
C6_6 C3_6 1_555 1_555
C7_6 C6_6 1_555 1_555
C8_6 C7_6 1_555 1_555
C9_6 C8_6 1_555 1_555
C10_6 C9_6 1_555 1_555
C11_6 C10_6 1_555 1_555
C12_6 C11_6 1_555 1_555
C13_6 C8_6 1_555 1_555
H14_5 C41_5 1_555 1_555
C46_6 C45_6 1_555 1_555
C47_6 C46_6 1_555 1_555
C48_6 C47_6 1_555 1_555
C49_6 C48_6 1_555 1_555
C50_6 B1_6 1_555 1_555
C51_6 C50_6 1_555 1_555
C52_6 C47_6 1_555 1_555
O1_6 Cu2_2 1_555 1_555
H17_6 O1_6 1_555 1_555
H18_6 O1_6 1_555 1_555
N6_4 Cu2_2 1_555 1_555
N7_4 Cu2_2 1_555 1_555
C4_6 C5_6 1_555 1_555
C12_6 C13_6 1_555 1_555
C49_6 C50_6 1_555 1_555
C51_6 C52_6 1_555 1_555
N3_4 C27_6 1_555 1_555
F5_5 C22_5 1_555 1_555
F6_5 C23_5 1_555 1_555
F8_5 C26_5 1_555 1_555
F9_5 C35_5 1_555 1_555
F10_5 C36_5 1_555 1_555
F12_5 C39_5 1_555 1_555
C19_5 C16_5 1_555 1_555
C20_5 C19_5 1_555 1_555
C21_5 C20_5 1_555 1_555
C22_5 C21_5 1_555 1_555
C23_5 C22_5 1_555 1_555
C25_5 C24_5 1_555 1_555
C26_5 C21_5 1_555 1_555
C27_6 H9_6 1_555 1_555
C28_5 C27_6 1_555 1_555
H10_5 C28_5 1_555 1_555
C29_5 C28_5 1_555 1_555
C30_6 C29_5 1_555 1_555
H11_6 C30_6 1_555 1_555
C31_6 N3_4 1_555 1_555
H12_6 C31_6 1_555 1_555
C32_5 C29_5 1_555 1_555
C33_5 C32_5 1_555 1_555
C34_5 C33_5 1_555 1_555
C35_5 C34_5 1_555 1_555
C36_5 C35_5 1_555 1_555
C38_5 C37_5 1_555 1_555
C39_5 C34_5 1_555 1_555
Cu4_2 N3_4 1_555 1_555
C23_5 C24_5 1_555 1_555
C25_5 C26_5 1_555 1_555
C30_6 C31_6 1_555 1_555
C36_5 C37_5 1_555 1_555
C38_5 C39_5 1_555 1_555
N4_4 C40_6 1_555 1_555
C43_5 C42_5 1_555 1_555
H15_5 C43_5 1_555 1_555
C44_6 N4_4 1_555 1_555
H16_6 C44_6 1_555 1_555
Cu3_2 N4_4 1_555 1_555
C43_5 C44_6 1_555 1_555
N5_3 C14_6 1_555 1_555
C14_6 H5_6 1_555 1_555
C15_6 C14_6 1_555 1_555
H7_6 C17_6 1_555 1_555
C18_6 N5_3 1_555 1_555
H8_6 C18_6 1_555 1_555
C17_6 C18_6 1_555 1_555
N6_3 C27_7 1_555 1_555
N7_4 C40_7 1_555 1_555
C27_7 H9_7 1_555 1_555
H11_7 C30_7 1_555 1_555
C31_7 N6_3 1_555 1_555
H12_7 C31_7 1_555 1_555
C40_7 H13_6 1_555 1_555
C41_6 C40_7 1_555 1_555
H14_6 C41_6 1_555 1_555
C44_7 N7_4 1_555 1_555
H16_7 C44_7 1_555 1_555
C30_7 C31_7 1_555 1_555
Cu3_2 N1_7 1_555 1_555
N1_7 C1_7 1_555 1_555
N2_4 C14_7 1_555 1_555
B1_7 C11_7 1_555 1_555
F1_6 C9_7 1_555 1_555
F2_6 C10_7 1_555 1_555
F3_7 C12_7 1_555 1_555
F4_7 C13_7 1_555 1_555
F5_6 C22_6 1_555 1_555
F6_6 C23_6 1_555 1_555
F7_7 C25_6 1_555 1_555
F8_6 C26_6 1_555 1_555
F9_6 C35_6 1_555 1_555
F10_6 C36_6 1_555 1_555
F11_7 C38_6 1_555 1_555
F12_6 C39_6 1_555 1_555
F13_6 C48_7 1_555 1_555
F14_6 C49_7 1_555 1_555
F15_7 C51_7 1_555 1_555
F16_7 C52_7 1_555 1_555
C1_7 H1_7 1_555 1_555
C2_7 C1_7 1_555 1_555
H2_7 C2_7 1_555 1_555
C3_7 C2_7 1_555 1_555
C4_7 C3_7 1_555 1_555
H3_7 C4_7 1_555 1_555
C5_7 N1_7 1_555 1_555
H4_7 C5_7 1_555 1_555
C6_7 C3_7 1_555 1_555
C7_7 C6_7 1_555 1_555
C8_7 C7_7 1_555 1_555
C9_7 C8_7 1_555 1_555
C10_7 C9_7 1_555 1_555
C11_7 C10_7 1_555 1_555
C12_7 C11_7 1_555 1_555
C13_7 C8_7 1_555 1_555
C14_7 H5_7 1_555 1_555
C15_7 C14_7 1_555 1_555
H6_6 C15_7 1_555 1_555
C16_6 C15_7 1_555 1_555
C17_7 C16_6 1_555 1_555
H7_7 C17_7 1_555 1_555
C18_7 N2_4 1_555 1_555
H8_7 C18_7 1_555 1_555
C19_6 C16_6 1_555 1_555
C20_6 C19_6 1_555 1_555
C21_6 C20_6 1_555 1_555
C22_6 C21_6 1_555 1_555
C23_6 C22_6 1_555 1_555
C24_6 B1_7 1_555 1_555
C25_6 C24_6 1_555 1_555
C26_6 C21_6 1_555 1_555
H10_6 C28_6 1_555 1_555
C29_6 C28_6 1_555 1_555
C32_6 C29_6 1_555 1_555
C33_6 C32_6 1_555 1_555
C34_6 C33_6 1_555 1_555
C35_6 C34_6 1_555 1_555
C36_6 C35_6 1_555 1_555
C37_6 B1_7 1_555 1_555
C38_6 C37_6 1_555 1_555
C39_6 C34_6 1_555 1_555
C43_6 C42_6 1_555 1_555
H15_6 C43_6 1_555 1_555
C45_7 C42_6 1_555 1_555
C46_7 C45_7 1_555 1_555
C47_7 C46_7 1_555 1_555
C48_7 C47_7 1_555 1_555
C49_7 C48_7 1_555 1_555
C50_7 B1_7 1_555 1_555
C51_7 C50_7 1_555 1_555
C52_7 C47_7 1_555 1_555
O1_7 Cu3_2 1_555 1_555
H17_7 O1_7 1_555 1_555
H18_7 O1_7 1_555 1_555
Cu4_2 N2_4 1_555 1_555
N5_4 Cu3_2 1_555 1_555
C4_7 C5_7 1_555 1_555
C12_7 C13_7 1_555 1_555
C17_7 C18_7 1_555 1_555
C23_6 C24_6 1_555 1_555
C25_6 C26_6 1_555 1_555
C36_6 C37_6 1_555 1_555
C38_6 C39_6 1_555 1_555
C49_7 C50_7 1_555 1_555
C51_7 C52_7 1_555 1_555
N6_4 C27_8 1_555 1_555
C27_8 H9_8 1_555 1_555
H11_8 C30_8 1_555 1_555
C31_8 N6_4 1_555 1_555
H12_8 C31_8 1_555 1_555
C30_8 C31_8 1_555 1_555
Cu4_2 N1_8 1_555 1_555
N1_8 C1_8 1_555 1_555
B1_8 C11_8 1_555 1_555
F3_8 C12_8 1_555 1_555
F4_8 C13_8 1_555 1_555
F15_8 C51_8 1_555 1_555
F16_8 C52_8 1_555 1_555
C1_8 H1_8 1_555 1_555
C2_8 C1_8 1_555 1_555
H2_8 C2_8 1_555 1_555
C3_8 C2_8 1_555 1_555
C4_8 C3_8 1_555 1_555
H3_8 C4_8 1_555 1_555
C5_8 N1_8 1_555 1_555
H4_8 C5_8 1_555 1_555
C6_8 C3_8 1_555 1_555
C7_8 C6_8 1_555 1_555
C8_8 C7_8 1_555 1_555
C9_8 C8_8 1_555 1_555
C10_8 C9_8 1_555 1_555
C11_8 C10_8 1_555 1_555
C12_8 C11_8 1_555 1_555
C13_8 C8_8 1_555 1_555
C46_8 C45_8 1_555 1_555
C47_8 C46_8 1_555 1_555
C48_8 C47_8 1_555 1_555
C49_8 C48_8 1_555 1_555
C50_8 B1_8 1_555 1_555
C51_8 C50_8 1_555 1_555
C52_8 C47_8 1_555 1_555
O1_8 Cu4_2 1_555 1_555
H17_8 O1_8 1_555 1_555
H18_8 O1_8 1_555 1_555
C4_8 C5_8 1_555 1_555
C12_8 C13_8 1_555 1_555
C49_8 C50_8 1_555 1_555
C51_8 C52_8 1_555 1_555
N5_4 C14_8 1_555 1_555
C14_8 H5_8 1_555 1_555
C15_8 C14_8 1_555 1_555
H7_8 C17_8 1_555 1_555
C18_8 N5_4 1_555 1_555
H8_8 C18_8 1_555 1_555
C17_8 C18_8 1_555 1_555
N7_3 C40_8 1_555 1_555
C44_8 N7_3 1_555 1_555
H16_8 C44_8 1_555 1_555
C43_7 C42_7 1_555 1_555
H15_7 C43_7 1_555 1_555
H14_7 C41_7 1_555 1_555
F5_7 C22_7 1_555 1_555
F6_7 C23_7 1_555 1_555
F8_7 C26_7 1_555 1_555
F9_7 C35_7 1_555 1_555
F10_7 C36_7 1_555 1_555
F12_7 C39_7 1_555 1_555
C19_7 C16_7 1_555 1_555
C20_7 C19_7 1_555 1_555
C21_7 C20_7 1_555 1_555
C22_7 C21_7 1_555 1_555
C23_7 C22_7 1_555 1_555
C25_7 C24_7 1_555 1_555
C26_7 C21_7 1_555 1_555
H10_7 C28_7 1_555 1_555
C29_7 C28_7 1_555 1_555
C32_7 C29_7 1_555 1_555
C33_7 C32_7 1_555 1_555
C34_7 C33_7 1_555 1_555
C35_7 C34_7 1_555 1_555
C36_7 C35_7 1_555 1_555
C38_7 C37_7 1_555 1_555
C39_7 C34_7 1_555 1_555
C23_7 C24_7 1_555 1_555
C25_7 C26_7 1_555 1_555
C36_7 C37_7 1_555 1_555
C38_7 C39_7 1_555 1_555
F5_8 C22_8 1_555 1_555
F6_8 C23_8 1_555 1_555
F8_8 C26_8 1_555 1_555
F9_8 C35_8 1_555 1_555
F10_8 C36_8 1_555 1_555
F12_8 C39_8 1_555 1_555
C19_8 C16_8 1_555 1_555
C20_8 C19_8 1_555 1_555
C21_8 C20_8 1_555 1_555
C22_8 C21_8 1_555 1_555
C23_8 C22_8 1_555 1_555
C25_8 C24_8 1_555 1_555
C26_8 C21_8 1_555 1_555
H10_8 C28_8 1_555 1_555
C29_8 C28_8 1_555 1_555
C32_8 C29_8 1_555 1_555
C33_8 C32_8 1_555 1_555
C34_8 C33_8 1_555 1_555
C35_8 C34_8 1_555 1_555
C36_8 C35_8 1_555 1_555
C38_8 C37_8 1_555 1_555
C39_8 C34_8 1_555 1_555
C23_8 C24_8 1_555 1_555
C25_8 C26_8 1_555 1_555
C36_8 C37_8 1_555 1_555
C38_8 C39_8 1_555 1_555
H14_8 C41_8 1_555 1_555
C43_8 C42_8 1_555 1_555
H15_8 C43_8 1_555 1_555

#END
