
###############################################################################
#
# This file contains modified crystal structure data generated from the
# MOF subset of the Cambridge Structural Database (CSD) v543 
# hosted by the Cambridge Crystallographic Data Centre (CCDC).
#
# This work is licensed under the Creative Commons
# Attribution-NonCommercial-ShareAlike 4.0 International License.
# To view a copy of this license, visit
# http://creativecommons.org/licenses/by-nc-sa/4.0/
# or send a letter to
# Creative Commons, PO Box 1866, Mountain View, CA 94042, USA.
#
# CIF created using the CSD Python API on 29 September 2022
# The structure has been converted into the P1 space group
# The structure has a 3D framework
# The original CSD entry XUJSAY is in the orthorhombic crystal system
# The framework has been calculated to contain at least 10.0% void space
# The void calculation uses a probe of radius 1.32A, grid spacing 0.4
# The framework is charged, counterions have been retained in the structure
#
###############################################################################

data_XUJSAY
_chemical_formula_moiety         '(C144 H176 N56 O76 Tb4 4-)n'
_symmetry_cell_setting           triclinic
_symmetry_space_group_name_H-M   'P 1'
_symmetry_Int_Tables_number      1
_space_group_name_Hall           'P 1'
loop_
_symmetry_equiv_pos_site_id
_symmetry_equiv_pos_as_xyz
1 x,y,z
_cell_length_a                   15.2830(2)
_cell_length_b                   24.9021(6)
_cell_length_c                   10.6168(3)
_cell_angle_alpha                90
_cell_angle_beta                 90
_cell_angle_gamma                90
_cell_volume                     4040.53
loop_
_atom_site_label
_atom_site_type_symbol
_atom_site_fract_x
_atom_site_fract_y
_atom_site_fract_z
Tb1 Tb 0.663578(11) 0.639710(7) 0.5000
O1 O 0.64453(13) 0.72684(8) 0.60347(19)
O2 O 0.30426(13) 0.84160(8) 0.39620(19)
O3 O 0.63612(13) 0.61959(8) 0.28668(18)
O4 O 0.41379(15) 0.62681(9) 0.2906(2)
O5 O 0.27598(15) 0.50488(9) 0.2888(2)
O6 O 0.5068(2) 0.66111(14) 0.5000
H1 H 0.4728 0.6507 0.5651
O7 O 0.7537(2) 0.55665(13) 0.5000
H2 H 0.7442 0.5348 0.5738
O8 O 0.5745(2) 0.55894(14) 0.5000
H3 H 0.5213 0.5622 0.5000
H4 H 0.5864 0.5244 0.5000
N1 N 0.72873(15) 0.62403(10) 0.1151(2)
N2 N 0.60933(15) 0.67462(9) 0.1155(2)
N3 N 0.45101(15) 0.67747(10) 0.1152(2)
N4 N 0.32584(16) 0.63241(10) 0.1145(3)
N5 N 0.23320(16) 0.55360(9) 0.1151(2)
N6 N 0.20930(17) 0.46587(9) 0.1156(2)
C1 C 0.5895(2) 0.80626(15) 0.5000
C2 C 0.4886(2) 0.79854(15) 0.5000
H5 H 0.4707 0.7780 0.5757
C3 C 0.4439(3) 0.85435(15) 0.5000
C4 C 0.47240(18) 0.88547(12) 0.6185(3)
H6 H 0.4430 0.9209 0.6204
H7 H 0.4549 0.8653 0.6948
C5 C 0.57203(19) 0.89338(12) 0.6180(3)
H8 H 0.5900 0.9136 0.6951
C6 C 0.61630(19) 0.83784(11) 0.6175(3)
H9 H 0.6807 0.8423 0.6188
H10 H 0.5990 0.8177 0.6939
C7 C 0.6003(3) 0.92451(18) 0.5000
H11 H 0.5730 0.9606 0.5000
H12 H 0.6647 0.9292 0.5000
C8 C 0.6298(2) 0.75041(16) 0.5000
C9 C 0.3453(2) 0.84526(17) 0.5000
C10 C 0.65653(17) 0.63788(10) 0.1816(3)
C11 C 0.7368(2) 0.65512(16) 0.0000
H13 H 0.7912 0.6775 0.0000
C12 C 0.6535(2) 0.69037(16) 0.0000
H14 H 0.6683 0.7295 0.0000
C13 C 0.53120(17) 0.70062(11) 0.1634(3)
H15 H 0.5310 0.6981 0.2564
H16 H 0.5330 0.7392 0.1406
C14 C 0.39838(19) 0.64392(11) 0.1844(3)
C15 C 0.4090(2) 0.69517(15) 0.0000
H17 H 0.3991 0.7349 0.0000
C16 C 0.3217(3) 0.66380(16) 0.0000
H18 H 0.2702 0.6886 0.0000
C17 C 0.25009(17) 0.60630(11) 0.1674(3)
H19 H 0.1982 0.6293 0.1530
H20 H 0.2583 0.6029 0.2595
C18 C 0.24360(18) 0.50755(11) 0.1837(3)
C19 C 0.1842(3) 0.54523(16) 0.0000
H21 H 0.1282 0.5660 0.0000
C20 C 0.1671(2) 0.48362(16) 0.0000
H22 H 0.1031 0.4752 0.0000
C21 C 0.20348(19) 0.41128(11) 0.1625(3)
H23 H 0.2068 0.4120 0.2556
H24 H 0.1457 0.3963 0.1391
O9 O 0.64453(13) 0.72684(8) 0.39653(19)
O10 O 0.30426(13) 0.84160(8) 0.60380(19)
H25 H 0.4707 0.7780 0.4243
C22 C 0.47240(18) 0.88547(12) 0.3815(3)
H26 H 0.4430 0.9209 0.3796
H27 H 0.4549 0.8653 0.3052
C23 C 0.57203(19) 0.89338(12) 0.3820(3)
H28 H 0.5900 0.9136 0.3049
C24 C 0.61630(19) 0.83784(11) 0.3825(3)
H29 H 0.6807 0.8423 0.3812
H30 H 0.5990 0.8177 0.3061
O11 O 0.36388(13) 0.38041(8) 0.28668(18)
O12 O 0.58621(15) 0.37319(9) 0.2906(2)
O13 O 0.72402(15) 0.49512(9) 0.2888(2)
N7 N 0.27127(15) 0.37597(10) 0.1151(2)
N8 N 0.39067(15) 0.32538(9) 0.1155(2)
N9 N 0.54899(15) 0.32253(10) 0.1152(2)
N10 N 0.67416(16) 0.36759(10) 0.1145(3)
N11 N 0.76680(16) 0.44640(9) 0.1151(2)
N12 N 0.79070(17) 0.53413(9) 0.1156(2)
C25 C 0.34347(17) 0.36212(10) 0.1816(3)
C26 C 0.2632(2) 0.34488(16) 0.0000
H31 H 0.2088 0.3225 0.0000
C27 C 0.3465(2) 0.30963(16) 0.0000
H32 H 0.3317 0.2705 0.0000
C28 C 0.46880(17) 0.29938(11) 0.1634(3)
H33 H 0.4690 0.3019 0.2564
H34 H 0.4670 0.2608 0.1406
C29 C 0.60162(19) 0.35608(11) 0.1844(3)
C30 C 0.5910(2) 0.30483(15) 0.0000
H35 H 0.6009 0.2651 0.0000
C31 C 0.6783(3) 0.33620(16) 0.0000
H36 H 0.7298 0.3114 0.0000
C32 C 0.74991(17) 0.39370(11) 0.1674(3)
H37 H 0.8018 0.3707 0.1530
H38 H 0.7417 0.3971 0.2595
C33 C 0.75640(18) 0.49245(11) 0.1837(3)
C34 C 0.8158(3) 0.45477(16) 0.0000
H39 H 0.8718 0.4340 0.0000
C35 C 0.8329(2) 0.51638(16) 0.0000
H40 H 0.8969 0.5248 0.0000
C36 C 0.79652(19) 0.58872(11) 0.1625(3)
H41 H 0.7932 0.5880 0.2556
H42 H 0.8543 0.6037 0.1391
H55 H 0.4728 0.6507 0.4349
H56 H 0.7442 0.5348 0.4262
Tb2 Tb 0.336422(11) 0.360290(7) 0.5000
O20 O 0.35547(13) 0.27316(8) 0.60347(19)
O21 O 0.69574(13) 0.15840(8) 0.39620(19)
O22 O 0.4932(2) 0.33889(14) 0.5000
H57 H 0.5272 0.3493 0.5651
O23 O 0.2463(2) 0.44335(13) 0.5000
H58 H 0.2558 0.4652 0.5738
O24 O 0.4255(2) 0.44106(14) 0.5000
H59 H 0.4787 0.4378 0.5000
H60 H 0.4136 0.4756 0.5000
C49 C 0.4105(2) 0.19374(15) 0.5000
C50 C 0.5114(2) 0.20146(15) 0.5000
H61 H 0.5293 0.2220 0.5757
C51 C 0.5561(3) 0.14565(15) 0.5000
C52 C 0.52760(18) 0.11453(12) 0.6185(3)
H62 H 0.5570 0.0791 0.6204
H63 H 0.5451 0.1347 0.6948
C53 C 0.42797(19) 0.10662(12) 0.6180(3)
H64 H 0.4100 0.0864 0.6951
C54 C 0.38370(19) 0.16216(11) 0.6175(3)
H65 H 0.3193 0.1577 0.6188
H66 H 0.4010 0.1823 0.6939
C55 C 0.3997(3) 0.07549(18) 0.5000
H67 H 0.4270 0.0394 0.5000
H68 H 0.3353 0.0708 0.5000
C56 C 0.3702(2) 0.24959(16) 0.5000
C57 C 0.6547(2) 0.15474(17) 0.5000
O25 O 0.35547(13) 0.27316(8) 0.39653(19)
O26 O 0.69574(13) 0.15840(8) 0.60380(19)
H69 H 0.5293 0.2220 0.4243
C58 C 0.52760(18) 0.11453(12) 0.3815(3)
H70 H 0.5570 0.0791 0.3796
H71 H 0.5451 0.1347 0.3052
C59 C 0.42797(19) 0.10662(12) 0.3820(3)
H72 H 0.4100 0.0864 0.3049
C60 C 0.38370(19) 0.16216(11) 0.3825(3)
H73 H 0.3193 0.1577 0.3812
H74 H 0.4010 0.1823 0.3061
H75 H 0.5272 0.3493 0.4349
H76 H 0.2558 0.4652 0.4262
Tb5 Tb 0.836422(11) 0.139710(7) 0.5000
Tb6 Tb 0.163578(11) 0.860290(7) 0.5000
O27 O 0.19574(13) 0.34160(8) 0.60380(19)
O28 O 0.80426(13) 0.65840(8) 0.60380(19)
O29 O 0.80426(13) 0.65840(8) 0.39620(19)
O30 O 0.19574(13) 0.34160(8) 0.39620(19)
O31 O 0.36388(13) 0.38041(8) 0.71332(18)
O32 O 0.63612(13) 0.61959(8) 0.71332(18)
C11_2 C 0.7368(2) 0.65512(16) 1.0000
H13_2 H 0.7912 0.6775 1.0000
C12_2 C 0.6535(2) 0.69037(16) 1.0000
H14_2 H 0.6683 0.7295 1.0000
C15_2 C 0.4090(2) 0.69517(15) 1.0000
H17_2 H 0.3991 0.7349 1.0000
C16_2 C 0.3217(3) 0.66380(16) 1.0000
H18_2 H 0.2702 0.6886 1.0000
C19_2 C 0.1842(3) 0.54523(16) 1.0000
H21_2 H 0.1282 0.5660 1.0000
C20_2 C 0.1671(2) 0.48362(16) 1.0000
H22_2 H 0.1031 0.4752 1.0000
C26_2 C 0.2632(2) 0.34488(16) 1.0000
H31_2 H 0.2088 0.3225 1.0000
C27_2 C 0.3465(2) 0.30963(16) 1.0000
H32_2 H 0.3317 0.2705 1.0000
C30_2 C 0.5910(2) 0.30483(15) 1.0000
H35_2 H 0.6009 0.2651 1.0000
C31_2 C 0.6783(3) 0.33620(16) 1.0000
H36_2 H 0.7298 0.3114 1.0000
C34_2 C 0.8158(3) 0.45477(16) 1.0000
H39_2 H 0.8718 0.4340 1.0000
C35_2 C 0.8329(2) 0.51638(16) 1.0000
H40_2 H 0.8969 0.5248 1.0000
O15 O 0.58621(15) 0.37319(9) 0.7094(2)
O16 O 0.72402(15) 0.49512(9) 0.7112(2)
N13 N 0.27127(15) 0.37597(10) 0.8849(2)
N14 N 0.39067(15) 0.32538(9) 0.8845(2)
N15 N 0.54899(15) 0.32253(10) 0.8848(2)
N16 N 0.67416(16) 0.36759(10) 0.8855(3)
N17 N 0.76680(16) 0.44640(9) 0.8849(2)
N18 N 0.79070(17) 0.53413(9) 0.8844(2)
C37 C 0.34347(17) 0.36212(10) 0.8184(3)
C38 C 0.46880(17) 0.29938(11) 0.8366(3)
H43 H 0.4690 0.3019 0.7436
H44 H 0.4670 0.2608 0.8594
C39 C 0.60162(19) 0.35608(11) 0.8156(3)
C40 C 0.74991(17) 0.39370(11) 0.8326(3)
H45 H 0.8018 0.3707 0.8470
H46 H 0.7417 0.3971 0.7405
C41 C 0.75640(18) 0.49245(11) 0.8163(3)
C42 C 0.79652(19) 0.58872(11) 0.8375(3)
H47 H 0.7932 0.5880 0.7444
H48 H 0.8543 0.6037 0.8609
O18 O 0.41379(15) 0.62681(9) 0.7094(2)
O19 O 0.27598(15) 0.50488(9) 0.7112(2)
N19 N 0.72873(15) 0.62403(10) 0.8849(2)
N20 N 0.60933(15) 0.67462(9) 0.8845(2)
N21 N 0.45101(15) 0.67747(10) 0.8848(2)
N22 N 0.32584(16) 0.63241(10) 0.8855(3)
N23 N 0.23320(16) 0.55360(9) 0.8849(2)
N24 N 0.20930(17) 0.46587(9) 0.8844(2)
C43 C 0.65653(17) 0.63788(10) 0.8184(3)
C44 C 0.53120(17) 0.70062(11) 0.8366(3)
H49 H 0.5310 0.6981 0.7436
H50 H 0.5330 0.7392 0.8594
C45 C 0.39838(19) 0.64392(11) 0.8156(3)
C46 C 0.25009(17) 0.60630(11) 0.8326(3)
H51 H 0.1982 0.6293 0.8470
H52 H 0.2583 0.6029 0.7405
C47 C 0.24360(18) 0.50755(11) 0.8163(3)
C48 C 0.20348(19) 0.41128(11) 0.8375(3)
H53 H 0.2068 0.4120 0.7444
H54 H 0.1457 0.3963 0.8609
C15_3 C 0.0910(2) 0.19517(15) 0.0000
H17_3 H 0.1009 0.2349 0.0000
C16_3 C 0.1783(3) 0.16380(16) 0.0000
H18_3 H 0.2298 0.1886 0.0000
C19_3 C 0.3158(3) 0.04523(16) 0.0000
H21_3 H 0.3718 0.0660 0.0000
O18_2 O 0.08621(15) 0.12681(9) 0.2906(2)
O19_2 O 0.22402(15) 0.00488(9) 0.2888(2)
N21_2 N 0.04899(15) 0.17747(10) 0.1152(2)
N22_2 N 0.17416(16) 0.13241(10) 0.1145(3)
N23_2 N 0.26680(16) 0.05360(9) 0.1151(2)
C45_2 C 0.10162(19) 0.14392(11) 0.1844(3)
C46_2 C 0.24991(17) 0.10630(11) 0.1674(3)
H51_2 H 0.3018 0.1293 0.1530
H52_2 H 0.2417 0.1029 0.2595
C47_2 C 0.25640(18) 0.00755(11) 0.1837(3)
O4_2 O 0.08621(15) 0.12681(9) 0.7094(2)
O5_2 O 0.22402(15) 0.00488(9) 0.7112(2)
H1_2 H 0.0272 0.1507 0.4349
N3_2 N 0.04899(15) 0.17747(10) 0.8848(2)
N4_2 N 0.17416(16) 0.13241(10) 0.8855(3)
N5_2 N 0.26680(16) 0.05360(9) 0.8849(2)
C2_2 C 0.0114(2) 0.29854(15) 0.5000
H5_2 H 0.0293 0.2780 0.4243
C3_2 C 0.0561(3) 0.35435(15) 0.5000
C4_2 C 0.02760(18) 0.38547(12) 0.3815(3)
H6_2 H 0.0570 0.4209 0.3796
H7_2 H 0.0451 0.3653 0.3052
C9_2 C 0.1547(2) 0.34526(17) 0.5000
C14_2 C 0.10162(19) 0.14392(11) 0.8156(3)
C15_4 C 0.0910(2) 0.19517(15) 1.0000
H17_4 H 0.1009 0.2349 1.0000
C16_4 C 0.1783(3) 0.16380(16) 1.0000
H18_4 H 0.2298 0.1886 1.0000
C17_2 C 0.24991(17) 0.10630(11) 0.8326(3)
H19_2 H 0.3018 0.1293 0.8470
H20_2 H 0.2417 0.1029 0.7405
C18_2 C 0.25640(18) 0.00755(11) 0.8163(3)
C19_4 C 0.3158(3) 0.04523(16) 1.0000
H21_4 H 0.3718 0.0660 1.0000
H25_2 H 0.0293 0.2780 0.5757
C22_2 C 0.02760(18) 0.38547(12) 0.6185(3)
H26_2 H 0.0570 0.4209 0.6204
H27_2 H 0.0451 0.3653 0.6948
H55_2 H 0.0272 0.1507 0.5651
C20_3 C 0.3329(2) 0.98362(16) 0.0000
H22_3 H 0.3969 0.9752 0.0000
C26_3 C 0.2368(2) 0.84488(16) 0.0000
H31_3 H 0.2912 0.8225 0.0000
C27_3 C 0.1535(2) 0.80963(16) 0.0000
H32_3 H 0.1683 0.7705 0.0000
O14 O 0.13612(13) 0.88041(8) 0.28668(18)
N13_2 N 0.22873(15) 0.87597(10) 0.1151(2)
N14_2 N 0.10933(15) 0.82538(9) 0.1155(2)
C37_2 C 0.15653(17) 0.86212(10) 0.1816(3)
C38_2 C 0.03120(17) 0.79938(11) 0.1634(3)
H43_2 H 0.0310 0.8019 0.2564
H44_2 H 0.0330 0.7608 0.1406
N24_2 N 0.29070(17) 0.96587(9) 0.1156(2)
C48_2 C 0.29652(19) 0.91128(11) 0.1625(3)
H53_2 H 0.2932 0.9120 0.2556
H54_2 H 0.3543 0.8963 0.1391
N6_2 N 0.29070(17) 0.96587(9) 0.8844(2)
C20_4 C 0.3329(2) 0.98362(16) 1.0000
H22_4 H 0.3969 0.9752 1.0000
C21_2 C 0.29652(19) 0.91128(11) 0.8375(3)
H23_2 H 0.2932 0.9120 0.7444
H24_2 H 0.3543 0.8963 0.8609
O11_2 O 0.13612(13) 0.88041(8) 0.71332(18)
N7_2 N 0.22873(15) 0.87597(10) 0.8849(2)
N8_2 N 0.10933(15) 0.82538(9) 0.8845(2)
C25_2 C 0.15653(17) 0.86212(10) 0.8184(3)
C26_4 C 0.2368(2) 0.84488(16) 1.0000
H31_4 H 0.2912 0.8225 1.0000
C27_4 C 0.1535(2) 0.80963(16) 1.0000
H32_4 H 0.1683 0.7705 1.0000
C28_2 C 0.03120(17) 0.79938(11) 0.8366(3)
H33_2 H 0.0310 0.8019 0.7436
H34_2 H 0.0330 0.7608 0.8594
O20_2 O 0.14453(13) 0.77316(8) 0.39653(19)
O22_2 O 0.0068(2) 0.83889(14) 0.5000
O23_2 O 0.2537(2) 0.94335(13) 0.5000
H58_2 H 0.2442 0.9652 0.4262
O24_2 O 0.0745(2) 0.94106(14) 0.5000
H59_2 H 0.0213 0.9378 0.5000
H60_2 H 0.0864 0.9756 0.5000
C49_2 C 0.0895(2) 0.69374(15) 0.5000
C53_2 C 0.07203(19) 0.60662(12) 0.3820(3)
H64_2 H 0.0900 0.5864 0.3049
C54_2 C 0.11630(19) 0.66216(11) 0.3825(3)
H65_2 H 0.1807 0.6577 0.3812
H66_2 H 0.0990 0.6823 0.3061
C55_2 C 0.1003(3) 0.57549(18) 0.5000
H67_2 H 0.0730 0.5394 0.5000
H68_2 H 0.1647 0.5708 0.5000
C56_2 C 0.1298(2) 0.74959(16) 0.5000
O25_2 O 0.14453(13) 0.77316(8) 0.60347(19)
C59_2 C 0.07203(19) 0.60662(12) 0.6180(3)
H72_2 H 0.0900 0.5864 0.6951
C60_2 C 0.11630(19) 0.66216(11) 0.6175(3)
H73_2 H 0.1807 0.6577 0.6188
H74_2 H 0.0990 0.6823 0.6939
H76_2 H 0.2442 0.9652 0.5738
C11_3 C 0.7632(2) 0.15512(16) 0.0000
H13_3 H 0.7088 0.1775 0.0000
C12_3 C 0.8465(2) 0.19037(16) 0.0000
H14_3 H 0.8317 0.2295 0.0000
C35_3 C 0.6671(2) 0.01638(16) 0.0000
H40_3 H 0.6031 0.0248 0.0000
N18_2 N 0.70930(17) 0.03413(9) 0.1156(2)
C42_2 C 0.70348(19) 0.08872(11) 0.1625(3)
H47_2 H 0.7068 0.0880 0.2556
H48_2 H 0.6457 0.1037 0.1391
O17 O 0.86388(13) 0.11959(8) 0.28668(18)
N19_2 N 0.77127(15) 0.12403(10) 0.1151(2)
N20_2 N 0.89067(15) 0.17462(9) 0.1155(2)
C43_2 C 0.84347(17) 0.13788(10) 0.1816(3)
C44_2 C 0.96880(17) 0.20062(11) 0.1634(3)
H49_2 H 0.9690 0.1981 0.2564
H50_2 H 0.9670 0.2392 0.1406
O1_2 O 0.85547(13) 0.22684(8) 0.39653(19)
O3_2 O 0.86388(13) 0.11959(8) 0.71332(18)
O6_2 O 0.9932(2) 0.16111(14) 0.5000
O7_2 O 0.7463(2) 0.05665(13) 0.5000
H2_2 H 0.7558 0.0348 0.4262
O8_2 O 0.9255(2) 0.05894(14) 0.5000
H3_2 H 0.9787 0.0622 0.5000
H4_2 H 0.9136 0.0244 0.5000
N1_2 N 0.77127(15) 0.12403(10) 0.8849(2)
N2_2 N 0.89067(15) 0.17462(9) 0.8845(2)
C1_2 C 0.9105(2) 0.30626(15) 0.5000
C5_2 C 0.92797(19) 0.39338(12) 0.3820(3)
H8_2 H 0.9100 0.4136 0.3049
C6_2 C 0.88370(19) 0.33784(11) 0.3825(3)
H9_2 H 0.8193 0.3423 0.3812
H10_2 H 0.9010 0.3177 0.3061
C7_2 C 0.8997(3) 0.42451(18) 0.5000
H11_2 H 0.9270 0.4606 0.5000
H12_2 H 0.8353 0.4292 0.5000
C8_2 C 0.8702(2) 0.25041(16) 0.5000
C10_2 C 0.84347(17) 0.13788(10) 0.8184(3)
C11_4 C 0.7632(2) 0.15512(16) 1.0000
H13_4 H 0.7088 0.1775 1.0000
C12_4 C 0.8465(2) 0.19037(16) 1.0000
H14_4 H 0.8317 0.2295 1.0000
C13_2 C 0.96880(17) 0.20062(11) 0.8366(3)
H15_2 H 0.9690 0.1981 0.7436
H16_2 H 0.9670 0.2392 0.8594
O9_2 O 0.85547(13) 0.22684(8) 0.60347(19)
C23_2 C 0.92797(19) 0.39338(12) 0.6180(3)
H28_2 H 0.9100 0.4136 0.6951
C24_2 C 0.88370(19) 0.33784(11) 0.6175(3)
H29_2 H 0.8193 0.3423 0.6188
H30_2 H 0.9010 0.3177 0.6939
N12_2 N 0.70930(17) 0.03413(9) 0.8844(2)
C35_4 C 0.6671(2) 0.01638(16) 1.0000
H40_4 H 0.6031 0.0248 1.0000
C36_2 C 0.70348(19) 0.08872(11) 0.8375(3)
H41_2 H 0.7068 0.0880 0.7444
H42_2 H 0.6457 0.1037 0.8609
H56_2 H 0.7558 0.0348 0.5738
C30_3 C 0.9090(2) 0.80483(15) 0.0000
H35_3 H 0.8991 0.7651 0.0000
C31_3 C 0.8217(3) 0.83620(16) 0.0000
H36_3 H 0.7702 0.8114 0.0000
C34_3 C 0.6842(3) 0.95477(16) 0.0000
H39_3 H 0.6282 0.9340 0.0000
O15_2 O 0.91379(15) 0.87319(9) 0.2906(2)
O16_2 O 0.77598(15) 0.99512(9) 0.2888(2)
N15_2 N 0.95101(15) 0.82253(10) 0.1152(2)
N16_2 N 0.82584(16) 0.86759(10) 0.1145(3)
N17_2 N 0.73320(16) 0.94640(9) 0.1151(2)
C39_2 C 0.89838(19) 0.85608(11) 0.1844(3)
C40_2 C 0.75009(17) 0.89370(11) 0.1674(3)
H45_2 H 0.6982 0.8707 0.1530
H46_2 H 0.7583 0.8971 0.2595
C41_2 C 0.74360(18) 0.99245(11) 0.1837(3)
O12_2 O 0.91379(15) 0.87319(9) 0.7094(2)
O13_2 O 0.77598(15) 0.99512(9) 0.7112(2)
N9_2 N 0.95101(15) 0.82253(10) 0.8848(2)
N10_2 N 0.82584(16) 0.86759(10) 0.8855(3)
N11_2 N 0.73320(16) 0.94640(9) 0.8849(2)
C29_2 C 0.89838(19) 0.85608(11) 0.8156(3)
C30_4 C 0.9090(2) 0.80483(15) 1.0000
H35_4 H 0.8991 0.7651 1.0000
C31_4 C 0.8217(3) 0.83620(16) 1.0000
H36_4 H 0.7702 0.8114 1.0000
C32_2 C 0.75009(17) 0.89370(11) 0.8326(3)
H37_2 H 0.6982 0.8707 0.8470
H38_2 H 0.7583 0.8971 0.7405
C33_2 C 0.74360(18) 0.99245(11) 0.8163(3)
C34_4 C 0.6842(3) 0.95477(16) 1.0000
H39_4 H 0.6282 0.9340 1.0000
H57_2 H 0.9728 0.8493 0.4349
C50_2 C 0.9886(2) 0.70146(15) 0.5000
H61_2 H 0.9707 0.7220 0.4243
C51_2 C 0.9439(3) 0.64565(15) 0.5000
C52_2 C 0.97240(18) 0.61453(12) 0.3815(3)
H62_2 H 0.9430 0.5791 0.3796
H63_2 H 0.9549 0.6347 0.3052
C57_2 C 0.8453(2) 0.65474(17) 0.5000
H69_2 H 0.9707 0.7220 0.5757
C58_2 C 0.97240(18) 0.61453(12) 0.6185(3)
H70_2 H 0.9430 0.5791 0.6204
H71_2 H 0.9549 0.6347 0.6948
H75_2 H 0.9728 0.8493 0.5651
O33 O 0.0844(2) 0.67466(16) 0.0000
N25 N 0.0112(3) 0.65333(18) 0.0000
O33_2 O 0.0844(2) 0.67466(16) 1.0000
N25_2 N 0.0112(3) 0.65333(18) 1.0000
O34 O 0.9978(3) 0.60571(18) 0.0000
O35 O 0.9503(4) 0.6791(2) 0.0000
O34_2 O 0.9978(3) 0.60571(18) 1.0000
O35_2 O 0.9503(4) 0.6791(2) 1.0000
O34_3 O 0.0022(3) 0.39429(18) 0.0000
O35_3 O 0.0497(4) 0.3209(2) 0.0000
O34_4 O 0.0022(3) 0.39429(18) 1.0000
O35_4 O 0.0497(4) 0.3209(2) 1.0000
O33_3 O 0.9156(2) 0.32534(16) 0.0000
N25_3 N 0.9888(3) 0.34667(18) 0.0000
O33_4 O 0.9156(2) 0.32534(16) 1.0000
N25_4 N 0.9888(3) 0.34667(18) 1.0000
O33_5 O 0.4156(2) 0.17466(16) 0.0000
O34_5 O 0.5022(3) 0.10571(18) 0.0000
O35_5 O 0.5497(4) 0.1791(2) 0.0000
N25_5 N 0.4888(3) 0.15333(18) 0.0000
O33_6 O 0.4156(2) 0.17466(16) 1.0000
O34_6 O 0.5022(3) 0.10571(18) 1.0000
O35_6 O 0.5497(4) 0.1791(2) 1.0000
N25_6 N 0.4888(3) 0.15333(18) 1.0000
O33_7 O 0.5844(2) 0.82534(16) 0.0000
O34_7 O 0.4978(3) 0.89429(18) 0.0000
O35_7 O 0.4503(4) 0.8209(2) 0.0000
N25_7 N 0.5112(3) 0.84667(18) 0.0000
O33_8 O 0.5844(2) 0.82534(16) 1.0000
O34_8 O 0.4978(3) 0.89429(18) 1.0000
O35_8 O 0.4503(4) 0.8209(2) 1.0000
N25_8 N 0.5112(3) 0.84667(18) 1.0000
loop_
_geom_bond_atom_site_label_1
_geom_bond_atom_site_label_2
_geom_bond_site_symmetry_1
_geom_bond_site_symmetry_2
Tb1 O1 1_555 1_555
O1 C8 1_555 1_555
O2 C9 1_555 1_555
O3 Tb1 1_555 1_555
O4 C14 1_555 1_555
O5 C18 1_555 1_555
O6 Tb1 1_555 1_555
H1 O6 1_555 1_555
O7 Tb1 1_555 1_555
H2 O7 1_555 1_555
O8 Tb1 1_555 1_555
H3 O8 1_555 1_555
H4 O8 1_555 1_555
N1 C10 1_555 1_555
N2 C10 1_555 1_555
N3 C13 1_555 1_555
N4 C14 1_555 1_555
N5 C17 1_555 1_555
N6 C18 1_555 1_555
C1 C2 1_555 1_555
C2 H5 1_555 1_555
C3 C2 1_555 1_555
C4 C3 1_555 1_555
H6 C4 1_555 1_555
H7 C4 1_555 1_555
C5 C4 1_555 1_555
H8 C5 1_555 1_555
C6 C1 1_555 1_555
H9 C6 1_555 1_555
H10 C6 1_555 1_555
C7 C5 1_555 1_555
H11 C7 1_555 1_555
H12 C7 1_555 1_555
C8 C1 1_555 1_555
C9 C3 1_555 1_555
C10 O3 1_555 1_555
C11 N1 1_555 1_555
H13 C11 1_555 1_555
C12 N2 1_555 1_555
H14 C12 1_555 1_555
C13 N2 1_555 1_555
H15 C13 1_555 1_555
H16 C13 1_555 1_555
C14 N3 1_555 1_555
C15 N3 1_555 1_555
H17 C15 1_555 1_555
C16 N4 1_555 1_555
H18 C16 1_555 1_555
C17 N4 1_555 1_555
H19 C17 1_555 1_555
H20 C17 1_555 1_555
C18 N5 1_555 1_555
C19 N5 1_555 1_555
H21 C19 1_555 1_555
C20 N6 1_555 1_555
H22 C20 1_555 1_555
C21 N6 1_555 1_555
H23 C21 1_555 1_555
H24 C21 1_555 1_555
O9 Tb1 1_555 1_555
O10 C9 1_555 1_555
H25 C2 1_555 1_555
C22 C3 1_555 1_555
H26 C22 1_555 1_555
H27 C22 1_555 1_555
C23 C7 1_555 1_555
H28 C23 1_555 1_555
C24 C1 1_555 1_555
H29 C24 1_555 1_555
H30 C24 1_555 1_555
O11 C25 1_555 1_555
O12 C29 1_555 1_555
O13 C33 1_555 1_555
N7 C21 1_555 1_555
N8 C25 1_555 1_555
N9 C28 1_555 1_555
N10 C29 1_555 1_555
N11 C32 1_555 1_555
N12 C33 1_555 1_555
C25 N7 1_555 1_555
C26 N7 1_555 1_555
H31 C26 1_555 1_555
C27 N8 1_555 1_555
H32 C27 1_555 1_555
C28 N8 1_555 1_555
H33 C28 1_555 1_555
H34 C28 1_555 1_555
C29 N9 1_555 1_555
C30 N9 1_555 1_555
H35 C30 1_555 1_555
C31 N10 1_555 1_555
H36 C31 1_555 1_555
C32 N10 1_555 1_555
H37 C32 1_555 1_555
H38 C32 1_555 1_555
C33 N11 1_555 1_555
C34 N11 1_555 1_555
H39 C34 1_555 1_555
C35 N12 1_555 1_555
H40 C35 1_555 1_555
C36 N1 1_555 1_555
H41 C36 1_555 1_555
H42 C36 1_555 1_555
H55 O6 1_555 1_555
H56 O7 1_555 1_555
Tb2 O11 1_555 1_555
O20 Tb2 1_555 1_555
O21 C57 1_555 1_555
O22 Tb2 1_555 1_555
H57 O22 1_555 1_555
O23 Tb2 1_555 1_555
H58 O23 1_555 1_555
O24 Tb2 1_555 1_555
H59 O24 1_555 1_555
H60 O24 1_555 1_555
C49 C50 1_555 1_555
C50 H61 1_555 1_555
C51 C50 1_555 1_555
C52 C51 1_555 1_555
H62 C52 1_555 1_555
H63 C52 1_555 1_555
C53 C52 1_555 1_555
H64 C53 1_555 1_555
C54 C49 1_555 1_555
H65 C54 1_555 1_555
H66 C54 1_555 1_555
C55 C53 1_555 1_555
H67 C55 1_555 1_555
H68 C55 1_555 1_555
C56 O20 1_555 1_555
C57 C51 1_555 1_555
O25 Tb2 1_555 1_555
O26 C57 1_555 1_555
H69 C50 1_555 1_555
C58 C51 1_555 1_555
H70 C58 1_555 1_555
H71 C58 1_555 1_555
C59 C55 1_555 1_555
H72 C59 1_555 1_555
C60 C49 1_555 1_555
H73 C60 1_555 1_555
H74 C60 1_555 1_555
H75 O22 1_555 1_555
H76 O23 1_555 1_555
Tb5 O21 1_555 1_555
Tb6 O2 1_555 1_555
O27 Tb2 1_555 1_555
O28 Tb1 1_555 1_555
O29 Tb1 1_555 1_555
O30 Tb2 1_555 1_555
O31 Tb2 1_555 1_555
O32 Tb1 1_555 1_555
C5 C6 1_555 1_555
C8 O9 1_555 1_555
C11 C12 1_555 1_555
C15 C16 1_555 1_555
C19 C20 1_555 1_555
O10 Tb6 1_555 1_555
C22 C23 1_555 1_555
C23 C24 1_555 1_555
N12 C36 1_555 1_555
C26 C27 1_555 1_555
C30 C31 1_555 1_555
C34 C35 1_555 1_555
C49 C56 1_555 1_555
C53 C54 1_555 1_555
C56 O25 1_555 1_555
O26 Tb5 1_555 1_555
C58 C59 1_555 1_555
C59 C60 1_555 1_555
H13_2 C11_2 1_555 1_555
H14_2 C12_2 1_555 1_555
H17_2 C15_2 1_555 1_555
H18_2 C16_2 1_555 1_555
H21_2 C19_2 1_555 1_555
H22_2 C20_2 1_555 1_555
H31_2 C26_2 1_555 1_555
H32_2 C27_2 1_555 1_555
H35_2 C30_2 1_555 1_555
H36_2 C31_2 1_555 1_555
H39_2 C34_2 1_555 1_555
H40_2 C35_2 1_555 1_555
O31 C37 1_555 1_555
O15 C39 1_555 1_555
O16 C41 1_555 1_555
N13 C26_2 1_555 1_555
N14 C27_2 1_555 1_555
N15 C30_2 1_555 1_555
N16 C31_2 1_555 1_555
N17 C34_2 1_555 1_555
N18 C35_2 1_555 1_555
C37 N13 1_555 1_555
C38 N14 1_555 1_555
H43 C38 1_555 1_555
H44 C38 1_555 1_555
C39 N15 1_555 1_555
C40 N16 1_555 1_555
H45 C40 1_555 1_555
H46 C40 1_555 1_555
C41 N17 1_555 1_555
C42 N18 1_555 1_555
H47 C42 1_555 1_555
H48 C42 1_555 1_555
O32 C43 1_555 1_555
O18 C45 1_555 1_555
O19 C47 1_555 1_555
N19 C11_2 1_555 1_555
N20 C12_2 1_555 1_555
N21 C15_2 1_555 1_555
N22 C16_2 1_555 1_555
N23 C19_2 1_555 1_555
N24 C20_2 1_555 1_555
C43 N19 1_555 1_555
C44 N20 1_555 1_555
H49 C44 1_555 1_555
H50 C44 1_555 1_555
C45 N21 1_555 1_555
C46 N22 1_555 1_555
H51 C46 1_555 1_555
H52 C46 1_555 1_555
C47 N23 1_555 1_555
C48 N13 1_555 1_555
H53 C48 1_555 1_555
H54 C48 1_555 1_555
C11_2 C12_2 1_555 1_555
C15_2 C16_2 1_555 1_555
C19_2 C20_2 1_555 1_555
C26_2 C27_2 1_555 1_555
C30_2 C31_2 1_555 1_555
C34_2 C35_2 1_555 1_555
N14 C37 1_555 1_555
N15 C38 1_555 1_555
N16 C39 1_555 1_555
N17 C40 1_555 1_555
N18 C41 1_555 1_555
C42 N19 1_555 1_555
N20 C43 1_555 1_555
N21 C44 1_555 1_555
N22 C45 1_555 1_555
N23 C46 1_555 1_555
N24 C47 1_555 1_555
N24 C48 1_555 1_555
H17_3 C15_3 1_555 1_555
H18_3 C16_3 1_555 1_555
H21_3 C19_3 1_555 1_555
O18_2 C45_2 1_555 1_555
O19_2 C47_2 1_555 1_555
N21_2 C15_3 1_555 1_555
N22_2 C16_3 1_555 1_555
N23_2 C19_3 1_555 1_555
C45_2 N21_2 1_555 1_555
C46_2 N22_2 1_555 1_555
H51_2 C46_2 1_555 1_555
H52_2 C46_2 1_555 1_555
C47_2 N23_2 1_555 1_555
C15_3 C16_3 1_555 1_555
N22_2 C45_2 1_555 1_555
N23_2 C46_2 1_555 1_555
O27 C9_2 1_555 1_555
O4_2 C14_2 1_555 1_555
O5_2 C18_2 1_555 1_555
N4_2 C14_2 1_555 1_555
N5_2 C17_2 1_555 1_555
C2_2 H5_2 1_555 1_555
C3_2 C2_2 1_555 1_555
C4_2 C3_2 1_555 1_555
H6_2 C4_2 1_555 1_555
H7_2 C4_2 1_555 1_555
C9_2 C3_2 1_555 1_555
C14_2 N3_2 1_555 1_555
C15_4 N3_2 1_555 1_555
H17_4 C15_4 1_555 1_555
C16_4 N4_2 1_555 1_555
H18_4 C16_4 1_555 1_555
C17_2 N4_2 1_555 1_555
H19_2 C17_2 1_555 1_555
H20_2 C17_2 1_555 1_555
C18_2 N5_2 1_555 1_555
C19_4 N5_2 1_555 1_555
H21_4 C19_4 1_555 1_555
O30 C9_2 1_555 1_555
H25_2 C2_2 1_555 1_555
C22_2 C3_2 1_555 1_555
H26_2 C22_2 1_555 1_555
H27_2 C22_2 1_555 1_555
C15_4 C16_4 1_555 1_555
H22_3 C20_3 1_555 1_555
H31_3 C26_3 1_555 1_555
H32_3 C27_3 1_555 1_555
O14 C37_2 1_555 1_555
N13_2 C26_3 1_555 1_555
N14_2 C27_3 1_555 1_555
C37_2 N13_2 1_555 1_555
C38_2 N14_2 1_555 1_555
H43_2 C38_2 1_555 1_555
H44_2 C38_2 1_555 1_555
N24_2 C20_3 1_555 1_555
C48_2 N13_2 1_555 1_555
H53_2 C48_2 1_555 1_555
H54_2 C48_2 1_555 1_555
Tb6 O14 1_555 1_555
C26_3 C27_3 1_555 1_555
N14_2 C37_2 1_555 1_555
N24_2 C48_2 1_555 1_555
C20_4 N6_2 1_555 1_555
H22_4 C20_4 1_555 1_555
C21_2 N6_2 1_555 1_555
H23_2 C21_2 1_555 1_555
H24_2 C21_2 1_555 1_555
O11_2 C25_2 1_555 1_555
N7_2 C21_2 1_555 1_555
N8_2 C25_2 1_555 1_555
C25_2 N7_2 1_555 1_555
C26_4 N7_2 1_555 1_555
H31_4 C26_4 1_555 1_555
C27_4 N8_2 1_555 1_555
H32_4 C27_4 1_555 1_555
C28_2 N8_2 1_555 1_555
H33_2 C28_2 1_555 1_555
H34_2 C28_2 1_555 1_555
Tb6 O11_2 1_555 1_555
O20_2 Tb6 1_555 1_555
O22_2 Tb6 1_555 1_555
O23_2 Tb6 1_555 1_555
H58_2 O23_2 1_555 1_555
O24_2 Tb6 1_555 1_555
H59_2 O24_2 1_555 1_555
H60_2 O24_2 1_555 1_555
H64_2 C53_2 1_555 1_555
C54_2 C49_2 1_555 1_555
H65_2 C54_2 1_555 1_555
H66_2 C54_2 1_555 1_555
C55_2 C53_2 1_555 1_555
H67_2 C55_2 1_555 1_555
H68_2 C55_2 1_555 1_555
C56_2 O20_2 1_555 1_555
O25_2 Tb6 1_555 1_555
C59_2 C55_2 1_555 1_555
H72_2 C59_2 1_555 1_555
C60_2 C49_2 1_555 1_555
H73_2 C60_2 1_555 1_555
H74_2 C60_2 1_555 1_555
H76_2 O23_2 1_555 1_555
C26_4 C27_4 1_555 1_555
C49_2 C56_2 1_555 1_555
C53_2 C54_2 1_555 1_555
C56_2 O25_2 1_555 1_555
C59_2 C60_2 1_555 1_555
H13_3 C11_3 1_555 1_555
H14_3 C12_3 1_555 1_555
H40_3 C35_3 1_555 1_555
N18_2 C35_3 1_555 1_555
C42_2 N18_2 1_555 1_555
H47_2 C42_2 1_555 1_555
H48_2 C42_2 1_555 1_555
O17 C43_2 1_555 1_555
N19_2 C11_3 1_555 1_555
N20_2 C12_3 1_555 1_555
C43_2 N19_2 1_555 1_555
C44_2 N20_2 1_555 1_555
H49_2 C44_2 1_555 1_555
H50_2 C44_2 1_555 1_555
Tb5 O17 1_555 1_555
C11_3 C12_3 1_555 1_555
C42_2 N19_2 1_555 1_555
N20_2 C43_2 1_555 1_555
Tb5 O1_2 1_555 1_555
O1_2 C8_2 1_555 1_555
O3_2 Tb5 1_555 1_555
O6_2 Tb5 1_555 1_555
O7_2 Tb5 1_555 1_555
H2_2 O7_2 1_555 1_555
O8_2 Tb5 1_555 1_555
H3_2 O8_2 1_555 1_555
H4_2 O8_2 1_555 1_555
N1_2 C10_2 1_555 1_555
N2_2 C10_2 1_555 1_555
H8_2 C5_2 1_555 1_555
C6_2 C1_2 1_555 1_555
H9_2 C6_2 1_555 1_555
H10_2 C6_2 1_555 1_555
C7_2 C5_2 1_555 1_555
H11_2 C7_2 1_555 1_555
H12_2 C7_2 1_555 1_555
C8_2 C1_2 1_555 1_555
C10_2 O3_2 1_555 1_555
C11_4 N1_2 1_555 1_555
H13_4 C11_4 1_555 1_555
C12_4 N2_2 1_555 1_555
H14_4 C12_4 1_555 1_555
C13_2 N2_2 1_555 1_555
H15_2 C13_2 1_555 1_555
H16_2 C13_2 1_555 1_555
O9_2 Tb5 1_555 1_555
C23_2 C7_2 1_555 1_555
H28_2 C23_2 1_555 1_555
C24_2 C1_2 1_555 1_555
H29_2 C24_2 1_555 1_555
H30_2 C24_2 1_555 1_555
C35_4 N12_2 1_555 1_555
H40_4 C35_4 1_555 1_555
C36_2 N1_2 1_555 1_555
H41_2 C36_2 1_555 1_555
H42_2 C36_2 1_555 1_555
H56_2 O7_2 1_555 1_555
C5_2 C6_2 1_555 1_555
C8_2 O9_2 1_555 1_555
C11_4 C12_4 1_555 1_555
C23_2 C24_2 1_555 1_555
N12_2 C36_2 1_555 1_555
H35_3 C30_3 1_555 1_555
H36_3 C31_3 1_555 1_555
H39_3 C34_3 1_555 1_555
O15_2 C39_2 1_555 1_555
O16_2 C41_2 1_555 1_555
N15_2 C30_3 1_555 1_555
N16_2 C31_3 1_555 1_555
N17_2 C34_3 1_555 1_555
C39_2 N15_2 1_555 1_555
C40_2 N16_2 1_555 1_555
H45_2 C40_2 1_555 1_555
H46_2 C40_2 1_555 1_555
C41_2 N17_2 1_555 1_555
C30_3 C31_3 1_555 1_555
N16_2 C39_2 1_555 1_555
N17_2 C40_2 1_555 1_555
O12_2 C29_2 1_555 1_555
O13_2 C33_2 1_555 1_555
N10_2 C29_2 1_555 1_555
N11_2 C32_2 1_555 1_555
C29_2 N9_2 1_555 1_555
C30_4 N9_2 1_555 1_555
H35_4 C30_4 1_555 1_555
C31_4 N10_2 1_555 1_555
H36_4 C31_4 1_555 1_555
C32_2 N10_2 1_555 1_555
H37_2 C32_2 1_555 1_555
H38_2 C32_2 1_555 1_555
C33_2 N11_2 1_555 1_555
C34_4 N11_2 1_555 1_555
H39_4 C34_4 1_555 1_555
O28 C57_2 1_555 1_555
C50_2 H61_2 1_555 1_555
C51_2 C50_2 1_555 1_555
C52_2 C51_2 1_555 1_555
H62_2 C52_2 1_555 1_555
H63_2 C52_2 1_555 1_555
C57_2 C51_2 1_555 1_555
O29 C57_2 1_555 1_555
H69_2 C50_2 1_555 1_555
C58_2 C51_2 1_555 1_555
H70_2 C58_2 1_555 1_555
H71_2 C58_2 1_555 1_555
C30_4 C31_4 1_555 1_555
O33 N25 1_555 1_555
O33_2 N25_2 1_555 1_555
O33_3 N25_3 1_555 1_555
O33_4 N25_4 1_555 1_555
O33_5 N25_5 1_555 1_555
O34_5 N25_5 1_555 1_555
O35_5 N25_5 1_555 1_555
O33_6 N25_6 1_555 1_555
O34_6 N25_6 1_555 1_555
O35_6 N25_6 1_555 1_555
O33_7 N25_7 1_555 1_555
O34_7 N25_7 1_555 1_555
O35_7 N25_7 1_555 1_555
O33_8 N25_8 1_555 1_555
O34_8 N25_8 1_555 1_555
O35_8 N25_8 1_555 1_555

#END
