
###############################################################################
#
# This file contains modified crystal structure data generated from the
# MOF subset of the Cambridge Structural Database (CSD) v543 
# hosted by the Cambridge Crystallographic Data Centre (CCDC).
#
# This work is licensed under the Creative Commons
# Attribution-NonCommercial-ShareAlike 4.0 International License.
# To view a copy of this license, visit
# http://creativecommons.org/licenses/by-nc-sa/4.0/
# or send a letter to
# Creative Commons, PO Box 1866, Mountain View, CA 94042, USA.
#
# CIF created using the CSD Python API on 29 September 2022
# The structure has been converted into the P1 space group
# The structure has a 3D framework
# The original CSD entry XUJVEG is in the triclinic crystal system
# The framework has been calculated to contain at least 10.0% void space
# The void calculation uses a probe of radius 1.32A, grid spacing 0.4
# The framework is charged, counterions have been retained in the structure
#
###############################################################################

data_XUJVEG
_chemical_formula_moiety         '(C44 H92 Br2 La4 N6 O28 P6)n'
_symmetry_cell_setting           triclinic
_symmetry_space_group_name_H-M   'P 1'
_symmetry_Int_Tables_number      1
_space_group_name_Hall           'P 1'
loop_
_symmetry_equiv_pos_site_id
_symmetry_equiv_pos_as_xyz
1 x,y,z
_cell_length_a                   9.6372(2)
_cell_length_b                   15.7944(4)
_cell_length_c                   17.0212(4)
_cell_angle_alpha                77.5540(10)
_cell_angle_beta                 75.5520(10)
_cell_angle_gamma                88.7790(10)
_cell_volume                     2448.52
loop_
_atom_site_label
_atom_site_type_symbol
_atom_site_fract_x
_atom_site_fract_y
_atom_site_fract_z
La7 La 0.29555(2) 0.33710(2) 0.10079(2)
P4 P 0.05698(9) 0.40667(6) 0.94294(5)
O17 O 0.0899(3) 0.49066(16) 0.87652(15)
O18 O 0.1598(3) 0.40411(17) 0.99846(16)
N4 N 0.0940(3) 0.23109(19) 0.9360(2)
H47 H 0.132143 0.230405 0.985631
C23 C 0.1120(4) 0.3217(2) 0.8843(2)
H48 H 0.214118 0.332642 0.854010
H49 H 0.055526 0.326144 0.842432
C24 C 0.1784(5) 0.1694(3) 0.8881(3)
H50 H 0.143987 0.170218 0.837799
H51 H 0.280782 0.188389 0.870049
C25 C 0.1633(4) 0.0781(3) 0.9405(3)
H52 H 0.217801 0.038736 0.906812
H53 H 0.205213 0.076553 0.988240
C26 C 0.0073(4) 0.0458(2) 0.9726(3)
La12 La 0.29274(2) 0.55859(2) 0.91157(2)
O4 O 0.5648(3) 0.35752(16) 0.01549(15)
O7 O 0.0981(3) 0.61027(16) 0.01116(16)
H36 H 0.031743 0.955743 0.076270
C18 C 0.0617(4) 0.7986(3) 0.0337(3)
H39 H 0.115814 0.758562 0.000641
H40 H 0.102356 0.797033 0.081894
La16 La 0.70726(2) 0.44141(2) 0.08843(2)
O42 O 0.3368(3) 0.49659(16) 0.05768(15)
P1 P 0.46925(10) 0.40011(6) 0.26101(5)
P2 P 0.59146(9) 0.42270(6) 0.93192(5)
O1 O 0.4563(3) 0.36902(17) 0.18365(16)
O2 O 0.3516(3) 0.45780(18) 0.29291(17)
O3 O 0.6202(3) 0.43795(18) 0.24371(16)
O5 O 0.6632(3) 0.50341(16) 0.94232(15)
O6 O 0.4594(3) 0.44033(17) 0.89955(16)
O10 O 0.0727(3) 0.2315(2) 0.1272(2)
O11 O 0.1832(5) 0.2283(3) 0.2407(2)
O13 O 0.4142(4) 0.1872(2) 0.1125(2)
O14 O 0.0909(3) 0.4061(2) 0.19155(17)
H1 H 0.034545 0.366123 0.229114
H2 H 0.033757 0.432444 0.161955
O15 O 0.2085(3) 0.7043(2) 0.83481(19)
H3 H 0.267795 0.747494 0.830760
H4 H 0.127055 0.719013 0.864618
N1 N 0.5326(4) 0.3065(2) 0.4060(2)
H5 H 0.631413 0.331583 0.377769
N2 N 0.6711(3) 0.3721(2) 0.77940(18)
H6 H 0.631940 0.429513 0.758996
C1 C 0.4592(5) 0.2989(3) 0.3395(2)
H8 H 0.357160 0.281607 0.365722
H9 H 0.503680 0.252474 0.311671
C2 C 0.4570(6) 0.3668(3) 0.4585(3)
H10 H 0.357260 0.344916 0.485337
H11 H 0.453523 0.424867 0.422763
C3 C 0.5332(5) 0.3746(3) 0.5249(3)
H12 H 0.479120 0.412702 0.560110
H13 H 0.630121 0.401327 0.498099
C4 C 0.5458(5) 0.2855(3) 0.5790(2)
H14 H 0.445993 0.260579 0.603519
C5 C 0.6239(6) 0.2263(3) 0.5239(3)
H15 H 0.722840 0.249637 0.496803
H16 H 0.629736 0.167958 0.558486
C6 C 0.5473(7) 0.2192(3) 0.4583(3)
H17 H 0.601506 0.181642 0.422461
H18 H 0.450954 0.191728 0.485404
C7 C 0.6109(5) 0.2882(3) 0.6528(2)
H19 H 0.646529 0.229191 0.671341
C8 C 0.4939(5) 0.3071(3) 0.7253(2)
H20 H 0.455869 0.365133 0.708627
H21 H 0.414049 0.263616 0.739739
C9 C 0.5530(4) 0.3043(3) 0.8006(2)
H22 H 0.475551 0.315108 0.847561
H23 H 0.590413 0.246200 0.817765
C10 C 0.7915(4) 0.3538(3) 0.7105(2)
H24 H 0.831234 0.296691 0.728847
H25 H 0.869125 0.398651 0.696591
C11 C 0.7364(5) 0.3535(3) 0.6338(2)
H26 H 0.815471 0.338993 0.589580
H27 H 0.705155 0.412336 0.612749
C12 C 0.7228(4) 0.3775(3) 0.8541(2)
H28 H 0.811997 0.414136 0.835838
H29 H 0.746457 0.318693 0.880491
C17 C 0.0776(5) 0.8898(3) 0.9807(3)
H37 H 0.043886 0.890018 0.930258
H38 H 0.180202 0.908248 0.962776
C19 C 0.0834(7) 0.1941(4) 0.2057(4)
H41 H 0.044502 0.061505 0.227452
C21 C 0.4177(5) 0.1827(3) 0.0388(3)
H45 H 0.516113 0.066727 0.041185
C42 C 0.0043(12) 0.8900(7) 0.7511(7)
H88 H 0.099590 0.885161 0.762065
H89 H 0.013978 0.900236 0.691108
La9 La 0.70445(2) 0.66290(2) 0.89921(2)
O32 O 0.5437(3) 0.63098(17) 0.81635(16)
O34 O 0.3798(3) 0.56205(18) 0.75629(16)
O38 O 0.4352(3) 0.64248(16) 0.98451(15)
O12 O 0.3458(3) 0.23406(18) 0.99638(18)
C22 C 0.5108(6) 0.1189(4) 0.9989(4)
H44 H 0.470095 0.103326 0.956426
H46 H 0.607292 0.144844 0.973018
C27 C 0.9224(5) 0.1102(3) 0.0193(3)
H55 H 0.956114 0.109982 0.069742
H56 H 0.819798 0.091752 0.037224
O16 O 0.9019(3) 0.38973(16) 0.98884(16)
H54 H 0.968257 0.044257 0.923730
C28 C 0.9383(4) 0.2014(3) 0.9663(3)
H57 H 0.884186 0.241438 0.999359
H58 H 0.897644 0.202967 0.918106
P3 P 0.94302(9) 0.59333(6) 0.05706(5)
O8 O 0.9101(3) 0.50934(16) 0.12348(15)
O9 O 0.8402(3) 0.59589(17) 0.00154(16)
N3 N 0.9060(3) 0.76891(19) 0.0640(2)
H7 H 0.867857 0.769595 0.014369
C13 C 0.8880(4) 0.6783(2) 0.1157(2)
H30 H 0.785882 0.667358 0.145990
H31 H 0.944474 0.673856 0.157568
C14 C 0.8216(5) 0.8306(3) 0.1119(3)
H32 H 0.856013 0.829782 0.162201
H33 H 0.719218 0.811611 0.129951
C15 C 0.8367(4) 0.9219(3) 0.0595(3)
H34 H 0.782199 0.961264 0.093188
H35 H 0.794787 0.923447 0.011760
C16 C 0.9927(4) 0.9542(2) 0.0274(3)
O27 O 0.6542(3) 0.76594(18) 0.00362(18)
C44 C 0.4892(6) 0.8811(4) 0.0011(4)
H90 H 0.529905 0.896674 0.043574
H92 H 0.392708 0.855156 0.026982
C20 C 0.9957(12) 0.1100(7) 0.2489(7)
H42 H 0.900410 0.114839 0.237935
H43 H 0.986022 0.099764 0.308892
P5 P 0.53075(10) 0.59989(6) 0.73899(5)
P6 P 0.40854(9) 0.57730(6) 0.06808(5)
O20 O 0.6484(3) 0.54220(18) 0.70709(17)
O24 O 0.5406(3) 0.55967(17) 0.10045(16)
O25 O 0.9273(3) 0.7685(2) 0.8728(2)
O26 O 0.8168(5) 0.7717(3) 0.7593(2)
O28 O 0.5858(4) 0.8128(2) 0.8875(2)
O29 O 0.9091(3) 0.5939(2) 0.80845(17)
H59 H 0.965455 0.633877 0.770886
H60 H 0.966243 0.567556 0.838045
O30 O 0.7915(3) 0.2957(2) 0.16519(19)
H61 H 0.732205 0.252506 0.169240
H62 H 0.872945 0.280987 0.135382
N5 N 0.4674(4) 0.6935(2) 0.5940(2)
H63 H 0.368587 0.668417 0.622231
N6 N 0.3289(3) 0.6279(2) 0.22060(18)
H64 H 0.368060 0.570487 0.241004
C29 C 0.5408(5) 0.7011(3) 0.6605(2)
H65 H 0.642840 0.718393 0.634278
H66 H 0.496320 0.747526 0.688329
C30 C 0.5430(6) 0.6332(3) 0.5415(3)
H67 H 0.642740 0.655084 0.514663
H68 H 0.546477 0.575133 0.577237
C31 C 0.4668(5) 0.6254(3) 0.4751(3)
H69 H 0.520880 0.587298 0.439890
H70 H 0.369879 0.598673 0.501901
C32 C 0.4542(5) 0.7145(3) 0.4210(2)
H71 H 0.554007 0.739421 0.396481
C33 C 0.3761(6) 0.7737(3) 0.4761(3)
H72 H 0.277160 0.750363 0.503197
H73 H 0.370264 0.832042 0.441514
C34 C 0.4527(7) 0.7808(3) 0.5417(3)
H74 H 0.398494 0.818358 0.577539
H75 H 0.549046 0.808272 0.514596
C35 C 0.3891(5) 0.7118(3) 0.3472(2)
H76 H 0.353471 0.770809 0.328659
C36 C 0.5061(5) 0.6929(3) 0.2747(2)
H77 H 0.544131 0.634867 0.291373
H78 H 0.585951 0.736384 0.260261
C37 C 0.4470(4) 0.6957(3) 0.1994(2)
H79 H 0.524449 0.684892 0.152439
H80 H 0.409587 0.753800 0.182235
C38 C 0.2085(4) 0.6462(3) 0.2895(2)
H81 H 0.168766 0.703309 0.271153
H82 H 0.130875 0.601349 0.303409
C39 C 0.2636(5) 0.6465(3) 0.3662(2)
H83 H 0.184529 0.661007 0.410420
H84 H 0.294845 0.587664 0.387251
C40 C 0.2772(4) 0.6225(3) 0.1459(2)
H85 H 0.188003 0.585864 0.164162
H86 H 0.253543 0.681307 0.119509
C41 C 0.9166(7) 0.8059(4) 0.7943(4)
H87 H 0.955498 0.938495 0.772548
C43 C 0.5823(5) 0.8173(3) 0.9612(3)
H91 H 0.483887 0.933273 0.958815
Br1 Br 0.63894(14) 0.94237(7) 0.27792(7)
Br1_2 Br 0.36106(14) 0.05763(7) 0.72208(7)
loop_
_geom_bond_atom_site_label_1
_geom_bond_atom_site_label_2
_geom_bond_site_symmetry_1
_geom_bond_site_symmetry_2
O17 P4 1_555 1_555
O18 P4 1_555 1_555
N4 H47 1_555 1_555
C23 P4 1_555 1_555
H48 C23 1_555 1_555
H49 C23 1_555 1_555
C24 N4 1_555 1_555
H50 C24 1_555 1_555
H51 C24 1_555 1_555
C25 C24 1_555 1_555
H52 C25 1_555 1_555
H53 C25 1_555 1_555
La12 O17 1_555 1_555
O18 La12 1_555 1_555
N4 C23 1_555 1_555
C25 C26 1_555 1_555
O4 La7 1_555 1_555
H39 C18 1_555 1_555
H40 C18 1_555 1_555
La7 O42 1_555 1_555
La16 O4 1_555 1_555
La7 O1 1_555 1_555
La12 O6 1_555 1_555
P1 O1 1_555 1_555
O1 La16 1_555 1_555
O2 P1 1_555 1_555
O3 P1 1_555 1_555
O5 P2 1_555 1_555
O6 P2 1_555 1_555
O10 La7 1_555 1_555
O11 La7 1_555 1_555
O13 La7 1_555 1_555
O14 La7 1_555 1_555
H1 O14 1_555 1_555
H2 O14 1_555 1_555
O15 La12 1_555 1_555
H3 O15 1_555 1_555
H4 O15 1_555 1_555
N1 H5 1_555 1_555
N2 H6 1_555 1_555
C1 P1 1_555 1_555
H8 C1 1_555 1_555
H9 C1 1_555 1_555
C2 N1 1_555 1_555
H10 C2 1_555 1_555
H11 C2 1_555 1_555
C3 C2 1_555 1_555
H12 C3 1_555 1_555
H13 C3 1_555 1_555
C4 C3 1_555 1_555
H14 C4 1_555 1_555
C5 C4 1_555 1_555
H15 C5 1_555 1_555
H16 C5 1_555 1_555
C6 N1 1_555 1_555
H17 C6 1_555 1_555
H18 C6 1_555 1_555
C7 C4 1_555 1_555
H19 C7 1_555 1_555
C8 C7 1_555 1_555
H20 C8 1_555 1_555
H21 C8 1_555 1_555
C9 N2 1_555 1_555
H22 C9 1_555 1_555
H23 C9 1_555 1_555
C10 N2 1_555 1_555
H24 C10 1_555 1_555
H25 C10 1_555 1_555
C11 C7 1_555 1_555
H26 C11 1_555 1_555
H27 C11 1_555 1_555
C12 P2 1_555 1_555
H28 C12 1_555 1_555
H29 C12 1_555 1_555
H37 C17 1_555 1_555
H38 C17 1_555 1_555
C19 O10 1_555 1_555
H88 C42 1_555 1_555
H89 C42 1_555 1_555
La9 O5 1_555 1_555
La16 O3 1_555 1_555
O32 La12 1_555 1_555
O34 La12 1_555 1_555
O38 La12 1_555 1_555
O11 C19 1_555 1_555
O13 C21 1_555 1_555
N1 C1 1_555 1_555
N2 C12 1_555 1_555
C5 C6 1_555 1_555
C8 C9 1_555 1_555
C10 C11 1_555 1_555
La9 O32 1_555 1_555
La9 O38 1_555 1_555
H44 C22 1_555 1_555
H46 C22 1_555 1_555
H55 C27 1_555 1_555
H56 C27 1_555 1_555
H57 C28 1_555 1_555
H58 C28 1_555 1_555
O8 P3 1_555 1_555
O9 P3 1_555 1_555
N3 H7 1_555 1_555
C13 P3 1_555 1_555
H30 C13 1_555 1_555
H31 C13 1_555 1_555
C14 N3 1_555 1_555
H32 C14 1_555 1_555
H33 C14 1_555 1_555
C15 C14 1_555 1_555
H34 C15 1_555 1_555
H35 C15 1_555 1_555
C16 C15 1_555 1_555
H90 C44 1_555 1_555
H92 C44 1_555 1_555
La16 O8 1_555 1_555
O9 La16 1_555 1_555
N3 C13 1_555 1_555
H42 C20 1_555 1_555
H43 C20 1_555 1_555
La16 O24 1_555 1_555
P5 O32 1_555 1_555
O20 P5 1_555 1_555
O34 P5 1_555 1_555
O42 P6 1_555 1_555
O24 P6 1_555 1_555
O25 La9 1_555 1_555
O26 La9 1_555 1_555
O28 La9 1_555 1_555
O29 La9 1_555 1_555
H59 O29 1_555 1_555
H60 O29 1_555 1_555
O30 La16 1_555 1_555
H61 O30 1_555 1_555
H62 O30 1_555 1_555
N5 H63 1_555 1_555
N6 H64 1_555 1_555
C29 P5 1_555 1_555
H65 C29 1_555 1_555
H66 C29 1_555 1_555
C30 N5 1_555 1_555
H67 C30 1_555 1_555
H68 C30 1_555 1_555
C31 C30 1_555 1_555
H69 C31 1_555 1_555
H70 C31 1_555 1_555
C32 C31 1_555 1_555
H71 C32 1_555 1_555
C33 C32 1_555 1_555
H72 C33 1_555 1_555
H73 C33 1_555 1_555
C34 N5 1_555 1_555
H74 C34 1_555 1_555
H75 C34 1_555 1_555
C35 C32 1_555 1_555
H76 C35 1_555 1_555
C36 C35 1_555 1_555
H77 C36 1_555 1_555
H78 C36 1_555 1_555
C37 N6 1_555 1_555
H79 C37 1_555 1_555
H80 C37 1_555 1_555
C38 N6 1_555 1_555
H81 C38 1_555 1_555
H82 C38 1_555 1_555
C39 C35 1_555 1_555
H83 C39 1_555 1_555
H84 C39 1_555 1_555
C40 P6 1_555 1_555
H85 C40 1_555 1_555
H86 C40 1_555 1_555
C41 O25 1_555 1_555
O26 C41 1_555 1_555
O28 C43 1_555 1_555
N5 C29 1_555 1_555
N6 C40 1_555 1_555
C33 C34 1_555 1_555
C36 C37 1_555 1_555
C38 C39 1_555 1_555

#END
