
###############################################################################
#
# This file contains modified crystal structure data generated from the
# MOF subset of the Cambridge Structural Database (CSD) v543 
# hosted by the Cambridge Crystallographic Data Centre (CCDC).
#
# This work is licensed under the Creative Commons
# Attribution-NonCommercial-ShareAlike 4.0 International License.
# To view a copy of this license, visit
# http://creativecommons.org/licenses/by-nc-sa/4.0/
# or send a letter to
# Creative Commons, PO Box 1866, Mountain View, CA 94042, USA.
#
# CIF created using the CSD Python API on 29 September 2022
# The structure has been converted into the P1 space group
# The structure has a 3D framework
# The original CSD entry XUKLAS is in the triclinic crystal system
# The framework has been calculated to contain at least 10.0% void space
# The void calculation uses a probe of radius 1.32A, grid spacing 0.4
#
###############################################################################

data_XUKLAS
_chemical_formula_moiety         '(C62 H58 N10 O18 Zn4)n'
_symmetry_cell_setting           triclinic
_symmetry_space_group_name_H-M   'P 1'
_symmetry_Int_Tables_number      1
_space_group_name_Hall           'P 1'
loop_
_symmetry_equiv_pos_site_id
_symmetry_equiv_pos_as_xyz
1 x,y,z
_cell_length_a                   7.3284(8)
_cell_length_b                   16.1379(17)
_cell_length_c                   16.3532(19)
_cell_angle_alpha                111.241(7)
_cell_angle_beta                 92.752(8)
_cell_angle_gamma                98.743(7)
_cell_volume                     1770.49
loop_
_atom_site_label
_atom_site_type_symbol
_atom_site_fract_x
_atom_site_fract_y
_atom_site_fract_z
_atom_site_U_iso_or_equiv
_atom_site_thermal_displace_type
H30 H 0.0122 0.6100 0.5806 0.0440 Uiso
Zn7 Zn 0.13474(4) 0.54969(2) 0.72840(2) 0.0345 Uani
Zn9 Zn 0.35008(5) 0.75948(3) 0.98560(3) 0.0423 Uani
C37 C 0.5955(5) 0.9026(2) 0.9443(3) 0.0573 Uani
H34 H 0.4884 0.9007 0.9103 0.0690 Uiso
C38 C 0.7521(5) 0.9629(3) 0.9469(3) 0.0620 Uani
C39 C 0.9144(4) 0.9674(2) 0.9969(2) 0.0367 Uani
N7 N 0.5890(3) 0.84689(18) 0.9879(2) 0.0443 Uani
O12 O 0.0854(3) 0.64830(15) 0.84274(14) 0.0416 Uani
O15 O 0.1887(3) 0.79490(15) 0.90702(16) 0.0475 Uani
C47 C 0.1527(5) 0.8698(2) 0.7666(3) 0.0581 Uani
H39 H 0.1448 0.9076 0.7332 0.0870 Uiso
H40 H 0.1842 0.9070 0.8281 0.0870 Uiso
H41 H 0.2467 0.8340 0.7467 0.0870 Uiso
C59 C 0.0791(4) 0.7286(2) 0.8514(2) 0.0362 Uani
O18 O 0.4980(3) 0.66024(18) 0.96318(18) 0.0578 Uani
C60 C 0.4644(5) 0.5788(3) 0.9202(3) 0.0531 Uani
H52 H 0.3454 0.5533 0.8912 0.0640 Uiso
C61 C 0.7735(7) 0.5603(4) 0.9570(4) 0.0972 Uani
H53 H 0.7854 0.6237 0.9913 0.1450 Uiso
H54 H 0.7984 0.5291 0.9952 0.1450 Uiso
H55 H 0.8606 0.5515 0.9140 0.1450 Uiso
C62 C 0.5377(9) 0.4294(3) 0.8559(4) 0.1056 Uani
H56 H 0.4103 0.4157 0.8310 0.1580 Uiso
H57 H 0.6164 0.4162 0.8093 0.1580 Uiso
H58 H 0.5544 0.3933 0.8902 0.1580 Uiso
N10 N 0.5862(5) 0.5251(2) 0.9125(2) 0.0642 Uani
O10 O 0.2915(3) 0.6681(2) 0.68029(19) 0.0663 Uani
O11 O 0.4095(3) 0.58953(16) 0.74561(17) 0.0506 Uani
O13 O 0.0605(3) 0.44775(15) 0.76892(16) 0.0452 Uani
O14 O 0.1578(4) 0.38653(18) 0.63957(19) 0.0637 Uani
C42 C 0.4259(4) 0.6516(2) 0.7154(2) 0.0426 Uani
C43 C 0.6179(4) 0.7060(2) 0.7259(2) 0.0347 Uani
C44 C 0.7567(4) 0.6961(2) 0.7801(2) 0.0342 Uani
H38 H 0.7297 0.6547 0.8073 0.0410 Uiso
C45 C 0.9347(4) 0.7459(2) 0.7951(2) 0.0340 Uani
C46 C 0.9681(4) 0.8085(2) 0.7540(2) 0.0370 Uani
C48 C 0.6665(4) 0.7662(2) 0.6832(2) 0.0381 Uani
C49 C 0.5400(5) 0.7791(3) 0.6151(3) 0.0583 Uani
H42 H 0.6041 0.8238 0.5956 0.0870 Uiso
H43 H 0.5037 0.7229 0.5657 0.0870 Uiso
H44 H 0.4314 0.7988 0.6407 0.0870 Uiso
C50 C 0.0772(4) 0.3792(2) 0.7015(2) 0.0427 Uani
H47 H 0.0971 0.2294 0.5283 0.1540 Uiso
N8 N 0.8377(4) 0.81611(18) 0.69866(19) 0.0432 Uani
H15 H 0.2460 0.0126 0.3603 0.1620 Uiso
O7 O 0.3022(4) 0.8664(2) 0.1257(2) 0.0780 Uani
O8 O 0.1943(5) 0.7230(2) 0.0692(2) 0.0829 Uani
C9 C 0.0947(4) 0.4282(2) 0.4174(2) 0.0363 Uani
C10 C 0.2501(4) 0.4386(2) 0.4729(2) 0.0375 Uani
H9 H 0.2465 0.4083 0.5118 0.0450 Uiso
C11 C 0.4149(4) 0.49496(19) 0.47116(19) 0.0308 Uani
C12 C 0.4070(4) 0.5382(2) 0.4126(2) 0.0431 Uani
H10 H 0.5118 0.5768 0.4091 0.0520 Uiso
C13 C 0.2465(4) 0.5249(2) 0.3594(2) 0.0453 Uani
H11 H 0.2460 0.5550 0.3205 0.0540 Uiso
C15 C 0.0128(5) 0.7118(2) 0.3000(2) 0.0437 Uani
C16 C 0.0535(6) 0.7899(3) 0.3763(3) 0.0576 Uani
C17 C 0.0304(9) 0.7928(3) 0.4684(3) 0.1024 Uani
H12 H 0.0659 0.8539 0.5099 0.1540 Uiso
H13 H 0.1078 0.7556 0.4823 0.1540 Uiso
C18 C 0.1713(6) 0.8755(3) 0.2959(3) 0.0631 Uani
C19 C 0.2437(9) 0.9706(3) 0.3009(4) 0.1080 Uani
H16 H 0.1638 0.9854 0.2619 0.1620 Uiso
H17 H 0.3671 0.9740 0.2836 0.1620 Uiso
C20 C 0.1501(5) 0.7984(2) 0.2172(2) 0.0452 Uani
C21 C 0.0666(4) 0.7175(2) 0.2220(2) 0.0411 Uani
H18 H 0.0461 0.6654 0.1711 0.0490 Uiso
C22 C 0.2201(5) 0.7979(3) 0.1331(3) 0.0521 Uani
N1 N 0.0893(3) 0.47003(17) 0.36066(17) 0.0344 Uani
N3 N 0.1294(5) 0.8698(2) 0.3723(3) 0.0712 Uani
C32 C 0.9053(4) 0.5718(2) 0.5826(2) 0.0363 Uani
C33 C 0.7499(4) 0.5614(2) 0.5271(2) 0.0375 Uani
H31 H 0.7535 0.5917 0.4882 0.0450 Uiso
C34 C 0.5851(4) 0.50504(19) 0.52884(19) 0.0308 Uani
C35 C 0.5930(4) 0.4618(2) 0.5874(2) 0.0431 Uani
H32 H 0.4882 0.4232 0.5909 0.0520 Uiso
C36 C 0.7535(4) 0.4751(2) 0.6406(2) 0.0453 Uani
H33 H 0.7540 0.4450 0.6795 0.0540 Uiso
N6 N 0.9107(3) 0.52997(17) 0.63934(17) 0.0344 Uani
C27 C 0.0929(5) 0.0917(2) 0.9595(3) 0.0518 Uani
C28 C 0.2548(5) 0.1494(3) 0.9651(3) 0.0569 Uani
H22 H 0.2555 0.1880 0.9344 0.0680 Uiso
O22 O 0.6978(4) 0.1336(2) 0.8743(2) 0.0780 Uani
O24 O 0.8057(5) 0.2770(2) 0.9308(2) 0.0829 Uani
C40 C 0.9071(5) 0.9083(2) 0.0405(3) 0.0518 Uani
C41 C 0.7452(5) 0.8506(3) 0.0349(3) 0.0569 Uani
H37 H 0.7445 0.8120 0.0656 0.0680 Uiso
C51 C 0.9872(5) 0.2882(2) 0.7000(2) 0.0437 Uani
C52 C 0.9465(6) 0.2101(3) 0.6237(3) 0.0576 Uani
C53 C 0.9696(9) 0.2072(3) 0.5316(3) 0.1024 Uani
H45 H 0.9341 0.1461 0.4901 0.1540 Uiso
H46 H 0.8922 0.2444 0.5177 0.1540 Uiso
C54 C 0.8287(6) 0.1245(3) 0.7041(3) 0.0631 Uani
C55 C 0.7563(9) 0.0294(3) 0.6991(4) 0.1080 Uani
H49 H 0.8362 0.0146 0.7381 0.1620 Uiso
H50 H 0.6329 0.0260 0.7164 0.1620 Uiso
C56 C 0.8499(5) 0.2016(2) 0.7828(2) 0.0452 Uani
C57 C 0.9334(4) 0.2825(2) 0.7780(2) 0.0411 Uani
H51 H 0.9539 0.3346 0.8289 0.0490 Uiso
C58 C 0.7799(5) 0.2021(3) 0.8669(3) 0.0521 Uani
N9 N 0.8706(5) 0.1302(2) 0.6277(3) 0.0712 Uani
Zn1 Zn 0.86526(4) 0.45031(2) 0.27160(2) 0.0345 Uani
O1 O 0.7085(3) 0.3319(2) 0.31971(19) 0.0663 Uani
O2 O 0.5905(3) 0.41047(16) 0.25439(17) 0.0506 Uani
O4 O 0.9395(3) 0.55225(15) 0.23108(16) 0.0452 Uani
O5 O 0.8422(4) 0.61347(18) 0.36043(19) 0.0637 Uani
C1 C 0.5741(4) 0.3484(2) 0.2846(2) 0.0426 Uani
C2 C 0.3821(4) 0.2940(2) 0.2741(2) 0.0347 Uani
C3 C 0.2433(4) 0.3039(2) 0.2199(2) 0.0342 Uani
H1 H 0.2703 0.3453 0.1927 0.0410 Uiso
C4 C 0.0653(4) 0.2541(2) 0.2049(2) 0.0340 Uani
C5 C 0.0319(4) 0.1915(2) 0.2460(2) 0.0370 Uani
C7 C 0.3335(4) 0.2338(2) 0.3168(2) 0.0381 Uani
C8 C 0.4600(5) 0.2209(3) 0.3849(3) 0.0583 Uani
H5 H 0.3959 0.1762 0.4044 0.0870 Uiso
H6 H 0.4963 0.2771 0.4343 0.0870 Uiso
H7 H 0.5686 0.2012 0.3593 0.0870 Uiso
H8 H 0.9878 0.3900 0.4194 0.0440 Uiso
C14 C 0.9228(4) 0.6208(2) 0.2985(2) 0.0427 Uani
H14 H 0.9029 0.7706 0.4717 0.1540 Uiso
N2 N 0.1623(4) 0.18389(18) 0.30134(19) 0.0432 Uani
O19 O 0.9146(3) 0.35170(15) 0.15726(14) 0.0416 Uani
O6 O 0.8113(3) 0.20510(15) 0.09298(16) 0.0475 Uani
C6 C 0.8473(5) 0.1302(2) 0.2334(3) 0.0581 Uani
H2 H 0.8552 0.0924 0.2668 0.0870 Uiso
H3 H 0.8158 0.0930 0.1719 0.0870 Uiso
H4 H 0.7533 0.1660 0.2533 0.0870 Uiso
C23 C 0.9209(4) 0.2714(2) 0.1486(2) 0.0362 Uani
Zn2 Zn 0.64992(5) 0.24052(3) 0.01440(3) 0.0423 Uani
O9 O 0.5020(3) 0.33976(18) 0.03682(18) 0.0578 Uani
C24 C 0.4045(5) 0.0974(2) 0.0557(3) 0.0573 Uani
H19 H 0.5116 0.0993 0.0897 0.0690 Uiso
C25 C 0.2479(5) 0.0371(3) 0.0531(3) 0.0620 Uani
C26 C 0.0856(4) 0.0326(2) 0.0031(2) 0.0367 Uani
C29 C 0.5356(5) 0.4212(3) 0.0798(3) 0.0531 Uani
H23 H 0.6546 0.4467 0.1088 0.0640 Uiso
C30 C 0.2265(7) 0.4397(4) 0.0430(4) 0.0972 Uani
H24 H 0.2146 0.3763 0.0087 0.1450 Uiso
H25 H 0.2016 0.4709 0.0048 0.1450 Uiso
H26 H 0.1394 0.4485 0.0860 0.1450 Uiso
C31 C 0.4623(9) 0.5706(3) 0.1441(4) 0.1056 Uani
H27 H 0.5897 0.5843 0.1690 0.1580 Uiso
H28 H 0.3836 0.5838 0.1907 0.1580 Uiso
H29 H 0.4456 0.6067 0.1098 0.1580 Uiso
N4 N 0.4110(3) 0.15311(18) 0.0121(2) 0.0443 Uani
N5 N 0.4138(5) 0.4749(2) 0.0875(2) 0.0642 Uani
H20 H 0.2507 0.9995 0.0846 0.0740 Uiso
H36 H 0.0129 0.9076 0.0739 0.0620 Uiso
H21 H 0.9871 0.0924 0.9261 0.0620 Uiso
H35 H 0.7493 0.0005 0.9154 0.0740 Uiso
H48 H 0.7540 0.9874 0.6397 0.1620 Uiso
loop_
_atom_site_aniso_label
_atom_site_aniso_U_11
_atom_site_aniso_U_22
_atom_site_aniso_U_33
_atom_site_aniso_U_23
_atom_site_aniso_U_13
_atom_site_aniso_U_12
Zn7 0.02612 0.0386 0.0401 0.02036 -0.00242 -0.00228
Zn9 0.0347 0.0477 0.0469 0.0242 0.00364 -0.00164
C37 0.0319 0.06 0.087 0.045 -0.0123 -0.0093
C38 0.039 0.065 0.092 0.052 -0.014 -0.0112
C39 0.0272 0.0348 0.045 0.0134 0.0017 0.0008
N7 0.0294 0.0449 0.06 0.024 0.0023 0.0009
O12 0.0423 0.0472 0.0388 0.0201 0.0031 0.0091
O15 0.0367 0.0505 0.0483 0.0179 -0.0084 -0.0072
C47 0.05 0.05 0.077 0.034 0.0044 -0.0083
C59 0.0252 0.0468 0.0377 0.0182 0.0081 0.0023
O18 0.0523 0.0524 0.0676 0.0239 -0.0011 0.0052
C60 0.046 0.063 0.06 0.037 -0.0008 0.0057
C61 0.064 0.114 0.144 0.079 0.018 0.027
C62 0.172 0.074 0.074 0.022 0.014 0.046
N10 0.075 0.068 0.066 0.0393 0.0166 0.023
O10 0.0302 0.094 0.075 0.0389 -0.0099 -0.0015
O11 0.0306 0.0504 0.0725 0.0295 0.0069 -0.0041
O13 0.0488 0.0396 0.0468 0.0209 -0.0003 -0.0033
O14 0.07 0.0649 0.0627 0.0369 0.0181 -0.0048
C42 0.0293 0.05 0.041 0.0109 0.0032 0.0008
C43 0.0261 0.035 0.0386 0.0103 0.0011 0.0017
C44 0.0331 0.035 0.0347 0.0145 0.0057 0.0022
C45 0.0268 0.0322 0.0379 0.0092 0.0024 0.0004
C46 0.0343 0.032 0.041 0.0113 0.0065 0.0006
C48 0.0366 0.0361 0.042 0.0159 0.0029 0.0046
C49 0.053 0.068 0.064 0.038 -0.0034 0.0108
C50 0.0364 0.049 0.05 0.0306 -0.0006 0.0006
N8 0.0421 0.0397 0.0521 0.0232 0.0058 0.0047
O7 0.071 0.097 0.084 0.0683 0.0026 -0.0161
O8 0.128 0.07 0.067 0.0388 0.048 0.0215
C9 0.0259 0.0436 0.0365 0.016 -0.0012 -0.0035
C10 0.0312 0.049 0.035 0.0232 0.0026 -0.0035
C11 0.0292 0.0339 0.0257 0.0089 0.0004 0.002
C12 0.0328 0.0487 0.048 0.026 -0.0067 -0.0084
C13 0.0368 0.052 0.054 0.0338 -0.0049 -0.0039
C15 0.0467 0.0427 0.046 0.0222 0.0115 0.0046
C16 0.074 0.051 0.046 0.0184 0.0138 0.003
C17 0.16 0.078 0.053 0.018 0.024 -0.014
C18 0.074 0.045 0.074 0.03 0.015 0
C19 0.161 0.047 0.117 0.04 0.033 -0.007
C20 0.048 0.046 0.051 0.0289 0.0109 0.008
C21 0.0433 0.0401 0.044 0.0197 0.0088 0.0086
C22 0.0416 0.074 0.062 0.047 0.0109 0.0176
N1 0.0292 0.0385 0.0358 0.0172 -0.0012 0
N3 0.096 0.0464 0.068 0.0229 0.017 -0.0024
C32 0.0259 0.0436 0.0365 0.016 -0.0012 -0.0035
C33 0.0312 0.049 0.035 0.0232 0.0026 -0.0035
C34 0.0292 0.0339 0.0257 0.0089 0.0004 0.002
C35 0.0328 0.0487 0.048 0.026 -0.0067 -0.0084
C36 0.0368 0.052 0.054 0.0338 -0.0049 -0.0039
N6 0.0292 0.0385 0.0358 0.0172 -0.0012 0
C27 0.0338 0.059 0.069 0.038 -0.0089 -0.0035
C28 0.0389 0.065 0.077 0.047 -0.0073 -0.0074
O22 0.071 0.097 0.084 0.0683 0.0026 -0.0161
O24 0.128 0.07 0.067 0.0388 0.048 0.0215
C40 0.0338 0.059 0.069 0.038 -0.0089 -0.0035
C41 0.0389 0.065 0.077 0.047 -0.0073 -0.0074
C51 0.0467 0.0427 0.046 0.0222 0.0115 0.0046
C52 0.074 0.051 0.046 0.0184 0.0138 0.003
C53 0.16 0.078 0.053 0.018 0.024 -0.014
C54 0.074 0.045 0.074 0.03 0.015 0
C55 0.161 0.047 0.117 0.04 0.033 -0.007
C56 0.048 0.046 0.051 0.0289 0.0109 0.008
C57 0.0433 0.0401 0.044 0.0197 0.0088 0.0086
C58 0.0416 0.074 0.062 0.047 0.0109 0.0176
N9 0.096 0.0464 0.068 0.0229 0.017 -0.0024
Zn1 0.02612 0.0386 0.0401 0.02036 -0.00242 -0.00228
O1 0.0302 0.094 0.075 0.0389 -0.0099 -0.0015
O2 0.0306 0.0504 0.0725 0.0295 0.0069 -0.0041
O4 0.0488 0.0396 0.0468 0.0209 -0.0003 -0.0033
O5 0.07 0.0649 0.0627 0.0369 0.0181 -0.0048
C1 0.0293 0.05 0.041 0.0109 0.0032 0.0008
C2 0.0261 0.035 0.0386 0.0103 0.0011 0.0017
C3 0.0331 0.035 0.0347 0.0145 0.0057 0.0022
C4 0.0268 0.0322 0.0379 0.0092 0.0024 0.0004
C5 0.0343 0.032 0.041 0.0113 0.0065 0.0006
C7 0.0366 0.0361 0.042 0.0159 0.0029 0.0046
C8 0.053 0.068 0.064 0.038 -0.0034 0.0108
C14 0.0364 0.049 0.05 0.0306 -0.0006 0.0006
N2 0.0421 0.0397 0.0521 0.0232 0.0058 0.0047
O19 0.0423 0.0472 0.0388 0.0201 0.0031 0.0091
O6 0.0367 0.0505 0.0483 0.0179 -0.0084 -0.0072
C6 0.05 0.05 0.077 0.034 0.0044 -0.0083
C23 0.0252 0.0468 0.0377 0.0182 0.0081 0.0023
Zn2 0.0347 0.0477 0.0469 0.0242 0.00364 -0.00164
O9 0.0523 0.0524 0.0676 0.0239 -0.0011 0.0052
C24 0.0319 0.06 0.087 0.045 -0.0123 -0.0093
C25 0.039 0.065 0.092 0.052 -0.014 -0.0112
C26 0.0272 0.0348 0.045 0.0134 0.0017 0.0008
C29 0.046 0.063 0.06 0.037 -0.0008 0.0057
C30 0.064 0.114 0.144 0.079 0.018 0.027
C31 0.172 0.074 0.074 0.022 0.014 0.046
N4 0.0294 0.0449 0.06 0.024 0.0023 0.0009
N5 0.075 0.068 0.066 0.0393 0.0166 0.023
loop_
_geom_bond_atom_site_label_1
_geom_bond_atom_site_label_2
_geom_bond_site_symmetry_1
_geom_bond_site_symmetry_2
C37 H34 1_555 1_555
C38 C37 1_555 1_555
N7 C37 1_555 1_555
O12 C59 1_555 1_555
O15 C59 1_555 1_555
H39 C47 1_555 1_555
H40 C47 1_555 1_555
H41 C47 1_555 1_555
Zn9 N7 1_555 1_555
O18 Zn9 1_555 1_555
C60 O18 1_555 1_555
H52 C60 1_555 1_555
C61 H53 1_555 1_555
H54 C61 1_555 1_555
H55 C61 1_555 1_555
C62 H56 1_555 1_555
H57 C62 1_555 1_555
H58 C62 1_555 1_555
N10 C60 1_555 1_555
Zn7 O12 1_555 1_555
C38 C39 1_555 1_555
O15 Zn9 1_555 1_555
C61 N10 1_555 1_555
C62 N10 1_555 1_555
Zn7 O10 1_555 1_555
O10 C42 1_555 1_555
O11 Zn7 1_555 1_555
O13 Zn7 1_555 1_555
O14 Zn7 1_555 1_555
C42 O11 1_555 1_555
C43 C42 1_555 1_555
C44 C43 1_555 1_555
H38 C44 1_555 1_555
C45 C44 1_555 1_555
C46 C45 1_555 1_555
C48 C43 1_555 1_555
C49 C48 1_555 1_555
H42 C49 1_555 1_555
H43 C49 1_555 1_555
H44 C49 1_555 1_555
C50 O13 1_555 1_555
N8 C46 1_555 1_555
O14 C50 1_555 1_555
C48 N8 1_555 1_555
O7 C22 1_555 1_555
O8 C22 1_555 1_555
C10 C9 1_555 1_555
H9 C10 1_555 1_555
C11 C10 1_555 1_555
C12 C11 1_555 1_555
H10 C12 1_555 1_555
C13 C12 1_555 1_555
H11 C13 1_555 1_555
C16 C15 1_555 1_555
C17 C16 1_555 1_555
H12 C17 1_555 1_555
H13 C17 1_555 1_555
C18 C19 1_555 1_555
H16 C19 1_555 1_555
H17 C19 1_555 1_555
C20 C18 1_555 1_555
C21 C15 1_555 1_555
H18 C21 1_555 1_555
C22 C20 1_555 1_555
N3 C16 1_555 1_555
C33 C32 1_555 1_555
H31 C33 1_555 1_555
C34 C11 1_555 1_555
C35 C34 1_555 1_555
H32 C35 1_555 1_555
C36 C35 1_555 1_555
H33 C36 1_555 1_555
N6 C32 1_555 1_555
C9 N1 1_555 1_555
C13 N1 1_555 1_555
C18 N3 1_555 1_555
C20 C21 1_555 1_555
C33 C34 1_555 1_555
C36 N6 1_555 1_555
C28 C27 1_555 1_555
H22 C28 1_555 1_555
C41 C40 1_555 1_555
H37 C41 1_555 1_555
O22 C58 1_555 1_555
O24 C58 1_555 1_555
C52 C51 1_555 1_555
C53 C52 1_555 1_555
H45 C53 1_555 1_555
H46 C53 1_555 1_555
C54 C55 1_555 1_555
H49 C55 1_555 1_555
H50 C55 1_555 1_555
C56 C54 1_555 1_555
C57 C51 1_555 1_555
H51 C57 1_555 1_555
C58 C56 1_555 1_555
N9 C52 1_555 1_555
C54 N9 1_555 1_555
C56 C57 1_555 1_555
Zn1 O1 1_555 1_555
O1 C1 1_555 1_555
O2 Zn1 1_555 1_555
O4 Zn1 1_555 1_555
O5 Zn1 1_555 1_555
C1 O2 1_555 1_555
C2 C1 1_555 1_555
C3 C2 1_555 1_555
H1 C3 1_555 1_555
C4 C3 1_555 1_555
C5 C4 1_555 1_555
C7 C2 1_555 1_555
C8 C7 1_555 1_555
H5 C8 1_555 1_555
H6 C8 1_555 1_555
H7 C8 1_555 1_555
C14 O4 1_555 1_555
N2 C5 1_555 1_555
O19 Zn1 1_555 1_555
O5 C14 1_555 1_555
C7 N2 1_555 1_555
O19 C23 1_555 1_555
O6 C23 1_555 1_555
H2 C6 1_555 1_555
H3 C6 1_555 1_555
H4 C6 1_555 1_555
Zn2 O6 1_555 1_555
O9 Zn2 1_555 1_555
C24 H19 1_555 1_555
C25 C24 1_555 1_555
C26 C25 1_555 1_555
C29 O9 1_555 1_555
H23 C29 1_555 1_555
C30 H24 1_555 1_555
H25 C30 1_555 1_555
H26 C30 1_555 1_555
C31 H27 1_555 1_555
H28 C31 1_555 1_555
H29 C31 1_555 1_555
N4 Zn2 1_555 1_555
N5 C29 1_555 1_555
C24 N4 1_555 1_555
C30 N5 1_555 1_555
C31 N5 1_555 1_555

#END
