
###############################################################################
#
# This file contains modified crystal structure data generated from the
# MOF subset of the Cambridge Structural Database (CSD) v543 
# hosted by the Cambridge Crystallographic Data Centre (CCDC).
#
# This work is licensed under the Creative Commons
# Attribution-NonCommercial-ShareAlike 4.0 International License.
# To view a copy of this license, visit
# http://creativecommons.org/licenses/by-nc-sa/4.0/
# or send a letter to
# Creative Commons, PO Box 1866, Mountain View, CA 94042, USA.
#
# CIF created using the CSD Python API on 29 September 2022
# The structure has been converted into the P1 space group
# The structure has a 3D framework
# The original CSD entry XUKMIC03 is in the hexagonal crystal system
# The original CSD entry XUKMIC03 is in a Sohncke space group
# The framework has been calculated to contain at least 10.0% void space
# The void calculation uses a probe of radius 1.32A, grid spacing 0.4
# The framework is charged, counterions have been retained in the structure
# H atom positions have been added when not included in the experimental data
# Generated hydrogen atom positions removed from atoms on special positions
#
###############################################################################

data_XUKMIC03
_chemical_formula_moiety         '(C372 H312 Cu16 N24 O12 32+)n'
_symmetry_cell_setting           triclinic
_symmetry_space_group_name_H-M   'P 1'
_symmetry_Int_Tables_number      1
_space_group_name_Hall           'P 1'
loop_
_symmetry_equiv_pos_site_id
_symmetry_equiv_pos_as_xyz
1 x,y,z
_cell_length_a                   26.3073(16)
_cell_length_b                   26.3073(16)
_cell_length_c                   18.1174(12)
_cell_angle_alpha                90
_cell_angle_beta                 90
_cell_angle_gamma                120
_cell_volume                     10858.7
loop_
_atom_site_label
_atom_site_type_symbol
_atom_site_fract_x
_atom_site_fract_y
_atom_site_fract_z
H19 H 0.616452 0.082437 0.001538
Cu2 Cu 0.66720(10) 0.000000 0.000000
Cu3 Cu 0.000000 0.33280(10) 0.000000
N2 N 0.6299(5) 0.0335(6) 0.9317(9)
C1 C 0.3715(7) 0.1531(6) 0.5525(8)
C2 C 0.4095(6) 0.2048(3) 0.500000
C3 C 0.3339(5) 0.1693(5) 0.5969(6)
H1 H 0.359058 0.203835 0.627949
H2 H 0.308263 0.136328 0.629892
C4 C 0.3357(6) 0.1000(5) 0.5030(8)
H3 H 0.311287 0.064915 0.533590
H4 H 0.362327 0.092219 0.472561
C5 C 0.2964(7) 0.1130(7) 0.4529(8)
C6 C 0.2580(9) 0.1290(4) 0.500000
C7 C 0.2559(11) 0.0589(7) 0.4033(9)
C8 C 0.1966(10) 0.0336(7) 0.3997(8)
H5 H 0.176296 0.045231 0.432812
C12 C 0.2877(8) 0.0410(8) 0.3565(11)
H8 H 0.329266 0.059185 0.357660
C20 C 0.4141(5) 0.1403(5) 0.6002(9)
C21 C 0.4552(7) 0.1276(6) 0.5703(5)
H13 H 0.459532 0.127357 0.518282
C22 C 0.4898(5) 0.1154(6) 0.6165(9)
H14 H 0.517933 0.106744 0.596103
C23 C 0.4834(6) 0.1158(5) 0.6927(8)
C24 C 0.4424(7) 0.1284(5) 0.7225(5)
H15 H 0.437975 0.128690 0.774568
C25 C 0.4077(5) 0.1407(4) 0.6763(9)
H16 H 0.379574 0.149305 0.696748
C26 C 0.5202(7) 0.1000(9) 0.7392(11)
C27 C 0.5452(8) 0.0912(7) 0.7785(12)
C28 C 0.5780(9) 0.0707(10) 0.8309(16)
C29 C 0.5985(9) 0.0363(9) 0.8071(11)
H17 H 0.593001 0.022797 0.757554
C30 C 0.6277(8) 0.0213(10) 0.8571(14)
H18 H 0.647416 0.001667 0.839789
C31 C 0.6104(8) 0.0678(7) 0.9525(10)
C32 C 0.5799(8) 0.0833(9) 0.9006(17)
H20 H 0.560314 0.103231 0.917349
H21 H 0.435081 0.240118 0.529619
H22 H 0.232477 0.095606 0.532548
N3 N 0.0410(8) 0.3015(10) 0.9444(7)
N4 N 0.6299(5) 0.5964(8) 0.0683(9)
C33 C 0.3715(7) 0.2184(9) 0.4475(8)
C34 C 0.3339(5) 0.1646(7) 0.4031(6)
H23 H 0.359058 0.155223 0.372051
H24 H 0.308263 0.171935 0.370108
C35 C 0.3357(6) 0.2357(8) 0.4970(8)
H25 H 0.311287 0.246372 0.466410
H26 H 0.362327 0.270108 0.527439
C36 C 0.2964(7) 0.1834(10) 0.5471(8)
C37 C 0.2559(11) 0.1970(13) 0.5967(9)
C38 C 0.1966(10) 0.1630(12) 0.6003(8)
H27 H 0.176296 0.131065 0.567188
C39 C 0.1662(7) 0.1752(12) 0.6522(12)
H28 H 0.125509 0.149074 0.659539
C40 C 0.1964(15) 0.2277(17) 0.6951(10)
C41 C 0.2525(12) 0.2584(17) 0.6916(10)
H29 H 0.271757 0.291375 0.723511
C42 C 0.2877(8) 0.2467(11) 0.6435(11)
H30 H 0.329266 0.270081 0.642340
C43 C 0.1622(11) 0.2391(16) 0.7458(12)
C44 C 0.1307(10) 0.2498(14) 0.7974(11)
C45 C 0.0997(8) 0.2620(11) 0.8488(8)
C46 C 0.0403(8) 0.2283(11) 0.8636(9)
H31 H 0.018243 0.190091 0.842942
C47 C 0.0115(8) 0.2512(10) 0.9107(8)
C48 C 0.0999(7) 0.3334(12) 0.9277(9)
H33 H 0.122241 0.370722 0.950408
C49 C 0.1300(9) 0.3145(11) 0.8786(10)
H34 H 0.170466 0.339158 0.867806
C50 C 0.4141(5) 0.2738(7) 0.3998(9)
C51 C 0.4552(7) 0.3276(9) 0.4297(5)
H35 H 0.459532 0.332175 0.481718
C52 C 0.4898(5) 0.3744(8) 0.3835(9)
H36 H 0.517933 0.411189 0.403897
C53 C 0.4834(6) 0.3676(8) 0.3073(8)
C54 C 0.4424(7) 0.3140(9) 0.2775(5)
H37 H 0.437975 0.309285 0.225432
C55 C 0.4077(5) 0.2670(6) 0.3237(9)
H38 H 0.379574 0.230269 0.303252
C56 C 0.5202(7) 0.4202(11) 0.2608(11)
C57 C 0.5452(8) 0.4540(11) 0.2215(12)
C58 C 0.5780(9) 0.5073(13) 0.1691(16)
C59 C 0.5985(9) 0.5622(13) 0.1929(11)
H39 H 0.593001 0.570204 0.242446
C60 C 0.6277(8) 0.6064(13) 0.1429(14)
H40 H 0.647416 0.645749 0.160211
C61 C 0.6104(8) 0.5426(11) 0.0475(10)
C62 C 0.5799(8) 0.4966(12) 0.0994(17)
H42 H 0.560314 0.457083 0.082651
H43 H 0.435081 0.194963 0.470381
H44 H 0.232477 0.136871 0.467452
Cu2_2 Cu 0.66720(10) 0.000000 1.000000
Cu3_2 Cu 0.000000 0.33280(10) 1.000000
Cu4 Cu 0.66720(10) 0.66720(10) 0.000000
H41 H 0.616452 0.534015 0.998462
Cu4_2 Cu 0.66720(10) 0.66720(10) 1.000000
Cu2_3 Cu 0.66720(10) 1.000000 0.000000
Cu1 Cu 0.000000 0.66720(10) 0.000000
N1 N 0.0410(8) 0.7395(6) 0.0556(7)
C9 C 0.1662(7) 0.9910(10) 0.3478(12)
H6 H 0.125509 0.976435 0.340461
C10 C 0.1964(15) 0.9687(9) 0.3049(10)
C11 C 0.2525(12) 0.9941(12) 0.3084(10)
H7 H 0.271757 0.980382 0.276489
C13 C 0.1622(11) 0.9231(11) 0.2542(12)
C14 C 0.1307(10) 0.8809(10) 0.2026(11)
C15 C 0.0997(8) 0.8377(7) 0.1512(8)
C16 C 0.0403(8) 0.8120(8) 0.1364(9)
H9 H 0.018243 0.828152 0.157058
C17 C 0.0115(8) 0.7603(6) 0.0893(8)
C18 C 0.0999(7) 0.7665(10) 0.0723(9)
H11 H 0.122241 0.751519 0.049592
C19 C 0.1300(9) 0.8155(7) 0.1214(10)
H12 H 0.170466 0.831308 0.132194
Cu2_4 Cu 0.66720(10) 1.000000 1.000000
N7 N 0.0335(6) 0.6299(5) 0.0683(9)
Cu1_2 Cu 0.000000 0.66720(10) 1.000000
O2 O 0.1023(3) 0.7171(4) 0.9091(3)
Cu3_3 Cu 1.000000 0.33280(10) 0.000000
H32 H 0.970131 0.228833 0.917014
Cu3_4 Cu 1.000000 0.33280(10) 1.000000
Cu1_3 Cu 1.000000 0.66720(10) 0.000000
H10 H 0.970131 0.741298 0.082986
O1 O 0.8977(3) 0.6148(2) 0.0909(3)
Cu1_4 Cu 1.000000 0.66720(10) 1.000000
N5 N 0.9590(8) 0.6985(10) 0.9444(7)
N6 N 0.9665(6) 0.5964(8) 0.9317(9)
Cu1_5 Cu 0.33280(10) 0.33280(10) 0.000000
N1_2 N 0.2605(6) 0.3015(10) 0.0556(7)
C9_2 C 0.0090(10) 0.1752(12) 0.3478(12)
H6_2 H 0.023565 0.149074 0.340461
C10_2 C 0.0313(9) 0.2277(17) 0.3049(10)
C11_2 C 0.0059(12) 0.2584(17) 0.3084(10)
H7_2 H 0.019618 0.291375 0.276489
C13_2 C 0.0769(11) 0.2391(16) 0.2542(12)
C14_2 C 0.1191(10) 0.2498(14) 0.2026(11)
C15_2 C 0.1623(7) 0.2620(11) 0.1512(8)
C16_2 C 0.1880(8) 0.2283(11) 0.1364(9)
H9_2 H 0.171848 0.190091 0.157058
C17_2 C 0.2397(6) 0.2512(10) 0.0893(8)
H10_2 H 0.258702 0.228833 0.082986
C18_2 C 0.2335(10) 0.3334(12) 0.0723(9)
H11_2 H 0.248481 0.370722 0.049592
C19_2 C 0.1845(7) 0.3145(11) 0.1214(10)
H12_2 H 0.168692 0.339158 0.132194
O1_2 O 0.3852(2) 0.2829(4) 0.0909(3)
N7_2 N 0.3701(5) 0.4036(8) 0.0683(9)
Cu1_6 Cu 0.33280(10) 0.33280(10) 1.000000
O2_2 O 0.2829(4) 0.3852(5) 0.9091(3)
N5_2 N 0.3015(10) 0.2605(13) 0.9444(7)
N6_2 N 0.4036(8) 0.3701(10) 0.9317(9)
H19_2 H 0.917563 0.534015 0.001538
C1_2 C 0.8469(6) 0.2184(9) 0.5525(8)
C2_2 C 0.7952(3) 0.2047(7) 0.500000
C3_2 C 0.8307(5) 0.1646(7) 0.5969(6)
H1_2 H 0.796165 0.155223 0.627949
H2_2 H 0.863672 0.171935 0.629892
C4_2 C 0.9000(5) 0.2357(8) 0.5030(8)
H3_2 H 0.935085 0.246372 0.533590
H4_2 H 0.907781 0.270108 0.472561
C5_2 C 0.8870(7) 0.1834(10) 0.4529(8)
C6_2 C 0.8710(4) 0.1290(10) 0.500000
C7_2 C 0.9411(7) 0.1970(13) 0.4033(9)
C8_2 C 0.9664(7) 0.1630(12) 0.3997(8)
H5_2 H 0.954769 0.131065 0.432812
C12_2 C 0.9590(8) 0.2467(11) 0.3565(11)
H8_2 H 0.940815 0.270081 0.357660
C20_2 C 0.8597(5) 0.2738(7) 0.6002(9)
C21_2 C 0.8724(6) 0.3276(9) 0.5703(5)
H13_2 H 0.872643 0.332175 0.518282
C22_2 C 0.8846(6) 0.3744(8) 0.6165(9)
H14_2 H 0.893256 0.411189 0.596103
C23_2 C 0.8842(5) 0.3676(8) 0.6927(8)
C24_2 C 0.8716(5) 0.3140(9) 0.7225(5)
H15_2 H 0.871310 0.309285 0.774568
C25_2 C 0.8593(4) 0.2670(6) 0.6763(9)
H16_2 H 0.850695 0.230269 0.696748
C26_2 C 0.9000(9) 0.4202(11) 0.7392(11)
C27_2 C 0.9088(7) 0.4540(11) 0.7785(12)
C28_2 C 0.9293(10) 0.5073(13) 0.8309(16)
C29_2 C 0.9637(9) 0.5622(13) 0.8071(11)
H17_2 H 0.977203 0.570204 0.757554
C30_2 C 0.9787(10) 0.6064(13) 0.8571(14)
H18_2 H 0.998333 0.645749 0.839789
C31_2 C 0.9322(7) 0.5426(11) 0.9525(10)
C32_2 C 0.9167(9) 0.4966(12) 0.9006(17)
H20_2 H 0.896769 0.457083 0.917349
H21_2 H 0.759882 0.194963 0.529619
H22_2 H 0.904394 0.136871 0.532548
N4_2 N 0.4036(8) 0.0335(9) 0.0683(9)
C33_2 C 0.7816(9) 0.1531(11) 0.4475(8)
C34_2 C 0.8354(7) 0.1693(9) 0.4031(6)
H23_2 H 0.844777 0.203835 0.372051
H24_2 H 0.828065 0.136328 0.370108
C35_2 C 0.7643(8) 0.1000(10) 0.4970(8)
H25_2 H 0.753628 0.064915 0.466410
H26_2 H 0.729892 0.092219 0.527439
C36_2 C 0.8166(10) 0.1130(12) 0.5471(8)
C37_2 C 0.8030(13) 0.0589(17) 0.5967(9)
C38_2 C 0.8370(12) 0.0336(16) 0.6003(8)
H27_2 H 0.868935 0.045231 0.567188
C42_2 C 0.7533(11) 0.0410(14) 0.6435(11)
H30_2 H 0.729919 0.059185 0.642340
C50_2 C 0.7262(7) 0.1403(9) 0.3998(9)
C51_2 C 0.6724(9) 0.1276(11) 0.4297(5)
H35_2 H 0.667825 0.127357 0.481718
C52_2 C 0.6256(8) 0.1154(9) 0.3835(9)
H36_2 H 0.588811 0.106744 0.403897
C53_2 C 0.6324(8) 0.1158(10) 0.3073(8)
C54_2 C 0.6860(9) 0.1284(11) 0.2775(5)
H37_2 H 0.690715 0.128690 0.225432
C55_2 C 0.7330(6) 0.1407(8) 0.3237(9)
H38_2 H 0.769731 0.149305 0.303252
C56_2 C 0.5798(11) 0.1000(13) 0.2608(11)
C57_2 C 0.5460(11) 0.0912(14) 0.2215(12)
C58_2 C 0.4927(13) 0.0707(16) 0.1691(16)
C59_2 C 0.4378(13) 0.0363(16) 0.1929(11)
H39_2 H 0.429796 0.022797 0.242446
C60_2 C 0.3936(13) 0.0213(15) 0.1429(14)
H40_2 H 0.354251 0.001667 0.160211
C61_2 C 0.4574(11) 0.0678(14) 0.0475(10)
C62_2 C 0.5034(12) 0.0833(14) 0.0994(17)
H42_2 H 0.542917 0.103231 0.082651
H43_2 H 0.805037 0.240118 0.470381
H44_2 H 0.863129 0.095606 0.467452
Cu4_3 Cu 0.33280(10) 0.00000(14) 0.000000
H41_2 H 0.465985 0.082437 0.998462
Cu4_4 Cu 0.33280(10) 0.00000(14) 1.000000
N3_2 N 0.6985(10) 0.7395(13) 0.9444(7)
C39_2 C 0.8248(12) 0.9910(14) 0.6522(12)
H28_2 H 0.850926 0.976435 0.659539
C40_2 C 0.7723(17) 0.9687(23) 0.6951(10)
C41_2 C 0.7416(17) 0.9941(21) 0.6916(10)
H29_2 H 0.708625 0.980382 0.723511
C43_2 C 0.7609(16) 0.9231(19) 0.7458(12)
C44_2 C 0.7502(14) 0.8809(17) 0.7974(11)
C45_2 C 0.7380(11) 0.8377(14) 0.8488(8)
C46_2 C 0.7717(11) 0.8120(14) 0.8636(9)
H31_2 H 0.809909 0.828152 0.842942
C47_2 C 0.7488(10) 0.7603(13) 0.9107(8)
H32_2 H 0.771167 0.741298 0.917014
C48_2 C 0.6666(12) 0.7665(14) 0.9277(9)
H33_2 H 0.629278 0.751519 0.950408
C49_2 C 0.6855(11) 0.8155(14) 0.8786(10)
H34_2 H 0.660842 0.831308 0.867806
Cu4_5 Cu 0.33280(10) 1.00000(14) 0.000000
Cu4_6 Cu 0.33280(10) 1.00000(14) 1.000000
H32_3 H 0.258702 0.029869 0.917014
N3_3 N 0.2605(13) 0.9590(8) 0.9444(7)
C39_3 C 0.0090(14) 0.8338(7) 0.6522(12)
H28_3 H 0.023565 0.874491 0.659539
C40_3 C 0.0313(23) 0.8036(15) 0.6951(10)
C41_3 C 0.0059(21) 0.7475(12) 0.6916(10)
H29_3 H 0.019618 0.728243 0.723511
C43_3 C 0.0769(19) 0.8378(11) 0.7458(12)
C44_3 C 0.1191(17) 0.8693(10) 0.7974(11)
C45_3 C 0.1623(14) 0.9003(8) 0.8488(8)
C46_3 C 0.1880(14) 0.9597(8) 0.8636(9)
H31_3 H 0.171848 0.981757 0.842942
C47_3 C 0.2397(13) 0.9885(8) 0.9107(8)
C48_3 C 0.2335(14) 0.9001(7) 0.9277(9)
H33_3 H 0.248481 0.877759 0.950408
C49_3 C 0.1845(14) 0.8700(9) 0.8786(10)
H34_3 H 0.168692 0.829534 0.867806
H10_3 H 0.771167 0.029869 0.082986
O1_3 O 0.7171(4) 0.1023(3) 0.0909(3)
N5_3 N 0.7395(13) 0.0410(8) 0.9444(7)
H19_3 H 0.465985 0.383548 0.001538
N1_3 N 0.6985(10) 0.9590(8) 0.0556(7)
C1_3 C 0.7816(9) 0.6285(7) 0.5525(8)
C2_3 C 0.7953(7) 0.5905(6) 0.500000
C3_3 C 0.8354(7) 0.6661(5) 0.5969(6)
H1_3 H 0.844777 0.640942 0.627949
H2_3 H 0.828065 0.691737 0.629892
C4_3 C 0.7643(8) 0.6643(6) 0.5030(8)
H3_3 H 0.753628 0.688713 0.533590
H4_3 H 0.729892 0.637673 0.472561
C5_3 C 0.8166(10) 0.7036(7) 0.4529(8)
C6_3 C 0.8710(10) 0.7420(9) 0.500000
C7_3 C 0.8030(13) 0.7441(11) 0.4033(9)
C8_3 C 0.8370(12) 0.8034(10) 0.3997(8)
H5_3 H 0.868935 0.823704 0.432812
C9_3 C 0.8248(12) 0.8338(7) 0.3478(12)
H6_3 H 0.850926 0.874491 0.340461
C10_3 C 0.7723(17) 0.8036(15) 0.3049(10)
C11_3 C 0.7416(17) 0.7475(12) 0.3084(10)
H7_3 H 0.708625 0.728243 0.276489
C12_3 C 0.7533(11) 0.7123(8) 0.3565(11)
H8_3 H 0.729919 0.670734 0.357660
C13_3 C 0.7609(16) 0.8378(11) 0.2542(12)
C14_3 C 0.7502(14) 0.8693(10) 0.2026(11)
C15_3 C 0.7380(11) 0.9003(8) 0.1512(8)
C16_3 C 0.7717(11) 0.9597(8) 0.1364(9)
H9_3 H 0.809909 0.981757 0.157058
C17_3 C 0.7488(10) 0.9885(8) 0.0893(8)
C18_3 C 0.6666(12) 0.9001(7) 0.0723(9)
H11_3 H 0.629278 0.877759 0.049592
C19_3 C 0.6855(11) 0.8700(9) 0.1214(10)
H12_3 H 0.660842 0.829534 0.132194
C20_3 C 0.7262(7) 0.5859(5) 0.6002(9)
C21_3 C 0.6724(9) 0.5448(7) 0.5703(5)
H13_3 H 0.667825 0.540468 0.518282
C22_3 C 0.6256(8) 0.5102(5) 0.6165(9)
H14_3 H 0.588811 0.482067 0.596103
C23_3 C 0.6324(8) 0.5166(6) 0.6927(8)
C24_3 C 0.6860(9) 0.5576(7) 0.7225(5)
H15_3 H 0.690715 0.562025 0.774568
C25_3 C 0.7330(6) 0.5923(5) 0.6763(9)
H16_3 H 0.769731 0.620426 0.696748
C26_3 C 0.5798(11) 0.4798(7) 0.7392(11)
C27_3 C 0.5460(11) 0.4548(8) 0.7785(12)
C28_3 C 0.4927(13) 0.4220(9) 0.8309(16)
C29_3 C 0.4378(13) 0.4015(9) 0.8071(11)
H17_3 H 0.429796 0.406999 0.757554
C30_3 C 0.3936(13) 0.3723(8) 0.8571(14)
H18_3 H 0.354251 0.352584 0.839789
C31_3 C 0.4574(11) 0.3896(8) 0.9525(10)
C32_3 C 0.5034(12) 0.4201(8) 0.9006(17)
H20_3 H 0.542917 0.439686 0.917349
H21_3 H 0.805037 0.564919 0.529619
H22_3 H 0.863129 0.767523 0.532548
N4_3 N 0.9665(9) 0.3701(5) 0.0683(9)
C33_3 C 0.8469(11) 0.6285(7) 0.4475(8)
C34_3 C 0.8307(9) 0.6661(5) 0.4031(6)
H23_3 H 0.796165 0.640942 0.372051
H24_3 H 0.863672 0.691737 0.370108
C35_3 C 0.9000(10) 0.6643(6) 0.4970(8)
H25_3 H 0.935085 0.688713 0.466410
H26_3 H 0.907781 0.637673 0.527439
C36_3 C 0.8870(12) 0.7036(7) 0.5471(8)
C37_3 C 0.9411(17) 0.7441(11) 0.5967(9)
C38_3 C 0.9664(16) 0.8034(10) 0.6003(8)
H27_3 H 0.954769 0.823704 0.567188
C42_3 C 0.9590(14) 0.7123(8) 0.6435(11)
H30_3 H 0.940815 0.670734 0.642340
C50_3 C 0.8597(9) 0.5859(5) 0.3998(9)
C51_3 C 0.8724(11) 0.5448(7) 0.4297(5)
H35_3 H 0.872643 0.540468 0.481718
C52_3 C 0.8846(9) 0.5102(5) 0.3835(9)
H36_3 H 0.893256 0.482067 0.403897
C53_3 C 0.8842(10) 0.5166(6) 0.3073(8)
C54_3 C 0.8716(11) 0.5576(7) 0.2775(5)
H37_3 H 0.871310 0.562025 0.225432
C55_3 C 0.8593(8) 0.5923(5) 0.3237(9)
H38_3 H 0.850695 0.620426 0.303252
C56_3 C 0.9000(13) 0.4798(7) 0.2608(11)
C57_3 C 0.9088(14) 0.4548(8) 0.2215(12)
C58_3 C 0.9293(16) 0.4220(9) 0.1691(16)
C59_3 C 0.9637(16) 0.4015(9) 0.1929(11)
H39_3 H 0.977203 0.406999 0.242446
C60_3 C 0.9787(15) 0.3723(8) 0.1429(14)
H40_3 H 0.998333 0.352584 0.160211
C61_3 C 0.9322(14) 0.3896(8) 0.0475(10)
C62_3 C 0.9167(14) 0.4201(8) 0.0994(17)
H42_3 H 0.896769 0.439686 0.082651
H43_3 H 0.759882 0.564919 0.470381
H44_3 H 0.904394 0.767523 0.467452
N7_3 N 0.5964(8) 0.9665(6) 0.0683(9)
H41_3 H 0.917563 0.383548 0.998462
O2_3 O 0.6148(5) 0.8977(3) 0.9091(3)
H10_4 H 0.029869 0.258702 0.082986
O1_4 O 0.1023(3) 0.3852(2) 0.0909(3)
N6_3 N 0.0335(6) 0.4036(8) 0.9317(9)
H32_4 H 0.029869 0.771167 0.917014
N1_4 N 0.9590(8) 0.2605(6) 0.0556(7)
C9_4 C 0.8338(7) 0.0090(10) 0.3478(12)
H6_4 H 0.874491 0.023565 0.340461
C10_4 C 0.8036(15) 0.0313(9) 0.3049(10)
C11_4 C 0.7475(12) 0.0059(12) 0.3084(10)
H7_4 H 0.728243 0.019618 0.276489
C13_4 C 0.8378(11) 0.0769(11) 0.2542(12)
C14_4 C 0.8693(10) 0.1191(10) 0.2026(11)
C15_4 C 0.9003(8) 0.1623(7) 0.1512(8)
C16_4 C 0.9597(8) 0.1880(8) 0.1364(9)
H9_4 H 0.981757 0.171848 0.157058
C17_4 C 0.9885(8) 0.2397(6) 0.0893(8)
C18_4 C 0.9001(7) 0.2335(10) 0.0723(9)
H11_4 H 0.877759 0.248481 0.049592
C19_4 C 0.8700(9) 0.1845(7) 0.1214(10)
H12_4 H 0.829534 0.168692 0.132194
O2_4 O 0.8977(3) 0.2829(4) 0.9091(3)
H19_4 H 0.383548 0.917563 0.001538
N2_2 N 0.3701(5) 0.9665(6) 0.9317(9)
C1_4 C 0.6285(7) 0.8469(6) 0.5525(8)
C2_4 C 0.5905(6) 0.7952(3) 0.500000
C3_4 C 0.6661(5) 0.8307(5) 0.5969(6)
H1_4 H 0.640942 0.796165 0.627949
H2_4 H 0.691737 0.863672 0.629892
C4_4 C 0.6643(6) 0.9000(5) 0.5030(8)
H3_4 H 0.688713 0.935085 0.533590
H4_4 H 0.637673 0.907781 0.472561
C5_4 C 0.7036(7) 0.8870(7) 0.4529(8)
C6_4 C 0.7420(9) 0.8710(4) 0.500000
C7_4 C 0.7441(11) 0.9411(7) 0.4033(9)
C8_4 C 0.8034(10) 0.9664(7) 0.3997(8)
H5_4 H 0.823704 0.954769 0.432812
C12_4 C 0.7123(8) 0.9590(8) 0.3565(11)
H8_4 H 0.670734 0.940815 0.357660
C20_4 C 0.5859(5) 0.8597(5) 0.6002(9)
C21_4 C 0.5448(7) 0.8724(6) 0.5703(5)
H13_4 H 0.540468 0.872643 0.518282
C22_4 C 0.5102(5) 0.8846(6) 0.6165(9)
H14_4 H 0.482067 0.893256 0.596103
C23_4 C 0.5166(6) 0.8842(5) 0.6927(8)
C24_4 C 0.5576(7) 0.8716(5) 0.7225(5)
H15_4 H 0.562025 0.871310 0.774568
C25_4 C 0.5923(5) 0.8593(4) 0.6763(9)
H16_4 H 0.620426 0.850695 0.696748
C26_4 C 0.4798(7) 0.9000(9) 0.7392(11)
C27_4 C 0.4548(8) 0.9088(7) 0.7785(12)
C28_4 C 0.4220(9) 0.9293(10) 0.8309(16)
C29_4 C 0.4015(9) 0.9637(9) 0.8071(11)
H17_4 H 0.406999 0.977203 0.757554
C30_4 C 0.3723(8) 0.9787(10) 0.8571(14)
H18_4 H 0.352584 0.998333 0.839789
C31_4 C 0.3896(8) 0.9322(7) 0.9525(10)
C32_4 C 0.4201(8) 0.9167(9) 0.9006(17)
H20_4 H 0.439686 0.896769 0.917349
H21_4 H 0.564919 0.759882 0.529619
H22_4 H 0.767523 0.904394 0.532548
C33_4 C 0.6285(7) 0.7816(9) 0.4475(8)
C34_4 C 0.6661(5) 0.8354(7) 0.4031(6)
H23_4 H 0.640942 0.844777 0.372051
H24_4 H 0.691737 0.828065 0.370108
C35_4 C 0.6643(6) 0.7643(8) 0.4970(8)
H25_4 H 0.688713 0.753628 0.466410
H26_4 H 0.637673 0.729892 0.527439
C36_4 C 0.7036(7) 0.8166(10) 0.5471(8)
C37_4 C 0.7441(11) 0.8030(13) 0.5967(9)
C38_4 C 0.8034(10) 0.8370(12) 0.6003(8)
H27_4 H 0.823704 0.868935 0.567188
C39_4 C 0.8338(7) 0.8248(12) 0.6522(12)
H28_4 H 0.874491 0.850926 0.659539
C40_4 C 0.8036(15) 0.7723(17) 0.6951(10)
C41_4 C 0.7475(12) 0.7416(17) 0.6916(10)
H29_4 H 0.728243 0.708625 0.723511
C42_4 C 0.7123(8) 0.7533(11) 0.6435(11)
H30_4 H 0.670734 0.729919 0.642340
C43_4 C 0.8378(11) 0.7609(16) 0.7458(12)
C44_4 C 0.8693(10) 0.7502(14) 0.7974(11)
C45_4 C 0.9003(8) 0.7380(11) 0.8488(8)
C46_4 C 0.9597(8) 0.7717(11) 0.8636(9)
H31_4 H 0.981757 0.809909 0.842942
C47_4 C 0.9885(8) 0.7488(10) 0.9107(8)
C48_4 C 0.9001(7) 0.6666(12) 0.9277(9)
H33_4 H 0.877759 0.629278 0.950408
C49_4 C 0.8700(9) 0.6855(11) 0.8786(10)
H34_4 H 0.829534 0.660842 0.867806
C50_4 C 0.5859(5) 0.7262(7) 0.3998(9)
C51_4 C 0.5448(7) 0.6724(9) 0.4297(5)
H35_4 H 0.540468 0.667825 0.481718
C52_4 C 0.5102(5) 0.6256(8) 0.3835(9)
H36_4 H 0.482067 0.588811 0.403897
C53_4 C 0.5166(6) 0.6324(8) 0.3073(8)
C54_4 C 0.5576(7) 0.6860(9) 0.2775(5)
H37_4 H 0.562025 0.690715 0.225432
C55_4 C 0.5923(5) 0.7330(6) 0.3237(9)
H38_4 H 0.620426 0.769731 0.303252
C56_4 C 0.4798(7) 0.5798(11) 0.2608(11)
C57_4 C 0.4548(8) 0.5460(11) 0.2215(12)
C58_4 C 0.4220(9) 0.4927(13) 0.1691(16)
C59_4 C 0.4015(9) 0.4378(13) 0.1929(11)
H39_4 H 0.406999 0.429796 0.242446
C60_4 C 0.3723(8) 0.3936(13) 0.1429(14)
H40_4 H 0.352584 0.354251 0.160211
C61_4 C 0.3896(8) 0.4574(11) 0.0475(10)
C62_4 C 0.4201(8) 0.5034(12) 0.0994(17)
H42_4 H 0.439686 0.542917 0.082651
H43_4 H 0.564919 0.805037 0.470381
H44_4 H 0.767523 0.863129 0.467452
H41_4 H 0.383548 0.465985 0.998462
C39_5 C 0.1752(12) 0.0090(14) 0.6522(12)
H28_5 H 0.149074 0.023565 0.659539
C40_5 C 0.2277(17) 0.0313(23) 0.6951(10)
C41_5 C 0.2584(17) 0.0059(21) 0.6916(10)
H29_5 H 0.291375 0.019618 0.723511
C43_5 C 0.2391(16) 0.0769(19) 0.7458(12)
C44_5 C 0.2498(14) 0.1191(17) 0.7974(11)
C45_5 C 0.2620(11) 0.1623(14) 0.8488(8)
C46_5 C 0.2283(11) 0.1880(14) 0.8636(9)
H31_5 H 0.190091 0.171848 0.842942
C47_5 C 0.2512(10) 0.2397(13) 0.9107(8)
H32_5 H 0.228833 0.258702 0.917014
C48_5 C 0.3334(12) 0.2335(14) 0.9277(9)
H33_5 H 0.370722 0.248481 0.950408
C49_5 C 0.3145(11) 0.1845(14) 0.8786(10)
H34_5 H 0.339158 0.168692 0.867806
H19_5 H 0.082437 0.465985 0.001538
C1_5 C 0.1531(6) 0.7816(9) 0.5525(8)
C2_5 C 0.2048(3) 0.7953(7) 0.500000
C3_5 C 0.1693(5) 0.8354(7) 0.5969(6)
H1_5 H 0.203835 0.844777 0.627949
H2_5 H 0.136328 0.828065 0.629892
C4_5 C 0.1000(5) 0.7643(8) 0.5030(8)
H3_5 H 0.064915 0.753628 0.533590
H4_5 H 0.092219 0.729892 0.472561
C5_5 C 0.1130(7) 0.8166(10) 0.4529(8)
C6_5 C 0.1290(4) 0.8710(10) 0.500000
C7_5 C 0.0589(7) 0.8030(13) 0.4033(9)
C8_5 C 0.0336(7) 0.8370(12) 0.3997(8)
H5_5 H 0.045231 0.868935 0.432812
C12_5 C 0.0410(8) 0.7533(11) 0.3565(11)
H8_5 H 0.059185 0.729919 0.357660
C20_5 C 0.1403(5) 0.7262(7) 0.6002(9)
C21_5 C 0.1276(6) 0.6724(9) 0.5703(5)
H13_5 H 0.127357 0.667825 0.518282
C22_5 C 0.1154(6) 0.6256(8) 0.6165(9)
H14_5 H 0.106744 0.588811 0.596103
C23_5 C 0.1158(5) 0.6324(8) 0.6927(8)
C24_5 C 0.1284(5) 0.6860(9) 0.7225(5)
H15_5 H 0.128690 0.690715 0.774568
C25_5 C 0.1407(4) 0.7330(6) 0.6763(9)
H16_5 H 0.149305 0.769731 0.696748
C26_5 C 0.1000(9) 0.5798(11) 0.7392(11)
C27_5 C 0.0912(7) 0.5460(11) 0.7785(12)
C28_5 C 0.0707(10) 0.4927(13) 0.8309(16)
C29_5 C 0.0363(9) 0.4378(13) 0.8071(11)
H17_5 H 0.022797 0.429796 0.757554
C30_5 C 0.0213(10) 0.3936(13) 0.8571(14)
H18_5 H 0.001667 0.354251 0.839789
C31_5 C 0.0678(7) 0.4574(11) 0.9525(10)
C32_5 C 0.0833(9) 0.5034(12) 0.9006(17)
H20_5 H 0.103231 0.542917 0.917349
H21_5 H 0.240118 0.805037 0.529619
H22_5 H 0.095606 0.863129 0.532548
C33_5 C 0.2184(9) 0.8469(11) 0.4475(8)
C34_5 C 0.1646(7) 0.8307(9) 0.4031(6)
H23_5 H 0.155223 0.796165 0.372051
H24_5 H 0.171935 0.863672 0.370108
C35_5 C 0.2357(8) 0.9000(10) 0.4970(8)
H25_5 H 0.246372 0.935085 0.466410
H26_5 H 0.270108 0.907781 0.527439
C36_5 C 0.1834(10) 0.8870(12) 0.5471(8)
C37_5 C 0.1970(13) 0.9411(17) 0.5967(9)
C38_5 C 0.1630(12) 0.9664(16) 0.6003(8)
H27_5 H 0.131065 0.954769 0.567188
C42_5 C 0.2467(11) 0.9590(14) 0.6435(11)
H30_5 H 0.270081 0.940815 0.642340
C50_5 C 0.2738(7) 0.8597(9) 0.3998(9)
C51_5 C 0.3276(9) 0.8724(11) 0.4297(5)
H35_5 H 0.332175 0.872643 0.481718
C52_5 C 0.3744(8) 0.8846(9) 0.3835(9)
H36_5 H 0.411189 0.893256 0.403897
C53_5 C 0.3676(8) 0.8842(10) 0.3073(8)
C54_5 C 0.3140(9) 0.8716(11) 0.2775(5)
H37_5 H 0.309285 0.871310 0.225432
C55_5 C 0.2670(6) 0.8593(8) 0.3237(9)
H38_5 H 0.230269 0.850695 0.303252
C56_5 C 0.4202(11) 0.9000(13) 0.2608(11)
C57_5 C 0.4540(11) 0.9088(14) 0.2215(12)
C58_5 C 0.5073(13) 0.9293(16) 0.1691(16)
C59_5 C 0.5622(13) 0.9637(16) 0.1929(11)
H39_5 H 0.570204 0.977203 0.242446
C60_5 C 0.6064(13) 0.9787(15) 0.1429(14)
H40_5 H 0.645749 0.998333 0.160211
C61_5 C 0.5426(11) 0.9322(14) 0.0475(10)
C62_5 C 0.4966(12) 0.9167(14) 0.0994(17)
H42_5 H 0.457083 0.896769 0.082651
H43_5 H 0.194963 0.759882 0.470381
H44_5 H 0.136871 0.904394 0.467452
H41_5 H 0.534015 0.917563 0.998462
N1_5 N 0.7395(6) 0.6985(10) 0.0556(7)
C9_5 C 0.9910(10) 0.8248(12) 0.3478(12)
H6_5 H 0.976435 0.850926 0.340461
C10_5 C 0.9687(9) 0.7723(17) 0.3049(10)
C11_5 C 0.9941(12) 0.7416(17) 0.3084(10)
H7_5 H 0.980382 0.708625 0.276489
C13_5 C 0.9231(11) 0.7609(16) 0.2542(12)
C14_5 C 0.8809(10) 0.7502(14) 0.2026(11)
C15_5 C 0.8377(7) 0.7380(11) 0.1512(8)
C16_5 C 0.8120(8) 0.7717(11) 0.1364(9)
H9_5 H 0.828152 0.809909 0.157058
C17_5 C 0.7603(6) 0.7488(10) 0.0893(8)
H10_5 H 0.741298 0.771167 0.082986
C18_5 C 0.7665(10) 0.6666(12) 0.0723(9)
H11_5 H 0.751519 0.629278 0.049592
C19_5 C 0.8155(7) 0.6855(11) 0.1214(10)
H12_5 H 0.831308 0.660842 0.132194
O1_5 O 0.6148(2) 0.7171(4) 0.0909(3)
O2_5 O 0.7171(4) 0.6148(5) 0.9091(3)
N6_4 N 0.5964(8) 0.6299(10) 0.9317(9)
H19_6 H 0.534015 0.616452 0.001538
N1_6 N 0.3015(10) 0.0410(8) 0.0556(7)
C1_6 C 0.2184(9) 0.3715(7) 0.5525(8)
C2_6 C 0.2047(7) 0.4095(6) 0.500000
C3_6 C 0.1646(7) 0.3339(5) 0.5969(6)
H1_6 H 0.155223 0.359058 0.627949
H2_6 H 0.171935 0.308263 0.629892
C4_6 C 0.2357(8) 0.3357(6) 0.5030(8)
H3_6 H 0.246372 0.311287 0.533590
H4_6 H 0.270108 0.362327 0.472561
C5_6 C 0.1834(10) 0.2964(7) 0.4529(8)
C6_6 C 0.1290(10) 0.2580(9) 0.500000
C7_6 C 0.1970(13) 0.2559(11) 0.4033(9)
C8_6 C 0.1630(12) 0.1966(10) 0.3997(8)
H5_6 H 0.131065 0.176296 0.432812
C9_6 C 0.1752(12) 0.1662(7) 0.3478(12)
H6_6 H 0.149074 0.125509 0.340461
C10_6 C 0.2277(17) 0.1964(15) 0.3049(10)
C11_6 C 0.2584(17) 0.2525(12) 0.3084(10)
H7_6 H 0.291375 0.271757 0.276489
C12_6 C 0.2467(11) 0.2877(8) 0.3565(11)
H8_6 H 0.270081 0.329266 0.357660
C13_6 C 0.2391(16) 0.1622(11) 0.2542(12)
C14_6 C 0.2498(14) 0.1307(10) 0.2026(11)
C15_6 C 0.2620(11) 0.0997(8) 0.1512(8)
C16_6 C 0.2283(11) 0.0403(8) 0.1364(9)
H9_6 H 0.190091 0.018243 0.157058
C17_6 C 0.2512(10) 0.0115(8) 0.0893(8)
C18_6 C 0.3334(12) 0.0999(7) 0.0723(9)
H11_6 H 0.370722 0.122241 0.049592
C19_6 C 0.3145(11) 0.1300(9) 0.1214(10)
H12_6 H 0.339158 0.170466 0.132194
C20_6 C 0.2738(7) 0.4141(5) 0.6002(9)
C21_6 C 0.3276(9) 0.4552(7) 0.5703(5)
H13_6 H 0.332175 0.459532 0.518282
C22_6 C 0.3744(8) 0.4898(5) 0.6165(9)
H14_6 H 0.411189 0.517933 0.596103
C23_6 C 0.3676(8) 0.4834(6) 0.6927(8)
C24_6 C 0.3140(9) 0.4424(7) 0.7225(5)
H15_6 H 0.309285 0.437975 0.774568
C25_6 C 0.2670(6) 0.4077(5) 0.6763(9)
H16_6 H 0.230269 0.379574 0.696748
C26_6 C 0.4202(11) 0.5202(7) 0.7392(11)
C27_6 C 0.4540(11) 0.5452(8) 0.7785(12)
C28_6 C 0.5073(13) 0.5780(9) 0.8309(16)
C29_6 C 0.5622(13) 0.5985(9) 0.8071(11)
H17_6 H 0.570204 0.593001 0.757554
C30_6 C 0.6064(13) 0.6277(8) 0.8571(14)
H18_6 H 0.645749 0.647416 0.839789
C31_6 C 0.5426(11) 0.6104(8) 0.9525(10)
C32_6 C 0.4966(12) 0.5799(8) 0.9006(17)
H20_6 H 0.457083 0.560314 0.917349
H21_6 H 0.194963 0.435081 0.529619
H22_6 H 0.136871 0.232477 0.532548
C33_6 C 0.1531(11) 0.3715(7) 0.4475(8)
C34_6 C 0.1693(9) 0.3339(5) 0.4031(6)
H23_6 H 0.203835 0.359058 0.372051
H24_6 H 0.136328 0.308263 0.370108
C35_6 C 0.1000(10) 0.3357(6) 0.4970(8)
H25_6 H 0.064915 0.311287 0.466410
H26_6 H 0.092219 0.362327 0.527439
C36_6 C 0.1130(12) 0.2964(7) 0.5471(8)
C37_6 C 0.0589(17) 0.2559(11) 0.5967(9)
C38_6 C 0.0336(16) 0.1966(10) 0.6003(8)
H27_6 H 0.045231 0.176296 0.567188
C42_6 C 0.0410(14) 0.2877(8) 0.6435(11)
H30_6 H 0.059185 0.329266 0.642340
C50_6 C 0.1403(9) 0.4141(5) 0.3998(9)
C51_6 C 0.1276(11) 0.4552(7) 0.4297(5)
H35_6 H 0.127357 0.459532 0.481718
C52_6 C 0.1154(9) 0.4898(5) 0.3835(9)
H36_6 H 0.106744 0.517933 0.403897
C53_6 C 0.1158(10) 0.4834(6) 0.3073(8)
C54_6 C 0.1284(11) 0.4424(7) 0.2775(5)
H37_6 H 0.128690 0.437975 0.225432
C55_6 C 0.1407(8) 0.4077(5) 0.3237(9)
H38_6 H 0.149305 0.379574 0.303252
C56_6 C 0.1000(13) 0.5202(7) 0.2608(11)
C57_6 C 0.0912(14) 0.5452(8) 0.2215(12)
C58_6 C 0.0707(16) 0.5780(9) 0.1691(16)
C59_6 C 0.0363(16) 0.5985(9) 0.1929(11)
H39_6 H 0.022797 0.593001 0.242446
C60_6 C 0.0213(15) 0.6277(8) 0.1429(14)
H40_6 H 0.001667 0.647416 0.160211
C61_6 C 0.0678(14) 0.6104(8) 0.0475(10)
C62_6 C 0.0833(14) 0.5799(8) 0.0994(17)
H42_6 H 0.103231 0.560314 0.082651
H43_6 H 0.240118 0.435081 0.470381
H44_6 H 0.095606 0.232477 0.467452
H41_6 H 0.082437 0.616452 0.998462
O2_6 O 0.3852(5) 0.1023(3) 0.9091(3)
H10_6 H 0.228833 0.970131 0.082986
O1_6 O 0.2829(4) 0.8977(3) 0.0909(3)
C39_6 C 0.9910(14) 0.1662(7) 0.6522(12)
H28_6 H 0.976435 0.125509 0.659539
C40_6 C 0.9687(23) 0.1964(15) 0.6951(10)
C41_6 C 0.9941(21) 0.2525(12) 0.6916(10)
H29_6 H 0.980382 0.271757 0.723511
C43_6 C 0.9231(19) 0.1622(11) 0.7458(12)
C44_6 C 0.8809(17) 0.1307(10) 0.7974(11)
C45_6 C 0.8377(14) 0.0997(8) 0.8488(8)
C46_6 C 0.8120(14) 0.0403(8) 0.8636(9)
H31_6 H 0.828152 0.018243 0.842942
C47_6 C 0.7603(13) 0.0115(8) 0.9107(8)
C48_6 C 0.7665(14) 0.0999(7) 0.9277(9)
H33_6 H 0.751519 0.122241 0.950408
C49_6 C 0.8155(14) 0.1300(9) 0.8786(10)
H34_6 H 0.831308 0.170466 0.867806
H32_6 H 0.741298 0.970131 0.917014
loop_
_geom_bond_atom_site_label_1
_geom_bond_atom_site_label_2
_geom_bond_site_symmetry_1
_geom_bond_site_symmetry_2
N2 C30 1_555 1_555
C1 C2 1_555 1_555
C2 H21 1_555 1_555
C3 C1 1_555 1_555
H1 C3 1_555 1_555
H2 C3 1_555 1_555
C4 C1 1_555 1_555
H3 C4 1_555 1_555
H4 C4 1_555 1_555
C5 C4 1_555 1_555
C6 C5 1_555 1_555
C7 C5 1_555 1_555
C8 C7 1_555 1_555
H5 C8 1_555 1_555
C12 C7 1_555 1_555
H8 C12 1_555 1_555
C20 C1 1_555 1_555
C21 C20 1_555 1_555
H13 C21 1_555 1_555
C22 C21 1_555 1_555
H14 C22 1_555 1_555
C23 C22 1_555 1_555
C24 C23 1_555 1_555
H15 C24 1_555 1_555
C25 C20 1_555 1_555
H16 C25 1_555 1_555
C26 C23 1_555 1_555
C27 C26 1_555 1_555
C28 C27 1_555 1_555
C29 C28 1_555 1_555
H17 C29 1_555 1_555
C30 C29 1_555 1_555
H18 C30 1_555 1_555
C31 N2 1_555 1_555
C32 C28 1_555 1_555
H20 C32 1_555 1_555
H22 C6 1_555 1_555
N3 C47 1_555 1_555
N4 C60 1_555 1_555
C33 C2 1_555 1_555
C34 C5 1_555 1_555
H23 C34 1_555 1_555
H24 C34 1_555 1_555
C35 C33 1_555 1_555
H25 C35 1_555 1_555
H26 C35 1_555 1_555
C36 C3 1_555 1_555
C37 C36 1_555 1_555
C38 C37 1_555 1_555
H27 C38 1_555 1_555
C39 C38 1_555 1_555
H28 C39 1_555 1_555
C40 C39 1_555 1_555
C41 C40 1_555 1_555
H29 C41 1_555 1_555
C42 C37 1_555 1_555
H30 C42 1_555 1_555
C43 C40 1_555 1_555
C44 C43 1_555 1_555
C45 C44 1_555 1_555
C46 C45 1_555 1_555
H31 C46 1_555 1_555
C47 C46 1_555 1_555
C48 N3 1_555 1_555
H33 C48 1_555 1_555
C49 C45 1_555 1_555
H34 C49 1_555 1_555
C50 C33 1_555 1_555
C51 C50 1_555 1_555
H35 C51 1_555 1_555
C52 C51 1_555 1_555
H36 C52 1_555 1_555
C53 C52 1_555 1_555
C54 C53 1_555 1_555
H37 C54 1_555 1_555
C55 C50 1_555 1_555
H38 C55 1_555 1_555
C56 C53 1_555 1_555
C57 C56 1_555 1_555
C58 C57 1_555 1_555
C59 C58 1_555 1_555
H39 C59 1_555 1_555
C60 C59 1_555 1_555
H40 C60 1_555 1_555
C61 N4 1_555 1_555
C62 C58 1_555 1_555
H42 C62 1_555 1_555
H43 C2 1_555 1_555
H44 C6 1_555 1_555
Cu2_2 N2 1_555 1_555
Cu3_2 N3 1_555 1_555
Cu4 N4 1_555 1_555
C6 C36 1_555 1_555
C24 C25 1_555 1_555
C31 C32 1_555 1_555
C33 C34 1_555 1_555
C35 C36 1_555 1_555
C41 C42 1_555 1_555
C48 C49 1_555 1_555
C54 C55 1_555 1_555
C61 C62 1_555 1_555
Cu1 N1 1_555 1_555
N1 C17 1_555 1_555
H6 C9 1_555 1_555
C10 C9 1_555 1_555
C11 C10 1_555 1_555
H7 C11 1_555 1_555
C13 C10 1_555 1_555
C14 C13 1_555 1_555
C15 C14 1_555 1_555
C16 C15 1_555 1_555
H9 C16 1_555 1_555
C17 C16 1_555 1_555
C18 N1 1_555 1_555
H11 C18 1_555 1_555
C19 C15 1_555 1_555
H12 C19 1_555 1_555
N7 Cu1 1_555 1_555
C18 C19 1_555 1_555
O2 Cu1_2 1_555 1_555
O1 Cu1_3 1_555 1_555
N5 Cu1_4 1_555 1_555
N6 Cu1_4 1_555 1_555
Cu1_5 N1_2 1_555 1_555
N1_2 C17_2 1_555 1_555
H6_2 C9_2 1_555 1_555
C10_2 C9_2 1_555 1_555
C11_2 C10_2 1_555 1_555
H7_2 C11_2 1_555 1_555
C13_2 C10_2 1_555 1_555
C14_2 C13_2 1_555 1_555
C15_2 C14_2 1_555 1_555
C16_2 C15_2 1_555 1_555
H9_2 C16_2 1_555 1_555
C17_2 C16_2 1_555 1_555
H10_2 C17_2 1_555 1_555
C18_2 N1_2 1_555 1_555
H11_2 C18_2 1_555 1_555
C19_2 C15_2 1_555 1_555
H12_2 C19_2 1_555 1_555
O1_2 Cu1_5 1_555 1_555
N7_2 Cu1_5 1_555 1_555
C18_2 C19_2 1_555 1_555
O2_2 Cu1_6 1_555 1_555
N5_2 Cu1_6 1_555 1_555
N6_2 Cu1_6 1_555 1_555
N6 C30_2 1_555 1_555
C1_2 C2_2 1_555 1_555
C2_2 H21_2 1_555 1_555
C3_2 C1_2 1_555 1_555
H1_2 C3_2 1_555 1_555
H2_2 C3_2 1_555 1_555
C4_2 C1_2 1_555 1_555
H3_2 C4_2 1_555 1_555
H4_2 C4_2 1_555 1_555
C5_2 C4_2 1_555 1_555
C6_2 C5_2 1_555 1_555
C7_2 C5_2 1_555 1_555
C8_2 C7_2 1_555 1_555
H5_2 C8_2 1_555 1_555
C12_2 C7_2 1_555 1_555
H8_2 C12_2 1_555 1_555
C20_2 C1_2 1_555 1_555
C21_2 C20_2 1_555 1_555
H13_2 C21_2 1_555 1_555
C22_2 C21_2 1_555 1_555
H14_2 C22_2 1_555 1_555
C23_2 C22_2 1_555 1_555
C24_2 C23_2 1_555 1_555
H15_2 C24_2 1_555 1_555
C25_2 C20_2 1_555 1_555
H16_2 C25_2 1_555 1_555
C26_2 C23_2 1_555 1_555
C27_2 C26_2 1_555 1_555
C28_2 C27_2 1_555 1_555
C29_2 C28_2 1_555 1_555
H17_2 C29_2 1_555 1_555
C30_2 C29_2 1_555 1_555
H18_2 C30_2 1_555 1_555
C31_2 N6 1_555 1_555
C32_2 C28_2 1_555 1_555
H20_2 C32_2 1_555 1_555
H22_2 C6_2 1_555 1_555
N4_2 C60_2 1_555 1_555
C33_2 C2_2 1_555 1_555
C34_2 C5_2 1_555 1_555
H23_2 C34_2 1_555 1_555
H24_2 C34_2 1_555 1_555
C35_2 C33_2 1_555 1_555
H25_2 C35_2 1_555 1_555
H26_2 C35_2 1_555 1_555
C36_2 C3_2 1_555 1_555
C37_2 C36_2 1_555 1_555
C38_2 C37_2 1_555 1_555
H27_2 C38_2 1_555 1_555
C42_2 C37_2 1_555 1_555
H30_2 C42_2 1_555 1_555
C50_2 C33_2 1_555 1_555
C51_2 C50_2 1_555 1_555
H35_2 C51_2 1_555 1_555
C52_2 C51_2 1_555 1_555
H36_2 C52_2 1_555 1_555
C53_2 C52_2 1_555 1_555
C54_2 C53_2 1_555 1_555
H37_2 C54_2 1_555 1_555
C55_2 C50_2 1_555 1_555
H38_2 C55_2 1_555 1_555
C56_2 C53_2 1_555 1_555
C57_2 C56_2 1_555 1_555
C58_2 C57_2 1_555 1_555
C59_2 C58_2 1_555 1_555
H39_2 C59_2 1_555 1_555
C60_2 C59_2 1_555 1_555
H40_2 C60_2 1_555 1_555
C61_2 N4_2 1_555 1_555
C62_2 C58_2 1_555 1_555
H42_2 C62_2 1_555 1_555
H43_2 C2_2 1_555 1_555
H44_2 C6_2 1_555 1_555
Cu4_3 N4_2 1_555 1_555
C6_2 C36_2 1_555 1_555
C24_2 C25_2 1_555 1_555
C31_2 C32_2 1_555 1_555
C33_2 C34_2 1_555 1_555
C35_2 C36_2 1_555 1_555
C54_2 C55_2 1_555 1_555
C61_2 C62_2 1_555 1_555
N3_2 C47_2 1_555 1_555
H28_2 C39_2 1_555 1_555
C40_2 C39_2 1_555 1_555
C41_2 C40_2 1_555 1_555
H29_2 C41_2 1_555 1_555
C43_2 C40_2 1_555 1_555
C44_2 C43_2 1_555 1_555
C45_2 C44_2 1_555 1_555
C46_2 C45_2 1_555 1_555
H31_2 C46_2 1_555 1_555
C47_2 C46_2 1_555 1_555
H32_2 C47_2 1_555 1_555
C48_2 N3_2 1_555 1_555
H33_2 C48_2 1_555 1_555
C49_2 C45_2 1_555 1_555
H34_2 C49_2 1_555 1_555
Cu4_2 N3_2 1_555 1_555
C48_2 C49_2 1_555 1_555
N3_3 C47_3 1_555 1_555
H28_3 C39_3 1_555 1_555
C40_3 C39_3 1_555 1_555
C41_3 C40_3 1_555 1_555
H29_3 C41_3 1_555 1_555
C43_3 C40_3 1_555 1_555
C44_3 C43_3 1_555 1_555
C45_3 C44_3 1_555 1_555
C46_3 C45_3 1_555 1_555
H31_3 C46_3 1_555 1_555
C47_3 C46_3 1_555 1_555
C48_3 N3_3 1_555 1_555
H33_3 C48_3 1_555 1_555
C49_3 C45_3 1_555 1_555
H34_3 C49_3 1_555 1_555
Cu4_6 N3_3 1_555 1_555
C48_3 C49_3 1_555 1_555
O1_3 Cu2 1_555 1_555
N5_3 Cu2_2 1_555 1_555
Cu2_3 N1_3 1_555 1_555
N1_3 C17_3 1_555 1_555
N6_2 C30_3 1_555 1_555
C1_3 C2_3 1_555 1_555
C2_3 H21_3 1_555 1_555
C3_3 C1_3 1_555 1_555
H1_3 C3_3 1_555 1_555
H2_3 C3_3 1_555 1_555
C4_3 C1_3 1_555 1_555
H3_3 C4_3 1_555 1_555
H4_3 C4_3 1_555 1_555
C5_3 C4_3 1_555 1_555
C6_3 C5_3 1_555 1_555
C7_3 C5_3 1_555 1_555
C8_3 C7_3 1_555 1_555
H5_3 C8_3 1_555 1_555
C9_3 C8_3 1_555 1_555
H6_3 C9_3 1_555 1_555
C10_3 C9_3 1_555 1_555
C11_3 C10_3 1_555 1_555
H7_3 C11_3 1_555 1_555
C12_3 C7_3 1_555 1_555
H8_3 C12_3 1_555 1_555
C13_3 C10_3 1_555 1_555
C14_3 C13_3 1_555 1_555
C15_3 C14_3 1_555 1_555
C16_3 C15_3 1_555 1_555
H9_3 C16_3 1_555 1_555
C17_3 C16_3 1_555 1_555
C18_3 N1_3 1_555 1_555
H11_3 C18_3 1_555 1_555
C19_3 C15_3 1_555 1_555
H12_3 C19_3 1_555 1_555
C20_3 C1_3 1_555 1_555
C21_3 C20_3 1_555 1_555
H13_3 C21_3 1_555 1_555
C22_3 C21_3 1_555 1_555
H14_3 C22_3 1_555 1_555
C23_3 C22_3 1_555 1_555
C24_3 C23_3 1_555 1_555
H15_3 C24_3 1_555 1_555
C25_3 C20_3 1_555 1_555
H16_3 C25_3 1_555 1_555
C26_3 C23_3 1_555 1_555
C27_3 C26_3 1_555 1_555
C28_3 C27_3 1_555 1_555
C29_3 C28_3 1_555 1_555
H17_3 C29_3 1_555 1_555
C30_3 C29_3 1_555 1_555
H18_3 C30_3 1_555 1_555
C31_3 N6_2 1_555 1_555
C32_3 C28_3 1_555 1_555
H20_3 C32_3 1_555 1_555
H22_3 C6_3 1_555 1_555
N4_3 C60_3 1_555 1_555
C33_3 C2_3 1_555 1_555
C34_3 C5_3 1_555 1_555
H23_3 C34_3 1_555 1_555
H24_3 C34_3 1_555 1_555
C35_3 C33_3 1_555 1_555
H25_3 C35_3 1_555 1_555
H26_3 C35_3 1_555 1_555
C36_3 C3_3 1_555 1_555
C37_3 C36_3 1_555 1_555
C38_3 C37_3 1_555 1_555
H27_3 C38_3 1_555 1_555
C42_3 C37_3 1_555 1_555
H30_3 C42_3 1_555 1_555
C50_3 C33_3 1_555 1_555
C51_3 C50_3 1_555 1_555
H35_3 C51_3 1_555 1_555
C52_3 C51_3 1_555 1_555
H36_3 C52_3 1_555 1_555
C53_3 C52_3 1_555 1_555
C54_3 C53_3 1_555 1_555
H37_3 C54_3 1_555 1_555
C55_3 C50_3 1_555 1_555
H38_3 C55_3 1_555 1_555
C56_3 C53_3 1_555 1_555
C57_3 C56_3 1_555 1_555
C58_3 C57_3 1_555 1_555
C59_3 C58_3 1_555 1_555
H39_3 C59_3 1_555 1_555
C60_3 C59_3 1_555 1_555
H40_3 C60_3 1_555 1_555
C61_3 N4_3 1_555 1_555
C62_3 C58_3 1_555 1_555
H42_3 C62_3 1_555 1_555
H43_3 C2_3 1_555 1_555
H44_3 C6_3 1_555 1_555
Cu3_3 N4_3 1_555 1_555
N7_3 Cu2_3 1_555 1_555
C6_3 C36_3 1_555 1_555
C11_3 C12_3 1_555 1_555
C18_3 C19_3 1_555 1_555
C24_3 C25_3 1_555 1_555
C31_3 C32_3 1_555 1_555
C33_3 C34_3 1_555 1_555
C35_3 C36_3 1_555 1_555
C54_3 C55_3 1_555 1_555
C61_3 C62_3 1_555 1_555
O2_3 Cu2_4 1_555 1_555
O1_4 Cu3 1_555 1_555
N6_3 Cu3_2 1_555 1_555
Cu3_3 N1_4 1_555 1_555
N1_4 C17_4 1_555 1_555
H6_4 C9_4 1_555 1_555
C10_4 C9_4 1_555 1_555
C11_4 C10_4 1_555 1_555
H7_4 C11_4 1_555 1_555
C13_4 C10_4 1_555 1_555
C14_4 C13_4 1_555 1_555
C15_4 C14_4 1_555 1_555
C16_4 C15_4 1_555 1_555
H9_4 C16_4 1_555 1_555
C17_4 C16_4 1_555 1_555
C18_4 N1_4 1_555 1_555
H11_4 C18_4 1_555 1_555
C19_4 C15_4 1_555 1_555
H12_4 C19_4 1_555 1_555
C18_4 C19_4 1_555 1_555
O2_4 Cu3_4 1_555 1_555
N2_2 C30_4 1_555 1_555
C1_4 C2_4 1_555 1_555
C2_4 H21_4 1_555 1_555
C3_4 C1_4 1_555 1_555
H1_4 C3_4 1_555 1_555
H2_4 C3_4 1_555 1_555
C4_4 C1_4 1_555 1_555
H3_4 C4_4 1_555 1_555
H4_4 C4_4 1_555 1_555
C5_4 C4_4 1_555 1_555
C6_4 C5_4 1_555 1_555
C7_4 C5_4 1_555 1_555
C8_4 C7_4 1_555 1_555
H5_4 C8_4 1_555 1_555
C12_4 C7_4 1_555 1_555
H8_4 C12_4 1_555 1_555
C20_4 C1_4 1_555 1_555
C21_4 C20_4 1_555 1_555
H13_4 C21_4 1_555 1_555
C22_4 C21_4 1_555 1_555
H14_4 C22_4 1_555 1_555
C23_4 C22_4 1_555 1_555
C24_4 C23_4 1_555 1_555
H15_4 C24_4 1_555 1_555
C25_4 C20_4 1_555 1_555
H16_4 C25_4 1_555 1_555
C26_4 C23_4 1_555 1_555
C27_4 C26_4 1_555 1_555
C28_4 C27_4 1_555 1_555
C29_4 C28_4 1_555 1_555
H17_4 C29_4 1_555 1_555
C30_4 C29_4 1_555 1_555
H18_4 C30_4 1_555 1_555
C31_4 N2_2 1_555 1_555
C32_4 C28_4 1_555 1_555
H20_4 C32_4 1_555 1_555
H22_4 C6_4 1_555 1_555
N5 C47_4 1_555 1_555
N7_2 C60_4 1_555 1_555
C33_4 C2_4 1_555 1_555
C34_4 C5_4 1_555 1_555
H23_4 C34_4 1_555 1_555
H24_4 C34_4 1_555 1_555
C35_4 C33_4 1_555 1_555
H25_4 C35_4 1_555 1_555
H26_4 C35_4 1_555 1_555
C36_4 C3_4 1_555 1_555
C37_4 C36_4 1_555 1_555
C38_4 C37_4 1_555 1_555
H27_4 C38_4 1_555 1_555
C39_4 C38_4 1_555 1_555
H28_4 C39_4 1_555 1_555
C40_4 C39_4 1_555 1_555
C41_4 C40_4 1_555 1_555
H29_4 C41_4 1_555 1_555
C42_4 C37_4 1_555 1_555
H30_4 C42_4 1_555 1_555
C43_4 C40_4 1_555 1_555
C44_4 C43_4 1_555 1_555
C45_4 C44_4 1_555 1_555
C46_4 C45_4 1_555 1_555
H31_4 C46_4 1_555 1_555
C47_4 C46_4 1_555 1_555
C48_4 N5 1_555 1_555
H33_4 C48_4 1_555 1_555
C49_4 C45_4 1_555 1_555
H34_4 C49_4 1_555 1_555
C50_4 C33_4 1_555 1_555
C51_4 C50_4 1_555 1_555
H35_4 C51_4 1_555 1_555
C52_4 C51_4 1_555 1_555
H36_4 C52_4 1_555 1_555
C53_4 C52_4 1_555 1_555
C54_4 C53_4 1_555 1_555
H37_4 C54_4 1_555 1_555
C55_4 C50_4 1_555 1_555
H38_4 C55_4 1_555 1_555
C56_4 C53_4 1_555 1_555
C57_4 C56_4 1_555 1_555
C58_4 C57_4 1_555 1_555
C59_4 C58_4 1_555 1_555
H39_4 C59_4 1_555 1_555
C60_4 C59_4 1_555 1_555
H40_4 C60_4 1_555 1_555
C61_4 N7_2 1_555 1_555
C62_4 C58_4 1_555 1_555
H42_4 C62_4 1_555 1_555
H43_4 C2_4 1_555 1_555
H44_4 C6_4 1_555 1_555
Cu4_6 N2_2 1_555 1_555
C6_4 C36_4 1_555 1_555
C24_4 C25_4 1_555 1_555
C31_4 C32_4 1_555 1_555
C33_4 C34_4 1_555 1_555
C35_4 C36_4 1_555 1_555
C41_4 C42_4 1_555 1_555
C48_4 C49_4 1_555 1_555
C54_4 C55_4 1_555 1_555
C61_4 C62_4 1_555 1_555
N5_2 C47_5 1_555 1_555
H28_5 C39_5 1_555 1_555
C40_5 C39_5 1_555 1_555
C41_5 C40_5 1_555 1_555
H29_5 C41_5 1_555 1_555
C43_5 C40_5 1_555 1_555
C44_5 C43_5 1_555 1_555
C45_5 C44_5 1_555 1_555
C46_5 C45_5 1_555 1_555
H31_5 C46_5 1_555 1_555
C47_5 C46_5 1_555 1_555
H32_5 C47_5 1_555 1_555
C48_5 N5_2 1_555 1_555
H33_5 C48_5 1_555 1_555
C49_5 C45_5 1_555 1_555
H34_5 C49_5 1_555 1_555
C48_5 C49_5 1_555 1_555
N6_3 C30_5 1_555 1_555
C1_5 C2_5 1_555 1_555
C2_5 H21_5 1_555 1_555
C3_5 C1_5 1_555 1_555
H1_5 C3_5 1_555 1_555
H2_5 C3_5 1_555 1_555
C4_5 C1_5 1_555 1_555
H3_5 C4_5 1_555 1_555
H4_5 C4_5 1_555 1_555
C5_5 C4_5 1_555 1_555
C6_5 C5_5 1_555 1_555
C7_5 C5_5 1_555 1_555
C8_5 C7_5 1_555 1_555
H5_5 C8_5 1_555 1_555
C12_5 C7_5 1_555 1_555
H8_5 C12_5 1_555 1_555
C20_5 C1_5 1_555 1_555
C21_5 C20_5 1_555 1_555
H13_5 C21_5 1_555 1_555
C22_5 C21_5 1_555 1_555
H14_5 C22_5 1_555 1_555
C23_5 C22_5 1_555 1_555
C24_5 C23_5 1_555 1_555
H15_5 C24_5 1_555 1_555
C25_5 C20_5 1_555 1_555
H16_5 C25_5 1_555 1_555
C26_5 C23_5 1_555 1_555
C27_5 C26_5 1_555 1_555
C28_5 C27_5 1_555 1_555
C29_5 C28_5 1_555 1_555
H17_5 C29_5 1_555 1_555
C30_5 C29_5 1_555 1_555
H18_5 C30_5 1_555 1_555
C31_5 N6_3 1_555 1_555
C32_5 C28_5 1_555 1_555
H20_5 C32_5 1_555 1_555
H22_5 C6_5 1_555 1_555
N7_3 C60_5 1_555 1_555
C33_5 C2_5 1_555 1_555
C34_5 C5_5 1_555 1_555
H23_5 C34_5 1_555 1_555
H24_5 C34_5 1_555 1_555
C35_5 C33_5 1_555 1_555
H25_5 C35_5 1_555 1_555
H26_5 C35_5 1_555 1_555
C36_5 C3_5 1_555 1_555
C37_5 C36_5 1_555 1_555
C38_5 C37_5 1_555 1_555
H27_5 C38_5 1_555 1_555
C42_5 C37_5 1_555 1_555
H30_5 C42_5 1_555 1_555
C50_5 C33_5 1_555 1_555
C51_5 C50_5 1_555 1_555
H35_5 C51_5 1_555 1_555
C52_5 C51_5 1_555 1_555
H36_5 C52_5 1_555 1_555
C53_5 C52_5 1_555 1_555
C54_5 C53_5 1_555 1_555
H37_5 C54_5 1_555 1_555
C55_5 C50_5 1_555 1_555
H38_5 C55_5 1_555 1_555
C56_5 C53_5 1_555 1_555
C57_5 C56_5 1_555 1_555
C58_5 C57_5 1_555 1_555
C59_5 C58_5 1_555 1_555
H39_5 C59_5 1_555 1_555
C60_5 C59_5 1_555 1_555
H40_5 C60_5 1_555 1_555
C61_5 N7_3 1_555 1_555
C62_5 C58_5 1_555 1_555
H42_5 C62_5 1_555 1_555
H43_5 C2_5 1_555 1_555
H44_5 C6_5 1_555 1_555
C6_5 C36_5 1_555 1_555
C24_5 C25_5 1_555 1_555
C31_5 C32_5 1_555 1_555
C33_5 C34_5 1_555 1_555
C35_5 C36_5 1_555 1_555
C54_5 C55_5 1_555 1_555
C61_5 C62_5 1_555 1_555
Cu4 N1_5 1_555 1_555
N1_5 C17_5 1_555 1_555
H6_5 C9_5 1_555 1_555
C10_5 C9_5 1_555 1_555
C11_5 C10_5 1_555 1_555
H7_5 C11_5 1_555 1_555
C13_5 C10_5 1_555 1_555
C14_5 C13_5 1_555 1_555
C15_5 C14_5 1_555 1_555
C16_5 C15_5 1_555 1_555
H9_5 C16_5 1_555 1_555
C17_5 C16_5 1_555 1_555
H10_5 C17_5 1_555 1_555
C18_5 N1_5 1_555 1_555
H11_5 C18_5 1_555 1_555
C19_5 C15_5 1_555 1_555
H12_5 C19_5 1_555 1_555
O1_5 Cu4 1_555 1_555
C18_5 C19_5 1_555 1_555
O2_5 Cu4_2 1_555 1_555
N6_4 Cu4_2 1_555 1_555
Cu4_3 N1_6 1_555 1_555
N1_6 C17_6 1_555 1_555
N6_4 C30_6 1_555 1_555
C1_6 C2_6 1_555 1_555
C2_6 H21_6 1_555 1_555
C3_6 C1_6 1_555 1_555
H1_6 C3_6 1_555 1_555
H2_6 C3_6 1_555 1_555
C4_6 C1_6 1_555 1_555
H3_6 C4_6 1_555 1_555
H4_6 C4_6 1_555 1_555
C5_6 C4_6 1_555 1_555
C6_6 C5_6 1_555 1_555
C7_6 C5_6 1_555 1_555
C8_6 C7_6 1_555 1_555
H5_6 C8_6 1_555 1_555
C9_6 C8_6 1_555 1_555
H6_6 C9_6 1_555 1_555
C10_6 C9_6 1_555 1_555
C11_6 C10_6 1_555 1_555
H7_6 C11_6 1_555 1_555
C12_6 C7_6 1_555 1_555
H8_6 C12_6 1_555 1_555
C13_6 C10_6 1_555 1_555
C14_6 C13_6 1_555 1_555
C15_6 C14_6 1_555 1_555
C16_6 C15_6 1_555 1_555
H9_6 C16_6 1_555 1_555
C17_6 C16_6 1_555 1_555
C18_6 N1_6 1_555 1_555
H11_6 C18_6 1_555 1_555
C19_6 C15_6 1_555 1_555
H12_6 C19_6 1_555 1_555
C20_6 C1_6 1_555 1_555
C21_6 C20_6 1_555 1_555
H13_6 C21_6 1_555 1_555
C22_6 C21_6 1_555 1_555
H14_6 C22_6 1_555 1_555
C23_6 C22_6 1_555 1_555
C24_6 C23_6 1_555 1_555
H15_6 C24_6 1_555 1_555
C25_6 C20_6 1_555 1_555
H16_6 C25_6 1_555 1_555
C26_6 C23_6 1_555 1_555
C27_6 C26_6 1_555 1_555
C28_6 C27_6 1_555 1_555
C29_6 C28_6 1_555 1_555
H17_6 C29_6 1_555 1_555
C30_6 C29_6 1_555 1_555
H18_6 C30_6 1_555 1_555
C31_6 N6_4 1_555 1_555
C32_6 C28_6 1_555 1_555
H20_6 C32_6 1_555 1_555
H22_6 C6_6 1_555 1_555
N7 C60_6 1_555 1_555
C33_6 C2_6 1_555 1_555
C34_6 C5_6 1_555 1_555
H23_6 C34_6 1_555 1_555
H24_6 C34_6 1_555 1_555
C35_6 C33_6 1_555 1_555
H25_6 C35_6 1_555 1_555
H26_6 C35_6 1_555 1_555
C36_6 C3_6 1_555 1_555
C37_6 C36_6 1_555 1_555
C38_6 C37_6 1_555 1_555
H27_6 C38_6 1_555 1_555
C42_6 C37_6 1_555 1_555
H30_6 C42_6 1_555 1_555
C50_6 C33_6 1_555 1_555
C51_6 C50_6 1_555 1_555
H35_6 C51_6 1_555 1_555
C52_6 C51_6 1_555 1_555
H36_6 C52_6 1_555 1_555
C53_6 C52_6 1_555 1_555
C54_6 C53_6 1_555 1_555
H37_6 C54_6 1_555 1_555
C55_6 C50_6 1_555 1_555
H38_6 C55_6 1_555 1_555
C56_6 C53_6 1_555 1_555
C57_6 C56_6 1_555 1_555
C58_6 C57_6 1_555 1_555
C59_6 C58_6 1_555 1_555
H39_6 C59_6 1_555 1_555
C60_6 C59_6 1_555 1_555
H40_6 C60_6 1_555 1_555
C61_6 N7 1_555 1_555
C62_6 C58_6 1_555 1_555
H42_6 C62_6 1_555 1_555
H43_6 C2_6 1_555 1_555
H44_6 C6_6 1_555 1_555
C6_6 C36_6 1_555 1_555
C11_6 C12_6 1_555 1_555
C18_6 C19_6 1_555 1_555
C24_6 C25_6 1_555 1_555
C31_6 C32_6 1_555 1_555
C33_6 C34_6 1_555 1_555
C35_6 C36_6 1_555 1_555
C54_6 C55_6 1_555 1_555
C61_6 C62_6 1_555 1_555
O2_6 Cu4_4 1_555 1_555
O1_6 Cu4_5 1_555 1_555
N5_3 C47_6 1_555 1_555
H28_6 C39_6 1_555 1_555
C40_6 C39_6 1_555 1_555
C41_6 C40_6 1_555 1_555
H29_6 C41_6 1_555 1_555
C43_6 C40_6 1_555 1_555
C44_6 C43_6 1_555 1_555
C45_6 C44_6 1_555 1_555
C46_6 C45_6 1_555 1_555
H31_6 C46_6 1_555 1_555
C47_6 C46_6 1_555 1_555
C48_6 N5_3 1_555 1_555
H33_6 C48_6 1_555 1_555
C49_6 C45_6 1_555 1_555
H34_6 C49_6 1_555 1_555
C48_6 C49_6 1_555 1_555

#END
