
###############################################################################
#
# This file contains modified crystal structure data generated from the
# MOF subset of the Cambridge Structural Database (CSD) v543 
# hosted by the Cambridge Crystallographic Data Centre (CCDC).
#
# This work is licensed under the Creative Commons
# Attribution-NonCommercial-ShareAlike 4.0 International License.
# To view a copy of this license, visit
# http://creativecommons.org/licenses/by-nc-sa/4.0/
# or send a letter to
# Creative Commons, PO Box 1866, Mountain View, CA 94042, USA.
#
# CIF created using the CSD Python API on 29 September 2022
# The structure has been converted into the P1 space group
# The structure has a 3D framework
# The original CSD entry XUKMUO is in the hexagonal crystal system
# The original CSD entry XUKMUO is in a Sohncke space group
# The framework has been calculated to contain at least 10.0% void space
# The void calculation uses a probe of radius 1.32A, grid spacing 0.4
# The framework is charged, counterions have been retained in the structure
# H atom positions have been added when not included in the experimental data
# Generated hydrogen atom positions removed from atoms on special positions
#
###############################################################################

data_XUKMUO
_chemical_formula_moiety         '(C384 H312 Cu10 N24 O12 20+)n'
_symmetry_cell_setting           triclinic
_symmetry_space_group_name_H-M   'P 1'
_symmetry_Int_Tables_number      1
_space_group_name_Hall           'P 1'
loop_
_symmetry_equiv_pos_site_id
_symmetry_equiv_pos_as_xyz
1 x,y,z
_cell_length_a                   26.158(4)
_cell_length_b                   26.158(4)
_cell_length_c                   18.105(3)
_cell_angle_alpha                90
_cell_angle_beta                 90
_cell_angle_gamma                120
_cell_volume                     10728.5
loop_
_atom_site_label
_atom_site_type_symbol
_atom_site_fract_x
_atom_site_fract_y
_atom_site_fract_z
H21 H 0.249908 0.028706 0.583835
Cu3 Cu 0.33320(12) 0.00000(17) 0.500000
C52 C 0.1628(4) 0.9883(7) 0.1481(6)
H38 H 0.121012 0.970871 0.148500
C53 C 0.1902(5) 0.9686(8) 0.1970(5)
C54 C 0.2512(6) 0.9940(10) 0.1964(5)
H39 H 0.269981 0.980562 0.229794
C56 C 0.1321(8) 0.8819(14) 0.2965(8)
C57 C 0.1597(8) 0.9230(14) 0.2487(9)
C58 C 0.1022(7) 0.8361(11) 0.3471(5)
C59 C 0.1322(8) 0.8115(12) 0.3820(7)
H41 H 0.173145 0.827086 0.373300
C60 C 0.1021(6) 0.7639(10) 0.4296(6)
H42 H 0.122509 0.747021 0.453512
N4 N 0.0421(6) 0.7410(9) 0.4424(5)
C61 C 0.0122(7) 0.7657(11) 0.4075(6)
C62 C 0.0424(7) 0.8133(11) 0.3598(6)
H44 H 0.021930 0.830158 0.335953
Cu2 Cu 0.00000(17) 0.66680(21) 0.500000
H12 H 0.004267 0.648212 0.661597
O2 O 0.1007(5) 0.7153(3) 0.5909(4)
N5 N 0.0342(8) 0.6330(6) 0.4304(7)
H3 H 0.910411 0.269976 0.028677
C4 C 0.7957(10) 0.2043(4) 0.000000
C6 C 0.8712(9) 0.1288(4) 0.000000
C33 C 0.7768(12) 0.1517(10) 0.0511(8)
C34 C 0.8331(10) 0.1685(8) 0.0963(6)
H23 H 0.843164 0.204274 0.125560
H24 H 0.824251 0.136168 0.131589
C35 C 0.7650(10) 0.0999(8) 0.0024(8)
H26 H 0.755424 0.065466 0.034217
H27 H 0.804093 0.238676 0.031241
C36 C 0.8878(11) 0.1804(9) 0.0505(7)
H28 H 0.862312 0.094011 0.030747
C37 C 0.7276(10) 0.1405(8) 0.0997(7)
C38 C 0.7322(10) 0.1387(8) 0.1760(7)
H29 H 0.768486 0.146656 0.197850
C39 C 0.6837(10) 0.1253(8) 0.2204(5)
H30 H 0.686883 0.124117 0.272571
C40 C 0.6307(10) 0.1137(8) 0.1885(6)
C41 C 0.6261(10) 0.1155(8) 0.1121(7)
H31 H 0.589794 0.107509 0.090289
C42 C 0.6745(12) 0.1288(10) 0.0677(5)
H32 H 0.671397 0.130049 0.015566
C43 C 0.5783(17) 0.0977(14) 0.2312(11)
C44 C 0.5418(19) 0.0866(16) 0.2828(12)
C45 C 0.4958(11) 0.0709(9) 0.3338(8)
C46 C 0.4384(13) 0.0372(11) 0.3079(6)
H33 H 0.431435 0.026639 0.257118
C47 C 0.3911(11) 0.0188(9) 0.3561(8)
N3 N 0.4012(10) 0.0342(8) 0.4304(7)
C48 C 0.4587(10) 0.0680(8) 0.4563(5)
H35 H 0.465591 0.078465 0.507060
C49 C 0.5060(10) 0.0863(8) 0.4080(9)
H36 H 0.545239 0.109372 0.425776
C50 C 0.9410(8) 0.1985(6) 0.0982(5)
C51 C 0.9665(9) 0.1629(7) 0.0987(5)
H37 H 0.953020 0.130714 0.065364
C55 C 0.9607(7) 0.2456(6) 0.1470(6)
H40 H 0.943328 0.269992 0.146658
H3_2 H 0.269976 0.359565 0.028677
C4_2 C 0.2043(4) 0.4086(9) 0.000000
C6_2 C 0.1288(4) 0.2576(8) 0.000000
C33_2 C 0.1517(10) 0.3749(7) 0.0511(8)
C34_2 C 0.1685(8) 0.3354(6) 0.0963(6)
H23_2 H 0.204274 0.361110 0.125560
H24_2 H 0.136168 0.311917 0.131589
C35_2 C 0.0999(8) 0.3349(6) 0.0024(8)
H26_2 H 0.065466 0.310042 0.034217
H27_2 H 0.238676 0.434583 0.031241
C36_2 C 0.1804(9) 0.2926(7) 0.0505(7)
H28_2 H 0.094011 0.231699 0.030747
C37_2 C 0.1405(8) 0.4129(6) 0.0997(7)
C38_2 C 0.1387(8) 0.4065(6) 0.1760(7)
H29_2 H 0.146656 0.378170 0.197850
C39_2 C 0.1253(8) 0.4416(6) 0.2204(5)
H30_2 H 0.124117 0.437234 0.272571
C40_2 C 0.1137(8) 0.4830(6) 0.1885(6)
C41_2 C 0.1155(8) 0.4894(6) 0.1121(7)
H31_2 H 0.107509 0.517715 0.090289
C42_2 C 0.1288(10) 0.4543(7) 0.0677(5)
H32_2 H 0.130049 0.458652 0.015566
C43_2 C 0.0977(14) 0.5194(9) 0.2312(11)
C44_2 C 0.0866(16) 0.5448(10) 0.2828(12)
C45_2 C 0.0709(9) 0.5751(6) 0.3338(8)
C46_2 C 0.0372(11) 0.5988(7) 0.3079(6)
H33_2 H 0.026639 0.595204 0.257118
C47_2 C 0.0188(9) 0.6277(7) 0.3561(8)
C48_2 C 0.0680(8) 0.6093(6) 0.4563(5)
H35_2 H 0.078465 0.612874 0.507060
C49_2 C 0.0863(8) 0.5803(6) 0.4080(9)
H36_2 H 0.109372 0.564133 0.425776
C50_2 C 0.1985(6) 0.2575(5) 0.0982(5)
C51_2 C 0.1629(7) 0.1964(5) 0.0987(5)
H37_2 H 0.130714 0.177694 0.065364
C52_2 C 0.1745(6) 0.1628(4) 0.1481(6)
H38_2 H 0.150141 0.121012 0.148500
C53_2 C 0.2216(6) 0.1902(5) 0.1970(5)
C54_2 C 0.2572(8) 0.2512(6) 0.1964(5)
H39_2 H 0.289419 0.269981 0.229794
C55_2 C 0.2456(6) 0.2849(4) 0.1470(6)
H40_2 H 0.269992 0.326664 0.146658
C56_2 C 0.2502(11) 0.1321(8) 0.2965(8)
C57_2 C 0.2367(11) 0.1597(8) 0.2487(9)
C58_2 C 0.2661(8) 0.1022(7) 0.3471(5)
C59_2 C 0.3207(9) 0.1322(8) 0.3820(7)
H41_2 H 0.346059 0.173145 0.373300
C60_2 C 0.3382(8) 0.1021(6) 0.4296(6)
H42_2 H 0.375488 0.122509 0.453512
N4_2 N 0.3011(7) 0.0421(6) 0.4424(5)
C61_2 C 0.2465(9) 0.0122(7) 0.4075(6)
C62_2 C 0.2291(9) 0.0424(7) 0.3598(6)
H44_2 H 0.191772 0.021930 0.335953
H21_2 H 0.028706 0.778798 0.583835
H12_2 H 0.356055 0.004267 0.661597
O2_2 O 0.3854(4) 0.1007(5) 0.5909(4)
H34 H 0.004267 0.356055 0.338403
Cu4 Cu 0.00000(17) 0.33320(12) 0.500000
H43 H 0.778798 0.028706 0.416165
Cu2_2 Cu 0.66680(12) 0.00000(17) 0.500000
C1 C 0.3749(7) 0.1517(10) 0.9489(8)
C2 C 0.3354(6) 0.1685(8) 0.9037(6)
H1 H 0.361110 0.204274 0.874440
H2 H 0.311917 0.136168 0.868411
C3 C 0.3349(6) 0.0999(8) 0.9976(8)
H4 H 0.310042 0.065466 0.965783
C4_3 C 0.4086(9) 0.2043(10) 1.000000
H5 H 0.434583 0.238676 0.968759
C5 C 0.2926(7) 0.1804(9) 0.9495(7)
C6_3 C 0.2576(8) 0.1288(9) 1.000000
H6 H 0.231699 0.094011 0.969253
C7 C 0.4129(6) 0.1405(8) 0.9003(7)
C8 C 0.4065(6) 0.1387(8) 0.8240(7)
H7 H 0.378170 0.146656 0.802150
C9 C 0.4416(6) 0.1253(8) 0.7796(5)
H8 H 0.437234 0.124117 0.727429
C10 C 0.4830(6) 0.1137(8) 0.8115(6)
C11 C 0.4894(6) 0.1155(8) 0.8879(7)
H9 H 0.517715 0.107509 0.909711
C12 C 0.4543(7) 0.1288(10) 0.9323(5)
H10 H 0.458652 0.130049 0.984434
C13 C 0.5194(9) 0.0977(14) 0.7688(11)
C14 C 0.5448(10) 0.0866(16) 0.7172(12)
C15 C 0.5751(6) 0.0709(9) 0.6662(8)
C16 C 0.5988(7) 0.0372(11) 0.6921(6)
H11 H 0.595204 0.026639 0.742882
C17 C 0.6277(7) 0.0188(9) 0.6439(8)
N1 N 0.6330(6) 0.0342(8) 0.5696(7)
C18 C 0.6093(6) 0.0680(8) 0.5437(5)
H13 H 0.612874 0.078465 0.492940
C19 C 0.5803(6) 0.0863(8) 0.5920(9)
H14 H 0.564133 0.109372 0.574224
C20 C 0.2575(5) 0.1985(6) 0.9018(5)
C21 C 0.1964(5) 0.1629(7) 0.9013(5)
H15 H 0.177694 0.130714 0.934636
C22 C 0.1628(4) 0.1745(6) 0.8519(6)
H16 H 0.121012 0.150141 0.851500
C23 C 0.1902(5) 0.2216(6) 0.8030(5)
C24 C 0.2512(6) 0.2572(8) 0.8036(5)
H17 H 0.269981 0.289419 0.770206
C25 C 0.2849(4) 0.2456(6) 0.8530(6)
H18 H 0.326664 0.269992 0.853342
C26 C 0.1321(8) 0.2502(11) 0.7035(8)
C27 C 0.1597(8) 0.2367(11) 0.7513(9)
C28 C 0.1022(7) 0.2661(8) 0.6529(5)
C29 C 0.1322(8) 0.3207(9) 0.6180(7)
H19 H 0.173145 0.346059 0.626700
C30 C 0.1021(6) 0.3382(8) 0.5704(6)
H20 H 0.122509 0.375488 0.546488
N2 N 0.0421(6) 0.3011(7) 0.5576(5)
C31 C 0.0122(7) 0.2465(9) 0.5925(6)
C32 C 0.0424(7) 0.2291(9) 0.6402(6)
H22 H 0.021930 0.191772 0.664047
O1 O 0.7153(3) 0.1007(5) 0.4091(4)
H25 H 0.359565 0.269976 0.971323
N6 N 0.7410(4) 0.0421(8) 0.5576(5)
C22_2 C 0.9883(5) 0.1628(4) 0.8519(6)
H16_2 H 0.970871 0.121012 0.851500
C23_2 C 0.9686(4) 0.1902(5) 0.8030(5)
C24_2 C 0.9940(5) 0.2512(6) 0.8036(5)
H17_2 H 0.980562 0.269981 0.770206
C26_2 C 0.8819(8) 0.1321(8) 0.7035(8)
C27_2 C 0.9230(7) 0.1597(8) 0.7513(9)
C28_2 C 0.8361(4) 0.1022(7) 0.6529(5)
C29_2 C 0.8115(5) 0.1322(8) 0.6180(7)
H19_2 H 0.827086 0.173145 0.626700
C30_2 C 0.7639(5) 0.1021(6) 0.5704(6)
H20_2 H 0.747021 0.122509 0.546488
C31_2 C 0.7657(5) 0.0122(7) 0.5925(6)
C32_2 C 0.8133(5) 0.0424(7) 0.6402(6)
H22_2 H 0.830158 0.021930 0.664047
H43_2 H 0.028706 0.249908 0.416165
H34_2 H 0.648212 0.004267 0.338403
C1_2 C 0.1517(10) 0.7768(7) 0.9489(8)
C2_2 C 0.1685(8) 0.8331(6) 0.9037(6)
H1_2 H 0.204274 0.843164 0.874440
H2_2 H 0.136168 0.824251 0.868411
C3_2 C 0.0999(8) 0.7650(6) 0.9976(8)
H4_2 H 0.065466 0.755424 0.965783
C4_4 C 0.2043(10) 0.7957(4) 1.000000
H5_2 H 0.238676 0.804093 0.968759
C5_2 C 0.1804(9) 0.8878(6) 0.9495(7)
C6_4 C 0.1288(9) 0.8712(4) 1.000000
H6_2 H 0.094011 0.862312 0.969253
C7_2 C 0.1405(8) 0.7276(5) 0.9003(7)
C8_2 C 0.1387(8) 0.7322(5) 0.8240(7)
H7_2 H 0.146656 0.768486 0.802150
C9_2 C 0.1253(8) 0.6837(6) 0.7796(5)
H8_2 H 0.124117 0.686883 0.727429
C10_2 C 0.1137(8) 0.6307(5) 0.8115(6)
C11_2 C 0.1155(8) 0.6261(5) 0.8879(7)
H9_2 H 0.107509 0.589794 0.909711
C12_2 C 0.1288(10) 0.6745(7) 0.9323(5)
H10_2 H 0.130049 0.671397 0.984434
C13_2 C 0.0977(14) 0.5783(11) 0.7688(11)
C14_2 C 0.0866(16) 0.5418(12) 0.7172(12)
C15_2 C 0.0709(9) 0.4958(7) 0.6662(8)
C16_2 C 0.0372(11) 0.4384(8) 0.6921(6)
H11_2 H 0.026639 0.431435 0.742882
C17_2 C 0.0188(9) 0.3911(6) 0.6439(8)
N1_2 N 0.0342(8) 0.4012(5) 0.5696(7)
C18_2 C 0.0680(8) 0.4587(6) 0.5437(5)
H13_2 H 0.078465 0.465591 0.492940
C19_2 C 0.0863(8) 0.5060(5) 0.5920(9)
H14_2 H 0.109372 0.545239 0.574224
C20_2 C 0.1985(6) 0.9410(4) 0.9018(5)
C21_2 C 0.1629(7) 0.9665(5) 0.9013(5)
H15_2 H 0.130714 0.953020 0.934636
C25_2 C 0.2456(6) 0.9607(5) 0.8530(6)
H18_2 H 0.269992 0.943328 0.853342
O1_2 O 0.1007(5) 0.3854(4) 0.4091(4)
H25_2 H 0.269976 0.910411 0.971323
C22_3 C 0.0117(5) 0.8372(4) 0.8519(6)
H16_3 H 0.029129 0.878988 0.851500
C23_3 C 0.0314(4) 0.8098(5) 0.8030(5)
C24_3 C 0.0060(5) 0.7488(6) 0.8036(5)
H17_3 H 0.019438 0.730019 0.770206
C26_3 C 0.1181(8) 0.8679(8) 0.7035(8)
C27_3 C 0.0770(7) 0.8403(8) 0.7513(9)
C28_3 C 0.1639(4) 0.8978(7) 0.6529(5)
C29_3 C 0.1885(5) 0.8678(8) 0.6180(7)
H19_3 H 0.172914 0.826855 0.626700
C30_3 C 0.2361(5) 0.8979(6) 0.5704(6)
H20_3 H 0.252979 0.877491 0.546488
N2_2 N 0.2590(4) 0.9579(6) 0.5576(5)
C31_3 C 0.2343(5) 0.9878(7) 0.5925(6)
C32_3 C 0.1867(5) 0.9576(7) 0.6402(6)
H22_3 H 0.169842 0.978070 0.664047
Cu3_2 Cu 0.33320(12) 1.00000(17) 0.500000
H43_3 H 0.971294 0.750092 0.416165
Cu2_3 Cu 1.00000(17) 0.66680(21) 0.500000
C1_3 C 0.8483(10) 0.2232(7) 0.9489(8)
C2_3 C 0.8315(8) 0.1669(6) 0.9037(6)
H1_3 H 0.795726 0.156836 0.874440
H2_3 H 0.863832 0.175749 0.868411
C3_3 C 0.9001(8) 0.2350(6) 0.9976(8)
H4_3 H 0.934534 0.244576 0.965783
C4_5 C 0.7957(10) 0.2043(4) 1.000000
H5_3 H 0.761324 0.195907 0.968759
C5_3 C 0.8196(9) 0.1122(6) 0.9495(7)
C6_5 C 0.8712(9) 0.1288(4) 1.000000
H6_3 H 0.905989 0.137688 0.969253
C7_3 C 0.8595(8) 0.2724(5) 0.9003(7)
C8_3 C 0.8613(8) 0.2678(5) 0.8240(7)
H7_3 H 0.853344 0.231514 0.802150
C9_3 C 0.8747(8) 0.3163(6) 0.7796(5)
H8_3 H 0.875883 0.313117 0.727429
C10_3 C 0.8863(8) 0.3693(5) 0.8115(6)
C11_3 C 0.8845(8) 0.3739(5) 0.8879(7)
H9_3 H 0.892491 0.410206 0.909711
C12_3 C 0.8712(10) 0.3255(7) 0.9323(5)
H10_3 H 0.869951 0.328603 0.984434
C13_3 C 0.9023(14) 0.4217(11) 0.7688(11)
C14_3 C 0.9134(16) 0.4582(12) 0.7172(12)
C15_3 C 0.9291(9) 0.5042(7) 0.6662(8)
C16_3 C 0.9628(11) 0.5616(8) 0.6921(6)
H11_3 H 0.973361 0.568565 0.742882
C17_3 C 0.9812(9) 0.6089(6) 0.6439(8)
N1_3 N 0.9658(8) 0.5988(5) 0.5696(7)
C18_3 C 0.9320(8) 0.5413(6) 0.5437(5)
H13_3 H 0.921535 0.534409 0.492940
C19_3 C 0.9137(8) 0.4940(5) 0.5920(9)
H14_3 H 0.890628 0.454761 0.574224
C20_3 C 0.8015(6) 0.0590(4) 0.9018(5)
C21_3 C 0.8371(7) 0.0335(5) 0.9013(5)
H15_3 H 0.869286 0.046980 0.934636
C25_3 C 0.7544(6) 0.0393(5) 0.8530(6)
H18_3 H 0.730008 0.056672 0.853342
O1_3 O 0.8993(5) 0.6146(4) 0.4091(4)
H25_3 H 0.730024 0.089589 0.971323
N6_2 N 0.9579(8) 0.6989(7) 0.5576(5)
H34_3 H 0.351788 0.995733 0.338403
H43_4 H 0.221202 0.971294 0.416165
H34_4 H 0.995733 0.643945 0.338403
C1_4 C 0.6251(7) 0.8483(10) 0.9489(8)
C2_4 C 0.6646(6) 0.8315(8) 0.9037(6)
H1_4 H 0.638890 0.795726 0.874440
H2_4 H 0.688083 0.863832 0.868411
C3_4 C 0.6651(6) 0.9001(8) 0.9976(8)
H4_4 H 0.689958 0.934534 0.965783
C4_6 C 0.5914(9) 0.7957(10) 1.000000
H5_4 H 0.565417 0.761324 0.968759
C5_4 C 0.7074(7) 0.8196(9) 0.9495(7)
C6_6 C 0.7424(8) 0.8712(9) 1.000000
H6_4 H 0.768301 0.905989 0.969253
C7_4 C 0.5871(6) 0.8595(8) 0.9003(7)
C8_4 C 0.5935(6) 0.8613(8) 0.8240(7)
H7_4 H 0.621830 0.853344 0.802150
C9_4 C 0.5584(6) 0.8747(8) 0.7796(5)
H8_4 H 0.562766 0.875883 0.727429
C10_4 C 0.5170(6) 0.8863(8) 0.8115(6)
C11_4 C 0.5106(6) 0.8845(8) 0.8879(7)
H9_4 H 0.482285 0.892491 0.909711
C12_4 C 0.5457(7) 0.8712(10) 0.9323(5)
H10_4 H 0.541348 0.869951 0.984434
C13_4 C 0.4806(9) 0.9023(14) 0.7688(11)
C14_4 C 0.4552(10) 0.9134(16) 0.7172(12)
C15_4 C 0.4249(6) 0.9291(9) 0.6662(8)
C16_4 C 0.4012(7) 0.9628(11) 0.6921(6)
H11_4 H 0.404796 0.973361 0.742882
C17_4 C 0.3723(7) 0.9812(9) 0.6439(8)
N1_4 N 0.3670(6) 0.9658(8) 0.5696(7)
C18_4 C 0.3907(6) 0.9320(8) 0.5437(5)
H13_4 H 0.387126 0.921535 0.492940
C19_4 C 0.4197(6) 0.9137(8) 0.5920(9)
H14_4 H 0.435867 0.890628 0.574224
C20_4 C 0.7425(5) 0.8015(6) 0.9018(5)
C21_4 C 0.8036(5) 0.8371(7) 0.9013(5)
H15_4 H 0.822306 0.869286 0.934636
C22_4 C 0.8372(4) 0.8255(6) 0.8519(6)
H16_4 H 0.878988 0.849859 0.851500
C23_4 C 0.8098(5) 0.7784(6) 0.8030(5)
C24_4 C 0.7488(6) 0.7428(8) 0.8036(5)
H17_4 H 0.730019 0.710581 0.770206
C25_4 C 0.7151(4) 0.7544(6) 0.8530(6)
H18_4 H 0.673336 0.730008 0.853342
C26_4 C 0.8679(8) 0.7498(11) 0.7035(8)
C27_4 C 0.8403(8) 0.7633(11) 0.7513(9)
C28_4 C 0.8978(7) 0.7339(8) 0.6529(5)
C29_4 C 0.8678(8) 0.6793(9) 0.6180(7)
H19_4 H 0.826855 0.653941 0.626700
C30_4 C 0.8979(6) 0.6618(8) 0.5704(6)
H20_4 H 0.877491 0.624512 0.546488
C31_4 C 0.9878(7) 0.7535(9) 0.5925(6)
C32_4 C 0.9576(7) 0.7709(9) 0.6402(6)
H22_4 H 0.978070 0.808228 0.664047
O1_4 O 0.2847(3) 0.8993(5) 0.4091(4)
H25_4 H 0.640435 0.730024 0.971323
H3_3 H 0.730024 0.640435 0.028677
C4_7 C 0.7957(4) 0.5914(9) 0.000000
C6_7 C 0.8712(4) 0.7424(8) 0.000000
C33_3 C 0.8483(10) 0.6251(7) 0.0511(8)
C34_3 C 0.8315(8) 0.6646(6) 0.0963(6)
H23_3 H 0.795726 0.638890 0.125560
H24_3 H 0.863832 0.688083 0.131589
C35_3 C 0.9001(8) 0.6651(6) 0.0024(8)
H26_3 H 0.934534 0.689958 0.034217
H27_3 H 0.761324 0.565417 0.031241
C36_3 C 0.8196(9) 0.7074(7) 0.0505(7)
H28_3 H 0.905989 0.768301 0.030747
C37_3 C 0.8595(8) 0.5871(6) 0.0997(7)
C38_3 C 0.8613(8) 0.5935(6) 0.1760(7)
H29_3 H 0.853344 0.621830 0.197850
C39_3 C 0.8747(8) 0.5584(6) 0.2204(5)
H30_3 H 0.875883 0.562766 0.272571
C40_3 C 0.8863(8) 0.5170(6) 0.1885(6)
C41_3 C 0.8845(8) 0.5106(6) 0.1121(7)
H31_3 H 0.892491 0.482285 0.090289
C42_3 C 0.8712(10) 0.5457(7) 0.0677(5)
H32_3 H 0.869951 0.541348 0.015566
C43_3 C 0.9023(14) 0.4806(9) 0.2312(11)
C44_3 C 0.9134(16) 0.4552(10) 0.2828(12)
C45_3 C 0.9291(9) 0.4249(6) 0.3338(8)
C46_3 C 0.9628(11) 0.4012(7) 0.3079(6)
H33_3 H 0.973361 0.404796 0.257118
C47_3 C 0.9812(9) 0.3723(7) 0.3561(8)
N3_2 N 0.9658(8) 0.3670(6) 0.4304(7)
C48_3 C 0.9320(8) 0.3907(6) 0.4563(5)
H35_3 H 0.921535 0.387126 0.507060
C49_3 C 0.9137(8) 0.4197(6) 0.4080(9)
H36_3 H 0.890628 0.435867 0.425776
C50_3 C 0.8015(6) 0.7425(5) 0.0982(5)
C51_3 C 0.8371(7) 0.8036(5) 0.0987(5)
H37_3 H 0.869286 0.822306 0.065364
C52_3 C 0.8255(6) 0.8372(4) 0.1481(6)
H38_3 H 0.849859 0.878988 0.148500
C53_3 C 0.7784(6) 0.8098(5) 0.1970(5)
C54_3 C 0.7428(8) 0.7488(6) 0.1964(5)
H39_3 H 0.710581 0.730019 0.229794
C55_3 C 0.7544(6) 0.7151(4) 0.1470(6)
H40_3 H 0.730008 0.673336 0.146658
C56_3 C 0.7498(11) 0.8679(8) 0.2965(8)
C57_3 C 0.7633(11) 0.8403(8) 0.2487(9)
C58_3 C 0.7339(8) 0.8978(7) 0.3471(5)
C59_3 C 0.6793(9) 0.8678(8) 0.3820(7)
H41_3 H 0.653941 0.826855 0.373300
C60_3 C 0.6618(8) 0.8979(6) 0.4296(6)
H42_3 H 0.624512 0.877491 0.453512
N4_3 N 0.6989(7) 0.9579(6) 0.4424(5)
C61_3 C 0.7535(9) 0.9878(7) 0.4075(6)
C62_3 C 0.7709(9) 0.9576(7) 0.3598(6)
H44_3 H 0.808228 0.978070 0.335953
Cu2_4 Cu 0.66680(12) 1.00000(17) 0.500000
Cu4_2 Cu 1.00000(17) 0.33320(12) 0.500000
H12_3 H 0.643945 0.995733 0.661597
O2_3 O 0.6146(4) 0.8993(5) 0.5909(4)
N5_2 N 0.5988(5) 0.9658(8) 0.4304(7)
H21_3 H 0.971294 0.221202 0.583835
H21_4 H 0.750092 0.971294 0.583835
C52_4 C 0.8372(4) 0.0117(7) 0.1481(6)
H38_4 H 0.878988 0.029129 0.148500
C53_4 C 0.8098(5) 0.0314(8) 0.1970(5)
C54_4 C 0.7488(6) 0.0060(10) 0.1964(5)
H39_4 H 0.730019 0.019438 0.229794
C56_4 C 0.8679(8) 0.1181(14) 0.2965(8)
C57_4 C 0.8403(8) 0.0770(14) 0.2487(9)
C58_4 C 0.8978(7) 0.1639(11) 0.3471(5)
C59_4 C 0.8678(8) 0.1885(12) 0.3820(7)
H41_4 H 0.826855 0.172914 0.373300
C60_4 C 0.8979(6) 0.2361(10) 0.4296(6)
H42_4 H 0.877491 0.252979 0.453512
N4_4 N 0.9579(6) 0.2590(9) 0.4424(5)
C61_4 C 0.9878(7) 0.2343(11) 0.4075(6)
C62_4 C 0.9576(7) 0.1867(11) 0.3598(6)
H44_4 H 0.978070 0.169842 0.335953
H3_4 H 0.089589 0.730024 0.028677
C4_8 C 0.2043(10) 0.7957(4) 0.000000
C6_8 C 0.1288(9) 0.8712(4) 0.000000
C33_4 C 0.2232(12) 0.8483(10) 0.0511(8)
C34_4 C 0.1669(10) 0.8315(8) 0.0963(6)
H23_4 H 0.156836 0.795726 0.125560
H24_4 H 0.175749 0.863832 0.131589
C35_4 C 0.2350(10) 0.9001(8) 0.0024(8)
H26_4 H 0.244576 0.934534 0.034217
H27_4 H 0.195907 0.761324 0.031241
C36_4 C 0.1122(11) 0.8196(9) 0.0505(7)
H28_4 H 0.137688 0.905989 0.030747
C37_4 C 0.2724(10) 0.8595(8) 0.0997(7)
C38_4 C 0.2678(10) 0.8613(8) 0.1760(7)
H29_4 H 0.231514 0.853344 0.197850
C39_4 C 0.3163(10) 0.8747(8) 0.2204(5)
H30_4 H 0.313117 0.875883 0.272571
C40_4 C 0.3693(10) 0.8863(8) 0.1885(6)
C41_4 C 0.3739(10) 0.8845(8) 0.1121(7)
H31_4 H 0.410206 0.892491 0.090289
C42_4 C 0.3255(12) 0.8712(10) 0.0677(5)
H32_4 H 0.328603 0.869951 0.015566
C43_4 C 0.4217(17) 0.9023(14) 0.2312(11)
C44_4 C 0.4582(19) 0.9134(16) 0.2828(12)
C45_4 C 0.5042(11) 0.9291(9) 0.3338(8)
C46_4 C 0.5616(13) 0.9628(11) 0.3079(6)
H33_4 H 0.568565 0.973361 0.257118
C47_4 C 0.6089(11) 0.9812(9) 0.3561(8)
C48_4 C 0.5413(10) 0.9320(8) 0.4563(5)
H35_4 H 0.534409 0.921535 0.507060
C49_4 C 0.4940(10) 0.9137(8) 0.4080(9)
H36_4 H 0.454761 0.890628 0.425776
C50_4 C 0.0590(8) 0.8015(6) 0.0982(5)
C51_4 C 0.0335(9) 0.8371(7) 0.0987(5)
H37_4 H 0.046980 0.869286 0.065364
C55_4 C 0.0393(7) 0.7544(6) 0.1470(6)
H40_4 H 0.056672 0.730008 0.146658
H12_4 H 0.995733 0.351788 0.661597
O2_4 O 0.8993(5) 0.2847(3) 0.5909(4)
Cu1 Cu 0.33320(12) 0.33320(12) 0.500000
C1_5 C 0.7768(7) 0.6251(7) 0.9489(8)
C2_5 C 0.8331(6) 0.6646(6) 0.9037(6)
H1_5 H 0.843164 0.638890 0.874440
H2_5 H 0.824251 0.688083 0.868411
C3_5 C 0.7650(6) 0.6651(6) 0.9976(8)
H4_5 H 0.755424 0.689958 0.965783
C4_9 C 0.7957(4) 0.5914(9) 1.000000
H5_5 H 0.804093 0.565417 0.968759
C5_5 C 0.8878(6) 0.7074(7) 0.9495(7)
C6_9 C 0.8712(4) 0.7424(8) 1.000000
H6_5 H 0.862312 0.768301 0.969253
C7_5 C 0.7276(5) 0.5871(6) 0.9003(7)
C8_5 C 0.7322(5) 0.5935(6) 0.8240(7)
H7_5 H 0.768486 0.621830 0.802150
C9_5 C 0.6837(6) 0.5584(6) 0.7796(5)
H8_5 H 0.686883 0.562766 0.727429
C10_5 C 0.6307(5) 0.5170(6) 0.8115(6)
C11_5 C 0.6261(5) 0.5106(6) 0.8879(7)
H9_5 H 0.589794 0.482285 0.909711
C12_5 C 0.6745(7) 0.5457(7) 0.9323(5)
H10_5 H 0.671397 0.541348 0.984434
C13_5 C 0.5783(11) 0.4806(9) 0.7688(11)
C14_5 C 0.5418(12) 0.4552(10) 0.7172(12)
C15_5 C 0.4958(7) 0.4249(6) 0.6662(8)
C16_5 C 0.4384(8) 0.4012(7) 0.6921(6)
H11_5 H 0.431435 0.404796 0.742882
C17_5 C 0.3911(6) 0.3723(7) 0.6439(8)
H12_5 H 0.351788 0.356055 0.661597
N1_5 N 0.4012(5) 0.3670(6) 0.5696(7)
C18_5 C 0.4587(6) 0.3907(6) 0.5437(5)
H13_5 H 0.465591 0.387126 0.492940
C19_5 C 0.5060(5) 0.4197(6) 0.5920(9)
H14_5 H 0.545239 0.435867 0.574224
C20_5 C 0.9410(4) 0.7425(5) 0.9018(5)
C21_5 C 0.9665(5) 0.8036(5) 0.9013(5)
H15_5 H 0.953020 0.822306 0.934636
C25_5 C 0.9607(5) 0.7151(4) 0.8530(6)
H18_5 H 0.943328 0.673336 0.853342
O1_5 O 0.3854(4) 0.2847(3) 0.4091(4)
H25_5 H 0.910411 0.640435 0.971323
O2_5 O 0.2847(3) 0.3854(4) 0.5909(4)
N5_3 N 0.3670(6) 0.4012(5) 0.4304(7)
N6_3 N 0.3011(7) 0.2590(4) 0.5576(5)
N7 N 0.2590(4) 0.3011(7) 0.4424(5)
C52_5 C 0.0117(7) 0.1745(6) 0.1481(6)
H38_5 H 0.029129 0.150141 0.148500
C53_5 C 0.0314(8) 0.2216(6) 0.1970(5)
C54_5 C 0.0060(10) 0.2572(8) 0.1964(5)
H39_5 H 0.019438 0.289419 0.229794
C56_5 C 0.1181(14) 0.2502(11) 0.2965(8)
C57_5 C 0.0770(14) 0.2367(11) 0.2487(9)
C58_5 C 0.1639(11) 0.2661(8) 0.3471(5)
C59_5 C 0.1885(12) 0.3207(9) 0.3820(7)
H41_5 H 0.172914 0.346059 0.373300
C60_5 C 0.2361(10) 0.3382(8) 0.4296(6)
H42_5 H 0.252979 0.375488 0.453512
C61_5 C 0.2343(11) 0.2465(9) 0.4075(6)
H43_5 H 0.249908 0.221202 0.416165
C62_5 C 0.1867(11) 0.2291(9) 0.3598(6)
H44_5 H 0.169842 0.191772 0.335953
H3_5 H 0.640435 0.910411 0.028677
C4_10 C 0.5914(9) 0.7957(10) 0.000000
C6_10 C 0.7424(8) 0.8712(9) 0.000000
C33_5 C 0.6251(7) 0.7768(12) 0.0511(8)
C34_5 C 0.6646(6) 0.8331(10) 0.0963(6)
H23_5 H 0.638890 0.843164 0.125560
H24_5 H 0.688083 0.824251 0.131589
C35_5 C 0.6651(6) 0.7650(10) 0.0024(8)
H26_5 H 0.689958 0.755424 0.034217
H27_5 H 0.565417 0.804093 0.031241
C36_5 C 0.7074(7) 0.8878(11) 0.0505(7)
H28_5 H 0.768301 0.862312 0.030747
C37_5 C 0.5871(6) 0.7276(10) 0.0997(7)
C38_5 C 0.5935(6) 0.7322(10) 0.1760(7)
H29_5 H 0.621830 0.768486 0.197850
C39_5 C 0.5584(6) 0.6837(10) 0.2204(5)
H30_5 H 0.562766 0.686883 0.272571
C40_5 C 0.5170(6) 0.6307(10) 0.1885(6)
C41_5 C 0.5106(6) 0.6261(10) 0.1121(7)
H31_5 H 0.482285 0.589794 0.090289
C42_5 C 0.5457(7) 0.6745(12) 0.0677(5)
H32_5 H 0.541348 0.671397 0.015566
C43_5 C 0.4806(9) 0.5783(17) 0.2312(11)
C44_5 C 0.4552(10) 0.5418(19) 0.2828(12)
C45_5 C 0.4249(6) 0.4958(11) 0.3338(8)
C46_5 C 0.4012(7) 0.4384(13) 0.3079(6)
H33_5 H 0.404796 0.431435 0.257118
C47_5 C 0.3723(7) 0.3911(11) 0.3561(8)
H34_5 H 0.356055 0.351788 0.338403
C48_5 C 0.3907(6) 0.4587(10) 0.4563(5)
H35_5 H 0.387126 0.465591 0.507060
C49_5 C 0.4197(6) 0.5060(10) 0.4080(9)
H36_5 H 0.435867 0.545239 0.425776
C50_5 C 0.7425(5) 0.9410(8) 0.0982(5)
C51_5 C 0.8036(5) 0.9665(9) 0.0987(5)
H37_5 H 0.822306 0.953020 0.065364
C55_5 C 0.7151(4) 0.9607(7) 0.1470(6)
H40_5 H 0.673336 0.943328 0.146658
C22_5 C 0.1745(6) 0.0117(5) 0.8519(6)
H16_5 H 0.150141 0.029129 0.851500
C23_5 C 0.2216(6) 0.0314(4) 0.8030(5)
C24_5 C 0.2572(8) 0.0060(5) 0.8036(5)
H17_5 H 0.289419 0.019438 0.770206
C26_5 C 0.2502(11) 0.1181(8) 0.7035(8)
C27_5 C 0.2367(11) 0.0770(7) 0.7513(9)
C28_5 C 0.2661(8) 0.1639(4) 0.6529(5)
C29_5 C 0.3207(9) 0.1885(5) 0.6180(7)
H19_5 H 0.346059 0.172914 0.626700
C30_5 C 0.3382(8) 0.2361(5) 0.5704(6)
H20_5 H 0.375488 0.252979 0.546488
C31_5 C 0.2465(9) 0.2343(5) 0.5925(6)
H21_5 H 0.221202 0.249908 0.583835
C32_5 C 0.2291(9) 0.1867(5) 0.6402(6)
H22_5 H 0.191772 0.169842 0.664047
H3_6 H 0.359565 0.089589 0.028677
C4_11 C 0.4086(9) 0.2043(10) 0.000000
C6_11 C 0.2576(8) 0.1288(9) 0.000000
C33_6 C 0.3749(7) 0.2232(12) 0.0511(8)
C34_6 C 0.3354(6) 0.1669(10) 0.0963(6)
H23_6 H 0.361110 0.156836 0.125560
H24_6 H 0.311917 0.175749 0.131589
C35_6 C 0.3349(6) 0.2350(10) 0.0024(8)
H26_6 H 0.310042 0.244576 0.034217
H27_6 H 0.434583 0.195907 0.031241
C36_6 C 0.2926(7) 0.1122(11) 0.0505(7)
H28_6 H 0.231699 0.137688 0.030747
C37_6 C 0.4129(6) 0.2724(10) 0.0997(7)
C38_6 C 0.4065(6) 0.2678(10) 0.1760(7)
H29_6 H 0.378170 0.231514 0.197850
C39_6 C 0.4416(6) 0.3163(10) 0.2204(5)
H30_6 H 0.437234 0.313117 0.272571
C40_6 C 0.4830(6) 0.3693(10) 0.1885(6)
C41_6 C 0.4894(6) 0.3739(10) 0.1121(7)
H31_6 H 0.517715 0.410206 0.090289
C42_6 C 0.4543(7) 0.3255(12) 0.0677(5)
H32_6 H 0.458652 0.328603 0.015566
C43_6 C 0.5194(9) 0.4217(17) 0.2312(11)
C44_6 C 0.5448(10) 0.4582(19) 0.2828(12)
C45_6 C 0.5751(6) 0.5042(11) 0.3338(8)
C46_6 C 0.5988(7) 0.5616(13) 0.3079(6)
H33_6 H 0.595204 0.568565 0.257118
C47_6 C 0.6277(7) 0.6089(11) 0.3561(8)
H34_6 H 0.643945 0.648212 0.338403
N3_3 N 0.6330(6) 0.5988(10) 0.4304(7)
C48_6 C 0.6093(6) 0.5413(10) 0.4563(5)
H35_6 H 0.612874 0.534409 0.507060
C49_6 C 0.5803(6) 0.4940(10) 0.4080(9)
H36_6 H 0.564133 0.454761 0.425776
C50_6 C 0.2575(5) 0.0590(8) 0.0982(5)
C51_6 C 0.1964(5) 0.0335(9) 0.0987(5)
H37_6 H 0.177694 0.046980 0.065364
C55_6 C 0.2849(4) 0.0393(7) 0.1470(6)
H40_6 H 0.326664 0.056672 0.146658
Cu4_3 Cu 0.66680(12) 0.66680(21) 0.500000
C22_6 C 0.8255(6) 0.9883(5) 0.8519(6)
H16_6 H 0.849859 0.970871 0.851500
C23_6 C 0.7784(6) 0.9686(4) 0.8030(5)
C24_6 C 0.7428(8) 0.9940(5) 0.8036(5)
H17_6 H 0.710581 0.980562 0.770206
C26_6 C 0.7498(11) 0.8819(8) 0.7035(8)
C27_6 C 0.7633(11) 0.9230(7) 0.7513(9)
C28_6 C 0.7339(8) 0.8361(4) 0.6529(5)
C29_6 C 0.6793(9) 0.8115(5) 0.6180(7)
H19_6 H 0.653941 0.827086 0.626700
C30_6 C 0.6618(8) 0.7639(5) 0.5704(6)
H20_6 H 0.624512 0.747021 0.546488
N2_3 N 0.6989(7) 0.7410(4) 0.5576(5)
C31_6 C 0.7535(9) 0.7657(5) 0.5925(6)
H21_6 H 0.778798 0.750092 0.583835
C32_6 C 0.7709(9) 0.8133(5) 0.6402(6)
H22_6 H 0.808228 0.830158 0.664047
C1_6 C 0.2232(7) 0.3749(7) 0.9489(8)
C2_6 C 0.1669(6) 0.3354(6) 0.9037(6)
H1_6 H 0.156836 0.361110 0.874440
H2_6 H 0.175749 0.311917 0.868411
C3_6 C 0.2350(6) 0.3349(6) 0.9976(8)
H4_6 H 0.244576 0.310042 0.965783
C4_12 C 0.2043(4) 0.4086(9) 1.000000
H5_6 H 0.195907 0.434583 0.968759
C5_6 C 0.1122(6) 0.2926(7) 0.9495(7)
C6_12 C 0.1288(4) 0.2576(8) 1.000000
H6_6 H 0.137688 0.231699 0.969253
C7_6 C 0.2724(5) 0.4129(6) 0.9003(7)
C8_6 C 0.2678(5) 0.4065(6) 0.8240(7)
H7_6 H 0.231514 0.378170 0.802150
C9_6 C 0.3163(6) 0.4416(6) 0.7796(5)
H8_6 H 0.313117 0.437234 0.727429
C10_6 C 0.3693(5) 0.4830(6) 0.8115(6)
C11_6 C 0.3739(5) 0.4894(6) 0.8879(7)
H9_6 H 0.410206 0.517715 0.909711
C12_6 C 0.3255(7) 0.4543(7) 0.9323(5)
H10_6 H 0.328603 0.458652 0.984434
C13_6 C 0.4217(11) 0.5194(9) 0.7688(11)
C14_6 C 0.4582(12) 0.5448(10) 0.7172(12)
C15_6 C 0.5042(7) 0.5751(6) 0.6662(8)
C16_6 C 0.5616(8) 0.5988(7) 0.6921(6)
H11_6 H 0.568565 0.595204 0.742882
C17_6 C 0.6089(6) 0.6277(7) 0.6439(8)
H12_6 H 0.648212 0.643945 0.661597
N1_6 N 0.5988(5) 0.6330(6) 0.5696(7)
C18_6 C 0.5413(6) 0.6093(6) 0.5437(5)
H13_6 H 0.534409 0.612874 0.492940
C19_6 C 0.4940(5) 0.5803(6) 0.5920(9)
H14_6 H 0.454761 0.564133 0.574224
C20_6 C 0.0590(4) 0.2575(5) 0.9018(5)
C21_6 C 0.0335(5) 0.1964(5) 0.9013(5)
H15_6 H 0.046980 0.177694 0.934636
C25_6 C 0.0393(5) 0.2849(4) 0.8530(6)
H18_6 H 0.056672 0.326664 0.853342
O1_6 O 0.6146(4) 0.7153(3) 0.4091(4)
H25_6 H 0.089589 0.359565 0.971323
O2_6 O 0.7153(3) 0.6146(4) 0.5909(4)
N7_2 N 0.7410(4) 0.6989(7) 0.4424(5)
C52_6 C 0.9883(7) 0.8255(6) 0.1481(6)
H38_6 H 0.970871 0.849859 0.148500
C53_6 C 0.9686(8) 0.7784(6) 0.1970(5)
C54_6 C 0.9940(10) 0.7428(8) 0.1964(5)
H39_6 H 0.980562 0.710581 0.229794
C56_6 C 0.8819(14) 0.7498(11) 0.2965(8)
C57_6 C 0.9230(14) 0.7633(11) 0.2487(9)
C58_6 C 0.8361(11) 0.7339(8) 0.3471(5)
C59_6 C 0.8115(12) 0.6793(9) 0.3820(7)
H41_6 H 0.827086 0.653941 0.373300
C60_6 C 0.7639(10) 0.6618(8) 0.4296(6)
H42_6 H 0.747021 0.624512 0.453512
C61_6 C 0.7657(11) 0.7535(9) 0.4075(6)
H43_6 H 0.750092 0.778798 0.416165
C62_6 C 0.8133(11) 0.7709(9) 0.3598(6)
H44_6 H 0.830158 0.808228 0.335953
loop_
_geom_bond_atom_site_label_1
_geom_bond_atom_site_label_2
_geom_bond_site_symmetry_1
_geom_bond_site_symmetry_2
H38 C52 1_555 1_555
C53 C52 1_555 1_555
C54 C53 1_555 1_555
H39 C54 1_555 1_555
C56 C57 1_555 1_555
C57 C53 1_555 1_555
C58 C56 1_555 1_555
C59 C58 1_555 1_555
H41 C59 1_555 1_555
C60 C59 1_555 1_555
H42 C60 1_555 1_555
N4 C60 1_555 1_555
C61 N4 1_555 1_555
C62 C58 1_555 1_555
H44 C62 1_555 1_555
Cu2 N4 1_555 1_555
C61 C62 1_555 1_555
O2 Cu2 1_555 1_555
N5 Cu2 1_555 1_555
C33 C4 1_555 1_555
C34 C33 1_555 1_555
H23 C34 1_555 1_555
H24 C34 1_555 1_555
H26 C35 1_555 1_555
H27 C4 1_555 1_555
H28 C6 1_555 1_555
C37 C33 1_555 1_555
C38 C37 1_555 1_555
H29 C38 1_555 1_555
C39 C38 1_555 1_555
H30 C39 1_555 1_555
C40 C39 1_555 1_555
C41 C40 1_555 1_555
H31 C41 1_555 1_555
C42 C37 1_555 1_555
H32 C42 1_555 1_555
C43 C40 1_555 1_555
C44 C43 1_555 1_555
C45 C44 1_555 1_555
C46 C45 1_555 1_555
H33 C46 1_555 1_555
C47 C46 1_555 1_555
N3 C47 1_555 1_555
C48 N3 1_555 1_555
H35 C48 1_555 1_555
C49 C45 1_555 1_555
H36 C49 1_555 1_555
C50 C36 1_555 1_555
C51 C50 1_555 1_555
H37 C51 1_555 1_555
C55 C50 1_555 1_555
H40 C55 1_555 1_555
Cu3 N3 1_555 1_555
C6 C36 1_555 1_555
C33 C35 1_555 1_555
C34 C36 1_555 1_555
C41 C42 1_555 1_555
C48 C49 1_555 1_555
C33_2 C4_2 1_555 1_555
C34_2 C33_2 1_555 1_555
H23_2 C34_2 1_555 1_555
H24_2 C34_2 1_555 1_555
H26_2 C35_2 1_555 1_555
H27_2 C4_2 1_555 1_555
H28_2 C6_2 1_555 1_555
C37_2 C33_2 1_555 1_555
C38_2 C37_2 1_555 1_555
H29_2 C38_2 1_555 1_555
C39_2 C38_2 1_555 1_555
H30_2 C39_2 1_555 1_555
C40_2 C39_2 1_555 1_555
C41_2 C40_2 1_555 1_555
H31_2 C41_2 1_555 1_555
C42_2 C37_2 1_555 1_555
H32_2 C42_2 1_555 1_555
C43_2 C40_2 1_555 1_555
C44_2 C43_2 1_555 1_555
C45_2 C44_2 1_555 1_555
C46_2 C45_2 1_555 1_555
H33_2 C46_2 1_555 1_555
C47_2 C46_2 1_555 1_555
N5 C47_2 1_555 1_555
C48_2 N5 1_555 1_555
H35_2 C48_2 1_555 1_555
C49_2 C45_2 1_555 1_555
H36_2 C49_2 1_555 1_555
C50_2 C36_2 1_555 1_555
C51_2 C50_2 1_555 1_555
H37_2 C51_2 1_555 1_555
C52_2 C51_2 1_555 1_555
H38_2 C52_2 1_555 1_555
C53_2 C52_2 1_555 1_555
C54_2 C53_2 1_555 1_555
H39_2 C54_2 1_555 1_555
C55_2 C50_2 1_555 1_555
H40_2 C55_2 1_555 1_555
C56_2 C57_2 1_555 1_555
C57_2 C53_2 1_555 1_555
C58_2 C56_2 1_555 1_555
C59_2 C58_2 1_555 1_555
H41_2 C59_2 1_555 1_555
C60_2 C59_2 1_555 1_555
H42_2 C60_2 1_555 1_555
N4_2 C60_2 1_555 1_555
C61_2 N4_2 1_555 1_555
C62_2 C58_2 1_555 1_555
H44_2 C62_2 1_555 1_555
Cu3 N4_2 1_555 1_555
C6_2 C36_2 1_555 1_555
C33_2 C35_2 1_555 1_555
C34_2 C36_2 1_555 1_555
C41_2 C42_2 1_555 1_555
C48_2 C49_2 1_555 1_555
C54_2 C55_2 1_555 1_555
C61_2 C62_2 1_555 1_555
O2_2 Cu3 1_555 1_555
Cu2_2 N1 1_555 1_555
C1 C2 1_555 1_555
C2 H1 1_555 1_555
H2 C2 1_555 1_555
C3 C1 1_555 1_555
H4 C3 1_555 1_555
C4_3 C1 1_555 1_555
H5 C4_3 1_555 1_555
C5 C2 1_555 1_555
C6_3 C5 1_555 1_555
H6 C6_3 1_555 1_555
C7 C1 1_555 1_555
C8 C7 1_555 1_555
H7 C8 1_555 1_555
C9 C8 1_555 1_555
H8 C9 1_555 1_555
C10 C9 1_555 1_555
C11 C10 1_555 1_555
H9 C11 1_555 1_555
C12 C7 1_555 1_555
H10 C12 1_555 1_555
C13 C10 1_555 1_555
C14 C13 1_555 1_555
C15 C14 1_555 1_555
C16 C15 1_555 1_555
H11 C16 1_555 1_555
C17 C16 1_555 1_555
N1 C17 1_555 1_555
C18 N1 1_555 1_555
H13 C18 1_555 1_555
C19 C15 1_555 1_555
H14 C19 1_555 1_555
C20 C5 1_555 1_555
C21 C20 1_555 1_555
H15 C21 1_555 1_555
C22 C21 1_555 1_555
H16 C22 1_555 1_555
C23 C22 1_555 1_555
C24 C23 1_555 1_555
H17 C24 1_555 1_555
C25 C20 1_555 1_555
H18 C25 1_555 1_555
C26 C27 1_555 1_555
C27 C23 1_555 1_555
C28 C26 1_555 1_555
C29 C28 1_555 1_555
H19 C29 1_555 1_555
C30 C29 1_555 1_555
H20 C30 1_555 1_555
N2 C30 1_555 1_555
C31 N2 1_555 1_555
C32 C28 1_555 1_555
H22 C32 1_555 1_555
O1 Cu2_2 1_555 1_555
Cu4 N2 1_555 1_555
N6 Cu2_2 1_555 1_555
C11 C12 1_555 1_555
C18 C19 1_555 1_555
C24 C25 1_555 1_555
C31 C32 1_555 1_555
H16_2 C22_2 1_555 1_555
C23_2 C22_2 1_555 1_555
C24_2 C23_2 1_555 1_555
H17_2 C24_2 1_555 1_555
C26_2 C27_2 1_555 1_555
C27_2 C23_2 1_555 1_555
C28_2 C26_2 1_555 1_555
C29_2 C28_2 1_555 1_555
H19_2 C29_2 1_555 1_555
C30_2 C29_2 1_555 1_555
H20_2 C30_2 1_555 1_555
N6 C30_2 1_555 1_555
C31_2 N6 1_555 1_555
C32_2 C28_2 1_555 1_555
H22_2 C32_2 1_555 1_555
C31_2 C32_2 1_555 1_555
Cu4 N1_2 1_555 1_555
C1_2 C2_2 1_555 1_555
C2_2 H1_2 1_555 1_555
H2_2 C2_2 1_555 1_555
C3_2 C1_2 1_555 1_555
H4_2 C3_2 1_555 1_555
C4_4 C1_2 1_555 1_555
H5_2 C4_4 1_555 1_555
C5_2 C2_2 1_555 1_555
C6_4 C5_2 1_555 1_555
H6_2 C6_4 1_555 1_555
C7_2 C1_2 1_555 1_555
C8_2 C7_2 1_555 1_555
H7_2 C8_2 1_555 1_555
C9_2 C8_2 1_555 1_555
H8_2 C9_2 1_555 1_555
C10_2 C9_2 1_555 1_555
C11_2 C10_2 1_555 1_555
H9_2 C11_2 1_555 1_555
C12_2 C7_2 1_555 1_555
H10_2 C12_2 1_555 1_555
C13_2 C10_2 1_555 1_555
C14_2 C13_2 1_555 1_555
C15_2 C14_2 1_555 1_555
C16_2 C15_2 1_555 1_555
H11_2 C16_2 1_555 1_555
C17_2 C16_2 1_555 1_555
N1_2 C17_2 1_555 1_555
C18_2 N1_2 1_555 1_555
H13_2 C18_2 1_555 1_555
C19_2 C15_2 1_555 1_555
H14_2 C19_2 1_555 1_555
C20_2 C5_2 1_555 1_555
C21_2 C20_2 1_555 1_555
H15_2 C21_2 1_555 1_555
C25_2 C20_2 1_555 1_555
H18_2 C25_2 1_555 1_555
O1_2 Cu4 1_555 1_555
C11_2 C12_2 1_555 1_555
C18_2 C19_2 1_555 1_555
H16_3 C22_3 1_555 1_555
C23_3 C22_3 1_555 1_555
C24_3 C23_3 1_555 1_555
H17_3 C24_3 1_555 1_555
C26_3 C27_3 1_555 1_555
C27_3 C23_3 1_555 1_555
C28_3 C26_3 1_555 1_555
C29_3 C28_3 1_555 1_555
H19_3 C29_3 1_555 1_555
C30_3 C29_3 1_555 1_555
H20_3 C30_3 1_555 1_555
N2_2 C30_3 1_555 1_555
C31_3 N2_2 1_555 1_555
C32_3 C28_3 1_555 1_555
H22_3 C32_3 1_555 1_555
Cu3_2 N2_2 1_555 1_555
C31_3 C32_3 1_555 1_555
Cu2_3 N1_3 1_555 1_555
C1_3 C2_3 1_555 1_555
C2_3 H1_3 1_555 1_555
H2_3 C2_3 1_555 1_555
C3_3 C1_3 1_555 1_555
H4_3 C3_3 1_555 1_555
C4_5 C1_3 1_555 1_555
H5_3 C4_5 1_555 1_555
C5_3 C2_3 1_555 1_555
C6_5 C5_3 1_555 1_555
H6_3 C6_5 1_555 1_555
C7_3 C1_3 1_555 1_555
C8_3 C7_3 1_555 1_555
H7_3 C8_3 1_555 1_555
C9_3 C8_3 1_555 1_555
H8_3 C9_3 1_555 1_555
C10_3 C9_3 1_555 1_555
C11_3 C10_3 1_555 1_555
H9_3 C11_3 1_555 1_555
C12_3 C7_3 1_555 1_555
H10_3 C12_3 1_555 1_555
C13_3 C10_3 1_555 1_555
C14_3 C13_3 1_555 1_555
C15_3 C14_3 1_555 1_555
C16_3 C15_3 1_555 1_555
H11_3 C16_3 1_555 1_555
C17_3 C16_3 1_555 1_555
N1_3 C17_3 1_555 1_555
C18_3 N1_3 1_555 1_555
H13_3 C18_3 1_555 1_555
C19_3 C15_3 1_555 1_555
H14_3 C19_3 1_555 1_555
C20_3 C5_3 1_555 1_555
C21_3 C20_3 1_555 1_555
H15_3 C21_3 1_555 1_555
C25_3 C20_3 1_555 1_555
H18_3 C25_3 1_555 1_555
O1_3 Cu2_3 1_555 1_555
N6_2 Cu2_3 1_555 1_555
C11_3 C12_3 1_555 1_555
C18_3 C19_3 1_555 1_555
Cu3_2 N1_4 1_555 1_555
C1_4 C2_4 1_555 1_555
C2_4 H1_4 1_555 1_555
H2_4 C2_4 1_555 1_555
C3_4 C1_4 1_555 1_555
H4_4 C3_4 1_555 1_555
C4_6 C1_4 1_555 1_555
H5_4 C4_6 1_555 1_555
C5_4 C2_4 1_555 1_555
C6_6 C5_4 1_555 1_555
H6_4 C6_6 1_555 1_555
C7_4 C1_4 1_555 1_555
C8_4 C7_4 1_555 1_555
H7_4 C8_4 1_555 1_555
C9_4 C8_4 1_555 1_555
H8_4 C9_4 1_555 1_555
C10_4 C9_4 1_555 1_555
C11_4 C10_4 1_555 1_555
H9_4 C11_4 1_555 1_555
C12_4 C7_4 1_555 1_555
H10_4 C12_4 1_555 1_555
C13_4 C10_4 1_555 1_555
C14_4 C13_4 1_555 1_555
C15_4 C14_4 1_555 1_555
C16_4 C15_4 1_555 1_555
H11_4 C16_4 1_555 1_555
C17_4 C16_4 1_555 1_555
N1_4 C17_4 1_555 1_555
C18_4 N1_4 1_555 1_555
H13_4 C18_4 1_555 1_555
C19_4 C15_4 1_555 1_555
H14_4 C19_4 1_555 1_555
C20_4 C5_4 1_555 1_555
C21_4 C20_4 1_555 1_555
H15_4 C21_4 1_555 1_555
C22_4 C21_4 1_555 1_555
H16_4 C22_4 1_555 1_555
C23_4 C22_4 1_555 1_555
C24_4 C23_4 1_555 1_555
H17_4 C24_4 1_555 1_555
C25_4 C20_4 1_555 1_555
H18_4 C25_4 1_555 1_555
C26_4 C27_4 1_555 1_555
C27_4 C23_4 1_555 1_555
C28_4 C26_4 1_555 1_555
C29_4 C28_4 1_555 1_555
H19_4 C29_4 1_555 1_555
C30_4 C29_4 1_555 1_555
H20_4 C30_4 1_555 1_555
N6_2 C30_4 1_555 1_555
C31_4 N6_2 1_555 1_555
C32_4 C28_4 1_555 1_555
H22_4 C32_4 1_555 1_555
O1_4 Cu3_2 1_555 1_555
C11_4 C12_4 1_555 1_555
C18_4 C19_4 1_555 1_555
C24_4 C25_4 1_555 1_555
C31_4 C32_4 1_555 1_555
C33_3 C4_7 1_555 1_555
C34_3 C33_3 1_555 1_555
H23_3 C34_3 1_555 1_555
H24_3 C34_3 1_555 1_555
H26_3 C35_3 1_555 1_555
H27_3 C4_7 1_555 1_555
H28_3 C6_7 1_555 1_555
C37_3 C33_3 1_555 1_555
C38_3 C37_3 1_555 1_555
H29_3 C38_3 1_555 1_555
C39_3 C38_3 1_555 1_555
H30_3 C39_3 1_555 1_555
C40_3 C39_3 1_555 1_555
C41_3 C40_3 1_555 1_555
H31_3 C41_3 1_555 1_555
C42_3 C37_3 1_555 1_555
H32_3 C42_3 1_555 1_555
C43_3 C40_3 1_555 1_555
C44_3 C43_3 1_555 1_555
C45_3 C44_3 1_555 1_555
C46_3 C45_3 1_555 1_555
H33_3 C46_3 1_555 1_555
C47_3 C46_3 1_555 1_555
N3_2 C47_3 1_555 1_555
C48_3 N3_2 1_555 1_555
H35_3 C48_3 1_555 1_555
C49_3 C45_3 1_555 1_555
H36_3 C49_3 1_555 1_555
C50_3 C36_3 1_555 1_555
C51_3 C50_3 1_555 1_555
H37_3 C51_3 1_555 1_555
C52_3 C51_3 1_555 1_555
H38_3 C52_3 1_555 1_555
C53_3 C52_3 1_555 1_555
C54_3 C53_3 1_555 1_555
H39_3 C54_3 1_555 1_555
C55_3 C50_3 1_555 1_555
H40_3 C55_3 1_555 1_555
C56_3 C57_3 1_555 1_555
C57_3 C53_3 1_555 1_555
C58_3 C56_3 1_555 1_555
C59_3 C58_3 1_555 1_555
H41_3 C59_3 1_555 1_555
C60_3 C59_3 1_555 1_555
H42_3 C60_3 1_555 1_555
N4_3 C60_3 1_555 1_555
C61_3 N4_3 1_555 1_555
C62_3 C58_3 1_555 1_555
H44_3 C62_3 1_555 1_555
Cu2_4 N4_3 1_555 1_555
Cu4_2 N3_2 1_555 1_555
C6_7 C36_3 1_555 1_555
C33_3 C35_3 1_555 1_555
C34_3 C36_3 1_555 1_555
C41_3 C42_3 1_555 1_555
C48_3 C49_3 1_555 1_555
C54_3 C55_3 1_555 1_555
C61_3 C62_3 1_555 1_555
O2_3 Cu2_4 1_555 1_555
N5_2 Cu2_4 1_555 1_555
H38_4 C52_4 1_555 1_555
C53_4 C52_4 1_555 1_555
C54_4 C53_4 1_555 1_555
H39_4 C54_4 1_555 1_555
C56_4 C57_4 1_555 1_555
C57_4 C53_4 1_555 1_555
C58_4 C56_4 1_555 1_555
C59_4 C58_4 1_555 1_555
H41_4 C59_4 1_555 1_555
C60_4 C59_4 1_555 1_555
H42_4 C60_4 1_555 1_555
N4_4 C60_4 1_555 1_555
C61_4 N4_4 1_555 1_555
C62_4 C58_4 1_555 1_555
H44_4 C62_4 1_555 1_555
Cu4_2 N4_4 1_555 1_555
C61_4 C62_4 1_555 1_555
C33_4 C4_8 1_555 1_555
C34_4 C33_4 1_555 1_555
H23_4 C34_4 1_555 1_555
H24_4 C34_4 1_555 1_555
H26_4 C35_4 1_555 1_555
H27_4 C4_8 1_555 1_555
H28_4 C6_8 1_555 1_555
C37_4 C33_4 1_555 1_555
C38_4 C37_4 1_555 1_555
H29_4 C38_4 1_555 1_555
C39_4 C38_4 1_555 1_555
H30_4 C39_4 1_555 1_555
C40_4 C39_4 1_555 1_555
C41_4 C40_4 1_555 1_555
H31_4 C41_4 1_555 1_555
C42_4 C37_4 1_555 1_555
H32_4 C42_4 1_555 1_555
C43_4 C40_4 1_555 1_555
C44_4 C43_4 1_555 1_555
C45_4 C44_4 1_555 1_555
C46_4 C45_4 1_555 1_555
H33_4 C46_4 1_555 1_555
C47_4 C46_4 1_555 1_555
N5_2 C47_4 1_555 1_555
C48_4 N5_2 1_555 1_555
H35_4 C48_4 1_555 1_555
C49_4 C45_4 1_555 1_555
H36_4 C49_4 1_555 1_555
C50_4 C36_4 1_555 1_555
C51_4 C50_4 1_555 1_555
H37_4 C51_4 1_555 1_555
C55_4 C50_4 1_555 1_555
H40_4 C55_4 1_555 1_555
C6_8 C36_4 1_555 1_555
C33_4 C35_4 1_555 1_555
C34_4 C36_4 1_555 1_555
C41_4 C42_4 1_555 1_555
C48_4 C49_4 1_555 1_555
O2_4 Cu4_2 1_555 1_555
Cu1 N1_5 1_555 1_555
C1_5 C2_5 1_555 1_555
C2_5 H1_5 1_555 1_555
H2_5 C2_5 1_555 1_555
C3_5 C1_5 1_555 1_555
H4_5 C3_5 1_555 1_555
C4_9 C1_5 1_555 1_555
H5_5 C4_9 1_555 1_555
C5_5 C2_5 1_555 1_555
C6_9 C5_5 1_555 1_555
H6_5 C6_9 1_555 1_555
C7_5 C1_5 1_555 1_555
C8_5 C7_5 1_555 1_555
H7_5 C8_5 1_555 1_555
C9_5 C8_5 1_555 1_555
H8_5 C9_5 1_555 1_555
C10_5 C9_5 1_555 1_555
C11_5 C10_5 1_555 1_555
H9_5 C11_5 1_555 1_555
C12_5 C7_5 1_555 1_555
H10_5 C12_5 1_555 1_555
C13_5 C10_5 1_555 1_555
C14_5 C13_5 1_555 1_555
C15_5 C14_5 1_555 1_555
C16_5 C15_5 1_555 1_555
H11_5 C16_5 1_555 1_555
C17_5 C16_5 1_555 1_555
H12_5 C17_5 1_555 1_555
N1_5 C17_5 1_555 1_555
C18_5 N1_5 1_555 1_555
H13_5 C18_5 1_555 1_555
C19_5 C15_5 1_555 1_555
H14_5 C19_5 1_555 1_555
C20_5 C5_5 1_555 1_555
C21_5 C20_5 1_555 1_555
H15_5 C21_5 1_555 1_555
C25_5 C20_5 1_555 1_555
H18_5 C25_5 1_555 1_555
O1_5 Cu1 1_555 1_555
O2_5 Cu1 1_555 1_555
N5_3 Cu1 1_555 1_555
N6_3 Cu1 1_555 1_555
N7 Cu1 1_555 1_555
C11_5 C12_5 1_555 1_555
C18_5 C19_5 1_555 1_555
H38_5 C52_5 1_555 1_555
C53_5 C52_5 1_555 1_555
C54_5 C53_5 1_555 1_555
H39_5 C54_5 1_555 1_555
C56_5 C57_5 1_555 1_555
C57_5 C53_5 1_555 1_555
C58_5 C56_5 1_555 1_555
C59_5 C58_5 1_555 1_555
H41_5 C59_5 1_555 1_555
C60_5 C59_5 1_555 1_555
H42_5 C60_5 1_555 1_555
N7 C60_5 1_555 1_555
C61_5 N7 1_555 1_555
H43_5 C61_5 1_555 1_555
C62_5 C58_5 1_555 1_555
H44_5 C62_5 1_555 1_555
C61_5 C62_5 1_555 1_555
C33_5 C4_10 1_555 1_555
C34_5 C33_5 1_555 1_555
H23_5 C34_5 1_555 1_555
H24_5 C34_5 1_555 1_555
H26_5 C35_5 1_555 1_555
H27_5 C4_10 1_555 1_555
H28_5 C6_10 1_555 1_555
C37_5 C33_5 1_555 1_555
C38_5 C37_5 1_555 1_555
H29_5 C38_5 1_555 1_555
C39_5 C38_5 1_555 1_555
H30_5 C39_5 1_555 1_555
C40_5 C39_5 1_555 1_555
C41_5 C40_5 1_555 1_555
H31_5 C41_5 1_555 1_555
C42_5 C37_5 1_555 1_555
H32_5 C42_5 1_555 1_555
C43_5 C40_5 1_555 1_555
C44_5 C43_5 1_555 1_555
C45_5 C44_5 1_555 1_555
C46_5 C45_5 1_555 1_555
H33_5 C46_5 1_555 1_555
C47_5 C46_5 1_555 1_555
H34_5 C47_5 1_555 1_555
N5_3 C47_5 1_555 1_555
C48_5 N5_3 1_555 1_555
H35_5 C48_5 1_555 1_555
C49_5 C45_5 1_555 1_555
H36_5 C49_5 1_555 1_555
C50_5 C36_5 1_555 1_555
C51_5 C50_5 1_555 1_555
H37_5 C51_5 1_555 1_555
C55_5 C50_5 1_555 1_555
H40_5 C55_5 1_555 1_555
C6_10 C36_5 1_555 1_555
C33_5 C35_5 1_555 1_555
C34_5 C36_5 1_555 1_555
C41_5 C42_5 1_555 1_555
C48_5 C49_5 1_555 1_555
H16_5 C22_5 1_555 1_555
C23_5 C22_5 1_555 1_555
C24_5 C23_5 1_555 1_555
H17_5 C24_5 1_555 1_555
C26_5 C27_5 1_555 1_555
C27_5 C23_5 1_555 1_555
C28_5 C26_5 1_555 1_555
C29_5 C28_5 1_555 1_555
H19_5 C29_5 1_555 1_555
C30_5 C29_5 1_555 1_555
H20_5 C30_5 1_555 1_555
N6_3 C30_5 1_555 1_555
C31_5 N6_3 1_555 1_555
H21_5 C31_5 1_555 1_555
C32_5 C28_5 1_555 1_555
H22_5 C32_5 1_555 1_555
C31_5 C32_5 1_555 1_555
C33_6 C4_11 1_555 1_555
C34_6 C33_6 1_555 1_555
H23_6 C34_6 1_555 1_555
H24_6 C34_6 1_555 1_555
H26_6 C35_6 1_555 1_555
H27_6 C4_11 1_555 1_555
H28_6 C6_11 1_555 1_555
C37_6 C33_6 1_555 1_555
C38_6 C37_6 1_555 1_555
H29_6 C38_6 1_555 1_555
C39_6 C38_6 1_555 1_555
H30_6 C39_6 1_555 1_555
C40_6 C39_6 1_555 1_555
C41_6 C40_6 1_555 1_555
H31_6 C41_6 1_555 1_555
C42_6 C37_6 1_555 1_555
H32_6 C42_6 1_555 1_555
C43_6 C40_6 1_555 1_555
C44_6 C43_6 1_555 1_555
C45_6 C44_6 1_555 1_555
C46_6 C45_6 1_555 1_555
H33_6 C46_6 1_555 1_555
C47_6 C46_6 1_555 1_555
H34_6 C47_6 1_555 1_555
N3_3 C47_6 1_555 1_555
C48_6 N3_3 1_555 1_555
H35_6 C48_6 1_555 1_555
C49_6 C45_6 1_555 1_555
H36_6 C49_6 1_555 1_555
C50_6 C36_6 1_555 1_555
C51_6 C50_6 1_555 1_555
H37_6 C51_6 1_555 1_555
C55_6 C50_6 1_555 1_555
H40_6 C55_6 1_555 1_555
Cu4_3 N3_3 1_555 1_555
C6_11 C36_6 1_555 1_555
C33_6 C35_6 1_555 1_555
C34_6 C36_6 1_555 1_555
C41_6 C42_6 1_555 1_555
C48_6 C49_6 1_555 1_555
H16_6 C22_6 1_555 1_555
C23_6 C22_6 1_555 1_555
C24_6 C23_6 1_555 1_555
H17_6 C24_6 1_555 1_555
C26_6 C27_6 1_555 1_555
C27_6 C23_6 1_555 1_555
C28_6 C26_6 1_555 1_555
C29_6 C28_6 1_555 1_555
H19_6 C29_6 1_555 1_555
C30_6 C29_6 1_555 1_555
H20_6 C30_6 1_555 1_555
N2_3 C30_6 1_555 1_555
C31_6 N2_3 1_555 1_555
H21_6 C31_6 1_555 1_555
C32_6 C28_6 1_555 1_555
H22_6 C32_6 1_555 1_555
Cu4_3 N2_3 1_555 1_555
C31_6 C32_6 1_555 1_555
Cu4_3 N1_6 1_555 1_555
C1_6 C2_6 1_555 1_555
C2_6 H1_6 1_555 1_555
H2_6 C2_6 1_555 1_555
C3_6 C1_6 1_555 1_555
H4_6 C3_6 1_555 1_555
C4_12 C1_6 1_555 1_555
H5_6 C4_12 1_555 1_555
C5_6 C2_6 1_555 1_555
C6_12 C5_6 1_555 1_555
H6_6 C6_12 1_555 1_555
C7_6 C1_6 1_555 1_555
C8_6 C7_6 1_555 1_555
H7_6 C8_6 1_555 1_555
C9_6 C8_6 1_555 1_555
H8_6 C9_6 1_555 1_555
C10_6 C9_6 1_555 1_555
C11_6 C10_6 1_555 1_555
H9_6 C11_6 1_555 1_555
C12_6 C7_6 1_555 1_555
H10_6 C12_6 1_555 1_555
C13_6 C10_6 1_555 1_555
C14_6 C13_6 1_555 1_555
C15_6 C14_6 1_555 1_555
C16_6 C15_6 1_555 1_555
H11_6 C16_6 1_555 1_555
C17_6 C16_6 1_555 1_555
H12_6 C17_6 1_555 1_555
N1_6 C17_6 1_555 1_555
C18_6 N1_6 1_555 1_555
H13_6 C18_6 1_555 1_555
C19_6 C15_6 1_555 1_555
H14_6 C19_6 1_555 1_555
C20_6 C5_6 1_555 1_555
C21_6 C20_6 1_555 1_555
H15_6 C21_6 1_555 1_555
C25_6 C20_6 1_555 1_555
H18_6 C25_6 1_555 1_555
O1_6 Cu4_3 1_555 1_555
O2_6 Cu4_3 1_555 1_555
N7_2 Cu4_3 1_555 1_555
C11_6 C12_6 1_555 1_555
C18_6 C19_6 1_555 1_555
H38_6 C52_6 1_555 1_555
C53_6 C52_6 1_555 1_555
C54_6 C53_6 1_555 1_555
H39_6 C54_6 1_555 1_555
C56_6 C57_6 1_555 1_555
C57_6 C53_6 1_555 1_555
C58_6 C56_6 1_555 1_555
C59_6 C58_6 1_555 1_555
H41_6 C59_6 1_555 1_555
C60_6 C59_6 1_555 1_555
H42_6 C60_6 1_555 1_555
N7_2 C60_6 1_555 1_555
C61_6 N7_2 1_555 1_555
H43_6 C61_6 1_555 1_555
C62_6 C58_6 1_555 1_555
H44_6 C62_6 1_555 1_555
C61_6 C62_6 1_555 1_555

#END
