
###############################################################################
#
# This file contains modified crystal structure data generated from the
# MOF subset of the Cambridge Structural Database (CSD) v543 
# hosted by the Cambridge Crystallographic Data Centre (CCDC).
#
# This work is licensed under the Creative Commons
# Attribution-NonCommercial-ShareAlike 4.0 International License.
# To view a copy of this license, visit
# http://creativecommons.org/licenses/by-nc-sa/4.0/
# or send a letter to
# Creative Commons, PO Box 1866, Mountain View, CA 94042, USA.
#
# CIF created using the CSD Python API on 29 September 2022
# The structure has been converted into the P1 space group
# The structure has a 3D framework
# The original CSD entry XUKMEY is in the hexagonal crystal system
# The original CSD entry XUKMEY is in a Sohncke space group
# The framework has been calculated to contain at least 10.0% void space
# The void calculation uses a probe of radius 1.32A, grid spacing 0.4
# The framework is charged, counterions have been retained in the structure
# H atom positions have been added when not included in the experimental data
# Generated hydrogen atom positions removed from atoms on special positions
#
###############################################################################

data_XUKMEY
_chemical_formula_moiety         '(C372 H312 Cu16 N24 O12 32+)n'
_symmetry_cell_setting           triclinic
_symmetry_space_group_name_H-M   'P 1'
_symmetry_Int_Tables_number      1
_space_group_name_Hall           'P 1'
loop_
_symmetry_equiv_pos_site_id
_symmetry_equiv_pos_as_xyz
1 x,y,z
_cell_length_a                   26.140(4)
_cell_length_b                   26.140(4)
_cell_length_c                   18.090(4)
_cell_angle_alpha                90
_cell_angle_beta                 90
_cell_angle_gamma                120
_cell_volume                     10704.8
loop_
_atom_site_label
_atom_site_type_symbol
_atom_site_fract_x
_atom_site_fract_y
_atom_site_fract_z
Cu3 Cu 0.33161(4) -0.000000 0.000000
H23 H 0.251607 0.029838 0.913450
Cu3_2 Cu 0.33161(4) -0.000000 1.000000
Cu3_3 Cu 0.33161(4) 1.000000 0.000000
H22 H 0.004737 0.356151 0.155792
N3 N 0.2569(4) 0.9590(3) 0.9412(3)
C33 C 0.2344(4) 0.9885(3) 0.9060(3)
C34 C 0.2321(6) 0.9018(4) 0.9288(4)
C35 C 0.1867(5) 0.9597(4) 0.8590(3)
H24 H 0.247787 0.880408 0.953135
C36 C 0.1841(6) 0.8714(4) 0.8814(4)
C37 C 0.1617(5) 0.9014(4) 0.8441(3)
H25 H 0.170785 0.981571 0.836480
H26 H 0.166866 0.829894 0.875129
C38 C 0.1162(6) 0.8707(4) 0.7937(4)
C39 C 0.0788(6) 0.8421(4) 0.7475(4)
C40 C 0.0315(6) 0.8074(4) 0.6968(3)
C41 C 0.0109(4) 0.8363(3) 0.6484(3)
C42 C 0.0063(5) 0.7487(4) 0.6935(3)
H27 H 0.027485 0.877920 0.650132
H28 H 0.020264 0.729458 0.725347
Cu3_4 Cu 0.33161(4) 1.000000 1.000000
Cu4 Cu -0.000000 0.331610(40) 0.000000
Cu4_2 Cu -0.000000 0.331610(40) 1.000000
Cu1 Cu 0.66839(4) 0.000000 0.000000
H1 H 0.778231 0.029838 0.086550
O1 O 0.71716(11) 0.10368(12) 0.08977(14)
Cu1_2 Cu 0.66839(4) -0.000000 1.000000
N5 N 0.7431(4) 0.0410(3) 0.9412(3)
N7 N 0.6300(9) 0.0310(3) 0.9301(3)
H43 H 0.462203 0.381726 0.004641
Cu2 Cu 0.331610(40) 0.33161(4) 0.000000
Cu1_3 Cu 0.66839(4) 1.000000 0.000000
N1 N 0.7021(3) 0.9590(3) 0.0588(3)
N2 N 0.9690(3) 0.3700(9) 0.0699(3)
C1 C 0.7541(3) 0.9885(3) 0.0940(3)
C2 C 0.6697(4) 0.9018(4) 0.0712(4)
C3 C 0.7730(3) 0.9597(4) 0.1410(3)
H2 H 0.632621 0.880408 0.046865
C4 C 0.6873(4) 0.8714(4) 0.1186(4)
C5 C 0.7397(3) 0.9014(4) 0.1559(3)
H3 H 0.810786 0.981571 0.163520
H4 H 0.663028 0.829894 0.124871
C6 C 0.7545(4) 0.8707(4) 0.2063(4)
C7 C 0.7633(4) 0.8421(4) 0.2525(4)
C8 C 0.7759(4) 0.8074(4) 0.3032(3)
C9 C 0.8254(3) 0.8363(3) 0.3516(3)
C10 C 0.7424(3) 0.7487(4) 0.3065(3)
C11 C 0.8361(3) 0.8034(3) 0.3998(3)
H5 H 0.850435 0.877920 0.349868
C12 C 0.7541(3) 0.7158(3) 0.3533(3)
H6 H 0.709194 0.729458 0.274653
C13 C 0.8021(3) 0.7425(3) 0.4033(3)
H7 H 0.868517 0.822974 0.432803
H8 H 0.729793 0.674033 0.352715
C14 C 0.8167(2) 0.7040(2) 0.4529(3)
C15 C 0.8296(2) 0.6639(2) 0.4034(3)
C16 C 0.86987(17) 0.7397(3) 0.500000
C17 C 0.7644(2) 0.6649(2) 0.5039(3)
H9 H 0.794349 0.638509 0.373029
H10 H 0.862553 0.688669 0.369416
C18 C 0.8458(3) 0.6253(3) 0.4486(3)
H11 H 0.903502 0.765565 0.467537
H12 H 0.728865 0.639934 0.473666
H13 H 0.755649 0.690028 0.536298
C19 C 0.79412(18) 0.5882(4) 0.500000
C20 C 0.8579(5) 0.5838(4) 0.3997(4)
H14 H 0.803598 0.562451 0.530150
C21 C 0.8603(4) 0.5913(4) 0.3221(3)
C22 C 0.8670(5) 0.5434(4) 0.4312(4)
H15 H 0.852333 0.619714 0.300428
C23 C 0.8741(4) 0.5571(4) 0.2787(4)
C24 C 0.8803(6) 0.5079(4) 0.3883(5)
H16 H 0.864353 0.538836 0.483359
H17 H 0.876995 0.563123 0.226701
C25 C 0.8840(4) 0.5137(3) 0.3084(3)
H18 H 0.887150 0.479211 0.411495
C26 C 0.8972(4) 0.4787(3) 0.2607(5)
C27 C 0.9105(4) 0.4530(4) 0.2170(4)
C28 C 0.9299(4) 0.4239(3) 0.1691(4)
C29 C 0.9159(4) 0.4198(3) 0.0954(5)
C30 C 0.9607(4) 0.3973(4) 0.1909(4)
H19 H 0.894400 0.437752 0.077482
C31 C 0.9332(4) 0.3887(3) 0.0450(4)
C32 C 0.9812(4) 0.3722(4) 0.1394(5)
H20 H 0.968379 0.395897 0.241991
C43 C 0.9673(4) 0.8034(3) 0.6002(3)
C44 C 0.9617(4) 0.7158(3) 0.6467(3)
C45 C 0.9404(4) 0.7425(3) 0.5967(3)
H29 H 0.954457 0.822974 0.567197
H30 H 0.944240 0.674033 0.647285
C46 C 0.8873(3) 0.7040(2) 0.5471(3)
C47 C 0.8343(3) 0.6639(2) 0.5966(3)
C48 C 0.9005(3) 0.6649(2) 0.4961(3)
H31 H 0.844160 0.638509 0.626971
H32 H 0.826116 0.688669 0.630584
C49 C 0.7795(4) 0.6253(3) 0.5514(3)
H33 H 0.862063 0.765565 0.532463
H34 H 0.911069 0.639934 0.526334
H35 H 0.934379 0.690028 0.463702
C50 C 0.7259(6) 0.5838(4) 0.6003(4)
H36 H 0.758853 0.562451 0.469850
C51 C 0.7310(6) 0.5913(4) 0.6779(3)
C52 C 0.6764(6) 0.5434(4) 0.5688(4)
H37 H 0.767381 0.619714 0.699572
C53 C 0.6830(6) 0.5571(4) 0.7213(4)
C54 C 0.6276(7) 0.5079(4) 0.6117(5)
H38 H 0.674483 0.538836 0.516641
H39 H 0.686128 0.563123 0.773299
C55 C 0.6297(5) 0.5137(3) 0.6916(3)
H40 H 0.592061 0.479211 0.588505
C56 C 0.5815(5) 0.4787(3) 0.7393(5)
C57 C 0.5425(6) 0.4530(4) 0.7830(4)
C58 C 0.4940(5) 0.4239(3) 0.8309(4)
C59 C 0.5039(5) 0.4198(3) 0.9046(5)
C60 C 0.4366(6) 0.3973(4) 0.8091(4)
H41 H 0.543352 0.437752 0.922518
C61 C 0.4555(5) 0.3887(3) 0.9550(4)
C62 C 0.3910(6) 0.3722(4) 0.8606(5)
H42 H 0.427518 0.395897 0.758009
H44 H 0.351414 0.356151 0.844208
N4 N 0.4010(9) 0.3700(9) 0.9301(3)
Cu2_2 Cu 0.331610(40) 0.33161(4) 1.000000
Cu4_3 Cu 1.000000 0.331610(40) 0.000000
N6 N 0.5990(9) 0.9690(3) 0.0699(3)
Cu1_4 Cu 0.66839(4) 1.000000 1.000000
H21 H 0.919523 0.381726 0.995359
O2 O 0.61348(16) 0.89632(12) 0.91023(14)
Cu4_4 Cu 1.000000 0.331610(40) 1.000000
H43_2 H 0.618274 0.080477 0.004641
N2_2 N 0.6300(9) 0.5990(9) 0.0699(3)
C11_2 C 0.1966(3) 0.0327(4) 0.3998(3)
C12_2 C 0.2842(3) 0.0383(4) 0.3533(3)
C13_2 C 0.2575(3) 0.0596(4) 0.4033(3)
H7_2 H 0.177026 0.045543 0.432803
H8_2 H 0.325967 0.055760 0.352715
C14_2 C 0.2960(2) 0.1127(3) 0.4529(3)
C15_2 C 0.3361(2) 0.1657(3) 0.4034(3)
C16_2 C 0.2603(3) 0.13017(34) 0.500000
C17_2 C 0.3351(2) 0.0995(3) 0.5039(3)
H9_2 H 0.361491 0.155840 0.373029
H10_2 H 0.311331 0.173884 0.369416
C18_2 C 0.3747(3) 0.2205(4) 0.4486(3)
H11_2 H 0.234435 0.137937 0.467537
H12_2 H 0.360066 0.088931 0.473666
H13_2 H 0.309972 0.065621 0.536298
C19_2 C 0.4118(4) 0.20592(44) 0.500000
C20_2 C 0.4162(4) 0.2741(6) 0.3997(4)
H14_2 H 0.437549 0.241147 0.530150
C21_2 C 0.4087(4) 0.2690(6) 0.3221(3)
C22_2 C 0.4566(4) 0.3236(6) 0.4312(4)
H15_2 H 0.380286 0.232619 0.300428
C23_2 C 0.4429(4) 0.3170(6) 0.2787(4)
C24_2 C 0.4921(4) 0.3724(7) 0.3883(5)
H16_2 H 0.461164 0.325517 0.483359
H17_2 H 0.436877 0.313872 0.226701
C25_2 C 0.4863(3) 0.3703(5) 0.3084(3)
H18_2 H 0.520789 0.407939 0.411495
C26_2 C 0.5213(3) 0.4185(5) 0.2607(5)
C27_2 C 0.5470(4) 0.4575(6) 0.2170(4)
C28_2 C 0.5761(3) 0.5060(5) 0.1691(4)
C29_2 C 0.5802(3) 0.4961(5) 0.0954(5)
C30_2 C 0.6027(4) 0.5634(6) 0.1909(4)
H19_2 H 0.562248 0.456648 0.077482
C31_2 C 0.6113(3) 0.5445(5) 0.0450(4)
C32_2 C 0.6278(4) 0.6090(6) 0.1394(5)
H20_2 H 0.604103 0.572482 0.241991
H22_2 H 0.643849 0.648586 0.155792
N3_2 N 0.0410(3) 0.2979(5) 0.9412(3)
C33_2 C 0.0115(3) 0.2459(5) 0.9060(3)
C34_2 C 0.0982(4) 0.3303(7) 0.9288(4)
C35_2 C 0.0403(4) 0.2270(6) 0.8590(3)
H24_2 H 0.119592 0.367379 0.953135
C36_2 C 0.1286(4) 0.3127(7) 0.8814(4)
C37_2 C 0.0986(4) 0.2603(6) 0.8441(3)
H25_2 H 0.018429 0.189214 0.836480
H26_2 H 0.170106 0.336972 0.875129
C38_2 C 0.1293(4) 0.2455(7) 0.7937(4)
C39_2 C 0.1579(4) 0.2367(7) 0.7475(4)
C40_2 C 0.1926(4) 0.2241(7) 0.6968(3)
C41_2 C 0.1637(3) 0.1746(5) 0.6484(3)
C42_2 C 0.2513(4) 0.2576(6) 0.6935(3)
C43_2 C 0.1966(3) 0.1639(5) 0.6002(3)
H27_2 H 0.122080 0.149565 0.650132
C44_2 C 0.2842(3) 0.2459(5) 0.6467(3)
H28_2 H 0.270542 0.290806 0.725347
C45_2 C 0.2575(3) 0.1979(5) 0.5967(3)
H29_2 H 0.177026 0.131483 0.567197
H30_2 H 0.325967 0.270207 0.647285
C46_2 C 0.2960(2) 0.1833(4) 0.5471(3)
C47_2 C 0.3361(2) 0.1704(4) 0.5966(3)
C48_2 C 0.3351(2) 0.2356(4) 0.4961(3)
H31_2 H 0.361491 0.205651 0.626971
H32_2 H 0.311331 0.137447 0.630584
C49_2 C 0.3747(3) 0.1542(5) 0.5514(3)
H33_2 H 0.234435 0.096498 0.532463
H34_2 H 0.360066 0.271135 0.526334
H35_2 H 0.309972 0.244351 0.463702
C50_2 C 0.4162(4) 0.1421(7) 0.6003(4)
H36_2 H 0.437549 0.196402 0.469850
C51_2 C 0.4087(4) 0.1397(7) 0.6779(3)
C52_2 C 0.4566(4) 0.1330(7) 0.5688(4)
H37_2 H 0.380286 0.147667 0.699572
C53_2 C 0.4429(4) 0.1259(7) 0.7213(4)
C54_2 C 0.4921(4) 0.1197(8) 0.6117(5)
H38_2 H 0.461164 0.135647 0.516641
H39_2 H 0.436877 0.123005 0.773299
C55_2 C 0.4863(3) 0.1160(6) 0.6916(3)
H40_2 H 0.520789 0.112850 0.588505
C56_2 C 0.5213(3) 0.1028(6) 0.7393(5)
C57_2 C 0.5470(4) 0.0895(7) 0.7830(4)
C58_2 C 0.5761(3) 0.0701(6) 0.8309(4)
C59_2 C 0.5802(3) 0.0841(6) 0.9046(5)
C60_2 C 0.6027(4) 0.0393(7) 0.8091(4)
H41_2 H 0.562248 0.105600 0.922518
C61_2 C 0.6113(3) 0.0668(6) 0.9550(4)
C62_2 C 0.6278(4) 0.0188(7) 0.8606(5)
H42_2 H 0.604103 0.031621 0.758009
Cu4_5 Cu 0.668390(40) 0.668390(40) 0.000000
H21_2 H 0.618274 0.537797 0.995359
Cu4_6 Cu 0.668390(40) 0.668390(40) 1.000000
Cu1_5 Cu 0.000000 0.668390(40) 0.000000
N1_2 N 0.0410(3) 0.7431(4) 0.0588(3)
C1_2 C 0.0115(3) 0.7656(4) 0.0940(3)
C2_2 C 0.0982(4) 0.7679(6) 0.0712(4)
C3_2 C 0.0403(4) 0.8133(5) 0.1410(3)
H2_2 H 0.119592 0.752213 0.046865
C4_2 C 0.1286(4) 0.8159(6) 0.1186(4)
C5_2 C 0.0986(4) 0.8383(5) 0.1559(3)
H3_2 H 0.018429 0.829215 0.163520
H4_2 H 0.170106 0.833134 0.124871
C6_2 C 0.1293(4) 0.8838(6) 0.2063(4)
C7_2 C 0.1579(4) 0.9212(6) 0.2525(4)
C8_2 C 0.1926(4) 0.9685(6) 0.3032(3)
C9_2 C 0.1637(3) 0.9891(4) 0.3516(3)
C10_2 C 0.2513(4) 0.9937(5) 0.3065(3)
H5_2 H 0.122080 0.972515 0.349868
H6_2 H 0.270542 0.979736 0.274653
H44_2 H 0.643849 0.995263 0.844208
N6_2 N 0.0310(3) 0.6300(9) 0.0699(3)
Cu1_6 Cu 0.000000 0.668390(40) 1.000000
O2_2 O 0.10368(12) 0.71716(20) 0.91023(14)
H23_2 H 0.970162 0.221769 0.913450
Cu1_7 Cu 1.000000 0.668390(40) 0.000000
H1_2 H 0.970162 0.748393 0.086550
O1_2 O 0.89632(12) 0.61348(16) 0.08977(14)
Cu1_8 Cu 1.000000 0.668390(40) 1.000000
N5_2 N 0.9590(3) 0.7021(5) 0.9412(3)
N7_2 N 0.9690(3) 0.5990(9) 0.9301(3)
N1_3 N 0.2569(4) 0.2979(3) 0.0588(3)
C1_3 C 0.2344(4) 0.2459(3) 0.0940(3)
C2_3 C 0.2321(6) 0.3303(4) 0.0712(4)
C3_3 C 0.1867(5) 0.2270(3) 0.1410(3)
H1_3 H 0.251607 0.221769 0.086550
H2_3 H 0.247787 0.367379 0.046865
C4_3 C 0.1841(6) 0.3127(4) 0.1186(4)
C5_3 C 0.1617(5) 0.2603(3) 0.1559(3)
H3_3 H 0.170785 0.189214 0.163520
H4_3 H 0.166866 0.336972 0.124871
C6_3 C 0.1162(6) 0.2455(4) 0.2063(4)
C7_3 C 0.0788(6) 0.2367(4) 0.2525(4)
C8_3 C 0.0315(6) 0.2241(4) 0.3032(3)
C9_3 C 0.0109(4) 0.1746(3) 0.3516(3)
C10_3 C 0.0063(5) 0.2576(3) 0.3065(3)
H5_3 H 0.027485 0.149565 0.349868
H6_3 H 0.020264 0.290806 0.274653
O1_3 O 0.38652(16) 0.28284(11) 0.08977(14)
H44_3 H 0.004737 0.648586 0.844208
N6_3 N 0.3700(9) 0.4010(9) 0.0699(3)
O2_3 O 0.28284(20) 0.38652(16) 0.91023(14)
N5_3 N 0.2979(5) 0.2569(4) 0.9412(3)
H43_3 H 0.919523 0.537797 0.004641
N2_3 N 0.4010(9) 0.0310(3) 0.0699(3)
C11_3 C 0.9673(4) 0.1639(3) 0.3998(3)
C12_3 C 0.9617(4) 0.2459(3) 0.3533(3)
C13_3 C 0.9404(4) 0.1979(3) 0.4033(3)
H7_3 H 0.954457 0.131483 0.432803
H8_3 H 0.944240 0.270207 0.352715
C14_3 C 0.8873(3) 0.1833(2) 0.4529(3)
C15_3 C 0.8343(3) 0.1704(2) 0.4034(3)
C16_3 C 0.86983(34) 0.13013(17) 0.500000
C17_3 C 0.9005(3) 0.2356(2) 0.5039(3)
H9_3 H 0.844160 0.205651 0.373029
H10_3 H 0.826116 0.137447 0.369416
C18_3 C 0.7795(4) 0.1542(3) 0.4486(3)
H11_3 H 0.862063 0.096498 0.467537
H12_3 H 0.911069 0.271135 0.473666
H13_3 H 0.934379 0.244351 0.536298
C19_3 C 0.79408(44) 0.20588(18) 0.500000
C20_3 C 0.7259(6) 0.1421(5) 0.3997(4)
H14_3 H 0.758853 0.196402 0.530150
C21_3 C 0.7310(6) 0.1397(4) 0.3221(3)
C22_3 C 0.6764(6) 0.1330(5) 0.4312(4)
H15_3 H 0.767381 0.147667 0.300428
C23_3 C 0.6830(6) 0.1259(4) 0.2787(4)
C24_3 C 0.6276(7) 0.1197(6) 0.3883(5)
H16_3 H 0.674483 0.135647 0.483359
H17_3 H 0.686128 0.123005 0.226701
C25_3 C 0.6297(5) 0.1160(4) 0.3084(3)
H18_3 H 0.592061 0.112850 0.411495
C26_3 C 0.5815(5) 0.1028(4) 0.2607(5)
C27_3 C 0.5425(6) 0.0895(4) 0.2170(4)
C28_3 C 0.4940(5) 0.0701(4) 0.1691(4)
C29_3 C 0.5039(5) 0.0841(4) 0.0954(5)
C30_3 C 0.4366(6) 0.0393(4) 0.1909(4)
H19_3 H 0.543352 0.105600 0.077482
C31_3 C 0.4555(5) 0.0668(4) 0.0450(4)
C32_3 C 0.3910(6) 0.0188(4) 0.1394(5)
H20_3 H 0.427518 0.031621 0.241991
C43_3 C 0.8361(5) 0.0327(4) 0.6002(3)
C44_3 C 0.7541(5) 0.0383(4) 0.6467(3)
C45_3 C 0.8021(5) 0.0596(4) 0.5967(3)
H29_3 H 0.868517 0.045543 0.567197
H30_3 H 0.729793 0.055760 0.647285
C46_3 C 0.8167(4) 0.1127(3) 0.5471(3)
C47_3 C 0.8296(4) 0.1657(3) 0.5966(3)
C48_3 C 0.7644(4) 0.0995(3) 0.4961(3)
H31_3 H 0.794349 0.155840 0.626971
H32_3 H 0.862553 0.173884 0.630584
C49_3 C 0.8458(5) 0.2205(4) 0.5514(3)
H33_3 H 0.903502 0.137937 0.532463
H34_3 H 0.728865 0.088931 0.526334
H35_3 H 0.755649 0.065621 0.463702
C50_3 C 0.8579(7) 0.2741(6) 0.6003(4)
H36_3 H 0.803598 0.241147 0.469850
C51_3 C 0.8603(7) 0.2690(6) 0.6779(3)
C52_3 C 0.8670(7) 0.3236(6) 0.5688(4)
H37_3 H 0.852333 0.232619 0.699572
C53_3 C 0.8741(7) 0.3170(6) 0.7213(4)
C54_3 C 0.8803(8) 0.3724(7) 0.6117(5)
H38_3 H 0.864353 0.325517 0.516641
H39_3 H 0.876995 0.313872 0.773299
C55_3 C 0.8840(6) 0.3703(5) 0.6916(3)
H40_3 H 0.887150 0.407939 0.588505
C56_3 C 0.8972(6) 0.4185(5) 0.7393(5)
C57_3 C 0.9105(7) 0.4575(6) 0.7830(4)
C58_3 C 0.9299(6) 0.5060(5) 0.8309(4)
C59_3 C 0.9159(6) 0.4961(5) 0.9046(5)
C60_3 C 0.9607(7) 0.5634(6) 0.8091(4)
H41_3 H 0.894400 0.456648 0.922518
C61_3 C 0.9332(6) 0.5445(5) 0.9550(4)
C62_3 C 0.9812(7) 0.6090(6) 0.8606(5)
H42_3 H 0.968379 0.572482 0.758009
H21_3 H 0.462203 0.080477 0.995359
H22_3 H 0.351414 0.995263 0.155792
N3_3 N 0.7021(5) 0.7431(4) 0.9412(3)
C33_3 C 0.7541(5) 0.7656(4) 0.9060(3)
C34_3 C 0.6697(7) 0.7679(6) 0.9288(4)
C35_3 C 0.7730(6) 0.8133(5) 0.8590(3)
H23_3 H 0.778231 0.748393 0.913450
H24_3 H 0.632621 0.752213 0.953135
C36_3 C 0.6873(7) 0.8159(6) 0.8814(4)
C37_3 C 0.7397(6) 0.8383(5) 0.8441(3)
H25_3 H 0.810786 0.829215 0.836480
H26_3 H 0.663028 0.833134 0.875129
C38_3 C 0.7545(7) 0.8838(6) 0.7937(4)
C39_3 C 0.7633(7) 0.9212(6) 0.7475(4)
C40_3 C 0.7759(7) 0.9685(6) 0.6968(3)
C41_3 C 0.8254(5) 0.9891(4) 0.6484(3)
C42_3 C 0.7424(6) 0.9937(5) 0.6935(3)
H27_3 H 0.850435 0.972515 0.650132
H28_3 H 0.709194 0.979736 0.725347
H43_4 H 0.537797 0.618274 0.004641
N1_4 N 0.2979(3) 0.0410(3) 0.0588(3)
C1_4 C 0.2459(3) 0.0115(3) 0.0940(3)
C2_4 C 0.3303(4) 0.0982(4) 0.0712(4)
C3_4 C 0.2270(3) 0.0403(4) 0.1410(3)
H2_4 H 0.367379 0.119592 0.046865
C4_4 C 0.3127(4) 0.1286(4) 0.1186(4)
C5_4 C 0.2603(3) 0.0986(4) 0.1559(3)
H3_4 H 0.189214 0.018429 0.163520
H4_4 H 0.336972 0.170106 0.124871
C6_4 C 0.2455(4) 0.1293(4) 0.2063(4)
C7_4 C 0.2367(4) 0.1579(4) 0.2525(4)
C8_4 C 0.2241(4) 0.1926(4) 0.3032(3)
C9_4 C 0.1746(3) 0.1637(3) 0.3516(3)
C10_4 C 0.2576(3) 0.2513(4) 0.3065(3)
C11_4 C 0.1639(3) 0.1966(3) 0.3998(3)
H5_4 H 0.149565 0.122080 0.349868
C12_4 C 0.2459(3) 0.2842(3) 0.3533(3)
H6_4 H 0.290806 0.270542 0.274653
C13_4 C 0.1979(3) 0.2575(3) 0.4033(3)
H7_4 H 0.131483 0.177026 0.432803
H8_4 H 0.270207 0.325967 0.352715
C14_4 C 0.1833(2) 0.2960(2) 0.4529(3)
C15_4 C 0.1704(2) 0.3361(2) 0.4034(3)
C16_4 C 0.13013(17) 0.2603(3) 0.500000
C17_4 C 0.2356(2) 0.3351(2) 0.5039(3)
H9_4 H 0.205651 0.361491 0.373029
H10_4 H 0.137447 0.311331 0.369416
C18_4 C 0.1542(3) 0.3747(3) 0.4486(3)
H11_4 H 0.096498 0.234435 0.467537
H12_4 H 0.271135 0.360066 0.473666
H13_4 H 0.244351 0.309972 0.536298
C19_4 C 0.20588(18) 0.4118(4) 0.500000
C20_4 C 0.1421(5) 0.4162(4) 0.3997(4)
H14_4 H 0.196402 0.437549 0.530150
C21_4 C 0.1397(4) 0.4087(4) 0.3221(3)
C22_4 C 0.1330(5) 0.4566(4) 0.4312(4)
H15_4 H 0.147667 0.380286 0.300428
C23_4 C 0.1259(4) 0.4429(4) 0.2787(4)
C24_4 C 0.1197(6) 0.4921(4) 0.3883(5)
H16_4 H 0.135647 0.461164 0.483359
H17_4 H 0.123005 0.436877 0.226701
C25_4 C 0.1160(4) 0.4863(3) 0.3084(3)
H18_4 H 0.112850 0.520789 0.411495
C26_4 C 0.1028(4) 0.5213(3) 0.2607(5)
C27_4 C 0.0895(4) 0.5470(4) 0.2170(4)
C28_4 C 0.0701(4) 0.5761(3) 0.1691(4)
C29_4 C 0.0841(4) 0.5802(3) 0.0954(5)
C30_4 C 0.0393(4) 0.6027(4) 0.1909(4)
H19_4 H 0.105600 0.562248 0.077482
C31_4 C 0.0668(4) 0.6113(3) 0.0450(4)
C32_4 C 0.0188(4) 0.6278(4) 0.1394(5)
H20_4 H 0.031621 0.604103 0.241991
C43_4 C 0.0327(4) 0.1966(3) 0.6002(3)
C44_4 C 0.0383(4) 0.2842(3) 0.6467(3)
C45_4 C 0.0596(4) 0.2575(3) 0.5967(3)
H29_4 H 0.045543 0.177026 0.567197
H30_4 H 0.055760 0.325967 0.647285
C46_4 C 0.1127(3) 0.2960(2) 0.5471(3)
C47_4 C 0.1657(3) 0.3361(2) 0.5966(3)
C48_4 C 0.0995(3) 0.3351(2) 0.4961(3)
H31_4 H 0.155840 0.361491 0.626971
H32_4 H 0.173884 0.311331 0.630584
C49_4 C 0.2205(4) 0.3747(3) 0.5514(3)
H33_4 H 0.137937 0.234435 0.532463
H34_4 H 0.088931 0.360066 0.526334
H35_4 H 0.065621 0.309972 0.463702
C50_4 C 0.2741(6) 0.4162(4) 0.6003(4)
H36_4 H 0.241147 0.437549 0.469850
C51_4 C 0.2690(6) 0.4087(4) 0.6779(3)
C52_4 C 0.3236(6) 0.4566(4) 0.5688(4)
H37_4 H 0.232619 0.380286 0.699572
C53_4 C 0.3170(6) 0.4429(4) 0.7213(4)
C54_4 C 0.3724(7) 0.4921(4) 0.6117(5)
H38_4 H 0.325517 0.461164 0.516641
H39_4 H 0.313872 0.436877 0.773299
C55_4 C 0.3703(5) 0.4863(3) 0.6916(3)
H40_4 H 0.407939 0.520789 0.588505
C56_4 C 0.4185(5) 0.5213(3) 0.7393(5)
C57_4 C 0.4575(6) 0.5470(4) 0.7830(4)
C58_4 C 0.5060(5) 0.5761(3) 0.8309(4)
C59_4 C 0.4961(5) 0.5802(3) 0.9046(5)
C60_4 C 0.5634(6) 0.6027(4) 0.8091(4)
H41_4 H 0.456648 0.562248 0.922518
C61_4 C 0.5445(5) 0.6113(3) 0.9550(4)
C62_4 C 0.6090(6) 0.6278(4) 0.8606(5)
H42_4 H 0.572482 0.604103 0.758009
H44_4 H 0.648586 0.643849 0.844208
N4_2 N 0.5990(9) 0.6300(9) 0.9301(3)
H21_4 H 0.080477 0.618274 0.995359
O2_4 O 0.38652(16) 0.10368(12) 0.91023(14)
H1_4 H 0.221769 0.970162 0.086550
O1_4 O 0.28284(11) 0.89632(12) 0.08977(14)
N7_3 N 0.3700(9) 0.9690(3) 0.9301(3)
H22_4 H 0.995263 0.643849 0.155792
C33_4 C 0.7656(4) 0.0115(3) 0.9060(3)
C34_4 C 0.7679(6) 0.0982(4) 0.9288(4)
C35_4 C 0.8133(5) 0.0403(4) 0.8590(3)
H24_4 H 0.752213 0.119592 0.953135
C36_4 C 0.8159(6) 0.1286(4) 0.8814(4)
C37_4 C 0.8383(5) 0.0986(4) 0.8441(3)
H25_4 H 0.829215 0.018429 0.836480
H26_4 H 0.833134 0.170106 0.875129
C38_4 C 0.8838(6) 0.1293(4) 0.7937(4)
C39_4 C 0.9212(6) 0.1579(4) 0.7475(4)
C40_4 C 0.9685(6) 0.1926(4) 0.6968(3)
C41_4 C 0.9891(4) 0.1637(3) 0.6484(3)
C42_4 C 0.9937(5) 0.2513(4) 0.6935(3)
H27_4 H 0.972515 0.122080 0.650132
H28_4 H 0.979736 0.270542 0.725347
H23_4 H 0.748393 0.970162 0.913450
H1_5 H 0.029838 0.251607 0.086550
O1_5 O 0.10368(12) 0.38652(16) 0.08977(14)
N7_4 N 0.0310(3) 0.4010(9) 0.9301(3)
H23_5 H 0.029838 0.778231 0.913450
N1_5 N 0.9590(3) 0.2569(4) 0.0588(3)
C1_5 C 0.9885(3) 0.2344(4) 0.0940(3)
C2_5 C 0.9018(4) 0.2321(6) 0.0712(4)
C3_5 C 0.9597(4) 0.1867(5) 0.1410(3)
H2_5 H 0.880408 0.247787 0.046865
C4_5 C 0.8714(4) 0.1841(6) 0.1186(4)
C5_5 C 0.9014(4) 0.1617(5) 0.1559(3)
H3_5 H 0.981571 0.170785 0.163520
H4_5 H 0.829894 0.166866 0.124871
C6_5 C 0.8707(4) 0.1162(6) 0.2063(4)
C7_5 C 0.8421(4) 0.0788(6) 0.2525(4)
C8_5 C 0.8074(4) 0.0315(6) 0.3032(3)
C9_5 C 0.8363(3) 0.0109(4) 0.3516(3)
C10_5 C 0.7487(4) 0.0063(5) 0.3065(3)
H5_5 H 0.877920 0.027485 0.349868
H6_5 H 0.729458 0.020264 0.274653
H44_5 H 0.356151 0.004737 0.844208
O2_5 O 0.89632(12) 0.28284(20) 0.91023(14)
H43_5 H 0.381726 0.919523 0.004641
C11_5 C 0.8034(3) 0.9673(4) 0.3998(3)
C12_5 C 0.7158(3) 0.9617(4) 0.3533(3)
C13_5 C 0.7425(3) 0.9404(4) 0.4033(3)
H7_5 H 0.822974 0.954457 0.432803
H8_5 H 0.674033 0.944240 0.352715
C14_5 C 0.7040(2) 0.8873(3) 0.4529(3)
C15_5 C 0.6639(2) 0.8343(3) 0.4034(3)
C16_5 C 0.7397(3) 0.86983(34) 0.500000
C17_5 C 0.6649(2) 0.9005(3) 0.5039(3)
H9_5 H 0.638509 0.844160 0.373029
H10_5 H 0.688669 0.826116 0.369416
C18_5 C 0.6253(3) 0.7795(4) 0.4486(3)
H11_5 H 0.765565 0.862063 0.467537
H12_5 H 0.639934 0.911069 0.473666
H13_5 H 0.690028 0.934379 0.536298
C19_5 C 0.5882(4) 0.79408(44) 0.500000
C20_5 C 0.5838(4) 0.7259(6) 0.3997(4)
H14_5 H 0.562451 0.758853 0.530150
C21_5 C 0.5913(4) 0.7310(6) 0.3221(3)
C22_5 C 0.5434(4) 0.6764(6) 0.4312(4)
H15_5 H 0.619714 0.767381 0.300428
C23_5 C 0.5571(4) 0.6830(6) 0.2787(4)
C24_5 C 0.5079(4) 0.6276(7) 0.3883(5)
H16_5 H 0.538836 0.674483 0.483359
H17_5 H 0.563123 0.686128 0.226701
C25_5 C 0.5137(3) 0.6297(5) 0.3084(3)
H18_5 H 0.479211 0.592061 0.411495
C26_5 C 0.4787(3) 0.5815(5) 0.2607(5)
C27_5 C 0.4530(4) 0.5425(6) 0.2170(4)
C28_5 C 0.4239(3) 0.4940(5) 0.1691(4)
C29_5 C 0.4198(3) 0.5039(5) 0.0954(5)
C30_5 C 0.3973(4) 0.4366(6) 0.1909(4)
H19_5 H 0.437752 0.543352 0.077482
C31_5 C 0.3887(3) 0.4555(5) 0.0450(4)
C32_5 C 0.3722(4) 0.3910(6) 0.1394(5)
H20_5 H 0.395897 0.427518 0.241991
H22_5 H 0.356151 0.351414 0.155792
C33_5 C 0.9885(3) 0.7541(5) 0.9060(3)
C34_5 C 0.9018(4) 0.6697(7) 0.9288(4)
C35_5 C 0.9597(4) 0.7730(6) 0.8590(3)
H24_5 H 0.880408 0.632621 0.953135
C36_5 C 0.8714(4) 0.6873(7) 0.8814(4)
C37_5 C 0.9014(4) 0.7397(6) 0.8441(3)
H25_5 H 0.981571 0.810786 0.836480
H26_5 H 0.829894 0.663028 0.875129
C38_5 C 0.8707(4) 0.7545(7) 0.7937(4)
C39_5 C 0.8421(4) 0.7633(7) 0.7475(4)
C40_5 C 0.8074(4) 0.7759(7) 0.6968(3)
C41_5 C 0.8363(3) 0.8254(5) 0.6484(3)
C42_5 C 0.7487(4) 0.7424(6) 0.6935(3)
C43_5 C 0.8034(3) 0.8361(5) 0.6002(3)
H27_5 H 0.877920 0.850435 0.650132
C44_5 C 0.7158(3) 0.7541(5) 0.6467(3)
H28_5 H 0.729458 0.709194 0.725347
C45_5 C 0.7425(3) 0.8021(5) 0.5967(3)
H29_5 H 0.822974 0.868517 0.567197
H30_5 H 0.674033 0.729793 0.647285
C46_5 C 0.7040(2) 0.8167(4) 0.5471(3)
C47_5 C 0.6639(2) 0.8296(4) 0.5966(3)
C48_5 C 0.6649(2) 0.7644(4) 0.4961(3)
H31_5 H 0.638509 0.794349 0.626971
H32_5 H 0.688669 0.862553 0.630584
C49_5 C 0.6253(3) 0.8458(5) 0.5514(3)
H33_5 H 0.765565 0.903502 0.532463
H34_5 H 0.639934 0.728865 0.526334
H35_5 H 0.690028 0.755649 0.463702
C50_5 C 0.5838(4) 0.8579(7) 0.6003(4)
H36_5 H 0.562451 0.803598 0.469850
C51_5 C 0.5913(4) 0.8603(7) 0.6779(3)
C52_5 C 0.5434(4) 0.8670(7) 0.5688(4)
H37_5 H 0.619714 0.852333 0.699572
C53_5 C 0.5571(4) 0.8741(7) 0.7213(4)
C54_5 C 0.5079(4) 0.8803(8) 0.6117(5)
H38_5 H 0.538836 0.864353 0.516641
H39_5 H 0.563123 0.876995 0.773299
C55_5 C 0.5137(3) 0.8840(6) 0.6916(3)
H40_5 H 0.479211 0.887150 0.588505
C56_5 C 0.4787(3) 0.8972(6) 0.7393(5)
C57_5 C 0.4530(4) 0.9105(7) 0.7830(4)
C58_5 C 0.4239(3) 0.9299(6) 0.8309(4)
C59_5 C 0.4198(3) 0.9159(6) 0.9046(5)
C60_5 C 0.3973(4) 0.9607(7) 0.8091(4)
H41_5 H 0.437752 0.894400 0.922518
C61_5 C 0.3887(3) 0.9332(6) 0.9550(4)
C62_5 C 0.3722(4) 0.9812(7) 0.8606(5)
H42_5 H 0.395897 0.968379 0.758009
H21_5 H 0.381726 0.462203 0.995359
H22_6 H 0.648586 0.004737 0.155792
C33_6 C 0.2459(5) 0.2344(4) 0.9060(3)
C34_6 C 0.3303(7) 0.2321(6) 0.9288(4)
C35_6 C 0.2270(6) 0.1867(5) 0.8590(3)
H23_6 H 0.221769 0.251607 0.913450
H24_6 H 0.367379 0.247787 0.953135
C36_6 C 0.3127(7) 0.1841(6) 0.8814(4)
C37_6 C 0.2603(6) 0.1617(5) 0.8441(3)
H25_6 H 0.189214 0.170785 0.836480
H26_6 H 0.336972 0.166866 0.875129
C38_6 C 0.2455(7) 0.1162(6) 0.7937(4)
C39_6 C 0.2367(7) 0.0788(6) 0.7475(4)
C40_6 C 0.2241(7) 0.0315(6) 0.6968(3)
C41_6 C 0.1746(5) 0.0109(4) 0.6484(3)
C42_6 C 0.2576(6) 0.0063(5) 0.6935(3)
H27_6 H 0.149565 0.027485 0.650132
H28_6 H 0.290806 0.020264 0.725347
H43_6 H 0.080477 0.462203 0.004641
C11_6 C 0.0327(4) 0.8361(3) 0.3998(3)
C12_6 C 0.0383(4) 0.7541(3) 0.3533(3)
C13_6 C 0.0596(4) 0.8021(3) 0.4033(3)
H7_6 H 0.045543 0.868517 0.432803
H8_6 H 0.055760 0.729793 0.352715
C14_6 C 0.1127(3) 0.8167(2) 0.4529(3)
C15_6 C 0.1657(3) 0.8296(2) 0.4034(3)
C16_6 C 0.13017(34) 0.86987(17) 0.500000
C17_6 C 0.0995(3) 0.7644(2) 0.5039(3)
H9_6 H 0.155840 0.794349 0.373029
H10_6 H 0.173884 0.862553 0.369416
C18_6 C 0.2205(4) 0.8458(3) 0.4486(3)
H11_6 H 0.137937 0.903502 0.467537
H12_6 H 0.088931 0.728865 0.473666
H13_6 H 0.065621 0.755649 0.536298
C19_6 C 0.20592(44) 0.79412(18) 0.500000
C20_6 C 0.2741(6) 0.8579(5) 0.3997(4)
H14_6 H 0.241147 0.803598 0.530150
C21_6 C 0.2690(6) 0.8603(4) 0.3221(3)
C22_6 C 0.3236(6) 0.8670(5) 0.4312(4)
H15_6 H 0.232619 0.852333 0.300428
C23_6 C 0.3170(6) 0.8741(4) 0.2787(4)
C24_6 C 0.3724(7) 0.8803(6) 0.3883(5)
H16_6 H 0.325517 0.864353 0.483359
H17_6 H 0.313872 0.876995 0.226701
C25_6 C 0.3703(5) 0.8840(4) 0.3084(3)
H18_6 H 0.407939 0.887150 0.411495
C26_6 C 0.4185(5) 0.8972(4) 0.2607(5)
C27_6 C 0.4575(6) 0.9105(4) 0.2170(4)
C28_6 C 0.5060(5) 0.9299(4) 0.1691(4)
C29_6 C 0.4961(5) 0.9159(4) 0.0954(5)
C30_6 C 0.5634(6) 0.9607(4) 0.1909(4)
H19_6 H 0.456648 0.894400 0.077482
C31_6 C 0.5445(5) 0.9332(4) 0.0450(4)
C32_6 C 0.6090(6) 0.9812(4) 0.1394(5)
H20_6 H 0.572482 0.968379 0.241991
C43_6 C 0.1639(5) 0.9673(4) 0.6002(3)
C44_6 C 0.2459(5) 0.9617(4) 0.6467(3)
C45_6 C 0.1979(5) 0.9404(4) 0.5967(3)
H29_6 H 0.131483 0.954457 0.567197
H30_6 H 0.270207 0.944240 0.647285
C46_6 C 0.1833(4) 0.8873(3) 0.5471(3)
C47_6 C 0.1704(4) 0.8343(3) 0.5966(3)
C48_6 C 0.2356(4) 0.9005(3) 0.4961(3)
H31_6 H 0.205651 0.844160 0.626971
H32_6 H 0.137447 0.826116 0.630584
C49_6 C 0.1542(5) 0.7795(4) 0.5514(3)
H33_6 H 0.096498 0.862063 0.532463
H34_6 H 0.271135 0.911069 0.526334
H35_6 H 0.244351 0.934379 0.463702
C50_6 C 0.1421(7) 0.7259(6) 0.6003(4)
H36_6 H 0.196402 0.758853 0.469850
C51_6 C 0.1397(7) 0.7310(6) 0.6779(3)
C52_6 C 0.1330(7) 0.6764(6) 0.5688(4)
H37_6 H 0.147667 0.767381 0.699572
C53_6 C 0.1259(7) 0.6830(6) 0.7213(4)
C54_6 C 0.1197(8) 0.6276(7) 0.6117(5)
H38_6 H 0.135647 0.674483 0.516641
H39_6 H 0.123005 0.686128 0.773299
C55_6 C 0.1160(6) 0.6297(5) 0.6916(3)
H40_6 H 0.112850 0.592061 0.588505
C56_6 C 0.1028(6) 0.5815(5) 0.7393(5)
C57_6 C 0.0895(7) 0.5425(6) 0.7830(4)
C58_6 C 0.0701(6) 0.4940(5) 0.8309(4)
C59_6 C 0.0841(6) 0.5039(5) 0.9046(5)
C60_6 C 0.0393(7) 0.4366(6) 0.8091(4)
H41_6 H 0.105600 0.543352 0.922518
C61_6 C 0.0668(6) 0.4555(5) 0.9550(4)
C62_6 C 0.0188(7) 0.3910(6) 0.8606(5)
H42_6 H 0.031621 0.427518 0.758009
H21_6 H 0.537797 0.919523 0.995359
N1_6 N 0.7431(4) 0.7021(3) 0.0588(3)
C1_6 C 0.7656(4) 0.7541(3) 0.0940(3)
C2_6 C 0.7679(6) 0.6697(4) 0.0712(4)
C3_6 C 0.8133(5) 0.7730(3) 0.1410(3)
H1_6 H 0.748393 0.778231 0.086550
H2_6 H 0.752213 0.632621 0.046865
C4_6 C 0.8159(6) 0.6873(4) 0.1186(4)
C5_6 C 0.8383(5) 0.7397(3) 0.1559(3)
H3_6 H 0.829215 0.810786 0.163520
H4_6 H 0.833134 0.663028 0.124871
C6_6 C 0.8838(6) 0.7545(4) 0.2063(4)
C7_6 C 0.9212(6) 0.7633(4) 0.2525(4)
C8_6 C 0.9685(6) 0.7759(4) 0.3032(3)
C9_6 C 0.9891(4) 0.8254(3) 0.3516(3)
C10_6 C 0.9937(5) 0.7424(3) 0.3065(3)
H5_6 H 0.972515 0.850435 0.349868
H6_6 H 0.979736 0.709194 0.274653
O1_6 O 0.61348(16) 0.71716(11) 0.08977(14)
H44_6 H 0.995263 0.351414 0.844208
O2_6 O 0.71716(20) 0.61348(16) 0.91023(14)
loop_
_geom_bond_atom_site_label_1
_geom_bond_atom_site_label_2
_geom_bond_site_symmetry_1
_geom_bond_site_symmetry_2
N3 C33 1_555 1_555
C33 C35 1_555 1_555
C34 N3 1_555 1_555
C35 C37 1_555 1_555
H24 C34 1_555 1_555
C36 C34 1_555 1_555
C37 C36 1_555 1_555
H25 C35 1_555 1_555
H26 C36 1_555 1_555
C38 C37 1_555 1_555
C39 C38 1_555 1_555
C40 C39 1_555 1_555
C41 C40 1_555 1_555
C42 C40 1_555 1_555
H27 C41 1_555 1_555
H28 C42 1_555 1_555
Cu3_4 N3 1_555 1_555
O1 Cu1 1_555 1_555
N5 Cu1_2 1_555 1_555
N7 Cu1_2 1_555 1_555
Cu1_3 N1 1_555 1_555
N1 C1 1_555 1_555
N2 C31 1_555 1_555
C1 C3 1_555 1_555
C2 N1 1_555 1_555
C3 C5 1_555 1_555
H2 C2 1_555 1_555
C4 C2 1_555 1_555
C5 C4 1_555 1_555
H3 C3 1_555 1_555
H4 C4 1_555 1_555
C6 C5 1_555 1_555
C7 C6 1_555 1_555
C8 C7 1_555 1_555
C9 C8 1_555 1_555
C10 C8 1_555 1_555
C11 C9 1_555 1_555
H5 C9 1_555 1_555
C12 C10 1_555 1_555
H6 C10 1_555 1_555
C13 C11 1_555 1_555
H7 C11 1_555 1_555
H8 C12 1_555 1_555
C14 C13 1_555 1_555
C15 C14 1_555 1_555
C16 C14 1_555 1_555
C17 C14 1_555 1_555
H9 C15 1_555 1_555
H10 C15 1_555 1_555
C18 C15 1_555 1_555
H11 C16 1_555 1_555
H12 C17 1_555 1_555
H13 C17 1_555 1_555
C19 C18 1_555 1_555
C20 C18 1_555 1_555
H14 C19 1_555 1_555
C21 C20 1_555 1_555
C22 C20 1_555 1_555
H15 C21 1_555 1_555
C23 C21 1_555 1_555
C24 C22 1_555 1_555
H16 C22 1_555 1_555
H17 C23 1_555 1_555
C25 C23 1_555 1_555
H18 C24 1_555 1_555
C26 C25 1_555 1_555
C27 C26 1_555 1_555
C28 C27 1_555 1_555
C29 C28 1_555 1_555
C30 C28 1_555 1_555
H19 C29 1_555 1_555
C31 C29 1_555 1_555
C32 N2 1_555 1_555
H20 C30 1_555 1_555
C45 C43 1_555 1_555
H29 C43 1_555 1_555
H30 C44 1_555 1_555
C46 C16 1_555 1_555
C47 C46 1_555 1_555
C48 C18 1_555 1_555
H31 C47 1_555 1_555
H32 C47 1_555 1_555
C49 C17 1_555 1_555
H33 C16 1_555 1_555
H34 C48 1_555 1_555
H35 C48 1_555 1_555
C50 C49 1_555 1_555
H36 C19 1_555 1_555
C51 C50 1_555 1_555
C52 C50 1_555 1_555
H37 C51 1_555 1_555
C53 C51 1_555 1_555
C54 C52 1_555 1_555
H38 C52 1_555 1_555
H39 C53 1_555 1_555
C55 C53 1_555 1_555
H40 C54 1_555 1_555
C56 C55 1_555 1_555
C57 C56 1_555 1_555
C58 C57 1_555 1_555
C59 C58 1_555 1_555
C60 C58 1_555 1_555
H41 C59 1_555 1_555
C61 C59 1_555 1_555
C62 C60 1_555 1_555
H42 C60 1_555 1_555
H44 C62 1_555 1_555
N4 C61 1_555 1_555
Cu2_2 N4 1_555 1_555
Cu4_3 N2 1_555 1_555
N6 Cu1_3 1_555 1_555
C12 C13 1_555 1_555
C19 C49 1_555 1_555
C24 C25 1_555 1_555
C30 C32 1_555 1_555
C44 C45 1_555 1_555
C45 C46 1_555 1_555
C46 C48 1_555 1_555
C47 C49 1_555 1_555
C54 C55 1_555 1_555
C62 N4 1_555 1_555
O2 Cu1_4 1_555 1_555
N2_2 C31_2 1_555 1_555
C13_2 C11_2 1_555 1_555
H7_2 C11_2 1_555 1_555
H8_2 C12_2 1_555 1_555
C14_2 C13_2 1_555 1_555
C15_2 C14_2 1_555 1_555
C16_2 C14_2 1_555 1_555
C17_2 C14_2 1_555 1_555
H9_2 C15_2 1_555 1_555
H10_2 C15_2 1_555 1_555
C18_2 C15_2 1_555 1_555
H11_2 C16_2 1_555 1_555
H12_2 C17_2 1_555 1_555
H13_2 C17_2 1_555 1_555
C19_2 C18_2 1_555 1_555
C20_2 C18_2 1_555 1_555
H14_2 C19_2 1_555 1_555
C21_2 C20_2 1_555 1_555
C22_2 C20_2 1_555 1_555
H15_2 C21_2 1_555 1_555
C23_2 C21_2 1_555 1_555
C24_2 C22_2 1_555 1_555
H16_2 C22_2 1_555 1_555
H17_2 C23_2 1_555 1_555
C25_2 C23_2 1_555 1_555
H18_2 C24_2 1_555 1_555
C26_2 C25_2 1_555 1_555
C27_2 C26_2 1_555 1_555
C28_2 C27_2 1_555 1_555
C29_2 C28_2 1_555 1_555
C30_2 C28_2 1_555 1_555
H19_2 C29_2 1_555 1_555
C31_2 C29_2 1_555 1_555
C32_2 N2_2 1_555 1_555
H20_2 C30_2 1_555 1_555
H22_2 C32_2 1_555 1_555
N3_2 C33_2 1_555 1_555
C33_2 C35_2 1_555 1_555
C34_2 N3_2 1_555 1_555
C35_2 C37_2 1_555 1_555
H24_2 C34_2 1_555 1_555
C36_2 C34_2 1_555 1_555
C37_2 C36_2 1_555 1_555
H25_2 C35_2 1_555 1_555
H26_2 C36_2 1_555 1_555
C38_2 C37_2 1_555 1_555
C39_2 C38_2 1_555 1_555
C40_2 C39_2 1_555 1_555
C41_2 C40_2 1_555 1_555
C42_2 C40_2 1_555 1_555
C43_2 C41_2 1_555 1_555
H27_2 C41_2 1_555 1_555
C44_2 C42_2 1_555 1_555
H28_2 C42_2 1_555 1_555
C45_2 C43_2 1_555 1_555
H29_2 C43_2 1_555 1_555
H30_2 C44_2 1_555 1_555
C46_2 C16_2 1_555 1_555
C47_2 C46_2 1_555 1_555
C48_2 C18_2 1_555 1_555
H31_2 C47_2 1_555 1_555
H32_2 C47_2 1_555 1_555
C49_2 C17_2 1_555 1_555
H33_2 C16_2 1_555 1_555
H34_2 C48_2 1_555 1_555
H35_2 C48_2 1_555 1_555
C50_2 C49_2 1_555 1_555
H36_2 C19_2 1_555 1_555
C51_2 C50_2 1_555 1_555
C52_2 C50_2 1_555 1_555
H37_2 C51_2 1_555 1_555
C53_2 C51_2 1_555 1_555
C54_2 C52_2 1_555 1_555
H38_2 C52_2 1_555 1_555
H39_2 C53_2 1_555 1_555
C55_2 C53_2 1_555 1_555
H40_2 C54_2 1_555 1_555
C56_2 C55_2 1_555 1_555
C57_2 C56_2 1_555 1_555
C58_2 C57_2 1_555 1_555
C59_2 C58_2 1_555 1_555
C60_2 C58_2 1_555 1_555
H41_2 C59_2 1_555 1_555
C61_2 C59_2 1_555 1_555
C62_2 C60_2 1_555 1_555
H42_2 C60_2 1_555 1_555
N7 C61_2 1_555 1_555
Cu4_2 N3_2 1_555 1_555
Cu4_5 N2_2 1_555 1_555
C12_2 C13_2 1_555 1_555
C19_2 C49_2 1_555 1_555
C24_2 C25_2 1_555 1_555
C30_2 C32_2 1_555 1_555
C44_2 C45_2 1_555 1_555
C45_2 C46_2 1_555 1_555
C46_2 C48_2 1_555 1_555
C47_2 C49_2 1_555 1_555
C54_2 C55_2 1_555 1_555
C62_2 N7 1_555 1_555
Cu1_5 N1_2 1_555 1_555
N1_2 C1_2 1_555 1_555
C1_2 C3_2 1_555 1_555
C2_2 N1_2 1_555 1_555
C3_2 C5_2 1_555 1_555
H2_2 C2_2 1_555 1_555
C4_2 C2_2 1_555 1_555
C5_2 C4_2 1_555 1_555
H3_2 C3_2 1_555 1_555
H4_2 C4_2 1_555 1_555
C6_2 C5_2 1_555 1_555
C7_2 C6_2 1_555 1_555
C8_2 C7_2 1_555 1_555
C9_2 C8_2 1_555 1_555
C10_2 C8_2 1_555 1_555
H5_2 C9_2 1_555 1_555
H6_2 C10_2 1_555 1_555
N6_2 Cu1_5 1_555 1_555
O2_2 Cu1_6 1_555 1_555
O1_2 Cu1_7 1_555 1_555
N5_2 Cu1_8 1_555 1_555
N7_2 Cu1_8 1_555 1_555
Cu2 N1_3 1_555 1_555
N1_3 C1_3 1_555 1_555
C1_3 C3_3 1_555 1_555
C2_3 N1_3 1_555 1_555
C3_3 C5_3 1_555 1_555
H1_3 C1_3 1_555 1_555
H2_3 C2_3 1_555 1_555
C4_3 C2_3 1_555 1_555
C5_3 C4_3 1_555 1_555
H3_3 C3_3 1_555 1_555
H4_3 C4_3 1_555 1_555
C6_3 C5_3 1_555 1_555
C7_3 C6_3 1_555 1_555
C8_3 C7_3 1_555 1_555
C9_3 C8_3 1_555 1_555
C10_3 C8_3 1_555 1_555
H5_3 C9_3 1_555 1_555
H6_3 C10_3 1_555 1_555
O1_3 Cu2 1_555 1_555
N6_3 Cu2 1_555 1_555
O2_3 Cu2_2 1_555 1_555
N5_3 Cu2_2 1_555 1_555
N2_3 C31_3 1_555 1_555
C13_3 C11_3 1_555 1_555
H7_3 C11_3 1_555 1_555
H8_3 C12_3 1_555 1_555
C14_3 C13_3 1_555 1_555
C15_3 C14_3 1_555 1_555
C16_3 C14_3 1_555 1_555
C17_3 C14_3 1_555 1_555
H9_3 C15_3 1_555 1_555
H10_3 C15_3 1_555 1_555
C18_3 C15_3 1_555 1_555
H11_3 C16_3 1_555 1_555
H12_3 C17_3 1_555 1_555
H13_3 C17_3 1_555 1_555
C19_3 C18_3 1_555 1_555
C20_3 C18_3 1_555 1_555
H14_3 C19_3 1_555 1_555
C21_3 C20_3 1_555 1_555
C22_3 C20_3 1_555 1_555
H15_3 C21_3 1_555 1_555
C23_3 C21_3 1_555 1_555
C24_3 C22_3 1_555 1_555
H16_3 C22_3 1_555 1_555
H17_3 C23_3 1_555 1_555
C25_3 C23_3 1_555 1_555
H18_3 C24_3 1_555 1_555
C26_3 C25_3 1_555 1_555
C27_3 C26_3 1_555 1_555
C28_3 C27_3 1_555 1_555
C29_3 C28_3 1_555 1_555
C30_3 C28_3 1_555 1_555
H19_3 C29_3 1_555 1_555
C31_3 C29_3 1_555 1_555
C32_3 N2_3 1_555 1_555
H20_3 C30_3 1_555 1_555
C45_3 C43_3 1_555 1_555
H29_3 C43_3 1_555 1_555
H30_3 C44_3 1_555 1_555
C46_3 C16_3 1_555 1_555
C47_3 C46_3 1_555 1_555
C48_3 C18_3 1_555 1_555
H31_3 C47_3 1_555 1_555
H32_3 C47_3 1_555 1_555
C49_3 C17_3 1_555 1_555
H33_3 C16_3 1_555 1_555
H34_3 C48_3 1_555 1_555
H35_3 C48_3 1_555 1_555
C50_3 C49_3 1_555 1_555
H36_3 C19_3 1_555 1_555
C51_3 C50_3 1_555 1_555
C52_3 C50_3 1_555 1_555
H37_3 C51_3 1_555 1_555
C53_3 C51_3 1_555 1_555
C54_3 C52_3 1_555 1_555
H38_3 C52_3 1_555 1_555
H39_3 C53_3 1_555 1_555
C55_3 C53_3 1_555 1_555
H40_3 C54_3 1_555 1_555
C56_3 C55_3 1_555 1_555
C57_3 C56_3 1_555 1_555
C58_3 C57_3 1_555 1_555
C59_3 C58_3 1_555 1_555
C60_3 C58_3 1_555 1_555
H41_3 C59_3 1_555 1_555
C61_3 C59_3 1_555 1_555
C62_3 C60_3 1_555 1_555
H42_3 C60_3 1_555 1_555
N7_2 C61_3 1_555 1_555
Cu3 N2_3 1_555 1_555
C12_3 C13_3 1_555 1_555
C19_3 C49_3 1_555 1_555
C24_3 C25_3 1_555 1_555
C30_3 C32_3 1_555 1_555
C44_3 C45_3 1_555 1_555
C45_3 C46_3 1_555 1_555
C46_3 C48_3 1_555 1_555
C47_3 C49_3 1_555 1_555
C54_3 C55_3 1_555 1_555
C62_3 N7_2 1_555 1_555
N3_3 C33_3 1_555 1_555
C33_3 C35_3 1_555 1_555
C34_3 N3_3 1_555 1_555
C35_3 C37_3 1_555 1_555
H23_3 C33_3 1_555 1_555
H24_3 C34_3 1_555 1_555
C36_3 C34_3 1_555 1_555
C37_3 C36_3 1_555 1_555
H25_3 C35_3 1_555 1_555
H26_3 C36_3 1_555 1_555
C38_3 C37_3 1_555 1_555
C39_3 C38_3 1_555 1_555
C40_3 C39_3 1_555 1_555
C41_3 C40_3 1_555 1_555
C42_3 C40_3 1_555 1_555
H27_3 C41_3 1_555 1_555
H28_3 C42_3 1_555 1_555
Cu4_6 N3_3 1_555 1_555
Cu3 N1_4 1_555 1_555
N1_4 C1_4 1_555 1_555
N6_2 C31_4 1_555 1_555
C1_4 C3_4 1_555 1_555
C2_4 N1_4 1_555 1_555
C3_4 C5_4 1_555 1_555
H2_4 C2_4 1_555 1_555
C4_4 C2_4 1_555 1_555
C5_4 C4_4 1_555 1_555
H3_4 C3_4 1_555 1_555
H4_4 C4_4 1_555 1_555
C6_4 C5_4 1_555 1_555
C7_4 C6_4 1_555 1_555
C8_4 C7_4 1_555 1_555
C9_4 C8_4 1_555 1_555
C10_4 C8_4 1_555 1_555
C11_4 C9_4 1_555 1_555
H5_4 C9_4 1_555 1_555
C12_4 C10_4 1_555 1_555
H6_4 C10_4 1_555 1_555
C13_4 C11_4 1_555 1_555
H7_4 C11_4 1_555 1_555
H8_4 C12_4 1_555 1_555
C14_4 C13_4 1_555 1_555
C15_4 C14_4 1_555 1_555
C16_4 C14_4 1_555 1_555
C17_4 C14_4 1_555 1_555
H9_4 C15_4 1_555 1_555
H10_4 C15_4 1_555 1_555
C18_4 C15_4 1_555 1_555
H11_4 C16_4 1_555 1_555
H12_4 C17_4 1_555 1_555
H13_4 C17_4 1_555 1_555
C19_4 C18_4 1_555 1_555
C20_4 C18_4 1_555 1_555
H14_4 C19_4 1_555 1_555
C21_4 C20_4 1_555 1_555
C22_4 C20_4 1_555 1_555
H15_4 C21_4 1_555 1_555
C23_4 C21_4 1_555 1_555
C24_4 C22_4 1_555 1_555
H16_4 C22_4 1_555 1_555
H17_4 C23_4 1_555 1_555
C25_4 C23_4 1_555 1_555
H18_4 C24_4 1_555 1_555
C26_4 C25_4 1_555 1_555
C27_4 C26_4 1_555 1_555
C28_4 C27_4 1_555 1_555
C29_4 C28_4 1_555 1_555
C30_4 C28_4 1_555 1_555
H19_4 C29_4 1_555 1_555
C31_4 C29_4 1_555 1_555
C32_4 N6_2 1_555 1_555
H20_4 C30_4 1_555 1_555
C45_4 C43_4 1_555 1_555
H29_4 C43_4 1_555 1_555
H30_4 C44_4 1_555 1_555
C46_4 C16_4 1_555 1_555
C47_4 C46_4 1_555 1_555
C48_4 C18_4 1_555 1_555
H31_4 C47_4 1_555 1_555
H32_4 C47_4 1_555 1_555
C49_4 C17_4 1_555 1_555
H33_4 C16_4 1_555 1_555
H34_4 C48_4 1_555 1_555
H35_4 C48_4 1_555 1_555
C50_4 C49_4 1_555 1_555
H36_4 C19_4 1_555 1_555
C51_4 C50_4 1_555 1_555
C52_4 C50_4 1_555 1_555
H37_4 C51_4 1_555 1_555
C53_4 C51_4 1_555 1_555
C54_4 C52_4 1_555 1_555
H38_4 C52_4 1_555 1_555
H39_4 C53_4 1_555 1_555
C55_4 C53_4 1_555 1_555
H40_4 C54_4 1_555 1_555
C56_4 C55_4 1_555 1_555
C57_4 C56_4 1_555 1_555
C58_4 C57_4 1_555 1_555
C59_4 C58_4 1_555 1_555
C60_4 C58_4 1_555 1_555
H41_4 C59_4 1_555 1_555
C61_4 C59_4 1_555 1_555
C62_4 C60_4 1_555 1_555
H42_4 C60_4 1_555 1_555
H44_4 C62_4 1_555 1_555
N4_2 C61_4 1_555 1_555
Cu4_6 N4_2 1_555 1_555
C12_4 C13_4 1_555 1_555
C19_4 C49_4 1_555 1_555
C24_4 C25_4 1_555 1_555
C30_4 C32_4 1_555 1_555
C44_4 C45_4 1_555 1_555
C45_4 C46_4 1_555 1_555
C46_4 C48_4 1_555 1_555
C47_4 C49_4 1_555 1_555
C54_4 C55_4 1_555 1_555
C62_4 N4_2 1_555 1_555
O2_4 Cu3_2 1_555 1_555
O1_4 Cu3_3 1_555 1_555
N7_3 Cu3_4 1_555 1_555
N5 C33_4 1_555 1_555
C33_4 C35_4 1_555 1_555
C34_4 N5 1_555 1_555
C35_4 C37_4 1_555 1_555
H24_4 C34_4 1_555 1_555
C36_4 C34_4 1_555 1_555
C37_4 C36_4 1_555 1_555
H25_4 C35_4 1_555 1_555
H26_4 C36_4 1_555 1_555
C38_4 C37_4 1_555 1_555
C39_4 C38_4 1_555 1_555
C40_4 C39_4 1_555 1_555
C41_4 C40_4 1_555 1_555
C42_4 C40_4 1_555 1_555
H27_4 C41_4 1_555 1_555
H28_4 C42_4 1_555 1_555
O1_5 Cu4 1_555 1_555
N7_4 Cu4_2 1_555 1_555
Cu4_3 N1_5 1_555 1_555
N1_5 C1_5 1_555 1_555
C1_5 C3_5 1_555 1_555
C2_5 N1_5 1_555 1_555
C3_5 C5_5 1_555 1_555
H2_5 C2_5 1_555 1_555
C4_5 C2_5 1_555 1_555
C5_5 C4_5 1_555 1_555
H3_5 C3_5 1_555 1_555
H4_5 C4_5 1_555 1_555
C6_5 C5_5 1_555 1_555
C7_5 C6_5 1_555 1_555
C8_5 C7_5 1_555 1_555
C9_5 C8_5 1_555 1_555
C10_5 C8_5 1_555 1_555
H5_5 C9_5 1_555 1_555
H6_5 C10_5 1_555 1_555
O2_5 Cu4_4 1_555 1_555
N6_3 C31_5 1_555 1_555
C13_5 C11_5 1_555 1_555
H7_5 C11_5 1_555 1_555
H8_5 C12_5 1_555 1_555
C14_5 C13_5 1_555 1_555
C15_5 C14_5 1_555 1_555
C16_5 C14_5 1_555 1_555
C17_5 C14_5 1_555 1_555
H9_5 C15_5 1_555 1_555
H10_5 C15_5 1_555 1_555
C18_5 C15_5 1_555 1_555
H11_5 C16_5 1_555 1_555
H12_5 C17_5 1_555 1_555
H13_5 C17_5 1_555 1_555
C19_5 C18_5 1_555 1_555
C20_5 C18_5 1_555 1_555
H14_5 C19_5 1_555 1_555
C21_5 C20_5 1_555 1_555
C22_5 C20_5 1_555 1_555
H15_5 C21_5 1_555 1_555
C23_5 C21_5 1_555 1_555
C24_5 C22_5 1_555 1_555
H16_5 C22_5 1_555 1_555
H17_5 C23_5 1_555 1_555
C25_5 C23_5 1_555 1_555
H18_5 C24_5 1_555 1_555
C26_5 C25_5 1_555 1_555
C27_5 C26_5 1_555 1_555
C28_5 C27_5 1_555 1_555
C29_5 C28_5 1_555 1_555
C30_5 C28_5 1_555 1_555
H19_5 C29_5 1_555 1_555
C31_5 C29_5 1_555 1_555
C32_5 N6_3 1_555 1_555
H20_5 C30_5 1_555 1_555
H22_5 C32_5 1_555 1_555
N5_2 C33_5 1_555 1_555
C33_5 C35_5 1_555 1_555
C34_5 N5_2 1_555 1_555
C35_5 C37_5 1_555 1_555
H24_5 C34_5 1_555 1_555
C36_5 C34_5 1_555 1_555
C37_5 C36_5 1_555 1_555
H25_5 C35_5 1_555 1_555
H26_5 C36_5 1_555 1_555
C38_5 C37_5 1_555 1_555
C39_5 C38_5 1_555 1_555
C40_5 C39_5 1_555 1_555
C41_5 C40_5 1_555 1_555
C42_5 C40_5 1_555 1_555
C43_5 C41_5 1_555 1_555
H27_5 C41_5 1_555 1_555
C44_5 C42_5 1_555 1_555
H28_5 C42_5 1_555 1_555
C45_5 C43_5 1_555 1_555
H29_5 C43_5 1_555 1_555
H30_5 C44_5 1_555 1_555
C46_5 C16_5 1_555 1_555
C47_5 C46_5 1_555 1_555
C48_5 C18_5 1_555 1_555
H31_5 C47_5 1_555 1_555
H32_5 C47_5 1_555 1_555
C49_5 C17_5 1_555 1_555
H33_5 C16_5 1_555 1_555
H34_5 C48_5 1_555 1_555
H35_5 C48_5 1_555 1_555
C50_5 C49_5 1_555 1_555
H36_5 C19_5 1_555 1_555
C51_5 C50_5 1_555 1_555
C52_5 C50_5 1_555 1_555
H37_5 C51_5 1_555 1_555
C53_5 C51_5 1_555 1_555
C54_5 C52_5 1_555 1_555
H38_5 C52_5 1_555 1_555
H39_5 C53_5 1_555 1_555
C55_5 C53_5 1_555 1_555
H40_5 C54_5 1_555 1_555
C56_5 C55_5 1_555 1_555
C57_5 C56_5 1_555 1_555
C58_5 C57_5 1_555 1_555
C59_5 C58_5 1_555 1_555
C60_5 C58_5 1_555 1_555
H41_5 C59_5 1_555 1_555
C61_5 C59_5 1_555 1_555
C62_5 C60_5 1_555 1_555
H42_5 C60_5 1_555 1_555
N7_3 C61_5 1_555 1_555
C12_5 C13_5 1_555 1_555
C19_5 C49_5 1_555 1_555
C24_5 C25_5 1_555 1_555
C30_5 C32_5 1_555 1_555
C44_5 C45_5 1_555 1_555
C45_5 C46_5 1_555 1_555
C46_5 C48_5 1_555 1_555
C47_5 C49_5 1_555 1_555
C54_5 C55_5 1_555 1_555
C62_5 N7_3 1_555 1_555
N5_3 C33_6 1_555 1_555
C33_6 C35_6 1_555 1_555
C34_6 N5_3 1_555 1_555
C35_6 C37_6 1_555 1_555
H23_6 C33_6 1_555 1_555
H24_6 C34_6 1_555 1_555
C36_6 C34_6 1_555 1_555
C37_6 C36_6 1_555 1_555
H25_6 C35_6 1_555 1_555
H26_6 C36_6 1_555 1_555
C38_6 C37_6 1_555 1_555
C39_6 C38_6 1_555 1_555
C40_6 C39_6 1_555 1_555
C41_6 C40_6 1_555 1_555
C42_6 C40_6 1_555 1_555
H27_6 C41_6 1_555 1_555
H28_6 C42_6 1_555 1_555
N6 C31_6 1_555 1_555
C13_6 C11_6 1_555 1_555
H7_6 C11_6 1_555 1_555
H8_6 C12_6 1_555 1_555
C14_6 C13_6 1_555 1_555
C15_6 C14_6 1_555 1_555
C16_6 C14_6 1_555 1_555
C17_6 C14_6 1_555 1_555
H9_6 C15_6 1_555 1_555
H10_6 C15_6 1_555 1_555
C18_6 C15_6 1_555 1_555
H11_6 C16_6 1_555 1_555
H12_6 C17_6 1_555 1_555
H13_6 C17_6 1_555 1_555
C19_6 C18_6 1_555 1_555
C20_6 C18_6 1_555 1_555
H14_6 C19_6 1_555 1_555
C21_6 C20_6 1_555 1_555
C22_6 C20_6 1_555 1_555
H15_6 C21_6 1_555 1_555
C23_6 C21_6 1_555 1_555
C24_6 C22_6 1_555 1_555
H16_6 C22_6 1_555 1_555
H17_6 C23_6 1_555 1_555
C25_6 C23_6 1_555 1_555
H18_6 C24_6 1_555 1_555
C26_6 C25_6 1_555 1_555
C27_6 C26_6 1_555 1_555
C28_6 C27_6 1_555 1_555
C29_6 C28_6 1_555 1_555
C30_6 C28_6 1_555 1_555
H19_6 C29_6 1_555 1_555
C31_6 C29_6 1_555 1_555
C32_6 N6 1_555 1_555
H20_6 C30_6 1_555 1_555
C45_6 C43_6 1_555 1_555
H29_6 C43_6 1_555 1_555
H30_6 C44_6 1_555 1_555
C46_6 C16_6 1_555 1_555
C47_6 C46_6 1_555 1_555
C48_6 C18_6 1_555 1_555
H31_6 C47_6 1_555 1_555
H32_6 C47_6 1_555 1_555
C49_6 C17_6 1_555 1_555
H33_6 C16_6 1_555 1_555
H34_6 C48_6 1_555 1_555
H35_6 C48_6 1_555 1_555
C50_6 C49_6 1_555 1_555
H36_6 C19_6 1_555 1_555
C51_6 C50_6 1_555 1_555
C52_6 C50_6 1_555 1_555
H37_6 C51_6 1_555 1_555
C53_6 C51_6 1_555 1_555
C54_6 C52_6 1_555 1_555
H38_6 C52_6 1_555 1_555
H39_6 C53_6 1_555 1_555
C55_6 C53_6 1_555 1_555
H40_6 C54_6 1_555 1_555
C56_6 C55_6 1_555 1_555
C57_6 C56_6 1_555 1_555
C58_6 C57_6 1_555 1_555
C59_6 C58_6 1_555 1_555
C60_6 C58_6 1_555 1_555
H41_6 C59_6 1_555 1_555
C61_6 C59_6 1_555 1_555
C62_6 C60_6 1_555 1_555
H42_6 C60_6 1_555 1_555
N7_4 C61_6 1_555 1_555
C12_6 C13_6 1_555 1_555
C19_6 C49_6 1_555 1_555
C24_6 C25_6 1_555 1_555
C30_6 C32_6 1_555 1_555
C44_6 C45_6 1_555 1_555
C45_6 C46_6 1_555 1_555
C46_6 C48_6 1_555 1_555
C47_6 C49_6 1_555 1_555
C54_6 C55_6 1_555 1_555
C62_6 N7_4 1_555 1_555
Cu4_5 N1_6 1_555 1_555
N1_6 C1_6 1_555 1_555
C1_6 C3_6 1_555 1_555
C2_6 N1_6 1_555 1_555
C3_6 C5_6 1_555 1_555
H1_6 C1_6 1_555 1_555
H2_6 C2_6 1_555 1_555
C4_6 C2_6 1_555 1_555
C5_6 C4_6 1_555 1_555
H3_6 C3_6 1_555 1_555
H4_6 C4_6 1_555 1_555
C6_6 C5_6 1_555 1_555
C7_6 C6_6 1_555 1_555
C8_6 C7_6 1_555 1_555
C9_6 C8_6 1_555 1_555
C10_6 C8_6 1_555 1_555
H5_6 C9_6 1_555 1_555
H6_6 C10_6 1_555 1_555
O1_6 Cu4_5 1_555 1_555
O2_6 Cu4_6 1_555 1_555

#END
