
###############################################################################
#
# This file contains modified crystal structure data generated from the
# MOF subset of the Cambridge Structural Database (CSD) v543 
# hosted by the Cambridge Crystallographic Data Centre (CCDC).
#
# This work is licensed under the Creative Commons
# Attribution-NonCommercial-ShareAlike 4.0 International License.
# To view a copy of this license, visit
# http://creativecommons.org/licenses/by-nc-sa/4.0/
# or send a letter to
# Creative Commons, PO Box 1866, Mountain View, CA 94042, USA.
#
# CIF created using the CSD Python API on 29 September 2022
# The structure has been converted into the P1 space group
# The structure has a 3D framework
# The original CSD entry XUKNIC is in the orthorhombic crystal system
# The framework has been calculated to contain at least 10.0% void space
# The void calculation uses a probe of radius 1.32A, grid spacing 0.4
#
###############################################################################

data_XUKNIC
_chemical_formula_moiety         '(C120 H80 O62 Zn16)n'
_symmetry_cell_setting           triclinic
_symmetry_space_group_name_H-M   'P 1'
_symmetry_Int_Tables_number      1
_space_group_name_Hall           'P 1'
loop_
_symmetry_equiv_pos_site_id
_symmetry_equiv_pos_as_xyz
1 x,y,z
_cell_length_a                   21.169(3)
_cell_length_b                   11.2196(4)
_cell_length_c                   23.5169(13)
_cell_angle_alpha                90
_cell_angle_beta                 90
_cell_angle_gamma                90
_cell_volume                     5585.45
loop_
_atom_site_label
_atom_site_type_symbol
_atom_site_fract_x
_atom_site_fract_y
_atom_site_fract_z
Zn2 Zn 0.39919(8) 0.00592(10) 0.85717(5)
O2 O 0.4790(9) 0.0733(11) 0.8275(6)
H1 H 0.5139 0.0689 0.8491
H2 H 0.4807 0.1077 0.7930
H3 H 0.5481 0.0274 0.9587
O11 O 0.1747(5) 0.1884(6) 0.4680(4)
O12 O 0.1264(6) 0.0882(7) 0.3995(3)
H16 H 0.2218 0.0448 0.5405
C26 C 0.1560(5) 0.0965(8) 0.4503(5)
H19 H 0.3020 0.0199 0.5988
Zn5 Zn 0.09829(7) 0.22937(10) 0.35858(5)
Zn10 Zn 0.16041(8) 0.37569(9) 0.46216(5)
O18 O 0.3051(5) 0.0087(7) 0.8383(4)
O21 O 0.3917(6) 0.1505(7) 0.9081(4)
O22 O 0.3387(5) 0.0544(5) 0.9771(3)
H4 H 0.5614 0.9520 0.0131
O6 O 0.2510(10) 0.8630(12) 0.0269(4)
H5 H 0.2183 0.9135 0.0232
H6 H 0.2509 0.8078 0.0546
O23 O 0.3960(6) 0.8549(8) 0.0352(3)
O24 O 0.4684(6) 0.7190(9) 0.0151(4)
Zn1 Zn 0.40171(7) 0.72937(10) 0.85858(5)
Zn3 Zn 0.33959(8) 0.87569(9) 0.96216(5)
Zn4 Zn 0.48685(8) 0.83146(11) 0.94945(6)
O1 O 0.4116(4) 0.8667(5) 0.9070(3)
O3 O 0.4844(6) 0.6729(8) 0.8329(4)
O4 O 0.5423(7) 0.9604(10) 0.9791(5)
O5 O 0.5453(5) 0.7406(8) 0.9041(3)
O7 O 0.7694(5) 0.6201(8) 0.9019(3)
O8 O 0.8051(5) 0.4913(7) 0.8383(4)
O9 O 0.3996(4) 0.9153(9) 0.7737(3)
O10 O 0.3506(4) 0.7443(7) 0.7910(4)
O13 O 0.1083(6) 0.6505(7) 0.4081(4)
O14 O 0.1613(5) 0.5544(5) 0.4771(3)
O15 O 0.6040(6) 0.1451(8) 0.5352(3)
O16 O 0.5316(6) 0.2810(9) 0.5151(4)
C1 C 0.5348(8) 0.6795(9) 0.8572(5)
C2 C 0.5926(7) 0.6221(10) 0.8289(5)
C3 C 0.6517(6) 0.6215(8) 0.8547(5)
H7 H 0.6587 0.6649 0.8878
C4 C 0.7015(8) 0.5538(10) 0.8299(5)
C5 C 0.6892(8) 0.5064(11) 0.7761(5)
H8 H 0.7224 0.4718 0.7561
C6 C 0.6302(8) 0.5080(11) 0.7511(5)
C7 C 0.5836(7) 0.5688(10) 0.7762(5)
H9 H 0.5447 0.5754 0.7582
C8 C 0.7610(8) 0.5533(10) 0.8595(5)
C9 C 0.6189(8) 0.4443(11) 0.6965(5)
C10 C 0.6522(8) 0.3346(18) 0.6859(6)
H10 H 0.6810 0.3049 0.7122
C11 C 0.6399(10) 0.2709(15) 0.6329(6)
H11 H 0.6637 0.2041 0.6236
C12 C 0.5913(9) 0.3108(12) 0.5953(5)
C13 C 0.5743(11) 0.4826(15) 0.6577(7)
H12 H 0.5538 0.5548 0.6638
C14 C 0.3620(10) 0.8399(12) 0.7605(5)
C15 C 0.3266(8) 0.8504(10) 0.7081(4)
C16 C 0.3335(9) 0.9419(12) 0.6715(6)
H13 H 0.3640 0.9994 0.6791
C17 C 0.2524(9) 0.8692(10) 0.6082(5)
C18 C 0.2453(10) 0.7829(13) 0.6469(6)
H14 H 0.2147 0.7260 0.6385
C19 C 0.2758(11) 0.7673(12) 0.6955(5)
H15 H 0.2653 0.7061 0.7203
C20 C 0.2186(8) 0.8696(7) 0.5522(5)
C21 C 0.2056(7) 0.9741(9) 0.5259(4)
C22 C 0.1662(8) 0.9770(8) 0.4744(5)
C23 C 0.1517(7) 0.8674(9) 0.4536(5)
H17 H 0.1320 0.8664 0.4182
C24 C 0.1926(8) 0.7626(9) 0.5276(4)
H18 H 0.1969 0.6913 0.5473
C25 C 0.1621(6) 0.7617(7) 0.4771(5)
C27 C 0.1473(7) 0.6469(8) 0.4548(5)
C28 C 0.2965(9) 0.9538(11) 0.6222(5)
C29 C 0.5591(9) 0.4156(15) 0.6094(6)
H20 H 0.5266 0.4416 0.5860
C30 C 0.5737(9) 0.2405(13) 0.5451(5)
Zn6 Zn 0.10081(8) 0.50592(10) 0.35717(5)
Zn7 Zn 0.89919(8) 0.49408(10) 0.85717(5)
Zn8 Zn 0.66041(8) 0.12431(9) 0.46216(5)
Zn11 Zn 0.83959(8) 0.62431(9) 0.96216(5)
Zn12 Zn 0.51315(8) 0.16854(11) 0.44945(6)
O17 O 0.2694(5) 0.8799(8) 0.9019(3)
O19 O 0.3253(5) 0.6884(6) 0.9680(4)
O20 O 0.3736(6) 0.5882(7) 0.8995(3)
Zn1_2 Zn 0.59829(7) 0.27063(10) 0.35858(5)
O1_2 O 0.5884(4) 0.1333(5) 0.4070(3)
O3_2 O 0.5156(6) 0.3271(8) 0.3329(4)
O4_2 O 0.4577(7) 0.0396(10) 0.4791(5)
H4_2 H 0.4386 0.0480 0.5131
O5_2 O 0.4547(5) 0.2594(8) 0.4041(3)
O6_2 O 0.7490(10) 0.1370(12) 0.5269(4)
H5_2 H 0.7817 0.0865 0.5232
H6_2 H 0.7491 0.1922 0.5546
O7_2 O 0.2306(5) 0.3799(8) 0.4019(3)
O8_2 O 0.1949(5) 0.5087(7) 0.3383(4)
O9_2 O 0.6004(4) 0.0847(9) 0.2737(3)
O10_2 O 0.6494(4) 0.2557(7) 0.2910(4)
C1_2 C 0.4652(8) 0.3205(9) 0.3572(5)
C2_2 C 0.4074(7) 0.3779(10) 0.3289(5)
C3_2 C 0.3483(6) 0.3785(8) 0.3547(5)
H7_2 H 0.3413 0.3351 0.3878
C4_2 C 0.2985(8) 0.4462(10) 0.3299(5)
C5_2 C 0.3108(8) 0.4936(11) 0.2761(5)
H8_2 H 0.2776 0.5282 0.2561
C6_2 C 0.3698(8) 0.4920(11) 0.2511(5)
C7_2 C 0.4164(7) 0.4312(10) 0.2762(5)
H9_2 H 0.4553 0.4246 0.2582
C8_2 C 0.2390(8) 0.4467(10) 0.3595(5)
C9_2 C 0.3811(8) 0.5557(11) 0.1965(5)
C10_2 C 0.3478(8) 0.6654(18) 0.1859(6)
H10_2 H 0.3190 0.6951 0.2122
C11_2 C 0.3601(10) 0.7291(15) 0.1329(6)
H11_2 H 0.3363 0.7959 0.1236
C12_2 C 0.4087(9) 0.6892(12) 0.0953(5)
C13_2 C 0.4257(11) 0.5174(15) 0.1577(7)
H12_2 H 0.4462 0.4452 0.1638
C14_2 C 0.6380(10) 0.1601(12) 0.2605(5)
C15_2 C 0.6734(8) 0.1496(10) 0.2081(4)
C16_2 C 0.6665(9) 0.0581(12) 0.1715(6)
H13_2 H 0.6360 0.0006 0.1791
C17_2 C 0.7476(9) 0.1308(10) 0.1082(5)
C18_2 C 0.7547(10) 0.2171(13) 0.1469(6)
H14_2 H 0.7853 0.2740 0.1385
C19_2 C 0.7242(11) 0.2327(12) 0.1955(5)
H15_2 H 0.7347 0.2939 0.2203
C20_2 C 0.7814(8) 0.1304(7) 0.0522(5)
C21_2 C 0.7944(7) 0.0259(9) 0.0259(4)
C24_2 C 0.8074(8) 0.2374(9) 0.0276(4)
H18_2 H 0.8031 0.3087 0.0473
C28_2 C 0.7035(9) 0.0462(11) 0.1222(5)
C29_2 C 0.4409(9) 0.5844(15) 0.1094(6)
H20_2 H 0.4734 0.5584 0.0860
C30_2 C 0.4263(9) 0.7595(13) 0.0451(5)
O17_2 O 0.7306(5) 0.1201(8) 0.4019(3)
O19_2 O 0.6747(5) 0.3116(6) 0.4680(4)
O20_2 O 0.6264(6) 0.4118(7) 0.3995(3)
O13_2 O 0.8917(6) 0.3495(7) 0.9081(4)
O14_2 O 0.8387(5) 0.4456(5) 0.9771(3)
C22_2 C 0.8338(8) 0.0230(8) 0.9744(5)
C23_2 C 0.8483(7) 0.1326(9) 0.9536(5)
H17_2 H 0.8680 0.1336 0.9182
C25_2 C 0.8379(6) 0.2383(7) 0.9771(5)
C27_2 C 0.8527(7) 0.3531(8) 0.9548(5)
Zn2_2 Zn 0.60081(8) 0.99408(10) 0.35717(5)
O2_2 O 0.5210(9) 0.9267(11) 0.3275(6)
H1_2 H 0.4861 0.9311 0.3491
H2_2 H 0.5193 0.8923 0.2930
H3_2 H 0.4519 0.9726 0.4587
H16_2 H 0.7782 0.9552 0.0405
H19_2 H 0.6980 0.9801 0.0988
O18_2 O 0.6949(5) 0.9913(7) 0.3383(4)
O21_2 O 0.6083(6) 0.8495(7) 0.4081(4)
O22_2 O 0.6613(5) 0.9456(5) 0.4771(3)
O11_2 O 0.8253(5) 0.8116(6) 0.9680(4)
O12_2 O 0.8736(6) 0.9118(7) 0.8995(3)
C26_2 C 0.8440(5) 0.9035(8) 0.9503(5)
Zn5_2 Zn 0.90171(7) 0.77063(10) 0.85858(5)
Zn4_2 Zn 0.01315(8) 0.33146(11) 0.44945(6)
O1_3 O 0.0884(4) 0.3667(5) 0.4070(3)
O2_3 O 0.0210(9) 0.5733(11) 0.3275(6)
H2_3 H 0.0193 0.6077 0.2930
O3_3 O 0.0156(6) 0.1729(8) 0.3329(4)
O6_3 O 0.2490(10) 0.3630(12) 0.5269(4)
H5_3 H 0.2817 0.4135 0.5232
H6_3 H 0.2491 0.3078 0.5546
O9_3 O 0.1004(4) 0.4153(9) 0.2737(3)
O10_3 O 0.1494(4) 0.2443(7) 0.2910(4)
C14_3 C 0.1380(10) 0.3399(12) 0.2605(5)
C15_3 C 0.1734(8) 0.3504(10) 0.2081(4)
C16_3 C 0.1665(9) 0.4419(12) 0.1715(6)
H13_3 H 0.1360 0.4994 0.1791
C17_3 C 0.2476(9) 0.3692(10) 0.1082(5)
C18_3 C 0.2547(10) 0.2829(13) 0.1469(6)
H14_3 H 0.2853 0.2260 0.1385
C19_3 C 0.2242(11) 0.2673(12) 0.1955(5)
H15_3 H 0.2347 0.2061 0.2203
C20_3 C 0.2814(8) 0.3696(7) 0.0522(5)
C21_3 C 0.2944(7) 0.4741(9) 0.0259(4)
H16_3 H 0.2782 0.5448 0.0405
C24_3 C 0.3074(8) 0.2626(9) 0.0276(4)
H18_3 H 0.3031 0.1913 0.0473
C28_3 C 0.2035(9) 0.4538(11) 0.1222(5)
H19_3 H 0.1980 0.5199 0.0988
O23_2 O 0.1040(6) 0.3549(8) 0.5352(3)
O24_2 O 0.0316(6) 0.2190(9) 0.5151(4)
C22_3 C 0.3338(8) 0.4770(8) 0.9744(5)
C23_3 C 0.3483(7) 0.3674(9) 0.9536(5)
H17_3 H 0.3680 0.3664 0.9182
C25_3 C 0.3379(6) 0.2617(7) 0.9771(5)
C26_3 C 0.3440(5) 0.5965(8) 0.9503(5)
C27_3 C 0.3527(7) 0.1469(8) 0.9548(5)
H1_3 H 0.9861 0.5689 0.3491
O4_3 O 0.9577(7) 0.4604(10) 0.4791(5)
H3_3 H 0.9519 0.5274 0.4587
H4_3 H 0.9386 0.4520 0.5131
O5_3 O 0.9547(5) 0.2406(8) 0.4041(3)
C1_3 C 0.9652(8) 0.1795(9) 0.3572(5)
C2_3 C 0.9074(7) 0.1221(10) 0.3289(5)
C3_3 C 0.8483(6) 0.1215(8) 0.3547(5)
H7_3 H 0.8413 0.1649 0.3878
C4_3 C 0.7985(8) 0.0538(10) 0.3299(5)
C5_3 C 0.8108(8) 0.0064(11) 0.2761(5)
C6_3 C 0.8698(8) 0.0080(11) 0.2511(5)
C7_3 C 0.9164(7) 0.0688(10) 0.2762(5)
H9_3 H 0.9553 0.0754 0.2582
C8_3 C 0.7390(8) 0.0533(10) 0.3595(5)
H12_3 H 0.9462 0.0548 0.1638
O15_2 O 0.8960(6) 0.6451(8) 0.0352(3)
O16_2 O 0.9684(6) 0.7810(9) 0.0151(4)
H8_3 H 0.7776 0.9718 0.2561
C9_3 C 0.8811(8) 0.9443(11) 0.1965(5)
C10_3 C 0.8478(8) 0.8346(18) 0.1859(6)
H10_3 H 0.8190 0.8049 0.2122
C11_3 C 0.8601(10) 0.7709(15) 0.1329(6)
H11_3 H 0.8363 0.7041 0.1236
C12_3 C 0.9087(9) 0.8108(12) 0.0953(5)
C13_3 C 0.9257(11) 0.9826(15) 0.1577(7)
C29_3 C 0.9409(9) 0.9156(15) 0.1094(6)
H20_3 H 0.9734 0.9416 0.0860
C30_3 C 0.9263(9) 0.7405(13) 0.0451(5)
Zn12_2 Zn 0.98685(8) 0.66854(11) 0.94945(6)
H8_4 H 0.2224 0.0282 0.7561
C9_4 C 0.1189(8) 0.0557(11) 0.6965(5)
C10_4 C 0.1522(8) 0.1654(18) 0.6859(6)
H10_4 H 0.1810 0.1951 0.7122
C11_4 C 0.1399(10) 0.2291(15) 0.6329(6)
H11_4 H 0.1637 0.2959 0.6236
C12_4 C 0.0913(9) 0.1892(12) 0.5953(5)
C13_4 C 0.0743(11) 0.0174(15) 0.6577(7)
C29_4 C 0.0591(9) 0.0844(15) 0.6094(6)
H20_4 H 0.0266 0.0584 0.5860
C30_4 C 0.0737(9) 0.2595(13) 0.5451(5)
H1_4 H 0.0139 0.4311 0.8491
O4_4 O 0.0423(7) 0.5396(10) 0.9791(5)
H3_4 H 0.0481 0.4726 0.9587
O5_4 O 0.0453(5) 0.7594(8) 0.9041(3)
C1_4 C 0.0348(8) 0.8205(9) 0.8572(5)
C2_4 C 0.0926(7) 0.8779(10) 0.8289(5)
C3_4 C 0.1517(6) 0.8785(8) 0.8547(5)
H7_4 H 0.1587 0.8351 0.8878
C4_4 C 0.2015(8) 0.9462(10) 0.8299(5)
C5_4 C 0.1892(8) 0.9936(11) 0.7761(5)
C6_4 C 0.1302(8) 0.9920(11) 0.7511(5)
C7_4 C 0.0836(7) 0.9312(10) 0.7762(5)
H9_4 H 0.0447 0.9246 0.7582
C8_4 C 0.2610(8) 0.9467(10) 0.8595(5)
H12_4 H 0.0538 0.9452 0.6638
O6_4 O 0.7510(10) 0.6370(12) 0.0269(4)
H5_4 H 0.7183 0.5865 0.0232
H6_4 H 0.7509 0.6922 0.0546
O1_4 O 0.9116(4) 0.6333(5) 0.9070(3)
O2_4 O 0.9790(9) 0.4267(11) 0.8275(6)
H2_4 H 0.9807 0.3923 0.7930
O3_4 O 0.9844(6) 0.8271(8) 0.8329(4)
O9_4 O 0.8996(4) 0.5847(9) 0.7737(3)
O10_4 O 0.8506(4) 0.7557(7) 0.7910(4)
C14_4 C 0.8620(10) 0.6601(12) 0.7605(5)
C15_4 C 0.8266(8) 0.6496(10) 0.7081(4)
C16_4 C 0.8335(9) 0.5581(12) 0.6715(6)
H13_4 H 0.8640 0.5006 0.6791
C17_4 C 0.7524(9) 0.6308(10) 0.6082(5)
C18_4 C 0.7453(10) 0.7171(13) 0.6469(6)
H14_4 H 0.7147 0.7740 0.6385
C19_4 C 0.7758(11) 0.7327(12) 0.6955(5)
H15_4 H 0.7653 0.7939 0.7203
C20_4 C 0.7186(8) 0.6304(7) 0.5522(5)
C21_4 C 0.7056(7) 0.5259(9) 0.5259(4)
H16_4 H 0.7218 0.4552 0.5405
C22_4 C 0.6662(8) 0.5230(8) 0.4744(5)
C23_4 C 0.6517(7) 0.6326(9) 0.4536(5)
H17_4 H 0.6320 0.6336 0.4182
C24_4 C 0.6926(8) 0.7374(9) 0.5276(4)
H18_4 H 0.6969 0.8087 0.5473
C25_4 C 0.6621(6) 0.7383(7) 0.4771(5)
C26_4 C 0.6560(5) 0.4035(8) 0.4503(5)
C27_4 C 0.6473(7) 0.8531(8) 0.4548(5)
C28_4 C 0.7965(9) 0.5462(11) 0.6222(5)
H19_4 H 0.8020 0.4801 0.5988
H4_4 H 0.0614 0.5480 0.0131
loop_
_geom_bond_atom_site_label_1
_geom_bond_atom_site_label_2
_geom_bond_site_symmetry_1
_geom_bond_site_symmetry_2
O2 Zn2 1_555 1_555
H1 O2 1_555 1_555
H2 O2 1_555 1_555
O11 C26 1_555 1_555
O12 C26 1_555 1_555
Zn5 O12 1_555 1_555
Zn10 O11 1_555 1_555
O18 Zn2 1_555 1_555
O21 Zn2 1_555 1_555
H5 O6 1_555 1_555
H6 O6 1_555 1_555
Zn1 O1 1_555 1_555
Zn3 O1 1_555 1_555
Zn4 O1 1_555 1_555
O3 Zn1 1_555 1_555
O4 Zn4 1_555 1_555
O5 Zn4 1_555 1_555
O7 C8 1_555 1_555
O8 C8 1_555 1_555
O10 Zn1 1_555 1_555
O13 C27 1_555 1_555
O14 C27 1_555 1_555
O15 C30 1_555 1_555
O16 C30 1_555 1_555
C1 O3 1_555 1_555
C2 C1 1_555 1_555
C3 C2 1_555 1_555
H7 C3 1_555 1_555
C4 C3 1_555 1_555
C5 C4 1_555 1_555
H8 C5 1_555 1_555
C6 C5 1_555 1_555
C7 C2 1_555 1_555
H9 C7 1_555 1_555
C8 C4 1_555 1_555
C9 C6 1_555 1_555
C10 C9 1_555 1_555
H10 C10 1_555 1_555
C11 C10 1_555 1_555
H11 C11 1_555 1_555
C12 C11 1_555 1_555
C13 C9 1_555 1_555
H12 C13 1_555 1_555
C14 O9 1_555 1_555
C15 C14 1_555 1_555
C16 C15 1_555 1_555
H13 C16 1_555 1_555
C17 C18 1_555 1_555
C18 H14 1_555 1_555
C19 C15 1_555 1_555
H15 C19 1_555 1_555
C20 C17 1_555 1_555
C21 C20 1_555 1_555
C22 C21 1_555 1_555
C23 C22 1_555 1_555
H17 C23 1_555 1_555
C24 C20 1_555 1_555
H18 C24 1_555 1_555
C25 C23 1_555 1_555
C27 C25 1_555 1_555
C28 C16 1_555 1_555
C29 C12 1_555 1_555
H20 C29 1_555 1_555
C30 C12 1_555 1_555
Zn6 O13 1_555 1_555
Zn7 O8 1_555 1_555
Zn8 O15 1_555 1_555
Zn10 O14 1_555 1_555
Zn11 O7 1_555 1_555
Zn12 O16 1_555 1_555
O17 Zn3 1_555 1_555
O19 Zn3 1_555 1_555
O20 Zn1 1_555 1_555
O5 C1 1_555 1_555
O10 C14 1_555 1_555
C6 C7 1_555 1_555
C13 C29 1_555 1_555
C17 C28 1_555 1_555
C18 C19 1_555 1_555
C24 C25 1_555 1_555
Zn1_2 O1_2 1_555 1_555
Zn8 O1_2 1_555 1_555
Zn12 O1_2 1_555 1_555
O3_2 Zn1_2 1_555 1_555
O4_2 Zn12 1_555 1_555
H4_2 O4_2 1_555 1_555
O5_2 Zn12 1_555 1_555
O6_2 Zn8 1_555 1_555
H5_2 O6_2 1_555 1_555
H6_2 O6_2 1_555 1_555
O7_2 C8_2 1_555 1_555
O8_2 C8_2 1_555 1_555
O10_2 Zn1_2 1_555 1_555
O23 C30_2 1_555 1_555
O24 C30_2 1_555 1_555
C1_2 O3_2 1_555 1_555
C2_2 C1_2 1_555 1_555
C3_2 C2_2 1_555 1_555
H7_2 C3_2 1_555 1_555
C4_2 C3_2 1_555 1_555
C5_2 C4_2 1_555 1_555
H8_2 C5_2 1_555 1_555
C6_2 C5_2 1_555 1_555
C7_2 C2_2 1_555 1_555
H9_2 C7_2 1_555 1_555
C8_2 C4_2 1_555 1_555
C9_2 C6_2 1_555 1_555
C10_2 C9_2 1_555 1_555
H10_2 C10_2 1_555 1_555
C11_2 C10_2 1_555 1_555
H11_2 C11_2 1_555 1_555
C12_2 C11_2 1_555 1_555
C13_2 C9_2 1_555 1_555
H12_2 C13_2 1_555 1_555
C14_2 O9_2 1_555 1_555
C15_2 C14_2 1_555 1_555
C16_2 C15_2 1_555 1_555
H13_2 C16_2 1_555 1_555
C17_2 C18_2 1_555 1_555
C18_2 H14_2 1_555 1_555
C19_2 C15_2 1_555 1_555
H15_2 C19_2 1_555 1_555
C20_2 C17_2 1_555 1_555
C21_2 C20_2 1_555 1_555
C24_2 C20_2 1_555 1_555
H18_2 C24_2 1_555 1_555
C28_2 C16_2 1_555 1_555
C29_2 C12_2 1_555 1_555
H20_2 C29_2 1_555 1_555
C30_2 C12_2 1_555 1_555
Zn6 O8_2 1_555 1_555
Zn10 O7_2 1_555 1_555
O17_2 Zn8 1_555 1_555
O19_2 Zn8 1_555 1_555
O20_2 Zn1_2 1_555 1_555
O5_2 C1_2 1_555 1_555
O10_2 C14_2 1_555 1_555
C6_2 C7_2 1_555 1_555
C13_2 C29_2 1_555 1_555
C17_2 C28_2 1_555 1_555
C18_2 C19_2 1_555 1_555
O13_2 C27_2 1_555 1_555
O14_2 C27_2 1_555 1_555
C23_2 C22_2 1_555 1_555
H17_2 C23_2 1_555 1_555
C25_2 C23_2 1_555 1_555
C27_2 C25_2 1_555 1_555
Zn7 O13_2 1_555 1_555
Zn11 O14_2 1_555 1_555
O2_2 Zn2_2 1_555 1_555
H1_2 O2_2 1_555 1_555
H2_2 O2_2 1_555 1_555
O18_2 Zn2_2 1_555 1_555
O21_2 Zn2_2 1_555 1_555
O11_2 C26_2 1_555 1_555
O12_2 C26_2 1_555 1_555
Zn5_2 O12_2 1_555 1_555
Zn11 O11_2 1_555 1_555
Zn5 O1_3 1_555 1_555
Zn6 O1_3 1_555 1_555
Zn10 O1_3 1_555 1_555
Zn4_2 O1_3 1_555 1_555
O2_3 Zn6 1_555 1_555
H2_3 O2_3 1_555 1_555
O3_3 Zn5 1_555 1_555
O6_3 Zn10 1_555 1_555
H5_3 O6_3 1_555 1_555
H6_3 O6_3 1_555 1_555
O9_3 Zn6 1_555 1_555
O10_3 Zn5 1_555 1_555
C14_3 O9_3 1_555 1_555
C15_3 C14_3 1_555 1_555
C16_3 C15_3 1_555 1_555
H13_3 C16_3 1_555 1_555
C17_3 C18_3 1_555 1_555
C18_3 H14_3 1_555 1_555
C19_3 C15_3 1_555 1_555
H15_3 C19_3 1_555 1_555
C20_3 C17_3 1_555 1_555
C21_3 C20_3 1_555 1_555
H16_3 C21_3 1_555 1_555
C24_3 C20_3 1_555 1_555
H18_3 C24_3 1_555 1_555
C28_3 C16_3 1_555 1_555
H19_3 C28_3 1_555 1_555
O23_2 Zn10 1_555 1_555
O24_2 Zn4_2 1_555 1_555
O10_3 C14_3 1_555 1_555
C17_3 C28_3 1_555 1_555
C18_3 C19_3 1_555 1_555
O19 C26_3 1_555 1_555
O20 C26_3 1_555 1_555
O21 C27_3 1_555 1_555
O22 C27_3 1_555 1_555
C23_3 C22_3 1_555 1_555
H17_3 C23_3 1_555 1_555
C25_3 C23_3 1_555 1_555
C26_3 C22_3 1_555 1_555
C27_3 C25_3 1_555 1_555
H3_3 O4_3 1_555 1_555
H4_3 O4_3 1_555 1_555
O17_2 C8_3 1_555 1_555
C2_3 C1_3 1_555 1_555
C3_3 C2_3 1_555 1_555
H7_3 C3_3 1_555 1_555
C4_3 C3_3 1_555 1_555
C5_3 C4_3 1_555 1_555
C6_3 C5_3 1_555 1_555
C7_3 C2_3 1_555 1_555
H9_3 C7_3 1_555 1_555
C8_3 C4_3 1_555 1_555
O5_3 C1_3 1_555 1_555
C6_3 C7_3 1_555 1_555
O15_2 C30_3 1_555 1_555
O16_2 C30_3 1_555 1_555
C10_3 C9_3 1_555 1_555
H10_3 C10_3 1_555 1_555
C11_3 C10_3 1_555 1_555
H11_3 C11_3 1_555 1_555
C12_3 C11_3 1_555 1_555
C13_3 C9_3 1_555 1_555
C29_3 C12_3 1_555 1_555
H20_3 C29_3 1_555 1_555
C30_3 C12_3 1_555 1_555
C13_3 C29_3 1_555 1_555
O23_2 C30_4 1_555 1_555
O24_2 C30_4 1_555 1_555
C10_4 C9_4 1_555 1_555
H10_4 C10_4 1_555 1_555
C11_4 C10_4 1_555 1_555
H11_4 C11_4 1_555 1_555
C12_4 C11_4 1_555 1_555
C13_4 C9_4 1_555 1_555
C29_4 C12_4 1_555 1_555
H20_4 C29_4 1_555 1_555
C30_4 C12_4 1_555 1_555
C13_4 C29_4 1_555 1_555
H3_4 O4_4 1_555 1_555
O17 C8_4 1_555 1_555
C2_4 C1_4 1_555 1_555
C3_4 C2_4 1_555 1_555
H7_4 C3_4 1_555 1_555
C4_4 C3_4 1_555 1_555
C5_4 C4_4 1_555 1_555
C6_4 C5_4 1_555 1_555
C7_4 C2_4 1_555 1_555
H9_4 C7_4 1_555 1_555
C8_4 C4_4 1_555 1_555
O5_4 C1_4 1_555 1_555
C6_4 C7_4 1_555 1_555
H5_4 O6_4 1_555 1_555
H6_4 O6_4 1_555 1_555
Zn5_2 O1_4 1_555 1_555
Zn7 O1_4 1_555 1_555
Zn11 O1_4 1_555 1_555
Zn12_2 O1_4 1_555 1_555
O2_4 Zn7 1_555 1_555
H2_4 O2_4 1_555 1_555
O3_4 Zn5_2 1_555 1_555
O9_4 Zn7 1_555 1_555
O10_4 Zn5_2 1_555 1_555
O19_2 C26_4 1_555 1_555
O20_2 C26_4 1_555 1_555
O21_2 C27_4 1_555 1_555
O22_2 C27_4 1_555 1_555
C14_4 O9_4 1_555 1_555
C15_4 C14_4 1_555 1_555
C16_4 C15_4 1_555 1_555
H13_4 C16_4 1_555 1_555
C17_4 C18_4 1_555 1_555
C18_4 H14_4 1_555 1_555
C19_4 C15_4 1_555 1_555
H15_4 C19_4 1_555 1_555
C20_4 C17_4 1_555 1_555
C21_4 C20_4 1_555 1_555
H16_4 C21_4 1_555 1_555
C22_4 C21_4 1_555 1_555
C23_4 C22_4 1_555 1_555
H17_4 C23_4 1_555 1_555
C24_4 C20_4 1_555 1_555
H18_4 C24_4 1_555 1_555
C25_4 C23_4 1_555 1_555
C26_4 C22_4 1_555 1_555
C27_4 C25_4 1_555 1_555
C28_4 C16_4 1_555 1_555
H19_4 C28_4 1_555 1_555
O10_4 C14_4 1_555 1_555
C17_4 C28_4 1_555 1_555
C18_4 C19_4 1_555 1_555
C24_4 C25_4 1_555 1_555

#END
