
###############################################################################
#
# This file contains modified crystal structure data generated from the
# MOF subset of the Cambridge Structural Database (CSD) v543 
# hosted by the Cambridge Crystallographic Data Centre (CCDC).
#
# This work is licensed under the Creative Commons
# Attribution-NonCommercial-ShareAlike 4.0 International License.
# To view a copy of this license, visit
# http://creativecommons.org/licenses/by-nc-sa/4.0/
# or send a letter to
# Creative Commons, PO Box 1866, Mountain View, CA 94042, USA.
#
# CIF created using the CSD Python API on 29 September 2022
# The structure has been converted into the P1 space group
# The structure has a 3D framework
# The original CSD entry XUKYEI is in the tetragonal crystal system
# The framework has been calculated to contain at least 10.0% void space
# The void calculation uses a probe of radius 1.32A, grid spacing 0.4
# The framework is charged, counterions have been retained in the structure
#
###############################################################################

data_XUKYEI
_chemical_formula_moiety         '(C416 H448 Cl32 Cu24 N64 8+)n'
_symmetry_cell_setting           triclinic
_symmetry_space_group_name_H-M   'P 1'
_symmetry_Int_Tables_number      1
_space_group_name_Hall           'P 1'
loop_
_symmetry_equiv_pos_site_id
_symmetry_equiv_pos_as_xyz
1 x,y,z
_cell_length_a                   17.3335(14)
_cell_length_b                   17.3335(14)
_cell_length_c                   40.872(7)
_cell_angle_alpha                90
_cell_angle_beta                 90
_cell_angle_gamma                90
_cell_volume                     12280
loop_
_atom_site_label
_atom_site_type_symbol
_atom_site_fract_x
_atom_site_fract_y
_atom_site_fract_z
Cu1 Cu 0.0000 0.2500 0.02857(3)
Cl1 Cl 0.11123(13) 0.35833(12) 0.02837(6)
H4 H 0.0271 0.3472 0.0891
Cu3 Cu 0.5000 0.2500 0.27857(3)
N3 N 0.0630(4) 0.1907(4) 0.06370(15)
C14 C 0.1385(5) 0.1866(5) 0.0619(2)
H15 H 0.1636 0.2132 0.0446
N4 N 0.4370(4) 0.1923(4) 0.24369(17)
C15 C 0.1827(6) 0.1461(5) 0.0835(2)
H16 H 0.2372 0.1459 0.0810
C16 C 0.1488(5) 0.1050(5) 0.1091(2)
C17 C 0.0686(5) 0.1100(5) 0.1103(2)
H17 H 0.0416 0.0838 0.1273
C18 C 0.0276(6) 0.1516(5) 0.0878(2)
C19 C 0.1940(6) 0.0619(5) 0.1342(2)
H19 H 0.2235 0.0207 0.1230
H20 H 0.1575 0.0365 0.1494
C20 C 0.2490(5) 0.1095(5) 0.1538(2)
H21 H 0.2197 0.1481 0.1666
H22 H 0.2840 0.1375 0.1388
C21 C 0.2971(6) 0.0594(6) 0.1773(2)
H23 H 0.2616 0.0270 0.1904
H24 H 0.3300 0.0244 0.1642
C22 C 0.3471(5) 0.1046(5) 0.19999(19)
C23 C 0.4277(6) 0.1080(6) 0.1979(2)
H25 H 0.4536 0.0800 0.1812
C24 C 0.4695(5) 0.1514(5) 0.2197(2)
H26 H 0.5241 0.1524 0.2176
C25 C 0.3588(5) 0.1900(5) 0.2455(2)
H27 H 0.3339 0.2189 0.2622
C26 C 0.3145(5) 0.1479(5) 0.2245(2)
H28 H 0.2600 0.1485 0.2269
Cu1_2 Cu 1.0000 0.2500 0.02857(3)
N1 N 0.9370(4) 0.3093(4) 0.06370(15)
C1 C 0.8615(5) 0.3134(5) 0.0619(2)
H1 H 0.8364 0.2868 0.0446
N2 N 0.5630(4) 0.3077(4) 0.24369(17)
C2 C 0.8173(6) 0.3539(5) 0.0835(2)
H2 H 0.7628 0.3541 0.0810
C3 C 0.8512(5) 0.3950(5) 0.1091(2)
C4 C 0.9314(5) 0.3900(5) 0.1103(2)
H3 H 0.9584 0.4162 0.1273
C5 C 0.9724(6) 0.3484(5) 0.0878(2)
C6 C 0.8060(6) 0.4381(5) 0.1342(2)
H5 H 0.7765 0.4793 0.1230
H6 H 0.8425 0.4635 0.1494
C7 C 0.7510(5) 0.3905(5) 0.1538(2)
H7 H 0.7803 0.3519 0.1666
H8 H 0.7160 0.3625 0.1388
C8 C 0.7029(6) 0.4406(6) 0.1773(2)
H9 H 0.7384 0.4730 0.1904
H10 H 0.6700 0.4756 0.1642
C9 C 0.6529(5) 0.3954(5) 0.19999(19)
C10 C 0.5723(6) 0.3920(6) 0.1979(2)
H11 H 0.5464 0.4200 0.1812
C11 C 0.5305(5) 0.3486(5) 0.2197(2)
H12 H 0.4759 0.3476 0.2176
C12 C 0.6412(5) 0.3100(5) 0.2455(2)
H13 H 0.6661 0.2811 0.2622
C13 C 0.6855(5) 0.3521(5) 0.2245(2)
H14 H 0.7400 0.3515 0.2269
Cl2 Cl 0.88877(13) 0.14167(12) 0.02837(6)
H18 H 0.9729 0.1528 0.0891
N5 N 0.9423(4) 0.3130(4) 0.99369(17)
Cl1_2 Cl 0.39167(12) 0.36123(13) 0.27837(6)
N1_2 N 0.4407(4) 0.1870(4) 0.31370(15)
C1_2 C 0.4366(5) 0.1115(5) 0.3119(2)
H1_2 H 0.4632 0.0864 0.2946
C2_2 C 0.3961(5) 0.0673(6) 0.3335(2)
H2_2 H 0.3959 0.0128 0.3310
C3_2 C 0.3550(5) 0.1012(5) 0.3591(2)
C4_2 C 0.3600(5) 0.1814(5) 0.3603(2)
H3_2 H 0.3338 0.2084 0.3773
C5_2 C 0.4016(5) 0.2224(6) 0.3378(2)
H4_2 H 0.4028 0.2771 0.3391
C6_2 C 0.3119(5) 0.0560(6) 0.3842(2)
H5_2 H 0.2707 0.0265 0.3730
H6_2 H 0.2865 0.0925 0.3994
C7_2 C 0.3595(5) 0.0010(5) 0.4038(2)
H7_2 H 0.3981 0.0303 0.4166
Cu3_2 Cu 0.5000 0.7500 0.52857(3)
Cl2_2 Cl 0.60833(12) 0.13877(13) 0.27837(6)
N3_2 N 0.5593(4) 0.3130(4) 0.31370(15)
C14_2 C 0.5634(5) 0.3885(5) 0.3119(2)
H15_2 H 0.5368 0.4136 0.2946
N4_2 N 0.5577(4) 0.6870(4) 0.49369(17)
C15_2 C 0.6039(5) 0.4327(6) 0.3335(2)
H16_2 H 0.6041 0.4872 0.3310
C16_2 C 0.6450(5) 0.3988(5) 0.3591(2)
C17_2 C 0.6400(5) 0.3186(5) 0.3603(2)
H17_2 H 0.6662 0.2916 0.3773
C18_2 C 0.5984(5) 0.2776(6) 0.3378(2)
H18_2 H 0.5972 0.2229 0.3391
C19_2 C 0.6881(5) 0.4440(6) 0.3842(2)
H19_2 H 0.7293 0.4735 0.3730
H20_2 H 0.7135 0.4075 0.3994
C20_2 C 0.6405(5) 0.4990(5) 0.4038(2)
H21_2 H 0.6019 0.4697 0.4166
H22_2 H 0.6125 0.5340 0.3888
C21_2 C 0.6906(6) 0.5471(6) 0.4273(2)
H23_2 H 0.7230 0.5116 0.4404
H24_2 H 0.7256 0.5800 0.4142
C22_2 C 0.6454(5) 0.5971(5) 0.44999(19)
C23_2 C 0.6420(6) 0.6777(6) 0.4479(2)
H25_2 H 0.6700 0.7036 0.4312
C24_2 C 0.5986(5) 0.7195(5) 0.4697(2)
H26_2 H 0.5976 0.7741 0.4676
C25_2 C 0.5600(5) 0.6088(5) 0.4955(2)
H27_2 H 0.5311 0.5839 0.5122
C26_2 C 0.6021(5) 0.5645(5) 0.4745(2)
H28_2 H 0.6015 0.5100 0.4769
N2_2 N 0.4423(4) 0.8130(4) 0.49369(17)
H8_2 H 0.3875 0.9660 0.3888
C8_2 C 0.3094(6) 0.9529(6) 0.4273(2)
H9_2 H 0.2770 0.9884 0.4404
H10_2 H 0.2744 0.9200 0.4142
C9_2 C 0.3546(5) 0.9029(5) 0.44999(19)
C10_2 C 0.3580(6) 0.8223(6) 0.4479(2)
H11_2 H 0.3300 0.7964 0.4312
C11_2 C 0.4014(5) 0.7805(5) 0.4697(2)
H12_2 H 0.4024 0.7259 0.4676
C12_2 C 0.4400(5) 0.8912(5) 0.4955(2)
H13_2 H 0.4689 0.9161 0.5122
C13_2 C 0.3979(5) 0.9355(5) 0.4745(2)
H14_2 H 0.3985 0.9900 0.4769
Cu3_3 Cu -0.0000 0.7500 0.77857(3)
H26_3 H 0.0241 0.6524 0.7176
Cl1_3 Cl 0.61123(13) 0.85833(12) 0.52837(6)
N1_3 N 0.4370(4) 0.8093(4) 0.56370(15)
C1_3 C 0.3615(5) 0.8134(5) 0.5619(2)
H1_3 H 0.3364 0.7868 0.5446
N2_3 N 0.0630(4) 0.8077(4) 0.74369(17)
C2_3 C 0.3173(6) 0.8539(5) 0.5835(2)
H2_3 H 0.2628 0.8541 0.5810
C3_3 C 0.3512(5) 0.8950(5) 0.6091(2)
C4_3 C 0.4314(5) 0.8900(5) 0.6103(2)
H3_3 H 0.4584 0.9162 0.6273
C5_3 C 0.4724(6) 0.8484(5) 0.5878(2)
H4_3 H 0.5271 0.8472 0.5891
C6_3 C 0.3060(6) 0.9381(5) 0.6342(2)
H5_3 H 0.2765 0.9793 0.6230
H6_3 H 0.3425 0.9635 0.6494
C7_3 C 0.2510(5) 0.8905(5) 0.6538(2)
H7_3 H 0.2803 0.8519 0.6666
H8_3 H 0.2160 0.8625 0.6388
C8_3 C 0.2029(6) 0.9406(6) 0.6773(2)
H9_3 H 0.2384 0.9730 0.6904
H10_3 H 0.1700 0.9756 0.6642
C9_3 C 0.1529(5) 0.8954(5) 0.69999(19)
C10_3 C 0.0723(6) 0.8920(6) 0.6979(2)
H11_3 H 0.0464 0.9200 0.6812
C11_3 C 0.0305(5) 0.8486(5) 0.7197(2)
C12_3 C 0.1412(5) 0.8100(5) 0.7455(2)
H13_3 H 0.1661 0.7811 0.7622
C13_3 C 0.1855(5) 0.8521(5) 0.7245(2)
H14_3 H 0.2400 0.8515 0.7269
Cu3_4 Cu 1.0000 0.7500 0.77857(3)
Cl2_3 Cl 0.38877(13) 0.64167(12) 0.52837(6)
N3_3 N 0.5630(4) 0.6907(4) 0.56370(15)
C14_3 C 0.6385(5) 0.6866(5) 0.5619(2)
H15_3 H 0.6636 0.7132 0.5446
N4_3 N 0.9370(4) 0.6923(4) 0.74369(17)
C15_3 C 0.6827(6) 0.6461(5) 0.5835(2)
H16_3 H 0.7372 0.6459 0.5810
C16_3 C 0.6488(5) 0.6050(5) 0.6091(2)
C17_3 C 0.5686(5) 0.6100(5) 0.6103(2)
H17_3 H 0.5416 0.5838 0.6273
C18_3 C 0.5276(6) 0.6516(5) 0.5878(2)
H18_3 H 0.4729 0.6528 0.5891
C19_3 C 0.6940(6) 0.5619(5) 0.6342(2)
H19_3 H 0.7235 0.5207 0.6230
H20_3 H 0.6575 0.5365 0.6494
C20_3 C 0.7490(5) 0.6095(5) 0.6538(2)
H21_3 H 0.7197 0.6481 0.6666
H22_3 H 0.7840 0.6375 0.6388
C21_3 C 0.7971(6) 0.5594(6) 0.6773(2)
H23_3 H 0.7616 0.5270 0.6904
H24_3 H 0.8300 0.5244 0.6642
C22_3 C 0.8471(5) 0.6046(5) 0.69999(19)
C23_3 C 0.9277(6) 0.6080(6) 0.6979(2)
H25_3 H 0.9536 0.5800 0.6812
C24_3 C 0.9695(5) 0.6514(5) 0.7197(2)
C25_3 C 0.8588(5) 0.6900(5) 0.7455(2)
H27_3 H 0.8339 0.7189 0.7622
C26_3 C 0.8145(5) 0.6479(5) 0.7245(2)
H28_3 H 0.7600 0.6485 0.7269
H12_3 H 0.9759 0.8476 0.7176
H27_4 H 0.0311 0.0839 0.0122
Cl2_4 Cl 0.10833(12) 0.63877(13) 0.77837(6)
N3_4 N 0.0593(4) 0.8130(4) 0.81370(15)
C14_4 C 0.0634(5) 0.8885(5) 0.8119(2)
H15_4 H 0.0368 0.9136 0.7946
C15_4 C 0.1039(5) 0.9327(6) 0.8335(2)
H16_4 H 0.1041 0.9872 0.8310
C16_4 C 0.1450(5) 0.8988(5) 0.8591(2)
C17_4 C 0.1400(5) 0.8186(5) 0.8603(2)
H17_4 H 0.1662 0.7916 0.8773
C18_4 C 0.0984(5) 0.7776(6) 0.8378(2)
H18_4 H 0.0972 0.7229 0.8391
C19_4 C 0.1881(5) 0.9440(6) 0.8842(2)
H19_4 H 0.2293 0.9735 0.8730
H20_4 H 0.2135 0.9075 0.8994
C20_4 C 0.1405(5) 0.9990(5) 0.9038(2)
H21_4 H 0.1019 0.9697 0.9166
H13_4 H 0.9689 0.4161 0.0122
Cl1_4 Cl 0.89167(12) 0.86123(13) 0.77837(6)
N1_4 N 0.9407(4) 0.6870(4) 0.81370(15)
C1_4 C 0.9366(5) 0.6115(5) 0.8119(2)
H1_4 H 0.9632 0.5864 0.7946
C2_4 C 0.8961(5) 0.5673(6) 0.8335(2)
H2_4 H 0.8959 0.5128 0.8310
C3_4 C 0.8550(5) 0.6012(5) 0.8591(2)
C4_4 C 0.8600(5) 0.6814(5) 0.8603(2)
H3_4 H 0.8338 0.7084 0.8773
C5_4 C 0.9016(5) 0.7224(6) 0.8378(2)
H4_4 H 0.9028 0.7771 0.8391
C6_4 C 0.8119(5) 0.5560(6) 0.8842(2)
H5_4 H 0.7707 0.5265 0.8730
H6_4 H 0.7865 0.5925 0.8994
C7_4 C 0.8595(5) 0.5010(5) 0.9038(2)
H7_4 H 0.8981 0.5303 0.9166
H8_4 H 0.8875 0.4660 0.8888
C8_4 C 0.8094(6) 0.4529(6) 0.9273(2)
H9_4 H 0.7770 0.4884 0.9404
H10_4 H 0.7744 0.4200 0.9142
C9_4 C 0.8546(5) 0.4029(5) 0.94999(19)
C10_4 C 0.8580(6) 0.3223(6) 0.9479(2)
H11_4 H 0.8300 0.2964 0.9312
C11_4 C 0.9014(5) 0.2805(5) 0.9697(2)
H12_4 H 0.9024 0.2259 0.9676
C12_4 C 0.9400(5) 0.3912(5) 0.9955(2)
C13_4 C 0.8979(5) 0.4355(5) 0.9745(2)
H14_4 H 0.8985 0.4900 0.9769
N6 N 0.0577(4) 0.1870(4) 0.99369(17)
H22_4 H 0.1125 0.0340 0.8888
C21_4 C 0.1906(6) 0.0471(6) 0.9273(2)
H23_4 H 0.2230 0.0116 0.9404
H24_4 H 0.2256 0.0800 0.9142
C22_4 C 0.1454(5) 0.0971(5) 0.94999(19)
C23_4 C 0.1420(6) 0.1777(6) 0.9479(2)
H25_4 H 0.1700 0.2036 0.9312
C24_4 C 0.0986(5) 0.2195(5) 0.9697(2)
H26_4 H 0.0976 0.2741 0.9676
C25_4 C 0.0600(5) 0.1088(5) 0.9955(2)
C26_4 C 0.1021(5) 0.0645(5) 0.9745(2)
H28_4 H 0.1015 0.0100 0.9769
N5_2 N 0.0577(4) 0.6870(4) 0.00631(17)
Cu1_3 Cu 0.0000 0.7500 0.97143(3)
N1_5 N 0.0630(4) 0.6907(4) 0.93630(15)
C1_5 C 0.1385(5) 0.6866(5) 0.9381(2)
H1_5 H 0.1636 0.7132 0.9554
N2_4 N 0.4370(4) 0.6923(4) 0.75631(17)
C2_5 C 0.1827(6) 0.6461(5) 0.9165(2)
H2_5 H 0.2372 0.6459 0.9190
C3_5 C 0.1488(5) 0.6050(5) 0.8909(2)
C4_5 C 0.0686(5) 0.6100(5) 0.8897(2)
H3_5 H 0.0416 0.5838 0.8727
C5_5 C 0.0276(6) 0.6516(5) 0.9122(2)
C6_5 C 0.1940(6) 0.5619(5) 0.8658(2)
H5_5 H 0.2235 0.5207 0.8770
H6_5 H 0.1575 0.5365 0.8506
C7_5 C 0.2490(5) 0.6095(5) 0.8462(2)
H7_5 H 0.2197 0.6481 0.8334
H8_5 H 0.2840 0.6375 0.8612
C8_5 C 0.2971(6) 0.5594(6) 0.8227(2)
H9_5 H 0.2616 0.5270 0.8096
H10_5 H 0.3300 0.5244 0.8358
C9_5 C 0.3471(5) 0.6046(5) 0.80001(19)
C10_5 C 0.4277(6) 0.6080(6) 0.8021(2)
H11_5 H 0.4536 0.5800 0.8188
C11_5 C 0.4695(5) 0.6514(5) 0.7803(2)
H12_5 H 0.5241 0.6524 0.7824
C12_5 C 0.3588(5) 0.6900(5) 0.7545(2)
H13_5 H 0.3339 0.7189 0.7378
C13_5 C 0.3145(5) 0.6479(5) 0.7755(2)
H14_5 H 0.2600 0.6485 0.7731
Cu2 Cu 0.5000 0.7500 0.72143(3)
Cl2_5 Cl 0.11123(13) 0.85833(12) 0.97163(6)
H18_5 H 0.0271 0.8472 0.9109
Cu1_4 Cu 1.0000 0.7500 0.97143(3)
Cl1_5 Cl 0.88877(13) 0.64167(12) 0.97163(6)
H4_5 H 0.9729 0.6528 0.9109
N3_5 N 0.9370(4) 0.8093(4) 0.93630(15)
C14_5 C 0.8615(5) 0.8134(5) 0.9381(2)
H15_5 H 0.8364 0.7868 0.9554
N4_4 N 0.5630(4) 0.8077(4) 0.75631(17)
C15_5 C 0.8173(6) 0.8539(5) 0.9165(2)
H16_5 H 0.7628 0.8541 0.9190
C16_5 C 0.8512(5) 0.8950(5) 0.8909(2)
C17_5 C 0.9314(5) 0.8900(5) 0.8897(2)
H17_5 H 0.9584 0.9162 0.8727
C18_5 C 0.9724(6) 0.8484(5) 0.9122(2)
C19_5 C 0.8060(6) 0.9381(5) 0.8658(2)
H19_5 H 0.7765 0.9793 0.8770
H20_5 H 0.8425 0.9635 0.8506
C20_5 C 0.7510(5) 0.8905(5) 0.8462(2)
H21_5 H 0.7803 0.8519 0.8334
H22_5 H 0.7160 0.8625 0.8612
C21_5 C 0.7029(6) 0.9406(6) 0.8227(2)
H23_5 H 0.7384 0.9730 0.8096
H24_5 H 0.6700 0.9756 0.8358
C22_5 C 0.6529(5) 0.8954(5) 0.80001(19)
C23_5 C 0.5723(6) 0.8920(6) 0.8021(2)
H25_5 H 0.5464 0.9200 0.8188
C24_5 C 0.5305(5) 0.8486(5) 0.7803(2)
H26_5 H 0.4759 0.8476 0.7824
C25_5 C 0.6412(5) 0.8100(5) 0.7545(2)
H27_5 H 0.6661 0.7811 0.7378
C26_5 C 0.6855(5) 0.8521(5) 0.7755(2)
H28_5 H 0.7400 0.8515 0.7731
N2_5 N 0.5577(4) 0.1870(4) 0.50631(17)
H8_6 H 0.6125 0.0340 0.6112
C8_6 C 0.6906(6) 0.0471(6) 0.5727(2)
H9_6 H 0.7230 0.0116 0.5596
H10_6 H 0.7256 0.0800 0.5858
C9_6 C 0.6454(5) 0.0971(5) 0.55001(19)
C10_6 C 0.6420(6) 0.1777(6) 0.5521(2)
H11_6 H 0.6700 0.2036 0.5688
C11_6 C 0.5986(5) 0.2195(5) 0.5303(2)
H12_6 H 0.5976 0.2741 0.5324
C12_6 C 0.5600(5) 0.1088(5) 0.5045(2)
H13_6 H 0.5311 0.0839 0.4878
C13_6 C 0.6021(5) 0.0645(5) 0.5255(2)
H14_6 H 0.6015 0.0100 0.5231
Cu2_2 Cu 0.5000 0.2500 0.47143(3)
Cl1_6 Cl 0.60833(12) 0.63877(13) 0.72163(6)
N1_6 N 0.5593(4) 0.8130(4) 0.68630(15)
C1_6 C 0.5634(5) 0.8885(5) 0.6881(2)
H1_6 H 0.5368 0.9136 0.7054
C2_6 C 0.6039(5) 0.9327(6) 0.6665(2)
H2_6 H 0.6041 0.9872 0.6690
C3_6 C 0.6450(5) 0.8988(5) 0.6409(2)
C4_6 C 0.6400(5) 0.8186(5) 0.6397(2)
H3_6 H 0.6662 0.7916 0.6227
C5_6 C 0.5984(5) 0.7776(6) 0.6622(2)
H4_6 H 0.5972 0.7229 0.6609
C6_6 C 0.6881(5) 0.9440(6) 0.6158(2)
H5_6 H 0.7293 0.9735 0.6270
H6_6 H 0.7135 0.9075 0.6006
C7_6 C 0.6405(5) 0.9990(5) 0.5962(2)
H7_6 H 0.6019 0.9697 0.5834
Cl2_6 Cl 0.39167(12) 0.86123(13) 0.72163(6)
N3_6 N 0.4407(4) 0.6870(4) 0.68630(15)
C14_6 C 0.4366(5) 0.6115(5) 0.6881(2)
H15_6 H 0.4632 0.5864 0.7054
N4_5 N 0.4423(4) 0.3130(4) 0.50631(17)
C15_6 C 0.3961(5) 0.5673(6) 0.6665(2)
H16_6 H 0.3959 0.5128 0.6690
C16_6 C 0.3550(5) 0.6012(5) 0.6409(2)
C17_6 C 0.3600(5) 0.6814(5) 0.6397(2)
H17_6 H 0.3338 0.7084 0.6227
C18_6 C 0.4016(5) 0.7224(6) 0.6622(2)
H18_6 H 0.4028 0.7771 0.6609
C19_6 C 0.3119(5) 0.5560(6) 0.6158(2)
H19_6 H 0.2707 0.5265 0.6270
H20_6 H 0.2865 0.5925 0.6006
C20_6 C 0.3595(5) 0.5010(5) 0.5962(2)
H21_6 H 0.3981 0.5303 0.5834
H22_6 H 0.3875 0.4660 0.6112
C21_6 C 0.3094(6) 0.4529(6) 0.5727(2)
H23_6 H 0.2770 0.4884 0.5596
H24_6 H 0.2744 0.4200 0.5858
C22_6 C 0.3546(5) 0.4029(5) 0.55001(19)
C23_6 C 0.3580(6) 0.3223(6) 0.5521(2)
H25_6 H 0.3300 0.2964 0.5688
C24_6 C 0.4014(5) 0.2805(5) 0.5303(2)
H26_6 H 0.4024 0.2259 0.5324
C25_6 C 0.4400(5) 0.3912(5) 0.5045(2)
H27_6 H 0.4689 0.4161 0.4878
C26_6 C 0.3979(5) 0.4355(5) 0.5255(2)
H28_6 H 0.3985 0.4900 0.5231
H12_7 H 0.0241 0.1524 0.2824
Cu2_3 Cu 0.0000 0.2500 0.22143(3)
Cl1_7 Cl 0.38877(13) 0.14167(12) 0.47163(6)
N1_7 N 0.5630(4) 0.1907(4) 0.43630(15)
C1_7 C 0.6385(5) 0.1866(5) 0.4381(2)
H1_7 H 0.6636 0.2132 0.4554
N2_6 N 0.9370(4) 0.1923(4) 0.25631(17)
C2_7 C 0.6827(6) 0.1461(5) 0.4165(2)
H2_7 H 0.7372 0.1459 0.4190
C3_7 C 0.6488(5) 0.1050(5) 0.3909(2)
C4_7 C 0.5686(5) 0.1100(5) 0.3897(2)
H3_7 H 0.5416 0.0838 0.3727
C5_7 C 0.5276(6) 0.1516(5) 0.4122(2)
H4_7 H 0.4729 0.1528 0.4109
C6_7 C 0.6940(6) 0.0619(5) 0.3658(2)
H5_7 H 0.7235 0.0207 0.3770
H6_7 H 0.6575 0.0365 0.3506
C7_7 C 0.7490(5) 0.1095(5) 0.3462(2)
H7_7 H 0.7197 0.1481 0.3334
H8_7 H 0.7840 0.1375 0.3612
C8_7 C 0.7971(6) 0.0594(6) 0.3227(2)
H9_7 H 0.7616 0.0270 0.3096
H10_7 H 0.8300 0.0244 0.3358
C9_7 C 0.8471(5) 0.1046(5) 0.30001(19)
C10_7 C 0.9277(6) 0.1080(6) 0.3021(2)
H11_7 H 0.9536 0.0800 0.3188
C11_7 C 0.9695(5) 0.1514(5) 0.2803(2)
C12_7 C 0.8588(5) 0.1900(5) 0.2545(2)
H13_7 H 0.8339 0.2189 0.2378
C13_7 C 0.8145(5) 0.1479(5) 0.2755(2)
H14_7 H 0.7600 0.1485 0.2731
Cu2_4 Cu 1.0000 0.2500 0.22143(3)
Cl2_7 Cl 0.61123(13) 0.35833(12) 0.47163(6)
N3_7 N 0.4370(4) 0.3093(4) 0.43630(15)
C14_7 C 0.3615(5) 0.3134(5) 0.4381(2)
H15_7 H 0.3364 0.2868 0.4554
N4_6 N 0.0630(4) 0.3077(4) 0.25631(17)
C15_7 C 0.3173(6) 0.3539(5) 0.4165(2)
H16_7 H 0.2628 0.3541 0.4190
C16_7 C 0.3512(5) 0.3950(5) 0.3909(2)
C17_7 C 0.4314(5) 0.3900(5) 0.3897(2)
H17_7 H 0.4584 0.4162 0.3727
C18_7 C 0.4724(6) 0.3484(5) 0.4122(2)
H18_7 H 0.5271 0.3472 0.4109
C19_7 C 0.3060(6) 0.4381(5) 0.3658(2)
H19_7 H 0.2765 0.4793 0.3770
H20_7 H 0.3425 0.4635 0.3506
C20_7 C 0.2510(5) 0.3905(5) 0.3462(2)
H21_7 H 0.2803 0.3519 0.3334
H22_7 H 0.2160 0.3625 0.3612
C21_7 C 0.2029(6) 0.4406(6) 0.3227(2)
H23_7 H 0.2384 0.4730 0.3096
H24_7 H 0.1700 0.4756 0.3358
C22_7 C 0.1529(5) 0.3954(5) 0.30001(19)
C23_7 C 0.0723(6) 0.3920(6) 0.3021(2)
H25_7 H 0.0464 0.4200 0.3188
C24_7 C 0.0305(5) 0.3486(5) 0.2803(2)
C25_7 C 0.1412(5) 0.3100(5) 0.2545(2)
H27_7 H 0.1661 0.2811 0.2378
C26_7 C 0.1855(5) 0.3521(5) 0.2755(2)
H28_7 H 0.2400 0.3515 0.2731
H26_7 H 0.9759 0.3476 0.2824
Cl1_8 Cl 0.10833(12) 0.13877(13) 0.22163(6)
N1_8 N 0.0593(4) 0.3130(4) 0.18630(15)
C1_8 C 0.0634(5) 0.3885(5) 0.1881(2)
H1_8 H 0.0368 0.4136 0.2054
C2_8 C 0.1039(5) 0.4327(6) 0.1665(2)
H2_8 H 0.1041 0.4872 0.1690
C3_8 C 0.1450(5) 0.3988(5) 0.1409(2)
C4_8 C 0.1400(5) 0.3186(5) 0.1397(2)
H3_8 H 0.1662 0.2916 0.1227
C5_8 C 0.0984(5) 0.2776(6) 0.1622(2)
H4_8 H 0.0972 0.2229 0.1609
C6_8 C 0.1881(5) 0.4440(6) 0.1158(2)
H5_8 H 0.2293 0.4735 0.1270
H6_8 H 0.2135 0.4075 0.1006
C7_8 C 0.1405(5) 0.4990(5) 0.0962(2)
H7_8 H 0.1019 0.4697 0.0834
H8_8 H 0.1125 0.5340 0.1112
C8_8 C 0.1906(6) 0.5471(6) 0.0727(2)
H9_8 H 0.2230 0.5116 0.0596
H10_8 H 0.2256 0.5800 0.0858
C9_8 C 0.1454(5) 0.5971(5) 0.05001(19)
C10_8 C 0.1420(6) 0.6777(6) 0.0521(2)
H11_8 H 0.1700 0.7036 0.0688
C11_8 C 0.0986(5) 0.7195(5) 0.0303(2)
H12_8 H 0.0976 0.7741 0.0324
C12_8 C 0.0600(5) 0.6088(5) 0.0045(2)
C13_8 C 0.1021(5) 0.5645(5) 0.0255(2)
H14_8 H 0.1015 0.5100 0.0231
H13_8 H 0.0311 0.5839 0.9878
Cl2_8 Cl 0.89167(12) 0.36123(13) 0.22163(6)
N3_8 N 0.9407(4) 0.1870(4) 0.18630(15)
C14_8 C 0.9366(5) 0.1115(5) 0.1881(2)
H15_8 H 0.9632 0.0864 0.2054
C15_8 C 0.8961(5) 0.0673(6) 0.1665(2)
H16_8 H 0.8959 0.0128 0.1690
C16_8 C 0.8550(5) 0.1012(5) 0.1409(2)
C17_8 C 0.8600(5) 0.1814(5) 0.1397(2)
H17_8 H 0.8338 0.2084 0.1227
C18_8 C 0.9016(5) 0.2224(6) 0.1622(2)
H18_8 H 0.9028 0.2771 0.1609
C19_8 C 0.8119(5) 0.0560(6) 0.1158(2)
H19_8 H 0.7707 0.0265 0.1270
H20_8 H 0.7865 0.0925 0.1006
C20_8 C 0.8595(5) 0.0010(5) 0.0962(2)
H21_8 H 0.8981 0.0303 0.0834
H27_8 H 0.9689 0.9161 0.9878
N6_2 N 0.9423(4) 0.8130(4) 0.00631(17)
H22_8 H 0.8875 0.9660 0.1112
C21_8 C 0.8094(6) 0.9529(6) 0.0727(2)
H23_8 H 0.7770 0.9884 0.0596
H24_8 H 0.7744 0.9200 0.0858
C22_8 C 0.8546(5) 0.9029(5) 0.05001(19)
C23_8 C 0.8580(6) 0.8223(6) 0.0521(2)
H25_8 H 0.8300 0.7964 0.0688
C24_8 C 0.9014(5) 0.7805(5) 0.0303(2)
H26_8 H 0.9024 0.7259 0.0324
C25_8 C 0.9400(5) 0.8912(5) 0.0045(2)
C26_8 C 0.8979(5) 0.9355(5) 0.0255(2)
H28_8 H 0.8985 0.9900 0.0231
Cu6 Cu -0.0000 0.7500 0.58487(4)
H54 H 0.0217 0.8500 0.5260
Cu4 Cu 0.5000 0.7500 0.33487(4)
N7 N 0.4397(5) 0.6911(6) 0.36983(19)
N8 N 0.0637(6) 0.6959(6) 0.5502(2)
C27 C 0.4745(6) 0.6536(7) 0.3942(3)
H29 H 0.5292 0.6554 0.3957
C28 C 0.4329(6) 0.6118(8) 0.4177(3)
H30 H 0.4599 0.5847 0.4344
C29 C 0.3624(6) 0.6868(8) 0.3685(3)
H31 H 0.3358 0.7127 0.3514
C30 C 0.3208(5) 0.6461(7) 0.3912(3)
H32 H 0.2663 0.6430 0.3891
C31 C 0.3568(6) 0.6093(6) 0.4170(2)
C32 C 0.3103(7) 0.5598(8) 0.4408(3)
H33 H 0.3460 0.5343 0.4563
H34 H 0.2829 0.5191 0.4284
C33 C 0.2502(7) 0.6089(7) 0.4604(3)
H35 H 0.2774 0.6505 0.4723
H36 H 0.2136 0.6333 0.4450
C34 C 0.2059(7) 0.5601(8) 0.4845(3)
H37 H 0.2432 0.5307 0.4980
H38 H 0.1744 0.5224 0.4722
C35 C 0.1523(7) 0.6065(7) 0.5076(3)
C36 C 0.0774(8) 0.6046(8) 0.5048(4)
H39 H 0.0528 0.5740 0.4886
C37 C 0.0330(10) 0.6515(7) 0.5276(3)
C38 C 0.1402(9) 0.6970(7) 0.5515(3)
H41 H 0.1626 0.7307 0.5672
C39 C 0.1904(2) 0.65470(19) 0.53276(8)
H42 H 0.2448 0.6563 0.5356
Cu6_2 Cu 1.0000 0.7500 0.58487(4)
N9 N 0.5603(5) 0.8089(6) 0.36983(19)
N10 N 0.9363(6) 0.8041(6) 0.5502(2)
N11 N 0.4459(6) 0.6863(6) 0.3002(2)
N12 N 0.5541(6) 0.8137(6) 0.3002(2)
C40 C 0.5255(6) 0.8464(7) 0.3942(3)
H43 H 0.4708 0.8446 0.3957
C41 C 0.5671(6) 0.8882(8) 0.4177(3)
H44 H 0.5401 0.9153 0.4344
C42 C 0.6376(6) 0.8132(8) 0.3685(3)
H45 H 0.6642 0.7873 0.3514
C43 C 0.6792(5) 0.8539(7) 0.3912(3)
H46 H 0.7337 0.8570 0.3891
C44 C 0.6432(6) 0.8907(6) 0.4170(2)
C45 C 0.6897(7) 0.9402(8) 0.4408(3)
H47 H 0.6540 0.9657 0.4563
H48 H 0.7171 0.9809 0.4284
C46 C 0.7498(7) 0.8911(7) 0.4604(3)
H49 H 0.7226 0.8495 0.4723
H50 H 0.7864 0.8667 0.4450
C47 C 0.7941(7) 0.9399(8) 0.4845(3)
H51 H 0.7568 0.9693 0.4980
H52 H 0.8256 0.9776 0.4722
C48 C 0.8477(7) 0.8935(7) 0.5076(3)
C49 C 0.9226(8) 0.8954(8) 0.5048(4)
H53 H 0.9472 0.9260 0.4886
C50 C 0.9670(10) 0.8485(7) 0.5276(3)
C51 C 0.8598(9) 0.8030(7) 0.5515(3)
H55 H 0.8374 0.7693 0.5672
C52 C 0.8096(2) 0.84530(19) 0.53276(8)
H56 H 0.7552 0.8437 0.5356
H40 H 0.9783 0.6500 0.5260
Cu6_3 Cu 0.0000 0.2500 0.83487(4)
N7_2 N 0.0589(6) 0.6897(5) 0.61983(19)
N8_2 N 0.0541(6) 0.3137(6) 0.8002(2)
C27_2 C 0.0964(7) 0.7245(6) 0.6442(3)
H29_2 H 0.0946 0.7792 0.6457
C28_2 C 0.1382(8) 0.6829(6) 0.6677(3)
H30_2 H 0.1653 0.7099 0.6844
C29_2 C 0.0632(8) 0.6124(6) 0.6185(3)
H31_2 H 0.0373 0.5858 0.6014
C30_2 C 0.1039(7) 0.5708(5) 0.6412(3)
H32_2 H 0.1070 0.5163 0.6391
C31_2 C 0.1407(6) 0.6068(6) 0.6670(2)
C32_2 C 0.1902(8) 0.5603(7) 0.6908(3)
H33_2 H 0.2157 0.5960 0.7063
H34_2 H 0.2309 0.5329 0.6784
C33_2 C 0.1411(7) 0.5002(7) 0.7104(3)
H35_2 H 0.0995 0.5274 0.7223
H36_2 H 0.1167 0.4636 0.6950
C34_2 C 0.1899(8) 0.4559(7) 0.7345(3)
H37_2 H 0.2193 0.4932 0.7480
H38_2 H 0.2276 0.4244 0.7222
C35_2 C 0.1435(7) 0.4023(7) 0.7576(3)
C36_2 C 0.1454(8) 0.3274(8) 0.7548(4)
H39_2 H 0.1760 0.3028 0.7386
C37_2 C 0.0985(7) 0.2830(10) 0.7776(3)
H40_2 H 0.1000 0.2283 0.7760
C38_2 C 0.0530(7) 0.3902(9) 0.8015(3)
H41_2 H 0.0193 0.4126 0.8172
C39_2 C 0.09530(19) 0.4404(2) 0.78276(8)
H42_2 H 0.0937 0.4948 0.7856
Cu6_4 Cu 1.0000 0.2500 0.83487(4)
N10_2 N 0.9459(6) 0.1863(6) 0.8002(2)
H50_2 H 0.8833 0.0364 0.6950
C47_2 C 0.8101(8) 0.0441(7) 0.7345(3)
H51_2 H 0.7807 0.0068 0.7480
H52_2 H 0.7724 0.0756 0.7222
C48_2 C 0.8565(7) 0.0977(7) 0.7576(3)
C49_2 C 0.8546(8) 0.1726(8) 0.7548(4)
H53_2 H 0.8240 0.1972 0.7386
C50_2 C 0.9015(7) 0.2170(10) 0.7776(3)
H54_2 H 0.9000 0.2717 0.7760
C51_2 C 0.9470(7) 0.1098(9) 0.8015(3)
H55_2 H 0.9807 0.0874 0.8172
C52_2 C 0.90470(19) 0.0596(2) 0.78276(8)
H56_2 H 0.9063 0.0052 0.7856
N9_2 N 0.9411(6) 0.8103(5) 0.61983(19)
C40_2 C 0.9036(7) 0.7755(6) 0.6442(3)
H43_2 H 0.9054 0.7208 0.6457
C41_2 C 0.8618(8) 0.8171(6) 0.6677(3)
H44_2 H 0.8347 0.7901 0.6844
C42_2 C 0.9368(8) 0.8876(6) 0.6185(3)
H45_2 H 0.9627 0.9142 0.6014
C43_2 C 0.8961(7) 0.9292(5) 0.6412(3)
H46_2 H 0.8930 0.9837 0.6391
C44_2 C 0.8593(6) 0.8932(6) 0.6670(2)
C45_2 C 0.8098(8) 0.9397(7) 0.6908(3)
H47_2 H 0.7843 0.9040 0.7063
H48_2 H 0.7691 0.9671 0.6784
C46_2 C 0.8589(7) 0.9998(7) 0.7104(3)
H49_2 H 0.9005 0.9726 0.7223
Cu6_5 Cu 0.5000 0.2500 0.08487(4)
N10_3 N 0.4363(6) 0.3041(6) 0.0502(2)
C48_3 C 0.3477(7) 0.3935(7) 0.0076(3)
C49_3 C 0.4226(8) 0.3954(8) 0.0048(4)
C50_3 C 0.4670(10) 0.3485(7) 0.0276(3)
H54_3 H 0.5217 0.3500 0.0260
C51_3 C 0.3598(9) 0.3030(7) 0.0515(3)
H55_3 H 0.3374 0.2693 0.0672
C52_3 C 0.3096(2) 0.34530(19) 0.03276(8)
H56_3 H 0.2552 0.3437 0.0356
H29_3 H 0.0292 0.1554 0.8957
N9_3 N 0.0603(5) 0.3089(6) 0.86983(19)
C40_3 C 0.0255(6) 0.3464(7) 0.8942(3)
C41_3 C 0.0671(6) 0.3882(8) 0.9177(3)
H44_3 H 0.0401 0.4153 0.9344
C42_3 C 0.1376(6) 0.3132(8) 0.8685(3)
H45_3 H 0.1642 0.2873 0.8514
C43_3 C 0.1792(5) 0.3539(7) 0.8912(3)
H46_3 H 0.2337 0.3570 0.8891
C44_3 C 0.1432(6) 0.3907(6) 0.9170(2)
C45_3 C 0.1897(7) 0.4402(8) 0.9408(3)
H47_3 H 0.1540 0.4657 0.9563
H48_3 H 0.2171 0.4809 0.9284
C46_3 C 0.2498(7) 0.3911(7) 0.9604(3)
H49_3 H 0.2226 0.3495 0.9723
H50_3 H 0.2864 0.3667 0.9450
C47_3 C 0.2941(7) 0.4399(8) 0.9845(3)
H51_3 H 0.2568 0.4693 0.9980
H52_3 H 0.3256 0.4776 0.9722
H53_3 H 0.4472 0.4260 0.9886
N8_3 N 0.5637(6) 0.1959(6) 0.0502(2)
C35_3 C 0.6523(7) 0.1065(7) 0.0076(3)
C36_3 C 0.5774(8) 0.1046(8) 0.0048(4)
C37_3 C 0.5330(10) 0.1515(7) 0.0276(3)
H40_3 H 0.4783 0.1500 0.0260
C38_3 C 0.6402(9) 0.1970(7) 0.0515(3)
H41_3 H 0.6626 0.2307 0.0672
C39_3 C 0.6904(2) 0.15470(19) 0.03276(8)
H42_3 H 0.7448 0.1563 0.0356
N7_3 N 0.9397(5) 0.1911(6) 0.86983(19)
C27_3 C 0.9745(6) 0.1536(7) 0.8942(3)
C28_3 C 0.9329(6) 0.1118(8) 0.9177(3)
H30_3 H 0.9599 0.0847 0.9344
C29_3 C 0.8624(6) 0.1868(8) 0.8685(3)
H31_3 H 0.8358 0.2127 0.8514
C30_3 C 0.8208(5) 0.1461(7) 0.8912(3)
H32_3 H 0.7663 0.1430 0.8891
C31_3 C 0.8568(6) 0.1093(6) 0.9170(2)
C32_3 C 0.8103(7) 0.0598(8) 0.9408(3)
H33_3 H 0.8460 0.0343 0.9563
H34_3 H 0.7829 0.0191 0.9284
C33_3 C 0.7502(7) 0.1089(7) 0.9604(3)
H35_3 H 0.7774 0.1505 0.9723
H36_3 H 0.7136 0.1333 0.9450
C34_3 C 0.7059(7) 0.0601(8) 0.9845(3)
H37_3 H 0.7432 0.0307 0.9980
H38_3 H 0.6744 0.0224 0.9722
H39_3 H 0.5528 0.0740 0.9886
H43_3 H 0.9708 0.3446 0.8957
N7_4 N 0.5589(6) 0.1897(5) 0.11983(19)
C27_4 C 0.5964(7) 0.2245(6) 0.1442(3)
H29_4 H 0.5946 0.2792 0.1457
C28_4 C 0.6382(8) 0.1829(6) 0.1677(3)
H30_4 H 0.6653 0.2099 0.1844
C29_4 C 0.5632(8) 0.1124(6) 0.1185(3)
H31_4 H 0.5373 0.0858 0.1014
C30_4 C 0.6039(7) 0.0708(5) 0.1412(3)
H32_4 H 0.6070 0.0163 0.1391
C31_4 C 0.6407(6) 0.1068(6) 0.1670(2)
C32_4 C 0.6902(8) 0.0603(7) 0.1908(3)
H33_4 H 0.7157 0.0960 0.2063
H34_4 H 0.7309 0.0329 0.1784
C33_4 C 0.6411(7) 0.0002(7) 0.2104(3)
H35_4 H 0.5995 0.0274 0.2223
N9_4 N 0.4411(6) 0.3103(5) 0.11983(19)
C40_4 C 0.4036(7) 0.2755(6) 0.1442(3)
H43_4 H 0.4054 0.2208 0.1457
C41_4 C 0.3618(8) 0.3171(6) 0.1677(3)
H44_4 H 0.3347 0.2901 0.1844
C42_4 C 0.4368(8) 0.3876(6) 0.1185(3)
H45_4 H 0.4627 0.4142 0.1014
C43_4 C 0.3961(7) 0.4292(5) 0.1412(3)
H46_4 H 0.3930 0.4837 0.1391
C44_4 C 0.3593(6) 0.3932(6) 0.1670(2)
C45_4 C 0.3098(8) 0.4397(7) 0.1908(3)
H47_4 H 0.2843 0.4040 0.2063
H48_4 H 0.2691 0.4671 0.1784
C46_4 C 0.3589(7) 0.4998(7) 0.2104(3)
H49_4 H 0.4005 0.4726 0.2223
H50_4 H 0.3833 0.5364 0.1950
C47_4 C 0.3101(8) 0.5441(7) 0.2345(3)
H51_4 H 0.2807 0.5068 0.2480
H52_4 H 0.2724 0.5756 0.2222
C48_4 C 0.3565(7) 0.5977(7) 0.2576(3)
C49_4 C 0.3546(8) 0.6726(8) 0.2548(4)
H53_4 H 0.3240 0.6972 0.2386
C50_4 C 0.4015(7) 0.7170(10) 0.2776(3)
H54_4 H 0.4000 0.7717 0.2760
C51_4 C 0.4470(7) 0.6098(9) 0.3015(3)
H55_4 H 0.4807 0.5874 0.3172
C52_4 C 0.40470(19) 0.5596(2) 0.28276(8)
H56_4 H 0.4063 0.5052 0.2856
H36_4 H 0.6167 0.9636 0.1950
C34_4 C 0.6899(8) 0.9559(7) 0.2345(3)
H37_4 H 0.7193 0.9932 0.2480
H38_4 H 0.7276 0.9244 0.2222
C35_4 C 0.6435(7) 0.9023(7) 0.2576(3)
C36_4 C 0.6454(8) 0.8274(8) 0.2548(4)
H39_4 H 0.6760 0.8028 0.2386
C37_4 C 0.5985(7) 0.7830(10) 0.2776(3)
H40_4 H 0.6000 0.7283 0.2760
C38_4 C 0.5530(7) 0.8902(9) 0.3015(3)
H41_4 H 0.5193 0.9126 0.3172
C39_4 C 0.59530(19) 0.9404(2) 0.28276(8)
H42_4 H 0.5937 0.9948 0.2856
H40_5 H 0.0217 0.3500 0.4740
Cu5 Cu -0.0000 0.2500 0.41513(4)
Cu4_2 Cu 0.5000 0.2500 0.66513(4)
N7_5 N 0.5603(5) 0.3089(6) 0.63017(19)
N8_4 N 0.9363(6) 0.3041(6) 0.4498(2)
C27_5 C 0.5255(6) 0.3464(7) 0.6058(3)
H29_5 H 0.4708 0.3446 0.6043
C28_5 C 0.5671(6) 0.3882(8) 0.5823(3)
H30_5 H 0.5401 0.4153 0.5656
C29_5 C 0.6376(6) 0.3132(8) 0.6315(3)
H31_5 H 0.6642 0.2873 0.6486
C30_5 C 0.6792(5) 0.3539(7) 0.6088(3)
H32_5 H 0.7337 0.3570 0.6109
C31_5 C 0.6432(6) 0.3907(6) 0.5830(2)
C32_5 C 0.6897(7) 0.4402(8) 0.5592(3)
H33_5 H 0.6540 0.4657 0.5437
H34_5 H 0.7171 0.4809 0.5716
C33_5 C 0.7498(7) 0.3911(7) 0.5396(3)
H35_5 H 0.7226 0.3495 0.5277
H36_5 H 0.7864 0.3667 0.5550
C34_5 C 0.7941(7) 0.4399(8) 0.5155(3)
H37_5 H 0.7568 0.4693 0.5020
H38_5 H 0.8256 0.4776 0.5278
C35_5 C 0.8477(7) 0.3935(7) 0.4924(3)
C36_5 C 0.9226(8) 0.3954(8) 0.4952(4)
H39_5 H 0.9472 0.4260 0.5114
C37_5 C 0.9670(10) 0.3485(7) 0.4724(3)
C38_5 C 0.8598(9) 0.3030(7) 0.4485(3)
H41_5 H 0.8374 0.2693 0.4328
C39_5 C 0.8096(2) 0.34530(19) 0.46724(8)
H42_5 H 0.7552 0.3437 0.4644
Cu5_2 Cu 1.0000 0.2500 0.41513(4)
N9_5 N 0.4397(5) 0.1911(6) 0.63017(19)
N10_4 N 0.0637(6) 0.1959(6) 0.4498(2)
N11_2 N 0.5541(6) 0.3137(6) 0.6998(2)
N12_2 N 0.4459(6) 0.1863(6) 0.6998(2)
C40_5 C 0.4745(6) 0.1536(7) 0.6058(3)
H43_5 H 0.5292 0.1554 0.6043
C41_5 C 0.4329(6) 0.1118(8) 0.5823(3)
H44_5 H 0.4599 0.0847 0.5656
C42_5 C 0.3624(6) 0.1868(8) 0.6315(3)
H45_5 H 0.3358 0.2127 0.6486
C43_5 C 0.3208(5) 0.1461(7) 0.6088(3)
H46_5 H 0.2663 0.1430 0.6109
C44_5 C 0.3568(6) 0.1093(6) 0.5830(2)
C45_5 C 0.3103(7) 0.0598(8) 0.5592(3)
H47_5 H 0.3460 0.0343 0.5437
H48_5 H 0.2829 0.0191 0.5716
C46_5 C 0.2502(7) 0.1089(7) 0.5396(3)
H49_5 H 0.2774 0.1505 0.5277
H50_5 H 0.2136 0.1333 0.5550
C47_5 C 0.2059(7) 0.0601(8) 0.5155(3)
H51_5 H 0.2432 0.0307 0.5020
H52_5 H 0.1744 0.0224 0.5278
C48_5 C 0.1523(7) 0.1065(7) 0.4924(3)
C49_5 C 0.0774(8) 0.1046(8) 0.4952(4)
H53_5 H 0.0528 0.0740 0.5114
C50_5 C 0.0330(10) 0.1515(7) 0.4724(3)
C51_5 C 0.1402(9) 0.1970(7) 0.4485(3)
H55_5 H 0.1626 0.2307 0.4328
C52_5 C 0.1904(2) 0.15470(19) 0.46724(8)
H56_5 H 0.2448 0.1563 0.4644
H54_5 H 0.9783 0.1500 0.4740
Cu5_3 Cu 0.0000 0.7500 0.16513(4)
N9_6 N 0.0589(6) 0.1897(5) 0.38017(19)
C40_6 C 0.0964(7) 0.2245(6) 0.3558(3)
H43_6 H 0.0946 0.2792 0.3543
C41_6 C 0.1382(8) 0.1829(6) 0.3323(3)
H44_6 H 0.1653 0.2099 0.3156
C42_6 C 0.0632(8) 0.1124(6) 0.3815(3)
H45_6 H 0.0373 0.0858 0.3986
C43_6 C 0.1039(7) 0.0708(5) 0.3588(3)
H46_6 H 0.1070 0.0163 0.3609
C44_6 C 0.1407(6) 0.1068(6) 0.3330(2)
C45_6 C 0.1902(8) 0.0603(7) 0.3092(3)
H47_6 H 0.2157 0.0960 0.2937
H48_6 H 0.2309 0.0329 0.3216
C46_6 C 0.1411(7) 0.0002(7) 0.2896(3)
H49_6 H 0.0995 0.0274 0.2777
N10_5 N 0.0541(6) 0.8137(6) 0.1998(2)
H50_6 H 0.1167 0.9636 0.3050
C47_6 C 0.1899(8) 0.9559(7) 0.2655(3)
H51_6 H 0.2193 0.9932 0.2520
H52_6 H 0.2276 0.9244 0.2778
C48_6 C 0.1435(7) 0.9023(7) 0.2424(3)
C49_6 C 0.1454(8) 0.8274(8) 0.2452(4)
H53_6 H 0.1760 0.8028 0.2614
C50_6 C 0.0985(7) 0.7830(10) 0.2224(3)
H54_6 H 0.1000 0.7283 0.2240
C51_6 C 0.0530(7) 0.8902(9) 0.1985(3)
H55_6 H 0.0193 0.9126 0.1828
C52_6 C 0.09530(19) 0.9404(2) 0.21724(8)
H56_6 H 0.0937 0.9948 0.2144
N7_6 N 0.9411(6) 0.3103(5) 0.38017(19)
N8_5 N 0.9459(6) 0.6863(6) 0.1998(2)
C27_6 C 0.9036(7) 0.2755(6) 0.3558(3)
H29_6 H 0.9054 0.2208 0.3543
C28_6 C 0.8618(8) 0.3171(6) 0.3323(3)
H30_6 H 0.8347 0.2901 0.3156
C29_6 C 0.9368(8) 0.3876(6) 0.3815(3)
H31_6 H 0.9627 0.4142 0.3986
C30_6 C 0.8961(7) 0.4292(5) 0.3588(3)
H32_6 H 0.8930 0.4837 0.3609
C31_6 C 0.8593(6) 0.3932(6) 0.3330(2)
C32_6 C 0.8098(8) 0.4397(7) 0.3092(3)
H33_6 H 0.7843 0.4040 0.2937
H34_6 H 0.7691 0.4671 0.3216
C33_6 C 0.8589(7) 0.4998(7) 0.2896(3)
H35_6 H 0.9005 0.4726 0.2777
H36_6 H 0.8833 0.5364 0.3050
C34_6 C 0.8101(8) 0.5441(7) 0.2655(3)
H37_6 H 0.7807 0.5068 0.2520
H38_6 H 0.7724 0.5756 0.2778
C35_6 C 0.8565(7) 0.5977(7) 0.2424(3)
C36_6 C 0.8546(8) 0.6726(8) 0.2452(4)
H39_6 H 0.8240 0.6972 0.2614
C37_6 C 0.9015(7) 0.7170(10) 0.2224(3)
H40_6 H 0.9000 0.7717 0.2240
C38_6 C 0.9470(7) 0.6098(9) 0.1985(3)
H41_6 H 0.9807 0.5874 0.1828
C39_6 C 0.90470(19) 0.5596(2) 0.21724(8)
H42_6 H 0.9063 0.5052 0.2144
Cu5_4 Cu 1.0000 0.7500 0.16513(4)
N7_7 N 0.0603(5) 0.8089(6) 0.13017(19)
C27_7 C 0.0255(6) 0.8464(7) 0.1058(3)
C28_7 C 0.0671(6) 0.8882(8) 0.0823(3)
H30_7 H 0.0401 0.9153 0.0656
C29_7 C 0.1376(6) 0.8132(8) 0.1315(3)
H31_7 H 0.1642 0.7873 0.1486
C30_7 C 0.1792(5) 0.8539(7) 0.1088(3)
H32_7 H 0.2337 0.8570 0.1109
C31_7 C 0.1432(6) 0.8907(6) 0.0830(2)
C32_7 C 0.1897(7) 0.9402(8) 0.0592(3)
H33_7 H 0.1540 0.9657 0.0437
H34_7 H 0.2171 0.9809 0.0716
C33_7 C 0.2498(7) 0.8911(7) 0.0396(3)
H35_7 H 0.2226 0.8495 0.0277
H36_7 H 0.2864 0.8667 0.0550
C34_7 C 0.2941(7) 0.9399(8) 0.0155(3)
H37_7 H 0.2568 0.9693 0.0020
H38_7 H 0.3256 0.9776 0.0278
H39_7 H 0.4472 0.9260 0.0114
H43_7 H 0.0292 0.6554 0.1043
N8_6 N 0.4363(6) 0.8041(6) 0.9498(2)
C35_7 C 0.3477(7) 0.8935(7) 0.9924(3)
C36_7 C 0.4226(8) 0.8954(8) 0.9952(4)
C37_7 C 0.4670(10) 0.8485(7) 0.9724(3)
H40_7 H 0.5217 0.8500 0.9740
C38_7 C 0.3598(9) 0.8030(7) 0.9485(3)
H41_7 H 0.3374 0.7693 0.9328
C39_7 C 0.3096(2) 0.84530(19) 0.96724(8)
H42_7 H 0.2552 0.8437 0.9644
Cu5_5 Cu 0.5000 0.7500 0.91513(4)
H29_7 H 0.9708 0.8446 0.1043
N9_7 N 0.9397(5) 0.6911(6) 0.13017(19)
C40_7 C 0.9745(6) 0.6536(7) 0.1058(3)
C41_7 C 0.9329(6) 0.6118(8) 0.0823(3)
H44_7 H 0.9599 0.5847 0.0656
C42_7 C 0.8624(6) 0.6868(8) 0.1315(3)
H45_7 H 0.8358 0.7127 0.1486
C43_7 C 0.8208(5) 0.6461(7) 0.1088(3)
H46_7 H 0.7663 0.6430 0.1109
C44_7 C 0.8568(6) 0.6093(6) 0.0830(2)
C45_7 C 0.8103(7) 0.5598(8) 0.0592(3)
H47_7 H 0.8460 0.5343 0.0437
H48_7 H 0.7829 0.5191 0.0716
C46_7 C 0.7502(7) 0.6089(7) 0.0396(3)
H49_7 H 0.7774 0.6505 0.0277
H50_7 H 0.7136 0.6333 0.0550
C47_7 C 0.7059(7) 0.5601(8) 0.0155(3)
H51_7 H 0.7432 0.5307 0.0020
H52_7 H 0.6744 0.5224 0.0278
H53_7 H 0.5528 0.5740 0.0114
N10_6 N 0.5637(6) 0.6959(6) 0.9498(2)
C48_7 C 0.6523(7) 0.6065(7) 0.9924(3)
C49_7 C 0.5774(8) 0.6046(8) 0.9952(4)
C50_7 C 0.5330(10) 0.6515(7) 0.9724(3)
H54_7 H 0.4783 0.6500 0.9740
C51_7 C 0.6402(9) 0.6970(7) 0.9485(3)
H55_7 H 0.6626 0.7307 0.9328
C52_7 C 0.6904(2) 0.65470(19) 0.96724(8)
H56_7 H 0.7448 0.6563 0.9644
H36_8 H 0.3833 0.0364 0.8050
C34_8 C 0.3101(8) 0.0441(7) 0.7655(3)
H37_8 H 0.2807 0.0068 0.7520
H38_8 H 0.2724 0.0756 0.7778
C35_8 C 0.3565(7) 0.0977(7) 0.7424(3)
C36_8 C 0.3546(8) 0.1726(8) 0.7452(4)
H39_8 H 0.3240 0.1972 0.7614
C37_8 C 0.4015(7) 0.2170(10) 0.7224(3)
H40_8 H 0.4000 0.2717 0.7240
C38_8 C 0.4470(7) 0.1098(9) 0.6985(3)
H41_8 H 0.4807 0.0874 0.6828
C39_8 C 0.40470(19) 0.0596(2) 0.71724(8)
H42_8 H 0.4063 0.0052 0.7144
N7_8 N 0.4411(6) 0.8103(5) 0.88017(19)
C27_8 C 0.4036(7) 0.7755(6) 0.8558(3)
H29_8 H 0.4054 0.7208 0.8543
C28_8 C 0.3618(8) 0.8171(6) 0.8323(3)
H30_8 H 0.3347 0.7901 0.8156
C29_8 C 0.4368(8) 0.8876(6) 0.8815(3)
H31_8 H 0.4627 0.9142 0.8986
C30_8 C 0.3961(7) 0.9292(5) 0.8588(3)
H32_8 H 0.3930 0.9837 0.8609
C31_8 C 0.3593(6) 0.8932(6) 0.8330(2)
C32_8 C 0.3098(8) 0.9397(7) 0.8092(3)
H33_8 H 0.2843 0.9040 0.7937
H34_8 H 0.2691 0.9671 0.8216
C33_8 C 0.3589(7) 0.9998(7) 0.7896(3)
H35_8 H 0.4005 0.9726 0.7777
N9_8 N 0.5589(6) 0.6897(5) 0.88017(19)
C40_8 C 0.5964(7) 0.7245(6) 0.8558(3)
H43_8 H 0.5946 0.7792 0.8543
C41_8 C 0.6382(8) 0.6829(6) 0.8323(3)
H44_8 H 0.6653 0.7099 0.8156
C42_8 C 0.5632(8) 0.6124(6) 0.8815(3)
H45_8 H 0.5373 0.5858 0.8986
C43_8 C 0.6039(7) 0.5708(5) 0.8588(3)
H46_8 H 0.6070 0.5163 0.8609
C44_8 C 0.6407(6) 0.6068(6) 0.8330(2)
C45_8 C 0.6902(8) 0.5603(7) 0.8092(3)
H47_8 H 0.7157 0.5960 0.7937
H48_8 H 0.7309 0.5329 0.8216
C46_8 C 0.6411(7) 0.5002(7) 0.7896(3)
H49_8 H 0.5995 0.5274 0.7777
H50_8 H 0.6167 0.4636 0.8050
C47_8 C 0.6899(8) 0.4559(7) 0.7655(3)
H51_8 H 0.7193 0.4932 0.7520
H52_8 H 0.7276 0.4244 0.7778
C48_8 C 0.6435(7) 0.4023(7) 0.7424(3)
C49_8 C 0.6454(8) 0.3274(8) 0.7452(4)
H53_8 H 0.6760 0.3028 0.7614
C50_8 C 0.5985(7) 0.2830(10) 0.7224(3)
H54_8 H 0.6000 0.2283 0.7240
C51_8 C 0.5530(7) 0.3902(9) 0.6985(3)
H55_8 H 0.5193 0.4126 0.6828
C52_8 C 0.59530(19) 0.4404(2) 0.71724(8)
H56_8 H 0.5937 0.4948 0.7144
Cl3 Cl 0.6203(2) 0.64117(19) 0.33477(8)
Cl3_2 Cl 0.10883(19) 0.8703(2) 0.58477(8)
Cl3_3 Cl 0.3797(2) 0.85883(19) 0.33477(8)
Cl3_4 Cl 0.89117(19) 0.6297(2) 0.58477(8)
Cl3_5 Cl 0.1203(2) 0.14117(19) 0.83477(8)
Cl3_6 Cl 0.60883(19) 0.3703(2) 0.08477(8)
Cl3_7 Cl 0.8797(2) 0.35883(19) 0.83477(8)
Cl3_8 Cl 0.39117(19) 0.1297(2) 0.08477(8)
Cl3_9 Cl 0.3797(2) 0.35883(19) 0.66523(8)
Cl3_10 Cl 0.89117(19) 0.1297(2) 0.41523(8)
Cl3_11 Cl 0.6203(2) 0.14117(19) 0.66523(8)
Cl3_12 Cl 0.10883(19) 0.3703(2) 0.41523(8)
Cl3_13 Cl 0.8797(2) 0.85883(19) 0.16523(8)
Cl3_14 Cl 0.39117(19) 0.6297(2) 0.91523(8)
Cl3_15 Cl 0.1203(2) 0.64117(19) 0.16523(8)
Cl3_16 Cl 0.60883(19) 0.8703(2) 0.91523(8)
loop_
_geom_bond_atom_site_label_1
_geom_bond_atom_site_label_2
_geom_bond_site_symmetry_1
_geom_bond_site_symmetry_2
Cu1 Cl1 1_555 1_555
Cu3 N4 1_555 1_555
N3 Cu1 1_555 1_555
C14 N3 1_555 1_555
H15 C14 1_555 1_555
N4 C24 1_555 1_555
C15 C14 1_555 1_555
H16 C15 1_555 1_555
C16 C15 1_555 1_555
C17 C16 1_555 1_555
H17 C17 1_555 1_555
C18 N3 1_555 1_555
C19 C16 1_555 1_555
H19 C19 1_555 1_555
H20 C19 1_555 1_555
C20 C19 1_555 1_555
H21 C20 1_555 1_555
H22 C20 1_555 1_555
C21 C20 1_555 1_555
H23 C21 1_555 1_555
H24 C21 1_555 1_555
C22 C21 1_555 1_555
C23 C22 1_555 1_555
H25 C23 1_555 1_555
C24 C23 1_555 1_555
H26 C24 1_555 1_555
C25 N4 1_555 1_555
H27 C25 1_555 1_555
C26 C22 1_555 1_555
H28 C26 1_555 1_555
C17 C18 1_555 1_555
C25 C26 1_555 1_555
N1 Cu1_2 1_555 1_555
C1 N1 1_555 1_555
H1 C1 1_555 1_555
N2 C11 1_555 1_555
C2 C1 1_555 1_555
H2 C2 1_555 1_555
C3 C2 1_555 1_555
C4 C3 1_555 1_555
H3 C4 1_555 1_555
C5 N1 1_555 1_555
C6 C3 1_555 1_555
H5 C6 1_555 1_555
H6 C6 1_555 1_555
C7 C6 1_555 1_555
H7 C7 1_555 1_555
H8 C7 1_555 1_555
C8 C7 1_555 1_555
H9 C8 1_555 1_555
H10 C8 1_555 1_555
C9 C8 1_555 1_555
C10 C9 1_555 1_555
H11 C10 1_555 1_555
C11 C10 1_555 1_555
H12 C11 1_555 1_555
C12 N2 1_555 1_555
H13 C12 1_555 1_555
C13 C9 1_555 1_555
H14 C13 1_555 1_555
Cu3 N2 1_555 1_555
Cl2 Cu1_2 1_555 1_555
C4 C5 1_555 1_555
C12 C13 1_555 1_555
Cu3 Cl1_2 1_555 1_555
N1_2 Cu3 1_555 1_555
C1_2 N1_2 1_555 1_555
H1_2 C1_2 1_555 1_555
C2_2 C1_2 1_555 1_555
H2_2 C2_2 1_555 1_555
C3_2 C2_2 1_555 1_555
C4_2 C3_2 1_555 1_555
H3_2 C4_2 1_555 1_555
C5_2 N1_2 1_555 1_555
H4_2 C5_2 1_555 1_555
C6_2 C3_2 1_555 1_555
H5_2 C6_2 1_555 1_555
H6_2 C6_2 1_555 1_555
C7_2 C6_2 1_555 1_555
H7_2 C7_2 1_555 1_555
Cu3_2 N4_2 1_555 1_555
Cl2_2 Cu3 1_555 1_555
N3_2 Cu3 1_555 1_555
C14_2 N3_2 1_555 1_555
H15_2 C14_2 1_555 1_555
N4_2 C24_2 1_555 1_555
C15_2 C14_2 1_555 1_555
H16_2 C15_2 1_555 1_555
C16_2 C15_2 1_555 1_555
C17_2 C16_2 1_555 1_555
H17_2 C17_2 1_555 1_555
C18_2 N3_2 1_555 1_555
H18_2 C18_2 1_555 1_555
C19_2 C16_2 1_555 1_555
H19_2 C19_2 1_555 1_555
H20_2 C19_2 1_555 1_555
C20_2 C19_2 1_555 1_555
H21_2 C20_2 1_555 1_555
H22_2 C20_2 1_555 1_555
C21_2 C20_2 1_555 1_555
H23_2 C21_2 1_555 1_555
H24_2 C21_2 1_555 1_555
C22_2 C21_2 1_555 1_555
C23_2 C22_2 1_555 1_555
H25_2 C23_2 1_555 1_555
C24_2 C23_2 1_555 1_555
H26_2 C24_2 1_555 1_555
C25_2 N4_2 1_555 1_555
H27_2 C25_2 1_555 1_555
C26_2 C22_2 1_555 1_555
H28_2 C26_2 1_555 1_555
C4_2 C5_2 1_555 1_555
C17_2 C18_2 1_555 1_555
C25_2 C26_2 1_555 1_555
N2_2 C11_2 1_555 1_555
H9_2 C8_2 1_555 1_555
H10_2 C8_2 1_555 1_555
C9_2 C8_2 1_555 1_555
C10_2 C9_2 1_555 1_555
H11_2 C10_2 1_555 1_555
C11_2 C10_2 1_555 1_555
H12_2 C11_2 1_555 1_555
C12_2 N2_2 1_555 1_555
H13_2 C12_2 1_555 1_555
C13_2 C9_2 1_555 1_555
H14_2 C13_2 1_555 1_555
Cu3_2 N2_2 1_555 1_555
C12_2 C13_2 1_555 1_555
Cu3_2 Cl1_3 1_555 1_555
N1_3 Cu3_2 1_555 1_555
C1_3 N1_3 1_555 1_555
H1_3 C1_3 1_555 1_555
N2_3 C11_3 1_555 1_555
C2_3 C1_3 1_555 1_555
H2_3 C2_3 1_555 1_555
C3_3 C2_3 1_555 1_555
C4_3 C3_3 1_555 1_555
H3_3 C4_3 1_555 1_555
C5_3 N1_3 1_555 1_555
H4_3 C5_3 1_555 1_555
C6_3 C3_3 1_555 1_555
H5_3 C6_3 1_555 1_555
H6_3 C6_3 1_555 1_555
C7_3 C6_3 1_555 1_555
H7_3 C7_3 1_555 1_555
H8_3 C7_3 1_555 1_555
C8_3 C7_3 1_555 1_555
H9_3 C8_3 1_555 1_555
H10_3 C8_3 1_555 1_555
C9_3 C8_3 1_555 1_555
C10_3 C9_3 1_555 1_555
H11_3 C10_3 1_555 1_555
C11_3 C10_3 1_555 1_555
C12_3 N2_3 1_555 1_555
H13_3 C12_3 1_555 1_555
C13_3 C9_3 1_555 1_555
H14_3 C13_3 1_555 1_555
Cu3_3 N2_3 1_555 1_555
Cu3_4 N4_3 1_555 1_555
Cl2_3 Cu3_2 1_555 1_555
N3_3 Cu3_2 1_555 1_555
C14_3 N3_3 1_555 1_555
H15_3 C14_3 1_555 1_555
N4_3 C24_3 1_555 1_555
C15_3 C14_3 1_555 1_555
H16_3 C15_3 1_555 1_555
C16_3 C15_3 1_555 1_555
C17_3 C16_3 1_555 1_555
H17_3 C17_3 1_555 1_555
C18_3 N3_3 1_555 1_555
H18_3 C18_3 1_555 1_555
C19_3 C16_3 1_555 1_555
H19_3 C19_3 1_555 1_555
H20_3 C19_3 1_555 1_555
C20_3 C19_3 1_555 1_555
H21_3 C20_3 1_555 1_555
H22_3 C20_3 1_555 1_555
C21_3 C20_3 1_555 1_555
H23_3 C21_3 1_555 1_555
H24_3 C21_3 1_555 1_555
C22_3 C21_3 1_555 1_555
C23_3 C22_3 1_555 1_555
H25_3 C23_3 1_555 1_555
C24_3 C23_3 1_555 1_555
C25_3 N4_3 1_555 1_555
H27_3 C25_3 1_555 1_555
C26_3 C22_3 1_555 1_555
H28_3 C26_3 1_555 1_555
C4_3 C5_3 1_555 1_555
C12_3 C13_3 1_555 1_555
C17_3 C18_3 1_555 1_555
C25_3 C26_3 1_555 1_555
Cl2_4 Cu3_3 1_555 1_555
N3_4 Cu3_3 1_555 1_555
C14_4 N3_4 1_555 1_555
H15_4 C14_4 1_555 1_555
C15_4 C14_4 1_555 1_555
H16_4 C15_4 1_555 1_555
C16_4 C15_4 1_555 1_555
C17_4 C16_4 1_555 1_555
H17_4 C17_4 1_555 1_555
C18_4 N3_4 1_555 1_555
H18_4 C18_4 1_555 1_555
C19_4 C16_4 1_555 1_555
H19_4 C19_4 1_555 1_555
H20_4 C19_4 1_555 1_555
C20_4 C19_4 1_555 1_555
H21_4 C20_4 1_555 1_555
C17_4 C18_4 1_555 1_555
Cu3_4 Cl1_4 1_555 1_555
N1_4 Cu3_4 1_555 1_555
C1_4 N1_4 1_555 1_555
H1_4 C1_4 1_555 1_555
N5 C11_4 1_555 1_555
C2_4 C1_4 1_555 1_555
H2_4 C2_4 1_555 1_555
C3_4 C2_4 1_555 1_555
C4_4 C3_4 1_555 1_555
H3_4 C4_4 1_555 1_555
C5_4 N1_4 1_555 1_555
H4_4 C5_4 1_555 1_555
C6_4 C3_4 1_555 1_555
H5_4 C6_4 1_555 1_555
H6_4 C6_4 1_555 1_555
C7_4 C6_4 1_555 1_555
H7_4 C7_4 1_555 1_555
H8_4 C7_4 1_555 1_555
C8_4 C7_4 1_555 1_555
H9_4 C8_4 1_555 1_555
H10_4 C8_4 1_555 1_555
C9_4 C8_4 1_555 1_555
C10_4 C9_4 1_555 1_555
H11_4 C10_4 1_555 1_555
C11_4 C10_4 1_555 1_555
H12_4 C11_4 1_555 1_555
C12_4 N5 1_555 1_555
C13_4 C9_4 1_555 1_555
H14_4 C13_4 1_555 1_555
C4_4 C5_4 1_555 1_555
C12_4 C13_4 1_555 1_555
N6 C24_4 1_555 1_555
H23_4 C21_4 1_555 1_555
H24_4 C21_4 1_555 1_555
C22_4 C21_4 1_555 1_555
C23_4 C22_4 1_555 1_555
H25_4 C23_4 1_555 1_555
C24_4 C23_4 1_555 1_555
H26_4 C24_4 1_555 1_555
C25_4 N6 1_555 1_555
C26_4 C22_4 1_555 1_555
H28_4 C26_4 1_555 1_555
C25_4 C26_4 1_555 1_555
N1_5 Cu1_3 1_555 1_555
C1_5 N1_5 1_555 1_555
H1_5 C1_5 1_555 1_555
N2_4 C11_5 1_555 1_555
C2_5 C1_5 1_555 1_555
H2_5 C2_5 1_555 1_555
C3_5 C2_5 1_555 1_555
C4_5 C3_5 1_555 1_555
H3_5 C4_5 1_555 1_555
C5_5 N1_5 1_555 1_555
C6_5 C3_5 1_555 1_555
H5_5 C6_5 1_555 1_555
H6_5 C6_5 1_555 1_555
C7_5 C6_5 1_555 1_555
H7_5 C7_5 1_555 1_555
H8_5 C7_5 1_555 1_555
C8_5 C7_5 1_555 1_555
H9_5 C8_5 1_555 1_555
H10_5 C8_5 1_555 1_555
C9_5 C8_5 1_555 1_555
C10_5 C9_5 1_555 1_555
H11_5 C10_5 1_555 1_555
C11_5 C10_5 1_555 1_555
H12_5 C11_5 1_555 1_555
C12_5 N2_4 1_555 1_555
H13_5 C12_5 1_555 1_555
C13_5 C9_5 1_555 1_555
H14_5 C13_5 1_555 1_555
Cu2 N2_4 1_555 1_555
Cl2_5 Cu1_3 1_555 1_555
C4_5 C5_5 1_555 1_555
C12_5 C13_5 1_555 1_555
Cu1_4 Cl1_5 1_555 1_555
Cu2 N4_4 1_555 1_555
N3_5 Cu1_4 1_555 1_555
C14_5 N3_5 1_555 1_555
H15_5 C14_5 1_555 1_555
N4_4 C24_5 1_555 1_555
C15_5 C14_5 1_555 1_555
H16_5 C15_5 1_555 1_555
C16_5 C15_5 1_555 1_555
C17_5 C16_5 1_555 1_555
H17_5 C17_5 1_555 1_555
C18_5 N3_5 1_555 1_555
C19_5 C16_5 1_555 1_555
H19_5 C19_5 1_555 1_555
H20_5 C19_5 1_555 1_555
C20_5 C19_5 1_555 1_555
H21_5 C20_5 1_555 1_555
H22_5 C20_5 1_555 1_555
C21_5 C20_5 1_555 1_555
H23_5 C21_5 1_555 1_555
H24_5 C21_5 1_555 1_555
C22_5 C21_5 1_555 1_555
C23_5 C22_5 1_555 1_555
H25_5 C23_5 1_555 1_555
C24_5 C23_5 1_555 1_555
H26_5 C24_5 1_555 1_555
C25_5 N4_4 1_555 1_555
H27_5 C25_5 1_555 1_555
C26_5 C22_5 1_555 1_555
H28_5 C26_5 1_555 1_555
C17_5 C18_5 1_555 1_555
C25_5 C26_5 1_555 1_555
N2_5 C11_6 1_555 1_555
H9_6 C8_6 1_555 1_555
H10_6 C8_6 1_555 1_555
C9_6 C8_6 1_555 1_555
C10_6 C9_6 1_555 1_555
H11_6 C10_6 1_555 1_555
C11_6 C10_6 1_555 1_555
H12_6 C11_6 1_555 1_555
C12_6 N2_5 1_555 1_555
H13_6 C12_6 1_555 1_555
C13_6 C9_6 1_555 1_555
H14_6 C13_6 1_555 1_555
Cu2_2 N2_5 1_555 1_555
C12_6 C13_6 1_555 1_555
Cu2 Cl1_6 1_555 1_555
N1_6 Cu2 1_555 1_555
C1_6 N1_6 1_555 1_555
H1_6 C1_6 1_555 1_555
C2_6 C1_6 1_555 1_555
H2_6 C2_6 1_555 1_555
C3_6 C2_6 1_555 1_555
C4_6 C3_6 1_555 1_555
H3_6 C4_6 1_555 1_555
C5_6 N1_6 1_555 1_555
H4_6 C5_6 1_555 1_555
C6_6 C3_6 1_555 1_555
H5_6 C6_6 1_555 1_555
H6_6 C6_6 1_555 1_555
C7_6 C6_6 1_555 1_555
H7_6 C7_6 1_555 1_555
Cu2_2 N4_5 1_555 1_555
Cl2_6 Cu2 1_555 1_555
N3_6 Cu2 1_555 1_555
C14_6 N3_6 1_555 1_555
H15_6 C14_6 1_555 1_555
N4_5 C24_6 1_555 1_555
C15_6 C14_6 1_555 1_555
H16_6 C15_6 1_555 1_555
C16_6 C15_6 1_555 1_555
C17_6 C16_6 1_555 1_555
H17_6 C17_6 1_555 1_555
C18_6 N3_6 1_555 1_555
H18_6 C18_6 1_555 1_555
C19_6 C16_6 1_555 1_555
H19_6 C19_6 1_555 1_555
H20_6 C19_6 1_555 1_555
C20_6 C19_6 1_555 1_555
H21_6 C20_6 1_555 1_555
H22_6 C20_6 1_555 1_555
C21_6 C20_6 1_555 1_555
H23_6 C21_6 1_555 1_555
H24_6 C21_6 1_555 1_555
C22_6 C21_6 1_555 1_555
C23_6 C22_6 1_555 1_555
H25_6 C23_6 1_555 1_555
C24_6 C23_6 1_555 1_555
H26_6 C24_6 1_555 1_555
C25_6 N4_5 1_555 1_555
H27_6 C25_6 1_555 1_555
C26_6 C22_6 1_555 1_555
H28_6 C26_6 1_555 1_555
C4_6 C5_6 1_555 1_555
C17_6 C18_6 1_555 1_555
C25_6 C26_6 1_555 1_555
Cu2_2 Cl1_7 1_555 1_555
N1_7 Cu2_2 1_555 1_555
C1_7 N1_7 1_555 1_555
H1_7 C1_7 1_555 1_555
N2_6 C11_7 1_555 1_555
C2_7 C1_7 1_555 1_555
H2_7 C2_7 1_555 1_555
C3_7 C2_7 1_555 1_555
C4_7 C3_7 1_555 1_555
H3_7 C4_7 1_555 1_555
C5_7 N1_7 1_555 1_555
H4_7 C5_7 1_555 1_555
C6_7 C3_7 1_555 1_555
H5_7 C6_7 1_555 1_555
H6_7 C6_7 1_555 1_555
C7_7 C6_7 1_555 1_555
H7_7 C7_7 1_555 1_555
H8_7 C7_7 1_555 1_555
C8_7 C7_7 1_555 1_555
H9_7 C8_7 1_555 1_555
H10_7 C8_7 1_555 1_555
C9_7 C8_7 1_555 1_555
C10_7 C9_7 1_555 1_555
H11_7 C10_7 1_555 1_555
C11_7 C10_7 1_555 1_555
C12_7 N2_6 1_555 1_555
H13_7 C12_7 1_555 1_555
C13_7 C9_7 1_555 1_555
H14_7 C13_7 1_555 1_555
Cu2_4 N2_6 1_555 1_555
Cu2_3 N4_6 1_555 1_555
Cl2_7 Cu2_2 1_555 1_555
N3_7 Cu2_2 1_555 1_555
C14_7 N3_7 1_555 1_555
H15_7 C14_7 1_555 1_555
N4_6 C24_7 1_555 1_555
C15_7 C14_7 1_555 1_555
H16_7 C15_7 1_555 1_555
C16_7 C15_7 1_555 1_555
C17_7 C16_7 1_555 1_555
H17_7 C17_7 1_555 1_555
C18_7 N3_7 1_555 1_555
H18_7 C18_7 1_555 1_555
C19_7 C16_7 1_555 1_555
H19_7 C19_7 1_555 1_555
H20_7 C19_7 1_555 1_555
C20_7 C19_7 1_555 1_555
H21_7 C20_7 1_555 1_555
H22_7 C20_7 1_555 1_555
C21_7 C20_7 1_555 1_555
H23_7 C21_7 1_555 1_555
H24_7 C21_7 1_555 1_555
C22_7 C21_7 1_555 1_555
C23_7 C22_7 1_555 1_555
H25_7 C23_7 1_555 1_555
C24_7 C23_7 1_555 1_555
C25_7 N4_6 1_555 1_555
H27_7 C25_7 1_555 1_555
C26_7 C22_7 1_555 1_555
H28_7 C26_7 1_555 1_555
C4_7 C5_7 1_555 1_555
C12_7 C13_7 1_555 1_555
C17_7 C18_7 1_555 1_555
C25_7 C26_7 1_555 1_555
Cu2_3 Cl1_8 1_555 1_555
N1_8 Cu2_3 1_555 1_555
C1_8 N1_8 1_555 1_555
H1_8 C1_8 1_555 1_555
N5_2 C11_8 1_555 1_555
C2_8 C1_8 1_555 1_555
H2_8 C2_8 1_555 1_555
C3_8 C2_8 1_555 1_555
C4_8 C3_8 1_555 1_555
H3_8 C4_8 1_555 1_555
C5_8 N1_8 1_555 1_555
H4_8 C5_8 1_555 1_555
C6_8 C3_8 1_555 1_555
H5_8 C6_8 1_555 1_555
H6_8 C6_8 1_555 1_555
C7_8 C6_8 1_555 1_555
H7_8 C7_8 1_555 1_555
H8_8 C7_8 1_555 1_555
C8_8 C7_8 1_555 1_555
H9_8 C8_8 1_555 1_555
H10_8 C8_8 1_555 1_555
C9_8 C8_8 1_555 1_555
C10_8 C9_8 1_555 1_555
H11_8 C10_8 1_555 1_555
C11_8 C10_8 1_555 1_555
H12_8 C11_8 1_555 1_555
C12_8 N5_2 1_555 1_555
C13_8 C9_8 1_555 1_555
H14_8 C13_8 1_555 1_555
C4_8 C5_8 1_555 1_555
C12_8 C13_8 1_555 1_555
Cl2_8 Cu2_4 1_555 1_555
N3_8 Cu2_4 1_555 1_555
C14_8 N3_8 1_555 1_555
H15_8 C14_8 1_555 1_555
C15_8 C14_8 1_555 1_555
H16_8 C15_8 1_555 1_555
C16_8 C15_8 1_555 1_555
C17_8 C16_8 1_555 1_555
H17_8 C17_8 1_555 1_555
C18_8 N3_8 1_555 1_555
H18_8 C18_8 1_555 1_555
C19_8 C16_8 1_555 1_555
H19_8 C19_8 1_555 1_555
H20_8 C19_8 1_555 1_555
C20_8 C19_8 1_555 1_555
H21_8 C20_8 1_555 1_555
C17_8 C18_8 1_555 1_555
N6_2 C24_8 1_555 1_555
H23_8 C21_8 1_555 1_555
H24_8 C21_8 1_555 1_555
C22_8 C21_8 1_555 1_555
C23_8 C22_8 1_555 1_555
H25_8 C23_8 1_555 1_555
C24_8 C23_8 1_555 1_555
H26_8 C24_8 1_555 1_555
C25_8 N6_2 1_555 1_555
C26_8 C22_8 1_555 1_555
H28_8 C26_8 1_555 1_555
C25_8 C26_8 1_555 1_555
Cu4 N7 1_555 1_555
N7 C27 1_555 1_555
N8 C37 1_555 1_555
C27 H29 1_555 1_555
C28 C27 1_555 1_555
H30 C28 1_555 1_555
C29 N7 1_555 1_555
H31 C29 1_555 1_555
C30 C29 1_555 1_555
H32 C30 1_555 1_555
C31 C28 1_555 1_555
C32 C31 1_555 1_555
H33 C32 1_555 1_555
H34 C32 1_555 1_555
C33 C32 1_555 1_555
H35 C33 1_555 1_555
H36 C33 1_555 1_555
C34 C33 1_555 1_555
H37 C34 1_555 1_555
H38 C34 1_555 1_555
C35 C34 1_555 1_555
C36 C35 1_555 1_555
H39 C36 1_555 1_555
C37 C36 1_555 1_555
C38 N8 1_555 1_555
H41 C38 1_555 1_555
C39 C35 1_555 1_555
H42 C39 1_555 1_555
Cu6 N8 1_555 1_555
Cu6_2 N10 1_555 1_555
N9 Cu4 1_555 1_555
N10 C50 1_555 1_555
N11 Cu4 1_555 1_555
N12 Cu4 1_555 1_555
C40 N9 1_555 1_555
H43 C40 1_555 1_555
C41 C40 1_555 1_555
H44 C41 1_555 1_555
C42 N9 1_555 1_555
H45 C42 1_555 1_555
C43 C42 1_555 1_555
H46 C43 1_555 1_555
C44 C41 1_555 1_555
C45 C44 1_555 1_555
H47 C45 1_555 1_555
H48 C45 1_555 1_555
C46 C45 1_555 1_555
H49 C46 1_555 1_555
H50 C46 1_555 1_555
C47 C46 1_555 1_555
H51 C47 1_555 1_555
H52 C47 1_555 1_555
C48 C47 1_555 1_555
C49 C48 1_555 1_555
H53 C49 1_555 1_555
C50 C49 1_555 1_555
C51 N10 1_555 1_555
H55 C51 1_555 1_555
C52 C48 1_555 1_555
H56 C52 1_555 1_555
C30 C31 1_555 1_555
C38 C39 1_555 1_555
C43 C44 1_555 1_555
C51 C52 1_555 1_555
Cu6 N7_2 1_555 1_555
N7_2 C27_2 1_555 1_555
N8_2 C37_2 1_555 1_555
C27_2 H29_2 1_555 1_555
C28_2 C27_2 1_555 1_555
H30_2 C28_2 1_555 1_555
C29_2 N7_2 1_555 1_555
H31_2 C29_2 1_555 1_555
C30_2 C29_2 1_555 1_555
H32_2 C30_2 1_555 1_555
C31_2 C28_2 1_555 1_555
C32_2 C31_2 1_555 1_555
H33_2 C32_2 1_555 1_555
H34_2 C32_2 1_555 1_555
C33_2 C32_2 1_555 1_555
H35_2 C33_2 1_555 1_555
H36_2 C33_2 1_555 1_555
C34_2 C33_2 1_555 1_555
H37_2 C34_2 1_555 1_555
H38_2 C34_2 1_555 1_555
C35_2 C34_2 1_555 1_555
C36_2 C35_2 1_555 1_555
H39_2 C36_2 1_555 1_555
C37_2 C36_2 1_555 1_555
H40_2 C37_2 1_555 1_555
C38_2 N8_2 1_555 1_555
H41_2 C38_2 1_555 1_555
C39_2 C35_2 1_555 1_555
H42_2 C39_2 1_555 1_555
Cu6_3 N8_2 1_555 1_555
C30_2 C31_2 1_555 1_555
C38_2 C39_2 1_555 1_555
Cu6_4 N10_2 1_555 1_555
N10_2 C50_2 1_555 1_555
H51_2 C47_2 1_555 1_555
H52_2 C47_2 1_555 1_555
C48_2 C47_2 1_555 1_555
C49_2 C48_2 1_555 1_555
H53_2 C49_2 1_555 1_555
C50_2 C49_2 1_555 1_555
H54_2 C50_2 1_555 1_555
C51_2 N10_2 1_555 1_555
H55_2 C51_2 1_555 1_555
C52_2 C48_2 1_555 1_555
H56_2 C52_2 1_555 1_555
C51_2 C52_2 1_555 1_555
N9_2 Cu6_2 1_555 1_555
C40_2 N9_2 1_555 1_555
H43_2 C40_2 1_555 1_555
C41_2 C40_2 1_555 1_555
H44_2 C41_2 1_555 1_555
C42_2 N9_2 1_555 1_555
H45_2 C42_2 1_555 1_555
C43_2 C42_2 1_555 1_555
H46_2 C43_2 1_555 1_555
C44_2 C41_2 1_555 1_555
C45_2 C44_2 1_555 1_555
H47_2 C45_2 1_555 1_555
H48_2 C45_2 1_555 1_555
C46_2 C45_2 1_555 1_555
H49_2 C46_2 1_555 1_555
C43_2 C44_2 1_555 1_555
Cu6_5 N10_3 1_555 1_555
N10_3 C50_3 1_555 1_555
C49_3 C48_3 1_555 1_555
C50_3 C49_3 1_555 1_555
H54_3 C50_3 1_555 1_555
C51_3 N10_3 1_555 1_555
H55_3 C51_3 1_555 1_555
C52_3 C48_3 1_555 1_555
H56_3 C52_3 1_555 1_555
C51_3 C52_3 1_555 1_555
N9_3 Cu6_3 1_555 1_555
C40_3 N9_3 1_555 1_555
C41_3 C40_3 1_555 1_555
H44_3 C41_3 1_555 1_555
C42_3 N9_3 1_555 1_555
H45_3 C42_3 1_555 1_555
C43_3 C42_3 1_555 1_555
H46_3 C43_3 1_555 1_555
C44_3 C41_3 1_555 1_555
C45_3 C44_3 1_555 1_555
H47_3 C45_3 1_555 1_555
H48_3 C45_3 1_555 1_555
C46_3 C45_3 1_555 1_555
H49_3 C46_3 1_555 1_555
H50_3 C46_3 1_555 1_555
C47_3 C46_3 1_555 1_555
H51_3 C47_3 1_555 1_555
H52_3 C47_3 1_555 1_555
C43_3 C44_3 1_555 1_555
N8_3 C37_3 1_555 1_555
C36_3 C35_3 1_555 1_555
C37_3 C36_3 1_555 1_555
H40_3 C37_3 1_555 1_555
C38_3 N8_3 1_555 1_555
H41_3 C38_3 1_555 1_555
C39_3 C35_3 1_555 1_555
H42_3 C39_3 1_555 1_555
Cu6_5 N8_3 1_555 1_555
C38_3 C39_3 1_555 1_555
Cu6_4 N7_3 1_555 1_555
N7_3 C27_3 1_555 1_555
C28_3 C27_3 1_555 1_555
H30_3 C28_3 1_555 1_555
C29_3 N7_3 1_555 1_555
H31_3 C29_3 1_555 1_555
C30_3 C29_3 1_555 1_555
H32_3 C30_3 1_555 1_555
C31_3 C28_3 1_555 1_555
C32_3 C31_3 1_555 1_555
H33_3 C32_3 1_555 1_555
H34_3 C32_3 1_555 1_555
C33_3 C32_3 1_555 1_555
H35_3 C33_3 1_555 1_555
H36_3 C33_3 1_555 1_555
C34_3 C33_3 1_555 1_555
H37_3 C34_3 1_555 1_555
H38_3 C34_3 1_555 1_555
C30_3 C31_3 1_555 1_555
Cu6_5 N7_4 1_555 1_555
N7_4 C27_4 1_555 1_555
C27_4 H29_4 1_555 1_555
C28_4 C27_4 1_555 1_555
H30_4 C28_4 1_555 1_555
C29_4 N7_4 1_555 1_555
H31_4 C29_4 1_555 1_555
C30_4 C29_4 1_555 1_555
H32_4 C30_4 1_555 1_555
C31_4 C28_4 1_555 1_555
C32_4 C31_4 1_555 1_555
H33_4 C32_4 1_555 1_555
H34_4 C32_4 1_555 1_555
C33_4 C32_4 1_555 1_555
H35_4 C33_4 1_555 1_555
N9_4 Cu6_5 1_555 1_555
N11 C50_4 1_555 1_555
C40_4 N9_4 1_555 1_555
H43_4 C40_4 1_555 1_555
C41_4 C40_4 1_555 1_555
H44_4 C41_4 1_555 1_555
C42_4 N9_4 1_555 1_555
H45_4 C42_4 1_555 1_555
C43_4 C42_4 1_555 1_555
H46_4 C43_4 1_555 1_555
C44_4 C41_4 1_555 1_555
C45_4 C44_4 1_555 1_555
H47_4 C45_4 1_555 1_555
H48_4 C45_4 1_555 1_555
C46_4 C45_4 1_555 1_555
H49_4 C46_4 1_555 1_555
H50_4 C46_4 1_555 1_555
C47_4 C46_4 1_555 1_555
H51_4 C47_4 1_555 1_555
H52_4 C47_4 1_555 1_555
C48_4 C47_4 1_555 1_555
C49_4 C48_4 1_555 1_555
H53_4 C49_4 1_555 1_555
C50_4 C49_4 1_555 1_555
H54_4 C50_4 1_555 1_555
C51_4 N11 1_555 1_555
H55_4 C51_4 1_555 1_555
C52_4 C48_4 1_555 1_555
H56_4 C52_4 1_555 1_555
C30_4 C31_4 1_555 1_555
C43_4 C44_4 1_555 1_555
C51_4 C52_4 1_555 1_555
N12 C37_4 1_555 1_555
H37_4 C34_4 1_555 1_555
H38_4 C34_4 1_555 1_555
C35_4 C34_4 1_555 1_555
C36_4 C35_4 1_555 1_555
H39_4 C36_4 1_555 1_555
C37_4 C36_4 1_555 1_555
H40_4 C37_4 1_555 1_555
C38_4 N12 1_555 1_555
H41_4 C38_4 1_555 1_555
C39_4 C35_4 1_555 1_555
H42_4 C39_4 1_555 1_555
C38_4 C39_4 1_555 1_555
Cu4_2 N7_5 1_555 1_555
N7_5 C27_5 1_555 1_555
N8_4 C37_5 1_555 1_555
C27_5 H29_5 1_555 1_555
C28_5 C27_5 1_555 1_555
H30_5 C28_5 1_555 1_555
C29_5 N7_5 1_555 1_555
H31_5 C29_5 1_555 1_555
C30_5 C29_5 1_555 1_555
H32_5 C30_5 1_555 1_555
C31_5 C28_5 1_555 1_555
C32_5 C31_5 1_555 1_555
H33_5 C32_5 1_555 1_555
H34_5 C32_5 1_555 1_555
C33_5 C32_5 1_555 1_555
H35_5 C33_5 1_555 1_555
H36_5 C33_5 1_555 1_555
C34_5 C33_5 1_555 1_555
H37_5 C34_5 1_555 1_555
H38_5 C34_5 1_555 1_555
C35_5 C34_5 1_555 1_555
C36_5 C35_5 1_555 1_555
H39_5 C36_5 1_555 1_555
C37_5 C36_5 1_555 1_555
C38_5 N8_4 1_555 1_555
H41_5 C38_5 1_555 1_555
C39_5 C35_5 1_555 1_555
H42_5 C39_5 1_555 1_555
Cu5_2 N8_4 1_555 1_555
Cu5 N10_4 1_555 1_555
N9_5 Cu4_2 1_555 1_555
N10_4 C50_5 1_555 1_555
N11_2 Cu4_2 1_555 1_555
N12_2 Cu4_2 1_555 1_555
C40_5 N9_5 1_555 1_555
H43_5 C40_5 1_555 1_555
C41_5 C40_5 1_555 1_555
H44_5 C41_5 1_555 1_555
C42_5 N9_5 1_555 1_555
H45_5 C42_5 1_555 1_555
C43_5 C42_5 1_555 1_555
H46_5 C43_5 1_555 1_555
C44_5 C41_5 1_555 1_555
C45_5 C44_5 1_555 1_555
H47_5 C45_5 1_555 1_555
H48_5 C45_5 1_555 1_555
C46_5 C45_5 1_555 1_555
H49_5 C46_5 1_555 1_555
H50_5 C46_5 1_555 1_555
C47_5 C46_5 1_555 1_555
H51_5 C47_5 1_555 1_555
H52_5 C47_5 1_555 1_555
C48_5 C47_5 1_555 1_555
C49_5 C48_5 1_555 1_555
H53_5 C49_5 1_555 1_555
C50_5 C49_5 1_555 1_555
C51_5 N10_4 1_555 1_555
H55_5 C51_5 1_555 1_555
C52_5 C48_5 1_555 1_555
H56_5 C52_5 1_555 1_555
C30_5 C31_5 1_555 1_555
C38_5 C39_5 1_555 1_555
C43_5 C44_5 1_555 1_555
C51_5 C52_5 1_555 1_555
N9_6 Cu5 1_555 1_555
C40_6 N9_6 1_555 1_555
H43_6 C40_6 1_555 1_555
C41_6 C40_6 1_555 1_555
H44_6 C41_6 1_555 1_555
C42_6 N9_6 1_555 1_555
H45_6 C42_6 1_555 1_555
C43_6 C42_6 1_555 1_555
H46_6 C43_6 1_555 1_555
C44_6 C41_6 1_555 1_555
C45_6 C44_6 1_555 1_555
H47_6 C45_6 1_555 1_555
H48_6 C45_6 1_555 1_555
C46_6 C45_6 1_555 1_555
H49_6 C46_6 1_555 1_555
C43_6 C44_6 1_555 1_555
Cu5_3 N10_5 1_555 1_555
N10_5 C50_6 1_555 1_555
H51_6 C47_6 1_555 1_555
H52_6 C47_6 1_555 1_555
C48_6 C47_6 1_555 1_555
C49_6 C48_6 1_555 1_555
H53_6 C49_6 1_555 1_555
C50_6 C49_6 1_555 1_555
H54_6 C50_6 1_555 1_555
C51_6 N10_5 1_555 1_555
H55_6 C51_6 1_555 1_555
C52_6 C48_6 1_555 1_555
H56_6 C52_6 1_555 1_555
C51_6 C52_6 1_555 1_555
Cu5_2 N7_6 1_555 1_555
N7_6 C27_6 1_555 1_555
N8_5 C37_6 1_555 1_555
C27_6 H29_6 1_555 1_555
C28_6 C27_6 1_555 1_555
H30_6 C28_6 1_555 1_555
C29_6 N7_6 1_555 1_555
H31_6 C29_6 1_555 1_555
C30_6 C29_6 1_555 1_555
H32_6 C30_6 1_555 1_555
C31_6 C28_6 1_555 1_555
C32_6 C31_6 1_555 1_555
H33_6 C32_6 1_555 1_555
H34_6 C32_6 1_555 1_555
C33_6 C32_6 1_555 1_555
H35_6 C33_6 1_555 1_555
H36_6 C33_6 1_555 1_555
C34_6 C33_6 1_555 1_555
H37_6 C34_6 1_555 1_555
H38_6 C34_6 1_555 1_555
C35_6 C34_6 1_555 1_555
C36_6 C35_6 1_555 1_555
H39_6 C36_6 1_555 1_555
C37_6 C36_6 1_555 1_555
H40_6 C37_6 1_555 1_555
C38_6 N8_5 1_555 1_555
H41_6 C38_6 1_555 1_555
C39_6 C35_6 1_555 1_555
H42_6 C39_6 1_555 1_555
Cu5_4 N8_5 1_555 1_555
C30_6 C31_6 1_555 1_555
C38_6 C39_6 1_555 1_555
Cu5_3 N7_7 1_555 1_555
N7_7 C27_7 1_555 1_555
C28_7 C27_7 1_555 1_555
H30_7 C28_7 1_555 1_555
C29_7 N7_7 1_555 1_555
H31_7 C29_7 1_555 1_555
C30_7 C29_7 1_555 1_555
H32_7 C30_7 1_555 1_555
C31_7 C28_7 1_555 1_555
C32_7 C31_7 1_555 1_555
H33_7 C32_7 1_555 1_555
H34_7 C32_7 1_555 1_555
C33_7 C32_7 1_555 1_555
H35_7 C33_7 1_555 1_555
H36_7 C33_7 1_555 1_555
C34_7 C33_7 1_555 1_555
H37_7 C34_7 1_555 1_555
H38_7 C34_7 1_555 1_555
C30_7 C31_7 1_555 1_555
N8_6 C37_7 1_555 1_555
C36_7 C35_7 1_555 1_555
C37_7 C36_7 1_555 1_555
H40_7 C37_7 1_555 1_555
C38_7 N8_6 1_555 1_555
H41_7 C38_7 1_555 1_555
C39_7 C35_7 1_555 1_555
H42_7 C39_7 1_555 1_555
Cu5_5 N8_6 1_555 1_555
C38_7 C39_7 1_555 1_555
N9_7 Cu5_4 1_555 1_555
C40_7 N9_7 1_555 1_555
C41_7 C40_7 1_555 1_555
H44_7 C41_7 1_555 1_555
C42_7 N9_7 1_555 1_555
H45_7 C42_7 1_555 1_555
C43_7 C42_7 1_555 1_555
H46_7 C43_7 1_555 1_555
C44_7 C41_7 1_555 1_555
C45_7 C44_7 1_555 1_555
H47_7 C45_7 1_555 1_555
H48_7 C45_7 1_555 1_555
C46_7 C45_7 1_555 1_555
H49_7 C46_7 1_555 1_555
H50_7 C46_7 1_555 1_555
C47_7 C46_7 1_555 1_555
H51_7 C47_7 1_555 1_555
H52_7 C47_7 1_555 1_555
C43_7 C44_7 1_555 1_555
Cu5_5 N10_6 1_555 1_555
N10_6 C50_7 1_555 1_555
C49_7 C48_7 1_555 1_555
C50_7 C49_7 1_555 1_555
H54_7 C50_7 1_555 1_555
C51_7 N10_6 1_555 1_555
H55_7 C51_7 1_555 1_555
C52_7 C48_7 1_555 1_555
H56_7 C52_7 1_555 1_555
C51_7 C52_7 1_555 1_555
N12_2 C37_8 1_555 1_555
H37_8 C34_8 1_555 1_555
H38_8 C34_8 1_555 1_555
C35_8 C34_8 1_555 1_555
C36_8 C35_8 1_555 1_555
H39_8 C36_8 1_555 1_555
C37_8 C36_8 1_555 1_555
H40_8 C37_8 1_555 1_555
C38_8 N12_2 1_555 1_555
H41_8 C38_8 1_555 1_555
C39_8 C35_8 1_555 1_555
H42_8 C39_8 1_555 1_555
C38_8 C39_8 1_555 1_555
Cu5_5 N7_8 1_555 1_555
N7_8 C27_8 1_555 1_555
C27_8 H29_8 1_555 1_555
C28_8 C27_8 1_555 1_555
H30_8 C28_8 1_555 1_555
C29_8 N7_8 1_555 1_555
H31_8 C29_8 1_555 1_555
C30_8 C29_8 1_555 1_555
H32_8 C30_8 1_555 1_555
C31_8 C28_8 1_555 1_555
C32_8 C31_8 1_555 1_555
H33_8 C32_8 1_555 1_555
H34_8 C32_8 1_555 1_555
C33_8 C32_8 1_555 1_555
H35_8 C33_8 1_555 1_555
N9_8 Cu5_5 1_555 1_555
N11_2 C50_8 1_555 1_555
C40_8 N9_8 1_555 1_555
H43_8 C40_8 1_555 1_555
C41_8 C40_8 1_555 1_555
H44_8 C41_8 1_555 1_555
C42_8 N9_8 1_555 1_555
H45_8 C42_8 1_555 1_555
C43_8 C42_8 1_555 1_555
H46_8 C43_8 1_555 1_555
C44_8 C41_8 1_555 1_555
C45_8 C44_8 1_555 1_555
H47_8 C45_8 1_555 1_555
H48_8 C45_8 1_555 1_555
C46_8 C45_8 1_555 1_555
H49_8 C46_8 1_555 1_555
H50_8 C46_8 1_555 1_555
C47_8 C46_8 1_555 1_555
H51_8 C47_8 1_555 1_555
H52_8 C47_8 1_555 1_555
C48_8 C47_8 1_555 1_555
C49_8 C48_8 1_555 1_555
H53_8 C49_8 1_555 1_555
C50_8 C49_8 1_555 1_555
H54_8 C50_8 1_555 1_555
C51_8 N11_2 1_555 1_555
H55_8 C51_8 1_555 1_555
C52_8 C48_8 1_555 1_555
H56_8 C52_8 1_555 1_555
C30_8 C31_8 1_555 1_555
C43_8 C44_8 1_555 1_555
C51_8 C52_8 1_555 1_555

#END
