
###############################################################################
#
# This file contains modified crystal structure data generated from the
# MOF subset of the Cambridge Structural Database (CSD) v543 
# hosted by the Cambridge Crystallographic Data Centre (CCDC).
#
# This work is licensed under the Creative Commons
# Attribution-NonCommercial-ShareAlike 4.0 International License.
# To view a copy of this license, visit
# http://creativecommons.org/licenses/by-nc-sa/4.0/
# or send a letter to
# Creative Commons, PO Box 1866, Mountain View, CA 94042, USA.
#
# CIF created using the CSD Python API on 29 September 2022
# The structure has been converted into the P1 space group
# The structure has a 3D framework
# The original CSD entry XULCIR is in the orthorhombic crystal system
# The framework has been calculated to contain at least 10.0% void space
# The void calculation uses a probe of radius 1.32A, grid spacing 0.4
#
###############################################################################

data_XULCIR
_chemical_formula_moiety         '(C88 H64 Fe4 Mn8 N40 O8)n'
_symmetry_cell_setting           triclinic
_symmetry_space_group_name_H-M   'P 1'
_symmetry_Int_Tables_number      1
_space_group_name_Hall           'P 1'
loop_
_symmetry_equiv_pos_site_id
_symmetry_equiv_pos_as_xyz
1 x,y,z
_cell_length_a                   16.3148(8)
_cell_length_b                   17.8861(11)
_cell_length_c                   11.6284(6)
_cell_angle_alpha                90
_cell_angle_beta                 90
_cell_angle_gamma                90
_cell_volume                     3393.26
loop_
_atom_site_label
_atom_site_type_symbol
_atom_site_fract_x
_atom_site_fract_y
_atom_site_fract_z
Mn5 Mn 0.11042(5) 0.18173(4) 0.5000
N24 N 0.0191(3) 0.8486(3) 0.5000
C1 C 0.8027(2) 0.0984(2) 0.3310(4)
C3 C 0.6897(3) 0.0663(3) 0.5000
C4 C 0.7616(3) 0.2019(3) 0.5000
C5 C 0.9144(3) 0.1326(3) 0.5000
C11 C 0.5431(3) 0.0477(3) 0.2449(4)
H5 H 0.5747 0.0824 0.2845
C12 C 0.5446(3) 0.0497(3) 0.1265(4)
H6 H 0.5764 0.0853 0.0890
C13 C 0.5000 -0.0000 0.0641(4)
N1 N 0.8022(2) 0.0977(2) 0.2318(3)
N3 N 0.6217(3) 0.0500(2) 0.5000
N4 N 0.7294(3) 0.2594(3) 0.5000
N6 N 0.5000 -0.0000 0.3052(4)
N7 N 0.9809(3) 0.1514(3) 0.5000
O2 O 0.4324(2) 0.11049(19) 0.5000
H9 H 0.4013 0.1232 0.4335
Mn2 Mn 0.5000 -0.0000 0.5000
Fe1 Fe 0.80206(5) 0.09956(4) 0.5000
C14 C 0.8027(2) 0.0984(2) 0.6690(4)
C17 C 0.1644(3) 0.0038(3) 0.5000
N8 N 0.8022(2) 0.0977(2) 0.7682(3)
N11 N 0.1485(3) 0.0662(3) 0.5000
N15 N 0.2294(3) 0.2406(3) 0.5000
N19 N 0.10792(19) 0.18530(18) 0.6950(3)
N20 N 0.10792(19) 0.18530(18) 0.3050(3)
N22 N 0.5000 -0.0000 0.6948(4)
O3 O 0.0622(2) 0.2966(2) 0.5000
H28 H 0.0106 0.3136 0.5000
H29 H 0.1018 0.3308 0.5000
H30 H 0.4013 0.1232 0.5665
Mn4 Mn 0.61042(5) 0.31827(4) 0.5000
C38 C 0.5431(3) 0.0477(3) 0.7551(4)
H24 H 0.5747 0.0824 0.7155
C41 C 0.5446(3) 0.0497(3) 0.8735(4)
H26 H 0.5764 0.0853 0.9110
C42 C 0.5000 -0.0000 0.9359(4)
C21 C 0.8561(2) 0.7609(2) 0.2442(3)
H10 H 0.8279 0.7239 0.2840
C24 C 0.8582(3) 0.7567(2) 0.1265(3)
H13 H 0.8321 0.7176 0.0886
C27 C 0.9325(3) 0.8666(3) 0.2455(3)
H16 H 0.9588 0.9045 0.2859
C30 C 0.9375(3) 0.8669(3) 0.1271(3)
H19 H 0.9664 0.9045 0.0897
C33 C 0.8994(2) 0.8112(2) 0.0641(3)
N16 N 0.89208(19) 0.81470(18) 0.3050(3)
Mn6 Mn 0.88958(5) 0.81827(4) 0.5000
C2 C 0.8356(3) 0.9962(3) 0.5000
C6 C 0.8561(2) 0.7609(2) 0.7558(3)
H1 H 0.8279 0.7239 0.7160
C7 C 0.8582(3) 0.7567(2) 0.8735(3)
H2 H 0.8321 0.7176 0.9114
C8 C 0.9325(3) 0.8666(3) 0.7545(3)
H3 H 0.9588 0.9045 0.7141
C9 C 0.9375(3) 0.8669(3) 0.8729(3)
H4 H 0.9664 0.9045 0.9103
C10 C 0.8994(2) 0.8112(2) 0.9359(3)
C13_2 C 0.5000 1.0000 0.0641(4)
N2 N 0.8515(3) 0.9338(3) 0.5000
N5 N 0.89208(19) 0.81470(18) 0.6950(3)
N6_2 N 0.5000 1.0000 0.3052(4)
O1 O 0.9378(2) 0.7034(2) 0.5000
H7 H 0.9894 0.6864 0.5000
H8 H 0.8982 0.6692 0.5000
Mn2_2 Mn 0.5000 1.0000 0.5000
C15 C 0.1973(2) 0.9016(2) 0.3310(4)
C16 C 0.1973(2) 0.9016(2) 0.6690(4)
C18 C 0.3103(3) 0.9337(3) 0.5000
C19 C 0.2384(3) 0.7981(3) 0.5000
C20 C 0.0856(3) 0.8674(3) 0.5000
C36 C 0.4569(3) 0.9523(3) 0.2449(4)
H22 H 0.4253 0.9176 0.2845
C39 C 0.4554(3) 0.9503(3) 0.1265(4)
H25 H 0.4236 0.9147 0.0890
N9 N 0.1978(2) 0.9023(2) 0.2318(3)
N10 N 0.1978(2) 0.9023(2) 0.7682(3)
N12 N 0.3783(3) 0.9500(2) 0.5000
N13 N 0.2706(3) 0.7406(3) 0.5000
N14 N 0.7706(3) 0.7594(3) 0.5000
N22_2 N 0.5000 1.0000 0.6948(4)
O4 O 0.5676(2) 0.88951(19) 0.5000
H31 H 0.5987 0.8768 0.4335
H32 H 0.5987 0.8768 0.5665
Mn7 Mn 0.38958(5) 0.68173(4) 0.5000
Fe2 Fe 0.19794(5) 0.90044(4) 0.5000
C37 C 0.4569(3) 0.9523(3) 0.7551(4)
H23 H 0.4253 0.9176 0.7155
C40 C 0.4554(3) 0.9503(3) 0.8735(4)
H27 H 0.4236 0.9147 0.9110
C42_2 C 0.5000 1.0000 0.9359(4)
C21_2 C 0.1439(2) 0.2391(2) 0.2442(3)
H10_2 H 0.1721 0.2761 0.2840
C24_2 C 0.1418(3) 0.2433(2) 0.1265(3)
H13_2 H 0.1679 0.2824 0.0886
C27_2 C 0.0675(3) 0.1334(3) 0.2455(3)
H16_2 H 0.0412 0.0955 0.2859
C30_2 C 0.0625(3) 0.1331(3) 0.1271(3)
H19_2 H 0.0336 0.0955 0.0897
C33_2 C 0.1006(2) 0.1888(2) 0.0641(3)
C6_2 C 0.1439(2) 0.2391(2) 0.7558(3)
H1_2 H 0.1721 0.2761 0.7160
C7_2 C 0.1418(3) 0.2433(2) 0.8735(3)
H2_2 H 0.1679 0.2824 0.9114
C8_2 C 0.0675(3) 0.1334(3) 0.7545(3)
H3_2 H 0.0412 0.0955 0.7141
C9_2 C 0.0625(3) 0.1331(3) 0.8729(3)
H4_2 H 0.0336 0.0955 0.9103
C10_2 C 0.1006(2) 0.1888(2) 0.9359(3)
C23 C 0.3561(2) 0.7391(2) 0.2442(3)
H12 H 0.3279 0.7761 0.2840
C26 C 0.3582(3) 0.7433(2) 0.1265(3)
H15 H 0.3321 0.7824 0.0886
C29 C 0.4325(3) 0.6334(3) 0.2455(3)
H18 H 0.4588 0.5955 0.2859
C32 C 0.4375(3) 0.6331(3) 0.1271(3)
H21 H 0.4664 0.5955 0.0897
C35 C 0.3994(2) 0.6888(2) 0.0641(3)
C38_2 C 0.0431(3) 0.4523(3) 0.2449(4)
H24_2 H 0.0747 0.4176 0.2845
C41_2 C 0.0446(3) 0.4503(3) 0.1265(4)
H26_2 H 0.0764 0.4147 0.0890
C42_3 C 0.0000 0.5000 0.0641(4)
N18 N 0.39208(19) 0.68530(18) 0.3050(3)
N21 N 0.0000 0.5000 0.3052(4)
Mn10 Mn 0.0000 0.5000 0.5000
C1_2 C 0.3027(2) 0.4016(2) 0.6690(4)
C2_2 C 0.3356(3) 0.5038(3) 0.5000
C3_2 C 0.1897(3) 0.4337(3) 0.5000
C4_2 C 0.2616(3) 0.2981(3) 0.5000
C5_2 C 0.4144(3) 0.3674(3) 0.5000
C11_2 C 0.0431(3) 0.4523(3) 0.7551(4)
H5_2 H 0.0747 0.4176 0.7155
C12_2 C 0.0446(3) 0.4503(3) 0.8735(4)
H6_2 H 0.0764 0.4147 0.9110
C13_3 C 0.0000 0.5000 0.9359(4)
N1_2 N 0.3022(2) 0.4023(2) 0.7682(3)
N2_2 N 0.3515(3) 0.5662(3) 0.5000
N3_2 N 0.1217(3) 0.4500(2) 0.5000
N6_3 N -0.0000 0.5000 0.6948(4)
N7_2 N 0.4809(3) 0.3486(3) 0.5000
O1_2 O 0.4378(2) 0.7966(2) 0.5000
H7_2 H 0.4894 0.8136 0.5000
H8_2 H 0.3982 0.8308 0.5000
Fe1_2 Fe 0.30206(5) 0.40044(4) 0.5000
C14_2 C 0.3027(2) 0.4016(2) 0.3310(4)
C22 C 0.3561(2) 0.7391(2) 0.7558(3)
H11 H 0.3279 0.7761 0.7160
C25 C 0.3582(3) 0.7433(2) 0.8735(3)
H14 H 0.3321 0.7824 0.9114
C28 C 0.4325(3) 0.6334(3) 0.7545(3)
H17 H 0.4588 0.5955 0.7141
C31 C 0.4375(3) 0.6331(3) 0.8729(3)
H20 H 0.4664 0.5955 0.9103
C34 C 0.3994(2) 0.6888(2) 0.9359(3)
N8_2 N 0.3022(2) 0.4023(2) 0.2318(3)
N17 N 0.39208(19) 0.68530(18) 0.6950(3)
N24_2 N 0.5191(3) 0.6514(3) 0.5000
O4_2 O 0.0676(2) 0.61049(19) 0.5000
H31_2 H 0.0987 0.6232 0.5665
H32_2 H 0.0987 0.6232 0.4335
C37_2 C 0.9569(3) 0.5477(3) 0.2449(4)
H23_2 H 0.9253 0.5824 0.2845
C40_2 C 0.9554(3) 0.5497(3) 0.1265(4)
H27_2 H 0.9236 0.5853 0.0890
C42_4 C 1.0000 0.5000 0.0641(4)
N21_2 N 1.0000 0.5000 0.3052(4)
Mn10_2 Mn 1.0000 0.5000 0.5000
C13_4 C 1.0000 0.5000 0.9359(4)
N6_4 N 1.0000 0.5000 0.6948(4)
O2_2 O 0.9324(2) 0.38951(19) 0.5000
H9_2 H 0.9013 0.3768 0.5665
C15_2 C 0.6973(2) 0.5984(2) 0.6690(4)
C16_2 C 0.6973(2) 0.5984(2) 0.3310(4)
C17_2 C 0.6644(3) 0.4962(3) 0.5000
C18_2 C 0.8103(3) 0.5663(3) 0.5000
C19_2 C 0.7384(3) 0.7019(3) 0.5000
C20_2 C 0.5856(3) 0.6326(3) 0.5000
C36_2 C 0.9569(3) 0.5477(3) 0.7551(4)
H22_2 H 0.9253 0.5824 0.7155
C39_2 C 0.9554(3) 0.5497(3) 0.8735(4)
H25_2 H 0.9236 0.5853 0.9110
N9_2 N 0.6978(2) 0.5977(2) 0.7682(3)
N10_2 N 0.6978(2) 0.5977(2) 0.2318(3)
N11_2 N 0.6485(3) 0.4338(3) 0.5000
N12_2 N 0.8783(3) 0.5500(2) 0.5000
N19_2 N 0.60792(19) 0.31470(18) 0.3050(3)
N20_2 N 0.60792(19) 0.31470(18) 0.6950(3)
O3_2 O 0.5622(2) 0.2034(2) 0.5000
H28_2 H 0.5106 0.1864 0.5000
H29_2 H 0.6018 0.1692 0.5000
H30_2 H 0.9013 0.3768 0.4335
Fe2_2 Fe 0.69794(5) 0.59956(4) 0.5000
C23_2 C 0.6439(2) 0.2609(2) 0.2442(3)
H12_2 H 0.6721 0.2239 0.2840
C26_2 C 0.6418(3) 0.2567(2) 0.1265(3)
H15_2 H 0.6679 0.2176 0.0886
C29_2 C 0.5675(3) 0.3666(3) 0.2455(3)
H18_2 H 0.5412 0.4045 0.2859
C32_2 C 0.5625(3) 0.3669(3) 0.1271(3)
H21_2 H 0.5336 0.4045 0.0897
C35_2 C 0.6006(2) 0.3112(2) 0.0641(3)
C22_2 C 0.6439(2) 0.2609(2) 0.7558(3)
H11_2 H 0.6721 0.2239 0.7160
C25_2 C 0.6418(3) 0.2567(2) 0.8735(3)
H14_2 H 0.6679 0.2176 0.9114
C28_2 C 0.5675(3) 0.3666(3) 0.7545(3)
H17_2 H 0.5412 0.4045 0.7141
C31_2 C 0.5625(3) 0.3669(3) 0.8729(3)
H20_2 H 0.5336 0.4045 0.9103
C34_2 C 0.6006(2) 0.3112(2) 0.9359(3)
loop_
_geom_bond_atom_site_label_1
_geom_bond_atom_site_label_2
_geom_bond_site_symmetry_1
_geom_bond_site_symmetry_2
C1 N1 1_555 1_555
C3 N3 1_555 1_555
C4 N4 1_555 1_555
C5 N7 1_555 1_555
C11 H5 1_555 1_555
C12 C11 1_555 1_555
H6 C12 1_555 1_555
C13 C12 1_555 1_555
N3 Mn2 1_555 1_555
N4 Mn4 1_555 1_555
N6 C11 1_555 1_555
O2 H9 1_555 1_555
Mn2 N6 1_555 1_555
Fe1 C1 1_555 1_555
C14 Fe1 1_555 1_555
C17 N11 1_555 1_555
N8 C14 1_555 1_555
N11 Mn5 1_555 1_555
N15 Mn5 1_555 1_555
N19 Mn5 1_555 1_555
N20 Mn5 1_555 1_555
N22 Mn2 1_555 1_555
O3 H28 1_555 1_555
H29 O3 1_555 1_555
H30 O2 1_555 1_555
Mn5 O3 1_555 1_555
C3 Fe1 1_555 1_555
C4 Fe1 1_555 1_555
C5 Fe1 1_555 1_555
O2 Mn2 1_555 1_555
C38 H24 1_555 1_555
C41 C38 1_555 1_555
H26 C41 1_555 1_555
C38 N22 1_555 1_555
C41 C42 1_555 1_555
C21 H10 1_555 1_555
C24 C21 1_555 1_555
H13 C24 1_555 1_555
C27 H16 1_555 1_555
C30 C27 1_555 1_555
H19 C30 1_555 1_555
N16 C21 1_555 1_555
Mn6 N16 1_555 1_555
C24 C33 1_555 1_555
C27 N16 1_555 1_555
C30 C33 1_555 1_555
C2 N2 1_555 1_555
C6 H1 1_555 1_555
C7 C6 1_555 1_555
H2 C7 1_555 1_555
C8 H3 1_555 1_555
C9 C8 1_555 1_555
H4 C9 1_555 1_555
C10 C7 1_555 1_555
N2 Mn6 1_555 1_555
N5 C6 1_555 1_555
O1 H7 1_555 1_555
H8 O1 1_555 1_555
Mn6 N5 1_555 1_555
Mn2_2 N6_2 1_555 1_555
C15 N9 1_555 1_555
C16 N10 1_555 1_555
C18 N12 1_555 1_555
C19 N13 1_555 1_555
C20 N24 1_555 1_555
C36 N6_2 1_555 1_555
H22 C36 1_555 1_555
C39 C13_2 1_555 1_555
H25 C39 1_555 1_555
N12 Mn2_2 1_555 1_555
N13 Mn7 1_555 1_555
N14 Mn6 1_555 1_555
N22_2 Mn2_2 1_555 1_555
O4 Mn2_2 1_555 1_555
H31 O4 1_555 1_555
H32 O4 1_555 1_555
Fe2 C15 1_555 1_555
C8 N5 1_555 1_555
C9 C10 1_555 1_555
O1 Mn6 1_555 1_555
C16 Fe2 1_555 1_555
C18 Fe2 1_555 1_555
C19 Fe2 1_555 1_555
C20 Fe2 1_555 1_555
C36 C39 1_555 1_555
C37 H23 1_555 1_555
C40 C37 1_555 1_555
H27 C40 1_555 1_555
N22_2 C37 1_555 1_555
C40 C42_2 1_555 1_555
C21_2 H10_2 1_555 1_555
C24_2 C21_2 1_555 1_555
H13_2 C24_2 1_555 1_555
C27_2 H16_2 1_555 1_555
C30_2 C27_2 1_555 1_555
H19_2 C30_2 1_555 1_555
N20 C21_2 1_555 1_555
C24_2 C33_2 1_555 1_555
C27_2 N20 1_555 1_555
C30_2 C33_2 1_555 1_555
C6_2 H1_2 1_555 1_555
C7_2 C6_2 1_555 1_555
H2_2 C7_2 1_555 1_555
C8_2 H3_2 1_555 1_555
C9_2 C8_2 1_555 1_555
H4_2 C9_2 1_555 1_555
C10_2 C7_2 1_555 1_555
N19 C6_2 1_555 1_555
C8_2 N19 1_555 1_555
C9_2 C10_2 1_555 1_555
C23 H12 1_555 1_555
C26 C23 1_555 1_555
H15 C26 1_555 1_555
C29 H18 1_555 1_555
C32 C29 1_555 1_555
H21 C32 1_555 1_555
C35 C26 1_555 1_555
C38_2 H24_2 1_555 1_555
C41_2 C38_2 1_555 1_555
H26_2 C41_2 1_555 1_555
N18 C23 1_555 1_555
Mn7 N18 1_555 1_555
Mn10 N21 1_555 1_555
C29 N18 1_555 1_555
C32 C35 1_555 1_555
C38_2 N21 1_555 1_555
C41_2 C42_3 1_555 1_555
C1_2 N1_2 1_555 1_555
C2_2 N2_2 1_555 1_555
C3_2 N3_2 1_555 1_555
C4_2 N15 1_555 1_555
C5_2 N7_2 1_555 1_555
C11_2 H5_2 1_555 1_555
C12_2 C11_2 1_555 1_555
H6_2 C12_2 1_555 1_555
C13_3 C12_2 1_555 1_555
N2_2 Mn7 1_555 1_555
N3_2 Mn10 1_555 1_555
N6_3 C11_2 1_555 1_555
N7_2 Mn4 1_555 1_555
O1_2 H7_2 1_555 1_555
H8_2 O1_2 1_555 1_555
Mn10 N6_3 1_555 1_555
Fe1_2 C1_2 1_555 1_555
C14_2 Fe1_2 1_555 1_555
C22 H11 1_555 1_555
C25 C22 1_555 1_555
H14 C25 1_555 1_555
C28 H17 1_555 1_555
C31 C28 1_555 1_555
H20 C31 1_555 1_555
C34 C25 1_555 1_555
N8_2 C14_2 1_555 1_555
N17 Mn7 1_555 1_555
N24_2 Mn7 1_555 1_555
O4_2 Mn10 1_555 1_555
H31_2 O4_2 1_555 1_555
H32_2 O4_2 1_555 1_555
C2_2 Fe1_2 1_555 1_555
C3_2 Fe1_2 1_555 1_555
C4_2 Fe1_2 1_555 1_555
C5_2 Fe1_2 1_555 1_555
O1_2 Mn7 1_555 1_555
C22 N17 1_555 1_555
C28 N17 1_555 1_555
C31 C34 1_555 1_555
C37_2 H23_2 1_555 1_555
C40_2 C37_2 1_555 1_555
H27_2 C40_2 1_555 1_555
N21_2 C37_2 1_555 1_555
Mn10_2 N21_2 1_555 1_555
C40_2 C42_4 1_555 1_555
O2_2 H9_2 1_555 1_555
Mn10_2 N6_4 1_555 1_555
C15_2 N9_2 1_555 1_555
C16_2 N10_2 1_555 1_555
C17_2 N11_2 1_555 1_555
C18_2 N12_2 1_555 1_555
C19_2 N14 1_555 1_555
C20_2 N24_2 1_555 1_555
C36_2 N6_4 1_555 1_555
H22_2 C36_2 1_555 1_555
C39_2 C13_4 1_555 1_555
H25_2 C39_2 1_555 1_555
N11_2 Mn4 1_555 1_555
N12_2 Mn10_2 1_555 1_555
N19_2 Mn4 1_555 1_555
N20_2 Mn4 1_555 1_555
O3_2 H28_2 1_555 1_555
H29_2 O3_2 1_555 1_555
H30_2 O2_2 1_555 1_555
Mn4 O3_2 1_555 1_555
Fe2_2 C15_2 1_555 1_555
O2_2 Mn10_2 1_555 1_555
C16_2 Fe2_2 1_555 1_555
C17_2 Fe2_2 1_555 1_555
C18_2 Fe2_2 1_555 1_555
C19_2 Fe2_2 1_555 1_555
C20_2 Fe2_2 1_555 1_555
C36_2 C39_2 1_555 1_555
C23_2 H12_2 1_555 1_555
C26_2 C23_2 1_555 1_555
H15_2 C26_2 1_555 1_555
C29_2 H18_2 1_555 1_555
C32_2 C29_2 1_555 1_555
H21_2 C32_2 1_555 1_555
C35_2 C26_2 1_555 1_555
N19_2 C23_2 1_555 1_555
C29_2 N19_2 1_555 1_555
C32_2 C35_2 1_555 1_555
C22_2 H11_2 1_555 1_555
C25_2 C22_2 1_555 1_555
H14_2 C25_2 1_555 1_555
C28_2 H17_2 1_555 1_555
C31_2 C28_2 1_555 1_555
H20_2 C31_2 1_555 1_555
C34_2 C25_2 1_555 1_555
C22_2 N20_2 1_555 1_555
C28_2 N20_2 1_555 1_555
C31_2 C34_2 1_555 1_555

#END
