
###############################################################################
#
# This file contains modified crystal structure data generated from the
# MOF subset of the Cambridge Structural Database (CSD) v543 
# hosted by the Cambridge Crystallographic Data Centre (CCDC).
#
# This work is licensed under the Creative Commons
# Attribution-NonCommercial-ShareAlike 4.0 International License.
# To view a copy of this license, visit
# http://creativecommons.org/licenses/by-nc-sa/4.0/
# or send a letter to
# Creative Commons, PO Box 1866, Mountain View, CA 94042, USA.
#
# CIF created using the CSD Python API on 29 September 2022
# The structure has been converted into the P1 space group
# The structure has a 3D framework
# The original CSD entry XULDEP is in the monoclinic crystal system
# The framework has been calculated to contain at least 10.0% void space
# The void calculation uses a probe of radius 1.32A, grid spacing 0.4
# H atom positions have been added when not included in the experimental data
#
###############################################################################

data_XULDEP
_chemical_formula_moiety         '(C92 H100 Co8 N4 O52)n'
_symmetry_cell_setting           triclinic
_symmetry_space_group_name_H-M   'P 1'
_symmetry_Int_Tables_number      1
_space_group_name_Hall           'P 1'
loop_
_symmetry_equiv_pos_site_id
_symmetry_equiv_pos_as_xyz
1 x,y,z
_cell_length_a                   7.7720(16)
_cell_length_b                   18.629(4)
_cell_length_c                   19.518(5)
_cell_angle_alpha                90
_cell_angle_beta                 104.23(3)
_cell_angle_gamma                90
_cell_volume                     2739.2
loop_
_atom_site_label
_atom_site_type_symbol
_atom_site_fract_x
_atom_site_fract_y
_atom_site_fract_z
Co3 Co 0.29590(7) 0.06004(3) 0.52948(3)
Co2 Co 0.19801(7) 0.43997(3) 0.46464(3)
O1 O 0.0271(5) 0.41897(18) 0.35971(19)
H2 H 0.1027 0.4280 0.3358
O4 O 0.2004(4) 0.16555(16) 0.52783(18)
O5 O 0.0847(4) 0.08923(15) 0.58901(17)
O6 O 0.4888(5) 0.08124(19) 0.6221(2)
H3 H 0.5284 0.1226 0.6351
H4 H 0.5811 0.0491 0.6442
O7 O 0.0802(4) 0.03963(18) 0.43805(18)
N1 N 0.3784(7) 0.4618(2) 0.5642(2)
C1 C 0.2262(12) 0.4666(5) 0.6768(4)
H5 H 0.1755 0.4210 0.6837
H6 H 0.1343 0.5023 0.6659
H7 H 0.3122 0.4801 0.7192
C2 C 0.3146(14) 0.4613(6) 0.6172(5)
H8 H 0.0734 0.2904 0.5306
C10 C 0.0911(5) 0.1517(2) 0.5644(2)
O14 O 0.1978(5) 0.54438(15) 0.43553(19)
O15 O 0.4324(4) 0.41352(15) 0.42148(18)
O16 O 0.2977(4) 0.33355(16) 0.47119(19)
O17 O 0.4490(5) 0.07415(17) 0.4614(2)
H24 H 0.0907985 0.0721113 0.398956
O9 O 0.9011(4) 0.27648(15) 0.34076(17)
O13 O 0.7153(4) 0.04674(15) 0.44684(18)
H20 H 0.9450 0.1886 0.2888
C16 C 0.7751(5) 0.2543(2) 0.3748(2)
C17 C 0.7519(5) 0.1839(2) 0.3928(2)
H21 H 0.8235 0.1478 0.3819
C18 C 0.6191(5) 0.16734(18) 0.4277(2)
C19 C 0.5106(5) 0.22085(19) 0.4434(2)
H22 H 0.4215 0.2095 0.4658
C20 C 0.5361(5) 0.29188(19) 0.42526(19)
C21 C 0.6675(5) 0.30892(19) 0.3909(2)
H23 H 0.6840 0.3562 0.3788
C22 C 0.5927(5) 0.0910(2) 0.4473(2)
C23 C 0.4175(5) 0.3495(2) 0.4413(2)
H1 H 0.0109 0.6239 0.6453
O2 O 0.0119(5) 0.58182(18) 0.4973(2)
O8 O 0.3941(4) 0.77604(15) 0.33797(17)
C3 C 0.1078(5) 0.5922(2) 0.4556(2)
C4 C 0.1229(5) 0.66705(19) 0.4299(2)
C5 C 0.0113(5) 0.72048(19) 0.44465(19)
C6 C 0.0286(5) 0.79044(19) 0.42173(19)
C7 C 0.1575(5) 0.8070(2) 0.3857(2)
H9 H 0.1688 0.8537 0.3707
C8 C 0.2695(5) 0.7532(2) 0.3721(2)
C9 C 0.2526(5) 0.6832(2) 0.3934(2)
H10 H 0.3263 0.6473 0.3836
C11 C 0.5121(5) 0.7239(2) 0.3194(2)
H11 H 0.5849 0.7016 0.3616
H12 H 0.4451 0.6869 0.2895
C12 C 0.6265(5) 0.7648(2) 0.2804(2)
H13 H 0.5500 0.7916 0.2422
H14 H 0.6981 0.7991 0.3126
C13 C 0.7495(5) 0.7172(3) 0.2497(2)
H15 H 0.8233 0.6883 0.2869
H16 H 0.6796 0.6851 0.2145
C14 C 0.8664(5) 0.7648(2) 0.2158(2)
H17 H 0.9395 0.7948 0.2522
H18 H 0.7906 0.7962 0.1817
C15 C 0.9853(6) 0.7237(2) 0.1794(2)
H19 H 0.9156 0.6990 0.1381
H25 H 0.914636 0.011043 0.577105
O9_2 O 0.0989(4) 0.72352(15) 0.65924(17)
O10 O 0.5676(4) 0.58648(15) 0.57852(18)
O11 O 0.7023(4) 0.66645(16) 0.52881(19)
O12 O 0.5510(5) 0.92585(17) 0.5386(2)
O13_2 O 0.2847(4) 0.95326(15) 0.55316(18)
H20_2 H 0.0550 0.8114 0.7112
C16_2 C 0.2249(5) 0.7457(2) 0.6252(2)
C17_2 C 0.2481(5) 0.8161(2) 0.6072(2)
H21_2 H 0.1765 0.8522 0.6181
C18_2 C 0.3809(5) 0.83266(18) 0.5723(2)
C19_2 C 0.4894(5) 0.77915(19) 0.5566(2)
H22_2 H 0.5785 0.7905 0.5342
C20_2 C 0.4639(5) 0.70812(19) 0.57474(19)
C21_2 C 0.3325(5) 0.69108(19) 0.6091(2)
H23_2 H 0.3160 0.6438 0.6212
C22_2 C 0.4073(5) 0.9090(2) 0.5527(2)
C23_2 C 0.5825(5) 0.6505(2) 0.5587(2)
Co4 Co 0.70410(7) 0.93996(3) 0.47052(3)
Co6 Co 0.80199(7) 0.56003(3) 0.53536(3)
H25_2 H 0.0853635 0.988957 0.422895
H1_2 H 0.9891 0.3761 0.3547
O2_2 O 0.9881(5) 0.41818(18) 0.5027(2)
O3 O 0.8022(5) 0.45562(15) 0.56447(19)
O8_2 O 0.6059(4) 0.22396(15) 0.66203(17)
C3_2 C 0.8922(5) 0.4078(2) 0.5444(2)
C4_2 C 0.8771(5) 0.33295(19) 0.5701(2)
C5_2 C 0.9887(5) 0.27952(19) 0.55535(19)
C6_2 C 0.9714(5) 0.20956(19) 0.57827(19)
C7_2 C 0.8425(5) 0.1930(2) 0.6143(2)
H9_2 H 0.8312 0.1463 0.6293
C8_2 C 0.7305(5) 0.2468(2) 0.6279(2)
C9_2 C 0.7474(5) 0.3168(2) 0.6066(2)
H10_2 H 0.6737 0.3527 0.6164
C11_2 C 0.4879(5) 0.2761(2) 0.6806(2)
H11_2 H 0.4151 0.2984 0.6384
H12_2 H 0.5549 0.3131 0.7105
C12_2 C 0.3735(5) 0.2352(2) 0.7196(2)
H13_2 H 0.4500 0.2084 0.7578
H14_2 H 0.3019 0.2009 0.6874
C13_2 C 0.2505(5) 0.2828(3) 0.7503(2)
H15_2 H 0.1767 0.3117 0.7131
H16_2 H 0.3204 0.3149 0.7855
C14_2 C 0.1336(5) 0.2352(2) 0.7842(2)
H17_2 H 0.0605 0.2052 0.7478
H18_2 H 0.2094 0.2038 0.8183
C15_2 C 0.0147(6) 0.2763(2) 0.8206(2)
H19_2 H 0.0844 0.3010 0.8619
O1_2 O 0.9729(5) 0.58103(18) 0.64029(19)
H2_2 H 0.8973 0.5720 0.6642
O4_2 O 0.7996(4) 0.83445(16) 0.47217(18)
O5_2 O 0.9153(4) 0.91077(15) 0.41099(17)
O6_2 O 0.5112(5) 0.91876(19) 0.3779(2)
H3_2 H 0.4716 0.8774 0.3649
H4_2 H 0.4189 0.9509 0.3558
O7_2 O 0.9198(4) 0.96037(18) 0.56195(18)
N1_2 N 0.6216(7) 0.5382(2) 0.4358(2)
C1_2 C 0.7738(12) 0.5334(5) 0.3232(4)
H5_2 H 0.8245 0.5790 0.3163
H6_2 H 0.8657 0.4977 0.3341
H7_2 H 0.6878 0.5199 0.2808
C2_2 C 0.6854(14) 0.5387(6) 0.3828(5)
H8_2 H 0.9266 0.7096 0.4694
C10_2 C 0.9089(5) 0.8483(2) 0.4356(2)
H24_2 H 0.909202 0.927889 0.601044
Co5 Co 0.19801(7) 0.06003(3) 0.96464(3)
Co1 Co 0.70410(7) 0.56004(3) 0.97052(3)
O4_3 O 0.7996(4) 0.66555(16) 0.97217(18)
O5_3 O 0.9153(4) 0.58923(15) 0.91099(17)
O6_3 O 0.5112(5) 0.58124(19) 0.8779(2)
H3_3 H 0.4716 0.6226 0.8649
H4_3 H 0.4189 0.5491 0.8558
N1_3 N 0.6216(7) 0.9618(2) 0.9358(2)
C1_3 C 0.7738(12) 0.9666(5) 0.8232(4)
H5_3 H 0.8245 0.9210 0.8163
H7_3 H 0.6878 0.9801 0.7808
C2_3 C 0.6854(14) 0.9613(6) 0.8828(5)
H8_3 H 0.9266 0.7904 0.9694
C10_3 C 0.9089(5) 0.6517(2) 0.9356(2)
O18 O 0.7153(4) 0.45326(15) 0.94684(18)
O9_3 O 0.9011(4) 0.22352(15) 0.84076(17)
O10_2 O 0.4324(4) 0.08648(15) 0.92148(18)
O11_2 O 0.2977(4) 0.16645(16) 0.97119(19)
O12_2 O 0.4490(5) 0.42585(17) 0.9614(2)
H20_3 H 0.9450 0.3114 0.7888
C16_3 C 0.7751(5) 0.2457(2) 0.8748(2)
C17_3 C 0.7519(5) 0.3161(2) 0.8928(2)
H21_3 H 0.8235 0.3522 0.8819
C18_3 C 0.6191(5) 0.33266(18) 0.9277(2)
C19_3 C 0.5106(5) 0.27915(19) 0.9434(2)
H22_3 H 0.4215 0.2905 0.9658
C20_3 C 0.5361(5) 0.20812(19) 0.92526(19)
C21_3 C 0.6675(5) 0.19108(19) 0.8909(2)
H23_3 H 0.6840 0.1438 0.8788
C22_3 C 0.5927(5) 0.4090(2) 0.9473(2)
C23_3 C 0.4175(5) 0.1505(2) 0.9413(2)
O1_3 O 0.0271(5) 0.08103(18) 0.85971(19)
H2_3 H 0.1027 0.0720 0.8358
O7_3 O 0.0802(4) 0.46037(18) 0.93805(18)
H24_3 H 0.0907985 0.427889 0.898956
H25_3 H 0.0853635 0.511043 0.922895
H1_3 H 0.0109 0.8761 0.1453
O2_3 O 0.0119(5) 0.91818(18) 0.9973(2)
O3_2 O 0.1978(5) 0.95562(15) 0.93553(19)
O8_3 O 0.3941(4) 0.72396(15) 0.83797(17)
C3_3 C 0.1078(5) 0.9078(2) 0.9556(2)
C4_3 C 0.1229(5) 0.83295(19) 0.9299(2)
C5_3 C 0.0113(5) 0.77952(19) 0.94465(19)
C6_3 C 0.0286(5) 0.70956(19) 0.92173(19)
C7_3 C 0.1575(5) 0.6930(2) 0.8857(2)
H9_3 H 0.1688 0.6463 0.8707
C8_3 C 0.2695(5) 0.7468(2) 0.8721(2)
C9_3 C 0.2526(5) 0.8168(2) 0.8934(2)
H10_3 H 0.3263 0.8527 0.8836
C11_3 C 0.5121(5) 0.7761(2) 0.8194(2)
H11_3 H 0.5849 0.7984 0.8616
H12_3 H 0.4451 0.8131 0.7895
C12_3 C 0.6265(5) 0.7352(2) 0.7804(2)
H13_3 H 0.5500 0.7084 0.7422
H14_3 H 0.6981 0.7009 0.8126
C13_3 C 0.7495(5) 0.7828(3) 0.7497(2)
H15_3 H 0.8233 0.8117 0.7869
H16_3 H 0.6796 0.8149 0.7145
C14_3 C 0.8664(5) 0.7352(2) 0.7158(2)
H17_3 H 0.9395 0.7052 0.7522
H18_3 H 0.7906 0.7038 0.6817
C15_3 C 0.9853(6) 0.7763(2) 0.6794(2)
H19_3 H 0.9156 0.8010 0.6381
O14_2 O 0.8022(5) 0.04438(15) 0.06447(19)
O2_4 O 0.9881(5) 0.08182(18) 0.0027(2)
O8_4 O 0.6059(4) 0.27604(15) 0.16203(17)
C3_4 C 0.8922(5) 0.0922(2) 0.0444(2)
C4_4 C 0.8771(5) 0.16705(19) 0.0701(2)
C5_4 C 0.9887(5) 0.22048(19) 0.05535(19)
C6_4 C 0.9714(5) 0.29044(19) 0.07827(19)
C7_4 C 0.8425(5) 0.3070(2) 0.1143(2)
H9_4 H 0.8312 0.3537 0.1293
C8_4 C 0.7305(5) 0.2532(2) 0.1279(2)
C9_4 C 0.7474(5) 0.1832(2) 0.1066(2)
H10_4 H 0.6737 0.1473 0.1164
C11_4 C 0.4879(5) 0.2239(2) 0.1806(2)
H11_4 H 0.4151 0.2016 0.1384
H12_4 H 0.5549 0.1869 0.2105
C12_4 C 0.3735(5) 0.2648(2) 0.2196(2)
H13_4 H 0.4500 0.2916 0.2578
H14_4 H 0.3019 0.2991 0.1874
C13_4 C 0.2505(5) 0.2172(3) 0.2503(2)
H15_4 H 0.1767 0.1883 0.2131
H16_4 H 0.3204 0.1851 0.2855
C14_4 C 0.1336(5) 0.2648(2) 0.2842(2)
H17_4 H 0.0605 0.2948 0.2478
H18_4 H 0.2094 0.2962 0.3183
C15_4 C 0.0147(6) 0.2237(2) 0.3206(2)
H19_4 H 0.0844 0.1990 0.3619
H6_3 H 0.8657 0.0023 0.8341
Co2_2 Co 0.80199(7) 0.93997(3) 0.03536(3)
O1_4 O 0.9729(5) 0.91897(18) 0.14029(19)
H2_4 H 0.8973 0.9280 0.1642
O7_4 O 0.9198(4) 0.53963(18) 0.06195(18)
O15_2 O 0.5676(4) 0.91352(15) 0.07852(18)
O16_2 O 0.7023(4) 0.83355(16) 0.02881(19)
O17_2 O 0.5510(5) 0.57415(17) 0.0386(2)
H24_4 H 0.909202 0.572111 0.101044
H25_4 H 0.914636 0.488957 0.0771046
Co4_2 Co 0.29590(7) 0.43996(3) 0.02948(3)
O4_4 O 0.2004(4) 0.33445(16) 0.02783(18)
O5_4 O 0.0847(4) 0.41077(15) 0.08901(17)
O6_4 O 0.4888(5) 0.41876(19) 0.1221(2)
H3_4 H 0.5284 0.3774 0.1351
H4_4 H 0.5811 0.4509 0.1442
N1_4 N 0.3784(7) 0.0382(2) 0.0642(2)
C1_4 C 0.2262(12) 0.0334(5) 0.1768(4)
H5_4 H 0.1755 0.0790 0.1837
H7_4 H 0.3122 0.0199 0.2192
C2_4 C 0.3146(14) 0.0387(6) 0.1172(5)
H8_4 H 0.0734 0.2096 0.0306
C10_4 C 0.0911(5) 0.3483(2) 0.0644(2)
O18_2 O 0.2847(4) 0.54674(15) 0.05316(18)
O9_4 O 0.0989(4) 0.77648(15) 0.15924(17)
H20_4 H 0.0550 0.6886 0.2112
C16_4 C 0.2249(5) 0.7543(2) 0.1252(2)
C17_4 C 0.2481(5) 0.6839(2) 0.1072(2)
H21_4 H 0.1765 0.6478 0.1181
C18_4 C 0.3809(5) 0.66734(18) 0.0723(2)
C19_4 C 0.4894(5) 0.72085(19) 0.0566(2)
H22_4 H 0.5785 0.7095 0.0342
C20_4 C 0.4639(5) 0.79188(19) 0.07474(19)
C21_4 C 0.3325(5) 0.80892(19) 0.1091(2)
H23_4 H 0.3160 0.8562 0.1212
C22_4 C 0.4073(5) 0.5910(2) 0.0527(2)
C23_4 C 0.5825(5) 0.8495(2) 0.0587(2)
H6_4 H 0.1343 0.9977 0.1659
H1_4 H 0.9891 0.1239 0.8547
loop_
_geom_bond_atom_site_label_1
_geom_bond_atom_site_label_2
_geom_bond_site_symmetry_1
_geom_bond_site_symmetry_2
Co3 O4 1_555 1_555
Co2 O1 1_555 1_555
H2 O1 1_555 1_555
O4 C10 1_555 1_555
O5 Co3 1_555 1_555
O6 Co3 1_555 1_555
H3 O6 1_555 1_555
H4 O6 1_555 1_555
O7 Co3 1_555 1_555
N1 Co2 1_555 1_555
C1 H5 1_555 1_555
H6 C1 1_555 1_555
H7 C1 1_555 1_555
C2 N1 1_555 1_555
C10 O5 1_555 1_555
O14 Co2 1_555 1_555
O15 Co2 1_555 1_555
O16 Co2 1_555 1_555
O17 Co3 1_555 1_555
C1 C2 1_555 1_555
O7 H24 1_555 1_555
O15 C23 1_555 1_555
O16 C23 1_555 1_555
O17 C22 1_555 1_555
O13 C22 1_555 1_555
C16 O9 1_555 1_555
C17 C16 1_555 1_555
H21 C17 1_555 1_555
C18 C17 1_555 1_555
C19 C18 1_555 1_555
H22 C19 1_555 1_555
C20 C19 1_555 1_555
C21 C16 1_555 1_555
H23 C21 1_555 1_555
C22 C18 1_555 1_555
C23 C20 1_555 1_555
C20 C21 1_555 1_555
O14 C3 1_555 1_555
O8 C8 1_555 1_555
C3 O2 1_555 1_555
C4 C3 1_555 1_555
C5 C4 1_555 1_555
C6 C5 1_555 1_555
C7 C6 1_555 1_555
H9 C7 1_555 1_555
C8 C7 1_555 1_555
C9 C4 1_555 1_555
H10 C9 1_555 1_555
C11 O8 1_555 1_555
H11 C11 1_555 1_555
H12 C11 1_555 1_555
C12 C11 1_555 1_555
H13 C12 1_555 1_555
H14 C12 1_555 1_555
C13 C12 1_555 1_555
H15 C13 1_555 1_555
H16 C13 1_555 1_555
C14 C13 1_555 1_555
H17 C14 1_555 1_555
H18 C14 1_555 1_555
C15 C14 1_555 1_555
H19 C15 1_555 1_555
C8 C9 1_555 1_555
O10 C23_2 1_555 1_555
O11 C23_2 1_555 1_555
O12 C22_2 1_555 1_555
O13_2 C22_2 1_555 1_555
C16_2 O9_2 1_555 1_555
C17_2 C16_2 1_555 1_555
H21_2 C17_2 1_555 1_555
C18_2 C17_2 1_555 1_555
C19_2 C18_2 1_555 1_555
H22_2 C19_2 1_555 1_555
C20_2 C19_2 1_555 1_555
C21_2 C16_2 1_555 1_555
H23_2 C21_2 1_555 1_555
C22_2 C18_2 1_555 1_555
C23_2 C20_2 1_555 1_555
Co4 O12 1_555 1_555
Co6 O10 1_555 1_555
O11 Co6 1_555 1_555
C20_2 C21_2 1_555 1_555
O3 C3_2 1_555 1_555
O8_2 C8_2 1_555 1_555
C3_2 O2_2 1_555 1_555
C4_2 C3_2 1_555 1_555
C5_2 C4_2 1_555 1_555
C6_2 C5_2 1_555 1_555
C7_2 C6_2 1_555 1_555
H9_2 C7_2 1_555 1_555
C8_2 C7_2 1_555 1_555
C9_2 C4_2 1_555 1_555
H10_2 C9_2 1_555 1_555
C11_2 O8_2 1_555 1_555
H11_2 C11_2 1_555 1_555
H12_2 C11_2 1_555 1_555
C12_2 C11_2 1_555 1_555
H13_2 C12_2 1_555 1_555
H14_2 C12_2 1_555 1_555
C13_2 C12_2 1_555 1_555
H15_2 C13_2 1_555 1_555
H16_2 C13_2 1_555 1_555
C14_2 C13_2 1_555 1_555
H17_2 C14_2 1_555 1_555
H18_2 C14_2 1_555 1_555
C15_2 C14_2 1_555 1_555
H19_2 C15_2 1_555 1_555
Co6 O3 1_555 1_555
C8_2 C9_2 1_555 1_555
Co4 O4_2 1_555 1_555
Co6 O1_2 1_555 1_555
H2_2 O1_2 1_555 1_555
O4_2 C10_2 1_555 1_555
O5_2 Co4 1_555 1_555
O6_2 Co4 1_555 1_555
H3_2 O6_2 1_555 1_555
H4_2 O6_2 1_555 1_555
O7_2 Co4 1_555 1_555
N1_2 Co6 1_555 1_555
C1_2 H5_2 1_555 1_555
H6_2 C1_2 1_555 1_555
H7_2 C1_2 1_555 1_555
C2_2 N1_2 1_555 1_555
C10_2 O5_2 1_555 1_555
C1_2 C2_2 1_555 1_555
O7_2 H24_2 1_555 1_555
Co1 O4_3 1_555 1_555
O4_3 C10_3 1_555 1_555
O5_3 Co1 1_555 1_555
O6_3 Co1 1_555 1_555
H3_3 O6_3 1_555 1_555
H4_3 O6_3 1_555 1_555
C1_3 H5_3 1_555 1_555
H7_3 C1_3 1_555 1_555
C2_3 N1_3 1_555 1_555
C10_3 O5_3 1_555 1_555
O18 Co1 1_555 1_555
C1_3 C2_3 1_555 1_555
O10_2 C23_3 1_555 1_555
O11_2 C23_3 1_555 1_555
O12_2 C22_3 1_555 1_555
O18 C22_3 1_555 1_555
C16_3 O9_3 1_555 1_555
C17_3 C16_3 1_555 1_555
H21_3 C17_3 1_555 1_555
C18_3 C17_3 1_555 1_555
C19_3 C18_3 1_555 1_555
H22_3 C19_3 1_555 1_555
C20_3 C19_3 1_555 1_555
C21_3 C16_3 1_555 1_555
H23_3 C21_3 1_555 1_555
C22_3 C18_3 1_555 1_555
C23_3 C20_3 1_555 1_555
Co5 O10_2 1_555 1_555
O11_2 Co5 1_555 1_555
C20_3 C21_3 1_555 1_555
Co5 O1_3 1_555 1_555
H2_3 O1_3 1_555 1_555
O7_3 H24_3 1_555 1_555
O7_3 H25_3 1_555 1_555
O3_2 C3_3 1_555 1_555
O8_3 C8_3 1_555 1_555
C3_3 O2_3 1_555 1_555
C4_3 C3_3 1_555 1_555
C5_3 C4_3 1_555 1_555
C6_3 C5_3 1_555 1_555
C7_3 C6_3 1_555 1_555
H9_3 C7_3 1_555 1_555
C8_3 C7_3 1_555 1_555
C9_3 C4_3 1_555 1_555
H10_3 C9_3 1_555 1_555
C11_3 O8_3 1_555 1_555
H11_3 C11_3 1_555 1_555
H12_3 C11_3 1_555 1_555
C12_3 C11_3 1_555 1_555
H13_3 C12_3 1_555 1_555
H14_3 C12_3 1_555 1_555
C13_3 C12_3 1_555 1_555
H15_3 C13_3 1_555 1_555
H16_3 C13_3 1_555 1_555
C14_3 C13_3 1_555 1_555
H17_3 C14_3 1_555 1_555
H18_3 C14_3 1_555 1_555
C15_3 C14_3 1_555 1_555
H19_3 C15_3 1_555 1_555
C8_3 C9_3 1_555 1_555
O14_2 C3_4 1_555 1_555
O8_4 C8_4 1_555 1_555
C3_4 O2_4 1_555 1_555
C4_4 C3_4 1_555 1_555
C5_4 C4_4 1_555 1_555
C6_4 C5_4 1_555 1_555
C7_4 C6_4 1_555 1_555
H9_4 C7_4 1_555 1_555
C8_4 C7_4 1_555 1_555
C9_4 C4_4 1_555 1_555
H10_4 C9_4 1_555 1_555
C11_4 O8_4 1_555 1_555
H11_4 C11_4 1_555 1_555
H12_4 C11_4 1_555 1_555
C12_4 C11_4 1_555 1_555
H13_4 C12_4 1_555 1_555
H14_4 C12_4 1_555 1_555
C13_4 C12_4 1_555 1_555
H15_4 C13_4 1_555 1_555
H16_4 C13_4 1_555 1_555
C14_4 C13_4 1_555 1_555
H17_4 C14_4 1_555 1_555
H18_4 C14_4 1_555 1_555
C15_4 C14_4 1_555 1_555
H19_4 C15_4 1_555 1_555
C8_4 C9_4 1_555 1_555
Co2_2 O1_4 1_555 1_555
H2_4 O1_4 1_555 1_555
O15_2 Co2_2 1_555 1_555
O16_2 Co2_2 1_555 1_555
O7_4 H24_4 1_555 1_555
O7_4 H25_4 1_555 1_555
Co4_2 O4_4 1_555 1_555
O4_4 C10_4 1_555 1_555
O5_4 Co4_2 1_555 1_555
O6_4 Co4_2 1_555 1_555
H3_4 O6_4 1_555 1_555
H4_4 O6_4 1_555 1_555
C1_4 H5_4 1_555 1_555
H7_4 C1_4 1_555 1_555
C2_4 N1_4 1_555 1_555
C10_4 O5_4 1_555 1_555
O18_2 Co4_2 1_555 1_555
C1_4 C2_4 1_555 1_555
O15_2 C23_4 1_555 1_555
O16_2 C23_4 1_555 1_555
O17_2 C22_4 1_555 1_555
O18_2 C22_4 1_555 1_555
C16_4 O9_4 1_555 1_555
C17_4 C16_4 1_555 1_555
H21_4 C17_4 1_555 1_555
C18_4 C17_4 1_555 1_555
C19_4 C18_4 1_555 1_555
H22_4 C19_4 1_555 1_555
C20_4 C19_4 1_555 1_555
C21_4 C16_4 1_555 1_555
H23_4 C21_4 1_555 1_555
C22_4 C18_4 1_555 1_555
C23_4 C20_4 1_555 1_555
C20_4 C21_4 1_555 1_555

#END
