
###############################################################################
#
# This file contains modified crystal structure data generated from the
# MOF subset of the Cambridge Structural Database (CSD) v543 
# hosted by the Cambridge Crystallographic Data Centre (CCDC).
#
# This work is licensed under the Creative Commons
# Attribution-NonCommercial-ShareAlike 4.0 International License.
# To view a copy of this license, visit
# http://creativecommons.org/licenses/by-nc-sa/4.0/
# or send a letter to
# Creative Commons, PO Box 1866, Mountain View, CA 94042, USA.
#
# CIF created using the CSD Python API on 29 September 2022
# The structure has been converted into the P1 space group
# The structure has a 3D framework
# The original CSD entry XULDOZ is in the orthorhombic crystal system
# The framework has been calculated to contain at least 10.0% void space
# The void calculation uses a probe of radius 1.32A, grid spacing 0.4
# H atom positions have been added when not included in the experimental data
#
###############################################################################

data_XULDOZ
_chemical_formula_moiety         '(C336 H320 Co45 O224)n'
_symmetry_cell_setting           triclinic
_symmetry_space_group_name_H-M   'P 1'
_symmetry_Int_Tables_number      1
_space_group_name_Hall           'P 1'
loop_
_symmetry_equiv_pos_site_id
_symmetry_equiv_pos_as_xyz
1 x,y,z
_cell_length_a                   23.362(5)
_cell_length_b                   22.491(5)
_cell_length_c                   22.738(5)
_cell_angle_alpha                90
_cell_angle_beta                 90
_cell_angle_gamma                90
_cell_volume                     11947.3
loop_
_atom_site_label
_atom_site_type_symbol
_atom_site_fract_x
_atom_site_fract_y
_atom_site_fract_z
O1 O 0.4865(3) 0.6170(3) 0.0067(3)
O2 O 0.5491(3) 0.5592(3) 0.0490(3)
C1 C 0.5230(5) 0.5806(5) 0.0040(5)
O15 O 0.5135(3) 0.3830(3) 0.0067(3)
O16 O 0.4509(3) 0.4408(3) 0.0490(3)
C22 C 0.4770(5) 0.4194(5) 0.0040(5)
Co6 Co 0.51148(5) 0.61571(6) 0.11014(4)
Co7 Co 0.48852(5) 0.38429(6) 0.11014(4)
Co1 Co 0.5000 0.5000 0.19978(6)
Co3 Co 0.52874(5) 0.64602(6) 0.24645(5)
O3 O 0.6894(3) 0.4560(3) 0.9398(3)
O4 O 0.6746(2) 0.4267(3) 0.8478(2)
O5 O 0.5222(4) 0.5798(4) 0.7873(4)
O6 O 0.4509(4) 0.5763(4) 0.5233(4)
O7 O 0.3031(3) 0.4221(4) 0.4741(2)
O8 O 0.3051(3) 0.4177(3) 0.3764(2)
O9 O 0.4998(3) 0.5968(3) 0.3118(3)
O10 O 0.4457(3) 0.5327(3) 0.2641(2)
O11 O 0.5523(3) 0.4608(3) 0.1252(3)
O12 O 0.5422(2) 0.5773(3) 0.1856(2)
O13 O 0.5254(3) 0.7184(4) 0.3087(3)
H1 H 0.5270 0.7477 0.2852
H2 H 0.4915 0.7105 0.3197
O14 O 0.6140(3) 0.6354(3) 0.2819(3)
C2 C 0.5466(4) 0.5594(5) 0.9440(4)
C3 C 0.5255(6) 0.5742(7) 0.8957(4)
H3 H 0.4924 0.5972 0.8964
C4 C 0.5477(6) 0.5588(6) 0.8407(6)
C5 C 0.5880(4) 0.5201(5) 0.8381(4)
H4 H 0.5995 0.5043 0.8022
C6 C 0.6136(4) 0.5025(4) 0.8893(3)
C7 C 0.5917(4) 0.5209(4) 0.9440(4)
H5 H 0.6075 0.5073 0.9790
C8 C 0.6636(3) 0.4571(4) 0.8931(4)
C9 C 0.5537(6) 0.5850(6) 0.7350(6)
H6 H 0.5599 0.5463 0.7173
H7 H 0.5905 0.6036 0.7423
C10 C 0.5158(6) 0.6250(6) 0.6946(5)
H8 H 0.4759 0.6219 0.7061
H9 H 0.5274 0.6663 0.6980
C11 C 0.5237(6) 0.6031(6) 0.6302(5)
H10 H 0.5628 0.6100 0.6175
H11 H 0.5160 0.5608 0.6278
C12 C 0.4817(6) 0.6378(6) 0.5901(5)
H12 H 0.4427 0.6315 0.6037
H13 H 0.4899 0.6800 0.5923
C13 C 0.4873(6) 0.6165(6) 0.5261(6)
H14 H 0.4788 0.6483 0.4986
H15 H 0.5254 0.6013 0.5182
C14 C 0.4321(5) 0.5511(6) 0.4727(5)
C15 C 0.4548(4) 0.5667(5) 0.4190(3)
H16 H 0.4843 0.5944 0.4169
C16 C 0.4341(3) 0.5412(4) 0.3689(3)
C17 C 0.3907(4) 0.4998(4) 0.3687(3)
H17 H 0.3771 0.4845 0.3334
C18 C 0.3673(4) 0.4810(4) 0.4220(3)
C19 C 0.3893(4) 0.5086(4) 0.4744(4)
H18 H 0.3742 0.4975 0.5106
C20 C 0.3246(4) 0.4390(4) 0.4249(4)
C21 C 0.4621(4) 0.5577(4) 0.3093(4)
Co5 Co 0.47126(5) 0.35398(6) 0.24645(5)
O17 O 0.3106(3) 0.5440(3) 0.9398(3)
O18 O 0.3254(2) 0.5733(3) 0.8478(2)
O19 O 0.4778(4) 0.4202(4) 0.7873(4)
O20 O 0.5491(4) 0.4237(4) 0.5233(4)
O21 O 0.6969(3) 0.5779(4) 0.4741(2)
O22 O 0.6949(3) 0.5823(3) 0.3764(2)
O23 O 0.5002(3) 0.4032(3) 0.3118(3)
O24 O 0.5543(3) 0.4673(3) 0.2641(2)
O25 O 0.4477(3) 0.5392(3) 0.1252(3)
O26 O 0.4578(2) 0.4227(3) 0.1856(2)
O27 O 0.4746(3) 0.2816(4) 0.3087(3)
H19 H 0.4730 0.2523 0.2852
H20 H 0.5085 0.2895 0.3197
O28 O 0.3860(3) 0.3646(3) 0.2819(3)
C23 C 0.4534(4) 0.4406(5) 0.9440(4)
C24 C 0.4745(6) 0.4258(7) 0.8957(4)
H21 H 0.5076 0.4028 0.8964
C25 C 0.4523(6) 0.4412(6) 0.8407(6)
C26 C 0.4120(4) 0.4799(5) 0.8381(4)
H22 H 0.4005 0.4957 0.8022
C27 C 0.3864(4) 0.4975(4) 0.8893(3)
C28 C 0.4083(4) 0.4791(4) 0.9440(4)
H23 H 0.3925 0.4927 0.9790
C29 C 0.3364(3) 0.5429(4) 0.8931(4)
C30 C 0.4463(6) 0.4150(6) 0.7350(6)
H24 H 0.4401 0.4537 0.7173
H25 H 0.4095 0.3964 0.7423
C31 C 0.4842(6) 0.3750(6) 0.6946(5)
H26 H 0.5241 0.3781 0.7061
H27 H 0.4726 0.3337 0.6980
C32 C 0.4763(6) 0.3969(6) 0.6302(5)
H28 H 0.4372 0.3900 0.6175
H29 H 0.4840 0.4392 0.6278
C33 C 0.5183(6) 0.3622(6) 0.5901(5)
H30 H 0.5573 0.3685 0.6037
H31 H 0.5101 0.3200 0.5923
C34 C 0.5127(6) 0.3835(6) 0.5261(6)
H32 H 0.5212 0.3517 0.4986
H33 H 0.4746 0.3987 0.5182
C35 C 0.5679(5) 0.4489(6) 0.4727(5)
C36 C 0.5452(4) 0.4333(5) 0.4190(3)
H34 H 0.5157 0.4056 0.4169
C37 C 0.5659(3) 0.4588(4) 0.3689(3)
C38 C 0.6093(4) 0.5002(4) 0.3687(3)
H35 H 0.6229 0.5155 0.3334
C39 C 0.6327(4) 0.5190(4) 0.4220(3)
C40 C 0.6107(4) 0.4914(4) 0.4744(4)
H36 H 0.6258 0.5025 0.5106
C41 C 0.6754(4) 0.5610(4) 0.4249(4)
C42 C 0.5379(4) 0.4423(4) 0.3093(4)
Co8 Co 0.76148(5) 0.63429(6) 0.36014(4)
Co9 Co 0.73852(5) 0.36571(6) 0.86014(4)
Co10 Co 0.26148(5) 0.63429(6) 0.86014(4)
Co11 Co 0.23852(5) 0.36571(6) 0.36014(4)
Co12 Co 0.77874(5) 0.60398(6) 0.49645(5)
Co13 Co 0.72126(5) 0.39602(6) 0.99645(5)
Co14 Co 0.27874(5) 0.60398(6) 0.99645(5)
Co15 Co 0.22126(5) 0.39602(6) 0.49645(5)
O33 O 0.5606(3) 0.7060(3) 0.1898(3)
O34 O 0.4394(3) 0.2940(3) 0.1898(3)
O35 O 0.5754(2) 0.6767(3) 0.0978(2)
O36 O 0.4246(2) 0.3233(3) 0.0978(2)
O37 O 0.5531(3) 0.3279(4) 0.2241(2)
O38 O 0.4469(3) 0.6721(4) 0.2241(2)
O39 O 0.5551(3) 0.3323(3) 0.1264(2)
O40 O 0.4449(3) 0.6677(3) 0.1264(2)
H37 H 0.624058 0.592513 0.282839
H38 H 0.641795 0.65702 0.256714
H39 H 0.375942 0.407487 0.282839
H40 H 0.358205 0.34298 0.256714
Co8_2 Co 0.01148(5) 0.61571(6) 0.61014(4)
Co12_2 Co 0.02874(5) 0.64602(6) 0.74645(5)
O1_2 O 0.7365(3) 0.6330(3) 0.2567(3)
O2_2 O 0.7991(3) 0.6908(3) 0.2990(3)
O3_2 O 0.9394(3) 0.7940(3) 0.1898(3)
O4_2 O 0.9246(2) 0.8233(3) 0.0978(2)
O5_2 O 0.7722(4) 0.6702(4) 0.0373(4)
C1_2 C 0.7730(5) 0.6694(5) 0.2540(5)
C2_2 C 0.7966(4) 0.6906(5) 0.1940(4)
C3_2 C 0.7755(6) 0.6758(7) 0.1457(4)
H3_2 H 0.7424 0.6528 0.1464
C4_2 C 0.7977(6) 0.6912(6) 0.0907(6)
C5_2 C 0.8380(4) 0.7299(5) 0.0881(4)
H4_2 H 0.8495 0.7457 0.0522
C6_2 C 0.8636(4) 0.7475(4) 0.1393(3)
C7_2 C 0.8417(4) 0.7291(4) 0.1940(4)
H5_2 H 0.8575 0.7427 0.2290
C8_2 C 0.9136(3) 0.7929(4) 0.1431(4)
O15_2 O 0.7635(3) 0.8670(3) 0.2567(3)
O16_2 O 0.7009(3) 0.8092(3) 0.2990(3)
O19_2 O 0.7278(4) 0.8298(4) 0.0373(4)
C22_2 C 0.7270(5) 0.8306(5) 0.2540(5)
C23_2 C 0.7034(4) 0.8094(5) 0.1940(4)
C24_2 C 0.7245(6) 0.8242(7) 0.1457(4)
H21_2 H 0.7576 0.8472 0.1464
C25_2 C 0.7023(6) 0.8088(6) 0.0907(6)
C26_2 C 0.6620(4) 0.7701(5) 0.0881(4)
H22_2 H 0.6505 0.7543 0.0522
C27_2 C 0.6364(4) 0.7525(4) 0.1393(3)
C28_2 C 0.6583(4) 0.7709(4) 0.1940(4)
H23_2 H 0.6425 0.7573 0.2290
C29_2 C 0.5864(3) 0.7071(4) 0.1431(4)
Co7_2 Co 0.73852(5) 0.86571(6) 0.36014(4)
Co9_2 Co 0.98852(5) 0.88429(6) 0.11014(4)
Co13_2 Co 0.97126(5) 0.85398(6) 0.24645(5)
Co1_2 Co 0.7500 0.7500 0.44978(6)
O6_2 O 0.7009(4) 0.6737(4) 0.7733(4)
O7_2 O 0.5531(3) 0.8279(4) 0.7241(2)
O8_2 O 0.5551(3) 0.8323(3) 0.6264(2)
O9_2 O 0.7498(3) 0.6532(3) 0.5618(3)
O10_2 O 0.6957(3) 0.7173(3) 0.5141(2)
O11_2 O 0.8023(3) 0.7892(3) 0.3752(3)
O12_2 O 0.7922(2) 0.6727(3) 0.4356(2)
O13_2 O 0.7754(3) 0.5316(4) 0.5587(3)
H1_2 H 0.7770 0.5023 0.5352
H2_2 H 0.7415 0.5395 0.5697
O14_2 O 0.8640(3) 0.6146(3) 0.5319(3)
C9_2 C 0.8037(6) 0.6650(6) 0.9850(6)
H6_2 H 0.8099 0.7037 0.9673
H7_2 H 0.8405 0.6464 0.9923
C10_2 C 0.7658(6) 0.6250(6) 0.9446(5)
H8_2 H 0.7259 0.6281 0.9561
H9_2 H 0.7774 0.5837 0.9480
C11_2 C 0.7737(6) 0.6469(6) 0.8802(5)
H10_2 H 0.8128 0.6400 0.8675
H11_2 H 0.7660 0.6892 0.8778
C12_2 C 0.7317(6) 0.6122(6) 0.8401(5)
H12_2 H 0.6927 0.6185 0.8537
H13_2 H 0.7399 0.5700 0.8423
C13_2 C 0.7373(6) 0.6335(6) 0.7761(6)
H14_2 H 0.7288 0.6017 0.7486
H15_2 H 0.7754 0.6487 0.7682
C14_2 C 0.6821(5) 0.6989(6) 0.7227(5)
C15_2 C 0.7048(4) 0.6833(5) 0.6690(3)
H16_2 H 0.7343 0.6556 0.6669
C16_2 C 0.6841(3) 0.7088(4) 0.6189(3)
C17_2 C 0.6407(4) 0.7502(4) 0.6187(3)
H17_2 H 0.6271 0.7655 0.5834
C18_2 C 0.6173(4) 0.7690(4) 0.6720(3)
C19_2 C 0.6393(4) 0.7414(4) 0.7244(4)
H18_2 H 0.6242 0.7525 0.7606
C20_2 C 0.5746(4) 0.8110(4) 0.6749(4)
C21_2 C 0.7121(4) 0.6923(4) 0.5593(4)
Co5_2 Co 0.72126(5) 0.89602(6) 0.49645(5)
O20_2 O 0.7991(4) 0.8263(4) 0.7733(4)
O21_2 O 0.9469(3) 0.6721(4) 0.7241(2)
O22_2 O 0.9449(3) 0.6677(3) 0.6264(2)
O23_2 O 0.7502(3) 0.8468(3) 0.5618(3)
O24_2 O 0.8043(3) 0.7827(3) 0.5141(2)
O25_2 O 0.6977(3) 0.7108(3) 0.3752(3)
O26_2 O 0.7078(2) 0.8273(3) 0.4356(2)
O27_2 O 0.7246(3) 0.9684(4) 0.5587(3)
H19_2 H 0.7230 0.9977 0.5352
H20_2 H 0.7585 0.9605 0.5697
O28_2 O 0.6360(3) 0.8854(3) 0.5319(3)
C30_2 C 0.6963(6) 0.8350(6) 0.9850(6)
H24_2 H 0.6901 0.7963 0.9673
H25_2 H 0.6595 0.8536 0.9923
C31_2 C 0.7342(6) 0.8750(6) 0.9446(5)
H26_2 H 0.7741 0.8719 0.9561
H27_2 H 0.7226 0.9163 0.9480
C32_2 C 0.7263(6) 0.8531(6) 0.8802(5)
H28_2 H 0.6872 0.8600 0.8675
H29_2 H 0.7340 0.8108 0.8778
C33_2 C 0.7683(6) 0.8878(6) 0.8401(5)
H30_2 H 0.8073 0.8815 0.8537
H31_2 H 0.7601 0.9300 0.8423
C34_2 C 0.7627(6) 0.8665(6) 0.7761(6)
H32_2 H 0.7712 0.8983 0.7486
H33_2 H 0.7246 0.8513 0.7682
C35_2 C 0.8179(5) 0.8011(6) 0.7227(5)
C36_2 C 0.7952(4) 0.8167(5) 0.6690(3)
H34_2 H 0.7657 0.8444 0.6669
C37_2 C 0.8159(3) 0.7912(4) 0.6189(3)
C38_2 C 0.8593(4) 0.7498(4) 0.6187(3)
H35_2 H 0.8729 0.7345 0.5834
C39_2 C 0.8827(4) 0.7310(4) 0.6720(3)
C40_2 C 0.8607(4) 0.7586(4) 0.7244(4)
H36_2 H 0.8758 0.7475 0.7606
C41_2 C 0.9254(4) 0.6890(4) 0.6749(4)
C42_2 C 0.7879(4) 0.8077(4) 0.5593(4)
Co11_2 Co 0.48852(5) 0.88429(6) 0.61014(4)
Co15_2 Co 0.47126(5) 0.85398(6) 0.74645(5)
O33_2 O 0.8106(3) 0.5440(3) 0.4398(3)
O34_2 O 0.6894(3) 0.9560(3) 0.4398(3)
O35_2 O 0.8254(2) 0.5733(3) 0.3478(2)
O36_2 O 0.6746(2) 0.9267(3) 0.3478(2)
O37_2 O 0.8031(3) 0.9221(4) 0.4741(2)
O39_2 O 0.8051(3) 0.9177(3) 0.3764(2)
H37_2 H 0.874058 0.657487 0.532839
H38_2 H 0.891795 0.59298 0.506714
H39_2 H 0.625942 0.842513 0.532839
H40_2 H 0.608205 0.90702 0.506714
O1_3 O 0.4865(3) 0.1170(3) 0.5067(3)
O2_3 O 0.5491(3) 0.0592(3) 0.5490(3)
O5_3 O 0.5222(4) 0.0798(4) 0.2873(4)
O6_3 O 0.4509(4) 0.0763(4) 0.0233(4)
C1_3 C 0.5230(5) 0.0806(5) 0.5040(5)
C2_3 C 0.5466(4) 0.0594(5) 0.4440(4)
C3_3 C 0.5255(6) 0.0742(7) 0.3957(4)
H3_3 H 0.4924 0.0972 0.3964
C4_3 C 0.5477(6) 0.0588(6) 0.3407(6)
C5_3 C 0.5880(4) 0.0201(5) 0.3381(4)
H4_3 H 0.5995 0.0043 0.3022
C6_3 C 0.6136(4) 0.0025(4) 0.3893(3)
C7_3 C 0.5917(4) 0.0209(4) 0.4440(4)
H5_3 H 0.6075 0.0073 0.4790
C9_3 C 0.5537(6) 0.0850(6) 0.2350(6)
H6_3 H 0.5599 0.0463 0.2173
H7_3 H 0.5905 0.1036 0.2423
C10_3 C 0.5158(6) 0.1250(6) 0.1946(5)
H8_3 H 0.4759 0.1219 0.2061
H9_3 H 0.5274 0.1663 0.1980
C11_3 C 0.5237(6) 0.1031(6) 0.1302(5)
H10_3 H 0.5628 0.1100 0.1175
H11_3 H 0.5160 0.0608 0.1278
C12_3 C 0.4817(6) 0.1378(6) 0.0901(5)
H12_3 H 0.4427 0.1315 0.1037
H13_3 H 0.4899 0.1800 0.0923
C13_3 C 0.4873(6) 0.1165(6) 0.0261(6)
H15_3 H 0.5254 0.1013 0.0182
O17_2 O 0.3106(3) 0.0440(3) 0.4398(3)
O18_2 O 0.3254(2) 0.0733(3) 0.3478(2)
C29_3 C 0.3364(3) 0.0429(4) 0.3931(4)
H36_3 H 0.6258 0.0025 0.0106
Co6_2 Co 0.51148(5) 0.11571(6) 0.61014(4)
Co10_2 Co 0.26148(5) 0.13429(6) 0.36014(4)
Co14_2 Co 0.27874(5) 0.10398(6) 0.49645(5)
Co1_3 Co 0.5000 -0.0000 0.69978(6)
Co3_2 Co 0.52874(5) 0.14602(6) 0.74645(5)
O9_3 O 0.4998(3) 0.0968(3) 0.8118(3)
O10_3 O 0.4457(3) 0.0327(3) 0.7641(2)
O12_3 O 0.5422(2) 0.0773(3) 0.6856(2)
O13_3 O 0.5254(3) 0.2184(4) 0.8087(3)
H1_3 H 0.5270 0.2477 0.7852
H2_3 H 0.4915 0.2105 0.8197
O14_3 O 0.6140(3) 0.1354(3) 0.7819(3)
H14_3 H 0.4788 0.1483 0.9986
C14_3 C 0.4321(5) 0.0511(6) 0.9727(5)
C15_3 C 0.4548(4) 0.0667(5) 0.9190(3)
H16_3 H 0.4843 0.0944 0.9169
C16_3 C 0.4341(3) 0.0412(4) 0.8689(3)
C19_3 C 0.3893(4) 0.0086(4) 0.9744(4)
C21_3 C 0.4621(4) 0.0577(4) 0.8093(4)
O21_3 O 0.6969(3) 0.0779(4) 0.9741(2)
O22_3 O 0.6949(3) 0.0823(3) 0.8764(2)
O25_3 O 0.4477(3) 0.0392(3) 0.6252(3)
C38_3 C 0.6093(4) 0.0002(4) 0.8687(3)
H35_3 H 0.6229 0.0155 0.8334
C39_3 C 0.6327(4) 0.0190(4) 0.9220(3)
C41_3 C 0.6754(4) 0.0610(4) 0.9249(4)
Co8_3 Co 0.76148(5) 0.13429(6) 0.86014(4)
Co12_3 Co 0.77874(5) 0.10398(6) 0.99645(5)
O33_3 O 0.5606(3) 0.2060(3) 0.6898(3)
O35_3 O 0.5754(2) 0.1767(3) 0.5978(2)
O38_2 O 0.4469(3) 0.1721(4) 0.7241(2)
O40_2 O 0.4449(3) 0.1677(3) 0.6264(2)
H37_3 H 0.624058 0.0925133 0.782839
H38_3 H 0.641795 0.15702 0.756714
C8_3 C 0.6636(3) 0.9571(4) 0.3931(4)
H18_3 H 0.3742 0.9975 0.0106
O15_3 O 0.5135(3) 0.8830(3) 0.5067(3)
O16_3 O 0.4509(3) 0.9408(3) 0.5490(3)
O19_3 O 0.4778(4) 0.9202(4) 0.2873(4)
O20_3 O 0.5491(4) 0.9237(4) 0.0233(4)
C22_3 C 0.4770(5) 0.9194(5) 0.5040(5)
C23_3 C 0.4534(4) 0.9406(5) 0.4440(4)
C24_3 C 0.4745(6) 0.9258(7) 0.3957(4)
H21_3 H 0.5076 0.9028 0.3964
C25_3 C 0.4523(6) 0.9412(6) 0.3407(6)
C26_3 C 0.4120(4) 0.9799(5) 0.3381(4)
H22_3 H 0.4005 0.9957 0.3022
C27_3 C 0.3864(4) 0.9975(4) 0.3893(3)
C28_3 C 0.4083(4) 0.9791(4) 0.4440(4)
H23_3 H 0.3925 0.9927 0.4790
C30_3 C 0.4463(6) 0.9150(6) 0.2350(6)
H24_3 H 0.4401 0.9537 0.2173
H25_3 H 0.4095 0.8964 0.2423
C31_3 C 0.4842(6) 0.8750(6) 0.1946(5)
H26_3 H 0.5241 0.8781 0.2061
H27_3 H 0.4726 0.8337 0.1980
C32_3 C 0.4763(6) 0.8969(6) 0.1302(5)
H28_3 H 0.4372 0.8900 0.1175
H29_3 H 0.4840 0.9392 0.1278
C33_3 C 0.5183(6) 0.8622(6) 0.0901(5)
H30_3 H 0.5573 0.8685 0.1037
H31_3 H 0.5101 0.8200 0.0923
C34_3 C 0.5127(6) 0.8835(6) 0.0261(6)
H33_3 H 0.4746 0.8987 0.0182
Co1_4 Co 0.5000 1.0000 0.69978(6)
O7_3 O 0.3031(3) 0.9221(4) 0.9741(2)
O8_3 O 0.3051(3) 0.9177(3) 0.8764(2)
O11_3 O 0.5523(3) 0.9608(3) 0.6252(3)
C17_3 C 0.3907(4) 0.9998(4) 0.8687(3)
H17_3 H 0.3771 0.9845 0.8334
C18_3 C 0.3673(4) 0.9810(4) 0.9220(3)
C20_3 C 0.3246(4) 0.9390(4) 0.9249(4)
O23_3 O 0.5002(3) 0.9032(3) 0.8118(3)
O24_3 O 0.5543(3) 0.9673(3) 0.7641(2)
O26_3 O 0.4578(2) 0.9227(3) 0.6856(2)
O27_3 O 0.4746(3) 0.7816(4) 0.8087(3)
H19_3 H 0.4730 0.7523 0.7852
H20_3 H 0.5085 0.7895 0.8197
O28_3 O 0.3860(3) 0.8646(3) 0.7819(3)
H32_3 H 0.5212 0.8517 0.9986
C35_3 C 0.5679(5) 0.9489(6) 0.9727(5)
C36_3 C 0.5452(4) 0.9333(5) 0.9190(3)
H34_3 H 0.5157 0.9056 0.9169
C37_3 C 0.5659(3) 0.9588(4) 0.8689(3)
C40_3 C 0.6107(4) 0.9914(4) 0.9744(4)
C42_3 C 0.5379(4) 0.9423(4) 0.8093(4)
Co11_3 Co 0.23852(5) 0.86571(6) 0.86014(4)
Co15_3 Co 0.22126(5) 0.89602(6) 0.99645(5)
O34_3 O 0.4394(3) 0.7940(3) 0.6898(3)
O36_3 O 0.4246(2) 0.8233(3) 0.5978(2)
H39_3 H 0.375942 0.907487 0.782839
H40_3 H 0.358205 0.84298 0.756714
Co8_4 Co 0.01148(5) 0.11571(6) 0.11014(4)
Co12_4 Co 0.02874(5) 0.14602(6) 0.24645(5)
O1_4 O 0.7365(3) 0.1330(3) 0.7567(3)
O2_4 O 0.7991(3) 0.1908(3) 0.7990(3)
O3_3 O 0.9394(3) 0.2940(3) 0.6898(3)
O4_3 O 0.9246(2) 0.3233(3) 0.5978(2)
O5_4 O 0.7722(4) 0.1702(4) 0.5373(4)
O6_4 O 0.7009(4) 0.1737(4) 0.2733(4)
O9_4 O 0.7498(3) 0.1532(3) 0.0618(3)
O10_4 O 0.6957(3) 0.2173(3) 0.0141(2)
O13_4 O 0.7754(3) 0.0316(4) 0.0587(3)
H1_4 H 0.7770 0.0023 0.0352
H2_4 H 0.7415 0.0395 0.0697
O14_4 O 0.8640(3) 0.1146(3) 0.0319(3)
C1_4 C 0.7730(5) 0.1694(5) 0.7540(5)
C2_4 C 0.7966(4) 0.1906(5) 0.6940(4)
C3_4 C 0.7755(6) 0.1758(7) 0.6457(4)
H3_4 H 0.7424 0.1528 0.6464
C4_4 C 0.7977(6) 0.1912(6) 0.5907(6)
C5_4 C 0.8380(4) 0.2299(5) 0.5881(4)
H4_4 H 0.8495 0.2457 0.5522
C6_4 C 0.8636(4) 0.2475(4) 0.6393(3)
C7_4 C 0.8417(4) 0.2291(4) 0.6940(4)
H5_4 H 0.8575 0.2427 0.7290
C8_4 C 0.9136(3) 0.2929(4) 0.6431(4)
C9_4 C 0.8037(6) 0.1650(6) 0.4850(6)
H6_4 H 0.8099 0.2037 0.4673
H7_4 H 0.8405 0.1464 0.4923
C10_4 C 0.7658(6) 0.1250(6) 0.4446(5)
H8_4 H 0.7259 0.1281 0.4561
H9_4 H 0.7774 0.0837 0.4480
C11_4 C 0.7737(6) 0.1469(6) 0.3802(5)
H10_4 H 0.8128 0.1400 0.3675
H11_4 H 0.7660 0.1892 0.3778
C12_4 C 0.7317(6) 0.1122(6) 0.3401(5)
H12_4 H 0.6927 0.1185 0.3537
H13_4 H 0.7399 0.0700 0.3423
C13_4 C 0.7373(6) 0.1335(6) 0.2761(6)
H14_4 H 0.7288 0.1017 0.2486
H15_4 H 0.7754 0.1487 0.2682
C14_4 C 0.6821(5) 0.1989(6) 0.2227(5)
C15_4 C 0.7048(4) 0.1833(5) 0.1690(3)
H16_4 H 0.7343 0.1556 0.1669
C16_4 C 0.6841(3) 0.2088(4) 0.1189(3)
C17_4 C 0.6407(4) 0.2502(4) 0.1187(3)
H17_4 H 0.6271 0.2655 0.0834
C18_4 C 0.6173(4) 0.2690(4) 0.1720(3)
C19_4 C 0.6393(4) 0.2414(4) 0.2244(4)
H18_4 H 0.6242 0.2525 0.2606
C20_4 C 0.5746(4) 0.3110(4) 0.1749(4)
C21_4 C 0.7121(4) 0.1923(4) 0.0593(4)
O15_4 O 0.7635(3) 0.3670(3) 0.7567(3)
O16_4 O 0.7009(3) 0.3092(3) 0.7990(3)
O19_4 O 0.7278(4) 0.3298(4) 0.5373(4)
O20_4 O 0.7991(4) 0.3263(4) 0.2733(4)
O21_4 O 0.9469(3) 0.1721(4) 0.2241(2)
O22_4 O 0.9449(3) 0.1677(3) 0.1264(2)
O23_4 O 0.7502(3) 0.3468(3) 0.0618(3)
O24_4 O 0.8043(3) 0.2827(3) 0.0141(2)
O27_4 O 0.7246(3) 0.4684(4) 0.0587(3)
H19_4 H 0.7230 0.4977 0.0352
H20_4 H 0.7585 0.4605 0.0697
O28_4 O 0.6360(3) 0.3854(3) 0.0319(3)
C22_4 C 0.7270(5) 0.3306(5) 0.7540(5)
C23_4 C 0.7034(4) 0.3094(5) 0.6940(4)
C24_4 C 0.7245(6) 0.3242(7) 0.6457(4)
H21_4 H 0.7576 0.3472 0.6464
C25_4 C 0.7023(6) 0.3088(6) 0.5907(6)
C26_4 C 0.6620(4) 0.2701(5) 0.5881(4)
H22_4 H 0.6505 0.2543 0.5522
C27_4 C 0.6364(4) 0.2525(4) 0.6393(3)
C28_4 C 0.6583(4) 0.2709(4) 0.6940(4)
H23_4 H 0.6425 0.2573 0.7290
C29_4 C 0.5864(3) 0.2071(4) 0.6431(4)
C30_4 C 0.6963(6) 0.3350(6) 0.4850(6)
H24_4 H 0.6901 0.2963 0.4673
H25_4 H 0.6595 0.3536 0.4923
C31_4 C 0.7342(6) 0.3750(6) 0.4446(5)
H26_4 H 0.7741 0.3719 0.4561
H27_4 H 0.7226 0.4163 0.4480
C32_4 C 0.7263(6) 0.3531(6) 0.3802(5)
H28_4 H 0.6872 0.3600 0.3675
H29_4 H 0.7340 0.3108 0.3778
C33_4 C 0.7683(6) 0.3878(6) 0.3401(5)
H30_4 H 0.8073 0.3815 0.3537
H31_4 H 0.7601 0.4300 0.3423
C34_4 C 0.7627(6) 0.3665(6) 0.2761(6)
H32_4 H 0.7712 0.3983 0.2486
H33_4 H 0.7246 0.3513 0.2682
C35_4 C 0.8179(5) 0.3011(6) 0.2227(5)
C36_4 C 0.7952(4) 0.3167(5) 0.1690(3)
H34_4 H 0.7657 0.3444 0.1669
C37_4 C 0.8159(3) 0.2912(4) 0.1189(3)
C38_4 C 0.8593(4) 0.2498(4) 0.1187(3)
H35_4 H 0.8729 0.2345 0.0834
C39_4 C 0.8827(4) 0.2310(4) 0.1720(3)
C40_4 C 0.8607(4) 0.2586(4) 0.2244(4)
H36_4 H 0.8758 0.2475 0.2606
C41_4 C 0.9254(4) 0.1890(4) 0.1749(4)
C42_4 C 0.7879(4) 0.3077(4) 0.0593(4)
Co9_3 Co 0.98852(5) 0.38429(6) 0.61014(4)
Co13_3 Co 0.97126(5) 0.35398(6) 0.74645(5)
H37_4 H 0.874058 0.157487 0.0328393
H38_4 H 0.891795 0.09298 0.00671392
H39_4 H 0.625942 0.342513 0.0328393
H40_4 H 0.608205 0.40702 0.00671392
Co1_5 Co 0.7500 0.2500 0.94978(6)
O11_4 O 0.8023(3) 0.2892(3) 0.8752(3)
O12_4 O 0.7922(2) 0.1727(3) 0.9356(2)
O25_4 O 0.6977(3) 0.2108(3) 0.8752(3)
O26_4 O 0.7078(2) 0.3273(3) 0.9356(2)
O33_4 O 0.8106(3) 0.0440(3) 0.9398(3)
O35_4 O 0.8254(2) 0.0733(3) 0.8478(2)
O37_3 O 0.8031(3) 0.4221(4) 0.9741(2)
O39_3 O 0.8051(3) 0.4177(3) 0.8764(2)
O2_5 O 0.0491(3) 0.5592(3) 0.5490(3)
O3_4 O 0.1894(3) 0.4560(3) 0.4398(3)
O4_4 O 0.1746(2) 0.4267(3) 0.3478(2)
O5_5 O 0.0222(4) 0.5798(4) 0.2873(4)
C1_5 C 0.0230(5) 0.5806(5) 0.5040(5)
C2_5 C 0.0466(4) 0.5594(5) 0.4440(4)
C3_5 C 0.0255(6) 0.5742(7) 0.3957(4)
C4_5 C 0.0477(6) 0.5588(6) 0.3407(6)
C5_5 C 0.0880(4) 0.5201(5) 0.3381(4)
H4_5 H 0.0995 0.5043 0.3022
C6_5 C 0.1136(4) 0.5025(4) 0.3893(3)
C7_5 C 0.0917(4) 0.5209(4) 0.4440(4)
H5_5 H 0.1075 0.5073 0.4790
C8_5 C 0.1636(3) 0.4571(4) 0.3931(4)
C9_5 C 0.0537(6) 0.5850(6) 0.2350(6)
H6_5 H 0.0599 0.5463 0.2173
H7_5 H 0.0905 0.6036 0.2423
C10_5 C 0.0158(6) 0.6250(6) 0.1946(5)
H9_5 H 0.0274 0.6663 0.1980
C11_5 C 0.0237(6) 0.6031(6) 0.1302(5)
H10_5 H 0.0628 0.6100 0.1175
H11_5 H 0.0160 0.5608 0.1278
H15_5 H 0.0254 0.6013 0.0182
O15_5 O 0.0135(3) 0.3830(3) 0.5067(3)
O20_5 O 0.0491(4) 0.4237(4) 0.0233(4)
H21_5 H 0.0076 0.4028 0.3964
H26_5 H 0.0241 0.3781 0.2061
C33_5 C 0.0183(6) 0.3622(6) 0.0901(5)
H30_5 H 0.0573 0.3685 0.1037
H31_5 H 0.0101 0.3200 0.0923
C34_5 C 0.0127(6) 0.3835(6) 0.0261(6)
H36_5 H 0.1258 0.5025 0.0106
Co1_6 Co -0.0000 0.5000 0.69978(6)
O11_5 O 0.0523(3) 0.4608(3) 0.6252(3)
O12_5 O 0.0422(2) 0.5773(3) 0.6856(2)
O13_5 O 0.0254(3) 0.7184(4) 0.8087(3)
H1_5 H 0.0270 0.7477 0.7852
O14_5 O 0.1140(3) 0.6354(3) 0.7819(3)
O21_5 O 0.1969(3) 0.5779(4) 0.9741(2)
O22_5 O 0.1949(3) 0.5823(3) 0.8764(2)
O23_5 O 0.0002(3) 0.4032(3) 0.8118(3)
O24_5 O 0.0543(3) 0.4673(3) 0.7641(2)
H20_5 H 0.0085 0.2895 0.8197
H32_5 H 0.0212 0.3517 0.9986
C35_5 C 0.0679(5) 0.4489(6) 0.9727(5)
C36_5 C 0.0452(4) 0.4333(5) 0.9190(3)
H34_5 H 0.0157 0.4056 0.9169
C37_5 C 0.0659(3) 0.4588(4) 0.8689(3)
C38_5 C 0.1093(4) 0.5002(4) 0.8687(3)
H35_5 H 0.1229 0.5155 0.8334
C39_5 C 0.1327(4) 0.5190(4) 0.9220(3)
C40_5 C 0.1107(4) 0.4914(4) 0.9744(4)
C41_5 C 0.1754(4) 0.5610(4) 0.9249(4)
C42_5 C 0.0379(4) 0.4423(4) 0.8093(4)
O33_5 O 0.0606(3) 0.7060(3) 0.6898(3)
O35_5 O 0.0754(2) 0.6767(3) 0.5978(2)
O37_4 O 0.0531(3) 0.3279(4) 0.7241(2)
O39_4 O 0.0551(3) 0.3323(3) 0.6264(2)
H37_5 H 0.124058 0.592513 0.782839
H38_5 H 0.141795 0.65702 0.756714
O1_5 O 0.9865(3) 0.6170(3) 0.5067(3)
O6_5 O 0.9509(4) 0.5763(4) 0.0233(4)
H3_5 H 0.9924 0.5972 0.3964
H8_5 H 0.9759 0.6219 0.2061
C12_5 C 0.9817(6) 0.6378(6) 0.0901(5)
H12_5 H 0.9427 0.6315 0.1037
H13_5 H 0.9899 0.6800 0.0923
C13_5 C 0.9873(6) 0.6165(6) 0.0261(6)
H18_5 H 0.8742 0.4975 0.0106
O16_5 O 0.9509(3) 0.4408(3) 0.5490(3)
O19_5 O 0.9778(4) 0.4202(4) 0.2873(4)
C22_5 C 0.9770(5) 0.4194(5) 0.5040(5)
C23_5 C 0.9534(4) 0.4406(5) 0.4440(4)
C24_5 C 0.9745(6) 0.4258(7) 0.3957(4)
C25_5 C 0.9523(6) 0.4412(6) 0.3407(6)
C26_5 C 0.9120(4) 0.4799(5) 0.3381(4)
H22_5 H 0.9005 0.4957 0.3022
C27_5 C 0.8864(4) 0.4975(4) 0.3893(3)
C28_5 C 0.9083(4) 0.4791(4) 0.4440(4)
H23_5 H 0.8925 0.4927 0.4790
C29_5 C 0.8364(3) 0.5429(4) 0.3931(4)
C30_5 C 0.9463(6) 0.4150(6) 0.2350(6)
H24_5 H 0.9401 0.4537 0.2173
H25_5 H 0.9095 0.3964 0.2423
C31_5 C 0.9842(6) 0.3750(6) 0.1946(5)
H27_5 H 0.9726 0.3337 0.1980
C32_5 C 0.9763(6) 0.3969(6) 0.1302(5)
H28_5 H 0.9372 0.3900 0.1175
H29_5 H 0.9840 0.4392 0.1278
H33_5 H 0.9746 0.3987 0.0182
Co1_7 Co 1.0000 0.5000 0.69978(6)
O9_5 O 0.9998(3) 0.5968(3) 0.8118(3)
O10_5 O 0.9457(3) 0.5327(3) 0.7641(2)
H2_5 H 0.9915 0.7105 0.8197
H14_5 H 0.9788 0.6483 0.9986
C14_5 C 0.9321(5) 0.5511(6) 0.9727(5)
C15_5 C 0.9548(4) 0.5667(5) 0.9190(3)
H16_5 H 0.9843 0.5944 0.9169
C16_5 C 0.9341(3) 0.5412(4) 0.8689(3)
C17_5 C 0.8907(4) 0.4998(4) 0.8687(3)
H17_5 H 0.8771 0.4845 0.8334
C18_5 C 0.8673(4) 0.4810(4) 0.9220(3)
C19_5 C 0.8893(4) 0.5086(4) 0.9744(4)
C20_5 C 0.8246(4) 0.4390(4) 0.9249(4)
C21_5 C 0.9621(4) 0.5577(4) 0.8093(4)
O25_5 O 0.9477(3) 0.5392(3) 0.6252(3)
O26_5 O 0.9578(2) 0.4227(3) 0.6856(2)
O27_5 O 0.9746(3) 0.2816(4) 0.8087(3)
H19_5 H 0.9730 0.2523 0.7852
O28_5 O 0.8860(3) 0.3646(3) 0.7819(3)
H39_5 H 0.875942 0.407487 0.782839
H40_5 H 0.858205 0.34298 0.756714
O1_6 O 0.2365(3) 0.6330(3) 0.7567(3)
O2_6 O 0.2991(3) 0.6908(3) 0.7990(3)
O5_6 O 0.2722(4) 0.6702(4) 0.5373(4)
O6_6 O 0.2009(4) 0.6737(4) 0.2733(4)
O7_4 O 0.0531(3) 0.8279(4) 0.2241(2)
O8_4 O 0.0551(3) 0.8323(3) 0.1264(2)
O9_6 O 0.2498(3) 0.6532(3) 0.0618(3)
O10_6 O 0.1957(3) 0.7173(3) 0.0141(2)
O13_6 O 0.2754(3) 0.5316(4) 0.0587(3)
H1_6 H 0.2770 0.5023 0.0352
H2_6 H 0.2415 0.5395 0.0697
O14_6 O 0.3640(3) 0.6146(3) 0.0319(3)
C1_6 C 0.2730(5) 0.6694(5) 0.7540(5)
C2_6 C 0.2966(4) 0.6906(5) 0.6940(4)
C3_6 C 0.2755(6) 0.6758(7) 0.6457(4)
H3_6 H 0.2424 0.6528 0.6464
C4_6 C 0.2977(6) 0.6912(6) 0.5907(6)
C5_6 C 0.3380(4) 0.7299(5) 0.5881(4)
H4_6 H 0.3495 0.7457 0.5522
C6_6 C 0.3636(4) 0.7475(4) 0.6393(3)
C7_6 C 0.3417(4) 0.7291(4) 0.6940(4)
H5_6 H 0.3575 0.7427 0.7290
C8_6 C 0.4136(3) 0.7929(4) 0.6431(4)
C9_6 C 0.3037(6) 0.6650(6) 0.4850(6)
H6_6 H 0.3099 0.7037 0.4673
H7_6 H 0.3405 0.6464 0.4923
C10_6 C 0.2658(6) 0.6250(6) 0.4446(5)
H8_6 H 0.2259 0.6281 0.4561
H9_6 H 0.2774 0.5837 0.4480
C11_6 C 0.2737(6) 0.6469(6) 0.3802(5)
H10_6 H 0.3128 0.6400 0.3675
H11_6 H 0.2660 0.6892 0.3778
C12_6 C 0.2317(6) 0.6122(6) 0.3401(5)
H12_6 H 0.1927 0.6185 0.3537
H13_6 H 0.2399 0.5700 0.3423
C13_6 C 0.2373(6) 0.6335(6) 0.2761(6)
H14_6 H 0.2288 0.6017 0.2486
H15_6 H 0.2754 0.6487 0.2682
C14_6 C 0.1821(5) 0.6989(6) 0.2227(5)
C15_6 C 0.2048(4) 0.6833(5) 0.1690(3)
H16_6 H 0.2343 0.6556 0.1669
C16_6 C 0.1841(3) 0.7088(4) 0.1189(3)
C17_6 C 0.1407(4) 0.7502(4) 0.1187(3)
H17_6 H 0.1271 0.7655 0.0834
C18_6 C 0.1173(4) 0.7690(4) 0.1720(3)
C19_6 C 0.1393(4) 0.7414(4) 0.2244(4)
H18_6 H 0.1242 0.7525 0.2606
C20_6 C 0.0746(4) 0.8110(4) 0.1749(4)
C21_6 C 0.2121(4) 0.6923(4) 0.0593(4)
O15_6 O 0.2635(3) 0.8670(3) 0.7567(3)
O16_6 O 0.2009(3) 0.8092(3) 0.7990(3)
O19_6 O 0.2278(4) 0.8298(4) 0.5373(4)
O20_6 O 0.2991(4) 0.8263(4) 0.2733(4)
O23_6 O 0.2502(3) 0.8468(3) 0.0618(3)
O24_6 O 0.3043(3) 0.7827(3) 0.0141(2)
O27_6 O 0.2246(3) 0.9684(4) 0.0587(3)
H19_6 H 0.2230 0.9977 0.0352
H20_6 H 0.2585 0.9605 0.0697
O28_6 O 0.1360(3) 0.8854(3) 0.0319(3)
C22_6 C 0.2270(5) 0.8306(5) 0.7540(5)
C23_6 C 0.2034(4) 0.8094(5) 0.6940(4)
C24_6 C 0.2245(6) 0.8242(7) 0.6457(4)
H21_6 H 0.2576 0.8472 0.6464
C25_6 C 0.2023(6) 0.8088(6) 0.5907(6)
C26_6 C 0.1620(4) 0.7701(5) 0.5881(4)
H22_6 H 0.1505 0.7543 0.5522
C27_6 C 0.1364(4) 0.7525(4) 0.6393(3)
C28_6 C 0.1583(4) 0.7709(4) 0.6940(4)
H23_6 H 0.1425 0.7573 0.7290
C29_6 C 0.0864(3) 0.7071(4) 0.6431(4)
C30_6 C 0.1963(6) 0.8350(6) 0.4850(6)
H24_6 H 0.1901 0.7963 0.4673
H25_6 H 0.1595 0.8536 0.4923
C31_6 C 0.2342(6) 0.8750(6) 0.4446(5)
H26_6 H 0.2741 0.8719 0.4561
H27_6 H 0.2226 0.9163 0.4480
C32_6 C 0.2263(6) 0.8531(6) 0.3802(5)
H28_6 H 0.1872 0.8600 0.3675
H29_6 H 0.2340 0.8108 0.3778
C33_6 C 0.2683(6) 0.8878(6) 0.3401(5)
H30_6 H 0.3073 0.8815 0.3537
H31_6 H 0.2601 0.9300 0.3423
C34_6 C 0.2627(6) 0.8665(6) 0.2761(6)
H32_6 H 0.2712 0.8983 0.2486
H33_6 H 0.2246 0.8513 0.2682
C35_6 C 0.3179(5) 0.8011(6) 0.2227(5)
C36_6 C 0.2952(4) 0.8167(5) 0.1690(3)
H34_6 H 0.2657 0.8444 0.1669
C37_6 C 0.3159(3) 0.7912(4) 0.1189(3)
C38_6 C 0.3593(4) 0.7498(4) 0.1187(3)
H35_6 H 0.3729 0.7345 0.0834
C39_6 C 0.3827(4) 0.7310(4) 0.1720(3)
C40_6 C 0.3607(4) 0.7586(4) 0.2244(4)
H36_6 H 0.3758 0.7475 0.2606
C41_6 C 0.4254(4) 0.6890(4) 0.1749(4)
C42_6 C 0.2879(4) 0.8077(4) 0.0593(4)
H37_6 H 0.374058 0.657487 0.0328393
H38_6 H 0.391795 0.59298 0.00671392
H39_6 H 0.125942 0.842513 0.0328393
H40_6 H 0.108205 0.90702 0.00671392
Co1_8 Co 0.2500 0.7500 0.94978(6)
O11_6 O 0.3023(3) 0.7892(3) 0.8752(3)
O12_6 O 0.2922(2) 0.6727(3) 0.9356(2)
O25_6 O 0.1977(3) 0.7108(3) 0.8752(3)
O26_6 O 0.2078(2) 0.8273(3) 0.9356(2)
O34_4 O 0.1894(3) 0.9560(3) 0.9398(3)
O36_4 O 0.1746(2) 0.9267(3) 0.8478(2)
O2_7 O 0.0491(3) 0.0592(3) 0.0490(3)
C1_7 C 0.0230(5) 0.0806(5) 0.0040(5)
Co1_9 Co -0.0000 -0.0000 0.19978(6)
O5_7 O 0.0222(4) 0.0798(4) 0.7873(4)
O12_7 O 0.0422(2) 0.0773(3) 0.1856(2)
O13_7 O 0.0254(3) 0.2184(4) 0.3087(3)
H1_7 H 0.0270 0.2477 0.2852
O14_7 O 0.1140(3) 0.1354(3) 0.2819(3)
C2_7 C 0.0466(4) 0.0594(5) 0.9440(4)
C3_7 C 0.0255(6) 0.0742(7) 0.8957(4)
C4_7 C 0.0477(6) 0.0588(6) 0.8407(6)
C5_7 C 0.0880(4) 0.0201(5) 0.8381(4)
H4_7 H 0.0995 0.0043 0.8022
C6_7 C 0.1136(4) 0.0025(4) 0.8893(3)
C7_7 C 0.0917(4) 0.0209(4) 0.9440(4)
H5_7 H 0.1075 0.0073 0.9790
C9_7 C 0.0537(6) 0.0850(6) 0.7350(6)
H6_7 H 0.0599 0.0463 0.7173
H7_7 H 0.0905 0.1036 0.7423
C10_7 C 0.0158(6) 0.1250(6) 0.6946(5)
H9_7 H 0.0274 0.1663 0.6980
C11_7 C 0.0237(6) 0.1031(6) 0.6302(5)
H10_7 H 0.0628 0.1100 0.6175
H11_7 H 0.0160 0.0608 0.6278
H15_7 H 0.0254 0.1013 0.5182
O21_6 O 0.1969(3) 0.0779(4) 0.4741(2)
O22_6 O 0.1949(3) 0.0823(3) 0.3764(2)
C38_7 C 0.1093(4) 0.0002(4) 0.3687(3)
H35_7 H 0.1229 0.0155 0.3334
C39_7 C 0.1327(4) 0.0190(4) 0.4220(3)
H36_7 H 0.1258 0.0025 0.5106
C41_7 C 0.1754(4) 0.0610(4) 0.4249(4)
O33_6 O 0.0606(3) 0.2060(3) 0.1898(3)
O35_6 O 0.0754(2) 0.1767(3) 0.0978(2)
H37_7 H 0.124058 0.0925133 0.282839
H38_7 H 0.141795 0.15702 0.256714
O15_7 O 0.0135(3) 0.8830(3) 0.0067(3)
Co1_10 Co -0.0000 1.0000 0.19978(6)
O11_7 O 0.0523(3) 0.9608(3) 0.1252(3)
C8_7 C 0.1636(3) 0.9571(4) 0.8931(4)
O20_7 O 0.0491(4) 0.9237(4) 0.5233(4)
O23_7 O 0.0002(3) 0.9032(3) 0.3118(3)
O24_7 O 0.0543(3) 0.9673(3) 0.2641(2)
H20_7 H 0.0085 0.7895 0.3197
H21_7 H 0.0076 0.9028 0.8964
H26_7 H 0.0241 0.8781 0.7061
C33_7 C 0.0183(6) 0.8622(6) 0.5901(5)
H30_7 H 0.0573 0.8685 0.6037
H31_7 H 0.0101 0.8200 0.5923
C34_7 C 0.0127(6) 0.8835(6) 0.5261(6)
H32_7 H 0.0212 0.8517 0.4986
C35_7 C 0.0679(5) 0.9489(6) 0.4727(5)
C36_7 C 0.0452(4) 0.9333(5) 0.4190(3)
H34_7 H 0.0157 0.9056 0.4169
C37_7 C 0.0659(3) 0.9588(4) 0.3689(3)
C40_7 C 0.1107(4) 0.9914(4) 0.4744(4)
C42_7 C 0.0379(4) 0.9423(4) 0.3093(4)
O1_7 O 0.9865(3) 0.1170(3) 0.0067(3)
Co1_11 Co 1.0000 -0.0000 0.19978(6)
O6_7 O 0.9509(4) 0.0763(4) 0.5233(4)
O9_7 O 0.9998(3) 0.0968(3) 0.3118(3)
O10_7 O 0.9457(3) 0.0327(3) 0.2641(2)
H2_7 H 0.9915 0.2105 0.3197
H3_7 H 0.9924 0.0972 0.8964
H8_7 H 0.9759 0.1219 0.7061
C12_7 C 0.9817(6) 0.1378(6) 0.5901(5)
H12_7 H 0.9427 0.1315 0.6037
H13_7 H 0.9899 0.1800 0.5923
C13_7 C 0.9873(6) 0.1165(6) 0.5261(6)
H14_7 H 0.9788 0.1483 0.4986
C14_7 C 0.9321(5) 0.0511(6) 0.4727(5)
C15_7 C 0.9548(4) 0.0667(5) 0.4190(3)
H16_7 H 0.9843 0.0944 0.4169
C16_7 C 0.9341(3) 0.0412(4) 0.3689(3)
C19_7 C 0.8893(4) 0.0086(4) 0.4744(4)
C21_7 C 0.9621(4) 0.0577(4) 0.3093(4)
O25_7 O 0.9477(3) 0.0392(3) 0.1252(3)
C29_7 C 0.8364(3) 0.0429(4) 0.8931(4)
O16_7 O 0.9509(3) 0.9408(3) 0.0490(3)
C22_7 C 0.9770(5) 0.9194(5) 0.0040(5)
Co1_12 Co 1.0000 1.0000 0.19978(6)
C17_7 C 0.8907(4) 0.9998(4) 0.3687(3)
H17_7 H 0.8771 0.9845 0.3334
C18_7 C 0.8673(4) 0.9810(4) 0.4220(3)
H18_7 H 0.8742 0.9975 0.5106
C20_7 C 0.8246(4) 0.9390(4) 0.4249(4)
O19_7 O 0.9778(4) 0.9202(4) 0.7873(4)
O26_7 O 0.9578(2) 0.9227(3) 0.1856(2)
O27_7 O 0.9746(3) 0.7816(4) 0.3087(3)
H19_7 H 0.9730 0.7523 0.2852
O28_7 O 0.8860(3) 0.8646(3) 0.2819(3)
C23_7 C 0.9534(4) 0.9406(5) 0.9440(4)
C24_7 C 0.9745(6) 0.9258(7) 0.8957(4)
C25_7 C 0.9523(6) 0.9412(6) 0.8407(6)
C26_7 C 0.9120(4) 0.9799(5) 0.8381(4)
H22_7 H 0.9005 0.9957 0.8022
C27_7 C 0.8864(4) 0.9975(4) 0.8893(3)
C28_7 C 0.9083(4) 0.9791(4) 0.9440(4)
H23_7 H 0.8925 0.9927 0.9790
C30_7 C 0.9463(6) 0.9150(6) 0.7350(6)
H24_7 H 0.9401 0.9537 0.7173
H25_7 H 0.9095 0.8964 0.7423
C31_7 C 0.9842(6) 0.8750(6) 0.6946(5)
H27_7 H 0.9726 0.8337 0.6980
C32_7 C 0.9763(6) 0.8969(6) 0.6302(5)
H28_7 H 0.9372 0.8900 0.6175
H29_7 H 0.9840 0.9392 0.6278
H33_7 H 0.9746 0.8987 0.5182
H39_7 H 0.875942 0.907487 0.282839
H40_7 H 0.858205 0.84298 0.256714
O1_8 O 0.2365(3) 0.1330(3) 0.2567(3)
O2_8 O 0.2991(3) 0.1908(3) 0.2990(3)
O5_8 O 0.2722(4) 0.1702(4) 0.0373(4)
C1_8 C 0.2730(5) 0.1694(5) 0.2540(5)
C2_8 C 0.2966(4) 0.1906(5) 0.1940(4)
C3_8 C 0.2755(6) 0.1758(7) 0.1457(4)
H3_8 H 0.2424 0.1528 0.1464
C4_8 C 0.2977(6) 0.1912(6) 0.0907(6)
C5_8 C 0.3380(4) 0.2299(5) 0.0881(4)
H4_8 H 0.3495 0.2457 0.0522
C6_8 C 0.3636(4) 0.2475(4) 0.1393(3)
C7_8 C 0.3417(4) 0.2291(4) 0.1940(4)
H5_8 H 0.3575 0.2427 0.2290
C8_8 C 0.4136(3) 0.2929(4) 0.1431(4)
O15_8 O 0.2635(3) 0.3670(3) 0.2567(3)
O16_8 O 0.2009(3) 0.3092(3) 0.2990(3)
O19_8 O 0.2278(4) 0.3298(4) 0.0373(4)
C22_8 C 0.2270(5) 0.3306(5) 0.2540(5)
C23_8 C 0.2034(4) 0.3094(5) 0.1940(4)
C24_8 C 0.2245(6) 0.3242(7) 0.1457(4)
H21_8 H 0.2576 0.3472 0.1464
C25_8 C 0.2023(6) 0.3088(6) 0.0907(6)
C26_8 C 0.1620(4) 0.2701(5) 0.0881(4)
H22_8 H 0.1505 0.2543 0.0522
C27_8 C 0.1364(4) 0.2525(4) 0.1393(3)
C28_8 C 0.1583(4) 0.2709(4) 0.1940(4)
H23_8 H 0.1425 0.2573 0.2290
C29_8 C 0.0864(3) 0.2071(4) 0.1431(4)
Co1_13 Co 0.2500 0.2500 0.44978(6)
O6_8 O 0.2009(4) 0.1737(4) 0.7733(4)
O9_8 O 0.2498(3) 0.1532(3) 0.5618(3)
O10_8 O 0.1957(3) 0.2173(3) 0.5141(2)
O11_8 O 0.3023(3) 0.2892(3) 0.3752(3)
O12_8 O 0.2922(2) 0.1727(3) 0.4356(2)
O13_8 O 0.2754(3) 0.0316(4) 0.5587(3)
H1_8 H 0.2770 0.0023 0.5352
H2_8 H 0.2415 0.0395 0.5697
O14_8 O 0.3640(3) 0.1146(3) 0.5319(3)
C9_8 C 0.3037(6) 0.1650(6) 0.9850(6)
H6_8 H 0.3099 0.2037 0.9673
H7_8 H 0.3405 0.1464 0.9923
C10_8 C 0.2658(6) 0.1250(6) 0.9446(5)
H8_8 H 0.2259 0.1281 0.9561
H9_8 H 0.2774 0.0837 0.9480
C11_8 C 0.2737(6) 0.1469(6) 0.8802(5)
H10_8 H 0.3128 0.1400 0.8675
H11_8 H 0.2660 0.1892 0.8778
C12_8 C 0.2317(6) 0.1122(6) 0.8401(5)
H12_8 H 0.1927 0.1185 0.8537
H13_8 H 0.2399 0.0700 0.8423
C13_8 C 0.2373(6) 0.1335(6) 0.7761(6)
H14_8 H 0.2288 0.1017 0.7486
H15_8 H 0.2754 0.1487 0.7682
C14_8 C 0.1821(5) 0.1989(6) 0.7227(5)
C15_8 C 0.2048(4) 0.1833(5) 0.6690(3)
H16_8 H 0.2343 0.1556 0.6669
C16_8 C 0.1841(3) 0.2088(4) 0.6189(3)
C17_8 C 0.1407(4) 0.2502(4) 0.6187(3)
H17_8 H 0.1271 0.2655 0.5834
C18_8 C 0.1173(4) 0.2690(4) 0.6720(3)
C19_8 C 0.1393(4) 0.2414(4) 0.7244(4)
H18_8 H 0.1242 0.2525 0.7606
C20_8 C 0.0746(4) 0.3110(4) 0.6749(4)
C21_8 C 0.2121(4) 0.1923(4) 0.5593(4)
O20_8 O 0.2991(4) 0.3263(4) 0.7733(4)
O23_8 O 0.2502(3) 0.3468(3) 0.5618(3)
O24_8 O 0.3043(3) 0.2827(3) 0.5141(2)
O25_8 O 0.1977(3) 0.2108(3) 0.3752(3)
O26_8 O 0.2078(2) 0.3273(3) 0.4356(2)
O27_8 O 0.2246(3) 0.4684(4) 0.5587(3)
H19_8 H 0.2230 0.4977 0.5352
H20_8 H 0.2585 0.4605 0.5697
O28_8 O 0.1360(3) 0.3854(3) 0.5319(3)
C30_8 C 0.1963(6) 0.3350(6) 0.9850(6)
H24_8 H 0.1901 0.2963 0.9673
H25_8 H 0.1595 0.3536 0.9923
C31_8 C 0.2342(6) 0.3750(6) 0.9446(5)
H26_8 H 0.2741 0.3719 0.9561
H27_8 H 0.2226 0.4163 0.9480
C32_8 C 0.2263(6) 0.3531(6) 0.8802(5)
H28_8 H 0.1872 0.3600 0.8675
H29_8 H 0.2340 0.3108 0.8778
C33_8 C 0.2683(6) 0.3878(6) 0.8401(5)
H30_8 H 0.3073 0.3815 0.8537
H31_8 H 0.2601 0.4300 0.8423
C34_8 C 0.2627(6) 0.3665(6) 0.7761(6)
H32_8 H 0.2712 0.3983 0.7486
H33_8 H 0.2246 0.3513 0.7682
C35_8 C 0.3179(5) 0.3011(6) 0.7227(5)
C36_8 C 0.2952(4) 0.3167(5) 0.6690(3)
H34_8 H 0.2657 0.3444 0.6669
C37_8 C 0.3159(3) 0.2912(4) 0.6189(3)
C38_8 C 0.3593(4) 0.2498(4) 0.6187(3)
H35_8 H 0.3729 0.2345 0.5834
C39_8 C 0.3827(4) 0.2310(4) 0.6720(3)
C40_8 C 0.3607(4) 0.2586(4) 0.7244(4)
H36_8 H 0.3758 0.2475 0.7606
C41_8 C 0.4254(4) 0.1890(4) 0.6749(4)
C42_8 C 0.2879(4) 0.3077(4) 0.5593(4)
H37_8 H 0.374058 0.157487 0.532839
H38_8 H 0.391795 0.09298 0.506714
H39_8 H 0.125942 0.342513 0.532839
H40_8 H 0.108205 0.40702 0.506714
loop_
_geom_bond_atom_site_label_1
_geom_bond_atom_site_label_2
_geom_bond_site_symmetry_1
_geom_bond_site_symmetry_2
O1 C1 1_555 1_555
O2 C1 1_555 1_555
O15 C22 1_555 1_555
O16 C22 1_555 1_555
Co6 O1 1_555 1_555
Co7 O15 1_555 1_555
O2 Co6 1_555 1_555
O16 Co7 1_555 1_555
Co1 O10 1_555 1_555
Co6 O12 1_555 1_555
Co3 O9 1_555 1_555
O3 C8 1_555 1_555
O4 C8 1_555 1_555
O5 C4 1_555 1_555
O6 C13 1_555 1_555
O7 C20 1_555 1_555
O8 C20 1_555 1_555
O9 C21 1_555 1_555
O10 C21 1_555 1_555
O11 Co1 1_555 1_555
O12 Co1 1_555 1_555
O13 Co3 1_555 1_555
H1 O13 1_555 1_555
H2 O13 1_555 1_555
O14 Co3 1_555 1_555
C2 C3 1_555 1_555
C3 H3 1_555 1_555
C4 C3 1_555 1_555
C5 C4 1_555 1_555
H4 C5 1_555 1_555
C6 C5 1_555 1_555
C7 C2 1_555 1_555
H5 C7 1_555 1_555
C8 C6 1_555 1_555
C9 O5 1_555 1_555
H6 C9 1_555 1_555
H7 C9 1_555 1_555
C10 C9 1_555 1_555
H8 C10 1_555 1_555
H9 C10 1_555 1_555
C11 C10 1_555 1_555
H10 C11 1_555 1_555
H11 C11 1_555 1_555
C12 C11 1_555 1_555
H12 C12 1_555 1_555
H13 C12 1_555 1_555
C13 C12 1_555 1_555
H14 C13 1_555 1_555
H15 C13 1_555 1_555
C14 O6 1_555 1_555
C15 C14 1_555 1_555
H16 C15 1_555 1_555
C16 C15 1_555 1_555
C17 C16 1_555 1_555
H17 C17 1_555 1_555
C18 C17 1_555 1_555
C19 C14 1_555 1_555
H18 C19 1_555 1_555
C20 C18 1_555 1_555
C21 C16 1_555 1_555
Co7 O11 1_555 1_555
Co5 O23 1_555 1_555
O17 C29 1_555 1_555
O18 C29 1_555 1_555
O19 C25 1_555 1_555
O20 C34 1_555 1_555
O21 C41 1_555 1_555
O22 C41 1_555 1_555
O23 C42 1_555 1_555
O24 Co1 1_555 1_555
O25 Co1 1_555 1_555
O26 Co1 1_555 1_555
O27 Co5 1_555 1_555
H19 O27 1_555 1_555
H20 O27 1_555 1_555
O28 Co5 1_555 1_555
C23 C24 1_555 1_555
C24 H21 1_555 1_555
C25 C24 1_555 1_555
C26 C25 1_555 1_555
H22 C26 1_555 1_555
C27 C26 1_555 1_555
C28 C23 1_555 1_555
H23 C28 1_555 1_555
C29 C27 1_555 1_555
C30 O19 1_555 1_555
H24 C30 1_555 1_555
H25 C30 1_555 1_555
C31 C30 1_555 1_555
H26 C31 1_555 1_555
H27 C31 1_555 1_555
C32 C31 1_555 1_555
H28 C32 1_555 1_555
H29 C32 1_555 1_555
C33 C32 1_555 1_555
H30 C33 1_555 1_555
H31 C33 1_555 1_555
C34 C33 1_555 1_555
H32 C34 1_555 1_555
H33 C34 1_555 1_555
C35 O20 1_555 1_555
C36 C35 1_555 1_555
H34 C36 1_555 1_555
C37 C36 1_555 1_555
C38 C37 1_555 1_555
H35 C38 1_555 1_555
C39 C38 1_555 1_555
C40 C35 1_555 1_555
H36 C40 1_555 1_555
C41 C39 1_555 1_555
C42 O24 1_555 1_555
Co8 O22 1_555 1_555
Co9 O4 1_555 1_555
Co10 O18 1_555 1_555
Co11 O8 1_555 1_555
Co12 O21 1_555 1_555
Co13 O3 1_555 1_555
Co14 O17 1_555 1_555
Co15 O7 1_555 1_555
O33 Co3 1_555 1_555
O34 Co5 1_555 1_555
O35 Co6 1_555 1_555
O36 Co7 1_555 1_555
O37 Co5 1_555 1_555
O38 Co3 1_555 1_555
O39 Co7 1_555 1_555
O40 Co6 1_555 1_555
Co6 O25 1_555 1_555
Co3 O12 1_555 1_555
C6 C7 1_555 1_555
C18 C19 1_555 1_555
Co7 O26 1_555 1_555
Co5 O26 1_555 1_555
C27 C28 1_555 1_555
C37 C42 1_555 1_555
C39 C40 1_555 1_555
O14 H37 1_555 1_555
O14 H38 1_555 1_555
O28 H39 1_555 1_555
O28 H40 1_555 1_555
O1_2 C1_2 1_555 1_555
O2_2 C1_2 1_555 1_555
O3_2 C8_2 1_555 1_555
O4_2 C8_2 1_555 1_555
O5_2 C4_2 1_555 1_555
C1_2 C2_2 1_555 1_555
C2_2 C3_2 1_555 1_555
C3_2 H3_2 1_555 1_555
C4_2 C3_2 1_555 1_555
C5_2 C4_2 1_555 1_555
H4_2 C5_2 1_555 1_555
C6_2 C5_2 1_555 1_555
C7_2 C2_2 1_555 1_555
H5_2 C7_2 1_555 1_555
C8_2 C6_2 1_555 1_555
O15_2 C22_2 1_555 1_555
O16_2 C22_2 1_555 1_555
O33 C29_2 1_555 1_555
O35 C29_2 1_555 1_555
O19_2 C25_2 1_555 1_555
C22_2 C23_2 1_555 1_555
C23_2 C24_2 1_555 1_555
C24_2 H21_2 1_555 1_555
C25_2 C24_2 1_555 1_555
C26_2 C25_2 1_555 1_555
H22_2 C26_2 1_555 1_555
C27_2 C26_2 1_555 1_555
C28_2 C23_2 1_555 1_555
H23_2 C28_2 1_555 1_555
C29_2 C27_2 1_555 1_555
Co8 O1_2 1_555 1_555
Co7_2 O15_2 1_555 1_555
Co9_2 O4_2 1_555 1_555
Co13_2 O3_2 1_555 1_555
O2_2 Co8 1_555 1_555
C6_2 C7_2 1_555 1_555
O16_2 Co7_2 1_555 1_555
C27_2 C28_2 1_555 1_555
Co1_2 O10_2 1_555 1_555
Co8 O12_2 1_555 1_555
Co12 O9_2 1_555 1_555
O6_2 C13_2 1_555 1_555
O7_2 C20_2 1_555 1_555
O8_2 C20_2 1_555 1_555
O9_2 C21_2 1_555 1_555
O10_2 C21_2 1_555 1_555
O11_2 Co1_2 1_555 1_555
O12_2 Co1_2 1_555 1_555
O13_2 Co12 1_555 1_555
H1_2 O13_2 1_555 1_555
H2_2 O13_2 1_555 1_555
O14_2 Co12 1_555 1_555
H6_2 C9_2 1_555 1_555
H7_2 C9_2 1_555 1_555
C10_2 C9_2 1_555 1_555
H8_2 C10_2 1_555 1_555
H9_2 C10_2 1_555 1_555
C11_2 C10_2 1_555 1_555
H10_2 C11_2 1_555 1_555
H11_2 C11_2 1_555 1_555
C12_2 C11_2 1_555 1_555
H12_2 C12_2 1_555 1_555
H13_2 C12_2 1_555 1_555
C13_2 C12_2 1_555 1_555
H14_2 C13_2 1_555 1_555
H15_2 C13_2 1_555 1_555
C14_2 O6_2 1_555 1_555
C15_2 C14_2 1_555 1_555
H16_2 C15_2 1_555 1_555
C16_2 C15_2 1_555 1_555
C17_2 C16_2 1_555 1_555
H17_2 C17_2 1_555 1_555
C18_2 C17_2 1_555 1_555
C19_2 C14_2 1_555 1_555
H18_2 C19_2 1_555 1_555
C20_2 C18_2 1_555 1_555
C21_2 C16_2 1_555 1_555
Co7_2 O11_2 1_555 1_555
Co5_2 O23_2 1_555 1_555
O20_2 C34_2 1_555 1_555
O21_2 C41_2 1_555 1_555
O22_2 C41_2 1_555 1_555
O23_2 C42_2 1_555 1_555
O24_2 Co1_2 1_555 1_555
O25_2 Co1_2 1_555 1_555
O26_2 Co1_2 1_555 1_555
O27_2 Co5_2 1_555 1_555
H19_2 O27_2 1_555 1_555
H20_2 O27_2 1_555 1_555
O28_2 Co5_2 1_555 1_555
H24_2 C30_2 1_555 1_555
H25_2 C30_2 1_555 1_555
C31_2 C30_2 1_555 1_555
H26_2 C31_2 1_555 1_555
H27_2 C31_2 1_555 1_555
C32_2 C31_2 1_555 1_555
H28_2 C32_2 1_555 1_555
H29_2 C32_2 1_555 1_555
C33_2 C32_2 1_555 1_555
H30_2 C33_2 1_555 1_555
H31_2 C33_2 1_555 1_555
C34_2 C33_2 1_555 1_555
H32_2 C34_2 1_555 1_555
H33_2 C34_2 1_555 1_555
C35_2 O20_2 1_555 1_555
C36_2 C35_2 1_555 1_555
H34_2 C36_2 1_555 1_555
C37_2 C36_2 1_555 1_555
C38_2 C37_2 1_555 1_555
H35_2 C38_2 1_555 1_555
C39_2 C38_2 1_555 1_555
C40_2 C35_2 1_555 1_555
H36_2 C40_2 1_555 1_555
C41_2 C39_2 1_555 1_555
C42_2 O24_2 1_555 1_555
Co11_2 O8_2 1_555 1_555
Co15_2 O7_2 1_555 1_555
O33_2 Co12 1_555 1_555
O34_2 Co5_2 1_555 1_555
O35_2 Co8 1_555 1_555
O36_2 Co7_2 1_555 1_555
O37_2 Co5_2 1_555 1_555
O39_2 Co7_2 1_555 1_555
Co8 O25_2 1_555 1_555
Co12 O12_2 1_555 1_555
C18_2 C19_2 1_555 1_555
Co7_2 O26_2 1_555 1_555
Co5_2 O26_2 1_555 1_555
C37_2 C42_2 1_555 1_555
C39_2 C40_2 1_555 1_555
O14_2 H37_2 1_555 1_555
O14_2 H38_2 1_555 1_555
O28_2 H39_2 1_555 1_555
O28_2 H40_2 1_555 1_555
O1_3 C1_3 1_555 1_555
O2_3 C1_3 1_555 1_555
O5_3 C4_3 1_555 1_555
O6_3 C13_3 1_555 1_555
C1_3 C2_3 1_555 1_555
C2_3 C3_3 1_555 1_555
C3_3 H3_3 1_555 1_555
C4_3 C3_3 1_555 1_555
C5_3 C4_3 1_555 1_555
H4_3 C5_3 1_555 1_555
C6_3 C5_3 1_555 1_555
C7_3 C2_3 1_555 1_555
H5_3 C7_3 1_555 1_555
C9_3 O5_3 1_555 1_555
H6_3 C9_3 1_555 1_555
H7_3 C9_3 1_555 1_555
C10_3 C9_3 1_555 1_555
H8_3 C10_3 1_555 1_555
H9_3 C10_3 1_555 1_555
C11_3 C10_3 1_555 1_555
H10_3 C11_3 1_555 1_555
H11_3 C11_3 1_555 1_555
C12_3 C11_3 1_555 1_555
H12_3 C12_3 1_555 1_555
H13_3 C12_3 1_555 1_555
C13_3 C12_3 1_555 1_555
H15_3 C13_3 1_555 1_555
O17_2 C29_3 1_555 1_555
O18_2 C29_3 1_555 1_555
Co6_2 O1_3 1_555 1_555
Co10_2 O18_2 1_555 1_555
Co14_2 O17_2 1_555 1_555
O2_3 Co6_2 1_555 1_555
C6_3 C7_3 1_555 1_555
Co1_3 O10_3 1_555 1_555
Co6_2 O12_3 1_555 1_555
Co3_2 O9_3 1_555 1_555
O9_3 C21_3 1_555 1_555
O10_3 C21_3 1_555 1_555
O12_3 Co1_3 1_555 1_555
O13_3 Co3_2 1_555 1_555
H1_3 O13_3 1_555 1_555
H2_3 O13_3 1_555 1_555
O14_3 Co3_2 1_555 1_555
C15_3 C14_3 1_555 1_555
H16_3 C15_3 1_555 1_555
C16_3 C15_3 1_555 1_555
C19_3 C14_3 1_555 1_555
C21_3 C16_3 1_555 1_555
O21_3 C41_3 1_555 1_555
O22_3 C41_3 1_555 1_555
O25_3 Co1_3 1_555 1_555
H35_3 C38_3 1_555 1_555
C39_3 C38_3 1_555 1_555
C41_3 C39_3 1_555 1_555
Co8_3 O22_3 1_555 1_555
Co12_3 O21_3 1_555 1_555
O33_3 Co3_2 1_555 1_555
O35_3 Co6_2 1_555 1_555
O38_2 Co3_2 1_555 1_555
O40_2 Co6_2 1_555 1_555
Co6_2 O25_3 1_555 1_555
Co3_2 O12_3 1_555 1_555
O14_3 H37_3 1_555 1_555
O14_3 H38_3 1_555 1_555
O34_2 C8_3 1_555 1_555
O36_2 C8_3 1_555 1_555
O15_3 C22_3 1_555 1_555
O16_3 C22_3 1_555 1_555
O19_3 C25_3 1_555 1_555
O20_3 C34_3 1_555 1_555
C22_3 C23_3 1_555 1_555
C23_3 C24_3 1_555 1_555
C24_3 H21_3 1_555 1_555
C25_3 C24_3 1_555 1_555
C26_3 C25_3 1_555 1_555
H22_3 C26_3 1_555 1_555
C27_3 C26_3 1_555 1_555
C28_3 C23_3 1_555 1_555
H23_3 C28_3 1_555 1_555
C30_3 O19_3 1_555 1_555
H24_3 C30_3 1_555 1_555
H25_3 C30_3 1_555 1_555
C31_3 C30_3 1_555 1_555
H26_3 C31_3 1_555 1_555
H27_3 C31_3 1_555 1_555
C32_3 C31_3 1_555 1_555
H28_3 C32_3 1_555 1_555
H29_3 C32_3 1_555 1_555
C33_3 C32_3 1_555 1_555
H30_3 C33_3 1_555 1_555
H31_3 C33_3 1_555 1_555
C34_3 C33_3 1_555 1_555
H33_3 C34_3 1_555 1_555
Co11_2 O15_3 1_555 1_555
O16_3 Co11_2 1_555 1_555
C27_3 C28_3 1_555 1_555
O7_3 C20_3 1_555 1_555
O8_3 C20_3 1_555 1_555
O11_3 Co1_4 1_555 1_555
H17_3 C17_3 1_555 1_555
C18_3 C17_3 1_555 1_555
C20_3 C18_3 1_555 1_555
Co11_2 O11_3 1_555 1_555
Co15_2 O23_3 1_555 1_555
O23_3 C42_3 1_555 1_555
O24_3 Co1_4 1_555 1_555
O26_3 Co1_4 1_555 1_555
O27_3 Co15_2 1_555 1_555
H19_3 O27_3 1_555 1_555
H20_3 O27_3 1_555 1_555
O28_3 Co15_2 1_555 1_555
C36_3 C35_3 1_555 1_555
H34_3 C36_3 1_555 1_555
C37_3 C36_3 1_555 1_555
C40_3 C35_3 1_555 1_555
C42_3 O24_3 1_555 1_555
Co11_3 O8_3 1_555 1_555
Co15_3 O7_3 1_555 1_555
O34_3 Co15_2 1_555 1_555
O36_3 Co11_2 1_555 1_555
Co11_2 O26_3 1_555 1_555
Co15_2 O26_3 1_555 1_555
C37_3 C42_3 1_555 1_555
O28_3 H39_3 1_555 1_555
O28_3 H40_3 1_555 1_555
O1_4 C1_4 1_555 1_555
O2_4 C1_4 1_555 1_555
O3_3 C8_4 1_555 1_555
O4_3 C8_4 1_555 1_555
O5_4 C4_4 1_555 1_555
O6_4 C13_4 1_555 1_555
O37 C20_4 1_555 1_555
O39 C20_4 1_555 1_555
O9_4 C21_4 1_555 1_555
O10_4 C21_4 1_555 1_555
H1_4 O13_4 1_555 1_555
H2_4 O13_4 1_555 1_555
C1_4 C2_4 1_555 1_555
C2_4 C3_4 1_555 1_555
C3_4 H3_4 1_555 1_555
C4_4 C3_4 1_555 1_555
C5_4 C4_4 1_555 1_555
H4_4 C5_4 1_555 1_555
C6_4 C5_4 1_555 1_555
C7_4 C2_4 1_555 1_555
H5_4 C7_4 1_555 1_555
C8_4 C6_4 1_555 1_555
C9_4 O5_4 1_555 1_555
H6_4 C9_4 1_555 1_555
H7_4 C9_4 1_555 1_555
C10_4 C9_4 1_555 1_555
H8_4 C10_4 1_555 1_555
H9_4 C10_4 1_555 1_555
C11_4 C10_4 1_555 1_555
H10_4 C11_4 1_555 1_555
H11_4 C11_4 1_555 1_555
C12_4 C11_4 1_555 1_555
H12_4 C12_4 1_555 1_555
H13_4 C12_4 1_555 1_555
C13_4 C12_4 1_555 1_555
H14_4 C13_4 1_555 1_555
H15_4 C13_4 1_555 1_555
C14_4 O6_4 1_555 1_555
C15_4 C14_4 1_555 1_555
H16_4 C15_4 1_555 1_555
C16_4 C15_4 1_555 1_555
C17_4 C16_4 1_555 1_555
H17_4 C17_4 1_555 1_555
C18_4 C17_4 1_555 1_555
C19_4 C14_4 1_555 1_555
H18_4 C19_4 1_555 1_555
C20_4 C18_4 1_555 1_555
C21_4 C16_4 1_555 1_555
O15_4 C22_4 1_555 1_555
O16_4 C22_4 1_555 1_555
O33_3 C29_4 1_555 1_555
O35_3 C29_4 1_555 1_555
O19_4 C25_4 1_555 1_555
O20_4 C34_4 1_555 1_555
O21_4 C41_4 1_555 1_555
O22_4 C41_4 1_555 1_555
O23_4 C42_4 1_555 1_555
H19_4 O27_4 1_555 1_555
H20_4 O27_4 1_555 1_555
C22_4 C23_4 1_555 1_555
C23_4 C24_4 1_555 1_555
C24_4 H21_4 1_555 1_555
C25_4 C24_4 1_555 1_555
C26_4 C25_4 1_555 1_555
H22_4 C26_4 1_555 1_555
C27_4 C26_4 1_555 1_555
C28_4 C23_4 1_555 1_555
H23_4 C28_4 1_555 1_555
C29_4 C27_4 1_555 1_555
C30_4 O19_4 1_555 1_555
H24_4 C30_4 1_555 1_555
H25_4 C30_4 1_555 1_555
C31_4 C30_4 1_555 1_555
H26_4 C31_4 1_555 1_555
H27_4 C31_4 1_555 1_555
C32_4 C31_4 1_555 1_555
H28_4 C32_4 1_555 1_555
H29_4 C32_4 1_555 1_555
C33_4 C32_4 1_555 1_555
H30_4 C33_4 1_555 1_555
H31_4 C33_4 1_555 1_555
C34_4 C33_4 1_555 1_555
H32_4 C34_4 1_555 1_555
H33_4 C34_4 1_555 1_555
C35_4 O20_4 1_555 1_555
C36_4 C35_4 1_555 1_555
H34_4 C36_4 1_555 1_555
C37_4 C36_4 1_555 1_555
C38_4 C37_4 1_555 1_555
H35_4 C38_4 1_555 1_555
C39_4 C38_4 1_555 1_555
C40_4 C35_4 1_555 1_555
H36_4 C40_4 1_555 1_555
C41_4 C39_4 1_555 1_555
C42_4 O24_4 1_555 1_555
Co8_3 O1_4 1_555 1_555
Co9 O15_4 1_555 1_555
Co9_3 O4_3 1_555 1_555
Co13_3 O3_3 1_555 1_555
O2_4 Co8_3 1_555 1_555
C6_4 C7_4 1_555 1_555
C18_4 C19_4 1_555 1_555
O16_4 Co9 1_555 1_555
C27_4 C28_4 1_555 1_555
C37_4 C42_4 1_555 1_555
C39_4 C40_4 1_555 1_555
O14_4 H37_4 1_555 1_555
O14_4 H38_4 1_555 1_555
O28_4 H39_4 1_555 1_555
O28_4 H40_4 1_555 1_555
Co8_3 O12_4 1_555 1_555
O11_4 Co1_5 1_555 1_555
O12_4 Co1_5 1_555 1_555
Co9 O11_4 1_555 1_555
O25_4 Co1_5 1_555 1_555
O26_4 Co1_5 1_555 1_555
O33_4 Co12_3 1_555 1_555
O35_4 Co8_3 1_555 1_555
O37_3 Co13 1_555 1_555
O39_3 Co9 1_555 1_555
Co8_3 O25_4 1_555 1_555
Co12_3 O12_4 1_555 1_555
Co9 O26_4 1_555 1_555
Co13 O26_4 1_555 1_555
O2_5 C1_5 1_555 1_555
O3_4 C8_5 1_555 1_555
O4_4 C8_5 1_555 1_555
O5_5 C4_5 1_555 1_555
C1_5 C2_5 1_555 1_555
C2_5 C3_5 1_555 1_555
C4_5 C3_5 1_555 1_555
C5_5 C4_5 1_555 1_555
H4_5 C5_5 1_555 1_555
C6_5 C5_5 1_555 1_555
C7_5 C2_5 1_555 1_555
H5_5 C7_5 1_555 1_555
C8_5 C6_5 1_555 1_555
C9_5 O5_5 1_555 1_555
H6_5 C9_5 1_555 1_555
H7_5 C9_5 1_555 1_555
C10_5 C9_5 1_555 1_555
H9_5 C10_5 1_555 1_555
C11_5 C10_5 1_555 1_555
H10_5 C11_5 1_555 1_555
H11_5 C11_5 1_555 1_555
O20_5 C34_5 1_555 1_555
H30_5 C33_5 1_555 1_555
H31_5 C33_5 1_555 1_555
C34_5 C33_5 1_555 1_555
Co11 O4_4 1_555 1_555
Co15 O3_4 1_555 1_555
O2_5 Co8_2 1_555 1_555
C6_5 C7_5 1_555 1_555
Co8_2 O12_5 1_555 1_555
O11_5 Co1_6 1_555 1_555
O12_5 Co1_6 1_555 1_555
O13_5 Co12_2 1_555 1_555
H1_5 O13_5 1_555 1_555
O14_5 Co12_2 1_555 1_555
O21_5 C41_5 1_555 1_555
O22_5 C41_5 1_555 1_555
O23_5 C42_5 1_555 1_555
O24_5 Co1_6 1_555 1_555
C36_5 C35_5 1_555 1_555
H34_5 C36_5 1_555 1_555
C37_5 C36_5 1_555 1_555
C38_5 C37_5 1_555 1_555
H35_5 C38_5 1_555 1_555
C39_5 C38_5 1_555 1_555
C40_5 C35_5 1_555 1_555
C41_5 C39_5 1_555 1_555
C42_5 O24_5 1_555 1_555
Co10 O22_5 1_555 1_555
Co14 O21_5 1_555 1_555
O33_5 Co12_2 1_555 1_555
O35_5 Co8_2 1_555 1_555
Co12_2 O12_5 1_555 1_555
C37_5 C42_5 1_555 1_555
C39_5 C40_5 1_555 1_555
O14_5 H37_5 1_555 1_555
O14_5 H38_5 1_555 1_555
O6_5 C13_5 1_555 1_555
H12_5 C12_5 1_555 1_555
H13_5 C12_5 1_555 1_555
C13_5 C12_5 1_555 1_555
O16_5 C22_5 1_555 1_555
O33_2 C29_5 1_555 1_555
O35_2 C29_5 1_555 1_555
O19_5 C25_5 1_555 1_555
C22_5 C23_5 1_555 1_555
C23_5 C24_5 1_555 1_555
C25_5 C24_5 1_555 1_555
C26_5 C25_5 1_555 1_555
H22_5 C26_5 1_555 1_555
C27_5 C26_5 1_555 1_555
C28_5 C23_5 1_555 1_555
H23_5 C28_5 1_555 1_555
C29_5 C27_5 1_555 1_555
C30_5 O19_5 1_555 1_555
H24_5 C30_5 1_555 1_555
H25_5 C30_5 1_555 1_555
C31_5 C30_5 1_555 1_555
H27_5 C31_5 1_555 1_555
C32_5 C31_5 1_555 1_555
H28_5 C32_5 1_555 1_555
H29_5 C32_5 1_555 1_555
O16_5 Co9_3 1_555 1_555
C27_5 C28_5 1_555 1_555
Co1_7 O10_5 1_555 1_555
O37_3 C20_5 1_555 1_555
O39_3 C20_5 1_555 1_555
O9_5 C21_5 1_555 1_555
O10_5 C21_5 1_555 1_555
C15_5 C14_5 1_555 1_555
H16_5 C15_5 1_555 1_555
C16_5 C15_5 1_555 1_555
C17_5 C16_5 1_555 1_555
H17_5 C17_5 1_555 1_555
C18_5 C17_5 1_555 1_555
C19_5 C14_5 1_555 1_555
C20_5 C18_5 1_555 1_555
C21_5 C16_5 1_555 1_555
O25_5 Co1_7 1_555 1_555
O26_5 Co1_7 1_555 1_555
O27_5 Co13_3 1_555 1_555
H19_5 O27_5 1_555 1_555
O28_5 Co13_3 1_555 1_555
C18_5 C19_5 1_555 1_555
Co9_3 O26_5 1_555 1_555
Co13_3 O26_5 1_555 1_555
O28_5 H39_5 1_555 1_555
O28_5 H40_5 1_555 1_555
O1_6 C1_6 1_555 1_555
O2_6 C1_6 1_555 1_555
O34_3 C8_6 1_555 1_555
O36_3 C8_6 1_555 1_555
O5_6 C4_6 1_555 1_555
O6_6 C13_6 1_555 1_555
O7_4 C20_6 1_555 1_555
O8_4 C20_6 1_555 1_555
O9_6 C21_6 1_555 1_555
O10_6 C21_6 1_555 1_555
H1_6 O13_6 1_555 1_555
H2_6 O13_6 1_555 1_555
C1_6 C2_6 1_555 1_555
C2_6 C3_6 1_555 1_555
C3_6 H3_6 1_555 1_555
C4_6 C3_6 1_555 1_555
C5_6 C4_6 1_555 1_555
H4_6 C5_6 1_555 1_555
C6_6 C5_6 1_555 1_555
C7_6 C2_6 1_555 1_555
H5_6 C7_6 1_555 1_555
C8_6 C6_6 1_555 1_555
C9_6 O5_6 1_555 1_555
H6_6 C9_6 1_555 1_555
H7_6 C9_6 1_555 1_555
C10_6 C9_6 1_555 1_555
H8_6 C10_6 1_555 1_555
H9_6 C10_6 1_555 1_555
C11_6 C10_6 1_555 1_555
H10_6 C11_6 1_555 1_555
H11_6 C11_6 1_555 1_555
C12_6 C11_6 1_555 1_555
H12_6 C12_6 1_555 1_555
H13_6 C12_6 1_555 1_555
C13_6 C12_6 1_555 1_555
H14_6 C13_6 1_555 1_555
H15_6 C13_6 1_555 1_555
C14_6 O6_6 1_555 1_555
C15_6 C14_6 1_555 1_555
H16_6 C15_6 1_555 1_555
C16_6 C15_6 1_555 1_555
C17_6 C16_6 1_555 1_555
H17_6 C17_6 1_555 1_555
C18_6 C17_6 1_555 1_555
C19_6 C14_6 1_555 1_555
H18_6 C19_6 1_555 1_555
C20_6 C18_6 1_555 1_555
C21_6 C16_6 1_555 1_555
O15_6 C22_6 1_555 1_555
O16_6 C22_6 1_555 1_555
O33_5 C29_6 1_555 1_555
O35_5 C29_6 1_555 1_555
O19_6 C25_6 1_555 1_555
O20_6 C34_6 1_555 1_555
O38 C41_6 1_555 1_555
O40 C41_6 1_555 1_555
O23_6 C42_6 1_555 1_555
H19_6 O27_6 1_555 1_555
H20_6 O27_6 1_555 1_555
C22_6 C23_6 1_555 1_555
C23_6 C24_6 1_555 1_555
C24_6 H21_6 1_555 1_555
C25_6 C24_6 1_555 1_555
C26_6 C25_6 1_555 1_555
H22_6 C26_6 1_555 1_555
C27_6 C26_6 1_555 1_555
C28_6 C23_6 1_555 1_555
H23_6 C28_6 1_555 1_555
C29_6 C27_6 1_555 1_555
C30_6 O19_6 1_555 1_555
H24_6 C30_6 1_555 1_555
H25_6 C30_6 1_555 1_555
C31_6 C30_6 1_555 1_555
H26_6 C31_6 1_555 1_555
H27_6 C31_6 1_555 1_555
C32_6 C31_6 1_555 1_555
H28_6 C32_6 1_555 1_555
H29_6 C32_6 1_555 1_555
C33_6 C32_6 1_555 1_555
H30_6 C33_6 1_555 1_555
H31_6 C33_6 1_555 1_555
C34_6 C33_6 1_555 1_555
H32_6 C34_6 1_555 1_555
H33_6 C34_6 1_555 1_555
C35_6 O20_6 1_555 1_555
C36_6 C35_6 1_555 1_555
H34_6 C36_6 1_555 1_555
C37_6 C36_6 1_555 1_555
C38_6 C37_6 1_555 1_555
H35_6 C38_6 1_555 1_555
C39_6 C38_6 1_555 1_555
C40_6 C35_6 1_555 1_555
H36_6 C40_6 1_555 1_555
C41_6 C39_6 1_555 1_555
C42_6 O24_6 1_555 1_555
Co10 O1_6 1_555 1_555
Co11_3 O15_6 1_555 1_555
O2_6 Co10 1_555 1_555
C6_6 C7_6 1_555 1_555
C18_6 C19_6 1_555 1_555
O16_6 Co11_3 1_555 1_555
C27_6 C28_6 1_555 1_555
C37_6 C42_6 1_555 1_555
C39_6 C40_6 1_555 1_555
O14_6 H37_6 1_555 1_555
O14_6 H38_6 1_555 1_555
O28_6 H39_6 1_555 1_555
O28_6 H40_6 1_555 1_555
Co10 O12_6 1_555 1_555
O11_6 Co1_8 1_555 1_555
O12_6 Co1_8 1_555 1_555
Co11_3 O11_6 1_555 1_555
O25_6 Co1_8 1_555 1_555
O26_6 Co1_8 1_555 1_555
O34_4 Co15_3 1_555 1_555
O36_4 Co11_3 1_555 1_555
Co10 O25_6 1_555 1_555
Co14 O12_6 1_555 1_555
Co11_3 O26_6 1_555 1_555
Co15_3 O26_6 1_555 1_555
O2_7 C1_7 1_555 1_555
O2_7 Co8_4 1_555 1_555
Co8_4 O12_7 1_555 1_555
O5_7 C4_7 1_555 1_555
O12_7 Co1_9 1_555 1_555
O13_7 Co12_4 1_555 1_555
H1_7 O13_7 1_555 1_555
O14_7 Co12_4 1_555 1_555
C2_7 C3_7 1_555 1_555
C4_7 C3_7 1_555 1_555
C5_7 C4_7 1_555 1_555
H4_7 C5_7 1_555 1_555
C6_7 C5_7 1_555 1_555
C7_7 C2_7 1_555 1_555
H5_7 C7_7 1_555 1_555
C9_7 O5_7 1_555 1_555
H6_7 C9_7 1_555 1_555
H7_7 C9_7 1_555 1_555
C10_7 C9_7 1_555 1_555
H9_7 C10_7 1_555 1_555
C11_7 C10_7 1_555 1_555
H10_7 C11_7 1_555 1_555
H11_7 C11_7 1_555 1_555
O21_6 C41_7 1_555 1_555
O22_6 C41_7 1_555 1_555
H35_7 C38_7 1_555 1_555
C39_7 C38_7 1_555 1_555
C41_7 C39_7 1_555 1_555
Co10_2 O22_6 1_555 1_555
Co14_2 O21_6 1_555 1_555
O33_6 Co12_4 1_555 1_555
O35_6 Co8_4 1_555 1_555
Co12_4 O12_7 1_555 1_555
C6_7 C7_7 1_555 1_555
O14_7 H37_7 1_555 1_555
O14_7 H38_7 1_555 1_555
O34_4 C8_7 1_555 1_555
O36_4 C8_7 1_555 1_555
O11_7 Co1_10 1_555 1_555
O20_7 C34_7 1_555 1_555
O23_7 C42_7 1_555 1_555
O24_7 Co1_10 1_555 1_555
H30_7 C33_7 1_555 1_555
H31_7 C33_7 1_555 1_555
C34_7 C33_7 1_555 1_555
H32_7 C34_7 1_555 1_555
C35_7 O20_7 1_555 1_555
C36_7 C35_7 1_555 1_555
H34_7 C36_7 1_555 1_555
C37_7 C36_7 1_555 1_555
C40_7 C35_7 1_555 1_555
C42_7 O24_7 1_555 1_555
C37_7 C42_7 1_555 1_555
Co1_11 O10_7 1_555 1_555
O6_7 C13_7 1_555 1_555
O9_7 C21_7 1_555 1_555
O10_7 C21_7 1_555 1_555
H12_7 C12_7 1_555 1_555
H13_7 C12_7 1_555 1_555
C13_7 C12_7 1_555 1_555
H14_7 C13_7 1_555 1_555
C14_7 O6_7 1_555 1_555
C15_7 C14_7 1_555 1_555
H16_7 C15_7 1_555 1_555
C16_7 C15_7 1_555 1_555
C19_7 C14_7 1_555 1_555
C21_7 C16_7 1_555 1_555
O33_4 C29_7 1_555 1_555
O35_4 C29_7 1_555 1_555
O25_7 Co1_11 1_555 1_555
O16_7 C22_7 1_555 1_555
O16_7 Co9_2 1_555 1_555
O37_2 C20_7 1_555 1_555
O39_2 C20_7 1_555 1_555
H17_7 C17_7 1_555 1_555
C18_7 C17_7 1_555 1_555
C20_7 C18_7 1_555 1_555
O19_7 C25_7 1_555 1_555
O26_7 Co1_12 1_555 1_555
O27_7 Co13_2 1_555 1_555
H19_7 O27_7 1_555 1_555
O28_7 Co13_2 1_555 1_555
C23_7 C24_7 1_555 1_555
C25_7 C24_7 1_555 1_555
C26_7 C25_7 1_555 1_555
H22_7 C26_7 1_555 1_555
C27_7 C26_7 1_555 1_555
C28_7 C23_7 1_555 1_555
H23_7 C28_7 1_555 1_555
C30_7 O19_7 1_555 1_555
H24_7 C30_7 1_555 1_555
H25_7 C30_7 1_555 1_555
C31_7 C30_7 1_555 1_555
H27_7 C31_7 1_555 1_555
C32_7 C31_7 1_555 1_555
H28_7 C32_7 1_555 1_555
H29_7 C32_7 1_555 1_555
Co9_2 O26_7 1_555 1_555
Co13_2 O26_7 1_555 1_555
C27_7 C28_7 1_555 1_555
O28_7 H39_7 1_555 1_555
O28_7 H40_7 1_555 1_555
O1_8 C1_8 1_555 1_555
O2_8 C1_8 1_555 1_555
O34 C8_8 1_555 1_555
O36 C8_8 1_555 1_555
O5_8 C4_8 1_555 1_555
C1_8 C2_8 1_555 1_555
C2_8 C3_8 1_555 1_555
C3_8 H3_8 1_555 1_555
C4_8 C3_8 1_555 1_555
C5_8 C4_8 1_555 1_555
H4_8 C5_8 1_555 1_555
C6_8 C5_8 1_555 1_555
C7_8 C2_8 1_555 1_555
H5_8 C7_8 1_555 1_555
C8_8 C6_8 1_555 1_555
O15_8 C22_8 1_555 1_555
O16_8 C22_8 1_555 1_555
O33_6 C29_8 1_555 1_555
O35_6 C29_8 1_555 1_555
O19_8 C25_8 1_555 1_555
C22_8 C23_8 1_555 1_555
C23_8 C24_8 1_555 1_555
C24_8 H21_8 1_555 1_555
C25_8 C24_8 1_555 1_555
C26_8 C25_8 1_555 1_555
H22_8 C26_8 1_555 1_555
C27_8 C26_8 1_555 1_555
C28_8 C23_8 1_555 1_555
H23_8 C28_8 1_555 1_555
C29_8 C27_8 1_555 1_555
Co10_2 O1_8 1_555 1_555
Co11 O15_8 1_555 1_555
O2_8 Co10_2 1_555 1_555
C6_8 C7_8 1_555 1_555
O16_8 Co11 1_555 1_555
C27_8 C28_8 1_555 1_555
Co1_13 O10_8 1_555 1_555
Co10_2 O12_8 1_555 1_555
Co14_2 O9_8 1_555 1_555
O6_8 C13_8 1_555 1_555
O37_4 C20_8 1_555 1_555
O39_4 C20_8 1_555 1_555
O9_8 C21_8 1_555 1_555
O10_8 C21_8 1_555 1_555
O11_8 Co1_13 1_555 1_555
O12_8 Co1_13 1_555 1_555
O13_8 Co14_2 1_555 1_555
H1_8 O13_8 1_555 1_555
H2_8 O13_8 1_555 1_555
O14_8 Co14_2 1_555 1_555
H6_8 C9_8 1_555 1_555
H7_8 C9_8 1_555 1_555
C10_8 C9_8 1_555 1_555
H8_8 C10_8 1_555 1_555
H9_8 C10_8 1_555 1_555
C11_8 C10_8 1_555 1_555
H10_8 C11_8 1_555 1_555
H11_8 C11_8 1_555 1_555
C12_8 C11_8 1_555 1_555
H12_8 C12_8 1_555 1_555
H13_8 C12_8 1_555 1_555
C13_8 C12_8 1_555 1_555
H14_8 C13_8 1_555 1_555
H15_8 C13_8 1_555 1_555
C14_8 O6_8 1_555 1_555
C15_8 C14_8 1_555 1_555
H16_8 C15_8 1_555 1_555
C16_8 C15_8 1_555 1_555
C17_8 C16_8 1_555 1_555
H17_8 C17_8 1_555 1_555
C18_8 C17_8 1_555 1_555
C19_8 C14_8 1_555 1_555
H18_8 C19_8 1_555 1_555
C20_8 C18_8 1_555 1_555
C21_8 C16_8 1_555 1_555
Co11 O11_8 1_555 1_555
Co15 O23_8 1_555 1_555
O20_8 C34_8 1_555 1_555
O38_2 C41_8 1_555 1_555
O40_2 C41_8 1_555 1_555
O23_8 C42_8 1_555 1_555
O24_8 Co1_13 1_555 1_555
O25_8 Co1_13 1_555 1_555
O26_8 Co1_13 1_555 1_555
O27_8 Co15 1_555 1_555
H19_8 O27_8 1_555 1_555
H20_8 O27_8 1_555 1_555
O28_8 Co15 1_555 1_555
H24_8 C30_8 1_555 1_555
H25_8 C30_8 1_555 1_555
C31_8 C30_8 1_555 1_555
H26_8 C31_8 1_555 1_555
H27_8 C31_8 1_555 1_555
C32_8 C31_8 1_555 1_555
H28_8 C32_8 1_555 1_555
H29_8 C32_8 1_555 1_555
C33_8 C32_8 1_555 1_555
H30_8 C33_8 1_555 1_555
H31_8 C33_8 1_555 1_555
C34_8 C33_8 1_555 1_555
H32_8 C34_8 1_555 1_555
H33_8 C34_8 1_555 1_555
C35_8 O20_8 1_555 1_555
C36_8 C35_8 1_555 1_555
H34_8 C36_8 1_555 1_555
C37_8 C36_8 1_555 1_555
C38_8 C37_8 1_555 1_555
H35_8 C38_8 1_555 1_555
C39_8 C38_8 1_555 1_555
C40_8 C35_8 1_555 1_555
H36_8 C40_8 1_555 1_555
C41_8 C39_8 1_555 1_555
C42_8 O24_8 1_555 1_555
Co10_2 O25_8 1_555 1_555
Co14_2 O12_8 1_555 1_555
C18_8 C19_8 1_555 1_555
Co11 O26_8 1_555 1_555
Co15 O26_8 1_555 1_555
C37_8 C42_8 1_555 1_555
C39_8 C40_8 1_555 1_555
O14_8 H37_8 1_555 1_555
O14_8 H38_8 1_555 1_555
O28_8 H39_8 1_555 1_555
O28_8 H40_8 1_555 1_555

#END
