
###############################################################################
#
# This file contains modified crystal structure data generated from the
# MOF subset of the Cambridge Structural Database (CSD) v543 
# hosted by the Cambridge Crystallographic Data Centre (CCDC).
#
# This work is licensed under the Creative Commons
# Attribution-NonCommercial-ShareAlike 4.0 International License.
# To view a copy of this license, visit
# http://creativecommons.org/licenses/by-nc-sa/4.0/
# or send a letter to
# Creative Commons, PO Box 1866, Mountain View, CA 94042, USA.
#
# CIF created using the CSD Python API on 29 September 2022
# The structure has been converted into the P1 space group
# The structure has a 3D framework
# The original CSD entry XULSED is in the monoclinic crystal system
# The framework has been calculated to contain at least 10.0% void space
# The void calculation uses a probe of radius 1.32A, grid spacing 0.4
#
###############################################################################

data_XULSED
_chemical_formula_moiety         '(C144 H104 Cu8 N24 O32)n'
_symmetry_cell_setting           triclinic
_symmetry_space_group_name_H-M   'P 1'
_symmetry_Int_Tables_number      1
_space_group_name_Hall           'P 1'
loop_
_symmetry_equiv_pos_site_id
_symmetry_equiv_pos_as_xyz
1 x,y,z
_cell_length_a                   16.1570(18)
_cell_length_b                   11.5994(13)
_cell_length_c                   19.921(2)
_cell_angle_alpha                90
_cell_angle_beta                 102.762(2)
_cell_angle_gamma                90
_cell_volume                     3641.19
loop_
_atom_site_label
_atom_site_type_symbol
_atom_site_fract_x
_atom_site_fract_y
_atom_site_fract_z
Cu1 Cu 0.16904(3) 0.24772(5) 0.06190(2)
O1 O 0.07451(16) 0.1558(2) 0.08498(13)
N1 N 0.25558(19) 0.1765(3) 0.14027(16)
N2 N 0.5844(2) 0.1780(3) 0.48322(16)
N3 N 0.4168(2) 0.0307(3) 0.31368(18)
O2 O 0.07046(17) 0.2959(2) 0.15999(15)
C1 C 0.3658(2) 0.0810(3) 0.25680(19)
C2 C 0.4705(2) 0.0841(3) 0.36891(19)
C3 C 0.3026(2) 0.0151(3) 0.2141(2)
C4 C 0.5371(3) 0.0197(4) 0.4074(2)
C7 C 0.3735(3) 0.1948(4) 0.2370(2)
H5 H 0.4162 0.2415 0.2619
C8 C 0.2500(2) 0.0652(3) 0.1577(2)
H6 H 0.2085 0.0197 0.1303
C9 C 0.4615(3) 0.1965(4) 0.3909(2)
H7 H 0.4172 0.2426 0.3677
C12 C 0.0392(2) 0.2110(3) 0.12608(19)
C13 C 0.5916(3) 0.0687(4) 0.4629(2)
H8 H 0.6357 0.0240 0.4877
C14 C 0.3176(2) 0.2377(4) 0.1805(2)
H9 H 0.3232 0.3147 0.1693
C15 C 0.5189(2) 0.2388(4) 0.4473(2)
H10 H 0.5118 0.3140 0.4612
Cu3 Cu 0.66904(3) 0.25228(5) 0.56190(2)
O9 O 0.23227(17) 0.3914(2) 0.07592(14)
Cu6 Cu 0.33096(3) 0.25228(5) 0.93810(2)
N6 N 0.0844(2) 0.3220(3) 0.98322(16)
O7 O 0.17737(18) 0.0985(2) 0.99421(15)
O8 O 0.26773(17) 0.1086(2) 0.92408(14)
C22 C 0.0371(3) 0.4803(4) 0.9074(2)
H16 H 0.0448 0.5565 0.8956
C29 C 0.2059(2) 0.0651(3) 0.9454(2)
C31 C 0.0916(3) 0.4313(4) 0.9629(2)
H21 H 0.1357 0.4760 0.9877
C33 C 0.0189(2) 0.2612(4) 0.9473(2)
H23 H 0.0118 0.1860 0.9612
N4 N 0.75558(19) 0.3235(3) 0.64027(16)
N8 N 0.9168(2) 0.4693(3) 0.81368(18)
H14 H 0.919(3) 0.5443(17) 0.815(2)
C19 C 0.8658(2) 0.4190(3) 0.75680(19)
C20 C 0.9705(2) 0.4159(3) 0.86891(19)
C21 C 0.8026(2) 0.4849(3) 0.7141(2)
H15 H 0.7961 0.5624 0.7238
C25 C 0.8735(3) 0.3052(4) 0.7370(2)
H18 H 0.9162 0.2585 0.7619
C26 C 0.7500(2) 0.4348(3) 0.6577(2)
H19 H 0.7085 0.4803 0.6303
C27 C 0.9615(3) 0.3035(4) 0.8909(2)
H20 H 0.9172 0.2574 0.8677
C32 C 0.8176(2) 0.2623(4) 0.6805(2)
H22 H 0.8232 0.1853 0.6693
O3 O 0.82263(18) 0.9015(2) 0.00579(15)
O4 O 0.73227(17) 0.8914(2) 0.07592(14)
C11 C 0.7941(2) 0.9349(3) 0.0546(2)
Cu4 Cu 0.66904(3) 0.74772(5) 0.06190(2)
N7 N 0.9156(2) 0.6780(3) 0.01678(16)
Cu2 Cu 0.83096(3) 0.75228(5) 0.93810(2)
O5 O 0.92549(16) 0.8442(2) 0.91502(13)
N5 N 0.74442(19) 0.8235(3) 0.85973(16)
O6 O 0.92954(17) 0.7041(2) 0.84001(15)
O10 O 0.76773(17) 0.6086(2) 0.92408(14)
C30 C 0.9608(2) 0.7890(3) 0.87392(19)
C5 C 0.1652(2) 0.0363(3) 0.4029(2)
C6 C 0.0862(2) 0.0770(3) 0.40934(19)
H4 H 0.0594 0.0435 0.4412
C10 C 0.0472(2) 0.1676(3) 0.36814(19)
C16 C 0.0890(3) 0.2182(4) 0.3221(2)
H11 H 0.0637 0.2796 0.2951
C17 C 0.2055(3) 0.0874(4) 0.3557(2)
H12 H 0.2580 0.0602 0.3509
C18 C 0.1673(3) 0.1796(4) 0.3153(2)
H13 H 0.1945 0.2145 0.2841
N4_2 N 0.24442(19) 0.3235(3) 0.85973(16)
N8_2 N 0.0832(2) 0.4693(3) 0.68632(18)
H14_2 H 0.081(3) 0.5443(17) 0.685(2)
C19_2 C 0.1342(2) 0.4190(3) 0.74320(19)
C20_2 C 0.0295(2) 0.4159(3) 0.63109(19)
C21_2 C 0.1974(2) 0.4849(3) 0.7859(2)
H15_2 H 0.2039 0.5624 0.7762
C25_2 C 0.1265(3) 0.3052(4) 0.7630(2)
H18_2 H 0.0838 0.2585 0.7381
C26_2 C 0.2500(2) 0.4348(3) 0.8423(2)
H19_2 H 0.2915 0.4803 0.8697
C27_2 C 0.0385(3) 0.3035(4) 0.6091(2)
H20_2 H 0.0828 0.2574 0.6323
C32_2 C 0.1824(2) 0.2623(4) 0.8195(2)
H22_2 H 0.1768 0.1853 0.8307
O3_2 O 0.17737(18) 0.9015(2) 0.49421(15)
O4_2 O 0.26773(17) 0.8914(2) 0.42408(14)
C11_2 C 0.2059(2) 0.9349(3) 0.4454(2)
Cu2_2 Cu 0.16904(3) 0.75228(5) 0.56190(2)
Cu4_2 Cu 0.33096(3) 0.74772(5) 0.43810(2)
O5_2 O 0.07451(16) 0.8442(2) 0.58498(13)
N5_2 N 0.25558(19) 0.8235(3) 0.64027(16)
N7_2 N 0.0844(2) 0.6780(3) 0.48322(16)
O6_2 O 0.07046(17) 0.7041(2) 0.65999(15)
O10_2 O 0.23227(17) 0.6086(2) 0.57592(14)
C30_2 C 0.0392(2) 0.7890(3) 0.62608(19)
Cu1_2 Cu 0.83096(3) 0.24772(5) 0.43810(2)
O1_2 O 0.92549(16) 0.1558(2) 0.41502(13)
N1_2 N 0.74442(19) 0.1765(3) 0.35973(16)
N2_2 N 0.4156(2) 0.1780(3) 0.01678(16)
N3_2 N 0.5832(2) 0.0307(3) 0.18632(18)
O2_2 O 0.92954(17) 0.2959(2) 0.34001(15)
C1_2 C 0.6342(2) 0.0810(3) 0.24320(19)
C2_2 C 0.5295(2) 0.0841(3) 0.13109(19)
C3_2 C 0.6974(2) 0.0151(3) 0.2859(2)
C4_2 C 0.4629(3) 0.0197(4) 0.0926(2)
C7_2 C 0.6265(3) 0.1948(4) 0.2630(2)
H5_2 H 0.5838 0.2415 0.2381
C8_2 C 0.7500(2) 0.0652(3) 0.3423(2)
H6_2 H 0.7915 0.0197 0.3697
C9_2 C 0.5385(3) 0.1965(4) 0.1091(2)
H7_2 H 0.5828 0.2426 0.1323
C12_2 C 0.9608(2) 0.2110(3) 0.37392(19)
C13_2 C 0.4084(3) 0.0687(4) 0.0371(2)
H8_2 H 0.3643 0.0240 0.0123
C14_2 C 0.6824(2) 0.2377(4) 0.3195(2)
H9_2 H 0.6768 0.3147 0.3307
C15_2 C 0.4811(2) 0.2388(4) 0.0527(2)
H10_2 H 0.4882 0.3140 0.0388
N6_2 N 0.9156(2) 0.3220(3) 0.51678(16)
O7_2 O 0.82263(18) 0.0985(2) 0.50579(15)
O8_2 O 0.73227(17) 0.1086(2) 0.57592(14)
O9_2 O 0.76773(17) 0.3914(2) 0.42408(14)
C22_2 C 0.9629(3) 0.4803(4) 0.5926(2)
H16_2 H 0.9552 0.5565 0.6044
C29_2 C 0.7941(2) 0.0651(3) 0.5546(2)
C31_2 C 0.9084(3) 0.4313(4) 0.5371(2)
H21_2 H 0.8643 0.4760 0.5123
C33_2 C 0.9811(2) 0.2612(4) 0.5527(2)
H23_2 H 0.9882 0.1860 0.5388
H1 H 0.581(3) 0.9557(17) 0.185(2)
H2 H 0.7039 0.9376 0.2762
H3 H 0.4552 0.9435 0.1044
C23 C 0.8348(2) 0.9637(3) 0.5971(2)
C24 C 0.9138(2) 0.9230(3) 0.59066(19)
H17 H 0.9406 0.9565 0.5588
C28 C 0.9528(2) 0.8324(3) 0.63186(19)
C34 C 0.9110(3) 0.7818(4) 0.6779(2)
H24 H 0.9363 0.7204 0.7049
C35 C 0.7945(3) 0.9126(4) 0.6443(2)
H25 H 0.7420 0.9398 0.6491
C36 C 0.8327(3) 0.8204(4) 0.6847(2)
H26 H 0.8055 0.7855 0.7159
C4_3 C 0.0371(3) 0.5197(4) 0.4074(2)
H3_2 H 0.0448 0.4435 0.3956
C13_3 C 0.0916(3) 0.5687(4) 0.4629(2)
H8_3 H 0.1357 0.5240 0.4877
C15_3 C 0.0189(2) 0.7388(4) 0.4473(2)
H10_3 H 0.0118 0.8140 0.4612
H14_3 H 0.419(3) 0.0443(17) 0.815(2)
H15_3 H 0.2961 0.0624 0.7238
H16_3 H 0.5448 0.0565 0.8956
O1_3 O 0.57451(16) 0.6558(2) 0.08498(13)
N1_3 N 0.75558(19) 0.6765(3) 0.14027(16)
N3_3 N 0.9168(2) 0.5307(3) 0.31368(18)
H1_2 H 0.919(3) 0.4557(17) 0.315(2)
O2_3 O 0.57046(17) 0.7959(2) 0.15999(15)
O3_3 O 0.32263(18) 0.4015(2) 0.00579(15)
C1_3 C 0.8658(2) 0.5810(3) 0.25680(19)
C2_3 C 0.9705(2) 0.5841(3) 0.36891(19)
C3_3 C 0.8026(2) 0.5151(3) 0.2141(2)
H2_2 H 0.7961 0.4376 0.2238
C5_2 C 0.3348(2) 0.5363(3) 0.0971(2)
C6_2 C 0.4138(2) 0.5770(3) 0.09066(19)
H4_2 H 0.4406 0.5435 0.0588
C7_3 C 0.8735(3) 0.6948(4) 0.2370(2)
H5_3 H 0.9162 0.7415 0.2619
C8_3 C 0.7500(2) 0.5652(3) 0.1577(2)
H6_3 H 0.7085 0.5197 0.1303
C9_3 C 0.9615(3) 0.6965(4) 0.3909(2)
H7_3 H 0.9172 0.7426 0.3677
C10_2 C 0.4528(2) 0.6676(3) 0.13186(19)
C11_3 C 0.2941(2) 0.4349(3) 0.0546(2)
C12_3 C 0.5392(2) 0.7110(3) 0.12608(19)
C14_3 C 0.8176(2) 0.7377(4) 0.1805(2)
H9_3 H 0.8232 0.8147 0.1693
C16_2 C 0.4110(3) 0.7182(4) 0.1779(2)
H11_2 H 0.4363 0.7796 0.2049
C17_2 C 0.2945(3) 0.5874(4) 0.1443(2)
H12_2 H 0.2420 0.5602 0.1491
C18_2 C 0.3327(3) 0.6796(4) 0.1847(2)
H13_2 H 0.3055 0.7145 0.2159
O5_3 O 0.42549(16) 0.3442(2) 0.91502(13)
N6_3 N 0.5844(2) 0.8220(3) 0.98322(16)
N8_3 N 0.4168(2) 0.9693(3) 0.81368(18)
O6_3 O 0.42954(17) 0.2041(2) 0.84001(15)
O7_3 O 0.67737(18) 0.5985(2) 0.99421(15)
C19_3 C 0.3658(2) 0.9190(3) 0.75680(19)
C20_3 C 0.4705(2) 0.9159(3) 0.86891(19)
C21_3 C 0.3026(2) 0.9849(3) 0.7141(2)
C22_3 C 0.5371(3) 0.9803(4) 0.9074(2)
C23_2 C 0.6652(2) 0.4637(3) 0.9029(2)
C24_2 C 0.5862(2) 0.4230(3) 0.90934(19)
H17_2 H 0.5594 0.4565 0.9412
C25_3 C 0.3735(3) 0.8052(4) 0.7370(2)
H18_3 H 0.4162 0.7585 0.7619
C26_3 C 0.2500(2) 0.9348(3) 0.6577(2)
H19_3 H 0.2085 0.9803 0.6303
C27_3 C 0.4615(3) 0.8035(4) 0.8909(2)
H20_3 H 0.4172 0.7574 0.8677
C28_2 C 0.5472(2) 0.3324(3) 0.86814(19)
C29_3 C 0.7059(2) 0.5651(3) 0.9454(2)
C30_3 C 0.4608(2) 0.2890(3) 0.87392(19)
C31_3 C 0.5916(3) 0.9313(4) 0.9629(2)
H21_3 H 0.6357 0.9760 0.9877
C32_3 C 0.3176(2) 0.7623(4) 0.6805(2)
H22_3 H 0.3232 0.6853 0.6693
C33_3 C 0.5189(2) 0.7612(4) 0.9473(2)
H23_3 H 0.5118 0.6860 0.9612
C34_2 C 0.5890(3) 0.2818(4) 0.8221(2)
H24_2 H 0.5637 0.2204 0.7951
C35_2 C 0.7055(3) 0.4126(4) 0.8557(2)
H25_2 H 0.7580 0.4398 0.8509
C36_2 C 0.6673(3) 0.3204(4) 0.8153(2)
H26_2 H 0.6945 0.2855 0.7841
O1_4 O 0.42549(16) 0.6558(2) 0.41502(13)
N1_4 N 0.24442(19) 0.6765(3) 0.35973(16)
N3_4 N 0.0832(2) 0.5307(3) 0.18632(18)
H1_3 H 0.081(3) 0.4557(17) 0.185(2)
O2_4 O 0.42954(17) 0.7959(2) 0.34001(15)
O3_4 O 0.67737(18) 0.4015(2) 0.49421(15)
C1_4 C 0.1342(2) 0.5810(3) 0.24320(19)
C2_4 C 0.0295(2) 0.5841(3) 0.13109(19)
C3_4 C 0.1974(2) 0.5151(3) 0.2859(2)
H2_3 H 0.2039 0.4376 0.2762
C5_3 C 0.6652(2) 0.5363(3) 0.4029(2)
C6_3 C 0.5862(2) 0.5770(3) 0.40934(19)
H4_3 H 0.5594 0.5435 0.4412
C7_4 C 0.1265(3) 0.6948(4) 0.2630(2)
H5_4 H 0.0838 0.7415 0.2381
C8_4 C 0.2500(2) 0.5652(3) 0.3423(2)
H6_4 H 0.2915 0.5197 0.3697
C9_4 C 0.0385(3) 0.6965(4) 0.1091(2)
H7_4 H 0.0828 0.7426 0.1323
C10_3 C 0.5472(2) 0.6676(3) 0.36814(19)
C11_4 C 0.7059(2) 0.4349(3) 0.4454(2)
C12_4 C 0.4608(2) 0.7110(3) 0.37392(19)
C14_4 C 0.1824(2) 0.7377(4) 0.3195(2)
H9_4 H 0.1768 0.8147 0.3307
C16_3 C 0.5890(3) 0.7182(4) 0.3221(2)
H11_3 H 0.5637 0.7796 0.2951
C17_3 C 0.7055(3) 0.5874(4) 0.3557(2)
H12_3 H 0.7580 0.5602 0.3509
C18_3 C 0.6673(3) 0.6796(4) 0.3153(2)
H13_3 H 0.6945 0.7145 0.2841
O5_4 O 0.57451(16) 0.3442(2) 0.58498(13)
N6_4 N 0.4156(2) 0.8220(3) 0.51678(16)
N8_4 N 0.5832(2) 0.9693(3) 0.68632(18)
O6_4 O 0.57046(17) 0.2041(2) 0.65999(15)
O7_4 O 0.32263(18) 0.5985(2) 0.50579(15)
C19_4 C 0.6342(2) 0.9190(3) 0.74320(19)
C20_4 C 0.5295(2) 0.9159(3) 0.63109(19)
C21_4 C 0.6974(2) 0.9849(3) 0.7859(2)
C22_4 C 0.4629(3) 0.9803(4) 0.5926(2)
C23_3 C 0.3348(2) 0.4637(3) 0.5971(2)
C24_3 C 0.4138(2) 0.4230(3) 0.59066(19)
H17_3 H 0.4406 0.4565 0.5588
C25_4 C 0.6265(3) 0.8052(4) 0.7630(2)
H18_4 H 0.5838 0.7585 0.7381
C26_4 C 0.7500(2) 0.9348(3) 0.8423(2)
H19_4 H 0.7915 0.9803 0.8697
C27_4 C 0.5385(3) 0.8035(4) 0.6091(2)
H20_4 H 0.5828 0.7574 0.6323
C28_3 C 0.4528(2) 0.3324(3) 0.63186(19)
C29_4 C 0.2941(2) 0.5651(3) 0.5546(2)
C30_4 C 0.5392(2) 0.2890(3) 0.62608(19)
C31_4 C 0.4084(3) 0.9313(4) 0.5371(2)
H21_4 H 0.3643 0.9760 0.5123
C32_4 C 0.6824(2) 0.7623(4) 0.8195(2)
H22_4 H 0.6768 0.6853 0.8307
C33_4 C 0.4811(2) 0.7612(4) 0.5527(2)
H23_4 H 0.4882 0.6860 0.5388
C34_3 C 0.4110(3) 0.2818(4) 0.6779(2)
H24_3 H 0.4363 0.2204 0.7049
C35_3 C 0.2945(3) 0.4126(4) 0.6443(2)
H25_3 H 0.2420 0.4398 0.6491
C36_3 C 0.3327(3) 0.3204(4) 0.6847(2)
H26_3 H 0.3055 0.2855 0.7159
C4_4 C 0.9629(3) 0.5197(4) 0.0926(2)
H3_3 H 0.9552 0.4435 0.1044
C13_4 C 0.9084(3) 0.5687(4) 0.0371(2)
H8_4 H 0.8643 0.5240 0.0123
C15_4 C 0.9811(2) 0.7388(4) 0.0527(2)
H10_4 H 0.9882 0.8140 0.0388
H1_4 H 0.419(3) 0.9557(17) 0.315(2)
H2_4 H 0.2961 0.9376 0.2238
H3_4 H 0.5448 0.9435 0.3956
C23_4 C 0.1652(2) 0.9637(3) 0.9029(2)
C24_4 C 0.0862(2) 0.9230(3) 0.90934(19)
H17_4 H 0.0594 0.9565 0.9412
C28_4 C 0.0472(2) 0.8324(3) 0.86814(19)
C34_4 C 0.0890(3) 0.7818(4) 0.8221(2)
H24_4 H 0.0637 0.7204 0.7951
C35_4 C 0.2055(3) 0.9126(4) 0.8557(2)
H25_4 H 0.2580 0.9398 0.8509
C36_4 C 0.1673(3) 0.8204(4) 0.8153(2)
H26_4 H 0.1945 0.7855 0.7841
C5_4 C 0.8348(2) 0.0363(3) 0.0971(2)
C6_4 C 0.9138(2) 0.0770(3) 0.09066(19)
H4_4 H 0.9406 0.0435 0.0588
C10_4 C 0.9528(2) 0.1676(3) 0.13186(19)
C16_4 C 0.9110(3) 0.2182(4) 0.1779(2)
H11_4 H 0.9363 0.2796 0.2049
C17_4 C 0.7945(3) 0.0874(4) 0.1443(2)
H12_4 H 0.7420 0.0602 0.1491
C18_4 C 0.8327(3) 0.1796(4) 0.1847(2)
H13_4 H 0.8055 0.2145 0.2159
H14_4 H 0.581(3) 0.0443(17) 0.685(2)
H15_4 H 0.7039 0.0624 0.7762
H16_4 H 0.4552 0.0565 0.6044
loop_
_geom_bond_atom_site_label_1
_geom_bond_atom_site_label_2
_geom_bond_site_symmetry_1
_geom_bond_site_symmetry_2
Cu1 O1 1_555 1_555
O1 C12 1_555 1_555
N1 Cu1 1_555 1_555
N2 C13 1_555 1_555
O2 C12 1_555 1_555
C1 N3 1_555 1_555
C2 N3 1_555 1_555
C3 C1 1_555 1_555
C4 C2 1_555 1_555
C7 C1 1_555 1_555
H5 C7 1_555 1_555
C8 N1 1_555 1_555
H6 C8 1_555 1_555
C9 C2 1_555 1_555
H7 C9 1_555 1_555
C13 C4 1_555 1_555
H8 C13 1_555 1_555
C14 N1 1_555 1_555
H9 C14 1_555 1_555
C15 N2 1_555 1_555
H10 C15 1_555 1_555
Cu3 N2 1_555 1_555
O9 Cu1 1_555 1_555
C3 C8 1_555 1_555
C7 C14 1_555 1_555
C9 C15 1_555 1_555
Cu6 O8 1_555 1_555
O8 C29 1_555 1_555
H16 C22 1_555 1_555
C29 O7 1_555 1_555
C31 N6 1_555 1_555
H21 C31 1_555 1_555
C33 N6 1_555 1_555
H23 C33 1_555 1_555
C22 C31 1_555 1_555
Cu3 N4 1_555 1_555
N4 C26 1_555 1_555
N8 H14 1_555 1_555
C19 N8 1_555 1_555
C20 N8 1_555 1_555
C21 C19 1_555 1_555
H15 C21 1_555 1_555
C25 C19 1_555 1_555
H18 C25 1_555 1_555
C26 C21 1_555 1_555
H19 C26 1_555 1_555
C27 C20 1_555 1_555
H20 C27 1_555 1_555
C32 N4 1_555 1_555
H22 C32 1_555 1_555
C25 C32 1_555 1_555
O3 C11 1_555 1_555
O4 C11 1_555 1_555
Cu4 O4 1_555 1_555
O5 Cu2 1_555 1_555
N5 Cu2 1_555 1_555
O6 C30 1_555 1_555
O10 Cu2 1_555 1_555
C30 O5 1_555 1_555
C5 C6 1_555 1_555
C6 H4 1_555 1_555
C10 C6 1_555 1_555
C16 C10 1_555 1_555
H11 C16 1_555 1_555
C17 C5 1_555 1_555
H12 C17 1_555 1_555
C18 C16 1_555 1_555
H13 C18 1_555 1_555
Cu6 N4_2 1_555 1_555
N4_2 C26_2 1_555 1_555
N8_2 H14_2 1_555 1_555
C19_2 N8_2 1_555 1_555
C20_2 N8_2 1_555 1_555
C21_2 C19_2 1_555 1_555
H15_2 C21_2 1_555 1_555
C25_2 C19_2 1_555 1_555
H18_2 C25_2 1_555 1_555
C26_2 C21_2 1_555 1_555
H19_2 C26_2 1_555 1_555
C27_2 C20_2 1_555 1_555
H20_2 C27_2 1_555 1_555
C32_2 N4_2 1_555 1_555
H22_2 C32_2 1_555 1_555
C17 C18 1_555 1_555
C25_2 C32_2 1_555 1_555
O3_2 C11_2 1_555 1_555
O4_2 C11_2 1_555 1_555
Cu2_2 O3_2 1_555 1_555
Cu4_2 O4_2 1_555 1_555
O5_2 Cu2_2 1_555 1_555
N5_2 Cu2_2 1_555 1_555
N7_2 Cu2_2 1_555 1_555
O6_2 C30_2 1_555 1_555
O10_2 Cu2_2 1_555 1_555
C30_2 O5_2 1_555 1_555
Cu1_2 O1_2 1_555 1_555
O1_2 C12_2 1_555 1_555
N1_2 Cu1_2 1_555 1_555
N2_2 C13_2 1_555 1_555
O2_2 C12_2 1_555 1_555
C1_2 N3_2 1_555 1_555
C2_2 N3_2 1_555 1_555
C3_2 C1_2 1_555 1_555
C4_2 C2_2 1_555 1_555
C7_2 C1_2 1_555 1_555
H5_2 C7_2 1_555 1_555
C8_2 N1_2 1_555 1_555
H6_2 C8_2 1_555 1_555
C9_2 C2_2 1_555 1_555
H7_2 C9_2 1_555 1_555
C13_2 C4_2 1_555 1_555
H8_2 C13_2 1_555 1_555
C14_2 N1_2 1_555 1_555
H9_2 C14_2 1_555 1_555
C15_2 N2_2 1_555 1_555
H10_2 C15_2 1_555 1_555
Cu3 O8_2 1_555 1_555
N6_2 Cu1_2 1_555 1_555
O7_2 Cu1_2 1_555 1_555
O8_2 C29_2 1_555 1_555
O9_2 Cu1_2 1_555 1_555
H16_2 C22_2 1_555 1_555
C29_2 O7_2 1_555 1_555
C31_2 N6_2 1_555 1_555
H21_2 C31_2 1_555 1_555
C33_2 N6_2 1_555 1_555
H23_2 C33_2 1_555 1_555
C3_2 C8_2 1_555 1_555
C7_2 C14_2 1_555 1_555
C9_2 C15_2 1_555 1_555
C22_2 C31_2 1_555 1_555
C23 C24 1_555 1_555
C24 H17 1_555 1_555
C28 C24 1_555 1_555
C34 C28 1_555 1_555
H24 C34 1_555 1_555
C35 C23 1_555 1_555
H25 C35 1_555 1_555
C36 C34 1_555 1_555
H26 C36 1_555 1_555
C35 C36 1_555 1_555
N7_2 C13_3 1_555 1_555
H3_2 C4_3 1_555 1_555
C13_3 C4_3 1_555 1_555
H8_3 C13_3 1_555 1_555
C15_3 N7_2 1_555 1_555
H10_3 C15_3 1_555 1_555
Cu4 O1_3 1_555 1_555
O1_3 C12_3 1_555 1_555
N1_3 Cu4 1_555 1_555
N3_3 H1_2 1_555 1_555
O2_3 C12_3 1_555 1_555
O3_3 C11_3 1_555 1_555
C1_3 N3_3 1_555 1_555
C2_3 N3_3 1_555 1_555
C3_3 C1_3 1_555 1_555
H2_2 C3_3 1_555 1_555
O9 C11_3 1_555 1_555
C5_2 C6_2 1_555 1_555
C6_2 H4_2 1_555 1_555
C7_3 C1_3 1_555 1_555
H5_3 C7_3 1_555 1_555
C8_3 N1_3 1_555 1_555
H6_3 C8_3 1_555 1_555
C9_3 C2_3 1_555 1_555
H7_3 C9_3 1_555 1_555
C10_2 C6_2 1_555 1_555
C11_3 C5_2 1_555 1_555
C12_3 C10_2 1_555 1_555
C14_3 N1_3 1_555 1_555
H9_3 C14_3 1_555 1_555
C16_2 C10_2 1_555 1_555
H11_2 C16_2 1_555 1_555
C17_2 C5_2 1_555 1_555
H12_2 C17_2 1_555 1_555
C18_2 C16_2 1_555 1_555
H13_2 C18_2 1_555 1_555
C3_3 C8_3 1_555 1_555
C7_3 C14_3 1_555 1_555
C17_2 C18_2 1_555 1_555
O5_3 Cu6 1_555 1_555
N5_2 C26_3 1_555 1_555
O6_3 C30_3 1_555 1_555
C19_3 N8_3 1_555 1_555
C20_3 N8_3 1_555 1_555
C21_3 C19_3 1_555 1_555
O10 C29_3 1_555 1_555
C22_3 C20_3 1_555 1_555
C23_2 C24_2 1_555 1_555
C24_2 H17_2 1_555 1_555
C25_3 C19_3 1_555 1_555
H18_3 C25_3 1_555 1_555
C26_3 C21_3 1_555 1_555
H19_3 C26_3 1_555 1_555
C27_3 C20_3 1_555 1_555
H20_3 C27_3 1_555 1_555
C28_2 C24_2 1_555 1_555
C29_3 O7_3 1_555 1_555
C30_3 O5_3 1_555 1_555
C31_3 N6_3 1_555 1_555
H21_3 C31_3 1_555 1_555
C32_3 N5_2 1_555 1_555
H22_3 C32_3 1_555 1_555
C33_3 N6_3 1_555 1_555
H23_3 C33_3 1_555 1_555
C34_2 C28_2 1_555 1_555
H24_2 C34_2 1_555 1_555
C35_2 C23_2 1_555 1_555
H25_2 C35_2 1_555 1_555
C36_2 C34_2 1_555 1_555
H26_2 C36_2 1_555 1_555
C22_3 C31_3 1_555 1_555
C23_2 C29_3 1_555 1_555
C25_3 C32_3 1_555 1_555
C27_3 C33_3 1_555 1_555
C28_2 C30_3 1_555 1_555
C35_2 C36_2 1_555 1_555
Cu4_2 O1_4 1_555 1_555
O1_4 C12_4 1_555 1_555
N1_4 Cu4_2 1_555 1_555
N3_4 H1_3 1_555 1_555
O2_4 C12_4 1_555 1_555
O3_4 C11_4 1_555 1_555
C1_4 N3_4 1_555 1_555
C2_4 N3_4 1_555 1_555
C3_4 C1_4 1_555 1_555
H2_3 C3_4 1_555 1_555
O9_2 C11_4 1_555 1_555
C5_3 C6_3 1_555 1_555
C6_3 H4_3 1_555 1_555
C7_4 C1_4 1_555 1_555
H5_4 C7_4 1_555 1_555
C8_4 N1_4 1_555 1_555
H6_4 C8_4 1_555 1_555
C9_4 C2_4 1_555 1_555
H7_4 C9_4 1_555 1_555
C10_3 C6_3 1_555 1_555
C11_4 C5_3 1_555 1_555
C12_4 C10_3 1_555 1_555
C14_4 N1_4 1_555 1_555
H9_4 C14_4 1_555 1_555
C16_3 C10_3 1_555 1_555
H11_3 C16_3 1_555 1_555
C17_3 C5_3 1_555 1_555
H12_3 C17_3 1_555 1_555
C18_3 C16_3 1_555 1_555
H13_3 C18_3 1_555 1_555
Cu3 O3_4 1_555 1_555
O5_4 Cu3 1_555 1_555
N5 C26_4 1_555 1_555
N6_4 Cu4_2 1_555 1_555
O6_4 C30_4 1_555 1_555
O7_4 Cu4_2 1_555 1_555
C19_4 N8_4 1_555 1_555
C20_4 N8_4 1_555 1_555
C21_4 C19_4 1_555 1_555
O10_2 C29_4 1_555 1_555
C22_4 C20_4 1_555 1_555
C23_3 C24_3 1_555 1_555
C24_3 H17_3 1_555 1_555
C25_4 C19_4 1_555 1_555
H18_4 C25_4 1_555 1_555
C26_4 C21_4 1_555 1_555
H19_4 C26_4 1_555 1_555
C27_4 C20_4 1_555 1_555
H20_4 C27_4 1_555 1_555
C28_3 C24_3 1_555 1_555
C29_4 O7_4 1_555 1_555
C30_4 O5_4 1_555 1_555
C31_4 N6_4 1_555 1_555
H21_4 C31_4 1_555 1_555
C32_4 N5 1_555 1_555
H22_4 C32_4 1_555 1_555
C33_4 N6_4 1_555 1_555
H23_4 C33_4 1_555 1_555
C34_3 C28_3 1_555 1_555
H24_3 C34_3 1_555 1_555
C35_3 C23_3 1_555 1_555
H25_3 C35_3 1_555 1_555
C36_3 C34_3 1_555 1_555
H26_3 C36_3 1_555 1_555
C3_4 C8_4 1_555 1_555
C7_4 C14_4 1_555 1_555
C17_3 C18_3 1_555 1_555
C22_4 C31_4 1_555 1_555
C23_3 C29_4 1_555 1_555
C25_4 C32_4 1_555 1_555
C27_4 C33_4 1_555 1_555
C28_3 C30_4 1_555 1_555
C35_3 C36_3 1_555 1_555
N7 C13_4 1_555 1_555
H3_3 C4_4 1_555 1_555
C13_4 C4_4 1_555 1_555
H8_4 C13_4 1_555 1_555
C15_4 N7 1_555 1_555
H10_4 C15_4 1_555 1_555
C23_4 C24_4 1_555 1_555
C24_4 H17_4 1_555 1_555
C28_4 C24_4 1_555 1_555
C34_4 C28_4 1_555 1_555
H24_4 C34_4 1_555 1_555
C35_4 C23_4 1_555 1_555
H25_4 C35_4 1_555 1_555
C36_4 C34_4 1_555 1_555
H26_4 C36_4 1_555 1_555
C35_4 C36_4 1_555 1_555
C5_4 C6_4 1_555 1_555
C6_4 H4_4 1_555 1_555
C10_4 C6_4 1_555 1_555
C16_4 C10_4 1_555 1_555
H11_4 C16_4 1_555 1_555
C17_4 C5_4 1_555 1_555
H12_4 C17_4 1_555 1_555
C18_4 C16_4 1_555 1_555
H13_4 C18_4 1_555 1_555
C17_4 C18_4 1_555 1_555

#END
