
###############################################################################
#
# This file contains modified crystal structure data generated from the
# MOF subset of the Cambridge Structural Database (CSD) v543 
# hosted by the Cambridge Crystallographic Data Centre (CCDC).
#
# This work is licensed under the Creative Commons
# Attribution-NonCommercial-ShareAlike 4.0 International License.
# To view a copy of this license, visit
# http://creativecommons.org/licenses/by-nc-sa/4.0/
# or send a letter to
# Creative Commons, PO Box 1866, Mountain View, CA 94042, USA.
#
# CIF created using the CSD Python API on 29 September 2022
# The structure has been converted into the P1 space group
# The structure has a 3D framework
# The original CSD entry XULSIH is in the monoclinic crystal system
# The framework has been calculated to contain at least 10.0% void space
# The void calculation uses a probe of radius 1.32A, grid spacing 0.4
#
###############################################################################

data_XULSIH
_chemical_formula_moiety         '(C128 H88 Cu4 N24 O32 S8)n'
_symmetry_cell_setting           triclinic
_symmetry_space_group_name_H-M   'P 1'
_symmetry_Int_Tables_number      1
_space_group_name_Hall           'P 1'
loop_
_symmetry_equiv_pos_site_id
_symmetry_equiv_pos_as_xyz
1 x,y,z
_cell_length_a                   17.068(4)
_cell_length_b                   11.446(3)
_cell_length_c                   19.074(5)
_cell_angle_alpha                90
_cell_angle_beta                 102.576(3)
_cell_angle_gamma                90
_cell_volume                     3636.9
loop_
_atom_site_label
_atom_site_type_symbol
_atom_site_fract_x
_atom_site_fract_y
_atom_site_fract_z
Cu1 Cu 0.17266(3) 0.23310(4) 0.07368(2)
O5 O 0.23294(15) 0.0875(2) 0.08783(14)
O6 O 0.08997(16) 0.3419(3) 0.09266(15)
N4 N 0.25699(19) 0.3098(3) 0.15178(17)
S1 S 0.06214(6) 0.53814(9) 0.93489(5)
O1 O 0.19479(18) 0.3756(3) 0.99469(16)
O2 O 0.26706(15) 0.4125(2) 0.91217(14)
N1 N 0.09029(19) 0.1609(3) 0.99226(18)
C1 C 0.0267(3) 0.2251(4) 0.9594(2)
H2 H 0.0209 0.3016 0.9770
C4 C 0.0417(2) 0.0074(4) 0.9088(2)
C5 C 0.0954(2) 0.0527(4) 0.9667(2)
H5 H 0.1387 0.0046 0.9900
C11 C 0.0317(2) 0.6448(4) 0.8714(2)
C12 C 0.0879(2) 0.6653(4) 0.8320(2)
H10 H 0.0816 0.7215 0.7945
C13 C 0.1562(2) 0.5943(4) 0.8528(2)
H11 H 0.2010 0.5968 0.8308
C14 C 0.1506(2) 0.5211(4) 0.9084(2)
C15 C 0.2083(2) 0.4292(4) 0.9427(2)
Cu2 Cu 0.32734(3) 0.26690(4) 0.92632(2)
O3 O 0.93304(18) 0.7866(3) 0.82605(15)
O4 O 0.91003(16) 0.6581(3) 0.90734(15)
N2 N 0.9238(2) 0.0268(4) 0.8161(2)
N3 N 0.75699(19) 0.1902(3) 0.65178(17)
C2 C 0.9700(3) 0.1859(4) 0.9017(2)
H3 H 0.9258 0.2344 0.8809
C3 C 0.9771(2) 0.0751(4) 0.8737(2)
C6 C 0.7534(2) 0.0764(4) 0.6657(2)
H6 H 0.7116 0.0315 0.6371
C7 C 0.8076(3) 0.0203(4) 0.7196(2)
C8 C 0.8696(2) 0.0837(4) 0.7626(2)
C9 C 0.8754(3) 0.2011(4) 0.7467(2)
H8 H 0.9184 0.2472 0.7724
C10 C 0.8178(3) 0.2495(4) 0.6929(2)
H9 H 0.8213 0.3309 0.6842
C16 C 0.9521(2) 0.7017(4) 0.8665(2)
Cu3 Cu 0.82734(3) 0.76690(4) 0.92632(2)
Cu4 Cu 0.67266(3) 0.26690(4) 0.57368(2)
O3_2 O 0.06696(18) 0.7866(3) 0.67395(15)
O4_2 O 0.08997(16) 0.6581(3) 0.59266(15)
N2_2 N 0.0762(2) 0.0268(4) 0.6839(2)
N3_2 N 0.24301(19) 0.1902(3) 0.84822(17)
C2_2 C 0.0300(3) 0.1859(4) 0.5983(2)
H3_2 H 0.0742 0.2344 0.6191
C3_2 C 0.0229(2) 0.0751(4) 0.6263(2)
C6_2 C 0.2466(2) 0.0764(4) 0.8343(2)
H6_2 H 0.2884 0.0315 0.8629
C7_2 C 0.1924(3) 0.0203(4) 0.7804(2)
C8_2 C 0.1304(2) 0.0837(4) 0.7374(2)
C9_2 C 0.1246(3) 0.2011(4) 0.7533(2)
H8_2 H 0.0816 0.2472 0.7276
C10_2 C 0.1822(3) 0.2495(4) 0.8071(2)
H9_2 H 0.1787 0.3309 0.8158
C16_2 C 0.0479(2) 0.7017(4) 0.6335(2)
Cu3_2 Cu 0.17266(3) 0.76690(4) 0.57368(2)
Cu1_2 Cu 0.82734(3) 0.23310(4) 0.42632(2)
S1_2 S 0.93786(6) 0.53814(9) 0.56511(5)
O1_2 O 0.80521(18) 0.3756(3) 0.50531(16)
O2_2 O 0.73294(15) 0.4125(2) 0.58783(14)
N1_2 N 0.90971(19) 0.1609(3) 0.50774(18)
C1_2 C 0.9733(3) 0.2251(4) 0.5406(2)
H2_2 H 0.9791 0.3016 0.5230
C4_2 C 0.9583(2) 0.0074(4) 0.5912(2)
C5_2 C 0.9046(2) 0.0527(4) 0.5333(2)
H5_2 H 0.8613 0.0046 0.5100
C11_2 C 0.9683(2) 0.6448(4) 0.6286(2)
C12_2 C 0.9121(2) 0.6653(4) 0.6680(2)
H10_2 H 0.9184 0.7215 0.7055
C13_2 C 0.8438(2) 0.5943(4) 0.6472(2)
H11_2 H 0.7990 0.5968 0.6692
C14_2 C 0.8494(2) 0.5211(4) 0.5916(2)
C15_2 C 0.7917(2) 0.4292(4) 0.5573(2)
O5_2 O 0.76706(15) 0.0875(2) 0.41217(14)
O6_2 O 0.91003(16) 0.3419(3) 0.40734(15)
N4_2 N 0.74301(19) 0.3098(3) 0.34822(17)
S1_3 S 0.56214(6) 0.03814(9) 0.93489(5)
O3_3 O 0.43304(18) 0.2866(3) 0.82605(15)
O4_3 O 0.41003(16) 0.1581(3) 0.90734(15)
C11_3 C 0.5317(2) 0.1448(4) 0.8714(2)
C12_3 C 0.5879(2) 0.1653(4) 0.8320(2)
H10_3 H 0.5816 0.2215 0.7945
C13_3 C 0.6562(2) 0.0943(4) 0.8528(2)
H11_3 H 0.7010 0.0968 0.8308
C14_3 C 0.6506(2) 0.0211(4) 0.9084(2)
C16_3 C 0.4521(2) 0.2017(4) 0.8665(2)
Cu1_3 Cu 0.67266(3) 0.73310(4) 0.07368(2)
O5_3 O 0.73294(15) 0.5875(2) 0.08783(14)
O6_3 O 0.58997(16) 0.8419(3) 0.09266(15)
N4_3 N 0.75699(19) 0.8098(3) 0.15178(17)
O1_3 O 0.69479(18) 0.8756(3) 0.99469(16)
O2_3 O 0.76706(15) 0.9125(2) 0.91217(14)
N1_3 N 0.59029(19) 0.6609(3) 0.99226(18)
N2_3 N 0.4238(2) 0.5268(4) 0.8161(2)
H1 H 0.426(3) 0.457(5) 0.821(3)
N3_3 N 0.25699(19) 0.6902(3) 0.65178(17)
C1_3 C 0.5267(3) 0.7251(4) 0.9594(2)
H2_3 H 0.5209 0.8016 0.9770
C2_3 C 0.4700(3) 0.6859(4) 0.9017(2)
H3_3 H 0.4258 0.7344 0.8809
C3_3 C 0.4771(2) 0.5751(4) 0.8737(2)
C4_3 C 0.5417(2) 0.5074(4) 0.9088(2)
H4 H 0.5485 0.4303 0.8928
C5_3 C 0.5954(2) 0.5527(4) 0.9667(2)
H5_3 H 0.6387 0.5046 0.9900
C6_3 C 0.2534(2) 0.5764(4) 0.6657(2)
H6_3 H 0.2116 0.5315 0.6371
C7_3 C 0.3076(3) 0.5203(4) 0.7196(2)
H7 H 0.3025 0.4390 0.7273
C8_3 C 0.3696(2) 0.5837(4) 0.7626(2)
C9_3 C 0.3754(3) 0.7011(4) 0.7467(2)
H8_3 H 0.4184 0.7472 0.7724
C10_3 C 0.3178(3) 0.7495(4) 0.6929(2)
H9_3 H 0.3213 0.8309 0.6842
C15_3 C 0.7083(2) 0.9292(4) 0.9427(2)
S1_4 S 0.43786(6) 0.03814(9) 0.56511(5)
O3_4 O 0.56696(18) 0.2866(3) 0.67395(15)
O4_4 O 0.58997(16) 0.1581(3) 0.59266(15)
C11_4 C 0.4683(2) 0.1448(4) 0.6286(2)
C12_4 C 0.4121(2) 0.1653(4) 0.6680(2)
H10_4 H 0.4184 0.2215 0.7055
C13_4 C 0.3438(2) 0.0943(4) 0.6472(2)
H11_4 H 0.2990 0.0968 0.6692
C14_4 C 0.3494(2) 0.0211(4) 0.5916(2)
C16_4 C 0.5479(2) 0.2017(4) 0.6335(2)
Cu1_4 Cu 0.32734(3) 0.73310(4) 0.42632(2)
O1_4 O 0.30521(18) 0.8756(3) 0.50531(16)
O2_4 O 0.23294(15) 0.9125(2) 0.58783(14)
N1_4 N 0.40971(19) 0.6609(3) 0.50774(18)
N2_4 N 0.5762(2) 0.5268(4) 0.6839(2)
H1_2 H 0.574(3) 0.457(5) 0.679(3)
N3_4 N 0.74301(19) 0.6902(3) 0.84822(17)
C1_4 C 0.4733(3) 0.7251(4) 0.5406(2)
H2_4 H 0.4791 0.8016 0.5230
C2_4 C 0.5300(3) 0.6859(4) 0.5983(2)
H3_4 H 0.5742 0.7344 0.6191
C3_4 C 0.5229(2) 0.5751(4) 0.6263(2)
C4_4 C 0.4583(2) 0.5074(4) 0.5912(2)
H4_2 H 0.4515 0.4303 0.6072
C5_4 C 0.4046(2) 0.5527(4) 0.5333(2)
H5_4 H 0.3613 0.5046 0.5100
C6_4 C 0.7466(2) 0.5764(4) 0.8343(2)
H6_4 H 0.7884 0.5315 0.8629
C7_4 C 0.6924(3) 0.5203(4) 0.7804(2)
H7_2 H 0.6975 0.4390 0.7727
C8_4 C 0.6304(2) 0.5837(4) 0.7374(2)
C9_4 C 0.6246(3) 0.7011(4) 0.7533(2)
H8_4 H 0.5816 0.7472 0.7276
C10_4 C 0.6822(3) 0.7495(4) 0.8071(2)
H9_4 H 0.6787 0.8309 0.8158
C15_4 C 0.2917(2) 0.9292(4) 0.5573(2)
O5_4 O 0.26706(15) 0.5875(2) 0.41217(14)
O6_4 O 0.41003(16) 0.8419(3) 0.40734(15)
N4_4 N 0.24301(19) 0.8098(3) 0.34822(17)
O3_5 O 0.06696(18) 0.2134(3) 0.17395(15)
N2_5 N 0.0762(2) 0.9732(4) 0.1839(2)
C2_5 C 0.0300(3) 0.8141(4) 0.0983(2)
H3_5 H 0.0742 0.7656 0.1191
C3_5 C 0.0229(2) 0.9249(4) 0.1263(2)
C6_5 C 0.2466(2) 0.9236(4) 0.3343(2)
H6_5 H 0.2884 0.9685 0.3629
C7_5 C 0.1924(3) 0.9797(4) 0.2804(2)
C8_5 C 0.1304(2) 0.9163(4) 0.2374(2)
C9_5 C 0.1246(3) 0.7989(4) 0.2533(2)
H8_5 H 0.0816 0.7528 0.2276
C10_5 C 0.1822(3) 0.7505(4) 0.3071(2)
H9_5 H 0.1787 0.6691 0.3158
C16_5 C 0.0479(2) 0.2983(4) 0.1335(2)
S1_5 S 0.93786(6) 0.46186(9) 0.06511(5)
O1_5 O 0.80521(18) 0.6244(3) 0.00531(16)
N1_5 N 0.90971(19) 0.8391(3) 0.00774(18)
C1_5 C 0.9733(3) 0.7749(4) 0.0406(2)
H2_5 H 0.9791 0.6984 0.0230
C4_5 C 0.9583(2) 0.9926(4) 0.0912(2)
C5_5 C 0.9046(2) 0.9473(4) 0.0333(2)
H5_5 H 0.8613 0.9954 0.0100
C11_5 C 0.9683(2) 0.3552(4) 0.1286(2)
C12_5 C 0.9121(2) 0.3347(4) 0.1680(2)
H10_5 H 0.9184 0.2785 0.2055
C13_5 C 0.8438(2) 0.4057(4) 0.1472(2)
H11_5 H 0.7990 0.4032 0.1692
C14_5 C 0.8494(2) 0.4789(4) 0.0916(2)
C15_5 C 0.7917(2) 0.5708(4) 0.0573(2)
S1_6 S 0.06214(6) 0.46186(9) 0.43489(5)
O1_6 O 0.19479(18) 0.6244(3) 0.49469(16)
N1_6 N 0.09029(19) 0.8391(3) 0.49226(18)
C1_6 C 0.0267(3) 0.7749(4) 0.4594(2)
H2_6 H 0.0209 0.6984 0.4770
C4_6 C 0.0417(2) 0.9926(4) 0.4088(2)
C5_6 C 0.0954(2) 0.9473(4) 0.4667(2)
H5_6 H 0.1387 0.9954 0.4900
C11_6 C 0.0317(2) 0.3552(4) 0.3714(2)
C12_6 C 0.0879(2) 0.3347(4) 0.3320(2)
H10_6 H 0.0816 0.2785 0.2945
C13_6 C 0.1562(2) 0.4057(4) 0.3528(2)
H11_6 H 0.2010 0.4032 0.3308
C14_6 C 0.1506(2) 0.4789(4) 0.4084(2)
C15_6 C 0.2083(2) 0.5708(4) 0.4427(2)
O3_6 O 0.93304(18) 0.2134(3) 0.32605(15)
N2_6 N 0.9238(2) 0.9732(4) 0.3161(2)
C2_6 C 0.9700(3) 0.8141(4) 0.4017(2)
H3_6 H 0.9258 0.7656 0.3809
C3_6 C 0.9771(2) 0.9249(4) 0.3737(2)
C6_6 C 0.7534(2) 0.9236(4) 0.1657(2)
H6_6 H 0.7116 0.9685 0.1371
C7_6 C 0.8076(3) 0.9797(4) 0.2196(2)
C8_6 C 0.8696(2) 0.9163(4) 0.2626(2)
C9_6 C 0.8754(3) 0.7989(4) 0.2467(2)
H8_6 H 0.9184 0.7528 0.2724
C10_6 C 0.8178(3) 0.7505(4) 0.1929(2)
H9_6 H 0.8213 0.6691 0.1842
C16_6 C 0.9521(2) 0.2983(4) 0.3665(2)
O1_7 O 0.30521(18) 0.1244(3) 0.00531(16)
N1_7 N 0.40971(19) 0.3391(3) 0.00774(18)
N2_7 N 0.5762(2) 0.4732(4) 0.1839(2)
H1_3 H 0.574(3) 0.543(5) 0.179(3)
C1_7 C 0.4733(3) 0.2749(4) 0.0406(2)
H2_7 H 0.4791 0.1984 0.0230
C2_7 C 0.5300(3) 0.3141(4) 0.0983(2)
H3_7 H 0.5742 0.2656 0.1191
C3_7 C 0.5229(2) 0.4249(4) 0.1263(2)
C4_7 C 0.4583(2) 0.4926(4) 0.0912(2)
H4_3 H 0.4515 0.5697 0.1072
C5_7 C 0.4046(2) 0.4473(4) 0.0333(2)
H5_7 H 0.3613 0.4954 0.0100
C6_7 C 0.7466(2) 0.4236(4) 0.3343(2)
H6_7 H 0.7884 0.4685 0.3629
C7_7 C 0.6924(3) 0.4797(4) 0.2804(2)
H7_3 H 0.6975 0.5610 0.2727
C8_7 C 0.6304(2) 0.4163(4) 0.2374(2)
C9_7 C 0.6246(3) 0.2989(4) 0.2533(2)
H8_7 H 0.5816 0.2528 0.2276
C10_7 C 0.6822(3) 0.2505(4) 0.3071(2)
H9_7 H 0.6787 0.1691 0.3158
C15_7 C 0.2917(2) 0.0708(4) 0.0573(2)
S1_7 S 0.43786(6) 0.96186(9) 0.06511(5)
O3_7 O 0.56696(18) 0.7134(3) 0.17395(15)
C11_7 C 0.4683(2) 0.8552(4) 0.1286(2)
C12_7 C 0.4121(2) 0.8347(4) 0.1680(2)
H10_7 H 0.4184 0.7785 0.2055
C13_7 C 0.3438(2) 0.9057(4) 0.1472(2)
H11_7 H 0.2990 0.9032 0.1692
C14_7 C 0.3494(2) 0.9789(4) 0.0916(2)
C16_7 C 0.5479(2) 0.7983(4) 0.1335(2)
O1_8 O 0.69479(18) 0.1244(3) 0.49469(16)
N1_8 N 0.59029(19) 0.3391(3) 0.49226(18)
N2_8 N 0.4238(2) 0.4732(4) 0.3161(2)
H1_4 H 0.426(3) 0.543(5) 0.321(3)
C1_8 C 0.5267(3) 0.2749(4) 0.4594(2)
H2_8 H 0.5209 0.1984 0.4770
C2_8 C 0.4700(3) 0.3141(4) 0.4017(2)
H3_8 H 0.4258 0.2656 0.3809
C3_8 C 0.4771(2) 0.4249(4) 0.3737(2)
C4_8 C 0.5417(2) 0.4926(4) 0.4088(2)
H4_4 H 0.5485 0.5697 0.3928
C5_8 C 0.5954(2) 0.4473(4) 0.4667(2)
H5_8 H 0.6387 0.4954 0.4900
C6_8 C 0.2534(2) 0.4236(4) 0.1657(2)
H6_8 H 0.2116 0.4685 0.1371
C7_8 C 0.3076(3) 0.4797(4) 0.2196(2)
H7_4 H 0.3025 0.5610 0.2273
C8_8 C 0.3696(2) 0.4163(4) 0.2626(2)
C9_8 C 0.3754(3) 0.2989(4) 0.2467(2)
H8_8 H 0.4184 0.2528 0.2724
C10_8 C 0.3178(3) 0.2505(4) 0.1929(2)
H9_8 H 0.3213 0.1691 0.1842
C15_8 C 0.7083(2) 0.0708(4) 0.4427(2)
S1_8 S 0.56214(6) 0.96186(9) 0.43489(5)
O3_8 O 0.43304(18) 0.7134(3) 0.32605(15)
C11_8 C 0.5317(2) 0.8552(4) 0.3714(2)
C12_8 C 0.5879(2) 0.8347(4) 0.3320(2)
H10_8 H 0.5816 0.7785 0.2945
C13_8 C 0.6562(2) 0.9057(4) 0.3528(2)
H11_8 H 0.7010 0.9032 0.3308
C14_8 C 0.6506(2) 0.9789(4) 0.4084(2)
C16_8 C 0.4521(2) 0.7983(4) 0.3665(2)
H4_5 H 0.0485 0.9303 0.8928
H1_5 H 0.926(3) 0.957(5) 0.821(3)
H7_5 H 0.8025 0.9390 0.7273
H1_6 H 0.074(3) 0.957(5) 0.679(3)
H7_6 H 0.1975 0.9390 0.7727
H4_6 H 0.9515 0.9303 0.6072
H1_7 H 0.074(3) 0.043(5) 0.179(3)
H7_7 H 0.1975 0.0610 0.2727
H4_7 H 0.9515 0.0697 0.1072
H4_8 H 0.0485 0.0697 0.3928
H1_8 H 0.926(3) 0.043(5) 0.321(3)
H7_8 H 0.8025 0.0610 0.2273
loop_
_geom_bond_atom_site_label_1
_geom_bond_atom_site_label_2
_geom_bond_site_symmetry_1
_geom_bond_site_symmetry_2
O5 Cu1 1_555 1_555
O6 Cu1 1_555 1_555
N4 Cu1 1_555 1_555
S1 C11 1_555 1_555
O1 C15 1_555 1_555
O2 C15 1_555 1_555
C1 N1 1_555 1_555
H2 C1 1_555 1_555
C5 N1 1_555 1_555
H5 C5 1_555 1_555
C11 C12 1_555 1_555
C12 H10 1_555 1_555
C13 C12 1_555 1_555
H11 C13 1_555 1_555
C14 S1 1_555 1_555
C15 C14 1_555 1_555
Cu2 O2 1_555 1_555
C4 C5 1_555 1_555
C13 C14 1_555 1_555
O3 C16 1_555 1_555
O4 C16 1_555 1_555
N3 C6 1_555 1_555
H3 C2 1_555 1_555
C3 N2 1_555 1_555
C6 H6 1_555 1_555
C7 C6 1_555 1_555
C8 N2 1_555 1_555
C9 C8 1_555 1_555
H8 C9 1_555 1_555
C10 N3 1_555 1_555
H9 C10 1_555 1_555
Cu3 O4 1_555 1_555
Cu4 N3 1_555 1_555
C2 C3 1_555 1_555
C7 C8 1_555 1_555
C9 C10 1_555 1_555
O3_2 C16_2 1_555 1_555
O4_2 C16_2 1_555 1_555
N3_2 C6_2 1_555 1_555
H3_2 C2_2 1_555 1_555
C3_2 N2_2 1_555 1_555
C6_2 H6_2 1_555 1_555
C7_2 C6_2 1_555 1_555
C8_2 N2_2 1_555 1_555
C9_2 C8_2 1_555 1_555
H8_2 C9_2 1_555 1_555
C10_2 N3_2 1_555 1_555
H9_2 C10_2 1_555 1_555
Cu3_2 O4_2 1_555 1_555
Cu2 N3_2 1_555 1_555
C2_2 C3_2 1_555 1_555
C7_2 C8_2 1_555 1_555
C9_2 C10_2 1_555 1_555
Cu1_2 O1_2 1_555 1_555
S1_2 C11_2 1_555 1_555
O1_2 C15_2 1_555 1_555
O2_2 C15_2 1_555 1_555
N1_2 Cu1_2 1_555 1_555
C1_2 N1_2 1_555 1_555
H2_2 C1_2 1_555 1_555
C5_2 N1_2 1_555 1_555
H5_2 C5_2 1_555 1_555
C11_2 C12_2 1_555 1_555
C12_2 H10_2 1_555 1_555
C13_2 C12_2 1_555 1_555
H11_2 C13_2 1_555 1_555
C14_2 S1_2 1_555 1_555
C15_2 C14_2 1_555 1_555
Cu4 O2_2 1_555 1_555
O5_2 Cu1_2 1_555 1_555
O6_2 Cu1_2 1_555 1_555
N4_2 Cu1_2 1_555 1_555
C4_2 C5_2 1_555 1_555
C13_2 C14_2 1_555 1_555
S1_3 C11_3 1_555 1_555
O3_3 C16_3 1_555 1_555
O4_3 C16_3 1_555 1_555
C11_3 C12_3 1_555 1_555
C12_3 H10_3 1_555 1_555
C13_3 C12_3 1_555 1_555
H11_3 C13_3 1_555 1_555
C14_3 S1_3 1_555 1_555
C16_3 C11_3 1_555 1_555
Cu2 O4_3 1_555 1_555
C13_3 C14_3 1_555 1_555
O5_3 Cu1_3 1_555 1_555
O6_3 Cu1_3 1_555 1_555
N4_3 Cu1_3 1_555 1_555
O1_3 C15_3 1_555 1_555
O2_3 C15_3 1_555 1_555
N2_3 H1 1_555 1_555
N3_3 C6_3 1_555 1_555
C1_3 N1_3 1_555 1_555
H2_3 C1_3 1_555 1_555
C2_3 C1_3 1_555 1_555
H3_3 C2_3 1_555 1_555
C3_3 N2_3 1_555 1_555
C4_3 C3_3 1_555 1_555
H4 C4_3 1_555 1_555
C5_3 N1_3 1_555 1_555
H5_3 C5_3 1_555 1_555
C6_3 H6_3 1_555 1_555
C7_3 C6_3 1_555 1_555
H7 C7_3 1_555 1_555
C8_3 N2_3 1_555 1_555
C9_3 C8_3 1_555 1_555
H8_3 C9_3 1_555 1_555
C10_3 N3_3 1_555 1_555
H9_3 C10_3 1_555 1_555
Cu3 O2_3 1_555 1_555
Cu3_2 N3_3 1_555 1_555
C2_3 C3_3 1_555 1_555
C4_3 C5_3 1_555 1_555
C7_3 C8_3 1_555 1_555
C9_3 C10_3 1_555 1_555
S1_4 C11_4 1_555 1_555
O3_4 C16_4 1_555 1_555
O4_4 C16_4 1_555 1_555
C11_4 C12_4 1_555 1_555
C12_4 H10_4 1_555 1_555
C13_4 C12_4 1_555 1_555
H11_4 C13_4 1_555 1_555
C14_4 S1_4 1_555 1_555
C16_4 C11_4 1_555 1_555
Cu4 O4_4 1_555 1_555
C13_4 C14_4 1_555 1_555
Cu1_4 O1_4 1_555 1_555
O1_4 C15_4 1_555 1_555
O2_4 C15_4 1_555 1_555
N1_4 Cu1_4 1_555 1_555
N2_4 H1_2 1_555 1_555
N3_4 C6_4 1_555 1_555
C1_4 N1_4 1_555 1_555
H2_4 C1_4 1_555 1_555
C2_4 C1_4 1_555 1_555
H3_4 C2_4 1_555 1_555
C3_4 N2_4 1_555 1_555
C4_4 C3_4 1_555 1_555
H4_2 C4_4 1_555 1_555
C5_4 N1_4 1_555 1_555
H5_4 C5_4 1_555 1_555
C6_4 H6_4 1_555 1_555
C7_4 C6_4 1_555 1_555
H7_2 C7_4 1_555 1_555
C8_4 N2_4 1_555 1_555
C9_4 C8_4 1_555 1_555
H8_4 C9_4 1_555 1_555
C10_4 N3_4 1_555 1_555
H9_4 C10_4 1_555 1_555
Cu3_2 O2_4 1_555 1_555
Cu3 N3_4 1_555 1_555
O5_4 Cu1_4 1_555 1_555
O6_4 Cu1_4 1_555 1_555
N4_4 Cu1_4 1_555 1_555
C2_4 C3_4 1_555 1_555
C4_4 C5_4 1_555 1_555
C7_4 C8_4 1_555 1_555
C9_4 C10_4 1_555 1_555
O3_5 C16_5 1_555 1_555
O6 C16_5 1_555 1_555
N4_4 C6_5 1_555 1_555
H3_5 C2_5 1_555 1_555
C3_5 N2_5 1_555 1_555
C6_5 H6_5 1_555 1_555
C7_5 C6_5 1_555 1_555
C8_5 N2_5 1_555 1_555
C9_5 C8_5 1_555 1_555
H8_5 C9_5 1_555 1_555
C10_5 N4_4 1_555 1_555
H9_5 C10_5 1_555 1_555
C2_5 C3_5 1_555 1_555
C7_5 C8_5 1_555 1_555
C9_5 C10_5 1_555 1_555
S1_5 C11_5 1_555 1_555
O1_5 C15_5 1_555 1_555
O5_3 C15_5 1_555 1_555
C1_5 N1_5 1_555 1_555
H2_5 C1_5 1_555 1_555
C5_5 N1_5 1_555 1_555
H5_5 C5_5 1_555 1_555
C11_5 C12_5 1_555 1_555
C12_5 H10_5 1_555 1_555
C13_5 C12_5 1_555 1_555
H11_5 C13_5 1_555 1_555
C14_5 S1_5 1_555 1_555
C15_5 C14_5 1_555 1_555
C4_5 C5_5 1_555 1_555
C13_5 C14_5 1_555 1_555
Cu3_2 O1_6 1_555 1_555
S1_6 C11_6 1_555 1_555
O1_6 C15_6 1_555 1_555
O5_4 C15_6 1_555 1_555
N1_6 Cu3_2 1_555 1_555
C1_6 N1_6 1_555 1_555
H2_6 C1_6 1_555 1_555
C5_6 N1_6 1_555 1_555
H5_6 C5_6 1_555 1_555
C11_6 C12_6 1_555 1_555
C12_6 H10_6 1_555 1_555
C13_6 C12_6 1_555 1_555
H11_6 C13_6 1_555 1_555
C14_6 S1_6 1_555 1_555
C15_6 C14_6 1_555 1_555
C4_6 C5_6 1_555 1_555
C13_6 C14_6 1_555 1_555
O3_6 C16_6 1_555 1_555
O6_2 C16_6 1_555 1_555
N4_3 C6_6 1_555 1_555
H3_6 C2_6 1_555 1_555
C3_6 N2_6 1_555 1_555
C6_6 H6_6 1_555 1_555
C7_6 C6_6 1_555 1_555
C8_6 N2_6 1_555 1_555
C9_6 C8_6 1_555 1_555
H8_6 C9_6 1_555 1_555
C10_6 N4_3 1_555 1_555
H9_6 C10_6 1_555 1_555
C2_6 C3_6 1_555 1_555
C7_6 C8_6 1_555 1_555
C9_6 C10_6 1_555 1_555
O1_7 C15_7 1_555 1_555
O5 C15_7 1_555 1_555
N2_7 H1_3 1_555 1_555
N4_2 C6_7 1_555 1_555
C1_7 N1_7 1_555 1_555
H2_7 C1_7 1_555 1_555
C2_7 C1_7 1_555 1_555
H3_7 C2_7 1_555 1_555
C3_7 N2_7 1_555 1_555
C4_7 C3_7 1_555 1_555
H4_3 C4_7 1_555 1_555
C5_7 N1_7 1_555 1_555
H5_7 C5_7 1_555 1_555
C6_7 H6_7 1_555 1_555
C7_7 C6_7 1_555 1_555
H7_3 C7_7 1_555 1_555
C8_7 N2_7 1_555 1_555
C9_7 C8_7 1_555 1_555
H8_7 C9_7 1_555 1_555
C10_7 N4_2 1_555 1_555
H9_7 C10_7 1_555 1_555
C2_7 C3_7 1_555 1_555
C4_7 C5_7 1_555 1_555
C7_7 C8_7 1_555 1_555
C9_7 C10_7 1_555 1_555
S1_7 C11_7 1_555 1_555
O3_7 C16_7 1_555 1_555
O6_3 C16_7 1_555 1_555
C11_7 C12_7 1_555 1_555
C12_7 H10_7 1_555 1_555
C13_7 C12_7 1_555 1_555
H11_7 C13_7 1_555 1_555
C14_7 S1_7 1_555 1_555
C16_7 C11_7 1_555 1_555
C13_7 C14_7 1_555 1_555
Cu4 O1_8 1_555 1_555
O1_8 C15_8 1_555 1_555
O5_2 C15_8 1_555 1_555
N1_8 Cu4 1_555 1_555
N2_8 H1_4 1_555 1_555
N4 C6_8 1_555 1_555
C1_8 N1_8 1_555 1_555
H2_8 C1_8 1_555 1_555
C2_8 C1_8 1_555 1_555
H3_8 C2_8 1_555 1_555
C3_8 N2_8 1_555 1_555
C4_8 C3_8 1_555 1_555
H4_4 C4_8 1_555 1_555
C5_8 N1_8 1_555 1_555
H5_8 C5_8 1_555 1_555
C6_8 H6_8 1_555 1_555
C7_8 C6_8 1_555 1_555
H7_4 C7_8 1_555 1_555
C8_8 N2_8 1_555 1_555
C9_8 C8_8 1_555 1_555
H8_8 C9_8 1_555 1_555
C10_8 N4 1_555 1_555
H9_8 C10_8 1_555 1_555
C2_8 C3_8 1_555 1_555
C4_8 C5_8 1_555 1_555
C7_8 C8_8 1_555 1_555
C9_8 C10_8 1_555 1_555
S1_8 C11_8 1_555 1_555
O3_8 C16_8 1_555 1_555
O6_4 C16_8 1_555 1_555
C11_8 C12_8 1_555 1_555
C12_8 H10_8 1_555 1_555
C13_8 C12_8 1_555 1_555
H11_8 C13_8 1_555 1_555
C14_8 S1_8 1_555 1_555
C16_8 C11_8 1_555 1_555
C13_8 C14_8 1_555 1_555

#END
