
###############################################################################
#
# This file contains modified crystal structure data generated from the
# MOF subset of the Cambridge Structural Database (CSD) v543 
# hosted by the Cambridge Crystallographic Data Centre (CCDC).
#
# This work is licensed under the Creative Commons
# Attribution-NonCommercial-ShareAlike 4.0 International License.
# To view a copy of this license, visit
# http://creativecommons.org/licenses/by-nc-sa/4.0/
# or send a letter to
# Creative Commons, PO Box 1866, Mountain View, CA 94042, USA.
#
# CIF created using the CSD Python API on 29 September 2022
# The structure has been converted into the P1 space group
# The structure has a 3D framework
# The original CSD entry XUMFAN is in the monoclinic crystal system
# The framework has been calculated to contain at least 10.0% void space
# The void calculation uses a probe of radius 1.32A, grid spacing 0.4
#
###############################################################################

data_XUMFAN
_chemical_formula_moiety         '(C80 H80 Cl4 Cu8 N16 O24 S12)n'
_symmetry_cell_setting           triclinic
_symmetry_space_group_name_H-M   'P 1'
_symmetry_Int_Tables_number      1
_space_group_name_Hall           'P 1'
loop_
_symmetry_equiv_pos_site_id
_symmetry_equiv_pos_as_xyz
1 x,y,z
_cell_length_a                   12.4552(10)
_cell_length_b                   22.3421(16)
_cell_length_c                   11.4363(9)
_cell_angle_alpha                90
_cell_angle_beta                 111.832(2)
_cell_angle_gamma                90
_cell_volume                     2954.19
loop_
_atom_site_label
_atom_site_type_symbol
_atom_site_fract_x
_atom_site_fract_y
_atom_site_fract_z
O7 O 0.0338(3) 0.41820(14) 0.0631(3)
H23 H 0.078(4) 0.4450(19) 0.056(6)
N7 N 0.2057(3) 0.33245(15) 0.0816(3)
Cl1 Cl 0.0487(2) 0.78198(16) 0.4134(3)
H1 H 0.034(2) 0.931(3) 0.455(6)
Cu5 Cu 0.04339(4) 0.34686(2) 0.95865(5)
H22 H 0.083(6) 0.283(3) 0.798(4)
O8 O 0.0651(3) 0.27350(14) 0.8588(3)
H24 H 0.095(6) 0.2425(18) 0.898(6)
O12 O 0.1264(2) 0.42059(13) 0.8531(3)
N10 N 0.1120(3) 0.86154(15) 0.6781(3)
Cu1 Cu 0.5000 0.5000 1.0000
H7 H 0.2941 0.6950 0.9853
C5 C 0.3767(3) 0.61531(18) 0.9989(4)
H8 H 0.3143 0.5968 0.9335
Cu6 Cu 0.04339(4) 0.15314(2) 0.45865(5)
S4 S 0.56771(9) 0.22360(4) 0.84055(10)
S5 S 0.47979(9) 0.60535(5) 0.45251(10)
S6 S 0.17391(8) 0.48141(4) 0.88481(9)
O9 O 0.2989(2) 0.48045(14) 0.9165(3)
O13 O 0.1491(3) 0.50348(14) 0.9947(3)
O14 O 0.1178(3) 0.52153(15) 0.7772(3)
N5 N 0.5265(3) 0.41694(14) 0.9428(3)
N6 N 0.2057(3) 0.16755(15) 0.5816(3)
N8 N 0.4867(3) 0.53110(14) 0.8259(3)
N9 N 0.1120(3) 0.63846(15) 0.1781(3)
C21 C 0.4423(4) 0.39055(18) 0.8460(4)
H25 H 0.3748 0.4131 0.8013
C22 C 0.4486(3) 0.33251(18) 0.8082(4)
H26 H 0.3875 0.3159 0.7385
C23 C 0.5467(3) 0.29862(17) 0.8744(4)
C24 C 0.6364(3) 0.32618(19) 0.9705(4)
C26 C 0.2274(4) 0.18300(18) 0.7021(4)
H29 H 0.1656 0.1818 0.7317
C27 C 0.3354(3) 0.20043(18) 0.7844(4)
H30 H 0.3479 0.2108 0.8690
C28 C 0.4253(3) 0.20246(17) 0.7405(4)
C29 C 0.4045(4) 0.18529(19) 0.6180(4)
H31 H 0.4651 0.1855 0.5864
C30 C 0.2942(4) 0.1679(2) 0.5423(4)
H32 H 0.2805 0.1556 0.4585
C31 C 0.5812(3) 0.53378(18) 0.7957(4)
H33 H 0.6528 0.5202 0.8556
C32 C 0.5790(3) 0.55533(17) 0.6817(4)
H34 H 0.6478 0.5567 0.6642
C33 C 0.4740(3) 0.57522(17) 0.5922(4)
C34 C 0.3763(4) 0.57256(19) 0.6226(4)
H35 H 0.3037 0.5862 0.5647
C35 C 0.3859(3) 0.54986(19) 0.7381(4)
H36 H 0.3179 0.5473 0.7569
C36 C 0.1432(4) 0.58429(19) 0.2296(4)
H37 H 0.0880 0.5528 0.2045
C37 C 0.2522(4) 0.57206(19) 0.3178(4)
H38 H 0.2714 0.5330 0.3520
C38 C 0.3326(3) 0.61771(19) 0.3549(4)
C39 C 0.2998(4) 0.6743(2) 0.3068(4)
H39 H 0.3522 0.7070 0.3340
C40 C 0.1897(4) 0.68294(19) 0.2184(4)
H40 H 0.1680 0.7219 0.1846
Cu1_2 Cu 0.5000 0.0000 0.5000
S1 S 0.56771(9) 0.27640(4) 0.34055(10)
S3 S 0.17391(8) 0.01859(4) 0.38481(9)
O3 O 0.2989(2) 0.01955(14) 0.4165(3)
O4 O 0.1264(2) 0.07941(13) 0.3531(3)
N1 N 0.5265(3) 0.08306(14) 0.4428(3)
C1 C 0.4423(4) 0.10945(18) 0.3460(4)
H5 H 0.3748 0.0869 0.3013
C2 C 0.4486(3) 0.16749(18) 0.3082(4)
H6 H 0.3875 0.1841 0.2385
C3 C 0.5467(3) 0.20138(17) 0.3744(4)
C4 C 0.6364(3) 0.17382(19) 0.4705(4)
H7_2 H 0.7059 0.1950 0.5147
C5_2 C 0.6233(3) 0.11531(18) 0.5011(4)
H8_2 H 0.6857 0.0968 0.5665
C6 C 0.2274(4) 0.31700(18) 0.2021(4)
H9 H 0.1656 0.3182 0.2317
C7 C 0.3354(3) 0.29957(18) 0.2844(4)
H10 H 0.3479 0.2892 0.3690
C8 C 0.4253(3) 0.29754(17) 0.2405(4)
C9 C 0.4045(4) 0.31471(19) 0.1180(4)
H11 H 0.4651 0.3145 0.0864
C10 C 0.2942(4) 0.3321(2) 0.0423(4)
O13_2 O 0.8509(3) 0.00348(14) 0.5053(3)
O14_2 O 0.8822(3) 0.02153(15) 0.7228(3)
N8_2 N 0.5133(3) 0.03110(14) 0.6741(3)
C31_2 C 0.4188(3) 0.03378(18) 0.7043(4)
H33_2 H 0.3472 0.0202 0.6444
C32_2 C 0.4210(3) 0.05533(17) 0.8183(4)
H34_2 H 0.3522 0.0567 0.8358
C33_2 C 0.5260(3) 0.07522(17) 0.9078(4)
C34_2 C 0.6237(4) 0.07256(19) 0.8774(4)
H35_2 H 0.6963 0.0862 0.9353
C35_2 C 0.6141(3) 0.04986(19) 0.7619(4)
H36_2 H 0.6821 0.0473 0.7431
H12 H 0.2805 0.3444 0.9585
S2 S 0.47979(9) 0.89465(5) 0.95251(10)
C16 C 0.1432(4) 0.91571(19) 0.7296(4)
H17 H 0.0880 0.9472 0.7045
C17 C 0.2522(4) 0.92794(19) 0.8178(4)
H18 H 0.2714 0.9670 0.8520
C18 C 0.3326(3) 0.88229(19) 0.8549(4)
C19 C 0.2998(4) 0.8257(2) 0.8068(4)
H19 H 0.3522 0.7930 0.8340
C20 C 0.1897(4) 0.81706(19) 0.7184(4)
H20 H 0.1680 0.7781 0.6846
O1 O 0.0338(3) 0.08180(14) 0.5631(3)
H2 H 0.083(6) 0.217(3) 0.298(4)
O2 O 0.0651(3) 0.22650(14) 0.3588(3)
H3 H 0.078(4) 0.0550(19) 0.556(6)
H4 H 0.095(6) 0.2575(18) 0.398(6)
Cl2 Cl 0.9513(2) 0.28198(16) 0.0866(3)
H21 H 0.966(2) 0.431(3) 0.045(6)
Cu1_3 Cu 0.5000 0.5000 0.0000
Cu2 Cu 0.95661(4) 0.84686(2) 0.54135(5)
S1_2 S 0.43229(9) 0.77640(4) 0.15945(10)
S2_2 S 0.52021(9) 0.39465(5) 0.54749(10)
S3_2 S 0.82609(8) 0.51859(4) 0.11519(9)
O1_2 O 0.9662(3) 0.91820(14) 0.4369(3)
H2_2 H 0.917(6) 0.783(3) 0.702(4)
O2_2 O 0.9349(3) 0.77350(14) 0.6412(3)
H3_2 H 0.922(4) 0.9450(19) 0.444(6)
H4_2 H 0.905(6) 0.7425(18) 0.602(6)
O3_2 O 0.7011(2) 0.51955(14) 0.0835(3)
O4_2 O 0.8736(2) 0.57941(13) 0.1469(3)
O5 O 0.8509(3) 0.49652(14) 0.0053(3)
O6 O 0.8822(3) 0.47847(15) 0.2228(3)
N1_2 N 0.4735(3) 0.58306(14) 0.0572(3)
N2 N 0.7943(3) 0.83245(15) 0.4184(3)
N3 N 0.5133(3) 0.46890(14) 0.1741(3)
N4 N 0.8880(3) 0.36154(15) 0.8219(3)
C1_2 C 0.5577(4) 0.60945(18) 0.1540(4)
H5_2 H 0.6252 0.5869 0.1987
C2_2 C 0.5514(3) 0.66749(18) 0.1918(4)
H6_2 H 0.6125 0.6841 0.2615
C3_2 C 0.4533(3) 0.70138(17) 0.1256(4)
C4_2 C 0.3636(3) 0.67382(19) 0.0295(4)
C6_2 C 0.7726(4) 0.81700(18) 0.2979(4)
H9_2 H 0.8344 0.8182 0.2683
C7_2 C 0.6646(3) 0.79957(18) 0.2156(4)
H10_2 H 0.6521 0.7892 0.1310
C8_2 C 0.5747(3) 0.79754(17) 0.2595(4)
C9_2 C 0.5955(4) 0.81471(19) 0.3820(4)
H11_2 H 0.5349 0.8145 0.4136
C10_2 C 0.7058(4) 0.8321(2) 0.4577(4)
H12_2 H 0.7195 0.8444 0.5415
C11 C 0.4188(3) 0.46622(18) 0.2043(4)
H13 H 0.3472 0.4798 0.1444
C12 C 0.4210(3) 0.44467(17) 0.3183(4)
H14 H 0.3522 0.4433 0.3358
C13 C 0.5260(3) 0.42478(17) 0.4078(4)
C14 C 0.6237(4) 0.42744(19) 0.3774(4)
H15 H 0.6963 0.4138 0.4353
C15 C 0.6141(3) 0.45014(19) 0.2619(4)
H16 H 0.6821 0.4527 0.2431
C16_2 C 0.8568(4) 0.41571(19) 0.7704(4)
H17_2 H 0.9120 0.4472 0.7955
C17_2 C 0.7478(4) 0.42794(19) 0.6822(4)
H18_2 H 0.7286 0.4670 0.6480
C18_2 C 0.6674(3) 0.38229(19) 0.6451(4)
C19_2 C 0.7002(4) 0.3257(2) 0.6932(4)
H19_2 H 0.6478 0.2930 0.6660
C20_2 C 0.8103(4) 0.31706(19) 0.7816(4)
H20_2 H 0.8320 0.2781 0.8154
Cu4 Cu 0.95661(4) 0.65314(2) 0.04135(5)
O11 O 0.8736(2) 0.92059(13) 0.6469(3)
H27 H 0.7059 0.3050 0.0147
C25 C 0.6233(3) 0.38469(18) 0.0011(4)
H28 H 0.6857 0.4032 0.0665
S5_2 S 0.52021(9) 0.10535(5) 0.04749(10)
N9_2 N 0.8880(3) 0.13846(15) 0.3219(3)
C36_2 C 0.8568(4) 0.08429(19) 0.2704(4)
H37_2 H 0.9120 0.0528 0.2955
C37_2 C 0.7478(4) 0.07206(19) 0.1822(4)
H38_2 H 0.7286 0.0330 0.1480
C38_2 C 0.6674(3) 0.11771(19) 0.1451(4)
C39_2 C 0.7002(4) 0.1743(2) 0.1932(4)
H39_2 H 0.6478 0.2070 0.1660
C40_2 C 0.8103(4) 0.18294(19) 0.2816(4)
H40_2 H 0.8320 0.2219 0.3154
H32_2 H 0.7195 0.6556 0.0415
Cu1_4 Cu 0.5000 1.0000 0.5000
O5_2 O 0.1491(3) 0.99652(14) 0.4947(3)
O6_2 O 0.1178(3) 0.97847(15) 0.2772(3)
N3_2 N 0.4867(3) 0.96890(14) 0.3259(3)
C11_2 C 0.5812(3) 0.96622(18) 0.2957(4)
H13_2 H 0.6528 0.9798 0.3556
C12_2 C 0.5790(3) 0.94467(17) 0.1817(4)
H14_2 H 0.6478 0.9433 0.1642
C13_2 C 0.4740(3) 0.92478(17) 0.0922(4)
C14_2 C 0.3763(4) 0.92744(19) 0.1226(4)
H15_2 H 0.3037 0.9138 0.0647
C15_2 C 0.3859(3) 0.95014(19) 0.2381(4)
H16_2 H 0.3179 0.9527 0.2569
S4_2 S 0.43229(9) 0.72360(4) 0.65945(10)
S6_2 S 0.82609(8) 0.98141(4) 0.61519(9)
O9_2 O 0.7011(2) 0.98045(14) 0.5835(3)
N5_2 N 0.4735(3) 0.91694(14) 0.5572(3)
N6_2 N 0.7943(3) 0.66755(15) 0.9184(3)
C21_2 C 0.5577(4) 0.89055(18) 0.6540(4)
H25_2 H 0.6252 0.9131 0.6987
C22_2 C 0.5514(3) 0.83251(18) 0.6918(4)
H26_2 H 0.6125 0.8159 0.7615
C23_2 C 0.4533(3) 0.79862(17) 0.6256(4)
C24_2 C 0.3636(3) 0.82618(19) 0.5295(4)
H27_2 H 0.2941 0.8050 0.4853
C25_2 C 0.3767(3) 0.88469(18) 0.4989(4)
H28_2 H 0.3143 0.9032 0.4335
C26_2 C 0.7726(4) 0.68300(18) 0.7979(4)
H29_2 H 0.8344 0.6818 0.7683
C27_2 C 0.6646(3) 0.70043(18) 0.7156(4)
H30_2 H 0.6521 0.7108 0.6310
C28_2 C 0.5747(3) 0.70246(17) 0.7595(4)
C29_2 C 0.5955(4) 0.68529(19) 0.8820(4)
H31_2 H 0.5349 0.6855 0.9136
C30_2 C 0.7058(4) 0.6679(2) 0.9577(4)
Cl1_2 Cl 0.9513(2) 0.21802(16) 0.5866(3)
H1_2 H 0.966(2) 0.069(3) 0.545(6)
H22_2 H 0.917(6) 0.717(3) 0.202(4)
O8_2 O 0.9349(3) 0.72650(14) 0.1412(3)
H24_2 H 0.905(6) 0.7575(18) 0.102(6)
O7_2 O 0.9662(3) 0.58180(14) 0.9369(3)
H23_2 H 0.922(4) 0.5550(19) 0.944(6)
Cl2_2 Cl 0.0487(2) 0.71802(16) 0.9134(3)
H21_2 H 0.034(2) 0.569(3) 0.955(6)
loop_
_geom_bond_atom_site_label_1
_geom_bond_atom_site_label_2
_geom_bond_site_symmetry_1
_geom_bond_site_symmetry_2
H23 O7 1_555 1_555
H22 O8 1_555 1_555
O8 Cu5 1_555 1_555
H24 O8 1_555 1_555
O12 Cu5 1_555 1_555
H8 C5 1_555 1_555
Cu6 N6 1_555 1_555
S4 C23 1_555 1_555
S5 C33 1_555 1_555
S6 O9 1_555 1_555
O9 Cu1 1_555 1_555
O12 S6 1_555 1_555
O13 S6 1_555 1_555
O14 S6 1_555 1_555
N5 Cu1 1_555 1_555
N6 C26 1_555 1_555
N8 Cu1 1_555 1_555
N9 C36 1_555 1_555
C21 N5 1_555 1_555
H25 C21 1_555 1_555
C22 C21 1_555 1_555
H26 C22 1_555 1_555
C23 C22 1_555 1_555
C24 C23 1_555 1_555
C26 H29 1_555 1_555
C27 C26 1_555 1_555
H30 C27 1_555 1_555
C28 S4 1_555 1_555
C29 C28 1_555 1_555
H31 C29 1_555 1_555
C30 N6 1_555 1_555
H32 C30 1_555 1_555
C31 N8 1_555 1_555
H33 C31 1_555 1_555
C32 C31 1_555 1_555
H34 C32 1_555 1_555
C33 C32 1_555 1_555
C34 C33 1_555 1_555
H35 C34 1_555 1_555
C35 N8 1_555 1_555
H36 C35 1_555 1_555
C36 H37 1_555 1_555
C37 C36 1_555 1_555
H38 C37 1_555 1_555
C38 S5 1_555 1_555
C39 C38 1_555 1_555
H39 C39 1_555 1_555
C40 N9 1_555 1_555
H40 C40 1_555 1_555
C27 C28 1_555 1_555
C29 C30 1_555 1_555
C34 C35 1_555 1_555
C37 C38 1_555 1_555
C39 C40 1_555 1_555
Cu1_2 O3 1_555 1_555
S1 C3 1_555 1_555
S3 O3 1_555 1_555
O4 S3 1_555 1_555
N1 Cu1_2 1_555 1_555
C1 N1 1_555 1_555
H5 C1 1_555 1_555
C2 C1 1_555 1_555
H6 C2 1_555 1_555
C3 C2 1_555 1_555
C4 C3 1_555 1_555
H7_2 C4 1_555 1_555
C5_2 N1 1_555 1_555
H8_2 C5_2 1_555 1_555
C6 N7 1_555 1_555
H9 C6 1_555 1_555
C7 C6 1_555 1_555
H10 C7 1_555 1_555
C8 S1 1_555 1_555
C9 C8 1_555 1_555
H11 C9 1_555 1_555
C10 N7 1_555 1_555
Cu6 O4 1_555 1_555
N8_2 Cu1_2 1_555 1_555
C31_2 N8_2 1_555 1_555
H33_2 C31_2 1_555 1_555
C32_2 C31_2 1_555 1_555
H34_2 C32_2 1_555 1_555
C33_2 C32_2 1_555 1_555
C34_2 C33_2 1_555 1_555
H35_2 C34_2 1_555 1_555
C35_2 N8_2 1_555 1_555
H36_2 C35_2 1_555 1_555
C4 C5_2 1_555 1_555
C7 C8 1_555 1_555
C9 C10 1_555 1_555
C34_2 C35_2 1_555 1_555
N10 C16 1_555 1_555
C16 H17 1_555 1_555
C17 C16 1_555 1_555
H18 C17 1_555 1_555
C18 S2 1_555 1_555
C19 C18 1_555 1_555
H19 C19 1_555 1_555
C20 N10 1_555 1_555
H20 C20 1_555 1_555
C17 C18 1_555 1_555
C19 C20 1_555 1_555
O1 Cu6 1_555 1_555
H2 O2 1_555 1_555
O2 Cu6 1_555 1_555
H3 O1 1_555 1_555
H4 O2 1_555 1_555
Cu1_3 O3_2 1_555 1_555
S1_2 C3_2 1_555 1_555
S2_2 C13 1_555 1_555
S3_2 O3_2 1_555 1_555
O1_2 Cu2 1_555 1_555
H2_2 O2_2 1_555 1_555
O2_2 Cu2 1_555 1_555
H3_2 O1_2 1_555 1_555
H4_2 O2_2 1_555 1_555
O4_2 S3_2 1_555 1_555
O5 S3_2 1_555 1_555
O6 S3_2 1_555 1_555
N1_2 Cu1_3 1_555 1_555
N2 Cu2 1_555 1_555
N3 Cu1_3 1_555 1_555
N4 C16_2 1_555 1_555
C1_2 N1_2 1_555 1_555
H5_2 C1_2 1_555 1_555
C2_2 C1_2 1_555 1_555
H6_2 C2_2 1_555 1_555
C3_2 C2_2 1_555 1_555
C4_2 C3_2 1_555 1_555
C6_2 N2 1_555 1_555
H9_2 C6_2 1_555 1_555
C7_2 C6_2 1_555 1_555
H10_2 C7_2 1_555 1_555
C8_2 S1_2 1_555 1_555
C9_2 C8_2 1_555 1_555
H11_2 C9_2 1_555 1_555
C10_2 N2 1_555 1_555
H12_2 C10_2 1_555 1_555
C11 N3 1_555 1_555
H13 C11 1_555 1_555
C12 C11 1_555 1_555
H14 C12 1_555 1_555
C13 C12 1_555 1_555
C14 C13 1_555 1_555
H15 C14 1_555 1_555
C15 N3 1_555 1_555
H16 C15 1_555 1_555
C16_2 H17_2 1_555 1_555
C17_2 C16_2 1_555 1_555
H18_2 C17_2 1_555 1_555
C18_2 S2_2 1_555 1_555
C19_2 C18_2 1_555 1_555
H19_2 C19_2 1_555 1_555
C20_2 N4 1_555 1_555
H20_2 C20_2 1_555 1_555
Cu4 O4_2 1_555 1_555
O11 Cu2 1_555 1_555
H28 C25 1_555 1_555
C7_2 C8_2 1_555 1_555
C9_2 C10_2 1_555 1_555
C14 C15 1_555 1_555
C17_2 C18_2 1_555 1_555
C19_2 C20_2 1_555 1_555
N9_2 C36_2 1_555 1_555
C36_2 H37_2 1_555 1_555
C37_2 C36_2 1_555 1_555
H38_2 C37_2 1_555 1_555
C38_2 S5_2 1_555 1_555
C39_2 C38_2 1_555 1_555
H39_2 C39_2 1_555 1_555
C40_2 N9_2 1_555 1_555
H40_2 C40_2 1_555 1_555
C37_2 C38_2 1_555 1_555
C39_2 C40_2 1_555 1_555
N3_2 Cu1_4 1_555 1_555
C11_2 N3_2 1_555 1_555
H13_2 C11_2 1_555 1_555
C12_2 C11_2 1_555 1_555
H14_2 C12_2 1_555 1_555
C13_2 C12_2 1_555 1_555
C14_2 C13_2 1_555 1_555
H15_2 C14_2 1_555 1_555
C15_2 N3_2 1_555 1_555
H16_2 C15_2 1_555 1_555
S4_2 C23_2 1_555 1_555
S6_2 O9_2 1_555 1_555
O9_2 Cu1_4 1_555 1_555
O11 S6_2 1_555 1_555
N5_2 Cu1_4 1_555 1_555
N6_2 C26_2 1_555 1_555
C21_2 N5_2 1_555 1_555
H25_2 C21_2 1_555 1_555
C22_2 C21_2 1_555 1_555
H26_2 C22_2 1_555 1_555
C23_2 C22_2 1_555 1_555
C24_2 C23_2 1_555 1_555
H27_2 C24_2 1_555 1_555
C25_2 N5_2 1_555 1_555
H28_2 C25_2 1_555 1_555
C26_2 H29_2 1_555 1_555
C27_2 C26_2 1_555 1_555
H30_2 C27_2 1_555 1_555
C28_2 S4_2 1_555 1_555
C29_2 C28_2 1_555 1_555
H31_2 C29_2 1_555 1_555
C30_2 N6_2 1_555 1_555
C14_2 C15_2 1_555 1_555
C24_2 C25_2 1_555 1_555
C27_2 C28_2 1_555 1_555
C29_2 C30_2 1_555 1_555
H22_2 O8_2 1_555 1_555
O8_2 Cu4 1_555 1_555
H24_2 O8_2 1_555 1_555
H23_2 O7_2 1_555 1_555

#END
