
###############################################################################
#
# This file contains modified crystal structure data generated from the
# MOF subset of the Cambridge Structural Database (CSD) v543 
# hosted by the Cambridge Crystallographic Data Centre (CCDC).
#
# This work is licensed under the Creative Commons
# Attribution-NonCommercial-ShareAlike 4.0 International License.
# To view a copy of this license, visit
# http://creativecommons.org/licenses/by-nc-sa/4.0/
# or send a letter to
# Creative Commons, PO Box 1866, Mountain View, CA 94042, USA.
#
# CIF created using the CSD Python API on 29 September 2022
# The structure has been converted into the P1 space group
# The structure has a 3D framework
# The original CSD entry XUMFIV is in the triclinic crystal system
# The framework has been calculated to contain at least 10.0% void space
# The void calculation uses a probe of radius 1.32A, grid spacing 0.4
# H atom positions have been added when not included in the experimental data
#
###############################################################################

data_XUMFIV
_chemical_formula_moiety         '(C48 H50 Cu5 N10 O12 S8)n'
_symmetry_cell_setting           triclinic
_symmetry_space_group_name_H-M   'P 1'
_symmetry_Int_Tables_number      1
_space_group_name_Hall           'P 1'
loop_
_symmetry_equiv_pos_site_id
_symmetry_equiv_pos_as_xyz
1 x,y,z
_cell_length_a                   11.406(3)
_cell_length_b                   12.453(3)
_cell_length_c                   13.759(3)
_cell_angle_alpha                110.452(4)
_cell_angle_beta                 101.878(3)
_cell_angle_gamma                108.214(3)
_cell_volume                     1626.76
loop_
_atom_site_label
_atom_site_type_symbol
_atom_site_fract_x
_atom_site_fract_y
_atom_site_fract_z
Cu2 Cu 0.5000 0.0000 0.0000
S2 S 0.05379(16) 0.01285(16) 0.23622(15)
N2 N 0.6073(4) 0.0022(4) 0.1385(4)
C9 C 0.7899(6) 0.0992(6) 0.3081(6)
H8 H 0.8693 0.1702 0.3598
C10 C 0.7201(6) 0.1006(6) 0.2153(5)
H9 H 0.7524 0.1740 0.2044
C14 C 0.2816(6) 0.1029(5) 0.2058(5)
H12 H 0.3000 0.1778 0.2688
C15 C 0.3737(5) 0.0952(5) 0.1546(5)
H13 H 0.4564 0.1662 0.1853
O10 O 0.5950(4) 0.2247(4) 0.0926(3)
Cu2_2 Cu 0.5000 0.0000 1.0000
N9 N 0.6475(4) 0.0068(4) 0.9358(4)
Cu1 Cu 0.5000 0.5000 0.5000
Cu2_3 Cu 0.5000 1.0000 0.0000
S1 S 0.84395(19) 0.99672(17) 0.44447(16)
S3 S 0.0968(3) 0.3177(3) 0.2109(3)
O1 O 0.4186(7) 0.6297(5) 0.6113(4)
H1 H 0.417(9) 0.610(9) 0.662(5)
N1 N 0.6031(7) 0.6492(5) 0.4741(4)
N3 N 0.3525(4) 0.9932(4) 0.0642(4)
N5 N 0.3479(7) 0.4430(6) 0.3679(5)
C1 C 0.5532(8) 0.7305(7) 0.4664(6)
H2 H 0.4667 0.7145 0.4680
C2 C 0.6209(8) 0.8371(7) 0.4563(6)
H3 H 0.5832 0.8944 0.4530
C3 C 0.7473(8) 0.8581(6) 0.4510(6)
C4 C 0.7979(8) 0.7738(6) 0.4571(6)
H4 H 0.8828 0.7853 0.4529
C5 C 0.7232(9) 0.6706(6) 0.4696(6)
H5 H 0.7595 0.6130 0.4752
C6 C 0.5651(5) 0.8995(5) 0.1557(5)
H6 H 0.4867 0.8288 0.1019
C7 C 0.6298(6) 0.8908(5) 0.2479(5)
H7 H 0.5965 0.8163 0.2572
C8 C 0.7445(6) 0.9942(6) 0.3263(5)
C11 C 0.2344(6) 0.8931(5) 0.0236(5)
C12 C 0.1395(6) 0.8923(6) 0.0697(5)
H11 H 0.0585 0.8193 0.0384
C13 C 0.1615(5) 0.9978(6) 0.1622(5)
C21 C 0.2430(8) 0.3917(7) 0.3025(6)
C22 C 0.3105(13) 0.6513(13) 0.5819(11)
H18 H 0.3379 0.7407 0.5992
H19 H 0.2539 0.6295 0.6230
H20 H 0.2616 0.5993 0.5021
S5 S 0.15605(19) 0.00328(17) 0.55553(16)
S7 S 0.9032(3) 0.6823(3) 0.7891(3)
O7 O 0.5814(7) 0.3703(5) 0.3887(4)
H21 H 0.583(9) 0.390(9) 0.338(5)
N6 N 0.3969(7) 0.3508(5) 0.5259(4)
N12 N 0.6521(7) 0.5570(6) 0.6321(5)
C25 C 0.4468(8) 0.2695(7) 0.5336(6)
H22 H 0.5333 0.2855 0.5320
C26 C 0.3791(8) 0.1629(7) 0.5437(6)
H23 H 0.4168 0.1056 0.5470
C27 C 0.2527(8) 0.1419(6) 0.5490(6)
C28 C 0.2021(8) 0.2262(6) 0.5429(6)
H24 H 0.1172 0.2147 0.5471
C29 C 0.2768(9) 0.3294(6) 0.5304(6)
H25 H 0.2405 0.3870 0.5248
C30 C 0.4349(5) 0.1005(5) 0.8443(5)
H26 H 0.5133 0.1712 0.8981
C31 C 0.3702(6) 0.1092(5) 0.7521(5)
H27 H 0.4035 0.1837 0.7428
C32 C 0.2555(6) 0.0058(6) 0.6737(5)
C45 C 0.7570(8) 0.6083(7) 0.6975(6)
C46 C 0.6895(13) 0.3487(13) 0.4181(11)
H38 H 0.6621 0.2593 0.4008
H39 H 0.7461 0.3705 0.3770
H40 H 0.7384 0.4007 0.4979
Cu2_4 Cu 0.5000 1.0000 1.0000
H10 H 0.2168 0.8197 0.9596
O9 O 0.4050(4) 0.7753(4) 0.9074(3)
N7 N 0.3927(4) 0.9978(4) 0.8615(4)
C33 C 0.2101(6) 0.9008(6) 0.6919(6)
H28 H 0.1307 0.8298 0.6402
C34 C 0.2799(6) 0.8994(6) 0.7847(5)
H29 H 0.2476 0.8260 0.7956
Cu3 Cu 0.5000 0.5000 0.0000
S4 S 0.64321(15) 0.36123(13) 0.13092(12)
O2 O 0.6034(4) 0.3883(4) 0.0361(3)
O4 O 0.5814(6) 0.4111(5) 0.2115(4)
O5 O 0.7861(5) 0.4199(6) 0.1834(5)
O6 O 0.4916(5) 0.5646(4) 0.1612(4)
N4 N 0.6764(5) 0.6506(4) 0.0617(4)
C16 C 0.7056(6) 0.7278(6) 0.0141(5)
C17 C 0.8223(6) 0.8370(6) 0.0620(5)
H15 H 0.8395 0.8904 0.0266
C18 C 0.9125(6) 0.8667(6) 0.1616(5)
C19 C 0.8851(6) 0.7853(6) 0.2099(6)
H16 H 0.9468 0.8018 0.2771
C20 C 0.7675(6) 0.6806(6) 0.1585(5)
H17 H 0.7486 0.6259 0.1926
C23 C 0.3813(17) 0.580(2) 0.1810(18)
C24 C 0.247(2) 0.584(2) 0.158(2)
H34 H 0.3556 0.2928 0.0550
H46 H 0.171748 0.491461 0.0959674
H47 H 0.22532 0.609685 0.234253
H48 H 0.247669 0.653721 0.127294
H49 H 0.435582 0.675725 0.247619
H50 H 0.359661 0.513464 0.216293
Cu3_2 Cu 0.5000 0.5000 1.0000
H14 H 0.6444 0.7072 0.9450
S8 S 0.35679(15) 0.63877(13) 0.86908(12)
O8 O 0.3966(4) 0.6117(4) 0.9639(3)
O12 O 0.4186(6) 0.5889(5) 0.7885(4)
O13 O 0.2139(5) 0.5801(6) 0.8166(5)
O14 O 0.5084(5) 0.4354(4) 0.8388(4)
N11 N 0.3236(5) 0.3494(4) 0.9383(4)
C40 C 0.2944(6) 0.2722(6) 0.9859(5)
C41 C 0.1777(6) 0.1630(6) 0.9380(5)
H35 H 0.1605 0.1096 0.9734
C42 C 0.0875(6) 0.1333(6) 0.8384(5)
C43 C 0.1149(6) 0.2147(6) 0.7901(6)
H36 H 0.0532 0.1982 0.7229
C44 C 0.2325(6) 0.3194(6) 0.8415(5)
H37 H 0.2514 0.3741 0.8074
C47 C 0.6187(17) 0.420(2) 0.8190(18)
C48 C 0.753(2) 0.416(2) 0.842(2)
H41 H 0.640339 0.486536 0.783707
H42 H 0.564418 0.324275 0.752381
H43 H 0.752331 0.346279 0.872706
H44 H 0.77468 0.390315 0.765747
H45 H 0.828252 0.508539 0.904033
H30 H 0.7832 0.1803 0.0404
C35 C 0.7656(6) 0.1069(5) 0.9764(5)
C36 C 0.8605(6) 0.1077(6) 0.9303(5)
H31 H 0.9415 0.1807 0.9616
C37 C 0.8385(5) 0.0022(6) 0.8378(5)
S6 S 0.94621(16) 0.98715(16) 0.76378(15)
C38 C 0.7184(6) 0.8971(5) 0.7942(5)
H32 H 0.7000 0.8222 0.7312
C39 C 0.6263(5) 0.9048(5) 0.8454(5)
H33 H 0.5436 0.8338 0.8147
loop_
_geom_bond_atom_site_label_1
_geom_bond_atom_site_label_2
_geom_bond_site_symmetry_1
_geom_bond_site_symmetry_2
Cu2 N2 1_555 1_555
H8 C9 1_555 1_555
C10 N2 1_555 1_555
H9 C10 1_555 1_555
H12 C14 1_555 1_555
H13 C15 1_555 1_555
O10 Cu2 1_555 1_555
C9 C10 1_555 1_555
C14 C15 1_555 1_555
N9 Cu2_2 1_555 1_555
Cu1 O1 1_555 1_555
S1 C3 1_555 1_555
S3 C21 1_555 1_555
O1 H1 1_555 1_555
N1 Cu1 1_555 1_555
N3 Cu2_3 1_555 1_555
N5 Cu1 1_555 1_555
C1 N1 1_555 1_555
H2 C1 1_555 1_555
C2 C1 1_555 1_555
H3 C2 1_555 1_555
C3 C2 1_555 1_555
C4 C3 1_555 1_555
H4 C4 1_555 1_555
C5 N1 1_555 1_555
H5 C5 1_555 1_555
C6 H6 1_555 1_555
C7 C6 1_555 1_555
H7 C7 1_555 1_555
C8 S1 1_555 1_555
C11 N3 1_555 1_555
C12 C11 1_555 1_555
H11 C12 1_555 1_555
C13 C12 1_555 1_555
C21 N5 1_555 1_555
C22 O1 1_555 1_555
H18 C22 1_555 1_555
H19 C22 1_555 1_555
H20 C22 1_555 1_555
S5 C27 1_555 1_555
S7 C45 1_555 1_555
O7 Cu1 1_555 1_555
H21 O7 1_555 1_555
N6 Cu1 1_555 1_555
N12 Cu1 1_555 1_555
C25 N6 1_555 1_555
H22 C25 1_555 1_555
C26 C25 1_555 1_555
H23 C26 1_555 1_555
C27 C26 1_555 1_555
C28 C27 1_555 1_555
H24 C28 1_555 1_555
C29 N6 1_555 1_555
H25 C29 1_555 1_555
C30 H26 1_555 1_555
C31 C30 1_555 1_555
H27 C31 1_555 1_555
C32 S5 1_555 1_555
C45 N12 1_555 1_555
C46 O7 1_555 1_555
H38 C46 1_555 1_555
H39 C46 1_555 1_555
H40 C46 1_555 1_555
C4 C5 1_555 1_555
C7 C8 1_555 1_555
C28 C29 1_555 1_555
C31 C32 1_555 1_555
O9 Cu2_4 1_555 1_555
N7 Cu2_4 1_555 1_555
H28 C33 1_555 1_555
C34 N7 1_555 1_555
H29 C34 1_555 1_555
C33 C34 1_555 1_555
Cu3 O2 1_555 1_555
S4 O2 1_555 1_555
O10 S4 1_555 1_555
O4 S4 1_555 1_555
O5 S4 1_555 1_555
O6 Cu3 1_555 1_555
N4 Cu3 1_555 1_555
C16 N4 1_555 1_555
C17 C16 1_555 1_555
H15 C17 1_555 1_555
C19 C18 1_555 1_555
H16 C19 1_555 1_555
C20 N4 1_555 1_555
H17 C20 1_555 1_555
C23 O6 1_555 1_555
C24 C23 1_555 1_555
C17 C18 1_555 1_555
C19 C20 1_555 1_555
C24 H46 1_555 1_555
C24 H47 1_555 1_555
C24 H48 1_555 1_555
C23 H49 1_555 1_555
C23 H50 1_555 1_555
S8 O8 1_555 1_555
O8 Cu3_2 1_555 1_555
O9 S8 1_555 1_555
O12 S8 1_555 1_555
O13 S8 1_555 1_555
O14 Cu3_2 1_555 1_555
N11 Cu3_2 1_555 1_555
C40 N11 1_555 1_555
C41 C40 1_555 1_555
H35 C41 1_555 1_555
C43 C42 1_555 1_555
H36 C43 1_555 1_555
C44 N11 1_555 1_555
H37 C44 1_555 1_555
C47 O14 1_555 1_555
C48 C47 1_555 1_555
C41 C42 1_555 1_555
C43 C44 1_555 1_555
C47 H41 1_555 1_555
C47 H42 1_555 1_555
C48 H43 1_555 1_555
C48 H44 1_555 1_555
C48 H45 1_555 1_555
N9 C35 1_555 1_555
C36 C35 1_555 1_555
H31 C36 1_555 1_555
C37 C36 1_555 1_555
H32 C38 1_555 1_555
H33 C39 1_555 1_555
C38 C39 1_555 1_555

#END
