
###############################################################################
#
# This file contains modified crystal structure data generated from the
# MOF subset of the Cambridge Structural Database (CSD) v543 
# hosted by the Cambridge Crystallographic Data Centre (CCDC).
#
# This work is licensed under the Creative Commons
# Attribution-NonCommercial-ShareAlike 4.0 International License.
# To view a copy of this license, visit
# http://creativecommons.org/licenses/by-nc-sa/4.0/
# or send a letter to
# Creative Commons, PO Box 1866, Mountain View, CA 94042, USA.
#
# CIF created using the CSD Python API on 29 September 2022
# The structure has been converted into the P1 space group
# The structure has a 3D framework
# The original CSD entry XUMMOJ is in the tetragonal crystal system
# The framework has been calculated to contain at least 10.0% void space
# The void calculation uses a probe of radius 1.32A, grid spacing 0.4
# The framework is charged, counterions have been retained in the structure
#
###############################################################################

data_XUMMOJ
_chemical_formula_moiety         '(C72 H56 Br10 Cu2 N16 O8 6-)n'
_symmetry_cell_setting           triclinic
_symmetry_space_group_name_H-M   'P 1'
_symmetry_Int_Tables_number      1
_space_group_name_Hall           'P 1'
loop_
_symmetry_equiv_pos_site_id
_symmetry_equiv_pos_as_xyz
1 x,y,z
_cell_length_a                   20.658(3)
_cell_length_b                   20.658(3)
_cell_length_c                   5.6117(9)
_cell_angle_alpha                90
_cell_angle_beta                 90
_cell_angle_gamma                90
_cell_volume                     2394.81
loop_
_atom_site_label
_atom_site_type_symbol
_atom_site_fract_x
_atom_site_fract_y
_atom_site_fract_z
C8 C 0.0625(6) 0.0182(6) 0.047(2)
H6 H 0.1048 0.0302 0.0825
C26 C 0.4818(6) 0.0625(6) 0.047(2)
H20 H 0.4698 0.1048 0.0825
H24 H 0.6794 0.0185 0.8014
H26 H 0.6262 0.0010 0.4302
C36 C 0.5219(6) 0.0292(5) 0.203(2)
H28 H 0.5368 0.0494 0.3405
Cu2 Cu 0.2500 0.2500 0.2102(4)
Br1 Br 0.2500 0.2500 0.7076(4)
N1 N 0.1536(4) 0.2258(4) 0.2043(15)
C1 C 0.1139(5) 0.2507(5) 0.0478(19)
C2 C 0.0506(5) 0.2352(6) 0.039(2)
C3 C 0.0249(5) 0.1910(6) 0.203(3)
C4 C 0.0662(5) 0.1654(5) 0.369(2)
C5 C 0.1307(5) 0.1832(5) 0.3638(19)
H4 H 0.1590 0.1651 0.4740
N2 N 0.0401(4) 0.1241(4) 0.5465(18)
C6 C 0.0736(5) 0.0815(5) 0.6832(19)
O1 O 0.1325(4) 0.0752(4) 0.6771(16)
C7 C 0.0350(5) 0.0399(5) 0.8468(18)
N5 N 0.2742(4) 0.1536(4) 0.2043(15)
C19 C 0.2493(5) 0.1139(5) 0.0478(19)
C20 C 0.2648(6) 0.0506(5) 0.039(2)
C21 C 0.3090(6) 0.0249(5) 0.203(3)
C22 C 0.3346(5) 0.0662(5) 0.369(2)
C23 C 0.3168(5) 0.1307(5) 0.3638(19)
H18 H 0.3349 0.1590 0.4740
N6 N 0.3759(4) 0.0401(4) 0.5465(18)
C24 C 0.4185(5) 0.0736(5) 0.6832(19)
O3 O 0.4248(4) 0.1325(4) 0.6771(16)
C25 C 0.4601(5) 0.0350(5) 0.8468(18)
N9 N 0.3464(4) 0.2742(4) 0.2043(15)
N10 N 0.2258(4) 0.3464(4) 0.2043(15)
H1 H 0.1300 0.2804 0.9383
H2 H 0.0240 0.2538 0.9239
H15 H 0.2196 0.1300 0.9383
H16 H 0.2462 0.0240 0.9239
H22 H 0.7804 0.8700 0.0617
H23 H 0.7538 0.9760 0.0761
H10 H 0.0185 0.8206 0.8014
H12 H 0.0010 0.8738 0.4302
C18 C 0.0292(5) 0.9781(6) 0.203(2)
H14 H 0.0494 0.9632 0.3405
N7 N 0.7258(4) 0.8464(4) 0.7957(15)
C28 C 0.7507(5) 0.8861(5) 0.9522(19)
C29 C 0.7352(6) 0.9494(5) 0.961(2)
C30 C 0.6910(6) 0.9751(5) 0.797(3)
C31 C 0.6654(5) 0.9338(5) 0.631(2)
C32 C 0.6832(5) 0.8693(5) 0.6362(19)
H25 H 0.6651 0.8410 0.5260
N8 N 0.6241(4) 0.9599(4) 0.4535(18)
C33 C 0.5815(5) 0.9264(5) 0.3168(19)
O4 O 0.5752(4) 0.8675(4) 0.3229(16)
C34 C 0.5399(5) 0.9650(5) 0.1532(18)
Cu4 Cu 0.7500 0.7500 0.7898(4)
H17 H 0.3206 0.9815 0.1986
H19 H 0.3738 0.9990 0.5698
C27 C 0.4781(6) 0.9708(5) 0.797(2)
H21 H 0.4632 0.9506 0.6595
C35 C 0.5182(6) 0.9375(6) 0.953(2)
H27 H 0.5302 0.8952 0.9175
H3 H 0.9815 0.1794 0.1986
H5 H 0.9990 0.1262 0.5698
C9 C 0.9708(5) 0.0219(6) 0.797(2)
H7 H 0.9506 0.0368 0.6595
H8 H 0.8700 0.7196 0.0617
H9 H 0.9760 0.7462 0.0761
N3 N 0.8464(4) 0.7742(4) 0.7957(15)
C10 C 0.8861(5) 0.7493(5) 0.9522(19)
C11 C 0.9494(5) 0.7648(6) 0.961(2)
C12 C 0.9751(5) 0.8090(6) 0.797(3)
C13 C 0.9338(5) 0.8346(5) 0.631(2)
C14 C 0.8693(5) 0.8168(5) 0.6362(19)
H11 H 0.8410 0.8349 0.5260
N4 N 0.9599(4) 0.8759(4) 0.4535(18)
C15 C 0.9264(5) 0.9185(5) 0.3168(19)
O2 O 0.8675(4) 0.9248(4) 0.3229(16)
C16 C 0.9650(5) 0.9601(5) 0.1532(18)
C17 C 0.9375(6) 0.9818(6) 0.953(2)
H13 H 0.8952 0.9698 0.9175
H22_2 H 0.6300 0.7804 0.0617
H23_2 H 0.5240 0.7538 0.0761
C26_2 C 0.4375(6) 0.4818(6) 0.047(2)
H20_2 H 0.3952 0.4698 0.0825
N7_2 N 0.6536(4) 0.7258(4) 0.7957(15)
C28_2 C 0.6139(5) 0.7507(5) 0.9522(19)
C29_2 C 0.5506(5) 0.7352(6) 0.961(2)
C30_2 C 0.5249(5) 0.6910(6) 0.797(3)
H24_2 H 0.4815 0.6794 0.8014
C31_2 C 0.5662(5) 0.6654(5) 0.631(2)
C32_2 C 0.6307(5) 0.6832(5) 0.6362(19)
H25_2 H 0.6590 0.6651 0.5260
N8_2 N 0.5401(4) 0.6241(4) 0.4535(18)
H26_2 H 0.4990 0.6262 0.4302
C33_2 C 0.5736(5) 0.5815(5) 0.3168(19)
O4_2 O 0.6325(4) 0.5752(4) 0.3229(16)
C34_2 C 0.5350(5) 0.5399(5) 0.1532(18)
C36_2 C 0.4708(5) 0.5219(6) 0.203(2)
H28_2 H 0.4506 0.5368 0.3405
C19_2 C 0.3861(5) 0.2493(5) 0.0478(19)
C20_2 C 0.4494(5) 0.2648(6) 0.039(2)
C21_2 C 0.4751(5) 0.3090(6) 0.203(3)
H17_2 H 0.5185 0.3206 0.1986
C22_2 C 0.4338(5) 0.3346(5) 0.369(2)
C23_2 C 0.3693(5) 0.3168(5) 0.3638(19)
H18_2 H 0.3410 0.3349 0.4740
N6_2 N 0.4599(4) 0.3759(4) 0.5465(18)
H19_2 H 0.5010 0.3738 0.5698
C24_2 C 0.4264(5) 0.4185(5) 0.6832(19)
O3_2 O 0.3675(4) 0.4248(4) 0.6771(16)
C25_2 C 0.4650(5) 0.4601(5) 0.8468(18)
C27_2 C 0.5292(5) 0.4781(6) 0.797(2)
H21_2 H 0.5494 0.4632 0.6595
C35_2 C 0.5625(6) 0.5182(6) 0.953(2)
H27_2 H 0.6048 0.5302 0.9175
H15_2 H 0.3700 0.2196 0.9383
H16_2 H 0.4760 0.2462 0.9239
C26_3 C 0.0182(6) 0.4375(6) 0.047(2)
H20_3 H 0.0302 0.3952 0.0825
C19_3 C 0.2507(5) 0.3861(5) 0.0478(19)
C20_3 C 0.2352(6) 0.4494(5) 0.039(2)
C21_3 C 0.1910(6) 0.4751(5) 0.203(3)
H17_3 H 0.1794 0.5185 0.1986
C22_3 C 0.1654(5) 0.4338(5) 0.369(2)
C23_3 C 0.1832(5) 0.3693(5) 0.3638(19)
H18_3 H 0.1651 0.3410 0.4740
N6_3 N 0.1241(4) 0.4599(4) 0.5465(18)
H19_3 H 0.1262 0.5010 0.5698
C24_3 C 0.0815(5) 0.4264(5) 0.6832(19)
O3_3 O 0.0752(4) 0.3675(4) 0.6771(16)
C25_3 C 0.0399(5) 0.4650(5) 0.8468(18)
C27_3 C 0.0219(6) 0.5292(5) 0.797(2)
H21_3 H 0.0368 0.5494 0.6595
H15_3 H 0.2804 0.3700 0.9383
H16_3 H 0.2538 0.4760 0.9239
H22_3 H 0.7196 0.6300 0.0617
H23_3 H 0.7462 0.5240 0.0761
N7_3 N 0.7742(4) 0.6536(4) 0.7957(15)
C28_3 C 0.7493(5) 0.6139(5) 0.9522(19)
C29_3 C 0.7648(6) 0.5506(5) 0.961(2)
C30_3 C 0.8090(6) 0.5249(5) 0.797(3)
H24_3 H 0.8206 0.4815 0.8014
C31_3 C 0.8346(5) 0.5662(5) 0.631(2)
C32_3 C 0.8168(5) 0.6307(5) 0.6362(19)
H25_3 H 0.8349 0.6590 0.5260
N8_3 N 0.8759(4) 0.5401(4) 0.4535(18)
H26_3 H 0.8738 0.4990 0.4302
C33_3 C 0.9185(5) 0.5736(5) 0.3168(19)
O4_3 O 0.9248(4) 0.6325(4) 0.3229(16)
C34_3 C 0.9601(5) 0.5350(5) 0.1532(18)
C36_3 C 0.9781(6) 0.4708(5) 0.203(2)
H28_3 H 0.9632 0.4506 0.3405
C35_3 C 0.9818(6) 0.5625(6) 0.953(2)
H27_3 H 0.9698 0.6048 0.9175
Br2 Br 0.7500 0.7500 0.2924(4)
Br3 Br 0.8933(3) 0.1745(3) 0.7617(13)
Br3_2 Br 0.3255(3) 0.8933(3) 0.7617(13)
Br3_3 Br 0.6067(3) 0.3255(3) 0.7617(13)
Br3_4 Br 0.1745(3) 0.6067(3) 0.7617(13)
Br3_5 Br 0.1067(3) 0.8255(3) 0.2383(13)
Br3_6 Br 0.6745(3) 0.1067(3) 0.2383(13)
Br3_7 Br 0.3933(3) 0.6745(3) 0.2383(13)
Br3_8 Br 0.8255(3) 0.3933(3) 0.2383(13)
loop_
_geom_bond_atom_site_label_1
_geom_bond_atom_site_label_2
_geom_bond_site_symmetry_1
_geom_bond_site_symmetry_2
H6 C8 1_555 1_555
H20 C26 1_555 1_555
C36 C26 1_555 1_555
H28 C36 1_555 1_555
Cu2 Br1 1_555 1_555
N1 Cu2 1_555 1_555
C1 N1 1_555 1_555
C2 C1 1_555 1_555
C3 C2 1_555 1_555
C4 C3 1_555 1_555
C5 N1 1_555 1_555
H4 C5 1_555 1_555
N2 C4 1_555 1_555
C6 N2 1_555 1_555
O1 C6 1_555 1_555
C7 C6 1_555 1_555
N5 Cu2 1_555 1_555
C19 N5 1_555 1_555
C20 C19 1_555 1_555
C21 C20 1_555 1_555
C22 C21 1_555 1_555
C23 N5 1_555 1_555
H18 C23 1_555 1_555
N6 C22 1_555 1_555
C24 N6 1_555 1_555
O3 C24 1_555 1_555
C25 C24 1_555 1_555
N9 Cu2 1_555 1_555
N10 Cu2 1_555 1_555
C4 C5 1_555 1_555
C22 C23 1_555 1_555
H14 C18 1_555 1_555
N7 C28 1_555 1_555
C29 C28 1_555 1_555
C30 C29 1_555 1_555
C31 C30 1_555 1_555
C32 N7 1_555 1_555
H25 C32 1_555 1_555
N8 C31 1_555 1_555
C33 N8 1_555 1_555
O4 C33 1_555 1_555
C34 C33 1_555 1_555
Cu4 N7 1_555 1_555
C31 C32 1_555 1_555
H21 C27 1_555 1_555
C35 C27 1_555 1_555
H27 C35 1_555 1_555
H7 C9 1_555 1_555
N3 C10 1_555 1_555
C11 C10 1_555 1_555
C12 C11 1_555 1_555
C13 C12 1_555 1_555
C14 N3 1_555 1_555
H11 C14 1_555 1_555
N4 C13 1_555 1_555
C15 N4 1_555 1_555
O2 C15 1_555 1_555
C16 C15 1_555 1_555
Cu4 N3 1_555 1_555
C13 C14 1_555 1_555
H13 C17 1_555 1_555
H20_2 C26_2 1_555 1_555
N7_2 C28_2 1_555 1_555
C29_2 C28_2 1_555 1_555
C30_2 C29_2 1_555 1_555
H24_2 C30_2 1_555 1_555
C31_2 C30_2 1_555 1_555
C32_2 N7_2 1_555 1_555
H25_2 C32_2 1_555 1_555
N8_2 C31_2 1_555 1_555
H26_2 N8_2 1_555 1_555
C33_2 N8_2 1_555 1_555
O4_2 C33_2 1_555 1_555
C34_2 C33_2 1_555 1_555
C36_2 C26_2 1_555 1_555
H28_2 C36_2 1_555 1_555
Cu4 N7_2 1_555 1_555
C31_2 C32_2 1_555 1_555
C34_2 C36_2 1_555 1_555
C19_2 N9 1_555 1_555
C20_2 C19_2 1_555 1_555
C21_2 C20_2 1_555 1_555
H17_2 C21_2 1_555 1_555
C22_2 C21_2 1_555 1_555
C23_2 N9 1_555 1_555
H18_2 C23_2 1_555 1_555
N6_2 C22_2 1_555 1_555
H19_2 N6_2 1_555 1_555
C24_2 N6_2 1_555 1_555
O3_2 C24_2 1_555 1_555
C25_2 C24_2 1_555 1_555
C27_2 C25_2 1_555 1_555
H21_2 C27_2 1_555 1_555
C35_2 C27_2 1_555 1_555
H27_2 C35_2 1_555 1_555
C22_2 C23_2 1_555 1_555
H20_3 C26_3 1_555 1_555
C19_3 N10 1_555 1_555
C20_3 C19_3 1_555 1_555
C21_3 C20_3 1_555 1_555
H17_3 C21_3 1_555 1_555
C22_3 C21_3 1_555 1_555
C23_3 N10 1_555 1_555
H18_3 C23_3 1_555 1_555
N6_3 C22_3 1_555 1_555
H19_3 N6_3 1_555 1_555
C24_3 N6_3 1_555 1_555
O3_3 C24_3 1_555 1_555
C25_3 C24_3 1_555 1_555
C27_3 C25_3 1_555 1_555
H21_3 C27_3 1_555 1_555
C22_3 C23_3 1_555 1_555
N7_3 C28_3 1_555 1_555
C29_3 C28_3 1_555 1_555
C30_3 C29_3 1_555 1_555
H24_3 C30_3 1_555 1_555
C31_3 C30_3 1_555 1_555
C32_3 N7_3 1_555 1_555
H25_3 C32_3 1_555 1_555
N8_3 C31_3 1_555 1_555
H26_3 N8_3 1_555 1_555
C33_3 N8_3 1_555 1_555
O4_3 C33_3 1_555 1_555
C34_3 C33_3 1_555 1_555
H28_3 C36_3 1_555 1_555
Cu4 N7_3 1_555 1_555
C31_3 C32_3 1_555 1_555
C34_3 C36_3 1_555 1_555
H27_3 C35_3 1_555 1_555
Cu4 Br2 1_555 1_555

#END
