
###############################################################################
#
# This file contains modified crystal structure data generated from the
# MOF subset of the Cambridge Structural Database (CSD) v543 
# hosted by the Cambridge Crystallographic Data Centre (CCDC).
#
# This work is licensed under the Creative Commons
# Attribution-NonCommercial-ShareAlike 4.0 International License.
# To view a copy of this license, visit
# http://creativecommons.org/licenses/by-nc-sa/4.0/
# or send a letter to
# Creative Commons, PO Box 1866, Mountain View, CA 94042, USA.
#
# CIF created using the CSD Python API on 29 September 2022
# The structure has been converted into the P1 space group
# The structure has a 3D framework
# The original CSD entry XUMMEZ is in the tetragonal crystal system
# The framework has been calculated to contain at least 10.0% void space
# The void calculation uses a probe of radius 1.32A, grid spacing 0.4
# The framework is charged, counterions have been retained in the structure
#
###############################################################################

data_XUMMEZ
_chemical_formula_moiety         '(C72 H56 Cl10 Cu2 N16 O8 6-)n'
_symmetry_cell_setting           triclinic
_symmetry_space_group_name_H-M   'P 1'
_symmetry_Int_Tables_number      1
_space_group_name_Hall           'P 1'
loop_
_symmetry_equiv_pos_site_id
_symmetry_equiv_pos_as_xyz
1 x,y,z
_cell_length_a                   20.2967(10)
_cell_length_b                   20.2967(10)
_cell_length_c                   5.4228(6)
_cell_angle_alpha                90
_cell_angle_beta                 90
_cell_angle_gamma                90
_cell_volume                     2233.96
loop_
_atom_site_label
_atom_site_type_symbol
_atom_site_fract_x
_atom_site_fract_y
_atom_site_fract_z
Cl1 Cl 0.6846(5) 0.0650(5) 0.073(2)
Cl1_2 Cl 0.8154(5) 0.4350(5) 0.073(2)
Cl1_3 Cl 0.4350(5) 0.6846(5) 0.073(2)
Cl1_4 Cl 0.0650(5) 0.8154(5) 0.073(2)
Cl1_5 Cl 0.3154(5) 0.9350(5) 0.927(2)
Cl1_6 Cl 0.1846(5) 0.5650(5) 0.927(2)
Cl1_7 Cl 0.5650(5) 0.3154(5) 0.927(2)
Cl1_8 Cl 0.9350(5) 0.1846(5) 0.927(2)
N3 N 0.2242(2) 0.1529(2) 0.3546(9)
C10 C 0.1654(3) 0.0644(3) 0.1702(11)
C11 C 0.1925(3) 0.0208(3) 0.3368(12)
C12 C 0.1823(3) 0.1305(3) 0.1843(10)
H9 H 0.1639 0.1600 0.0723
C13 C 0.2502(3) 0.1109(3) 0.5181(11)
H10 H 0.2787 0.1268 0.6382
C14 C 0.2355(3) 0.0442(3) 0.5128(12)
H11 H 0.2545 0.0157 0.6266
Cu4 Cu 0.2500 0.2500 0.3619(2)
O2 O 0.0634(2) 0.1312(2) 0.8997(8)
C15 C 0.0753(3) 0.0726(3) 0.8605(11)
N4 N 0.1234(2) 0.0394(2) 0.9820(10)
C17 C 0.0370(3) 0.0338(3) 0.6776(11)
C18 C 0.0073(3) 0.0675(3) 0.4842(12)
H14 H 0.0125 0.1129 0.4725
H8 H 0.1820 0.9762 0.3304
H12 H 0.1290 0.9988 0.9410
C16 C 0.0298(3) 0.9654(3) 0.6919(12)
H13 H 0.0499 0.9420 0.8188
N7 N 0.3471(2) 0.2242(2) 0.3546(9)
C28 C 0.4356(3) 0.1654(3) 0.1702(11)
C29 C 0.4792(3) 0.1925(3) 0.3368(12)
H22 H 0.5238 0.1820 0.3304
C30 C 0.3695(3) 0.1823(3) 0.1843(10)
H23 H 0.3400 0.1639 0.0723
C31 C 0.3891(3) 0.2502(3) 0.5181(11)
H24 H 0.3732 0.2787 0.6382
C32 C 0.4558(3) 0.2355(3) 0.5128(12)
H25 H 0.4843 0.2545 0.6266
H5 H 0.8710 0.0012 0.0590
C7 C 0.9702(3) 0.0346(3) 0.3081(12)
H6 H 0.9501 0.0580 0.1812
O4 O 0.3688(2) 0.0634(2) 0.8997(8)
C33 C 0.4274(3) 0.0753(3) 0.8605(11)
N8 N 0.4606(2) 0.1234(2) 0.9820(10)
H26 H 0.5012 0.1290 0.9410
C34 C 0.5346(3) 0.0298(3) 0.6919(12)
H27 H 0.5580 0.0499 0.8188
C35 C 0.4662(3) 0.0370(3) 0.6776(11)
C36 C 0.4325(3) 0.0073(3) 0.4842(12)
H28 H 0.3871 0.0125 0.4725
H1 H 0.8180 0.0238 0.6696
O1 O 0.9366(2) 0.8688(2) 0.1003(8)
C6 C 0.9247(3) 0.9274(3) 0.1395(11)
N2 N 0.8766(2) 0.9606(2) 0.0180(10)
C8 C 0.9630(3) 0.9662(3) 0.3224(11)
C9 C 0.9927(3) 0.9325(3) 0.5158(12)
H7 H 0.9875 0.8871 0.5275
O3 O 0.6312(2) 0.9366(2) 0.1003(8)
C24 C 0.5726(3) 0.9247(3) 0.1395(11)
N6 N 0.5394(2) 0.8766(2) 0.0180(10)
H19 H 0.4988 0.8710 0.0590
C25 C 0.4654(3) 0.9702(3) 0.3081(12)
H20 H 0.4420 0.9501 0.1812
C26 C 0.5338(3) 0.9630(3) 0.3224(11)
C27 C 0.5675(3) 0.9927(3) 0.5158(12)
H21 H 0.6129 0.9875 0.5275
Cl3 Cl 0.7500 0.7500 0.1518(5)
Cu1 Cu 0.7500 0.7500 0.6381(2)
N1 N 0.7758(2) 0.8471(2) 0.6454(9)
C1 C 0.8346(3) 0.9356(3) 0.8298(11)
C2 C 0.8075(3) 0.9792(3) 0.6632(12)
C3 C 0.8177(3) 0.8695(3) 0.8157(10)
H2 H 0.8361 0.8400 0.9277
C4 C 0.7498(3) 0.8891(3) 0.4819(11)
H3 H 0.7213 0.8732 0.3618
C5 C 0.7645(3) 0.9558(3) 0.4872(12)
H4 H 0.7455 0.9843 0.3734
N5 N 0.6529(2) 0.7758(2) 0.6454(9)
C19 C 0.5644(3) 0.8346(3) 0.8298(11)
C20 C 0.5208(3) 0.8075(3) 0.6632(12)
H15 H 0.4762 0.8180 0.6696
C21 C 0.6305(3) 0.8177(3) 0.8157(10)
H16 H 0.6600 0.8361 0.9277
C22 C 0.6109(3) 0.7498(3) 0.4819(11)
H17 H 0.6268 0.7213 0.3618
C23 C 0.5442(3) 0.7645(3) 0.4872(12)
H18 H 0.5157 0.7455 0.3734
N9 N 0.7242(2) 0.6529(2) 0.6454(9)
N10 N 0.8471(2) 0.7242(2) 0.6454(9)
N7_2 N 0.1529(2) 0.2758(2) 0.3546(9)
C28_2 C 0.0644(3) 0.3346(3) 0.1702(11)
C29_2 C 0.0208(3) 0.3075(3) 0.3368(12)
C30_2 C 0.1305(3) 0.3177(3) 0.1843(10)
H23_2 H 0.1600 0.3361 0.0723
C31_2 C 0.1109(3) 0.2498(3) 0.5181(11)
H24_2 H 0.1268 0.2213 0.6382
C32_2 C 0.0442(3) 0.2645(3) 0.5128(12)
H25_2 H 0.0157 0.2455 0.6266
H19_2 H 0.0012 0.6290 0.0590
C25_2 C 0.0346(3) 0.5298(3) 0.3081(12)
H20_2 H 0.0580 0.5499 0.1812
O4_2 O 0.1312(2) 0.4366(2) 0.8997(8)
C33_2 C 0.0726(3) 0.4247(3) 0.8605(11)
N8_2 N 0.0394(2) 0.3766(2) 0.9820(10)
C35_2 C 0.0338(3) 0.4630(3) 0.6776(11)
C36_2 C 0.0675(3) 0.4927(3) 0.4842(12)
H28_2 H 0.1129 0.4875 0.4725
H15_2 H 0.0238 0.6820 0.6696
N3_2 N 0.2758(2) 0.3471(2) 0.3546(9)
C10_2 C 0.3346(3) 0.4356(3) 0.1702(11)
C11_2 C 0.3075(3) 0.4792(3) 0.3368(12)
H8_2 H 0.3180 0.5238 0.3304
C12_2 C 0.3177(3) 0.3695(3) 0.1843(10)
H9_2 H 0.3361 0.3400 0.0723
C13_2 C 0.2498(3) 0.3891(3) 0.5181(11)
H10_2 H 0.2213 0.3732 0.6382
C14_2 C 0.2645(3) 0.4558(3) 0.5128(12)
H11_2 H 0.2455 0.4843 0.6266
H22_2 H 0.9762 0.3180 0.3304
O1_2 O 0.5634(2) 0.6312(2) 0.1003(8)
C6_2 C 0.5753(3) 0.5726(3) 0.1395(11)
N2_2 N 0.6234(2) 0.5394(2) 0.0180(10)
H5_2 H 0.6290 0.4988 0.0590
C7_2 C 0.5298(3) 0.4654(3) 0.3081(12)
H6_2 H 0.5499 0.4420 0.1812
C8_2 C 0.5370(3) 0.5338(3) 0.3224(11)
C9_2 C 0.5073(3) 0.5675(3) 0.5158(12)
H7_2 H 0.5125 0.6129 0.5275
O2_2 O 0.4366(2) 0.3688(2) 0.8997(8)
C15_2 C 0.4247(3) 0.4274(3) 0.8605(11)
N4_2 N 0.3766(2) 0.4606(2) 0.9820(10)
H12_2 H 0.3710 0.5012 0.9410
C16_2 C 0.4702(3) 0.5346(3) 0.6919(12)
H13_2 H 0.4501 0.5580 0.8188
C17_2 C 0.4630(3) 0.4662(3) 0.6776(11)
C18_2 C 0.4927(3) 0.4325(3) 0.4842(12)
H14_2 H 0.4875 0.3871 0.4725
O3_2 O 0.8688(2) 0.5634(2) 0.1003(8)
C24_2 C 0.9274(3) 0.5753(3) 0.1395(11)
N6_2 N 0.9606(2) 0.6234(2) 0.0180(10)
C26_2 C 0.9662(3) 0.5370(3) 0.3224(11)
C27_2 C 0.9325(3) 0.5073(3) 0.5158(12)
H21_2 H 0.8871 0.5125 0.5275
H26_2 H 0.9988 0.3710 0.9410
C34_2 C 0.9654(3) 0.4702(3) 0.6919(12)
H27_2 H 0.9420 0.4501 0.8188
C1_2 C 0.6654(3) 0.5644(3) 0.8298(11)
C2_2 C 0.6925(3) 0.5208(3) 0.6632(12)
H1_2 H 0.6820 0.4762 0.6696
C3_2 C 0.6823(3) 0.6305(3) 0.8157(10)
H2_2 H 0.6639 0.6600 0.9277
C4_2 C 0.7502(3) 0.6109(3) 0.4819(11)
H3_2 H 0.7787 0.6268 0.3618
C5_2 C 0.7355(3) 0.5442(3) 0.4872(12)
H4_2 H 0.7545 0.5157 0.3734
C19_2 C 0.9356(3) 0.6654(3) 0.8298(11)
C20_2 C 0.9792(3) 0.6925(3) 0.6632(12)
C21_2 C 0.8695(3) 0.6823(3) 0.8157(10)
H16_2 H 0.8400 0.6639 0.9277
C22_2 C 0.8891(3) 0.7502(3) 0.4819(11)
H17_2 H 0.8732 0.7787 0.3618
C23_2 C 0.9558(3) 0.7355(3) 0.4872(12)
H18_2 H 0.9843 0.7545 0.3734
Cl2 Cl 0.2500 0.2500 0.8482(5)
loop_
_geom_bond_atom_site_label_1
_geom_bond_atom_site_label_2
_geom_bond_site_symmetry_1
_geom_bond_site_symmetry_2
N3 C12 1_555 1_555
C10 C11 1_555 1_555
C12 C10 1_555 1_555
H9 C12 1_555 1_555
C13 N3 1_555 1_555
H10 C13 1_555 1_555
C14 C11 1_555 1_555
H11 C14 1_555 1_555
Cu4 N3 1_555 1_555
C13 C14 1_555 1_555
O2 C15 1_555 1_555
C15 N4 1_555 1_555
C17 C15 1_555 1_555
H14 C18 1_555 1_555
C17 C18 1_555 1_555
H13 C16 1_555 1_555
N7 C30 1_555 1_555
C28 C29 1_555 1_555
C29 H22 1_555 1_555
C30 C28 1_555 1_555
H23 C30 1_555 1_555
C31 N7 1_555 1_555
H24 C31 1_555 1_555
C32 C29 1_555 1_555
H25 C32 1_555 1_555
Cu4 N7 1_555 1_555
C31 C32 1_555 1_555
C7 H6 1_555 1_555
O4 C33 1_555 1_555
C33 N8 1_555 1_555
H26 N8 1_555 1_555
H27 C34 1_555 1_555
C35 C33 1_555 1_555
H28 C36 1_555 1_555
C34 C35 1_555 1_555
C35 C36 1_555 1_555
O1 C6 1_555 1_555
C6 N2 1_555 1_555
C8 C6 1_555 1_555
C9 C8 1_555 1_555
H7 C9 1_555 1_555
O3 C24 1_555 1_555
C24 N6 1_555 1_555
H19 N6 1_555 1_555
C25 H20 1_555 1_555
C26 C24 1_555 1_555
C27 C26 1_555 1_555
H21 C27 1_555 1_555
C25 C26 1_555 1_555
Cu1 Cl3 1_555 1_555
N1 Cu1 1_555 1_555
C1 C2 1_555 1_555
C3 N1 1_555 1_555
H2 C3 1_555 1_555
C4 N1 1_555 1_555
H3 C4 1_555 1_555
C5 C2 1_555 1_555
H4 C5 1_555 1_555
N5 Cu1 1_555 1_555
C19 C20 1_555 1_555
C20 H15 1_555 1_555
C21 N5 1_555 1_555
H16 C21 1_555 1_555
C22 N5 1_555 1_555
H17 C22 1_555 1_555
C23 C20 1_555 1_555
H18 C23 1_555 1_555
N9 Cu1 1_555 1_555
N10 Cu1 1_555 1_555
C1 C3 1_555 1_555
C4 C5 1_555 1_555
C19 C21 1_555 1_555
C22 C23 1_555 1_555
N7_2 C30_2 1_555 1_555
C28_2 C29_2 1_555 1_555
C30_2 C28_2 1_555 1_555
H23_2 C30_2 1_555 1_555
C31_2 N7_2 1_555 1_555
H24_2 C31_2 1_555 1_555
C32_2 C29_2 1_555 1_555
H25_2 C32_2 1_555 1_555
Cu4 N7_2 1_555 1_555
C31_2 C32_2 1_555 1_555
C25_2 H20_2 1_555 1_555
O4_2 C33_2 1_555 1_555
C33_2 N8_2 1_555 1_555
C35_2 C33_2 1_555 1_555
C36_2 C25_2 1_555 1_555
H28_2 C36_2 1_555 1_555
C35_2 C36_2 1_555 1_555
N3_2 C12_2 1_555 1_555
C10_2 C11_2 1_555 1_555
C11_2 H8_2 1_555 1_555
C12_2 C10_2 1_555 1_555
H9_2 C12_2 1_555 1_555
C13_2 N3_2 1_555 1_555
H10_2 C13_2 1_555 1_555
C14_2 C11_2 1_555 1_555
H11_2 C14_2 1_555 1_555
Cu4 N3_2 1_555 1_555
C13_2 C14_2 1_555 1_555
O1_2 C6_2 1_555 1_555
C6_2 N2_2 1_555 1_555
H5_2 N2_2 1_555 1_555
C7_2 H6_2 1_555 1_555
C8_2 C6_2 1_555 1_555
C9_2 C8_2 1_555 1_555
H7_2 C9_2 1_555 1_555
O2_2 C15_2 1_555 1_555
C15_2 N4_2 1_555 1_555
H12_2 N4_2 1_555 1_555
C16_2 C9_2 1_555 1_555
H13_2 C16_2 1_555 1_555
C17_2 C15_2 1_555 1_555
C18_2 C7_2 1_555 1_555
H14_2 C18_2 1_555 1_555
O3_2 C24_2 1_555 1_555
C24_2 N6_2 1_555 1_555
C26_2 C24_2 1_555 1_555
C27_2 C26_2 1_555 1_555
H21_2 C27_2 1_555 1_555
C34_2 C27_2 1_555 1_555
H27_2 C34_2 1_555 1_555
C7_2 C8_2 1_555 1_555
C16_2 C17_2 1_555 1_555
C17_2 C18_2 1_555 1_555
C1_2 C2_2 1_555 1_555
C2_2 H1_2 1_555 1_555
C3_2 N9 1_555 1_555
H2_2 C3_2 1_555 1_555
C4_2 N9 1_555 1_555
H3_2 C4_2 1_555 1_555
C5_2 C2_2 1_555 1_555
H4_2 C5_2 1_555 1_555
C19_2 C20_2 1_555 1_555
C21_2 N10 1_555 1_555
H16_2 C21_2 1_555 1_555
C22_2 N10 1_555 1_555
H17_2 C22_2 1_555 1_555
C23_2 C20_2 1_555 1_555
H18_2 C23_2 1_555 1_555
C1_2 C3_2 1_555 1_555
C4_2 C5_2 1_555 1_555
C19_2 C21_2 1_555 1_555
C22_2 C23_2 1_555 1_555
Cu4 Cl2 1_555 1_555

#END
