
###############################################################################
#
# This file contains modified crystal structure data generated from the
# MOF subset of the Cambridge Structural Database (CSD) v543 
# hosted by the Cambridge Crystallographic Data Centre (CCDC).
#
# This work is licensed under the Creative Commons
# Attribution-NonCommercial-ShareAlike 4.0 International License.
# To view a copy of this license, visit
# http://creativecommons.org/licenses/by-nc-sa/4.0/
# or send a letter to
# Creative Commons, PO Box 1866, Mountain View, CA 94042, USA.
#
# CIF created using the CSD Python API on 29 September 2022
# The structure has been converted into the P1 space group
# The structure has a 3D framework
# The original CSD entry XUMMUP is in the tetragonal crystal system
# The framework has been calculated to contain at least 10.0% void space
# The void calculation uses a probe of radius 1.32A, grid spacing 0.4
# The framework is charged, counterions have been retained in the structure
#
###############################################################################

data_XUMMUP
_chemical_formula_moiety         '(C72 H56 Cl4 Cu2 N16 O8 2-)n'
_symmetry_cell_setting           triclinic
_symmetry_space_group_name_H-M   'P 1'
_symmetry_Int_Tables_number      1
_space_group_name_Hall           'P 1'
loop_
_symmetry_equiv_pos_site_id
_symmetry_equiv_pos_as_xyz
1 x,y,z
_cell_length_a                   21.6145(4)
_cell_length_b                   21.6145(4)
_cell_length_c                   5.16780(10)
_cell_angle_alpha                90
_cell_angle_beta                 90
_cell_angle_gamma                90
_cell_volume                     2414.33
loop_
_atom_site_label
_atom_site_type_symbol
_atom_site_fract_x
_atom_site_fract_y
_atom_site_fract_z
Cl1 Cl -0.0000 0.0000 0.2016(7)
Cu2 Cu -0.0000 0.0000 0.7043(2)
N9 N 0.08810(12) 0.03654(12) 0.7003(9)
Cl1_2 Cl -0.0000 1.0000 0.2016(7)
N6 N 0.15626(17) 0.81999(16) 0.0380(9)
H19 H 0.1614 0.7810 0.0637
C24 C 0.19518(18) 0.85903(18) 0.1639(9)
O3 O 0.18921(15) 0.91541(14) 0.1708(10)
C25 C 0.24858(18) 0.82785(18) 0.2941(9)
C26 C 0.27541(18) 0.77541(18) 0.1866(14)
H20 H 0.2579 0.7579 0.0395
C27 C 0.2759(2) 0.85479(19) 0.5092(10)
H21 H 0.2591 0.8906 0.5801
C28 C 0.3285(2) 0.8285(2) 0.6196(14)
H22 H 0.3459 0.8459 0.7668
N8 N 0.31999(16) 0.65626(17) 0.0380(9)
H27 H 0.2810 0.6614 0.0637
C34 C 0.35903(18) 0.69518(18) 0.1639(9)
O4 O 0.41541(14) 0.68921(15) 0.1708(10)
C35 C 0.32785(18) 0.74858(18) 0.2941(9)
C36 C 0.35479(19) 0.7759(2) 0.5092(10)
H28 H 0.3906 0.7591 0.5801
Cu2_2 Cu -0.0000 1.0000 0.7043(2)
N5 N 0.03654(12) 0.91190(12) 0.7003(9)
C19 C 0.01571(18) 0.87016(17) 0.5338(10)
C20 C 0.03975(19) 0.81005(18) 0.5220(11)
H16 H 0.0247 0.7816 0.4026
C21 C 0.08667(18) 0.79407(16) 0.6935(12)
H17 H 0.1035 0.7545 0.6905
C22 C 0.10824(17) 0.83762(17) 0.8691(9)
C23 C 0.08084(17) 0.89613(17) 0.8688(9)
H18 H 0.0938 0.9252 0.9899
N7 N 0.41190(12) 0.53654(12) 0.7003(9)
C29 C 0.37016(17) 0.51571(18) 0.5338(10)
H23 H 0.3812 0.4841 0.4209
C30 C 0.31005(18) 0.53975(19) 0.5220(11)
H24 H 0.2816 0.5247 0.4026
C31 C 0.29407(16) 0.58667(18) 0.6935(12)
H25 H 0.2545 0.6035 0.6905
C32 C 0.33762(17) 0.60824(17) 0.8691(9)
C33 C 0.39613(17) 0.58084(17) 0.8688(9)
H26 H 0.4252 0.5938 0.9899
Cu4 Cu 0.5000 0.5000 0.7043(2)
Cl1_3 Cl 1.0000 0.0000 0.2016(7)
Cu2_3 Cu 1.0000 0.0000 0.7043(2)
H1 H 0.8812 0.0159 0.4209
N10 N 0.96346(12) 0.08810(12) 0.7003(9)
Cl1_4 Cl 1.0000 1.0000 0.2016(7)
N2 N 0.81999(16) 0.84374(17) 0.0380(9)
H5 H 0.7810 0.8386 0.0637
C6 C 0.85903(18) 0.80482(18) 0.1639(9)
O1 O 0.91541(14) 0.81079(15) 0.1708(10)
C7 C 0.82785(18) 0.75142(18) 0.2941(9)
C8 C 0.77541(18) 0.72459(18) 0.1866(14)
H6 H 0.7579 0.7421 0.0395
C9 C 0.85479(19) 0.7241(2) 0.5092(10)
H7 H 0.8906 0.7409 0.5801
C10 C 0.8285(2) 0.6715(2) 0.6196(14)
H8 H 0.8459 0.6541 0.7668
N4 N 0.65626(17) 0.68001(16) 0.0380(9)
H13 H 0.6614 0.7190 0.0637
C16 C 0.69518(18) 0.64097(18) 0.1639(9)
O2 O 0.68921(15) 0.58459(14) 0.1708(10)
C17 C 0.74858(18) 0.67215(18) 0.2941(9)
C18 C 0.7759(2) 0.64521(19) 0.5092(10)
H14 H 0.7591 0.6094 0.5801
Cu2_4 Cu 1.0000 1.0000 0.7043(2)
N1 N 0.91190(12) 0.96346(12) 0.7003(9)
C1 C 0.87016(17) 0.98429(18) 0.5338(10)
C2 C 0.81005(18) 0.96025(19) 0.5220(11)
H2 H 0.7816 0.9753 0.4026
C3 C 0.79407(16) 0.91333(18) 0.6935(12)
H3 H 0.7545 0.8965 0.6905
C4 C 0.83762(17) 0.89176(17) 0.8691(9)
C5 C 0.89613(17) 0.91916(17) 0.8688(9)
H4 H 0.9252 0.9062 0.9899
N3 N 0.53654(12) 0.58810(12) 0.7003(9)
C11 C 0.51571(18) 0.62984(17) 0.5338(10)
H9 H 0.4841 0.6188 0.4209
C12 C 0.53975(19) 0.68995(18) 0.5220(11)
H10 H 0.5247 0.7184 0.4026
C13 C 0.58667(18) 0.70593(16) 0.6935(12)
H11 H 0.6035 0.7455 0.6905
C14 C 0.60824(17) 0.66238(17) 0.8691(9)
C15 C 0.58084(17) 0.60387(17) 0.8688(9)
H12 H 0.5938 0.5748 0.9899
H15 H 0.9841 0.8812 0.4209
N6_2 N 0.18001(16) 0.15626(17) 0.0380(9)
H19_2 H 0.2190 0.1614 0.0637
C24_2 C 0.14097(18) 0.19518(18) 0.1639(9)
O3_2 O 0.08459(14) 0.18921(15) 0.1708(10)
C25_2 C 0.17215(18) 0.24858(18) 0.2941(9)
C26_2 C 0.22459(18) 0.27541(18) 0.1866(14)
H20_2 H 0.2421 0.2579 0.0395
C27_2 C 0.14521(19) 0.2759(2) 0.5092(10)
H21_2 H 0.1094 0.2591 0.5801
C28_2 C 0.1715(2) 0.3285(2) 0.6196(14)
H22_2 H 0.1541 0.3459 0.7668
N8_2 N 0.34374(17) 0.31999(16) 0.0380(9)
H27_2 H 0.3386 0.2810 0.0637
C34_2 C 0.30482(18) 0.35903(18) 0.1639(9)
O4_2 O 0.31079(15) 0.41541(14) 0.1708(10)
C35_2 C 0.25142(18) 0.32785(18) 0.2941(9)
C36_2 C 0.2241(2) 0.35479(19) 0.5092(10)
H28_2 H 0.2409 0.3906 0.5801
C19_2 C 0.12984(17) 0.01571(18) 0.5338(10)
C20_2 C 0.18995(18) 0.03975(19) 0.5220(11)
H16_2 H 0.2184 0.0247 0.4026
C21_2 C 0.20593(16) 0.08667(18) 0.6935(12)
H17_2 H 0.2455 0.1035 0.6905
C22_2 C 0.16238(17) 0.10824(17) 0.8691(9)
C23_2 C 0.10387(17) 0.08084(17) 0.8688(9)
H18_2 H 0.0748 0.0938 0.9899
N7_2 N 0.46346(12) 0.41190(12) 0.7003(9)
C29_2 C 0.48429(18) 0.37016(17) 0.5338(10)
H23_2 H 0.5159 0.3812 0.4209
C30_2 C 0.46025(19) 0.31005(18) 0.5220(11)
H24_2 H 0.4753 0.2816 0.4026
C31_2 C 0.41333(18) 0.29407(16) 0.6935(12)
H25_2 H 0.3965 0.2545 0.6905
C32_2 C 0.39176(17) 0.33762(17) 0.8691(9)
C33_2 C 0.41916(17) 0.39613(17) 0.8688(9)
H26_2 H 0.4062 0.4252 0.9899
H15_2 H 0.1188 0.9841 0.4209
H15_3 H 0.0159 0.1188 0.4209
N6_3 N 0.84374(17) 0.18001(16) 0.0380(9)
H19_3 H 0.8386 0.2190 0.0637
C24_3 C 0.80482(18) 0.14097(18) 0.1639(9)
O3_3 O 0.81079(15) 0.08459(14) 0.1708(10)
C25_3 C 0.75142(18) 0.17215(18) 0.2941(9)
C26_3 C 0.72459(18) 0.22459(18) 0.1866(14)
H20_3 H 0.7421 0.2421 0.0395
C27_3 C 0.7241(2) 0.14521(19) 0.5092(10)
H21_3 H 0.7409 0.1094 0.5801
C28_3 C 0.6715(2) 0.1715(2) 0.6196(14)
H22_3 H 0.6541 0.1541 0.7668
N8_3 N 0.68001(16) 0.34374(17) 0.0380(9)
H27_3 H 0.7190 0.3386 0.0637
C34_3 C 0.64097(18) 0.30482(18) 0.1639(9)
O4_3 O 0.58459(14) 0.31079(15) 0.1708(10)
C35_3 C 0.67215(18) 0.25142(18) 0.2941(9)
C36_3 C 0.64521(19) 0.2241(2) 0.5092(10)
H28_3 H 0.6094 0.2409 0.5801
C19_3 C 0.98429(18) 0.12984(17) 0.5338(10)
C20_3 C 0.96025(19) 0.18995(18) 0.5220(11)
H16_3 H 0.9753 0.2184 0.4026
C21_3 C 0.91333(18) 0.20593(16) 0.6935(12)
H17_3 H 0.8965 0.2455 0.6905
C22_3 C 0.89176(17) 0.16238(17) 0.8691(9)
C23_3 C 0.91916(17) 0.10387(17) 0.8688(9)
H18_3 H 0.9062 0.0748 0.9899
N7_3 N 0.58810(12) 0.46346(12) 0.7003(9)
C29_3 C 0.62984(17) 0.48429(18) 0.5338(10)
H23_3 H 0.6188 0.5159 0.4209
C30_3 C 0.68995(18) 0.46025(19) 0.5220(11)
H24_3 H 0.7184 0.4753 0.4026
C31_3 C 0.70593(16) 0.41333(18) 0.6935(12)
H25_3 H 0.7455 0.3965 0.6905
C32_3 C 0.66238(17) 0.39176(17) 0.8691(9)
C33_3 C 0.60387(17) 0.41916(17) 0.8688(9)
H26_3 H 0.5748 0.4062 0.9899
Cl1_5 Cl 0.5000 0.5000 0.2016(7)
Cl3 Cl 0.67464(17) 0.82536(17) 0.0371(14)
Cl3_2 Cl 0.17464(17) 0.67464(17) 0.0371(14)
Cl3_3 Cl 0.32536(17) 0.17464(17) 0.0371(14)
Cl3_4 Cl 0.82536(17) 0.32536(17) 0.0371(14)
loop_
_geom_bond_atom_site_label_1
_geom_bond_atom_site_label_2
_geom_bond_site_symmetry_1
_geom_bond_site_symmetry_2
Cl1 Cu2 1_555 1_555
N9 Cu2 1_555 1_555
Cl1_2 Cu2_2 1_555 1_555
H19 N6 1_555 1_555
C24 N6 1_555 1_555
O3 C24 1_555 1_555
C25 C24 1_555 1_555
C26 C25 1_555 1_555
H20 C26 1_555 1_555
C27 C25 1_555 1_555
H21 C27 1_555 1_555
C28 C27 1_555 1_555
H22 C28 1_555 1_555
H27 N8 1_555 1_555
C34 N8 1_555 1_555
O4 C34 1_555 1_555
C35 C26 1_555 1_555
C36 C28 1_555 1_555
H28 C36 1_555 1_555
C34 C35 1_555 1_555
C35 C36 1_555 1_555
N5 Cu2_2 1_555 1_555
C19 N5 1_555 1_555
C20 C19 1_555 1_555
H16 C20 1_555 1_555
C21 C20 1_555 1_555
H17 C21 1_555 1_555
C22 C21 1_555 1_555
C23 N5 1_555 1_555
H18 C23 1_555 1_555
N7 C29 1_555 1_555
C29 H23 1_555 1_555
C30 C29 1_555 1_555
H24 C30 1_555 1_555
C31 C30 1_555 1_555
H25 C31 1_555 1_555
C32 C31 1_555 1_555
C33 N7 1_555 1_555
H26 C33 1_555 1_555
Cu4 N7 1_555 1_555
C22 C23 1_555 1_555
C32 C33 1_555 1_555
Cl1_3 Cu2_3 1_555 1_555
N10 Cu2_3 1_555 1_555
Cl1_4 Cu2_4 1_555 1_555
H5 N2 1_555 1_555
C6 N2 1_555 1_555
O1 C6 1_555 1_555
C7 C6 1_555 1_555
C8 C7 1_555 1_555
H6 C8 1_555 1_555
C9 C7 1_555 1_555
H7 C9 1_555 1_555
C10 C9 1_555 1_555
H8 C10 1_555 1_555
H13 N4 1_555 1_555
C16 N4 1_555 1_555
O2 C16 1_555 1_555
C17 C8 1_555 1_555
C18 C10 1_555 1_555
H14 C18 1_555 1_555
C16 C17 1_555 1_555
C17 C18 1_555 1_555
N1 Cu2_4 1_555 1_555
C1 N1 1_555 1_555
C2 C1 1_555 1_555
H2 C2 1_555 1_555
C3 C2 1_555 1_555
H3 C3 1_555 1_555
C4 C3 1_555 1_555
C5 N1 1_555 1_555
H4 C5 1_555 1_555
N3 C11 1_555 1_555
C11 H9 1_555 1_555
C12 C11 1_555 1_555
H10 C12 1_555 1_555
C13 C12 1_555 1_555
H11 C13 1_555 1_555
C14 C13 1_555 1_555
C15 N3 1_555 1_555
H12 C15 1_555 1_555
Cu4 N3 1_555 1_555
C4 C5 1_555 1_555
C14 C15 1_555 1_555
H19_2 N6_2 1_555 1_555
C24_2 N6_2 1_555 1_555
O3_2 C24_2 1_555 1_555
C25_2 C24_2 1_555 1_555
C26_2 C25_2 1_555 1_555
H20_2 C26_2 1_555 1_555
C27_2 C25_2 1_555 1_555
H21_2 C27_2 1_555 1_555
C28_2 C27_2 1_555 1_555
H22_2 C28_2 1_555 1_555
H27_2 N8_2 1_555 1_555
C34_2 N8_2 1_555 1_555
O4_2 C34_2 1_555 1_555
C35_2 C26_2 1_555 1_555
C36_2 C28_2 1_555 1_555
H28_2 C36_2 1_555 1_555
C34_2 C35_2 1_555 1_555
C35_2 C36_2 1_555 1_555
C19_2 N9 1_555 1_555
C20_2 C19_2 1_555 1_555
H16_2 C20_2 1_555 1_555
C21_2 C20_2 1_555 1_555
H17_2 C21_2 1_555 1_555
C22_2 C21_2 1_555 1_555
C23_2 N9 1_555 1_555
H18_2 C23_2 1_555 1_555
N7_2 C29_2 1_555 1_555
C29_2 H23_2 1_555 1_555
C30_2 C29_2 1_555 1_555
H24_2 C30_2 1_555 1_555
C31_2 C30_2 1_555 1_555
H25_2 C31_2 1_555 1_555
C32_2 C31_2 1_555 1_555
C33_2 N7_2 1_555 1_555
H26_2 C33_2 1_555 1_555
Cu4 N7_2 1_555 1_555
C22_2 C23_2 1_555 1_555
C32_2 C33_2 1_555 1_555
H19_3 N6_3 1_555 1_555
C24_3 N6_3 1_555 1_555
O3_3 C24_3 1_555 1_555
C25_3 C24_3 1_555 1_555
C26_3 C25_3 1_555 1_555
H20_3 C26_3 1_555 1_555
C27_3 C25_3 1_555 1_555
H21_3 C27_3 1_555 1_555
C28_3 C27_3 1_555 1_555
H22_3 C28_3 1_555 1_555
H27_3 N8_3 1_555 1_555
C34_3 N8_3 1_555 1_555
O4_3 C34_3 1_555 1_555
C35_3 C26_3 1_555 1_555
C36_3 C28_3 1_555 1_555
H28_3 C36_3 1_555 1_555
C34_3 C35_3 1_555 1_555
C35_3 C36_3 1_555 1_555
C19_3 N10 1_555 1_555
C20_3 C19_3 1_555 1_555
H16_3 C20_3 1_555 1_555
C21_3 C20_3 1_555 1_555
H17_3 C21_3 1_555 1_555
C22_3 C21_3 1_555 1_555
C23_3 N10 1_555 1_555
H18_3 C23_3 1_555 1_555
N7_3 C29_3 1_555 1_555
C29_3 H23_3 1_555 1_555
C30_3 C29_3 1_555 1_555
H24_3 C30_3 1_555 1_555
C31_3 C30_3 1_555 1_555
H25_3 C31_3 1_555 1_555
C32_3 C31_3 1_555 1_555
C33_3 N7_3 1_555 1_555
H26_3 C33_3 1_555 1_555
Cu4 N7_3 1_555 1_555
C22_3 C23_3 1_555 1_555
C32_3 C33_3 1_555 1_555
Cl1_5 Cu4 1_555 1_555

#END
