
###############################################################################
#
# This file contains modified crystal structure data generated from the
# MOF subset of the Cambridge Structural Database (CSD) v543 
# hosted by the Cambridge Crystallographic Data Centre (CCDC).
#
# This work is licensed under the Creative Commons
# Attribution-NonCommercial-ShareAlike 4.0 International License.
# To view a copy of this license, visit
# http://creativecommons.org/licenses/by-nc-sa/4.0/
# or send a letter to
# Creative Commons, PO Box 1866, Mountain View, CA 94042, USA.
#
# CIF created using the CSD Python API on 29 September 2022
# The structure has been converted into the P1 space group
# The structure has a 3D framework
# The original CSD entry XUMNIE is in the orthorhombic crystal system
# The framework has been calculated to contain at least 10.0% void space
# The void calculation uses a probe of radius 1.32A, grid spacing 0.4
# H atom positions have been added when not included in the experimental data
#
###############################################################################

data_XUMNIE
_chemical_formula_moiety         '(C344 H232 N28 O24 Zn8)n'
_symmetry_cell_setting           triclinic
_symmetry_space_group_name_H-M   'P 1'
_symmetry_Int_Tables_number      1
_space_group_name_Hall           'P 1'
loop_
_symmetry_equiv_pos_site_id
_symmetry_equiv_pos_as_xyz
1 x,y,z
_cell_length_a                   13.7355(12)
_cell_length_b                   40.624(4)
_cell_length_c                   20.8303(19)
_cell_angle_alpha                90
_cell_angle_beta                 90
_cell_angle_gamma                90
_cell_volume                     11623.1
loop_
_atom_site_label
_atom_site_type_symbol
_atom_site_fract_x
_atom_site_fract_y
_atom_site_fract_z
C71 C 0.1441(15) 0.3373(5) 0.7346(8)
H49 H 0.0174 0.1569 0.5171
C75 C 0.0408(7) 0.1998(2) 0.5609(4)
H50 H 0.0896 0.1920 0.5879
C76 C 0.0129(7) 0.2322(2) 0.5640(4)
C79 C 0.06338(17) 0.25591(4) 0.60583(5)
C80 C 0.15214(17) 0.24830(5) 0.63425(5)
H53 H 0.1833 0.2286 0.6243
C81 C 0.1943(2) 0.27008(6) 0.67757(6)
H54 H 0.2536 0.2650 0.6966
C82 C 0.1476(2) 0.29947(5) 0.69248(6)
C83 C 0.0589(2) 0.30708(4) 0.66407(5)
H55 H 0.0277 0.3267 0.6740
C84 C 0.0168(2) 0.28530(4) 0.62074(5)
O6 O 0.1888(3) 0.33016(6) 0.77706(7)
Zn5 Zn 0.26764(4) 0.356037(11) 0.83508(2)
H57 H 0.108918 0.360529 0.722652
C2 C 0.0965(5) 0.39787(15) 0.8566(3)
H1 H 0.0875 0.3935 0.8132
C3 C 0.0277(4) 0.41686(16) 0.8879(3)
C4 C 0.0348(4) 0.42382(11) 0.9516(2)
C5 C 0.1164(4) 0.41110(14) 0.9798(3)
C6 C 0.1825(4) 0.39303(15) 0.9459(3)
H4 H 0.2373 0.3854 0.9675
C32 C 0.3834(5) 0.33670(16) 0.9324(3)
C33 C 0.4275(6) 0.31209(16) 0.9788(3)
C38 C 0.3953(7) 0.28005(19) 0.9828(4)
H24 H 0.3449 0.2725 0.9568
N1 N 0.17358(4) 0.385791(15) 0.88479(3)
O1 O 0.31753(6) 0.324354(13) 0.89717(2)
O2 O 0.40681(4) 0.36514(2) 0.93381(3)
N8 N 0.3574(2) 0.38509(7) 0.78002(7)
C10 C 0.8208(3) 0.48161(11) 0.0492(2)
C11 C 0.9143(4) 0.47785(12) 0.0745(2)
H7 H 0.9306 0.4882 0.1128
C12 C 0.9816(4) 0.45910(12) 0.0435(2)
C13 C 0.7500 0.5000 0.1504(3)
C14 C 0.7452(4) 0.52873(12) 0.1845(2)
H9 H 0.7431 0.5487 0.1628
C15 C 0.7434(4) 0.52850(12) 0.2507(2)
H10 H 0.7375 0.5484 0.2725
C16 C 0.7500 0.5000 0.2856(3)
C17 C 0.7500 0.5000 0.3566(3)
C18 C 0.7532(4) 0.52866(13) 0.3925(2)
H11 H 0.7552 0.5487 0.3709
C19 C 0.7536(4) 0.52893(14) 0.4581(2)
H12 H 0.7562 0.5488 0.4802
C20 C 0.7500 0.5000 0.4910(3)
C21 C 0.8158(3) 0.52054(13) 0.5943(2)
C22 C 0.7888(4) 0.53479(15) 0.6506(2)
H13 H 0.7262 0.5313 0.6662
C23 C 0.8520(4) 0.55424(14) 0.6847(3)
H14 H 0.8306 0.5644 0.7221
C24 C 0.9471(4) 0.55900(13) 0.6646(2)
C25 C 0.9734(4) 0.54461(14) 0.6063(2)
C26 C 0.9086(4) 0.52613(14) 0.5723(2)
H16 H 0.9277 0.5171 0.5333
H17 H 0.9623 0.5652 0.7915
N2 N 0.75025(12) 0.50013(6) 0.08192(7)
N3 N 0.75022(17) 0.50017(7) 0.55929(7)
H31 H 0.3729 0.5851 0.0232
C53 C 0.6792(3) 0.51839(11) 0.0492(2)
C54 C 0.5857(4) 0.52215(12) 0.0745(2)
H35 H 0.5694 0.5118 0.1128
C55 C 0.5184(4) 0.54090(12) 0.0435(2)
H36 H 0.4572 0.5434 0.0619
C56 C 0.7548(4) 0.47127(12) 0.1845(2)
H37 H 0.7569 0.4513 0.1628
C57 C 0.7566(4) 0.47150(12) 0.2507(2)
H38 H 0.7625 0.4516 0.2725
C58 C 0.7468(4) 0.47134(13) 0.3925(2)
H39 H 0.7448 0.4513 0.3709
C59 C 0.7464(4) 0.47107(14) 0.4581(2)
H40 H 0.7438 0.4512 0.4802
C60 C 0.6842(3) 0.47946(13) 0.5943(2)
C61 C 0.7112(4) 0.46521(15) 0.6506(2)
H41 H 0.7738 0.4687 0.6662
C62 C 0.6480(4) 0.44576(14) 0.6847(3)
H42 H 0.6694 0.4356 0.7221
C63 C 0.5529(4) 0.44100(13) 0.6646(2)
C64 C 0.5266(4) 0.45539(14) 0.6063(2)
H43 H 0.4640 0.4523 0.5904
C65 C 0.5914(4) 0.47387(14) 0.5723(2)
H44 H 0.5723 0.4829 0.5333
C66 C 0.4858(4) 0.42169(12) 0.7039(2)
C67 C 0.4909(4) 0.42203(12) 0.7708(2)
H45 H 0.5377 0.4348 0.7915
C68 C 0.4253(4) 0.40312(12) 0.8065(2)
H46 H 0.4302 0.4034 0.8510
C69 C 0.3495(4) 0.38554(12) 0.7161(2)
H47 H 0.3003 0.3732 0.6972
C70 C 0.4102(4) 0.40334(13) 0.6769(2)
H48 H 0.4009 0.4032 0.6327
C74 C 0.0030(6) 0.67869(18) 0.0182(4)
C77 C 0.0598(7) 0.7407(2) 0.0267(4)
H51 H 0.0829 0.7622 0.0299
H56 H 0.0426 0.7904 0.1017
C21_2 C 0.1842(3) 0.02054(13) 0.0943(2)
C22_2 C 0.2112(4) 0.03479(15) 0.1506(2)
H13_2 H 0.2738 0.0313 0.1662
C23_2 C 0.1480(4) 0.05424(14) 0.1847(3)
H14_2 H 0.1694 0.0644 0.2221
C24_2 C 0.0529(4) 0.05900(13) 0.1646(2)
C25_2 C 0.0266(4) 0.04461(14) 0.1063(2)
C26_2 C 0.0914(4) 0.02613(14) 0.0723(2)
H16_2 H 0.0723 0.0171 0.0333
H17_2 H 0.0377 0.0652 0.2915
N3_2 N 0.24978(17) 0.00017(7) 0.05929(7)
C13_2 C 0.2500 0.0000 0.6504(3)
C14_2 C 0.2548(4) 0.02873(12) 0.6845(2)
H9_2 H 0.2569 0.0487 0.6628
C15_2 C 0.2566(4) 0.02850(12) 0.7507(2)
H10_2 H 0.2625 0.0484 0.7725
C16_2 C 0.2500 -0.0000 0.7856(3)
C17_2 C 0.2500 -0.0000 0.8566(3)
C18_2 C 0.2468(4) 0.02866(13) 0.8925(2)
H11_2 H 0.2448 0.0487 0.8709
C19_2 C 0.2464(4) 0.02893(14) 0.9581(2)
H12_2 H 0.2438 0.0488 0.9802
C20_2 C 0.2500 0.0000 0.9910(3)
N2_2 N 0.24975(12) 0.00013(6) 0.58192(7)
C45 C 0.5965(5) 0.10213(15) 0.3566(3)
H29 H 0.5875 0.1065 0.3132
C46 C 0.5277(4) 0.08314(16) 0.3879(3)
H30 H 0.4751 0.0749 0.3648
C47 C 0.5348(4) 0.07618(11) 0.4516(2)
C48 C 0.6164(4) 0.08890(14) 0.4798(3)
H31_2 H 0.6271 0.0851 0.5232
C49 C 0.6825(4) 0.10697(15) 0.4459(3)
H32 H 0.7373 0.1146 0.4675
C50 C 0.4626(3) 0.05628(11) 0.4860(2)
C51 C 0.3720(4) 0.05209(13) 0.4606(3)
H33 H 0.3568 0.0620 0.4216
C52 C 0.3014(4) 0.03322(12) 0.4917(2)
H34 H 0.2404 0.0307 0.4731
C53_2 C 0.3208(3) 0.01839(11) 0.5492(2)
C54_2 C 0.4143(4) 0.02215(12) 0.5745(2)
H35_2 H 0.4306 0.0118 0.6128
C55_2 C 0.4816(4) 0.04090(12) 0.5435(2)
H36_2 H 0.5428 0.0434 0.5619
N5 N 0.67358(4) 0.114209(15) 0.38479(3)
C72 C 0.8834(5) 0.16330(16) 0.4324(3)
C73 C 0.9275(6) 0.18791(16) 0.4788(3)
C74_2 C 0.9970(6) 0.17869(18) 0.5182(4)
C77_2 C 0.9402(7) 0.2407(2) 0.5267(4)
H51_2 H 0.9171 0.2622 0.5299
C78 C 0.8953(7) 0.21995(19) 0.4828(4)
H52 H 0.8449 0.2275 0.4568
H56_2 H 0.9574 0.2904 0.6017
O4 O 0.81753(6) 0.175646(13) 0.39717(2)
O5 O 0.90681(4) 0.13486(2) 0.43381(3)
Zn2 Zn 0.76764(4) 0.143963(11) 0.33508(2)
N7 N 0.8574(2) 0.11491(7) 0.28002(7)
O7 O 0.6888(3) 0.16984(6) 0.27706(7)
C60_2 C 0.3158(3) 0.97946(13) 0.0943(2)
C61_2 C 0.2888(4) 0.96521(15) 0.1506(2)
H41_2 H 0.2262 0.9687 0.1662
C62_2 C 0.3520(4) 0.94576(14) 0.1847(3)
H42_2 H 0.3306 0.9356 0.2221
C63_2 C 0.4471(4) 0.94100(13) 0.1646(2)
C64_2 C 0.4734(4) 0.95539(14) 0.1063(2)
H43_2 H 0.5360 0.9523 0.0904
C65_2 C 0.4086(4) 0.97387(14) 0.0723(2)
H44_2 H 0.4277 0.9829 0.0333
C66_2 C 0.5142(4) 0.92169(12) 0.2039(2)
C67_2 C 0.5091(4) 0.92203(12) 0.2708(2)
H45_2 H 0.4623 0.9348 0.2915
C68_2 C 0.5747(4) 0.90312(12) 0.3065(2)
H46_2 H 0.5698 0.9034 0.3510
C69_2 C 0.6505(4) 0.88554(12) 0.2161(2)
H47_2 H 0.6997 0.8732 0.1972
C70_2 C 0.5898(4) 0.90334(13) 0.1769(2)
H48_2 H 0.5991 0.9032 0.1327
N6 N 0.6426(2) 0.88509(7) 0.28002(7)
Zn3 Zn 0.73236(4) 0.856037(11) 0.33508(2)
H15 H 0.9640 0.0477 0.0904
C27 C 0.9858(4) 0.07831(12) 0.2039(2)
C28 C 0.9909(4) 0.07797(12) 0.2708(2)
C29 C 0.9253(4) 0.09688(12) 0.3065(2)
H18 H 0.9302 0.0966 0.3510
C30 C 0.8495(4) 0.11446(12) 0.2161(2)
H19 H 0.8003 0.1268 0.1972
C31 C 0.9102(4) 0.09666(13) 0.1769(2)
H20 H 0.9009 0.0968 0.1327
C1 C 0.3559(15) 0.6627(5) 0.7346(8)
C2_2 C 0.9035(5) 0.89787(15) 0.3566(3)
H1_2 H 0.9125 0.8935 0.3132
C3_2 C 0.9723(4) 0.91686(16) 0.3879(3)
C4_2 C 0.9652(4) 0.92382(11) 0.4516(2)
C5_2 C 0.8836(4) 0.91110(14) 0.4798(3)
H3 H 0.8729 0.9149 0.5232
C6_2 C 0.8175(4) 0.89303(15) 0.4459(3)
H4_2 H 0.7627 0.8854 0.4675
H8 H 0.9572 0.9566 0.5619
C32_2 C 0.6166(5) 0.83670(16) 0.4324(3)
C33_2 C 0.5725(6) 0.81209(16) 0.4788(3)
C34 C 0.5030(6) 0.82131(18) 0.5182(4)
H21 H 0.4826 0.8431 0.5171
C35 C 0.4592(7) 0.8002(2) 0.5609(4)
H22 H 0.4104 0.8080 0.5879
C36 C 0.4871(7) 0.7678(2) 0.5640(4)
C37 C 0.5598(7) 0.7593(2) 0.5267(4)
H23 H 0.5829 0.7378 0.5299
C38_2 C 0.6047(7) 0.78005(19) 0.4828(4)
H24_2 H 0.6551 0.7725 0.4568
C39 C 0.43662(17) 0.74409(4) 0.60583(5)
C40 C 0.34786(17) 0.75170(5) 0.63425(5)
H25 H 0.3167 0.7714 0.6243
C41 C 0.3057(2) 0.72992(6) 0.67757(6)
H26 H 0.2464 0.7350 0.6966
C42 C 0.3524(2) 0.70053(5) 0.69248(6)
C43 C 0.4411(2) 0.69292(4) 0.66407(5)
H27 H 0.4723 0.6733 0.6740
C44 C 0.4832(2) 0.71470(4) 0.62074(5)
H28 H 0.5426 0.7096 0.6017
N1_2 N 0.82642(4) 0.885791(15) 0.38479(3)
O1_2 O 0.68247(6) 0.824354(13) 0.39717(2)
O2_2 O 0.59319(4) 0.86514(2) 0.43381(3)
O3 O 0.3112(3) 0.66984(6) 0.77706(7)
O8 O 0.8112(3) 0.83016(6) 0.27706(7)
Zn6 Zn 0.23236(4) 0.643963(11) 0.83508(2)
H58 H 0.391082 0.639471 0.722652
N3_3 N 0.25022(17) 0.99983(7) 0.05929(7)
C1_2 C 0.6441(15) 0.1627(5) 0.2346(8)
H3_2 H 0.1271 0.4149 0.0232
H8_2 H 0.0428 0.4566 0.0619
H15_2 H 0.0360 0.5477 0.5904
C27_2 C 0.0142(4) 0.57831(12) 0.7039(2)
C28_2 C 0.0091(4) 0.57797(12) 0.7708(2)
C29_2 C 0.0747(4) 0.59688(12) 0.8065(2)
H18_2 H 0.0698 0.5966 0.8510
C30_2 C 0.1505(4) 0.61446(12) 0.7161(2)
H19_2 H 0.1997 0.6268 0.6972
C31_2 C 0.0898(4) 0.59666(13) 0.6769(2)
H20_2 H 0.0991 0.5968 0.6327
C34_2 C 0.4970(6) 0.32131(18) 0.0182(4)
H21_2 H 0.5174 0.3431 0.0171
C35_2 C 0.5408(7) 0.3002(2) 0.0609(4)
H22_2 H 0.5896 0.3080 0.0879
C36_2 C 0.5129(7) 0.2678(2) 0.0640(4)
C37_2 C 0.4402(7) 0.2593(2) 0.0267(4)
H23_2 H 0.4171 0.2378 0.0299
C39_2 C 0.56338(17) 0.24409(4) 0.10583(5)
C40_2 C 0.65214(17) 0.25170(5) 0.13425(5)
H25_2 H 0.6833 0.2714 0.1243
C41_2 C 0.6943(2) 0.22992(6) 0.17757(6)
H26_2 H 0.7536 0.2350 0.1966
C42_2 C 0.6476(2) 0.20053(5) 0.19248(6)
C43_2 C 0.5589(2) 0.19292(4) 0.16407(5)
H27_2 H 0.5277 0.1733 0.1740
C44_2 C 0.5168(2) 0.21470(4) 0.12074(5)
H28_2 H 0.4574 0.2096 0.1017
N4 N 0.1426(2) 0.61491(7) 0.78002(7)
H58_2 H 0.608918 0.139471 0.222652
H2 H 0.9751 0.4251 0.8648
C7 C 0.9626(3) 0.44372(11) 0.9860(2)
C8 C 0.8720(4) 0.44791(13) 0.9606(3)
H5 H 0.8568 0.4380 0.9216
C9 C 0.8014(4) 0.46678(12) 0.9917(2)
H6 H 0.7404 0.4693 0.9731
C45_2 C 0.4035(5) 0.60213(15) 0.8566(3)
H29_2 H 0.4125 0.6065 0.8132
C46_2 C 0.4723(4) 0.58314(16) 0.8879(3)
H30_2 H 0.5249 0.5749 0.8648
C47_2 C 0.4652(4) 0.57618(11) 0.9516(2)
C48_2 C 0.3836(4) 0.58890(14) 0.9798(3)
C49_2 C 0.3175(4) 0.60697(15) 0.9459(3)
H32_2 H 0.2627 0.6146 0.9675
C50_2 C 0.5374(3) 0.55628(11) 0.9860(2)
C51_2 C 0.6280(4) 0.55209(13) 0.9606(3)
H33_2 H 0.6432 0.5620 0.9216
C52_2 C 0.6986(4) 0.53322(12) 0.9917(2)
H34_2 H 0.7596 0.5307 0.9731
N5_2 N 0.32642(4) 0.614209(15) 0.88479(3)
C72_2 C 0.1166(5) 0.66330(16) 0.9324(3)
C73_2 C 0.0725(6) 0.68791(16) 0.9788(3)
C78_2 C 0.1047(7) 0.71995(19) 0.9828(4)
H52_2 H 0.1551 0.7275 0.9568
O4_2 O 0.18247(6) 0.675646(13) 0.89717(2)
O5_2 O 0.09319(4) 0.63486(2) 0.93381(3)
C71_2 C 0.8559(15) 0.8373(5) 0.2346(8)
H49_2 H 0.9826 0.6569 0.0171
C75_2 C 0.9592(7) 0.6998(2) 0.0609(4)
H50_2 H 0.9104 0.6920 0.0879
C76_2 C 0.9871(7) 0.7322(2) 0.0640(4)
C79_2 C 0.93662(17) 0.75591(4) 0.10583(5)
C80_2 C 0.84786(17) 0.74830(5) 0.13425(5)
H53_2 H 0.8167 0.7286 0.1243
C81_2 C 0.8057(2) 0.77008(6) 0.17757(6)
H54_2 H 0.7464 0.7650 0.1966
C82_2 C 0.8524(2) 0.79947(5) 0.19248(6)
C83_2 C 0.9411(2) 0.80708(4) 0.16407(5)
H55_2 H 0.9723 0.8267 0.1740
C84_2 C 0.9832(2) 0.78530(4) 0.12074(5)
H57_2 H 0.891082 0.860529 0.222652
H2_2 H 0.0249 0.9251 0.3648
C7_2 C 0.0374(3) 0.94372(11) 0.4860(2)
C8_2 C 0.1280(4) 0.94791(13) 0.4606(3)
H5_2 H 0.1432 0.9380 0.4216
C9_2 C 0.1986(4) 0.96678(12) 0.4917(2)
H6_2 H 0.2596 0.9693 0.4731
C10_2 C 0.1792(3) 0.98161(11) 0.5492(2)
C11_2 C 0.0857(4) 0.97785(12) 0.5745(2)
H7_2 H 0.0694 0.9882 0.6128
C12_2 C 0.0184(4) 0.95910(12) 0.5435(2)
C13_3 C 0.2500 1.0000 0.6504(3)
C16_3 C 0.2500 1.0000 0.7856(3)
C17_3 C 0.2500 1.0000 0.8566(3)
C20_3 C 0.2500 1.0000 0.9910(3)
C56_2 C 0.2452(4) 0.97127(12) 0.6845(2)
H37_2 H 0.2431 0.9513 0.6628
C57_2 C 0.2434(4) 0.97150(12) 0.7507(2)
H38_2 H 0.2375 0.9516 0.7725
C58_2 C 0.2532(4) 0.97134(13) 0.8925(2)
H39_2 H 0.2552 0.9513 0.8709
C59_2 C 0.2536(4) 0.97107(14) 0.9581(2)
H40_2 H 0.2562 0.9512 0.9802
N2_3 N 0.25025(12) 0.99987(6) 0.58192(7)
C71_3 C 0.1441(15) 0.1627(5) 0.7654(8)
H49_3 H 0.0174 0.3431 0.9829
C75_3 C 0.0408(7) 0.3002(2) 0.9391(4)
H50_3 H 0.0896 0.3080 0.9121
C76_3 C 0.0129(7) 0.2678(2) 0.9360(4)
C79_3 C 0.06338(17) 0.24409(4) 0.89417(5)
C80_3 C 0.15214(17) 0.25170(5) 0.86575(5)
H53_3 H 0.1833 0.2714 0.8757
C81_3 C 0.1943(2) 0.22992(6) 0.82243(6)
H54_3 H 0.2536 0.2350 0.8034
C82_3 C 0.1476(2) 0.20053(5) 0.80752(6)
C83_3 C 0.0589(2) 0.19292(4) 0.83593(5)
H55_3 H 0.0277 0.1733 0.8260
C84_3 C 0.0168(2) 0.21470(4) 0.87926(5)
O6_2 O 0.1888(3) 0.16984(6) 0.72294(7)
Zn5_2 Zn 0.26764(4) 0.143963(11) 0.66492(2)
H57_3 H 0.108918 0.139471 0.777348
H2_3 H 0.0249 0.5749 0.1352
C7_3 C 0.0374(3) 0.55628(11) 0.0140(2)
C8_3 C 0.1280(4) 0.55209(13) 0.0394(3)
H5_3 H 0.1432 0.5620 0.0784
C9_3 C 0.1986(4) 0.53322(12) 0.0083(2)
H6_3 H 0.2596 0.5307 0.0269
C45_3 C 0.5965(5) 0.39787(15) 0.1434(3)
H29_3 H 0.5875 0.3935 0.1868
C46_3 C 0.5277(4) 0.41686(16) 0.1121(3)
H30_3 H 0.4751 0.4251 0.1352
C47_3 C 0.5348(4) 0.42382(11) 0.0484(2)
C48_3 C 0.6164(4) 0.41110(14) 0.0202(3)
C49_3 C 0.6825(4) 0.39303(15) 0.0541(3)
H32_3 H 0.7373 0.3854 0.0325
C50_3 C 0.4626(3) 0.44372(11) 0.0140(2)
C51_3 C 0.3720(4) 0.44791(13) 0.0394(3)
H33_3 H 0.3568 0.4380 0.0784
C52_3 C 0.3014(4) 0.46678(12) 0.0083(2)
H34_3 H 0.2404 0.4693 0.0269
N5_3 N 0.67358(4) 0.385791(15) 0.11521(3)
C72_3 C 0.8834(5) 0.33670(16) 0.0676(3)
C73_3 C 0.9275(6) 0.31209(16) 0.0212(3)
C78_3 C 0.8953(7) 0.28005(19) 0.0172(4)
H52_3 H 0.8449 0.2725 0.0432
O4_3 O 0.81753(6) 0.324354(13) 0.10283(2)
O5_3 O 0.90681(4) 0.36514(2) 0.06619(3)
Zn2_2 Zn 0.76764(4) 0.356037(11) 0.16492(2)
N7_2 N 0.8574(2) 0.38509(7) 0.21998(7)
O7_2 O 0.6888(3) 0.33016(6) 0.22294(7)
C1_3 C 0.3559(15) 0.8373(5) 0.7654(8)
H3_3 H 0.8729 0.5851 0.9768
H8_3 H 0.9572 0.5434 0.9381
H15_3 H 0.9640 0.4523 0.4096
C27_3 C 0.9858(4) 0.42169(12) 0.2961(2)
C28_3 C 0.9909(4) 0.42203(12) 0.2292(2)
C29_3 C 0.9253(4) 0.40312(12) 0.1935(2)
H18_3 H 0.9302 0.4034 0.1490
C30_3 C 0.8495(4) 0.38554(12) 0.2839(2)
H19_3 H 0.8003 0.3732 0.3028
C31_3 C 0.9102(4) 0.40334(13) 0.3231(2)
H20_3 H 0.9009 0.4032 0.3673
C34_3 C 0.5030(6) 0.67869(18) 0.9818(4)
H21_3 H 0.4826 0.6569 0.9829
C35_3 C 0.4592(7) 0.6998(2) 0.9391(4)
H22_3 H 0.4104 0.6920 0.9121
C36_3 C 0.4871(7) 0.7322(2) 0.9360(4)
C37_3 C 0.5598(7) 0.7407(2) 0.9733(4)
H23_3 H 0.5829 0.7622 0.9701
C39_3 C 0.43662(17) 0.75591(4) 0.89417(5)
C40_3 C 0.34786(17) 0.74830(5) 0.86575(5)
H25_3 H 0.3167 0.7286 0.8757
C41_3 C 0.3057(2) 0.77008(6) 0.82243(6)
H26_3 H 0.2464 0.7650 0.8034
C42_3 C 0.3524(2) 0.79947(5) 0.80752(6)
C43_3 C 0.4411(2) 0.80708(4) 0.83593(5)
H27_3 H 0.4723 0.8267 0.8260
C44_3 C 0.4832(2) 0.78530(4) 0.87926(5)
H28_3 H 0.5426 0.7904 0.8983
O3_2 O 0.3112(3) 0.83016(6) 0.72294(7)
Zn6_2 Zn 0.23236(4) 0.856037(11) 0.66492(2)
H58_3 H 0.391082 0.860529 0.777348
C1_4 C 0.6441(15) 0.3373(5) 0.2654(8)
C2_3 C 0.0965(5) 0.10213(15) 0.6434(3)
H1_3 H 0.0875 0.1065 0.6868
C3_3 C 0.0277(4) 0.08314(16) 0.6121(3)
C4_3 C 0.0348(4) 0.07618(11) 0.5484(2)
C5_3 C 0.1164(4) 0.08890(14) 0.5202(3)
H3_4 H 0.1271 0.0851 0.4768
C6_3 C 0.1825(4) 0.10697(15) 0.5541(3)
H4_3 H 0.2373 0.1146 0.5325
H8_4 H 0.0428 0.0434 0.4381
C32_3 C 0.3834(5) 0.16330(16) 0.5676(3)
C33_3 C 0.4275(6) 0.18791(16) 0.5212(3)
C34_4 C 0.4970(6) 0.17869(18) 0.4818(4)
H21_4 H 0.5174 0.1569 0.4829
C35_4 C 0.5408(7) 0.1998(2) 0.4391(4)
H22_4 H 0.5896 0.1920 0.4121
C36_4 C 0.5129(7) 0.2322(2) 0.4360(4)
C37_4 C 0.4402(7) 0.2407(2) 0.4733(4)
H23_4 H 0.4171 0.2622 0.4701
C38_3 C 0.3953(7) 0.21995(19) 0.5172(4)
H24_3 H 0.3449 0.2275 0.5432
C39_4 C 0.56338(17) 0.25591(4) 0.39417(5)
C40_4 C 0.65214(17) 0.24830(5) 0.36575(5)
H25_4 H 0.6833 0.2286 0.3757
C41_4 C 0.6943(2) 0.27008(6) 0.32243(6)
H26_4 H 0.7536 0.2650 0.3034
C42_4 C 0.6476(2) 0.29947(5) 0.30752(6)
C43_4 C 0.5589(2) 0.30708(4) 0.33593(5)
H27_4 H 0.5277 0.3267 0.3260
C44_4 C 0.5168(2) 0.28530(4) 0.37926(5)
H28_4 H 0.4574 0.2904 0.3983
N1_3 N 0.17358(4) 0.114209(15) 0.61521(3)
O1_3 O 0.31753(6) 0.175646(13) 0.60283(2)
O2_3 O 0.40681(4) 0.13486(2) 0.56619(3)
N8_2 N 0.3574(2) 0.11491(7) 0.71998(7)
H58_4 H 0.608918 0.360529 0.277348
H15_4 H 0.0360 0.9523 0.9096
C27_4 C 0.0142(4) 0.92169(12) 0.7961(2)
C28_4 C 0.0091(4) 0.92203(12) 0.7292(2)
C29_4 C 0.0747(4) 0.90312(12) 0.6935(2)
H18_4 H 0.0698 0.9034 0.6490
C30_4 C 0.1505(4) 0.88554(12) 0.7839(2)
H19_4 H 0.1997 0.8732 0.8028
C31_4 C 0.0898(4) 0.90334(13) 0.8231(2)
H20_4 H 0.0991 0.9032 0.8673
N4_2 N 0.1426(2) 0.88509(7) 0.71998(7)
C60_3 C 0.6842(3) 0.02054(13) 0.9057(2)
C61_3 C 0.7112(4) 0.03479(15) 0.8494(2)
H41_3 H 0.7738 0.0313 0.8338
C62_3 C 0.6480(4) 0.05424(14) 0.8153(3)
H42_3 H 0.6694 0.0644 0.7779
C63_3 C 0.5529(4) 0.05900(13) 0.8354(2)
C64_3 C 0.5266(4) 0.04461(14) 0.8937(2)
H43_3 H 0.4640 0.0477 0.9096
C65_3 C 0.5914(4) 0.02613(14) 0.9277(2)
H44_3 H 0.5723 0.0171 0.9667
C66_3 C 0.4858(4) 0.07831(12) 0.7961(2)
C67_3 C 0.4909(4) 0.07797(12) 0.7292(2)
H45_3 H 0.5377 0.0652 0.7085
C68_3 C 0.4253(4) 0.09688(12) 0.6935(2)
H46_3 H 0.4302 0.0966 0.6490
C69_3 C 0.3495(4) 0.11446(12) 0.7839(2)
H47_3 H 0.3003 0.1268 0.8028
C70_3 C 0.4102(4) 0.09666(13) 0.8231(2)
H48_3 H 0.4009 0.0968 0.8673
C13_4 C 0.7500 1.0000 0.3496(3)
C14_3 C 0.7452(4) 0.97127(12) 0.3155(2)
H9_3 H 0.7431 0.9513 0.3372
C15_3 C 0.7434(4) 0.97150(12) 0.2493(2)
H10_3 H 0.7375 0.9516 0.2275
C16_4 C 0.7500 1.0000 0.2144(3)
C17_4 C 0.7500 1.0000 0.1434(3)
C18_3 C 0.7532(4) 0.97134(13) 0.1075(2)
H11_3 H 0.7552 0.9513 0.1291
C19_3 C 0.7536(4) 0.97107(14) 0.0419(2)
H12_3 H 0.7562 0.9512 0.0198
C20_4 C 0.7500 1.0000 0.0090(3)
N2_4 N 0.75025(12) 0.99987(6) 0.41808(7)
C45_4 C 0.4035(5) 0.89787(15) 0.6434(3)
H29_4 H 0.4125 0.8935 0.6868
C46_4 C 0.4723(4) 0.91686(16) 0.6121(3)
H30_4 H 0.5249 0.9251 0.6352
C47_4 C 0.4652(4) 0.92382(11) 0.5484(2)
C48_4 C 0.3836(4) 0.91110(14) 0.5202(3)
H31_3 H 0.3729 0.9149 0.4768
C49_4 C 0.3175(4) 0.89303(15) 0.5541(3)
H32_4 H 0.2627 0.8854 0.5325
C50_4 C 0.5374(3) 0.94372(11) 0.5140(2)
C51_4 C 0.6280(4) 0.94791(13) 0.5394(3)
H33_4 H 0.6432 0.9380 0.5784
C52_4 C 0.6986(4) 0.96678(12) 0.5083(2)
H34_4 H 0.7596 0.9693 0.5269
C53_3 C 0.6792(3) 0.98161(11) 0.4508(2)
C54_3 C 0.5857(4) 0.97785(12) 0.4255(2)
H35_3 H 0.5694 0.9882 0.3872
C55_3 C 0.5184(4) 0.95910(12) 0.4565(2)
H36_3 H 0.4572 0.9566 0.4381
N5_4 N 0.32642(4) 0.885791(15) 0.61521(3)
C72_4 C 0.1166(5) 0.83670(16) 0.5676(3)
C73_4 C 0.0725(6) 0.81209(16) 0.5212(3)
C74_3 C 0.0030(6) 0.82131(18) 0.4818(4)
C77_3 C 0.0598(7) 0.7593(2) 0.4733(4)
H51_3 H 0.0829 0.7378 0.4701
C78_4 C 0.1047(7) 0.78005(19) 0.5172(4)
H52_4 H 0.1551 0.7725 0.5432
H56_3 H 0.0426 0.7096 0.3983
O4_4 O 0.18247(6) 0.824354(13) 0.60283(2)
O5_4 O 0.09319(4) 0.86514(2) 0.56619(3)
N3_4 N 0.74978(17) 0.00017(7) 0.94071(7)
C10_3 C 0.1792(3) 0.51839(11) 0.9508(2)
C11_3 C 0.0857(4) 0.52215(12) 0.9255(2)
H7_3 H 0.0694 0.5118 0.8872
C12_3 C 0.0184(4) 0.54090(12) 0.9565(2)
C13_5 C 0.2500 0.5000 0.8496(3)
C14_4 C 0.2548(4) 0.47127(12) 0.8155(2)
H9_4 H 0.2569 0.4513 0.8372
C15_4 C 0.2566(4) 0.47150(12) 0.7493(2)
H10_4 H 0.2625 0.4516 0.7275
C16_5 C 0.2500 0.5000 0.7144(3)
C17_5 C 0.2500 0.5000 0.6434(3)
C18_4 C 0.2468(4) 0.47134(13) 0.6075(2)
H11_4 H 0.2448 0.4513 0.6291
C19_4 C 0.2464(4) 0.47107(14) 0.5419(2)
H12_4 H 0.2438 0.4512 0.5198
C20_5 C 0.2500 0.5000 0.5090(3)
C21_3 C 0.1842(3) 0.47946(13) 0.4057(2)
C22_3 C 0.2112(4) 0.46521(15) 0.3494(2)
H13_3 H 0.2738 0.4687 0.3338
C23_3 C 0.1480(4) 0.44576(14) 0.3153(3)
H14_3 H 0.1694 0.4356 0.2779
C24_3 C 0.0529(4) 0.44100(13) 0.3354(2)
C25_3 C 0.0266(4) 0.45539(14) 0.3937(2)
C26_3 C 0.0914(4) 0.47387(14) 0.4277(2)
H16_3 H 0.0723 0.4829 0.4667
H17_3 H 0.0377 0.4348 0.2085
N2_5 N 0.24975(12) 0.49987(6) 0.91808(7)
N3_5 N 0.24978(17) 0.49983(7) 0.44071(7)
H31_4 H 0.6271 0.4149 0.9768
C53_4 C 0.3208(3) 0.48161(11) 0.9508(2)
C54_4 C 0.4143(4) 0.47785(12) 0.9255(2)
H35_4 H 0.4306 0.4882 0.8872
C55_4 C 0.4816(4) 0.45910(12) 0.9565(2)
H36_4 H 0.5428 0.4566 0.9381
C56_3 C 0.2452(4) 0.52873(12) 0.8155(2)
H37_3 H 0.2431 0.5487 0.8372
C57_3 C 0.2434(4) 0.52850(12) 0.7493(2)
H38_3 H 0.2375 0.5484 0.7275
C58_3 C 0.2532(4) 0.52866(13) 0.6075(2)
H39_3 H 0.2552 0.5487 0.6291
C59_3 C 0.2536(4) 0.52893(14) 0.5419(2)
H40_3 H 0.2562 0.5488 0.5198
C60_4 C 0.3158(3) 0.52054(13) 0.4057(2)
C61_4 C 0.2888(4) 0.53479(15) 0.3494(2)
H41_4 H 0.2262 0.5313 0.3338
C62_4 C 0.3520(4) 0.55424(14) 0.3153(3)
H42_4 H 0.3306 0.5644 0.2779
C63_4 C 0.4471(4) 0.55900(13) 0.3354(2)
C64_4 C 0.4734(4) 0.54461(14) 0.3937(2)
H43_4 H 0.5360 0.5477 0.4096
C65_4 C 0.4086(4) 0.52613(14) 0.4277(2)
H44_4 H 0.4277 0.5171 0.4667
C66_4 C 0.5142(4) 0.57831(12) 0.2961(2)
C67_4 C 0.5091(4) 0.57797(12) 0.2292(2)
H45_4 H 0.4623 0.5652 0.2085
C68_4 C 0.5747(4) 0.59688(12) 0.1935(2)
H46_4 H 0.5698 0.5966 0.1490
C69_4 C 0.6505(4) 0.61446(12) 0.2839(2)
H47_4 H 0.6997 0.6268 0.3028
C70_4 C 0.5898(4) 0.59666(13) 0.3231(2)
H48_4 H 0.5991 0.5968 0.3673
N6_2 N 0.6426(2) 0.61491(7) 0.21998(7)
C74_4 C 0.9970(6) 0.32131(18) 0.9818(4)
C77_4 C 0.9402(7) 0.2593(2) 0.9733(4)
H51_4 H 0.9171 0.2378 0.9701
H56_4 H 0.9574 0.2096 0.8983
Zn3_2 Zn 0.73236(4) 0.643963(11) 0.16492(2)
C2_4 C 0.9035(5) 0.60213(15) 0.1434(3)
H1_4 H 0.9125 0.6065 0.1868
C3_4 C 0.9723(4) 0.58314(16) 0.1121(3)
C4_4 C 0.9652(4) 0.57618(11) 0.0484(2)
C5_4 C 0.8836(4) 0.58890(14) 0.0202(3)
C6_4 C 0.8175(4) 0.60697(15) 0.0541(3)
H4_4 H 0.7627 0.6146 0.0325
C32_4 C 0.6166(5) 0.66330(16) 0.0676(3)
C33_4 C 0.5725(6) 0.68791(16) 0.0212(3)
C38_4 C 0.6047(7) 0.71995(19) 0.0172(4)
H24_4 H 0.6551 0.7275 0.0432
N1_4 N 0.82642(4) 0.614209(15) 0.11521(3)
O1_4 O 0.68247(6) 0.675646(13) 0.10283(2)
O2_4 O 0.59319(4) 0.63486(2) 0.06619(3)
O8_2 O 0.8112(3) 0.66984(6) 0.22294(7)
C71_4 C 0.8559(15) 0.6627(5) 0.2654(8)
H49_4 H 0.9826 0.8431 0.4829
C75_4 C 0.9592(7) 0.8002(2) 0.4391(4)
H50_4 H 0.9104 0.8080 0.4121
C76_4 C 0.9871(7) 0.7678(2) 0.4360(4)
C79_4 C 0.93662(17) 0.74409(4) 0.39417(5)
C80_4 C 0.84786(17) 0.75170(5) 0.36575(5)
H53_4 H 0.8167 0.7714 0.3757
C81_4 C 0.8057(2) 0.72992(6) 0.32243(6)
H54_4 H 0.7464 0.7350 0.3034
C82_4 C 0.8524(2) 0.70053(5) 0.30752(6)
C83_4 C 0.9411(2) 0.69292(4) 0.33593(5)
H55_4 H 0.9723 0.6733 0.3260
C84_4 C 0.9832(2) 0.71470(4) 0.37926(5)
H57_4 H 0.891082 0.639471 0.277348
H2_4 H 0.9751 0.0749 0.6352
C7_4 C 0.9626(3) 0.05628(11) 0.5140(2)
C8_4 C 0.8720(4) 0.05209(13) 0.5394(3)
H5_4 H 0.8568 0.0620 0.5784
C9_4 C 0.8014(4) 0.03322(12) 0.5083(2)
H6_4 H 0.7404 0.0307 0.5269
C10_4 C 0.8208(3) 0.01839(11) 0.4508(2)
C11_4 C 0.9143(4) 0.02215(12) 0.4255(2)
H7_4 H 0.9306 0.0118 0.3872
C12_4 C 0.9816(4) 0.04090(12) 0.4565(2)
C13_6 C 0.7500 -0.0000 0.3496(3)
C16_6 C 0.7500 -0.0000 0.2144(3)
C17_6 C 0.7500 -0.0000 0.1434(3)
C20_6 C 0.7500 -0.0000 0.0090(3)
C56_4 C 0.7548(4) 0.02873(12) 0.3155(2)
H37_4 H 0.7569 0.0487 0.3372
C57_4 C 0.7566(4) 0.02850(12) 0.2493(2)
H38_4 H 0.7625 0.0484 0.2275
C58_4 C 0.7468(4) 0.02866(13) 0.1075(2)
H39_4 H 0.7448 0.0487 0.1291
C59_4 C 0.7464(4) 0.02893(14) 0.0419(2)
H40_4 H 0.7438 0.0488 0.0198
N2_6 N 0.74975(12) 0.00013(6) 0.41808(7)
C21_4 C 0.8158(3) 0.97946(13) 0.9057(2)
C22_4 C 0.7888(4) 0.96521(15) 0.8494(2)
H13_4 H 0.7262 0.9687 0.8338
C23_4 C 0.8520(4) 0.94576(14) 0.8153(3)
H14_4 H 0.8306 0.9356 0.7779
C24_4 C 0.9471(4) 0.94100(13) 0.8354(2)
C25_4 C 0.9734(4) 0.95539(14) 0.8937(2)
C26_4 C 0.9086(4) 0.97387(14) 0.9277(2)
H16_4 H 0.9277 0.9829 0.9667
H17_4 H 0.9623 0.9348 0.7085
N3_6 N 0.75022(17) 0.99983(7) 0.94071(7)
loop_
_geom_bond_atom_site_label_1
_geom_bond_atom_site_label_2
_geom_bond_site_symmetry_1
_geom_bond_site_symmetry_2
C71 C82 1_555 1_555
H50 C75 1_555 1_555
C76 C75 1_555 1_555
C79 C76 1_555 1_555
C80 C79 1_555 1_555
H53 C80 1_555 1_555
C81 C80 1_555 1_555
H54 C81 1_555 1_555
C82 C81 1_555 1_555
C83 C82 1_555 1_555
H55 C83 1_555 1_555
C84 C79 1_555 1_555
O6 C71 1_555 1_555
Zn5 O6 1_555 1_555
C83 C84 1_555 1_555
C71 H57 1_555 1_555
C2 H1 1_555 1_555
C3 C2 1_555 1_555
C4 C3 1_555 1_555
C5 C4 1_555 1_555
C6 C5 1_555 1_555
H4 C6 1_555 1_555
C32 C33 1_555 1_555
C38 C33 1_555 1_555
H24 C38 1_555 1_555
N1 C2 1_555 1_555
O1 C32 1_555 1_555
O2 C32 1_555 1_555
Zn5 N1 1_555 1_555
N8 Zn5 1_555 1_555
C6 N1 1_555 1_555
O1 Zn5 1_555 1_555
C11 C10 1_555 1_555
H7 C11 1_555 1_555
C13 C14 1_555 1_555
C14 H9 1_555 1_555
C15 C14 1_555 1_555
H10 C15 1_555 1_555
C16 C15 1_555 1_555
C17 C16 1_555 1_555
C18 C17 1_555 1_555
H11 C18 1_555 1_555
C19 C18 1_555 1_555
H12 C19 1_555 1_555
C20 C19 1_555 1_555
C21 C22 1_555 1_555
C22 H13 1_555 1_555
C23 C22 1_555 1_555
H14 C23 1_555 1_555
C24 C23 1_555 1_555
C25 C24 1_555 1_555
C26 C21 1_555 1_555
H16 C26 1_555 1_555
N2 C10 1_555 1_555
N3 C20 1_555 1_555
C53 N2 1_555 1_555
C54 C53 1_555 1_555
H35 C54 1_555 1_555
H36 C55 1_555 1_555
C56 C13 1_555 1_555
H37 C56 1_555 1_555
C57 C16 1_555 1_555
H38 C57 1_555 1_555
C58 C17 1_555 1_555
H39 C58 1_555 1_555
C59 C20 1_555 1_555
H40 C59 1_555 1_555
C60 N3 1_555 1_555
C61 C60 1_555 1_555
H41 C61 1_555 1_555
C62 C61 1_555 1_555
H42 C62 1_555 1_555
C63 C62 1_555 1_555
C64 C63 1_555 1_555
H43 C64 1_555 1_555
C65 C60 1_555 1_555
H44 C65 1_555 1_555
C66 C63 1_555 1_555
C67 C66 1_555 1_555
H45 C67 1_555 1_555
C68 C67 1_555 1_555
H46 C68 1_555 1_555
C69 H47 1_555 1_555
C70 C66 1_555 1_555
H48 C70 1_555 1_555
N8 C68 1_555 1_555
H51 C77 1_555 1_555
C11 C12 1_555 1_555
C13 N2 1_555 1_555
C21 N3 1_555 1_555
C25 C26 1_555 1_555
C54 C55 1_555 1_555
C56 C57 1_555 1_555
C58 C59 1_555 1_555
C64 C65 1_555 1_555
C69 C70 1_555 1_555
C69 N8 1_555 1_555
C21_2 C22_2 1_555 1_555
C22_2 H13_2 1_555 1_555
C23_2 C22_2 1_555 1_555
H14_2 C23_2 1_555 1_555
C24_2 C23_2 1_555 1_555
C25_2 C24_2 1_555 1_555
C26_2 C21_2 1_555 1_555
H16_2 C26_2 1_555 1_555
C21_2 N3_2 1_555 1_555
C25_2 C26_2 1_555 1_555
C13_2 C14_2 1_555 1_555
C14_2 H9_2 1_555 1_555
C15_2 C14_2 1_555 1_555
H10_2 C15_2 1_555 1_555
C16_2 C15_2 1_555 1_555
C17_2 C16_2 1_555 1_555
C18_2 C17_2 1_555 1_555
H11_2 C18_2 1_555 1_555
C19_2 C18_2 1_555 1_555
H12_2 C19_2 1_555 1_555
C20_2 C19_2 1_555 1_555
C45 H29 1_555 1_555
C46 C45 1_555 1_555
H30 C46 1_555 1_555
C47 C46 1_555 1_555
C48 C47 1_555 1_555
H31_2 C48 1_555 1_555
C49 C48 1_555 1_555
H32 C49 1_555 1_555
C50 C47 1_555 1_555
C51 C50 1_555 1_555
H33 C51 1_555 1_555
C52 C51 1_555 1_555
H34 C52 1_555 1_555
C53_2 N2_2 1_555 1_555
C54_2 C53_2 1_555 1_555
H35_2 C54_2 1_555 1_555
C55_2 C50 1_555 1_555
H36_2 C55_2 1_555 1_555
N5 C45 1_555 1_555
C72 C73 1_555 1_555
C73 C74_2 1_555 1_555
H51_2 C77_2 1_555 1_555
C78 C73 1_555 1_555
H52 C78 1_555 1_555
O4 C72 1_555 1_555
O5 C72 1_555 1_555
Zn2 N5 1_555 1_555
N7 Zn2 1_555 1_555
O7 Zn2 1_555 1_555
C13_2 N2_2 1_555 1_555
C49 N5 1_555 1_555
C52 C53_2 1_555 1_555
C54_2 C55_2 1_555 1_555
C77_2 C78 1_555 1_555
O4 Zn2 1_555 1_555
C61_2 C60_2 1_555 1_555
H41_2 C61_2 1_555 1_555
C62_2 C61_2 1_555 1_555
H42_2 C62_2 1_555 1_555
C63_2 C62_2 1_555 1_555
C64_2 C63_2 1_555 1_555
H43_2 C64_2 1_555 1_555
C65_2 C60_2 1_555 1_555
H44_2 C65_2 1_555 1_555
C66_2 C63_2 1_555 1_555
C67_2 C66_2 1_555 1_555
H45_2 C67_2 1_555 1_555
C68_2 C67_2 1_555 1_555
H46_2 C68_2 1_555 1_555
C69_2 H47_2 1_555 1_555
C70_2 C66_2 1_555 1_555
H48_2 C70_2 1_555 1_555
N6 C68_2 1_555 1_555
Zn3 N6 1_555 1_555
C64_2 C65_2 1_555 1_555
C69_2 C70_2 1_555 1_555
C69_2 N6 1_555 1_555
C28 C27 1_555 1_555
C29 C28 1_555 1_555
H18 C29 1_555 1_555
C30 H19 1_555 1_555
C31 C27 1_555 1_555
H20 C31 1_555 1_555
N7 C29 1_555 1_555
C30 C31 1_555 1_555
C30 N7 1_555 1_555
C1 C42 1_555 1_555
C2_2 H1_2 1_555 1_555
C3_2 C2_2 1_555 1_555
C4_2 C3_2 1_555 1_555
C5_2 C4_2 1_555 1_555
H3 C5_2 1_555 1_555
C6_2 C5_2 1_555 1_555
H4_2 C6_2 1_555 1_555
C32_2 C33_2 1_555 1_555
C33_2 C34 1_555 1_555
C34 H21 1_555 1_555
C35 C34 1_555 1_555
H22 C35 1_555 1_555
C36 C35 1_555 1_555
C37 C36 1_555 1_555
H23 C37 1_555 1_555
C38_2 C33_2 1_555 1_555
H24_2 C38_2 1_555 1_555
C39 C36 1_555 1_555
C40 C39 1_555 1_555
H25 C40 1_555 1_555
C41 C40 1_555 1_555
H26 C41 1_555 1_555
C42 C41 1_555 1_555
C43 C42 1_555 1_555
H27 C43 1_555 1_555
C44 C39 1_555 1_555
H28 C44 1_555 1_555
N1_2 C2_2 1_555 1_555
O1_2 C32_2 1_555 1_555
O2_2 C32_2 1_555 1_555
O3 C1 1_555 1_555
Zn3 N1_2 1_555 1_555
O8 Zn3 1_555 1_555
Zn6 O3 1_555 1_555
C6_2 N1_2 1_555 1_555
C37 C38_2 1_555 1_555
C43 C44 1_555 1_555
O1_2 Zn3 1_555 1_555
C1 H58 1_555 1_555
C60_2 N3_3 1_555 1_555
C1_2 C42_2 1_555 1_555
C28_2 C27_2 1_555 1_555
C29_2 C28_2 1_555 1_555
H18_2 C29_2 1_555 1_555
C30_2 H19_2 1_555 1_555
C31_2 C27_2 1_555 1_555
H20_2 C31_2 1_555 1_555
C34_2 H21_2 1_555 1_555
C35_2 C34_2 1_555 1_555
H22_2 C35_2 1_555 1_555
C36_2 C35_2 1_555 1_555
C37_2 C36_2 1_555 1_555
H23_2 C37_2 1_555 1_555
C39_2 C36_2 1_555 1_555
C40_2 C39_2 1_555 1_555
H25_2 C40_2 1_555 1_555
C41_2 C40_2 1_555 1_555
H26_2 C41_2 1_555 1_555
C42_2 C41_2 1_555 1_555
C43_2 C42_2 1_555 1_555
H27_2 C43_2 1_555 1_555
C44_2 C39_2 1_555 1_555
H28_2 C44_2 1_555 1_555
N4 C29_2 1_555 1_555
O7 C1_2 1_555 1_555
Zn6 N4 1_555 1_555
C30_2 C31_2 1_555 1_555
C30_2 N4 1_555 1_555
C43_2 C44_2 1_555 1_555
C1_2 H58_2 1_555 1_555
C8 C7 1_555 1_555
H5 C8 1_555 1_555
C9 C8 1_555 1_555
H6 C9 1_555 1_555
C45_2 H29_2 1_555 1_555
C46_2 C45_2 1_555 1_555
H30_2 C46_2 1_555 1_555
C47_2 C46_2 1_555 1_555
C48_2 C47_2 1_555 1_555
C49_2 C48_2 1_555 1_555
H32_2 C49_2 1_555 1_555
C50_2 C47_2 1_555 1_555
C51_2 C50_2 1_555 1_555
H33_2 C51_2 1_555 1_555
C52_2 C51_2 1_555 1_555
H34_2 C52_2 1_555 1_555
N5_2 C45_2 1_555 1_555
C72_2 C73_2 1_555 1_555
C78_2 C73_2 1_555 1_555
H52_2 C78_2 1_555 1_555
O4_2 C72_2 1_555 1_555
O5_2 C72_2 1_555 1_555
Zn6 N5_2 1_555 1_555
C49_2 N5_2 1_555 1_555
O4_2 Zn6 1_555 1_555
C71_2 C82_2 1_555 1_555
H50_2 C75_2 1_555 1_555
C76_2 C75_2 1_555 1_555
C79_2 C76_2 1_555 1_555
C80_2 C79_2 1_555 1_555
H53_2 C80_2 1_555 1_555
C81_2 C80_2 1_555 1_555
H54_2 C81_2 1_555 1_555
C82_2 C81_2 1_555 1_555
C83_2 C82_2 1_555 1_555
H55_2 C83_2 1_555 1_555
C84_2 C79_2 1_555 1_555
O8 C71_2 1_555 1_555
C83_2 C84_2 1_555 1_555
C71_2 H57_2 1_555 1_555
C8_2 C7_2 1_555 1_555
H5_2 C8_2 1_555 1_555
C9_2 C8_2 1_555 1_555
H6_2 C9_2 1_555 1_555
C10_2 C9_2 1_555 1_555
C11_2 C10_2 1_555 1_555
H7_2 C11_2 1_555 1_555
C12_2 C7_2 1_555 1_555
C17_3 C16_3 1_555 1_555
C56_2 C13_3 1_555 1_555
H37_2 C56_2 1_555 1_555
C57_2 C16_3 1_555 1_555
H38_2 C57_2 1_555 1_555
C58_2 C17_3 1_555 1_555
H39_2 C58_2 1_555 1_555
C59_2 C20_3 1_555 1_555
H40_2 C59_2 1_555 1_555
C11_2 C12_2 1_555 1_555
C56_2 C57_2 1_555 1_555
C58_2 C59_2 1_555 1_555
C10_2 N2_3 1_555 1_555
C13_3 N2_3 1_555 1_555
C71_3 C82_3 1_555 1_555
H50_3 C75_3 1_555 1_555
C76_3 C75_3 1_555 1_555
C79_3 C76_3 1_555 1_555
C80_3 C79_3 1_555 1_555
H53_3 C80_3 1_555 1_555
C81_3 C80_3 1_555 1_555
H54_3 C81_3 1_555 1_555
C82_3 C81_3 1_555 1_555
C83_3 C82_3 1_555 1_555
H55_3 C83_3 1_555 1_555
C84_3 C79_3 1_555 1_555
O6_2 C71_3 1_555 1_555
Zn5_2 O6_2 1_555 1_555
C83_3 C84_3 1_555 1_555
C71_3 H57_3 1_555 1_555
C8_3 C7_3 1_555 1_555
H5_3 C8_3 1_555 1_555
C9_3 C8_3 1_555 1_555
H6_3 C9_3 1_555 1_555
C45_3 H29_3 1_555 1_555
C46_3 C45_3 1_555 1_555
H30_3 C46_3 1_555 1_555
C47_3 C46_3 1_555 1_555
C48_3 C47_3 1_555 1_555
C49_3 C48_3 1_555 1_555
H32_3 C49_3 1_555 1_555
C50_3 C47_3 1_555 1_555
C51_3 C50_3 1_555 1_555
H33_3 C51_3 1_555 1_555
C52_3 C51_3 1_555 1_555
H34_3 C52_3 1_555 1_555
N5_3 C45_3 1_555 1_555
C72_3 C73_3 1_555 1_555
C78_3 C73_3 1_555 1_555
H52_3 C78_3 1_555 1_555
O4_3 C72_3 1_555 1_555
O5_3 C72_3 1_555 1_555
Zn2_2 N5_3 1_555 1_555
N7_2 Zn2_2 1_555 1_555
O7_2 Zn2_2 1_555 1_555
C49_3 N5_3 1_555 1_555
O4_3 Zn2_2 1_555 1_555
C1_3 C42_3 1_555 1_555
C28_3 C27_3 1_555 1_555
C29_3 C28_3 1_555 1_555
H18_3 C29_3 1_555 1_555
C30_3 H19_3 1_555 1_555
C31_3 C27_3 1_555 1_555
H20_3 C31_3 1_555 1_555
C34_3 H21_3 1_555 1_555
C35_3 C34_3 1_555 1_555
H22_3 C35_3 1_555 1_555
C36_3 C35_3 1_555 1_555
C37_3 C36_3 1_555 1_555
H23_3 C37_3 1_555 1_555
C39_3 C36_3 1_555 1_555
C40_3 C39_3 1_555 1_555
H25_3 C40_3 1_555 1_555
C41_3 C40_3 1_555 1_555
H26_3 C41_3 1_555 1_555
C42_3 C41_3 1_555 1_555
C43_3 C42_3 1_555 1_555
H27_3 C43_3 1_555 1_555
C44_3 C39_3 1_555 1_555
H28_3 C44_3 1_555 1_555
N7_2 C29_3 1_555 1_555
O3_2 C1_3 1_555 1_555
Zn6_2 O3_2 1_555 1_555
C30_3 C31_3 1_555 1_555
C30_3 N7_2 1_555 1_555
C43_3 C44_3 1_555 1_555
C1_3 H58_3 1_555 1_555
C1_4 C42_4 1_555 1_555
C2_3 H1_3 1_555 1_555
C3_3 C2_3 1_555 1_555
C4_3 C3_3 1_555 1_555
C5_3 C4_3 1_555 1_555
H3_4 C5_3 1_555 1_555
C6_3 C5_3 1_555 1_555
H4_3 C6_3 1_555 1_555
C32_3 C33_3 1_555 1_555
C33_3 C34_4 1_555 1_555
C34_4 H21_4 1_555 1_555
C35_4 C34_4 1_555 1_555
H22_4 C35_4 1_555 1_555
C36_4 C35_4 1_555 1_555
C37_4 C36_4 1_555 1_555
H23_4 C37_4 1_555 1_555
C38_3 C33_3 1_555 1_555
H24_3 C38_3 1_555 1_555
C39_4 C36_4 1_555 1_555
C40_4 C39_4 1_555 1_555
H25_4 C40_4 1_555 1_555
C41_4 C40_4 1_555 1_555
H26_4 C41_4 1_555 1_555
C42_4 C41_4 1_555 1_555
C43_4 C42_4 1_555 1_555
H27_4 C43_4 1_555 1_555
C44_4 C39_4 1_555 1_555
H28_4 C44_4 1_555 1_555
N1_3 C2_3 1_555 1_555
O1_3 C32_3 1_555 1_555
O2_3 C32_3 1_555 1_555
O7_2 C1_4 1_555 1_555
Zn5_2 N1_3 1_555 1_555
N8_2 Zn5_2 1_555 1_555
C6_3 N1_3 1_555 1_555
C37_4 C38_3 1_555 1_555
C43_4 C44_4 1_555 1_555
O1_3 Zn5_2 1_555 1_555
C1_4 H58_4 1_555 1_555
C28_4 C27_4 1_555 1_555
C29_4 C28_4 1_555 1_555
H18_4 C29_4 1_555 1_555
C30_4 H19_4 1_555 1_555
C31_4 C27_4 1_555 1_555
H20_4 C31_4 1_555 1_555
N4_2 C29_4 1_555 1_555
Zn6_2 N4_2 1_555 1_555
C30_4 C31_4 1_555 1_555
C30_4 N4_2 1_555 1_555
C61_3 C60_3 1_555 1_555
H41_3 C61_3 1_555 1_555
C62_3 C61_3 1_555 1_555
H42_3 C62_3 1_555 1_555
C63_3 C62_3 1_555 1_555
C64_3 C63_3 1_555 1_555
H43_3 C64_3 1_555 1_555
C65_3 C60_3 1_555 1_555
H44_3 C65_3 1_555 1_555
C66_3 C63_3 1_555 1_555
C67_3 C66_3 1_555 1_555
H45_3 C67_3 1_555 1_555
C68_3 C67_3 1_555 1_555
H46_3 C68_3 1_555 1_555
C69_3 H47_3 1_555 1_555
C70_3 C66_3 1_555 1_555
H48_3 C70_3 1_555 1_555
N8_2 C68_3 1_555 1_555
C64_3 C65_3 1_555 1_555
C69_3 C70_3 1_555 1_555
C69_3 N8_2 1_555 1_555
C13_4 C14_3 1_555 1_555
C14_3 H9_3 1_555 1_555
C15_3 C14_3 1_555 1_555
H10_3 C15_3 1_555 1_555
C16_4 C15_3 1_555 1_555
C17_4 C16_4 1_555 1_555
C18_3 C17_4 1_555 1_555
H11_3 C18_3 1_555 1_555
C19_3 C18_3 1_555 1_555
H12_3 C19_3 1_555 1_555
C20_4 C19_3 1_555 1_555
C45_4 H29_4 1_555 1_555
C46_4 C45_4 1_555 1_555
H30_4 C46_4 1_555 1_555
C47_4 C46_4 1_555 1_555
C48_4 C47_4 1_555 1_555
H31_3 C48_4 1_555 1_555
C49_4 C48_4 1_555 1_555
H32_4 C49_4 1_555 1_555
C50_4 C47_4 1_555 1_555
C51_4 C50_4 1_555 1_555
H33_4 C51_4 1_555 1_555
C52_4 C51_4 1_555 1_555
H34_4 C52_4 1_555 1_555
C53_3 N2_4 1_555 1_555
C54_3 C53_3 1_555 1_555
H35_3 C54_3 1_555 1_555
C55_3 C50_4 1_555 1_555
H36_3 C55_3 1_555 1_555
N5_4 C45_4 1_555 1_555
C72_4 C73_4 1_555 1_555
C73_4 C74_3 1_555 1_555
H51_3 C77_3 1_555 1_555
C78_4 C73_4 1_555 1_555
H52_4 C78_4 1_555 1_555
O4_4 C72_4 1_555 1_555
O5_4 C72_4 1_555 1_555
Zn6_2 N5_4 1_555 1_555
C13_4 N2_4 1_555 1_555
C49_4 N5_4 1_555 1_555
C52_4 C53_3 1_555 1_555
C54_3 C55_3 1_555 1_555
C77_3 C78_4 1_555 1_555
O4_4 Zn6_2 1_555 1_555
C60_3 N3_4 1_555 1_555
C11_3 C10_3 1_555 1_555
H7_3 C11_3 1_555 1_555
C13_5 C14_4 1_555 1_555
C14_4 H9_4 1_555 1_555
C15_4 C14_4 1_555 1_555
H10_4 C15_4 1_555 1_555
C16_5 C15_4 1_555 1_555
C17_5 C16_5 1_555 1_555
C18_4 C17_5 1_555 1_555
H11_4 C18_4 1_555 1_555
C19_4 C18_4 1_555 1_555
H12_4 C19_4 1_555 1_555
C20_5 C19_4 1_555 1_555
C21_3 C22_3 1_555 1_555
C22_3 H13_3 1_555 1_555
C23_3 C22_3 1_555 1_555
H14_3 C23_3 1_555 1_555
C24_3 C23_3 1_555 1_555
C25_3 C24_3 1_555 1_555
C26_3 C21_3 1_555 1_555
H16_3 C26_3 1_555 1_555
N2_5 C10_3 1_555 1_555
N3_5 C20_5 1_555 1_555
C53_4 N2_5 1_555 1_555
C54_4 C53_4 1_555 1_555
H35_4 C54_4 1_555 1_555
H36_4 C55_4 1_555 1_555
C56_3 C13_5 1_555 1_555
H37_3 C56_3 1_555 1_555
C57_3 C16_5 1_555 1_555
H38_3 C57_3 1_555 1_555
C58_3 C17_5 1_555 1_555
H39_3 C58_3 1_555 1_555
C59_3 C20_5 1_555 1_555
H40_3 C59_3 1_555 1_555
C60_4 N3_5 1_555 1_555
C61_4 C60_4 1_555 1_555
H41_4 C61_4 1_555 1_555
C62_4 C61_4 1_555 1_555
H42_4 C62_4 1_555 1_555
C63_4 C62_4 1_555 1_555
C64_4 C63_4 1_555 1_555
H43_4 C64_4 1_555 1_555
C65_4 C60_4 1_555 1_555
H44_4 C65_4 1_555 1_555
C66_4 C63_4 1_555 1_555
C67_4 C66_4 1_555 1_555
H45_4 C67_4 1_555 1_555
C68_4 C67_4 1_555 1_555
H46_4 C68_4 1_555 1_555
C69_4 H47_4 1_555 1_555
C70_4 C66_4 1_555 1_555
H48_4 C70_4 1_555 1_555
N6_2 C68_4 1_555 1_555
H51_4 C77_4 1_555 1_555
Zn3_2 N6_2 1_555 1_555
C11_3 C12_3 1_555 1_555
C13_5 N2_5 1_555 1_555
C21_3 N3_5 1_555 1_555
C25_3 C26_3 1_555 1_555
C54_4 C55_4 1_555 1_555
C56_3 C57_3 1_555 1_555
C58_3 C59_3 1_555 1_555
C64_4 C65_4 1_555 1_555
C69_4 C70_4 1_555 1_555
C69_4 N6_2 1_555 1_555
C2_4 H1_4 1_555 1_555
C3_4 C2_4 1_555 1_555
C4_4 C3_4 1_555 1_555
C5_4 C4_4 1_555 1_555
C6_4 C5_4 1_555 1_555
H4_4 C6_4 1_555 1_555
C32_4 C33_4 1_555 1_555
C38_4 C33_4 1_555 1_555
H24_4 C38_4 1_555 1_555
N1_4 C2_4 1_555 1_555
O1_4 C32_4 1_555 1_555
O2_4 C32_4 1_555 1_555
Zn3_2 N1_4 1_555 1_555
O8_2 Zn3_2 1_555 1_555
C6_4 N1_4 1_555 1_555
O1_4 Zn3_2 1_555 1_555
C71_4 C82_4 1_555 1_555
H50_4 C75_4 1_555 1_555
C76_4 C75_4 1_555 1_555
C79_4 C76_4 1_555 1_555
C80_4 C79_4 1_555 1_555
H53_4 C80_4 1_555 1_555
C81_4 C80_4 1_555 1_555
H54_4 C81_4 1_555 1_555
C82_4 C81_4 1_555 1_555
C83_4 C82_4 1_555 1_555
H55_4 C83_4 1_555 1_555
C84_4 C79_4 1_555 1_555
O8_2 C71_4 1_555 1_555
C83_4 C84_4 1_555 1_555
C71_4 H57_4 1_555 1_555
C8_4 C7_4 1_555 1_555
H5_4 C8_4 1_555 1_555
C9_4 C8_4 1_555 1_555
H6_4 C9_4 1_555 1_555
C10_4 C9_4 1_555 1_555
C11_4 C10_4 1_555 1_555
H7_4 C11_4 1_555 1_555
C12_4 C7_4 1_555 1_555
C17_6 C16_6 1_555 1_555
C56_4 C13_6 1_555 1_555
H37_4 C56_4 1_555 1_555
C57_4 C16_6 1_555 1_555
H38_4 C57_4 1_555 1_555
C58_4 C17_6 1_555 1_555
H39_4 C58_4 1_555 1_555
C59_4 C20_6 1_555 1_555
H40_4 C59_4 1_555 1_555
C11_4 C12_4 1_555 1_555
C56_4 C57_4 1_555 1_555
C58_4 C59_4 1_555 1_555
C10_4 N2_6 1_555 1_555
C13_6 N2_6 1_555 1_555
C21_4 C22_4 1_555 1_555
C22_4 H13_4 1_555 1_555
C23_4 C22_4 1_555 1_555
H14_4 C23_4 1_555 1_555
C24_4 C23_4 1_555 1_555
C25_4 C24_4 1_555 1_555
C26_4 C21_4 1_555 1_555
H16_4 C26_4 1_555 1_555
C21_4 N3_6 1_555 1_555
C25_4 C26_4 1_555 1_555

#END
