
###############################################################################
#
# This file contains modified crystal structure data generated from the
# MOF subset of the Cambridge Structural Database (CSD) v543 
# hosted by the Cambridge Crystallographic Data Centre (CCDC).
#
# This work is licensed under the Creative Commons
# Attribution-NonCommercial-ShareAlike 4.0 International License.
# To view a copy of this license, visit
# http://creativecommons.org/licenses/by-nc-sa/4.0/
# or send a letter to
# Creative Commons, PO Box 1866, Mountain View, CA 94042, USA.
#
# CIF created using the CSD Python API on 29 September 2022
# The structure has been converted into the P1 space group
# The structure has a 3D framework
# The original CSD entry XUMNEA is in the monoclinic crystal system
# The framework has been calculated to contain at least 10.0% void space
# The void calculation uses a probe of radius 1.32A, grid spacing 0.4
#
###############################################################################

data_XUMNEA
_chemical_formula_moiety         '(C192 H128 Cd4 N12 O16)n'
_symmetry_cell_setting           triclinic
_symmetry_space_group_name_H-M   'P 1'
_symmetry_Int_Tables_number      1
_space_group_name_Hall           'P 1'
loop_
_symmetry_equiv_pos_site_id
_symmetry_equiv_pos_as_xyz
1 x,y,z
_cell_length_a                   8.8305(6)
_cell_length_b                   19.9787(15)
_cell_length_c                   25.7425(19)
_cell_angle_alpha                90
_cell_angle_beta                 96.8210(10)
_cell_angle_gamma                90
_cell_volume                     4509.4
loop_
_atom_site_label
_atom_site_type_symbol
_atom_site_fract_x
_atom_site_fract_y
_atom_site_fract_z
H45 H 0.0058 0.1680 0.0420
C68 C 0.1008(4) 0.2532(2) 0.02010(13)
H46 H 0.1837 0.2321 0.0080
N6 N 0.0913(4) 0.31943(16) 0.01683(11)
H19 H 0.9541 0.5004 0.5839
C49 C 0.3872(5) 0.4869(2) 0.06744(14)
H33 H 0.3815 0.5152 0.0386
C50 C 0.4333(5) 0.5137(2) 0.11618(14)
H34 H 0.4599 0.5586 0.1193
C51 C 0.4401(4) 0.47426(19) 0.16004(13)
C52 C 0.4016(5) 0.4073(2) 0.15203(15)
H35 H 0.4043 0.3783 0.1804
C53 C 0.3602(6) 0.3844(2) 0.10279(16)
H36 H 0.3367 0.3392 0.0986
C54 C 0.4848(4) 0.50128(19) 0.21358(13)
C55 C 0.4560(4) 0.5674(2) 0.22500(14)
H37 H 0.4119 0.5955 0.1986
C56 C 0.4916(4) 0.5925(2) 0.27469(14)
H38 H 0.4730 0.6373 0.2814
C57 C 0.5551(4) 0.5513(2) 0.31477(13)
C58 C 0.5849(4) 0.4854(2) 0.30372(14)
H39 H 0.6291 0.4574 0.3301
C59 C 0.5495(4) 0.4608(2) 0.25368(14)
H40 H 0.5696 0.4162 0.2468
C60 C 0.4686(4) 0.6209(2) 0.38302(13)
C61 C 0.3181(5) 0.6019(2) 0.37699(16)
H41 H 0.2894 0.5613 0.3610
C62 C 0.2095(5) 0.6429(2) 0.39461(16)
H42 H 0.1076 0.6301 0.3896
C63 C 0.2490(4) 0.70297(19) 0.41963(14)
C64 C 0.3989(5) 0.7215(2) 0.42414(15)
H43 H 0.4274 0.7623 0.4396
C65 C 0.5100(5) 0.6813(2) 0.40636(16)
H44 H 0.6114 0.6950 0.4101
C66 C 0.1314(5) 0.7440(2) 0.44129(13)
C67 C 0.0060(5) 0.7143(2) 0.45954(14)
C69 C 0.0297(5) 0.8483(2) 0.46547(15)
H47 H 0.0384 0.8946 0.4673
C70 C 0.1421(5) 0.8125(2) 0.44469(15)
H48 H 0.2244 0.8347 0.4331
C71 C 0.7002(4) 0.5542(2) 0.40348(13)
C72 C 0.6793(5) 0.5505(3) 0.45553(16)
H49 H 0.5853 0.5619 0.4658
C73 C 0.7961(5) 0.5299(3) 0.49281(15)
H50 H 0.7788 0.5288 0.5277
C74 C 0.9374(4) 0.51091(19) 0.47995(14)
C75 C 0.9540(4) 0.51321(18) 0.42698(13)
C76 C 0.8387(4) 0.53496(18) 0.38997(13)
H52 H 0.8557 0.5366 0.3550
N4 N 0.5825(3) 0.57782(17) 0.36631(11)
N5 N 0.3508(4) 0.42321(16) 0.05950(11)
Cd6 Cd 0.27435(3) 0.379113(13) 0.979253(9)
C49_2 C 0.6128(5) 0.9869(2) 0.43256(14)
C51_2 C 0.5599(4) 0.97426(19) 0.33996(13)
C52_2 C 0.5984(5) 0.9073(2) 0.34797(15)
H35_2 H 0.5957 0.8783 0.3196
C53_2 C 0.6398(6) 0.8844(2) 0.39721(16)
H36_2 H 0.6633 0.8392 0.4014
C58_2 C 0.4151(4) 0.9854(2) 0.19628(14)
H39_2 H 0.3709 0.9574 0.1699
C59_2 C 0.4505(4) 0.9608(2) 0.24632(14)
H40_2 H 0.4304 0.9162 0.2532
N5_2 N 0.6492(4) 0.92321(16) 0.44050(11)
C77 C 0.4945(5) 0.8021(2) 0.54766(13)
C78 C 0.3669(4) 0.76428(19) 0.56652(13)
C79 C 0.3677(5) 0.6952(2) 0.56923(14)
H53 H 0.4471 0.6716 0.5570
C80 C 0.2534(5) 0.6605(2) 0.58968(15)
H54 H 0.2582 0.6140 0.5914
C81 C 0.1315(4) 0.69343(19) 0.60776(13)
C82 C 0.1249(5) 0.7633(2) 0.60286(15)
H55 H 0.0424 0.7867 0.6131
C83 C 0.2406(5) 0.7973(2) 0.58286(14)
H56 H 0.2348 0.8437 0.5801
C84 C 0.0136(5) 0.65701(19) 0.63254(14)
C89 C 0.0540(5) 0.62318(18) 0.67956(15)
H60 H 0.1554 0.6240 0.6943
C93 C 0.0857(5) 0.4909(2) 0.85186(15)
C94 C 0.1449(5) 0.5521(2) 0.84080(15)
H63 H 0.2157 0.5726 0.8654
C95 C 0.1004(5) 0.5840(2) 0.79331(15)
H64 H 0.1427 0.6252 0.7864
C96 C 0.1428(5) 0.4536(2) 0.90099(15)
Cd2 Cd 0.72565(3) 0.879113(13) 0.520747(9)
O5 O 0.6087(3) 0.77202(14) 0.53641(11)
O6 O 0.4827(4) 0.86366(15) 0.54319(12)
O7 O 0.2145(4) 0.48387(15) 0.93806(11)
O8 O 0.1211(4) 0.39251(16) 0.90180(12)
N8 N 0.9087(4) 0.81943(16) 0.48317(11)
O10 O 0.7855(4) 0.98387(15) 0.56194(11)
O12 O 0.8789(4) 0.89251(16) 0.59820(12)
C77_2 C 0.5055(5) 0.3021(2) 0.95234(13)
C78_2 C 0.6331(4) 0.26428(19) 0.93348(13)
C79_2 C 0.6323(5) 0.1952(2) 0.93077(14)
H53_2 H 0.5529 0.1716 0.9430
C80_2 C 0.7466(5) 0.1605(2) 0.91032(15)
H54_2 H 0.7418 0.1140 0.9086
C81_2 C 0.8685(4) 0.19343(19) 0.89224(13)
C82_2 C 0.8751(5) 0.2633(2) 0.89714(15)
H55_2 H 0.9576 0.2867 0.8869
C83_2 C 0.7594(5) 0.2973(2) 0.91714(14)
H56_2 H 0.7652 0.3437 0.9199
C84_2 C 0.9864(5) 0.15701(19) 0.86746(14)
C89_2 C 0.9460(5) 0.12318(18) 0.82044(15)
H60_2 H 0.8446 0.1240 0.8057
C94_2 C 0.8551(5) 0.0521(2) 0.65920(15)
H63_2 H 0.7843 0.0726 0.6346
C95_2 C 0.8996(5) 0.0840(2) 0.70669(15)
H64_2 H 0.8573 0.1252 0.7136
O5_2 O 0.3913(3) 0.27202(14) 0.96359(11)
O6_2 O 0.5173(4) 0.36366(15) 0.95681(12)
C93_2 C 0.9143(5) 0.9909(2) 0.64814(15)
C96_2 C 0.8572(5) 0.9536(2) 0.59901(15)
H45_2 H 0.9942 0.6680 0.4580
C68_2 C 0.8992(4) 0.7532(2) 0.47990(13)
H46_2 H 0.8163 0.7321 0.4920
H33_2 H 0.6185 0.0152 0.4614
C50_2 C 0.5667(5) 0.0137(2) 0.38382(14)
H34_2 H 0.5401 0.0586 0.3807
C54_2 C 0.5152(4) 0.00128(19) 0.28642(13)
C55_2 C 0.5440(4) 0.0674(2) 0.27500(14)
H37_2 H 0.5881 0.0955 0.3014
C56_2 C 0.5084(4) 0.0925(2) 0.22531(14)
H38_2 H 0.5270 0.1373 0.2186
C57_2 C 0.4449(4) 0.0513(2) 0.18523(13)
C60_2 C 0.5314(4) 0.1209(2) 0.11698(13)
C61_2 C 0.6819(5) 0.1019(2) 0.12301(16)
H41_2 H 0.7106 0.0613 0.1390
C62_2 C 0.7905(5) 0.1429(2) 0.10539(16)
H42_2 H 0.8924 0.1301 0.1104
C63_2 C 0.7510(4) 0.20297(19) 0.08037(14)
C64_2 C 0.6011(5) 0.2215(2) 0.07586(15)
H43_2 H 0.5726 0.2623 0.0604
C65_2 C 0.4900(5) 0.1813(2) 0.09364(16)
H44_2 H 0.3886 0.1950 0.0899
C66_2 C 0.8686(5) 0.2440(2) 0.05871(13)
C67_2 C 0.9940(5) 0.2143(2) 0.04046(14)
C69_2 C 0.9703(5) 0.3483(2) 0.03453(15)
H47_2 H 0.9616 0.3946 0.0327
C70_2 C 0.8579(5) 0.3125(2) 0.05531(15)
H48_2 H 0.7756 0.3347 0.0669
C71_2 C 0.2998(4) 0.0542(2) 0.09652(13)
C72_2 C 0.3207(5) 0.0505(3) 0.04447(16)
H49_2 H 0.4147 0.0619 0.0342
C73_2 C 0.2039(5) 0.0299(3) 0.00719(15)
C74_2 C 0.0626(4) 0.01091(19) 0.02005(14)
C75_2 C 0.0460(4) 0.01321(18) 0.07302(13)
C76_2 C 0.1613(4) 0.03496(18) 0.11003(13)
H52_2 H 0.1443 0.0366 0.1450
N4_2 N 0.4175(3) 0.07782(17) 0.13369(11)
H19_2 H 0.0459 0.0004 0.9161
C37 C 0.1379(5) 0.3450(2) 0.38874(17)
H25 H 0.1686 0.3220 0.4196
C38 C 0.2432(5) 0.3804(2) 0.36486(19)
H26 H 0.3439 0.3824 0.3802
C39 C 0.2006(5) 0.4134(2) 0.31808(17)
H27 H 0.2733 0.4370 0.3022
C40 C 0.0516(5) 0.4117(2) 0.29479(15)
C42 C 0.0060(4) 0.4450(2) 0.24377(14)
C43 C 0.0671(5) 0.5049(2) 0.23170(16)
H29 H 0.1411 0.5245 0.2556
C44 C 0.0223(5) 0.5372(2) 0.18482(17)
H30 H 0.0654 0.5783 0.1780
H50_2 H 0.2212 0.0288 0.9723
C1 C 0.3872(5) 0.0131(2) 0.56744(14)
C3 C 0.4401(4) 0.02574(19) 0.66004(13)
C4 C 0.4016(5) 0.0927(2) 0.65203(15)
H3 H 0.4043 0.1217 0.6804
C5 C 0.3602(6) 0.1156(2) 0.60279(16)
H4 H 0.3367 0.1608 0.5986
C10 C 0.5849(4) 0.0146(2) 0.80372(14)
H7 H 0.6291 0.0426 0.8301
C11 C 0.5495(4) 0.0392(2) 0.75368(14)
H8 H 0.5696 0.0838 0.7468
C29 C 0.5055(5) 0.1979(2) 0.45234(13)
C30 C 0.6331(4) 0.23572(19) 0.43348(13)
C31 C 0.6323(5) 0.3048(2) 0.43077(14)
H21 H 0.5529 0.3284 0.4430
C32 C 0.7466(5) 0.3395(2) 0.41032(15)
H22 H 0.7418 0.3860 0.4086
C33 C 0.8685(4) 0.30657(19) 0.39224(13)
C34 C 0.8751(5) 0.2367(2) 0.39714(15)
H23 H 0.9576 0.2133 0.3869
C35 C 0.7594(5) 0.2027(2) 0.41714(14)
H24 H 0.7652 0.1563 0.4199
C36 C 0.9864(5) 0.34299(19) 0.36746(14)
C41 C 0.9460(5) 0.37682(18) 0.32044(15)
H28 H 0.8446 0.3760 0.3057
C45 C 0.9143(5) 0.5091(2) 0.14814(15)
C46 C 0.8551(5) 0.4479(2) 0.15920(15)
H31 H 0.7843 0.4274 0.1346
C47 C 0.8996(5) 0.4160(2) 0.20669(15)
H32 H 0.8573 0.3748 0.2136
C48 C 0.8572(5) 0.5464(2) 0.09901(15)
Cd1 Cd 0.27435(3) 0.120887(13) 0.479253(9)
N2 N 0.3508(4) 0.07679(16) 0.55950(11)
O1 O 0.3913(3) 0.22798(14) 0.46359(11)
O2 O 0.5173(4) 0.13634(15) 0.45681(12)
O3 O 0.7855(4) 0.51613(15) 0.06194(11)
O4 O 0.8789(4) 0.60749(16) 0.09820(12)
Cd4 Cd 0.72565(3) 0.620887(13) 0.020747(9)
N7 N 0.0913(4) 0.18057(16) 0.51683(11)
O9 O 0.2145(4) 0.01613(15) 0.43806(11)
O11 O 0.1211(4) 0.10749(16) 0.40180(12)
H13 H 0.0058 0.3320 0.5420
C20 C 0.1008(4) 0.2468(2) 0.52010(13)
H14 H 0.1837 0.2679 0.5080
C45_2 C 0.0857(5) 0.0091(2) 0.35186(15)
C48_2 C 0.1428(5) 0.0464(2) 0.40099(15)
C29_2 C 0.4945(5) 0.6979(2) 0.04766(13)
C30_2 C 0.3669(4) 0.73572(19) 0.06652(13)
C31_2 C 0.3677(5) 0.8048(2) 0.06923(14)
H21_2 H 0.4471 0.8284 0.0570
C32_2 C 0.2534(5) 0.8395(2) 0.08968(15)
H22_2 H 0.2582 0.8860 0.0914
C33_2 C 0.1315(4) 0.80657(19) 0.10776(13)
C34_2 C 0.1249(5) 0.7367(2) 0.10286(15)
H23_2 H 0.0424 0.7133 0.1131
C35_2 C 0.2406(5) 0.7027(2) 0.08286(14)
H24_2 H 0.2348 0.6563 0.0801
C36_2 C 0.0136(5) 0.84299(19) 0.13254(14)
C41_2 C 0.0540(5) 0.87682(18) 0.17956(15)
H28_2 H 0.1554 0.8760 0.1943
C46_2 C 0.1449(5) 0.9479(2) 0.34080(15)
H31_2 H 0.2157 0.9274 0.3654
C47_2 C 0.1004(5) 0.9160(2) 0.29331(15)
H32_2 H 0.1427 0.8748 0.2864
O1_2 O 0.6087(3) 0.72798(14) 0.03641(11)
O2_2 O 0.4827(4) 0.63634(15) 0.04319(12)
H18 H 0.7788 0.9712 0.0277
H51 H 0.9541 0.9996 0.0839
C85 C 0.8621(5) 0.6550(2) 0.61126(17)
H57 H 0.8314 0.6780 0.5804
C86 C 0.7568(5) 0.6196(2) 0.63514(19)
H58 H 0.6561 0.6176 0.6198
C87 C 0.7994(5) 0.5866(2) 0.68192(17)
H59 H 0.7267 0.5630 0.6978
C88 C 0.9484(5) 0.5883(2) 0.70521(15)
C90 C 0.9940(4) 0.5550(2) 0.75623(14)
C91 C 0.9329(5) 0.4951(2) 0.76830(16)
H61 H 0.8589 0.4755 0.7444
C92 C 0.9777(5) 0.4628(2) 0.81518(17)
H62 H 0.9346 0.4217 0.8220
H1 H 0.3815 0.9848 0.5386
C2 C 0.4333(5) 0.9863(2) 0.61618(14)
H2 H 0.4599 0.9414 0.6193
C6 C 0.4848(4) 0.99872(19) 0.71358(13)
C7 C 0.4560(4) 0.9326(2) 0.72500(14)
H5 H 0.4119 0.9045 0.6986
C8 C 0.4916(4) 0.9075(2) 0.77469(14)
H6 H 0.4730 0.8627 0.7814
C9 C 0.5551(4) 0.9487(2) 0.81477(13)
C12 C 0.4686(4) 0.8791(2) 0.88302(13)
C13 C 0.3181(5) 0.8981(2) 0.87699(16)
H9 H 0.2894 0.9387 0.8610
C14 C 0.2095(5) 0.8571(2) 0.89461(16)
H10 H 0.1076 0.8699 0.8896
C15 C 0.2490(4) 0.79703(19) 0.91963(14)
C16 C 0.3989(5) 0.7785(2) 0.92414(15)
H11 H 0.4274 0.7377 0.9396
C17 C 0.5100(5) 0.8187(2) 0.90636(16)
H12 H 0.6114 0.8050 0.9101
C18 C 0.1314(5) 0.7560(2) 0.94129(13)
C19 C 0.0060(5) 0.7857(2) 0.95954(14)
C21 C 0.0297(5) 0.6517(2) 0.96547(15)
H15 H 0.0384 0.6054 0.9673
C22 C 0.1421(5) 0.6875(2) 0.94469(15)
H16 H 0.2244 0.6653 0.9331
C23 C 0.7002(4) 0.9458(2) 0.90348(13)
C24 C 0.6793(5) 0.9495(3) 0.95553(16)
H17 H 0.5853 0.9381 0.9658
C25 C 0.7961(5) 0.9701(3) 0.99281(15)
C26 C 0.9374(4) 0.98909(19) 0.97995(14)
C27 C 0.9540(4) 0.98679(18) 0.92698(13)
C28 C 0.8387(4) 0.96504(18) 0.88997(13)
H20 H 0.8557 0.9634 0.8550
N1 N 0.5825(3) 0.92218(17) 0.86631(11)
H13_2 H 0.9942 0.8320 0.9580
C20_2 C 0.8992(4) 0.7468(2) 0.97990(13)
H14_2 H 0.8163 0.7679 0.9920
N3 N 0.9087(4) 0.68057(16) 0.98317(11)
C1_2 C 0.6128(5) 0.5131(2) 0.93256(14)
H1_2 H 0.6185 0.4848 0.9614
C2_2 C 0.5667(5) 0.4863(2) 0.88382(14)
H2_2 H 0.5401 0.4414 0.8807
C3_2 C 0.5599(4) 0.52574(19) 0.83996(13)
C4_2 C 0.5984(5) 0.5927(2) 0.84797(15)
H3_2 H 0.5957 0.6217 0.8196
C5_2 C 0.6398(6) 0.6156(2) 0.89721(16)
H4_2 H 0.6633 0.6608 0.9014
C6_2 C 0.5152(4) 0.49872(19) 0.78642(13)
C7_2 C 0.5440(4) 0.4326(2) 0.77500(14)
H5_2 H 0.5881 0.4045 0.8014
C8_2 C 0.5084(4) 0.4075(2) 0.72531(14)
H6_2 H 0.5270 0.3627 0.7186
C9_2 C 0.4449(4) 0.4487(2) 0.68523(13)
C10_2 C 0.4151(4) 0.5146(2) 0.69628(14)
H7_2 H 0.3709 0.5426 0.6699
C11_2 C 0.4505(4) 0.5392(2) 0.74632(14)
H8_2 H 0.4304 0.5838 0.7532
C12_2 C 0.5314(4) 0.3791(2) 0.61698(13)
C13_2 C 0.6819(5) 0.3981(2) 0.62301(16)
H9_2 H 0.7106 0.4387 0.6390
C14_2 C 0.7905(5) 0.3571(2) 0.60539(16)
H10_2 H 0.8924 0.3699 0.6104
C15_2 C 0.7510(4) 0.29703(19) 0.58037(14)
C16_2 C 0.6011(5) 0.2785(2) 0.57586(15)
H11_2 H 0.5726 0.2377 0.5604
C17_2 C 0.4900(5) 0.3187(2) 0.59364(16)
H12_2 H 0.3886 0.3050 0.5899
C18_2 C 0.8686(5) 0.2560(2) 0.55871(13)
C19_2 C 0.9940(5) 0.2857(2) 0.54046(14)
C21_2 C 0.9703(5) 0.1517(2) 0.53453(15)
H15_2 H 0.9616 0.1054 0.5327
C22_2 C 0.8579(5) 0.1875(2) 0.55531(15)
H16_2 H 0.7756 0.1653 0.5669
C23_2 C 0.2998(4) 0.4458(2) 0.59652(13)
C24_2 C 0.3207(5) 0.4495(3) 0.54447(16)
H17_2 H 0.4147 0.4381 0.5342
C25_2 C 0.2039(5) 0.4701(3) 0.50719(15)
H18_2 H 0.2212 0.4712 0.4723
C26_2 C 0.0626(4) 0.48909(19) 0.52005(14)
C27_2 C 0.0460(4) 0.48679(18) 0.57302(13)
C28_2 C 0.1613(4) 0.46504(18) 0.61003(13)
H20_2 H 0.1443 0.4634 0.6450
N1_2 N 0.4175(3) 0.42218(17) 0.63369(11)
N2_2 N 0.6492(4) 0.57679(16) 0.94050(11)
H51_2 H 0.0459 0.4996 0.4161
C85_2 C 0.1379(5) 0.1550(2) 0.88874(17)
H57_2 H 0.1686 0.1780 0.9196
C86_2 C 0.2432(5) 0.1196(2) 0.86486(19)
H58_2 H 0.3439 0.1176 0.8802
C87_2 C 0.2006(5) 0.0866(2) 0.81808(17)
H59_2 H 0.2733 0.0630 0.8022
C88_2 C 0.0516(5) 0.0883(2) 0.79479(15)
C90_2 C 0.0060(4) 0.0550(2) 0.74377(14)
C91_2 C 0.0671(5) 0.9951(2) 0.73170(16)
H61_2 H 0.1411 0.9755 0.7556
C92_2 C 0.0223(5) 0.9628(2) 0.68482(17)
H62_2 H 0.0654 0.9217 0.6780
C43_2 C 0.9329(5) 0.0049(2) 0.26830(16)
H29_2 H 0.8589 0.0245 0.2444
C44_2 C 0.9777(5) 0.0372(2) 0.31518(17)
H30_2 H 0.9346 0.0783 0.3220
C37_2 C 0.8621(5) 0.8450(2) 0.11126(17)
H25_2 H 0.8314 0.8220 0.0804
C38_2 C 0.7568(5) 0.8804(2) 0.13514(19)
H26_2 H 0.6561 0.8824 0.1198
C39_2 C 0.7994(5) 0.9134(2) 0.18192(17)
H27_2 H 0.7267 0.9370 0.1978
C40_2 C 0.9484(5) 0.9117(2) 0.20521(15)
C42_2 C 0.9940(4) 0.9450(2) 0.25623(14)
loop_
_geom_bond_atom_site_label_1
_geom_bond_atom_site_label_2
_geom_bond_site_symmetry_1
_geom_bond_site_symmetry_2
H46 C68 1_555 1_555
N6 C68 1_555 1_555
C49 H33 1_555 1_555
C50 C49 1_555 1_555
H34 C50 1_555 1_555
C51 C50 1_555 1_555
C52 C51 1_555 1_555
H35 C52 1_555 1_555
C53 C52 1_555 1_555
H36 C53 1_555 1_555
C54 C51 1_555 1_555
C55 C54 1_555 1_555
H37 C55 1_555 1_555
C56 C55 1_555 1_555
H38 C56 1_555 1_555
C57 C56 1_555 1_555
C58 C57 1_555 1_555
H39 C58 1_555 1_555
C59 C54 1_555 1_555
H40 C59 1_555 1_555
C60 C61 1_555 1_555
C61 H41 1_555 1_555
C62 C61 1_555 1_555
H42 C62 1_555 1_555
C63 C62 1_555 1_555
C64 C63 1_555 1_555
H43 C64 1_555 1_555
C65 C60 1_555 1_555
H44 C65 1_555 1_555
C66 C63 1_555 1_555
C67 C66 1_555 1_555
C69 H47 1_555 1_555
C70 C66 1_555 1_555
H48 C70 1_555 1_555
C71 C72 1_555 1_555
C72 H49 1_555 1_555
C73 C72 1_555 1_555
H50 C73 1_555 1_555
C75 C74 1_555 1_555
C76 C71 1_555 1_555
H52 C76 1_555 1_555
N4 C57 1_555 1_555
N5 C49 1_555 1_555
C53 N5 1_555 1_555
C58 C59 1_555 1_555
C60 N4 1_555 1_555
C64 C65 1_555 1_555
C69 C70 1_555 1_555
C71 N4 1_555 1_555
C73 C74 1_555 1_555
C75 C76 1_555 1_555
C52_2 C51_2 1_555 1_555
H35_2 C52_2 1_555 1_555
C53_2 C52_2 1_555 1_555
H36_2 C53_2 1_555 1_555
H39_2 C58_2 1_555 1_555
H40_2 C59_2 1_555 1_555
N5_2 C49_2 1_555 1_555
C77 C78 1_555 1_555
C78 C79 1_555 1_555
C79 H53 1_555 1_555
C80 C79 1_555 1_555
H54 C80 1_555 1_555
C81 C80 1_555 1_555
C82 C81 1_555 1_555
H55 C82 1_555 1_555
C83 C78 1_555 1_555
H56 C83 1_555 1_555
C84 C81 1_555 1_555
C89 C84 1_555 1_555
H60 C89 1_555 1_555
C94 C93 1_555 1_555
H63 C94 1_555 1_555
H64 C95 1_555 1_555
C96 C93 1_555 1_555
Cd2 N5_2 1_555 1_555
O5 C77 1_555 1_555
O6 C77 1_555 1_555
O7 C96 1_555 1_555
O8 C96 1_555 1_555
Cd6 O7 1_555 1_555
N8 Cd2 1_555 1_555
O10 Cd2 1_555 1_555
O12 Cd2 1_555 1_555
C53_2 N5_2 1_555 1_555
C58_2 C59_2 1_555 1_555
C82 C83 1_555 1_555
C94 C95 1_555 1_555
Cd2 O5 1_555 1_555
Cd2 O6 1_555 1_555
O8 Cd6 1_555 1_555
C77_2 C78_2 1_555 1_555
C78_2 C79_2 1_555 1_555
C79_2 H53_2 1_555 1_555
C80_2 C79_2 1_555 1_555
H54_2 C80_2 1_555 1_555
C81_2 C80_2 1_555 1_555
C82_2 C81_2 1_555 1_555
H55_2 C82_2 1_555 1_555
C83_2 C78_2 1_555 1_555
H56_2 C83_2 1_555 1_555
C84_2 C81_2 1_555 1_555
C89_2 C84_2 1_555 1_555
H60_2 C89_2 1_555 1_555
H63_2 C94_2 1_555 1_555
H64_2 C95_2 1_555 1_555
O5_2 C77_2 1_555 1_555
O6_2 C77_2 1_555 1_555
C82_2 C83_2 1_555 1_555
C94_2 C95_2 1_555 1_555
Cd6 O5_2 1_555 1_555
Cd6 O6_2 1_555 1_555
C96_2 C93_2 1_555 1_555
O10 C96_2 1_555 1_555
O12 C96_2 1_555 1_555
H46_2 C68_2 1_555 1_555
N8 C68_2 1_555 1_555
H34_2 C50_2 1_555 1_555
C55_2 C54_2 1_555 1_555
H37_2 C55_2 1_555 1_555
C56_2 C55_2 1_555 1_555
H38_2 C56_2 1_555 1_555
C57_2 C56_2 1_555 1_555
C60_2 C61_2 1_555 1_555
C61_2 H41_2 1_555 1_555
C62_2 C61_2 1_555 1_555
H42_2 C62_2 1_555 1_555
C63_2 C62_2 1_555 1_555
C64_2 C63_2 1_555 1_555
H43_2 C64_2 1_555 1_555
C65_2 C60_2 1_555 1_555
H44_2 C65_2 1_555 1_555
C66_2 C63_2 1_555 1_555
C67_2 C66_2 1_555 1_555
C69_2 H47_2 1_555 1_555
C70_2 C66_2 1_555 1_555
H48_2 C70_2 1_555 1_555
C71_2 C72_2 1_555 1_555
C72_2 H49_2 1_555 1_555
C73_2 C72_2 1_555 1_555
C75_2 C74_2 1_555 1_555
C76_2 C71_2 1_555 1_555
H52_2 C76_2 1_555 1_555
N4_2 C57_2 1_555 1_555
C60_2 N4_2 1_555 1_555
C64_2 C65_2 1_555 1_555
C69_2 C70_2 1_555 1_555
C71_2 N4_2 1_555 1_555
C73_2 C74_2 1_555 1_555
C75_2 C76_2 1_555 1_555
H25 C37 1_555 1_555
C38 C37 1_555 1_555
H26 C38 1_555 1_555
C39 C38 1_555 1_555
H27 C39 1_555 1_555
C40 C39 1_555 1_555
C42 C40 1_555 1_555
C43 C42 1_555 1_555
H29 C43 1_555 1_555
C44 C43 1_555 1_555
H30 C44 1_555 1_555
C4 C3 1_555 1_555
H3 C4 1_555 1_555
C5 C4 1_555 1_555
H4 C5 1_555 1_555
H7 C10 1_555 1_555
H8 C11 1_555 1_555
C29 C30 1_555 1_555
C30 C31 1_555 1_555
C31 H21 1_555 1_555
C32 C31 1_555 1_555
H22 C32 1_555 1_555
C33 C32 1_555 1_555
C34 C33 1_555 1_555
H23 C34 1_555 1_555
C35 C30 1_555 1_555
H24 C35 1_555 1_555
C36 C33 1_555 1_555
C41 C36 1_555 1_555
H28 C41 1_555 1_555
C46 C45 1_555 1_555
H31 C46 1_555 1_555
H32 C47 1_555 1_555
C48 C45 1_555 1_555
Cd1 N2 1_555 1_555
N2 C1 1_555 1_555
O1 C29 1_555 1_555
O2 C29 1_555 1_555
O3 C48 1_555 1_555
O4 C48 1_555 1_555
Cd4 O3 1_555 1_555
N7 Cd1 1_555 1_555
O9 Cd1 1_555 1_555
O11 Cd1 1_555 1_555
C5 N2 1_555 1_555
C10 C11 1_555 1_555
C34 C35 1_555 1_555
C46 C47 1_555 1_555
Cd1 O1 1_555 1_555
Cd1 O2 1_555 1_555
O4 Cd4 1_555 1_555
H14 C20 1_555 1_555
N7 C20 1_555 1_555
C48_2 C45_2 1_555 1_555
O9 C48_2 1_555 1_555
O11 C48_2 1_555 1_555
C29_2 C30_2 1_555 1_555
C30_2 C31_2 1_555 1_555
C31_2 H21_2 1_555 1_555
C32_2 C31_2 1_555 1_555
H22_2 C32_2 1_555 1_555
C33_2 C32_2 1_555 1_555
C34_2 C33_2 1_555 1_555
H23_2 C34_2 1_555 1_555
C35_2 C30_2 1_555 1_555
H24_2 C35_2 1_555 1_555
C36_2 C33_2 1_555 1_555
C41_2 C36_2 1_555 1_555
H28_2 C41_2 1_555 1_555
H31_2 C46_2 1_555 1_555
H32_2 C47_2 1_555 1_555
O1_2 C29_2 1_555 1_555
O2_2 C29_2 1_555 1_555
C34_2 C35_2 1_555 1_555
C46_2 C47_2 1_555 1_555
Cd4 O1_2 1_555 1_555
Cd4 O2_2 1_555 1_555
H57 C85 1_555 1_555
C86 C85 1_555 1_555
H58 C86 1_555 1_555
C87 C86 1_555 1_555
H59 C87 1_555 1_555
C88 C87 1_555 1_555
C90 C88 1_555 1_555
C91 C90 1_555 1_555
H61 C91 1_555 1_555
C92 C91 1_555 1_555
H62 C92 1_555 1_555
H2 C2 1_555 1_555
C7 C6 1_555 1_555
H5 C7 1_555 1_555
C8 C7 1_555 1_555
H6 C8 1_555 1_555
C9 C8 1_555 1_555
C12 C13 1_555 1_555
C13 H9 1_555 1_555
C14 C13 1_555 1_555
H10 C14 1_555 1_555
C15 C14 1_555 1_555
C16 C15 1_555 1_555
H11 C16 1_555 1_555
C17 C12 1_555 1_555
H12 C17 1_555 1_555
C18 C15 1_555 1_555
C19 C18 1_555 1_555
C21 H15 1_555 1_555
C22 C18 1_555 1_555
H16 C22 1_555 1_555
C23 C24 1_555 1_555
C24 H17 1_555 1_555
C25 C24 1_555 1_555
C26 C25 1_555 1_555
C27 C26 1_555 1_555
C28 C23 1_555 1_555
H20 C28 1_555 1_555
N1 C9 1_555 1_555
C12 N1 1_555 1_555
C16 C17 1_555 1_555
C21 C22 1_555 1_555
C23 N1 1_555 1_555
C27 C28 1_555 1_555
H14_2 C20_2 1_555 1_555
N3 C20_2 1_555 1_555
C1_2 H1_2 1_555 1_555
C2_2 C1_2 1_555 1_555
H2_2 C2_2 1_555 1_555
C3_2 C2_2 1_555 1_555
C4_2 C3_2 1_555 1_555
H3_2 C4_2 1_555 1_555
C5_2 C4_2 1_555 1_555
H4_2 C5_2 1_555 1_555
C6_2 C3_2 1_555 1_555
C7_2 C6_2 1_555 1_555
H5_2 C7_2 1_555 1_555
C8_2 C7_2 1_555 1_555
H6_2 C8_2 1_555 1_555
C9_2 C8_2 1_555 1_555
C10_2 C9_2 1_555 1_555
H7_2 C10_2 1_555 1_555
C11_2 C6_2 1_555 1_555
H8_2 C11_2 1_555 1_555
C12_2 C13_2 1_555 1_555
C13_2 H9_2 1_555 1_555
C14_2 C13_2 1_555 1_555
H10_2 C14_2 1_555 1_555
C15_2 C14_2 1_555 1_555
C16_2 C15_2 1_555 1_555
H11_2 C16_2 1_555 1_555
C17_2 C12_2 1_555 1_555
H12_2 C17_2 1_555 1_555
C18_2 C15_2 1_555 1_555
C19_2 C18_2 1_555 1_555
C21_2 H15_2 1_555 1_555
C22_2 C18_2 1_555 1_555
H16_2 C22_2 1_555 1_555
C23_2 C24_2 1_555 1_555
C24_2 H17_2 1_555 1_555
C25_2 C24_2 1_555 1_555
H18_2 C25_2 1_555 1_555
C26_2 C25_2 1_555 1_555
C27_2 C26_2 1_555 1_555
C28_2 C23_2 1_555 1_555
H20_2 C28_2 1_555 1_555
N1_2 C9_2 1_555 1_555
N2_2 C1_2 1_555 1_555
C5_2 N2_2 1_555 1_555
C10_2 C11_2 1_555 1_555
C12_2 N1_2 1_555 1_555
C16_2 C17_2 1_555 1_555
C21_2 C22_2 1_555 1_555
C23_2 N1_2 1_555 1_555
C27_2 C28_2 1_555 1_555
H57_2 C85_2 1_555 1_555
C86_2 C85_2 1_555 1_555
H58_2 C86_2 1_555 1_555
C87_2 C86_2 1_555 1_555
H59_2 C87_2 1_555 1_555
C88_2 C87_2 1_555 1_555
C90_2 C88_2 1_555 1_555
H61_2 C91_2 1_555 1_555
C92_2 C91_2 1_555 1_555
H62_2 C92_2 1_555 1_555
H29_2 C43_2 1_555 1_555
C44_2 C43_2 1_555 1_555
H30_2 C44_2 1_555 1_555
H25_2 C37_2 1_555 1_555
C38_2 C37_2 1_555 1_555
H26_2 C38_2 1_555 1_555
C39_2 C38_2 1_555 1_555
H27_2 C39_2 1_555 1_555
C40_2 C39_2 1_555 1_555
C42_2 C40_2 1_555 1_555

#END
