
###############################################################################
#
# This file contains modified crystal structure data generated from the
# MOF subset of the Cambridge Structural Database (CSD) v543 
# hosted by the Cambridge Crystallographic Data Centre (CCDC).
#
# This work is licensed under the Creative Commons
# Attribution-NonCommercial-ShareAlike 4.0 International License.
# To view a copy of this license, visit
# http://creativecommons.org/licenses/by-nc-sa/4.0/
# or send a letter to
# Creative Commons, PO Box 1866, Mountain View, CA 94042, USA.
#
# CIF created using the CSD Python API on 29 September 2022
# The structure has been converted into the P1 space group
# The structure has a 3D framework
# The original CSD entry XUMROO is in the orthorhombic crystal system
# The framework has been calculated to contain at least 10.0% void space
# The void calculation uses a probe of radius 1.32A, grid spacing 0.4
#
###############################################################################

data_XUMROO
_chemical_formula_moiety         '(C84 H56 N24 O16 S4)n'
_symmetry_cell_setting           triclinic
_symmetry_space_group_name_H-M   'P 1'
_symmetry_Int_Tables_number      1
_space_group_name_Hall           'P 1'
loop_
_symmetry_equiv_pos_site_id
_symmetry_equiv_pos_as_xyz
1 x,y,z
_cell_length_a                   18.296(2)
_cell_length_b                   9.8044(11)
_cell_length_c                   13.0202(15)
_cell_angle_alpha                90
_cell_angle_beta                 90
_cell_angle_gamma                90
_cell_volume                     2335.58
loop_
_atom_site_label
_atom_site_type_symbol
_atom_site_fract_x
_atom_site_fract_y
_atom_site_fract_z
S1 S 0.00897(6) 0.88223(10) 0.13843(9)
C18 C 0.0381(2) 0.6319(4) 0.1635(5)
H14 H 0.0632 0.5499 0.1701
C19 C 0.0713(2) 0.7531(4) 0.1475(3)
C21 C 0.1519(2) 0.7844(6) 0.1449(4)
O3 O 0.19527(16) 0.6932(4) 0.1688(4)
O4 O 0.17147(18) 0.9036(4) 0.1210(3)
Co3 Co 0.28029(2) 0.90073(5) 0.16904(5)
N1 N 0.68348(17) 0.8214(3) 0.3722(3)
N2 N 0.74125(18) 0.9898(3) 0.2965(3)
N3 N 0.6159(2) 0.3582(3) 0.4580(3)
N4 N 0.6697(2) 0.1935(4) 0.5427(3)
N5 N 0.43137(17) 0.6816(3) 0.3506(3)
N6 N 0.33899(19) 0.7777(3) 0.2699(3)
C1 C 0.6286(2) 0.7176(4) 0.3862(3)
C2 C 0.6496(2) 0.5912(4) 0.4177(3)
H1 H 0.6982 0.5716 0.4324
C3 C 0.5957(2) 0.4929(4) 0.4270(3)
C4 C 0.5232(2) 0.5203(4) 0.4069(3)
H2 H 0.4876 0.4534 0.4148
C5 C 0.5052(2) 0.6502(4) 0.3745(3)
C6 C 0.5578(2) 0.7513(4) 0.3660(3)
H3 H 0.5451 0.8396 0.3470
C7 C 0.6849(2) 0.9081(4) 0.2924(3)
H4 H 0.6501 0.9098 0.2404
C8 C 0.7771(2) 0.9549(5) 0.3850(4)
H5 H 0.8196 0.9963 0.4088
C9 C 0.7417(3) 0.8512(5) 0.4332(4)
H6 H 0.7545 0.8095 0.4948
C10 C 0.6664(2) 0.3268(4) 0.5298(3)
H7 H 0.6947 0.3901 0.5650
C11 C 0.6187(3) 0.1382(4) 0.4783(4)
H8 H 0.6087 0.0456 0.4718
C12 C 0.5847(3) 0.2396(4) 0.4249(4)
H9 H 0.5479 0.2300 0.3761
C13 C 0.4101(2) 0.7677(4) 0.2757(3)
H10 H 0.4422 0.8146 0.2331
C14 C 0.3138(2) 0.6908(6) 0.3456(4)
H11 H 0.2647 0.6765 0.3608
C15 C 0.3693(3) 0.6304(6) 0.3938(4)
H12 H 0.3663 0.5663 0.4463
C16 C 0.93786(19) 0.7709(4) 0.1579(4)
C17 C 0.9620(2) 0.6423(4) 0.1689(4)
H13 H 0.9313 0.5679 0.1791
C20 C 0.8609(2) 0.8217(4) 0.1580(4)
O1 O 0.81159(15) 0.7386(3) 0.1677(4)
O2 O 0.85490(15) 0.9501(3) 0.1479(3)
Co4 Co 0.71971(2) 0.09927(5) 0.66904(5)
N4_2 N 0.3303(2) 0.8065(4) 0.0427(3)
C10_2 C 0.3336(2) 0.6732(4) 0.0298(3)
H7_2 H 0.3053 0.6099 0.0650
N1_2 N 0.31652(17) 0.1786(3) 0.8722(3)
N2_2 N 0.25875(18) 0.0102(3) 0.7965(3)
N3_2 N 0.3841(2) 0.6418(3) 0.9580(3)
N5_2 N 0.56863(17) 0.3184(3) 0.8506(3)
N6_2 N 0.66101(19) 0.2223(3) 0.7699(3)
C1_2 C 0.3714(2) 0.2824(4) 0.8862(3)
C2_2 C 0.3504(2) 0.4088(4) 0.9177(3)
H1_2 H 0.3018 0.4284 0.9324
C3_2 C 0.4043(2) 0.5071(4) 0.9270(3)
C4_2 C 0.4768(2) 0.4797(4) 0.9069(3)
H2_2 H 0.5124 0.5466 0.9148
C5_2 C 0.4948(2) 0.3498(4) 0.8745(3)
C6_2 C 0.4422(2) 0.2487(4) 0.8660(3)
H3_2 H 0.4549 0.1604 0.8470
C7_2 C 0.3151(2) 0.0919(4) 0.7924(3)
H4_2 H 0.3499 0.0902 0.7404
C8_2 C 0.2229(2) 0.0451(5) 0.8850(4)
H5_2 H 0.1804 0.0037 0.9088
C9_2 C 0.2583(3) 0.1488(5) 0.9332(4)
H6_2 H 0.2455 0.1905 0.9948
C11_2 C 0.3813(3) 0.8618(4) 0.9783(4)
H8_2 H 0.3913 0.9544 0.9718
C12_2 C 0.4153(3) 0.7604(4) 0.9249(4)
H9_2 H 0.4521 0.7700 0.8761
C13_2 C 0.5899(2) 0.2323(4) 0.7757(3)
H10_2 H 0.5578 0.1854 0.7331
C14_2 C 0.6862(2) 0.3092(6) 0.8456(4)
H11_2 H 0.7353 0.3235 0.8608
C15_2 C 0.6307(3) 0.3696(6) 0.8938(4)
H12_2 H 0.6337 0.4337 0.9463
C16_2 C 0.06214(19) 0.2291(4) 0.6579(4)
C17_2 C 0.0380(2) 0.3577(4) 0.6689(4)
H13_2 H 0.0687 0.4321 0.6791
C20_2 C 0.1391(2) 0.1783(4) 0.6580(4)
O1_2 O 0.18841(15) 0.2614(3) 0.6677(4)
O2_2 O 0.14510(15) 0.0499(3) 0.6479(3)
S1_2 S 0.99103(6) 0.11777(10) 0.63843(9)
C18_2 C 0.9619(2) 0.3681(4) 0.6635(5)
H14_2 H 0.9368 0.4501 0.6701
C19_2 C 0.9287(2) 0.2469(4) 0.6475(3)
C21_2 C 0.8481(2) 0.2156(6) 0.6449(4)
O3_2 O 0.80473(16) 0.3068(4) 0.6688(4)
O4_2 O 0.82853(18) 0.0964(4) 0.6210(3)
Co1 Co 0.78029(2) 0.09927(5) 0.16904(5)
N7 N 0.8303(2) 0.1935(4) 0.0427(3)
N8 N 0.83899(19) 0.2223(3) 0.2699(3)
O5 O 0.67147(18) 0.0964(4) 0.1210(3)
Co1_2 Co 0.21971(2) 0.90073(5) 0.66904(5)
N7_2 N 0.1697(2) 0.8065(4) 0.5427(3)
N8_2 N 0.16101(19) 0.7777(3) 0.7699(3)
O5_2 O 0.32853(18) 0.9036(4) 0.6210(3)
S1_3 S 0.50897(6) 0.11777(10) 0.13843(9)
N1_3 N 0.18348(17) 0.1786(3) 0.3722(3)
N2_3 N 0.24125(18) 0.0102(3) 0.2965(3)
N3_3 N 0.1159(2) 0.6418(3) 0.4580(3)
C1_3 C 0.1286(2) 0.2824(4) 0.3862(3)
C2_3 C 0.1496(2) 0.4088(4) 0.4177(3)
H1_3 H 0.1982 0.4284 0.4324
C3_3 C 0.0957(2) 0.5071(4) 0.4270(3)
C4_3 C 0.0232(2) 0.4797(4) 0.4069(3)
C5_3 C 0.0052(2) 0.3498(4) 0.3745(3)
C6_3 C 0.0578(2) 0.2487(4) 0.3660(3)
H3_3 H 0.0451 0.1604 0.3470
C7_3 C 0.1849(2) 0.0919(4) 0.2924(3)
H4_3 H 0.1501 0.0902 0.2404
C8_3 C 0.2771(2) 0.0451(5) 0.3850(4)
H5_3 H 0.3196 0.0037 0.4088
C9_3 C 0.2417(3) 0.1488(5) 0.4332(4)
H6_3 H 0.2545 0.1905 0.4948
C10_3 C 0.1664(2) 0.6732(4) 0.5298(3)
H7_3 H 0.1947 0.6099 0.5650
C11_3 C 0.1187(3) 0.8618(4) 0.4783(4)
H8_3 H 0.1087 0.9544 0.4718
C12_3 C 0.0847(3) 0.7604(4) 0.4249(4)
H9_3 H 0.0479 0.7700 0.3761
C16_3 C 0.43786(19) 0.2291(4) 0.1579(4)
C17_3 C 0.4620(2) 0.3577(4) 0.1689(4)
H13_3 H 0.4313 0.4321 0.1791
C18_3 C 0.5381(2) 0.3681(4) 0.1635(5)
H14_3 H 0.5632 0.4501 0.1701
C19_3 C 0.5713(2) 0.2469(4) 0.1475(3)
C20_3 C 0.3609(2) 0.1783(4) 0.1580(4)
C21_3 C 0.6519(2) 0.2156(6) 0.1449(4)
O1_3 O 0.31159(15) 0.2614(3) 0.1677(4)
O2_3 O 0.35490(15) 0.0499(3) 0.1479(3)
O3_3 O 0.69527(16) 0.3068(4) 0.1688(4)
N5_3 N 0.93137(17) 0.3184(3) 0.3506(3)
H2_3 H 0.9876 0.5466 0.4148
C13_3 C 0.9101(2) 0.2323(4) 0.2757(3)
H10_3 H 0.9422 0.1854 0.2331
C14_3 C 0.8138(2) 0.3092(6) 0.3456(4)
H11_3 H 0.7647 0.3235 0.3608
C15_3 C 0.8693(3) 0.3696(6) 0.3938(4)
H12_3 H 0.8663 0.4337 0.4463
N5_4 N 0.06863(17) 0.6816(3) 0.8506(3)
H2_4 H 0.0124 0.4534 0.9148
C13_4 C 0.0899(2) 0.7677(4) 0.7757(3)
H10_4 H 0.0578 0.8146 0.7331
C14_4 C 0.1862(2) 0.6908(6) 0.8456(4)
H11_4 H 0.2353 0.6765 0.8608
C15_4 C 0.1307(3) 0.6304(6) 0.8938(4)
H12_4 H 0.1337 0.5663 0.9463
C10_4 C 0.8336(2) 0.3268(4) 0.0298(3)
H7_4 H 0.8053 0.3901 0.0650
S1_4 S 0.49103(6) 0.88223(10) 0.63843(9)
N1_4 N 0.81652(17) 0.8214(3) 0.8722(3)
N2_4 N 0.75875(18) 0.9898(3) 0.7965(3)
N3_4 N 0.8841(2) 0.3582(3) 0.9580(3)
C1_4 C 0.8714(2) 0.7176(4) 0.8862(3)
C2_4 C 0.8504(2) 0.5912(4) 0.9177(3)
H1_4 H 0.8018 0.5716 0.9324
C3_4 C 0.9043(2) 0.4929(4) 0.9270(3)
C4_4 C 0.9768(2) 0.5203(4) 0.9069(3)
C5_4 C 0.9948(2) 0.6502(4) 0.8745(3)
C6_4 C 0.9422(2) 0.7513(4) 0.8660(3)
H3_4 H 0.9549 0.8396 0.8470
C7_4 C 0.8151(2) 0.9081(4) 0.7924(3)
H4_4 H 0.8499 0.9098 0.7404
C8_4 C 0.7229(2) 0.9549(5) 0.8850(4)
H5_4 H 0.6804 0.9963 0.9088
C9_4 C 0.7583(3) 0.8512(5) 0.9332(4)
H6_4 H 0.7455 0.8095 0.9948
C11_4 C 0.8813(3) 0.1382(4) 0.9783(4)
H8_4 H 0.8913 0.0456 0.9718
C12_4 C 0.9153(3) 0.2396(4) 0.9249(4)
H9_4 H 0.9521 0.2300 0.8761
C16_4 C 0.56214(19) 0.7709(4) 0.6579(4)
C17_4 C 0.5380(2) 0.6423(4) 0.6689(4)
H13_4 H 0.5687 0.5679 0.6791
C18_4 C 0.4619(2) 0.6319(4) 0.6635(5)
H14_4 H 0.4368 0.5499 0.6701
C19_4 C 0.4287(2) 0.7531(4) 0.6475(3)
C20_4 C 0.6391(2) 0.8217(4) 0.6580(4)
C21_4 C 0.3481(2) 0.7844(6) 0.6449(4)
O1_4 O 0.68841(15) 0.7386(3) 0.6677(4)
O2_4 O 0.64510(15) 0.9501(3) 0.6479(3)
O3_4 O 0.30473(16) 0.6932(4) 0.6688(4)
loop_
_geom_bond_atom_site_label_1
_geom_bond_atom_site_label_2
_geom_bond_site_symmetry_1
_geom_bond_site_symmetry_2
H14 C18 1_555 1_555
C19 S1 1_555 1_555
C21 C19 1_555 1_555
O3 C21 1_555 1_555
O4 C21 1_555 1_555
Co3 O4 1_555 1_555
C18 C19 1_555 1_555
N1 C1 1_555 1_555
N2 C7 1_555 1_555
N3 C3 1_555 1_555
N4 C10 1_555 1_555
N5 C5 1_555 1_555
N6 C13 1_555 1_555
C1 C2 1_555 1_555
C2 H1 1_555 1_555
C3 C2 1_555 1_555
C4 C3 1_555 1_555
H2 C4 1_555 1_555
C5 C4 1_555 1_555
C6 C1 1_555 1_555
H3 C6 1_555 1_555
C7 N1 1_555 1_555
H4 C7 1_555 1_555
C8 N2 1_555 1_555
H5 C8 1_555 1_555
C9 N1 1_555 1_555
H6 C9 1_555 1_555
C10 N3 1_555 1_555
H7 C10 1_555 1_555
C11 N4 1_555 1_555
H8 C11 1_555 1_555
C12 N3 1_555 1_555
H9 C12 1_555 1_555
C13 N5 1_555 1_555
H10 C13 1_555 1_555
C14 N6 1_555 1_555
H11 C14 1_555 1_555
C15 N5 1_555 1_555
H12 C15 1_555 1_555
C16 C17 1_555 1_555
C17 H13 1_555 1_555
C20 C16 1_555 1_555
O1 C20 1_555 1_555
Co3 N6 1_555 1_555
Co4 N4 1_555 1_555
C5 C6 1_555 1_555
C8 C9 1_555 1_555
C11 C12 1_555 1_555
C14 C15 1_555 1_555
C20 O2 1_555 1_555
N4_2 C10_2 1_555 1_555
H7_2 C10_2 1_555 1_555
Co3 N4_2 1_555 1_555
N1_2 C1_2 1_555 1_555
N2_2 C7_2 1_555 1_555
N3_2 C3_2 1_555 1_555
N5_2 C5_2 1_555 1_555
N6_2 C13_2 1_555 1_555
C1_2 C2_2 1_555 1_555
C2_2 H1_2 1_555 1_555
C3_2 C2_2 1_555 1_555
C4_2 C3_2 1_555 1_555
H2_2 C4_2 1_555 1_555
C5_2 C4_2 1_555 1_555
C6_2 C1_2 1_555 1_555
H3_2 C6_2 1_555 1_555
C7_2 N1_2 1_555 1_555
H4_2 C7_2 1_555 1_555
C8_2 N2_2 1_555 1_555
H5_2 C8_2 1_555 1_555
C9_2 N1_2 1_555 1_555
H6_2 C9_2 1_555 1_555
H8_2 C11_2 1_555 1_555
C12_2 N3_2 1_555 1_555
H9_2 C12_2 1_555 1_555
C13_2 N5_2 1_555 1_555
H10_2 C13_2 1_555 1_555
C14_2 N6_2 1_555 1_555
H11_2 C14_2 1_555 1_555
C15_2 N5_2 1_555 1_555
H12_2 C15_2 1_555 1_555
C16_2 C17_2 1_555 1_555
C17_2 H13_2 1_555 1_555
C20_2 C16_2 1_555 1_555
O1_2 C20_2 1_555 1_555
Co4 N6_2 1_555 1_555
C5_2 C6_2 1_555 1_555
C8_2 C9_2 1_555 1_555
C11_2 C12_2 1_555 1_555
C14_2 C15_2 1_555 1_555
C20_2 O2_2 1_555 1_555
H14_2 C18_2 1_555 1_555
C19_2 S1_2 1_555 1_555
C21_2 C19_2 1_555 1_555
O3_2 C21_2 1_555 1_555
O4_2 C21_2 1_555 1_555
Co4 O4_2 1_555 1_555
C18_2 C19_2 1_555 1_555
N7 Co1 1_555 1_555
N8 Co1 1_555 1_555
O5 Co1 1_555 1_555
N7_2 Co1_2 1_555 1_555
N8_2 Co1_2 1_555 1_555
O5_2 Co1_2 1_555 1_555
S1_3 C16_3 1_555 1_555
N1_3 C1_3 1_555 1_555
N2_3 C7_3 1_555 1_555
N3_3 C3_3 1_555 1_555
N7_2 C10_3 1_555 1_555
C1_3 C2_3 1_555 1_555
C2_3 H1_3 1_555 1_555
C3_3 C2_3 1_555 1_555
C4_3 C3_3 1_555 1_555
C5_3 C4_3 1_555 1_555
C6_3 C1_3 1_555 1_555
H3_3 C6_3 1_555 1_555
C7_3 N1_3 1_555 1_555
H4_3 C7_3 1_555 1_555
C8_3 N2_3 1_555 1_555
H5_3 C8_3 1_555 1_555
C9_3 N1_3 1_555 1_555
H6_3 C9_3 1_555 1_555
C10_3 N3_3 1_555 1_555
H7_3 C10_3 1_555 1_555
C11_3 N7_2 1_555 1_555
H8_3 C11_3 1_555 1_555
C12_3 N3_3 1_555 1_555
H9_3 C12_3 1_555 1_555
C16_3 C17_3 1_555 1_555
C17_3 H13_3 1_555 1_555
C18_3 C17_3 1_555 1_555
H14_3 C18_3 1_555 1_555
C19_3 S1_3 1_555 1_555
C20_3 C16_3 1_555 1_555
C21_3 C19_3 1_555 1_555
O1_3 C20_3 1_555 1_555
O3_3 C21_3 1_555 1_555
O5 C21_3 1_555 1_555
C5_3 C6_3 1_555 1_555
C8_3 C9_3 1_555 1_555
C11_3 C12_3 1_555 1_555
C18_3 C19_3 1_555 1_555
C20_3 O2_3 1_555 1_555
N8 C13_3 1_555 1_555
C13_3 N5_3 1_555 1_555
H10_3 C13_3 1_555 1_555
C14_3 N8 1_555 1_555
H11_3 C14_3 1_555 1_555
C15_3 N5_3 1_555 1_555
H12_3 C15_3 1_555 1_555
C14_3 C15_3 1_555 1_555
N8_2 C13_4 1_555 1_555
C13_4 N5_4 1_555 1_555
H10_4 C13_4 1_555 1_555
C14_4 N8_2 1_555 1_555
H11_4 C14_4 1_555 1_555
C15_4 N5_4 1_555 1_555
H12_4 C15_4 1_555 1_555
C14_4 C15_4 1_555 1_555
N7 C10_4 1_555 1_555
H7_4 C10_4 1_555 1_555
S1_4 C16_4 1_555 1_555
N1_4 C1_4 1_555 1_555
N2_4 C7_4 1_555 1_555
N3_4 C3_4 1_555 1_555
C1_4 C2_4 1_555 1_555
C2_4 H1_4 1_555 1_555
C3_4 C2_4 1_555 1_555
C4_4 C3_4 1_555 1_555
C5_4 C4_4 1_555 1_555
C6_4 C1_4 1_555 1_555
H3_4 C6_4 1_555 1_555
C7_4 N1_4 1_555 1_555
H4_4 C7_4 1_555 1_555
C8_4 N2_4 1_555 1_555
H5_4 C8_4 1_555 1_555
C9_4 N1_4 1_555 1_555
H6_4 C9_4 1_555 1_555
H8_4 C11_4 1_555 1_555
C12_4 N3_4 1_555 1_555
H9_4 C12_4 1_555 1_555
C16_4 C17_4 1_555 1_555
C17_4 H13_4 1_555 1_555
C18_4 C17_4 1_555 1_555
H14_4 C18_4 1_555 1_555
C19_4 S1_4 1_555 1_555
C20_4 C16_4 1_555 1_555
C21_4 C19_4 1_555 1_555
O1_4 C20_4 1_555 1_555
O3_4 C21_4 1_555 1_555
O5_2 C21_4 1_555 1_555
C5_4 C6_4 1_555 1_555
C8_4 C9_4 1_555 1_555
C11_4 C12_4 1_555 1_555
C18_4 C19_4 1_555 1_555
C20_4 O2_4 1_555 1_555

#END
