
###############################################################################
#
# This file contains modified crystal structure data generated from the
# MOF subset of the Cambridge Structural Database (CSD) v543 
# hosted by the Cambridge Crystallographic Data Centre (CCDC).
#
# This work is licensed under the Creative Commons
# Attribution-NonCommercial-ShareAlike 4.0 International License.
# To view a copy of this license, visit
# http://creativecommons.org/licenses/by-nc-sa/4.0/
# or send a letter to
# Creative Commons, PO Box 1866, Mountain View, CA 94042, USA.
#
# CIF created using the CSD Python API on 29 September 2022
# The structure has been converted into the P1 space group
# The structure has a 3D framework
# The original CSD entry XUMRUU is in the orthorhombic crystal system
# The framework has been calculated to contain at least 10.0% void space
# The void calculation uses a probe of radius 1.32A, grid spacing 0.4
#
###############################################################################

data_XUMRUU
_chemical_formula_moiety         '(C168 H112 Cd8 N48 O32 S8)n'
_symmetry_cell_setting           triclinic
_symmetry_space_group_name_H-M   'P 1'
_symmetry_Int_Tables_number      1
_space_group_name_Hall           'P 1'
loop_
_symmetry_equiv_pos_site_id
_symmetry_equiv_pos_as_xyz
1 x,y,z
_cell_length_a                   10.7320(11)
_cell_length_b                   20.421(2)
_cell_length_c                   22.125(2)
_cell_angle_alpha                90
_cell_angle_beta                 90
_cell_angle_gamma                90
_cell_volume                     4848.87
loop_
_atom_site_label
_atom_site_type_symbol
_atom_site_fract_x
_atom_site_fract_y
_atom_site_fract_z
S1 S 0.07557(12) 0.14029(7) 0.62865(7)
H9 H 0.0178 0.0151 0.3090
C17 C 0.0022(5) 0.2183(3) 0.5466(2)
C18 C 0.1338(5) 0.2172(3) 0.5427(2)
H14 H 0.1793 0.2412 0.5146
C19 C 0.1862(4) 0.1770(2) 0.5844(2)
C21 C 0.3203(5) 0.1631(3) 0.5963(2)
O3 O 0.4021(3) 0.19542(19) 0.56850(18)
O4 O 0.3452(3) 0.11934(19) 0.63304(16)
Cd2 Cd 0.56965(3) 0.138826(16) 0.624885(15)
N1 N 0.6411(4) 0.0665(2) 0.44039(18)
N2 N 0.6011(4) 0.0823(2) 0.53662(18)
N3 N 0.8625(4) 0.01980(19) 0.25593(17)
N5 N 0.5696(4) 0.2004(2) 0.26166(18)
N6 N 0.5368(4) 0.2833(2) 0.19957(18)
C1 C 0.6651(5) 0.0810(2) 0.3782(2)
C2 C 0.7505(5) 0.0447(2) 0.3473(2)
H1 H 0.7914 0.0101 0.3661
C3 C 0.7755(4) 0.0598(2) 0.2880(2)
C4 C 0.7152(5) 0.1102(2) 0.2587(2)
H2 H 0.7317 0.1192 0.2183
C5 C 0.6292(5) 0.1472(2) 0.2909(2)
C6 C 0.6021(5) 0.1327(2) 0.3498(2)
H3 H 0.5426 0.1568 0.3708
C7 C 0.6003(5) 0.1085(3) 0.4833(2)
H4 H 0.5747 0.1512 0.4755
C8 C 0.6416(7) 0.0190(3) 0.5284(3)
C9 C 0.6668(7) 0.0090(3) 0.4702(3)
C12 C 0.9766(5) 0.0010(3) 0.2744(2)
C13 C 0.6137(5) 0.2372(3) 0.2153(2)
H10 H 0.6904 0.2302 0.1968
C14 C 0.4359(5) 0.2769(3) 0.2382(3)
H11 H 0.3653 0.3033 0.2377
C15 C 0.4552(5) 0.2268(3) 0.2762(3)
H12 H 0.4017 0.2127 0.3066
C16 C 0.9578(4) 0.1798(3) 0.5914(2)
H13 H 0.9516 0.2430 0.5212
C20 C 0.8253(5) 0.1684(3) 0.6075(3)
O1 O 0.8002(4) 0.1200(3) 0.6396(2)
O2 O 0.7445(3) 0.20713(19) 0.58883(17)
Cd4 Cd 0.56965(3) 0.361174(16) 0.124885(15)
N7 N 0.5672(4) 0.0509(2) 0.68924(18)
N8 N 0.5368(4) 0.2167(2) 0.69957(18)
N4 N 0.9328(4) 0.9491(2) 0.18924(18)
H5 H 0.6500 0.9880 0.5589
H6 H 0.6963 0.9704 0.4530
C10 C 0.8389(5) 0.9862(3) 0.2042(2)
H7 H 0.7653 0.9893 0.1822
Cd3 Cd 0.93035(3) 0.861174(16) 0.124885(15)
O5 O 0.0979(3) 0.80458(19) 0.06850(18)
O6 O 0.1548(3) 0.88066(19) 0.13304(16)
H6_2 H 0.8037 0.0296 0.9530
C10_2 C 0.6611(5) 0.0138(3) 0.7042(2)
H7_2 H 0.7347 0.0107 0.6822
C11 C 0.4801(5) 0.0418(3) 0.7335(2)
H8 H 0.4027 0.0622 0.7350
S1_2 S 0.42443(12) 0.85971(7) 0.12865(7)
N2_2 N 0.8989(4) 0.9177(2) 0.03662(18)
C8_2 C 0.8584(7) 0.9810(3) 0.0284(3)
C16_2 C 0.5422(4) 0.8202(3) 0.0914(2)
C17_2 C 0.4978(5) 0.7817(3) 0.0466(2)
H13_2 H 0.5484 0.7570 0.0212
C18_2 C 0.3662(5) 0.7828(3) 0.0427(2)
H14_2 H 0.3207 0.7588 0.0146
C19_2 C 0.3138(4) 0.8230(2) 0.0844(2)
C20_2 C 0.6747(5) 0.8316(3) 0.1075(3)
C21_2 C 0.1797(5) 0.8369(3) 0.0963(2)
O1_2 O 0.6998(4) 0.8800(3) 0.1396(2)
O2_2 O 0.7555(3) 0.79287(19) 0.08883(17)
N8_2 N 0.9632(4) 0.7833(2) 0.19957(18)
N1_2 N 0.8589(4) 0.9335(2) 0.94039(18)
N3_2 N 0.6375(4) 0.98020(19) 0.75593(17)
N5_2 N 0.9304(4) 0.7996(2) 0.76166(18)
N6_2 N 0.9632(4) 0.7167(2) 0.69957(18)
C1_2 C 0.8349(5) 0.9190(2) 0.8782(2)
C2_2 C 0.7495(5) 0.9553(2) 0.8473(2)
H1_2 H 0.7086 0.9899 0.8661
C3_2 C 0.7245(4) 0.9402(2) 0.7880(2)
C4_2 C 0.7848(5) 0.8898(2) 0.7587(2)
H2_2 H 0.7683 0.8808 0.7183
C5_2 C 0.8708(5) 0.8528(2) 0.7909(2)
C6_2 C 0.8979(5) 0.8673(2) 0.8498(2)
H3_2 H 0.9574 0.8432 0.8708
C7_2 C 0.8997(5) 0.8915(3) 0.9833(2)
H4_2 H 0.9253 0.8488 0.9755
C9_2 C 0.8332(7) 0.9910(3) 0.9702(3)
C12_2 C 0.5234(5) 0.9990(3) 0.7744(2)
H9_2 H 0.4822 0.9849 0.8090
C13_2 C 0.8863(5) 0.7628(3) 0.7153(2)
H10_2 H 0.8096 0.7698 0.6968
Cd4_2 Cd 0.93035(3) 0.638826(16) 0.624885(15)
S1_3 S 0.07557(12) 0.35971(7) 0.12865(7)
C17_3 C 0.0022(5) 0.2817(3) 0.0466(2)
C18_3 C 0.1338(5) 0.2828(3) 0.0427(2)
H14_3 H 0.1793 0.2588 0.0146
C19_3 C 0.1862(4) 0.3230(2) 0.0844(2)
C21_3 C 0.3203(5) 0.3369(3) 0.0963(2)
O3_2 O 0.4021(3) 0.30458(19) 0.06850(18)
O4_2 O 0.3452(3) 0.38066(19) 0.13304(16)
N2_3 N 0.6011(4) 0.4177(2) 0.03662(18)
C8_3 C 0.6416(7) 0.4810(3) 0.0284(3)
H5_2 H 0.6500 0.5120 0.0589
C16_3 C 0.9578(4) 0.3202(3) 0.0914(2)
H13_3 H 0.9516 0.2570 0.0212
C20_3 C 0.8253(5) 0.3316(3) 0.1075(3)
O1_3 O 0.8002(4) 0.3800(3) 0.1396(2)
O2_3 O 0.7445(3) 0.29287(19) 0.08883(17)
N7_2 N 0.5672(4) 0.4491(2) 0.18924(18)
N1_3 N 0.6411(4) 0.4335(2) 0.94039(18)
N3_3 N 0.8625(4) 0.48020(19) 0.75593(17)
N4_2 N 0.9328(4) 0.5509(2) 0.68924(18)
N5_3 N 0.5696(4) 0.2996(2) 0.76166(18)
C1_3 C 0.6651(5) 0.4190(2) 0.8782(2)
C2_3 C 0.7505(5) 0.4553(2) 0.8473(2)
H1_3 H 0.7914 0.4899 0.8661
C3_3 C 0.7755(4) 0.4402(2) 0.7880(2)
C4_3 C 0.7152(5) 0.3898(2) 0.7587(2)
H2_3 H 0.7317 0.3808 0.7183
C5_3 C 0.6292(5) 0.3528(2) 0.7909(2)
C6_3 C 0.6021(5) 0.3673(2) 0.8498(2)
H3_3 H 0.5426 0.3432 0.8708
C7_3 C 0.6003(5) 0.3915(3) 0.9833(2)
H4_3 H 0.5747 0.3488 0.9755
C9_3 C 0.6668(7) 0.4910(3) 0.9702(3)
H6_3 H 0.6963 0.5296 0.9530
C10_3 C 0.8389(5) 0.5138(3) 0.7042(2)
H7_3 H 0.7653 0.5107 0.6822
C12_3 C 0.9766(5) 0.4990(3) 0.7744(2)
C13_3 C 0.6137(5) 0.2628(3) 0.7153(2)
H10_3 H 0.6904 0.2698 0.6968
C14_2 C 0.4359(5) 0.2231(3) 0.7382(3)
H11_2 H 0.3653 0.1967 0.7377
C15_2 C 0.4552(5) 0.2732(3) 0.7762(3)
H12_2 H 0.4017 0.2873 0.8066
C14_3 C 0.0641(5) 0.7769(3) 0.2382(3)
H11_3 H 0.1347 0.8033 0.2377
C15_3 C 0.0448(5) 0.7268(3) 0.2762(3)
H12_3 H 0.0983 0.7127 0.3066
O5_2 O 0.0979(3) 0.69542(19) 0.56850(18)
O6_2 O 0.1548(3) 0.61934(19) 0.63304(16)
S1_4 S 0.42443(12) 0.64029(7) 0.62865(7)
N1_4 N 0.8589(4) 0.5665(2) 0.44039(18)
N2_4 N 0.8989(4) 0.5823(2) 0.53662(18)
N3_4 N 0.6375(4) 0.51980(19) 0.25593(17)
N5_4 N 0.9304(4) 0.7004(2) 0.26166(18)
C1_4 C 0.8349(5) 0.5810(2) 0.3782(2)
C2_4 C 0.7495(5) 0.5447(2) 0.3473(2)
H1_4 H 0.7086 0.5101 0.3661
C3_4 C 0.7245(4) 0.5598(2) 0.2880(2)
C4_4 C 0.7848(5) 0.6102(2) 0.2587(2)
H2_4 H 0.7683 0.6192 0.2183
C5_4 C 0.8708(5) 0.6472(2) 0.2909(2)
C6_4 C 0.8979(5) 0.6327(2) 0.3498(2)
H3_4 H 0.9574 0.6568 0.3708
C7_4 C 0.8997(5) 0.6085(3) 0.4833(2)
H4_4 H 0.9253 0.6512 0.4755
C8_4 C 0.8584(7) 0.5190(3) 0.5284(3)
H5_3 H 0.8500 0.4880 0.5589
C9_4 C 0.8332(7) 0.5090(3) 0.4702(3)
H6_4 H 0.8037 0.4704 0.4530
C10_4 C 0.6611(5) 0.4862(3) 0.2042(2)
H7_4 H 0.7347 0.4893 0.1822
C11_2 C 0.4801(5) 0.4582(3) 0.2335(2)
H8_2 H 0.4027 0.4378 0.2350
C12_4 C 0.5234(5) 0.5010(3) 0.2744(2)
H9_3 H 0.4822 0.5151 0.3090
C13_4 C 0.8863(5) 0.7372(3) 0.2153(2)
H10_4 H 0.8096 0.7302 0.1968
C16_4 C 0.5422(4) 0.6798(3) 0.5914(2)
C17_4 C 0.4978(5) 0.7183(3) 0.5466(2)
H13_4 H 0.5484 0.7430 0.5212
C18_4 C 0.3662(5) 0.7172(3) 0.5427(2)
H14_4 H 0.3207 0.7412 0.5146
C19_4 C 0.3138(4) 0.6770(2) 0.5844(2)
C20_4 C 0.6747(5) 0.6684(3) 0.6075(3)
C21_4 C 0.1797(5) 0.6631(3) 0.5963(2)
O1_4 O 0.6998(4) 0.6200(3) 0.6396(2)
O2_4 O 0.7555(3) 0.70713(19) 0.58883(17)
C11_3 C 0.0199(5) 0.9582(3) 0.2335(2)
H8_3 H 0.0973 0.9378 0.2350
C14_4 C 0.0641(5) 0.7231(3) 0.7382(3)
H11_4 H 0.1347 0.6967 0.7377
C15_4 C 0.0448(5) 0.7732(3) 0.7762(3)
H12_4 H 0.0983 0.7873 0.8066
H5_4 H 0.8500 0.0120 0.0589
N1_5 N 0.3589(4) 0.5665(2) 0.05961(18)
N3_5 N 0.1375(4) 0.51980(19) 0.24407(17)
N4_3 N 0.0672(4) 0.4491(2) 0.31076(18)
N5_5 N 0.4304(4) 0.7004(2) 0.23834(18)
N6_3 N 0.4632(4) 0.7833(2) 0.30043(18)
C1_5 C 0.3349(5) 0.5810(2) 0.1218(2)
C2_5 C 0.2495(5) 0.5447(2) 0.1527(2)
H1_5 H 0.2086 0.5101 0.1339
C3_5 C 0.2245(4) 0.5598(2) 0.2120(2)
C4_5 C 0.2848(5) 0.6102(2) 0.2413(2)
H2_5 H 0.2683 0.6192 0.2817
C5_5 C 0.3708(5) 0.6472(2) 0.2091(2)
C6_5 C 0.3979(5) 0.6327(2) 0.1502(2)
H3_5 H 0.4574 0.6568 0.1292
C7_5 C 0.3997(5) 0.6085(3) 0.0167(2)
H4_5 H 0.4253 0.6512 0.0245
C9_5 C 0.3332(7) 0.5090(3) 0.0298(3)
H6_5 H 0.3037 0.4704 0.0470
C10_5 C 0.1611(5) 0.4862(3) 0.2958(2)
H7_5 H 0.2347 0.4893 0.3178
C12_5 C 0.0234(5) 0.5010(3) 0.2256(2)
C13_5 C 0.3863(5) 0.7372(3) 0.2847(2)
H10_5 H 0.3096 0.7302 0.3032
C14_5 C 0.5641(5) 0.7769(3) 0.2618(3)
H11_5 H 0.6347 0.8033 0.2623
C15_5 C 0.5448(5) 0.7268(3) 0.2238(3)
H12_5 H 0.5983 0.7127 0.1934
Cd3_2 Cd 0.06965(3) 0.361174(16) 0.375115(15)
Cd4_3 Cd 0.43035(3) 0.861174(16) 0.375115(15)
Cd1 Cd 0.43035(3) 0.638826(16) 0.875115(15)
N2_5 N 0.3989(4) 0.5823(2) 0.96338(18)
C8_5 C 0.3584(7) 0.5190(3) 0.9716(3)
H5_5 H 0.3500 0.4880 0.9411
C16_5 C 0.0422(4) 0.6798(3) 0.9086(2)
H13_5 H 0.0484 0.7430 0.9788
C20_5 C 0.1747(5) 0.6684(3) 0.8925(3)
O1_5 O 0.1998(4) 0.6200(3) 0.8604(2)
O2_5 O 0.2555(3) 0.70713(19) 0.91117(17)
N7_3 N 0.4328(4) 0.5509(2) 0.81076(18)
N8_3 N 0.4632(4) 0.7167(2) 0.80043(18)
O5_3 O 0.5979(3) 0.69542(19) 0.93150(18)
O6_3 O 0.6548(3) 0.61934(19) 0.86696(16)
S1_5 S 0.92443(12) 0.64029(7) 0.87135(7)
C17_5 C 0.9978(5) 0.7183(3) 0.9534(2)
C18_5 C 0.8662(5) 0.7172(3) 0.9573(2)
H14_5 H 0.8207 0.7412 0.9854
C19_5 C 0.8138(4) 0.6770(2) 0.9156(2)
C21_5 C 0.6797(5) 0.6631(3) 0.9037(2)
S1_6 S 0.57557(12) 0.35971(7) 0.37135(7)
N1_6 N 0.1411(4) 0.4335(2) 0.55961(18)
N2_6 N 0.1011(4) 0.4177(2) 0.46338(18)
N3_6 N 0.3625(4) 0.48020(19) 0.74407(17)
N5_6 N 0.0696(4) 0.2996(2) 0.73834(18)
N6_4 N 0.0368(4) 0.2167(2) 0.80043(18)
C1_6 C 0.1651(5) 0.4190(2) 0.6218(2)
C2_6 C 0.2505(5) 0.4553(2) 0.6527(2)
H1_6 H 0.2914 0.4899 0.6339
C3_6 C 0.2755(4) 0.4402(2) 0.7120(2)
C4_6 C 0.2152(5) 0.3898(2) 0.7413(2)
H2_6 H 0.2317 0.3808 0.7817
C5_6 C 0.1292(5) 0.3528(2) 0.7091(2)
C6_6 C 0.1021(5) 0.3673(2) 0.6502(2)
H3_6 H 0.0426 0.3432 0.6292
C7_6 C 0.1003(5) 0.3915(3) 0.5167(2)
H4_6 H 0.0747 0.3488 0.5245
C8_6 C 0.1416(7) 0.4810(3) 0.4716(3)
H5_6 H 0.1500 0.5120 0.4411
C9_6 C 0.1668(7) 0.4910(3) 0.5298(3)
H6_6 H 0.1963 0.5296 0.5470
C10_6 C 0.3389(5) 0.5138(3) 0.7958(2)
H7_6 H 0.2653 0.5107 0.8178
C11_4 C 0.5199(5) 0.5418(3) 0.7665(2)
H8_4 H 0.5973 0.5622 0.7650
C12_6 C 0.4766(5) 0.4990(3) 0.7256(2)
H9_4 H 0.5178 0.4849 0.6910
C13_6 C 0.1137(5) 0.2628(3) 0.7847(2)
H10_6 H 0.1904 0.2698 0.8032
C16_6 C 0.4578(4) 0.3202(3) 0.4086(2)
C17_6 C 0.5022(5) 0.2817(3) 0.4534(2)
H13_6 H 0.4516 0.2570 0.4788
C18_6 C 0.6338(5) 0.2828(3) 0.4573(2)
H14_6 H 0.6793 0.2588 0.4854
C19_6 C 0.6862(4) 0.3230(2) 0.4156(2)
C20_6 C 0.3253(5) 0.3316(3) 0.3925(3)
C21_6 C 0.8203(5) 0.3369(3) 0.4037(2)
O1_6 O 0.3002(4) 0.3800(3) 0.3604(2)
O2_6 O 0.2445(3) 0.29287(19) 0.41117(17)
O3_3 O 0.9021(3) 0.30458(19) 0.43150(18)
O4_3 O 0.8452(3) 0.38066(19) 0.36696(16)
Cd4_4 Cd 0.06965(3) 0.138826(16) 0.875115(15)
N8_4 N 0.0368(4) 0.2833(2) 0.30043(18)
C14_6 C 0.9359(5) 0.2231(3) 0.7618(3)
H11_6 H 0.8653 0.1967 0.7623
C15_6 C 0.9552(5) 0.2732(3) 0.7238(3)
H12_6 H 0.9017 0.2873 0.6934
N4_4 N 0.0672(4) 0.0509(2) 0.81076(18)
H5_7 H 0.3500 0.0120 0.4411
H6_7 H 0.3037 0.0296 0.5470
C10_7 C 0.1611(5) 0.0138(3) 0.7958(2)
H7_7 H 0.2347 0.0107 0.8178
N1_7 N 0.3589(4) 0.9335(2) 0.55961(18)
N2_7 N 0.3989(4) 0.9177(2) 0.46338(18)
N3_7 N 0.1375(4) 0.98020(19) 0.74407(17)
N5_7 N 0.4304(4) 0.7996(2) 0.73834(18)
C1_7 C 0.3349(5) 0.9190(2) 0.6218(2)
C2_7 C 0.2495(5) 0.9553(2) 0.6527(2)
H1_7 H 0.2086 0.9899 0.6339
C3_7 C 0.2245(4) 0.9402(2) 0.7120(2)
C4_7 C 0.2848(5) 0.8898(2) 0.7413(2)
H2_7 H 0.2683 0.8808 0.7817
C5_7 C 0.3708(5) 0.8528(2) 0.7091(2)
C6_7 C 0.3979(5) 0.8673(2) 0.6502(2)
H3_7 H 0.4574 0.8432 0.6292
C7_7 C 0.3997(5) 0.8915(3) 0.5167(2)
H4_7 H 0.4253 0.8488 0.5245
C8_7 C 0.3584(7) 0.9810(3) 0.4716(3)
C9_7 C 0.3332(7) 0.9910(3) 0.5298(3)
C12_7 C 0.0234(5) 0.9990(3) 0.7256(2)
C13_7 C 0.3863(5) 0.7628(3) 0.7847(2)
H10_7 H 0.3096 0.7698 0.8032
C14_7 C 0.5641(5) 0.7231(3) 0.7618(3)
H11_7 H 0.6347 0.6967 0.7623
C15_7 C 0.5448(5) 0.7732(3) 0.7238(3)
H12_7 H 0.5983 0.7873 0.6934
C16_7 C 0.0422(4) 0.8202(3) 0.4086(2)
H13_7 H 0.0484 0.7570 0.4788
C20_7 C 0.1747(5) 0.8316(3) 0.3925(3)
O1_7 O 0.1998(4) 0.8800(3) 0.3604(2)
O2_7 O 0.2555(3) 0.79287(19) 0.41117(17)
N7_4 N 0.4328(4) 0.9491(2) 0.31076(18)
O5_4 O 0.5979(3) 0.80458(19) 0.43150(18)
O6_4 O 0.6548(3) 0.88066(19) 0.36696(16)
S1_7 S 0.92443(12) 0.85971(7) 0.37135(7)
H9_5 H 0.9822 0.9849 0.6910
C17_7 C 0.9978(5) 0.7817(3) 0.4534(2)
C18_7 C 0.8662(5) 0.7828(3) 0.4573(2)
H14_7 H 0.8207 0.7588 0.4854
C19_7 C 0.8138(4) 0.8230(2) 0.4156(2)
C21_7 C 0.6797(5) 0.8369(3) 0.4037(2)
N1_8 N 0.1411(4) 0.0665(2) 0.05961(18)
N3_8 N 0.3625(4) 0.01980(19) 0.24407(17)
N5_8 N 0.0696(4) 0.2004(2) 0.23834(18)
C1_8 C 0.1651(5) 0.0810(2) 0.1218(2)
C2_8 C 0.2505(5) 0.0447(2) 0.1527(2)
H1_8 H 0.2914 0.0101 0.1339
C3_8 C 0.2755(4) 0.0598(2) 0.2120(2)
C4_8 C 0.2152(5) 0.1102(2) 0.2413(2)
H2_8 H 0.2317 0.1192 0.2817
C5_8 C 0.1292(5) 0.1472(2) 0.2091(2)
C6_8 C 0.1021(5) 0.1327(2) 0.1502(2)
H3_8 H 0.0426 0.1568 0.1292
C7_8 C 0.1003(5) 0.1085(3) 0.0167(2)
H4_8 H 0.0747 0.1512 0.0245
C9_8 C 0.1668(7) 0.0090(3) 0.0298(3)
C12_8 C 0.4766(5) 0.0010(3) 0.2256(2)
H9_6 H 0.5178 0.0151 0.1910
C13_8 C 0.1137(5) 0.2372(3) 0.2847(2)
H10_8 H 0.1904 0.2302 0.3032
S1_8 S 0.57557(12) 0.14029(7) 0.87135(7)
N2_8 N 0.1011(4) 0.0823(2) 0.96338(18)
C8_8 C 0.1416(7) 0.0190(3) 0.9716(3)
C16_8 C 0.4578(4) 0.1798(3) 0.9086(2)
C17_8 C 0.5022(5) 0.2183(3) 0.9534(2)
H13_8 H 0.4516 0.2430 0.9788
C18_8 C 0.6338(5) 0.2172(3) 0.9573(2)
H14_8 H 0.6793 0.2412 0.9854
C19_8 C 0.6862(4) 0.1770(2) 0.9156(2)
C20_8 C 0.3253(5) 0.1684(3) 0.8925(3)
C21_8 C 0.8203(5) 0.1631(3) 0.9037(2)
O1_8 O 0.3002(4) 0.1200(3) 0.8604(2)
O2_8 O 0.2445(3) 0.20713(19) 0.91117(17)
O3_4 O 0.9021(3) 0.19542(19) 0.93150(18)
O4_4 O 0.8452(3) 0.11934(19) 0.86696(16)
H6_8 H 0.1963 0.9704 0.0470
C10_8 C 0.3389(5) 0.9862(3) 0.2958(2)
H7_8 H 0.2653 0.9893 0.3178
C11_5 C 0.5199(5) 0.9582(3) 0.2665(2)
H8_5 H 0.5973 0.9378 0.2650
C11_6 C 0.9801(5) 0.4582(3) 0.2665(2)
H8_6 H 0.9027 0.4378 0.2650
H9_7 H 0.9822 0.5151 0.1910
C11_7 C 0.9801(5) 0.0418(3) 0.7665(2)
H8_7 H 0.9027 0.0622 0.7650
H5_8 H 0.1500 0.9880 0.9411
C14_8 C 0.9359(5) 0.2769(3) 0.2618(3)
H11_8 H 0.8653 0.3033 0.2623
C15_8 C 0.9552(5) 0.2268(3) 0.2238(3)
H12_8 H 0.9017 0.2127 0.1934
C11_8 C 0.0199(5) 0.5418(3) 0.7335(2)
H8_8 H 0.0973 0.5622 0.7350
H9_8 H 0.0178 0.4849 0.8090
loop_
_geom_bond_atom_site_label_1
_geom_bond_atom_site_label_2
_geom_bond_site_symmetry_1
_geom_bond_site_symmetry_2
C18 C17 1_555 1_555
H14 C18 1_555 1_555
C19 S1 1_555 1_555
C21 C19 1_555 1_555
O3 C21 1_555 1_555
O4 C21 1_555 1_555
Cd2 O3 1_555 1_555
C18 C19 1_555 1_555
O4 Cd2 1_555 1_555
Cd2 N2 1_555 1_555
N1 C1 1_555 1_555
N2 C7 1_555 1_555
N3 C3 1_555 1_555
N5 C5 1_555 1_555
N6 C13 1_555 1_555
C1 C2 1_555 1_555
C2 H1 1_555 1_555
C3 C2 1_555 1_555
C4 C3 1_555 1_555
H2 C4 1_555 1_555
C5 C4 1_555 1_555
C6 C1 1_555 1_555
H3 C6 1_555 1_555
C7 N1 1_555 1_555
H4 C7 1_555 1_555
C8 N2 1_555 1_555
C9 N1 1_555 1_555
C12 N3 1_555 1_555
C13 N5 1_555 1_555
H10 C13 1_555 1_555
C14 N6 1_555 1_555
H11 C14 1_555 1_555
C15 N5 1_555 1_555
H12 C15 1_555 1_555
C20 C16 1_555 1_555
O1 Cd2 1_555 1_555
O2 Cd2 1_555 1_555
Cd4 N6 1_555 1_555
N7 Cd2 1_555 1_555
N8 Cd2 1_555 1_555
C5 C6 1_555 1_555
C8 C9 1_555 1_555
C14 C15 1_555 1_555
C20 O1 1_555 1_555
C20 O2 1_555 1_555
N4 C10 1_555 1_555
H7 C10 1_555 1_555
Cd3 N4 1_555 1_555
N7 C10_2 1_555 1_555
H7_2 C10_2 1_555 1_555
C11 N7 1_555 1_555
H8 C11 1_555 1_555
Cd3 N2_2 1_555 1_555
S1_2 C16_2 1_555 1_555
C8_2 N2_2 1_555 1_555
C16_2 C17_2 1_555 1_555
C17_2 H13_2 1_555 1_555
C18_2 C17_2 1_555 1_555
H14_2 C18_2 1_555 1_555
C19_2 S1_2 1_555 1_555
C20_2 C16_2 1_555 1_555
C21_2 C19_2 1_555 1_555
O1_2 Cd3 1_555 1_555
O2_2 Cd3 1_555 1_555
O5 C21_2 1_555 1_555
O6 C21_2 1_555 1_555
N8_2 Cd3 1_555 1_555
C18_2 C19_2 1_555 1_555
C20_2 O1_2 1_555 1_555
C20_2 O2_2 1_555 1_555
N1_2 C1_2 1_555 1_555
N3_2 C3_2 1_555 1_555
N5_2 C5_2 1_555 1_555
N6_2 C13_2 1_555 1_555
C1_2 C2_2 1_555 1_555
C2_2 H1_2 1_555 1_555
C3_2 C2_2 1_555 1_555
C4_2 C3_2 1_555 1_555
H2_2 C4_2 1_555 1_555
C5_2 C4_2 1_555 1_555
C6_2 C1_2 1_555 1_555
H3_2 C6_2 1_555 1_555
C7_2 N1_2 1_555 1_555
H4_2 C7_2 1_555 1_555
C9_2 N1_2 1_555 1_555
C12_2 N3_2 1_555 1_555
H9_2 C12_2 1_555 1_555
C13_2 N5_2 1_555 1_555
H10_2 C13_2 1_555 1_555
Cd4_2 N6_2 1_555 1_555
C5_2 C6_2 1_555 1_555
C18_3 C17_3 1_555 1_555
H14_3 C18_3 1_555 1_555
C19_3 S1_3 1_555 1_555
C21_3 C19_3 1_555 1_555
O3_2 C21_3 1_555 1_555
O4_2 C21_3 1_555 1_555
Cd4 O3_2 1_555 1_555
C18_3 C19_3 1_555 1_555
O4_2 Cd4 1_555 1_555
Cd4 N2_3 1_555 1_555
C8_3 N2_3 1_555 1_555
H5_2 C8_3 1_555 1_555
C20_3 C16_3 1_555 1_555
O1_3 Cd4 1_555 1_555
O2_3 Cd4 1_555 1_555
N7_2 Cd4 1_555 1_555
C20_3 O1_3 1_555 1_555
C20_3 O2_3 1_555 1_555
N1_3 C1_3 1_555 1_555
N3_3 C3_3 1_555 1_555
N4_2 C10_3 1_555 1_555
N5_3 C5_3 1_555 1_555
N8 C13_3 1_555 1_555
C1_3 C2_3 1_555 1_555
C2_3 H1_3 1_555 1_555
C3_3 C2_3 1_555 1_555
C4_3 C3_3 1_555 1_555
H2_3 C4_3 1_555 1_555
C5_3 C4_3 1_555 1_555
C6_3 C1_3 1_555 1_555
H3_3 C6_3 1_555 1_555
C7_3 N1_3 1_555 1_555
H4_3 C7_3 1_555 1_555
C9_3 N1_3 1_555 1_555
H6_3 C9_3 1_555 1_555
C10_3 N3_3 1_555 1_555
H7_3 C10_3 1_555 1_555
C12_3 N3_3 1_555 1_555
C13_3 N5_3 1_555 1_555
H10_3 C13_3 1_555 1_555
C14_2 N8 1_555 1_555
H11_2 C14_2 1_555 1_555
C15_2 N5_3 1_555 1_555
H12_2 C15_2 1_555 1_555
Cd4_2 N4_2 1_555 1_555
C5_3 C6_3 1_555 1_555
C14_2 C15_2 1_555 1_555
H11_3 C14_3 1_555 1_555
H12_3 C15_3 1_555 1_555
C14_3 C15_3 1_555 1_555
Cd4_2 N2_4 1_555 1_555
S1_4 C16_4 1_555 1_555
N1_4 C1_4 1_555 1_555
N2_4 C7_4 1_555 1_555
N3_4 C3_4 1_555 1_555
N7_2 C10_4 1_555 1_555
N5_4 C5_4 1_555 1_555
N8_2 C13_4 1_555 1_555
C1_4 C2_4 1_555 1_555
C2_4 H1_4 1_555 1_555
C3_4 C2_4 1_555 1_555
C4_4 C3_4 1_555 1_555
H2_4 C4_4 1_555 1_555
C5_4 C4_4 1_555 1_555
C6_4 C1_4 1_555 1_555
H3_4 C6_4 1_555 1_555
C7_4 N1_4 1_555 1_555
H4_4 C7_4 1_555 1_555
C8_4 N2_4 1_555 1_555
H5_3 C8_4 1_555 1_555
C9_4 N1_4 1_555 1_555
H6_4 C9_4 1_555 1_555
C10_4 N3_4 1_555 1_555
H7_4 C10_4 1_555 1_555
C11_2 N7_2 1_555 1_555
H8_2 C11_2 1_555 1_555
C12_4 N3_4 1_555 1_555
H9_3 C12_4 1_555 1_555
C13_4 N5_4 1_555 1_555
H10_4 C13_4 1_555 1_555
C16_4 C17_4 1_555 1_555
C17_4 H13_4 1_555 1_555
C18_4 C17_4 1_555 1_555
H14_4 C18_4 1_555 1_555
C19_4 S1_4 1_555 1_555
C20_4 C16_4 1_555 1_555
C21_4 C19_4 1_555 1_555
O1_4 Cd4_2 1_555 1_555
O2_4 Cd4_2 1_555 1_555
O5_2 C21_4 1_555 1_555
O6_2 C21_4 1_555 1_555
C5_4 C6_4 1_555 1_555
C8_4 C9_4 1_555 1_555
C11_2 C12_4 1_555 1_555
C18_4 C19_4 1_555 1_555
C20_4 O1_4 1_555 1_555
C20_4 O2_4 1_555 1_555
H8_3 C11_3 1_555 1_555
H11_4 C14_4 1_555 1_555
H12_4 C15_4 1_555 1_555
C14_4 C15_4 1_555 1_555
N1_5 C1_5 1_555 1_555
N3_5 C3_5 1_555 1_555
N4_3 C10_5 1_555 1_555
N5_5 C5_5 1_555 1_555
N6_3 C13_5 1_555 1_555
C1_5 C2_5 1_555 1_555
C2_5 H1_5 1_555 1_555
C3_5 C2_5 1_555 1_555
C4_5 C3_5 1_555 1_555
H2_5 C4_5 1_555 1_555
C5_5 C4_5 1_555 1_555
C6_5 C1_5 1_555 1_555
H3_5 C6_5 1_555 1_555
C7_5 N1_5 1_555 1_555
H4_5 C7_5 1_555 1_555
C9_5 N1_5 1_555 1_555
H6_5 C9_5 1_555 1_555
C10_5 N3_5 1_555 1_555
H7_5 C10_5 1_555 1_555
C12_5 N3_5 1_555 1_555
C13_5 N5_5 1_555 1_555
H10_5 C13_5 1_555 1_555
C14_5 N6_3 1_555 1_555
H11_5 C14_5 1_555 1_555
C15_5 N5_5 1_555 1_555
H12_5 C15_5 1_555 1_555
Cd3_2 N4_3 1_555 1_555
Cd4_3 N6_3 1_555 1_555
C5_5 C6_5 1_555 1_555
C14_5 C15_5 1_555 1_555
Cd1 N2_5 1_555 1_555
C8_5 N2_5 1_555 1_555
H5_5 C8_5 1_555 1_555
C20_5 C16_5 1_555 1_555
O1_5 Cd1 1_555 1_555
O2_5 Cd1 1_555 1_555
N7_3 Cd1 1_555 1_555
N8_3 Cd1 1_555 1_555
O5_3 Cd1 1_555 1_555
O6_3 Cd1 1_555 1_555
C20_5 O1_5 1_555 1_555
C20_5 O2_5 1_555 1_555
C18_5 C17_5 1_555 1_555
H14_5 C18_5 1_555 1_555
C19_5 S1_5 1_555 1_555
C21_5 C19_5 1_555 1_555
O5_3 C21_5 1_555 1_555
O6_3 C21_5 1_555 1_555
C18_5 C19_5 1_555 1_555
Cd3_2 N2_6 1_555 1_555
S1_6 C16_6 1_555 1_555
N1_6 C1_6 1_555 1_555
N2_6 C7_6 1_555 1_555
N3_6 C3_6 1_555 1_555
N7_3 C10_6 1_555 1_555
N5_6 C5_6 1_555 1_555
N6_4 C13_6 1_555 1_555
C1_6 C2_6 1_555 1_555
C2_6 H1_6 1_555 1_555
C3_6 C2_6 1_555 1_555
C4_6 C3_6 1_555 1_555
H2_6 C4_6 1_555 1_555
C5_6 C4_6 1_555 1_555
C6_6 C1_6 1_555 1_555
H3_6 C6_6 1_555 1_555
C7_6 N1_6 1_555 1_555
H4_6 C7_6 1_555 1_555
C8_6 N2_6 1_555 1_555
H5_6 C8_6 1_555 1_555
C9_6 N1_6 1_555 1_555
H6_6 C9_6 1_555 1_555
C10_6 N3_6 1_555 1_555
H7_6 C10_6 1_555 1_555
C11_4 N7_3 1_555 1_555
H8_4 C11_4 1_555 1_555
C12_6 N3_6 1_555 1_555
H9_4 C12_6 1_555 1_555
C13_6 N5_6 1_555 1_555
H10_6 C13_6 1_555 1_555
C16_6 C17_6 1_555 1_555
C17_6 H13_6 1_555 1_555
C18_6 C17_6 1_555 1_555
H14_6 C18_6 1_555 1_555
C19_6 S1_6 1_555 1_555
C20_6 C16_6 1_555 1_555
C21_6 C19_6 1_555 1_555
O1_6 Cd3_2 1_555 1_555
O2_6 Cd3_2 1_555 1_555
O3_3 C21_6 1_555 1_555
O4_3 C21_6 1_555 1_555
Cd4_4 N6_4 1_555 1_555
N8_4 Cd3_2 1_555 1_555
C5_6 C6_6 1_555 1_555
C8_6 C9_6 1_555 1_555
C11_4 C12_6 1_555 1_555
C18_6 C19_6 1_555 1_555
C20_6 O1_6 1_555 1_555
C20_6 O2_6 1_555 1_555
H11_6 C14_6 1_555 1_555
H12_6 C15_6 1_555 1_555
C14_6 C15_6 1_555 1_555
N4_4 C10_7 1_555 1_555
H7_7 C10_7 1_555 1_555
Cd4_4 N4_4 1_555 1_555
Cd4_3 N2_7 1_555 1_555
N1_7 C1_7 1_555 1_555
N2_7 C7_7 1_555 1_555
N3_7 C3_7 1_555 1_555
N5_7 C5_7 1_555 1_555
N8_3 C13_7 1_555 1_555
C1_7 C2_7 1_555 1_555
C2_7 H1_7 1_555 1_555
C3_7 C2_7 1_555 1_555
C4_7 C3_7 1_555 1_555
H2_7 C4_7 1_555 1_555
C5_7 C4_7 1_555 1_555
C6_7 C1_7 1_555 1_555
H3_7 C6_7 1_555 1_555
C7_7 N1_7 1_555 1_555
H4_7 C7_7 1_555 1_555
C8_7 N2_7 1_555 1_555
C9_7 N1_7 1_555 1_555
C12_7 N3_7 1_555 1_555
C13_7 N5_7 1_555 1_555
H10_7 C13_7 1_555 1_555
C14_7 N8_3 1_555 1_555
H11_7 C14_7 1_555 1_555
C15_7 N5_7 1_555 1_555
H12_7 C15_7 1_555 1_555
C20_7 C16_7 1_555 1_555
O1_7 Cd4_3 1_555 1_555
O2_7 Cd4_3 1_555 1_555
N7_4 Cd4_3 1_555 1_555
O5_4 Cd4_3 1_555 1_555
O6_4 Cd4_3 1_555 1_555
C5_7 C6_7 1_555 1_555
C8_7 C9_7 1_555 1_555
C14_7 C15_7 1_555 1_555
C20_7 O1_7 1_555 1_555
C20_7 O2_7 1_555 1_555
C18_7 C17_7 1_555 1_555
H14_7 C18_7 1_555 1_555
C19_7 S1_7 1_555 1_555
C21_7 C19_7 1_555 1_555
O5_4 C21_7 1_555 1_555
O6_4 C21_7 1_555 1_555
C18_7 C19_7 1_555 1_555
N1_8 C1_8 1_555 1_555
N3_8 C3_8 1_555 1_555
N5_8 C5_8 1_555 1_555
N8_4 C13_8 1_555 1_555
C1_8 C2_8 1_555 1_555
C2_8 H1_8 1_555 1_555
C3_8 C2_8 1_555 1_555
C4_8 C3_8 1_555 1_555
H2_8 C4_8 1_555 1_555
C5_8 C4_8 1_555 1_555
C6_8 C1_8 1_555 1_555
H3_8 C6_8 1_555 1_555
C7_8 N1_8 1_555 1_555
H4_8 C7_8 1_555 1_555
C9_8 N1_8 1_555 1_555
C12_8 N3_8 1_555 1_555
H9_6 C12_8 1_555 1_555
C13_8 N5_8 1_555 1_555
H10_8 C13_8 1_555 1_555
C5_8 C6_8 1_555 1_555
Cd4_4 N2_8 1_555 1_555
S1_8 C16_8 1_555 1_555
C8_8 N2_8 1_555 1_555
C16_8 C17_8 1_555 1_555
C17_8 H13_8 1_555 1_555
C18_8 C17_8 1_555 1_555
H14_8 C18_8 1_555 1_555
C19_8 S1_8 1_555 1_555
C20_8 C16_8 1_555 1_555
C21_8 C19_8 1_555 1_555
O1_8 Cd4_4 1_555 1_555
O2_8 Cd4_4 1_555 1_555
O3_4 C21_8 1_555 1_555
O4_4 C21_8 1_555 1_555
C18_8 C19_8 1_555 1_555
C20_8 O1_8 1_555 1_555
C20_8 O2_8 1_555 1_555
N7_4 C10_8 1_555 1_555
H7_8 C10_8 1_555 1_555
C11_5 N7_4 1_555 1_555
H8_5 C11_5 1_555 1_555
H8_6 C11_6 1_555 1_555
H8_7 C11_7 1_555 1_555
H11_8 C14_8 1_555 1_555
H12_8 C15_8 1_555 1_555
C14_8 C15_8 1_555 1_555
H8_8 C11_8 1_555 1_555

#END
