
###############################################################################
#
# This file contains modified crystal structure data generated from the
# MOF subset of the Cambridge Structural Database (CSD) v543 
# hosted by the Cambridge Crystallographic Data Centre (CCDC).
#
# This work is licensed under the Creative Commons
# Attribution-NonCommercial-ShareAlike 4.0 International License.
# To view a copy of this license, visit
# http://creativecommons.org/licenses/by-nc-sa/4.0/
# or send a letter to
# Creative Commons, PO Box 1866, Mountain View, CA 94042, USA.
#
# CIF created using the CSD Python API on 29 September 2022
# The structure has been converted into the P1 space group
# The structure has a 3D framework
# The original CSD entry XUMTUV is in the monoclinic crystal system
# The framework has been calculated to contain at least 10.0% void space
# The void calculation uses a probe of radius 1.32A, grid spacing 0.4
#
###############################################################################

data_XUMTUV
_chemical_formula_moiety         '(C148 H150 Ho8 N30 O88)n'
_symmetry_cell_setting           triclinic
_symmetry_space_group_name_H-M   'P 1'
_symmetry_Int_Tables_number      1
_space_group_name_Hall           'P 1'
loop_
_symmetry_equiv_pos_site_id
_symmetry_equiv_pos_as_xyz
1 x,y,z
_cell_length_a                   21.719(2)
_cell_length_b                   16.6492(18)
_cell_length_c                   16.1955(17)
_cell_angle_alpha                90
_cell_angle_beta                 120.052(2)
_cell_angle_gamma                90
_cell_volume                     5069.09
loop_
_atom_site_label
_atom_site_type_symbol
_atom_site_fract_x
_atom_site_fract_y
_atom_site_fract_z
C10 C 0.0000 0.3224(6) 0.2500
H4 H 0.0000 0.2666 0.2500
C13 C -0.0000 0.4855(6) 0.2500
N4 N -0.0000 0.5741(6) 0.2500
Ho2 Ho 0.308688(14) 0.354124(17) 0.502042(19)
Ho5 Ho 0.308688(14) 0.645876(17) 0.002042(19)
Ho8 Ho 0.191312(14) 0.145876(17) 0.497958(19)
O12 O 0.2934(3) 0.4421(3) 0.3743(4)
O13 O 0.2754(4) 0.4954(3) 0.4846(4)
O14 O 0.1861(2) 0.3602(3) 0.4138(4)
O15 O 0.1262(3) 0.2463(3) 0.3894(3)
O17 O 0.3738(3) 0.2537(3) 0.6106(3)
O18 O 0.4134(4) 0.3383(5) 0.4895(7)
O19 O 0.4028(4) 0.4278(4) 0.6248(5)
O20 O 0.2787(3) 0.6317(3) 0.1212(4)
O21 O 0.2787(3) 0.3683(3) 0.6212(4)
O23 O 0.2220(3) 0.7478(3) 0.0988(4)
O24 O 0.2780(3) 0.2478(3) 0.4012(4)
O26 O 0.1367(6) 0.8227(6) 0.3147(8)
O27 O 0.1646(4) 0.7527(4) 0.4389(5)
O28 O 0.0564(4) 0.6078(4) 0.2974(7)
C20 C 0.1299(3) 0.3191(4) 0.3753(5)
C21 C 0.2534(4) 0.5786(4) 0.3549(5)
C22 C 0.2607(3) 0.5942(4) 0.2761(5)
H20 H 0.2814 0.5557 0.2560
C23 C 0.2377(4) 0.6661(4) 0.2268(5)
C24 C 0.2058(4) 0.7226(5) 0.2557(5)
H21 H 0.1892 0.7708 0.2230
C25 C 0.1991(4) 0.7059(5) 0.3335(6)
C26 C 0.2225(4) 0.6351(4) 0.3848(6)
H22 H 0.2176 0.6261 0.4379
C27 C 0.2770(4) 0.5008(4) 0.4093(5)
C28 C 0.2467(4) 0.6832(4) 0.1421(5)
C29 C 0.0621(4) 0.3632(4) 0.3096(5)
C30 C 0.0628(3) 0.4460(4) 0.3084(5)
H23 H 0.1046 0.4744 0.3460
C31 C 0.4059(7) 0.4778(7) 0.6875(8)
H24 H 0.3896 0.5299 0.6681
C32 C 0.4401(11) 0.5224(13) 0.8457(13)
H25 H 0.4815 0.5091 0.9055
H26 H 0.3992 0.5236 0.8536
H27 H 0.4465 0.5742 0.8250
C33 C 0.4390(12) 0.3728(12) 0.813(2)
H28 H 0.4167 0.3689 0.8509
H29 H 0.4887 0.3610 0.8513
H30 H 0.4173 0.3352 0.7610
C34 C 0.4381(6) 0.2774(8) 0.4704(8)
H31 H 0.4137 0.2296 0.4634
C35 C 0.5361(14) 0.3365(14) 0.474(2)
H32 H 0.5080 0.3846 0.4533
H33 H 0.5599 0.3297 0.4375
H34 H 0.5708 0.3405 0.5402
C36 C 0.5092(13) 0.1953(16) 0.434(2)
H35 H 0.5523 0.1748 0.4870
H36 H 0.5153 0.2012 0.3797
H37 H 0.4710 0.1585 0.4192
N5 N 0.1634(4) 0.7643(5) 0.3657(7)
N6 N 0.4295(7) 0.4599(9) 0.7720(8)
N7 N 0.4928(7) 0.2719(9) 0.4589(10)
Ho3 Ho 0.191312(14) 0.854124(17) 0.997958(19)
O1 O 0.7066(3) 0.4421(3) 0.1257(4)
O2 O 0.7246(4) 0.4954(3) 0.0154(4)
O3 O 0.8139(2) 0.3602(3) 0.0862(4)
O4 O 0.8738(3) 0.2463(3) 0.1106(3)
O5 O 0.5866(4) 0.3383(5) 0.0105(7)
O7 O 0.7213(3) 0.6317(3) 0.3788(4)
O8 O 0.7780(3) 0.7478(3) 0.4012(4)
O9 O 0.8633(6) 0.8227(6) 0.1853(8)
O10 O 0.8354(4) 0.7527(4) 0.0611(5)
O11 O 0.9436(4) 0.6078(4) 0.2026(7)
C1 C 0.8701(3) 0.3191(4) 0.1247(5)
C2 C 0.7466(4) 0.5786(4) 0.1451(5)
C3 C 0.7393(3) 0.5942(4) 0.2239(5)
H1 H 0.7186 0.5557 0.2440
C4 C 0.7623(4) 0.6661(4) 0.2732(5)
C5 C 0.7942(4) 0.7226(5) 0.2443(5)
H2 H 0.8108 0.7708 0.2770
C6 C 0.8009(4) 0.7059(5) 0.1665(6)
C7 C 0.7775(4) 0.6351(4) 0.1152(6)
H3 H 0.7824 0.6261 0.0621
C8 C 0.7230(4) 0.5008(4) 0.0907(5)
C9 C 0.7533(4) 0.6832(4) 0.3579(5)
C10_2 C 1.0000 0.3224(6) 0.2500
H4_2 H 1.0000 0.2666 0.2500
C11 C 0.9379(4) 0.3632(4) 0.1904(5)
C12 C 0.9372(3) 0.4460(4) 0.1916(5)
H5 H 0.8954 0.4744 0.1540
C13_2 C 1.0000 0.4855(6) 0.2500
C17 C 0.5619(6) 0.2774(8) 0.0296(8)
H13 H 0.5863 0.2296 0.0366
C18 C 0.4639(14) 0.3365(14) 0.026(2)
H14 H 0.4920 0.3846 0.0467
H15 H 0.4401 0.3297 0.0625
C19 C 0.4908(13) 0.1953(16) 0.066(2)
H17 H 0.4477 0.1748 0.0130
H18 H 0.4847 0.2012 0.1203
H19 H 0.5290 0.1585 0.0808
N1 N 0.8366(4) 0.7643(5) 0.1343(7)
N3 N 0.5072(7) 0.2719(9) 0.0411(10)
N4_2 N 1.0000 0.5741(6) 0.2500
Ho4 Ho 0.808688(14) 0.854124(17) 0.502042(19)
Ho6 Ho 0.691312(14) 0.645876(17) 0.497958(19)
Ho7 Ho 0.808688(14) 0.145876(17) 0.002042(19)
O25 O 0.7220(3) 0.2478(3) 0.0988(4)
Ho1 Ho 0.691312(14) 0.354124(17) 0.997958(19)
O6 O 0.5972(4) 0.4278(4) 0.8752(5)
C14 C 0.5941(7) 0.4778(7) 0.8125(8)
H6 H 0.6104 0.5299 0.8319
C15 C 0.5599(11) 0.5224(13) 0.6543(13)
H7 H 0.5185 0.5091 0.5945
H8 H 0.6008 0.5236 0.6464
H9 H 0.5535 0.5742 0.6750
C16 C 0.5610(12) 0.3728(12) 0.687(2)
H10 H 0.5833 0.3689 0.6491
H11 H 0.5113 0.3610 0.6487
H12 H 0.5827 0.3352 0.7390
H16 H 0.4292 0.3405 0.9598
N2 N 0.5705(7) 0.4599(9) 0.7280(8)
O16 O 0.6262(3) 0.2537(3) 0.8894(3)
O22 O 0.7213(3) 0.3683(3) 0.8788(4)
O7_2 O 0.2213(3) 0.1317(3) 0.3788(4)
O9_2 O 0.3633(6) 0.3227(6) 0.1853(8)
O10_2 O 0.3354(4) 0.2527(4) 0.0611(5)
O11_2 O 0.4436(4) 0.1078(4) 0.2026(7)
C2_2 C 0.2466(4) 0.0786(4) 0.1451(5)
C3_2 C 0.2393(3) 0.0942(4) 0.2239(5)
H1_2 H 0.2186 0.0557 0.2440
C4_2 C 0.2623(4) 0.1661(4) 0.2732(5)
C5_2 C 0.2942(4) 0.2226(5) 0.2443(5)
H2_2 H 0.3108 0.2708 0.2770
C6_2 C 0.3009(4) 0.2059(5) 0.1665(6)
C7_2 C 0.2775(4) 0.1351(4) 0.1152(6)
H3_2 H 0.2824 0.1261 0.0621
C8_2 C 0.2230(4) 0.0008(4) 0.0907(5)
C9_2 C 0.2533(4) 0.1832(4) 0.3579(5)
N1_2 N 0.3366(4) 0.2643(5) 0.1343(7)
N4_3 N 0.5000 0.0741(6) 0.2500
O20_2 O 0.7787(3) 0.1317(3) 0.1212(4)
O26_2 O 0.6367(6) 0.3227(6) 0.3147(8)
O27_2 O 0.6646(4) 0.2527(4) 0.4389(5)
O28_2 O 0.5564(4) 0.1078(4) 0.2974(7)
C21_2 C 0.7534(4) 0.0786(4) 0.3549(5)
C22_2 C 0.7607(3) 0.0942(4) 0.2761(5)
H20_2 H 0.7814 0.0557 0.2560
C23_2 C 0.7377(4) 0.1661(4) 0.2268(5)
C24_2 C 0.7058(4) 0.2226(5) 0.2557(5)
H21_2 H 0.6892 0.2708 0.2230
C25_2 C 0.6991(4) 0.2059(5) 0.3335(6)
C26_2 C 0.7225(4) 0.1351(4) 0.3848(6)
H22_2 H 0.7176 0.1261 0.4379
C27_2 C 0.7770(4) 0.0008(4) 0.4093(5)
C28_2 C 0.7467(4) 0.1832(4) 0.1421(5)
H24_2 H 0.8896 0.0299 0.6681
C32_2 C 0.9401(11) 0.0224(13) 0.8457(13)
H25_2 H 0.9815 0.0091 0.9055
H26_2 H 0.8992 0.0236 0.8536
H27_2 H 0.9465 0.0742 0.8250
N5_2 N 0.6634(4) 0.2643(5) 0.3657(7)
H6_2 H 0.1104 0.0299 0.8319
C15_2 C 0.0599(11) 0.0224(13) 0.6543(13)
H7_2 H 0.0185 0.0091 0.5945
H8_2 H 0.1008 0.0236 0.6464
H9_2 H 0.0535 0.0742 0.6750
O1_2 O 0.2066(3) 0.9421(3) 0.1257(4)
O2_2 O 0.2246(4) 0.9954(3) 0.0154(4)
O3_2 O 0.3139(2) 0.8602(3) 0.0862(4)
O4_2 O 0.3738(3) 0.7463(3) 0.1106(3)
O5_2 O 0.0866(4) 0.8383(5) 0.0105(7)
C1_2 C 0.3701(3) 0.8191(4) 0.1247(5)
C10_3 C 0.5000 0.8224(6) 0.2500
H4_3 H 0.5000 0.7666 0.2500
C11_2 C 0.4379(4) 0.8632(4) 0.1904(5)
C12_2 C 0.4372(3) 0.9460(4) 0.1916(5)
H5_2 H 0.3954 0.9744 0.1540
C13_3 C 0.5000 0.9855(6) 0.2500
C17_2 C 0.0619(6) 0.7774(8) 0.0296(8)
H13_2 H 0.0863 0.7296 0.0366
H19_2 H 0.0290 0.6585 0.0808
N3_2 N 0.0072(7) 0.7719(9) 0.0411(10)
O12_2 O 0.7934(3) 0.9421(3) 0.3743(4)
O13_2 O 0.7754(4) 0.9954(3) 0.4846(4)
O14_2 O 0.6861(2) 0.8602(3) 0.4138(4)
O15_2 O 0.6262(3) 0.7463(3) 0.3894(3)
O17_2 O 0.8738(3) 0.7537(3) 0.6106(3)
O18_2 O 0.9134(4) 0.8383(5) 0.4895(7)
O19_2 O 0.9028(4) 0.9278(4) 0.6248(5)
O21_2 O 0.7787(3) 0.8683(3) 0.6212(4)
C20_2 C 0.6299(3) 0.8191(4) 0.3753(5)
C29_2 C 0.5621(4) 0.8632(4) 0.3096(5)
C30_2 C 0.5628(3) 0.9460(4) 0.3084(5)
H23_2 H 0.6046 0.9744 0.3460
C31_2 C 0.9059(7) 0.9778(7) 0.6875(8)
C33_2 C 0.9390(12) 0.8728(12) 0.813(2)
H28_2 H 0.9167 0.8689 0.8509
H29_2 H 0.9887 0.8610 0.8513
H30_2 H 0.9173 0.8352 0.7610
C34_2 C 0.9381(6) 0.7774(8) 0.4704(8)
H31_2 H 0.9137 0.7296 0.4634
H37_2 H 0.9710 0.6585 0.4192
N6_2 N 0.9295(7) 0.9599(9) 0.7720(8)
N7_2 N 0.9928(7) 0.7719(9) 0.4589(10)
O6_2 O 0.0972(4) 0.9278(4) 0.8752(5)
C14_2 C 0.0941(7) 0.9778(7) 0.8125(8)
C16_2 C 0.0610(12) 0.8728(12) 0.687(2)
H10_2 H 0.0833 0.8689 0.6491
H11_2 H 0.0113 0.8610 0.6487
H12_2 H 0.0827 0.8352 0.7390
N2_2 N 0.0705(7) 0.9599(9) 0.7280(8)
O16_2 O 0.1262(3) 0.7537(3) 0.8894(3)
O22_2 O 0.2213(3) 0.8683(3) 0.8788(4)
O6_3 O 0.4028(4) 0.5722(4) 0.1248(5)
C14_3 C 0.4059(7) 0.5222(7) 0.1875(8)
H6_3 H 0.3896 0.4701 0.1681
C15_3 C 0.4401(11) 0.4776(13) 0.3457(13)
H7_3 H 0.4815 0.4909 0.4055
H8_3 H 0.3992 0.4764 0.3536
H9_3 H 0.4465 0.4258 0.3250
C16_3 C 0.4390(12) 0.6272(12) 0.313(2)
H10_3 H 0.4167 0.6311 0.3509
H11_3 H 0.4887 0.6390 0.3513
H12_3 H 0.4173 0.6648 0.2610
H16_2 H 0.5708 0.6595 0.0402
N2_3 N 0.4295(7) 0.5401(9) 0.2720(8)
O1_3 O 0.2934(3) 0.5579(3) 0.8743(4)
O2_3 O 0.2754(4) 0.5046(3) 0.9846(4)
O3_3 O 0.1861(2) 0.6398(3) 0.9138(4)
O5_3 O 0.4134(4) 0.6617(5) 0.9895(7)
O8_2 O 0.2220(3) 0.2522(3) 0.5988(4)
O9_3 O 0.1367(6) 0.1773(6) 0.8147(8)
O10_3 O 0.1646(4) 0.2473(4) 0.9389(5)
O11_3 O 0.0564(4) 0.3922(4) 0.7974(7)
C1_3 C 0.1299(3) 0.6809(4) 0.8753(5)
C2_3 C 0.2534(4) 0.4214(4) 0.8549(5)
C3_3 C 0.2607(3) 0.4058(4) 0.7761(5)
H1_3 H 0.2814 0.4443 0.7560
C4_3 C 0.2377(4) 0.3339(4) 0.7268(5)
C5_3 C 0.2058(4) 0.2774(5) 0.7557(5)
H2_3 H 0.1892 0.2292 0.7230
C6_3 C 0.1991(4) 0.2941(5) 0.8335(6)
C7_3 C 0.2225(4) 0.3649(4) 0.8848(6)
H3_3 H 0.2176 0.3739 0.9379
C8_3 C 0.2770(4) 0.4992(4) 0.9093(5)
C9_3 C 0.2467(4) 0.3168(4) 0.6421(5)
C10_4 C -0.0000 0.6776(6) 0.7500
H4_4 H -0.0000 0.7334 0.7500
C11_3 C 0.0621(4) 0.6368(4) 0.8096(5)
C12_3 C 0.0628(3) 0.5540(4) 0.8084(5)
H5_3 H 0.1046 0.5256 0.8460
C13_4 C 0.0000 0.5145(6) 0.7500
C17_3 C 0.4381(6) 0.7226(8) 0.9704(8)
H13_3 H 0.4137 0.7704 0.9634
C18_2 C 0.5361(14) 0.6635(14) 0.974(2)
H14_2 H 0.5080 0.6154 0.9533
H15_2 H 0.5599 0.6703 0.9375
C19_2 C 0.5092(13) 0.8047(16) 0.934(2)
H17_2 H 0.5523 0.8252 0.9870
H18_2 H 0.5153 0.7988 0.8797
H19_3 H 0.4710 0.8415 0.9192
N1_3 N 0.1634(4) 0.2357(5) 0.8657(7)
N3_3 N 0.4928(7) 0.7281(9) 0.9589(10)
N4_4 N 0.0000 0.4259(6) 0.7500
O25_2 O 0.2780(3) 0.7522(3) 0.9012(4)
C10_5 C 1.0000 0.6776(6) 0.7500
H4_5 H 1.0000 0.7334 0.7500
C13_5 C 1.0000 0.5145(6) 0.7500
N4_5 N 1.0000 0.4259(6) 0.7500
O12_3 O 0.7066(3) 0.5579(3) 0.6257(4)
O13_3 O 0.7246(4) 0.5046(3) 0.5154(4)
O14_3 O 0.8139(2) 0.6398(3) 0.5862(4)
O18_3 O 0.5866(4) 0.6617(5) 0.5105(7)
O19_3 O 0.5972(4) 0.5722(4) 0.3752(5)
O23_2 O 0.7780(3) 0.2522(3) 0.9012(4)
O24_2 O 0.7220(3) 0.7522(3) 0.5988(4)
O26_3 O 0.8633(6) 0.1773(6) 0.6853(8)
O27_3 O 0.8354(4) 0.2473(4) 0.5611(5)
O28_3 O 0.9436(4) 0.3922(4) 0.7026(7)
C20_3 C 0.8701(3) 0.6809(4) 0.6247(5)
C21_3 C 0.7466(4) 0.4214(4) 0.6451(5)
C22_3 C 0.7393(3) 0.4058(4) 0.7239(5)
H20_3 H 0.7186 0.4443 0.7440
C23_3 C 0.7623(4) 0.3339(4) 0.7732(5)
C24_3 C 0.7942(4) 0.2774(5) 0.7443(5)
H21_3 H 0.8108 0.2292 0.7770
C25_3 C 0.8009(4) 0.2941(5) 0.6665(6)
C26_3 C 0.7775(4) 0.3649(4) 0.6152(6)
H22_3 H 0.7824 0.3739 0.5621
C27_3 C 0.7230(4) 0.4992(4) 0.5907(5)
C28_3 C 0.7533(4) 0.3168(4) 0.8579(5)
C29_3 C 0.9379(4) 0.6368(4) 0.6904(5)
C30_3 C 0.9372(3) 0.5540(4) 0.6916(5)
H23_3 H 0.8954 0.5256 0.6540
C31_3 C 0.5941(7) 0.5222(7) 0.3125(8)
H24_3 H 0.6104 0.4701 0.3319
C32_3 C 0.5599(11) 0.4776(13) 0.1543(13)
H25_3 H 0.5185 0.4909 0.0945
H26_3 H 0.6008 0.4764 0.1464
H27_3 H 0.5535 0.4258 0.1750
C33_3 C 0.5610(12) 0.6272(12) 0.187(2)
H28_3 H 0.5833 0.6311 0.1491
H29_3 H 0.5113 0.6390 0.1487
H30_3 H 0.5827 0.6648 0.2390
C34_3 C 0.5619(6) 0.7226(8) 0.5296(8)
H31_3 H 0.5863 0.7704 0.5366
C35_2 C 0.4639(14) 0.6635(14) 0.526(2)
H32_2 H 0.4920 0.6154 0.5467
H33_2 H 0.4401 0.6703 0.5625
H34_2 H 0.4292 0.6595 0.4598
C36_2 C 0.4908(13) 0.8047(16) 0.566(2)
H35_2 H 0.4477 0.8252 0.5130
H36_2 H 0.4847 0.7988 0.6203
H37_3 H 0.5290 0.8415 0.5808
N5_3 N 0.8366(4) 0.2357(5) 0.6343(7)
N6_3 N 0.5705(7) 0.5401(9) 0.2280(8)
N7_3 N 0.5072(7) 0.7281(9) 0.5411(10)
O6_4 O 0.9028(4) 0.0722(4) 0.1248(5)
C14_4 C 0.9059(7) 0.0222(7) 0.1875(8)
C16_4 C 0.9390(12) 0.1272(12) 0.313(2)
H10_4 H 0.9167 0.1311 0.3509
H11_4 H 0.9887 0.1390 0.3513
H12_4 H 0.9173 0.1648 0.2610
N2_4 N 0.9295(7) 0.0401(9) 0.2720(8)
O1_4 O 0.7934(3) 0.0579(3) 0.8743(4)
O2_4 O 0.7754(4) 0.0046(3) 0.9846(4)
O3_4 O 0.6861(2) 0.1398(3) 0.9138(4)
O5_4 O 0.9134(4) 0.1617(5) 0.9895(7)
C1_4 C 0.6299(3) 0.1809(4) 0.8753(5)
C10_6 C 0.5000 0.1776(6) 0.7500
H4_6 H 0.5000 0.2334 0.7500
C11_4 C 0.5621(4) 0.1368(4) 0.8096(5)
C12_4 C 0.5628(3) 0.0540(4) 0.8084(5)
H5_4 H 0.6046 0.0256 0.8460
C13_6 C 0.5000 0.0145(6) 0.7500
C17_4 C 0.9381(6) 0.2226(8) 0.9704(8)
H13_4 H 0.9137 0.2704 0.9634
H19_4 H 0.9710 0.3415 0.9192
N3_4 N 0.9928(7) 0.2281(9) 0.9589(10)
O12_4 O 0.2066(3) 0.0579(3) 0.6257(4)
O13_4 O 0.2246(4) 0.0046(3) 0.5154(4)
O14_4 O 0.3139(2) 0.1398(3) 0.5862(4)
O18_4 O 0.0866(4) 0.1617(5) 0.5105(7)
O19_4 O 0.0972(4) 0.0722(4) 0.3752(5)
C20_4 C 0.3701(3) 0.1809(4) 0.6247(5)
C29_4 C 0.4379(4) 0.1368(4) 0.6904(5)
C30_4 C 0.4372(3) 0.0540(4) 0.6916(5)
H23_4 H 0.3954 0.0256 0.6540
C31_4 C 0.0941(7) 0.0222(7) 0.3125(8)
C33_4 C 0.0610(12) 0.1272(12) 0.187(2)
H28_4 H 0.0833 0.1311 0.1491
H29_4 H 0.0113 0.1390 0.1487
H30_4 H 0.0827 0.1648 0.2390
C34_4 C 0.0619(6) 0.2226(8) 0.5296(8)
H31_4 H 0.0863 0.2704 0.5366
H37_4 H 0.0290 0.3415 0.5808
N6_4 N 0.0705(7) 0.0401(9) 0.2280(8)
N7_4 N 0.0072(7) 0.2281(9) 0.5411(10)
H6_4 H 0.8896 0.9701 0.1681
C15_4 C 0.9401(11) 0.9776(13) 0.3457(13)
H7_4 H 0.9815 0.9909 0.4055
H8_4 H 0.8992 0.9764 0.3536
H9_4 H 0.9465 0.9258 0.3250
O9_4 O 0.6367(6) 0.6773(6) 0.8147(8)
O10_4 O 0.6646(4) 0.7473(4) 0.9389(5)
O11_4 O 0.5564(4) 0.8922(4) 0.7974(7)
C2_4 C 0.7534(4) 0.9214(4) 0.8549(5)
C3_4 C 0.7607(3) 0.9058(4) 0.7761(5)
H1_4 H 0.7814 0.9443 0.7560
C4_4 C 0.7377(4) 0.8339(4) 0.7268(5)
C5_4 C 0.7058(4) 0.7774(5) 0.7557(5)
H2_4 H 0.6892 0.7292 0.7230
C6_4 C 0.6991(4) 0.7941(5) 0.8335(6)
C7_4 C 0.7225(4) 0.8649(4) 0.8848(6)
H3_4 H 0.7176 0.8739 0.9379
C8_4 C 0.7770(4) 0.9992(4) 0.9093(5)
C9_4 C 0.7467(4) 0.8168(4) 0.6421(5)
N1_4 N 0.6634(4) 0.7357(5) 0.8657(7)
N4_6 N 0.5000 0.9259(6) 0.7500
O26_4 O 0.3633(6) 0.6773(6) 0.6853(8)
O27_4 O 0.3354(4) 0.7473(4) 0.5611(5)
O28_4 O 0.4436(4) 0.8922(4) 0.7026(7)
C21_4 C 0.2466(4) 0.9214(4) 0.6451(5)
C22_4 C 0.2393(3) 0.9058(4) 0.7239(5)
H20_4 H 0.2186 0.9443 0.7440
C23_4 C 0.2623(4) 0.8339(4) 0.7732(5)
C24_4 C 0.2942(4) 0.7774(5) 0.7443(5)
H21_4 H 0.3108 0.7292 0.7770
C25_4 C 0.3009(4) 0.7941(5) 0.6665(6)
C26_4 C 0.2775(4) 0.8649(4) 0.6152(6)
H22_4 H 0.2824 0.8739 0.5621
C27_4 C 0.2230(4) 0.9992(4) 0.5907(5)
C28_4 C 0.2533(4) 0.8168(4) 0.8579(5)
H24_4 H 0.1104 0.9701 0.3319
C32_4 C 0.0599(11) 0.9776(13) 0.1543(13)
H25_4 H 0.0185 0.9909 0.0945
H26_4 H 0.1008 0.9764 0.1464
H27_4 H 0.0535 0.9258 0.1750
N5_4 N 0.3366(4) 0.7357(5) 0.6343(7)
C35_3 C 0.0361(14) 0.8365(14) 0.474(2)
H32_3 H 0.0080 0.8846 0.4533
H33_3 H 0.0599 0.8297 0.4375
H34_3 H 0.0708 0.8405 0.5402
C36_3 C 0.0092(13) 0.6953(16) 0.434(2)
H35_3 H 0.0523 0.6748 0.4870
H36_3 H 0.0153 0.7012 0.3797
C18_3 C 0.9639(14) 0.8365(14) 0.026(2)
H14_3 H 0.9920 0.8846 0.0467
H15_3 H 0.9401 0.8297 0.0625
C19_3 C 0.9908(13) 0.6953(16) 0.066(2)
H17_3 H 0.9477 0.6748 0.0130
H18_3 H 0.9847 0.7012 0.1203
H16_3 H 0.9292 0.8405 0.9598
H16_4 H 0.0708 0.1595 0.0402
C18_4 C 0.0361(14) 0.1635(14) 0.974(2)
H14_4 H 0.0080 0.1154 0.9533
H15_4 H 0.0599 0.1703 0.9375
C19_4 C 0.0092(13) 0.3047(16) 0.934(2)
H17_4 H 0.0523 0.3252 0.9870
H18_4 H 0.0153 0.2988 0.8797
C35_4 C 0.9639(14) 0.1635(14) 0.526(2)
H32_4 H 0.9920 0.1154 0.5467
H33_4 H 0.9401 0.1703 0.5625
H34_4 H 0.9292 0.1595 0.4598
C36_4 C 0.9908(13) 0.3047(16) 0.566(2)
H35_4 H 0.9477 0.3252 0.5130
H36_4 H 0.9847 0.2988 0.6203
loop_
_geom_bond_atom_site_label_1
_geom_bond_atom_site_label_2
_geom_bond_site_symmetry_1
_geom_bond_site_symmetry_2
C10 H4 1_555 1_555
N4 C13 1_555 1_555
Ho2 O12 1_555 1_555
Ho5 O20 1_555 1_555
Ho8 O15 1_555 1_555
O12 C27 1_555 1_555
O13 Ho2 1_555 1_555
O14 Ho2 1_555 1_555
O15 C20 1_555 1_555
O17 Ho2 1_555 1_555
O18 Ho2 1_555 1_555
O19 Ho2 1_555 1_555
O20 C28 1_555 1_555
O21 Ho2 1_555 1_555
O23 C28 1_555 1_555
O24 Ho2 1_555 1_555
O26 N5 1_555 1_555
O27 N5 1_555 1_555
O28 N4 1_555 1_555
C20 O14 1_555 1_555
C21 C22 1_555 1_555
C22 H20 1_555 1_555
C23 C22 1_555 1_555
C24 C23 1_555 1_555
H21 C24 1_555 1_555
C25 C24 1_555 1_555
C26 C21 1_555 1_555
H22 C26 1_555 1_555
C27 O13 1_555 1_555
C28 C23 1_555 1_555
C29 C10 1_555 1_555
C30 C13 1_555 1_555
H23 C30 1_555 1_555
C31 O19 1_555 1_555
H24 C31 1_555 1_555
C32 H25 1_555 1_555
H26 C32 1_555 1_555
H27 C32 1_555 1_555
C33 H28 1_555 1_555
H29 C33 1_555 1_555
H30 C33 1_555 1_555
C34 O18 1_555 1_555
H31 C34 1_555 1_555
C35 H32 1_555 1_555
H33 C35 1_555 1_555
H34 C35 1_555 1_555
C36 H35 1_555 1_555
H36 C36 1_555 1_555
H37 C36 1_555 1_555
N5 C25 1_555 1_555
N6 C31 1_555 1_555
N7 C34 1_555 1_555
C20 C29 1_555 1_555
C21 C27 1_555 1_555
C25 C26 1_555 1_555
C29 C30 1_555 1_555
C32 N6 1_555 1_555
C33 N6 1_555 1_555
C35 N7 1_555 1_555
C36 N7 1_555 1_555
O1 C8 1_555 1_555
O4 C1 1_555 1_555
O7 C9 1_555 1_555
O8 C9 1_555 1_555
O9 N1 1_555 1_555
O10 N1 1_555 1_555
O11 N4_2 1_555 1_555
C1 O3 1_555 1_555
C2 C3 1_555 1_555
C3 H1 1_555 1_555
C4 C3 1_555 1_555
C5 C4 1_555 1_555
H2 C5 1_555 1_555
C6 C5 1_555 1_555
C7 C2 1_555 1_555
H3 C7 1_555 1_555
C8 O2 1_555 1_555
C9 C4 1_555 1_555
C10_2 H4_2 1_555 1_555
C11 C1 1_555 1_555
C12 C11 1_555 1_555
H5 C12 1_555 1_555
C13_2 C12 1_555 1_555
C17 O5 1_555 1_555
H13 C17 1_555 1_555
C18 H14 1_555 1_555
H15 C18 1_555 1_555
C19 H17 1_555 1_555
H18 C19 1_555 1_555
H19 C19 1_555 1_555
N1 C6 1_555 1_555
N3 C17 1_555 1_555
N4_2 C13_2 1_555 1_555
Ho4 O8 1_555 1_555
Ho6 O7 1_555 1_555
Ho7 O4 1_555 1_555
C2 C8 1_555 1_555
C6 C7 1_555 1_555
C10_2 C11 1_555 1_555
C18 N3 1_555 1_555
C19 N3 1_555 1_555
O6 Ho1 1_555 1_555
C14 O6 1_555 1_555
H6 C14 1_555 1_555
C15 H7 1_555 1_555
H8 C15 1_555 1_555
H9 C15 1_555 1_555
C16 H10 1_555 1_555
H11 C16 1_555 1_555
H12 C16 1_555 1_555
N2 C14 1_555 1_555
O16 Ho1 1_555 1_555
O22 Ho1 1_555 1_555
C15 N2 1_555 1_555
C16 N2 1_555 1_555
O7_2 C9_2 1_555 1_555
O24 C9_2 1_555 1_555
O9_2 N1_2 1_555 1_555
O10_2 N1_2 1_555 1_555
O11_2 N4_3 1_555 1_555
C2_2 C3_2 1_555 1_555
C3_2 H1_2 1_555 1_555
C4_2 C3_2 1_555 1_555
C5_2 C4_2 1_555 1_555
H2_2 C5_2 1_555 1_555
C6_2 C5_2 1_555 1_555
C7_2 C2_2 1_555 1_555
H3_2 C7_2 1_555 1_555
C9_2 C4_2 1_555 1_555
N1_2 C6_2 1_555 1_555
Ho7 O20_2 1_555 1_555
Ho8 O7_2 1_555 1_555
O20_2 C28_2 1_555 1_555
O25 C28_2 1_555 1_555
O26_2 N5_2 1_555 1_555
O27_2 N5_2 1_555 1_555
O28_2 N4_3 1_555 1_555
C21_2 C22_2 1_555 1_555
C22_2 H20_2 1_555 1_555
C23_2 C22_2 1_555 1_555
C24_2 C23_2 1_555 1_555
H21_2 C24_2 1_555 1_555
C25_2 C24_2 1_555 1_555
C26_2 C21_2 1_555 1_555
H22_2 C26_2 1_555 1_555
C28_2 C23_2 1_555 1_555
C32_2 H25_2 1_555 1_555
H26_2 C32_2 1_555 1_555
H27_2 C32_2 1_555 1_555
N5_2 C25_2 1_555 1_555
C2_2 C8_2 1_555 1_555
C6_2 C7_2 1_555 1_555
C21_2 C27_2 1_555 1_555
C25_2 C26_2 1_555 1_555
C15_2 H7_2 1_555 1_555
H8_2 C15_2 1_555 1_555
H9_2 C15_2 1_555 1_555
O4_2 C1_2 1_555 1_555
C1_2 O3_2 1_555 1_555
C10_3 H4_3 1_555 1_555
C11_2 C1_2 1_555 1_555
C12_2 C11_2 1_555 1_555
H5_2 C12_2 1_555 1_555
C13_3 C12_2 1_555 1_555
C17_2 O5_2 1_555 1_555
H13_2 C17_2 1_555 1_555
N3_2 C17_2 1_555 1_555
Ho4 O12_2 1_555 1_555
Ho5 O4_2 1_555 1_555
Ho6 O15_2 1_555 1_555
O13_2 Ho4 1_555 1_555
O14_2 Ho4 1_555 1_555
O15_2 C20_2 1_555 1_555
O17_2 Ho4 1_555 1_555
O18_2 Ho4 1_555 1_555
O19_2 Ho4 1_555 1_555
O21_2 Ho4 1_555 1_555
C20_2 O14_2 1_555 1_555
C29_2 C10_3 1_555 1_555
C30_2 C13_3 1_555 1_555
H23_2 C30_2 1_555 1_555
C31_2 O19_2 1_555 1_555
C33_2 H28_2 1_555 1_555
H29_2 C33_2 1_555 1_555
H30_2 C33_2 1_555 1_555
C34_2 O18_2 1_555 1_555
H31_2 C34_2 1_555 1_555
N6_2 C31_2 1_555 1_555
N7_2 C34_2 1_555 1_555
C10_3 C11_2 1_555 1_555
C20_2 C29_2 1_555 1_555
C29_2 C30_2 1_555 1_555
C33_2 N6_2 1_555 1_555
O6_2 Ho3 1_555 1_555
C14_2 O6_2 1_555 1_555
C16_2 H10_2 1_555 1_555
H11_2 C16_2 1_555 1_555
H12_2 C16_2 1_555 1_555
N2_2 C14_2 1_555 1_555
O16_2 Ho3 1_555 1_555
O22_2 Ho3 1_555 1_555
C16_2 N2_2 1_555 1_555
O6_3 Ho5 1_555 1_555
C14_3 O6_3 1_555 1_555
H6_3 C14_3 1_555 1_555
C15_3 H7_3 1_555 1_555
H8_3 C15_3 1_555 1_555
H9_3 C15_3 1_555 1_555
C16_3 H10_3 1_555 1_555
H11_3 C16_3 1_555 1_555
H12_3 C16_3 1_555 1_555
N2_3 C14_3 1_555 1_555
C15_3 N2_3 1_555 1_555
C16_3 N2_3 1_555 1_555
O1_3 C8_3 1_555 1_555
O16_2 C1_3 1_555 1_555
O21 C9_3 1_555 1_555
O8_2 C9_3 1_555 1_555
O9_3 N1_3 1_555 1_555
O10_3 N1_3 1_555 1_555
O11_3 N4_4 1_555 1_555
C1_3 O3_3 1_555 1_555
C2_3 C3_3 1_555 1_555
C3_3 H1_3 1_555 1_555
C4_3 C3_3 1_555 1_555
C5_3 C4_3 1_555 1_555
H2_3 C5_3 1_555 1_555
C6_3 C5_3 1_555 1_555
C7_3 C2_3 1_555 1_555
H3_3 C7_3 1_555 1_555
C8_3 O2_3 1_555 1_555
C9_3 C4_3 1_555 1_555
C10_4 H4_4 1_555 1_555
C11_3 C1_3 1_555 1_555
C12_3 C11_3 1_555 1_555
H5_3 C12_3 1_555 1_555
C13_4 C12_3 1_555 1_555
C17_3 O5_3 1_555 1_555
H13_3 C17_3 1_555 1_555
C18_2 H14_2 1_555 1_555
H15_2 C18_2 1_555 1_555
C19_2 H17_2 1_555 1_555
H18_2 C19_2 1_555 1_555
H19_3 C19_2 1_555 1_555
N1_3 C6_3 1_555 1_555
N3_3 C17_3 1_555 1_555
N4_4 C13_4 1_555 1_555
Ho8 O8_2 1_555 1_555
C2_3 C8_3 1_555 1_555
C6_3 C7_3 1_555 1_555
C10_4 C11_3 1_555 1_555
C18_2 N3_3 1_555 1_555
C19_2 N3_3 1_555 1_555
C10_5 H4_5 1_555 1_555
N4_5 C13_5 1_555 1_555
Ho6 O12_3 1_555 1_555
O12_3 C27_3 1_555 1_555
O13_3 Ho6 1_555 1_555
O14_3 Ho6 1_555 1_555
O17_2 C20_3 1_555 1_555
O18_3 Ho6 1_555 1_555
O19_3 Ho6 1_555 1_555
O22 C28_3 1_555 1_555
O23_2 C28_3 1_555 1_555
O24_2 Ho6 1_555 1_555
O26_3 N5_3 1_555 1_555
O27_3 N5_3 1_555 1_555
O28_3 N4_5 1_555 1_555
C20_3 O14_3 1_555 1_555
C21_3 C22_3 1_555 1_555
C22_3 H20_3 1_555 1_555
C23_3 C22_3 1_555 1_555
C24_3 C23_3 1_555 1_555
H21_3 C24_3 1_555 1_555
C25_3 C24_3 1_555 1_555
C26_3 C21_3 1_555 1_555
H22_3 C26_3 1_555 1_555
C27_3 O13_3 1_555 1_555
C28_3 C23_3 1_555 1_555
C29_3 C10_5 1_555 1_555
C30_3 C13_5 1_555 1_555
H23_3 C30_3 1_555 1_555
C31_3 O19_3 1_555 1_555
H24_3 C31_3 1_555 1_555
C32_3 H25_3 1_555 1_555
H26_3 C32_3 1_555 1_555
H27_3 C32_3 1_555 1_555
C33_3 H28_3 1_555 1_555
H29_3 C33_3 1_555 1_555
H30_3 C33_3 1_555 1_555
C34_3 O18_3 1_555 1_555
H31_3 C34_3 1_555 1_555
C35_2 H32_2 1_555 1_555
H33_2 C35_2 1_555 1_555
H34_2 C35_2 1_555 1_555
C36_2 H35_2 1_555 1_555
H36_2 C36_2 1_555 1_555
H37_3 C36_2 1_555 1_555
N5_3 C25_3 1_555 1_555
N6_3 C31_3 1_555 1_555
N7_3 C34_3 1_555 1_555
C20_3 C29_3 1_555 1_555
C21_3 C27_3 1_555 1_555
C25_3 C26_3 1_555 1_555
C29_3 C30_3 1_555 1_555
C32_3 N6_3 1_555 1_555
C33_3 N6_3 1_555 1_555
C35_2 N7_3 1_555 1_555
C36_2 N7_3 1_555 1_555
O6_4 Ho7 1_555 1_555
C14_4 O6_4 1_555 1_555
C16_4 H10_4 1_555 1_555
H11_4 C16_4 1_555 1_555
H12_4 C16_4 1_555 1_555
N2_4 C14_4 1_555 1_555
C16_4 N2_4 1_555 1_555
O16 C1_4 1_555 1_555
C1_4 O3_4 1_555 1_555
C10_6 H4_6 1_555 1_555
C11_4 C1_4 1_555 1_555
C12_4 C11_4 1_555 1_555
H5_4 C12_4 1_555 1_555
C13_6 C12_4 1_555 1_555
C17_4 O5_4 1_555 1_555
H13_4 C17_4 1_555 1_555
N3_4 C17_4 1_555 1_555
Ho8 O12_4 1_555 1_555
O13_4 Ho8 1_555 1_555
O14_4 Ho8 1_555 1_555
O17 C20_4 1_555 1_555
O18_4 Ho8 1_555 1_555
O19_4 Ho8 1_555 1_555
C20_4 O14_4 1_555 1_555
C29_4 C10_6 1_555 1_555
C30_4 C13_6 1_555 1_555
H23_4 C30_4 1_555 1_555
C31_4 O19_4 1_555 1_555
C33_4 H28_4 1_555 1_555
H29_4 C33_4 1_555 1_555
H30_4 C33_4 1_555 1_555
C34_4 O18_4 1_555 1_555
H31_4 C34_4 1_555 1_555
N6_4 C31_4 1_555 1_555
N7_4 C34_4 1_555 1_555
C10_6 C11_4 1_555 1_555
C20_4 C29_4 1_555 1_555
C29_4 C30_4 1_555 1_555
C33_4 N6_4 1_555 1_555
C15_4 H7_4 1_555 1_555
H8_4 C15_4 1_555 1_555
H9_4 C15_4 1_555 1_555
O21_2 C9_4 1_555 1_555
O24_2 C9_4 1_555 1_555
O9_4 N1_4 1_555 1_555
O10_4 N1_4 1_555 1_555
O11_4 N4_6 1_555 1_555
C2_4 C3_4 1_555 1_555
C3_4 H1_4 1_555 1_555
C4_4 C3_4 1_555 1_555
C5_4 C4_4 1_555 1_555
H2_4 C5_4 1_555 1_555
C6_4 C5_4 1_555 1_555
C7_4 C2_4 1_555 1_555
H3_4 C7_4 1_555 1_555
C9_4 C4_4 1_555 1_555
N1_4 C6_4 1_555 1_555
O22_2 C28_4 1_555 1_555
O25_2 C28_4 1_555 1_555
O26_4 N5_4 1_555 1_555
O27_4 N5_4 1_555 1_555
O28_4 N4_6 1_555 1_555
C21_4 C22_4 1_555 1_555
C22_4 H20_4 1_555 1_555
C23_4 C22_4 1_555 1_555
C24_4 C23_4 1_555 1_555
H21_4 C24_4 1_555 1_555
C25_4 C24_4 1_555 1_555
C26_4 C21_4 1_555 1_555
H22_4 C26_4 1_555 1_555
C28_4 C23_4 1_555 1_555
C32_4 H25_4 1_555 1_555
H26_4 C32_4 1_555 1_555
H27_4 C32_4 1_555 1_555
N5_4 C25_4 1_555 1_555
C2_4 C8_4 1_555 1_555
C6_4 C7_4 1_555 1_555
C21_4 C27_4 1_555 1_555
C25_4 C26_4 1_555 1_555
C35_3 H32_3 1_555 1_555
H33_3 C35_3 1_555 1_555
H34_3 C35_3 1_555 1_555
C36_3 H35_3 1_555 1_555
H36_3 C36_3 1_555 1_555
C18_3 H14_3 1_555 1_555
H15_3 C18_3 1_555 1_555
C19_3 H17_3 1_555 1_555
H18_3 C19_3 1_555 1_555
C18_4 H14_4 1_555 1_555
H15_4 C18_4 1_555 1_555
C19_4 H17_4 1_555 1_555
H18_4 C19_4 1_555 1_555
C35_4 H32_4 1_555 1_555
H33_4 C35_4 1_555 1_555
H34_4 C35_4 1_555 1_555
C36_4 H35_4 1_555 1_555
H36_4 C36_4 1_555 1_555

#END
