
###############################################################################
#
# This file contains modified crystal structure data generated from the
# MOF subset of the Cambridge Structural Database (CSD) v543 
# hosted by the Cambridge Crystallographic Data Centre (CCDC).
#
# This work is licensed under the Creative Commons
# Attribution-NonCommercial-ShareAlike 4.0 International License.
# To view a copy of this license, visit
# http://creativecommons.org/licenses/by-nc-sa/4.0/
# or send a letter to
# Creative Commons, PO Box 1866, Mountain View, CA 94042, USA.
#
# CIF created using the CSD Python API on 29 September 2022
# The structure has been converted into the P1 space group
# The structure has a 3D framework
# The original CSD entry XUMVAD is in the monoclinic crystal system
# The framework has been calculated to contain at least 10.0% void space
# The void calculation uses a probe of radius 1.32A, grid spacing 0.4
#
###############################################################################

data_XUMVAD
_chemical_formula_moiety         '(C148 H150 Dy8 N30 O88)n'
_symmetry_cell_setting           triclinic
_symmetry_space_group_name_H-M   'P 1'
_symmetry_Int_Tables_number      1
_space_group_name_Hall           'P 1'
loop_
_symmetry_equiv_pos_site_id
_symmetry_equiv_pos_as_xyz
1 x,y,z
_cell_length_a                   21.746(3)
_cell_length_b                   16.682(2)
_cell_length_c                   16.2156(19)
_cell_angle_alpha                90
_cell_angle_beta                 120.009(2)
_cell_angle_gamma                90
_cell_volume                     5093.92
loop_
_atom_site_label
_atom_site_type_symbol
_atom_site_fract_x
_atom_site_fract_y
_atom_site_fract_z
Dy2 Dy 0.308818(12) 0.145806(15) 0.002224(17)
O15 O 0.2785(2) 0.1317(3) 0.1220(3)
O25 O 0.3745(2) 0.2468(3) 0.1112(3)
O26 O 0.4031(3) 0.0726(4) 0.1250(5)
C31 C 0.4068(6) 0.0223(6) 0.1876(7)
C32 C 0.4376(10) 0.1283(11) 0.3155(19)
H25 H 0.4238 0.1673 0.2657
H26 H 0.4863 0.1371 0.3634
H27 H 0.4079 0.1334 0.3433
H32 H 0.5681 0.1548 0.0376
N6 N 0.4293(7) 0.0408(8) 0.2724(8)
C10 C -0.0000 0.1773(5) 0.7500
H4 H -0.0000 0.2331 0.7500
C13 C -0.0000 0.0137(5) 0.7500
Dy8 Dy 0.191182(12) 0.354194(15) 0.997776(17)
O12 O 0.2759(3) 0.0042(3) 0.9853(3)
O13 O 0.2942(3) 0.0567(3) 0.8750(3)
O18 O 0.2786(3) 0.2521(3) 0.9009(3)
O22 O 0.1861(2) 0.1397(3) 0.9134(3)
O23 O 0.1255(2) 0.2532(3) 0.8888(3)
O27 O 0.4136(4) 0.1617(5) 0.9889(6)
C28 C 0.1300(3) 0.1805(4) 0.8758(4)
C29 C 0.0624(3) 0.1364(3) 0.8101(4)
C30 C 0.0624(3) 0.0533(4) 0.8082(4)
H23 H 0.1040 0.0248 0.8457
C34 C 0.4387(5) 0.2223(8) 0.9708(7)
H31 H 0.4146 0.2699 0.9651
C35 C 0.5354(13) 0.1626(13) 0.971(2)
H33 H 0.5613 0.1713 0.9382
H34 H 0.5060 0.1160 0.9455
C36 C 0.5109(11) 0.3056(14) 0.934(2)
H35 H 0.4716 0.3419 0.9133
H36 H 0.5208 0.2980 0.8827
H37 H 0.5520 0.3275 0.9879
N7 N 0.4930(5) 0.2290(8) 0.9588(9)
O11 O 0.0562(3) 0.8918(3) 0.7973(6)
N2 N -0.0000 0.9258(5) 0.7500
Dy3 Dy 0.191182(12) 0.645806(15) 0.497776(17)
Dy5 Dy 0.308818(12) 0.854194(15) 0.502224(17)
O14 O 0.2785(2) 0.8683(3) 0.6220(3)
O17 O 0.2214(3) 0.7521(3) 0.5991(3)
O20 O 0.1642(3) 0.7469(4) 0.9386(5)
O21 O 0.1363(6) 0.6777(5) 0.8139(7)
C20 C 0.2773(3) 0.9991(4) 0.9095(4)
C21 C 0.2529(3) 0.9212(4) 0.8548(4)
C22 C 0.2607(3) 0.9054(3) 0.7758(4)
H20 H 0.2814 0.9436 0.7557
C23 C 0.2378(3) 0.8334(4) 0.7268(4)
C24 C 0.2057(3) 0.7772(4) 0.7557(5)
H21 H 0.1895 0.7290 0.7232
C25 C 0.1982(4) 0.7939(4) 0.8333(5)
C26 C 0.2221(4) 0.8644(4) 0.8841(5)
H22 H 0.2175 0.8733 0.9374
C27 C 0.2463(3) 0.8173(4) 0.6422(4)
N5 N 0.1633(4) 0.7357(4) 0.8652(6)
Dy1 Dy 0.691182(12) 0.145806(15) 0.497776(17)
O1 O 0.7241(3) 0.0042(3) 0.5147(3)
O2 O 0.7058(3) 0.0567(3) 0.6250(3)
O7 O 0.8139(2) 0.1397(3) 0.5866(3)
O8 O 0.8745(2) 0.2532(3) 0.6112(3)
O9 O 0.5969(3) 0.0726(4) 0.3750(5)
O10 O 0.5864(4) 0.1617(5) 0.5111(6)
C9 C 0.8700(3) 0.1805(4) 0.6242(4)
C10_2 C 1.0000 0.1773(5) 0.7500
H4_2 H 1.0000 0.2331 0.7500
C11 C 0.9376(3) 0.1364(3) 0.6899(4)
C12 C 0.9376(3) 0.0533(4) 0.6918(4)
H5 H 0.8960 0.0248 0.6543
C13_2 C 1.0000 0.0137(5) 0.7500
C14 C 0.5932(6) 0.0223(6) 0.3124(7)
C15 C 0.5624(10) 0.1283(11) 0.1845(19)
H7 H 0.5762 0.1673 0.2343
H8 H 0.5137 0.1371 0.1366
H9 H 0.5921 0.1334 0.1567
C17 C 0.5613(5) 0.2223(8) 0.5292(7)
H13 H 0.5854 0.2699 0.5349
C18 C 0.4646(13) 0.1626(13) 0.529(2)
H14 H 0.4319 0.1548 0.4624
H15 H 0.4387 0.1713 0.5618
H16 H 0.4940 0.1160 0.5545
C19 C 0.4891(11) 0.3056(14) 0.566(2)
H17 H 0.5284 0.3419 0.5867
H18 H 0.4792 0.2980 0.6173
H19 H 0.4480 0.3275 0.5121
N3 N 0.5707(7) 0.0408(8) 0.2276(8)
N4 N 0.5070(5) 0.2290(8) 0.5412(9)
Dy7 Dy 0.808818(12) 0.354194(15) 0.502224(17)
O16 O 0.7215(2) 0.1317(3) 0.3780(3)
O19 O 0.7214(3) 0.2521(3) 0.5991(3)
O24 O 0.6255(2) 0.2468(3) 0.3888(3)
Dy4 Dy 0.808818(12) 0.645806(15) 0.002224(17)
O3 O 0.7215(2) 0.8683(3) 0.8780(3)
O4 O 0.7786(3) 0.7521(3) 0.9009(3)
O5 O 0.8358(3) 0.7469(4) 0.5614(5)
O6 O 0.8637(6) 0.6777(5) 0.6861(7)
C1 C 0.7227(3) 0.9991(4) 0.5905(4)
C2 C 0.7471(3) 0.9212(4) 0.6452(4)
C3 C 0.7393(3) 0.9054(3) 0.7242(4)
H1 H 0.7186 0.9436 0.7443
C4 C 0.7622(3) 0.8334(4) 0.7732(4)
C5 C 0.7943(3) 0.7772(4) 0.7443(5)
H2 H 0.8105 0.7290 0.7768
C6 C 0.8018(4) 0.7939(4) 0.6667(5)
C7 C 0.7779(4) 0.8644(4) 0.6159(5)
H3 H 0.7825 0.8733 0.5626
C8 C 0.7537(3) 0.8173(4) 0.8578(4)
H6 H 0.6081 0.9698 0.3314
C16 C 0.5598(10) 0.9768(12) 0.1566(13)
H10 H 0.5629 0.9250 0.1844
H11 H 0.5958 0.9812 0.1391
H12 H 0.5139 0.9830 0.1010
N1 N 0.8367(4) 0.7357(4) 0.6348(6)
N2_2 N 1.0000 0.9258(5) 0.7500
Dy6 Dy 0.691182(12) 0.854194(15) 0.997776(17)
O28 O 0.9438(3) 0.8918(3) 0.7027(6)
O15_2 O 0.7785(2) 0.6317(3) 0.1220(3)
O25_2 O 0.8745(2) 0.7468(3) 0.1112(3)
O26_2 O 0.9031(3) 0.5726(4) 0.1250(5)
C31_2 C 0.9068(6) 0.5223(6) 0.1876(7)
H24 H 0.8919 0.4698 0.1686
C32_2 C 0.9376(10) 0.6283(11) 0.3155(19)
H25_2 H 0.9238 0.6673 0.2657
H26_2 H 0.9863 0.6371 0.3634
H27_2 H 0.9079 0.6334 0.3433
C33 C 0.9402(10) 0.4768(12) 0.3434(13)
H28 H 0.9371 0.4250 0.3156
H29 H 0.9042 0.4812 0.3609
H30 H 0.9861 0.4830 0.3990
N6_2 N 0.9293(7) 0.5408(8) 0.2724(8)
O1_2 O 0.2241(3) 0.5042(3) 0.5147(3)
O2_2 O 0.2058(3) 0.5567(3) 0.6250(3)
O3_2 O 0.2215(2) 0.3683(3) 0.8780(3)
O5_2 O 0.3358(3) 0.2469(4) 0.5614(5)
O6_2 O 0.3637(6) 0.1777(5) 0.6861(7)
O7_2 O 0.3139(2) 0.6397(3) 0.5866(3)
O8_2 O 0.3745(2) 0.7532(3) 0.6112(3)
O9_2 O 0.0969(3) 0.5726(4) 0.3750(5)
O10_2 O 0.0864(4) 0.6617(5) 0.5111(6)
C1_2 C 0.2227(3) 0.4991(4) 0.5905(4)
C2_2 C 0.2471(3) 0.4212(4) 0.6452(4)
C3_2 C 0.2393(3) 0.4054(3) 0.7242(4)
H1_2 H 0.2186 0.4436 0.7443
C4_2 C 0.2622(3) 0.3334(4) 0.7732(4)
C5_2 C 0.2943(3) 0.2772(4) 0.7443(5)
H2_2 H 0.3105 0.2290 0.7768
C6_2 C 0.3018(4) 0.2939(4) 0.6667(5)
C7_2 C 0.2779(4) 0.3644(4) 0.6159(5)
H3_2 H 0.2825 0.3733 0.5626
C8_2 C 0.2537(3) 0.3173(4) 0.8578(4)
C9_2 C 0.3700(3) 0.6805(4) 0.6242(4)
C10_3 C 0.5000 0.6773(5) 0.7500
H4_3 H 0.5000 0.7331 0.7500
C11_2 C 0.4376(3) 0.6364(3) 0.6899(4)
C12_2 C 0.4376(3) 0.5533(4) 0.6918(4)
H5_2 H 0.3960 0.5248 0.6543
C13_3 C 0.5000 0.5137(5) 0.7500
C14_2 C 0.0932(6) 0.5223(6) 0.3124(7)
H6_2 H 0.1081 0.4698 0.3314
C15_2 C 0.0624(10) 0.6283(11) 0.1845(19)
H7_2 H 0.0762 0.6673 0.2343
H8_2 H 0.0137 0.6371 0.1366
H9_2 H 0.0921 0.6334 0.1567
C16_2 C 0.0598(10) 0.4768(12) 0.1566(13)
H10_2 H 0.0629 0.4250 0.1844
H11_2 H 0.0958 0.4812 0.1391
H12_2 H 0.0139 0.4830 0.1010
C17_2 C 0.0613(5) 0.7223(8) 0.5292(7)
H13_2 H 0.0854 0.7699 0.5349
H17_2 H 0.0284 0.8419 0.5867
O11_2 O 0.5562(3) 0.3918(3) 0.7973(6)
N1_2 N 0.3367(4) 0.2357(4) 0.6348(6)
N2_3 N 0.5000 0.4258(5) 0.7500
N3_2 N 0.0707(7) 0.5408(8) 0.2276(8)
N4_2 N 0.0070(5) 0.7290(8) 0.5412(9)
O12_2 O 0.7759(3) 0.5042(3) 0.9853(3)
O13_2 O 0.7942(3) 0.5567(3) 0.8750(3)
O14_2 O 0.7785(2) 0.3683(3) 0.6220(3)
O16_2 O 0.2215(2) 0.6317(3) 0.3780(3)
O20_2 O 0.6642(3) 0.2469(4) 0.9386(5)
O21_2 O 0.6363(6) 0.1777(5) 0.8139(7)
O22_2 O 0.6861(2) 0.6397(3) 0.9134(3)
O23_2 O 0.6255(2) 0.7532(3) 0.8888(3)
O24_2 O 0.1255(2) 0.7468(3) 0.3888(3)
O27_2 O 0.9136(4) 0.6617(5) 0.9889(6)
C20_2 C 0.7773(3) 0.4991(4) 0.9095(4)
C21_2 C 0.7529(3) 0.4212(4) 0.8548(4)
C22_2 C 0.7607(3) 0.4054(3) 0.7758(4)
H20_2 H 0.7814 0.4436 0.7557
C23_2 C 0.7378(3) 0.3334(4) 0.7268(4)
C24_2 C 0.7057(3) 0.2772(4) 0.7557(5)
H21_2 H 0.6895 0.2290 0.7232
C25_2 C 0.6982(4) 0.2939(4) 0.8333(5)
C26_2 C 0.7221(4) 0.3644(4) 0.8841(5)
H22_2 H 0.7175 0.3733 0.9374
C27_2 C 0.7463(3) 0.3173(4) 0.6422(4)
C28_2 C 0.6300(3) 0.6805(4) 0.8758(4)
C29_2 C 0.5624(3) 0.6364(3) 0.8101(4)
C30_2 C 0.5624(3) 0.5533(4) 0.8082(4)
H23_2 H 0.6040 0.5248 0.8457
C34_2 C 0.9387(5) 0.7223(8) 0.9708(7)
H31_2 H 0.9146 0.7699 0.9651
H35_2 H 0.9716 0.8419 0.9133
O28_2 O 0.4438(3) 0.3918(3) 0.7027(6)
N5_2 N 0.6633(4) 0.2357(4) 0.8652(6)
N7_2 N 0.9930(5) 0.7290(8) 0.9588(9)
O4_2 O 0.2214(3) 0.2479(3) 0.0991(3)
O5_3 O 0.1642(3) 0.2531(4) 0.4386(5)
O6_3 O 0.1363(6) 0.3223(5) 0.3139(7)
C1_3 C 0.2773(3) 0.0009(4) 0.4095(4)
C2_3 C 0.2529(3) 0.0788(4) 0.3548(4)
C3_3 C 0.2607(3) 0.0946(3) 0.2758(4)
H1_3 H 0.2814 0.0564 0.2557
C4_3 C 0.2378(3) 0.1666(4) 0.2268(4)
C5_3 C 0.2057(3) 0.2228(4) 0.2557(5)
H2_3 H 0.1895 0.2710 0.2232
C6_3 C 0.1982(4) 0.2061(4) 0.3333(5)
C7_3 C 0.2221(4) 0.1356(4) 0.3841(5)
H3_3 H 0.2175 0.1267 0.4374
C8_3 C 0.2463(3) 0.1827(4) 0.1422(4)
H6_3 H 0.3919 0.0302 0.6686
C16_3 C 0.4402(10) 0.0232(12) 0.8434(13)
H10_3 H 0.4371 0.0750 0.8156
H11_3 H 0.4042 0.0188 0.8609
H12_3 H 0.4861 0.0170 0.8990
N1_3 N 0.1633(4) 0.2643(4) 0.3652(6)
N2_4 N 0.0000 0.0742(5) 0.2500
O28_3 O 0.0562(3) 0.1082(3) 0.2973(6)
O1_3 O 0.2759(3) 0.9958(3) 0.4853(3)
O2_3 O 0.2942(3) 0.9433(3) 0.3750(3)
O7_3 O 0.1861(2) 0.8603(3) 0.4134(3)
O9_3 O 0.4031(3) 0.9274(4) 0.6250(5)
O10_3 O 0.4136(4) 0.8383(5) 0.4889(6)
C9_3 C 0.1300(3) 0.8195(4) 0.3758(4)
C10_4 C 0.0000 0.8227(5) 0.2500
H4_4 H 0.0000 0.7669 0.2500
C11_3 C 0.0624(3) 0.8636(3) 0.3101(4)
C12_3 C 0.0624(3) 0.9467(4) 0.3082(4)
H5_3 H 0.1040 0.9752 0.3457
C13_4 C 0.0000 0.9863(5) 0.2500
C14_3 C 0.4068(6) 0.9777(6) 0.6876(7)
C15_3 C 0.4376(10) 0.8717(11) 0.8155(19)
H7_3 H 0.4238 0.8327 0.7657
H8_3 H 0.4863 0.8629 0.8634
H9_3 H 0.4079 0.8666 0.8433
C17_3 C 0.4387(5) 0.7777(8) 0.4708(7)
H13_3 H 0.4146 0.7301 0.4651
C18_2 C 0.5354(13) 0.8374(13) 0.471(2)
H14_2 H 0.5681 0.8452 0.5376
H15_2 H 0.5613 0.8287 0.4382
H16_2 H 0.5060 0.8840 0.4455
C19_2 C 0.5109(11) 0.6944(14) 0.434(2)
H17_3 H 0.4716 0.6581 0.4133
H18_2 H 0.5208 0.7020 0.3827
H19_2 H 0.5520 0.6725 0.4879
N3_3 N 0.4293(7) 0.9592(8) 0.7724(8)
N4_3 N 0.4930(5) 0.7710(8) 0.4588(9)
O19_2 O 0.2786(3) 0.7479(3) 0.4009(3)
O11_3 O 0.9438(3) 0.1082(3) 0.2027(6)
N2_5 N 1.0000 0.0742(5) 0.2500
O17_2 O 0.7786(3) 0.2479(3) 0.4009(3)
O20_3 O 0.8358(3) 0.2531(4) 0.0614(5)
O21_3 O 0.8637(6) 0.3223(5) 0.1861(7)
C20_3 C 0.7227(3) 0.0009(4) 0.0905(4)
C21_3 C 0.7471(3) 0.0788(4) 0.1452(4)
C22_3 C 0.7393(3) 0.0946(3) 0.2242(4)
H20_3 H 0.7186 0.0564 0.2443
C23_3 C 0.7622(3) 0.1666(4) 0.2732(4)
C24_3 C 0.7943(3) 0.2228(4) 0.2443(5)
H21_3 H 0.8105 0.2710 0.2768
C25_3 C 0.8018(4) 0.2061(4) 0.1667(5)
C26_3 C 0.7779(4) 0.1356(4) 0.1159(5)
H22_3 H 0.7825 0.1267 0.0626
C27_3 C 0.7537(3) 0.1827(4) 0.3578(4)
N5_3 N 0.8367(4) 0.2643(4) 0.1348(6)
C10_5 C 1.0000 0.8227(5) 0.2500
H4_5 H 1.0000 0.7669 0.2500
C13_5 C 1.0000 0.9863(5) 0.2500
O12_3 O 0.7241(3) 0.9958(3) 0.0147(3)
O13_3 O 0.7058(3) 0.9433(3) 0.1250(3)
O18_2 O 0.7214(3) 0.7479(3) 0.0991(3)
O22_3 O 0.8139(2) 0.8603(3) 0.0866(3)
O27_3 O 0.5864(4) 0.8383(5) 0.0111(6)
C28_3 C 0.8700(3) 0.8195(4) 0.1242(4)
C29_3 C 0.9376(3) 0.8636(3) 0.1899(4)
C30_3 C 0.9376(3) 0.9467(4) 0.1918(4)
H23_3 H 0.8960 0.9752 0.1543
C34_3 C 0.5613(5) 0.7777(8) 0.0292(7)
H31_3 H 0.5854 0.7301 0.0349
C35_2 C 0.4646(13) 0.8374(13) 0.029(2)
H33_2 H 0.4387 0.8287 0.0618
H34_2 H 0.4940 0.8840 0.0545
C36_2 C 0.4891(11) 0.6944(14) 0.066(2)
H35_3 H 0.5284 0.6581 0.0867
H36_2 H 0.4792 0.7020 0.1173
H37_2 H 0.4480 0.6725 0.0121
N7_3 N 0.5070(5) 0.7710(8) 0.0412(9)
O26_3 O 0.5969(3) 0.9274(4) 0.8750(5)
C31_3 C 0.5932(6) 0.9777(6) 0.8124(7)
C32_3 C 0.5624(10) 0.8717(11) 0.6845(19)
H25_3 H 0.5762 0.8327 0.7343
H26_3 H 0.5137 0.8629 0.6366
H27_3 H 0.5921 0.8666 0.6567
H32_2 H 0.4319 0.8452 0.9624
N6_3 N 0.5707(7) 0.9592(8) 0.7276(8)
O1_4 O 0.7759(3) 0.4958(3) 0.4853(3)
O2_4 O 0.7942(3) 0.4433(3) 0.3750(3)
O5_4 O 0.6642(3) 0.7531(4) 0.4386(5)
O6_4 O 0.6363(6) 0.8223(5) 0.3139(7)
O7_4 O 0.6861(2) 0.3603(3) 0.4134(3)
O9_4 O 0.9031(3) 0.4274(4) 0.6250(5)
O10_4 O 0.9136(4) 0.3383(5) 0.4889(6)
C1_4 C 0.7773(3) 0.5009(4) 0.4095(4)
C2_4 C 0.7529(3) 0.5788(4) 0.3548(4)
C3_4 C 0.7607(3) 0.5946(3) 0.2758(4)
H1_4 H 0.7814 0.5564 0.2557
C4_4 C 0.7378(3) 0.6666(4) 0.2268(4)
C5_4 C 0.7057(3) 0.7228(4) 0.2557(5)
H2_4 H 0.6895 0.7710 0.2232
C6_4 C 0.6982(4) 0.7061(4) 0.3333(5)
C7_4 C 0.7221(4) 0.6356(4) 0.3841(5)
H3_4 H 0.7175 0.6267 0.4374
C8_4 C 0.7463(3) 0.6827(4) 0.1422(4)
C9_4 C 0.6300(3) 0.3195(4) 0.3758(4)
C10_6 C 0.5000 0.3227(5) 0.2500
H4_6 H 0.5000 0.2669 0.2500
C11_4 C 0.5624(3) 0.3636(3) 0.3101(4)
C12_4 C 0.5624(3) 0.4467(4) 0.3082(4)
H5_4 H 0.6040 0.4752 0.3457
C13_6 C 0.5000 0.4863(5) 0.2500
C14_4 C 0.9068(6) 0.4777(6) 0.6876(7)
H6_4 H 0.8919 0.5302 0.6686
C15_4 C 0.9376(10) 0.3717(11) 0.8155(19)
H7_4 H 0.9238 0.3327 0.7657
H8_4 H 0.9863 0.3629 0.8634
H9_4 H 0.9079 0.3666 0.8433
C16_4 C 0.9402(10) 0.5232(12) 0.8434(13)
H10_4 H 0.9371 0.5750 0.8156
H11_4 H 0.9042 0.5188 0.8609
H12_4 H 0.9861 0.5170 0.8990
C17_4 C 0.9387(5) 0.2777(8) 0.4708(7)
H13_4 H 0.9146 0.2301 0.4651
H17_4 H 0.9716 0.1581 0.4133
O11_4 O 0.4438(3) 0.6082(3) 0.2027(6)
N1_4 N 0.6633(4) 0.7643(4) 0.3652(6)
N2_6 N 0.5000 0.5742(5) 0.2500
N3_4 N 0.9293(7) 0.4592(8) 0.7724(8)
N4_4 N 0.9930(5) 0.2710(8) 0.4588(9)
O12_4 O 0.2241(3) 0.4958(3) 0.0147(3)
O13_4 O 0.2058(3) 0.4433(3) 0.1250(3)
O20_4 O 0.3358(3) 0.7531(4) 0.0614(5)
O21_4 O 0.3637(6) 0.8223(5) 0.1861(7)
O22_4 O 0.3139(2) 0.3603(3) 0.0866(3)
O27_4 O 0.0864(4) 0.3383(5) 0.0111(6)
C20_4 C 0.2227(3) 0.5009(4) 0.0905(4)
C21_4 C 0.2471(3) 0.5788(4) 0.1452(4)
C22_4 C 0.2393(3) 0.5946(3) 0.2242(4)
H20_4 H 0.2186 0.5564 0.2443
C23_4 C 0.2622(3) 0.6666(4) 0.2732(4)
C24_4 C 0.2943(3) 0.7228(4) 0.2443(5)
H21_4 H 0.3105 0.7710 0.2768
C25_4 C 0.3018(4) 0.7061(4) 0.1667(5)
C26_4 C 0.2779(4) 0.6356(4) 0.1159(5)
H22_4 H 0.2825 0.6267 0.0626
C27_4 C 0.2537(3) 0.6827(4) 0.3578(4)
C28_4 C 0.3700(3) 0.3195(4) 0.1242(4)
C29_4 C 0.4376(3) 0.3636(3) 0.1899(4)
C30_4 C 0.4376(3) 0.4467(4) 0.1918(4)
H23_4 H 0.3960 0.4752 0.1543
C34_4 C 0.0613(5) 0.2777(8) 0.0292(7)
H31_4 H 0.0854 0.2301 0.0349
H35_4 H 0.0284 0.1581 0.0867
O28_4 O 0.5562(3) 0.6082(3) 0.2973(6)
N5_4 N 0.3367(4) 0.7643(4) 0.1348(6)
N7_4 N 0.0070(5) 0.2710(8) 0.0412(9)
O26_4 O 0.0969(3) 0.4274(4) 0.8750(5)
C31_4 C 0.0932(6) 0.4777(6) 0.8124(7)
H24_2 H 0.1081 0.5302 0.8314
C32_4 C 0.0624(10) 0.3717(11) 0.6845(19)
H25_4 H 0.0762 0.3327 0.7343
H26_4 H 0.0137 0.3629 0.6366
H27_4 H 0.0921 0.3666 0.6567
C33_2 C 0.0598(10) 0.5232(12) 0.6566(13)
H28_2 H 0.0629 0.5750 0.6844
H29_2 H 0.0958 0.5188 0.6391
H30_2 H 0.0139 0.5170 0.6010
N6_4 N 0.0707(7) 0.4592(8) 0.7276(8)
H24_3 H 0.3919 0.9698 0.1686
C33_3 C 0.4402(10) 0.9768(12) 0.3434(13)
H28_3 H 0.4371 0.9250 0.3156
H29_3 H 0.4042 0.9812 0.3609
H30_3 H 0.4861 0.9830 0.3990
H32_3 H 0.0681 0.6548 0.0376
C35_3 C 0.0354(13) 0.6626(13) 0.971(2)
H33_3 H 0.0613 0.6713 0.9382
H34_3 H 0.0060 0.6160 0.9455
C36_3 C 0.0109(11) 0.8056(14) 0.934(2)
H36_3 H 0.0208 0.7980 0.8827
H37_3 H 0.0520 0.8275 0.9879
C18_3 C 0.9646(13) 0.6626(13) 0.529(2)
H14_3 H 0.9319 0.6548 0.4624
H15_3 H 0.9387 0.6713 0.5618
H16_3 H 0.9940 0.6160 0.5545
C19_3 C 0.9891(11) 0.8056(14) 0.566(2)
H18_3 H 0.9792 0.7980 0.6173
H19_3 H 0.9480 0.8275 0.5121
H24_4 H 0.6081 0.0302 0.8314
C33_4 C 0.5598(10) 0.0232(12) 0.6566(13)
H28_4 H 0.5629 0.0750 0.6844
H29_4 H 0.5958 0.0188 0.6391
H30_4 H 0.5139 0.0170 0.6010
C18_4 C 0.0354(13) 0.3374(13) 0.471(2)
H14_4 H 0.0681 0.3452 0.5376
H15_4 H 0.0613 0.3287 0.4382
H16_4 H 0.0060 0.3840 0.4455
C19_4 C 0.0109(11) 0.1944(14) 0.434(2)
H18_4 H 0.0208 0.2020 0.3827
H19_4 H 0.0520 0.1725 0.4879
C35_4 C 0.9646(13) 0.3374(13) 0.029(2)
H33_4 H 0.9387 0.3287 0.0618
H34_4 H 0.9940 0.3840 0.0545
C36_4 C 0.9891(11) 0.1944(14) 0.066(2)
H36_4 H 0.9792 0.2020 0.1173
H37_4 H 0.9480 0.1725 0.0121
H32_4 H 0.9319 0.3452 0.9624
loop_
_geom_bond_atom_site_label_1
_geom_bond_atom_site_label_2
_geom_bond_site_symmetry_1
_geom_bond_site_symmetry_2
O15 Dy2 1_555 1_555
O25 Dy2 1_555 1_555
O26 Dy2 1_555 1_555
C31 O26 1_555 1_555
C32 H25 1_555 1_555
H26 C32 1_555 1_555
H27 C32 1_555 1_555
N6 C31 1_555 1_555
C32 N6 1_555 1_555
C10 H4 1_555 1_555
Dy8 O23 1_555 1_555
O23 C28 1_555 1_555
C28 O22 1_555 1_555
C29 C10 1_555 1_555
C30 C13 1_555 1_555
H23 C30 1_555 1_555
C34 O27 1_555 1_555
H31 C34 1_555 1_555
H33 C35 1_555 1_555
H34 C35 1_555 1_555
C36 H35 1_555 1_555
H36 C36 1_555 1_555
H37 C36 1_555 1_555
N7 C34 1_555 1_555
C28 C29 1_555 1_555
C29 C30 1_555 1_555
C35 N7 1_555 1_555
C36 N7 1_555 1_555
O11 N2 1_555 1_555
Dy3 O17 1_555 1_555
Dy5 O14 1_555 1_555
O14 C27 1_555 1_555
O17 C27 1_555 1_555
O20 N5 1_555 1_555
O21 N5 1_555 1_555
C21 C20 1_555 1_555
C22 C21 1_555 1_555
H20 C22 1_555 1_555
C23 C22 1_555 1_555
C24 C23 1_555 1_555
H21 C24 1_555 1_555
C25 C24 1_555 1_555
C26 C21 1_555 1_555
H22 C26 1_555 1_555
C27 C23 1_555 1_555
N5 C25 1_555 1_555
C25 C26 1_555 1_555
Dy1 O1 1_555 1_555
O2 Dy1 1_555 1_555
O7 Dy1 1_555 1_555
O8 C9 1_555 1_555
O9 Dy1 1_555 1_555
O10 Dy1 1_555 1_555
C9 O7 1_555 1_555
C10_2 H4_2 1_555 1_555
C11 C9 1_555 1_555
C12 C11 1_555 1_555
H5 C12 1_555 1_555
C13_2 C12 1_555 1_555
C14 O9 1_555 1_555
C15 H7 1_555 1_555
H8 C15 1_555 1_555
H9 C15 1_555 1_555
C17 O10 1_555 1_555
H13 C17 1_555 1_555
C18 H14 1_555 1_555
H15 C18 1_555 1_555
H16 C18 1_555 1_555
C19 H17 1_555 1_555
H18 C19 1_555 1_555
H19 C19 1_555 1_555
N3 C14 1_555 1_555
N4 C17 1_555 1_555
Dy7 O8 1_555 1_555
O16 Dy1 1_555 1_555
O19 Dy1 1_555 1_555
O24 Dy1 1_555 1_555
C10_2 C11 1_555 1_555
C15 N3 1_555 1_555
C18 N4 1_555 1_555
C19 N4 1_555 1_555
O3 C8 1_555 1_555
O4 C8 1_555 1_555
O5 N1 1_555 1_555
O6 N1 1_555 1_555
C2 C1 1_555 1_555
C3 C2 1_555 1_555
H1 C3 1_555 1_555
C4 C3 1_555 1_555
C5 C4 1_555 1_555
H2 C5 1_555 1_555
C6 C5 1_555 1_555
C7 C2 1_555 1_555
H3 C7 1_555 1_555
C8 C4 1_555 1_555
C16 H10 1_555 1_555
H11 C16 1_555 1_555
H12 C16 1_555 1_555
N1 C6 1_555 1_555
Dy6 O3 1_555 1_555
O28 N2_2 1_555 1_555
C6 C7 1_555 1_555
O15_2 Dy4 1_555 1_555
O25_2 Dy4 1_555 1_555
O26_2 Dy4 1_555 1_555
C31_2 O26_2 1_555 1_555
H24 C31_2 1_555 1_555
C32_2 H25_2 1_555 1_555
H26_2 C32_2 1_555 1_555
H27_2 C32_2 1_555 1_555
C33 H28 1_555 1_555
H29 C33 1_555 1_555
H30 C33 1_555 1_555
N6_2 C31_2 1_555 1_555
C32_2 N6_2 1_555 1_555
C33 N6_2 1_555 1_555
Dy3 O1_2 1_555 1_555
O1_2 C1_2 1_555 1_555
O2_2 Dy3 1_555 1_555
O3_2 C8_2 1_555 1_555
O18 C8_2 1_555 1_555
O5_2 N1_2 1_555 1_555
O6_2 N1_2 1_555 1_555
O7_2 Dy3 1_555 1_555
O8_2 C9_2 1_555 1_555
O9_2 Dy3 1_555 1_555
O10_2 Dy3 1_555 1_555
C1_2 O2_2 1_555 1_555
C2_2 C1_2 1_555 1_555
C3_2 C2_2 1_555 1_555
H1_2 C3_2 1_555 1_555
C4_2 C3_2 1_555 1_555
C5_2 C4_2 1_555 1_555
H2_2 C5_2 1_555 1_555
C6_2 C5_2 1_555 1_555
C7_2 C2_2 1_555 1_555
H3_2 C7_2 1_555 1_555
C8_2 C4_2 1_555 1_555
C9_2 O7_2 1_555 1_555
C10_3 H4_3 1_555 1_555
C11_2 C9_2 1_555 1_555
C12_2 C11_2 1_555 1_555
H5_2 C12_2 1_555 1_555
C13_3 C12_2 1_555 1_555
C14_2 O9_2 1_555 1_555
H6_2 C14_2 1_555 1_555
C15_2 H7_2 1_555 1_555
H8_2 C15_2 1_555 1_555
H9_2 C15_2 1_555 1_555
C16_2 H10_2 1_555 1_555
H11_2 C16_2 1_555 1_555
H12_2 C16_2 1_555 1_555
C17_2 O10_2 1_555 1_555
H13_2 C17_2 1_555 1_555
O11_2 N2_3 1_555 1_555
N1_2 C6_2 1_555 1_555
N2_3 C13_3 1_555 1_555
N3_2 C14_2 1_555 1_555
N4_2 C17_2 1_555 1_555
Dy7 O14_2 1_555 1_555
Dy8 O3_2 1_555 1_555
Dy5 O8_2 1_555 1_555
Dy6 O23_2 1_555 1_555
O12_2 C20_2 1_555 1_555
O14_2 C27_2 1_555 1_555
O16_2 Dy3 1_555 1_555
O19 C27_2 1_555 1_555
O20_2 N5_2 1_555 1_555
O21_2 N5_2 1_555 1_555
O23_2 C28_2 1_555 1_555
O24_2 Dy3 1_555 1_555
C20_2 O13_2 1_555 1_555
C21_2 C20_2 1_555 1_555
C22_2 C21_2 1_555 1_555
H20_2 C22_2 1_555 1_555
C23_2 C22_2 1_555 1_555
C24_2 C23_2 1_555 1_555
H21_2 C24_2 1_555 1_555
C25_2 C24_2 1_555 1_555
C26_2 C21_2 1_555 1_555
H22_2 C26_2 1_555 1_555
C27_2 C23_2 1_555 1_555
C28_2 O22_2 1_555 1_555
C29_2 C10_3 1_555 1_555
C30_2 C13_3 1_555 1_555
H23_2 C30_2 1_555 1_555
C34_2 O27_2 1_555 1_555
H31_2 C34_2 1_555 1_555
O28_2 N2_3 1_555 1_555
N5_2 C25_2 1_555 1_555
N7_2 C34_2 1_555 1_555
C6_2 C7_2 1_555 1_555
C10_3 C11_2 1_555 1_555
C15_2 N3_2 1_555 1_555
C16_2 N3_2 1_555 1_555
C25_2 C26_2 1_555 1_555
C28_2 C29_2 1_555 1_555
C29_2 C30_2 1_555 1_555
O15 C8_3 1_555 1_555
O4_2 C8_3 1_555 1_555
O5_3 N1_3 1_555 1_555
O6_3 N1_3 1_555 1_555
C2_3 C1_3 1_555 1_555
C3_3 C2_3 1_555 1_555
H1_3 C3_3 1_555 1_555
C4_3 C3_3 1_555 1_555
C5_3 C4_3 1_555 1_555
H2_3 C5_3 1_555 1_555
C6_3 C5_3 1_555 1_555
C7_3 C2_3 1_555 1_555
H3_3 C7_3 1_555 1_555
C8_3 C4_3 1_555 1_555
C16_3 H10_3 1_555 1_555
H11_3 C16_3 1_555 1_555
H12_3 C16_3 1_555 1_555
N1_3 C6_3 1_555 1_555
O28_3 N2_4 1_555 1_555
C6_3 C7_3 1_555 1_555
Dy5 O1_3 1_555 1_555
O2_3 Dy5 1_555 1_555
O7_3 Dy5 1_555 1_555
O24_2 C9_3 1_555 1_555
O9_3 Dy5 1_555 1_555
O10_3 Dy5 1_555 1_555
C9_3 O7_3 1_555 1_555
C10_4 H4_4 1_555 1_555
C11_3 C9_3 1_555 1_555
C12_3 C11_3 1_555 1_555
H5_3 C12_3 1_555 1_555
C13_4 C12_3 1_555 1_555
C14_3 O9_3 1_555 1_555
C15_3 H7_3 1_555 1_555
H8_3 C15_3 1_555 1_555
H9_3 C15_3 1_555 1_555
C17_3 O10_3 1_555 1_555
H13_3 C17_3 1_555 1_555
C18_2 H14_2 1_555 1_555
H15_2 C18_2 1_555 1_555
H16_2 C18_2 1_555 1_555
C19_2 H17_3 1_555 1_555
H18_2 C19_2 1_555 1_555
H19_2 C19_2 1_555 1_555
N3_3 C14_3 1_555 1_555
N4_3 C17_3 1_555 1_555
O19_2 Dy5 1_555 1_555
C10_4 C11_3 1_555 1_555
C15_3 N3_3 1_555 1_555
C18_2 N4_3 1_555 1_555
C19_2 N4_3 1_555 1_555
O11_3 N2_5 1_555 1_555
Dy7 O17_2 1_555 1_555
O16 C27_3 1_555 1_555
O17_2 C27_3 1_555 1_555
O20_3 N5_3 1_555 1_555
O21_3 N5_3 1_555 1_555
C21_3 C20_3 1_555 1_555
C22_3 C21_3 1_555 1_555
H20_3 C22_3 1_555 1_555
C23_3 C22_3 1_555 1_555
C24_3 C23_3 1_555 1_555
H21_3 C24_3 1_555 1_555
C25_3 C24_3 1_555 1_555
C26_3 C21_3 1_555 1_555
H22_3 C26_3 1_555 1_555
C27_3 C23_3 1_555 1_555
N5_3 C25_3 1_555 1_555
C25_3 C26_3 1_555 1_555
C10_5 H4_5 1_555 1_555
O25_2 C28_3 1_555 1_555
C28_3 O22_3 1_555 1_555
C29_3 C10_5 1_555 1_555
C30_3 C13_5 1_555 1_555
H23_3 C30_3 1_555 1_555
C34_3 O27_3 1_555 1_555
H31_3 C34_3 1_555 1_555
H33_2 C35_2 1_555 1_555
H34_2 C35_2 1_555 1_555
C36_2 H35_3 1_555 1_555
H36_2 C36_2 1_555 1_555
H37_2 C36_2 1_555 1_555
N7_3 C34_3 1_555 1_555
C28_3 C29_3 1_555 1_555
C29_3 C30_3 1_555 1_555
C35_2 N7_3 1_555 1_555
C36_2 N7_3 1_555 1_555
O26_3 Dy6 1_555 1_555
C31_3 O26_3 1_555 1_555
C32_3 H25_3 1_555 1_555
H26_3 C32_3 1_555 1_555
H27_3 C32_3 1_555 1_555
N6_3 C31_3 1_555 1_555
C32_3 N6_3 1_555 1_555
Dy7 O1_4 1_555 1_555
O1_4 C1_4 1_555 1_555
O2_4 Dy7 1_555 1_555
O15_2 C8_4 1_555 1_555
O18_2 C8_4 1_555 1_555
O5_4 N1_4 1_555 1_555
O6_4 N1_4 1_555 1_555
O7_4 Dy7 1_555 1_555
O24 C9_4 1_555 1_555
O9_4 Dy7 1_555 1_555
O10_4 Dy7 1_555 1_555
C1_4 O2_4 1_555 1_555
C2_4 C1_4 1_555 1_555
C3_4 C2_4 1_555 1_555
H1_4 C3_4 1_555 1_555
C4_4 C3_4 1_555 1_555
C5_4 C4_4 1_555 1_555
H2_4 C5_4 1_555 1_555
C6_4 C5_4 1_555 1_555
C7_4 C2_4 1_555 1_555
H3_4 C7_4 1_555 1_555
C8_4 C4_4 1_555 1_555
C9_4 O7_4 1_555 1_555
C10_6 H4_6 1_555 1_555
C11_4 C9_4 1_555 1_555
C12_4 C11_4 1_555 1_555
H5_4 C12_4 1_555 1_555
C13_6 C12_4 1_555 1_555
C14_4 O9_4 1_555 1_555
H6_4 C14_4 1_555 1_555
C15_4 H7_4 1_555 1_555
H8_4 C15_4 1_555 1_555
H9_4 C15_4 1_555 1_555
C16_4 H10_4 1_555 1_555
H11_4 C16_4 1_555 1_555
H12_4 C16_4 1_555 1_555
C17_4 O10_4 1_555 1_555
H13_4 C17_4 1_555 1_555
O11_4 N2_6 1_555 1_555
N1_4 C6_4 1_555 1_555
N2_6 C13_6 1_555 1_555
N3_4 C14_4 1_555 1_555
N4_4 C17_4 1_555 1_555
O12_4 C20_4 1_555 1_555
O16_2 C27_4 1_555 1_555
O19_2 C27_4 1_555 1_555
O20_4 N5_4 1_555 1_555
O21_4 N5_4 1_555 1_555
O25 C28_4 1_555 1_555
C20_4 O13_4 1_555 1_555
C21_4 C20_4 1_555 1_555
C22_4 C21_4 1_555 1_555
H20_4 C22_4 1_555 1_555
C23_4 C22_4 1_555 1_555
C24_4 C23_4 1_555 1_555
H21_4 C24_4 1_555 1_555
C25_4 C24_4 1_555 1_555
C26_4 C21_4 1_555 1_555
H22_4 C26_4 1_555 1_555
C27_4 C23_4 1_555 1_555
C28_4 O22_4 1_555 1_555
C29_4 C10_6 1_555 1_555
C30_4 C13_6 1_555 1_555
H23_4 C30_4 1_555 1_555
C34_4 O27_4 1_555 1_555
H31_4 C34_4 1_555 1_555
O28_4 N2_6 1_555 1_555
N5_4 C25_4 1_555 1_555
N7_4 C34_4 1_555 1_555
C6_4 C7_4 1_555 1_555
C10_6 C11_4 1_555 1_555
C15_4 N3_4 1_555 1_555
C16_4 N3_4 1_555 1_555
C25_4 C26_4 1_555 1_555
C28_4 C29_4 1_555 1_555
C29_4 C30_4 1_555 1_555
O26_4 Dy8 1_555 1_555
C31_4 O26_4 1_555 1_555
H24_2 C31_4 1_555 1_555
C32_4 H25_4 1_555 1_555
H26_4 C32_4 1_555 1_555
H27_4 C32_4 1_555 1_555
C33_2 H28_2 1_555 1_555
H29_2 C33_2 1_555 1_555
H30_2 C33_2 1_555 1_555
N6_4 C31_4 1_555 1_555
C32_4 N6_4 1_555 1_555
C33_2 N6_4 1_555 1_555
C33_3 H28_3 1_555 1_555
H29_3 C33_3 1_555 1_555
H30_3 C33_3 1_555 1_555
H33_3 C35_3 1_555 1_555
H34_3 C35_3 1_555 1_555
H36_3 C36_3 1_555 1_555
H37_3 C36_3 1_555 1_555
C18_3 H14_3 1_555 1_555
H15_3 C18_3 1_555 1_555
H16_3 C18_3 1_555 1_555
H18_3 C19_3 1_555 1_555
H19_3 C19_3 1_555 1_555
C33_4 H28_4 1_555 1_555
H29_4 C33_4 1_555 1_555
H30_4 C33_4 1_555 1_555
C18_4 H14_4 1_555 1_555
H15_4 C18_4 1_555 1_555
H16_4 C18_4 1_555 1_555
H18_4 C19_4 1_555 1_555
H19_4 C19_4 1_555 1_555
H33_4 C35_4 1_555 1_555
H34_4 C35_4 1_555 1_555
H36_4 C36_4 1_555 1_555
H37_4 C36_4 1_555 1_555

#END
