
###############################################################################
#
# This file contains modified crystal structure data generated from the
# MOF subset of the Cambridge Structural Database (CSD) v543 
# hosted by the Cambridge Crystallographic Data Centre (CCDC).
#
# This work is licensed under the Creative Commons
# Attribution-NonCommercial-ShareAlike 4.0 International License.
# To view a copy of this license, visit
# http://creativecommons.org/licenses/by-nc-sa/4.0/
# or send a letter to
# Creative Commons, PO Box 1866, Mountain View, CA 94042, USA.
#
# CIF created using the CSD Python API on 29 September 2022
# The structure has been converted into the P1 space group
# The structure has a 3D framework
# The original CSD entry XUMVEH is in the monoclinic crystal system
# The framework has been calculated to contain at least 10.0% void space
# The void calculation uses a probe of radius 1.32A, grid spacing 0.4
#
###############################################################################

data_XUMVEH
_chemical_formula_moiety         '(C148 H150 N30 Nd8 O88)n'
_symmetry_cell_setting           triclinic
_symmetry_space_group_name_H-M   'P 1'
_symmetry_Int_Tables_number      1
_space_group_name_Hall           'P 1'
loop_
_symmetry_equiv_pos_site_id
_symmetry_equiv_pos_as_xyz
1 x,y,z
_cell_length_a                   21.854(3)
_cell_length_b                   17.034(2)
_cell_length_c                   16.445(2)
_cell_angle_alpha                90
_cell_angle_beta                 119.559(2)
_cell_angle_gamma                90
_cell_volume                     5325.06
loop_
_atom_site_label
_atom_site_type_symbol
_atom_site_fract_x
_atom_site_fract_y
_atom_site_fract_z
Nd2 Nd 0.309959(11) 0.643695(13) 0.000647(15)
O15 O 0.27721(16) 0.62982(18) 0.1225(2)
O24 O 0.37678(15) 0.74855(17) 0.1105(2)
O28 O 0.40350(15) 0.5690(2) 0.1246(2)
N7 N 0.4250(2) 0.5463(3) 0.2717(3)
H29 H 0.5842 0.6822 0.0054
C34 C 0.4093(3) 0.5243(3) 0.1879(4)
H31 H 0.4017 0.4711 0.1741
C35 C 0.4352(3) 0.4907(4) 0.3442(5)
H32 H 0.4224 0.4390 0.3178
H33 H 0.4063 0.5053 0.3706
H34 H 0.4837 0.4909 0.3923
C36 C 0.4355(3) 0.6284(3) 0.2988(4)
H35 H 0.4272 0.6601 0.2460
H36 H 0.4830 0.6361 0.3482
H37 H 0.4035 0.6434 0.3201
O9 O 0.05633(18) 0.3963(2) 0.7938(3)
N2 N 0.0000 0.4308(3) 0.7500
C9 C 0.0000 0.6773(4) 0.7500
H4 H 0.0000 0.7319 0.7500
C12 C 0.0000 0.5171(3) 0.7500
Nd3 Nd 0.190041(11) 0.143695(13) 0.499353(15)
Nd5 Nd 0.309959(11) 0.356305(13) 0.500647(15)
Nd8 Nd 0.190041(11) 0.856305(13) 0.999353(15)
O12 O 0.27106(17) 0.50048(18) 0.9806(2)
O13 O 0.29684(17) 0.54799(18) 0.8768(2)
O14 O 0.27721(16) 0.37018(18) 0.6225(2)
O17 O 0.22304(16) 0.25450(19) 0.5995(2)
O18 O 0.27696(16) 0.75450(19) 0.9005(2)
O20 O 0.1283(3) 0.1825(3) 0.8040(4)
O21 O 0.1630(2) 0.2438(2) 0.9332(3)
O22 O 0.12322(15) 0.75145(17) 0.8895(2)
O25 O 0.18401(14) 0.64100(18) 0.9109(2)
O27 O 0.41405(17) 0.6679(2) 0.9796(3)
N5 N 0.1592(2) 0.2354(3) 0.8579(4)
N6 N 0.4947(2) 0.7402(3) 0.9645(4)
C20 C 0.2507(2) 0.4174(3) 0.8529(3)
C21 C 0.2589(2) 0.4032(2) 0.7756(3)
H20 H 0.2808 0.4407 0.7576
C22 C 0.2354(2) 0.3343(3) 0.7250(3)
C23 C 0.2024(2) 0.2789(3) 0.7517(3)
H21 H 0.1856 0.2324 0.7183
C24 C 0.1948(2) 0.2941(3) 0.8291(3)
C25 C 0.2184(2) 0.3615(3) 0.8804(3)
H22 H 0.2130 0.3697 0.9324
C26 C 0.2744(2) 0.4938(3) 0.9072(3)
C27 C 0.2453(2) 0.3188(3) 0.6416(3)
C28 C 0.0615(2) 0.6373(2) 0.8091(3)
C29 C 0.06174(19) 0.5554(2) 0.8084(3)
H23 H 0.1026 0.5274 0.8464
C30 C 0.1286(2) 0.6804(3) 0.8750(3)
C31 C 0.4383(3) 0.7314(3) 0.9731(4)
H24 H 0.4149 0.7767 0.9743
C32 C 0.5165(4) 0.8156(4) 0.9493(7)
H25 H 0.4853 0.8553 0.9495
H26 H 0.5150 0.8158 0.8900
H27 H 0.5635 0.8262 0.9982
C33 C 0.5352(4) 0.6733(4) 0.9628(6)
H28 H 0.5201 0.6269 0.9811
H30 H 0.5280 0.6666 0.9007
Nd4 Nd 0.809959(11) 0.143695(13) 0.000647(15)
Nd1 Nd 0.690041(11) 0.643695(13) 0.499353(15)
O1 O 0.72894(17) 0.50048(18) 0.5194(2)
O2 O 0.70316(17) 0.54799(18) 0.6232(2)
O3 O 0.72279(16) 0.37018(18) 0.8775(2)
O4 O 0.77696(16) 0.25450(19) 0.9005(2)
O5 O 0.8717(3) 0.1825(3) 0.6960(4)
O6 O 0.8370(2) 0.2438(2) 0.5668(3)
O7 O 0.87678(15) 0.75145(17) 0.6105(2)
O8 O 0.81599(14) 0.64100(18) 0.5891(2)
O10 O 0.58595(17) 0.6679(2) 0.5204(3)
O11 O 0.59650(15) 0.5690(2) 0.3754(2)
N1 N 0.8408(2) 0.2354(3) 0.6421(4)
N2_2 N 1.0000 0.4308(3) 0.7500
N3 N 0.5053(2) 0.7402(3) 0.5355(4)
N4 N 0.5750(2) 0.5463(3) 0.2283(3)
C1 C 0.7493(2) 0.4174(3) 0.6471(3)
C2 C 0.7411(2) 0.4032(2) 0.7244(3)
H1 H 0.7192 0.4407 0.7424
C3 C 0.7646(2) 0.3343(3) 0.7750(3)
C4 C 0.7976(2) 0.2789(3) 0.7483(3)
H2 H 0.8144 0.2324 0.7817
C5 C 0.8052(2) 0.2941(3) 0.6709(3)
C6 C 0.7816(2) 0.3615(3) 0.6196(3)
H3 H 0.7870 0.3697 0.5676
C7 C 0.7256(2) 0.4938(3) 0.5928(3)
C8 C 0.7547(2) 0.3188(3) 0.8584(3)
C9_2 C 1.0000 0.6773(4) 0.7500
H4_2 H 1.0000 0.7319 0.7500
C10 C 0.9385(2) 0.6373(2) 0.6909(3)
C11 C 0.93826(19) 0.5554(2) 0.6916(3)
H5 H 0.8974 0.5274 0.6536
C12_2 C 1.0000 0.5171(3) 0.7500
C13 C 0.8714(2) 0.6804(3) 0.6250(3)
C14 C 0.5617(3) 0.7314(3) 0.5269(4)
H6 H 0.5851 0.7767 0.5257
C15 C 0.4835(4) 0.8156(4) 0.5507(7)
H7 H 0.5147 0.8553 0.5505
H8 H 0.4850 0.8158 0.6100
H9 H 0.4365 0.8262 0.5018
C16 C 0.4648(4) 0.6733(4) 0.5372(6)
H10 H 0.4799 0.6269 0.5189
H11 H 0.4158 0.6822 0.4946
H12 H 0.4720 0.6666 0.5993
C17 C 0.5907(3) 0.5243(3) 0.3121(4)
H13 H 0.5983 0.4711 0.3259
C18 C 0.5648(3) 0.4907(4) 0.1558(5)
H14 H 0.5776 0.4390 0.1822
H15 H 0.5937 0.5053 0.1294
H16 H 0.5163 0.4909 0.1077
C19 C 0.5645(3) 0.6284(3) 0.2012(4)
H17 H 0.5728 0.6601 0.2540
H18 H 0.5170 0.6361 0.1518
H19 H 0.5965 0.6434 0.1799
Nd6 Nd 0.690041(11) 0.356305(13) 0.999353(15)
Nd7 Nd 0.809959(11) 0.856305(13) 0.500647(15)
O16 O 0.72279(16) 0.62982(18) 0.3775(2)
O19 O 0.72304(16) 0.75450(19) 0.5995(2)
O23 O 0.62322(15) 0.74855(17) 0.3895(2)
O26 O 0.94367(18) 0.3963(2) 0.7062(3)
O15_2 O 0.77721(16) 0.12982(18) 0.1225(2)
O24_2 O 0.87678(15) 0.24855(17) 0.1105(2)
O28_2 O 0.90350(15) 0.0690(2) 0.1246(2)
N7_2 N 0.9250(2) 0.0463(3) 0.2717(3)
C34_2 C 0.9093(3) 0.0243(3) 0.1879(4)
H33_2 H 0.9063 0.0053 0.3706
C36_2 C 0.9355(3) 0.1284(3) 0.2988(4)
H35_2 H 0.9272 0.1601 0.2460
H36_2 H 0.9830 0.1361 0.3482
H37_2 H 0.9035 0.1434 0.3201
O1_2 O 0.22894(17) 0.00048(18) 0.5194(2)
O2_2 O 0.20316(17) 0.04799(18) 0.6232(2)
O7_2 O 0.37678(15) 0.25145(17) 0.6105(2)
O8_2 O 0.31599(14) 0.14100(18) 0.5891(2)
O10_2 O 0.08595(17) 0.1679(2) 0.5204(3)
O11_2 O 0.09650(15) 0.0690(2) 0.3754(2)
N3_2 N 0.0053(2) 0.2402(3) 0.5355(4)
N4_2 N 0.0750(2) 0.0463(3) 0.2283(3)
C9_3 C 0.5000 0.1773(4) 0.7500
H4_3 H 0.5000 0.2319 0.7500
C10_2 C 0.4385(2) 0.1373(2) 0.6909(3)
C11_2 C 0.43826(19) 0.0554(2) 0.6916(3)
H5_2 H 0.3974 0.0274 0.6536
C12_3 C 0.5000 0.0171(3) 0.7500
C13_2 C 0.3714(2) 0.1804(3) 0.6250(3)
C14_2 C 0.0617(3) 0.2314(3) 0.5269(4)
H6_2 H 0.0851 0.2767 0.5257
H7_2 H 0.0147 0.3553 0.5505
C17_2 C 0.0907(3) 0.0243(3) 0.3121(4)
H15_2 H 0.0937 0.0053 0.1294
C19_2 C 0.0645(3) 0.1284(3) 0.2012(4)
H17_2 H 0.0728 0.1601 0.2540
H18_2 H 0.0170 0.1361 0.1518
H19_2 H 0.0965 0.1434 0.1799
O12_2 O 0.77106(17) 0.00048(18) 0.9806(2)
O13_2 O 0.79684(17) 0.04799(18) 0.8768(2)
O16_2 O 0.22279(16) 0.12982(18) 0.3775(2)
O22_2 O 0.62322(15) 0.25145(17) 0.8895(2)
O23_2 O 0.12322(15) 0.24855(17) 0.3895(2)
O25_2 O 0.68401(14) 0.14100(18) 0.9109(2)
O27_2 O 0.91405(17) 0.1679(2) 0.9796(3)
N6_2 N 0.9947(2) 0.2402(3) 0.9645(4)
C28_2 C 0.5615(2) 0.1373(2) 0.8091(3)
C29_2 C 0.56174(19) 0.0554(2) 0.8084(3)
H23_2 H 0.6026 0.0274 0.8464
C30_2 C 0.6286(2) 0.1804(3) 0.8750(3)
C31_2 C 0.9383(3) 0.2314(3) 0.9731(4)
H24_2 H 0.9149 0.2767 0.9743
H25_2 H 0.9853 0.3553 0.9495
H31_2 H 0.9017 0.9711 0.1741
C35_2 C 0.9352(3) 0.9907(4) 0.3442(5)
H32_2 H 0.9224 0.9390 0.3178
H34_2 H 0.9837 0.9909 0.3923
O3_2 O 0.22279(16) 0.87018(18) 0.8775(2)
O5_2 O 0.3717(3) 0.6825(3) 0.6960(4)
O6_2 O 0.3370(2) 0.7438(2) 0.5668(3)
O9_2 O 0.55633(18) 0.8963(2) 0.7938(3)
N1_2 N 0.3408(2) 0.7354(3) 0.6421(4)
N2_3 N 0.5000 0.9308(3) 0.7500
C1_2 C 0.2493(2) 0.9174(3) 0.6471(3)
C2_2 C 0.2411(2) 0.9032(2) 0.7244(3)
H1_2 H 0.2192 0.9407 0.7424
C3_2 C 0.2646(2) 0.8343(3) 0.7750(3)
C4_2 C 0.2976(2) 0.7789(3) 0.7483(3)
H2_2 H 0.3144 0.7324 0.7817
C5_2 C 0.3052(2) 0.7941(3) 0.6709(3)
C6_2 C 0.2816(2) 0.8615(3) 0.6196(3)
H3_2 H 0.2870 0.8697 0.5676
C7_2 C 0.2256(2) 0.9938(3) 0.5928(3)
C8_2 C 0.2547(2) 0.8188(3) 0.8584(3)
H13_2 H 0.0983 0.9711 0.3259
C18_2 C 0.0648(3) 0.9907(4) 0.1558(5)
H14_2 H 0.0776 0.9390 0.1822
H16_2 H 0.0163 0.9909 0.1077
O14_2 O 0.77721(16) 0.87018(18) 0.6225(2)
O20_2 O 0.6283(3) 0.6825(3) 0.8040(4)
O21_2 O 0.6630(2) 0.7438(2) 0.9332(3)
O26_2 O 0.44367(18) 0.8963(2) 0.7062(3)
N5_2 N 0.6592(2) 0.7354(3) 0.8579(4)
C20_2 C 0.7507(2) 0.9174(3) 0.8529(3)
C21_2 C 0.7589(2) 0.9032(2) 0.7756(3)
H20_2 H 0.7808 0.9407 0.7576
C22_2 C 0.7354(2) 0.8343(3) 0.7250(3)
C23_2 C 0.7024(2) 0.7789(3) 0.7517(3)
H21_2 H 0.6856 0.7324 0.7183
C24_2 C 0.6948(2) 0.7941(3) 0.8291(3)
C25_2 C 0.7184(2) 0.8615(3) 0.8804(3)
H22_2 H 0.7130 0.8697 0.9324
C26_2 C 0.7744(2) 0.9938(3) 0.9072(3)
C27_2 C 0.7453(2) 0.8188(3) 0.6416(3)
O1_3 O 0.27106(17) 0.49952(18) 0.4806(2)
O2_3 O 0.29684(17) 0.45201(18) 0.3768(2)
O4_2 O 0.22304(16) 0.74550(19) 0.0995(2)
O5_3 O 0.1283(3) 0.8175(3) 0.3040(4)
O6_3 O 0.1630(2) 0.7562(2) 0.4332(3)
O8_3 O 0.18401(14) 0.35900(18) 0.4109(2)
O10_3 O 0.41405(17) 0.3321(2) 0.4796(3)
O11_3 O 0.40350(15) 0.4310(2) 0.6246(2)
N1_3 N 0.1592(2) 0.7646(3) 0.3579(4)
N2_4 N -0.0000 0.5692(3) 0.2500
N3_3 N 0.4947(2) 0.2598(3) 0.4645(4)
N4_3 N 0.4250(2) 0.4537(3) 0.7717(3)
C1_3 C 0.2507(2) 0.5826(3) 0.3529(3)
C2_3 C 0.2589(2) 0.5968(2) 0.2756(3)
H1_3 H 0.2808 0.5593 0.2576
C3_3 C 0.2354(2) 0.6657(3) 0.2250(3)
C4_3 C 0.2024(2) 0.7211(3) 0.2517(3)
H2_3 H 0.1856 0.7676 0.2183
C5_3 C 0.1948(2) 0.7059(3) 0.3291(3)
C6_3 C 0.2184(2) 0.6385(3) 0.3804(3)
H3_3 H 0.2130 0.6303 0.4324
C7_3 C 0.2744(2) 0.5062(3) 0.4072(3)
C8_3 C 0.2453(2) 0.6812(3) 0.1416(3)
C9_4 C 0.0000 0.3227(4) 0.2500
H4_4 H 0.0000 0.2681 0.2500
C10_3 C 0.0615(2) 0.3627(2) 0.3091(3)
C11_3 C 0.06174(19) 0.4446(2) 0.3084(3)
H5_3 H 0.1026 0.4726 0.3464
C12_4 C -0.0000 0.4829(3) 0.2500
C13_3 C 0.1286(2) 0.3196(3) 0.3750(3)
C14_3 C 0.4383(3) 0.2686(3) 0.4731(4)
H6_3 H 0.4149 0.2233 0.4743
C15_2 C 0.5165(4) 0.1844(4) 0.4493(7)
H7_3 H 0.4853 0.1447 0.4495
H8_2 H 0.5150 0.1842 0.3900
H9_2 H 0.5635 0.1738 0.4982
C16_2 C 0.5352(4) 0.3267(4) 0.4628(6)
H10_2 H 0.5201 0.3731 0.4811
H11_2 H 0.5842 0.3178 0.5054
H12_2 H 0.5280 0.3334 0.4007
C17_3 C 0.4093(3) 0.4757(3) 0.6879(4)
H13_3 H 0.4017 0.5289 0.6741
C18_3 C 0.4352(3) 0.5093(4) 0.8442(5)
H14_3 H 0.4224 0.5610 0.8178
H15_3 H 0.4063 0.4947 0.8706
H16_3 H 0.4837 0.5091 0.8923
C19_3 C 0.4355(3) 0.3716(3) 0.7988(4)
H17_3 H 0.4272 0.3399 0.7460
H18_3 H 0.4830 0.3639 0.8482
H19_3 H 0.4035 0.3566 0.8201
O19_2 O 0.27696(16) 0.24550(19) 0.4005(2)
O26_3 O 0.05633(18) 0.6037(2) 0.2938(3)
O9_3 O 0.94367(18) 0.6037(2) 0.2062(3)
N2_5 N 1.0000 0.5692(3) 0.2500
C9_5 C 1.0000 0.3227(4) 0.2500
H4_5 H 1.0000 0.2681 0.2500
C12_5 C 1.0000 0.4829(3) 0.2500
O12_3 O 0.72894(17) 0.49952(18) 0.0194(2)
O13_3 O 0.70316(17) 0.45201(18) 0.1232(2)
O17_2 O 0.77696(16) 0.74550(19) 0.4005(2)
O18_2 O 0.72304(16) 0.24550(19) 0.0995(2)
O20_3 O 0.8717(3) 0.8175(3) 0.1960(4)
O21_3 O 0.8370(2) 0.7562(2) 0.0668(3)
O25_3 O 0.81599(14) 0.35900(18) 0.0891(2)
O27_3 O 0.58595(17) 0.3321(2) 0.0204(3)
N5_3 N 0.8408(2) 0.7646(3) 0.1421(4)
N6_3 N 0.5053(2) 0.2598(3) 0.0355(4)
C20_3 C 0.7493(2) 0.5826(3) 0.1471(3)
C21_3 C 0.7411(2) 0.5968(2) 0.2244(3)
H20_3 H 0.7192 0.5593 0.2424
C22_3 C 0.7646(2) 0.6657(3) 0.2750(3)
C23_3 C 0.7976(2) 0.7211(3) 0.2483(3)
H21_3 H 0.8144 0.7676 0.2817
C24_3 C 0.8052(2) 0.7059(3) 0.1709(3)
C25_3 C 0.7816(2) 0.6385(3) 0.1196(3)
H22_3 H 0.7870 0.6303 0.0676
C26_3 C 0.7256(2) 0.5062(3) 0.0928(3)
C27_3 C 0.7547(2) 0.6812(3) 0.3584(3)
C28_3 C 0.9385(2) 0.3627(2) 0.1909(3)
C29_3 C 0.93826(19) 0.4446(2) 0.1916(3)
H23_3 H 0.8974 0.4726 0.1536
C30_3 C 0.8714(2) 0.3196(3) 0.1250(3)
C31_3 C 0.5617(3) 0.2686(3) 0.0269(4)
H24_3 H 0.5851 0.2233 0.0257
C32_2 C 0.4835(4) 0.1844(4) 0.0507(7)
H25_3 H 0.5147 0.1447 0.0505
H26_2 H 0.4850 0.1842 0.1100
H27_2 H 0.4365 0.1738 0.0018
C33_2 C 0.4648(4) 0.3267(4) 0.0372(6)
H28_2 H 0.4799 0.3731 0.0189
H30_2 H 0.4720 0.3334 0.0993
O28_3 O 0.59650(15) 0.4310(2) 0.8754(2)
N7_3 N 0.5750(2) 0.4537(3) 0.7283(3)
H29_2 H 0.4158 0.3178 0.9946
C34_3 C 0.5907(3) 0.4757(3) 0.8121(4)
H31_3 H 0.5983 0.5289 0.8259
C35_3 C 0.5648(3) 0.5093(4) 0.6558(5)
H32_3 H 0.5776 0.5610 0.6822
H33_3 H 0.5937 0.4947 0.6294
H34_3 H 0.5163 0.5091 0.6077
C36_3 C 0.5645(3) 0.3716(3) 0.7012(4)
H35_3 H 0.5728 0.3399 0.7540
H36_3 H 0.5170 0.3639 0.6518
H37_3 H 0.5965 0.3566 0.6799
O5_4 O 0.6283(3) 0.3175(3) 0.3040(4)
O6_4 O 0.6630(2) 0.2562(2) 0.4332(3)
O9_4 O 0.44367(18) 0.1037(2) 0.2062(3)
N1_4 N 0.6592(2) 0.2646(3) 0.3579(4)
N2_6 N 0.5000 0.0692(3) 0.2500
C1_4 C 0.7507(2) 0.0826(3) 0.3529(3)
C2_4 C 0.7589(2) 0.0968(2) 0.2756(3)
H1_4 H 0.7808 0.0593 0.2576
C3_4 C 0.7354(2) 0.1657(3) 0.2250(3)
C4_4 C 0.7024(2) 0.2211(3) 0.2517(3)
H2_4 H 0.6856 0.2676 0.2183
C5_4 C 0.6948(2) 0.2059(3) 0.3291(3)
C6_4 C 0.7184(2) 0.1385(3) 0.3804(3)
H3_4 H 0.7130 0.1303 0.4324
C7_4 C 0.7744(2) 0.0062(3) 0.4072(3)
C8_4 C 0.7453(2) 0.1812(3) 0.1416(3)
H13_4 H 0.9017 0.0289 0.6741
C18_4 C 0.9352(3) 0.0093(4) 0.8442(5)
H14_4 H 0.9224 0.0610 0.8178
H16_4 H 0.9837 0.0091 0.8923
O20_4 O 0.3717(3) 0.3175(3) 0.1960(4)
O21_4 O 0.3370(2) 0.2562(2) 0.0668(3)
O26_4 O 0.55633(18) 0.1037(2) 0.2938(3)
N5_4 N 0.3408(2) 0.2646(3) 0.1421(4)
C20_4 C 0.2493(2) 0.0826(3) 0.1471(3)
C21_4 C 0.2411(2) 0.0968(2) 0.2244(3)
H20_4 H 0.2192 0.0593 0.2424
C22_4 C 0.2646(2) 0.1657(3) 0.2750(3)
C23_4 C 0.2976(2) 0.2211(3) 0.2483(3)
H21_4 H 0.3144 0.2676 0.2817
C24_4 C 0.3052(2) 0.2059(3) 0.1709(3)
C25_4 C 0.2816(2) 0.1385(3) 0.1196(3)
H22_4 H 0.2870 0.1303 0.0676
C26_4 C 0.2256(2) 0.0062(3) 0.0928(3)
C27_4 C 0.2547(2) 0.1812(3) 0.3584(3)
H31_4 H 0.0983 0.0289 0.8259
C35_4 C 0.0648(3) 0.0093(4) 0.6558(5)
H32_4 H 0.0776 0.0610 0.6822
H34_4 H 0.0163 0.0091 0.6077
O1_4 O 0.77106(17) 0.99952(18) 0.4806(2)
O2_4 O 0.79684(17) 0.95201(18) 0.3768(2)
O8_4 O 0.68401(14) 0.85900(18) 0.4109(2)
O10_4 O 0.91405(17) 0.8321(2) 0.4796(3)
O11_4 O 0.90350(15) 0.9310(2) 0.6246(2)
N3_4 N 0.9947(2) 0.7598(3) 0.4645(4)
N4_4 N 0.9250(2) 0.9537(3) 0.7717(3)
C9_6 C 0.5000 0.8227(4) 0.2500
H4_6 H 0.5000 0.7681 0.2500
C10_4 C 0.5615(2) 0.8627(2) 0.3091(3)
C11_4 C 0.56174(19) 0.9446(2) 0.3084(3)
H5_4 H 0.6026 0.9726 0.3464
C12_6 C 0.5000 0.9829(3) 0.2500
C13_4 C 0.6286(2) 0.8196(3) 0.3750(3)
C14_4 C 0.9383(3) 0.7686(3) 0.4731(4)
H6_4 H 0.9149 0.7233 0.4743
H7_4 H 0.9853 0.6447 0.4495
C17_4 C 0.9093(3) 0.9757(3) 0.6879(4)
H15_4 H 0.9063 0.9947 0.8706
C19_4 C 0.9355(3) 0.8716(3) 0.7988(4)
H17_4 H 0.9272 0.8399 0.7460
H18_4 H 0.9830 0.8639 0.8482
H19_4 H 0.9035 0.8566 0.8201
O12_4 O 0.22894(17) 0.99952(18) 0.0194(2)
O13_4 O 0.20316(17) 0.95201(18) 0.1232(2)
O25_4 O 0.31599(14) 0.85900(18) 0.0891(2)
O27_4 O 0.08595(17) 0.8321(2) 0.0204(3)
N6_4 N 0.0053(2) 0.7598(3) 0.0355(4)
C28_4 C 0.4385(2) 0.8627(2) 0.1909(3)
C29_4 C 0.43826(19) 0.9446(2) 0.1916(3)
H23_4 H 0.3974 0.9726 0.1536
C30_4 C 0.3714(2) 0.8196(3) 0.1250(3)
C31_4 C 0.0617(3) 0.7686(3) 0.0269(4)
H24_4 H 0.0851 0.7233 0.0257
H25_4 H 0.0147 0.6447 0.0505
O28_4 O 0.09650(15) 0.9310(2) 0.8754(2)
N7_4 N 0.0750(2) 0.9537(3) 0.7283(3)
C34_4 C 0.0907(3) 0.9757(3) 0.8121(4)
H33_4 H 0.0937 0.9947 0.6294
C36_4 C 0.0645(3) 0.8716(3) 0.7012(4)
H35_4 H 0.0728 0.8399 0.7540
H36_4 H 0.0170 0.8639 0.6518
H37_4 H 0.0965 0.8566 0.6799
H29_3 H 0.0842 0.1822 0.0054
C32_3 C 0.0165(4) 0.3156(4) 0.9493(7)
H26_3 H 0.0150 0.3158 0.8900
H27_3 H 0.0635 0.3262 0.9982
C33_3 C 0.0352(4) 0.1733(4) 0.9628(6)
H28_3 H 0.0201 0.1269 0.9811
H30_3 H 0.0280 0.1666 0.9007
C15_3 C 0.9835(4) 0.3156(4) 0.5507(7)
H8_3 H 0.9850 0.3158 0.6100
H9_3 H 0.9365 0.3262 0.5018
C16_3 C 0.9648(4) 0.1733(4) 0.5372(6)
H10_3 H 0.9799 0.1269 0.5189
H11_3 H 0.9158 0.1822 0.4946
H12_3 H 0.9720 0.1666 0.5993
C15_4 C 0.0165(4) 0.6844(4) 0.4493(7)
H8_4 H 0.0150 0.6842 0.3900
H9_4 H 0.0635 0.6738 0.4982
C16_4 C 0.0352(4) 0.8267(4) 0.4628(6)
H10_4 H 0.0201 0.8731 0.4811
H11_4 H 0.0842 0.8178 0.5054
H12_4 H 0.0280 0.8334 0.4007
C32_4 C 0.9835(4) 0.6844(4) 0.0507(7)
H26_4 H 0.9850 0.6842 0.1100
H27_4 H 0.9365 0.6738 0.0018
C33_4 C 0.9648(4) 0.8267(4) 0.0372(6)
H28_4 H 0.9799 0.8731 0.0189
H30_4 H 0.9720 0.8334 0.0993
H29_4 H 0.9158 0.8178 0.9946
loop_
_geom_bond_atom_site_label_1
_geom_bond_atom_site_label_2
_geom_bond_site_symmetry_1
_geom_bond_site_symmetry_2
O15 Nd2 1_555 1_555
O24 Nd2 1_555 1_555
O28 Nd2 1_555 1_555
N7 C34 1_555 1_555
C34 O28 1_555 1_555
H31 C34 1_555 1_555
C35 N7 1_555 1_555
H32 C35 1_555 1_555
H33 C35 1_555 1_555
H34 C35 1_555 1_555
C36 N7 1_555 1_555
H35 C36 1_555 1_555
H36 C36 1_555 1_555
H37 C36 1_555 1_555
O9 N2 1_555 1_555
N2 C12 1_555 1_555
C9 H4 1_555 1_555
Nd3 O17 1_555 1_555
Nd5 O14 1_555 1_555
Nd8 O22 1_555 1_555
O12 C26 1_555 1_555
O14 C27 1_555 1_555
O17 C27 1_555 1_555
O20 N5 1_555 1_555
O21 N5 1_555 1_555
O22 C30 1_555 1_555
N5 C24 1_555 1_555
N6 C31 1_555 1_555
C20 C21 1_555 1_555
C21 H20 1_555 1_555
C22 C21 1_555 1_555
C23 C22 1_555 1_555
H21 C23 1_555 1_555
C24 C23 1_555 1_555
C25 C20 1_555 1_555
H22 C25 1_555 1_555
C26 O13 1_555 1_555
C27 C22 1_555 1_555
C28 C9 1_555 1_555
C29 C12 1_555 1_555
H23 C29 1_555 1_555
C30 O25 1_555 1_555
C31 O27 1_555 1_555
H24 C31 1_555 1_555
C32 N6 1_555 1_555
H25 C32 1_555 1_555
H26 C32 1_555 1_555
H27 C32 1_555 1_555
C33 N6 1_555 1_555
H28 C33 1_555 1_555
H30 C33 1_555 1_555
C20 C26 1_555 1_555
C24 C25 1_555 1_555
C28 C29 1_555 1_555
C28 C30 1_555 1_555
Nd1 O1 1_555 1_555
O1 C7 1_555 1_555
O2 Nd1 1_555 1_555
O3 C8 1_555 1_555
O4 C8 1_555 1_555
O5 N1 1_555 1_555
O6 N1 1_555 1_555
O7 C13 1_555 1_555
O8 Nd1 1_555 1_555
O10 Nd1 1_555 1_555
O11 Nd1 1_555 1_555
N1 C5 1_555 1_555
N2_2 C12_2 1_555 1_555
N3 C14 1_555 1_555
N4 C17 1_555 1_555
C1 C2 1_555 1_555
C2 H1 1_555 1_555
C3 C2 1_555 1_555
C4 C3 1_555 1_555
H2 C4 1_555 1_555
C5 C4 1_555 1_555
C6 C1 1_555 1_555
H3 C6 1_555 1_555
C7 O2 1_555 1_555
C8 C3 1_555 1_555
C9_2 H4_2 1_555 1_555
C10 C9_2 1_555 1_555
C11 C10 1_555 1_555
H5 C11 1_555 1_555
C12_2 C11 1_555 1_555
C13 O8 1_555 1_555
C14 O10 1_555 1_555
H6 C14 1_555 1_555
C15 N3 1_555 1_555
H7 C15 1_555 1_555
H8 C15 1_555 1_555
H9 C15 1_555 1_555
C16 N3 1_555 1_555
H10 C16 1_555 1_555
H11 C16 1_555 1_555
H12 C16 1_555 1_555
C17 O11 1_555 1_555
H13 C17 1_555 1_555
C18 N4 1_555 1_555
H14 C18 1_555 1_555
H15 C18 1_555 1_555
H16 C18 1_555 1_555
C19 N4 1_555 1_555
H17 C19 1_555 1_555
H18 C19 1_555 1_555
H19 C19 1_555 1_555
Nd6 O3 1_555 1_555
Nd7 O7 1_555 1_555
O16 Nd1 1_555 1_555
O19 Nd1 1_555 1_555
O23 Nd1 1_555 1_555
O26 N2_2 1_555 1_555
C1 C7 1_555 1_555
C5 C6 1_555 1_555
C10 C13 1_555 1_555
O15_2 Nd4 1_555 1_555
O24_2 Nd4 1_555 1_555
O28_2 Nd4 1_555 1_555
N7_2 C34_2 1_555 1_555
C34_2 O28_2 1_555 1_555
C36_2 N7_2 1_555 1_555
H35_2 C36_2 1_555 1_555
H36_2 C36_2 1_555 1_555
H37_2 C36_2 1_555 1_555
Nd3 O1_2 1_555 1_555
O2_2 Nd3 1_555 1_555
O7_2 C13_2 1_555 1_555
O8_2 Nd3 1_555 1_555
O10_2 Nd3 1_555 1_555
O11_2 Nd3 1_555 1_555
N3_2 C14_2 1_555 1_555
N4_2 C17_2 1_555 1_555
C9_3 H4_3 1_555 1_555
C10_2 C9_3 1_555 1_555
C11_2 C10_2 1_555 1_555
H5_2 C11_2 1_555 1_555
C12_3 C11_2 1_555 1_555
C13_2 O8_2 1_555 1_555
C14_2 O10_2 1_555 1_555
H6_2 C14_2 1_555 1_555
C17_2 O11_2 1_555 1_555
C19_2 N4_2 1_555 1_555
H17_2 C19_2 1_555 1_555
H18_2 C19_2 1_555 1_555
H19_2 C19_2 1_555 1_555
Nd5 O7_2 1_555 1_555
Nd6 O22_2 1_555 1_555
O16_2 Nd3 1_555 1_555
O22_2 C30_2 1_555 1_555
O23_2 Nd3 1_555 1_555
N6_2 C31_2 1_555 1_555
C28_2 C9_3 1_555 1_555
C29_2 C12_3 1_555 1_555
H23_2 C29_2 1_555 1_555
C30_2 O25_2 1_555 1_555
C31_2 O27_2 1_555 1_555
H24_2 C31_2 1_555 1_555
C10_2 C13_2 1_555 1_555
C28_2 C29_2 1_555 1_555
C28_2 C30_2 1_555 1_555
H32_2 C35_2 1_555 1_555
H34_2 C35_2 1_555 1_555
O3_2 C8_2 1_555 1_555
O18 C8_2 1_555 1_555
O5_2 N1_2 1_555 1_555
O6_2 N1_2 1_555 1_555
O9_2 N2_3 1_555 1_555
N1_2 C5_2 1_555 1_555
C1_2 C2_2 1_555 1_555
C2_2 H1_2 1_555 1_555
C3_2 C2_2 1_555 1_555
C4_2 C3_2 1_555 1_555
H2_2 C4_2 1_555 1_555
C5_2 C4_2 1_555 1_555
C6_2 C1_2 1_555 1_555
H3_2 C6_2 1_555 1_555
C8_2 C3_2 1_555 1_555
H14_2 C18_2 1_555 1_555
H16_2 C18_2 1_555 1_555
Nd7 O14_2 1_555 1_555
Nd8 O3_2 1_555 1_555
O14_2 C27_2 1_555 1_555
O19 C27_2 1_555 1_555
O20_2 N5_2 1_555 1_555
O21_2 N5_2 1_555 1_555
O26_2 N2_3 1_555 1_555
N5_2 C24_2 1_555 1_555
C20_2 C21_2 1_555 1_555
C21_2 H20_2 1_555 1_555
C22_2 C21_2 1_555 1_555
C23_2 C22_2 1_555 1_555
H21_2 C23_2 1_555 1_555
C24_2 C23_2 1_555 1_555
C25_2 C20_2 1_555 1_555
H22_2 C25_2 1_555 1_555
C27_2 C22_2 1_555 1_555
C1_2 C7_2 1_555 1_555
C5_2 C6_2 1_555 1_555
C20_2 C26_2 1_555 1_555
C24_2 C25_2 1_555 1_555
Nd5 O1_3 1_555 1_555
O1_3 C7_3 1_555 1_555
O2_3 Nd5 1_555 1_555
O15 C8_3 1_555 1_555
O4_2 C8_3 1_555 1_555
O5_3 N1_3 1_555 1_555
O6_3 N1_3 1_555 1_555
O23_2 C13_3 1_555 1_555
O8_3 Nd5 1_555 1_555
O10_3 Nd5 1_555 1_555
O11_3 Nd5 1_555 1_555
N1_3 C5_3 1_555 1_555
N2_4 C12_4 1_555 1_555
N3_3 C14_3 1_555 1_555
N4_3 C17_3 1_555 1_555
C1_3 C2_3 1_555 1_555
C2_3 H1_3 1_555 1_555
C3_3 C2_3 1_555 1_555
C4_3 C3_3 1_555 1_555
H2_3 C4_3 1_555 1_555
C5_3 C4_3 1_555 1_555
C6_3 C1_3 1_555 1_555
H3_3 C6_3 1_555 1_555
C7_3 O2_3 1_555 1_555
C8_3 C3_3 1_555 1_555
C9_4 H4_4 1_555 1_555
C10_3 C9_4 1_555 1_555
C11_3 C10_3 1_555 1_555
H5_3 C11_3 1_555 1_555
C12_4 C11_3 1_555 1_555
C13_3 O8_3 1_555 1_555
C14_3 O10_3 1_555 1_555
H6_3 C14_3 1_555 1_555
C15_2 N3_3 1_555 1_555
H7_3 C15_2 1_555 1_555
H8_2 C15_2 1_555 1_555
H9_2 C15_2 1_555 1_555
C16_2 N3_3 1_555 1_555
H10_2 C16_2 1_555 1_555
H11_2 C16_2 1_555 1_555
H12_2 C16_2 1_555 1_555
C17_3 O11_3 1_555 1_555
H13_3 C17_3 1_555 1_555
C18_3 N4_3 1_555 1_555
H14_3 C18_3 1_555 1_555
H15_3 C18_3 1_555 1_555
H16_3 C18_3 1_555 1_555
C19_3 N4_3 1_555 1_555
H17_3 C19_3 1_555 1_555
H18_3 C19_3 1_555 1_555
H19_3 C19_3 1_555 1_555
O19_2 Nd5 1_555 1_555
O26_3 N2_4 1_555 1_555
C1_3 C7_3 1_555 1_555
C5_3 C6_3 1_555 1_555
C10_3 C13_3 1_555 1_555
O9_3 N2_5 1_555 1_555
N2_5 C12_5 1_555 1_555
C9_5 H4_5 1_555 1_555
Nd7 O17_2 1_555 1_555
O12_3 C26_3 1_555 1_555
O16 C27_3 1_555 1_555
O17_2 C27_3 1_555 1_555
O20_3 N5_3 1_555 1_555
O21_3 N5_3 1_555 1_555
O24_2 C30_3 1_555 1_555
N5_3 C24_3 1_555 1_555
N6_3 C31_3 1_555 1_555
C20_3 C21_3 1_555 1_555
C21_3 H20_3 1_555 1_555
C22_3 C21_3 1_555 1_555
C23_3 C22_3 1_555 1_555
H21_3 C23_3 1_555 1_555
C24_3 C23_3 1_555 1_555
C25_3 C20_3 1_555 1_555
H22_3 C25_3 1_555 1_555
C26_3 O13_3 1_555 1_555
C27_3 C22_3 1_555 1_555
C28_3 C9_5 1_555 1_555
C29_3 C12_5 1_555 1_555
H23_3 C29_3 1_555 1_555
C30_3 O25_3 1_555 1_555
C31_3 O27_3 1_555 1_555
H24_3 C31_3 1_555 1_555
C32_2 N6_3 1_555 1_555
H25_3 C32_2 1_555 1_555
H26_2 C32_2 1_555 1_555
H27_2 C32_2 1_555 1_555
C33_2 N6_3 1_555 1_555
H28_2 C33_2 1_555 1_555
H30_2 C33_2 1_555 1_555
C20_3 C26_3 1_555 1_555
C24_3 C25_3 1_555 1_555
C28_3 C29_3 1_555 1_555
C28_3 C30_3 1_555 1_555
O28_3 Nd6 1_555 1_555
N7_3 C34_3 1_555 1_555
C34_3 O28_3 1_555 1_555
H31_3 C34_3 1_555 1_555
C35_3 N7_3 1_555 1_555
H32_3 C35_3 1_555 1_555
H33_3 C35_3 1_555 1_555
H34_3 C35_3 1_555 1_555
C36_3 N7_3 1_555 1_555
H35_3 C36_3 1_555 1_555
H36_3 C36_3 1_555 1_555
H37_3 C36_3 1_555 1_555
O15_2 C8_4 1_555 1_555
O18_2 C8_4 1_555 1_555
O5_4 N1_4 1_555 1_555
O6_4 N1_4 1_555 1_555
O9_4 N2_6 1_555 1_555
N1_4 C5_4 1_555 1_555
C1_4 C2_4 1_555 1_555
C2_4 H1_4 1_555 1_555
C3_4 C2_4 1_555 1_555
C4_4 C3_4 1_555 1_555
H2_4 C4_4 1_555 1_555
C5_4 C4_4 1_555 1_555
C6_4 C1_4 1_555 1_555
H3_4 C6_4 1_555 1_555
C8_4 C3_4 1_555 1_555
H14_4 C18_4 1_555 1_555
H16_4 C18_4 1_555 1_555
O16_2 C27_4 1_555 1_555
O19_2 C27_4 1_555 1_555
O20_4 N5_4 1_555 1_555
O21_4 N5_4 1_555 1_555
O26_4 N2_6 1_555 1_555
N5_4 C24_4 1_555 1_555
C20_4 C21_4 1_555 1_555
C21_4 H20_4 1_555 1_555
C22_4 C21_4 1_555 1_555
C23_4 C22_4 1_555 1_555
H21_4 C23_4 1_555 1_555
C24_4 C23_4 1_555 1_555
C25_4 C20_4 1_555 1_555
H22_4 C25_4 1_555 1_555
C27_4 C22_4 1_555 1_555
C1_4 C7_4 1_555 1_555
C5_4 C6_4 1_555 1_555
C20_4 C26_4 1_555 1_555
C24_4 C25_4 1_555 1_555
H32_4 C35_4 1_555 1_555
H34_4 C35_4 1_555 1_555
Nd7 O1_4 1_555 1_555
O2_4 Nd7 1_555 1_555
O23 C13_4 1_555 1_555
O8_4 Nd7 1_555 1_555
O10_4 Nd7 1_555 1_555
O11_4 Nd7 1_555 1_555
N3_4 C14_4 1_555 1_555
N4_4 C17_4 1_555 1_555
C9_6 H4_6 1_555 1_555
C10_4 C9_6 1_555 1_555
C11_4 C10_4 1_555 1_555
H5_4 C11_4 1_555 1_555
C12_6 C11_4 1_555 1_555
C13_4 O8_4 1_555 1_555
C14_4 O10_4 1_555 1_555
H6_4 C14_4 1_555 1_555
C17_4 O11_4 1_555 1_555
C19_4 N4_4 1_555 1_555
H17_4 C19_4 1_555 1_555
H18_4 C19_4 1_555 1_555
H19_4 C19_4 1_555 1_555
O24 C30_4 1_555 1_555
N6_4 C31_4 1_555 1_555
C28_4 C9_6 1_555 1_555
C29_4 C12_6 1_555 1_555
H23_4 C29_4 1_555 1_555
C30_4 O25_4 1_555 1_555
C31_4 O27_4 1_555 1_555
H24_4 C31_4 1_555 1_555
C10_4 C13_4 1_555 1_555
C28_4 C29_4 1_555 1_555
C28_4 C30_4 1_555 1_555
O28_4 Nd8 1_555 1_555
N7_4 C34_4 1_555 1_555
C34_4 O28_4 1_555 1_555
C36_4 N7_4 1_555 1_555
H35_4 C36_4 1_555 1_555
H36_4 C36_4 1_555 1_555
H37_4 C36_4 1_555 1_555
H26_3 C32_3 1_555 1_555
H27_3 C32_3 1_555 1_555
H28_3 C33_3 1_555 1_555
H30_3 C33_3 1_555 1_555
H8_3 C15_3 1_555 1_555
H9_3 C15_3 1_555 1_555
H10_3 C16_3 1_555 1_555
H11_3 C16_3 1_555 1_555
H12_3 C16_3 1_555 1_555
H8_4 C15_4 1_555 1_555
H9_4 C15_4 1_555 1_555
H10_4 C16_4 1_555 1_555
H11_4 C16_4 1_555 1_555
H12_4 C16_4 1_555 1_555
H26_4 C32_4 1_555 1_555
H27_4 C32_4 1_555 1_555
H28_4 C33_4 1_555 1_555
H30_4 C33_4 1_555 1_555

#END
