
###############################################################################
#
# This file contains modified crystal structure data generated from the
# MOF subset of the Cambridge Structural Database (CSD) v543 
# hosted by the Cambridge Crystallographic Data Centre (CCDC).
#
# This work is licensed under the Creative Commons
# Attribution-NonCommercial-ShareAlike 4.0 International License.
# To view a copy of this license, visit
# http://creativecommons.org/licenses/by-nc-sa/4.0/
# or send a letter to
# Creative Commons, PO Box 1866, Mountain View, CA 94042, USA.
#
# CIF created using the CSD Python API on 29 September 2022
# The structure has been converted into the P1 space group
# The structure has a 3D framework
# The original CSD entry XUNGIX is in the cubic crystal system
# The original CSD entry XUNGIX is in a Sohncke space group
# The framework has been calculated to contain at least 10.0% void space
# The void calculation uses a probe of radius 1.32A, grid spacing 0.4
#
###############################################################################

data_XUNGIX
_chemical_formula_moiety         '(C336 H384 Cu12 N16 O48)n'
_symmetry_cell_setting           triclinic
_symmetry_space_group_name_H-M   'P 1'
_symmetry_Int_Tables_number      1
_space_group_name_Hall           'P 1'
loop_
_symmetry_equiv_pos_site_id
_symmetry_equiv_pos_as_xyz
1 x,y,z
_cell_length_a                   24.2096(30)
_cell_length_b                   24.2096(30)
_cell_length_c                   24.2096(30)
_cell_angle_alpha                90
_cell_angle_beta                 90
_cell_angle_gamma                90
_cell_volume                     14189.4
loop_
_atom_site_label
_atom_site_type_symbol
_atom_site_fract_x
_atom_site_fract_y
_atom_site_fract_z
C1 C 0.4390(5) 0.3529(4) 0.5027(4)
H1 H 0.4703 0.3760 0.5139
H2 H 0.4203 0.3699 0.4710
H3 H 0.4525 0.3161 0.4923
C2 C 0.3415(5) 0.3296(4) 0.5323(6)
H4 H 0.3333 0.3438 0.4953
H5 H 0.3145 0.3441 0.5586
H6 H 0.3396 0.2892 0.5319
C3 C 0.4233(5) 0.3064(4) 0.5859(5)
H7 H 0.4274 0.2715 0.5657
H8 H 0.3989 0.3008 0.6177
H9 H 0.4595 0.3189 0.5988
C4 C 0.3996(3) 0.3478(4) 0.5495(4)
C5 C 0.3955(4) 0.4030(3) 0.5787(4)
C6 C 0.3510(3) 0.4396(3) 0.5754(3)
H10 H 0.3191 0.4262 0.5569
C7 C 0.3476(4) 0.4912(4) 0.5951(4)
C8 C 0.3013(3) 0.5262(4) 0.5842(3)
C9 C 0.3031(4) 0.5802(5) 0.5996(4)
H11 H 0.3339 0.5939 0.6196
C10 C 0.2590(5) 0.6158(4) 0.5859(4)
H12 H 0.2635 0.6538 0.5943
C11 C 0.2103(3) 0.6003(4) 0.5616(3)
C12 C 0.2109(4) 0.5439(5) 0.5479(4)
H13 H 0.1786 0.5295 0.5308
C13 C 0.2537(4) 0.5074(4) 0.5569(4)
H14 H 0.2511 0.4702 0.5448
C14 C 0.1652(4) 0.6389(4) 0.5505(4)
C15 C 0.1611(4) 0.6855(4) 0.5748(4)
H15 H 0.1899 0.6964 0.5991
C16 C 0.1171(4) 0.7210(3) 0.5676(4)
H16 H 0.1118 0.7516 0.5915
C17 C 0.0799(4) 0.7104(4) 0.5234(4)
C18 C 0.0889(4) 0.6640(3) 0.4919(4)
H17 H 0.0660 0.6570 0.4607
C19 C 0.1311(3) 0.6268(3) 0.5050(4)
H18 H 0.1366 0.5943 0.4838
C20 C 0.0333(3) 0.7504(4) 0.5146(4)
H19 H 0.0007 0.7089 0.4484
C27 C 0.5483(3) 0.5613(4) 0.6222(3)
H29 H 0.5256 0.5894 0.6415
H30 H 0.5674 0.5389 0.6507
C28 C 0.4824(3) 0.5588(3) 0.5452(3)
H31 H 0.4595 0.5349 0.5213
H32 H 0.4578 0.5860 0.5633
N1 N 0.5109(2) 0.5241(3) 0.5885(2)
N2 N 0.5886(2) 0.5886(2) 0.5886(2)
O1 O 0.4398(2) 0.4142(2) 0.6057(2)
O2 O 0.3849(2) 0.51142(19) 0.6252(2)
O3 O 0.03327(18) 0.7921(2) 0.5438(2)
Cu1 Cu 0.45256(4) 0.47829(4) 0.65056(4)
C29 C 0.5027(4) 0.4390(5) 0.3529(4)
C30 C 0.3529(4) 0.5027(4) 0.4390(5)
H33 H 0.5139 0.4703 0.3760
H34 H 0.3760 0.5139 0.4703
H35 H 0.4710 0.4203 0.3699
H36 H 0.3699 0.4710 0.4203
H37 H 0.4923 0.4525 0.3161
H38 H 0.3161 0.4923 0.4525
C31 C 0.5323(6) 0.3415(5) 0.3296(4)
C32 C 0.3296(4) 0.5323(6) 0.3415(5)
H39 H 0.4953 0.3333 0.3438
H40 H 0.3438 0.4953 0.3333
H41 H 0.5586 0.3145 0.3441
H42 H 0.3441 0.5586 0.3145
H43 H 0.5319 0.3396 0.2892
H44 H 0.2892 0.5319 0.3396
C33 C 0.5859(5) 0.4233(5) 0.3064(4)
C34 C 0.3064(4) 0.5859(5) 0.4233(5)
H45 H 0.5657 0.4274 0.2715
H46 H 0.2715 0.5657 0.4274
H47 H 0.6177 0.3989 0.3008
H48 H 0.3008 0.6177 0.3989
H49 H 0.5988 0.4595 0.3189
H50 H 0.3189 0.5988 0.4595
C35 C 0.5495(4) 0.3996(3) 0.3478(4)
C36 C 0.3478(4) 0.5495(4) 0.3996(3)
C37 C 0.5787(4) 0.3955(4) 0.4030(3)
C38 C 0.4030(3) 0.5787(4) 0.3955(4)
C39 C 0.5754(3) 0.3510(3) 0.4396(3)
C40 C 0.4396(3) 0.5754(3) 0.3510(3)
H51 H 0.5569 0.3191 0.4262
H52 H 0.4262 0.5569 0.3191
C41 C 0.5951(4) 0.3476(4) 0.4912(4)
C42 C 0.4912(4) 0.5951(4) 0.3476(4)
C43 C 0.5842(3) 0.3013(3) 0.5262(4)
C44 C 0.5262(4) 0.5842(3) 0.3013(3)
C45 C 0.5996(4) 0.3031(4) 0.5802(5)
C46 C 0.5802(5) 0.5996(4) 0.3031(4)
H53 H 0.6196 0.3339 0.5939
H54 H 0.5939 0.6196 0.3339
C47 C 0.5859(4) 0.2590(5) 0.6158(4)
C48 C 0.6158(4) 0.5859(4) 0.2590(5)
H55 H 0.5943 0.2635 0.6538
H56 H 0.6538 0.5943 0.2635
C49 C 0.5616(3) 0.2103(3) 0.6003(4)
C50 C 0.6003(4) 0.5616(3) 0.2103(3)
C51 C 0.5479(4) 0.2109(4) 0.5439(5)
C52 C 0.5439(5) 0.5479(4) 0.2109(4)
H57 H 0.5308 0.1786 0.5295
H58 H 0.5295 0.5308 0.1786
C53 C 0.5569(4) 0.2537(4) 0.5074(4)
C54 C 0.5074(4) 0.5569(4) 0.2537(4)
H59 H 0.5448 0.2511 0.4702
H60 H 0.4702 0.5448 0.2511
C55 C 0.5505(4) 0.1652(4) 0.6389(4)
C56 C 0.6389(4) 0.5505(4) 0.1652(4)
C57 C 0.5748(4) 0.1611(4) 0.6855(4)
C58 C 0.6855(4) 0.5748(4) 0.1611(4)
H61 H 0.5991 0.1899 0.6964
H62 H 0.6964 0.5991 0.1899
C59 C 0.5676(4) 0.1171(4) 0.7210(3)
C60 C 0.7210(3) 0.5676(4) 0.1171(4)
H63 H 0.5915 0.1118 0.7516
H64 H 0.7516 0.5915 0.1118
C61 C 0.5234(4) 0.0799(4) 0.7104(4)
C62 C 0.7104(4) 0.5234(4) 0.0799(4)
C63 C 0.4919(4) 0.0889(4) 0.6640(3)
C64 C 0.6640(3) 0.4919(4) 0.0889(4)
H65 H 0.4607 0.0660 0.6570
H66 H 0.6570 0.4607 0.0660
C65 C 0.5050(4) 0.1311(3) 0.6268(3)
C66 C 0.6268(3) 0.5050(4) 0.1311(3)
H67 H 0.4838 0.1366 0.5943
H68 H 0.5943 0.4838 0.1366
C67 C 0.5146(4) 0.0333(3) 0.7504(4)
C68 C 0.7504(4) 0.5146(4) 0.0333(3)
H69 H 0.4484 0.0007 0.7089
H70 H 0.7089 0.4484 0.0007
C81 C 0.6222(3) 0.5483(3) 0.5613(4)
C82 C 0.5613(4) 0.6222(3) 0.5483(3)
H89 H 0.6415 0.5256 0.5894
H90 H 0.5894 0.6415 0.5256
H91 H 0.6507 0.5674 0.5389
H92 H 0.5389 0.6507 0.5674
C83 C 0.5452(3) 0.4824(3) 0.5588(3)
C84 C 0.5588(3) 0.5452(3) 0.4824(3)
H93 H 0.5213 0.4595 0.5349
H94 H 0.5349 0.5213 0.4595
H95 H 0.5633 0.4578 0.5860
H96 H 0.5860 0.5633 0.4578
N3 N 0.5885(2) 0.5109(2) 0.5241(3)
N4 N 0.5241(3) 0.5885(2) 0.5109(2)
O5 O 0.6057(2) 0.4398(2) 0.4142(2)
O6 O 0.4142(2) 0.6057(2) 0.4398(2)
O7 O 0.6252(2) 0.3849(2) 0.51142(19)
O8 O 0.51142(19) 0.6252(2) 0.3849(2)
O9 O 0.5438(2) 0.03327(18) 0.7921(2)
O10 O 0.7921(2) 0.5438(2) 0.03327(18)
O11 O 0.53327(18) 0.7079(2) 0.4562(2)
O12 O 0.7079(2) 0.4562(2) 0.53327(18)
O13 O 0.4562(2) 0.53327(18) 0.7079(2)
O16 O 0.43959(19) 0.6819(2) 0.5153(2)
O17 O 0.6819(2) 0.5153(2) 0.43959(19)
O18 O 0.5153(2) 0.43959(19) 0.6819(2)
Cu2 Cu 0.65056(4) 0.45256(4) 0.47829(4)
Cu3 Cu 0.47829(4) 0.65056(4) 0.45256(4)
C70 C 0.7405(3) 0.4710(4) 0.9947(4)
C72 C 0.7733(4) 0.4591(4) 0.9493(4)
C74 C 0.7599(4) 0.4132(4) 0.9122(4)
C76 C 0.8040(5) 0.3707(4) 0.9194(5)
H72 H 0.8403 0.3881 0.9151
H74 H 0.7995 0.3417 0.8915
H76 H 0.8012 0.3544 0.9563
C78 C 0.7617(3) 0.4382(4) 0.8525(4)
H78 H 0.7983 0.4541 0.8456
H80 H 0.7336 0.4670 0.8490
H82 H 0.7544 0.4089 0.8254
C80 C 0.7028(4) 0.3874(4) 0.9246(4)
H84 H 0.6926 0.3621 0.8947
H86 H 0.6751 0.4168 0.9276
H88 H 0.7046 0.3670 0.9596
O15 O 0.8181(2) 0.4847(2) 0.93959(19)
Cu5 Cu 0.84944(4) 0.54744(4) 0.97829(4)
C69 C 0.4710(4) 0.9947(4) 0.7405(3)
C71 C 0.4591(4) 0.9493(4) 0.7733(4)
C73 C 0.4132(4) 0.9122(4) 0.7599(4)
C75 C 0.3707(4) 0.9194(5) 0.8040(5)
H71 H 0.3881 0.9151 0.8403
H73 H 0.3417 0.8915 0.7995
H75 H 0.3544 0.9563 0.8012
C77 C 0.4382(4) 0.8525(4) 0.7617(3)
H77 H 0.4541 0.8456 0.7983
H79 H 0.4670 0.8490 0.7336
H81 H 0.4089 0.8254 0.7544
C79 C 0.3874(4) 0.9246(4) 0.7028(4)
H83 H 0.3621 0.8947 0.6926
H85 H 0.4168 0.9276 0.6751
H87 H 0.3670 0.9596 0.7046
O14 O 0.4847(2) 0.93959(19) 0.8181(2)
Cu4 Cu 0.54744(4) 0.97829(4) 0.84944(4)
C21 C 0.9947(4) 0.7405(3) 0.4710(4)
C22 C 0.9493(4) 0.7733(4) 0.4591(4)
C23 C 0.9122(4) 0.7599(4) 0.4132(4)
C24 C 0.9194(5) 0.8040(5) 0.3707(4)
H20 H 0.9151 0.8403 0.3881
H21 H 0.8915 0.7995 0.3417
H22 H 0.9563 0.8012 0.3544
C25 C 0.8525(4) 0.7617(3) 0.4382(4)
H23 H 0.8456 0.7983 0.4541
H24 H 0.8490 0.7336 0.4670
H25 H 0.8254 0.7544 0.4089
C26 C 0.9246(4) 0.7028(4) 0.3874(4)
H26 H 0.8947 0.6926 0.3621
H27 H 0.9276 0.6751 0.4168
H28 H 0.9596 0.7046 0.3670
O4 O 0.93959(19) 0.8181(2) 0.4847(2)
Cu6 Cu 0.97829(4) 0.84944(4) 0.54744(4)
H2_2 H 0.0797 0.6301 0.9710
H3_2 H 0.0475 0.6839 0.9923
H4_2 H 0.1667 0.6562 0.9953
C18_2 C 0.4111(4) 0.3360(3) 0.9919(4)
H17_2 H 0.4340 0.3430 0.9607
H18_2 H 0.3634 0.4057 0.9838
C21_2 C 0.5053(4) 0.2595(3) 0.9710(4)
H19_2 H 0.4993 0.2911 0.9484
C22_2 C 0.5507(4) 0.2267(4) 0.9591(4)
C23_2 C 0.5878(4) 0.2401(4) 0.9132(4)
C24_2 C 0.5806(5) 0.1960(5) 0.8707(4)
H20_2 H 0.5849 0.1597 0.8881
H21_2 H 0.6085 0.2005 0.8417
H22_2 H 0.5437 0.1988 0.8544
C25_2 C 0.6475(4) 0.2383(3) 0.9382(4)
H23_2 H 0.6544 0.2017 0.9541
H24_2 H 0.6510 0.2664 0.9670
H25_2 H 0.6746 0.2456 0.9089
C26_2 C 0.5754(4) 0.2972(4) 0.8874(4)
H26_2 H 0.6053 0.3074 0.8621
H27_2 H 0.5724 0.3249 0.9168
H28_2 H 0.5404 0.2954 0.8670
O4_2 O 0.56041(19) 0.1819(2) 0.9847(2)
C30_2 C 0.1471(4) 0.4973(4) 0.9390(5)
H34_2 H 0.1240 0.4861 0.9703
H35_2 H 0.0290 0.5797 0.8699
H36_2 H 0.1301 0.5290 0.9203
H37_2 H 0.0077 0.5475 0.8161
H38_2 H 0.1839 0.5077 0.9525
C32_2 C 0.1704(4) 0.4677(6) 0.8415(5)
H39_2 H 0.0047 0.6667 0.8438
H40_2 H 0.1562 0.5047 0.8333
H42_2 H 0.1559 0.4414 0.8145
H44_2 H 0.2108 0.4681 0.8396
C34_2 C 0.1936(4) 0.4141(5) 0.9233(5)
H46_2 H 0.2285 0.4343 0.9274
H48_2 H 0.1992 0.3823 0.8989
H50_2 H 0.1811 0.4012 0.9595
C36_2 C 0.1522(4) 0.4505(4) 0.8996(3)
C38_2 C 0.0970(3) 0.4213(4) 0.8955(4)
C40_2 C 0.0604(3) 0.4246(3) 0.8510(3)
H52_2 H 0.0738 0.4431 0.8191
C42_2 C 0.0088(4) 0.4049(4) 0.8476(4)
H60_2 H 0.0298 0.4552 0.7511
O6_2 O 0.0858(2) 0.3943(2) 0.9398(2)
Cu3_2 Cu 0.02171(4) 0.34944(4) 0.95256(4)
Cu4_2 Cu 0.95256(4) 0.02171(4) 0.34944(4)
C27_2 C 0.9517(3) 0.4387(4) 0.1222(3)
H29_2 H 0.9744 0.4106 0.1415
H30_2 H 0.9326 0.4611 0.1507
N1_2 N 0.9891(2) 0.4759(3) 0.0885(2)
N2_2 N 0.9114(2) 0.4114(2) 0.0886(2)
C43_2 C 0.9158(3) 0.6987(3) 0.0262(4)
C45_2 C 0.9004(4) 0.6969(4) 0.0802(5)
H53_2 H 0.8804 0.6661 0.0939
C47_2 C 0.9141(4) 0.7410(5) 0.1158(4)
H55_2 H 0.9057 0.7365 0.1538
C49_2 C 0.9384(3) 0.7897(3) 0.1003(4)
C51_2 C 0.9521(4) 0.7891(4) 0.0439(5)
H57_2 H 0.9692 0.8214 0.0295
C53_2 C 0.9431(4) 0.7463(4) 0.0074(4)
C55_2 C 0.9495(4) 0.8348(4) 0.1389(4)
C57_2 C 0.9252(4) 0.8389(4) 0.1855(4)
H61_2 H 0.9009 0.8101 0.1964
C59_2 C 0.9324(4) 0.8829(4) 0.2210(3)
H63_2 H 0.9085 0.8882 0.2516
C61_2 C 0.9766(4) 0.9201(4) 0.2104(4)
C65_2 C 0.9950(4) 0.8689(3) 0.1268(3)
C67_2 C 0.9854(4) 0.9667(3) 0.2504(4)
C81_2 C 0.8778(3) 0.4517(3) 0.0613(4)
C82_2 C 0.9387(4) 0.3778(3) 0.0483(3)
H89_2 H 0.8585 0.4744 0.0894
H90_2 H 0.9106 0.3585 0.0256
H91_2 H 0.8493 0.4326 0.0389
H92_2 H 0.9611 0.3493 0.0674
C83_2 C 0.9548(3) 0.5176(3) 0.0588(3)
H93_2 H 0.9787 0.5405 0.0349
H95_2 H 0.9367 0.5422 0.0860
N3_2 N 0.9115(2) 0.4891(2) 0.0241(3)
N4_2 N 0.9759(3) 0.4115(2) 0.0109(2)
O7_2 O 0.8748(2) 0.6151(2) 0.01142(19)
O9_2 O 0.9562(2) 0.96673(18) 0.2921(2)
O18_2 O 0.9847(2) 0.56041(19) 0.1819(2)
C29_2 C 0.9973(4) 0.5610(5) 0.8529(4)
H33_2 H 0.9861 0.5297 0.8760
C31_2 C 0.9677(6) 0.6585(5) 0.8296(4)
H41_2 H 0.9414 0.6855 0.8441
H43_2 H 0.9681 0.6604 0.7892
C33_2 C 0.9141(5) 0.5767(5) 0.8064(4)
H45_2 H 0.9343 0.5726 0.7715
H47_2 H 0.8823 0.6011 0.8008
H49_2 H 0.9012 0.5405 0.8189
C35_2 C 0.9505(4) 0.6004(3) 0.8478(4)
C37_2 C 0.9213(4) 0.6045(4) 0.9030(3)
C39_2 C 0.9246(3) 0.6490(3) 0.9396(3)
H51_2 H 0.9431 0.6809 0.9262
C41_2 C 0.9049(4) 0.6524(4) 0.9912(4)
C44_2 C 0.9738(4) 0.4158(3) 0.8013(3)
C46_2 C 0.9198(5) 0.4004(4) 0.8031(4)
H54_2 H 0.9061 0.3804 0.8339
C48_2 C 0.8842(4) 0.4141(4) 0.7590(5)
H56_2 H 0.8462 0.4057 0.7635
C50_2 C 0.8997(4) 0.4384(3) 0.7103(3)
C52_2 C 0.9561(5) 0.4521(4) 0.7109(4)
H58_2 H 0.9705 0.4692 0.6786
C54_2 C 0.9926(4) 0.4431(4) 0.7537(4)
H59_2 H 0.9552 0.7489 0.9702
C56_2 C 0.8611(4) 0.4495(4) 0.6652(4)
C58_2 C 0.8145(4) 0.4252(4) 0.6611(4)
H62_2 H 0.8036 0.4009 0.6899
C60_2 C 0.7790(3) 0.4324(4) 0.6171(4)
H64_2 H 0.7484 0.4085 0.6118
C62_2 C 0.7896(4) 0.4766(4) 0.5799(4)
C64_2 C 0.8360(3) 0.5081(4) 0.5889(4)
H66_2 H 0.8430 0.5393 0.5660
C66_2 C 0.8732(3) 0.4950(4) 0.6311(3)
H68_2 H 0.9057 0.5162 0.6366
C68_2 C 0.7496(4) 0.4854(4) 0.5333(3)
C70_2 C 0.7595(3) 0.5290(4) 0.4947(4)
H70_2 H 0.7911 0.5516 0.5007
C72_2 C 0.7267(4) 0.5409(4) 0.4493(4)
C74_2 C 0.7401(4) 0.5868(4) 0.4122(4)
C76_2 C 0.6960(5) 0.6293(4) 0.4194(5)
H72_2 H 0.6597 0.6119 0.4151
H74_2 H 0.7005 0.6583 0.3915
H76_2 H 0.6988 0.6456 0.4563
C78_2 C 0.7383(3) 0.5618(4) 0.3525(4)
H78_2 H 0.7017 0.5459 0.3456
H80_2 H 0.7664 0.5330 0.3490
H82_2 H 0.7456 0.5911 0.3254
C80_2 C 0.7972(4) 0.6126(4) 0.4246(4)
H84_2 H 0.8074 0.6379 0.3947
H86_2 H 0.8249 0.5832 0.4276
H88_2 H 0.7954 0.6330 0.4596
C84_2 C 0.9412(3) 0.4548(3) 0.9824(3)
H94_2 H 0.9651 0.4787 0.9595
H96_2 H 0.9140 0.4367 0.9578
O5_2 O 0.8943(2) 0.5602(2) 0.9142(2)
O8_2 O 0.98858(19) 0.3748(2) 0.8849(2)
O11_2 O 0.96673(18) 0.2921(2) 0.9562(2)
Cu5_2 Cu 0.34944(4) 0.95256(4) 0.02171(4)
C27_3 C 0.0483(3) 0.9387(4) 0.3778(3)
H29_3 H 0.0256 0.9106 0.3585
H30_3 H 0.0674 0.9611 0.3493
N1_3 N 0.0109(2) 0.9759(3) 0.4115(2)
N2_3 N 0.0886(2) 0.9114(2) 0.4114(2)
C44_3 C 0.0262(4) 0.9158(3) 0.6987(3)
C46_3 C 0.0802(5) 0.9004(4) 0.6969(4)
H54_3 H 0.0939 0.8804 0.6661
C48_3 C 0.1158(4) 0.9141(4) 0.7410(5)
H56_3 H 0.1538 0.9057 0.7365
C50_3 C 0.1003(4) 0.9384(3) 0.7897(3)
C52_3 C 0.0439(5) 0.9521(4) 0.7891(4)
H58_3 H 0.0295 0.9692 0.8214
C54_3 C 0.0074(4) 0.9431(4) 0.7463(4)
C56_3 C 0.1389(4) 0.9495(4) 0.8348(4)
C58_3 C 0.1855(4) 0.9252(4) 0.8389(4)
H62_3 H 0.1964 0.9009 0.8101
C60_3 C 0.2210(3) 0.9324(4) 0.8829(4)
H64_3 H 0.2516 0.9085 0.8882
C62_3 C 0.2104(4) 0.9766(4) 0.9201(4)
C66_3 C 0.1268(3) 0.9950(4) 0.8689(3)
C68_3 C 0.2504(4) 0.9854(4) 0.9667(3)
C81_3 C 0.1222(3) 0.9517(3) 0.4387(4)
C82_3 C 0.0613(4) 0.8778(3) 0.4517(3)
H89_3 H 0.1415 0.9744 0.4106
H90_3 H 0.0894 0.8585 0.4744
H91_3 H 0.1507 0.9326 0.4611
H92_3 H 0.0389 0.8493 0.4326
C84_3 C 0.0588(3) 0.9548(3) 0.5176(3)
H94_3 H 0.0349 0.9787 0.5405
H96_3 H 0.0860 0.9367 0.5422
N3_3 N 0.0885(2) 0.9891(2) 0.4759(3)
N4_3 N 0.0241(3) 0.9115(2) 0.4891(2)
O8_3 O 0.01142(19) 0.8748(2) 0.6151(2)
O10_2 O 0.2921(2) 0.9562(2) 0.96673(18)
O17_2 O 0.1819(2) 0.9847(2) 0.56041(19)
C1_2 C 0.9390(5) 0.1471(4) 0.4973(4)
H1_2 H 0.9703 0.1240 0.4861
H2_3 H 0.9203 0.1301 0.5290
H3_3 H 0.9525 0.1839 0.5077
C2_2 C 0.8415(5) 0.1704(4) 0.4677(6)
H4_3 H 0.8333 0.1562 0.5047
H5_2 H 0.8145 0.1559 0.4414
H6_2 H 0.8396 0.2108 0.4681
C3_2 C 0.9233(5) 0.1936(4) 0.4141(5)
H7_2 H 0.9274 0.2285 0.4343
H8_2 H 0.8989 0.1992 0.3823
H9_2 H 0.9595 0.1811 0.4012
C4_2 C 0.8996(3) 0.1522(4) 0.4505(4)
C5_2 C 0.8955(4) 0.0970(3) 0.4213(4)
C6_2 C 0.8510(3) 0.0604(3) 0.4246(3)
H10_2 H 0.8191 0.0738 0.4431
C7_2 C 0.8476(4) 0.0088(4) 0.4049(4)
H14_2 H 0.7511 0.0298 0.4552
O1_2 O 0.9398(2) 0.0858(2) 0.3943(2)
H35_3 H 0.9710 0.0797 0.6301
H36_3 H 0.8699 0.0290 0.5797
H37_3 H 0.9923 0.0475 0.6839
H38_3 H 0.8161 0.0077 0.5475
H39_3 H 0.9953 0.1667 0.6562
H40_3 H 0.8438 0.0047 0.6667
C63_2 C 0.9919(4) 0.4111(4) 0.3360(3)
H65_2 H 0.9607 0.4340 0.3430
H67_2 H 0.9838 0.3634 0.4057
C69_2 C 0.9710(4) 0.5053(4) 0.2595(3)
H69_2 H 0.9484 0.4993 0.2911
C71_2 C 0.9591(4) 0.5507(4) 0.2267(4)
C73_2 C 0.9132(4) 0.5878(4) 0.2401(4)
C75_2 C 0.8707(4) 0.5806(5) 0.1960(5)
H71_2 H 0.8881 0.5849 0.1597
H73_2 H 0.8417 0.6085 0.2005
H75_2 H 0.8544 0.5437 0.1988
C77_2 C 0.9382(4) 0.6475(4) 0.2383(3)
H77_2 H 0.9541 0.6544 0.2017
H79_2 H 0.9670 0.6510 0.2664
H81_2 H 0.9089 0.6746 0.2456
C79_2 C 0.8874(4) 0.5754(4) 0.2972(4)
H83_2 H 0.8621 0.6053 0.3074
H85_2 H 0.9168 0.5724 0.3249
H87_2 H 0.8670 0.5404 0.2954
C8_2 C 0.8013(3) 0.9738(4) 0.4158(3)
C9_2 C 0.8031(4) 0.9198(5) 0.4004(4)
H11_2 H 0.8339 0.9061 0.3804
C10_2 C 0.7590(5) 0.8842(4) 0.4141(4)
H12_2 H 0.7635 0.8462 0.4057
C11_2 C 0.7103(3) 0.8997(4) 0.4384(3)
C12_2 C 0.7109(4) 0.9561(5) 0.4521(4)
H13_2 H 0.6786 0.9705 0.4692
C13_2 C 0.7537(4) 0.9926(4) 0.4431(4)
C14_2 C 0.6652(4) 0.8611(4) 0.4495(4)
C15_2 C 0.6611(4) 0.8145(4) 0.4252(4)
H15_2 H 0.6899 0.8036 0.4009
C16_2 C 0.6171(4) 0.7790(3) 0.4324(4)
H16_2 H 0.6118 0.7484 0.4085
C17_2 C 0.5799(4) 0.7896(4) 0.4766(4)
C18_3 C 0.5889(4) 0.8360(3) 0.5081(4)
H17_3 H 0.5660 0.8430 0.5393
C19_2 C 0.6311(3) 0.8732(3) 0.4950(4)
H18_3 H 0.6366 0.9057 0.5162
C20_2 C 0.5333(3) 0.7496(4) 0.4854(4)
C21_3 C 0.4947(4) 0.7595(3) 0.5290(4)
H19_3 H 0.5007 0.7911 0.5516
C22_3 C 0.4493(4) 0.7267(4) 0.5409(4)
C23_3 C 0.4122(4) 0.7401(4) 0.5868(4)
C24_3 C 0.4194(5) 0.6960(5) 0.6293(4)
H20_3 H 0.4151 0.6597 0.6119
H21_3 H 0.3915 0.7005 0.6583
H22_3 H 0.4563 0.6988 0.6456
C25_3 C 0.3525(4) 0.7383(3) 0.5618(4)
H23_3 H 0.3456 0.7017 0.5459
H24_3 H 0.3490 0.7664 0.5330
H25_3 H 0.3254 0.7456 0.5911
C26_3 C 0.4246(4) 0.7972(4) 0.6126(4)
H26_3 H 0.3947 0.8074 0.6379
H27_3 H 0.4276 0.8249 0.5832
H28_3 H 0.4596 0.7954 0.6330
C28_2 C 0.9824(3) 0.9412(3) 0.4548(3)
H31_2 H 0.9595 0.9651 0.4787
H32_2 H 0.9578 0.9140 0.4367
O2_2 O 0.8849(2) 0.98858(19) 0.3748(2)
C30_3 C 0.8529(4) 0.9973(4) 0.5610(5)
H34_3 H 0.8760 0.9861 0.5297
C32_3 C 0.8296(4) 0.9677(6) 0.6585(5)
H42_3 H 0.8441 0.9414 0.6855
H44_3 H 0.7892 0.9681 0.6604
C34_3 C 0.8064(4) 0.9141(5) 0.5767(5)
H46_3 H 0.7715 0.9343 0.5726
H48_3 H 0.8008 0.8823 0.6011
H50_3 H 0.8189 0.9012 0.5405
C36_3 C 0.8478(4) 0.9505(4) 0.6004(3)
C38_3 C 0.9030(3) 0.9213(4) 0.6045(4)
C40_3 C 0.9396(3) 0.9246(3) 0.6490(3)
H52_3 H 0.9262 0.9431 0.6809
C42_3 C 0.9912(4) 0.9049(4) 0.6524(4)
H60_3 H 0.9702 0.9552 0.7489
O6_3 O 0.9142(2) 0.8943(2) 0.5602(2)
C8_3 C 0.6987(3) 0.0262(4) 0.9158(3)
C9_3 C 0.6969(4) 0.0802(5) 0.9004(4)
H11_3 H 0.6661 0.0939 0.8804
C10_3 C 0.7410(5) 0.1158(4) 0.9141(4)
H12_3 H 0.7365 0.1538 0.9057
C11_3 C 0.7897(3) 0.1003(4) 0.9384(3)
C12_3 C 0.7891(4) 0.0439(5) 0.9521(4)
H13_3 H 0.8214 0.0295 0.9692
C13_3 C 0.7463(4) 0.0074(4) 0.9431(4)
C14_3 C 0.8348(4) 0.1389(4) 0.9495(4)
C15_3 C 0.8389(4) 0.1855(4) 0.9252(4)
H15_3 H 0.8101 0.1964 0.9009
C16_3 C 0.8829(4) 0.2210(3) 0.9324(4)
H16_3 H 0.8882 0.2516 0.9085
C17_3 C 0.9201(4) 0.2104(4) 0.9766(4)
C19_3 C 0.8689(3) 0.1268(3) 0.9950(4)
C20_3 C 0.9667(3) 0.2504(4) 0.9854(4)
C27_4 C 0.4517(3) 0.0613(4) 0.8778(3)
H29_4 H 0.4744 0.0894 0.8585
H30_4 H 0.4326 0.0389 0.8493
C28_3 C 0.5176(3) 0.0588(3) 0.9548(3)
H31_3 H 0.5405 0.0349 0.9787
H32_3 H 0.5422 0.0860 0.9367
N1_4 N 0.4891(2) 0.0241(3) 0.9115(2)
N2_4 N 0.4114(2) 0.0886(2) 0.9114(2)
O2_3 O 0.6151(2) 0.01142(19) 0.8748(2)
C81_4 C 0.3778(3) 0.0483(3) 0.9387(4)
C82_4 C 0.4387(4) 0.1222(3) 0.9517(3)
H89_4 H 0.3585 0.0256 0.9106
H90_4 H 0.4106 0.1415 0.9744
H91_4 H 0.3493 0.0674 0.9611
H92_4 H 0.4611 0.1507 0.9326
N3_4 N 0.4115(2) 0.0109(2) 0.9759(3)
N4_4 N 0.4759(3) 0.0885(2) 0.9891(2)
H2_4 H 0.5797 0.8699 0.0290
H3_4 H 0.5475 0.8161 0.0077
H4_4 H 0.6667 0.8438 0.0047
C29_3 C 0.4973(4) 0.9390(5) 0.1471(4)
H33_3 H 0.4861 0.9703 0.1240
H35_4 H 0.5290 0.9203 0.1301
H36_4 H 0.6301 0.9710 0.0797
H37_4 H 0.5077 0.9525 0.1839
H38_4 H 0.6839 0.9923 0.0475
C31_3 C 0.4677(6) 0.8415(5) 0.1704(4)
H39_4 H 0.5047 0.8333 0.1562
H40_4 H 0.6562 0.9953 0.1667
H41_3 H 0.4414 0.8145 0.1559
H43_3 H 0.4681 0.8396 0.2108
C33_3 C 0.4141(5) 0.9233(5) 0.1936(4)
H45_3 H 0.4343 0.9274 0.2285
H47_3 H 0.3823 0.8989 0.1992
H49_3 H 0.4012 0.9595 0.1811
C35_3 C 0.4505(4) 0.8996(3) 0.1522(4)
C37_3 C 0.4213(4) 0.8955(4) 0.0970(3)
C39_3 C 0.4246(3) 0.8510(3) 0.0604(3)
H51_3 H 0.4431 0.8191 0.0738
C41_3 C 0.4049(4) 0.8476(4) 0.0088(4)
H59_3 H 0.4552 0.7511 0.0298
C64_3 C 0.3360(3) 0.9919(4) 0.4111(4)
H66_3 H 0.3430 0.9607 0.4340
H68_3 H 0.4057 0.9838 0.3634
C70_3 C 0.2595(3) 0.9710(4) 0.5053(4)
H70_3 H 0.2911 0.9484 0.4993
C72_3 C 0.2267(4) 0.9591(4) 0.5507(4)
C74_3 C 0.2401(4) 0.9132(4) 0.5878(4)
C76_3 C 0.1960(5) 0.8707(4) 0.5806(5)
H72_3 H 0.1597 0.8881 0.5849
H74_3 H 0.2005 0.8417 0.6085
H76_3 H 0.1988 0.8544 0.5437
C78_3 C 0.2383(3) 0.9382(4) 0.6475(4)
H78_3 H 0.2017 0.9541 0.6544
H80_3 H 0.2664 0.9670 0.6510
H82_3 H 0.2456 0.9089 0.6746
C80_3 C 0.2972(4) 0.8874(4) 0.5754(4)
H84_3 H 0.3074 0.8621 0.6053
H86_3 H 0.3249 0.9168 0.5724
H88_3 H 0.2954 0.8670 0.5404
O5_3 O 0.3943(2) 0.9398(2) 0.0858(2)
C1_3 C 0.5610(5) 0.8529(4) 0.9973(4)
H1_3 H 0.5297 0.8760 0.9861
C2_3 C 0.6585(5) 0.8296(4) 0.9677(6)
H5_3 H 0.6855 0.8441 0.9414
H6_3 H 0.6604 0.7892 0.9681
C3_3 C 0.5767(5) 0.8064(4) 0.9141(5)
H7_3 H 0.5726 0.7715 0.9343
H8_3 H 0.6011 0.8008 0.8823
H9_3 H 0.5405 0.8189 0.9012
C4_3 C 0.6004(3) 0.8478(4) 0.9505(4)
C5_3 C 0.6045(4) 0.9030(3) 0.9213(4)
C6_3 C 0.6490(3) 0.9396(3) 0.9246(3)
H10_3 H 0.6809 0.9262 0.9431
C7_3 C 0.6524(4) 0.9912(4) 0.9049(4)
H14_3 H 0.7489 0.9702 0.9552
O1_3 O 0.5602(2) 0.9142(2) 0.8943(2)
C43_3 C 0.4158(3) 0.8013(3) 0.9738(4)
C45_3 C 0.4004(4) 0.8031(4) 0.9198(5)
H53_3 H 0.3804 0.8339 0.9061
C47_3 C 0.4141(4) 0.7590(5) 0.8842(4)
H55_3 H 0.4057 0.7635 0.8462
C49_3 C 0.4384(3) 0.7103(3) 0.8997(4)
C51_3 C 0.4521(4) 0.7109(4) 0.9561(5)
H57_3 H 0.4692 0.6786 0.9705
C53_3 C 0.4431(4) 0.7537(4) 0.9926(4)
C55_3 C 0.4495(4) 0.6652(4) 0.8611(4)
C57_3 C 0.4252(4) 0.6611(4) 0.8145(4)
H61_3 H 0.4009 0.6899 0.8036
C59_3 C 0.4324(4) 0.6171(4) 0.7790(3)
H63_3 H 0.4085 0.6118 0.7484
C61_3 C 0.4766(4) 0.5799(4) 0.7896(4)
C63_3 C 0.5081(4) 0.5889(4) 0.8360(3)
H65_3 H 0.5393 0.5660 0.8430
C65_3 C 0.4950(4) 0.6311(3) 0.8732(3)
H67_3 H 0.5162 0.6366 0.9057
C67_3 C 0.4854(4) 0.5333(3) 0.7496(4)
C69_3 C 0.5290(4) 0.4947(4) 0.7595(3)
H69_3 H 0.5516 0.5007 0.7911
C71_3 C 0.5409(4) 0.4493(4) 0.7267(4)
C73_3 C 0.5868(4) 0.4122(4) 0.7401(4)
C75_3 C 0.6293(4) 0.4194(5) 0.6960(5)
H71_3 H 0.6119 0.4151 0.6597
H73_3 H 0.6583 0.3915 0.7005
H75_3 H 0.6456 0.4563 0.6988
C77_3 C 0.5618(4) 0.3525(4) 0.7383(3)
H77_3 H 0.5459 0.3456 0.7017
H79_3 H 0.5330 0.3490 0.7664
H81_3 H 0.5911 0.3254 0.7456
C79_3 C 0.6126(4) 0.4246(4) 0.7972(4)
H83_3 H 0.6379 0.3947 0.8074
H85_3 H 0.5832 0.4276 0.8249
H87_3 H 0.6330 0.4596 0.7954
C83_3 C 0.4548(3) 0.9824(3) 0.9412(3)
H93_3 H 0.4787 0.9595 0.9651
H95_3 H 0.4367 0.9578 0.9140
O7_3 O 0.3748(2) 0.8849(2) 0.98858(19)
C69_4 C 0.0290(4) 0.0053(4) 0.2405(3)
C71_4 C 0.0409(4) 0.0507(4) 0.2733(4)
C73_4 C 0.0868(4) 0.0878(4) 0.2599(4)
C75_4 C 0.1293(4) 0.0806(5) 0.3040(5)
H71_4 H 0.1119 0.0849 0.3403
H73_4 H 0.1583 0.1085 0.2995
H75_4 H 0.1456 0.0437 0.3012
C77_4 C 0.0618(4) 0.1475(4) 0.2617(3)
H77_4 H 0.0459 0.1544 0.2983
H79_4 H 0.0330 0.1510 0.2336
H81_4 H 0.0911 0.1746 0.2544
C79_4 C 0.1126(4) 0.0754(4) 0.2028(4)
H83_4 H 0.1379 0.1053 0.1926
H85_4 H 0.0832 0.0724 0.1751
H87_4 H 0.1330 0.0404 0.2046
O14_2 O 0.0153(2) 0.06041(19) 0.3181(2)
C1_4 C 0.0610(5) 0.6471(4) 0.0027(4)
H1_4 H 0.0297 0.6240 0.0139
C2_4 C 0.1585(5) 0.6704(4) 0.0323(6)
H5_4 H 0.1855 0.6559 0.0586
H6_4 H 0.1604 0.7108 0.0319
C3_4 C 0.0767(5) 0.6936(4) 0.0859(5)
H7_4 H 0.0726 0.7285 0.0657
H8_4 H 0.1011 0.6992 0.1177
H9_4 H 0.0405 0.6811 0.0988
C4_4 C 0.1004(3) 0.6522(4) 0.0495(4)
C5_4 C 0.1045(4) 0.5970(3) 0.0787(4)
C6_4 C 0.1490(3) 0.5604(3) 0.0754(3)
H10_4 H 0.1809 0.5738 0.0569
C7_4 C 0.1524(4) 0.5088(4) 0.0951(4)
C8_4 C 0.1987(3) 0.4738(4) 0.0842(3)
C9_4 C 0.1969(4) 0.4198(5) 0.0996(4)
H11_4 H 0.1661 0.4061 0.1196
C10_4 C 0.2410(5) 0.3842(4) 0.0859(4)
H12_4 H 0.2365 0.3462 0.0943
C11_4 C 0.2897(3) 0.3997(4) 0.0616(3)
C12_4 C 0.2891(4) 0.4561(5) 0.0479(4)
H13_4 H 0.3214 0.4705 0.0308
C13_4 C 0.2463(4) 0.4926(4) 0.0569(4)
H14_4 H 0.2489 0.5298 0.0448
C14_4 C 0.3348(4) 0.3611(4) 0.0505(4)
C15_4 C 0.3389(4) 0.3145(4) 0.0748(4)
H15_4 H 0.3101 0.3036 0.0991
C16_4 C 0.3829(4) 0.2790(3) 0.0676(4)
H16_4 H 0.3882 0.2484 0.0915
C17_4 C 0.4201(4) 0.2896(4) 0.0234(4)
C19_4 C 0.3689(3) 0.3732(3) 0.0050(4)
C20_4 C 0.4667(3) 0.2496(4) 0.0146(4)
C28_4 C 0.0176(3) 0.4412(3) 0.0452(3)
H31_4 H 0.0405 0.4651 0.0213
H32_4 H 0.0422 0.4140 0.0633
O1_4 O 0.0602(2) 0.5858(2) 0.1057(2)
O2_4 O 0.1151(2) 0.48858(19) 0.1252(2)
O3_2 O 0.46673(18) 0.2079(2) 0.0438(2)
Cu1_2 Cu 0.04744(4) 0.52171(4) 0.15056(4)
C63_4 C 0.0081(4) 0.9111(4) 0.1640(3)
H65_4 H 0.0393 0.9340 0.1570
H67_4 H 0.0162 0.8634 0.0943
H69_4 H 0.0516 0.9993 0.2089
O13_2 O 0.0438(2) 0.46673(18) 0.2079(2)
O16_2 O 0.06041(19) 0.3181(2) 0.0153(2)
Cu6_2 Cu 0.52171(4) 0.15056(4) 0.04744(4)
C70_4 C 0.2405(3) 0.0290(4) 0.0053(4)
C72_4 C 0.2733(4) 0.0409(4) 0.0507(4)
C74_4 C 0.2599(4) 0.0868(4) 0.0878(4)
C76_4 C 0.3040(5) 0.1293(4) 0.0806(5)
H72_4 H 0.3403 0.1119 0.0849
H74_4 H 0.2995 0.1583 0.1085
H76_4 H 0.3012 0.1456 0.0437
C78_4 C 0.2617(3) 0.0618(4) 0.1475(4)
H78_4 H 0.2983 0.0459 0.1544
H80_4 H 0.2336 0.0330 0.1510
H82_4 H 0.2544 0.0911 0.1746
C80_4 C 0.2028(4) 0.1126(4) 0.0754(4)
H84_4 H 0.1926 0.1379 0.1053
H86_4 H 0.1751 0.0832 0.0724
H88_4 H 0.2046 0.1330 0.0404
O15_2 O 0.3181(2) 0.0153(2) 0.06041(19)
C29_4 C 0.0027(4) 0.0610(5) 0.6471(4)
H33_4 H 0.0139 0.0297 0.6240
C31_4 C 0.0323(6) 0.1585(5) 0.6704(4)
H41_4 H 0.0586 0.1855 0.6559
H43_4 H 0.0319 0.1604 0.7108
C33_4 C 0.0859(5) 0.0767(5) 0.6936(4)
H45_4 H 0.0657 0.0726 0.7285
H47_4 H 0.1177 0.1011 0.6992
H49_4 H 0.0988 0.0405 0.6811
C35_4 C 0.0495(4) 0.1004(3) 0.6522(4)
C37_4 C 0.0787(4) 0.1045(4) 0.5970(3)
C39_4 C 0.0754(3) 0.1490(3) 0.5604(3)
H51_4 H 0.0569 0.1809 0.5738
C41_4 C 0.0951(4) 0.1524(4) 0.5088(4)
C43_4 C 0.0842(3) 0.1987(3) 0.4738(4)
C45_4 C 0.0996(4) 0.1969(4) 0.4198(5)
H53_4 H 0.1196 0.1661 0.4061
C47_4 C 0.0859(4) 0.2410(5) 0.3842(4)
H55_4 H 0.0943 0.2365 0.3462
C49_4 C 0.0616(3) 0.2897(3) 0.3997(4)
C51_4 C 0.0479(4) 0.2891(4) 0.4561(5)
H57_4 H 0.0308 0.3214 0.4705
C53_4 C 0.0569(4) 0.2463(4) 0.4926(4)
H59_4 H 0.0448 0.2489 0.5298
C55_4 C 0.0505(4) 0.3348(4) 0.3611(4)
C57_4 C 0.0748(4) 0.3389(4) 0.3145(4)
H61_4 H 0.0991 0.3101 0.3036
C59_4 C 0.0676(4) 0.3829(4) 0.2790(3)
H63_4 H 0.0915 0.3882 0.2484
C61_4 C 0.0234(4) 0.4201(4) 0.2896(4)
C64_4 C 0.1640(3) 0.0081(4) 0.9111(4)
H66_4 H 0.1570 0.0393 0.9340
C65_4 C 0.0050(4) 0.3689(3) 0.3732(3)
H68_4 H 0.0943 0.0162 0.8634
C67_4 C 0.0146(4) 0.4667(3) 0.2496(4)
H70_4 H 0.2089 0.0516 0.9993
C83_4 C 0.0452(3) 0.0176(3) 0.4412(3)
H93_4 H 0.0213 0.0405 0.4651
H95_4 H 0.0633 0.0422 0.4140
O5_4 O 0.1057(2) 0.0602(2) 0.5858(2)
O7_4 O 0.1252(2) 0.1151(2) 0.48858(19)
O12_2 O 0.2079(2) 0.0438(2) 0.46673(18)
Cu2_2 Cu 0.15056(4) 0.04744(4) 0.52171(4)
C21_4 C 0.0053(4) 0.2405(3) 0.0290(4)
C22_4 C 0.0507(4) 0.2733(4) 0.0409(4)
C23_4 C 0.0878(4) 0.2599(4) 0.0868(4)
C24_4 C 0.0806(5) 0.3040(5) 0.1293(4)
H20_4 H 0.0849 0.3403 0.1119
H21_4 H 0.1085 0.2995 0.1583
H22_4 H 0.0437 0.3012 0.1456
C25_4 C 0.1475(4) 0.2617(3) 0.0618(4)
H23_4 H 0.1544 0.2983 0.0459
H24_4 H 0.1510 0.2336 0.0330
H25_4 H 0.1746 0.2544 0.0911
C26_4 C 0.0754(4) 0.2028(4) 0.1126(4)
H26_4 H 0.1053 0.1926 0.1379
H27_4 H 0.0724 0.1751 0.0832
H28_4 H 0.0404 0.2046 0.1330
C18_4 C 0.9111(4) 0.1640(3) 0.0081(4)
H17_4 H 0.9340 0.1570 0.0393
H18_4 H 0.8634 0.0943 0.0162
H19_4 H 0.9993 0.2089 0.0516
C30_4 C 0.6471(4) 0.0027(4) 0.0610(5)
H34_4 H 0.6240 0.0139 0.0297
C32_4 C 0.6704(4) 0.0323(6) 0.1585(5)
H42_4 H 0.6559 0.0586 0.1855
H44_4 H 0.7108 0.0319 0.1604
C34_4 C 0.6936(4) 0.0859(5) 0.0767(5)
H46_4 H 0.7285 0.0657 0.0726
H48_4 H 0.6992 0.1177 0.1011
H50_4 H 0.6811 0.0988 0.0405
C36_4 C 0.6522(4) 0.0495(4) 0.1004(3)
C38_4 C 0.5970(3) 0.0787(4) 0.1045(4)
C40_4 C 0.5604(3) 0.0754(3) 0.1490(3)
H52_4 H 0.5738 0.0569 0.1809
C42_4 C 0.5088(4) 0.0951(4) 0.1524(4)
C44_4 C 0.4738(4) 0.0842(3) 0.1987(3)
C46_4 C 0.4198(5) 0.0996(4) 0.1969(4)
H54_4 H 0.4061 0.1196 0.1661
C48_4 C 0.3842(4) 0.0859(4) 0.2410(5)
H56_4 H 0.3462 0.0943 0.2365
C50_4 C 0.3997(4) 0.0616(3) 0.2897(3)
C52_4 C 0.4561(5) 0.0479(4) 0.2891(4)
H58_4 H 0.4705 0.0308 0.3214
C54_4 C 0.4926(4) 0.0569(4) 0.2463(4)
H60_4 H 0.5298 0.0448 0.2489
C56_4 C 0.3611(4) 0.0505(4) 0.3348(4)
C58_4 C 0.3145(4) 0.0748(4) 0.3389(4)
H62_4 H 0.3036 0.0991 0.3101
C60_4 C 0.2790(3) 0.0676(4) 0.3829(4)
H64_4 H 0.2484 0.0915 0.3882
C62_4 C 0.2896(4) 0.0234(4) 0.4201(4)
C66_4 C 0.3732(3) 0.0050(4) 0.3689(3)
C68_4 C 0.2496(4) 0.0146(4) 0.4667(3)
C84_4 C 0.4412(3) 0.0452(3) 0.0176(3)
H94_4 H 0.4651 0.0213 0.0405
H96_4 H 0.4140 0.0633 0.0422
O6_4 O 0.5858(2) 0.1057(2) 0.0602(2)
O8_4 O 0.48858(19) 0.1252(2) 0.1151(2)
loop_
_geom_bond_atom_site_label_1
_geom_bond_atom_site_label_2
_geom_bond_site_symmetry_1
_geom_bond_site_symmetry_2
C1 H1 1_555 1_555
H2 C1 1_555 1_555
H3 C1 1_555 1_555
C2 H4 1_555 1_555
H5 C2 1_555 1_555
H6 C2 1_555 1_555
C3 H7 1_555 1_555
H8 C3 1_555 1_555
H9 C3 1_555 1_555
C4 C1 1_555 1_555
C5 C4 1_555 1_555
C6 C5 1_555 1_555
H10 C6 1_555 1_555
C7 C6 1_555 1_555
C8 C7 1_555 1_555
C9 C8 1_555 1_555
H11 C9 1_555 1_555
C10 C9 1_555 1_555
H12 C10 1_555 1_555
C11 C10 1_555 1_555
C12 C11 1_555 1_555
H13 C12 1_555 1_555
C13 C8 1_555 1_555
H14 C13 1_555 1_555
C14 C11 1_555 1_555
C15 C14 1_555 1_555
H15 C15 1_555 1_555
C16 C15 1_555 1_555
H16 C16 1_555 1_555
C17 C16 1_555 1_555
C18 C17 1_555 1_555
H17 C18 1_555 1_555
C19 C14 1_555 1_555
H18 C19 1_555 1_555
C20 C17 1_555 1_555
C27 H29 1_555 1_555
H30 C27 1_555 1_555
C28 H31 1_555 1_555
H32 C28 1_555 1_555
N1 C27 1_555 1_555
N2 C27 1_555 1_555
O1 C5 1_555 1_555
O2 C7 1_555 1_555
O3 C20 1_555 1_555
Cu1 N1 1_555 1_555
C29 H33 1_555 1_555
C30 H34 1_555 1_555
H35 C29 1_555 1_555
H36 C30 1_555 1_555
H37 C29 1_555 1_555
H38 C30 1_555 1_555
C31 H39 1_555 1_555
C32 H40 1_555 1_555
H41 C31 1_555 1_555
H42 C32 1_555 1_555
H43 C31 1_555 1_555
H44 C32 1_555 1_555
C33 H45 1_555 1_555
C34 H46 1_555 1_555
H47 C33 1_555 1_555
H48 C34 1_555 1_555
H49 C33 1_555 1_555
H50 C34 1_555 1_555
C35 C29 1_555 1_555
C36 C30 1_555 1_555
C37 C35 1_555 1_555
C38 C36 1_555 1_555
C39 C37 1_555 1_555
C40 C38 1_555 1_555
H51 C39 1_555 1_555
H52 C40 1_555 1_555
C41 C39 1_555 1_555
C42 C40 1_555 1_555
C43 C41 1_555 1_555
C44 C42 1_555 1_555
C45 C43 1_555 1_555
C46 C44 1_555 1_555
H53 C45 1_555 1_555
H54 C46 1_555 1_555
C47 C45 1_555 1_555
C48 C46 1_555 1_555
H55 C47 1_555 1_555
H56 C48 1_555 1_555
C49 C47 1_555 1_555
C50 C48 1_555 1_555
C51 C49 1_555 1_555
C52 C50 1_555 1_555
H57 C51 1_555 1_555
H58 C52 1_555 1_555
C53 C43 1_555 1_555
C54 C44 1_555 1_555
H59 C53 1_555 1_555
H60 C54 1_555 1_555
C55 C49 1_555 1_555
C56 C50 1_555 1_555
C57 C55 1_555 1_555
C58 C56 1_555 1_555
H61 C57 1_555 1_555
H62 C58 1_555 1_555
C59 C57 1_555 1_555
C60 C58 1_555 1_555
H63 C59 1_555 1_555
H64 C60 1_555 1_555
C61 C59 1_555 1_555
C62 C60 1_555 1_555
C63 C61 1_555 1_555
C64 C62 1_555 1_555
H65 C63 1_555 1_555
H66 C64 1_555 1_555
C65 C55 1_555 1_555
C66 C56 1_555 1_555
H67 C65 1_555 1_555
H68 C66 1_555 1_555
C67 C61 1_555 1_555
C68 C62 1_555 1_555
C81 N2 1_555 1_555
C82 N2 1_555 1_555
H89 C81 1_555 1_555
H90 C82 1_555 1_555
H91 C81 1_555 1_555
H92 C82 1_555 1_555
C83 N1 1_555 1_555
C84 H94 1_555 1_555
H93 C83 1_555 1_555
H95 C83 1_555 1_555
H96 C84 1_555 1_555
N3 C81 1_555 1_555
N4 C28 1_555 1_555
O5 C37 1_555 1_555
O6 C38 1_555 1_555
O7 C41 1_555 1_555
O8 C42 1_555 1_555
O9 C67 1_555 1_555
O10 C68 1_555 1_555
O11 Cu3 1_555 1_555
O12 Cu2 1_555 1_555
O13 Cu1 1_555 1_555
O16 Cu3 1_555 1_555
O17 Cu2 1_555 1_555
O18 Cu1 1_555 1_555
Cu2 N3 1_555 1_555
Cu3 N4 1_555 1_555
C2 C4 1_555 1_555
C3 C4 1_555 1_555
C12 C13 1_555 1_555
C18 C19 1_555 1_555
C28 N1 1_555 1_555
O1 Cu1 1_555 1_555
O2 Cu1 1_555 1_555
C31 C35 1_555 1_555
C32 C36 1_555 1_555
C33 C35 1_555 1_555
C34 C36 1_555 1_555
C51 C53 1_555 1_555
C52 C54 1_555 1_555
C63 C65 1_555 1_555
C64 C66 1_555 1_555
C82 N4 1_555 1_555
C83 N3 1_555 1_555
C84 N3 1_555 1_555
C84 N4 1_555 1_555
O5 Cu2 1_555 1_555
O6 Cu3 1_555 1_555
O7 Cu2 1_555 1_555
O8 Cu3 1_555 1_555
C72 C70 1_555 1_555
C74 C72 1_555 1_555
C76 C74 1_555 1_555
H72 C76 1_555 1_555
H74 C76 1_555 1_555
H76 C76 1_555 1_555
C78 C74 1_555 1_555
H78 C78 1_555 1_555
H80 C78 1_555 1_555
H82 C78 1_555 1_555
C80 C74 1_555 1_555
H84 C80 1_555 1_555
H86 C80 1_555 1_555
H88 C80 1_555 1_555
O15 C72 1_555 1_555
O15 Cu5 1_555 1_555
C71 C69 1_555 1_555
C73 C71 1_555 1_555
C75 C73 1_555 1_555
H71 C75 1_555 1_555
H73 C75 1_555 1_555
H75 C75 1_555 1_555
C77 C73 1_555 1_555
H77 C77 1_555 1_555
H79 C77 1_555 1_555
H81 C77 1_555 1_555
C79 C73 1_555 1_555
H83 C79 1_555 1_555
H85 C79 1_555 1_555
H87 C79 1_555 1_555
O14 C71 1_555 1_555
O14 Cu4 1_555 1_555
C22 C21 1_555 1_555
C23 C22 1_555 1_555
C24 C23 1_555 1_555
H20 C24 1_555 1_555
H21 C24 1_555 1_555
H22 C24 1_555 1_555
C25 C23 1_555 1_555
H23 C25 1_555 1_555
H24 C25 1_555 1_555
H25 C25 1_555 1_555
C26 C23 1_555 1_555
H26 C26 1_555 1_555
H27 C26 1_555 1_555
H28 C26 1_555 1_555
O4 C22 1_555 1_555
O4 Cu6 1_555 1_555
H17_2 C18_2 1_555 1_555
H19_2 C21_2 1_555 1_555
C22_2 C21_2 1_555 1_555
C23_2 C22_2 1_555 1_555
C24_2 C23_2 1_555 1_555
H20_2 C24_2 1_555 1_555
H21_2 C24_2 1_555 1_555
H22_2 C24_2 1_555 1_555
C25_2 C23_2 1_555 1_555
H23_2 C25_2 1_555 1_555
H24_2 C25_2 1_555 1_555
H25_2 C25_2 1_555 1_555
C26_2 C23_2 1_555 1_555
H26_2 C26_2 1_555 1_555
H27_2 C26_2 1_555 1_555
H28_2 C26_2 1_555 1_555
O4_2 C22_2 1_555 1_555
C30_2 H34_2 1_555 1_555
H36_2 C30_2 1_555 1_555
H38_2 C30_2 1_555 1_555
C32_2 H40_2 1_555 1_555
H42_2 C32_2 1_555 1_555
H44_2 C32_2 1_555 1_555
C34_2 H46_2 1_555 1_555
H48_2 C34_2 1_555 1_555
H50_2 C34_2 1_555 1_555
C36_2 C30_2 1_555 1_555
C38_2 C36_2 1_555 1_555
C40_2 C38_2 1_555 1_555
H52_2 C40_2 1_555 1_555
C42_2 C40_2 1_555 1_555
O6_2 C38_2 1_555 1_555
C32_2 C36_2 1_555 1_555
C34_2 C36_2 1_555 1_555
O6_2 Cu3_2 1_555 1_555
C27_2 H29_2 1_555 1_555
H30_2 C27_2 1_555 1_555
N1_2 C27_2 1_555 1_555
N2_2 C27_2 1_555 1_555
C45_2 C43_2 1_555 1_555
H53_2 C45_2 1_555 1_555
C47_2 C45_2 1_555 1_555
H55_2 C47_2 1_555 1_555
C49_2 C47_2 1_555 1_555
C51_2 C49_2 1_555 1_555
H57_2 C51_2 1_555 1_555
C53_2 C43_2 1_555 1_555
C55_2 C49_2 1_555 1_555
C57_2 C55_2 1_555 1_555
H61_2 C57_2 1_555 1_555
C59_2 C57_2 1_555 1_555
H63_2 C59_2 1_555 1_555
C61_2 C59_2 1_555 1_555
C65_2 C55_2 1_555 1_555
C67_2 C61_2 1_555 1_555
C81_2 N2_2 1_555 1_555
C82_2 N2_2 1_555 1_555
H89_2 C81_2 1_555 1_555
H90_2 C82_2 1_555 1_555
H91_2 C81_2 1_555 1_555
H92_2 C82_2 1_555 1_555
C83_2 N1_2 1_555 1_555
H93_2 C83_2 1_555 1_555
H95_2 C83_2 1_555 1_555
N3_2 C81_2 1_555 1_555
O9_2 C67_2 1_555 1_555
C51_2 C53_2 1_555 1_555
C82_2 N4_2 1_555 1_555
C83_2 N3_2 1_555 1_555
C29_2 H33_2 1_555 1_555
H41_2 C31_2 1_555 1_555
H43_2 C31_2 1_555 1_555
C33_2 H45_2 1_555 1_555
H47_2 C33_2 1_555 1_555
H49_2 C33_2 1_555 1_555
C35_2 C29_2 1_555 1_555
C37_2 C35_2 1_555 1_555
C39_2 C37_2 1_555 1_555
H51_2 C39_2 1_555 1_555
C41_2 C39_2 1_555 1_555
C46_2 C44_2 1_555 1_555
H54_2 C46_2 1_555 1_555
C48_2 C46_2 1_555 1_555
H56_2 C48_2 1_555 1_555
C50_2 C48_2 1_555 1_555
C52_2 C50_2 1_555 1_555
H58_2 C52_2 1_555 1_555
C54_2 C44_2 1_555 1_555
C56_2 C50_2 1_555 1_555
C58_2 C56_2 1_555 1_555
H62_2 C58_2 1_555 1_555
C60_2 C58_2 1_555 1_555
H64_2 C60_2 1_555 1_555
C62_2 C60_2 1_555 1_555
C64_2 C62_2 1_555 1_555
H66_2 C64_2 1_555 1_555
C66_2 C56_2 1_555 1_555
H68_2 C66_2 1_555 1_555
C68_2 C62_2 1_555 1_555
C70_2 C68_2 1_555 1_555
H70_2 C70_2 1_555 1_555
C72_2 C70_2 1_555 1_555
C74_2 C72_2 1_555 1_555
C76_2 C74_2 1_555 1_555
H72_2 C76_2 1_555 1_555
H74_2 C76_2 1_555 1_555
H76_2 C76_2 1_555 1_555
C78_2 C74_2 1_555 1_555
H78_2 C78_2 1_555 1_555
H80_2 C78_2 1_555 1_555
H82_2 C78_2 1_555 1_555
C80_2 C74_2 1_555 1_555
H84_2 C80_2 1_555 1_555
H86_2 C80_2 1_555 1_555
H88_2 C80_2 1_555 1_555
C84_2 H94_2 1_555 1_555
H96_2 C84_2 1_555 1_555
O5_2 C37_2 1_555 1_555
O12 C68_2 1_555 1_555
O17 C72_2 1_555 1_555
C31_2 C35_2 1_555 1_555
C33_2 C35_2 1_555 1_555
C52_2 C54_2 1_555 1_555
C64_2 C66_2 1_555 1_555
O5_2 Cu5 1_555 1_555
C27_3 H29_3 1_555 1_555
H30_3 C27_3 1_555 1_555
N1_3 C27_3 1_555 1_555
N2_3 C27_3 1_555 1_555
C46_3 C44_3 1_555 1_555
H54_3 C46_3 1_555 1_555
C48_3 C46_3 1_555 1_555
H56_3 C48_3 1_555 1_555
C50_3 C48_3 1_555 1_555
C52_3 C50_3 1_555 1_555
H58_3 C52_3 1_555 1_555
C54_3 C44_3 1_555 1_555
C56_3 C50_3 1_555 1_555
C58_3 C56_3 1_555 1_555
H62_3 C58_3 1_555 1_555
C60_3 C58_3 1_555 1_555
H64_3 C60_3 1_555 1_555
C62_3 C60_3 1_555 1_555
C66_3 C56_3 1_555 1_555
C68_3 C62_3 1_555 1_555
C81_3 N2_3 1_555 1_555
C82_3 N2_3 1_555 1_555
H89_3 C81_3 1_555 1_555
H90_3 C82_3 1_555 1_555
H91_3 C81_3 1_555 1_555
H92_3 C82_3 1_555 1_555
C84_3 H94_3 1_555 1_555
H96_3 C84_3 1_555 1_555
N3_3 C81_3 1_555 1_555
O10_2 C68_3 1_555 1_555
C52_3 C54_3 1_555 1_555
C82_3 N4_3 1_555 1_555
C84_3 N3_3 1_555 1_555
C84_3 N4_3 1_555 1_555
C1_2 H1_2 1_555 1_555
H2_3 C1_2 1_555 1_555
H3_3 C1_2 1_555 1_555
C2_2 H4_3 1_555 1_555
H5_2 C2_2 1_555 1_555
H6_2 C2_2 1_555 1_555
C3_2 H7_2 1_555 1_555
H8_2 C3_2 1_555 1_555
H9_2 C3_2 1_555 1_555
C4_2 C1_2 1_555 1_555
C5_2 C4_2 1_555 1_555
C6_2 C5_2 1_555 1_555
H10_2 C6_2 1_555 1_555
C7_2 C6_2 1_555 1_555
O1_2 C5_2 1_555 1_555
H65_2 C63_2 1_555 1_555
H69_2 C69_2 1_555 1_555
C71_2 C69_2 1_555 1_555
C73_2 C71_2 1_555 1_555
C75_2 C73_2 1_555 1_555
H71_2 C75_2 1_555 1_555
H73_2 C75_2 1_555 1_555
H75_2 C75_2 1_555 1_555
C77_2 C73_2 1_555 1_555
H77_2 C77_2 1_555 1_555
H79_2 C77_2 1_555 1_555
H81_2 C77_2 1_555 1_555
C79_2 C73_2 1_555 1_555
H83_2 C79_2 1_555 1_555
H85_2 C79_2 1_555 1_555
H87_2 C79_2 1_555 1_555
O18_2 C71_2 1_555 1_555
C2_2 C4_2 1_555 1_555
C3_2 C4_2 1_555 1_555
O1_2 Cu4_2 1_555 1_555
C9_2 C8_2 1_555 1_555
H11_2 C9_2 1_555 1_555
C10_2 C9_2 1_555 1_555
H12_2 C10_2 1_555 1_555
C11_2 C10_2 1_555 1_555
C12_2 C11_2 1_555 1_555
H13_2 C12_2 1_555 1_555
C13_2 C8_2 1_555 1_555
C14_2 C11_2 1_555 1_555
C15_2 C14_2 1_555 1_555
H15_2 C15_2 1_555 1_555
C16_2 C15_2 1_555 1_555
H16_2 C16_2 1_555 1_555
C17_2 C16_2 1_555 1_555
C18_3 C17_2 1_555 1_555
H17_3 C18_3 1_555 1_555
C19_2 C14_2 1_555 1_555
H18_3 C19_2 1_555 1_555
C20_2 C17_2 1_555 1_555
C21_3 C20_2 1_555 1_555
H19_3 C21_3 1_555 1_555
C22_3 C21_3 1_555 1_555
C23_3 C22_3 1_555 1_555
C24_3 C23_3 1_555 1_555
H20_3 C24_3 1_555 1_555
H21_3 C24_3 1_555 1_555
H22_3 C24_3 1_555 1_555
C25_3 C23_3 1_555 1_555
H23_3 C25_3 1_555 1_555
H24_3 C25_3 1_555 1_555
H25_3 C25_3 1_555 1_555
C26_3 C23_3 1_555 1_555
H26_3 C26_3 1_555 1_555
H27_3 C26_3 1_555 1_555
H28_3 C26_3 1_555 1_555
C28_2 H31_2 1_555 1_555
H32_2 C28_2 1_555 1_555
O11 C20_2 1_555 1_555
O16 C22_3 1_555 1_555
C30_3 H34_3 1_555 1_555
H42_3 C32_3 1_555 1_555
H44_3 C32_3 1_555 1_555
C34_3 H46_3 1_555 1_555
H48_3 C34_3 1_555 1_555
H50_3 C34_3 1_555 1_555
C36_3 C30_3 1_555 1_555
C38_3 C36_3 1_555 1_555
C40_3 C38_3 1_555 1_555
H52_3 C40_3 1_555 1_555
C42_3 C40_3 1_555 1_555
O6_3 C38_3 1_555 1_555
C12_2 C13_2 1_555 1_555
C18_3 C19_2 1_555 1_555
C32_3 C36_3 1_555 1_555
C34_3 C36_3 1_555 1_555
O6_3 Cu6 1_555 1_555
C9_3 C8_3 1_555 1_555
H11_3 C9_3 1_555 1_555
C10_3 C9_3 1_555 1_555
H12_3 C10_3 1_555 1_555
C11_3 C10_3 1_555 1_555
C12_3 C11_3 1_555 1_555
H13_3 C12_3 1_555 1_555
C13_3 C8_3 1_555 1_555
C14_3 C11_3 1_555 1_555
C15_3 C14_3 1_555 1_555
H15_3 C15_3 1_555 1_555
C16_3 C15_3 1_555 1_555
H16_3 C16_3 1_555 1_555
C17_3 C16_3 1_555 1_555
C19_3 C14_3 1_555 1_555
C20_3 C17_3 1_555 1_555
C27_4 H29_4 1_555 1_555
H30_4 C27_4 1_555 1_555
C28_3 H31_3 1_555 1_555
H32_3 C28_3 1_555 1_555
N1_4 C27_4 1_555 1_555
N2_4 C27_4 1_555 1_555
O11_2 C20_3 1_555 1_555
C81_4 N2_4 1_555 1_555
C82_4 N2_4 1_555 1_555
H89_4 C81_4 1_555 1_555
H90_4 C82_4 1_555 1_555
H91_4 C81_4 1_555 1_555
H92_4 C82_4 1_555 1_555
N3_4 C81_4 1_555 1_555
N4_4 C28_3 1_555 1_555
C12_3 C13_3 1_555 1_555
C28_3 N1_4 1_555 1_555
C82_4 N4_4 1_555 1_555
C29_3 H33_3 1_555 1_555
H35_4 C29_3 1_555 1_555
H37_4 C29_3 1_555 1_555
C31_3 H39_4 1_555 1_555
H41_3 C31_3 1_555 1_555
H43_3 C31_3 1_555 1_555
C33_3 H45_3 1_555 1_555
H47_3 C33_3 1_555 1_555
H49_3 C33_3 1_555 1_555
C35_3 C29_3 1_555 1_555
C37_3 C35_3 1_555 1_555
C39_3 C37_3 1_555 1_555
H51_3 C39_3 1_555 1_555
C41_3 C39_3 1_555 1_555
H66_3 C64_3 1_555 1_555
H70_3 C70_3 1_555 1_555
C72_3 C70_3 1_555 1_555
C74_3 C72_3 1_555 1_555
C76_3 C74_3 1_555 1_555
H72_3 C76_3 1_555 1_555
H74_3 C76_3 1_555 1_555
H76_3 C76_3 1_555 1_555
C78_3 C74_3 1_555 1_555
H78_3 C78_3 1_555 1_555
H80_3 C78_3 1_555 1_555
H82_3 C78_3 1_555 1_555
C80_3 C74_3 1_555 1_555
H84_3 C80_3 1_555 1_555
H86_3 C80_3 1_555 1_555
H88_3 C80_3 1_555 1_555
O5_3 C37_3 1_555 1_555
O17_2 C72_3 1_555 1_555
C31_3 C35_3 1_555 1_555
C33_3 C35_3 1_555 1_555
O5_3 Cu5_2 1_555 1_555
C1_3 H1_3 1_555 1_555
H5_3 C2_3 1_555 1_555
H6_3 C2_3 1_555 1_555
C3_3 H7_3 1_555 1_555
H8_3 C3_3 1_555 1_555
H9_3 C3_3 1_555 1_555
C4_3 C1_3 1_555 1_555
C5_3 C4_3 1_555 1_555
C6_3 C5_3 1_555 1_555
H10_3 C6_3 1_555 1_555
C7_3 C6_3 1_555 1_555
O1_3 C5_3 1_555 1_555
C45_3 C43_3 1_555 1_555
H53_3 C45_3 1_555 1_555
C47_3 C45_3 1_555 1_555
H55_3 C47_3 1_555 1_555
C49_3 C47_3 1_555 1_555
C51_3 C49_3 1_555 1_555
H57_3 C51_3 1_555 1_555
C53_3 C43_3 1_555 1_555
C55_3 C49_3 1_555 1_555
C57_3 C55_3 1_555 1_555
H61_3 C57_3 1_555 1_555
C59_3 C57_3 1_555 1_555
H63_3 C59_3 1_555 1_555
C61_3 C59_3 1_555 1_555
C63_3 C61_3 1_555 1_555
H65_3 C63_3 1_555 1_555
C65_3 C55_3 1_555 1_555
H67_3 C65_3 1_555 1_555
C67_3 C61_3 1_555 1_555
C69_3 C67_3 1_555 1_555
H69_3 C69_3 1_555 1_555
C71_3 C69_3 1_555 1_555
C73_3 C71_3 1_555 1_555
C75_3 C73_3 1_555 1_555
H71_3 C75_3 1_555 1_555
H73_3 C75_3 1_555 1_555
H75_3 C75_3 1_555 1_555
C77_3 C73_3 1_555 1_555
H77_3 C77_3 1_555 1_555
H79_3 C77_3 1_555 1_555
H81_3 C77_3 1_555 1_555
C79_3 C73_3 1_555 1_555
H83_3 C79_3 1_555 1_555
H85_3 C79_3 1_555 1_555
H87_3 C79_3 1_555 1_555
H93_3 C83_3 1_555 1_555
H95_3 C83_3 1_555 1_555
O13 C67_3 1_555 1_555
O18 C71_3 1_555 1_555
C2_3 C4_3 1_555 1_555
C3_3 C4_3 1_555 1_555
O1_3 Cu4 1_555 1_555
C51_3 C53_3 1_555 1_555
C63_3 C65_3 1_555 1_555
C71_4 C69_4 1_555 1_555
C73_4 C71_4 1_555 1_555
C75_4 C73_4 1_555 1_555
H71_4 C75_4 1_555 1_555
H73_4 C75_4 1_555 1_555
H75_4 C75_4 1_555 1_555
C77_4 C73_4 1_555 1_555
H77_4 C77_4 1_555 1_555
H79_4 C77_4 1_555 1_555
H81_4 C77_4 1_555 1_555
C79_4 C73_4 1_555 1_555
H83_4 C79_4 1_555 1_555
H85_4 C79_4 1_555 1_555
H87_4 C79_4 1_555 1_555
O14_2 C71_4 1_555 1_555
C1_4 H1_4 1_555 1_555
H5_4 C2_4 1_555 1_555
H6_4 C2_4 1_555 1_555
C3_4 H7_4 1_555 1_555
H8_4 C3_4 1_555 1_555
H9_4 C3_4 1_555 1_555
C4_4 C1_4 1_555 1_555
C5_4 C4_4 1_555 1_555
C6_4 C5_4 1_555 1_555
H10_4 C6_4 1_555 1_555
C7_4 C6_4 1_555 1_555
C8_4 C7_4 1_555 1_555
C9_4 C8_4 1_555 1_555
H11_4 C9_4 1_555 1_555
C10_4 C9_4 1_555 1_555
H12_4 C10_4 1_555 1_555
C11_4 C10_4 1_555 1_555
C12_4 C11_4 1_555 1_555
H13_4 C12_4 1_555 1_555
C13_4 C8_4 1_555 1_555
H14_4 C13_4 1_555 1_555
C14_4 C11_4 1_555 1_555
C15_4 C14_4 1_555 1_555
H15_4 C15_4 1_555 1_555
C16_4 C15_4 1_555 1_555
H16_4 C16_4 1_555 1_555
C17_4 C16_4 1_555 1_555
C19_4 C14_4 1_555 1_555
C20_4 C17_4 1_555 1_555
C28_4 H31_4 1_555 1_555
H32_4 C28_4 1_555 1_555
O1_4 C5_4 1_555 1_555
O2_4 C7_4 1_555 1_555
O3_2 C20_4 1_555 1_555
H65_4 C63_4 1_555 1_555
O13_2 Cu1_2 1_555 1_555
Cu6_2 O3_2 1_555 1_555
C2_4 C4_4 1_555 1_555
C3_4 C4_4 1_555 1_555
C12_4 C13_4 1_555 1_555
O1_4 Cu1_2 1_555 1_555
O2_4 Cu1_2 1_555 1_555
C72_4 C70_4 1_555 1_555
C74_4 C72_4 1_555 1_555
C76_4 C74_4 1_555 1_555
H72_4 C76_4 1_555 1_555
H74_4 C76_4 1_555 1_555
H76_4 C76_4 1_555 1_555
C78_4 C74_4 1_555 1_555
H78_4 C78_4 1_555 1_555
H80_4 C78_4 1_555 1_555
H82_4 C78_4 1_555 1_555
C80_4 C74_4 1_555 1_555
H84_4 C80_4 1_555 1_555
H86_4 C80_4 1_555 1_555
H88_4 C80_4 1_555 1_555
O15_2 C72_4 1_555 1_555
C29_4 H33_4 1_555 1_555
H41_4 C31_4 1_555 1_555
H43_4 C31_4 1_555 1_555
C33_4 H45_4 1_555 1_555
H47_4 C33_4 1_555 1_555
H49_4 C33_4 1_555 1_555
C35_4 C29_4 1_555 1_555
C37_4 C35_4 1_555 1_555
C39_4 C37_4 1_555 1_555
H51_4 C39_4 1_555 1_555
C41_4 C39_4 1_555 1_555
C43_4 C41_4 1_555 1_555
C45_4 C43_4 1_555 1_555
H53_4 C45_4 1_555 1_555
C47_4 C45_4 1_555 1_555
H55_4 C47_4 1_555 1_555
C49_4 C47_4 1_555 1_555
C51_4 C49_4 1_555 1_555
H57_4 C51_4 1_555 1_555
C53_4 C43_4 1_555 1_555
H59_4 C53_4 1_555 1_555
C55_4 C49_4 1_555 1_555
C57_4 C55_4 1_555 1_555
H61_4 C57_4 1_555 1_555
C59_4 C57_4 1_555 1_555
H63_4 C59_4 1_555 1_555
C61_4 C59_4 1_555 1_555
H66_4 C64_4 1_555 1_555
C65_4 C55_4 1_555 1_555
C67_4 C61_4 1_555 1_555
H93_4 C83_4 1_555 1_555
H95_4 C83_4 1_555 1_555
O5_4 C37_4 1_555 1_555
O7_4 C41_4 1_555 1_555
O13_2 C67_4 1_555 1_555
O12_2 Cu2_2 1_555 1_555
C31_4 C35_4 1_555 1_555
C33_4 C35_4 1_555 1_555
C51_4 C53_4 1_555 1_555
O5_4 Cu2_2 1_555 1_555
O7_4 Cu2_2 1_555 1_555
C22_4 C21_4 1_555 1_555
C23_4 C22_4 1_555 1_555
C24_4 C23_4 1_555 1_555
H20_4 C24_4 1_555 1_555
H21_4 C24_4 1_555 1_555
H22_4 C24_4 1_555 1_555
C25_4 C23_4 1_555 1_555
H23_4 C25_4 1_555 1_555
H24_4 C25_4 1_555 1_555
H25_4 C25_4 1_555 1_555
C26_4 C23_4 1_555 1_555
H26_4 C26_4 1_555 1_555
H27_4 C26_4 1_555 1_555
H28_4 C26_4 1_555 1_555
O16_2 C22_4 1_555 1_555
H17_4 C18_4 1_555 1_555
C30_4 H34_4 1_555 1_555
H42_4 C32_4 1_555 1_555
H44_4 C32_4 1_555 1_555
C34_4 H46_4 1_555 1_555
H48_4 C34_4 1_555 1_555
H50_4 C34_4 1_555 1_555
C36_4 C30_4 1_555 1_555
C38_4 C36_4 1_555 1_555
C40_4 C38_4 1_555 1_555
H52_4 C40_4 1_555 1_555
C42_4 C40_4 1_555 1_555
C44_4 C42_4 1_555 1_555
C46_4 C44_4 1_555 1_555
H54_4 C46_4 1_555 1_555
C48_4 C46_4 1_555 1_555
H56_4 C48_4 1_555 1_555
C50_4 C48_4 1_555 1_555
C52_4 C50_4 1_555 1_555
H58_4 C52_4 1_555 1_555
C54_4 C44_4 1_555 1_555
H60_4 C54_4 1_555 1_555
C56_4 C50_4 1_555 1_555
C58_4 C56_4 1_555 1_555
H62_4 C58_4 1_555 1_555
C60_4 C58_4 1_555 1_555
H64_4 C60_4 1_555 1_555
C62_4 C60_4 1_555 1_555
C66_4 C56_4 1_555 1_555
C68_4 C62_4 1_555 1_555
C84_4 H94_4 1_555 1_555
H96_4 C84_4 1_555 1_555
O6_4 C38_4 1_555 1_555
O8_4 C42_4 1_555 1_555
O12_2 C68_4 1_555 1_555
C32_4 C36_4 1_555 1_555
C34_4 C36_4 1_555 1_555
C52_4 C54_4 1_555 1_555
O6_4 Cu6_2 1_555 1_555
O8_4 Cu6_2 1_555 1_555

#END
