
###############################################################################
#
# This file contains modified crystal structure data generated from the
# MOF subset of the Cambridge Structural Database (CSD) v543 
# hosted by the Cambridge Crystallographic Data Centre (CCDC).
#
# This work is licensed under the Creative Commons
# Attribution-NonCommercial-ShareAlike 4.0 International License.
# To view a copy of this license, visit
# http://creativecommons.org/licenses/by-nc-sa/4.0/
# or send a letter to
# Creative Commons, PO Box 1866, Mountain View, CA 94042, USA.
#
# CIF created using the CSD Python API on 29 September 2022
# The structure has been converted into the P1 space group
# The structure has a 3D framework
# The original CSD entry XUNHAQ is in the monoclinic crystal system
# The original CSD entry XUNHAQ is in a Sohncke space group
# The framework has been calculated to contain at least 10.0% void space
# The void calculation uses a probe of radius 1.32A, grid spacing 0.4
#
###############################################################################

data_XUNHAQ
_chemical_formula_moiety         '(C24 H16 Li4 N4 O7)n'
_symmetry_cell_setting           triclinic
_symmetry_space_group_name_H-M   'P 1'
_symmetry_Int_Tables_number      1
_space_group_name_Hall           'P 1'
loop_
_symmetry_equiv_pos_site_id
_symmetry_equiv_pos_as_xyz
1 x,y,z
_cell_length_a                   5.47330(10)
_cell_length_b                   13.4580(2)
_cell_length_c                   11.7304(2)
_cell_angle_alpha                90
_cell_angle_beta                 101.166(2)
_cell_angle_gamma                90
_cell_volume                     847.701
loop_
_atom_site_label
_atom_site_type_symbol
_atom_site_fract_x
_atom_site_fract_y
_atom_site_fract_z
N3 N 0.0858(4) 0.10165(19) 0.1486(2)
C4 C 0.2593(5) 0.0975(2) 0.0825(3)
H2 H 0.3804 0.0482 0.0979
C7 C 0.3763(5) 0.5153(2) 0.6248(2)
C8 C 0.3976(5) 0.5904(2) 0.5309(2)
C9 C 0.2229(5) 0.6662(2) 0.5055(2)
H5 H 0.0957 0.6721 0.5474
C10 C 0.2396(5) 0.7326(2) 0.4179(3)
H6 H 0.1234 0.7838 0.4035
C11 C 0.5819(5) 0.5841(2) 0.4644(3)
H7 H 0.7029 0.5348 0.4787
C12 C 0.5812(5) 0.6534(2) 0.3758(3)
H8 H 0.7027 0.6479 0.3306
Li1 Li 0.0775(8) 0.9838(4) 0.2603(4)
Li2 Li 0.4421(8) 0.8444(4) 0.2396(4)
N2 N 0.4149(4) 0.72745(19) 0.3522(2)
O1 O 0.0906(3) 0.86385(15) 0.16474(15)
O3 O 0.5678(3) 0.46457(15) 0.66499(16)
O4 O 0.1717(3) 0.50927(17) 0.65390(17)
Li5 Li 0.9225(8) 0.4838(4) 0.7397(4)
Li7 Li 0.5579(8) 0.3444(4) 0.7604(4)
O5 O 0.7034(4) 0.81373(18) 0.16608(18)
O6 O 0.4322(3) 0.96457(15) 0.33501(16)
O7 O 0.8283(3) 0.00927(17) 0.34610(17)
C1 C 0.9011(5) 0.8108(2) 0.1298(2)
C2 C 0.9129(5) 0.7368(2) 0.0328(2)
C3 C 0.7328(5) 0.6631(2) 0.0080(2)
H1 H 0.6083 0.6578 0.0515
C4_2 C 0.7407(5) 0.5975(2) 0.9175(3)
H2_2 H 0.6196 0.5482 0.9021
N1 N 0.9142(4) 0.60165(19) 0.8514(2)
C1_2 C 0.0989(5) 0.3108(2) 0.8702(2)
C2_2 C 0.0871(5) 0.2368(2) 0.9672(2)
C3_2 C 0.2672(5) 0.1631(2) 0.9920(2)
H1_2 H 0.3917 0.1578 0.9485
O2 O 0.2966(4) 0.31373(18) 0.83392(18)
C7_2 C 0.6237(5) 0.0153(2) 0.3752(2)
C8_2 C 0.6024(5) 0.0904(2) 0.4691(2)
C9_2 C 0.7771(5) 0.1662(2) 0.4945(2)
H5_2 H 0.9043 0.1721 0.4526
C10_2 C 0.7604(5) 0.2326(2) 0.5821(3)
H6_2 H 0.8766 0.2838 0.5965
C11_2 C 0.4181(5) 0.0841(2) 0.5356(3)
H7_2 H 0.2971 0.0348 0.5213
C12_2 C 0.4188(5) 0.1534(2) 0.6242(3)
H8_2 H 0.2973 0.1479 0.6694
N2_2 N 0.5851(4) 0.22745(19) 0.6478(2)
O1_2 O 0.9094(3) 0.36385(15) 0.83526(15)
C5 C 0.0853(5) 0.6737(2) 0.8748(3)
H3 H 0.2056 0.6780 0.8288
C6 C 0.0931(5) 0.7424(2) 0.9639(2)
H4 H 0.2161 0.7910 0.9773
C5_2 C 0.9147(5) 0.1737(2) 0.1252(3)
H3_2 H 0.7944 0.1780 0.1712
C6_2 C 0.9069(5) 0.2424(2) 0.0361(2)
H4_2 H 0.7839 0.2910 0.0227
loop_
_geom_bond_atom_site_label_1
_geom_bond_atom_site_label_2
_geom_bond_site_symmetry_1
_geom_bond_site_symmetry_2
H2 C4 1_555 1_555
N3 C4 1_555 1_555
C7 C8 1_555 1_555
C8 C9 1_555 1_555
C9 H5 1_555 1_555
C10 C9 1_555 1_555
H6 C10 1_555 1_555
C11 C8 1_555 1_555
H7 C11 1_555 1_555
C12 C11 1_555 1_555
H8 C12 1_555 1_555
Li1 O1 1_555 1_555
Li2 N2 1_555 1_555
N2 C10 1_555 1_555
O3 C7 1_555 1_555
O4 C7 1_555 1_555
Li5 O3 1_555 1_555
Li7 O3 1_555 1_555
O5 Li2 1_555 1_555
O6 Li1 1_555 1_555
C12 N2 1_555 1_555
Li2 O1 1_555 1_555
Li2 O6 1_555 1_555
C1 C2 1_555 1_555
C2 C3 1_555 1_555
C3 H1 1_555 1_555
O5 C1 1_555 1_555
H2_2 C4_2 1_555 1_555
N1 C4_2 1_555 1_555
Li5 N1 1_555 1_555
C1_2 C2_2 1_555 1_555
C2_2 C3_2 1_555 1_555
C3_2 H1_2 1_555 1_555
O2 C1_2 1_555 1_555
Li7 O2 1_555 1_555
C7_2 C8_2 1_555 1_555
C8_2 C9_2 1_555 1_555
C9_2 H5_2 1_555 1_555
C10_2 C9_2 1_555 1_555
H6_2 C10_2 1_555 1_555
C11_2 C8_2 1_555 1_555
H7_2 C11_2 1_555 1_555
C12_2 C11_2 1_555 1_555
H8_2 C12_2 1_555 1_555
Li5 O1_2 1_555 1_555
Li7 N2_2 1_555 1_555
N2_2 C10_2 1_555 1_555
O7 C7_2 1_555 1_555
C12_2 N2_2 1_555 1_555
Li7 O1_2 1_555 1_555
C5 H3 1_555 1_555
H4 C6 1_555 1_555
C5 C6 1_555 1_555
C5_2 H3_2 1_555 1_555
H4_2 C6_2 1_555 1_555
C5_2 C6_2 1_555 1_555

#END
