
###############################################################################
#
# This file contains modified crystal structure data generated from the
# MOF subset of the Cambridge Structural Database (CSD) v543 
# hosted by the Cambridge Crystallographic Data Centre (CCDC).
#
# This work is licensed under the Creative Commons
# Attribution-NonCommercial-ShareAlike 4.0 International License.
# To view a copy of this license, visit
# http://creativecommons.org/licenses/by-nc-sa/4.0/
# or send a letter to
# Creative Commons, PO Box 1866, Mountain View, CA 94042, USA.
#
# CIF created using the CSD Python API on 29 September 2022
# The structure has been converted into the P1 space group
# The structure has a 3D framework
# The original CSD entry XUNJEW is in the rhombohedral crystal system
# The framework has been calculated to contain at least 10.0% void space
# The void calculation uses a probe of radius 1.32A, grid spacing 0.4
#
###############################################################################

data_XUNJEW
_chemical_formula_moiety         '(C108 H106 N70 O36 Zn18)n'
_symmetry_cell_setting           triclinic
_symmetry_space_group_name_H-M   'P 1'
_symmetry_Int_Tables_number      1
_space_group_name_Hall           'P 1'
loop_
_symmetry_equiv_pos_site_id
_symmetry_equiv_pos_as_xyz
1 x,y,z
_cell_length_a                   17.9244(14)
_cell_length_b                   17.9244(14)
_cell_length_c                   18.4454(16)
_cell_angle_alpha                90
_cell_angle_beta                 90
_cell_angle_gamma                120
_cell_volume                     5132.25
loop_
_atom_site_label
_atom_site_type_symbol
_atom_site_fract_x
_atom_site_fract_y
_atom_site_fract_z
Zn1 Zn 0.28253(2) 0.28958(2) 0.043710(13)
N1 N 0.33257(15) 0.30205(22) 0.14707(10)
O1 O 0.40203(15) 0.40919(21) 0.03671(9)
C1 C 0.31014(19) 0.26192(19) 0.21116(13)
C2 C 0.40551(18) 0.37848(18) 0.15918(13)
C3 C 0.4426(2) 0.4348(2) 0.09540(13)
N2 N 0.36569(21) 0.30903(15) 0.26406(11)
C4 C 0.2344(2) 0.1746(2) 0.22232(16)
C5 C 0.42676(19) 0.38281(18) 0.23162(12)
N3 N 0.5139(2) 0.5083(2) 0.10170(13)
H1 H 0.2311 0.1588 0.2724
H2 H 0.2405 0.1338 0.1929
H3 H 0.1829 0.1749 0.2088
C6 C 0.4963(2) 0.4478(2) 0.27789(13)
H4 H 0.543(2) 0.539(2) 0.0668(18)
H5 H 0.539(2) 0.523(3) 0.1435(14)
O2 O 0.55694(23) 0.51449(29) 0.24763(9)
N4 N 0.48797(24) 0.42894(18) 0.34572(11)
H6 H 0.530(2) 0.4574(16) 0.3693(17)
Zn2 Zn 0.37709(2) 0.32628(3) 0.377043(13)
Zn3 Zn 0.65962(3) 0.61586(2) 0.289623(13)
O3 O 0.18116(29) 0.29088(37) 0.08570(9)
N6 N 0.27430(30) 0.17870(24) 0.01239(11)
N5 N 0.27667(26) 0.30098(21) 0.93073(11)
N1_2 N 0.69795(22) 0.03052(27) 0.14707(10)
C1_2 C 0.73808(19) 0.04822(27) 0.21116(13)
C2_2 C 0.62152(18) 0.02703(25) 0.15918(13)
C3_2 C 0.5652(2) 0.0078(3) 0.09540(13)
N2_2 N 0.69097(15) 0.05666(26) 0.26406(11)
C4_2 C 0.8254(2) 0.0598(3) 0.22232(16)
C5_2 C 0.61719(18) 0.04395(26) 0.23162(12)
N3_2 N 0.4917(2) 0.0056(3) 0.10170(13)
H1_2 H 0.8412 0.0723 0.2724
H2_2 H 0.8662 0.1067 0.1929
H3_2 H 0.8251 0.0080 0.2088
C6_2 C 0.5522(2) 0.0485(3) 0.27789(13)
H4_2 H 0.461(2) 0.004(3) 0.0668(18)
H5_2 H 0.477(3) 0.016(4) 0.1435(14)
O2_2 O 0.48551(29) 0.04245(37) 0.24763(9)
N4_2 N 0.57106(18) 0.05903(30) 0.34572(11)
H6_2 H 0.5426(16) 0.0726(26) 0.3693(17)
Zn2_2 Zn 0.67372(3) 0.05080(4) 0.377043(13)
Zn3_2 Zn 0.38414(2) 0.04375(4) 0.289623(13)
N6_2 N 0.82130(24) 0.09561(38) 0.01239(11)
Zn1_2 Zn 0.71042(2) 0.99295(3) 0.043710(13)
O1_2 O 0.59081(21) 0.99284(26) 0.03671(9)
O3_2 O 0.70912(37) 0.89027(47) 0.08570(9)
N5_2 N 0.69902(21) 0.97570(33) 0.93073(11)
N5_3 N 0.02430(33) 0.72333(26) 0.93073(11)
N1_3 N 0.96948(27) 0.66743(15) 0.14707(10)
C1_3 C 0.95178(27) 0.68986(19) 0.21116(13)
C2_3 C 0.97297(25) 0.59449(18) 0.15918(13)
C3_3 C 0.9922(3) 0.5574(2) 0.09540(13)
N2_3 N 0.94334(26) 0.63431(21) 0.26406(11)
C4_3 C 0.9402(3) 0.7656(2) 0.22232(16)
C5_3 C 0.95605(26) 0.57324(19) 0.23162(12)
N3_3 N 0.9944(3) 0.4861(2) 0.10170(13)
H1_3 H 0.9277 0.7689 0.2724
H2_3 H 0.8933 0.7595 0.1929
H3_3 H 0.9920 0.8171 0.2088
C6_3 C 0.9515(3) 0.5037(2) 0.27789(13)
H4_3 H 0.996(3) 0.457(2) 0.0668(18)
H5_3 H 0.984(4) 0.461(2) 0.1435(14)
O2_3 O 0.95755(37) 0.44306(23) 0.24763(9)
N4_3 N 0.94097(30) 0.51203(24) 0.34572(11)
H6_3 H 0.9274(26) 0.470(2) 0.3693(17)
Zn2_3 Zn 0.94920(4) 0.62291(2) 0.377043(13)
Zn3_3 Zn 0.95625(4) 0.34038(3) 0.289623(13)
N6_3 N 0.90439(38) 0.72570(30) 0.01239(11)
O1_3 O 0.06870(15) 0.74252(21) 0.37004(9)
C2_4 C 0.07218(18) 0.71181(18) 0.49251(13)
C3_4 C 0.1093(2) 0.7681(2) 0.42873(13)
N2_4 N 0.03236(21) 0.64236(15) 0.59739(11)
C5_4 C 0.09343(19) 0.71614(18) 0.56495(12)
N3_4 N 0.1806(2) 0.8416(2) 0.43503(13)
C6_4 C 0.1630(2) 0.7811(2) 0.61122(13)
H4_4 H 0.210(2) 0.872(2) 0.4001(18)
H5_4 H 0.206(2) 0.856(3) 0.4768(14)
O2_4 O 0.22361(23) 0.84782(29) 0.58096(9)
N4_4 N 0.15464(24) 0.76227(18) 0.67905(11)
H6_4 H 0.197(2) 0.7907(16) 0.7026(17)
Zn2_4 Zn 0.04375(2) 0.65962(3) 0.710377(13)
Zn3_4 Zn 0.32628(3) 0.94920(2) 0.622957(13)
N1_4 N 0.99924(15) 0.63538(22) 0.48040(10)
C1_4 C 0.97681(19) 0.59525(19) 0.54449(13)
C4_4 C 0.9011(2) 0.5079(2) 0.55565(16)
H1_4 H 0.8978 0.4921 0.6057
H2_4 H 0.9072 0.4671 0.5262
H3_4 H 0.8496 0.5082 0.5421
O3_3 O 0.84782(29) 0.62422(37) 0.41904(9)
N1_5 N 0.36462(22) 0.36385(27) 0.48040(10)
O1_4 O 0.25748(21) 0.32617(26) 0.37004(9)
C1_5 C 0.40475(19) 0.38155(27) 0.54449(13)
C2_5 C 0.28819(18) 0.36036(25) 0.49251(13)
C3_5 C 0.2319(2) 0.3411(3) 0.42873(13)
N2_5 N 0.35764(15) 0.38999(26) 0.59739(11)
C4_5 C 0.4921(2) 0.3931(3) 0.55565(16)
C5_5 C 0.28386(18) 0.37728(26) 0.56495(12)
N3_5 N 0.1584(2) 0.3389(3) 0.43503(13)
H1_5 H 0.5079 0.4056 0.6057
H2_5 H 0.5329 0.4400 0.5262
H3_5 H 0.4918 0.3413 0.5421
C6_5 C 0.2189(2) 0.3818(3) 0.61122(13)
H4_5 H 0.128(2) 0.337(3) 0.4001(18)
H5_5 H 0.144(3) 0.349(4) 0.4768(14)
O2_5 O 0.15218(29) 0.37578(37) 0.58096(9)
N4_5 N 0.23773(18) 0.39236(30) 0.67905(11)
H6_5 H 0.2093(16) 0.4059(26) 0.7026(17)
Zn2_5 Zn 0.34038(3) 0.38414(4) 0.710377(13)
Zn3_5 Zn 0.05080(2) 0.37709(4) 0.622957(13)
O3_4 O 0.37578(37) 0.22361(47) 0.41904(9)
N1_6 N 0.63615(27) 0.00076(15) 0.48040(10)
C1_6 C 0.61845(27) 0.02319(19) 0.54449(13)
C4_6 C 0.6069(3) 0.0989(2) 0.55565(16)
H1_6 H 0.5944 0.1022 0.6057
H2_6 H 0.5600 0.0928 0.5262
H3_6 H 0.6587 0.1504 0.5421
O3_5 O 0.77639(47) 0.15218(29) 0.41904(9)
O1_5 O 0.67383(26) 0.93130(15) 0.37004(9)
C2_6 C 0.63964(25) 0.92782(18) 0.49251(13)
C3_6 C 0.6589(3) 0.8907(2) 0.42873(13)
N2_6 N 0.61001(26) 0.96764(21) 0.59739(11)
C5_6 C 0.62272(26) 0.90657(19) 0.56495(12)
N3_6 N 0.6611(3) 0.8194(2) 0.43503(13)
C6_6 C 0.6182(3) 0.8370(2) 0.61122(13)
H4_6 H 0.663(3) 0.790(2) 0.4001(18)
H5_6 H 0.651(4) 0.794(2) 0.4768(14)
O2_6 O 0.62422(37) 0.77639(23) 0.58096(9)
N4_6 N 0.60764(30) 0.84536(24) 0.67905(11)
H6_6 H 0.5941(26) 0.803(2) 0.7026(17)
Zn2_6 Zn 0.61586(4) 0.95625(2) 0.710377(13)
Zn3_6 Zn 0.62291(4) 0.67372(3) 0.622957(13)
H6_7 H 0.863(2) 0.1241(16) 0.0360(17)
N1_7 N 0.66590(15) 0.96872(22) 0.81374(10)
C1_7 C 0.64347(19) 0.92859(19) 0.87783(13)
C4_7 C 0.5677(2) 0.8413(2) 0.88899(16)
H1_7 H 0.5644 0.8255 0.9391
H2_7 H 0.5738 0.8005 0.8596
H3_7 H 0.5162 0.8416 0.8755
O3_6 O 0.51449(29) 0.95755(37) 0.75237(9)
N1_8 N 0.03128(22) 0.69719(27) 0.81374(10)
C1_8 C 0.07141(19) 0.71489(27) 0.87783(13)
C4_8 C 0.1587(2) 0.7265(3) 0.88899(16)
H1_8 H 0.1745 0.7390 0.9391
H2_8 H 0.1995 0.7734 0.8596
H3_8 H 0.1584 0.6747 0.8755
O3_7 O 0.04245(37) 0.55694(47) 0.75237(9)
H6_8 H 0.8759(16) 0.7393(26) 0.0360(17)
O1_6 O 0.92414(21) 0.65951(26) 0.70338(9)
C2_7 C 0.95485(18) 0.69370(25) 0.82585(13)
C3_7 C 0.8985(2) 0.6745(3) 0.76207(13)
C5_7 C 0.95052(18) 0.71062(26) 0.89829(12)
N3_7 N 0.8250(2) 0.6723(3) 0.76837(13)
C6_7 C 0.8855(2) 0.7152(3) 0.94456(13)
H4_7 H 0.794(2) 0.671(3) 0.7335(18)
H5_7 H 0.810(3) 0.683(4) 0.8102(14)
O2_7 O 0.81884(29) 0.70912(37) 0.91430(9)
Zn3_7 Zn 0.71747(2) 0.71042(4) 0.956290(13)
H6_9 H 0.2607(26) 0.137(2) 0.0360(17)
N1_9 N 0.30281(27) 0.33410(15) 0.81374(10)
O1_7 O 0.34049(26) 0.26464(15) 0.70338(9)
C1_9 C 0.28511(27) 0.35653(19) 0.87783(13)
C2_8 C 0.30630(25) 0.26116(18) 0.82585(13)
C3_8 C 0.3255(3) 0.2241(2) 0.76207(13)
C4_9 C 0.2735(3) 0.4323(2) 0.88899(16)
C5_8 C 0.28938(26) 0.23991(19) 0.89829(12)
N3_8 N 0.3277(3) 0.1528(2) 0.76837(13)
H1_9 H 0.2610 0.4356 0.9391
H2_9 H 0.2266 0.4262 0.8596
H3_9 H 0.3253 0.4838 0.8755
C6_8 C 0.2848(3) 0.1704(2) 0.94456(13)
H4_8 H 0.329(3) 0.124(2) 0.7335(18)
H5_8 H 0.317(4) 0.128(2) 0.8102(14)
O2_8 O 0.29088(37) 0.10973(23) 0.91430(9)
Zn3_8 Zn 0.28958(4) 0.00705(3) 0.956290(13)
O3_8 O 0.44306(47) 0.48551(29) 0.75237(9)
N5_4 N 0.72333(26) 0.69902(21) 0.06927(11)
N1_10 N 0.66743(15) 0.69795(22) 0.85293(10)
O1_8 O 0.59797(15) 0.59081(21) 0.96329(9)
C1_10 C 0.68986(19) 0.73808(19) 0.78884(13)
C2_9 C 0.59449(18) 0.62152(18) 0.84082(13)
C3_9 C 0.5574(2) 0.5652(2) 0.90460(13)
N2_7 N 0.63431(21) 0.69097(15) 0.73594(11)
C4_10 C 0.7656(2) 0.8254(2) 0.77768(16)
C5_9 C 0.57324(19) 0.61719(18) 0.76838(12)
N3_9 N 0.4861(2) 0.4917(2) 0.89830(13)
H1_10 H 0.7689 0.8412 0.7276
H2_10 H 0.7595 0.8662 0.8071
H3_10 H 0.8171 0.8251 0.7912
C6_9 C 0.5037(2) 0.5522(2) 0.72211(13)
H4_9 H 0.457(2) 0.461(2) 0.9332(18)
H5_9 H 0.461(2) 0.477(3) 0.8565(14)
N4_7 N 0.51203(24) 0.57106(18) 0.65428(11)
H6_10 H 0.470(2) 0.5426(16) 0.6307(17)
N6_4 N 0.72570(30) 0.82130(24) 0.98761(11)
N5_5 N 0.30098(21) 0.02430(33) 0.06927(11)
O1_9 O 0.40919(21) 0.00716(26) 0.96329(9)
N1_11 N 0.30205(22) 0.96948(27) 0.85293(10)
C1_11 C 0.26192(19) 0.95178(27) 0.78884(13)
C2_10 C 0.37848(18) 0.97297(25) 0.84082(13)
C3_10 C 0.4348(2) 0.9922(3) 0.90460(13)
N2_8 N 0.30903(15) 0.94334(26) 0.73594(11)
C4_11 C 0.1746(2) 0.9402(3) 0.77768(16)
C5_10 C 0.38281(18) 0.95605(26) 0.76838(12)
N3_10 N 0.5083(2) 0.9944(3) 0.89830(13)
H1_11 H 0.1588 0.9277 0.7276
H2_11 H 0.1338 0.8933 0.8071
H3_11 H 0.1749 0.9920 0.7912
C6_10 C 0.4478(2) 0.9515(3) 0.72211(13)
H4_10 H 0.539(2) 0.996(3) 0.9332(18)
H5_10 H 0.523(3) 0.984(4) 0.8565(14)
N4_8 N 0.42894(18) 0.94097(30) 0.65428(11)
H6_11 H 0.4574(16) 0.9274(26) 0.6307(17)
N6_5 N 0.17870(24) 0.90439(38) 0.98761(11)
N1_12 N 0.03052(27) 0.33257(15) 0.85293(10)
C1_12 C 0.04822(27) 0.31014(19) 0.78884(13)
C2_11 C 0.02703(25) 0.40551(18) 0.84082(13)
C3_11 C 0.0078(3) 0.4426(2) 0.90460(13)
N2_9 N 0.05666(26) 0.36569(21) 0.73594(11)
C4_12 C 0.0598(3) 0.2344(2) 0.77768(16)
C5_11 C 0.04395(26) 0.42676(19) 0.76838(12)
N3_11 N 0.0056(3) 0.5139(2) 0.89830(13)
H1_12 H 0.0723 0.2311 0.7276
H2_12 H 0.1067 0.2405 0.8071
H3_12 H 0.0080 0.1829 0.7912
C6_11 C 0.0485(3) 0.4963(2) 0.72211(13)
H4_11 H 0.004(3) 0.543(2) 0.9332(18)
H5_11 H 0.016(4) 0.539(2) 0.8565(14)
N4_9 N 0.05903(30) 0.48797(24) 0.65428(11)
H6_12 H 0.0726(26) 0.530(2) 0.6307(17)
N6_6 N 0.09561(38) 0.27430(30) 0.98761(11)
N5_6 N 0.97570(33) 0.27667(26) 0.06927(11)
N1_13 N 0.00076(15) 0.36462(22) 0.51960(10)
C1_13 C 0.02319(19) 0.40475(19) 0.45551(13)
C4_13 C 0.0989(2) 0.4921(2) 0.44435(16)
H1_13 H 0.1022 0.5079 0.3943
H2_13 H 0.0928 0.5329 0.4738
H3_13 H 0.1504 0.4918 0.4579
O1_10 O 0.93130(15) 0.25748(21) 0.62996(9)
C2_12 C 0.92782(18) 0.28819(18) 0.50749(13)
C3_12 C 0.8907(2) 0.2319(2) 0.57127(13)
N2_10 N 0.96764(21) 0.35764(15) 0.40261(11)
C5_12 C 0.90657(19) 0.28386(18) 0.43505(12)
N3_12 N 0.8194(2) 0.1584(2) 0.56497(13)
C6_12 C 0.8370(2) 0.2189(2) 0.38878(13)
H4_12 H 0.790(2) 0.128(2) 0.5999(18)
H5_12 H 0.794(2) 0.144(3) 0.5232(14)
N4_10 N 0.84536(24) 0.23773(18) 0.32095(11)
H6_13 H 0.803(2) 0.2093(16) 0.2974(17)
N1_14 N 0.63538(22) 0.63615(27) 0.51960(10)
O1_11 O 0.74252(21) 0.67383(26) 0.62996(9)
C1_14 C 0.59525(19) 0.61845(27) 0.45551(13)
C2_13 C 0.71181(18) 0.63964(25) 0.50749(13)
C3_13 C 0.7681(2) 0.6589(3) 0.57127(13)
N2_11 N 0.64236(15) 0.61001(26) 0.40261(11)
C4_14 C 0.5079(2) 0.6069(3) 0.44435(16)
C5_13 C 0.71614(18) 0.62272(26) 0.43505(12)
N3_13 N 0.8416(2) 0.6611(3) 0.56497(13)
H1_14 H 0.4921 0.5944 0.3943
H2_14 H 0.4671 0.5600 0.4738
H3_14 H 0.5082 0.6587 0.4579
C6_13 C 0.7811(2) 0.6182(3) 0.38878(13)
H4_13 H 0.872(2) 0.663(3) 0.5999(18)
H5_13 H 0.856(3) 0.651(4) 0.5232(14)
N4_11 N 0.76227(18) 0.60764(30) 0.32095(11)
H6_14 H 0.7907(16) 0.5941(26) 0.2974(17)
O1_12 O 0.32617(26) 0.06870(15) 0.62996(9)
C2_14 C 0.36036(25) 0.07218(18) 0.50749(13)
C3_14 C 0.3411(3) 0.1093(2) 0.57127(13)
N2_12 N 0.38999(26) 0.03236(21) 0.40261(11)
C5_14 C 0.37728(26) 0.09343(19) 0.43505(12)
N3_14 N 0.3389(3) 0.1806(2) 0.56497(13)
C6_14 C 0.3818(3) 0.1630(2) 0.38878(13)
H4_14 H 0.337(3) 0.210(2) 0.5999(18)
H5_14 H 0.349(4) 0.206(2) 0.5232(14)
N4_12 N 0.39236(30) 0.15464(24) 0.32095(11)
H6_15 H 0.4059(26) 0.197(2) 0.2974(17)
N1_15 N 0.36385(27) 0.99924(15) 0.51960(10)
C1_15 C 0.38155(27) 0.97681(19) 0.45551(13)
C4_15 C 0.3931(3) 0.9011(2) 0.44435(16)
H1_15 H 0.4056 0.8978 0.3943
H2_15 H 0.4400 0.9072 0.4738
H3_15 H 0.3413 0.8496 0.4579
N1_16 N 0.33410(15) 0.03128(22) 0.18626(10)
C1_16 C 0.35653(19) 0.07141(19) 0.12217(13)
C4_16 C 0.4323(2) 0.1587(2) 0.11101(16)
H1_16 H 0.4356 0.1745 0.0609
H2_16 H 0.4262 0.1995 0.1404
H3_16 H 0.4838 0.1584 0.1245
H6_16 H 0.137(2) 0.8759(16) 0.9640(17)
O1_13 O 0.07586(21) 0.34049(26) 0.29662(9)
C2_15 C 0.04515(18) 0.30630(25) 0.17415(13)
C3_15 C 0.1015(2) 0.3255(3) 0.23793(13)
C5_15 C 0.04948(18) 0.28938(26) 0.10171(12)
N3_15 N 0.1750(2) 0.3277(3) 0.23163(13)
C6_15 C 0.1145(2) 0.2848(3) 0.05544(13)
H4_15 H 0.206(2) 0.329(3) 0.2665(18)
H5_15 H 0.190(3) 0.317(4) 0.1898(14)
H6_17 H 0.1241(16) 0.2607(26) 0.9640(17)
N1_17 N 0.96872(22) 0.30281(27) 0.18626(10)
C1_17 C 0.92859(19) 0.28511(27) 0.12217(13)
C4_17 C 0.8413(2) 0.2735(3) 0.11101(16)
H1_17 H 0.8255 0.2610 0.0609
H2_17 H 0.8005 0.2266 0.1404
H3_17 H 0.8416 0.3253 0.1245
N1_18 N 0.69719(27) 0.66590(15) 0.18626(10)
O1_14 O 0.65951(26) 0.73536(15) 0.29662(9)
C1_18 C 0.71489(27) 0.64347(19) 0.12217(13)
C2_16 C 0.69370(25) 0.73884(18) 0.17415(13)
C3_16 C 0.6745(3) 0.7759(2) 0.23793(13)
C4_18 C 0.7265(3) 0.5677(2) 0.11101(16)
C5_16 C 0.71062(26) 0.76009(19) 0.10171(12)
N3_16 N 0.6723(3) 0.8472(2) 0.23163(13)
H1_18 H 0.7390 0.5644 0.0609
H2_18 H 0.7734 0.5738 0.1404
H3_18 H 0.6747 0.5162 0.1245
C6_16 C 0.7152(3) 0.8296(2) 0.05544(13)
H4_16 H 0.671(3) 0.876(2) 0.2665(18)
H5_16 H 0.683(4) 0.872(2) 0.1898(14)
H6_18 H 0.7393(26) 0.863(2) 0.9640(17)
Zn1_3 Zn 0.00705(3) 0.71747(2) 0.043710(13)
O1_15 O 0.00716(26) 0.59797(15) 0.03671(9)
O3_9 O 0.10973(47) 0.81884(29) 0.08570(9)
O1_16 O 0.26464(15) 0.92414(21) 0.29662(9)
C2_17 C 0.26116(18) 0.95485(18) 0.17415(13)
C3_17 C 0.2241(2) 0.8985(2) 0.23793(13)
C5_17 C 0.23991(19) 0.95052(18) 0.10171(12)
N3_17 N 0.1528(2) 0.8250(2) 0.23163(13)
C6_17 C 0.1704(2) 0.8855(2) 0.05544(13)
H4_17 H 0.124(2) 0.794(2) 0.2665(18)
H5_17 H 0.128(2) 0.810(3) 0.1898(14)
O1_17 O 0.73536(15) 0.07586(21) 0.70338(9)
C2_18 C 0.73884(18) 0.04515(18) 0.82585(13)
C3_18 C 0.7759(2) 0.1015(2) 0.76207(13)
C5_18 C 0.76009(19) 0.04948(18) 0.89829(12)
N3_18 N 0.8472(2) 0.1750(2) 0.76837(13)
C6_18 C 0.8296(2) 0.1145(2) 0.94456(13)
H4_18 H 0.876(2) 0.206(2) 0.7335(18)
H5_18 H 0.872(2) 0.190(3) 0.8102(14)
O2_9 O 0.89027(23) 0.18116(29) 0.91430(9)
Zn3_9 Zn 0.99295(3) 0.28253(2) 0.956290(13)
O1_18 O 0.99284(26) 0.40203(15) 0.96329(9)
loop_
_geom_bond_atom_site_label_1
_geom_bond_atom_site_label_2
_geom_bond_site_symmetry_1
_geom_bond_site_symmetry_2
Zn1 N1 1_555 1_555
N1 C1 1_555 1_555
O1 Zn1 1_555 1_555
C1 N2 1_555 1_555
C2 N1 1_555 1_555
C3 O1 1_555 1_555
N2 C5 1_555 1_555
C4 C1 1_555 1_555
C5 C2 1_555 1_555
N3 C3 1_555 1_555
H1 C4 1_555 1_555
H2 C4 1_555 1_555
H3 C4 1_555 1_555
C6 C5 1_555 1_555
H4 N3 1_555 1_555
H5 N3 1_555 1_555
O2 C6 1_555 1_555
N4 C6 1_555 1_555
H6 N4 1_555 1_555
Zn2 N2 1_555 1_555
Zn3 O2 1_555 1_555
O3 Zn1 1_555 1_555
N6 Zn1 1_555 1_555
C2 C3 1_555 1_555
N4 Zn2 1_555 1_555
N1_2 C1_2 1_555 1_555
C1_2 N2_2 1_555 1_555
C2_2 N1_2 1_555 1_555
N2_2 C5_2 1_555 1_555
C4_2 C1_2 1_555 1_555
C5_2 C2_2 1_555 1_555
N3_2 C3_2 1_555 1_555
H1_2 C4_2 1_555 1_555
H2_2 C4_2 1_555 1_555
H3_2 C4_2 1_555 1_555
C6_2 C5_2 1_555 1_555
H4_2 N3_2 1_555 1_555
H5_2 N3_2 1_555 1_555
O2_2 C6_2 1_555 1_555
N4_2 C6_2 1_555 1_555
H6_2 N4_2 1_555 1_555
Zn2_2 N2_2 1_555 1_555
Zn3_2 O2_2 1_555 1_555
C2_2 C3_2 1_555 1_555
N4_2 Zn2_2 1_555 1_555
O1_2 Zn1_2 1_555 1_555
O3_2 Zn1_2 1_555 1_555
N1_3 C1_3 1_555 1_555
C1_3 N2_3 1_555 1_555
C2_3 N1_3 1_555 1_555
N2_3 C5_3 1_555 1_555
C4_3 C1_3 1_555 1_555
C5_3 C2_3 1_555 1_555
N3_3 C3_3 1_555 1_555
H1_3 C4_3 1_555 1_555
H2_3 C4_3 1_555 1_555
H3_3 C4_3 1_555 1_555
C6_3 C5_3 1_555 1_555
H4_3 N3_3 1_555 1_555
H5_3 N3_3 1_555 1_555
O2_3 C6_3 1_555 1_555
N4_3 C6_3 1_555 1_555
H6_3 N4_3 1_555 1_555
Zn2_3 N2_3 1_555 1_555
Zn3_3 O2_3 1_555 1_555
C2_3 C3_3 1_555 1_555
N4_3 Zn2_3 1_555 1_555
C3_4 O1_3 1_555 1_555
N2_4 C5_4 1_555 1_555
C5_4 C2_4 1_555 1_555
N3_4 C3_4 1_555 1_555
C6_4 C5_4 1_555 1_555
H4_4 N3_4 1_555 1_555
H5_4 N3_4 1_555 1_555
O2_4 C6_4 1_555 1_555
N4_4 C6_4 1_555 1_555
H6_4 N4_4 1_555 1_555
Zn2_4 N2_4 1_555 1_555
Zn3_4 O2_4 1_555 1_555
C2_4 C3_4 1_555 1_555
N4_4 Zn2_4 1_555 1_555
Zn2_3 N1_4 1_555 1_555
N1_4 C1_4 1_555 1_555
C4_4 C1_4 1_555 1_555
H1_4 C4_4 1_555 1_555
H2_4 C4_4 1_555 1_555
H3_4 C4_4 1_555 1_555
O3_3 Zn2_3 1_555 1_555
Zn2 N1_5 1_555 1_555
N1_5 C1_5 1_555 1_555
O1_4 Zn2 1_555 1_555
C1_5 N2_5 1_555 1_555
C2_5 N1_5 1_555 1_555
C3_5 O1_4 1_555 1_555
N2_5 C5_5 1_555 1_555
C4_5 C1_5 1_555 1_555
C5_5 C2_5 1_555 1_555
N3_5 C3_5 1_555 1_555
H1_5 C4_5 1_555 1_555
H2_5 C4_5 1_555 1_555
H3_5 C4_5 1_555 1_555
C6_5 C5_5 1_555 1_555
H4_5 N3_5 1_555 1_555
H5_5 N3_5 1_555 1_555
O2_5 C6_5 1_555 1_555
N4_5 C6_5 1_555 1_555
H6_5 N4_5 1_555 1_555
Zn2_5 N2_5 1_555 1_555
Zn3_5 O2_5 1_555 1_555
O3_4 Zn2 1_555 1_555
C2_5 C3_5 1_555 1_555
N4_5 Zn2_5 1_555 1_555
Zn2_2 N1_6 1_555 1_555
N1_6 C1_6 1_555 1_555
C4_6 C1_6 1_555 1_555
H1_6 C4_6 1_555 1_555
H2_6 C4_6 1_555 1_555
H3_6 C4_6 1_555 1_555
O3_5 Zn2_2 1_555 1_555
C3_6 O1_5 1_555 1_555
N2_6 C5_6 1_555 1_555
C5_6 C2_6 1_555 1_555
N3_6 C3_6 1_555 1_555
C6_6 C5_6 1_555 1_555
H4_6 N3_6 1_555 1_555
H5_6 N3_6 1_555 1_555
O2_6 C6_6 1_555 1_555
N4_6 C6_6 1_555 1_555
H6_6 N4_6 1_555 1_555
Zn2_6 N2_6 1_555 1_555
Zn3_6 O2_6 1_555 1_555
C2_6 C3_6 1_555 1_555
N4_6 Zn2_6 1_555 1_555
H6_7 N6_2 1_555 1_555
Zn2_6 N1_7 1_555 1_555
N1_7 C1_7 1_555 1_555
C1_7 N5_2 1_555 1_555
C4_7 C1_7 1_555 1_555
H1_7 C4_7 1_555 1_555
H2_7 C4_7 1_555 1_555
H3_7 C4_7 1_555 1_555
O3_6 Zn2_6 1_555 1_555
Zn2_4 N1_8 1_555 1_555
N1_8 C1_8 1_555 1_555
C1_8 N5_3 1_555 1_555
C4_8 C1_8 1_555 1_555
H1_8 C4_8 1_555 1_555
H2_8 C4_8 1_555 1_555
H3_8 C4_8 1_555 1_555
O3_7 Zn2_4 1_555 1_555
H6_8 N6_3 1_555 1_555
C3_7 O1_6 1_555 1_555
C5_7 C2_7 1_555 1_555
N3_7 C3_7 1_555 1_555
C6_7 C5_7 1_555 1_555
H4_7 N3_7 1_555 1_555
H5_7 N3_7 1_555 1_555
O2_7 C6_7 1_555 1_555
Zn3_7 O2_7 1_555 1_555
C2_7 C3_7 1_555 1_555
H6_9 N6 1_555 1_555
Zn2_5 N1_9 1_555 1_555
N1_9 C1_9 1_555 1_555
O1_7 Zn2_5 1_555 1_555
C1_9 N5 1_555 1_555
C2_8 N1_9 1_555 1_555
C3_8 O1_7 1_555 1_555
N5 C5_8 1_555 1_555
C4_9 C1_9 1_555 1_555
C5_8 C2_8 1_555 1_555
N3_8 C3_8 1_555 1_555
H1_9 C4_9 1_555 1_555
H2_9 C4_9 1_555 1_555
H3_9 C4_9 1_555 1_555
C6_8 C5_8 1_555 1_555
H4_8 N3_8 1_555 1_555
H5_8 N3_8 1_555 1_555
O2_8 C6_8 1_555 1_555
Zn3_8 O2_8 1_555 1_555
O3_8 Zn2_5 1_555 1_555
C2_8 C3_8 1_555 1_555
Zn3_7 N1_10 1_555 1_555
N1_10 C1_10 1_555 1_555
O1_8 Zn3_7 1_555 1_555
C1_10 N2_7 1_555 1_555
C2_9 N1_10 1_555 1_555
C3_9 O1_8 1_555 1_555
N2_7 C5_9 1_555 1_555
C4_10 C1_10 1_555 1_555
C5_9 C2_9 1_555 1_555
N3_9 C3_9 1_555 1_555
H1_10 C4_10 1_555 1_555
H2_10 C4_10 1_555 1_555
H3_10 C4_10 1_555 1_555
C6_9 C5_9 1_555 1_555
H4_9 N3_9 1_555 1_555
H5_9 N3_9 1_555 1_555
O3_8 C6_9 1_555 1_555
N4_7 C6_9 1_555 1_555
H6_10 N4_7 1_555 1_555
Zn3_6 N2_7 1_555 1_555
N6_4 Zn3_7 1_555 1_555
C2_9 C3_9 1_555 1_555
N4_7 Zn3_6 1_555 1_555
O1_9 Zn3_8 1_555 1_555
N1_11 C1_11 1_555 1_555
C1_11 N2_8 1_555 1_555
C2_10 N1_11 1_555 1_555
N2_8 C5_10 1_555 1_555
C4_11 C1_11 1_555 1_555
C5_10 C2_10 1_555 1_555
N3_10 C3_10 1_555 1_555
H1_11 C4_11 1_555 1_555
H2_11 C4_11 1_555 1_555
H3_11 C4_11 1_555 1_555
C6_10 C5_10 1_555 1_555
H4_10 N3_10 1_555 1_555
H5_10 N3_10 1_555 1_555
O3_6 C6_10 1_555 1_555
N4_8 C6_10 1_555 1_555
H6_11 N4_8 1_555 1_555
Zn3_4 N2_8 1_555 1_555
C2_10 C3_10 1_555 1_555
N4_8 Zn3_4 1_555 1_555
N1_12 C1_12 1_555 1_555
C1_12 N2_9 1_555 1_555
C2_11 N1_12 1_555 1_555
N2_9 C5_11 1_555 1_555
C4_12 C1_12 1_555 1_555
C5_11 C2_11 1_555 1_555
N3_11 C3_11 1_555 1_555
H1_12 C4_12 1_555 1_555
H2_12 C4_12 1_555 1_555
H3_12 C4_12 1_555 1_555
C6_11 C5_11 1_555 1_555
H4_11 N3_11 1_555 1_555
H5_11 N3_11 1_555 1_555
O3_7 C6_11 1_555 1_555
N4_9 C6_11 1_555 1_555
H6_12 N4_9 1_555 1_555
Zn3_5 N2_9 1_555 1_555
C2_11 C3_11 1_555 1_555
N4_9 Zn3_5 1_555 1_555
Zn3_5 N1_13 1_555 1_555
N1_13 C1_13 1_555 1_555
C4_13 C1_13 1_555 1_555
H1_13 C4_13 1_555 1_555
H2_13 C4_13 1_555 1_555
H3_13 C4_13 1_555 1_555
C3_12 O1_10 1_555 1_555
N2_10 C5_12 1_555 1_555
C5_12 C2_12 1_555 1_555
N3_12 C3_12 1_555 1_555
C6_12 C5_12 1_555 1_555
H4_12 N3_12 1_555 1_555
H5_12 N3_12 1_555 1_555
O3_5 C6_12 1_555 1_555
N4_10 C6_12 1_555 1_555
H6_13 N4_10 1_555 1_555
Zn3_3 N2_10 1_555 1_555
C2_12 C3_12 1_555 1_555
N4_10 Zn3_3 1_555 1_555
Zn3_6 N1_14 1_555 1_555
N1_14 C1_14 1_555 1_555
O1_11 Zn3_6 1_555 1_555
C1_14 N2_11 1_555 1_555
C2_13 N1_14 1_555 1_555
C3_13 O1_11 1_555 1_555
N2_11 C5_13 1_555 1_555
C4_14 C1_14 1_555 1_555
C5_13 C2_13 1_555 1_555
N3_13 C3_13 1_555 1_555
H1_14 C4_14 1_555 1_555
H2_14 C4_14 1_555 1_555
H3_14 C4_14 1_555 1_555
C6_13 C5_13 1_555 1_555
H4_13 N3_13 1_555 1_555
H5_13 N3_13 1_555 1_555
O3_3 C6_13 1_555 1_555
N4_11 C6_13 1_555 1_555
H6_14 N4_11 1_555 1_555
Zn3 N2_11 1_555 1_555
C2_13 C3_13 1_555 1_555
N4_11 Zn3 1_555 1_555
C3_14 O1_12 1_555 1_555
N2_12 C5_14 1_555 1_555
C5_14 C2_14 1_555 1_555
N3_14 C3_14 1_555 1_555
C6_14 C5_14 1_555 1_555
H4_14 N3_14 1_555 1_555
H5_14 N3_14 1_555 1_555
O3_4 C6_14 1_555 1_555
N4_12 C6_14 1_555 1_555
H6_15 N4_12 1_555 1_555
Zn3_2 N2_12 1_555 1_555
C2_14 C3_14 1_555 1_555
N4_12 Zn3_2 1_555 1_555
Zn3_4 N1_15 1_555 1_555
N1_15 C1_15 1_555 1_555
C4_15 C1_15 1_555 1_555
H1_15 C4_15 1_555 1_555
H2_15 C4_15 1_555 1_555
H3_15 C4_15 1_555 1_555
Zn3_2 N1_16 1_555 1_555
N1_16 C1_16 1_555 1_555
C1_16 N5_5 1_555 1_555
C4_16 C1_16 1_555 1_555
H1_16 C4_16 1_555 1_555
H2_16 C4_16 1_555 1_555
H3_16 C4_16 1_555 1_555
H6_16 N6_5 1_555 1_555
C3_15 O1_13 1_555 1_555
C5_15 C2_15 1_555 1_555
N3_15 C3_15 1_555 1_555
C6_15 C5_15 1_555 1_555
H4_15 N3_15 1_555 1_555
H5_15 N3_15 1_555 1_555
O3 C6_15 1_555 1_555
C2_15 C3_15 1_555 1_555
H6_17 N6_6 1_555 1_555
Zn3_3 N1_17 1_555 1_555
N1_17 C1_17 1_555 1_555
C1_17 N5_6 1_555 1_555
C4_17 C1_17 1_555 1_555
H1_17 C4_17 1_555 1_555
H2_17 C4_17 1_555 1_555
H3_17 C4_17 1_555 1_555
Zn3 N1_18 1_555 1_555
N1_18 C1_18 1_555 1_555
O1_14 Zn3 1_555 1_555
C1_18 N5_4 1_555 1_555
C2_16 N1_18 1_555 1_555
C3_16 O1_14 1_555 1_555
N5_4 C5_16 1_555 1_555
C4_18 C1_18 1_555 1_555
C5_16 C2_16 1_555 1_555
N3_16 C3_16 1_555 1_555
H1_18 C4_18 1_555 1_555
H2_18 C4_18 1_555 1_555
H3_18 C4_18 1_555 1_555
C6_16 C5_16 1_555 1_555
H4_16 N3_16 1_555 1_555
H5_16 N3_16 1_555 1_555
O3_2 C6_16 1_555 1_555
C2_16 C3_16 1_555 1_555
H6_18 N6_4 1_555 1_555
O1_15 Zn1_3 1_555 1_555
O3_9 Zn1_3 1_555 1_555
C3_17 O1_16 1_555 1_555
C5_17 C2_17 1_555 1_555
N3_17 C3_17 1_555 1_555
C6_17 C5_17 1_555 1_555
H4_17 N3_17 1_555 1_555
H5_17 N3_17 1_555 1_555
O3_9 C6_17 1_555 1_555
C2_17 C3_17 1_555 1_555
C3_18 O1_17 1_555 1_555
C5_18 C2_18 1_555 1_555
N3_18 C3_18 1_555 1_555
C6_18 C5_18 1_555 1_555
H4_18 N3_18 1_555 1_555
H5_18 N3_18 1_555 1_555
O2_9 C6_18 1_555 1_555
Zn3_9 O2_9 1_555 1_555
C2_18 C3_18 1_555 1_555
O1_18 Zn3_9 1_555 1_555

#END
