
###############################################################################
#
# This file contains modified crystal structure data generated from the
# MOF subset of the Cambridge Structural Database (CSD) v543 
# hosted by the Cambridge Crystallographic Data Centre (CCDC).
#
# This work is licensed under the Creative Commons
# Attribution-NonCommercial-ShareAlike 4.0 International License.
# To view a copy of this license, visit
# http://creativecommons.org/licenses/by-nc-sa/4.0/
# or send a letter to
# Creative Commons, PO Box 1866, Mountain View, CA 94042, USA.
#
# CIF created using the CSD Python API on 29 September 2022
# The structure has been converted into the P1 space group
# The structure has a 3D framework
# The original CSD entry XUNSEG is in the monoclinic crystal system
# The framework has been calculated to contain at least 10.0% void space
# The void calculation uses a probe of radius 1.32A, grid spacing 0.4
#
###############################################################################

data_XUNSEG
_chemical_formula_moiety         '(C24 H16 Li2 N4 O8)n'
_symmetry_cell_setting           triclinic
_symmetry_space_group_name_H-M   'P 1'
_symmetry_Int_Tables_number      1
_space_group_name_Hall           'P 1'
loop_
_symmetry_equiv_pos_site_id
_symmetry_equiv_pos_as_xyz
1 x,y,z
_cell_length_a                   5.3881(8)
_cell_length_b                   14.1175(19)
_cell_length_c                   11.4098(18)
_cell_angle_alpha                90
_cell_angle_beta                 101.187(15)
_cell_angle_gamma                90
_cell_volume                     851.413
loop_
_atom_site_label
_atom_site_type_symbol
_atom_site_fract_x
_atom_site_fract_y
_atom_site_fract_z
Li2 Li 0.2052(15) 0.4366(6) 0.0035(7)
O4 O 0.1584(6) 0.5608(2) 0.0728(3)
N2 N 0.2221(7) 0.3358(3) 0.1383(4)
O1 O 0.8416(6) 0.4392(2) 0.9272(3)
O2 O 0.4404(6) 0.3953(3) 0.9136(3)
C1 C 0.6897(8) 0.3066(3) 0.8061(4)
C2 C 0.6536(8) 0.3867(3) 0.8902(4)
N1 N 0.7221(7) 0.1642(3) 0.6383(4)
C3 C 0.5502(10) 0.1609(4) 0.7083(5)
H1 H 0.4378 0.1084 0.7003
C4 C 0.8765(9) 0.3082(4) 0.7387(4)
H2 H 0.9995 0.3572 0.7494
C5 C 0.8825(9) 0.2371(3) 0.6550(4)
C6 C 0.5272(9) 0.2297(3) 0.7918(4)
H4 H 0.4008 0.2243 0.8389
Li3 Li 0.7948(15) 0.5634(6) 0.9965(7)
Li4 Li 0.7052(15) 0.0634(6) 0.5035(7)
O4_2 O 0.3416(6) 0.0608(2) 0.4272(3)
O2_2 O 0.0596(6) 0.8953(3) 0.5864(3)
H1_2 H 0.0622 0.6084 0.7997
H4_2 H 0.0992 0.7243 0.6611
Li1 Li 0.2948(15) 0.9366(6) 0.4965(7)
O3 O 0.6584(6) 0.9392(2) 0.5728(3)
N2_2 N 0.2779(7) 0.8358(3) 0.3617(4)
C1_2 C 0.8103(8) 0.8066(3) 0.6939(4)
C2_2 C 0.8464(8) 0.8867(3) 0.6098(4)
N1_2 N 0.7779(7) 0.6642(3) 0.8617(4)
C3_2 C 0.9498(10) 0.6609(4) 0.7917(5)
C4_2 C 0.6235(9) 0.8082(4) 0.7613(4)
H2_2 H 0.5005 0.8572 0.7506
C5_2 C 0.6175(9) 0.7371(3) 0.8450(4)
H3 H 0.4921 0.7406 0.8931
C6_2 C 0.9728(9) 0.7297(3) 0.7082(4)
O2_3 O 0.5596(6) 0.6047(3) 0.0864(3)
C1_3 C 0.3103(8) 0.6934(3) 0.1939(4)
C2_3 C 0.3464(8) 0.6133(3) 0.1098(4)
C3_3 C 0.4498(10) 0.8391(4) 0.2917(5)
H1_3 H 0.5622 0.8916 0.2997
C4_3 C 0.1235(9) 0.6918(4) 0.2613(4)
H2_3 H 0.0005 0.6428 0.2506
C5_3 C 0.1175(9) 0.7629(3) 0.3450(4)
C6_3 C 0.4728(9) 0.7703(3) 0.2082(4)
H4_3 H 0.5992 0.7757 0.1611
C1_4 C 0.1897(8) 0.1934(3) 0.3061(4)
C2_4 C 0.1536(8) 0.1133(3) 0.3902(4)
C3_4 C 0.0502(10) 0.3391(4) 0.2083(5)
C4_4 C 0.3765(9) 0.1918(4) 0.2387(4)
H2_4 H 0.4995 0.1428 0.2494
C5_4 C 0.3825(9) 0.2629(3) 0.1550(4)
H3_2 H 0.5079 0.2594 0.1069
C6_4 C 0.0272(9) 0.2703(3) 0.2918(4)
O2_4 O 0.9404(6) 0.1047(3) 0.4136(3)
H1_4 H 0.9378 0.3916 0.2003
H4_4 H 0.9008 0.2757 0.3389
H3_3 H 0.0079 0.2406 0.6069
H3_4 H 0.9921 0.7594 0.3931
loop_
_geom_bond_atom_site_label_1
_geom_bond_atom_site_label_2
_geom_bond_site_symmetry_1
_geom_bond_site_symmetry_2
O4 Li2 1_555 1_555
N2 Li2 1_555 1_555
O1 C2 1_555 1_555
O2 C2 1_555 1_555
C1 C2 1_555 1_555
N1 C3 1_555 1_555
C3 H1 1_555 1_555
C4 C1 1_555 1_555
H2 C4 1_555 1_555
C5 N1 1_555 1_555
C6 C1 1_555 1_555
H4 C6 1_555 1_555
Li3 O1 1_555 1_555
Li4 N1 1_555 1_555
C3 C6 1_555 1_555
C4 C5 1_555 1_555
Li1 O2_2 1_555 1_555
O3 Li1 1_555 1_555
N2_2 Li1 1_555 1_555
O3 C2_2 1_555 1_555
C1_2 C2_2 1_555 1_555
N1_2 C3_2 1_555 1_555
C4_2 C1_2 1_555 1_555
H2_2 C4_2 1_555 1_555
C5_2 N1_2 1_555 1_555
H3 C5_2 1_555 1_555
C6_2 C1_2 1_555 1_555
Li3 N1_2 1_555 1_555
C3_2 C6_2 1_555 1_555
C4_2 C5_2 1_555 1_555
O4 C2_3 1_555 1_555
O2_3 C2_3 1_555 1_555
C1_3 C2_3 1_555 1_555
N2_2 C3_3 1_555 1_555
C3_3 H1_3 1_555 1_555
C4_3 C1_3 1_555 1_555
H2_3 C4_3 1_555 1_555
C5_3 N2_2 1_555 1_555
C6_3 C1_3 1_555 1_555
H4_3 C6_3 1_555 1_555
C3_3 C6_3 1_555 1_555
C4_3 C5_3 1_555 1_555
O4_2 C2_4 1_555 1_555
C1_4 C2_4 1_555 1_555
N2 C3_4 1_555 1_555
C4_4 C1_4 1_555 1_555
H2_4 C4_4 1_555 1_555
C5_4 N2 1_555 1_555
H3_2 C5_4 1_555 1_555
C6_4 C1_4 1_555 1_555
Li4 O4_2 1_555 1_555
C3_4 C6_4 1_555 1_555
C4_4 C5_4 1_555 1_555
Li4 O2_4 1_555 1_555

#END
