
###############################################################################
#
# This file contains modified crystal structure data generated from the
# MOF subset of the Cambridge Structural Database (CSD) v543 
# hosted by the Cambridge Crystallographic Data Centre (CCDC).
#
# This work is licensed under the Creative Commons
# Attribution-NonCommercial-ShareAlike 4.0 International License.
# To view a copy of this license, visit
# http://creativecommons.org/licenses/by-nc-sa/4.0/
# or send a letter to
# Creative Commons, PO Box 1866, Mountain View, CA 94042, USA.
#
# CIF created using the CSD Python API on 29 September 2022
# The structure has been converted into the P1 space group
# The structure has a 3D framework
# The original CSD entry XUNSAC is in the monoclinic crystal system
# The original CSD entry XUNSAC is in a Sohncke space group
# The framework has been calculated to contain at least 10.0% void space
# The void calculation uses a probe of radius 1.32A, grid spacing 0.4
#
###############################################################################

data_XUNSAC
_chemical_formula_moiety         '(C48 H32 Li7 N8 O16)n'
_symmetry_cell_setting           triclinic
_symmetry_space_group_name_H-M   'P 1'
_symmetry_Int_Tables_number      1
_space_group_name_Hall           'P 1'
loop_
_symmetry_equiv_pos_site_id
_symmetry_equiv_pos_as_xyz
1 x,y,z
_cell_length_a                   10.80930(10)
_cell_length_b                   14.3476(2)
_cell_length_c                   10.82430(10)
_cell_angle_alpha                90
_cell_angle_beta                 103.5590(10)
_cell_angle_gamma                90
_cell_volume                     1631.93
loop_
_atom_site_label
_atom_site_type_symbol
_atom_site_fract_x
_atom_site_fract_y
_atom_site_fract_z
C1 C 0.6258(2) 0.09061(18) 0.0598(2)
H1 H 0.6890 0.0433 0.0735
N2 N 0.02517(18) 0.10256(15) 0.14140(17)
C8 C 0.1023(2) 0.09565(18) 0.0620(2)
H5 H 0.1509 0.0402 0.0640
N4 N 0.53102(18) 0.08346(15) 0.11969(18)
C21 C 0.4410(2) 0.1495(2) 0.0952(2)
H14 H 0.3726 0.1453 0.1363
C24 C 0.4420(2) 0.22374(18) 0.0136(2)
C2 C 0.1329(2) 0.74734(18) 0.4211(2)
H2 H 0.0724 0.7965 0.4072
C3 C 0.1224(2) 0.67836(19) 0.5071(2)
H3 H 0.0549 0.6800 0.5496
C4 C 0.04375(19) 0.24561(17) 0.97073(18)
C5 C 0.05868(19) 0.32398(16) 0.88080(18)
C7 C 0.1157(2) 0.16487(18) 0.9766(2)
H4 H 0.1731 0.1572 0.9230
O3 O 0.09235(15) 0.52098(14) 0.64832(15)
O4 O 0.66880(14) 0.33885(13) 0.87327(14)
O5 O 0.29066(13) 0.47426(11) 0.65723(13)
O6 O 0.16300(14) 0.32892(13) 0.85167(14)
C12 C 0.1966(2) 0.52801(16) 0.61990(18)
O7 O 0.45904(13) 0.36166(12) 0.82628(13)
N3 N 0.22483(18) 0.74822(15) 0.35595(16)
Li2 Li 0.2736(3) 0.3583(3) 0.7479(3)
C17 C 0.6366(2) 0.16353(18) 0.97885(19)
H12 H 0.7066 0.1664 0.9397
C18 C 0.2109(2) 0.60691(17) 0.53117(19)
C19 C 0.3106(2) 0.67917(19) 0.3805(2)
H13 H 0.3764 0.6787 0.3357
C20 C 0.55717(19) 0.31735(17) 0.87747(18)
C22 C 0.5435(2) 0.23236(16) 0.95591(19)
C23 C 0.3089(2) 0.60828(17) 0.4673(2)
H15 H 0.3732 0.5617 0.4829
H16 H 0.3746 0.2679 0.9974
Li5 Li 0.4696(3) 0.4826(3) 0.7443(3)
N5 N 0.26505(19) 0.25282(15) 0.61849(17)
Li9 Li 0.7820(3) 0.3601(3) 0.7659(3)
Li10 Li 0.2180(3) 0.8601(3) 0.2341(3)
Li6 Li 0.5304(3) 0.9826(3) 0.2557(3)
Li8 Li 0.0280(3) 0.9895(3) 0.2608(3)
O1 O 0.96551(13) 0.37736(11) 0.84329(13)
N1 N 0.73495(19) 0.75282(15) 0.38151(17)
O2 O 0.78777(13) 0.47123(12) 0.66526(13)
C6 C 0.71116(19) 0.60559(17) 0.54370(19)
C10 C 0.6944(2) 0.52548(17) 0.62875(19)
C11 C 0.6577(2) 0.7589(2) 0.4623(2)
H7 H 0.6119 0.8151 0.4644
C14 C 0.8002(2) 0.67363(19) 0.38230(19)
H9 H 0.8539 0.6678 0.3247
C15 C 0.7935(2) 0.59936(18) 0.4629(2)
H10 H 0.8443 0.5453 0.4627
C16 C 0.6420(2) 0.68707(19) 0.5424(2)
H11 H 0.5843 0.6935 0.5960
O8 O 0.58918(14) 0.51864(14) 0.65581(16)
Li3 Li 0.9720(3) 0.4895(3) 0.7392(3)
N6 N 0.97483(18) 0.60256(15) 0.85860(17)
N7 N 0.77517(18) 0.24822(15) 0.64405(16)
Li7 Li 0.7264(3) 0.8583(3) 0.2521(3)
N8 N 0.46898(18) 0.58346(15) 0.88031(18)
C6_2 C 0.28884(19) 0.10559(17) 0.45630(19)
C10_2 C 0.3056(2) 0.02548(17) 0.37125(19)
C11_2 C 0.3423(2) 0.2589(2) 0.5377(2)
H7_2 H 0.3881 0.3151 0.5356
C14_2 C 0.1998(2) 0.17363(19) 0.61770(19)
H9_2 H 0.1461 0.1678 0.6753
C15_2 C 0.2065(2) 0.09936(18) 0.5371(2)
H10_2 H 0.1557 0.0453 0.5373
C16_2 C 0.3580(2) 0.18707(19) 0.4576(2)
H11_2 H 0.4157 0.1935 0.4040
O8_2 O 0.41082(14) 0.01864(14) 0.34419(16)
O1_2 O 0.03449(13) 0.87736(11) 0.15671(13)
O2_2 O 0.21223(13) 0.97123(12) 0.33474(13)
O9 O 0.33120(14) 0.83885(13) 0.12673(14)
O10 O 0.70934(13) 0.97426(11) 0.34277(13)
O11 O 0.54096(13) 0.86166(12) 0.17372(13)
C2_2 C 0.8671(2) 0.24734(18) 0.5789(2)
H2_2 H 0.9276 0.2965 0.5928
C3_2 C 0.8776(2) 0.17836(19) 0.4929(2)
H3_2 H 0.9451 0.1800 0.4504
O3_2 O 0.90765(15) 0.02098(14) 0.35168(15)
C12_2 C 0.8034(2) 0.02801(16) 0.38010(18)
C18_2 C 0.7891(2) 0.10691(17) 0.46883(19)
C19_2 C 0.6894(2) 0.17917(19) 0.6195(2)
H13_2 H 0.6236 0.1787 0.6643
C23_2 C 0.6911(2) 0.10828(17) 0.5327(2)
H15_2 H 0.6268 0.0617 0.5171
C4_2 C 0.95625(19) 0.74561(17) 0.02927(18)
C5_2 C 0.94132(19) 0.82398(16) 0.11920(18)
C7_2 C 0.8843(2) 0.66487(18) 0.0234(2)
H4_2 H 0.8269 0.6572 0.0770
O6_2 O 0.83700(14) 0.82892(13) 0.14833(14)
C17_2 C 0.3634(2) 0.66353(18) 0.02115(19)
H12_2 H 0.2934 0.6664 0.0603
C20_2 C 0.44283(19) 0.81735(17) 0.12253(18)
C22_2 C 0.4565(2) 0.73236(16) 0.04409(19)
H16_2 H 0.6254 0.7679 0.0026
C1_2 C 0.3742(2) 0.59061(18) 0.9402(2)
H1_2 H 0.3110 0.5433 0.9265
C8_2 C 0.8977(2) 0.59565(18) 0.9380(2)
H5_2 H 0.8491 0.5402 0.9360
C21_2 C 0.5590(2) 0.6495(2) 0.9048(2)
H14_2 H 0.6274 0.6453 0.8637
C24_2 C 0.5580(2) 0.72374(18) 0.9864(2)
C9 C 0.9610(2) 0.25298(18) 0.05092(19)
H6 H 0.9086 0.3065 0.0483
C13 C 0.9562(2) 0.18083(19) 0.13482(19)
H8 H 0.9009 0.1872 0.1908
C9_2 C 0.0390(2) 0.75298(18) 0.94908(19)
H6_2 H 0.0914 0.8065 0.9517
C13_2 C 0.0438(2) 0.68083(19) 0.86518(19)
H8_2 H 0.0991 0.6872 0.8092
loop_
_geom_bond_atom_site_label_1
_geom_bond_atom_site_label_2
_geom_bond_site_symmetry_1
_geom_bond_site_symmetry_2
C1 H1 1_555 1_555
N2 C8 1_555 1_555
H5 C8 1_555 1_555
N4 C1 1_555 1_555
C21 N4 1_555 1_555
H14 C21 1_555 1_555
C24 C21 1_555 1_555
C2 H2 1_555 1_555
C3 C2 1_555 1_555
H3 C3 1_555 1_555
C4 C5 1_555 1_555
C5 O6 1_555 1_555
C7 C4 1_555 1_555
H4 C7 1_555 1_555
O3 C12 1_555 1_555
O4 C20 1_555 1_555
O5 C12 1_555 1_555
O6 Li2 1_555 1_555
C12 C18 1_555 1_555
O7 Li2 1_555 1_555
N3 C2 1_555 1_555
Li2 O5 1_555 1_555
H12 C17 1_555 1_555
C18 C3 1_555 1_555
C19 N3 1_555 1_555
H13 C19 1_555 1_555
C20 O7 1_555 1_555
C22 C17 1_555 1_555
C23 C18 1_555 1_555
H15 C23 1_555 1_555
Li5 O5 1_555 1_555
N5 Li2 1_555 1_555
Li9 O4 1_555 1_555
Li10 N3 1_555 1_555
O7 Li5 1_555 1_555
C19 C23 1_555 1_555
C20 C22 1_555 1_555
Li5 O8 1_555 1_555
N1 C11 1_555 1_555
O2 C10 1_555 1_555
C6 C10 1_555 1_555
C10 O8 1_555 1_555
C11 H7 1_555 1_555
C14 N1 1_555 1_555
H9 C14 1_555 1_555
C15 C6 1_555 1_555
H10 C15 1_555 1_555
C16 C6 1_555 1_555
H11 C16 1_555 1_555
Li3 O1 1_555 1_555
Li9 O1 1_555 1_555
N6 Li3 1_555 1_555
N7 Li9 1_555 1_555
Li7 N1 1_555 1_555
N8 Li5 1_555 1_555
O2 Li3 1_555 1_555
O2 Li9 1_555 1_555
C11 C16 1_555 1_555
C14 C15 1_555 1_555
N5 C11_2 1_555 1_555
C6_2 C10_2 1_555 1_555
C10_2 O8_2 1_555 1_555
C11_2 H7_2 1_555 1_555
C14_2 N5 1_555 1_555
H9_2 C14_2 1_555 1_555
C15_2 C6_2 1_555 1_555
H10_2 C15_2 1_555 1_555
C16_2 C6_2 1_555 1_555
H11_2 C16_2 1_555 1_555
C11_2 C16_2 1_555 1_555
C14_2 C15_2 1_555 1_555
Li8 O1_2 1_555 1_555
Li10 O1_2 1_555 1_555
O9 Li10 1_555 1_555
O10 Li6 1_555 1_555
O11 Li6 1_555 1_555
O2_2 Li8 1_555 1_555
O2_2 Li10 1_555 1_555
C2_2 H2_2 1_555 1_555
C3_2 C2_2 1_555 1_555
H3_2 C3_2 1_555 1_555
O3_2 C12_2 1_555 1_555
C12_2 C18_2 1_555 1_555
N7 C2_2 1_555 1_555
C18_2 C3_2 1_555 1_555
C19_2 N7 1_555 1_555
H13_2 C19_2 1_555 1_555
C23_2 C18_2 1_555 1_555
H15_2 C23_2 1_555 1_555
C19_2 C23_2 1_555 1_555
C4_2 C5_2 1_555 1_555
C5_2 O6_2 1_555 1_555
C7_2 C4_2 1_555 1_555
H4_2 C7_2 1_555 1_555
O9 C20_2 1_555 1_555
O6_2 Li7 1_555 1_555
O11 Li7 1_555 1_555
Li7 O10 1_555 1_555
H12_2 C17_2 1_555 1_555
C20_2 O11 1_555 1_555
C22_2 C17_2 1_555 1_555
C20_2 C22_2 1_555 1_555
C1_2 H1_2 1_555 1_555
N6 C8_2 1_555 1_555
H5_2 C8_2 1_555 1_555
N8 C1_2 1_555 1_555
C21_2 N8 1_555 1_555
H14_2 C21_2 1_555 1_555
C24_2 C21_2 1_555 1_555
H6 C9 1_555 1_555
H8 C13 1_555 1_555
C9 C13 1_555 1_555
H6_2 C9_2 1_555 1_555
H8_2 C13_2 1_555 1_555
C9_2 C13_2 1_555 1_555

#END
