
###############################################################################
#
# This file contains modified crystal structure data generated from the
# MOF subset of the Cambridge Structural Database (CSD) v543 
# hosted by the Cambridge Crystallographic Data Centre (CCDC).
#
# This work is licensed under the Creative Commons
# Attribution-NonCommercial-ShareAlike 4.0 International License.
# To view a copy of this license, visit
# http://creativecommons.org/licenses/by-nc-sa/4.0/
# or send a letter to
# Creative Commons, PO Box 1866, Mountain View, CA 94042, USA.
#
# CIF created using the CSD Python API on 29 September 2022
# The structure has been converted into the P1 space group
# The structure has a 3D framework
# The original CSD entry XUNTIL is in the monoclinic crystal system
# The framework has been calculated to contain at least 10.0% void space
# The void calculation uses a probe of radius 1.32A, grid spacing 0.4
#
###############################################################################

data_XUNTIL
_chemical_formula_moiety         '(C24 H16 Li4 N4 O8)n'
_symmetry_cell_setting           triclinic
_symmetry_space_group_name_H-M   'P 1'
_symmetry_Int_Tables_number      1
_space_group_name_Hall           'P 1'
loop_
_symmetry_equiv_pos_site_id
_symmetry_equiv_pos_as_xyz
1 x,y,z
_cell_length_a                   5.2038(14)
_cell_length_b                   14.516(7)
_cell_length_c                   10.295(5)
_cell_angle_alpha                90
_cell_angle_beta                 96.14(4)
_cell_angle_gamma                90
_cell_volume                     773.206
loop_
_atom_site_label
_atom_site_type_symbol
_atom_site_fract_x
_atom_site_fract_y
_atom_site_fract_z
O5 O 0.004(2) 0.3847(7) 0.0839(12)
O4 O 0.387(2) 0.4537(7) 0.0941(11)
O1 O 0.387(2) 0.0463(7) 0.5941(11)
O2 O 0.004(2) 0.1153(7) 0.5839(12)
N1 N 0.564(3) 0.3280(9) 0.8709(15)
C1 C 0.679(4) 0.2476(10) 0.8695(15)
H1 H 0.8337 0.2377 0.9257
C2 C 0.341(4) 0.1880(10) 0.7086(16)
C3 C 0.225(4) 0.1113(10) 0.6244(18)
C4 C 0.231(3) 0.2701(10) 0.7101(19)
H2 H 0.0799 0.2814 0.6518
C5 C 0.579(3) 0.1756(10) 0.7868(16)
H3 H 0.6712 0.1193 0.7836
C6 C 0.327(4) 0.3415(12) 0.7944(19)
H4 H 0.2342 0.3975 0.7994
Li1 Li 0.685(6) 0.4343(17) 0.998(2)
O3 O 0.613(2) 0.5463(7) 0.9059(11)
Li4 Li 0.685(6) 0.0657(17) 0.498(2)
Li2 Li 0.315(6) 0.9343(17) 0.502(2)
Li3 Li 0.315(6) 0.5657(17) 0.002(2)
O2_2 O 0.996(2) 0.6153(7) 0.9161(12)
N1_2 N 0.436(3) 0.8280(9) 0.6291(15)
C1_2 C 0.321(4) 0.7476(10) 0.6305(15)
H1_2 H 0.1663 0.7377 0.5743
C2_2 C 0.659(4) 0.6880(10) 0.7914(16)
C3_2 C 0.775(4) 0.6113(10) 0.8756(18)
C4_2 C 0.769(3) 0.7701(10) 0.7899(19)
H2_2 H 0.9201 0.7814 0.8482
C5_2 C 0.421(3) 0.6756(10) 0.7132(16)
H3_2 H 0.3288 0.6193 0.7164
C6_2 C 0.673(4) 0.8415(12) 0.7056(19)
H4_2 H 0.7658 0.8975 0.7006
O4_2 O 0.613(2) 0.9537(7) 0.4059(11)
O5_2 O 0.996(2) 0.8847(7) 0.4161(12)
N1_3 N 0.436(3) 0.6720(9) 0.1291(15)
C1_3 C 0.321(4) 0.7524(10) 0.1305(15)
H1_3 H 0.1663 0.7623 0.0743
C2_3 C 0.659(4) 0.8120(10) 0.2914(16)
C3_3 C 0.775(4) 0.8887(10) 0.3756(18)
C4_3 C 0.769(3) 0.7299(10) 0.2899(19)
H2_3 H 0.9201 0.7186 0.3482
C5_3 C 0.421(3) 0.8244(10) 0.2132(16)
H3_3 H 0.3288 0.8807 0.2164
C6_3 C 0.673(4) 0.6585(12) 0.2056(19)
H4_3 H 0.7658 0.6025 0.2006
N1_4 N 0.564(3) 0.1720(9) 0.3709(15)
C1_4 C 0.679(4) 0.2524(10) 0.3695(15)
H1_4 H 0.8337 0.2623 0.4257
C2_4 C 0.341(4) 0.3120(10) 0.2086(16)
C3_4 C 0.225(4) 0.3887(10) 0.1244(18)
C4_4 C 0.231(3) 0.2299(10) 0.2101(19)
H2_4 H 0.0799 0.2186 0.1518
C5_4 C 0.579(3) 0.3244(10) 0.2868(16)
H3_4 H 0.6712 0.3807 0.2836
C6_4 C 0.327(4) 0.1585(12) 0.2944(19)
H4_4 H 0.2342 0.1025 0.2994
loop_
_geom_bond_atom_site_label_1
_geom_bond_atom_site_label_2
_geom_bond_site_symmetry_1
_geom_bond_site_symmetry_2
O1 C3 1_555 1_555
O2 C3 1_555 1_555
N1 C1 1_555 1_555
C1 H1 1_555 1_555
C2 C3 1_555 1_555
C4 C2 1_555 1_555
H2 C4 1_555 1_555
C5 C1 1_555 1_555
H3 C5 1_555 1_555
C6 N1 1_555 1_555
H4 C6 1_555 1_555
Li1 N1 1_555 1_555
O3 Li1 1_555 1_555
Li4 O1 1_555 1_555
C2 C5 1_555 1_555
C4 C6 1_555 1_555
O3 C3_2 1_555 1_555
O2_2 C3_2 1_555 1_555
N1_2 C1_2 1_555 1_555
C1_2 H1_2 1_555 1_555
C2_2 C3_2 1_555 1_555
C4_2 C2_2 1_555 1_555
H2_2 C4_2 1_555 1_555
C5_2 C1_2 1_555 1_555
H3_2 C5_2 1_555 1_555
C6_2 N1_2 1_555 1_555
H4_2 C6_2 1_555 1_555
Li2 N1_2 1_555 1_555
O4_2 Li2 1_555 1_555
C2_2 C5_2 1_555 1_555
C4_2 C6_2 1_555 1_555
O4_2 C3_3 1_555 1_555
O5_2 C3_3 1_555 1_555
N1_3 C1_3 1_555 1_555
C1_3 H1_3 1_555 1_555
C2_3 C3_3 1_555 1_555
C4_3 C2_3 1_555 1_555
H2_3 C4_3 1_555 1_555
C5_3 C1_3 1_555 1_555
H3_3 C5_3 1_555 1_555
C6_3 N1_3 1_555 1_555
H4_3 C6_3 1_555 1_555
Li3 N1_3 1_555 1_555
O4 Li3 1_555 1_555
C2_3 C5_3 1_555 1_555
C4_3 C6_3 1_555 1_555
O4 C3_4 1_555 1_555
O5 C3_4 1_555 1_555
N1_4 C1_4 1_555 1_555
C1_4 H1_4 1_555 1_555
C2_4 C3_4 1_555 1_555
C4_4 C2_4 1_555 1_555
H2_4 C4_4 1_555 1_555
C5_4 C1_4 1_555 1_555
H3_4 C5_4 1_555 1_555
C6_4 N1_4 1_555 1_555
H4_4 C6_4 1_555 1_555
Li4 N1_4 1_555 1_555
C2_4 C5_4 1_555 1_555
C4_4 C6_4 1_555 1_555

#END
